# Generated by pormake.
# Topology ocu, (6,8)-cn, num edge types: 1
# Building blocks:
#     Node 0, Type 0, BuildingBlock: CUWYAW_clean_sbu_0, # of connection points: 6
#     Node 1, Type 0, BuildingBlock: CUWYAW_clean_sbu_0, # of connection points: 6
#     Node 2, Type 0, BuildingBlock: CUWYAW_clean_sbu_0, # of connection points: 6
#     Node 3, Type 0, BuildingBlock: CUWYAW_clean_sbu_0, # of connection points: 6
#     Node 4, Type 0, BuildingBlock: CUWYAW_clean_sbu_0, # of connection points: 6
#     Node 5, Type 0, BuildingBlock: CUWYAW_clean_sbu_0, # of connection points: 6
#     Node 6, Type 0, BuildingBlock: CUWYAW_clean_sbu_0, # of connection points: 6
#     Node 7, Type 0, BuildingBlock: CUWYAW_clean_sbu_0, # of connection points: 6
#     Node 8, Type 1, BuildingBlock: TAGTUT_clean_sbu_1, # of connection points: 8
#     Node 9, Type 1, BuildingBlock: TAGTUT_clean_sbu_1, # of connection points: 8
#     Node 10, Type 1, BuildingBlock: TAGTUT_clean_sbu_1, # of connection points: 8
#     Node 11, Type 1, BuildingBlock: TAGTUT_clean_sbu_1, # of connection points: 8
#     Node 12, Type 1, BuildingBlock: TAGTUT_clean_sbu_1, # of connection points: 8
#     Node 13, Type 1, BuildingBlock: TAGTUT_clean_sbu_1, # of connection points: 8
#     Edge 14, Type (0, 1), BuildingBlock: XUDNAN_clean_linker_2, # of connection points: 2
#     Edge 15, Type (0, 1), BuildingBlock: XUDNAN_clean_linker_2, # of connection points: 2
#     Edge 16, Type (0, 1), BuildingBlock: XUDNAN_clean_linker_2, # of connection points: 2
#     Edge 17, Type (0, 1), BuildingBlock: XUDNAN_clean_linker_2, # of connection points: 2
#     Edge 18, Type (0, 1), BuildingBlock: XUDNAN_clean_linker_2, # of connection points: 2
#     Edge 19, Type (0, 1), BuildingBlock: XUDNAN_clean_linker_2, # of connection points: 2
#     Edge 20, Type (0, 1), BuildingBlock: XUDNAN_clean_linker_2, # of connection points: 2
#     Edge 21, Type (0, 1), BuildingBlock: XUDNAN_clean_linker_2, # of connection points: 2
#     Edge 22, Type (0, 1), BuildingBlock: XUDNAN_clean_linker_2, # of connection points: 2
#     Edge 23, Type (0, 1), BuildingBlock: XUDNAN_clean_linker_2, # of connection points: 2
#     Edge 24, Type (0, 1), BuildingBlock: XUDNAN_clean_linker_2, # of connection points: 2
#     Edge 25, Type (0, 1), BuildingBlock: XUDNAN_clean_linker_2, # of connection points: 2
#     Edge 26, Type (0, 1), BuildingBlock: XUDNAN_clean_linker_2, # of connection points: 2
#     Edge 27, Type (0, 1), BuildingBlock: XUDNAN_clean_linker_2, # of connection points: 2
#     Edge 28, Type (0, 1), BuildingBlock: XUDNAN_clean_linker_2, # of connection points: 2
#     Edge 29, Type (0, 1), BuildingBlock: XUDNAN_clean_linker_2, # of connection points: 2
#     Edge 30, Type (0, 1), BuildingBlock: XUDNAN_clean_linker_2, # of connection points: 2
#     Edge 31, Type (0, 1), BuildingBlock: XUDNAN_clean_linker_2, # of connection points: 2
#     Edge 32, Type (0, 1), BuildingBlock: XUDNAN_clean_linker_2, # of connection points: 2
#     Edge 33, Type (0, 1), BuildingBlock: XUDNAN_clean_linker_2, # of connection points: 2
#     Edge 34, Type (0, 1), BuildingBlock: XUDNAN_clean_linker_2, # of connection points: 2
#     Edge 35, Type (0, 1), BuildingBlock: XUDNAN_clean_linker_2, # of connection points: 2
#     Edge 36, Type (0, 1), BuildingBlock: XUDNAN_clean_linker_2, # of connection points: 2
#     Edge 37, Type (0, 1), BuildingBlock: XUDNAN_clean_linker_2, # of connection points: 2
#     Edge 38, Type (0, 1), BuildingBlock: XUDNAN_clean_linker_2, # of connection points: 2
#     Edge 39, Type (0, 1), BuildingBlock: XUDNAN_clean_linker_2, # of connection points: 2
#     Edge 40, Type (0, 1), BuildingBlock: XUDNAN_clean_linker_2, # of connection points: 2
#     Edge 41, Type (0, 1), BuildingBlock: XUDNAN_clean_linker_2, # of connection points: 2
#     Edge 42, Type (0, 1), BuildingBlock: XUDNAN_clean_linker_2, # of connection points: 2
#     Edge 43, Type (0, 1), BuildingBlock: XUDNAN_clean_linker_2, # of connection points: 2
#     Edge 44, Type (0, 1), BuildingBlock: XUDNAN_clean_linker_2, # of connection points: 2
#     Edge 45, Type (0, 1), BuildingBlock: XUDNAN_clean_linker_2, # of connection points: 2
#     Edge 46, Type (0, 1), BuildingBlock: XUDNAN_clean_linker_2, # of connection points: 2
#     Edge 47, Type (0, 1), BuildingBlock: XUDNAN_clean_linker_2, # of connection points: 2
#     Edge 48, Type (0, 1), BuildingBlock: XUDNAN_clean_linker_2, # of connection points: 2
#     Edge 49, Type (0, 1), BuildingBlock: XUDNAN_clean_linker_2, # of connection points: 2
#     Edge 50, Type (0, 1), BuildingBlock: XUDNAN_clean_linker_2, # of connection points: 2
#     Edge 51, Type (0, 1), BuildingBlock: XUDNAN_clean_linker_2, # of connection points: 2
#     Edge 52, Type (0, 1), BuildingBlock: XUDNAN_clean_linker_2, # of connection points: 2
#     Edge 53, Type (0, 1), BuildingBlock: XUDNAN_clean_linker_2, # of connection points: 2
#     Edge 54, Type (0, 1), BuildingBlock: XUDNAN_clean_linker_2, # of connection points: 2
#     Edge 55, Type (0, 1), BuildingBlock: XUDNAN_clean_linker_2, # of connection points: 2
#     Edge 56, Type (0, 1), BuildingBlock: XUDNAN_clean_linker_2, # of connection points: 2
#     Edge 57, Type (0, 1), BuildingBlock: XUDNAN_clean_linker_2, # of connection points: 2
#     Edge 58, Type (0, 1), BuildingBlock: XUDNAN_clean_linker_2, # of connection points: 2
#     Edge 59, Type (0, 1), BuildingBlock: XUDNAN_clean_linker_2, # of connection points: 2
#     Edge 60, Type (0, 1), BuildingBlock: XUDNAN_clean_linker_2, # of connection points: 2
#     Edge 61, Type (0, 1), BuildingBlock: XUDNAN_clean_linker_2, # of connection points: 2
# Relax obj value: 0.148
# Max RMSD: 0.222
# Mean RMSD: 0.130
data_MOF--net-ocu--node1-CUWYAW_clean_sbu_0--node2-TAGTUT_clean_sbu_1--edge1-XUDNAN_clean_linker_2
_symmetry_space_group_name_H-M    P1
_symmetry_Int_Tables_number       1
_symmetry_cell_setting            triclinic
loop_
_symmetry_equiv_pos_as_xyz
'x, y, z'
_cell_length_a     41.096499
_cell_length_b     39.270793
_cell_length_c     39.938627
_cell_angle_alpha  83.484149
_cell_angle_beta   102.13927
_cell_angle_gamma 109.80336
loop_
_atom_site_label
_atom_site_type_symbol
_atom_site_fract_x
_atom_site_fract_y
_atom_site_fract_z
_atom_type_partial_charge
C0 C 0.3488 0.37316 0.35333 0.0
Eu1 Eu 0.32163 0.32084 0.31039 0.0
C2 C 0.34145 0.38207 0.38487 0.0
C3 C 0.35411 0.41812 0.39432 0.0
C4 C 0.34458 0.42766 0.42254 0.0
C5 C 0.32226 0.40117 0.44171 0.0
C6 C 0.31093 0.36473 0.43296 0.0
C7 C 0.3203 0.35527 0.4046 0.0
C8 C 0.35342 0.33088 0.25333 0.0
C9 C 0.25249 0.33375 0.26114 0.0
C10 C 0.25566 0.21577 0.22707 0.0
Eu11 Eu 0.28353 0.2685 0.26955 0.0
C12 C 0.26709 0.19459 0.20697 0.0
C13 C 0.24274 0.17395 0.1807 0.0
C14 C 0.25367 0.15554 0.15965 0.0
C15 C 0.28916 0.15764 0.16463 0.0
C16 C 0.3133 0.1777 0.19163 0.0
C17 C 0.30236 0.19617 0.21257 0.0
C18 C 0.25023 0.26038 0.32493 0.0
C19 C 0.35202 0.25669 0.32139 0.0
O20 O 0.35924 0.34509 0.35537 0.0
O21 O 0.32544 0.3738 0.32585 0.0
O22 O 0.3695 0.33498 0.28465 0.0
O23 O 0.32058 0.32138 0.25289 0.0
O24 O 0.27364 0.34033 0.29124 0.0
O25 O 0.25344 0.30737 0.2441 0.0
O26 O 0.26243 0.24991 0.21762 0.0
O27 O 0.26236 0.21071 0.26027 0.0
O28 O 0.23575 0.26044 0.29299 0.0
O29 O 0.28328 0.26761 0.32691 0.0
O30 O 0.33336 0.25094 0.28997 0.0
O31 O 0.34724 0.28055 0.33861 0.0
H32 H 0.37038 0.43907 0.37917 0.0
H33 H 0.35328 0.45601 0.42826 0.0
H34 H 0.29399 0.34369 0.44745 0.0
H35 H 0.31029 0.32725 0.39753 0.0
H36 H 0.21542 0.17271 0.17603 0.0
H37 H 0.23458 0.14061 0.13887 0.0
H38 H 0.34072 0.17935 0.19642 0.0
H39 H 0.32148 0.21209 0.23275 0.0
C40 C 0.89111 0.29978 0.22272 0.0
Eu41 Eu 0.83656 0.28543 0.25149 0.0
C42 C 0.92781 0.30763 0.24066 0.0
C43 C 0.93457 0.29506 0.27503 0.0
C44 C 0.96309 0.31583 0.29795 0.0
C45 C 0.9856 0.34834 0.28608 0.0
C46 C 0.98385 0.35516 0.25037 0.0
C47 C 0.95425 0.33558 0.22776 0.0
C48 C 0.77744 0.22685 0.2355 0.0
C49 C 0.77837 0.32584 0.22406 0.0
C50 C 0.74174 0.26955 0.33202 0.0
Eu51 Eu 0.78603 0.27883 0.29157 0.0
C52 C 0.74622 0.28919 0.36255 0.0
C53 C 0.71678 0.28884 0.37481 0.0
C54 C 0.72101 0.30347 0.40622 0.0
C55 C 0.75493 0.31773 0.4264 0.0
C56 C 0.78435 0.32313 0.41119 0.0
C57 C 0.78002 0.3085 0.37962 0.0
C58 C 0.84468 0.33769 0.30823 0.0
C59 C 0.84021 0.23616 0.31786 0.0
O60 O 0.87033 0.2669 0.22762 0.0
O61 O 0.87684 0.3242 0.22581 0.0
O62 O 0.80881 0.22677 0.2357 0.0
O63 O 0.77839 0.25779 0.24122 0.0
O64 O 0.81208 0.32946 0.22637 0.0
O65 O 0.75934 0.29973 0.24241 0.0
O66 O 0.76154 0.24913 0.33425 0.0
O67 O 0.74092 0.28898 0.30345 0.0
O68 O 0.8128 0.33791 0.30221 0.0
O69 O 0.84465 0.30662 0.30326 0.0
O70 O 0.80606 0.23094 0.31211 0.0
O71 O 0.86009 0.26413 0.30224 0.0
H72 H 0.91556 0.27203 0.28516 0.0
H73 H 0.96421 0.30951 0.32519 0.0
H74 H 1.00124 0.37994 0.24044 0.0
H75 H 0.94994 0.34537 0.20126 0.0
H76 H 0.69051 0.2753 0.36116 0.0
H77 H 0.69737 0.29935 0.4162 0.0
H78 H 0.81075 0.33465 0.4255 0.0
H79 H 0.80313 0.31022 0.36967 0.0
C80 C 0.8521 0.7347 0.38519 0.0
Eu81 Eu 0.81044 0.75577 0.33556 0.0
C82 C 0.86908 0.70778 0.38408 0.0
C83 C 0.90375 0.71475 0.40157 0.0
C84 C 0.92645 0.70147 0.38968 0.0
C85 C 0.91473 0.68108 0.36014 0.0
C86 C 0.87908 0.67089 0.34484 0.0
C87 C 0.85634 0.68419 0.35679 0.0
C88 C 0.75164 0.7115 0.29885 0.0
C89 C 0.82075 0.74029 0.25927 0.0
C90 C 0.7384 0.81532 0.22011 0.0
Eu91 Eu 0.77713 0.79366 0.27155 0.0
C92 C 0.7192 0.83984 0.22297 0.0
C93 C 0.68596 0.83541 0.20284 0.0
C94 C 0.66414 0.85244 0.21129 0.0
C95 C 0.67491 0.87341 0.24057 0.0
C96 C 0.70869 0.87845 0.26005 0.0
C97 C 0.73068 0.86213 0.25113 0.0
C98 C 0.83731 0.83709 0.30949 0.0
C99 C 0.76338 0.80821 0.3457 0.0
O100 O 0.86311 0.76238 0.36427 0.0
O101 O 0.8178 0.72334 0.38308 0.0
O102 O 0.77602 0.70077 0.31831 0.0
O103 O 0.75728 0.74448 0.30363 0.0
O104 O 0.83204 0.73914 0.29303 0.0
O105 O 0.79831 0.75806 0.24551 0.0
O106 O 0.72715 0.78418 0.23666 0.0
O107 O 0.77286 0.82919 0.2258 0.0
O108 O 0.81266 0.84863 0.29172 0.0
O109 O 0.83019 0.80424 0.30326 0.0
O110 O 0.7529 0.80943 0.31191 0.0
O111 O 0.78479 0.78936 0.36025 0.0
H112 H 0.91421 0.73332 0.42226 0.0
H113 H 0.95364 0.70854 0.40269 0.0
H114 H 0.86935 0.65467 0.32242 0.0
H115 H 0.82977 0.67887 0.34259 0.0
H116 H 0.67643 0.81784 0.18138 0.0
H117 H 0.63877 0.849 0.19486 0.0
H118 H 0.71797 0.89433 0.28267 0.0
H119 H 0.7561 0.86559 0.26733 0.0
C120 C 0.31858 0.87697 0.32544 0.0
Eu121 Eu 0.30632 0.8125 0.30538 0.0
C122 C 0.31676 0.89087 0.35704 0.0
C123 C 0.3251 0.92815 0.35991 0.0
C124 C 0.32085 0.9412 0.38922 0.0
C125 C 0.3082 0.917 0.41593 0.0
C126 C 0.30155 0.87973 0.4135 0.0
C127 C 0.30566 0.86675 0.38416 0.0
C128 C 0.25863 0.77781 0.25268 0.0
C129 C 0.26293 0.7404 0.34252 0.0
C130 C 0.29722 0.67704 0.26548 0.0
Eu131 Eu 0.31314 0.74144 0.28747 0.0
C132 C 0.29426 0.66388 0.23192 0.0
C133 C 0.28773 0.62707 0.22807 0.0
C134 C 0.28822 0.61523 0.19657 0.0
C135 C 0.29514 0.64017 0.16864 0.0
C136 C 0.29913 0.67664 0.17213 0.0
C137 C 0.2991 0.68846 0.20367 0.0
C138 C 0.36295 0.77693 0.3393 0.0
C139 C 0.35442 0.81356 0.24761 0.0
O140 O 0.34307 0.86203 0.32804 0.0
O141 O 0.28828 0.85797 0.30802 0.0
O142 O 0.25045 0.79395 0.27476 0.0
O143 O 0.29071 0.78174 0.25908 0.0
O144 O 0.27833 0.77569 0.34601 0.0
O145 O 0.26991 0.72317 0.31969 0.0
O146 O 0.27373 0.69207 0.2673 0.0
O147 O 0.32907 0.69568 0.28014 0.0
O148 O 0.3685 0.7571 0.3186 0.0
O149 O 0.33072 0.77325 0.33358 0.0
O150 O 0.34113 0.77776 0.24693 0.0
O151 O 0.34629 0.83182 0.26892 0.0
H152 H 0.33385 0.947 0.33909 0.0
H153 H 0.32567 0.96998 0.39013 0.0
H154 H 0.29224 0.86053 0.43387 0.0
H155 H 0.29962 0.83786 0.38239 0.0
H156 H 0.28374 0.60782 0.24972 0.0
H157 H 0.28553 0.58706 0.19481 0.0
H158 H 0.30419 0.69637 0.15097 0.0
H159 H 0.30418 0.717 0.20637 0.0
C160 C 0.37957 0.86201 0.81438 0.0
Eu161 Eu 0.31986 0.80996 0.80166 0.0
C162 C 0.40286 0.885 0.79221 0.0
C163 C 0.38975 0.88667 0.75709 0.0
C164 C 0.41257 0.90228 0.73448 0.0
C165 C 0.449 0.91696 0.74659 0.0
C166 C 0.46202 0.91648 0.78205 0.0
C167 C 0.43892 0.90042 0.80484 0.0
C168 C 0.29913 0.76734 0.74729 0.0
C169 C 0.24605 0.81983 0.76582 0.0
C170 C 0.1967 0.69281 0.79243 0.0
Eu171 Eu 0.25636 0.74431 0.80604 0.0
C172 C 0.16127 0.69235 0.79374 0.0
C173 C 0.13389 0.65944 0.7945 0.0
C174 C 0.10329 0.65817 0.80538 0.0
C175 C 0.10022 0.68979 0.81585 0.0
C176 C 0.12585 0.72326 0.81092 0.0
C177 C 0.15637 0.72447 0.80026 0.0
C178 C 0.27809 0.78702 0.86101 0.0
C179 C 0.3295 0.73484 0.83829 0.0
O180 O 0.34901 0.86667 0.81085 0.0
O181 O 0.37691 0.82792 0.81508 0.0
O182 O 0.31182 0.80239 0.74404 0.0
O183 O 0.29997 0.75722 0.77812 0.0
O184 O 0.27973 0.83766 0.77657 0.0
O185 O 0.23292 0.78449 0.77248 0.0
O186 O 0.21768 0.69541 0.82236 0.0
O187 O 0.21166 0.71464 0.76872 0.0
O188 O 0.26491 0.75195 0.8635 0.0
O189 O 0.27679 0.79726 0.83008 0.0
O190 O 0.29879 0.71827 0.81932 0.0
O191 O 0.3392 0.77032 0.84169 0.0
H192 H 0.36203 0.87414 0.74695 0.0
H193 H 0.40166 0.90109 0.70732 0.0
H194 H 0.48994 0.92761 0.79198 0.0
H195 H 0.44928 0.8987 0.83204 0.0
H196 H 0.13738 0.63443 0.78964 0.0
H197 H 0.08407 0.63197 0.80943 0.0
H198 H 0.12414 0.74787 0.81915 0.0
H199 H 0.17749 0.75003 0.80036 0.0
C200 C 0.31977 0.26556 0.69882 0.0
Eu201 Eu 0.30822 0.28569 0.7546 0.0
C202 C 0.33783 0.24328 0.68638 0.0
C203 C 0.36389 0.25988 0.66632 0.0
C204 C 0.37893 0.23924 0.65159 0.0
C205 C 0.36821 0.20117 0.65621 0.0
C206 C 0.34263 0.18467 0.677 0.0
C207 C 0.32766 0.20534 0.69178 0.0
C208 C 0.35103 0.33817 0.79652 0.0
C209 C 0.33367 0.23642 0.82082 0.0
C210 C 0.27938 0.30823 0.88417 0.0
Eu211 Eu 0.28918 0.28649 0.82844 0.0
C212 C 0.2607 0.33016 0.89608 0.0
C213 C 0.22374 0.32119 0.88904 0.0
C214 C 0.207 0.34137 0.90219 0.0
C215 C 0.2267 0.37118 0.92269 0.0
C216 C 0.26365 0.37987 0.92968 0.0
C217 C 0.28029 0.35972 0.91663 0.0
C218 C 0.24643 0.23399 0.78689 0.0
C219 C 0.25894 0.33152 0.76058 0.0
O220 O 0.29195 0.2487 0.71266 0.0
O221 O 0.33935 0.29563 0.71391 0.0
O222 O 0.34437 0.34375 0.76342 0.0
O223 O 0.33657 0.30575 0.80513 0.0
O224 O 0.32426 0.24058 0.78716 0.0
O225 O 0.32782 0.25552 0.84296 0.0
O226 O 0.30594 0.32567 0.86872 0.0
O227 O 0.26061 0.27693 0.87087 0.0
O228 O 0.25236 0.2284 0.82005 0.0
O229 O 0.26125 0.26628 0.77843 0.0
O230 O 0.26793 0.32809 0.79443 0.0
O231 O 0.26755 0.31396 0.73915 0.0
H232 H 0.37211 0.28896 0.66127 0.0
H233 H 0.39813 0.25315 0.63556 0.0
H234 H 0.33395 0.15558 0.6818 0.0
H235 H 0.30768 0.19143 0.70701 0.0
H236 H 0.20767 0.2985 0.87344 0.0
H237 H 0.17861 0.33388 0.89588 0.0
H238 H 0.27993 0.40204 0.94581 0.0
H239 H 0.3087 0.3671 0.92299 0.0
C240 C 0.75201 0.36012 0.76986 0.0
Eu241 Eu 0.78193 0.31019 0.77854 0.0
C242 C 0.7504 0.38406 0.79455 0.0
C243 C 0.75886 0.37603 0.82977 0.0
C244 C 0.76077 0.40028 0.85358 0.0
C245 C 0.75396 0.43284 0.84254 0.0
C246 C 0.74536 0.44077 0.80719 0.0
C247 C 0.74383 0.41659 0.78332 0.0
C248 C 0.77121 0.25799 0.73345 0.0
C249 C 0.74581 0.24468 0.83031 0.0
C250 C 0.84865 0.20902 0.81419 0.0
Eu251 Eu 0.81845 0.25855 0.80728 0.0
C252 C 0.85403 0.19005 0.78734 0.0
C253 C 0.86343 0.15854 0.79515 0.0
C254 C 0.86613 0.13956 0.76876 0.0
C255 C 0.85953 0.15205 0.73438 0.0
C256 C 0.84971 0.18337 0.7268 0.0
C257 C 0.84689 0.20211 0.75302 0.0
C258 C 0.82834 0.31004 0.85289 0.0
C259 C 0.8539 0.32371 0.75478 0.0
O260 O 0.78356 0.36578 0.76428 0.0
O261 O 0.7349 0.32568 0.77422 0.0
O262 O 0.77244 0.29104 0.72455 0.0
O263 O 0.77229 0.2531 0.76538 0.0
O264 O 0.74995 0.27867 0.81928 0.0
O265 O 0.76722 0.22842 0.82465 0.0
O266 O 0.81571 0.20202 0.81603 0.0
O267 O 0.86624 0.24367 0.81544 0.0
O268 O 0.82674 0.27678 0.86137 0.0
O269 O 0.82789 0.31559 0.82099 0.0
O270 O 0.84959 0.28977 0.76591 0.0
O271 O 0.83322 0.34041 0.76124 0.0
H272 H 0.76434 0.35112 0.83884 0.0
H273 H 0.76678 0.39316 0.88065 0.0
H274 H 0.73991 0.46569 0.79808 0.0
H275 H 0.73781 0.42339 0.75617 0.0
H276 H 0.86845 0.14858 0.8215 0.0
H277 H 0.87395 0.11556 0.77522 0.0
H278 H 0.84395 0.19326 0.7005 0.0
H279 H 0.83863 0.22578 0.7464 0.0
C280 C 0.81288 0.87063 0.83454 0.0
Eu281 Eu 0.8095 0.81469 0.80234 0.0
C282 C 0.80274 0.88014 0.86459 0.0
C283 C 0.78667 0.90702 0.86017 0.0
C284 C 0.77429 0.91528 0.88715 0.0
C285 C 0.77795 0.89699 0.91941 0.0
C286 C 0.79501 0.87063 0.92403 0.0
C287 C 0.80715 0.86214 0.8968 0.0
C288 C 0.85335 0.82369 0.75535 0.0
C289 C 0.75343 0.81215 0.73106 0.0
C290 C 0.78204 0.69656 0.73346 0.0
Eu291 Eu 0.78637 0.75262 0.76596 0.0
C292 C 0.78763 0.68676 0.70119 0.0
C293 C 0.77627 0.65017 0.69353 0.0
C294 C 0.78685 0.63949 0.6665 0.0
C295 C 0.80914 0.6653 0.64676 0.0
C296 C 0.81883 0.7022 0.65338 0.0
C297 C 0.80813 0.71279 0.68038 0.0
C298 C 0.74134 0.74624 0.81072 0.0
C299 C 0.83898 0.75184 0.83887 0.0
O300 O 0.83823 0.85659 0.83945 0.0
O301 O 0.7869 0.85514 0.81043 0.0
O302 O 0.86334 0.83486 0.78623 0.0
O303 O 0.82024 0.80811 0.75028 0.0
O304 O 0.76435 0.82473 0.76212 0.0
O305 O 0.76324 0.78569 0.72375 0.0
O306 O 0.75529 0.70768 0.73251 0.0
O307 O 0.81034 0.7154 0.75354 0.0
O308 O 0.73196 0.73704 0.77917 0.0
O309 O 0.7747 0.75928 0.81759 0.0
O310 O 0.82703 0.73819 0.8084 0.0
O311 O 0.83253 0.78101 0.8449 0.0
H312 H 0.78285 0.92108 0.83544 0.0
H313 H 0.76069 0.93511 0.88223 0.0
H314 H 0.79868 0.85627 0.94858 0.0
H315 H 0.8194 0.84119 0.90079 0.0
H316 H 0.76067 0.62965 0.70954 0.0
H317 H 0.77922 0.61084 0.66237 0.0
H318 H 0.83563 0.72277 0.6384 0.0
H319 H 0.81716 0.74107 0.68604 0.0
C320 C 0.95185 0.07969 0.56036 0.0
C321 C 0.98724 0.10415 0.46653 0.0
C322 C 1.00931 0.9696 0.49391 0.0
Mg323 Mg 1.02705 0.10839 0.54227 0.0
O324 O 1.01889 0.05826 0.54527 0.0
Mg325 Mg 0.97541 0.02588 0.51704 0.0
Mg326 Mg 0.05539 0.03657 0.54117 0.0
O327 O 0.09232 1.01524 0.53695 0.0
Mg328 Mg 0.08303 0.96545 0.54032 0.0
Mg329 Mg 0.13426 0.04576 0.56875 0.0
C330 C 0.10062 0.10303 0.58935 0.0
C331 C 0.11769 0.0976 0.50013 0.0
O332 O 0.94394 0.05144 0.54293 0.0
O333 O 0.98242 0.10384 0.56442 0.0
O334 O 0.9754 0.06993 0.47313 0.0
O335 O 1.01051 0.12519 0.48856 0.0
O336 O 0.08006 0.12178 0.57626 0.0
O337 O 0.09396 0.07017 0.5821 0.0
C338 C 0.99478 0.97448 0.58366 0.0
O339 O 1.02804 0.98943 0.58288 0.0
O340 O 0.97202 0.98355 0.56094 0.0
O341 O 0.16772 1.01864 0.54898 0.0
O342 O 0.13084 0.9668 0.52525 0.0
O343 O 0.13027 1.00002 0.61349 0.0
C344 C 0.16176 0.9899 0.53306 0.0
O345 O 0.09015 0.94838 0.59389 0.0
O346 O 1.03075 0.95198 0.50698 0.0
C347 C 0.11353 0.96612 0.61784 0.0
O348 O 1.01531 1.00282 0.49964 0.0
O349 O 0.08425 0.0833 0.50079 0.0
O350 O 0.14019 0.08811 0.52323 0.0
C351 C 0.42408 0.07925 0.03364 0.0
C352 C 0.47375 0.09455 0.94769 0.0
C353 C 0.47876 0.95493 0.99157 0.0
Mg354 Mg 0.50192 0.10239 0.02463 0.0
O355 O 0.49344 0.05274 0.0281 0.0
Mg356 Mg 0.45015 1.01949 1.0008 0.0
Mg357 Mg 0.52928 0.03048 0.02445 0.0
O358 O 0.56508 1.0067 0.02291 0.0
Mg359 Mg 0.55277 0.95842 0.03977 0.0
Mg360 Mg 0.60647 0.04048 0.05367 0.0
C361 C 0.57336 0.10119 0.07265 0.0
C362 C 0.58956 0.08201 0.97988 0.0
O363 O 0.41775 0.04938 0.01944 0.0
O364 O 0.45482 0.10282 0.03909 0.0
O365 O 0.45606 0.06131 0.95397 0.0
O366 O 0.49654 0.11423 0.97082 0.0
O367 O 0.55087 0.1179 0.0619 0.0
O368 O 0.5698 0.07087 0.06084 0.0
C369 C 0.47203 0.97565 0.07094 0.0
O370 O 0.50441 0.99012 0.06755 0.0
O371 O 0.44704 0.98235 0.04916 0.0
O372 O 0.63849 1.00389 0.04376 0.0
O373 O 0.59913 0.94814 0.03404 0.0
O374 O 0.59514 1.00962 0.10412 0.0
C375 C 0.63059 0.97039 0.03696 0.0
O376 O 0.55232 0.95736 0.09331 0.0
O377 O 0.50067 0.93945 1.00837 0.0
C378 C 0.57265 0.98109 0.11417 0.0
O379 O 0.48656 0.98972 0.98827 0.0
O380 O 0.5564 0.0711 0.9816 0.0
O381 O 0.61222 0.07283 1.00317 0.0
C382 C 0.92069 0.60286 0.13057 0.0
C383 C 0.94126 0.60794 0.02581 0.0
C384 C 0.94351 0.46409 0.04507 0.0
Mg385 Mg 0.98726 0.61209 0.10016 0.0
O386 O 0.97527 0.56201 0.09945 0.0
Mg387 Mg 0.9258 0.534 0.08263 0.0
Mg388 Mg 1.00266 0.53399 0.08364 0.0
O389 O 1.03235 0.50715 0.06891 0.0
Mg390 Mg 1.02493 0.45721 0.06944 0.0
Mg391 Mg 0.08198 0.54004 0.08279 0.0
C392 C 0.06451 0.60211 0.12174 0.0
C393 C 0.03941 0.5842 0.02404 0.0
O394 O 0.90645 0.57345 0.11345 0.0
O395 O 0.95337 0.62093 0.13186 0.0
O396 O 0.92225 0.57505 0.03262 0.0
O397 O 0.9678 0.62525 0.04761 0.0
O398 O 0.04328 0.62042 0.11939 0.0
O399 O 0.05486 0.56961 0.11188 0.0
C400 C 0.96796 0.49527 0.14772 0.0
O401 O 0.99249 0.50032 0.13076 0.0
O402 O 0.93945 0.50277 0.13486 0.0
O403 O 0.10136 0.50867 0.04773 0.0
O404 O 0.0587 0.4561 0.03385 0.0
O405 O 0.09568 0.49813 0.12826 0.0
C406 C 0.08931 0.47883 0.03181 0.0
O407 O 0.05673 0.44276 0.11791 0.0
O408 O 0.96702 0.44779 0.04995 0.0
C409 C 0.08517 0.46358 0.13531 0.0
O410 O 0.95064 0.49659 0.05552 0.0
O411 O 1.01158 0.57002 0.0367 0.0
O412 O 0.06821 0.57773 0.03699 0.0
C413 C 0.44537 0.58216 0.0474 0.0
C414 C 0.49384 0.61201 0.96413 0.0
C415 C 0.51023 0.47483 0.98618 0.0
Mg416 Mg 0.5244 0.61016 0.04202 0.0
O417 O 0.51651 0.56058 0.04186 0.0
Mg418 Mg 0.4757 0.53042 1.00905 0.0
Mg419 Mg 0.55373 0.53995 0.03774 0.0
O420 O 0.59088 0.51962 0.03364 0.0
Mg421 Mg 0.58582 0.47158 0.02855 0.0
Mg422 Mg 0.63491 0.55254 0.06023 0.0
C423 C 0.59837 0.60566 0.08892 0.0
C424 C 0.6123 0.60271 0.99418 0.0
O425 O 0.44079 0.55536 0.02929 0.0
O426 O 0.47582 0.60511 0.05763 0.0
O427 O 0.48092 0.5773 0.9667 0.0
O428 O 0.51454 0.63036 0.98926 0.0
O429 O 0.57594 0.62265 0.07766 0.0
O430 O 0.59388 0.57384 0.07953 0.0
C431 C 0.49083 0.47745 0.0765 0.0
O432 O 0.52462 0.49241 0.0782 0.0
O433 O 0.46935 0.48699 0.05234 0.0
O434 O 0.66771 0.53113 0.03172 0.0
O435 O 0.62833 0.48464 1.00142 0.0
O436 O 0.63766 0.50588 0.10193 0.0
C437 C 0.65916 0.50782 1.00859 0.0
O438 O 0.60765 0.4519 0.07909 0.0
O439 O 0.53187 0.45682 0.99685 0.0
C440 C 0.6294 0.4711 0.10335 0.0
O441 O 0.51615 0.50682 0.99557 0.0
O442 O 0.57951 0.58636 0.99592 0.0
O443 O 0.63616 0.59543 0.01682 0.0
C444 C 0.96583 0.58898 0.54215 0.0
C445 C 1.03142 0.58861 0.46738 0.0
C446 C 1.0213 0.45899 0.50265 0.0
Mg447 Mg 0.04524 0.60347 0.54352 0.0
O448 O 1.03176 0.55337 0.5542 0.0
Mg449 Mg 0.99181 0.52221 0.52099 0.0
Mg450 Mg 0.06658 0.52855 0.5529 0.0
O451 O 0.1017 0.50509 0.55059 0.0
Mg452 Mg 0.08996 0.45471 0.55449 0.0
Mg453 Mg 0.14337 0.53664 0.58188 0.0
C454 C 0.11471 0.60067 0.59586 0.0
C455 C 0.12839 0.58387 0.51159 0.0
O456 O 0.95951 0.55738 0.53119 0.0
O457 O 0.99718 0.61132 0.54934 0.0
O458 O 1.00844 0.5588 0.47443 0.0
O459 O 0.05038 0.6104 0.49059 0.0
O460 O 0.09462 0.61875 0.58023 0.0
O461 O 0.10665 0.56637 0.5926 0.0
C462 C 1.00311 0.47621 0.59336 0.0
O463 O 1.03655 0.4872 0.59321 0.0
O464 O 0.98151 0.48612 0.56933 0.0
O465 O 0.17599 0.50509 0.56624 0.0
O466 O 0.13854 0.45243 0.54469 0.0
O467 O 0.13255 0.49397 0.62669 0.0
C468 C 0.16969 0.47492 0.55249 0.0
O469 O 0.09126 0.44222 0.60838 0.0
O470 O 0.04156 0.44003 0.51501 0.0
C471 C 0.11315 0.46136 0.6324 0.0
O472 O 1.02749 0.49053 0.51359 0.0
O473 O 0.09524 0.56915 0.51194 0.0
O474 O 0.15161 0.57665 0.53549 0.0
C475 C 0.49862 0.09538 0.53596 0.0
C476 C 0.52227 0.12842 0.43962 0.0
C477 C 0.53146 0.98446 0.44165 0.0
Mg478 Mg 0.57052 0.11699 0.51124 0.0
O479 O 0.5588 0.06754 0.5055 0.0
Mg480 Mg 0.51055 0.04355 0.47816 0.0
Mg481 Mg 0.59029 0.04112 0.4935 0.0
O482 O 0.61964 1.01423 0.47952 0.0
Mg483 Mg 0.60194 0.96358 0.4769 0.0
Mg484 Mg 0.66613 0.03326 0.51024 0.0
C485 C 0.64618 0.09993 0.54598 0.0
C486 C 0.65186 0.10154 0.46142 0.0
O487 O 0.48658 0.07018 0.51403 0.0
O488 O 0.53126 0.11484 0.54142 0.0
O489 O 0.50775 0.0938 0.43938 0.0
O490 O 0.54928 0.14272 0.46268 0.0
O491 O 0.62522 0.11921 0.53764 0.0
O492 O 0.6373 0.06668 0.53661 0.0
C493 C 0.53333 0.98364 0.53378 0.0
O494 O 0.56516 0.99465 0.52922 0.0
O495 O 0.51061 0.99759 0.51673 0.0
O496 O 0.68758 0.99624 0.47734 0.0
O497 O 0.63958 0.95346 0.45168 0.0
O498 O 0.65758 0.98348 0.55037 0.0
C499 C 0.67308 0.96849 0.45767 0.0
O500 O 0.61041 0.93869 0.52819 0.0
O501 O 0.5495 0.96252 0.44936 0.0
C502 C 0.63632 0.95107 0.55257 0.0
O503 O 0.54273 1.01733 0.45106 0.0
O504 O 0.61868 0.08852 0.46156 0.0
O505 O 0.67303 0.0834 0.47342 0.0
H506 H 0.26533 0.22034 0.38743 0.0
H507 H 0.18261 0.25536 0.3227 0.0
H508 H 0.14083 0.21967 0.3597 0.0
H509 H 0.21075 0.12915 0.40424 0.0
H510 H 0.2316 0.12569 0.44838 0.0
H511 H 0.25615 0.15561 0.41812 0.0
H512 H 0.27121 0.20943 0.45676 0.0
H513 H 0.24685 0.17959 0.48723 0.0
H514 H 0.23618 0.21966 0.46965 0.0
H515 H 0.10555 0.17654 0.40253 0.0
H516 H 0.082 0.13268 0.44836 0.0
H517 H 0.18625 0.12494 0.48699 0.0
C518 C 0.23864 0.22109 0.38144 0.0
C519 C 0.22774 0.24136 0.35178 0.0
C520 C 0.1921 0.24053 0.34499 0.0
C521 C 0.16789 0.2201 0.36598 0.0
C522 C 0.17905 0.19995 0.39439 0.0
C523 C 0.21369 0.20046 0.40239 0.0
C524 C 0.21832 0.17555 0.43419 0.0
C525 C 0.2299 0.14467 0.42572 0.0
C526 C 0.24471 0.19736 0.46371 0.0
C527 C 0.18107 0.16096 0.44248 0.0
C528 C 0.15879 0.17539 0.41913 0.0
C529 C 0.123 0.16535 0.42104 0.0
C530 C 0.10967 0.14019 0.4473 0.0
C531 C 0.13182 0.12496 0.47193 0.0
C532 C 0.16819 0.13592 0.46907 0.0
H533 H 0.9035 0.25267 0.36281 0.0
H534 H 0.81493 0.16211 0.32022 0.0
H535 H 0.84629 0.11973 0.34901 0.0
H536 H 0.9729 0.21855 0.35919 0.0
H537 H 0.99888 0.23445 0.40014 0.0
H538 H 0.9702 0.25809 0.37586 0.0
H539 H 0.93868 0.25075 0.42707 0.0
H540 H 0.96766 0.22782 0.4519 0.0
H541 H 0.92066 0.20629 0.44635 0.0
H542 H 0.88921 0.08776 0.37886 0.0
H543 H 0.93337 0.06614 0.41812 0.0
H544 H 0.9924 0.17652 0.44754 0.0
C545 C 0.89059 0.22383 0.35992 0.0
C546 C 0.85668 0.21058 0.33922 0.0
C547 C 0.84062 0.17278 0.33615 0.0
C548 C 0.85847 0.14858 0.35212 0.0
C549 C 0.89213 0.16252 0.37175 0.0
C550 C 0.9076 0.19918 0.37662 0.0
C551 C 0.94298 0.20677 0.40094 0.0
C552 C 0.97301 0.2309 0.38295 0.0
C553 C 0.94245 0.22391 0.4335 0.0
C554 C 0.94517 0.16864 0.40882 0.0
C555 C 0.91586 0.14375 0.39098 0.0
C556 C 0.91196 0.10698 0.39332 0.0
C557 C 0.93755 0.095 0.41571 0.0
C558 C 0.96664 0.11939 0.43651 0.0
C559 C 0.97083 0.15699 0.43208 0.0
H560 H 0.87933 0.90868 0.31824 0.0
H561 H 0.84357 0.80614 0.37376 0.0
H562 H 0.87595 0.8322 0.42702 0.0
H563 H 0.96598 0.93383 0.36536 0.0
H564 H 0.9718 0.98127 0.36688 0.0
H565 H 0.94156 0.95547 0.33215 0.0
H566 H 0.8917 0.97473 0.34626 0.0
H567 H 0.9218 1.00016 0.38147 0.0
H568 H 0.88161 0.96564 0.38884 0.0
H569 H 0.91504 0.86534 0.47341 0.0
H570 H 0.96606 0.9046 0.51096 0.0
H571 H 0.97924 0.98924 0.43028 0.0
C572 C 0.87834 0.89195 0.34175 0.0
C573 C 0.8592 0.85443 0.34132 0.0
C574 C 0.85875 0.8338 0.37252 0.0
C575 C 0.8766 0.84891 0.40352 0.0
C576 C 0.89516 0.88545 0.40328 0.0
C577 C 0.8968 0.90698 0.37341 0.0
C578 C 0.92244 0.94475 0.38082 0.0
C579 C 0.95221 0.95438 0.36008 0.0
C580 C 0.90323 0.97299 0.37394 0.0
C581 C 0.93582 0.93986 0.419 0.0
C582 C 0.91869 0.90556 0.43131 0.0
C583 C 0.92828 0.89264 0.46453 0.0
C584 C 0.9572 0.91497 0.48564 0.0
C585 C 0.97579 0.94974 0.47344 0.0
C586 C 0.9645 0.96295 0.44019 0.0
H587 H 0.24787 0.88527 0.44066 0.0
H588 H 0.34258 0.97892 0.45198 0.0
H589 H 0.31783 1.00508 0.49012 0.0
H590 H 0.19044 0.93032 0.43143 0.0
H591 H 0.15928 0.89796 0.45472 0.0
H592 H 0.18702 0.88309 0.43467 0.0
H593 H 0.21072 0.85524 0.49273 0.0
H594 H 0.18244 0.86937 0.51301 0.0
H595 H 0.22908 0.88291 0.52952 0.0
H596 H 0.27889 0.02473 0.51914 0.0
H597 H 0.22987 0.03573 0.5378 0.0
H598 H 0.16127 0.92861 0.50667 0.0
C599 C 0.26416 0.91049 0.45237 0.0
C600 C 0.29724 0.92994 0.44367 0.0
C601 C 0.31712 0.96363 0.45838 0.0
C602 C 0.30338 0.97854 0.4802 0.0
C603 C 0.26998 0.95919 0.48715 0.0
C604 C 0.25086 0.92564 0.47399 0.0
C605 C 0.2141 0.91212 0.4818 0.0
C606 C 0.18609 0.90552 0.44869 0.0
C607 C 0.20879 0.87788 0.5057 0.0
C608 C 0.21484 0.94407 0.49996 0.0
C609 C 0.24743 0.97068 0.50343 0.0
C610 C 0.25347 1.0038 0.51717 0.0
C611 C 0.22541 1.00984 0.52751 0.0
C612 C 0.19169 0.98303 0.52359 0.0
C613 C 0.18669 0.94963 0.51006 0.0
H614 H 0.26041 0.89085 0.73699 0.0
H615 H 0.17438 0.79237 0.75123 0.0
H616 H 0.13188 0.82185 0.72121 0.0
H617 H 0.21548 0.95528 0.74531 0.0
H618 H 0.23327 0.98624 0.71175 0.0
H619 H 0.25782 0.95868 0.73663 0.0
H620 H 0.26125 0.93297 0.68106 0.0
H621 H 0.23709 0.96074 0.65606 0.0
H622 H 0.22126 0.91243 0.65146 0.0
H623 H 0.0978 0.86023 0.68741 0.0
H624 H 0.07521 0.90352 0.64783 0.0
H625 H 0.18161 0.97815 0.65353 0.0
C626 C 0.23263 0.87563 0.73408 0.0
C627 C 0.22108 0.83914 0.74711 0.0
C628 C 0.18434 0.82024 0.74202 0.0
C629 C 0.15973 0.83686 0.72496 0.0
C630 C 0.17185 0.87264 0.71263 0.0
C631 C 0.20741 0.89182 0.71659 0.0
C632 C 0.21308 0.92928 0.6987 0.0
C633 C 0.23098 0.95914 0.72465 0.0
C634 C 0.23443 0.93413 0.67012 0.0
C635 C 0.17526 0.92786 0.68392 0.0
C636 C 0.15196 0.89496 0.69265 0.0
C637 C 0.11579 0.88624 0.6807 0.0
C638 C 0.10311 0.91114 0.65832 0.0
C639 C 0.12636 0.94466 0.64797 0.0
C640 C 0.16293 0.95335 0.66174 0.0
H641 H 0.21274 0.24784 0.72493 0.0
H642 H 0.23726 0.161 0.7911 0.0
H643 H 0.20874 0.11887 0.74344 0.0
H644 H 0.12863 0.19688 0.68503 0.0
H645 H 0.1323 0.22067 0.64394 0.0
H646 H 0.15686 0.24328 0.68252 0.0
H647 H 0.21453 0.25806 0.65886 0.0
H648 H 0.1902 0.23484 0.62037 0.0
H649 H 0.22615 0.2218 0.64601 0.0
H650 H 0.17675 0.08721 0.68888 0.0
H651 H 0.13583 0.06515 0.63563 0.0
H652 H 0.13175 0.1738 0.6065 0.0
C653 C 0.21215 0.21993 0.72939 0.0
C654 C 0.22698 0.20729 0.7613 0.0
C655 C 0.22557 0.17073 0.76664 0.0
C656 C 0.20998 0.14698 0.73969 0.0
C657 C 0.19617 0.16065 0.7081 0.0
C658 C 0.19672 0.19617 0.70311 0.0
C659 C 0.17797 0.20388 0.66786 0.0
C660 C 0.14711 0.21691 0.66998 0.0
C661 C 0.20376 0.23126 0.64705 0.0
C662 C 0.16541 0.16663 0.65393 0.0
C663 C 0.17706 0.14234 0.67712 0.0
C664 C 0.16766 0.10598 0.67048 0.0
C665 C 0.1445 0.09381 0.64001 0.0
C666 C 0.13054 0.11786 0.61697 0.0
C667 C 0.14207 0.1549 0.62358 0.0
H668 H 0.89598 0.18365 0.68355 0.0
H669 H 0.83487 0.07925 0.72277 0.0
H670 H 0.84496 0.04934 0.67625 0.0
H671 H 0.86945 0.16462 0.59161 0.0
H672 H 0.91288 0.18959 0.58324 0.0
H673 H 0.89696 0.20274 0.61683 0.0
H674 H 0.95146 0.19726 0.66078 0.0
H675 H 0.96761 0.18441 0.62737 0.0
H676 H 0.96125 0.15537 0.66541 0.0
H677 H 0.86554 0.03098 0.62762 0.0
H678 H 0.89962 0.02515 0.58558 0.0
H679 H 0.94783 0.14195 0.57993 0.0
C680 C 0.88405 0.15456 0.68187 0.0
C681 C 0.86436 0.1337 0.70638 0.0
C682 C 0.85005 0.09562 0.70411 0.0
C683 C 0.85536 0.07852 0.67764 0.0
C684 C 0.87505 0.09998 0.65385 0.0
C685 C 0.88932 0.13718 0.65594 0.0
C686 C 0.91236 0.15393 0.62956 0.0
C687 C 0.89698 0.17921 0.60378 0.0
C688 C 0.95041 0.17389 0.64682 0.0
C689 C 0.90981 0.12025 0.61291 0.0
C690 C 0.88755 0.08943 0.62663 0.0
C691 C 0.88269 0.05496 0.61642 0.0
C692 C 0.902 0.05192 0.59243 0.0
C693 C 0.92625 0.08314 0.57955 0.0
C694 C 0.92933 0.11766 0.58925 0.0
H695 H 0.91404 0.88509 0.7552 0.0
H696 H 0.83914 0.80193 0.68966 0.0
H697 H 0.87199 0.82718 0.64241 0.0
H698 H 0.9208 0.95644 0.68805 0.0
H699 H 0.96672 0.98014 0.70305 0.0
H700 H 0.93959 0.95348 0.7329 0.0
H701 H 0.98284 0.91715 0.75251 0.0
H702 H 1.0099 0.94349 0.72241 0.0
H703 H 0.99329 0.89479 0.72119 0.0
H704 H 0.91273 0.86185 0.60137 0.0
H705 H 0.95185 0.90741 0.56725 0.0
H706 H 0.99908 0.97345 0.6557 0.0
C707 C 0.90482 0.87185 0.73104 0.0
C708 C 0.87425 0.84023 0.72685 0.0
C709 C 0.86279 0.825 0.69422 0.0
C710 C 0.88137 0.83945 0.66704 0.0
C711 C 0.91137 0.87018 0.67207 0.0
C712 C 0.92268 0.88676 0.70305 0.0
C713 C 0.95391 0.92152 0.70037 0.0
C714 C 0.94471 0.95487 0.70645 0.0
C715 C 0.98695 0.91909 0.72564 0.0
C716 C 0.95851 0.9218 0.66319 0.0
C717 C 0.93389 0.89144 0.64769 0.0
C718 C 0.93212 0.88554 0.61346 0.0
C719 C 0.95492 0.91157 0.59423 0.0
C720 C 0.97972 0.94382 0.60858 0.0
C721 C 0.98164 0.94864 0.64397 0.0
H722 H 0.34883 0.18616 0.13745 0.0
H723 H 0.25713 0.09008 0.13838 0.0
H724 H 0.27887 0.0612 0.09977 0.0
H725 H 0.35733 0.18352 0.04892 0.0
H726 H 0.40472 0.19856 0.05909 0.0
H727 H 0.38021 0.21262 0.08415 0.0
H728 H 0.41126 0.18694 0.13963 0.0
H729 H 0.43597 0.17304 0.11481 0.0
H730 H 0.40972 0.1403 0.14218 0.0
H731 H 0.31312 0.04152 0.06437 0.0
H732 H 0.35764 0.032 0.03676 0.0
H733 H 0.42656 0.14125 0.06028 0.0
C734 C 0.33328 0.15903 0.12957 0.0
C735 C 0.30137 0.14029 0.14095 0.0
C736 C 0.28153 0.10503 0.12966 0.0
C737 C 0.29366 0.08843 0.1078 0.0
C738 C 0.32549 0.10761 0.09736 0.0
C739 C 0.34496 0.14216 0.1079 0.0
C740 C 0.3792 0.15633 0.09477 0.0
C741 C 0.38041 0.18973 0.07027 0.0
C742 C 0.41089 0.16462 0.12462 0.0
C743 C 0.37641 0.12403 0.07583 0.0
C744 C 0.34512 0.09631 0.07721 0.0
C745 C 0.33757 0.06317 0.06282 0.0
C746 C 0.363 0.05804 0.04717 0.0
C747 C 0.39561 0.08587 0.04636 0.0
C748 C 0.4019 0.11943 0.06034 0.0
H749 H 0.94194 0.37563 0.30453 0.0
H750 H 0.05211 0.39512 0.30901 0.0
H751 H 0.06056 0.45883 0.29246 0.0
H752 H 0.92407 0.39302 0.23498 0.0
H753 H 0.89383 0.41828 0.22953 0.0
H754 H 0.89841 0.3904 0.2674 0.0
H755 H 0.91496 0.44568 0.30507 0.0
H756 H 0.90871 0.47303 0.26642 0.0
H757 H 0.94945 0.48636 0.29682 0.0
H758 H 0.05303 0.49795 0.24467 0.0
H759 H 1.03407 0.5123 0.18455 0.0
H760 H 0.92479 0.46508 0.19545 0.0
C761 C 0.96816 0.39457 0.30477 0.0
C762 C 0.99602 0.38077 0.30622 0.0
C763 C 1.03028 0.4052 0.30723 0.0
C764 C 1.03499 0.44158 0.29718 0.0
C765 C 1.00506 0.4522 0.2856 0.0
C766 C 0.97191 0.42974 0.29075 0.0
C767 C 0.94303 0.44091 0.26614 0.0
C768 C 0.91319 0.40871 0.24848 0.0
C769 C 0.92813 0.46282 0.28468 0.0
C770 C 0.96436 0.46555 0.24114 0.0
C771 C 1.00004 0.47439 0.2546 0.0
C772 C 1.02522 0.49201 0.23452 0.0
C773 C 1.01401 0.49925 0.19992 0.0
C774 C 0.9777 0.48866 0.18508 0.0
C775 C 0.95258 0.47319 0.2063 0.0
H776 H 0.60365 0.84813 0.23411 0.0
H777 H 0.69446 0.94101 0.26579 0.0
H778 H 0.65675 0.97786 0.2619 0.0
H779 H 0.57485 0.87332 0.17022 0.0
H780 H 0.52777 0.8611 0.16682 0.0
H781 H 0.55133 0.83676 0.19678 0.0
H782 H 0.52646 0.85118 0.24534 0.0
H783 H 0.50279 0.8761 0.21495 0.0
H784 H 0.53183 0.89734 0.25267 0.0
H785 H 0.62362 1.00998 0.22559 0.0
H786 H 0.608 0.02788 0.16545 0.0
H787 H 0.5369 0.91937 0.14606 0.0
C788 C 0.61501 0.87603 0.24129 0.0
C789 C 0.65184 0.89195 0.24903 0.0
C790 C 0.66628 0.92799 0.25948 0.0
C791 C 0.64471 0.94922 0.25757 0.0
C792 C 0.60893 0.93467 0.24374 0.0
C793 C 0.59366 0.89802 0.23708 0.0
C794 C 0.55871 0.89127 0.21259 0.0
C795 C 0.55301 0.86414 0.18494 0.0
C796 C 0.52818 0.87824 0.23259 0.0
C797 C 0.5631 0.92964 0.19828 0.0
C798 C 0.58917 0.9545 0.21982 0.0
C799 C 0.60305 0.99076 0.20896 0.0
C800 C 0.59445 1.00067 0.17442 0.0
C801 C 0.57219 0.97434 0.15115 0.0
C802 C 0.55393 0.93967 0.16373 0.0
H803 H 0.19239 0.73487 0.25898 0.0
H804 H 0.27045 0.76059 0.1939 0.0
H805 H 0.23213 0.71064 0.1567 0.0
H806 H 0.16438 0.63739 0.25282 0.0
H807 H 0.11836 0.63045 0.25093 0.0
H808 H 0.1512 0.66724 0.27425 0.0
H809 H 0.12614 0.71487 0.23922 0.0
H810 H 0.09117 0.67861 0.21728 0.0
H811 H 0.11774 0.71509 0.19304 0.0
H812 H 0.18376 0.66051 0.12485 0.0
H813 H 0.12612 0.61837 0.09787 0.0
H814 H 0.08156 0.62513 0.18498 0.0
C815 C 0.20113 0.73006 0.23671 0.0
C816 C 0.23397 0.75125 0.22892 0.0
C817 C 0.2451 0.74424 0.19999 0.0
C818 C 0.22377 0.71587 0.179 0.0
C819 C 0.19173 0.6947 0.18775 0.0
C820 C 0.18037 0.7016 0.21579 0.0
C821 C 0.14402 0.67629 0.21849 0.0
C822 C 0.14459 0.65137 0.25106 0.0
C823 C 0.11826 0.69748 0.21687 0.0
C824 C 0.13615 0.65526 0.18679 0.0
C825 C 0.16418 0.66556 0.1697 0.0
C826 C 0.16177 0.65169 0.13823 0.0
C827 C 0.12924 0.62775 0.12321 0.0
C828 C 0.10014 0.61872 0.13981 0.0
C829 C 0.10394 0.63152 0.17232 0.0
H830 H 0.30884 0.86079 0.85818 0.0
H831 H 0.29639 0.76584 0.9276 0.0
H832 H 0.33951 0.80334 0.973 0.0
H833 H 0.39559 0.89792 0.8771 0.0
H834 H 0.39998 0.94508 0.87776 0.0
H835 H 0.3618 0.91547 0.85256 0.0
H836 H 0.31995 0.93058 0.88289 0.0
H837 H 0.35751 0.96261 0.90747 0.0
H838 H 0.32655 0.92775 0.92905 0.0
H839 H 0.39051 0.84673 1.00626 0.0
H840 H 0.44697 0.89311 0.02566 0.0
H841 H 0.42813 0.96195 0.93587 0.0
C842 C 0.31457 0.8482 0.88327 0.0
C843 C 0.29939 0.81042 0.8895 0.0
C844 C 0.30754 0.79472 0.92244 0.0
C845 C 0.33189 0.81587 0.9484 0.0
C846 C 0.34736 0.85278 0.94115 0.0
C847 C 0.33875 0.86908 0.90956 0.0
C848 C 0.36187 0.90856 0.90764 0.0
C849 C 0.38095 0.91712 0.87694 0.0
C850 C 0.34018 0.93387 0.90672 0.0
C851 C 0.38735 0.91051 0.9414 0.0
C852 C 0.37744 0.87845 0.96084 0.0
C853 C 0.39817 0.87214 0.99157 0.0
C854 C 0.43043 0.89861 1.00218 0.0
C855 C 0.44207 0.93095 0.98195 0.0
C856 C 0.41964 0.93761 0.95185 0.0
H857 H 0.16345 0.34885 0.94742 0.0
H858 H 0.25017 0.44499 0.92899 0.0
H859 H 0.22403 0.48226 0.95325 0.0
H860 H 0.0952 0.39209 0.92635 0.0
H861 H 0.07165 0.36678 0.95935 0.0
H862 H 0.09681 0.34726 0.94015 0.0
H863 H 0.13173 0.33688 1.0002 0.0
H864 H 0.10666 0.35634 0.01955 0.0
H865 H 0.15401 0.37463 0.02749 0.0
H866 H 0.18957 0.50958 0.98137 0.0
H867 H 0.14906 0.52461 1.01035 0.0
H868 H 0.08297 0.41182 1.0095 0.0
C869 C 0.1768 0.37779 0.94809 0.0
C870 C 0.20931 0.39365 0.93635 0.0
C871 C 0.22578 0.43173 0.93826 0.0
C872 C 0.21094 0.45333 0.95184 0.0
C873 C 0.17926 0.43683 0.96346 0.0
C874 C 0.16225 0.39993 0.96164 0.0
C875 C 0.12865 0.38909 0.97645 0.0
C876 C 0.09615 0.37284 0.94893 0.0
C877 C 0.13038 0.36267 1.00778 0.0
C878 C 0.1295 0.4256 0.98687 0.0
C879 C 0.15901 0.45273 0.97917 0.0
C880 C 0.16625 0.48853 0.98727 0.0
C881 C 0.14299 0.49684 1.00381 0.0
C882 C 0.11244 0.46964 1.01212 0.0
C883 C 0.10569 0.4335 1.00317 0.0
H884 H 0.73965 0.18203 0.87054 0.0
H885 H 0.6864 0.26106 0.83364 0.0
H886 H 0.63788 0.22601 0.86426 0.0
H887 H 0.66266 0.10223 0.86655 0.0
H888 H 0.68019 0.08152 0.9056 0.0
H889 H 0.70954 0.112 0.87947 0.0
H890 H 0.74275 0.15167 0.93157 0.0
H891 H 0.71367 0.12111 0.95783 0.0
H892 H 0.71849 0.16866 0.95448 0.0
H893 H 0.59414 0.18048 0.8998 0.0
H894 H 0.56415 0.13385 0.94077 0.0
H895 H 0.64809 0.08719 0.95521 0.0
C896 C 0.71772 0.19195 0.86866 0.0
C897 C 0.71683 0.22427 0.84936 0.0
C898 C 0.68777 0.23642 0.84817 0.0
C899 C 0.65996 0.21654 0.86538 0.0
C900 C 0.66159 0.18463 0.88403 0.0
C901 C 0.69005 0.17274 0.88601 0.0
C902 C 0.68672 0.13879 0.90909 0.0
C903 C 0.68465 0.10674 0.88897 0.0
C904 C 0.71721 0.14547 0.94008 0.0
C905 C 0.65201 0.13333 0.9199 0.0
C906 C 0.6375 0.15964 0.90495 0.0
C907 C 0.60542 0.15983 0.91161 0.0
C908 C 0.58837 0.13308 0.93473 0.0
C909 C 0.60369 0.10683 0.95131 0.0
C910 C 0.63562 0.10688 0.94311 0.0
H911 H 0.81727 0.68301 0.86994 0.0
H912 H 0.90725 0.78063 0.86952 0.0
H913 H 0.94346 0.75132 0.91258 0.0
H914 H 0.83491 0.66429 0.96125 0.0
H915 H 0.82071 0.61568 0.95919 0.0
H916 H 0.80194 0.64216 0.92598 0.0
H917 H 0.81956 0.61476 0.87988 0.0
H918 H 0.83815 0.58758 0.91263 0.0
H919 H 0.86473 0.61706 0.88358 0.0
H920 H 0.97056 0.71132 0.95374 0.0
H921 H 0.98514 0.66832 0.99887 0.0
H922 H 0.87681 0.59685 0.97912 0.0
C923 C 0.84467 0.69804 0.87893 0.0
C924 C 0.85966 0.73412 0.86613 0.0
C925 C 0.89533 0.75312 0.87889 0.0
C926 C 0.91612 0.73653 0.90318 0.0
C927 C 0.90079 0.70097 0.91513 0.0
C928 C 0.86569 0.68209 0.90406 0.0
C929 C 0.85543 0.64511 0.92325 0.0
C930 C 0.82655 0.64164 0.94366 0.0
C931 C 0.84378 0.6143 0.89834 0.0
C932 C 0.89015 0.6464 0.94707 0.0
C933 C 0.916 0.6786 0.94105 0.0
C934 C 0.95038 0.6863 0.95898 0.0
C935 C 0.95837 0.66144 0.98473 0.0
C936 C 0.93216 0.62909 0.99334 0.0
C937 C 0.89761 0.62111 0.97339 0.0
H938 H 0.1962 0.3236 0.20403 0.0
H939 H 0.25358 0.39637 0.28624 0.0
H940 H 0.21684 0.43532 0.26478 0.0
H941 H 0.18384 0.3926 0.13852 0.0
H942 H 0.13983 0.36632 0.1195 0.0
H943 H 0.17059 0.34381 0.14105 0.0
H944 H 0.12666 0.30764 0.18034 0.0
H945 H 0.09582 0.33014 0.15894 0.0
H946 H 0.10988 0.33164 0.2048 0.0
H947 H 0.17513 0.46934 0.23234 0.0
H948 H 0.1311 0.49285 0.19378 0.0
H949 H 0.09675 0.39743 0.13392 0.0
C950 C 0.20104 0.34767 0.21761 0.0
C951 C 0.22839 0.35648 0.24718 0.0
C952 C 0.23319 0.38845 0.2638 0.0
C953 C 0.21229 0.41102 0.25167 0.0
C954 C 0.18579 0.40167 0.2227 0.0
C955 C 0.17986 0.37055 0.20598 0.0
C956 C 0.14925 0.36673 0.17554 0.0
C957 C 0.16162 0.3674 0.14164 0.0
C958 C 0.11858 0.33197 0.18019 0.0
C959 C 0.13912 0.40052 0.17765 0.0
C960 C 0.1608 0.42043 0.20497 0.0
C961 C 0.15779 0.45355 0.2112 0.0
C962 C 0.13247 0.46678 0.18909 0.0
C963 C 0.10944 0.44697 0.16097 0.0
C964 C 0.11297 0.41305 0.15561 0.0
H965 H 0.12378 0.71137 0.87986 0.0
H966 H 1.02875 0.65594 0.8106 0.0
H967 H 0.99766 0.63491 0.85973 0.0
H968 H 0.12046 0.64272 0.93263 0.0
H969 H 0.13841 0.66582 0.97223 0.0
H970 H 0.14909 0.68914 0.93279 0.0
H971 H 0.12568 0.7398 0.94316 0.0
H972 H 0.11565 0.71709 0.98341 0.0
H973 H 0.08183 0.72813 0.95194 0.0
H974 H 0.98131 0.60942 0.91609 0.0
H975 H 0.98258 0.57686 0.97272 0.0
H976 H 0.09138 0.64241 1.00435 0.0
C977 C 0.09579 0.69679 0.87487 0.0
C978 C 0.07818 0.68618 0.84156 0.0
C979 C 0.04222 0.6651 0.83595 0.0
C980 C 1.02447 0.65317 0.86371 0.0
C981 C 0.04335 0.66217 0.89672 0.0
C982 C 0.07837 0.68361 0.90233 0.0
C983 C 0.09542 0.68212 0.93969 0.0
C984 C 0.12769 0.66915 0.94457 0.0
C985 C 0.10521 0.71898 0.95548 0.0
C986 C 0.06541 0.65438 0.95386 0.0
C987 C 1.03508 0.6446 0.92918 0.0
C988 C 1.00473 0.61729 0.93569 0.0
C989 C 1.00577 0.59884 0.96782 0.0
C990 C 1.03732 0.60702 0.99245 0.0
C991 C 0.06709 0.6357 0.98573 0.0
H992 H 0.38881 0.24418 0.87446 0.0
H993 H 0.32373 0.17232 0.7939 0.0
H994 H 0.35876 0.13093 0.81229 0.0
H995 H 0.47148 0.23199 0.86706 0.0
H996 H 0.48806 0.23417 0.91256 0.0
H997 H 0.45842 0.25854 0.89244 0.0
H998 H 0.41568 0.22605 0.93422 0.0
H999 H 0.44557 0.20237 0.95492 0.0
H1000 H 0.40045 0.17723 0.93816 0.0
H1001 H 0.39682 0.09432 0.84394 0.0
H1002 H 0.43426 0.0659 0.88644 0.0
H1003 H 0.4788 0.16549 0.94117 0.0
C1004 C 0.38191 0.21962 0.86087 0.0
C1005 C 0.35342 0.21105 0.83314 0.0
C1006 C 0.34546 0.17913 0.8154 0.0
C1007 C 0.3653 0.15562 0.8255 0.0
C1008 C 0.39357 0.165 0.85277 0.0
C1009 C 0.40201 0.19639 0.87001 0.0
C1010 C 0.43316 0.19993 0.89886 0.0
C1011 C 0.46464 0.23313 0.89232 0.0
C1012 C 0.4231 0.20145 0.93357 0.0
C1013 C 0.4401 0.16498 0.89601 0.0
C1014 C 0.41709 0.14515 0.86925 0.0
C1015 C 0.41563 0.10995 0.86444 0.0
C1016 C 0.43713 0.09406 0.88855 0.0
C1017 C 0.45999 0.1136 0.91677 0.0
C1018 C 0.46255 0.15009 0.91934 0.0
H1019 H 0.84543 0.30268 0.9229 0.0
H1020 H 0.83541 0.38264 0.84077 0.0
H1021 H 0.85318 0.42991 0.88348 0.0
H1022 H 0.81729 0.34003 0.9883 0.0
H1023 H 0.8495 0.32983 0.02244 0.0
H1024 H 0.83147 0.30183 0.98586 0.0
H1025 H 0.89426 0.31281 0.97478 0.0
H1026 H 0.91235 0.34013 1.01163 0.0
H1027 H 0.92326 0.35863 0.97047 0.0
H1028 H 0.87682 0.46967 0.93651 0.0
H1029 H 0.91131 0.49809 0.99082 0.0
H1030 H 0.90754 0.3921 0.03745 0.0
C1031 C 0.84646 0.33005 0.91386 0.0
C1032 C 0.83849 0.33878 0.87835 0.0
C1033 C 0.84099 0.37513 0.86775 0.0
C1034 C 0.85095 0.40213 0.89196 0.0
C1035 C 0.85871 0.39259 0.92684 0.0
C1036 C 0.8569 0.35734 0.93762 0.0
C1037 C 0.87 0.35448 0.97596 0.0
C1038 C 0.84029 0.33009 0.99421 0.0
C1039 C 0.90185 0.34073 0.98365 0.0
C1040 C 0.88043 0.3937 0.98517 0.0
C1041 C 0.87297 0.41527 0.95675 0.0
C1042 C 0.88236 0.45283 0.9589 0.0
C1043 C 0.90153 0.46881 0.99014 0.0
C1044 C 0.9117 0.4474 0.01882 0.0
C1045 C 0.89948 0.40921 0.0164 0.0
H1046 H 0.77308 0.96173 0.93495 0.0
H1047 H 0.74453 0.84722 0.96557 0.0
H1048 H 0.71135 0.8566 1.00627 0.0
H1049 H 0.77693 0.99604 0.01983 0.0
H1050 H 0.75743 0.0299 1.00011 0.0
H1051 H 0.78447 1.01589 0.97802 0.0
H1052 H 0.73352 0.99987 0.92569 0.0
H1053 H 0.70645 1.01381 0.94757 0.0
H1054 H 0.69113 0.96882 0.93172 0.0
H1055 H 0.67397 0.87559 0.03647 0.0
H1056 H 0.63497 0.90311 0.05434 0.0
H1057 H 0.68632 1.00542 1.00425 0.0
C1058 C 0.76033 0.93867 0.95057 0.0
C1059 C 0.76175 0.90371 0.94706 0.0
C1060 C 0.74466 0.87441 0.96816 0.0
C1061 C 0.72554 0.87943 0.99133 0.0
C1062 C 0.72383 0.91396 0.99333 0.0
C1063 C 0.74091 0.94317 0.97368 0.0
C1064 C 0.7319 0.97662 0.97818 0.0
C1065 C 0.76464 1.00637 0.99505 0.0
C1066 C 0.71472 0.99057 0.94375 0.0
C1067 C 0.70584 0.96118 1.00225 0.0
C1068 C 0.70206 0.92512 1.01106 0.0
C1069 C 0.67722 0.90398 0.03037 0.0
C1070 C 0.65512 0.91981 0.0403 0.0
C1071 C 0.65797 0.95646 0.031 0.0
C1072 C 0.68427 0.97764 1.01248 0.0
H1073 H 0.88293 0.72162 0.26549 0.0
H1074 H 0.78181 0.70912 0.19934 0.0
H1075 H 0.79425 0.6705 0.16235 0.0
H1076 H 0.92935 0.73001 0.19391 0.0
H1077 H 0.95901 0.70696 0.21722 0.0
H1078 H 0.94131 0.73164 0.23995 0.0
H1079 H 0.9169 0.6744 0.27708 0.0
H1080 H 0.93508 0.64956 0.25507 0.0
H1081 H 0.88887 0.63294 0.25728 0.0
H1082 H 0.81698 0.6292 0.13304 0.0
H1083 H 0.85086 0.59868 0.10996 0.0
H1084 H 0.94089 0.64373 0.18935 0.0
C1085 C 0.86338 0.71082 0.24319 0.0
C1086 C 0.83084 0.71842 0.23606 0.0
C1087 C 0.80667 0.70388 0.20602 0.0
C1088 C 0.81354 0.68164 0.18467 0.0
C1089 C 0.84554 0.67455 0.19244 0.0
C1090 C 0.8705 0.68956 0.22053 0.0
C1091 C 0.90382 0.67977 0.22155 0.0
C1092 C 0.93524 0.71414 0.21794 0.0
C1093 C 0.91164 0.65777 0.25471 0.0
C1094 C 0.89361 0.6566 0.19018 0.0
C1095 C 0.85955 0.65336 0.1741 0.0
C1096 C 0.8438 0.63209 0.1454 0.0
C1097 C 0.86329 0.61447 0.13247 0.0
C1098 C 0.89885 0.61841 0.1474 0.0
C1099 C 0.91391 0.63994 0.17692 0.0
H1100 H 0.36554 0.88396 0.22198 0.0
H1101 H 0.39489 0.78885 0.21645 0.0
H1102 H 0.4322 0.82175 0.17417 0.0
H1103 H 0.35703 0.90759 0.13286 0.0
H1104 H 0.37385 0.95581 0.13807 0.0
H1105 H 0.3523 0.92601 0.17023 0.0
H1106 H 0.40733 0.95258 0.21664 0.0
H1107 H 0.42909 0.98243 0.18454 0.0
H1108 H 0.44963 0.95229 0.21102 0.0
H1109 H 0.4649 0.86468 0.13061 0.0
H1110 H 0.48659 0.91227 0.08674 0.0
H1111 H 0.43362 0.97821 0.11828 0.0
C1112 C 0.38016 0.8702 0.21219 0.0
C1113 C 0.37745 0.83383 0.22276 0.0
C1114 C 0.39651 0.81664 0.20878 0.0
C1115 C 0.41791 0.83519 0.18484 0.0
C1116 C 0.41975 0.8709 0.17472 0.0
C1117 C 0.40113 0.88812 0.18775 0.0
C1118 C 0.40567 0.92568 0.17087 0.0
C1119 C 0.3701 0.92895 0.15188 0.0
C1120 C 0.42403 0.95498 0.19735 0.0
C1121 C 0.42933 0.92675 0.14599 0.0
C1122 C 0.43769 0.89513 0.14902 0.0
C1123 C 0.45874 0.88963 0.12828 0.0
C1124 C 0.47123 0.91692 0.10363 0.0
C1125 C 0.46246 0.94918 0.09971 0.0
C1126 C 0.44119 0.95402 0.12118 0.0
H1127 H 0.76583 0.18043 0.18409 0.0
H1128 H 0.71478 0.21386 0.25294 0.0
H1129 H 0.65685 0.17787 0.22228 0.0
H1130 H 0.70929 0.18962 0.11092 0.0
H1131 H 0.70761 0.15077 0.08968 0.0
H1132 H 0.74566 0.17207 0.12096 0.0
H1133 H 0.73859 0.11108 0.15592 0.0
H1134 H 0.70076 0.08938 0.12436 0.0
H1135 H 0.69711 0.08635 0.16886 0.0
H1136 H 0.60608 0.14977 0.17949 0.0
H1137 H 0.56294 0.12562 0.12806 0.0
H1138 H 0.64416 0.10749 0.08541 0.0
C1139 C 0.74241 0.17873 0.19344 0.0
C1140 C 0.74448 0.19938 0.22105 0.0
C1141 C 0.71349 0.19787 0.23199 0.0
C1142 C 0.68054 0.17747 0.2148 0.0
C1143 C 0.67906 0.15866 0.18672 0.0
C1144 C 0.70902 0.15851 0.17624 0.0
C1145 C 0.6995 0.13919 0.14286 0.0
C1146 C 0.71653 0.16443 0.11444 0.0
C1147 C 0.70959 0.10443 0.14834 0.0
C1148 C 0.65981 0.13041 0.13546 0.0
C1149 C 0.6488 0.14161 0.16147 0.0
C1150 C 0.61415 0.14005 0.15934 0.0
C1151 C 0.58995 0.12669 0.12987 0.0
C1152 C 0.60036 0.11479 0.10295 0.0
C1153 C 0.6356 0.11603 0.10594 0.0
H1154 H 0.75678 0.72403 0.88029 0.0
H1155 H 0.67011 0.72852 0.7986 0.0
H1156 H 0.62785 0.69598 0.83654 0.0
H1157 H 0.71429 0.63407 0.9115 0.0
H1158 H 0.73257 0.64276 0.95605 0.0
H1159 H 0.75591 0.66902 0.92333 0.0
H1160 H 0.75764 0.728 0.94753 0.0
H1161 H 0.73404 0.70194 0.98021 0.0
H1162 H 0.7171 0.73374 0.95207 0.0
H1163 H 0.59365 0.65955 0.88379 0.0
H1164 H 0.57231 0.62248 0.93431 0.0
H1165 H 0.68061 0.64028 0.98511 0.0
C1166 C 0.72896 0.71884 0.87062 0.0
C1167 C 0.71704 0.72955 0.83624 0.0
C1168 C 0.68018 0.72109 0.82469 0.0
C1169 C 0.65581 0.70247 0.84617 0.0
C1170 C 0.66822 0.69182 0.87962 0.0
C1171 C 0.70402 0.69973 0.8918 0.0
C1172 C 0.71029 0.68358 0.92823 0.0
C1173 C 0.72938 0.65567 0.92987 0.0
C1174 C 0.73099 0.71361 0.9535 0.0
C1175 C 0.67267 0.66533 0.93453 0.0
C1176 C 0.64869 0.67054 0.90629 0.0
C1177 C 0.61239 0.65555 0.90606 0.0
C1178 C 0.60037 0.63449 0.93505 0.0
C1179 C 0.62437 0.6282 0.96428 0.0
C1180 C 0.66111 0.64442 0.96364 0.0
H1181 H 0.3873 0.74984 0.89213 0.0
H1182 H 0.32857 0.67273 0.81365 0.0
H1183 H 0.36948 0.63796 0.83263 0.0
H1184 H 0.47516 0.7468 0.88987 0.0
H1185 H 0.48948 0.7485 0.9357 0.0
H1186 H 0.45734 0.76952 0.91456 0.0
H1187 H 0.41407 0.7316 0.95401 0.0
H1188 H 0.44629 0.71097 0.97555 0.0
H1189 H 0.40289 0.68296 0.9568 0.0
H1190 H 0.41503 0.6096 0.86108 0.0
H1191 H 0.45761 0.586 0.90141 0.0
H1192 H 0.48716 0.6798 0.96286 0.0
C1193 C 0.38327 0.7258 0.87882 0.0
C1194 C 0.35461 0.7142 0.85124 0.0
C1195 C 0.35008 0.68224 0.83489 0.0
C1196 C 0.37343 0.66236 0.84531 0.0
C1197 C 0.40135 0.6744 0.87243 0.0
C1198 C 0.40618 0.7051 0.88933 0.0
C1199 C 0.4368 0.71029 0.91947 0.0
C1200 C 0.46645 0.7459 0.9146 0.0
C1201 C 0.42426 0.70886 0.95346 0.0
C1202 C 0.44806 0.6776 0.91698 0.0
C1203 C 0.42751 0.65759 0.88931 0.0
C1204 C 0.43149 0.62522 0.88267 0.0
C1205 C 0.456 0.6121 0.90564 0.0
C1206 C 0.47633 0.63112 0.93517 0.0
C1207 C 0.47292 0.66498 0.94011 0.0
H1208 H 0.38357 0.32498 0.85982 0.0
H1209 H 0.3642 0.41175 0.78982 0.0
H1210 H 0.39698 0.45592 0.83496 0.0
H1211 H 0.37828 0.36024 0.93863 0.0
H1212 H 0.41333 0.34532 0.96364 0.0
H1213 H 0.38533 0.32053 0.92719 0.0
H1214 H 0.43988 0.32757 0.90082 0.0
H1215 H 0.46809 0.35199 0.93721 0.0
H1216 H 0.47042 0.37221 0.89458 0.0
H1217 H 0.43305 0.48992 0.88715 0.0
H1218 H 0.47714 0.51317 0.93849 0.0
H1219 H 0.47506 0.40361 0.97254 0.0
C1220 C 0.38596 0.35328 0.8541 0.0
C1221 C 0.37139 0.36528 0.82171 0.0
C1222 C 0.37541 0.40237 0.81468 0.0
C1223 C 0.39355 0.4274 0.8402 0.0
C1224 C 0.4074 0.41454 0.87215 0.0
C1225 C 0.40419 0.3784 0.87894 0.0
C1226 C 0.42409 0.37173 0.91401 0.0
C1227 C 0.39874 0.34806 0.93724 0.0
C1228 C 0.4523 0.35491 0.91148 0.0
C1229 C 0.44027 0.41009 0.92559 0.0
C1230 C 0.42941 0.43422 0.90157 0.0
C1231 C 0.44159 0.4713 0.90619 0.0
C1232 C 0.46649 0.48418 0.93553 0.0
C1233 C 0.47945 0.46007 0.95937 0.0
C1234 C 0.46552 0.42254 0.95471 0.0
H1235 H 0.70181 0.4604 0.84183 0.0
H1236 H 0.80154 0.45624 0.90155 0.0
H1237 H 0.79284 0.48649 0.94851 0.0
H1238 H 0.70309 0.54764 0.87541 0.0
H1239 H 0.65648 0.52931 0.87518 0.0
H1240 H 0.67494 0.51627 0.84351 0.0
H1241 H 0.64703 0.44868 0.86152 0.0
H1242 H 0.62892 0.46142 0.89336 0.0
H1243 H 0.65698 0.43368 0.90571 0.0
H1244 H 0.76843 0.50803 0.99221 0.0
H1245 H 0.72942 0.51538 0.02876 0.0
H1246 H 0.64529 0.50222 0.94036 0.0
C1247 C 0.72254 0.46737 0.86415 0.0
C1248 C 0.75249 0.45654 0.868 0.0
C1249 C 0.77845 0.46461 0.89815 0.0
C1250 C 0.77384 0.48198 0.9248 0.0
C1251 C 0.74319 0.49107 0.92074 0.0
C1252 C 0.71808 0.48416 0.89098 0.0
C1253 C 0.68507 0.49105 0.89467 0.0
C1254 C 0.67959 0.52298 0.87078 0.0
C1255 C 0.65263 0.45667 0.88848 0.0
C1256 C 0.69462 0.50087 0.93171 0.0
C1257 C 0.7286 0.50195 0.94618 0.0
C1258 C 0.74202 0.50787 0.98098 0.0
C1259 C 0.71979 0.51195 1.00154 0.0
C1260 C 0.68452 0.50905 0.98718 0.0
C1261 C 0.67224 0.50442 0.95181 0.0
H1262 H 0.71103 0.31361 0.18701 0.0
H1263 H 0.80874 0.3994 0.21937 0.0
H1264 H 0.7794 0.44511 0.19647 0.0
H1265 H 0.68552 0.36118 0.10608 0.0
H1266 H 0.63925 0.3431 0.10767 0.0
H1267 H 0.66799 0.31752 0.12702 0.0
H1268 H 0.64714 0.31384 0.18454 0.0
H1269 H 0.61892 0.3401 0.16555 0.0
H1270 H 0.65144 0.35503 0.20352 0.0
H1271 H 0.7377 0.48128 0.1747 0.0
H1272 H 0.6919 0.5064 0.14398 0.0
H1273 H 0.62201 0.39782 0.11927 0.0
C1274 C 0.72636 0.34207 0.18876 0.0
C1275 C 0.76233 0.35295 0.20494 0.0
C1276 C 0.78141 0.39041 0.20674 0.0
C1277 C 0.76478 0.41655 0.19415 0.0
C1278 C 0.72913 0.40494 0.17908 0.0
C1279 C 0.71041 0.3686 0.17532 0.0
C1280 C 0.67291 0.3635 0.15629 0.0
C1281 C 0.66602 0.34525 0.12224 0.0
C1282 C 0.64602 0.34183 0.17883 0.0
C1283 C 0.6733 0.40263 0.15022 0.0
C1284 C 0.70579 0.42595 0.16435 0.0
C1285 C 0.71236 0.46324 0.16315 0.0
C1286 C 0.6858 0.47725 0.14579 0.0
C1287 C 0.65291 0.45434 0.12886 0.0
C1288 C 0.64656 0.41629 0.1319 0.0
H1289 H 0.69337 0.72074 0.25456 0.0
H1290 H 0.7648 0.65782 0.27324 0.0
H1291 H 0.73642 0.62807 0.21908 0.0
H1292 H 0.61783 0.65003 0.21663 0.0
H1293 H 0.6009 0.67953 0.1852 0.0
H1294 H 0.62742 0.69681 0.22543 0.0
H1295 H 0.66895 0.74697 0.19235 0.0
H1296 H 0.64418 0.72931 0.15169 0.0
H1297 H 0.69054 0.73512 0.1627 0.0
H1298 H 0.70133 0.60477 0.16405 0.0
H1299 H 0.6561 0.58398 0.11311 0.0
H1300 H 0.6078 0.66273 0.12762 0.0
C1301 C 0.70343 0.70137 0.24671 0.0
C1302 C 0.73189 0.69245 0.26752 0.0
C1303 C 0.74314 0.66535 0.25757 0.0
C1304 C 0.72742 0.64843 0.22669 0.0
C1305 C 0.70043 0.65882 0.20604 0.0
C1306 C 0.68807 0.68423 0.21565 0.0
C1307 C 0.6572 0.6886 0.18926 0.0
C1308 C 0.62387 0.6781 0.20508 0.0
C1309 C 0.66578 0.7273 0.17304 0.0
C1310 C 0.65423 0.6615 0.16368 0.0
C1311 C 0.67968 0.64495 0.17381 0.0
C1312 C 0.68135 0.61766 0.15555 0.0
C1313 C 0.65554 0.60608 0.12654 0.0
C1314 C 0.6285 0.62184 0.1161 0.0
C1315 C 0.62844 0.65052 0.13454 0.0
H1316 H 0.35107 0.67767 0.1391 0.0
H1317 H 0.26278 0.57784 0.13284 0.0
H1318 H 0.28813 0.55531 0.09247 0.0
H1319 H 0.3675 0.68108 0.04811 0.0
H1320 H 0.41429 0.6985 0.06336 0.0
H1321 H 0.38466 0.71011 0.08397 0.0
H1322 H 0.41247 0.68623 0.14223 0.0
H1323 H 0.44148 0.67368 0.12193 0.0
H1324 H 0.41279 0.64012 0.14671 0.0
H1325 H 0.32836 0.53963 0.06225 0.0
H1326 H 0.37924 0.53242 0.04379 0.0
H1327 H 0.44134 0.64247 0.07164 0.0
C1328 C 0.33603 0.65187 0.12785 0.0
C1329 C 0.30478 0.62965 0.13869 0.0
C1330 C 0.28673 0.5953 0.12465 0.0
C1331 C 0.30083 0.58242 0.10161 0.0
C1332 C 0.33275 0.60439 0.09282 0.0
C1333 C 0.34986 0.63866 0.10518 0.0
C1334 C 0.38614 0.65484 0.09629 0.0
C1335 C 0.38825 0.6881 0.07144 0.0
C1336 C 0.41487 0.66423 0.12872 0.0
C1337 C 0.38767 0.62351 0.07879 0.0
C1338 C 0.35639 0.595 0.07621 0.0
C1339 C 0.3527 0.56206 0.06345 0.0
C1340 C 0.38181 0.55817 0.05324 0.0
C1341 C 0.41427 0.58687 0.05646 0.0
C1342 C 0.4169 0.62004 0.06891 0.0
H1343 H 0.41696 0.3873 0.25155 0.0
H1344 H 0.33085 0.31276 0.18594 0.0
H1345 H 0.36019 0.3383 0.13618 0.0
H1346 H 0.42753 0.4636 0.18926 0.0
H1347 H 0.4747 0.48133 0.20178 0.0
H1348 H 0.44825 0.45575 0.23258 0.0
H1349 H 0.48456 0.41185 0.24437 0.0
H1350 H 0.51088 0.43709 0.21331 0.0
H1351 H 0.4883 0.38919 0.20924 0.0
H1352 H 0.39917 0.37173 0.09306 0.0
H1353 H 0.43941 0.415 0.05846 0.0
H1354 H 0.49997 0.47263 0.14953 0.0
C1355 C 0.40434 0.37618 0.22672 0.0
C1356 C 0.3714 0.34744 0.223 0.0
C1357 C 0.35583 0.33445 0.18977 0.0
C1358 C 0.37252 0.3488 0.16129 0.0
C1359 C 0.40486 0.37687 0.16584 0.0
C1360 C 0.42037 0.39092 0.19764 0.0
C1361 C 0.45408 0.42283 0.19486 0.0
C1362 C 0.45095 0.45796 0.20524 0.0
C1363 C 0.48637 0.41476 0.21676 0.0
C1364 C 0.45524 0.42454 0.15657 0.0
C1365 C 0.42672 0.39725 0.14061 0.0
C1366 C 0.42147 0.39309 0.10546 0.0
C1367 C 0.44484 0.41785 0.08594 0.0
C1368 C 0.47365 0.44722 0.10086 0.0
C1369 C 0.4791 0.45009 0.13711 0.0
H1370 H 0.8777 0.69087 0.6382 0.0
H1371 H 0.77683 0.61172 0.60046 0.0
H1372 H 0.80532 0.58704 0.56485 0.0
H1373 H 0.91319 0.70547 0.55743 0.0
H1374 H 0.95697 0.70963 0.58048 0.0
H1375 H 0.92778 0.72375 0.59945 0.0
H1376 H 0.93636 0.68128 0.65277 0.0
H1377 H 0.96528 0.66684 0.63392 0.0
H1378 H 0.92705 0.63377 0.64722 0.0
H1379 H 0.84593 0.56693 0.53846 0.0
H1380 H 0.89513 0.55339 0.52283 0.0
H1381 H 0.96918 0.64657 0.5773 0.0
C1382 C 0.86135 0.66914 0.62159 0.0
C1383 C 0.82496 0.6534 0.62192 0.0
C1384 C 0.80476 0.62414 0.60068 0.0
C1385 C 0.82067 0.61009 0.58023 0.0
C1386 C 0.85677 0.62574 0.58116 0.0
C1387 C 0.8768 0.65482 0.6011 0.0
C1388 C 0.91547 0.66494 0.59967 0.0
C1389 C 0.92915 0.70322 0.58327 0.0
C1390 C 0.9373 0.66148 0.63552 0.0
C1391 C 0.91425 0.63636 0.57658 0.0
C1392 C 0.88014 0.61421 0.56589 0.0
C1393 C 0.8727 0.58444 0.54623 0.0
C1394 C 0.90086 0.5769 0.53758 0.0
C1395 C 0.93608 0.599 0.54866 0.0
C1396 C 0.94261 0.62942 0.56796 0.0
H1397 H 0.43816 0.95568 0.68743 0.0
H1398 H 0.51208 0.90573 0.74818 0.0
H1399 H 0.54264 0.91481 0.69893 0.0
H1400 H 0.4249 0.90707 0.61591 0.0
H1401 H 0.41857 0.9428 0.58538 0.0
H1402 H 0.40764 0.93989 0.62715 0.0
H1403 H 0.44928 1.00568 0.63866 0.0
H1404 H 0.45906 1.0093 0.59633 0.0
H1405 H 0.4943 1.01828 0.63301 0.0
H1406 H 0.56361 0.9292 0.64037 0.0
H1407 H 0.57278 0.94844 0.58073 0.0
H1408 H 0.47454 0.97254 0.55886 0.0
C1409 C 0.46108 0.94703 0.69066 0.0
C1410 C 0.47262 0.92981 0.7214 0.0
C1411 C 0.50305 0.91943 0.72483 0.0
C1412 C 0.52027 0.92404 0.6969 0.0
C1413 C 0.50613 0.93837 0.66594 0.0
C1414 C 0.47716 0.94964 0.66292 0.0
C1415 C 0.4643 0.96054 0.62663 0.0
C1416 C 0.42663 0.9361 0.61299 0.0
C1417 C 0.46692 1.00083 0.62348 0.0
C1418 C 0.49061 0.95382 0.60946 0.0
C1419 C 0.51517 0.94189 0.63231 0.0
C1420 C 0.54417 0.93797 0.62216 0.0
C1421 C 0.54897 0.94853 0.5882 0.0
C1422 C 0.52432 0.96183 0.56502 0.0
C1423 C 0.49381 0.96214 0.57555 0.0
H1424 H 0.26521 0.40309 0.74588 0.0
H1425 H 0.18989 0.29482 0.74638 0.0
H1426 H 0.14105 0.31965 0.72532 0.0
H1427 H 0.20888 0.45141 0.76855 0.0
H1428 H 0.22426 0.4895 0.73958 0.0
H1429 H 0.25291 0.46411 0.75998 0.0
H1430 H 0.26226 0.45233 0.70059 0.0
H1431 H 0.23449 0.47843 0.68034 0.0
H1432 H 0.2244 0.43261 0.66828 0.0
H1433 H 0.10163 0.35463 0.69791 0.0
H1434 H 0.07561 0.39559 0.65878 0.0
H1435 H 0.17585 0.48198 0.67667 0.0
C1436 C 0.23832 0.38491 0.74195 0.0
C1437 C 0.23089 0.34725 0.74758 0.0
C1438 C 0.19572 0.32385 0.74195 0.0
C1439 C 0.16791 0.33772 0.73045 0.0
C1440 C 0.17584 0.37509 0.72494 0.0
C1441 C 0.2102 0.39838 0.73019 0.0
C1442 C 0.21178 0.43676 0.71813 0.0
C1443 C 0.22525 0.46193 0.74837 0.0
C1444 C 0.23454 0.45083 0.69017 0.0
C1445 C 0.17319 0.43109 0.70383 0.0
C1446 C 0.15279 0.3955 0.70886 0.0
C1447 C 0.11714 0.38274 0.69435 0.0
C1448 C 0.10249 0.40629 0.67226 0.0
C1449 C 0.1236 0.44206 0.6647 0.0
C1450 C 0.15875 0.4551 0.68247 0.0
H1451 H 0.75157 0.26357 0.66366 0.0
H1452 H 0.76484 0.1858 0.74702 0.0
H1453 H 0.74371 0.13696 0.70556 0.0
H1454 H 0.67164 0.20743 0.61971 0.0
H1455 H 0.68077 0.22437 0.57762 0.0
H1456 H 0.70086 0.2528 0.61356 0.0
H1457 H 0.76268 0.26194 0.60045 0.0
H1458 H 0.74193 0.2337 0.5644 0.0
H1459 H 0.77512 0.22282 0.59695 0.0
H1460 H 0.71465 0.09521 0.65438 0.0
H1461 H 0.67712 0.06569 0.60149 0.0
H1462 H 0.68413 0.17135 0.55217 0.0
C1463 C 0.75057 0.23636 0.67318 0.0
C1464 C 0.76006 0.2286 0.70865 0.0
C1465 C 0.7578 0.19248 0.71999 0.0
C1466 C 0.74597 0.16457 0.69654 0.0
C1467 C 0.73639 0.17309 0.66168 0.0
C1468 C 0.73853 0.20824 0.65019 0.0
C1469 C 0.72387 0.21016 0.61213 0.0
C1470 C 0.69242 0.22451 0.60538 0.0
C1471 C 0.75265 0.23352 0.59232 0.0
C1472 C 0.71234 0.17052 0.60394 0.0
C1473 C 0.72012 0.14945 0.63264 0.0
C1474 C 0.70901 0.11162 0.63168 0.0
C1475 C 0.688 0.09497 0.60132 0.0
C1476 C 0.67796 0.11609 0.57239 0.0
C1477 C 0.69183 0.15438 0.57354 0.0
H1478 H 0.90246 0.32652 0.35191 0.0
H1479 H 0.84559 0.4036 0.32251 0.0
H1480 H 0.88414 0.44223 0.36925 0.0
H1481 H 0.91292 0.33379 0.44185 0.0
H1482 H 0.95625 0.32945 0.45203 0.0
H1483 H 0.92589 0.3091 0.41455 0.0
H1484 H 0.97181 0.34459 0.37625 0.0
H1485 H 1.00197 0.36377 0.41424 0.0
H1486 H 0.99091 0.39313 0.37896 0.0
H1487 H 0.92701 0.47173 0.41933 0.0
H1488 H 0.97282 0.49137 0.46982 0.0
H1489 H 1.00216 0.39514 0.46926 0.0
C1490 C 0.89873 0.35194 0.3549 0.0
C1491 C 0.87134 0.36238 0.3333 0.0
C1492 C 0.86659 0.39528 0.33858 0.0
C1493 C 0.88829 0.41737 0.36511 0.0
C1494 C 0.91469 0.4062 0.38622 0.0
C1495 C 0.92021 0.37441 0.38147 0.0
C1496 C 0.94938 0.36803 0.40921 0.0
C1497 C 0.93527 0.33302 0.4307 0.0
C1498 C 0.98034 0.36734 0.3937 0.0
C1499 C 0.95942 0.40134 0.43001 0.0
C1500 C 0.93899 0.42287 0.41616 0.0
C1501 C 0.94321 0.45511 0.43045 0.0
C1502 C 0.96941 0.46604 0.45941 0.0
C1503 C 0.99131 0.44496 0.47401 0.0
C1504 C 0.98583 0.41189 0.45909 0.0
H1505 H 0.70289 0.83006 0.33745 0.0
H1506 H 0.80374 0.84249 0.40394 0.0
H1507 H 0.79409 0.88657 0.43699 0.0
H1508 H 0.70133 0.92042 0.33622 0.0
H1509 H 0.65575 0.90851 0.33985 0.0
H1510 H 0.67011 0.87793 0.32086 0.0
H1511 H 0.64573 0.82636 0.36337 0.0
H1512 H 0.63022 0.85598 0.38243 0.0
H1513 H 0.65878 0.83333 0.40874 0.0
H1514 H 0.77406 0.93374 0.46202 0.0
H1515 H 0.74259 0.97012 0.48069 0.0
H1516 H 0.65199 0.92307 0.40252 0.0
C1517 C 0.72288 0.84178 0.35914 0.0
C1518 C 0.75444 0.83232 0.3676 0.0
C1519 C 0.77942 0.84866 0.39652 0.0
C1520 C 0.77417 0.87414 0.41554 0.0
C1521 C 0.7431 0.88301 0.40646 0.0
C1522 C 0.71741 0.86646 0.37943 0.0
C1523 C 0.68536 0.87896 0.37649 0.0
C1524 C 0.67771 0.89763 0.34126 0.0
C1525 C 0.65311 0.84674 0.38316 0.0
C1526 C 0.69736 0.9059 0.40509 0.0
C1527 C 0.73093 0.90812 0.42198 0.0
C1528 C 0.74765 0.93176 0.44893 0.0
C1529 C 0.72958 0.95277 0.45931 0.0
C1530 C 0.69456 0.95019 0.44335 0.0
C1531 C 0.67868 0.92626 0.41557 0.0
H1532 H 0.26649 0.73734 0.41306 0.0
H1533 H 0.19935 0.69326 0.3185 0.0
H1534 H 0.15519 0.65237 0.35109 0.0
H1535 H 0.25102 0.65288 0.45964 0.0
H1536 H 0.25189 0.66999 0.49995 0.0
H1537 H 0.2761 0.69931 0.4692 0.0
H1538 H 0.24339 0.74509 0.46991 0.0
H1539 H 0.21912 0.71588 0.50078 0.0
H1540 H 0.19596 0.72996 0.46107 0.0
H1541 H 0.11956 0.61376 0.39401 0.0
H1542 H 0.09704 0.57765 0.44414 0.0
H1543 H 0.18833 0.64329 0.51179 0.0
C1544 C 0.24207 0.71967 0.39932 0.0
C1545 C 0.23591 0.71889 0.36312 0.0
C1546 C 0.20426 0.69451 0.34611 0.0
C1547 C 0.17904 0.67123 0.36444 0.0
C1548 C 0.18598 0.67209 0.40009 0.0
C1549 C 0.21682 0.69548 0.41746 0.0
C1550 C 0.21908 0.68843 0.45601 0.0
C1551 C 0.25144 0.67697 0.47214 0.0
C1552 C 0.2194 0.72183 0.47294 0.0
C1553 C 0.18504 0.65724 0.45751 0.0
C1554 C 0.16607 0.6487 0.42494 0.0
C1555 C 0.13411 0.62043 0.41964 0.0
C1556 C 0.12134 0.60019 0.44829 0.0
C1557 C 0.14053 0.60792 0.4819 0.0
C1558 C 0.17284 0.63693 0.48642 0.0
H1559 H 0.35472 0.18459 0.32832 0.0
H1560 H 0.41845 0.2958 0.34911 0.0
H1561 H 0.46892 0.27567 0.37649 0.0
H1562 H 0.38962 0.14711 0.40955 0.0
H1563 H 0.38872 0.10608 0.39264 0.0
H1564 H 0.35806 0.12901 0.37186 0.0
H1565 H 0.37939 0.13242 0.31473 0.0
H1566 H 0.41021 0.1096 0.33543 0.0
H1567 H 0.42552 0.15297 0.31322 0.0
H1568 H 0.51324 0.24384 0.40339 0.0
H1569 H 0.54589 0.20284 0.43154 0.0
H1570 H 0.45474 0.1103 0.39761 0.0
C1571 C 0.37949 0.20472 0.33812 0.0
C1572 C 0.3824 0.24221 0.33582 0.0
C1573 C 0.41525 0.26719 0.35007 0.0
C1574 C 0.44429 0.25592 0.36574 0.0
C1575 C 0.44064 0.2191 0.36789 0.0
C1576 C 0.40898 0.1937 0.35478 0.0
C1577 C 0.41191 0.15555 0.36283 0.0
C1578 C 0.38551 0.13311 0.38557 0.0
C1579 C 0.40643 0.1365 0.32957 0.0
C1580 C 0.44995 0.16357 0.38237 0.0
C1581 C 0.46602 0.20054 0.38456 0.0
C1582 C 0.50079 0.21485 0.40169 0.0
C1583 C 0.51936 0.19112 0.41762 0.0
C1584 C 0.50363 0.15287 0.41692 0.0
C1585 C 0.46826 0.1392 0.39842 0.0
H1586 H 0.75725 0.88399 0.71569 0.0
H1587 H 0.69688 0.77452 0.68553 0.0
H1588 H 0.65736 0.79818 0.64079 0.0
H1589 H 0.68489 0.92194 0.69882 0.0
H1590 H 0.71017 0.96455 0.68099 0.0
H1591 H 0.7319 0.93918 0.71288 0.0
H1592 H 0.77301 0.9394 0.67178 0.0
H1593 H 0.75156 0.96498 0.63992 0.0
H1594 H 0.7541 0.92259 0.62945 0.0
H1595 H 0.62402 0.83352 0.59933 0.0
H1596 H 0.60438 0.87763 0.55861 0.0
H1597 H 0.68905 0.96559 0.61107 0.0
C1598 C 0.73541 0.86506 0.6999 0.0
C1599 C 0.72982 0.82724 0.70448 0.0
C1600 C 0.70156 0.80346 0.68267 0.0
C1601 C 0.67886 0.81669 0.65727 0.0
C1602 C 0.68502 0.85401 0.65331 0.0
C1603 C 0.71298 0.87798 0.6736 0.0
C1604 C 0.71543 0.91697 0.66184 0.0
C1605 C 0.71029 0.93683 0.69034 0.0
C1606 C 0.75061 0.93717 0.65004 0.0
C1607 C 0.68458 0.91114 0.63179 0.0
C1608 C 0.66703 0.87456 0.62789 0.0
C1609 C 0.63769 0.86222 0.60211 0.0
C1610 C 0.62658 0.88768 0.57908 0.0
C1611 C 0.64499 0.9254 0.58126 0.0
C1612 C 0.67413 0.93711 0.60855 0.0
H1613 H 0.79995 0.28891 0.47132 0.0
H1614 H 0.71801 0.33369 0.47127 0.0
H1615 H 0.68175 0.27545 0.49317 0.0
H1616 H 0.75591 0.22917 0.42631 0.0
H1617 H 0.7701 0.19081 0.44262 0.0
H1618 H 0.79943 0.23564 0.45134 0.0
H1619 H 0.80666 0.22339 0.51756 0.0
H1620 H 0.7812 0.17699 0.5082 0.0
H1621 H 0.76804 0.20064 0.53612 0.0
H1622 H 0.645 0.21327 0.47886 0.0
H1623 H 0.61777 0.15089 0.46023 0.0
H1624 H 0.72128 0.1428 0.46386 0.0
C1625 C 0.77531 0.287 0.47826 0.0
C1626 C 0.75862 0.31292 0.46448 0.0
C1627 C 0.72946 0.31219 0.4784 0.0
C1628 C 0.70823 0.27871 0.49021 0.0
C1629 C 0.7196 0.24876 0.49135 0.0
C1630 C 0.75369 0.25283 0.48794 0.0
C1631 C 0.75703 0.21679 0.48159 0.0
C1632 C 0.77144 0.21827 0.44851 0.0
C1633 C 0.77956 0.20372 0.51274 0.0
C1634 C 0.71899 0.19321 0.47764 0.0
C1635 C 0.69794 0.21192 0.48376 0.0
C1636 C 0.66141 0.19767 0.47601 0.0
C1637 C 0.64615 0.16242 0.46446 0.0
C1638 C 0.66736 0.14147 0.46107 0.0
C1639 C 0.70426 0.15776 0.46667 0.0
H1640 H 0.90826 0.61444 0.34241 0.0
H1641 H 0.97824 0.72469 0.34662 0.0
H1642 H 1.02787 0.70416 0.34571 0.0
H1643 H 0.93351 0.57377 0.39172 0.0
H1644 H 0.93703 0.5337 0.37663 0.0
H1645 H 0.90809 0.55558 0.35118 0.0
H1646 H 0.9389 0.55981 0.30086 0.0
H1647 H 0.96987 0.53977 0.32701 0.0
H1648 H 0.9855 0.58275 0.30451 0.0
H1649 H 0.06473 0.67673 0.38343 0.0
H1650 H 0.07618 0.65003 0.44104 0.0
H1651 H 0.99072 0.55191 0.41205 0.0
C1652 C 0.93384 0.63396 0.34071 0.0
C1653 C 0.94015 0.67058 0.34601 0.0
C1654 C 0.97335 0.69619 0.34372 0.0
C1655 C 1.00162 0.68467 0.34256 0.0
C1656 C 0.99624 0.64749 0.34386 0.0
C1657 C 0.9624 0.62234 0.33977 0.0
C1658 C 0.96413 0.58461 0.35022 0.0
C1659 C 0.93397 0.56065 0.36866 0.0
C1660 C 0.96462 0.56568 0.31874 0.0
C1661 C 1.00014 0.59466 0.373 0.0
C1662 C 1.01997 0.63024 0.36558 0.0
C1663 C 0.04972 0.64885 0.38881 0.0
C1664 C 0.05587 0.63366 0.4219 0.0
C1665 C 1.03324 0.59949 0.43104 0.0
C1666 C 1.00789 0.5784 0.40537 0.0
H1667 H 0.37554 0.80873 0.4002 0.0
H1668 H 0.40995 0.82261 0.30266 0.0
H1669 H 0.44466 0.88625 0.31438 0.0
H1670 H 0.37852 0.90226 0.41161 0.0
H1671 H 0.3983 0.90019 0.45607 0.0
H1672 H 0.36963 0.85922 0.43561 0.0
H1673 H 0.42099 0.83168 0.45534 0.0
H1674 H 0.44859 0.87355 0.47444 0.0
H1675 H 0.46289 0.8554 0.44282 0.0
H1676 H 0.4749 0.94765 0.33579 0.0
H1677 H 0.5177 0.99467 0.37343 0.0
H1678 H 0.47224 0.93859 0.46075 0.0
C1679 C 0.39047 0.82536 0.38147 0.0
C1680 C 0.3892 0.81155 0.35 0.0
C1681 C 0.4099 0.83325 0.32647 0.0
C1682 C 0.42929 0.86949 0.33271 0.0
C1683 C 0.42884 0.883 0.3633 0.0
C1684 C 0.41156 0.86112 0.38812 0.0
C1685 C 0.42178 0.87998 0.42161 0.0
C1686 C 0.3901 0.88566 0.43181 0.0
C1687 C 0.43965 0.85893 0.45022 0.0
C1688 C 0.44742 0.91578 0.4116 0.0
C1689 C 0.44974 0.91752 0.37737 0.0
C1690 C 0.47318 0.94687 0.36256 0.0
C1691 C 0.49697 0.97375 0.38394 0.0
C1692 C 0.49745 0.9703 0.41957 0.0
C1693 C 0.47126 0.94223 0.4333 0.0
H1694 H 0.25441 0.37588 0.45128 0.0
H1695 H 0.35654 0.45247 0.49003 0.0
H1696 H 0.32925 0.47655 0.52738 0.0
H1697 H 0.20723 0.43365 0.44475 0.0
H1698 H 0.16861 0.40088 0.45763 0.0
H1699 H 0.1968 0.38621 0.43798 0.0
H1700 H 0.20472 0.34217 0.49019 0.0
H1701 H 0.17609 0.35635 0.5099 0.0
H1702 H 0.21967 0.35925 0.5327 0.0
H1703 H 0.28935 0.49699 0.55472 0.0
H1704 H 0.24059 0.51066 0.5713 0.0
H1705 H 0.16556 0.4193 0.51492 0.0
C1706 C 0.27135 0.39676 0.46855 0.0
C1707 C 0.30763 0.41212 0.46797 0.0
C1708 C 0.32863 0.4404 0.49004 0.0
C1709 C 0.31341 0.45408 0.51145 0.0
C1710 C 0.27731 0.43893 0.51062 0.0
C1711 C 0.25666 0.41059 0.49 0.0
C1712 C 0.21816 0.401 0.49148 0.0
C1713 C 0.19645 0.40574 0.45585 0.0
C1714 C 0.20383 0.3624 0.507 0.0
C1715 C 0.22018 0.42908 0.51536 0.0
C1716 C 0.25447 0.45056 0.52641 0.0
C1717 C 0.26244 0.47996 0.54672 0.0
C1718 C 0.23457 0.48761 0.55584 0.0
C1719 C 0.19925 0.46598 0.5445 0.0
C1720 C 0.19223 0.43613 0.52438 0.0
H1721 H 0.43609 0.21643 0.64334 0.0
H1722 H 0.33259 0.1349 0.62765 0.0
H1723 H 0.35472 0.09836 0.59743 0.0
H1724 H 0.45617 0.21047 0.5612 0.0
H1725 H 0.50208 0.21678 0.57748 0.0
H1726 H 0.47841 0.23604 0.59888 0.0
H1727 H 0.49637 0.20257 0.65574 0.0
H1728 H 0.52003 0.18314 0.63448 0.0
H1729 H 0.48634 0.1541 0.657 0.0
H1730 H 0.38802 0.07098 0.56659 0.0
H1731 H 0.4294 0.05566 0.53883 0.0
H1732 H 0.51137 0.15459 0.57443 0.0
C1733 C 0.41795 0.19095 0.63352 0.0
C1734 C 0.38241 0.17873 0.63836 0.0
C1735 C 0.35999 0.14488 0.62512 0.0
C1736 C 0.37231 0.1239 0.6076 0.0
C1737 C 0.40734 0.13676 0.60333 0.0
C1738 C 0.42988 0.1695 0.61601 0.0
C1739 C 0.46629 0.1773 0.60768 0.0
C1740 C 0.47632 0.21222 0.58496 0.0
C1741 C 0.49388 0.1794 0.64069 0.0
C1742 C 0.46065 0.14407 0.5881 0.0
C1743 C 0.42646 0.12097 0.58587 0.0
C1744 C 0.41489 0.0889 0.56837 0.0
C1745 C 0.43867 0.08038 0.55259 0.0
C1746 C 0.47391 0.10367 0.55434 0.0
C1747 C 0.48483 0.13585 0.57269 0.0
H1748 H 0.85606 0.38189 0.70886 0.0
H1749 H 0.91427 0.30883 0.75302 0.0
H1750 H 0.96044 0.34119 0.7188 0.0
H1751 H 0.87375 0.38566 0.62396 0.0
H1752 H 0.87651 0.43252 0.61536 0.0
H1753 H 0.8494 0.40476 0.64473 0.0
H1754 H 0.88288 0.45085 0.69188 0.0
H1755 H 0.91019 0.47869 0.66267 0.0
H1756 H 0.9301 0.46315 0.70347 0.0
H1757 H 1.00166 0.38375 0.67974 0.0
H1758 H 1.02973 0.42737 0.63585 0.0
H1759 H 0.94208 0.46913 0.61498 0.0
C1760 C 0.87865 0.37284 0.71157 0.0
C1761 C 0.88166 0.343 0.73402 0.0
C1762 C 0.91136 0.33166 0.73616 0.0
C1763 C 0.93782 0.34999 0.71687 0.0
C1764 C 0.93407 0.37939 0.69503 0.0
C1765 C 0.9049 0.39036 0.692 0.0
C1766 C 0.906 0.42138 0.66544 0.0
C1767 C 0.87455 0.41041 0.63561 0.0
C1768 C 0.90738 0.45554 0.68186 0.0
C1769 C 0.94036 0.42635 0.65403 0.0
C1770 C 0.95653 0.40228 0.67165 0.0
C1771 C 0.98898 0.4025 0.6657 0.0
C1772 C 1.00489 0.4275 0.64082 0.0
C1773 C 0.98813 0.45158 0.6217 0.0
C1774 C 0.95554 0.45092 0.62882 0.0
H1775 H 0.25318 0.77398 0.68872 0.0
H1776 H 0.30638 0.70188 0.74678 0.0
H1777 H 0.26918 0.6523 0.70897 0.0
H1778 H 0.17129 0.71269 0.68299 0.0
H1779 H 0.15323 0.72607 0.64041 0.0
H1780 H 0.18911 0.75837 0.66615 0.0
H1781 H 0.22649 0.77046 0.61861 0.0
H1782 H 0.19042 0.73866 0.59228 0.0
H1783 H 0.23318 0.73299 0.60205 0.0
H1784 H 0.22049 0.6084 0.6716 0.0
H1785 H 0.16465 0.57374 0.63595 0.0
H1786 H 0.14192 0.67393 0.60307 0.0
C1787 C 0.25806 0.74825 0.69217 0.0
C1788 C 0.28308 0.74175 0.71983 0.0
C1789 C 0.28769 0.70732 0.7251 0.0
C1790 C 0.26668 0.67904 0.70383 0.0
C1791 C 0.24105 0.68566 0.67757 0.0
C1792 C 0.2368 0.71949 0.67144 0.0
C1793 C 0.20429 0.71808 0.64473 0.0
C1794 C 0.17794 0.72946 0.65947 0.0
C1795 C 0.2142 0.74143 0.6125 0.0
C1796 C 0.19046 0.67811 0.63769 0.0
C1797 C 0.21225 0.65995 0.65651 0.0
C1798 C 0.20356 0.62241 0.65612 0.0
C1799 C 0.17172 0.60292 0.63584 0.0
C1800 C 0.14893 0.62102 0.61643 0.0
C1801 C 0.15879 0.65916 0.61731 0.0
loop_
_geom_bond_atom_site_label_1
_geom_bond_atom_site_label_2
_geom_bond_distance
_geom_bond_site_symmetry_2
_ccdc_geom_bond_type
C0 Eu1 2.835 . S
C0 C2 1.500 . S
C0 O20 1.257 . S
C0 O21 1.260 . S
Eu1 C0 2.835 . S
Eu1 O20 2.473 . S
Eu1 O21 2.480 . S
Eu1 O22 2.430 . S
Eu1 O23 2.670 . S
Eu1 O24 2.394 . S
Eu1 O29 2.355 . S
Eu1 O31 2.374 . S
C2 C0 1.500 . S
C2 C3 1.377 . S
C2 C7 1.377 . S
C3 C2 1.377 . S
C3 C4 1.395 . S
C3 H32 0.931 . S
C4 C3 1.395 . S
C4 C5 1.383 . S
C4 H33 0.931 . S
C5 C4 1.383 . S
C5 C6 1.394 . S
C6 C5 1.394 . S
C6 C7 1.378 . S
C6 H34 0.931 . S
C7 C2 1.377 . S
C7 C6 1.378 . S
C7 H35 0.931 . S
C8 O22 1.259 . S
C8 O23 1.270 . S
C9 O24 1.251 . S
C9 O25 1.251 . S
C10 Eu11 2.835 . S
C10 C12 1.500 . S
C10 O26 1.257 . S
C10 O27 1.260 . S
Eu11 C10 2.835 . S
Eu11 O23 2.355 . S
Eu11 O25 2.374 . S
Eu11 O26 2.473 . S
Eu11 O27 2.480 . S
Eu11 O28 2.430 . S
Eu11 O29 2.670 . S
Eu11 O30 2.394 . S
C12 C10 1.500 . S
C12 C13 1.377 . S
C12 C17 1.377 . S
C13 C12 1.377 . S
C13 C14 1.395 . S
C13 H36 0.931 . S
C14 C13 1.395 . S
C14 C15 1.383 . S
C14 H37 0.931 . S
C15 C14 1.383 . S
C15 C16 1.394 . S
C16 C15 1.394 . S
C16 C17 1.378 . S
C16 H38 0.931 . S
C17 C12 1.377 . S
C17 C16 1.378 . S
C17 H39 0.931 . S
C18 O28 1.259 . S
C18 O29 1.270 . S
C19 O30 1.251 . S
C19 O31 1.251 . S
O20 C0 1.257 . S
O20 Eu1 2.473 . S
O21 C0 1.260 . S
O21 Eu1 2.480 . S
O22 Eu1 2.430 . S
O22 C8 1.259 . S
O23 Eu1 2.670 . S
O23 C8 1.270 . S
O23 Eu11 2.355 . S
O24 Eu1 2.394 . S
O24 C9 1.251 . S
O25 C9 1.251 . S
O25 Eu11 2.374 . S
O26 C10 1.257 . S
O26 Eu11 2.473 . S
O27 C10 1.260 . S
O27 Eu11 2.480 . S
O28 Eu11 2.430 . S
O28 C18 1.259 . S
O29 Eu1 2.355 . S
O29 Eu11 2.670 . S
O29 C18 1.270 . S
O30 Eu11 2.394 . S
O30 C19 1.251 . S
O31 Eu1 2.374 . S
O31 C19 1.251 . S
H32 C3 0.931 . S
H33 C4 0.931 . S
H34 C6 0.931 . S
H35 C7 0.931 . S
H36 C13 0.931 . S
H37 C14 0.931 . S
H38 C16 0.931 . S
H39 C17 0.931 . S
C40 Eu41 2.835 . S
C40 C42 1.500 . S
C40 O60 1.257 . S
C40 O61 1.260 . S
Eu41 C40 2.835 . S
Eu41 O60 2.473 . S
Eu41 O61 2.480 . S
Eu41 O62 2.430 . S
Eu41 O63 2.670 . S
Eu41 O64 2.394 . S
Eu41 O69 2.355 . S
Eu41 O71 2.374 . S
C42 C40 1.500 . S
C42 C43 1.377 . S
C42 C47 1.377 . S
C43 C42 1.377 . S
C43 C44 1.395 . S
C43 H72 0.931 . S
C44 C43 1.395 . S
C44 C45 1.383 . S
C44 H73 0.931 . S
C45 C44 1.383 . S
C45 C46 1.394 . S
C46 C45 1.394 . S
C46 C47 1.378 . S
C46 H74 0.931 . S
C47 C42 1.377 . S
C47 C46 1.378 . S
C47 H75 0.931 . S
C48 O62 1.259 . S
C48 O63 1.270 . S
C49 O64 1.251 . S
C49 O65 1.251 . S
C50 Eu51 2.835 . S
C50 C52 1.500 . S
C50 O66 1.257 . S
C50 O67 1.260 . S
Eu51 C50 2.835 . S
Eu51 O63 2.355 . S
Eu51 O65 2.374 . S
Eu51 O66 2.473 . S
Eu51 O67 2.480 . S
Eu51 O68 2.430 . S
Eu51 O69 2.670 . S
Eu51 O70 2.394 . S
C52 C50 1.500 . S
C52 C53 1.377 . S
C52 C57 1.377 . S
C53 C52 1.377 . S
C53 C54 1.395 . S
C53 H76 0.931 . S
C54 C53 1.395 . S
C54 C55 1.383 . S
C54 H77 0.931 . S
C55 C54 1.383 . S
C55 C56 1.394 . S
C56 C55 1.394 . S
C56 C57 1.378 . S
C56 H78 0.931 . S
C57 C52 1.377 . S
C57 C56 1.378 . S
C57 H79 0.931 . S
C58 O68 1.259 . S
C58 O69 1.270 . S
C59 O70 1.251 . S
C59 O71 1.251 . S
O60 C40 1.257 . S
O60 Eu41 2.473 . S
O61 C40 1.260 . S
O61 Eu41 2.480 . S
O62 Eu41 2.430 . S
O62 C48 1.259 . S
O63 Eu41 2.670 . S
O63 C48 1.270 . S
O63 Eu51 2.355 . S
O64 Eu41 2.394 . S
O64 C49 1.251 . S
O65 C49 1.251 . S
O65 Eu51 2.374 . S
O66 C50 1.257 . S
O66 Eu51 2.473 . S
O67 C50 1.260 . S
O67 Eu51 2.480 . S
O68 Eu51 2.430 . S
O68 C58 1.259 . S
O69 Eu41 2.355 . S
O69 Eu51 2.670 . S
O69 C58 1.270 . S
O70 Eu51 2.394 . S
O70 C59 1.251 . S
O71 Eu41 2.374 . S
O71 C59 1.251 . S
H72 C43 0.931 . S
H73 C44 0.931 . S
H74 C46 0.931 . S
H75 C47 0.931 . S
H76 C53 0.931 . S
H77 C54 0.931 . S
H78 C56 0.931 . S
H79 C57 0.931 . S
C80 Eu81 2.835 . S
C80 C82 1.500 . S
C80 O100 1.257 . S
C80 O101 1.260 . S
Eu81 C80 2.835 . S
Eu81 O100 2.473 . S
Eu81 O101 2.480 . S
Eu81 O102 2.430 . S
Eu81 O103 2.670 . S
Eu81 O104 2.394 . S
Eu81 O109 2.355 . S
Eu81 O111 2.374 . S
C82 C80 1.500 . S
C82 C83 1.377 . S
C82 C87 1.377 . S
C83 C82 1.377 . S
C83 C84 1.395 . S
C83 H112 0.931 . S
C84 C83 1.395 . S
C84 C85 1.383 . S
C84 H113 0.931 . S
C85 C84 1.383 . S
C85 C86 1.394 . S
C86 C85 1.394 . S
C86 C87 1.378 . S
C86 H114 0.931 . S
C87 C82 1.377 . S
C87 C86 1.378 . S
C87 H115 0.931 . S
C88 O102 1.259 . S
C88 O103 1.270 . S
C89 O104 1.251 . S
C89 O105 1.251 . S
C90 Eu91 2.835 . S
C90 C92 1.500 . S
C90 O106 1.257 . S
C90 O107 1.260 . S
Eu91 C90 2.835 . S
Eu91 O103 2.355 . S
Eu91 O105 2.374 . S
Eu91 O106 2.473 . S
Eu91 O107 2.480 . S
Eu91 O108 2.430 . S
Eu91 O109 2.670 . S
Eu91 O110 2.394 . S
C92 C90 1.500 . S
C92 C93 1.377 . S
C92 C97 1.377 . S
C93 C92 1.377 . S
C93 C94 1.395 . S
C93 H116 0.931 . S
C94 C93 1.395 . S
C94 C95 1.383 . S
C94 H117 0.931 . S
C95 C94 1.383 . S
C95 C96 1.394 . S
C96 C95 1.394 . S
C96 C97 1.378 . S
C96 H118 0.931 . S
C97 C92 1.377 . S
C97 C96 1.378 . S
C97 H119 0.931 . S
C98 O108 1.259 . S
C98 O109 1.270 . S
C99 O110 1.251 . S
C99 O111 1.251 . S
O100 C80 1.257 . S
O100 Eu81 2.473 . S
O101 C80 1.260 . S
O101 Eu81 2.480 . S
O102 Eu81 2.430 . S
O102 C88 1.259 . S
O103 Eu81 2.670 . S
O103 C88 1.270 . S
O103 Eu91 2.355 . S
O104 Eu81 2.394 . S
O104 C89 1.251 . S
O105 C89 1.251 . S
O105 Eu91 2.374 . S
O106 C90 1.257 . S
O106 Eu91 2.473 . S
O107 C90 1.260 . S
O107 Eu91 2.480 . S
O108 Eu91 2.430 . S
O108 C98 1.259 . S
O109 Eu81 2.355 . S
O109 Eu91 2.670 . S
O109 C98 1.270 . S
O110 Eu91 2.394 . S
O110 C99 1.251 . S
O111 Eu81 2.374 . S
O111 C99 1.251 . S
H112 C83 0.931 . S
H113 C84 0.931 . S
H114 C86 0.931 . S
H115 C87 0.931 . S
H116 C93 0.931 . S
H117 C94 0.931 . S
H118 C96 0.931 . S
H119 C97 0.931 . S
C120 Eu121 2.835 . S
C120 C122 1.500 . S
C120 O140 1.257 . S
C120 O141 1.260 . S
Eu121 C120 2.835 . S
Eu121 O140 2.473 . S
Eu121 O141 2.480 . S
Eu121 O142 2.430 . S
Eu121 O143 2.670 . S
Eu121 O144 2.394 . S
Eu121 O149 2.355 . S
Eu121 O151 2.374 . S
C122 C120 1.500 . S
C122 C123 1.377 . S
C122 C127 1.377 . S
C123 C122 1.377 . S
C123 C124 1.395 . S
C123 H152 0.931 . S
C124 C123 1.395 . S
C124 C125 1.383 . S
C124 H153 0.931 . S
C125 C124 1.383 . S
C125 C126 1.394 . S
C126 C125 1.394 . S
C126 C127 1.378 . S
C126 H154 0.931 . S
C127 C122 1.377 . S
C127 C126 1.378 . S
C127 H155 0.931 . S
C128 O142 1.259 . S
C128 O143 1.270 . S
C129 O144 1.251 . S
C129 O145 1.251 . S
C130 Eu131 2.835 . S
C130 C132 1.500 . S
C130 O146 1.257 . S
C130 O147 1.260 . S
Eu131 C130 2.835 . S
Eu131 O143 2.355 . S
Eu131 O145 2.374 . S
Eu131 O146 2.473 . S
Eu131 O147 2.480 . S
Eu131 O148 2.430 . S
Eu131 O149 2.670 . S
Eu131 O150 2.394 . S
C132 C130 1.500 . S
C132 C133 1.377 . S
C132 C137 1.377 . S
C133 C132 1.377 . S
C133 C134 1.395 . S
C133 H156 0.931 . S
C134 C133 1.395 . S
C134 C135 1.383 . S
C134 H157 0.931 . S
C135 C134 1.383 . S
C135 C136 1.394 . S
C136 C135 1.394 . S
C136 C137 1.378 . S
C136 H158 0.931 . S
C137 C132 1.377 . S
C137 C136 1.378 . S
C137 H159 0.931 . S
C138 O148 1.259 . S
C138 O149 1.270 . S
C139 O150 1.251 . S
C139 O151 1.251 . S
O140 C120 1.257 . S
O140 Eu121 2.473 . S
O141 C120 1.260 . S
O141 Eu121 2.480 . S
O142 Eu121 2.430 . S
O142 C128 1.259 . S
O143 Eu121 2.670 . S
O143 C128 1.270 . S
O143 Eu131 2.355 . S
O144 Eu121 2.394 . S
O144 C129 1.251 . S
O145 C129 1.251 . S
O145 Eu131 2.374 . S
O146 C130 1.257 . S
O146 Eu131 2.473 . S
O147 C130 1.260 . S
O147 Eu131 2.480 . S
O148 Eu131 2.430 . S
O148 C138 1.259 . S
O149 Eu121 2.355 . S
O149 Eu131 2.670 . S
O149 C138 1.270 . S
O150 Eu131 2.394 . S
O150 C139 1.251 . S
O151 Eu121 2.374 . S
O151 C139 1.251 . S
H152 C123 0.931 . S
H153 C124 0.931 . S
H154 C126 0.931 . S
H155 C127 0.931 . S
H156 C133 0.931 . S
H157 C134 0.931 . S
H158 C136 0.931 . S
H159 C137 0.931 . S
C160 Eu161 2.835 . S
C160 C162 1.500 . S
C160 O180 1.257 . S
C160 O181 1.260 . S
Eu161 C160 2.835 . S
Eu161 O180 2.473 . S
Eu161 O181 2.480 . S
Eu161 O182 2.430 . S
Eu161 O183 2.670 . S
Eu161 O184 2.394 . S
Eu161 O189 2.355 . S
Eu161 O191 2.374 . S
C162 C160 1.500 . S
C162 C163 1.377 . S
C162 C167 1.377 . S
C163 C162 1.377 . S
C163 C164 1.395 . S
C163 H192 0.931 . S
C164 C163 1.395 . S
C164 C165 1.383 . S
C164 H193 0.931 . S
C165 C164 1.383 . S
C165 C166 1.394 . S
C166 C165 1.394 . S
C166 C167 1.378 . S
C166 H194 0.931 . S
C167 C162 1.377 . S
C167 C166 1.378 . S
C167 H195 0.931 . S
C168 O182 1.259 . S
C168 O183 1.270 . S
C169 O184 1.251 . S
C169 O185 1.251 . S
C170 Eu171 2.835 . S
C170 C172 1.500 . S
C170 O186 1.257 . S
C170 O187 1.260 . S
Eu171 C170 2.835 . S
Eu171 O183 2.355 . S
Eu171 O185 2.374 . S
Eu171 O186 2.473 . S
Eu171 O187 2.480 . S
Eu171 O188 2.430 . S
Eu171 O189 2.670 . S
Eu171 O190 2.394 . S
C172 C170 1.500 . S
C172 C173 1.377 . S
C172 C177 1.377 . S
C173 C172 1.377 . S
C173 C174 1.395 . S
C173 H196 0.931 . S
C174 C173 1.395 . S
C174 C175 1.383 . S
C174 H197 0.931 . S
C175 C174 1.383 . S
C175 C176 1.394 . S
C176 C175 1.394 . S
C176 C177 1.378 . S
C176 H198 0.931 . S
C177 C172 1.377 . S
C177 C176 1.378 . S
C177 H199 0.931 . S
C178 O188 1.259 . S
C178 O189 1.270 . S
C179 O190 1.251 . S
C179 O191 1.251 . S
O180 C160 1.257 . S
O180 Eu161 2.473 . S
O181 C160 1.260 . S
O181 Eu161 2.480 . S
O182 Eu161 2.430 . S
O182 C168 1.259 . S
O183 Eu161 2.670 . S
O183 C168 1.270 . S
O183 Eu171 2.355 . S
O184 Eu161 2.394 . S
O184 C169 1.251 . S
O185 C169 1.251 . S
O185 Eu171 2.374 . S
O186 C170 1.257 . S
O186 Eu171 2.473 . S
O187 C170 1.260 . S
O187 Eu171 2.480 . S
O188 Eu171 2.430 . S
O188 C178 1.259 . S
O189 Eu161 2.355 . S
O189 Eu171 2.670 . S
O189 C178 1.270 . S
O190 Eu171 2.394 . S
O190 C179 1.251 . S
O191 Eu161 2.374 . S
O191 C179 1.251 . S
H192 C163 0.931 . S
H193 C164 0.931 . S
H194 C166 0.931 . S
H195 C167 0.931 . S
H196 C173 0.931 . S
H197 C174 0.931 . S
H198 C176 0.931 . S
H199 C177 0.931 . S
C200 Eu201 2.835 . S
C200 C202 1.500 . S
C200 O220 1.257 . S
C200 O221 1.260 . S
Eu201 C200 2.835 . S
Eu201 O220 2.473 . S
Eu201 O221 2.480 . S
Eu201 O222 2.430 . S
Eu201 O223 2.670 . S
Eu201 O224 2.394 . S
Eu201 O229 2.355 . S
Eu201 O231 2.374 . S
C202 C200 1.500 . S
C202 C203 1.377 . S
C202 C207 1.377 . S
C203 C202 1.377 . S
C203 C204 1.395 . S
C203 H232 0.931 . S
C204 C203 1.395 . S
C204 C205 1.383 . S
C204 H233 0.931 . S
C205 C204 1.383 . S
C205 C206 1.394 . S
C206 C205 1.394 . S
C206 C207 1.378 . S
C206 H234 0.931 . S
C207 C202 1.377 . S
C207 C206 1.378 . S
C207 H235 0.931 . S
C208 O222 1.259 . S
C208 O223 1.270 . S
C209 O224 1.251 . S
C209 O225 1.251 . S
C210 Eu211 2.835 . S
C210 C212 1.500 . S
C210 O226 1.257 . S
C210 O227 1.260 . S
Eu211 C210 2.835 . S
Eu211 O223 2.355 . S
Eu211 O225 2.374 . S
Eu211 O226 2.473 . S
Eu211 O227 2.480 . S
Eu211 O228 2.430 . S
Eu211 O229 2.670 . S
Eu211 O230 2.394 . S
C212 C210 1.500 . S
C212 C213 1.377 . S
C212 C217 1.377 . S
C213 C212 1.377 . S
C213 C214 1.395 . S
C213 H236 0.931 . S
C214 C213 1.395 . S
C214 C215 1.383 . S
C214 H237 0.931 . S
C215 C214 1.383 . S
C215 C216 1.394 . S
C216 C215 1.394 . S
C216 C217 1.378 . S
C216 H238 0.931 . S
C217 C212 1.377 . S
C217 C216 1.378 . S
C217 H239 0.931 . S
C218 O228 1.259 . S
C218 O229 1.270 . S
C219 O230 1.251 . S
C219 O231 1.251 . S
O220 C200 1.257 . S
O220 Eu201 2.473 . S
O221 C200 1.260 . S
O221 Eu201 2.480 . S
O222 Eu201 2.430 . S
O222 C208 1.259 . S
O223 Eu201 2.670 . S
O223 C208 1.270 . S
O223 Eu211 2.355 . S
O224 Eu201 2.394 . S
O224 C209 1.251 . S
O225 C209 1.251 . S
O225 Eu211 2.374 . S
O226 C210 1.257 . S
O226 Eu211 2.473 . S
O227 C210 1.260 . S
O227 Eu211 2.480 . S
O228 Eu211 2.430 . S
O228 C218 1.259 . S
O229 Eu201 2.355 . S
O229 Eu211 2.670 . S
O229 C218 1.270 . S
O230 Eu211 2.394 . S
O230 C219 1.251 . S
O231 Eu201 2.374 . S
O231 C219 1.251 . S
H232 C203 0.931 . S
H233 C204 0.931 . S
H234 C206 0.931 . S
H235 C207 0.931 . S
H236 C213 0.931 . S
H237 C214 0.931 . S
H238 C216 0.931 . S
H239 C217 0.931 . S
C240 Eu241 2.835 . S
C240 C242 1.500 . S
C240 O260 1.257 . S
C240 O261 1.260 . S
Eu241 C240 2.835 . S
Eu241 O260 2.473 . S
Eu241 O261 2.480 . S
Eu241 O262 2.430 . S
Eu241 O263 2.670 . S
Eu241 O264 2.394 . S
Eu241 O269 2.355 . S
Eu241 O271 2.374 . S
C242 C240 1.500 . S
C242 C243 1.377 . S
C242 C247 1.377 . S
C243 C242 1.377 . S
C243 C244 1.395 . S
C243 H272 0.931 . S
C244 C243 1.395 . S
C244 C245 1.383 . S
C244 H273 0.931 . S
C245 C244 1.383 . S
C245 C246 1.394 . S
C246 C245 1.394 . S
C246 C247 1.378 . S
C246 H274 0.931 . S
C247 C242 1.377 . S
C247 C246 1.378 . S
C247 H275 0.931 . S
C248 O262 1.259 . S
C248 O263 1.270 . S
C249 O264 1.251 . S
C249 O265 1.251 . S
C250 Eu251 2.835 . S
C250 C252 1.500 . S
C250 O266 1.257 . S
C250 O267 1.260 . S
Eu251 C250 2.835 . S
Eu251 O263 2.355 . S
Eu251 O265 2.374 . S
Eu251 O266 2.473 . S
Eu251 O267 2.480 . S
Eu251 O268 2.430 . S
Eu251 O269 2.670 . S
Eu251 O270 2.394 . S
C252 C250 1.500 . S
C252 C253 1.377 . S
C252 C257 1.377 . S
C253 C252 1.377 . S
C253 C254 1.395 . S
C253 H276 0.931 . S
C254 C253 1.395 . S
C254 C255 1.383 . S
C254 H277 0.931 . S
C255 C254 1.383 . S
C255 C256 1.394 . S
C256 C255 1.394 . S
C256 C257 1.378 . S
C256 H278 0.931 . S
C257 C252 1.377 . S
C257 C256 1.378 . S
C257 H279 0.931 . S
C258 O268 1.259 . S
C258 O269 1.270 . S
C259 O270 1.251 . S
C259 O271 1.251 . S
O260 C240 1.257 . S
O260 Eu241 2.473 . S
O261 C240 1.260 . S
O261 Eu241 2.480 . S
O262 Eu241 2.430 . S
O262 C248 1.259 . S
O263 Eu241 2.670 . S
O263 C248 1.270 . S
O263 Eu251 2.355 . S
O264 Eu241 2.394 . S
O264 C249 1.251 . S
O265 C249 1.251 . S
O265 Eu251 2.374 . S
O266 C250 1.257 . S
O266 Eu251 2.473 . S
O267 C250 1.260 . S
O267 Eu251 2.480 . S
O268 Eu251 2.430 . S
O268 C258 1.259 . S
O269 Eu241 2.355 . S
O269 Eu251 2.670 . S
O269 C258 1.270 . S
O270 Eu251 2.394 . S
O270 C259 1.251 . S
O271 Eu241 2.374 . S
O271 C259 1.251 . S
H272 C243 0.931 . S
H273 C244 0.931 . S
H274 C246 0.931 . S
H275 C247 0.931 . S
H276 C253 0.931 . S
H277 C254 0.931 . S
H278 C256 0.931 . S
H279 C257 0.931 . S
C280 Eu281 2.835 . S
C280 C282 1.500 . S
C280 O300 1.257 . S
C280 O301 1.260 . S
Eu281 C280 2.835 . S
Eu281 O300 2.473 . S
Eu281 O301 2.480 . S
Eu281 O302 2.430 . S
Eu281 O303 2.670 . S
Eu281 O304 2.394 . S
Eu281 O309 2.355 . S
Eu281 O311 2.374 . S
C282 C280 1.500 . S
C282 C283 1.377 . S
C282 C287 1.377 . S
C283 C282 1.377 . S
C283 C284 1.395 . S
C283 H312 0.931 . S
C284 C283 1.395 . S
C284 C285 1.383 . S
C284 H313 0.931 . S
C285 C284 1.383 . S
C285 C286 1.394 . S
C286 C285 1.394 . S
C286 C287 1.378 . S
C286 H314 0.931 . S
C287 C282 1.377 . S
C287 C286 1.378 . S
C287 H315 0.931 . S
C288 O302 1.259 . S
C288 O303 1.270 . S
C289 O304 1.251 . S
C289 O305 1.251 . S
C290 Eu291 2.835 . S
C290 C292 1.500 . S
C290 O306 1.257 . S
C290 O307 1.260 . S
Eu291 C290 2.835 . S
Eu291 O303 2.355 . S
Eu291 O305 2.374 . S
Eu291 O306 2.473 . S
Eu291 O307 2.480 . S
Eu291 O308 2.430 . S
Eu291 O309 2.670 . S
Eu291 O310 2.394 . S
C292 C290 1.500 . S
C292 C293 1.377 . S
C292 C297 1.377 . S
C293 C292 1.377 . S
C293 C294 1.395 . S
C293 H316 0.931 . S
C294 C293 1.395 . S
C294 C295 1.383 . S
C294 H317 0.931 . S
C295 C294 1.383 . S
C295 C296 1.394 . S
C296 C295 1.394 . S
C296 C297 1.378 . S
C296 H318 0.931 . S
C297 C292 1.377 . S
C297 C296 1.378 . S
C297 H319 0.931 . S
C298 O308 1.259 . S
C298 O309 1.270 . S
C299 O310 1.251 . S
C299 O311 1.251 . S
O300 C280 1.257 . S
O300 Eu281 2.473 . S
O301 C280 1.260 . S
O301 Eu281 2.480 . S
O302 Eu281 2.430 . S
O302 C288 1.259 . S
O303 Eu281 2.670 . S
O303 C288 1.270 . S
O303 Eu291 2.355 . S
O304 Eu281 2.394 . S
O304 C289 1.251 . S
O305 C289 1.251 . S
O305 Eu291 2.374 . S
O306 C290 1.257 . S
O306 Eu291 2.473 . S
O307 C290 1.260 . S
O307 Eu291 2.480 . S
O308 Eu291 2.430 . S
O308 C298 1.259 . S
O309 Eu281 2.355 . S
O309 Eu291 2.670 . S
O309 C298 1.270 . S
O310 Eu291 2.394 . S
O310 C299 1.251 . S
O311 Eu281 2.374 . S
O311 C299 1.251 . S
H312 C283 0.931 . S
H313 C284 0.931 . S
H314 C286 0.931 . S
H315 C287 0.931 . S
H316 C293 0.931 . S
H317 C294 0.931 . S
H318 C296 0.931 . S
H319 C297 0.931 . S
C320 O332 1.241 . S
C320 O333 1.280 . S
C321 O334 1.277 . S
C321 O335 1.245 . S
C322 O346 1.247 . S
C322 O348 1.289 . S
Mg323 O324 1.926 1_455 S
Mg323 O333 1.984 1_455 S
Mg323 O335 1.988 1_455 S
Mg323 O336 2.061 . S
O324 Mg323 1.926 1_655 S
O324 Mg325 1.986 . S
O324 Mg326 1.917 1_655 S
Mg325 O324 1.986 . S
Mg325 O332 2.042 . S
Mg325 O334 2.041 . S
Mg325 O340 2.038 1_545 S
Mg325 O348 2.238 1_545 S
Mg326 O324 1.917 1_455 S
Mg326 O327 1.917 1_545 S
Mg326 O337 2.106 . S
Mg326 O339 2.079 1_445 S
Mg326 O348 2.106 1_445 S
Mg326 O349 2.079 . S
O327 Mg326 1.917 1_565 S
O327 Mg328 1.926 . S
O327 Mg329 1.986 1_565 S
Mg328 O327 1.926 . S
Mg328 O342 1.984 . S
Mg328 O345 1.988 . S
Mg328 O346 2.061 1_455 S
Mg329 O327 1.986 1_545 S
Mg329 O337 2.238 . S
Mg329 O341 2.042 1_545 S
Mg329 O343 2.041 1_545 S
Mg329 O350 2.038 . S
C330 O336 1.247 . S
C330 O337 1.289 . S
C331 O349 1.245 . S
C331 O350 1.274 . S
O332 C320 1.241 . S
O332 Mg325 2.042 . S
O333 C320 1.280 . S
O333 Mg323 1.984 1_655 S
O334 C321 1.277 . S
O334 Mg325 2.041 . S
O335 C321 1.245 . S
O335 Mg323 1.988 1_655 S
O336 Mg323 2.061 . S
O336 C330 1.247 . S
O337 Mg326 2.106 . S
O337 Mg329 2.238 . S
O337 C330 1.289 . S
C338 O339 1.245 . S
C338 O340 1.274 . S
O339 Mg326 2.079 1_665 S
O339 C338 1.245 . S
O340 Mg325 2.038 1_565 S
O340 C338 1.274 . S
O341 Mg329 2.042 1_565 S
O341 C344 1.241 . S
O342 Mg328 1.984 . S
O342 C344 1.280 . S
O343 Mg329 2.041 1_565 S
O343 C347 1.277 . S
C344 O341 1.241 . S
C344 O342 1.280 . S
O345 Mg328 1.988 . S
O345 C347 1.245 . S
O346 C322 1.247 . S
O346 Mg328 2.061 1_655 S
C347 O343 1.277 . S
C347 O345 1.245 . S
O348 C322 1.289 . S
O348 Mg325 2.238 1_565 S
O348 Mg326 2.106 1_665 S
O349 Mg326 2.079 . S
O349 C331 1.245 . S
O350 Mg329 2.038 . S
O350 C331 1.274 . S
C351 O363 1.241 . S
C351 O364 1.280 . S
C352 O365 1.277 . S
C352 O366 1.245 . S
C353 O377 1.247 . S
C353 O379 1.289 1_565 S
Mg354 O355 1.926 . S
Mg354 O364 1.984 . S
Mg354 O366 1.988 1_554 S
Mg354 O367 2.061 . S
O355 Mg354 1.926 . S
O355 Mg356 1.986 1_554 S
O355 Mg357 1.920 . S
Mg356 O355 1.986 1_556 S
Mg356 O363 2.042 1_556 S
Mg356 O365 2.041 . S
Mg356 O371 2.038 1_546 S
Mg356 O379 2.238 . S
Mg357 O355 1.920 . S
Mg357 O358 1.914 1_554 S
Mg357 O368 2.110 . S
Mg357 O370 2.074 1_545 S
Mg357 O379 2.103 1_554 S
Mg357 O380 2.072 1_554 S
O358 Mg357 1.914 1_556 S
O358 Mg359 1.926 1_545 S
O358 Mg360 1.986 1_556 S
Mg359 O358 1.926 1_565 S
Mg359 O373 1.984 . S
Mg359 O376 1.988 1_556 S
Mg359 O377 2.061 . S
Mg360 O358 1.986 1_554 S
Mg360 O368 2.238 . S
Mg360 O372 2.042 1_554 S
Mg360 O374 2.041 1_545 S
Mg360 O381 2.038 1_554 S
C361 O367 1.247 . S
C361 O368 1.289 . S
C362 O380 1.245 . S
C362 O381 1.274 . S
O363 C351 1.241 . S
O363 Mg356 2.042 1_554 S
O364 C351 1.280 . S
O364 Mg354 1.984 . S
O365 C352 1.277 . S
O365 Mg356 2.041 . S
O366 C352 1.245 . S
O366 Mg354 1.988 1_556 S
O367 Mg354 2.061 . S
O367 C361 1.247 . S
O368 Mg357 2.110 . S
O368 Mg360 2.238 . S
O368 C361 1.289 . S
C369 O370 1.243 . S
C369 O371 1.274 . S
O370 Mg357 2.074 1_565 S
O370 C369 1.243 . S
O371 Mg356 2.038 1_564 S
O371 C369 1.274 . S
O372 Mg360 2.042 1_556 S
O372 C375 1.241 1_545 S
O373 Mg359 1.984 . S
O373 C375 1.280 . S
O374 Mg360 2.041 1_565 S
O374 C378 1.277 . S
C375 O372 1.241 1_565 S
C375 O373 1.280 . S
O376 Mg359 1.988 1_554 S
O376 C378 1.245 . S
O377 C353 1.247 . S
O377 Mg359 2.061 . S
C378 O374 1.277 . S
C378 O376 1.245 . S
O379 C353 1.289 1_545 S
O379 Mg356 2.238 . S
O379 Mg357 2.103 1_556 S
O380 Mg357 2.072 1_556 S
O380 C362 1.245 . S
O381 Mg360 2.038 1_556 S
O381 C362 1.274 . S
C382 O394 1.241 . S
C382 O395 1.280 . S
C383 O396 1.274 1_556 S
C383 O397 1.245 1_556 S
C384 O408 1.247 1_556 S
C384 O410 1.289 1_556 S
Mg385 O386 1.926 . S
Mg385 O395 1.984 . S
Mg385 O397 1.988 . S
Mg385 O398 2.061 1_655 S
O386 Mg385 1.926 . S
O386 Mg387 1.986 . S
O386 Mg388 1.917 1_655 S
Mg387 O386 1.986 . S
Mg387 O394 2.042 . S
Mg387 O396 2.047 . S
Mg387 O402 2.038 . S
Mg387 O410 2.238 . S
Mg388 O386 1.917 1_455 S
Mg388 O389 1.917 . S
Mg388 O399 2.106 . S
Mg388 O401 2.079 1_455 S
Mg388 O410 2.106 1_455 S
Mg388 O411 2.079 . S
O389 Mg388 1.917 . S
O389 Mg390 1.926 . S
O389 Mg391 1.986 . S
Mg390 O389 1.926 . S
Mg390 O404 1.984 . S
Mg390 O407 1.988 . S
Mg390 O408 2.061 1_455 S
Mg391 O389 1.986 . S
Mg391 O399 2.238 . S
Mg391 O403 2.042 . S
Mg391 O405 2.041 . S
Mg391 O412 2.038 . S
C392 O398 1.247 . S
C392 O399 1.289 . S
C393 O411 1.245 . S
C393 O412 1.274 . S
O394 C382 1.241 . S
O394 Mg387 2.042 . S
O395 C382 1.280 . S
O395 Mg385 1.984 . S
O396 C383 1.274 1_554 S
O396 Mg387 2.047 . S
O397 C383 1.245 1_554 S
O397 Mg385 1.988 . S
O398 Mg385 2.061 1_455 S
O398 C392 1.247 . S
O399 Mg388 2.106 . S
O399 Mg391 2.238 . S
O399 C392 1.289 . S
C400 O401 1.245 . S
C400 O402 1.274 . S
O401 Mg388 2.079 1_655 S
O401 C400 1.245 . S
O402 Mg387 2.038 . S
O402 C400 1.274 . S
O403 Mg391 2.042 . S
O403 C406 1.241 . S
O404 Mg390 1.984 . S
O404 C406 1.280 . S
O405 Mg391 2.041 . S
O405 C409 1.277 . S
C406 O403 1.241 . S
C406 O404 1.280 . S
O407 Mg390 1.988 . S
O407 C409 1.245 . S
O408 C384 1.247 1_554 S
O408 Mg390 2.061 1_655 S
C409 O405 1.277 . S
C409 O407 1.245 . S
O410 C384 1.289 1_554 S
O410 Mg387 2.238 . S
O410 Mg388 2.106 1_655 S
O411 Mg388 2.079 . S
O411 C393 1.245 . S
O412 Mg391 2.038 . S
O412 C393 1.274 . S
C413 O425 1.241 . S
C413 O426 1.280 . S
C414 O427 1.277 . S
C414 O428 1.245 . S
C415 O439 1.247 . S
C415 O441 1.289 . S
Mg416 O417 1.926 . S
Mg416 O426 1.984 . S
Mg416 O428 1.988 1_554 S
Mg416 O429 2.061 . S
O417 Mg416 1.926 . S
O417 Mg418 1.986 . S
O417 Mg419 1.917 . S
Mg418 O417 1.986 . S
Mg418 O425 2.042 . S
Mg418 O427 2.041 1_554 S
Mg418 O433 2.038 . S
Mg418 O441 2.238 1_554 S
Mg419 O417 1.917 . S
Mg419 O420 1.917 . S
Mg419 O430 2.106 . S
Mg419 O432 2.079 . S
Mg419 O441 2.106 1_554 S
Mg419 O442 2.079 1_554 S
O420 Mg419 1.917 . S
O420 Mg421 1.926 . S
O420 Mg422 1.986 . S
Mg421 O420 1.926 . S
Mg421 O435 1.984 1_554 S
Mg421 O438 1.988 . S
Mg421 O439 2.061 1_554 S
Mg422 O420 1.986 . S
Mg422 O430 2.238 . S
Mg422 O434 2.042 . S
Mg422 O436 2.041 . S
Mg422 O443 2.049 . S
C423 O429 1.247 . S
C423 O430 1.289 . S
C424 O442 1.245 . S
C424 O443 1.270 1_556 S
O425 C413 1.241 . S
O425 Mg418 2.042 . S
O426 C413 1.280 . S
O426 Mg416 1.984 . S
O427 C414 1.277 . S
O427 Mg418 2.041 1_556 S
O428 C414 1.245 . S
O428 Mg416 1.988 1_556 S
O429 Mg416 2.061 . S
O429 C423 1.247 . S
O430 Mg419 2.106 . S
O430 Mg422 2.238 . S
O430 C423 1.289 . S
C431 O432 1.245 . S
C431 O433 1.274 . S
O432 Mg419 2.079 . S
O432 C431 1.245 . S
O433 Mg418 2.038 . S
O433 C431 1.274 . S
O434 Mg422 2.042 . S
O434 C437 1.241 1_554 S
O435 Mg421 1.984 1_556 S
O435 C437 1.280 . S
O436 Mg422 2.041 . S
O436 C440 1.277 . S
C437 O434 1.241 1_556 S
C437 O435 1.280 . S
O438 Mg421 1.988 . S
O438 C440 1.245 . S
O439 C415 1.247 . S
O439 Mg421 2.061 1_556 S
C440 O436 1.277 . S
C440 O438 1.245 . S
O441 C415 1.289 . S
O441 Mg418 2.238 1_556 S
O441 Mg419 2.106 1_556 S
O442 Mg419 2.079 1_556 S
O442 C424 1.245 . S
O443 Mg422 2.049 . S
O443 C424 1.270 1_554 S
C444 O456 1.241 . S
C444 O457 1.280 . S
C445 O458 1.277 . S
C445 O459 1.245 1_655 S
C446 O470 1.247 . S
C446 O472 1.289 . S
Mg447 O448 1.926 . S
Mg447 O457 1.984 1_455 S
Mg447 O459 1.988 . S
Mg447 O460 2.061 . S
O448 Mg447 1.926 . S
O448 Mg449 1.986 1_455 S
O448 Mg450 1.917 . S
Mg449 O448 1.986 1_655 S
Mg449 O456 2.042 . S
Mg449 O458 2.041 . S
Mg449 O464 2.038 . S
Mg449 O472 2.238 . S
Mg450 O448 1.917 . S
Mg450 O451 1.917 . S
Mg450 O461 2.106 . S
Mg450 O463 2.079 . S
Mg450 O472 2.106 1_455 S
Mg450 O473 2.079 . S
O451 Mg450 1.917 . S
O451 Mg452 1.926 . S
O451 Mg453 1.986 . S
Mg452 O451 1.926 . S
Mg452 O466 1.984 . S
Mg452 O469 1.988 . S
Mg452 O470 2.061 1_455 S
Mg453 O451 1.986 . S
Mg453 O461 2.238 . S
Mg453 O465 2.042 . S
Mg453 O467 2.041 . S
Mg453 O474 2.038 . S
C454 O460 1.247 . S
C454 O461 1.289 . S
C455 O473 1.245 . S
C455 O474 1.274 . S
O456 C444 1.241 . S
O456 Mg449 2.042 . S
O457 C444 1.280 . S
O457 Mg447 1.984 1_655 S
O458 C445 1.277 . S
O458 Mg449 2.041 . S
O459 C445 1.245 1_455 S
O459 Mg447 1.988 . S
O460 Mg447 2.061 . S
O460 C454 1.247 . S
O461 Mg450 2.106 . S
O461 Mg453 2.238 . S
O461 C454 1.289 . S
C462 O463 1.245 1_655 S
C462 O464 1.274 . S
O463 Mg450 2.079 . S
O463 C462 1.245 1_455 S
O464 Mg449 2.038 . S
O464 C462 1.274 . S
O465 Mg453 2.042 . S
O465 C468 1.241 . S
O466 Mg452 1.984 . S
O466 C468 1.280 . S
O467 Mg453 2.041 . S
O467 C471 1.277 . S
C468 O465 1.241 . S
C468 O466 1.280 . S
O469 Mg452 1.988 . S
O469 C471 1.245 . S
O470 C446 1.247 . S
O470 Mg452 2.061 1_655 S
C471 O467 1.277 . S
C471 O469 1.245 . S
O472 C446 1.289 . S
O472 Mg449 2.238 . S
O472 Mg450 2.106 1_655 S
O473 Mg450 2.079 . S
O473 C455 1.245 . S
O474 Mg453 2.038 . S
O474 C455 1.274 . S
C475 O487 1.241 . S
C475 O488 1.280 . S
C476 O489 1.277 . S
C476 O490 1.245 . S
C477 O501 1.247 . S
C477 O503 1.289 . S
Mg478 O479 1.926 . S
Mg478 O488 1.984 . S
Mg478 O490 1.988 . S
Mg478 O491 2.061 . S
O479 Mg478 1.926 . S
O479 Mg480 1.987 . S
O479 Mg481 1.917 . S
Mg480 O479 1.987 . S
Mg480 O487 2.044 . S
Mg480 O489 2.042 . S
Mg480 O495 2.037 1_545 S
Mg480 O503 2.236 1_545 S
Mg481 O479 1.917 . S
Mg481 O482 1.917 1_545 S
Mg481 O492 2.106 . S
Mg481 O494 2.079 1_545 S
Mg481 O503 2.106 1_545 S
Mg481 O504 2.079 . S
O482 Mg481 1.917 1_565 S
O482 Mg483 1.926 . S
O482 Mg484 1.987 1_565 S
Mg483 O482 1.926 . S
Mg483 O497 1.984 . S
Mg483 O500 1.988 . S
Mg483 O501 2.061 . S
Mg484 O482 1.987 1_545 S
Mg484 O492 2.236 . S
Mg484 O496 2.044 1_545 S
Mg484 O498 2.042 1_545 S
Mg484 O505 2.037 . S
C485 O491 1.247 . S
C485 O492 1.289 . S
C486 O504 1.245 . S
C486 O505 1.274 . S
O487 C475 1.241 . S
O487 Mg480 2.044 . S
O488 C475 1.280 . S
O488 Mg478 1.984 . S
O489 C476 1.277 . S
O489 Mg480 2.042 . S
O490 C476 1.245 . S
O490 Mg478 1.988 . S
O491 Mg478 2.061 . S
O491 C485 1.247 . S
O492 Mg481 2.106 . S
O492 Mg484 2.236 . S
O492 C485 1.289 . S
C493 O494 1.245 . S
C493 O495 1.274 . S
O494 Mg481 2.079 1_565 S
O494 C493 1.245 . S
O495 Mg480 2.037 1_565 S
O495 C493 1.274 . S
O496 Mg484 2.044 1_565 S
O496 C499 1.241 . S
O497 Mg483 1.984 . S
O497 C499 1.280 . S
O498 Mg484 2.042 1_565 S
O498 C502 1.277 . S
C499 O496 1.241 . S
C499 O497 1.280 . S
O500 Mg483 1.988 . S
O500 C502 1.245 . S
O501 C477 1.247 . S
O501 Mg483 2.061 . S
C502 O498 1.277 . S
C502 O500 1.245 . S
O503 C477 1.289 . S
O503 Mg480 2.236 1_565 S
O503 Mg481 2.106 1_565 S
O504 Mg481 2.079 . S
O504 C486 1.245 . S
O505 Mg484 2.037 . S
O505 C486 1.274 . S
H506 C518 0.930 . S
H507 C520 0.930 . S
H508 C521 0.930 . S
H509 C525 0.959 . S
H510 C525 0.959 . S
H511 C525 0.961 . S
H512 C526 0.960 . S
H513 C526 0.961 . S
H514 C526 0.959 . S
H515 C529 0.929 . S
H516 C530 0.931 . S
H517 C532 0.930 . S
C518 H506 0.930 . S
C518 C519 1.399 . S
C518 C523 1.399 . S
C519 C518 1.399 . S
C519 C520 1.376 . S
C520 H507 0.930 . S
C520 C519 1.376 . S
C520 C521 1.388 . S
C521 H508 0.930 . S
C521 C520 1.388 . S
C521 C522 1.390 . S
C522 C521 1.390 . S
C522 C523 1.394 . S
C522 C528 1.465 . S
C523 C518 1.399 . S
C523 C522 1.394 . S
C523 C524 1.516 . S
C524 C523 1.516 . S
C524 C525 1.502 . S
C524 C526 1.561 . S
C524 C527 1.526 . S
C525 H509 0.959 . S
C525 H510 0.959 . S
C525 H511 0.961 . S
C525 C524 1.502 . S
C526 H512 0.960 . S
C526 H513 0.961 . S
C526 H514 0.959 . S
C526 C524 1.561 . S
C527 C524 1.526 . S
C527 C528 1.396 . S
C527 C532 1.390 . S
C528 C522 1.465 . S
C528 C527 1.396 . S
C528 C529 1.399 . S
C529 H515 0.929 . S
C529 C528 1.399 . S
C529 C530 1.385 . S
C530 H516 0.931 . S
C530 C529 1.385 . S
C530 C531 1.389 . S
C531 C530 1.389 . S
C531 C532 1.387 . S
C532 H517 0.930 . S
C532 C527 1.390 . S
C532 C531 1.387 . S
H533 C545 0.930 . S
H534 C547 0.930 . S
H535 C548 0.930 . S
H536 C552 0.959 . S
H537 C552 0.959 . S
H538 C552 0.961 . S
H539 C553 0.960 . S
H540 C553 0.961 . S
H541 C553 0.959 . S
H542 C556 0.929 . S
H543 C557 0.931 . S
H544 C559 0.930 . S
C545 H533 0.930 . S
C545 C546 1.399 . S
C545 C550 1.399 . S
C546 C545 1.399 . S
C546 C547 1.376 . S
C547 H534 0.930 . S
C547 C546 1.376 . S
C547 C548 1.388 . S
C548 H535 0.930 . S
C548 C547 1.388 . S
C548 C549 1.390 . S
C549 C548 1.390 . S
C549 C550 1.394 . S
C549 C555 1.465 . S
C550 C545 1.399 . S
C550 C549 1.394 . S
C550 C551 1.516 . S
C551 C550 1.516 . S
C551 C552 1.502 . S
C551 C553 1.561 . S
C551 C554 1.526 . S
C552 H536 0.959 . S
C552 H537 0.959 . S
C552 H538 0.961 . S
C552 C551 1.502 . S
C553 H539 0.960 . S
C553 H540 0.961 . S
C553 H541 0.959 . S
C553 C551 1.561 . S
C554 C551 1.526 . S
C554 C555 1.396 . S
C554 C559 1.390 . S
C555 C549 1.465 . S
C555 C554 1.396 . S
C555 C556 1.399 . S
C556 H542 0.929 . S
C556 C555 1.399 . S
C556 C557 1.385 . S
C557 H543 0.931 . S
C557 C556 1.385 . S
C557 C558 1.389 . S
C558 C557 1.389 . S
C558 C559 1.387 . S
C559 H544 0.930 . S
C559 C554 1.390 . S
C559 C558 1.387 . S
H560 C572 0.930 . S
H561 C574 0.930 . S
H562 C575 0.930 . S
H563 C579 0.959 . S
H564 C579 0.959 . S
H565 C579 0.961 . S
H566 C580 0.960 . S
H567 C580 0.961 . S
H568 C580 0.959 . S
H569 C583 0.929 . S
H570 C584 0.931 . S
H571 C586 0.930 . S
C572 H560 0.930 . S
C572 C573 1.399 . S
C572 C577 1.399 . S
C573 C572 1.399 . S
C573 C574 1.376 . S
C574 H561 0.930 . S
C574 C573 1.376 . S
C574 C575 1.388 . S
C575 H562 0.930 . S
C575 C574 1.388 . S
C575 C576 1.390 . S
C576 C575 1.390 . S
C576 C577 1.394 . S
C576 C582 1.465 . S
C577 C572 1.399 . S
C577 C576 1.394 . S
C577 C578 1.516 . S
C578 C577 1.516 . S
C578 C579 1.502 . S
C578 C580 1.561 . S
C578 C581 1.526 . S
C579 H563 0.959 . S
C579 H564 0.959 . S
C579 H565 0.961 . S
C579 C578 1.502 . S
C580 H566 0.960 . S
C580 H567 0.961 . S
C580 H568 0.959 . S
C580 C578 1.561 . S
C581 C578 1.526 . S
C581 C582 1.396 . S
C581 C586 1.390 . S
C582 C576 1.465 . S
C582 C581 1.396 . S
C582 C583 1.399 . S
C583 H569 0.929 . S
C583 C582 1.399 . S
C583 C584 1.385 . S
C584 H570 0.931 . S
C584 C583 1.385 . S
C584 C585 1.389 . S
C585 C584 1.389 . S
C585 C586 1.387 . S
C586 H571 0.930 . S
C586 C581 1.390 . S
C586 C585 1.387 . S
H587 C599 0.930 . S
H588 C601 0.930 . S
H589 C602 0.930 . S
H590 C606 0.959 . S
H591 C606 0.959 . S
H592 C606 0.961 . S
H593 C607 0.960 . S
H594 C607 0.961 . S
H595 C607 0.959 . S
H596 C610 0.929 . S
H597 C611 0.931 1_545 S
H598 C613 0.930 . S
C599 H587 0.930 . S
C599 C600 1.399 . S
C599 C604 1.399 . S
C600 C599 1.399 . S
C600 C601 1.376 . S
C601 H588 0.930 . S
C601 C600 1.376 . S
C601 C602 1.388 . S
C602 H589 0.930 . S
C602 C601 1.388 . S
C602 C603 1.390 . S
C603 C602 1.390 . S
C603 C604 1.394 . S
C603 C609 1.465 . S
C604 C599 1.399 . S
C604 C603 1.394 . S
C604 C605 1.516 . S
C605 C604 1.516 . S
C605 C606 1.502 . S
C605 C607 1.561 . S
C605 C608 1.526 . S
C606 H590 0.959 . S
C606 H591 0.959 . S
C606 H592 0.961 . S
C606 C605 1.502 . S
C607 H593 0.960 . S
C607 H594 0.961 . S
C607 H595 0.959 . S
C607 C605 1.561 . S
C608 C605 1.526 . S
C608 C609 1.396 . S
C608 C613 1.390 . S
C609 C603 1.465 . S
C609 C608 1.396 . S
C609 C610 1.399 . S
C610 H596 0.929 . S
C610 C609 1.399 . S
C610 C611 1.385 . S
C611 H597 0.931 1_565 S
C611 C610 1.385 . S
C611 C612 1.389 . S
C612 C611 1.389 . S
C612 C613 1.387 . S
C613 H598 0.930 . S
C613 C608 1.390 . S
C613 C612 1.387 . S
H614 C626 0.930 . S
H615 C628 0.930 . S
H616 C629 0.930 . S
H617 C633 0.959 . S
H618 C633 0.959 . S
H619 C633 0.961 . S
H620 C634 0.960 . S
H621 C634 0.961 . S
H622 C634 0.959 . S
H623 C637 0.929 . S
H624 C638 0.931 . S
H625 C640 0.930 . S
C626 H614 0.930 . S
C626 C627 1.399 . S
C626 C631 1.399 . S
C627 C626 1.399 . S
C627 C628 1.376 . S
C628 H615 0.930 . S
C628 C627 1.376 . S
C628 C629 1.388 . S
C629 H616 0.930 . S
C629 C628 1.388 . S
C629 C630 1.390 . S
C630 C629 1.390 . S
C630 C631 1.394 . S
C630 C636 1.465 . S
C631 C626 1.399 . S
C631 C630 1.394 . S
C631 C632 1.516 . S
C632 C631 1.516 . S
C632 C633 1.502 . S
C632 C634 1.561 . S
C632 C635 1.526 . S
C633 H617 0.959 . S
C633 H618 0.959 . S
C633 H619 0.961 . S
C633 C632 1.502 . S
C634 H620 0.960 . S
C634 H621 0.961 . S
C634 H622 0.959 . S
C634 C632 1.561 . S
C635 C632 1.526 . S
C635 C636 1.396 . S
C635 C640 1.390 . S
C636 C630 1.465 . S
C636 C635 1.396 . S
C636 C637 1.399 . S
C637 H623 0.929 . S
C637 C636 1.399 . S
C637 C638 1.385 . S
C638 H624 0.931 . S
C638 C637 1.385 . S
C638 C639 1.389 . S
C639 C638 1.389 . S
C639 C640 1.387 . S
C640 H625 0.930 . S
C640 C635 1.390 . S
C640 C639 1.387 . S
H641 C653 0.930 . S
H642 C655 0.930 . S
H643 C656 0.930 . S
H644 C660 0.959 . S
H645 C660 0.959 . S
H646 C660 0.961 . S
H647 C661 0.960 . S
H648 C661 0.961 . S
H649 C661 0.959 . S
H650 C664 0.929 . S
H651 C665 0.931 . S
H652 C667 0.930 . S
C653 H641 0.930 . S
C653 C654 1.399 . S
C653 C658 1.399 . S
C654 C653 1.399 . S
C654 C655 1.376 . S
C655 H642 0.930 . S
C655 C654 1.376 . S
C655 C656 1.388 . S
C656 H643 0.930 . S
C656 C655 1.388 . S
C656 C657 1.390 . S
C657 C656 1.390 . S
C657 C658 1.394 . S
C657 C663 1.465 . S
C658 C653 1.399 . S
C658 C657 1.394 . S
C658 C659 1.516 . S
C659 C658 1.516 . S
C659 C660 1.502 . S
C659 C661 1.561 . S
C659 C662 1.526 . S
C660 H644 0.959 . S
C660 H645 0.959 . S
C660 H646 0.961 . S
C660 C659 1.502 . S
C661 H647 0.960 . S
C661 H648 0.961 . S
C661 H649 0.959 . S
C661 C659 1.561 . S
C662 C659 1.526 . S
C662 C663 1.396 . S
C662 C667 1.390 . S
C663 C657 1.465 . S
C663 C662 1.396 . S
C663 C664 1.399 . S
C664 H650 0.929 . S
C664 C663 1.399 . S
C664 C665 1.385 . S
C665 H651 0.931 . S
C665 C664 1.385 . S
C665 C666 1.389 . S
C666 C665 1.389 . S
C666 C667 1.387 . S
C667 H652 0.930 . S
C667 C662 1.390 . S
C667 C666 1.387 . S
H668 C680 0.930 . S
H669 C682 0.930 . S
H670 C683 0.930 . S
H671 C687 0.959 . S
H672 C687 0.959 . S
H673 C687 0.961 . S
H674 C688 0.960 . S
H675 C688 0.961 . S
H676 C688 0.959 . S
H677 C691 0.929 . S
H678 C692 0.931 . S
H679 C694 0.930 . S
C680 H668 0.930 . S
C680 C681 1.399 . S
C680 C685 1.399 . S
C681 C680 1.399 . S
C681 C682 1.376 . S
C682 H669 0.930 . S
C682 C681 1.376 . S
C682 C683 1.388 . S
C683 H670 0.930 . S
C683 C682 1.388 . S
C683 C684 1.390 . S
C684 C683 1.390 . S
C684 C685 1.394 . S
C684 C690 1.465 . S
C685 C680 1.399 . S
C685 C684 1.394 . S
C685 C686 1.516 . S
C686 C685 1.516 . S
C686 C687 1.502 . S
C686 C688 1.561 . S
C686 C689 1.526 . S
C687 H671 0.959 . S
C687 H672 0.959 . S
C687 H673 0.961 . S
C687 C686 1.502 . S
C688 H674 0.960 . S
C688 H675 0.961 . S
C688 H676 0.959 . S
C688 C686 1.561 . S
C689 C686 1.526 . S
C689 C690 1.396 . S
C689 C694 1.390 . S
C690 C684 1.465 . S
C690 C689 1.396 . S
C690 C691 1.399 . S
C691 H677 0.929 . S
C691 C690 1.399 . S
C691 C692 1.385 . S
C692 H678 0.931 . S
C692 C691 1.385 . S
C692 C693 1.389 . S
C693 C692 1.389 . S
C693 C694 1.387 . S
C694 H679 0.930 . S
C694 C689 1.390 . S
C694 C693 1.387 . S
H695 C707 0.930 . S
H696 C709 0.930 . S
H697 C710 0.930 . S
H698 C714 0.959 . S
H699 C714 0.959 . S
H700 C714 0.961 . S
H701 C715 0.960 . S
H702 C715 0.961 . S
H703 C715 0.959 . S
H704 C718 0.929 . S
H705 C719 0.931 . S
H706 C721 0.930 . S
C707 H695 0.930 . S
C707 C708 1.399 . S
C707 C712 1.399 . S
C708 C707 1.399 . S
C708 C709 1.376 . S
C709 H696 0.930 . S
C709 C708 1.376 . S
C709 C710 1.388 . S
C710 H697 0.930 . S
C710 C709 1.388 . S
C710 C711 1.390 . S
C711 C710 1.390 . S
C711 C712 1.394 . S
C711 C717 1.465 . S
C712 C707 1.399 . S
C712 C711 1.394 . S
C712 C713 1.516 . S
C713 C712 1.516 . S
C713 C714 1.502 . S
C713 C715 1.561 . S
C713 C716 1.526 . S
C714 H698 0.959 . S
C714 H699 0.959 . S
C714 H700 0.961 . S
C714 C713 1.502 . S
C715 H701 0.960 . S
C715 H702 0.961 . S
C715 H703 0.959 . S
C715 C713 1.561 . S
C716 C713 1.526 . S
C716 C717 1.396 . S
C716 C721 1.390 . S
C717 C711 1.465 . S
C717 C716 1.396 . S
C717 C718 1.399 . S
C718 H704 0.929 . S
C718 C717 1.399 . S
C718 C719 1.385 . S
C719 H705 0.931 . S
C719 C718 1.385 . S
C719 C720 1.389 . S
C720 C719 1.389 . S
C720 C721 1.387 . S
C721 H706 0.930 . S
C721 C716 1.390 . S
C721 C720 1.387 . S
H722 C734 0.930 . S
H723 C736 0.930 . S
H724 C737 0.930 . S
H725 C741 0.959 . S
H726 C741 0.959 . S
H727 C741 0.961 . S
H728 C742 0.960 . S
H729 C742 0.961 . S
H730 C742 0.959 . S
H731 C745 0.929 . S
H732 C746 0.931 . S
H733 C748 0.930 . S
C734 H722 0.930 . S
C734 C735 1.399 . S
C734 C739 1.399 . S
C735 C734 1.399 . S
C735 C736 1.376 . S
C736 H723 0.930 . S
C736 C735 1.376 . S
C736 C737 1.388 . S
C737 H724 0.930 . S
C737 C736 1.388 . S
C737 C738 1.390 . S
C738 C737 1.390 . S
C738 C739 1.394 . S
C738 C744 1.465 . S
C739 C734 1.399 . S
C739 C738 1.394 . S
C739 C740 1.516 . S
C740 C739 1.516 . S
C740 C741 1.502 . S
C740 C742 1.561 . S
C740 C743 1.526 . S
C741 H725 0.959 . S
C741 H726 0.959 . S
C741 H727 0.961 . S
C741 C740 1.502 . S
C742 H728 0.960 . S
C742 H729 0.961 . S
C742 H730 0.959 . S
C742 C740 1.561 . S
C743 C740 1.526 . S
C743 C744 1.396 . S
C743 C748 1.390 . S
C744 C738 1.465 . S
C744 C743 1.396 . S
C744 C745 1.399 . S
C745 H731 0.929 . S
C745 C744 1.399 . S
C745 C746 1.385 . S
C746 H732 0.931 . S
C746 C745 1.385 . S
C746 C747 1.389 . S
C747 C746 1.389 . S
C747 C748 1.387 . S
C748 H733 0.930 . S
C748 C743 1.390 . S
C748 C747 1.387 . S
H749 C761 0.930 . S
H750 C763 0.930 . S
H751 C764 0.930 . S
H752 C768 0.959 . S
H753 C768 0.959 . S
H754 C768 0.961 . S
H755 C769 0.960 . S
H756 C769 0.961 . S
H757 C769 0.959 . S
H758 C772 0.929 . S
H759 C773 0.931 1_455 S
H760 C775 0.930 . S
C761 H749 0.930 . S
C761 C762 1.399 . S
C761 C766 1.399 . S
C762 C761 1.399 . S
C762 C763 1.376 . S
C763 H750 0.930 . S
C763 C762 1.376 . S
C763 C764 1.388 . S
C764 H751 0.930 . S
C764 C763 1.388 . S
C764 C765 1.390 . S
C765 C764 1.390 . S
C765 C766 1.394 . S
C765 C771 1.465 . S
C766 C761 1.399 . S
C766 C765 1.394 . S
C766 C767 1.516 . S
C767 C766 1.516 . S
C767 C768 1.502 . S
C767 C769 1.561 . S
C767 C770 1.526 . S
C768 H752 0.959 . S
C768 H753 0.959 . S
C768 H754 0.961 . S
C768 C767 1.502 . S
C769 H755 0.960 . S
C769 H756 0.961 . S
C769 H757 0.959 . S
C769 C767 1.561 . S
C770 C767 1.526 . S
C770 C771 1.396 . S
C770 C775 1.390 . S
C771 C765 1.465 . S
C771 C770 1.396 . S
C771 C772 1.399 . S
C772 H758 0.929 . S
C772 C771 1.399 . S
C772 C773 1.385 . S
C773 H759 0.931 1_655 S
C773 C772 1.385 . S
C773 C774 1.389 . S
C774 C773 1.389 . S
C774 C775 1.387 . S
C775 H760 0.930 . S
C775 C770 1.390 . S
C775 C774 1.387 . S
H776 C788 0.930 . S
H777 C790 0.930 . S
H778 C791 0.930 . S
H779 C795 0.959 . S
H780 C795 0.959 . S
H781 C795 0.961 . S
H782 C796 0.960 . S
H783 C796 0.961 . S
H784 C796 0.959 . S
H785 C799 0.929 . S
H786 C800 0.931 . S
H787 C802 0.930 . S
C788 H776 0.930 . S
C788 C789 1.399 . S
C788 C793 1.399 . S
C789 C788 1.399 . S
C789 C790 1.376 . S
C790 H777 0.930 . S
C790 C789 1.376 . S
C790 C791 1.388 . S
C791 H778 0.930 . S
C791 C790 1.388 . S
C791 C792 1.390 . S
C792 C791 1.390 . S
C792 C793 1.394 . S
C792 C798 1.465 . S
C793 C788 1.399 . S
C793 C792 1.394 . S
C793 C794 1.516 . S
C794 C793 1.516 . S
C794 C795 1.502 . S
C794 C796 1.561 . S
C794 C797 1.526 . S
C795 H779 0.959 . S
C795 H780 0.959 . S
C795 H781 0.961 . S
C795 C794 1.502 . S
C796 H782 0.960 . S
C796 H783 0.961 . S
C796 H784 0.959 . S
C796 C794 1.561 . S
C797 C794 1.526 . S
C797 C798 1.396 . S
C797 C802 1.390 . S
C798 C792 1.465 . S
C798 C797 1.396 . S
C798 C799 1.399 . S
C799 H785 0.929 . S
C799 C798 1.399 . S
C799 C800 1.385 . S
C800 H786 0.931 . S
C800 C799 1.385 . S
C800 C801 1.389 . S
C801 C800 1.389 . S
C801 C802 1.387 . S
C802 H787 0.930 . S
C802 C797 1.390 . S
C802 C801 1.387 . S
H803 C815 0.930 . S
H804 C817 0.930 . S
H805 C818 0.930 . S
H806 C822 0.959 . S
H807 C822 0.959 . S
H808 C822 0.961 . S
H809 C823 0.960 . S
H810 C823 0.961 . S
H811 C823 0.959 . S
H812 C826 0.929 . S
H813 C827 0.931 . S
H814 C829 0.930 . S
C815 H803 0.930 . S
C815 C816 1.399 . S
C815 C820 1.399 . S
C816 C815 1.399 . S
C816 C817 1.376 . S
C817 H804 0.930 . S
C817 C816 1.376 . S
C817 C818 1.388 . S
C818 H805 0.930 . S
C818 C817 1.388 . S
C818 C819 1.390 . S
C819 C818 1.390 . S
C819 C820 1.394 . S
C819 C825 1.465 . S
C820 C815 1.399 . S
C820 C819 1.394 . S
C820 C821 1.516 . S
C821 C820 1.516 . S
C821 C822 1.502 . S
C821 C823 1.561 . S
C821 C824 1.526 . S
C822 H806 0.959 . S
C822 H807 0.959 . S
C822 H808 0.961 . S
C822 C821 1.502 . S
C823 H809 0.960 . S
C823 H810 0.961 . S
C823 H811 0.959 . S
C823 C821 1.561 . S
C824 C821 1.526 . S
C824 C825 1.396 . S
C824 C829 1.390 . S
C825 C819 1.465 . S
C825 C824 1.396 . S
C825 C826 1.399 . S
C826 H812 0.929 . S
C826 C825 1.399 . S
C826 C827 1.385 . S
C827 H813 0.931 . S
C827 C826 1.385 . S
C827 C828 1.389 . S
C828 C827 1.389 . S
C828 C829 1.387 . S
C829 H814 0.930 . S
C829 C824 1.390 . S
C829 C828 1.387 . S
H830 C842 0.930 . S
H831 C844 0.930 . S
H832 C845 0.930 . S
H833 C849 0.959 . S
H834 C849 0.959 . S
H835 C849 0.961 . S
H836 C850 0.960 . S
H837 C850 0.961 . S
H838 C850 0.959 . S
H839 C853 0.929 . S
H840 C854 0.931 . S
H841 C856 0.930 . S
C842 H830 0.930 . S
C842 C843 1.399 . S
C842 C847 1.399 . S
C843 C842 1.399 . S
C843 C844 1.376 . S
C844 H831 0.930 . S
C844 C843 1.376 . S
C844 C845 1.388 . S
C845 H832 0.930 . S
C845 C844 1.388 . S
C845 C846 1.390 . S
C846 C845 1.390 . S
C846 C847 1.394 . S
C846 C852 1.465 . S
C847 C842 1.399 . S
C847 C846 1.394 . S
C847 C848 1.516 . S
C848 C847 1.516 . S
C848 C849 1.502 . S
C848 C850 1.561 . S
C848 C851 1.526 . S
C849 H833 0.959 . S
C849 H834 0.959 . S
C849 H835 0.961 . S
C849 C848 1.502 . S
C850 H836 0.960 . S
C850 H837 0.961 . S
C850 H838 0.959 . S
C850 C848 1.561 . S
C851 C848 1.526 . S
C851 C852 1.396 . S
C851 C856 1.390 . S
C852 C846 1.465 . S
C852 C851 1.396 . S
C852 C853 1.399 . S
C853 H839 0.929 . S
C853 C852 1.399 . S
C853 C854 1.385 . S
C854 H840 0.931 . S
C854 C853 1.385 . S
C854 C855 1.389 . S
C855 C854 1.389 . S
C855 C856 1.387 . S
C856 H841 0.930 . S
C856 C851 1.390 . S
C856 C855 1.387 . S
H857 C869 0.930 . S
H858 C871 0.930 . S
H859 C872 0.930 . S
H860 C876 0.959 . S
H861 C876 0.959 1_554 S
H862 C876 0.961 . S
H863 C877 0.960 . S
H864 C877 0.961 1_554 S
H865 C877 0.959 . S
H866 C880 0.929 . S
H867 C881 0.931 . S
H868 C883 0.930 1_554 S
C869 H857 0.930 . S
C869 C870 1.399 . S
C869 C874 1.399 . S
C870 C869 1.399 . S
C870 C871 1.376 . S
C871 H858 0.930 . S
C871 C870 1.376 . S
C871 C872 1.388 . S
C872 H859 0.930 . S
C872 C871 1.388 . S
C872 C873 1.390 . S
C873 C872 1.390 . S
C873 C874 1.394 . S
C873 C879 1.465 . S
C874 C869 1.399 . S
C874 C873 1.394 . S
C874 C875 1.516 . S
C875 C874 1.516 . S
C875 C876 1.502 . S
C875 C877 1.561 . S
C875 C878 1.526 . S
C876 H860 0.959 . S
C876 H861 0.959 1_556 S
C876 H862 0.961 . S
C876 C875 1.502 . S
C877 H863 0.960 . S
C877 H864 0.961 1_556 S
C877 H865 0.959 . S
C877 C875 1.561 . S
C878 C875 1.526 . S
C878 C879 1.396 . S
C878 C883 1.390 . S
C879 C873 1.465 . S
C879 C878 1.396 . S
C879 C880 1.399 . S
C880 H866 0.929 . S
C880 C879 1.399 . S
C880 C881 1.385 . S
C881 H867 0.931 . S
C881 C880 1.385 . S
C881 C882 1.389 . S
C882 C881 1.389 . S
C882 C883 1.387 . S
C883 H868 0.930 1_556 S
C883 C878 1.390 . S
C883 C882 1.387 . S
H884 C896 0.930 . S
H885 C898 0.930 . S
H886 C899 0.930 . S
H887 C903 0.959 . S
H888 C903 0.959 . S
H889 C903 0.961 . S
H890 C904 0.960 . S
H891 C904 0.961 . S
H892 C904 0.959 . S
H893 C907 0.929 . S
H894 C908 0.931 . S
H895 C910 0.930 . S
C896 H884 0.930 . S
C896 C897 1.399 . S
C896 C901 1.399 . S
C897 C896 1.399 . S
C897 C898 1.376 . S
C898 H885 0.930 . S
C898 C897 1.376 . S
C898 C899 1.388 . S
C899 H886 0.930 . S
C899 C898 1.388 . S
C899 C900 1.390 . S
C900 C899 1.390 . S
C900 C901 1.394 . S
C900 C906 1.465 . S
C901 C896 1.399 . S
C901 C900 1.394 . S
C901 C902 1.516 . S
C902 C901 1.516 . S
C902 C903 1.502 . S
C902 C904 1.561 . S
C902 C905 1.526 . S
C903 H887 0.959 . S
C903 H888 0.959 . S
C903 H889 0.961 . S
C903 C902 1.502 . S
C904 H890 0.960 . S
C904 H891 0.961 . S
C904 H892 0.959 . S
C904 C902 1.561 . S
C905 C902 1.526 . S
C905 C906 1.396 . S
C905 C910 1.390 . S
C906 C900 1.465 . S
C906 C905 1.396 . S
C906 C907 1.399 . S
C907 H893 0.929 . S
C907 C906 1.399 . S
C907 C908 1.385 . S
C908 H894 0.931 . S
C908 C907 1.385 . S
C908 C909 1.389 . S
C909 C908 1.389 . S
C909 C910 1.387 . S
C910 H895 0.930 . S
C910 C905 1.390 . S
C910 C909 1.387 . S
H911 C923 0.930 . S
H912 C925 0.930 . S
H913 C926 0.930 . S
H914 C930 0.959 . S
H915 C930 0.959 . S
H916 C930 0.961 . S
H917 C931 0.960 . S
H918 C931 0.961 . S
H919 C931 0.959 . S
H920 C934 0.929 . S
H921 C935 0.931 . S
H922 C937 0.930 . S
C923 H911 0.930 . S
C923 C924 1.399 . S
C923 C928 1.399 . S
C924 C923 1.399 . S
C924 C925 1.376 . S
C925 H912 0.930 . S
C925 C924 1.376 . S
C925 C926 1.388 . S
C926 H913 0.930 . S
C926 C925 1.388 . S
C926 C927 1.390 . S
C927 C926 1.390 . S
C927 C928 1.394 . S
C927 C933 1.465 . S
C928 C923 1.399 . S
C928 C927 1.394 . S
C928 C929 1.516 . S
C929 C928 1.516 . S
C929 C930 1.502 . S
C929 C931 1.561 . S
C929 C932 1.526 . S
C930 H914 0.959 . S
C930 H915 0.959 . S
C930 H916 0.961 . S
C930 C929 1.502 . S
C931 H917 0.960 . S
C931 H918 0.961 . S
C931 H919 0.959 . S
C931 C929 1.561 . S
C932 C929 1.526 . S
C932 C933 1.396 . S
C932 C937 1.390 . S
C933 C927 1.465 . S
C933 C932 1.396 . S
C933 C934 1.399 . S
C934 H920 0.929 . S
C934 C933 1.399 . S
C934 C935 1.385 . S
C935 H921 0.931 . S
C935 C934 1.385 . S
C935 C936 1.389 . S
C936 C935 1.389 . S
C936 C937 1.387 . S
C937 H922 0.930 . S
C937 C932 1.390 . S
C937 C936 1.387 . S
H938 C950 0.930 . S
H939 C952 0.930 . S
H940 C953 0.930 . S
H941 C957 0.959 . S
H942 C957 0.959 . S
H943 C957 0.961 . S
H944 C958 0.960 . S
H945 C958 0.961 . S
H946 C958 0.959 . S
H947 C961 0.929 . S
H948 C962 0.931 . S
H949 C964 0.930 . S
C950 H938 0.930 . S
C950 C951 1.399 . S
C950 C955 1.399 . S
C951 C950 1.399 . S
C951 C952 1.376 . S
C952 H939 0.930 . S
C952 C951 1.376 . S
C952 C953 1.388 . S
C953 H940 0.930 . S
C953 C952 1.388 . S
C953 C954 1.390 . S
C954 C953 1.390 . S
C954 C955 1.394 . S
C954 C960 1.465 . S
C955 C950 1.399 . S
C955 C954 1.394 . S
C955 C956 1.516 . S
C956 C955 1.516 . S
C956 C957 1.502 . S
C956 C958 1.561 . S
C956 C959 1.526 . S
C957 H941 0.959 . S
C957 H942 0.959 . S
C957 H943 0.961 . S
C957 C956 1.502 . S
C958 H944 0.960 . S
C958 H945 0.961 . S
C958 H946 0.959 . S
C958 C956 1.561 . S
C959 C956 1.526 . S
C959 C960 1.396 . S
C959 C964 1.390 . S
C960 C954 1.465 . S
C960 C959 1.396 . S
C960 C961 1.399 . S
C961 H947 0.929 . S
C961 C960 1.399 . S
C961 C962 1.385 . S
C962 H948 0.931 . S
C962 C961 1.385 . S
C962 C963 1.389 . S
C963 C962 1.389 . S
C963 C964 1.387 . S
C964 H949 0.930 . S
C964 C959 1.390 . S
C964 C963 1.387 . S
H965 C977 0.930 . S
H966 C979 0.930 . S
H967 C980 0.930 . S
H968 C984 0.959 . S
H969 C984 0.959 . S
H970 C984 0.961 1_556 S
H971 C985 0.960 . S
H972 C985 0.961 . S
H973 C985 0.959 . S
H974 C988 0.929 . S
H975 C989 0.931 . S
H976 C991 0.930 1_554 S
C977 H965 0.930 . S
C977 C978 1.399 . S
C977 C982 1.399 . S
C978 C977 1.399 . S
C978 C979 1.376 . S
C979 H966 0.930 . S
C979 C978 1.376 . S
C979 C980 1.388 . S
C980 H967 0.930 . S
C980 C979 1.388 . S
C980 C981 1.390 . S
C981 C980 1.390 . S
C981 C982 1.394 . S
C981 C987 1.465 . S
C982 C977 1.399 . S
C982 C981 1.394 . S
C982 C983 1.516 . S
C983 C982 1.516 . S
C983 C984 1.502 1_556 S
C983 C985 1.561 . S
C983 C986 1.526 . S
C984 H968 0.959 . S
C984 H969 0.959 . S
C984 H970 0.961 1_554 S
C984 C983 1.502 1_554 S
C985 H971 0.960 . S
C985 H972 0.961 . S
C985 H973 0.959 . S
C985 C983 1.561 . S
C986 C983 1.526 . S
C986 C987 1.396 . S
C986 C991 1.390 . S
C987 C981 1.465 . S
C987 C986 1.396 . S
C987 C988 1.399 . S
C988 H974 0.929 . S
C988 C987 1.399 . S
C988 C989 1.385 . S
C989 H975 0.931 . S
C989 C988 1.385 . S
C989 C990 1.389 . S
C990 C989 1.389 . S
C990 C991 1.387 . S
C991 H976 0.930 1_556 S
C991 C986 1.390 . S
C991 C990 1.387 . S
H992 C1004 0.930 . S
H993 C1006 0.930 . S
H994 C1007 0.930 . S
H995 C1011 0.959 . S
H996 C1011 0.959 . S
H997 C1011 0.961 . S
H998 C1012 0.960 . S
H999 C1012 0.961 . S
H1000 C1012 0.959 . S
H1001 C1015 0.929 . S
H1002 C1016 0.931 . S
H1003 C1018 0.930 . S
C1004 H992 0.930 . S
C1004 C1005 1.399 . S
C1004 C1009 1.399 . S
C1005 C1004 1.399 . S
C1005 C1006 1.376 . S
C1006 H993 0.930 . S
C1006 C1005 1.376 . S
C1006 C1007 1.388 . S
C1007 H994 0.930 . S
C1007 C1006 1.388 . S
C1007 C1008 1.390 . S
C1008 C1007 1.390 . S
C1008 C1009 1.394 . S
C1008 C1014 1.465 . S
C1009 C1004 1.399 . S
C1009 C1008 1.394 . S
C1009 C1010 1.516 . S
C1010 C1009 1.516 . S
C1010 C1011 1.502 . S
C1010 C1012 1.561 . S
C1010 C1013 1.526 . S
C1011 H995 0.959 . S
C1011 H996 0.959 . S
C1011 H997 0.961 . S
C1011 C1010 1.502 . S
C1012 H998 0.960 . S
C1012 H999 0.961 . S
C1012 H1000 0.959 . S
C1012 C1010 1.561 . S
C1013 C1010 1.526 . S
C1013 C1014 1.396 . S
C1013 C1018 1.390 . S
C1014 C1008 1.465 . S
C1014 C1013 1.396 . S
C1014 C1015 1.399 . S
C1015 H1001 0.929 . S
C1015 C1014 1.399 . S
C1015 C1016 1.385 . S
C1016 H1002 0.931 . S
C1016 C1015 1.385 . S
C1016 C1017 1.389 . S
C1017 C1016 1.389 . S
C1017 C1018 1.387 . S
C1018 H1003 0.930 . S
C1018 C1013 1.390 . S
C1018 C1017 1.387 . S
H1019 C1031 0.930 . S
H1020 C1033 0.930 . S
H1021 C1034 0.930 . S
H1022 C1038 0.959 . S
H1023 C1038 0.959 . S
H1024 C1038 0.961 . S
H1025 C1039 0.960 . S
H1026 C1039 0.961 . S
H1027 C1039 0.959 . S
H1028 C1042 0.929 . S
H1029 C1043 0.931 . S
H1030 C1045 0.930 . S
C1031 H1019 0.930 . S
C1031 C1032 1.399 . S
C1031 C1036 1.399 . S
C1032 C1031 1.399 . S
C1032 C1033 1.376 . S
C1033 H1020 0.930 . S
C1033 C1032 1.376 . S
C1033 C1034 1.388 . S
C1034 H1021 0.930 . S
C1034 C1033 1.388 . S
C1034 C1035 1.390 . S
C1035 C1034 1.390 . S
C1035 C1036 1.394 . S
C1035 C1041 1.465 . S
C1036 C1031 1.399 . S
C1036 C1035 1.394 . S
C1036 C1037 1.516 . S
C1037 C1036 1.516 . S
C1037 C1038 1.502 . S
C1037 C1039 1.561 . S
C1037 C1040 1.526 . S
C1038 H1022 0.959 . S
C1038 H1023 0.959 . S
C1038 H1024 0.961 . S
C1038 C1037 1.502 . S
C1039 H1025 0.960 . S
C1039 H1026 0.961 . S
C1039 H1027 0.959 . S
C1039 C1037 1.561 . S
C1040 C1037 1.526 . S
C1040 C1041 1.396 . S
C1040 C1045 1.390 . S
C1041 C1035 1.465 . S
C1041 C1040 1.396 . S
C1041 C1042 1.399 . S
C1042 H1028 0.929 . S
C1042 C1041 1.399 . S
C1042 C1043 1.385 . S
C1043 H1029 0.931 . S
C1043 C1042 1.385 . S
C1043 C1044 1.389 . S
C1044 C1043 1.389 . S
C1044 C1045 1.387 . S
C1045 H1030 0.930 . S
C1045 C1040 1.390 . S
C1045 C1044 1.387 . S
H1046 C1058 0.930 . S
H1047 C1060 0.930 . S
H1048 C1061 0.930 . S
H1049 C1065 0.959 . S
H1050 C1065 0.959 1_545 S
H1051 C1065 0.961 1_545 S
H1052 C1066 0.960 . S
H1053 C1066 0.961 . S
H1054 C1066 0.959 . S
H1055 C1069 0.929 . S
H1056 C1070 0.931 . S
H1057 C1072 0.930 1_545 S
C1058 H1046 0.930 . S
C1058 C1059 1.399 . S
C1058 C1063 1.399 . S
C1059 C1058 1.399 . S
C1059 C1060 1.376 . S
C1060 H1047 0.930 . S
C1060 C1059 1.376 . S
C1060 C1061 1.388 . S
C1061 H1048 0.930 . S
C1061 C1060 1.388 . S
C1061 C1062 1.390 . S
C1062 C1061 1.390 . S
C1062 C1063 1.394 . S
C1062 C1068 1.465 . S
C1063 C1058 1.399 . S
C1063 C1062 1.394 . S
C1063 C1064 1.516 . S
C1064 C1063 1.516 . S
C1064 C1065 1.502 . S
C1064 C1066 1.561 1_565 S
C1064 C1067 1.526 . S
C1065 H1049 0.959 . S
C1065 H1050 0.959 1_565 S
C1065 H1051 0.961 1_565 S
C1065 C1064 1.502 . S
C1066 H1052 0.960 . S
C1066 H1053 0.961 . S
C1066 H1054 0.959 . S
C1066 C1064 1.561 1_545 S
C1067 C1064 1.526 . S
C1067 C1068 1.396 . S
C1067 C1072 1.390 . S
C1068 C1062 1.465 . S
C1068 C1067 1.396 . S
C1068 C1069 1.399 . S
C1069 H1055 0.929 . S
C1069 C1068 1.399 . S
C1069 C1070 1.385 . S
C1070 H1056 0.931 . S
C1070 C1069 1.385 . S
C1070 C1071 1.389 . S
C1071 C1070 1.389 . S
C1071 C1072 1.387 . S
C1072 H1057 0.930 1_565 S
C1072 C1067 1.390 . S
C1072 C1071 1.387 . S
H1073 C1085 0.930 . S
H1074 C1087 0.930 . S
H1075 C1088 0.930 . S
H1076 C1092 0.959 . S
H1077 C1092 0.959 . S
H1078 C1092 0.961 . S
H1079 C1093 0.960 . S
H1080 C1093 0.961 . S
H1081 C1093 0.959 . S
H1082 C1096 0.929 . S
H1083 C1097 0.931 . S
H1084 C1099 0.930 . S
C1085 H1073 0.930 . S
C1085 C1086 1.399 . S
C1085 C1090 1.399 . S
C1086 C1085 1.399 . S
C1086 C1087 1.376 . S
C1087 H1074 0.930 . S
C1087 C1086 1.376 . S
C1087 C1088 1.388 . S
C1088 H1075 0.930 . S
C1088 C1087 1.388 . S
C1088 C1089 1.390 . S
C1089 C1088 1.390 . S
C1089 C1090 1.394 . S
C1089 C1095 1.465 . S
C1090 C1085 1.399 . S
C1090 C1089 1.394 . S
C1090 C1091 1.516 . S
C1091 C1090 1.516 . S
C1091 C1092 1.502 . S
C1091 C1093 1.561 . S
C1091 C1094 1.526 . S
C1092 H1076 0.959 . S
C1092 H1077 0.959 . S
C1092 H1078 0.961 . S
C1092 C1091 1.502 . S
C1093 H1079 0.960 . S
C1093 H1080 0.961 . S
C1093 H1081 0.959 . S
C1093 C1091 1.561 . S
C1094 C1091 1.526 . S
C1094 C1095 1.396 . S
C1094 C1099 1.390 . S
C1095 C1089 1.465 . S
C1095 C1094 1.396 . S
C1095 C1096 1.399 . S
C1096 H1082 0.929 . S
C1096 C1095 1.399 . S
C1096 C1097 1.385 . S
C1097 H1083 0.931 . S
C1097 C1096 1.385 . S
C1097 C1098 1.389 . S
C1098 C1097 1.389 . S
C1098 C1099 1.387 . S
C1099 H1084 0.930 . S
C1099 C1094 1.390 . S
C1099 C1098 1.387 . S
H1100 C1112 0.930 . S
H1101 C1114 0.930 . S
H1102 C1115 0.930 . S
H1103 C1119 0.959 . S
H1104 C1119 0.959 . S
H1105 C1119 0.961 . S
H1106 C1120 0.960 . S
H1107 C1120 0.961 . S
H1108 C1120 0.959 . S
H1109 C1123 0.929 . S
H1110 C1124 0.931 . S
H1111 C1126 0.930 . S
C1112 H1100 0.930 . S
C1112 C1113 1.399 . S
C1112 C1117 1.399 . S
C1113 C1112 1.399 . S
C1113 C1114 1.376 . S
C1114 H1101 0.930 . S
C1114 C1113 1.376 . S
C1114 C1115 1.388 . S
C1115 H1102 0.930 . S
C1115 C1114 1.388 . S
C1115 C1116 1.390 . S
C1116 C1115 1.390 . S
C1116 C1117 1.394 . S
C1116 C1122 1.465 . S
C1117 C1112 1.399 . S
C1117 C1116 1.394 . S
C1117 C1118 1.516 . S
C1118 C1117 1.516 . S
C1118 C1119 1.502 . S
C1118 C1120 1.561 . S
C1118 C1121 1.526 . S
C1119 H1103 0.959 . S
C1119 H1104 0.959 . S
C1119 H1105 0.961 . S
C1119 C1118 1.502 . S
C1120 H1106 0.960 . S
C1120 H1107 0.961 . S
C1120 H1108 0.959 . S
C1120 C1118 1.561 . S
C1121 C1118 1.526 . S
C1121 C1122 1.396 . S
C1121 C1126 1.390 . S
C1122 C1116 1.465 . S
C1122 C1121 1.396 . S
C1122 C1123 1.399 . S
C1123 H1109 0.929 . S
C1123 C1122 1.399 . S
C1123 C1124 1.385 . S
C1124 H1110 0.931 . S
C1124 C1123 1.385 . S
C1124 C1125 1.389 . S
C1125 C1124 1.389 . S
C1125 C1126 1.387 . S
C1126 H1111 0.930 . S
C1126 C1121 1.390 . S
C1126 C1125 1.387 . S
H1127 C1139 0.930 . S
H1128 C1141 0.930 . S
H1129 C1142 0.930 . S
H1130 C1146 0.959 . S
H1131 C1146 0.959 . S
H1132 C1146 0.961 . S
H1133 C1147 0.960 . S
H1134 C1147 0.961 . S
H1135 C1147 0.959 . S
H1136 C1150 0.929 . S
H1137 C1151 0.931 . S
H1138 C1153 0.930 . S
C1139 H1127 0.930 . S
C1139 C1140 1.399 . S
C1139 C1144 1.399 . S
C1140 C1139 1.399 . S
C1140 C1141 1.376 . S
C1141 H1128 0.930 . S
C1141 C1140 1.376 . S
C1141 C1142 1.388 . S
C1142 H1129 0.930 . S
C1142 C1141 1.388 . S
C1142 C1143 1.390 . S
C1143 C1142 1.390 . S
C1143 C1144 1.394 . S
C1143 C1149 1.465 . S
C1144 C1139 1.399 . S
C1144 C1143 1.394 . S
C1144 C1145 1.516 . S
C1145 C1144 1.516 . S
C1145 C1146 1.502 . S
C1145 C1147 1.561 . S
C1145 C1148 1.526 . S
C1146 H1130 0.959 . S
C1146 H1131 0.959 . S
C1146 H1132 0.961 . S
C1146 C1145 1.502 . S
C1147 H1133 0.960 . S
C1147 H1134 0.961 . S
C1147 H1135 0.959 . S
C1147 C1145 1.561 . S
C1148 C1145 1.526 . S
C1148 C1149 1.396 . S
C1148 C1153 1.390 . S
C1149 C1143 1.465 . S
C1149 C1148 1.396 . S
C1149 C1150 1.399 . S
C1150 H1136 0.929 . S
C1150 C1149 1.399 . S
C1150 C1151 1.385 . S
C1151 H1137 0.931 . S
C1151 C1150 1.385 . S
C1151 C1152 1.389 . S
C1152 C1151 1.389 . S
C1152 C1153 1.387 . S
C1153 H1138 0.930 . S
C1153 C1148 1.390 . S
C1153 C1152 1.387 . S
H1154 C1166 0.930 . S
H1155 C1168 0.930 . S
H1156 C1169 0.930 . S
H1157 C1173 0.959 . S
H1158 C1173 0.959 . S
H1159 C1173 0.961 . S
H1160 C1174 0.960 . S
H1161 C1174 0.961 . S
H1162 C1174 0.959 . S
H1163 C1177 0.929 . S
H1164 C1178 0.931 . S
H1165 C1180 0.930 . S
C1166 H1154 0.930 . S
C1166 C1167 1.399 . S
C1166 C1171 1.399 . S
C1167 C1166 1.399 . S
C1167 C1168 1.376 . S
C1168 H1155 0.930 . S
C1168 C1167 1.376 . S
C1168 C1169 1.388 . S
C1169 H1156 0.930 . S
C1169 C1168 1.388 . S
C1169 C1170 1.390 . S
C1170 C1169 1.390 . S
C1170 C1171 1.394 . S
C1170 C1176 1.465 . S
C1171 C1166 1.399 . S
C1171 C1170 1.394 . S
C1171 C1172 1.516 . S
C1172 C1171 1.516 . S
C1172 C1173 1.502 . S
C1172 C1174 1.561 . S
C1172 C1175 1.526 . S
C1173 H1157 0.959 . S
C1173 H1158 0.959 . S
C1173 H1159 0.961 . S
C1173 C1172 1.502 . S
C1174 H1160 0.960 . S
C1174 H1161 0.961 . S
C1174 H1162 0.959 . S
C1174 C1172 1.561 . S
C1175 C1172 1.526 . S
C1175 C1176 1.396 . S
C1175 C1180 1.390 . S
C1176 C1170 1.465 . S
C1176 C1175 1.396 . S
C1176 C1177 1.399 . S
C1177 H1163 0.929 . S
C1177 C1176 1.399 . S
C1177 C1178 1.385 . S
C1178 H1164 0.931 . S
C1178 C1177 1.385 . S
C1178 C1179 1.389 . S
C1179 C1178 1.389 . S
C1179 C1180 1.387 . S
C1180 H1165 0.930 . S
C1180 C1175 1.390 . S
C1180 C1179 1.387 . S
H1181 C1193 0.930 . S
H1182 C1195 0.930 . S
H1183 C1196 0.930 . S
H1184 C1200 0.959 . S
H1185 C1200 0.959 . S
H1186 C1200 0.961 . S
H1187 C1201 0.960 . S
H1188 C1201 0.961 . S
H1189 C1201 0.959 . S
H1190 C1204 0.929 . S
H1191 C1205 0.931 . S
H1192 C1207 0.930 . S
C1193 H1181 0.930 . S
C1193 C1194 1.399 . S
C1193 C1198 1.399 . S
C1194 C1193 1.399 . S
C1194 C1195 1.376 . S
C1195 H1182 0.930 . S
C1195 C1194 1.376 . S
C1195 C1196 1.388 . S
C1196 H1183 0.930 . S
C1196 C1195 1.388 . S
C1196 C1197 1.390 . S
C1197 C1196 1.390 . S
C1197 C1198 1.394 . S
C1197 C1203 1.465 . S
C1198 C1193 1.399 . S
C1198 C1197 1.394 . S
C1198 C1199 1.516 . S
C1199 C1198 1.516 . S
C1199 C1200 1.502 . S
C1199 C1201 1.561 . S
C1199 C1202 1.526 . S
C1200 H1184 0.959 . S
C1200 H1185 0.959 . S
C1200 H1186 0.961 . S
C1200 C1199 1.502 . S
C1201 H1187 0.960 . S
C1201 H1188 0.961 . S
C1201 H1189 0.959 . S
C1201 C1199 1.561 . S
C1202 C1199 1.526 . S
C1202 C1203 1.396 . S
C1202 C1207 1.390 . S
C1203 C1197 1.465 . S
C1203 C1202 1.396 . S
C1203 C1204 1.399 . S
C1204 H1190 0.929 . S
C1204 C1203 1.399 . S
C1204 C1205 1.385 . S
C1205 H1191 0.931 . S
C1205 C1204 1.385 . S
C1205 C1206 1.389 . S
C1206 C1205 1.389 . S
C1206 C1207 1.387 . S
C1207 H1192 0.930 . S
C1207 C1202 1.390 . S
C1207 C1206 1.387 . S
H1208 C1220 0.930 . S
H1209 C1222 0.930 . S
H1210 C1223 0.930 . S
H1211 C1227 0.959 . S
H1212 C1227 0.959 . S
H1213 C1227 0.961 . S
H1214 C1228 0.960 . S
H1215 C1228 0.961 . S
H1216 C1228 0.959 . S
H1217 C1231 0.929 . S
H1218 C1232 0.931 . S
H1219 C1234 0.930 . S
C1220 H1208 0.930 . S
C1220 C1221 1.399 . S
C1220 C1225 1.399 . S
C1221 C1220 1.399 . S
C1221 C1222 1.376 . S
C1222 H1209 0.930 . S
C1222 C1221 1.376 . S
C1222 C1223 1.388 . S
C1223 H1210 0.930 . S
C1223 C1222 1.388 . S
C1223 C1224 1.390 . S
C1224 C1223 1.390 . S
C1224 C1225 1.394 . S
C1224 C1230 1.465 . S
C1225 C1220 1.399 . S
C1225 C1224 1.394 . S
C1225 C1226 1.516 . S
C1226 C1225 1.516 . S
C1226 C1227 1.502 . S
C1226 C1228 1.561 . S
C1226 C1229 1.526 . S
C1227 H1211 0.959 . S
C1227 H1212 0.959 . S
C1227 H1213 0.961 . S
C1227 C1226 1.502 . S
C1228 H1214 0.960 . S
C1228 H1215 0.961 . S
C1228 H1216 0.959 . S
C1228 C1226 1.561 . S
C1229 C1226 1.526 . S
C1229 C1230 1.396 . S
C1229 C1234 1.390 . S
C1230 C1224 1.465 . S
C1230 C1229 1.396 . S
C1230 C1231 1.399 . S
C1231 H1217 0.929 . S
C1231 C1230 1.399 . S
C1231 C1232 1.385 . S
C1232 H1218 0.931 . S
C1232 C1231 1.385 . S
C1232 C1233 1.389 . S
C1233 C1232 1.389 . S
C1233 C1234 1.387 . S
C1234 H1219 0.930 . S
C1234 C1229 1.390 . S
C1234 C1233 1.387 . S
H1235 C1247 0.930 . S
H1236 C1249 0.930 . S
H1237 C1250 0.930 . S
H1238 C1254 0.959 . S
H1239 C1254 0.959 . S
H1240 C1254 0.961 . S
H1241 C1255 0.960 . S
H1242 C1255 0.961 . S
H1243 C1255 0.959 . S
H1244 C1258 0.929 . S
H1245 C1259 0.931 . S
H1246 C1261 0.930 . S
C1247 H1235 0.930 . S
C1247 C1248 1.399 . S
C1247 C1252 1.399 . S
C1248 C1247 1.399 . S
C1248 C1249 1.376 . S
C1249 H1236 0.930 . S
C1249 C1248 1.376 . S
C1249 C1250 1.388 . S
C1250 H1237 0.930 . S
C1250 C1249 1.388 . S
C1250 C1251 1.390 . S
C1251 C1250 1.390 . S
C1251 C1252 1.394 . S
C1251 C1257 1.465 . S
C1252 C1247 1.399 . S
C1252 C1251 1.394 . S
C1252 C1253 1.516 . S
C1253 C1252 1.516 . S
C1253 C1254 1.502 . S
C1253 C1255 1.561 . S
C1253 C1256 1.526 . S
C1254 H1238 0.959 . S
C1254 H1239 0.959 . S
C1254 H1240 0.961 . S
C1254 C1253 1.502 . S
C1255 H1241 0.960 . S
C1255 H1242 0.961 . S
C1255 H1243 0.959 . S
C1255 C1253 1.561 . S
C1256 C1253 1.526 . S
C1256 C1257 1.396 . S
C1256 C1261 1.390 . S
C1257 C1251 1.465 . S
C1257 C1256 1.396 . S
C1257 C1258 1.399 . S
C1258 H1244 0.929 . S
C1258 C1257 1.399 . S
C1258 C1259 1.385 . S
C1259 H1245 0.931 . S
C1259 C1258 1.385 . S
C1259 C1260 1.389 . S
C1260 C1259 1.389 . S
C1260 C1261 1.387 . S
C1261 H1246 0.930 . S
C1261 C1256 1.390 . S
C1261 C1260 1.387 . S
H1262 C1274 0.930 . S
H1263 C1276 0.930 . S
H1264 C1277 0.930 . S
H1265 C1281 0.959 . S
H1266 C1281 0.959 . S
H1267 C1281 0.961 . S
H1268 C1282 0.960 . S
H1269 C1282 0.961 . S
H1270 C1282 0.959 . S
H1271 C1285 0.929 . S
H1272 C1286 0.931 . S
H1273 C1288 0.930 . S
C1274 H1262 0.930 . S
C1274 C1275 1.399 . S
C1274 C1279 1.399 . S
C1275 C1274 1.399 . S
C1275 C1276 1.376 . S
C1276 H1263 0.930 . S
C1276 C1275 1.376 . S
C1276 C1277 1.388 . S
C1277 H1264 0.930 . S
C1277 C1276 1.388 . S
C1277 C1278 1.390 . S
C1278 C1277 1.390 . S
C1278 C1279 1.394 . S
C1278 C1284 1.465 . S
C1279 C1274 1.399 . S
C1279 C1278 1.394 . S
C1279 C1280 1.516 . S
C1280 C1279 1.516 . S
C1280 C1281 1.502 . S
C1280 C1282 1.561 . S
C1280 C1283 1.526 . S
C1281 H1265 0.959 . S
C1281 H1266 0.959 . S
C1281 H1267 0.961 . S
C1281 C1280 1.502 . S
C1282 H1268 0.960 . S
C1282 H1269 0.961 . S
C1282 H1270 0.959 . S
C1282 C1280 1.561 . S
C1283 C1280 1.526 . S
C1283 C1284 1.396 . S
C1283 C1288 1.390 . S
C1284 C1278 1.465 . S
C1284 C1283 1.396 . S
C1284 C1285 1.399 . S
C1285 H1271 0.929 . S
C1285 C1284 1.399 . S
C1285 C1286 1.385 . S
C1286 H1272 0.931 . S
C1286 C1285 1.385 . S
C1286 C1287 1.389 . S
C1287 C1286 1.389 . S
C1287 C1288 1.387 . S
C1288 H1273 0.930 . S
C1288 C1283 1.390 . S
C1288 C1287 1.387 . S
H1289 C1301 0.930 . S
H1290 C1303 0.930 . S
H1291 C1304 0.930 . S
H1292 C1308 0.959 . S
H1293 C1308 0.959 . S
H1294 C1308 0.961 . S
H1295 C1309 0.960 . S
H1296 C1309 0.961 . S
H1297 C1309 0.959 . S
H1298 C1312 0.929 . S
H1299 C1313 0.931 . S
H1300 C1315 0.930 . S
C1301 H1289 0.930 . S
C1301 C1302 1.399 . S
C1301 C1306 1.399 . S
C1302 C1301 1.399 . S
C1302 C1303 1.376 . S
C1303 H1290 0.930 . S
C1303 C1302 1.376 . S
C1303 C1304 1.388 . S
C1304 H1291 0.930 . S
C1304 C1303 1.388 . S
C1304 C1305 1.390 . S
C1305 C1304 1.390 . S
C1305 C1306 1.394 . S
C1305 C1311 1.465 . S
C1306 C1301 1.399 . S
C1306 C1305 1.394 . S
C1306 C1307 1.516 . S
C1307 C1306 1.516 . S
C1307 C1308 1.502 . S
C1307 C1309 1.561 . S
C1307 C1310 1.526 . S
C1308 H1292 0.959 . S
C1308 H1293 0.959 . S
C1308 H1294 0.961 . S
C1308 C1307 1.502 . S
C1309 H1295 0.960 . S
C1309 H1296 0.961 . S
C1309 H1297 0.959 . S
C1309 C1307 1.561 . S
C1310 C1307 1.526 . S
C1310 C1311 1.396 . S
C1310 C1315 1.390 . S
C1311 C1305 1.465 . S
C1311 C1310 1.396 . S
C1311 C1312 1.399 . S
C1312 H1298 0.929 . S
C1312 C1311 1.399 . S
C1312 C1313 1.385 . S
C1313 H1299 0.931 . S
C1313 C1312 1.385 . S
C1313 C1314 1.389 . S
C1314 C1313 1.389 . S
C1314 C1315 1.387 . S
C1315 H1300 0.930 . S
C1315 C1310 1.390 . S
C1315 C1314 1.387 . S
H1316 C1328 0.930 . S
H1317 C1330 0.930 . S
H1318 C1331 0.930 . S
H1319 C1335 0.959 . S
H1320 C1335 0.959 . S
H1321 C1335 0.961 . S
H1322 C1336 0.960 . S
H1323 C1336 0.961 . S
H1324 C1336 0.959 . S
H1325 C1339 0.929 . S
H1326 C1340 0.931 . S
H1327 C1342 0.930 . S
C1328 H1316 0.930 . S
C1328 C1329 1.399 . S
C1328 C1333 1.399 . S
C1329 C1328 1.399 . S
C1329 C1330 1.376 . S
C1330 H1317 0.930 . S
C1330 C1329 1.376 . S
C1330 C1331 1.388 . S
C1331 H1318 0.930 . S
C1331 C1330 1.388 . S
C1331 C1332 1.390 . S
C1332 C1331 1.390 . S
C1332 C1333 1.394 . S
C1332 C1338 1.465 . S
C1333 C1328 1.399 . S
C1333 C1332 1.394 . S
C1333 C1334 1.516 . S
C1334 C1333 1.516 . S
C1334 C1335 1.502 . S
C1334 C1336 1.561 . S
C1334 C1337 1.526 . S
C1335 H1319 0.959 . S
C1335 H1320 0.959 . S
C1335 H1321 0.961 . S
C1335 C1334 1.502 . S
C1336 H1322 0.960 . S
C1336 H1323 0.961 . S
C1336 H1324 0.959 . S
C1336 C1334 1.561 . S
C1337 C1334 1.526 . S
C1337 C1338 1.396 . S
C1337 C1342 1.390 . S
C1338 C1332 1.465 . S
C1338 C1337 1.396 . S
C1338 C1339 1.399 . S
C1339 H1325 0.929 . S
C1339 C1338 1.399 . S
C1339 C1340 1.385 . S
C1340 H1326 0.931 . S
C1340 C1339 1.385 . S
C1340 C1341 1.389 . S
C1341 C1340 1.389 . S
C1341 C1342 1.387 . S
C1342 H1327 0.930 . S
C1342 C1337 1.390 . S
C1342 C1341 1.387 . S
H1343 C1355 0.930 . S
H1344 C1357 0.930 . S
H1345 C1358 0.930 . S
H1346 C1362 0.959 . S
H1347 C1362 0.959 . S
H1348 C1362 0.961 . S
H1349 C1363 0.960 . S
H1350 C1363 0.961 . S
H1351 C1363 0.959 . S
H1352 C1366 0.929 . S
H1353 C1367 0.931 . S
H1354 C1369 0.930 . S
C1355 H1343 0.930 . S
C1355 C1356 1.399 . S
C1355 C1360 1.399 . S
C1356 C1355 1.399 . S
C1356 C1357 1.376 . S
C1357 H1344 0.930 . S
C1357 C1356 1.376 . S
C1357 C1358 1.388 . S
C1358 H1345 0.930 . S
C1358 C1357 1.388 . S
C1358 C1359 1.390 . S
C1359 C1358 1.390 . S
C1359 C1360 1.394 . S
C1359 C1365 1.465 . S
C1360 C1355 1.399 . S
C1360 C1359 1.394 . S
C1360 C1361 1.516 . S
C1361 C1360 1.516 . S
C1361 C1362 1.502 . S
C1361 C1363 1.561 . S
C1361 C1364 1.526 . S
C1362 H1346 0.959 . S
C1362 H1347 0.959 . S
C1362 H1348 0.961 . S
C1362 C1361 1.502 . S
C1363 H1349 0.960 . S
C1363 H1350 0.961 . S
C1363 H1351 0.959 . S
C1363 C1361 1.561 . S
C1364 C1361 1.526 . S
C1364 C1365 1.396 . S
C1364 C1369 1.390 . S
C1365 C1359 1.465 . S
C1365 C1364 1.396 . S
C1365 C1366 1.399 . S
C1366 H1352 0.929 . S
C1366 C1365 1.399 . S
C1366 C1367 1.385 . S
C1367 H1353 0.931 . S
C1367 C1366 1.385 . S
C1367 C1368 1.389 . S
C1368 C1367 1.389 . S
C1368 C1369 1.387 . S
C1369 H1354 0.930 . S
C1369 C1364 1.390 . S
C1369 C1368 1.387 . S
H1370 C1382 0.930 . S
H1371 C1384 0.930 . S
H1372 C1385 0.930 . S
H1373 C1389 0.959 . S
H1374 C1389 0.959 . S
H1375 C1389 0.961 . S
H1376 C1390 0.960 . S
H1377 C1390 0.961 . S
H1378 C1390 0.959 . S
H1379 C1393 0.929 . S
H1380 C1394 0.931 . S
H1381 C1396 0.930 . S
C1382 H1370 0.930 . S
C1382 C1383 1.399 . S
C1382 C1387 1.399 . S
C1383 C1382 1.399 . S
C1383 C1384 1.376 . S
C1384 H1371 0.930 . S
C1384 C1383 1.376 . S
C1384 C1385 1.388 . S
C1385 H1372 0.930 . S
C1385 C1384 1.388 . S
C1385 C1386 1.390 . S
C1386 C1385 1.390 . S
C1386 C1387 1.394 . S
C1386 C1392 1.465 . S
C1387 C1382 1.399 . S
C1387 C1386 1.394 . S
C1387 C1388 1.516 . S
C1388 C1387 1.516 . S
C1388 C1389 1.502 . S
C1388 C1390 1.561 . S
C1388 C1391 1.526 . S
C1389 H1373 0.959 . S
C1389 H1374 0.959 . S
C1389 H1375 0.961 . S
C1389 C1388 1.502 . S
C1390 H1376 0.960 . S
C1390 H1377 0.961 . S
C1390 H1378 0.959 . S
C1390 C1388 1.561 . S
C1391 C1388 1.526 . S
C1391 C1392 1.396 . S
C1391 C1396 1.390 . S
C1392 C1386 1.465 . S
C1392 C1391 1.396 . S
C1392 C1393 1.399 . S
C1393 H1379 0.929 . S
C1393 C1392 1.399 . S
C1393 C1394 1.385 . S
C1394 H1380 0.931 . S
C1394 C1393 1.385 . S
C1394 C1395 1.389 . S
C1395 C1394 1.389 . S
C1395 C1396 1.387 . S
C1396 H1381 0.930 . S
C1396 C1391 1.390 . S
C1396 C1395 1.387 . S
H1397 C1409 0.930 . S
H1398 C1411 0.930 . S
H1399 C1412 0.930 . S
H1400 C1416 0.959 . S
H1401 C1416 0.959 . S
H1402 C1416 0.961 . S
H1403 C1417 0.960 . S
H1404 C1417 0.961 . S
H1405 C1417 0.959 . S
H1406 C1420 0.929 . S
H1407 C1421 0.931 . S
H1408 C1423 0.930 . S
C1409 H1397 0.930 . S
C1409 C1410 1.399 . S
C1409 C1414 1.399 . S
C1410 C1409 1.399 . S
C1410 C1411 1.376 . S
C1411 H1398 0.930 . S
C1411 C1410 1.376 . S
C1411 C1412 1.388 . S
C1412 H1399 0.930 . S
C1412 C1411 1.388 . S
C1412 C1413 1.390 . S
C1413 C1412 1.390 . S
C1413 C1414 1.394 . S
C1413 C1419 1.465 . S
C1414 C1409 1.399 . S
C1414 C1413 1.394 . S
C1414 C1415 1.516 . S
C1415 C1414 1.516 . S
C1415 C1416 1.502 . S
C1415 C1417 1.561 . S
C1415 C1418 1.526 . S
C1416 H1400 0.959 . S
C1416 H1401 0.959 . S
C1416 H1402 0.961 . S
C1416 C1415 1.502 . S
C1417 H1403 0.960 . S
C1417 H1404 0.961 . S
C1417 H1405 0.959 . S
C1417 C1415 1.561 . S
C1418 C1415 1.526 . S
C1418 C1419 1.396 . S
C1418 C1423 1.390 . S
C1419 C1413 1.465 . S
C1419 C1418 1.396 . S
C1419 C1420 1.399 . S
C1420 H1406 0.929 . S
C1420 C1419 1.399 . S
C1420 C1421 1.385 . S
C1421 H1407 0.931 . S
C1421 C1420 1.385 . S
C1421 C1422 1.389 . S
C1422 C1421 1.389 . S
C1422 C1423 1.387 . S
C1423 H1408 0.930 . S
C1423 C1418 1.390 . S
C1423 C1422 1.387 . S
H1424 C1436 0.930 . S
H1425 C1438 0.930 . S
H1426 C1439 0.930 . S
H1427 C1443 0.959 . S
H1428 C1443 0.959 . S
H1429 C1443 0.961 . S
H1430 C1444 0.960 . S
H1431 C1444 0.961 . S
H1432 C1444 0.959 . S
H1433 C1447 0.929 . S
H1434 C1448 0.931 . S
H1435 C1450 0.930 . S
C1436 H1424 0.930 . S
C1436 C1437 1.399 . S
C1436 C1441 1.399 . S
C1437 C1436 1.399 . S
C1437 C1438 1.376 . S
C1438 H1425 0.930 . S
C1438 C1437 1.376 . S
C1438 C1439 1.388 . S
C1439 H1426 0.930 . S
C1439 C1438 1.388 . S
C1439 C1440 1.390 . S
C1440 C1439 1.390 . S
C1440 C1441 1.394 . S
C1440 C1446 1.465 . S
C1441 C1436 1.399 . S
C1441 C1440 1.394 . S
C1441 C1442 1.516 . S
C1442 C1441 1.516 . S
C1442 C1443 1.502 . S
C1442 C1444 1.561 . S
C1442 C1445 1.526 . S
C1443 H1427 0.959 . S
C1443 H1428 0.959 . S
C1443 H1429 0.961 . S
C1443 C1442 1.502 . S
C1444 H1430 0.960 . S
C1444 H1431 0.961 . S
C1444 H1432 0.959 . S
C1444 C1442 1.561 . S
C1445 C1442 1.526 . S
C1445 C1446 1.396 . S
C1445 C1450 1.390 . S
C1446 C1440 1.465 . S
C1446 C1445 1.396 . S
C1446 C1447 1.399 . S
C1447 H1433 0.929 . S
C1447 C1446 1.399 . S
C1447 C1448 1.385 . S
C1448 H1434 0.931 . S
C1448 C1447 1.385 . S
C1448 C1449 1.389 . S
C1449 C1448 1.389 . S
C1449 C1450 1.387 . S
C1450 H1435 0.930 . S
C1450 C1445 1.390 . S
C1450 C1449 1.387 . S
H1451 C1463 0.930 . S
H1452 C1465 0.930 . S
H1453 C1466 0.930 . S
H1454 C1470 0.959 . S
H1455 C1470 0.959 . S
H1456 C1470 0.961 . S
H1457 C1471 0.960 . S
H1458 C1471 0.961 . S
H1459 C1471 0.959 . S
H1460 C1474 0.929 . S
H1461 C1475 0.931 . S
H1462 C1477 0.930 . S
C1463 H1451 0.930 . S
C1463 C1464 1.399 . S
C1463 C1468 1.399 . S
C1464 C1463 1.399 . S
C1464 C1465 1.376 . S
C1465 H1452 0.930 . S
C1465 C1464 1.376 . S
C1465 C1466 1.388 . S
C1466 H1453 0.930 . S
C1466 C1465 1.388 . S
C1466 C1467 1.390 . S
C1467 C1466 1.390 . S
C1467 C1468 1.394 . S
C1467 C1473 1.465 . S
C1468 C1463 1.399 . S
C1468 C1467 1.394 . S
C1468 C1469 1.516 . S
C1469 C1468 1.516 . S
C1469 C1470 1.502 . S
C1469 C1471 1.561 . S
C1469 C1472 1.526 . S
C1470 H1454 0.959 . S
C1470 H1455 0.959 . S
C1470 H1456 0.961 . S
C1470 C1469 1.502 . S
C1471 H1457 0.960 . S
C1471 H1458 0.961 . S
C1471 H1459 0.959 . S
C1471 C1469 1.561 . S
C1472 C1469 1.526 . S
C1472 C1473 1.396 . S
C1472 C1477 1.390 . S
C1473 C1467 1.465 . S
C1473 C1472 1.396 . S
C1473 C1474 1.399 . S
C1474 H1460 0.929 . S
C1474 C1473 1.399 . S
C1474 C1475 1.385 . S
C1475 H1461 0.931 . S
C1475 C1474 1.385 . S
C1475 C1476 1.389 . S
C1476 C1475 1.389 . S
C1476 C1477 1.387 . S
C1477 H1462 0.930 . S
C1477 C1472 1.390 . S
C1477 C1476 1.387 . S
H1478 C1490 0.930 . S
H1479 C1492 0.930 . S
H1480 C1493 0.930 . S
H1481 C1497 0.959 . S
H1482 C1497 0.959 . S
H1483 C1497 0.961 . S
H1484 C1498 0.960 . S
H1485 C1498 0.961 . S
H1486 C1498 0.959 . S
H1487 C1501 0.929 . S
H1488 C1502 0.931 . S
H1489 C1504 0.930 . S
C1490 H1478 0.930 . S
C1490 C1491 1.399 . S
C1490 C1495 1.399 . S
C1491 C1490 1.399 . S
C1491 C1492 1.376 . S
C1492 H1479 0.930 . S
C1492 C1491 1.376 . S
C1492 C1493 1.388 . S
C1493 H1480 0.930 . S
C1493 C1492 1.388 . S
C1493 C1494 1.390 . S
C1494 C1493 1.390 . S
C1494 C1495 1.394 . S
C1494 C1500 1.465 . S
C1495 C1490 1.399 . S
C1495 C1494 1.394 . S
C1495 C1496 1.516 . S
C1496 C1495 1.516 . S
C1496 C1497 1.502 . S
C1496 C1498 1.561 . S
C1496 C1499 1.526 . S
C1497 H1481 0.959 . S
C1497 H1482 0.959 . S
C1497 H1483 0.961 . S
C1497 C1496 1.502 . S
C1498 H1484 0.960 . S
C1498 H1485 0.961 . S
C1498 H1486 0.959 . S
C1498 C1496 1.561 . S
C1499 C1496 1.526 . S
C1499 C1500 1.396 . S
C1499 C1504 1.390 . S
C1500 C1494 1.465 . S
C1500 C1499 1.396 . S
C1500 C1501 1.399 . S
C1501 H1487 0.929 . S
C1501 C1500 1.399 . S
C1501 C1502 1.385 . S
C1502 H1488 0.931 . S
C1502 C1501 1.385 . S
C1502 C1503 1.389 . S
C1503 C1502 1.389 . S
C1503 C1504 1.387 . S
C1504 H1489 0.930 . S
C1504 C1499 1.390 . S
C1504 C1503 1.387 . S
H1505 C1517 0.930 . S
H1506 C1519 0.930 . S
H1507 C1520 0.930 . S
H1508 C1524 0.959 . S
H1509 C1524 0.959 . S
H1510 C1524 0.961 . S
H1511 C1525 0.960 . S
H1512 C1525 0.961 . S
H1513 C1525 0.959 . S
H1514 C1528 0.929 . S
H1515 C1529 0.931 . S
H1516 C1531 0.930 . S
C1517 H1505 0.930 . S
C1517 C1518 1.399 . S
C1517 C1522 1.399 . S
C1518 C1517 1.399 . S
C1518 C1519 1.376 . S
C1519 H1506 0.930 . S
C1519 C1518 1.376 . S
C1519 C1520 1.388 . S
C1520 H1507 0.930 . S
C1520 C1519 1.388 . S
C1520 C1521 1.390 . S
C1521 C1520 1.390 . S
C1521 C1522 1.394 . S
C1521 C1527 1.465 . S
C1522 C1517 1.399 . S
C1522 C1521 1.394 . S
C1522 C1523 1.516 . S
C1523 C1522 1.516 . S
C1523 C1524 1.502 . S
C1523 C1525 1.561 . S
C1523 C1526 1.526 . S
C1524 H1508 0.959 . S
C1524 H1509 0.959 . S
C1524 H1510 0.961 . S
C1524 C1523 1.502 . S
C1525 H1511 0.960 . S
C1525 H1512 0.961 . S
C1525 H1513 0.959 . S
C1525 C1523 1.561 . S
C1526 C1523 1.526 . S
C1526 C1527 1.396 . S
C1526 C1531 1.390 . S
C1527 C1521 1.465 . S
C1527 C1526 1.396 . S
C1527 C1528 1.399 . S
C1528 H1514 0.929 . S
C1528 C1527 1.399 . S
C1528 C1529 1.385 . S
C1529 H1515 0.931 . S
C1529 C1528 1.385 . S
C1529 C1530 1.389 . S
C1530 C1529 1.389 . S
C1530 C1531 1.387 . S
C1531 H1516 0.930 . S
C1531 C1526 1.390 . S
C1531 C1530 1.387 . S
H1532 C1544 0.930 . S
H1533 C1546 0.930 . S
H1534 C1547 0.930 . S
H1535 C1551 0.959 . S
H1536 C1551 0.959 . S
H1537 C1551 0.961 . S
H1538 C1552 0.960 . S
H1539 C1552 0.961 . S
H1540 C1552 0.959 . S
H1541 C1555 0.929 . S
H1542 C1556 0.931 . S
H1543 C1558 0.930 . S
C1544 H1532 0.930 . S
C1544 C1545 1.399 . S
C1544 C1549 1.399 . S
C1545 C1544 1.399 . S
C1545 C1546 1.376 . S
C1546 H1533 0.930 . S
C1546 C1545 1.376 . S
C1546 C1547 1.388 . S
C1547 H1534 0.930 . S
C1547 C1546 1.388 . S
C1547 C1548 1.390 . S
C1548 C1547 1.390 . S
C1548 C1549 1.394 . S
C1548 C1554 1.465 . S
C1549 C1544 1.399 . S
C1549 C1548 1.394 . S
C1549 C1550 1.516 . S
C1550 C1549 1.516 . S
C1550 C1551 1.502 . S
C1550 C1552 1.561 . S
C1550 C1553 1.526 . S
C1551 H1535 0.959 . S
C1551 H1536 0.959 . S
C1551 H1537 0.961 . S
C1551 C1550 1.502 . S
C1552 H1538 0.960 . S
C1552 H1539 0.961 . S
C1552 H1540 0.959 . S
C1552 C1550 1.561 . S
C1553 C1550 1.526 . S
C1553 C1554 1.396 . S
C1553 C1558 1.390 . S
C1554 C1548 1.465 . S
C1554 C1553 1.396 . S
C1554 C1555 1.399 . S
C1555 H1541 0.929 . S
C1555 C1554 1.399 . S
C1555 C1556 1.385 . S
C1556 H1542 0.931 . S
C1556 C1555 1.385 . S
C1556 C1557 1.389 . S
C1557 C1556 1.389 . S
C1557 C1558 1.387 . S
C1558 H1543 0.930 . S
C1558 C1553 1.390 . S
C1558 C1557 1.387 . S
H1559 C1571 0.930 . S
H1560 C1573 0.930 . S
H1561 C1574 0.930 . S
H1562 C1578 0.959 . S
H1563 C1578 0.959 . S
H1564 C1578 0.961 . S
H1565 C1579 0.960 . S
H1566 C1579 0.961 . S
H1567 C1579 0.959 . S
H1568 C1582 0.929 . S
H1569 C1583 0.931 . S
H1570 C1585 0.930 . S
C1571 H1559 0.930 . S
C1571 C1572 1.399 . S
C1571 C1576 1.399 . S
C1572 C1571 1.399 . S
C1572 C1573 1.376 . S
C1573 H1560 0.930 . S
C1573 C1572 1.376 . S
C1573 C1574 1.388 . S
C1574 H1561 0.930 . S
C1574 C1573 1.388 . S
C1574 C1575 1.390 . S
C1575 C1574 1.390 . S
C1575 C1576 1.394 . S
C1575 C1581 1.465 . S
C1576 C1571 1.399 . S
C1576 C1575 1.394 . S
C1576 C1577 1.516 . S
C1577 C1576 1.516 . S
C1577 C1578 1.502 . S
C1577 C1579 1.561 . S
C1577 C1580 1.526 . S
C1578 H1562 0.959 . S
C1578 H1563 0.959 . S
C1578 H1564 0.961 . S
C1578 C1577 1.502 . S
C1579 H1565 0.960 . S
C1579 H1566 0.961 . S
C1579 H1567 0.959 . S
C1579 C1577 1.561 . S
C1580 C1577 1.526 . S
C1580 C1581 1.396 . S
C1580 C1585 1.390 . S
C1581 C1575 1.465 . S
C1581 C1580 1.396 . S
C1581 C1582 1.399 . S
C1582 H1568 0.929 . S
C1582 C1581 1.399 . S
C1582 C1583 1.385 . S
C1583 H1569 0.931 . S
C1583 C1582 1.385 . S
C1583 C1584 1.389 . S
C1584 C1583 1.389 . S
C1584 C1585 1.387 . S
C1585 H1570 0.930 . S
C1585 C1580 1.390 . S
C1585 C1584 1.387 . S
H1586 C1598 0.930 . S
H1587 C1600 0.930 . S
H1588 C1601 0.930 . S
H1589 C1605 0.959 . S
H1590 C1605 0.959 . S
H1591 C1605 0.961 . S
H1592 C1606 0.960 . S
H1593 C1606 0.961 . S
H1594 C1606 0.959 . S
H1595 C1609 0.929 . S
H1596 C1610 0.931 . S
H1597 C1612 0.930 . S
C1598 H1586 0.930 . S
C1598 C1599 1.399 . S
C1598 C1603 1.399 . S
C1599 C1598 1.399 . S
C1599 C1600 1.376 . S
C1600 H1587 0.930 . S
C1600 C1599 1.376 . S
C1600 C1601 1.388 . S
C1601 H1588 0.930 . S
C1601 C1600 1.388 . S
C1601 C1602 1.390 . S
C1602 C1601 1.390 . S
C1602 C1603 1.394 . S
C1602 C1608 1.465 . S
C1603 C1598 1.399 . S
C1603 C1602 1.394 . S
C1603 C1604 1.516 . S
C1604 C1603 1.516 . S
C1604 C1605 1.502 . S
C1604 C1606 1.561 . S
C1604 C1607 1.526 . S
C1605 H1589 0.959 . S
C1605 H1590 0.959 . S
C1605 H1591 0.961 . S
C1605 C1604 1.502 . S
C1606 H1592 0.960 . S
C1606 H1593 0.961 . S
C1606 H1594 0.959 . S
C1606 C1604 1.561 . S
C1607 C1604 1.526 . S
C1607 C1608 1.396 . S
C1607 C1612 1.390 . S
C1608 C1602 1.465 . S
C1608 C1607 1.396 . S
C1608 C1609 1.399 . S
C1609 H1595 0.929 . S
C1609 C1608 1.399 . S
C1609 C1610 1.385 . S
C1610 H1596 0.931 . S
C1610 C1609 1.385 . S
C1610 C1611 1.389 . S
C1611 C1610 1.389 . S
C1611 C1612 1.387 . S
C1612 H1597 0.930 . S
C1612 C1607 1.390 . S
C1612 C1611 1.387 . S
H1613 C1625 0.930 . S
H1614 C1627 0.930 . S
H1615 C1628 0.930 . S
H1616 C1632 0.959 . S
H1617 C1632 0.959 . S
H1618 C1632 0.961 . S
H1619 C1633 0.960 . S
H1620 C1633 0.961 1_565 S
H1621 C1633 0.959 . S
H1622 C1636 0.929 . S
H1623 C1637 0.931 . S
H1624 C1639 0.930 . S
C1625 H1613 0.930 . S
C1625 C1626 1.399 . S
C1625 C1630 1.399 . S
C1626 C1625 1.399 . S
C1626 C1627 1.376 . S
C1627 H1614 0.930 . S
C1627 C1626 1.376 . S
C1627 C1628 1.388 . S
C1628 H1615 0.930 . S
C1628 C1627 1.388 . S
C1628 C1629 1.390 . S
C1629 C1628 1.390 . S
C1629 C1630 1.394 . S
C1629 C1635 1.465 . S
C1630 C1625 1.399 . S
C1630 C1629 1.394 . S
C1630 C1631 1.516 . S
C1631 C1630 1.516 . S
C1631 C1632 1.502 . S
C1631 C1633 1.561 . S
C1631 C1634 1.526 . S
C1632 H1616 0.959 . S
C1632 H1617 0.959 . S
C1632 H1618 0.961 . S
C1632 C1631 1.502 . S
C1633 H1619 0.960 . S
C1633 H1620 0.961 1_545 S
C1633 H1621 0.959 . S
C1633 C1631 1.561 . S
C1634 C1631 1.526 . S
C1634 C1635 1.396 . S
C1634 C1639 1.390 . S
C1635 C1629 1.465 . S
C1635 C1634 1.396 . S
C1635 C1636 1.399 . S
C1636 H1622 0.929 . S
C1636 C1635 1.399 . S
C1636 C1637 1.385 . S
C1637 H1623 0.931 . S
C1637 C1636 1.385 . S
C1637 C1638 1.389 . S
C1638 C1637 1.389 . S
C1638 C1639 1.387 . S
C1639 H1624 0.930 . S
C1639 C1634 1.390 . S
C1639 C1638 1.387 . S
H1640 C1652 0.930 . S
H1641 C1654 0.930 . S
H1642 C1655 0.930 . S
H1643 C1659 0.959 . S
H1644 C1659 0.959 . S
H1645 C1659 0.961 . S
H1646 C1660 0.960 . S
H1647 C1660 0.961 . S
H1648 C1660 0.959 . S
H1649 C1663 0.929 . S
H1650 C1664 0.931 1_455 S
H1651 C1666 0.930 . S
C1652 H1640 0.930 . S
C1652 C1653 1.399 . S
C1652 C1657 1.399 . S
C1653 C1652 1.399 . S
C1653 C1654 1.376 . S
C1654 H1641 0.930 . S
C1654 C1653 1.376 . S
C1654 C1655 1.388 . S
C1655 H1642 0.930 . S
C1655 C1654 1.388 . S
C1655 C1656 1.390 . S
C1656 C1655 1.390 . S
C1656 C1657 1.394 . S
C1656 C1662 1.465 . S
C1657 C1652 1.399 . S
C1657 C1656 1.394 . S
C1657 C1658 1.516 . S
C1658 C1657 1.516 . S
C1658 C1659 1.502 . S
C1658 C1660 1.561 . S
C1658 C1661 1.526 . S
C1659 H1643 0.959 . S
C1659 H1644 0.959 . S
C1659 H1645 0.961 . S
C1659 C1658 1.502 . S
C1660 H1646 0.960 . S
C1660 H1647 0.961 . S
C1660 H1648 0.959 . S
C1660 C1658 1.561 . S
C1661 C1658 1.526 . S
C1661 C1662 1.396 . S
C1661 C1666 1.390 . S
C1662 C1656 1.465 . S
C1662 C1661 1.396 . S
C1662 C1663 1.399 . S
C1663 H1649 0.929 . S
C1663 C1662 1.399 . S
C1663 C1664 1.385 . S
C1664 H1650 0.931 1_655 S
C1664 C1663 1.385 . S
C1664 C1665 1.389 . S
C1665 C1664 1.389 . S
C1665 C1666 1.387 . S
C1666 H1651 0.930 . S
C1666 C1661 1.390 . S
C1666 C1665 1.387 . S
H1667 C1679 0.930 . S
H1668 C1681 0.930 . S
H1669 C1682 0.930 . S
H1670 C1686 0.959 . S
H1671 C1686 0.959 . S
H1672 C1686 0.961 . S
H1673 C1687 0.960 . S
H1674 C1687 0.961 . S
H1675 C1687 0.959 . S
H1676 C1690 0.929 . S
H1677 C1691 0.931 . S
H1678 C1693 0.930 . S
C1679 H1667 0.930 . S
C1679 C1680 1.399 . S
C1679 C1684 1.399 . S
C1680 C1679 1.399 . S
C1680 C1681 1.376 . S
C1681 H1668 0.930 . S
C1681 C1680 1.376 . S
C1681 C1682 1.388 . S
C1682 H1669 0.930 . S
C1682 C1681 1.388 . S
C1682 C1683 1.390 . S
C1683 C1682 1.390 . S
C1683 C1684 1.394 . S
C1683 C1689 1.465 . S
C1684 C1679 1.399 . S
C1684 C1683 1.394 . S
C1684 C1685 1.516 . S
C1685 C1684 1.516 . S
C1685 C1686 1.502 . S
C1685 C1687 1.561 . S
C1685 C1688 1.526 . S
C1686 H1670 0.959 . S
C1686 H1671 0.959 . S
C1686 H1672 0.961 . S
C1686 C1685 1.502 . S
C1687 H1673 0.960 . S
C1687 H1674 0.961 . S
C1687 H1675 0.959 . S
C1687 C1685 1.561 . S
C1688 C1685 1.526 . S
C1688 C1689 1.396 . S
C1688 C1693 1.390 . S
C1689 C1683 1.465 . S
C1689 C1688 1.396 . S
C1689 C1690 1.399 . S
C1690 H1676 0.929 . S
C1690 C1689 1.399 . S
C1690 C1691 1.385 . S
C1691 H1677 0.931 . S
C1691 C1690 1.385 . S
C1691 C1692 1.389 . S
C1692 C1691 1.389 . S
C1692 C1693 1.387 . S
C1693 H1678 0.930 . S
C1693 C1688 1.390 . S
C1693 C1692 1.387 . S
H1694 C1706 0.930 . S
H1695 C1708 0.930 . S
H1696 C1709 0.930 . S
H1697 C1713 0.959 . S
H1698 C1713 0.959 . S
H1699 C1713 0.961 . S
H1700 C1714 0.960 . S
H1701 C1714 0.961 . S
H1702 C1714 0.959 . S
H1703 C1717 0.929 . S
H1704 C1718 0.931 . S
H1705 C1720 0.930 . S
C1706 H1694 0.930 . S
C1706 C1707 1.399 . S
C1706 C1711 1.399 . S
C1707 C1706 1.399 . S
C1707 C1708 1.376 . S
C1708 H1695 0.930 . S
C1708 C1707 1.376 . S
C1708 C1709 1.388 . S
C1709 H1696 0.930 . S
C1709 C1708 1.388 . S
C1709 C1710 1.390 . S
C1710 C1709 1.390 . S
C1710 C1711 1.394 . S
C1710 C1716 1.465 . S
C1711 C1706 1.399 . S
C1711 C1710 1.394 . S
C1711 C1712 1.516 . S
C1712 C1711 1.516 . S
C1712 C1713 1.502 . S
C1712 C1714 1.561 . S
C1712 C1715 1.526 . S
C1713 H1697 0.959 . S
C1713 H1698 0.959 . S
C1713 H1699 0.961 . S
C1713 C1712 1.502 . S
C1714 H1700 0.960 . S
C1714 H1701 0.961 . S
C1714 H1702 0.959 . S
C1714 C1712 1.561 . S
C1715 C1712 1.526 . S
C1715 C1716 1.396 . S
C1715 C1720 1.390 . S
C1716 C1710 1.465 . S
C1716 C1715 1.396 . S
C1716 C1717 1.399 . S
C1717 H1703 0.929 . S
C1717 C1716 1.399 . S
C1717 C1718 1.385 . S
C1718 H1704 0.931 . S
C1718 C1717 1.385 . S
C1718 C1719 1.389 . S
C1719 C1718 1.389 . S
C1719 C1720 1.387 . S
C1720 H1705 0.930 . S
C1720 C1715 1.390 . S
C1720 C1719 1.387 . S
H1721 C1733 0.930 . S
H1722 C1735 0.930 . S
H1723 C1736 0.930 . S
H1724 C1740 0.959 . S
H1725 C1740 0.959 . S
H1726 C1740 0.961 . S
H1727 C1741 0.960 . S
H1728 C1741 0.961 . S
H1729 C1741 0.959 . S
H1730 C1744 0.929 . S
H1731 C1745 0.931 . S
H1732 C1747 0.930 . S
C1733 H1721 0.930 . S
C1733 C1734 1.399 . S
C1733 C1738 1.399 . S
C1734 C1733 1.399 . S
C1734 C1735 1.376 . S
C1735 H1722 0.930 . S
C1735 C1734 1.376 . S
C1735 C1736 1.388 . S
C1736 H1723 0.930 . S
C1736 C1735 1.388 . S
C1736 C1737 1.390 . S
C1737 C1736 1.390 . S
C1737 C1738 1.394 . S
C1737 C1743 1.465 . S
C1738 C1733 1.399 . S
C1738 C1737 1.394 . S
C1738 C1739 1.516 . S
C1739 C1738 1.516 . S
C1739 C1740 1.502 . S
C1739 C1741 1.561 . S
C1739 C1742 1.526 . S
C1740 H1724 0.959 . S
C1740 H1725 0.959 . S
C1740 H1726 0.961 . S
C1740 C1739 1.502 . S
C1741 H1727 0.960 . S
C1741 H1728 0.961 . S
C1741 H1729 0.959 . S
C1741 C1739 1.561 . S
C1742 C1739 1.526 . S
C1742 C1743 1.396 . S
C1742 C1747 1.390 . S
C1743 C1737 1.465 . S
C1743 C1742 1.396 . S
C1743 C1744 1.399 . S
C1744 H1730 0.929 . S
C1744 C1743 1.399 . S
C1744 C1745 1.385 . S
C1745 H1731 0.931 . S
C1745 C1744 1.385 . S
C1745 C1746 1.389 . S
C1746 C1745 1.389 . S
C1746 C1747 1.387 . S
C1747 H1732 0.930 . S
C1747 C1742 1.390 . S
C1747 C1746 1.387 . S
H1748 C1760 0.930 . S
H1749 C1762 0.930 . S
H1750 C1763 0.930 . S
H1751 C1767 0.959 . S
H1752 C1767 0.959 . S
H1753 C1767 0.961 . S
H1754 C1768 0.960 . S
H1755 C1768 0.961 . S
H1756 C1768 0.959 . S
H1757 C1771 0.929 . S
H1758 C1772 0.931 . S
H1759 C1774 0.930 . S
C1760 H1748 0.930 . S
C1760 C1761 1.399 . S
C1760 C1765 1.399 . S
C1761 C1760 1.399 . S
C1761 C1762 1.376 . S
C1762 H1749 0.930 . S
C1762 C1761 1.376 . S
C1762 C1763 1.388 . S
C1763 H1750 0.930 . S
C1763 C1762 1.388 . S
C1763 C1764 1.390 . S
C1764 C1763 1.390 . S
C1764 C1765 1.394 . S
C1764 C1770 1.465 . S
C1765 C1760 1.399 . S
C1765 C1764 1.394 . S
C1765 C1766 1.516 . S
C1766 C1765 1.516 . S
C1766 C1767 1.502 . S
C1766 C1768 1.561 . S
C1766 C1769 1.526 . S
C1767 H1751 0.959 . S
C1767 H1752 0.959 . S
C1767 H1753 0.961 . S
C1767 C1766 1.502 . S
C1768 H1754 0.960 . S
C1768 H1755 0.961 . S
C1768 H1756 0.959 . S
C1768 C1766 1.561 . S
C1769 C1766 1.526 . S
C1769 C1770 1.396 . S
C1769 C1774 1.390 . S
C1770 C1764 1.465 . S
C1770 C1769 1.396 . S
C1770 C1771 1.399 . S
C1771 H1757 0.929 . S
C1771 C1770 1.399 . S
C1771 C1772 1.385 . S
C1772 H1758 0.931 . S
C1772 C1771 1.385 . S
C1772 C1773 1.389 . S
C1773 C1772 1.389 . S
C1773 C1774 1.387 . S
C1774 H1759 0.930 . S
C1774 C1769 1.390 . S
C1774 C1773 1.387 . S
H1775 C1787 0.930 . S
H1776 C1789 0.930 . S
H1777 C1790 0.930 . S
H1778 C1794 0.959 . S
H1779 C1794 0.959 . S
H1780 C1794 0.961 . S
H1781 C1795 0.960 . S
H1782 C1795 0.961 . S
H1783 C1795 0.959 . S
H1784 C1798 0.929 . S
H1785 C1799 0.931 . S
H1786 C1801 0.930 . S
C1787 H1775 0.930 . S
C1787 C1788 1.399 . S
C1787 C1792 1.399 . S
C1788 C1787 1.399 . S
C1788 C1789 1.376 . S
C1789 H1776 0.930 . S
C1789 C1788 1.376 . S
C1789 C1790 1.388 . S
C1790 H1777 0.930 . S
C1790 C1789 1.388 . S
C1790 C1791 1.390 . S
C1791 C1790 1.390 . S
C1791 C1792 1.394 . S
C1791 C1797 1.465 . S
C1792 C1787 1.399 . S
C1792 C1791 1.394 . S
C1792 C1793 1.516 . S
C1793 C1792 1.516 . S
C1793 C1794 1.502 . S
C1793 C1795 1.561 . S
C1793 C1796 1.526 . S
C1794 H1778 0.959 . S
C1794 H1779 0.959 . S
C1794 H1780 0.961 . S
C1794 C1793 1.502 . S
C1795 H1781 0.960 . S
C1795 H1782 0.961 . S
C1795 H1783 0.959 . S
C1795 C1793 1.561 . S
C1796 C1793 1.526 . S
C1796 C1797 1.396 . S
C1796 C1801 1.390 . S
C1797 C1791 1.465 . S
C1797 C1796 1.396 . S
C1797 C1798 1.399 . S
C1798 H1784 0.929 . S
C1798 C1797 1.399 . S
C1798 C1799 1.385 . S
C1799 H1785 0.931 . S
C1799 C1798 1.385 . S
C1799 C1800 1.389 . S
C1800 C1799 1.389 . S
C1800 C1801 1.387 . S
C1801 H1786 0.930 . S
C1801 C1796 1.390 . S
C1801 C1800 1.387 . S
C531 C331 2.603 . S
C519 C18 2.683 . S
C558 C321 2.368 . S
C546 C59 2.417 . S
C585 C322 0.920 . S
C573 C98 0.989 . S
C600 C125 0.848 . S
C612 C344 0.926 . S
C627 C169 2.360 . S
C639 C347 2.357 . S
C666 C330 0.921 . S
C654 C218 0.991 . S
C681 C255 1.081 . S
C693 C320 1.075 . S
C708 C288 2.684 . S
C720 C338 2.597 . S
C747 C351 0.999 . S
C735 C15 0.990 . S
C762 C45 0.632 . S
C774 C400 1.075 . S
C801 C378 0.543 . S
C789 C95 0.308 . S
C828 C392 0.603 . S
C816 C128 0.640 . S
C843 C178 0.674 . S
C855 C353 0.610 . S
C882 C406 1.592 1_556 S
C870 C215 1.592 . S
C897 C249 2.350 . S
C909 C362 2.218 . S
C924 C299 2.198 . S
C936 C383 2.185 . S
C951 C9 2.656 . S
C963 C409 2.609 . S
C978 C175 0.426 . S
C990 C393 0.633 1_556 S
C1017 C352 1.605 . S
C1005 C209 1.664 . S
C1044 C384 1.246 . S
C1032 C258 1.356 . S
C1059 C285 1.240 . S
C1071 C375 1.265 . S
C1086 C89 3.105 . S
C1098 C382 3.109 . S
C1125 C369 2.728 . S
C1113 C139 2.761 . S
C1140 C48 1.357 . S
C1152 C361 1.314 . S
C1167 C298 2.669 . S
C1179 C424 2.616 . S
C1194 C179 2.395 . S
C1206 C414 2.334 . S
C1233 C415 1.035 . S
C1221 C208 0.990 . S
C1260 C437 1.013 . S
C1248 C245 1.088 . S
C1275 C49 2.415 . S
C1287 C440 2.357 . S
C1314 C423 0.977 . S
C1302 C88 0.976 . S
C1329 C135 0.858 . S
C1341 C413 0.924 . S
C1356 C8 2.675 . S
C1368 C431 2.591 . S
C1383 C295 1.290 . S
C1395 C444 1.227 . S
C1422 C493 0.755 . S
C1410 C165 0.342 . S
C1437 C219 1.657 . S
C1449 C471 1.579 . S
C1464 C248 1.365 . S
C1476 C485 1.266 . S
C1503 C446 1.373 . S
C1491 C58 1.356 . S
C1518 C99 3.139 . S
C1530 C499 3.120 . S
C1557 C455 2.742 . S
C1545 C129 2.738 . S
C1584 C476 2.559 . S
C1572 C19 2.643 . S
C1611 C502 2.196 . S
C1599 C289 2.199 . S
C1626 C55 0.746 . S
C1638 C486 0.959 . S
C1653 C85 0.244 . S
C1665 C445 0.399 . S
C1692 C477 0.769 . S
C1680 C138 0.675 . S
C1707 C5 0.982 . S
C1719 C468 0.960 . S
C1734 C205 1.576 . S
C1746 C475 1.573 . S
C1773 C462 2.236 . S
C1761 C259 2.326 . S
C1800 C454 0.775 . S
C1788 C168 0.629 . S
