# Generated by pormake.
# Topology ctn, (3,4)-cn, num edge types: 1
# Building blocks:
#     Node 0, Type 0, BuildingBlock: WUSLED_clean_sbu_0, # of connection points: 3
#     Node 1, Type 0, BuildingBlock: WUSLED_clean_sbu_0, # of connection points: 3
#     Node 2, Type 0, BuildingBlock: WUSLED_clean_sbu_0, # of connection points: 3
#     Node 3, Type 0, BuildingBlock: WUSLED_clean_sbu_0, # of connection points: 3
#     Node 4, Type 0, BuildingBlock: WUSLED_clean_sbu_0, # of connection points: 3
#     Node 5, Type 0, BuildingBlock: WUSLED_clean_sbu_0, # of connection points: 3
#     Node 6, Type 0, BuildingBlock: WUSLED_clean_sbu_0, # of connection points: 3
#     Node 7, Type 0, BuildingBlock: WUSLED_clean_sbu_0, # of connection points: 3
#     Node 8, Type 0, BuildingBlock: WUSLED_clean_sbu_0, # of connection points: 3
#     Node 9, Type 0, BuildingBlock: WUSLED_clean_sbu_0, # of connection points: 3
#     Node 10, Type 0, BuildingBlock: WUSLED_clean_sbu_0, # of connection points: 3
#     Node 11, Type 0, BuildingBlock: WUSLED_clean_sbu_0, # of connection points: 3
#     Node 12, Type 0, BuildingBlock: WUSLED_clean_sbu_0, # of connection points: 3
#     Node 13, Type 0, BuildingBlock: WUSLED_clean_sbu_0, # of connection points: 3
#     Node 14, Type 0, BuildingBlock: WUSLED_clean_sbu_0, # of connection points: 3
#     Node 15, Type 0, BuildingBlock: WUSLED_clean_sbu_0, # of connection points: 3
#     Node 16, Type 1, BuildingBlock: QUQFOY_clean_sbu_1, # of connection points: 4
#     Node 17, Type 1, BuildingBlock: QUQFOY_clean_sbu_1, # of connection points: 4
#     Node 18, Type 1, BuildingBlock: QUQFOY_clean_sbu_1, # of connection points: 4
#     Node 19, Type 1, BuildingBlock: QUQFOY_clean_sbu_1, # of connection points: 4
#     Node 20, Type 1, BuildingBlock: QUQFOY_clean_sbu_1, # of connection points: 4
#     Node 21, Type 1, BuildingBlock: QUQFOY_clean_sbu_1, # of connection points: 4
#     Node 22, Type 1, BuildingBlock: QUQFOY_clean_sbu_1, # of connection points: 4
#     Node 23, Type 1, BuildingBlock: QUQFOY_clean_sbu_1, # of connection points: 4
#     Node 24, Type 1, BuildingBlock: QUQFOY_clean_sbu_1, # of connection points: 4
#     Node 25, Type 1, BuildingBlock: QUQFOY_clean_sbu_1, # of connection points: 4
#     Node 26, Type 1, BuildingBlock: QUQFOY_clean_sbu_1, # of connection points: 4
#     Node 27, Type 1, BuildingBlock: QUQFOY_clean_sbu_1, # of connection points: 4
#     Edge 28, Type (0, 1), None
#     Edge 29, Type (0, 1), None
#     Edge 30, Type (0, 1), None
#     Edge 31, Type (0, 1), None
#     Edge 32, Type (0, 1), None
#     Edge 33, Type (0, 1), None
#     Edge 34, Type (0, 1), None
#     Edge 35, Type (0, 1), None
#     Edge 36, Type (0, 1), None
#     Edge 37, Type (0, 1), None
#     Edge 38, Type (0, 1), None
#     Edge 39, Type (0, 1), None
#     Edge 40, Type (0, 1), None
#     Edge 41, Type (0, 1), None
#     Edge 42, Type (0, 1), None
#     Edge 43, Type (0, 1), None
#     Edge 44, Type (0, 1), None
#     Edge 45, Type (0, 1), None
#     Edge 46, Type (0, 1), None
#     Edge 47, Type (0, 1), None
#     Edge 48, Type (0, 1), None
#     Edge 49, Type (0, 1), None
#     Edge 50, Type (0, 1), None
#     Edge 51, Type (0, 1), None
#     Edge 52, Type (0, 1), None
#     Edge 53, Type (0, 1), None
#     Edge 54, Type (0, 1), None
#     Edge 55, Type (0, 1), None
#     Edge 56, Type (0, 1), None
#     Edge 57, Type (0, 1), None
#     Edge 58, Type (0, 1), None
#     Edge 59, Type (0, 1), None
#     Edge 60, Type (0, 1), None
#     Edge 61, Type (0, 1), None
#     Edge 62, Type (0, 1), None
#     Edge 63, Type (0, 1), None
#     Edge 64, Type (0, 1), None
#     Edge 65, Type (0, 1), None
#     Edge 66, Type (0, 1), None
#     Edge 67, Type (0, 1), None
#     Edge 68, Type (0, 1), None
#     Edge 69, Type (0, 1), None
#     Edge 70, Type (0, 1), None
#     Edge 71, Type (0, 1), None
#     Edge 72, Type (0, 1), None
#     Edge 73, Type (0, 1), None
#     Edge 74, Type (0, 1), None
#     Edge 75, Type (0, 1), None
# Relax obj value: 0.037
# Max RMSD: 0.143
# Mean RMSD: 0.066
data_MOF--net-ctn--node1-WUSLED_clean_sbu_0--node2-QUQFOY_clean_sbu_1--edge1-none
_symmetry_space_group_name_H-M    P1
_symmetry_Int_Tables_number       1
_symmetry_cell_setting            triclinic
loop_
_symmetry_equiv_pos_as_xyz
'x, y, z'
_cell_length_a     40.20271
_cell_length_b     40.275859
_cell_length_c     40.402764
_cell_angle_alpha  92.921955
_cell_angle_beta   90.206502
_cell_angle_gamma 93.865922
loop_
_atom_site_label
_atom_site_type_symbol
_atom_site_fract_x
_atom_site_fract_y
_atom_site_fract_z
_atom_type_partial_charge
C0 C 1.00067 0.11236 0.15695 0.0
C1 C 1.01389 0.08415 0.16943 0.0
C2 C 0.97358 0.08419 0.21431 0.0
C3 C 1.00048 0.07019 0.19781 0.0
C4 C 0.96095 0.11301 0.2022 0.0
C5 C 0.97438 0.12694 0.17366 0.0
U6 U 0.06041 0.10737 0.08514 0.0
O7 O 0.05266 0.11129 0.03166 0.0
O8 O 0.08835 0.14663 0.05845 0.0
C9 C 0.07234 0.13863 0.03043 0.0
C10 C 1.01345 0.12563 0.12586 0.0
C11 C 0.05826 0.16638 1.01385 0.0
C12 C 1.01201 0.20029 1.0029 0.0
C13 C 0.0253 0.17452 0.01957 0.0
C14 C 0.06465 0.21061 0.97502 0.0
C15 C 0.0315 0.21861 0.98036 0.0
C16 C 0.07785 0.18467 0.99157 0.0
C17 C 0.12086 0.03691 0.08618 0.0
C18 C 0.15789 0.02249 0.04111 0.0
C19 C 0.15841 0.99259 0.09163 0.0
C20 C 0.13369 1.01217 0.10477 0.0
C21 C 0.1707 0.99742 0.05958 0.0
C22 C 0.13317 0.04208 0.0543 0.0
C23 C 0.0942 0.05644 0.10025 0.0
O24 O 0.04417 0.13909 0.12726 0.0
O25 O 1.00762 0.10569 0.09941 0.0
O26 O 0.0657 0.05335 0.08398 0.0
O27 O 0.10297 0.08739 0.11018 0.0
H28 H 0.03422 0.07257 0.15683 0.0
H29 H 1.01086 0.04804 0.20646 0.0
H30 H 0.94023 0.12435 0.21428 0.0
H31 H 0.96388 0.14874 0.16433 0.0
H32 H 0.98646 0.2059 1.00777 0.0
H33 H 1.00978 0.16083 0.03681 0.0
H34 H 0.08036 0.22425 0.95791 0.0
H35 H 0.10336 0.17879 0.98685 0.0
H36 H 0.16684 0.02693 1.01637 0.0
H37 H 0.16773 0.97357 0.10652 0.0
H38 H 0.1244 1.00784 0.12943 0.0
H39 H 0.12353 0.06109 0.0396 0.0
C40 C 0.28073 0.79741 0.17411 0.0
C41 C 0.30616 0.79783 0.15032 0.0
C42 C 0.27939 0.8402 0.12078 0.0
C43 C 0.30542 0.81889 0.12392 0.0
C44 C 0.2544 0.84041 0.14502 0.0
C45 C 0.25499 0.81907 0.17132 0.0
U46 U 0.31824 0.7601 0.25045 0.0
O47 O 0.29384 0.74249 0.29558 0.0
O48 O 0.32027 0.70787 0.26307 0.0
C49 C 0.30133 0.71155 0.28925 0.0
C50 C 0.27978 0.77363 0.20094 0.0
C51 C 0.27394 0.68595 0.29197 0.0
C52 C 0.22023 0.65984 0.2741 0.0
C53 C 0.24562 0.6851 0.2715 0.0
C54 C 0.25146 0.63621 0.31756 0.0
C55 C 0.22293 0.63504 0.29713 0.0
C56 C 0.27669 0.66145 0.31497 0.0
C57 C 0.40094 0.79315 0.28783 0.0
C58 C 0.41935 0.77393 0.34056 0.0
C59 C 0.4549 0.813 0.31072 0.0
C60 C 0.43097 0.81251 0.28549 0.0
C61 C 0.44915 0.79417 0.33886 0.0
C62 C 0.39545 0.77341 0.31521 0.0
C63 C 0.37506 0.79453 0.26225 0.0
O64 O 0.30125 0.75037 0.19894 0.0
O65 O 0.27647 0.78648 0.23123 0.0
O66 O 0.34632 0.80413 0.27324 0.0
O67 O 0.37197 0.76868 0.24101 0.0
H68 H 0.32644 0.78156 0.15173 0.0
H69 H 0.32516 0.81822 0.10577 0.0
H70 H 0.23399 0.85647 0.14327 0.0
H71 H 0.23502 0.81914 0.18925 0.0
H72 H 0.19861 0.65967 0.258 0.0
H73 H 0.24326 0.70385 0.25348 0.0
H74 H 0.25439 0.61759 0.33557 0.0
H75 H 0.2985 0.66174 0.33086 0.0
H76 H 0.4141 0.75913 0.3618 0.0
H77 H 0.47757 0.82882 0.30849 0.0
H78 H 0.43565 0.82777 0.26446 0.0
H79 H 0.37237 0.75815 0.31729 0.0
C80 C 0.97297 0.44925 1.01599 0.0
C81 C 0.95612 0.41807 0.02047 0.0
C82 C 0.99335 0.39113 0.98168 0.0
C83 C 0.9663 0.38929 1.00362 0.0
C84 C 1.01053 0.42224 0.97769 0.0
C85 C 1.00044 0.45093 0.99455 0.0
U86 U 0.97818 0.51825 0.08493 0.0
O87 O 0.97474 0.5723 0.08255 0.0
O88 O 0.93838 0.54325 0.11167 0.0
C89 C 0.94663 0.57212 0.0991 0.0
C90 C 0.96096 0.47996 0.03239 0.0
C91 C 0.91929 0.58791 0.08293 0.0
C92 C 0.88547 0.59518 0.03417 0.0
C93 C 0.91146 0.58018 0.04943 0.0
C94 C 0.87447 0.62559 0.08582 0.0
C95 C 0.86659 0.61799 0.0522 0.0
C96 C 0.90066 0.6107 0.10102 0.0
C97 C 0.04614 0.51511 0.15148 0.0
C98 C 0.05979 0.55991 0.19272 0.0
C99 C 0.08645 0.50784 0.19502 0.0
C100 C 0.06849 0.49541 0.16683 0.0
C101 C 0.08234 0.54026 0.20823 0.0
C102 C 0.04179 0.5474 0.1646 0.0
C103 C 0.02792 0.50172 0.12166 0.0
O104 O 0.94665 0.47672 0.06138 0.0
O105 O 0.98099 0.50708 0.03131 0.0
O106 O 0.03194 0.51942 0.09535 0.0
O107 O 0.99678 0.49086 0.12622 0.0
H108 H 0.93469 0.41597 0.03658 0.0
H109 H 0.95237 0.36577 1.00712 0.0
H110 H 0.03144 0.42465 0.96094 0.0
H111 H 1.01391 0.47451 0.99027 0.0
H112 H 0.87999 0.5886 1.00831 0.0
H113 H 0.92543 0.56247 0.03507 0.0
H114 H 0.86038 0.64299 0.10041 0.0
H115 H 0.9063 0.6169 0.12693 0.0
H116 H 0.05595 0.58495 0.20233 0.0
H117 H 0.10354 0.49208 0.2064 0.0
H118 H 0.07211 0.4704 0.15696 0.0
H119 H 0.02456 0.56292 0.15303 0.0
C120 C 0.72477 0.76373 0.19831 0.0
C121 C 0.75719 0.75482 0.19053 0.0
C122 C 0.73751 0.7303 0.13711 0.0
C123 C 0.76346 0.73799 0.16021 0.0
C124 C 0.7051 0.7388 0.14528 0.0
C125 C 0.6988 0.75517 0.17561 0.0
U126 U 0.74277 0.83852 0.25891 0.0
O127 O 0.70869 0.8737 0.28089 0.0
O128 O 0.73748 0.84381 0.31317 0.0
C129 C 0.71373 0.86459 0.31116 0.0
C130 C 0.71741 0.78332 0.22891 0.0
C131 C 0.68311 0.8577 0.33033 0.0
C132 C 0.64386 0.82038 0.35873 0.0
C133 C 0.67412 0.82608 0.3421 0.0
C134 C 0.63155 0.87774 0.35209 0.0
C135 C 0.62207 0.84608 0.36338 0.0
C136 C 0.6618 0.8835 0.33593 0.0
C137 C 0.81336 0.90242 0.24448 0.0
C138 C 0.81652 0.95485 0.27711 0.0
C139 C 0.86245 0.94062 0.24156 0.0
C140 C 0.84495 0.91057 0.23154 0.0
C141 C 0.84851 0.963 0.26466 0.0
C142 C 0.79917 0.92478 0.2672 0.0
C143 C 0.79535 0.87054 0.23464 0.0
O144 O 0.7392 0.78373 0.25335 0.0
O145 O 0.70641 0.81271 0.22414 0.0
O146 O 0.76493 0.87301 0.22347 0.0
O147 O 0.79734 0.84697 0.25578 0.0
H148 H 0.77775 0.76133 0.20755 0.0
H149 H 0.78868 0.73179 0.15453 0.0
H150 H 0.68452 0.73302 0.12811 0.0
H151 H 0.67364 0.76178 0.1811 0.0
H152 H 0.63712 0.79571 0.36709 0.0
H153 H 0.6901 0.80569 0.33801 0.0
H154 H 0.61544 0.89813 0.35546 0.0
H155 H 0.66829 0.90809 0.32719 0.0
H156 H 0.80508 0.97139 0.29501 0.0
H157 H 0.88703 0.9461 0.23152 0.0
H158 H 0.85621 0.89355 0.21395 0.0
H159 H 0.77477 0.9188 0.27749 0.0
C160 C 0.98863 1.00017 0.44294 0.0
C161 C 0.95525 1.0081 0.44465 0.0
C162 C 0.95747 0.02621 0.38801 0.0
C163 C 0.93984 0.02111 0.41756 0.0
C164 C 0.9912 1.01897 0.38662 0.0
C165 C 1.0067 1.00624 0.41388 0.0
U166 U 0.06032 0.99765 0.50436 0.0
O167 O 0.05982 0.99296 0.55836 0.0
O168 O 0.08328 0.95575 0.52633 0.0
C169 C 0.0736 0.96424 0.55644 0.0
C170 C 1.00399 0.98578 0.47172 0.0
C171 C 0.05639 0.93729 0.57434 0.0
C172 C 1.00654 0.90222 0.5854 0.0
C173 C 0.02245 0.92833 0.56867 0.0
C174 C 0.05834 0.89367 0.61359 0.0
C175 C 0.02434 0.88449 0.60795 0.0
C176 C 0.0742 0.91988 0.59693 0.0
C177 C 0.13543 0.06122 0.49575 0.0
C178 C 0.16853 0.09763 0.53488 0.0
C179 C 0.19183 0.08135 0.48176 0.0
C180 C 0.16224 0.06234 0.47356 0.0
C181 C 0.19486 0.09996 0.51213 0.0
C182 C 0.13919 0.07835 0.52686 0.0
C183 C 0.10298 0.04474 0.48493 0.0
O184 O 0.03042 0.96888 0.46577 0.0
O185 O 1.007 1.00558 0.49858 0.0
O186 O 0.07736 0.05044 0.50402 0.0
O187 O 0.10307 1.0136 0.47345 0.0
H188 H 0.94092 1.00385 0.46689 0.0
H189 H 0.91381 0.02627 0.41951 0.0
H190 H 1.00553 0.02265 0.36429 0.0
H191 H 0.03266 1.00079 0.41203 0.0
H192 H 0.98036 0.89574 0.58039 0.0
H193 H 1.00834 0.94141 0.55117 0.0
H194 H 0.07277 0.88052 0.63075 0.0
H195 H 0.10045 0.92644 0.60152 0.0
H196 H 0.17022 0.11144 0.55862 0.0
H197 H 0.21165 0.08271 0.4637 0.0
H198 H 0.15989 0.04941 0.44939 0.0
H199 H 0.1191 0.07785 0.54465 0.0
C200 C 0.20682 0.81933 0.89305 0.0
C201 C 0.22879 0.80764 0.9161 0.0
C202 C 0.22282 0.85716 0.95224 0.0
C203 C 0.23667 0.82635 0.94551 0.0
C204 C 0.20046 0.8685 0.92913 0.0
C205 C 0.19253 0.84968 0.8998 0.0
U206 U 0.22181 0.74848 0.82966 0.0
O207 O 0.18532 0.71291 0.80408 0.0
O208 O 0.2175 0.74671 0.77523 0.0
C209 C 0.19122 0.72536 0.77507 0.0
C210 C 0.19863 0.80015 0.86191 0.0
C211 C 0.16125 0.73441 0.75718 0.0
C212 C 0.12866 0.77487 0.73093 0.0
C213 C 0.1583 0.76662 0.74592 0.0
C214 C 0.10467 0.71895 0.73818 0.0
C215 C 0.10139 0.75121 0.72737 0.0
C216 C 0.13431 0.71062 0.75271 0.0
C217 C 0.29116 0.68916 0.84604 0.0
C218 C 0.3343 0.66051 0.81594 0.0
C219 C 0.30381 0.63314 0.85958 0.0
C220 C 0.28556 0.66115 0.86512 0.0
C221 C 0.32848 0.63248 0.83503 0.0
C222 C 0.31584 0.68861 0.82141 0.0
C223 C 0.27238 0.71908 0.85369 0.0
O224 O 0.22112 0.80284 0.83848 0.0
O225 O 0.18663 0.76936 0.8652 0.0
O226 O 0.24141 0.71326 0.86327 0.0
O227 O 0.27602 0.74382 0.83364 0.0
H228 H 0.24003 0.78418 0.91123 0.0
H229 H 0.25407 0.81691 0.96266 0.0
H230 H 0.18939 0.8921 0.93348 0.0
H231 H 0.17543 0.85898 0.88223 0.0
H232 H 0.12685 0.7999 0.7228 0.0
H233 H 0.17861 0.78559 0.74911 0.0
H234 H 0.08424 0.70002 0.73553 0.0
H235 H 0.13597 0.68564 0.76107 0.0
H236 H 0.35317 0.6608 0.79688 0.0
H237 H 0.29874 0.61208 0.87486 0.0
H238 H 0.26716 0.66095 0.88465 0.0
H239 H 0.32111 0.70992 0.80652 0.0
C240 C 0.95808 0.65029 0.56599 0.0
C241 C 0.9853 0.65169 0.58807 0.0
C242 C 0.97692 0.70969 0.60353 0.0
C243 C 0.99458 0.68103 0.6066 0.0
C244 C 0.95024 0.7086 0.58085 0.0
C245 C 0.94079 0.67911 0.56241 0.0
U246 U 0.96723 0.58158 0.4981 0.0
O247 O 0.95892 0.52719 0.50069 0.0
O248 O 0.92953 0.55394 0.46605 0.0
C249 C 0.93312 0.52582 0.48047 0.0
C250 C 0.94651 0.61866 0.54804 0.0
C251 C 0.90245 0.50852 0.49278 0.0
C252 C 0.84369 0.50755 0.50716 0.0
C253 C 0.87261 0.52466 0.49611 0.0
C254 C 0.87426 0.45834 0.51303 0.0
C255 C 0.84413 0.47411 0.51546 0.0
C256 C 0.90307 0.47535 0.50163 0.0
C257 C 0.04108 0.58854 0.43785 0.0
C258 C 0.08823 0.55989 0.41556 0.0
C259 C 0.05448 0.59004 0.37922 0.0
C260 C 0.03438 0.59885 0.40592 0.0
C261 C 0.08197 0.57092 0.3838 0.0
C262 C 0.06809 0.56872 0.44232 0.0
C263 C 0.02159 0.60059 0.46658 0.0
O264 O 0.93598 0.62094 0.51744 0.0
O265 O 0.96476 0.59315 0.55162 0.0
O266 O 0.02185 0.58323 0.49329 0.0
O267 O 0.99206 0.61088 0.45986 0.0
H268 H 0.99917 0.62999 0.59157 0.0
H269 H 1.01534 0.68103 0.62378 0.0
H270 H 0.93604 0.73021 0.57802 0.0
H271 H 0.91956 0.67867 0.54577 0.0
H272 H 0.82092 0.52044 0.50885 0.0
H273 H 0.87144 0.5504 0.48989 0.0
H274 H 0.87542 0.43254 0.51906 0.0
H275 H 0.92584 0.46247 0.49944 0.0
H276 H 0.10926 0.54522 0.41998 0.0
H277 H 0.04892 0.59902 0.35513 0.0
H278 H 1.01404 0.61444 0.4016 0.0
H279 H 0.07418 0.56066 0.46665 0.0
C280 C 0.77981 0.79935 0.92026 0.0
C281 C 0.79995 0.77254 0.91438 0.0
C282 C 0.78177 0.7491 0.9663 0.0
C283 C 0.80092 0.74758 0.93722 0.0
C284 C 0.76236 0.77659 0.97235 0.0
C285 C 0.76138 0.80141 0.94951 0.0
U286 U 0.80863 0.84111 0.84172 0.0
O287 O 0.77842 0.85924 0.80151 0.0
O288 O 0.81363 0.89379 0.82994 0.0
C289 C 0.78911 0.89045 0.80813 0.0
C290 C 0.77682 0.82473 0.89573 0.0
C291 C 0.76313 0.91449 0.8125 0.0
C292 C 0.73326 0.95307 0.84762 0.0
C293 C 0.75572 0.92814 0.84408 0.0
C294 C 0.72357 0.94967 0.78831 0.0
C295 C 0.71738 0.96453 0.81974 0.0
C296 C 0.74642 0.92497 0.78473 0.0
C297 C 0.88496 0.80846 0.79652 0.0
C298 C 0.90436 0.82421 0.74224 0.0
C299 C 0.93753 0.79027 0.77552 0.0
C300 C 0.91372 0.79131 0.80053 0.0
C301 C 0.933 0.80636 0.74588 0.0
C302 C 0.88051 0.82528 0.76742 0.0
C303 C 0.86003 0.80809 0.823 0.0
O304 O 0.8013 0.84806 0.89557 0.0
O305 O 0.7675 0.8132 0.86587 0.0
O306 O 0.82918 0.79887 0.81396 0.0
O307 O 0.8623 0.83387 0.84434 0.0
H308 H 0.81446 0.77065 0.89189 0.0
H309 H 0.81614 0.72682 0.93178 0.0
H310 H 0.74735 0.77868 0.99447 0.0
H311 H 0.74577 0.82198 0.95446 0.0
H312 H 0.72885 0.96385 0.8722 0.0
H313 H 0.76792 0.92017 0.86598 0.0
H314 H 0.71179 0.95803 0.76635 0.0
H315 H 0.75165 0.91461 0.76016 0.0
H316 H 0.90008 0.83688 0.71976 0.0
H317 H 0.95924 0.77633 0.77926 0.0
H318 H 0.91761 0.77835 0.82294 0.0
H319 H 0.85848 0.83885 0.76405 0.0
C320 C 0.27978 0.29933 0.42024 0.0
C321 C 0.29994 0.27253 0.41436 0.0
C322 C 0.28175 0.24908 0.46628 0.0
C323 C 0.3009 0.24756 0.4372 0.0
C324 C 0.26234 0.27657 0.47233 0.0
C325 C 0.26136 0.30139 0.44949 0.0
U326 U 0.30861 0.34109 0.3417 0.0
O327 O 0.2784 0.35922 0.30149 0.0
O328 O 0.31361 0.39377 0.32992 0.0
C329 C 0.28909 0.39043 0.30811 0.0
C330 C 0.2768 0.32471 0.39571 0.0
C331 C 0.26311 0.41447 0.31248 0.0
C332 C 0.23324 0.45305 0.34761 0.0
C333 C 0.2557 0.42812 0.34406 0.0
C334 C 0.22356 0.44966 0.28829 0.0
C335 C 0.21737 0.46452 0.31972 0.0
C336 C 0.24641 0.42496 0.28471 0.0
C337 C 0.38494 0.30844 0.29651 0.0
C338 C 0.40435 0.3242 0.24222 0.0
C339 C 0.43751 0.29025 0.2755 0.0
C340 C 0.4137 0.2913 0.30051 0.0
C341 C 0.43299 0.30635 0.24586 0.0
C342 C 0.3805 0.32527 0.26741 0.0
C343 C 0.36001 0.30807 0.32299 0.0
O344 O 0.30127 0.34804 0.39555 0.0
O345 O 0.26748 0.31318 0.36585 0.0
O346 O 0.32916 0.29885 0.31394 0.0
O347 O 0.36227 0.33385 0.34432 0.0
H348 H 0.31444 0.27064 0.39187 0.0
H349 H 0.31613 0.22681 0.43176 0.0
H350 H 0.24732 0.27865 0.49444 0.0
H351 H 0.24574 0.32195 0.45444 0.0
H352 H 0.22883 0.46382 0.37218 0.0
H353 H 0.2679 0.42014 0.36596 0.0
H354 H 0.21179 0.45803 0.26634 0.0
H355 H 0.25165 0.41461 0.26014 0.0
H356 H 0.40007 0.33687 0.21974 0.0
H357 H 0.45922 0.27632 0.27924 0.0
H358 H 0.41759 0.27833 0.32292 0.0
H359 H 0.35846 0.33884 0.26403 0.0
C360 C 0.47296 0.94925 0.51599 0.0
C361 C 0.45614 0.91806 0.5205 0.0
C362 C 0.49336 0.89114 0.48168 0.0
C363 C 0.46632 0.88928 0.50365 0.0
C364 C 0.51052 0.92225 0.47768 0.0
C365 C 0.50042 0.95094 0.49454 0.0
U366 U 0.47817 1.01825 0.58494 0.0
O367 O 0.47472 0.07229 0.58255 0.0
O368 O 0.43836 0.04325 0.61167 0.0
C369 C 0.44661 0.07211 0.5991 0.0
C370 C 0.46096 0.97996 0.53239 0.0
C371 C 0.41927 0.0879 0.58293 0.0
C372 C 0.38546 0.09517 0.53416 0.0
C373 C 0.41145 0.08017 0.54942 0.0
C374 C 0.37444 0.12558 0.58581 0.0
C375 C 0.36658 0.11798 0.55219 0.0
C376 C 0.40064 0.11069 0.60101 0.0
C377 C 0.54612 1.01511 0.65149 0.0
C378 C 0.55977 0.0599 0.69273 0.0
C379 C 0.58643 1.00784 0.69503 0.0
C380 C 0.56848 0.99541 0.66684 0.0
C381 C 0.58232 0.04026 0.70824 0.0
C382 C 0.54177 0.0474 0.66461 0.0
C383 C 0.5279 1.00171 0.62167 0.0
O384 O 0.44663 0.97672 0.56138 0.0
O385 O 0.48098 1.00708 0.53132 0.0
O386 O 0.53192 1.01942 0.59536 0.0
O387 O 0.49676 0.99086 0.62622 0.0
H388 H 0.43471 0.91596 0.53662 0.0
H389 H 0.45241 0.86576 0.50716 0.0
H390 H 0.53141 0.92466 0.46092 0.0
H391 H 0.51388 0.97452 0.49024 0.0
H392 H 0.37998 0.08859 0.5083 0.0
H393 H 0.42542 0.06246 0.53507 0.0
H394 H 0.36035 0.14298 0.6004 0.0
H395 H 0.40627 0.11689 0.62693 0.0
H396 H 0.55592 0.08494 0.70234 0.0
H397 H 0.60353 0.99207 0.7064 0.0
H398 H 0.5721 0.97039 0.65697 0.0
H399 H 0.52454 0.06291 0.65305 0.0
C400 C 0.22475 0.26369 0.69829 0.0
C401 C 0.25717 0.2548 0.69051 0.0
C402 C 0.2375 0.23027 0.63709 0.0
C403 C 0.26344 0.23796 0.66019 0.0
C404 C 0.20509 0.23877 0.64526 0.0
C405 C 0.19878 0.25514 0.67559 0.0
U406 U 0.24276 0.33848 0.7589 0.0
O407 O 0.20868 0.37366 0.78088 0.0
O408 O 0.23745 0.34377 0.81316 0.0
C409 C 0.21371 0.36455 0.81115 0.0
C410 C 0.2174 0.28329 0.72889 0.0
C411 C 0.18309 0.35767 0.83031 0.0
C412 C 0.14383 0.32036 0.85871 0.0
C413 C 0.17409 0.32605 0.84209 0.0
C414 C 0.13153 0.37772 0.85206 0.0
C415 C 0.12204 0.34606 0.86336 0.0
C416 C 0.16178 0.38347 0.83591 0.0
C417 C 0.31336 0.40238 0.74449 0.0
C418 C 0.31652 0.4548 0.77713 0.0
C419 C 0.36245 0.44057 0.74158 0.0
C420 C 0.34495 0.41052 0.73155 0.0
C421 C 0.34851 0.46295 0.76468 0.0
C422 C 0.29917 0.42472 0.76721 0.0
C423 C 0.29535 0.37049 0.73464 0.0
O424 O 0.23918 0.28369 0.75333 0.0
O425 O 0.2064 0.31268 0.72412 0.0
O426 O 0.26494 0.37297 0.72346 0.0
O427 O 0.29733 0.34692 0.75578 0.0
H428 H 0.27773 0.2613 0.70753 0.0
H429 H 0.28866 0.23177 0.6545 0.0
H430 H 0.18451 0.23299 0.62809 0.0
H431 H 0.17362 0.26174 0.68108 0.0
H432 H 0.13709 0.29569 0.86707 0.0
H433 H 0.19007 0.30566 0.838 0.0
H434 H 0.11542 0.39811 0.85544 0.0
H435 H 0.16828 0.40805 0.82716 0.0
H436 H 0.30508 0.47134 0.79504 0.0
H437 H 0.38704 0.44605 0.73153 0.0
H438 H 0.35621 0.39351 0.71395 0.0
H439 H 0.27477 0.41875 0.77751 0.0
C440 C 0.7807 0.29742 0.67409 0.0
C441 C 0.80614 0.29784 0.6503 0.0
C442 C 0.77938 0.34021 0.62076 0.0
C443 C 0.8054 0.3189 0.6239 0.0
C444 C 0.75439 0.34042 0.64499 0.0
C445 C 0.75497 0.31909 0.67129 0.0
U446 U 0.8182 0.26012 0.75044 0.0
O447 O 0.7938 0.24251 0.79556 0.0
O448 O 0.82023 0.20789 0.76306 0.0
C449 C 0.8013 0.21156 0.78924 0.0
C450 C 0.77975 0.27364 0.70092 0.0
C451 C 0.77391 0.18597 0.79196 0.0
C452 C 0.7202 0.15985 0.7741 0.0
C453 C 0.74558 0.18511 0.7715 0.0
C454 C 0.75144 0.13622 0.81756 0.0
C455 C 0.72291 0.13505 0.79713 0.0
C456 C 0.77667 0.16147 0.81496 0.0
C457 C 0.90091 0.29316 0.78781 0.0
C458 C 0.91931 0.27395 0.84054 0.0
C459 C 0.95487 0.31301 0.8107 0.0
C460 C 0.93093 0.31253 0.78548 0.0
C461 C 0.94912 0.29419 0.83884 0.0
C462 C 0.89541 0.27342 0.81519 0.0
C463 C 0.87503 0.29455 0.76224 0.0
O464 O 0.80122 0.25038 0.69893 0.0
O465 O 0.77644 0.28649 0.73121 0.0
O466 O 0.84629 0.30415 0.77322 0.0
O467 O 0.87193 0.2687 0.74099 0.0
H468 H 0.82642 0.28157 0.65171 0.0
H469 H 0.82514 0.31823 0.60576 0.0
H470 H 0.73397 0.35649 0.64324 0.0
H471 H 0.735 0.31916 0.68923 0.0
H472 H 0.69859 0.15967 0.758 0.0
H473 H 0.74322 0.20385 0.75347 0.0
H474 H 0.75437 0.1176 0.83557 0.0
H475 H 0.79848 0.16176 0.83085 0.0
H476 H 0.91407 0.25914 0.86178 0.0
H477 H 0.97753 0.32884 0.80848 0.0
H478 H 0.93561 0.3278 0.76445 0.0
H479 H 0.87234 0.25816 0.81727 0.0
C480 C 0.50066 0.61234 0.65697 0.0
C481 C 0.51389 0.58413 0.66945 0.0
C482 C 0.47358 0.58415 0.71433 0.0
C483 C 0.50048 0.57015 0.69783 0.0
C484 C 0.46095 0.61298 0.70222 0.0
C485 C 0.47438 0.62691 0.67369 0.0
U486 U 0.56042 0.60736 0.58518 0.0
O487 O 0.55268 0.61129 0.53169 0.0
O488 O 0.58836 0.64663 0.55849 0.0
C489 C 0.57235 0.63863 0.53047 0.0
C490 C 0.51345 0.62561 0.62589 0.0
C491 C 0.55828 0.66639 0.51389 0.0
C492 C 0.51203 0.70029 0.50293 0.0
C493 C 0.52531 0.67452 0.51961 0.0
C494 C 0.56467 0.71062 0.47506 0.0
C495 C 0.53152 0.71861 0.4804 0.0
C496 C 0.57787 0.68468 0.49161 0.0
C497 C 0.62087 0.53691 0.5862 0.0
C498 C 0.6579 0.52251 0.54113 0.0
C499 C 0.65842 0.49258 0.59164 0.0
C500 C 0.6337 0.51216 0.60478 0.0
C501 C 0.67072 0.49743 0.55959 0.0
C502 C 0.63319 0.54209 0.55433 0.0
C503 C 0.59421 0.55643 0.60027 0.0
O504 O 0.54417 0.63907 0.6273 0.0
O505 O 0.50762 0.60568 0.59944 0.0
O506 O 0.56571 0.55334 0.58401 0.0
O507 O 0.60297 0.58738 0.61022 0.0
H508 H 0.53422 0.57255 0.65685 0.0
H509 H 0.51086 0.548 0.70648 0.0
H510 H 0.44022 0.62431 0.71431 0.0
H511 H 0.46387 0.64871 0.66435 0.0
H512 H 0.48647 0.7059 0.50779 0.0
H513 H 0.50979 0.66084 0.53684 0.0
H514 H 0.58038 0.72425 0.45796 0.0
H515 H 0.60338 0.67879 0.48689 0.0
H516 H 0.66686 0.52696 0.51639 0.0
H517 H 0.66775 0.47356 0.60652 0.0
H518 H 0.62441 0.50782 0.62944 0.0
H519 H 0.62354 0.56111 0.53963 0.0
C520 C 0.48865 0.50015 0.94296 0.0
C521 C 0.45526 0.50808 0.94467 0.0
C522 C 0.45748 0.52618 0.88802 0.0
C523 C 0.43985 0.52109 0.91758 0.0
C524 C 0.49121 0.51894 0.88663 0.0
C525 C 0.50671 0.50622 0.91389 0.0
U526 U 0.56034 0.49766 1.00439 0.0
O527 O 0.55983 0.49296 0.05839 0.0
O528 O 0.5833 0.45576 0.02635 0.0
C529 C 0.57362 0.46424 0.05646 0.0
C530 C 0.50402 0.48577 0.97174 0.0
C531 C 0.5564 0.43729 0.07436 0.0
C532 C 0.50655 0.40222 0.08541 0.0
C533 C 0.52247 0.42833 0.06868 0.0
C534 C 0.55835 0.39366 0.1136 0.0
C535 C 0.52435 0.38448 0.10796 0.0
C536 C 0.57421 0.41988 0.09694 0.0
C537 C 0.63544 0.56123 0.99578 0.0
C538 C 0.66853 0.59766 0.0349 0.0
C539 C 0.69184 0.58136 0.98179 0.0
C540 C 0.66226 0.56235 0.9736 0.0
C541 C 0.69487 0.59998 1.01216 0.0
C542 C 0.6392 0.57838 0.02688 0.0
C543 C 0.603 0.54475 0.98495 0.0
O544 O 0.53044 0.46887 0.96579 0.0
O545 O 0.50702 0.50557 0.9986 0.0
O546 O 0.57737 0.55045 1.00405 0.0
O547 O 0.6031 0.51361 0.97348 0.0
H548 H 0.44094 0.50383 0.96692 0.0
H549 H 0.41382 0.52625 0.91954 0.0
H550 H 0.50554 0.52262 0.8643 0.0
H551 H 0.53268 0.50077 0.91205 0.0
H552 H 0.48037 0.39575 0.08039 0.0
H553 H 0.50836 0.44142 0.05119 0.0
H554 H 0.57277 0.38051 0.13076 0.0
H555 H 0.60046 0.42644 0.10154 0.0
H556 H 0.67022 0.61148 0.05863 0.0
H557 H 0.71167 0.58271 0.96373 0.0
H558 H 0.65992 0.54941 0.94944 0.0
H559 H 0.6191 0.57789 0.04467 0.0
C560 C 0.70683 0.31938 0.39302 0.0
C561 C 0.7288 0.30768 0.41607 0.0
C562 C 0.72283 0.3572 0.45221 0.0
C563 C 0.73668 0.32639 0.44548 0.0
C564 C 0.70048 0.36854 0.42911 0.0
C565 C 0.69254 0.34973 0.39977 0.0
U566 U 0.72182 0.24854 0.32962 0.0
O567 O 0.68533 0.21296 0.30405 0.0
O568 O 0.71751 0.24676 0.27519 0.0
C569 C 0.69123 0.22541 0.27504 0.0
C570 C 0.69864 0.3002 0.36188 0.0
C571 C 0.66125 0.23445 0.25715 0.0
C572 C 0.62865 0.2749 0.2309 0.0
C573 C 0.65829 0.26666 0.24589 0.0
C574 C 0.60468 0.21897 0.23815 0.0
C575 C 0.60139 0.25123 0.22734 0.0
C576 C 0.63432 0.21065 0.25268 0.0
C577 C 0.79117 0.18922 0.34602 0.0
C578 C 0.83431 0.16057 0.31592 0.0
C579 C 0.80382 0.1332 0.35955 0.0
C580 C 0.78557 0.16121 0.36509 0.0
C581 C 0.82849 0.13254 0.33501 0.0
C582 C 0.81585 0.18866 0.32138 0.0
C583 C 0.77239 0.21914 0.35366 0.0
O584 O 0.72112 0.30289 0.33844 0.0
O585 O 0.68664 0.26941 0.36517 0.0
O586 O 0.74142 0.21331 0.36324 0.0
O587 O 0.77603 0.24387 0.33361 0.0
H588 H 0.74004 0.28423 0.41119 0.0
H589 H 0.75408 0.31695 0.46262 0.0
H590 H 0.68941 0.39215 0.43345 0.0
H591 H 0.67545 0.35903 0.3822 0.0
H592 H 0.62684 0.29993 0.22278 0.0
H593 H 0.6786 0.28564 0.24909 0.0
H594 H 0.58426 0.20004 0.2355 0.0
H595 H 0.63599 0.18567 0.26104 0.0
H596 H 0.85318 0.16086 0.29685 0.0
H597 H 0.79875 0.11214 0.37484 0.0
H598 H 0.76717 0.16101 0.38462 0.0
H599 H 0.82113 0.20998 0.30649 0.0
C600 C 0.45806 0.15028 0.06599 0.0
C601 C 0.48529 0.15169 0.08806 0.0
C602 C 0.47691 0.20969 0.10352 0.0
C603 C 0.49457 0.18103 0.10659 0.0
C604 C 0.45022 0.2086 0.08084 0.0
C605 C 0.44077 0.1791 0.06241 0.0
U606 U 0.46721 0.08157 0.9981 0.0
O607 O 0.45891 0.02718 1.0007 0.0
O608 O 0.42951 0.05393 0.96605 0.0
C609 C 0.43311 0.02581 0.98047 0.0
C610 C 0.44649 0.11865 0.04804 0.0
C611 C 0.40243 1.00851 0.99279 0.0
C612 C 0.34368 1.00753 1.00715 0.0
C613 C 0.37259 0.02464 0.9961 0.0
C614 C 0.37425 0.95833 1.01304 0.0
C615 C 0.34411 0.97409 1.01547 0.0
C616 C 0.40306 0.97534 1.00164 0.0
C617 C 0.54107 0.08853 0.93786 0.0
C618 C 0.58823 0.0599 0.91557 0.0
C619 C 0.55446 0.09001 0.87923 0.0
C620 C 0.53436 0.09882 0.90592 0.0
C621 C 0.58196 0.07091 0.88381 0.0
C622 C 0.56808 0.06873 0.94233 0.0
C623 C 0.52157 0.10058 0.96658 0.0
O624 O 0.43596 0.12093 1.01744 0.0
O625 O 0.46474 0.09314 0.05163 0.0
O626 O 0.52183 0.08321 0.99329 0.0
O627 O 0.49205 0.11087 0.95986 0.0
H628 H 0.49917 0.12999 0.09155 0.0
H629 H 0.51534 0.18103 0.12375 0.0
H630 H 0.43602 0.2302 0.07802 0.0
H631 H 0.41953 0.17866 0.04577 0.0
H632 H 0.3209 1.02042 1.00884 0.0
H633 H 0.37141 0.05038 0.98988 0.0
H634 H 0.37541 0.93253 0.01908 0.0
H635 H 0.42583 0.96246 0.99946 0.0
H636 H 0.60928 0.04524 0.92 0.0
H637 H 0.54888 0.09897 0.85513 0.0
H638 H 0.514 0.11439 0.9016 0.0
H639 H 0.57419 0.06068 0.96667 0.0
O640 O 0.25347 0.86742 1.00263 0.0
Cd641 Cd 0.27534 0.89179 0.04403 0.0
Cd642 Cd 0.23773 0.94394 0.02213 0.0
O643 O 0.22334 0.90746 0.98609 0.0
O644 O 0.29726 0.85607 0.06675 0.0
O645 O 0.25704 0.8838 0.08974 0.0
C646 C 0.27793 0.86095 0.09162 0.0
C647 C 0.19661 0.97647 0.04535 0.0
C648 C 0.2332 0.87817 0.98215 0.0
C649 C 0.31289 0.95502 0.02417 0.0
O650 O 0.285 0.9666 1.01802 0.0
O651 O 0.3142 0.9262 0.03533 0.0
O652 O 0.20738 0.98052 1.01574 0.0
O653 O 0.20913 0.95364 0.06194 0.0
O654 O 0.2001 0.58545 0.32031 0.0
Cd655 Cd 0.16969 0.54328 0.32801 0.0
Cd656 Cd 0.12887 0.57461 0.28629 0.0
O657 O 0.17 0.60765 0.28251 0.0
O658 O 0.1997 0.51325 0.3496 0.0
O659 O 0.17748 0.50163 0.2999 0.0
C660 C 0.19692 0.4937 0.32335 0.0
C661 C 0.10105 0.55351 0.23821 0.0
C662 C 0.19635 0.60807 0.30004 0.0
C663 C 0.10519 0.56471 0.3561 0.0
O664 O 0.10079 0.578 0.3287 0.0
O665 O 0.13042 0.54798 0.36043 0.0
O666 O 0.09793 0.58359 0.24967 0.0
O667 O 0.12058 0.53539 0.25391 0.0
O668 O 0.7614 0.7231 1.01448 0.0
Cd669 Cd 0.75187 0.68985 0.0512 0.0
Cd670 Cd 0.79259 0.6538 1.01065 0.0
O671 O 0.7969 0.69607 0.98355 0.0
O672 O 0.72205 0.71509 0.08083 0.0
O673 O 0.77085 0.7 0.09747 0.0
C674 C 0.74382 0.71451 0.10412 0.0
C675 C 0.83839 0.63296 0.03607 0.0
C676 C 0.78046 0.72159 0.98947 0.0
C677 C 0.72381 0.624 0.01909 0.0
O678 O 0.7505 0.62208 1.00257 0.0
O679 O 0.72082 0.64787 0.04041 0.0
O680 O 0.83253 0.62741 1.00475 0.0
O681 O 0.81849 0.6512 0.0529 0.0
O682 O 0.95382 0.03411 0.32997 0.0
Cd683 Cd 0.93084 0.0382 0.2846 0.0
Cd684 Cd 0.8778 0.05474 0.32294 0.0
O685 O 0.90991 0.04432 0.3605 0.0
O686 O 0.96698 0.03896 0.25094 0.0
O687 O 0.93371 0.08008 0.25912 0.0
C688 C 0.95783 0.0675 0.24274 0.0
C689 C 0.84789 0.10266 0.32987 0.0
C690 C 0.9399 0.03631 0.35815 0.0
C691 C 0.86786 0.99371 0.27715 0.0
O692 O 0.85459 1.01387 0.29753 0.0
O693 O 0.89816 0.99881 0.26887 0.0
O694 O 0.84084 0.07659 0.34636 0.0
O695 O 0.87226 0.10171 0.30917 0.0
O696 O 0.26139 0.22307 0.51446 0.0
Cd697 Cd 0.25186 0.18983 0.55118 0.0
Cd698 Cd 0.29258 0.15378 0.51063 0.0
O699 O 0.29689 0.19605 0.48353 0.0
O700 O 0.22204 0.21506 0.5808 0.0
O701 O 0.27084 0.19998 0.59745 0.0
C702 C 0.24381 0.21448 0.6041 0.0
C703 C 0.33837 0.13295 0.53605 0.0
C704 C 0.28044 0.22157 0.48945 0.0
C705 C 0.2238 0.12398 0.51907 0.0
O706 O 0.25049 0.12207 0.50255 0.0
O707 O 0.22081 0.14785 0.54038 0.0
O708 O 0.33252 0.12739 0.50473 0.0
O709 O 0.31847 0.15118 0.55288 0.0
O710 O 0.45382 0.53407 0.82998 0.0
Cd711 Cd 0.43083 0.53816 0.78462 0.0
Cd712 Cd 0.3778 0.55469 0.82296 0.0
O713 O 0.40991 0.54428 0.86052 0.0
O714 O 0.46698 0.53892 0.75095 0.0
O715 O 0.4337 0.58004 0.75913 0.0
C716 C 0.45782 0.56746 0.74276 0.0
C717 C 0.34788 0.60261 0.8299 0.0
C718 C 0.43991 0.53627 0.85816 0.0
C719 C 0.36786 0.49366 0.77717 0.0
O720 O 0.35459 0.51382 0.79755 0.0
O721 O 0.39816 0.49876 0.76889 0.0
O722 O 0.34083 0.57653 0.84638 0.0
O723 O 0.37225 0.60166 0.80919 0.0
O724 O 0.75348 0.36744 0.50261 0.0
Cd725 Cd 0.77535 0.3918 0.54401 0.0
Cd726 Cd 0.73775 0.44397 0.52212 0.0
O727 O 0.72336 0.4075 0.48607 0.0
O728 O 0.79725 0.35609 0.56673 0.0
O729 O 0.75703 0.38382 0.58972 0.0
C730 C 0.77793 0.36097 0.5916 0.0
C731 C 0.69663 0.47648 0.54535 0.0
C732 C 0.73321 0.3782 0.48213 0.0
C733 C 0.8129 0.45504 0.52416 0.0
O734 O 0.78502 0.46662 0.51801 0.0
O735 O 0.81421 0.42621 0.53532 0.0
O736 O 0.7074 0.48055 0.51575 0.0
O737 O 0.70914 0.45365 0.56193 0.0
O738 O 0.70008 0.08546 0.82031 0.0
Cd739 Cd 0.66969 0.04328 0.82802 0.0
Cd740 Cd 0.62885 0.07461 0.78629 0.0
O741 O 0.66998 0.10765 0.78252 0.0
O742 O 0.6997 1.01326 0.84961 0.0
O743 O 0.67748 1.00164 0.79991 0.0
C744 C 0.69692 0.99371 0.82336 0.0
C745 C 0.60104 0.0535 0.73822 0.0
C746 C 0.69633 0.10807 0.80005 0.0
C747 C 0.60518 0.06471 0.85611 0.0
O748 O 0.60077 0.07799 0.82871 0.0
O749 O 0.63042 0.04798 0.86044 0.0
O750 O 0.59791 0.08359 0.74968 0.0
O751 O 0.62057 0.03539 0.75391 0.0
O752 O 0.98706 0.33322 0.9649 0.0
Cd753 Cd 0.99467 0.29001 0.93688 0.0
Cd754 Cd 0.03512 0.33181 0.90025 0.0
O755 O 0.0232 0.36523 0.93796 0.0
O756 O 0.98613 0.25151 0.96571 0.0
O757 O 0.03561 0.26532 0.94464 0.0
C758 C 1.01729 0.24601 0.96286 0.0
C759 C 0.08883 0.3401 0.87837 0.0
C760 C 1.00212 0.36152 0.96105 0.0
C761 C 0.97308 0.29772 0.86703 0.0
O762 O 0.99846 0.31815 0.86546 0.0
O763 O 0.96719 0.28225 0.89331 0.0
O764 O 0.0663 0.36075 0.87442 0.0
O765 O 0.0811 0.31429 0.89514 0.0
O766 O 0.48708 0.83322 0.46492 0.0
Cd767 Cd 0.49469 0.79001 0.4369 0.0
Cd768 Cd 0.53514 0.83181 0.40026 0.0
O769 O 0.52321 0.86523 0.43797 0.0
O770 O 0.48615 0.75151 0.46574 0.0
O771 O 0.53563 0.76532 0.44467 0.0
C772 C 0.51731 0.74602 0.46289 0.0
C773 C 0.58886 0.84012 0.37839 0.0
C774 C 0.50213 0.86153 0.46106 0.0
C775 C 0.47312 0.79771 0.36705 0.0
O776 O 0.49849 0.81814 0.36548 0.0
O777 O 0.46722 0.78225 0.39333 0.0
O778 O 0.56632 0.86076 0.37444 0.0
O779 O 0.58113 0.81431 0.39516 0.0
O780 O 0.98144 0.78451 0.72194 0.0
Cd781 Cd 1.01796 0.77038 0.68918 0.0
Cd782 Cd 0.98119 0.81039 0.64925 0.0
O783 O 0.95266 0.8164 0.69124 0.0
O784 O 0.04298 0.74028 0.71626 0.0
O785 O 0.06664 0.78605 0.69657 0.0
C786 C 0.06934 0.75966 0.71296 0.0
C787 C 1.00761 0.85614 0.6248 0.0
C788 C 0.95718 0.8028 0.71847 0.0
C789 C 0.98521 0.73966 0.62547 0.0
O790 O 0.97228 0.76691 0.6205 0.0
O791 O 1.00426 0.73728 0.65025 0.0
O792 O 0.97616 0.84844 0.62037 0.0
O793 O 0.02404 0.83801 0.64376 0.0
O794 O 0.48143 0.28451 0.22192 0.0
Cd795 Cd 0.51795 0.27038 0.18916 0.0
Cd796 Cd 0.48118 0.31039 0.14924 0.0
O797 O 0.45264 0.31639 0.19123 0.0
O798 O 0.54298 0.24029 0.21624 0.0
O799 O 0.56663 0.28606 0.19655 0.0
C800 C 0.56933 0.25968 0.21293 0.0
C801 C 0.50761 0.35614 0.1248 0.0
C802 C 0.45717 0.30279 0.21846 0.0
C803 C 0.4852 0.23966 0.12546 0.0
O804 O 0.47227 0.2669 0.12049 0.0
O805 O 0.50425 0.23727 0.15024 0.0
O806 O 0.47616 0.34844 0.12036 0.0
O807 O 0.52403 0.338 0.14375 0.0
loop_
_geom_bond_atom_site_label_1
_geom_bond_atom_site_label_2
_geom_bond_distance
_geom_bond_site_symmetry_2
_ccdc_geom_bond_type
C0 C1 1.264 . S
C0 C5 1.479 . S
C0 C10 1.465 . S
C1 C0 1.264 . S
C1 C3 1.339 . S
C1 H28 0.931 . S
C2 C3 1.395 1_655 S
C2 C4 1.320 . S
C3 C1 1.339 . S
C3 C2 1.395 1_455 S
C3 H29 0.929 . S
C4 C2 1.320 . S
C4 C5 1.405 1_655 S
C4 H30 0.930 . S
C5 C0 1.479 . S
C5 C4 1.405 1_455 S
C5 H31 0.931 . S
U6 O7 2.454 . S
U6 O8 2.458 . S
U6 C9 2.984 . S
U6 C10 2.847 . S
U6 C23 2.882 . S
U6 O24 2.441 . S
U6 O25 2.420 . S
U6 O26 2.455 . S
U6 O27 2.449 . S
O7 U6 2.454 . S
O7 C9 1.353 . S
O8 U6 2.458 . S
O8 C9 1.286 . S
C9 U6 2.984 . S
C9 O7 1.353 . S
C9 O8 1.286 . S
C9 C11 1.363 . S
C10 C0 1.465 . S
C10 U6 2.847 . S
C10 O24 1.249 . S
C10 O25 1.202 . S
C11 C9 1.363 . S
C11 C13 1.408 . S
C11 C16 1.342 . S
C12 C13 1.310 . S
C12 C15 1.461 . S
C12 H32 0.932 . S
C13 C11 1.408 . S
C13 C12 1.310 . S
C13 H33 0.930 . S
C14 C15 1.474 . S
C14 C16 1.285 . S
C14 H34 0.929 1_554 S
C15 C12 1.461 . S
C15 C14 1.474 . S
C16 C11 1.342 . S
C16 C14 1.285 . S
C16 H35 0.930 . S
C17 C20 1.424 . S
C17 C22 1.245 . S
C17 C23 1.428 . S
C18 C21 1.260 . S
C18 C22 1.477 . S
C18 H36 0.932 . S
C19 C20 1.384 . S
C19 C21 1.479 . S
C19 H37 0.929 . S
C20 C17 1.424 . S
C20 C19 1.384 . S
C20 H38 0.928 . S
C21 C18 1.260 . S
C21 C19 1.479 . S
C22 C17 1.245 . S
C22 C18 1.477 . S
C22 H39 0.932 . S
C23 U6 2.882 . S
C23 C17 1.428 . S
C23 O26 1.301 . S
C23 O27 1.282 . S
O24 U6 2.441 . S
O24 C10 1.249 . S
O25 U6 2.420 . S
O25 C10 1.202 . S
O26 U6 2.455 . S
O26 C23 1.301 . S
O27 U6 2.449 . S
O27 C23 1.282 . S
H28 C1 0.931 . S
H29 C3 0.929 . S
H30 C4 0.930 . S
H31 C5 0.931 . S
H32 C12 0.932 . S
H33 C13 0.930 . S
H34 C14 0.929 1_556 S
H35 C16 0.930 . S
H36 C18 0.932 . S
H37 C19 0.929 . S
H38 C20 0.928 . S
H39 C22 0.932 . S
C40 C41 1.264 . S
C40 C45 1.479 . S
C40 C50 1.465 . S
C41 C40 1.264 . S
C41 C43 1.339 . S
C41 H68 0.931 . S
C42 C43 1.395 . S
C42 C44 1.320 . S
C43 C41 1.339 . S
C43 C42 1.395 . S
C43 H69 0.929 . S
C44 C42 1.320 . S
C44 C45 1.405 . S
C44 H70 0.930 . S
C45 C40 1.479 . S
C45 C44 1.405 . S
C45 H71 0.931 . S
U46 O47 2.454 . S
U46 O48 2.458 . S
U46 C49 2.984 . S
U46 C50 2.847 . S
U46 C63 2.882 . S
U46 O64 2.441 . S
U46 O65 2.420 . S
U46 O66 2.455 . S
U46 O67 2.449 . S
O47 U46 2.454 . S
O47 C49 1.353 . S
O48 U46 2.458 . S
O48 C49 1.286 . S
C49 U46 2.984 . S
C49 O47 1.353 . S
C49 O48 1.286 . S
C49 C51 1.363 . S
C50 C40 1.465 . S
C50 U46 2.847 . S
C50 O64 1.249 . S
C50 O65 1.202 . S
C51 C49 1.363 . S
C51 C53 1.408 . S
C51 C56 1.342 . S
C52 C53 1.310 . S
C52 C55 1.461 . S
C52 H72 0.932 . S
C53 C51 1.408 . S
C53 C52 1.310 . S
C53 H73 0.930 . S
C54 C55 1.474 . S
C54 C56 1.285 . S
C54 H74 0.929 . S
C55 C52 1.461 . S
C55 C54 1.474 . S
C56 C51 1.342 . S
C56 C54 1.285 . S
C56 H75 0.930 . S
C57 C60 1.424 . S
C57 C62 1.245 . S
C57 C63 1.428 . S
C58 C61 1.260 . S
C58 C62 1.477 . S
C58 H76 0.932 . S
C59 C60 1.384 . S
C59 C61 1.479 . S
C59 H77 0.929 . S
C60 C57 1.424 . S
C60 C59 1.384 . S
C60 H78 0.928 . S
C61 C58 1.260 . S
C61 C59 1.479 . S
C62 C57 1.245 . S
C62 C58 1.477 . S
C62 H79 0.932 . S
C63 U46 2.882 . S
C63 C57 1.428 . S
C63 O66 1.301 . S
C63 O67 1.282 . S
O64 U46 2.441 . S
O64 C50 1.249 . S
O65 U46 2.420 . S
O65 C50 1.202 . S
O66 U46 2.455 . S
O66 C63 1.301 . S
O67 U46 2.449 . S
O67 C63 1.282 . S
H68 C41 0.931 . S
H69 C43 0.929 . S
H70 C44 0.930 . S
H71 C45 0.931 . S
H72 C52 0.932 . S
H73 C53 0.930 . S
H74 C54 0.929 . S
H75 C56 0.930 . S
H76 C58 0.932 . S
H77 C59 0.929 . S
H78 C60 0.928 . S
H79 C62 0.932 . S
C80 C81 1.264 . S
C80 C85 1.479 1_554 S
C80 C90 1.465 . S
C81 C80 1.264 . S
C81 C83 1.339 . S
C81 H108 0.931 . S
C82 C83 1.395 1_556 S
C82 C84 1.320 . S
C83 C81 1.339 . S
C83 C82 1.395 1_554 S
C83 H109 0.929 . S
C84 C82 1.320 . S
C84 C85 1.405 . S
C84 H110 0.930 . S
C85 C80 1.479 1_556 S
C85 C84 1.405 . S
C85 H111 0.931 . S
U86 O87 2.454 . S
U86 O88 2.458 . S
U86 C89 2.984 . S
U86 C90 2.847 . S
U86 C103 2.882 . S
U86 O104 2.441 . S
U86 O105 2.420 . S
U86 O106 2.455 . S
U86 O107 2.449 . S
O87 U86 2.454 . S
O87 C89 1.353 . S
O88 U86 2.458 . S
O88 C89 1.286 . S
C89 U86 2.984 . S
C89 O87 1.353 . S
C89 O88 1.286 . S
C89 C91 1.363 . S
C90 C80 1.465 . S
C90 U86 2.847 . S
C90 O104 1.249 . S
C90 O105 1.202 . S
C91 C89 1.363 . S
C91 C93 1.408 . S
C91 C96 1.342 . S
C92 C93 1.310 . S
C92 C95 1.461 . S
C92 H112 0.932 . S
C93 C91 1.408 . S
C93 C92 1.310 . S
C93 H113 0.930 . S
C94 C95 1.474 . S
C94 C96 1.285 . S
C94 H114 0.929 . S
C95 C92 1.461 . S
C95 C94 1.474 . S
C96 C91 1.342 . S
C96 C94 1.285 . S
C96 H115 0.930 . S
C97 C100 1.424 . S
C97 C102 1.245 . S
C97 C103 1.428 . S
C98 C101 1.260 . S
C98 C102 1.477 . S
C98 H116 0.932 . S
C99 C100 1.384 1_455 S
C99 C101 1.479 1_455 S
C99 H117 0.929 . S
C100 C97 1.424 . S
C100 C99 1.384 1_655 S
C100 H118 0.928 . S
C101 C98 1.260 . S
C101 C99 1.479 1_655 S
C102 C97 1.245 . S
C102 C98 1.477 . S
C102 H119 0.932 . S
C103 U86 2.882 . S
C103 C97 1.428 . S
C103 O106 1.301 . S
C103 O107 1.282 . S
O104 U86 2.441 . S
O104 C90 1.249 . S
O105 U86 2.420 . S
O105 C90 1.202 . S
O106 U86 2.455 . S
O106 C103 1.301 . S
O107 U86 2.449 . S
O107 C103 1.282 . S
H108 C81 0.931 . S
H109 C83 0.929 . S
H110 C84 0.930 . S
H111 C85 0.931 . S
H112 C92 0.932 . S
H113 C93 0.930 . S
H114 C94 0.929 . S
H115 C96 0.930 . S
H116 C98 0.932 . S
H117 C99 0.929 . S
H118 C100 0.928 . S
H119 C102 0.932 . S
C120 C121 1.264 . S
C120 C125 1.479 . S
C120 C130 1.465 . S
C121 C120 1.264 . S
C121 C123 1.339 . S
C121 H148 0.931 . S
C122 C123 1.395 . S
C122 C124 1.320 . S
C123 C121 1.339 . S
C123 C122 1.395 . S
C123 H149 0.929 . S
C124 C122 1.320 . S
C124 C125 1.405 . S
C124 H150 0.930 . S
C125 C120 1.479 . S
C125 C124 1.405 . S
C125 H151 0.931 . S
U126 O127 2.454 . S
U126 O128 2.458 . S
U126 C129 2.984 . S
U126 C130 2.847 . S
U126 C143 2.882 . S
U126 O144 2.441 . S
U126 O145 2.420 . S
U126 O146 2.455 . S
U126 O147 2.449 . S
O127 U126 2.454 . S
O127 C129 1.353 . S
O128 U126 2.458 . S
O128 C129 1.286 . S
C129 U126 2.984 . S
C129 O127 1.353 . S
C129 O128 1.286 . S
C129 C131 1.363 . S
C130 C120 1.465 . S
C130 U126 2.847 . S
C130 O144 1.249 . S
C130 O145 1.202 . S
C131 C129 1.363 . S
C131 C133 1.408 . S
C131 C136 1.342 . S
C132 C133 1.310 . S
C132 C135 1.461 . S
C132 H152 0.932 . S
C133 C131 1.408 . S
C133 C132 1.310 . S
C133 H153 0.930 . S
C134 C135 1.474 . S
C134 C136 1.285 . S
C134 H154 0.929 . S
C135 C132 1.461 . S
C135 C134 1.474 . S
C136 C131 1.342 . S
C136 C134 1.285 . S
C136 H155 0.930 . S
C137 C140 1.424 . S
C137 C142 1.245 . S
C137 C143 1.428 . S
C138 C141 1.260 . S
C138 C142 1.477 . S
C138 H156 0.932 . S
C139 C140 1.384 . S
C139 C141 1.479 . S
C139 H157 0.929 . S
C140 C137 1.424 . S
C140 C139 1.384 . S
C140 H158 0.928 . S
C141 C138 1.260 . S
C141 C139 1.479 . S
C142 C137 1.245 . S
C142 C138 1.477 . S
C142 H159 0.932 . S
C143 U126 2.882 . S
C143 C137 1.428 . S
C143 O146 1.301 . S
C143 O147 1.282 . S
O144 U126 2.441 . S
O144 C130 1.249 . S
O145 U126 2.420 . S
O145 C130 1.202 . S
O146 U126 2.455 . S
O146 C143 1.301 . S
O147 U126 2.449 . S
O147 C143 1.282 . S
H148 C121 0.931 . S
H149 C123 0.929 . S
H150 C124 0.930 . S
H151 C125 0.931 . S
H152 C132 0.932 . S
H153 C133 0.930 . S
H154 C134 0.929 . S
H155 C136 0.930 . S
H156 C138 0.932 . S
H157 C139 0.929 . S
H158 C140 0.928 . S
H159 C142 0.932 . S
C160 C161 1.264 1_565 S
C160 C165 1.479 1_455 S
C160 C170 1.465 . S
C161 C160 1.264 1_545 S
C161 C163 1.339 1_455 S
C161 H188 0.931 . S
C162 C163 1.395 1_565 S
C162 C164 1.320 . S
C163 C161 1.339 1_655 S
C163 C162 1.395 1_545 S
C163 H189 0.928 . S
C164 C162 1.320 . S
C164 C165 1.405 . S
C164 H190 0.930 . S
C165 C160 1.479 1_655 S
C165 C164 1.405 . S
C165 H191 0.931 . S
U166 O167 2.454 . S
U166 O168 2.458 . S
U166 C169 2.984 . S
U166 C170 2.847 . S
U166 C183 2.882 1_565 S
U166 O184 2.441 . S
U166 O185 2.420 . S
U166 O186 2.455 . S
U166 O187 2.449 1_565 S
O167 U166 2.454 . S
O167 C169 1.353 . S
O168 U166 2.458 . S
O168 C169 1.286 . S
C169 U166 2.984 . S
C169 O167 1.353 . S
C169 O168 1.286 . S
C169 C171 1.363 . S
C170 C160 1.465 . S
C170 U166 2.847 . S
C170 O184 1.249 . S
C170 O185 1.202 . S
C171 C169 1.363 . S
C171 C173 1.408 . S
C171 C176 1.342 . S
C172 C173 1.310 . S
C172 C175 1.461 . S
C172 H192 0.932 . S
C173 C171 1.408 . S
C173 C172 1.310 . S
C173 H193 0.930 . S
C174 C175 1.474 . S
C174 C176 1.285 . S
C174 H194 0.929 . S
C175 C172 1.461 . S
C175 C174 1.474 . S
C176 C171 1.342 . S
C176 C174 1.285 . S
C176 H195 0.930 . S
C177 C180 1.424 . S
C177 C182 1.245 . S
C177 C183 1.428 . S
C178 C181 1.260 . S
C178 C182 1.477 . S
C178 H196 0.932 . S
C179 C180 1.384 . S
C179 C181 1.479 . S
C179 H197 0.929 . S
C180 C177 1.424 . S
C180 C179 1.384 . S
C180 H198 0.928 . S
C181 C178 1.260 . S
C181 C179 1.479 . S
C182 C177 1.245 . S
C182 C178 1.477 . S
C182 H199 0.932 . S
C183 U166 2.882 1_545 S
C183 C177 1.428 . S
C183 O186 1.301 1_545 S
C183 O187 1.282 . S
O184 U166 2.441 . S
O184 C170 1.249 . S
O185 U166 2.420 . S
O185 C170 1.202 . S
O186 U166 2.455 . S
O186 C183 1.301 1_565 S
O187 U166 2.449 1_545 S
O187 C183 1.282 . S
H188 C161 0.931 . S
H189 C163 0.928 . S
H190 C164 0.930 . S
H191 C165 0.931 . S
H192 C172 0.932 . S
H193 C173 0.930 . S
H194 C174 0.929 . S
H195 C176 0.930 . S
H196 C178 0.932 . S
H197 C179 0.929 . S
H198 C180 0.928 . S
H199 C182 0.932 . S
C200 C201 1.264 . S
C200 C205 1.479 . S
C200 C210 1.465 . S
C201 C200 1.264 . S
C201 C203 1.339 . S
C201 H228 0.931 . S
C202 C203 1.395 . S
C202 C204 1.320 . S
C203 C201 1.339 . S
C203 C202 1.395 . S
C203 H229 0.929 . S
C204 C202 1.320 . S
C204 C205 1.405 . S
C204 H230 0.930 . S
C205 C200 1.479 . S
C205 C204 1.405 . S
C205 H231 0.931 . S
U206 O207 2.454 . S
U206 O208 2.458 . S
U206 C209 2.984 . S
U206 C210 2.847 . S
U206 C223 2.882 . S
U206 O224 2.441 . S
U206 O225 2.420 . S
U206 O226 2.455 . S
U206 O227 2.449 . S
O207 U206 2.454 . S
O207 C209 1.353 . S
O208 U206 2.458 . S
O208 C209 1.286 . S
C209 U206 2.984 . S
C209 O207 1.353 . S
C209 O208 1.286 . S
C209 C211 1.363 . S
C210 C200 1.465 . S
C210 U206 2.847 . S
C210 O224 1.249 . S
C210 O225 1.202 . S
C211 C209 1.363 . S
C211 C213 1.408 . S
C211 C216 1.342 . S
C212 C213 1.310 . S
C212 C215 1.461 . S
C212 H232 0.932 . S
C213 C211 1.408 . S
C213 C212 1.310 . S
C213 H233 0.930 . S
C214 C215 1.474 . S
C214 C216 1.285 . S
C214 H234 0.929 . S
C215 C212 1.461 . S
C215 C214 1.474 . S
C216 C211 1.342 . S
C216 C214 1.285 . S
C216 H235 0.930 . S
C217 C220 1.424 . S
C217 C222 1.245 . S
C217 C223 1.428 . S
C218 C221 1.260 . S
C218 C222 1.477 . S
C218 H236 0.932 . S
C219 C220 1.384 . S
C219 C221 1.479 . S
C219 H237 0.929 . S
C220 C217 1.424 . S
C220 C219 1.384 . S
C220 H238 0.928 . S
C221 C218 1.260 . S
C221 C219 1.479 . S
C222 C217 1.245 . S
C222 C218 1.477 . S
C222 H239 0.932 . S
C223 U206 2.882 . S
C223 C217 1.428 . S
C223 O226 1.301 . S
C223 O227 1.282 . S
O224 U206 2.441 . S
O224 C210 1.249 . S
O225 U206 2.420 . S
O225 C210 1.202 . S
O226 U206 2.455 . S
O226 C223 1.301 . S
O227 U206 2.449 . S
O227 C223 1.282 . S
H228 C201 0.931 . S
H229 C203 0.929 . S
H230 C204 0.930 . S
H231 C205 0.931 . S
H232 C212 0.932 . S
H233 C213 0.930 . S
H234 C214 0.929 . S
H235 C216 0.930 . S
H236 C218 0.932 . S
H237 C219 0.929 . S
H238 C220 0.928 . S
H239 C222 0.932 . S
C240 C241 1.264 . S
C240 C245 1.479 . S
C240 C250 1.465 . S
C241 C240 1.264 . S
C241 C243 1.339 . S
C241 H268 0.931 . S
C242 C243 1.395 . S
C242 C244 1.320 . S
C243 C241 1.339 . S
C243 C242 1.395 . S
C243 H269 0.929 1_655 S
C244 C242 1.320 . S
C244 C245 1.405 . S
C244 H270 0.930 . S
C245 C240 1.479 . S
C245 C244 1.405 . S
C245 H271 0.931 . S
U246 O247 2.454 . S
U246 O248 2.458 . S
U246 C249 2.984 . S
U246 C250 2.847 . S
U246 C263 2.882 . S
U246 O264 2.441 . S
U246 O265 2.420 . S
U246 O266 2.455 . S
U246 O267 2.449 . S
O247 U246 2.454 . S
O247 C249 1.353 . S
O248 U246 2.458 . S
O248 C249 1.286 . S
C249 U246 2.984 . S
C249 O247 1.353 . S
C249 O248 1.286 . S
C249 C251 1.363 . S
C250 C240 1.465 . S
C250 U246 2.847 . S
C250 O264 1.249 . S
C250 O265 1.202 . S
C251 C249 1.363 . S
C251 C253 1.408 . S
C251 C256 1.342 . S
C252 C253 1.310 . S
C252 C255 1.461 . S
C252 H272 0.932 . S
C253 C251 1.408 . S
C253 C252 1.310 . S
C253 H273 0.930 . S
C254 C255 1.474 . S
C254 C256 1.285 . S
C254 H274 0.929 . S
C255 C252 1.461 . S
C255 C254 1.474 . S
C256 C251 1.342 . S
C256 C254 1.285 . S
C256 H275 0.930 . S
C257 C260 1.424 1_655 S
C257 C262 1.245 . S
C257 C263 1.428 . S
C258 C261 1.260 . S
C258 C262 1.477 1_455 S
C258 H276 0.931 1_455 S
C259 C260 1.384 . S
C259 C261 1.479 . S
C259 H277 0.929 . S
C260 C257 1.424 1_455 S
C260 C259 1.384 . S
C260 H278 0.928 . S
C261 C258 1.260 . S
C261 C259 1.479 . S
C262 C257 1.245 . S
C262 C258 1.477 1_655 S
C262 H279 0.932 . S
C263 U246 2.882 . S
C263 C257 1.428 . S
C263 O266 1.301 . S
C263 O267 1.282 . S
O264 U246 2.441 . S
O264 C250 1.249 . S
O265 U246 2.420 . S
O265 C250 1.202 . S
O266 U246 2.455 . S
O266 C263 1.301 . S
O267 U246 2.449 . S
O267 C263 1.282 . S
H268 C241 0.931 . S
H269 C243 0.929 1_455 S
H270 C244 0.930 . S
H271 C245 0.931 . S
H272 C252 0.932 . S
H273 C253 0.930 . S
H274 C254 0.929 . S
H275 C256 0.930 . S
H276 C258 0.931 1_655 S
H277 C259 0.929 . S
H278 C260 0.928 . S
H279 C262 0.932 . S
C280 C281 1.264 . S
C280 C285 1.479 . S
C280 C290 1.465 . S
C281 C280 1.264 . S
C281 C283 1.339 . S
C281 H308 0.931 . S
C282 C283 1.395 . S
C282 C284 1.320 . S
C283 C281 1.339 . S
C283 C282 1.395 . S
C283 H309 0.929 . S
C284 C282 1.320 . S
C284 C285 1.405 . S
C284 H310 0.930 . S
C285 C280 1.479 . S
C285 C284 1.405 . S
C285 H311 0.931 . S
U286 O287 2.454 . S
U286 O288 2.458 . S
U286 C289 2.984 . S
U286 C290 2.847 . S
U286 C303 2.882 . S
U286 O304 2.441 . S
U286 O305 2.420 . S
U286 O306 2.455 . S
U286 O307 2.449 . S
O287 U286 2.454 . S
O287 C289 1.353 . S
O288 U286 2.458 . S
O288 C289 1.286 . S
C289 U286 2.984 . S
C289 O287 1.353 . S
C289 O288 1.286 . S
C289 C291 1.363 . S
C290 C280 1.465 . S
C290 U286 2.847 . S
C290 O304 1.249 . S
C290 O305 1.202 . S
C291 C289 1.363 . S
C291 C293 1.408 . S
C291 C296 1.342 . S
C292 C293 1.310 . S
C292 C295 1.461 . S
C292 H312 0.932 . S
C293 C291 1.408 . S
C293 C292 1.310 . S
C293 H313 0.930 . S
C294 C295 1.474 . S
C294 C296 1.285 . S
C294 H314 0.929 . S
C295 C292 1.461 . S
C295 C294 1.474 . S
C296 C291 1.342 . S
C296 C294 1.285 . S
C296 H315 0.930 . S
C297 C300 1.424 . S
C297 C302 1.245 . S
C297 C303 1.428 . S
C298 C301 1.260 . S
C298 C302 1.477 . S
C298 H316 0.932 . S
C299 C300 1.384 . S
C299 C301 1.479 . S
C299 H317 0.929 . S
C300 C297 1.424 . S
C300 C299 1.384 . S
C300 H318 0.928 . S
C301 C298 1.260 . S
C301 C299 1.479 . S
C302 C297 1.245 . S
C302 C298 1.477 . S
C302 H319 0.932 . S
C303 U286 2.882 . S
C303 C297 1.428 . S
C303 O306 1.301 . S
C303 O307 1.282 . S
O304 U286 2.441 . S
O304 C290 1.249 . S
O305 U286 2.420 . S
O305 C290 1.202 . S
O306 U286 2.455 . S
O306 C303 1.301 . S
O307 U286 2.449 . S
O307 C303 1.282 . S
H308 C281 0.931 . S
H309 C283 0.929 . S
H310 C284 0.930 . S
H311 C285 0.931 . S
H312 C292 0.932 . S
H313 C293 0.930 . S
H314 C294 0.929 . S
H315 C296 0.930 . S
H316 C298 0.932 . S
H317 C299 0.929 . S
H318 C300 0.928 . S
H319 C302 0.932 . S
C320 C321 1.264 . S
C320 C325 1.479 . S
C320 C330 1.465 . S
C321 C320 1.264 . S
C321 C323 1.339 . S
C321 H348 0.931 . S
C322 C323 1.395 . S
C322 C324 1.320 . S
C323 C321 1.339 . S
C323 C322 1.395 . S
C323 H349 0.929 . S
C324 C322 1.320 . S
C324 C325 1.405 . S
C324 H350 0.930 . S
C325 C320 1.479 . S
C325 C324 1.405 . S
C325 H351 0.931 . S
U326 O327 2.454 . S
U326 O328 2.458 . S
U326 C329 2.984 . S
U326 C330 2.847 . S
U326 C343 2.882 . S
U326 O344 2.441 . S
U326 O345 2.420 . S
U326 O346 2.455 . S
U326 O347 2.449 . S
O327 U326 2.454 . S
O327 C329 1.353 . S
O328 U326 2.458 . S
O328 C329 1.286 . S
C329 U326 2.984 . S
C329 O327 1.353 . S
C329 O328 1.286 . S
C329 C331 1.363 . S
C330 C320 1.465 . S
C330 U326 2.847 . S
C330 O344 1.249 . S
C330 O345 1.202 . S
C331 C329 1.363 . S
C331 C333 1.408 . S
C331 C336 1.342 . S
C332 C333 1.310 . S
C332 C335 1.461 . S
C332 H352 0.932 . S
C333 C331 1.408 . S
C333 C332 1.310 . S
C333 H353 0.930 . S
C334 C335 1.474 . S
C334 C336 1.285 . S
C334 H354 0.929 . S
C335 C332 1.461 . S
C335 C334 1.474 . S
C336 C331 1.342 . S
C336 C334 1.285 . S
C336 H355 0.930 . S
C337 C340 1.424 . S
C337 C342 1.245 . S
C337 C343 1.428 . S
C338 C341 1.260 . S
C338 C342 1.477 . S
C338 H356 0.932 . S
C339 C340 1.384 . S
C339 C341 1.479 . S
C339 H357 0.929 . S
C340 C337 1.424 . S
C340 C339 1.384 . S
C340 H358 0.928 . S
C341 C338 1.260 . S
C341 C339 1.479 . S
C342 C337 1.245 . S
C342 C338 1.477 . S
C342 H359 0.932 . S
C343 U326 2.882 . S
C343 C337 1.428 . S
C343 O346 1.301 . S
C343 O347 1.282 . S
O344 U326 2.441 . S
O344 C330 1.249 . S
O345 U326 2.420 . S
O345 C330 1.202 . S
O346 U326 2.455 . S
O346 C343 1.301 . S
O347 U326 2.449 . S
O347 C343 1.282 . S
H348 C321 0.931 . S
H349 C323 0.929 . S
H350 C324 0.930 . S
H351 C325 0.931 . S
H352 C332 0.932 . S
H353 C333 0.930 . S
H354 C334 0.929 . S
H355 C336 0.930 . S
H356 C338 0.932 . S
H357 C339 0.929 . S
H358 C340 0.928 . S
H359 C342 0.932 . S
C360 C361 1.264 . S
C360 C365 1.479 . S
C360 C370 1.465 . S
C361 C360 1.264 . S
C361 C363 1.339 . S
C361 H388 0.931 . S
C362 C363 1.395 . S
C362 C364 1.320 . S
C363 C361 1.339 . S
C363 C362 1.395 . S
C363 H389 0.929 . S
C364 C362 1.320 . S
C364 C365 1.405 . S
C364 H390 0.930 . S
C365 C360 1.479 . S
C365 C364 1.405 . S
C365 H391 0.931 . S
U366 O367 2.454 . S
U366 O368 2.458 . S
U366 C369 2.984 . S
U366 C370 2.847 . S
U366 C383 2.882 . S
U366 O384 2.441 . S
U366 O385 2.420 . S
U366 O386 2.455 . S
U366 O387 2.449 . S
O367 U366 2.454 . S
O367 C369 1.353 . S
O368 U366 2.458 . S
O368 C369 1.286 . S
C369 U366 2.984 . S
C369 O367 1.353 . S
C369 O368 1.286 . S
C369 C371 1.363 . S
C370 C360 1.465 . S
C370 U366 2.847 . S
C370 O384 1.249 . S
C370 O385 1.202 . S
C371 C369 1.363 . S
C371 C373 1.408 . S
C371 C376 1.342 1_565 S
C372 C373 1.310 1_545 S
C372 C375 1.461 . S
C372 H392 0.932 . S
C373 C371 1.408 . S
C373 C372 1.310 1_565 S
C373 H393 0.930 . S
C374 C375 1.474 . S
C374 C376 1.285 . S
C374 H394 0.929 . S
C375 C372 1.461 . S
C375 C374 1.474 . S
C376 C371 1.342 1_545 S
C376 C374 1.285 . S
C376 H395 0.930 . S
C377 C380 1.424 . S
C377 C382 1.245 . S
C377 C383 1.428 . S
C378 C381 1.260 . S
C378 C382 1.477 . S
C378 H396 0.932 . S
C379 C380 1.384 . S
C379 C381 1.479 . S
C379 H397 0.929 . S
C380 C377 1.424 . S
C380 C379 1.384 . S
C380 H398 0.928 . S
C381 C378 1.260 . S
C381 C379 1.479 . S
C382 C377 1.245 . S
C382 C378 1.477 . S
C382 H399 0.932 . S
C383 U366 2.882 . S
C383 C377 1.428 . S
C383 O386 1.301 . S
C383 O387 1.282 . S
O384 U366 2.441 . S
O384 C370 1.249 . S
O385 U366 2.420 . S
O385 C370 1.202 . S
O386 U366 2.455 . S
O386 C383 1.301 . S
O387 U366 2.449 . S
O387 C383 1.282 . S
H388 C361 0.931 . S
H389 C363 0.929 . S
H390 C364 0.930 . S
H391 C365 0.931 . S
H392 C372 0.932 . S
H393 C373 0.930 . S
H394 C374 0.929 . S
H395 C376 0.930 . S
H396 C378 0.932 . S
H397 C379 0.929 . S
H398 C380 0.928 . S
H399 C382 0.932 . S
C400 C401 1.264 . S
C400 C405 1.479 . S
C400 C410 1.465 . S
C401 C400 1.264 . S
C401 C403 1.339 . S
C401 H428 0.931 . S
C402 C403 1.395 . S
C402 C404 1.320 . S
C403 C401 1.339 . S
C403 C402 1.395 . S
C403 H429 0.929 . S
C404 C402 1.320 . S
C404 C405 1.405 . S
C404 H430 0.930 . S
C405 C400 1.479 . S
C405 C404 1.405 . S
C405 H431 0.931 . S
U406 O407 2.454 . S
U406 O408 2.458 . S
U406 C409 2.984 . S
U406 C410 2.847 . S
U406 C423 2.882 . S
U406 O424 2.441 . S
U406 O425 2.420 . S
U406 O426 2.455 . S
U406 O427 2.449 . S
O407 U406 2.454 . S
O407 C409 1.353 . S
O408 U406 2.458 . S
O408 C409 1.286 . S
C409 U406 2.984 . S
C409 O407 1.353 . S
C409 O408 1.286 . S
C409 C411 1.363 . S
C410 C400 1.465 . S
C410 U406 2.847 . S
C410 O424 1.249 . S
C410 O425 1.202 . S
C411 C409 1.363 . S
C411 C413 1.408 . S
C411 C416 1.342 . S
C412 C413 1.310 . S
C412 C415 1.461 . S
C412 H432 0.932 . S
C413 C411 1.408 . S
C413 C412 1.310 . S
C413 H433 0.930 . S
C414 C415 1.474 . S
C414 C416 1.285 . S
C414 H434 0.929 . S
C415 C412 1.461 . S
C415 C414 1.474 . S
C416 C411 1.342 . S
C416 C414 1.285 . S
C416 H435 0.930 . S
C417 C420 1.424 . S
C417 C422 1.245 . S
C417 C423 1.428 . S
C418 C421 1.260 . S
C418 C422 1.477 . S
C418 H436 0.932 . S
C419 C420 1.384 . S
C419 C421 1.479 . S
C419 H437 0.929 . S
C420 C417 1.424 . S
C420 C419 1.384 . S
C420 H438 0.928 . S
C421 C418 1.260 . S
C421 C419 1.479 . S
C422 C417 1.245 . S
C422 C418 1.477 . S
C422 H439 0.932 . S
C423 U406 2.882 . S
C423 C417 1.428 . S
C423 O426 1.301 . S
C423 O427 1.282 . S
O424 U406 2.441 . S
O424 C410 1.249 . S
O425 U406 2.420 . S
O425 C410 1.202 . S
O426 U406 2.455 . S
O426 C423 1.301 . S
O427 U406 2.449 . S
O427 C423 1.282 . S
H428 C401 0.931 . S
H429 C403 0.929 . S
H430 C404 0.930 . S
H431 C405 0.931 . S
H432 C412 0.932 . S
H433 C413 0.930 . S
H434 C414 0.929 . S
H435 C416 0.930 . S
H436 C418 0.932 . S
H437 C419 0.929 . S
H438 C420 0.928 . S
H439 C422 0.932 . S
C440 C441 1.264 . S
C440 C445 1.479 . S
C440 C450 1.465 . S
C441 C440 1.264 . S
C441 C443 1.339 . S
C441 H468 0.931 . S
C442 C443 1.395 . S
C442 C444 1.320 . S
C443 C441 1.339 . S
C443 C442 1.395 . S
C443 H469 0.929 . S
C444 C442 1.320 . S
C444 C445 1.405 . S
C444 H470 0.930 . S
C445 C440 1.479 . S
C445 C444 1.405 . S
C445 H471 0.931 . S
U446 O447 2.454 . S
U446 O448 2.458 . S
U446 C449 2.984 . S
U446 C450 2.847 . S
U446 C463 2.882 . S
U446 O464 2.441 . S
U446 O465 2.420 . S
U446 O466 2.455 . S
U446 O467 2.449 . S
O447 U446 2.454 . S
O447 C449 1.353 . S
O448 U446 2.458 . S
O448 C449 1.286 . S
C449 U446 2.984 . S
C449 O447 1.353 . S
C449 O448 1.286 . S
C449 C451 1.363 . S
C450 C440 1.465 . S
C450 U446 2.847 . S
C450 O464 1.249 . S
C450 O465 1.202 . S
C451 C449 1.363 . S
C451 C453 1.408 . S
C451 C456 1.342 . S
C452 C453 1.310 . S
C452 C455 1.461 . S
C452 H472 0.932 . S
C453 C451 1.408 . S
C453 C452 1.310 . S
C453 H473 0.930 . S
C454 C455 1.474 . S
C454 C456 1.285 . S
C454 H474 0.929 . S
C455 C452 1.461 . S
C455 C454 1.474 . S
C456 C451 1.342 . S
C456 C454 1.285 . S
C456 H475 0.930 . S
C457 C460 1.424 . S
C457 C462 1.245 . S
C457 C463 1.428 . S
C458 C461 1.260 . S
C458 C462 1.477 . S
C458 H476 0.932 . S
C459 C460 1.384 . S
C459 C461 1.479 . S
C459 H477 0.929 . S
C460 C457 1.424 . S
C460 C459 1.384 . S
C460 H478 0.928 . S
C461 C458 1.260 . S
C461 C459 1.479 . S
C462 C457 1.245 . S
C462 C458 1.477 . S
C462 H479 0.932 . S
C463 U446 2.882 . S
C463 C457 1.428 . S
C463 O466 1.301 . S
C463 O467 1.282 . S
O464 U446 2.441 . S
O464 C450 1.249 . S
O465 U446 2.420 . S
O465 C450 1.202 . S
O466 U446 2.455 . S
O466 C463 1.301 . S
O467 U446 2.449 . S
O467 C463 1.282 . S
H468 C441 0.931 . S
H469 C443 0.929 . S
H470 C444 0.930 . S
H471 C445 0.931 . S
H472 C452 0.932 . S
H473 C453 0.930 . S
H474 C454 0.929 . S
H475 C456 0.930 . S
H476 C458 0.932 . S
H477 C459 0.929 . S
H478 C460 0.928 . S
H479 C462 0.932 . S
C480 C481 1.264 . S
C480 C485 1.479 . S
C480 C490 1.465 . S
C481 C480 1.264 . S
C481 C483 1.339 . S
C481 H508 0.931 . S
C482 C483 1.395 . S
C482 C484 1.320 . S
C483 C481 1.339 . S
C483 C482 1.395 . S
C483 H509 0.929 . S
C484 C482 1.320 . S
C484 C485 1.405 . S
C484 H510 0.930 . S
C485 C480 1.479 . S
C485 C484 1.405 . S
C485 H511 0.931 . S
U486 O487 2.454 . S
U486 O488 2.458 . S
U486 C489 2.984 . S
U486 C490 2.847 . S
U486 C503 2.882 . S
U486 O504 2.441 . S
U486 O505 2.420 . S
U486 O506 2.455 . S
U486 O507 2.449 . S
O487 U486 2.454 . S
O487 C489 1.353 . S
O488 U486 2.458 . S
O488 C489 1.286 . S
C489 U486 2.984 . S
C489 O487 1.353 . S
C489 O488 1.286 . S
C489 C491 1.363 . S
C490 C480 1.465 . S
C490 U486 2.847 . S
C490 O504 1.249 . S
C490 O505 1.202 . S
C491 C489 1.363 . S
C491 C493 1.408 . S
C491 C496 1.342 . S
C492 C493 1.310 . S
C492 C495 1.461 . S
C492 H512 0.932 . S
C493 C491 1.408 . S
C493 C492 1.310 . S
C493 H513 0.930 . S
C494 C495 1.474 . S
C494 C496 1.285 . S
C494 H514 0.929 . S
C495 C492 1.461 . S
C495 C494 1.474 . S
C496 C491 1.342 . S
C496 C494 1.285 . S
C496 H515 0.930 . S
C497 C500 1.424 . S
C497 C502 1.245 . S
C497 C503 1.428 . S
C498 C501 1.260 . S
C498 C502 1.477 . S
C498 H516 0.932 . S
C499 C500 1.384 . S
C499 C501 1.479 . S
C499 H517 0.929 . S
C500 C497 1.424 . S
C500 C499 1.384 . S
C500 H518 0.928 . S
C501 C498 1.260 . S
C501 C499 1.479 . S
C502 C497 1.245 . S
C502 C498 1.477 . S
C502 H519 0.932 . S
C503 U486 2.882 . S
C503 C497 1.428 . S
C503 O506 1.301 . S
C503 O507 1.282 . S
O504 U486 2.441 . S
O504 C490 1.249 . S
O505 U486 2.420 . S
O505 C490 1.202 . S
O506 U486 2.455 . S
O506 C503 1.301 . S
O507 U486 2.449 . S
O507 C503 1.282 . S
H508 C481 0.931 . S
H509 C483 0.929 . S
H510 C484 0.930 . S
H511 C485 0.931 . S
H512 C492 0.932 . S
H513 C493 0.930 . S
H514 C494 0.929 . S
H515 C496 0.930 . S
H516 C498 0.932 . S
H517 C499 0.929 . S
H518 C500 0.928 . S
H519 C502 0.932 . S
C520 C521 1.264 . S
C520 C525 1.479 . S
C520 C530 1.465 . S
C521 C520 1.264 . S
C521 C523 1.339 . S
C521 H548 0.931 . S
C522 C523 1.395 . S
C522 C524 1.320 . S
C523 C521 1.339 . S
C523 C522 1.395 . S
C523 H549 0.929 . S
C524 C522 1.320 . S
C524 C525 1.405 . S
C524 H550 0.930 . S
C525 C520 1.479 . S
C525 C524 1.405 . S
C525 H551 0.931 . S
U526 O527 2.454 . S
U526 O528 2.458 . S
U526 C529 2.984 . S
U526 C530 2.847 . S
U526 C543 2.882 . S
U526 O544 2.441 . S
U526 O545 2.420 . S
U526 O546 2.455 . S
U526 O547 2.449 . S
O527 U526 2.454 . S
O527 C529 1.353 . S
O528 U526 2.458 . S
O528 C529 1.286 . S
C529 U526 2.984 . S
C529 O527 1.353 . S
C529 O528 1.286 . S
C529 C531 1.363 . S
C530 C520 1.465 . S
C530 U526 2.847 . S
C530 O544 1.249 . S
C530 O545 1.202 . S
C531 C529 1.363 . S
C531 C533 1.408 . S
C531 C536 1.342 1_556 S
C532 C533 1.310 . S
C532 C535 1.461 1_556 S
C532 H552 0.932 . S
C533 C531 1.408 . S
C533 C532 1.310 . S
C533 H553 0.930 . S
C534 C535 1.474 . S
C534 C536 1.285 . S
C534 H554 0.929 . S
C535 C532 1.461 1_554 S
C535 C534 1.474 . S
C536 C531 1.342 1_554 S
C536 C534 1.285 . S
C536 H555 0.930 . S
C537 C540 1.424 . S
C537 C542 1.245 . S
C537 C543 1.428 . S
C538 C541 1.260 . S
C538 C542 1.477 . S
C538 H556 0.932 . S
C539 C540 1.384 . S
C539 C541 1.479 . S
C539 H557 0.929 . S
C540 C537 1.424 . S
C540 C539 1.384 . S
C540 H558 0.928 . S
C541 C538 1.260 . S
C541 C539 1.479 . S
C542 C537 1.245 . S
C542 C538 1.477 . S
C542 H559 0.932 . S
C543 U526 2.882 . S
C543 C537 1.428 . S
C543 O546 1.301 . S
C543 O547 1.282 . S
O544 U526 2.441 . S
O544 C530 1.249 . S
O545 U526 2.420 . S
O545 C530 1.202 . S
O546 U526 2.455 . S
O546 C543 1.301 . S
O547 U526 2.449 . S
O547 C543 1.282 . S
H548 C521 0.931 . S
H549 C523 0.929 . S
H550 C524 0.930 . S
H551 C525 0.931 . S
H552 C532 0.932 . S
H553 C533 0.930 . S
H554 C534 0.929 . S
H555 C536 0.930 . S
H556 C538 0.932 . S
H557 C539 0.929 . S
H558 C540 0.928 . S
H559 C542 0.932 . S
C560 C561 1.264 . S
C560 C565 1.479 . S
C560 C570 1.465 . S
C561 C560 1.264 . S
C561 C563 1.339 . S
C561 H588 0.931 . S
C562 C563 1.395 . S
C562 C564 1.320 . S
C563 C561 1.339 . S
C563 C562 1.395 . S
C563 H589 0.929 . S
C564 C562 1.320 . S
C564 C565 1.405 . S
C564 H590 0.930 . S
C565 C560 1.479 . S
C565 C564 1.405 . S
C565 H591 0.931 . S
U566 O567 2.454 . S
U566 O568 2.458 . S
U566 C569 2.984 . S
U566 C570 2.847 . S
U566 C583 2.882 . S
U566 O584 2.441 . S
U566 O585 2.420 . S
U566 O586 2.455 . S
U566 O587 2.449 . S
O567 U566 2.454 . S
O567 C569 1.353 . S
O568 U566 2.458 . S
O568 C569 1.286 . S
C569 U566 2.984 . S
C569 O567 1.353 . S
C569 O568 1.286 . S
C569 C571 1.363 . S
C570 C560 1.465 . S
C570 U566 2.847 . S
C570 O584 1.249 . S
C570 O585 1.202 . S
C571 C569 1.363 . S
C571 C573 1.408 . S
C571 C576 1.342 . S
C572 C573 1.310 . S
C572 C575 1.461 . S
C572 H592 0.932 . S
C573 C571 1.408 . S
C573 C572 1.310 . S
C573 H593 0.930 . S
C574 C575 1.474 . S
C574 C576 1.285 . S
C574 H594 0.929 . S
C575 C572 1.461 . S
C575 C574 1.474 . S
C576 C571 1.342 . S
C576 C574 1.285 . S
C576 H595 0.930 . S
C577 C580 1.424 . S
C577 C582 1.245 . S
C577 C583 1.428 . S
C578 C581 1.260 . S
C578 C582 1.477 . S
C578 H596 0.932 . S
C579 C580 1.384 . S
C579 C581 1.479 . S
C579 H597 0.929 . S
C580 C577 1.424 . S
C580 C579 1.384 . S
C580 H598 0.928 . S
C581 C578 1.260 . S
C581 C579 1.479 . S
C582 C577 1.245 . S
C582 C578 1.477 . S
C582 H599 0.932 . S
C583 U566 2.882 . S
C583 C577 1.428 . S
C583 O586 1.301 . S
C583 O587 1.282 . S
O584 U566 2.441 . S
O584 C570 1.249 . S
O585 U566 2.420 . S
O585 C570 1.202 . S
O586 U566 2.455 . S
O586 C583 1.301 . S
O587 U566 2.449 . S
O587 C583 1.282 . S
H588 C561 0.931 . S
H589 C563 0.929 . S
H590 C564 0.930 . S
H591 C565 0.931 . S
H592 C572 0.932 . S
H593 C573 0.930 . S
H594 C574 0.929 . S
H595 C576 0.930 . S
H596 C578 0.932 . S
H597 C579 0.929 . S
H598 C580 0.928 . S
H599 C582 0.932 . S
C600 C601 1.264 . S
C600 C605 1.479 . S
C600 C610 1.465 . S
C601 C600 1.264 . S
C601 C603 1.339 . S
C601 H628 0.931 1_554 S
C602 C603 1.395 . S
C602 C604 1.320 . S
C603 C601 1.339 . S
C603 C602 1.395 . S
C603 H629 0.929 . S
C604 C602 1.320 . S
C604 C605 1.405 . S
C604 H630 0.930 . S
C605 C600 1.479 . S
C605 C604 1.405 . S
C605 H631 0.931 . S
U606 O607 2.454 . S
U606 O608 2.458 . S
U606 C609 2.984 . S
U606 C610 2.847 1_556 S
U606 C623 2.882 . S
U606 O624 2.441 1_556 S
U606 O625 2.420 . S
U606 O626 2.455 . S
U606 O627 2.449 . S
O607 U606 2.454 . S
O607 C609 1.353 . S
O608 U606 2.458 . S
O608 C609 1.286 . S
C609 U606 2.984 . S
C609 O607 1.353 . S
C609 O608 1.286 . S
C609 C611 1.363 . S
C610 C600 1.465 . S
C610 U606 2.847 1_554 S
C610 O624 1.249 . S
C610 O625 1.202 1_554 S
C611 C609 1.363 . S
C611 C613 1.408 1_556 S
C611 C616 1.342 . S
C612 C613 1.310 . S
C612 C615 1.461 1_544 S
C612 H632 0.932 . S
C613 C611 1.408 1_554 S
C613 C612 1.310 . S
C613 H633 0.930 . S
C614 C615 1.474 . S
C614 C616 1.285 1_565 S
C614 H634 0.929 . S
C615 C612 1.461 1_566 S
C615 C614 1.474 . S
C616 C611 1.342 . S
C616 C614 1.285 1_545 S
C616 H635 0.930 1_545 S
C617 C620 1.424 . S
C617 C622 1.245 . S
C617 C623 1.428 . S
C618 C621 1.260 . S
C618 C622 1.477 . S
C618 H636 0.932 . S
C619 C620 1.384 . S
C619 C621 1.479 . S
C619 H637 0.929 . S
C620 C617 1.424 . S
C620 C619 1.384 . S
C620 H638 0.928 . S
C621 C618 1.260 . S
C621 C619 1.479 . S
C622 C617 1.245 . S
C622 C618 1.477 . S
C622 H639 0.932 . S
C623 U606 2.882 . S
C623 C617 1.428 . S
C623 O626 1.301 . S
C623 O627 1.282 . S
O624 U606 2.441 1_554 S
O624 C610 1.249 . S
O625 U606 2.420 . S
O625 C610 1.202 1_556 S
O626 U606 2.455 . S
O626 C623 1.301 . S
O627 U606 2.449 . S
O627 C623 1.282 . S
H628 C601 0.931 1_556 S
H629 C603 0.929 . S
H630 C604 0.930 . S
H631 C605 0.931 . S
H632 C612 0.932 . S
H633 C613 0.930 . S
H634 C614 0.929 . S
H635 C616 0.930 1_565 S
H636 C618 0.932 . S
H637 C619 0.929 . S
H638 C620 0.928 . S
H639 C622 0.932 . S
O640 Cd641 2.223 . S
O640 C648 1.315 . S
Cd641 O640 2.223 . S
Cd641 O644 2.297 . S
Cd641 O645 2.439 . S
Cd641 O651 2.240 . S
Cd642 O643 2.240 . S
Cd642 O650 2.223 . S
Cd642 O652 2.297 . S
Cd642 O653 2.439 . S
O643 Cd642 2.240 . S
O643 C648 1.279 . S
O644 Cd641 2.297 . S
O644 C646 1.247 . S
O645 Cd641 2.439 . S
O645 C646 1.208 . S
C646 O644 1.247 . S
C646 O645 1.208 . S
C647 O652 1.247 . S
C647 O653 1.208 . S
C648 O640 1.315 . S
C648 O643 1.279 . S
C649 O650 1.315 . S
C649 O651 1.279 . S
O650 Cd642 2.223 . S
O650 C649 1.315 . S
O651 Cd641 2.240 . S
O651 C649 1.279 . S
O652 Cd642 2.297 . S
O652 C647 1.247 . S
O653 Cd642 2.439 . S
O653 C647 1.208 . S
O654 Cd655 2.223 . S
O654 C662 1.315 . S
Cd655 O654 2.223 . S
Cd655 O658 2.297 . S
Cd655 O659 2.439 . S
Cd655 O665 2.240 . S
Cd656 O657 2.240 . S
Cd656 O664 2.223 . S
Cd656 O666 2.297 . S
Cd656 O667 2.439 . S
O657 Cd656 2.240 . S
O657 C662 1.279 . S
O658 Cd655 2.297 . S
O658 C660 1.247 . S
O659 Cd655 2.439 . S
O659 C660 1.208 . S
C660 O658 1.247 . S
C660 O659 1.208 . S
C661 O666 1.247 . S
C661 O667 1.208 . S
C662 O654 1.315 . S
C662 O657 1.279 . S
C663 O664 1.315 . S
C663 O665 1.279 . S
O664 Cd656 2.223 . S
O664 C663 1.315 . S
O665 Cd655 2.240 . S
O665 C663 1.279 . S
O666 Cd656 2.297 . S
O666 C661 1.247 . S
O667 Cd656 2.439 . S
O667 C661 1.208 . S
O668 Cd669 2.223 1_556 S
O668 C676 1.315 . S
Cd669 O668 2.223 1_554 S
Cd669 O672 2.297 . S
Cd669 O673 2.439 . S
Cd669 O679 2.240 . S
Cd670 O671 2.240 . S
Cd670 O678 2.223 . S
Cd670 O680 2.297 . S
Cd670 O681 2.439 1_556 S
O671 Cd670 2.240 . S
O671 C676 1.279 . S
O672 Cd669 2.297 . S
O672 C674 1.247 . S
O673 Cd669 2.439 . S
O673 C674 1.208 . S
C674 O672 1.247 . S
C674 O673 1.208 . S
C675 O680 1.247 1_554 S
C675 O681 1.208 . S
C676 O668 1.315 . S
C676 O671 1.279 . S
C677 O678 1.315 . S
C677 O679 1.279 1_556 S
O678 Cd670 2.223 . S
O678 C677 1.315 . S
O679 Cd669 2.240 . S
O679 C677 1.279 1_554 S
O680 Cd670 2.297 . S
O680 C675 1.247 1_556 S
O681 Cd670 2.439 1_554 S
O681 C675 1.208 . S
O682 Cd683 2.223 . S
O682 C690 1.315 . S
Cd683 O682 2.223 . S
Cd683 O686 2.297 . S
Cd683 O687 2.439 . S
Cd683 O693 2.240 . S
Cd684 O685 2.240 . S
Cd684 O692 2.223 . S
Cd684 O694 2.297 . S
Cd684 O695 2.439 . S
O685 Cd684 2.240 . S
O685 C690 1.279 . S
O686 Cd683 2.297 . S
O686 C688 1.247 . S
O687 Cd683 2.439 . S
O687 C688 1.208 . S
C688 O686 1.247 . S
C688 O687 1.208 . S
C689 O694 1.247 . S
C689 O695 1.208 . S
C690 O682 1.315 . S
C690 O685 1.279 . S
C691 O692 1.315 . S
C691 O693 1.279 . S
O692 Cd684 2.223 . S
O692 C691 1.315 . S
O693 Cd683 2.240 . S
O693 C691 1.279 . S
O694 Cd684 2.297 . S
O694 C689 1.247 . S
O695 Cd684 2.439 . S
O695 C689 1.208 . S
O696 Cd697 2.223 . S
O696 C704 1.315 . S
Cd697 O696 2.223 . S
Cd697 O700 2.297 . S
Cd697 O701 2.439 . S
Cd697 O707 2.240 . S
Cd698 O699 2.240 . S
Cd698 O706 2.223 . S
Cd698 O708 2.297 . S
Cd698 O709 2.439 . S
O699 Cd698 2.240 . S
O699 C704 1.279 . S
O700 Cd697 2.297 . S
O700 C702 1.247 . S
O701 Cd697 2.439 . S
O701 C702 1.208 . S
C702 O700 1.247 . S
C702 O701 1.208 . S
C703 O708 1.247 . S
C703 O709 1.208 . S
C704 O696 1.315 . S
C704 O699 1.279 . S
C705 O706 1.315 . S
C705 O707 1.279 . S
O706 Cd698 2.223 . S
O706 C705 1.315 . S
O707 Cd697 2.240 . S
O707 C705 1.279 . S
O708 Cd698 2.297 . S
O708 C703 1.247 . S
O709 Cd698 2.439 . S
O709 C703 1.208 . S
O710 Cd711 2.223 . S
O710 C718 1.315 . S
Cd711 O710 2.223 . S
Cd711 O714 2.297 . S
Cd711 O715 2.439 . S
Cd711 O721 2.240 . S
Cd712 O713 2.240 . S
Cd712 O720 2.223 . S
Cd712 O722 2.297 . S
Cd712 O723 2.439 . S
O713 Cd712 2.240 . S
O713 C718 1.279 . S
O714 Cd711 2.297 . S
O714 C716 1.247 . S
O715 Cd711 2.439 . S
O715 C716 1.208 . S
C716 O714 1.247 . S
C716 O715 1.208 . S
C717 O722 1.247 . S
C717 O723 1.208 . S
C718 O710 1.315 . S
C718 O713 1.279 . S
C719 O720 1.315 . S
C719 O721 1.279 . S
O720 Cd712 2.223 . S
O720 C719 1.315 . S
O721 Cd711 2.240 . S
O721 C719 1.279 . S
O722 Cd712 2.297 . S
O722 C717 1.247 . S
O723 Cd712 2.439 . S
O723 C717 1.208 . S
O724 Cd725 2.223 . S
O724 C732 1.315 . S
Cd725 O724 2.223 . S
Cd725 O728 2.297 . S
Cd725 O729 2.439 . S
Cd725 O735 2.240 . S
Cd726 O727 2.240 . S
Cd726 O734 2.223 . S
Cd726 O736 2.297 . S
Cd726 O737 2.439 . S
O727 Cd726 2.240 . S
O727 C732 1.279 . S
O728 Cd725 2.297 . S
O728 C730 1.247 . S
O729 Cd725 2.439 . S
O729 C730 1.208 . S
C730 O728 1.247 . S
C730 O729 1.208 . S
C731 O736 1.247 . S
C731 O737 1.208 . S
C732 O724 1.315 . S
C732 O727 1.279 . S
C733 O734 1.315 . S
C733 O735 1.279 . S
O734 Cd726 2.223 . S
O734 C733 1.315 . S
O735 Cd725 2.240 . S
O735 C733 1.279 . S
O736 Cd726 2.297 . S
O736 C731 1.247 . S
O737 Cd726 2.439 . S
O737 C731 1.208 . S
O738 Cd739 2.223 1_545 S
O738 C746 1.315 . S
Cd739 O738 2.223 1_565 S
Cd739 O742 2.297 . S
Cd739 O743 2.439 . S
Cd739 O749 2.240 1_565 S
Cd740 O741 2.240 . S
Cd740 O748 2.223 . S
Cd740 O750 2.297 . S
Cd740 O751 2.439 1_545 S
O741 Cd740 2.240 . S
O741 C746 1.279 . S
O742 Cd739 2.297 . S
O742 C744 1.247 . S
O743 Cd739 2.439 . S
O743 C744 1.208 . S
C744 O742 1.247 . S
C744 O743 1.208 . S
C745 O750 1.247 1_565 S
C745 O751 1.208 . S
C746 O738 1.315 . S
C746 O741 1.279 . S
C747 O748 1.315 . S
C747 O749 1.279 . S
O748 Cd740 2.223 . S
O748 C747 1.315 . S
O749 Cd739 2.240 1_545 S
O749 C747 1.279 . S
O750 Cd740 2.297 . S
O750 C745 1.247 1_545 S
O751 Cd740 2.439 1_565 S
O751 C745 1.208 . S
O752 Cd753 2.223 . S
O752 C760 1.315 . S
Cd753 O752 2.223 . S
Cd753 O756 2.297 1_655 S
Cd753 O757 2.439 1_655 S
Cd753 O763 2.240 . S
Cd754 O755 2.240 . S
Cd754 O762 2.223 1_455 S
Cd754 O764 2.297 . S
Cd754 O765 2.439 . S
O755 Cd754 2.240 . S
O755 C760 1.279 1_455 S
O756 Cd753 2.297 1_455 S
O756 C758 1.247 . S
O757 Cd753 2.439 1_455 S
O757 C758 1.208 . S
C758 O756 1.247 . S
C758 O757 1.208 . S
C759 O764 1.247 . S
C759 O765 1.208 . S
C760 O752 1.315 . S
C760 O755 1.279 1_655 S
C761 O762 1.315 . S
C761 O763 1.279 . S
O762 Cd754 2.223 1_655 S
O762 C761 1.315 . S
O763 Cd753 2.240 . S
O763 C761 1.279 . S
O764 Cd754 2.297 . S
O764 C759 1.247 . S
O765 Cd754 2.439 . S
O765 C759 1.208 . S
O766 Cd767 2.223 . S
O766 C774 1.315 . S
Cd767 O766 2.223 . S
Cd767 O770 2.297 . S
Cd767 O771 2.439 . S
Cd767 O777 2.240 . S
Cd768 O769 2.240 . S
Cd768 O776 2.223 . S
Cd768 O778 2.297 . S
Cd768 O779 2.439 . S
O769 Cd768 2.240 . S
O769 C774 1.279 . S
O770 Cd767 2.297 . S
O770 C772 1.247 . S
O771 Cd767 2.439 . S
O771 C772 1.208 . S
C772 O770 1.247 . S
C772 O771 1.208 . S
C773 O778 1.247 . S
C773 O779 1.208 . S
C774 O766 1.315 . S
C774 O769 1.279 . S
C775 O776 1.315 . S
C775 O777 1.279 . S
O776 Cd768 2.223 . S
O776 C775 1.315 . S
O777 Cd767 2.240 . S
O777 C775 1.279 . S
O778 Cd768 2.297 . S
O778 C773 1.247 . S
O779 Cd768 2.439 . S
O779 C773 1.208 . S
O780 Cd781 2.223 1_655 S
O780 C788 1.315 . S
Cd781 O780 2.223 1_455 S
Cd781 O784 2.297 . S
Cd781 O785 2.439 . S
Cd781 O791 2.240 . S
Cd782 O783 2.240 . S
Cd782 O790 2.223 . S
Cd782 O792 2.297 1_655 S
Cd782 O793 2.439 1_655 S
O783 Cd782 2.240 . S
O783 C788 1.279 . S
O784 Cd781 2.297 . S
O784 C786 1.247 . S
O785 Cd781 2.439 . S
O785 C786 1.208 . S
C786 O784 1.247 . S
C786 O785 1.208 . S
C787 O792 1.247 . S
C787 O793 1.208 . S
C788 O780 1.315 . S
C788 O783 1.279 . S
C789 O790 1.315 . S
C789 O791 1.279 1_655 S
O790 Cd782 2.223 . S
O790 C789 1.315 . S
O791 Cd781 2.240 . S
O791 C789 1.279 1_455 S
O792 Cd782 2.297 1_455 S
O792 C787 1.247 . S
O793 Cd782 2.439 1_455 S
O793 C787 1.208 . S
O794 Cd795 2.223 . S
O794 C802 1.315 . S
Cd795 O794 2.223 . S
Cd795 O798 2.297 . S
Cd795 O799 2.439 . S
Cd795 O805 2.240 . S
Cd796 O797 2.240 . S
Cd796 O804 2.223 . S
Cd796 O806 2.297 . S
Cd796 O807 2.439 . S
O797 Cd796 2.240 . S
O797 C802 1.279 . S
O798 Cd795 2.297 . S
O798 C800 1.247 . S
O799 Cd795 2.439 . S
O799 C800 1.208 . S
C800 O798 1.247 . S
C800 O799 1.208 . S
C801 O806 1.247 . S
C801 O807 1.208 . S
C802 O794 1.315 . S
C802 O797 1.279 . S
C803 O804 1.315 . S
C803 O805 1.279 . S
O804 Cd796 2.223 . S
O804 C803 1.315 . S
O805 Cd795 2.240 . S
O805 C803 1.279 . S
O806 Cd796 2.297 . S
O806 C801 1.247 . S
O807 Cd796 2.439 . S
O807 C801 1.208 . S
C648 C202 1.768 1_554 S
C663 C261 2.164 . S
C282 C676 2.002 . S
C690 C162 2.100 1_545 S
C702 C402 1.694 . S
C716 C482 2.266 . S
C442 C730 1.979 . S
C745 C381 2.207 . S
C461 C761 1.926 . S
C774 C362 2.172 . S
C415 C759 1.547 . S
C772 C495 2.825 . S
C301 C788 2.169 . S
C175 C787 2.447 . S
C215 C786 1.678 . S
C242 C789 2.055 . S
C141 C691 2.204 1_565 S
C581 C689 1.472 . S
C649 C615 2.025 1_554 S
C660 C335 2.110 . S
C181 C705 2.071 . S
C746 C455 2.093 . S
C703 C375 2.711 . S
C731 C501 2.463 . S
C732 C562 1.768 . S
C621 C747 2.165 . S
C322 C704 2.002 . S
C718 C522 2.100 . S
C122 C674 1.694 . S
C688 C2 2.266 . S
C646 C42 1.979 . S
C661 C101 2.207 1_455 S
C61 C775 1.926 . S
C82 C760 2.172 . S
C135 C773 1.546 . S
C15 C758 2.825 1_554 S
C802 C341 2.169 . S
C801 C535 2.446 . S
C800 C575 1.679 . S
C602 C803 2.055 . S
C421 C719 2.204 . S
C717 C221 1.472 . S
C733 C255 2.025 . S
C744 C295 2.111 . S
C541 C677 2.071 . S
C662 C55 2.093 . S
C95 C675 2.711 . S
C647 C21 2.463 1_565 S
