# Generated by pormake.
# Topology ssa, (4,4)-cn, num edge types: 1
# Building blocks:
#     Node 0, Type 0, BuildingBlock: KOZSID_clean_sbu_0, # of connection points: 4
#     Node 1, Type 0, BuildingBlock: KOZSID_clean_sbu_0, # of connection points: 4
#     Node 2, Type 0, BuildingBlock: KOZSID_clean_sbu_0, # of connection points: 4
#     Node 3, Type 0, BuildingBlock: KOZSID_clean_sbu_0, # of connection points: 4
#     Node 4, Type 0, BuildingBlock: KOZSID_clean_sbu_0, # of connection points: 4
#     Node 5, Type 0, BuildingBlock: KOZSID_clean_sbu_0, # of connection points: 4
#     Node 6, Type 1, BuildingBlock: KOZSID_clean_sbu_0, # of connection points: 4
#     Node 7, Type 1, BuildingBlock: KOZSID_clean_sbu_0, # of connection points: 4
#     Node 8, Type 1, BuildingBlock: KOZSID_clean_sbu_0, # of connection points: 4
#     Node 9, Type 1, BuildingBlock: KOZSID_clean_sbu_0, # of connection points: 4
#     Node 10, Type 1, BuildingBlock: KOZSID_clean_sbu_0, # of connection points: 4
#     Node 11, Type 1, BuildingBlock: KOZSID_clean_sbu_0, # of connection points: 4
#     Edge 12, Type (0, 1), BuildingBlock: UVAHIK_clean_linker_0, # of connection points: 2
#     Edge 13, Type (0, 1), BuildingBlock: UVAHIK_clean_linker_0, # of connection points: 2
#     Edge 14, Type (0, 1), BuildingBlock: UVAHIK_clean_linker_0, # of connection points: 2
#     Edge 15, Type (0, 1), BuildingBlock: UVAHIK_clean_linker_0, # of connection points: 2
#     Edge 16, Type (0, 1), BuildingBlock: UVAHIK_clean_linker_0, # of connection points: 2
#     Edge 17, Type (0, 1), BuildingBlock: UVAHIK_clean_linker_0, # of connection points: 2
#     Edge 18, Type (0, 1), BuildingBlock: UVAHIK_clean_linker_0, # of connection points: 2
#     Edge 19, Type (0, 1), BuildingBlock: UVAHIK_clean_linker_0, # of connection points: 2
#     Edge 20, Type (0, 1), BuildingBlock: UVAHIK_clean_linker_0, # of connection points: 2
#     Edge 21, Type (0, 1), BuildingBlock: UVAHIK_clean_linker_0, # of connection points: 2
#     Edge 22, Type (0, 1), BuildingBlock: UVAHIK_clean_linker_0, # of connection points: 2
#     Edge 23, Type (0, 1), BuildingBlock: UVAHIK_clean_linker_0, # of connection points: 2
#     Edge 24, Type (0, 1), BuildingBlock: UVAHIK_clean_linker_0, # of connection points: 2
#     Edge 25, Type (0, 1), BuildingBlock: UVAHIK_clean_linker_0, # of connection points: 2
#     Edge 26, Type (0, 1), BuildingBlock: UVAHIK_clean_linker_0, # of connection points: 2
#     Edge 27, Type (0, 1), BuildingBlock: UVAHIK_clean_linker_0, # of connection points: 2
#     Edge 28, Type (0, 1), BuildingBlock: UVAHIK_clean_linker_0, # of connection points: 2
#     Edge 29, Type (0, 1), BuildingBlock: UVAHIK_clean_linker_0, # of connection points: 2
#     Edge 30, Type (0, 1), BuildingBlock: UVAHIK_clean_linker_0, # of connection points: 2
#     Edge 31, Type (0, 1), BuildingBlock: UVAHIK_clean_linker_0, # of connection points: 2
#     Edge 32, Type (0, 1), BuildingBlock: UVAHIK_clean_linker_0, # of connection points: 2
#     Edge 33, Type (0, 1), BuildingBlock: UVAHIK_clean_linker_0, # of connection points: 2
#     Edge 34, Type (0, 1), BuildingBlock: UVAHIK_clean_linker_0, # of connection points: 2
#     Edge 35, Type (0, 1), BuildingBlock: UVAHIK_clean_linker_0, # of connection points: 2
# Relax obj value: 0.007
# Max RMSD: 0.032
# Mean RMSD: 0.016
data_MOF--net-ssa--node1-KOZSID_clean_sbu_0--node2-KOZSID_clean_sbu_0--edge1-UVAHIK_clean_linker_0
_symmetry_space_group_name_H-M    P1
_symmetry_Int_Tables_number       1
_symmetry_cell_setting            triclinic
loop_
_symmetry_equiv_pos_as_xyz
'x, y, z'
_cell_length_a     72.268555
_cell_length_b     73.617652
_cell_length_c     51.967079
_cell_angle_alpha  90.470355
_cell_angle_beta   92.517841
_cell_angle_gamma 121.9051
loop_
_atom_site_label
_atom_site_type_symbol
_atom_site_fract_x
_atom_site_fract_y
_atom_site_fract_z
_atom_type_partial_charge
C0 C 0.96107 0.50476 0.99059 0.0
C1 C 0.94156 0.49944 0.00112 0.0
C2 C 0.94002 0.48852 0.02279 0.0
C3 C 0.95865 0.48789 0.02436 0.0
N4 N 0.97208 0.49781 0.00504 0.0
Co5 Co 0.00116 0.50112 0.00034 0.0
N6 N 0.99856 0.48452 0.0319 0.0
C7 C 0.9815 0.47519 0.04729 0.0
C8 C 0.98408 0.46443 0.06711 0.0
C9 C 0.00403 0.4671 0.06435 0.0
C10 C 0.01261 0.47956 0.04303 0.0
N11 N 0.03042 0.50474 0.99591 0.0
C12 C 0.04178 0.49848 0.0109 0.0
C13 C 0.06209 0.50535 0.00149 0.0
C14 C 0.06352 0.51609 0.9797 0.0
C15 C 0.04421 0.51538 0.97713 0.0
N16 N 0.00359 0.51744 0.96854 0.0
C17 C 0.02015 0.52585 0.95241 0.0
C18 C 0.017 0.53555 0.93177 0.0
C19 C 0.99718 0.53315 0.93475 0.0
C20 C 0.98941 0.52217 0.95725 0.0
N21 N 0.01563 0.52804 0.02167 0.0
C22 C 0.03846 0.56527 0.05372 0.0
C23 C 0.04538 0.56466 0.02924 0.0
C24 C 0.03375 0.5461 0.01362 0.0
C25 C 0.01939 0.5472 0.06146 0.0
C26 C 0.00832 0.52891 0.04526 0.0
N27 N 0.98672 0.47417 0.97902 0.0
C28 C 0.98519 0.45405 0.94115 0.0
C29 C 0.9652 0.43649 0.94764 0.0
C30 C 0.95643 0.43793 0.97041 0.0
C31 C 0.96739 0.45672 0.98571 0.0
C32 C 0.99558 0.47257 0.95699 0.0
H33 H 0.95971 0.45681 0.00264 0.0
H34 H 0.01065 0.4854 0.95083 0.0
H35 H 0.04003 0.54664 0.99534 0.0
H36 H 0.9941 0.51559 0.05243 0.0
C37 C 0.96361 0.47747 0.0432 0.0
C38 C 0.96829 0.51628 0.96676 0.0
C39 C 0.03426 0.48644 0.03438 0.0
C40 C 0.0386 0.52463 0.95736 0.0
H41 H 0.9296 0.503 0.99384 0.0
H42 H 0.92681 0.48168 0.03573 0.0
H43 H 0.97286 0.45583 0.08194 0.0
H44 H 0.01147 0.46069 0.07677 0.0
H45 H 0.07471 0.50304 0.0096 0.0
H46 H 0.07712 0.52371 0.96733 0.0
H47 H 0.0278 0.54338 0.91633 0.0
H48 H 0.9893 0.53874 0.92173 0.0
H49 H 0.06016 0.57817 0.02239 0.0
H50 H 0.01312 0.54704 0.08007 0.0
H51 H 0.9928 0.45358 0.92386 0.0
H52 H 0.94082 0.42485 0.97612 0.0
C53 C 0.53765 0.01299 0.54231 0.0
C54 C 0.54123 0.00674 0.56621 0.0
C55 C 0.52218 0.98854 0.5716 0.0
C56 C 0.5081 0.98483 0.55086 0.0
N57 N 0.51707 0.99935 0.53232 0.0
Co58 Co 0.50194 0.00104 0.49994 0.0
N59 N 0.47359 0.9749 0.50847 0.0
C60 C 0.47015 0.96226 0.52873 0.0
C61 C 0.44941 0.94462 0.52863 0.0
C62 C 0.43899 0.94592 0.50687 0.0
C63 C 0.454 0.9645 0.49502 0.0
N64 N 0.48663 0.00346 0.46827 0.0
C65 C 0.46545 0.99124 0.45963 0.0
C66 C 0.46122 0.99933 0.43762 0.0
C67 C 0.48054 0.01701 0.43179 0.0
C68 C 0.49534 0.01884 0.45065 0.0
N69 N 0.53045 0.02657 0.49079 0.0
C70 C 0.53464 0.03758 0.4689 0.0
C71 C 0.55594 0.05408 0.4679 0.0
C72 C 0.56592 0.0537 0.4906 0.0
C73 C 0.55 0.03698 0.5042 0.0
N74 N 0.50922 0.98227 0.48067 0.0
C75 C 0.5192 0.95531 0.45333 0.0
C76 C 0.5179 0.97148 0.44104 0.0
C77 C 0.51309 0.98471 0.45494 0.0
C78 C 0.5155 0.95304 0.47964 0.0
C79 C 0.51042 0.96639 0.49271 0.0
N80 N 0.49467 0.01973 0.51912 0.0
C81 C 0.49526 0.0528 0.52353 0.0
C82 C 0.48423 0.04626 0.54632 0.0
C83 C 0.4786 0.02619 0.55525 0.0
C84 C 0.48395 0.01333 0.54151 0.0
C85 C 0.50027 0.03943 0.51036 0.0
H86 H 0.47932 0.99828 0.54944 0.0
H87 H 0.50866 0.04535 0.4931 0.0
H88 H 0.51248 0.99672 0.44433 0.0
H89 H 0.50754 0.96345 0.51257 0.0
C90 C 0.48648 0.96774 0.54799 0.0
C91 C 0.55397 0.03237 0.5303 0.0
C92 C 0.44911 0.97128 0.4707 0.0
C93 C 0.51775 0.03379 0.45127 0.0
H94 H 0.556 0.01465 0.57863 0.0
H95 H 0.5189 0.97924 0.5887 0.0
H96 H 0.44269 0.93225 0.54266 0.0
H97 H 0.42227 0.93433 0.50044 0.0
H98 H 0.44583 0.99285 0.42658 0.0
H99 H 0.48355 0.02704 0.41543 0.0
H100 H 0.56313 0.06556 0.45292 0.0
H101 H 0.58284 0.06481 0.49679 0.0
H102 H 0.52025 0.97382 0.42063 0.0
H103 H 0.51667 0.9411 0.49037 0.0
H104 H 0.49979 0.06809 0.51561 0.0
H105 H 0.47036 0.02049 0.57301 0.0
C106 C 0.53623 0.52814 0.96384 0.0
C107 C 0.54038 0.54089 0.9427 0.0
C108 C 0.5214 0.53985 0.93586 0.0
C109 C 0.50686 0.52668 0.95322 0.0
N110 N 0.51548 0.5194 0.97093 0.0
Co111 Co 0.50026 0.49993 0.99974 0.0
N112 N 0.47182 0.49669 0.98811 0.0
C113 C 0.46774 0.50494 0.967 0.0
C114 C 0.4465 0.49963 0.96387 0.0
C115 C 0.43647 0.4875 0.98439 0.0
C116 C 0.45231 0.48628 0.999 0.0
N117 N 0.48512 0.48089 0.02896 0.0
C118 C 0.46458 0.47283 0.03661 0.0
C119 C 0.46108 0.46168 0.05913 0.0
C120 C 0.48006 0.46275 0.06598 0.0
C121 C 0.49407 0.47458 0.04749 0.0
N122 N 0.52863 0.50274 0.01093 0.0
C123 C 0.5324 0.49345 0.03116 0.0
C124 C 0.55322 0.49749 0.03326 0.0
C125 C 0.5633 0.50984 0.01292 0.0
C126 C 0.54798 0.5127 0.99962 0.0
N127 N 0.50772 0.52529 0.02208 0.0
C128 C 0.51772 0.56094 0.05406 0.0
C129 C 0.52307 0.54614 0.06216 0.0
C130 C 0.51788 0.52855 0.04608 0.0
C131 C 0.50733 0.5576 0.02963 0.0
C132 C 0.50262 0.5399 0.01406 0.0
N133 N 0.49281 0.47458 0.97737 0.0
C134 C 0.48951 0.44029 0.97127 0.0
C135 C 0.48299 0.43901 0.94524 0.0
C136 C 0.48136 0.45584 0.93568 0.0
C137 C 0.48633 0.47328 0.95188 0.0
C138 C 0.49428 0.45803 0.98683 0.0
H139 H 0.48485 0.48555 0.94326 0.0
H140 H 0.49931 0.45805 0.0064 0.0
H141 H 0.5221 0.51774 0.05361 0.0
H142 H 0.49478 0.53838 0.99564 0.0
C143 C 0.48459 0.51917 0.95184 0.0
C144 C 0.55216 0.5239 0.97557 0.0
C145 C 0.44839 0.47639 0.02395 0.0
C146 C 0.51593 0.4807 0.04756 0.0
H147 H 0.55543 0.54955 0.93286 0.0
H148 H 0.51834 0.54721 0.91962 0.0
H149 H 0.43935 0.5046 0.94895 0.0
H150 H 0.41958 0.48085 0.98862 0.0
H151 H 0.44654 0.45397 0.06994 0.0
H152 H 0.48343 0.45619 0.08282 0.0
H153 H 0.56011 0.49179 0.04758 0.0
H154 H 0.57992 0.51569 0.00816 0.0
H155 H 0.53088 0.54787 0.08107 0.0
H156 H 0.50304 0.56873 0.02236 0.0
H157 H 0.49133 0.42785 0.97961 0.0
H158 H 0.47609 0.45555 0.91577 0.0
C159 C 0.96072 0.45633 0.50916 0.0
C160 C 0.94062 0.44077 0.49775 0.0
C161 C 0.93859 0.44816 0.47449 0.0
C162 C 0.95742 0.46777 0.47303 0.0
N163 N 0.97147 0.47336 0.49391 0.0
Co164 Co 1.00038 0.50097 0.50011 0.0
N165 N 0.99703 0.51206 0.4661 0.0
C166 C 0.98001 0.50189 0.44844 0.0
C167 C 0.98229 0.5134 0.42695 0.0
C168 C 0.00203 0.53201 0.43098 0.0
C169 C 0.01072 0.53074 0.45477 0.0
N170 N 0.02922 0.52862 0.5064 0.0
C171 C 0.03981 0.5458 0.49133 0.0
C172 C 0.05975 0.56152 0.50293 0.0
C173 C 0.06183 0.55407 0.52613 0.0
C174 C 0.04319 0.53429 0.52738 0.0
N175 N 0.00379 0.48983 0.53404 0.0
C176 C 0.02097 0.49985 0.55152 0.0
C177 C 0.01879 0.48826 0.5729 0.0
C178 C 0.99895 0.46975 0.569 0.0
C179 C 0.99008 0.47117 0.54541 0.0
N180 N 0.01519 0.48824 0.48311 0.0
C181 C 0.03771 0.47257 0.45728 0.0
C182 C 0.04554 0.48318 0.48136 0.0
C183 C 0.03415 0.49085 0.49378 0.0
C184 C 0.01801 0.46931 0.44677 0.0
C185 C 0.00706 0.47709 0.45997 0.0
N186 N 0.98559 0.51371 0.51708 0.0
C187 C 0.98252 0.53228 0.55362 0.0
C188 C 0.96341 0.52998 0.54248 0.0
C189 C 0.95595 0.5199 0.51808 0.0
C190 C 0.96714 0.5119 0.50588 0.0
C191 C 0.99331 0.52423 0.54063 0.0
H192 H 0.9604 0.50414 0.48753 0.0
H193 H 0.00769 0.52643 0.55024 0.0
H194 H 0.0412 0.49905 0.51184 0.0
H195 H 0.99225 0.4742 0.45083 0.0
C196 C 0.96213 0.48149 0.45258 0.0
C197 C 0.96851 0.45445 0.53484 0.0
C198 C 0.03203 0.5477 0.46567 0.0
C199 C 0.03868 0.52042 0.5476 0.0
H200 H 0.92849 0.42574 0.50555 0.0
H201 H 0.92488 0.44031 0.46046 0.0
H202 H 0.97097 0.50877 0.4103 0.0
H203 H 0.00923 0.54504 0.41785 0.0
H204 H 0.07173 0.5767 0.49529 0.0
H205 H 0.07548 0.562 0.54024 0.0
H206 H 0.03018 0.49282 0.58946 0.0
H207 H 0.99177 0.45671 0.58212 0.0
H208 H 0.0605 0.48572 0.4906 0.0
H209 H 0.01131 0.46135 0.42806 0.0
H210 H 0.98889 0.53974 0.57262 0.0
H211 H 0.94144 0.51806 0.50839 0.0
C212 C 0.47541 0.99233 0.04966 0.0
C213 C 0.47683 0.00073 0.07421 0.0
C214 C 0.49568 0.02036 0.07617 0.0
C215 C 0.50482 0.02276 0.05295 0.0
N216 N 0.4929 0.0059 0.03612 0.0
Co217 Co 0.50123 0.00216 0.00094 0.0
N218 N 0.52911 0.03101 0.00404 0.0
C219 C 0.53587 0.04559 0.02381 0.0
C220 C 0.55517 0.06431 0.02013 0.0
C221 C 0.56108 0.06161 0.99651 0.0
C222 C 0.54506 0.04124 0.98719 0.0
N223 N 0.50992 0.99805 0.9662 0.0
C224 C 0.52806 0.01103 0.95333 0.0
C225 C 0.52798 0.00152 0.93009 0.0
C226 C 0.50901 0.98199 0.92801 0.0
C227 C 0.49871 0.9806 0.95008 0.0
N228 N 0.47303 0.97365 0.99747 0.0
C229 C 0.46531 0.95993 0.9767 0.0
C230 C 0.44511 0.94203 0.9794 0.0
C231 C 0.43955 0.94437 0.00339 0.0
C232 C 0.45687 0.96357 0.0141 0.0
N233 N 0.48626 0.01575 0.98506 0.0
C234 C 0.46731 0.03678 0.96122 0.0
C235 C 0.46601 0.01909 0.94911 0.0
C236 C 0.47539 0.00883 0.96134 0.0
C237 C 0.47758 0.04325 0.98585 0.0
C238 C 0.4869 0.03265 0.99727 0.0
N239 N 0.51619 0.98863 0.01687 0.0
C240 C 0.52016 0.95818 0.02093 0.0
C241 C 0.5342 0.96771 0.04281 0.0
C242 C 0.54001 0.98831 0.05066 0.0
C243 C 0.531 0.99846 0.0374 0.0
C244 C 0.51139 0.96886 0.00833 0.0
H245 H 0.53591 0.01405 0.04452 0.0
H246 H 0.50034 0.96057 0.99217 0.0
H247 H 0.47395 0.99558 0.95098 0.0
H248 H 0.49475 0.03865 0.01585 0.0
C249 C 0.52427 0.04085 0.0461 0.0
C250 C 0.45729 0.9713 0.04025 0.0
C251 C 0.54562 0.03249 0.9621 0.0
C252 C 0.47799 0.96366 0.95557 0.0
H253 H 0.4655 0.99344 0.08928 0.0
H254 H 0.50201 0.03152 0.09262 0.0
H255 H 0.56395 0.07821 0.03313 0.0
H256 H 0.57557 0.07336 0.98722 0.0
H257 H 0.54029 0.00808 0.91598 0.0
H258 H 0.50329 0.97031 0.91216 0.0
H259 H 0.43568 0.92871 0.96571 0.0
H260 H 0.4245 0.9331 0.01207 0.0
H261 H 0.45839 0.01353 0.92991 0.0
H262 H 0.47862 0.05659 0.99628 0.0
H263 H 0.51517 0.94217 0.01423 0.0
H264 H 0.55115 0.99642 0.06729 0.0
C265 C 0.51647 0.54734 0.49825 0.0
C266 C 0.51502 0.56287 0.51172 0.0
C267 C 0.50256 0.5531 0.53208 0.0
C268 C 0.49709 0.53226 0.52988 0.0
N269 N 0.50543 0.52813 0.50942 0.0
Co270 Co 0.50149 0.49995 0.49894 0.0
N271 N 0.48128 0.48518 0.52726 0.0
C272 C 0.474 0.49384 0.54405 0.0
C273 C 0.45992 0.47958 0.561 0.0
C274 C 0.45825 0.46071 0.55483 0.0
C275 C 0.47159 0.46466 0.53451 0.0
N276 N 0.49816 0.47193 0.48902 0.0
C277 C 0.48756 0.45288 0.50063 0.0
C278 C 0.49045 0.43775 0.48846 0.0
C279 C 0.50341 0.44761 0.46851 0.0
C280 C 0.50779 0.46813 0.46972 0.0
N281 N 0.52106 0.51456 0.47 0.0
C282 C 0.52732 0.50563 0.45222 0.0
C283 C 0.54032 0.51958 0.43431 0.0
C284 C 0.5422 0.5385 0.44074 0.0
C285 C 0.53013 0.53492 0.46226 0.0
N286 N 0.5271 0.50677 0.52237 0.0
C287 C 0.56338 0.51606 0.55567 0.0
C288 C 0.5627 0.51135 0.52938 0.0
C289 C 0.54455 0.5066 0.51334 0.0
C290 C 0.5455 0.51612 0.56489 0.0
C291 C 0.52781 0.51164 0.54806 0.0
N292 N 0.4759 0.49314 0.47555 0.0
C293 C 0.45481 0.47842 0.43503 0.0
C294 C 0.43965 0.48355 0.44222 0.0
C295 C 0.44299 0.49358 0.46642 0.0
C296 C 0.46107 0.49823 0.48258 0.0
C297 C 0.47263 0.4833 0.45182 0.0
H298 H 0.46276 0.50606 0.50063 0.0
H299 H 0.48354 0.47896 0.44514 0.0
H300 H 0.54507 0.50283 0.49369 0.0
H301 H 0.51484 0.5121 0.55637 0.0
C302 C 0.48227 0.51579 0.54495 0.0
C303 C 0.52721 0.55117 0.47406 0.0
C304 C 0.47557 0.44875 0.52388 0.0
C305 C 0.52096 0.48417 0.45312 0.0
H306 H 0.52171 0.5794 0.50697 0.0
H307 H 0.49738 0.56015 0.5462 0.0
H308 H 0.45235 0.48271 0.57653 0.0
H309 H 0.44878 0.44585 0.56461 0.0
H310 H 0.48419 0.42139 0.49367 0.0
H311 H 0.50923 0.44075 0.45498 0.0
H312 H 0.54745 0.51634 0.41838 0.0
H313 H 0.55122 0.55323 0.43058 0.0
H314 H 0.57619 0.51145 0.52095 0.0
H315 H 0.54488 0.5193 0.58511 0.0
H316 H 0.45285 0.47043 0.41661 0.0
H317 H 0.43191 0.49819 0.47276 0.0
C318 C 0.20516 0.47096 0.19124 0.0
C319 C 0.2103 0.49084 0.18265 0.0
C320 C 0.22894 0.50575 0.19626 0.0
C321 C 0.23424 0.49419 0.2121 0.0
N322 N 0.22024 0.47277 0.20924 0.0
Co323 Co 0.22246 0.45008 0.22759 0.0
N324 N 0.2482 0.47208 0.24996 0.0
C325 C 0.25706 0.49352 0.25046 0.0
C326 C 0.27425 0.50452 0.26824 0.0
C327 C 0.27661 0.48922 0.27974 0.0
C328 C 0.26075 0.4697 0.26809 0.0
N329 N 0.22543 0.42746 0.24511 0.0
C330 C 0.2408 0.42938 0.26282 0.0
C331 C 0.23762 0.40959 0.26864 0.0
C332 C 0.21969 0.39464 0.25398 0.0
C333 C 0.21304 0.4061 0.24002 0.0
N334 N 0.19597 0.42809 0.20612 0.0
C335 C 0.18603 0.40657 0.20709 0.0
C336 C 0.16715 0.3955 0.19179 0.0
C337 C 0.16464 0.41085 0.18066 0.0
C338 C 0.18234 0.4305 0.18967 0.0
N339 N 0.24206 0.45126 0.20121 0.0
C340 C 0.27127 0.4526 0.16595 0.0
C341 C 0.25136 0.43366 0.16937 0.0
C342 C 0.23716 0.43333 0.187 0.0
C343 C 0.27605 0.47093 0.18012 0.0
C344 C 0.26129 0.46996 0.19727 0.0
N345 N 0.20289 0.44887 0.2539 0.0
C346 C 0.1735 0.42854 0.28205 0.0
C347 C 0.17364 0.4469 0.2893 0.0
C348 C 0.18892 0.46632 0.27899 0.0
C349 C 0.20337 0.46697 0.26159 0.0
C350 C 0.18811 0.42985 0.26437 0.0
H351 H 0.21467 0.48228 0.25447 0.0
H352 H 0.18694 0.41523 0.25923 0.0
H353 H 0.22243 0.41831 0.18892 0.0
H354 H 0.26604 0.48453 0.20737 0.0
C355 C 0.25051 0.50298 0.23199 0.0
C356 C 0.18515 0.451 0.18279 0.0
C357 C 0.25896 0.44954 0.27409 0.0
C358 C 0.19483 0.39728 0.22265 0.0
H359 H 0.20116 0.49425 0.16855 0.0
H360 H 0.23714 0.52299 0.19544 0.0
H361 H 0.28435 0.52167 0.2718 0.0
H362 H 0.28897 0.49214 0.29457 0.0
H363 H 0.24737 0.40633 0.28195 0.0
H364 H 0.21241 0.37746 0.25351 0.0
H365 H 0.1563 0.37832 0.18936 0.0
H366 H 0.1511 0.40784 0.16772 0.0
H367 H 0.24669 0.41908 0.15854 0.0
H368 H 0.29137 0.48598 0.17855 0.0
H369 H 0.16183 0.41312 0.28951 0.0
H370 H 0.18981 0.48101 0.28442 0.0
C371 C 0.73453 0.20944 0.69904 0.0
C372 C 0.71919 0.21386 0.68929 0.0
C373 C 0.72106 0.2299 0.7047 0.0
C374 C 0.73735 0.23433 0.72289 0.0
N375 N 0.74619 0.22223 0.71987 0.0
Co376 Co 0.76999 0.22296 0.74216 0.0
N377 N 0.77188 0.24569 0.76565 0.0
C378 C 0.75936 0.25434 0.76426 0.0
C379 C 0.765 0.27 0.78285 0.0
C380 C 0.78237 0.2717 0.79669 0.0
C381 C 0.78633 0.25695 0.78561 0.0
N382 N 0.79392 0.22385 0.76432 0.0
C383 C 0.80626 0.23732 0.78437 0.0
C384 C 0.82187 0.23318 0.79387 0.0
C385 C 0.81949 0.21663 0.77903 0.0
C386 C 0.8027 0.21171 0.76139 0.0
N387 N 0.76802 0.20014 0.71877 0.0
C388 C 0.78006 0.19101 0.72074 0.0
C389 C 0.77462 0.17546 0.70209 0.0
C390 C 0.7579 0.17437 0.68748 0.0
C391 C 0.75412 0.18938 0.69819 0.0
N392 N 0.79226 0.24554 0.72064 0.0
C393 C 0.82422 0.27861 0.69139 0.0
C394 C 0.82535 0.2607 0.69737 0.0
C395 C 0.80935 0.2445 0.71198 0.0
C396 C 0.80666 0.27944 0.70004 0.0
C397 C 0.79108 0.26297 0.71444 0.0
N398 N 0.74765 0.20043 0.76378 0.0
C399 C 0.73342 0.16766 0.78715 0.0
C400 C 0.7156 0.16875 0.79437 0.0
C401 C 0.71421 0.186 0.78605 0.0
C402 C 0.73019 0.20143 0.77099 0.0
C403 C 0.74908 0.18349 0.77186 0.0
H404 H 0.72796 0.21402 0.76546 0.0
H405 H 0.76211 0.18162 0.76674 0.0
H406 H 0.81121 0.23137 0.71622 0.0
H407 H 0.77827 0.26479 0.72042 0.0
C408 C 0.74379 0.2488 0.7439 0.0
C409 C 0.73655 0.19215 0.68879 0.0
C410 C 0.80482 0.25518 0.79368 0.0
C411 C 0.79582 0.19684 0.74084 0.0
H412 H 0.70752 0.20596 0.67306 0.0
H413 H 0.71131 0.23708 0.70323 0.0
H414 H 0.75787 0.27959 0.78542 0.0
H415 H 0.79153 0.28294 0.81265 0.0
H416 H 0.83414 0.24163 0.8094 0.0
H417 H 0.82934 0.20954 0.78037 0.0
H418 H 0.78168 0.16578 0.6997 0.0
H419 H 0.74918 0.16351 0.67108 0.0
H420 H 0.83871 0.25934 0.69124 0.0
H421 H 0.80472 0.29271 0.69553 0.0
H422 H 0.73514 0.1545 0.79292 0.0
H423 H 0.70095 0.18782 0.79143 0.0
C424 C 0.53464 0.73559 0.22441 0.0
C425 C 0.51453 0.71988 0.21313 0.0
C426 C 0.49917 0.7224 0.22401 0.0
C427 C 0.51071 0.73953 0.24106 0.0
N428 N 0.53257 0.74828 0.2416 0.0
Co429 Co 0.5554 0.77378 0.26315 0.0
N430 N 0.53258 0.77622 0.28088 0.0
C431 C 0.51065 0.76317 0.27709 0.0
C432 C 0.49909 0.76907 0.29142 0.0
C433 C 0.5145 0.78702 0.30515 0.0
C434 C 0.53473 0.79102 0.29849 0.0
N435 N 0.57821 0.79965 0.28423 0.0
C436 C 0.57608 0.8125 0.30116 0.0
C437 C 0.59625 0.8292 0.31099 0.0
C438 C 0.61167 0.82708 0.29956 0.0
C439 C 0.60012 0.80925 0.28351 0.0
N440 N 0.57814 0.77087 0.24592 0.0
C441 C 0.60004 0.7834 0.25038 0.0
C442 C 0.61147 0.77682 0.23688 0.0
C443 C 0.59596 0.75884 0.22319 0.0
C444 C 0.57587 0.75555 0.22902 0.0
N445 N 0.55623 0.79297 0.23607 0.0
C446 C 0.55774 0.82265 0.20132 0.0
C447 C 0.57667 0.82305 0.20892 0.0
C448 C 0.57558 0.8082 0.22632 0.0
C449 C 0.53795 0.80669 0.21039 0.0
C450 C 0.53754 0.79197 0.22737 0.0
N451 N 0.55465 0.75465 0.2902 0.0
C452 C 0.57346 0.74351 0.31938 0.0
C453 C 0.55376 0.72506 0.32477 0.0
C454 C 0.53444 0.7222 0.31353 0.0
C455 C 0.53526 0.73708 0.29648 0.0
C456 C 0.57352 0.75804 0.30226 0.0
H457 H 0.52 0.7338 0.28826 0.0
H458 H 0.58907 0.77162 0.29867 0.0
H459 H 0.59065 0.80967 0.23196 0.0
H460 H 0.52193 0.78021 0.23348 0.0
C461 C 0.5014 0.74672 0.25817 0.0
C462 C 0.55508 0.73725 0.21876 0.0
C463 C 0.55542 0.80965 0.30845 0.0
C464 C 0.60934 0.80103 0.26771 0.0
H465 H 0.51125 0.70761 0.19883 0.0
H466 H 0.48164 0.71259 0.22039 0.0
H467 H 0.48156 0.76165 0.2912 0.0
H468 H 0.51111 0.79639 0.31802 0.0
H469 H 0.59948 0.8417 0.32492 0.0
H470 H 0.62922 0.83736 0.3025 0.0
H471 H 0.62899 0.78402 0.2373 0.0
H472 H 0.59911 0.74908 0.21066 0.0
H473 H 0.59235 0.83521 0.2022 0.0
H474 H 0.52283 0.80565 0.20453 0.0
H475 H 0.58888 0.74643 0.3276 0.0
H476 H 0.51872 0.70841 0.31764 0.0
C477 C 0.76107 0.57119 0.73783 0.0
C478 C 0.76468 0.59082 0.73029 0.0
C479 C 0.78255 0.60619 0.74461 0.0
C480 C 0.78894 0.59517 0.75991 0.0
N481 N 0.77632 0.57365 0.75612 0.0
Co482 Co 0.77998 0.55164 0.77426 0.0
N483 N 0.80614 0.57431 0.79558 0.0
C484 C 0.81502 0.59573 0.79512 0.0
C485 C 0.83318 0.60728 0.81148 0.0
C486 C 0.83625 0.59238 0.82294 0.0
C487 C 0.81973 0.57254 0.81281 0.0
N488 N 0.78361 0.5296 0.79239 0.0
C489 C 0.79925 0.53207 0.81003 0.0
C490 C 0.79603 0.51247 0.81705 0.0
C491 C 0.77778 0.49707 0.80334 0.0
C492 C 0.77096 0.50806 0.78873 0.0
N493 N 0.75387 0.52893 0.75292 0.0
C494 C 0.74472 0.50748 0.75388 0.0
C495 C 0.72639 0.49583 0.73789 0.0
C496 C 0.72354 0.51065 0.72597 0.0
C497 C 0.74052 0.53065 0.73525 0.0
N498 N 0.79944 0.55314 0.74756 0.0
C499 C 0.82826 0.55528 0.71141 0.0
C500 C 0.81154 0.53558 0.71955 0.0
C501 C 0.79732 0.53488 0.73734 0.0
C502 C 0.83009 0.57389 0.72117 0.0
C503 C 0.81567 0.57247 0.7392 0.0
N504 N 0.76046 0.55017 0.80092 0.0
C505 C 0.72852 0.52926 0.82528 0.0
C506 C 0.72962 0.54774 0.83424 0.0
C507 C 0.7471 0.56754 0.82737 0.0
C508 C 0.76228 0.56837 0.81092 0.0
C509 C 0.74399 0.53083 0.80885 0.0
H510 H 0.77503 0.58391 0.80616 0.0
H511 H 0.742 0.51612 0.8025 0.0
H512 H 0.78484 0.51939 0.74266 0.0
H513 H 0.81816 0.58723 0.7463 0.0
C514 C 0.80653 0.60455 0.77822 0.0
C515 C 0.74288 0.55072 0.72715 0.0
C516 C 0.81786 0.55253 0.81993 0.0
C517 C 0.75323 0.49867 0.77069 0.0
H518 H 0.7553 0.59374 0.71598 0.0
H519 H 0.78995 0.62336 0.74403 0.0
H520 H 0.84323 0.6245 0.81437 0.0
H521 H 0.8493 0.59573 0.83694 0.0
H522 H 0.80605 0.50956 0.83037 0.0
H523 H 0.7706 0.47992 0.8036 0.0
H524 H 0.71608 0.47858 0.73553 0.0
H525 H 0.7102 0.50702 0.7123 0.0
H526 H 0.80936 0.52073 0.71213 0.0
H527 H 0.84292 0.58951 0.71543 0.0
H528 H 0.71562 0.51355 0.83067 0.0
H529 H 0.7487 0.58234 0.83391 0.0
C530 C 0.24681 0.81611 0.30235 0.0
C531 C 0.24249 0.83167 0.30953 0.0
C532 C 0.22578 0.82891 0.29333 0.0
C533 C 0.22098 0.81203 0.27714 0.0
N534 N 0.23338 0.80359 0.2822 0.0
Co535 Co 0.23303 0.78003 0.26207 0.0
N536 N 0.20892 0.77651 0.23775 0.0
C537 C 0.19879 0.78755 0.23845 0.0
C538 C 0.18197 0.78072 0.2202 0.0
C539 C 0.18101 0.76402 0.2073 0.0
C540 C 0.19749 0.76176 0.2184 0.0
N541 N 0.23319 0.75697 0.24151 0.0
C542 C 0.21988 0.74457 0.22129 0.0
C543 C 0.22565 0.73054 0.21228 0.0
C544 C 0.24304 0.73392 0.22774 0.0
C545 C 0.24692 0.74983 0.24512 0.0
N546 N 0.25657 0.78296 0.28692 0.0
C547 C 0.26587 0.77111 0.28705 0.0
C548 C 0.28118 0.77655 0.30693 0.0
C549 C 0.28188 0.793 0.32016 0.0
C550 C 0.26701 0.79676 0.30736 0.0
N551 N 0.21077 0.75819 0.28426 0.0
C552 C 0.17982 0.72699 0.31619 0.0
C553 C 0.19707 0.72559 0.30759 0.0
C554 C 0.2121 0.7411 0.29179 0.0
C555 C 0.1781 0.74417 0.30815 0.0
C556 C 0.1937 0.75954 0.29237 0.0
N557 N 0.25541 0.80178 0.23978 0.0
C558 C 0.29035 0.81715 0.22069 0.0
C559 C 0.28674 0.83113 0.20646 0.0
C560 C 0.26733 0.83056 0.20987 0.0
C561 C 0.25208 0.81599 0.22659 0.0
C562 C 0.27467 0.80276 0.23688 0.0
H563 H 0.23768 0.81642 0.22839 0.0
H564 H 0.27859 0.79256 0.24678 0.0
H565 H 0.22464 0.73882 0.28585 0.0
H566 H 0.19168 0.77238 0.28698 0.0
C567 C 0.20514 0.80395 0.25686 0.0
C568 C 0.26447 0.8145 0.31434 0.0
C569 C 0.20092 0.74469 0.21093 0.0
C570 C 0.26138 0.75645 0.26684 0.0
H571 H 0.25077 0.84403 0.32457 0.0
H572 H 0.2183 0.83835 0.29307 0.0
H573 H 0.17136 0.78682 0.21706 0.0
H574 H 0.16916 0.75436 0.19185 0.0
H575 H 0.21769 0.71867 0.19663 0.0
H576 H 0.25126 0.72519 0.22707 0.0
H577 H 0.29117 0.76984 0.31084 0.0
H578 H 0.29257 0.80169 0.33689 0.0
H579 H 0.19886 0.71235 0.31276 0.0
H580 H 0.165 0.74595 0.31432 0.0
H581 H 0.30535 0.81728 0.21951 0.0
H582 H 0.26364 0.84102 0.19936 0.0
C583 C 0.42543 0.24433 0.77038 0.0
C584 C 0.40543 0.24145 0.77585 0.0
C585 C 0.38986 0.22389 0.76155 0.0
C586 C 0.40117 0.21714 0.74811 0.0
N587 N 0.42305 0.22915 0.75318 0.0
Co588 Co 0.44569 0.22584 0.7364 0.0
N589 N 0.42283 0.20043 0.71468 0.0
C590 C 0.40093 0.19123 0.71489 0.0
C591 C 0.38933 0.17332 0.69898 0.0
C592 C 0.40468 0.1707 0.68819 0.0
C593 C 0.42487 0.18731 0.6981 0.0
N594 N 0.46841 0.22298 0.71917 0.0
C595 C 0.46614 0.20816 0.70155 0.0
C596 C 0.48625 0.21228 0.6943 0.0
C597 C 0.50178 0.23005 0.70825 0.0
C598 C 0.49035 0.23585 0.72301 0.0
N599 N 0.46856 0.25082 0.75859 0.0
C600 C 0.49037 0.2592 0.75949 0.0
C601 C 0.50194 0.27608 0.77687 0.0
C602 C 0.48666 0.27882 0.7876 0.0
C603 C 0.46657 0.26348 0.77593 0.0
N604 N 0.4439 0.2061 0.76326 0.0
C605 C 0.44096 0.17621 0.79875 0.0
C606 C 0.46111 0.19188 0.79006 0.0
C607 C 0.46222 0.20665 0.77259 0.0
C608 C 0.42238 0.17609 0.79001 0.0
C609 C 0.4242 0.19104 0.77235 0.0
N610 N 0.44739 0.24554 0.70955 0.0
C611 C 0.46838 0.27835 0.68704 0.0
C612 C 0.44938 0.27567 0.67501 0.0
C613 C 0.42947 0.2572 0.67971 0.0
C614 C 0.42887 0.24244 0.69683 0.0
C615 C 0.46702 0.2632 0.70405 0.0
H616 H 0.41316 0.22888 0.69983 0.0
H617 H 0.48205 0.26632 0.71282 0.0
H618 H 0.47805 0.21818 0.7667 0.0
H619 H 0.40938 0.18983 0.76608 0.0
C620 C 0.39178 0.19968 0.73049 0.0
C621 C 0.44625 0.26214 0.78132 0.0
C622 C 0.44545 0.18947 0.69194 0.0
C623 C 0.49966 0.25203 0.74228 0.0
H624 H 0.40241 0.2512 0.78857 0.0
H625 H 0.3724 0.21704 0.76077 0.0
H626 H 0.37177 0.16317 0.69591 0.0
H627 H 0.40138 0.15783 0.67486 0.0
H628 H 0.48936 0.20309 0.68075 0.0
H629 H 0.51931 0.23747 0.70822 0.0
H630 H 0.51945 0.28563 0.78077 0.0
H631 H 0.48998 0.29102 0.80203 0.0
H632 H 0.476 0.19277 0.79672 0.0
H633 H 0.4064 0.16414 0.7962 0.0
H634 H 0.48426 0.29218 0.68353 0.0
H635 H 0.41428 0.25444 0.67091 0.0
C636 C 0.05483 0.46777 0.0401 0.0
C637 C 0.0489 0.48166 0.04996 0.0
C638 C 0.06885 0.46357 0.05463 0.0
C639 C 0.10924 0.48504 0.11105 0.0
H640 H 0.10213 0.42904 0.10686 0.0
C641 C 0.15723 0.4613 0.17985 0.0
C642 C 0.16748 0.4519 0.16818 0.0
C643 C 0.142 0.46398 0.16569 0.0
C644 C 0.10437 0.44478 0.1081 0.0
H645 H 0.05239 0.50173 0.08273 0.0
H646 H 0.0762 0.49388 0.10863 0.0
H647 H 0.07686 0.43553 0.08194 0.0
H648 H 0.16987 0.43777 0.1328 0.0
H649 H 0.14273 0.44198 0.10802 0.0
H650 H 0.1365 0.4941 0.13762 0.0
C651 C 0.07067 0.48665 0.08942 0.0
C652 C 0.08995 0.44857 0.09373 0.0
C653 C 0.05688 0.49103 0.07473 0.0
C654 C 0.16192 0.4448 0.14225 0.0
C655 C 0.14645 0.44723 0.12813 0.0
C656 C 0.12346 0.48116 0.12563 0.0
C657 C 0.07701 0.47298 0.07951 0.0
C658 C 0.09221 0.46878 0.09496 0.0
C659 C 0.13657 0.45714 0.13962 0.0
C660 C 0.12121 0.46102 0.12428 0.0
H661 H 0.04877 0.46033 0.02102 0.0
H662 H 0.07354 0.45322 0.04615 0.0
H663 H 0.11188 0.50094 0.11214 0.0
H664 H 0.16136 0.46693 0.19984 0.0
H665 H 0.1345 0.47148 0.17512 0.0
C666 C 0.59122 0.04561 0.55032 0.0
C667 C 0.57379 0.04858 0.54551 0.0
C668 C 0.60995 0.06114 0.56457 0.0
C669 C 0.6399 0.11815 0.58574 0.0
H670 H 0.66594 0.10049 0.63886 0.0
C671 C 0.71909 0.17873 0.64462 0.0
C672 C 0.71903 0.17561 0.67116 0.0
C673 C 0.70237 0.16301 0.62811 0.0
C674 C 0.6588 0.10565 0.62414 0.0
H675 H 0.56183 0.06965 0.55122 0.0
H676 H 0.59449 0.09682 0.57646 0.0
H677 H 0.63445 0.07342 0.61223 0.0
H678 H 0.70217 0.15411 0.70163 0.0
H679 H 0.67265 0.12659 0.67288 0.0
H680 H 0.6638 0.15036 0.59817 0.0
C681 C 0.59392 0.08273 0.56907 0.0
C682 C 0.64093 0.09017 0.60872 0.0
C683 C 0.57523 0.06721 0.55485 0.0
C684 C 0.70234 0.15665 0.6811 0.0
C685 C 0.68563 0.14093 0.66465 0.0
C686 C 0.65777 0.13363 0.60115 0.0
C687 C 0.61148 0.07986 0.57409 0.0
C688 C 0.63115 0.09626 0.58955 0.0
C689 C 0.68542 0.14397 0.63798 0.0
C690 C 0.66726 0.12754 0.62069 0.0
H691 H 0.59031 0.03132 0.54301 0.0
H692 H 0.62331 0.05861 0.56791 0.0
H693 H 0.63288 0.12332 0.57089 0.0
H694 H 0.73203 0.19332 0.63675 0.0
H695 H 0.70278 0.16569 0.60762 0.0
C696 C 0.54286 0.59148 0.08522 0.0
C697 C 0.52269 0.57954 0.07108 0.0
C698 C 0.54743 0.60887 0.10134 0.0
C699 C 0.5205 0.63087 0.13767 0.0
H700 H 0.57669 0.68422 0.13827 0.0
C701 C 0.54505 0.69927 0.21257 0.0
C702 C 0.55438 0.7199 0.20298 0.0
C703 C 0.54237 0.68237 0.197 0.0
C704 C 0.56091 0.66944 0.13827 0.0
H705 H 0.49143 0.57643 0.06303 0.0
H706 H 0.4994 0.60676 0.09111 0.0
H707 H 0.56936 0.65431 0.10964 0.0
H708 H 0.56852 0.73927 0.16997 0.0
H709 H 0.5641 0.70973 0.14267 0.0
H710 H 0.51194 0.64599 0.16609 0.0
C711 C 0.51168 0.60265 0.08975 0.0
C712 C 0.55677 0.65226 0.12203 0.0
C713 C 0.50719 0.5854 0.07347 0.0
C714 C 0.56149 0.7235 0.17779 0.0
C715 C 0.55897 0.70661 0.16225 0.0
C716 C 0.5247 0.64796 0.15404 0.0
C717 C 0.53185 0.61459 0.10391 0.0
C718 C 0.53647 0.6328 0.12144 0.0
C719 C 0.54905 0.68577 0.17155 0.0
C720 C 0.54492 0.66748 0.15449 0.0
H721 H 0.55522 0.58749 0.08364 0.0
H722 H 0.56306 0.61764 0.11212 0.0
H723 H 0.50477 0.61604 0.13787 0.0
H724 H 0.53942 0.69618 0.23195 0.0
H725 H 0.53493 0.66658 0.20485 0.0
C726 C 0.92792 0.52468 0.55552 0.0
C727 C 0.95087 0.53713 0.55676 0.0
C728 C 0.91609 0.53044 0.57042 0.0
C729 C 0.92092 0.55755 0.63115 0.0
H730 H 0.86702 0.55267 0.60616 0.0
C731 C 0.85363 0.54429 0.69734 0.0
C732 C 0.84395 0.55635 0.69324 0.0
C733 C 0.86831 0.54507 0.68018 0.0
C734 C 0.88217 0.55434 0.61332 0.0
H735 H 0.97931 0.56599 0.57379 0.0
H736 H 0.95857 0.5757 0.60033 0.0
H737 H 0.88982 0.54893 0.57574 0.0
H738 H 0.84194 0.57868 0.66812 0.0
H739 H 0.86753 0.57983 0.63778 0.0
H740 H 0.91298 0.56234 0.66881 0.0
C741 C 0.94983 0.56145 0.58784 0.0
C742 C 0.8951 0.55206 0.59599 0.0
C743 C 0.96168 0.55581 0.57274 0.0
C744 C 0.84928 0.5693 0.67173 0.0
C745 C 0.86379 0.56988 0.65436 0.0
C746 C 0.90788 0.55961 0.6485 0.0
C747 C 0.92695 0.54866 0.58706 0.0
C748 C 0.91442 0.55332 0.60482 0.0
C749 C 0.87342 0.55776 0.65846 0.0
C750 C 0.88823 0.55767 0.63979 0.0
H751 H 0.91905 0.51001 0.54378 0.0
H752 H 0.89847 0.52012 0.56973 0.0
H753 H 0.93563 0.55841 0.6385 0.0
H754 H 0.84993 0.53434 0.71391 0.0
H755 H 0.87534 0.5354 0.68363 0.0
C756 C 0.42527 0.96357 0.0658 0.0
C757 C 0.43948 0.95746 0.05747 0.0
C758 C 0.4086 0.95053 0.08201 0.0
C759 C 0.39105 0.90492 0.12592 0.0
H760 H 0.33515 0.90052 0.11894 0.0
C761 C 0.31519 0.83944 0.17452 0.0
C762 C 0.30317 0.84595 0.18829 0.0
C763 C 0.33145 0.85351 0.15859 0.0
C764 C 0.35074 0.90174 0.12124 0.0
H765 H 0.44736 0.93295 0.05903 0.0
H766 H 0.41785 0.90973 0.08648 0.0
H767 H 0.36418 0.92393 0.09099 0.0
H768 H 0.29871 0.87246 0.19534 0.0
H769 H 0.3268 0.89685 0.16689 0.0
H770 H 0.37733 0.88227 0.15569 0.0
C771 C 0.41982 0.92484 0.08128 0.0
C772 C 0.36745 0.91522 0.10528 0.0
C773 C 0.43662 0.93801 0.06535 0.0
C774 C 0.30743 0.86677 0.18493 0.0
C775 C 0.32359 0.88079 0.16869 0.0
C776 C 0.37428 0.89128 0.1416 0.0
C777 C 0.40561 0.93095 0.09 0.0
C778 C 0.38784 0.91693 0.10731 0.0
C779 C 0.336 0.8744 0.15566 0.0
C780 C 0.35391 0.88944 0.13937 0.0
H781 H 0.42716 0.97851 0.05986 0.0
H782 H 0.39825 0.95598 0.08853 0.0
H783 H 0.40661 0.90614 0.12859 0.0
H784 H 0.31203 0.82339 0.17594 0.0
H785 H 0.34043 0.84797 0.14841 0.0
C786 C 0.48212 0.43264 0.56235 0.0
C787 C 0.4703 0.42985 0.53902 0.0
C788 C 0.47743 0.41501 0.57684 0.0
C789 C 0.45416 0.35735 0.57116 0.0
H790 H 0.45297 0.36069 0.64554 0.0
C791 C 0.43688 0.28696 0.63582 0.0
C792 C 0.45025 0.29244 0.6586 0.0
C793 C 0.43736 0.30289 0.62089 0.0
C794 C 0.45341 0.35958 0.6248 0.0
H795 H 0.44416 0.40695 0.51251 0.0
H796 H 0.43594 0.37576 0.53785 0.0
H797 H 0.45712 0.39015 0.62006 0.0
H798 H 0.47441 0.31891 0.6837 0.0
H799 H 0.47569 0.34663 0.65735 0.0
H800 H 0.45096 0.32699 0.57594 0.0
C801 C 0.44892 0.39155 0.54483 0.0
C802 C 0.45574 0.37641 0.61024 0.0
C803 C 0.45354 0.40927 0.53041 0.0
C804 C 0.46413 0.31416 0.66608 0.0
C805 C 0.46463 0.33004 0.65117 0.0
C806 C 0.45191 0.34052 0.58575 0.0
C807 C 0.46084 0.39428 0.56819 0.0
C808 C 0.4565 0.37562 0.58332 0.0
C809 C 0.45119 0.32459 0.62848 0.0
C810 C 0.45189 0.34163 0.61277 0.0
H811 H 0.49511 0.44848 0.56922 0.0
H812 H 0.48706 0.41755 0.59459 0.0
H813 H 0.45487 0.35642 0.55045 0.0
H814 H 0.42613 0.27036 0.62946 0.0
H815 H 0.42672 0.29819 0.60358 0.0
C816 C 0.5383 0.94836 0.41848 0.0
C817 C 0.52419 0.94085 0.43892 0.0
C818 C 0.54279 0.93472 0.40493 0.0
C819 C 0.52188 0.87667 0.39301 0.0
H820 H 0.5788 0.89858 0.36592 0.0
C821 C 0.54711 0.82098 0.34987 0.0
C822 C 0.55527 0.82608 0.32522 0.0
C823 C 0.54469 0.83556 0.36448 0.0
C824 C 0.56281 0.89228 0.37331 0.0
H825 H 0.50363 0.91274 0.46078 0.0
H826 H 0.51232 0.88948 0.43827 0.0
H827 H 0.57173 0.92269 0.39006 0.0
H828 H 0.56834 0.85063 0.29695 0.0
H829 H 0.56466 0.87649 0.32283 0.0
H830 H 0.51322 0.84617 0.37671 0.0
C831 C 0.51956 0.90578 0.43218 0.0
C832 C 0.55867 0.90611 0.38704 0.0
C833 C 0.51484 0.91932 0.44548 0.0
C834 C 0.56201 0.8464 0.31594 0.0
C835 C 0.55991 0.86114 0.33072 0.0
C836 C 0.52614 0.86283 0.37965 0.0
C837 C 0.53349 0.91321 0.41158 0.0
C838 C 0.5381 0.89852 0.39705 0.0
C839 C 0.55078 0.85569 0.35491 0.0
C840 C 0.54662 0.87047 0.3696 0.0
H841 H 0.5461 0.96487 0.413 0.0
H842 H 0.55337 0.94104 0.389 0.0
H843 H 0.50568 0.87023 0.3998 0.0
H844 H 0.54195 0.80543 0.35743 0.0
H845 H 0.53785 0.83103 0.38318 0.0
C846 C 0.59218 0.54478 0.96863 0.0
C847 C 0.57102 0.52802 0.96099 0.0
C848 C 0.60998 0.54787 0.95537 0.0
C849 C 0.62613 0.5186 0.91352 0.0
H850 H 0.67345 0.57514 0.89684 0.0
C851 C 0.69021 0.53055 0.84318 0.0
C852 C 0.71215 0.54624 0.84972 0.0
C853 C 0.6736 0.52898 0.85748 0.0
C854 C 0.66047 0.55928 0.90165 0.0
H855 H 0.55139 0.50175 0.93348 0.0
H856 H 0.58242 0.50723 0.90994 0.0
H857 H 0.64305 0.57139 0.92022 0.0
H858 H 0.73386 0.57266 0.87638 0.0
H859 H 0.70469 0.56993 0.90146 0.0
H860 H 0.6434 0.50644 0.8949 0.0
C861 C 0.58543 0.51776 0.92639 0.0
C862 C 0.64308 0.55713 0.915 0.0
C863 C 0.5677 0.51469 0.93965 0.0
C864 C 0.7171 0.56051 0.87076 0.0
C865 C 0.70042 0.55895 0.88509 0.0
C866 C 0.64346 0.52074 0.90019 0.0
C867 C 0.60679 0.53422 0.93429 0.0
C868 C 0.62563 0.53674 0.92083 0.0
C869 C 0.67851 0.54308 0.87866 0.0
C870 C 0.6607 0.54107 0.89388 0.0
H871 H 0.59491 0.55522 0.98508 0.0
H872 H 0.62625 0.56059 0.962 0.0
H873 H 0.61316 0.5027 0.91822 0.0
H874 H 0.68581 0.51964 0.82671 0.0
H875 H 0.65684 0.51687 0.85173 0.0
C876 C 0.05616 0.56414 0.42881 0.0
C877 C 0.04625 0.56652 0.45009 0.0
C878 C 0.0698 0.58181 0.41432 0.0
C879 C 0.08444 0.63713 0.40002 0.0
H880 H 0.1374 0.64244 0.37725 0.0
C881 C 0.14132 0.70145 0.32899 0.0
C882 C 0.16392 0.71044 0.33327 0.0
C883 C 0.12646 0.68452 0.34376 0.0
C884 C 0.12278 0.64134 0.38362 0.0
H885 H 0.04239 0.58887 0.47287 0.0
H886 H 0.06651 0.61999 0.44778 0.0
H887 H 0.1126 0.6118 0.40186 0.0
H888 H 0.18862 0.70956 0.35749 0.0
H889 H 0.16288 0.68034 0.38326 0.0
H890 H 0.09494 0.66697 0.38212 0.0
C891 C 0.06361 0.60448 0.44204 0.0
C892 C 0.10838 0.62357 0.39746 0.0
C893 C 0.04995 0.58677 0.45652 0.0
C894 C 0.17131 0.7027 0.3533 0.0
C895 C 0.15653 0.68589 0.36806 0.0
C896 C 0.09887 0.65493 0.3861 0.0
C897 C 0.07384 0.60226 0.42083 0.0
C898 C 0.08902 0.62121 0.40588 0.0
C899 C 0.1339 0.67627 0.36318 0.0
C900 C 0.11828 0.65731 0.37782 0.0
H901 H 0.0534 0.5486 0.4235 0.0
H902 H 0.0771 0.57941 0.3979 0.0
H903 H 0.06958 0.63573 0.40597 0.0
H904 H 0.13509 0.70696 0.3136 0.0
H905 H 0.10915 0.67743 0.33936 0.0
C906 C 0.47123 0.07159 0.94987 0.0
C907 C 0.45918 0.0491 0.94768 0.0
C908 C 0.46466 0.08339 0.93565 0.0
C909 C 0.43597 0.08036 0.87519 0.0
H910 H 0.44171 0.13252 0.90212 0.0
C911 C 0.42651 0.15426 0.83784 0.0
C912 C 0.4393 0.15976 0.81629 0.0
C913 C 0.42526 0.13888 0.85449 0.0
C914 C 0.43973 0.11785 0.8944 0.0
H915 H 0.43018 0.02137 0.92965 0.0
H916 H 0.41895 0.04212 0.90436 0.0
H917 H 0.4454 0.10877 0.93157 0.0
H918 H 0.46026 0.15314 0.7948 0.0
H919 H 0.45819 0.12641 0.82392 0.0
H920 H 0.43087 0.08971 0.83795 0.0
C921 C 0.43354 0.05052 0.91706 0.0
C922 C 0.442 0.10436 0.9112 0.0
C923 C 0.44003 0.03868 0.93145 0.0
C924 C 0.45049 0.14937 0.81144 0.0
C925 C 0.44908 0.1339 0.82792 0.0
C926 C 0.43384 0.09391 0.85838 0.0
C927 C 0.44597 0.073 0.91879 0.0
C928 C 0.44062 0.08574 0.90167 0.0
C929 C 0.43656 0.12859 0.84967 0.0
C930 C 0.43619 0.11301 0.86776 0.0
H931 H 0.48627 0.08017 0.9618 0.0
H932 H 0.47478 0.10071 0.93703 0.0
H933 H 0.43498 0.0662 0.86729 0.0
H934 H 0.4178 0.16211 0.84205 0.0
H935 H 0.41544 0.13502 0.87109 0.0
C936 C 0.39993 0.47092 0.43415 0.0
C937 C 0.42062 0.47864 0.42456 0.0
C938 C 0.38213 0.46651 0.41757 0.0
C939 C 0.3687 0.47987 0.35386 0.0
H940 H 0.31128 0.42963 0.36204 0.0
C941 C 0.29681 0.45688 0.28058 0.0
C942 C 0.2765 0.44993 0.29057 0.0
C943 C 0.31403 0.45907 0.29651 0.0
C944 C 0.32716 0.44384 0.35965 0.0
H945 H 0.43876 0.48786 0.38993 0.0
H946 H 0.40769 0.47993 0.36102 0.0
H947 H 0.34204 0.43614 0.39073 0.0
H948 H 0.25789 0.4396 0.32462 0.0
H949 H 0.28804 0.44357 0.35277 0.0
H950 H 0.35388 0.48774 0.32301 0.0
C951 C 0.40526 0.47742 0.3814 0.0
C952 C 0.3448 0.44757 0.3761 0.0
C953 C 0.42303 0.48175 0.39796 0.0
C954 C 0.27345 0.44481 0.31658 0.0
C955 C 0.29068 0.44703 0.33258 0.0
C956 C 0.35108 0.47617 0.33747 0.0
C957 C 0.38459 0.46981 0.391 0.0
C958 C 0.36579 0.46565 0.37341 0.0
C959 C 0.3113 0.45447 0.32282 0.0
C960 C 0.33007 0.45811 0.34012 0.0
H961 H 0.39743 0.46812 0.45449 0.0
H962 H 0.3665 0.46085 0.42565 0.0
H963 H 0.38455 0.49415 0.35152 0.0
H964 H 0.29943 0.46093 0.26052 0.0
H965 H 0.32953 0.46448 0.28823 0.0
C966 C 0.94121 0.3967 0.94023 0.0
C967 C 0.95295 0.41725 0.93019 0.0
C968 C 0.92783 0.37881 0.92397 0.0
C969 C 0.89677 0.36495 0.86181 0.0
H970 H 0.88822 0.30894 0.87212 0.0
C971 C 0.83754 0.2921 0.79578 0.0
C972 C 0.82365 0.27322 0.80831 0.0
C973 C 0.85515 0.30943 0.80948 0.0
C974 C 0.89039 0.32449 0.86913 0.0
H975 H 0.96053 0.43503 0.89509 0.0
H976 H 0.93765 0.40374 0.86667 0.0
H977 H 0.91671 0.33987 0.89793 0.0
H978 H 0.81682 0.25718 0.84447 0.0
H979 H 0.84767 0.28766 0.86877 0.0
H980 H 0.87031 0.3496 0.83332 0.0
C981 C 0.9385 0.40152 0.88717 0.0
C982 C 0.90668 0.34216 0.88387 0.0
C983 C 0.95181 0.41941 0.90343 0.0
C984 C 0.82754 0.27169 0.8346 0.0
C985 C 0.84519 0.28901 0.84834 0.0
C986 C 0.88056 0.34732 0.84707 0.0
C987 C 0.92598 0.3811 0.89733 0.0
C988 C 0.90989 0.36255 0.88052 0.0
C989 C 0.85908 0.30811 0.83593 0.0
C990 C 0.87706 0.32689 0.85074 0.0
H991 H 0.94201 0.39449 0.96074 0.0
H992 H 0.9183 0.36332 0.93243 0.0
H993 H 0.89853 0.38035 0.85911 0.0
H994 H 0.83469 0.29341 0.77543 0.0
H995 H 0.8657 0.32386 0.79939 0.0
C996 C 0.95879 0.54263 0.95087 0.0
C997 C 0.95374 0.52145 0.95178 0.0
C998 C 0.94483 0.54738 0.93717 0.0
C999 C 0.88764 0.52231 0.91138 0.0
H1000 H 0.91089 0.57234 0.86949 0.0
C1001 C 0.83152 0.54709 0.8625 0.0
C1002 C 0.83518 0.55279 0.83671 0.0
C1003 C 0.8468 0.54499 0.87751 0.0
C1004 C 0.90414 0.55827 0.88104 0.0
H1005 H 0.9305 0.48865 0.9392 0.0
H1006 H 0.90605 0.49682 0.91508 0.0
H1007 H 0.93585 0.56471 0.89315 0.0
H1008 H 0.85763 0.56138 0.80639 0.0
H1009 H 0.88446 0.55771 0.83254 0.0
H1010 H 0.85596 0.51556 0.89887 0.0
C1011 C 0.92061 0.50979 0.92512 0.0
C1012 C 0.91845 0.554 0.8948 0.0
C1013 C 0.93461 0.50508 0.93875 0.0
C1014 C 0.85463 0.55709 0.82634 0.0
C1015 C 0.86995 0.55503 0.84134 0.0
C1016 C 0.87336 0.5266 0.89771 0.0
C1017 C 0.9255 0.53099 0.92423 0.0
C1018 C 0.91037 0.53588 0.91001 0.0
C1019 C 0.86603 0.54857 0.86698 0.0
C1020 C 0.8814 0.54458 0.88227 0.0
H1021 H 0.97346 0.55545 0.96093 0.0
H1022 H 0.94897 0.56383 0.93711 0.0
H1023 H 0.88085 0.50836 0.92314 0.0
H1024 H 0.81657 0.54371 0.87078 0.0
H1025 H 0.84342 0.54033 0.89728 0.0
C1026 C 0.42931 0.94781 0.43177 0.0
C1027 C 0.42854 0.95664 0.4554 0.0
C1028 C 0.41014 0.93427 0.41694 0.0
C1029 C 0.35288 0.89578 0.42126 0.0
H1030 H 0.34863 0.90516 0.34847 0.0
C1031 C 0.27744 0.83655 0.35563 0.0
C1032 C 0.28174 0.83241 0.33095 0.0
C1033 C 0.29402 0.85333 0.37124 0.0
C1034 C 0.34962 0.90219 0.36871 0.0
H1035 H 0.40754 0.95866 0.48218 0.0
H1036 H 0.37359 0.93415 0.45647 0.0
H1037 H 0.38044 0.93161 0.37519 0.0
H1038 H 0.30633 0.84191 0.30309 0.0
H1039 H 0.33558 0.87067 0.33055 0.0
H1040 H 0.32271 0.86588 0.4147 0.0
C1041 C 0.38908 0.93789 0.44943 0.0
C1042 C 0.36776 0.9174 0.38398 0.0
C1043 C 0.40835 0.95179 0.46407 0.0
C1044 C 0.30275 0.84504 0.32207 0.0
C1045 C 0.31937 0.86161 0.33772 0.0
C1046 C 0.33487 0.88038 0.40591 0.0
C1047 C 0.38988 0.92913 0.42571 0.0
C1048 C 0.36968 0.91414 0.41026 0.0
C1049 C 0.31523 0.86599 0.3625 0.0
C1050 C 0.33324 0.88322 0.37934 0.0
H1051 H 0.44479 0.95141 0.42483 0.0
H1052 H 0.4111 0.92751 0.39883 0.0
H1053 H 0.35415 0.8929 0.44148 0.0
H1054 H 0.26128 0.82681 0.36278 0.0
H1055 H 0.2902 0.85639 0.39009 0.0
C1056 C 0.48435 0.42351 0.90247 0.0
C1057 C 0.47814 0.42044 0.92812 0.0
C1058 C 0.47992 0.40616 0.8864 0.0
C1059 C 0.44512 0.34685 0.87912 0.0
H1060 H 0.48886 0.35415 0.83257 0.0
C1061 C 0.44042 0.27595 0.8226 0.0
C1062 C 0.44712 0.2795 0.79725 0.0
C1063 C 0.44306 0.29285 0.83824 0.0
C1064 C 0.47634 0.35189 0.84521 0.0
H1065 H 0.46208 0.39648 0.95678 0.0
H1066 H 0.45483 0.36632 0.92896 0.0
H1067 H 0.49589 0.38406 0.86056 0.0
H1068 H 0.46145 0.30308 0.76804 0.0
H1069 H 0.46593 0.33265 0.79516 0.0
H1070 H 0.42568 0.31455 0.86384 0.0
C1071 C 0.46291 0.38215 0.92116 0.0
C1072 C 0.48037 0.36908 0.86129 0.0
C1073 C 0.46733 0.39951 0.93724 0.0
C1074 C 0.45614 0.30005 0.78756 0.0
C1075 C 0.45884 0.31695 0.80317 0.0
C1076 C 0.44111 0.32962 0.86305 0.0
C1077 C 0.4692 0.38524 0.89553 0.0
C1078 C 0.46481 0.36682 0.87845 0.0
C1079 C 0.45259 0.31364 0.82882 0.0
C1080 C 0.45666 0.33194 0.84585 0.0
H1081 H 0.49293 0.43939 0.89483 0.0
H1082 H 0.48477 0.40916 0.86671 0.0
H1083 H 0.43263 0.34459 0.8918 0.0
H1084 H 0.43362 0.26022 0.83047 0.0
H1085 H 0.43827 0.28977 0.85795 0.0
C1086 C 0.03993 0.44677 0.42748 0.0
C1087 C 0.05048 0.46586 0.44271 0.0
C1088 C 0.05194 0.44135 0.41236 0.0
C1089 C 0.10737 0.45266 0.40363 0.0
H1090 H 0.08769 0.43803 0.33158 0.0
C1091 C 0.14661 0.45631 0.30161 0.0
C1092 C 0.15777 0.44583 0.3072 0.0
C1093 C 0.13195 0.45572 0.31864 0.0
C1094 C 0.09332 0.44202 0.35168 0.0
H1095 H 0.082 0.49408 0.45414 0.0
H1096 H 0.10289 0.4844 0.42814 0.0
H1097 H 0.0651 0.44242 0.36151 0.0
H1098 H 0.16231 0.42642 0.33483 0.0
H1099 H 0.13665 0.4255 0.36482 0.0
H1100 H 0.13591 0.45288 0.39361 0.0
C1101 C 0.08535 0.47356 0.42809 0.0
C1102 C 0.08032 0.44433 0.36883 0.0
C1103 C 0.07336 0.47907 0.44303 0.0
C1104 C 0.15383 0.43455 0.33003 0.0
C1105 C 0.13929 0.43414 0.34722 0.0
C1106 C 0.12029 0.45017 0.38651 0.0
C1107 C 0.07474 0.4548 0.41235 0.0
C1108 C 0.08742 0.45008 0.39487 0.0
C1109 C 0.12826 0.44478 0.3417 0.0
C1110 C 0.11358 0.44525 0.36028 0.0
H1111 H 0.02236 0.43606 0.42712 0.0
H1112 H 0.04339 0.42668 0.40057 0.0
H1113 H 0.11313 0.45694 0.42366 0.0
H1114 H 0.1492 0.46493 0.28401 0.0
H1115 H 0.12384 0.46426 0.31404 0.0
C1116 C 0.55962 0.05354 0.92232 0.0
C1117 C 0.56369 0.04571 0.94499 0.0
C1118 C 0.57644 0.06563 0.90591 0.0
C1119 C 0.6366 0.09885 0.9042 0.0
H1120 H 0.6244 0.08974 0.83024 0.0
C1121 C 0.70417 0.14428 0.83194 0.0
C1122 C 0.69853 0.15228 0.81051 0.0
C1123 C 0.68812 0.12994 0.84805 0.0
C1124 C 0.62807 0.09262 0.85084 0.0
H1125 H 0.58825 0.04421 0.96848 0.0
H1126 H 0.61783 0.0654 0.9398 0.0
H1127 H 0.59573 0.06769 0.8591 0.0
H1128 H 0.67143 0.15072 0.78864 0.0
H1129 H 0.64364 0.12614 0.81681 0.0
H1130 H 0.66888 0.12398 0.89591 0.0
C1131 C 0.60172 0.06238 0.93474 0.0
C1132 C 0.6116 0.07998 0.8674 0.0
C1133 C 0.58485 0.05022 0.95111 0.0
C1134 C 0.67641 0.14512 0.80517 0.0
C1135 C 0.66041 0.1308 0.82119 0.0
C1136 C 0.65309 0.11154 0.88761 0.0
C1137 C 0.59771 0.07018 0.91187 0.0
C1138 C 0.61557 0.08307 0.8943 0.0
C1139 C 0.66604 0.12317 0.843 0.0
C1140 C 0.64896 0.10875 0.8607 0.0
H1141 H 0.5434 0.05027 0.91733 0.0
H1142 H 0.57282 0.07163 0.88869 0.0
H1143 H 0.64018 0.10183 0.9248 0.0
H1144 H 0.72106 0.14954 0.83668 0.0
H1145 H 0.69302 0.1242 0.8645 0.0
C1146 C 0.55 0.59066 0.46771 0.0
C1147 C 0.53246 0.57034 0.45948 0.0
C1148 C 0.55485 0.60859 0.45359 0.0
C1149 C 0.54744 0.62412 0.38887 0.0
H1150 H 0.55441 0.67444 0.42347 0.0
C1151 C 0.53924 0.68665 0.33382 0.0
C1152 C 0.55336 0.7084 0.34099 0.0
C1153 C 0.53897 0.67084 0.34862 0.0
C1154 C 0.55288 0.66066 0.41357 0.0
H1155 H 0.50641 0.55238 0.43031 0.0
H1156 H 0.5149 0.58367 0.4054 0.0
H1157 H 0.55011 0.64478 0.44888 0.0
H1158 H 0.57825 0.73061 0.36939 0.0
H1159 H 0.57806 0.70287 0.39508 0.0
H1160 H 0.55004 0.6398 0.3536 0.0
C1161 C 0.52493 0.58584 0.42265 0.0
C1162 C 0.55039 0.6437 0.42811 0.0
C1163 C 0.52 0.56801 0.43689 0.0
C1164 C 0.56728 0.71399 0.36329 0.0
C1165 C 0.56704 0.69811 0.37811 0.0
C1166 C 0.55004 0.64109 0.37437 0.0
C1167 C 0.54238 0.60629 0.43087 0.0
C1168 C 0.54718 0.62511 0.41583 0.0
C1169 C 0.55291 0.67637 0.37086 0.0
C1170 C 0.5523 0.65934 0.38651 0.0
H1171 H 0.55989 0.59261 0.48503 0.0
H1172 H 0.56846 0.62417 0.46021 0.0
H1173 H 0.54539 0.61011 0.37897 0.0
H1174 H 0.52854 0.68181 0.31655 0.0
H1175 H 0.52764 0.65422 0.34272 0.0
C1176 C 0.4586 0.05147 0.57222 0.0
C1177 C 0.47871 0.06025 0.56068 0.0
C1178 C 0.45347 0.0646 0.58579 0.0
C1179 C 0.46867 0.12106 0.59392 0.0
H1180 H 0.44 0.10214 0.65823 0.0
C1181 C 0.44121 0.17027 0.6499 0.0
C1182 C 0.44564 0.17241 0.67666 0.0
C1183 C 0.44347 0.15556 0.63528 0.0
C1184 C 0.44808 0.10771 0.64035 0.0
H1185 H 0.50932 0.08981 0.55479 0.0
H1186 H 0.5004 0.11266 0.57842 0.0
H1187 H 0.44805 0.07894 0.63379 0.0
H1188 H 0.45563 0.16098 0.70934 0.0
H1189 H 0.45971 0.13529 0.68393 0.0
H1190 H 0.46924 0.15006 0.60082 0.0
C1191 C 0.48841 0.09564 0.57661 0.0
C1192 C 0.45249 0.0943 0.62619 0.0
C1193 C 0.49354 0.08252 0.56304 0.0
C1194 C 0.45195 0.15938 0.6887 0.0
C1195 C 0.45419 0.14466 0.67414 0.0
C1196 C 0.46422 0.13445 0.60806 0.0
C1197 C 0.46832 0.08686 0.58818 0.0
C1198 C 0.463 0.10086 0.60288 0.0
C1199 C 0.45025 0.14274 0.64719 0.0
C1200 C 0.45401 0.12802 0.63155 0.0
H1201 H 0.44663 0.03444 0.57045 0.0
H1202 H 0.43772 0.05732 0.59413 0.0
H1203 H 0.47654 0.12654 0.57591 0.0
H1204 H 0.43645 0.18031 0.64027 0.0
H1205 H 0.44004 0.15431 0.61463 0.0
C1206 C 0.42791 0.49032 0.04522 0.0
C1207 C 0.42932 0.47277 0.03784 0.0
C1208 C 0.40996 0.48722 0.05802 0.0
C1209 C 0.35321 0.44551 0.07285 0.0
H1210 H 0.3628 0.48795 0.12519 0.0
C1211 C 0.29029 0.43588 0.14637 0.0
C1212 C 0.28732 0.45324 0.14844 0.0
C1213 C 0.30656 0.43721 0.13145 0.0
C1214 C 0.35991 0.47606 0.1105 0.0
H1215 H 0.41321 0.43828 0.03732 0.0
H1216 H 0.38218 0.43275 0.06094 0.0
H1217 H 0.39365 0.49214 0.10285 0.0
H1218 H 0.29841 0.48516 0.13521 0.0
H1219 H 0.32729 0.48769 0.11004 0.0
H1220 H 0.31943 0.42913 0.08145 0.0
C1221 C 0.39464 0.4489 0.05642 0.0
C1222 C 0.37753 0.47848 0.09758 0.0
C1223 C 0.41247 0.45202 0.04319 0.0
C1224 C 0.30057 0.47169 0.13462 0.0
C1225 C 0.31703 0.47313 0.12007 0.0
C1226 C 0.33561 0.44291 0.08615 0.0
C1227 C 0.39319 0.46649 0.06405 0.0
C1228 C 0.3744 0.46338 0.07836 0.0
C1229 C 0.32033 0.45602 0.11865 0.0
C1230 C 0.33882 0.45831 0.10485 0.0
H1231 H 0.4407 0.50644 0.04096 0.0
H1232 H 0.40919 0.50111 0.06297 0.0
H1233 H 0.35011 0.43371 0.05796 0.0
H1234 H 0.2806 0.42153 0.15698 0.0
H1235 H 0.30894 0.42387 0.13072 0.0
C1236 C 0.94946 0.41534 0.54435 0.0
C1237 C 0.95413 0.43595 0.55078 0.0
C1238 C 0.93596 0.39802 0.55946 0.0
C1239 C 0.89393 0.38118 0.60776 0.0
H1240 H 0.90683 0.33726 0.62201 0.0
C1241 C 0.84805 0.31776 0.68279 0.0
C1242 C 0.84101 0.29639 0.67624 0.0
C1243 C 0.86248 0.33445 0.66763 0.0
C1244 C 0.90289 0.34928 0.618 0.0
H1245 H 0.94881 0.45488 0.57798 0.0
H1246 H 0.92552 0.42481 0.60472 0.0
H1247 H 0.93063 0.367 0.5952 0.0
H1248 H 0.84423 0.27596 0.64889 0.0
H1249 H 0.8696 0.30521 0.62241 0.0
H1250 H 0.86629 0.36359 0.6306 0.0
C1251 C 0.93185 0.4218 0.58779 0.0
C1252 C 0.91651 0.36634 0.60259 0.0
C1253 C 0.94528 0.43906 0.57263 0.0
C1254 C 0.84942 0.29223 0.6546 0.0
C1255 C 0.86394 0.309 0.6394 0.0
C1256 C 0.88038 0.36421 0.62318 0.0
C1257 C 0.92691 0.40101 0.58136 0.0
C1258 C 0.91227 0.38258 0.59738 0.0
C1259 C 0.87036 0.33029 0.64551 0.0
C1260 C 0.88473 0.3481 0.62865 0.0
H1261 H 0.95621 0.41266 0.52758 0.0
H1262 H 0.93235 0.38225 0.55375 0.0
H1263 H 0.88984 0.3931 0.60373 0.0
H1264 H 0.84233 0.32163 0.69966 0.0
H1265 H 0.86747 0.35068 0.67327 0.0
C1266 C 0.5483 0.94312 0.04722 0.0
C1267 C 0.5411 0.95551 0.05866 0.0
C1268 C 0.55278 0.93008 0.06226 0.0
C1269 C 0.53472 0.89952 0.11956 0.0
H1270 H 0.58771 0.89824 0.12049 0.0
C1271 C 0.54899 0.85054 0.19305 0.0
C1272 C 0.55853 0.83928 0.18497 0.0
C1273 C 0.54869 0.86564 0.17737 0.0
C1274 C 0.5727 0.89821 0.12016 0.0
H1275 H 0.53331 0.96431 0.09471 0.0
H1276 H 0.54095 0.94143 0.12085 0.0
H1277 H 0.58418 0.92323 0.09292 0.0
H1278 H 0.57569 0.83511 0.15464 0.0
H1279 H 0.57456 0.86111 0.12656 0.0
H1280 H 0.52279 0.87428 0.14601 0.0
C1281 C 0.54324 0.94191 0.10034 0.0
C1282 C 0.57076 0.91254 0.10448 0.0
C1283 C 0.53904 0.95509 0.08543 0.0
C1284 C 0.56826 0.84368 0.1612 0.0
C1285 C 0.56768 0.85861 0.14525 0.0
C1286 C 0.53651 0.88506 0.13489 0.0
C1287 C 0.54977 0.92902 0.08883 0.0
C1288 C 0.55186 0.91348 0.1044 0.0
C1289 C 0.5576 0.86953 0.15304 0.0
C1290 C 0.55564 0.88444 0.13573 0.0
H1291 H 0.55012 0.94327 0.02663 0.0
H1292 H 0.55773 0.92019 0.05301 0.0
H1293 H 0.51981 0.89968 0.1194 0.0
H1294 H 0.54174 0.84766 0.21156 0.0
H1295 H 0.54137 0.87419 0.18433 0.0
C1296 C 0.59404 0.51053 0.56889 0.0
C1297 C 0.58246 0.52067 0.57324 0.0
C1298 C 0.612 0.51493 0.58509 0.0
C1299 C 0.6518 0.55397 0.63605 0.0
H1300 H 0.66261 0.50842 0.64848 0.0
C1301 C 0.71227 0.55662 0.71632 0.0
C1302 C 0.72632 0.55013 0.70846 0.0
C1303 C 0.69561 0.55452 0.69931 0.0
C1304 C 0.65987 0.52133 0.64503 0.0
H1305 H 0.58113 0.54363 0.59836 0.0
H1306 H 0.61154 0.55032 0.62736 0.0
H1307 H 0.63131 0.50129 0.62072 0.0
H1308 H 0.73461 0.53708 0.67668 0.0
H1309 H 0.70508 0.53283 0.64707 0.0
H1310 H 0.68008 0.57369 0.66138 0.0
C1311 C 0.60712 0.53937 0.61095 0.0
C1312 C 0.64197 0.51732 0.62898 0.0
C1313 C 0.58934 0.53523 0.59448 0.0
C1314 C 0.72384 0.54204 0.68315 0.0
C1315 C 0.70696 0.53957 0.66631 0.0
C1316 C 0.6695 0.55787 0.6525 0.0
C1317 C 0.61875 0.5293 0.60649 0.0
C1318 C 0.63772 0.53361 0.62406 0.0
C1319 C 0.69254 0.54557 0.67432 0.0
C1320 C 0.67379 0.54162 0.65698 0.0
H1321 H 0.58915 0.49896 0.55307 0.0
H1322 H 0.62066 0.50709 0.58063 0.0
H1323 H 0.64938 0.56706 0.63249 0.0
H1324 H 0.7139 0.56287 0.73579 0.0
H1325 H 0.68467 0.55918 0.70599 0.0
C1326 C 0.06279 0.60494 0.06219 0.0
C1327 C 0.05184 0.58412 0.07153 0.0
C1328 C 0.07732 0.62244 0.07841 0.0
C1329 C 0.11211 0.63498 0.13783 0.0
H1330 H 0.11982 0.69106 0.13233 0.0
C1331 C 0.17054 0.70654 0.20671 0.0
C1332 C 0.18377 0.72612 0.19513 0.0
C1333 C 0.15374 0.68912 0.1922 0.0
C1334 C 0.11791 0.6755 0.13391 0.0
H1335 H 0.04694 0.56546 0.10552 0.0
H1336 H 0.07167 0.59605 0.13398 0.0
H1337 H 0.09043 0.66075 0.10665 0.0
H1338 H 0.19059 0.7431 0.15963 0.0
H1339 H 0.16102 0.71253 0.13401 0.0
H1340 H 0.13955 0.64975 0.16514 0.0
C1341 C 0.06939 0.5988 0.11397 0.0
C1342 C 0.10111 0.65817 0.11924 0.0
C1343 C 0.05497 0.58129 0.09772 0.0
C1344 C 0.18034 0.72807 0.16882 0.0
C1345 C 0.16343 0.7107 0.15432 0.0
C1346 C 0.12879 0.65228 0.15261 0.0
C1347 C 0.08111 0.6195 0.10436 0.0
C1348 C 0.09812 0.63774 0.12091 0.0
C1349 C 0.14993 0.69109 0.16592 0.0
C1350 C 0.13194 0.67271 0.15064 0.0
H1351 H 0.06046 0.60769 0.0422 0.0
H1352 H 0.08617 0.63815 0.07034 0.0
H1353 H 0.11055 0.61957 0.13921 0.0
H1354 H 0.17304 0.70486 0.22706 0.0
H1355 H 0.14348 0.67423 0.20164 0.0
loop_
_geom_bond_atom_site_label_1
_geom_bond_atom_site_label_2
_geom_bond_distance
_geom_bond_site_symmetry_2
_ccdc_geom_bond_type
C0 C1 1.443 . S
C0 N4 1.376 1_556 S
C0 C38 1.389 . S
C1 C0 1.443 . S
C1 C2 1.340 1_556 S
C1 H41 0.951 . S
C2 C1 1.340 1_554 S
C2 C3 1.439 . S
C2 H42 0.950 . S
C3 C2 1.439 . S
C3 N4 1.374 . S
C3 C37 1.395 . S
N4 C0 1.376 1_554 S
N4 C3 1.374 . S
N4 Co5 1.974 1_655 S
Co5 N4 1.974 1_455 S
Co5 N6 2.018 1_455 S
Co5 N11 2.042 1_554 S
Co5 N16 1.972 1_554 S
Co5 N21 2.297 . S
Co5 N27 2.269 1_454 S
N6 Co5 2.018 1_655 S
N6 C7 1.376 . S
N6 C10 1.383 1_655 S
C7 N6 1.376 . S
C7 C8 1.446 . S
C7 C37 1.391 . S
C8 C7 1.446 . S
C8 C9 1.339 1_655 S
C8 H43 0.949 . S
C9 C8 1.339 1_455 S
C9 C10 1.439 . S
C9 H44 0.950 . S
C10 N6 1.383 1_455 S
C10 C9 1.439 . S
C10 C39 1.392 . S
N11 Co5 2.042 1_556 S
N11 C12 1.376 1_556 S
N11 C15 1.374 . S
C12 N11 1.376 1_554 S
C12 C13 1.443 . S
C12 C39 1.389 . S
C13 C12 1.443 . S
C13 C14 1.340 1_554 S
C13 H45 0.951 . S
C14 C13 1.340 1_556 S
C14 C15 1.439 . S
C14 H46 0.950 . S
C15 N11 1.374 . S
C15 C14 1.439 . S
C15 C40 1.395 . S
N16 Co5 1.972 1_556 S
N16 C17 1.376 . S
N16 C20 1.383 1_455 S
C17 N16 1.376 . S
C17 C18 1.446 . S
C17 C40 1.391 . S
C18 C17 1.446 . S
C18 C19 1.339 1_455 S
C18 H47 0.949 . S
C19 C18 1.339 1_655 S
C19 C20 1.439 . S
C19 H48 0.950 . S
C20 N16 1.383 1_655 S
C20 C19 1.439 . S
C20 C38 1.392 . S
N21 Co5 2.297 . S
N21 C24 1.332 . S
N21 C26 1.332 . S
C22 C23 1.386 . S
C22 C25 1.388 . S
C23 C22 1.386 . S
C23 C24 1.382 . S
C23 H49 0.950 . S
C24 N21 1.332 . S
C24 C23 1.382 . S
C24 H35 0.926 1_554 S
C25 C22 1.388 . S
C25 C26 1.382 . S
C25 H50 0.950 . S
C26 N21 1.332 . S
C26 C25 1.382 . S
C26 H36 0.948 . S
N27 Co5 2.269 1_656 S
N27 C31 1.332 . S
N27 C32 1.332 . S
C28 C29 1.388 . S
C28 C32 1.382 . S
C28 H51 0.950 . S
C29 C28 1.388 . S
C29 C30 1.386 . S
C30 C29 1.386 . S
C30 C31 1.382 . S
C30 H52 0.950 . S
C31 N27 1.332 . S
C31 C30 1.382 . S
C31 H33 0.952 1_556 S
C32 N27 1.332 . S
C32 C28 1.382 . S
C32 H34 0.948 . S
H33 C31 0.952 1_554 S
H34 C32 0.948 . S
H35 C24 0.926 1_556 S
H36 C26 0.948 . S
C37 C3 1.395 . S
C37 C7 1.391 . S
C38 C0 1.389 . S
C38 C20 1.392 . S
C39 C10 1.392 . S
C39 C12 1.389 . S
C40 C15 1.395 . S
C40 C17 1.391 . S
H41 C1 0.951 . S
H42 C2 0.950 . S
H43 C8 0.949 . S
H44 C9 0.950 . S
H45 C13 0.951 . S
H46 C14 0.950 . S
H47 C18 0.949 . S
H48 C19 0.950 . S
H49 C23 0.950 . S
H50 C25 0.950 . S
H51 C28 0.950 . S
H52 C30 0.950 . S
C53 C54 1.443 . S
C53 N57 1.357 1_545 S
C53 C91 1.389 . S
C54 C53 1.443 . S
C54 C55 1.340 1_545 S
C54 H94 0.951 . S
C55 C54 1.340 1_565 S
C55 C56 1.439 . S
C55 H95 0.950 . S
C56 C55 1.439 . S
C56 N57 1.406 . S
C56 C90 1.395 . S
N57 C53 1.357 1_565 S
N57 C56 1.406 . S
N57 Co58 1.983 1_565 S
Co58 N57 1.983 1_545 S
Co58 N59 1.975 1_545 S
Co58 N64 2.020 . S
Co58 N69 2.015 . S
Co58 N74 2.247 1_545 S
Co58 N80 2.318 . S
N59 Co58 1.975 1_565 S
N59 C60 1.376 . S
N59 C63 1.383 . S
C60 N59 1.376 . S
C60 C61 1.446 . S
C60 C90 1.391 . S
C61 C60 1.446 . S
C61 C62 1.339 . S
C61 H96 0.949 . S
C62 C61 1.339 . S
C62 C63 1.439 . S
C62 H97 0.950 . S
C63 N59 1.383 . S
C63 C62 1.439 . S
C63 C92 1.392 . S
N64 Co58 2.020 . S
N64 C65 1.376 1_545 S
N64 C68 1.374 . S
C65 N64 1.376 1_565 S
C65 C66 1.443 . S
C65 C92 1.389 . S
C66 C65 1.443 . S
C66 C67 1.340 1_565 S
C66 H98 0.951 . S
C67 C66 1.340 1_545 S
C67 C68 1.439 . S
C67 H99 0.950 . S
C68 N64 1.374 . S
C68 C67 1.439 . S
C68 C93 1.395 . S
N69 Co58 2.015 . S
N69 C70 1.376 . S
N69 C73 1.383 . S
C70 N69 1.376 . S
C70 C71 1.446 . S
C70 C93 1.391 . S
C71 C70 1.446 . S
C71 C72 1.339 . S
C71 H100 0.949 . S
C72 C71 1.339 . S
C72 C73 1.439 . S
C72 H101 0.950 . S
C73 N69 1.383 . S
C73 C72 1.439 . S
C73 C91 1.392 . S
N74 Co58 2.247 1_565 S
N74 C77 1.332 . S
N74 C79 1.332 . S
C75 C76 1.386 . S
C75 C78 1.388 . S
C76 C75 1.386 . S
C76 C77 1.382 . S
C76 H102 0.950 . S
C77 N74 1.332 . S
C77 C76 1.382 . S
C77 H88 0.952 1_565 S
C78 C75 1.388 . S
C78 C79 1.382 . S
C78 H103 0.950 . S
C79 N74 1.332 . S
C79 C78 1.382 . S
C79 H89 0.948 . S
N80 Co58 2.318 . S
N80 C84 1.332 . S
N80 C85 1.332 . S
C81 C82 1.388 . S
C81 C85 1.382 . S
C81 H104 0.950 . S
C82 C81 1.388 . S
C82 C83 1.386 . S
C83 C82 1.386 . S
C83 C84 1.382 . S
C83 H105 0.950 . S
C84 N80 1.332 . S
C84 C83 1.382 . S
C84 H86 0.952 1_545 S
C85 N80 1.332 . S
C85 C81 1.382 . S
C85 H87 0.948 . S
H86 C84 0.952 1_565 S
H87 C85 0.948 . S
H88 C77 0.952 1_545 S
H89 C79 0.948 . S
C90 C56 1.395 . S
C90 C60 1.391 . S
C91 C53 1.389 . S
C91 C73 1.392 . S
C92 C63 1.392 . S
C92 C65 1.389 . S
C93 C68 1.395 . S
C93 C70 1.391 . S
H94 C54 0.951 . S
H95 C55 0.950 . S
H96 C61 0.949 . S
H97 C62 0.950 . S
H98 C66 0.951 . S
H99 C67 0.950 . S
H100 C71 0.949 . S
H101 C72 0.950 . S
H102 C76 0.950 . S
H103 C78 0.950 . S
H104 C81 0.950 . S
H105 C83 0.950 . S
C106 C107 1.443 . S
C106 N110 1.376 . S
C106 C144 1.389 . S
C107 C106 1.443 . S
C107 C108 1.340 . S
C107 H147 0.951 . S
C108 C107 1.340 . S
C108 C109 1.439 . S
C108 H148 0.950 . S
C109 C108 1.439 . S
C109 N110 1.374 . S
C109 C143 1.395 . S
N110 C106 1.376 . S
N110 C109 1.374 . S
N110 Co111 1.990 1_556 S
Co111 N110 1.990 1_554 S
Co111 N112 1.991 1_554 S
Co111 N117 2.027 . S
Co111 N122 1.998 . S
Co111 N127 2.293 . S
Co111 N133 2.272 1_554 S
N112 Co111 1.991 1_556 S
N112 C113 1.376 . S
N112 C116 1.383 1_556 S
C113 N112 1.376 . S
C113 C114 1.446 . S
C113 C143 1.391 . S
C114 C113 1.446 . S
C114 C115 1.339 . S
C114 H149 0.949 . S
C115 C114 1.339 . S
C115 C116 1.439 1_556 S
C115 H150 0.950 1_556 S
C116 N112 1.383 1_554 S
C116 C115 1.439 1_554 S
C116 C145 1.392 . S
N117 Co111 2.027 . S
N117 C118 1.376 . S
N117 C121 1.374 . S
C118 N117 1.376 . S
C118 C119 1.443 . S
C118 C145 1.389 . S
C119 C118 1.443 . S
C119 C120 1.340 . S
C119 H151 0.951 . S
C120 C119 1.340 . S
C120 C121 1.439 . S
C120 H152 0.950 . S
C121 N117 1.374 . S
C121 C120 1.439 . S
C121 C146 1.395 . S
N122 Co111 1.998 . S
N122 C123 1.376 . S
N122 C126 1.383 1_554 S
C123 N122 1.376 . S
C123 C124 1.446 . S
C123 C146 1.391 . S
C124 C123 1.446 . S
C124 C125 1.339 . S
C124 H153 0.949 . S
C125 C124 1.339 . S
C125 C126 1.439 1_554 S
C125 H154 0.950 1_554 S
C126 N122 1.383 1_556 S
C126 C125 1.439 1_556 S
C126 C144 1.392 . S
N127 Co111 2.293 . S
N127 C130 1.332 . S
N127 C132 1.332 . S
C128 C129 1.386 . S
C128 C131 1.388 . S
C129 C128 1.386 . S
C129 C130 1.382 . S
C129 H155 0.950 . S
C130 N127 1.332 . S
C130 C129 1.382 . S
C130 H141 0.952 . S
C131 C128 1.388 . S
C131 C132 1.382 . S
C131 H156 0.950 . S
C132 N127 1.332 . S
C132 C131 1.382 . S
C132 H142 0.948 . S
N133 Co111 2.272 1_556 S
N133 C137 1.332 . S
N133 C138 1.332 . S
C134 C135 1.388 . S
C134 C138 1.382 . S
C134 H157 0.950 . S
C135 C134 1.388 . S
C135 C136 1.386 . S
C136 C135 1.386 . S
C136 C137 1.382 . S
C136 H158 0.950 . S
C137 N133 1.332 . S
C137 C136 1.382 . S
C137 H139 0.952 . S
C138 N133 1.332 . S
C138 C134 1.382 . S
C138 H140 0.948 . S
H139 C137 0.952 . S
H140 C138 0.948 . S
H141 C130 0.952 . S
H142 C132 0.948 . S
C143 C109 1.395 . S
C143 C113 1.391 . S
C144 C106 1.389 . S
C144 C126 1.392 . S
C145 C116 1.392 . S
C145 C118 1.389 . S
C146 C121 1.395 . S
C146 C123 1.391 . S
H147 C107 0.951 . S
H148 C108 0.950 . S
H149 C114 0.949 . S
H150 C115 0.950 1_554 S
H151 C119 0.951 . S
H152 C120 0.950 . S
H153 C124 0.949 . S
H154 C125 0.950 1_556 S
H155 C129 0.950 . S
H156 C131 0.950 . S
H157 C134 0.950 . S
H158 C136 0.950 . S
C159 C160 1.443 . S
C159 N163 1.376 . S
C159 C197 1.389 . S
C160 C159 1.443 . S
C160 C161 1.340 . S
C160 H200 0.951 . S
C161 C160 1.340 . S
C161 C162 1.439 . S
C161 H201 0.950 . S
C162 C161 1.439 . S
C162 N163 1.374 . S
C162 C196 1.395 . S
N163 C159 1.376 . S
N163 C162 1.374 . S
N163 Co164 1.986 1_655 S
Co164 N163 1.986 1_455 S
Co164 N165 1.981 1_455 S
Co164 N170 2.031 . S
Co164 N175 2.009 . S
Co164 N180 2.311 . S
Co164 N186 2.254 1_455 S
N165 Co164 1.981 1_655 S
N165 C166 1.376 . S
N165 C169 1.383 1_655 S
C166 N165 1.376 . S
C166 C167 1.446 . S
C166 C196 1.391 . S
C167 C166 1.446 . S
C167 C168 1.339 1_655 S
C167 H202 0.949 . S
C168 C167 1.339 1_455 S
C168 C169 1.439 . S
C168 H203 0.950 . S
C169 N165 1.383 1_455 S
C169 C168 1.439 . S
C169 C198 1.392 . S
N170 Co164 2.031 . S
N170 C171 1.376 . S
N170 C174 1.374 . S
C171 N170 1.376 . S
C171 C172 1.443 . S
C171 C198 1.389 . S
C172 C171 1.443 . S
C172 C173 1.340 . S
C172 H204 0.951 . S
C173 C172 1.340 . S
C173 C174 1.439 . S
C173 H205 0.950 . S
C174 N170 1.374 . S
C174 C173 1.439 . S
C174 C199 1.395 . S
N175 Co164 2.009 . S
N175 C176 1.376 . S
N175 C179 1.383 1_455 S
C176 N175 1.376 . S
C176 C177 1.446 . S
C176 C199 1.391 . S
C177 C176 1.446 . S
C177 C178 1.321 1_455 S
C177 H206 0.949 . S
C178 C177 1.321 1_655 S
C178 C179 1.452 . S
C178 H207 0.953 . S
C179 N175 1.383 1_655 S
C179 C178 1.452 . S
C179 C197 1.392 . S
N180 Co164 2.311 . S
N180 C183 1.332 . S
N180 C185 1.332 . S
C181 C182 1.386 . S
C181 C184 1.388 . S
C182 C181 1.386 . S
C182 C183 1.382 . S
C182 H208 0.950 . S
C183 N180 1.332 . S
C183 C182 1.382 . S
C183 H194 0.952 . S
C184 C181 1.388 . S
C184 C185 1.382 . S
C184 H209 0.950 . S
C185 N180 1.332 . S
C185 C184 1.382 . S
C185 H195 0.979 . S
N186 Co164 2.254 1_655 S
N186 C190 1.332 . S
N186 C191 1.332 . S
C187 C188 1.388 . S
C187 C191 1.382 . S
C187 H210 0.950 . S
C188 C187 1.388 . S
C188 C189 1.386 . S
C189 C188 1.386 . S
C189 C190 1.382 . S
C189 H211 0.950 . S
C190 N186 1.332 . S
C190 C189 1.382 . S
C190 H192 0.952 . S
C191 N186 1.332 . S
C191 C187 1.382 . S
C191 H193 0.910 1_655 S
H192 C190 0.952 . S
H193 C191 0.910 1_455 S
H194 C183 0.952 . S
H195 C185 0.979 . S
C196 C162 1.395 . S
C196 C166 1.391 . S
C197 C159 1.389 . S
C197 C179 1.392 . S
C198 C169 1.392 . S
C198 C171 1.389 . S
C199 C174 1.395 . S
C199 C176 1.391 . S
H200 C160 0.951 . S
H201 C161 0.950 . S
H202 C167 0.949 . S
H203 C168 0.950 . S
H204 C172 0.951 . S
H205 C173 0.950 . S
H206 C177 0.949 . S
H207 C178 0.953 . S
H208 C182 0.950 . S
H209 C184 0.950 . S
H210 C187 0.950 . S
H211 C189 0.950 . S
C212 C213 1.443 . S
C212 N216 1.376 1_565 S
C212 C250 1.389 . S
C213 C212 1.443 . S
C213 C214 1.340 1_565 S
C213 H253 0.951 . S
C214 C213 1.340 1_545 S
C214 C215 1.439 . S
C214 H254 0.950 . S
C215 C214 1.439 . S
C215 N216 1.374 . S
C215 C249 1.395 . S
N216 C212 1.376 1_545 S
N216 C215 1.374 . S
N216 Co217 2.040 . S
Co217 N216 2.040 . S
Co217 N218 2.017 . S
Co217 N223 1.977 1_544 S
Co217 N228 1.974 1_544 S
Co217 N233 2.308 1_554 S
Co217 N239 2.257 1_545 S
N218 Co217 2.017 . S
N218 C219 1.376 . S
N218 C222 1.383 1_554 S
C219 N218 1.376 . S
C219 C220 1.446 . S
C219 C249 1.391 . S
C220 C219 1.446 . S
C220 C221 1.339 1_554 S
C220 H255 0.949 . S
C221 C220 1.339 1_556 S
C221 C222 1.439 . S
C221 H256 0.950 . S
C222 N218 1.383 1_556 S
C222 C221 1.439 . S
C222 C251 1.392 . S
N223 Co217 1.977 1_566 S
N223 C224 1.376 1_565 S
N223 C227 1.374 . S
C224 N223 1.376 1_545 S
C224 C225 1.443 . S
C224 C251 1.389 . S
C225 C224 1.443 . S
C225 C226 1.340 1_545 S
C225 H257 0.951 . S
C226 C225 1.340 1_565 S
C226 C227 1.439 . S
C226 H258 0.950 . S
C227 N223 1.374 . S
C227 C226 1.439 . S
C227 C252 1.395 . S
N228 Co217 1.974 1_566 S
N228 C229 1.376 . S
N228 C232 1.383 1_556 S
C229 N228 1.376 . S
C229 C230 1.446 . S
C229 C252 1.391 . S
C230 C229 1.446 . S
C230 C231 1.339 1_556 S
C230 H259 0.949 . S
C231 C230 1.339 1_554 S
C231 C232 1.439 . S
C231 H260 0.950 . S
C232 N228 1.383 1_554 S
C232 C231 1.439 . S
C232 C250 1.392 . S
N233 Co217 2.308 1_556 S
N233 C236 1.332 . S
N233 C238 1.332 . S
C234 C235 1.386 . S
C234 C237 1.388 . S
C235 C234 1.386 . S
C235 C236 1.382 . S
C235 H261 0.950 . S
C236 N233 1.332 . S
C236 C235 1.382 . S
C236 H247 0.952 1_545 S
C237 C234 1.388 . S
C237 C238 1.382 . S
C237 H262 0.950 . S
C238 N233 1.332 . S
C238 C237 1.382 . S
C238 H248 0.948 . S
N239 Co217 2.257 1_565 S
N239 C243 1.332 . S
N239 C244 1.332 . S
C240 C241 1.388 . S
C240 C244 1.382 . S
C240 H263 0.950 . S
C241 C240 1.388 . S
C241 C242 1.386 . S
C242 C241 1.386 . S
C242 C243 1.382 . S
C242 H264 0.950 . S
C243 N239 1.332 . S
C243 C242 1.382 . S
C243 H245 0.952 1_565 S
C244 N239 1.332 . S
C244 C240 1.382 . S
C244 H246 0.948 . S
H245 C243 0.952 1_545 S
H246 C244 0.948 . S
H247 C236 0.952 1_565 S
H248 C238 0.948 . S
C249 C215 1.395 . S
C249 C219 1.391 . S
C250 C212 1.389 . S
C250 C232 1.392 . S
C251 C222 1.392 . S
C251 C224 1.389 . S
C252 C227 1.395 . S
C252 C229 1.391 . S
H253 C213 0.951 . S
H254 C214 0.950 . S
H255 C220 0.949 . S
H256 C221 0.950 . S
H257 C225 0.951 . S
H258 C226 0.950 . S
H259 C230 0.949 . S
H260 C231 0.950 . S
H261 C235 0.950 . S
H262 C237 0.950 . S
H263 C240 0.950 . S
H264 C242 0.950 . S
C265 C266 1.443 . S
C265 N269 1.376 . S
C265 C303 1.389 . S
C266 C265 1.443 . S
C266 C267 1.340 . S
C266 H306 0.951 . S
C267 C266 1.340 . S
C267 C268 1.439 . S
C267 H307 0.950 . S
C268 C267 1.439 . S
C268 N269 1.374 . S
C268 C302 1.395 . S
N269 C265 1.376 . S
N269 C268 1.374 . S
N269 Co270 2.008 . S
Co270 N269 2.008 . S
Co270 N271 1.995 . S
Co270 N276 2.008 . S
Co270 N281 1.995 . S
Co270 N286 2.282 . S
Co270 N292 2.282 . S
N271 Co270 1.995 . S
N271 C272 1.376 . S
N271 C275 1.383 . S
C272 N271 1.376 . S
C272 C273 1.446 . S
C272 C302 1.391 . S
C273 C272 1.446 . S
C273 C274 1.339 . S
C273 H308 0.949 . S
C274 C273 1.339 . S
C274 C275 1.439 . S
C274 H309 0.950 . S
C275 N271 1.383 . S
C275 C274 1.439 . S
C275 C304 1.392 . S
N276 Co270 2.008 . S
N276 C277 1.376 . S
N276 C280 1.374 . S
C277 N276 1.376 . S
C277 C278 1.443 . S
C277 C304 1.389 . S
C278 C277 1.443 . S
C278 C279 1.340 . S
C278 H310 0.951 . S
C279 C278 1.340 . S
C279 C280 1.439 . S
C279 H311 0.950 . S
C280 N276 1.374 . S
C280 C279 1.439 . S
C280 C305 1.395 . S
N281 Co270 1.995 . S
N281 C282 1.376 . S
N281 C285 1.383 . S
C282 N281 1.376 . S
C282 C283 1.446 . S
C282 C305 1.391 . S
C283 C282 1.446 . S
C283 C284 1.339 . S
C283 H312 0.949 . S
C284 C283 1.339 . S
C284 C285 1.439 . S
C284 H313 0.950 . S
C285 N281 1.383 . S
C285 C284 1.439 . S
C285 C303 1.392 . S
N286 Co270 2.282 . S
N286 C289 1.332 . S
N286 C291 1.332 . S
C287 C288 1.386 . S
C287 C290 1.388 . S
C288 C287 1.386 . S
C288 C289 1.382 . S
C288 H314 0.950 . S
C289 N286 1.332 . S
C289 C288 1.382 . S
C289 H300 0.952 . S
C290 C287 1.388 . S
C290 C291 1.382 . S
C290 H315 0.950 . S
C291 N286 1.332 . S
C291 C290 1.382 . S
C291 H301 0.948 . S
N292 Co270 2.282 . S
N292 C296 1.332 . S
N292 C297 1.332 . S
C293 C294 1.388 . S
C293 C297 1.382 . S
C293 H316 0.950 . S
C294 C293 1.388 . S
C294 C295 1.386 . S
C295 C294 1.386 . S
C295 C296 1.382 . S
C295 H317 0.950 . S
C296 N292 1.332 . S
C296 C295 1.382 . S
C296 H298 0.952 . S
C297 N292 1.332 . S
C297 C293 1.382 . S
C297 H299 0.948 . S
H298 C296 0.952 . S
H299 C297 0.948 . S
H300 C289 0.952 . S
H301 C291 0.948 . S
C302 C268 1.395 . S
C302 C272 1.391 . S
C303 C265 1.389 . S
C303 C285 1.392 . S
C304 C275 1.392 . S
C304 C277 1.389 . S
C305 C280 1.395 . S
C305 C282 1.391 . S
H306 C266 0.951 . S
H307 C267 0.950 . S
H308 C273 0.949 . S
H309 C274 0.950 . S
H310 C278 0.951 . S
H311 C279 0.950 . S
H312 C283 0.949 . S
H313 C284 0.950 . S
H314 C288 0.950 . S
H315 C290 0.950 . S
H316 C293 0.950 . S
H317 C295 0.950 . S
C318 C319 1.443 . S
C318 N322 1.376 . S
C318 C356 1.389 . S
C319 C318 1.443 . S
C319 C320 1.340 . S
C319 H359 0.951 . S
C320 C319 1.340 . S
C320 C321 1.439 . S
C320 H360 0.950 . S
C321 C320 1.439 . S
C321 N322 1.374 . S
C321 C355 1.395 . S
N322 C318 1.376 . S
N322 C321 1.374 . S
N322 Co323 2.008 . S
Co323 N322 2.008 . S
Co323 N324 1.995 . S
Co323 N329 2.008 . S
Co323 N334 1.995 . S
Co323 N339 2.282 . S
Co323 N345 2.282 . S
N324 Co323 1.995 . S
N324 C325 1.376 . S
N324 C328 1.383 . S
C325 N324 1.376 . S
C325 C326 1.446 . S
C325 C355 1.391 . S
C326 C325 1.446 . S
C326 C327 1.339 . S
C326 H361 0.949 . S
C327 C326 1.339 . S
C327 C328 1.439 . S
C327 H362 0.950 . S
C328 N324 1.383 . S
C328 C327 1.439 . S
C328 C357 1.392 . S
N329 Co323 2.008 . S
N329 C330 1.376 . S
N329 C333 1.374 . S
C330 N329 1.376 . S
C330 C331 1.443 . S
C330 C357 1.389 . S
C331 C330 1.443 . S
C331 C332 1.340 . S
C331 H363 0.951 . S
C332 C331 1.340 . S
C332 C333 1.439 . S
C332 H364 0.950 . S
C333 N329 1.374 . S
C333 C332 1.439 . S
C333 C358 1.395 . S
N334 Co323 1.995 . S
N334 C335 1.376 . S
N334 C338 1.383 . S
C335 N334 1.376 . S
C335 C336 1.446 . S
C335 C358 1.391 . S
C336 C335 1.446 . S
C336 C337 1.339 . S
C336 H365 0.949 . S
C337 C336 1.339 . S
C337 C338 1.439 . S
C337 H366 0.950 . S
C338 N334 1.383 . S
C338 C337 1.439 . S
C338 C356 1.392 . S
N339 Co323 2.282 . S
N339 C342 1.332 . S
N339 C344 1.332 . S
C340 C341 1.386 . S
C340 C343 1.388 . S
C341 C340 1.386 . S
C341 C342 1.382 . S
C341 H367 0.950 . S
C342 N339 1.332 . S
C342 C341 1.382 . S
C342 H353 0.952 . S
C343 C340 1.388 . S
C343 C344 1.382 . S
C343 H368 0.950 . S
C344 N339 1.332 . S
C344 C343 1.382 . S
C344 H354 0.948 . S
N345 Co323 2.282 . S
N345 C349 1.332 . S
N345 C350 1.332 . S
C346 C347 1.388 . S
C346 C350 1.382 . S
C346 H369 0.950 . S
C347 C346 1.388 . S
C347 C348 1.386 . S
C348 C347 1.386 . S
C348 C349 1.382 . S
C348 H370 0.950 . S
C349 N345 1.332 . S
C349 C348 1.382 . S
C349 H351 0.952 . S
C350 N345 1.332 . S
C350 C346 1.382 . S
C350 H352 0.948 . S
H351 C349 0.952 . S
H352 C350 0.948 . S
H353 C342 0.952 . S
H354 C344 0.948 . S
C355 C321 1.395 . S
C355 C325 1.391 . S
C356 C318 1.389 . S
C356 C338 1.392 . S
C357 C328 1.392 . S
C357 C330 1.389 . S
C358 C333 1.395 . S
C358 C335 1.391 . S
H359 C319 0.951 . S
H360 C320 0.950 . S
H361 C326 0.949 . S
H362 C327 0.950 . S
H363 C331 0.951 . S
H364 C332 0.950 . S
H365 C336 0.949 . S
H366 C337 0.950 . S
H367 C341 0.950 . S
H368 C343 0.950 . S
H369 C346 0.950 . S
H370 C348 0.950 . S
C371 C372 1.443 . S
C371 N375 1.376 . S
C371 C409 1.389 . S
C372 C371 1.443 . S
C372 C373 1.340 . S
C372 H412 0.951 . S
C373 C372 1.340 . S
C373 C374 1.439 . S
C373 H413 0.950 . S
C374 C373 1.439 . S
C374 N375 1.374 . S
C374 C408 1.395 . S
N375 C371 1.376 . S
N375 C374 1.374 . S
N375 Co376 2.008 . S
Co376 N375 2.008 . S
Co376 N377 1.995 . S
Co376 N382 2.008 . S
Co376 N387 1.995 . S
Co376 N392 2.282 . S
Co376 N398 2.282 . S
N377 Co376 1.995 . S
N377 C378 1.376 . S
N377 C381 1.383 . S
C378 N377 1.376 . S
C378 C379 1.446 . S
C378 C408 1.391 . S
C379 C378 1.446 . S
C379 C380 1.339 . S
C379 H414 0.949 . S
C380 C379 1.339 . S
C380 C381 1.439 . S
C380 H415 0.950 . S
C381 N377 1.383 . S
C381 C380 1.439 . S
C381 C410 1.392 . S
N382 Co376 2.008 . S
N382 C383 1.376 . S
N382 C386 1.374 . S
C383 N382 1.376 . S
C383 C384 1.443 . S
C383 C410 1.389 . S
C384 C383 1.443 . S
C384 C385 1.340 . S
C384 H416 0.951 . S
C385 C384 1.340 . S
C385 C386 1.439 . S
C385 H417 0.950 . S
C386 N382 1.374 . S
C386 C385 1.439 . S
C386 C411 1.395 . S
N387 Co376 1.995 . S
N387 C388 1.376 . S
N387 C391 1.383 . S
C388 N387 1.376 . S
C388 C389 1.446 . S
C388 C411 1.391 . S
C389 C388 1.446 . S
C389 C390 1.339 . S
C389 H418 0.949 . S
C390 C389 1.339 . S
C390 C391 1.439 . S
C390 H419 0.950 . S
C391 N387 1.383 . S
C391 C390 1.439 . S
C391 C409 1.392 . S
N392 Co376 2.282 . S
N392 C395 1.332 . S
N392 C397 1.332 . S
C393 C394 1.386 . S
C393 C396 1.388 . S
C394 C393 1.386 . S
C394 C395 1.382 . S
C394 H420 0.950 . S
C395 N392 1.332 . S
C395 C394 1.382 . S
C395 H406 0.952 . S
C396 C393 1.388 . S
C396 C397 1.382 . S
C396 H421 0.950 . S
C397 N392 1.332 . S
C397 C396 1.382 . S
C397 H407 0.948 . S
N398 Co376 2.282 . S
N398 C402 1.332 . S
N398 C403 1.332 . S
C399 C400 1.388 . S
C399 C403 1.382 . S
C399 H422 0.950 . S
C400 C399 1.388 . S
C400 C401 1.386 . S
C401 C400 1.386 . S
C401 C402 1.382 . S
C401 H423 0.950 . S
C402 N398 1.332 . S
C402 C401 1.382 . S
C402 H404 0.952 . S
C403 N398 1.332 . S
C403 C399 1.382 . S
C403 H405 0.948 . S
H404 C402 0.952 . S
H405 C403 0.948 . S
H406 C395 0.952 . S
H407 C397 0.948 . S
C408 C374 1.395 . S
C408 C378 1.391 . S
C409 C371 1.389 . S
C409 C391 1.392 . S
C410 C381 1.392 . S
C410 C383 1.389 . S
C411 C386 1.395 . S
C411 C388 1.391 . S
H412 C372 0.951 . S
H413 C373 0.950 . S
H414 C379 0.949 . S
H415 C380 0.950 . S
H416 C384 0.951 . S
H417 C385 0.950 . S
H418 C389 0.949 . S
H419 C390 0.950 . S
H420 C394 0.950 . S
H421 C396 0.950 . S
H422 C399 0.950 . S
H423 C401 0.950 . S
C424 C425 1.443 . S
C424 N428 1.376 . S
C424 C462 1.389 . S
C425 C424 1.443 . S
C425 C426 1.340 . S
C425 H465 0.951 . S
C426 C425 1.340 . S
C426 C427 1.439 . S
C426 H466 0.950 . S
C427 C426 1.439 . S
C427 N428 1.374 . S
C427 C461 1.395 . S
N428 C424 1.376 . S
N428 C427 1.374 . S
N428 Co429 2.008 . S
Co429 N428 2.008 . S
Co429 N430 1.995 . S
Co429 N435 2.008 . S
Co429 N440 1.995 . S
Co429 N445 2.282 . S
Co429 N451 2.282 . S
N430 Co429 1.995 . S
N430 C431 1.376 . S
N430 C434 1.383 . S
C431 N430 1.376 . S
C431 C432 1.446 . S
C431 C461 1.391 . S
C432 C431 1.446 . S
C432 C433 1.339 . S
C432 H467 0.949 . S
C433 C432 1.339 . S
C433 C434 1.439 . S
C433 H468 0.950 . S
C434 N430 1.383 . S
C434 C433 1.439 . S
C434 C463 1.392 . S
N435 Co429 2.008 . S
N435 C436 1.376 . S
N435 C439 1.374 . S
C436 N435 1.376 . S
C436 C437 1.443 . S
C436 C463 1.389 . S
C437 C436 1.443 . S
C437 C438 1.340 . S
C437 H469 0.951 . S
C438 C437 1.340 . S
C438 C439 1.439 . S
C438 H470 0.950 . S
C439 N435 1.374 . S
C439 C438 1.439 . S
C439 C464 1.395 . S
N440 Co429 1.995 . S
N440 C441 1.376 . S
N440 C444 1.383 . S
C441 N440 1.376 . S
C441 C442 1.446 . S
C441 C464 1.391 . S
C442 C441 1.446 . S
C442 C443 1.339 . S
C442 H471 0.949 . S
C443 C442 1.339 . S
C443 C444 1.439 . S
C443 H472 0.950 . S
C444 N440 1.383 . S
C444 C443 1.439 . S
C444 C462 1.392 . S
N445 Co429 2.282 . S
N445 C448 1.332 . S
N445 C450 1.332 . S
C446 C447 1.386 . S
C446 C449 1.388 . S
C447 C446 1.386 . S
C447 C448 1.382 . S
C447 H473 0.950 . S
C448 N445 1.332 . S
C448 C447 1.382 . S
C448 H459 0.952 . S
C449 C446 1.388 . S
C449 C450 1.382 . S
C449 H474 0.950 . S
C450 N445 1.332 . S
C450 C449 1.382 . S
C450 H460 0.948 . S
N451 Co429 2.282 . S
N451 C455 1.332 . S
N451 C456 1.332 . S
C452 C453 1.388 . S
C452 C456 1.382 . S
C452 H475 0.950 . S
C453 C452 1.388 . S
C453 C454 1.386 . S
C454 C453 1.386 . S
C454 C455 1.382 . S
C454 H476 0.950 . S
C455 N451 1.332 . S
C455 C454 1.382 . S
C455 H457 0.952 . S
C456 N451 1.332 . S
C456 C452 1.382 . S
C456 H458 0.948 . S
H457 C455 0.952 . S
H458 C456 0.948 . S
H459 C448 0.952 . S
H460 C450 0.948 . S
C461 C427 1.395 . S
C461 C431 1.391 . S
C462 C424 1.389 . S
C462 C444 1.392 . S
C463 C434 1.392 . S
C463 C436 1.389 . S
C464 C439 1.395 . S
C464 C441 1.391 . S
H465 C425 0.951 . S
H466 C426 0.950 . S
H467 C432 0.949 . S
H468 C433 0.950 . S
H469 C437 0.951 . S
H470 C438 0.950 . S
H471 C442 0.949 . S
H472 C443 0.950 . S
H473 C447 0.950 . S
H474 C449 0.950 . S
H475 C452 0.950 . S
H476 C454 0.950 . S
C477 C478 1.443 . S
C477 N481 1.376 . S
C477 C515 1.389 . S
C478 C477 1.443 . S
C478 C479 1.340 . S
C478 H518 0.951 . S
C479 C478 1.340 . S
C479 C480 1.439 . S
C479 H519 0.950 . S
C480 C479 1.439 . S
C480 N481 1.374 . S
C480 C514 1.395 . S
N481 C477 1.376 . S
N481 C480 1.374 . S
N481 Co482 2.008 . S
Co482 N481 2.008 . S
Co482 N483 1.995 . S
Co482 N488 2.008 . S
Co482 N493 1.995 . S
Co482 N498 2.282 . S
Co482 N504 2.282 . S
N483 Co482 1.995 . S
N483 C484 1.376 . S
N483 C487 1.383 . S
C484 N483 1.376 . S
C484 C485 1.446 . S
C484 C514 1.391 . S
C485 C484 1.446 . S
C485 C486 1.339 . S
C485 H520 0.949 . S
C486 C485 1.339 . S
C486 C487 1.439 . S
C486 H521 0.950 . S
C487 N483 1.383 . S
C487 C486 1.439 . S
C487 C516 1.392 . S
N488 Co482 2.008 . S
N488 C489 1.376 . S
N488 C492 1.374 . S
C489 N488 1.376 . S
C489 C490 1.443 . S
C489 C516 1.389 . S
C490 C489 1.443 . S
C490 C491 1.340 . S
C490 H522 0.951 . S
C491 C490 1.340 . S
C491 C492 1.439 . S
C491 H523 0.950 . S
C492 N488 1.374 . S
C492 C491 1.439 . S
C492 C517 1.395 . S
N493 Co482 1.995 . S
N493 C494 1.376 . S
N493 C497 1.383 . S
C494 N493 1.376 . S
C494 C495 1.446 . S
C494 C517 1.391 . S
C495 C494 1.446 . S
C495 C496 1.339 . S
C495 H524 0.949 . S
C496 C495 1.339 . S
C496 C497 1.439 . S
C496 H525 0.950 . S
C497 N493 1.383 . S
C497 C496 1.439 . S
C497 C515 1.392 . S
N498 Co482 2.282 . S
N498 C501 1.332 . S
N498 C503 1.332 . S
C499 C500 1.386 . S
C499 C502 1.388 . S
C500 C499 1.386 . S
C500 C501 1.382 . S
C500 H526 0.950 . S
C501 N498 1.332 . S
C501 C500 1.382 . S
C501 H512 0.952 . S
C502 C499 1.388 . S
C502 C503 1.382 . S
C502 H527 0.950 . S
C503 N498 1.332 . S
C503 C502 1.382 . S
C503 H513 0.948 . S
N504 Co482 2.282 . S
N504 C508 1.332 . S
N504 C509 1.332 . S
C505 C506 1.388 . S
C505 C509 1.382 . S
C505 H528 0.950 . S
C506 C505 1.388 . S
C506 C507 1.386 . S
C507 C506 1.386 . S
C507 C508 1.382 . S
C507 H529 0.950 . S
C508 N504 1.332 . S
C508 C507 1.382 . S
C508 H510 0.952 . S
C509 N504 1.332 . S
C509 C505 1.382 . S
C509 H511 0.948 . S
H510 C508 0.952 . S
H511 C509 0.948 . S
H512 C501 0.952 . S
H513 C503 0.948 . S
C514 C480 1.395 . S
C514 C484 1.391 . S
C515 C477 1.389 . S
C515 C497 1.392 . S
C516 C487 1.392 . S
C516 C489 1.389 . S
C517 C492 1.395 . S
C517 C494 1.391 . S
H518 C478 0.951 . S
H519 C479 0.950 . S
H520 C485 0.949 . S
H521 C486 0.950 . S
H522 C490 0.951 . S
H523 C491 0.950 . S
H524 C495 0.949 . S
H525 C496 0.950 . S
H526 C500 0.950 . S
H527 C502 0.950 . S
H528 C505 0.950 . S
H529 C507 0.950 . S
C530 C531 1.443 . S
C530 N534 1.376 . S
C530 C568 1.389 . S
C531 C530 1.443 . S
C531 C532 1.340 . S
C531 H571 0.951 . S
C532 C531 1.340 . S
C532 C533 1.439 . S
C532 H572 0.950 . S
C533 C532 1.439 . S
C533 N534 1.374 . S
C533 C567 1.395 . S
N534 C530 1.376 . S
N534 C533 1.374 . S
N534 Co535 2.008 . S
Co535 N534 2.008 . S
Co535 N536 1.995 . S
Co535 N541 2.008 . S
Co535 N546 1.995 . S
Co535 N551 2.282 . S
Co535 N557 2.282 . S
N536 Co535 1.995 . S
N536 C537 1.376 . S
N536 C540 1.383 . S
C537 N536 1.376 . S
C537 C538 1.446 . S
C537 C567 1.391 . S
C538 C537 1.446 . S
C538 C539 1.339 . S
C538 H573 0.949 . S
C539 C538 1.339 . S
C539 C540 1.439 . S
C539 H574 0.950 . S
C540 N536 1.383 . S
C540 C539 1.439 . S
C540 C569 1.392 . S
N541 Co535 2.008 . S
N541 C542 1.376 . S
N541 C545 1.374 . S
C542 N541 1.376 . S
C542 C543 1.443 . S
C542 C569 1.389 . S
C543 C542 1.443 . S
C543 C544 1.340 . S
C543 H575 0.951 . S
C544 C543 1.340 . S
C544 C545 1.439 . S
C544 H576 0.950 . S
C545 N541 1.374 . S
C545 C544 1.439 . S
C545 C570 1.395 . S
N546 Co535 1.995 . S
N546 C547 1.376 . S
N546 C550 1.383 . S
C547 N546 1.376 . S
C547 C548 1.446 . S
C547 C570 1.391 . S
C548 C547 1.446 . S
C548 C549 1.339 . S
C548 H577 0.949 . S
C549 C548 1.339 . S
C549 C550 1.439 . S
C549 H578 0.950 . S
C550 N546 1.383 . S
C550 C549 1.439 . S
C550 C568 1.392 . S
N551 Co535 2.282 . S
N551 C554 1.332 . S
N551 C556 1.332 . S
C552 C553 1.386 . S
C552 C555 1.388 . S
C553 C552 1.386 . S
C553 C554 1.382 . S
C553 H579 0.950 . S
C554 N551 1.332 . S
C554 C553 1.382 . S
C554 H565 0.952 . S
C555 C552 1.388 . S
C555 C556 1.382 . S
C555 H580 0.950 . S
C556 N551 1.332 . S
C556 C555 1.382 . S
C556 H566 0.948 . S
N557 Co535 2.282 . S
N557 C561 1.332 . S
N557 C562 1.332 . S
C558 C559 1.388 . S
C558 C562 1.382 . S
C558 H581 0.950 . S
C559 C558 1.388 . S
C559 C560 1.386 . S
C560 C559 1.386 . S
C560 C561 1.382 . S
C560 H582 0.950 . S
C561 N557 1.332 . S
C561 C560 1.382 . S
C561 H563 0.952 . S
C562 N557 1.332 . S
C562 C558 1.382 . S
C562 H564 0.948 . S
H563 C561 0.952 . S
H564 C562 0.948 . S
H565 C554 0.952 . S
H566 C556 0.948 . S
C567 C533 1.395 . S
C567 C537 1.391 . S
C568 C530 1.389 . S
C568 C550 1.392 . S
C569 C540 1.392 . S
C569 C542 1.389 . S
C570 C545 1.395 . S
C570 C547 1.391 . S
H571 C531 0.951 . S
H572 C532 0.950 . S
H573 C538 0.949 . S
H574 C539 0.950 . S
H575 C543 0.951 . S
H576 C544 0.950 . S
H577 C548 0.949 . S
H578 C549 0.950 . S
H579 C553 0.950 . S
H580 C555 0.950 . S
H581 C558 0.950 . S
H582 C560 0.950 . S
C583 C584 1.443 . S
C583 N587 1.376 . S
C583 C621 1.389 . S
C584 C583 1.443 . S
C584 C585 1.340 . S
C584 H624 0.951 . S
C585 C584 1.340 . S
C585 C586 1.439 . S
C585 H625 0.950 . S
C586 C585 1.439 . S
C586 N587 1.374 . S
C586 C620 1.395 . S
N587 C583 1.376 . S
N587 C586 1.374 . S
N587 Co588 2.008 . S
Co588 N587 2.008 . S
Co588 N589 1.995 . S
Co588 N594 2.008 . S
Co588 N599 1.995 . S
Co588 N604 2.282 . S
Co588 N610 2.282 . S
N589 Co588 1.995 . S
N589 C590 1.376 . S
N589 C593 1.383 . S
C590 N589 1.376 . S
C590 C591 1.446 . S
C590 C620 1.391 . S
C591 C590 1.446 . S
C591 C592 1.339 . S
C591 H626 0.949 . S
C592 C591 1.339 . S
C592 C593 1.439 . S
C592 H627 0.950 . S
C593 N589 1.383 . S
C593 C592 1.439 . S
C593 C622 1.392 . S
N594 Co588 2.008 . S
N594 C595 1.376 . S
N594 C598 1.374 . S
C595 N594 1.376 . S
C595 C596 1.443 . S
C595 C622 1.389 . S
C596 C595 1.443 . S
C596 C597 1.340 . S
C596 H628 0.951 . S
C597 C596 1.340 . S
C597 C598 1.439 . S
C597 H629 0.950 . S
C598 N594 1.374 . S
C598 C597 1.439 . S
C598 C623 1.395 . S
N599 Co588 1.995 . S
N599 C600 1.376 . S
N599 C603 1.383 . S
C600 N599 1.376 . S
C600 C601 1.446 . S
C600 C623 1.391 . S
C601 C600 1.446 . S
C601 C602 1.339 . S
C601 H630 0.949 . S
C602 C601 1.339 . S
C602 C603 1.439 . S
C602 H631 0.950 . S
C603 N599 1.383 . S
C603 C602 1.439 . S
C603 C621 1.392 . S
N604 Co588 2.282 . S
N604 C607 1.332 . S
N604 C609 1.332 . S
C605 C606 1.386 . S
C605 C608 1.388 . S
C606 C605 1.386 . S
C606 C607 1.382 . S
C606 H632 0.950 . S
C607 N604 1.332 . S
C607 C606 1.382 . S
C607 H618 0.952 . S
C608 C605 1.388 . S
C608 C609 1.382 . S
C608 H633 0.950 . S
C609 N604 1.332 . S
C609 C608 1.382 . S
C609 H619 0.948 . S
N610 Co588 2.282 . S
N610 C614 1.332 . S
N610 C615 1.332 . S
C611 C612 1.388 . S
C611 C615 1.382 . S
C611 H634 0.950 . S
C612 C611 1.388 . S
C612 C613 1.386 . S
C613 C612 1.386 . S
C613 C614 1.382 . S
C613 H635 0.950 . S
C614 N610 1.332 . S
C614 C613 1.382 . S
C614 H616 0.952 . S
C615 N610 1.332 . S
C615 C611 1.382 . S
C615 H617 0.948 . S
H616 C614 0.952 . S
H617 C615 0.948 . S
H618 C607 0.952 . S
H619 C609 0.948 . S
C620 C586 1.395 . S
C620 C590 1.391 . S
C621 C583 1.389 . S
C621 C603 1.392 . S
C622 C593 1.392 . S
C622 C595 1.389 . S
C623 C598 1.395 . S
C623 C600 1.391 . S
H624 C584 0.951 . S
H625 C585 0.950 . S
H626 C591 0.949 . S
H627 C592 0.950 . S
H628 C596 0.951 . S
H629 C597 0.950 . S
H630 C601 0.949 . S
H631 C602 0.950 . S
H632 C606 0.950 . S
H633 C608 0.950 . S
H634 C611 0.950 . S
H635 C613 0.950 . S
C636 C637 1.349 . S
C636 C638 1.327 . S
C636 H661 0.950 . S
C637 C636 1.349 . S
C637 C653 1.349 . S
C638 C636 1.327 . S
C638 C657 1.429 . S
C638 H662 0.950 . S
C639 C656 1.574 . S
C639 C658 1.368 . S
C639 H663 0.949 . S
H640 C644 0.949 . S
C641 C642 1.349 . S
C641 C643 1.327 . S
C641 H664 0.950 . S
C642 C641 1.349 . S
C642 C654 1.349 . S
C643 C641 1.327 . S
C643 C659 1.429 . S
C643 H665 0.950 . S
C644 H640 0.949 . S
C644 C652 1.574 . S
C644 C660 1.368 . S
H645 C653 0.950 . S
H646 C651 0.950 . S
H647 C652 0.949 . S
H648 C654 0.950 . S
H649 C655 0.950 . S
H650 C656 0.949 . S
C651 H646 0.950 . S
C651 C653 1.327 . S
C651 C657 1.429 . S
C652 C644 1.574 . S
C652 H647 0.949 . S
C652 C658 1.368 . S
C653 C637 1.349 . S
C653 H645 0.950 . S
C653 C651 1.327 . S
C654 C642 1.349 . S
C654 H648 0.950 . S
C654 C655 1.327 . S
C655 H649 0.950 . S
C655 C654 1.327 . S
C655 C659 1.429 . S
C656 C639 1.574 . S
C656 H650 0.949 . S
C656 C660 1.368 . S
C657 C638 1.429 . S
C657 C651 1.429 . S
C657 C658 1.523 . S
C658 C639 1.368 . S
C658 C652 1.368 . S
C658 C657 1.523 . S
C659 C643 1.429 . S
C659 C655 1.429 . S
C659 C660 1.523 . S
C660 C644 1.368 . S
C660 C656 1.368 . S
C660 C659 1.523 . S
H661 C636 0.950 . S
H662 C638 0.950 . S
H663 C639 0.949 . S
H664 C641 0.950 . S
H665 C643 0.950 . S
C666 C667 1.349 . S
C666 C668 1.327 . S
C666 H691 0.950 . S
C667 C666 1.349 . S
C667 C683 1.349 . S
C668 C666 1.327 . S
C668 C687 1.429 . S
C668 H692 0.950 . S
C669 C686 1.574 . S
C669 C688 1.368 . S
C669 H693 0.949 . S
H670 C674 0.949 . S
C671 C672 1.349 . S
C671 C673 1.327 . S
C671 H694 0.950 . S
C672 C671 1.349 . S
C672 C684 1.349 . S
C673 C671 1.327 . S
C673 C689 1.429 . S
C673 H695 0.950 . S
C674 H670 0.949 . S
C674 C682 1.574 . S
C674 C690 1.368 . S
H675 C683 0.950 . S
H676 C681 0.950 . S
H677 C682 0.949 . S
H678 C684 0.950 . S
H679 C685 0.950 . S
H680 C686 0.949 . S
C681 H676 0.950 . S
C681 C683 1.327 . S
C681 C687 1.429 . S
C682 C674 1.574 . S
C682 H677 0.949 . S
C682 C688 1.368 . S
C683 C667 1.349 . S
C683 H675 0.950 . S
C683 C681 1.327 . S
C684 C672 1.349 . S
C684 H678 0.950 . S
C684 C685 1.327 . S
C685 H679 0.950 . S
C685 C684 1.327 . S
C685 C689 1.429 . S
C686 C669 1.574 . S
C686 H680 0.949 . S
C686 C690 1.368 . S
C687 C668 1.429 . S
C687 C681 1.429 . S
C687 C688 1.523 . S
C688 C669 1.368 . S
C688 C682 1.368 . S
C688 C687 1.523 . S
C689 C673 1.429 . S
C689 C685 1.429 . S
C689 C690 1.523 . S
C690 C674 1.368 . S
C690 C686 1.368 . S
C690 C689 1.523 . S
H691 C666 0.950 . S
H692 C668 0.950 . S
H693 C669 0.949 . S
H694 C671 0.950 . S
H695 C673 0.950 . S
C696 C697 1.349 . S
C696 C698 1.327 . S
C696 H721 0.950 . S
C697 C696 1.349 . S
C697 C713 1.349 . S
C698 C696 1.327 . S
C698 C717 1.429 . S
C698 H722 0.950 . S
C699 C716 1.574 . S
C699 C718 1.368 . S
C699 H723 0.949 . S
H700 C704 0.949 . S
C701 C702 1.349 . S
C701 C703 1.327 . S
C701 H724 0.950 . S
C702 C701 1.349 . S
C702 C714 1.349 . S
C703 C701 1.327 . S
C703 C719 1.429 . S
C703 H725 0.950 . S
C704 H700 0.949 . S
C704 C712 1.574 . S
C704 C720 1.368 . S
H705 C713 0.950 . S
H706 C711 0.950 . S
H707 C712 0.949 . S
H708 C714 0.950 . S
H709 C715 0.950 . S
H710 C716 0.949 . S
C711 H706 0.950 . S
C711 C713 1.327 . S
C711 C717 1.429 . S
C712 C704 1.574 . S
C712 H707 0.949 . S
C712 C718 1.368 . S
C713 C697 1.349 . S
C713 H705 0.950 . S
C713 C711 1.327 . S
C714 C702 1.349 . S
C714 H708 0.950 . S
C714 C715 1.327 . S
C715 H709 0.950 . S
C715 C714 1.327 . S
C715 C719 1.429 . S
C716 C699 1.574 . S
C716 H710 0.949 . S
C716 C720 1.368 . S
C717 C698 1.429 . S
C717 C711 1.429 . S
C717 C718 1.523 . S
C718 C699 1.368 . S
C718 C712 1.368 . S
C718 C717 1.523 . S
C719 C703 1.429 . S
C719 C715 1.429 . S
C719 C720 1.523 . S
C720 C704 1.368 . S
C720 C716 1.368 . S
C720 C719 1.523 . S
H721 C696 0.950 . S
H722 C698 0.950 . S
H723 C699 0.949 . S
H724 C701 0.950 . S
H725 C703 0.950 . S
C726 C727 1.349 . S
C726 C728 1.327 . S
C726 H751 0.950 . S
C727 C726 1.349 . S
C727 C743 1.349 . S
C728 C726 1.327 . S
C728 C747 1.429 . S
C728 H752 0.950 . S
C729 C746 1.574 . S
C729 C748 1.368 . S
C729 H753 0.949 . S
H730 C734 0.949 . S
C731 C732 1.349 . S
C731 C733 1.327 . S
C731 H754 0.950 . S
C732 C731 1.349 . S
C732 C744 1.349 . S
C733 C731 1.327 . S
C733 C749 1.429 . S
C733 H755 0.950 . S
C734 H730 0.949 . S
C734 C742 1.574 . S
C734 C750 1.368 . S
H735 C743 0.950 . S
H736 C741 0.950 . S
H737 C742 0.949 . S
H738 C744 0.950 . S
H739 C745 0.950 . S
H740 C746 0.949 . S
C741 H736 0.950 . S
C741 C743 1.327 . S
C741 C747 1.429 . S
C742 C734 1.574 . S
C742 H737 0.949 . S
C742 C748 1.368 . S
C743 C727 1.349 . S
C743 H735 0.950 . S
C743 C741 1.327 . S
C744 C732 1.349 . S
C744 H738 0.950 . S
C744 C745 1.327 . S
C745 H739 0.950 . S
C745 C744 1.327 . S
C745 C749 1.429 . S
C746 C729 1.574 . S
C746 H740 0.949 . S
C746 C750 1.368 . S
C747 C728 1.429 . S
C747 C741 1.429 . S
C747 C748 1.523 . S
C748 C729 1.368 . S
C748 C742 1.368 . S
C748 C747 1.523 . S
C749 C733 1.429 . S
C749 C745 1.429 . S
C749 C750 1.523 . S
C750 C734 1.368 . S
C750 C746 1.368 . S
C750 C749 1.523 . S
H751 C726 0.950 . S
H752 C728 0.950 . S
H753 C729 0.949 . S
H754 C731 0.950 . S
H755 C733 0.950 . S
C756 C757 1.349 . S
C756 C758 1.327 . S
C756 H781 0.950 . S
C757 C756 1.349 . S
C757 C773 1.349 . S
C758 C756 1.327 . S
C758 C777 1.429 . S
C758 H782 0.950 . S
C759 C776 1.574 . S
C759 C778 1.368 . S
C759 H783 0.949 . S
H760 C764 0.949 . S
C761 C762 1.349 . S
C761 C763 1.327 . S
C761 H784 0.950 . S
C762 C761 1.349 . S
C762 C774 1.349 . S
C763 C761 1.327 . S
C763 C779 1.429 . S
C763 H785 0.950 . S
C764 H760 0.949 . S
C764 C772 1.574 . S
C764 C780 1.368 . S
H765 C773 0.950 . S
H766 C771 0.950 . S
H767 C772 0.949 . S
H768 C774 0.950 . S
H769 C775 0.950 . S
H770 C776 0.949 . S
C771 H766 0.950 . S
C771 C773 1.327 . S
C771 C777 1.429 . S
C772 C764 1.574 . S
C772 H767 0.949 . S
C772 C778 1.368 . S
C773 C757 1.349 . S
C773 H765 0.950 . S
C773 C771 1.327 . S
C774 C762 1.349 . S
C774 H768 0.950 . S
C774 C775 1.327 . S
C775 H769 0.950 . S
C775 C774 1.327 . S
C775 C779 1.429 . S
C776 C759 1.574 . S
C776 H770 0.949 . S
C776 C780 1.368 . S
C777 C758 1.429 . S
C777 C771 1.429 . S
C777 C778 1.523 . S
C778 C759 1.368 . S
C778 C772 1.368 . S
C778 C777 1.523 . S
C779 C763 1.429 . S
C779 C775 1.429 . S
C779 C780 1.523 . S
C780 C764 1.368 . S
C780 C776 1.368 . S
C780 C779 1.523 . S
H781 C756 0.950 . S
H782 C758 0.950 . S
H783 C759 0.949 . S
H784 C761 0.950 . S
H785 C763 0.950 . S
C786 C787 1.349 . S
C786 C788 1.327 . S
C786 H811 0.950 . S
C787 C786 1.349 . S
C787 C803 1.349 . S
C788 C786 1.327 . S
C788 C807 1.429 . S
C788 H812 0.950 . S
C789 C806 1.574 . S
C789 C808 1.368 . S
C789 H813 0.949 . S
H790 C794 0.949 . S
C791 C792 1.349 . S
C791 C793 1.327 . S
C791 H814 0.950 . S
C792 C791 1.349 . S
C792 C804 1.349 . S
C793 C791 1.327 . S
C793 C809 1.429 . S
C793 H815 0.950 . S
C794 H790 0.949 . S
C794 C802 1.574 . S
C794 C810 1.368 . S
H795 C803 0.950 . S
H796 C801 0.950 . S
H797 C802 0.949 . S
H798 C804 0.950 . S
H799 C805 0.950 . S
H800 C806 0.949 . S
C801 H796 0.950 . S
C801 C803 1.327 . S
C801 C807 1.429 . S
C802 C794 1.574 . S
C802 H797 0.949 . S
C802 C808 1.368 . S
C803 C787 1.349 . S
C803 H795 0.950 . S
C803 C801 1.327 . S
C804 C792 1.349 . S
C804 H798 0.950 . S
C804 C805 1.327 . S
C805 H799 0.950 . S
C805 C804 1.327 . S
C805 C809 1.429 . S
C806 C789 1.574 . S
C806 H800 0.949 . S
C806 C810 1.368 . S
C807 C788 1.429 . S
C807 C801 1.429 . S
C807 C808 1.523 . S
C808 C789 1.368 . S
C808 C802 1.368 . S
C808 C807 1.523 . S
C809 C793 1.429 . S
C809 C805 1.429 . S
C809 C810 1.523 . S
C810 C794 1.368 . S
C810 C806 1.368 . S
C810 C809 1.523 . S
H811 C786 0.950 . S
H812 C788 0.950 . S
H813 C789 0.949 . S
H814 C791 0.950 . S
H815 C793 0.950 . S
C816 C817 1.349 . S
C816 C818 1.327 . S
C816 H841 0.950 . S
C817 C816 1.349 . S
C817 C833 1.349 . S
C818 C816 1.327 . S
C818 C837 1.429 . S
C818 H842 0.950 . S
C819 C836 1.574 . S
C819 C838 1.368 . S
C819 H843 0.949 . S
H820 C824 0.949 . S
C821 C822 1.349 . S
C821 C823 1.327 . S
C821 H844 0.950 . S
C822 C821 1.349 . S
C822 C834 1.349 . S
C823 C821 1.327 . S
C823 C839 1.429 . S
C823 H845 0.950 . S
C824 H820 0.949 . S
C824 C832 1.574 . S
C824 C840 1.368 . S
H825 C833 0.950 . S
H826 C831 0.950 . S
H827 C832 0.949 . S
H828 C834 0.950 . S
H829 C835 0.950 . S
H830 C836 0.949 . S
C831 H826 0.950 . S
C831 C833 1.327 . S
C831 C837 1.429 . S
C832 C824 1.574 . S
C832 H827 0.949 . S
C832 C838 1.368 . S
C833 C817 1.349 . S
C833 H825 0.950 . S
C833 C831 1.327 . S
C834 C822 1.349 . S
C834 H828 0.950 . S
C834 C835 1.327 . S
C835 H829 0.950 . S
C835 C834 1.327 . S
C835 C839 1.429 . S
C836 C819 1.574 . S
C836 H830 0.949 . S
C836 C840 1.368 . S
C837 C818 1.429 . S
C837 C831 1.429 . S
C837 C838 1.523 . S
C838 C819 1.368 . S
C838 C832 1.368 . S
C838 C837 1.523 . S
C839 C823 1.429 . S
C839 C835 1.429 . S
C839 C840 1.523 . S
C840 C824 1.368 . S
C840 C836 1.368 . S
C840 C839 1.523 . S
H841 C816 0.950 . S
H842 C818 0.950 . S
H843 C819 0.949 . S
H844 C821 0.950 . S
H845 C823 0.950 . S
C846 C847 1.349 . S
C846 C848 1.327 . S
C846 H871 0.950 . S
C847 C846 1.349 . S
C847 C863 1.349 . S
C848 C846 1.327 . S
C848 C867 1.429 . S
C848 H872 0.950 . S
C849 C866 1.574 . S
C849 C868 1.368 . S
C849 H873 0.949 . S
H850 C854 0.949 . S
C851 C852 1.349 . S
C851 C853 1.327 . S
C851 H874 0.950 . S
C852 C851 1.349 . S
C852 C864 1.349 . S
C853 C851 1.327 . S
C853 C869 1.429 . S
C853 H875 0.950 . S
C854 H850 0.949 . S
C854 C862 1.574 . S
C854 C870 1.368 . S
H855 C863 0.950 . S
H856 C861 0.950 . S
H857 C862 0.949 . S
H858 C864 0.950 . S
H859 C865 0.950 . S
H860 C866 0.949 . S
C861 H856 0.950 . S
C861 C863 1.327 . S
C861 C867 1.429 . S
C862 C854 1.574 . S
C862 H857 0.949 . S
C862 C868 1.368 . S
C863 C847 1.349 . S
C863 H855 0.950 . S
C863 C861 1.327 . S
C864 C852 1.349 . S
C864 H858 0.950 . S
C864 C865 1.327 . S
C865 H859 0.950 . S
C865 C864 1.327 . S
C865 C869 1.429 . S
C866 C849 1.574 . S
C866 H860 0.949 . S
C866 C870 1.368 . S
C867 C848 1.429 . S
C867 C861 1.429 . S
C867 C868 1.523 . S
C868 C849 1.368 . S
C868 C862 1.368 . S
C868 C867 1.523 . S
C869 C853 1.429 . S
C869 C865 1.429 . S
C869 C870 1.523 . S
C870 C854 1.368 . S
C870 C866 1.368 . S
C870 C869 1.523 . S
H871 C846 0.950 . S
H872 C848 0.950 . S
H873 C849 0.949 . S
H874 C851 0.950 . S
H875 C853 0.950 . S
C876 C877 1.349 . S
C876 C878 1.327 . S
C876 H901 0.950 . S
C877 C876 1.349 . S
C877 C893 1.349 . S
C878 C876 1.327 . S
C878 C897 1.429 . S
C878 H902 0.950 . S
C879 C896 1.574 . S
C879 C898 1.368 . S
C879 H903 0.949 . S
H880 C884 0.949 . S
C881 C882 1.349 . S
C881 C883 1.327 . S
C881 H904 0.950 . S
C882 C881 1.349 . S
C882 C894 1.349 . S
C883 C881 1.327 . S
C883 C899 1.429 . S
C883 H905 0.950 . S
C884 H880 0.949 . S
C884 C892 1.574 . S
C884 C900 1.368 . S
H885 C893 0.950 . S
H886 C891 0.950 . S
H887 C892 0.949 . S
H888 C894 0.950 . S
H889 C895 0.950 . S
H890 C896 0.949 . S
C891 H886 0.950 . S
C891 C893 1.327 . S
C891 C897 1.429 . S
C892 C884 1.574 . S
C892 H887 0.949 . S
C892 C898 1.368 . S
C893 C877 1.349 . S
C893 H885 0.950 . S
C893 C891 1.327 . S
C894 C882 1.349 . S
C894 H888 0.950 . S
C894 C895 1.327 . S
C895 H889 0.950 . S
C895 C894 1.327 . S
C895 C899 1.429 . S
C896 C879 1.574 . S
C896 H890 0.949 . S
C896 C900 1.368 . S
C897 C878 1.429 . S
C897 C891 1.429 . S
C897 C898 1.523 . S
C898 C879 1.368 . S
C898 C892 1.368 . S
C898 C897 1.523 . S
C899 C883 1.429 . S
C899 C895 1.429 . S
C899 C900 1.523 . S
C900 C884 1.368 . S
C900 C896 1.368 . S
C900 C899 1.523 . S
H901 C876 0.950 . S
H902 C878 0.950 . S
H903 C879 0.949 . S
H904 C881 0.950 . S
H905 C883 0.950 . S
C906 C907 1.349 . S
C906 C908 1.327 . S
C906 H931 0.950 . S
C907 C906 1.349 . S
C907 C923 1.349 . S
C908 C906 1.327 . S
C908 C927 1.429 . S
C908 H932 0.950 . S
C909 C926 1.574 . S
C909 C928 1.368 . S
C909 H933 0.949 . S
H910 C914 0.949 . S
C911 C912 1.349 . S
C911 C913 1.327 . S
C911 H934 0.950 . S
C912 C911 1.349 . S
C912 C924 1.349 . S
C913 C911 1.327 . S
C913 C929 1.429 . S
C913 H935 0.950 . S
C914 H910 0.949 . S
C914 C922 1.574 . S
C914 C930 1.368 . S
H915 C923 0.950 . S
H916 C921 0.950 . S
H917 C922 0.949 . S
H918 C924 0.950 . S
H919 C925 0.950 . S
H920 C926 0.949 . S
C921 H916 0.950 . S
C921 C923 1.327 . S
C921 C927 1.429 . S
C922 C914 1.574 . S
C922 H917 0.949 . S
C922 C928 1.368 . S
C923 C907 1.349 . S
C923 H915 0.950 . S
C923 C921 1.327 . S
C924 C912 1.349 . S
C924 H918 0.950 . S
C924 C925 1.327 . S
C925 H919 0.950 . S
C925 C924 1.327 . S
C925 C929 1.429 . S
C926 C909 1.574 . S
C926 H920 0.949 . S
C926 C930 1.368 . S
C927 C908 1.429 . S
C927 C921 1.429 . S
C927 C928 1.523 . S
C928 C909 1.368 . S
C928 C922 1.368 . S
C928 C927 1.523 . S
C929 C913 1.429 . S
C929 C925 1.429 . S
C929 C930 1.523 . S
C930 C914 1.368 . S
C930 C926 1.368 . S
C930 C929 1.523 . S
H931 C906 0.950 . S
H932 C908 0.950 . S
H933 C909 0.949 . S
H934 C911 0.950 . S
H935 C913 0.950 . S
C936 C937 1.349 . S
C936 C938 1.327 . S
C936 H961 0.950 . S
C937 C936 1.349 . S
C937 C953 1.349 . S
C938 C936 1.327 . S
C938 C957 1.429 . S
C938 H962 0.950 . S
C939 C956 1.574 . S
C939 C958 1.368 . S
C939 H963 0.949 . S
H940 C944 0.949 . S
C941 C942 1.349 . S
C941 C943 1.327 . S
C941 H964 0.950 . S
C942 C941 1.349 . S
C942 C954 1.349 . S
C943 C941 1.327 . S
C943 C959 1.429 . S
C943 H965 0.950 . S
C944 H940 0.949 . S
C944 C952 1.574 . S
C944 C960 1.368 . S
H945 C953 0.950 . S
H946 C951 0.950 . S
H947 C952 0.949 . S
H948 C954 0.950 . S
H949 C955 0.950 . S
H950 C956 0.949 . S
C951 H946 0.950 . S
C951 C953 1.327 . S
C951 C957 1.429 . S
C952 C944 1.574 . S
C952 H947 0.949 . S
C952 C958 1.368 . S
C953 C937 1.349 . S
C953 H945 0.950 . S
C953 C951 1.327 . S
C954 C942 1.349 . S
C954 H948 0.950 . S
C954 C955 1.327 . S
C955 H949 0.950 . S
C955 C954 1.327 . S
C955 C959 1.429 . S
C956 C939 1.574 . S
C956 H950 0.949 . S
C956 C960 1.368 . S
C957 C938 1.429 . S
C957 C951 1.429 . S
C957 C958 1.523 . S
C958 C939 1.368 . S
C958 C952 1.368 . S
C958 C957 1.523 . S
C959 C943 1.429 . S
C959 C955 1.429 . S
C959 C960 1.523 . S
C960 C944 1.368 . S
C960 C956 1.368 . S
C960 C959 1.523 . S
H961 C936 0.950 . S
H962 C938 0.950 . S
H963 C939 0.949 . S
H964 C941 0.950 . S
H965 C943 0.950 . S
C966 C967 1.349 . S
C966 C968 1.327 . S
C966 H991 0.950 . S
C967 C966 1.349 . S
C967 C983 1.349 . S
C968 C966 1.327 . S
C968 C987 1.429 . S
C968 H992 0.950 . S
C969 C986 1.574 . S
C969 C988 1.368 . S
C969 H993 0.949 . S
H970 C974 0.949 . S
C971 C972 1.349 . S
C971 C973 1.327 . S
C971 H994 0.950 . S
C972 C971 1.349 . S
C972 C984 1.349 . S
C973 C971 1.327 . S
C973 C989 1.429 . S
C973 H995 0.950 . S
C974 H970 0.949 . S
C974 C982 1.574 . S
C974 C990 1.368 . S
H975 C983 0.950 . S
H976 C981 0.950 . S
H977 C982 0.949 . S
H978 C984 0.950 . S
H979 C985 0.950 . S
H980 C986 0.949 . S
C981 H976 0.950 . S
C981 C983 1.327 . S
C981 C987 1.429 . S
C982 C974 1.574 . S
C982 H977 0.949 . S
C982 C988 1.368 . S
C983 C967 1.349 . S
C983 H975 0.950 . S
C983 C981 1.327 . S
C984 C972 1.349 . S
C984 H978 0.950 . S
C984 C985 1.327 . S
C985 H979 0.950 . S
C985 C984 1.327 . S
C985 C989 1.429 . S
C986 C969 1.574 . S
C986 H980 0.949 . S
C986 C990 1.368 . S
C987 C968 1.429 . S
C987 C981 1.429 . S
C987 C988 1.523 . S
C988 C969 1.368 . S
C988 C982 1.368 . S
C988 C987 1.523 . S
C989 C973 1.429 . S
C989 C985 1.429 . S
C989 C990 1.523 . S
C990 C974 1.368 . S
C990 C986 1.368 . S
C990 C989 1.523 . S
H991 C966 0.950 . S
H992 C968 0.950 . S
H993 C969 0.949 . S
H994 C971 0.950 . S
H995 C973 0.950 . S
C996 C997 1.349 . S
C996 C998 1.327 . S
C996 H1021 0.950 . S
C997 C996 1.349 . S
C997 C1013 1.349 . S
C998 C996 1.327 . S
C998 C1017 1.429 . S
C998 H1022 0.950 . S
C999 C1016 1.574 . S
C999 C1018 1.368 . S
C999 H1023 0.949 . S
H1000 C1004 0.949 . S
C1001 C1002 1.349 . S
C1001 C1003 1.327 . S
C1001 H1024 0.950 . S
C1002 C1001 1.349 . S
C1002 C1014 1.349 . S
C1003 C1001 1.327 . S
C1003 C1019 1.429 . S
C1003 H1025 0.950 . S
C1004 H1000 0.949 . S
C1004 C1012 1.574 . S
C1004 C1020 1.368 . S
H1005 C1013 0.950 . S
H1006 C1011 0.950 . S
H1007 C1012 0.949 . S
H1008 C1014 0.950 . S
H1009 C1015 0.950 . S
H1010 C1016 0.949 . S
C1011 H1006 0.950 . S
C1011 C1013 1.327 . S
C1011 C1017 1.429 . S
C1012 C1004 1.574 . S
C1012 H1007 0.949 . S
C1012 C1018 1.368 . S
C1013 C997 1.349 . S
C1013 H1005 0.950 . S
C1013 C1011 1.327 . S
C1014 C1002 1.349 . S
C1014 H1008 0.950 . S
C1014 C1015 1.327 . S
C1015 H1009 0.950 . S
C1015 C1014 1.327 . S
C1015 C1019 1.429 . S
C1016 C999 1.574 . S
C1016 H1010 0.949 . S
C1016 C1020 1.368 . S
C1017 C998 1.429 . S
C1017 C1011 1.429 . S
C1017 C1018 1.523 . S
C1018 C999 1.368 . S
C1018 C1012 1.368 . S
C1018 C1017 1.523 . S
C1019 C1003 1.429 . S
C1019 C1015 1.429 . S
C1019 C1020 1.523 . S
C1020 C1004 1.368 . S
C1020 C1016 1.368 . S
C1020 C1019 1.523 . S
H1021 C996 0.950 . S
H1022 C998 0.950 . S
H1023 C999 0.949 . S
H1024 C1001 0.950 . S
H1025 C1003 0.950 . S
C1026 C1027 1.349 . S
C1026 C1028 1.327 . S
C1026 H1051 0.950 . S
C1027 C1026 1.349 . S
C1027 C1043 1.349 . S
C1028 C1026 1.327 . S
C1028 C1047 1.429 . S
C1028 H1052 0.950 . S
C1029 C1046 1.574 . S
C1029 C1048 1.368 . S
C1029 H1053 0.949 . S
H1030 C1034 0.949 . S
C1031 C1032 1.349 . S
C1031 C1033 1.327 . S
C1031 H1054 0.950 . S
C1032 C1031 1.349 . S
C1032 C1044 1.349 . S
C1033 C1031 1.327 . S
C1033 C1049 1.429 . S
C1033 H1055 0.950 . S
C1034 H1030 0.949 . S
C1034 C1042 1.574 . S
C1034 C1050 1.368 . S
H1035 C1043 0.950 . S
H1036 C1041 0.950 . S
H1037 C1042 0.949 . S
H1038 C1044 0.950 . S
H1039 C1045 0.950 . S
H1040 C1046 0.949 . S
C1041 H1036 0.950 . S
C1041 C1043 1.327 . S
C1041 C1047 1.429 . S
C1042 C1034 1.574 . S
C1042 H1037 0.949 . S
C1042 C1048 1.368 . S
C1043 C1027 1.349 . S
C1043 H1035 0.950 . S
C1043 C1041 1.327 . S
C1044 C1032 1.349 . S
C1044 H1038 0.950 . S
C1044 C1045 1.327 . S
C1045 H1039 0.950 . S
C1045 C1044 1.327 . S
C1045 C1049 1.429 . S
C1046 C1029 1.574 . S
C1046 H1040 0.949 . S
C1046 C1050 1.368 . S
C1047 C1028 1.429 . S
C1047 C1041 1.429 . S
C1047 C1048 1.523 . S
C1048 C1029 1.368 . S
C1048 C1042 1.368 . S
C1048 C1047 1.523 . S
C1049 C1033 1.429 . S
C1049 C1045 1.429 . S
C1049 C1050 1.523 . S
C1050 C1034 1.368 . S
C1050 C1046 1.368 . S
C1050 C1049 1.523 . S
H1051 C1026 0.950 . S
H1052 C1028 0.950 . S
H1053 C1029 0.949 . S
H1054 C1031 0.950 . S
H1055 C1033 0.950 . S
C1056 C1057 1.349 . S
C1056 C1058 1.327 . S
C1056 H1081 0.950 . S
C1057 C1056 1.349 . S
C1057 C1073 1.349 . S
C1058 C1056 1.327 . S
C1058 C1077 1.429 . S
C1058 H1082 0.950 . S
C1059 C1076 1.574 . S
C1059 C1078 1.368 . S
C1059 H1083 0.949 . S
H1060 C1064 0.949 . S
C1061 C1062 1.349 . S
C1061 C1063 1.327 . S
C1061 H1084 0.950 . S
C1062 C1061 1.349 . S
C1062 C1074 1.349 . S
C1063 C1061 1.327 . S
C1063 C1079 1.429 . S
C1063 H1085 0.950 . S
C1064 H1060 0.949 . S
C1064 C1072 1.574 . S
C1064 C1080 1.368 . S
H1065 C1073 0.950 . S
H1066 C1071 0.950 . S
H1067 C1072 0.949 . S
H1068 C1074 0.950 . S
H1069 C1075 0.950 . S
H1070 C1076 0.949 . S
C1071 H1066 0.950 . S
C1071 C1073 1.327 . S
C1071 C1077 1.429 . S
C1072 C1064 1.574 . S
C1072 H1067 0.949 . S
C1072 C1078 1.368 . S
C1073 C1057 1.349 . S
C1073 H1065 0.950 . S
C1073 C1071 1.327 . S
C1074 C1062 1.349 . S
C1074 H1068 0.950 . S
C1074 C1075 1.327 . S
C1075 H1069 0.950 . S
C1075 C1074 1.327 . S
C1075 C1079 1.429 . S
C1076 C1059 1.574 . S
C1076 H1070 0.949 . S
C1076 C1080 1.368 . S
C1077 C1058 1.429 . S
C1077 C1071 1.429 . S
C1077 C1078 1.523 . S
C1078 C1059 1.368 . S
C1078 C1072 1.368 . S
C1078 C1077 1.523 . S
C1079 C1063 1.429 . S
C1079 C1075 1.429 . S
C1079 C1080 1.523 . S
C1080 C1064 1.368 . S
C1080 C1076 1.368 . S
C1080 C1079 1.523 . S
H1081 C1056 0.950 . S
H1082 C1058 0.950 . S
H1083 C1059 0.949 . S
H1084 C1061 0.950 . S
H1085 C1063 0.950 . S
C1086 C1087 1.349 . S
C1086 C1088 1.327 . S
C1086 H1111 0.950 . S
C1087 C1086 1.349 . S
C1087 C1103 1.349 . S
C1088 C1086 1.327 . S
C1088 C1107 1.429 . S
C1088 H1112 0.950 . S
C1089 C1106 1.574 . S
C1089 C1108 1.368 . S
C1089 H1113 0.949 . S
H1090 C1094 0.949 . S
C1091 C1092 1.349 . S
C1091 C1093 1.327 . S
C1091 H1114 0.950 . S
C1092 C1091 1.349 . S
C1092 C1104 1.349 . S
C1093 C1091 1.327 . S
C1093 C1109 1.429 . S
C1093 H1115 0.950 . S
C1094 H1090 0.949 . S
C1094 C1102 1.574 . S
C1094 C1110 1.368 . S
H1095 C1103 0.950 . S
H1096 C1101 0.950 . S
H1097 C1102 0.949 . S
H1098 C1104 0.950 . S
H1099 C1105 0.950 . S
H1100 C1106 0.949 . S
C1101 H1096 0.950 . S
C1101 C1103 1.327 . S
C1101 C1107 1.429 . S
C1102 C1094 1.574 . S
C1102 H1097 0.949 . S
C1102 C1108 1.368 . S
C1103 C1087 1.349 . S
C1103 H1095 0.950 . S
C1103 C1101 1.327 . S
C1104 C1092 1.349 . S
C1104 H1098 0.950 . S
C1104 C1105 1.327 . S
C1105 H1099 0.950 . S
C1105 C1104 1.327 . S
C1105 C1109 1.429 . S
C1106 C1089 1.574 . S
C1106 H1100 0.949 . S
C1106 C1110 1.368 . S
C1107 C1088 1.429 . S
C1107 C1101 1.429 . S
C1107 C1108 1.523 . S
C1108 C1089 1.368 . S
C1108 C1102 1.368 . S
C1108 C1107 1.523 . S
C1109 C1093 1.429 . S
C1109 C1105 1.429 . S
C1109 C1110 1.523 . S
C1110 C1094 1.368 . S
C1110 C1106 1.368 . S
C1110 C1109 1.523 . S
H1111 C1086 0.950 . S
H1112 C1088 0.950 . S
H1113 C1089 0.949 . S
H1114 C1091 0.950 . S
H1115 C1093 0.950 . S
C1116 C1117 1.349 . S
C1116 C1118 1.327 . S
C1116 H1141 0.950 . S
C1117 C1116 1.349 . S
C1117 C1133 1.349 . S
C1118 C1116 1.327 . S
C1118 C1137 1.429 . S
C1118 H1142 0.950 . S
C1119 C1136 1.574 . S
C1119 C1138 1.368 . S
C1119 H1143 0.949 . S
H1120 C1124 0.949 . S
C1121 C1122 1.349 . S
C1121 C1123 1.327 . S
C1121 H1144 0.950 . S
C1122 C1121 1.349 . S
C1122 C1134 1.349 . S
C1123 C1121 1.327 . S
C1123 C1139 1.429 . S
C1123 H1145 0.950 . S
C1124 H1120 0.949 . S
C1124 C1132 1.574 . S
C1124 C1140 1.368 . S
H1125 C1133 0.950 . S
H1126 C1131 0.950 . S
H1127 C1132 0.949 . S
H1128 C1134 0.950 . S
H1129 C1135 0.950 . S
H1130 C1136 0.949 . S
C1131 H1126 0.950 . S
C1131 C1133 1.327 . S
C1131 C1137 1.429 . S
C1132 C1124 1.574 . S
C1132 H1127 0.949 . S
C1132 C1138 1.368 . S
C1133 C1117 1.349 . S
C1133 H1125 0.950 . S
C1133 C1131 1.327 . S
C1134 C1122 1.349 . S
C1134 H1128 0.950 . S
C1134 C1135 1.327 . S
C1135 H1129 0.950 . S
C1135 C1134 1.327 . S
C1135 C1139 1.429 . S
C1136 C1119 1.574 . S
C1136 H1130 0.949 . S
C1136 C1140 1.368 . S
C1137 C1118 1.429 . S
C1137 C1131 1.429 . S
C1137 C1138 1.523 . S
C1138 C1119 1.368 . S
C1138 C1132 1.368 . S
C1138 C1137 1.523 . S
C1139 C1123 1.429 . S
C1139 C1135 1.429 . S
C1139 C1140 1.523 . S
C1140 C1124 1.368 . S
C1140 C1136 1.368 . S
C1140 C1139 1.523 . S
H1141 C1116 0.950 . S
H1142 C1118 0.950 . S
H1143 C1119 0.949 . S
H1144 C1121 0.950 . S
H1145 C1123 0.950 . S
C1146 C1147 1.349 . S
C1146 C1148 1.327 . S
C1146 H1171 0.950 . S
C1147 C1146 1.349 . S
C1147 C1163 1.349 . S
C1148 C1146 1.327 . S
C1148 C1167 1.429 . S
C1148 H1172 0.950 . S
C1149 C1166 1.574 . S
C1149 C1168 1.368 . S
C1149 H1173 0.949 . S
H1150 C1154 0.949 . S
C1151 C1152 1.349 . S
C1151 C1153 1.327 . S
C1151 H1174 0.950 . S
C1152 C1151 1.349 . S
C1152 C1164 1.349 . S
C1153 C1151 1.327 . S
C1153 C1169 1.429 . S
C1153 H1175 0.950 . S
C1154 H1150 0.949 . S
C1154 C1162 1.574 . S
C1154 C1170 1.368 . S
H1155 C1163 0.950 . S
H1156 C1161 0.950 . S
H1157 C1162 0.949 . S
H1158 C1164 0.950 . S
H1159 C1165 0.950 . S
H1160 C1166 0.949 . S
C1161 H1156 0.950 . S
C1161 C1163 1.327 . S
C1161 C1167 1.429 . S
C1162 C1154 1.574 . S
C1162 H1157 0.949 . S
C1162 C1168 1.368 . S
C1163 C1147 1.349 . S
C1163 H1155 0.950 . S
C1163 C1161 1.327 . S
C1164 C1152 1.349 . S
C1164 H1158 0.950 . S
C1164 C1165 1.327 . S
C1165 H1159 0.950 . S
C1165 C1164 1.327 . S
C1165 C1169 1.429 . S
C1166 C1149 1.574 . S
C1166 H1160 0.949 . S
C1166 C1170 1.368 . S
C1167 C1148 1.429 . S
C1167 C1161 1.429 . S
C1167 C1168 1.523 . S
C1168 C1149 1.368 . S
C1168 C1162 1.368 . S
C1168 C1167 1.523 . S
C1169 C1153 1.429 . S
C1169 C1165 1.429 . S
C1169 C1170 1.523 . S
C1170 C1154 1.368 . S
C1170 C1166 1.368 . S
C1170 C1169 1.523 . S
H1171 C1146 0.950 . S
H1172 C1148 0.950 . S
H1173 C1149 0.949 . S
H1174 C1151 0.950 . S
H1175 C1153 0.950 . S
C1176 C1177 1.349 . S
C1176 C1178 1.327 . S
C1176 H1201 0.950 . S
C1177 C1176 1.349 . S
C1177 C1193 1.349 . S
C1178 C1176 1.327 . S
C1178 C1197 1.429 . S
C1178 H1202 0.950 . S
C1179 C1196 1.574 . S
C1179 C1198 1.368 . S
C1179 H1203 0.949 . S
H1180 C1184 0.949 . S
C1181 C1182 1.349 . S
C1181 C1183 1.327 . S
C1181 H1204 0.950 . S
C1182 C1181 1.349 . S
C1182 C1194 1.349 . S
C1183 C1181 1.327 . S
C1183 C1199 1.429 . S
C1183 H1205 0.950 . S
C1184 H1180 0.949 . S
C1184 C1192 1.574 . S
C1184 C1200 1.368 . S
H1185 C1193 0.950 . S
H1186 C1191 0.950 . S
H1187 C1192 0.949 . S
H1188 C1194 0.950 . S
H1189 C1195 0.950 . S
H1190 C1196 0.949 . S
C1191 H1186 0.950 . S
C1191 C1193 1.327 . S
C1191 C1197 1.429 . S
C1192 C1184 1.574 . S
C1192 H1187 0.949 . S
C1192 C1198 1.368 . S
C1193 C1177 1.349 . S
C1193 H1185 0.950 . S
C1193 C1191 1.327 . S
C1194 C1182 1.349 . S
C1194 H1188 0.950 . S
C1194 C1195 1.327 . S
C1195 H1189 0.950 . S
C1195 C1194 1.327 . S
C1195 C1199 1.429 . S
C1196 C1179 1.574 . S
C1196 H1190 0.949 . S
C1196 C1200 1.368 . S
C1197 C1178 1.429 . S
C1197 C1191 1.429 . S
C1197 C1198 1.523 . S
C1198 C1179 1.368 . S
C1198 C1192 1.368 . S
C1198 C1197 1.523 . S
C1199 C1183 1.429 . S
C1199 C1195 1.429 . S
C1199 C1200 1.523 . S
C1200 C1184 1.368 . S
C1200 C1196 1.368 . S
C1200 C1199 1.523 . S
H1201 C1176 0.950 . S
H1202 C1178 0.950 . S
H1203 C1179 0.949 . S
H1204 C1181 0.950 . S
H1205 C1183 0.950 . S
C1206 C1207 1.349 . S
C1206 C1208 1.327 . S
C1206 H1231 0.950 . S
C1207 C1206 1.349 . S
C1207 C1223 1.349 . S
C1208 C1206 1.327 . S
C1208 C1227 1.429 . S
C1208 H1232 0.950 . S
C1209 C1226 1.574 . S
C1209 C1228 1.368 . S
C1209 H1233 0.949 . S
H1210 C1214 0.949 . S
C1211 C1212 1.349 . S
C1211 C1213 1.327 . S
C1211 H1234 0.950 . S
C1212 C1211 1.349 . S
C1212 C1224 1.349 . S
C1213 C1211 1.327 . S
C1213 C1229 1.429 . S
C1213 H1235 0.950 . S
C1214 H1210 0.949 . S
C1214 C1222 1.574 . S
C1214 C1230 1.368 . S
H1215 C1223 0.950 . S
H1216 C1221 0.950 . S
H1217 C1222 0.949 . S
H1218 C1224 0.950 . S
H1219 C1225 0.950 . S
H1220 C1226 0.949 . S
C1221 H1216 0.950 . S
C1221 C1223 1.327 . S
C1221 C1227 1.429 . S
C1222 C1214 1.574 . S
C1222 H1217 0.949 . S
C1222 C1228 1.368 . S
C1223 C1207 1.349 . S
C1223 H1215 0.950 . S
C1223 C1221 1.327 . S
C1224 C1212 1.349 . S
C1224 H1218 0.950 . S
C1224 C1225 1.327 . S
C1225 H1219 0.950 . S
C1225 C1224 1.327 . S
C1225 C1229 1.429 . S
C1226 C1209 1.574 . S
C1226 H1220 0.949 . S
C1226 C1230 1.368 . S
C1227 C1208 1.429 . S
C1227 C1221 1.429 . S
C1227 C1228 1.523 . S
C1228 C1209 1.368 . S
C1228 C1222 1.368 . S
C1228 C1227 1.523 . S
C1229 C1213 1.429 . S
C1229 C1225 1.429 . S
C1229 C1230 1.523 . S
C1230 C1214 1.368 . S
C1230 C1226 1.368 . S
C1230 C1229 1.523 . S
H1231 C1206 0.950 . S
H1232 C1208 0.950 . S
H1233 C1209 0.949 . S
H1234 C1211 0.950 . S
H1235 C1213 0.950 . S
C1236 C1237 1.349 . S
C1236 C1238 1.327 . S
C1236 H1261 0.950 . S
C1237 C1236 1.349 . S
C1237 C1253 1.349 . S
C1238 C1236 1.327 . S
C1238 C1257 1.429 . S
C1238 H1262 0.950 . S
C1239 C1256 1.574 . S
C1239 C1258 1.368 . S
C1239 H1263 0.949 . S
H1240 C1244 0.949 . S
C1241 C1242 1.349 . S
C1241 C1243 1.327 . S
C1241 H1264 0.950 . S
C1242 C1241 1.349 . S
C1242 C1254 1.349 . S
C1243 C1241 1.327 . S
C1243 C1259 1.429 . S
C1243 H1265 0.950 . S
C1244 H1240 0.949 . S
C1244 C1252 1.574 . S
C1244 C1260 1.368 . S
H1245 C1253 0.950 . S
H1246 C1251 0.950 . S
H1247 C1252 0.949 . S
H1248 C1254 0.950 . S
H1249 C1255 0.950 . S
H1250 C1256 0.949 . S
C1251 H1246 0.950 . S
C1251 C1253 1.327 . S
C1251 C1257 1.429 . S
C1252 C1244 1.574 . S
C1252 H1247 0.949 . S
C1252 C1258 1.368 . S
C1253 C1237 1.349 . S
C1253 H1245 0.950 . S
C1253 C1251 1.327 . S
C1254 C1242 1.349 . S
C1254 H1248 0.950 . S
C1254 C1255 1.327 . S
C1255 H1249 0.950 . S
C1255 C1254 1.327 . S
C1255 C1259 1.429 . S
C1256 C1239 1.574 . S
C1256 H1250 0.949 . S
C1256 C1260 1.368 . S
C1257 C1238 1.429 . S
C1257 C1251 1.429 . S
C1257 C1258 1.523 . S
C1258 C1239 1.368 . S
C1258 C1252 1.368 . S
C1258 C1257 1.523 . S
C1259 C1243 1.429 . S
C1259 C1255 1.429 . S
C1259 C1260 1.523 . S
C1260 C1244 1.368 . S
C1260 C1256 1.368 . S
C1260 C1259 1.523 . S
H1261 C1236 0.950 . S
H1262 C1238 0.950 . S
H1263 C1239 0.949 . S
H1264 C1241 0.950 . S
H1265 C1243 0.950 . S
C1266 C1267 1.349 . S
C1266 C1268 1.327 . S
C1266 H1291 0.950 . S
C1267 C1266 1.349 . S
C1267 C1283 1.349 . S
C1268 C1266 1.327 . S
C1268 C1287 1.429 . S
C1268 H1292 0.950 . S
C1269 C1286 1.574 . S
C1269 C1288 1.368 . S
C1269 H1293 0.949 . S
H1270 C1274 0.949 . S
C1271 C1272 1.349 . S
C1271 C1273 1.327 . S
C1271 H1294 0.950 . S
C1272 C1271 1.349 . S
C1272 C1284 1.349 . S
C1273 C1271 1.327 . S
C1273 C1289 1.429 . S
C1273 H1295 0.950 . S
C1274 H1270 0.949 . S
C1274 C1282 1.574 . S
C1274 C1290 1.368 . S
H1275 C1283 0.950 . S
H1276 C1281 0.950 . S
H1277 C1282 0.949 . S
H1278 C1284 0.950 . S
H1279 C1285 0.950 . S
H1280 C1286 0.949 . S
C1281 H1276 0.950 . S
C1281 C1283 1.327 . S
C1281 C1287 1.429 . S
C1282 C1274 1.574 . S
C1282 H1277 0.949 . S
C1282 C1288 1.368 . S
C1283 C1267 1.349 . S
C1283 H1275 0.950 . S
C1283 C1281 1.327 . S
C1284 C1272 1.349 . S
C1284 H1278 0.950 . S
C1284 C1285 1.327 . S
C1285 H1279 0.950 . S
C1285 C1284 1.327 . S
C1285 C1289 1.429 . S
C1286 C1269 1.574 . S
C1286 H1280 0.949 . S
C1286 C1290 1.368 . S
C1287 C1268 1.429 . S
C1287 C1281 1.429 . S
C1287 C1288 1.523 . S
C1288 C1269 1.368 . S
C1288 C1282 1.368 . S
C1288 C1287 1.523 . S
C1289 C1273 1.429 . S
C1289 C1285 1.429 . S
C1289 C1290 1.523 . S
C1290 C1274 1.368 . S
C1290 C1286 1.368 . S
C1290 C1289 1.523 . S
H1291 C1266 0.950 . S
H1292 C1268 0.950 . S
H1293 C1269 0.949 . S
H1294 C1271 0.950 . S
H1295 C1273 0.950 . S
C1296 C1297 1.349 . S
C1296 C1298 1.327 . S
C1296 H1321 0.950 . S
C1297 C1296 1.349 . S
C1297 C1313 1.349 . S
C1298 C1296 1.327 . S
C1298 C1317 1.429 . S
C1298 H1322 0.950 . S
C1299 C1316 1.574 . S
C1299 C1318 1.368 . S
C1299 H1323 0.949 . S
H1300 C1304 0.949 . S
C1301 C1302 1.349 . S
C1301 C1303 1.327 . S
C1301 H1324 0.950 . S
C1302 C1301 1.349 . S
C1302 C1314 1.349 . S
C1303 C1301 1.327 . S
C1303 C1319 1.429 . S
C1303 H1325 0.950 . S
C1304 H1300 0.949 . S
C1304 C1312 1.574 . S
C1304 C1320 1.368 . S
H1305 C1313 0.950 . S
H1306 C1311 0.950 . S
H1307 C1312 0.949 . S
H1308 C1314 0.950 . S
H1309 C1315 0.950 . S
H1310 C1316 0.949 . S
C1311 H1306 0.950 . S
C1311 C1313 1.327 . S
C1311 C1317 1.429 . S
C1312 C1304 1.574 . S
C1312 H1307 0.949 . S
C1312 C1318 1.368 . S
C1313 C1297 1.349 . S
C1313 H1305 0.950 . S
C1313 C1311 1.327 . S
C1314 C1302 1.349 . S
C1314 H1308 0.950 . S
C1314 C1315 1.327 . S
C1315 H1309 0.950 . S
C1315 C1314 1.327 . S
C1315 C1319 1.429 . S
C1316 C1299 1.574 . S
C1316 H1310 0.949 . S
C1316 C1320 1.368 . S
C1317 C1298 1.429 . S
C1317 C1311 1.429 . S
C1317 C1318 1.523 . S
C1318 C1299 1.368 . S
C1318 C1312 1.368 . S
C1318 C1317 1.523 . S
C1319 C1303 1.429 . S
C1319 C1315 1.429 . S
C1319 C1320 1.523 . S
C1320 C1304 1.368 . S
C1320 C1316 1.368 . S
C1320 C1319 1.523 . S
H1321 C1296 0.950 . S
H1322 C1298 0.950 . S
H1323 C1299 0.949 . S
H1324 C1301 0.950 . S
H1325 C1303 0.950 . S
C1326 C1327 1.349 . S
C1326 C1328 1.327 . S
C1326 H1351 0.950 . S
C1327 C1326 1.349 . S
C1327 C1343 1.349 . S
C1328 C1326 1.327 . S
C1328 C1347 1.429 . S
C1328 H1352 0.950 . S
C1329 C1346 1.574 . S
C1329 C1348 1.368 . S
C1329 H1353 0.949 . S
H1330 C1334 0.949 . S
C1331 C1332 1.349 . S
C1331 C1333 1.327 . S
C1331 H1354 0.950 . S
C1332 C1331 1.349 . S
C1332 C1344 1.349 . S
C1333 C1331 1.327 . S
C1333 C1349 1.429 . S
C1333 H1355 0.950 . S
C1334 H1330 0.949 . S
C1334 C1342 1.574 . S
C1334 C1350 1.368 . S
H1335 C1343 0.950 . S
H1336 C1341 0.950 . S
H1337 C1342 0.949 . S
H1338 C1344 0.950 . S
H1339 C1345 0.950 . S
H1340 C1346 0.949 . S
C1341 H1336 0.950 . S
C1341 C1343 1.327 . S
C1341 C1347 1.429 . S
C1342 C1334 1.574 . S
C1342 H1337 0.949 . S
C1342 C1348 1.368 . S
C1343 C1327 1.349 . S
C1343 H1335 0.950 . S
C1343 C1341 1.327 . S
C1344 C1332 1.349 . S
C1344 H1338 0.950 . S
C1344 C1345 1.327 . S
C1345 H1339 0.950 . S
C1345 C1344 1.327 . S
C1345 C1349 1.429 . S
C1346 C1329 1.574 . S
C1346 H1340 0.949 . S
C1346 C1350 1.368 . S
C1347 C1328 1.429 . S
C1347 C1341 1.429 . S
C1347 C1348 1.523 . S
C1348 C1329 1.368 . S
C1348 C1342 1.368 . S
C1348 C1347 1.523 . S
C1349 C1333 1.429 . S
C1349 C1345 1.429 . S
C1349 C1350 1.523 . S
C1350 C1334 1.368 . S
C1350 C1346 1.368 . S
C1350 C1349 1.523 . S
H1351 C1326 0.950 . S
H1352 C1328 0.950 . S
H1353 C1329 0.949 . S
H1354 C1331 0.950 . S
H1355 C1333 0.950 . S
C637 C39 1.960 . S
C642 C356 1.941 . S
C667 C91 1.644 . S
C672 C409 1.628 . S
C702 C462 1.682 . S
C697 C128 1.703 . S
C732 C499 1.325 . S
C727 C188 1.336 . S
C762 C559 1.697 . S
C757 C250 1.714 . S
C792 C612 1.555 . S
C787 C304 1.576 . S
C817 C75 1.827 . S
C822 C463 1.813 . S
C847 C144 1.601 . S
C852 C506 1.583 . S
C882 C552 1.745 . S
C877 C198 1.757 . S
C912 C605 1.332 . S
C907 C234 1.345 . S
C937 C294 1.653 . S
C942 C357 1.640 . S
C972 C410 1.478 . S
C967 C29 1.487 . S
C1002 C516 1.941 . S
C997 C38 1.959 . S
C1027 C92 1.644 . S
C1032 C568 1.633 . S
C1062 C621 1.687 . S
C1057 C135 1.703 . S
C1087 C181 1.336 . S
C1092 C347 1.325 . S
C1117 C251 1.714 . S
C1122 C400 1.701 . S
C1147 C303 1.576 . S
C1152 C453 1.560 . S
C1177 C82 1.827 . S
C1182 C622 1.807 . S
C1212 C340 1.583 . S
C1207 C145 1.601 . S
C1237 C197 1.757 . S
C1242 C393 1.741 . S
C1267 C241 1.345 . S
C1272 C446 1.328 . S
C1297 C287 1.653 . S
C1302 C515 1.640 . S
C1327 C22 1.487 . S
C1332 C569 1.473 . S
