# Generated by pormake.
# Topology anh, (6,3)-cn, num edge types: 1
# Building blocks:
#     Node 0, Type 0, BuildingBlock: BETFAJ_clean_sbu_0, # of connection points: 6
#     Node 1, Type 0, BuildingBlock: BETFAJ_clean_sbu_0, # of connection points: 6
#     Node 2, Type 0, BuildingBlock: BETFAJ_clean_sbu_0, # of connection points: 6
#     Node 3, Type 1, BuildingBlock: OLANEW_clean_sbu_2, # of connection points: 3
#     Node 4, Type 1, BuildingBlock: OLANEW_clean_sbu_2, # of connection points: 3
#     Node 5, Type 1, BuildingBlock: OLANEW_clean_sbu_2, # of connection points: 3
#     Node 6, Type 1, BuildingBlock: OLANEW_clean_sbu_2, # of connection points: 3
#     Node 7, Type 1, BuildingBlock: OLANEW_clean_sbu_2, # of connection points: 3
#     Node 8, Type 1, BuildingBlock: OLANEW_clean_sbu_2, # of connection points: 3
#     Edge 9, Type (0, 1), BuildingBlock: OJICUG_clean_linker_0, # of connection points: 2
#     Edge 10, Type (0, 1), BuildingBlock: OJICUG_clean_linker_0, # of connection points: 2
#     Edge 11, Type (0, 1), BuildingBlock: OJICUG_clean_linker_0, # of connection points: 2
#     Edge 12, Type (0, 1), BuildingBlock: OJICUG_clean_linker_0, # of connection points: 2
#     Edge 13, Type (0, 1), BuildingBlock: OJICUG_clean_linker_0, # of connection points: 2
#     Edge 14, Type (0, 1), BuildingBlock: OJICUG_clean_linker_0, # of connection points: 2
#     Edge 15, Type (0, 1), BuildingBlock: OJICUG_clean_linker_0, # of connection points: 2
#     Edge 16, Type (0, 1), BuildingBlock: OJICUG_clean_linker_0, # of connection points: 2
#     Edge 17, Type (0, 1), BuildingBlock: OJICUG_clean_linker_0, # of connection points: 2
#     Edge 18, Type (0, 1), BuildingBlock: OJICUG_clean_linker_0, # of connection points: 2
#     Edge 19, Type (0, 1), BuildingBlock: OJICUG_clean_linker_0, # of connection points: 2
#     Edge 20, Type (0, 1), BuildingBlock: OJICUG_clean_linker_0, # of connection points: 2
#     Edge 21, Type (0, 1), BuildingBlock: OJICUG_clean_linker_0, # of connection points: 2
#     Edge 22, Type (0, 1), BuildingBlock: OJICUG_clean_linker_0, # of connection points: 2
#     Edge 23, Type (0, 1), BuildingBlock: OJICUG_clean_linker_0, # of connection points: 2
#     Edge 24, Type (0, 1), BuildingBlock: OJICUG_clean_linker_0, # of connection points: 2
#     Edge 25, Type (0, 1), BuildingBlock: OJICUG_clean_linker_0, # of connection points: 2
#     Edge 26, Type (0, 1), BuildingBlock: OJICUG_clean_linker_0, # of connection points: 2
# Relax obj value: 0.195
# Max RMSD: 0.194
# Mean RMSD: 0.124
data_MOF--net-anh--node1-BETFAJ_clean_sbu_0--node2-OLANEW_clean_sbu_2--edge1-OJICUG_clean_linker_0
_symmetry_space_group_name_H-M    P1
_symmetry_Int_Tables_number       1
_symmetry_cell_setting            triclinic
loop_
_symmetry_equiv_pos_as_xyz
'x, y, z'
_cell_length_a     29.619964
_cell_length_b     33.68693
_cell_length_c     37.117516
_cell_angle_alpha  91.688366
_cell_angle_beta   89.574793
_cell_angle_gamma 132.99687
loop_
_atom_site_label
_atom_site_type_symbol
_atom_site_fract_x
_atom_site_fract_y
_atom_site_fract_z
_atom_type_partial_charge
Sm0 Sm 0.06362 0.49716 0.16286 0.0
Sm1 Sm 1.0006 0.53705 0.16952 0.0
C2 C 0.13975 0.48288 0.15694 0.0
C3 C 0.20341 0.51667 0.17022 0.0
C4 C 0.25083 0.5702 0.1591 0.0
C5 C 0.31225 0.59763 0.16677 0.0
C6 C 0.32648 0.57091 0.18449 0.0
C7 C 0.2786 0.52205 0.20157 0.0
C8 C 0.21736 0.49472 0.19396 0.0
C9 C 0.03151 0.50026 0.23159 0.0
C10 C 0.14842 0.62965 0.16982 0.0
C11 C 0.93309 0.55102 0.20151 0.0
C12 C 0.86665 0.5189 0.19952 0.0
C13 C 0.82893 0.48401 0.22757 0.0
C14 C 0.76513 0.44966 0.22483 0.0
C15 C 0.73834 0.44995 0.19407 0.0
C16 C 0.77591 0.48438 0.16588 0.0
C17 C 0.83962 0.51866 0.16857 0.0
C18 C 1.00351 0.52203 0.09585 0.0
C19 C 0.91916 0.40665 0.15631 0.0
O20 O 0.13034 0.50187 0.13077 0.0
O21 O 0.09799 0.46004 0.1818 0.0
O22 O 0.05769 0.53765 0.20938 0.0
O23 O 0.01825 0.45789 0.21716 0.0
O24 O 0.14719 0.59035 0.16237 0.0
O25 O 0.09786 0.61983 0.17576 0.0
O26 O 0.94743 0.526 0.21624 0.0
O27 O 0.96564 0.57793 0.17293 0.0
O28 O 0.02526 0.51302 0.12004 0.0
O29 O 0.98095 0.54083 0.11019 0.0
O30 O 0.9222 0.4437 0.17265 0.0
O31 O 0.96866 0.41914 0.14313 0.0
H32 H 0.24099 0.58936 0.14231 0.0
H33 H 0.34828 0.63629 0.1545 0.0
H34 H 0.28743 0.50069 0.21641 0.0
H35 H 0.18115 0.45456 0.20435 0.0
H36 H 0.8488 0.48311 0.25157 0.0
H37 H 0.7368 0.42377 0.24697 0.0
H38 H 0.75619 0.48637 0.14233 0.0
H39 H 0.86746 0.54484 0.14644 0.0
Sm40 Sm 0.54938 0.99814 0.49238 0.0
Sm41 Sm 0.48206 0.03303 0.48975 0.0
C42 C 0.58808 0.94762 0.50072 0.0
C43 C 0.56162 0.89134 0.50159 0.0
C44 C 0.5304 0.85983 0.53203 0.0
C45 C 0.51248 0.80948 0.53433 0.0
C46 C 0.525 0.78955 0.50622 0.0
C47 C 0.55252 0.81917 0.47482 0.0
C48 C 0.57104 0.8699 0.47261 0.0
C49 C 0.53885 0.02177 0.42465 0.0
C50 C 0.39771 0.9064 0.48737 0.0
C51 C 0.44379 0.0828 0.47595 0.0
C52 C 0.46429 0.13663 0.4825 0.0
C53 C 0.49357 0.17488 0.45517 0.0
C54 C 0.50856 0.22407 0.46022 0.0
C55 C 0.49377 0.23552 0.49248 0.0
C56 C 0.46641 0.19814 0.5202 0.0
C57 C 0.45182 0.14924 0.51529 0.0
C58 C 0.49555 0.01307 0.55836 0.0
C59 C 0.63467 0.12558 0.49526 0.0
O60 O 0.5769 0.9655 0.52781 0.0
O61 O 0.58655 0.96386 0.46966 0.0
O62 O 0.49518 0.99353 0.44658 0.0
O63 O 0.58992 0.03895 0.43817 0.0
O64 O 0.44725 0.91891 0.50104 0.0
O65 O 0.40135 0.94425 0.47413 0.0
O66 O 0.47583 0.08025 0.45331 0.0
O67 O 0.42563 0.0522 0.5037 0.0
O68 O 0.53753 0.03879 0.53528 0.0
O69 O 0.44496 0.99826 0.54606 0.0
O70 O 0.58386 0.11343 0.48499 0.0
O71 O 0.63402 0.08784 0.50466 0.0
H72 H 0.52191 0.87485 0.5547 0.0
H73 H 0.49125 0.78708 0.5588 0.0
H74 H 0.56308 0.80467 0.453 0.0
H75 H 0.59495 0.89331 0.4488 0.0
H76 H 0.50355 0.16625 0.42954 0.0
H77 H 0.52945 0.25215 0.43839 0.0
H78 H 0.45536 0.20641 0.54554 0.0
H79 H 0.42952 0.12086 0.53696 0.0
Sm80 Sm 0.58353 0.5817 0.84109 0.0
Sm81 Sm 0.49875 0.46216 0.84504 0.0
C82 C 0.63318 0.68 0.8237 0.0
C83 C 0.61233 0.70955 0.8239 0.0
C84 C 0.57808 0.70375 0.79467 0.0
C85 C 0.56085 0.73338 0.79421 0.0
C86 C 0.57712 0.76927 0.82299 0.0
C87 C 0.60954 0.77392 0.85279 0.0
C88 C 0.62739 0.74465 0.85313 0.0
C89 C 0.56654 0.54909 0.9098 0.0
C90 C 0.4321 0.50798 0.85215 0.0
C91 C 0.44374 0.36022 0.8554 0.0
C92 C 0.45813 0.32643 0.84782 0.0
C93 C 0.50753 0.33694 0.86533 0.0
C94 C 0.52142 0.30552 0.85686 0.0
C95 C 0.48645 0.26313 0.8306 0.0
C96 C 0.4365 0.25219 0.8136 0.0
C97 C 0.42249 0.2834 0.82215 0.0
C98 C 0.51753 0.49872 0.77654 0.0
C99 C 0.65134 0.53695 0.85 0.0
O100 O 0.60743 0.63992 0.79994 0.0
O101 O 0.64183 0.66931 0.85508 0.0
O102 O 0.524 0.5249 0.8862 0.0
O103 O 0.6186 0.59351 0.89828 0.0
O104 O 0.48562 0.55349 0.84063 0.0
O105 O 0.42635 0.46685 0.86068 0.0
O106 O 0.47715 0.399 0.88016 0.0
O107 O 0.43215 0.37495 0.82744 0.0
O108 O 0.55995 0.51935 0.79977 0.0
O109 O 0.46382 0.45815 0.789 0.0
O110 O 0.59466 0.48932 0.85395 0.0
O111 O 0.66084 0.58008 0.84139 0.0
H112 H 0.56535 0.67696 0.7718 0.0
H113 H 0.53549 0.72888 0.77103 0.0
H114 H 0.62306 0.80169 0.87517 0.0
H115 H 0.65386 0.7502 0.87604 0.0
H116 H 0.53605 0.36985 0.88525 0.0
H117 H 0.56052 0.31532 0.87022 0.0
H118 H 0.40803 0.21933 0.79364 0.0
H119 H 0.38396 0.27415 0.80841 0.0
O120 O 0.56688 0.07022 0.25365 0.0
Cd121 Cd 0.58934 0.07681 0.18938 0.0
O122 O 0.50079 0.98086 0.2542 0.0
Cd123 Cd 0.49369 0.96078 0.19687 0.0
O124 O 0.41806 0.87922 0.17424 0.0
C125 C 0.37746 0.85003 0.19804 0.0
O126 O 0.38677 0.87194 0.23027 0.0
C127 C 0.53106 0.0264 0.27076 0.0
C128 C 0.69678 0.1834 0.17488 0.0
O129 O 0.64378 0.16548 0.16597 0.0
O130 O 0.69903 0.15109 0.19 0.0
O131 O 0.55997 0.52669 0.60281 0.0
Cd132 Cd 0.54869 0.51638 0.53705 0.0
O133 O 0.46963 0.50164 0.60922 0.0
Cd134 Cd 0.45433 0.50412 0.55215 0.0
O135 O 0.45985 0.56207 0.5223 0.0
C136 C 0.49942 0.60859 0.53779 0.0
O137 O 0.53053 0.6139 0.56564 0.0
C138 C 0.51801 0.51551 0.62308 0.0
C139 C 0.53 0.42604 0.51554 0.0
O140 O 0.58426 0.47376 0.51598 0.0
O141 O 0.48467 0.42142 0.52427 0.0
O142 O 0.08157 0.51622 0.93399 0.0
Cd143 Cd 0.15323 0.52766 0.8848 0.0
O144 O 0.01346 0.52165 0.91654 0.0
Cd145 Cd 0.93687 0.52416 0.91054 0.0
O146 O 0.86341 0.52444 0.88809 0.0
C147 C 0.84251 0.54303 0.90468 0.0
O148 O 0.86277 0.56286 0.93771 0.0
C149 C 0.03864 0.51599 0.94161 0.0
C150 C 0.23848 0.51132 0.87899 0.0
O151 O 0.24684 0.54451 0.90264 0.0
O152 O 0.18882 0.48334 0.85979 0.0
O153 O 0.04903 0.56043 0.40218 0.0
Cd154 Cd 0.05404 0.57658 0.4673 0.0
O155 O 0.96142 0.47468 0.40098 0.0
Cd156 Cd 0.94266 0.46279 0.45867 0.0
O157 O 0.87429 0.38586 0.4857 0.0
C158 C 0.84599 0.34666 0.4626 0.0
O159 O 0.86127 0.35795 0.4286 0.0
C160 C 1.00664 0.51651 0.38457 0.0
C161 C 0.16338 0.68377 0.48155 0.0
O162 O 0.16085 0.64472 0.48608 0.0
O163 O 0.11388 0.67189 0.47175 0.0
O164 O 0.49068 0.97419 0.73045 0.0
Cd165 Cd 0.50946 0.97662 0.79529 0.0
O166 O 0.58173 0.05668 0.72501 0.0
Cd167 Cd 0.58584 0.07809 0.78183 0.0
O168 O 0.56638 0.12349 0.80912 0.0
C169 C 0.54796 0.13823 0.787 0.0
O170 O 0.54282 0.12457 0.75271 0.0
C171 C 0.53306 0.01257 0.71055 0.0
C172 C 0.53152 0.90981 0.80917 0.0
O173 O 0.47919 0.8941 0.81655 0.0
O174 O 0.57309 0.95677 0.79594 0.0
O175 O 0.52905 0.47251 0.07257 0.0
Cd176 Cd 0.48496 0.45116 0.13216 0.0
O177 O 0.51972 0.53055 0.08115 0.0
Cd178 Cd 0.48915 0.5691 0.06236 0.0
O179 O 0.43451 0.49384 0.09307 0.0
C180 C 0.41668 0.4894 0.12517 0.0
O181 O 0.38987 0.44452 0.14218 0.0
C182 C 0.53219 0.50886 0.06028 0.0
C183 C 0.53367 0.419 0.16899 0.0
O184 O 0.55578 0.4674 0.17351 0.0
O185 O 0.4864 0.38511 0.14828 0.0
C186 C 0.40284 0.56264 0.19499 0.0
C187 C 0.38047 0.57948 0.17294 0.0
H188 H 0.43052 0.51822 0.19656 0.0
C189 C 0.391 0.5827 0.13563 0.0
H190 H 0.39729 0.56143 0.22393 0.0
C191 C 0.40931 0.55771 0.12009 0.0
C192 C 0.4196 0.53112 0.14171 0.0
H193 H 0.37523 0.59591 0.11755 0.0
H194 H 0.40697 0.55303 0.09102 0.0
C195 C 0.42108 0.53734 0.17935 0.0
C196 C 0.72433 0.22115 0.51664 0.0
C197 C 0.69352 0.18071 0.48914 0.0
H198 H 0.7977 0.30627 0.52991 0.0
C199 C 0.71471 0.19448 0.45382 0.0
H200 H 0.70788 0.2111 0.54403 0.0
C201 C 0.76511 0.24821 0.44565 0.0
C202 C 0.79536 0.2895 0.4727 0.0
H203 H 0.69106 0.16376 0.43227 0.0
H204 H 0.77931 0.25742 0.41784 0.0
C205 C 0.77524 0.27538 0.50848 0.0
C206 C 0.58524 0.8372 0.79004 0.0
C207 C 0.56479 0.80496 0.82027 0.0
H208 H 0.59155 0.89627 0.76337 0.0
C209 C 0.53344 0.80763 0.84739 0.0
H210 H 0.60987 0.83614 0.7689 0.0
C211 C 0.52162 0.84122 0.84378 0.0
C212 C 0.54285 0.87383 0.8136 0.0
H213 H 0.51736 0.78319 0.871 0.0
H214 H 0.49686 0.84238 0.86474 0.0
C215 C 0.5751 0.87178 0.78697 0.0
C216 C 0.63736 0.39443 0.16205 0.0
C217 C 0.67313 0.42222 0.19354 0.0
H218 H 0.56194 0.37012 0.13005 0.0
C219 C 0.65192 0.43526 0.221 0.0
H220 H 0.65318 0.38406 0.14064 0.0
C221 C 0.6007 0.42838 0.21469 0.0
C222 C 0.56954 0.40688 0.18137 0.0
H223 H 0.67904 0.45682 0.24548 0.0
H224 H 0.58904 0.44445 0.23437 0.0
C225 C 0.58519 0.3863 0.15612 0.0
C226 C 0.32951 0.80958 0.50586 0.0
C227 C 0.33744 0.84955 0.48701 0.0
H228 H 0.2678 0.72559 0.51923 0.0
C229 C 0.28701 0.83476 0.46768 0.0
H230 H 0.36729 0.81981 0.52135 0.0
C231 C 0.23015 0.78115 0.46681 0.0
C232 C 0.22248 0.741 0.48503 0.0
H233 H 0.29155 0.86443 0.45274 0.0
H234 H 0.1926 0.77092 0.45102 0.0
C235 C 0.27257 0.75571 0.50475 0.0
C236 C 0.52071 0.21441 0.84588 0.0
C237 C 0.50289 0.23141 0.81999 0.0
H238 H 0.54867 0.17129 0.85593 0.0
C239 C 0.50084 0.21794 0.78348 0.0
H240 H 0.52234 0.2238 0.87427 0.0
C241 C 0.5155 0.1878 0.77307 0.0
C242 C 0.53286 0.17039 0.79884 0.0
H243 H 0.4885 0.23123 0.76276 0.0
H244 H 0.51335 0.17832 0.74464 0.0
C245 C 0.5355 0.18412 0.83541 0.0
C246 C 0.48004 0.69517 0.49073 0.0
C247 C 0.51862 0.74294 0.51242 0.0
H248 H 0.44288 0.61415 0.48194 0.0
C249 C 0.5525 0.74696 0.54083 0.0
H250 H 0.45378 0.69155 0.46852 0.0
C251 C 0.54719 0.70371 0.54814 0.0
C252 C 0.50728 0.65503 0.52743 0.0
H253 H 0.58325 0.78382 0.5575 0.0
H254 H 0.57378 0.70831 0.57057 0.0
C255 C 0.47397 0.65117 0.49839 0.0
C256 C 0.71455 0.51096 0.84363 0.0
C257 C 0.70463 0.54259 0.86046 0.0
H258 H 0.76642 0.48719 0.84313 0.0
C259 C 0.74169 0.57516 0.89072 0.0
H260 H 0.68636 0.48485 0.82049 0.0
C261 C 0.78605 0.57523 0.90436 0.0
C262 C 0.79626 0.54358 0.88789 0.0
H263 H 0.73459 0.59907 0.90489 0.0
H264 H 0.8121 0.59998 0.92835 0.0
C265 C 0.76042 0.51216 0.85674 0.0
C266 C 0.21494 0.71462 0.207 0.0
C267 C 0.20789 0.68542 0.17634 0.0
H268 H 0.27422 0.78888 0.23808 0.0
C269 C 0.25736 0.71005 0.15272 0.0
H270 H 0.17761 0.69609 0.22586 0.0
C271 C 0.31276 0.76404 0.15928 0.0
C272 C 0.31969 0.79326 0.19009 0.0
H273 H 0.25269 0.688 0.12892 0.0
H274 H 0.35014 0.7827 0.14048 0.0
C275 C 0.27039 0.76769 0.21402 0.0
C276 C 0.55973 0.33613 0.48845 0.0
C277 C 0.50312 0.28456 0.49667 0.0
H278 H 0.61289 0.42169 0.48815 0.0
C279 C 0.45477 0.27971 0.50926 0.0
H280 H 0.5977 0.34089 0.47865 0.0
C281 C 0.46309 0.32554 0.5143 0.0
C282 C 0.52022 0.3774 0.50723 0.0
H283 H 0.41035 0.24029 0.51524 0.0
H284 H 0.42504 0.32035 0.5245 0.0
C285 C 0.56837 0.38225 0.49394 0.0
C286 C 0.33738 0.48979 0.8322 0.0
C287 C 0.38057 0.50598 0.8593 0.0
H288 H 0.25868 0.47797 0.81716 0.0
C289 C 0.37569 0.52258 0.89319 0.0
H290 H 0.34016 0.47732 0.80568 0.0
C291 C 0.32955 0.52378 0.89971 0.0
C292 C 0.28608 0.50757 0.87269 0.0
H293 H 0.4083 0.53544 0.91462 0.0
H294 H 0.32796 0.53747 0.92604 0.0
C295 C 0.29053 0.4901 0.83888 0.0
C296 C 0.85197 0.3245 0.1927 0.0
C297 C 0.86279 0.34927 0.15995 0.0
H298 H 0.79082 0.2519 0.22276 0.0
C299 C 0.81887 0.31944 0.13185 0.0
H300 H 0.8852 0.3472 0.2148 0.0
C301 C 0.76414 0.26534 0.1367 0.0
C302 C 0.75373 0.24032 0.16937 0.0
H303 H 0.82657 0.33813 0.10644 0.0
H304 H 0.73043 0.24284 0.11484 0.0
C305 C 0.79823 0.27022 0.19722 0.0
C306 C 0.99655 0.54063 0.03173 0.0
C307 C 0.00811 0.51702 0.05614 0.0
H308 H 0.99657 0.55869 0.97657 0.0
C309 C 0.02527 0.4898 0.04217 0.0
H310 H 0.98362 0.56224 0.0416 0.0
C311 C 0.0324 0.48758 0.0049 0.0
C312 C 0.02244 0.51238 0.98046 0.0
H313 H 0.03394 0.47074 0.0601 0.0
H314 H 0.04679 0.46707 0.99521 0.0
C315 C 1.00354 0.5383 0.99437 0.0
C316 C 0.57933 0.07282 0.36817 0.0
C317 C 0.53143 0.02543 0.38616 0.0
H318 H 0.61591 0.11096 0.31746 0.0
C319 C 0.48011 0.98014 0.36638 0.0
H320 H 0.61919 0.10825 0.38301 0.0
C321 C 0.47882 0.98111 0.32876 0.0
C322 C 0.52812 0.02789 0.31051 0.0
H323 H 0.44284 0.94304 0.37977 0.0
H324 H 0.44014 0.94471 0.31391 0.0
C325 C 0.57732 0.07436 0.3307 0.0
C326 C 0.4901 0.51938 0.7221 0.0
C327 C 0.52663 0.51227 0.73831 0.0
H328 H 0.45989 0.52725 0.67299 0.0
C329 C 0.56452 0.5106 0.71681 0.0
H330 H 0.46076 0.52097 0.73833 0.0
C331 C 0.56342 0.51335 0.67921 0.0
C332 C 0.5245 0.51793 0.6628 0.0
H333 H 0.59222 0.50415 0.72883 0.0
H334 H 0.5909 0.50955 0.66297 0.0
C335 C 0.48932 0.52256 0.68475 0.0
C336 C 0.56564 0.04376 0.61138 0.0
C337 C 0.50567 0.00944 0.59654 0.0
H338 H 0.62135 0.07189 0.65928 0.0
C339 C 0.45507 0.97309 0.61888 0.0
H340 H 0.60548 0.07207 0.59471 0.0
C341 C 0.46412 0.97216 0.65567 0.0
C342 C 0.52395 0.00836 0.67095 0.0
H343 H 0.40837 0.94591 0.608 0.0
H344 H 0.42411 0.94464 0.67238 0.0
C345 C 0.57467 0.04365 0.64832 0.0
C346 C 0.58468 0.58159 0.97324 0.0
C347 C 0.55498 0.53816 0.94805 0.0
H348 H 0.59905 0.60576 0.02911 0.0
C349 C 0.51582 0.48481 0.95973 0.0
H350 H 0.61444 0.62304 0.96454 0.0
C351 C 0.50881 0.47514 0.99652 0.0
C352 C 0.53915 0.51869 0.02174 0.0
H353 H 0.49219 0.45091 0.94054 0.0
H354 H 0.47937 0.43376 0.00528 0.0
C355 C 0.5759 0.5718 0.00994 0.0
C356 C 0.05736 0.55628 0.28762 0.0
C357 C 0.0224 0.50519 0.27005 0.0
H358 H 0.08054 0.60008 0.3379 0.0
C359 C 0.98037 0.4582 0.28996 0.0
H360 H 0.09013 0.59314 0.27283 0.0
C361 C 0.97415 0.46206 0.32691 0.0
C362 C 0.01071 0.51306 0.34494 0.0
H363 H 0.95257 0.41831 0.27699 0.0
H364 H 0.94178 0.42494 0.34151 0.0
C365 C 0.05202 0.56019 0.32484 0.0
loop_
_geom_bond_atom_site_label_1
_geom_bond_atom_site_label_2
_geom_bond_distance
_geom_bond_site_symmetry_2
_ccdc_geom_bond_type
Sm0 C2 2.846 . S
Sm0 O20 2.543 . S
Sm0 O21 2.450 . S
Sm0 O22 2.681 . S
Sm0 O23 2.464 . S
Sm0 O24 2.396 . S
Sm0 O28 2.386 . S
Sm0 O31 2.408 1_455 S
Sm1 C11 2.846 . S
Sm1 O22 2.386 1_655 S
Sm1 O25 2.408 1_655 S
Sm1 O26 2.543 . S
Sm1 O27 2.450 . S
Sm1 O28 2.681 1_655 S
Sm1 O29 2.464 . S
Sm1 O30 2.396 . S
C2 Sm0 2.846 . S
C2 C3 1.506 . S
C2 O20 1.261 . S
C2 O21 1.242 . S
C3 C2 1.506 . S
C3 C4 1.358 . S
C3 C8 1.382 . S
C4 C3 1.358 . S
C4 C5 1.385 . S
C4 H32 0.930 . S
C5 C4 1.385 . S
C5 C6 1.395 . S
C5 H33 0.929 . S
C6 C5 1.395 . S
C6 C7 1.335 . S
C7 C6 1.335 . S
C7 C8 1.398 . S
C7 H34 0.930 . S
C8 C3 1.382 . S
C8 C7 1.398 . S
C8 H35 0.929 . S
C9 O22 1.271 . S
C9 O23 1.251 . S
C10 O24 1.252 . S
C10 O25 1.272 . S
C11 Sm1 2.846 . S
C11 C12 1.506 . S
C11 O26 1.261 . S
C11 O27 1.242 . S
C12 C11 1.506 . S
C12 C13 1.358 . S
C12 C17 1.382 . S
C13 C12 1.358 . S
C13 C14 1.385 . S
C13 H36 0.930 . S
C14 C13 1.385 . S
C14 C15 1.395 . S
C14 H37 0.929 . S
C15 C14 1.395 . S
C15 C16 1.335 . S
C16 C15 1.335 . S
C16 C17 1.398 . S
C16 H38 0.930 . S
C17 C12 1.382 . S
C17 C16 1.398 . S
C17 H39 0.929 . S
C18 O28 1.271 . S
C18 O29 1.251 1_455 S
C19 O30 1.252 . S
C19 O31 1.272 . S
O20 Sm0 2.543 . S
O20 C2 1.261 . S
O21 Sm0 2.450 . S
O21 C2 1.242 . S
O22 Sm0 2.681 . S
O22 Sm1 2.386 1_455 S
O22 C9 1.271 . S
O23 Sm0 2.464 . S
O23 C9 1.251 . S
O24 Sm0 2.396 . S
O24 C10 1.252 . S
O25 Sm1 2.408 1_455 S
O25 C10 1.272 . S
O26 Sm1 2.543 . S
O26 C11 1.261 . S
O27 Sm1 2.450 . S
O27 C11 1.242 . S
O28 Sm0 2.386 . S
O28 Sm1 2.681 1_455 S
O28 C18 1.271 . S
O29 Sm1 2.464 . S
O29 C18 1.251 1_655 S
O30 Sm1 2.396 . S
O30 C19 1.252 . S
O31 Sm0 2.408 1_655 S
O31 C19 1.272 . S
H32 C4 0.930 . S
H33 C5 0.929 . S
H34 C7 0.930 . S
H35 C8 0.929 . S
H36 C13 0.930 . S
H37 C14 0.929 . S
H38 C16 0.930 . S
H39 C17 0.929 . S
Sm40 C42 2.846 . S
Sm40 O60 2.543 . S
Sm40 O61 2.450 . S
Sm40 O62 2.681 1_565 S
Sm40 O63 2.464 . S
Sm40 O64 2.396 . S
Sm40 O68 2.392 . S
Sm40 O71 2.408 1_565 S
Sm41 C51 2.846 . S
Sm41 O62 2.386 . S
Sm41 O65 2.408 1_545 S
Sm41 O66 2.543 . S
Sm41 O67 2.450 . S
Sm41 O68 2.672 1_545 S
Sm41 O69 2.464 . S
Sm41 O70 2.396 . S
C42 Sm40 2.846 . S
C42 C43 1.506 . S
C42 O60 1.261 . S
C42 O61 1.242 . S
C43 C42 1.506 . S
C43 C44 1.358 . S
C43 C48 1.382 . S
C44 C43 1.358 . S
C44 C45 1.385 . S
C44 H72 0.930 . S
C45 C44 1.385 . S
C45 C46 1.395 . S
C45 H73 0.929 . S
C46 C45 1.395 . S
C46 C47 1.335 . S
C47 C46 1.335 . S
C47 C48 1.398 . S
C47 H74 0.930 . S
C48 C43 1.382 . S
C48 C47 1.398 . S
C48 H75 0.929 . S
C49 O62 1.271 . S
C49 O63 1.251 1_545 S
C50 O64 1.252 . S
C50 O65 1.272 . S
C51 Sm41 2.846 . S
C51 C52 1.506 . S
C51 O66 1.261 . S
C51 O67 1.242 . S
C52 C51 1.506 . S
C52 C53 1.358 . S
C52 C57 1.382 . S
C53 C52 1.358 . S
C53 C54 1.385 . S
C53 H76 0.930 . S
C54 C53 1.385 . S
C54 C55 1.395 . S
C54 H77 0.929 . S
C55 C54 1.395 . S
C55 C56 1.335 . S
C56 C55 1.335 . S
C56 C57 1.398 . S
C56 H78 0.930 . S
C57 C52 1.382 . S
C57 C56 1.398 . S
C57 H79 0.929 . S
C58 O68 1.266 1_545 S
C58 O69 1.251 . S
C59 O70 1.252 . S
C59 O71 1.272 . S
O60 Sm40 2.543 . S
O60 C42 1.261 . S
O61 Sm40 2.450 . S
O61 C42 1.242 . S
O62 Sm40 2.681 1_545 S
O62 Sm41 2.386 . S
O62 C49 1.271 . S
O63 Sm40 2.464 . S
O63 C49 1.251 1_565 S
O64 Sm40 2.396 . S
O64 C50 1.252 . S
O65 Sm41 2.408 1_565 S
O65 C50 1.272 . S
O66 Sm41 2.543 . S
O66 C51 1.261 . S
O67 Sm41 2.450 . S
O67 C51 1.242 . S
O68 Sm40 2.392 . S
O68 Sm41 2.672 1_565 S
O68 C58 1.266 1_565 S
O69 Sm41 2.464 . S
O69 C58 1.251 . S
O70 Sm41 2.396 . S
O70 C59 1.252 . S
O71 Sm40 2.408 1_545 S
O71 C59 1.272 . S
H72 C44 0.930 . S
H73 C45 0.929 . S
H74 C47 0.930 . S
H75 C48 0.929 . S
H76 C53 0.930 . S
H77 C54 0.929 . S
H78 C56 0.930 . S
H79 C57 0.929 . S
Sm80 C82 2.846 . S
Sm80 O100 2.543 . S
Sm80 O101 2.450 . S
Sm80 O102 2.681 . S
Sm80 O103 2.464 . S
Sm80 O104 2.396 . S
Sm80 O108 2.386 . S
Sm80 O111 2.408 . S
Sm81 C91 2.846 . S
Sm81 O102 2.386 . S
Sm81 O105 2.408 . S
Sm81 O106 2.543 . S
Sm81 O107 2.450 . S
Sm81 O108 2.681 . S
Sm81 O109 2.464 . S
Sm81 O110 2.396 . S
C82 Sm80 2.846 . S
C82 C83 1.506 . S
C82 O100 1.261 . S
C82 O101 1.242 . S
C83 C82 1.506 . S
C83 C84 1.358 . S
C83 C88 1.382 . S
C84 C83 1.358 . S
C84 C85 1.385 . S
C84 H112 0.930 . S
C85 C84 1.385 . S
C85 C86 1.395 . S
C85 H113 0.929 . S
C86 C85 1.395 . S
C86 C87 1.335 . S
C87 C86 1.335 . S
C87 C88 1.398 . S
C87 H114 0.930 . S
C88 C83 1.382 . S
C88 C87 1.398 . S
C88 H115 0.929 . S
C89 O102 1.271 . S
C89 O103 1.251 . S
C90 O104 1.252 . S
C90 O105 1.272 . S
C91 Sm81 2.846 . S
C91 C92 1.506 . S
C91 O106 1.261 . S
C91 O107 1.242 . S
C92 C91 1.506 . S
C92 C93 1.358 . S
C92 C97 1.382 . S
C93 C92 1.358 . S
C93 C94 1.385 . S
C93 H116 0.930 . S
C94 C93 1.385 . S
C94 C95 1.395 . S
C94 H117 0.929 . S
C95 C94 1.395 . S
C95 C96 1.335 . S
C96 C95 1.335 . S
C96 C97 1.398 . S
C96 H118 0.930 . S
C97 C92 1.382 . S
C97 C96 1.398 . S
C97 H119 0.929 . S
C98 O108 1.271 . S
C98 O109 1.251 . S
C99 O110 1.252 . S
C99 O111 1.272 . S
O100 Sm80 2.543 . S
O100 C82 1.261 . S
O101 Sm80 2.450 . S
O101 C82 1.242 . S
O102 Sm80 2.681 . S
O102 Sm81 2.386 . S
O102 C89 1.271 . S
O103 Sm80 2.464 . S
O103 C89 1.251 . S
O104 Sm80 2.396 . S
O104 C90 1.252 . S
O105 Sm81 2.408 . S
O105 C90 1.272 . S
O106 Sm81 2.543 . S
O106 C91 1.261 . S
O107 Sm81 2.450 . S
O107 C91 1.242 . S
O108 Sm80 2.386 . S
O108 Sm81 2.681 . S
O108 C98 1.271 . S
O109 Sm81 2.464 . S
O109 C98 1.251 . S
O110 Sm81 2.396 . S
O110 C99 1.252 . S
O111 Sm80 2.408 . S
O111 C99 1.272 . S
H112 C84 0.930 . S
H113 C85 0.929 . S
H114 C87 0.930 . S
H115 C88 0.929 . S
H116 C93 0.930 . S
H117 C94 0.929 . S
H118 C96 0.930 . S
H119 C97 0.929 . S
O120 Cd121 2.300 . S
O120 C127 1.275 . S
Cd121 O120 2.300 . S
Cd121 O129 2.381 . S
Cd121 O130 2.378 . S
O122 Cd123 2.385 . S
O122 C127 1.255 1_565 S
Cd123 O122 2.385 . S
Cd123 O124 2.317 . S
O124 Cd123 2.317 . S
O124 C125 1.232 . S
C125 O124 1.232 . S
C125 O126 1.218 . S
O126 C125 1.218 . S
C127 O120 1.275 . S
C127 O122 1.255 1_545 S
C128 O129 1.258 . S
C128 O130 1.256 . S
O129 Cd121 2.381 . S
O129 C128 1.258 . S
O130 Cd121 2.378 . S
O130 C128 1.256 . S
O131 Cd132 2.300 . S
O131 C138 1.275 . S
Cd132 O131 2.300 . S
Cd132 O140 2.381 . S
Cd132 O141 2.378 . S
O133 Cd134 2.385 . S
O133 C138 1.255 . S
Cd134 O133 2.385 . S
Cd134 O135 2.317 . S
O135 Cd134 2.317 . S
O135 C136 1.232 . S
C136 O135 1.232 . S
C136 O137 1.218 . S
O137 C136 1.218 . S
C138 O131 1.275 . S
C138 O133 1.255 . S
C139 O140 1.258 . S
C139 O141 1.256 . S
O140 Cd132 2.381 . S
O140 C139 1.258 . S
O141 Cd132 2.378 . S
O141 C139 1.256 . S
O142 Cd143 2.300 . S
O142 C149 1.275 . S
Cd143 O142 2.300 . S
Cd143 O151 2.381 . S
Cd143 O152 2.378 . S
O144 Cd145 2.385 . S
O144 C149 1.255 1_655 S
Cd145 O144 2.385 . S
Cd145 O146 2.317 . S
O146 Cd145 2.317 . S
O146 C147 1.232 . S
C147 O146 1.232 . S
C147 O148 1.218 . S
O148 C147 1.218 . S
C149 O142 1.275 . S
C149 O144 1.255 1_455 S
C150 O151 1.258 . S
C150 O152 1.256 . S
O151 Cd143 2.381 . S
O151 C150 1.258 . S
O152 Cd143 2.378 . S
O152 C150 1.256 . S
O153 Cd154 2.300 . S
O153 C160 1.275 1_455 S
Cd154 O153 2.300 . S
Cd154 O162 2.381 . S
Cd154 O163 2.378 . S
O155 Cd156 2.385 . S
O155 C160 1.255 . S
Cd156 O155 2.385 . S
Cd156 O157 2.317 . S
O157 Cd156 2.317 . S
O157 C158 1.232 . S
C158 O157 1.232 . S
C158 O159 1.218 . S
O159 C158 1.218 . S
C160 O153 1.275 1_655 S
C160 O155 1.255 . S
C161 O162 1.258 . S
C161 O163 1.256 . S
O162 Cd154 2.381 . S
O162 C161 1.258 . S
O163 Cd154 2.378 . S
O163 C161 1.256 . S
O164 Cd165 2.300 . S
O164 C171 1.275 1_565 S
Cd165 O164 2.300 . S
Cd165 O173 2.381 . S
Cd165 O174 2.378 . S
O166 Cd167 2.385 . S
O166 C171 1.255 . S
Cd167 O166 2.385 . S
Cd167 O168 2.317 . S
O168 Cd167 2.317 . S
O168 C169 1.232 . S
C169 O168 1.232 . S
C169 O170 1.218 . S
O170 C169 1.218 . S
C171 O164 1.275 1_545 S
C171 O166 1.255 . S
C172 O173 1.258 . S
C172 O174 1.256 . S
O173 Cd165 2.381 . S
O173 C172 1.258 . S
O174 Cd165 2.378 . S
O174 C172 1.256 . S
O175 Cd176 2.300 . S
O175 C182 1.275 . S
Cd176 O175 2.300 . S
Cd176 O184 2.381 . S
Cd176 O185 2.378 . S
O177 Cd178 2.385 . S
O177 C182 1.255 . S
Cd178 O177 2.385 . S
Cd178 O179 2.317 . S
O179 Cd178 2.317 . S
O179 C180 1.232 . S
C180 O179 1.232 . S
C180 O181 1.218 . S
O181 C180 1.218 . S
C182 O175 1.275 . S
C182 O177 1.255 . S
C183 O184 1.258 . S
C183 O185 1.256 . S
O184 Cd176 2.381 . S
O184 C183 1.258 . S
O185 Cd176 2.378 . S
O185 C183 1.256 . S
C186 C187 1.387 . S
C186 H190 0.950 . S
C186 C195 1.390 . S
C187 C186 1.387 . S
C187 C189 1.387 . S
H188 C195 0.950 . S
C189 C187 1.387 . S
C189 C191 1.390 . S
C189 H193 0.950 . S
H190 C186 0.950 . S
C191 C189 1.390 . S
C191 C192 1.387 . S
C191 H194 0.950 . S
C192 C191 1.387 . S
C192 C195 1.387 . S
H193 C189 0.950 . S
H194 C191 0.950 . S
C195 C186 1.390 . S
C195 H188 0.950 . S
C195 C192 1.387 . S
C196 C197 1.387 . S
C196 H200 0.950 . S
C196 C205 1.390 . S
C197 C196 1.387 . S
C197 C199 1.387 . S
H198 C205 0.950 . S
C199 C197 1.387 . S
C199 C201 1.390 . S
C199 H203 0.950 . S
H200 C196 0.950 . S
C201 C199 1.390 . S
C201 C202 1.387 . S
C201 H204 0.950 . S
C202 C201 1.387 . S
C202 C205 1.387 . S
H203 C199 0.950 . S
H204 C201 0.950 . S
C205 C196 1.390 . S
C205 H198 0.950 . S
C205 C202 1.387 . S
C206 C207 1.387 . S
C206 H210 0.950 . S
C206 C215 1.390 . S
C207 C206 1.387 . S
C207 C209 1.387 . S
H208 C215 0.950 . S
C209 C207 1.387 . S
C209 C211 1.390 . S
C209 H213 0.950 . S
H210 C206 0.950 . S
C211 C209 1.390 . S
C211 C212 1.387 . S
C211 H214 0.950 . S
C212 C211 1.387 . S
C212 C215 1.387 . S
H213 C209 0.950 . S
H214 C211 0.950 . S
C215 C206 1.390 . S
C215 H208 0.950 . S
C215 C212 1.387 . S
C216 C217 1.387 . S
C216 H220 0.950 . S
C216 C225 1.390 . S
C217 C216 1.387 . S
C217 C219 1.387 . S
H218 C225 0.950 . S
C219 C217 1.387 . S
C219 C221 1.390 . S
C219 H223 0.950 . S
H220 C216 0.950 . S
C221 C219 1.390 . S
C221 C222 1.387 . S
C221 H224 0.950 . S
C222 C221 1.387 . S
C222 C225 1.387 . S
H223 C219 0.950 . S
H224 C221 0.950 . S
C225 C216 1.390 . S
C225 H218 0.950 . S
C225 C222 1.387 . S
C226 C227 1.387 . S
C226 H230 0.950 . S
C226 C235 1.390 . S
C227 C226 1.387 . S
C227 C229 1.387 . S
H228 C235 0.950 . S
C229 C227 1.387 . S
C229 C231 1.390 . S
C229 H233 0.950 . S
H230 C226 0.950 . S
C231 C229 1.390 . S
C231 C232 1.387 . S
C231 H234 0.950 . S
C232 C231 1.387 . S
C232 C235 1.387 . S
H233 C229 0.950 . S
H234 C231 0.950 . S
C235 C226 1.390 . S
C235 H228 0.950 . S
C235 C232 1.387 . S
C236 C237 1.387 . S
C236 H240 0.950 . S
C236 C245 1.390 . S
C237 C236 1.387 . S
C237 C239 1.387 . S
H238 C245 0.950 . S
C239 C237 1.387 . S
C239 C241 1.390 . S
C239 H243 0.950 . S
H240 C236 0.950 . S
C241 C239 1.390 . S
C241 C242 1.387 . S
C241 H244 0.950 . S
C242 C241 1.387 . S
C242 C245 1.387 . S
H243 C239 0.950 . S
H244 C241 0.950 . S
C245 C236 1.390 . S
C245 H238 0.950 . S
C245 C242 1.387 . S
C246 C247 1.387 . S
C246 H250 0.950 . S
C246 C255 1.390 . S
C247 C246 1.387 . S
C247 C249 1.387 . S
H248 C255 0.950 . S
C249 C247 1.387 . S
C249 C251 1.390 . S
C249 H253 0.950 . S
H250 C246 0.950 . S
C251 C249 1.390 . S
C251 C252 1.387 . S
C251 H254 0.950 . S
C252 C251 1.387 . S
C252 C255 1.387 . S
H253 C249 0.950 . S
H254 C251 0.950 . S
C255 C246 1.390 . S
C255 H248 0.950 . S
C255 C252 1.387 . S
C256 C257 1.387 . S
C256 H260 0.950 . S
C256 C265 1.390 . S
C257 C256 1.387 . S
C257 C259 1.387 . S
H258 C265 0.950 . S
C259 C257 1.387 . S
C259 C261 1.390 . S
C259 H263 0.950 . S
H260 C256 0.950 . S
C261 C259 1.390 . S
C261 C262 1.387 . S
C261 H264 0.950 . S
C262 C261 1.387 . S
C262 C265 1.387 . S
H263 C259 0.950 . S
H264 C261 0.950 . S
C265 C256 1.390 . S
C265 H258 0.950 . S
C265 C262 1.387 . S
C266 C267 1.387 . S
C266 H270 0.950 . S
C266 C275 1.390 . S
C267 C266 1.387 . S
C267 C269 1.387 . S
H268 C275 0.950 . S
C269 C267 1.387 . S
C269 C271 1.390 . S
C269 H273 0.950 . S
H270 C266 0.950 . S
C271 C269 1.390 . S
C271 C272 1.387 . S
C271 H274 0.950 . S
C272 C271 1.387 . S
C272 C275 1.387 . S
H273 C269 0.950 . S
H274 C271 0.950 . S
C275 C266 1.390 . S
C275 H268 0.950 . S
C275 C272 1.387 . S
C276 C277 1.387 . S
C276 H280 0.950 . S
C276 C285 1.390 . S
C277 C276 1.387 . S
C277 C279 1.387 . S
H278 C285 0.950 . S
C279 C277 1.387 . S
C279 C281 1.390 . S
C279 H283 0.950 . S
H280 C276 0.950 . S
C281 C279 1.390 . S
C281 C282 1.387 . S
C281 H284 0.950 . S
C282 C281 1.387 . S
C282 C285 1.387 . S
H283 C279 0.950 . S
H284 C281 0.950 . S
C285 C276 1.390 . S
C285 H278 0.950 . S
C285 C282 1.387 . S
C286 C287 1.387 . S
C286 H290 0.950 . S
C286 C295 1.390 . S
C287 C286 1.387 . S
C287 C289 1.387 . S
H288 C295 0.950 . S
C289 C287 1.387 . S
C289 C291 1.390 . S
C289 H293 0.950 . S
H290 C286 0.950 . S
C291 C289 1.390 . S
C291 C292 1.387 . S
C291 H294 0.950 . S
C292 C291 1.387 . S
C292 C295 1.387 . S
H293 C289 0.950 . S
H294 C291 0.950 . S
C295 C286 1.390 . S
C295 H288 0.950 . S
C295 C292 1.387 . S
C296 C297 1.387 . S
C296 H300 0.950 . S
C296 C305 1.390 . S
C297 C296 1.387 . S
C297 C299 1.387 . S
H298 C305 0.950 . S
C299 C297 1.387 . S
C299 C301 1.390 . S
C299 H303 0.950 . S
H300 C296 0.950 . S
C301 C299 1.390 . S
C301 C302 1.387 . S
C301 H304 0.950 . S
C302 C301 1.387 . S
C302 C305 1.387 . S
H303 C299 0.950 . S
H304 C301 0.950 . S
C305 C296 1.390 . S
C305 H298 0.950 . S
C305 C302 1.387 . S
C306 C307 1.387 . S
C306 H310 0.950 . S
C306 C315 1.390 . S
C307 C306 1.387 . S
C307 C309 1.387 1_455 S
H308 C315 0.950 . S
C309 C307 1.387 1_655 S
C309 C311 1.390 . S
C309 H313 0.950 . S
H310 C306 0.950 . S
C311 C309 1.390 . S
C311 C312 1.387 1_654 S
C311 H314 0.950 1_554 S
C312 C311 1.387 1_456 S
C312 C315 1.387 1_556 S
H313 C309 0.950 . S
H314 C311 0.950 1_556 S
C315 C306 1.390 . S
C315 H308 0.950 . S
C315 C312 1.387 1_554 S
C316 C317 1.387 . S
C316 H320 0.950 . S
C316 C325 1.390 . S
C317 C316 1.387 . S
C317 C319 1.387 1_545 S
H318 C325 0.950 . S
C319 C317 1.387 1_565 S
C319 C321 1.390 . S
C319 H323 0.950 . S
H320 C316 0.950 . S
C321 C319 1.390 . S
C321 C322 1.387 1_565 S
C321 H324 0.950 . S
C322 C321 1.387 1_545 S
C322 C325 1.387 . S
H323 C319 0.950 . S
H324 C321 0.950 . S
C325 C316 1.390 . S
C325 H318 0.950 . S
C325 C322 1.387 . S
C326 C327 1.387 . S
C326 H330 0.950 . S
C326 C335 1.390 . S
C327 C326 1.387 . S
C327 C329 1.387 . S
H328 C335 0.950 . S
C329 C327 1.387 . S
C329 C331 1.390 . S
C329 H333 0.950 . S
H330 C326 0.950 . S
C331 C329 1.390 . S
C331 C332 1.387 . S
C331 H334 0.950 . S
C332 C331 1.387 . S
C332 C335 1.387 . S
H333 C329 0.950 . S
H334 C331 0.950 . S
C335 C326 1.390 . S
C335 H328 0.950 . S
C335 C332 1.387 . S
C336 C337 1.387 . S
C336 H340 0.950 . S
C336 C345 1.390 . S
C337 C336 1.387 . S
C337 C339 1.387 1_545 S
H338 C345 0.950 . S
C339 C337 1.387 1_565 S
C339 C341 1.390 . S
C339 H343 0.950 . S
H340 C336 0.950 . S
C341 C339 1.390 . S
C341 C342 1.387 1_565 S
C341 H344 0.950 . S
C342 C341 1.387 1_545 S
C342 C345 1.387 . S
H343 C339 0.950 . S
H344 C341 0.950 . S
C345 C336 1.390 . S
C345 H338 0.950 . S
C345 C342 1.387 . S
C346 C347 1.387 . S
C346 H350 0.950 . S
C346 C355 1.390 1_556 S
C347 C346 1.387 . S
C347 C349 1.387 . S
H348 C355 0.950 . S
C349 C347 1.387 . S
C349 C351 1.390 . S
C349 H353 0.950 . S
H350 C346 0.950 . S
C351 C349 1.390 . S
C351 C352 1.387 1_556 S
C351 H354 0.950 . S
C352 C351 1.387 1_554 S
C352 C355 1.387 . S
H353 C349 0.950 . S
H354 C351 0.950 . S
C355 C346 1.390 1_554 S
C355 H348 0.950 . S
C355 C352 1.387 . S
C356 C357 1.387 . S
C356 H360 0.950 . S
C356 C365 1.390 . S
C357 C356 1.387 . S
C357 C359 1.387 1_455 S
H358 C365 0.950 . S
C359 C357 1.387 1_655 S
C359 C361 1.390 . S
C359 H363 0.950 . S
H360 C356 0.950 . S
C361 C359 1.390 . S
C361 C362 1.387 . S
C361 H364 0.950 . S
C362 C361 1.387 . S
C362 C365 1.387 1_655 S
H363 C359 0.950 . S
H364 C361 0.950 . S
C365 C356 1.390 . S
C365 H358 0.950 . S
C365 C362 1.387 1_455 S
C187 C6 0.964 . S
C192 C180 0.768 . S
C197 C59 2.035 . S
C202 C158 1.750 . S
C207 C86 1.203 . S
C212 C172 1.187 . S
C217 C15 0.643 . S
C222 C183 0.495 . S
C232 C161 1.864 . S
C227 C50 1.953 . S
C242 C169 1.284 . S
C237 C95 1.410 . S
C247 C46 1.375 . S
C252 C136 1.182 . S
C257 C99 3.259 . S
C262 C147 2.915 . S
C267 C10 2.113 . S
C272 C125 1.756 . S
C282 C139 1.175 . S
C277 C55 1.163 . S
C292 C150 2.911 . S
C287 C90 2.996 . S
C297 C19 1.871 . S
C302 C128 1.834 . S
C312 C149 1.674 . S
C307 C18 1.680 . S
C317 C49 1.403 . S
C322 C127 1.374 . S
C327 C98 1.515 . S
C332 C138 1.470 . S
C342 C171 1.433 . S
C337 C58 1.446 . S
C352 C182 1.117 . S
C347 C89 1.186 . S
C357 C9 1.402 . S
C362 C160 1.365 . S
