# Generated by pormake.
# Topology myd, (4,6)-cn, num edge types: 1
# Building blocks:
#     Node 0, Type 0, BuildingBlock: KOZSID_clean_sbu_0, # of connection points: 4
#     Node 1, Type 0, BuildingBlock: KOZSID_clean_sbu_0, # of connection points: 4
#     Node 2, Type 0, BuildingBlock: KOZSID_clean_sbu_0, # of connection points: 4
#     Node 3, Type 0, BuildingBlock: KOZSID_clean_sbu_0, # of connection points: 4
#     Node 4, Type 0, BuildingBlock: KOZSID_clean_sbu_0, # of connection points: 4
#     Node 5, Type 0, BuildingBlock: KOZSID_clean_sbu_0, # of connection points: 4
#     Node 6, Type 0, BuildingBlock: KOZSID_clean_sbu_0, # of connection points: 4
#     Node 7, Type 0, BuildingBlock: KOZSID_clean_sbu_0, # of connection points: 4
#     Node 8, Type 0, BuildingBlock: KOZSID_clean_sbu_0, # of connection points: 4
#     Node 9, Type 0, BuildingBlock: KOZSID_clean_sbu_0, # of connection points: 4
#     Node 10, Type 0, BuildingBlock: KOZSID_clean_sbu_0, # of connection points: 4
#     Node 11, Type 0, BuildingBlock: KOZSID_clean_sbu_0, # of connection points: 4
#     Node 12, Type 1, BuildingBlock: FUNLAD_clean_sbu_0, # of connection points: 6
#     Node 13, Type 1, BuildingBlock: FUNLAD_clean_sbu_0, # of connection points: 6
#     Node 14, Type 1, BuildingBlock: FUNLAD_clean_sbu_0, # of connection points: 6
#     Node 15, Type 1, BuildingBlock: FUNLAD_clean_sbu_0, # of connection points: 6
#     Node 16, Type 1, BuildingBlock: FUNLAD_clean_sbu_0, # of connection points: 6
#     Node 17, Type 1, BuildingBlock: FUNLAD_clean_sbu_0, # of connection points: 6
#     Node 18, Type 1, BuildingBlock: FUNLAD_clean_sbu_0, # of connection points: 6
#     Node 19, Type 1, BuildingBlock: FUNLAD_clean_sbu_0, # of connection points: 6
#     Edge 20, Type (0, 1), BuildingBlock: EZIPEK_clean_linker_0, # of connection points: 2
#     Edge 21, Type (0, 1), BuildingBlock: EZIPEK_clean_linker_0, # of connection points: 2
#     Edge 22, Type (0, 1), BuildingBlock: EZIPEK_clean_linker_0, # of connection points: 2
#     Edge 23, Type (0, 1), BuildingBlock: EZIPEK_clean_linker_0, # of connection points: 2
#     Edge 24, Type (0, 1), BuildingBlock: EZIPEK_clean_linker_0, # of connection points: 2
#     Edge 25, Type (0, 1), BuildingBlock: EZIPEK_clean_linker_0, # of connection points: 2
#     Edge 26, Type (0, 1), BuildingBlock: EZIPEK_clean_linker_0, # of connection points: 2
#     Edge 27, Type (0, 1), BuildingBlock: EZIPEK_clean_linker_0, # of connection points: 2
#     Edge 28, Type (0, 1), BuildingBlock: EZIPEK_clean_linker_0, # of connection points: 2
#     Edge 29, Type (0, 1), BuildingBlock: EZIPEK_clean_linker_0, # of connection points: 2
#     Edge 30, Type (0, 1), BuildingBlock: EZIPEK_clean_linker_0, # of connection points: 2
#     Edge 31, Type (0, 1), BuildingBlock: EZIPEK_clean_linker_0, # of connection points: 2
#     Edge 32, Type (0, 1), BuildingBlock: EZIPEK_clean_linker_0, # of connection points: 2
#     Edge 33, Type (0, 1), BuildingBlock: EZIPEK_clean_linker_0, # of connection points: 2
#     Edge 34, Type (0, 1), BuildingBlock: EZIPEK_clean_linker_0, # of connection points: 2
#     Edge 35, Type (0, 1), BuildingBlock: EZIPEK_clean_linker_0, # of connection points: 2
#     Edge 36, Type (0, 1), BuildingBlock: EZIPEK_clean_linker_0, # of connection points: 2
#     Edge 37, Type (0, 1), BuildingBlock: EZIPEK_clean_linker_0, # of connection points: 2
#     Edge 38, Type (0, 1), BuildingBlock: EZIPEK_clean_linker_0, # of connection points: 2
#     Edge 39, Type (0, 1), BuildingBlock: EZIPEK_clean_linker_0, # of connection points: 2
#     Edge 40, Type (0, 1), BuildingBlock: EZIPEK_clean_linker_0, # of connection points: 2
#     Edge 41, Type (0, 1), BuildingBlock: EZIPEK_clean_linker_0, # of connection points: 2
#     Edge 42, Type (0, 1), BuildingBlock: EZIPEK_clean_linker_0, # of connection points: 2
#     Edge 43, Type (0, 1), BuildingBlock: EZIPEK_clean_linker_0, # of connection points: 2
#     Edge 44, Type (0, 1), BuildingBlock: EZIPEK_clean_linker_0, # of connection points: 2
#     Edge 45, Type (0, 1), BuildingBlock: EZIPEK_clean_linker_0, # of connection points: 2
#     Edge 46, Type (0, 1), BuildingBlock: EZIPEK_clean_linker_0, # of connection points: 2
#     Edge 47, Type (0, 1), BuildingBlock: EZIPEK_clean_linker_0, # of connection points: 2
#     Edge 48, Type (0, 1), BuildingBlock: EZIPEK_clean_linker_0, # of connection points: 2
#     Edge 49, Type (0, 1), BuildingBlock: EZIPEK_clean_linker_0, # of connection points: 2
#     Edge 50, Type (0, 1), BuildingBlock: EZIPEK_clean_linker_0, # of connection points: 2
#     Edge 51, Type (0, 1), BuildingBlock: EZIPEK_clean_linker_0, # of connection points: 2
#     Edge 52, Type (0, 1), BuildingBlock: EZIPEK_clean_linker_0, # of connection points: 2
#     Edge 53, Type (0, 1), BuildingBlock: EZIPEK_clean_linker_0, # of connection points: 2
#     Edge 54, Type (0, 1), BuildingBlock: EZIPEK_clean_linker_0, # of connection points: 2
#     Edge 55, Type (0, 1), BuildingBlock: EZIPEK_clean_linker_0, # of connection points: 2
#     Edge 56, Type (0, 1), BuildingBlock: EZIPEK_clean_linker_0, # of connection points: 2
#     Edge 57, Type (0, 1), BuildingBlock: EZIPEK_clean_linker_0, # of connection points: 2
#     Edge 58, Type (0, 1), BuildingBlock: EZIPEK_clean_linker_0, # of connection points: 2
#     Edge 59, Type (0, 1), BuildingBlock: EZIPEK_clean_linker_0, # of connection points: 2
#     Edge 60, Type (0, 1), BuildingBlock: EZIPEK_clean_linker_0, # of connection points: 2
#     Edge 61, Type (0, 1), BuildingBlock: EZIPEK_clean_linker_0, # of connection points: 2
#     Edge 62, Type (0, 1), BuildingBlock: EZIPEK_clean_linker_0, # of connection points: 2
#     Edge 63, Type (0, 1), BuildingBlock: EZIPEK_clean_linker_0, # of connection points: 2
#     Edge 64, Type (0, 1), BuildingBlock: EZIPEK_clean_linker_0, # of connection points: 2
#     Edge 65, Type (0, 1), BuildingBlock: EZIPEK_clean_linker_0, # of connection points: 2
#     Edge 66, Type (0, 1), BuildingBlock: EZIPEK_clean_linker_0, # of connection points: 2
#     Edge 67, Type (0, 1), BuildingBlock: EZIPEK_clean_linker_0, # of connection points: 2
# Relax obj value: 0.269
# Max RMSD: 0.243
# Mean RMSD: 0.156
data_MOF--net-myd--node1-KOZSID_clean_sbu_0--node2-FUNLAD_clean_sbu_0--edge1-EZIPEK_clean_linker_0
_symmetry_space_group_name_H-M    P1
_symmetry_Int_Tables_number       1
_symmetry_cell_setting            triclinic
loop_
_symmetry_equiv_pos_as_xyz
'x, y, z'
_cell_length_a     38.768361
_cell_length_b     38.607921
_cell_length_c     43.410101
_cell_angle_alpha  85.492303
_cell_angle_beta   82.741467
_cell_angle_gamma 90.866528
loop_
_atom_site_label
_atom_site_type_symbol
_atom_site_fract_x
_atom_site_fract_y
_atom_site_fract_z
_atom_type_partial_charge
C0 C 0.98213 0.31466 0.39187 0.0
C1 C 0.94862 0.32451 0.40196 0.0
C2 C 0.92658 0.2998 0.39369 0.0
C3 C 0.94777 0.27643 0.37883 0.0
N4 N 0.982 0.28412 0.37807 0.0
Co5 Co 0.02153 0.26139 0.35351 0.0
N6 N 0.98949 0.23325 0.33217 0.0
C7 C 0.95472 0.22937 0.34001 0.0
C8 C 0.93964 0.2068 0.32246 0.0
C9 C 0.96645 0.1956 0.30235 0.0
C10 C 0.99648 0.21213 0.3087 0.0
N11 N 0.06147 0.24114 0.3275 0.0
C12 C 0.06181 0.2219 0.30263 0.0
C13 C 0.09559 0.21579 0.28974 0.0
C14 C 0.11725 0.23129 0.30739 0.0
C15 C 0.0956 0.2463 0.32974 0.0
N16 N 0.05332 0.28911 0.37557 0.0
C17 C 0.08792 0.28534 0.37512 0.0
C18 C 0.10306 0.30977 0.39089 0.0
C19 C 0.07668 0.33085 0.40119 0.0
C20 C 0.04687 0.31811 0.39104 0.0
N21 N 0.02081 0.22091 0.38567 0.0
C22 C 0.01222 0.14973 0.406 0.0
C23 C 0.0451 0.16416 0.39498 0.0
C24 C 0.04895 0.19976 0.3859 0.0
C25 C 0.98473 0.1724 0.41114 0.0
C26 C 0.98995 0.20797 0.40184 0.0
N27 N 0.02173 0.29953 0.32096 0.0
C28 C 0.05283 0.34081 0.2825 0.0
C29 C 0.02209 0.34796 0.26991 0.0
C30 C 0.99107 0.3319 0.28392 0.0
C31 C 0.99143 0.30792 0.3094 0.0
C32 C 0.0521 0.31637 0.30804 0.0
H33 H 0.96714 0.29561 0.31894 0.0
H34 H 0.07619 0.31112 0.31694 0.0
H35 H 0.07473 0.20908 0.37774 0.0
H36 H 0.9682 0.22407 0.4068 0.0
C37 C 0.93673 0.2501 0.36151 0.0
C38 C 0.01346 0.33559 0.39467 0.0
C39 C 0.03094 0.20725 0.29161 0.0
C40 C 0.10621 0.26566 0.35303 0.0
H41 H 0.94087 0.34777 0.41312 0.0
H42 H 0.89845 0.3001 0.39639 0.0
H43 H 0.9123 0.19998 0.32358 0.0
H44 H 0.96416 0.17758 0.28478 0.0
H45 H 0.10375 0.2012 0.26992 0.0
H46 H 0.1454 0.23172 0.30419 0.0
H47 H 0.13051 0.31381 0.39221 0.0
H48 H 0.07936 0.35403 0.41328 0.0
H49 H 0.06756 0.14778 0.39229 0.0
H50 H 0.95915 0.16259 0.42129 0.0
H51 H 0.07726 0.35318 0.2721 0.0
H52 H 0.96684 0.33709 0.2746 0.0
C53 C 0.99132 0.69898 0.11728 0.0
C54 C 0.96081 0.69322 0.10464 0.0
C55 C 0.93587 0.712 0.12033 0.0
C56 C 0.95255 0.72812 0.1415 0.0
N57 N 0.98682 0.72144 0.13993 0.0
Co58 Co 0.02048 0.73858 0.16723 0.0
N59 N 0.98305 0.76398 0.1916 0.0
C60 C 0.94951 0.76681 0.18644 0.0
C61 C 0.93028 0.78708 0.20635 0.0
C62 C 0.95302 0.79813 0.22523 0.0
C63 C 0.98483 0.78376 0.21564 0.0
N64 N 0.054 0.75425 0.19497 0.0
C65 C 0.04869 0.77384 0.21948 0.0
C66 C 0.0788 0.77802 0.23319 0.0
C67 C 0.10413 0.76052 0.21648 0.0
C68 C 0.08803 0.74665 0.19375 0.0
N69 N 0.05788 0.71389 0.1416 0.0
C70 C 0.0922 0.71405 0.14454 0.0
C71 C 0.11123 0.69342 0.12477 0.0
C72 C 0.08766 0.67889 0.10843 0.0
C73 C 0.05548 0.6916 0.11915 0.0
N74 N 0.03099 0.78279 0.13919 0.0
C75 C 0.04247 0.8538 0.11514 0.0
C76 C 0.0692 0.83388 0.12564 0.0
C77 C 0.06326 0.79876 0.13655 0.0
C78 C 0.01046 0.83641 0.11468 0.0
C79 C 1.00527 0.80134 0.12681 0.0
N80 N 0.01041 0.69605 0.19725 0.0
C81 C 0.03318 0.65289 0.23292 0.0
C82 C 1.00149 0.64998 0.25241 0.0
C83 C 0.97343 0.66802 0.24213 0.0
C84 C 0.97824 0.6902 0.21438 0.0
C85 C 0.03701 0.67567 0.20567 0.0
H86 H 0.95591 0.70355 0.20789 0.0
H87 H 0.0623 0.67755 0.1926 0.0
H88 H 0.08508 0.78541 0.14378 0.0
H89 H 0.97992 0.79008 0.12676 0.0
C90 C 0.93666 0.74929 0.16333 0.0
C91 C 0.02312 0.68041 0.10849 0.0
C92 C 0.01599 0.78981 0.22991 0.0
C93 C 0.10458 0.72877 0.16954 0.0
H94 H 0.95686 0.67643 0.08649 0.0
H95 H 0.90866 0.71321 0.11713 0.0
H96 H 0.90302 0.79304 0.20708 0.0
H97 H 0.94694 0.81493 0.2439 0.0
H98 H 0.08219 0.79265 0.25291 0.0
H99 H 0.1312 0.75878 0.22005 0.0
H100 H 0.13865 0.68799 0.12365 0.0
H101 H 0.09336 0.66017 0.09133 0.0
H102 H 0.09478 0.84554 0.12574 0.0
H103 H 0.98913 0.85015 0.10587 0.0
H104 H 0.05547 0.63887 0.23949 0.0
H105 H 0.94811 0.66591 0.25599 0.0
C106 C 0.37258 0.98184 0.27116 0.0
C107 C 0.38048 0.94876 0.28263 0.0
C108 C 0.35959 0.92597 0.27038 0.0
C109 C 0.3401 0.94628 0.25216 0.0
N110 N 0.34791 0.98048 0.25134 0.0
Co111 Co 0.32301 0.01858 0.22966 0.0
N112 N 0.29545 0.98527 0.20884 0.0
C113 C 0.29186 0.95086 0.21673 0.0
C114 C 0.26952 0.93445 0.20015 0.0
C115 C 0.25821 0.96009 0.1805 0.0
C116 C 0.27468 0.99079 0.18592 0.0
N117 N 0.29947 0.05676 0.2071 0.0
C118 C 0.28368 0.05611 0.18087 0.0
C119 C 0.27807 0.08962 0.16866 0.0
C120 C 0.28871 0.11178 0.18874 0.0
C121 C 0.3013 0.09089 0.21154 0.0
N122 N 0.34967 0.05232 0.25118 0.0
C123 C 0.34473 0.08683 0.25102 0.0
C124 C 0.36635 0.10378 0.26787 0.0
C125 C 0.38571 0.07836 0.28033 0.0
C126 C 0.37451 0.04725 0.27048 0.0
N127 N 0.36013 0.02063 0.19353 0.0
C128 C 0.40004 0.02563 0.13413 0.0
C129 C 0.39427 0.05494 0.15099 0.0
C130 C 0.37452 0.05188 0.18055 0.0
C131 C 0.38769 0.99335 0.14863 0.0
C132 C 0.36818 0.99138 0.17836 0.0
N133 N 0.28489 0.01582 0.26534 0.0
C134 C 0.22339 0.01704 0.28477 0.0
C135 C 0.22983 1.00526 0.31483 0.0
C136 C 0.26418 0.99947 0.31969 0.0
C137 C 0.29093 1.00455 0.29486 0.0
C138 C 0.2512 0.02204 0.26046 0.0
H139 H 0.31618 0.99798 0.29995 0.0
H140 H 0.2452 0.02963 0.23751 0.0
H141 H 0.36949 0.0753 0.19196 0.0
H142 H 0.35814 0.96626 0.18822 0.0
C143 C 0.31318 0.93445 0.23676 0.0
C144 C 0.38382 0.01354 0.28444 0.0
C145 C 0.26949 0.02464 0.16916 0.0
C146 C 0.32159 0.1029 0.23286 0.0
H147 H 0.39792 0.94196 0.29962 0.0
H148 H 0.35776 0.89803 0.27529 0.0
H149 H 0.263 0.90697 0.20151 0.0
H150 H 0.24017 0.95647 0.16388 0.0
H151 H 0.2671 0.09741 0.14755 0.0
H152 H 0.28922 0.1399 0.18597 0.0
H153 H 0.36772 0.13131 0.27089 0.0
H154 H 0.40462 0.08198 0.29621 0.0
H155 H 0.40353 0.08039 0.1407 0.0
H156 H 0.39173 0.97 0.1365 0.0
H157 H 0.19701 0.02129 0.27987 0.0
H158 H 0.27027 0.98981 0.34245 0.0
C159 C 0.66422 0.49627 0.19572 0.0
C160 C 0.644 0.47012 0.1863 0.0
C161 C 0.65484 0.43951 0.19939 0.0
C162 C 0.68095 0.44873 0.21595 0.0
N163 N 0.68697 0.48343 0.21464 0.0
Co164 Co 0.72342 0.50837 0.23387 0.0
N165 N 0.74394 0.46328 0.24785 0.0
C166 C 0.73405 0.43091 0.24211 0.0
C167 C 0.75261 0.40514 0.2555 0.0
C168 C 0.7752 0.42204 0.27127 0.0
C169 C 0.76891 0.45719 0.26659 0.0
N170 N 0.75897 0.53325 0.25425 0.0
C171 C 0.78098 0.52024 0.27383 0.0
C172 C 0.79898 0.54649 0.28569 0.0
C173 C 0.78742 0.57719 0.27359 0.0
C174 C 0.76304 0.56799 0.25527 0.0
N175 N 0.70387 0.55344 0.21869 0.0
C176 C 0.71508 0.58592 0.22273 0.0
C177 C 0.69791 0.61165 0.20776 0.0
C178 C 0.67503 0.59455 0.19248 0.0
C179 C 0.67962 0.55934 0.19921 0.0
N180 N 0.69184 0.5071 0.27388 0.0
C181 C 0.66179 0.5048 0.33656 0.0
C182 C 0.66814 0.53649 0.31874 0.0
C183 C 0.68343 0.53707 0.28779 0.0
C184 C 0.66696 0.47431 0.32149 0.0
C185 C 0.68102 0.47609 0.29008 0.0
N186 N 0.75518 0.50974 0.19404 0.0
C187 C 0.79603 0.5407 0.15413 0.0
C188 C 0.79518 0.51391 0.13394 0.0
C189 C 0.77671 0.48337 0.14687 0.0
C190 C 0.7567 0.48215 0.17607 0.0
C191 C 0.77576 0.53836 0.18335 0.0
H192 H 0.74268 0.45843 0.18366 0.0
H193 H 0.77714 0.56011 0.19687 0.0
H194 H 0.68951 0.56212 0.27613 0.0
H195 H 0.6846 0.45192 0.27997 0.0
C196 C 0.70397 0.42551 0.22825 0.0
C197 C 0.66315 0.53252 0.18401 0.0
C198 C 0.78393 0.48347 0.28343 0.0
C199 C 0.74227 0.59124 0.24016 0.0
H200 H 0.62451 0.47281 0.17054 0.0
H201 H 0.64622 0.41355 0.19564 0.0
H202 H 0.74871 0.37733 0.25544 0.0
H203 H 0.79291 0.40989 0.28596 0.0
H204 H 0.81769 0.5438 0.30216 0.0
H205 H 0.79493 0.6031 0.27851 0.0
H206 H 0.70228 0.63946 0.20723 0.0
H207 H 0.65781 0.60651 0.1772 0.0
H208 H 0.66341 0.56079 0.32927 0.0
H209 H 0.66158 0.44913 0.33421 0.0
H210 H 0.81279 0.56345 0.14828 0.0
H211 H 0.77782 0.45955 0.13551 0.0
C212 C 0.33991 0.38439 0.98884 0.0
C213 C 0.35009 0.4037 0.96081 0.0
C214 C 0.32458 0.39855 0.94211 0.0
C215 C 0.3002 0.37643 0.95969 0.0
N216 N 0.30893 0.36755 0.9882 0.0
Co217 Co 0.28255 0.33431 0.02029 0.0
N218 N 0.25721 0.31274 0.98942 0.0
C219 C 0.25449 0.32698 0.96054 0.0
C220 C 0.23465 0.30674 0.9445 0.0
C221 C 0.22392 0.27831 0.96473 0.0
C222 C 0.2377 0.28277 0.99217 0.0
N223 N 0.25661 0.30144 0.05307 0.0
C224 C 0.2375 0.27227 0.0506 0.0
C225 C 0.22288 0.25799 0.07979 0.0
C226 C 0.23284 0.27921 0.10111 0.0
C227 C 0.2529 0.30521 0.0839 0.0
N228 N 0.30803 0.3559 0.05106 0.0
C229 C 0.29852 0.35419 0.08202 0.0
C230 C 0.32196 0.37084 0.09743 0.0
C231 C 0.34789 0.38365 0.07472 0.0
C232 C 0.33876 0.37406 0.04668 0.0
N233 N 0.24455 0.36791 0.02599 0.0
C234 C 0.18871 0.41281 0.01952 0.0
C235 C 0.18292 0.37722 0.02688 0.0
C236 C 0.21087 0.35546 0.02992 0.0
C237 C 0.22304 0.42599 0.0173 0.0
C238 C 0.25055 0.40313 0.02115 0.0
N239 N 0.31943 0.30048 0.01305 0.0
C240 C 0.35066 0.25019 0.02956 0.0
C241 C 0.36546 0.24702 0.99869 0.0
C242 C 0.35827 0.27222 0.97571 0.0
C243 C 0.33446 0.29771 0.9831 0.0
C244 C 0.32839 0.27775 0.03638 0.0
H245 H 0.32735 0.31425 0.96401 0.0
H246 H 0.31745 0.27986 0.06025 0.0
H247 H 0.20495 0.32819 0.03376 0.0
H248 H 0.27676 0.41379 0.01875 0.0
C249 C 0.27409 0.35713 0.94835 0.0
C250 C 0.35909 0.38357 0.01621 0.0
C251 C 0.22894 0.25997 0.02121 0.0
C252 C 0.27211 0.33082 0.09594 0.0
H253 H 0.37361 0.41948 0.9545 0.0
H254 H 0.32494 0.40807 0.91795 0.0
H255 H 0.22908 0.31173 0.92077 0.0
H256 H 0.2072 0.25714 0.96011 0.0
H257 H 0.20597 0.23516 0.08508 0.0
H258 H 0.22663 0.27575 0.1262 0.0
H259 H 0.32136 0.37182 0.12235 0.0
H260 H 0.371 0.39803 0.07838 0.0
H261 H 0.15684 0.36599 0.02911 0.0
H262 H 0.22859 0.45354 0.01201 0.0
H263 H 0.35571 0.2312 0.04807 0.0
H264 H 0.36923 0.2708 0.95162 0.0
C265 C 0.26688 0.66655 0.47074 0.0
C266 C 0.26868 0.65595 0.44082 0.0
C267 C 0.29579 0.67426 0.42354 0.0
C268 C 0.30891 0.69487 0.44385 0.0
N269 N 0.29235 0.6903 0.47324 0.0
Co270 Co 0.30094 0.71695 0.50947 0.0
N271 N 0.33683 0.74803 0.48286 0.0
C272 C 0.34763 0.74643 0.45214 0.0
C273 C 0.37338 0.7703 0.44032 0.0
C274 C 0.3797 0.78809 0.46503 0.0
C275 C 0.35733 0.77394 0.49058 0.0
N276 N 0.30925 0.74377 0.54567 0.0
C277 C 0.33203 0.77044 0.54741 0.0
C278 C 0.32975 0.78117 0.57734 0.0
C279 C 0.30492 0.76035 0.59522 0.0
C280 C 0.29344 0.7382 0.57529 0.0
N281 N 0.2651 0.68561 0.53598 0.0
C282 C 0.25546 0.68582 0.56702 0.0
C283 C 0.22871 0.6628 0.57833 0.0
C284 C 0.22023 0.6475 0.55289 0.0
C285 C 0.24239 0.66214 0.52749 0.0
N286 N 0.33887 0.68434 0.51971 0.0
C287 C 0.39604 0.64438 0.53626 0.0
C288 C 0.36752 0.65005 0.55818 0.0
C289 C 0.33975 0.67004 0.5496 0.0
C290 C 0.39485 0.65797 0.50555 0.0
C291 C 0.36607 0.67718 0.49776 0.0
N292 N 0.2631 0.74952 0.49952 0.0
C293 C 0.20663 0.77401 0.51466 0.0
C294 C 0.20575 0.79055 0.48487 0.0
C295 C 0.23495 0.78695 0.46278 0.0
C296 C 0.2627 0.76593 0.47029 0.0
C297 C 0.23553 0.75485 0.52163 0.0
H298 H 0.28339 0.76298 0.452 0.0
H299 H 0.23462 0.74402 0.54506 0.0
H300 H 0.3197 0.6741 0.5679 0.0
H301 H 0.36674 0.68647 0.47391 0.0
C302 C 0.33393 0.72134 0.43532 0.0
C303 C 0.23915 0.65503 0.49547 0.0
C304 C 0.35682 0.78594 0.52166 0.0
C305 C 0.26903 0.71101 0.58396 0.0
H306 H 0.25139 0.63778 0.4322 0.0
H307 H 0.30389 0.67383 0.39878 0.0
H308 H 0.38639 0.77394 0.41668 0.0
H309 H 0.39889 0.80887 0.4644 0.0
H310 H 0.34488 0.80158 0.58546 0.0
H311 H 0.29668 0.76088 0.61995 0.0
H312 H 0.21569 0.65896 0.60196 0.0
H313 H 0.19923 0.62873 0.5528 0.0
H314 H 0.3672 0.64004 0.58224 0.0
H315 H 0.41625 0.65407 0.48766 0.0
H316 H 0.185 0.77605 0.53278 0.0
H317 H 0.23596 0.7996 0.4395 0.0
C318 C 0.82126 0.8448 0.47555 0.0
C319 C 0.8288 0.85744 0.44462 0.0
C320 C 0.80112 0.84784 0.42988 0.0
C321 C 0.77818 0.8298 0.4525 0.0
N322 N 0.78979 0.82755 0.48047 0.0
Co323 Co 0.76605 0.80149 0.51891 0.0
N324 N 0.73579 0.77395 0.49563 0.0
C325 C 0.72966 0.78255 0.46617 0.0
C326 C 0.70641 0.76001 0.45625 0.0
C327 C 0.69695 0.7361 0.48116 0.0
C328 C 0.71489 0.74539 0.50508 0.0
N329 N 0.74373 0.77494 0.5578 0.0
C330 C 0.72328 0.74555 0.562 0.0
C331 C 0.71262 0.73684 0.59345 0.0
C332 C 0.72633 0.76186 0.60937 0.0
C333 C 0.74459 0.7844 0.58692 0.0
N334 N 0.79566 0.82965 0.54228 0.0
C335 C 0.78969 0.83409 0.5729 0.0
C336 C 0.81466 0.85469 0.58275 0.0
C337 C 0.83791 0.86366 0.55673 0.0
C338 C 0.82581 0.8479 0.53241 0.0
N339 N 0.72887 0.83656 0.52231 0.0
C340 C 0.67202 0.88029 0.51422 0.0
C341 C 0.66705 0.84732 0.53015 0.0
C342 C 0.6954 0.82596 0.53354 0.0
C343 C 0.7065 0.89177 0.50405 0.0
C344 C 0.7345 0.86996 0.50912 0.0
N345 N 0.80214 0.76644 0.51405 0.0
C346 C 0.84637 0.7303 0.53324 0.0
C347 C 0.85444 0.71767 0.50376 0.0
C348 C 0.83593 0.72987 0.47982 0.0
C349 C 0.81005 0.754 0.4854 0.0
C350 C 0.81995 0.7547 0.53794 0.0
H351 H 0.79654 0.76262 0.4662 0.0
H352 H 0.81403 0.7642 0.56069 0.0
H353 H 0.68958 0.80018 0.54401 0.0
H354 H 0.76057 0.87972 0.50106 0.0
C355 C 0.74948 0.80914 0.44757 0.0
C356 C 0.84322 0.8514 0.50019 0.0
C357 C 0.70918 0.72827 0.53707 0.0
C358 C 0.76525 0.81276 0.59236 0.0
H359 H 0.85185 0.872 0.43387 0.0
H360 H 0.79886 0.85206 0.40528 0.0
H361 H 0.69784 0.76046 0.43344 0.0
H362 H 0.67846 0.71469 0.48185 0.0
H363 H 0.69563 0.71538 0.60376 0.0
H364 H 0.72343 0.76333 0.63436 0.0
H365 H 0.81686 0.8608 0.60635 0.0
H366 H 0.86134 0.8795 0.55582 0.0
H367 H 0.64105 0.8374 0.53881 0.0
H368 H 0.71177 0.91727 0.49194 0.0
H369 H 0.86012 0.72119 0.55241 0.0
H370 H 0.84126 0.72051 0.45684 0.0
C371 C 0.48956 0.838 0.90211 0.0
C372 C 0.45687 0.84996 0.91231 0.0
C373 C 0.43328 0.82551 0.90623 0.0
C374 C 0.45279 0.8002 0.8925 0.0
N375 N 0.48744 0.80645 0.89037 0.0
Co376 Co 0.52496 0.77991 0.86697 0.0
N377 N 0.49047 0.75029 0.84958 0.0
C378 C 0.45571 0.74883 0.8583 0.0
C379 C 0.43869 0.72447 0.84403 0.0
C380 C 0.46411 0.7094 0.82517 0.0
C381 C 0.49534 0.72561 0.82889 0.0
N382 N 0.56279 0.7553 0.842 0.0
C383 C 0.56099 0.73234 0.82004 0.0
C384 C 0.59391 0.72367 0.80685 0.0
C385 C 0.61725 0.74132 0.82129 0.0
C386 C 0.59741 0.76003 0.84217 0.0
N387 N 0.55926 0.80904 0.88509 0.0
C388 C 0.59392 0.80459 0.8832 0.0
C389 C 0.61094 0.83008 0.89626 0.0
C390 C 0.58574 0.85254 0.90629 0.0
C391 C 0.55471 0.83949 0.89869 0.0
N392 N 0.52427 0.74326 0.90227 0.0
C393 C 0.51631 0.67486 0.92954 0.0
C394 C 0.5491 0.68844 0.91727 0.0
C395 C 0.55265 0.72292 0.9047 0.0
C396 C 0.48864 0.6975 0.93262 0.0
C397 C 0.4935 0.73188 0.91959 0.0
N398 N 0.52526 0.81477 0.83164 0.0
C399 C 0.55661 0.85256 0.79045 0.0
C400 C 0.52573 0.85943 0.77811 0.0
C401 C 0.49451 0.84504 0.79345 0.0
C402 C 0.49483 0.82291 0.8202 0.0
C403 C 0.5558 0.83004 0.81723 0.0
H404 H 0.47038 0.81189 0.8309 0.0
H405 H 0.58006 0.82497 0.82577 0.0
H406 H 0.57828 0.73177 0.8955 0.0
H407 H 0.47153 0.74805 0.92252 0.0
C408 C 0.43965 0.77265 0.87788 0.0
C409 C 0.52195 0.85802 0.9027 0.0
C410 C 0.52887 0.71671 0.81212 0.0
C411 C 0.61024 0.7821 0.86247 0.0
H412 H 0.45065 0.87437 0.92208 0.0
H413 H 0.40522 0.82705 0.9097 0.0
H414 H 0.411 0.71876 0.84659 0.0
H415 H 0.46011 0.68893 0.81024 0.0
H416 H 0.60041 0.706 0.78896 0.0
H417 H 0.64534 0.74059 0.81706 0.0
H418 H 0.63872 0.83362 0.89604 0.0
H419 H 0.58992 0.8767 0.9165 0.0
H420 H 0.57161 0.67205 0.91603 0.0
H421 H 0.46314 0.6883 0.94356 0.0
H422 H 0.58119 0.86359 0.77893 0.0
H423 H 0.47018 0.85007 0.78428 0.0
C424 C 0.55418 0.30371 0.65605 0.0
C425 C 0.58835 0.31573 0.64799 0.0
C426 C 0.60932 0.2879 0.65248 0.0
C427 C 0.58725 0.26038 0.66373 0.0
N428 N 0.55366 0.26933 0.66641 0.0
Co429 Co 0.51414 0.23972 0.68779 0.0
N430 N 0.54466 0.20936 0.71089 0.0
C431 C 0.57896 0.20604 0.70255 0.0
C432 C 0.59355 0.18296 0.72262 0.0
C433 C 0.56664 0.17094 0.74477 0.0
C434 C 0.53702 0.18744 0.73704 0.0
N435 N 0.4744 0.2109 0.70972 0.0
C436 C 0.47214 0.1894 0.73642 0.0
C437 C 0.4389 0.17483 0.74348 0.0
C438 C 0.4201 0.18752 0.72029 0.0
C439 C 0.44274 0.20917 0.70029 0.0
N440 N 0.48416 0.27048 0.66457 0.0
C441 C 0.45179 0.26207 0.65928 0.0
C442 C 0.43684 0.28899 0.64341 0.0
C443 C 0.46135 0.3158 0.63872 0.0
C444 C 0.49001 0.30398 0.65218 0.0
N445 N 0.51834 0.20812 0.65406 0.0
C446 C 0.51637 0.16167 0.60751 0.0
C447 C 0.51307 0.14964 0.63895 0.0
C448 C 0.51437 0.17306 0.66169 0.0
C449 C 0.52201 0.19747 0.5996 0.0
C450 C 0.52274 0.22033 0.62329 0.0
N451 N 0.50919 0.27015 0.72108 0.0
C452 C 0.47285 0.30656 0.75264 0.0
C453 C 0.50182 0.31763 0.76545 0.0
C454 C 0.53439 0.30402 0.75661 0.0
C455 C 0.53758 0.28025 0.73411 0.0
C456 C 0.47705 0.28235 0.7307 0.0
H457 H 0.56297 0.27054 0.72681 0.0
H458 H 0.45439 0.27417 0.72096 0.0
H459 H 0.51125 0.16265 0.68566 0.0
H460 H 0.52616 0.24789 0.61684 0.0
C461 C 0.59715 0.22993 0.67996 0.0
C462 C 0.52266 0.32475 0.65241 0.0
C463 C 0.5018 0.18002 0.75371 0.0
C464 C 0.43412 0.23277 0.67601 0.0
H465 H 0.5976 0.34193 0.64047 0.0
H466 H 0.63745 0.28853 0.65039 0.0
H467 H 0.62075 0.17678 0.72208 0.0
H468 H 0.56856 0.15217 0.76431 0.0
H469 H 0.42942 0.15666 0.76308 0.0
H470 H 0.39282 0.1825 0.71889 0.0
H471 H 0.41047 0.28993 0.63772 0.0
H472 H 0.45824 0.34134 0.62739 0.0
H473 H 0.50917 0.12215 0.64595 0.0
H474 H 0.52513 0.20768 0.57543 0.0
H475 H 0.44736 0.31674 0.75942 0.0
H476 H 0.55713 0.3123 0.76653 0.0
C477 C 0.87981 0.48704 0.77872 0.0
C478 C 0.89341 0.45653 0.79055 0.0
C479 C 0.87801 0.42997 0.77782 0.0
C480 C 0.85608 0.44574 0.75888 0.0
N481 N 0.85704 0.48081 0.75831 0.0
Co482 Co 0.82801 0.51382 0.73502 0.0
N483 N 0.80035 0.47484 0.72128 0.0
C484 C 0.80324 0.44062 0.72944 0.0
C485 C 0.77923 0.41999 0.71842 0.0
C486 C 0.75995 0.44237 0.70207 0.0
C487 C 0.77367 0.47549 0.70367 0.0
N488 N 0.80043 0.5469 0.7105 0.0
C489 C 0.778 0.54045 0.68993 0.0
C490 C 0.76951 0.57093 0.67361 0.0
C491 C 0.78618 0.59754 0.68496 0.0
C492 C 0.80444 0.58192 0.707 0.0
N493 N 0.85461 0.55283 0.75005 0.0
C494 C 0.85041 0.5872 0.74363 0.0
C495 C 0.86953 0.60794 0.75971 0.0
C496 C 0.88632 0.58549 0.77823 0.0
C497 C 0.87651 0.55225 0.77222 0.0
N498 N 0.86232 0.51239 0.69652 0.0
C499 C 0.89774 0.51024 0.63533 0.0
C500 C 0.88962 0.54184 0.64794 0.0
C501 C 0.87317 0.54232 0.67857 0.0
C502 C 0.89027 0.47983 0.65494 0.0
C503 C 0.87225 0.48142 0.68498 0.0
N504 N 0.79306 0.51501 0.77304 0.0
C505 C 0.74691 0.5435 0.80419 0.0
C506 C 0.74189 0.51458 0.82597 0.0
C507 C 0.76373 0.48651 0.82123 0.0
C508 C 0.7881 0.48684 0.79459 0.0
C509 C 0.77292 0.54346 0.77841 0.0
H510 H 0.80229 0.46365 0.7919 0.0
H511 H 0.77584 0.5665 0.76284 0.0
H512 H 0.86854 0.56727 0.6869 0.0
H513 H 0.86574 0.45717 0.69802 0.0
C514 C 0.82987 0.42859 0.74612 0.0
C515 C 0.88713 0.521 0.78943 0.0
C516 C 0.76161 0.50656 0.68696 0.0
C517 C 0.82703 0.59916 0.72357 0.0
H518 H 0.91137 0.45374 0.80771 0.0
H519 H 0.88076 0.4024 0.78332 0.0
H520 H 0.77642 0.39195 0.72149 0.0
H521 H 0.73872 0.43503 0.68977 0.0
H522 H 0.75268 0.57374 0.65555 0.0
H523 H 0.78563 0.62495 0.67758 0.0
H524 H 0.87022 0.63604 0.75889 0.0
H525 H 0.90307 0.59274 0.79493 0.0
H526 H 0.89571 0.56624 0.63407 0.0
H527 H 0.897 0.45476 0.64664 0.0
H528 H 0.73046 0.56579 0.80675 0.0
H529 H 0.76076 0.46346 0.83737 0.0
C530 C 0.20256 0.05558 0.77776 0.0
C531 C 0.20137 0.0877 0.79005 0.0
C532 C 0.21937 0.11067 0.76805 0.0
C533 C 0.23028 0.09142 0.74356 0.0
N534 N 0.2199 0.05767 0.74843 0.0
Co535 Co 0.22966 0.02093 0.71854 0.0
N536 N 0.26353 0.05222 0.68984 0.0
C537 C 0.27229 0.08541 0.69402 0.0
C538 C 0.29869 0.09941 0.67249 0.0
C539 C 0.30755 0.07356 0.65349 0.0
C540 C 0.28555 0.04526 0.66425 0.0
N541 N 0.23796 0.98488 0.68791 0.0
C542 C 0.25923 0.9857 0.66045 0.0
C543 C 0.25452 0.95613 0.64509 0.0
C544 C 0.22988 0.93573 0.66374 0.0
C545 C 0.22069 0.95403 0.68922 0.0
N546 N 0.19787 0.98895 0.74864 0.0
C547 C 0.18891 0.95579 0.74456 0.0
C548 C 0.17101 0.93847 0.77066 0.0
C549 C 0.1691 0.96169 0.79299 0.0
C550 C 0.18563 0.99214 0.7791 0.0
N551 N 0.19051 0.03744 0.69616 0.0
C552 C 0.14831 0.05099 0.64912 0.0
C553 C 0.14309 0.02078 0.66897 0.0
C554 C 0.16368 0.01506 0.69283 0.0
C555 C 0.17108 0.0767 0.6561 0.0
C556 C 0.19196 0.06937 0.67968 0.0
N557 N 0.26823 1.0039 0.7403 0.0
C558 C 0.29359 0.9558 0.76744 0.0
C559 C 0.30927 0.97893 0.78472 0.0
C560 C 0.30843 0.01452 0.77638 0.0
C561 C 0.28791 0.02648 0.75392 0.0
C562 C 0.27322 0.9689 0.74518 0.0
H563 H 0.28638 0.05402 0.74938 0.0
H564 H 0.2601 0.95029 0.73355 0.0
H565 H 0.15838 0.9915 0.70713 0.0
H566 H 0.21012 0.08926 0.683 0.0
C567 C 0.25524 0.10256 0.71853 0.0
C568 C 0.18929 0.02342 0.79575 0.0
C569 C 0.28601 0.0126 0.6491 0.0
C570 C 0.19911 0.94144 0.71625 0.0
H571 H 0.18996 0.09358 0.81306 0.0
H572 H 0.22558 0.13768 0.77041 0.0
H573 H 0.31038 0.12523 0.67098 0.0
H574 H 0.32791 0.07552 0.63392 0.0
H575 H 0.26822 0.94959 0.62309 0.0
H576 H 0.22064 0.9101 0.65966 0.0
H577 H 0.16142 0.91179 0.77341 0.0
H578 H 0.15727 0.95663 0.81689 0.0
H579 H 0.12437 1.00094 0.66515 0.0
H580 H 0.17466 0.10116 0.64189 0.0
H581 H 0.29499 0.92799 0.77265 0.0
H582 H 0.32144 0.03307 0.78877 0.0
C583 C 0.77624 0.18517 0.95694 0.0
C584 C 0.77537 0.17437 0.92733 0.0
C585 C 0.8012 0.19271 0.90827 0.0
C586 C 0.81637 0.21345 0.92731 0.0
N587 N 0.80224 0.20894 0.95745 0.0
Co588 Co 0.81577 0.23414 0.99284 0.0
N589 N 0.84756 0.26713 0.96385 0.0
C590 C 0.85363 0.26727 0.93246 0.0
C591 C 0.87663 0.29292 0.91872 0.0
C592 C 0.88589 0.31021 0.94277 0.0
C593 C 0.86798 0.29396 0.9699 0.0
N594 N 0.83006 0.25866 0.02839 0.0
C595 C 0.85299 0.28561 0.0285 0.0
C596 C 0.85653 0.29351 0.05859 0.0
C597 C 0.83543 0.27052 0.07819 0.0
C598 C 0.82024 0.24996 0.05905 0.0
N599 N 0.78255 0.2021 0.02149 0.0
C600 C 0.77691 0.20117 0.05293 0.0
C601 C 0.74962 0.17965 0.06602 0.0
C602 C 0.73642 0.16674 0.04142 0.0
C603 C 0.75672 0.18093 0.01465 0.0
N604 N 0.85537 0.20139 0.99703 0.0
C605 C 0.91566 0.1626 1.0062 0.0
C606 C 0.88715 0.16219 0.02936 0.0
C607 C 0.85764 0.1815 0.02437 0.0
C608 C 0.91284 0.18128 0.97779 0.0
C609 C 0.88262 0.19987 0.97358 0.0
N610 N 0.77662 0.2667 0.98901 0.0
C611 C 0.72601 0.2956 0.01293 0.0
C612 C 0.71783 0.30861 0.98387 0.0
C613 C 0.74015 0.30108 0.95742 0.0
C614 C 0.76917 0.2802 0.96046 0.0
C615 C 0.75536 0.2751 0.01498 0.0
H616 H 0.78491 0.27464 0.93944 0.0
H617 H 0.7604 0.26622 0.03786 0.0
H618 H 0.83743 0.18039 0.04342 0.0
H619 H 0.88241 0.21334 0.95126 0.0
C620 C 0.83938 0.24127 0.91691 0.0
C621 C 0.74974 0.17486 0.98316 0.0
C622 C 0.87224 0.30426 1.00086 0.0
C623 C 0.79555 0.22339 0.06909 0.0
H624 H 0.75686 0.15639 0.92009 0.0
H625 H 0.80675 0.19257 0.88321 0.0
H626 H 0.88619 0.2979 0.89422 0.0
H627 H 0.9043 0.33189 0.94063 0.0
H628 H 0.87282 0.31371 0.06562 0.0
H629 H 0.8315 0.26907 0.1034 0.0
H630 H 0.73946 0.17522 0.09043 0.0
H631 H 0.71379 0.14965 0.04302 0.0
H632 H 0.88813 0.14793 0.05174 0.0
H633 H 0.93421 0.18211 0.95906 0.0
H634 H 0.71001 0.30162 0.03405 0.0
H635 H 0.73519 0.31128 0.93448 0.0
C636 C 0.16441 0.04904 0.08436 0.0
N637 N 0.13123 0.04832 0.9916 0.0
C638 C 0.14636 0.01759 0.98518 0.0
C639 C 0.15628 1.01006 0.95409 0.0
C640 C 0.15055 0.03439 0.92948 0.0
C641 C 0.13491 0.06566 0.93681 0.0
C642 C 0.12548 0.07211 0.96798 0.0
Zn643 Zn 0.11505 0.06256 0.03674 0.0
C644 C 0.07468 1.00306 0.07802 0.0
N645 N 0.0766 0.09695 0.12737 0.0
C646 C 0.09864 0.11962 0.13816 0.0
C647 C 0.04456 0.08907 0.1435 0.0
C648 C 0.03372 0.1045 0.1713 0.0
C649 C 0.05613 0.12819 0.18245 0.0
C650 C 0.08898 0.13541 0.16567 0.0
Zn651 Zn 0.09277 0.07872 0.0839 0.0
O652 O 0.16337 0.04474 0.05548 0.0
C653 C 0.13848 0.13522 0.04227 0.0
O654 O 0.13806 0.06147 0.09969 0.0
H655 H 0.02711 0.0714 0.1345 0.0
H656 H 0.15079 0.99891 1.00409 0.0
H657 H 0.12356 0.12634 0.12504 0.0
O658 O 0.14097 0.11138 0.02372 0.0
O659 O 0.11888 0.12988 0.06824 0.0
H660 H 0.11355 0.09644 0.97325 0.0
O661 O 0.04633 0.09612 0.06827 0.0
O662 O 0.06616 0.08324 0.02106 0.0
O663 O 0.07025 0.0263 0.09759 0.0
O664 O 0.0902 0.01201 0.05073 0.0
C665 C 0.04233 0.09602 0.03972 0.0
H666 H 0.16835 0.98562 0.94928 0.0
H667 H 0.13016 0.08506 0.91851 0.0
H668 H 1.00806 0.09846 0.18371 0.0
H669 H 0.10683 0.15366 0.17353 0.0
C670 C 0.91685 0.50271 0.05185 0.0
N671 N 0.97593 0.51752 0.96198 0.0
C672 C 0.95305 0.54302 0.95641 0.0
C673 C 0.94065 0.54761 0.92735 0.0
C674 C 0.95158 0.52549 0.90398 0.0
C675 C 0.97672 0.50088 0.90972 0.0
C676 C 0.98867 0.4974 0.9389 0.0
Zn677 Zn 0.98325 0.49996 0.00727 0.0
C678 C 1.00447 0.55251 0.04807 0.0
N679 N 0.99289 0.45569 0.09807 0.0
C680 C 0.96892 0.43285 0.1143 0.0
C681 C 0.02231 0.465 0.10983 0.0
C682 C 0.02893 0.45063 0.13881 0.0
C683 C 1.00515 0.4263 0.15542 0.0
C684 C 0.97469 0.41757 0.14329 0.0
Zn685 Zn 0.98647 0.47544 0.0548 0.0
O686 O 0.92906 0.50965 0.02332 0.0
C687 C 0.95993 0.42394 0.01643 0.0
O688 O 0.93593 0.48875 0.07067 0.0
H689 H 0.04108 0.48307 0.09644 0.0
H690 H 0.94269 0.5584 0.97507 0.0
H691 H 0.94568 0.42601 0.10451 0.0
O692 O 0.96788 0.44912 0.99599 0.0
O693 O 0.96635 0.42688 0.04409 0.0
H694 H 1.00631 0.47684 0.94377 0.0
O695 O 0.03758 0.46175 0.03972 0.0
O696 O 0.03863 0.4895 0.99352 0.0
O697 O 1.00448 0.5245 0.0655 0.0
O698 O 0.99679 0.55116 0.0204 0.0
C699 C 0.05422 0.47174 0.01345 0.0
H700 H 0.92127 0.56692 0.92373 0.0
H701 H 0.98575 0.48336 0.89229 0.0
H702 H 0.0527 0.45759 0.1478 0.0
H703 H 0.95599 0.39874 0.15587 0.0
C704 C 0.02124 1.00099 0.42619 0.0
N705 N 0.03604 0.9079 0.38203 0.0
C706 C 1.00445 0.91138 0.37175 0.0
C707 C 0.99747 0.89521 0.34556 0.0
C708 C 0.02331 0.87536 0.33046 0.0
C709 C 0.05587 0.87295 0.34094 0.0
C710 C 0.0618 0.88969 0.36695 0.0
Zn711 Zn 0.0453 0.92811 0.42133 0.0
C712 C 0.11389 0.9655 0.41003 0.0
N713 N 0.06805 0.97084 0.5033 0.0
C714 C 0.04356 0.99001 0.51888 0.0
C715 C 0.10108 0.97031 0.51047 0.0
C716 C 0.11123 0.99188 0.53214 0.0
C717 C 0.08773 0.01558 0.54605 0.0
C718 C 0.05265 0.0121 0.54074 0.0
Zn719 Zn 0.05765 0.94865 0.46431 0.0
O720 O 0.01886 0.97612 0.4088 0.0
C721 C 0.98608 0.91018 0.47139 0.0
O722 O 0.03565 0.99531 0.45058 0.0
H723 H 0.12008 0.95425 0.49837 0.0
H724 H 0.98448 0.92604 0.38425 0.0
H725 H 0.01713 0.98932 0.5134 0.0
O726 O 0.99767 0.90555 0.4435 0.0
O727 O 1.00508 0.92746 0.48728 0.0
H728 H 0.08678 0.88761 0.37545 0.0
O729 O 0.08262 0.90276 0.47819 0.0
O730 O 0.07406 0.88135 0.43504 0.0
O731 O 0.10802 0.96903 0.4392 0.0
O732 O 0.09146 0.94981 0.3972 0.0
C733 C 0.08737 0.87813 0.46052 0.0
H734 H 0.9721 0.89727 0.33771 0.0
H735 H 0.07617 0.85774 0.32943 0.0
H736 H 0.13782 0.99041 0.5372 0.0
H737 H 0.03186 0.02611 0.55233 0.0
C738 C 0.94211 0.6079 0.45886 0.0
N739 N 0.04549 0.56922 0.45444 0.0
C740 C 0.04751 0.58645 0.48038 0.0
C741 C 0.0795 0.59889 0.48715 0.0
C742 C 0.10981 0.5938 0.46696 0.0
C743 C 0.10729 0.57578 0.44045 0.0
C744 C 0.07467 0.56359 0.43462 0.0
Zn745 Zn 0.99706 0.55318 0.44469 0.0
C746 C 0.95261 0.52059 0.50251 0.0
N747 N 0.89753 0.52213 0.42436 0.0
C748 C 0.88191 0.54403 0.40463 0.0
C749 C 0.88774 0.48794 0.42982 0.0
C750 C 0.86429 0.47367 0.41212 0.0
C751 C 0.85105 0.49515 0.38914 0.0
C752 C 0.85838 0.53092 0.38659 0.0
Zn753 Zn 0.94403 0.53813 0.43539 0.0
O754 O 0.97444 0.60218 0.45926 0.0
C755 C 0.98647 0.57523 0.37765 0.0
O756 O 0.92331 0.58569 0.44817 0.0
H757 H 0.9006 0.47107 0.44563 0.0
H758 H 0.02423 0.59113 0.49566 0.0
H759 H 0.89027 0.57103 0.40056 0.0
O760 O 1.00926 0.57597 0.39643 0.0
O761 O 0.95738 0.55996 0.38745 0.0
H762 H 0.07259 0.55006 0.41401 0.0
O763 O 0.96427 0.489 0.4236 0.0
O764 O 0.01728 0.50263 0.43158 0.0
O765 O 0.93061 0.51875 0.48317 0.0
O766 O 0.98348 0.53155 0.49232 0.0
C767 C 0.99563 0.48044 0.42418 0.0
H768 H 0.08054 0.61292 0.50769 0.0
H769 H 0.13022 0.57164 0.42428 0.0
H770 H 0.85887 0.44591 0.41447 0.0
H771 H 0.8483 0.54798 0.36899 0.0
C772 C 0.40853 0.99054 0.56115 0.0
N773 N 0.4583 0.99338 0.46525 0.0
C774 C 0.44197 0.02284 0.45639 0.0
C775 C 0.43237 0.02792 0.4262 0.0
C776 C 0.43898 1.00218 0.40505 0.0
C777 C 0.45649 0.97252 0.41463 0.0
C778 C 0.46625 0.96882 0.44469 0.0
Zn779 Zn 0.46884 0.98108 0.51099 0.0
C780 C 0.49838 0.04005 0.54204 0.0
N781 N 0.49141 0.94988 0.60199 0.0
C782 C 0.46847 0.92891 0.62157 0.0
C783 C 0.52207 0.96085 0.6106 0.0
C784 C 0.53094 0.95018 0.63989 0.0
C785 C 0.50807 0.92784 0.65997 0.0
C786 C 0.47641 0.9174 0.65092 0.0
Zn787 Zn 0.48066 0.96401 0.55865 0.0
O788 O 0.41575 0.99472 0.53143 0.0
C789 C 0.44578 0.90688 0.53037 0.0
O790 O 0.43203 0.97972 0.57704 0.0
H791 H 0.53999 0.97733 0.59451 0.0
H792 H 0.43559 0.04201 0.47296 0.0
H793 H 0.44433 0.92055 0.61421 0.0
O794 O 0.44856 0.93004 0.50771 0.0
O795 O 0.45849 0.91307 0.55505 0.0
H796 H 0.47933 0.94559 0.45188 0.0
O797 O 0.53009 0.94753 0.54127 0.0
O798 O 0.52257 0.96472 0.4933 0.0
O799 O 0.50024 0.01504 0.56253 0.0
O800 O 0.48743 0.03393 0.51636 0.0
C801 C 0.54166 0.95063 0.51259 0.0
H802 H 0.41879 0.05117 0.41974 0.0
H803 H 0.46195 0.95202 0.39919 0.0
H804 H 0.55565 0.95835 0.64648 0.0
H805 H 0.45843 0.90004 0.66619 0.0
C806 C 0.6385 0.52324 0.62264 0.0
N807 N 0.60143 0.51842 0.53262 0.0
C808 C 0.63497 0.50988 0.52343 0.0
C809 C 0.6457 0.50297 0.49253 0.0
C810 C 0.62213 0.50642 0.47048 0.0
C811 C 0.58751 0.51379 0.48077 0.0
C812 C 0.57752 0.51885 0.51208 0.0
Zn813 Zn 0.58716 0.53639 0.57647 0.0
C814 C 0.5473 0.4777 0.62042 0.0
N815 N 0.55456 0.5768 0.66613 0.0
C816 C 0.57898 0.59964 0.67321 0.0
C817 C 0.52307 0.57292 0.68423 0.0
C818 C 0.51534 0.59285 0.71004 0.0
C819 C 0.54018 0.61711 0.71694 0.0
C820 C 0.57239 0.61992 0.69839 0.0
Zn821 Zn 0.56759 0.55434 0.62359 0.0
O822 O 0.63494 0.51781 0.59452 0.0
C823 C 0.6138 0.60832 0.57737 0.0
O824 O 0.61371 0.53711 0.63885 0.0
H825 H 0.50358 0.5552 0.6782 0.0
H826 H 0.65396 0.50956 0.5396 0.0
H827 H 0.60343 0.60335 0.65864 0.0
O828 O 0.61485 0.58325 0.56018 0.0
O829 O 0.59492 0.60478 0.60389 0.0
H830 H 0.55069 0.52425 0.51936 0.0
O831 O 0.52004 0.57229 0.60855 0.0
O832 O 0.53923 0.55899 0.56143 0.0
O833 O 0.54444 0.50102 0.64021 0.0
O834 O 0.56071 0.48721 0.5926 0.0
C835 C 0.51592 0.57248 0.57996 0.0
H836 H 0.67259 0.49688 0.48552 0.0
H837 H 0.56843 0.51628 0.46457 0.0
H838 H 0.49007 0.59003 0.72393 0.0
H839 H 0.59215 0.63832 0.70296 0.0
C840 C 0.53217 0.52818 0.9523 0.0
N841 N 0.53884 0.43902 0.9046 0.0
C842 C 0.50581 0.44631 0.89898 0.0
C843 C 0.49231 0.43254 0.87432 0.0
C844 C 0.51284 0.41033 0.85638 0.0
C845 C 0.54702 0.40398 0.86195 0.0
C846 C 0.55971 0.41891 0.88634 0.0
Zn847 Zn 0.55572 0.45616 0.94217 0.0
C848 C 0.62413 0.49287 0.92438 0.0
N849 N 0.58919 0.49444 0.02149 0.0
C850 C 0.56506 0.50898 0.04164 0.0
C851 C 0.62319 0.4943 0.02585 0.0
C852 C 0.63426 0.51075 0.05043 0.0
C853 C 0.61051 0.52884 0.07051 0.0
C854 C 0.57499 0.5256 0.06662 0.0
Zn855 Zn 0.57407 0.47498 0.98322 0.0
O856 O 0.52684 0.50329 0.93589 0.0
C857 C 0.50267 0.43619 0.99595 0.0
O858 O 0.55116 0.52284 0.97373 0.0
H859 H 0.64184 0.4816 0.0101 0.0
H860 H 0.48944 0.46186 0.91419 0.0
H861 H 0.53795 0.50797 0.03822 0.0
O862 O 0.51186 0.4318 0.96767 0.0
O863 O 0.52335 0.45337 0.01032 0.0
H864 H 0.58578 0.41361 0.8912 0.0
O865 O 0.60039 0.42816 0.99303 0.0
O866 O 0.58737 0.40943 0.94948 0.0
O867 O 0.62238 0.49532 0.95377 0.0
O868 O 0.59835 0.47966 0.91394 0.0
C869 C 0.6041 0.40575 0.97306 0.0
H870 H 0.46585 0.43776 0.87016 0.0
H871 H 0.56333 0.38701 0.84798 0.0
H872 H 0.66138 0.50866 0.05356 0.0
H873 H 0.55427 0.53497 0.08237 0.0
C874 C 0.44508 0.13009 0.95461 0.0
N875 N 0.54927 0.09589 0.95201 0.0
C876 C 0.55246 0.11412 0.97716 0.0
C877 C 0.5852 0.12606 0.98278 0.0
C878 C 0.61482 0.11894 0.96243 0.0
C879 C 0.61095 0.09991 0.93685 0.0
C880 C 0.57775 0.08863 0.93201 0.0
Zn881 Zn 0.50117 0.0783 0.94341 0.0
C882 C 0.45785 0.0453 1.00201 0.0
N883 N 0.40404 0.03894 0.92473 0.0
C884 C 0.38762 0.05612 0.90249 0.0
C885 C 0.39672 1.00479 0.93402 0.0
C886 C 0.37585 0.98529 0.91761 0.0
C887 C 0.36259 1.00156 0.89187 0.0
C888 C 0.36659 0.03764 0.8855 0.0
Zn889 Zn 0.44973 0.05879 0.93411 0.0
O890 O 0.47787 0.12702 0.95401 0.0
C891 C 0.48937 0.09771 0.87588 0.0
O892 O 0.42709 0.10524 0.94672 0.0
H893 H 0.41031 0.99166 0.95165 0.0
H894 H 0.52959 0.11955 0.99283 0.0
H895 H 0.39383 0.08325 0.8956 0.0
O896 O 0.51253 0.09928 0.89425 0.0
O897 O 0.46106 0.08106 0.88589 0.0
H898 H 0.5747 0.07415 0.91214 0.0
O899 O 0.47209 1.01114 0.92221 0.0
O900 O 0.52307 0.02726 0.93335 0.0
O901 O 0.43782 0.03917 0.9819 0.0
O902 O 0.4874 0.06011 0.99265 0.0
C903 C 0.50336 1.00403 0.92484 0.0
H904 H 0.58739 0.14088 1.00265 0.0
H905 H 0.63334 0.09423 0.92062 0.0
H906 H 0.37302 0.95743 0.92291 0.0
H907 H 0.35629 0.05073 0.86574 0.0
C908 C 0.99975 0.0938 0.44082 0.0
C909 C 1.00693 0.11107 0.41064 0.0
C910 C 0.01748 0.05496 0.38846 0.0
C911 C 0.00974 0.03734 0.41872 0.0
N912 N 0.98116 0.04003 0.47123 0.0
N913 N 1.00888 0.10688 0.35546 0.0
C914 C 0.99676 0.05686 0.44408 0.0
C915 C 0.01128 0.0912 0.38436 0.0
N916 N 0.99732 0.11236 0.46649 0.0
N917 N 0.03302 0.03831 0.36395 0.0
H918 H 1.00322 0.13314 0.35192 0.0
H919 H 1.00847 0.09299 0.33585 0.0
H920 H 0.03911 0.01217 0.36528 0.0
H921 H 0.04262 0.05146 0.34262 0.0
H922 H 0.99599 0.10071 0.48911 0.0
H923 H 0.99945 0.13941 0.46508 0.0
H924 H 0.96879 0.05295 0.48957 0.0
H925 H 0.97715 0.01314 0.47392 0.0
C926 C 0.02197 0.40092 0.37995 0.0
C927 C 0.01144 0.37316 0.40303 0.0
C928 C 0.99456 0.41615 0.44106 0.0
C929 C 1.00532 0.44383 0.41806 0.0
N930 N 0.03434 0.46297 0.36726 0.0
N931 N 0.99521 0.35438 0.45716 0.0
C932 C 0.02086 0.43624 0.38805 0.0
C933 C 0.99996 0.38085 0.43409 0.0
N934 N 0.03188 0.39347 0.34994 0.0
N935 N 0.97846 0.42367 0.46954 0.0
H936 H 0.99884 0.32839 0.4529 0.0
H937 H 0.99043 0.35823 0.48077 0.0
H938 H 0.97623 0.44899 0.47623 0.0
H939 H 0.96583 0.40509 0.48597 0.0
H940 H 0.03783 0.41206 0.3313 0.0
H941 H 0.03222 0.36821 0.34325 0.0
H942 H 0.04885 0.45966 0.34591 0.0
H943 H 0.03319 0.48892 0.37238 0.0
C944 C 0.07712 0.90285 0.08151 0.0
C945 C 0.04869 0.89221 0.10447 0.0
C946 C 0.03379 0.95432 0.10684 0.0
C947 C 0.06521 0.96493 0.08742 0.0
N948 N 0.12176 0.94692 0.06456 0.0
N949 N 1.00421 0.90985 0.14393 0.0
C950 C 0.08823 0.93852 0.07697 0.0
C951 C 0.02812 0.91854 0.1185 0.0
N952 N 0.09327 0.87906 0.06333 0.0
N953 N 1.00859 0.97795 0.11335 0.0
H954 H 1.00007 0.88448 0.15398 0.0
H955 H 0.99112 0.92833 0.15692 0.0
H956 H 0.01084 1.00379 0.10423 0.0
H957 H 0.98398 0.97095 0.12495 0.0
H958 H 0.1121 0.88609 0.04444 0.0
H959 H 0.08504 0.85306 0.06487 0.0
H960 H 0.14017 0.92821 0.05911 0.0
H961 H 0.13255 0.9719 0.06368 0.0
C962 C 0.03387 0.64564 0.06066 0.0
C963 C 0.02078 0.64729 0.09261 0.0
C964 C 0.99237 0.59025 0.09275 0.0
C965 C 1.00928 0.58624 0.06216 0.0
N966 N 0.05147 0.60851 0.01916 0.0
N967 N 0.99411 0.61751 0.14082 0.0
C968 C 0.03149 0.61355 0.04659 0.0
C969 C 1.00222 0.61835 0.1092 0.0
N970 N 0.04781 0.67485 0.04356 0.0
N971 N 0.96526 0.56853 0.10555 0.0
H972 H 1.0012 0.63746 0.15382 0.0
H973 H 0.98351 0.59549 0.15437 0.0
H974 H 0.95501 0.54927 0.09358 0.0
H975 H 0.95009 0.5725 0.12651 0.0
H976 H 0.05446 0.67612 0.01947 0.0
H977 H 0.05014 0.69859 0.05315 0.0
H978 H 0.07058 0.62631 0.00843 0.0
H979 H 0.05133 0.58516 0.00863 0.0
C980 C 0.39562 0.04557 0.07805 0.0
C981 C 0.41537 0.02953 0.10033 0.0
C982 C 0.46263 0.02094 0.05788 0.0
C983 C 0.44413 0.04012 0.03619 0.0
N984 N 0.39678 0.07862 0.02837 0.0
N985 N 0.46973 1.00594 0.11224 0.0
C986 C 0.41162 0.05454 0.04704 0.0
C987 C 0.44949 0.01828 0.09044 0.0
N988 N 0.36111 0.05149 0.08621 0.0
N989 N 0.49209 1.00426 0.04734 0.0
H990 H 0.46086 1.00338 0.13603 0.0
H991 H 0.49602 1.0008 0.10703 0.0
H992 H 0.50243 1.00569 0.0239 0.0
H993 H 0.50471 0.98683 0.06137 0.0
H994 H 0.34456 0.05954 0.07005 0.0
H995 H 0.34814 0.04505 0.10853 0.0
H996 H 0.37513 0.09267 0.03624 0.0
H997 H 0.40829 0.08763 1.00619 0.0
C998 C 0.6134 0.54631 0.15347 0.0
C999 C 0.64952 0.54168 0.15401 0.0
C1000 C 0.65913 0.55262 0.09739 0.0
C1001 C 0.62312 0.54695 0.09691 0.0
N1002 N 0.57105 0.57056 0.12233 0.0
N1003 N 0.70792 0.54428 0.12645 0.0
C1004 C 0.60091 0.55287 0.12434 0.0
C1005 C 0.67291 0.54679 0.12598 0.0
N1006 N 0.59106 0.54412 0.18053 0.0
N1007 N 0.67931 0.56579 0.07092 0.0
H1008 H 0.719 0.54061 0.14703 0.0
H1009 H 0.72567 0.54383 0.10635 0.0
H1010 H 0.66845 0.57243 0.05048 0.0
H1011 H 0.70532 0.57337 0.07024 0.0
H1012 H 0.56411 0.54385 0.18088 0.0
H1013 H 0.59952 0.54067 0.20243 0.0
H1014 H 0.55511 0.57799 0.14175 0.0
H1015 H 0.56576 0.58263 0.10111 0.0
C1016 C 0.43449 1.00517 0.31648 0.0
C1017 C 0.39861 0.01154 0.31535 0.0
C1018 C 0.38921 1.00746 0.37268 0.0
C1019 C 0.42546 1.00506 0.3739 0.0
N1020 N 0.48352 1.00804 0.34609 0.0
N1021 N 0.34502 0.03066 0.34339 0.0
C1022 C 0.44842 1.00557 0.34551 0.0
C1023 C 0.37685 0.01615 0.34369 0.0
N1024 N 0.45534 0.99894 0.28981 0.0
N1025 N 0.3662 1.00039 0.39907 0.0
H1026 H 0.33609 0.04108 0.3232 0.0
H1027 H 0.32963 0.03691 0.36357 0.0
H1028 H 0.37392 0.99263 0.42067 0.0
H1029 H 0.3394 0.99842 0.39871 0.0
H1030 H 0.4807 0.99035 0.2896 0.0
H1031 H 0.44647 1.00009 0.26805 0.0
H1032 H 0.50145 0.01201 0.32609 0.0
H1033 H 0.49457 1.0094 0.36667 0.0
C1034 C 0.67358 0.52176 0.38926 0.0
C1035 C 0.65226 0.50377 0.3711 0.0
C1036 C 0.61608 0.48142 0.41921 0.0
C1037 C 0.6337 0.50425 0.43648 0.0
N1038 N 0.67418 0.55294 0.43517 0.0
N1039 N 0.59845 0.47207 0.36899 0.0
C1040 C 0.66113 0.52633 0.42078 0.0
C1041 C 0.62215 0.48504 0.38611 0.0
N1042 N 0.70617 0.53362 0.37689 0.0
N1043 N 0.59431 0.45564 0.43432 0.0
H1044 H 0.60092 0.47571 0.34475 0.0
H1045 H 0.57457 0.46101 0.37905 0.0
H1046 H 0.59044 0.45115 0.45853 0.0
H1047 H 0.58324 0.43651 0.42272 0.0
H1048 H 0.72361 0.54421 0.39022 0.0
H1049 H 0.71728 0.52918 0.35444 0.0
H1050 H 0.69202 0.57147 0.42347 0.0
H1051 H 0.66436 0.55899 0.45752 0.0
C1052 C 0.14472 0.45849 0.03504 0.0
C1053 C 0.15839 0.435 0.01331 0.0
C1054 C 0.10598 0.44136 0.98658 0.0
C1055 C 0.09226 0.4645 0.00856 0.0
N1056 N 0.10296 0.50321 0.04732 0.0
N1057 N 0.15664 0.41172 0.96363 0.0
C1058 C 0.11324 0.47576 0.03063 0.0
C1059 C 0.14048 0.42906 0.98743 0.0
N1060 N 0.16051 0.46274 0.06095 0.0
N1061 N 0.08542 0.42953 0.9661 0.0
H1062 H 0.18194 0.4028 0.96348 0.0
H1063 H 0.1464 0.40912 0.94286 0.0
H1064 H 0.06044 0.43852 0.96443 0.0
H1065 H 0.0923 0.40942 0.95209 0.0
H1066 H 0.14945 0.47619 0.07946 0.0
H1067 H 0.18353 0.45067 0.06511 0.0
H1068 H 0.11841 0.51476 0.0618 0.0
H1069 H 0.08039 0.51672 0.04409 0.0
C1070 C 0.202 0.60218 0.48915 0.0
C1071 C 0.20626 0.63887 0.48757 0.0
C1072 C 0.14948 0.64551 0.46863 0.0
C1073 C 0.14372 0.60897 0.47299 0.0
N1074 N 0.16228 0.55253 0.49123 0.0
N1075 N 0.18225 0.69564 0.48021 0.0
C1076 C 0.16946 0.58723 0.48419 0.0
C1077 C 0.17948 0.66057 0.47854 0.0
N1078 N 0.22925 0.58167 0.49495 0.0
N1079 N 0.1269 0.66579 0.45392 0.0
H1080 H 0.20451 0.70785 0.48576 0.0
H1081 H 0.16147 0.71218 0.47859 0.0
H1082 H 0.10479 0.65574 0.44601 0.0
H1083 H 0.13167 0.69206 0.44703 0.0
H1084 H 0.22923 0.55495 0.49311 0.0
H1085 H 0.25306 0.59178 0.49944 0.0
H1086 H 0.17832 0.53592 0.50264 0.0
H1087 H 0.13886 0.5407 0.48777 0.0
C1088 C 0.88586 0.90298 0.48397 0.0
C1089 C 0.88016 0.86695 0.49331 0.0
C1090 C 0.9438 0.86125 0.49459 0.0
C1091 C 0.94958 0.89679 0.48344 0.0
N1092 N 0.92649 0.95031 0.46347 0.0
N1093 N 0.90302 0.81286 0.51213 0.0
C1094 C 0.92062 0.91734 0.47728 0.0
C1095 C 0.90906 0.84644 0.49991 0.0
N1096 N 0.85786 0.92395 0.48289 0.0
N1097 N 0.97194 0.84125 0.4987 0.0
H1098 H 0.87852 0.80073 0.51467 0.0
H1099 H 0.92164 0.79723 0.521 0.0
H1100 H 0.99724 0.85162 0.49649 0.0
H1101 H 0.97081 0.81438 0.50317 0.0
H1102 H 0.85983 0.95095 0.47995 0.0
H1103 H 0.83221 0.91457 0.48751 0.0
H1104 H 0.90738 0.96526 0.45451 0.0
H1105 H 0.95121 0.96202 0.45903 0.0
C1106 C 0.45012 0.64356 0.56369 0.0
C1107 C 0.42762 0.62616 0.54612 0.0
C1108 C 0.46199 0.57296 0.55176 0.0
C1109 C 0.48544 0.59083 0.56811 0.0
N1110 N 0.50438 0.64478 0.58606 0.0
N1111 N 0.41413 0.57556 0.52037 0.0
C1112 C 0.48002 0.62652 0.57326 0.0
C1113 C 0.43431 0.59127 0.53914 0.0
N1114 N 0.44275 0.67655 0.57148 0.0
N1115 N 0.46498 0.53792 0.54983 0.0
H1116 H 0.39254 0.58721 0.51227 0.0
H1117 H 0.41988 0.55193 0.51116 0.0
H1118 H 0.48433 0.5236 0.55918 0.0
H1119 H 0.44679 0.52237 0.54131 0.0
H1120 H 0.45467 0.68899 0.58791 0.0
H1121 H 0.42327 0.69119 0.56269 0.0
H1122 H 0.50464 0.67166 0.58676 0.0
H1123 H 0.52621 0.63363 0.59401 0.0
C1124 C 0.5096 0.61546 0.91171 0.0
C1125 C 0.51114 0.63669 0.93664 0.0
C1126 C 0.51082 0.58439 0.97218 0.0
C1127 C 0.51867 0.56394 0.94634 0.0
N1128 N 0.52855 0.5625 0.88987 0.0
N1129 N 0.51338 0.64161 0.99127 0.0
C1130 C 0.51819 0.57985 0.91558 0.0
C1131 C 0.51146 0.62124 0.96718 0.0
N1132 N 0.49999 0.62938 0.88427 0.0
N1133 N 0.50187 0.56855 1.0014 0.0
H1134 H 0.51281 0.66868 0.98849 0.0
H1135 H 0.51771 0.63169 0.01344 0.0
H1136 H 0.49891 0.54166 1.0055 0.0
H1137 H 0.49338 0.58204 0.02069 0.0
H1138 H 0.4948 0.61426 0.86645 0.0
H1139 H 0.4937 0.65547 0.88075 0.0
H1140 H 0.53169 0.57459 0.86735 0.0
H1141 H 0.53722 0.53719 0.89052 0.0
C1142 C 0.51156 0.90558 0.94 0.0
C1143 C 0.52146 0.89608 0.90924 0.0
C1144 C 0.52921 0.95838 0.89087 0.0
C1145 C 0.51468 0.96757 0.92067 0.0
N1146 N 0.48998 0.95017 0.97345 0.0
N1147 N 0.53946 0.91318 0.85498 0.0
C1148 C 0.50558 0.9412 0.94526 0.0
C1149 C 0.53061 0.92248 0.8846 0.0
N1150 N 0.50849 0.88052 0.9643 0.0
N1151 N 0.54149 0.98414 0.86859 0.0
H1152 H 0.54056 0.88738 0.84966 0.0
H1153 H 0.54398 0.93071 0.8354 0.0
H1154 H 0.5404 1.01042 0.87261 0.0
H1155 H 0.55509 0.97975 0.84708 0.0
H1156 H 0.50488 0.88592 0.98759 0.0
H1157 H 0.51252 0.85428 0.96124 0.0
H1158 H 0.47867 0.93221 0.99113 0.0
H1159 H 0.48658 0.97592 0.9786 0.0
C1160 C 0.5482 0.37764 0.61656 0.0
C1161 C 0.52522 0.36434 0.64299 0.0
C1162 C 0.51033 0.42599 0.65152 0.0
C1163 C 0.53895 0.43869 0.6292 0.0
N1164 N 0.59144 0.42213 0.59755 0.0
N1165 N 0.48359 0.37754 0.68634 0.0
C1166 C 0.55951 0.41326 0.61357 0.0
C1167 C 0.50594 0.38908 0.66064 0.0
N1168 N 0.55914 0.35639 0.5938 0.0
N1169 N 0.48633 0.44873 0.66305 0.0
H1170 H 0.47956 0.35127 0.69356 0.0
H1171 H 0.47127 0.394 0.70192 0.0
H1172 H 0.48763 0.47519 0.65605 0.0
H1173 H 0.46323 0.44091 0.67695 0.0
H1174 H 0.57388 0.36561 0.57289 0.0
H1175 H 0.55035 0.3306 0.5946 0.0
H1176 H 0.60801 0.40378 0.58774 0.0
H1177 H 0.60351 0.44634 0.59799 0.0
C1178 C 0.54271 0.11417 0.57608 0.0
C1179 C 0.51419 0.13593 0.58363 0.0
C1180 C 0.4768 0.0987 0.55737 0.0
C1181 C 0.5051 0.07626 0.55063 0.0
N1182 N 0.56642 0.06678 0.54709 0.0
N1183 N 0.45646 0.15364 0.57582 0.0
C1184 C 0.53854 0.08546 0.55797 0.0
C1185 C 0.48209 0.12983 0.57216 0.0
N1186 N 0.57351 0.12041 0.58717 0.0
N1187 N 0.44427 0.08904 0.55169 0.0
H1188 H 0.45899 0.17598 0.58746 0.0
H1189 H 0.43385 0.15284 0.56524 0.0
H1190 H 0.4394 0.06711 0.54028 0.0
H1191 H 0.42171 0.10155 0.55979 0.0
H1192 H 0.59403 0.10331 0.5861 0.0
H1193 H 0.57809 0.14237 0.59876 0.0
H1194 H 0.59214 0.07327 0.54908 0.0
H1195 H 0.5637 0.04632 0.53335 0.0
C1196 C 0.8983 0.49003 0.58044 0.0
C1197 C 0.91388 0.50951 0.60187 0.0
C1198 C 0.95269 0.53796 0.55794 0.0
C1199 C 0.94076 0.51511 0.53706 0.0
N1200 N 0.90721 0.4632 0.53152 0.0
N1201 N 0.96364 0.54394 0.61082 0.0
C1202 C 0.91516 0.48914 0.54927 0.0
C1203 C 0.94371 0.53067 0.59056 0.0
N1204 N 0.86648 0.47405 0.58897 0.0
N1205 N 0.96964 0.56856 0.54701 0.0
H1206 H 0.95879 0.538 0.63486 0.0
H1207 H 0.98708 0.55746 0.60332 0.0
H1208 H 0.97171 0.57806 0.52375 0.0
H1209 H 0.97654 0.5869 0.56169 0.0
H1210 H 0.85277 0.46239 0.57321 0.0
H1211 H 0.85206 0.47576 0.61071 0.0
H1212 H 0.89084 0.44211 0.54035 0.0
H1213 H 0.91997 0.46068 0.50922 0.0
C1214 C 0.15331 0.05184 0.59075 0.0
C1215 C 0.1322 0.05377 0.61984 0.0
C1216 C 0.08021 0.0528 0.59316 0.0
C1217 C 0.10089 0.04137 0.56682 0.0
N1218 N 0.15489 0.05559 0.53456 0.0
N1219 N 0.07531 0.06018 0.64839 0.0
C1220 C 0.1369 0.04947 0.56363 0.0
C1221 C 0.0955 0.05573 0.62094 0.0
N1222 N 0.18858 0.04899 0.58921 0.0
N1223 N 0.04878 0.06699 0.59001 0.0
H1224 H 0.0858 0.06485 0.66871 0.0
H1225 H 0.04826 0.05768 0.6511 0.0
H1226 H 0.04193 0.07438 0.56801 0.0
H1227 H 0.03329 0.07761 0.60811 0.0
H1228 H 0.20433 0.04362 0.56895 0.0
H1229 H 0.20196 0.04905 0.60855 0.0
H1230 H 0.18072 0.06443 0.53056 0.0
H1231 H 0.14236 0.05531 0.51463 0.0
C1232 C 0.93976 0.5316 0.81725 0.0
C1233 C 0.90368 0.52357 0.81883 0.0
C1234 C 0.89948 0.51485 0.87591 0.0
C1235 C 0.93485 0.52591 0.87459 0.0
N1236 N 0.98706 0.55049 0.84421 0.0
N1237 N 0.84775 0.51446 0.84984 0.0
C1238 C 0.95456 0.53588 0.84526 0.0
C1239 C 0.88311 0.51729 0.84825 0.0
N1240 N 0.96003 0.53438 0.78899 0.0
N1241 N 0.88189 0.50042 0.90331 0.0
H1242 H 0.83491 0.51646 0.83011 0.0
H1243 H 0.83105 0.51349 0.87068 0.0
H1244 H 0.893 0.49731 0.92398 0.0
H1245 H 0.85739 0.48847 0.90491 0.0
H1246 H 0.98707 0.5364 0.78646 0.0
H1247 H 0.94995 0.53202 0.76805 0.0
H1248 H 1.00138 0.56156 0.82381 0.0
H1249 H 0.99852 0.55435 0.8642 0.0
C1250 C 0.20577 0.02756 0.85026 0.0
C1251 C 0.17944 0.02323 0.8307 0.0
C1252 C 0.1351 0.02044 0.87687 0.0
C1253 C 0.16104 0.02794 0.89594 0.0
N1254 N 0.22069 0.04276 0.90038 0.0
N1255 N 0.11847 0.02219 0.82473 0.0
C1256 C 0.19635 0.03248 0.88252 0.0
C1257 C 0.14392 0.02135 0.84387 0.0
N1258 N 0.23991 0.02677 0.8379 0.0
N1259 N 0.10201 0.01183 0.89044 0.0
H1260 H 0.12382 0.02326 0.80052 0.0
H1261 H 0.09222 0.02483 0.83263 0.0
H1262 H 0.09464 1.01095 0.91446 0.0
H1263 H 0.08276 1.00255 0.8783 0.0
H1264 H 0.26065 0.0275 0.85087 0.0
H1265 H 0.24753 0.02262 0.81466 0.0
H1266 H 0.2461 0.05036 0.89153 0.0
H1267 H 0.21491 0.04603 0.92408 0.0
C1268 C 0.61445 0.88725 0.49206 0.0
C1269 C 0.64082 0.90159 0.50784 0.0
C1270 C 0.60619 0.95423 0.51262 0.0
C1271 C 0.57724 0.93704 0.50321 0.0
N1272 N 0.55324 0.88589 0.48487 0.0
N1273 N 0.65885 0.9482 0.53686 0.0
C1274 C 0.58132 0.90327 0.49283 0.0
C1275 C 0.63613 0.93518 0.51881 0.0
N1276 N 0.62134 0.8588 0.4757 0.0
N1277 N 0.60506 0.98912 0.51513 0.0
H1278 H 0.68011 0.9346 0.54342 0.0
H1279 H 0.65458 0.97107 0.54788 0.0
H1280 H 0.58436 1.0033 0.50809 0.0
H1281 H 0.62612 1.00403 0.51983 0.0
H1282 H 0.60427 0.84894 0.46165 0.0
H1283 H 0.64562 0.8473 0.47356 0.0
H1284 H 0.5534 0.85965 0.48081 0.0
H1285 H 0.52915 0.89741 0.48402 0.0
C1286 C 0.69155 0.18182 0.96293 0.0
C1287 C 0.71519 0.16007 0.97737 0.0
C1288 C 0.67269 0.11141 0.98258 0.0
C1289 C 0.64972 0.13279 0.96707 0.0
N1290 N 0.63918 0.18618 0.93755 0.0
N1291 N 0.73165 0.10243 0.99432 0.0
C1292 C 0.65981 0.16738 0.95567 0.0
C1293 C 0.70673 0.1243 0.98527 0.0
N1294 N 0.69917 0.21652 0.95686 0.0
N1295 N 0.66166 0.07905 0.99541 0.0
H1296 H 0.75685 0.11098 0.99637 0.0
H1297 H 0.72832 0.07552 0.99725 0.0
H1298 H 0.63721 0.06848 0.99333 0.0
H1299 H 0.67565 0.0637 0.01001 0.0
H1300 H 0.68265 0.23439 0.94768 0.0
H1301 H 0.72141 0.22809 0.96301 0.0
H1302 H 0.64652 0.2101 0.92561 0.0
H1303 H 0.61541 0.1767 0.93238 0.0
C1304 C 0.42413 0.37319 0.01263 0.0
C1305 C 0.39644 0.39699 0.01423 0.0
C1306 C 0.43918 0.44505 0.01563 0.0
C1307 C 0.46707 0.42196 0.00983 0.0
N1308 N 0.48642 0.36382 1.00329 0.0
N1309 N 0.3772 0.45576 0.01689 0.0
C1310 C 0.45948 0.38588 0.00879 0.0
C1311 C 0.4039 0.43297 0.01587 0.0
N1312 N 0.41655 0.33829 0.01521 0.0
N1313 N 0.4465 0.47858 0.02101 0.0
H1314 H 0.3512 0.44777 0.01817 0.0
H1315 H 0.38067 0.48265 0.01464 0.0
H1316 H 0.4718 0.48774 0.02147 0.0
H1317 H 0.42778 0.4964 0.02785 0.0
H1318 H 0.43493 0.31923 0.01753 0.0
H1319 H 0.39122 0.32816 0.01712 0.0
H1320 H 0.48341 0.33822 0.99798 0.0
H1321 H 0.51232 0.37171 1.0031 0.0
C1322 C 0.97196 0.16362 0.02983 0.0
C1323 C 0.94918 0.14601 0.01276 0.0
C1324 C 0.98755 0.09537 0.01264 0.0
C1325 C 0.01113 0.11355 0.02861 0.0
N1326 N 0.02852 0.16745 0.04772 0.0
N1327 N 0.93746 0.09735 0.98391 0.0
C1328 C 1.00399 0.14834 0.03594 0.0
C1329 C 0.95778 0.1126 1.00283 0.0
N1330 N 0.9627 0.19492 0.04073 0.0
N1331 N 0.99241 0.06097 0.00848 0.0
H1332 H 0.91484 0.10846 0.9774 0.0
H1333 H 0.9442 0.07498 0.97287 0.0
H1334 H 0.01344 0.04738 0.01562 0.0
H1335 H 0.97431 0.04506 1.00024 0.0
H1336 H 0.9754 0.20688 0.05695 0.0
H1337 H 0.94086 0.20822 0.03505 0.0
H1338 H 0.02709 0.19408 0.0498 0.0
H1339 H 0.05201 0.1575 0.05311 0.0
C1340 C 0.04759 0.15134 0.26707 0.0
C1341 C 0.03478 0.18564 0.264 0.0
C1342 C 0.03137 0.18017 0.2083 0.0
C1343 C 0.04558 0.14653 0.21111 0.0
N1344 N 0.06247 0.09762 0.24314 0.0
N1345 N 0.01715 0.23419 0.23182 0.0
C1346 C 0.05226 0.13139 0.24057 0.0
C1347 C 0.02701 0.20032 0.23468 0.0
N1348 N 0.05672 0.13854 0.29512 0.0
N1349 N 0.02138 0.19242 0.18043 0.0
H1350 H 0.0134 0.24959 0.2506 0.0
H1351 H 0.01455 0.248 0.21074 0.0
H1352 H 0.02456 0.17849 0.16066 0.0
H1353 H 1.00776 0.21513 0.17713 0.0
H1354 H 0.06957 0.11542 0.29867 0.0
H1355 H 0.05296 0.15204 0.31509 0.0
H1356 H 0.06482 0.08346 0.26411 0.0
H1357 H 0.06668 0.08263 0.22411 0.0
C1358 C 0.034 0.35665 0.21195 0.0
C1359 C 0.02216 0.37026 0.24074 0.0
C1360 C 1.00037 0.42169 0.21352 0.0
C1361 C 0.01299 0.40841 0.18483 0.0
N1362 N 0.04746 0.36734 0.15597 0.0
N1363 N 0.99935 0.41745 0.26968 0.0
C1364 C 0.03174 0.37721 0.18383 0.0
C1365 C 1.00701 0.40343 0.24174 0.0
N1366 N 0.04552 0.32334 0.21144 0.0
N1367 N 0.98116 0.45112 0.2137 0.0
H1368 H 1.00322 0.40428 0.29081 0.0
H1369 H 0.99154 0.4429 0.27191 0.0
H1370 H 0.97691 0.46583 0.19338 0.0
H1371 H 0.96777 0.46003 0.23374 0.0
H1372 H 0.0503 0.31047 0.19119 0.0
H1373 H 0.04795 0.30735 0.2315 0.0
H1374 H 0.06481 0.34706 0.1541 0.0
H1375 H 0.04538 0.3811 0.13466 0.0
C1376 C 1.00434 0.79859 0.28652 0.0
C1377 C 0.01438 0.81285 0.25557 0.0
C1378 C 0.02616 0.86965 0.27349 0.0
C1379 C 0.01625 0.85537 0.30448 0.0
N1380 N 0.99013 0.80908 0.34094 0.0
N1381 N 0.0286 0.86219 0.21828 0.0
C1382 C 1.00336 0.82067 0.31112 0.0
C1383 C 0.02329 0.84857 0.24862 0.0
N1384 N 0.99687 0.76374 0.2923 0.0
N1385 N 0.03939 0.90293 0.26808 0.0
H1386 H 0.02751 0.84717 0.19945 0.0
H1387 H 0.03172 0.88865 0.21162 0.0
H1388 H 0.04035 0.9196 0.28576 0.0
H1389 H 0.05093 0.91364 0.24641 0.0
H1390 H 0.99332 0.75083 0.31446 0.0
H1391 H 0.99603 0.74703 0.27464 0.0
H1392 H 0.9772 0.78523 0.34693 0.0
H1393 H 0.98975 0.82442 0.3597 0.0
C1394 C 1.00911 0.64663 0.3099 0.0
C1395 C 0.99856 0.63023 0.28426 0.0
C1396 C 0.98541 0.57623 0.31881 0.0
C1397 C 0.99252 0.59372 0.34516 0.0
N1398 N 1.00541 0.64803 0.36592 0.0
N1399 N 0.9732 0.58031 0.26496 0.0
C1400 C 1.0031 0.62952 0.34066 0.0
C1401 C 0.98563 0.59528 0.28898 0.0
N1402 N 0.02528 0.67866 0.30488 0.0
N1403 N 0.98004 0.54097 0.32194 0.0
H1404 H 0.97422 0.59289 0.24268 0.0
H1405 H 0.95971 0.55652 0.26759 0.0
H1406 H 0.98092 0.52604 0.34291 0.0
H1407 H 0.97808 0.52603 0.30327 0.0
H1408 H 0.03742 0.6902 0.32169 0.0
H1409 H 0.02905 0.69268 0.28315 0.0
H1410 H 1.0086 0.67497 0.36446 0.0
H1411 H 1.00093 0.63706 0.38875 0.0
C1412 C 0.2472 0.01284 0.11703 0.0
C1413 C 0.24308 0.02836 0.14606 0.0
C1414 C 0.19799 0.06379 0.12697 0.0
C1415 C 0.19585 0.0435 0.1014 0.0
N1416 N 0.21819 0.99442 0.07427 0.0
N1417 N 0.20403 0.0598 0.18127 0.0
C1418 C 0.2205 0.01671 0.0968 0.0
C1419 C 0.21481 0.05061 0.152 0.0
N1420 N 0.27665 0.99527 0.10839 0.0
N1421 N 0.18575 0.0967 0.12673 0.0
H1422 H 0.21439 0.04908 0.20071 0.0
H1423 H 0.18231 0.07507 0.18611 0.0
H1424 H 0.17767 0.10917 0.10677 0.0
H1425 H 0.1885 0.11272 0.1446 0.0
H1426 H 0.28229 0.98617 0.08638 0.0
H1427 H 0.29666 0.99254 0.1223 0.0
H1428 H 0.23363 0.97266 0.07215 0.0
H1429 H 0.19919 0.99608 0.05934 0.0
C1430 C 0.82232 0.48641 0.0849 0.0
C1431 C 0.81714 0.516 0.10203 0.0
C1432 C 0.87015 0.54263 0.07217 0.0
C1433 C 0.88024 0.50915 0.06362 0.0
N1434 N 0.86476 0.44864 0.06088 0.0
N1435 N 0.82219 0.57802 0.09153 0.0
C1436 C 0.85582 0.48093 0.06928 0.0
C1437 C 0.83694 0.5463 0.0897 0.0
N1438 N 0.79454 0.46662 0.07979 0.0
N1439 N 0.89273 0.57039 0.06495 0.0
H1440 H 0.79614 0.58031 0.10066 0.0
H1441 H 0.83409 0.60098 0.08075 0.0
H1442 H 0.91665 0.56873 0.05116 0.0
H1443 H 0.88835 0.59444 0.07386 0.0
H1444 H 0.79676 0.44635 0.06519 0.0
H1445 H 0.76909 0.47396 0.08679 0.0
H1446 H 0.84842 0.42682 0.06708 0.0
H1447 H 0.88933 0.44343 0.04976 0.0
C1448 C 0.19228 0.96015 0.34938 0.0
C1449 C 0.20093 0.99578 0.34068 0.0
C1450 C 0.1546 0.0124 0.3808 0.0
C1451 C 0.14717 0.97675 0.39034 0.0
N1452 N 0.16385 0.91709 0.38853 0.0
N1453 N 0.19476 0.05575 0.35162 0.0
C1454 C 0.16767 0.9508 0.37609 0.0
C1455 C 0.18342 0.02192 0.35751 0.0
N1456 N 0.20652 0.93523 0.33133 0.0
N1457 N 0.13316 0.03707 0.39293 0.0
H1458 H 0.21531 0.06361 0.33447 0.0
H1459 H 0.1856 0.07555 0.3652 0.0
H1460 H 0.11251 0.03109 0.4105 0.0
H1461 H 0.13451 0.06308 0.38436 0.0
H1462 H 0.19838 0.90922 0.33438 0.0
H1463 H 0.22442 0.94093 0.31146 0.0
H1464 H 0.18016 0.89734 0.38121 0.0
H1465 H 0.14645 0.90952 0.40837 0.0
C1466 C 0.83811 0.4739 0.30847 0.0
C1467 C 0.80135 0.47354 0.31136 0.0
C1468 C 0.7975 0.47645 0.36772 0.0
C1469 C 0.83412 0.48035 0.3644 0.0
N1470 N 0.89 0.47319 0.33452 0.0
N1471 N 0.7466 0.46218 0.34353 0.0
C1472 C 0.8547 0.47552 0.33566 0.0
C1473 C 0.78119 0.47057 0.34107 0.0
N1474 N 0.85683 0.47475 0.27953 0.0
N1475 N 0.77845 0.48 0.39597 0.0
H1476 H 0.73478 0.45653 0.32424 0.0
H1477 H 0.73057 0.45741 0.36459 0.0
H1478 H 0.78998 0.48311 0.41607 0.0
H1479 H 0.75146 0.48109 0.3994 0.0
H1480 H 0.8836 0.47919 0.27512 0.0
H1481 H 0.8451 0.47203 0.25946 0.0
H1482 H 0.90639 0.46714 0.31491 0.0
H1483 H 0.90281 0.4747 0.35412 0.0
C1484 C 0.22047 0.1946 0.027 0.0
C1485 C 0.20582 0.22781 0.02266 0.0
C1486 C 0.14765 0.19974 0.02638 0.0
C1487 C 0.16164 0.16715 0.03488 0.0
N1488 N 0.2116 0.13367 0.04521 0.0
N1489 N 0.1546 0.26249 0.02194 0.0
C1490 C 0.1982 0.1646 0.03551 0.0
C1491 C 0.16914 0.23051 0.02331 0.0
N1492 N 0.25583 0.19173 0.02251 0.0
N1493 N 0.11422 0.20107 0.01966 0.0
H1494 H 0.1693 0.28557 0.01874 0.0
H1495 H 0.1279 0.26615 0.02612 0.0
H1496 H 0.09873 0.17875 0.01986 0.0
H1497 H 0.10331 0.22349 0.01053 0.0
H1498 H 0.26836 0.16809 0.02206 0.0
H1499 H 0.27276 0.21316 0.01653 0.0
H1500 H 0.23712 0.13094 0.04995 0.0
H1501 H 0.19654 0.11093 0.05067 0.0
C1502 C 0.15524 0.80439 0.45285 0.0
C1503 C 0.1745 0.81164 0.47767 0.0
C1504 C 0.12778 0.85006 0.49634 0.0
C1505 C 0.11259 0.84946 0.46818 0.0
N1506 N 0.11103 0.82137 0.42024 0.0
N1507 N 0.1816 0.84895 0.5187 0.0
C1508 C 0.12613 0.82535 0.44651 0.0
C1509 C 0.1615 0.83675 0.49806 0.0
N1510 N 0.16315 0.77612 0.43647 0.0
N1511 N 0.10928 0.8613 0.5224 0.0
H1512 H 0.20732 0.84173 0.51948 0.0
H1513 H 0.17393 0.86925 0.53233 0.0
H1514 H 0.08278 0.86627 0.52368 0.0
H1515 H 0.11876 0.86019 0.54389 0.0
H1516 H 0.14773 0.76702 0.4207 0.0
H1517 H 0.18334 0.75963 0.44062 0.0
H1518 H 0.12353 0.80985 0.40109 0.0
H1519 H 0.0857 0.82848 0.41781 0.0
C1520 C 0.87247 0.65525 0.50761 0.0
C1521 C 0.88088 0.69048 0.49742 0.0
C1522 C 0.93317 0.67247 0.46463 0.0
C1523 C 0.92454 0.63718 0.47476 0.0
N1524 N 0.89245 0.59638 0.51325 0.0
N1525 N 0.92255 0.73349 0.47159 0.0
C1526 C 0.8962 0.62908 0.49858 0.0
C1527 C 0.91244 0.69932 0.47768 0.0
N1528 N 0.84092 0.64642 0.52448 0.0
N1529 N 0.96006 0.68027 0.44151 0.0
H1530 H 0.90766 0.75356 0.48047 0.0
H1531 H 0.94674 0.74184 0.45997 0.0
H1532 H 0.97653 0.66149 0.4325 0.0
H1533 H 0.96508 0.70495 0.43021 0.0
H1534 H 0.83154 0.62087 0.5291 0.0
H1535 H 0.8228 0.66465 0.53193 0.0
H1536 H 0.87464 0.58976 0.53297 0.0
H1537 H 0.90975 0.57681 0.5078 0.0
C1538 C 0.36652 0.8506 0.52082 0.0
C1539 C 0.37922 0.81675 0.52605 0.0
C1540 C 0.43634 0.84152 0.53316 0.0
C1541 C 0.42303 0.87547 0.52956 0.0
N1542 N 0.37315 0.91195 0.52658 0.0
N1543 N 0.42411 0.77921 0.54143 0.0
C1544 C 0.38749 0.87989 0.52516 0.0
C1545 C 0.41353 0.81199 0.53361 0.0
N1546 N 0.3346 0.85485 0.51092 0.0
N1547 N 0.47107 0.83754 0.53474 0.0
H1548 H 0.4083 0.75712 0.54126 0.0
H1549 H 0.4474 0.77401 0.55025 0.0
H1550 H 0.48843 0.85853 0.53432 0.0
H1551 H 0.48323 0.81371 0.53409 0.0
H1552 H 0.32579 0.87875 0.50269 0.0
H1553 H 0.31772 0.83413 0.50876 0.0
H1554 H 0.34658 0.91609 0.52746 0.0
H1555 H 0.3872 0.93417 0.52992 0.0
C1556 C 0.54274 0.65633 0.79514 0.0
C1557 C 0.53031 0.69019 0.78819 0.0
C1558 C 0.51828 0.67344 0.7369 0.0
C1559 C 0.53318 0.64057 0.74285 0.0
N1560 N 0.56179 0.60105 0.77641 0.0
N1561 N 0.51097 0.73283 0.75103 0.0
C1562 C 0.54592 0.63209 0.77174 0.0
C1563 C 0.51916 0.69917 0.75872 0.0
N1564 N 0.55124 0.64736 0.82428 0.0
N1565 N 0.5031 0.67998 0.71034 0.0
H1566 H 0.51143 0.75236 0.76628 0.0
H1567 H 0.50644 0.74219 0.7288 0.0
H1568 H 0.50274 0.66216 0.69352 0.0
H1569 H 0.48847 0.70181 0.70603 0.0
H1570 H 0.55799 0.6225 0.83196 0.0
H1571 H 0.54973 0.66448 0.84178 0.0
H1572 H 0.57539 0.59453 0.79512 0.0
H1573 H 0.5628 0.58202 0.76055 0.0
C1574 C 0.53659 0.86284 0.72016 0.0
C1575 C 0.52599 0.87932 0.74776 0.0
C1576 C 0.50657 0.9297 0.71744 0.0
C1577 C 0.51781 0.91342 0.68991 0.0
N1578 N 0.5499 0.86867 0.66396 0.0
N1579 N 0.50644 0.93001 0.77331 0.0
C1580 C 0.53508 0.88137 0.69095 0.0
C1581 C 0.51279 0.91339 0.74657 0.0
N1582 N 0.54603 0.82878 0.72187 0.0
N1583 N 0.4889 0.96004 0.71568 0.0
H1584 H 0.51 0.9183 0.79511 0.0
H1585 H 0.50003 0.95606 0.77379 0.0
H1586 H 0.48521 0.97339 0.69455 0.0
H1587 H 0.47634 0.97115 0.73499 0.0
H1588 H 0.54982 0.81413 0.70264 0.0
H1589 H 0.54749 0.81405 0.74283 0.0
H1590 H 0.56608 0.84739 0.66343 0.0
H1591 H 0.54847 0.88111 0.64197 0.0
C1592 C 0.51038 0.37853 0.77809 0.0
C1593 C 0.49814 0.34408 0.78786 0.0
C1594 C 0.48188 0.3596 0.84094 0.0
C1595 C 0.49905 0.3921 0.83217 0.0
N1596 N 0.52565 0.43543 0.79337 0.0
N1597 N 0.47293 0.30065 0.8278 0.0
C1598 C 0.51139 0.40274 0.80078 0.0
C1599 C 0.48331 0.33442 0.81894 0.0
N1600 N 0.5216 0.38758 0.74731 0.0
N1601 N 0.46499 0.35275 0.87046 0.0
H1602 H 0.47352 0.28132 0.81229 0.0
H1603 H 0.4658 0.291 0.85081 0.0
H1604 H 0.46421 0.37056 0.88735 0.0
H1605 H 0.44922 0.3308 0.87755 0.0
H1606 H 0.52806 0.41281 0.73799 0.0
H1607 H 0.52335 0.36972 0.73043 0.0
H1608 H 0.53852 0.44425 0.77164 0.0
H1609 H 0.52484 0.45405 0.80963 0.0
C1610 C 0.49439 0.12161 0.78689 0.0
C1611 C 0.49717 0.15861 0.78515 0.0
C1612 C 0.49362 0.15559 0.84272 0.0
C1613 C 0.49327 0.11853 0.84439 0.0
N1614 N 0.49676 0.06618 0.81772 0.0
N1615 N 0.50415 0.21057 0.81115 0.0
C1616 C 0.49438 0.10155 0.81632 0.0
C1617 C 0.49815 0.17543 0.81304 0.0
N1618 N 0.49158 0.10562 0.76029 0.0
N1619 N 0.48784 0.17201 0.86962 0.0
H1620 H 0.50602 0.22616 0.79022 0.0
H1621 H 0.50962 0.22402 0.8299 0.0
H1622 H 0.48441 0.15876 0.89169 0.0
H1623 H 0.48349 0.19851 0.87013 0.0
H1624 H 0.48567 0.0793 0.75993 0.0
H1625 H 0.49305 0.1192 0.73841 0.0
H1626 H 0.50118 0.052 0.79825 0.0
H1627 H 0.49683 0.05093 0.83865 0.0
C1628 C 0.7013 0.52655 0.68222 0.0
C1629 C 0.72903 0.50564 0.67134 0.0
C1630 C 0.69597 0.49104 0.62889 0.0
C1631 C 0.67168 0.51728 0.63694 0.0
N1632 N 0.66537 0.57061 0.66274 0.0
N1633 N 0.75566 0.47295 0.6298 0.0
C1634 C 0.67808 0.53798 0.66142 0.0
C1635 C 0.7273 0.48918 0.6433 0.0
N1636 N 0.6983 0.53741 0.71158 0.0
N1637 N 0.6892 0.46737 0.60859 0.0
H1638 H 0.77903 0.4717 0.63935 0.0
H1639 H 0.75672 0.46344 0.60789 0.0
H1640 H 0.66621 0.46664 0.5986 0.0
H1641 H 0.70503 0.44625 0.60424 0.0
H1642 H 0.67728 0.55184 0.7204 0.0
H1643 H 0.71482 0.52904 0.72774 0.0
H1644 H 0.67104 0.58707 0.67949 0.0
H1645 H 0.65478 0.5829 0.644 0.0
C1646 C 0.31953 0.02528 0.59452 0.0
C1647 C 0.31509 1.00549 0.62394 0.0
C1648 C 0.36279 0.96914 0.60458 0.0
C1649 C 0.37271 0.99363 0.5786 0.0
N1650 N 0.35992 0.04689 0.54954 0.0
N1651 N 0.33741 0.96149 0.65838 0.0
C1652 C 0.3507 0.0221 0.57345 0.0
C1653 C 0.33808 0.97818 0.62935 0.0
N1654 N 0.29385 0.04674 0.58659 0.0
N1655 N 0.37619 0.93663 0.60522 0.0
H1656 H 0.32072 0.96812 0.67767 0.0
H1657 H 0.35596 0.94351 0.66383 0.0
H1658 H 0.39243 0.92811 0.58645 0.0
H1659 H 0.36771 0.91704 0.62256 0.0
H1660 H 0.29417 0.05939 0.56444 0.0
H1661 H 0.27077 0.04933 0.60134 0.0
H1662 H 0.34686 0.07015 0.5471 0.0
H1663 H 0.38183 0.04531 0.53326 0.0
C1664 C 0.70737 0.53431 0.87583 0.0
C1665 C 0.71175 0.51119 0.85163 0.0
C1666 C 0.66574 0.47339 0.88067 0.0
C1667 C 0.65709 0.49883 0.90214 0.0
N1668 N 0.6679 0.55622 0.91764 0.0
N1669 N 0.68696 0.46395 0.82754 0.0
C1670 C 0.6775 0.53012 0.89916 0.0
C1671 C 0.68842 0.48236 0.853 0.0
N1672 N 0.73215 0.55942 0.87724 0.0
N1673 N 0.65353 0.43994 0.88723 0.0
H1674 H 0.7016 0.47086 0.80602 0.0
H1675 H 0.6682 0.44445 0.82692 0.0
H1676 H 0.63931 0.4314 0.90849 0.0
H1677 H 0.66144 0.41997 0.8733 0.0
H1678 H 0.732 0.5748 0.89593 0.0
H1679 H 0.75449 0.56274 0.86109 0.0
H1680 H 0.67973 0.58088 0.91434 0.0
H1681 H 0.64636 0.55404 0.93474 0.0
C1682 C 0.30143 0.96401 0.84181 0.0
C1683 C 0.32404 0.9673 0.81336 0.0
C1684 C 0.37379 0.97509 0.84143 0.0
C1685 C 0.35015 0.98096 0.86813 0.0
N1686 N 0.29236 0.97741 0.89594 0.0
N1687 N 0.38166 0.96975 0.78555 0.0
C1688 C 0.31423 0.97336 0.86928 0.0
C1689 C 0.36043 0.96995 0.81317 0.0
N1690 N 0.26767 0.95318 0.84217 0.0
N1691 N 0.40877 0.97561 0.84312 0.0
H1692 H 0.37204 0.96446 0.76495 0.0
H1693 H 0.40825 0.97539 0.78279 0.0
H1694 H 0.41906 0.97967 0.86365 0.0
H1695 H 0.42742 0.96943 0.82511 0.0
H1696 H 0.2504 0.948 0.86246 0.0
H1697 H 0.2576 0.94671 0.82216 0.0
H1698 H 0.26536 0.97634 0.89738 0.0
H1699 H 0.3015 0.98316 0.91661 0.0
C1700 C 0.64754 0.70148 0.54904 0.0
C1701 C 0.68424 0.69723 0.54575 0.0
C1702 C 0.67443 0.63586 0.56625 0.0
C1703 C 0.63774 0.63951 0.56746 0.0
N1704 N 0.59013 0.67399 0.55347 0.0
N1705 N 0.73257 0.65903 0.54687 0.0
C1706 C 0.62452 0.67189 0.55712 0.0
C1707 C 0.69761 0.66397 0.55312 0.0
N1708 N 0.63452 0.73398 0.54519 0.0
N1709 N 0.68721 0.60571 0.57847 0.0
H1710 H 0.75021 0.67898 0.53754 0.0
H1711 H 0.74385 0.63477 0.54843 0.0
H1712 H 0.67136 0.58438 0.5876 0.0
H1713 H 0.71314 0.60266 0.58181 0.0
H1714 H 0.60836 0.7394 0.55088 0.0
H1715 H 0.65024 0.75605 0.5384 0.0
H1716 H 0.57935 0.69575 0.54303 0.0
H1717 H 0.57306 0.6526 0.55806 0.0
C1718 C 0.65324 0.3199 0.98275 0.0
C1719 C 0.68808 0.33285 0.98139 0.0
C1720 C 0.66798 0.39235 0.97199 0.0
C1721 C 0.63277 0.37991 0.9747 0.0
N1722 N 0.59138 0.33215 0.98506 0.0
N1723 N 0.72761 0.38166 0.98071 0.0
C1724 C 0.6253 0.34365 0.98051 0.0
C1725 C 0.6951 0.36914 0.97764 0.0
N1726 N 0.647 0.28481 0.98619 0.0
N1727 N 0.67592 0.42643 0.96267 0.0
H1728 H 0.7484 0.36567 0.98439 0.0
H1729 H 0.73339 0.40781 0.98237 0.0
H1730 H 0.65713 0.44442 0.95873 0.0
H1731 H 0.70115 0.43627 0.95605 0.0
H1732 H 0.62331 0.27295 0.98386 0.0
H1733 H 0.66625 0.26718 0.99048 0.0
H1734 H 0.58338 0.30667 0.99235 0.0
H1735 H 0.57069 0.34878 0.98302 0.0
C1736 C 0.41709 0.20745 1.00153 0.0
C1737 C 0.3859 0.21622 0.98912 0.0
C1738 C 0.39868 0.174 0.9503 0.0
C1739 C 0.42691 0.16153 0.96547 0.0
N1740 N 0.45666 0.16132 0.01139 0.0
N1741 N 0.34218 0.19953 0.95757 0.0
C1742 C 0.43455 0.17684 0.99273 0.0
C1743 C 0.37519 0.19693 0.96529 0.0
N1744 N 0.43073 0.22861 0.02093 0.0
N1745 N 0.39482 0.16505 0.92107 0.0
H1746 H 0.32334 0.21442 0.96932 0.0
H1747 H 0.33251 0.18372 0.94207 0.0
H1748 H 0.41291 0.15036 0.9082 0.0
H1749 H 0.37603 0.17583 0.90827 0.0
H1750 H 0.45514 0.22486 0.02814 0.0
H1751 H 0.41931 0.25171 0.02727 0.0
H1752 H 0.46041 0.17007 0.03287 0.0
H1753 H 0.468 0.13754 0.00742 0.0
C1754 C 0.93 0.32971 0.01091 0.0
C1755 C 0.89552 0.33486 1.00402 0.0
C1756 C 0.90593 0.39804 0.9991 0.0
C1757 C 0.93927 0.39319 0.0093 0.0
N1758 N 0.98286 0.3545 0.02582 0.0
N1759 N 0.8487 0.37335 0.9959 0.0
C1760 C 0.9512 0.35898 0.01552 0.0
C1761 C 0.88305 0.36887 0.99914 0.0
N1762 N 0.94268 0.29683 0.01224 0.0
N1763 N 0.89575 0.43043 0.98937 0.0
H1764 H 0.83116 0.35269 0.99542 0.0
H1765 H 0.83678 0.39733 0.99637 0.0
H1766 H 0.90943 0.45333 0.99137 0.0
H1767 H 0.87426 0.43462 0.97752 0.0
H1768 H 0.96858 0.29131 0.01395 0.0
H1769 H 0.92766 0.27489 0.00949 0.0
H1770 H 0.99133 0.33068 0.03457 0.0
H1771 H 1.00042 0.37502 0.02674 0.0
loop_
_geom_bond_atom_site_label_1
_geom_bond_atom_site_label_2
_geom_bond_distance
_geom_bond_site_symmetry_2
_ccdc_geom_bond_type
C0 C1 1.443 . S
C0 N4 1.376 . S
C0 C38 1.389 . S
C1 C0 1.443 . S
C1 C2 1.340 . S
C1 H41 0.951 . S
C2 C1 1.340 . S
C2 C3 1.439 . S
C2 H42 0.950 . S
C3 C2 1.439 . S
C3 N4 1.374 . S
C3 C37 1.395 . S
N4 C0 1.376 . S
N4 C3 1.374 . S
N4 Co5 2.008 1_655 S
Co5 N4 2.008 1_455 S
Co5 N6 1.995 1_455 S
Co5 N11 2.008 . S
Co5 N16 1.995 . S
Co5 N21 2.282 . S
Co5 N27 2.282 . S
N6 Co5 1.995 1_655 S
N6 C7 1.376 . S
N6 C10 1.383 . S
C7 N6 1.376 . S
C7 C8 1.446 . S
C7 C37 1.391 . S
C8 C7 1.446 . S
C8 C9 1.339 . S
C8 H43 0.949 . S
C9 C8 1.339 . S
C9 C10 1.439 . S
C9 H44 0.950 . S
C10 N6 1.383 . S
C10 C9 1.439 . S
C10 C39 1.392 1_655 S
N11 Co5 2.008 . S
N11 C12 1.376 . S
N11 C15 1.374 . S
C12 N11 1.376 . S
C12 C13 1.443 . S
C12 C39 1.389 . S
C13 C12 1.443 . S
C13 C14 1.340 . S
C13 H45 0.951 . S
C14 C13 1.340 . S
C14 C15 1.439 . S
C14 H46 0.950 . S
C15 N11 1.374 . S
C15 C14 1.439 . S
C15 C40 1.395 . S
N16 Co5 1.995 . S
N16 C17 1.376 . S
N16 C20 1.383 . S
C17 N16 1.376 . S
C17 C18 1.446 . S
C17 C40 1.391 . S
C18 C17 1.446 . S
C18 C19 1.339 . S
C18 H47 0.949 . S
C19 C18 1.339 . S
C19 C20 1.439 . S
C19 H48 0.950 . S
C20 N16 1.383 . S
C20 C19 1.439 . S
C20 C38 1.392 1_455 S
N21 Co5 2.282 . S
N21 C24 1.332 . S
N21 C26 1.332 1_455 S
C22 C23 1.386 . S
C22 C25 1.388 1_455 S
C23 C22 1.386 . S
C23 C24 1.382 . S
C23 H49 0.950 . S
C24 N21 1.332 . S
C24 C23 1.382 . S
C24 H35 0.952 . S
C25 C22 1.388 1_655 S
C25 C26 1.382 . S
C25 H50 0.950 . S
C26 N21 1.332 1_655 S
C26 C25 1.382 . S
C26 H36 0.948 . S
N27 Co5 2.282 . S
N27 C31 1.332 1_455 S
N27 C32 1.332 . S
C28 C29 1.388 1_455 S
C28 C32 1.382 . S
C28 H51 0.950 . S
C29 C28 1.388 1_655 S
C29 C30 1.386 . S
C30 C29 1.386 . S
C30 C31 1.382 . S
C30 H52 0.950 . S
C31 N27 1.332 1_655 S
C31 C30 1.382 . S
C31 H33 0.952 . S
C32 N27 1.332 . S
C32 C28 1.382 . S
C32 H34 0.948 . S
H33 C31 0.952 . S
H34 C32 0.948 . S
H35 C24 0.952 . S
H36 C26 0.948 . S
C37 C3 1.395 . S
C37 C7 1.391 . S
C38 C0 1.389 . S
C38 C20 1.392 1_655 S
C39 C10 1.392 1_455 S
C39 C12 1.389 . S
C40 C15 1.395 . S
C40 C17 1.391 . S
H41 C1 0.951 . S
H42 C2 0.950 . S
H43 C8 0.949 . S
H44 C9 0.950 . S
H45 C13 0.951 . S
H46 C14 0.950 . S
H47 C18 0.949 . S
H48 C19 0.950 . S
H49 C23 0.950 . S
H50 C25 0.950 . S
H51 C28 0.950 . S
H52 C30 0.950 . S
C53 C54 1.443 . S
C53 N57 1.376 . S
C53 C91 1.389 1_655 S
C54 C53 1.443 . S
C54 C55 1.340 . S
C54 H94 0.951 . S
C55 C54 1.340 . S
C55 C56 1.439 . S
C55 H95 0.950 . S
C56 C55 1.439 . S
C56 N57 1.374 . S
C56 C90 1.395 . S
N57 C53 1.376 . S
N57 C56 1.374 . S
N57 Co58 2.008 1_655 S
Co58 N57 2.008 1_455 S
Co58 N59 1.995 1_455 S
Co58 N64 2.008 . S
Co58 N69 1.995 . S
Co58 N74 2.282 . S
Co58 N80 2.282 . S
N59 Co58 1.995 1_655 S
N59 C60 1.376 . S
N59 C63 1.383 . S
C60 N59 1.376 . S
C60 C61 1.446 . S
C60 C90 1.391 . S
C61 C60 1.446 . S
C61 C62 1.339 . S
C61 H96 0.949 . S
C62 C61 1.339 . S
C62 C63 1.439 . S
C62 H97 0.950 . S
C63 N59 1.383 . S
C63 C62 1.439 . S
C63 C92 1.392 1_655 S
N64 Co58 2.008 . S
N64 C65 1.376 . S
N64 C68 1.374 . S
C65 N64 1.376 . S
C65 C66 1.443 . S
C65 C92 1.389 . S
C66 C65 1.443 . S
C66 C67 1.340 . S
C66 H98 0.951 . S
C67 C66 1.340 . S
C67 C68 1.439 . S
C67 H99 0.950 . S
C68 N64 1.374 . S
C68 C67 1.439 . S
C68 C93 1.395 . S
N69 Co58 1.995 . S
N69 C70 1.376 . S
N69 C73 1.383 . S
C70 N69 1.376 . S
C70 C71 1.446 . S
C70 C93 1.391 . S
C71 C70 1.446 . S
C71 C72 1.339 . S
C71 H100 0.949 . S
C72 C71 1.339 . S
C72 C73 1.439 . S
C72 H101 0.950 . S
C73 N69 1.383 . S
C73 C72 1.439 . S
C73 C91 1.392 . S
N74 Co58 2.282 . S
N74 C77 1.332 . S
N74 C79 1.332 . S
C75 C76 1.386 . S
C75 C78 1.388 . S
C76 C75 1.386 . S
C76 C77 1.382 . S
C76 H102 0.950 . S
C77 N74 1.332 . S
C77 C76 1.382 . S
C77 H88 0.952 . S
C78 C75 1.388 . S
C78 C79 1.382 . S
C78 H103 0.950 1_455 S
C79 N74 1.332 . S
C79 C78 1.382 . S
C79 H89 0.948 1_455 S
N80 Co58 2.282 . S
N80 C84 1.332 1_455 S
N80 C85 1.332 . S
C81 C82 1.388 1_455 S
C81 C85 1.382 . S
C81 H104 0.950 . S
C82 C81 1.388 1_655 S
C82 C83 1.386 . S
C83 C82 1.386 . S
C83 C84 1.382 . S
C83 H105 0.950 . S
C84 N80 1.332 1_655 S
C84 C83 1.382 . S
C84 H86 0.952 . S
C85 N80 1.332 . S
C85 C81 1.382 . S
C85 H87 0.948 . S
H86 C84 0.952 . S
H87 C85 0.948 . S
H88 C77 0.952 . S
H89 C79 0.948 1_655 S
C90 C56 1.395 . S
C90 C60 1.391 . S
C91 C53 1.389 1_455 S
C91 C73 1.392 . S
C92 C63 1.392 1_455 S
C92 C65 1.389 . S
C93 C68 1.395 . S
C93 C70 1.391 . S
H94 C54 0.951 . S
H95 C55 0.950 . S
H96 C61 0.949 . S
H97 C62 0.950 . S
H98 C66 0.951 . S
H99 C67 0.950 . S
H100 C71 0.949 . S
H101 C72 0.950 . S
H102 C76 0.950 . S
H103 C78 0.950 1_655 S
H104 C81 0.950 . S
H105 C83 0.950 . S
C106 C107 1.443 . S
C106 N110 1.376 . S
C106 C144 1.389 . S
C107 C106 1.443 . S
C107 C108 1.340 . S
C107 H147 0.951 . S
C108 C107 1.340 . S
C108 C109 1.439 . S
C108 H148 0.950 . S
C109 C108 1.439 . S
C109 N110 1.374 . S
C109 C143 1.395 . S
N110 C106 1.376 . S
N110 C109 1.374 . S
N110 Co111 2.008 1_565 S
Co111 N110 2.008 1_545 S
Co111 N112 1.995 1_545 S
Co111 N117 2.008 . S
Co111 N122 1.995 . S
Co111 N127 2.282 . S
Co111 N133 2.282 . S
N112 Co111 1.995 1_565 S
N112 C113 1.376 . S
N112 C116 1.383 . S
C113 N112 1.376 . S
C113 C114 1.446 . S
C113 C143 1.391 . S
C114 C113 1.446 . S
C114 C115 1.339 . S
C114 H149 0.949 . S
C115 C114 1.339 . S
C115 C116 1.439 . S
C115 H150 0.950 . S
C116 N112 1.383 . S
C116 C115 1.439 . S
C116 C145 1.392 1_565 S
N117 Co111 2.008 . S
N117 C118 1.376 . S
N117 C121 1.374 . S
C118 N117 1.376 . S
C118 C119 1.443 . S
C118 C145 1.389 . S
C119 C118 1.443 . S
C119 C120 1.340 . S
C119 H151 0.951 . S
C120 C119 1.340 . S
C120 C121 1.439 . S
C120 H152 0.950 . S
C121 N117 1.374 . S
C121 C120 1.439 . S
C121 C146 1.395 . S
N122 Co111 1.995 . S
N122 C123 1.376 . S
N122 C126 1.383 . S
C123 N122 1.376 . S
C123 C124 1.446 . S
C123 C146 1.391 . S
C124 C123 1.446 . S
C124 C125 1.339 . S
C124 H153 0.949 . S
C125 C124 1.339 . S
C125 C126 1.439 . S
C125 H154 0.950 . S
C126 N122 1.383 . S
C126 C125 1.439 . S
C126 C144 1.392 1_545 S
N127 Co111 2.282 . S
N127 C130 1.332 . S
N127 C132 1.332 . S
C128 C129 1.386 . S
C128 C131 1.388 . S
C129 C128 1.386 . S
C129 C130 1.382 . S
C129 H155 0.950 . S
C130 N127 1.332 . S
C130 C129 1.382 . S
C130 H141 0.952 . S
C131 C128 1.388 . S
C131 C132 1.382 . S
C131 H156 0.950 1_545 S
C132 N127 1.332 . S
C132 C131 1.382 . S
C132 H142 0.948 1_545 S
N133 Co111 2.282 . S
N133 C137 1.332 1_545 S
N133 C138 1.332 . S
C134 C135 1.388 1_545 S
C134 C138 1.382 . S
C134 H157 0.950 . S
C135 C134 1.388 1_565 S
C135 C136 1.386 . S
C136 C135 1.386 . S
C136 C137 1.382 . S
C136 H158 0.950 . S
C137 N133 1.332 1_565 S
C137 C136 1.382 . S
C137 H139 0.952 . S
C138 N133 1.332 . S
C138 C134 1.382 . S
C138 H140 0.948 . S
H139 C137 0.952 . S
H140 C138 0.948 . S
H141 C130 0.952 . S
H142 C132 0.948 1_565 S
C143 C109 1.395 . S
C143 C113 1.391 . S
C144 C106 1.389 . S
C144 C126 1.392 1_565 S
C145 C116 1.392 1_545 S
C145 C118 1.389 . S
C146 C121 1.395 . S
C146 C123 1.391 . S
H147 C107 0.951 . S
H148 C108 0.950 . S
H149 C114 0.949 . S
H150 C115 0.950 . S
H151 C119 0.951 . S
H152 C120 0.950 . S
H153 C124 0.949 . S
H154 C125 0.950 . S
H155 C129 0.950 . S
H156 C131 0.950 1_565 S
H157 C134 0.950 . S
H158 C136 0.950 . S
C159 C160 1.443 . S
C159 N163 1.376 . S
C159 C197 1.389 . S
C160 C159 1.443 . S
C160 C161 1.340 . S
C160 H200 0.951 . S
C161 C160 1.340 . S
C161 C162 1.439 . S
C161 H201 0.950 . S
C162 C161 1.439 . S
C162 N163 1.374 . S
C162 C196 1.395 . S
N163 C159 1.376 . S
N163 C162 1.374 . S
N163 Co164 2.008 . S
Co164 N163 2.008 . S
Co164 N165 1.995 . S
Co164 N170 2.008 . S
Co164 N175 1.995 . S
Co164 N180 2.282 . S
Co164 N186 2.282 . S
N165 Co164 1.995 . S
N165 C166 1.376 . S
N165 C169 1.383 . S
C166 N165 1.376 . S
C166 C167 1.446 . S
C166 C196 1.391 . S
C167 C166 1.446 . S
C167 C168 1.339 . S
C167 H202 0.949 . S
C168 C167 1.339 . S
C168 C169 1.439 . S
C168 H203 0.950 . S
C169 N165 1.383 . S
C169 C168 1.439 . S
C169 C198 1.392 . S
N170 Co164 2.008 . S
N170 C171 1.376 . S
N170 C174 1.374 . S
C171 N170 1.376 . S
C171 C172 1.443 . S
C171 C198 1.389 . S
C172 C171 1.443 . S
C172 C173 1.340 . S
C172 H204 0.951 . S
C173 C172 1.340 . S
C173 C174 1.439 . S
C173 H205 0.950 . S
C174 N170 1.374 . S
C174 C173 1.439 . S
C174 C199 1.395 . S
N175 Co164 1.995 . S
N175 C176 1.376 . S
N175 C179 1.383 . S
C176 N175 1.376 . S
C176 C177 1.446 . S
C176 C199 1.391 . S
C177 C176 1.446 . S
C177 C178 1.339 . S
C177 H206 0.949 . S
C178 C177 1.339 . S
C178 C179 1.439 . S
C178 H207 0.950 . S
C179 N175 1.383 . S
C179 C178 1.439 . S
C179 C197 1.392 . S
N180 Co164 2.282 . S
N180 C183 1.332 . S
N180 C185 1.332 . S
C181 C182 1.386 . S
C181 C184 1.388 . S
C182 C181 1.386 . S
C182 C183 1.382 . S
C182 H208 0.950 . S
C183 N180 1.332 . S
C183 C182 1.382 . S
C183 H194 0.952 . S
C184 C181 1.388 . S
C184 C185 1.382 . S
C184 H209 0.950 . S
C185 N180 1.332 . S
C185 C184 1.382 . S
C185 H195 0.948 . S
N186 Co164 2.282 . S
N186 C190 1.332 . S
N186 C191 1.332 . S
C187 C188 1.388 . S
C187 C191 1.382 . S
C187 H210 0.950 . S
C188 C187 1.388 . S
C188 C189 1.386 . S
C189 C188 1.386 . S
C189 C190 1.382 . S
C189 H211 0.950 . S
C190 N186 1.332 . S
C190 C189 1.382 . S
C190 H192 0.952 . S
C191 N186 1.332 . S
C191 C187 1.382 . S
C191 H193 0.948 . S
H192 C190 0.952 . S
H193 C191 0.948 . S
H194 C183 0.952 . S
H195 C185 0.948 . S
C196 C162 1.395 . S
C196 C166 1.391 . S
C197 C159 1.389 . S
C197 C179 1.392 . S
C198 C169 1.392 . S
C198 C171 1.389 . S
C199 C174 1.395 . S
C199 C176 1.391 . S
H200 C160 0.951 . S
H201 C161 0.950 . S
H202 C167 0.949 . S
H203 C168 0.950 . S
H204 C172 0.951 . S
H205 C173 0.950 . S
H206 C177 0.949 . S
H207 C178 0.950 . S
H208 C182 0.950 . S
H209 C184 0.950 . S
H210 C187 0.950 . S
H211 C189 0.950 . S
C212 C213 1.443 . S
C212 N216 1.376 . S
C212 C250 1.389 . S
C213 C212 1.443 . S
C213 C214 1.340 . S
C213 H253 0.951 . S
C214 C213 1.340 . S
C214 C215 1.439 . S
C214 H254 0.950 . S
C215 C214 1.439 . S
C215 N216 1.374 . S
C215 C249 1.395 . S
N216 C212 1.376 . S
N216 C215 1.374 . S
N216 Co217 2.008 1_556 S
Co217 N216 2.008 1_554 S
Co217 N218 1.995 1_554 S
Co217 N223 2.008 . S
Co217 N228 1.995 . S
Co217 N233 2.282 . S
Co217 N239 2.282 1_554 S
N218 Co217 1.995 1_556 S
N218 C219 1.376 . S
N218 C222 1.383 . S
C219 N218 1.376 . S
C219 C220 1.446 . S
C219 C249 1.391 . S
C220 C219 1.446 . S
C220 C221 1.339 . S
C220 H255 0.949 . S
C221 C220 1.339 . S
C221 C222 1.439 . S
C221 H256 0.950 . S
C222 N218 1.383 . S
C222 C221 1.439 . S
C222 C251 1.392 1_556 S
N223 Co217 2.008 . S
N223 C224 1.376 . S
N223 C227 1.374 . S
C224 N223 1.376 . S
C224 C225 1.443 . S
C224 C251 1.389 . S
C225 C224 1.443 . S
C225 C226 1.340 . S
C225 H257 0.951 . S
C226 C225 1.340 . S
C226 C227 1.439 . S
C226 H258 0.950 . S
C227 N223 1.374 . S
C227 C226 1.439 . S
C227 C252 1.395 . S
N228 Co217 1.995 . S
N228 C229 1.376 . S
N228 C232 1.383 . S
C229 N228 1.376 . S
C229 C230 1.446 . S
C229 C252 1.391 . S
C230 C229 1.446 . S
C230 C231 1.339 . S
C230 H259 0.949 . S
C231 C230 1.339 . S
C231 C232 1.439 . S
C231 H260 0.950 . S
C232 N228 1.383 . S
C232 C231 1.439 . S
C232 C250 1.392 1_554 S
N233 Co217 2.282 . S
N233 C236 1.332 . S
N233 C238 1.332 1_554 S
C234 C235 1.386 . S
C234 C237 1.388 1_554 S
C235 C234 1.386 . S
C235 C236 1.382 . S
C235 H261 0.950 . S
C236 N233 1.332 . S
C236 C235 1.382 . S
C236 H247 0.952 . S
C237 C234 1.388 1_556 S
C237 C238 1.382 . S
C237 H262 0.950 . S
C238 N233 1.332 1_556 S
C238 C237 1.382 . S
C238 H248 0.948 . S
N239 Co217 2.282 1_556 S
N239 C243 1.332 . S
N239 C244 1.332 1_556 S
C240 C241 1.388 1_554 S
C240 C244 1.382 . S
C240 H263 0.950 . S
C241 C240 1.388 1_556 S
C241 C242 1.386 . S
C242 C241 1.386 . S
C242 C243 1.382 . S
C242 H264 0.950 . S
C243 N239 1.332 . S
C243 C242 1.382 . S
C243 H245 0.952 . S
C244 N239 1.332 1_554 S
C244 C240 1.382 . S
C244 H246 0.948 . S
H245 C243 0.952 . S
H246 C244 0.948 . S
H247 C236 0.952 . S
H248 C238 0.948 . S
C249 C215 1.395 . S
C249 C219 1.391 . S
C250 C212 1.389 . S
C250 C232 1.392 1_556 S
C251 C222 1.392 1_554 S
C251 C224 1.389 . S
C252 C227 1.395 . S
C252 C229 1.391 . S
H253 C213 0.951 . S
H254 C214 0.950 . S
H255 C220 0.949 . S
H256 C221 0.950 . S
H257 C225 0.951 . S
H258 C226 0.950 . S
H259 C230 0.949 . S
H260 C231 0.950 . S
H261 C235 0.950 . S
H262 C237 0.950 . S
H263 C240 0.950 . S
H264 C242 0.950 . S
C265 C266 1.443 . S
C265 N269 1.376 . S
C265 C303 1.389 . S
C266 C265 1.443 . S
C266 C267 1.340 . S
C266 H306 0.951 . S
C267 C266 1.340 . S
C267 C268 1.439 . S
C267 H307 0.950 . S
C268 C267 1.439 . S
C268 N269 1.374 . S
C268 C302 1.395 . S
N269 C265 1.376 . S
N269 C268 1.374 . S
N269 Co270 2.008 . S
Co270 N269 2.008 . S
Co270 N271 1.995 . S
Co270 N276 2.008 . S
Co270 N281 1.995 . S
Co270 N286 2.282 . S
Co270 N292 2.282 . S
N271 Co270 1.995 . S
N271 C272 1.376 . S
N271 C275 1.383 . S
C272 N271 1.376 . S
C272 C273 1.446 . S
C272 C302 1.391 . S
C273 C272 1.446 . S
C273 C274 1.339 . S
C273 H308 0.949 . S
C274 C273 1.339 . S
C274 C275 1.439 . S
C274 H309 0.950 . S
C275 N271 1.383 . S
C275 C274 1.439 . S
C275 C304 1.392 . S
N276 Co270 2.008 . S
N276 C277 1.376 . S
N276 C280 1.374 . S
C277 N276 1.376 . S
C277 C278 1.443 . S
C277 C304 1.389 . S
C278 C277 1.443 . S
C278 C279 1.340 . S
C278 H310 0.951 . S
C279 C278 1.340 . S
C279 C280 1.439 . S
C279 H311 0.950 . S
C280 N276 1.374 . S
C280 C279 1.439 . S
C280 C305 1.395 . S
N281 Co270 1.995 . S
N281 C282 1.376 . S
N281 C285 1.383 . S
C282 N281 1.376 . S
C282 C283 1.446 . S
C282 C305 1.391 . S
C283 C282 1.446 . S
C283 C284 1.339 . S
C283 H312 0.949 . S
C284 C283 1.339 . S
C284 C285 1.439 . S
C284 H313 0.950 . S
C285 N281 1.383 . S
C285 C284 1.439 . S
C285 C303 1.392 . S
N286 Co270 2.282 . S
N286 C289 1.332 . S
N286 C291 1.332 . S
C287 C288 1.386 . S
C287 C290 1.388 . S
C288 C287 1.386 . S
C288 C289 1.382 . S
C288 H314 0.950 . S
C289 N286 1.332 . S
C289 C288 1.382 . S
C289 H300 0.952 . S
C290 C287 1.388 . S
C290 C291 1.382 . S
C290 H315 0.950 . S
C291 N286 1.332 . S
C291 C290 1.382 . S
C291 H301 0.948 . S
N292 Co270 2.282 . S
N292 C296 1.332 . S
N292 C297 1.332 . S
C293 C294 1.388 . S
C293 C297 1.382 . S
C293 H316 0.950 . S
C294 C293 1.388 . S
C294 C295 1.386 . S
C295 C294 1.386 . S
C295 C296 1.382 . S
C295 H317 0.950 . S
C296 N292 1.332 . S
C296 C295 1.382 . S
C296 H298 0.952 . S
C297 N292 1.332 . S
C297 C293 1.382 . S
C297 H299 0.948 . S
H298 C296 0.952 . S
H299 C297 0.948 . S
H300 C289 0.952 . S
H301 C291 0.948 . S
C302 C268 1.395 . S
C302 C272 1.391 . S
C303 C265 1.389 . S
C303 C285 1.392 . S
C304 C275 1.392 . S
C304 C277 1.389 . S
C305 C280 1.395 . S
C305 C282 1.391 . S
H306 C266 0.951 . S
H307 C267 0.950 . S
H308 C273 0.949 . S
H309 C274 0.950 . S
H310 C278 0.951 . S
H311 C279 0.950 . S
H312 C283 0.949 . S
H313 C284 0.950 . S
H314 C288 0.950 . S
H315 C290 0.950 . S
H316 C293 0.950 . S
H317 C295 0.950 . S
C318 C319 1.443 . S
C318 N322 1.376 . S
C318 C356 1.389 . S
C319 C318 1.443 . S
C319 C320 1.340 . S
C319 H359 0.951 . S
C320 C319 1.340 . S
C320 C321 1.439 . S
C320 H360 0.950 . S
C321 C320 1.439 . S
C321 N322 1.374 . S
C321 C355 1.395 . S
N322 C318 1.376 . S
N322 C321 1.374 . S
N322 Co323 2.008 . S
Co323 N322 2.008 . S
Co323 N324 1.995 . S
Co323 N329 2.008 . S
Co323 N334 1.995 . S
Co323 N339 2.282 . S
Co323 N345 2.282 . S
N324 Co323 1.995 . S
N324 C325 1.376 . S
N324 C328 1.383 . S
C325 N324 1.376 . S
C325 C326 1.446 . S
C325 C355 1.391 . S
C326 C325 1.446 . S
C326 C327 1.339 . S
C326 H361 0.949 . S
C327 C326 1.339 . S
C327 C328 1.439 . S
C327 H362 0.950 . S
C328 N324 1.383 . S
C328 C327 1.439 . S
C328 C357 1.392 . S
N329 Co323 2.008 . S
N329 C330 1.376 . S
N329 C333 1.374 . S
C330 N329 1.376 . S
C330 C331 1.443 . S
C330 C357 1.389 . S
C331 C330 1.443 . S
C331 C332 1.340 . S
C331 H363 0.951 . S
C332 C331 1.340 . S
C332 C333 1.439 . S
C332 H364 0.950 . S
C333 N329 1.374 . S
C333 C332 1.439 . S
C333 C358 1.395 . S
N334 Co323 1.995 . S
N334 C335 1.376 . S
N334 C338 1.383 . S
C335 N334 1.376 . S
C335 C336 1.446 . S
C335 C358 1.391 . S
C336 C335 1.446 . S
C336 C337 1.339 . S
C336 H365 0.949 . S
C337 C336 1.339 . S
C337 C338 1.439 . S
C337 H366 0.950 . S
C338 N334 1.383 . S
C338 C337 1.439 . S
C338 C356 1.392 . S
N339 Co323 2.282 . S
N339 C342 1.332 . S
N339 C344 1.332 . S
C340 C341 1.386 . S
C340 C343 1.388 . S
C341 C340 1.386 . S
C341 C342 1.382 . S
C341 H367 0.950 . S
C342 N339 1.332 . S
C342 C341 1.382 . S
C342 H353 0.952 . S
C343 C340 1.388 . S
C343 C344 1.382 . S
C343 H368 0.950 . S
C344 N339 1.332 . S
C344 C343 1.382 . S
C344 H354 0.948 . S
N345 Co323 2.282 . S
N345 C349 1.332 . S
N345 C350 1.332 . S
C346 C347 1.388 . S
C346 C350 1.382 . S
C346 H369 0.950 . S
C347 C346 1.388 . S
C347 C348 1.386 . S
C348 C347 1.386 . S
C348 C349 1.382 . S
C348 H370 0.950 . S
C349 N345 1.332 . S
C349 C348 1.382 . S
C349 H351 0.952 . S
C350 N345 1.332 . S
C350 C346 1.382 . S
C350 H352 0.948 . S
H351 C349 0.952 . S
H352 C350 0.948 . S
H353 C342 0.952 . S
H354 C344 0.948 . S
C355 C321 1.395 . S
C355 C325 1.391 . S
C356 C318 1.389 . S
C356 C338 1.392 . S
C357 C328 1.392 . S
C357 C330 1.389 . S
C358 C333 1.395 . S
C358 C335 1.391 . S
H359 C319 0.951 . S
H360 C320 0.950 . S
H361 C326 0.949 . S
H362 C327 0.950 . S
H363 C331 0.951 . S
H364 C332 0.950 . S
H365 C336 0.949 . S
H366 C337 0.950 . S
H367 C341 0.950 . S
H368 C343 0.950 . S
H369 C346 0.950 . S
H370 C348 0.950 . S
C371 C372 1.443 . S
C371 N375 1.376 . S
C371 C409 1.389 . S
C372 C371 1.443 . S
C372 C373 1.340 . S
C372 H412 0.951 . S
C373 C372 1.340 . S
C373 C374 1.439 . S
C373 H413 0.950 . S
C374 C373 1.439 . S
C374 N375 1.374 . S
C374 C408 1.395 . S
N375 C371 1.376 . S
N375 C374 1.374 . S
N375 Co376 2.008 . S
Co376 N375 2.008 . S
Co376 N377 1.995 . S
Co376 N382 2.008 . S
Co376 N387 1.995 . S
Co376 N392 2.282 . S
Co376 N398 2.282 . S
N377 Co376 1.995 . S
N377 C378 1.376 . S
N377 C381 1.383 . S
C378 N377 1.376 . S
C378 C379 1.446 . S
C378 C408 1.391 . S
C379 C378 1.446 . S
C379 C380 1.339 . S
C379 H414 0.949 . S
C380 C379 1.339 . S
C380 C381 1.439 . S
C380 H415 0.950 . S
C381 N377 1.383 . S
C381 C380 1.439 . S
C381 C410 1.392 . S
N382 Co376 2.008 . S
N382 C383 1.376 . S
N382 C386 1.374 . S
C383 N382 1.376 . S
C383 C384 1.443 . S
C383 C410 1.389 . S
C384 C383 1.443 . S
C384 C385 1.340 . S
C384 H416 0.951 . S
C385 C384 1.340 . S
C385 C386 1.439 . S
C385 H417 0.950 . S
C386 N382 1.374 . S
C386 C385 1.439 . S
C386 C411 1.395 . S
N387 Co376 1.995 . S
N387 C388 1.376 . S
N387 C391 1.383 . S
C388 N387 1.376 . S
C388 C389 1.446 . S
C388 C411 1.391 . S
C389 C388 1.446 . S
C389 C390 1.339 . S
C389 H418 0.949 . S
C390 C389 1.339 . S
C390 C391 1.439 . S
C390 H419 0.950 . S
C391 N387 1.383 . S
C391 C390 1.439 . S
C391 C409 1.392 . S
N392 Co376 2.282 . S
N392 C395 1.332 . S
N392 C397 1.332 . S
C393 C394 1.386 . S
C393 C396 1.388 . S
C394 C393 1.386 . S
C394 C395 1.382 . S
C394 H420 0.950 . S
C395 N392 1.332 . S
C395 C394 1.382 . S
C395 H406 0.952 . S
C396 C393 1.388 . S
C396 C397 1.382 . S
C396 H421 0.950 . S
C397 N392 1.332 . S
C397 C396 1.382 . S
C397 H407 0.948 . S
N398 Co376 2.282 . S
N398 C402 1.332 . S
N398 C403 1.332 . S
C399 C400 1.388 . S
C399 C403 1.382 . S
C399 H422 0.950 . S
C400 C399 1.388 . S
C400 C401 1.386 . S
C401 C400 1.386 . S
C401 C402 1.382 . S
C401 H423 0.950 . S
C402 N398 1.332 . S
C402 C401 1.382 . S
C402 H404 0.952 . S
C403 N398 1.332 . S
C403 C399 1.382 . S
C403 H405 0.948 . S
H404 C402 0.952 . S
H405 C403 0.948 . S
H406 C395 0.952 . S
H407 C397 0.948 . S
C408 C374 1.395 . S
C408 C378 1.391 . S
C409 C371 1.389 . S
C409 C391 1.392 . S
C410 C381 1.392 . S
C410 C383 1.389 . S
C411 C386 1.395 . S
C411 C388 1.391 . S
H412 C372 0.951 . S
H413 C373 0.950 . S
H414 C379 0.949 . S
H415 C380 0.950 . S
H416 C384 0.951 . S
H417 C385 0.950 . S
H418 C389 0.949 . S
H419 C390 0.950 . S
H420 C394 0.950 . S
H421 C396 0.950 . S
H422 C399 0.950 . S
H423 C401 0.950 . S
C424 C425 1.443 . S
C424 N428 1.376 . S
C424 C462 1.389 . S
C425 C424 1.443 . S
C425 C426 1.340 . S
C425 H465 0.951 . S
C426 C425 1.340 . S
C426 C427 1.439 . S
C426 H466 0.950 . S
C427 C426 1.439 . S
C427 N428 1.374 . S
C427 C461 1.395 . S
N428 C424 1.376 . S
N428 C427 1.374 . S
N428 Co429 2.008 . S
Co429 N428 2.008 . S
Co429 N430 1.995 . S
Co429 N435 2.008 . S
Co429 N440 1.995 . S
Co429 N445 2.282 . S
Co429 N451 2.282 . S
N430 Co429 1.995 . S
N430 C431 1.376 . S
N430 C434 1.383 . S
C431 N430 1.376 . S
C431 C432 1.446 . S
C431 C461 1.391 . S
C432 C431 1.446 . S
C432 C433 1.339 . S
C432 H467 0.949 . S
C433 C432 1.339 . S
C433 C434 1.439 . S
C433 H468 0.950 . S
C434 N430 1.383 . S
C434 C433 1.439 . S
C434 C463 1.392 . S
N435 Co429 2.008 . S
N435 C436 1.376 . S
N435 C439 1.374 . S
C436 N435 1.376 . S
C436 C437 1.443 . S
C436 C463 1.389 . S
C437 C436 1.443 . S
C437 C438 1.340 . S
C437 H469 0.951 . S
C438 C437 1.340 . S
C438 C439 1.439 . S
C438 H470 0.950 . S
C439 N435 1.374 . S
C439 C438 1.439 . S
C439 C464 1.395 . S
N440 Co429 1.995 . S
N440 C441 1.376 . S
N440 C444 1.383 . S
C441 N440 1.376 . S
C441 C442 1.446 . S
C441 C464 1.391 . S
C442 C441 1.446 . S
C442 C443 1.339 . S
C442 H471 0.949 . S
C443 C442 1.339 . S
C443 C444 1.439 . S
C443 H472 0.950 . S
C444 N440 1.383 . S
C444 C443 1.439 . S
C444 C462 1.392 . S
N445 Co429 2.282 . S
N445 C448 1.332 . S
N445 C450 1.332 . S
C446 C447 1.386 . S
C446 C449 1.388 . S
C447 C446 1.386 . S
C447 C448 1.382 . S
C447 H473 0.950 . S
C448 N445 1.332 . S
C448 C447 1.382 . S
C448 H459 0.952 . S
C449 C446 1.388 . S
C449 C450 1.382 . S
C449 H474 0.950 . S
C450 N445 1.332 . S
C450 C449 1.382 . S
C450 H460 0.948 . S
N451 Co429 2.282 . S
N451 C455 1.332 . S
N451 C456 1.332 . S
C452 C453 1.388 . S
C452 C456 1.382 . S
C452 H475 0.950 . S
C453 C452 1.388 . S
C453 C454 1.386 . S
C454 C453 1.386 . S
C454 C455 1.382 . S
C454 H476 0.950 . S
C455 N451 1.332 . S
C455 C454 1.382 . S
C455 H457 0.952 . S
C456 N451 1.332 . S
C456 C452 1.382 . S
C456 H458 0.948 . S
H457 C455 0.952 . S
H458 C456 0.948 . S
H459 C448 0.952 . S
H460 C450 0.948 . S
C461 C427 1.395 . S
C461 C431 1.391 . S
C462 C424 1.389 . S
C462 C444 1.392 . S
C463 C434 1.392 . S
C463 C436 1.389 . S
C464 C439 1.395 . S
C464 C441 1.391 . S
H465 C425 0.951 . S
H466 C426 0.950 . S
H467 C432 0.949 . S
H468 C433 0.950 . S
H469 C437 0.951 . S
H470 C438 0.950 . S
H471 C442 0.949 . S
H472 C443 0.950 . S
H473 C447 0.950 . S
H474 C449 0.950 . S
H475 C452 0.950 . S
H476 C454 0.950 . S
C477 C478 1.443 . S
C477 N481 1.376 . S
C477 C515 1.389 . S
C478 C477 1.443 . S
C478 C479 1.340 . S
C478 H518 0.951 . S
C479 C478 1.340 . S
C479 C480 1.439 . S
C479 H519 0.950 . S
C480 C479 1.439 . S
C480 N481 1.374 . S
C480 C514 1.395 . S
N481 C477 1.376 . S
N481 C480 1.374 . S
N481 Co482 2.008 . S
Co482 N481 2.008 . S
Co482 N483 1.995 . S
Co482 N488 2.008 . S
Co482 N493 1.995 . S
Co482 N498 2.282 . S
Co482 N504 2.282 . S
N483 Co482 1.995 . S
N483 C484 1.376 . S
N483 C487 1.383 . S
C484 N483 1.376 . S
C484 C485 1.446 . S
C484 C514 1.391 . S
C485 C484 1.446 . S
C485 C486 1.339 . S
C485 H520 0.949 . S
C486 C485 1.339 . S
C486 C487 1.439 . S
C486 H521 0.950 . S
C487 N483 1.383 . S
C487 C486 1.439 . S
C487 C516 1.392 . S
N488 Co482 2.008 . S
N488 C489 1.376 . S
N488 C492 1.374 . S
C489 N488 1.376 . S
C489 C490 1.443 . S
C489 C516 1.389 . S
C490 C489 1.443 . S
C490 C491 1.340 . S
C490 H522 0.951 . S
C491 C490 1.340 . S
C491 C492 1.439 . S
C491 H523 0.950 . S
C492 N488 1.374 . S
C492 C491 1.439 . S
C492 C517 1.395 . S
N493 Co482 1.995 . S
N493 C494 1.376 . S
N493 C497 1.383 . S
C494 N493 1.376 . S
C494 C495 1.446 . S
C494 C517 1.391 . S
C495 C494 1.446 . S
C495 C496 1.339 . S
C495 H524 0.949 . S
C496 C495 1.339 . S
C496 C497 1.439 . S
C496 H525 0.950 . S
C497 N493 1.383 . S
C497 C496 1.439 . S
C497 C515 1.392 . S
N498 Co482 2.282 . S
N498 C501 1.332 . S
N498 C503 1.332 . S
C499 C500 1.386 . S
C499 C502 1.388 . S
C500 C499 1.386 . S
C500 C501 1.382 . S
C500 H526 0.950 . S
C501 N498 1.332 . S
C501 C500 1.382 . S
C501 H512 0.952 . S
C502 C499 1.388 . S
C502 C503 1.382 . S
C502 H527 0.950 . S
C503 N498 1.332 . S
C503 C502 1.382 . S
C503 H513 0.948 . S
N504 Co482 2.282 . S
N504 C508 1.332 . S
N504 C509 1.332 . S
C505 C506 1.388 . S
C505 C509 1.382 . S
C505 H528 0.950 . S
C506 C505 1.388 . S
C506 C507 1.386 . S
C507 C506 1.386 . S
C507 C508 1.382 . S
C507 H529 0.950 . S
C508 N504 1.332 . S
C508 C507 1.382 . S
C508 H510 0.952 . S
C509 N504 1.332 . S
C509 C505 1.382 . S
C509 H511 0.948 . S
H510 C508 0.952 . S
H511 C509 0.948 . S
H512 C501 0.952 . S
H513 C503 0.948 . S
C514 C480 1.395 . S
C514 C484 1.391 . S
C515 C477 1.389 . S
C515 C497 1.392 . S
C516 C487 1.392 . S
C516 C489 1.389 . S
C517 C492 1.395 . S
C517 C494 1.391 . S
H518 C478 0.951 . S
H519 C479 0.950 . S
H520 C485 0.949 . S
H521 C486 0.950 . S
H522 C490 0.951 . S
H523 C491 0.950 . S
H524 C495 0.949 . S
H525 C496 0.950 . S
H526 C500 0.950 . S
H527 C502 0.950 . S
H528 C505 0.950 . S
H529 C507 0.950 . S
C530 C531 1.443 . S
C530 N534 1.376 . S
C530 C568 1.389 . S
C531 C530 1.443 . S
C531 C532 1.340 . S
C531 H571 0.951 . S
C532 C531 1.340 . S
C532 C533 1.439 . S
C532 H572 0.950 . S
C533 C532 1.439 . S
C533 N534 1.374 . S
C533 C567 1.395 . S
N534 C530 1.376 . S
N534 C533 1.374 . S
N534 Co535 2.008 . S
Co535 N534 2.008 . S
Co535 N536 1.995 . S
Co535 N541 2.008 1_545 S
Co535 N546 1.995 1_545 S
Co535 N551 2.282 1_545 S
Co535 N557 2.282 . S
N536 Co535 1.995 . S
N536 C537 1.376 . S
N536 C540 1.383 . S
C537 N536 1.376 . S
C537 C538 1.446 . S
C537 C567 1.391 . S
C538 C537 1.446 . S
C538 C539 1.339 . S
C538 H573 0.949 . S
C539 C538 1.339 . S
C539 C540 1.439 . S
C539 H574 0.950 . S
C540 N536 1.383 . S
C540 C539 1.439 . S
C540 C569 1.392 1_545 S
N541 Co535 2.008 1_565 S
N541 C542 1.376 . S
N541 C545 1.374 . S
C542 N541 1.376 . S
C542 C543 1.443 . S
C542 C569 1.389 . S
C543 C542 1.443 . S
C543 C544 1.340 . S
C543 H575 0.951 . S
C544 C543 1.340 . S
C544 C545 1.439 . S
C544 H576 0.950 . S
C545 N541 1.374 . S
C545 C544 1.439 . S
C545 C570 1.395 . S
N546 Co535 1.995 1_565 S
N546 C547 1.376 . S
N546 C550 1.383 . S
C547 N546 1.376 . S
C547 C548 1.446 . S
C547 C570 1.391 . S
C548 C547 1.446 . S
C548 C549 1.339 . S
C548 H577 0.949 . S
C549 C548 1.339 . S
C549 C550 1.439 . S
C549 H578 0.950 . S
C550 N546 1.383 . S
C550 C549 1.439 . S
C550 C568 1.392 1_565 S
N551 Co535 2.282 1_565 S
N551 C554 1.332 . S
N551 C556 1.332 1_565 S
C552 C553 1.386 . S
C552 C555 1.388 1_565 S
C553 C552 1.386 . S
C553 C554 1.382 . S
C553 H579 0.950 . S
C554 N551 1.332 . S
C554 C553 1.382 . S
C554 H565 0.952 . S
C555 C552 1.388 1_545 S
C555 C556 1.382 . S
C555 H580 0.950 . S
C556 N551 1.332 1_545 S
C556 C555 1.382 . S
C556 H566 0.948 . S
N557 Co535 2.282 . S
N557 C561 1.332 . S
N557 C562 1.332 1_545 S
C558 C559 1.388 1_565 S
C558 C562 1.382 . S
C558 H581 0.950 . S
C559 C558 1.388 1_545 S
C559 C560 1.386 . S
C560 C559 1.386 . S
C560 C561 1.382 . S
C560 H582 0.950 . S
C561 N557 1.332 . S
C561 C560 1.382 . S
C561 H563 0.952 . S
C562 N557 1.332 1_565 S
C562 C558 1.382 . S
C562 H564 0.948 . S
H563 C561 0.952 . S
H564 C562 0.948 . S
H565 C554 0.952 . S
H566 C556 0.948 . S
C567 C533 1.395 . S
C567 C537 1.391 . S
C568 C530 1.389 . S
C568 C550 1.392 1_545 S
C569 C540 1.392 1_565 S
C569 C542 1.389 . S
C570 C545 1.395 . S
C570 C547 1.391 . S
H571 C531 0.951 . S
H572 C532 0.950 . S
H573 C538 0.949 . S
H574 C539 0.950 . S
H575 C543 0.951 . S
H576 C544 0.950 . S
H577 C548 0.949 . S
H578 C549 0.950 . S
H579 C553 0.950 . S
H580 C555 0.950 . S
H581 C558 0.950 . S
H582 C560 0.950 . S
C583 C584 1.443 . S
C583 N587 1.376 . S
C583 C621 1.389 . S
C584 C583 1.443 . S
C584 C585 1.340 . S
C584 H624 0.951 . S
C585 C584 1.340 . S
C585 C586 1.439 . S
C585 H625 0.950 . S
C586 C585 1.439 . S
C586 N587 1.374 . S
C586 C620 1.395 . S
N587 C583 1.376 . S
N587 C586 1.374 . S
N587 Co588 2.008 1_556 S
Co588 N587 2.008 1_554 S
Co588 N589 1.995 1_554 S
Co588 N594 2.008 . S
Co588 N599 1.995 . S
Co588 N604 2.282 . S
Co588 N610 2.282 . S
N589 Co588 1.995 1_556 S
N589 C590 1.376 . S
N589 C593 1.383 . S
C590 N589 1.376 . S
C590 C591 1.446 . S
C590 C620 1.391 . S
C591 C590 1.446 . S
C591 C592 1.339 . S
C591 H626 0.949 . S
C592 C591 1.339 . S
C592 C593 1.439 . S
C592 H627 0.950 . S
C593 N589 1.383 . S
C593 C592 1.439 . S
C593 C622 1.392 1_556 S
N594 Co588 2.008 . S
N594 C595 1.376 . S
N594 C598 1.374 . S
C595 N594 1.376 . S
C595 C596 1.443 . S
C595 C622 1.389 . S
C596 C595 1.443 . S
C596 C597 1.340 . S
C596 H628 0.951 . S
C597 C596 1.340 . S
C597 C598 1.439 . S
C597 H629 0.950 . S
C598 N594 1.374 . S
C598 C597 1.439 . S
C598 C623 1.395 . S
N599 Co588 1.995 . S
N599 C600 1.376 . S
N599 C603 1.383 . S
C600 N599 1.376 . S
C600 C601 1.446 . S
C600 C623 1.391 . S
C601 C600 1.446 . S
C601 C602 1.339 . S
C601 H630 0.949 . S
C602 C601 1.339 . S
C602 C603 1.439 . S
C602 H631 0.950 . S
C603 N599 1.383 . S
C603 C602 1.439 . S
C603 C621 1.392 1_554 S
N604 Co588 2.282 . S
N604 C607 1.332 . S
N604 C609 1.332 1_554 S
C605 C606 1.386 . S
C605 C608 1.388 . S
C606 C605 1.386 . S
C606 C607 1.382 . S
C606 H632 0.950 . S
C607 N604 1.332 . S
C607 C606 1.382 . S
C607 H618 0.952 . S
C608 C605 1.388 . S
C608 C609 1.382 1_554 S
C608 H633 0.950 1_554 S
C609 N604 1.332 1_556 S
C609 C608 1.382 1_556 S
C609 H619 0.948 . S
N610 Co588 2.282 . S
N610 C614 1.332 1_554 S
N610 C615 1.332 . S
C611 C612 1.388 1_554 S
C611 C615 1.382 . S
C611 H634 0.950 . S
C612 C611 1.388 1_556 S
C612 C613 1.386 . S
C613 C612 1.386 . S
C613 C614 1.382 . S
C613 H635 0.950 . S
C614 N610 1.332 1_556 S
C614 C613 1.382 . S
C614 H616 0.952 . S
C615 N610 1.332 . S
C615 C611 1.382 . S
C615 H617 0.948 . S
H616 C614 0.952 . S
H617 C615 0.948 . S
H618 C607 0.952 . S
H619 C609 0.948 . S
C620 C586 1.395 . S
C620 C590 1.391 . S
C621 C583 1.389 . S
C621 C603 1.392 1_556 S
C622 C593 1.392 1_554 S
C622 C595 1.389 . S
C623 C598 1.395 . S
C623 C600 1.391 . S
H624 C584 0.951 . S
H625 C585 0.950 . S
H626 C591 0.949 . S
H627 C592 0.950 . S
H628 C596 0.951 . S
H629 C597 0.950 . S
H630 C601 0.949 . S
H631 C602 0.950 . S
H632 C606 0.950 . S
H633 C608 0.950 1_556 S
H634 C611 0.950 . S
H635 C613 0.950 . S
C636 O652 1.251 . S
C636 O654 1.254 . S
N637 C638 1.333 . S
N637 C642 1.307 . S
N637 Zn643 2.020 1_556 S
C638 N637 1.333 . S
C638 C639 1.379 . S
C638 H656 0.952 . S
C639 C638 1.379 . S
C639 C640 1.390 . S
C639 H666 0.949 . S
C640 C639 1.390 . S
C640 C641 1.357 . S
C641 C640 1.357 . S
C641 C642 1.370 . S
C641 H667 0.950 . S
C642 N637 1.307 . S
C642 C641 1.370 . S
C642 H660 0.948 . S
Zn643 N637 2.020 1_554 S
Zn643 O652 2.039 . S
Zn643 O658 2.034 . S
Zn643 O662 2.025 . S
Zn643 O664 2.024 . S
C644 O663 1.246 . S
C644 O664 1.249 . S
N645 C646 1.307 . S
N645 C647 1.333 . S
N645 Zn651 2.020 . S
C646 N645 1.307 . S
C646 C650 1.370 . S
C646 H657 0.948 . S
C647 N645 1.333 . S
C647 C648 1.379 . S
C647 H655 0.952 . S
C648 C647 1.379 . S
C648 C649 1.390 . S
C648 H668 0.949 1_455 S
C649 C648 1.390 . S
C649 C650 1.357 . S
C650 C646 1.370 . S
C650 C649 1.357 . S
C650 H669 0.950 . S
Zn651 N645 2.020 . S
Zn651 O654 2.025 . S
Zn651 O659 2.024 . S
Zn651 O661 2.039 . S
Zn651 O663 2.034 . S
O652 C636 1.251 . S
O652 Zn643 2.039 . S
C653 O658 1.246 . S
C653 O659 1.249 . S
O654 C636 1.254 . S
O654 Zn651 2.025 . S
H655 C647 0.952 . S
H656 C638 0.952 . S
H657 C646 0.948 . S
O658 Zn643 2.034 . S
O658 C653 1.246 . S
O659 Zn651 2.024 . S
O659 C653 1.249 . S
H660 C642 0.948 . S
O661 Zn651 2.039 . S
O661 C665 1.251 . S
O662 Zn643 2.025 . S
O662 C665 1.254 . S
O663 C644 1.246 . S
O663 Zn651 2.034 . S
O664 Zn643 2.024 . S
O664 C644 1.249 . S
C665 O661 1.251 . S
C665 O662 1.254 . S
H666 C639 0.949 . S
H667 C641 0.950 . S
H668 C648 0.949 1_655 S
H669 C650 0.950 . S
C670 O686 1.251 . S
C670 O688 1.254 . S
N671 C672 1.333 . S
N671 C676 1.307 . S
N671 Zn677 2.020 1_556 S
C672 N671 1.333 . S
C672 C673 1.379 . S
C672 H690 0.952 . S
C673 C672 1.379 . S
C673 C674 1.390 . S
C673 H700 0.949 . S
C674 C673 1.390 . S
C674 C675 1.357 . S
C675 C674 1.357 . S
C675 C676 1.370 . S
C675 H701 0.950 . S
C676 N671 1.307 . S
C676 C675 1.370 . S
C676 H694 0.948 1_655 S
Zn677 N671 2.020 1_554 S
Zn677 O686 2.039 . S
Zn677 O692 2.034 . S
Zn677 O696 2.025 1_654 S
Zn677 O698 2.024 . S
C678 O697 1.249 . S
C678 O698 1.249 . S
N679 C680 1.307 . S
N679 C681 1.333 1_655 S
N679 Zn685 2.020 . S
C680 N679 1.307 . S
C680 C684 1.370 . S
C680 H691 0.948 . S
C681 N679 1.333 1_455 S
C681 C682 1.379 . S
C681 H689 0.952 . S
C682 C681 1.379 . S
C682 C683 1.390 . S
C682 H702 0.949 . S
C683 C682 1.390 . S
C683 C684 1.357 1_455 S
C684 C680 1.370 . S
C684 C683 1.357 1_655 S
C684 H703 0.950 . S
Zn685 N679 2.020 . S
Zn685 O688 2.025 . S
Zn685 O693 2.024 . S
Zn685 O695 2.039 1_655 S
Zn685 O697 2.044 . S
O686 C670 1.251 . S
O686 Zn677 2.039 . S
C687 O692 1.246 . S
C687 O693 1.249 . S
O688 C670 1.254 . S
O688 Zn685 2.025 . S
H689 C681 0.952 . S
H690 C672 0.952 . S
H691 C680 0.948 . S
O692 Zn677 2.034 . S
O692 C687 1.246 . S
O693 Zn685 2.024 . S
O693 C687 1.249 . S
H694 C676 0.948 1_455 S
O695 Zn685 2.039 1_455 S
O695 C699 1.251 . S
O696 Zn677 2.025 1_456 S
O696 C699 1.254 1_556 S
O697 C678 1.249 . S
O697 Zn685 2.044 . S
O698 Zn677 2.024 . S
O698 C678 1.249 . S
C699 O695 1.251 . S
C699 O696 1.254 1_554 S
H700 C673 0.949 . S
H701 C675 0.950 . S
H702 C682 0.949 . S
H703 C684 0.950 . S
C704 O720 1.251 . S
C704 O722 1.254 . S
N705 C706 1.333 . S
N705 C710 1.307 . S
N705 Zn711 2.020 . S
C706 N705 1.333 . S
C706 C707 1.379 1_455 S
C706 H724 0.952 1_455 S
C707 C706 1.379 1_655 S
C707 C708 1.390 1_655 S
C707 H734 0.949 . S
C708 C707 1.390 1_455 S
C708 C709 1.357 . S
C709 C708 1.357 . S
C709 C710 1.370 . S
C709 H735 0.950 . S
C710 N705 1.307 . S
C710 C709 1.370 . S
C710 H728 0.948 . S
Zn711 N705 2.020 . S
Zn711 O720 2.039 . S
Zn711 O726 2.042 . S
Zn711 O730 2.025 . S
Zn711 O732 2.024 . S
C712 O731 1.246 . S
C712 O732 1.249 . S
N713 C714 1.307 . S
N713 C715 1.333 . S
N713 Zn719 2.020 . S
C714 N713 1.307 . S
C714 C718 1.370 . S
C714 H725 0.948 . S
C715 N713 1.333 . S
C715 C716 1.379 . S
C715 H723 0.952 . S
C716 C715 1.379 . S
C716 C717 1.390 . S
C716 H736 0.949 . S
C717 C716 1.390 . S
C717 C718 1.357 . S
C718 C714 1.370 . S
C718 C717 1.357 . S
C718 H737 0.950 1_565 S
Zn719 N713 2.020 . S
Zn719 O722 2.025 . S
Zn719 O727 2.024 . S
Zn719 O729 2.039 . S
Zn719 O731 2.034 . S
O720 C704 1.251 . S
O720 Zn711 2.039 . S
C721 O726 1.245 1_655 S
C721 O727 1.249 1_655 S
O722 C704 1.254 . S
O722 Zn719 2.025 . S
H723 C715 0.952 . S
H724 C706 0.952 1_655 S
H725 C714 0.948 . S
O726 Zn711 2.042 . S
O726 C721 1.245 1_455 S
O727 Zn719 2.024 . S
O727 C721 1.249 1_455 S
H728 C710 0.948 . S
O729 Zn719 2.039 . S
O729 C733 1.251 . S
O730 Zn711 2.025 . S
O730 C733 1.254 . S
O731 C712 1.246 . S
O731 Zn719 2.034 . S
O732 Zn711 2.024 . S
O732 C712 1.249 . S
C733 O729 1.251 . S
C733 O730 1.254 . S
H734 C707 0.949 . S
H735 C709 0.950 . S
H736 C716 0.949 . S
H737 C718 0.950 1_545 S
C738 O754 1.251 . S
C738 O756 1.254 . S
N739 C740 1.333 . S
N739 C744 1.307 . S
N739 Zn745 2.020 1_455 S
C740 N739 1.333 . S
C740 C741 1.379 . S
C740 H758 0.952 . S
C741 C740 1.379 . S
C741 C742 1.390 . S
C741 H768 0.949 . S
C742 C741 1.390 . S
C742 C743 1.357 . S
C743 C742 1.357 . S
C743 C744 1.370 . S
C743 H769 0.950 . S
C744 N739 1.307 . S
C744 C743 1.370 . S
C744 H762 0.948 . S
Zn745 N739 2.020 1_655 S
Zn745 O754 2.039 . S
Zn745 O760 2.034 . S
Zn745 O764 2.025 1_655 S
Zn745 O766 2.024 . S
C746 O765 1.246 . S
C746 O766 1.249 . S
N747 C748 1.307 . S
N747 C749 1.333 . S
N747 Zn753 2.020 . S
C748 N747 1.307 . S
C748 C752 1.370 . S
C748 H759 0.948 . S
C749 N747 1.333 . S
C749 C750 1.379 . S
C749 H757 0.952 . S
C750 C749 1.379 . S
C750 C751 1.390 . S
C750 H770 0.949 . S
C751 C750 1.390 . S
C751 C752 1.357 . S
C752 C748 1.370 . S
C752 C751 1.357 . S
C752 H771 0.950 . S
Zn753 N747 2.020 . S
Zn753 O756 2.025 . S
Zn753 O761 2.024 . S
Zn753 O763 2.039 . S
Zn753 O765 2.034 . S
O754 C738 1.251 . S
O754 Zn745 2.039 . S
C755 O760 1.246 . S
C755 O761 1.249 . S
O756 C738 1.254 . S
O756 Zn753 2.025 . S
H757 C749 0.952 . S
H758 C740 0.952 . S
H759 C748 0.948 . S
O760 Zn745 2.034 . S
O760 C755 1.246 . S
O761 Zn753 2.024 . S
O761 C755 1.249 . S
H762 C744 0.948 . S
O763 Zn753 2.039 . S
O763 C767 1.251 . S
O764 Zn745 2.025 1_455 S
O764 C767 1.254 1_455 S
O765 C746 1.246 . S
O765 Zn753 2.034 . S
O766 Zn745 2.024 . S
O766 C746 1.249 . S
C767 O763 1.251 . S
C767 O764 1.254 1_655 S
H768 C741 0.949 . S
H769 C743 0.950 . S
H770 C750 0.949 . S
H771 C752 0.950 . S
C772 O788 1.251 . S
C772 O790 1.254 . S
N773 C774 1.333 . S
N773 C778 1.307 1_565 S
N773 Zn779 2.020 . S
C774 N773 1.333 . S
C774 C775 1.379 1_565 S
C774 H792 0.952 . S
C775 C774 1.379 1_545 S
C775 C776 1.390 . S
C775 H802 0.949 . S
C776 C775 1.390 . S
C776 C777 1.357 . S
C777 C776 1.357 . S
C777 C778 1.370 . S
C777 H803 0.950 . S
C778 N773 1.307 1_545 S
C778 C777 1.370 . S
C778 H796 0.948 . S
Zn779 N773 2.020 . S
Zn779 O788 2.039 . S
Zn779 O794 2.034 . S
Zn779 O798 2.025 . S
Zn779 O800 2.024 1_565 S
C780 O799 1.246 1_545 S
C780 O800 1.249 . S
N781 C782 1.307 . S
N781 C783 1.333 . S
N781 Zn787 2.020 . S
C782 N781 1.307 . S
C782 C786 1.370 . S
C782 H793 0.948 . S
C783 N781 1.333 . S
C783 C784 1.379 . S
C783 H791 0.952 . S
C784 C783 1.379 . S
C784 C785 1.390 . S
C784 H804 0.949 . S
C785 C784 1.390 . S
C785 C786 1.357 . S
C786 C782 1.370 . S
C786 C785 1.357 . S
C786 H805 0.950 . S
Zn787 N781 2.020 . S
Zn787 O790 2.025 . S
Zn787 O795 2.024 . S
Zn787 O797 2.039 . S
Zn787 O799 2.034 . S
O788 C772 1.251 . S
O788 Zn779 2.039 . S
C789 O794 1.246 . S
C789 O795 1.249 . S
O790 C772 1.254 . S
O790 Zn787 2.025 . S
H791 C783 0.952 . S
H792 C774 0.952 . S
H793 C782 0.948 . S
O794 Zn779 2.034 . S
O794 C789 1.246 . S
O795 Zn787 2.024 . S
O795 C789 1.249 . S
H796 C778 0.948 . S
O797 Zn787 2.039 . S
O797 C801 1.251 . S
O798 Zn779 2.025 . S
O798 C801 1.254 . S
O799 C780 1.246 1_565 S
O799 Zn787 2.034 . S
O800 Zn779 2.024 1_545 S
O800 C780 1.249 . S
C801 O797 1.251 . S
C801 O798 1.254 . S
H802 C775 0.949 . S
H803 C777 0.950 . S
H804 C784 0.949 . S
H805 C786 0.950 . S
C806 O822 1.251 . S
C806 O824 1.254 . S
N807 C808 1.333 . S
N807 C812 1.307 . S
N807 Zn813 2.020 . S
C808 N807 1.333 . S
C808 C809 1.379 . S
C808 H826 0.952 . S
C809 C808 1.379 . S
C809 C810 1.390 . S
C809 H836 0.949 . S
C810 C809 1.390 . S
C810 C811 1.357 . S
C811 C810 1.357 . S
C811 C812 1.370 . S
C811 H837 0.950 . S
C812 N807 1.307 . S
C812 C811 1.370 . S
C812 H830 0.948 . S
Zn813 N807 2.020 . S
Zn813 O822 2.039 . S
Zn813 O828 2.034 . S
Zn813 O832 2.025 . S
Zn813 O834 2.024 . S
C814 O833 1.246 . S
C814 O834 1.249 . S
N815 C816 1.307 . S
N815 C817 1.333 . S
N815 Zn821 2.020 . S
C816 N815 1.307 . S
C816 C820 1.370 . S
C816 H827 0.948 . S
C817 N815 1.333 . S
C817 C818 1.379 . S
C817 H825 0.952 . S
C818 C817 1.379 . S
C818 C819 1.390 . S
C818 H838 0.949 . S
C819 C818 1.390 . S
C819 C820 1.357 . S
C820 C816 1.370 . S
C820 C819 1.357 . S
C820 H839 0.950 . S
Zn821 N815 2.020 . S
Zn821 O824 2.025 . S
Zn821 O829 2.024 . S
Zn821 O831 2.039 . S
Zn821 O833 2.034 . S
O822 C806 1.251 . S
O822 Zn813 2.039 . S
C823 O828 1.246 . S
C823 O829 1.249 . S
O824 C806 1.254 . S
O824 Zn821 2.025 . S
H825 C817 0.952 . S
H826 C808 0.952 . S
H827 C816 0.948 . S
O828 Zn813 2.034 . S
O828 C823 1.246 . S
O829 Zn821 2.024 . S
O829 C823 1.249 . S
H830 C812 0.948 . S
O831 Zn821 2.039 . S
O831 C835 1.251 . S
O832 Zn813 2.025 . S
O832 C835 1.254 . S
O833 C814 1.246 . S
O833 Zn821 2.034 . S
O834 Zn813 2.024 . S
O834 C814 1.249 . S
C835 O831 1.251 . S
C835 O832 1.254 . S
H836 C809 0.949 . S
H837 C811 0.950 . S
H838 C818 0.949 . S
H839 C820 0.950 . S
C840 O856 1.251 . S
C840 O858 1.254 . S
N841 C842 1.333 . S
N841 C846 1.307 . S
N841 Zn847 2.020 . S
C842 N841 1.333 . S
C842 C843 1.379 . S
C842 H860 0.952 . S
C843 C842 1.379 . S
C843 C844 1.390 . S
C843 H870 0.949 . S
C844 C843 1.390 . S
C844 C845 1.357 . S
C845 C844 1.357 . S
C845 C846 1.370 . S
C845 H871 0.950 . S
C846 N841 1.307 . S
C846 C845 1.370 . S
C846 H864 0.948 . S
Zn847 N841 2.020 . S
Zn847 O856 2.039 . S
Zn847 O862 2.034 . S
Zn847 O866 2.025 . S
Zn847 O868 2.024 . S
C848 O867 1.246 . S
C848 O868 1.249 . S
N849 C850 1.307 . S
N849 C851 1.333 . S
N849 Zn855 2.020 1_554 S
C850 N849 1.307 . S
C850 C854 1.370 . S
C850 H861 0.948 . S
C851 N849 1.333 . S
C851 C852 1.379 . S
C851 H859 0.952 . S
C852 C851 1.379 . S
C852 C853 1.390 . S
C852 H872 0.949 . S
C853 C852 1.390 . S
C853 C854 1.357 . S
C854 C850 1.370 . S
C854 C853 1.357 . S
C854 H873 0.950 . S
Zn855 N849 2.020 1_556 S
Zn855 O858 2.025 . S
Zn855 O863 2.024 . S
Zn855 O865 2.039 . S
Zn855 O867 2.034 . S
O856 C840 1.251 . S
O856 Zn847 2.039 . S
C857 O862 1.246 . S
C857 O863 1.249 . S
O858 C840 1.254 . S
O858 Zn855 2.025 . S
H859 C851 0.952 . S
H860 C842 0.952 . S
H861 C850 0.948 . S
O862 Zn847 2.034 . S
O862 C857 1.246 . S
O863 Zn855 2.024 . S
O863 C857 1.249 . S
H864 C846 0.948 . S
O865 Zn855 2.039 . S
O865 C869 1.251 . S
O866 Zn847 2.025 . S
O866 C869 1.254 . S
O867 C848 1.246 . S
O867 Zn855 2.034 . S
O868 Zn847 2.024 . S
O868 C848 1.249 . S
C869 O865 1.251 . S
C869 O866 1.254 . S
H870 C843 0.949 . S
H871 C845 0.950 . S
H872 C852 0.949 . S
H873 C854 0.950 . S
C874 O890 1.251 . S
C874 O892 1.254 . S
N875 C876 1.333 . S
N875 C880 1.307 . S
N875 Zn881 2.020 . S
C876 N875 1.333 . S
C876 C877 1.379 . S
C876 H894 0.952 . S
C877 C876 1.379 . S
C877 C878 1.390 . S
C877 H904 0.949 . S
C878 C877 1.390 . S
C878 C879 1.357 . S
C879 C878 1.357 . S
C879 C880 1.370 . S
C879 H905 0.950 . S
C880 N875 1.307 . S
C880 C879 1.370 . S
C880 H898 0.948 . S
Zn881 N875 2.020 . S
Zn881 O890 2.039 . S
Zn881 O896 2.034 . S
Zn881 O900 2.025 . S
Zn881 O902 2.024 . S
C882 O901 1.246 . S
C882 O902 1.249 . S
N883 C884 1.307 . S
N883 C885 1.358 . S
N883 Zn889 2.020 . S
C884 N883 1.307 . S
C884 C888 1.370 . S
C884 H895 0.948 . S
C885 N883 1.358 . S
C885 C886 1.370 1_545 S
C885 H893 0.936 1_545 S
C886 C885 1.370 1_565 S
C886 C887 1.390 1_565 S
C886 H906 0.949 . S
C887 C886 1.390 1_545 S
C887 C888 1.357 . S
C888 C884 1.370 . S
C888 C887 1.357 . S
C888 H907 0.950 . S
Zn889 N883 2.020 . S
Zn889 O892 2.025 . S
Zn889 O897 2.024 . S
Zn889 O899 2.039 . S
Zn889 O901 2.034 . S
O890 C874 1.251 . S
O890 Zn881 2.039 . S
C891 O896 1.246 . S
C891 O897 1.249 . S
O892 C874 1.254 . S
O892 Zn889 2.025 . S
H893 C885 0.936 1_565 S
H894 C876 0.952 . S
H895 C884 0.948 . S
O896 Zn881 2.034 . S
O896 C891 1.246 . S
O897 Zn889 2.024 . S
O897 C891 1.249 . S
H898 C880 0.948 . S
O899 Zn889 2.039 . S
O899 C903 1.254 . S
O900 Zn881 2.025 . S
O900 C903 1.263 . S
O901 C882 1.246 . S
O901 Zn889 2.034 . S
O902 Zn881 2.024 . S
O902 C882 1.249 . S
C903 O899 1.254 . S
C903 O900 1.263 . S
H904 C877 0.949 . S
H905 C879 0.950 . S
H906 C886 0.949 . S
H907 C888 0.950 . S
C908 C909 1.363 . S
C908 C914 1.379 . S
C908 N916 1.356 . S
C909 C908 1.363 . S
C909 C915 1.363 . S
C910 C911 1.363 . S
C910 C915 1.379 . S
C910 N917 1.356 . S
C911 C910 1.363 . S
C911 C914 1.363 . S
N912 C914 1.356 1_655 S
N912 H924 0.984 . S
N912 H925 0.985 1_545 S
N913 C915 1.356 . S
N913 H918 0.984 . S
N913 H919 0.985 . S
C914 C908 1.379 . S
C914 C911 1.363 . S
C914 N912 1.356 1_455 S
C915 C909 1.363 . S
C915 C910 1.379 . S
C915 N913 1.356 . S
N916 C908 1.356 . S
N916 H922 0.984 1_455 S
N916 H923 0.984 . S
N917 C910 1.356 . S
N917 H920 0.984 . S
N917 H921 0.985 . S
H918 N913 0.984 . S
H919 N913 0.985 . S
H920 N917 0.984 . S
H921 N917 0.985 . S
H922 N916 0.984 1_655 S
H923 N916 0.984 . S
H924 N912 0.984 . S
H925 N912 0.985 1_565 S
C926 C927 1.363 1_455 S
C926 C932 1.379 . S
C926 N934 1.356 . S
C927 C926 1.363 1_655 S
C927 C933 1.363 . S
C928 C929 1.363 . S
C928 C933 1.379 . S
C928 N935 1.356 . S
C929 C928 1.363 . S
C929 C932 1.363 1_655 S
N930 C932 1.356 . S
N930 H942 0.984 . S
N930 H943 0.985 . S
N931 C933 1.356 . S
N931 H936 0.984 . S
N931 H937 0.985 . S
C932 C926 1.379 . S
C932 C929 1.363 1_455 S
C932 N930 1.356 . S
C933 C927 1.363 . S
C933 C928 1.379 . S
C933 N931 1.356 . S
N934 C926 1.356 . S
N934 H940 0.984 . S
N934 H941 0.984 . S
N935 C928 1.356 . S
N935 H938 0.984 . S
N935 H939 0.985 . S
H936 N931 0.984 . S
H937 N931 0.985 . S
H938 N935 0.984 . S
H939 N935 0.985 . S
H940 N934 0.984 . S
H941 N934 0.984 . S
H942 N930 0.984 . S
H943 N930 0.985 . S
C944 C945 1.363 . S
C944 C950 1.379 . S
C944 N952 1.356 . S
C945 C944 1.363 . S
C945 C951 1.363 . S
C946 C947 1.363 . S
C946 C951 1.379 . S
C946 N953 1.356 . S
C947 C946 1.363 . S
C947 C950 1.363 . S
N948 C950 1.356 . S
N948 H960 0.984 . S
N948 H961 0.985 . S
N949 C951 1.356 . S
N949 H954 0.984 . S
N949 H955 0.985 1_455 S
C950 C944 1.379 . S
C950 C947 1.363 . S
C950 N948 1.356 . S
C951 C945 1.363 . S
C951 C946 1.379 . S
C951 N949 1.356 . S
N952 C944 1.356 . S
N952 H958 0.984 . S
N952 H959 0.984 . S
N953 C946 1.356 . S
N953 H956 0.984 . S
N953 H957 0.985 . S
H954 N949 0.984 . S
H955 N949 0.985 1_655 S
H956 N953 0.984 . S
H957 N953 0.985 . S
H958 N952 0.984 . S
H959 N952 0.984 . S
H960 N948 0.984 . S
H961 N948 0.985 . S
C962 C963 1.369 . S
C962 C968 1.379 . S
C962 N970 1.356 . S
C963 C962 1.369 . S
C963 C969 1.357 1_455 S
C964 C965 1.363 1_655 S
C964 C969 1.379 . S
C964 N971 1.356 . S
C965 C964 1.363 1_455 S
C965 C968 1.363 . S
N966 C968 1.356 . S
N966 H978 0.984 . S
N966 H979 0.985 . S
N967 C969 1.356 . S
N967 H972 0.984 . S
N967 H973 0.985 . S
C968 C962 1.379 . S
C968 C965 1.363 . S
C968 N966 1.356 . S
C969 C963 1.357 1_655 S
C969 C964 1.379 . S
C969 N967 1.356 . S
N970 C962 1.356 . S
N970 H976 0.984 . S
N970 H977 0.984 . S
N971 C964 1.356 . S
N971 H974 0.984 . S
N971 H975 0.985 . S
H972 N967 0.984 . S
H973 N967 0.985 . S
H974 N971 0.984 . S
H975 N971 0.985 . S
H976 N970 0.984 . S
H977 N970 0.984 . S
H978 N966 0.984 . S
H979 N966 0.985 . S
C980 C981 1.363 . S
C980 C986 1.379 . S
C980 N988 1.356 . S
C981 C980 1.363 . S
C981 C987 1.363 . S
C982 C983 1.363 . S
C982 C987 1.379 . S
C982 N989 1.356 1_545 S
C983 C982 1.363 . S
C983 C986 1.363 . S
N984 C986 1.356 1_556 S
N984 H996 0.984 . S
N984 H997 0.985 . S
N985 C987 1.356 1_565 S
N985 H990 0.984 1_565 S
N985 H991 0.985 . S
C986 C980 1.379 . S
C986 C983 1.363 . S
C986 N984 1.356 1_554 S
C987 C981 1.363 . S
C987 C982 1.379 . S
C987 N985 1.356 1_545 S
N988 C980 1.356 . S
N988 H994 0.984 . S
N988 H995 0.984 . S
N989 C982 1.356 1_565 S
N989 H992 0.984 . S
N989 H993 0.985 . S
H990 N985 0.984 1_545 S
H991 N985 0.985 . S
H992 N989 0.984 . S
H993 N989 0.985 . S
H994 N988 0.984 . S
H995 N988 0.984 . S
H996 N984 0.984 . S
H997 N984 0.985 . S
C998 C999 1.363 . S
C998 C1004 1.379 . S
C998 N1006 1.356 . S
C999 C998 1.363 . S
C999 C1005 1.363 . S
C1000 C1001 1.363 . S
C1000 C1005 1.379 . S
C1000 N1007 1.356 . S
C1001 C1000 1.363 . S
C1001 C1004 1.363 . S
N1002 C1004 1.356 . S
N1002 H1014 0.984 . S
N1002 H1015 0.985 . S
N1003 C1005 1.356 . S
N1003 H1008 0.984 . S
N1003 H1009 0.985 . S
C1004 C998 1.379 . S
C1004 C1001 1.363 . S
C1004 N1002 1.356 . S
C1005 C999 1.363 . S
C1005 C1000 1.379 . S
C1005 N1003 1.356 . S
N1006 C998 1.356 . S
N1006 H1012 0.984 . S
N1006 H1013 0.984 . S
N1007 C1000 1.356 . S
N1007 H1010 0.984 . S
N1007 H1011 0.985 . S
H1008 N1003 0.984 . S
H1009 N1003 0.985 . S
H1010 N1007 0.984 . S
H1011 N1007 0.985 . S
H1012 N1006 0.984 . S
H1013 N1006 0.984 . S
H1014 N1002 0.984 . S
H1015 N1002 0.985 . S
C1016 C1017 1.363 . S
C1016 C1022 1.379 . S
C1016 N1024 1.356 . S
C1017 C1016 1.363 . S
C1017 C1023 1.363 1_545 S
C1018 C1019 1.363 1_565 S
C1018 C1023 1.379 . S
C1018 N1025 1.356 . S
C1019 C1018 1.363 1_545 S
C1019 C1022 1.363 . S
N1020 C1022 1.356 . S
N1020 H1032 0.984 . S
N1020 H1033 0.985 . S
N1021 C1023 1.356 . S
N1021 H1026 0.984 . S
N1021 H1027 0.985 . S
C1022 C1016 1.379 . S
C1022 C1019 1.363 . S
C1022 N1020 1.356 . S
C1023 C1017 1.363 1_565 S
C1023 C1018 1.379 . S
C1023 N1021 1.356 . S
N1024 C1016 1.356 . S
N1024 H1030 0.984 . S
N1024 H1031 0.984 . S
N1025 C1018 1.356 . S
N1025 H1028 0.984 . S
N1025 H1029 0.985 . S
H1026 N1021 0.984 . S
H1027 N1021 0.985 . S
H1028 N1025 0.984 . S
H1029 N1025 0.985 . S
H1030 N1024 0.984 . S
H1031 N1024 0.984 . S
H1032 N1020 0.984 . S
H1033 N1020 0.985 . S
C1034 C1035 1.363 . S
C1034 C1040 1.379 . S
C1034 N1042 1.356 . S
C1035 C1034 1.363 . S
C1035 C1041 1.363 . S
C1036 C1037 1.363 . S
C1036 C1041 1.379 . S
C1036 N1043 1.356 . S
C1037 C1036 1.363 . S
C1037 C1040 1.363 . S
N1038 C1040 1.356 . S
N1038 H1050 0.984 . S
N1038 H1051 0.985 . S
N1039 C1041 1.356 . S
N1039 H1044 0.984 . S
N1039 H1045 0.985 . S
C1040 C1034 1.379 . S
C1040 C1037 1.363 . S
C1040 N1038 1.356 . S
C1041 C1035 1.363 . S
C1041 C1036 1.379 . S
C1041 N1039 1.356 . S
N1042 C1034 1.356 . S
N1042 H1048 0.984 . S
N1042 H1049 0.984 . S
N1043 C1036 1.356 . S
N1043 H1046 0.984 . S
N1043 H1047 0.985 . S
H1044 N1039 0.984 . S
H1045 N1039 0.985 . S
H1046 N1043 0.984 . S
H1047 N1043 0.985 . S
H1048 N1042 0.984 . S
H1049 N1042 0.984 . S
H1050 N1038 0.984 . S
H1051 N1038 0.985 . S
C1052 C1053 1.363 . S
C1052 C1058 1.379 . S
C1052 N1060 1.356 . S
C1053 C1052 1.363 . S
C1053 C1059 1.363 1_554 S
C1054 C1055 1.363 1_556 S
C1054 C1059 1.379 . S
C1054 N1061 1.356 . S
C1055 C1054 1.363 1_554 S
C1055 C1058 1.363 . S
N1056 C1058 1.356 . S
N1056 H1068 0.984 . S
N1056 H1069 0.985 . S
N1057 C1059 1.356 . S
N1057 H1062 0.984 . S
N1057 H1063 0.985 . S
C1058 C1052 1.379 . S
C1058 C1055 1.363 . S
C1058 N1056 1.356 . S
C1059 C1053 1.363 1_556 S
C1059 C1054 1.379 . S
C1059 N1057 1.356 . S
N1060 C1052 1.356 . S
N1060 H1066 0.984 . S
N1060 H1067 0.984 . S
N1061 C1054 1.356 . S
N1061 H1064 0.984 . S
N1061 H1065 0.985 . S
H1062 N1057 0.984 . S
H1063 N1057 0.985 . S
H1064 N1061 0.984 . S
H1065 N1061 0.985 . S
H1066 N1060 0.984 . S
H1067 N1060 0.984 . S
H1068 N1056 0.984 . S
H1069 N1056 0.985 . S
C1070 C1071 1.363 . S
C1070 C1076 1.379 . S
C1070 N1078 1.356 . S
C1071 C1070 1.363 . S
C1071 C1077 1.363 . S
C1072 C1073 1.363 . S
C1072 C1077 1.379 . S
C1072 N1079 1.356 . S
C1073 C1072 1.363 . S
C1073 C1076 1.363 . S
N1074 C1076 1.356 . S
N1074 H1086 0.984 . S
N1074 H1087 0.985 . S
N1075 C1077 1.356 . S
N1075 H1080 0.984 . S
N1075 H1081 0.985 . S
C1076 C1070 1.379 . S
C1076 C1073 1.363 . S
C1076 N1074 1.356 . S
C1077 C1071 1.363 . S
C1077 C1072 1.379 . S
C1077 N1075 1.356 . S
N1078 C1070 1.356 . S
N1078 H1084 0.984 . S
N1078 H1085 0.984 . S
N1079 C1072 1.356 . S
N1079 H1082 0.984 . S
N1079 H1083 0.985 . S
H1080 N1075 0.984 . S
H1081 N1075 0.985 . S
H1082 N1079 0.984 . S
H1083 N1079 0.985 . S
H1084 N1078 0.984 . S
H1085 N1078 0.984 . S
H1086 N1074 0.984 . S
H1087 N1074 0.985 . S
C1088 C1089 1.363 . S
C1088 C1094 1.379 . S
C1088 N1096 1.356 . S
C1089 C1088 1.363 . S
C1089 C1095 1.363 . S
C1090 C1091 1.363 . S
C1090 C1095 1.379 . S
C1090 N1097 1.356 . S
C1091 C1090 1.363 . S
C1091 C1094 1.363 . S
N1092 C1094 1.356 . S
N1092 H1104 0.984 . S
N1092 H1105 0.985 . S
N1093 C1095 1.356 . S
N1093 H1098 0.984 . S
N1093 H1099 0.985 . S
C1094 C1088 1.379 . S
C1094 C1091 1.363 . S
C1094 N1092 1.356 . S
C1095 C1089 1.363 . S
C1095 C1090 1.379 . S
C1095 N1093 1.356 . S
N1096 C1088 1.356 . S
N1096 H1102 0.984 . S
N1096 H1103 0.984 . S
N1097 C1090 1.356 . S
N1097 H1100 0.984 . S
N1097 H1101 0.985 . S
H1098 N1093 0.984 . S
H1099 N1093 0.985 . S
H1100 N1097 0.984 . S
H1101 N1097 0.985 . S
H1102 N1096 0.984 . S
H1103 N1096 0.984 . S
H1104 N1092 0.984 . S
H1105 N1092 0.985 . S
C1106 C1107 1.363 . S
C1106 C1112 1.379 . S
C1106 N1114 1.356 . S
C1107 C1106 1.363 . S
C1107 C1113 1.363 . S
C1108 C1109 1.363 . S
C1108 C1113 1.379 . S
C1108 N1115 1.356 . S
C1109 C1108 1.363 . S
C1109 C1112 1.363 . S
N1110 C1112 1.356 . S
N1110 H1122 0.984 . S
N1110 H1123 0.985 . S
N1111 C1113 1.356 . S
N1111 H1116 0.984 . S
N1111 H1117 0.985 . S
C1112 C1106 1.379 . S
C1112 C1109 1.363 . S
C1112 N1110 1.356 . S
C1113 C1107 1.363 . S
C1113 C1108 1.379 . S
C1113 N1111 1.356 . S
N1114 C1106 1.356 . S
N1114 H1120 0.984 . S
N1114 H1121 0.984 . S
N1115 C1108 1.356 . S
N1115 H1118 0.984 . S
N1115 H1119 0.985 . S
H1116 N1111 0.984 . S
H1117 N1111 0.985 . S
H1118 N1115 0.984 . S
H1119 N1115 0.985 . S
H1120 N1114 0.984 . S
H1121 N1114 0.984 . S
H1122 N1110 0.984 . S
H1123 N1110 0.985 . S
C1124 C1125 1.363 . S
C1124 C1130 1.379 . S
C1124 N1132 1.356 . S
C1125 C1124 1.363 . S
C1125 C1131 1.363 . S
C1126 C1127 1.363 . S
C1126 C1131 1.379 . S
C1126 N1133 1.356 . S
C1127 C1126 1.363 . S
C1127 C1130 1.363 . S
N1128 C1130 1.356 . S
N1128 H1140 0.984 . S
N1128 H1141 0.985 . S
N1129 C1131 1.356 . S
N1129 H1134 0.984 . S
N1129 H1135 0.985 . S
C1130 C1124 1.379 . S
C1130 C1127 1.363 . S
C1130 N1128 1.356 . S
C1131 C1125 1.363 . S
C1131 C1126 1.379 . S
C1131 N1129 1.356 . S
N1132 C1124 1.356 . S
N1132 H1138 0.984 . S
N1132 H1139 0.984 . S
N1133 C1126 1.356 . S
N1133 H1136 0.984 . S
N1133 H1137 0.985 . S
H1134 N1129 0.984 . S
H1135 N1129 0.985 . S
H1136 N1133 0.984 . S
H1137 N1133 0.985 . S
H1138 N1132 0.984 . S
H1139 N1132 0.984 . S
H1140 N1128 0.984 . S
H1141 N1128 0.985 . S
C1142 C1143 1.363 . S
C1142 C1148 1.379 . S
C1142 N1150 1.356 . S
C1143 C1142 1.363 . S
C1143 C1149 1.363 . S
C1144 C1145 1.363 . S
C1144 C1149 1.379 . S
C1144 N1151 1.356 . S
C1145 C1144 1.363 . S
C1145 C1148 1.363 . S
N1146 C1148 1.356 . S
N1146 H1158 0.984 . S
N1146 H1159 0.985 . S
N1147 C1149 1.356 . S
N1147 H1152 0.984 . S
N1147 H1153 0.985 . S
C1148 C1142 1.379 . S
C1148 C1145 1.363 . S
C1148 N1146 1.356 . S
C1149 C1143 1.363 . S
C1149 C1144 1.379 . S
C1149 N1147 1.356 . S
N1150 C1142 1.356 . S
N1150 H1156 0.984 . S
N1150 H1157 0.984 . S
N1151 C1144 1.356 . S
N1151 H1154 0.984 . S
N1151 H1155 0.985 . S
H1152 N1147 0.984 . S
H1153 N1147 0.985 . S
H1154 N1151 0.984 . S
H1155 N1151 0.985 . S
H1156 N1150 0.984 . S
H1157 N1150 0.984 . S
H1158 N1146 0.984 . S
H1159 N1146 0.985 . S
C1160 C1161 1.363 . S
C1160 C1166 1.379 . S
C1160 N1168 1.356 . S
C1161 C1160 1.363 . S
C1161 C1167 1.363 . S
C1162 C1163 1.363 . S
C1162 C1167 1.379 . S
C1162 N1169 1.356 . S
C1163 C1162 1.363 . S
C1163 C1166 1.363 . S
N1164 C1166 1.356 . S
N1164 H1176 0.984 . S
N1164 H1177 0.985 . S
N1165 C1167 1.356 . S
N1165 H1170 0.984 . S
N1165 H1171 0.985 . S
C1166 C1160 1.379 . S
C1166 C1163 1.363 . S
C1166 N1164 1.356 . S
C1167 C1161 1.363 . S
C1167 C1162 1.379 . S
C1167 N1165 1.356 . S
N1168 C1160 1.356 . S
N1168 H1174 0.984 . S
N1168 H1175 0.984 . S
N1169 C1162 1.356 . S
N1169 H1172 0.984 . S
N1169 H1173 0.985 . S
H1170 N1165 0.984 . S
H1171 N1165 0.985 . S
H1172 N1169 0.984 . S
H1173 N1169 0.985 . S
H1174 N1168 0.984 . S
H1175 N1168 0.984 . S
H1176 N1164 0.984 . S
H1177 N1164 0.985 . S
C1178 C1179 1.363 . S
C1178 C1184 1.379 . S
C1178 N1186 1.356 . S
C1179 C1178 1.363 . S
C1179 C1185 1.363 . S
C1180 C1181 1.363 . S
C1180 C1185 1.379 . S
C1180 N1187 1.356 . S
C1181 C1180 1.363 . S
C1181 C1184 1.363 . S
N1182 C1184 1.356 . S
N1182 H1194 0.984 . S
N1182 H1195 0.985 . S
N1183 C1185 1.356 . S
N1183 H1188 0.984 . S
N1183 H1189 0.985 . S
C1184 C1178 1.379 . S
C1184 C1181 1.363 . S
C1184 N1182 1.356 . S
C1185 C1179 1.363 . S
C1185 C1180 1.379 . S
C1185 N1183 1.356 . S
N1186 C1178 1.356 . S
N1186 H1192 0.984 . S
N1186 H1193 0.984 . S
N1187 C1180 1.356 . S
N1187 H1190 0.984 . S
N1187 H1191 0.985 . S
H1188 N1183 0.984 . S
H1189 N1183 0.985 . S
H1190 N1187 0.984 . S
H1191 N1187 0.985 . S
H1192 N1186 0.984 . S
H1193 N1186 0.984 . S
H1194 N1182 0.984 . S
H1195 N1182 0.985 . S
C1196 C1197 1.363 . S
C1196 C1202 1.379 . S
C1196 N1204 1.356 . S
C1197 C1196 1.363 . S
C1197 C1203 1.363 . S
C1198 C1199 1.363 . S
C1198 C1203 1.379 . S
C1198 N1205 1.356 . S
C1199 C1198 1.363 . S
C1199 C1202 1.363 . S
N1200 C1202 1.356 . S
N1200 H1212 0.984 . S
N1200 H1213 0.985 . S
N1201 C1203 1.356 . S
N1201 H1206 0.984 . S
N1201 H1207 0.985 . S
C1202 C1196 1.379 . S
C1202 C1199 1.363 . S
C1202 N1200 1.356 . S
C1203 C1197 1.363 . S
C1203 C1198 1.379 . S
C1203 N1201 1.356 . S
N1204 C1196 1.356 . S
N1204 H1210 0.984 . S
N1204 H1211 0.984 . S
N1205 C1198 1.356 . S
N1205 H1208 0.984 . S
N1205 H1209 0.985 . S
H1206 N1201 0.984 . S
H1207 N1201 0.985 . S
H1208 N1205 0.984 . S
H1209 N1205 0.985 . S
H1210 N1204 0.984 . S
H1211 N1204 0.984 . S
H1212 N1200 0.984 . S
H1213 N1200 0.985 . S
C1214 C1215 1.363 . S
C1214 C1220 1.379 . S
C1214 N1222 1.356 . S
C1215 C1214 1.363 . S
C1215 C1221 1.363 1_565 S
C1216 C1217 1.363 1_545 S
C1216 C1221 1.379 . S
C1216 N1223 1.356 . S
C1217 C1216 1.363 1_565 S
C1217 C1220 1.363 . S
N1218 C1220 1.356 . S
N1218 H1230 0.984 . S
N1218 H1231 0.985 . S
N1219 C1221 1.356 . S
N1219 H1224 0.984 . S
N1219 H1225 0.985 . S
C1220 C1214 1.379 . S
C1220 C1217 1.363 . S
C1220 N1218 1.356 . S
C1221 C1215 1.363 1_545 S
C1221 C1216 1.379 . S
C1221 N1219 1.356 . S
N1222 C1214 1.356 . S
N1222 H1228 0.984 . S
N1222 H1229 0.984 . S
N1223 C1216 1.356 . S
N1223 H1226 0.984 . S
N1223 H1227 0.985 . S
H1224 N1219 0.984 . S
H1225 N1219 0.985 . S
H1226 N1223 0.984 . S
H1227 N1223 0.985 . S
H1228 N1222 0.984 . S
H1229 N1222 0.984 . S
H1230 N1218 0.984 . S
H1231 N1218 0.985 . S
C1232 C1233 1.363 . S
C1232 C1238 1.379 . S
C1232 N1240 1.356 . S
C1233 C1232 1.363 . S
C1233 C1239 1.363 . S
C1234 C1235 1.363 . S
C1234 C1239 1.379 . S
C1234 N1241 1.356 . S
C1235 C1234 1.363 . S
C1235 C1238 1.363 . S
N1236 C1238 1.356 . S
N1236 H1248 0.984 . S
N1236 H1249 0.985 . S
N1237 C1239 1.356 . S
N1237 H1242 0.984 . S
N1237 H1243 0.985 . S
C1238 C1232 1.379 . S
C1238 C1235 1.363 . S
C1238 N1236 1.356 . S
C1239 C1233 1.363 . S
C1239 C1234 1.379 . S
C1239 N1237 1.356 . S
N1240 C1232 1.356 . S
N1240 H1246 0.984 . S
N1240 H1247 0.984 . S
N1241 C1234 1.356 . S
N1241 H1244 0.984 . S
N1241 H1245 0.985 . S
H1242 N1237 0.984 . S
H1243 N1237 0.985 . S
H1244 N1241 0.984 . S
H1245 N1241 0.985 . S
H1246 N1240 0.984 . S
H1247 N1240 0.984 . S
H1248 N1236 0.984 . S
H1249 N1236 0.985 . S
C1250 C1251 1.363 . S
C1250 C1256 1.379 . S
C1250 N1258 1.356 . S
C1251 C1250 1.363 . S
C1251 C1257 1.363 1_545 S
C1252 C1253 1.363 1_565 S
C1252 C1257 1.379 . S
C1252 N1259 1.356 . S
C1253 C1252 1.363 1_545 S
C1253 C1256 1.363 . S
N1254 C1256 1.356 . S
N1254 H1266 0.984 . S
N1254 H1267 0.985 . S
N1255 C1257 1.356 . S
N1255 H1260 0.984 . S
N1255 H1261 0.985 . S
C1256 C1250 1.379 . S
C1256 C1253 1.363 . S
C1256 N1254 1.356 . S
C1257 C1251 1.363 1_565 S
C1257 C1252 1.379 . S
C1257 N1255 1.356 . S
N1258 C1250 1.356 . S
N1258 H1264 0.984 . S
N1258 H1265 0.984 . S
N1259 C1252 1.356 . S
N1259 H1262 0.984 . S
N1259 H1263 0.985 . S
H1260 N1255 0.984 . S
H1261 N1255 0.985 . S
H1262 N1259 0.984 . S
H1263 N1259 0.985 . S
H1264 N1258 0.984 . S
H1265 N1258 0.984 . S
H1266 N1254 0.984 . S
H1267 N1254 0.985 . S
C1268 C1269 1.363 . S
C1268 C1274 1.379 . S
C1268 N1276 1.356 . S
C1269 C1268 1.363 . S
C1269 C1275 1.363 . S
C1270 C1271 1.363 . S
C1270 C1275 1.379 . S
C1270 N1277 1.356 . S
C1271 C1270 1.363 . S
C1271 C1274 1.363 . S
N1272 C1274 1.356 . S
N1272 H1284 0.984 . S
N1272 H1285 0.985 . S
N1273 C1275 1.356 . S
N1273 H1278 0.984 . S
N1273 H1279 0.985 . S
C1274 C1268 1.379 . S
C1274 C1271 1.363 . S
C1274 N1272 1.356 . S
C1275 C1269 1.363 . S
C1275 C1270 1.379 . S
C1275 N1273 1.356 . S
N1276 C1268 1.356 . S
N1276 H1282 0.984 . S
N1276 H1283 0.984 . S
N1277 C1270 1.356 . S
N1277 H1280 0.984 . S
N1277 H1281 0.985 . S
H1278 N1273 0.984 . S
H1279 N1273 0.985 . S
H1280 N1277 0.984 . S
H1281 N1277 0.985 . S
H1282 N1276 0.984 . S
H1283 N1276 0.984 . S
H1284 N1272 0.984 . S
H1285 N1272 0.985 . S
C1286 C1287 1.363 . S
C1286 C1292 1.379 . S
C1286 N1294 1.356 . S
C1287 C1286 1.363 . S
C1287 C1293 1.363 1_556 S
C1288 C1289 1.363 1_554 S
C1288 C1293 1.379 . S
C1288 N1295 1.356 . S
C1289 C1288 1.363 1_556 S
C1289 C1292 1.363 . S
N1290 C1292 1.356 . S
N1290 H1302 0.984 . S
N1290 H1303 0.985 . S
N1291 C1293 1.356 . S
N1291 H1296 0.984 . S
N1291 H1297 0.985 . S
C1292 C1286 1.379 . S
C1292 C1289 1.363 . S
C1292 N1290 1.356 . S
C1293 C1287 1.363 1_554 S
C1293 C1288 1.379 . S
C1293 N1291 1.356 . S
N1294 C1286 1.356 . S
N1294 H1300 0.984 . S
N1294 H1301 0.984 . S
N1295 C1288 1.356 . S
N1295 H1298 0.984 . S
N1295 H1299 0.985 . S
H1296 N1291 0.984 . S
H1297 N1291 0.985 . S
H1298 N1295 0.984 . S
H1299 N1295 0.985 . S
H1300 N1294 0.984 . S
H1301 N1294 0.984 . S
H1302 N1290 0.984 . S
H1303 N1290 0.985 . S
C1304 C1305 1.363 . S
C1304 C1310 1.379 . S
C1304 N1312 1.356 . S
C1305 C1304 1.363 . S
C1305 C1311 1.363 1_556 S
C1306 C1307 1.363 1_554 S
C1306 C1311 1.379 . S
C1306 N1313 1.356 . S
C1307 C1306 1.363 1_556 S
C1307 C1310 1.363 . S
N1308 C1310 1.356 . S
N1308 H1320 0.984 . S
N1308 H1321 0.985 . S
N1309 C1311 1.356 . S
N1309 H1314 0.984 . S
N1309 H1315 0.985 . S
C1310 C1304 1.379 . S
C1310 C1307 1.363 . S
C1310 N1308 1.356 . S
C1311 C1305 1.363 1_554 S
C1311 C1306 1.379 . S
C1311 N1309 1.356 . S
N1312 C1304 1.356 . S
N1312 H1318 0.984 . S
N1312 H1319 0.984 . S
N1313 C1306 1.356 . S
N1313 H1316 0.984 . S
N1313 H1317 0.985 . S
H1314 N1309 0.984 . S
H1315 N1309 0.985 . S
H1316 N1313 0.984 . S
H1317 N1313 0.985 . S
H1318 N1312 0.984 . S
H1319 N1312 0.984 . S
H1320 N1308 0.984 . S
H1321 N1308 0.985 . S
C1322 C1323 1.363 . S
C1322 C1328 1.379 . S
C1322 N1330 1.356 . S
C1323 C1322 1.363 . S
C1323 C1329 1.363 . S
C1324 C1325 1.363 1_655 S
C1324 C1329 1.379 . S
C1324 N1331 1.356 . S
C1325 C1324 1.363 1_455 S
C1325 C1328 1.363 1_455 S
N1326 C1328 1.356 1_455 S
N1326 H1338 0.984 . S
N1326 H1339 0.985 . S
N1327 C1329 1.356 . S
N1327 H1332 0.984 . S
N1327 H1333 0.985 1_554 S
C1328 C1322 1.379 . S
C1328 C1325 1.363 1_655 S
C1328 N1326 1.356 1_655 S
C1329 C1323 1.363 . S
C1329 C1324 1.379 . S
C1329 N1327 1.356 . S
N1330 C1322 1.356 . S
N1330 H1336 0.984 . S
N1330 H1337 0.984 . S
N1331 C1324 1.356 . S
N1331 H1334 0.984 1_655 S
N1331 H1335 0.985 1_554 S
H1332 N1327 0.984 . S
H1333 N1327 0.985 1_556 S
H1334 N1331 0.984 1_455 S
H1335 N1331 0.985 1_556 S
H1336 N1330 0.984 . S
H1337 N1330 0.984 . S
H1338 N1326 0.984 . S
H1339 N1326 0.985 . S
C1340 C1341 1.363 . S
C1340 C1346 1.379 . S
C1340 N1348 1.356 . S
C1341 C1340 1.363 . S
C1341 C1347 1.363 . S
C1342 C1343 1.363 . S
C1342 C1347 1.379 . S
C1342 N1349 1.356 1_455 S
C1343 C1342 1.363 . S
C1343 C1346 1.363 . S
N1344 C1346 1.356 . S
N1344 H1356 0.984 . S
N1344 H1357 0.985 . S
N1345 C1347 1.356 1_655 S
N1345 H1350 0.984 . S
N1345 H1351 0.985 . S
C1346 C1340 1.379 . S
C1346 C1343 1.363 . S
C1346 N1344 1.356 . S
C1347 C1341 1.363 . S
C1347 C1342 1.379 . S
C1347 N1345 1.356 1_455 S
N1348 C1340 1.356 . S
N1348 H1354 0.984 . S
N1348 H1355 0.984 . S
N1349 C1342 1.356 1_655 S
N1349 H1352 0.984 . S
N1349 H1353 0.985 . S
H1350 N1345 0.984 . S
H1351 N1345 0.985 . S
H1352 N1349 0.984 . S
H1353 N1349 0.985 . S
H1354 N1348 0.984 . S
H1355 N1348 0.984 . S
H1356 N1344 0.984 . S
H1357 N1344 0.985 . S
C1358 C1359 1.363 1_455 S
C1358 C1364 1.379 . S
C1358 N1366 1.356 . S
C1359 C1358 1.363 1_655 S
C1359 C1365 1.363 . S
C1360 C1361 1.368 . S
C1360 C1365 1.376 1_455 S
C1360 N1367 1.357 . S
C1361 C1360 1.368 . S
C1361 C1364 1.363 . S
N1362 C1364 1.356 . S
N1362 H1374 0.984 . S
N1362 H1375 0.985 . S
N1363 C1365 1.356 . S
N1363 H1368 0.984 . S
N1363 H1369 0.985 . S
C1364 C1358 1.379 . S
C1364 C1361 1.363 . S
C1364 N1362 1.356 . S
C1365 C1359 1.363 . S
C1365 C1360 1.376 1_655 S
C1365 N1363 1.356 . S
N1366 C1358 1.356 . S
N1366 H1372 0.984 . S
N1366 H1373 0.979 1_455 S
N1367 C1360 1.357 . S
N1367 H1370 0.990 . S
N1367 H1371 0.978 1_455 S
H1368 N1363 0.984 . S
H1369 N1363 0.985 . S
H1370 N1367 0.990 . S
H1371 N1367 0.978 1_655 S
H1372 N1366 0.984 . S
H1373 N1366 0.979 1_655 S
H1374 N1362 0.984 . S
H1375 N1362 0.985 . S
C1376 C1377 1.363 . S
C1376 C1382 1.379 1_455 S
C1376 N1384 1.356 1_455 S
C1377 C1376 1.363 . S
C1377 C1383 1.363 . S
C1378 C1379 1.363 . S
C1378 C1383 1.379 . S
C1378 N1385 1.356 . S
C1379 C1378 1.363 . S
C1379 C1382 1.363 1_455 S
N1380 C1382 1.356 . S
N1380 H1392 0.984 . S
N1380 H1393 0.985 . S
N1381 C1383 1.356 . S
N1381 H1386 0.984 . S
N1381 H1387 0.985 . S
C1382 C1376 1.379 1_655 S
C1382 C1379 1.363 1_655 S
C1382 N1380 1.356 . S
C1383 C1377 1.363 . S
C1383 C1378 1.379 . S
C1383 N1381 1.356 . S
N1384 C1376 1.356 1_655 S
N1384 H1390 0.984 . S
N1384 H1391 0.984 1_655 S
N1385 C1378 1.356 . S
N1385 H1388 0.984 . S
N1385 H1389 0.985 . S
H1386 N1381 0.984 . S
H1387 N1381 0.985 . S
H1388 N1385 0.984 . S
H1389 N1385 0.985 . S
H1390 N1384 0.984 . S
H1391 N1384 0.984 1_455 S
H1392 N1380 0.984 . S
H1393 N1380 0.985 . S
C1394 C1395 1.363 1_455 S
C1394 C1400 1.379 . S
C1394 N1402 1.356 . S
C1395 C1394 1.363 1_655 S
C1395 C1401 1.363 . S
C1396 C1397 1.363 . S
C1396 C1401 1.379 . S
C1396 N1403 1.356 . S
C1397 C1396 1.363 . S
C1397 C1400 1.363 1_655 S
N1398 C1400 1.356 . S
N1398 H1410 0.984 . S
N1398 H1411 0.985 . S
N1399 C1401 1.356 . S
N1399 H1404 0.984 . S
N1399 H1405 0.985 . S
C1400 C1394 1.379 . S
C1400 C1397 1.363 1_455 S
C1400 N1398 1.356 . S
C1401 C1395 1.363 . S
C1401 C1396 1.379 . S
C1401 N1399 1.356 . S
N1402 C1394 1.356 . S
N1402 H1408 0.984 . S
N1402 H1409 0.984 . S
N1403 C1396 1.356 . S
N1403 H1406 0.984 . S
N1403 H1407 0.985 . S
H1404 N1399 0.984 . S
H1405 N1399 0.985 . S
H1406 N1403 0.984 . S
H1407 N1403 0.985 . S
H1408 N1402 0.984 . S
H1409 N1402 0.984 . S
H1410 N1398 0.984 . S
H1411 N1398 0.985 . S
C1412 C1413 1.363 . S
C1412 C1418 1.379 . S
C1412 N1420 1.356 1_545 S
C1413 C1412 1.363 . S
C1413 C1419 1.363 . S
C1414 C1415 1.363 . S
C1414 C1419 1.379 . S
C1414 N1421 1.356 . S
C1415 C1414 1.363 . S
C1415 C1418 1.363 . S
N1416 C1418 1.356 1_565 S
N1416 H1428 0.984 . S
N1416 H1429 0.985 . S
N1417 C1419 1.356 . S
N1417 H1422 0.984 . S
N1417 H1423 0.985 . S
C1418 C1412 1.379 . S
C1418 C1415 1.363 . S
C1418 N1416 1.356 1_545 S
C1419 C1413 1.363 . S
C1419 C1414 1.379 . S
C1419 N1417 1.356 . S
N1420 C1412 1.356 1_565 S
N1420 H1426 0.984 . S
N1420 H1427 0.984 . S
N1421 C1414 1.356 . S
N1421 H1424 0.984 . S
N1421 H1425 0.985 . S
H1422 N1417 0.984 . S
H1423 N1417 0.985 . S
H1424 N1421 0.984 . S
H1425 N1421 0.985 . S
H1426 N1420 0.984 . S
H1427 N1420 0.984 . S
H1428 N1416 0.984 . S
H1429 N1416 0.985 . S
C1430 C1431 1.363 . S
C1430 C1436 1.379 . S
C1430 N1438 1.356 . S
C1431 C1430 1.363 . S
C1431 C1437 1.363 . S
C1432 C1433 1.363 . S
C1432 C1437 1.379 . S
C1432 N1439 1.356 . S
C1433 C1432 1.363 . S
C1433 C1436 1.363 . S
N1434 C1436 1.356 . S
N1434 H1446 0.984 . S
N1434 H1447 0.985 . S
N1435 C1437 1.356 . S
N1435 H1440 0.984 . S
N1435 H1441 0.985 . S
C1436 C1430 1.379 . S
C1436 C1433 1.363 . S
C1436 N1434 1.356 . S
C1437 C1431 1.363 . S
C1437 C1432 1.379 . S
C1437 N1435 1.356 . S
N1438 C1430 1.356 . S
N1438 H1444 0.984 . S
N1438 H1445 0.984 . S
N1439 C1432 1.356 . S
N1439 H1442 0.984 . S
N1439 H1443 0.985 . S
H1440 N1435 0.984 . S
H1441 N1435 0.985 . S
H1442 N1439 0.984 . S
H1443 N1439 0.985 . S
H1444 N1438 0.984 . S
H1445 N1438 0.984 . S
H1446 N1434 0.984 . S
H1447 N1434 0.985 . S
C1448 C1449 1.363 . S
C1448 C1454 1.379 . S
C1448 N1456 1.356 . S
C1449 C1448 1.363 . S
C1449 C1455 1.363 . S
C1450 C1451 1.363 . S
C1450 C1455 1.379 . S
C1450 N1457 1.356 . S
C1451 C1450 1.363 . S
C1451 C1454 1.363 . S
N1452 C1454 1.356 . S
N1452 H1464 0.984 . S
N1452 H1465 0.985 . S
N1453 C1455 1.356 1_545 S
N1453 H1458 0.984 . S
N1453 H1459 0.985 . S
C1454 C1448 1.379 . S
C1454 C1451 1.363 . S
C1454 N1452 1.356 . S
C1455 C1449 1.363 . S
C1455 C1450 1.379 . S
C1455 N1453 1.356 1_565 S
N1456 C1448 1.356 . S
N1456 H1462 0.984 . S
N1456 H1463 0.984 . S
N1457 C1450 1.356 . S
N1457 H1460 0.984 . S
N1457 H1461 0.985 1_565 S
H1458 N1453 0.984 . S
H1459 N1453 0.985 . S
H1460 N1457 0.984 . S
H1461 N1457 0.985 1_545 S
H1462 N1456 0.984 . S
H1463 N1456 0.984 . S
H1464 N1452 0.984 . S
H1465 N1452 0.985 . S
C1466 C1467 1.363 . S
C1466 C1472 1.379 . S
C1466 N1474 1.356 . S
C1467 C1466 1.363 . S
C1467 C1473 1.363 . S
C1468 C1469 1.363 . S
C1468 C1473 1.379 . S
C1468 N1475 1.356 . S
C1469 C1468 1.363 . S
C1469 C1472 1.363 . S
N1470 C1472 1.356 . S
N1470 H1482 0.984 . S
N1470 H1483 0.985 . S
N1471 C1473 1.356 . S
N1471 H1476 0.984 . S
N1471 H1477 0.985 . S
C1472 C1466 1.379 . S
C1472 C1469 1.363 . S
C1472 N1470 1.356 . S
C1473 C1467 1.363 . S
C1473 C1468 1.379 . S
C1473 N1471 1.356 . S
N1474 C1466 1.356 . S
N1474 H1480 0.984 . S
N1474 H1481 0.984 . S
N1475 C1468 1.356 . S
N1475 H1478 0.984 . S
N1475 H1479 0.985 . S
H1476 N1471 0.984 . S
H1477 N1471 0.985 . S
H1478 N1475 0.984 . S
H1479 N1475 0.985 . S
H1480 N1474 0.984 . S
H1481 N1474 0.984 . S
H1482 N1470 0.984 . S
H1483 N1470 0.985 . S
C1484 C1485 1.363 . S
C1484 C1490 1.379 . S
C1484 N1492 1.356 . S
C1485 C1484 1.363 . S
C1485 C1491 1.363 . S
C1486 C1487 1.363 . S
C1486 C1491 1.379 . S
C1486 N1493 1.356 1_554 S
C1487 C1486 1.363 . S
C1487 C1490 1.363 . S
N1488 C1490 1.356 . S
N1488 H1500 0.984 . S
N1488 H1501 0.985 . S
N1489 C1491 1.356 1_556 S
N1489 H1494 0.984 . S
N1489 H1495 0.985 . S
C1490 C1484 1.379 . S
C1490 C1487 1.363 . S
C1490 N1488 1.356 . S
C1491 C1485 1.363 . S
C1491 C1486 1.379 . S
C1491 N1489 1.356 1_554 S
N1492 C1484 1.356 . S
N1492 H1498 0.984 . S
N1492 H1499 0.984 . S
N1493 C1486 1.356 1_556 S
N1493 H1496 0.984 1_556 S
N1493 H1497 0.985 . S
H1494 N1489 0.984 . S
H1495 N1489 0.985 . S
H1496 N1493 0.984 1_554 S
H1497 N1493 0.985 . S
H1498 N1492 0.984 . S
H1499 N1492 0.984 . S
H1500 N1488 0.984 . S
H1501 N1488 0.985 . S
C1502 C1503 1.363 . S
C1502 C1508 1.379 . S
C1502 N1510 1.356 . S
C1503 C1502 1.363 . S
C1503 C1509 1.363 . S
C1504 C1505 1.363 . S
C1504 C1509 1.379 . S
C1504 N1511 1.356 . S
C1505 C1504 1.363 . S
C1505 C1508 1.363 . S
N1506 C1508 1.356 . S
N1506 H1518 0.984 . S
N1506 H1519 0.985 . S
N1507 C1509 1.356 . S
N1507 H1512 0.984 . S
N1507 H1513 0.985 . S
C1508 C1502 1.379 . S
C1508 C1505 1.363 . S
C1508 N1506 1.356 . S
C1509 C1503 1.363 . S
C1509 C1504 1.379 . S
C1509 N1507 1.356 . S
N1510 C1502 1.356 . S
N1510 H1516 0.984 . S
N1510 H1517 0.984 . S
N1511 C1504 1.356 . S
N1511 H1514 0.984 . S
N1511 H1515 0.985 . S
H1512 N1507 0.984 . S
H1513 N1507 0.985 . S
H1514 N1511 0.984 . S
H1515 N1511 0.985 . S
H1516 N1510 0.984 . S
H1517 N1510 0.984 . S
H1518 N1506 0.984 . S
H1519 N1506 0.985 . S
C1520 C1521 1.363 . S
C1520 C1526 1.379 . S
C1520 N1528 1.356 . S
C1521 C1520 1.363 . S
C1521 C1527 1.363 . S
C1522 C1523 1.363 . S
C1522 C1527 1.379 . S
C1522 N1529 1.356 . S
C1523 C1522 1.363 . S
C1523 C1526 1.363 . S
N1524 C1526 1.356 . S
N1524 H1536 0.984 . S
N1524 H1537 0.985 . S
N1525 C1527 1.356 . S
N1525 H1530 0.984 . S
N1525 H1531 0.985 . S
C1526 C1520 1.379 . S
C1526 C1523 1.363 . S
C1526 N1524 1.356 . S
C1527 C1521 1.363 . S
C1527 C1522 1.379 . S
C1527 N1525 1.356 . S
N1528 C1520 1.356 . S
N1528 H1534 0.984 . S
N1528 H1535 0.984 . S
N1529 C1522 1.356 . S
N1529 H1532 0.984 . S
N1529 H1533 0.985 . S
H1530 N1525 0.984 . S
H1531 N1525 0.985 . S
H1532 N1529 0.984 . S
H1533 N1529 0.985 . S
H1534 N1528 0.984 . S
H1535 N1528 0.984 . S
H1536 N1524 0.984 . S
H1537 N1524 0.985 . S
C1538 C1539 1.363 . S
C1538 C1544 1.379 . S
C1538 N1546 1.356 . S
C1539 C1538 1.363 . S
C1539 C1545 1.363 . S
C1540 C1541 1.363 . S
C1540 C1545 1.379 . S
C1540 N1547 1.356 . S
C1541 C1540 1.363 . S
C1541 C1544 1.363 . S
N1542 C1544 1.356 . S
N1542 H1554 0.984 . S
N1542 H1555 0.985 . S
N1543 C1545 1.356 . S
N1543 H1548 0.984 . S
N1543 H1549 0.985 . S
C1544 C1538 1.379 . S
C1544 C1541 1.363 . S
C1544 N1542 1.356 . S
C1545 C1539 1.363 . S
C1545 C1540 1.379 . S
C1545 N1543 1.356 . S
N1546 C1538 1.356 . S
N1546 H1552 0.984 . S
N1546 H1553 0.984 . S
N1547 C1540 1.356 . S
N1547 H1550 0.984 . S
N1547 H1551 0.985 . S
H1548 N1543 0.984 . S
H1549 N1543 0.985 . S
H1550 N1547 0.984 . S
H1551 N1547 0.985 . S
H1552 N1546 0.984 . S
H1553 N1546 0.984 . S
H1554 N1542 0.984 . S
H1555 N1542 0.985 . S
C1556 C1557 1.363 . S
C1556 C1562 1.379 . S
C1556 N1564 1.356 . S
C1557 C1556 1.363 . S
C1557 C1563 1.363 . S
C1558 C1559 1.363 . S
C1558 C1563 1.379 . S
C1558 N1565 1.356 . S
C1559 C1558 1.363 . S
C1559 C1562 1.363 . S
N1560 C1562 1.356 . S
N1560 H1572 0.984 . S
N1560 H1573 0.985 . S
N1561 C1563 1.356 . S
N1561 H1566 0.984 . S
N1561 H1567 0.985 . S
C1562 C1556 1.379 . S
C1562 C1559 1.363 . S
C1562 N1560 1.356 . S
C1563 C1557 1.363 . S
C1563 C1558 1.379 . S
C1563 N1561 1.356 . S
N1564 C1556 1.356 . S
N1564 H1570 0.984 . S
N1564 H1571 0.984 . S
N1565 C1558 1.356 . S
N1565 H1568 0.984 . S
N1565 H1569 0.985 . S
H1566 N1561 0.984 . S
H1567 N1561 0.985 . S
H1568 N1565 0.984 . S
H1569 N1565 0.985 . S
H1570 N1564 0.984 . S
H1571 N1564 0.984 . S
H1572 N1560 0.984 . S
H1573 N1560 0.985 . S
C1574 C1575 1.363 . S
C1574 C1580 1.379 . S
C1574 N1582 1.356 . S
C1575 C1574 1.363 . S
C1575 C1581 1.363 . S
C1576 C1577 1.363 . S
C1576 C1581 1.379 . S
C1576 N1583 1.356 . S
C1577 C1576 1.363 . S
C1577 C1580 1.363 . S
N1578 C1580 1.356 . S
N1578 H1590 0.984 . S
N1578 H1591 0.985 . S
N1579 C1581 1.356 . S
N1579 H1584 0.984 . S
N1579 H1585 0.985 . S
C1580 C1574 1.379 . S
C1580 C1577 1.363 . S
C1580 N1578 1.356 . S
C1581 C1575 1.363 . S
C1581 C1576 1.379 . S
C1581 N1579 1.356 . S
N1582 C1574 1.356 . S
N1582 H1588 0.984 . S
N1582 H1589 0.984 . S
N1583 C1576 1.356 . S
N1583 H1586 0.984 . S
N1583 H1587 0.985 . S
H1584 N1579 0.984 . S
H1585 N1579 0.985 . S
H1586 N1583 0.984 . S
H1587 N1583 0.985 . S
H1588 N1582 0.984 . S
H1589 N1582 0.984 . S
H1590 N1578 0.984 . S
H1591 N1578 0.985 . S
C1592 C1593 1.363 . S
C1592 C1598 1.379 . S
C1592 N1600 1.356 . S
C1593 C1592 1.363 . S
C1593 C1599 1.363 . S
C1594 C1595 1.363 . S
C1594 C1599 1.379 . S
C1594 N1601 1.356 . S
C1595 C1594 1.363 . S
C1595 C1598 1.363 . S
N1596 C1598 1.356 . S
N1596 H1608 0.984 . S
N1596 H1609 0.985 . S
N1597 C1599 1.356 . S
N1597 H1602 0.984 . S
N1597 H1603 0.985 . S
C1598 C1592 1.379 . S
C1598 C1595 1.363 . S
C1598 N1596 1.356 . S
C1599 C1593 1.363 . S
C1599 C1594 1.379 . S
C1599 N1597 1.356 . S
N1600 C1592 1.356 . S
N1600 H1606 0.984 . S
N1600 H1607 0.984 . S
N1601 C1594 1.356 . S
N1601 H1604 0.984 . S
N1601 H1605 0.985 . S
H1602 N1597 0.984 . S
H1603 N1597 0.985 . S
H1604 N1601 0.984 . S
H1605 N1601 0.985 . S
H1606 N1600 0.984 . S
H1607 N1600 0.984 . S
H1608 N1596 0.984 . S
H1609 N1596 0.985 . S
C1610 C1611 1.363 . S
C1610 C1616 1.379 . S
C1610 N1618 1.356 . S
C1611 C1610 1.363 . S
C1611 C1617 1.363 . S
C1612 C1613 1.363 . S
C1612 C1617 1.379 . S
C1612 N1619 1.356 . S
C1613 C1612 1.363 . S
C1613 C1616 1.363 . S
N1614 C1616 1.356 . S
N1614 H1626 0.984 . S
N1614 H1627 0.985 . S
N1615 C1617 1.356 . S
N1615 H1620 0.984 . S
N1615 H1621 0.985 . S
C1616 C1610 1.379 . S
C1616 C1613 1.363 . S
C1616 N1614 1.356 . S
C1617 C1611 1.363 . S
C1617 C1612 1.379 . S
C1617 N1615 1.356 . S
N1618 C1610 1.356 . S
N1618 H1624 0.984 . S
N1618 H1625 0.984 . S
N1619 C1612 1.356 . S
N1619 H1622 0.984 . S
N1619 H1623 0.985 . S
H1620 N1615 0.984 . S
H1621 N1615 0.985 . S
H1622 N1619 0.984 . S
H1623 N1619 0.985 . S
H1624 N1618 0.984 . S
H1625 N1618 0.984 . S
H1626 N1614 0.984 . S
H1627 N1614 0.985 . S
C1628 C1629 1.363 . S
C1628 C1634 1.379 . S
C1628 N1636 1.356 . S
C1629 C1628 1.363 . S
C1629 C1635 1.363 . S
C1630 C1631 1.363 . S
C1630 C1635 1.379 . S
C1630 N1637 1.356 . S
C1631 C1630 1.363 . S
C1631 C1634 1.363 . S
N1632 C1634 1.356 . S
N1632 H1644 0.984 . S
N1632 H1645 0.985 . S
N1633 C1635 1.356 . S
N1633 H1638 0.984 . S
N1633 H1639 0.985 . S
C1634 C1628 1.379 . S
C1634 C1631 1.363 . S
C1634 N1632 1.356 . S
C1635 C1629 1.363 . S
C1635 C1630 1.379 . S
C1635 N1633 1.356 . S
N1636 C1628 1.356 . S
N1636 H1642 0.984 . S
N1636 H1643 0.984 . S
N1637 C1630 1.356 . S
N1637 H1640 0.984 . S
N1637 H1641 0.985 . S
H1638 N1633 0.984 . S
H1639 N1633 0.985 . S
H1640 N1637 0.984 . S
H1641 N1637 0.985 . S
H1642 N1636 0.984 . S
H1643 N1636 0.984 . S
H1644 N1632 0.984 . S
H1645 N1632 0.985 . S
C1646 C1647 1.363 1_545 S
C1646 C1652 1.379 . S
C1646 N1654 1.356 . S
C1647 C1646 1.363 1_565 S
C1647 C1653 1.363 . S
C1648 C1649 1.363 . S
C1648 C1653 1.379 . S
C1648 N1655 1.356 . S
C1649 C1648 1.363 . S
C1649 C1652 1.363 1_565 S
N1650 C1652 1.356 . S
N1650 H1662 0.984 . S
N1650 H1663 0.985 . S
N1651 C1653 1.356 . S
N1651 H1656 0.984 . S
N1651 H1657 0.985 . S
C1652 C1646 1.379 . S
C1652 C1649 1.363 1_545 S
C1652 N1650 1.356 . S
C1653 C1647 1.363 . S
C1653 C1648 1.379 . S
C1653 N1651 1.356 . S
N1654 C1646 1.356 . S
N1654 H1660 0.984 . S
N1654 H1661 0.984 . S
N1655 C1648 1.356 . S
N1655 H1658 0.984 . S
N1655 H1659 0.985 . S
H1656 N1651 0.984 . S
H1657 N1651 0.985 . S
H1658 N1655 0.984 . S
H1659 N1655 0.985 . S
H1660 N1654 0.984 . S
H1661 N1654 0.984 . S
H1662 N1650 0.984 . S
H1663 N1650 0.985 . S
C1664 C1665 1.363 . S
C1664 C1670 1.379 . S
C1664 N1672 1.356 . S
C1665 C1664 1.363 . S
C1665 C1671 1.363 . S
C1666 C1667 1.363 . S
C1666 C1671 1.379 . S
C1666 N1673 1.356 . S
C1667 C1666 1.363 . S
C1667 C1670 1.363 . S
N1668 C1670 1.356 . S
N1668 H1680 0.984 . S
N1668 H1681 0.985 . S
N1669 C1671 1.356 . S
N1669 H1674 0.984 . S
N1669 H1675 0.985 . S
C1670 C1664 1.379 . S
C1670 C1667 1.363 . S
C1670 N1668 1.356 . S
C1671 C1665 1.363 . S
C1671 C1666 1.379 . S
C1671 N1669 1.356 . S
N1672 C1664 1.356 . S
N1672 H1678 0.984 . S
N1672 H1679 0.984 . S
N1673 C1666 1.356 . S
N1673 H1676 0.984 . S
N1673 H1677 0.985 . S
H1674 N1669 0.984 . S
H1675 N1669 0.985 . S
H1676 N1673 0.984 . S
H1677 N1673 0.985 . S
H1678 N1672 0.984 . S
H1679 N1672 0.984 . S
H1680 N1668 0.984 . S
H1681 N1668 0.985 . S
C1682 C1683 1.363 1_565 S
C1682 C1688 1.379 . S
C1682 N1690 1.356 . S
C1683 C1682 1.363 1_545 S
C1683 C1689 1.363 . S
C1684 C1685 1.363 . S
C1684 C1689 1.379 . S
C1684 N1691 1.356 . S
C1685 C1684 1.363 . S
C1685 C1688 1.363 1_545 S
N1686 C1688 1.356 . S
N1686 H1698 0.984 . S
N1686 H1699 0.985 . S
N1687 C1689 1.356 . S
N1687 H1692 0.984 . S
N1687 H1693 0.985 . S
C1688 C1682 1.379 . S
C1688 C1685 1.363 1_565 S
C1688 N1686 1.356 . S
C1689 C1683 1.363 . S
C1689 C1684 1.379 . S
C1689 N1687 1.356 . S
N1690 C1682 1.356 . S
N1690 H1696 0.984 . S
N1690 H1697 0.984 1_565 S
N1691 C1684 1.356 . S
N1691 H1694 0.984 . S
N1691 H1695 0.985 . S
H1692 N1687 0.984 . S
H1693 N1687 0.985 . S
H1694 N1691 0.984 . S
H1695 N1691 0.985 . S
H1696 N1690 0.984 . S
H1697 N1690 0.984 1_545 S
H1698 N1686 0.984 . S
H1699 N1686 0.985 . S
C1700 C1701 1.363 . S
C1700 C1706 1.379 . S
C1700 N1708 1.356 . S
C1701 C1700 1.363 . S
C1701 C1707 1.363 . S
C1702 C1703 1.363 . S
C1702 C1707 1.379 . S
C1702 N1709 1.356 . S
C1703 C1702 1.363 . S
C1703 C1706 1.363 . S
N1704 C1706 1.356 . S
N1704 H1716 0.984 . S
N1704 H1717 0.985 . S
N1705 C1707 1.356 . S
N1705 H1710 0.984 . S
N1705 H1711 0.985 . S
C1706 C1700 1.379 . S
C1706 C1703 1.363 . S
C1706 N1704 1.356 . S
C1707 C1701 1.363 . S
C1707 C1702 1.379 . S
C1707 N1705 1.356 . S
N1708 C1700 1.356 . S
N1708 H1714 0.984 . S
N1708 H1715 0.984 . S
N1709 C1702 1.356 . S
N1709 H1712 0.984 . S
N1709 H1713 0.985 . S
H1710 N1705 0.984 . S
H1711 N1705 0.985 . S
H1712 N1709 0.984 . S
H1713 N1709 0.985 . S
H1714 N1708 0.984 . S
H1715 N1708 0.984 . S
H1716 N1704 0.984 . S
H1717 N1704 0.985 . S
C1718 C1719 1.363 1_554 S
C1718 C1724 1.382 . S
C1718 N1726 1.356 . S
C1719 C1718 1.363 1_556 S
C1719 C1725 1.363 . S
C1720 C1721 1.363 . S
C1720 C1725 1.379 . S
C1720 N1727 1.356 . S
C1721 C1720 1.363 . S
C1721 C1724 1.352 1_556 S
N1722 C1724 1.362 . S
N1722 H1734 0.984 . S
N1722 H1735 0.985 . S
N1723 C1725 1.356 . S
N1723 H1728 0.984 . S
N1723 H1729 0.985 . S
C1724 C1718 1.382 . S
C1724 C1721 1.352 1_554 S
C1724 N1722 1.362 . S
C1725 C1719 1.363 . S
C1725 C1720 1.379 . S
C1725 N1723 1.356 . S
N1726 C1718 1.356 . S
N1726 H1732 0.984 . S
N1726 H1733 0.984 . S
N1727 C1720 1.356 . S
N1727 H1730 0.984 . S
N1727 H1731 0.985 . S
H1728 N1723 0.984 . S
H1729 N1723 0.985 . S
H1730 N1727 0.984 . S
H1731 N1727 0.985 . S
H1732 N1726 0.984 . S
H1733 N1726 0.984 . S
H1734 N1722 0.984 . S
H1735 N1722 0.985 . S
C1736 C1737 1.363 . S
C1736 C1742 1.379 . S
C1736 N1744 1.382 . S
C1737 C1736 1.363 . S
C1737 C1743 1.363 . S
C1738 C1739 1.363 . S
C1738 C1743 1.379 . S
C1738 N1745 1.356 . S
C1739 C1738 1.363 . S
C1739 C1742 1.363 . S
N1740 C1742 1.356 . S
N1740 H1752 0.984 . S
N1740 H1753 0.985 . S
N1741 C1743 1.356 . S
N1741 H1746 0.984 . S
N1741 H1747 0.985 . S
C1742 C1736 1.379 . S
C1742 C1739 1.363 . S
C1742 N1740 1.356 . S
C1743 C1737 1.363 . S
C1743 C1738 1.379 . S
C1743 N1741 1.356 . S
N1744 C1736 1.382 . S
N1744 H1750 0.962 1_556 S
N1744 H1751 0.983 1_556 S
N1745 C1738 1.356 . S
N1745 H1748 0.984 . S
N1745 H1749 0.985 . S
H1746 N1741 0.984 . S
H1747 N1741 0.985 . S
H1748 N1745 0.984 . S
H1749 N1745 0.985 . S
H1750 N1744 0.962 1_554 S
H1751 N1744 0.983 1_554 S
H1752 N1740 0.984 . S
H1753 N1740 0.985 . S
C1754 C1755 1.363 . S
C1754 C1760 1.379 . S
C1754 N1762 1.356 1_554 S
C1755 C1754 1.363 . S
C1755 C1761 1.363 . S
C1756 C1757 1.363 . S
C1756 C1761 1.379 . S
C1756 N1763 1.356 . S
C1757 C1756 1.363 . S
C1757 C1760 1.366 . S
N1758 C1760 1.354 1_556 S
N1758 H1770 0.984 . S
N1758 H1771 0.985 . S
N1759 C1761 1.356 . S
N1759 H1764 0.984 . S
N1759 H1765 0.985 . S
C1760 C1754 1.379 . S
C1760 C1757 1.366 . S
C1760 N1758 1.354 1_554 S
C1761 C1755 1.363 . S
C1761 C1756 1.379 . S
C1761 N1759 1.356 . S
N1762 C1754 1.356 1_556 S
N1762 H1768 0.984 . S
N1762 H1769 0.984 . S
N1763 C1756 1.356 . S
N1763 H1766 0.984 . S
N1763 H1767 0.985 . S
H1764 N1759 0.984 . S
H1765 N1759 0.985 . S
H1766 N1763 0.984 . S
H1767 N1763 0.985 . S
H1768 N1762 0.984 . S
H1769 N1762 0.984 . S
H1770 N1758 0.984 . S
H1771 N1758 0.985 . S
C909 C22 1.810 . S
C911 C704 1.825 1_545 S
C929 C767 2.043 . S
C927 C38 2.045 . S
C947 C644 1.968 1_565 S
C945 C75 1.941 . S
C963 C91 1.830 . S
C965 C678 1.819 1_455 S
C981 C128 1.870 . S
C983 C882 1.880 1_554 S
C999 C197 1.242 . S
C1001 C853 1.220 . S
C1019 C776 2.028 . S
C1017 C144 2.098 1_545 S
C1035 C181 1.612 . S
C1037 C810 1.584 . S
C1055 C699 2.039 . S
C1053 C234 2.076 . S
C1073 C742 1.461 . S
C1071 C303 1.471 . S
C1089 C356 2.058 . S
C1091 C721 2.028 . S
C1107 C287 1.722 . S
C1109 C835 1.726 . S
C1127 C840 1.723 . S
C1125 C393 1.680 . S
C1145 C903 2.110 1_565 S
C1143 C409 2.155 . S
C1161 C462 2.109 . S
C1163 C814 2.118 . S
C1181 C780 1.663 . S
C1179 C446 1.656 . S
C1197 C499 1.893 . S
C1199 C746 1.871 . S
C1215 C552 1.146 . S
C1217 C717 1.154 . S
C1235 C674 2.043 . S
C1233 C515 2.142 . S
C1251 C568 1.722 . S
C1253 C640 1.706 . S
C1271 C801 2.088 . S
C1269 C340 2.110 . S
C1289 C878 1.452 . S
C1287 C621 1.464 . S
C1305 C250 2.015 . S
C1307 C857 1.944 . S
C1323 C605 1.611 . S
C1325 C665 1.600 . S
C1343 C649 1.172 . S
C1341 C39 1.163 . S
C1359 C29 1.052 . S
C1361 C683 1.079 . S
C1379 C708 1.161 . S
C1377 C92 1.182 . S
C1397 C755 1.971 . S
C1395 C82 1.888 . S
C1413 C145 1.659 . S
C1415 C636 1.647 . S
C1431 C188 1.366 . S
C1433 C670 1.388 . S
C1451 C712 1.453 . S
C1449 C135 1.446 . S
C1467 C198 1.227 . S
C1469 C751 1.130 . S
C1485 C251 1.807 . S
C1487 C653 1.809 . S
C1505 C733 1.537 . S
C1503 C294 1.568 . S
C1521 C347 1.520 . S
C1523 C738 1.560 . S
C1539 C304 1.777 . S
C1541 C789 1.796 . S
C1559 C819 1.274 . S
C1557 C410 1.297 . S
C1575 C400 1.036 . S
C1577 C785 1.088 . S
C1593 C453 0.927 . S
C1595 C844 0.931 . S
C1611 C463 2.202 . S
C1613 C891 2.223 . S
C1629 C516 1.708 . S
C1631 C806 1.715 . S
C1649 C772 1.679 . S
C1647 C569 1.679 . S
C1665 C506 1.383 . S
C1667 C848 1.357 . S
C1685 C887 0.839 . S
C1683 C559 0.859 . S
C1703 C823 1.776 . S
C1701 C357 1.775 . S
C1721 C869 1.464 . S
C1719 C612 1.494 . S
C1739 C874 1.522 . S
C1737 C241 1.479 . S
C1755 C622 1.680 . S
C1757 C687 1.685 . S
