# Generated by pormake.
# Topology gar, (4,6)-cn, num edge types: 1
# Building blocks:
#     Node 0, Type 0, BuildingBlock: NAHDIM_clean_sbu_0, # of connection points: 4
#     Node 1, Type 0, BuildingBlock: NAHDIM_clean_sbu_0, # of connection points: 4
#     Node 2, Type 0, BuildingBlock: NAHDIM_clean_sbu_0, # of connection points: 4
#     Node 3, Type 0, BuildingBlock: NAHDIM_clean_sbu_0, # of connection points: 4
#     Node 4, Type 0, BuildingBlock: NAHDIM_clean_sbu_0, # of connection points: 4
#     Node 5, Type 0, BuildingBlock: NAHDIM_clean_sbu_0, # of connection points: 4
#     Node 6, Type 0, BuildingBlock: NAHDIM_clean_sbu_0, # of connection points: 4
#     Node 7, Type 0, BuildingBlock: NAHDIM_clean_sbu_0, # of connection points: 4
#     Node 8, Type 0, BuildingBlock: NAHDIM_clean_sbu_0, # of connection points: 4
#     Node 9, Type 0, BuildingBlock: NAHDIM_clean_sbu_0, # of connection points: 4
#     Node 10, Type 0, BuildingBlock: NAHDIM_clean_sbu_0, # of connection points: 4
#     Node 11, Type 0, BuildingBlock: NAHDIM_clean_sbu_0, # of connection points: 4
#     Node 12, Type 0, BuildingBlock: NAHDIM_clean_sbu_0, # of connection points: 4
#     Node 13, Type 0, BuildingBlock: NAHDIM_clean_sbu_0, # of connection points: 4
#     Node 14, Type 0, BuildingBlock: NAHDIM_clean_sbu_0, # of connection points: 4
#     Node 15, Type 0, BuildingBlock: NAHDIM_clean_sbu_0, # of connection points: 4
#     Node 16, Type 0, BuildingBlock: NAHDIM_clean_sbu_0, # of connection points: 4
#     Node 17, Type 0, BuildingBlock: NAHDIM_clean_sbu_0, # of connection points: 4
#     Node 18, Type 0, BuildingBlock: NAHDIM_clean_sbu_0, # of connection points: 4
#     Node 19, Type 0, BuildingBlock: NAHDIM_clean_sbu_0, # of connection points: 4
#     Node 20, Type 0, BuildingBlock: NAHDIM_clean_sbu_0, # of connection points: 4
#     Node 21, Type 0, BuildingBlock: NAHDIM_clean_sbu_0, # of connection points: 4
#     Node 22, Type 0, BuildingBlock: NAHDIM_clean_sbu_0, # of connection points: 4
#     Node 23, Type 0, BuildingBlock: NAHDIM_clean_sbu_0, # of connection points: 4
#     Node 24, Type 1, BuildingBlock: BETDIP_clean_sbu_0, # of connection points: 6
#     Node 25, Type 1, BuildingBlock: BETDIP_clean_sbu_0, # of connection points: 6
#     Node 26, Type 1, BuildingBlock: BETDIP_clean_sbu_0, # of connection points: 6
#     Node 27, Type 1, BuildingBlock: BETDIP_clean_sbu_0, # of connection points: 6
#     Node 28, Type 1, BuildingBlock: BETDIP_clean_sbu_0, # of connection points: 6
#     Node 29, Type 1, BuildingBlock: BETDIP_clean_sbu_0, # of connection points: 6
#     Node 30, Type 1, BuildingBlock: BETDIP_clean_sbu_0, # of connection points: 6
#     Node 31, Type 1, BuildingBlock: BETDIP_clean_sbu_0, # of connection points: 6
#     Node 32, Type 1, BuildingBlock: BETDIP_clean_sbu_0, # of connection points: 6
#     Node 33, Type 1, BuildingBlock: BETDIP_clean_sbu_0, # of connection points: 6
#     Node 34, Type 1, BuildingBlock: BETDIP_clean_sbu_0, # of connection points: 6
#     Node 35, Type 1, BuildingBlock: BETDIP_clean_sbu_0, # of connection points: 6
#     Node 36, Type 1, BuildingBlock: BETDIP_clean_sbu_0, # of connection points: 6
#     Node 37, Type 1, BuildingBlock: BETDIP_clean_sbu_0, # of connection points: 6
#     Node 38, Type 1, BuildingBlock: BETDIP_clean_sbu_0, # of connection points: 6
#     Node 39, Type 1, BuildingBlock: BETDIP_clean_sbu_0, # of connection points: 6
#     Edge 40, Type (0, 1), BuildingBlock: CIFDUS_clean_linker_0, # of connection points: 2
#     Edge 41, Type (0, 1), BuildingBlock: CIFDUS_clean_linker_0, # of connection points: 2
#     Edge 42, Type (0, 1), BuildingBlock: CIFDUS_clean_linker_0, # of connection points: 2
#     Edge 43, Type (0, 1), BuildingBlock: CIFDUS_clean_linker_0, # of connection points: 2
#     Edge 44, Type (0, 1), BuildingBlock: CIFDUS_clean_linker_0, # of connection points: 2
#     Edge 45, Type (0, 1), BuildingBlock: CIFDUS_clean_linker_0, # of connection points: 2
#     Edge 46, Type (0, 1), BuildingBlock: CIFDUS_clean_linker_0, # of connection points: 2
#     Edge 47, Type (0, 1), BuildingBlock: CIFDUS_clean_linker_0, # of connection points: 2
#     Edge 48, Type (0, 1), BuildingBlock: CIFDUS_clean_linker_0, # of connection points: 2
#     Edge 49, Type (0, 1), BuildingBlock: CIFDUS_clean_linker_0, # of connection points: 2
#     Edge 50, Type (0, 1), BuildingBlock: CIFDUS_clean_linker_0, # of connection points: 2
#     Edge 51, Type (0, 1), BuildingBlock: CIFDUS_clean_linker_0, # of connection points: 2
#     Edge 52, Type (0, 1), BuildingBlock: CIFDUS_clean_linker_0, # of connection points: 2
#     Edge 53, Type (0, 1), BuildingBlock: CIFDUS_clean_linker_0, # of connection points: 2
#     Edge 54, Type (0, 1), BuildingBlock: CIFDUS_clean_linker_0, # of connection points: 2
#     Edge 55, Type (0, 1), BuildingBlock: CIFDUS_clean_linker_0, # of connection points: 2
#     Edge 56, Type (0, 1), BuildingBlock: CIFDUS_clean_linker_0, # of connection points: 2
#     Edge 57, Type (0, 1), BuildingBlock: CIFDUS_clean_linker_0, # of connection points: 2
#     Edge 58, Type (0, 1), BuildingBlock: CIFDUS_clean_linker_0, # of connection points: 2
#     Edge 59, Type (0, 1), BuildingBlock: CIFDUS_clean_linker_0, # of connection points: 2
#     Edge 60, Type (0, 1), BuildingBlock: CIFDUS_clean_linker_0, # of connection points: 2
#     Edge 61, Type (0, 1), BuildingBlock: CIFDUS_clean_linker_0, # of connection points: 2
#     Edge 62, Type (0, 1), BuildingBlock: CIFDUS_clean_linker_0, # of connection points: 2
#     Edge 63, Type (0, 1), BuildingBlock: CIFDUS_clean_linker_0, # of connection points: 2
#     Edge 64, Type (0, 1), BuildingBlock: CIFDUS_clean_linker_0, # of connection points: 2
#     Edge 65, Type (0, 1), BuildingBlock: CIFDUS_clean_linker_0, # of connection points: 2
#     Edge 66, Type (0, 1), BuildingBlock: CIFDUS_clean_linker_0, # of connection points: 2
#     Edge 67, Type (0, 1), BuildingBlock: CIFDUS_clean_linker_0, # of connection points: 2
#     Edge 68, Type (0, 1), BuildingBlock: CIFDUS_clean_linker_0, # of connection points: 2
#     Edge 69, Type (0, 1), BuildingBlock: CIFDUS_clean_linker_0, # of connection points: 2
#     Edge 70, Type (0, 1), BuildingBlock: CIFDUS_clean_linker_0, # of connection points: 2
#     Edge 71, Type (0, 1), BuildingBlock: CIFDUS_clean_linker_0, # of connection points: 2
#     Edge 72, Type (0, 1), BuildingBlock: CIFDUS_clean_linker_0, # of connection points: 2
#     Edge 73, Type (0, 1), BuildingBlock: CIFDUS_clean_linker_0, # of connection points: 2
#     Edge 74, Type (0, 1), BuildingBlock: CIFDUS_clean_linker_0, # of connection points: 2
#     Edge 75, Type (0, 1), BuildingBlock: CIFDUS_clean_linker_0, # of connection points: 2
#     Edge 76, Type (0, 1), BuildingBlock: CIFDUS_clean_linker_0, # of connection points: 2
#     Edge 77, Type (0, 1), BuildingBlock: CIFDUS_clean_linker_0, # of connection points: 2
#     Edge 78, Type (0, 1), BuildingBlock: CIFDUS_clean_linker_0, # of connection points: 2
#     Edge 79, Type (0, 1), BuildingBlock: CIFDUS_clean_linker_0, # of connection points: 2
#     Edge 80, Type (0, 1), BuildingBlock: CIFDUS_clean_linker_0, # of connection points: 2
#     Edge 81, Type (0, 1), BuildingBlock: CIFDUS_clean_linker_0, # of connection points: 2
#     Edge 82, Type (0, 1), BuildingBlock: CIFDUS_clean_linker_0, # of connection points: 2
#     Edge 83, Type (0, 1), BuildingBlock: CIFDUS_clean_linker_0, # of connection points: 2
#     Edge 84, Type (0, 1), BuildingBlock: CIFDUS_clean_linker_0, # of connection points: 2
#     Edge 85, Type (0, 1), BuildingBlock: CIFDUS_clean_linker_0, # of connection points: 2
#     Edge 86, Type (0, 1), BuildingBlock: CIFDUS_clean_linker_0, # of connection points: 2
#     Edge 87, Type (0, 1), BuildingBlock: CIFDUS_clean_linker_0, # of connection points: 2
#     Edge 88, Type (0, 1), BuildingBlock: CIFDUS_clean_linker_0, # of connection points: 2
#     Edge 89, Type (0, 1), BuildingBlock: CIFDUS_clean_linker_0, # of connection points: 2
#     Edge 90, Type (0, 1), BuildingBlock: CIFDUS_clean_linker_0, # of connection points: 2
#     Edge 91, Type (0, 1), BuildingBlock: CIFDUS_clean_linker_0, # of connection points: 2
#     Edge 92, Type (0, 1), BuildingBlock: CIFDUS_clean_linker_0, # of connection points: 2
#     Edge 93, Type (0, 1), BuildingBlock: CIFDUS_clean_linker_0, # of connection points: 2
#     Edge 94, Type (0, 1), BuildingBlock: CIFDUS_clean_linker_0, # of connection points: 2
#     Edge 95, Type (0, 1), BuildingBlock: CIFDUS_clean_linker_0, # of connection points: 2
#     Edge 96, Type (0, 1), BuildingBlock: CIFDUS_clean_linker_0, # of connection points: 2
#     Edge 97, Type (0, 1), BuildingBlock: CIFDUS_clean_linker_0, # of connection points: 2
#     Edge 98, Type (0, 1), BuildingBlock: CIFDUS_clean_linker_0, # of connection points: 2
#     Edge 99, Type (0, 1), BuildingBlock: CIFDUS_clean_linker_0, # of connection points: 2
#     Edge 100, Type (0, 1), BuildingBlock: CIFDUS_clean_linker_0, # of connection points: 2
#     Edge 101, Type (0, 1), BuildingBlock: CIFDUS_clean_linker_0, # of connection points: 2
#     Edge 102, Type (0, 1), BuildingBlock: CIFDUS_clean_linker_0, # of connection points: 2
#     Edge 103, Type (0, 1), BuildingBlock: CIFDUS_clean_linker_0, # of connection points: 2
#     Edge 104, Type (0, 1), BuildingBlock: CIFDUS_clean_linker_0, # of connection points: 2
#     Edge 105, Type (0, 1), BuildingBlock: CIFDUS_clean_linker_0, # of connection points: 2
#     Edge 106, Type (0, 1), BuildingBlock: CIFDUS_clean_linker_0, # of connection points: 2
#     Edge 107, Type (0, 1), BuildingBlock: CIFDUS_clean_linker_0, # of connection points: 2
#     Edge 108, Type (0, 1), BuildingBlock: CIFDUS_clean_linker_0, # of connection points: 2
#     Edge 109, Type (0, 1), BuildingBlock: CIFDUS_clean_linker_0, # of connection points: 2
#     Edge 110, Type (0, 1), BuildingBlock: CIFDUS_clean_linker_0, # of connection points: 2
#     Edge 111, Type (0, 1), BuildingBlock: CIFDUS_clean_linker_0, # of connection points: 2
#     Edge 112, Type (0, 1), BuildingBlock: CIFDUS_clean_linker_0, # of connection points: 2
#     Edge 113, Type (0, 1), BuildingBlock: CIFDUS_clean_linker_0, # of connection points: 2
#     Edge 114, Type (0, 1), BuildingBlock: CIFDUS_clean_linker_0, # of connection points: 2
#     Edge 115, Type (0, 1), BuildingBlock: CIFDUS_clean_linker_0, # of connection points: 2
#     Edge 116, Type (0, 1), BuildingBlock: CIFDUS_clean_linker_0, # of connection points: 2
#     Edge 117, Type (0, 1), BuildingBlock: CIFDUS_clean_linker_0, # of connection points: 2
#     Edge 118, Type (0, 1), BuildingBlock: CIFDUS_clean_linker_0, # of connection points: 2
#     Edge 119, Type (0, 1), BuildingBlock: CIFDUS_clean_linker_0, # of connection points: 2
#     Edge 120, Type (0, 1), BuildingBlock: CIFDUS_clean_linker_0, # of connection points: 2
#     Edge 121, Type (0, 1), BuildingBlock: CIFDUS_clean_linker_0, # of connection points: 2
#     Edge 122, Type (0, 1), BuildingBlock: CIFDUS_clean_linker_0, # of connection points: 2
#     Edge 123, Type (0, 1), BuildingBlock: CIFDUS_clean_linker_0, # of connection points: 2
#     Edge 124, Type (0, 1), BuildingBlock: CIFDUS_clean_linker_0, # of connection points: 2
#     Edge 125, Type (0, 1), BuildingBlock: CIFDUS_clean_linker_0, # of connection points: 2
#     Edge 126, Type (0, 1), BuildingBlock: CIFDUS_clean_linker_0, # of connection points: 2
#     Edge 127, Type (0, 1), BuildingBlock: CIFDUS_clean_linker_0, # of connection points: 2
#     Edge 128, Type (0, 1), BuildingBlock: CIFDUS_clean_linker_0, # of connection points: 2
#     Edge 129, Type (0, 1), BuildingBlock: CIFDUS_clean_linker_0, # of connection points: 2
#     Edge 130, Type (0, 1), BuildingBlock: CIFDUS_clean_linker_0, # of connection points: 2
#     Edge 131, Type (0, 1), BuildingBlock: CIFDUS_clean_linker_0, # of connection points: 2
#     Edge 132, Type (0, 1), BuildingBlock: CIFDUS_clean_linker_0, # of connection points: 2
#     Edge 133, Type (0, 1), BuildingBlock: CIFDUS_clean_linker_0, # of connection points: 2
#     Edge 134, Type (0, 1), BuildingBlock: CIFDUS_clean_linker_0, # of connection points: 2
#     Edge 135, Type (0, 1), BuildingBlock: CIFDUS_clean_linker_0, # of connection points: 2
# Relax obj value: 0.219
# Max RMSD: 0.327
# Mean RMSD: 0.177
data_MOF--net-gar--node1-NAHDIM_clean_sbu_0--node2-BETDIP_clean_sbu_0--edge1-CIFDUS_clean_linker_0
_symmetry_space_group_name_H-M    P1
_symmetry_Int_Tables_number       1
_symmetry_cell_setting            triclinic
loop_
_symmetry_equiv_pos_as_xyz
'x, y, z'
_cell_length_a     57.653893
_cell_length_b     49.790243
_cell_length_c     46.870985
_cell_angle_alpha  97.55849
_cell_angle_beta   100.00873
_cell_angle_gamma 101.73637
loop_
_atom_site_label
_atom_site_type_symbol
_atom_site_fract_x
_atom_site_fract_y
_atom_site_fract_z
_atom_type_partial_charge
C0 C 0.08026 0.3352 0.38539 0.0
O1 O 0.08282 0.33556 0.41387 0.0
O2 O 0.03696 0.30418 0.41716 0.0
Zn3 Zn 0.03477 0.33586 0.39536 0.0
O4 O 0.04039 0.36997 0.42631 0.0
C5 C 0.98817 0.30524 0.36027 0.0
O6 O 0.99815 0.28375 0.35856 0.0
O7 O 0.06018 0.33755 0.371 0.0
C8 C 0.02211 0.37385 0.43667 0.0
O9 O 1.001 0.35654 0.42608 0.0
C10 C 1.02056 0.29179 0.42892 0.0
O11 O 0.9997 0.29897 0.42633 0.0
O12 O 1.00132 0.32926 0.37155 0.0
C13 C 0.04532 0.7562 0.76209 0.0
O14 O 0.04109 0.74671 0.7337 0.0
O15 O 0.08818 0.73672 0.72104 0.0
Zn16 Zn 0.0885 0.77277 0.74654 0.0
O17 O 0.07439 0.79667 0.72094 0.0
C18 C 0.13407 0.8051 0.74704 0.0
O19 O 0.12353 0.80176 0.71922 0.0
O20 O 0.06702 0.76705 0.77541 0.0
C21 C 0.07166 0.82036 0.73144 0.0
O22 O 0.07736 0.82891 0.76004 0.0
C23 C 0.08663 0.73554 0.69345 0.0
O24 O 0.08568 0.75808 0.682 0.0
O25 O 0.12241 0.79382 0.76474 0.0
C26 C 0.57392 0.85083 0.85839 0.0
O27 O 0.5766 0.87559 0.87402 0.0
O28 O 0.54201 0.80024 0.91467 0.0
Zn29 Zn 0.53891 0.83245 0.89386 0.0
O30 O 0.55188 0.86772 0.92366 0.0
C31 C 0.48828 0.80695 0.87011 0.0
O32 O 0.49534 0.78346 0.86683 0.0
O33 O 0.55808 0.83055 0.8622 0.0
C34 C 0.53808 0.87491 0.94017 0.0
O35 O 0.51584 0.86013 0.93633 0.0
C36 C 0.52843 0.79268 0.93219 0.0
O37 O 0.51148 0.8058 0.93663 0.0
O38 O 0.50394 0.82984 0.8787 0.0
C39 C 0.53419 0.24433 0.29709 0.0
O40 O 0.52415 0.22644 0.27271 0.0
O41 O 0.56497 0.22089 0.23906 0.0
Zn42 Zn 0.57148 0.25846 0.26507 0.0
O43 O 0.55959 0.28563 0.24188 0.0
C44 C 0.61941 0.27135 0.25731 0.0
O45 O 0.60775 0.26328 0.22986 0.0
O46 O 0.55556 0.25868 0.29971 0.0
C47 C 0.56952 0.3114 0.24927 0.0
O48 O 0.58706 0.31996 0.2727 0.0
C49 C 0.56072 0.21937 0.21125 0.0
O50 O 0.55762 0.24156 0.20011 0.0
O51 O 0.60752 0.27159 0.27774 0.0
C52 C 0.04964 0.81429 0.19976 0.0
O53 O 0.04409 0.81301 0.17113 0.0
O54 O 0.08999 0.78036 0.16059 0.0
Zn55 Zn 0.09697 0.8189 0.18617 0.0
O56 O 0.09208 0.84885 0.16094 0.0
C57 C 0.14257 0.80923 0.21774 0.0
O58 O 0.13141 0.78304 0.20789 0.0
O59 O 0.07174 0.81705 0.21201 0.0
C60 C 0.10669 0.87237 0.1631 0.0
O61 O 0.1275 0.8782 0.18192 0.0
C62 C 0.10377 0.7732 0.144 0.0
O63 O 0.12297 0.79172 0.14202 0.0
O64 O 0.1315 0.82818 0.21173 0.0
C65 C 0.57431 0.78716 0.45353 0.0
O66 O 0.581 0.78923 0.48215 0.0
O67 O 0.53266 0.74812 0.49307 0.0
Zn68 Zn 0.52721 0.77952 0.46944 0.0
O69 O 0.53434 0.81767 0.49619 0.0
C70 C 0.48193 0.79114 0.43913 0.0
O71 O 0.49438 0.81702 0.44774 0.0
O72 O 0.55177 0.78273 0.4423 0.0
C73 C 0.51991 0.82528 0.51164 0.0
O74 O 0.50007 0.80718 0.51245 0.0
C75 C 0.51754 0.72507 0.49157 0.0
O76 O 0.4959 0.72063 0.47476 0.0
O77 O 0.49212 0.77146 0.44513 0.0
C78 C 0.5461 0.321 0.70624 0.0
O79 O 0.5413 0.32942 0.68091 0.0
O80 O 0.5844 0.27843 0.66054 0.0
Zn81 Zn 0.59134 0.31667 0.68722 0.0
O82 O 0.58894 0.34872 0.66384 0.0
C83 C 0.63993 0.30751 0.70881 0.0
O84 O 0.63212 0.28497 0.68863 0.0
O85 O 0.56648 0.31491 0.71396 0.0
C86 C 0.60156 0.37328 0.6747 0.0
O87 O 0.61642 0.37727 0.70031 0.0
C88 C 0.5634 0.2623 0.65184 0.0
O89 O 0.54464 0.27114 0.65821 0.0
O90 O 0.62586 0.3239 0.71232 0.0
C91 C 0.06933 0.27875 0.94574 0.0
O92 O 0.07477 0.27142 0.97155 0.0
O93 O 0.02945 0.24587 0.98685 0.0
Zn94 Zn 0.02278 0.27656 0.96322 0.0
O95 O 0.0259 0.31337 0.9905 0.0
C96 C 0.97716 0.28602 0.93379 0.0
O97 O 0.98847 0.3118 0.94551 0.0
O98 O 0.04805 0.28219 0.93711 0.0
C99 C 0.04515 0.33255 0.99928 0.0
O100 O 0.06546 0.32817 0.99272 0.0
C101 C 1.01463 0.22436 0.99041 0.0
O102 O 0.99151 0.22044 0.9788 0.0
O103 O 0.98821 0.26659 0.93774 0.0
C104 C 0.3932 0.11303 0.29482 0.0
O105 O 0.37992 0.09404 0.27272 0.0
O106 O 0.44635 0.0679 0.26529 0.0
Zn107 Zn 0.42966 0.06994 0.30518 0.0
O108 O 0.45705 0.07428 0.34537 0.0
C109 C 0.40699 1.00639 0.29156 0.0
O110 O 0.42457 1.00662 0.27707 0.0
O111 O 0.41243 0.10729 0.30947 0.0
C112 C 0.45457 0.06093 0.36696 0.0
O113 O 0.43391 0.04306 0.36488 0.0
C114 C 0.4644 0.05745 0.26018 0.0
O115 O 0.47522 0.04635 0.2811 0.0
O116 O 0.40464 0.03005 0.30412 0.0
C117 C 0.32421 0.16395 0.54913 0.0
O118 O 0.33137 0.19029 0.54709 0.0
O119 O 0.28421 0.20361 0.5893 0.0
Zn120 Zn 0.27752 0.17923 0.54903 0.0
O121 O 0.28201 0.20535 0.51902 0.0
C122 C 0.23129 0.14987 0.56094 0.0
O123 O 0.24249 0.15968 0.58836 0.0
O124 O 0.30206 0.15444 0.5498 0.0
C125 C 0.27509 0.19799 0.49125 0.0
O126 O 0.26423 0.17186 0.48046 0.0
C127 C 0.27068 0.22 0.59504 0.0
O128 O 0.25249 0.22118 0.57441 0.0
O129 O 0.24254 0.15505 0.54037 0.0
C130 C 0.16871 1.02266 0.86668 0.0
O131 O 0.14743 1.01858 0.87397 0.0
O132 O 0.13805 0.07293 0.81629 0.0
Zn133 Zn 0.15934 0.07635 0.85678 0.0
O134 O 0.14004 0.0748 0.88904 0.0
C135 C 0.1858 0.12987 0.84757 0.0
O136 O 0.16796 0.1254 0.82462 0.0
O137 O 0.1768 0.04516 0.85788 0.0
C138 C 0.11812 0.0767 0.88608 0.0
O139 O 0.10693 0.08125 0.86089 0.0
C140 C 0.13181 0.05157 0.79604 0.0
O141 O 0.13823 0.02855 0.80124 0.0
O142 O 0.18551 0.11233 0.86505 0.0
C143 C 0.21957 0.933 0.96478 0.0
O144 O 0.21171 0.91568 0.93965 0.0
O145 O 0.25545 0.88671 0.02669 0.0
Zn146 Zn 0.2521 0.89736 0.98677 0.0
O147 O 0.23953 0.86399 0.95456 0.0
C148 C 0.30257 0.90231 0.98954 0.0
O149 O 0.29738 0.87725 0.99618 0.0
O150 O 0.23441 0.9275 0.98527 0.0
C151 C 0.24226 0.84049 0.96054 0.0
O152 O 0.24936 0.83817 0.98808 0.0
C153 C 0.23865 0.87576 0.03872 0.0
O154 O 0.216 0.87089 0.02472 0.0
O155 O 0.28567 0.91478 0.98358 0.0
C156 C 0.30096 0.44295 0.09433 0.0
O157 O 0.29406 0.41639 0.09564 0.0
O158 O 0.34573 0.41155 0.13788 0.0
Zn159 Zn 0.3475 0.42808 0.09996 0.0
O160 O 0.33716 0.3981 0.06304 0.0
C161 C 0.40154 0.44381 0.11075 0.0
O162 O 0.40031 0.42348 0.12608 0.0
O163 O 0.3234 0.45332 0.09605 0.0
C164 C 0.3519 0.38435 0.05483 0.0
O165 O 0.37342 0.38817 0.0717 0.0
C166 C 0.34354 0.38574 0.13908 0.0
O167 O 0.34327 0.36852 0.11519 0.0
O168 O 0.38195 0.44999 0.09934 0.0
C169 C 0.91156 0.18138 0.12497 0.0
O170 O 0.91005 0.20186 0.11025 0.0
O171 O 0.8662 0.20947 0.18461 0.0
Zn172 Zn 0.87094 0.19473 0.14517 0.0
O173 O 0.87 0.22385 0.1199 0.0
C174 C 0.83795 0.14455 0.14367 0.0
O175 O 0.85316 0.14574 0.16845 0.0
O176 O 0.89903 0.17765 0.14445 0.0
C177 C 0.85008 0.23119 0.11446 0.0
O178 O 0.83219 0.22016 0.12637 0.0
C179 C 0.87652 0.23367 0.19869 0.0
O180 O 0.89424 0.24883 0.18946 0.0
O181 O 0.84209 0.16364 0.12851 0.0
C182 C 0.20922 0.46779 0.33534 0.0
O183 O 0.18621 0.45617 0.33285 0.0
O184 O 0.16622 0.5229 0.29978 0.0
Zn185 Zn 0.19352 0.52863 0.34052 0.0
O186 O 0.17678 0.53086 0.3807 0.0
C187 C 0.22095 0.59311 0.35603 0.0
O188 O 0.21054 0.59518 0.37877 0.0
O189 O 0.21527 0.49489 0.33848 0.0
C190 C 0.15931 0.54224 0.38636 0.0
O191 O 0.14919 0.55448 0.36601 0.0
C192 C 0.16841 0.53732 0.27893 0.0
O193 O 0.18855 0.55636 0.28205 0.0
O194 O 0.21706 0.56894 0.33981 0.0
C195 C 0.79364 0.9377 0.59843 0.0
O196 O 0.78644 0.91051 0.59546 0.0
O197 O 0.8377 0.90312 0.6394 0.0
Zn198 Zn 0.83953 0.92248 0.6033 0.0
O199 O 0.82773 0.89564 0.56422 0.0
C200 C 0.88476 0.94793 0.58446 0.0
O201 O 0.87256 0.93638 0.55783 0.0
O202 O 0.81627 0.94851 0.60273 0.0
C203 C 0.83886 0.87876 0.55293 0.0
O204 O 0.85965 0.87649 0.56793 0.0
C205 C 0.8317 0.877 0.63936 0.0
O206 O 0.82632 0.85972 0.6142 0.0
O207 O 0.87447 0.945 0.60626 0.0
C208 C 0.94628 0.09023 0.30041 0.0
O209 O 0.96639 0.09454 0.32023 0.0
O210 O 0.97358 0.03132 0.25642 0.0
Zn211 Zn 0.9542 0.03445 0.28858 0.0
O212 O 0.97523 0.04178 0.32973 0.0
C213 C 0.92853 0.98076 0.29953 0.0
O214 O 0.94811 0.98357 0.3198 0.0
O215 O 0.9379 0.06635 0.28436 0.0
C216 C 0.99384 0.032 0.33588 0.0
O217 O 1.00023 1.0169 0.31474 0.0
C218 C 0.98685 0.05318 0.2513 0.0
O219 O 0.98858 0.07715 0.26799 0.0
O220 O 0.92745 0.99936 0.28344 0.0
C221 C 0.40066 0.67834 0.63489 0.0
O222 O 0.39974 0.69943 0.62093 0.0
O223 O 0.39558 0.73629 0.70628 0.0
Zn224 Zn 0.37641 0.70646 0.67286 0.0
O225 O 0.36396 0.72383 0.63907 0.0
C226 C 0.33386 0.66603 0.66184 0.0
O227 O 0.34179 0.66226 0.63731 0.0
O228 O 0.39415 0.67869 0.6594 0.0
C229 C 0.3514 0.74182 0.64198 0.0
O230 O 0.34709 0.75006 0.66793 0.0
C231 C 0.40507 0.76015 0.70144 0.0
O232 O 0.40608 0.76343 0.67429 0.0
O233 O 0.34656 0.68481 0.68294 0.0
C234 C 0.4219 0.57817 0.8007 0.0
O235 O 0.4276 0.57779 0.829 0.0
O236 O 0.4686 0.53224 0.76274 0.0
Zn237 Zn 0.44727 0.53282 0.7929 0.0
O238 O 0.46671 0.5449 0.83513 0.0
C239 C 0.42272 0.47969 0.80692 0.0
O240 O 0.43922 0.48688 0.83141 0.0
O241 O 0.4281 0.56104 0.78261 0.0
C242 C 0.48457 0.53493 0.84488 0.0
O243 O 0.4912 0.51674 0.82693 0.0
C244 C 0.4804 0.55599 0.76002 0.0
O245 O 0.47978 0.578 0.77848 0.0
O246 O 0.42314 0.49555 0.78773 0.0
C247 C 0.72712 0.9843 0.84161 0.0
O248 O 0.74506 1.00655 0.84833 0.0
O249 O 0.66271 0.02385 0.7994 0.0
Zn250 Zn 0.68939 0.02726 0.84 0.0
O251 O 0.66877 0.03099 0.8765 0.0
C252 C 0.7155 0.09146 0.85163 0.0
O253 O 0.69983 0.09483 0.86828 0.0
O254 O 0.70518 0.98831 0.83786 0.0
C255 C 0.67477 0.03976 0.90475 0.0
O256 O 0.69793 0.04863 0.91662 0.0
C257 C 0.66605 0.03242 0.7752 0.0
O258 O 0.68828 0.04362 0.77325 0.0
O259 O 0.71518 0.06636 0.83983 0.0
C260 C 0.82829 0.65834 0.05268 0.0
O261 O 0.83512 0.68556 0.05557 0.0
O262 O 0.79062 0.69893 0.0851 0.0
Zn263 Zn 0.78083 0.67132 0.04617 0.0
O264 O 0.78225 0.69065 1.00995 0.0
C265 C 0.73437 0.64457 0.06184 0.0
O266 O 0.74383 0.65985 0.0879 0.0
O267 O 0.80572 0.64708 0.04802 0.0
C268 C 0.78909 0.71673 1.01018 0.0
O269 O 0.79576 0.7338 0.03553 0.0
C270 C 0.77951 0.71669 0.09475 0.0
O271 O 0.75939 0.71917 0.07834 0.0
O272 O 0.74658 0.64607 0.04159 0.0
C273 C 0.89323 0.61289 0.80776 0.0
O274 O 0.87624 0.59064 0.80702 0.0
O275 O 0.95357 0.56844 0.77026 0.0
Zn276 Zn 0.93209 0.57119 0.80618 0.0
O277 O 0.95831 0.57634 0.84793 0.0
C278 C 0.90539 0.5065 0.79234 0.0
O279 O 0.9201 0.50339 0.7743 0.0
O280 O 0.915 0.60927 0.80731 0.0
C281 C 0.95765 0.56056 0.86779 0.0
O282 O 0.93917 0.53908 0.86345 0.0
C283 C 0.94806 0.55899 0.74211 0.0
O284 O 0.9251 0.54849 0.73006 0.0
O285 O 0.90662 0.53142 0.80557 0.0
C286 C 0.72889 0.42248 0.55786 0.0
O287 O 0.7176 0.39636 0.55581 0.0
O288 O 0.74775 0.36757 0.52229 0.0
Zn289 Zn 0.74272 0.40124 0.50501 0.0
O290 O 0.71131 0.39384 0.4747 0.0
C291 C 0.79146 0.40902 0.49699 0.0
O292 O 0.79077 0.38832 0.51171 0.0
O293 O 0.74063 0.42939 0.53839 0.0
C294 C 0.70105 0.37614 0.45145 0.0
O295 O 0.67958 0.37777 0.43777 0.0
C296 C 0.73327 0.34491 0.52307 0.0
O297 O 0.71034 0.34034 0.51025 0.0
O298 O 0.77262 0.41839 0.49059 0.0
C299 C 0.68853 0.54789 0.34268 0.0
O300 O 0.6875 0.55927 0.31888 0.0
O301 O 0.64032 0.58479 0.32148 0.0
Zn302 Zn 0.66167 0.58815 0.36172 0.0
O303 O 0.64278 0.58773 0.39429 0.0
C304 C 0.68723 0.64193 0.35332 0.0
O305 O 0.66762 0.63935 0.33315 0.0
O306 O 0.67852 0.55662 0.36298 0.0
C307 C 0.63383 0.56409 0.40023 0.0
O308 O 0.636 0.54152 0.38394 0.0
C309 C 0.62941 0.56219 0.30409 0.0
O310 O 0.63057 0.53833 0.31266 0.0
O311 O 0.68827 0.6232 0.36917 0.0
Tb312 Tb 0.03844 0.03005 0.06607 0.0
Tb313 Tb 0.09056 0.0696 0.08544 0.0
C314 C 0.99759 0.99966 0.06336 0.0
C315 C 0.97384 1.00634 0.05692 0.0
C316 C 0.95886 1.00262 0.07732 0.0
C317 C 0.94198 1.01885 0.07955 0.0
C318 C 0.93986 0.0388 0.06122 0.0
C319 C 0.95226 0.03933 0.03794 0.0
C320 C 0.96934 0.02337 0.03595 0.0
C321 C 0.06284 0.03894 0.02463 0.0
C322 C 0.04476 0.09305 0.05993 0.0
C323 C 0.13152 0.09517 0.08089 0.0
C324 C 0.15142 0.08681 0.06862 0.0
C325 C 0.1548 0.09244 0.0408 0.0
C326 C 0.17088 0.08075 0.02691 0.0
C327 C 0.18407 0.06368 0.04087 0.0
C328 C 0.18217 0.05994 0.06961 0.0
C329 C 0.16597 0.07136 0.08337 0.0
C330 C 0.0651 0.07339 0.1274 0.0
C331 C 0.08326 1.00645 0.09468 0.0
O332 O 1.01141 1.01442 0.08786 0.0
O333 O 1.00926 0.99821 0.04174 0.0
O334 O 0.07152 0.03628 0.05048 0.0
O335 O 0.03947 0.0348 0.02069 0.0
O336 O 0.02956 0.07041 0.06357 0.0
O337 O 0.06856 0.09551 0.0644 0.0
O338 O 0.1116 0.09359 0.06163 0.0
O339 O 0.12715 0.08577 0.10482 0.0
O340 O 0.05956 0.05857 0.10246 0.0
O341 O 0.08673 0.08847 0.12959 0.0
O342 O 0.09886 0.03019 0.09482 0.0
O343 O 0.05958 1.00245 0.08486 0.0
H344 H 0.96217 0.98968 0.09376 0.0
H345 H 0.93269 1.0179 0.09771 0.0
H346 H 0.95051 0.05404 0.02306 0.0
H347 H 0.98068 0.02664 0.01998 0.0
H348 H 0.14406 0.10463 0.02912 0.0
H349 H 0.1722 0.08398 1.00478 0.0
H350 H 0.1921 0.04672 0.08076 0.0
H351 H 0.16409 0.06694 0.10498 0.0
Tb352 Tb 0.31594 0.79118 0.30444 0.0
Tb353 Tb 0.30742 0.81696 0.3606 0.0
C354 C 0.31479 0.77773 0.25057 0.0
C355 C 0.31097 0.79167 0.225 0.0
C356 C 0.32144 0.82003 0.22672 0.0
C357 C 0.31516 0.83363 0.20331 0.0
C358 C 0.29816 0.8191 0.17795 0.0
C359 C 0.28819 0.79057 0.17606 0.0
C360 C 0.29457 0.77698 0.1994 0.0
C361 C 0.34959 0.79016 0.35021 0.0
C362 C 0.33181 0.859 0.32452 0.0
C363 C 0.30612 0.82969 0.41379 0.0
C364 C 0.30857 0.81478 0.43869 0.0
C365 C 0.32302 0.79526 0.43977 0.0
C366 C 0.32588 0.78167 0.46384 0.0
C367 C 0.31408 0.78702 0.48711 0.0
C368 C 0.2991 0.80609 0.48553 0.0
C369 C 0.29644 0.81992 0.4615 0.0
C370 C 0.27379 0.81694 0.31417 0.0
C371 C 0.29248 0.74959 0.34217 0.0
O372 O 0.29592 0.77209 0.26254 0.0
O373 O 0.33492 0.78769 0.27023 0.0
O374 O 0.33913 0.80973 0.3462 0.0
O375 O 0.34223 0.77088 0.32703 0.0
O376 O 0.32643 0.83712 0.30266 0.0
O377 O 0.3274 0.85548 0.35069 0.0
O378 O 0.32565 0.8363 0.40315 0.0
O379 O 0.28672 0.81949 0.39315 0.0
O380 O 0.2845 0.79788 0.31915 0.0
O381 O 0.28094 0.83672 0.33687 0.0
O382 O 0.29867 0.77182 0.36348 0.0
O383 O 0.29613 0.75233 0.31544 0.0
H384 H 0.33401 0.83185 0.24635 0.0
H385 H 0.32303 0.85567 0.2054 0.0
H386 H 0.27533 0.77878 0.15659 0.0
H387 H 0.2862 0.75512 0.19776 0.0
H388 H 0.3324 0.79082 0.4222 0.0
H389 H 0.33784 0.76748 0.46449 0.0
H390 H 0.28944 0.81034 0.50284 0.0
H391 H 0.28501 0.83471 0.46079 0.0
Tb392 Tb 0.5827 0.05393 0.56163 0.0
Tb393 Tb 0.53422 0.04373 0.58288 0.0
C394 C 0.62483 0.05402 0.55348 0.0
C395 C 0.64326 0.0378 0.56013 0.0
C396 C 0.64001 1.01685 0.57736 0.0
C397 C 0.65785 1.00182 0.58349 0.0
C398 C 0.6793 1.00744 0.57251 0.0
C399 C 0.68241 0.02859 0.55537 0.0
C400 C 0.66458 0.04358 0.54927 0.0
C401 C 0.54455 0.06039 0.52285 0.0
C402 C 0.55316 0.99145 0.5617 0.0
C403 C 0.49032 0.04165 0.58441 0.0
C404 C 0.47246 0.0588 0.5774 0.0
C405 C 0.44896 0.04595 0.56147 0.0
C406 C 0.4314 0.06154 0.55612 0.0
C407 C 0.43692 0.09043 0.56663 0.0
C408 C 0.46062 0.10326 0.58233 0.0
C409 C 0.47814 0.08769 0.5876 0.0
C410 C 0.57134 0.04204 0.62688 0.0
C411 C 0.56635 0.10512 0.58969 0.0
O412 O 0.62022 0.06888 0.57612 0.0
O413 O 0.60508 0.04116 0.53421 0.0
O414 O 0.54472 0.04308 0.54055 0.0
O415 O 0.56688 0.07367 0.52571 0.0
O416 O 0.5737 1.00874 0.56053 0.0
O417 O 0.53431 1.00035 0.56857 0.0
O418 O 0.49736 0.02897 0.56231 0.0
O419 O 0.50833 0.05235 0.60681 0.0
O420 O 0.57143 0.04688 0.60103 0.0
O421 O 0.54863 0.03715 0.62834 0.0
O422 O 0.54424 0.08892 0.58441 0.0
O423 O 0.58531 0.09495 0.58612 0.0
H424 H 0.62372 1.01215 0.58609 0.0
H425 H 0.65491 0.98593 0.59704 0.0
H426 H 0.69845 0.03325 0.54617 0.0
H427 H 0.66741 0.05966 0.53592 0.0
H428 H 0.44408 0.02372 0.55337 0.0
H429 H 0.41354 0.05094 0.54358 0.0
H430 H 0.46559 0.12533 0.59117 0.0
H431 H 0.49604 0.09824 0.60009 0.0
Tb432 Tb 0.2832 0.30921 0.81912 0.0
Tb433 Tb 0.33183 0.29221 0.83212 0.0
C434 C 0.24002 0.31303 0.81757 0.0
C435 C 0.22185 0.30881 0.83634 0.0
C436 C 0.22108 0.28839 0.8544 0.0
C437 C 0.20297 0.28386 0.87087 0.0
C438 C 0.18525 0.29974 0.86979 0.0
C439 C 0.18632 0.32035 0.85184 0.0
C440 C 0.20438 0.32478 0.83531 0.0
C441 C 0.32162 0.34672 0.81566 0.0
C442 C 0.31149 0.31356 0.8857 0.0
C443 C 0.37496 0.2883 0.83367 0.0
C444 C 0.39318 0.29264 0.81498 0.0
C445 C 0.3944 0.31365 0.79762 0.0
C446 C 0.41261 0.3183 0.78131 0.0
C447 C 0.42997 0.30197 0.78182 0.0
C448 C 0.42843 0.28075 0.79901 0.0
C449 C 0.41028 0.2762 0.81541 0.0
C450 C 0.29318 0.25481 0.83533 0.0
C451 C 0.30379 0.28789 0.7656 0.0
O452 O 0.24614 0.2907 0.80623 0.0
O453 O 0.25873 0.33415 0.82706 0.0
O454 O 0.32031 0.33021 0.83373 0.0
O455 O 0.30014 0.34429 0.79995 0.0
O456 O 0.29055 0.31067 0.86715 0.0
O457 O 0.33125 0.3098 0.87659 0.0
O458 O 0.36889 0.3106 0.84522 0.0
O459 O 0.35622 0.26723 0.82399 0.0
O460 O 0.29482 0.27141 0.81743 0.0
O461 O 0.31456 0.25703 0.85119 0.0
O462 O 0.3247 0.29118 0.7843 0.0
O463 O 0.28389 0.29144 0.77453 0.0
H464 H 0.23431 0.2757 0.85553 0.0
H465 H 0.20265 0.26757 0.88408 0.0
H466 H 0.17332 0.33331 0.85076 0.0
H467 H 0.20462 0.34065 0.82154 0.0
H468 H 0.38145 0.32669 0.79694 0.0
H469 H 0.41329 0.33505 0.76868 0.0
H470 H 0.44112 0.26742 0.79963 0.0
H471 H 0.40969 0.25987 0.82862 0.0
Tb472 Tb 0.05443 0.0748 0.57931 0.0
Tb473 Tb 0.06071 1.01947 0.55656 0.0
C474 C 0.05622 0.12601 0.58939 0.0
C475 C 0.04663 0.14529 0.57224 0.0
C476 C 0.0593 0.17316 0.57717 0.0
C477 C 0.05171 0.19126 0.55923 0.0
C478 C 0.03128 0.18171 0.53619 0.0
C479 C 1.01815 0.15396 0.53184 0.0
C480 C 0.02588 0.13578 0.54966 0.0
C481 C 1.01742 0.03376 0.57943 0.0
C482 C 0.04139 0.05207 0.50951 0.0
C483 C 0.0587 0.96826 0.5461 0.0
C484 C 0.05941 0.94685 0.56466 0.0
C485 C 0.0424 0.92129 0.55615 0.0
C486 C 0.04144 0.90161 0.57479 0.0
C487 C 0.05747 0.90732 0.60224 0.0
C488 C 0.07479 0.93276 0.61044 0.0
C489 C 0.07573 0.95238 0.59182 0.0
C490 C 0.09771 0.06102 0.55713 0.0
C491 C 0.07364 0.04178 0.62578 0.0
O492 O 0.07299 0.11565 0.57947 0.0
O493 O 0.04021 0.10717 0.597 0.0
O494 O 0.02959 0.03589 0.55952 0.0
O495 O 0.02516 0.05588 0.59944 0.0
O496 O 0.04471 0.07338 0.5312 0.0
O497 O 0.04475 0.02763 0.51457 0.0
O498 O 0.03953 0.97867 0.54458 0.0
O499 O 0.07868 0.98744 0.54948 0.0
O500 O 0.08535 0.05827 0.57671 0.0
O501 O 0.09013 0.03916 0.53671 0.0
O502 O 0.06632 1.01976 0.60443 0.0
O503 O 0.07401 0.06707 0.62002 0.0
H504 H 0.0754 0.18073 0.59443 0.0
H505 H 0.062 0.21265 0.56308 0.0
H506 H 1.0025 0.1461 0.51401 0.0
H507 H 1.01602 0.1142 0.54537 0.0
H508 H 0.02954 0.91681 0.53534 0.0
H509 H 0.02783 0.88222 0.56803 0.0
H510 H 0.08765 0.93751 0.63125 0.0
H511 H 0.089 0.97201 0.59889 0.0
Tb512 Tb 0.30553 0.79178 0.78016 0.0
Tb513 Tb 0.31542 0.83533 0.8352 0.0
C514 C 0.3118 0.75659 0.74102 0.0
C515 C 0.32286 0.73283 0.74607 0.0
C516 C 0.34568 0.73247 0.73951 0.0
C517 C 0.35825 0.71297 0.74909 0.0
C518 C 0.34828 0.69358 0.76539 0.0
C519 C 0.32529 0.6935 0.77142 0.0
C520 C 0.31266 0.71283 0.76178 0.0
C521 C 0.27877 0.77975 0.81885 0.0
C522 C 0.34771 0.79338 0.83601 0.0
C523 C 0.30901 0.86791 0.87718 0.0
C524 C 0.2944 0.88894 0.87727 0.0
C525 C 0.28208 0.89371 0.90008 0.0
C526 C 0.2676 0.91317 0.89944 0.0
C527 C 0.26543 0.92817 0.87606 0.0
C528 C 0.27756 0.92302 0.85315 0.0
C529 C 0.29177 0.9035 0.85365 0.0
C530 C 0.34267 0.84715 0.79675 0.0
C531 C 0.27397 0.83391 0.77858 0.0
O532 O 0.32652 0.7812 0.74992 0.0
O533 O 0.29079 0.75571 0.74842 0.0
O534 O 0.30085 0.79163 0.82407 0.0
O535 O 0.27089 0.77312 0.79069 0.0
O536 O 0.338 0.78508 0.80767 0.0
O537 O 0.33932 0.81073 0.85315 0.0
O538 O 0.2967 0.84206 0.86918 0.0
O539 O 0.32774 0.87306 0.86477 0.0
O540 O 0.32054 0.83539 0.79138 0.0
O541 O 0.35011 0.85424 0.825 0.0
O542 O 0.28229 0.84058 0.80744 0.0
O543 O 0.28406 0.81845 0.76156 0.0
H544 H 0.35419 0.74801 0.72809 0.0
H545 H 0.37613 0.71354 0.7447 0.0
H546 H 0.31719 0.67862 0.78385 0.0
H547 H 0.29528 0.71268 0.76764 0.0
H548 H 0.2836 0.88235 0.91825 0.0
H549 H 0.25838 0.91677 0.91736 0.0
H550 H 0.27584 0.9339 0.83461 0.0
H551 H 0.30064 0.89972 0.83544 0.0
Tb552 Tb 0.54678 0.05062 0.05737 0.0
Tb553 Tb 0.58843 0.04803 0.10401 0.0
C554 C 0.50757 0.0367 0.02027 0.0
C555 C 0.4815 0.02896 0.01926 0.0
C556 C 0.47249 1.01578 0.04109 0.0
C557 C 0.44776 1.00421 0.03722 0.0
C558 C 0.43171 1.00579 1.01157 0.0
C559 C 0.44062 1.02048 0.99064 0.0
C560 C 0.46539 0.03189 0.99443 0.0
C561 C 0.57118 0.09924 0.08813 0.0
C562 C 0.53845 0.04539 0.12474 0.0
C563 C 0.62817 0.05942 0.13977 0.0
C564 C 0.65376 0.06173 0.13834 0.0
C565 C 0.66514 0.07977 0.12169 0.0
C566 C 0.68986 0.08332 0.12247 0.0
C567 C 0.70367 0.06866 0.13963 0.0
C568 C 0.69197 0.0497 0.15526 0.0
C569 C 0.66725 0.0464 0.15473 0.0
C570 C 0.56321 0.99994 0.07316 0.0
C571 C 0.59752 0.05354 0.03737 0.0
O572 O 0.51986 1.01904 0.02972 0.0
O573 O 0.51878 0.06271 0.03063 0.0
O574 O 0.5662 0.07653 0.0972 0.0
O575 O 0.5615 0.0952 0.06022 0.0
O576 O 0.5284 0.04392 0.09622 0.0
O577 O 0.56225 0.04876 0.13283 0.0
O578 O 0.61788 0.07834 0.12938 0.0
O579 O 0.61413 0.03432 0.13239 0.0
O580 O 0.56904 1.02251 0.06437 0.0
O581 O 0.57325 1.0032 0.10077 0.0
O582 O 0.60678 0.05531 0.06605 0.0
O583 O 0.5737 0.05022 0.02838 0.0
H584 H 0.48466 1.01335 0.06046 0.0
H585 H 0.44126 0.99331 0.05386 0.0
H586 H 0.42863 1.02188 0.97063 0.0
H587 H 0.4721 0.04192 0.97734 0.0
H588 H 0.65515 0.09175 0.10867 0.0
H589 H 0.69826 0.09848 0.11056 0.0
H590 H 0.70198 0.0378 0.16834 0.0
H591 H 0.65874 0.03223 0.16757 0.0
Tb592 Tb 0.28109 0.27436 0.29622 0.0
Tb593 Tb 0.32586 0.31122 0.32968 0.0
C594 C 0.23741 0.2492 0.28245 0.0
C595 C 0.21789 0.2556 0.29661 0.0
C596 C 0.2234 0.26745 0.32657 0.0
C597 C 0.20582 0.27599 0.33999 0.0
C598 C 0.18224 0.27282 0.32382 0.0
C599 C 0.17663 0.26083 0.29379 0.0
C600 C 0.1944 0.2523 0.28026 0.0
C601 C 0.30857 0.29743 0.26269 0.0
C602 C 0.28076 0.33827 0.323 0.0
C603 C 0.36957 0.33632 0.34548 0.0
C604 C 0.39115 0.32528 0.35317 0.0
C605 C 0.41287 0.33779 0.34587 0.0
C606 C 0.43174 0.32399 0.34668 0.0
C607 C 0.42897 0.29738 0.35452 0.0
C608 C 0.40788 0.28584 0.36387 0.0
C609 C 0.38911 0.2997 0.36325 0.0
C610 C 0.29885 0.28498 0.36257 0.0
C611 C 0.32549 0.24559 0.30458 0.0
O612 O 0.25394 0.24041 0.29908 0.0
O613 O 0.24693 0.26826 0.26845 0.0
O614 O 0.30512 0.30948 0.2866 0.0
O615 O 0.29539 0.27219 0.25637 0.0
O616 O 0.26906 0.31151 0.31587 0.0
O617 O 0.30479 0.34427 0.3269 0.0
O618 O 0.35837 0.32853 0.31792 0.0
O619 O 0.35456 0.33428 0.36349 0.0
O620 O 0.30246 0.27552 0.33796 0.0
O621 O 0.31193 0.31024 0.37059 0.0
O622 O 0.33825 0.2711 0.31814 0.0
O623 O 0.30181 0.24172 0.29452 0.0
H624 H 0.24153 0.27073 0.33958 0.0
H625 H 0.2109 0.28569 0.36295 0.0
H626 H 0.15855 0.25799 0.28084 0.0
H627 H 0.18992 0.2435 0.25704 0.0
H628 H 0.41467 0.35737 0.3378 0.0
H629 H 0.44775 0.33322 0.3391 0.0
H630 H 0.40546 0.26546 0.37023 0.0
H631 H 0.37245 0.28964 0.36897 0.0
Tb632 Tb 0.56165 0.57338 0.07881 0.0
Tb633 Tb 0.56537 0.51177 0.06508 0.0
C634 C 0.57283 0.62525 0.08504 0.0
C635 C 0.56245 0.64545 0.07024 0.0
C636 C 0.54775 0.63707 0.04197 0.0
C637 C 0.53938 0.65668 0.02694 0.0
C638 C 0.5453 0.68483 0.04016 0.0
C639 C 0.55905 0.69298 0.06899 0.0
C640 C 0.5677 0.67335 0.08392 0.0
C641 C 0.5188 0.53941 0.07485 0.0
C642 C 0.54676 0.53949 0.01247 0.0
C643 C 0.56313 0.46111 0.06493 0.0
C644 C 0.56326 0.44429 0.08853 0.0
C645 C 0.54446 0.4407 0.10421 0.0
C646 C 0.54625 0.42702 0.12839 0.0
C647 C 0.56696 0.4171 0.13744 0.0
C648 C 0.58549 0.42021 0.12146 0.0
C649 C 0.58356 0.4335 0.09709 0.0
C650 C 0.6033 0.55094 0.06239 0.0
C651 C 0.5745 0.54222 0.13174 0.0
O652 O 0.58236 0.60889 0.06855 0.0
O653 O 0.55943 0.61185 0.10097 0.0
O654 O 0.53854 0.53343 0.07196 0.0
O655 O 0.52271 0.56635 0.07933 0.0
O656 O 0.55321 0.56415 0.03019 0.0
O657 O 0.54757 0.51579 0.02201 0.0
O658 O 0.54393 0.47111 0.0577 0.0
O659 O 0.5834 0.47947 0.06688 0.0
O660 O 0.58971 0.55145 0.08064 0.0
O661 O 0.59638 0.52697 0.04504 0.0
O662 O 0.56913 0.51852 0.11283 0.0
O663 O 0.57507 0.56663 0.12315 0.0
H664 H 0.54325 0.6155 0.03125 0.0
H665 H 0.52864 0.64998 1.00478 0.0
H666 H 0.56392 0.71466 0.07947 0.0
H667 H 0.57891 0.68002 0.10582 0.0
H668 H 0.52859 0.44886 0.09821 0.0
H669 H 0.53172 0.42472 0.14042 0.0
H670 H 0.60144 0.41227 0.1278 0.0
H671 H 0.59825 0.43594 0.08531 0.0
Tb672 Tb 0.79959 0.27366 0.33775 0.0
Tb673 Tb 0.81209 0.33573 0.36563 0.0
C674 C 0.79809 0.22578 0.3114 0.0
C675 C 0.81514 0.21127 0.29995 0.0
C676 C 0.83905 0.22531 0.30102 0.0
C677 C 0.85564 0.21062 0.29242 0.0
C678 C 0.84854 0.18162 0.28278 0.0
C679 C 0.82424 0.16793 0.28056 0.0
C680 C 0.8077 0.18267 0.28911 0.0
C681 C 0.78397 0.2857 0.38648 0.0
C682 C 0.85274 0.30415 0.37351 0.0
C683 C 0.81281 0.3834 0.39207 0.0
C684 C 0.79498 0.40063 0.39272 0.0
C685 C 0.77358 0.39399 0.37113 0.0
C686 C 0.75796 0.41199 0.36973 0.0
C687 C 0.76349 0.43703 0.38986 0.0
C688 C 0.78444 0.44315 0.41225 0.0
C689 C 0.80019 0.42513 0.41347 0.0
C690 C 0.82769 0.32431 0.31691 0.0
C691 C 0.75992 0.30644 0.32524 0.0
O692 O 0.79273 0.24583 0.298 0.0
O693 O 0.80206 0.23258 0.34008 0.0
O694 O 0.80378 0.29706 0.38063 0.0
O695 O 0.77288 0.26539 0.36521 0.0
O696 O 0.83884 0.28434 0.35221 0.0
O697 O 0.84437 0.32435 0.38653 0.0
O698 O 0.80883 0.36089 0.40377 0.0
O699 O 0.81923 0.37877 0.3668 0.0
O700 O 0.80806 0.31241 0.32289 0.0
O701 O 0.8385 0.34494 0.33794 0.0
O702 O 0.77329 0.32672 0.34642 0.0
O703 O 0.76792 0.28475 0.31518 0.0
H704 H 0.84499 0.24748 0.30901 0.0
H705 H 0.87413 0.22181 0.29395 0.0
H706 H 0.81824 0.14558 0.27359 0.0
H707 H 0.78928 0.17155 0.28813 0.0
H708 H 0.76939 0.37553 0.35456 0.0
H709 H 0.74184 0.40667 0.35241 0.0
H710 H 0.78924 0.46245 0.42789 0.0
H711 H 0.81688 0.43085 0.42985 0.0
Tb712 Tb 0.03467 0.55063 0.54306 0.0
Tb713 Tb 0.07834 0.55454 0.59102 0.0
C714 C 0.99595 0.53422 0.50506 0.0
C715 C 0.96981 0.52433 0.50241 0.0
C716 C 0.95669 0.50511 0.47744 0.0
C717 C 0.93192 0.49448 0.4744 0.0
C718 C 0.91984 0.50298 0.49629 0.0
C719 C 0.93295 0.52265 0.52113 0.0
C720 C 0.95786 0.53318 0.52426 0.0
C721 C 0.0577 0.60099 0.57011 0.0
C722 C 0.02683 0.54848 0.61039 0.0
C723 C 0.11735 0.5751 0.62743 0.0
C724 C 0.14365 0.58011 0.63028 0.0
C725 C 0.15798 0.60493 0.64762 0.0
C726 C 0.18301 0.61116 0.65026 0.0
C727 C 0.19426 0.59254 0.63572 0.0
C728 C 0.1798 0.56741 0.61855 0.0
C729 C 0.15463 0.56127 0.61575 0.0
C730 C 0.05588 0.50365 0.56523 0.0
C731 C 0.08528 0.55484 0.52239 0.0
O732 O 1.0093 0.51765 0.51469 0.0
O733 O 1.00555 0.56046 0.51632 0.0
O734 O 0.0536 0.57932 0.58103 0.0
O735 O 0.04717 0.59537 0.54249 0.0
O736 O 1.01713 0.54297 0.58147 0.0
O737 O 0.0509 0.55571 0.61942 0.0
O738 O 0.10645 0.58932 0.60999 0.0
O739 O 0.10517 0.54928 0.6248 0.0
O740 O 0.05903 0.52511 0.55359 0.0
O741 O 0.06831 0.51002 0.59212 0.0
O742 O 0.09578 0.55725 0.55093 0.0
O743 O 0.0614 0.55135 0.51462 0.0
H744 H 0.96569 0.49809 0.46038 0.0
H745 H 0.92221 0.47946 0.45498 0.0
H746 H 0.92409 0.52925 0.53849 0.0
H747 H 0.96778 0.54789 0.54381 0.0
H748 H 0.14973 0.61978 0.65881 0.0
H749 H 0.19343 0.63097 0.66307 0.0
H750 H 0.18792 0.55254 0.60722 0.0
H751 H 0.14379 0.54201 0.60214 0.0
Tb752 Tb 0.78655 0.8164 0.32003 0.0
Tb753 Tb 0.83359 0.79543 0.32349 0.0
C754 C 0.74472 0.82216 0.32453 0.0
C755 C 0.72698 0.81712 0.34396 0.0
C756 C 0.70479 0.79762 0.33297 0.0
C757 C 0.68698 0.79367 0.34989 0.0
C758 C 0.69078 0.80922 0.37832 0.0
C759 C 0.71315 0.82857 0.38944 0.0
C760 C 0.731 0.83248 0.37249 0.0
C761 C 0.82488 0.85248 0.31376 0.0
C762 C 0.81937 0.81518 0.38257 0.0
C763 C 0.8754 0.78874 0.32066 0.0
C764 C 0.89314 0.79077 0.30135 0.0
C765 C 0.8926 0.80756 0.27951 0.0
C766 C 0.91092 0.81075 0.2632 0.0
C767 C 0.93017 0.79731 0.2685 0.0
C768 C 0.9303 0.78019 0.29011 0.0
C769 C 0.912 0.77698 0.30632 0.0
C770 C 0.79508 0.75978 0.32989 0.0
C771 C 0.8005 0.7951 0.26077 0.0
O772 O 0.74898 0.80009 0.30984 0.0
O773 O 0.76443 0.84203 0.33422 0.0
O774 O 0.82441 0.83469 0.33048 0.0
O775 O 0.80281 0.85227 0.30148 0.0
O776 O 0.79759 0.81484 0.36722 0.0
O777 O 0.83729 0.81083 0.36976 0.0
O778 O 0.87091 0.8122 0.33182 0.0
O779 O 0.85581 0.7686 0.31239 0.0
O780 O 0.79587 0.77742 0.31311 0.0
O781 O 0.81701 0.75993 0.34258 0.0
O782 O 0.82227 0.79543 0.27611 0.0
O783 O 0.78282 0.8006 0.27357 0.0
H784 H 0.70109 0.78554 0.31102 0.0
H785 H 0.67024 0.77827 0.34069 0.0
H786 H 0.71672 0.84118 0.41107 0.0
H787 H 0.74779 0.84782 0.38163 0.0
H788 H 0.87828 0.81855 0.27546 0.0
H789 H 0.91031 0.82427 0.24691 0.0
H790 H 0.94453 0.76913 0.29446 0.0
H791 H 0.91278 0.76399 0.32312 0.0
Tb792 Tb 0.81315 0.28315 0.79313 0.0
Tb793 Tb 0.80584 0.31437 0.8473 0.0
C794 C 0.81218 0.26289 0.7407 0.0
C795 C 0.80901 0.27134 0.71175 0.0
C796 C 0.81669 0.29918 0.70863 0.0
C797 C 0.81137 0.30704 0.68116 0.0
C798 C 0.79809 0.28721 0.65651 0.0
C799 C 0.79088 0.25927 0.65965 0.0
C800 C 0.79637 0.2514 0.68708 0.0
C801 C 0.84646 0.28435 0.8401 0.0
C802 C 0.83137 0.35107 0.80702 0.0
C803 C 0.80606 0.3344 0.8995 0.0
C804 C 0.80503 0.32462 0.92749 0.0
C805 C 0.79053 0.29867 0.9287 0.0
C806 C 0.79171 0.28876 0.95531 0.0
C807 C 0.80753 0.30462 0.98095 0.0
C808 C 0.82133 0.33102 0.97981 0.0
C809 C 0.82005 0.34094 0.95326 0.0
C810 C 0.77257 0.31298 0.80007 0.0
C811 C 0.78791 0.24649 0.83398 0.0
O812 O 0.79311 0.26059 0.75249 0.0
O813 O 0.83218 0.27514 0.7598 0.0
O814 O 0.83683 0.30401 0.83382 0.0
O815 O 0.83837 0.26348 0.81862 0.0
O816 O 0.82485 0.32763 0.78701 0.0
O817 O 0.82722 0.35047 0.83383 0.0
O818 O 0.82565 0.33289 0.88953 0.0
O819 O 0.78647 0.32639 0.87878 0.0
O820 O 0.78217 0.29339 0.80662 0.0
O821 O 0.78092 0.33408 0.82128 0.0
O822 O 0.79345 0.27016 0.85349 0.0
O823 O 0.7928 0.24677 0.80745 0.0
H824 H 0.82622 0.31491 0.72749 0.0
H825 H 0.81686 0.3288 0.67942 0.0
H826 H 0.78074 0.24359 0.64098 0.0
H827 H 0.7902 0.22983 0.68919 0.0
H828 H 0.77882 0.28578 0.90901 0.0
H829 H 0.78107 0.26821 0.95556 0.0
H830 H 0.83351 0.34372 0.99933 0.0
H831 H 0.83133 0.36105 0.95267 0.0
Tb832 Tb 0.78484 0.77995 0.81379 0.0
Tb833 Tb 0.83289 0.81501 0.8355 0.0
C834 C 0.74098 0.75673 0.80795 0.0
C835 C 0.71886 0.76736 0.80677 0.0
C836 C 0.71833 0.79076 0.82674 0.0
C837 C 0.69718 0.8004 0.82572 0.0
C838 C 0.67613 0.78697 0.8046 0.0
C839 C 0.67693 0.76401 0.78409 0.0
C840 C 0.69812 0.75428 0.78522 0.0
C841 C 0.80697 0.79537 0.7718 0.0
C842 C 0.79025 0.84739 0.83227 0.0
C843 C 0.8764 0.83812 0.83867 0.0
C844 C 0.89533 0.8267 0.82762 0.0
C845 C 0.88881 0.80461 0.80371 0.0
C846 C 0.90636 0.79269 0.79371 0.0
C847 C 0.93097 0.8031 0.80682 0.0
C848 C 0.93752 0.82535 0.83078 0.0
C849 C 0.91976 0.83695 0.84122 0.0
C850 C 0.81108 0.79941 0.87765 0.0
C851 C 0.82739 0.74772 0.81751 0.0
O852 O 0.75642 0.76316 0.83322 0.0
O853 O 0.75163 0.75949 0.78572 0.0
O854 O 0.80714 0.81026 0.7958 0.0
O855 O 0.79332 0.77088 0.77036 0.0
O856 O 0.77562 0.82191 0.82435 0.0
O857 O 0.81411 0.84977 0.83698 0.0
O858 O 0.85864 0.84042 0.81829 0.0
O859 O 0.86862 0.82717 0.8601 0.0
O860 O 0.8107 0.78456 0.8535 0.0
O861 O 0.82488 0.8239 0.87916 0.0
O862 O 0.84165 0.7733 0.82205 0.0
O863 O 0.80374 0.74531 0.81607 0.0
H864 H 0.73412 0.8014 0.8435 0.0
H865 H 0.69716 0.81782 0.84219 0.0
H866 H 0.66112 0.75339 0.76734 0.0
H867 H 0.69827 0.73639 0.7694 0.0
H868 H 0.87009 0.79652 0.7926 0.0
H869 H 0.90055 0.77526 0.77563 0.0
H870 H 0.95634 0.83414 0.84114 0.0
H871 H 0.9251 0.85398 0.85973 0.0
Tb872 Tb 0.52744 0.52105 0.55405 0.0
Tb873 Tb 0.57333 0.55768 0.58804 0.0
C874 C 0.48348 0.50001 0.53293 0.0
C875 C 0.46258 0.5127 0.53399 0.0
C876 C 0.45353 0.51511 0.5599 0.0
C877 C 0.43964 0.53428 0.56506 0.0
C878 C 0.4339 0.55098 0.54409 0.0
C879 C 0.44021 0.54581 0.51655 0.0
C880 C 0.45455 0.52689 0.51158 0.0
C881 C 0.56367 0.52382 0.52649 0.0
C882 C 0.5372 0.58693 0.5553 0.0
C883 C 0.61729 0.57896 0.60931 0.0
C884 C 0.6371 0.56658 0.62144 0.0
C885 C 0.65738 0.56891 0.60851 0.0
C886 C 0.67312 0.55139 0.61346 0.0
C887 C 0.669 0.53137 0.63178 0.0
C888 C 0.65023 0.53137 0.64735 0.0
C889 C 0.63424 0.54863 0.642 0.0
C890 C 0.53712 0.5549 0.61595 0.0
C891 C 0.56283 0.49136 0.58808 0.0
O892 O 0.49477 0.49628 0.55834 0.0
O893 O 0.49865 0.51061 0.51733 0.0
O894 O 0.55898 0.54367 0.54228 0.0
O895 O 0.54693 0.50157 0.52452 0.0
O896 O 0.52097 0.56338 0.55381 0.0
O897 O 0.56043 0.58877 0.56529 0.0
O898 O 0.60851 0.5704 0.58114 0.0
O899 O 0.60024 0.57976 0.62431 0.0
O900 O 0.54171 0.53509 0.59989 0.0
O901 O 0.5538 0.5772 0.61754 0.0
O902 O 0.57883 0.51574 0.59418 0.0
O903 O 0.54046 0.48875 0.57383 0.0
H904 H 0.45894 0.50407 0.57743 0.0
H905 H 0.43536 0.53752 0.58665 0.0
H906 H 0.43542 0.55762 0.49952 0.0
H907 H 0.46081 0.52495 0.49107 0.0
H908 H 0.65991 0.58263 0.5926 0.0
H909 H 0.68716 0.55197 0.60078 0.0
H910 H 0.64687 0.5167 0.66212 0.0
H911 H 0.61877 0.54648 0.65244 0.0
Tb912 Tb 0.08829 0.55784 0.06353 0.0
Tb913 Tb 0.04178 0.54452 0.08207 0.0
C914 C 0.13106 0.55983 0.0564 0.0
C915 C 0.14954 0.54303 0.06125 0.0
C916 C 0.17245 0.55553 0.07907 0.0
C917 C 0.19038 0.54035 0.08358 0.0
C918 C 0.18588 0.51222 0.07032 0.0
C919 C 0.16289 0.49976 0.0524 0.0
C920 C 0.14497 0.51495 0.04791 0.0
C921 C 0.05023 0.56034 0.02213 0.0
C922 C 0.06247 0.49454 0.06151 0.0
C923 C 0.99845 0.54182 0.08718 0.0
C924 C 0.98015 0.55893 0.0831 0.0
C925 C 0.95813 0.54786 0.06284 0.0
C926 C 0.94028 0.56318 0.05901 0.0
C927 C 0.94392 0.59003 0.07544 0.0
C928 C 0.96602 0.60108 0.09576 0.0
C929 C 0.9839 0.58575 0.09955 0.0
C930 C 0.07927 0.54136 0.1236 0.0
C931 C 0.06946 0.60823 0.08682 0.0
O932 O 0.1258 0.57233 0.07994 0.0
O933 O 0.11174 0.54919 0.0357 0.0
O934 O 0.05113 0.54285 0.03954 0.0
O935 O 0.0718 0.57629 0.02678 0.0
O936 O 0.08298 0.51334 0.06505 0.0
O937 O 0.04214 0.50205 0.06403 0.0
O938 O 1.00459 0.53124 0.06336 0.0
O939 O 1.01714 0.55096 0.10904 0.0
O940 O 0.07891 0.55907 0.10628 0.0
O941 O 0.0575 0.52585 0.11885 0.0
O942 O 0.0486 0.59003 0.08403 0.0
O943 O 0.08908 0.60004 0.08244 0.0
H944 H 0.17651 0.57715 0.08957 0.0
H945 H 0.20768 0.55061 0.09782 0.0
H946 H 0.15877 0.47829 0.04146 0.0
H947 H 0.12759 0.50468 0.03386 0.0
H948 H 0.95471 0.52723 0.0499 0.0
H949 H 0.92372 0.55408 0.04286 0.0
H950 H 0.96943 0.62148 0.10915 0.0
H951 H 1.00057 0.59488 0.1155 0.0
H952 H 0.9883 0.1766 1.00329 0.0
H953 H 0.06161 0.22408 0.0128 0.0
H954 H 0.07707 0.18846 0.03604 0.0
H955 H 0.07018 0.14312 0.05198 0.0
H956 H 0.99713 0.09506 0.0426 0.0
H957 H 0.9813 0.13168 0.02141 0.0
C958 C 1.00766 0.17925 1.01057 0.0
C959 C 0.02372 0.20309 1.00607 0.0
C960 C 1.01655 0.15853 0.02399 0.0
C961 C 0.04875 0.20607 0.01583 0.0
C962 C 0.05766 0.18563 0.02914 0.0
C963 C 0.05076 0.1406 0.04548 0.0
C964 C 0.03493 0.11616 0.04891 0.0
C965 C 0.04177 0.16167 0.03307 0.0
C966 C 1.00982 0.11356 0.04036 0.0
C967 C 1.00073 0.13451 0.02809 0.0
H968 H 0.17373 0.77511 0.22372 0.0
H969 H 0.16802 0.85907 0.2522 0.0
H970 H 0.20854 0.86938 0.28361 0.0
H971 H 0.24507 0.85376 0.3047 0.0
H972 H 0.25038 0.76986 0.27512 0.0
H973 H 0.21079 0.76047 0.24231 0.0
C974 C 0.18131 0.79572 0.23674 0.0
C975 C 0.16766 0.81619 0.23577 0.0
C976 C 0.20466 0.80154 0.25458 0.0
C977 C 0.17803 0.84287 0.25254 0.0
C978 C 0.20122 0.84877 0.27056 0.0
C979 C 0.23761 0.83351 0.29088 0.0
C980 C 0.25068 0.81251 0.29248 0.0
C981 C 0.21463 0.82817 0.272 0.0
C982 C 0.2408 0.78642 0.27433 0.0
C983 C 0.21806 0.78098 0.25562 0.0
H984 H 0.55926 0.86806 0.51574 0.0
H985 H 0.48875 0.84977 0.53779 0.0
H986 H 0.49296 0.89909 0.55603 0.0
H987 H 0.51578 0.94797 0.56359 0.0
H988 H 0.58659 0.96593 0.54211 0.0
H989 H 0.58308 0.9165 0.52607 0.0
C990 C 0.54488 0.8748 0.52475 0.0
C991 C 0.52367 0.85507 0.52518 0.0
C992 C 0.54738 0.90333 0.53525 0.0
C993 C 0.5053 0.86434 0.5371 0.0
C994 C 0.50764 0.89265 0.5475 0.0
C995 C 0.53052 0.94111 0.55557 0.0
C996 C 0.55133 0.96092 0.55394 0.0
C997 C 0.52847 0.91242 0.54634 0.0
C998 C 0.57027 0.9514 0.54361 0.0
C999 C 0.5683 0.92301 0.53434 0.0
H1000 H 0.4994 0.32586 0.69227 0.0
H1001 H 0.55048 0.30736 0.76152 0.0
H1002 H 0.51937 0.30019 0.791 0.0
H1003 H 0.47753 0.29904 0.79711 0.0
H1004 H 0.4263 0.31592 0.72679 0.0
H1005 H 0.45767 0.3242 0.69809 0.0
C1006 C 0.50383 0.32035 0.71385 0.0
C1007 C 0.52737 0.31722 0.72459 0.0
C1008 C 0.48578 0.31602 0.73061 0.0
C1009 C 0.53259 0.30993 0.75261 0.0
C1010 C 0.51476 0.3058 0.76951 0.0
C1011 C 0.4731 0.30426 0.7754 0.0
C1012 C 0.44941 0.3069 0.76433 0.0
C1013 C 0.49125 0.30868 0.7587 0.0
C1014 C 0.44433 0.31416 0.73625 0.0
C1015 C 0.46227 0.31873 0.71965 0.0
H1016 H 0.05986 0.80835 0.67209 0.0
H1017 H 0.0696 0.87483 0.74539 0.0
H1018 H 0.06433 0.90739 0.71137 0.0
H1019 H 0.06006 0.9175 0.6611 0.0
H1020 H 0.0523 0.85122 0.58831 0.0
H1021 H 0.05338 0.81784 0.62199 0.0
C1022 C 0.06061 0.8299 0.68069 0.0
C1023 C 0.06538 0.83925 0.71122 0.0
C1024 C 0.05802 0.84851 0.66113 0.0
C1025 C 0.06606 0.86716 0.72197 0.0
C1026 C 0.06314 0.88579 0.70255 0.0
C1027 C 0.05865 0.89574 0.65265 0.0
C1028 C 0.05635 0.88683 0.62235 0.0
C1029 C 0.05969 0.8768 0.67215 0.0
C1030 C 0.05397 0.85852 0.61155 0.0
C1031 C 0.05472 0.83947 0.63078 0.0
H1032 H 0.44896 0.76505 0.84391 0.0
H1033 H 0.46995 0.84865 0.89378 0.0
H1034 H 0.42777 0.84904 0.89279 0.0
H1035 H 0.38508 0.82764 0.87432 0.0
H1036 H 0.36327 0.74667 0.81921 0.0
H1037 H 0.40546 0.74268 0.82658 0.0
C1038 C 0.44424 0.78325 0.85463 0.0
C1039 C 0.46253 0.80684 0.86862 0.0
C1040 C 0.4198 0.7836 0.85352 0.0
C1041 C 0.45621 0.83034 0.88245 0.0
C1042 C 0.43209 0.83054 0.88215 0.0
C1043 C 0.3895 0.80873 0.86479 0.0
C1044 C 0.37123 0.78733 0.84666 0.0
C1045 C 0.41376 0.80747 0.86743 0.0
C1046 C 0.37716 0.76325 0.83359 0.0
C1047 C 0.40126 0.76113 0.83751 0.0
H1048 H 0.56208 0.21402 0.15318 0.0
H1049 H 0.56575 0.16936 0.22625 0.0
H1050 H 0.57235 0.12949 0.19506 0.0
H1051 H 0.576 0.10703 0.14706 0.0
H1052 H 0.57069 0.15053 0.07326 0.0
H1053 H 0.56675 0.19177 0.10517 0.0
C1054 C 0.56419 0.19552 0.16228 0.0
C1055 C 0.56322 0.19459 0.19197 0.0
C1056 C 0.56815 0.17276 0.14429 0.0
C1057 C 0.56626 0.17056 0.20345 0.0
C1058 C 0.57019 0.14783 0.18569 0.0
C1059 C 0.57428 0.12564 0.13797 0.0
C1060 C 0.57352 0.12574 0.10782 0.0
C1061 C 0.57115 0.14873 0.15612 0.0
C1062 C 0.57137 0.15001 0.09642 0.0
C1063 C 0.56887 0.17345 0.11459 0.0
H1064 H 0.11468 0.30933 0.40601 0.0
H1065 H 0.08658 0.34215 0.32994 0.0
H1066 H 0.11567 0.32549 0.30379 0.0
H1067 H 0.14887 0.30108 0.30272 0.0
H1068 H 0.17447 0.26592 0.37828 0.0
H1069 H 0.14648 0.28408 0.4045 0.0
C1070 C 0.11505 0.31314 0.38381 0.0
C1071 C 0.0987 0.32717 0.37 0.0
C1072 C 0.13125 0.30291 0.36878 0.0
C1073 C 0.09911 0.33148 0.34105 0.0
C1074 C 0.11565 0.32189 0.32609 0.0
C1075 C 0.14809 0.29711 0.32477 0.0
C1076 C 0.16387 0.28235 0.33859 0.0
C1077 C 0.13168 0.30735 0.33968 0.0
C1078 C 0.16282 0.27762 0.36731 0.0
C1079 C 0.14677 0.28792 0.38231 0.0
H1080 H 1.0167 0.096 0.23588 0.0
H1081 H 0.98529 1.0078 0.21019 0.0
H1082 H 1.00572 1.0064 0.1686 0.0
H1083 H 0.0338 0.03014 0.1405 0.0
H1084 H 0.06538 0.11801 0.16696 0.0
H1085 H 0.04383 0.11965 0.20748 0.0
C1086 C 1.01427 0.07643 0.22122 0.0
C1087 C 0.99949 0.05204 0.22626 0.0
C1088 C 0.02611 0.07576 0.19744 0.0
C1089 C 0.99662 0.02689 0.20695 0.0
C1090 C 1.00826 0.02608 0.1831 0.0
C1091 C 0.0353 0.04973 0.1546 0.0
C1092 C 0.05057 0.07407 0.15035 0.0
C1093 C 0.02309 0.05038 0.17814 0.0
C1094 C 0.05349 0.09909 0.16971 0.0
C1095 C 0.04122 0.10001 0.19289 0.0
H1096 H 0.34149 0.71714 0.58518 0.0
H1097 H 0.34048 0.79257 0.64146 0.0
H1098 H 0.32765 0.81294 0.59825 0.0
H1099 H 0.31936 0.81013 0.54459 0.0
H1100 H 0.31825 0.73346 0.48864 0.0
H1101 H 0.32953 0.71278 0.53178 0.0
C1102 C 0.33839 0.73802 0.58795 0.0
C1103 C 0.34216 0.75352 0.61629 0.0
C1104 C 0.33081 0.74938 0.56315 0.0
C1105 C 0.33769 0.78032 0.61974 0.0
C1106 C 0.33044 0.79196 0.59509 0.0
C1107 C 0.32108 0.78871 0.54177 0.0
C1108 C 0.31828 0.77354 0.51336 0.0
C1109 C 0.32724 0.77678 0.56669 0.0
C1110 C 0.32086 0.74587 0.51022 0.0
C1111 C 0.32718 0.73395 0.53487 0.0
H1112 H 0.66848 0.04493 0.71967 0.0
H1113 H 0.61647 1.01755 0.7719 0.0
H1114 H 0.58342 1.01788 0.73129 0.0
H1115 H 0.56883 0.02695 0.68092 0.0
H1116 H 0.6207 0.05348 0.62842 0.0
H1117 H 0.65383 0.05237 0.66867 0.0
C1118 C 0.64993 0.03889 0.72232 0.0
C1119 C 0.64535 0.03123 0.74945 0.0
C1120 C 0.63077 0.03905 0.69854 0.0
C1121 C 0.62094 0.02348 0.75175 0.0
C1122 C 0.60189 0.02375 0.72835 0.0
C1123 C 0.58738 0.03242 0.67814 0.0
C1124 C 0.59199 0.0404 0.65121 0.0
C1125 C 0.60651 0.03163 0.70165 0.0
C1126 C 0.61631 0.04729 0.64847 0.0
C1127 C 0.63537 0.04668 0.6717 0.0
H1128 H 0.31006 0.37312 0.01283 0.0
H1129 H 0.38092 0.3553 0.03044 0.0
H1130 H 0.37387 0.33005 0.98046 0.0
H1131 H 0.34911 0.31612 0.93069 0.0
H1132 H 0.27821 0.33363 0.91234 0.0
H1133 H 0.28367 0.35548 0.96363 0.0
C1134 C 0.32385 0.36346 1.00583 0.0
C1135 C 0.3461 0.36643 0.02538 0.0
C1136 C 0.31974 0.34896 0.97682 0.0
C1137 C 0.36369 0.35358 0.01592 0.0
C1138 C 0.3597 0.33912 0.98725 0.0
C1139 C 0.33472 0.32446 0.93789 0.0
C1140 C 0.3134 0.32348 0.91751 0.0
C1141 C 0.33803 0.33718 0.96735 0.0
C1142 C 0.29486 0.33414 0.92745 0.0
C1143 C 0.29801 0.34678 0.95681 0.0
H1144 H 0.99042 0.06775 0.38387 0.0
H1145 H 0.02591 1.00284 0.35771 0.0
H1146 H 0.04446 1.00445 0.40891 0.0
H1147 H 0.0489 1.02219 0.46113 0.0
H1148 H 1.0149 0.08801 0.48835 0.0
H1149 H 0.9977 0.0884 0.43671 0.0
C1150 C 1.00234 0.05409 0.38939 0.0
C1151 C 1.00656 0.035 0.36692 0.0
C1152 C 1.01317 0.05524 0.41904 0.0
C1153 C 0.02227 1.01769 0.37445 0.0
C1154 C 0.03287 1.01853 0.40378 0.0
C1155 C 0.03779 0.03673 0.4558 0.0
C1156 C 0.03289 0.05477 0.47854 0.0
C1157 C 0.02815 0.03689 0.42623 0.0
C1158 C 1.01888 0.07386 0.47125 0.0
C1159 C 1.00897 0.07398 0.44173 0.0
H1160 H 0.38273 0.8009 0.69089 0.0
H1161 H 0.42458 0.77113 0.76018 0.0
H1162 H 0.41299 0.80249 0.79716 0.0
H1163 H 0.38427 0.83029 0.80909 0.0
H1164 H 0.33582 0.8512 0.73907 0.0
H1165 H 0.35667 0.83184 0.70291 0.0
C1166 C 0.38998 0.80207 0.71411 0.0
C1167 C 0.40466 0.78413 0.72299 0.0
C1168 C 0.3815 0.81813 0.73501 0.0
C1169 C 0.41347 0.7851 0.75303 0.0
C1170 C 0.40658 0.8027 0.77409 0.0
C1171 C 0.37875 0.83119 0.78599 0.0
C1172 C 0.3586 0.84192 0.7765 0.0
C1173 C 0.3896 0.81814 0.7653 0.0
C1174 C 0.35136 0.84296 0.74662 0.0
C1175 C 0.36316 0.83176 0.72603 0.0
H1176 H 0.68352 0.05578 0.9654 0.0
H1177 H 0.62394 0.02575 0.89101 0.0
H1178 H 0.59528 0.02781 0.92406 0.0
H1179 H 0.58662 0.03809 0.97511 0.0
H1180 H 0.64719 0.06732 0.04864 0.0
H1181 H 0.67519 0.06564 0.01536 0.0
C1182 C 0.66427 0.04962 0.9561 0.0
C1183 C 0.65637 0.04057 0.92505 0.0
C1184 C 0.64768 0.05081 0.97549 0.0
C1185 C 0.63106 0.03278 0.91435 0.0
C1186 C 0.6145 0.03401 0.93348 0.0
C1187 C 0.60594 0.04432 0.98397 0.0
C1188 C 0.61432 0.0531 0.01508 0.0
C1189 C 0.62248 0.04303 0.96425 0.0
C1190 C 0.63968 0.06058 0.02534 0.0
C1191 C 0.65593 0.05959 1.00609 0.0
H1192 H 0.3406 0.33261 0.14864 0.0
H1193 H 0.33778 0.41382 0.19114 0.0
H1194 H 0.32862 0.39442 0.23442 0.0
H1195 H 0.31879 0.35335 0.25907 0.0
H1196 H 0.32093 0.27247 0.21498 0.0
H1197 H 0.33317 0.29277 0.17383 0.0
C1198 C 0.33814 0.3462 0.1674 0.0
C1199 C 0.33974 0.37465 0.16641 0.0
C1200 C 0.33271 0.33488 0.19208 0.0
C1201 C 0.33662 0.39184 0.19115 0.0
C1202 C 0.33133 0.38073 0.21594 0.0
C1203 C 0.32229 0.34033 0.24062 0.0
C1204 C 0.31885 0.31138 0.24004 0.0
C1205 C 0.32899 0.35215 0.21654 0.0
C1206 C 0.32332 0.29474 0.2159 0.0
C1207 C 0.33028 0.30633 0.19229 0.0
H1208 H 0.24356 0.97888 1.00371 0.0
H1209 H 0.17793 0.94576 0.93795 0.0
H1210 H 0.16308 0.98726 0.95231 0.0
H1211 H 0.16634 0.02884 0.98889 0.0
H1212 H 0.23059 0.05928 0.05716 0.0
H1213 H 0.24869 0.02288 0.03639 0.0
C1214 C 0.22607 0.98082 0.99232 0.0
C1215 C 0.21165 0.95919 0.9701 0.0
C1216 C 0.21745 1.00413 1.00133 0.0
C1217 C 0.18931 0.9622 0.9551 0.0
C1218 C 0.18079 0.9858 0.96346 0.0
C1219 C 0.18456 0.028 0.99864 0.0
C1220 C 0.19714 0.04653 0.02453 0.0
C1221 C 0.19436 1.00638 0.98726 0.0
C1222 C 0.22064 0.04509 0.03727 0.0
C1223 C 0.23088 0.02423 0.02551 0.0
H1224 H 0.7009 0.64403 0.0964 0.0
H1225 H 0.71243 0.60225 0.01522 0.0
H1226 H 0.67282 0.57 1.00773 0.0
H1227 H 0.63511 0.55269 0.02511 0.0
H1228 H 0.62375 0.59559 0.1058 0.0
H1229 H 0.66284 0.62831 0.11246 0.0
C1230 C 0.69479 0.6279 0.07701 0.0
C1231 C 0.70983 0.62554 0.05652 0.0
C1232 C 0.6719 0.60955 0.07274 0.0
C1233 C 0.70135 0.60462 0.0314 0.0
C1234 C 0.67867 0.58611 0.02712 0.0
C1235 C 0.64118 0.5693 0.04405 0.0
C1236 C 0.62651 0.5716 0.06497 0.0
C1237 C 0.66381 0.58823 0.04774 0.0
C1238 C 0.63461 0.59332 0.08934 0.0
C1239 C 0.65703 0.61203 0.09322 0.0
H1240 H 0.70169 0.52802 0.39286 0.0
H1241 H 0.70555 0.51826 0.30101 0.0
H1242 H 0.72844 0.48248 0.30751 0.0
H1243 H 0.74816 0.45487 0.33947 0.0
H1244 H 0.74558 0.46555 0.43158 0.0
H1245 H 0.72142 0.50032 0.42485 0.0
C1246 C 0.70743 0.51798 0.37421 0.0
C1247 C 0.70189 0.52578 0.34646 0.0
C1248 C 0.72086 0.49772 0.37819 0.0
C1249 C 0.70962 0.51271 0.3226 0.0
C1250 C 0.72269 0.49224 0.32629 0.0
C1251 C 0.74207 0.46461 0.35799 0.0
C1252 C 0.74844 0.45759 0.38593 0.0
C1253 C 0.72849 0.4847 0.354 0.0
C1254 C 0.74091 0.47074 0.4099 0.0
C1255 C 0.72708 0.49051 0.40603 0.0
H1256 H 0.80915 0.46417 0.49936 0.0
H1257 H 0.82572 0.38379 0.48121 0.0
H1258 H 0.86655 0.406 0.47693 0.0
H1259 H 0.89853 0.44815 0.48295 0.0
H1260 H 0.88339 0.52879 0.5048 0.0
H1261 H 0.84103 0.50672 0.5034 0.0
C1262 C 0.82165 0.45162 0.49399 0.0
C1263 C 0.81462 0.42249 0.49056 0.0
C1264 C 0.84538 0.46458 0.49273 0.0
C1265 C 0.83091 0.4063 0.48402 0.0
C1266 C 0.85422 0.41896 0.48166 0.0
C1267 C 0.88585 0.46089 0.48696 0.0
C1268 C 0.89396 0.48999 0.49396 0.0
C1269 C 0.86182 0.44807 0.4867 0.0
C1270 C 0.87751 0.5063 0.49961 0.0
C1271 C 0.85333 0.49371 0.4987 0.0
H1272 H 0.35215 0.1278 0.2675 0.0
H1273 H 0.41491 0.1617 0.3371 0.0
H1274 H 0.40077 0.20494 0.34626 0.0
H1275 H 0.36985 0.23433 0.33412 0.0
H1276 H 0.30724 0.1977 0.26471 0.0
H1277 H 0.32209 0.1557 0.25609 0.0
C1278 C 0.36302 0.14452 0.28475 0.0
C1279 C 0.38494 0.14061 0.30144 0.0
C1280 C 0.3547 0.16964 0.28992 0.0
C1281 C 0.39813 0.16328 0.32364 0.0
C1282 C 0.38996 0.18837 0.32884 0.0
C1283 C 0.35948 0.21732 0.31695 0.0
C1284 C 0.33706 0.22016 0.3001 0.0
C1285 C 0.3682 0.19207 0.31206 0.0
C1286 C 0.32427 0.19702 0.2783 0.0
C1287 C 0.33285 0.17258 0.27323 0.0
H1288 H 0.37191 0.17767 0.54607 0.0
H1289 H 0.31678 0.10971 0.55813 0.0
H1290 H 0.34643 0.08096 0.56407 0.0
H1291 H 0.38839 0.0755 0.56731 0.0
H1292 H 0.44307 0.14337 0.55405 0.0
H1293 H 0.41332 0.17168 0.54753 0.0
C1294 C 0.36629 0.15654 0.54992 0.0
C1295 C 0.34205 0.146 0.55171 0.0
C1296 C 0.38346 0.14007 0.55333 0.0
C1297 C 0.33524 0.11848 0.55663 0.0
C1298 C 0.35223 0.10199 0.56008 0.0
C1299 C 0.39379 0.09634 0.56263 0.0
C1300 C 0.41817 0.10719 0.56144 0.0
C1301 C 0.37644 0.1126 0.55862 0.0
C1302 C 0.42468 0.13449 0.5557 0.0
C1303 C 0.40759 0.15071 0.55176 0.0
H1304 H 0.69276 0.6801 0.31731 0.0
H1305 H 0.73039 0.65438 0.39316 0.0
H1306 H 0.76707 0.68917 0.39323 0.0
H1307 H 0.78904 0.72566 0.37022 0.0
H1308 H 0.75137 0.74917 0.29302 0.0
H1309 H 0.71414 0.71673 0.29516 0.0
C1310 C 0.70889 0.68222 0.33406 0.0
C1311 C 0.7088 0.66459 0.35514 0.0
C1312 C 0.72998 0.7019 0.33369 0.0
C1313 C 0.72994 0.66765 0.37662 0.0
C1314 C 0.75097 0.6875 0.37664 0.0
C1315 C 0.77263 0.72364 0.35397 0.0
C1316 C 0.77281 0.74003 0.33176 0.0
C1317 C 0.7513 0.70448 0.35501 0.0
C1318 C 0.75151 0.73724 0.31074 0.0
C1319 C 0.73025 0.71853 0.31179 0.0
H1320 H 0.89302 0.45293 0.76042 0.0
H1321 H 0.8807 0.50022 0.83793 0.0
H1322 H 0.85713 0.45741 0.84921 0.0
H1323 H 0.84073 0.40556 0.838 0.0
H1324 H 0.85213 0.3592 0.75924 0.0
H1325 H 0.87491 0.40206 0.74781 0.0
C1326 C 0.8851 0.4541 0.77975 0.0
C1327 C 0.88897 0.48041 0.79824 0.0
C1328 C 0.87125 0.42916 0.78605 0.0
C1329 C 0.87821 0.4808 0.82306 0.0
C1330 C 0.8647 0.45608 0.82961 0.0
C1331 C 0.84806 0.40472 0.81821 0.0
C1332 C 0.84442 0.37847 0.79961 0.0
C1333 C 0.8612 0.42997 0.81144 0.0
C1334 C 0.85424 0.37853 0.77407 0.0
C1335 C 0.86746 0.40328 0.76751 0.0
H1336 H 0.13404 0.92355 0.16051 0.0
H1337 H 0.0629 0.8696 0.12775 0.0
H1338 H 0.04989 0.90569 0.10283 0.0
H1339 H 0.05793 0.9532 0.09213 0.0
H1340 H 0.12902 1.00742 0.12442 0.0
H1341 H 0.14276 0.97054 0.14744 0.0
C1342 C 0.11573 0.91959 0.14778 0.0
C1343 C 0.09947 0.89381 0.14624 0.0
C1344 C 0.10829 0.94054 0.13342 0.0
C1345 C 0.07584 0.88913 0.12944 0.0
C1346 C 0.06834 0.90983 0.11519 0.0
C1347 C 0.07651 0.95702 0.10403 0.0
C1348 C 0.09233 0.98329 0.10659 0.0
C1349 C 0.0843 0.93572 0.1173 0.0
C1350 C 0.11637 0.98753 0.12201 0.0
C1351 C 0.12425 0.96643 0.13529 0.0
H1352 H 0.94785 0.32226 0.92824 0.0
H1353 H 0.94962 0.2368 0.89985 0.0
H1354 H 0.90883 0.22837 0.86958 0.0
H1355 H 0.87324 0.24591 0.84959 0.0
H1356 H 0.87197 0.33146 0.87821 0.0
H1357 H 0.91184 0.33911 0.9102 0.0
C1358 C 0.93936 0.30173 0.91549 0.0
C1359 C 0.95198 0.28025 0.9162 0.0
C1360 C 0.91591 0.29704 0.8982 0.0
C1361 C 0.94046 0.25374 0.89971 0.0
C1362 C 0.9171 0.24892 0.88236 0.0
C1363 C 0.88163 0.26616 0.86302 0.0
C1364 C 0.86964 0.28812 0.86144 0.0
C1365 C 0.90474 0.27048 0.88123 0.0
C1366 C 0.88073 0.31421 0.87903 0.0
C1367 C 0.9036 0.31862 0.89725 0.0
H1368 H 0.59839 0.23449 0.64136 0.0
H1369 H 0.5209 0.22386 0.62927 0.0
H1370 H 0.51499 0.17487 0.60838 0.0
H1371 H 0.53167 0.13448 0.59516 0.0
H1372 H 0.60911 0.14461 0.60753 0.0
H1373 H 0.61507 0.19415 0.62644 0.0
C1374 C 0.5802 0.22153 0.63393 0.0
C1375 C 0.56015 0.233 0.63704 0.0
C1376 C 0.57687 0.19314 0.62206 0.0
C1377 C 0.53672 0.21574 0.62729 0.0
C1378 C 0.53329 0.18762 0.61534 0.0
C1379 C 0.54988 0.14745 0.60193 0.0
C1380 C 0.56988 0.13559 0.60001 0.0
C1381 C 0.55322 0.176 0.61292 0.0
C1382 C 0.59332 0.15299 0.60873 0.0
C1383 C 0.59677 0.18141 0.61961 0.0
H1384 H 0.62323 0.79565 0.47149 0.0
H1385 H 0.56762 0.78592 0.39379 0.0
H1386 H 0.59849 0.79175 0.36382 0.0
H1387 H 0.64144 0.8003 0.35974 0.0
H1388 H 0.69671 0.80909 0.43763 0.0
H1389 H 0.66585 0.80333 0.46733 0.0
C1390 C 0.61777 0.79476 0.44799 0.0
C1391 C 0.593 0.79034 0.43501 0.0
C1392 C 0.63563 0.79814 0.43086 0.0
C1393 C 0.58646 0.78927 0.40446 0.0
C1394 C 0.60414 0.79263 0.38728 0.0
C1395 C 0.64677 0.80068 0.38316 0.0
C1396 C 0.67157 0.80527 0.39629 0.0
C1397 C 0.62882 0.79711 0.40023 0.0
C1398 C 0.67795 0.80609 0.42683 0.0
C1399 C 0.66024 0.80259 0.44388 0.0
H1400 H 0.98925 0.25861 0.45408 0.0
H1401 H 0.06367 0.27773 0.44419 0.0
H1402 H 0.07326 0.24513 0.47625 0.0
H1403 H 0.06099 0.21227 0.50818 0.0
H1404 H 0.98679 0.1921 0.51798 0.0
H1405 H 0.97654 0.22395 0.48466 0.0
C1406 C 1.00753 0.25556 0.45887 0.0
C1407 C 0.02573 0.27073 0.44693 0.0
C1408 C 1.01298 0.2367 0.47733 0.0
C1409 C 0.0493 0.26638 0.45313 0.0
C1410 C 0.05486 0.24778 0.47152 0.0
C1411 C 0.04261 0.21501 0.50311 0.0
C1412 C 0.02471 0.2003 0.51568 0.0
C1413 C 0.03692 0.23309 0.48395 0.0
C1414 C 1.00083 0.20338 0.50851 0.0
C1415 C 0.99501 0.22158 0.48956 0.0
H1416 H 0.64933 0.30645 0.30444 0.0
H1417 H 0.6488 0.25083 0.22543 0.0
H1418 H 0.69278 0.25833 0.23851 0.0
H1419 H 0.73085 0.27801 0.27407 0.0
H1420 H 0.73195 0.33554 0.35195 0.0
H1421 H 0.6883 0.33038 0.33742 0.0
C1422 C 0.65894 0.29614 0.29009 0.0
C1423 C 0.64598 0.27786 0.26429 0.0
C1424 C 0.68423 0.3009 0.29749 0.0
C1425 C 0.6585 0.26496 0.24547 0.0
C1426 C 0.68359 0.26917 0.25295 0.0
C1427 C 0.72157 0.28962 0.28771 0.0
C1428 C 0.73447 0.3067 0.31426 0.0
C1429 C 0.69657 0.28671 0.27914 0.0
C1430 C 0.72235 0.3221 0.33145 0.0
C1431 C 0.69738 0.31907 0.32324 0.0
H1432 H 0.52245 0.8834 0.99095 0.0
H1433 H 0.57326 0.92108 0.9419 0.0
H1434 H 0.58589 0.96305 0.97962 0.0
H1435 H 0.58117 0.98944 0.02516 0.0
H1436 H 0.53226 0.95146 0.07605 0.0
H1437 H 0.52015 0.90867 0.03892 0.0
C1438 C 0.53632 0.90082 0.98861 0.0
C1439 C 0.54675 0.89945 0.96362 0.0
C1440 C 0.54375 0.92457 1.01058 0.0
C1441 C 0.565 0.92181 0.96097 0.0
C1442 C 0.57216 0.94575 0.98244 0.0
C1443 C 0.56792 0.97171 0.02814 0.0
C1444 C 0.55731 0.97338 0.0529 0.0
C1445 C 0.56146 0.94741 1.00711 0.0
C1446 C 0.54054 0.95035 0.05701 0.0
C1447 C 0.53361 0.92608 0.03579 0.0
H1448 H 1.00024 0.75553 0.73437 0.0
H1449 H 0.04536 0.76826 0.82093 0.0
H1450 H 1.01315 0.7825 0.84284 0.0
H1451 H 0.97318 0.79419 0.83676 0.0
H1452 H 0.93077 0.78587 0.74908 0.0
H1453 H 0.96088 0.76674 0.72832 0.0
C1454 C 1.00295 0.76095 0.75809 0.0
C1455 C 0.02509 0.76077 0.77603 0.0
C1456 C 0.98489 0.77012 0.7703 0.0
C1457 C 0.0284 0.76821 0.80669 0.0
C1458 C 1.01007 0.77648 0.81917 0.0
C1459 C 0.9706 0.78837 0.81311 0.0
C1460 C 0.94959 0.79134 0.7946 0.0
C1461 C 0.98844 0.77813 0.8011 0.0
C1462 C 0.94644 0.7833 0.76399 0.0
C1463 C 0.96376 0.77252 0.75201 0.0
H1464 H 0.13417 0.06047 0.93786 0.0
H1465 H 0.0723 0.08242 0.88853 0.0
H1466 H 0.04995 0.07313 0.92728 0.0
H1467 H 0.0476 0.05768 0.97473 0.0
H1468 H 0.10938 0.03576 0.02397 0.0
H1469 H 0.13178 0.04546 0.98524 0.0
C1470 C 0.11584 0.06339 0.9356 0.0
C1471 C 0.10496 0.07216 0.91024 0.0
C1472 C 0.10299 0.05783 0.95787 0.0
C1473 C 0.08114 0.07568 0.90774 0.0
C1474 C 0.06832 0.07035 0.9299 0.0
C1475 C 0.06607 0.05523 0.97704 0.0
C1476 C 0.07687 0.04603 1.00209 0.0
C1477 C 0.07901 0.06126 0.95497 0.0
C1478 C 0.10076 0.04296 1.00493 0.0
C1479 C 0.1136 0.04857 0.98287 0.0
H1480 H 0.77963 0.34745 0.54833 0.0
H1481 H 0.70642 0.30122 0.5421 0.0
H1482 H 0.72072 0.27683 0.58127 0.0
H1483 H 0.75331 0.2732 0.62125 0.0
H1484 H 0.82594 0.32149 0.62855 0.0
H1485 H 0.81249 0.34081 0.58498 0.0
C1486 C 0.76677 0.33181 0.55525 0.0
C1487 C 0.74193 0.32649 0.54266 0.0
C1488 C 0.77499 0.31857 0.57822 0.0
C1489 C 0.72562 0.30583 0.55156 0.0
C1490 C 0.73377 0.29201 0.57407 0.0
C1491 C 0.76626 0.28751 0.6129 0.0
C1492 C 0.79053 0.29613 0.62815 0.0
C1493 C 0.7583 0.29888 0.58817 0.0
C1494 C 0.8071 0.31489 0.61736 0.0
C1495 C 0.79944 0.32586 0.59245 0.0
H1496 H 0.45362 0.03358 0.41446 0.0
H1497 H 0.50022 0.09715 0.38283 0.0
H1498 H 0.53131 0.10308 0.42774 0.0
H1499 H 0.54578 0.08993 0.4765 0.0
H1500 H 0.49907 0.02544 0.50674 0.0
H1501 H 0.46786 1.02052 0.46254 0.0
C1502 C 0.47054 0.04884 0.41718 0.0
C1503 C 0.47421 0.06489 0.39464 0.0
C1504 C 0.48851 0.0521 0.44326 0.0
C1505 C 0.49653 0.0844 0.39927 0.0
C1506 C 0.51443 0.08782 0.42517 0.0
C1507 C 0.52873 0.07485 0.47356 0.0
C1508 C 0.52498 0.05828 0.49567 0.0
C1509 C 0.51071 0.07178 0.44742 0.0
C1510 C 0.50266 0.03881 0.49084 0.0
C1511 C 0.48473 0.03586 0.46524 0.0
H1512 H 0.75668 0.74991 0.12554 0.0
H1513 H 0.82202 0.71942 0.13279 0.0
H1514 H 0.83523 0.74292 0.18393 0.0
H1515 H 0.82713 0.76966 0.22762 0.0
H1516 H 0.76106 0.79869 0.22082 0.0
H1517 H 0.74948 0.77853 0.16862 0.0
C1518 C 0.77391 0.74859 0.13819 0.0
C1519 C 0.78823 0.73274 0.12523 0.0
C1520 C 0.7813 0.76188 0.16782 0.0
C1521 C 0.81052 0.7313 0.14212 0.0
C1522 C 0.81812 0.74476 0.17144 0.0
C1523 C 0.81034 0.77194 0.21468 0.0
C1524 C 0.79499 0.78567 0.22832 0.0
C1525 C 0.8035 0.75978 0.18467 0.0
C1526 C 0.77323 0.78818 0.21107 0.0
C1527 C 0.76654 0.77658 0.18115 0.0
H1528 H 0.11484 1.01005 0.74801 0.0
H1529 H 0.12063 0.09766 0.77662 0.0
H1530 H 0.10271 0.10205 0.72688 0.0
H1531 H 0.08689 0.08169 0.67492 0.0
H1532 H 0.08026 0.99401 0.646 0.0
H1533 H 0.09694 0.98904 0.69611 0.0
C1534 C 0.11206 0.03008 0.74342 0.0
C1535 C 0.11925 0.05351 0.76612 0.0
C1536 C 0.1017 0.03252 0.71463 0.0
C1537 C 0.11535 0.07925 0.75969 0.0
C1538 C 0.10513 0.08183 0.73118 0.0
C1539 C 0.08902 0.06143 0.6795 0.0
C1540 C 0.08258 0.03833 0.6565 0.0
C1541 C 0.0985 0.0587 0.70842 0.0
C1542 C 0.08525 1.01223 0.66309 0.0
C1543 C 0.09479 1.00936 0.69182 0.0
H1544 H 0.74748 0.37047 0.46768 0.0
H1545 H 0.68013 0.33249 0.4068 0.0
H1546 H 0.69916 0.29854 0.38356 0.0
H1547 H 0.73589 0.28264 0.3776 0.0
H1548 H 0.80329 0.32057 0.43861 0.0
H1549 H 0.78312 0.35105 0.46551 0.0
C1550 C 0.73684 0.35461 0.44985 0.0
C1551 C 0.71247 0.35432 0.43919 0.0
C1552 C 0.74793 0.33516 0.43656 0.0
C1553 C 0.69902 0.33348 0.41549 0.0
C1554 C 0.70985 0.31396 0.40217 0.0
C1555 C 0.74605 0.29725 0.39716 0.0
C1556 C 0.77111 0.29999 0.40584 0.0
C1557 C 0.73443 0.31502 0.41212 0.0
C1558 C 0.78403 0.31863 0.43131 0.0
C1559 C 0.77253 0.33613 0.44658 0.0
H1560 H 0.5016 0.0352 0.24522 0.0
H1561 H 0.44921 0.0787 0.20896 0.0
H1562 H 0.46563 0.07779 0.16372 0.0
H1563 H 0.49641 0.06538 0.13399 0.0
H1564 H 0.54834 1.02245 0.17315 0.0
H1565 H 0.53063 1.02236 0.2165 0.0
C1566 C 0.49352 0.04455 0.22756 0.0
C1567 C 0.47389 0.05709 0.23132 0.0
C1568 C 0.50316 0.04397 0.20142 0.0
C1569 C 0.46418 0.06888 0.20744 0.0
C1570 C 0.47368 0.06833 0.18128 0.0
C1571 C 0.50364 0.05562 0.15177 0.0
C1572 C 0.52401 0.0437 0.14946 0.0
C1573 C 0.49333 0.05595 0.17782 0.0
C1574 C 0.53295 0.03177 0.17356 0.0
C1575 C 0.52277 0.03174 0.19874 0.0
H1576 H 0.80052 0.77109 1.00305 0.0
H1577 H 0.78042 0.68725 0.95411 0.0
H1578 H 0.78406 0.70528 0.90861 0.0
H1579 H 0.79462 0.74497 0.88279 0.0
H1580 H 0.815 0.82859 0.93217 0.0
H1581 H 0.80936 0.81059 0.97714 0.0
C1582 C 0.79684 0.7567 0.98245 0.0
C1583 C 0.79031 0.72777 0.98221 0.0
C1584 C 0.799 0.76722 0.9563 0.0
C1585 C 0.78551 0.70958 0.95513 0.0
C1586 C 0.78761 0.71989 0.92902 0.0
C1587 C 0.7976 0.75924 0.90336 0.0
C1588 C 0.80533 0.78812 0.9041 0.0
C1589 C 0.79455 0.74868 0.92934 0.0
C1590 C 0.80913 0.8063 0.93096 0.0
C1591 C 0.80596 0.796 0.95674 0.0
H1592 H 0.89193 0.12707 0.12161 0.0
H1593 H 0.95063 0.18347 0.09906 0.0
H1594 H 0.96351 0.14378 0.07506 0.0
H1595 H 0.95844 0.09341 0.06206 0.0
H1596 H 0.89815 0.03726 0.08212 0.0
H1597 H 0.88519 0.07693 0.10548 0.0
C1598 C 0.90777 0.13067 0.11181 0.0
C1599 C 0.92078 0.158 0.11265 0.0
C1600 C 0.91443 0.10798 0.09732 0.0
C1601 C 0.94069 0.1625 0.09901 0.0
C1602 C 0.94789 0.1399 0.08517 0.0
C1603 C 0.94206 0.08978 0.07076 0.0
C1604 C 0.92922 0.06238 0.07029 0.0
C1605 C 0.93482 0.11258 0.08417 0.0
C1606 C 0.90838 0.05813 0.08235 0.0
C1607 C 0.90105 0.08076 0.09579 0.0
H1608 H 0.41104 0.48636 0.07987 0.0
H1609 H 0.44593 0.4326 0.1285 0.0
H1610 H 0.48497 0.45493 0.11892 0.0
H1611 H 0.50994 0.49171 0.09863 0.0
H1612 H 0.47486 0.54666 0.05242 0.0
H1613 H 0.43545 0.52176 0.05859 0.0
C1614 C 0.42714 0.47948 0.08838 0.0
C1615 C 0.42539 0.45788 0.10508 0.0
C1616 C 0.44967 0.49255 0.08294 0.0
C1617 C 0.4466 0.44928 0.11577 0.0
C1618 C 0.46903 0.46199 0.1102 0.0
C1619 C 0.49355 0.49768 0.08934 0.0
C1620 C 0.49523 0.52071 0.0747 0.0
C1621 C 0.47087 0.4838 0.09394 0.0
C1622 C 0.47397 0.52882 0.06352 0.0
C1623 C 0.45143 0.51471 0.06723 0.0
H1624 H 0.40267 0.61488 0.83216 0.0
H1625 H 0.41169 0.58751 0.74428 0.0
H1626 H 0.39027 0.6212 0.72577 0.0
H1627 H 0.36855 0.65825 0.73433 0.0
H1628 H 0.35862 0.68489 0.82177 0.0
H1629 H 0.38085 0.65178 0.84069 0.0
C1630 C 0.39998 0.61629 0.80897 0.0
C1631 C 0.40878 0.59865 0.78969 0.0
C1632 C 0.38747 0.63561 0.79838 0.0
C1633 C 0.40506 0.60075 0.75966 0.0
C1634 C 0.39283 0.62005 0.74901 0.0
C1635 C 0.37141 0.65682 0.75753 0.0
C1636 C 0.36201 0.67381 0.77668 0.0
C1637 C 0.38394 0.63756 0.76814 0.0
C1638 C 0.36556 0.67173 0.80665 0.0
C1639 C 0.3783 0.6529 0.81745 0.0
H1640 H 0.30104 0.62994 0.61801 0.0
H1641 H 0.31181 0.66782 0.709 0.0
H1642 H 0.26997 0.646 0.70976 0.0
H1643 H 0.22966 0.61889 0.68343 0.0
H1644 H 0.21854 0.58392 0.59141 0.0
H1645 H 0.26143 0.60121 0.59246 0.0
C1646 C 0.29435 0.63323 0.63813 0.0
C1647 C 0.30945 0.65069 0.66338 0.0
C1648 C 0.27021 0.62106 0.63821 0.0
C1649 C 0.30049 0.65463 0.68925 0.0
C1650 C 0.27657 0.64217 0.68967 0.0
C1651 C 0.23659 0.61507 0.66358 0.0
C1652 C 0.2208 0.60031 0.63732 0.0
C1653 C 0.26114 0.62583 0.66408 0.0
C1654 C 0.23025 0.59496 0.612 0.0
C1655 C 0.25476 0.60508 0.61249 0.0
H1656 H 0.77255 0.97229 0.84975 0.0
H1657 H 0.69724 0.92958 0.82663 0.0
H1658 H 0.70906 0.88453 0.82187 0.0
H1659 H 0.74161 0.85615 0.82388 0.0
H1660 H 0.81647 0.90135 0.84753 0.0
H1661 H 0.80397 0.94514 0.85222 0.0
C1662 C 0.75843 0.95329 0.84364 0.0
C1663 C 0.73369 0.95533 0.83861 0.0
C1664 C 0.76546 0.92712 0.84092 0.0
C1665 C 0.71631 0.92961 0.83075 0.0
C1666 C 0.7232 0.9035 0.82799 0.0
C1667 C 0.7553 0.8755 0.83013 0.0
C1668 C 0.78042 0.87438 0.83527 0.0
C1669 C 0.74783 0.90175 0.83295 0.0
C1670 C 0.79723 0.90046 0.84331 0.0
C1671 C 0.79002 0.92599 0.84604 0.0
H1672 H 0.7446 0.92025 0.58934 0.0
H1673 H 0.80161 0.99436 0.60103 0.0
H1674 H 0.77146 1.02245 0.59468 0.0
H1675 H 0.72877 0.0259 0.58504 0.0
H1676 H 0.67202 0.95138 0.5725 0.0
H1677 H 0.70221 0.92373 0.58036 0.0
C1678 C 0.75051 0.94257 0.5906 0.0
C1679 C 0.77544 0.95509 0.59561 0.0
C1680 C 0.73307 0.9586 0.58684 0.0
C1681 C 0.78262 0.98409 0.5972 0.0
C1682 C 0.76535 1.00019 0.59353 0.0
C1683 C 0.72297 1.00358 0.58385 0.0
C1684 C 0.69802 0.99084 0.57817 0.0
C1685 C 0.74051 0.98765 0.58815 0.0
C1686 C 0.69099 0.96191 0.57722 0.0
C1687 C 0.70828 0.946 0.58151 0.0
H1688 H 0.4177 0.44092 0.8426 0.0
H1689 H 0.38303 0.46145 0.76171 0.0
H1690 H 0.34907 0.42152 0.75662 0.0
H1691 H 0.32824 0.38186 0.77643 0.0
H1692 H 0.36298 0.36213 0.85763 0.0
H1693 H 0.39789 0.40039 0.86114 0.0
C1694 C 0.4028 0.43663 0.82375 0.0
C1695 C 0.4029 0.45434 0.8027 0.0
C1696 C 0.38328 0.4137 0.82101 0.0
C1697 C 0.38345 0.44826 0.77832 0.0
C1698 C 0.36397 0.42543 0.77541 0.0
C1699 C 0.34353 0.38591 0.79478 0.0
C1700 C 0.34308 0.36914 0.81667 0.0
C1701 C 0.36353 0.4082 0.79681 0.0
C1702 C 0.36301 0.37452 0.8403 0.0
C1703 C 0.38294 0.39653 0.84243 0.0
H1704 H 0.23802 0.64502 0.39089 0.0
H1705 H 0.23777 0.60157 0.30498 0.0
H1706 H 0.25962 0.645 0.29296 0.0
H1707 H 0.2782 0.69652 0.30638 0.0
H1708 H 0.27895 0.73849 0.39334 0.0
H1709 H 0.2579 0.69505 0.40499 0.0
C1710 C 0.24278 0.64482 0.3695 0.0
C1711 C 0.23594 0.61948 0.34895 0.0
C1712 C 0.25558 0.67004 0.36274 0.0
C1713 C 0.24264 0.62028 0.32146 0.0
C1714 C 0.25516 0.64535 0.3145 0.0
C1715 C 0.2739 0.69622 0.32796 0.0
C1716 C 0.28041 0.72147 0.3488 0.0
C1717 C 0.26166 0.67056 0.33487 0.0
C1718 C 0.27446 0.71998 0.37661 0.0
C1719 C 0.26225 0.6949 0.38339 0.0
H1720 H 0.48897 0.67498 0.49533 0.0
H1721 H 0.56232 0.72434 0.52263 0.0
H1722 H 0.57461 0.68665 0.54546 0.0
H1723 H 0.56498 0.63889 0.55615 0.0
H1724 H 0.49153 0.58968 0.52912 0.0
H1725 H 0.479 0.62802 0.50786 0.0
C1726 C 0.50764 0.67762 0.50638 0.0
C1727 C 0.52467 0.70262 0.50705 0.0
C1728 C 0.51464 0.65576 0.51953 0.0
C1729 C 0.54875 0.70549 0.52167 0.0
C1730 C 0.55584 0.68385 0.53473 0.0
C1731 C 0.54617 0.63654 0.54581 0.0
C1732 C 0.5293 0.61118 0.54425 0.0
C1733 C 0.539 0.65877 0.53358 0.0
C1734 C 0.50499 0.60878 0.53075 0.0
C1735 C 0.49777 0.63075 0.51851 0.0
H1736 H 0.67201 0.27412 0.70997 0.0
H1737 H 0.66407 0.35436 0.749 0.0
H1738 H 0.70489 0.36378 0.77929 0.0
H1739 H 0.74253 0.3487 0.79571 0.0
H1740 H 0.74949 0.26764 0.75807 0.0
H1741 H 0.70959 0.25927 0.72597 0.0
C1742 C 0.67917 0.29374 0.72503 0.0
C1743 C 0.66485 0.31347 0.72717 0.0
C1744 C 0.7026 0.29893 0.74257 0.0
C1745 C 0.67456 0.33872 0.74691 0.0
C1746 C 0.69796 0.34416 0.76423 0.0
C1747 C 0.73539 0.32929 0.78031 0.0
C1748 C 0.7491 0.30887 0.77918 0.0
C1749 C 0.71211 0.32436 0.76236 0.0
C1750 C 0.73947 0.28378 0.75924 0.0
C1751 C 0.71656 0.27892 0.74097 0.0
H1752 H 0.08299 0.37663 0.02345 0.0
H1753 H 1.00502 0.35189 1.00731 0.0
H1754 H 1.00333 0.3994 0.02653 0.0
H1755 H 0.02399 0.44891 0.04511 0.0
H1756 H 0.10208 0.47275 0.06119 0.0
H1757 H 0.1036 0.42489 0.0449 0.0
C1758 C 0.0656 0.38151 0.02433 0.0
C1759 C 0.04418 0.36066 0.01373 0.0
C1760 C 0.06474 0.40891 0.03526 0.0
C1761 C 0.02184 0.36746 0.01528 0.0
C1762 C 1.02084 0.3947 0.02619 0.0
C1763 C 0.04134 0.44358 0.04532 0.0
C1764 C 0.06284 0.46465 0.05406 0.0
C1765 C 0.04216 0.41575 0.03583 0.0
C1766 C 0.08516 0.45722 0.05424 0.0
C1767 C 0.0861 0.42973 0.04496 0.0
H1768 H 1.00145 0.80953 0.1797 0.0
H1769 H 0.05402 0.81403 0.25896 0.0
H1770 H 0.02189 0.80952 0.28712 0.0
H1771 H 0.97878 0.80402 0.28923 0.0
H1772 H 0.92632 0.79902 0.20972 0.0
H1773 H 0.95854 0.80438 0.18184 0.0
C1774 C 1.00595 0.80956 0.20315 0.0
C1775 C 0.03021 0.81207 0.21712 0.0
C1776 C 0.98737 0.80696 0.21923 0.0
C1777 C 0.03557 0.81212 0.24757 0.0
C1778 C 1.01718 0.80952 0.26371 0.0
C1779 C 0.97434 0.80388 0.26575 0.0
C1780 C 0.95004 0.80105 0.25166 0.0
C1781 C 0.99299 0.80682 0.24975 0.0
C1782 C 0.9448 0.80146 0.22128 0.0
C1783 C 0.96323 0.80436 0.20526 0.0
H1784 H 0.59702 0.36162 0.24661 0.0
H1785 H 0.52858 0.30422 0.20738 0.0
H1786 H 0.52059 0.33372 0.17081 0.0
H1787 H 0.53483 0.3735 0.14732 0.0
H1788 H 0.60445 0.42901 0.18455 0.0
H1789 H 0.61026 0.40266 0.22472 0.0
C1790 C 0.58019 0.35581 0.23034 0.0
C1791 C 0.56345 0.33079 0.22957 0.0
C1792 C 0.57607 0.37239 0.20891 0.0
C1793 C 0.5418 0.32335 0.20825 0.0
C1794 C 0.53724 0.34016 0.18734 0.0
C1795 C 0.55105 0.38 0.16455 0.0
C1796 C 0.56924 0.40294 0.16312 0.0
C1797 C 0.55449 0.36437 0.18706 0.0
C1798 C 0.59035 0.41117 0.18525 0.0
C1799 C 0.59364 0.39617 0.20816 0.0
H1800 H 0.96413 0.3422 0.38115 0.0
H1801 H 0.95292 0.25827 0.33463 0.0
H1802 H 0.90996 0.24968 0.33692 0.0
H1803 H 0.87619 0.26593 0.35324 0.0
H1804 H 0.88852 0.34932 0.40179 0.0
H1805 H 0.93118 0.3576 0.3992 0.0
C1806 C 0.95239 0.32199 0.3714 0.0
C1807 C 0.96174 0.30089 0.35771 0.0
C1808 C 0.92817 0.31686 0.37397 0.0
C1809 C 0.94613 0.2749 0.34516 0.0
C1810 C 0.92166 0.26991 0.34672 0.0
C1811 C 0.88822 0.28585 0.36349 0.0
C1812 C 0.87911 0.30703 0.37754 0.0
C1813 C 0.91261 0.29066 0.36143 0.0
C1814 C 0.89504 0.33258 0.39103 0.0
C1815 C 0.91936 0.33747 0.38919 0.0
H1816 H 0.07951 0.72559 0.63372 0.0
H1817 H 0.08873 0.68538 0.70985 0.0
H1818 H 0.08235 0.64059 0.67795 0.0
H1819 H 0.07166 0.61264 0.62893 0.0
H1820 H 0.06129 0.65173 0.55232 0.0
H1821 H 0.0708 0.6975 0.5841 0.0
C1822 C 0.0803 0.70707 0.64336 0.0
C1823 C 0.08442 0.70881 0.67415 0.0
C1824 C 0.07638 0.68131 0.62488 0.0
C1825 C 0.08546 0.68462 0.68625 0.0
C1826 C 0.08182 0.659 0.66804 0.0
C1827 C 0.0718 0.63118 0.61909 0.0
C1828 C 0.06579 0.62891 0.58837 0.0
C1829 C 0.07692 0.65709 0.63739 0.0
C1830 C 0.06589 0.65306 0.57596 0.0
C1831 C 0.07124 0.67914 0.59411 0.0
H1832 H 0.57518 0.80122 0.82774 0.0
H1833 H 0.61426 0.88734 0.8515 0.0
H1834 H 0.64855 0.87552 0.8327 0.0
H1835 H 0.66932 0.83974 0.81597 0.0
H1836 H 0.63094 0.75326 0.7964 0.0
H1837 H 0.59434 0.76636 0.80639 0.0
C1838 C 0.59101 0.81755 0.82838 0.0
C1839 C 0.59232 0.84504 0.84153 0.0
C1840 C 0.6109 0.81049 0.81843 0.0
C1841 C 0.61286 0.86595 0.84178 0.0
C1842 C 0.63253 0.85918 0.83116 0.0
C1843 C 0.6529 0.82377 0.81373 0.0
C1844 C 0.65304 0.79552 0.80585 0.0
C1845 C 0.63209 0.83134 0.82054 0.0
C1846 C 0.63141 0.77517 0.80226 0.0
C1847 C 0.61048 0.78261 0.80824 0.0
H1848 H 0.47815 0.5174 0.7115 0.0
H1849 H 0.51024 0.60301 0.75214 0.0
H1850 H 0.52913 0.61057 0.71039 0.0
H1851 H 0.53705 0.59308 0.66263 0.0
H1852 H 0.50589 0.50755 0.62168 0.0
H1853 H 0.48579 0.49992 0.66287 0.0
C1854 C 0.4894 0.53765 0.71129 0.0
C1855 C 0.49283 0.55955 0.73508 0.0
C1856 C 0.50017 0.54199 0.68698 0.0
C1857 C 0.5073 0.58573 0.73426 0.0
C1858 C 0.51808 0.59014 0.71031 0.0
C1859 C 0.5257 0.57282 0.66259 0.0
C1860 C 0.52296 0.55091 0.63916 0.0
C1861 C 0.51462 0.56848 0.68655 0.0
C1862 C 0.50823 0.52477 0.63945 0.0
C1863 C 0.49686 0.52036 0.66309 0.0
H1864 H 0.80726 0.2393 0.0871 0.0
H1865 H 0.88441 0.26378 0.09267 0.0
H1866 H 0.8779 0.2906 0.0532 0.0
H1867 H 0.85026 0.304 0.01475 0.0
H1868 H 0.77309 0.27783 1.00739 0.0
H1869 H 0.77961 0.25457 0.05001 0.0
C1870 C 0.82266 0.25078 0.07993 0.0
C1871 C 0.84627 0.24949 0.09267 0.0
C1872 C 0.81877 0.26561 0.0568 0.0
C1873 C 0.86605 0.26434 0.08306 0.0
C1874 C 0.86235 0.27965 0.0605 0.0
C1875 C 0.83489 0.29364 0.02284 0.0
C1876 C 0.81125 0.29263 1.00812 0.0
C1877 C 0.83878 0.27999 0.04688 0.0
C1878 C 0.79145 0.27869 0.01837 0.0
C1879 C 0.79518 0.26547 0.0427 0.0
H1880 H 0.16934 0.56653 0.23283 0.0
H1881 H 0.12316 0.50024 0.26137 0.0
H1882 H 0.09227 0.49541 0.2165 0.0
H1883 H 0.07788 0.51027 0.16866 0.0
H1884 H 0.12436 0.57696 0.14111 0.0
H1885 H 0.15527 0.58114 0.18556 0.0
C1886 C 0.15256 0.5509 0.22945 0.0
C1887 C 0.14895 0.53375 0.25111 0.0
C1888 C 0.13472 0.54828 0.20339 0.0
C1889 C 0.12681 0.51379 0.24562 0.0
C1890 C 0.10903 0.51103 0.21974 0.0
C1891 C 0.09479 0.52573 0.17228 0.0
C1892 C 0.09852 0.54331 0.15103 0.0
C1893 C 0.11269 0.52817 0.19839 0.0
C1894 C 0.12071 0.56312 0.1566 0.0
C1895 C 0.13849 0.56553 0.18224 0.0
H1896 H 0.86169 0.84839 0.51919 0.0
H1897 H 0.79604 0.87784 0.51632 0.0
H1898 H 0.78324 0.85892 0.4638 0.0
H1899 H 0.79206 0.83697 0.41781 0.0
H1900 H 0.85845 0.80894 0.42094 0.0
H1901 H 0.86937 0.82416 0.47402 0.0
C1902 C 0.84445 0.85042 0.5072 0.0
C1903 C 0.82996 0.86469 0.52177 0.0
C1904 C 0.83734 0.83987 0.47686 0.0
C1905 C 0.80766 0.86709 0.50573 0.0
C1906 C 0.80031 0.8563 0.47562 0.0
C1907 C 0.80878 0.83388 0.43013 0.0
C1908 C 0.82446 0.82199 0.41522 0.0
C1909 C 0.81521 0.84309 0.46081 0.0
C1910 C 0.84608 0.81824 0.43167 0.0
C1911 C 0.85239 0.82694 0.46212 0.0
H1912 H 0.51498 0.5082 0.87446 0.0
H1913 H 0.48017 0.57652 0.88693 0.0
H1914 H 0.49778 0.58561 0.93972 0.0
H1915 H 0.52161 0.57244 0.98304 0.0
H1916 H 0.55397 0.50212 0.96962 0.0
H1917 H 0.53898 0.49572 0.91676 0.0
C1918 C 0.51137 0.52525 0.88862 0.0
C1919 C 0.49626 0.54163 0.87666 0.0
C1920 C 0.5211 0.52997 0.91898 0.0
C1921 C 0.49169 0.56351 0.89551 0.0
C1922 C 0.50176 0.56872 0.92574 0.0
C1923 C 0.52554 0.55594 0.96844 0.0
C1924 C 0.53882 0.53773 0.9803 0.0
C1925 C 0.51629 0.55187 0.93784 0.0
C1926 C 0.54361 0.51628 0.96113 0.0
C1927 C 0.53507 0.51259 0.93084 0.0
H1928 H 0.89678 0.2776 0.24311 0.0
H1929 H 0.82934 0.21889 0.20228 0.0
H1930 H 0.80795 0.24346 0.23342 0.0
H1931 H 0.80801 0.2828 0.27077 0.0
H1932 H 0.87573 0.33799 0.31632 0.0
H1933 H 0.89732 0.31448 0.28412 0.0
C1934 C 0.87746 0.27012 0.2413 0.0
C1935 C 0.86467 0.24665 0.22037 0.0
C1936 C 0.86525 0.28406 0.25965 0.0
C1937 C 0.83965 0.23691 0.21832 0.0
C1938 C 0.82732 0.25109 0.23588 0.0
C1939 C 0.82752 0.28923 0.27396 0.0
C1940 C 0.84029 0.31165 0.296 0.0
C1941 C 0.83988 0.27484 0.25636 0.0
C1942 C 0.86549 0.32073 0.29929 0.0
C1943 C 0.87787 0.30717 0.28109 0.0
H1944 H 0.12143 0.56353 0.40096 0.0
H1945 H 0.17477 0.5216 0.43803 0.0
H1946 H 0.15846 0.5228 0.48336 0.0
H1947 H 0.12765 0.53524 0.51314 0.0
H1948 H 0.07454 0.57621 0.47299 0.0
H1949 H 0.09206 0.57595 0.42948 0.0
C1950 C 0.12974 0.55457 0.4188 0.0
C1951 C 0.14966 0.54242 0.41521 0.0
C1952 C 0.12012 0.55526 0.445 0.0
C1953 C 0.15959 0.53109 0.43935 0.0
C1954 C 0.15015 0.53183 0.46559 0.0
C1955 C 0.12007 0.54446 0.49509 0.0
C1956 C 0.09943 0.55598 0.49725 0.0
C1957 C 0.13027 0.54387 0.4689 0.0
C1958 C 0.09011 0.5672 0.47276 0.0
C1959 C 0.10021 0.56704 0.44748 0.0
H1960 H 0.82062 0.82272 0.64696 0.0
H1961 H 0.83873 0.90685 0.69496 0.0
H1962 H 0.83411 0.88918 0.7404 0.0
H1963 H 0.82318 0.84973 0.76636 0.0
H1964 H 0.80464 0.7658 0.71795 0.0
H1965 H 0.81138 0.78345 0.67311 0.0
C1966 C 0.82367 0.83726 0.66734 0.0
C1967 C 0.82991 0.86615 0.66733 0.0
C1968 C 0.8209 0.82694 0.69347 0.0
C1969 C 0.83386 0.88454 0.69414 0.0
C1970 C 0.83121 0.87443 0.72022 0.0
C1971 C 0.82085 0.83532 0.74605 0.0
C1972 C 0.81331 0.80645 0.74551 0.0
C1973 C 0.82451 0.84567 0.72014 0.0
C1974 C 0.81034 0.78809 0.71898 0.0
C1975 C 0.81415 0.79818 0.69328 0.0
H1976 H 0.69284 0.41877 0.58827 0.0
H1977 H 0.75661 0.47522 0.57659 0.0
H1978 H 0.74627 0.5138 0.60566 0.0
H1979 H 0.71569 0.53252 0.62674 0.0
H1980 H 0.64911 0.47653 0.63143 0.0
H1981 H 0.66454 0.43682 0.61451 0.0
C1982 C 0.70475 0.43939 0.59265 0.0
C1983 C 0.72518 0.44431 0.57989 0.0
C1984 C 0.69817 0.46165 0.6083 0.0
C1985 C 0.74053 0.47108 0.5858 0.0
C1986 C 0.73464 0.49313 0.60242 0.0
C1987 C 0.70466 0.51161 0.6244 0.0
C1988 C 0.68109 0.50772 0.62989 0.0
C1989 C 0.71292 0.48886 0.61257 0.0
C1990 C 0.6674 0.48038 0.62768 0.0
C1991 C 0.67605 0.45753 0.61746 0.0
H1992 H 0.19973 0.1459 0.59795 0.0
H1993 H 0.20561 0.11569 0.50953 0.0
H1994 H 0.16458 0.08619 0.5002 0.0
H1995 H 0.12742 0.06763 0.51788 0.0
H1996 H 0.12152 0.09914 0.60591 0.0
H1997 H 0.16201 0.12953 0.61458 0.0
C1998 C 0.19207 0.1329 0.57659 0.0
C1999 C 0.20591 0.13287 0.55456 0.0
C2000 C 0.16839 0.11619 0.57131 0.0
C2001 C 0.19546 0.11613 0.52691 0.0
C2002 C 0.17198 0.0992 0.52158 0.0
C2003 C 0.13498 0.08128 0.53889 0.0
C2004 C 0.12152 0.08095 0.56131 0.0
C2005 C 0.15833 0.09886 0.5437 0.0
C2006 C 0.13148 0.09891 0.58833 0.0
C2007 C 0.15468 0.11627 0.59332 0.0
H2008 H 0.21546 0.02828 0.86122 0.0
H2009 H 0.1555 0.97027 0.87941 0.0
H2010 H 0.18029 0.93608 0.88463 0.0
H2011 H 0.21909 0.92256 0.88379 0.0
H2012 H 0.27877 0.98096 0.86579 0.0
H2013 H 0.25408 1.01522 0.8611 0.0
C2014 C 0.20777 1.00817 0.86635 0.0
C2015 C 0.18361 1.00183 0.86976 0.0
C2016 C 0.22217 0.98877 0.86968 0.0
C2017 C 0.17403 0.97571 0.87659 0.0
C2018 C 0.18821 0.95616 0.87968 0.0
C2019 C 0.22671 0.94295 0.87928 0.0
C2020 C 0.25068 0.9493 0.87521 0.0
C2021 C 0.21234 0.9625 0.8764 0.0
C2022 C 0.26029 0.97558 0.86882 0.0
C2023 C 0.24621 0.99517 0.86617 0.0
H2024 H 0.31911 0.95492 0.98036 0.0
H2025 H 0.34315 0.88302 1.00531 0.0
H2026 H 0.38522 0.90892 0.01439 0.0
H2027 H 0.41506 0.95232 0.01678 0.0
H2028 H 0.39128 0.02431 0.99214 0.0
H2029 H 0.34907 0.99797 0.98138 0.0
C2030 C 0.33355 0.94484 0.98762 0.0
C2031 C 0.32799 0.91713 0.99234 0.0
C2032 C 0.35767 0.95991 0.99307 0.0
C2033 C 0.34692 0.90434 1.00158 0.0
C2034 C 0.37098 0.91916 1.00689 0.0
C2035 C 0.40059 0.9623 1.00934 0.0
C2036 C 0.40615 0.99026 1.00559 0.0
C2037 C 0.37652 0.94704 1.0031 0.0
C2038 C 0.38735 1.00279 0.99522 0.0
C2039 C 0.36328 0.98777 0.98909 0.0
H2040 H 0.8477 0.62385 0.80665 0.0
H2041 H 0.92141 0.66773 0.81278 0.0
H2042 H 0.90857 0.71219 0.81616 0.0
H2043 H 0.87569 0.73976 0.8179 0.0
H2044 H 0.80239 0.69355 0.81116 0.0
H2045 H 0.81577 0.65023 0.80764 0.0
C2046 C 0.86124 0.64299 0.80869 0.0
C2047 C 0.88587 0.64145 0.80941 0.0
C2048 C 0.85361 0.66882 0.81062 0.0
C2049 C 0.90247 0.66731 0.81207 0.0
C2050 C 0.895 0.69308 0.81406 0.0
C2051 C 0.86252 0.72028 0.81561 0.0
C2052 C 0.83757 0.72096 0.81488 0.0
C2053 C 0.87051 0.69435 0.81344 0.0
C2054 C 0.82145 0.69474 0.81185 0.0
C2055 C 0.82919 0.6695 0.80982 0.0
H2056 H 0.87731 0.67643 0.06126 0.0
H2057 H 0.82107 0.60183 0.05092 0.0
H2058 H 0.85163 0.57424 0.05691 0.0
H2059 H 0.89447 0.57136 0.066 0.0
H2060 H 0.95042 0.64609 0.07523 0.0
H2061 H 0.91987 0.67343 0.06919 0.0
C2062 C 0.87166 0.65412 0.06025 0.0
C2063 C 0.84682 0.64131 0.05565 0.0
C2064 C 0.88935 0.63834 0.06373 0.0
C2065 C 0.83999 0.61233 0.0544 0.0
C2066 C 0.85749 0.5965 0.05787 0.0
C2067 C 0.90002 0.59358 0.0664 0.0
C2068 C 0.9249 0.60653 0.07126 0.0
C2069 C 0.88225 0.60929 0.06262 0.0
C2070 C 0.93157 0.63548 0.07209 0.0
C2071 C 0.91405 0.65118 0.06841 0.0
H2072 H 0.19328 0.16738 0.81115 0.0
H2073 H 0.2261 0.14575 0.89234 0.0
H2074 H 0.26207 0.18305 0.89634 0.0
H2075 H 0.28495 0.22084 0.87553 0.0
H2076 H 0.2521 0.24039 0.79327 0.0
H2077 H 0.21542 0.20514 0.79109 0.0
C2078 C 0.20819 0.17088 0.82987 0.0
C2079 C 0.20695 0.15368 0.85135 0.0
C2080 C 0.2289 0.19207 0.83183 0.0
C2081 C 0.22654 0.15862 0.87543 0.0
C2082 C 0.24717 0.17992 0.8777 0.0
C2083 C 0.2697 0.21735 0.85722 0.0
C2084 C 0.2711 0.23344 0.83479 0.0
C2085 C 0.24868 0.19658 0.85584 0.0
C2086 C 0.25128 0.22871 0.81113 0.0
C2087 C 0.23034 0.20839 0.80974 0.0
H2088 H 0.38025 0.98942 0.33375 0.0
H2089 H 0.39789 0.95855 0.25182 0.0
H2090 H 0.37614 0.91158 0.25343 0.0
H2091 H 0.35328 0.87761 0.279 0.0
H2092 H 0.33663 0.90803 0.36172 0.0
H2093 H 0.35631 0.95545 0.35872 0.0
C2094 C 0.37908 0.97255 0.31602 0.0
C2095 C 0.39092 0.9782 0.29258 0.0
C2096 C 0.36666 0.9448 0.31726 0.0
C2097 C 0.38921 0.95542 0.27023 0.0
C2098 C 0.37669 0.92823 0.27111 0.0
C2099 C 0.35371 0.89454 0.29629 0.0
C2100 C 0.34318 0.88849 0.3206 0.0
C2101 C 0.36552 0.92239 0.29467 0.0
C2102 C 0.34442 0.91134 0.34269 0.0
C2103 C 0.35578 0.93882 0.34103 0.0
H2104 H 0.56899 0.3747 0.62497 0.0
H2105 H 0.62815 0.42692 0.6912 0.0
H2106 H 0.62265 0.46763 0.66946 0.0
H2107 H 0.59983 0.48919 0.63279 0.0
H2108 H 0.53989 0.43703 0.5676 0.0
H2109 H 0.54717 0.39592 0.58736 0.0
C2110 C 0.58084 0.39492 0.63449 0.0
C2111 C 0.5989 0.39756 0.65982 0.0
C2112 C 0.5775 0.41849 0.62195 0.0
C2113 C 0.61401 0.42409 0.67181 0.0
C2114 C 0.61091 0.44751 0.65934 0.0
C2115 C 0.58858 0.4688 0.62267 0.0
C2116 C 0.5693 0.46637 0.59874 0.0
C2117 C 0.59257 0.44507 0.63455 0.0
C2118 C 0.55478 0.43969 0.58613 0.0
C2119 C 0.55891 0.41606 0.59744 0.0
H2120 H 0.45222 0.82717 0.4362 0.0
H2121 H 0.45393 0.74224 0.40522 0.0
H2122 H 0.41271 0.73401 0.37613 0.0
H2123 H 0.37681 0.75172 0.35756 0.0
H2124 H 0.37503 0.83634 0.38983 0.0
H2125 H 0.41545 0.8438 0.42053 0.0
C2126 C 0.4436 0.80681 0.42314 0.0
C2127 C 0.45636 0.78544 0.42268 0.0
C2128 C 0.4198 0.80217 0.40669 0.0
C2129 C 0.44465 0.75909 0.40595 0.0
C2130 C 0.42106 0.75439 0.38926 0.0
C2131 C 0.3852 0.77172 0.37152 0.0
C2132 C 0.37296 0.79353 0.37117 0.0
C2133 C 0.40854 0.77587 0.38918 0.0
C2134 C 0.38402 0.81923 0.38957 0.0
C2135 C 0.40721 0.82354 0.40707 0.0
H2136 H 0.06427 0.73035 0.1393 0.0
H2137 H 0.13447 0.74942 0.11646 0.0
H2138 H 0.12973 0.70052 0.09602 0.0
H2139 H 0.10658 0.65194 0.08652 0.0
H2140 H 0.036 0.63264 0.10822 0.0
H2141 H 0.03992 0.68187 0.12693 0.0
C2142 C 0.07847 0.72385 0.12969 0.0
C2143 C 0.09977 0.74365 0.12964 0.0
C2144 C 0.07561 0.69556 0.1178 0.0
C2145 C 0.11788 0.73477 0.11688 0.0
C2146 C 0.11523 0.70672 0.10522 0.0
C2147 C 0.09198 0.65846 0.0952 0.0
C2148 C 0.0711 0.63845 0.09612 0.0
C2149 C 0.09431 0.68688 0.10586 0.0
C2150 C 0.05229 0.64746 0.10722 0.0
C2151 C 0.05455 0.67568 0.11804 0.0
H2152 H 0.1167 0.27672 0.96041 0.0
H2153 H 0.06431 0.29141 0.88998 0.0
H2154 H 0.0953 0.29904 0.86034 0.0
H2155 H 0.13733 0.30121 0.85427 0.0
H2156 H 0.18967 0.28775 0.92563 0.0
H2157 H 0.15857 0.27962 0.95472 0.0
C2158 C 0.11197 0.28157 0.93856 0.0
C2159 C 0.08809 0.28343 0.9275 0.0
C2160 C 0.12991 0.28604 0.92167 0.0
C2161 C 0.08247 0.28983 0.89913 0.0
C2162 C 0.10022 0.29419 0.88213 0.0
C2163 C 0.14204 0.29677 0.87629 0.0
C2164 C 0.16597 0.29501 0.88753 0.0
C2165 C 0.12403 0.29238 0.89318 0.0
C2166 C 0.17145 0.28879 0.91603 0.0
C2167 C 0.15367 0.28432 0.93285 0.0
H2168 H 0.51499 0.7834 0.98315 0.0
H2169 H 0.55047 0.75115 0.91692 0.0
H2170 H 0.55766 0.71395 0.94404 0.0
H2171 H 0.55501 0.69163 0.98726 0.0
H2172 H 0.52184 0.72528 0.05505 0.0
H2173 H 0.51254 0.76114 0.02664 0.0
C2174 C 0.52413 0.76809 0.97458 0.0
C2175 C 0.53215 0.76988 0.94811 0.0
C2176 C 0.52866 0.74719 0.99058 0.0
C2177 C 0.54424 0.75019 0.93735 0.0
C2178 C 0.54831 0.72893 0.95279 0.0
C2179 C 0.54551 0.70668 0.99558 0.0
C2180 C 0.53888 0.70588 0.02292 0.0
C2181 C 0.54075 0.72738 0.9795 0.0
C2182 C 0.52705 0.72568 0.03396 0.0
C2183 C 0.52174 0.74606 0.01775 0.0
H2184 H 0.16732 0.81235 0.71307 0.0
H2185 H 0.15835 0.82952 0.80266 0.0
H2186 H 0.20205 0.84778 0.81931 0.0
H2187 H 0.24252 0.85093 0.80941 0.0
H2188 H 0.2515 0.82696 0.72074 0.0
H2189 H 0.20804 0.82036 0.70248 0.0
C2190 C 0.1749 0.8205 0.73618 0.0
C2191 C 0.15981 0.81925 0.75672 0.0
C2192 C 0.20003 0.82967 0.7457 0.0
C2193 C 0.16977 0.82987 0.78657 0.0
C2194 C 0.19469 0.84032 0.79606 0.0
C2195 C 0.23512 0.84492 0.78597 0.0
C2196 C 0.2501 0.83874 0.76652 0.0
C2197 C 0.21003 0.83921 0.77596 0.0
C2198 C 0.24026 0.8314 0.73621 0.0
C2199 C 0.21539 0.82737 0.7258 0.0
H2200 H 0.0625 0.40104 0.47721 0.0
H2201 H 0.98633 0.39778 0.45055 0.0
H2202 H 0.98947 0.43607 0.49038 0.0
H2203 H 1.01431 0.47189 0.53145 0.0
H2204 H 0.09029 0.47526 0.55833 0.0
H2205 H 0.08673 0.43485 0.52049 0.0
C2206 C 0.04664 0.40879 0.48014 0.0
C2207 C 0.02432 0.39694 0.46081 0.0
C2208 C 0.04848 0.43048 0.50339 0.0
C2209 C 1.00376 0.40673 0.46512 0.0
C2210 C 1.0055 0.42855 0.4879 0.0
C2211 C 0.02995 0.46352 0.52907 0.0
C2212 C 0.05247 0.47626 0.54732 0.0
C2213 C 0.0278 0.44071 0.507 0.0
C2214 C 0.07269 0.46528 0.54459 0.0
C2215 C 0.07072 0.44248 0.52278 0.0
H2216 H 0.48727 0.22047 0.29652 0.0
H2217 H 0.54701 0.28778 0.34328 0.0
H2218 H 0.51974 0.30862 0.36852 0.0
H2219 H 0.47806 0.31162 0.37125 0.0
H2220 H 0.41837 0.24515 0.32323 0.0
H2221 H 0.44642 0.21986 0.30505 0.0
C2222 C 0.49443 0.23937 0.3127 0.0
C2223 C 0.51903 0.25285 0.31745 0.0
C2224 C 0.47858 0.25156 0.32676 0.0
C2225 C 0.52808 0.2771 0.33887 0.0
C2226 C 0.51247 0.28917 0.35324 0.0
C2227 C 0.47133 0.29135 0.35727 0.0
C2228 C 0.44628 0.28023 0.34853 0.0
C2229 C 0.48755 0.27723 0.34638 0.0
C2230 C 0.43764 0.25389 0.33057 0.0
C2231 C 0.45366 0.23958 0.3199 0.0
H2232 H 0.61635 0.51687 0.42006 0.0
H2233 H 0.62523 0.60606 0.43821 0.0
H2234 H 0.60594 0.60172 0.48047 0.0
H2235 H 0.58523 0.57227 0.51125 0.0
H2236 H 0.57572 0.48311 0.49189 0.0
H2237 H 0.59697 0.48781 0.45138 0.0
C2238 C 0.61409 0.53541 0.43321 0.0
C2239 C 0.62209 0.56173 0.42581 0.0
C2240 C 0.60301 0.53277 0.4574 0.0
C2241 C 0.61913 0.58552 0.44329 0.0
C2242 C 0.60816 0.58306 0.46751 0.0
C2243 C 0.58809 0.55394 0.49834 0.0
C2244 C 0.57891 0.52736 0.50442 0.0
C2245 C 0.59991 0.55677 0.47468 0.0
C2246 C 0.5826 0.50376 0.48751 0.0
C2247 C 0.59466 0.50643 0.46431 0.0
H2248 H 0.28337 0.88467 0.07283 0.0
H2249 H 0.20865 0.84388 0.0671 0.0
H2250 H 0.22051 0.82347 0.11052 0.0
H2251 H 0.25242 0.81537 0.14844 0.0
H2252 H 0.32704 0.85563 0.15316 0.0
H2253 H 0.31482 0.87833 0.11175 0.0
C2254 C 0.26959 0.87146 0.08114 0.0
C2255 C 0.24517 0.86562 0.0666 0.0
C2256 C 0.27655 0.85963 0.1058 0.0
C2257 C 0.22758 0.84867 0.07784 0.0
C2258 C 0.23436 0.83691 0.10259 0.0
C2259 C 0.26598 0.82904 0.14029 0.0
C2260 C 0.29061 0.83366 0.15361 0.0
C2261 C 0.25883 0.84188 0.11641 0.0
C2262 C 0.30798 0.85186 0.14331 0.0
C2263 C 0.30102 0.86474 0.11959 0.0
H2264 H 0.95929 0.53048 0.91336 0.0
H2265 H 1.00088 0.60117 0.88606 0.0
H2266 H 0.03243 0.60757 0.93062 0.0
H2267 H 0.0489 0.59271 0.97782 0.0
H2268 H 1.00679 0.52182 1.00418 0.0
H2269 H 0.9752 0.51616 0.96015 0.0
C2270 C 0.9752 0.54742 0.91696 0.0
C2271 C 0.97731 0.56529 0.89569 0.0
C2272 C 0.99344 0.55099 0.94288 0.0
C2273 C 0.99835 0.58699 0.9015 0.0
C2274 C 1.01655 0.59065 0.9272 0.0
C2275 C 0.03279 0.57603 0.97403 0.0
C2276 C 0.03053 0.55773 0.99489 0.0
C2277 C 1.01441 0.57275 0.94813 0.0
C2278 C 1.00931 0.53634 0.98908 0.0
C2279 C 0.99113 0.53303 0.96364 0.0
H2280 H 0.31044 0.23081 0.63957 0.0
H2281 H 0.23842 0.24468 0.61828 0.0
H2282 H 0.24267 0.26814 0.66866 0.0
H2283 H 0.26603 0.28267 0.71948 0.0
H2284 H 0.3385 0.26985 0.74044 0.0
H2285 H 0.33492 0.2484 0.68956 0.0
C2286 C 0.29572 0.23907 0.64593 0.0
C2287 C 0.27408 0.23576 0.6252 0.0
C2288 C 0.29834 0.25278 0.67494 0.0
C2289 C 0.25529 0.24689 0.63375 0.0
C2290 C 0.25767 0.26028 0.66261 0.0
C2291 C 0.28113 0.27541 0.71291 0.0
C2292 C 0.30241 0.27772 0.73395 0.0
C2293 C 0.27901 0.26306 0.6835 0.0
C2294 C 0.32185 0.26836 0.72485 0.0
C2295 C 0.31982 0.25595 0.69571 0.0
H2296 H 0.60811 0.5182 0.25974 0.0
H2297 H 0.62422 0.60805 0.27955 0.0
H2298 H 0.6076 0.60975 0.22843 0.0
H2299 H 0.59042 0.58597 0.17754 0.0
H2300 H 0.57484 0.4961 0.15763 0.0
H2301 H 0.58922 0.49429 0.20925 0.0
C2302 C 0.60782 0.53816 0.25296 0.0
C2303 C 0.61753 0.56294 0.27353 0.0
C2304 C 0.59842 0.53905 0.22341 0.0
C2305 C 0.61695 0.58859 0.26424 0.0
C2306 C 0.60748 0.58961 0.23497 0.0
C2307 C 0.58998 0.56595 0.18448 0.0
C2308 C 0.58166 0.54126 0.16355 0.0
C2309 C 0.59845 0.565 0.21426 0.0
C2310 C 0.58123 0.51553 0.17311 0.0
C2311 C 0.58947 0.51444 0.20268 0.0
H2312 H 0.22083 0.8308 0.90251 0.0
H2313 H 0.27081 0.80368 0.96599 0.0
H2314 H 0.28447 0.77846 0.92653 0.0
H2315 H 0.28744 0.77162 0.87462 0.0
H2316 H 0.23603 0.79557 0.8105 0.0
H2317 H 0.21734 0.81422 0.84951 0.0
C2318 C 0.23418 0.81868 0.9076 0.0
C2319 C 0.24513 0.81952 0.93702 0.0
C2320 C 0.24191 0.80404 0.88477 0.0
C2321 C 0.26218 0.80347 0.94348 0.0
C2322 C 0.27016 0.78918 0.92094 0.0
C2323 C 0.27165 0.78014 0.86923 0.0
C2324 C 0.2634 0.78307 0.84019 0.0
C2325 C 0.26093 0.79041 0.89161 0.0
C2326 C 0.2428 0.79367 0.833 0.0
C2327 C 0.23223 0.80442 0.85525 0.0
H2328 H 0.94016 0.54066 0.68189 0.0
H2329 H 0.99876 0.57761 0.75595 0.0
H2330 H 0.02784 0.57732 0.72321 0.0
H2331 H 0.03713 0.56669 0.67246 0.0
H2332 H 0.97738 0.53013 0.59935 0.0
H2333 H 0.94909 0.53022 0.63236 0.0
C2334 C 0.95928 0.54873 0.6912 0.0
C2335 C 0.96676 0.55919 0.72206 0.0
C2336 C 0.97611 0.54853 0.672 0.0
C2337 C 0.99194 0.56941 0.73276 0.0
C2338 C 1.00875 0.56922 0.71379 0.0
C2339 C 1.01795 0.55857 0.66363 0.0
C2340 C 1.00992 0.54824 0.63268 0.0
C2341 C 1.00117 0.55881 0.68321 0.0
C2342 C 0.98468 0.53818 0.6225 0.0
C2343 C 0.96823 0.53824 0.6416 0.0
H2344 H 0.26482 0.18824 0.43129 0.0
H2345 H 0.29571 0.25408 0.506 0.0
H2346 H 0.30425 0.28736 0.47302 0.0
H2347 H 0.3045 0.29747 0.42261 0.0
H2348 H 0.27509 0.23066 0.34862 0.0
H2349 H 0.26414 0.19841 0.38147 0.0
C2350 C 0.27333 0.20988 0.44045 0.0
C2351 C 0.27966 0.2185 0.47119 0.0
C2352 C 0.27838 0.2289 0.42136 0.0
C2353 C 0.29069 0.24673 0.48248 0.0
C2354 C 0.29557 0.26583 0.4636 0.0
C2355 C 0.29543 0.27593 0.41371 0.0
C2356 C 0.29043 0.26661 0.38308 0.0
C2357 C 0.28969 0.25714 0.43295 0.0
C2358 C 0.2789 0.23854 0.37198 0.0
C2359 C 0.27277 0.21996 0.39082 0.0
H2360 H 0.42259 0.67142 0.58855 0.0
H2361 H 0.38572 0.62644 0.64672 0.0
H2362 H 0.38884 0.58248 0.61989 0.0
H2363 H 0.40311 0.55699 0.58129 0.0
H2364 H 0.44503 0.60212 0.52742 0.0
H2365 H 0.43742 0.64551 0.54981 0.0
C2366 C 0.41535 0.65197 0.59536 0.0
C2367 C 0.40421 0.65218 0.61971 0.0
C2368 C 0.41756 0.62672 0.58015 0.0
C2369 C 0.39478 0.62687 0.62832 0.0
C2370 C 0.39631 0.60169 0.61282 0.0
C2371 C 0.41075 0.57628 0.57448 0.0
C2372 C 0.42495 0.57613 0.55297 0.0
C2373 C 0.40783 0.60141 0.58889 0.0
C2374 C 0.43382 0.60133 0.54369 0.0
C2375 C 0.42984 0.62634 0.55686 0.0
H2376 H 0.91429 0.95018 0.54467 0.0
H2377 H 0.91255 0.98296 0.63402 0.0
H2378 H 0.95359 1.0115 0.64054 0.0
H2379 H 0.98957 0.02844 0.6204 0.0
H2380 H 0.99174 0.99507 0.53148 0.0
H2381 H 0.95111 0.96535 0.52535 0.0
C2382 C 0.92287 0.96353 0.56561 0.0
C2383 C 0.91015 0.96451 0.58876 0.0
C2384 C 0.94662 0.97979 0.56929 0.0
C2385 C 0.92177 0.98176 0.61581 0.0
C2386 C 0.94528 0.99814 0.61955 0.0
C2387 C 0.98119 1.01454 0.59973 0.0
C2388 C 0.99362 1.0141 0.57636 0.0
C2389 C 0.95781 0.9975 0.59639 0.0
C2390 C 0.98259 0.99583 0.5498 0.0
C2391 C 0.95931 0.9789 0.54626 0.0
H2392 H 0.90669 0.08986 0.259 0.0
H2393 H 0.95529 0.1403 0.33686 0.0
H2394 H 0.93061 0.17471 0.33621 0.0
H2395 H 0.89317 0.18801 0.31659 0.0
H2396 H 0.8444 0.13774 0.23884 0.0
H2397 H 0.87133 0.10578 0.23632 0.0
C2398 C 0.912 0.10849 0.2757 0.0
C2399 C 0.93262 0.11228 0.29819 0.0
C2400 C 0.89765 0.12814 0.27531 0.0
C2401 C 0.93942 0.13672 0.31941 0.0
C2402 C 0.9253 0.15642 0.3191 0.0
C2403 C 0.88871 0.17046 0.29865 0.0
C2404 C 0.86669 0.1651 0.27812 0.0
C2405 C 0.9041 0.15203 0.29754 0.0
C2406 C 0.86107 0.14206 0.2552 0.0
C2407 C 0.87645 0.12379 0.25374 0.0
H2408 H 0.8157 0.11607 0.18048 0.0
H2409 H 0.80726 0.12837 0.09016 0.0
H2410 H 0.76537 0.10144 0.07972 0.0
H2411 H 0.73001 0.07983 0.09786 0.0
H2412 H 0.73758 0.07268 0.1897 0.0
H2413 H 0.78107 0.0912 0.19766 0.0
C2414 C 0.80484 0.11236 0.15837 0.0
C2415 C 0.81439 0.12437 0.13618 0.0
C2416 C 0.78056 0.09784 0.15284 0.0
C2417 C 0.80015 0.11951 0.10765 0.0
C2418 C 0.77622 0.10418 0.1017 0.0
C2419 C 0.74117 0.08223 0.11961 0.0
C2420 C 0.73041 0.07524 0.14318 0.0
C2421 C 0.76601 0.09417 0.1244 0.0
C2422 C 0.74529 0.07769 0.17103 0.0
C2423 C 0.77018 0.08858 0.17573 0.0
H2424 H 0.19949 0.41011 0.32938 0.0
H2425 H 0.25986 0.47995 0.33859 0.0
H2426 H 0.28706 0.44773 0.33629 0.0
H2427 H 0.29414 0.39834 0.3311 0.0
H2428 H 0.23222 0.32996 0.3217 0.0
H2429 H 0.20618 0.36242 0.32471 0.0
C2430 C 0.21861 0.41867 0.33095 0.0
C2431 C 0.22707 0.44822 0.33421 0.0
C2432 C 0.23434 0.39977 0.32957 0.0
C2433 C 0.25223 0.45783 0.33611 0.0
C2434 C 0.26797 0.43912 0.33477 0.0
C2435 C 0.27499 0.39041 0.32983 0.0
C2436 C 0.26574 0.3608 0.32618 0.0
C2437 C 0.25937 0.40982 0.33146 0.0
C2438 C 0.24054 0.35194 0.3245 0.0
C2439 C 0.22533 0.37078 0.32621 0.0
H2440 H 0.25237 0.42658 0.09116 0.0
H2441 H 0.30807 0.49806 0.08834 0.0
H2442 H 0.27765 0.52573 0.08084 0.0
H2443 H 0.235 0.52943 0.07424 0.0
H2444 H 0.17972 0.45783 0.0781 0.0
H2445 H 0.21015 0.43049 0.08561 0.0
C2446 C 0.25795 0.44823 0.08895 0.0
C2447 C 0.28259 0.46013 0.09031 0.0
C2448 C 0.24035 0.46403 0.08463 0.0
C2449 C 0.28931 0.48827 0.08741 0.0
C2450 C 0.27188 0.50413 0.08309 0.0
C2451 C 0.22959 0.50793 0.07701 0.0
C2452 C 0.2049 0.49581 0.07539 0.0
C2453 C 0.24731 0.49223 0.0816 0.0
C2454 C 0.19839 0.46772 0.07867 0.0
C2455 C 0.21585 0.45205 0.08319 0.0
H2456 H 0.92451 0.93978 0.33261 0.0
H2457 H 0.885 0.9685 0.26032 0.0
H2458 H 0.84966 0.93084 0.25765 0.0
H2459 H 0.82942 0.89048 0.27705 0.0
H2460 H 0.86893 0.86325 0.35037 0.0
H2461 H 0.90479 0.89931 0.35121 0.0
C2462 C 0.90824 0.93777 0.31613 0.0
C2463 C 0.90746 0.95706 0.29677 0.0
C2464 C 0.88792 0.91623 0.31487 0.0
C2465 C 0.88615 0.95402 0.27557 0.0
C2466 C 0.86589 0.93249 0.27404 0.0
C2467 C 0.84594 0.89244 0.29309 0.0
C2468 C 0.84662 0.874 0.31337 0.0
C2469 C 0.86648 0.91361 0.29377 0.0
C2470 C 0.86808 0.87678 0.33412 0.0
C2471 C 0.88857 0.89757 0.33478 0.0
H2472 H 0.72633 0.14554 0.8817 0.0
H2473 H 0.7416 0.09681 0.80718 0.0
H2474 H 0.76493 0.13939 0.79515 0.0
H2475 H 0.78024 0.19147 0.8048 0.0
H2476 H 0.76587 0.23911 0.88079 0.0
H2477 H 0.74339 0.19655 0.89293 0.0
C2478 C 0.73486 0.14401 0.86287 0.0
C2479 C 0.73189 0.11739 0.84545 0.0
C2480 C 0.74854 0.16881 0.85616 0.0
C2481 C 0.74341 0.11651 0.82126 0.0
C2482 C 0.75676 0.1411 0.81426 0.0
C2483 C 0.77231 0.19265 0.82413 0.0
C2484 C 0.77502 0.2192 0.84173 0.0
C2485 C 0.75935 0.16753 0.83137 0.0
C2486 C 0.76447 0.21957 0.86671 0.0
C2487 C 0.75141 0.19498 0.87369 0.0
loop_
_geom_bond_atom_site_label_1
_geom_bond_atom_site_label_2
_geom_bond_distance
_geom_bond_site_symmetry_2
_ccdc_geom_bond_type
C0 O1 1.160 . S
C0 O7 1.185 . S
O1 C0 1.160 . S
O2 Zn3 1.899 . S
O2 C10 1.284 . S
Zn3 O2 1.899 . S
Zn3 O4 2.032 . S
Zn3 O7 2.086 . S
Zn3 O12 1.977 1_455 S
O4 Zn3 2.032 . S
O4 C8 1.278 . S
C5 O6 1.203 . S
C5 O12 1.267 . S
O6 C5 1.203 . S
O7 C0 1.185 . S
O7 Zn3 2.086 . S
C8 O4 1.278 . S
C8 O9 1.211 1_455 S
O9 C8 1.211 1_655 S
C10 O2 1.284 . S
C10 O11 1.273 1_455 S
O11 C10 1.273 1_655 S
O12 Zn3 1.977 1_655 S
O12 C5 1.267 . S
C13 O14 1.160 . S
C13 O20 1.185 . S
O14 C13 1.160 . S
O15 Zn16 1.899 . S
O15 C23 1.284 . S
Zn16 O15 1.899 . S
Zn16 O17 2.032 . S
Zn16 O20 2.086 . S
Zn16 O25 1.977 . S
O17 Zn16 2.032 . S
O17 C21 1.278 . S
C18 O19 1.203 . S
C18 O25 1.267 . S
O19 C18 1.203 . S
O20 C13 1.185 . S
O20 Zn16 2.086 . S
C21 O17 1.278 . S
C21 O22 1.211 . S
O22 C21 1.211 . S
C23 O15 1.284 . S
C23 O24 1.273 . S
O24 C23 1.273 . S
O25 Zn16 1.977 . S
O25 C18 1.267 . S
C26 O27 1.160 . S
C26 O33 1.185 . S
O27 C26 1.160 . S
O28 Zn29 1.899 . S
O28 C36 1.284 . S
Zn29 O28 1.899 . S
Zn29 O30 2.032 . S
Zn29 O33 2.086 . S
Zn29 O38 1.977 . S
O30 Zn29 2.032 . S
O30 C34 1.278 . S
C31 O32 1.203 . S
C31 O38 1.267 . S
O32 C31 1.203 . S
O33 C26 1.185 . S
O33 Zn29 2.086 . S
C34 O30 1.278 . S
C34 O35 1.211 . S
O35 C34 1.211 . S
C36 O28 1.284 . S
C36 O37 1.273 . S
O37 C36 1.273 . S
O38 Zn29 1.977 . S
O38 C31 1.267 . S
C39 O40 1.160 . S
C39 O46 1.185 . S
O40 C39 1.160 . S
O41 Zn42 1.899 . S
O41 C49 1.284 . S
Zn42 O41 1.899 . S
Zn42 O43 2.032 . S
Zn42 O46 2.086 . S
Zn42 O51 1.977 . S
O43 Zn42 2.032 . S
O43 C47 1.278 . S
C44 O45 1.203 . S
C44 O51 1.267 . S
O45 C44 1.203 . S
O46 C39 1.185 . S
O46 Zn42 2.086 . S
C47 O43 1.278 . S
C47 O48 1.211 . S
O48 C47 1.211 . S
C49 O41 1.284 . S
C49 O50 1.273 . S
O50 C49 1.273 . S
O51 Zn42 1.977 . S
O51 C44 1.267 . S
C52 O53 1.160 . S
C52 O59 1.185 . S
O53 C52 1.160 . S
O54 Zn55 1.899 . S
O54 C62 1.284 . S
Zn55 O54 1.899 . S
Zn55 O56 2.032 . S
Zn55 O59 2.086 . S
Zn55 O64 1.977 . S
O56 Zn55 2.032 . S
O56 C60 1.278 . S
C57 O58 1.203 . S
C57 O64 1.267 . S
O58 C57 1.203 . S
O59 C52 1.185 . S
O59 Zn55 2.086 . S
C60 O56 1.278 . S
C60 O61 1.211 . S
O61 C60 1.211 . S
C62 O54 1.284 . S
C62 O63 1.273 . S
O63 C62 1.273 . S
O64 Zn55 1.977 . S
O64 C57 1.267 . S
C65 O66 1.160 . S
C65 O72 1.185 . S
O66 C65 1.160 . S
O67 Zn68 1.899 . S
O67 C75 1.284 . S
Zn68 O67 1.899 . S
Zn68 O69 2.032 . S
Zn68 O72 2.086 . S
Zn68 O77 1.977 . S
O69 Zn68 2.032 . S
O69 C73 1.278 . S
C70 O71 1.203 . S
C70 O77 1.267 . S
O71 C70 1.203 . S
O72 C65 1.185 . S
O72 Zn68 2.086 . S
C73 O69 1.278 . S
C73 O74 1.211 . S
O74 C73 1.211 . S
C75 O67 1.284 . S
C75 O76 1.273 . S
O76 C75 1.273 . S
O77 Zn68 1.977 . S
O77 C70 1.267 . S
C78 O79 1.160 . S
C78 O85 1.185 . S
O79 C78 1.160 . S
O80 Zn81 1.899 . S
O80 C88 1.284 . S
Zn81 O80 1.899 . S
Zn81 O82 2.032 . S
Zn81 O85 2.086 . S
Zn81 O90 1.977 . S
O82 Zn81 2.032 . S
O82 C86 1.278 . S
C83 O84 1.203 . S
C83 O90 1.267 . S
O84 C83 1.203 . S
O85 C78 1.185 . S
O85 Zn81 2.086 . S
C86 O82 1.278 . S
C86 O87 1.211 . S
O87 C86 1.211 . S
C88 O80 1.284 . S
C88 O89 1.273 . S
O89 C88 1.273 . S
O90 Zn81 1.977 . S
O90 C83 1.267 . S
C91 O92 1.160 . S
C91 O98 1.185 . S
O92 C91 1.160 . S
O93 Zn94 1.899 . S
O93 C101 1.284 . S
Zn94 O93 1.899 . S
Zn94 O95 2.032 . S
Zn94 O98 2.086 . S
Zn94 O103 1.977 1_455 S
O95 Zn94 2.032 . S
O95 C99 1.278 . S
C96 O97 1.203 . S
C96 O103 1.267 . S
O97 C96 1.203 . S
O98 C91 1.185 . S
O98 Zn94 2.086 . S
C99 O95 1.278 . S
C99 O100 1.211 1_455 S
O100 C99 1.211 1_655 S
C101 O93 1.284 . S
C101 O102 1.273 1_556 S
O102 C101 1.273 1_554 S
O103 Zn94 1.977 1_655 S
O103 C96 1.267 . S
C104 O105 1.160 . S
C104 O111 1.185 . S
O105 C104 1.160 . S
O106 Zn107 1.899 . S
O106 C114 1.284 . S
Zn107 O106 1.899 . S
Zn107 O108 2.032 . S
Zn107 O111 2.086 . S
Zn107 O116 1.977 1_545 S
O108 Zn107 2.032 . S
O108 C112 1.278 . S
C109 O110 1.203 . S
C109 O116 1.267 . S
O110 C109 1.203 . S
O111 C104 1.185 . S
O111 Zn107 2.086 . S
C112 O108 1.278 . S
C112 O113 1.211 . S
O113 C112 1.211 . S
C114 O106 1.284 . S
C114 O115 1.273 . S
O115 C114 1.273 . S
O116 Zn107 1.977 1_565 S
O116 C109 1.267 . S
C117 O118 1.160 . S
C117 O124 1.185 . S
O118 C117 1.160 . S
O119 Zn120 1.899 . S
O119 C127 1.284 . S
Zn120 O119 1.899 . S
Zn120 O121 2.032 . S
Zn120 O124 2.086 . S
Zn120 O129 1.977 . S
O121 Zn120 2.032 . S
O121 C125 1.278 . S
C122 O123 1.203 . S
C122 O129 1.267 . S
O123 C122 1.203 . S
O124 C117 1.185 . S
O124 Zn120 2.086 . S
C125 O121 1.278 . S
C125 O126 1.211 . S
O126 C125 1.211 . S
C127 O119 1.284 . S
C127 O128 1.273 . S
O128 C127 1.273 . S
O129 Zn120 1.977 . S
O129 C122 1.267 . S
C130 O131 1.160 1_545 S
C130 O137 1.185 . S
O131 C130 1.160 1_565 S
O132 Zn133 1.899 . S
O132 C140 1.284 . S
Zn133 O132 1.899 . S
Zn133 O134 2.032 . S
Zn133 O137 2.086 . S
Zn133 O142 1.977 . S
O134 Zn133 2.032 . S
O134 C138 1.278 . S
C135 O136 1.203 . S
C135 O142 1.267 . S
O136 C135 1.203 . S
O137 C130 1.185 . S
O137 Zn133 2.086 . S
C138 O134 1.278 . S
C138 O139 1.211 . S
O139 C138 1.211 . S
C140 O132 1.284 . S
C140 O141 1.273 . S
O141 C140 1.273 . S
O142 Zn133 1.977 . S
O142 C135 1.267 . S
C143 O144 1.160 . S
C143 O150 1.185 1_554 S
O144 C143 1.160 . S
O145 Zn146 1.899 . S
O145 C153 1.284 . S
Zn146 O145 1.899 . S
Zn146 O147 2.032 1_554 S
Zn146 O150 2.086 1_554 S
Zn146 O155 1.977 . S
O147 Zn146 2.032 1_556 S
O147 C151 1.278 . S
C148 O149 1.203 . S
C148 O155 1.267 . S
O149 C148 1.203 . S
O150 C143 1.185 1_556 S
O150 Zn146 2.086 1_556 S
C151 O147 1.278 . S
C151 O152 1.211 . S
O152 C151 1.211 . S
C153 O145 1.284 . S
C153 O154 1.273 . S
O154 C153 1.273 . S
O155 Zn146 1.977 . S
O155 C148 1.267 . S
C156 O157 1.160 . S
C156 O163 1.185 . S
O157 C156 1.160 . S
O158 Zn159 1.899 . S
O158 C166 1.284 . S
Zn159 O158 1.899 . S
Zn159 O160 2.032 . S
Zn159 O163 2.086 . S
Zn159 O168 1.977 . S
O160 Zn159 2.032 . S
O160 C164 1.278 . S
C161 O162 1.203 . S
C161 O168 1.267 . S
O162 C161 1.203 . S
O163 C156 1.185 . S
O163 Zn159 2.086 . S
C164 O160 1.278 . S
C164 O165 1.211 . S
O165 C164 1.211 . S
C166 O158 1.284 . S
C166 O167 1.273 . S
O167 C166 1.273 . S
O168 Zn159 1.977 . S
O168 C161 1.267 . S
C169 O170 1.160 . S
C169 O176 1.185 . S
O170 C169 1.160 . S
O171 Zn172 1.899 . S
O171 C179 1.284 . S
Zn172 O171 1.899 . S
Zn172 O173 2.032 . S
Zn172 O176 2.086 . S
Zn172 O181 1.977 . S
O173 Zn172 2.032 . S
O173 C177 1.278 . S
C174 O175 1.203 . S
C174 O181 1.267 . S
O175 C174 1.203 . S
O176 C169 1.185 . S
O176 Zn172 2.086 . S
C177 O173 1.278 . S
C177 O178 1.211 . S
O178 C177 1.211 . S
C179 O171 1.284 . S
C179 O180 1.273 . S
O180 C179 1.273 . S
O181 Zn172 1.977 . S
O181 C174 1.267 . S
C182 O183 1.160 . S
C182 O189 1.185 . S
O183 C182 1.160 . S
O184 Zn185 1.899 . S
O184 C192 1.284 . S
Zn185 O184 1.899 . S
Zn185 O186 2.032 . S
Zn185 O189 2.086 . S
Zn185 O194 1.977 . S
O186 Zn185 2.032 . S
O186 C190 1.278 . S
C187 O188 1.203 . S
C187 O194 1.267 . S
O188 C187 1.203 . S
O189 C182 1.185 . S
O189 Zn185 2.086 . S
C190 O186 1.278 . S
C190 O191 1.211 . S
O191 C190 1.211 . S
C192 O184 1.284 . S
C192 O193 1.273 . S
O193 C192 1.273 . S
O194 Zn185 1.977 . S
O194 C187 1.267 . S
C195 O196 1.160 . S
C195 O202 1.185 . S
O196 C195 1.160 . S
O197 Zn198 1.899 . S
O197 C205 1.284 . S
Zn198 O197 1.899 . S
Zn198 O199 2.032 . S
Zn198 O202 2.086 . S
Zn198 O207 1.977 . S
O199 Zn198 2.032 . S
O199 C203 1.278 . S
C200 O201 1.203 . S
C200 O207 1.267 . S
O201 C200 1.203 . S
O202 C195 1.185 . S
O202 Zn198 2.086 . S
C203 O199 1.278 . S
C203 O204 1.211 . S
O204 C203 1.211 . S
C205 O197 1.284 . S
C205 O206 1.273 . S
O206 C205 1.273 . S
O207 Zn198 1.977 . S
O207 C200 1.267 . S
C208 O209 1.160 . S
C208 O215 1.185 . S
O209 C208 1.160 . S
O210 Zn211 1.897 . S
O210 C218 1.271 1_545 S
Zn211 O210 1.897 . S
Zn211 O212 2.032 . S
Zn211 O215 2.086 . S
Zn211 O220 1.977 1_545 S
O212 Zn211 2.032 . S
O212 C216 1.278 . S
C213 O214 1.203 . S
C213 O220 1.267 . S
O214 C213 1.203 . S
O215 C208 1.185 . S
O215 Zn211 2.086 . S
C216 O212 1.278 . S
C216 O217 1.211 1_545 S
O217 C216 1.211 1_565 S
C218 O210 1.271 1_565 S
C218 O219 1.273 . S
O219 C218 1.273 . S
O220 Zn211 1.977 1_565 S
O220 C213 1.267 . S
C221 O222 1.160 . S
C221 O228 1.185 . S
O222 C221 1.160 . S
O223 Zn224 1.899 . S
O223 C231 1.284 . S
Zn224 O223 1.899 . S
Zn224 O225 2.032 . S
Zn224 O228 2.086 . S
Zn224 O233 1.977 . S
O225 Zn224 2.032 . S
O225 C229 1.278 . S
C226 O227 1.203 . S
C226 O233 1.267 . S
O227 C226 1.203 . S
O228 C221 1.185 . S
O228 Zn224 2.086 . S
C229 O225 1.278 . S
C229 O230 1.211 . S
O230 C229 1.211 . S
C231 O223 1.284 . S
C231 O232 1.273 . S
O232 C231 1.273 . S
O233 Zn224 1.977 . S
O233 C226 1.267 . S
C234 O235 1.160 . S
C234 O241 1.185 . S
O235 C234 1.160 . S
O236 Zn237 1.899 . S
O236 C244 1.284 . S
Zn237 O236 1.899 . S
Zn237 O238 2.032 . S
Zn237 O241 2.086 . S
Zn237 O246 1.977 . S
O238 Zn237 2.032 . S
O238 C242 1.278 . S
C239 O240 1.203 . S
C239 O246 1.267 . S
O240 C239 1.203 . S
O241 C234 1.185 . S
O241 Zn237 2.086 . S
C242 O238 1.278 . S
C242 O243 1.211 . S
O243 C242 1.211 . S
C244 O236 1.284 . S
C244 O245 1.273 . S
O245 C244 1.273 . S
O246 Zn237 1.977 . S
O246 C239 1.267 . S
C247 O248 1.160 . S
C247 O254 1.185 . S
O248 C247 1.160 . S
O249 Zn250 1.899 . S
O249 C257 1.284 . S
Zn250 O249 1.899 . S
Zn250 O251 2.032 . S
Zn250 O254 2.086 1_545 S
Zn250 O259 1.977 . S
O251 Zn250 2.032 . S
O251 C255 1.278 . S
C252 O253 1.203 . S
C252 O259 1.267 . S
O253 C252 1.203 . S
O254 C247 1.185 . S
O254 Zn250 2.086 1_565 S
C255 O251 1.278 . S
C255 O256 1.211 . S
O256 C255 1.211 . S
C257 O249 1.284 . S
C257 O258 1.273 . S
O258 C257 1.273 . S
O259 Zn250 1.977 . S
O259 C252 1.267 . S
C260 O261 1.160 . S
C260 O267 1.185 . S
O261 C260 1.160 . S
O262 Zn263 1.899 . S
O262 C270 1.284 . S
Zn263 O262 1.899 . S
Zn263 O264 2.032 . S
Zn263 O267 2.086 . S
Zn263 O272 1.977 . S
O264 Zn263 2.032 . S
O264 C268 1.278 . S
C265 O266 1.203 . S
C265 O272 1.267 . S
O266 C265 1.203 . S
O267 C260 1.185 . S
O267 Zn263 2.086 . S
C268 O264 1.278 . S
C268 O269 1.211 . S
O269 C268 1.211 . S
C270 O262 1.284 . S
C270 O271 1.273 . S
O271 C270 1.273 . S
O272 Zn263 1.977 . S
O272 C265 1.267 . S
C273 O274 1.160 . S
C273 O280 1.185 . S
O274 C273 1.160 . S
O275 Zn276 1.899 . S
O275 C283 1.284 . S
Zn276 O275 1.899 . S
Zn276 O277 2.032 . S
Zn276 O280 2.086 . S
Zn276 O285 1.977 . S
O277 Zn276 2.032 . S
O277 C281 1.278 . S
C278 O279 1.203 . S
C278 O285 1.267 . S
O279 C278 1.203 . S
O280 C273 1.185 . S
O280 Zn276 2.086 . S
C281 O277 1.278 . S
C281 O282 1.211 . S
O282 C281 1.211 . S
C283 O275 1.284 . S
C283 O284 1.273 . S
O284 C283 1.273 . S
O285 Zn276 1.977 . S
O285 C278 1.267 . S
C286 O287 1.160 . S
C286 O293 1.185 . S
O287 C286 1.160 . S
O288 Zn289 1.899 . S
O288 C296 1.284 . S
Zn289 O288 1.899 . S
Zn289 O290 2.032 . S
Zn289 O293 2.086 . S
Zn289 O298 1.977 . S
O290 Zn289 2.032 . S
O290 C294 1.278 . S
C291 O292 1.203 . S
C291 O298 1.267 . S
O292 C291 1.203 . S
O293 C286 1.185 . S
O293 Zn289 2.086 . S
C294 O290 1.278 . S
C294 O295 1.211 . S
O295 C294 1.211 . S
C296 O288 1.284 . S
C296 O297 1.273 . S
O297 C296 1.273 . S
O298 Zn289 1.977 . S
O298 C291 1.267 . S
C299 O300 1.160 . S
C299 O306 1.185 . S
O300 C299 1.160 . S
O301 Zn302 1.899 . S
O301 C309 1.284 . S
Zn302 O301 1.899 . S
Zn302 O303 2.032 . S
Zn302 O306 2.086 . S
Zn302 O311 1.977 . S
O303 Zn302 2.032 . S
O303 C307 1.278 . S
C304 O305 1.203 . S
C304 O311 1.267 . S
O305 C304 1.203 . S
O306 C299 1.185 . S
O306 Zn302 2.086 . S
C307 O303 1.278 . S
C307 O308 1.211 . S
O308 C307 1.211 . S
C309 O301 1.284 . S
C309 O310 1.273 . S
O310 C309 1.273 . S
O311 Zn302 1.977 . S
O311 C304 1.267 . S
Tb312 C314 2.809 . S
Tb312 O332 2.484 . S
Tb312 O333 2.440 . S
Tb312 O334 2.658 1_655 S
Tb312 O335 2.409 1_654 S
Tb312 O336 2.378 1_655 S
Tb312 O340 2.325 1_655 S
Tb312 O343 2.341 1_645 S
Tb313 C323 2.809 . S
Tb313 O334 2.325 . S
Tb313 O337 2.341 . S
Tb313 O338 2.484 . S
Tb313 O339 2.440 . S
Tb313 O340 2.658 . S
Tb313 O341 2.409 . S
Tb313 O342 2.378 1_545 S
C314 Tb312 2.809 . S
C314 C315 1.514 . S
C314 O332 1.248 . S
C314 O333 1.266 . S
C315 C314 1.514 . S
C315 C316 1.359 . S
C315 C320 1.348 . S
C316 C315 1.359 . S
C316 C317 1.380 . S
C316 H344 0.929 . S
C317 C316 1.380 . S
C317 C318 1.347 . S
C317 H345 0.931 . S
C318 C317 1.347 . S
C318 C319 1.369 1_554 S
C319 C318 1.369 1_556 S
C319 C320 1.408 1_556 S
C319 H346 0.930 . S
C320 C315 1.348 . S
C320 C319 1.408 1_554 S
C320 H347 0.930 1_554 S
C321 O334 1.281 . S
C321 O335 1.254 1_554 S
C322 O336 1.236 . S
C322 O337 1.266 . S
C323 Tb313 2.809 . S
C323 C324 1.514 1_545 S
C323 O338 1.248 . S
C323 O339 1.266 . S
C324 C323 1.514 1_565 S
C324 C325 1.359 . S
C324 C329 1.348 . S
C325 C324 1.359 . S
C325 C326 1.380 . S
C325 H348 0.929 . S
C326 C325 1.380 . S
C326 C327 1.347 . S
C326 H349 0.931 . S
C327 C326 1.347 . S
C327 C328 1.369 . S
C328 C327 1.369 . S
C328 C329 1.408 . S
C328 H350 0.930 . S
C329 C324 1.348 . S
C329 C328 1.408 . S
C329 H351 0.930 . S
C330 O340 1.281 . S
C330 O341 1.254 . S
C331 O342 1.236 . S
C331 O343 1.266 . S
O332 Tb312 2.484 . S
O332 C314 1.248 . S
O333 Tb312 2.440 . S
O333 C314 1.266 . S
O334 Tb312 2.658 1_455 S
O334 Tb313 2.325 . S
O334 C321 1.281 . S
O335 Tb312 2.409 1_456 S
O335 C321 1.254 1_556 S
O336 Tb312 2.378 1_455 S
O336 C322 1.236 . S
O337 Tb313 2.341 . S
O337 C322 1.266 . S
O338 Tb313 2.484 . S
O338 C323 1.248 . S
O339 Tb313 2.440 . S
O339 C323 1.266 . S
O340 Tb312 2.325 1_455 S
O340 Tb313 2.658 . S
O340 C330 1.281 . S
O341 Tb313 2.409 . S
O341 C330 1.254 . S
O342 Tb313 2.378 1_565 S
O342 C331 1.236 . S
O343 Tb312 2.341 1_465 S
O343 C331 1.266 . S
H344 C316 0.929 . S
H345 C317 0.931 . S
H346 C319 0.930 . S
H347 C320 0.930 1_556 S
H348 C325 0.929 . S
H349 C326 0.931 . S
H350 C328 0.930 . S
H351 C329 0.930 . S
Tb352 C354 2.809 . S
Tb352 O372 2.484 . S
Tb352 O373 2.440 . S
Tb352 O374 2.658 . S
Tb352 O375 2.409 . S
Tb352 O376 2.378 . S
Tb352 O380 2.325 . S
Tb352 O383 2.341 . S
Tb353 C363 2.809 . S
Tb353 O374 2.325 . S
Tb353 O377 2.341 . S
Tb353 O378 2.484 . S
Tb353 O379 2.440 . S
Tb353 O380 2.658 . S
Tb353 O381 2.409 . S
Tb353 O382 2.378 . S
C354 Tb352 2.809 . S
C354 C355 1.514 . S
C354 O372 1.248 . S
C354 O373 1.266 . S
C355 C354 1.514 . S
C355 C356 1.359 . S
C355 C360 1.348 . S
C356 C355 1.359 . S
C356 C357 1.380 . S
C356 H384 0.929 . S
C357 C356 1.380 . S
C357 C358 1.347 . S
C357 H385 0.931 . S
C358 C357 1.347 . S
C358 C359 1.369 . S
C359 C358 1.369 . S
C359 C360 1.408 . S
C359 H386 0.930 . S
C360 C355 1.348 . S
C360 C359 1.408 . S
C360 H387 0.930 . S
C361 O374 1.281 . S
C361 O375 1.254 . S
C362 O376 1.236 . S
C362 O377 1.266 . S
C363 Tb353 2.809 . S
C363 C364 1.514 . S
C363 O378 1.248 . S
C363 O379 1.266 . S
C364 C363 1.514 . S
C364 C365 1.359 . S
C364 C369 1.348 . S
C365 C364 1.359 . S
C365 C366 1.380 . S
C365 H388 0.929 . S
C366 C365 1.380 . S
C366 C367 1.347 . S
C366 H389 0.931 . S
C367 C366 1.347 . S
C367 C368 1.369 . S
C368 C367 1.369 . S
C368 C369 1.408 . S
C368 H390 0.930 . S
C369 C364 1.348 . S
C369 C368 1.408 . S
C369 H391 0.930 . S
C370 O380 1.281 . S
C370 O381 1.254 . S
C371 O382 1.236 . S
C371 O383 1.266 . S
O372 Tb352 2.484 . S
O372 C354 1.248 . S
O373 Tb352 2.440 . S
O373 C354 1.266 . S
O374 Tb352 2.658 . S
O374 Tb353 2.325 . S
O374 C361 1.281 . S
O375 Tb352 2.409 . S
O375 C361 1.254 . S
O376 Tb352 2.378 . S
O376 C362 1.236 . S
O377 Tb353 2.341 . S
O377 C362 1.266 . S
O378 Tb353 2.484 . S
O378 C363 1.248 . S
O379 Tb353 2.440 . S
O379 C363 1.266 . S
O380 Tb352 2.325 . S
O380 Tb353 2.658 . S
O380 C370 1.281 . S
O381 Tb353 2.409 . S
O381 C370 1.254 . S
O382 Tb353 2.378 . S
O382 C371 1.236 . S
O383 Tb352 2.341 . S
O383 C371 1.266 . S
H384 C356 0.929 . S
H385 C357 0.931 . S
H386 C359 0.930 . S
H387 C360 0.930 . S
H388 C365 0.929 . S
H389 C366 0.931 . S
H390 C368 0.930 . S
H391 C369 0.930 . S
Tb392 C394 2.809 . S
Tb392 O412 2.484 . S
Tb392 O413 2.440 . S
Tb392 O414 2.658 . S
Tb392 O415 2.409 . S
Tb392 O416 2.378 1_545 S
Tb392 O420 2.325 . S
Tb392 O423 2.341 . S
Tb393 C403 2.809 . S
Tb393 O414 2.325 . S
Tb393 O417 2.341 1_545 S
Tb393 O418 2.484 . S
Tb393 O419 2.440 . S
Tb393 O420 2.658 . S
Tb393 O421 2.409 . S
Tb393 O422 2.378 . S
C394 Tb392 2.809 . S
C394 C395 1.514 1_545 S
C394 O412 1.248 . S
C394 O413 1.266 . S
C395 C394 1.514 1_565 S
C395 C396 1.359 . S
C395 C400 1.348 . S
C396 C395 1.359 . S
C396 C397 1.380 . S
C396 H424 0.929 . S
C397 C396 1.380 . S
C397 C398 1.347 . S
C397 H425 0.931 . S
C398 C397 1.347 . S
C398 C399 1.369 . S
C399 C398 1.369 . S
C399 C400 1.408 . S
C399 H426 0.930 . S
C400 C395 1.348 . S
C400 C399 1.408 . S
C400 H427 0.930 . S
C401 O414 1.281 . S
C401 O415 1.254 . S
C402 O416 1.236 . S
C402 O417 1.266 . S
C403 Tb393 2.809 . S
C403 C404 1.514 . S
C403 O418 1.248 . S
C403 O419 1.266 . S
C404 C403 1.514 . S
C404 C405 1.359 . S
C404 C409 1.348 . S
C405 C404 1.359 . S
C405 C406 1.380 . S
C405 H428 0.929 . S
C406 C405 1.380 . S
C406 C407 1.347 . S
C406 H429 0.931 . S
C407 C406 1.347 . S
C407 C408 1.369 . S
C408 C407 1.369 . S
C408 C409 1.408 . S
C408 H430 0.930 . S
C409 C404 1.348 . S
C409 C408 1.408 . S
C409 H431 0.930 . S
C410 O420 1.281 . S
C410 O421 1.254 . S
C411 O422 1.236 . S
C411 O423 1.266 . S
O412 Tb392 2.484 . S
O412 C394 1.248 . S
O413 Tb392 2.440 . S
O413 C394 1.266 . S
O414 Tb392 2.658 . S
O414 Tb393 2.325 . S
O414 C401 1.281 . S
O415 Tb392 2.409 . S
O415 C401 1.254 . S
O416 Tb392 2.378 1_565 S
O416 C402 1.236 . S
O417 Tb393 2.341 1_565 S
O417 C402 1.266 . S
O418 Tb393 2.484 . S
O418 C403 1.248 . S
O419 Tb393 2.440 . S
O419 C403 1.266 . S
O420 Tb392 2.325 . S
O420 Tb393 2.658 . S
O420 C410 1.281 . S
O421 Tb393 2.409 . S
O421 C410 1.254 . S
O422 Tb393 2.378 . S
O422 C411 1.236 . S
O423 Tb392 2.341 . S
O423 C411 1.266 . S
H424 C396 0.929 . S
H425 C397 0.931 . S
H426 C399 0.930 . S
H427 C400 0.930 . S
H428 C405 0.929 . S
H429 C406 0.931 . S
H430 C408 0.930 . S
H431 C409 0.930 . S
Tb432 C434 2.809 . S
Tb432 O452 2.484 . S
Tb432 O453 2.440 . S
Tb432 O454 2.658 . S
Tb432 O455 2.409 . S
Tb432 O456 2.378 . S
Tb432 O460 2.325 . S
Tb432 O463 2.341 . S
Tb433 C443 2.809 . S
Tb433 O454 2.325 . S
Tb433 O457 2.341 . S
Tb433 O458 2.484 . S
Tb433 O459 2.440 . S
Tb433 O460 2.658 . S
Tb433 O461 2.409 . S
Tb433 O462 2.378 . S
C434 Tb432 2.809 . S
C434 C435 1.514 . S
C434 O452 1.248 . S
C434 O453 1.266 . S
C435 C434 1.514 . S
C435 C436 1.359 . S
C435 C440 1.348 . S
C436 C435 1.359 . S
C436 C437 1.380 . S
C436 H464 0.929 . S
C437 C436 1.380 . S
C437 C438 1.347 . S
C437 H465 0.931 . S
C438 C437 1.347 . S
C438 C439 1.369 . S
C439 C438 1.369 . S
C439 C440 1.408 . S
C439 H466 0.930 . S
C440 C435 1.348 . S
C440 C439 1.408 . S
C440 H467 0.930 . S
C441 O454 1.281 . S
C441 O455 1.254 . S
C442 O456 1.236 . S
C442 O457 1.266 . S
C443 Tb433 2.809 . S
C443 C444 1.514 . S
C443 O458 1.248 . S
C443 O459 1.266 . S
C444 C443 1.514 . S
C444 C445 1.359 . S
C444 C449 1.348 . S
C445 C444 1.359 . S
C445 C446 1.380 . S
C445 H468 0.929 . S
C446 C445 1.380 . S
C446 C447 1.347 . S
C446 H469 0.931 . S
C447 C446 1.347 . S
C447 C448 1.369 . S
C448 C447 1.369 . S
C448 C449 1.408 . S
C448 H470 0.930 . S
C449 C444 1.348 . S
C449 C448 1.408 . S
C449 H471 0.930 . S
C450 O460 1.281 . S
C450 O461 1.254 . S
C451 O462 1.236 . S
C451 O463 1.266 . S
O452 Tb432 2.484 . S
O452 C434 1.248 . S
O453 Tb432 2.440 . S
O453 C434 1.266 . S
O454 Tb432 2.658 . S
O454 Tb433 2.325 . S
O454 C441 1.281 . S
O455 Tb432 2.409 . S
O455 C441 1.254 . S
O456 Tb432 2.378 . S
O456 C442 1.236 . S
O457 Tb433 2.341 . S
O457 C442 1.266 . S
O458 Tb433 2.484 . S
O458 C443 1.248 . S
O459 Tb433 2.440 . S
O459 C443 1.266 . S
O460 Tb432 2.325 . S
O460 Tb433 2.658 . S
O460 C450 1.281 . S
O461 Tb433 2.409 . S
O461 C450 1.254 . S
O462 Tb433 2.378 . S
O462 C451 1.236 . S
O463 Tb432 2.341 . S
O463 C451 1.266 . S
H464 C436 0.929 . S
H465 C437 0.931 . S
H466 C439 0.930 . S
H467 C440 0.930 . S
H468 C445 0.929 . S
H469 C446 0.931 . S
H470 C448 0.930 . S
H471 C449 0.930 . S
Tb472 C474 2.809 . S
Tb472 O492 2.484 . S
Tb472 O493 2.440 . S
Tb472 O494 2.658 . S
Tb472 O495 2.409 1_455 S
Tb472 O496 2.378 . S
Tb472 O500 2.325 . S
Tb472 O503 2.341 . S
Tb473 C483 2.809 . S
Tb473 O494 2.325 1_565 S
Tb473 O497 2.341 1_565 S
Tb473 O498 2.484 . S
Tb473 O499 2.440 . S
Tb473 O500 2.658 1_565 S
Tb473 O501 2.409 1_565 S
Tb473 O502 2.378 1_565 S
C474 Tb472 2.809 . S
C474 C475 1.514 . S
C474 O492 1.248 . S
C474 O493 1.266 . S
C475 C474 1.514 . S
C475 C476 1.359 . S
C475 C480 1.348 1_455 S
C476 C475 1.359 . S
C476 C477 1.380 . S
C476 H504 0.929 . S
C477 C476 1.380 . S
C477 C478 1.357 . S
C477 H505 0.931 . S
C478 C477 1.357 . S
C478 C479 1.361 1_455 S
C479 C478 1.361 1_655 S
C479 C480 1.408 . S
C479 H506 0.930 . S
C480 C475 1.348 1_655 S
C480 C479 1.408 . S
C480 H507 0.930 . S
C481 O494 1.281 1_655 S
C481 O495 1.254 . S
C482 O496 1.236 . S
C482 O497 1.266 . S
C483 Tb473 2.809 . S
C483 C484 1.514 . S
C483 O498 1.248 . S
C483 O499 1.266 . S
C484 C483 1.514 . S
C484 C485 1.359 . S
C484 C489 1.348 . S
C485 C484 1.359 . S
C485 C486 1.380 . S
C485 H508 0.929 . S
C486 C485 1.380 . S
C486 C487 1.347 . S
C486 H509 0.931 . S
C487 C486 1.347 . S
C487 C488 1.369 . S
C488 C487 1.369 . S
C488 C489 1.408 . S
C488 H510 0.930 . S
C489 C484 1.348 . S
C489 C488 1.408 . S
C489 H511 0.930 . S
C490 O500 1.281 . S
C490 O501 1.254 . S
C491 O502 1.236 . S
C491 O503 1.266 . S
O492 Tb472 2.484 . S
O492 C474 1.248 . S
O493 Tb472 2.440 . S
O493 C474 1.266 . S
O494 Tb472 2.658 . S
O494 Tb473 2.325 1_545 S
O494 C481 1.281 1_455 S
O495 Tb472 2.409 1_655 S
O495 C481 1.254 . S
O496 Tb472 2.378 . S
O496 C482 1.236 . S
O497 Tb473 2.341 1_545 S
O497 C482 1.266 . S
O498 Tb473 2.484 . S
O498 C483 1.248 . S
O499 Tb473 2.440 . S
O499 C483 1.266 . S
O500 Tb472 2.325 . S
O500 Tb473 2.658 1_545 S
O500 C490 1.281 . S
O501 Tb473 2.409 1_545 S
O501 C490 1.254 . S
O502 Tb473 2.378 1_545 S
O502 C491 1.236 . S
O503 Tb472 2.341 . S
O503 C491 1.266 . S
H504 C476 0.929 . S
H505 C477 0.931 . S
H506 C479 0.930 . S
H507 C480 0.930 . S
H508 C485 0.929 . S
H509 C486 0.931 . S
H510 C488 0.930 . S
H511 C489 0.930 . S
Tb512 C514 2.809 . S
Tb512 O532 2.484 . S
Tb512 O533 2.440 . S
Tb512 O534 2.658 . S
Tb512 O535 2.409 . S
Tb512 O536 2.378 . S
Tb512 O540 2.325 . S
Tb512 O543 2.341 . S
Tb513 C523 2.809 . S
Tb513 O534 2.325 . S
Tb513 O537 2.341 . S
Tb513 O538 2.484 . S
Tb513 O539 2.440 . S
Tb513 O540 2.658 . S
Tb513 O541 2.409 . S
Tb513 O542 2.378 . S
C514 Tb512 2.809 . S
C514 C515 1.514 . S
C514 O532 1.248 . S
C514 O533 1.266 . S
C515 C514 1.514 . S
C515 C516 1.359 . S
C515 C520 1.348 . S
C516 C515 1.359 . S
C516 C517 1.380 . S
C516 H544 0.929 . S
C517 C516 1.380 . S
C517 C518 1.347 . S
C517 H545 0.931 . S
C518 C517 1.347 . S
C518 C519 1.369 . S
C519 C518 1.369 . S
C519 C520 1.408 . S
C519 H546 0.930 . S
C520 C515 1.348 . S
C520 C519 1.408 . S
C520 H547 0.930 . S
C521 O534 1.281 . S
C521 O535 1.254 . S
C522 O536 1.236 . S
C522 O537 1.266 . S
C523 Tb513 2.809 . S
C523 C524 1.514 . S
C523 O538 1.248 . S
C523 O539 1.266 . S
C524 C523 1.514 . S
C524 C525 1.359 . S
C524 C529 1.348 . S
C525 C524 1.359 . S
C525 C526 1.380 . S
C525 H548 0.929 . S
C526 C525 1.380 . S
C526 C527 1.347 . S
C526 H549 0.931 . S
C527 C526 1.347 . S
C527 C528 1.369 . S
C528 C527 1.369 . S
C528 C529 1.408 . S
C528 H550 0.930 . S
C529 C524 1.348 . S
C529 C528 1.408 . S
C529 H551 0.930 . S
C530 O540 1.281 . S
C530 O541 1.254 . S
C531 O542 1.236 . S
C531 O543 1.266 . S
O532 Tb512 2.484 . S
O532 C514 1.248 . S
O533 Tb512 2.440 . S
O533 C514 1.266 . S
O534 Tb512 2.658 . S
O534 Tb513 2.325 . S
O534 C521 1.281 . S
O535 Tb512 2.409 . S
O535 C521 1.254 . S
O536 Tb512 2.378 . S
O536 C522 1.236 . S
O537 Tb513 2.341 . S
O537 C522 1.266 . S
O538 Tb513 2.484 . S
O538 C523 1.248 . S
O539 Tb513 2.440 . S
O539 C523 1.266 . S
O540 Tb512 2.325 . S
O540 Tb513 2.658 . S
O540 C530 1.281 . S
O541 Tb513 2.409 . S
O541 C530 1.254 . S
O542 Tb513 2.378 . S
O542 C531 1.236 . S
O543 Tb512 2.341 . S
O543 C531 1.266 . S
H544 C516 0.929 . S
H545 C517 0.931 . S
H546 C519 0.930 . S
H547 C520 0.930 . S
H548 C525 0.929 . S
H549 C526 0.931 . S
H550 C528 0.930 . S
H551 C529 0.930 . S
Tb552 C554 2.809 . S
Tb552 O572 2.484 1_545 S
Tb552 O573 2.440 . S
Tb552 O574 2.658 . S
Tb552 O575 2.409 . S
Tb552 O576 2.378 . S
Tb552 O580 2.325 1_545 S
Tb552 O583 2.341 . S
Tb553 C563 2.809 . S
Tb553 O574 2.325 . S
Tb553 O577 2.341 . S
Tb553 O578 2.484 . S
Tb553 O579 2.440 . S
Tb553 O580 2.658 1_545 S
Tb553 O581 2.409 1_545 S
Tb553 O582 2.378 . S
C554 Tb552 2.809 . S
C554 C555 1.514 1_545 S
C554 O572 1.248 1_545 S
C554 O573 1.266 . S
C555 C554 1.514 1_565 S
C555 C556 1.359 . S
C555 C560 1.348 1_565 S
C556 C555 1.359 . S
C556 C557 1.380 . S
C556 H584 0.929 . S
C557 C556 1.380 . S
C557 C558 1.347 . S
C557 H585 0.931 . S
C558 C557 1.347 . S
C558 C559 1.369 . S
C559 C558 1.369 . S
C559 C560 1.408 1_565 S
C559 H586 0.930 1_565 S
C560 C555 1.348 1_545 S
C560 C559 1.408 1_545 S
C560 H587 0.930 . S
C561 O574 1.281 . S
C561 O575 1.254 . S
C562 O576 1.236 . S
C562 O577 1.266 . S
C563 Tb553 2.809 . S
C563 C564 1.514 . S
C563 O578 1.248 . S
C563 O579 1.266 . S
C564 C563 1.514 . S
C564 C565 1.359 . S
C564 C569 1.348 . S
C565 C564 1.359 . S
C565 C566 1.380 . S
C565 H588 0.929 . S
C566 C565 1.380 . S
C566 C567 1.347 . S
C566 H589 0.931 . S
C567 C566 1.347 . S
C567 C568 1.369 . S
C568 C567 1.369 . S
C568 C569 1.408 . S
C568 H590 0.930 . S
C569 C564 1.348 . S
C569 C568 1.408 . S
C569 H591 0.930 . S
C570 O580 1.281 . S
C570 O581 1.254 . S
C571 O582 1.236 . S
C571 O583 1.266 . S
O572 Tb552 2.484 1_565 S
O572 C554 1.248 1_565 S
O573 Tb552 2.440 . S
O573 C554 1.266 . S
O574 Tb552 2.658 . S
O574 Tb553 2.325 . S
O574 C561 1.281 . S
O575 Tb552 2.409 . S
O575 C561 1.254 . S
O576 Tb552 2.378 . S
O576 C562 1.236 . S
O577 Tb553 2.341 . S
O577 C562 1.266 . S
O578 Tb553 2.484 . S
O578 C563 1.248 . S
O579 Tb553 2.440 . S
O579 C563 1.266 . S
O580 Tb552 2.325 1_565 S
O580 Tb553 2.658 1_565 S
O580 C570 1.281 . S
O581 Tb553 2.409 1_565 S
O581 C570 1.254 . S
O582 Tb553 2.378 . S
O582 C571 1.236 . S
O583 Tb552 2.341 . S
O583 C571 1.266 . S
H584 C556 0.929 . S
H585 C557 0.931 . S
H586 C559 0.930 1_545 S
H587 C560 0.930 . S
H588 C565 0.929 . S
H589 C566 0.931 . S
H590 C568 0.930 . S
H591 C569 0.930 . S
Tb592 C594 2.809 . S
Tb592 O612 2.484 . S
Tb592 O613 2.440 . S
Tb592 O614 2.658 . S
Tb592 O615 2.409 . S
Tb592 O616 2.378 . S
Tb592 O620 2.325 . S
Tb592 O623 2.341 . S
Tb593 C603 2.809 . S
Tb593 O614 2.325 . S
Tb593 O617 2.341 . S
Tb593 O618 2.484 . S
Tb593 O619 2.440 . S
Tb593 O620 2.658 . S
Tb593 O621 2.409 . S
Tb593 O622 2.378 . S
C594 Tb592 2.809 . S
C594 C595 1.514 . S
C594 O612 1.248 . S
C594 O613 1.266 . S
C595 C594 1.514 . S
C595 C596 1.359 . S
C595 C600 1.348 . S
C596 C595 1.359 . S
C596 C597 1.380 . S
C596 H624 0.929 . S
C597 C596 1.380 . S
C597 C598 1.347 . S
C597 H625 0.931 . S
C598 C597 1.347 . S
C598 C599 1.369 . S
C599 C598 1.369 . S
C599 C600 1.408 . S
C599 H626 0.930 . S
C600 C595 1.348 . S
C600 C599 1.408 . S
C600 H627 0.930 . S
C601 O614 1.281 . S
C601 O615 1.254 . S
C602 O616 1.236 . S
C602 O617 1.266 . S
C603 Tb593 2.809 . S
C603 C604 1.514 . S
C603 O618 1.248 . S
C603 O619 1.266 . S
C604 C603 1.514 . S
C604 C605 1.359 . S
C604 C609 1.348 . S
C605 C604 1.359 . S
C605 C606 1.380 . S
C605 H628 0.929 . S
C606 C605 1.380 . S
C606 C607 1.347 . S
C606 H629 0.931 . S
C607 C606 1.347 . S
C607 C608 1.369 . S
C608 C607 1.369 . S
C608 C609 1.408 . S
C608 H630 0.930 . S
C609 C604 1.348 . S
C609 C608 1.408 . S
C609 H631 0.930 . S
C610 O620 1.281 . S
C610 O621 1.254 . S
C611 O622 1.236 . S
C611 O623 1.266 . S
O612 Tb592 2.484 . S
O612 C594 1.248 . S
O613 Tb592 2.440 . S
O613 C594 1.266 . S
O614 Tb592 2.658 . S
O614 Tb593 2.325 . S
O614 C601 1.281 . S
O615 Tb592 2.409 . S
O615 C601 1.254 . S
O616 Tb592 2.378 . S
O616 C602 1.236 . S
O617 Tb593 2.341 . S
O617 C602 1.266 . S
O618 Tb593 2.484 . S
O618 C603 1.248 . S
O619 Tb593 2.440 . S
O619 C603 1.266 . S
O620 Tb592 2.325 . S
O620 Tb593 2.658 . S
O620 C610 1.281 . S
O621 Tb593 2.409 . S
O621 C610 1.254 . S
O622 Tb593 2.378 . S
O622 C611 1.236 . S
O623 Tb592 2.341 . S
O623 C611 1.266 . S
H624 C596 0.929 . S
H625 C597 0.931 . S
H626 C599 0.930 . S
H627 C600 0.930 . S
H628 C605 0.929 . S
H629 C606 0.931 . S
H630 C608 0.930 . S
H631 C609 0.930 . S
Tb632 C634 2.809 . S
Tb632 O652 2.484 . S
Tb632 O653 2.440 . S
Tb632 O654 2.658 . S
Tb632 O655 2.409 . S
Tb632 O656 2.378 . S
Tb632 O660 2.325 . S
Tb632 O663 2.341 . S
Tb633 C643 2.809 . S
Tb633 O654 2.325 . S
Tb633 O657 2.341 . S
Tb633 O658 2.484 . S
Tb633 O659 2.440 . S
Tb633 O660 2.658 . S
Tb633 O661 2.409 . S
Tb633 O662 2.378 . S
C634 Tb632 2.809 . S
C634 C635 1.514 . S
C634 O652 1.248 . S
C634 O653 1.266 . S
C635 C634 1.514 . S
C635 C636 1.359 . S
C635 C640 1.348 . S
C636 C635 1.359 . S
C636 C637 1.380 1_554 S
C636 H664 0.929 . S
C637 C636 1.380 1_556 S
C637 C638 1.347 . S
C637 H665 0.931 . S
C638 C637 1.347 . S
C638 C639 1.363 1_556 S
C639 C638 1.363 1_554 S
C639 C640 1.413 . S
C639 H666 0.934 1_554 S
C640 C635 1.348 . S
C640 C639 1.413 . S
C640 H667 0.930 . S
C641 O654 1.281 . S
C641 O655 1.254 . S
C642 O656 1.236 . S
C642 O657 1.266 . S
C643 Tb633 2.809 . S
C643 C644 1.514 . S
C643 O658 1.248 . S
C643 O659 1.266 . S
C644 C643 1.514 . S
C644 C645 1.359 . S
C644 C649 1.348 . S
C645 C644 1.359 . S
C645 C646 1.380 . S
C645 H668 0.929 . S
C646 C645 1.380 . S
C646 C647 1.347 . S
C646 H669 0.931 . S
C647 C646 1.347 . S
C647 C648 1.369 . S
C648 C647 1.369 . S
C648 C649 1.408 . S
C648 H670 0.930 . S
C649 C644 1.348 . S
C649 C648 1.408 . S
C649 H671 0.930 . S
C650 O660 1.281 . S
C650 O661 1.254 . S
C651 O662 1.236 . S
C651 O663 1.266 . S
O652 Tb632 2.484 . S
O652 C634 1.248 . S
O653 Tb632 2.440 . S
O653 C634 1.266 . S
O654 Tb632 2.658 . S
O654 Tb633 2.325 . S
O654 C641 1.281 . S
O655 Tb632 2.409 . S
O655 C641 1.254 . S
O656 Tb632 2.378 . S
O656 C642 1.236 . S
O657 Tb633 2.341 . S
O657 C642 1.266 . S
O658 Tb633 2.484 . S
O658 C643 1.248 . S
O659 Tb633 2.440 . S
O659 C643 1.266 . S
O660 Tb632 2.325 . S
O660 Tb633 2.658 . S
O660 C650 1.281 . S
O661 Tb633 2.409 . S
O661 C650 1.254 . S
O662 Tb633 2.378 . S
O662 C651 1.236 . S
O663 Tb632 2.341 . S
O663 C651 1.266 . S
H664 C636 0.929 . S
H665 C637 0.931 . S
H666 C639 0.934 1_556 S
H667 C640 0.930 . S
H668 C645 0.929 . S
H669 C646 0.931 . S
H670 C648 0.930 . S
H671 C649 0.930 . S
Tb672 C674 2.809 . S
Tb672 O692 2.484 . S
Tb672 O693 2.440 . S
Tb672 O694 2.658 . S
Tb672 O695 2.409 . S
Tb672 O696 2.378 . S
Tb672 O700 2.325 . S
Tb672 O703 2.341 . S
Tb673 C683 2.809 . S
Tb673 O694 2.325 . S
Tb673 O697 2.341 . S
Tb673 O698 2.484 . S
Tb673 O699 2.440 . S
Tb673 O700 2.658 . S
Tb673 O701 2.409 . S
Tb673 O702 2.378 . S
C674 Tb672 2.809 . S
C674 C675 1.514 . S
C674 O692 1.248 . S
C674 O693 1.266 . S
C675 C674 1.514 . S
C675 C676 1.359 . S
C675 C680 1.348 . S
C676 C675 1.359 . S
C676 C677 1.380 . S
C676 H704 0.929 . S
C677 C676 1.380 . S
C677 C678 1.347 . S
C677 H705 0.931 . S
C678 C677 1.347 . S
C678 C679 1.369 . S
C679 C678 1.369 . S
C679 C680 1.408 . S
C679 H706 0.930 . S
C680 C675 1.348 . S
C680 C679 1.408 . S
C680 H707 0.930 . S
C681 O694 1.281 . S
C681 O695 1.254 . S
C682 O696 1.236 . S
C682 O697 1.266 . S
C683 Tb673 2.809 . S
C683 C684 1.514 . S
C683 O698 1.248 . S
C683 O699 1.266 . S
C684 C683 1.514 . S
C684 C685 1.359 . S
C684 C689 1.348 . S
C685 C684 1.359 . S
C685 C686 1.380 . S
C685 H708 0.929 . S
C686 C685 1.380 . S
C686 C687 1.347 . S
C686 H709 0.931 . S
C687 C686 1.347 . S
C687 C688 1.369 . S
C688 C687 1.369 . S
C688 C689 1.408 . S
C688 H710 0.930 . S
C689 C684 1.348 . S
C689 C688 1.408 . S
C689 H711 0.930 . S
C690 O700 1.281 . S
C690 O701 1.254 . S
C691 O702 1.236 . S
C691 O703 1.266 . S
O692 Tb672 2.484 . S
O692 C674 1.248 . S
O693 Tb672 2.440 . S
O693 C674 1.266 . S
O694 Tb672 2.658 . S
O694 Tb673 2.325 . S
O694 C681 1.281 . S
O695 Tb672 2.409 . S
O695 C681 1.254 . S
O696 Tb672 2.378 . S
O696 C682 1.236 . S
O697 Tb673 2.341 . S
O697 C682 1.266 . S
O698 Tb673 2.484 . S
O698 C683 1.248 . S
O699 Tb673 2.440 . S
O699 C683 1.266 . S
O700 Tb672 2.325 . S
O700 Tb673 2.658 . S
O700 C690 1.281 . S
O701 Tb673 2.409 . S
O701 C690 1.254 . S
O702 Tb673 2.378 . S
O702 C691 1.236 . S
O703 Tb672 2.341 . S
O703 C691 1.266 . S
H704 C676 0.929 . S
H705 C677 0.931 . S
H706 C679 0.930 . S
H707 C680 0.930 . S
H708 C685 0.929 . S
H709 C686 0.931 . S
H710 C688 0.930 . S
H711 C689 0.930 . S
Tb712 C714 2.809 1_455 S
Tb712 O732 2.484 1_455 S
Tb712 O733 2.440 1_455 S
Tb712 O734 2.658 . S
Tb712 O735 2.409 . S
Tb712 O736 2.378 . S
Tb712 O740 2.325 . S
Tb712 O743 2.341 . S
Tb713 C723 2.809 . S
Tb713 O734 2.325 . S
Tb713 O737 2.341 . S
Tb713 O738 2.484 . S
Tb713 O739 2.440 . S
Tb713 O740 2.658 . S
Tb713 O741 2.409 . S
Tb713 O742 2.378 . S
C714 Tb712 2.809 1_655 S
C714 C715 1.514 . S
C714 O732 1.248 . S
C714 O733 1.266 . S
C715 C714 1.514 . S
C715 C716 1.359 . S
C715 C720 1.348 . S
C716 C715 1.359 . S
C716 C717 1.380 . S
C716 H744 0.929 . S
C717 C716 1.380 . S
C717 C718 1.347 . S
C717 H745 0.931 . S
C718 C717 1.347 . S
C718 C719 1.369 . S
C719 C718 1.369 . S
C719 C720 1.408 . S
C719 H746 0.930 . S
C720 C715 1.348 . S
C720 C719 1.408 . S
C720 H747 0.930 . S
C721 O734 1.281 . S
C721 O735 1.254 . S
C722 O736 1.236 . S
C722 O737 1.266 . S
C723 Tb713 2.809 . S
C723 C724 1.514 . S
C723 O738 1.248 . S
C723 O739 1.266 . S
C724 C723 1.514 . S
C724 C725 1.359 . S
C724 C729 1.348 . S
C725 C724 1.359 . S
C725 C726 1.380 . S
C725 H748 0.929 . S
C726 C725 1.380 . S
C726 C727 1.347 . S
C726 H749 0.931 . S
C727 C726 1.347 . S
C727 C728 1.369 . S
C728 C727 1.369 . S
C728 C729 1.408 . S
C728 H750 0.930 . S
C729 C724 1.348 . S
C729 C728 1.408 . S
C729 H751 0.930 . S
C730 O740 1.281 . S
C730 O741 1.254 . S
C731 O742 1.236 . S
C731 O743 1.266 . S
O732 Tb712 2.484 1_655 S
O732 C714 1.248 . S
O733 Tb712 2.440 1_655 S
O733 C714 1.266 . S
O734 Tb712 2.658 . S
O734 Tb713 2.325 . S
O734 C721 1.281 . S
O735 Tb712 2.409 . S
O735 C721 1.254 . S
O736 Tb712 2.378 . S
O736 C722 1.236 . S
O737 Tb713 2.341 . S
O737 C722 1.266 . S
O738 Tb713 2.484 . S
O738 C723 1.248 . S
O739 Tb713 2.440 . S
O739 C723 1.266 . S
O740 Tb712 2.325 . S
O740 Tb713 2.658 . S
O740 C730 1.281 . S
O741 Tb713 2.409 . S
O741 C730 1.254 . S
O742 Tb713 2.378 . S
O742 C731 1.236 . S
O743 Tb712 2.341 . S
O743 C731 1.266 . S
H744 C716 0.929 . S
H745 C717 0.931 . S
H746 C719 0.930 . S
H747 C720 0.930 . S
H748 C725 0.929 . S
H749 C726 0.931 . S
H750 C728 0.930 . S
H751 C729 0.930 . S
Tb752 C754 2.809 . S
Tb752 O772 2.484 . S
Tb752 O773 2.440 . S
Tb752 O774 2.658 . S
Tb752 O775 2.409 . S
Tb752 O776 2.378 . S
Tb752 O780 2.325 . S
Tb752 O783 2.341 . S
Tb753 C763 2.809 . S
Tb753 O774 2.325 . S
Tb753 O777 2.341 . S
Tb753 O778 2.484 . S
Tb753 O779 2.440 . S
Tb753 O780 2.658 . S
Tb753 O781 2.409 . S
Tb753 O782 2.378 . S
C754 Tb752 2.809 . S
C754 C755 1.514 . S
C754 O772 1.248 . S
C754 O773 1.266 . S
C755 C754 1.514 . S
C755 C756 1.359 . S
C755 C760 1.348 . S
C756 C755 1.359 . S
C756 C757 1.380 . S
C756 H784 0.929 . S
C757 C756 1.380 . S
C757 C758 1.347 . S
C757 H785 0.931 . S
C758 C757 1.347 . S
C758 C759 1.369 . S
C759 C758 1.369 . S
C759 C760 1.408 . S
C759 H786 0.930 . S
C760 C755 1.348 . S
C760 C759 1.408 . S
C760 H787 0.930 . S
C761 O774 1.281 . S
C761 O775 1.254 . S
C762 O776 1.236 . S
C762 O777 1.266 . S
C763 Tb753 2.809 . S
C763 C764 1.514 . S
C763 O778 1.248 . S
C763 O779 1.266 . S
C764 C763 1.514 . S
C764 C765 1.359 . S
C764 C769 1.348 . S
C765 C764 1.359 . S
C765 C766 1.380 . S
C765 H788 0.929 . S
C766 C765 1.380 . S
C766 C767 1.347 . S
C766 H789 0.931 . S
C767 C766 1.347 . S
C767 C768 1.369 . S
C768 C767 1.369 . S
C768 C769 1.408 . S
C768 H790 0.930 . S
C769 C764 1.348 . S
C769 C768 1.408 . S
C769 H791 0.930 . S
C770 O780 1.281 . S
C770 O781 1.254 . S
C771 O782 1.236 . S
C771 O783 1.266 . S
O772 Tb752 2.484 . S
O772 C754 1.248 . S
O773 Tb752 2.440 . S
O773 C754 1.266 . S
O774 Tb752 2.658 . S
O774 Tb753 2.325 . S
O774 C761 1.281 . S
O775 Tb752 2.409 . S
O775 C761 1.254 . S
O776 Tb752 2.378 . S
O776 C762 1.236 . S
O777 Tb753 2.341 . S
O777 C762 1.266 . S
O778 Tb753 2.484 . S
O778 C763 1.248 . S
O779 Tb753 2.440 . S
O779 C763 1.266 . S
O780 Tb752 2.325 . S
O780 Tb753 2.658 . S
O780 C770 1.281 . S
O781 Tb753 2.409 . S
O781 C770 1.254 . S
O782 Tb753 2.378 . S
O782 C771 1.236 . S
O783 Tb752 2.341 . S
O783 C771 1.266 . S
H784 C756 0.929 . S
H785 C757 0.931 . S
H786 C759 0.930 . S
H787 C760 0.930 . S
H788 C765 0.929 . S
H789 C766 0.931 . S
H790 C768 0.930 . S
H791 C769 0.930 . S
Tb792 C794 2.809 . S
Tb792 O812 2.484 . S
Tb792 O813 2.440 . S
Tb792 O814 2.658 . S
Tb792 O815 2.409 . S
Tb792 O816 2.378 . S
Tb792 O820 2.325 . S
Tb792 O823 2.341 . S
Tb793 C803 2.809 . S
Tb793 O814 2.325 . S
Tb793 O817 2.341 . S
Tb793 O818 2.484 . S
Tb793 O819 2.440 . S
Tb793 O820 2.658 . S
Tb793 O821 2.409 . S
Tb793 O822 2.378 . S
C794 Tb792 2.809 . S
C794 C795 1.514 . S
C794 O812 1.248 . S
C794 O813 1.266 . S
C795 C794 1.514 . S
C795 C796 1.359 . S
C795 C800 1.348 . S
C796 C795 1.359 . S
C796 C797 1.380 . S
C796 H824 0.929 . S
C797 C796 1.380 . S
C797 C798 1.347 . S
C797 H825 0.931 . S
C798 C797 1.347 . S
C798 C799 1.369 . S
C799 C798 1.369 . S
C799 C800 1.408 . S
C799 H826 0.930 . S
C800 C795 1.348 . S
C800 C799 1.408 . S
C800 H827 0.930 . S
C801 O814 1.281 . S
C801 O815 1.254 . S
C802 O816 1.236 . S
C802 O817 1.266 . S
C803 Tb793 2.809 . S
C803 C804 1.514 . S
C803 O818 1.248 . S
C803 O819 1.266 . S
C804 C803 1.514 . S
C804 C805 1.359 . S
C804 C809 1.348 . S
C805 C804 1.359 . S
C805 C806 1.380 . S
C805 H828 0.929 . S
C806 C805 1.380 . S
C806 C807 1.347 . S
C806 H829 0.931 . S
C807 C806 1.347 . S
C807 C808 1.369 . S
C808 C807 1.369 . S
C808 C809 1.408 . S
C808 H830 0.930 . S
C809 C804 1.348 . S
C809 C808 1.408 . S
C809 H831 0.930 . S
C810 O820 1.281 . S
C810 O821 1.254 . S
C811 O822 1.236 . S
C811 O823 1.266 . S
O812 Tb792 2.484 . S
O812 C794 1.248 . S
O813 Tb792 2.440 . S
O813 C794 1.266 . S
O814 Tb792 2.658 . S
O814 Tb793 2.325 . S
O814 C801 1.281 . S
O815 Tb792 2.409 . S
O815 C801 1.254 . S
O816 Tb792 2.378 . S
O816 C802 1.236 . S
O817 Tb793 2.341 . S
O817 C802 1.266 . S
O818 Tb793 2.484 . S
O818 C803 1.248 . S
O819 Tb793 2.440 . S
O819 C803 1.266 . S
O820 Tb792 2.325 . S
O820 Tb793 2.658 . S
O820 C810 1.281 . S
O821 Tb793 2.409 . S
O821 C810 1.254 . S
O822 Tb793 2.378 . S
O822 C811 1.236 . S
O823 Tb792 2.341 . S
O823 C811 1.266 . S
H824 C796 0.929 . S
H825 C797 0.931 . S
H826 C799 0.930 . S
H827 C800 0.930 . S
H828 C805 0.929 . S
H829 C806 0.931 . S
H830 C808 0.930 . S
H831 C809 0.930 . S
Tb832 C834 2.809 . S
Tb832 O852 2.484 . S
Tb832 O853 2.440 . S
Tb832 O854 2.658 . S
Tb832 O855 2.409 . S
Tb832 O856 2.378 . S
Tb832 O860 2.325 . S
Tb832 O863 2.341 . S
Tb833 C843 2.809 . S
Tb833 O854 2.325 . S
Tb833 O857 2.341 . S
Tb833 O858 2.484 . S
Tb833 O859 2.440 . S
Tb833 O860 2.658 . S
Tb833 O861 2.409 . S
Tb833 O862 2.378 . S
C834 Tb832 2.809 . S
C834 C835 1.514 . S
C834 O852 1.248 . S
C834 O853 1.266 . S
C835 C834 1.514 . S
C835 C836 1.359 . S
C835 C840 1.348 . S
C836 C835 1.359 . S
C836 C837 1.380 . S
C836 H864 0.929 . S
C837 C836 1.380 . S
C837 C838 1.347 . S
C837 H865 0.931 . S
C838 C837 1.347 . S
C838 C839 1.369 . S
C839 C838 1.369 . S
C839 C840 1.408 . S
C839 H866 0.930 . S
C840 C835 1.348 . S
C840 C839 1.408 . S
C840 H867 0.930 . S
C841 O854 1.281 . S
C841 O855 1.254 . S
C842 O856 1.236 . S
C842 O857 1.266 . S
C843 Tb833 2.809 . S
C843 C844 1.514 . S
C843 O858 1.248 . S
C843 O859 1.266 . S
C844 C843 1.514 . S
C844 C845 1.359 . S
C844 C849 1.348 . S
C845 C844 1.359 . S
C845 C846 1.380 . S
C845 H868 0.929 . S
C846 C845 1.380 . S
C846 C847 1.347 . S
C846 H869 0.931 . S
C847 C846 1.347 . S
C847 C848 1.369 . S
C848 C847 1.369 . S
C848 C849 1.408 . S
C848 H870 0.930 . S
C849 C844 1.348 . S
C849 C848 1.408 . S
C849 H871 0.930 . S
C850 O860 1.281 . S
C850 O861 1.254 . S
C851 O862 1.236 . S
C851 O863 1.266 . S
O852 Tb832 2.484 . S
O852 C834 1.248 . S
O853 Tb832 2.440 . S
O853 C834 1.266 . S
O854 Tb832 2.658 . S
O854 Tb833 2.325 . S
O854 C841 1.281 . S
O855 Tb832 2.409 . S
O855 C841 1.254 . S
O856 Tb832 2.378 . S
O856 C842 1.236 . S
O857 Tb833 2.341 . S
O857 C842 1.266 . S
O858 Tb833 2.484 . S
O858 C843 1.248 . S
O859 Tb833 2.440 . S
O859 C843 1.266 . S
O860 Tb832 2.325 . S
O860 Tb833 2.658 . S
O860 C850 1.281 . S
O861 Tb833 2.409 . S
O861 C850 1.254 . S
O862 Tb833 2.378 . S
O862 C851 1.236 . S
O863 Tb832 2.341 . S
O863 C851 1.266 . S
H864 C836 0.929 . S
H865 C837 0.931 . S
H866 C839 0.930 . S
H867 C840 0.930 . S
H868 C845 0.929 . S
H869 C846 0.931 . S
H870 C848 0.930 . S
H871 C849 0.930 . S
Tb872 C874 2.809 . S
Tb872 O892 2.484 . S
Tb872 O893 2.440 . S
Tb872 O894 2.658 . S
Tb872 O895 2.409 . S
Tb872 O896 2.378 . S
Tb872 O900 2.325 . S
Tb872 O903 2.341 . S
Tb873 C883 2.809 . S
Tb873 O894 2.325 . S
Tb873 O897 2.341 . S
Tb873 O898 2.484 . S
Tb873 O899 2.440 . S
Tb873 O900 2.658 . S
Tb873 O901 2.409 . S
Tb873 O902 2.378 . S
C874 Tb872 2.809 . S
C874 C875 1.514 . S
C874 O892 1.248 . S
C874 O893 1.266 . S
C875 C874 1.514 . S
C875 C876 1.359 . S
C875 C880 1.348 . S
C876 C875 1.359 . S
C876 C877 1.380 . S
C876 H904 0.929 . S
C877 C876 1.380 . S
C877 C878 1.347 . S
C877 H905 0.931 . S
C878 C877 1.347 . S
C878 C879 1.369 . S
C879 C878 1.369 . S
C879 C880 1.408 . S
C879 H906 0.930 . S
C880 C875 1.348 . S
C880 C879 1.408 . S
C880 H907 0.930 . S
C881 O894 1.281 . S
C881 O895 1.254 . S
C882 O896 1.236 . S
C882 O897 1.266 . S
C883 Tb873 2.809 . S
C883 C884 1.514 . S
C883 O898 1.248 . S
C883 O899 1.266 . S
C884 C883 1.514 . S
C884 C885 1.359 . S
C884 C889 1.348 . S
C885 C884 1.359 . S
C885 C886 1.380 . S
C885 H908 0.929 . S
C886 C885 1.380 . S
C886 C887 1.347 . S
C886 H909 0.931 . S
C887 C886 1.347 . S
C887 C888 1.369 . S
C888 C887 1.369 . S
C888 C889 1.408 . S
C888 H910 0.930 . S
C889 C884 1.348 . S
C889 C888 1.408 . S
C889 H911 0.930 . S
C890 O900 1.281 . S
C890 O901 1.254 . S
C891 O902 1.236 . S
C891 O903 1.266 . S
O892 Tb872 2.484 . S
O892 C874 1.248 . S
O893 Tb872 2.440 . S
O893 C874 1.266 . S
O894 Tb872 2.658 . S
O894 Tb873 2.325 . S
O894 C881 1.281 . S
O895 Tb872 2.409 . S
O895 C881 1.254 . S
O896 Tb872 2.378 . S
O896 C882 1.236 . S
O897 Tb873 2.341 . S
O897 C882 1.266 . S
O898 Tb873 2.484 . S
O898 C883 1.248 . S
O899 Tb873 2.440 . S
O899 C883 1.266 . S
O900 Tb872 2.325 . S
O900 Tb873 2.658 . S
O900 C890 1.281 . S
O901 Tb873 2.409 . S
O901 C890 1.254 . S
O902 Tb873 2.378 . S
O902 C891 1.236 . S
O903 Tb872 2.341 . S
O903 C891 1.266 . S
H904 C876 0.929 . S
H905 C877 0.931 . S
H906 C879 0.930 . S
H907 C880 0.930 . S
H908 C885 0.929 . S
H909 C886 0.931 . S
H910 C888 0.930 . S
H911 C889 0.930 . S
Tb912 C914 2.809 . S
Tb912 O932 2.484 . S
Tb912 O933 2.440 . S
Tb912 O934 2.658 . S
Tb912 O935 2.409 . S
Tb912 O936 2.378 . S
Tb912 O940 2.325 . S
Tb912 O943 2.341 . S
Tb913 C923 2.809 1_455 S
Tb913 O934 2.325 . S
Tb913 O937 2.341 . S
Tb913 O938 2.484 1_455 S
Tb913 O939 2.440 1_455 S
Tb913 O940 2.658 . S
Tb913 O941 2.409 . S
Tb913 O942 2.378 . S
C914 Tb912 2.809 . S
C914 C915 1.514 . S
C914 O932 1.248 . S
C914 O933 1.266 . S
C915 C914 1.514 . S
C915 C916 1.359 . S
C915 C920 1.348 . S
C916 C915 1.359 . S
C916 C917 1.380 . S
C916 H944 0.929 . S
C917 C916 1.380 . S
C917 C918 1.347 . S
C917 H945 0.931 . S
C918 C917 1.347 . S
C918 C919 1.369 . S
C919 C918 1.369 . S
C919 C920 1.408 . S
C919 H946 0.930 1_554 S
C920 C915 1.348 . S
C920 C919 1.408 . S
C920 H947 0.930 1_554 S
C921 O934 1.281 . S
C921 O935 1.254 . S
C922 O936 1.236 . S
C922 O937 1.266 . S
C923 Tb913 2.809 1_655 S
C923 C924 1.514 . S
C923 O938 1.248 . S
C923 O939 1.266 . S
C924 C923 1.514 . S
C924 C925 1.359 . S
C924 C929 1.348 . S
C925 C924 1.359 . S
C925 C926 1.380 . S
C925 H948 0.929 . S
C926 C925 1.380 . S
C926 C927 1.347 . S
C926 H949 0.931 . S
C927 C926 1.347 . S
C927 C928 1.369 . S
C928 C927 1.369 . S
C928 C929 1.408 . S
C928 H950 0.930 . S
C929 C924 1.348 . S
C929 C928 1.408 . S
C929 H951 0.930 . S
C930 O940 1.281 . S
C930 O941 1.254 . S
C931 O942 1.236 . S
C931 O943 1.266 . S
O932 Tb912 2.484 . S
O932 C914 1.248 . S
O933 Tb912 2.440 . S
O933 C914 1.266 . S
O934 Tb912 2.658 . S
O934 Tb913 2.325 . S
O934 C921 1.281 . S
O935 Tb912 2.409 . S
O935 C921 1.254 . S
O936 Tb912 2.378 . S
O936 C922 1.236 . S
O937 Tb913 2.341 . S
O937 C922 1.266 . S
O938 Tb913 2.484 1_655 S
O938 C923 1.248 . S
O939 Tb913 2.440 1_655 S
O939 C923 1.266 . S
O940 Tb912 2.325 . S
O940 Tb913 2.658 . S
O940 C930 1.281 . S
O941 Tb913 2.409 . S
O941 C930 1.254 . S
O942 Tb913 2.378 . S
O942 C931 1.236 . S
O943 Tb912 2.341 . S
O943 C931 1.266 . S
H944 C916 0.929 . S
H945 C917 0.931 . S
H946 C919 0.930 1_556 S
H947 C920 0.930 1_556 S
H948 C925 0.929 . S
H949 C926 0.931 . S
H950 C928 0.930 . S
H951 C929 0.930 . S
H952 C958 0.930 . S
H953 C961 0.930 . S
H954 C962 0.930 . S
H955 C963 0.930 . S
H956 C966 0.930 . S
H957 C967 0.930 . S
C958 H952 0.930 . S
C958 C959 1.355 . S
C958 C960 1.415 . S
C959 C958 1.355 . S
C959 C961 1.419 1_554 S
C960 C958 1.415 . S
C960 C965 1.425 . S
C960 C967 1.409 . S
C961 H953 0.930 . S
C961 C959 1.419 1_556 S
C961 C962 1.362 . S
C962 H954 0.930 . S
C962 C961 1.362 . S
C962 C965 1.409 1_556 S
C963 H955 0.930 . S
C963 C964 1.355 . S
C963 C965 1.415 . S
C964 C963 1.355 . S
C964 C966 1.419 . S
C965 C960 1.425 . S
C965 C962 1.409 1_554 S
C965 C963 1.415 . S
C966 H956 0.930 . S
C966 C964 1.419 . S
C966 C967 1.362 . S
C967 H957 0.930 . S
C967 C960 1.409 . S
C967 C966 1.362 . S
H968 C974 0.930 . S
H969 C977 0.930 . S
H970 C978 0.930 . S
H971 C979 0.930 . S
H972 C982 0.930 . S
H973 C983 0.930 . S
C974 H968 0.930 . S
C974 C975 1.355 . S
C974 C976 1.415 . S
C975 C974 1.355 . S
C975 C977 1.419 . S
C976 C974 1.415 . S
C976 C981 1.425 . S
C976 C983 1.409 . S
C977 H969 0.930 . S
C977 C975 1.419 . S
C977 C978 1.362 . S
C978 H970 0.930 . S
C978 C977 1.362 . S
C978 C981 1.409 . S
C979 H971 0.930 . S
C979 C980 1.355 . S
C979 C981 1.415 . S
C980 C979 1.355 . S
C980 C982 1.419 . S
C981 C976 1.425 . S
C981 C978 1.409 . S
C981 C979 1.415 . S
C982 H972 0.930 . S
C982 C980 1.419 . S
C982 C983 1.362 . S
C983 H973 0.930 . S
C983 C976 1.409 . S
C983 C982 1.362 . S
H984 C990 0.930 . S
H985 C993 0.930 . S
H986 C994 0.930 . S
H987 C995 0.930 . S
H988 C998 0.930 . S
H989 C999 0.930 . S
C990 H984 0.930 . S
C990 C991 1.355 . S
C990 C992 1.415 . S
C991 C990 1.355 . S
C991 C993 1.419 . S
C992 C990 1.415 . S
C992 C997 1.425 . S
C992 C999 1.409 . S
C993 H985 0.930 . S
C993 C991 1.419 . S
C993 C994 1.362 . S
C994 H986 0.930 . S
C994 C993 1.362 . S
C994 C997 1.409 . S
C995 H987 0.930 . S
C995 C996 1.355 . S
C995 C997 1.415 . S
C996 C995 1.355 . S
C996 C998 1.419 . S
C997 C992 1.425 . S
C997 C994 1.409 . S
C997 C995 1.415 . S
C998 H988 0.930 . S
C998 C996 1.419 . S
C998 C999 1.362 . S
C999 H989 0.930 . S
C999 C992 1.409 . S
C999 C998 1.362 . S
H1000 C1006 0.930 . S
H1001 C1009 0.930 . S
H1002 C1010 0.930 . S
H1003 C1011 0.930 . S
H1004 C1014 0.930 . S
H1005 C1015 0.930 . S
C1006 H1000 0.930 . S
C1006 C1007 1.355 . S
C1006 C1008 1.415 . S
C1007 C1006 1.355 . S
C1007 C1009 1.419 . S
C1008 C1006 1.415 . S
C1008 C1013 1.425 . S
C1008 C1015 1.409 . S
C1009 H1001 0.930 . S
C1009 C1007 1.419 . S
C1009 C1010 1.362 . S
C1010 H1002 0.930 . S
C1010 C1009 1.362 . S
C1010 C1013 1.409 . S
C1011 H1003 0.930 . S
C1011 C1012 1.355 . S
C1011 C1013 1.415 . S
C1012 C1011 1.355 . S
C1012 C1014 1.419 . S
C1013 C1008 1.425 . S
C1013 C1010 1.409 . S
C1013 C1011 1.415 . S
C1014 H1004 0.930 . S
C1014 C1012 1.419 . S
C1014 C1015 1.362 . S
C1015 H1005 0.930 . S
C1015 C1008 1.409 . S
C1015 C1014 1.362 . S
H1016 C1022 0.930 . S
H1017 C1025 0.930 . S
H1018 C1026 0.930 . S
H1019 C1027 0.930 . S
H1020 C1030 0.930 . S
H1021 C1031 0.930 . S
C1022 H1016 0.930 . S
C1022 C1023 1.355 . S
C1022 C1024 1.415 . S
C1023 C1022 1.355 . S
C1023 C1025 1.419 . S
C1024 C1022 1.415 . S
C1024 C1029 1.425 . S
C1024 C1031 1.409 . S
C1025 H1017 0.930 . S
C1025 C1023 1.419 . S
C1025 C1026 1.362 . S
C1026 H1018 0.930 . S
C1026 C1025 1.362 . S
C1026 C1029 1.409 . S
C1027 H1019 0.930 . S
C1027 C1028 1.355 . S
C1027 C1029 1.415 . S
C1028 C1027 1.355 . S
C1028 C1030 1.419 . S
C1029 C1024 1.425 . S
C1029 C1026 1.409 . S
C1029 C1027 1.415 . S
C1030 H1020 0.930 . S
C1030 C1028 1.419 . S
C1030 C1031 1.362 . S
C1031 H1021 0.930 . S
C1031 C1024 1.409 . S
C1031 C1030 1.362 . S
H1032 C1038 0.930 . S
H1033 C1041 0.930 . S
H1034 C1042 0.930 . S
H1035 C1043 0.930 . S
H1036 C1046 0.930 . S
H1037 C1047 0.930 . S
C1038 H1032 0.930 . S
C1038 C1039 1.355 . S
C1038 C1040 1.415 . S
C1039 C1038 1.355 . S
C1039 C1041 1.419 . S
C1040 C1038 1.415 . S
C1040 C1045 1.425 . S
C1040 C1047 1.409 . S
C1041 H1033 0.930 . S
C1041 C1039 1.419 . S
C1041 C1042 1.362 . S
C1042 H1034 0.930 . S
C1042 C1041 1.362 . S
C1042 C1045 1.409 . S
C1043 H1035 0.930 . S
C1043 C1044 1.355 . S
C1043 C1045 1.415 . S
C1044 C1043 1.355 . S
C1044 C1046 1.419 . S
C1045 C1040 1.425 . S
C1045 C1042 1.409 . S
C1045 C1043 1.415 . S
C1046 H1036 0.930 . S
C1046 C1044 1.419 . S
C1046 C1047 1.362 . S
C1047 H1037 0.930 . S
C1047 C1040 1.409 . S
C1047 C1046 1.362 . S
H1048 C1054 0.930 . S
H1049 C1057 0.930 . S
H1050 C1058 0.930 . S
H1051 C1059 0.930 . S
H1052 C1062 0.930 . S
H1053 C1063 0.930 . S
C1054 H1048 0.930 . S
C1054 C1055 1.355 . S
C1054 C1056 1.415 . S
C1055 C1054 1.355 . S
C1055 C1057 1.419 . S
C1056 C1054 1.415 . S
C1056 C1061 1.425 . S
C1056 C1063 1.409 . S
C1057 H1049 0.930 . S
C1057 C1055 1.419 . S
C1057 C1058 1.362 . S
C1058 H1050 0.930 . S
C1058 C1057 1.362 . S
C1058 C1061 1.409 . S
C1059 H1051 0.930 . S
C1059 C1060 1.355 . S
C1059 C1061 1.415 . S
C1060 C1059 1.355 . S
C1060 C1062 1.419 . S
C1061 C1056 1.425 . S
C1061 C1058 1.409 . S
C1061 C1059 1.415 . S
C1062 H1052 0.930 . S
C1062 C1060 1.419 . S
C1062 C1063 1.362 . S
C1063 H1053 0.930 . S
C1063 C1056 1.409 . S
C1063 C1062 1.362 . S
H1064 C1070 0.930 . S
H1065 C1073 0.930 . S
H1066 C1074 0.930 . S
H1067 C1075 0.930 . S
H1068 C1078 0.930 . S
H1069 C1079 0.930 . S
C1070 H1064 0.930 . S
C1070 C1071 1.355 . S
C1070 C1072 1.415 . S
C1071 C1070 1.355 . S
C1071 C1073 1.419 . S
C1072 C1070 1.415 . S
C1072 C1077 1.425 . S
C1072 C1079 1.409 . S
C1073 H1065 0.930 . S
C1073 C1071 1.419 . S
C1073 C1074 1.362 . S
C1074 H1066 0.930 . S
C1074 C1073 1.362 . S
C1074 C1077 1.409 . S
C1075 H1067 0.930 . S
C1075 C1076 1.355 . S
C1075 C1077 1.415 . S
C1076 C1075 1.355 . S
C1076 C1078 1.419 . S
C1077 C1072 1.425 . S
C1077 C1074 1.409 . S
C1077 C1075 1.415 . S
C1078 H1068 0.930 . S
C1078 C1076 1.419 . S
C1078 C1079 1.362 . S
C1079 H1069 0.930 . S
C1079 C1072 1.409 . S
C1079 C1078 1.362 . S
H1080 C1086 0.930 1_455 S
H1081 C1089 0.930 . S
H1082 C1090 0.930 . S
H1083 C1091 0.930 . S
H1084 C1094 0.930 . S
H1085 C1095 0.930 . S
C1086 H1080 0.930 1_655 S
C1086 C1087 1.355 . S
C1086 C1088 1.415 1_655 S
C1087 C1086 1.355 . S
C1087 C1089 1.419 1_545 S
C1088 C1086 1.415 1_455 S
C1088 C1093 1.425 1_455 S
C1088 C1095 1.409 . S
C1089 H1081 0.930 . S
C1089 C1087 1.419 1_565 S
C1089 C1090 1.362 . S
C1090 H1082 0.930 . S
C1090 C1089 1.362 . S
C1090 C1093 1.409 1_565 S
C1091 H1083 0.930 . S
C1091 C1092 1.355 1_655 S
C1091 C1093 1.415 . S
C1092 C1091 1.355 1_455 S
C1092 C1094 1.419 . S
C1093 C1088 1.425 1_655 S
C1093 C1090 1.409 1_545 S
C1093 C1091 1.415 . S
C1094 H1084 0.930 . S
C1094 C1092 1.419 . S
C1094 C1095 1.362 . S
C1095 H1085 0.930 . S
C1095 C1088 1.409 . S
C1095 C1094 1.362 . S
H1096 C1102 0.930 . S
H1097 C1105 0.930 . S
H1098 C1106 0.930 . S
H1099 C1107 0.930 . S
H1100 C1110 0.930 . S
H1101 C1111 0.930 . S
C1102 H1096 0.930 . S
C1102 C1103 1.355 . S
C1102 C1104 1.415 . S
C1103 C1102 1.355 . S
C1103 C1105 1.419 . S
C1104 C1102 1.415 . S
C1104 C1109 1.425 . S
C1104 C1111 1.409 . S
C1105 H1097 0.930 . S
C1105 C1103 1.419 . S
C1105 C1106 1.362 . S
C1106 H1098 0.930 . S
C1106 C1105 1.362 . S
C1106 C1109 1.409 . S
C1107 H1099 0.930 . S
C1107 C1108 1.355 . S
C1107 C1109 1.415 . S
C1108 C1107 1.355 . S
C1108 C1110 1.419 . S
C1109 C1104 1.425 . S
C1109 C1106 1.409 . S
C1109 C1107 1.415 . S
C1110 H1100 0.930 . S
C1110 C1108 1.419 . S
C1110 C1111 1.362 . S
C1111 H1101 0.930 . S
C1111 C1104 1.409 . S
C1111 C1110 1.362 . S
H1112 C1118 0.930 . S
H1113 C1121 0.930 . S
H1114 C1122 0.930 . S
H1115 C1123 0.930 . S
H1116 C1126 0.930 . S
H1117 C1127 0.930 . S
C1118 H1112 0.930 . S
C1118 C1119 1.355 . S
C1118 C1120 1.415 . S
C1119 C1118 1.355 . S
C1119 C1121 1.419 . S
C1120 C1118 1.415 . S
C1120 C1125 1.425 . S
C1120 C1127 1.409 . S
C1121 H1113 0.930 . S
C1121 C1119 1.419 . S
C1121 C1122 1.362 . S
C1122 H1114 0.930 . S
C1122 C1121 1.362 . S
C1122 C1125 1.409 . S
C1123 H1115 0.930 . S
C1123 C1124 1.355 . S
C1123 C1125 1.415 . S
C1124 C1123 1.355 . S
C1124 C1126 1.419 . S
C1125 C1120 1.425 . S
C1125 C1122 1.409 . S
C1125 C1123 1.415 . S
C1126 H1116 0.930 . S
C1126 C1124 1.419 . S
C1126 C1127 1.362 . S
C1127 H1117 0.930 . S
C1127 C1120 1.409 . S
C1127 C1126 1.362 . S
H1128 C1134 0.930 . S
H1129 C1137 0.930 1_554 S
H1130 C1138 0.930 . S
H1131 C1139 0.930 . S
H1132 C1142 0.930 . S
H1133 C1143 0.930 . S
C1134 H1128 0.930 . S
C1134 C1135 1.355 . S
C1134 C1136 1.415 . S
C1135 C1134 1.355 . S
C1135 C1137 1.419 . S
C1136 C1134 1.415 . S
C1136 C1141 1.425 . S
C1136 C1143 1.409 . S
C1137 H1129 0.930 1_556 S
C1137 C1135 1.419 . S
C1137 C1138 1.362 . S
C1138 H1130 0.930 . S
C1138 C1137 1.362 . S
C1138 C1141 1.409 . S
C1139 H1131 0.930 . S
C1139 C1140 1.355 . S
C1139 C1141 1.415 . S
C1140 C1139 1.355 . S
C1140 C1142 1.419 . S
C1141 C1136 1.425 . S
C1141 C1138 1.409 . S
C1141 C1139 1.415 . S
C1142 H1132 0.930 . S
C1142 C1140 1.419 . S
C1142 C1143 1.362 . S
C1143 H1133 0.930 . S
C1143 C1136 1.409 . S
C1143 C1142 1.362 . S
H1144 C1150 0.894 1_455 S
H1145 C1153 0.927 1_565 S
H1146 C1154 0.930 1_565 S
H1147 C1155 0.930 . S
H1148 C1158 0.930 . S
H1149 C1159 0.930 . S
C1150 H1144 0.894 1_655 S
C1150 C1151 1.390 . S
C1150 C1152 1.415 1_655 S
C1151 C1150 1.390 . S
C1151 C1153 1.431 . S
C1152 C1150 1.415 1_455 S
C1152 C1157 1.425 1_455 S
C1152 C1159 1.409 . S
C1153 H1145 0.927 1_545 S
C1153 C1151 1.431 . S
C1153 C1154 1.355 . S
C1154 H1146 0.930 1_545 S
C1154 C1153 1.355 . S
C1154 C1157 1.409 . S
C1155 H1147 0.930 . S
C1155 C1156 1.355 1_655 S
C1155 C1157 1.415 . S
C1156 C1155 1.355 1_455 S
C1156 C1158 1.419 . S
C1157 C1152 1.425 1_655 S
C1157 C1154 1.409 . S
C1157 C1155 1.415 . S
C1158 H1148 0.930 . S
C1158 C1156 1.419 . S
C1158 C1159 1.362 . S
C1159 H1149 0.930 . S
C1159 C1152 1.409 . S
C1159 C1158 1.362 . S
H1160 C1166 0.930 . S
H1161 C1169 0.930 . S
H1162 C1170 0.930 . S
H1163 C1171 0.930 . S
H1164 C1174 0.930 . S
H1165 C1175 0.930 . S
C1166 H1160 0.930 . S
C1166 C1167 1.355 . S
C1166 C1168 1.415 . S
C1167 C1166 1.355 . S
C1167 C1169 1.419 . S
C1168 C1166 1.415 . S
C1168 C1173 1.425 . S
C1168 C1175 1.409 . S
C1169 H1161 0.930 . S
C1169 C1167 1.419 . S
C1169 C1170 1.362 . S
C1170 H1162 0.930 . S
C1170 C1169 1.362 . S
C1170 C1173 1.409 . S
C1171 H1163 0.930 . S
C1171 C1172 1.355 . S
C1171 C1173 1.415 . S
C1172 C1171 1.355 . S
C1172 C1174 1.419 . S
C1173 C1168 1.425 . S
C1173 C1170 1.409 . S
C1173 C1171 1.415 . S
C1174 H1164 0.930 . S
C1174 C1172 1.419 . S
C1174 C1175 1.362 . S
C1175 H1165 0.930 . S
C1175 C1168 1.409 . S
C1175 C1174 1.362 . S
H1176 C1182 0.930 1_565 S
H1177 C1185 0.930 . S
H1178 C1186 0.930 . S
H1179 C1187 0.930 . S
H1180 C1190 0.930 1_554 S
H1181 C1191 0.930 1_565 S
C1182 H1176 0.930 1_545 S
C1182 C1183 1.355 . S
C1182 C1184 1.415 . S
C1183 C1182 1.355 . S
C1183 C1185 1.419 . S
C1184 C1182 1.415 . S
C1184 C1189 1.425 . S
C1184 C1191 1.409 . S
C1185 H1177 0.930 . S
C1185 C1183 1.419 . S
C1185 C1186 1.362 . S
C1186 H1178 0.930 . S
C1186 C1185 1.362 . S
C1186 C1189 1.409 . S
C1187 H1179 0.930 . S
C1187 C1188 1.355 . S
C1187 C1189 1.415 . S
C1188 C1187 1.355 . S
C1188 C1190 1.419 . S
C1189 C1184 1.425 . S
C1189 C1186 1.409 . S
C1189 C1187 1.415 . S
C1190 H1180 0.930 1_556 S
C1190 C1188 1.419 . S
C1190 C1191 1.362 . S
C1191 H1181 0.930 1_545 S
C1191 C1184 1.409 . S
C1191 C1190 1.362 . S
H1192 C1198 0.930 . S
H1193 C1201 0.930 . S
H1194 C1202 0.930 . S
H1195 C1203 0.930 . S
H1196 C1206 0.930 . S
H1197 C1207 0.930 . S
C1198 H1192 0.930 . S
C1198 C1199 1.355 . S
C1198 C1200 1.415 . S
C1199 C1198 1.355 . S
C1199 C1201 1.419 . S
C1200 C1198 1.415 . S
C1200 C1205 1.425 . S
C1200 C1207 1.409 . S
C1201 H1193 0.930 . S
C1201 C1199 1.419 . S
C1201 C1202 1.362 . S
C1202 H1194 0.930 . S
C1202 C1201 1.362 . S
C1202 C1205 1.409 . S
C1203 H1195 0.930 . S
C1203 C1204 1.355 . S
C1203 C1205 1.415 . S
C1204 C1203 1.355 . S
C1204 C1206 1.419 . S
C1205 C1200 1.425 . S
C1205 C1202 1.409 . S
C1205 C1203 1.415 . S
C1206 H1196 0.930 . S
C1206 C1204 1.419 . S
C1206 C1207 1.362 . S
C1207 H1197 0.930 . S
C1207 C1200 1.409 . S
C1207 C1206 1.362 . S
H1208 C1214 0.930 . S
H1209 C1217 0.930 1_556 S
H1210 C1218 0.930 . S
H1211 C1219 0.930 . S
H1212 C1222 0.930 . S
H1213 C1223 0.930 . S
C1214 H1208 0.930 . S
C1214 C1215 1.355 . S
C1214 C1216 1.415 . S
C1215 C1214 1.355 . S
C1215 C1217 1.419 . S
C1216 C1214 1.415 . S
C1216 C1221 1.425 . S
C1216 C1223 1.409 . S
C1217 H1209 0.930 1_554 S
C1217 C1215 1.419 . S
C1217 C1218 1.362 . S
C1218 H1210 0.930 . S
C1218 C1217 1.362 . S
C1218 C1221 1.409 . S
C1219 H1211 0.930 . S
C1219 C1220 1.355 . S
C1219 C1221 1.415 . S
C1220 C1219 1.355 . S
C1220 C1222 1.419 . S
C1221 C1216 1.425 . S
C1221 C1218 1.409 . S
C1221 C1219 1.415 . S
C1222 H1212 0.930 . S
C1222 C1220 1.419 . S
C1222 C1223 1.362 . S
C1223 H1213 0.930 . S
C1223 C1216 1.409 . S
C1223 C1222 1.362 . S
H1224 C1230 0.930 . S
H1225 C1233 0.930 . S
H1226 C1234 0.930 . S
H1227 C1235 0.930 . S
H1228 C1238 0.930 . S
H1229 C1239 0.930 . S
C1230 H1224 0.930 . S
C1230 C1231 1.355 . S
C1230 C1232 1.415 . S
C1231 C1230 1.355 . S
C1231 C1233 1.419 . S
C1232 C1230 1.415 . S
C1232 C1237 1.425 . S
C1232 C1239 1.409 . S
C1233 H1225 0.930 . S
C1233 C1231 1.419 . S
C1233 C1234 1.362 . S
C1234 H1226 0.930 . S
C1234 C1233 1.362 . S
C1234 C1237 1.409 . S
C1235 H1227 0.930 . S
C1235 C1236 1.355 . S
C1235 C1237 1.415 . S
C1236 C1235 1.355 . S
C1236 C1238 1.419 . S
C1237 C1232 1.425 . S
C1237 C1234 1.409 . S
C1237 C1235 1.415 . S
C1238 H1228 0.930 . S
C1238 C1236 1.419 . S
C1238 C1239 1.362 . S
C1239 H1229 0.930 . S
C1239 C1232 1.409 . S
C1239 C1238 1.362 . S
H1240 C1246 0.930 . S
H1241 C1249 0.930 . S
H1242 C1250 0.930 . S
H1243 C1251 0.930 . S
H1244 C1254 0.930 . S
H1245 C1255 0.930 . S
C1246 H1240 0.930 . S
C1246 C1247 1.355 . S
C1246 C1248 1.415 . S
C1247 C1246 1.355 . S
C1247 C1249 1.419 . S
C1248 C1246 1.415 . S
C1248 C1253 1.425 . S
C1248 C1255 1.409 . S
C1249 H1241 0.930 . S
C1249 C1247 1.419 . S
C1249 C1250 1.362 . S
C1250 H1242 0.930 . S
C1250 C1249 1.362 . S
C1250 C1253 1.409 . S
C1251 H1243 0.930 . S
C1251 C1252 1.355 . S
C1251 C1253 1.415 . S
C1252 C1251 1.355 . S
C1252 C1254 1.419 . S
C1253 C1248 1.425 . S
C1253 C1250 1.409 . S
C1253 C1251 1.415 . S
C1254 H1244 0.930 . S
C1254 C1252 1.419 . S
C1254 C1255 1.362 . S
C1255 H1245 0.930 . S
C1255 C1248 1.409 . S
C1255 C1254 1.362 . S
H1256 C1262 0.930 . S
H1257 C1265 0.930 . S
H1258 C1266 0.930 . S
H1259 C1267 0.930 . S
H1260 C1270 0.930 . S
H1261 C1271 0.930 . S
C1262 H1256 0.930 . S
C1262 C1263 1.355 . S
C1262 C1264 1.415 . S
C1263 C1262 1.355 . S
C1263 C1265 1.419 . S
C1264 C1262 1.415 . S
C1264 C1269 1.425 . S
C1264 C1271 1.409 . S
C1265 H1257 0.930 . S
C1265 C1263 1.419 . S
C1265 C1266 1.362 . S
C1266 H1258 0.930 . S
C1266 C1265 1.362 . S
C1266 C1269 1.409 . S
C1267 H1259 0.930 . S
C1267 C1268 1.355 . S
C1267 C1269 1.415 . S
C1268 C1267 1.355 . S
C1268 C1270 1.419 . S
C1269 C1264 1.425 . S
C1269 C1266 1.409 . S
C1269 C1267 1.415 . S
C1270 H1260 0.930 . S
C1270 C1268 1.419 . S
C1270 C1271 1.362 . S
C1271 H1261 0.930 . S
C1271 C1264 1.409 . S
C1271 C1270 1.362 . S
H1272 C1278 0.930 . S
H1273 C1281 0.930 . S
H1274 C1282 0.930 . S
H1275 C1283 0.930 . S
H1276 C1286 0.930 . S
H1277 C1287 0.930 . S
C1278 H1272 0.930 . S
C1278 C1279 1.355 . S
C1278 C1280 1.415 . S
C1279 C1278 1.355 . S
C1279 C1281 1.419 . S
C1280 C1278 1.415 . S
C1280 C1285 1.425 . S
C1280 C1287 1.409 . S
C1281 H1273 0.930 . S
C1281 C1279 1.419 . S
C1281 C1282 1.362 . S
C1282 H1274 0.930 . S
C1282 C1281 1.362 . S
C1282 C1285 1.409 . S
C1283 H1275 0.930 . S
C1283 C1284 1.355 . S
C1283 C1285 1.415 . S
C1284 C1283 1.355 . S
C1284 C1286 1.419 . S
C1285 C1280 1.425 . S
C1285 C1282 1.409 . S
C1285 C1283 1.415 . S
C1286 H1276 0.930 . S
C1286 C1284 1.419 . S
C1286 C1287 1.362 . S
C1287 H1277 0.930 . S
C1287 C1280 1.409 . S
C1287 C1286 1.362 . S
H1288 C1294 0.930 . S
H1289 C1297 0.930 . S
H1290 C1298 0.930 . S
H1291 C1299 0.930 . S
H1292 C1302 0.930 . S
H1293 C1303 0.930 . S
C1294 H1288 0.930 . S
C1294 C1295 1.355 . S
C1294 C1296 1.415 . S
C1295 C1294 1.355 . S
C1295 C1297 1.419 . S
C1296 C1294 1.415 . S
C1296 C1301 1.425 . S
C1296 C1303 1.409 . S
C1297 H1289 0.930 . S
C1297 C1295 1.419 . S
C1297 C1298 1.362 . S
C1298 H1290 0.930 . S
C1298 C1297 1.362 . S
C1298 C1301 1.409 . S
C1299 H1291 0.930 . S
C1299 C1300 1.355 . S
C1299 C1301 1.415 . S
C1300 C1299 1.355 . S
C1300 C1302 1.419 . S
C1301 C1296 1.425 . S
C1301 C1298 1.409 . S
C1301 C1299 1.415 . S
C1302 H1292 0.930 . S
C1302 C1300 1.419 . S
C1302 C1303 1.362 . S
C1303 H1293 0.930 . S
C1303 C1296 1.409 . S
C1303 C1302 1.362 . S
H1304 C1310 0.930 . S
H1305 C1313 0.930 . S
H1306 C1314 0.930 . S
H1307 C1315 0.930 . S
H1308 C1318 0.930 . S
H1309 C1319 0.930 . S
C1310 H1304 0.930 . S
C1310 C1311 1.355 . S
C1310 C1312 1.415 . S
C1311 C1310 1.355 . S
C1311 C1313 1.419 . S
C1312 C1310 1.415 . S
C1312 C1317 1.425 . S
C1312 C1319 1.409 . S
C1313 H1305 0.930 . S
C1313 C1311 1.419 . S
C1313 C1314 1.362 . S
C1314 H1306 0.930 . S
C1314 C1313 1.362 . S
C1314 C1317 1.409 . S
C1315 H1307 0.930 . S
C1315 C1316 1.355 . S
C1315 C1317 1.415 . S
C1316 C1315 1.355 . S
C1316 C1318 1.419 . S
C1317 C1312 1.425 . S
C1317 C1314 1.409 . S
C1317 C1315 1.415 . S
C1318 H1308 0.930 . S
C1318 C1316 1.419 . S
C1318 C1319 1.362 . S
C1319 H1309 0.930 . S
C1319 C1312 1.409 . S
C1319 C1318 1.362 . S
H1320 C1326 0.930 . S
H1321 C1329 0.930 . S
H1322 C1330 0.930 . S
H1323 C1331 0.930 . S
H1324 C1334 0.930 . S
H1325 C1335 0.930 . S
C1326 H1320 0.930 . S
C1326 C1327 1.355 . S
C1326 C1328 1.415 . S
C1327 C1326 1.355 . S
C1327 C1329 1.419 . S
C1328 C1326 1.415 . S
C1328 C1333 1.425 . S
C1328 C1335 1.409 . S
C1329 H1321 0.930 . S
C1329 C1327 1.419 . S
C1329 C1330 1.362 . S
C1330 H1322 0.930 . S
C1330 C1329 1.362 . S
C1330 C1333 1.409 . S
C1331 H1323 0.930 . S
C1331 C1332 1.355 . S
C1331 C1333 1.415 . S
C1332 C1331 1.355 . S
C1332 C1334 1.419 . S
C1333 C1328 1.425 . S
C1333 C1330 1.409 . S
C1333 C1331 1.415 . S
C1334 H1324 0.930 . S
C1334 C1332 1.419 . S
C1334 C1335 1.362 . S
C1335 H1325 0.930 . S
C1335 C1328 1.409 . S
C1335 C1334 1.362 . S
H1336 C1342 0.930 . S
H1337 C1345 0.930 . S
H1338 C1346 0.930 . S
H1339 C1347 0.930 . S
H1340 C1350 0.930 . S
H1341 C1351 0.930 . S
C1342 H1336 0.930 . S
C1342 C1343 1.355 . S
C1342 C1344 1.415 . S
C1343 C1342 1.355 . S
C1343 C1345 1.419 . S
C1344 C1342 1.415 . S
C1344 C1349 1.425 . S
C1344 C1351 1.409 . S
C1345 H1337 0.930 . S
C1345 C1343 1.419 . S
C1345 C1346 1.362 . S
C1346 H1338 0.930 . S
C1346 C1345 1.362 . S
C1346 C1349 1.409 . S
C1347 H1339 0.930 . S
C1347 C1348 1.355 . S
C1347 C1349 1.415 . S
C1348 C1347 1.355 . S
C1348 C1350 1.419 . S
C1349 C1344 1.425 . S
C1349 C1346 1.409 . S
C1349 C1347 1.415 . S
C1350 H1340 0.930 . S
C1350 C1348 1.419 . S
C1350 C1351 1.362 . S
C1351 H1341 0.930 . S
C1351 C1344 1.409 . S
C1351 C1350 1.362 . S
H1352 C1358 0.930 . S
H1353 C1361 0.930 . S
H1354 C1362 0.930 . S
H1355 C1363 0.930 . S
H1356 C1366 0.930 . S
H1357 C1367 0.930 . S
C1358 H1352 0.930 . S
C1358 C1359 1.355 . S
C1358 C1360 1.415 . S
C1359 C1358 1.355 . S
C1359 C1361 1.419 . S
C1360 C1358 1.415 . S
C1360 C1365 1.425 . S
C1360 C1367 1.409 . S
C1361 H1353 0.930 . S
C1361 C1359 1.419 . S
C1361 C1362 1.362 . S
C1362 H1354 0.930 . S
C1362 C1361 1.362 . S
C1362 C1365 1.409 . S
C1363 H1355 0.930 . S
C1363 C1364 1.355 . S
C1363 C1365 1.415 . S
C1364 C1363 1.355 . S
C1364 C1366 1.419 . S
C1365 C1360 1.425 . S
C1365 C1362 1.409 . S
C1365 C1363 1.415 . S
C1366 H1356 0.930 . S
C1366 C1364 1.419 . S
C1366 C1367 1.362 . S
C1367 H1357 0.930 . S
C1367 C1360 1.409 . S
C1367 C1366 1.362 . S
H1368 C1374 0.930 . S
H1369 C1377 0.930 . S
H1370 C1378 0.930 . S
H1371 C1379 0.930 . S
H1372 C1382 0.930 . S
H1373 C1383 0.930 . S
C1374 H1368 0.930 . S
C1374 C1375 1.355 . S
C1374 C1376 1.415 . S
C1375 C1374 1.355 . S
C1375 C1377 1.419 . S
C1376 C1374 1.415 . S
C1376 C1381 1.425 . S
C1376 C1383 1.409 . S
C1377 H1369 0.930 . S
C1377 C1375 1.419 . S
C1377 C1378 1.362 . S
C1378 H1370 0.930 . S
C1378 C1377 1.362 . S
C1378 C1381 1.409 . S
C1379 H1371 0.930 . S
C1379 C1380 1.355 . S
C1379 C1381 1.415 . S
C1380 C1379 1.355 . S
C1380 C1382 1.419 . S
C1381 C1376 1.425 . S
C1381 C1378 1.409 . S
C1381 C1379 1.415 . S
C1382 H1372 0.930 . S
C1382 C1380 1.419 . S
C1382 C1383 1.362 . S
C1383 H1373 0.930 . S
C1383 C1376 1.409 . S
C1383 C1382 1.362 . S
H1384 C1390 0.930 . S
H1385 C1393 0.930 . S
H1386 C1394 0.930 . S
H1387 C1395 0.930 . S
H1388 C1398 0.930 . S
H1389 C1399 0.930 . S
C1390 H1384 0.930 . S
C1390 C1391 1.355 . S
C1390 C1392 1.415 . S
C1391 C1390 1.355 . S
C1391 C1393 1.419 . S
C1392 C1390 1.415 . S
C1392 C1397 1.425 . S
C1392 C1399 1.409 . S
C1393 H1385 0.930 . S
C1393 C1391 1.419 . S
C1393 C1394 1.362 . S
C1394 H1386 0.930 . S
C1394 C1393 1.362 . S
C1394 C1397 1.409 . S
C1395 H1387 0.930 . S
C1395 C1396 1.355 . S
C1395 C1397 1.415 . S
C1396 C1395 1.355 . S
C1396 C1398 1.419 . S
C1397 C1392 1.425 . S
C1397 C1394 1.409 . S
C1397 C1395 1.415 . S
C1398 H1388 0.930 . S
C1398 C1396 1.419 . S
C1398 C1399 1.362 . S
C1399 H1389 0.930 . S
C1399 C1392 1.409 . S
C1399 C1398 1.362 . S
H1400 C1406 0.930 . S
H1401 C1409 0.930 . S
H1402 C1410 0.930 . S
H1403 C1411 0.930 . S
H1404 C1414 0.930 . S
H1405 C1415 0.930 . S
C1406 H1400 0.930 . S
C1406 C1407 1.355 1_655 S
C1406 C1408 1.415 . S
C1407 C1406 1.355 1_455 S
C1407 C1409 1.419 . S
C1408 C1406 1.415 . S
C1408 C1413 1.425 1_655 S
C1408 C1415 1.409 . S
C1409 H1401 0.930 . S
C1409 C1407 1.419 . S
C1409 C1410 1.362 . S
C1410 H1402 0.930 . S
C1410 C1409 1.362 . S
C1410 C1413 1.409 . S
C1411 H1403 0.930 . S
C1411 C1412 1.355 1_455 S
C1411 C1413 1.415 . S
C1412 C1411 1.355 1_655 S
C1412 C1414 1.419 . S
C1413 C1408 1.425 1_455 S
C1413 C1410 1.409 . S
C1413 C1411 1.415 . S
C1414 H1404 0.930 . S
C1414 C1412 1.419 . S
C1414 C1415 1.362 . S
C1415 H1405 0.930 . S
C1415 C1408 1.409 . S
C1415 C1414 1.362 . S
H1416 C1422 0.930 . S
H1417 C1425 0.930 . S
H1418 C1426 0.930 . S
H1419 C1427 0.930 . S
H1420 C1430 0.930 . S
H1421 C1431 0.930 . S
C1422 H1416 0.930 . S
C1422 C1423 1.355 . S
C1422 C1424 1.415 . S
C1423 C1422 1.355 . S
C1423 C1425 1.419 . S
C1424 C1422 1.415 . S
C1424 C1429 1.425 . S
C1424 C1431 1.409 . S
C1425 H1417 0.930 . S
C1425 C1423 1.419 . S
C1425 C1426 1.362 . S
C1426 H1418 0.930 . S
C1426 C1425 1.362 . S
C1426 C1429 1.409 . S
C1427 H1419 0.930 . S
C1427 C1428 1.355 . S
C1427 C1429 1.415 . S
C1428 C1427 1.355 . S
C1428 C1430 1.419 . S
C1429 C1424 1.425 . S
C1429 C1426 1.409 . S
C1429 C1427 1.415 . S
C1430 H1420 0.930 . S
C1430 C1428 1.419 . S
C1430 C1431 1.362 . S
C1431 H1421 0.930 . S
C1431 C1424 1.409 . S
C1431 C1430 1.362 . S
H1432 C1438 0.930 . S
H1433 C1441 0.930 . S
H1434 C1442 0.930 . S
H1435 C1443 0.930 . S
H1436 C1446 0.930 . S
H1437 C1447 0.930 . S
C1438 H1432 0.930 . S
C1438 C1439 1.355 . S
C1438 C1440 1.415 . S
C1439 C1438 1.355 . S
C1439 C1441 1.419 . S
C1440 C1438 1.415 . S
C1440 C1445 1.425 . S
C1440 C1447 1.409 1_556 S
C1441 H1433 0.930 . S
C1441 C1439 1.419 . S
C1441 C1442 1.362 . S
C1442 H1434 0.930 . S
C1442 C1441 1.362 . S
C1442 C1445 1.409 . S
C1443 H1435 0.930 . S
C1443 C1444 1.355 . S
C1443 C1445 1.415 1_554 S
C1444 C1443 1.355 . S
C1444 C1446 1.419 . S
C1445 C1440 1.425 . S
C1445 C1442 1.409 . S
C1445 C1443 1.415 1_556 S
C1446 H1436 0.930 . S
C1446 C1444 1.419 . S
C1446 C1447 1.362 . S
C1447 H1437 0.930 . S
C1447 C1440 1.409 1_554 S
C1447 C1446 1.362 . S
H1448 C1454 0.934 . S
H1449 C1457 0.930 . S
H1450 C1458 0.930 . S
H1451 C1459 0.930 . S
H1452 C1462 0.930 . S
H1453 C1463 0.930 . S
C1454 H1448 0.934 . S
C1454 C1455 1.378 . S
C1454 C1456 1.388 1_455 S
C1455 C1454 1.378 . S
C1455 C1457 1.419 . S
C1456 C1454 1.388 1_655 S
C1456 C1461 1.425 . S
C1456 C1463 1.409 . S
C1457 H1449 0.930 . S
C1457 C1455 1.419 . S
C1457 C1458 1.362 1_455 S
C1458 H1450 0.930 . S
C1458 C1457 1.362 1_655 S
C1458 C1461 1.409 . S
C1459 H1451 0.930 . S
C1459 C1460 1.355 . S
C1459 C1461 1.415 . S
C1460 C1459 1.355 . S
C1460 C1462 1.419 . S
C1461 C1456 1.425 . S
C1461 C1458 1.409 . S
C1461 C1459 1.415 . S
C1462 H1452 0.930 . S
C1462 C1460 1.419 . S
C1462 C1463 1.362 . S
C1463 H1453 0.930 . S
C1463 C1456 1.409 . S
C1463 C1462 1.362 . S
H1464 C1470 0.930 . S
H1465 C1473 0.930 . S
H1466 C1474 0.930 . S
H1467 C1475 0.930 . S
H1468 C1478 0.930 . S
H1469 C1479 0.930 . S
C1470 H1464 0.930 . S
C1470 C1471 1.355 . S
C1470 C1472 1.415 . S
C1471 C1470 1.355 . S
C1471 C1473 1.419 . S
C1472 C1470 1.415 . S
C1472 C1477 1.425 . S
C1472 C1479 1.409 . S
C1473 H1465 0.930 . S
C1473 C1471 1.419 . S
C1473 C1474 1.362 . S
C1474 H1466 0.930 . S
C1474 C1473 1.362 . S
C1474 C1477 1.409 . S
C1475 H1467 0.930 . S
C1475 C1476 1.355 . S
C1475 C1477 1.415 . S
C1476 C1475 1.355 . S
C1476 C1478 1.419 . S
C1477 C1472 1.425 . S
C1477 C1474 1.409 . S
C1477 C1475 1.415 . S
C1478 H1468 0.930 . S
C1478 C1476 1.419 . S
C1478 C1479 1.362 . S
C1479 H1469 0.930 . S
C1479 C1472 1.409 . S
C1479 C1478 1.362 . S
H1480 C1486 0.930 . S
H1481 C1489 0.930 . S
H1482 C1490 0.930 . S
H1483 C1491 0.930 . S
H1484 C1494 0.930 . S
H1485 C1495 0.930 . S
C1486 H1480 0.930 . S
C1486 C1487 1.355 . S
C1486 C1488 1.415 . S
C1487 C1486 1.355 . S
C1487 C1489 1.419 . S
C1488 C1486 1.415 . S
C1488 C1493 1.425 . S
C1488 C1495 1.409 . S
C1489 H1481 0.930 . S
C1489 C1487 1.419 . S
C1489 C1490 1.362 . S
C1490 H1482 0.930 . S
C1490 C1489 1.362 . S
C1490 C1493 1.409 . S
C1491 H1483 0.930 . S
C1491 C1492 1.355 . S
C1491 C1493 1.415 . S
C1492 C1491 1.355 . S
C1492 C1494 1.419 . S
C1493 C1488 1.425 . S
C1493 C1490 1.409 . S
C1493 C1491 1.415 . S
C1494 H1484 0.930 . S
C1494 C1492 1.419 . S
C1494 C1495 1.362 . S
C1495 H1485 0.930 . S
C1495 C1488 1.409 . S
C1495 C1494 1.362 . S
H1496 C1502 0.930 . S
H1497 C1505 0.930 . S
H1498 C1506 0.930 . S
H1499 C1507 0.930 . S
H1500 C1510 0.930 . S
H1501 C1511 0.930 . S
C1502 H1496 0.930 . S
C1502 C1503 1.355 . S
C1502 C1504 1.415 . S
C1503 C1502 1.355 . S
C1503 C1505 1.419 . S
C1504 C1502 1.415 . S
C1504 C1509 1.425 . S
C1504 C1511 1.409 . S
C1505 H1497 0.930 . S
C1505 C1503 1.419 . S
C1505 C1506 1.362 . S
C1506 H1498 0.930 . S
C1506 C1505 1.362 . S
C1506 C1509 1.409 . S
C1507 H1499 0.930 . S
C1507 C1508 1.355 . S
C1507 C1509 1.415 . S
C1508 C1507 1.355 . S
C1508 C1510 1.419 . S
C1509 C1504 1.425 . S
C1509 C1506 1.409 . S
C1509 C1507 1.415 . S
C1510 H1500 0.930 . S
C1510 C1508 1.419 . S
C1510 C1511 1.362 . S
C1511 H1501 0.930 . S
C1511 C1504 1.409 . S
C1511 C1510 1.362 . S
H1512 C1518 0.930 . S
H1513 C1521 0.930 . S
H1514 C1522 0.930 . S
H1515 C1523 0.930 . S
H1516 C1526 0.930 . S
H1517 C1527 0.930 . S
C1518 H1512 0.930 . S
C1518 C1519 1.355 . S
C1518 C1520 1.415 . S
C1519 C1518 1.355 . S
C1519 C1521 1.419 . S
C1520 C1518 1.415 . S
C1520 C1525 1.425 . S
C1520 C1527 1.409 . S
C1521 H1513 0.930 . S
C1521 C1519 1.419 . S
C1521 C1522 1.362 . S
C1522 H1514 0.930 . S
C1522 C1521 1.362 . S
C1522 C1525 1.409 . S
C1523 H1515 0.930 . S
C1523 C1524 1.355 . S
C1523 C1525 1.415 . S
C1524 C1523 1.355 . S
C1524 C1526 1.419 . S
C1525 C1520 1.425 . S
C1525 C1522 1.409 . S
C1525 C1523 1.415 . S
C1526 H1516 0.930 . S
C1526 C1524 1.419 . S
C1526 C1527 1.362 . S
C1527 H1517 0.930 . S
C1527 C1520 1.409 . S
C1527 C1526 1.362 . S
H1528 C1534 0.930 . S
H1529 C1537 0.930 . S
H1530 C1538 0.930 . S
H1531 C1539 0.930 . S
H1532 C1542 0.930 1_565 S
H1533 C1543 0.930 1_565 S
C1534 H1528 0.930 . S
C1534 C1535 1.355 . S
C1534 C1536 1.415 . S
C1535 C1534 1.355 . S
C1535 C1537 1.419 . S
C1536 C1534 1.415 . S
C1536 C1541 1.425 . S
C1536 C1543 1.409 . S
C1537 H1529 0.930 . S
C1537 C1535 1.419 . S
C1537 C1538 1.362 . S
C1538 H1530 0.930 . S
C1538 C1537 1.362 . S
C1538 C1541 1.409 . S
C1539 H1531 0.930 . S
C1539 C1540 1.355 . S
C1539 C1541 1.415 . S
C1540 C1539 1.355 . S
C1540 C1542 1.419 . S
C1541 C1536 1.425 . S
C1541 C1538 1.409 . S
C1541 C1539 1.415 . S
C1542 H1532 0.930 1_545 S
C1542 C1540 1.419 . S
C1542 C1543 1.362 . S
C1543 H1533 0.930 1_545 S
C1543 C1536 1.409 . S
C1543 C1542 1.362 . S
H1544 C1550 0.930 . S
H1545 C1553 0.930 . S
H1546 C1554 0.930 . S
H1547 C1555 0.930 . S
H1548 C1558 0.930 . S
H1549 C1559 0.930 . S
C1550 H1544 0.930 . S
C1550 C1551 1.355 . S
C1550 C1552 1.415 . S
C1551 C1550 1.355 . S
C1551 C1553 1.419 . S
C1552 C1550 1.415 . S
C1552 C1557 1.425 . S
C1552 C1559 1.409 . S
C1553 H1545 0.930 . S
C1553 C1551 1.419 . S
C1553 C1554 1.362 . S
C1554 H1546 0.930 . S
C1554 C1553 1.362 . S
C1554 C1557 1.409 . S
C1555 H1547 0.930 . S
C1555 C1556 1.355 . S
C1555 C1557 1.415 . S
C1556 C1555 1.355 . S
C1556 C1558 1.419 . S
C1557 C1552 1.425 . S
C1557 C1554 1.409 . S
C1557 C1555 1.415 . S
C1558 H1548 0.930 . S
C1558 C1556 1.419 . S
C1558 C1559 1.362 . S
C1559 H1549 0.930 . S
C1559 C1552 1.409 . S
C1559 C1558 1.362 . S
H1560 C1566 0.930 . S
H1561 C1569 0.930 . S
H1562 C1570 0.930 . S
H1563 C1571 0.930 . S
H1564 C1574 0.930 . S
H1565 C1575 0.930 . S
C1566 H1560 0.930 . S
C1566 C1567 1.355 . S
C1566 C1568 1.415 . S
C1567 C1566 1.355 . S
C1567 C1569 1.419 1_545 S
C1568 C1566 1.415 . S
C1568 C1573 1.425 . S
C1568 C1575 1.409 . S
C1569 H1561 0.930 . S
C1569 C1567 1.419 1_565 S
C1569 C1570 1.362 . S
C1570 H1562 0.930 . S
C1570 C1569 1.362 . S
C1570 C1573 1.409 1_565 S
C1571 H1563 0.930 . S
C1571 C1572 1.355 1_565 S
C1571 C1573 1.415 1_565 S
C1572 C1571 1.355 1_545 S
C1572 C1574 1.419 . S
C1573 C1568 1.425 . S
C1573 C1570 1.409 1_545 S
C1573 C1571 1.415 1_545 S
C1574 H1564 0.930 . S
C1574 C1572 1.419 . S
C1574 C1575 1.362 . S
C1575 H1565 0.930 . S
C1575 C1568 1.409 . S
C1575 C1574 1.362 . S
H1576 C1582 0.930 . S
H1577 C1585 0.930 . S
H1578 C1586 0.930 . S
H1579 C1587 0.930 . S
H1580 C1590 0.930 . S
H1581 C1591 0.930 . S
C1582 H1576 0.930 . S
C1582 C1583 1.355 . S
C1582 C1584 1.415 . S
C1583 C1582 1.355 . S
C1583 C1585 1.419 . S
C1584 C1582 1.415 . S
C1584 C1589 1.425 . S
C1584 C1591 1.409 . S
C1585 H1577 0.930 . S
C1585 C1583 1.419 . S
C1585 C1586 1.362 . S
C1586 H1578 0.930 . S
C1586 C1585 1.362 . S
C1586 C1589 1.409 . S
C1587 H1579 0.930 . S
C1587 C1588 1.355 . S
C1587 C1589 1.415 . S
C1588 C1587 1.355 . S
C1588 C1590 1.419 . S
C1589 C1584 1.425 . S
C1589 C1586 1.409 . S
C1589 C1587 1.415 . S
C1590 H1580 0.930 . S
C1590 C1588 1.419 . S
C1590 C1591 1.362 . S
C1591 H1581 0.930 . S
C1591 C1584 1.409 . S
C1591 C1590 1.362 . S
H1592 C1598 0.930 . S
H1593 C1601 0.930 . S
H1594 C1602 0.930 . S
H1595 C1603 0.930 . S
H1596 C1606 0.930 . S
H1597 C1607 0.930 . S
C1598 H1592 0.930 . S
C1598 C1599 1.355 . S
C1598 C1600 1.415 . S
C1599 C1598 1.355 . S
C1599 C1601 1.419 . S
C1600 C1598 1.415 . S
C1600 C1605 1.425 . S
C1600 C1607 1.409 . S
C1601 H1593 0.930 . S
C1601 C1599 1.419 . S
C1601 C1602 1.362 . S
C1602 H1594 0.930 . S
C1602 C1601 1.362 . S
C1602 C1605 1.409 . S
C1603 H1595 0.930 . S
C1603 C1604 1.355 . S
C1603 C1605 1.415 . S
C1604 C1603 1.355 . S
C1604 C1606 1.419 . S
C1605 C1600 1.425 . S
C1605 C1602 1.409 . S
C1605 C1603 1.415 . S
C1606 H1596 0.930 . S
C1606 C1604 1.419 . S
C1606 C1607 1.362 . S
C1607 H1597 0.930 . S
C1607 C1600 1.409 . S
C1607 C1606 1.362 . S
H1608 C1614 0.930 . S
H1609 C1617 0.930 . S
H1610 C1618 0.930 . S
H1611 C1619 0.930 . S
H1612 C1622 0.930 . S
H1613 C1623 0.930 . S
C1614 H1608 0.930 . S
C1614 C1615 1.355 . S
C1614 C1616 1.415 . S
C1615 C1614 1.355 . S
C1615 C1617 1.419 . S
C1616 C1614 1.415 . S
C1616 C1621 1.425 . S
C1616 C1623 1.409 . S
C1617 H1609 0.930 . S
C1617 C1615 1.419 . S
C1617 C1618 1.362 . S
C1618 H1610 0.930 . S
C1618 C1617 1.362 . S
C1618 C1621 1.409 . S
C1619 H1611 0.930 . S
C1619 C1620 1.355 . S
C1619 C1621 1.415 . S
C1620 C1619 1.355 . S
C1620 C1622 1.419 . S
C1621 C1616 1.425 . S
C1621 C1618 1.409 . S
C1621 C1619 1.415 . S
C1622 H1612 0.930 . S
C1622 C1620 1.419 . S
C1622 C1623 1.362 . S
C1623 H1613 0.930 . S
C1623 C1616 1.409 . S
C1623 C1622 1.362 . S
H1624 C1630 0.930 . S
H1625 C1633 0.930 . S
H1626 C1634 0.930 . S
H1627 C1635 0.930 . S
H1628 C1638 0.930 . S
H1629 C1639 0.930 . S
C1630 H1624 0.930 . S
C1630 C1631 1.355 . S
C1630 C1632 1.415 . S
C1631 C1630 1.355 . S
C1631 C1633 1.419 . S
C1632 C1630 1.415 . S
C1632 C1637 1.425 . S
C1632 C1639 1.409 . S
C1633 H1625 0.930 . S
C1633 C1631 1.419 . S
C1633 C1634 1.362 . S
C1634 H1626 0.930 . S
C1634 C1633 1.362 . S
C1634 C1637 1.409 . S
C1635 H1627 0.930 . S
C1635 C1636 1.355 . S
C1635 C1637 1.415 . S
C1636 C1635 1.355 . S
C1636 C1638 1.419 . S
C1637 C1632 1.425 . S
C1637 C1634 1.409 . S
C1637 C1635 1.415 . S
C1638 H1628 0.930 . S
C1638 C1636 1.419 . S
C1638 C1639 1.362 . S
C1639 H1629 0.930 . S
C1639 C1632 1.409 . S
C1639 C1638 1.362 . S
H1640 C1646 0.930 . S
H1641 C1649 0.930 . S
H1642 C1650 0.930 . S
H1643 C1651 0.930 . S
H1644 C1654 0.930 . S
H1645 C1655 0.930 . S
C1646 H1640 0.930 . S
C1646 C1647 1.355 . S
C1646 C1648 1.415 . S
C1647 C1646 1.355 . S
C1647 C1649 1.419 . S
C1648 C1646 1.415 . S
C1648 C1653 1.425 . S
C1648 C1655 1.409 . S
C1649 H1641 0.930 . S
C1649 C1647 1.419 . S
C1649 C1650 1.362 . S
C1650 H1642 0.930 . S
C1650 C1649 1.362 . S
C1650 C1653 1.409 . S
C1651 H1643 0.930 . S
C1651 C1652 1.355 . S
C1651 C1653 1.415 . S
C1652 C1651 1.355 . S
C1652 C1654 1.419 . S
C1653 C1648 1.425 . S
C1653 C1650 1.409 . S
C1653 C1651 1.415 . S
C1654 H1644 0.930 . S
C1654 C1652 1.419 . S
C1654 C1655 1.362 . S
C1655 H1645 0.930 . S
C1655 C1648 1.409 . S
C1655 C1654 1.362 . S
H1656 C1662 0.930 . S
H1657 C1665 0.930 . S
H1658 C1666 0.930 . S
H1659 C1667 0.930 . S
H1660 C1670 0.930 . S
H1661 C1671 0.930 . S
C1662 H1656 0.930 . S
C1662 C1663 1.355 . S
C1662 C1664 1.415 . S
C1663 C1662 1.355 . S
C1663 C1665 1.419 . S
C1664 C1662 1.415 . S
C1664 C1669 1.425 . S
C1664 C1671 1.409 . S
C1665 H1657 0.930 . S
C1665 C1663 1.419 . S
C1665 C1666 1.362 . S
C1666 H1658 0.930 . S
C1666 C1665 1.362 . S
C1666 C1669 1.409 . S
C1667 H1659 0.930 . S
C1667 C1668 1.355 . S
C1667 C1669 1.415 . S
C1668 C1667 1.355 . S
C1668 C1670 1.419 . S
C1669 C1664 1.425 . S
C1669 C1666 1.409 . S
C1669 C1667 1.415 . S
C1670 H1660 0.930 . S
C1670 C1668 1.419 . S
C1670 C1671 1.362 . S
C1671 H1661 0.930 . S
C1671 C1664 1.409 . S
C1671 C1670 1.362 . S
H1672 C1678 0.930 . S
H1673 C1681 0.930 . S
H1674 C1682 0.930 . S
H1675 C1683 0.930 . S
H1676 C1686 0.930 . S
H1677 C1687 0.930 . S
C1678 H1672 0.930 . S
C1678 C1679 1.355 . S
C1678 C1680 1.415 . S
C1679 C1678 1.355 . S
C1679 C1681 1.419 . S
C1680 C1678 1.415 . S
C1680 C1685 1.425 . S
C1680 C1687 1.409 . S
C1681 H1673 0.930 . S
C1681 C1679 1.419 . S
C1681 C1682 1.362 . S
C1682 H1674 0.930 . S
C1682 C1681 1.362 . S
C1682 C1685 1.409 . S
C1683 H1675 0.930 . S
C1683 C1684 1.355 . S
C1683 C1685 1.415 . S
C1684 C1683 1.355 . S
C1684 C1686 1.419 . S
C1685 C1680 1.425 . S
C1685 C1682 1.409 . S
C1685 C1683 1.415 . S
C1686 H1676 0.930 . S
C1686 C1684 1.419 . S
C1686 C1687 1.362 . S
C1687 H1677 0.930 . S
C1687 C1680 1.409 . S
C1687 C1686 1.362 . S
H1688 C1694 0.930 . S
H1689 C1697 0.930 . S
H1690 C1698 0.930 . S
H1691 C1699 0.930 . S
H1692 C1702 0.930 . S
H1693 C1703 0.930 . S
C1694 H1688 0.930 . S
C1694 C1695 1.355 . S
C1694 C1696 1.415 . S
C1695 C1694 1.355 . S
C1695 C1697 1.419 . S
C1696 C1694 1.415 . S
C1696 C1701 1.425 . S
C1696 C1703 1.409 . S
C1697 H1689 0.930 . S
C1697 C1695 1.419 . S
C1697 C1698 1.362 . S
C1698 H1690 0.930 . S
C1698 C1697 1.362 . S
C1698 C1701 1.409 . S
C1699 H1691 0.930 . S
C1699 C1700 1.355 . S
C1699 C1701 1.415 . S
C1700 C1699 1.355 . S
C1700 C1702 1.419 . S
C1701 C1696 1.425 . S
C1701 C1698 1.409 . S
C1701 C1699 1.415 . S
C1702 H1692 0.930 . S
C1702 C1700 1.419 . S
C1702 C1703 1.362 . S
C1703 H1693 0.930 . S
C1703 C1696 1.409 . S
C1703 C1702 1.362 . S
H1704 C1710 0.930 . S
H1705 C1713 0.930 . S
H1706 C1714 0.930 . S
H1707 C1715 0.930 . S
H1708 C1718 0.930 . S
H1709 C1719 0.930 . S
C1710 H1704 0.930 . S
C1710 C1711 1.355 . S
C1710 C1712 1.415 . S
C1711 C1710 1.355 . S
C1711 C1713 1.419 . S
C1712 C1710 1.415 . S
C1712 C1717 1.425 . S
C1712 C1719 1.409 . S
C1713 H1705 0.930 . S
C1713 C1711 1.419 . S
C1713 C1714 1.362 . S
C1714 H1706 0.930 . S
C1714 C1713 1.362 . S
C1714 C1717 1.409 . S
C1715 H1707 0.930 . S
C1715 C1716 1.355 . S
C1715 C1717 1.415 . S
C1716 C1715 1.355 . S
C1716 C1718 1.419 . S
C1717 C1712 1.425 . S
C1717 C1714 1.409 . S
C1717 C1715 1.415 . S
C1718 H1708 0.930 . S
C1718 C1716 1.419 . S
C1718 C1719 1.362 . S
C1719 H1709 0.930 . S
C1719 C1712 1.409 . S
C1719 C1718 1.362 . S
H1720 C1726 0.930 . S
H1721 C1729 0.930 . S
H1722 C1730 0.930 . S
H1723 C1731 0.930 . S
H1724 C1734 0.930 . S
H1725 C1735 0.930 . S
C1726 H1720 0.930 . S
C1726 C1727 1.355 . S
C1726 C1728 1.415 . S
C1727 C1726 1.355 . S
C1727 C1729 1.419 . S
C1728 C1726 1.415 . S
C1728 C1733 1.425 . S
C1728 C1735 1.409 . S
C1729 H1721 0.930 . S
C1729 C1727 1.419 . S
C1729 C1730 1.362 . S
C1730 H1722 0.930 . S
C1730 C1729 1.362 . S
C1730 C1733 1.409 . S
C1731 H1723 0.930 . S
C1731 C1732 1.355 . S
C1731 C1733 1.415 . S
C1732 C1731 1.355 . S
C1732 C1734 1.419 . S
C1733 C1728 1.425 . S
C1733 C1730 1.409 . S
C1733 C1731 1.415 . S
C1734 H1724 0.930 . S
C1734 C1732 1.419 . S
C1734 C1735 1.362 . S
C1735 H1725 0.930 . S
C1735 C1728 1.409 . S
C1735 C1734 1.362 . S
H1736 C1742 0.930 . S
H1737 C1745 0.930 . S
H1738 C1746 0.930 . S
H1739 C1747 0.930 . S
H1740 C1750 0.930 . S
H1741 C1751 0.930 . S
C1742 H1736 0.930 . S
C1742 C1743 1.355 . S
C1742 C1744 1.415 . S
C1743 C1742 1.355 . S
C1743 C1745 1.419 . S
C1744 C1742 1.415 . S
C1744 C1749 1.425 . S
C1744 C1751 1.409 . S
C1745 H1737 0.930 . S
C1745 C1743 1.419 . S
C1745 C1746 1.362 . S
C1746 H1738 0.930 . S
C1746 C1745 1.362 . S
C1746 C1749 1.409 . S
C1747 H1739 0.930 . S
C1747 C1748 1.355 . S
C1747 C1749 1.415 . S
C1748 C1747 1.355 . S
C1748 C1750 1.419 . S
C1749 C1744 1.425 . S
C1749 C1746 1.409 . S
C1749 C1747 1.415 . S
C1750 H1740 0.930 . S
C1750 C1748 1.419 . S
C1750 C1751 1.362 . S
C1751 H1741 0.930 . S
C1751 C1744 1.409 . S
C1751 C1750 1.362 . S
H1752 C1758 0.930 . S
H1753 C1761 0.930 1_655 S
H1754 C1762 0.930 1_655 S
H1755 C1763 0.932 . S
H1756 C1766 0.930 . S
H1757 C1767 0.930 . S
C1758 H1752 0.930 . S
C1758 C1759 1.355 . S
C1758 C1760 1.415 . S
C1759 C1758 1.355 . S
C1759 C1761 1.419 1_554 S
C1760 C1758 1.415 . S
C1760 C1765 1.425 . S
C1760 C1767 1.409 . S
C1761 H1753 0.930 1_455 S
C1761 C1759 1.419 1_556 S
C1761 C1762 1.362 . S
C1762 H1754 0.930 1_455 S
C1762 C1761 1.362 . S
C1762 C1765 1.409 1_556 S
C1763 H1755 0.932 . S
C1763 C1764 1.355 . S
C1763 C1765 1.415 . S
C1764 C1763 1.355 . S
C1764 C1766 1.419 . S
C1765 C1760 1.425 . S
C1765 C1762 1.409 1_554 S
C1765 C1763 1.415 . S
C1766 H1756 0.930 . S
C1766 C1764 1.419 . S
C1766 C1767 1.362 . S
C1767 H1757 0.930 . S
C1767 C1760 1.409 . S
C1767 C1766 1.362 . S
H1768 C1774 0.930 . S
H1769 C1777 0.930 . S
H1770 C1778 0.930 . S
H1771 C1779 0.930 . S
H1772 C1782 0.930 . S
H1773 C1783 0.930 . S
C1774 H1768 0.930 . S
C1774 C1775 1.355 . S
C1774 C1776 1.415 . S
C1775 C1774 1.355 . S
C1775 C1777 1.419 1_655 S
C1776 C1774 1.415 . S
C1776 C1781 1.425 . S
C1776 C1783 1.409 . S
C1777 H1769 0.930 . S
C1777 C1775 1.419 1_455 S
C1777 C1778 1.362 1_455 S
C1778 H1770 0.930 . S
C1778 C1777 1.362 1_655 S
C1778 C1781 1.409 . S
C1779 H1771 0.930 . S
C1779 C1780 1.355 . S
C1779 C1781 1.415 . S
C1780 C1779 1.355 . S
C1780 C1782 1.419 . S
C1781 C1776 1.425 . S
C1781 C1778 1.409 . S
C1781 C1779 1.415 . S
C1782 H1772 0.930 . S
C1782 C1780 1.419 . S
C1782 C1783 1.362 . S
C1783 H1773 0.930 . S
C1783 C1776 1.409 . S
C1783 C1782 1.362 . S
H1784 C1790 0.930 . S
H1785 C1793 0.930 . S
H1786 C1794 0.930 . S
H1787 C1795 0.930 . S
H1788 C1798 0.930 . S
H1789 C1799 0.930 . S
C1790 H1784 0.930 . S
C1790 C1791 1.355 . S
C1790 C1792 1.415 . S
C1791 C1790 1.355 . S
C1791 C1793 1.419 . S
C1792 C1790 1.415 . S
C1792 C1797 1.425 . S
C1792 C1799 1.409 . S
C1793 H1785 0.930 . S
C1793 C1791 1.419 . S
C1793 C1794 1.362 . S
C1794 H1786 0.930 . S
C1794 C1793 1.362 . S
C1794 C1797 1.409 . S
C1795 H1787 0.930 . S
C1795 C1796 1.355 . S
C1795 C1797 1.415 . S
C1796 C1795 1.355 . S
C1796 C1798 1.419 . S
C1797 C1792 1.425 . S
C1797 C1794 1.409 . S
C1797 C1795 1.415 . S
C1798 H1788 0.930 . S
C1798 C1796 1.419 . S
C1798 C1799 1.362 . S
C1799 H1789 0.930 . S
C1799 C1792 1.409 . S
C1799 C1798 1.362 . S
H1800 C1806 0.930 . S
H1801 C1809 0.930 . S
H1802 C1810 0.930 . S
H1803 C1811 0.930 . S
H1804 C1814 0.930 . S
H1805 C1815 0.930 . S
C1806 H1800 0.930 . S
C1806 C1807 1.355 . S
C1806 C1808 1.415 . S
C1807 C1806 1.355 . S
C1807 C1809 1.419 . S
C1808 C1806 1.415 . S
C1808 C1813 1.425 . S
C1808 C1815 1.409 . S
C1809 H1801 0.930 . S
C1809 C1807 1.419 . S
C1809 C1810 1.362 . S
C1810 H1802 0.930 . S
C1810 C1809 1.362 . S
C1810 C1813 1.409 . S
C1811 H1803 0.930 . S
C1811 C1812 1.355 . S
C1811 C1813 1.415 . S
C1812 C1811 1.355 . S
C1812 C1814 1.419 . S
C1813 C1808 1.425 . S
C1813 C1810 1.409 . S
C1813 C1811 1.415 . S
C1814 H1804 0.930 . S
C1814 C1812 1.419 . S
C1814 C1815 1.362 . S
C1815 H1805 0.930 . S
C1815 C1808 1.409 . S
C1815 C1814 1.362 . S
H1816 C1822 0.930 . S
H1817 C1825 0.930 . S
H1818 C1826 0.930 . S
H1819 C1827 0.930 . S
H1820 C1830 0.930 . S
H1821 C1831 0.930 . S
C1822 H1816 0.930 . S
C1822 C1823 1.355 . S
C1822 C1824 1.415 . S
C1823 C1822 1.355 . S
C1823 C1825 1.419 . S
C1824 C1822 1.415 . S
C1824 C1829 1.425 . S
C1824 C1831 1.409 . S
C1825 H1817 0.930 . S
C1825 C1823 1.419 . S
C1825 C1826 1.362 . S
C1826 H1818 0.930 . S
C1826 C1825 1.362 . S
C1826 C1829 1.409 . S
C1827 H1819 0.930 . S
C1827 C1828 1.355 . S
C1827 C1829 1.415 . S
C1828 C1827 1.355 . S
C1828 C1830 1.419 . S
C1829 C1824 1.425 . S
C1829 C1826 1.409 . S
C1829 C1827 1.415 . S
C1830 H1820 0.930 . S
C1830 C1828 1.419 . S
C1830 C1831 1.362 . S
C1831 H1821 0.930 . S
C1831 C1824 1.409 . S
C1831 C1830 1.362 . S
H1832 C1838 0.930 . S
H1833 C1841 0.930 . S
H1834 C1842 0.930 . S
H1835 C1843 0.930 . S
H1836 C1846 0.930 . S
H1837 C1847 0.930 . S
C1838 H1832 0.930 . S
C1838 C1839 1.355 . S
C1838 C1840 1.415 . S
C1839 C1838 1.355 . S
C1839 C1841 1.419 . S
C1840 C1838 1.415 . S
C1840 C1845 1.425 . S
C1840 C1847 1.409 . S
C1841 H1833 0.930 . S
C1841 C1839 1.419 . S
C1841 C1842 1.362 . S
C1842 H1834 0.930 . S
C1842 C1841 1.362 . S
C1842 C1845 1.409 . S
C1843 H1835 0.930 . S
C1843 C1844 1.355 . S
C1843 C1845 1.415 . S
C1844 C1843 1.355 . S
C1844 C1846 1.419 . S
C1845 C1840 1.425 . S
C1845 C1842 1.409 . S
C1845 C1843 1.415 . S
C1846 H1836 0.930 . S
C1846 C1844 1.419 . S
C1846 C1847 1.362 . S
C1847 H1837 0.930 . S
C1847 C1840 1.409 . S
C1847 C1846 1.362 . S
H1848 C1854 0.930 . S
H1849 C1857 0.930 . S
H1850 C1858 0.930 . S
H1851 C1859 0.930 . S
H1852 C1862 0.930 . S
H1853 C1863 0.930 . S
C1854 H1848 0.930 . S
C1854 C1855 1.355 . S
C1854 C1856 1.415 . S
C1855 C1854 1.355 . S
C1855 C1857 1.419 . S
C1856 C1854 1.415 . S
C1856 C1861 1.425 . S
C1856 C1863 1.409 . S
C1857 H1849 0.930 . S
C1857 C1855 1.419 . S
C1857 C1858 1.362 . S
C1858 H1850 0.930 . S
C1858 C1857 1.362 . S
C1858 C1861 1.409 . S
C1859 H1851 0.930 . S
C1859 C1860 1.355 . S
C1859 C1861 1.415 . S
C1860 C1859 1.355 . S
C1860 C1862 1.419 . S
C1861 C1856 1.425 . S
C1861 C1858 1.409 . S
C1861 C1859 1.415 . S
C1862 H1852 0.930 . S
C1862 C1860 1.419 . S
C1862 C1863 1.362 . S
C1863 H1853 0.930 . S
C1863 C1856 1.409 . S
C1863 C1862 1.362 . S
H1864 C1870 0.930 . S
H1865 C1873 0.930 . S
H1866 C1874 0.930 . S
H1867 C1875 0.930 . S
H1868 C1878 0.930 . S
H1869 C1879 0.930 . S
C1870 H1864 0.930 . S
C1870 C1871 1.355 . S
C1870 C1872 1.415 . S
C1871 C1870 1.355 . S
C1871 C1873 1.419 . S
C1872 C1870 1.415 . S
C1872 C1877 1.425 . S
C1872 C1879 1.409 . S
C1873 H1865 0.930 . S
C1873 C1871 1.419 . S
C1873 C1874 1.362 . S
C1874 H1866 0.930 . S
C1874 C1873 1.362 . S
C1874 C1877 1.409 . S
C1875 H1867 0.930 . S
C1875 C1876 1.355 . S
C1875 C1877 1.415 1_556 S
C1876 C1875 1.355 . S
C1876 C1878 1.419 1_556 S
C1877 C1872 1.425 . S
C1877 C1874 1.409 . S
C1877 C1875 1.415 1_554 S
C1878 H1868 0.930 . S
C1878 C1876 1.419 1_554 S
C1878 C1879 1.362 . S
C1879 H1869 0.930 . S
C1879 C1872 1.409 . S
C1879 C1878 1.362 . S
H1880 C1886 0.930 . S
H1881 C1889 0.930 . S
H1882 C1890 0.930 . S
H1883 C1891 0.930 . S
H1884 C1894 0.930 . S
H1885 C1895 0.930 . S
C1886 H1880 0.930 . S
C1886 C1887 1.355 . S
C1886 C1888 1.415 . S
C1887 C1886 1.355 . S
C1887 C1889 1.419 . S
C1888 C1886 1.415 . S
C1888 C1893 1.425 . S
C1888 C1895 1.409 . S
C1889 H1881 0.930 . S
C1889 C1887 1.419 . S
C1889 C1890 1.362 . S
C1890 H1882 0.930 . S
C1890 C1889 1.362 . S
C1890 C1893 1.409 . S
C1891 H1883 0.930 . S
C1891 C1892 1.355 . S
C1891 C1893 1.415 . S
C1892 C1891 1.355 . S
C1892 C1894 1.419 . S
C1893 C1888 1.425 . S
C1893 C1890 1.409 . S
C1893 C1891 1.415 . S
C1894 H1884 0.930 . S
C1894 C1892 1.419 . S
C1894 C1895 1.362 . S
C1895 H1885 0.930 . S
C1895 C1888 1.409 . S
C1895 C1894 1.362 . S
H1896 C1902 0.930 . S
H1897 C1905 0.930 . S
H1898 C1906 0.930 . S
H1899 C1907 0.930 . S
H1900 C1910 0.930 . S
H1901 C1911 0.930 . S
C1902 H1896 0.930 . S
C1902 C1903 1.355 . S
C1902 C1904 1.415 . S
C1903 C1902 1.355 . S
C1903 C1905 1.419 . S
C1904 C1902 1.415 . S
C1904 C1909 1.425 . S
C1904 C1911 1.409 . S
C1905 H1897 0.930 . S
C1905 C1903 1.419 . S
C1905 C1906 1.362 . S
C1906 H1898 0.930 . S
C1906 C1905 1.362 . S
C1906 C1909 1.409 . S
C1907 H1899 0.930 . S
C1907 C1908 1.355 . S
C1907 C1909 1.415 . S
C1908 C1907 1.355 . S
C1908 C1910 1.419 . S
C1909 C1904 1.425 . S
C1909 C1906 1.409 . S
C1909 C1907 1.415 . S
C1910 H1900 0.930 . S
C1910 C1908 1.419 . S
C1910 C1911 1.362 . S
C1911 H1901 0.930 . S
C1911 C1904 1.409 . S
C1911 C1910 1.362 . S
H1912 C1918 0.930 . S
H1913 C1921 0.930 . S
H1914 C1922 0.930 . S
H1915 C1923 0.930 . S
H1916 C1926 0.930 . S
H1917 C1927 0.930 . S
C1918 H1912 0.930 . S
C1918 C1919 1.355 . S
C1918 C1920 1.415 . S
C1919 C1918 1.355 . S
C1919 C1921 1.419 . S
C1920 C1918 1.415 . S
C1920 C1925 1.425 . S
C1920 C1927 1.409 . S
C1921 H1913 0.930 . S
C1921 C1919 1.419 . S
C1921 C1922 1.362 . S
C1922 H1914 0.930 . S
C1922 C1921 1.362 . S
C1922 C1925 1.409 . S
C1923 H1915 0.930 . S
C1923 C1924 1.355 . S
C1923 C1925 1.415 . S
C1924 C1923 1.355 . S
C1924 C1926 1.419 . S
C1925 C1920 1.425 . S
C1925 C1922 1.409 . S
C1925 C1923 1.415 . S
C1926 H1916 0.930 . S
C1926 C1924 1.419 . S
C1926 C1927 1.362 . S
C1927 H1917 0.930 . S
C1927 C1920 1.409 . S
C1927 C1926 1.362 . S
H1928 C1934 0.930 . S
H1929 C1937 0.930 . S
H1930 C1938 0.930 . S
H1931 C1939 0.930 . S
H1932 C1942 0.930 . S
H1933 C1943 0.930 . S
C1934 H1928 0.930 . S
C1934 C1935 1.355 . S
C1934 C1936 1.415 . S
C1935 C1934 1.355 . S
C1935 C1937 1.419 . S
C1936 C1934 1.415 . S
C1936 C1941 1.425 . S
C1936 C1943 1.409 . S
C1937 H1929 0.930 . S
C1937 C1935 1.419 . S
C1937 C1938 1.362 . S
C1938 H1930 0.930 . S
C1938 C1937 1.362 . S
C1938 C1941 1.409 . S
C1939 H1931 0.930 . S
C1939 C1940 1.355 . S
C1939 C1941 1.415 . S
C1940 C1939 1.355 . S
C1940 C1942 1.419 . S
C1941 C1936 1.425 . S
C1941 C1938 1.409 . S
C1941 C1939 1.415 . S
C1942 H1932 0.930 . S
C1942 C1940 1.419 . S
C1942 C1943 1.362 . S
C1943 H1933 0.930 . S
C1943 C1936 1.409 . S
C1943 C1942 1.362 . S
H1944 C1950 0.930 . S
H1945 C1953 0.930 . S
H1946 C1954 0.930 . S
H1947 C1955 0.930 . S
H1948 C1958 0.930 . S
H1949 C1959 0.930 . S
C1950 H1944 0.930 . S
C1950 C1951 1.355 . S
C1950 C1952 1.415 . S
C1951 C1950 1.355 . S
C1951 C1953 1.419 . S
C1952 C1950 1.415 . S
C1952 C1957 1.425 . S
C1952 C1959 1.409 . S
C1953 H1945 0.930 . S
C1953 C1951 1.419 . S
C1953 C1954 1.362 . S
C1954 H1946 0.930 . S
C1954 C1953 1.362 . S
C1954 C1957 1.409 . S
C1955 H1947 0.930 . S
C1955 C1956 1.355 . S
C1955 C1957 1.415 . S
C1956 C1955 1.355 . S
C1956 C1958 1.419 . S
C1957 C1952 1.425 . S
C1957 C1954 1.409 . S
C1957 C1955 1.415 . S
C1958 H1948 0.930 . S
C1958 C1956 1.419 . S
C1958 C1959 1.362 . S
C1959 H1949 0.930 . S
C1959 C1952 1.409 . S
C1959 C1958 1.362 . S
H1960 C1966 0.930 . S
H1961 C1969 0.930 . S
H1962 C1970 0.930 . S
H1963 C1971 0.930 . S
H1964 C1974 0.930 . S
H1965 C1975 0.930 . S
C1966 H1960 0.930 . S
C1966 C1967 1.355 . S
C1966 C1968 1.415 . S
C1967 C1966 1.355 . S
C1967 C1969 1.419 . S
C1968 C1966 1.415 . S
C1968 C1973 1.425 . S
C1968 C1975 1.409 . S
C1969 H1961 0.930 . S
C1969 C1967 1.419 . S
C1969 C1970 1.362 . S
C1970 H1962 0.930 . S
C1970 C1969 1.362 . S
C1970 C1973 1.409 . S
C1971 H1963 0.930 . S
C1971 C1972 1.355 . S
C1971 C1973 1.415 . S
C1972 C1971 1.355 . S
C1972 C1974 1.419 . S
C1973 C1968 1.425 . S
C1973 C1970 1.409 . S
C1973 C1971 1.415 . S
C1974 H1964 0.930 . S
C1974 C1972 1.419 . S
C1974 C1975 1.362 . S
C1975 H1965 0.930 . S
C1975 C1968 1.409 . S
C1975 C1974 1.362 . S
H1976 C1982 0.930 . S
H1977 C1985 0.930 . S
H1978 C1986 0.930 . S
H1979 C1987 0.930 . S
H1980 C1990 0.930 . S
H1981 C1991 0.930 . S
C1982 H1976 0.930 . S
C1982 C1983 1.355 . S
C1982 C1984 1.415 . S
C1983 C1982 1.355 . S
C1983 C1985 1.419 . S
C1984 C1982 1.415 . S
C1984 C1989 1.425 . S
C1984 C1991 1.409 . S
C1985 H1977 0.930 . S
C1985 C1983 1.419 . S
C1985 C1986 1.362 . S
C1986 H1978 0.930 . S
C1986 C1985 1.362 . S
C1986 C1989 1.409 . S
C1987 H1979 0.930 . S
C1987 C1988 1.355 . S
C1987 C1989 1.415 . S
C1988 C1987 1.355 . S
C1988 C1990 1.419 . S
C1989 C1984 1.425 . S
C1989 C1986 1.409 . S
C1989 C1987 1.415 . S
C1990 H1980 0.930 . S
C1990 C1988 1.419 . S
C1990 C1991 1.362 . S
C1991 H1981 0.930 . S
C1991 C1984 1.409 . S
C1991 C1990 1.362 . S
H1992 C1998 0.930 . S
H1993 C2001 0.930 . S
H1994 C2002 0.930 . S
H1995 C2003 0.930 . S
H1996 C2006 0.930 . S
H1997 C2007 0.930 . S
C1998 H1992 0.930 . S
C1998 C1999 1.355 . S
C1998 C2000 1.415 . S
C1999 C1998 1.355 . S
C1999 C2001 1.419 . S
C2000 C1998 1.415 . S
C2000 C2005 1.425 . S
C2000 C2007 1.409 . S
C2001 H1993 0.930 . S
C2001 C1999 1.419 . S
C2001 C2002 1.362 . S
C2002 H1994 0.930 . S
C2002 C2001 1.362 . S
C2002 C2005 1.409 . S
C2003 H1995 0.930 . S
C2003 C2004 1.355 . S
C2003 C2005 1.415 . S
C2004 C2003 1.355 . S
C2004 C2006 1.419 . S
C2005 C2000 1.425 . S
C2005 C2002 1.409 . S
C2005 C2003 1.415 . S
C2006 H1996 0.930 . S
C2006 C2004 1.419 . S
C2006 C2007 1.362 . S
C2007 H1997 0.930 . S
C2007 C2000 1.409 . S
C2007 C2006 1.362 . S
H2008 C2014 0.930 1_545 S
H2009 C2017 0.930 . S
H2010 C2018 0.930 . S
H2011 C2019 0.930 . S
H2012 C2022 0.930 . S
H2013 C2023 0.930 . S
C2014 H2008 0.930 1_565 S
C2014 C2015 1.355 . S
C2014 C2016 1.415 . S
C2015 C2014 1.355 . S
C2015 C2017 1.419 . S
C2016 C2014 1.415 . S
C2016 C2021 1.425 . S
C2016 C2023 1.409 . S
C2017 H2009 0.930 . S
C2017 C2015 1.419 . S
C2017 C2018 1.362 . S
C2018 H2010 0.930 . S
C2018 C2017 1.362 . S
C2018 C2021 1.409 . S
C2019 H2011 0.930 . S
C2019 C2020 1.355 . S
C2019 C2021 1.415 . S
C2020 C2019 1.355 . S
C2020 C2022 1.419 . S
C2021 C2016 1.425 . S
C2021 C2018 1.409 . S
C2021 C2019 1.415 . S
C2022 H2012 0.930 . S
C2022 C2020 1.419 . S
C2022 C2023 1.362 . S
C2023 H2013 0.930 . S
C2023 C2016 1.409 . S
C2023 C2022 1.362 . S
H2024 C2030 0.930 . S
H2025 C2033 0.930 . S
H2026 C2034 0.958 . S
H2027 C2035 0.930 . S
H2028 C2038 0.930 . S
H2029 C2039 0.930 . S
C2030 H2024 0.930 . S
C2030 C2031 1.355 . S
C2030 C2032 1.415 . S
C2031 C2030 1.355 . S
C2031 C2033 1.419 1_554 S
C2032 C2030 1.415 . S
C2032 C2037 1.425 . S
C2032 C2039 1.409 . S
C2033 H2025 0.930 . S
C2033 C2031 1.419 1_556 S
C2033 C2034 1.355 . S
C2034 H2026 0.958 . S
C2034 C2033 1.355 . S
C2034 C2037 1.390 1_556 S
C2035 H2027 0.930 . S
C2035 C2036 1.355 . S
C2035 C2037 1.415 . S
C2036 C2035 1.355 . S
C2036 C2038 1.419 . S
C2037 C2032 1.425 . S
C2037 C2034 1.390 1_554 S
C2037 C2035 1.415 . S
C2038 H2028 0.930 . S
C2038 C2036 1.419 . S
C2038 C2039 1.362 . S
C2039 H2029 0.930 . S
C2039 C2032 1.409 . S
C2039 C2038 1.362 . S
H2040 C2046 0.930 . S
H2041 C2049 0.930 . S
H2042 C2050 0.930 . S
H2043 C2051 0.930 . S
H2044 C2054 0.930 . S
H2045 C2055 0.930 . S
C2046 H2040 0.930 . S
C2046 C2047 1.355 . S
C2046 C2048 1.415 . S
C2047 C2046 1.355 . S
C2047 C2049 1.419 . S
C2048 C2046 1.415 . S
C2048 C2053 1.425 . S
C2048 C2055 1.409 . S
C2049 H2041 0.930 . S
C2049 C2047 1.419 . S
C2049 C2050 1.362 . S
C2050 H2042 0.930 . S
C2050 C2049 1.362 . S
C2050 C2053 1.409 . S
C2051 H2043 0.930 . S
C2051 C2052 1.355 . S
C2051 C2053 1.415 . S
C2052 C2051 1.355 . S
C2052 C2054 1.419 . S
C2053 C2048 1.425 . S
C2053 C2050 1.409 . S
C2053 C2051 1.415 . S
C2054 H2044 0.930 . S
C2054 C2052 1.419 . S
C2054 C2055 1.362 . S
C2055 H2045 0.930 . S
C2055 C2048 1.409 . S
C2055 C2054 1.362 . S
H2056 C2062 0.930 . S
H2057 C2065 0.930 . S
H2058 C2066 0.930 . S
H2059 C2067 0.930 . S
H2060 C2070 0.930 . S
H2061 C2071 0.930 . S
C2062 H2056 0.930 . S
C2062 C2063 1.355 . S
C2062 C2064 1.415 . S
C2063 C2062 1.355 . S
C2063 C2065 1.419 . S
C2064 C2062 1.415 . S
C2064 C2069 1.425 . S
C2064 C2071 1.409 . S
C2065 H2057 0.930 . S
C2065 C2063 1.419 . S
C2065 C2066 1.362 . S
C2066 H2058 0.930 . S
C2066 C2065 1.362 . S
C2066 C2069 1.409 . S
C2067 H2059 0.930 . S
C2067 C2068 1.355 . S
C2067 C2069 1.415 . S
C2068 C2067 1.355 . S
C2068 C2070 1.419 . S
C2069 C2064 1.425 . S
C2069 C2066 1.409 . S
C2069 C2067 1.415 . S
C2070 H2060 0.930 . S
C2070 C2068 1.419 . S
C2070 C2071 1.362 . S
C2071 H2061 0.930 . S
C2071 C2064 1.409 . S
C2071 C2070 1.362 . S
H2072 C2078 0.930 . S
H2073 C2081 0.930 . S
H2074 C2082 0.930 . S
H2075 C2083 0.930 . S
H2076 C2086 0.930 . S
H2077 C2087 0.930 . S
C2078 H2072 0.930 . S
C2078 C2079 1.355 . S
C2078 C2080 1.415 . S
C2079 C2078 1.355 . S
C2079 C2081 1.419 . S
C2080 C2078 1.415 . S
C2080 C2085 1.425 . S
C2080 C2087 1.409 . S
C2081 H2073 0.930 . S
C2081 C2079 1.419 . S
C2081 C2082 1.362 . S
C2082 H2074 0.930 . S
C2082 C2081 1.362 . S
C2082 C2085 1.409 . S
C2083 H2075 0.930 . S
C2083 C2084 1.355 . S
C2083 C2085 1.415 . S
C2084 C2083 1.355 . S
C2084 C2086 1.419 . S
C2085 C2080 1.425 . S
C2085 C2082 1.409 . S
C2085 C2083 1.415 . S
C2086 H2076 0.930 . S
C2086 C2084 1.419 . S
C2086 C2087 1.362 . S
C2087 H2077 0.930 . S
C2087 C2080 1.409 . S
C2087 C2086 1.362 . S
H2088 C2094 0.930 . S
H2089 C2097 0.930 . S
H2090 C2098 0.930 . S
H2091 C2099 0.930 . S
H2092 C2102 0.930 . S
H2093 C2103 0.930 . S
C2094 H2088 0.930 . S
C2094 C2095 1.355 . S
C2094 C2096 1.415 . S
C2095 C2094 1.355 . S
C2095 C2097 1.419 . S
C2096 C2094 1.415 . S
C2096 C2101 1.425 . S
C2096 C2103 1.409 . S
C2097 H2089 0.930 . S
C2097 C2095 1.419 . S
C2097 C2098 1.362 . S
C2098 H2090 0.930 . S
C2098 C2097 1.362 . S
C2098 C2101 1.409 . S
C2099 H2091 0.930 . S
C2099 C2100 1.355 . S
C2099 C2101 1.415 . S
C2100 C2099 1.355 . S
C2100 C2102 1.419 . S
C2101 C2096 1.425 . S
C2101 C2098 1.409 . S
C2101 C2099 1.415 . S
C2102 H2092 0.930 . S
C2102 C2100 1.419 . S
C2102 C2103 1.362 . S
C2103 H2093 0.930 . S
C2103 C2096 1.409 . S
C2103 C2102 1.362 . S
H2104 C2110 0.930 . S
H2105 C2113 0.930 . S
H2106 C2114 0.930 . S
H2107 C2115 0.930 . S
H2108 C2118 0.930 . S
H2109 C2119 0.930 . S
C2110 H2104 0.930 . S
C2110 C2111 1.355 . S
C2110 C2112 1.415 . S
C2111 C2110 1.355 . S
C2111 C2113 1.419 . S
C2112 C2110 1.415 . S
C2112 C2117 1.425 . S
C2112 C2119 1.409 . S
C2113 H2105 0.930 . S
C2113 C2111 1.419 . S
C2113 C2114 1.362 . S
C2114 H2106 0.930 . S
C2114 C2113 1.362 . S
C2114 C2117 1.409 . S
C2115 H2107 0.930 . S
C2115 C2116 1.355 . S
C2115 C2117 1.415 . S
C2116 C2115 1.355 . S
C2116 C2118 1.419 . S
C2117 C2112 1.425 . S
C2117 C2114 1.409 . S
C2117 C2115 1.415 . S
C2118 H2108 0.930 . S
C2118 C2116 1.419 . S
C2118 C2119 1.362 . S
C2119 H2109 0.930 . S
C2119 C2112 1.409 . S
C2119 C2118 1.362 . S
H2120 C2126 0.930 . S
H2121 C2129 0.930 . S
H2122 C2130 0.930 . S
H2123 C2131 0.930 . S
H2124 C2134 0.930 . S
H2125 C2135 0.930 . S
C2126 H2120 0.930 . S
C2126 C2127 1.355 . S
C2126 C2128 1.415 . S
C2127 C2126 1.355 . S
C2127 C2129 1.419 . S
C2128 C2126 1.415 . S
C2128 C2133 1.425 . S
C2128 C2135 1.409 . S
C2129 H2121 0.930 . S
C2129 C2127 1.419 . S
C2129 C2130 1.362 . S
C2130 H2122 0.930 . S
C2130 C2129 1.362 . S
C2130 C2133 1.409 . S
C2131 H2123 0.930 . S
C2131 C2132 1.355 . S
C2131 C2133 1.415 . S
C2132 C2131 1.355 . S
C2132 C2134 1.419 . S
C2133 C2128 1.425 . S
C2133 C2130 1.409 . S
C2133 C2131 1.415 . S
C2134 H2124 0.930 . S
C2134 C2132 1.419 . S
C2134 C2135 1.362 . S
C2135 H2125 0.930 . S
C2135 C2128 1.409 . S
C2135 C2134 1.362 . S
H2136 C2142 0.930 . S
H2137 C2145 0.930 . S
H2138 C2146 0.930 . S
H2139 C2147 0.930 . S
H2140 C2150 0.930 . S
H2141 C2151 0.930 . S
C2142 H2136 0.930 . S
C2142 C2143 1.355 . S
C2142 C2144 1.415 . S
C2143 C2142 1.355 . S
C2143 C2145 1.419 . S
C2144 C2142 1.415 . S
C2144 C2149 1.425 . S
C2144 C2151 1.409 . S
C2145 H2137 0.930 . S
C2145 C2143 1.419 . S
C2145 C2146 1.362 . S
C2146 H2138 0.930 . S
C2146 C2145 1.362 . S
C2146 C2149 1.409 . S
C2147 H2139 0.930 . S
C2147 C2148 1.355 . S
C2147 C2149 1.415 . S
C2148 C2147 1.355 . S
C2148 C2150 1.419 . S
C2149 C2144 1.425 . S
C2149 C2146 1.409 . S
C2149 C2147 1.415 . S
C2150 H2140 0.930 . S
C2150 C2148 1.419 . S
C2150 C2151 1.362 . S
C2151 H2141 0.930 . S
C2151 C2144 1.409 . S
C2151 C2150 1.362 . S
H2152 C2158 0.930 . S
H2153 C2161 0.930 . S
H2154 C2162 0.930 . S
H2155 C2163 0.930 . S
H2156 C2166 0.930 . S
H2157 C2167 0.930 . S
C2158 H2152 0.930 . S
C2158 C2159 1.355 . S
C2158 C2160 1.415 . S
C2159 C2158 1.355 . S
C2159 C2161 1.419 . S
C2160 C2158 1.415 . S
C2160 C2165 1.425 . S
C2160 C2167 1.409 . S
C2161 H2153 0.930 . S
C2161 C2159 1.419 . S
C2161 C2162 1.362 . S
C2162 H2154 0.930 . S
C2162 C2161 1.362 . S
C2162 C2165 1.409 . S
C2163 H2155 0.930 . S
C2163 C2164 1.355 . S
C2163 C2165 1.415 . S
C2164 C2163 1.355 . S
C2164 C2166 1.419 . S
C2165 C2160 1.425 . S
C2165 C2162 1.409 . S
C2165 C2163 1.415 . S
C2166 H2156 0.930 . S
C2166 C2164 1.419 . S
C2166 C2167 1.362 . S
C2167 H2157 0.930 . S
C2167 C2160 1.409 . S
C2167 C2166 1.362 . S
H2168 C2174 0.930 . S
H2169 C2177 0.930 . S
H2170 C2178 0.930 . S
H2171 C2179 0.930 . S
H2172 C2182 0.930 . S
H2173 C2183 0.930 . S
C2174 H2168 0.930 . S
C2174 C2175 1.355 . S
C2174 C2176 1.415 . S
C2175 C2174 1.355 . S
C2175 C2177 1.419 . S
C2176 C2174 1.415 . S
C2176 C2181 1.425 . S
C2176 C2183 1.409 . S
C2177 H2169 0.930 . S
C2177 C2175 1.419 . S
C2177 C2178 1.362 . S
C2178 H2170 0.930 . S
C2178 C2177 1.362 . S
C2178 C2181 1.409 . S
C2179 H2171 0.930 . S
C2179 C2180 1.355 . S
C2179 C2181 1.415 . S
C2180 C2179 1.355 . S
C2180 C2182 1.419 . S
C2181 C2176 1.425 . S
C2181 C2178 1.409 . S
C2181 C2179 1.415 . S
C2182 H2172 0.930 . S
C2182 C2180 1.419 . S
C2182 C2183 1.362 . S
C2183 H2173 0.930 . S
C2183 C2176 1.409 . S
C2183 C2182 1.362 . S
H2184 C2190 0.930 . S
H2185 C2193 0.930 . S
H2186 C2194 0.930 . S
H2187 C2195 0.930 . S
H2188 C2198 0.930 . S
H2189 C2199 0.930 . S
C2190 H2184 0.930 . S
C2190 C2191 1.355 . S
C2190 C2192 1.415 . S
C2191 C2190 1.355 . S
C2191 C2193 1.419 . S
C2192 C2190 1.415 . S
C2192 C2197 1.425 . S
C2192 C2199 1.409 . S
C2193 H2185 0.930 . S
C2193 C2191 1.419 . S
C2193 C2194 1.362 . S
C2194 H2186 0.930 . S
C2194 C2193 1.362 . S
C2194 C2197 1.409 . S
C2195 H2187 0.930 . S
C2195 C2196 1.355 . S
C2195 C2197 1.415 . S
C2196 C2195 1.355 . S
C2196 C2198 1.419 . S
C2197 C2192 1.425 . S
C2197 C2194 1.409 . S
C2197 C2195 1.415 . S
C2198 H2188 0.930 . S
C2198 C2196 1.419 . S
C2198 C2199 1.362 . S
C2199 H2189 0.930 . S
C2199 C2192 1.409 . S
C2199 C2198 1.362 . S
H2200 C2206 0.930 . S
H2201 C2209 0.930 1_655 S
H2202 C2210 0.930 . S
H2203 C2211 0.930 . S
H2204 C2214 0.930 . S
H2205 C2215 0.930 . S
C2206 H2200 0.930 . S
C2206 C2207 1.355 . S
C2206 C2208 1.415 . S
C2207 C2206 1.355 . S
C2207 C2209 1.419 . S
C2208 C2206 1.415 . S
C2208 C2213 1.425 . S
C2208 C2215 1.409 . S
C2209 H2201 0.930 1_455 S
C2209 C2207 1.419 . S
C2209 C2210 1.362 . S
C2210 H2202 0.930 . S
C2210 C2209 1.362 . S
C2210 C2213 1.409 . S
C2211 H2203 0.930 . S
C2211 C2212 1.355 . S
C2211 C2213 1.415 . S
C2212 C2211 1.355 . S
C2212 C2214 1.419 . S
C2213 C2208 1.425 . S
C2213 C2210 1.409 . S
C2213 C2211 1.415 . S
C2214 H2204 0.930 . S
C2214 C2212 1.419 . S
C2214 C2215 1.362 . S
C2215 H2205 0.930 . S
C2215 C2208 1.409 . S
C2215 C2214 1.362 . S
H2216 C2222 0.930 . S
H2217 C2225 0.930 . S
H2218 C2226 0.930 . S
H2219 C2227 0.930 . S
H2220 C2230 0.930 . S
H2221 C2231 0.930 . S
C2222 H2216 0.930 . S
C2222 C2223 1.355 . S
C2222 C2224 1.415 . S
C2223 C2222 1.355 . S
C2223 C2225 1.419 . S
C2224 C2222 1.415 . S
C2224 C2229 1.425 . S
C2224 C2231 1.409 . S
C2225 H2217 0.930 . S
C2225 C2223 1.419 . S
C2225 C2226 1.362 . S
C2226 H2218 0.930 . S
C2226 C2225 1.362 . S
C2226 C2229 1.409 . S
C2227 H2219 0.930 . S
C2227 C2228 1.355 . S
C2227 C2229 1.415 . S
C2228 C2227 1.355 . S
C2228 C2230 1.419 . S
C2229 C2224 1.425 . S
C2229 C2226 1.409 . S
C2229 C2227 1.415 . S
C2230 H2220 0.930 . S
C2230 C2228 1.419 . S
C2230 C2231 1.362 . S
C2231 H2221 0.930 . S
C2231 C2224 1.409 . S
C2231 C2230 1.362 . S
H2232 C2238 0.930 . S
H2233 C2241 0.930 . S
H2234 C2242 0.930 . S
H2235 C2243 0.930 . S
H2236 C2246 0.930 . S
H2237 C2247 0.930 . S
C2238 H2232 0.930 . S
C2238 C2239 1.355 . S
C2238 C2240 1.415 . S
C2239 C2238 1.355 . S
C2239 C2241 1.419 . S
C2240 C2238 1.415 . S
C2240 C2245 1.425 . S
C2240 C2247 1.409 . S
C2241 H2233 0.930 . S
C2241 C2239 1.419 . S
C2241 C2242 1.362 . S
C2242 H2234 0.930 . S
C2242 C2241 1.362 . S
C2242 C2245 1.409 . S
C2243 H2235 0.930 . S
C2243 C2244 1.355 . S
C2243 C2245 1.415 . S
C2244 C2243 1.355 . S
C2244 C2246 1.419 . S
C2245 C2240 1.425 . S
C2245 C2242 1.409 . S
C2245 C2243 1.415 . S
C2246 H2236 0.930 . S
C2246 C2244 1.419 . S
C2246 C2247 1.362 . S
C2247 H2237 0.930 . S
C2247 C2240 1.409 . S
C2247 C2246 1.362 . S
H2248 C2254 0.930 . S
H2249 C2257 0.930 . S
H2250 C2258 0.930 . S
H2251 C2259 0.930 . S
H2252 C2262 0.930 . S
H2253 C2263 0.930 . S
C2254 H2248 0.930 . S
C2254 C2255 1.355 . S
C2254 C2256 1.415 . S
C2255 C2254 1.355 . S
C2255 C2257 1.419 . S
C2256 C2254 1.415 . S
C2256 C2261 1.425 . S
C2256 C2263 1.409 . S
C2257 H2249 0.930 . S
C2257 C2255 1.419 . S
C2257 C2258 1.362 . S
C2258 H2250 0.930 . S
C2258 C2257 1.362 . S
C2258 C2261 1.409 . S
C2259 H2251 0.930 . S
C2259 C2260 1.355 . S
C2259 C2261 1.415 . S
C2260 C2259 1.355 . S
C2260 C2262 1.419 . S
C2261 C2256 1.425 . S
C2261 C2258 1.409 . S
C2261 C2259 1.415 . S
C2262 H2252 0.930 . S
C2262 C2260 1.419 . S
C2262 C2263 1.362 . S
C2263 H2253 0.930 . S
C2263 C2256 1.409 . S
C2263 C2262 1.362 . S
H2264 C2270 0.930 . S
H2265 C2273 0.930 . S
H2266 C2274 0.925 1_455 S
H2267 C2275 0.930 . S
H2268 C2278 0.930 . S
H2269 C2279 0.930 . S
C2270 H2264 0.930 . S
C2270 C2271 1.355 . S
C2270 C2272 1.415 . S
C2271 C2270 1.355 . S
C2271 C2273 1.419 . S
C2272 C2270 1.415 . S
C2272 C2277 1.425 . S
C2272 C2279 1.409 . S
C2273 H2265 0.930 . S
C2273 C2271 1.419 . S
C2273 C2274 1.362 . S
C2274 H2266 0.925 1_655 S
C2274 C2273 1.362 . S
C2274 C2277 1.409 . S
C2275 H2267 0.930 . S
C2275 C2276 1.355 . S
C2275 C2277 1.415 1_455 S
C2276 C2275 1.355 . S
C2276 C2278 1.419 1_455 S
C2277 C2272 1.425 . S
C2277 C2274 1.409 . S
C2277 C2275 1.415 1_655 S
C2278 H2268 0.930 . S
C2278 C2276 1.419 1_655 S
C2278 C2279 1.362 . S
C2279 H2269 0.930 . S
C2279 C2272 1.409 . S
C2279 C2278 1.362 . S
H2280 C2286 0.930 . S
H2281 C2289 0.930 . S
H2282 C2290 0.930 . S
H2283 C2291 0.930 . S
H2284 C2294 0.930 . S
H2285 C2295 0.930 . S
C2286 H2280 0.930 . S
C2286 C2287 1.355 . S
C2286 C2288 1.415 . S
C2287 C2286 1.355 . S
C2287 C2289 1.419 . S
C2288 C2286 1.415 . S
C2288 C2293 1.425 . S
C2288 C2295 1.409 . S
C2289 H2281 0.930 . S
C2289 C2287 1.419 . S
C2289 C2290 1.362 . S
C2290 H2282 0.930 . S
C2290 C2289 1.362 . S
C2290 C2293 1.409 . S
C2291 H2283 0.930 . S
C2291 C2292 1.355 . S
C2291 C2293 1.415 . S
C2292 C2291 1.355 . S
C2292 C2294 1.419 . S
C2293 C2288 1.425 . S
C2293 C2290 1.409 . S
C2293 C2291 1.415 . S
C2294 H2284 0.930 . S
C2294 C2292 1.419 . S
C2294 C2295 1.362 . S
C2295 H2285 0.930 . S
C2295 C2288 1.409 . S
C2295 C2294 1.362 . S
H2296 C2302 0.930 . S
H2297 C2305 0.930 . S
H2298 C2306 0.930 . S
H2299 C2307 0.930 . S
H2300 C2310 0.930 . S
H2301 C2311 0.930 . S
C2302 H2296 0.930 . S
C2302 C2303 1.355 . S
C2302 C2304 1.415 . S
C2303 C2302 1.355 . S
C2303 C2305 1.419 . S
C2304 C2302 1.415 . S
C2304 C2309 1.425 . S
C2304 C2311 1.409 . S
C2305 H2297 0.930 . S
C2305 C2303 1.419 . S
C2305 C2306 1.362 . S
C2306 H2298 0.930 . S
C2306 C2305 1.362 . S
C2306 C2309 1.409 . S
C2307 H2299 0.930 . S
C2307 C2308 1.355 . S
C2307 C2309 1.415 . S
C2308 C2307 1.355 . S
C2308 C2310 1.419 . S
C2309 C2304 1.425 . S
C2309 C2306 1.409 . S
C2309 C2307 1.415 . S
C2310 H2300 0.930 . S
C2310 C2308 1.419 . S
C2310 C2311 1.362 . S
C2311 H2301 0.930 . S
C2311 C2304 1.409 . S
C2311 C2310 1.362 . S
H2312 C2318 0.930 . S
H2313 C2321 0.930 . S
H2314 C2322 0.930 . S
H2315 C2323 0.930 . S
H2316 C2326 0.930 . S
H2317 C2327 0.930 . S
C2318 H2312 0.930 . S
C2318 C2319 1.355 . S
C2318 C2320 1.415 . S
C2319 C2318 1.355 . S
C2319 C2321 1.419 . S
C2320 C2318 1.415 . S
C2320 C2325 1.425 . S
C2320 C2327 1.409 . S
C2321 H2313 0.930 . S
C2321 C2319 1.419 . S
C2321 C2322 1.362 . S
C2322 H2314 0.930 . S
C2322 C2321 1.362 . S
C2322 C2325 1.409 . S
C2323 H2315 0.930 . S
C2323 C2324 1.355 . S
C2323 C2325 1.415 . S
C2324 C2323 1.355 . S
C2324 C2326 1.419 . S
C2325 C2320 1.425 . S
C2325 C2322 1.409 . S
C2325 C2323 1.415 . S
C2326 H2316 0.930 . S
C2326 C2324 1.419 . S
C2326 C2327 1.362 . S
C2327 H2317 0.930 . S
C2327 C2320 1.409 . S
C2327 C2326 1.362 . S
H2328 C2334 0.930 . S
H2329 C2337 0.930 . S
H2330 C2338 0.930 1_455 S
H2331 C2339 0.952 . S
H2332 C2342 0.930 . S
H2333 C2343 0.930 . S
C2334 H2328 0.930 . S
C2334 C2335 1.355 . S
C2334 C2336 1.415 . S
C2335 C2334 1.355 . S
C2335 C2337 1.419 . S
C2336 C2334 1.415 . S
C2336 C2341 1.425 . S
C2336 C2343 1.409 . S
C2337 H2329 0.930 . S
C2337 C2335 1.419 . S
C2337 C2338 1.362 . S
C2338 H2330 0.930 1_655 S
C2338 C2337 1.362 . S
C2338 C2341 1.409 . S
C2339 H2331 0.952 . S
C2339 C2340 1.355 1_455 S
C2339 C2341 1.392 1_455 S
C2340 C2339 1.355 1_655 S
C2340 C2342 1.419 . S
C2341 C2336 1.425 . S
C2341 C2338 1.409 . S
C2341 C2339 1.392 1_655 S
C2342 H2332 0.930 . S
C2342 C2340 1.419 . S
C2342 C2343 1.362 . S
C2343 H2333 0.930 . S
C2343 C2336 1.409 . S
C2343 C2342 1.362 . S
H2344 C2350 0.930 . S
H2345 C2353 0.930 . S
H2346 C2354 0.930 . S
H2347 C2355 0.930 . S
H2348 C2358 0.930 . S
H2349 C2359 0.930 . S
C2350 H2344 0.930 . S
C2350 C2351 1.355 . S
C2350 C2352 1.415 . S
C2351 C2350 1.355 . S
C2351 C2353 1.419 . S
C2352 C2350 1.415 . S
C2352 C2357 1.425 . S
C2352 C2359 1.409 . S
C2353 H2345 0.930 . S
C2353 C2351 1.419 . S
C2353 C2354 1.362 . S
C2354 H2346 0.930 . S
C2354 C2353 1.362 . S
C2354 C2357 1.409 . S
C2355 H2347 0.930 . S
C2355 C2356 1.355 . S
C2355 C2357 1.415 . S
C2356 C2355 1.355 . S
C2356 C2358 1.419 . S
C2357 C2352 1.425 . S
C2357 C2354 1.409 . S
C2357 C2355 1.415 . S
C2358 H2348 0.930 . S
C2358 C2356 1.419 . S
C2358 C2359 1.362 . S
C2359 H2349 0.930 . S
C2359 C2352 1.409 . S
C2359 C2358 1.362 . S
H2360 C2366 0.930 . S
H2361 C2369 0.930 . S
H2362 C2370 0.930 . S
H2363 C2371 0.930 . S
H2364 C2374 0.930 . S
H2365 C2375 0.930 . S
C2366 H2360 0.930 . S
C2366 C2367 1.355 . S
C2366 C2368 1.415 . S
C2367 C2366 1.355 . S
C2367 C2369 1.419 . S
C2368 C2366 1.415 . S
C2368 C2373 1.425 . S
C2368 C2375 1.409 . S
C2369 H2361 0.930 . S
C2369 C2367 1.419 . S
C2369 C2370 1.362 . S
C2370 H2362 0.930 . S
C2370 C2369 1.362 . S
C2370 C2373 1.409 . S
C2371 H2363 0.930 . S
C2371 C2372 1.355 . S
C2371 C2373 1.415 . S
C2372 C2371 1.355 . S
C2372 C2374 1.419 . S
C2373 C2368 1.425 . S
C2373 C2370 1.409 . S
C2373 C2371 1.415 . S
C2374 H2364 0.930 . S
C2374 C2372 1.419 . S
C2374 C2375 1.362 . S
C2375 H2365 0.930 . S
C2375 C2368 1.409 . S
C2375 C2374 1.362 . S
H2376 C2382 0.930 . S
H2377 C2385 0.930 . S
H2378 C2386 0.930 . S
H2379 C2387 0.930 1_545 S
H2380 C2390 0.930 . S
H2381 C2391 0.930 . S
C2382 H2376 0.930 . S
C2382 C2383 1.355 . S
C2382 C2384 1.415 . S
C2383 C2382 1.355 . S
C2383 C2385 1.419 . S
C2384 C2382 1.415 . S
C2384 C2389 1.425 . S
C2384 C2391 1.409 . S
C2385 H2377 0.930 . S
C2385 C2383 1.419 . S
C2385 C2386 1.362 . S
C2386 H2378 0.930 . S
C2386 C2385 1.362 . S
C2386 C2389 1.409 . S
C2387 H2379 0.930 1_565 S
C2387 C2388 1.355 . S
C2387 C2389 1.415 . S
C2388 C2387 1.355 . S
C2388 C2390 1.419 . S
C2389 C2384 1.425 . S
C2389 C2386 1.409 . S
C2389 C2387 1.415 . S
C2390 H2380 0.930 . S
C2390 C2388 1.419 . S
C2390 C2391 1.362 . S
C2391 H2381 0.930 . S
C2391 C2384 1.409 . S
C2391 C2390 1.362 . S
H2392 C2398 0.930 . S
H2393 C2401 0.930 . S
H2394 C2402 0.930 . S
H2395 C2403 0.930 . S
H2396 C2406 0.930 . S
H2397 C2407 0.930 . S
C2398 H2392 0.930 . S
C2398 C2399 1.355 . S
C2398 C2400 1.415 . S
C2399 C2398 1.355 . S
C2399 C2401 1.419 . S
C2400 C2398 1.415 . S
C2400 C2405 1.425 . S
C2400 C2407 1.409 . S
C2401 H2393 0.930 . S
C2401 C2399 1.419 . S
C2401 C2402 1.362 . S
C2402 H2394 0.930 . S
C2402 C2401 1.362 . S
C2402 C2405 1.409 . S
C2403 H2395 0.930 . S
C2403 C2404 1.355 . S
C2403 C2405 1.415 . S
C2404 C2403 1.355 . S
C2404 C2406 1.419 . S
C2405 C2400 1.425 . S
C2405 C2402 1.409 . S
C2405 C2403 1.415 . S
C2406 H2396 0.930 . S
C2406 C2404 1.419 . S
C2406 C2407 1.362 . S
C2407 H2397 0.930 . S
C2407 C2400 1.409 . S
C2407 C2406 1.362 . S
H2408 C2414 0.930 . S
H2409 C2417 0.930 . S
H2410 C2418 0.930 . S
H2411 C2419 0.930 . S
H2412 C2422 0.930 . S
H2413 C2423 0.930 . S
C2414 H2408 0.930 . S
C2414 C2415 1.355 . S
C2414 C2416 1.415 . S
C2415 C2414 1.355 . S
C2415 C2417 1.419 . S
C2416 C2414 1.415 . S
C2416 C2421 1.425 . S
C2416 C2423 1.409 . S
C2417 H2409 0.930 . S
C2417 C2415 1.419 . S
C2417 C2418 1.362 . S
C2418 H2410 0.930 . S
C2418 C2417 1.362 . S
C2418 C2421 1.409 . S
C2419 H2411 0.930 . S
C2419 C2420 1.355 . S
C2419 C2421 1.415 . S
C2420 C2419 1.355 . S
C2420 C2422 1.419 . S
C2421 C2416 1.425 . S
C2421 C2418 1.409 . S
C2421 C2419 1.415 . S
C2422 H2412 0.930 . S
C2422 C2420 1.419 . S
C2422 C2423 1.362 . S
C2423 H2413 0.930 . S
C2423 C2416 1.409 . S
C2423 C2422 1.362 . S
H2424 C2430 0.930 . S
H2425 C2433 0.930 . S
H2426 C2434 0.930 . S
H2427 C2435 0.930 . S
H2428 C2438 0.930 . S
H2429 C2439 0.930 . S
C2430 H2424 0.930 . S
C2430 C2431 1.355 . S
C2430 C2432 1.415 . S
C2431 C2430 1.355 . S
C2431 C2433 1.419 . S
C2432 C2430 1.415 . S
C2432 C2437 1.425 . S
C2432 C2439 1.409 . S
C2433 H2425 0.930 . S
C2433 C2431 1.419 . S
C2433 C2434 1.362 . S
C2434 H2426 0.930 . S
C2434 C2433 1.362 . S
C2434 C2437 1.409 . S
C2435 H2427 0.930 . S
C2435 C2436 1.355 . S
C2435 C2437 1.415 . S
C2436 C2435 1.355 . S
C2436 C2438 1.419 . S
C2437 C2432 1.425 . S
C2437 C2434 1.409 . S
C2437 C2435 1.415 . S
C2438 H2428 0.930 . S
C2438 C2436 1.419 . S
C2438 C2439 1.362 . S
C2439 H2429 0.930 . S
C2439 C2432 1.409 . S
C2439 C2438 1.362 . S
H2440 C2446 0.930 . S
H2441 C2449 0.930 . S
H2442 C2450 0.930 . S
H2443 C2451 0.930 . S
H2444 C2454 0.962 . S
H2445 C2455 0.930 1_556 S
C2446 H2440 0.930 . S
C2446 C2447 1.355 . S
C2446 C2448 1.415 . S
C2447 C2446 1.355 . S
C2447 C2449 1.419 . S
C2448 C2446 1.415 . S
C2448 C2453 1.425 . S
C2448 C2455 1.409 . S
C2449 H2441 0.930 . S
C2449 C2447 1.419 . S
C2449 C2450 1.362 . S
C2450 H2442 0.930 . S
C2450 C2449 1.362 . S
C2450 C2453 1.409 . S
C2451 H2443 0.930 . S
C2451 C2452 1.355 . S
C2451 C2453 1.415 . S
C2452 C2451 1.355 . S
C2452 C2454 1.388 1_554 S
C2453 C2448 1.425 . S
C2453 C2450 1.409 . S
C2453 C2451 1.415 . S
C2454 H2444 0.962 . S
C2454 C2452 1.388 1_556 S
C2454 C2455 1.362 1_556 S
C2455 H2445 0.930 1_554 S
C2455 C2448 1.409 . S
C2455 C2454 1.362 1_554 S
H2456 C2462 0.930 . S
H2457 C2465 0.930 . S
H2458 C2466 0.930 . S
H2459 C2467 0.930 . S
H2460 C2470 0.930 . S
H2461 C2471 0.930 . S
C2462 H2456 0.930 . S
C2462 C2463 1.355 . S
C2462 C2464 1.415 . S
C2463 C2462 1.355 . S
C2463 C2465 1.419 . S
C2464 C2462 1.415 . S
C2464 C2469 1.425 . S
C2464 C2471 1.409 . S
C2465 H2457 0.930 . S
C2465 C2463 1.419 . S
C2465 C2466 1.362 . S
C2466 H2458 0.930 . S
C2466 C2465 1.362 . S
C2466 C2469 1.409 . S
C2467 H2459 0.930 . S
C2467 C2468 1.355 . S
C2467 C2469 1.415 . S
C2468 C2467 1.355 . S
C2468 C2470 1.419 . S
C2469 C2464 1.425 . S
C2469 C2466 1.409 . S
C2469 C2467 1.415 . S
C2470 H2460 0.930 . S
C2470 C2468 1.419 . S
C2470 C2471 1.362 . S
C2471 H2461 0.930 . S
C2471 C2464 1.409 . S
C2471 C2470 1.362 . S
H2472 C2478 0.930 . S
H2473 C2481 0.930 . S
H2474 C2482 0.930 . S
H2475 C2483 0.930 . S
H2476 C2486 0.930 . S
H2477 C2487 0.930 . S
C2478 H2472 0.930 . S
C2478 C2479 1.355 . S
C2478 C2480 1.415 . S
C2479 C2478 1.355 . S
C2479 C2481 1.419 . S
C2480 C2478 1.415 . S
C2480 C2485 1.425 . S
C2480 C2487 1.409 . S
C2481 H2473 0.930 . S
C2481 C2479 1.419 . S
C2481 C2482 1.362 . S
C2482 H2474 0.930 . S
C2482 C2481 1.362 . S
C2482 C2485 1.409 . S
C2483 H2475 0.930 . S
C2483 C2484 1.355 . S
C2483 C2485 1.415 . S
C2484 C2483 1.355 . S
C2484 C2486 1.419 . S
C2485 C2480 1.425 . S
C2485 C2482 1.409 . S
C2485 C2483 1.415 . S
C2486 H2476 0.930 . S
C2486 C2484 1.419 . S
C2486 C2487 1.362 . S
C2487 H2477 0.930 . S
C2487 C2480 1.409 . S
C2487 C2486 1.362 . S
C959 C101 2.351 1_554 S
C964 C322 2.317 . S
C975 C57 2.042 . S
C980 C370 2.072 . S
C991 C73 1.431 . S
C996 C402 1.509 . S
C1012 C447 1.584 . S
C1007 C78 1.557 . S
C1023 C21 0.962 . S
C1028 C487 0.983 . S
C1044 C522 1.168 . S
C1039 C31 1.150 . S
C1060 C561 1.176 . S
C1055 C49 1.204 . S
C1071 C0 1.201 . S
C1076 C598 1.211 . S
C1092 C330 2.073 . S
C1087 C218 2.088 1_545 S
C1103 C229 0.702 . S
C1108 C367 0.603 . S
C1124 C410 2.366 . S
C1119 C257 2.374 . S
C1140 C442 1.212 . S
C1135 C164 1.121 1_556 S
C1151 C216 1.287 . S
C1156 C482 1.395 . S
C1172 C530 0.656 . S
C1167 C231 0.641 . S
C1188 C571 2.038 1_556 S
C1183 C255 2.078 . S
C1204 C601 2.002 . S
C1199 C166 2.030 . S
C1220 C327 1.536 . S
C1215 C143 1.450 . S
C1231 C265 2.124 . S
C1236 C650 2.152 . S
C1252 C687 1.131 . S
C1247 C299 1.072 . S
C1268 C718 0.732 . S
C1263 C291 0.714 . S
C1279 C104 2.672 . S
C1284 C611 2.660 . S
C1295 C117 1.374 . S
C1300 C407 1.415 . S
C1311 C304 1.664 . S
C1316 C770 1.687 . S
C1332 C802 1.837 . S
C1327 C278 1.828 . S
C1348 C331 2.303 . S
C1343 C60 2.371 . S
C1364 C801 1.965 . S
C1359 C96 1.970 . S
C1375 C88 1.430 . S
C1380 C411 1.396 . S
C1391 C65 1.610 . S
C1396 C758 1.545 . S
C1412 C478 0.942 1_655 S
C1407 C10 0.934 . S
C1423 C44 0.948 . S
C1428 C691 1.039 . S
C1444 C570 1.212 . S
C1439 C34 1.203 . S
C1460 C847 1.146 . S
C1455 C13 1.196 . S
C1476 C321 2.055 1_556 S
C1471 C138 2.057 . S
C1492 C798 0.718 . S
C1487 C296 0.669 . S
C1503 C112 2.256 . S
C1508 C401 2.315 . S
C1519 C270 1.121 . S
C1524 C771 1.096 . S
C1535 C140 1.286 . S
C1540 C491 1.297 . S
C1556 C681 0.602 . S
C1551 C294 0.878 . S
C1567 C114 2.052 . S
C1572 C562 1.952 . S
C1583 C268 1.992 1_556 S
C1588 C850 2.001 . S
C1599 C169 1.754 . S
C1604 C318 1.630 . S
C1615 C161 2.041 . S
C1620 C641 2.036 . S
C1631 C234 1.190 . S
C1636 C518 1.189 . S
C1647 C226 0.765 . S
C1652 C727 0.725 . S
C1668 C842 2.608 . S
C1663 C247 2.582 . S
C1679 C195 1.390 . S
C1684 C398 1.330 . S
C1700 C441 1.617 . S
C1695 C239 1.623 . S
C1716 C371 1.785 . S
C1711 C187 1.679 . S
C1727 C75 2.347 . S
C1732 C882 2.286 . S
C1748 C810 2.070 . S
C1743 C83 2.038 . S
C1759 C99 1.385 1_554 S
C1764 C922 1.523 . S
C1775 C52 1.569 1_655 S
C1780 C767 1.596 . S
C1791 C47 1.022 . S
C1796 C647 1.022 . S
C1812 C682 1.160 . S
C1807 C5 1.131 . S
C1828 C721 1.197 . S
C1823 C23 1.223 . S
C1844 C838 1.228 . S
C1839 C26 1.111 . S
C1860 C890 2.098 . S
C1855 C244 2.083 . S
C1871 C177 0.759 . S
C1876 C807 0.708 . S
C1892 C930 2.373 . S
C1887 C192 2.387 . S
C1908 C762 1.198 . S
C1903 C203 1.177 . S
C1924 C642 1.394 1_556 S
C1919 C242 1.288 . S
C1935 C179 0.436 . S
C1940 C690 0.409 . S
C1956 C731 2.052 . S
C1951 C190 2.090 . S
C1967 C205 2.027 . S
C1972 C841 2.006 . S
C1988 C887 1.487 . S
C1983 C286 1.423 . S
C1999 C122 2.131 . S
C2004 C490 2.148 . S
C2020 C527 1.141 . S
C2015 C130 1.085 1_565 S
C2036 C558 0.798 . S
C2031 C148 0.771 . S
C2052 C851 2.642 . S
C2047 C273 2.655 . S
C2063 C260 1.393 . S
C2068 C927 1.426 . S
C2084 C450 1.681 . S
C2079 C135 1.652 . S
C2100 C362 1.839 . S
C2095 C109 1.823 . S
C2111 C86 2.369 . S
C2116 C891 2.281 . S
C2132 C361 1.947 . S
C2127 C70 1.958 . S
C2143 C62 1.416 . S
C2148 C931 1.427 . S
C2159 C91 1.606 . S
C2164 C438 1.503 . S
C2175 C36 0.930 . S
C2180 C638 0.957 . S
C2196 C531 1.032 . S
C2191 C18 1.029 . S
C2207 C8 1.180 . S
C2212 C730 1.189 . S
C2223 C39 1.199 . S
C2228 C607 1.140 . S
C2244 C881 2.046 . S
C2239 C307 2.044 . S
C2255 C153 0.614 . S
C2260 C358 0.649 . S
C2276 C921 2.310 1_556 S
C2271 C281 2.260 . S
C2287 C127 1.109 . S
C2292 C451 1.092 . S
C2303 C309 1.286 . S
C2308 C651 1.295 . S
C2324 C521 0.445 . S
C2319 C151 0.684 . S
C2335 C283 2.031 . S
C2340 C722 1.980 1_655 S
C2356 C610 2.019 . S
C2351 C125 2.016 . S
C2372 C878 1.566 . S
C2367 C221 1.724 . S
C2388 C481 2.057 1_565 S
C2383 C200 2.060 . S
C2399 C208 1.185 . S
C2404 C678 1.147 . S
C2420 C567 0.732 . S
C2415 C174 0.797 . S
C2431 C182 2.609 . S
C2436 C602 2.581 . S
C2447 C156 1.370 . S
C2452 C918 1.380 . S
C2468 C761 1.606 . S
C2463 C213 1.618 . S
C2484 C811 1.757 . S
C2479 C252 1.702 . S
