# Generated by pormake.
# Topology ocu, (6,8)-cn, num edge types: 1
# Building blocks:
#     Node 0, Type 0, BuildingBlock: PAMTOO_clean_sbu_0, # of connection points: 6
#     Node 1, Type 0, BuildingBlock: PAMTOO_clean_sbu_0, # of connection points: 6
#     Node 2, Type 0, BuildingBlock: PAMTOO_clean_sbu_0, # of connection points: 6
#     Node 3, Type 0, BuildingBlock: PAMTOO_clean_sbu_0, # of connection points: 6
#     Node 4, Type 0, BuildingBlock: PAMTOO_clean_sbu_0, # of connection points: 6
#     Node 5, Type 0, BuildingBlock: PAMTOO_clean_sbu_0, # of connection points: 6
#     Node 6, Type 0, BuildingBlock: PAMTOO_clean_sbu_0, # of connection points: 6
#     Node 7, Type 0, BuildingBlock: PAMTOO_clean_sbu_0, # of connection points: 6
#     Node 8, Type 1, BuildingBlock: VETTIZ_charged_sbu_0, # of connection points: 8
#     Node 9, Type 1, BuildingBlock: VETTIZ_charged_sbu_0, # of connection points: 8
#     Node 10, Type 1, BuildingBlock: VETTIZ_charged_sbu_0, # of connection points: 8
#     Node 11, Type 1, BuildingBlock: VETTIZ_charged_sbu_0, # of connection points: 8
#     Node 12, Type 1, BuildingBlock: VETTIZ_charged_sbu_0, # of connection points: 8
#     Node 13, Type 1, BuildingBlock: VETTIZ_charged_sbu_0, # of connection points: 8
#     Edge 14, Type (0, 1), BuildingBlock: CIFDUS_clean_linker_0, # of connection points: 2
#     Edge 15, Type (0, 1), BuildingBlock: CIFDUS_clean_linker_0, # of connection points: 2
#     Edge 16, Type (0, 1), BuildingBlock: CIFDUS_clean_linker_0, # of connection points: 2
#     Edge 17, Type (0, 1), BuildingBlock: CIFDUS_clean_linker_0, # of connection points: 2
#     Edge 18, Type (0, 1), BuildingBlock: CIFDUS_clean_linker_0, # of connection points: 2
#     Edge 19, Type (0, 1), BuildingBlock: CIFDUS_clean_linker_0, # of connection points: 2
#     Edge 20, Type (0, 1), BuildingBlock: CIFDUS_clean_linker_0, # of connection points: 2
#     Edge 21, Type (0, 1), BuildingBlock: CIFDUS_clean_linker_0, # of connection points: 2
#     Edge 22, Type (0, 1), BuildingBlock: CIFDUS_clean_linker_0, # of connection points: 2
#     Edge 23, Type (0, 1), BuildingBlock: CIFDUS_clean_linker_0, # of connection points: 2
#     Edge 24, Type (0, 1), BuildingBlock: CIFDUS_clean_linker_0, # of connection points: 2
#     Edge 25, Type (0, 1), BuildingBlock: CIFDUS_clean_linker_0, # of connection points: 2
#     Edge 26, Type (0, 1), BuildingBlock: CIFDUS_clean_linker_0, # of connection points: 2
#     Edge 27, Type (0, 1), BuildingBlock: CIFDUS_clean_linker_0, # of connection points: 2
#     Edge 28, Type (0, 1), BuildingBlock: CIFDUS_clean_linker_0, # of connection points: 2
#     Edge 29, Type (0, 1), BuildingBlock: CIFDUS_clean_linker_0, # of connection points: 2
#     Edge 30, Type (0, 1), BuildingBlock: CIFDUS_clean_linker_0, # of connection points: 2
#     Edge 31, Type (0, 1), BuildingBlock: CIFDUS_clean_linker_0, # of connection points: 2
#     Edge 32, Type (0, 1), BuildingBlock: CIFDUS_clean_linker_0, # of connection points: 2
#     Edge 33, Type (0, 1), BuildingBlock: CIFDUS_clean_linker_0, # of connection points: 2
#     Edge 34, Type (0, 1), BuildingBlock: CIFDUS_clean_linker_0, # of connection points: 2
#     Edge 35, Type (0, 1), BuildingBlock: CIFDUS_clean_linker_0, # of connection points: 2
#     Edge 36, Type (0, 1), BuildingBlock: CIFDUS_clean_linker_0, # of connection points: 2
#     Edge 37, Type (0, 1), BuildingBlock: CIFDUS_clean_linker_0, # of connection points: 2
#     Edge 38, Type (0, 1), BuildingBlock: CIFDUS_clean_linker_0, # of connection points: 2
#     Edge 39, Type (0, 1), BuildingBlock: CIFDUS_clean_linker_0, # of connection points: 2
#     Edge 40, Type (0, 1), BuildingBlock: CIFDUS_clean_linker_0, # of connection points: 2
#     Edge 41, Type (0, 1), BuildingBlock: CIFDUS_clean_linker_0, # of connection points: 2
#     Edge 42, Type (0, 1), BuildingBlock: CIFDUS_clean_linker_0, # of connection points: 2
#     Edge 43, Type (0, 1), BuildingBlock: CIFDUS_clean_linker_0, # of connection points: 2
#     Edge 44, Type (0, 1), BuildingBlock: CIFDUS_clean_linker_0, # of connection points: 2
#     Edge 45, Type (0, 1), BuildingBlock: CIFDUS_clean_linker_0, # of connection points: 2
#     Edge 46, Type (0, 1), BuildingBlock: CIFDUS_clean_linker_0, # of connection points: 2
#     Edge 47, Type (0, 1), BuildingBlock: CIFDUS_clean_linker_0, # of connection points: 2
#     Edge 48, Type (0, 1), BuildingBlock: CIFDUS_clean_linker_0, # of connection points: 2
#     Edge 49, Type (0, 1), BuildingBlock: CIFDUS_clean_linker_0, # of connection points: 2
#     Edge 50, Type (0, 1), BuildingBlock: CIFDUS_clean_linker_0, # of connection points: 2
#     Edge 51, Type (0, 1), BuildingBlock: CIFDUS_clean_linker_0, # of connection points: 2
#     Edge 52, Type (0, 1), BuildingBlock: CIFDUS_clean_linker_0, # of connection points: 2
#     Edge 53, Type (0, 1), BuildingBlock: CIFDUS_clean_linker_0, # of connection points: 2
#     Edge 54, Type (0, 1), BuildingBlock: CIFDUS_clean_linker_0, # of connection points: 2
#     Edge 55, Type (0, 1), BuildingBlock: CIFDUS_clean_linker_0, # of connection points: 2
#     Edge 56, Type (0, 1), BuildingBlock: CIFDUS_clean_linker_0, # of connection points: 2
#     Edge 57, Type (0, 1), BuildingBlock: CIFDUS_clean_linker_0, # of connection points: 2
#     Edge 58, Type (0, 1), BuildingBlock: CIFDUS_clean_linker_0, # of connection points: 2
#     Edge 59, Type (0, 1), BuildingBlock: CIFDUS_clean_linker_0, # of connection points: 2
#     Edge 60, Type (0, 1), BuildingBlock: CIFDUS_clean_linker_0, # of connection points: 2
#     Edge 61, Type (0, 1), BuildingBlock: CIFDUS_clean_linker_0, # of connection points: 2
# Relax obj value: 0.237
# Max RMSD: 0.265
# Mean RMSD: 0.144
data_MOF--net-ocu--node1-PAMTOO_clean_sbu_0--node2-VETTIZ_charged_sbu_0--edge1-CIFDUS_clean_linker_0
_symmetry_space_group_name_H-M    P1
_symmetry_Int_Tables_number       1
_symmetry_cell_setting            triclinic
loop_
_symmetry_equiv_pos_as_xyz
'x, y, z'
_cell_length_a     33.965277
_cell_length_b     36.154067
_cell_length_c     35.426094
_cell_angle_alpha  92.595642
_cell_angle_beta   93.501275
_cell_angle_gamma 96.781653
loop_
_atom_site_label
_atom_site_type_symbol
_atom_site_fract_x
_atom_site_fract_y
_atom_site_fract_z
_atom_type_partial_charge
Dy0 Dy 0.34653 0.32084 0.33509 0.0
Dy1 Dy 0.27288 0.31065 0.27731 0.0
C2 C 0.35405 0.27121 0.25445 0.0
O3 O 0.37027 0.35722 0.28809 0.0
O4 O 0.31044 0.36208 0.25733 0.0
O5 O 0.3912 0.35767 0.36917 0.0
O6 O 0.38352 0.29811 0.37738 0.0
O7 O 0.24734 0.3377 0.32988 0.0
O8 O 0.30653 0.36351 0.35772 0.0
O9 O 0.25548 0.26267 0.31422 0.0
O10 O 0.30309 0.27663 0.3625 0.0
O11 O 0.22012 0.33193 0.25535 0.0
O12 O 0.23777 0.28171 0.22936 0.0
C13 C 0.34928 0.37216 0.26145 0.0
O14 O 0.37144 0.2846 0.28785 0.0
O15 O 0.31653 0.27699 0.24634 0.0
C16 C 0.44627 0.33032 0.39556 0.0
C17 C 0.52458 0.31304 0.40788 0.0
C18 C 0.51279 0.3298 0.37442 0.0
C19 C 0.47362 0.33777 0.36801 0.0
C20 C 0.45909 0.31819 0.43055 0.0
C21 C 0.49767 0.3095 0.4367 0.0
C22 C 0.40349 0.33041 0.38776 0.0
C23 C 0.26713 0.3609 0.35636 0.0
C24 C 0.26955 0.25669 0.34865 0.0
C25 C 0.20844 0.3234 0.19013 0.0
C26 C 0.19335 0.36906 0.13023 0.0
C27 C 0.23229 0.36904 0.14608 0.0
C28 C 0.23981 0.34619 0.17578 0.0
C29 C 0.17022 0.32115 0.17247 0.0
C30 C 0.16271 0.34369 0.14255 0.0
C31 C 0.21392 0.30734 0.22697 0.0
H32 H 0.53284 0.33434 0.35203 0.0
H33 H 0.46422 0.3477 0.3409 0.0
H34 H 0.43832 0.31262 0.45225 0.0
H35 H 0.50458 0.29662 0.46284 0.0
H36 H 0.25645 0.38815 0.13695 0.0
H37 H 0.26957 0.34808 0.18911 0.0
H38 H 0.14568 0.30386 0.18342 0.0
H39 H 0.13232 0.34339 0.13118 0.0
Dy40 Dy 0.83045 0.30946 0.28025 0.0
Dy41 Dy 0.76355 0.31745 0.33645 0.0
C42 C 0.85126 0.36653 0.35464 0.0
O43 O 0.8479 0.27052 0.32822 0.0
O44 O 0.80158 0.27864 0.37085 0.0
O45 O 0.87746 0.32668 0.24429 0.0
O46 O 0.86154 0.26784 0.25367 0.0
O47 O 0.7327 0.27123 0.29555 0.0
O48 O 0.77753 0.27484 0.24999 0.0
O49 O 0.74425 0.35248 0.28734 0.0
O50 O 0.79374 0.35107 0.24695 0.0
O51 O 0.71648 0.30039 0.37251 0.0
O52 O 0.73094 0.35882 0.36139 0.0
C53 C 0.83397 0.26325 0.3618 0.0
O54 O 0.86318 0.35361 0.3224 0.0
O55 O 0.81511 0.35611 0.36449 0.0
C56 C 0.88653 0.28236 0.19529 0.0
C57 C 0.91002 0.28135 0.12121 0.0
C58 C 0.87504 0.29648 0.12988 0.0
C59 C 0.86364 0.29743 0.16702 0.0
C60 C 0.91625 0.26076 0.18517 0.0
C61 C 0.92745 0.25955 0.14792 0.0
C62 C 0.88309 0.29224 0.23533 0.0
C63 C 0.74286 0.26163 0.26145 0.0
C64 C 0.7592 0.36303 0.25527 0.0
C65 C 0.71277 0.34443 0.42197 0.0
C66 C 0.72338 0.32174 0.49448 0.0
C67 C 0.68459 0.32472 0.47945 0.0
C68 C 0.67931 0.33439 0.442 0.0
C69 C 0.75004 0.35335 0.44181 0.0
C70 C 0.75503 0.34332 0.47918 0.0
C71 C 0.71087 0.33484 0.38142 0.0
H72 H 0.86026 0.31286 0.1098 0.0
H73 H 0.83956 0.31305 0.17424 0.0
H74 H 0.93332 0.24786 0.20665 0.0
H75 H 0.95387 0.2469 0.14173 0.0
H76 H 0.65905 0.31078 0.49219 0.0
H77 H 0.65008 0.32871 0.42741 0.0
H78 H 0.77614 0.36236 0.42705 0.0
H79 H 0.78503 0.34356 0.49158 0.0
Dy80 Dy 0.8003 0.757 0.35092 0.0
Dy81 Dy 0.82795 0.81023 0.28381 0.0
C82 C 0.86502 0.83033 0.36977 0.0
O83 O 0.77728 0.81097 0.36234 0.0
O84 O 0.76986 0.82616 0.30077 0.0
O85 O 0.81115 0.72699 0.40086 0.0
O86 O 0.75158 0.72358 0.37447 0.0
O87 O 0.79035 0.75989 0.25543 0.0
O88 O 0.75245 0.74539 0.30455 0.0
O89 O 0.8782 0.77859 0.29897 0.0
O90 O 0.83958 0.7267 0.31474 0.0
O91 O 0.84507 0.81481 0.22628 0.0
O92 O 0.84175 0.86448 0.26191 0.0
C93 C 0.76218 0.83084 0.33634 0.0
O94 O 0.84997 0.79709 0.3797 0.0
O95 O 0.85751 0.84209 0.33577 0.0
C96 C 0.77293 0.66919 0.3982 0.0
C97 C 0.80552 0.6031 0.40827 0.0
C98 C 0.80314 0.6172 0.37208 0.0
C99 C 0.78714 0.65059 0.36712 0.0
C100 C 0.76725 0.6507 0.43163 0.0
C101 C 0.78268 0.61696 0.43631 0.0
C102 C 0.775 0.70984 0.39917 0.0
C103 C 0.75837 0.74226 0.26851 0.0
C104 C 0.8728 0.7425 0.30226 0.0
C105 C 0.81476 0.86376 0.20041 0.0
C106 C 0.75454 0.89796 0.16328 0.0
C107 C 0.74542 0.86358 0.17955 0.0
C108 C 0.77531 0.84666 0.19805 0.0
C109 C 0.82442 0.89694 0.18241 0.0
C110 C 0.79447 0.91388 0.16375 0.0
C111 C 0.84345 0.85073 0.22751 0.0
H112 H 0.82012 0.60669 0.34989 0.0
H113 H 0.79107 0.66435 0.34083 0.0
H114 H 0.75584 0.6645 0.4557 0.0
H115 H 0.78375 0.60609 0.46431 0.0
H116 H 0.71495 0.85084 0.17994 0.0
H117 H 0.76724 0.82134 0.21248 0.0
H118 H 0.85466 0.91065 0.18444 0.0
H119 H 0.80235 0.94009 0.15083 0.0
Dy120 Dy 0.27066 0.84637 0.29696 0.0
Dy121 Dy 0.34046 0.79847 0.30502 0.0
C122 C 0.34397 0.87137 0.35265 0.0
O123 O 0.30842 0.86648 0.24797 0.0
O124 O 0.36571 0.84203 0.26326 0.0
O125 O 0.23632 0.88756 0.31925 0.0
O126 O 0.22383 0.86461 0.26123 0.0
O127 O 0.30422 0.77056 0.25394 0.0
O128 O 0.24615 0.79078 0.26985 0.0
O129 O 0.29364 0.7654 0.33922 0.0
O130 O 0.25142 0.80954 0.34727 0.0
O131 O 0.37367 0.75138 0.29885 0.0
O132 O 0.39808 0.80015 0.33429 0.0
C133 C 0.34654 0.86466 0.24228 0.0
O134 O 0.32383 0.88336 0.3242 0.0
O135 O 0.3393 0.83562 0.35675 0.0
C136 C 0.17026 0.87977 0.29526 0.0
C137 C 0.09875 0.87565 0.33123 0.0
C138 C 0.11624 0.84297 0.32309 0.0
C139 C 0.15231 0.84517 0.30583 0.0
C140 C 0.14975 0.91086 0.29729 0.0
C141 C 0.11417 0.90888 0.31492 0.0
C142 C 0.21243 0.88536 0.28861 0.0
C143 C 0.26521 0.76791 0.25031 0.0
C144 C 0.26241 0.77639 0.35576 0.0
C145 C 0.44182 0.77259 0.29775 0.0
C146 C 0.51083 0.77415 0.25795 0.0
C147 C 0.47495 0.78237 0.23998 0.0
C148 C 0.44079 0.78156 0.25974 0.0
C149 C 0.47819 0.76874 0.31705 0.0
C150 C 0.51268 0.76993 0.29734 0.0
C151 C 0.40521 0.76917 0.31751 0.0
H152 H 0.10445 0.8165 0.33348 0.0
H153 H 0.1677 0.82063 0.30367 0.0
H154 H 0.1631 0.93762 0.28868 0.0
H155 H 0.10204 0.9349 0.31963 0.0
H156 H 0.47192 0.78582 0.20978 0.0
H157 H 0.41312 0.78608 0.24477 0.0
H158 H 0.47963 0.76339 0.34692 0.0
H159 H 0.54003 0.7645 0.31225 0.0
Dy160 Dy 0.34395 0.82401 0.78062 0.0
Dy161 Dy 0.26645 0.8129 0.82458 0.0
C162 C 0.32988 0.87797 0.84834 0.0
O163 O 0.36332 0.78419 0.82715 0.0
O164 O 0.3063 0.77518 0.85858 0.0
O165 O 0.40601 0.84582 0.78772 0.0
O166 O 0.37953 0.82534 0.73219 0.0
O167 O 0.25408 0.77073 0.77648 0.0
O168 O 0.31525 0.77136 0.75165 0.0
O169 O 0.25138 0.85731 0.78111 0.0
O170 O 0.30052 0.85269 0.74112 0.0
O171 O 0.22009 0.78337 0.85497 0.0
O172 O 0.21854 0.84155 0.84276 0.0
C173 C 0.3439 0.76819 0.85505 0.0
O174 O 0.33696 0.87707 0.81265 0.0
O175 O 0.30997 0.8494 0.86197 0.0
C176 C 0.41862 0.88365 0.73749 0.0
C177 C 0.4351 0.95761 0.71667 0.0
C178 C 0.46495 0.93943 0.73481 0.0
C179 C 0.45667 0.90274 0.7453 0.0
C180 C 0.38848 0.90222 0.72067 0.0
C181 C 0.39657 0.9389 0.71055 0.0
C182 C 0.40875 0.84631 0.75118 0.0
C183 C 0.27807 0.75756 0.75301 0.0
C184 C 0.26699 0.86646 0.74871 0.0
C185 C 0.19068 0.82275 0.89842 0.0
C186 C 0.1588 0.83499 0.96861 0.0
C187 C 0.18979 0.81251 0.9654 0.0
C188 C 0.20561 0.80642 0.93054 0.0
C189 C 0.16258 0.84795 0.90228 0.0
C190 C 0.14692 0.85423 0.93716 0.0
C191 C 0.20262 0.81336 0.86038 0.0
H192 H 0.49524 0.95282 0.73918 0.0
H193 H 0.48 0.88919 0.75913 0.0
H194 H 0.35866 0.88836 0.71489 0.0
H195 H 0.37308 0.95213 0.69656 0.0
H196 H 0.1994 0.79689 0.98893 0.0
H197 H 0.22793 0.7875 0.92839 0.0
H198 H 0.15128 0.8614 0.87784 0.0
H199 H 0.12333 0.87184 0.93883 0.0
Dy200 Dy 0.33053 0.32202 0.77336 0.0
Dy201 Dy 0.27037 0.31657 0.83917 0.0
C202 C 0.25371 0.26251 0.76317 0.0
O203 O 0.2813 0.35467 0.74926 0.0
O204 O 0.25022 0.36346 0.80374 0.0
O205 O 0.34375 0.32 0.71462 0.0
O206 O 0.39098 0.33548 0.7583 0.0
O207 O 0.32675 0.35046 0.86316 0.0
O208 O 0.34264 0.3757 0.80812 0.0
O209 O 0.31017 0.2728 0.85788 0.0
O210 O 0.35973 0.28612 0.81752 0.0
O211 O 0.24899 0.34314 0.88819 0.0
O212 O 0.22026 0.28913 0.86631 0.0
C213 C 0.2544 0.37054 0.76769 0.0
O214 O 0.29157 0.26874 0.75712 0.0
O215 O 0.2386 0.28152 0.79001 0.0
C216 C 0.40675 0.30385 0.70303 0.0
C217 C 0.45407 0.25787 0.66477 0.0
C218 C 0.42987 0.24356 0.69284 0.0
C219 C 0.40632 0.26642 0.71185 0.0
C220 C 0.43075 0.31827 0.67515 0.0
C221 C 0.45428 0.29545 0.6561 0.0
C222 C 0.38188 0.32798 0.72228 0.0
C223 C 0.34668 0.37657 0.84508 0.0
C224 C 0.34621 0.2684 0.8473 0.0
C225 C 0.18009 0.33439 0.88614 0.0
C226 C 0.12025 0.38165 0.88385 0.0
C227 C 0.13195 0.36658 0.91806 0.0
C228 C 0.16199 0.34329 0.91925 0.0
C229 C 0.16607 0.34698 0.85141 0.0
C230 C 0.13663 0.3709 0.85034 0.0
C231 C 0.21785 0.31841 0.88861 0.0
H232 H 0.4288 0.2146 0.6998 0.0
H233 H 0.38768 0.25493 0.73328 0.0
H234 H 0.43131 0.34719 0.66813 0.0
H235 H 0.47302 0.30734 0.63496 0.0
H236 H 0.11986 0.37498 0.94429 0.0
H237 H 0.17272 0.33417 0.9463 0.0
H238 H 0.17963 0.34023 0.82552 0.0
H239 H 0.12801 0.38239 0.82378 0.0
Dy240 Dy 0.79197 0.332 0.7922 0.0
Dy241 Dy 0.86349 0.29291 0.83316 0.0
C242 C 0.8384 0.36756 0.86874 0.0
O243 O 0.84098 0.35115 0.7547 0.0
O244 O 0.89231 0.32988 0.78946 0.0
O245 O 0.76099 0.37939 0.77979 0.0
O246 O 0.73504 0.32373 0.76058 0.0
O247 O 0.8393 0.25013 0.78721 0.0
O248 O 0.80026 0.28496 0.7514 0.0
O249 O 0.81193 0.26749 0.86358 0.0
O250 O 0.76218 0.2988 0.83878 0.0
O251 O 0.89445 0.24738 0.85148 0.0
O252 O 0.92043 0.30442 0.8647 0.0
C253 C 0.87915 0.34836 0.76079 0.0
O254 O 0.8245 0.37516 0.83493 0.0
O255 O 0.84549 0.33374 0.87572 0.0
C256 C 0.69333 0.3625 0.78698 0.0
C257 C 0.62651 0.36945 0.82851 0.0
C258 C 0.66255 0.36225 0.8467 0.0
C259 C 0.69555 0.35908 0.82621 0.0
C260 C 0.65715 0.36788 0.7681 0.0
C261 C 0.62385 0.37162 0.78884 0.0
C262 C 0.7288 0.35826 0.76661 0.0
C263 C 0.81664 0.25433 0.75667 0.0
C264 C 0.77478 0.27475 0.86241 0.0
C265 C 0.96271 0.26062 0.84726 0.0
C266 C 1.01571 0.22873 0.80143 0.0
C267 C 0.99987 0.26145 0.79119 0.0
C268 C 0.97368 0.27719 0.81391 0.0
C269 C 0.98201 0.23095 0.86008 0.0
C270 C 1.00883 0.21536 0.8375 0.0
C271 C 0.92627 0.26938 0.86387 0.0
H272 H 0.66625 0.36149 0.87724 0.0
H273 H 0.72326 0.35502 0.84129 0.0
H274 H 0.65489 0.36992 0.73765 0.0
H275 H 0.59653 0.37742 0.77415 0.0
H276 H 1.00392 0.27284 0.76378 0.0
H277 H 0.95924 0.30022 0.80353 0.0
H278 H 0.97406 0.21803 0.88601 0.0
H279 H 1.02146 0.19095 0.84689 0.0
Dy280 Dy 0.84146 0.82454 0.83351 0.0
Dy281 Dy 0.77434 0.80574 0.77154 0.0
C282 C 0.86149 0.76706 0.75964 0.0
O283 O 0.86243 0.86348 0.78844 0.0
O284 O 0.81 0.85481 0.74438 0.0
O285 O 0.89212 0.81039 0.86691 0.0
O286 O 0.87266 0.86472 0.87546 0.0
O287 O 0.74168 0.84491 0.81318 0.0
O288 O 0.79321 0.86079 0.85695 0.0
O289 O 0.75198 0.76731 0.81729 0.0
O290 O 0.80458 0.77774 0.86076 0.0
O291 O 0.72706 0.81744 0.73214 0.0
O292 O 0.74056 0.76063 0.73736 0.0
C293 C 0.84558 0.87199 0.75593 0.0
O294 O 0.87193 0.78241 0.79456 0.0
O295 O 0.8255 0.77368 0.74537 0.0
C296 C 0.89252 0.83352 0.92896 0.0
C297 C 0.88786 0.79824 0.99772 0.0
C298 C 0.85303 0.80504 0.97716 0.0
C299 C 0.85535 0.8226 0.94297 0.0
C300 C 0.92727 0.83 0.95109 0.0
C301 C 0.92499 0.81264 0.98542 0.0
C302 C 0.89481 0.84061 0.88878 0.0
C303 C 0.75526 0.864 0.84589 0.0
C304 C 0.76915 0.76029 0.8501 0.0
C305 C 0.72127 0.77895 0.67691 0.0
C306 C 0.72727 0.79848 0.60175 0.0
C307 C 0.68979 0.79294 0.61729 0.0
C308 C 0.68698 0.78359 0.65479 0.0
C309 C 0.75726 0.77761 0.65972 0.0
C310 C 0.76003 0.78652 0.62195 0.0
C311 C 0.72071 0.78305 0.71812 0.0
H312 H 0.82411 0.79432 0.98608 0.0
H313 H 0.82816 0.82493 0.92607 0.0
H314 H 0.95615 0.83789 0.94044 0.0
H315 H 0.95237 0.8074 1.00042 0.0
H316 H 0.66338 0.80095 0.60281 0.0
H317 H 0.65883 0.78403 0.66756 0.0
H318 H 0.78402 0.77327 0.67631 0.0
H319 H 0.78896 0.78884 0.6104 0.0
Fe320 Fe 0.06553 0.14722 0.52515 0.0
O321 O 0.05351 0.09187 0.52681 0.0
Fe322 Fe 0.10328 0.06462 0.5541 0.0
Fe323 Fe 1.00558 0.06674 0.5516 0.0
O324 O 0.06029 0.09239 0.52891 0.0
O325 O 0.05541 0.03992 0.57908 0.0
O326 O 0.04874 0.03942 0.57709 0.0
Fe327 Fe 0.04459 0.98474 0.58151 0.0
C328 C 1.02435 0.14012 0.59717 0.0
O329 O 1.01398 0.14197 0.48756 0.0
O330 O 0.96783 0.10419 0.51803 0.0
O331 O 0.08383 0.97521 0.54142 0.0
O332 O 0.09146 1.02629 0.50935 0.0
O333 O 0.14613 0.09862 0.51964 0.0
O334 O 0.10715 0.13672 0.48684 0.0
O335 O 0.99401 1.02648 0.50723 0.0
O336 O 0.99865 0.97534 0.53971 0.0
C337 C 0.14059 0.12313 0.49315 0.0
O338 O 0.09421 0.99163 0.62039 0.0
O339 O 0.14085 1.02708 0.58838 0.0
O340 O 1.02858 0.1576 0.56711 0.0
O341 O 1.01647 0.1049 0.59643 0.0
C342 C 0.97703 0.13012 0.49286 0.0
C343 C 0.98707 0.9912 0.51027 0.0
C344 C 0.96833 1.00834 0.61187 0.0
O345 O 0.96272 1.03282 0.5855 0.0
O346 O 1.00165 0.99469 0.61828 0.0
C347 C 0.08474 0.9911 0.51027 0.0
O348 O 0.11495 0.10422 0.59857 0.0
O349 O 0.11353 0.15538 0.56561 0.0
C350 C 0.13119 1.00241 0.61474 0.0
C351 C 0.12432 0.139 0.59504 0.0
Fe352 Fe 0.54093 1.0334 0.03311 0.0
O353 O 0.57022 0.07819 1.0102 0.0
Fe354 Fe 0.45321 0.07487 0.05808 0.0
Fe355 Fe 0.62895 0.08574 1.01062 0.0
O356 O 0.51242 0.07526 0.05735 0.0
O357 O 0.51161 0.08166 0.05761 0.0
O358 O 0.56917 0.0856 1.01022 0.0
Fe359 Fe 0.54306 0.12736 0.0384 0.0
C360 C 0.61761 1.03746 0.07847 0.0
O361 O 0.58039 0.9964 0.99929 0.0
O362 O 0.62345 1.03852 0.97059 0.0
O363 O 0.50068 0.13344 0.99197 0.0
O364 O 0.44485 0.11678 1.01956 0.0
O365 O 0.4435 1.03556 1.01353 0.0
O366 O 0.50076 1.02781 0.9874 0.0
O367 O 0.62159 0.12871 0.9755 0.0
O368 O 0.58442 0.1669 1.00999 0.0
C369 C 0.46302 1.02474 0.98629 0.0
O370 O 0.50839 0.16198 0.07624 0.0
O371 O 0.46207 0.11865 0.10014 0.0
O372 O 0.58044 1.03759 0.0794 0.0
O373 O 0.63643 0.04721 0.05005 0.0
C374 C 0.60971 1.00372 0.97529 0.0
C375 C 0.61032 0.16106 0.98426 0.0
C376 C 0.62249 0.13647 0.08357 0.0
O377 O 0.63944 0.12751 0.05386 0.0
O378 O 0.58486 0.12893 0.08511 0.0
C379 C 0.46301 0.13454 0.9939 0.0
O380 O 0.45832 1.0298 0.09342 0.0
O381 O 0.50187 0.99344 0.06598 0.0
C382 C 0.47974 0.15265 0.09978 0.0
C383 C 0.47384 0.99852 0.09016 0.0
Fe384 Fe 1.01325 0.61728 0.0938 0.0
O385 O 0.99968 0.56274 0.10071 0.0
Fe386 Fe 0.08915 0.62063 0.03082 0.0
Fe387 Fe 0.94497 0.54013 0.11019 0.0
O388 O 1.03681 0.60159 0.04625 0.0
O389 O 1.03601 0.59935 0.04392 0.0
O390 O 0.99846 0.5602 0.09784 0.0
Fe391 Fe 1.0208 0.54521 0.04952 0.0
C392 C 0.96965 0.60421 0.16855 0.0
O393 O 0.96096 0.61772 0.0625 0.0
O394 O 0.9176 0.58698 0.09783 0.0
O395 O 0.04547 0.53532 0.99896 0.0
O396 O 0.07139 0.5922 0.97856 0.0
O397 O 0.06126 0.66827 1.02469 0.0
O398 O 1.02859 0.67248 0.08017 0.0
O399 O 0.92789 0.51615 0.05616 0.0
O400 O 0.96795 0.54707 1.01836 0.0
C401 C 1.04269 0.68598 0.04968 0.0
O402 O 0.07371 0.54147 0.07878 0.0
O403 O 0.11622 0.57374 0.04317 0.0
O404 O 0.98558 0.62658 0.14422 0.0
O405 O 0.96019 0.56834 0.16238 0.0
C406 C 0.92671 0.61213 0.07487 0.0
C407 C 0.93703 0.52476 1.02303 0.0
C408 C 0.9903 0.47537 0.09086 0.0
O409 O 0.97257 0.49236 0.11697 0.0
O410 O 1.00374 0.49007 0.0608 0.0
C411 C 0.05909 0.55669 0.97315 0.0
O412 O 0.10864 0.64391 0.08419 0.0
O413 O 0.0669 0.61964 0.12564 0.0
C414 C 0.108 0.54868 0.06658 0.0
C415 C 0.09996 0.63772 0.11807 0.0
Fe416 Fe 0.55207 0.58691 1.00992 0.0
O417 O 0.59094 0.56074 0.04242 0.0
Fe418 Fe 0.46796 0.57572 0.06406 0.0
Fe419 Fe 0.64514 0.55174 0.03494 0.0
O420 O 0.52072 0.56757 0.05253 0.0
O421 O 0.52222 0.56579 0.05693 0.0
O422 O 0.5923 0.5591 0.04653 0.0
Fe423 Fe 0.5617 0.53991 0.08964 0.0
C424 C 0.58188 0.5164 0.97076 0.0
O425 O 0.59216 0.60631 0.97012 0.0
O426 O 0.65137 0.59849 0.99957 0.0
O427 O 0.5598 0.59066 0.12058 0.0
O428 O 0.49664 0.61015 0.10926 0.0
O429 O 0.46494 0.62146 1.02456 0.0
O430 O 0.50821 0.61504 0.98009 0.0
O431 O 0.66008 0.58598 0.08353 0.0
O432 O 0.60182 0.58661 0.11521 0.0
C433 C 0.47733 0.62936 0.99128 0.0
O434 O 0.52208 0.52085 0.12995 0.0
O435 O 0.46237 0.5305 0.10248 0.0
O436 O 0.55361 0.53706 0.97746 0.0
O437 O 0.61745 0.51924 0.98794 0.0
C438 C 0.63046 0.61336 0.97384 0.0
C439 C 0.6394 0.5985 0.11012 0.0
C440 C 0.6369 0.49744 0.10553 0.0
O441 O 0.64625 0.50471 0.07126 0.0
O442 O 0.60711 0.51198 0.11917 0.0
C443 C 0.53235 0.6126 0.12619 0.0
O444 O 0.45338 0.53955 1.01679 0.0
O445 O 0.51175 0.54006 0.98472 0.0
C446 C 0.48364 0.51498 0.12767 0.0
C447 C 0.47445 0.52744 0.99022 0.0
Fe448 Fe 0.07249 0.50885 0.5618 0.0
O449 O 0.04896 0.54986 0.59241 0.0
Fe450 Fe 0.0993 0.55625 0.48149 0.0
Fe451 Fe 0.04814 0.5527 0.64902 0.0
O452 O 0.09904 0.5544 0.53751 0.0
O453 O 0.09876 0.5613 0.5383 0.0
O454 O 0.04924 0.5562 0.59341 0.0
Fe455 Fe 0.0721 0.60186 0.56665 0.0
C456 C 1.01139 0.47395 0.62077 0.0
O457 O 0.12059 0.50822 0.60256 0.0
O458 O 0.0905 0.51363 0.65638 0.0
O459 O 0.1037 0.64312 0.52843 0.0
O460 O 0.13721 0.60642 0.48944 0.0
O461 O 0.14069 0.51761 0.48772 0.0
O462 O 0.1055 0.47416 0.52267 0.0
O463 O 0.09319 0.59511 0.65925 0.0
O464 O 0.12039 0.61161 0.60544 0.0
C465 C 0.13284 0.48337 0.49784 0.0
O466 O 1.02452 0.59287 0.52884 0.0
O467 O 0.05309 0.58837 0.4737 0.0
O468 O 1.03718 0.46902 0.59482 0.0
O469 O 1.00704 0.50586 0.63762 0.0
C470 C 0.11839 0.50175 0.63788 0.0
C471 C 0.12166 0.61037 0.64142 0.0
C472 C 1.01085 0.62933 0.63248 0.0
O473 O 1.00872 0.59629 0.64689 0.0
O474 O 1.03505 0.63698 0.60414 0.0
C475 C 0.12961 0.63914 0.50171 0.0
O476 O 0.05828 0.50927 0.47056 0.0
O477 O 1.02339 0.50245 0.52103 0.0
C478 C 1.0233 0.59243 0.49301 0.0
C479 C 1.0271 0.49576 0.48564 0.0
Fe480 Fe 0.6036 1.00534 0.50271 0.0
O481 O 0.6453 0.04341 0.53904 0.0
Fe482 Fe 0.61728 0.06111 0.42106 0.0
Fe483 Fe 0.64689 0.04904 0.59895 0.0
O484 O 0.61646 0.05315 0.47686 0.0
O485 O 0.6114 0.06925 0.48084 0.0
O486 O 0.64011 0.06 0.54396 0.0
Fe487 Fe 0.64826 0.10828 0.52032 0.0
C488 C 0.56352 1.02664 0.57372 0.0
O489 O 0.65505 1.0029 0.53735 0.0
O490 O 0.67324 0.99983 0.59518 0.0
O491 O 0.68807 0.09001 0.48533 0.0
O492 O 0.67116 0.09691 0.42578 0.0
O493 O 0.648 1.01512 0.418 0.0
O494 O 0.64093 0.98184 0.46943 0.0
O495 O 0.70112 0.08235 0.60372 0.0
O496 O 0.69274 0.12708 0.56251 0.0
C497 C 0.65521 0.98791 0.43782 0.0
O498 O 0.60064 0.11103 0.47974 0.0
O499 O 0.5904 0.10931 0.41933 0.0
O500 O 0.56426 1.02682 0.53776 0.0
O501 O 0.59245 1.0179 0.59474 0.0
C502 C 0.66357 0.98233 0.56371 0.0
C503 C 0.71092 0.11471 0.59127 0.0
C504 C 0.60193 0.12003 0.58912 0.0
O505 O 0.61828 0.0959 0.60781 0.0
O506 O 0.60696 0.12508 0.55437 0.0
C507 C 0.69366 0.1072 0.45552 0.0
O508 O 0.56286 1.02698 0.41428 0.0
O509 O 0.55593 0.9893 0.46358 0.0
C510 C 0.59693 0.12915 0.44993 0.0
C511 C 0.54361 1.00071 0.4316 0.0
H512 H 0.28553 0.2254 0.42115 0.0
H513 H 0.1947 0.22229 0.3298 0.0
H514 H 0.15047 0.18017 0.36364 0.0
H515 H 0.13403 0.14559 0.41999 0.0
H516 H 0.22222 0.14503 0.5124 0.0
H517 H 0.26974 0.18543 0.4777 0.0
C518 C 0.2562 0.21541 0.40837 0.0
C519 C 0.24446 0.2282 0.37197 0.0
C520 C 0.22976 0.18976 0.42842 0.0
C521 C 0.20578 0.21394 0.35703 0.0
C522 C 0.1799 0.18942 0.37664 0.0
C523 C 0.16391 0.15348 0.4326 0.0
C524 C 0.17383 0.14098 0.46927 0.0
C525 C 0.19118 0.17723 0.41241 0.0
C526 C 0.2131 0.15272 0.48429 0.0
C527 C 0.24039 0.17657 0.46437 0.0
H528 H 0.88932 0.20847 0.35118 0.0
H529 H 0.83142 0.26038 0.44058 0.0
H530 H 0.8646 0.22417 0.48702 0.0
H531 H 0.91404 0.17817 0.50517 0.0
H532 H 0.97144 0.12666 0.41509 0.0
H533 H 0.93583 0.1608 0.36877 0.0
C534 C 0.88341 0.21209 0.38073 0.0
C535 C 0.85607 0.23828 0.39072 0.0
C536 C 0.90328 0.19026 0.40851 0.0
C537 C 0.85075 0.24103 0.43023 0.0
C538 C 0.87037 0.21994 0.4575 0.0
C539 C 0.91814 0.17317 0.47539 0.0
C540 C 0.94581 0.14729 0.46505 0.0
C541 C 0.89704 0.19418 0.44749 0.0
C542 C 0.95045 0.14442 0.42544 0.0
C543 C 0.92994 0.16472 0.39829 0.0
H544 H 0.88921 0.90555 0.36654 0.0
H545 H 0.89752 0.81278 0.43808 0.0
H546 H 0.93625 0.85404 0.48654 0.0
H547 H 0.96626 0.9161 0.50965 0.0
H548 H 0.95757 1.01017 0.44008 0.0
H549 H 0.92069 0.96869 0.38992 0.0
C550 C 0.89968 0.89427 0.39263 0.0
C551 C 0.89022 0.85584 0.39844 0.0
C552 C 0.92177 0.91843 0.42089 0.0
C553 C 0.90401 0.84203 0.43264 0.0
C554 C 0.92626 0.86569 0.46049 0.0
C555 C 0.95637 0.92784 0.4836 0.0
C556 C 0.96462 0.96656 0.47904 0.0
C557 C 0.935 0.90392 0.45508 0.0
C558 C 0.95151 0.98071 0.44474 0.0
C559 C 0.93045 0.9569 0.41595 0.0
H560 H 0.04381 0.92399 0.34506 0.0
H561 H 0.09714 0.83325 0.39459 0.0
H562 H 0.09015 0.85969 0.45729 0.0
H563 H 0.08948 0.91736 0.4966 0.0
H564 H 0.05223 1.0145 0.445 0.0
H565 H 1.03537 0.9786 0.38511 0.0
C566 C 0.05379 0.90981 0.36955 0.0
C567 C 0.07419 0.87845 0.36459 0.0
C568 C 0.05495 0.92776 0.4055 0.0
C569 C 0.08296 0.85844 0.39676 0.0
C570 C 0.07986 0.87402 0.43305 0.0
C571 C 0.07747 0.93054 0.47226 0.0
C572 C 0.07347 0.96874 0.47471 0.0
C573 C 0.0696 0.91026 0.43744 0.0
C574 C 0.05708 0.9854 0.44329 0.0
C575 C 0.04687 0.96478 0.40921 0.0
H576 H 0.20776 0.91767 0.75703 0.0
H577 H 0.27898 0.87588 0.67212 0.0
H578 H 0.24853 0.91344 0.62511 0.0
H579 H 0.19822 0.95803 0.60496 0.0
H580 H 0.13014 1.00158 0.69168 0.0
H581 H 0.16197 0.9653 0.73837 0.0
C582 C 0.21705 0.91648 0.72835 0.0
C583 C 0.24658 0.89222 0.71961 0.0
C584 C 0.1995 0.93964 0.70045 0.0
C585 C 0.25697 0.89306 0.68132 0.0
C586 C 0.23919 0.91509 0.65376 0.0
C587 C 0.19097 0.96088 0.63421 0.0
C588 C 0.16123 0.98496 0.64341 0.0
C589 C 0.21009 0.9388 0.66247 0.0
C590 C 0.15272 0.98516 0.68225 0.0
C591 C 0.17102 0.96361 0.70961 0.0
H592 H 0.26347 0.24085 0.68992 0.0
H593 H 0.18219 0.22449 0.7782 0.0
H594 H 0.13585 0.18305 0.73504 0.0
H595 H 0.11739 0.15246 0.67104 0.0
H596 H 0.19608 0.17448 0.58167 0.0
H597 H 0.24439 0.21211 0.62614 0.0
C598 C 0.23586 0.22785 0.69989 0.0
C599 C 0.22667 0.23549 0.73749 0.0
C600 C 0.20874 0.20495 0.67452 0.0
C601 C 0.19022 0.219 0.74953 0.0
C602 C 0.16364 0.19527 0.72481 0.0
C603 C 0.14526 0.16535 0.66153 0.0
C604 C 0.1534 0.16047 0.62322 0.0
C605 C 0.17242 0.18816 0.68711 0.0
C606 C 0.18929 0.17779 0.61104 0.0
C607 C 0.21691 0.19931 0.63647 0.0
H608 H 0.05787 0.25044 0.74092 0.0
H609 H 1.00554 0.15228 0.79323 0.0
H610 H 1.00744 0.11546 0.73474 0.0
H611 H 1.01108 0.11351 0.66616 0.0
H612 H 0.05492 0.21314 0.61152 0.0
H613 H 0.06692 0.24726 0.67294 0.0
C614 C 0.04704 0.22094 0.73967 0.0
C615 C 1.0303 0.20476 0.77133 0.0
C616 C 0.04493 0.20041 0.70497 0.0
C617 C 1.0185 0.16598 0.76961 0.0
C618 C 1.01875 0.14484 0.73577 0.0
C619 C 1.0232 0.14271 0.66759 0.0
C620 C 1.03092 0.16102 0.6342 0.0
C621 C 1.02957 0.16228 0.70283 0.0
C622 C 0.04751 0.19865 0.63671 0.0
C623 C 0.05485 0.21808 0.67185 0.0
H624 H 0.82715 0.90308 0.68416 0.0
H625 H 0.9194 0.90841 0.77459 0.0
H626 H 0.96149 0.9524 0.74095 0.0
H627 H 0.9758 0.98772 0.68504 0.0
H628 H 0.887 0.98509 0.59267 0.0
H629 H 0.84086 0.94363 0.62776 0.0
C630 C 0.85632 0.91396 0.69675 0.0
C631 C 0.86926 0.90123 0.73273 0.0
C632 C 0.88156 0.94052 0.67675 0.0
C633 C 0.90762 0.91657 0.74754 0.0
C634 C 0.9322 0.94221 0.72812 0.0
C635 C 0.94605 0.97887 0.67253 0.0
C636 C 0.93545 0.99069 0.63585 0.0
C637 C 0.91988 0.95424 0.69264 0.0
C638 C 0.89647 0.97786 0.62085 0.0
C639 C 0.87006 0.95338 0.64092 0.0
H640 H 0.43476 0.27681 0.22867 0.0
H641 H 0.32127 0.20894 0.21159 0.0
H642 H 0.34851 0.16884 0.16513 0.0
H643 H 0.40405 0.15091 0.1279 0.0
H644 H 0.51687 0.21989 0.13885 0.0
H645 H 0.49087 0.26025 0.18715 0.0
C646 C 0.41578 0.25316 0.21512 0.0
C647 C 0.37501 0.24659 0.22549 0.0
C648 C 0.43181 0.22982 0.18626 0.0
C649 C 0.35214 0.21564 0.2057 0.0
C650 C 0.36798 0.19227 0.17855 0.0
C651 C 0.42344 0.17483 0.14044 0.0
C652 C 0.46335 0.18119 0.12834 0.0
C653 C 0.40772 0.19879 0.16831 0.0
C654 C 0.48643 0.21324 0.14608 0.0
C655 C 0.47128 0.23659 0.17439 0.0
H656 H 0.98466 0.31303 0.13788 0.0
H657 H 0.89239 0.29889 0.04742 0.0
H658 H 0.91696 0.3597 1.02465 0.0
H659 H 0.95061 0.42277 0.04302 0.0
H660 H 1.03167 0.43949 0.14236 0.0
H661 H 1.02531 0.37208 0.15003 0.0
C662 C 0.97093 0.3223 0.11208 0.0
C663 C 0.93578 0.30219 0.09517 0.0
C664 C 0.98217 0.35873 0.10217 0.0
C665 C 0.91905 0.31428 0.06131 0.0
C666 C 0.93255 0.3494 0.04888 0.0
C667 C 0.96735 0.41128 0.06583 0.0
C668 C 0.99083 0.43534 0.0927 0.0
C669 C 0.96169 0.37296 0.07114 0.0
C670 C 1.01281 0.42098 0.12206 0.0
C671 C 1.00933 0.38263 0.12619 0.0
H672 H 0.74835 0.97145 0.17473 0.0
H673 H 0.6878 0.86987 0.11938 0.0
H674 H 0.63488 0.90401 0.09434 0.0
H675 H 0.60984 0.96372 0.0827 0.0
H676 H 0.67396 0.06587 0.13251 0.0
H677 H 0.72139 1.0306 0.16597 0.0
C678 C 0.72371 0.95685 0.15696 0.0
C679 C 0.72225 0.91837 0.14836 0.0
C680 C 0.6939 0.97671 0.14219 0.0
C681 C 0.68958 0.89954 0.12627 0.0
C682 C 0.65937 0.91901 0.11197 0.0
C683 C 0.63348 0.97792 0.10199 0.0
C684 C 0.63835 1.01692 0.10613 0.0
C685 C 0.6616 0.95766 0.11922 0.0
C686 C 0.66956 1.03565 0.12989 0.0
C687 C 0.69682 1.01557 0.14848 0.0
H688 H 0.18926 0.73643 0.25641 0.0
H689 H 0.2875 0.73469 0.18505 0.0
H690 H 0.24571 0.6923 0.13885 0.0
H691 H 0.17976 0.65927 0.11676 0.0
H692 H 0.08249 0.65919 0.18965 0.0
H693 H 0.12549 0.69827 0.23737 0.0
C694 C 0.20166 0.72658 0.23085 0.0
C695 C 0.24143 0.73914 0.22401 0.0
C696 C 0.17757 0.70185 0.20468 0.0
C697 C 0.2571 0.72557 0.19105 0.0
C698 C 0.23311 0.70141 0.16455 0.0
C699 C 0.16807 0.6674 0.1433 0.0
C700 C 0.12772 0.65637 0.1494 0.0
C701 C 0.1931 0.68985 0.17078 0.0
C702 C 0.11332 0.66696 0.18416 0.0
C703 C 0.13788 0.68961 0.21139 0.0
H704 H 0.39721 0.92428 0.84173 0.0
H705 H 0.29843 0.90231 0.91181 0.0
H706 H 0.32923 0.95007 0.9589 0.0
H707 H 0.38709 0.99239 0.98304 0.0
H708 H 0.48903 1.01055 0.91609 0.0
H709 H 0.45398 0.97004 0.86455 0.0
C710 C 0.38223 0.93054 0.86703 0.0
C711 C 0.34591 0.90995 0.87366 0.0
C712 C 0.40081 0.95694 0.89457 0.0
C713 C 0.32669 0.9178 0.90651 0.0
C714 C 0.34424 0.945 0.93336 0.0
C715 C 0.40149 0.98801 0.95697 0.0
C716 C 0.44066 1.00412 0.95347 0.0
C717 C 0.38178 0.96389 0.92816 0.0
C718 C 0.45896 0.99806 0.91957 0.0
C719 C 0.43898 0.97495 0.89013 0.0
H720 H 0.14536 0.45368 0.87475 0.0
H721 H 1.04209 0.37891 0.89735 0.0
H722 H 1.00769 0.432 0.91614 0.0
H723 H 1.01373 0.49679 0.9401 0.0
H724 H 0.12153 0.5699 0.92806 0.0
H725 H 0.14678 0.52129 0.88926 0.0
C726 C 0.11481 0.44934 0.88253 0.0
C727 C 0.09604 0.4128 0.88489 0.0
C728 C 0.0963 0.47983 0.89535 0.0
C729 C 0.0568 0.40698 0.89543 0.0
C730 C 1.03734 0.43726 0.90628 0.0
C731 C 1.04219 0.50249 0.92779 0.0
C732 C 0.06622 0.53643 0.9376 0.0
C733 C 0.05769 0.47351 0.9084 0.0
C734 C 0.10259 0.54393 0.92103 0.0
C735 C 0.11731 0.51586 0.89944 0.0
H736 H 0.69262 0.27704 0.87205 0.0
H737 H 0.79459 0.22715 0.91562 0.0
H738 H 0.75402 0.19267 0.95896 0.0
H739 H 0.68972 0.17262 0.98292 0.0
H740 H 0.58524 0.2184 0.94098 0.0
H741 H 0.62625 0.2586 0.90004 0.0
C742 C 0.70603 0.25873 0.89109 0.0
C743 C 0.7473 0.25495 0.88962 0.0
C744 C 0.68193 0.23815 0.91682 0.0
C745 C 0.76343 0.23098 0.91513 0.0
C746 C 0.74008 0.21103 0.94036 0.0
C747 C 0.67578 0.19192 0.96539 0.0
C748 C 0.6342 0.1925 0.96571 0.0
C749 C 0.69937 0.21398 0.94126 0.0
C750 C 0.61707 0.21762 0.94228 0.0
C751 C 0.64064 0.24029 0.91834 0.0
H752 H 0.84425 0.73055 0.99244 0.0
H753 H 0.92951 0.80183 0.06659 0.0
H754 H 0.94208 0.74865 0.10382 0.0
H755 H 0.93951 0.68089 0.10598 0.0
H756 H 0.85974 0.609 0.02782 0.0
H757 H 0.83299 0.6635 1.00201 0.0
C758 C 0.86434 0.73476 1.01769 0.0
C759 C 0.88631 0.76992 1.02661 0.0
C760 C 0.87255 0.70382 0.03789 0.0
C761 C 0.91264 0.7749 0.05906 0.0
C762 C 0.91991 0.74451 0.08019 0.0
C763 C 0.91512 0.6773 0.08432 0.0
C764 C 0.90131 0.64146 0.06866 0.0
C765 C 0.90165 0.70864 0.06855 0.0
C766 C 0.87026 0.63656 0.04036 0.0
C767 C 0.85544 0.66769 1.0254 0.0
H768 H 0.21773 0.44284 0.14179 0.0
H769 H 0.14472 0.36292 0.06529 0.0
H770 H 0.11543 0.41354 0.03485 0.0
H771 H 0.10328 0.47919 0.03709 0.0
H772 H 0.17397 0.55885 0.11513 0.0
H773 H 0.21221 0.50969 0.13781 0.0
C774 C 0.1964 0.43658 0.11763 0.0
C775 C 0.18309 0.39924 0.10595 0.0
C776 C 0.17901 0.46571 0.10103 0.0
C777 C 0.15503 0.39147 0.07496 0.0
C778 C 0.13823 0.42035 0.05769 0.0
C779 C 0.12781 0.48575 0.05837 0.0
C780 C 0.13619 0.52211 0.07463 0.0
C781 C 0.14882 0.45735 0.07157 0.0
C782 C 0.16756 0.53084 0.10226 0.0
C783 C 0.1891 0.50277 0.11528 0.0
H784 H 0.07891 0.82223 0.96338 0.0
H785 H 0.17987 0.83393 0.0448 0.0
H786 H 0.14233 0.79372 0.08696 0.0
H787 H 0.09196 0.73922 0.08791 0.0
H788 H 0.99726 0.72065 1.00025 0.0
H789 H 1.01994 0.78017 0.97385 0.0
C790 C 0.09209 0.81769 0.9912 0.0
C791 C 0.13264 0.82956 1.00034 0.0
C792 C 0.0714 0.79232 1.01373 0.0
C793 C 0.14902 0.82402 0.03674 0.0
C794 C 0.12767 0.80071 0.06064 0.0
C795 C 0.07526 0.7494 0.06424 0.0
C796 C 0.04365 0.72595 0.04541 0.0
C797 C 0.09043 0.78201 0.04764 0.0
C798 C 1.02195 0.73856 1.01472 0.0
C799 C 1.03519 0.77233 0.99951 0.0
H800 H 0.32932 0.22223 0.90828 0.0
H801 H 0.42559 0.25849 0.83978 0.0
H802 H 0.46957 0.22233 0.87653 0.0
H803 H 0.48252 0.17962 0.93012 0.0
H804 H 0.38412 0.14311 0.9965 0.0
H805 H 0.34132 0.17895 0.95954 0.0
C806 C 0.35985 0.22234 0.90099 0.0
C807 C 0.3731 0.24397 0.87032 0.0
C808 C 0.38565 0.20079 0.92254 0.0
C809 C 0.4134 0.24273 0.86252 0.0
C810 C 0.43903 0.22175 0.88392 0.0
C811 C 0.45172 0.17917 0.93661 0.0
C812 C 0.43774 0.15752 0.96724 0.0
C813 C 0.42583 0.20048 0.91432 0.0
C814 C 0.39708 0.15854 0.9739 0.0
C815 C 0.37196 0.17947 0.95244 0.0
H816 H 0.87506 0.43924 0.86593 0.0
H817 H 0.82371 0.36035 0.94223 0.0
H818 H 0.84629 0.40352 0.99628 0.0
H819 H 0.88514 0.46118 1.02254 0.0
H820 H 0.94177 0.53861 0.94758 0.0
H821 H 0.91262 0.49894 0.8927 0.0
C822 C 0.8681 0.43198 0.89434 0.0
C823 C 0.84735 0.39675 0.90001 0.0
C824 C 0.8825 0.45661 0.92568 0.0
C825 C 0.83943 0.38733 0.93709 0.0
C826 C 0.85246 0.41198 0.96806 0.0
C827 C 0.89062 0.46986 0.99423 0.0
C828 C 0.91552 0.50315 0.98943 0.0
C829 C 0.87469 0.44637 0.96281 0.0
C830 C 0.92263 0.51333 0.95232 0.0
C831 C 0.90603 0.49053 0.92083 0.0
H832 H 0.67121 0.86042 0.87207 0.0
H833 H 0.78003 0.93551 0.87826 0.0
H834 H 0.74813 0.98151 0.91441 0.0
H835 H 0.68887 1.00413 0.94634 0.0
H836 H 0.5815 0.92809 0.94702 0.0
H837 H 0.61216 0.88206 0.9086 0.0
C838 C 0.68858 0.88679 0.88084 0.0
C839 C 0.73 0.89256 0.86981 0.0
C840 C 0.66946 0.91449 0.90422 0.0
C841 C 0.74929 0.92806 0.88418 0.0
C842 C 0.73046 0.95527 0.90563 0.0
C843 C 0.6714 0.97756 0.93855 0.0
C844 C 0.63088 0.97195 0.95142 0.0
C845 C 0.69041 0.94945 0.91623 0.0
C846 C 0.61166 0.93565 0.93939 0.0
C847 C 0.6298 0.90849 0.91658 0.0
H848 H 0.86674 0.6665 0.29221 0.0
H849 H 0.94347 0.76733 0.27414 0.0
H850 H 0.98401 0.73204 0.23522 0.0
H851 H 0.99202 0.67457 0.19896 0.0
H852 H 0.91499 0.57364 0.21572 0.0
H853 H 0.88111 0.60678 0.263 0.0
C854 C 0.89277 0.68064 0.28038 0.0
C855 C 0.90143 0.71965 0.28545 0.0
C856 C 0.91587 0.66022 0.25745 0.0
C857 C 0.9356 0.73742 0.27025 0.0
C858 C 0.95888 0.71727 0.24787 0.0
C859 C 0.9683 0.65959 0.21341 0.0
C860 C 0.95568 0.62182 0.20315 0.0
C861 C 0.94838 0.67894 0.24009 0.0
C862 C 0.92531 0.60277 0.22276 0.0
C863 C 0.90563 0.62179 0.24969 0.0
H864 H 0.42186 0.86507 0.20593 0.0
H865 H 0.31974 0.92541 0.21022 0.0
H866 H 0.34837 0.96904 0.16624 0.0
H867 H 0.4021 0.99267 0.12588 0.0
H868 H 0.50388 0.93305 0.11662 0.0
H869 H 0.47611 0.88815 0.16144 0.0
C870 C 0.40556 0.88764 0.19736 0.0
C871 C 0.36754 0.89074 0.2129 0.0
C872 C 0.42247 0.91358 0.17033 0.0
C873 C 0.34827 0.92093 0.19996 0.0
C874 C 0.36495 0.94649 0.17432 0.0
C875 C 0.41871 0.96992 0.13322 0.0
C876 C 0.45607 0.96758 0.11661 0.0
C877 C 0.40202 0.94345 0.15917 0.0
C878 C 0.4755 0.93676 0.12766 0.0
C879 C 0.45935 0.91073 0.1539 0.0
H880 H 0.75862 0.22945 0.19332 0.0
H881 H 0.66265 0.23679 0.26639 0.0
H882 H 0.61682 0.19908 0.21926 0.0
H883 H 0.60331 0.16463 0.15523 0.0
H884 H 0.70207 0.158 0.08482 0.0
H885 H 0.74633 0.1942 0.13241 0.0
C886 C 0.72773 0.22281 0.1993 0.0
C887 C 0.71457 0.2364 0.23387 0.0
C888 C 0.70146 0.20095 0.17203 0.0
C889 C 0.67414 0.22693 0.24043 0.0
C890 C 0.64772 0.20531 0.21323 0.0
C891 C 0.63451 0.17093 0.15032 0.0
C892 C 0.6486 0.15813 0.11562 0.0
C893 C 0.66087 0.19222 0.17858 0.0
C894 C 0.68952 0.16699 0.11057 0.0
C895 C 0.7153 0.18796 0.13802 0.0
H896 H 0.69083 0.72404 0.84501 0.0
H897 H 0.79992 0.73303 0.91562 0.0
H898 H 0.7685 0.68936 0.95858 0.0
H899 H 0.70948 0.64784 0.97753 0.0
H900 H 0.59964 0.64073 0.90828 0.0
H901 H 0.63149 0.6834 0.86463 0.0
C902 C 0.70796 0.71646 0.86967 0.0
C903 C 0.7484 0.73236 0.8762 0.0
C904 C 0.68926 0.69115 0.89515 0.0
C905 C 0.76916 0.72177 0.90902 0.0
C906 C 0.75101 0.69651 0.93394 0.0
C907 C 0.69232 0.65541 0.95288 0.0
C908 C 0.65158 0.64019 0.94687 0.0
C909 C 0.71099 0.68086 0.92751 0.0
C910 C 0.63065 0.65133 0.91442 0.0
C911 C 0.64904 0.67601 0.8891 0.0
H912 H 0.42047 0.73854 0.85745 0.0
H913 H 0.31576 0.73637 0.92039 0.0
H914 H 0.34482 0.69684 0.96622 0.0
H915 H 0.40083 0.66061 0.9909 0.0
H916 H 0.50446 0.6616 0.92638 0.0
H917 H 0.47575 0.70185 0.88145 0.0
C918 C 0.40352 0.72968 0.88105 0.0
C919 C 0.36461 0.74203 0.8838 0.0
C920 C 0.42086 0.70568 0.9084 0.0
C921 C 0.345 0.72866 0.91578 0.0
C922 C 0.36203 0.70549 0.94271 0.0
C923 C 0.41767 0.6695 0.96725 0.0
C924 C 0.45631 0.65662 0.96389 0.0
C925 C 0.40014 0.69344 0.93981 0.0
C926 C 0.47549 0.66969 0.93155 0.0
C927 C 0.45869 0.69332 0.9051 0.0
H928 H 0.36251 0.38627 0.92142 0.0
H929 H 0.3948 0.43364 0.81642 0.0
H930 H 0.44061 0.4825 0.85133 0.0
H931 H 0.46922 0.51413 0.91263 0.0
H932 H 0.434 0.46681 1.01676 0.0
H933 H 0.39255 0.41563 0.98145 0.0
C934 C 0.37954 0.40722 0.90606 0.0
C935 C 0.37477 0.4063 0.86629 0.0
C936 C 0.40569 0.43538 0.9263 0.0
C937 C 0.39747 0.4337 0.84704 0.0
C938 C 0.42386 0.46168 0.86701 0.0
C939 C 0.45291 0.49224 0.9274 0.0
C940 C 0.45456 0.49435 0.96727 0.0
C941 C 0.428 0.46309 0.90675 0.0
C942 C 0.43302 0.46595 0.98609 0.0
C943 C 0.40917 0.43669 0.96593 0.0
H944 H 0.58699 0.42929 0.81844 0.0
H945 H 0.59842 0.33942 0.89283 0.0
H946 H 0.57914 0.37746 0.94569 0.0
H947 H 0.57814 0.44153 0.97285 0.0
H948 H 0.56568 0.53072 0.89811 0.0
H949 H 0.56595 0.48758 0.84291 0.0
C950 C 0.58327 0.41723 0.84567 0.0
C951 C 0.59603 0.38241 0.85232 0.0
C952 C 0.5734 0.43964 0.87607 0.0
C953 C 0.59009 0.36684 0.88753 0.0
C954 C 0.57954 0.3887 0.91785 0.0
C955 C 0.5745 0.45105 0.94438 0.0
C956 C 0.57333 0.48901 0.93897 0.0
C957 C 0.57443 0.4261 0.91296 0.0
C958 C 0.56746 0.50146 0.9024 0.0
C959 C 0.56755 0.47687 0.87098 0.0
H960 H 0.76498 0.38965 0.17756 0.0
H961 H 0.69455 0.39774 0.27417 0.0
H962 H 0.65257 0.43681 0.24011 0.0
H963 H 0.63288 0.47081 0.18208 0.0
H964 H 0.70205 0.46274 0.08476 0.0
H965 H 0.74471 0.42365 0.11877 0.0
C966 C 0.74066 0.39984 0.19164 0.0
C967 C 0.73462 0.38926 0.23003 0.0
C968 C 0.71496 0.42332 0.17101 0.0
C969 C 0.70166 0.40399 0.2456 0.0
C970 C 0.67688 0.42696 0.22569 0.0
C971 C 0.65708 0.46064 0.16779 0.0
C972 C 0.66262 0.4711 0.12938 0.0
C973 C 0.68272 0.43712 0.18817 0.0
C974 C 0.69534 0.45637 0.1134 0.0
C975 C 0.72048 0.43348 0.13331 0.0
H976 H 0.7587 0.72924 0.19188 0.0
H977 H 0.6926 0.69743 0.28791 0.0
H978 H 0.64802 0.65208 0.24757 0.0
H979 H 0.6306 0.61763 0.18532 0.0
H980 H 0.6972 0.65057 0.08994 0.0
H981 H 0.73836 0.6986 0.12949 0.0
C982 C 0.73442 0.7126 0.20402 0.0
C983 C 0.72947 0.71673 0.24305 0.0
C984 C 0.70887 0.68628 0.18068 0.0
C985 C 0.69748 0.69493 0.25803 0.0
C986 C 0.67186 0.66881 0.23494 0.0
C987 C 0.65352 0.63586 0.17311 0.0
C988 C 0.66074 0.63013 0.13467 0.0
C989 C 0.67759 0.66373 0.19625 0.0
C990 C 0.69116 0.65379 0.11951 0.0
C991 C 0.71481 0.68146 0.14211 0.0
H992 H 0.55012 0.71464 0.27149 0.0
H993 H 0.5377 0.79834 0.18997 0.0
H994 H 0.5482 0.75364 0.13889 0.0
H995 H 0.54054 0.68679 0.11733 0.0
H996 H 0.55029 0.6037 0.19969 0.0
H997 H 0.56079 0.65221 0.25088 0.0
C998 C 0.55154 0.72396 0.24289 0.0
C999 C 0.54022 0.75891 0.23414 0.0
C1000 C 0.55525 0.69761 0.21372 0.0
C1001 C 0.54425 0.77079 0.19711 0.0
C1002 C 0.54965 0.74509 0.16782 0.0
C1003 C 0.54547 0.67967 0.14653 0.0
C1004 C 0.54312 0.64219 0.15546 0.0
C1005 C 0.55142 0.70766 0.17565 0.0
C1006 C 0.55089 0.63267 0.19283 0.0
C1007 C 0.55719 0.6603 0.22189 0.0
H1008 H 0.43035 0.39886 0.25527 0.0
H1009 H 0.3136 0.41063 0.20589 0.0
H1010 H 0.34278 0.45421 0.16168 0.0
H1011 H 0.40202 0.48997 0.1352 0.0
H1012 H 0.51872 0.47804 0.18481 0.0
H1013 H 0.48939 0.43498 0.22925 0.0
C1014 C 0.41104 0.41096 0.23504 0.0
C1015 C 0.36911 0.40059 0.23485 0.0
C1016 C 0.42833 0.43667 0.20892 0.0
C1017 C 0.3456 0.41724 0.20759 0.0
C1018 C 0.36248 0.44255 0.1819 0.0
C1019 C 0.42128 0.47817 0.1557 0.0
C1020 C 0.46329 0.48826 0.15569 0.0
C1021 C 0.40391 0.45265 0.18199 0.0
C1022 C 0.48668 0.47172 0.18317 0.0
C1023 C 0.46974 0.44668 0.20903 0.0
H1024 H 0.88802 0.75701 0.67989 0.0
H1025 H 0.90378 0.7119 0.7895 0.0
H1026 H 0.94636 0.66857 0.76305 0.0
H1027 H 0.98161 0.64019 0.70845 0.0
H1028 H 0.97297 0.68897 0.60017 0.0
H1029 H 0.9281 0.73128 0.62562 0.0
C1030 C 0.90034 0.73784 0.69862 0.0
C1031 C 0.88986 0.73947 0.73842 0.0
C1032 C 0.92766 0.71227 0.68276 0.0
C1033 C 0.90895 0.71324 0.75971 0.0
C1034 C 0.93417 0.68763 0.74409 0.0
C1035 C 0.97045 0.65998 0.68973 0.0
C1036 C 0.9829 0.65914 0.6507 0.0
C1037 C 0.94425 0.6863 0.70554 0.0
C1038 C 0.96617 0.68688 0.6295 0.0
C1039 C 0.93952 0.7118 0.64456 0.0
H1040 H 0.41258 0.9719 0.64507 0.0
H1041 H 0.48401 1.02016 0.74396 0.0
H1042 H 0.52683 0.05799 0.7039 0.0
H1043 H 0.55578 0.05761 0.64245 0.0
H1044 H 0.48803 1.0036 0.54417 0.0
H1045 H 0.43122 0.98828 0.5821 0.0
C1046 C 0.43623 0.9921 0.65808 0.0
C1047 C 0.44656 0.99203 0.69712 0.0
C1048 C 0.46203 1.01174 0.63477 0.0
C1049 C 0.47661 1.01889 0.71371 0.0
C1050 C 0.50123 0.04023 0.6908 0.0
C1051 C 0.52795 0.04388 0.62912 0.0
C1052 C 0.52623 1.03026 0.59131 0.0
C1053 C 0.49635 1.03386 0.65139 0.0
C1054 C 0.49005 1.01346 0.57364 0.0
C1055 C 0.45772 1.00454 0.59537 0.0
H1056 H 0.25001 0.39428 0.69203 0.0
H1057 H 0.1966 0.40786 0.7983 0.0
H1058 H 0.15159 0.44796 0.76948 0.0
H1059 H 0.12537 0.48001 0.71356 0.0
H1060 H 0.1794 0.46794 0.60742 0.0
H1061 H 0.22481 0.42792 0.63628 0.0
C1062 C 0.2287 0.40599 0.70914 0.0
C1063 C 0.22749 0.39692 0.74803 0.0
C1064 C 0.2023 0.43006 0.69208 0.0
C1065 C 0.19897 0.41324 0.76869 0.0
C1066 C 0.17287 0.43664 0.75201 0.0
C1067 C 0.14715 0.46896 0.69653 0.0
C1068 C 0.14809 0.47801 0.65764 0.0
C1069 C 0.17394 0.44539 0.71364 0.0
C1070 C 0.17714 0.46243 0.63705 0.0
C1071 C 0.20345 0.43911 0.65374 0.0
H1072 H 0.80066 0.25749 0.68072 0.0
H1073 H 0.80843 0.1798 0.76886 0.0
H1074 H 0.7804 0.12831 0.72428 0.0
H1075 H 0.74635 0.1067 0.66207 0.0
H1076 H 0.74217 0.1844 0.57336 0.0
H1077 H 0.77647 0.23413 0.61602 0.0
C1078 C 0.79679 0.22919 0.69001 0.0
C1079 C 0.8062 0.2226 0.72821 0.0
C1080 C 0.78096 0.19965 0.66412 0.0
C1081 C 0.8015 0.18569 0.73965 0.0
C1082 C 0.78523 0.15622 0.71418 0.0
C1083 C 0.75371 0.13426 0.65171 0.0
C1084 C 0.74049 0.14178 0.61455 0.0
C1085 C 0.77384 0.163 0.67655 0.0
C1086 C 0.7509 0.17777 0.60188 0.0
C1087 C 0.77061 0.20639 0.62635 0.0
H1088 H 0.93342 0.38379 0.35622 0.0
H1089 H 0.83214 0.40916 0.41568 0.0
H1090 H 0.87562 0.44931 0.46201 0.0
H1091 H 0.94371 0.47837 0.48676 0.0
H1092 H 0.04418 0.45217 0.42619 0.0
H1093 H 1.0005 0.41206 0.38067 0.0
C1094 C 0.92068 0.39819 0.37914 0.0
C1095 C 0.87901 0.39289 0.38186 0.0
C1096 C 0.94617 0.42142 0.40632 0.0
C1097 C 0.86379 0.41203 0.41239 0.0
C1098 C 0.88885 0.43525 0.43921 0.0
C1099 C 0.9561 0.46358 0.46391 0.0
C1100 C 0.99778 0.46882 0.46052 0.0
C1101 C 0.93031 0.44017 0.43679 0.0
C1102 C 1.01257 0.44938 0.42996 0.0
C1103 C 0.98744 0.42616 0.40357 0.0
H1104 H 0.75688 0.85768 0.40764 0.0
H1105 H 0.71834 0.87321 0.29165 0.0
H1106 H 0.68368 0.92545 0.31253 0.0
H1107 H 0.66316 0.96566 0.36443 0.0
H1108 H 0.70365 0.94933 0.47963 0.0
H1109 H 0.73905 0.89844 0.4583 0.0
C1110 C 0.7407 0.87224 0.38682 0.0
C1111 C 0.73976 0.86134 0.34823 0.0
C1112 C 0.72146 0.90224 0.3989 0.0
C1113 C 0.71922 0.88096 0.32161 0.0
C1114 C 0.69955 0.91087 0.33351 0.0
C1115 C 0.68026 0.95125 0.38465 0.0
C1116 C 0.68049 0.96081 0.42355 0.0
C1117 C 0.70047 0.92175 0.37213 0.0
C1118 C 0.70251 0.94191 0.44962 0.0
C1119 C 0.72281 0.91289 0.43745 0.0
H1120 H 0.19812 0.78447 0.40674 0.0
H1121 H 0.27436 0.70449 0.36944 0.0
H1122 H 0.24306 0.65894 0.40985 0.0
H1123 H 0.19369 0.63872 0.45555 0.0
H1124 H 0.11628 0.71569 0.49603 0.0
H1125 H 0.14792 0.76359 0.45622 0.0
C1126 C 0.20819 0.75717 0.40728 0.0
C1127 C 0.23985 0.74932 0.38353 0.0
C1128 C 0.18953 0.72963 0.43198 0.0
C1129 C 0.25102 0.71292 0.3862 0.0
C1130 C 0.23277 0.68619 0.40981 0.0
C1131 C 0.1834 0.66597 0.45641 0.0
C1132 C 0.15172 0.67225 0.48032 0.0
C1133 C 0.20196 0.69383 0.4329 0.0
C1134 C 0.14026 0.70871 0.47932 0.0
C1135 C 0.15855 0.7365 0.45587 0.0
H1136 H 0.57007 0.2958 0.47062 0.0
H1137 H 0.5593 0.28034 0.34845 0.0
H1138 H 0.5913 0.22443 0.3521 0.0
H1139 H 0.60174 0.17079 0.38899 0.0
H1140 H 0.6015 0.18001 0.51067 0.0
H1141 H 0.59297 0.2461 0.50829 0.0
C1142 C 0.57478 0.28035 0.44468 0.0
C1143 C 0.55941 0.29126 0.40951 0.0
C1144 C 0.58965 0.24589 0.44695 0.0
C1145 C 0.56931 0.27261 0.37623 0.0
C1146 C 0.58715 0.23991 0.3782 0.0
C1147 C 0.60034 0.18734 0.41509 0.0
C1148 C 0.60026 0.17021 0.44988 0.0
C1149 C 0.59392 0.22473 0.4133 0.0
C1150 C 0.60005 0.19228 0.48348 0.0
C1151 C 0.59539 0.23012 0.48208 0.0
H1152 H 0.67772 0.81356 0.5413 0.0
H1153 H 0.79212 0.85152 0.5988 0.0
H1154 H 0.78382 0.9152 0.58608 0.0
H1155 H 0.73543 0.96021 0.57894 0.0
H1156 H 0.61888 0.9238 0.52621 0.0
H1157 H 0.6356 0.85982 0.5186 0.0
C1158 C 0.70136 0.83569 0.55006 0.0
C1159 C 0.73375 0.82788 0.57384 0.0
C1160 C 0.6949 0.87289 0.54572 0.0
C1161 C 0.76566 0.85638 0.58208 0.0
C1162 C 0.76068 0.89329 0.57561 0.0
C1163 C 0.71403 0.93822 0.56538 0.0
C1164 C 0.67556 0.94569 0.5547 0.0
C1165 C 0.72386 0.90186 0.56109 0.0
C1166 C 0.64831 0.91786 0.53567 0.0
C1167 C 0.65797 0.88152 0.53107 0.0
H1168 H 0.7649 0.27547 0.45552 0.0
H1169 H 0.69224 0.28136 0.55108 0.0
H1170 H 0.6766 0.21358 0.54624 0.0
H1171 H 0.67274 0.15753 0.50669 0.0
H1172 H 0.74583 0.14827 0.41278 0.0
H1173 H 0.76914 0.21527 0.42216 0.0
C1174 C 0.74742 0.26192 0.47671 0.0
C1175 C 0.72971 0.28345 0.50385 0.0
C1176 C 0.7371 0.22334 0.47251 0.0
C1177 C 0.70642 0.26537 0.53038 0.0
C1178 C 0.69681 0.22684 0.52698 0.0
C1179 C 0.69613 0.1687 0.49017 0.0
C1180 C 0.70909 0.1471 0.46053 0.0
C1181 C 0.71056 0.20606 0.49711 0.0
C1182 C 0.7359 0.16418 0.43626 0.0
C1183 C 0.74966 0.20223 0.44205 0.0
H1184 H 0.861 0.64667 0.44906 0.0
H1185 H 0.83742 0.53721 0.39329 0.0
H1186 H 0.90585 0.52512 0.41184 0.0
H1187 H 0.97189 0.5466 0.44554 0.0
H1188 H 0.99219 0.65651 0.50093 0.0
H1189 H 0.92529 0.66834 0.47993 0.0
C1190 C 0.87064 0.61986 0.44153 0.0
C1191 C 0.84427 0.59228 0.42113 0.0
C1192 C 0.90946 0.61381 0.45139 0.0
C1193 C 0.85725 0.5583 0.40996 0.0
C1194 C 0.89628 0.55167 0.42022 0.0
C1195 C 0.96162 0.57327 0.45217 0.0
C1196 C 0.98649 0.60099 0.47416 0.0
C1197 C 0.92265 0.57937 0.44093 0.0
C1198 C 0.97329 0.63524 0.48353 0.0
C1199 C 0.93512 0.6418 0.4719 0.0
H1200 H 0.38564 0.93634 0.33234 0.0
H1201 H 0.37865 0.85873 0.4213 0.0
H1202 H 0.43858 0.89231 0.45407 0.0
H1203 H 0.49514 0.94157 0.456 0.0
H1204 H 0.504 1.01805 0.36589 0.0
H1205 H 0.44166 0.98714 0.33531 0.0
C1206 C 0.39685 0.9272 0.35923 0.0
C1207 C 0.37737 0.89513 0.37443 0.0
C1208 C 0.43213 0.94619 0.37759 0.0
C1209 C 0.39285 0.88333 0.40898 0.0
C1210 C 0.4273 0.90246 0.4277 0.0
C1211 C 0.48351 0.9517 0.42974 0.0
C1212 C 0.50478 0.98222 0.4134 0.0
C1213 C 0.44759 0.93357 0.412 0.0
C1214 C 0.48874 0.99464 0.37927 0.0
C1215 C 0.45288 0.97696 0.36168 0.0
H1216 H 0.19209 0.34906 0.39155 0.0
H1217 H 0.29301 0.43226 0.38497 0.0
H1218 H 0.26271 0.47508 0.42648 0.0
H1219 H 0.20685 0.49137 0.46486 0.0
H1220 H 0.10797 0.40761 0.47708 0.0
H1221 H 0.13767 0.36412 0.43492 0.0
C1222 C 0.2077 0.37655 0.39899 0.0
C1223 C 0.24566 0.38658 0.38354 0.0
C1224 C 0.19017 0.40163 0.42485 0.0
C1225 C 0.26438 0.4227 0.39523 0.0
C1226 C 0.24676 0.44765 0.41942 0.0
C1227 C 0.19166 0.46344 0.45899 0.0
C1228 C 0.15442 0.45375 0.47562 0.0
C1229 C 0.20961 0.43777 0.43458 0.0
C1230 C 0.13642 0.41683 0.46626 0.0
C1231 C 0.15356 0.39166 0.44142 0.0
H1232 H 0.49967 0.20889 0.69566 0.0
H1233 H 0.46527 0.2532 0.58913 0.0
H1234 H 0.50808 0.21443 0.55636 0.0
H1235 H 0.55466 0.16789 0.55805 0.0
H1236 H 0.58956 0.12386 0.66475 0.0
H1237 H 0.54619 0.16196 0.69724 0.0
C1238 C 0.50122 0.20973 0.66522 0.0
C1239 C 0.47937 0.23381 0.64484 0.0
C1240 C 0.52575 0.18736 0.64659 0.0
C1241 C 0.48216 0.23514 0.60549 0.0
C1242 C 0.50644 0.21287 0.58672 0.0
C1243 C 0.55312 0.16676 0.58844 0.0
C1244 C 0.57559 0.14313 0.60885 0.0
C1245 C 0.52842 0.18896 0.60703 0.0
C1246 C 0.57262 0.14174 0.64822 0.0
C1247 C 0.54787 0.16357 0.66689 0.0
H1248 H 0.86786 0.37519 0.68846 0.0
H1249 H 0.95936 0.36551 0.77621 0.0
H1250 H 1.00881 0.39853 0.73886 0.0
H1251 H 1.02626 0.43489 0.68319 0.0
H1252 H 0.93606 0.44464 0.59482 0.0
H1253 H 0.88692 0.40685 0.62958 0.0
C1254 C 0.89863 0.38009 0.69941 0.0
C1255 C 0.90923 0.36769 0.73576 0.0
C1256 C 0.92767 0.39903 0.67721 0.0
C1257 C 0.94968 0.37435 0.74872 0.0
C1258 C 0.97829 0.39341 0.72721 0.0
C1259 C 0.99621 0.42749 0.67078 0.0
C1260 C 0.98553 0.44167 0.63545 0.0
C1261 C 0.96773 0.40626 0.69155 0.0
C1262 C 0.94578 0.4331 0.62101 0.0
C1263 C 0.91739 0.41191 0.64135 0.0
H1264 H 0.2368 0.69385 0.76976 0.0
H1265 H 0.28066 0.75486 0.67635 0.0
H1266 H 0.23849 0.71124 0.6314 0.0
H1267 H 0.18179 0.66132 0.62037 0.0
H1268 H 0.13996 0.6007 0.71552 0.0
H1269 H 0.18911 0.63818 0.75797 0.0
C1270 C 0.23774 0.69689 0.73946 0.0
C1271 C 0.26111 0.72727 0.72606 0.0
C1272 C 0.21343 0.67212 0.71421 0.0
C1273 C 0.26272 0.73128 0.68696 0.0
C1274 C 0.23841 0.70661 0.66141 0.0
C1275 C 0.18395 0.65593 0.65025 0.0
C1276 C 0.15633 0.62913 0.66486 0.0
C1277 C 0.21247 0.67775 0.67488 0.0
C1278 C 0.16 0.62196 0.70359 0.0
C1279 C 0.18822 0.64327 0.72801 0.0
loop_
_geom_bond_atom_site_label_1
_geom_bond_atom_site_label_2
_geom_bond_distance
_geom_bond_site_symmetry_2
_ccdc_geom_bond_type
Dy0 O3 2.307 . S
Dy0 O5 2.395 . S
Dy0 O6 2.379 . S
Dy0 O8 2.339 . S
Dy0 O10 2.298 . S
Dy0 O14 2.275 . S
Dy0 C22 2.738 . S
Dy1 O4 2.298 . S
Dy1 O7 2.275 . S
Dy1 O9 2.307 . S
Dy1 O11 2.395 . S
Dy1 O12 2.379 . S
Dy1 O15 2.339 . S
Dy1 C31 2.738 . S
C2 O14 1.254 . S
C2 O15 1.257 . S
O3 Dy0 2.307 . S
O3 C13 1.266 . S
O4 Dy1 2.298 . S
O4 C13 1.236 . S
O5 Dy0 2.395 . S
O5 C22 1.255 . S
O6 Dy0 2.379 . S
O6 C22 1.249 . S
O7 Dy1 2.275 . S
O7 C23 1.254 . S
O8 Dy0 2.339 . S
O8 C23 1.257 . S
O9 Dy1 2.307 . S
O9 C24 1.266 . S
O10 Dy0 2.298 . S
O10 C24 1.236 . S
O11 Dy1 2.395 . S
O11 C31 1.255 . S
O12 Dy1 2.379 . S
O12 C31 1.249 . S
C13 O3 1.266 . S
C13 O4 1.236 . S
O14 Dy0 2.275 . S
O14 C2 1.254 . S
O15 Dy1 2.339 . S
O15 C2 1.257 . S
C16 C19 1.344 . S
C16 C20 1.328 . S
C16 C22 1.516 . S
C17 C18 1.304 . S
C17 C21 1.323 . S
C18 C17 1.304 . S
C18 C19 1.371 . S
C18 H32 0.930 . S
C19 C16 1.344 . S
C19 C18 1.371 . S
C19 H33 0.931 . S
C20 C16 1.328 . S
C20 C21 1.433 . S
C20 H34 0.931 . S
C21 C17 1.323 . S
C21 C20 1.433 . S
C21 H35 0.933 . S
C22 Dy0 2.738 . S
C22 O5 1.255 . S
C22 O6 1.249 . S
C22 C16 1.516 . S
C23 O7 1.254 . S
C23 O8 1.257 . S
C24 O9 1.266 . S
C24 O10 1.236 . S
C25 C28 1.344 . S
C25 C29 1.328 . S
C25 C31 1.516 . S
C26 C27 1.304 . S
C26 C30 1.323 . S
C27 C26 1.304 . S
C27 C28 1.371 . S
C27 H36 0.930 . S
C28 C25 1.344 . S
C28 C27 1.371 . S
C28 H37 0.931 . S
C29 C25 1.328 . S
C29 C30 1.433 . S
C29 H38 0.931 . S
C30 C26 1.323 . S
C30 C29 1.433 . S
C30 H39 0.933 . S
C31 Dy1 2.738 . S
C31 O11 1.255 . S
C31 O12 1.249 . S
C31 C25 1.516 . S
H32 C18 0.930 . S
H33 C19 0.931 . S
H34 C20 0.931 . S
H35 C21 0.933 . S
H36 C27 0.930 . S
H37 C28 0.931 . S
H38 C29 0.931 . S
H39 C30 0.933 . S
Dy40 O43 2.307 . S
Dy40 O45 2.395 . S
Dy40 O46 2.379 . S
Dy40 O48 2.339 . S
Dy40 O50 2.298 . S
Dy40 O54 2.275 . S
Dy40 C62 2.738 . S
Dy41 O44 2.298 . S
Dy41 O47 2.275 . S
Dy41 O49 2.307 . S
Dy41 O51 2.395 . S
Dy41 O52 2.379 . S
Dy41 O55 2.339 . S
Dy41 C71 2.738 . S
C42 O54 1.254 . S
C42 O55 1.257 . S
O43 Dy40 2.307 . S
O43 C53 1.266 . S
O44 Dy41 2.298 . S
O44 C53 1.236 . S
O45 Dy40 2.395 . S
O45 C62 1.255 . S
O46 Dy40 2.379 . S
O46 C62 1.249 . S
O47 Dy41 2.275 . S
O47 C63 1.254 . S
O48 Dy40 2.339 . S
O48 C63 1.257 . S
O49 Dy41 2.307 . S
O49 C64 1.266 . S
O50 Dy40 2.298 . S
O50 C64 1.236 . S
O51 Dy41 2.395 . S
O51 C71 1.255 . S
O52 Dy41 2.379 . S
O52 C71 1.249 . S
C53 O43 1.266 . S
C53 O44 1.236 . S
O54 Dy40 2.275 . S
O54 C42 1.254 . S
O55 Dy41 2.339 . S
O55 C42 1.257 . S
C56 C59 1.344 . S
C56 C60 1.328 . S
C56 C62 1.516 . S
C57 C58 1.304 . S
C57 C61 1.323 . S
C58 C57 1.304 . S
C58 C59 1.371 . S
C58 H72 0.930 . S
C59 C56 1.344 . S
C59 C58 1.371 . S
C59 H73 0.931 . S
C60 C56 1.328 . S
C60 C61 1.433 . S
C60 H74 0.931 . S
C61 C57 1.323 . S
C61 C60 1.433 . S
C61 H75 0.933 . S
C62 Dy40 2.738 . S
C62 O45 1.255 . S
C62 O46 1.249 . S
C62 C56 1.516 . S
C63 O47 1.254 . S
C63 O48 1.257 . S
C64 O49 1.266 . S
C64 O50 1.236 . S
C65 C68 1.344 . S
C65 C69 1.328 . S
C65 C71 1.516 . S
C66 C67 1.304 . S
C66 C70 1.323 . S
C67 C66 1.304 . S
C67 C68 1.371 . S
C67 H76 0.930 . S
C68 C65 1.344 . S
C68 C67 1.371 . S
C68 H77 0.931 . S
C69 C65 1.328 . S
C69 C70 1.433 . S
C69 H78 0.931 . S
C70 C66 1.323 . S
C70 C69 1.433 . S
C70 H79 0.933 . S
C71 Dy41 2.738 . S
C71 O51 1.255 . S
C71 O52 1.249 . S
C71 C65 1.516 . S
H72 C58 0.930 . S
H73 C59 0.931 . S
H74 C60 0.931 . S
H75 C61 0.933 . S
H76 C67 0.930 . S
H77 C68 0.931 . S
H78 C69 0.931 . S
H79 C70 0.933 . S
Dy80 O83 2.307 . S
Dy80 O85 2.395 . S
Dy80 O86 2.379 . S
Dy80 O88 2.339 . S
Dy80 O90 2.298 . S
Dy80 O94 2.275 . S
Dy80 C102 2.738 . S
Dy81 O84 2.298 . S
Dy81 O87 2.275 . S
Dy81 O89 2.307 . S
Dy81 O91 2.395 . S
Dy81 O92 2.379 . S
Dy81 O95 2.339 . S
Dy81 C111 2.738 . S
C82 O94 1.254 . S
C82 O95 1.257 . S
O83 Dy80 2.307 . S
O83 C93 1.266 . S
O84 Dy81 2.298 . S
O84 C93 1.236 . S
O85 Dy80 2.395 . S
O85 C102 1.255 . S
O86 Dy80 2.379 . S
O86 C102 1.249 . S
O87 Dy81 2.275 . S
O87 C103 1.254 . S
O88 Dy80 2.339 . S
O88 C103 1.257 . S
O89 Dy81 2.307 . S
O89 C104 1.266 . S
O90 Dy80 2.298 . S
O90 C104 1.236 . S
O91 Dy81 2.395 . S
O91 C111 1.255 . S
O92 Dy81 2.379 . S
O92 C111 1.249 . S
C93 O83 1.266 . S
C93 O84 1.236 . S
O94 Dy80 2.275 . S
O94 C82 1.254 . S
O95 Dy81 2.339 . S
O95 C82 1.257 . S
C96 C99 1.344 . S
C96 C100 1.328 . S
C96 C102 1.516 . S
C97 C98 1.304 . S
C97 C101 1.323 . S
C98 C97 1.304 . S
C98 C99 1.371 . S
C98 H112 0.930 . S
C99 C96 1.344 . S
C99 C98 1.371 . S
C99 H113 0.931 . S
C100 C96 1.328 . S
C100 C101 1.433 . S
C100 H114 0.931 . S
C101 C97 1.323 . S
C101 C100 1.433 . S
C101 H115 0.933 . S
C102 Dy80 2.738 . S
C102 O85 1.255 . S
C102 O86 1.249 . S
C102 C96 1.516 . S
C103 O87 1.254 . S
C103 O88 1.257 . S
C104 O89 1.266 . S
C104 O90 1.236 . S
C105 C108 1.344 . S
C105 C109 1.328 . S
C105 C111 1.516 . S
C106 C107 1.304 . S
C106 C110 1.323 . S
C107 C106 1.304 . S
C107 C108 1.371 . S
C107 H116 0.930 . S
C108 C105 1.344 . S
C108 C107 1.371 . S
C108 H117 0.931 . S
C109 C105 1.328 . S
C109 C110 1.433 . S
C109 H118 0.931 . S
C110 C106 1.323 . S
C110 C109 1.433 . S
C110 H119 0.933 . S
C111 Dy81 2.738 . S
C111 O91 1.255 . S
C111 O92 1.249 . S
C111 C105 1.516 . S
H112 C98 0.930 . S
H113 C99 0.931 . S
H114 C100 0.931 . S
H115 C101 0.933 . S
H116 C107 0.930 . S
H117 C108 0.931 . S
H118 C109 0.931 . S
H119 C110 0.933 . S
Dy120 O123 2.307 . S
Dy120 O125 2.395 . S
Dy120 O126 2.379 . S
Dy120 O128 2.339 . S
Dy120 O130 2.298 . S
Dy120 O134 2.275 . S
Dy120 C142 2.738 . S
Dy121 O124 2.298 . S
Dy121 O127 2.275 . S
Dy121 O129 2.307 . S
Dy121 O131 2.395 . S
Dy121 O132 2.379 . S
Dy121 O135 2.339 . S
Dy121 C151 2.738 . S
C122 O134 1.254 . S
C122 O135 1.257 . S
O123 Dy120 2.307 . S
O123 C133 1.266 . S
O124 Dy121 2.298 . S
O124 C133 1.236 . S
O125 Dy120 2.395 . S
O125 C142 1.255 . S
O126 Dy120 2.379 . S
O126 C142 1.249 . S
O127 Dy121 2.275 . S
O127 C143 1.254 . S
O128 Dy120 2.339 . S
O128 C143 1.257 . S
O129 Dy121 2.307 . S
O129 C144 1.266 . S
O130 Dy120 2.298 . S
O130 C144 1.236 . S
O131 Dy121 2.395 . S
O131 C151 1.255 . S
O132 Dy121 2.379 . S
O132 C151 1.249 . S
C133 O123 1.266 . S
C133 O124 1.236 . S
O134 Dy120 2.275 . S
O134 C122 1.254 . S
O135 Dy121 2.339 . S
O135 C122 1.257 . S
C136 C139 1.344 . S
C136 C140 1.328 . S
C136 C142 1.516 . S
C137 C138 1.304 . S
C137 C141 1.323 . S
C138 C137 1.304 . S
C138 C139 1.371 . S
C138 H152 0.930 . S
C139 C136 1.344 . S
C139 C138 1.371 . S
C139 H153 0.931 . S
C140 C136 1.328 . S
C140 C141 1.433 . S
C140 H154 0.931 . S
C141 C137 1.323 . S
C141 C140 1.433 . S
C141 H155 0.933 . S
C142 Dy120 2.738 . S
C142 O125 1.255 . S
C142 O126 1.249 . S
C142 C136 1.516 . S
C143 O127 1.254 . S
C143 O128 1.257 . S
C144 O129 1.266 . S
C144 O130 1.236 . S
C145 C148 1.344 . S
C145 C149 1.328 . S
C145 C151 1.516 . S
C146 C147 1.304 . S
C146 C150 1.323 . S
C147 C146 1.304 . S
C147 C148 1.371 . S
C147 H156 0.930 . S
C148 C145 1.344 . S
C148 C147 1.371 . S
C148 H157 0.931 . S
C149 C145 1.328 . S
C149 C150 1.433 . S
C149 H158 0.931 . S
C150 C146 1.323 . S
C150 C149 1.433 . S
C150 H159 0.933 . S
C151 Dy121 2.738 . S
C151 O131 1.255 . S
C151 O132 1.249 . S
C151 C145 1.516 . S
H152 C138 0.930 . S
H153 C139 0.931 . S
H154 C140 0.931 . S
H155 C141 0.933 . S
H156 C147 0.930 . S
H157 C148 0.931 . S
H158 C149 0.931 . S
H159 C150 0.933 . S
Dy160 O163 2.307 . S
Dy160 O165 2.395 . S
Dy160 O166 2.379 . S
Dy160 O168 2.339 . S
Dy160 O170 2.298 . S
Dy160 O174 2.275 . S
Dy160 C182 2.738 . S
Dy161 O164 2.298 . S
Dy161 O167 2.275 . S
Dy161 O169 2.307 . S
Dy161 O171 2.395 . S
Dy161 O172 2.379 . S
Dy161 O175 2.339 . S
Dy161 C191 2.738 . S
C162 O174 1.254 . S
C162 O175 1.257 . S
O163 Dy160 2.307 . S
O163 C173 1.266 . S
O164 Dy161 2.298 . S
O164 C173 1.236 . S
O165 Dy160 2.395 . S
O165 C182 1.255 . S
O166 Dy160 2.379 . S
O166 C182 1.249 . S
O167 Dy161 2.275 . S
O167 C183 1.254 . S
O168 Dy160 2.339 . S
O168 C183 1.257 . S
O169 Dy161 2.307 . S
O169 C184 1.266 . S
O170 Dy160 2.298 . S
O170 C184 1.236 . S
O171 Dy161 2.395 . S
O171 C191 1.255 . S
O172 Dy161 2.379 . S
O172 C191 1.249 . S
C173 O163 1.266 . S
C173 O164 1.236 . S
O174 Dy160 2.275 . S
O174 C162 1.254 . S
O175 Dy161 2.339 . S
O175 C162 1.257 . S
C176 C179 1.344 . S
C176 C180 1.328 . S
C176 C182 1.516 . S
C177 C178 1.304 . S
C177 C181 1.323 . S
C178 C177 1.304 . S
C178 C179 1.371 . S
C178 H192 0.930 . S
C179 C176 1.344 . S
C179 C178 1.371 . S
C179 H193 0.931 . S
C180 C176 1.328 . S
C180 C181 1.433 . S
C180 H194 0.931 . S
C181 C177 1.323 . S
C181 C180 1.433 . S
C181 H195 0.933 . S
C182 Dy160 2.738 . S
C182 O165 1.255 . S
C182 O166 1.249 . S
C182 C176 1.516 . S
C183 O167 1.254 . S
C183 O168 1.257 . S
C184 O169 1.266 . S
C184 O170 1.236 . S
C185 C188 1.344 . S
C185 C189 1.328 . S
C185 C191 1.516 . S
C186 C187 1.304 . S
C186 C190 1.323 . S
C187 C186 1.304 . S
C187 C188 1.371 . S
C187 H196 0.930 . S
C188 C185 1.344 . S
C188 C187 1.371 . S
C188 H197 0.931 . S
C189 C185 1.328 . S
C189 C190 1.433 . S
C189 H198 0.931 . S
C190 C186 1.323 . S
C190 C189 1.433 . S
C190 H199 0.933 . S
C191 Dy161 2.738 . S
C191 O171 1.255 . S
C191 O172 1.249 . S
C191 C185 1.516 . S
H192 C178 0.930 . S
H193 C179 0.931 . S
H194 C180 0.931 . S
H195 C181 0.933 . S
H196 C187 0.930 . S
H197 C188 0.931 . S
H198 C189 0.931 . S
H199 C190 0.933 . S
Dy200 O203 2.307 . S
Dy200 O205 2.395 . S
Dy200 O206 2.379 . S
Dy200 O208 2.339 . S
Dy200 O210 2.298 . S
Dy200 O214 2.275 . S
Dy200 C222 2.738 . S
Dy201 O204 2.298 . S
Dy201 O207 2.275 . S
Dy201 O209 2.307 . S
Dy201 O211 2.395 . S
Dy201 O212 2.379 . S
Dy201 O215 2.339 . S
Dy201 C231 2.738 . S
C202 O214 1.254 . S
C202 O215 1.257 . S
O203 Dy200 2.307 . S
O203 C213 1.266 . S
O204 Dy201 2.298 . S
O204 C213 1.236 . S
O205 Dy200 2.395 . S
O205 C222 1.255 . S
O206 Dy200 2.379 . S
O206 C222 1.249 . S
O207 Dy201 2.275 . S
O207 C223 1.254 . S
O208 Dy200 2.339 . S
O208 C223 1.257 . S
O209 Dy201 2.307 . S
O209 C224 1.266 . S
O210 Dy200 2.298 . S
O210 C224 1.236 . S
O211 Dy201 2.395 . S
O211 C231 1.255 . S
O212 Dy201 2.379 . S
O212 C231 1.249 . S
C213 O203 1.266 . S
C213 O204 1.236 . S
O214 Dy200 2.275 . S
O214 C202 1.254 . S
O215 Dy201 2.339 . S
O215 C202 1.257 . S
C216 C219 1.344 . S
C216 C220 1.328 . S
C216 C222 1.516 . S
C217 C218 1.304 . S
C217 C221 1.323 . S
C218 C217 1.304 . S
C218 C219 1.371 . S
C218 H232 0.930 . S
C219 C216 1.344 . S
C219 C218 1.371 . S
C219 H233 0.931 . S
C220 C216 1.328 . S
C220 C221 1.433 . S
C220 H234 0.931 . S
C221 C217 1.323 . S
C221 C220 1.433 . S
C221 H235 0.933 . S
C222 Dy200 2.738 . S
C222 O205 1.255 . S
C222 O206 1.249 . S
C222 C216 1.516 . S
C223 O207 1.254 . S
C223 O208 1.257 . S
C224 O209 1.266 . S
C224 O210 1.236 . S
C225 C228 1.344 . S
C225 C229 1.328 . S
C225 C231 1.516 . S
C226 C227 1.304 . S
C226 C230 1.323 . S
C227 C226 1.304 . S
C227 C228 1.371 . S
C227 H236 0.930 . S
C228 C225 1.344 . S
C228 C227 1.371 . S
C228 H237 0.931 . S
C229 C225 1.328 . S
C229 C230 1.433 . S
C229 H238 0.931 . S
C230 C226 1.323 . S
C230 C229 1.433 . S
C230 H239 0.933 . S
C231 Dy201 2.738 . S
C231 O211 1.255 . S
C231 O212 1.249 . S
C231 C225 1.516 . S
H232 C218 0.930 . S
H233 C219 0.931 . S
H234 C220 0.931 . S
H235 C221 0.933 . S
H236 C227 0.930 . S
H237 C228 0.931 . S
H238 C229 0.931 . S
H239 C230 0.933 . S
Dy240 O243 2.307 . S
Dy240 O245 2.395 . S
Dy240 O246 2.379 . S
Dy240 O248 2.339 . S
Dy240 O250 2.298 . S
Dy240 O254 2.275 . S
Dy240 C262 2.738 . S
Dy241 O244 2.298 . S
Dy241 O247 2.275 . S
Dy241 O249 2.307 . S
Dy241 O251 2.395 . S
Dy241 O252 2.379 . S
Dy241 O255 2.339 . S
Dy241 C271 2.738 . S
C242 O254 1.254 . S
C242 O255 1.257 . S
O243 Dy240 2.307 . S
O243 C253 1.266 . S
O244 Dy241 2.298 . S
O244 C253 1.236 . S
O245 Dy240 2.395 . S
O245 C262 1.255 . S
O246 Dy240 2.379 . S
O246 C262 1.249 . S
O247 Dy241 2.275 . S
O247 C263 1.254 . S
O248 Dy240 2.339 . S
O248 C263 1.257 . S
O249 Dy241 2.307 . S
O249 C264 1.266 . S
O250 Dy240 2.298 . S
O250 C264 1.236 . S
O251 Dy241 2.395 . S
O251 C271 1.255 . S
O252 Dy241 2.379 . S
O252 C271 1.249 . S
C253 O243 1.266 . S
C253 O244 1.236 . S
O254 Dy240 2.275 . S
O254 C242 1.254 . S
O255 Dy241 2.339 . S
O255 C242 1.257 . S
C256 C259 1.344 . S
C256 C260 1.328 . S
C256 C262 1.516 . S
C257 C258 1.304 . S
C257 C261 1.323 . S
C258 C257 1.304 . S
C258 C259 1.371 . S
C258 H272 0.930 . S
C259 C256 1.344 . S
C259 C258 1.371 . S
C259 H273 0.931 . S
C260 C256 1.328 . S
C260 C261 1.433 . S
C260 H274 0.931 . S
C261 C257 1.323 . S
C261 C260 1.433 . S
C261 H275 0.933 . S
C262 Dy240 2.738 . S
C262 O245 1.255 . S
C262 O246 1.249 . S
C262 C256 1.516 . S
C263 O247 1.254 . S
C263 O248 1.257 . S
C264 O249 1.266 . S
C264 O250 1.236 . S
C265 C268 1.344 . S
C265 C269 1.328 . S
C265 C271 1.516 . S
C266 C267 1.304 . S
C266 C270 1.323 . S
C267 C266 1.304 . S
C267 C268 1.371 . S
C267 H276 0.930 . S
C268 C265 1.344 . S
C268 C267 1.371 . S
C268 H277 0.931 . S
C269 C265 1.328 . S
C269 C270 1.433 . S
C269 H278 0.931 . S
C270 C266 1.323 . S
C270 C269 1.433 . S
C270 H279 0.933 . S
C271 Dy241 2.738 . S
C271 O251 1.255 . S
C271 O252 1.249 . S
C271 C265 1.516 . S
H272 C258 0.930 . S
H273 C259 0.931 . S
H274 C260 0.931 . S
H275 C261 0.933 . S
H276 C267 0.930 . S
H277 C268 0.931 . S
H278 C269 0.931 . S
H279 C270 0.933 . S
Dy280 O283 2.307 . S
Dy280 O285 2.395 . S
Dy280 O286 2.379 . S
Dy280 O288 2.339 . S
Dy280 O290 2.298 . S
Dy280 O294 2.275 . S
Dy280 C302 2.738 . S
Dy281 O284 2.298 . S
Dy281 O287 2.275 . S
Dy281 O289 2.307 . S
Dy281 O291 2.395 . S
Dy281 O292 2.379 . S
Dy281 O295 2.339 . S
Dy281 C311 2.738 . S
C282 O294 1.254 . S
C282 O295 1.257 . S
O283 Dy280 2.307 . S
O283 C293 1.266 . S
O284 Dy281 2.298 . S
O284 C293 1.236 . S
O285 Dy280 2.395 . S
O285 C302 1.255 . S
O286 Dy280 2.379 . S
O286 C302 1.249 . S
O287 Dy281 2.275 . S
O287 C303 1.254 . S
O288 Dy280 2.339 . S
O288 C303 1.257 . S
O289 Dy281 2.307 . S
O289 C304 1.266 . S
O290 Dy280 2.298 . S
O290 C304 1.236 . S
O291 Dy281 2.395 . S
O291 C311 1.255 . S
O292 Dy281 2.379 . S
O292 C311 1.249 . S
C293 O283 1.266 . S
C293 O284 1.236 . S
O294 Dy280 2.275 . S
O294 C282 1.254 . S
O295 Dy281 2.339 . S
O295 C282 1.257 . S
C296 C299 1.344 . S
C296 C300 1.328 . S
C296 C302 1.516 . S
C297 C298 1.304 . S
C297 C301 1.323 . S
C298 C297 1.304 . S
C298 C299 1.371 . S
C298 H312 0.930 . S
C299 C296 1.344 . S
C299 C298 1.371 . S
C299 H313 0.931 . S
C300 C296 1.328 . S
C300 C301 1.433 . S
C300 H314 0.931 . S
C301 C297 1.323 . S
C301 C300 1.433 . S
C301 H315 0.933 . S
C302 Dy280 2.738 . S
C302 O285 1.255 . S
C302 O286 1.249 . S
C302 C296 1.516 . S
C303 O287 1.254 . S
C303 O288 1.257 . S
C304 O289 1.266 . S
C304 O290 1.236 . S
C305 C308 1.344 . S
C305 C309 1.328 . S
C305 C311 1.516 . S
C306 C307 1.304 . S
C306 C310 1.323 . S
C307 C306 1.304 . S
C307 C308 1.371 . S
C307 H316 0.930 . S
C308 C305 1.344 . S
C308 C307 1.371 . S
C308 H317 0.931 . S
C309 C305 1.328 . S
C309 C310 1.433 . S
C309 H318 0.931 . S
C310 C306 1.323 . S
C310 C309 1.433 . S
C310 H319 0.933 . S
C311 Dy281 2.738 . S
C311 O291 1.255 . S
C311 O292 1.249 . S
C311 C305 1.516 . S
H312 C298 0.930 . S
H313 C299 0.931 . S
H314 C300 0.931 . S
H315 C301 0.933 . S
H316 C307 0.930 . S
H317 C308 0.931 . S
H318 C309 0.931 . S
H319 C310 0.933 . S
Fe320 O321 1.886 1_455 S
Fe320 O324 1.715 . S
Fe320 O329 2.077 1_455 S
Fe320 O334 1.935 . S
Fe320 O340 2.077 1_455 S
Fe320 O349 1.935 . S
O321 Fe320 1.886 1_655 S
O321 Fe323 1.715 . S
Fe322 O324 1.886 . S
Fe322 O325 1.715 1_545 S
Fe322 O332 1.935 . S
Fe322 O333 2.077 . S
Fe322 O339 1.935 . S
Fe322 O348 2.077 . S
Fe323 O321 1.715 . S
Fe323 O326 1.886 1_545 S
Fe323 O330 1.935 . S
Fe323 O335 2.077 1_545 S
Fe323 O341 1.935 . S
Fe323 O345 2.077 1_545 S
O324 Fe320 1.715 . S
O324 Fe322 1.886 . S
O325 Fe322 1.715 1_565 S
O325 Fe327 1.886 . S
O326 Fe323 1.886 1_565 S
O326 Fe327 1.715 1_655 S
Fe327 O325 1.886 . S
Fe327 O326 1.715 1_455 S
Fe327 O331 2.077 . S
Fe327 O336 1.935 1_455 S
Fe327 O338 2.077 . S
Fe327 O346 1.935 1_455 S
C328 O340 1.381 . S
C328 O341 1.421 . S
O329 Fe320 2.077 1_655 S
O329 C342 1.381 . S
O330 Fe323 1.935 . S
O330 C342 1.421 . S
O331 Fe327 2.077 . S
O331 C347 1.381 . S
O332 Fe322 1.935 . S
O332 C347 1.421 1_545 S
O333 Fe322 2.077 . S
O333 C337 1.381 . S
O334 Fe320 1.935 . S
O334 C337 1.421 . S
O335 Fe323 2.077 1_565 S
O335 C343 1.381 . S
O336 Fe327 1.935 1_655 S
O336 C343 1.421 . S
C337 O333 1.381 . S
C337 O334 1.421 . S
O338 Fe327 2.077 . S
O338 C350 1.381 . S
O339 Fe322 1.935 . S
O339 C350 1.421 1_545 S
O340 Fe320 2.077 1_655 S
O340 C328 1.381 . S
O341 Fe323 1.935 . S
O341 C328 1.421 . S
C342 O329 1.381 . S
C342 O330 1.421 . S
C343 O335 1.381 . S
C343 O336 1.421 . S
C344 O345 1.381 . S
C344 O346 1.421 . S
O345 Fe323 2.077 1_565 S
O345 C344 1.381 . S
O346 Fe327 1.935 1_655 S
O346 C344 1.421 . S
C347 O331 1.381 . S
C347 O332 1.421 1_565 S
O348 Fe322 2.077 . S
O348 C351 1.381 . S
O349 Fe320 1.935 . S
O349 C351 1.421 . S
C350 O338 1.381 . S
C350 O339 1.421 1_565 S
C351 O348 1.381 . S
C351 O349 1.421 . S
Fe352 O353 1.886 1_566 S
Fe352 O356 1.739 . S
Fe352 O361 2.077 . S
Fe352 O366 1.935 . S
Fe352 O372 2.077 1_556 S
Fe352 O381 1.935 1_556 S
O353 Fe352 1.886 1_544 S
O353 Fe355 1.715 . S
Fe354 O356 1.860 1_545 S
Fe354 O357 1.717 1_556 S
Fe354 O364 1.935 . S
Fe354 O365 2.077 1_545 S
Fe354 O371 1.935 1_556 S
Fe354 O380 2.077 1_546 S
Fe355 O353 1.715 . S
Fe355 O358 1.886 . S
Fe355 O362 1.935 1_554 S
Fe355 O367 2.077 1_554 S
Fe355 O373 1.935 . S
Fe355 O377 2.077 . S
O356 Fe352 1.739 . S
O356 Fe354 1.860 1_565 S
O357 Fe354 1.717 1_554 S
O357 Fe359 1.884 . S
O358 Fe355 1.886 . S
O358 Fe359 1.715 . S
Fe359 O357 1.884 . S
Fe359 O358 1.715 . S
Fe359 O363 2.077 1_554 S
Fe359 O368 1.935 1_554 S
Fe359 O370 2.077 . S
Fe359 O378 1.935 . S
C360 O372 1.381 . S
C360 O373 1.421 1_565 S
O361 Fe352 2.077 . S
O361 C374 1.381 . S
O362 Fe355 1.935 1_556 S
O362 C374 1.421 1_545 S
O363 Fe359 2.077 1_556 S
O363 C379 1.381 . S
O364 Fe354 1.935 . S
O364 C379 1.421 . S
O365 Fe354 2.077 1_565 S
O365 C369 1.381 . S
O366 Fe352 1.935 . S
O366 C369 1.421 . S
O367 Fe355 2.077 1_556 S
O367 C375 1.381 . S
O368 Fe359 1.935 1_556 S
O368 C375 1.421 . S
C369 O365 1.381 . S
C369 O366 1.421 . S
O370 Fe359 2.077 . S
O370 C382 1.381 . S
O371 Fe354 1.935 1_554 S
O371 C382 1.421 . S
O372 Fe352 2.077 1_554 S
O372 C360 1.381 . S
O373 Fe355 1.935 . S
O373 C360 1.421 1_545 S
C374 O361 1.381 . S
C374 O362 1.421 1_565 S
C375 O367 1.381 . S
C375 O368 1.421 . S
C376 O377 1.381 . S
C376 O378 1.421 . S
O377 Fe355 2.077 . S
O377 C376 1.381 . S
O378 Fe359 1.935 . S
O378 C376 1.421 . S
C379 O363 1.381 . S
C379 O364 1.421 . S
O380 Fe354 2.077 1_564 S
O380 C383 1.381 . S
O381 Fe352 1.935 1_554 S
O381 C383 1.421 . S
C382 O370 1.381 . S
C382 O371 1.421 . S
C383 O380 1.381 . S
C383 O381 1.421 . S
Fe384 O385 1.886 1_455 S
Fe384 O388 1.715 . S
Fe384 O393 2.077 1_455 S
Fe384 O398 1.935 . S
Fe384 O404 2.077 1_455 S
Fe384 O413 1.935 . S
O385 Fe384 1.886 1_655 S
O385 Fe387 1.715 . S
Fe386 O388 1.886 . S
Fe386 O389 1.715 . S
Fe386 O396 1.935 . S
Fe386 O397 2.077 . S
Fe386 O403 1.935 . S
Fe386 O412 2.077 . S
Fe387 O385 1.715 . S
Fe387 O390 1.886 . S
Fe387 O394 1.935 . S
Fe387 O399 2.077 . S
Fe387 O405 1.935 . S
Fe387 O409 2.077 . S
O388 Fe384 1.715 . S
O388 Fe386 1.886 . S
O389 Fe386 1.715 . S
O389 Fe391 1.886 1_455 S
O390 Fe387 1.886 . S
O390 Fe391 1.715 . S
Fe391 O389 1.886 1_655 S
Fe391 O390 1.715 . S
Fe391 O395 2.077 1_655 S
Fe391 O400 1.935 . S
Fe391 O402 2.077 1_655 S
Fe391 O410 1.935 . S
C392 O404 1.381 . S
C392 O405 1.421 . S
O393 Fe384 2.077 1_655 S
O393 C406 1.388 . S
O394 Fe387 1.935 . S
O394 C406 1.429 . S
O395 Fe391 2.077 1_455 S
O395 C411 1.392 . S
O396 Fe386 1.935 . S
O396 C411 1.425 . S
O397 Fe386 2.077 . S
O397 C401 1.381 . S
O398 Fe384 1.935 . S
O398 C401 1.421 . S
O399 Fe387 2.077 . S
O399 C407 1.381 1_554 S
O400 Fe391 1.935 . S
O400 C407 1.421 1_554 S
C401 O397 1.381 . S
C401 O398 1.421 . S
O402 Fe391 2.077 1_455 S
O402 C414 1.381 . S
O403 Fe386 1.935 . S
O403 C414 1.421 . S
O404 Fe384 2.077 1_655 S
O404 C392 1.381 . S
O405 Fe387 1.935 . S
O405 C392 1.421 . S
C406 O393 1.388 . S
C406 O394 1.429 . S
C407 O399 1.381 1_556 S
C407 O400 1.421 1_556 S
C408 O409 1.381 . S
C408 O410 1.421 . S
O409 Fe387 2.077 . S
O409 C408 1.381 . S
O410 Fe391 1.935 . S
O410 C408 1.421 . S
C411 O395 1.392 . S
C411 O396 1.425 . S
O412 Fe386 2.077 . S
O412 C415 1.381 . S
O413 Fe384 1.935 . S
O413 C415 1.421 . S
C414 O402 1.381 . S
C414 O403 1.421 . S
C415 O412 1.381 . S
C415 O413 1.421 . S
Fe416 O417 1.886 . S
Fe416 O420 1.715 . S
Fe416 O425 2.077 . S
Fe416 O430 1.935 . S
Fe416 O436 2.077 . S
Fe416 O445 1.935 . S
O417 Fe416 1.886 . S
O417 Fe419 1.715 1_556 S
Fe418 O420 1.886 1_554 S
Fe418 O421 1.715 . S
Fe418 O428 1.935 . S
Fe418 O429 2.077 1_554 S
Fe418 O435 1.935 . S
Fe418 O444 2.077 1_554 S
Fe419 O417 1.715 1_554 S
Fe419 O422 1.886 . S
Fe419 O426 1.935 . S
Fe419 O431 2.077 . S
Fe419 O437 1.935 1_554 S
Fe419 O441 2.077 . S
O420 Fe416 1.715 . S
O420 Fe418 1.886 1_556 S
O421 Fe418 1.715 . S
O421 Fe423 1.886 . S
O422 Fe419 1.886 . S
O422 Fe423 1.715 . S
Fe423 O421 1.886 . S
Fe423 O422 1.715 . S
Fe423 O427 2.077 . S
Fe423 O432 1.935 . S
Fe423 O434 2.077 . S
Fe423 O442 1.935 . S
C424 O436 1.381 . S
C424 O437 1.421 . S
O425 Fe416 2.077 . S
O425 C438 1.381 . S
O426 Fe419 1.935 . S
O426 C438 1.421 1_554 S
O427 Fe423 2.077 . S
O427 C443 1.381 . S
O428 Fe418 1.935 . S
O428 C443 1.421 . S
O429 Fe418 2.077 1_556 S
O429 C433 1.381 . S
O430 Fe416 1.935 . S
O430 C433 1.421 . S
O431 Fe419 2.077 . S
O431 C439 1.381 . S
O432 Fe423 1.935 . S
O432 C439 1.421 . S
C433 O429 1.381 . S
C433 O430 1.421 . S
O434 Fe423 2.077 . S
O434 C446 1.381 . S
O435 Fe418 1.935 . S
O435 C446 1.421 . S
O436 Fe416 2.077 . S
O436 C424 1.381 . S
O437 Fe419 1.935 1_556 S
O437 C424 1.421 . S
C438 O425 1.381 . S
C438 O426 1.421 1_556 S
C439 O431 1.381 . S
C439 O432 1.421 . S
C440 O441 1.381 . S
C440 O442 1.421 . S
O441 Fe419 2.077 . S
O441 C440 1.381 . S
O442 Fe423 1.935 . S
O442 C440 1.421 . S
C443 O427 1.381 . S
C443 O428 1.421 . S
O444 Fe418 2.077 1_556 S
O444 C447 1.381 . S
O445 Fe416 1.935 . S
O445 C447 1.421 . S
C446 O434 1.381 . S
C446 O435 1.421 . S
C447 O444 1.381 . S
C447 O445 1.421 . S
Fe448 O449 1.886 . S
Fe448 O452 1.715 . S
Fe448 O457 2.077 . S
Fe448 O462 1.935 . S
Fe448 O468 2.077 1_455 S
Fe448 O477 1.935 1_455 S
O449 Fe448 1.886 . S
O449 Fe451 1.715 . S
Fe450 O452 1.886 . S
Fe450 O453 1.715 . S
Fe450 O460 1.935 . S
Fe450 O461 2.077 . S
Fe450 O467 1.935 1_455 S
Fe450 O476 2.077 1_455 S
Fe451 O449 1.715 . S
Fe451 O454 1.886 . S
Fe451 O458 1.935 . S
Fe451 O463 2.077 . S
Fe451 O469 1.926 1_455 S
Fe451 O473 2.077 . S
O452 Fe448 1.715 . S
O452 Fe450 1.886 . S
O453 Fe450 1.715 . S
O453 Fe455 1.886 . S
O454 Fe451 1.886 . S
O454 Fe455 1.715 . S
Fe455 O453 1.886 . S
Fe455 O454 1.715 . S
Fe455 O459 2.077 . S
Fe455 O464 1.935 . S
Fe455 O466 2.077 . S
Fe455 O474 1.935 . S
C456 O468 1.381 . S
C456 O469 1.422 . S
O457 Fe448 2.077 . S
O457 C470 1.381 . S
O458 Fe451 1.935 . S
O458 C470 1.421 . S
O459 Fe455 2.077 . S
O459 C475 1.381 . S
O460 Fe450 1.935 . S
O460 C475 1.421 . S
O461 Fe450 2.077 . S
O461 C465 1.381 . S
O462 Fe448 1.935 . S
O462 C465 1.421 . S
O463 Fe451 2.077 . S
O463 C471 1.381 . S
O464 Fe455 1.935 . S
O464 C471 1.421 . S
C465 O461 1.381 . S
C465 O462 1.421 . S
O466 Fe455 2.077 . S
O466 C478 1.381 1_455 S
O467 Fe450 1.935 1_655 S
O467 C478 1.421 . S
O468 Fe448 2.077 1_655 S
O468 C456 1.381 . S
O469 Fe451 1.926 1_655 S
O469 C456 1.422 . S
C470 O457 1.381 . S
C470 O458 1.421 . S
C471 O463 1.381 . S
C471 O464 1.421 . S
C472 O473 1.381 1_655 S
C472 O474 1.421 1_655 S
O473 Fe451 2.077 . S
O473 C472 1.381 1_455 S
O474 Fe455 1.935 . S
O474 C472 1.421 1_455 S
C475 O459 1.381 . S
C475 O460 1.421 . S
O476 Fe450 2.077 1_655 S
O476 C479 1.381 . S
O477 Fe448 1.935 1_655 S
O477 C479 1.421 . S
C478 O466 1.381 1_655 S
C478 O467 1.421 . S
C479 O476 1.381 . S
C479 O477 1.421 . S
Fe480 O481 1.886 . S
Fe480 O484 1.715 . S
Fe480 O489 2.077 . S
Fe480 O494 1.935 . S
Fe480 O500 2.077 . S
Fe480 O509 1.935 . S
O481 Fe480 1.886 . S
O481 Fe483 1.715 1_565 S
Fe482 O484 1.886 . S
Fe482 O485 1.715 1_565 S
Fe482 O492 1.935 1_565 S
Fe482 O493 2.077 . S
Fe482 O499 1.935 1_565 S
Fe482 O508 2.077 . S
Fe483 O481 1.715 1_545 S
Fe483 O486 1.886 . S
Fe483 O490 1.935 1_545 S
Fe483 O495 2.077 . S
Fe483 O501 1.935 1_545 S
Fe483 O505 2.077 . S
O484 Fe480 1.715 . S
O484 Fe482 1.886 . S
O485 Fe482 1.715 1_545 S
O485 Fe487 1.886 . S
O486 Fe483 1.886 . S
O486 Fe487 1.715 . S
Fe487 O485 1.886 . S
Fe487 O486 1.715 . S
Fe487 O491 2.077 . S
Fe487 O496 1.935 . S
Fe487 O498 2.077 . S
Fe487 O506 1.935 . S
C488 O500 1.381 . S
C488 O501 1.421 . S
O489 Fe480 2.077 . S
O489 C502 1.381 . S
O490 Fe483 1.935 1_565 S
O490 C502 1.421 . S
O491 Fe487 2.077 . S
O491 C507 1.381 . S
O492 Fe482 1.935 1_545 S
O492 C507 1.421 . S
O493 Fe482 2.077 . S
O493 C497 1.381 . S
O494 Fe480 1.935 . S
O494 C497 1.421 . S
O495 Fe483 2.077 . S
O495 C503 1.381 . S
O496 Fe487 1.935 . S
O496 C503 1.421 . S
C497 O493 1.381 . S
C497 O494 1.421 . S
O498 Fe487 2.077 . S
O498 C510 1.381 . S
O499 Fe482 1.935 1_545 S
O499 C510 1.421 . S
O500 Fe480 2.077 . S
O500 C488 1.381 . S
O501 Fe483 1.935 1_565 S
O501 C488 1.421 . S
C502 O489 1.381 . S
C502 O490 1.421 . S
C503 O495 1.381 . S
C503 O496 1.421 . S
C504 O505 1.381 . S
C504 O506 1.421 . S
O505 Fe483 2.077 . S
O505 C504 1.381 . S
O506 Fe487 1.935 . S
O506 C504 1.421 . S
C507 O491 1.381 . S
C507 O492 1.421 . S
O508 Fe482 2.077 . S
O508 C511 1.381 . S
O509 Fe480 1.935 . S
O509 C511 1.421 . S
C510 O498 1.381 . S
C510 O499 1.421 . S
C511 O508 1.381 . S
C511 O509 1.421 . S
H512 C518 0.930 . S
H513 C521 0.930 . S
H514 C522 0.930 . S
H515 C523 0.930 . S
H516 C526 0.930 . S
H517 C527 0.930 . S
C518 H512 0.930 . S
C518 C519 1.355 . S
C518 C520 1.415 . S
C519 C518 1.355 . S
C519 C521 1.419 . S
C520 C518 1.415 . S
C520 C525 1.425 . S
C520 C527 1.409 . S
C521 H513 0.930 . S
C521 C519 1.419 . S
C521 C522 1.362 . S
C522 H514 0.930 . S
C522 C521 1.362 . S
C522 C525 1.409 . S
C523 H515 0.930 . S
C523 C524 1.355 . S
C523 C525 1.415 . S
C524 C523 1.355 . S
C524 C526 1.419 . S
C525 C520 1.425 . S
C525 C522 1.409 . S
C525 C523 1.415 . S
C526 H516 0.930 . S
C526 C524 1.419 . S
C526 C527 1.362 . S
C527 H517 0.930 . S
C527 C520 1.409 . S
C527 C526 1.362 . S
H528 C534 0.930 . S
H529 C537 0.930 . S
H530 C538 0.930 . S
H531 C539 0.930 . S
H532 C542 0.930 . S
H533 C543 0.930 . S
C534 H528 0.930 . S
C534 C535 1.355 . S
C534 C536 1.415 . S
C535 C534 1.355 . S
C535 C537 1.419 . S
C536 C534 1.415 . S
C536 C541 1.425 . S
C536 C543 1.409 . S
C537 H529 0.930 . S
C537 C535 1.419 . S
C537 C538 1.362 . S
C538 H530 0.930 . S
C538 C537 1.362 . S
C538 C541 1.409 . S
C539 H531 0.930 . S
C539 C540 1.355 . S
C539 C541 1.415 . S
C540 C539 1.355 . S
C540 C542 1.419 . S
C541 C536 1.425 . S
C541 C538 1.409 . S
C541 C539 1.415 . S
C542 H532 0.930 . S
C542 C540 1.419 . S
C542 C543 1.362 . S
C543 H533 0.930 . S
C543 C536 1.409 . S
C543 C542 1.362 . S
H544 C550 0.930 . S
H545 C553 0.930 . S
H546 C554 0.930 . S
H547 C555 0.930 . S
H548 C558 0.930 . S
H549 C559 0.930 . S
C550 H544 0.930 . S
C550 C551 1.355 . S
C550 C552 1.415 . S
C551 C550 1.355 . S
C551 C553 1.419 . S
C552 C550 1.415 . S
C552 C557 1.425 . S
C552 C559 1.409 . S
C553 H545 0.930 . S
C553 C551 1.419 . S
C553 C554 1.362 . S
C554 H546 0.930 . S
C554 C553 1.362 . S
C554 C557 1.409 . S
C555 H547 0.930 . S
C555 C556 1.355 . S
C555 C557 1.415 . S
C556 C555 1.355 . S
C556 C558 1.419 . S
C557 C552 1.425 . S
C557 C554 1.409 . S
C557 C555 1.415 . S
C558 H548 0.930 . S
C558 C556 1.419 . S
C558 C559 1.362 . S
C559 H549 0.930 . S
C559 C552 1.409 . S
C559 C558 1.362 . S
H560 C566 0.930 . S
H561 C569 0.930 . S
H562 C570 0.930 . S
H563 C571 0.930 . S
H564 C574 0.930 . S
H565 C575 0.930 . S
C566 H560 0.930 . S
C566 C567 1.355 . S
C566 C568 1.415 . S
C567 C566 1.355 . S
C567 C569 1.419 . S
C568 C566 1.415 . S
C568 C573 1.425 . S
C568 C575 1.409 . S
C569 H561 0.930 . S
C569 C567 1.419 . S
C569 C570 1.362 . S
C570 H562 0.930 . S
C570 C569 1.362 . S
C570 C573 1.409 . S
C571 H563 0.930 . S
C571 C572 1.355 . S
C571 C573 1.415 . S
C572 C571 1.355 . S
C572 C574 1.419 . S
C573 C568 1.425 . S
C573 C570 1.409 . S
C573 C571 1.415 . S
C574 H564 0.930 . S
C574 C572 1.419 . S
C574 C575 1.362 . S
C575 H565 0.930 . S
C575 C568 1.409 . S
C575 C574 1.362 . S
H576 C582 0.930 . S
H577 C585 0.930 . S
H578 C586 0.930 . S
H579 C587 0.930 . S
H580 C590 0.930 . S
H581 C591 0.930 . S
C582 H576 0.930 . S
C582 C583 1.355 . S
C582 C584 1.415 . S
C583 C582 1.355 . S
C583 C585 1.419 . S
C584 C582 1.415 . S
C584 C589 1.425 . S
C584 C591 1.409 . S
C585 H577 0.930 . S
C585 C583 1.419 . S
C585 C586 1.362 . S
C586 H578 0.930 . S
C586 C585 1.362 . S
C586 C589 1.409 . S
C587 H579 0.930 . S
C587 C588 1.355 . S
C587 C589 1.415 . S
C588 C587 1.355 . S
C588 C590 1.419 . S
C589 C584 1.425 . S
C589 C586 1.409 . S
C589 C587 1.415 . S
C590 H580 0.930 . S
C590 C588 1.419 . S
C590 C591 1.362 . S
C591 H581 0.930 . S
C591 C584 1.409 . S
C591 C590 1.362 . S
H592 C598 0.930 . S
H593 C601 0.930 . S
H594 C602 0.930 . S
H595 C603 0.930 . S
H596 C606 0.930 . S
H597 C607 0.930 . S
C598 H592 0.930 . S
C598 C599 1.355 . S
C598 C600 1.415 . S
C599 C598 1.355 . S
C599 C601 1.419 . S
C600 C598 1.415 . S
C600 C605 1.425 . S
C600 C607 1.409 . S
C601 H593 0.930 . S
C601 C599 1.419 . S
C601 C602 1.362 . S
C602 H594 0.930 . S
C602 C601 1.362 . S
C602 C605 1.409 . S
C603 H595 0.930 . S
C603 C604 1.355 . S
C603 C605 1.415 . S
C604 C603 1.355 . S
C604 C606 1.419 . S
C605 C600 1.425 . S
C605 C602 1.409 . S
C605 C603 1.415 . S
C606 H596 0.930 . S
C606 C604 1.419 . S
C606 C607 1.362 . S
C607 H597 0.930 . S
C607 C600 1.409 . S
C607 C606 1.362 . S
H608 C614 0.930 . S
H609 C617 0.930 . S
H610 C618 0.930 1_455 S
H611 C619 0.930 1_455 S
H612 C622 0.930 . S
H613 C623 0.930 . S
C614 H608 0.930 . S
C614 C615 1.355 . S
C614 C616 1.415 . S
C615 C614 1.355 . S
C615 C617 1.419 . S
C616 C614 1.415 . S
C616 C621 1.425 . S
C616 C623 1.409 . S
C617 H609 0.930 . S
C617 C615 1.419 . S
C617 C618 1.362 . S
C618 H610 0.930 1_655 S
C618 C617 1.362 . S
C618 C621 1.409 . S
C619 H611 0.930 1_655 S
C619 C620 1.355 . S
C619 C621 1.415 . S
C620 C619 1.355 . S
C620 C622 1.419 . S
C621 C616 1.425 . S
C621 C618 1.409 . S
C621 C619 1.415 . S
C622 H612 0.930 . S
C622 C620 1.419 . S
C622 C623 1.362 . S
C623 H613 0.930 . S
C623 C616 1.409 . S
C623 C622 1.362 . S
H624 C630 0.930 . S
H625 C633 0.930 . S
H626 C634 0.930 . S
H627 C635 0.930 . S
H628 C638 0.930 . S
H629 C639 0.930 . S
C630 H624 0.930 . S
C630 C631 1.355 . S
C630 C632 1.415 . S
C631 C630 1.355 . S
C631 C633 1.419 . S
C632 C630 1.415 . S
C632 C637 1.425 . S
C632 C639 1.409 . S
C633 H625 0.930 . S
C633 C631 1.419 . S
C633 C634 1.362 . S
C634 H626 0.930 . S
C634 C633 1.362 . S
C634 C637 1.409 . S
C635 H627 0.930 . S
C635 C636 1.355 . S
C635 C637 1.415 . S
C636 C635 1.355 . S
C636 C638 1.419 . S
C637 C632 1.425 . S
C637 C634 1.409 . S
C637 C635 1.415 . S
C638 H628 0.930 . S
C638 C636 1.419 . S
C638 C639 1.362 . S
C639 H629 0.930 . S
C639 C632 1.409 . S
C639 C638 1.362 . S
H640 C646 0.930 . S
H641 C649 0.930 . S
H642 C650 0.930 . S
H643 C651 0.930 . S
H644 C654 0.930 . S
H645 C655 0.930 . S
C646 H640 0.930 . S
C646 C647 1.355 . S
C646 C648 1.415 . S
C647 C646 1.355 . S
C647 C649 1.419 . S
C648 C646 1.415 . S
C648 C653 1.425 . S
C648 C655 1.409 . S
C649 H641 0.930 . S
C649 C647 1.419 . S
C649 C650 1.362 . S
C650 H642 0.930 . S
C650 C649 1.362 . S
C650 C653 1.409 . S
C651 H643 0.930 . S
C651 C652 1.355 . S
C651 C653 1.415 . S
C652 C651 1.355 . S
C652 C654 1.419 . S
C653 C648 1.425 . S
C653 C650 1.409 . S
C653 C651 1.415 . S
C654 H644 0.930 . S
C654 C652 1.419 . S
C654 C655 1.362 . S
C655 H645 0.930 . S
C655 C648 1.409 . S
C655 C654 1.362 . S
H656 C662 0.930 . S
H657 C665 0.930 . S
H658 C666 0.930 . S
H659 C667 0.930 . S
H660 C670 0.930 . S
H661 C671 0.930 . S
C662 H656 0.930 . S
C662 C663 1.355 . S
C662 C664 1.415 . S
C663 C662 1.355 . S
C663 C665 1.419 . S
C664 C662 1.415 . S
C664 C669 1.425 . S
C664 C671 1.409 . S
C665 H657 0.930 . S
C665 C663 1.419 . S
C665 C666 1.362 . S
C666 H658 0.930 . S
C666 C665 1.362 . S
C666 C669 1.409 . S
C667 H659 0.930 . S
C667 C668 1.355 . S
C667 C669 1.415 . S
C668 C667 1.355 . S
C668 C670 1.419 . S
C669 C664 1.425 . S
C669 C666 1.409 . S
C669 C667 1.415 . S
C670 H660 0.930 . S
C670 C668 1.419 . S
C670 C671 1.362 . S
C671 H661 0.930 . S
C671 C664 1.409 . S
C671 C670 1.362 . S
H672 C678 0.930 . S
H673 C681 0.930 . S
H674 C682 0.930 . S
H675 C683 0.930 . S
H676 C686 0.930 . S
H677 C687 0.930 . S
C678 H672 0.930 . S
C678 C679 1.355 . S
C678 C680 1.415 . S
C679 C678 1.355 . S
C679 C681 1.419 . S
C680 C678 1.415 . S
C680 C685 1.425 . S
C680 C687 1.409 1_565 S
C681 H673 0.930 . S
C681 C679 1.419 . S
C681 C682 1.362 . S
C682 H674 0.930 . S
C682 C681 1.362 . S
C682 C685 1.409 . S
C683 H675 0.930 . S
C683 C684 1.355 . S
C683 C685 1.415 . S
C684 C683 1.355 . S
C684 C686 1.419 1_565 S
C685 C680 1.425 . S
C685 C682 1.409 . S
C685 C683 1.415 . S
C686 H676 0.930 . S
C686 C684 1.419 1_545 S
C686 C687 1.362 . S
C687 H677 0.930 . S
C687 C680 1.409 1_545 S
C687 C686 1.362 . S
H688 C694 0.930 . S
H689 C697 0.930 . S
H690 C698 0.930 . S
H691 C699 0.930 . S
H692 C702 0.930 . S
H693 C703 0.930 . S
C694 H688 0.930 . S
C694 C695 1.355 . S
C694 C696 1.415 . S
C695 C694 1.355 . S
C695 C697 1.419 . S
C696 C694 1.415 . S
C696 C701 1.425 . S
C696 C703 1.409 . S
C697 H689 0.930 . S
C697 C695 1.419 . S
C697 C698 1.362 . S
C698 H690 0.930 . S
C698 C697 1.362 . S
C698 C701 1.409 . S
C699 H691 0.930 . S
C699 C700 1.355 . S
C699 C701 1.415 . S
C700 C699 1.355 . S
C700 C702 1.419 . S
C701 C696 1.425 . S
C701 C698 1.409 . S
C701 C699 1.415 . S
C702 H692 0.930 . S
C702 C700 1.419 . S
C702 C703 1.362 . S
C703 H693 0.930 . S
C703 C696 1.409 . S
C703 C702 1.362 . S
H704 C710 0.930 . S
H705 C713 0.930 . S
H706 C714 0.930 . S
H707 C715 0.930 . S
H708 C718 0.930 . S
H709 C719 0.930 . S
C710 H704 0.930 . S
C710 C711 1.355 . S
C710 C712 1.415 . S
C711 C710 1.355 . S
C711 C713 1.419 . S
C712 C710 1.415 . S
C712 C717 1.425 . S
C712 C719 1.409 . S
C713 H705 0.930 . S
C713 C711 1.419 . S
C713 C714 1.362 . S
C714 H706 0.930 . S
C714 C713 1.362 . S
C714 C717 1.409 . S
C715 H707 0.930 . S
C715 C716 1.355 . S
C715 C717 1.415 . S
C716 C715 1.355 . S
C716 C718 1.419 . S
C717 C712 1.425 . S
C717 C714 1.409 . S
C717 C715 1.415 . S
C718 H708 0.930 . S
C718 C716 1.419 . S
C718 C719 1.362 . S
C719 H709 0.930 . S
C719 C712 1.409 . S
C719 C718 1.362 . S
H720 C726 0.930 . S
H721 C729 0.930 . S
H722 C730 0.930 . S
H723 C731 0.930 . S
H724 C734 0.930 . S
H725 C735 0.930 . S
C726 H720 0.930 . S
C726 C727 1.355 . S
C726 C728 1.415 . S
C727 C726 1.355 . S
C727 C729 1.419 . S
C728 C726 1.415 . S
C728 C733 1.425 . S
C728 C735 1.409 . S
C729 H721 0.930 . S
C729 C727 1.419 . S
C729 C730 1.362 . S
C730 H722 0.930 . S
C730 C729 1.362 . S
C730 C733 1.409 . S
C731 H723 0.930 . S
C731 C732 1.355 . S
C731 C733 1.415 . S
C732 C731 1.355 . S
C732 C734 1.419 . S
C733 C728 1.425 . S
C733 C730 1.409 . S
C733 C731 1.415 . S
C734 H724 0.930 . S
C734 C732 1.419 . S
C734 C735 1.362 . S
C735 H725 0.930 . S
C735 C728 1.409 . S
C735 C734 1.362 . S
H736 C742 0.930 . S
H737 C745 0.930 . S
H738 C746 0.930 . S
H739 C747 0.930 . S
H740 C750 0.930 . S
H741 C751 0.930 . S
C742 H736 0.930 . S
C742 C743 1.355 . S
C742 C744 1.415 . S
C743 C742 1.355 . S
C743 C745 1.419 . S
C744 C742 1.415 . S
C744 C749 1.425 . S
C744 C751 1.409 . S
C745 H737 0.930 . S
C745 C743 1.419 . S
C745 C746 1.362 . S
C746 H738 0.930 . S
C746 C745 1.362 . S
C746 C749 1.409 . S
C747 H739 0.930 . S
C747 C748 1.355 . S
C747 C749 1.415 . S
C748 C747 1.355 . S
C748 C750 1.419 . S
C749 C744 1.425 . S
C749 C746 1.409 . S
C749 C747 1.415 . S
C750 H740 0.930 . S
C750 C748 1.419 . S
C750 C751 1.362 . S
C751 H741 0.930 . S
C751 C744 1.409 . S
C751 C750 1.362 . S
H752 C758 0.930 . S
H753 C761 0.930 . S
H754 C762 0.930 . S
H755 C763 0.930 . S
H756 C766 0.930 . S
H757 C767 0.930 . S
C758 H752 0.930 . S
C758 C759 1.355 . S
C758 C760 1.415 . S
C759 C758 1.355 . S
C759 C761 1.419 . S
C760 C758 1.415 . S
C760 C765 1.425 . S
C760 C767 1.409 . S
C761 H753 0.930 . S
C761 C759 1.419 . S
C761 C762 1.362 . S
C762 H754 0.930 . S
C762 C761 1.362 . S
C762 C765 1.409 . S
C763 H755 0.930 . S
C763 C764 1.355 . S
C763 C765 1.415 . S
C764 C763 1.355 . S
C764 C766 1.419 . S
C765 C760 1.425 . S
C765 C762 1.409 . S
C765 C763 1.415 . S
C766 H756 0.930 . S
C766 C764 1.419 . S
C766 C767 1.362 . S
C767 H757 0.930 . S
C767 C760 1.409 . S
C767 C766 1.362 . S
H768 C774 0.930 . S
H769 C777 0.930 . S
H770 C778 0.930 . S
H771 C779 0.930 . S
H772 C782 0.930 . S
H773 C783 0.930 . S
C774 H768 0.930 . S
C774 C775 1.355 . S
C774 C776 1.415 . S
C775 C774 1.355 . S
C775 C777 1.419 . S
C776 C774 1.415 . S
C776 C781 1.425 . S
C776 C783 1.409 . S
C777 H769 0.930 . S
C777 C775 1.419 . S
C777 C778 1.362 . S
C778 H770 0.930 . S
C778 C777 1.362 . S
C778 C781 1.409 . S
C779 H771 0.930 . S
C779 C780 1.355 . S
C779 C781 1.415 . S
C780 C779 1.355 . S
C780 C782 1.419 . S
C781 C776 1.425 . S
C781 C778 1.409 . S
C781 C779 1.415 . S
C782 H772 0.930 . S
C782 C780 1.419 . S
C782 C783 1.362 . S
C783 H773 0.930 . S
C783 C776 1.409 . S
C783 C782 1.362 . S
H784 C790 0.930 . S
H785 C793 0.930 . S
H786 C794 0.930 1_554 S
H787 C795 0.930 . S
H788 C798 0.930 . S
H789 C799 0.930 . S
C790 H784 0.930 . S
C790 C791 1.355 . S
C790 C792 1.415 . S
C791 C790 1.355 . S
C791 C793 1.419 . S
C792 C790 1.415 . S
C792 C797 1.425 . S
C792 C799 1.409 . S
C793 H785 0.930 . S
C793 C791 1.419 . S
C793 C794 1.362 . S
C794 H786 0.930 1_556 S
C794 C793 1.362 . S
C794 C797 1.409 . S
C795 H787 0.930 . S
C795 C796 1.355 . S
C795 C797 1.415 1_554 S
C796 C795 1.355 . S
C796 C798 1.419 1_554 S
C797 C792 1.425 . S
C797 C794 1.409 . S
C797 C795 1.415 1_556 S
C798 H788 0.930 . S
C798 C796 1.419 1_556 S
C798 C799 1.362 . S
C799 H789 0.930 . S
C799 C792 1.409 . S
C799 C798 1.362 . S
H800 C806 0.930 . S
H801 C809 0.930 . S
H802 C810 0.930 . S
H803 C811 0.930 . S
H804 C814 0.930 . S
H805 C815 0.930 . S
C806 H800 0.930 . S
C806 C807 1.355 . S
C806 C808 1.415 . S
C807 C806 1.355 . S
C807 C809 1.419 . S
C808 C806 1.415 . S
C808 C813 1.425 . S
C808 C815 1.409 . S
C809 H801 0.930 . S
C809 C807 1.419 . S
C809 C810 1.362 . S
C810 H802 0.930 . S
C810 C809 1.362 . S
C810 C813 1.409 . S
C811 H803 0.930 . S
C811 C812 1.355 . S
C811 C813 1.415 . S
C812 C811 1.355 . S
C812 C814 1.419 . S
C813 C808 1.425 . S
C813 C810 1.409 . S
C813 C811 1.415 . S
C814 H804 0.930 . S
C814 C812 1.419 . S
C814 C815 1.362 . S
C815 H805 0.930 . S
C815 C808 1.409 . S
C815 C814 1.362 . S
H816 C822 0.930 . S
H817 C825 0.930 . S
H818 C826 0.930 . S
H819 C827 0.930 . S
H820 C830 0.930 . S
H821 C831 0.930 . S
C822 H816 0.930 . S
C822 C823 1.355 . S
C822 C824 1.415 . S
C823 C822 1.355 . S
C823 C825 1.419 . S
C824 C822 1.415 . S
C824 C829 1.425 . S
C824 C831 1.409 . S
C825 H817 0.930 . S
C825 C823 1.419 . S
C825 C826 1.362 . S
C826 H818 0.930 . S
C826 C825 1.362 . S
C826 C829 1.409 . S
C827 H819 0.930 . S
C827 C828 1.355 . S
C827 C829 1.415 . S
C828 C827 1.355 . S
C828 C830 1.419 . S
C829 C824 1.425 . S
C829 C826 1.409 . S
C829 C827 1.415 . S
C830 H820 0.930 . S
C830 C828 1.419 . S
C830 C831 1.362 . S
C831 H821 0.930 . S
C831 C824 1.409 . S
C831 C830 1.362 . S
H832 C838 0.930 . S
H833 C841 0.930 . S
H834 C842 0.930 . S
H835 C843 0.930 . S
H836 C846 0.930 . S
H837 C847 0.930 . S
C838 H832 0.930 . S
C838 C839 1.355 . S
C838 C840 1.415 . S
C839 C838 1.355 . S
C839 C841 1.419 . S
C840 C838 1.415 . S
C840 C845 1.425 . S
C840 C847 1.409 . S
C841 H833 0.930 . S
C841 C839 1.419 . S
C841 C842 1.362 . S
C842 H834 0.930 . S
C842 C841 1.362 . S
C842 C845 1.409 . S
C843 H835 0.930 . S
C843 C844 1.355 . S
C843 C845 1.415 . S
C844 C843 1.355 . S
C844 C846 1.419 . S
C845 C840 1.425 . S
C845 C842 1.409 . S
C845 C843 1.415 . S
C846 H836 0.930 . S
C846 C844 1.419 . S
C846 C847 1.362 . S
C847 H837 0.930 . S
C847 C840 1.409 . S
C847 C846 1.362 . S
H848 C854 0.930 . S
H849 C857 0.930 . S
H850 C858 0.930 . S
H851 C859 0.930 . S
H852 C862 0.930 . S
H853 C863 0.930 . S
C854 H848 0.930 . S
C854 C855 1.355 . S
C854 C856 1.415 . S
C855 C854 1.355 . S
C855 C857 1.419 . S
C856 C854 1.415 . S
C856 C861 1.425 . S
C856 C863 1.409 . S
C857 H849 0.930 . S
C857 C855 1.419 . S
C857 C858 1.362 . S
C858 H850 0.930 . S
C858 C857 1.362 . S
C858 C861 1.409 . S
C859 H851 0.930 . S
C859 C860 1.355 . S
C859 C861 1.415 . S
C860 C859 1.355 . S
C860 C862 1.419 . S
C861 C856 1.425 . S
C861 C858 1.409 . S
C861 C859 1.415 . S
C862 H852 0.930 . S
C862 C860 1.419 . S
C862 C863 1.362 . S
C863 H853 0.930 . S
C863 C856 1.409 . S
C863 C862 1.362 . S
H864 C870 0.930 . S
H865 C873 0.930 . S
H866 C874 0.930 . S
H867 C875 0.930 . S
H868 C878 0.930 . S
H869 C879 0.930 . S
C870 H864 0.930 . S
C870 C871 1.355 . S
C870 C872 1.415 . S
C871 C870 1.355 . S
C871 C873 1.419 . S
C872 C870 1.415 . S
C872 C877 1.425 . S
C872 C879 1.409 . S
C873 H865 0.930 . S
C873 C871 1.419 . S
C873 C874 1.362 . S
C874 H866 0.930 . S
C874 C873 1.362 . S
C874 C877 1.409 . S
C875 H867 0.930 . S
C875 C876 1.355 . S
C875 C877 1.415 . S
C876 C875 1.355 . S
C876 C878 1.419 . S
C877 C872 1.425 . S
C877 C874 1.409 . S
C877 C875 1.415 . S
C878 H868 0.930 . S
C878 C876 1.419 . S
C878 C879 1.362 . S
C879 H869 0.930 . S
C879 C872 1.409 . S
C879 C878 1.362 . S
H880 C886 0.930 . S
H881 C889 0.930 . S
H882 C890 0.930 . S
H883 C891 0.930 . S
H884 C894 0.930 . S
H885 C895 0.930 . S
C886 H880 0.930 . S
C886 C887 1.355 . S
C886 C888 1.415 . S
C887 C886 1.355 . S
C887 C889 1.419 . S
C888 C886 1.415 . S
C888 C893 1.425 . S
C888 C895 1.409 . S
C889 H881 0.930 . S
C889 C887 1.419 . S
C889 C890 1.362 . S
C890 H882 0.930 . S
C890 C889 1.362 . S
C890 C893 1.409 . S
C891 H883 0.930 . S
C891 C892 1.355 . S
C891 C893 1.415 . S
C892 C891 1.355 . S
C892 C894 1.419 . S
C893 C888 1.425 . S
C893 C890 1.409 . S
C893 C891 1.415 . S
C894 H884 0.930 . S
C894 C892 1.419 . S
C894 C895 1.362 . S
C895 H885 0.930 . S
C895 C888 1.409 . S
C895 C894 1.362 . S
H896 C902 0.930 . S
H897 C905 0.930 . S
H898 C906 0.930 . S
H899 C907 0.930 . S
H900 C910 0.930 . S
H901 C911 0.930 . S
C902 H896 0.930 . S
C902 C903 1.355 . S
C902 C904 1.415 . S
C903 C902 1.355 . S
C903 C905 1.419 . S
C904 C902 1.415 . S
C904 C909 1.425 . S
C904 C911 1.409 . S
C905 H897 0.930 . S
C905 C903 1.419 . S
C905 C906 1.362 . S
C906 H898 0.930 . S
C906 C905 1.362 . S
C906 C909 1.409 . S
C907 H899 0.930 . S
C907 C908 1.355 . S
C907 C909 1.415 . S
C908 C907 1.355 . S
C908 C910 1.419 . S
C909 C904 1.425 . S
C909 C906 1.409 . S
C909 C907 1.415 . S
C910 H900 0.930 . S
C910 C908 1.419 . S
C910 C911 1.362 . S
C911 H901 0.930 . S
C911 C904 1.409 . S
C911 C910 1.362 . S
H912 C918 0.930 . S
H913 C921 0.930 . S
H914 C922 0.930 . S
H915 C923 0.930 . S
H916 C926 0.930 . S
H917 C927 0.930 . S
C918 H912 0.930 . S
C918 C919 1.355 . S
C918 C920 1.415 . S
C919 C918 1.355 . S
C919 C921 1.419 . S
C920 C918 1.415 . S
C920 C925 1.425 . S
C920 C927 1.409 . S
C921 H913 0.930 . S
C921 C919 1.419 . S
C921 C922 1.362 . S
C922 H914 0.930 . S
C922 C921 1.362 . S
C922 C925 1.409 . S
C923 H915 0.930 . S
C923 C924 1.355 . S
C923 C925 1.415 . S
C924 C923 1.355 . S
C924 C926 1.419 . S
C925 C920 1.425 . S
C925 C922 1.409 . S
C925 C923 1.415 . S
C926 H916 0.930 . S
C926 C924 1.419 . S
C926 C927 1.362 . S
C927 H917 0.930 . S
C927 C920 1.409 . S
C927 C926 1.362 . S
H928 C934 0.930 . S
H929 C937 0.930 . S
H930 C938 0.930 . S
H931 C939 0.930 . S
H932 C942 0.930 . S
H933 C943 0.930 . S
C934 H928 0.930 . S
C934 C935 1.355 . S
C934 C936 1.415 . S
C935 C934 1.355 . S
C935 C937 1.419 . S
C936 C934 1.415 . S
C936 C941 1.425 . S
C936 C943 1.409 . S
C937 H929 0.930 . S
C937 C935 1.419 . S
C937 C938 1.362 . S
C938 H930 0.930 . S
C938 C937 1.362 . S
C938 C941 1.409 . S
C939 H931 0.930 . S
C939 C940 1.355 . S
C939 C941 1.415 . S
C940 C939 1.355 . S
C940 C942 1.419 . S
C941 C936 1.425 . S
C941 C938 1.409 . S
C941 C939 1.415 . S
C942 H932 0.930 . S
C942 C940 1.419 . S
C942 C943 1.362 . S
C943 H933 0.930 . S
C943 C936 1.409 . S
C943 C942 1.362 . S
H944 C950 0.930 . S
H945 C953 0.930 . S
H946 C954 0.930 . S
H947 C955 0.930 . S
H948 C958 0.930 . S
H949 C959 0.930 . S
C950 H944 0.930 . S
C950 C951 1.355 . S
C950 C952 1.415 . S
C951 C950 1.355 . S
C951 C953 1.419 . S
C952 C950 1.415 . S
C952 C957 1.425 . S
C952 C959 1.409 . S
C953 H945 0.930 . S
C953 C951 1.419 . S
C953 C954 1.362 . S
C954 H946 0.930 . S
C954 C953 1.362 . S
C954 C957 1.409 . S
C955 H947 0.930 . S
C955 C956 1.355 . S
C955 C957 1.415 . S
C956 C955 1.355 . S
C956 C958 1.419 . S
C957 C952 1.425 . S
C957 C954 1.409 . S
C957 C955 1.415 . S
C958 H948 0.930 . S
C958 C956 1.419 . S
C958 C959 1.362 . S
C959 H949 0.930 . S
C959 C952 1.409 . S
C959 C958 1.362 . S
H960 C966 0.930 . S
H961 C969 0.930 . S
H962 C970 0.930 . S
H963 C971 0.930 . S
H964 C974 0.930 . S
H965 C975 0.930 . S
C966 H960 0.930 . S
C966 C967 1.355 . S
C966 C968 1.415 . S
C967 C966 1.355 . S
C967 C969 1.419 . S
C968 C966 1.415 . S
C968 C973 1.425 . S
C968 C975 1.409 . S
C969 H961 0.930 . S
C969 C967 1.419 . S
C969 C970 1.362 . S
C970 H962 0.930 . S
C970 C969 1.362 . S
C970 C973 1.409 . S
C971 H963 0.930 . S
C971 C972 1.355 . S
C971 C973 1.415 . S
C972 C971 1.355 . S
C972 C974 1.419 . S
C973 C968 1.425 . S
C973 C970 1.409 . S
C973 C971 1.415 . S
C974 H964 0.930 . S
C974 C972 1.419 . S
C974 C975 1.362 . S
C975 H965 0.930 . S
C975 C968 1.409 . S
C975 C974 1.362 . S
H976 C982 0.930 . S
H977 C985 0.930 . S
H978 C986 0.930 . S
H979 C987 0.930 . S
H980 C990 0.930 . S
H981 C991 0.930 . S
C982 H976 0.930 . S
C982 C983 1.355 . S
C982 C984 1.415 . S
C983 C982 1.355 . S
C983 C985 1.419 . S
C984 C982 1.415 . S
C984 C989 1.425 . S
C984 C991 1.409 . S
C985 H977 0.930 . S
C985 C983 1.419 . S
C985 C986 1.362 . S
C986 H978 0.930 . S
C986 C985 1.362 . S
C986 C989 1.409 . S
C987 H979 0.930 . S
C987 C988 1.355 . S
C987 C989 1.415 . S
C988 C987 1.355 . S
C988 C990 1.419 . S
C989 C984 1.425 . S
C989 C986 1.409 . S
C989 C987 1.415 . S
C990 H980 0.930 . S
C990 C988 1.419 . S
C990 C991 1.362 . S
C991 H981 0.930 . S
C991 C984 1.409 . S
C991 C990 1.362 . S
H992 C998 0.930 . S
H993 C1001 0.930 . S
H994 C1002 0.930 . S
H995 C1003 0.930 . S
H996 C1006 0.930 . S
H997 C1007 0.930 . S
C998 H992 0.930 . S
C998 C999 1.355 . S
C998 C1000 1.415 . S
C999 C998 1.355 . S
C999 C1001 1.419 . S
C1000 C998 1.415 . S
C1000 C1005 1.425 . S
C1000 C1007 1.409 . S
C1001 H993 0.930 . S
C1001 C999 1.419 . S
C1001 C1002 1.362 . S
C1002 H994 0.930 . S
C1002 C1001 1.362 . S
C1002 C1005 1.409 . S
C1003 H995 0.930 . S
C1003 C1004 1.355 . S
C1003 C1005 1.415 . S
C1004 C1003 1.355 . S
C1004 C1006 1.419 . S
C1005 C1000 1.425 . S
C1005 C1002 1.409 . S
C1005 C1003 1.415 . S
C1006 H996 0.930 . S
C1006 C1004 1.419 . S
C1006 C1007 1.362 . S
C1007 H997 0.930 . S
C1007 C1000 1.409 . S
C1007 C1006 1.362 . S
H1008 C1014 0.930 . S
H1009 C1017 0.930 . S
H1010 C1018 0.930 . S
H1011 C1019 0.930 . S
H1012 C1022 0.930 . S
H1013 C1023 0.930 . S
C1014 H1008 0.930 . S
C1014 C1015 1.355 . S
C1014 C1016 1.415 . S
C1015 C1014 1.355 . S
C1015 C1017 1.419 . S
C1016 C1014 1.415 . S
C1016 C1021 1.425 . S
C1016 C1023 1.409 . S
C1017 H1009 0.930 . S
C1017 C1015 1.419 . S
C1017 C1018 1.362 . S
C1018 H1010 0.930 . S
C1018 C1017 1.362 . S
C1018 C1021 1.409 . S
C1019 H1011 0.930 . S
C1019 C1020 1.355 . S
C1019 C1021 1.415 . S
C1020 C1019 1.355 . S
C1020 C1022 1.419 . S
C1021 C1016 1.425 . S
C1021 C1018 1.409 . S
C1021 C1019 1.415 . S
C1022 H1012 0.930 . S
C1022 C1020 1.419 . S
C1022 C1023 1.362 . S
C1023 H1013 0.930 . S
C1023 C1016 1.409 . S
C1023 C1022 1.362 . S
H1024 C1030 0.930 . S
H1025 C1033 0.930 . S
H1026 C1034 0.930 . S
H1027 C1035 0.930 . S
H1028 C1038 0.930 . S
H1029 C1039 0.930 . S
C1030 H1024 0.930 . S
C1030 C1031 1.355 . S
C1030 C1032 1.415 . S
C1031 C1030 1.355 . S
C1031 C1033 1.419 . S
C1032 C1030 1.415 . S
C1032 C1037 1.425 . S
C1032 C1039 1.409 . S
C1033 H1025 0.930 . S
C1033 C1031 1.419 . S
C1033 C1034 1.362 . S
C1034 H1026 0.930 . S
C1034 C1033 1.362 . S
C1034 C1037 1.409 . S
C1035 H1027 0.930 . S
C1035 C1036 1.355 . S
C1035 C1037 1.415 . S
C1036 C1035 1.355 . S
C1036 C1038 1.419 . S
C1037 C1032 1.425 . S
C1037 C1034 1.409 . S
C1037 C1035 1.415 . S
C1038 H1028 0.930 . S
C1038 C1036 1.419 . S
C1038 C1039 1.362 . S
C1039 H1029 0.930 . S
C1039 C1032 1.409 . S
C1039 C1038 1.362 . S
H1040 C1046 0.930 . S
H1041 C1049 0.930 . S
H1042 C1050 0.930 . S
H1043 C1051 0.930 . S
H1044 C1054 0.930 . S
H1045 C1055 0.930 . S
C1046 H1040 0.930 . S
C1046 C1047 1.355 . S
C1046 C1048 1.415 . S
C1047 C1046 1.355 . S
C1047 C1049 1.419 . S
C1048 C1046 1.415 . S
C1048 C1053 1.425 . S
C1048 C1055 1.409 . S
C1049 H1041 0.930 . S
C1049 C1047 1.419 . S
C1049 C1050 1.362 . S
C1050 H1042 0.930 . S
C1050 C1049 1.362 . S
C1050 C1053 1.409 . S
C1051 H1043 0.930 . S
C1051 C1052 1.355 . S
C1051 C1053 1.415 . S
C1052 C1051 1.355 . S
C1052 C1054 1.419 . S
C1053 C1048 1.425 . S
C1053 C1050 1.409 . S
C1053 C1051 1.415 . S
C1054 H1044 0.930 . S
C1054 C1052 1.419 . S
C1054 C1055 1.362 . S
C1055 H1045 0.930 . S
C1055 C1048 1.409 . S
C1055 C1054 1.362 . S
H1056 C1062 0.930 . S
H1057 C1065 0.930 . S
H1058 C1066 0.930 . S
H1059 C1067 0.930 . S
H1060 C1070 0.930 . S
H1061 C1071 0.930 . S
C1062 H1056 0.930 . S
C1062 C1063 1.355 . S
C1062 C1064 1.415 . S
C1063 C1062 1.355 . S
C1063 C1065 1.419 . S
C1064 C1062 1.415 . S
C1064 C1069 1.425 . S
C1064 C1071 1.409 . S
C1065 H1057 0.930 . S
C1065 C1063 1.419 . S
C1065 C1066 1.362 . S
C1066 H1058 0.930 . S
C1066 C1065 1.362 . S
C1066 C1069 1.409 . S
C1067 H1059 0.930 . S
C1067 C1068 1.355 . S
C1067 C1069 1.415 . S
C1068 C1067 1.355 . S
C1068 C1070 1.419 . S
C1069 C1064 1.425 . S
C1069 C1066 1.409 . S
C1069 C1067 1.415 . S
C1070 H1060 0.930 . S
C1070 C1068 1.419 . S
C1070 C1071 1.362 . S
C1071 H1061 0.930 . S
C1071 C1064 1.409 . S
C1071 C1070 1.362 . S
H1072 C1078 0.930 . S
H1073 C1081 0.930 . S
H1074 C1082 0.930 . S
H1075 C1083 0.930 . S
H1076 C1086 0.930 . S
H1077 C1087 0.930 . S
C1078 H1072 0.930 . S
C1078 C1079 1.355 . S
C1078 C1080 1.415 . S
C1079 C1078 1.355 . S
C1079 C1081 1.419 . S
C1080 C1078 1.415 . S
C1080 C1085 1.425 . S
C1080 C1087 1.409 . S
C1081 H1073 0.930 . S
C1081 C1079 1.419 . S
C1081 C1082 1.362 . S
C1082 H1074 0.930 . S
C1082 C1081 1.362 . S
C1082 C1085 1.409 . S
C1083 H1075 0.930 . S
C1083 C1084 1.355 . S
C1083 C1085 1.415 . S
C1084 C1083 1.355 . S
C1084 C1086 1.419 . S
C1085 C1080 1.425 . S
C1085 C1082 1.409 . S
C1085 C1083 1.415 . S
C1086 H1076 0.930 . S
C1086 C1084 1.419 . S
C1086 C1087 1.362 . S
C1087 H1077 0.930 . S
C1087 C1080 1.409 . S
C1087 C1086 1.362 . S
H1088 C1094 0.930 . S
H1089 C1097 0.930 . S
H1090 C1098 0.930 . S
H1091 C1099 0.930 . S
H1092 C1102 0.930 . S
H1093 C1103 0.930 . S
C1094 H1088 0.930 . S
C1094 C1095 1.355 . S
C1094 C1096 1.415 . S
C1095 C1094 1.355 . S
C1095 C1097 1.419 . S
C1096 C1094 1.415 . S
C1096 C1101 1.425 . S
C1096 C1103 1.409 . S
C1097 H1089 0.930 . S
C1097 C1095 1.419 . S
C1097 C1098 1.362 . S
C1098 H1090 0.930 . S
C1098 C1097 1.362 . S
C1098 C1101 1.409 . S
C1099 H1091 0.930 . S
C1099 C1100 1.355 . S
C1099 C1101 1.415 . S
C1100 C1099 1.355 . S
C1100 C1102 1.419 . S
C1101 C1096 1.425 . S
C1101 C1098 1.409 . S
C1101 C1099 1.415 . S
C1102 H1092 0.930 . S
C1102 C1100 1.419 . S
C1102 C1103 1.362 . S
C1103 H1093 0.930 . S
C1103 C1096 1.409 . S
C1103 C1102 1.362 . S
H1104 C1110 0.930 . S
H1105 C1113 0.930 . S
H1106 C1114 0.930 . S
H1107 C1115 0.930 . S
H1108 C1118 0.930 . S
H1109 C1119 0.930 . S
C1110 H1104 0.930 . S
C1110 C1111 1.355 . S
C1110 C1112 1.415 . S
C1111 C1110 1.355 . S
C1111 C1113 1.419 . S
C1112 C1110 1.415 . S
C1112 C1117 1.425 . S
C1112 C1119 1.409 . S
C1113 H1105 0.930 . S
C1113 C1111 1.419 . S
C1113 C1114 1.362 . S
C1114 H1106 0.930 . S
C1114 C1113 1.362 . S
C1114 C1117 1.409 . S
C1115 H1107 0.930 . S
C1115 C1116 1.355 . S
C1115 C1117 1.415 . S
C1116 C1115 1.355 . S
C1116 C1118 1.419 . S
C1117 C1112 1.425 . S
C1117 C1114 1.409 . S
C1117 C1115 1.415 . S
C1118 H1108 0.930 . S
C1118 C1116 1.419 . S
C1118 C1119 1.362 . S
C1119 H1109 0.930 . S
C1119 C1112 1.409 . S
C1119 C1118 1.362 . S
H1120 C1126 0.930 . S
H1121 C1129 0.930 . S
H1122 C1130 0.930 . S
H1123 C1131 0.930 . S
H1124 C1134 0.930 . S
H1125 C1135 0.930 . S
C1126 H1120 0.930 . S
C1126 C1127 1.355 . S
C1126 C1128 1.415 . S
C1127 C1126 1.355 . S
C1127 C1129 1.419 . S
C1128 C1126 1.415 . S
C1128 C1133 1.425 . S
C1128 C1135 1.409 . S
C1129 H1121 0.930 . S
C1129 C1127 1.419 . S
C1129 C1130 1.362 . S
C1130 H1122 0.930 . S
C1130 C1129 1.362 . S
C1130 C1133 1.409 . S
C1131 H1123 0.930 . S
C1131 C1132 1.355 . S
C1131 C1133 1.415 . S
C1132 C1131 1.355 . S
C1132 C1134 1.419 . S
C1133 C1128 1.425 . S
C1133 C1130 1.409 . S
C1133 C1131 1.415 . S
C1134 H1124 0.930 . S
C1134 C1132 1.419 . S
C1134 C1135 1.362 . S
C1135 H1125 0.930 . S
C1135 C1128 1.409 . S
C1135 C1134 1.362 . S
H1136 C1142 0.930 . S
H1137 C1145 0.930 . S
H1138 C1146 0.930 . S
H1139 C1147 0.930 . S
H1140 C1150 0.930 . S
H1141 C1151 0.930 . S
C1142 H1136 0.930 . S
C1142 C1143 1.355 . S
C1142 C1144 1.415 . S
C1143 C1142 1.355 . S
C1143 C1145 1.419 . S
C1144 C1142 1.415 . S
C1144 C1149 1.425 . S
C1144 C1151 1.409 . S
C1145 H1137 0.930 . S
C1145 C1143 1.419 . S
C1145 C1146 1.362 . S
C1146 H1138 0.930 . S
C1146 C1145 1.362 . S
C1146 C1149 1.409 . S
C1147 H1139 0.930 . S
C1147 C1148 1.355 . S
C1147 C1149 1.415 . S
C1148 C1147 1.355 . S
C1148 C1150 1.419 . S
C1149 C1144 1.425 . S
C1149 C1146 1.409 . S
C1149 C1147 1.415 . S
C1150 H1140 0.930 . S
C1150 C1148 1.419 . S
C1150 C1151 1.362 . S
C1151 H1141 0.930 . S
C1151 C1144 1.409 . S
C1151 C1150 1.362 . S
H1152 C1158 0.930 . S
H1153 C1161 0.930 . S
H1154 C1162 0.930 . S
H1155 C1163 0.930 . S
H1156 C1166 0.930 . S
H1157 C1167 0.930 . S
C1158 H1152 0.930 . S
C1158 C1159 1.355 . S
C1158 C1160 1.415 . S
C1159 C1158 1.355 . S
C1159 C1161 1.419 . S
C1160 C1158 1.415 . S
C1160 C1165 1.425 . S
C1160 C1167 1.409 . S
C1161 H1153 0.930 . S
C1161 C1159 1.419 . S
C1161 C1162 1.362 . S
C1162 H1154 0.930 . S
C1162 C1161 1.362 . S
C1162 C1165 1.409 . S
C1163 H1155 0.930 . S
C1163 C1164 1.355 . S
C1163 C1165 1.415 . S
C1164 C1163 1.355 . S
C1164 C1166 1.419 . S
C1165 C1160 1.425 . S
C1165 C1162 1.409 . S
C1165 C1163 1.415 . S
C1166 H1156 0.930 . S
C1166 C1164 1.419 . S
C1166 C1167 1.362 . S
C1167 H1157 0.930 . S
C1167 C1160 1.409 . S
C1167 C1166 1.362 . S
H1168 C1174 0.930 . S
H1169 C1177 0.930 . S
H1170 C1178 0.930 . S
H1171 C1179 0.930 . S
H1172 C1182 0.930 . S
H1173 C1183 0.930 . S
C1174 H1168 0.930 . S
C1174 C1175 1.355 . S
C1174 C1176 1.415 . S
C1175 C1174 1.355 . S
C1175 C1177 1.419 . S
C1176 C1174 1.415 . S
C1176 C1181 1.425 . S
C1176 C1183 1.409 . S
C1177 H1169 0.930 . S
C1177 C1175 1.419 . S
C1177 C1178 1.362 . S
C1178 H1170 0.930 . S
C1178 C1177 1.362 . S
C1178 C1181 1.409 . S
C1179 H1171 0.930 . S
C1179 C1180 1.355 . S
C1179 C1181 1.415 . S
C1180 C1179 1.355 . S
C1180 C1182 1.419 . S
C1181 C1176 1.425 . S
C1181 C1178 1.409 . S
C1181 C1179 1.415 . S
C1182 H1172 0.930 . S
C1182 C1180 1.419 . S
C1182 C1183 1.362 . S
C1183 H1173 0.930 . S
C1183 C1176 1.409 . S
C1183 C1182 1.362 . S
H1184 C1190 0.930 . S
H1185 C1193 0.930 . S
H1186 C1194 0.930 . S
H1187 C1195 0.930 . S
H1188 C1198 0.930 . S
H1189 C1199 0.930 . S
C1190 H1184 0.930 . S
C1190 C1191 1.355 . S
C1190 C1192 1.415 . S
C1191 C1190 1.355 . S
C1191 C1193 1.419 . S
C1192 C1190 1.415 . S
C1192 C1197 1.425 . S
C1192 C1199 1.409 . S
C1193 H1185 0.930 . S
C1193 C1191 1.419 . S
C1193 C1194 1.362 . S
C1194 H1186 0.930 . S
C1194 C1193 1.362 . S
C1194 C1197 1.409 . S
C1195 H1187 0.930 . S
C1195 C1196 1.355 . S
C1195 C1197 1.415 . S
C1196 C1195 1.355 . S
C1196 C1198 1.419 . S
C1197 C1192 1.425 . S
C1197 C1194 1.409 . S
C1197 C1195 1.415 . S
C1198 H1188 0.930 . S
C1198 C1196 1.419 . S
C1198 C1199 1.362 . S
C1199 H1189 0.930 . S
C1199 C1192 1.409 . S
C1199 C1198 1.362 . S
H1200 C1206 0.930 . S
H1201 C1209 0.930 . S
H1202 C1210 0.930 . S
H1203 C1211 0.930 . S
H1204 C1214 0.930 . S
H1205 C1215 0.930 . S
C1206 H1200 0.930 . S
C1206 C1207 1.355 . S
C1206 C1208 1.415 . S
C1207 C1206 1.355 . S
C1207 C1209 1.419 . S
C1208 C1206 1.415 . S
C1208 C1213 1.425 . S
C1208 C1215 1.409 . S
C1209 H1201 0.930 . S
C1209 C1207 1.419 . S
C1209 C1210 1.362 . S
C1210 H1202 0.930 . S
C1210 C1209 1.362 . S
C1210 C1213 1.409 . S
C1211 H1203 0.930 . S
C1211 C1212 1.355 . S
C1211 C1213 1.415 . S
C1212 C1211 1.355 . S
C1212 C1214 1.419 . S
C1213 C1208 1.425 . S
C1213 C1210 1.409 . S
C1213 C1211 1.415 . S
C1214 H1204 0.930 . S
C1214 C1212 1.419 . S
C1214 C1215 1.362 . S
C1215 H1205 0.930 . S
C1215 C1208 1.409 . S
C1215 C1214 1.362 . S
H1216 C1222 0.930 . S
H1217 C1225 0.930 . S
H1218 C1226 0.930 . S
H1219 C1227 0.930 . S
H1220 C1230 0.930 . S
H1221 C1231 0.930 . S
C1222 H1216 0.930 . S
C1222 C1223 1.355 . S
C1222 C1224 1.415 . S
C1223 C1222 1.355 . S
C1223 C1225 1.419 . S
C1224 C1222 1.415 . S
C1224 C1229 1.425 . S
C1224 C1231 1.409 . S
C1225 H1217 0.930 . S
C1225 C1223 1.419 . S
C1225 C1226 1.362 . S
C1226 H1218 0.930 . S
C1226 C1225 1.362 . S
C1226 C1229 1.409 . S
C1227 H1219 0.930 . S
C1227 C1228 1.355 . S
C1227 C1229 1.415 . S
C1228 C1227 1.355 . S
C1228 C1230 1.419 . S
C1229 C1224 1.425 . S
C1229 C1226 1.409 . S
C1229 C1227 1.415 . S
C1230 H1220 0.930 . S
C1230 C1228 1.419 . S
C1230 C1231 1.362 . S
C1231 H1221 0.930 . S
C1231 C1224 1.409 . S
C1231 C1230 1.362 . S
H1232 C1238 0.930 . S
H1233 C1241 0.930 . S
H1234 C1242 0.930 . S
H1235 C1243 0.930 . S
H1236 C1246 0.930 . S
H1237 C1247 0.930 . S
C1238 H1232 0.930 . S
C1238 C1239 1.355 . S
C1238 C1240 1.415 . S
C1239 C1238 1.355 . S
C1239 C1241 1.419 . S
C1240 C1238 1.415 . S
C1240 C1245 1.425 . S
C1240 C1247 1.409 . S
C1241 H1233 0.930 . S
C1241 C1239 1.419 . S
C1241 C1242 1.362 . S
C1242 H1234 0.930 . S
C1242 C1241 1.362 . S
C1242 C1245 1.409 . S
C1243 H1235 0.930 . S
C1243 C1244 1.355 . S
C1243 C1245 1.415 . S
C1244 C1243 1.355 . S
C1244 C1246 1.419 . S
C1245 C1240 1.425 . S
C1245 C1242 1.409 . S
C1245 C1243 1.415 . S
C1246 H1236 0.930 . S
C1246 C1244 1.419 . S
C1246 C1247 1.362 . S
C1247 H1237 0.930 . S
C1247 C1240 1.409 . S
C1247 C1246 1.362 . S
H1248 C1254 0.930 . S
H1249 C1257 0.930 . S
H1250 C1258 0.930 . S
H1251 C1259 0.930 . S
H1252 C1262 0.930 . S
H1253 C1263 0.930 . S
C1254 H1248 0.930 . S
C1254 C1255 1.355 . S
C1254 C1256 1.415 . S
C1255 C1254 1.355 . S
C1255 C1257 1.419 . S
C1256 C1254 1.415 . S
C1256 C1261 1.425 . S
C1256 C1263 1.409 . S
C1257 H1249 0.930 . S
C1257 C1255 1.419 . S
C1257 C1258 1.362 . S
C1258 H1250 0.930 . S
C1258 C1257 1.362 . S
C1258 C1261 1.409 . S
C1259 H1251 0.930 . S
C1259 C1260 1.355 . S
C1259 C1261 1.415 . S
C1260 C1259 1.355 . S
C1260 C1262 1.419 . S
C1261 C1256 1.425 . S
C1261 C1258 1.409 . S
C1261 C1259 1.415 . S
C1262 H1252 0.930 . S
C1262 C1260 1.419 . S
C1262 C1263 1.362 . S
C1263 H1253 0.930 . S
C1263 C1256 1.409 . S
C1263 C1262 1.362 . S
H1264 C1270 0.930 . S
H1265 C1273 0.930 . S
H1266 C1274 0.930 . S
H1267 C1275 0.930 . S
H1268 C1278 0.930 . S
H1269 C1279 0.930 . S
C1270 H1264 0.930 . S
C1270 C1271 1.355 . S
C1270 C1272 1.415 . S
C1271 C1270 1.355 . S
C1271 C1273 1.419 . S
C1272 C1270 1.415 . S
C1272 C1277 1.425 . S
C1272 C1279 1.409 . S
C1273 H1265 0.930 . S
C1273 C1271 1.419 . S
C1273 C1274 1.362 . S
C1274 H1266 0.930 . S
C1274 C1273 1.362 . S
C1274 C1277 1.409 . S
C1275 H1267 0.930 . S
C1275 C1276 1.355 . S
C1275 C1277 1.415 . S
C1276 C1275 1.355 . S
C1276 C1278 1.419 . S
C1277 C1272 1.425 . S
C1277 C1274 1.409 . S
C1277 C1275 1.415 . S
C1278 H1268 0.930 . S
C1278 C1276 1.419 . S
C1278 C1279 1.362 . S
C1279 H1269 0.930 . S
C1279 C1272 1.409 . S
C1279 C1278 1.362 . S
C524 C337 2.692 . S
C519 C24 2.639 . S
C540 C342 3.068 . S
C535 C53 3.094 . S
C556 C343 1.425 . S
C551 C82 1.437 . S
C567 C137 0.283 . S
C572 C347 0.455 . S
C583 C184 2.927 . S
C588 C350 2.900 . S
C604 C351 1.384 . S
C599 C202 1.402 . S
C615 C266 0.598 . S
C620 C328 0.259 . S
C631 C293 2.632 . S
C636 C344 2.692 . S
C652 C382 2.767 . S
C647 C2 2.761 . S
C663 C57 0.708 . S
C668 C408 0.929 . S
C684 C360 0.692 . S
C679 C106 0.650 . S
C700 C415 1.037 . S
C695 C143 1.067 . S
C711 C162 1.084 . S
C716 C369 1.076 . S
C732 C411 0.831 1_556 S
C727 C226 0.818 . S
C743 C264 2.409 . S
C748 C375 2.374 . S
C759 C297 0.480 . S
C764 C406 0.555 1_556 S
C775 C26 0.783 . S
C780 C414 0.819 . S
C791 C186 0.264 . S
C796 C401 0.430 . S
C812 C379 2.315 . S
C807 C224 2.322 . S
C828 C407 1.847 . S
C823 C242 1.876 . S
C839 C303 3.209 . S
C844 C374 3.134 . S
C855 C104 2.029 . S
C860 C392 2.044 . S
C876 C383 2.820 . S
C871 C133 2.848 . S
C887 C63 1.732 . S
C892 C376 1.716 . S
C903 C304 2.594 . S
C908 C438 2.554 . S
C919 C173 2.913 . S
C924 C433 2.888 . S
C940 C447 1.382 . S
C935 C223 1.384 . S
C956 C424 0.222 . S
C951 C257 0.378 . S
C967 C64 3.042 . S
C972 C440 3.029 . S
C988 C439 1.401 . S
C983 C103 1.390 . S
C999 C146 0.497 . S
C1004 C443 0.152 . S
C1015 C13 2.602 . S
C1020 C446 2.587 . S
C1031 C282 3.237 . S
C1036 C472 3.236 . S
C1052 C488 0.349 . S
C1047 C177 0.247 . S
C1063 C213 2.352 . S
C1068 C470 2.338 . S
C1079 C263 1.870 . S
C1084 C503 1.798 . S
C1100 C479 1.731 . S
C1095 C42 1.722 . S
C1111 C93 2.058 . S
C1116 C497 2.027 . S
C1132 C475 2.747 . S
C1127 C144 2.848 . S
C1148 C510 0.692 . S
C1143 C17 0.693 . S
C1164 C502 0.372 . S
C1159 C306 0.495 . S
C1175 C66 0.831 . S
C1180 C507 0.930 . S
C1191 C97 0.752 . S
C1196 C478 0.730 . S
C1212 C511 1.089 . S
C1207 C122 0.996 . S
C1223 C23 2.798 . S
C1228 C465 2.778 . S
C1239 C217 0.810 . S
C1244 C504 0.799 . S
C1260 C456 2.437 . S
C1255 C253 2.412 . S
C1276 C471 1.042 . S
C1271 C183 1.068 . S
