# Generated by pormake.
# Topology pyr, (3,6)-cn, num edge types: 1
# Building blocks:
#     Node 0, Type 0, BuildingBlock: WUSLED_clean_sbu_0, # of connection points: 3
#     Node 1, Type 0, BuildingBlock: WUSLED_clean_sbu_0, # of connection points: 3
#     Node 2, Type 0, BuildingBlock: WUSLED_clean_sbu_0, # of connection points: 3
#     Node 3, Type 0, BuildingBlock: WUSLED_clean_sbu_0, # of connection points: 3
#     Node 4, Type 0, BuildingBlock: WUSLED_clean_sbu_0, # of connection points: 3
#     Node 5, Type 0, BuildingBlock: WUSLED_clean_sbu_0, # of connection points: 3
#     Node 6, Type 0, BuildingBlock: WUSLED_clean_sbu_0, # of connection points: 3
#     Node 7, Type 0, BuildingBlock: WUSLED_clean_sbu_0, # of connection points: 3
#     Node 8, Type 1, BuildingBlock: VOLQOD_clean_sbu_1, # of connection points: 6
#     Node 9, Type 1, BuildingBlock: VOLQOD_clean_sbu_1, # of connection points: 6
#     Node 10, Type 1, BuildingBlock: VOLQOD_clean_sbu_1, # of connection points: 6
#     Node 11, Type 1, BuildingBlock: VOLQOD_clean_sbu_1, # of connection points: 6
#     Edge 12, Type (0, 1), BuildingBlock: XIVTED_clean_linker_0, # of connection points: 2
#     Edge 13, Type (0, 1), BuildingBlock: XIVTED_clean_linker_0, # of connection points: 2
#     Edge 14, Type (0, 1), BuildingBlock: XIVTED_clean_linker_0, # of connection points: 2
#     Edge 15, Type (0, 1), BuildingBlock: XIVTED_clean_linker_0, # of connection points: 2
#     Edge 16, Type (0, 1), BuildingBlock: XIVTED_clean_linker_0, # of connection points: 2
#     Edge 17, Type (0, 1), BuildingBlock: XIVTED_clean_linker_0, # of connection points: 2
#     Edge 18, Type (0, 1), BuildingBlock: XIVTED_clean_linker_0, # of connection points: 2
#     Edge 19, Type (0, 1), BuildingBlock: XIVTED_clean_linker_0, # of connection points: 2
#     Edge 20, Type (0, 1), BuildingBlock: XIVTED_clean_linker_0, # of connection points: 2
#     Edge 21, Type (0, 1), BuildingBlock: XIVTED_clean_linker_0, # of connection points: 2
#     Edge 22, Type (0, 1), BuildingBlock: XIVTED_clean_linker_0, # of connection points: 2
#     Edge 23, Type (0, 1), BuildingBlock: XIVTED_clean_linker_0, # of connection points: 2
#     Edge 24, Type (0, 1), BuildingBlock: XIVTED_clean_linker_0, # of connection points: 2
#     Edge 25, Type (0, 1), BuildingBlock: XIVTED_clean_linker_0, # of connection points: 2
#     Edge 26, Type (0, 1), BuildingBlock: XIVTED_clean_linker_0, # of connection points: 2
#     Edge 27, Type (0, 1), BuildingBlock: XIVTED_clean_linker_0, # of connection points: 2
#     Edge 28, Type (0, 1), BuildingBlock: XIVTED_clean_linker_0, # of connection points: 2
#     Edge 29, Type (0, 1), BuildingBlock: XIVTED_clean_linker_0, # of connection points: 2
#     Edge 30, Type (0, 1), BuildingBlock: XIVTED_clean_linker_0, # of connection points: 2
#     Edge 31, Type (0, 1), BuildingBlock: XIVTED_clean_linker_0, # of connection points: 2
#     Edge 32, Type (0, 1), BuildingBlock: XIVTED_clean_linker_0, # of connection points: 2
#     Edge 33, Type (0, 1), BuildingBlock: XIVTED_clean_linker_0, # of connection points: 2
#     Edge 34, Type (0, 1), BuildingBlock: XIVTED_clean_linker_0, # of connection points: 2
#     Edge 35, Type (0, 1), BuildingBlock: XIVTED_clean_linker_0, # of connection points: 2
# Relax obj value: 0.035
# Max RMSD: 0.120
# Mean RMSD: 0.046
data_MOF--net-pry--node1-WUSLED_clean_sbu_0--node2-VOLQOD_clean_sbu_1--edge1-XIVTED_clean_linker_0
_symmetry_space_group_name_H-M    P1
_symmetry_Int_Tables_number       1
_symmetry_cell_setting            triclinic
loop_
_symmetry_equiv_pos_as_xyz
'x, y, z'
_cell_length_a     48.5611
_cell_length_b     48.666156
_cell_length_c     48.853891
_cell_angle_alpha  89.813523
_cell_angle_beta   90.277464
_cell_angle_gamma 90.670803
loop_
_atom_site_label
_atom_site_type_symbol
_atom_site_fract_x
_atom_site_fract_y
_atom_site_fract_z
_atom_type_partial_charge
C0 C 0.13624 0.22527 0.112 0.0
C1 C 0.1095 0.22977 0.12171 0.0
C2 C 0.10701 0.27226 0.09526 0.0
C3 C 0.09498 0.25309 0.11339 0.0
C4 C 0.13405 0.2678 0.08613 0.0
C5 C 0.14845 0.24451 0.09437 0.0
U6 U 0.14994 0.16377 0.15899 0.0
O7 O 0.16132 0.12144 0.14823 0.0
O8 O 0.18917 0.14687 0.17337 0.0
C9 C 0.1857 0.12377 0.15984 0.0
C10 C 0.15168 0.20059 0.11968 0.0
C11 C 0.20921 0.11501 0.14322 0.0
C12 C 0.24884 0.12537 0.11454 0.0
C13 C 0.22538 0.13403 0.12852 0.0
C14 C 0.2395 0.07851 0.1289 0.0
C15 C 0.25646 0.09755 0.11499 0.0
C16 C 0.21618 0.08719 0.14292 0.0
C17 C 0.10656 0.15094 0.2228 0.0
C18 C 0.1015 0.10744 0.24706 0.0
C19 C 0.09373 0.15026 0.27081 0.0
C20 C 0.09957 0.16487 0.24681 0.0
C21 C 0.09459 0.12139 0.27121 0.0
C22 C 0.1076 0.12209 0.22311 0.0
C23 C 0.11316 0.16693 0.19795 0.0
O24 O 0.1665 0.20257 0.14218 0.0
O25 O 0.13814 0.17713 0.11761 0.0
O26 O 0.10833 0.15473 0.17439 0.0
O27 O 0.13679 0.18035 0.19864 0.0
H28 H 0.09979 0.21513 0.13547 0.0
H29 H 0.07418 0.2558 0.12069 0.0
H30 H 0.1442 0.2824 0.07266 0.0
H31 H 0.16916 0.24147 0.08687 0.0
H32 H 0.2615 0.14061 0.1042 0.0
H33 H 0.22024 0.15564 0.12836 0.0
H34 H 0.2444 0.05686 0.12921 0.0
H35 H 0.20382 0.07219 0.15396 0.0
H36 H 0.10261 0.08523 0.24683 0.0
H37 H 0.0882 0.16157 0.289 0.0
H38 H 0.0987 0.18711 0.24701 0.0
H39 H 0.11324 0.11087 0.2049 0.0
C40 C 0.31314 0.87327 0.61133 0.0
C41 C 0.29584 0.88537 0.63071 0.0
C42 C 0.26529 0.90106 0.59435 0.0
C43 C 0.27206 0.89899 0.62231 0.0
C44 C 0.2831 0.8896 0.57496 0.0
C45 C 0.30677 0.87573 0.58341 0.0
U46 U 0.37185 0.86106 0.66157 0.0
O47 O 0.38762 0.82264 0.67915 0.0
O48 O 0.41486 0.84921 0.6547 0.0
C49 C 0.4117 0.82545 0.66726 0.0
C50 C 0.3376 0.85779 0.61998 0.0
C51 C 0.42108 0.80119 0.65221 0.0
C52 C 0.41933 0.77139 0.61238 0.0
C53 C 0.41076 0.79503 0.62604 0.0
C54 C 0.44858 0.75985 0.65095 0.0
C55 C 0.43829 0.75342 0.62472 0.0
C56 C 0.44005 0.78351 0.66453 0.0
C57 C 0.37827 0.90937 0.7234 0.0
C58 C 0.4173 0.91086 0.75471 0.0
C59 C 0.37596 0.93606 0.76522 0.0
C60 C 0.36381 0.92666 0.74096 0.0
C61 C 0.40291 0.92837 0.77239 0.0
C62 C 0.40507 0.90139 0.73044 0.0
C63 C 0.36505 0.90009 0.69786 0.0
O64 O 0.36115 0.87132 0.61885 0.0
O65 O 0.33476 0.84318 0.6425 0.0
O66 O 0.35225 0.87618 0.6991 0.0
O67 O 0.37964 0.90337 0.67546 0.0
H68 H 0.30055 0.88403 0.65237 0.0
H69 H 0.25892 0.90792 0.63769 0.0
H70 H 0.27832 0.8907 0.55331 0.0
H71 H 0.31993 0.86662 0.56816 0.0
H72 H 0.41122 0.76729 0.5921 0.0
H73 H 0.39601 0.80845 0.61625 0.0
H74 H 0.46282 0.74632 0.6613 0.0
H75 H 0.44807 0.78785 0.68482 0.0
H76 H 0.43817 0.90474 0.75941 0.0
H77 H 0.36406 0.94907 0.77853 0.0
H78 H 0.34304 0.93289 0.73589 0.0
H79 H 0.41654 0.888 0.71711 0.0
C80 C 0.59852 0.38459 0.81657 0.0
C81 C 0.61771 0.40104 0.80244 0.0
C82 C 0.58329 0.41123 0.76751 0.0
C83 C 0.61017 0.41423 0.77808 0.0
C84 C 0.56396 0.39541 0.78233 0.0
C85 C 0.57155 0.38217 0.80658 0.0
U86 U 0.64715 0.37282 0.87665 0.0
O87 O 0.63859 0.36088 0.91925 0.0
O88 O 0.66374 0.33436 0.89334 0.0
C89 C 0.65095 0.33711 0.91679 0.0
C90 C 0.60649 0.36929 0.84129 0.0
C91 C 0.63512 0.31286 0.92584 0.0
C92 C 0.5937 0.28431 0.92499 0.0
C93 C 0.60819 0.30782 0.91639 0.0
C94 C 0.63306 0.27062 0.95226 0.0
C95 C 0.60596 0.26543 0.9431 0.0
C96 C 0.64744 0.29412 0.94374 0.0
C97 C 0.70975 0.42046 0.88547 0.0
C98 C 0.7387 0.42194 0.92619 0.0
C99 C 0.75332 0.4453 0.88477 0.0
C100 C 0.72927 0.43649 0.87152 0.0
C101 C 0.75826 0.43836 0.91234 0.0
C102 C 0.71465 0.41302 0.91284 0.0
C103 C 0.68451 0.41177 0.87106 0.0
O104 O 0.62924 0.35508 0.83924 0.0
O105 O 0.60471 0.38284 0.86443 0.0
O106 O 0.66137 0.41511 0.88445 0.0
O107 O 0.6858 0.38804 0.85841 0.0
H108 H 0.63864 0.40325 0.80997 0.0
H109 H 0.62562 0.42606 0.76712 0.0
H110 H 0.54295 0.3931 0.7751 0.0
H111 H 0.55643 0.36974 0.81737 0.0
H112 H 0.57282 0.28109 0.9177 0.0
H113 H 0.59842 0.32204 0.90239 0.0
H114 H 0.6434 0.2563 0.96573 0.0
H115 H 0.66832 0.29756 0.95101 0.0
H116 H 0.74174 0.41637 0.94746 0.0
H117 H 0.76815 0.45739 0.87327 0.0
H118 H 0.72592 0.44221 0.85032 0.0
H119 H 0.6998 0.4005 0.92389 0.0
C120 C 0.80529 0.60038 0.38346 0.0
C121 C 0.80127 0.60968 0.4103 0.0
C122 C 0.75867 0.58284 0.41335 0.0
C123 C 0.77816 0.60094 0.42516 0.0
C124 C 0.76281 0.57387 0.38632 0.0
C125 C 0.78591 0.58252 0.37158 0.0
U126 U 0.8659 0.64929 0.37036 0.0
O127 O 0.90765 0.64093 0.35565 0.0
O128 O 0.88035 0.66748 0.33162 0.0
C129 C 0.90391 0.65451 0.33265 0.0
C130 C 0.82921 0.60941 0.36732 0.0
C131 C 0.91172 0.64014 0.30748 0.0
C132 C 0.91202 0.59941 0.27877 0.0
C133 C 0.9038 0.61272 0.30272 0.0
C134 C 0.9356 0.64099 0.26399 0.0
C135 C 0.9282 0.61335 0.25919 0.0
C136 C 0.92748 0.65419 0.28792 0.0
C137 C 0.88093 0.70912 0.4181 0.0
C138 C 0.91404 0.74498 0.40624 0.0
C139 C 0.89353 0.74404 0.45137 0.0
C140 C 0.8784 0.72049 0.44424 0.0
C141 C 0.9114 0.75666 0.43239 0.0
C142 C 0.89899 0.72135 0.39918 0.0
C143 C 0.86448 0.68471 0.41068 0.0
O144 O 0.82645 0.63307 0.35464 0.0
O145 O 0.85338 0.60662 0.3792 0.0
O146 O 0.87743 0.66119 0.41237 0.0
O147 O 0.84965 0.68711 0.38825 0.0
H148 H 0.81602 0.62363 0.41974 0.0
H149 H 0.77574 0.6081 0.44596 0.0
H150 H 0.74798 0.56041 0.37633 0.0
H151 H 0.78857 0.57536 0.35078 0.0
H152 H 0.90611 0.5781 0.27583 0.0
H153 H 0.89149 0.60158 0.3176 0.0
H154 H 0.94752 0.65257 0.24915 0.0
H155 H 0.93357 0.67543 0.29116 0.0
H156 H 0.92786 0.75401 0.39129 0.0
H157 H 0.8908 0.75269 0.47156 0.0
H158 H 0.86454 0.71129 0.45907 0.0
H159 H 0.90132 0.71269 0.37893 0.0
C160 C 0.88891 0.82655 0.9312 0.0
C161 C 0.90725 0.81589 0.91195 0.0
C162 C 0.91764 0.77781 0.94262 0.0
C163 C 0.92144 0.79167 0.91758 0.0
C164 C 0.89972 0.78899 0.96209 0.0
C165 C 0.88542 0.81314 0.95637 0.0
U166 U 0.87532 0.88821 0.88579 0.0
O167 O 0.83667 0.90398 0.86879 0.0
O168 O 0.86191 0.93007 0.89585 0.0
C169 C 0.83834 0.92697 0.88279 0.0
C170 C 0.87278 0.8511 0.92477 0.0
C171 C 0.81362 0.93372 0.89849 0.0
C172 C 0.77695 0.92036 0.92961 0.0
C173 C 0.80133 0.91423 0.91593 0.0
C174 C 0.7774 0.96583 0.90922 0.0
C175 C 0.76458 0.94615 0.92621 0.0
C176 C 0.8017 0.95961 0.89542 0.0
C177 C 0.92231 0.90002 0.82405 0.0
C178 C 0.91057 0.92783 0.78435 0.0
C179 C 0.95628 0.9088 0.78878 0.0
C180 C 0.94895 0.89694 0.8138 0.0
C181 C 0.93701 0.92389 0.77345 0.0
C182 C 0.90328 0.91598 0.80948 0.0
C183 C 0.9144 0.88519 0.84909 0.0
O184 O 0.88589 0.87471 0.92759 0.0
O185 O 0.85825 0.84955 0.90205 0.0
O186 O 0.89116 0.87116 0.84755 0.0
O187 O 0.91734 0.89879 0.87214 0.0
H188 H 0.91031 0.82611 0.89244 0.0
H189 H 0.93536 0.78378 0.90232 0.0
H190 H 0.89615 0.77867 0.98144 0.0
H191 H 0.87131 0.82112 0.97143 0.0
H192 H 0.76775 0.90491 0.94283 0.0
H193 H 0.8104 0.89416 0.91867 0.0
H194 H 0.76825 0.98577 0.90597 0.0
H195 H 0.81094 0.97488 0.88202 0.0
H196 H 0.8952 0.93918 0.77301 0.0
H197 H 0.97697 0.90584 0.78125 0.0
H198 H 0.96394 0.88483 0.82488 0.0
H199 H 0.88259 0.91863 0.81717 0.0
C200 C 0.6 0.12905 0.32502 0.0
C201 C 0.61932 0.11183 0.31275 0.0
C202 C 0.58682 0.10135 0.27602 0.0
C203 C 0.61281 0.09816 0.28839 0.0
C204 C 0.56736 0.11821 0.28877 0.0
C205 C 0.57394 0.13198 0.31304 0.0
U206 U 0.64679 0.142 0.38634 0.0
O207 O 0.66309 0.18067 0.40321 0.0
O208 O 0.63668 0.15406 0.42852 0.0
C209 C 0.649 0.17813 0.426 0.0
C210 C 0.60703 0.14451 0.34991 0.0
C211 C 0.63218 0.20201 0.43289 0.0
C212 C 0.59861 0.23632 0.41982 0.0
C213 C 0.61341 0.21265 0.4138 0.0
C214 C 0.62054 0.23845 0.46445 0.0
C215 C 0.6022 0.24964 0.44512 0.0
C216 C 0.63546 0.21485 0.45833 0.0
C217 C 0.70995 0.09606 0.39569 0.0
C218 C 0.73898 0.09359 0.4363 0.0
C219 C 0.75472 0.07465 0.3934 0.0
C220 C 0.73025 0.08261 0.38075 0.0
C221 C 0.75938 0.07985 0.42138 0.0
C222 C 0.71447 0.10168 0.42353 0.0
C223 C 0.68451 0.10419 0.38155 0.0
O224 O 0.60477 0.13074 0.37299 0.0
O225 O 0.62973 0.1594 0.34845 0.0
O226 O 0.68573 0.12792 0.3687 0.0
O227 O 0.66139 0.10024 0.39499 0.0
H228 H 0.63951 0.1092 0.32187 0.0
H229 H 0.62811 0.08506 0.27926 0.0
H230 H 0.54728 0.12133 0.2796 0.0
H231 H 0.55881 0.14521 0.32227 0.0
H232 H 0.58439 0.24424 0.40466 0.0
H233 H 0.61051 0.20286 0.39409 0.0
H234 H 0.62395 0.24838 0.484 0.0
H235 H 0.64989 0.20689 0.47328 0.0
H236 H 0.74178 0.09775 0.4579 0.0
H237 H 0.77016 0.06469 0.3811 0.0
H238 H 0.72721 0.07833 0.35918 0.0
H239 H 0.69905 0.11222 0.43537 0.0
C240 C 0.321 0.5916 0.13022 0.0
C241 C 0.31043 0.61098 0.11175 0.0
C242 C 0.27184 0.58037 0.10133 0.0
C243 C 0.28601 0.60544 0.09748 0.0
C244 C 0.28294 0.56073 0.11935 0.0
C245 C 0.30732 0.56636 0.13374 0.0
U246 U 0.38202 0.63829 0.14449 0.0
O247 O 0.39795 0.65523 0.18306 0.0
O248 O 0.42434 0.62917 0.15796 0.0
C249 C 0.4212 0.6418 0.18147 0.0
C250 C 0.34571 0.59806 0.14647 0.0
C251 C 0.42832 0.62585 0.20602 0.0
C252 C 0.41519 0.59433 0.24246 0.0
C253 C 0.40899 0.60788 0.21796 0.0
C254 C 0.46048 0.6158 0.24277 0.0
C255 C 0.4409 0.59839 0.25529 0.0
C256 C 0.45418 0.62948 0.21836 0.0
C257 C 0.39158 0.70205 0.09944 0.0
C258 C 0.43295 0.73051 0.09646 0.0
C259 C 0.38851 0.74967 0.08498 0.0
C260 C 0.37588 0.72437 0.09056 0.0
C261 C 0.41714 0.75305 0.08801 0.0
C262 C 0.42025 0.70522 0.10233 0.0
C263 C 0.37736 0.67615 0.1065 0.0
O264 O 0.3692 0.5962 0.13338 0.0
O265 O 0.34399 0.62042 0.16134 0.0
O266 O 0.3636 0.6766 0.12957 0.0
O267 O 0.39126 0.65338 0.103 0.0
H268 H 0.32087 0.63054 0.1087 0.0
H269 H 0.27816 0.62082 0.08348 0.0
H270 H 0.27237 0.54134 0.12294 0.0
H271 H 0.31523 0.55121 0.14795 0.0
H272 H 0.39983 0.58078 0.25142 0.0
H273 H 0.38893 0.60472 0.20858 0.0
H274 H 0.48036 0.61952 0.25228 0.0
H275 H 0.46931 0.64332 0.20941 0.0
H276 H 0.45503 0.73264 0.09917 0.0
H277 H 0.37586 0.7666 0.0782 0.0
H278 H 0.35375 0.72231 0.08824 0.0
H279 H 0.43275 0.68831 0.10942 0.0
C280 C 0.08905 0.31636 0.63616 0.0
C281 C 0.10966 0.3001 0.62466 0.0
C282 C 0.07557 0.26491 0.61274 0.0
C283 C 0.10302 0.27458 0.6132 0.0
C284 C 0.05492 0.28168 0.6237 0.0
C285 C 0.06164 0.30711 0.63536 0.0
U286 U 0.13431 0.38041 0.6433 0.0
O287 O 0.12352 0.4229 0.65415 0.0
O288 O 0.15231 0.39968 0.67987 0.0
C289 C 0.1376 0.42205 0.67718 0.0
C290 C 0.09594 0.34259 0.64963 0.0
C291 C 0.12276 0.43046 0.70189 0.0
C292 C 0.09674 0.41889 0.74275 0.0
C293 C 0.10889 0.41099 0.71817 0.0
C294 C 0.11107 0.46605 0.73444 0.0
C295 C 0.09803 0.44644 0.75134 0.0
C296 C 0.12342 0.45807 0.70995 0.0
C297 C 0.19543 0.39103 0.59563 0.0
C298 C 0.23653 0.4176 0.6071 0.0
C299 C 0.22836 0.40335 0.56025 0.0
C300 C 0.20367 0.39061 0.56818 0.0
C301 C 0.2453 0.41649 0.57975 0.0
C302 C 0.21173 0.40512 0.61496 0.0
C303 C 0.1706 0.37567 0.60407 0.0
O304 O 0.11914 0.34296 0.66361 0.0
O305 O 0.09231 0.36484 0.63476 0.0
O306 O 0.14706 0.38834 0.60068 0.0
O307 O 0.17252 0.36286 0.62773 0.0
H308 H 0.13098 0.30692 0.62494 0.0
H309 H 0.11952 0.26217 0.6053 0.0
H310 H 0.03352 0.2752 0.62324 0.0
H311 H 0.04544 0.31947 0.64397 0.0
H312 H 0.08653 0.40341 0.75518 0.0
H313 H 0.10795 0.38959 0.71215 0.0
H314 H 0.11256 0.48737 0.74061 0.0
H315 H 0.13402 0.47336 0.6976 0.0
H316 H 0.24901 0.42789 0.62249 0.0
H317 H 0.2347 0.40203 0.53907 0.0
H318 H 0.19132 0.37988 0.55299 0.0
H319 H 0.2056 0.40595 0.63623 0.0
O320 O 0.00768 0.06435 0.54745 0.0
Zn321 Zn 0.99016 0.02773 0.53816 0.0
O322 O 0.01513 0.00603 0.51522 0.0
Zn323 Zn 0.99805 0.99872 0.47957 0.0
Zn324 Zn 0.05017 0.02591 0.50994 0.0
Zn325 Zn 0.02219 0.97098 0.53312 0.0
O326 O 0.993 0.95808 0.4726 0.0
O327 O 0.00773 0.93894 0.51115 0.0
O328 O 0.95397 0.0348 0.51847 0.0
O329 O 0.96013 0.01464 0.47827 0.0
O330 O 0.02006 0.01575 0.44875 0.0
O331 O 0.05611 0.03462 0.46994 0.0
O332 O 0.08279 0.00386 0.52389 0.0
O333 O 0.98179 0.00836 0.57416 0.0
O334 O 0.06259 0.96581 0.53951 0.0
O335 O 0.00427 0.9692 0.56986 0.0
C336 C 0.0313 0.07512 0.543 0.0
C337 C 0.99708 0.93688 0.48737 0.0
C338 C 0.04256 0.02948 0.44811 0.0
C339 C 0.94523 0.02813 0.49473 0.0
C340 C 0.08417 0.98023 0.53516 0.0
C341 C 0.98907 0.9851 0.58364 0.0
O342 O 0.04957 0.06246 0.52947 0.0
O343 O 0.50315 0.07286 0.99036 0.0
Zn344 Zn 0.48404 0.0361 0.99823 0.0
O345 O 0.5079 0.01227 0.02093 0.0
Zn346 Zn 0.51672 0.97855 1.00121 0.0
Zn347 Zn 0.54214 0.03156 0.03027 0.0
Zn348 Zn 0.48919 0.00239 0.05483 0.0
O349 O 0.50385 0.94459 0.02157 0.0
O350 O 0.48347 0.9616 0.05823 0.0
O351 O 0.4749 0.01741 0.96199 0.0
O352 O 0.49764 0.97811 0.96464 0.0
O353 O 0.55756 0.97547 0.99459 0.0
O354 O 0.57521 0.0125 0.0148 0.0
O355 O 0.54744 0.03538 0.07106 0.0
O356 O 0.44779 0.04391 0.01779 0.0
O357 O 0.50999 0.01548 0.08818 0.0
O358 O 0.45217 0.01962 0.05607 0.0
C359 C 0.52584 0.08314 0.99906 0.0
C360 C 0.49055 0.94119 0.04375 0.0
C361 C 0.57819 0.9905 1.00113 0.0
C362 C 0.48185 0.99443 0.95173 0.0
C363 C 0.5328 0.02822 0.09148 0.0
C364 C 0.4383 0.03549 0.04069 0.0
O365 O 0.54184 0.06954 0.0146 0.0
O366 O 0.5386 0.50682 0.57273 0.0
Zn367 Zn 0.53133 0.5266 0.53643 0.0
O368 O 0.5067 0.50442 0.51253 0.0
Zn369 Zn 0.52562 0.49502 0.47874 0.0
Zn370 Zn 0.49643 0.47026 0.5309 0.0
Zn371 Zn 0.47314 0.52479 0.50363 0.0
O372 O 0.50627 0.51054 0.44576 0.0
O373 O 0.47011 0.53191 0.46291 0.0
O374 O 0.56824 0.53427 0.51783 0.0
O375 O 0.56375 0.51084 0.47906 0.0
O376 O 0.52954 0.45412 0.47384 0.0
O377 O 0.50997 0.43683 0.51107 0.0
O378 O 0.45552 0.46668 0.53531 0.0
O379 O 0.51354 0.56307 0.54521 0.0
O380 O 0.43874 0.50409 0.51558 0.0
O381 O 0.47349 0.56137 0.52301 0.0
C382 C 0.52933 0.48407 0.58219 0.0
C383 C 0.4847 0.52486 0.44254 0.0
C384 C 0.5227 0.43359 0.48863 0.0
C385 C 0.57796 0.52594 0.49513 0.0
C386 C 0.43518 0.4814 0.52823 0.0
C387 C 0.49061 0.57385 0.53861 0.0
O388 O 0.51305 0.46898 0.56817 0.0
O389 O 0.98004 0.51653 0.06809 0.0
Zn390 Zn 0.98736 0.49773 0.0316 0.0
O391 O 0.01135 0.52104 0.00813 0.0
Zn392 Zn 0.99222 0.53161 0.97442 0.0
Zn393 Zn 0.02242 0.55435 0.02769 0.0
Zn394 Zn 0.04425 0.50089 0.99831 0.0
O395 O 0.01187 0.51854 0.94044 0.0
O396 O 0.04765 0.49634 0.95766 0.0
O397 O 0.95059 0.49048 0.01253 0.0
O398 O 0.95438 0.5148 0.97407 0.0
O399 O 0.98769 0.57265 0.97166 0.0
O400 O 0.00865 0.58857 0.00891 0.0
O401 O 0.06363 0.55738 0.03202 0.0
O402 O 0.00522 0.46071 0.03964 0.0
O403 O 0.07877 0.51947 0.01232 0.0
O404 O 0.0432 0.46327 0.01455 0.0
C405 C 0.98977 0.53861 0.07854 0.0
C406 C 0.03353 0.50442 0.93722 0.0
C407 C 0.99512 0.59261 0.98689 0.0
C408 C 0.94059 0.49905 0.98989 0.0
C409 C 0.0833 0.54178 0.02519 0.0
C410 C 0.02728 0.45007 0.03063 0.0
O411 O 0.00634 0.55409 0.06532 0.0
H412 H 0.0623 0.07518 0.27728 0.0
H413 H 0.08547 0.06554 0.43946 0.0
H414 H 0.11256 0.1325 0.32327 0.0
H415 H 0.0221 0.01976 0.39646 0.0
H416 H 0.09953 0.08644 0.39617 0.0
H417 H 0.0512 0.05092 0.31991 0.0
C418 C 0.07115 0.08253 0.29633 0.0
C419 C 0.08828 0.10597 0.29675 0.0
C420 C 0.08261 0.07176 0.39619 0.0
C421 C 0.07563 0.07837 0.34557 0.0
C422 C 0.07461 0.05971 0.42091 0.0
C423 C 0.05244 0.04092 0.42169 0.0
C424 C 0.0685 0.0649 0.37196 0.0
C425 C 0.03919 0.03423 0.39691 0.0
C426 C 0.06469 0.06878 0.32066 0.0
C427 C 0.09897 0.11474 0.32205 0.0
N428 N 0.0474 0.04624 0.37308 0.0
N429 N 0.0925 0.10094 0.34541 0.0
H430 H 0.43602 0.9002 0.80831 0.0
H431 H 0.44812 0.02317 0.91662 0.0
H432 H 0.39909 0.97955 0.79574 0.0
H433 H 0.4907 0.94613 0.92474 0.0
H434 H 0.42967 0.00772 0.87247 0.0
H435 H 0.45617 0.91688 0.85107 0.0
C436 C 0.4323 0.92121 0.81439 0.0
C437 C 0.41575 0.93845 0.79831 0.0
C438 C 0.44312 0.99425 0.88391 0.0
C439 C 0.43853 0.95762 0.84765 0.0
C440 C 0.45367 0.00306 0.90914 0.0
C441 C 0.47098 0.98594 0.92453 0.0
C442 C 0.44985 0.96809 0.87401 0.0
C443 C 0.47743 0.96009 0.9137 0.0
C444 C 0.4437 0.93069 0.83894 0.0
C445 C 0.41133 0.96535 0.80761 0.0
N446 N 0.46682 0.95196 0.88922 0.0
N447 N 0.42259 0.97407 0.83165 0.0
H448 H 0.59805 0.46184 0.74604 0.0
H449 H 0.5133 0.43653 0.60735 0.0
H450 H 0.55147 0.38813 0.72724 0.0
H451 H 0.56372 0.50909 0.62025 0.0
H452 H 0.52643 0.41983 0.65222 0.0
H453 H 0.58544 0.48054 0.70105 0.0
C454 C 0.58524 0.44956 0.73248 0.0
C455 C 0.57568 0.4234 0.74057 0.0
C456 C 0.53471 0.43941 0.64536 0.0
C457 C 0.56106 0.44476 0.68922 0.0
C458 C 0.52718 0.44905 0.61961 0.0
C459 C 0.53743 0.47432 0.60985 0.0
C460 C 0.5527 0.45505 0.66179 0.0
C461 C 0.55533 0.4895 0.6269 0.0
C462 C 0.57797 0.46031 0.70687 0.0
C463 C 0.55892 0.40857 0.72223 0.0
N464 N 0.56242 0.47961 0.65208 0.0
N465 N 0.55219 0.41945 0.69753 0.0
H466 H 0.89969 0.57643 0.22662 0.0
H467 H 0.01517 0.57665 0.11107 0.0
H468 H 0.97835 0.61809 0.23408 0.0
H469 H 0.94603 0.52007 0.1097 0.0
H470 H 1.00092 0.5925 0.15589 0.0
H471 H 0.91531 0.55562 0.18387 0.0
C472 C 0.92031 0.58104 0.21945 0.0
C473 C 0.9376 0.59933 0.2339 0.0
C474 C 0.98888 0.57651 0.14593 0.0
C475 C 0.95543 0.57584 0.18483 0.0
C476 C 0.99697 0.56748 0.12022 0.0
C477 C 0.9817 0.54706 0.10648 0.0
C478 C 0.96511 0.56533 0.15808 0.0
C479 C 0.95842 0.53584 0.11956 0.0
C480 C 0.92915 0.56922 0.19498 0.0
C481 C 0.96401 0.60467 0.22341 0.0
N482 N 0.95068 0.54529 0.14457 0.0
N483 N 0.972 0.59314 0.19951 0.0
H484 H 0.2799 0.11427 0.06616 0.0
H485 H 0.41134 0.01838 0.08659 0.0
H486 H 0.29318 0.06046 0.13528 0.0
H487 H 0.40241 0.0725 0.01694 0.0
H488 H 0.36712 0.03321 0.10343 0.0
H489 H 0.32379 0.09926 0.04684 0.0
C490 C 0.292 0.09935 0.07729 0.0
C491 C 0.28268 0.0885 0.10235 0.0
C492 C 0.37469 0.04191 0.08444 0.0
C493 C 0.33277 0.07117 0.08028 0.0
C494 C 0.40008 0.03342 0.07474 0.0
C495 C 0.4108 0.04425 0.05028 0.0
C496 C 0.35963 0.0615 0.06972 0.0
C497 C 0.395 0.06361 0.0359 0.0
C498 C 0.31698 0.09071 0.06618 0.0
C499 C 0.29914 0.06904 0.1157 0.0
N500 N 0.3702 0.07169 0.04587 0.0
N501 N 0.32328 0.06108 0.10453 0.0
H502 H 0.25703 0.93785 0.55236 0.0
H503 H 0.09358 0.93659 0.569 0.0
H504 H 0.2141 0.89377 0.61627 0.0
H505 H 0.13629 0.9986 0.52152 0.0
H506 H 0.13775 0.91824 0.58349 0.0
H507 H 0.2132 0.95806 0.53783 0.0
C508 C 0.23839 0.93243 0.56331 0.0
C509 C 0.2392 0.91414 0.58559 0.0
C510 C 0.13752 0.9359 0.56995 0.0
C511 C 0.18912 0.93703 0.56904 0.0
C512 C 0.11226 0.94636 0.56154 0.0
C513 C 0.11116 0.9692 0.54396 0.0
C514 C 0.16203 0.94811 0.56053 0.0
C515 C 0.13615 0.98101 0.53514 0.0
C516 C 0.21345 0.94406 0.5551 0.0
C517 C 0.21448 0.90799 0.59919 0.0
N518 N 0.16059 0.97024 0.54341 0.0
N519 N 0.19048 0.91927 0.5906 0.0
H520 H 0.78335 0.48882 0.90758 0.0
H521 H 0.90833 0.45652 0.00973 0.0
H522 H 0.79113 0.41099 0.94942 0.0
H523 H 0.90866 0.52245 0.95037 0.0
H524 H 0.86255 0.44225 0.99307 0.0
H525 H 0.82648 0.50418 0.92841 0.0
C526 C 0.79417 0.47488 0.92106 0.0
C527 C 0.78371 0.44839 0.9264 0.0
C528 C 0.87269 0.45988 0.98381 0.0
C529 C 0.8331 0.46611 0.95077 0.0
C530 C 0.89874 0.46809 0.99336 0.0
C531 C 0.91244 0.49062 0.98132 0.0
C532 C 0.86019 0.47453 0.96236 0.0
C533 C 0.89904 0.50482 0.96013 0.0
C534 C 0.81876 0.48374 0.93308 0.0
C535 C 0.79832 0.4316 0.94476 0.0
N536 N 0.87373 0.49655 0.95138 0.0
N537 N 0.82235 0.4407 0.9562 0.0
H538 H 0.73486 0.53154 0.4136 0.0
H539 H 0.61045 0.56918 0.51322 0.0
H540 H 0.72621 0.61228 0.44871 0.0
H541 H 0.60993 0.50038 0.45766 0.0
H542 H 0.65629 0.58255 0.49611 0.0
H543 H 0.69247 0.51705 0.43614 0.0
C544 C 0.72403 0.54629 0.426 0.0
C545 C 0.73398 0.57333 0.42885 0.0
C546 C 0.64609 0.56448 0.48783 0.0
C547 C 0.68543 0.55664 0.45518 0.0
C548 C 0.62004 0.55678 0.49764 0.0
C549 C 0.60625 0.53375 0.48671 0.0
C550 C 0.6585 0.54876 0.46729 0.0
C551 C 0.61961 0.51845 0.46651 0.0
C552 C 0.69986 0.53793 0.43899 0.0
C553 C 0.7194 0.59121 0.44594 0.0
N554 N 0.64491 0.52622 0.4575 0.0
N555 N 0.69576 0.5826 0.45835 0.0
H556 H 0.0722 0.30563 0.12437 0.0
H557 H 0.06213 0.41604 0.00416 0.0
H558 H 0.10639 0.29458 0.04379 0.0
H559 H 0.01112 0.42024 0.0761 0.0
H560 H 0.07854 0.37148 0.01918 0.0
H561 H 0.04933 0.34728 0.10798 0.0
C562 C 0.07471 0.31177 0.1032 0.0
C563 C 0.09159 0.29671 0.08554 0.0
C564 C 0.06361 0.38196 0.03167 0.0
C565 C 0.06572 0.34447 0.0668 0.0
C566 C 0.05427 0.40751 0.02312 0.0
C567 C 0.03533 0.42201 0.03898 0.0
C568 C 0.05431 0.37076 0.05651 0.0
C569 C 0.02571 0.40975 0.06325 0.0
C570 C 0.06171 0.3356 0.0939 0.0
C571 C 0.09419 0.30582 0.05837 0.0
N572 N 0.03555 0.38491 0.07146 0.0
N573 N 0.0816 0.32913 0.04994 0.0
H574 H 0.60626 0.24188 0.99411 0.0
H575 H 0.5075 0.11469 0.95578 0.0
H576 H 0.57097 0.23166 0.91343 0.0
H577 H 0.56357 0.11606 0.02462 0.0
H578 H 0.52435 0.1607 0.94256 0.0
H579 H 0.58434 0.1989 0.00825 0.0
C580 C 0.59396 0.23058 0.9793 0.0
C581 C 0.59086 0.24029 0.95238 0.0
C582 C 0.53281 0.15087 0.96059 0.0
C583 C 0.56523 0.19106 0.96868 0.0
C584 C 0.52316 0.12471 0.9682 0.0
C585 C 0.53428 0.11142 0.99122 0.0
C586 C 0.55339 0.16389 0.97639 0.0
C587 C 0.55457 0.12535 0.00656 0.0
C588 C 0.58132 0.20607 0.98746 0.0
C589 C 0.57391 0.22507 0.93441 0.0
N590 N 0.56342 0.15075 0.99888 0.0
N591 N 0.56183 0.20112 0.94283 0.0
H592 H 0.93808 0.76877 0.48055 0.0
H593 H 0.97419 0.9238 0.4375 0.0
H594 H 0.91961 0.80282 0.40098 0.0
H595 H 0.99822 0.88758 0.51469 0.0
H596 H 0.95559 0.87926 0.42309 0.0
H597 H 0.96131 0.81181 0.49294 0.0
C598 C 0.9389 0.78532 0.46569 0.0
C599 C 0.92675 0.78221 0.43973 0.0
C600 C 0.96509 0.88102 0.44311 0.0
C601 C 0.95347 0.83156 0.45373 0.0
C602 C 0.97575 0.90647 0.45137 0.0
C603 C 0.9877 0.90955 0.47743 0.0
C604 C 0.96622 0.85846 0.46108 0.0
C605 C 0.98916 0.88627 0.49445 0.0
C606 C 0.95231 0.80984 0.47271 0.0
C607 C 0.92887 0.80421 0.42114 0.0
N608 N 0.97839 0.8618 0.48604 0.0
N609 N 0.9418 0.82799 0.42855 0.0
H610 H 0.48962 0.7301 0.62386 0.0
H611 H 0.44227 0.60177 0.53197 0.0
H612 H 0.40676 0.71815 0.59338 0.0
H613 H 0.52214 0.60832 0.5708 0.0
H614 H 0.43002 0.64598 0.55162 0.0
H615 H 0.50285 0.6871 0.60215 0.0
C616 C 0.47415 0.71843 0.61269 0.0
C617 C 0.44695 0.72782 0.61061 0.0
C618 C 0.45025 0.63779 0.55581 0.0
C619 C 0.46213 0.67858 0.58535 0.0
C620 C 0.45731 0.61251 0.54455 0.0
C621 C 0.48329 0.60116 0.54977 0.0
C622 C 0.46929 0.652 0.5724 0.0
C623 C 0.50185 0.61616 0.56625 0.0
C624 C 0.48178 0.69392 0.60017 0.0
C625 C 0.42802 0.712 0.59533 0.0
N626 N 0.49448 0.64075 0.57699 0.0
N627 N 0.43594 0.68818 0.58337 0.0
H628 H 0.92391 0.97336 0.74921 0.0
H629 H 0.99988 0.93641 0.60916 0.0
H630 H 0.96589 0.89728 0.73392 0.0
H631 H 0.95855 0.01346 0.62156 0.0
H632 H 0.98683 0.92212 0.65498 0.0
H633 H 0.93554 0.98873 0.70275 0.0
C634 C 0.93551 0.95988 0.73611 0.0
C635 C 0.94409 0.93405 0.74559 0.0
C636 C 0.98053 0.94216 0.64776 0.0
C637 C 0.95752 0.95153 0.69254 0.0
C638 C 0.98799 0.95038 0.62149 0.0
C639 C 0.98036 0.97625 0.61139 0.0
C640 C 0.96528 0.95987 0.66431 0.0
C641 C 0.9649 0.99334 0.62847 0.0
C642 C 0.94223 0.96871 0.70965 0.0
C643 C 0.95927 0.91755 0.72777 0.0
N644 N 0.95789 0.98486 0.65414 0.0
N645 N 0.96545 0.92656 0.7022 0.0
H646 H 0.61979 0.09709 0.23093 0.0
H647 H 0.50483 0.02099 0.13967 0.0
H648 H 0.53888 0.07515 0.26059 0.0
H649 H 0.58126 0.05324 0.10724 0.0
H650 H 0.51887 0.03644 0.1852 0.0
H651 H 0.60791 0.07676 0.18668 0.0
C652 C 0.59962 0.08774 0.22822 0.0
C653 C 0.58027 0.0879 0.24948 0.0
C654 C 0.53261 0.04004 0.16814 0.0
C655 C 0.56643 0.06481 0.19876 0.0
C656 C 0.52465 0.03116 0.14211 0.0
C657 C 0.54182 0.03594 0.11949 0.0
C658 C 0.55798 0.05374 0.17167 0.0
C659 C 0.56727 0.04921 0.124 0.0
C660 C 0.59278 0.0763 0.20289 0.0
C661 C 0.5543 0.07581 0.24466 0.0
N662 N 0.57454 0.05771 0.14954 0.0
N663 N 0.54814 0.06479 0.21982 0.0
H664 H 0.48838 0.57322 0.27198 0.0
H665 H 0.43793 0.55171 0.42629 0.0
H666 H 0.40714 0.59424 0.29986 0.0
H667 H 0.51386 0.51907 0.39505 0.0
H668 H 0.42651 0.56801 0.3803 0.0
H669 H 0.49844 0.55392 0.31719 0.0
C670 C 0.47266 0.57375 0.28762 0.0
C671 C 0.4469 0.58538 0.28216 0.0
C672 C 0.44561 0.55718 0.3835 0.0
C673 C 0.45824 0.56334 0.33394 0.0
C674 C 0.45218 0.54789 0.40978 0.0
C675 C 0.47694 0.53404 0.41462 0.0
C676 C 0.46401 0.55278 0.36189 0.0
C677 C 0.49454 0.52965 0.39235 0.0
C678 C 0.47836 0.56262 0.31338 0.0
C679 C 0.42718 0.58523 0.30309 0.0
N680 N 0.4878 0.5391 0.36702 0.0
N681 N 0.43332 0.57455 0.32809 0.0
H682 H 0.10475 0.4198 0.80011 0.0
H683 H 0.01483 0.52403 0.88768 0.0
H684 H 0.06691 0.49133 0.76442 0.0
H685 H 0.07203 0.46655 0.92315 0.0
H686 H 0.02955 0.50981 0.84196 0.0
H687 H 0.08827 0.43379 0.84503 0.0
C688 C 0.09273 0.43833 0.8017 0.0
C689 C 0.08715 0.4544 0.77849 0.0
C690 C 0.03887 0.5004 0.8598 0.0
C691 C 0.0684 0.4707 0.82995 0.0
C692 C 0.03045 0.50845 0.88589 0.0
C693 C 0.04225 0.49652 0.90933 0.0
C694 C 0.05895 0.48004 0.85716 0.0
C695 C 0.06243 0.47643 0.90573 0.0
C696 C 0.08352 0.44643 0.82739 0.0
C697 C 0.07185 0.47847 0.78184 0.0
N698 N 0.07003 0.46878 0.88019 0.0
N699 N 0.06292 0.48587 0.8071 0.0
H700 H 0.74929 0.9935 0.9521 0.0
H701 H 0.59362 0.94326 0.97512 0.0
H702 H 0.71907 0.91267 0.93047 0.0
H703 H 0.62645 0.01997 0.00617 0.0
H704 H 0.63943 0.93171 0.95864 0.0
H705 H 0.7044 0.00371 0.97192 0.0
C706 C 0.7332 0.9779 0.95153 0.0
C707 C 0.73792 0.95222 0.93955 0.0
C708 C 0.63664 0.95102 0.96917 0.0
C709 C 0.6865 0.96372 0.96223 0.0
C710 C 0.61045 0.95766 0.97857 0.0
C711 C 0.60609 0.98269 0.992 0.0
C712 C 0.65866 0.96959 0.97304 0.0
C713 C 0.62878 1.00046 0.99592 0.0
C714 C 0.70763 0.98369 0.96296 0.0
C715 C 0.71644 0.93265 0.93972 0.0
N716 N 0.65402 0.99363 0.98636 0.0
N717 N 0.69164 0.93886 0.95071 0.0
H718 H 0.78762 0.03225 0.41287 0.0
H719 H 0.91033 0.06578 0.51775 0.0
H720 H 0.7907 0.10693 0.46034 0.0
H721 H 0.91576 0.00741 0.45167 0.0
H722 H 0.86392 0.07778 0.50185 0.0
H723 H 0.83199 0.01931 0.43208 0.0
C724 C 0.79764 0.04602 0.42726 0.0
C725 C 0.7855 0.07096 0.43464 0.0
C726 C 0.87535 0.06234 0.49091 0.0
C727 C 0.83632 0.05593 0.45715 0.0
C728 C 0.90178 0.05544 0.49999 0.0
C729 C 0.91704 0.03564 0.48595 0.0
C730 C 0.86402 0.04907 0.4679 0.0
C731 C 0.90491 0.02293 0.46304 0.0
C732 C 0.82297 0.03853 0.43833 0.0
C733 C 0.79918 0.08748 0.4541 0.0
N734 N 0.87916 0.0298 0.45482 0.0
N735 N 0.82393 0.07972 0.46461 0.0
H736 H 0.25368 0.53305 0.07635 0.0
H737 H 0.10192 0.58935 0.0493 0.0
H738 H 0.22892 0.61577 0.09491 0.0
H739 H 0.12975 0.51066 0.02043 0.0
H740 H 0.14849 0.59957 0.06566 0.0
H741 H 0.20847 0.52442 0.05555 0.0
C742 C 0.23873 0.5494 0.07602 0.0
C743 C 0.24505 0.57515 0.08743 0.0
C744 C 0.14445 0.58013 0.0556 0.0
C745 C 0.19331 0.56547 0.06364 0.0
C746 C 0.11783 0.57426 0.04626 0.0
C747 C 0.11183 0.54904 0.03357 0.0
C748 C 0.16524 0.56057 0.05244 0.0
C749 C 0.13337 0.53035 0.03012 0.0
C750 C 0.21299 0.54452 0.06402 0.0
C751 C 0.22503 0.5957 0.08613 0.0
N752 N 0.15905 0.53642 0.03968 0.0
N753 N 0.20002 0.59036 0.07462 0.0
H754 H 0.25892 0.44852 0.53528 0.0
H755 H 0.42052 0.44059 0.56399 0.0
H756 H 0.2942 0.40923 0.60631 0.0
H757 H 0.3856 0.50087 0.50926 0.0
H758 H 0.37419 0.42562 0.57647 0.0
H759 H 0.30507 0.46498 0.52231 0.0
C760 C 0.27637 0.4434 0.54813 0.0
C761 C 0.27276 0.42758 0.57195 0.0
C762 C 0.37664 0.44216 0.56176 0.0
C763 C 0.32541 0.44608 0.55719 0.0
C764 C 0.40311 0.45066 0.55451 0.0
C765 C 0.407 0.47206 0.53553 0.0
C766 C 0.35375 0.45488 0.54978 0.0
C767 C 0.38357 0.48436 0.52404 0.0
C768 C 0.30263 0.45288 0.5408 0.0
C769 C 0.29601 0.42164 0.58797 0.0
N770 N 0.35791 0.47551 0.53126 0.0
N771 N 0.32133 0.43074 0.58021 0.0
H772 H 0.92396 0.7346 0.90755 0.0
H773 H 1.00104 0.63968 0.01729 0.0
H774 H 0.94278 0.76051 0.99 0.0
H775 H 0.96983 0.61009 0.93974 0.0
H776 H 0.98434 0.6855 0.00585 0.0
H777 H 0.94527 0.69038 0.91725 0.0
C778 C 0.93282 0.73109 0.92763 0.0
C779 C 0.93154 0.75129 0.94802 0.0
C780 C 0.98124 0.66899 0.99131 0.0
C781 C 0.95577 0.70055 0.95935 0.0
C782 C 0.99085 0.64281 0.99777 0.0
C783 C 0.98673 0.62089 0.97951 0.0
C784 C 0.96751 0.67337 0.96633 0.0
C785 C 0.97336 0.62628 0.95453 0.0
C786 C 0.94483 0.70576 0.93321 0.0
C787 C 0.94302 0.74541 0.97379 0.0
N788 N 0.9642 0.65193 0.94872 0.0
N789 N 0.95464 0.72059 0.97872 0.0
H790 H 0.46386 0.76482 0.05863 0.0
H791 H 0.45592 0.92664 0.08549 0.0
H792 H 0.40011 0.80309 0.10586 0.0
H793 H 0.50556 0.89175 0.02155 0.0
H794 H 0.43989 0.8806 0.09775 0.0
H795 H 0.4839 0.81041 0.04928 0.0
C796 C 0.45422 0.7828 0.06717 0.0
C797 C 0.4302 0.78025 0.08287 0.0
C798 C 0.45435 0.883 0.08109 0.0
C799 C 0.45295 0.83225 0.07236 0.0
C800 C 0.46361 0.9093 0.07411 0.0
C801 C 0.48202 0.91315 0.05232 0.0
C802 C 0.46366 0.86025 0.06633 0.0
C803 C 0.49125 0.8898 0.03837 0.0
C804 C 0.46556 0.80877 0.06172 0.0
C805 C 0.41842 0.80419 0.09333 0.0
N806 N 0.48193 0.86434 0.04559 0.0
N807 N 0.42992 0.82916 0.08791 0.0
H808 H 0.09815 0.23899 0.56828 0.0
H809 H 0.00122 0.10553 0.57907 0.0
H810 H 0.03723 0.22743 0.63155 0.0
H811 H 0.07534 0.10868 0.53061 0.0
H812 H 0.01152 0.15188 0.59558 0.0
H813 H 0.08756 0.19288 0.55136 0.0
C814 C 0.08263 0.22679 0.57873 0.0
C815 C 0.06865 0.23723 0.6015 0.0
C816 C 0.02555 0.1424 0.58137 0.0
C817 C 0.05612 0.18446 0.58184 0.0
C818 C 0.01966 0.11594 0.57188 0.0
C819 C 0.03746 0.10311 0.55344 0.0
C820 C 0.04927 0.15631 0.57218 0.0
C821 C 0.06107 0.11767 0.54489 0.0
C822 C 0.07652 0.20047 0.56894 0.0
C823 C 0.04831 0.22053 0.61372 0.0
N824 N 0.06623 0.14351 0.55426 0.0
N825 N 0.04266 0.19503 0.60374 0.0
H826 H 0.57679 0.26502 0.49264 0.0
H827 H 0.54681 0.41775 0.4406 0.0
H828 H 0.59473 0.29362 0.41088 0.0
H829 H 0.51829 0.38567 0.5181 0.0
H830 H 0.56387 0.37224 0.42909 0.0
H831 H 0.55498 0.30898 0.50232 0.0
C832 C 0.57612 0.28055 0.47673 0.0
C833 C 0.58767 0.27566 0.45094 0.0
C834 C 0.55371 0.37511 0.44854 0.0
C835 C 0.56269 0.32601 0.46184 0.0
C836 C 0.54396 0.40112 0.45514 0.0
C837 C 0.53118 0.40564 0.48043 0.0
C838 C 0.5509 0.35344 0.46743 0.0
C839 C 0.52802 0.38322 0.49838 0.0
C840 C 0.56353 0.30558 0.48221 0.0
C841 C 0.58587 0.29639 0.43096 0.0
N842 N 0.53799 0.35817 0.49162 0.0
N843 N 0.57381 0.32069 0.43689 0.0
loop_
_geom_bond_atom_site_label_1
_geom_bond_atom_site_label_2
_geom_bond_distance
_geom_bond_site_symmetry_2
_ccdc_geom_bond_type
C0 C1 1.264 . S
C0 C5 1.479 . S
C0 C10 1.465 . S
C1 C0 1.264 . S
C1 C3 1.339 . S
C1 H28 0.931 . S
C2 C3 1.395 . S
C2 C4 1.320 . S
C3 C1 1.339 . S
C3 C2 1.395 . S
C3 H29 0.929 . S
C4 C2 1.320 . S
C4 C5 1.405 . S
C4 H30 0.930 . S
C5 C0 1.479 . S
C5 C4 1.405 . S
C5 H31 0.931 . S
U6 O7 2.454 . S
U6 O8 2.458 . S
U6 C9 2.984 . S
U6 C10 2.847 . S
U6 C23 2.882 . S
U6 O24 2.441 . S
U6 O25 2.420 . S
U6 O26 2.455 . S
U6 O27 2.449 . S
O7 U6 2.454 . S
O7 C9 1.353 . S
O8 U6 2.458 . S
O8 C9 1.286 . S
C9 U6 2.984 . S
C9 O7 1.353 . S
C9 O8 1.286 . S
C9 C11 1.363 . S
C10 C0 1.465 . S
C10 U6 2.847 . S
C10 O24 1.249 . S
C10 O25 1.202 . S
C11 C9 1.363 . S
C11 C13 1.408 . S
C11 C16 1.342 . S
C12 C13 1.310 . S
C12 C15 1.461 . S
C12 H32 0.932 . S
C13 C11 1.408 . S
C13 C12 1.310 . S
C13 H33 0.930 . S
C14 C15 1.474 . S
C14 C16 1.285 . S
C14 H34 0.929 . S
C15 C12 1.461 . S
C15 C14 1.474 . S
C16 C11 1.342 . S
C16 C14 1.285 . S
C16 H35 0.930 . S
C17 C20 1.424 . S
C17 C22 1.245 . S
C17 C23 1.428 . S
C18 C21 1.260 . S
C18 C22 1.477 . S
C18 H36 0.932 . S
C19 C20 1.384 . S
C19 C21 1.479 . S
C19 H37 0.929 . S
C20 C17 1.424 . S
C20 C19 1.384 . S
C20 H38 0.928 . S
C21 C18 1.260 . S
C21 C19 1.479 . S
C22 C17 1.245 . S
C22 C18 1.477 . S
C22 H39 0.932 . S
C23 U6 2.882 . S
C23 C17 1.428 . S
C23 O26 1.301 . S
C23 O27 1.282 . S
O24 U6 2.441 . S
O24 C10 1.249 . S
O25 U6 2.420 . S
O25 C10 1.202 . S
O26 U6 2.455 . S
O26 C23 1.301 . S
O27 U6 2.449 . S
O27 C23 1.282 . S
H28 C1 0.931 . S
H29 C3 0.929 . S
H30 C4 0.930 . S
H31 C5 0.931 . S
H32 C12 0.932 . S
H33 C13 0.930 . S
H34 C14 0.929 . S
H35 C16 0.930 . S
H36 C18 0.932 . S
H37 C19 0.929 . S
H38 C20 0.928 . S
H39 C22 0.932 . S
C40 C41 1.264 . S
C40 C45 1.479 . S
C40 C50 1.465 . S
C41 C40 1.264 . S
C41 C43 1.339 . S
C41 H68 0.931 . S
C42 C43 1.395 . S
C42 C44 1.320 . S
C43 C41 1.339 . S
C43 C42 1.395 . S
C43 H69 0.929 . S
C44 C42 1.320 . S
C44 C45 1.405 . S
C44 H70 0.930 . S
C45 C40 1.479 . S
C45 C44 1.405 . S
C45 H71 0.931 . S
U46 O47 2.454 . S
U46 O48 2.458 . S
U46 C49 2.984 . S
U46 C50 2.847 . S
U46 C63 2.882 . S
U46 O64 2.441 . S
U46 O65 2.420 . S
U46 O66 2.455 . S
U46 O67 2.449 . S
O47 U46 2.454 . S
O47 C49 1.353 . S
O48 U46 2.458 . S
O48 C49 1.286 . S
C49 U46 2.984 . S
C49 O47 1.353 . S
C49 O48 1.286 . S
C49 C51 1.363 . S
C50 C40 1.465 . S
C50 U46 2.847 . S
C50 O64 1.249 . S
C50 O65 1.202 . S
C51 C49 1.363 . S
C51 C53 1.408 . S
C51 C56 1.342 . S
C52 C53 1.310 . S
C52 C55 1.461 . S
C52 H72 0.932 . S
C53 C51 1.408 . S
C53 C52 1.310 . S
C53 H73 0.930 . S
C54 C55 1.474 . S
C54 C56 1.285 . S
C54 H74 0.929 . S
C55 C52 1.461 . S
C55 C54 1.474 . S
C56 C51 1.342 . S
C56 C54 1.285 . S
C56 H75 0.930 . S
C57 C60 1.424 . S
C57 C62 1.245 . S
C57 C63 1.428 . S
C58 C61 1.260 . S
C58 C62 1.477 . S
C58 H76 0.932 . S
C59 C60 1.384 . S
C59 C61 1.479 . S
C59 H77 0.929 . S
C60 C57 1.424 . S
C60 C59 1.384 . S
C60 H78 0.928 . S
C61 C58 1.260 . S
C61 C59 1.479 . S
C62 C57 1.245 . S
C62 C58 1.477 . S
C62 H79 0.932 . S
C63 U46 2.882 . S
C63 C57 1.428 . S
C63 O66 1.301 . S
C63 O67 1.282 . S
O64 U46 2.441 . S
O64 C50 1.249 . S
O65 U46 2.420 . S
O65 C50 1.202 . S
O66 U46 2.455 . S
O66 C63 1.301 . S
O67 U46 2.449 . S
O67 C63 1.282 . S
H68 C41 0.931 . S
H69 C43 0.929 . S
H70 C44 0.930 . S
H71 C45 0.931 . S
H72 C52 0.932 . S
H73 C53 0.930 . S
H74 C54 0.929 . S
H75 C56 0.930 . S
H76 C58 0.932 . S
H77 C59 0.929 . S
H78 C60 0.928 . S
H79 C62 0.932 . S
C80 C81 1.264 . S
C80 C85 1.479 . S
C80 C90 1.465 . S
C81 C80 1.264 . S
C81 C83 1.339 . S
C81 H108 0.931 . S
C82 C83 1.395 . S
C82 C84 1.320 . S
C83 C81 1.339 . S
C83 C82 1.395 . S
C83 H109 0.929 . S
C84 C82 1.320 . S
C84 C85 1.405 . S
C84 H110 0.930 . S
C85 C80 1.479 . S
C85 C84 1.405 . S
C85 H111 0.931 . S
U86 O87 2.454 . S
U86 O88 2.458 . S
U86 C89 2.984 . S
U86 C90 2.847 . S
U86 C103 2.882 . S
U86 O104 2.441 . S
U86 O105 2.420 . S
U86 O106 2.455 . S
U86 O107 2.449 . S
O87 U86 2.454 . S
O87 C89 1.353 . S
O88 U86 2.458 . S
O88 C89 1.286 . S
C89 U86 2.984 . S
C89 O87 1.353 . S
C89 O88 1.286 . S
C89 C91 1.363 . S
C90 C80 1.465 . S
C90 U86 2.847 . S
C90 O104 1.249 . S
C90 O105 1.202 . S
C91 C89 1.363 . S
C91 C93 1.408 . S
C91 C96 1.342 . S
C92 C93 1.310 . S
C92 C95 1.461 . S
C92 H112 0.932 . S
C93 C91 1.408 . S
C93 C92 1.310 . S
C93 H113 0.930 . S
C94 C95 1.474 . S
C94 C96 1.285 . S
C94 H114 0.929 . S
C95 C92 1.461 . S
C95 C94 1.474 . S
C96 C91 1.342 . S
C96 C94 1.285 . S
C96 H115 0.930 . S
C97 C100 1.424 . S
C97 C102 1.245 . S
C97 C103 1.428 . S
C98 C101 1.260 . S
C98 C102 1.477 . S
C98 H116 0.932 . S
C99 C100 1.384 . S
C99 C101 1.479 . S
C99 H117 0.929 . S
C100 C97 1.424 . S
C100 C99 1.384 . S
C100 H118 0.928 . S
C101 C98 1.260 . S
C101 C99 1.479 . S
C102 C97 1.245 . S
C102 C98 1.477 . S
C102 H119 0.932 . S
C103 U86 2.882 . S
C103 C97 1.428 . S
C103 O106 1.301 . S
C103 O107 1.282 . S
O104 U86 2.441 . S
O104 C90 1.249 . S
O105 U86 2.420 . S
O105 C90 1.202 . S
O106 U86 2.455 . S
O106 C103 1.301 . S
O107 U86 2.449 . S
O107 C103 1.282 . S
H108 C81 0.931 . S
H109 C83 0.929 . S
H110 C84 0.930 . S
H111 C85 0.931 . S
H112 C92 0.932 . S
H113 C93 0.930 . S
H114 C94 0.929 . S
H115 C96 0.930 . S
H116 C98 0.932 . S
H117 C99 0.929 . S
H118 C100 0.928 . S
H119 C102 0.932 . S
C120 C121 1.264 . S
C120 C125 1.479 . S
C120 C130 1.465 . S
C121 C120 1.264 . S
C121 C123 1.339 . S
C121 H148 0.931 . S
C122 C123 1.395 . S
C122 C124 1.320 . S
C123 C121 1.339 . S
C123 C122 1.395 . S
C123 H149 0.929 . S
C124 C122 1.320 . S
C124 C125 1.405 . S
C124 H150 0.930 . S
C125 C120 1.479 . S
C125 C124 1.405 . S
C125 H151 0.931 . S
U126 O127 2.454 . S
U126 O128 2.458 . S
U126 C129 2.984 . S
U126 C130 2.847 . S
U126 C143 2.882 . S
U126 O144 2.441 . S
U126 O145 2.420 . S
U126 O146 2.455 . S
U126 O147 2.449 . S
O127 U126 2.454 . S
O127 C129 1.353 . S
O128 U126 2.458 . S
O128 C129 1.286 . S
C129 U126 2.984 . S
C129 O127 1.353 . S
C129 O128 1.286 . S
C129 C131 1.363 . S
C130 C120 1.465 . S
C130 U126 2.847 . S
C130 O144 1.249 . S
C130 O145 1.202 . S
C131 C129 1.363 . S
C131 C133 1.408 . S
C131 C136 1.342 . S
C132 C133 1.310 . S
C132 C135 1.461 . S
C132 H152 0.932 . S
C133 C131 1.408 . S
C133 C132 1.310 . S
C133 H153 0.930 . S
C134 C135 1.474 . S
C134 C136 1.285 . S
C134 H154 0.929 . S
C135 C132 1.461 . S
C135 C134 1.474 . S
C136 C131 1.342 . S
C136 C134 1.285 . S
C136 H155 0.930 . S
C137 C140 1.424 . S
C137 C142 1.245 . S
C137 C143 1.428 . S
C138 C141 1.260 . S
C138 C142 1.477 . S
C138 H156 0.932 . S
C139 C140 1.384 . S
C139 C141 1.479 . S
C139 H157 0.929 . S
C140 C137 1.424 . S
C140 C139 1.384 . S
C140 H158 0.928 . S
C141 C138 1.260 . S
C141 C139 1.479 . S
C142 C137 1.245 . S
C142 C138 1.477 . S
C142 H159 0.932 . S
C143 U126 2.882 . S
C143 C137 1.428 . S
C143 O146 1.301 . S
C143 O147 1.282 . S
O144 U126 2.441 . S
O144 C130 1.249 . S
O145 U126 2.420 . S
O145 C130 1.202 . S
O146 U126 2.455 . S
O146 C143 1.301 . S
O147 U126 2.449 . S
O147 C143 1.282 . S
H148 C121 0.931 . S
H149 C123 0.929 . S
H150 C124 0.930 . S
H151 C125 0.931 . S
H152 C132 0.932 . S
H153 C133 0.930 . S
H154 C134 0.929 . S
H155 C136 0.930 . S
H156 C138 0.932 . S
H157 C139 0.929 . S
H158 C140 0.928 . S
H159 C142 0.932 . S
C160 C161 1.264 . S
C160 C165 1.479 . S
C160 C170 1.465 . S
C161 C160 1.264 . S
C161 C163 1.339 . S
C161 H188 0.931 . S
C162 C163 1.395 . S
C162 C164 1.320 . S
C163 C161 1.339 . S
C163 C162 1.395 . S
C163 H189 0.929 . S
C164 C162 1.320 . S
C164 C165 1.405 . S
C164 H190 0.930 . S
C165 C160 1.479 . S
C165 C164 1.405 . S
C165 H191 0.931 . S
U166 O167 2.454 . S
U166 O168 2.458 . S
U166 C169 2.984 . S
U166 C170 2.847 . S
U166 C183 2.882 . S
U166 O184 2.441 . S
U166 O185 2.420 . S
U166 O186 2.455 . S
U166 O187 2.449 . S
O167 U166 2.454 . S
O167 C169 1.353 . S
O168 U166 2.458 . S
O168 C169 1.286 . S
C169 U166 2.984 . S
C169 O167 1.353 . S
C169 O168 1.286 . S
C169 C171 1.363 . S
C170 C160 1.465 . S
C170 U166 2.847 . S
C170 O184 1.249 . S
C170 O185 1.202 . S
C171 C169 1.363 . S
C171 C173 1.408 . S
C171 C176 1.342 . S
C172 C173 1.310 . S
C172 C175 1.461 . S
C172 H192 0.944 . S
C173 C171 1.408 . S
C173 C172 1.310 . S
C173 H193 0.930 . S
C174 C175 1.474 . S
C174 C176 1.285 . S
C174 H194 0.929 1_565 S
C175 C172 1.461 . S
C175 C174 1.474 . S
C176 C171 1.342 . S
C176 C174 1.285 . S
C176 H195 0.930 . S
C177 C180 1.424 . S
C177 C182 1.245 . S
C177 C183 1.428 . S
C178 C181 1.260 . S
C178 C182 1.477 . S
C178 H196 0.932 1_565 S
C179 C180 1.384 . S
C179 C181 1.479 . S
C179 H197 0.929 . S
C180 C177 1.424 . S
C180 C179 1.384 . S
C180 H198 0.928 . S
C181 C178 1.260 . S
C181 C179 1.479 . S
C182 C177 1.245 . S
C182 C178 1.477 . S
C182 H199 0.932 . S
C183 U166 2.882 . S
C183 C177 1.428 . S
C183 O186 1.301 . S
C183 O187 1.282 . S
O184 U166 2.441 . S
O184 C170 1.249 . S
O185 U166 2.420 . S
O185 C170 1.202 . S
O186 U166 2.455 . S
O186 C183 1.301 . S
O187 U166 2.449 . S
O187 C183 1.282 . S
H188 C161 0.931 . S
H189 C163 0.929 . S
H190 C164 0.930 . S
H191 C165 0.931 . S
H192 C172 0.944 . S
H193 C173 0.930 . S
H194 C174 0.929 1_545 S
H195 C176 0.930 . S
H196 C178 0.932 1_545 S
H197 C179 0.929 . S
H198 C180 0.928 . S
H199 C182 0.932 . S
C200 C201 1.264 . S
C200 C205 1.479 . S
C200 C210 1.465 . S
C201 C200 1.264 . S
C201 C203 1.339 . S
C201 H228 0.931 . S
C202 C203 1.395 . S
C202 C204 1.320 . S
C203 C201 1.339 . S
C203 C202 1.395 . S
C203 H229 0.929 . S
C204 C202 1.320 . S
C204 C205 1.405 . S
C204 H230 0.930 . S
C205 C200 1.479 . S
C205 C204 1.405 . S
C205 H231 0.931 . S
U206 O207 2.454 . S
U206 O208 2.458 . S
U206 C209 2.984 . S
U206 C210 2.847 . S
U206 C223 2.882 . S
U206 O224 2.441 . S
U206 O225 2.420 . S
U206 O226 2.455 . S
U206 O227 2.449 . S
O207 U206 2.454 . S
O207 C209 1.353 . S
O208 U206 2.458 . S
O208 C209 1.286 . S
C209 U206 2.984 . S
C209 O207 1.353 . S
C209 O208 1.286 . S
C209 C211 1.363 . S
C210 C200 1.465 . S
C210 U206 2.847 . S
C210 O224 1.249 . S
C210 O225 1.202 . S
C211 C209 1.363 . S
C211 C213 1.408 . S
C211 C216 1.342 . S
C212 C213 1.310 . S
C212 C215 1.461 . S
C212 H232 0.932 . S
C213 C211 1.408 . S
C213 C212 1.310 . S
C213 H233 0.930 . S
C214 C215 1.474 . S
C214 C216 1.285 . S
C214 H234 0.929 . S
C215 C212 1.461 . S
C215 C214 1.474 . S
C216 C211 1.342 . S
C216 C214 1.285 . S
C216 H235 0.930 . S
C217 C220 1.424 . S
C217 C222 1.245 . S
C217 C223 1.428 . S
C218 C221 1.260 . S
C218 C222 1.477 . S
C218 H236 0.932 . S
C219 C220 1.384 . S
C219 C221 1.479 . S
C219 H237 0.929 . S
C220 C217 1.424 . S
C220 C219 1.384 . S
C220 H238 0.928 . S
C221 C218 1.260 . S
C221 C219 1.479 . S
C222 C217 1.245 . S
C222 C218 1.477 . S
C222 H239 0.932 . S
C223 U206 2.882 . S
C223 C217 1.428 . S
C223 O226 1.301 . S
C223 O227 1.282 . S
O224 U206 2.441 . S
O224 C210 1.249 . S
O225 U206 2.420 . S
O225 C210 1.202 . S
O226 U206 2.455 . S
O226 C223 1.301 . S
O227 U206 2.449 . S
O227 C223 1.282 . S
H228 C201 0.931 . S
H229 C203 0.929 . S
H230 C204 0.930 . S
H231 C205 0.931 . S
H232 C212 0.932 . S
H233 C213 0.930 . S
H234 C214 0.929 . S
H235 C216 0.930 . S
H236 C218 0.932 . S
H237 C219 0.929 . S
H238 C220 0.928 . S
H239 C222 0.932 . S
C240 C241 1.264 . S
C240 C245 1.479 . S
C240 C250 1.465 . S
C241 C240 1.264 . S
C241 C243 1.339 . S
C241 H268 0.931 . S
C242 C243 1.395 . S
C242 C244 1.320 . S
C243 C241 1.339 . S
C243 C242 1.395 . S
C243 H269 0.929 . S
C244 C242 1.320 . S
C244 C245 1.405 . S
C244 H270 0.930 . S
C245 C240 1.479 . S
C245 C244 1.405 . S
C245 H271 0.931 . S
U246 O247 2.454 . S
U246 O248 2.458 . S
U246 C249 2.984 . S
U246 C250 2.847 . S
U246 C263 2.882 . S
U246 O264 2.441 . S
U246 O265 2.420 . S
U246 O266 2.455 . S
U246 O267 2.449 . S
O247 U246 2.454 . S
O247 C249 1.353 . S
O248 U246 2.458 . S
O248 C249 1.286 . S
C249 U246 2.984 . S
C249 O247 1.353 . S
C249 O248 1.286 . S
C249 C251 1.363 . S
C250 C240 1.465 . S
C250 U246 2.847 . S
C250 O264 1.249 . S
C250 O265 1.202 . S
C251 C249 1.363 . S
C251 C253 1.408 . S
C251 C256 1.342 . S
C252 C253 1.310 . S
C252 C255 1.461 . S
C252 H272 0.932 . S
C253 C251 1.408 . S
C253 C252 1.310 . S
C253 H273 0.930 . S
C254 C255 1.474 . S
C254 C256 1.285 . S
C254 H274 0.929 . S
C255 C252 1.461 . S
C255 C254 1.474 . S
C256 C251 1.342 . S
C256 C254 1.285 . S
C256 H275 0.930 . S
C257 C260 1.424 . S
C257 C262 1.245 . S
C257 C263 1.428 . S
C258 C261 1.260 . S
C258 C262 1.477 . S
C258 H276 0.932 . S
C259 C260 1.384 . S
C259 C261 1.479 . S
C259 H277 0.929 . S
C260 C257 1.424 . S
C260 C259 1.384 . S
C260 H278 0.928 . S
C261 C258 1.260 . S
C261 C259 1.479 . S
C262 C257 1.245 . S
C262 C258 1.477 . S
C262 H279 0.932 . S
C263 U246 2.882 . S
C263 C257 1.428 . S
C263 O266 1.301 . S
C263 O267 1.282 . S
O264 U246 2.441 . S
O264 C250 1.249 . S
O265 U246 2.420 . S
O265 C250 1.202 . S
O266 U246 2.455 . S
O266 C263 1.301 . S
O267 U246 2.449 . S
O267 C263 1.282 . S
H268 C241 0.931 . S
H269 C243 0.929 . S
H270 C244 0.930 . S
H271 C245 0.931 . S
H272 C252 0.932 . S
H273 C253 0.930 . S
H274 C254 0.929 . S
H275 C256 0.930 . S
H276 C258 0.932 . S
H277 C259 0.929 . S
H278 C260 0.928 . S
H279 C262 0.932 . S
C280 C281 1.264 . S
C280 C285 1.479 . S
C280 C290 1.465 . S
C281 C280 1.264 . S
C281 C283 1.339 . S
C281 H308 0.931 . S
C282 C283 1.395 . S
C282 C284 1.320 . S
C283 C281 1.339 . S
C283 C282 1.395 . S
C283 H309 0.929 . S
C284 C282 1.320 . S
C284 C285 1.405 . S
C284 H310 0.930 . S
C285 C280 1.479 . S
C285 C284 1.405 . S
C285 H311 0.931 . S
U286 O287 2.454 . S
U286 O288 2.458 . S
U286 C289 2.984 . S
U286 C290 2.847 . S
U286 C303 2.882 . S
U286 O304 2.441 . S
U286 O305 2.420 . S
U286 O306 2.455 . S
U286 O307 2.449 . S
O287 U286 2.454 . S
O287 C289 1.353 . S
O288 U286 2.458 . S
O288 C289 1.286 . S
C289 U286 2.984 . S
C289 O287 1.353 . S
C289 O288 1.286 . S
C289 C291 1.363 . S
C290 C280 1.465 . S
C290 U286 2.847 . S
C290 O304 1.249 . S
C290 O305 1.202 . S
C291 C289 1.363 . S
C291 C293 1.408 . S
C291 C296 1.342 . S
C292 C293 1.310 . S
C292 C295 1.461 . S
C292 H312 0.932 . S
C293 C291 1.408 . S
C293 C292 1.310 . S
C293 H313 0.930 . S
C294 C295 1.474 . S
C294 C296 1.285 . S
C294 H314 0.929 . S
C295 C292 1.461 . S
C295 C294 1.474 . S
C296 C291 1.342 . S
C296 C294 1.285 . S
C296 H315 0.930 . S
C297 C300 1.424 . S
C297 C302 1.245 . S
C297 C303 1.428 . S
C298 C301 1.260 . S
C298 C302 1.477 . S
C298 H316 0.932 . S
C299 C300 1.384 . S
C299 C301 1.479 . S
C299 H317 0.929 . S
C300 C297 1.424 . S
C300 C299 1.384 . S
C300 H318 0.928 . S
C301 C298 1.260 . S
C301 C299 1.479 . S
C302 C297 1.245 . S
C302 C298 1.477 . S
C302 H319 0.932 . S
C303 U286 2.882 . S
C303 C297 1.428 . S
C303 O306 1.301 . S
C303 O307 1.282 . S
O304 U286 2.441 . S
O304 C290 1.249 . S
O305 U286 2.420 . S
O305 C290 1.202 . S
O306 U286 2.455 . S
O306 C303 1.301 . S
O307 U286 2.449 . S
O307 C303 1.282 . S
H308 C281 0.931 . S
H309 C283 0.929 . S
H310 C284 0.930 . S
H311 C285 0.931 . S
H312 C292 0.932 . S
H313 C293 0.930 . S
H314 C294 0.929 . S
H315 C296 0.930 . S
H316 C298 0.932 . S
H317 C299 0.929 . S
H318 C300 0.928 . S
H319 C302 0.932 . S
O320 Zn321 1.956 . S
O320 C336 1.218 1_655 S
Zn321 O320 1.956 . S
Zn321 O322 1.949 1_655 S
Zn321 O328 1.919 . S
Zn321 O333 1.924 . S
O322 Zn321 1.949 1_455 S
O322 Zn323 1.923 1_445 S
O322 Zn324 1.950 . S
O322 Zn325 1.945 1_545 S
Zn323 O322 1.923 1_665 S
Zn323 O326 1.933 . S
Zn323 O329 1.941 1_565 S
Zn323 O330 1.965 1_665 S
Zn324 O322 1.950 . S
Zn324 O331 1.938 . S
Zn324 O332 1.906 . S
Zn324 O342 1.953 . S
Zn325 O322 1.945 1_565 S
Zn325 O327 1.932 1_455 S
Zn325 O334 1.977 . S
Zn325 O335 1.910 1_455 S
O326 Zn323 1.933 . S
O326 C337 1.226 . S
O327 Zn325 1.932 1_655 S
O327 C337 1.307 . S
O328 Zn321 1.919 . S
O328 C339 1.253 . S
O329 Zn323 1.941 1_545 S
O329 C339 1.283 . S
O330 Zn323 1.965 1_445 S
O330 C338 1.303 . S
O331 Zn324 1.938 . S
O331 C338 1.247 . S
O332 Zn324 1.906 . S
O332 C340 1.304 1_545 S
O333 Zn321 1.924 . S
O333 C341 1.311 . S
O334 Zn325 1.977 . S
O334 C340 1.272 . S
O335 Zn325 1.910 1_655 S
O335 C341 1.231 1_565 S
C336 O320 1.218 1_455 S
C336 O342 1.298 . S
C337 O326 1.226 . S
C337 O327 1.307 . S
C338 O330 1.303 . S
C338 O331 1.247 . S
C339 O328 1.253 . S
C339 O329 1.283 . S
C340 O332 1.304 1_565 S
C340 O334 1.272 . S
C341 O333 1.311 . S
C341 O335 1.231 1_545 S
O342 Zn324 1.953 . S
O342 C336 1.298 . S
O343 Zn344 1.953 . S
O343 C359 1.225 . S
Zn344 O343 1.953 . S
Zn344 O345 1.949 1_556 S
Zn344 O351 1.919 . S
Zn344 O356 1.924 1_556 S
O345 Zn344 1.949 1_554 S
O345 Zn346 1.923 1_545 S
O345 Zn347 1.950 . S
O345 Zn348 1.945 1_545 S
Zn346 O345 1.923 1_565 S
Zn346 O349 1.933 . S
Zn346 O352 1.941 1_554 S
Zn346 O353 1.965 . S
Zn347 O345 1.950 . S
Zn347 O354 1.938 . S
Zn347 O355 1.906 . S
Zn347 O365 1.953 . S
Zn348 O345 1.945 1_565 S
Zn348 O350 1.932 . S
Zn348 O357 1.977 1_565 S
Zn348 O358 1.910 1_565 S
O349 Zn346 1.933 . S
O349 C360 1.226 . S
O350 Zn348 1.932 . S
O350 C360 1.307 . S
O351 Zn344 1.919 . S
O351 C362 1.253 1_545 S
O352 Zn346 1.941 1_556 S
O352 C362 1.283 . S
O353 Zn346 1.965 . S
O353 C361 1.303 . S
O354 Zn347 1.938 . S
O354 C361 1.247 1_545 S
O355 Zn347 1.906 . S
O355 C363 1.304 . S
O356 Zn344 1.924 1_554 S
O356 C364 1.311 . S
O357 Zn348 1.977 1_545 S
O357 C363 1.272 . S
O358 Zn348 1.910 1_545 S
O358 C364 1.231 . S
C359 O343 1.225 . S
C359 O365 1.298 1_556 S
C360 O349 1.226 . S
C360 O350 1.307 . S
C361 O353 1.303 . S
C361 O354 1.247 1_565 S
C362 O351 1.253 1_565 S
C362 O352 1.283 . S
C363 O355 1.304 . S
C363 O357 1.272 . S
C364 O356 1.311 . S
C364 O358 1.231 . S
O365 Zn347 1.953 . S
O365 C359 1.298 1_554 S
O366 Zn367 1.953 . S
O366 C382 1.225 . S
Zn367 O366 1.953 . S
Zn367 O368 1.949 . S
Zn367 O374 1.919 . S
Zn367 O379 1.924 . S
O368 Zn367 1.949 . S
O368 Zn369 1.923 . S
O368 Zn370 1.950 . S
O368 Zn371 1.945 . S
Zn369 O368 1.923 . S
Zn369 O372 1.933 . S
Zn369 O375 1.941 . S
Zn369 O376 1.965 . S
Zn370 O368 1.950 . S
Zn370 O377 1.938 . S
Zn370 O378 1.906 . S
Zn370 O388 1.953 . S
Zn371 O368 1.945 . S
Zn371 O373 1.932 . S
Zn371 O380 1.977 . S
Zn371 O381 1.910 . S
O372 Zn369 1.933 . S
O372 C383 1.226 . S
O373 Zn371 1.932 . S
O373 C383 1.307 . S
O374 Zn367 1.919 . S
O374 C385 1.253 . S
O375 Zn369 1.941 . S
O375 C385 1.283 . S
O376 Zn369 1.965 . S
O376 C384 1.303 . S
O377 Zn370 1.938 . S
O377 C384 1.247 . S
O378 Zn370 1.906 . S
O378 C386 1.304 . S
O379 Zn367 1.924 . S
O379 C387 1.311 . S
O380 Zn371 1.977 . S
O380 C386 1.272 . S
O381 Zn371 1.910 . S
O381 C387 1.231 . S
C382 O366 1.225 . S
C382 O388 1.298 . S
C383 O372 1.226 . S
C383 O373 1.307 . S
C384 O376 1.303 . S
C384 O377 1.247 . S
C385 O374 1.253 . S
C385 O375 1.283 . S
C386 O378 1.304 . S
C386 O380 1.272 . S
C387 O379 1.311 . S
C387 O381 1.231 . S
O388 Zn370 1.953 . S
O388 C382 1.298 . S
O389 Zn390 1.953 . S
O389 C405 1.225 . S
Zn390 O389 1.953 . S
Zn390 O391 1.949 1_655 S
Zn390 O397 1.919 . S
Zn390 O402 1.924 . S
O391 Zn390 1.949 1_455 S
O391 Zn392 1.923 1_454 S
O391 Zn393 1.950 . S
O391 Zn394 1.945 1_554 S
Zn392 O391 1.923 1_656 S
Zn392 O395 1.933 1_655 S
Zn392 O398 1.941 . S
Zn392 O399 1.965 . S
Zn393 O391 1.950 . S
Zn393 O400 1.938 . S
Zn393 O401 1.906 . S
Zn393 O411 1.953 . S
Zn394 O391 1.945 1_556 S
Zn394 O396 1.932 . S
Zn394 O403 1.977 1_556 S
Zn394 O404 1.910 1_556 S
O395 Zn392 1.933 1_455 S
O395 C406 1.226 . S
O396 Zn394 1.932 . S
O396 C406 1.307 . S
O397 Zn390 1.919 . S
O397 C408 1.253 1_554 S
O398 Zn392 1.941 . S
O398 C408 1.283 . S
O399 Zn392 1.965 . S
O399 C407 1.303 . S
O400 Zn393 1.938 . S
O400 C407 1.247 1_454 S
O401 Zn393 1.906 . S
O401 C409 1.304 . S
O402 Zn390 1.924 . S
O402 C410 1.311 1_655 S
O403 Zn394 1.977 1_554 S
O403 C409 1.272 . S
O404 Zn394 1.910 1_554 S
O404 C410 1.231 . S
C405 O389 1.225 . S
C405 O411 1.298 1_655 S
C406 O395 1.226 . S
C406 O396 1.307 . S
C407 O399 1.303 . S
C407 O400 1.247 1_656 S
C408 O397 1.253 1_556 S
C408 O398 1.283 . S
C409 O401 1.304 . S
C409 O403 1.272 . S
C410 O402 1.311 1_455 S
C410 O404 1.231 . S
O411 Zn393 1.953 . S
O411 C405 1.298 1_455 S
H412 C418 0.930 . S
H413 C422 0.930 . S
H414 C427 0.929 . S
H415 C425 0.929 . S
H416 C420 0.929 . S
H417 C426 0.929 . S
C418 H412 0.930 . S
C418 C419 1.367 . S
C418 C426 1.378 . S
C419 C418 1.367 . S
C419 C427 1.433 . S
C420 H416 0.929 . S
C420 C422 1.378 . S
C420 C424 1.350 . S
C421 C424 1.463 . S
C421 C426 1.350 . S
C421 N429 1.427 . S
C422 H413 0.930 . S
C422 C420 1.378 . S
C422 C423 1.367 . S
C423 C422 1.367 . S
C423 C425 1.433 . S
C424 C420 1.350 . S
C424 C421 1.463 . S
C424 N428 1.427 . S
C425 H415 0.929 . S
C425 C423 1.433 . S
C425 N428 1.384 . S
C426 H417 0.929 . S
C426 C418 1.378 . S
C426 C421 1.350 . S
C427 H414 0.929 . S
C427 C419 1.433 . S
C427 N429 1.384 . S
N428 C424 1.427 . S
N428 C425 1.384 . S
N429 C421 1.427 . S
N429 C427 1.384 . S
H430 C436 0.930 . S
H431 C440 0.930 1_545 S
H432 C445 0.929 . S
H433 C443 0.929 . S
H434 C438 0.929 . S
H435 C444 0.929 . S
C436 H430 0.930 . S
C436 C437 1.367 . S
C436 C444 1.378 . S
C437 C436 1.367 . S
C437 C445 1.433 . S
C438 H434 0.929 . S
C438 C440 1.378 . S
C438 C442 1.350 . S
C439 C442 1.463 . S
C439 C444 1.350 . S
C439 N447 1.427 . S
C440 H431 0.930 1_565 S
C440 C438 1.378 . S
C440 C441 1.367 . S
C441 C440 1.367 . S
C441 C443 1.433 . S
C442 C438 1.350 . S
C442 C439 1.463 . S
C442 N446 1.427 . S
C443 H433 0.929 . S
C443 C441 1.433 . S
C443 N446 1.384 . S
C444 H435 0.929 . S
C444 C436 1.378 . S
C444 C439 1.350 . S
C445 H432 0.929 . S
C445 C437 1.433 . S
C445 N447 1.384 . S
N446 C442 1.427 . S
N446 C443 1.384 . S
N447 C439 1.427 . S
N447 C445 1.384 . S
H448 C454 0.930 . S
H449 C458 0.930 . S
H450 C463 0.929 . S
H451 C461 0.929 . S
H452 C456 0.929 . S
H453 C462 0.929 . S
C454 H448 0.930 . S
C454 C455 1.367 . S
C454 C462 1.378 . S
C455 C454 1.367 . S
C455 C463 1.433 . S
C456 H452 0.929 . S
C456 C458 1.378 . S
C456 C460 1.350 . S
C457 C460 1.463 . S
C457 C462 1.350 . S
C457 N465 1.427 . S
C458 H449 0.930 . S
C458 C456 1.378 . S
C458 C459 1.367 . S
C459 C458 1.367 . S
C459 C461 1.433 . S
C460 C456 1.350 . S
C460 C457 1.463 . S
C460 N464 1.427 . S
C461 H451 0.929 . S
C461 C459 1.433 . S
C461 N464 1.384 . S
C462 H453 0.929 . S
C462 C454 1.378 . S
C462 C457 1.350 . S
C463 H450 0.929 . S
C463 C455 1.433 . S
C463 N465 1.384 . S
N464 C460 1.427 . S
N464 C461 1.384 . S
N465 C457 1.427 . S
N465 C463 1.384 . S
H466 C472 0.930 . S
H467 C476 0.930 . S
H468 C481 0.929 . S
H469 C479 0.929 . S
H470 C474 0.929 1_455 S
H471 C480 0.929 . S
C472 H466 0.930 . S
C472 C473 1.367 . S
C472 C480 1.378 . S
C473 C472 1.367 . S
C473 C481 1.433 . S
C474 H470 0.929 1_655 S
C474 C476 1.378 1_655 S
C474 C478 1.350 . S
C475 C478 1.463 . S
C475 C480 1.350 . S
C475 N483 1.427 . S
C476 H467 0.930 . S
C476 C474 1.378 1_455 S
C476 C477 1.367 1_455 S
C477 C476 1.367 1_655 S
C477 C479 1.433 . S
C478 C474 1.350 . S
C478 C475 1.463 . S
C478 N482 1.427 . S
C479 H469 0.929 . S
C479 C477 1.433 . S
C479 N482 1.384 . S
C480 H471 0.929 . S
C480 C472 1.378 . S
C480 C475 1.350 . S
C481 H468 0.929 . S
C481 C473 1.433 . S
C481 N483 1.384 . S
N482 C478 1.427 . S
N482 C479 1.384 . S
N483 C475 1.427 . S
N483 C481 1.384 . S
H484 C490 0.930 . S
H485 C494 0.930 . S
H486 C499 0.929 . S
H487 C497 0.929 . S
H488 C492 0.929 . S
H489 C498 0.929 . S
C490 H484 0.930 . S
C490 C491 1.367 . S
C490 C498 1.378 . S
C491 C490 1.367 . S
C491 C499 1.433 . S
C492 H488 0.929 . S
C492 C494 1.378 . S
C492 C496 1.350 . S
C493 C496 1.463 . S
C493 C498 1.350 . S
C493 N501 1.427 . S
C494 H485 0.930 . S
C494 C492 1.378 . S
C494 C495 1.367 . S
C495 C494 1.367 . S
C495 C497 1.433 . S
C496 C492 1.350 . S
C496 C493 1.463 . S
C496 N500 1.427 . S
C497 H487 0.929 . S
C497 C495 1.433 . S
C497 N500 1.384 . S
C498 H489 0.929 . S
C498 C490 1.378 . S
C498 C493 1.350 . S
C499 H486 0.929 . S
C499 C491 1.433 . S
C499 N501 1.384 . S
N500 C496 1.427 . S
N500 C497 1.384 . S
N501 C493 1.427 . S
N501 C499 1.384 . S
H502 C508 0.930 . S
H503 C512 0.930 . S
H504 C517 0.929 . S
H505 C515 0.929 . S
H506 C510 0.929 . S
H507 C516 0.929 . S
C508 H502 0.930 . S
C508 C509 1.367 . S
C508 C516 1.378 . S
C509 C508 1.367 . S
C509 C517 1.433 . S
C510 H506 0.929 . S
C510 C512 1.378 . S
C510 C514 1.350 . S
C511 C514 1.463 . S
C511 C516 1.350 . S
C511 N519 1.427 . S
C512 H503 0.930 . S
C512 C510 1.378 . S
C512 C513 1.367 . S
C513 C512 1.367 . S
C513 C515 1.433 . S
C514 C510 1.350 . S
C514 C511 1.463 . S
C514 N518 1.427 . S
C515 H505 0.929 . S
C515 C513 1.433 . S
C515 N518 1.384 . S
C516 H507 0.929 . S
C516 C508 1.378 . S
C516 C511 1.350 . S
C517 H504 0.929 . S
C517 C509 1.433 . S
C517 N519 1.384 . S
N518 C514 1.427 . S
N518 C515 1.384 . S
N519 C511 1.427 . S
N519 C517 1.384 . S
H520 C526 0.930 . S
H521 C530 0.930 . S
H522 C535 0.929 . S
H523 C533 0.929 . S
H524 C528 0.929 . S
H525 C534 0.929 . S
C526 H520 0.930 . S
C526 C527 1.367 . S
C526 C534 1.378 . S
C527 C526 1.367 . S
C527 C535 1.433 . S
C528 H524 0.929 . S
C528 C530 1.378 . S
C528 C532 1.350 . S
C529 C532 1.463 . S
C529 C534 1.350 . S
C529 N537 1.427 . S
C530 H521 0.930 . S
C530 C528 1.378 . S
C530 C531 1.367 . S
C531 C530 1.367 . S
C531 C533 1.433 . S
C532 C528 1.350 . S
C532 C529 1.463 . S
C532 N536 1.427 . S
C533 H523 0.929 . S
C533 C531 1.433 . S
C533 N536 1.384 . S
C534 H525 0.929 . S
C534 C526 1.378 . S
C534 C529 1.350 . S
C535 H522 0.929 . S
C535 C527 1.433 . S
C535 N537 1.384 . S
N536 C532 1.427 . S
N536 C533 1.384 . S
N537 C529 1.427 . S
N537 C535 1.384 . S
H538 C544 0.930 . S
H539 C548 0.930 . S
H540 C553 0.929 . S
H541 C551 0.929 . S
H542 C546 0.929 . S
H543 C552 0.929 . S
C544 H538 0.930 . S
C544 C545 1.367 . S
C544 C552 1.378 . S
C545 C544 1.367 . S
C545 C553 1.433 . S
C546 H542 0.929 . S
C546 C548 1.378 . S
C546 C550 1.350 . S
C547 C550 1.463 . S
C547 C552 1.350 . S
C547 N555 1.427 . S
C548 H539 0.930 . S
C548 C546 1.378 . S
C548 C549 1.367 . S
C549 C548 1.367 . S
C549 C551 1.433 . S
C550 C546 1.350 . S
C550 C547 1.463 . S
C550 N554 1.427 . S
C551 H541 0.929 . S
C551 C549 1.433 . S
C551 N554 1.384 . S
C552 H543 0.929 . S
C552 C544 1.378 . S
C552 C547 1.350 . S
C553 H540 0.929 . S
C553 C545 1.433 . S
C553 N555 1.384 . S
N554 C550 1.427 . S
N554 C551 1.384 . S
N555 C547 1.427 . S
N555 C553 1.384 . S
H556 C562 0.930 . S
H557 C566 0.930 . S
H558 C571 0.929 . S
H559 C569 0.929 . S
H560 C564 0.929 . S
H561 C570 0.929 . S
C562 H556 0.930 . S
C562 C563 1.367 . S
C562 C570 1.378 . S
C563 C562 1.367 . S
C563 C571 1.433 . S
C564 H560 0.929 . S
C564 C566 1.378 . S
C564 C568 1.350 . S
C565 C568 1.463 . S
C565 C570 1.350 . S
C565 N573 1.427 . S
C566 H557 0.930 . S
C566 C564 1.378 . S
C566 C567 1.367 . S
C567 C566 1.367 . S
C567 C569 1.433 . S
C568 C564 1.350 . S
C568 C565 1.463 . S
C568 N572 1.427 . S
C569 H559 0.929 . S
C569 C567 1.433 . S
C569 N572 1.384 . S
C570 H561 0.929 . S
C570 C562 1.378 . S
C570 C565 1.350 . S
C571 H558 0.929 . S
C571 C563 1.433 . S
C571 N573 1.384 . S
N572 C568 1.427 . S
N572 C569 1.384 . S
N573 C565 1.427 . S
N573 C571 1.384 . S
H574 C580 0.930 . S
H575 C584 0.930 . S
H576 C589 0.929 . S
H577 C587 0.929 . S
H578 C582 0.929 . S
H579 C588 0.929 1_554 S
C580 H574 0.930 . S
C580 C581 1.367 . S
C580 C588 1.378 . S
C581 C580 1.367 . S
C581 C589 1.433 . S
C582 H578 0.929 . S
C582 C584 1.378 . S
C582 C586 1.350 . S
C583 C586 1.463 . S
C583 C588 1.350 . S
C583 N591 1.427 . S
C584 H575 0.930 . S
C584 C582 1.378 . S
C584 C585 1.367 . S
C585 C584 1.367 . S
C585 C587 1.433 1_556 S
C586 C582 1.350 . S
C586 C583 1.463 . S
C586 N590 1.426 1_556 S
C587 H577 0.929 . S
C587 C585 1.433 1_554 S
C587 N590 1.384 . S
C588 H579 0.929 1_556 S
C588 C580 1.378 . S
C588 C583 1.350 . S
C589 H576 0.929 . S
C589 C581 1.433 . S
C589 N591 1.384 . S
N590 C586 1.426 1_554 S
N590 C587 1.384 . S
N591 C583 1.427 . S
N591 C589 1.384 . S
H592 C598 0.930 . S
H593 C602 0.930 . S
H594 C607 0.929 . S
H595 C605 0.929 1_455 S
H596 C600 0.929 . S
H597 C606 0.929 . S
C598 H592 0.930 . S
C598 C599 1.367 . S
C598 C606 1.378 . S
C599 C598 1.367 . S
C599 C607 1.433 . S
C600 H596 0.929 . S
C600 C602 1.378 . S
C600 C604 1.350 . S
C601 C604 1.463 . S
C601 C606 1.350 . S
C601 N609 1.427 . S
C602 H593 0.930 . S
C602 C600 1.378 . S
C602 C603 1.367 . S
C603 C602 1.367 . S
C603 C605 1.433 . S
C604 C600 1.350 . S
C604 C601 1.463 . S
C604 N608 1.427 . S
C605 H595 0.929 1_655 S
C605 C603 1.433 . S
C605 N608 1.384 . S
C606 H597 0.929 . S
C606 C598 1.378 . S
C606 C601 1.350 . S
C607 H594 0.929 . S
C607 C599 1.433 . S
C607 N609 1.384 . S
N608 C604 1.427 . S
N608 C605 1.384 . S
N609 C601 1.427 . S
N609 C607 1.384 . S
H610 C616 0.930 . S
H611 C620 0.930 . S
H612 C625 0.929 . S
H613 C623 0.929 . S
H614 C618 0.929 . S
H615 C624 0.929 . S
C616 H610 0.930 . S
C616 C617 1.367 . S
C616 C624 1.378 . S
C617 C616 1.367 . S
C617 C625 1.433 . S
C618 H614 0.929 . S
C618 C620 1.378 . S
C618 C622 1.350 . S
C619 C622 1.463 . S
C619 C624 1.350 . S
C619 N627 1.427 . S
C620 H611 0.930 . S
C620 C618 1.378 . S
C620 C621 1.367 . S
C621 C620 1.367 . S
C621 C623 1.433 . S
C622 C618 1.350 . S
C622 C619 1.463 . S
C622 N626 1.427 . S
C623 H613 0.929 . S
C623 C621 1.433 . S
C623 N626 1.384 . S
C624 H615 0.929 . S
C624 C616 1.378 . S
C624 C619 1.350 . S
C625 H612 0.929 . S
C625 C617 1.433 . S
C625 N627 1.384 . S
N626 C622 1.427 . S
N626 C623 1.384 . S
N627 C619 1.427 . S
N627 C625 1.384 . S
H628 C634 0.930 . S
H629 C638 0.930 . S
H630 C643 0.929 . S
H631 C641 0.929 . S
H632 C636 0.929 . S
H633 C642 0.929 . S
C634 H628 0.930 . S
C634 C635 1.367 1_545 S
C634 C642 1.378 . S
C635 C634 1.367 1_565 S
C635 C643 1.433 . S
C636 H632 0.929 . S
C636 C638 1.378 . S
C636 C640 1.350 . S
C637 C640 1.463 . S
C637 C642 1.350 1_565 S
C637 N645 1.427 . S
C638 H629 0.930 . S
C638 C636 1.378 . S
C638 C639 1.367 1_565 S
C639 C638 1.367 1_545 S
C639 C641 1.433 . S
C640 C636 1.350 . S
C640 C637 1.463 . S
C640 N644 1.427 1_565 S
C641 H631 0.929 . S
C641 C639 1.433 . S
C641 N644 1.384 . S
C642 H633 0.929 . S
C642 C634 1.378 . S
C642 C637 1.350 1_545 S
C643 H630 0.929 . S
C643 C635 1.433 . S
C643 N645 1.384 . S
N644 C640 1.427 1_545 S
N644 C641 1.384 . S
N645 C637 1.427 . S
N645 C643 1.384 . S
H646 C652 0.930 . S
H647 C656 0.930 . S
H648 C661 0.929 . S
H649 C659 0.929 . S
H650 C654 0.929 . S
H651 C660 0.929 . S
C652 H646 0.930 . S
C652 C653 1.367 . S
C652 C660 1.378 . S
C653 C652 1.367 . S
C653 C661 1.433 1_545 S
C654 H650 0.929 . S
C654 C656 1.378 . S
C654 C658 1.350 1_565 S
C655 C658 1.463 . S
C655 C660 1.350 . S
C655 N663 1.427 1_545 S
C656 H647 0.930 . S
C656 C654 1.378 . S
C656 C657 1.367 1_565 S
C657 C656 1.367 1_545 S
C657 C659 1.433 . S
C658 C654 1.350 1_545 S
C658 C655 1.463 . S
C658 N662 1.427 . S
C659 H649 0.929 . S
C659 C657 1.433 . S
C659 N662 1.384 . S
C660 H651 0.929 . S
C660 C652 1.378 . S
C660 C655 1.350 . S
C661 H648 0.929 . S
C661 C653 1.433 1_565 S
C661 N663 1.384 . S
N662 C658 1.427 . S
N662 C659 1.384 . S
N663 C655 1.427 1_565 S
N663 C661 1.384 . S
H664 C670 0.930 . S
H665 C674 0.930 . S
H666 C679 0.929 . S
H667 C677 0.929 . S
H668 C672 0.929 . S
H669 C678 0.929 . S
C670 H664 0.930 . S
C670 C671 1.367 . S
C670 C678 1.378 . S
C671 C670 1.367 . S
C671 C679 1.433 . S
C672 H668 0.929 . S
C672 C674 1.378 . S
C672 C676 1.350 . S
C673 C676 1.463 . S
C673 C678 1.350 . S
C673 N681 1.427 . S
C674 H665 0.930 . S
C674 C672 1.378 . S
C674 C675 1.367 . S
C675 C674 1.367 . S
C675 C677 1.433 . S
C676 C672 1.350 . S
C676 C673 1.463 . S
C676 N680 1.427 . S
C677 H667 0.929 . S
C677 C675 1.433 . S
C677 N680 1.384 . S
C678 H669 0.929 . S
C678 C670 1.378 . S
C678 C673 1.350 . S
C679 H666 0.929 . S
C679 C671 1.433 . S
C679 N681 1.384 . S
N680 C676 1.427 . S
N680 C677 1.384 . S
N681 C673 1.427 . S
N681 C679 1.384 . S
H682 C688 0.930 . S
H683 C692 0.930 . S
H684 C697 0.929 . S
H685 C695 0.929 . S
H686 C690 0.929 . S
H687 C696 0.929 . S
C688 H682 0.930 . S
C688 C689 1.367 . S
C688 C696 1.378 . S
C689 C688 1.367 . S
C689 C697 1.433 . S
C690 H686 0.929 . S
C690 C692 1.378 . S
C690 C694 1.350 . S
C691 C694 1.463 . S
C691 C696 1.350 . S
C691 N699 1.427 . S
C692 H683 0.930 . S
C692 C690 1.378 . S
C692 C693 1.367 . S
C693 C692 1.367 . S
C693 C695 1.433 . S
C694 C690 1.350 . S
C694 C691 1.463 . S
C694 N698 1.427 . S
C695 H685 0.929 . S
C695 C693 1.433 . S
C695 N698 1.384 . S
C696 H687 0.929 . S
C696 C688 1.378 . S
C696 C691 1.350 . S
C697 H684 0.929 . S
C697 C689 1.433 . S
C697 N699 1.384 . S
N698 C694 1.427 . S
N698 C695 1.384 . S
N699 C691 1.427 . S
N699 C697 1.384 . S
H700 C706 0.930 1_554 S
H701 C710 0.930 . S
H702 C715 0.929 . S
H703 C713 0.929 . S
H704 C708 0.929 . S
H705 C714 0.907 1_554 S
C706 H700 0.930 1_556 S
C706 C707 1.367 1_545 S
C706 C714 1.382 . S
C707 C706 1.367 1_565 S
C707 C715 1.433 . S
C708 H704 0.929 . S
C708 C710 1.378 . S
C708 C712 1.350 . S
C709 C712 1.463 . S
C709 C714 1.369 1_565 S
C709 N717 1.427 . S
C710 H701 0.930 . S
C710 C708 1.378 . S
C710 C711 1.367 . S
C711 C710 1.367 . S
C711 C713 1.433 1_566 S
C712 C708 1.350 . S
C712 C709 1.463 . S
C712 N716 1.427 1_566 S
C713 H703 0.929 . S
C713 C711 1.433 1_544 S
C713 N716 1.384 . S
C714 H705 0.907 1_556 S
C714 C706 1.382 . S
C714 C709 1.369 1_545 S
C715 H702 0.929 . S
C715 C707 1.433 . S
C715 N717 1.384 . S
N716 C712 1.427 1_544 S
N716 C713 1.384 . S
N717 C709 1.427 . S
N717 C715 1.384 . S
H718 C724 0.930 1_565 S
H719 C728 0.930 . S
H720 C733 0.929 . S
H721 C731 0.945 . S
H722 C726 0.929 . S
H723 C732 0.929 1_565 S
C724 H718 0.930 1_545 S
C724 C725 1.367 . S
C724 C732 1.378 . S
C725 C724 1.367 . S
C725 C733 1.433 . S
C726 H722 0.929 . S
C726 C728 1.378 . S
C726 C730 1.350 . S
C727 C730 1.463 . S
C727 C732 1.350 . S
C727 N735 1.427 . S
C728 H719 0.930 . S
C728 C726 1.378 . S
C728 C729 1.367 . S
C729 C728 1.367 . S
C729 C731 1.418 1_545 S
C730 C726 1.350 . S
C730 C727 1.463 . S
C730 N734 1.450 . S
C731 H721 0.945 . S
C731 C729 1.418 1_565 S
C731 N734 1.382 1_565 S
C732 H723 0.929 1_545 S
C732 C724 1.378 . S
C732 C727 1.350 . S
C733 H720 0.929 . S
C733 C725 1.433 . S
C733 N735 1.384 . S
N734 C730 1.450 . S
N734 C731 1.382 1_545 S
N735 C727 1.427 . S
N735 C733 1.384 . S
H736 C742 0.930 . S
H737 C746 0.930 . S
H738 C751 0.929 . S
H739 C749 0.929 1_556 S
H740 C744 0.929 . S
H741 C750 0.929 . S
C742 H736 0.930 . S
C742 C743 1.367 . S
C742 C750 1.378 . S
C743 C742 1.367 . S
C743 C751 1.433 . S
C744 H740 0.929 . S
C744 C746 1.378 . S
C744 C748 1.350 . S
C745 C748 1.463 . S
C745 C750 1.350 . S
C745 N753 1.427 . S
C746 H737 0.930 . S
C746 C744 1.378 . S
C746 C747 1.367 . S
C747 C746 1.367 . S
C747 C749 1.433 . S
C748 C744 1.350 . S
C748 C745 1.463 . S
C748 N752 1.427 . S
C749 H739 0.929 1_554 S
C749 C747 1.433 . S
C749 N752 1.384 . S
C750 H741 0.929 . S
C750 C742 1.378 . S
C750 C745 1.350 . S
C751 H738 0.929 . S
C751 C743 1.433 . S
C751 N753 1.384 . S
N752 C748 1.427 . S
N752 C749 1.384 . S
N753 C745 1.427 . S
N753 C751 1.384 . S
H754 C760 0.930 . S
H755 C764 0.930 . S
H756 C769 0.929 . S
H757 C767 0.929 . S
H758 C762 0.929 . S
H759 C768 0.929 . S
C760 H754 0.930 . S
C760 C761 1.367 . S
C760 C768 1.378 . S
C761 C760 1.367 . S
C761 C769 1.433 . S
C762 H758 0.929 . S
C762 C764 1.378 . S
C762 C766 1.350 . S
C763 C766 1.463 . S
C763 C768 1.350 . S
C763 N771 1.427 . S
C764 H755 0.930 . S
C764 C762 1.378 . S
C764 C765 1.367 . S
C765 C764 1.367 . S
C765 C767 1.433 . S
C766 C762 1.350 . S
C766 C763 1.463 . S
C766 N770 1.427 . S
C767 H757 0.929 . S
C767 C765 1.433 . S
C767 N770 1.384 . S
C768 H759 0.929 . S
C768 C760 1.378 . S
C768 C763 1.350 . S
C769 H756 0.929 . S
C769 C761 1.433 . S
C769 N771 1.384 . S
N770 C766 1.427 . S
N770 C767 1.384 . S
N771 C763 1.427 . S
N771 C769 1.384 . S
H772 C778 0.930 . S
H773 C782 0.930 . S
H774 C787 0.929 . S
H775 C785 0.929 . S
H776 C780 0.929 . S
H777 C786 0.929 . S
C778 H772 0.930 . S
C778 C779 1.367 . S
C778 C786 1.378 . S
C779 C778 1.367 . S
C779 C787 1.433 1_556 S
C780 H776 0.929 . S
C780 C782 1.378 . S
C780 C784 1.350 1_554 S
C781 C784 1.463 . S
C781 C786 1.350 . S
C781 N789 1.427 1_556 S
C782 H773 0.930 . S
C782 C780 1.378 . S
C782 C783 1.367 1_554 S
C783 C782 1.367 1_556 S
C783 C785 1.433 . S
C784 C780 1.350 1_556 S
C784 C781 1.463 . S
C784 N788 1.427 . S
C785 H775 0.929 . S
C785 C783 1.433 . S
C785 N788 1.384 . S
C786 H777 0.929 . S
C786 C778 1.378 . S
C786 C781 1.350 . S
C787 H774 0.929 . S
C787 C779 1.433 1_554 S
C787 N789 1.384 . S
N788 C784 1.427 . S
N788 C785 1.384 . S
N789 C781 1.427 1_554 S
N789 C787 1.384 . S
H790 C796 0.930 . S
H791 C800 0.930 . S
H792 C805 0.929 . S
H793 C803 0.929 . S
H794 C798 0.929 . S
H795 C804 0.929 . S
C796 H790 0.930 . S
C796 C797 1.367 . S
C796 C804 1.378 . S
C797 C796 1.367 . S
C797 C805 1.433 . S
C798 H794 0.929 . S
C798 C800 1.378 . S
C798 C802 1.350 . S
C799 C802 1.463 . S
C799 C804 1.350 . S
C799 N807 1.427 . S
C800 H791 0.930 . S
C800 C798 1.378 . S
C800 C801 1.367 . S
C801 C800 1.367 . S
C801 C803 1.433 . S
C802 C798 1.350 . S
C802 C799 1.463 . S
C802 N806 1.427 . S
C803 H793 0.929 . S
C803 C801 1.433 . S
C803 N806 1.384 . S
C804 H795 0.929 . S
C804 C796 1.378 . S
C804 C799 1.350 . S
C805 H792 0.929 . S
C805 C797 1.433 . S
C805 N807 1.384 . S
N806 C802 1.427 . S
N806 C803 1.384 . S
N807 C799 1.427 . S
N807 C805 1.384 . S
H808 C814 0.930 . S
H809 C818 0.930 . S
H810 C823 0.929 . S
H811 C821 0.929 . S
H812 C816 0.929 . S
H813 C822 0.929 . S
C814 H808 0.930 . S
C814 C815 1.367 . S
C814 C822 1.378 . S
C815 C814 1.367 . S
C815 C823 1.433 . S
C816 H812 0.929 . S
C816 C818 1.378 . S
C816 C820 1.350 . S
C817 C820 1.463 . S
C817 C822 1.350 . S
C817 N825 1.427 . S
C818 H809 0.930 . S
C818 C816 1.378 . S
C818 C819 1.367 . S
C819 C818 1.367 . S
C819 C821 1.433 . S
C820 C816 1.350 . S
C820 C817 1.463 . S
C820 N824 1.427 . S
C821 H811 0.929 . S
C821 C819 1.433 . S
C821 N824 1.384 . S
C822 H813 0.929 . S
C822 C814 1.378 . S
C822 C817 1.350 . S
C823 H810 0.929 . S
C823 C815 1.433 . S
C823 N825 1.384 . S
N824 C820 1.427 . S
N824 C821 1.384 . S
N825 C817 1.427 . S
N825 C823 1.384 . S
H826 C832 0.930 . S
H827 C836 0.930 . S
H828 C841 0.929 . S
H829 C839 0.929 . S
H830 C834 0.929 . S
H831 C840 0.929 . S
C832 H826 0.930 . S
C832 C833 1.367 . S
C832 C840 1.378 . S
C833 C832 1.367 . S
C833 C841 1.433 . S
C834 H830 0.929 . S
C834 C836 1.378 . S
C834 C838 1.350 . S
C835 C838 1.463 . S
C835 C840 1.350 . S
C835 N843 1.427 . S
C836 H827 0.930 . S
C836 C834 1.378 . S
C836 C837 1.367 . S
C837 C836 1.367 . S
C837 C839 1.433 . S
C838 C834 1.350 . S
C838 C835 1.463 . S
C838 N842 1.427 . S
C839 H829 0.929 . S
C839 C837 1.433 . S
C839 N842 1.384 . S
C840 H831 0.929 . S
C840 C832 1.378 . S
C840 C835 1.350 . S
C841 H828 0.929 . S
C841 C833 1.433 . S
C841 N843 1.384 . S
N842 C838 1.427 . S
N842 C839 1.384 . S
N843 C835 1.427 . S
N843 C841 1.384 . S
C419 C21 1.663 . S
C423 C338 1.642 . S
C437 C61 1.600 . S
C441 C362 1.602 . S
C459 C382 1.417 . S
C455 C82 1.415 . S
C473 C135 1.471 . S
C477 C405 1.490 . S
C495 C364 1.681 . S
C491 C15 1.726 . S
C513 C340 1.695 . S
C509 C42 1.705 . S
C531 C408 1.626 . S
C527 C101 1.694 . S
C549 C385 1.576 . S
C545 C122 1.633 . S
C563 C2 1.439 . S
C567 C410 1.391 . S
C585 C359 1.648 . S
C581 C95 1.634 . S
C599 C141 1.703 . S
C603 C337 1.702 . S
C617 C55 1.382 . S
C621 C387 1.350 . S
C639 C341 1.820 . S
C635 C181 1.717 . S
C653 C202 1.639 . S
C657 C363 1.740 . S
C671 C255 1.831 . S
C675 C383 1.867 . S
C689 C295 1.839 . S
C693 C406 1.872 . S
C707 C175 1.673 . S
C711 C361 1.672 1_556 S
C729 C339 1.744 . S
C725 C221 1.635 . S
C747 C409 1.522 . S
C743 C242 1.489 . S
C765 C386 1.621 . S
C761 C301 1.665 . S
C779 C162 1.913 . S
C783 C407 1.973 . S
C801 C360 1.655 . S
C797 C261 1.562 . S
C819 C336 1.681 . S
C815 C282 1.680 . S
C833 C215 1.993 . S
C837 C384 1.981 . S
