# Generated by pormake.
# Topology csq, (4,8)-cn, num edge types: 1
# Building blocks:
#     Node 0, Type 0, BuildingBlock: NAWXER_clean_sbu_0, # of connection points: 4
#     Node 1, Type 0, BuildingBlock: NAWXER_clean_sbu_0, # of connection points: 4
#     Node 2, Type 0, BuildingBlock: NAWXER_clean_sbu_0, # of connection points: 4
#     Node 3, Type 0, BuildingBlock: NAWXER_clean_sbu_0, # of connection points: 4
#     Node 4, Type 0, BuildingBlock: NAWXER_clean_sbu_0, # of connection points: 4
#     Node 5, Type 0, BuildingBlock: NAWXER_clean_sbu_0, # of connection points: 4
#     Node 6, Type 1, BuildingBlock: TAGTUT_clean_sbu_3, # of connection points: 8
#     Node 7, Type 1, BuildingBlock: TAGTUT_clean_sbu_3, # of connection points: 8
#     Node 8, Type 1, BuildingBlock: TAGTUT_clean_sbu_3, # of connection points: 8
#     Edge 9, Type (0, 1), BuildingBlock: OJICUG_clean_linker_0, # of connection points: 2
#     Edge 10, Type (0, 1), BuildingBlock: OJICUG_clean_linker_0, # of connection points: 2
#     Edge 11, Type (0, 1), BuildingBlock: OJICUG_clean_linker_0, # of connection points: 2
#     Edge 12, Type (0, 1), BuildingBlock: OJICUG_clean_linker_0, # of connection points: 2
#     Edge 13, Type (0, 1), BuildingBlock: OJICUG_clean_linker_0, # of connection points: 2
#     Edge 14, Type (0, 1), BuildingBlock: OJICUG_clean_linker_0, # of connection points: 2
#     Edge 15, Type (0, 1), BuildingBlock: OJICUG_clean_linker_0, # of connection points: 2
#     Edge 16, Type (0, 1), BuildingBlock: OJICUG_clean_linker_0, # of connection points: 2
#     Edge 17, Type (0, 1), BuildingBlock: OJICUG_clean_linker_0, # of connection points: 2
#     Edge 18, Type (0, 1), BuildingBlock: OJICUG_clean_linker_0, # of connection points: 2
#     Edge 19, Type (0, 1), BuildingBlock: OJICUG_clean_linker_0, # of connection points: 2
#     Edge 20, Type (0, 1), BuildingBlock: OJICUG_clean_linker_0, # of connection points: 2
#     Edge 21, Type (0, 1), BuildingBlock: OJICUG_clean_linker_0, # of connection points: 2
#     Edge 22, Type (0, 1), BuildingBlock: OJICUG_clean_linker_0, # of connection points: 2
#     Edge 23, Type (0, 1), BuildingBlock: OJICUG_clean_linker_0, # of connection points: 2
#     Edge 24, Type (0, 1), BuildingBlock: OJICUG_clean_linker_0, # of connection points: 2
#     Edge 25, Type (0, 1), BuildingBlock: OJICUG_clean_linker_0, # of connection points: 2
#     Edge 26, Type (0, 1), BuildingBlock: OJICUG_clean_linker_0, # of connection points: 2
#     Edge 27, Type (0, 1), BuildingBlock: OJICUG_clean_linker_0, # of connection points: 2
#     Edge 28, Type (0, 1), BuildingBlock: OJICUG_clean_linker_0, # of connection points: 2
#     Edge 29, Type (0, 1), BuildingBlock: OJICUG_clean_linker_0, # of connection points: 2
#     Edge 30, Type (0, 1), BuildingBlock: OJICUG_clean_linker_0, # of connection points: 2
#     Edge 31, Type (0, 1), BuildingBlock: OJICUG_clean_linker_0, # of connection points: 2
#     Edge 32, Type (0, 1), BuildingBlock: OJICUG_clean_linker_0, # of connection points: 2
# Relax obj value: 0.043
# Max RMSD: 0.112
# Mean RMSD: 0.074
data_MOF--net-csq--node1-NAWXER_clean_sbu_0--node2-TAGTUT_clean_sbu_3--edge1-OJICUG_clean_linker_0
_symmetry_space_group_name_H-M    P1
_symmetry_Int_Tables_number       1
_symmetry_cell_setting            triclinic
loop_
_symmetry_equiv_pos_as_xyz
'x, y, z'
_cell_length_a     37.40907
_cell_length_b     36.858224
_cell_length_c     14.457987
_cell_angle_alpha  92.948334
_cell_angle_beta   92.582976
_cell_angle_gamma 119.80782
loop_
_atom_site_label
_atom_site_type_symbol
_atom_site_fract_x
_atom_site_fract_y
_atom_site_fract_z
_atom_type_partial_charge
C0 C 0.31082 0.50001 0.10254 0.0
C1 C 0.19535 0.49009 0.26625 0.0
O2 O 0.30321 0.52977 0.11758 0.0
Zn3 Zn 0.25249 0.49668 0.17762 0.0
O4 O 0.28456 0.46266 0.1203 0.0
Zn5 Zn 0.22791 0.43033 0.18424 0.0
O6 O 0.18726 0.3914 0.08699 0.0
O7 O 0.20826 0.45766 0.06487 0.0
O8 O 0.19441 0.45514 0.2501 0.0
O9 O 0.22484 0.52343 0.23942 0.0
O10 O 0.27819 0.47895 0.29055 0.0
O11 O 0.24689 0.40978 0.28563 0.0
C12 C 0.18541 0.41845 0.03901 0.0
C13 C 0.27476 0.44563 0.32234 0.0
C14 C 0.69644 0.19376 0.04151 0.0
C15 C 0.81265 0.29235 0.2665 0.0
O16 O 0.72894 0.19062 0.04382 0.0
Zn17 Zn 0.78738 0.21513 0.11512 0.0
O18 O 0.69494 0.221 0.09678 0.0
Zn19 Zn 0.75155 0.24396 0.15893 0.0
O20 O 0.79119 0.27255 0.05025 0.0
O21 O 0.82206 0.23628 0.0145 0.0
O22 O 0.77735 0.2898 0.25917 0.0
O23 O 0.81877 0.2663 0.21762 0.0
O24 O 0.78075 0.16622 0.1743 0.0
O25 O 0.74218 0.19133 0.22806 0.0
C26 C 0.81621 0.26695 0.00183 0.0
C27 C 0.75401 0.16425 0.22814 0.0
C28 C 0.55323 0.81146 0.21112 0.0
C29 C 0.56325 0.73886 0.92556 0.0
O30 O 0.58666 0.81783 0.17777 0.0
Zn31 Zn 0.56114 0.77757 0.06801 0.0
O32 O 0.51851 0.78527 0.16691 0.0
Zn33 Zn 0.49472 0.74271 0.04434 0.0
O34 O 0.46307 0.68873 0.09711 0.0
O35 O 0.53043 0.72089 0.13477 0.0
O36 O 0.5263 0.72857 0.94303 0.0
O37 O 0.5934 0.76558 0.98124 0.0
O38 O 0.53564 0.80663 0.98457 0.0
O39 O 0.46772 0.76612 0.97201 0.0
C40 C 0.49396 0.69021 0.14168 0.0
C41 C 0.49991 0.79927 0.95293 0.0
C42 C 0.82371 0.52008 0.9425 0.0
C43 C 0.73309 0.52474 0.17766 0.0
O44 O 0.8257 0.55527 0.96238 0.0
Zn45 Zn 0.80218 0.58467 0.04921 0.0
O46 O 0.79771 0.48773 0.98045 0.0
Zn47 Zn 0.77617 0.51713 0.06011 0.0
O48 O 0.74309 0.53346 0.96573 0.0
O49 O 0.77473 0.60247 0.96249 0.0
O50 O 0.73382 0.49171 0.14968 0.0
O51 O 0.75774 0.55971 0.1465 0.0
O52 O 0.85249 0.62427 0.12366 0.0
O53 O 0.83145 0.55737 0.14226 0.0
C54 C 0.74443 0.56615 0.93607 0.0
C55 C 0.85807 0.59635 0.15895 0.0
C56 C 0.19984 0.75998 0.26466 0.0
C57 C 0.24289 0.84385 0.99302 0.0
O58 O 0.19002 0.78698 0.24167 0.0
Zn59 Zn 0.22037 0.80334 0.1301 0.0
O60 O 0.22411 0.75349 0.21539 0.0
Zn61 Zn 0.25774 0.77607 0.09484 0.0
O62 O 0.31526 0.80296 0.14571 0.0
O63 O 0.2827 0.83678 0.18645 0.0
O64 O 0.25836 0.81997 0.00266 0.0
O65 O 0.21912 0.84486 0.05219 0.0
O66 O 0.18968 0.74641 0.04114 0.0
O67 O 0.23491 0.72611 0.01103 0.0
C68 C 0.31565 0.83428 0.18798 0.0
C69 C 0.19851 0.72048 0.00042 0.0
C70 C 0.42831 0.26361 0.36225 0.0
C71 C 0.44719 0.18346 0.1099 0.0
O72 O 0.46595 0.27598 0.34733 0.0
Zn73 Zn 0.50089 0.26251 0.25608 0.0
O74 O 0.39911 0.23407 0.30938 0.0
Zn75 Zn 0.43408 0.22235 0.23176 0.0
O76 O 0.46341 0.20077 0.32673 0.0
O77 O 0.53083 0.24482 0.33948 0.0
O78 O 0.41214 0.17683 0.13355 0.0
O79 O 0.4805 0.21373 0.15058 0.0
O80 O 0.52696 0.31223 0.18361 0.0
O81 O 0.45974 0.27405 0.1492 0.0
C82 C 0.4997 0.21116 0.36111 0.0
C83 C 0.49463 0.30559 0.1351 0.0
C84 C 0.06819 0.47798 0.49253 0.0
C85 C 0.05733 0.41059 0.80751 0.0
C86 C 0.93556 0.3962 0.79872 0.0
Mg87 Mg 0.02942 0.53432 0.42425 0.0
Mg88 Mg 0.01629 0.59323 0.58131 0.0
O89 O 1.00179 0.53852 0.53627 0.0
Mg90 Mg 0.01502 0.50538 0.62182 0.0
O91 O 0.02952 0.47098 0.69989 0.0
Mg92 Mg 0.99966 0.41509 0.62623 0.0
Mg93 Mg 0.02176 0.4712 0.82676 0.0
C94 C 0.96119 0.53872 0.73781 0.0
O95 O 0.06437 0.56308 0.71407 0.0
O96 O 0.99459 0.5645 0.35148 0.0
O97 O 0.05411 0.53895 0.85695 0.0
O98 O 0.08506 0.60121 0.45009 0.0
O99 O 0.98665 0.60349 0.46538 0.0
O100 O 0.08078 0.63902 0.56959 0.0
O101 O 0.9658 0.44383 0.54073 0.0
O102 O 0.97362 0.46695 0.39886 0.0
C103 C 0.95536 0.43778 0.45325 0.0
C104 C 0.98194 0.58964 0.38016 0.0
O105 O 0.96722 0.50786 0.71665 0.0
O106 O 0.04042 0.39768 0.72376 0.0
O107 O 0.98144 0.57449 0.70377 0.0
O108 O 0.94766 0.38687 0.7247 0.0
O109 O 0.05363 0.43791 0.85814 0.0
O110 O 0.95762 0.43131 0.84639 0.0
O111 O 0.06076 0.50715 0.51809 0.0
O112 O 0.05027 0.44254 0.52711 0.0
C113 C 0.10011 0.63532 0.50238 0.0
C114 C 0.07112 0.56869 0.80309 0.0
C115 C 0.50312 0.06945 0.49803 0.0
C116 C 0.62869 0.04682 0.43122 0.0
C117 C 0.5508 0.92276 0.4934 0.0
Mg118 Mg 0.42576 0.01801 0.63234 0.0
Mg119 Mg 0.44823 0.98748 0.82336 0.0
O120 O 0.4464 0.9837 0.69445 0.0
Mg121 Mg 0.49969 0.00144 0.63716 0.0
O122 O 0.55054 0.01841 0.56916 0.0
Mg123 Mg 0.52495 0.9955 0.44001 0.0
Mg124 Mg 0.5916 0.00673 0.61179 0.0
C125 C 0.49126 0.93366 0.78948 0.0
O126 O 0.54422 0.04647 0.76145 0.0
O127 O 0.36254 0.97596 0.70035 0.0
O128 O 0.60021 0.03851 0.74976 0.0
O129 O 0.4444 0.06537 0.75951 0.0
O130 O 0.38356 0.96041 0.83386 0.0
O131 O 0.47608 0.05143 0.87483 0.0
O132 O 0.46208 0.96069 0.50528 0.0
O133 O 0.40819 0.97121 0.50646 0.0
C134 C 0.42765 0.95476 0.46848 0.0
C135 C 0.3552 0.95884 0.77822 0.0
O136 O 0.50205 0.94701 0.70892 0.0
O137 O 0.59191 0.03219 0.39243 0.0
O138 O 0.47461 0.94822 0.84459 0.0
O139 O 0.53321 0.93848 0.44555 0.0
O140 O 0.63563 0.04214 0.51603 0.0
O141 O 0.57353 0.94197 0.5683 0.0
O142 O 0.4921 0.0541 0.57636 0.0
O143 O 0.51747 0.05365 0.43958 0.0
C144 C 0.46347 0.07455 0.84016 0.0
C145 C 0.58101 0.05514 0.78972 0.0
C146 C 0.55199 0.60198 0.73067 0.0
C147 C 0.44503 0.49986 0.94623 0.0
C148 C 0.4891 0.41569 0.86915 0.0
Mg149 Mg 0.57609 0.57755 0.53189 0.0
Mg150 Mg 0.50922 0.49338 0.39884 0.0
O151 O 0.53777 0.5156 0.51701 0.0
Mg152 Mg 0.50858 0.50674 0.63214 0.0
O153 O 0.48259 0.50007 0.75081 0.0
Mg154 Mg 0.53132 0.52023 0.84448 0.0
Mg155 Mg 0.4376 0.44661 0.76541 0.0
C156 C 0.4619 0.41451 0.5175 0.0
O157 O 0.44646 0.49346 0.55963 0.0
O158 O 0.61024 0.56365 0.41449 0.0
O159 O 0.40111 0.43916 0.63586 0.0
O160 O 0.53697 0.59007 0.42723 0.0
O161 O 0.56393 0.5023 0.3356 0.0
O162 O 0.48729 0.53346 0.34475 0.0
O163 O 0.56702 0.51702 0.71864 0.0
O164 O 0.61402 0.56661 0.6386 0.0
C165 C 0.60466 0.54361 0.70637 0.0
C166 C 0.60107 0.53279 0.35368 0.0
O167 O 0.48049 0.43529 0.59585 0.0
O168 O 0.48484 0.52122 0.94811 0.0
O169 O 0.46593 0.4318 0.4407 0.0
O170 O 0.51563 0.4546 0.88508 0.0
O171 O 0.42217 0.47008 0.88428 0.0
O172 O 0.45678 0.40348 0.81406 0.0
O173 O 0.53704 0.5794 0.65306 0.0
O174 O 0.54999 0.58545 0.80705 0.0
C175 C 0.50616 0.57292 0.36662 0.0
C176 C 0.40951 0.4636 0.56978 0.0
C177 C 0.12485 0.45125 0.31921 0.0
C178 C 0.1612 0.48985 0.31457 0.0
H179 H 0.06692 0.41773 0.37702 0.0
C180 C 0.16448 0.52628 0.35966 0.0
H181 H 0.12073 0.42269 0.28349 0.0
C182 C 0.13295 0.52337 0.41378 0.0
C183 C 0.09804 0.48401 0.42315 0.0
H184 H 0.192 0.55652 0.35649 0.0
H185 H 0.1369 0.55136 0.45196 0.0
C186 C 0.0938 0.44838 0.37267 0.0
C187 C 0.73463 0.12999 0.37421 0.0
C188 C 0.72945 0.12715 0.27715 0.0
H189 H 0.70665 0.10608 0.49951 0.0
C190 C 0.69283 0.09474 0.23036 0.0
H191 H 0.76216 0.15567 0.41141 0.0
C192 C 0.66046 0.06731 0.28034 0.0
C193 C 0.66453 0.07168 0.37786 0.0
H194 H 0.68787 0.09297 0.15541 0.0
H195 H 0.63165 0.04397 0.24277 0.0
C196 C 0.7026 0.102 0.42431 0.0
C197 C 0.46467 0.61549 0.18166 0.0
C198 C 0.48937 0.65874 0.20608 0.0
H199 H 0.45053 0.55358 0.21366 0.0
C200 C 0.51448 0.67266 0.28969 0.0
H201 H 0.44503 0.60438 0.11763 0.0
C202 C 0.51728 0.64421 0.34472 0.0
C203 C 0.49562 0.60099 0.31671 0.0
H204 H 0.53337 0.7059 0.31084 0.0
H205 H 0.53826 0.65655 0.40703 0.0
C206 C 0.46794 0.58666 0.23642 0.0
C207 C 0.91727 0.58518 0.1689 0.0
C208 C 0.89765 0.60623 0.20508 0.0
H209 H 0.95986 0.56362 0.19581 0.0
C210 C 0.91099 0.62799 0.29294 0.0
H211 H 0.90717 0.56822 0.10061 0.0
C212 C 0.94107 0.62522 0.34786 0.0
C213 C 0.95773 0.60038 0.31532 0.0
H214 H 0.89588 0.64407 0.32187 0.0
H215 H 0.9491 0.64018 0.41799 0.0
C216 C 0.94719 0.58233 0.22349 0.0
C217 C 0.35715 0.90802 0.25204 0.0
C218 C 0.3527 0.86789 0.24224 0.0
H219 H 0.38534 0.96741 0.331 0.0
C220 C 0.37966 0.85948 0.29573 0.0
H221 H 0.33729 0.91557 0.21033 0.0
C222 C 0.40761 0.88959 0.36529 0.0
C223 C 0.40845 0.92797 0.3814 0.0
H224 H 0.3768 0.82872 0.28911 0.0
H225 H 0.42584 0.88152 0.41114 0.0
C226 C 0.38467 0.93772 0.32099 0.0
C227 C 0.39714 0.30717 0.40141 0.0
C228 C 0.42106 0.28966 0.43042 0.0
H229 H 0.39157 0.36226 0.40916 0.0
C230 C 0.44882 0.30809 0.51018 0.0
H231 H 0.37558 0.29353 0.34015 0.0
C232 C 0.45783 0.34731 0.55019 0.0
C233 C 0.43949 0.3684 0.50951 0.0
H234 H 0.4674 0.29482 0.53398 0.0
H235 H 0.48307 0.36331 0.60384 0.0
C236 C 0.40657 0.34666 0.44051 0.0
C237 C 0.45969 0.83191 0.89456 0.0
C238 C 0.4966 0.83078 0.89964 0.0
H239 H 0.42958 0.86583 0.8556 0.0
C240 C 0.53115 0.86189 0.85914 0.0
H241 H 0.43261 0.80849 0.92491 0.0
C242 C 0.52917 0.89448 0.81764 0.0
C243 C 0.49292 0.89677 0.81818 0.0
H244 H 0.55998 0.86158 0.8615 0.0
H245 H 0.5564 0.91885 0.78962 0.0
C246 C 0.45803 0.8648 0.85513 0.0
C247 C 0.71094 0.59379 0.83025 0.0
C248 C 0.70846 0.56089 0.87882 0.0
H249 H 0.67954 0.61405 0.73826 0.0
C250 C 0.67054 0.52287 0.87554 0.0
H251 H 0.73956 0.6235 0.83256 0.0
C252 C 0.6359 0.51755 0.82268 0.0
C253 C 0.63892 0.54996 0.77136 0.0
H254 H 0.66752 0.49715 0.91397 0.0
H255 H 0.6073 0.48779 0.81969 0.0
C256 C 0.67653 0.5883 0.77658 0.0
C257 C 0.17335 0.66738 0.86331 0.0
C258 C 0.1655 0.68325 0.94543 0.0
H259 H 0.14839 0.61894 0.75088 0.0
C260 C 0.12555 0.66305 0.97602 0.0
H261 H 0.20391 0.68276 0.83826 0.0
C262 C 0.09432 0.62634 0.92766 0.0
C263 C 0.10223 0.61013 0.84628 0.0
H264 H 0.11885 0.67478 0.03929 0.0
H265 H 0.06415 0.61022 0.95454 0.0
C266 C 0.14164 0.63134 0.81308 0.0
C267 C 0.42224 0.13707 0.96177 0.0
C268 C 0.45127 0.15637 0.03843 0.0
H269 H 0.40452 0.09708 0.83588 0.0
C270 C 0.48618 0.15135 0.04548 0.0
H271 H 0.39542 0.14096 0.95456 0.0
C272 C 0.49137 0.12627 0.97845 0.0
C273 C 0.46219 0.10655 0.90218 0.0
H274 H 0.50909 0.16605 0.10422 0.0
H275 H 0.5177 0.12162 0.9872 0.0
C276 C 0.42794 0.11268 0.89339 0.0
C277 C 0.37389 0.53744 0.01419 0.0
C278 C 0.35149 0.50784 0.07643 0.0
H279 H 0.42371 0.55906 0.92522 0.0
C280 C 0.36698 0.4829 0.11104 0.0
H281 H 0.36269 0.55715 0.98715 0.0
C282 C 0.40207 0.48464 0.0775 0.0
C283 C 0.42249 0.51161 0.00949 0.0
H284 H 0.35072 0.46039 0.16078 0.0
H285 H 0.41115 0.46243 0.09891 0.0
C286 C 0.40907 0.539 0.98014 0.0
C287 C 0.8509 0.34071 0.95826 0.0
C288 C 0.84135 0.29887 0.93937 0.0
H289 H 0.88853 0.40471 0.9284 0.0
C290 C 0.85886 0.28886 0.86571 0.0
H291 H 0.83783 0.34931 0.01489 0.0
C292 C 0.88708 0.32044 0.8148 0.0
C293 C 0.89911 0.36274 0.8383 0.0
H294 H 0.85174 0.25682 0.84936 0.0
H295 H 0.90143 0.3119 0.76096 0.0
C296 C 0.87991 0.37246 0.90884 0.0
C297 C 0.87978 0.55719 0.83926 0.0
C298 C 0.8558 0.52073 0.88421 0.0
H299 H 0.93148 0.59183 0.7624 0.0
C300 C 0.86675 0.48926 0.88122 0.0
H301 H 0.87249 0.58221 0.83928 0.0
C302 C 0.90141 0.4948 0.83509 0.0
C303 C 0.92592 0.53215 0.79269 0.0
H304 H 0.84925 0.46098 0.91599 0.0
H305 H 0.90907 0.47008 0.83302 0.0
C306 C 0.91425 0.56296 0.7954 0.0
C307 C 0.26586 0.86005 0.83396 0.0
C308 C 0.25773 0.87328 0.91946 0.0
H309 H 0.3023 0.87829 0.71685 0.0
C310 C 0.27318 0.91631 0.94139 0.0
H311 H 0.2544 0.82702 0.81558 0.0
C312 C 0.301 0.94572 0.88498 0.0
C313 C 0.31288 0.93242 0.80501 0.0
H314 H 0.26781 0.92737 0.00733 0.0
H315 H 0.31682 0.97868 0.90957 0.0
C316 C 0.29292 0.88941 0.77674 0.0
C317 C 0.53012 0.37285 0.05496 0.0
C318 C 0.49589 0.33278 0.06101 0.0
H319 H 0.55512 0.43032 0.98881 0.0
C320 C 0.46136 0.31869 0.99625 0.0
H321 H 0.55728 0.38461 0.10319 0.0
C322 C 0.46018 0.34457 0.93009 0.0
C323 C 0.49341 0.3855 0.92707 0.0
H324 H 0.43459 0.28774 -0.00226 0.0
H325 H 0.43242 0.33304 0.88398 0.0
C326 C 0.52883 0.39897 0.989 0.0
C327 C 0.16159 0.42917 0.88449 0.0
C328 C 0.15296 0.4058 0.96238 0.0
H329 H 0.13687 0.44692 0.77012 0.0
C330 C 0.11165 0.37661 0.97556 0.0
H331 H 0.19316 0.45213 0.87336 0.0
C332 C 0.07938 0.37433 0.91758 0.0
C333 C 0.08812 0.40011 0.84392 0.0
H334 H 0.10418 0.35877 0.03605 0.0
H335 H 0.04779 0.35507 0.93488 0.0
C336 C 0.12941 0.42596 0.82509 0.0
C337 C 0.67349 0.15681 0.88585 0.0
C338 C 0.66234 0.16467 0.9727 0.0
H339 H 0.65679 0.11606 0.76235 0.0
C340 C 0.62187 0.13803 -0.0029 0.0
H341 H 0.70439 0.17678 0.86511 0.0
C342 C 0.59401 0.10255 0.93704 0.0
C343 C 0.60695 0.09316 0.85365 0.0
H344 H 0.61276 0.14305 0.06445 0.0
H345 H 0.56343 0.08151 0.95776 0.0
C346 C 0.64638 0.12156 0.82763 0.0
C347 C 0.53639 0.69173 0.77848 0.0
C348 C 0.56891 0.71478 0.84806 0.0
H349 H 0.50652 0.63757 0.6803 0.0
C350 C 0.60242 0.70764 0.85293 0.0
H351 H 0.51043 0.69705 0.77198 0.0
C352 C 0.60018 0.67368 0.79966 0.0
C353 C 0.56464 0.64675 0.74054 0.0
H354 H 0.62801 0.72502 0.90519 0.0
H355 H 0.62378 0.66533 0.81355 0.0
C356 C 0.5344 0.65803 0.72459 0.0
C357 C 0.53832 0.17431 0.40137 0.0
C358 C 0.50455 0.18022 0.41357 0.0
H359 H 0.56373 0.13404 0.4175 0.0
C360 C 0.47201 0.15154 0.46313 0.0
H361 H 0.56355 0.19552 0.36268 0.0
C362 C 0.47236 0.11655 0.49598 0.0
C363 C 0.50468 0.10907 0.47723 0.0
H364 H 0.44546 0.1553 0.4732 0.0
H365 H 0.44634 0.09418 0.53103 0.0
C366 C 0.53813 0.13883 0.43185 0.0
C367 C 0.34622 0.48755 0.39863 0.0
C368 C 0.30788 0.44994 0.3898 0.0
H369 H 0.40837 0.52094 0.46011 0.0
C370 C 0.30341 0.41635 0.43937 0.0
H371 H 0.35109 0.51385 0.36 0.0
C372 C 0.33649 0.42062 0.49765 0.0
C373 C 0.37487 0.45823 0.50582 0.0
H374 H 0.27445 0.38687 0.43304 0.0
H375 H 0.33212 0.39432 0.53565 0.0
C376 C 0.37936 0.49151 0.45522 0.0
C377 C 0.84578 0.34643 0.40468 0.0
C378 C 0.84885 0.32804 0.32005 0.0
H379 H 0.87809 0.39506 0.51609 0.0
C380 C 0.88771 0.34442 0.28383 0.0
H381 H 0.81625 0.33435 0.43413 0.0
C382 C 0.92246 0.37925 0.3291 0.0
C383 C 0.91956 0.39782 0.41324 0.0
H384 H 0.89104 0.33115 0.21835 0.0
H385 H 0.95161 0.3921 0.29757 0.0
C386 C 0.88113 0.38074 0.4518 0.0
C387 C 0.51529 0.82823 0.32841 0.0
C388 C 0.55316 0.83467 0.29831 0.0
H389 H 0.48491 0.85077 0.41703 0.0
C390 C 0.59002 0.86489 0.34911 0.0
H391 H 0.48616 0.80487 0.29211 0.0
C392 C 0.58903 0.89049 0.42321 0.0
C393 C 0.55123 0.88648 0.44689 0.0
H394 H 0.61965 0.87034 0.32848 0.0
H395 H 0.61796 0.91595 0.4559 0.0
C396 C 0.51438 0.85405 0.4012 0.0
C397 C 0.66 0.4894 0.223 0.0
C398 C 0.70049 0.52365 0.23391 0.0
H399 H 0.59663 0.46576 0.24977 0.0
C400 C 0.70808 0.56053 0.28569 0.0
H401 H 0.65302 0.46092 0.18183 0.0
C402 C 0.67591 0.5636 0.32381 0.0
C403 C 0.63509 0.52998 0.31036 0.0
H404 H 0.73894 0.58765 0.29458 0.0
H405 H 0.68305 0.59263 0.36272 0.0
C406 C 0.6276 0.49259 0.26045 0.0
C407 C 0.18645 0.69858 0.35455 0.0
C408 C 0.18093 0.73319 0.34225 0.0
H409 H 0.16572 0.6407 0.41727 0.0
C410 C 0.15455 0.73931 0.3993 0.0
H411 H 0.20679 0.69294 0.31272 0.0
C412 C 0.1317 0.70965 0.46148 0.0
C413 C 0.13435 0.67301 0.46673 0.0
H414 H 0.14984 0.76579 0.39238 0.0
H415 H 0.10923 0.71354 0.49894 0.0
C416 C 0.16322 0.66873 0.41537 0.0
loop_
_geom_bond_atom_site_label_1
_geom_bond_atom_site_label_2
_geom_bond_distance
_geom_bond_site_symmetry_2
_ccdc_geom_bond_type
C0 O2 1.247 . S
C0 O4 1.258 . S
C1 O8 1.247 . S
C1 O9 1.258 . S
O2 C0 1.247 . S
O2 Zn3 2.028 . S
Zn3 O2 2.028 . S
Zn3 O7 2.035 . S
Zn3 O9 2.035 . S
Zn3 O10 2.028 . S
O4 C0 1.258 . S
O4 Zn5 2.035 . S
Zn5 O4 2.035 . S
Zn5 O6 2.028 . S
Zn5 O8 2.028 . S
Zn5 O11 2.035 . S
O6 Zn5 2.028 . S
O6 C12 1.247 . S
O7 Zn3 2.035 . S
O7 C12 1.258 . S
O8 C1 1.247 . S
O8 Zn5 2.028 . S
O9 C1 1.258 . S
O9 Zn3 2.035 . S
O10 Zn3 2.028 . S
O10 C13 1.247 . S
O11 Zn5 2.035 . S
O11 C13 1.258 . S
C12 O6 1.247 . S
C12 O7 1.258 . S
C13 O10 1.247 . S
C13 O11 1.258 . S
C14 O16 1.247 1_556 S
C14 O18 1.258 1_556 S
C15 O22 1.247 . S
C15 O23 1.258 . S
O16 C14 1.247 1_554 S
O16 Zn17 2.028 . S
Zn17 O16 2.028 . S
Zn17 O21 2.035 . S
Zn17 O23 2.035 . S
Zn17 O24 2.028 . S
O18 C14 1.258 1_554 S
O18 Zn19 2.035 . S
Zn19 O18 2.035 . S
Zn19 O20 2.028 . S
Zn19 O22 2.028 . S
Zn19 O25 2.035 . S
O20 Zn19 2.028 . S
O20 C26 1.247 . S
O21 Zn17 2.035 . S
O21 C26 1.258 . S
O22 C15 1.247 . S
O22 Zn19 2.028 . S
O23 C15 1.258 . S
O23 Zn17 2.035 . S
O24 Zn17 2.028 . S
O24 C27 1.247 . S
O25 Zn19 2.035 . S
O25 C27 1.258 . S
C26 O20 1.247 . S
C26 O21 1.258 . S
C27 O24 1.247 . S
C27 O25 1.258 . S
C28 O30 1.247 . S
C28 O32 1.258 . S
C29 O36 1.247 . S
C29 O37 1.258 . S
O30 C28 1.247 . S
O30 Zn31 2.028 . S
Zn31 O30 2.028 . S
Zn31 O35 2.035 . S
Zn31 O37 2.035 1_554 S
Zn31 O38 2.028 1_554 S
O32 C28 1.258 . S
O32 Zn33 2.035 . S
Zn33 O32 2.035 . S
Zn33 O34 2.028 . S
Zn33 O36 2.028 1_554 S
Zn33 O39 2.035 1_554 S
O34 Zn33 2.028 . S
O34 C40 1.247 . S
O35 Zn31 2.035 . S
O35 C40 1.258 . S
O36 C29 1.247 . S
O36 Zn33 2.028 1_556 S
O37 C29 1.258 . S
O37 Zn31 2.035 1_556 S
O38 Zn31 2.028 1_556 S
O38 C41 1.247 . S
O39 Zn33 2.035 1_556 S
O39 C41 1.258 . S
C40 O34 1.247 . S
C40 O35 1.258 . S
C41 O38 1.247 . S
C41 O39 1.258 . S
C42 O44 1.247 . S
C42 O46 1.258 . S
C43 O50 1.247 . S
C43 O51 1.258 . S
O44 C42 1.247 . S
O44 Zn45 2.028 1_556 S
Zn45 O44 2.028 1_554 S
Zn45 O49 2.035 1_554 S
Zn45 O51 2.035 . S
Zn45 O52 2.028 . S
O46 C42 1.258 . S
O46 Zn47 2.035 1_556 S
Zn47 O46 2.035 1_554 S
Zn47 O48 2.028 1_554 S
Zn47 O50 2.028 . S
Zn47 O53 2.035 . S
O48 Zn47 2.028 1_556 S
O48 C54 1.247 . S
O49 Zn45 2.035 1_556 S
O49 C54 1.258 . S
O50 C43 1.247 . S
O50 Zn47 2.028 . S
O51 C43 1.258 . S
O51 Zn45 2.035 . S
O52 Zn45 2.028 . S
O52 C55 1.247 . S
O53 Zn47 2.035 . S
O53 C55 1.258 . S
C54 O48 1.247 . S
C54 O49 1.258 . S
C55 O52 1.247 . S
C55 O53 1.258 . S
C56 O58 1.247 . S
C56 O60 1.258 . S
C57 O64 1.247 . S
C57 O65 1.258 . S
O58 C56 1.247 . S
O58 Zn59 2.028 . S
Zn59 O58 2.028 . S
Zn59 O63 2.035 . S
Zn59 O65 2.035 . S
Zn59 O66 2.028 . S
O60 C56 1.258 . S
O60 Zn61 2.035 . S
Zn61 O60 2.035 . S
Zn61 O62 2.028 . S
Zn61 O64 2.028 . S
Zn61 O67 2.035 . S
O62 Zn61 2.028 . S
O62 C68 1.247 . S
O63 Zn59 2.035 . S
O63 C68 1.258 . S
O64 C57 1.247 . S
O64 Zn61 2.028 . S
O65 C57 1.258 . S
O65 Zn59 2.035 . S
O66 Zn59 2.028 . S
O66 C69 1.247 . S
O67 Zn61 2.035 . S
O67 C69 1.258 . S
C68 O62 1.247 . S
C68 O63 1.258 . S
C69 O66 1.247 . S
C69 O67 1.258 . S
C70 O72 1.247 . S
C70 O74 1.258 . S
C71 O78 1.247 . S
C71 O79 1.258 . S
O72 C70 1.247 . S
O72 Zn73 2.028 . S
Zn73 O72 2.028 . S
Zn73 O77 2.035 . S
Zn73 O79 2.035 . S
Zn73 O80 2.028 . S
O74 C70 1.258 . S
O74 Zn75 2.035 . S
Zn75 O74 2.035 . S
Zn75 O76 2.028 . S
Zn75 O78 2.028 . S
Zn75 O81 2.035 . S
O76 Zn75 2.028 . S
O76 C82 1.247 . S
O77 Zn73 2.035 . S
O77 C82 1.258 . S
O78 C71 1.247 . S
O78 Zn75 2.028 . S
O79 C71 1.258 . S
O79 Zn73 2.035 . S
O80 Zn73 2.028 . S
O80 C83 1.247 . S
O81 Zn75 2.035 . S
O81 C83 1.258 . S
C82 O76 1.247 . S
C82 O77 1.258 . S
C83 O80 1.247 . S
C83 O81 1.258 . S
C84 O111 1.312 . S
C84 O112 1.208 . S
C85 O106 1.331 . S
C85 O109 1.244 . S
C86 O108 1.264 . S
C86 O110 1.273 . S
Mg87 O89 1.936 1_455 S
Mg87 O96 2.081 1_455 S
Mg87 O98 2.023 . S
Mg87 O102 2.031 1_455 S
Mg87 O111 2.291 . S
Mg88 O89 1.963 . S
Mg88 O99 1.942 . S
Mg88 O100 1.955 1_655 S
Mg88 O107 1.986 . S
O89 Mg87 1.936 1_655 S
O89 Mg88 1.963 . S
O89 Mg90 1.915 1_655 S
Mg90 O89 1.915 1_455 S
Mg90 O91 1.915 . S
Mg90 O95 2.013 . S
Mg90 O101 2.114 1_455 S
Mg90 O105 2.013 1_455 S
Mg90 O111 2.114 . S
O91 Mg90 1.915 . S
O91 Mg92 1.936 . S
O91 Mg93 1.963 . S
Mg92 O91 1.936 . S
Mg92 O101 2.291 1_455 S
Mg92 O106 2.081 . S
Mg92 O108 2.023 1_455 S
Mg92 O112 2.031 . S
Mg93 O91 1.963 . S
Mg93 O97 1.986 . S
Mg93 O109 1.942 . S
Mg93 O110 1.955 1_455 S
C94 O105 1.191 . S
C94 O107 1.307 . S
O95 Mg90 2.013 . S
O95 C114 1.191 . S
O96 Mg87 2.081 1_655 S
O96 C104 1.331 . S
O97 Mg93 1.986 . S
O97 C114 1.307 . S
O98 Mg87 2.023 . S
O98 C113 1.264 . S
O99 Mg88 1.942 . S
O99 C104 1.244 . S
O100 Mg88 1.955 1_455 S
O100 C113 1.273 . S
O101 Mg90 2.114 1_655 S
O101 Mg92 2.291 1_655 S
O101 C103 1.312 . S
O102 Mg87 2.031 1_655 S
O102 C103 1.208 . S
C103 O101 1.312 . S
C103 O102 1.208 . S
C104 O96 1.331 . S
C104 O99 1.244 . S
O105 Mg90 2.013 1_655 S
O105 C94 1.191 . S
O106 C85 1.331 . S
O106 Mg92 2.081 . S
O107 Mg88 1.986 . S
O107 C94 1.307 . S
O108 C86 1.264 . S
O108 Mg92 2.023 1_655 S
O109 C85 1.244 . S
O109 Mg93 1.942 . S
O110 C86 1.273 . S
O110 Mg93 1.955 1_655 S
O111 C84 1.312 . S
O111 Mg87 2.291 . S
O111 Mg90 2.114 . S
O112 C84 1.208 . S
O112 Mg92 2.031 . S
C113 O98 1.264 . S
C113 O100 1.273 . S
C114 O95 1.191 . S
C114 O97 1.307 . S
C115 O142 1.312 . S
C115 O143 1.208 . S
C116 O137 1.331 . S
C116 O140 1.244 . S
C117 O139 1.264 . S
C117 O141 1.273 . S
Mg118 O120 1.936 1_545 S
Mg118 O127 2.081 1_545 S
Mg118 O129 2.023 . S
Mg118 O133 2.031 1_545 S
Mg118 O142 2.291 . S
Mg119 O120 1.963 . S
Mg119 O130 1.942 . S
Mg119 O131 1.955 1_565 S
Mg119 O138 1.986 . S
O120 Mg118 1.936 1_565 S
O120 Mg119 1.963 . S
O120 Mg121 1.915 1_565 S
Mg121 O120 1.915 1_545 S
Mg121 O122 1.915 . S
Mg121 O126 2.013 . S
Mg121 O132 2.114 1_545 S
Mg121 O136 2.013 1_545 S
Mg121 O142 2.114 . S
O122 Mg121 1.915 . S
O122 Mg123 1.936 . S
O122 Mg124 1.963 . S
Mg123 O122 1.936 . S
Mg123 O132 2.291 1_545 S
Mg123 O137 2.081 . S
Mg123 O139 2.023 1_545 S
Mg123 O143 2.031 . S
Mg124 O122 1.963 . S
Mg124 O128 1.986 . S
Mg124 O140 1.942 . S
Mg124 O141 1.955 1_545 S
C125 O136 1.191 . S
C125 O138 1.307 . S
O126 Mg121 2.013 . S
O126 C145 1.191 . S
O127 Mg118 2.081 1_565 S
O127 C135 1.331 . S
O128 Mg124 1.986 . S
O128 C145 1.307 . S
O129 Mg118 2.023 . S
O129 C144 1.264 . S
O130 Mg119 1.942 . S
O130 C135 1.244 . S
O131 Mg119 1.955 1_545 S
O131 C144 1.273 . S
O132 Mg121 2.114 1_565 S
O132 Mg123 2.291 1_565 S
O132 C134 1.312 . S
O133 Mg118 2.031 1_565 S
O133 C134 1.208 . S
C134 O132 1.312 . S
C134 O133 1.208 . S
C135 O127 1.331 . S
C135 O130 1.244 . S
O136 Mg121 2.013 1_565 S
O136 C125 1.191 . S
O137 C116 1.331 . S
O137 Mg123 2.081 . S
O138 Mg119 1.986 . S
O138 C125 1.307 . S
O139 C117 1.264 . S
O139 Mg123 2.023 1_565 S
O140 C116 1.244 . S
O140 Mg124 1.942 . S
O141 C117 1.273 . S
O141 Mg124 1.955 1_565 S
O142 C115 1.312 . S
O142 Mg118 2.291 . S
O142 Mg121 2.114 . S
O143 C115 1.208 . S
O143 Mg123 2.031 . S
C144 O129 1.264 . S
C144 O131 1.273 . S
C145 O126 1.191 . S
C145 O128 1.307 . S
C146 O173 1.312 . S
C146 O174 1.208 . S
C147 O168 1.331 . S
C147 O171 1.244 . S
C148 O170 1.264 . S
C148 O172 1.273 . S
Mg149 O151 1.936 . S
Mg149 O158 2.081 . S
Mg149 O160 2.023 . S
Mg149 O164 2.031 . S
Mg149 O173 2.291 . S
Mg150 O151 1.963 . S
Mg150 O161 1.942 . S
Mg150 O162 1.955 . S
Mg150 O169 1.986 . S
O151 Mg149 1.936 . S
O151 Mg150 1.963 . S
O151 Mg152 1.915 . S
Mg152 O151 1.915 . S
Mg152 O153 1.915 . S
Mg152 O157 2.013 . S
Mg152 O163 2.114 . S
Mg152 O167 2.013 . S
Mg152 O173 2.114 . S
O153 Mg152 1.915 . S
O153 Mg154 1.936 . S
O153 Mg155 1.963 . S
Mg154 O153 1.936 . S
Mg154 O163 2.291 . S
Mg154 O168 2.081 . S
Mg154 O170 2.023 . S
Mg154 O174 2.031 . S
Mg155 O153 1.963 . S
Mg155 O159 1.986 . S
Mg155 O171 1.942 . S
Mg155 O172 1.955 . S
C156 O167 1.191 . S
C156 O169 1.307 . S
O157 Mg152 2.013 . S
O157 C176 1.191 . S
O158 Mg149 2.081 . S
O158 C166 1.331 . S
O159 Mg155 1.986 . S
O159 C176 1.307 . S
O160 Mg149 2.023 . S
O160 C175 1.264 . S
O161 Mg150 1.942 . S
O161 C166 1.244 . S
O162 Mg150 1.955 . S
O162 C175 1.273 . S
O163 Mg152 2.114 . S
O163 Mg154 2.291 . S
O163 C165 1.312 . S
O164 Mg149 2.031 . S
O164 C165 1.208 . S
C165 O163 1.312 . S
C165 O164 1.208 . S
C166 O158 1.331 . S
C166 O161 1.244 . S
O167 Mg152 2.013 . S
O167 C156 1.191 . S
O168 C147 1.331 . S
O168 Mg154 2.081 . S
O169 Mg150 1.986 . S
O169 C156 1.307 . S
O170 C148 1.264 . S
O170 Mg154 2.023 . S
O171 C147 1.244 . S
O171 Mg155 1.942 . S
O172 C148 1.273 . S
O172 Mg155 1.955 . S
O173 C146 1.312 . S
O173 Mg149 2.291 . S
O173 Mg152 2.114 . S
O174 C146 1.208 . S
O174 Mg154 2.031 . S
C175 O160 1.264 . S
C175 O162 1.273 . S
C176 O157 1.191 . S
C176 O159 1.307 . S
C177 C178 1.387 . S
C177 H181 0.950 . S
C177 C186 1.390 . S
C178 C177 1.387 . S
C178 C180 1.387 . S
H179 C186 0.950 . S
C180 C178 1.387 . S
C180 C182 1.390 . S
C180 H184 0.950 . S
H181 C177 0.950 . S
C182 C180 1.390 . S
C182 C183 1.387 . S
C182 H185 0.950 . S
C183 C182 1.387 . S
C183 C186 1.387 . S
H184 C180 0.950 . S
H185 C182 0.950 . S
C186 C177 1.390 . S
C186 H179 0.950 . S
C186 C183 1.387 . S
C187 C188 1.387 . S
C187 H191 0.950 . S
C187 C196 1.390 . S
C188 C187 1.387 . S
C188 C190 1.387 . S
H189 C196 0.950 . S
C190 C188 1.387 . S
C190 C192 1.390 . S
C190 H194 0.950 . S
H191 C187 0.950 . S
C192 C190 1.390 . S
C192 C193 1.387 . S
C192 H195 0.950 . S
C193 C192 1.387 . S
C193 C196 1.387 . S
H194 C190 0.950 . S
H195 C192 0.950 . S
C196 C187 1.390 . S
C196 H189 0.950 . S
C196 C193 1.387 . S
C197 C198 1.387 . S
C197 H201 0.950 . S
C197 C206 1.390 . S
C198 C197 1.387 . S
C198 C200 1.387 . S
H199 C206 0.950 . S
C200 C198 1.387 . S
C200 C202 1.390 . S
C200 H204 0.950 . S
H201 C197 0.950 . S
C202 C200 1.390 . S
C202 C203 1.387 . S
C202 H205 0.950 . S
C203 C202 1.387 . S
C203 C206 1.387 . S
H204 C200 0.950 . S
H205 C202 0.950 . S
C206 C197 1.390 . S
C206 H199 0.950 . S
C206 C203 1.387 . S
C207 C208 1.387 . S
C207 H211 0.950 . S
C207 C216 1.390 . S
C208 C207 1.387 . S
C208 C210 1.387 . S
H209 C216 0.950 . S
C210 C208 1.387 . S
C210 C212 1.390 . S
C210 H214 0.950 . S
H211 C207 0.950 . S
C212 C210 1.390 . S
C212 C213 1.387 . S
C212 H215 0.950 . S
C213 C212 1.387 . S
C213 C216 1.387 . S
H214 C210 0.950 . S
H215 C212 0.950 . S
C216 C207 1.390 . S
C216 H209 0.950 . S
C216 C213 1.387 . S
C217 C218 1.387 . S
C217 H221 0.950 . S
C217 C226 1.390 . S
C218 C217 1.387 . S
C218 C220 1.387 . S
H219 C226 0.950 . S
C220 C218 1.387 . S
C220 C222 1.390 . S
C220 H224 0.950 . S
H221 C217 0.950 . S
C222 C220 1.390 . S
C222 C223 1.387 . S
C222 H225 0.950 . S
C223 C222 1.387 . S
C223 C226 1.387 . S
H224 C220 0.950 . S
H225 C222 0.950 . S
C226 C217 1.390 . S
C226 H219 0.950 . S
C226 C223 1.387 . S
C227 C228 1.387 . S
C227 H231 0.950 . S
C227 C236 1.390 . S
C228 C227 1.387 . S
C228 C230 1.387 . S
H229 C236 0.950 . S
C230 C228 1.387 . S
C230 C232 1.390 . S
C230 H234 0.950 . S
H231 C227 0.950 . S
C232 C230 1.390 . S
C232 C233 1.387 . S
C232 H235 0.950 . S
C233 C232 1.387 . S
C233 C236 1.387 . S
H234 C230 0.950 . S
H235 C232 0.950 . S
C236 C227 1.390 . S
C236 H229 0.950 . S
C236 C233 1.387 . S
C237 C238 1.387 . S
C237 H241 0.950 . S
C237 C246 1.390 . S
C238 C237 1.387 . S
C238 C240 1.387 . S
H239 C246 0.950 . S
C240 C238 1.387 . S
C240 C242 1.390 . S
C240 H244 0.950 . S
H241 C237 0.950 . S
C242 C240 1.390 . S
C242 C243 1.387 . S
C242 H245 0.950 . S
C243 C242 1.387 . S
C243 C246 1.387 . S
H244 C240 0.950 . S
H245 C242 0.950 . S
C246 C237 1.390 . S
C246 H239 0.950 . S
C246 C243 1.387 . S
C247 C248 1.387 . S
C247 H251 0.950 . S
C247 C256 1.390 . S
C248 C247 1.387 . S
C248 C250 1.387 . S
H249 C256 0.950 . S
C250 C248 1.387 . S
C250 C252 1.390 . S
C250 H254 0.950 . S
H251 C247 0.950 . S
C252 C250 1.390 . S
C252 C253 1.387 . S
C252 H255 0.950 . S
C253 C252 1.387 . S
C253 C256 1.387 . S
H254 C250 0.950 . S
H255 C252 0.950 . S
C256 C247 1.390 . S
C256 H249 0.950 . S
C256 C253 1.387 . S
C257 C258 1.387 . S
C257 H261 0.950 . S
C257 C266 1.390 . S
C258 C257 1.387 . S
C258 C260 1.387 . S
H259 C266 0.950 . S
C260 C258 1.387 . S
C260 C262 1.390 . S
C260 H264 0.950 . S
H261 C257 0.950 . S
C262 C260 1.390 . S
C262 C263 1.387 . S
C262 H265 0.950 . S
C263 C262 1.387 . S
C263 C266 1.387 . S
H264 C260 0.950 . S
H265 C262 0.950 . S
C266 C257 1.390 . S
C266 H259 0.950 . S
C266 C263 1.387 . S
C267 C268 1.387 1_556 S
C267 H271 0.950 . S
C267 C276 1.390 . S
C268 C267 1.387 1_554 S
C268 C270 1.387 . S
H269 C276 0.950 . S
C270 C268 1.387 . S
C270 C272 1.390 1_554 S
C270 H274 0.950 . S
H271 C267 0.950 . S
C272 C270 1.390 1_556 S
C272 C273 1.387 . S
C272 H275 0.950 . S
C273 C272 1.387 . S
C273 C276 1.387 . S
H274 C270 0.950 . S
H275 C272 0.950 . S
C276 C267 1.390 . S
C276 H269 0.950 . S
C276 C273 1.387 . S
C277 C278 1.387 . S
C277 H281 0.950 . S
C277 C286 1.390 1_554 S
C278 C277 1.387 . S
C278 C280 1.387 . S
H279 C286 0.950 . S
C280 C278 1.387 . S
C280 C282 1.390 1_554 S
C280 H284 0.950 . S
H281 C277 0.950 . S
C282 C280 1.390 1_556 S
C282 C283 1.387 . S
C282 H285 0.950 . S
C283 C282 1.387 . S
C283 C286 1.387 . S
H284 C280 0.950 . S
H285 C282 0.950 . S
C286 C277 1.390 1_556 S
C286 H279 0.950 . S
C286 C283 1.387 . S
C287 C288 1.387 . S
C287 H291 0.950 1_556 S
C287 C296 1.390 . S
C288 C287 1.387 . S
C288 C290 1.387 . S
H289 C296 0.950 . S
C290 C288 1.387 . S
C290 C292 1.390 . S
C290 H294 0.950 . S
H291 C287 0.950 1_554 S
C292 C290 1.390 . S
C292 C293 1.387 . S
C292 H295 0.950 . S
C293 C292 1.387 . S
C293 C296 1.387 . S
H294 C290 0.950 . S
H295 C292 0.950 . S
C296 C287 1.390 . S
C296 H289 0.950 . S
C296 C293 1.387 . S
C297 C298 1.387 . S
C297 H301 0.950 . S
C297 C306 1.390 . S
C298 C297 1.387 . S
C298 C300 1.387 . S
H299 C306 0.950 . S
C300 C298 1.387 . S
C300 C302 1.390 . S
C300 H304 0.950 . S
H301 C297 0.950 . S
C302 C300 1.390 . S
C302 C303 1.387 . S
C302 H305 0.950 . S
C303 C302 1.387 . S
C303 C306 1.387 . S
H304 C300 0.950 . S
H305 C302 0.950 . S
C306 C297 1.390 . S
C306 H299 0.950 . S
C306 C303 1.387 . S
C307 C308 1.387 . S
C307 H311 0.950 . S
C307 C316 1.390 . S
C308 C307 1.387 . S
C308 C310 1.387 . S
H309 C316 0.950 . S
C310 C308 1.387 . S
C310 C312 1.390 . S
C310 H314 0.950 1_556 S
H311 C307 0.950 . S
C312 C310 1.390 . S
C312 C313 1.387 . S
C312 H315 0.950 . S
C313 C312 1.387 . S
C313 C316 1.387 . S
H314 C310 0.950 1_554 S
H315 C312 0.950 . S
C316 C307 1.390 . S
C316 H309 0.950 . S
C316 C313 1.387 . S
C317 C318 1.387 . S
C317 H321 0.950 . S
C317 C326 1.390 1_554 S
C318 C317 1.387 . S
C318 C320 1.387 1_554 S
H319 C326 0.950 1_554 S
C320 C318 1.387 1_556 S
C320 C322 1.390 . S
C320 H324 0.950 . S
H321 C317 0.950 . S
C322 C320 1.390 . S
C322 C323 1.387 . S
C322 H325 0.950 . S
C323 C322 1.387 . S
C323 C326 1.387 . S
H324 C320 0.950 . S
H325 C322 0.950 . S
C326 C317 1.390 1_556 S
C326 H319 0.950 1_556 S
C326 C323 1.387 . S
C327 C328 1.387 . S
C327 H331 0.950 . S
C327 C336 1.390 1_554 S
C328 C327 1.387 . S
C328 C330 1.387 1_554 S
H329 C336 0.950 . S
C330 C328 1.387 1_556 S
C330 C332 1.390 . S
C330 H334 0.950 1_556 S
H331 C327 0.950 . S
C332 C330 1.390 . S
C332 C333 1.387 . S
C332 H335 0.950 . S
C333 C332 1.387 . S
C333 C336 1.387 . S
H334 C330 0.950 1_554 S
H335 C332 0.950 . S
C336 C327 1.390 1_556 S
C336 H329 0.950 . S
C336 C333 1.387 . S
C337 C338 1.387 . S
C337 H341 0.950 . S
C337 C346 1.390 . S
C338 C337 1.387 . S
C338 C340 1.387 . S
H339 C346 0.950 . S
C340 C338 1.387 . S
C340 C342 1.390 . S
C340 H344 0.950 1_556 S
H341 C337 0.950 . S
C342 C340 1.390 . S
C342 C343 1.387 . S
C342 H345 0.950 . S
C343 C342 1.387 . S
C343 C346 1.387 . S
H344 C340 0.950 1_554 S
H345 C342 0.950 . S
C346 C337 1.390 . S
C346 H339 0.950 . S
C346 C343 1.387 . S
C347 C348 1.387 . S
C347 H351 0.950 . S
C347 C356 1.390 . S
C348 C347 1.387 . S
C348 C350 1.387 . S
H349 C356 0.950 . S
C350 C348 1.387 . S
C350 C352 1.390 . S
C350 H354 0.950 . S
H351 C347 0.950 . S
C352 C350 1.390 . S
C352 C353 1.387 . S
C352 H355 0.950 . S
C353 C352 1.387 . S
C353 C356 1.387 . S
H354 C350 0.950 . S
H355 C352 0.950 . S
C356 C347 1.390 . S
C356 H349 0.950 . S
C356 C353 1.387 . S
C357 C358 1.387 . S
C357 H361 0.950 . S
C357 C366 1.390 . S
C358 C357 1.387 . S
C358 C360 1.387 . S
H359 C366 0.950 . S
C360 C358 1.387 . S
C360 C362 1.390 . S
C360 H364 0.950 . S
H361 C357 0.950 . S
C362 C360 1.390 . S
C362 C363 1.387 . S
C362 H365 0.950 . S
C363 C362 1.387 . S
C363 C366 1.387 . S
H364 C360 0.950 . S
H365 C362 0.950 . S
C366 C357 1.390 . S
C366 H359 0.950 . S
C366 C363 1.387 . S
C367 C368 1.387 . S
C367 H371 0.950 . S
C367 C376 1.390 . S
C368 C367 1.387 . S
C368 C370 1.387 . S
H369 C376 0.950 . S
C370 C368 1.387 . S
C370 C372 1.390 . S
C370 H374 0.950 . S
H371 C367 0.950 . S
C372 C370 1.390 . S
C372 C373 1.387 . S
C372 H375 0.950 . S
C373 C372 1.387 . S
C373 C376 1.387 . S
H374 C370 0.950 . S
H375 C372 0.950 . S
C376 C367 1.390 . S
C376 H369 0.950 . S
C376 C373 1.387 . S
C377 C378 1.387 . S
C377 H381 0.950 . S
C377 C386 1.390 . S
C378 C377 1.387 . S
C378 C380 1.387 . S
H379 C386 0.950 . S
C380 C378 1.387 . S
C380 C382 1.390 . S
C380 H384 0.950 . S
H381 C377 0.950 . S
C382 C380 1.390 . S
C382 C383 1.387 . S
C382 H385 0.950 . S
C383 C382 1.387 . S
C383 C386 1.387 . S
H384 C380 0.950 . S
H385 C382 0.950 . S
C386 C377 1.390 . S
C386 H379 0.950 . S
C386 C383 1.387 . S
C387 C388 1.387 . S
C387 H391 0.950 . S
C387 C396 1.390 . S
C388 C387 1.387 . S
C388 C390 1.387 . S
H389 C396 0.950 . S
C390 C388 1.387 . S
C390 C392 1.390 . S
C390 H394 0.950 . S
H391 C387 0.950 . S
C392 C390 1.390 . S
C392 C393 1.387 . S
C392 H395 0.950 . S
C393 C392 1.387 . S
C393 C396 1.387 . S
H394 C390 0.950 . S
H395 C392 0.950 . S
C396 C387 1.390 . S
C396 H389 0.950 . S
C396 C393 1.387 . S
C397 C398 1.387 . S
C397 H401 0.950 . S
C397 C406 1.390 . S
C398 C397 1.387 . S
C398 C400 1.387 . S
H399 C406 0.950 . S
C400 C398 1.387 . S
C400 C402 1.390 . S
C400 H404 0.950 . S
H401 C397 0.950 . S
C402 C400 1.390 . S
C402 C403 1.387 . S
C402 H405 0.950 . S
C403 C402 1.387 . S
C403 C406 1.387 . S
H404 C400 0.950 . S
H405 C402 0.950 . S
C406 C397 1.390 . S
C406 H399 0.950 . S
C406 C403 1.387 . S
C407 C408 1.387 . S
C407 H411 0.950 . S
C407 C416 1.390 . S
C408 C407 1.387 . S
C408 C410 1.387 . S
H409 C416 0.950 . S
C410 C408 1.387 . S
C410 C412 1.390 . S
C410 H414 0.950 . S
H411 C407 0.950 . S
C412 C410 1.390 . S
C412 C413 1.387 . S
C412 H415 0.950 . S
C413 C412 1.387 . S
C413 C416 1.387 . S
H414 C410 0.950 . S
H415 C412 0.950 . S
C416 C407 1.390 . S
C416 H409 0.950 . S
C416 C413 1.387 . S
C178 C1 1.750 . S
C183 C84 1.658 . S
C188 C27 1.450 . S
C193 C116 1.426 . S
C203 C175 1.700 . S
C198 C40 1.751 . S
C213 C104 1.329 . S
C208 C55 1.361 . S
C218 C68 1.672 . S
C223 C134 1.571 . S
C233 C156 1.286 . S
C228 C70 1.294 . S
C243 C125 1.657 . S
C238 C41 1.691 . S
C248 C54 1.360 . S
C253 C165 1.296 . S
C263 C114 1.585 . S
C258 C69 1.623 1_556 S
C268 C71 1.424 . S
C273 C144 1.387 . S
C278 C0 1.677 . S
C283 C147 1.634 . S
C293 C86 1.483 . S
C288 C26 1.508 1_556 S
C303 C94 1.625 . S
C298 C42 1.679 . S
C313 C135 1.406 . S
C308 C57 1.435 1_556 S
C323 C148 1.721 . S
C318 C83 1.772 . S
C333 C85 1.351 . S
C328 C12 1.385 . S
C343 C145 1.555 . S
C338 C14 1.608 . S
C348 C29 1.314 . S
C353 C146 1.273 . S
C363 C115 1.614 . S
C358 C82 1.688 . S
C373 C176 1.286 . S
C368 C13 1.318 . S
C383 C103 1.554 . S
C378 C15 1.633 . S
C393 C117 1.420 . S
C388 C28 1.458 . S
C398 C43 1.689 . S
C403 C166 1.639 . S
C408 C56 1.523 . S
C413 C113 1.492 . S
