# Generated by pormake.
# Topology llj, (12,3)-cn, num edge types: 1
# Building blocks:
#     Node 0, Type 0, BuildingBlock: QEWDON_clean_sbu_0, # of connection points: 12
#     Node 1, Type 0, BuildingBlock: QEWDON_clean_sbu_0, # of connection points: 12
#     Node 2, Type 1, BuildingBlock: WUSLED_clean_sbu_0, # of connection points: 3
#     Node 3, Type 1, BuildingBlock: WUSLED_clean_sbu_0, # of connection points: 3
#     Node 4, Type 1, BuildingBlock: WUSLED_clean_sbu_0, # of connection points: 3
#     Node 5, Type 1, BuildingBlock: WUSLED_clean_sbu_0, # of connection points: 3
#     Node 6, Type 1, BuildingBlock: WUSLED_clean_sbu_0, # of connection points: 3
#     Node 7, Type 1, BuildingBlock: WUSLED_clean_sbu_0, # of connection points: 3
#     Node 8, Type 1, BuildingBlock: WUSLED_clean_sbu_0, # of connection points: 3
#     Node 9, Type 1, BuildingBlock: WUSLED_clean_sbu_0, # of connection points: 3
#     Edge 10, Type (0, 1), BuildingBlock: XIVTED_clean_linker_0, # of connection points: 2
#     Edge 11, Type (0, 1), BuildingBlock: XIVTED_clean_linker_0, # of connection points: 2
#     Edge 12, Type (0, 1), BuildingBlock: XIVTED_clean_linker_0, # of connection points: 2
#     Edge 13, Type (0, 1), BuildingBlock: XIVTED_clean_linker_0, # of connection points: 2
#     Edge 14, Type (0, 1), BuildingBlock: XIVTED_clean_linker_0, # of connection points: 2
#     Edge 15, Type (0, 1), BuildingBlock: XIVTED_clean_linker_0, # of connection points: 2
#     Edge 16, Type (0, 1), BuildingBlock: XIVTED_clean_linker_0, # of connection points: 2
#     Edge 17, Type (0, 1), BuildingBlock: XIVTED_clean_linker_0, # of connection points: 2
#     Edge 18, Type (0, 1), BuildingBlock: XIVTED_clean_linker_0, # of connection points: 2
#     Edge 19, Type (0, 1), BuildingBlock: XIVTED_clean_linker_0, # of connection points: 2
#     Edge 20, Type (0, 1), BuildingBlock: XIVTED_clean_linker_0, # of connection points: 2
#     Edge 21, Type (0, 1), BuildingBlock: XIVTED_clean_linker_0, # of connection points: 2
#     Edge 22, Type (0, 1), BuildingBlock: XIVTED_clean_linker_0, # of connection points: 2
#     Edge 23, Type (0, 1), BuildingBlock: XIVTED_clean_linker_0, # of connection points: 2
#     Edge 24, Type (0, 1), BuildingBlock: XIVTED_clean_linker_0, # of connection points: 2
#     Edge 25, Type (0, 1), BuildingBlock: XIVTED_clean_linker_0, # of connection points: 2
#     Edge 26, Type (0, 1), BuildingBlock: XIVTED_clean_linker_0, # of connection points: 2
#     Edge 27, Type (0, 1), BuildingBlock: XIVTED_clean_linker_0, # of connection points: 2
#     Edge 28, Type (0, 1), BuildingBlock: XIVTED_clean_linker_0, # of connection points: 2
#     Edge 29, Type (0, 1), BuildingBlock: XIVTED_clean_linker_0, # of connection points: 2
#     Edge 30, Type (0, 1), BuildingBlock: XIVTED_clean_linker_0, # of connection points: 2
#     Edge 31, Type (0, 1), BuildingBlock: XIVTED_clean_linker_0, # of connection points: 2
#     Edge 32, Type (0, 1), BuildingBlock: XIVTED_clean_linker_0, # of connection points: 2
#     Edge 33, Type (0, 1), BuildingBlock: XIVTED_clean_linker_0, # of connection points: 2
# Relax obj value: 0.010
# Max RMSD: 0.049
# Mean RMSD: 0.045
data_MOF--net-llj--node1-QEWDON_clean_sbu_0--node2-WUSLED_clean_sbu_0--edge1-XIVTED_clean_linker_0
_symmetry_space_group_name_H-M    P1
_symmetry_Int_Tables_number       1
_symmetry_cell_setting            triclinic
loop_
_symmetry_equiv_pos_as_xyz
'x, y, z'
_cell_length_a     48.311171
_cell_length_b     48.349002
_cell_length_c     33.44133
_cell_angle_alpha  90.267184
_cell_angle_beta   90.213319
_cell_angle_gamma 90.194778
loop_
_atom_site_label
_atom_site_type_symbol
_atom_site_fract_x
_atom_site_fract_y
_atom_site_fract_z
_atom_type_partial_charge
Zn0 Zn 0.96077 0.06867 0.97889 0.0
Zn1 Zn 0.95751 0.06366 0.07497 0.0
O2 O 0.98241 0.05807 0.02812 0.0
H3 H 0.99784 0.04542 0.02724 0.0
C4 C 0.90347 0.00265 0.93572 0.0
O5 O 0.88924 0.9997 0.96885 0.0
Zn6 Zn 0.04145 0.94268 0.07138 0.0
Zn7 Zn 0.04099 0.94401 0.97572 0.0
O8 O 0.01674 0.94917 0.02408 0.0
H9 H 1.00058 0.96095 0.02365 0.0
Zn10 Zn 0.94015 0.9676 0.98098 0.0
O11 O 0.9539 0.98823 0.02983 0.0
Zn12 Zn 0.946 0.96376 0.0766 0.0
H13 H 0.96852 0.00187 0.02884 0.0
Zn14 Zn 0.06921 0.03964 0.98827 0.0
O15 O 0.04722 0.02157 0.03212 0.0
H16 H 0.03271 0.00807 0.02781 0.0
Zn17 Zn 0.05382 0.04348 0.08235 0.0
C18 C 0.07089 0.00193 0.9186 0.0
O19 O 0.04384 0.00402 0.92099 0.0
O20 O 0.92549 0.09024 0.99285 0.0
O21 O 0.92486 0.0885 0.05948 0.0
O22 O 0.0742 0.91939 0.98872 0.0
O23 O 0.07367 0.91737 0.05527 0.0
O24 O 0.91572 0.93426 0.99518 0.0
O25 O 0.91686 0.93427 0.06177 0.0
C26 C 0.0057 0.07646 0.12235 0.0
O27 O 0.093 0.07194 0.00876 0.0
O28 O 0.08366 0.07355 0.07394 0.0
O29 O 0.02129 0.93651 0.9215 0.0
C30 C 0.91463 0.09675 0.02627 0.0
O31 O 0.98318 0.08166 0.92942 0.0
C32 C 0.99314 0.93056 0.11789 0.0
O33 O 0.92691 0.99098 0.93284 0.0
C34 C 0.08403 0.91035 0.02156 0.0
O35 O 0.08595 0.01494 0.94366 0.0
C36 C 0.93664 0.01374 0.12272 0.0
O37 O 0.97988 0.08125 0.11939 0.0
O38 O 0.01665 0.06044 0.09654 0.0
C39 C 0.90785 0.92447 0.02859 0.0
O40 O 0.01888 0.92531 0.11565 0.0
O41 O 0.9827 0.94627 0.09139 0.0
C42 C 0.06211 0.99064 0.12228 0.0
O43 O 0.93384 0.98756 0.12306 0.0
O44 O 0.94525 0.02522 0.09094 0.0
C45 C 0.09677 0.08248 0.04336 0.0
O46 O 0.06482 0.01672 0.1259 0.0
O47 O 0.05409 0.98071 0.08892 0.0
C48 C 0.01085 0.91261 0.91621 0.0
O49 O 0.01288 0.89433 0.94502 0.0
C50 C 0.00944 0.08327 0.93085 0.0
O51 O 0.02237 0.07606 0.96379 0.0
Zn52 Zn 0.45801 0.56518 0.47859 0.0
Zn53 Zn 0.4569 0.56183 0.57523 0.0
O54 O 0.4806 0.55535 0.52728 0.0
H55 H 0.497 0.54406 0.52625 0.0
C56 C 0.40625 0.50919 0.43703 0.0
O57 O 0.38983 0.5025 0.46672 0.0
Zn58 Zn 0.54129 0.43818 0.57484 0.0
Zn59 Zn 0.54467 0.44066 0.48043 0.0
O60 O 0.51726 0.44162 0.526 0.0
H61 H 0.49821 0.43577 0.52313 0.0
Zn62 Zn 0.44174 0.47198 0.48104 0.0
O63 O 0.4597 0.48685 0.53142 0.0
Zn64 Zn 0.44825 0.46174 0.57575 0.0
H65 H 0.47659 0.49758 0.53171 0.0
Zn66 Zn 0.56227 0.54111 0.48608 0.0
O67 O 0.54648 0.5184 0.53126 0.0
H68 H 0.53287 0.50388 0.52775 0.0
Zn69 Zn 0.55321 0.54041 0.58127 0.0
C70 C 0.58343 0.49596 0.43722 0.0
O71 O 0.58428 0.48426 0.47258 0.0
O72 O 0.42296 0.58678 0.49369 0.0
O73 O 0.42372 0.58617 0.56041 0.0
O74 O 0.57904 0.41801 0.49565 0.0
O75 O 0.57472 0.41395 0.56166 0.0
O76 O 0.41547 0.43929 0.49115 0.0
O77 O 0.42005 0.43269 0.55666 0.0
C78 C 0.50628 0.57539 0.61988 0.0
O79 O 0.58712 0.57291 0.50616 0.0
O80 O 0.58318 0.57014 0.57242 0.0
O81 O 0.52823 0.43328 0.42388 0.0
C82 C 0.41276 0.59379 0.52735 0.0
O83 O 0.47963 0.57796 0.42822 0.0
C84 C 0.49296 0.42702 0.62056 0.0
O85 O 0.43053 0.49921 0.4361 0.0
C86 C 0.58738 0.4085 0.52906 0.0
O87 O 0.57446 0.52056 0.43438 0.0
C88 C 0.43244 0.51097 0.62114 0.0
O89 O 0.48055 0.58063 0.61731 0.0
O90 O 0.51648 0.55819 0.59503 0.0
C91 C 0.40911 0.42637 0.52296 0.0
O92 O 0.51859 0.42113 0.6192 0.0
O93 O 0.48368 0.44379 0.59459 0.0
C94 C 0.56072 0.4878 0.62294 0.0
O95 O 0.43125 0.48471 0.61957 0.0
O96 O 0.44521 0.52357 0.59336 0.0
C97 C 0.59374 0.58113 0.5412 0.0
O98 O 0.56354 0.51392 0.6255 0.0
O99 O 0.55269 0.47715 0.59003 0.0
C100 C 0.51742 0.40961 0.41793 0.0
O101 O 0.5174 0.39163 0.44729 0.0
C102 C 0.5056 0.582 0.43061 0.0
O103 O 0.51827 0.57758 0.4648 0.0
C104 C 0.35325 0.31572 0.90445 0.0
C105 C 0.35665 0.34453 0.90107 0.0
C106 C 0.38032 0.3386 0.83747 0.0
C107 C 0.36992 0.35584 0.8678 0.0
C108 C 0.3766 0.30984 0.84064 0.0
C109 C 0.36307 0.29855 0.8737 0.0
U110 U 0.35068 0.30562 0.01716 0.0
O111 O 0.31576 0.30379 0.05902 0.0
O112 O 0.34349 0.26817 0.05296 0.0
C113 C 0.32048 0.27785 0.06842 0.0
C114 C 0.34041 0.30317 0.94017 0.0
C115 C 0.29642 0.25919 0.06598 0.0
C116 C 0.25615 0.24126 0.03056 0.0
C117 C 0.27887 0.25923 0.03247 0.0
C118 C 0.26838 0.22286 0.09551 0.0
C119 C 0.25066 0.22274 0.062 0.0
C120 C 0.29103 0.24094 0.09745 0.0
C121 C 0.40476 0.34316 0.08124 0.0
C122 C 0.40482 0.34114 0.15378 0.0
C123 C 0.44129 0.36582 0.11925 0.0
C124 C 0.42912 0.3589 0.08255 0.0
C125 C 0.42927 0.35708 0.15534 0.0
C126 C 0.39268 0.33422 0.11701 0.0
C127 C 0.39225 0.33625 0.04238 0.0
O128 O 0.35567 0.28482 0.9589 0.0
O129 O 0.32748 0.3201 0.96464 0.0
O130 O 0.36722 0.34598 0.03638 0.0
O131 O 0.39502 0.31039 0.03083 0.0
H132 H 0.34946 0.35836 0.92435 0.0
H133 H 0.37275 0.37805 0.86639 0.0
H134 H 0.38419 0.29607 0.81754 0.0
H135 H 0.36062 0.2763 0.87554 0.0
H136 H 0.24278 0.24203 0.00454 0.0
H137 H 0.28274 0.27316 0.00782 0.0
H138 H 0.26509 0.20863 0.11996 0.0
H139 H 0.30446 0.24054 0.12346 0.0
H140 H 0.39485 0.33434 0.18098 0.0
H141 H 0.46032 0.37773 0.11931 0.0
H142 H 0.43877 0.36584 0.05515 0.0
H143 H 0.37382 0.32203 0.11646 0.0
C144 C 0.68949 0.36694 0.13751 0.0
C145 C 0.66802 0.38588 0.1311 0.0
C146 C 0.66595 0.39561 0.20258 0.0
C147 C 0.65633 0.40009 0.16336 0.0
C148 C 0.6878 0.37687 0.20863 0.0
C149 C 0.69943 0.36264 0.17634 0.0
U150 U 0.69386 0.35179 0.02626 0.0
O151 O 0.72975 0.34143 0.98869 0.0
O152 O 0.69504 0.31225 0.99379 0.0
C153 C 0.72032 0.31647 0.98072 0.0
C154 C 0.7012 0.35118 0.10402 0.0
C155 C 0.73981 0.29378 0.98797 0.0
C156 C 0.76055 0.25989 0.03227 0.0
C157 C 0.74277 0.28227 0.0262 0.0
C158 C 0.77311 0.26085 0.9622 0.0
C159 C 0.77574 0.24872 1.00023 0.0
C160 C 0.75526 0.28313 0.95615 0.0
C161 C 0.64897 0.39407 0.95455 0.0
C162 C 0.63822 0.38107 0.88586 0.0
C163 C 0.62671 0.42685 0.91031 0.0
C164 C 0.6378 0.42028 0.94766 0.0
C165 C 0.62642 0.40722 0.87905 0.0
C166 C 0.64944 0.37455 0.92333 0.0
C167 C 0.65936 0.38741 0.99472 0.0
O168 O 0.6836 0.33486 0.08524 0.0
O169 O 0.71706 0.36537 0.07966 0.0
O170 O 0.68559 0.39309 0.00145 0.0
O171 O 0.65158 0.36332 0.00898 0.0
H172 H 0.6601 0.3894 0.1012 0.0
H173 H 0.63937 0.41413 0.15765 0.0
H174 H 0.69602 0.37326 0.23831 0.0
H175 H 0.71609 0.34816 0.18174 0.0
H176 H 0.7619 0.25096 0.06185 0.0
H177 H 0.73102 0.29035 0.05118 0.0
H178 H 0.78491 0.25319 0.93704 0.0
H179 H 0.75336 0.29192 0.92653 0.0
H180 H 0.63826 0.36544 0.86255 0.0
H181 H 0.61844 0.4474 0.90591 0.0
H182 H 0.63747 0.43566 0.97133 0.0
H183 H 0.65812 0.35419 0.92809 0.0
C184 C 0.63692 0.69231 0.13751 0.0
C185 C 0.61641 0.67252 0.12903 0.0
C186 C 0.60788 0.66661 0.20024 0.0
C187 C 0.602 0.65978 0.16013 0.0
C188 C 0.62847 0.68654 0.20846 0.0
C189 C 0.64285 0.69927 0.17732 0.0
U190 U 0.65058 0.70213 0.02679 0.0
O191 O 0.65922 0.74009 0.99279 0.0
O192 O 0.6896 0.70643 0.99396 0.0
C193 C 0.6843 0.732 0.98327 0.0
C194 C 0.65219 0.70575 0.10506 0.0
C195 C 0.70658 0.75203 0.9912 0.0
C196 C 0.74152 0.77202 0.03525 0.0
C197 C 0.71923 0.75391 0.02898 0.0
C198 C 0.73807 0.78707 0.96639 0.0
C199 C 0.75145 0.78854 0.00382 0.0
C200 C 0.7159 0.76893 0.96016 0.0
C201 C 0.60892 0.66027 0.95025 0.0
C202 C 0.6029 0.67183 0.88007 0.0
C203 C 0.59432 0.62502 0.90258 0.0
C204 C 0.60121 0.6329 0.94164 0.0
C205 C 0.59484 0.64445 0.87143 0.0
C206 C 0.61005 0.67964 0.91911 0.0
C207 C 0.61562 0.66811 0.99179 0.0
O208 O 0.66847 0.68938 0.08435 0.0
O209 O 0.63746 0.7224 0.08255 0.0
O210 O 0.60909 0.69345 0.00258 0.0
O211 O 0.64015 0.66041 0.00459 0.0
H212 H 0.61163 0.66689 0.09836 0.0
H213 H 0.58652 0.6443 0.15276 0.0
H214 H 0.63323 0.69257 0.23895 0.0
H215 H 0.65857 0.7146 0.18432 0.0
H216 H 0.75143 0.77251 0.06434 0.0
H217 H 0.7122 0.74102 0.05337 0.0
H218 H 0.74477 0.79991 0.94178 0.0
H219 H 0.70622 0.76787 0.9309 0.0
H220 H 0.60371 0.68717 0.8566 0.0
H221 H 0.58789 0.60387 0.89693 0.0
H222 H 0.60027 0.61766 0.96526 0.0
H223 H 0.61627 0.70082 0.92499 0.0
C224 C 0.30795 0.6428 0.13696 0.0
C225 C 0.32676 0.62108 0.13164 0.0
C226 C 0.32901 0.61426 0.20372 0.0
C227 C 0.33721 0.60692 0.16475 0.0
C228 C 0.30998 0.63598 0.20874 0.0
C229 C 0.29957 0.65013 0.1756 0.0
U230 U 0.30502 0.65544 0.02497 0.0
O231 O 0.26974 0.66515 0.9859 0.0
O232 O 0.30436 0.69449 0.99147 0.0
C233 C 0.27924 0.68999 0.97766 0.0
C234 C 0.29724 0.65813 0.10249 0.0
C235 C 0.25968 0.71278 0.9837 0.0
C236 C 0.2256 0.7368 0.02417 0.0
C237 C 0.24416 0.71494 0.01897 0.0
C238 C 0.23837 0.75478 0.95924 0.0
C239 C 0.2224 0.75695 0.99426 0.0
C240 C 0.25677 0.73286 0.95401 0.0
C241 C 0.3476 0.61045 0.95454 0.0
C242 C 0.35232 0.6201 0.88356 0.0
C243 C 0.36698 0.57591 0.91007 0.0
C244 C 0.3591 0.58426 0.94836 0.0
C245 C 0.3635 0.59362 0.87716 0.0
C246 C 0.34429 0.6284 0.92198 0.0
C247 C 0.33855 0.61829 0.9949 0.0
O248 O 0.31563 0.6733 0.08364 0.0
O249 O 0.28109 0.64391 0.07821 0.0
O250 O 0.31238 0.61323 0.0027 0.0
O251 O 0.34696 0.64265 0.0078 0.0
H252 H 0.33337 0.61513 0.1019 0.0
H253 H 0.35151 0.59005 0.1598 0.0
H254 H 0.3035 0.64239 0.23832 0.0
H255 H 0.2851 0.66692 0.18017 0.0
H256 H 0.21346 0.73765 0.05129 0.0
H257 H 0.2463 0.69965 0.04236 0.0
H258 H 0.23687 0.77018 0.93593 0.0
H259 H 0.2688 0.73163 0.92678 0.0
H260 H 0.34919 0.6341 0.85878 0.0
H261 H 0.3759 0.55555 0.90624 0.0
H262 H 0.3618 0.57017 0.97316 0.0
H263 H 0.33525 0.64868 0.92623 0.0
C264 C 0.85676 0.81462 0.40241 0.0
C265 C 0.88092 0.82983 0.4106 0.0
C266 C 0.88594 0.8406 0.33994 0.0
C267 C 0.89539 0.84265 0.37969 0.0
C268 C 0.86152 0.82554 0.33192 0.0
C269 C 0.84708 0.8126 0.36296 0.0
U270 U 0.84941 0.80351 0.51282 0.0
O271 O 0.81298 0.80183 0.55215 0.0
O272 O 0.84128 0.76647 0.5488 0.0
C273 C 0.81783 0.77616 0.56284 0.0
C274 C 0.84173 0.80121 0.43523 0.0
C275 C 0.79399 0.75721 0.56072 0.0
C276 C 0.76515 0.7242 0.52459 0.0
C277 C 0.7876 0.74257 0.52556 0.0
C278 C 0.75505 0.73523 0.59375 0.0
C279 C 0.74859 0.72025 0.55873 0.0
C280 C 0.77754 0.75349 0.5947 0.0
C281 C 0.90148 0.84181 0.57956 0.0
C282 C 0.89997 0.84005 0.65206 0.0
C283 C 0.93623 0.86599 0.61899 0.0
C284 C 0.92518 0.85847 0.58184 0.0
C285 C 0.92372 0.85695 0.65457 0.0
C286 C 0.88893 0.83255 0.61481 0.0
C287 C 0.89006 0.83447 0.54021 0.0
O288 O 0.85604 0.78265 0.45506 0.0
O289 O 0.8281 0.81821 0.4587 0.0
O290 O 0.86517 0.84402 0.53265 0.0
O291 O 0.89328 0.80854 0.52926 0.0
H292 H 0.88858 0.83179 0.44099 0.0
H293 H 0.91384 0.85444 0.38701 0.0
H294 H 0.85384 0.82336 0.30161 0.0
H295 H 0.82843 0.80097 0.35615 0.0
H296 H 0.76105 0.71278 0.49727 0.0
H297 H 0.80009 0.74519 0.49899 0.0
H298 H 0.74255 0.73308 0.62037 0.0
H299 H 0.78213 0.76472 0.62207 0.0
H300 H 0.88968 0.83298 0.67886 0.0
H301 H 0.95477 0.87864 0.61983 0.0
H302 H 0.93516 0.86568 0.55484 0.0
H303 H 0.87055 0.81966 0.61348 0.0
C304 C 0.18692 0.8651 0.63433 0.0
C305 C 0.16512 0.88345 0.62667 0.0
C306 C 0.16239 0.89487 0.69755 0.0
C307 C 0.15293 0.89818 0.65802 0.0
C308 C 0.1845 0.87668 0.70492 0.0
C309 C 0.19663 0.86189 0.67353 0.0
U310 U 0.193 0.84958 0.5237 0.0
O311 O 0.22932 0.83922 0.48701 0.0
O312 O 0.19451 0.81007 0.49119 0.0
C313 C 0.21995 0.81428 0.47873 0.0
C314 C 0.19928 0.84904 0.60163 0.0
C315 C 0.2393 0.79155 0.48646 0.0
C316 C 0.26023 0.75838 0.53169 0.0
C317 C 0.24264 0.78084 0.5251 0.0
C318 C 0.2718 0.75765 0.46123 0.0
C319 C 0.27482 0.74632 0.49972 0.0
C320 C 0.25416 0.78002 0.45469 0.0
C321 C 0.14859 0.89258 0.45166 0.0
C322 C 0.13653 0.88029 0.38314 0.0
C323 C 0.12698 0.92634 0.40832 0.0
C324 C 0.13833 0.91922 0.44528 0.0
C325 C 0.12551 0.90686 0.37695 0.0
C326 C 0.14799 0.8732 0.42024 0.0
C327 C 0.15887 0.88537 0.4917 0.0
O328 O 0.182 0.83263 0.58239 0.0
O329 O 0.21557 0.86309 0.5777 0.0
O330 O 0.18508 0.89095 0.49885 0.0
O331 O 0.15095 0.86119 0.50545 0.0
H332 H 0.15748 0.88627 0.59646 0.0
H333 H 0.13623 0.91232 0.65125 0.0
H334 H 0.1921 0.87348 0.73505 0.0
H335 H 0.21344 0.84778 0.67991 0.0
H336 H 0.26189 0.75008 0.56161 0.0
H337 H 0.23133 0.7896 0.55002 0.0
H338 H 0.28314 0.74927 0.43609 0.0
H339 H 0.25195 0.78818 0.42473 0.0
H340 H 0.13567 0.86479 0.35968 0.0
H341 H 0.11935 0.94719 0.40435 0.0
H342 H 0.13882 0.9345 0.4691 0.0
H343 H 0.15596 0.85251 0.42461 0.0
C344 C 0.14151 0.19335 0.63817 0.0
C345 C 0.12022 0.17432 0.63012 0.0
C346 C 0.11221 0.16867 0.70149 0.0
C347 C 0.10568 0.16209 0.6615 0.0
C348 C 0.13357 0.18785 0.7093 0.0
C349 C 0.14809 0.20009 0.67785 0.0
U350 U 0.1545 0.20115 0.52723 0.0
O351 O 0.16359 0.23793 0.49114 0.0
O352 O 0.19345 0.20382 0.49362 0.0
C353 C 0.18843 0.22913 0.48152 0.0
C354 C 0.157 0.20603 0.6053 0.0
C355 C 0.21114 0.24898 0.48762 0.0
C356 C 0.23638 0.28199 0.52905 0.0
C357 C 0.21463 0.26305 0.5241 0.0
C358 C 0.25151 0.27252 0.46135 0.0
C359 C 0.25499 0.28707 0.4976 0.0
C360 C 0.22976 0.25371 0.45643 0.0
C361 C 0.1107 0.15955 0.45312 0.0
C362 C 0.10342 0.17088 0.38311 0.0
C363 C 0.095 0.12421 0.40633 0.0
C364 C 0.10266 0.1322 0.44506 0.0
C365 C 0.09504 0.14353 0.37505 0.0
C366 C 0.11138 0.17879 0.42177 0.0
C367 C 0.11816 0.16759 0.49432 0.0
O368 O 0.17267 0.18893 0.58484 0.0
O369 O 0.14261 0.2228 0.58251 0.0
O370 O 0.11244 0.19321 0.50469 0.0
O371 O 0.14265 0.1594 0.50661 0.0
H372 H 0.11495 0.16885 0.59956 0.0
H373 H 0.0896 0.14717 0.65445 0.0
H374 H 0.13887 0.19364 0.73971 0.0
H375 H 0.16444 0.21482 0.68452 0.0
H376 H 0.2383 0.29299 0.5572 0.0
H377 H 0.20046 0.2595 0.54861 0.0
H378 H 0.26574 0.27549 0.43678 0.0
H379 H 0.22749 0.24283 0.4282 0.0
H380 H 0.10386 0.18612 0.35948 0.0
H381 H 0.08836 0.10308 0.40106 0.0
H382 H 0.10207 0.11707 0.46884 0.0
H383 H 0.11783 0.19996 0.42719 0.0
C384 C 0.80288 0.13481 0.63573 0.0
C385 C 0.81896 0.11114 0.62914 0.0
C386 C 0.82409 0.10478 0.70099 0.0
C387 C 0.82943 0.09621 0.66149 0.0
C388 C 0.80765 0.12838 0.70732 0.0
C389 C 0.79716 0.14326 0.67492 0.0
U390 U 0.80257 0.15049 0.52483 0.0
O391 O 0.76844 0.1625 0.48479 0.0
O392 O 0.80413 0.19017 0.49324 0.0
C393 C 0.77907 0.18714 0.47839 0.0
C394 C 0.79289 0.15129 0.60194 0.0
C395 C 0.76033 0.21043 0.48572 0.0
C396 C 0.73853 0.24289 0.53133 0.0
C397 C 0.75589 0.22027 0.5247 0.0
C398 C 0.72945 0.24565 0.46013 0.0
C399 C 0.72522 0.25597 0.49908 0.0
C400 C 0.7469 0.2231 0.45354 0.0
C401 C 0.8476 0.10633 0.45565 0.0
C402 C 0.86291 0.11929 0.38909 0.0
C403 C 0.86748 0.07191 0.41141 0.0
C404 C 0.85569 0.07905 0.44805 0.0
C405 C 0.8716 0.09199 0.38162 0.0
C406 C 0.85096 0.12639 0.4258 0.0
C407 C 0.83634 0.1134 0.49516 0.0
O408 O 0.81182 0.16679 0.58489 0.0
O409 O 0.7771 0.138 0.5761 0.0
O410 O 0.80971 0.10887 0.49988 0.0
O411 O 0.84475 0.13707 0.51053 0.0
H412 H 0.82359 0.10436 0.59896 0.0
H413 H 0.84166 0.07793 0.65554 0.0
H414 H 0.80343 0.13576 0.7373 0.0
H415 H 0.78489 0.16159 0.68046 0.0
H416 H 0.73596 0.25043 0.56163 0.0
H417 H 0.76608 0.21061 0.54993 0.0
H418 H 0.71913 0.25486 0.43469 0.0
H419 H 0.74997 0.2156 0.4233 0.0
H420 H 0.86587 0.13528 0.36695 0.0
H421 H 0.87328 0.05056 0.4064 0.0
H422 H 0.85305 0.06326 0.47063 0.0
H423 H 0.84468 0.14758 0.43107 0.0
H424 H 0.11461 0.10923 0.11206 0.0
H425 H 0.2318 0.19438 0.99609 0.0
H426 H 0.1269 0.10683 0.9842 0.0
H427 H 0.2155 0.20575 0.12195 0.0
H428 H 0.19326 0.16196 0.99209 0.0
H429 H 0.15128 0.14438 0.11733 0.0
C430 C 0.12486 0.11614 0.08513 0.0
C431 C 0.1177 0.10487 0.04767 0.0
C432 C 0.198 0.17158 0.02063 0.0
C433 C 0.15968 0.14493 0.05352 0.0
C434 C 0.21998 0.19029 0.02287 0.0
C435 C 0.22695 0.203 0.05938 0.0
C436 C 0.1828 0.16528 0.05515 0.0
C437 C 0.21114 0.19625 0.09324 0.0
C438 C 0.1458 0.13618 0.08816 0.0
C439 C 0.13172 0.11469 0.01379 0.0
N440 N 0.18983 0.17783 0.09033 0.0
N441 N 0.15201 0.13398 0.01758 0.0
H442 H 0.8947 0.12853 0.08816 0.0
H443 H 0.78313 0.20463 0.94968 0.0
H444 H 0.88049 0.10893 0.96366 0.0
H445 H 0.80962 0.23679 0.06432 0.0
H446 H 0.81428 0.16557 0.9583 0.0
H447 H 0.85866 0.16404 0.08411 0.0
C448 C 0.88378 0.13143 0.06015 0.0
C449 C 0.8908 0.11591 0.02609 0.0
C450 C 0.81325 0.18113 0.98164 0.0
C451 C 0.84969 0.15643 0.02128 0.0
C452 C 0.79559 0.20358 0.97662 0.0
C453 C 0.79394 0.22429 0.00609 0.0
C454 C 0.82941 0.17916 0.01648 0.0
C455 C 0.81007 0.22129 0.04088 0.0
C456 C 0.86334 0.15179 0.05782 0.0
C457 C 0.87599 0.12059 0.99057 0.0
N458 N 0.82722 0.19921 0.04504 0.0
N459 N 0.85626 0.14047 0.98908 0.0
H460 H 0.87597 0.90529 0.0909 0.0
H461 H 0.79386 0.79742 0.95145 0.0
H462 H 0.89196 0.89242 0.96523 0.0
H463 H 0.76558 0.82075 0.06915 0.0
H464 H 0.8333 0.8284 0.95953 0.0
H465 H 0.83898 0.87039 0.08707 0.0
C466 C 0.87189 0.89499 0.06264 0.0
C467 C 0.88696 0.90197 0.02826 0.0
C468 C 0.8185 0.82678 0.98366 0.0
C469 C 0.84483 0.86213 0.02373 0.0
C470 C 0.79583 0.80919 0.97896 0.0
C471 C 0.77609 0.80671 0.00943 0.0
C472 C 0.82169 0.84207 0.01918 0.0
C473 C 0.7803 0.82192 0.0449 0.0
C474 C 0.85072 0.87518 0.06046 0.0
C475 C 0.88076 0.88796 0.99244 0.0
N476 N 0.80258 0.83907 0.04874 0.0
N477 N 0.8602 0.86881 0.99115 0.0
H478 H 0.1111 0.88434 0.08374 0.0
H479 H 0.1887 0.77954 0.93719 0.0
H480 H 0.1081 0.88872 0.95477 0.0
H481 H 0.20987 0.78667 0.06241 0.0
H482 H 0.15667 0.81787 0.94476 0.0
H483 H 0.14549 0.84723 0.07825 0.0
C484 C 0.11778 0.87771 0.05435 0.0
C485 C 0.10655 0.88965 0.01969 0.0
C486 C 0.16838 0.81116 0.97061 0.0
C487 C 0.14552 0.84711 0.01327 0.0
C488 C 0.18682 0.7893 0.96626 0.0
C489 C 0.20229 0.77995 0.9991 0.0
C490 C 0.16508 0.8238 0.00817 0.0
C491 C 0.19825 0.79301 0.0363 0.0
C492 C 0.13736 0.85652 0.05126 0.0
C493 C 0.11601 0.88017 0.98239 0.0
N494 N 0.18002 0.81428 0.03985 0.0
N495 N 0.13474 0.85941 0.98023 0.0
H496 H 0.61349 0.61478 0.48242 0.0
H497 H 0.73096 0.68499 0.61794 0.0
H498 H 0.62218 0.59824 0.60862 0.0
H499 H 0.71167 0.71059 0.49752 0.0
H500 H 0.69191 0.65273 0.6154 0.0
H501 H 0.65 0.6494 0.48765 0.0
C502 C 0.62302 0.61846 0.51134 0.0
C503 C 0.61479 0.60339 0.54512 0.0
C504 C 0.69618 0.66548 0.58961 0.0
C505 C 0.65696 0.64316 0.55123 0.0
C506 C 0.71843 0.68403 0.59106 0.0
C507 C 0.72475 0.7006 0.55784 0.0
C508 C 0.68016 0.66332 0.55462 0.0
C509 C 0.70797 0.69799 0.52363 0.0
C510 C 0.64389 0.63832 0.51429 0.0
C511 C 0.62785 0.60932 0.5818 0.0
N512 N 0.68656 0.67969 0.5229 0.0
N513 N 0.64843 0.62861 0.58382 0.0
H514 H 0.3944 0.6271 0.58858 0.0
H515 H 0.28071 0.70098 0.45112 0.0
H516 H 0.37705 0.6044 0.46598 0.0
H517 H 0.30959 0.73537 0.56318 0.0
H518 H 0.31149 0.66171 0.46049 0.0
H519 H 0.35847 0.66273 0.58444 0.0
C520 C 0.38279 0.62933 0.56101 0.0
C521 C 0.38891 0.61292 0.52746 0.0
C522 C 0.31107 0.6778 0.48311 0.0
C523 C 0.34796 0.65359 0.52252 0.0
C524 C 0.29361 0.70037 0.47765 0.0
C525 C 0.29276 0.72176 0.50615 0.0
C526 C 0.32783 0.67642 0.51742 0.0
C527 C 0.30944 0.71934 0.54049 0.0
C528 C 0.36243 0.64977 0.5586 0.0
C529 C 0.37327 0.61677 0.49247 0.0
N530 N 0.32639 0.69715 0.54508 0.0
N531 N 0.35364 0.63675 0.49089 0.0
H532 H 0.38873 0.39351 0.58341 0.0
H533 H 0.27351 0.32415 0.44213 0.0
H534 H 0.38005 0.40948 0.45699 0.0
H535 H 0.28822 0.29728 0.56329 0.0
H536 H 0.31157 0.35692 0.44875 0.0
H537 H 0.35126 0.35928 0.57826 0.0
C538 C 0.37909 0.38977 0.55458 0.0
C539 C 0.38758 0.40449 0.5206 0.0
C540 C 0.30657 0.34384 0.47393 0.0
C541 C 0.34464 0.36556 0.51464 0.0
C542 C 0.28487 0.32498 0.47009 0.0
C543 C 0.27774 0.30769 0.50207 0.0
C544 C 0.32133 0.34568 0.5101 0.0
C545 C 0.29284 0.31032 0.53793 0.0
C546 C 0.35769 0.37025 0.55169 0.0
C547 C 0.37428 0.39874 0.48405 0.0
N548 N 0.31395 0.32893 0.54098 0.0
N549 N 0.35349 0.37987 0.48213 0.0
H550 H 0.60374 0.3729 0.58846 0.0
H551 H 0.72086 0.30267 0.45334 0.0
H552 H 0.62457 0.39945 0.46915 0.0
H553 H 0.68852 0.26517 0.56047 0.0
H554 H 0.68991 0.34178 0.46341 0.0
H555 H 0.63948 0.33717 0.58378 0.0
C556 C 0.61604 0.37147 0.56152 0.0
C557 C 0.61097 0.38905 0.52902 0.0
C558 C 0.68963 0.32504 0.4848 0.0
C559 C 0.65175 0.34825 0.52347 0.0
C560 C 0.70718 0.30257 0.47892 0.0
C561 C 0.70715 0.28039 0.50586 0.0
C562 C 0.67189 0.32549 0.51796 0.0
C563 C 0.68943 0.28185 0.53906 0.0
C564 C 0.63632 0.35099 0.55879 0.0
C565 C 0.62753 0.38622 0.49482 0.0
N566 N 0.67243 0.30396 0.54408 0.0
N567 N 0.64706 0.36615 0.49291 0.0
H568 H 0.98857 0.11696 0.17325 0.0
H569 H 0.1087 0.09738 0.33148 0.0
H570 H 0.05896 0.06519 0.14812 0.0
H571 H 0.05872 0.17107 0.32689 0.0
H572 H 0.08947 0.08297 0.26658 0.0
H573 H 0.01267 0.13527 0.23178 0.0
C574 C 0.00916 0.1094 0.17991 0.0
C575 C 0.02156 0.08903 0.15591 0.0
C576 C 0.08298 0.10243 0.27963 0.0
C577 C 0.04918 0.10983 0.22342 0.0
C578 C 0.09379 0.11056 0.31669 0.0
C579 C 0.08521 0.13541 0.33458 0.0
C580 C 0.06308 0.11901 0.26076 0.0
C581 C 0.06602 0.15185 0.31404 0.0
C582 C 0.02293 0.11998 0.21333 0.0
C583 C 0.04839 0.08038 0.16598 0.0
N584 N 0.05536 0.14321 0.27845 0.0
N585 N 0.06119 0.09052 0.19932 0.0
H586 H 0.91659 0.06672 0.1315 0.0
H587 H 0.91512 0.05674 0.37023 0.0
H588 H 0.94464 0.99606 0.1984 0.0
H589 H 0.85922 0.10985 0.30535 0.0
H590 H 0.93456 0.04112 0.30696 0.0
H591 H 0.90388 0.08956 0.19483 0.0
C592 C 0.92048 0.05627 0.15948 0.0
C593 C 0.93149 0.02946 0.15983 0.0
C594 C 0.91812 0.0563 0.30658 0.0
C595 C 0.91723 0.05524 0.23181 0.0
C596 C 0.90686 0.06511 0.3427 0.0
C597 C 0.88507 0.08425 0.34321 0.0
C598 C 0.90773 0.06678 0.27048 0.0
C599 C 0.87596 0.09506 0.30647 0.0
C600 C 0.91308 0.06917 0.19547 0.0
C601 C 0.93592 0.01664 0.19681 0.0
N602 N 0.8872 0.08601 0.27151 0.0
N603 N 0.92878 0.02962 0.23125 0.0
H604 H 0.93679 0.93389 0.13118 0.0
H605 H 0.94213 0.84213 0.32964 0.0
H606 H 0.01172 0.89957 0.18041 0.0
H607 H 0.86584 0.8695 0.27543 0.0
H608 H 0.96793 0.86484 0.27646 0.0
H609 H 0.91044 0.91236 0.18484 0.0
C610 C 0.94775 0.92189 0.1531 0.0
C611 C 0.97652 0.91847 0.1508 0.0
C612 C 0.94554 0.8659 0.27611 0.0
C613 C 0.94648 0.89372 0.2128 0.0
C614 C 0.93078 0.85304 0.30664 0.0
C615 C 0.90174 0.85396 0.30712 0.0
C616 C 0.93125 0.87991 0.24573 0.0
C617 C 0.88819 0.86803 0.27607 0.0
C618 C 0.93266 0.90954 0.18386 0.0
C619 C 0.98954 0.9027 0.18061 0.0
N620 N 0.90305 0.88051 0.24669 0.0
N621 N 0.97445 0.89094 0.21026 0.0
H622 H 0.08642 0.93935 0.12659 0.0
H623 H 0.07868 0.93746 0.36559 0.0
H624 H 0.04844 0.00284 0.19854 0.0
H625 H 0.14161 0.89327 0.30021 0.0
H626 H 0.05935 0.95356 0.30252 0.0
H627 H 0.09869 0.91432 0.18819 0.0
C628 C 0.08017 0.94765 0.15525 0.0
C629 C 0.06653 0.97315 0.15768 0.0
C630 C 0.0773 0.94021 0.30194 0.0
C631 C 0.08036 0.94494 0.22766 0.0
C632 C 0.08848 0.93114 0.33797 0.0
C633 C 0.11221 0.91446 0.33834 0.0
C634 C 0.08977 0.93251 0.26575 0.0
C635 C 0.12337 0.90617 0.3014 0.0
C636 C 0.08735 0.93355 0.19029 0.0
C637 C 0.05919 0.98332 0.19547 0.0
N638 N 0.11219 0.91549 0.26653 0.0
N639 N 0.06622 0.96922 0.22892 0.0
H640 H 0.0453 0.97337 0.8578 0.0
H641 H 0.18744 0.92045 0.76161 0.0
H642 H 0.12606 0.99231 0.9065 0.0
H643 H 0.10706 0.90421 0.70966 0.0
H644 H 0.16512 0.94548 0.81625 0.0
H645 H 0.0673 0.9465 0.80464 0.0
C646 C 0.06764 0.9718 0.85741 0.0
C647 C 0.08383 0.98513 0.88666 0.0
C648 C 0.15235 0.93644 0.79292 0.0
C649 C 0.10921 0.95457 0.82572 0.0
C650 C 0.16508 0.92201 0.7618 0.0
C651 C 0.14911 0.91021 0.73095 0.0
C652 C 0.12339 0.93906 0.79334 0.0
C653 C 0.12023 0.91326 0.73251 0.0
C654 C 0.08021 0.95651 0.82697 0.0
C655 C 0.11273 0.98245 0.88456 0.0
N656 N 0.1083 0.92736 0.76317 0.0
N657 N 0.12447 0.96753 0.8546 0.0
H658 H 0.06553 0.09064 0.92451 0.0
H659 H 0.0565 0.15819 0.70652 0.0
H660 H 0.98915 0.10129 0.85898 0.0
H661 H 0.13286 0.14917 0.77254 0.0
H662 H 0.0317 0.13621 0.76141 0.0
H663 H 0.09077 0.11081 0.86849 0.0
C664 C 0.05406 0.09714 0.89831 0.0
C665 C 0.02514 0.09436 0.89653 0.0
C666 C 0.05388 0.13901 0.76391 0.0
C667 C 0.05394 0.11751 0.83228 0.0
C668 C 0.06809 0.15145 0.73246 0.0
C669 C 0.09684 0.15553 0.73486 0.0
C670 C 0.06848 0.13053 0.79811 0.0
C671 C 0.11066 0.14676 0.76957 0.0
C672 C 0.0685 0.10868 0.86634 0.0
C673 C 0.01141 0.10308 0.86174 0.0
N674 N 0.09636 0.13467 0.79978 0.0
N675 N 0.02592 0.11431 0.83107 0.0
H676 H 0.85329 0.02859 0.93138 0.0
H677 H 0.87596 0.08231 0.70772 0.0
H678 H 0.92718 0.01278 0.86285 0.0
H679 H 0.79968 0.09259 0.77291 0.0
H680 H 0.89545 0.05771 0.76476 0.0
H681 H 0.83394 0.05353 0.8745 0.0
C682 C 0.86549 0.0304 0.9044 0.0
C683 C 0.89188 0.0185 0.90186 0.0
C684 C 0.87444 0.06533 0.7666 0.0
C685 C 0.8698 0.04703 0.83654 0.0
C686 C 0.86321 0.07923 0.73391 0.0
C687 C 0.83608 0.08952 0.73542 0.0
C688 C 0.85849 0.06168 0.8012 0.0
C689 C 0.82078 0.08533 0.77053 0.0
C690 C 0.85439 0.04462 0.87189 0.0
C691 C 0.90673 0.02157 0.86614 0.0
N692 N 0.83219 0.07174 0.80199 0.0
N693 N 0.89547 0.03551 0.83489 0.0
H694 H 0.00245 0.94538 0.85054 0.0
H695 H 0.92964 0.82515 0.72184 0.0
H696 H 0.98773 0.86293 0.89487 0.0
H697 H 0.94463 0.90748 0.67729 0.0
H698 H 0.94974 0.83897 0.78606 0.0
H699 H 0.98054 0.93218 0.7873 0.0
C700 C 0.99464 0.9245 0.847 0.0
C701 C 0.99708 0.9052 0.87802 0.0
C702 C 0.94861 0.85403 0.76225 0.0
C703 C 0.97183 0.88996 0.80569 0.0
C704 C 0.93697 0.84619 0.72563 0.0
C705 C 0.93548 0.86515 0.69403 0.0
C706 C 0.95882 0.88106 0.76744 0.0
C707 C 0.94571 0.89204 0.70056 0.0
C708 C 0.98208 0.91698 0.81087 0.0
C709 C 0.98637 0.87849 0.87177 0.0
N710 N 0.95695 0.89917 0.73648 0.0
N711 N 0.97427 0.87165 0.83633 0.0
H712 H 0.49149 0.61932 0.66611 0.0
H713 H 0.60881 0.59803 0.82859 0.0
H714 H 0.55872 0.56238 0.6474 0.0
H715 H 0.55994 0.67237 0.82146 0.0
H716 H 0.59039 0.58348 0.76334 0.0
H717 H 0.51593 0.63841 0.72377 0.0
C718 C 0.51149 0.61083 0.67395 0.0
C719 C 0.52283 0.58874 0.65211 0.0
C720 C 0.58399 0.60312 0.77587 0.0
C721 C 0.55087 0.61045 0.7187 0.0
C722 C 0.59434 0.61135 0.81316 0.0
C723 C 0.58578 0.63638 0.83053 0.0
C724 C 0.56459 0.61984 0.75614 0.0
C725 C 0.56721 0.65299 0.80909 0.0
C726 C 0.52548 0.62184 0.7069 0.0
C727 C 0.54898 0.57895 0.66358 0.0
N728 N 0.557 0.64427 0.77326 0.0
N729 N 0.56196 0.58957 0.69647 0.0
H730 H 0.40235 0.48738 0.68014 0.0
H731 H 0.39101 0.62199 0.81786 0.0
H732 H 0.43236 0.56695 0.64112 0.0
H733 H 0.35278 0.54328 0.84341 0.0
H734 H 0.40545 0.60385 0.7524 0.0
H735 H 0.38326 0.50891 0.73915 0.0
C736 C 0.40501 0.5095 0.68389 0.0
C737 C 0.41957 0.52527 0.65572 0.0
C738 C 0.39375 0.59068 0.7723 0.0
C739 C 0.39757 0.5503 0.72425 0.0
C740 C 0.38544 0.60102 0.80957 0.0
C741 C 0.371 0.58398 0.83638 0.0
C742 C 0.3875 0.56316 0.7619 0.0
C743 C 0.36441 0.55696 0.82416 0.0
C744 C 0.39398 0.52184 0.71781 0.0
C745 C 0.42188 0.5539 0.66235 0.0
N746 N 0.37283 0.54741 0.78804 0.0
N747 N 0.41122 0.56552 0.6962 0.0
H748 H 0.43687 0.43371 0.63322 0.0
H749 H 0.42935 0.32075 0.80628 0.0
H750 H 0.50815 0.38974 0.67745 0.0
H751 H 0.3671 0.3837 0.79164 0.0
H752 H 0.45595 0.34164 0.75212 0.0
H753 H 0.40861 0.41189 0.68483 0.0
C754 C 0.44665 0.41967 0.65378 0.0
C755 C 0.47504 0.41392 0.65111 0.0
C756 C 0.43645 0.35086 0.7607 0.0
C757 C 0.44269 0.38831 0.70976 0.0
C758 C 0.42116 0.33883 0.7914 0.0
C759 C 0.39599 0.35053 0.8035 0.0
C760 C 0.4264 0.37462 0.74159 0.0
C761 C 0.38654 0.37418 0.78347 0.0
C762 C 0.43047 0.40713 0.68321 0.0
C763 C 0.48639 0.39498 0.67834 0.0
N764 N 0.40171 0.38543 0.7534 0.0
N765 N 0.4702 0.38284 0.70638 0.0
H766 H 0.5441 0.49999 0.69784 0.0
H767 H 0.64432 0.39349 0.80325 0.0
H768 H 0.58846 0.43852 0.63016 0.0
H769 H 0.57914 0.43676 0.86522 0.0
H770 H 0.62443 0.40852 0.73942 0.0
H771 H 0.55671 0.47632 0.75945 0.0
C772 C 0.55622 0.4812 0.69604 0.0
C773 C 0.56523 0.47107 0.65903 0.0
C774 C 0.61437 0.41445 0.76704 0.0
C775 C 0.58035 0.44416 0.72947 0.0
C776 C 0.62567 0.40585 0.8035 0.0
C777 C 0.61366 0.41424 0.8398 0.0
C778 C 0.59105 0.43171 0.76692 0.0
C779 C 0.5896 0.43041 0.83815 0.0
C780 C 0.5634 0.46766 0.73118 0.0
C781 C 0.58088 0.44671 0.65818 0.0
N782 N 0.5793 0.43882 0.80244 0.0
N783 N 0.58837 0.43425 0.69305 0.0
H784 H 0.5881 0.51515 0.3604 0.0
H785 H 0.654 0.37463 0.27663 0.0
H786 H 0.60284 0.44296 0.43278 0.0
H787 H 0.64811 0.4495 0.2073 0.0
H788 H 0.63298 0.39867 0.33311 0.0
H789 H 0.60727 0.49062 0.30273 0.0
C790 C 0.59524 0.4941 0.36417 0.0
C791 C 0.59391 0.48111 0.40157 0.0
C792 C 0.63628 0.40986 0.30555 0.0
C793 C 0.6159 0.45294 0.33566 0.0
C794 C 0.64846 0.39618 0.27332 0.0
C795 C 0.65299 0.41006 0.23711 0.0
C796 C 0.62846 0.43767 0.30168 0.0
C797 C 0.64479 0.43785 0.23443 0.0
C798 C 0.60624 0.48013 0.33122 0.0
C799 C 0.60347 0.45381 0.40461 0.0
N800 N 0.63297 0.45074 0.26628 0.0
N801 N 0.61407 0.44067 0.37214 0.0
H802 H 0.56129 0.59197 0.42544 0.0
H803 H 0.5525 0.65402 0.20408 0.0
H804 H 0.48556 0.5965 0.35683 0.0
H805 H 0.62841 0.64826 0.27198 0.0
H806 H 0.52783 0.63192 0.25904 0.0
H807 H 0.58641 0.61151 0.36893 0.0
C808 C 0.54993 0.59701 0.39846 0.0
C809 C 0.52123 0.59271 0.39596 0.0
C810 C 0.54989 0.63545 0.26191 0.0
C811 C 0.54991 0.61517 0.3311 0.0
C812 C 0.56404 0.64795 0.23043 0.0
C813 C 0.59261 0.65305 0.23337 0.0
C814 C 0.56438 0.62795 0.29668 0.0
C815 C 0.60634 0.6451 0.26857 0.0
C816 C 0.56431 0.60818 0.36618 0.0
C817 C 0.50766 0.59952 0.36015 0.0
N818 N 0.59211 0.63298 0.29881 0.0
N819 N 0.5221 0.61049 0.3292 0.0
H820 H 0.43455 0.5271 0.37102 0.0
H821 H 0.30162 0.59799 0.27146 0.0
H822 H 0.35439 0.5308 0.42741 0.0
H823 H 0.38232 0.59685 0.21652 0.0
H824 H 0.32083 0.57408 0.32936 0.0
H825 H 0.41613 0.55352 0.3148 0.0
C826 C 0.4131 0.53355 0.37167 0.0
C827 C 0.39594 0.52657 0.40389 0.0
C828 C 0.33436 0.57909 0.30467 0.0
C829 C 0.37469 0.55673 0.33953 0.0
C830 C 0.32342 0.59287 0.27165 0.0
C831 C 0.34037 0.59948 0.23902 0.0
C832 C 0.36249 0.57181 0.30518 0.0
C833 C 0.36839 0.59187 0.24072 0.0
C834 C 0.40259 0.54862 0.33953 0.0
C835 C 0.36836 0.53561 0.40317 0.0
N836 N 0.37855 0.57846 0.27322 0.0
N837 N 0.35857 0.5501 0.37144 0.0
H838 H 0.51381 0.44156 0.35046 0.0
H839 H 0.43495 0.32482 0.22222 0.0
H840 H 0.49223 0.36102 0.3963 0.0
H841 H 0.45314 0.40649 0.17753 0.0
H842 H 0.45628 0.33764 0.286 0.0
H843 H 0.49242 0.42893 0.28648 0.0
C844 C 0.50458 0.42123 0.3471 0.0
C845 C 0.50479 0.40234 0.37885 0.0
C846 C 0.45561 0.35277 0.26225 0.0
C847 C 0.48029 0.38774 0.30567 0.0
C848 C 0.44327 0.34551 0.22586 0.0
C849 C 0.44219 0.36459 0.19438 0.0
C850 C 0.467 0.37934 0.26734 0.0
C851 C 0.45379 0.39096 0.20072 0.0
C852 C 0.49237 0.41403 0.31055 0.0
C853 C 0.49256 0.37627 0.37271 0.0
N854 N 0.46568 0.39754 0.23643 0.0
N855 N 0.48082 0.36976 0.33689 0.0
loop_
_geom_bond_atom_site_label_1
_geom_bond_atom_site_label_2
_geom_bond_distance
_geom_bond_site_symmetry_2
_ccdc_geom_bond_type
Zn0 O2 1.933 1_556 S
Zn0 O20 1.985 . S
Zn0 O31 1.955 . S
Zn1 O2 1.911 . S
Zn1 O21 1.970 . S
Zn1 O37 1.945 . S
Zn1 O44 1.981 . S
O2 Zn0 1.933 1_554 S
O2 Zn1 1.911 . S
O2 H3 0.841 1_655 S
H3 O2 0.841 1_455 S
C4 O5 1.246 . S
C4 O33 1.276 1_545 S
O5 C4 1.246 . S
Zn6 O8 1.911 . S
Zn6 O23 1.970 . S
Zn6 O40 1.945 . S
Zn6 O47 1.981 . S
Zn7 O8 1.933 1_556 S
Zn7 O22 1.985 . S
Zn7 O29 1.955 . S
O8 Zn6 1.911 . S
O8 Zn7 1.933 1_554 S
O8 H9 0.841 1_455 S
H9 O8 0.841 1_655 S
Zn10 O11 1.933 1_556 S
Zn10 O24 1.985 . S
Zn10 O33 1.955 . S
O11 Zn10 1.933 1_554 S
O11 Zn12 1.911 . S
O11 H13 0.841 1_565 S
Zn12 O11 1.911 . S
Zn12 O25 1.970 . S
Zn12 O41 1.981 . S
Zn12 O43 1.945 . S
H13 O11 0.841 1_545 S
Zn14 O15 1.933 1_556 S
Zn14 O27 1.985 . S
Zn14 O35 1.955 . S
O15 Zn14 1.933 1_554 S
O15 H16 0.841 1_545 S
O15 Zn17 1.911 . S
H16 O15 0.841 1_565 S
Zn17 O15 1.911 . S
Zn17 O28 1.970 . S
Zn17 O38 1.981 . S
Zn17 O46 1.945 . S
C18 O19 1.246 . S
C18 O35 1.276 1_565 S
O19 C18 1.246 . S
O20 Zn0 1.985 . S
O20 C30 1.245 1_556 S
O21 Zn1 1.970 . S
O21 C30 1.263 . S
O22 Zn7 1.985 . S
O22 C34 1.245 1_556 S
O23 Zn6 1.970 . S
O23 C34 1.263 . S
O24 Zn10 1.985 . S
O24 C39 1.245 1_556 S
O25 Zn12 1.970 . S
O25 C39 1.263 . S
C26 O37 1.262 1_455 S
C26 O38 1.245 . S
O27 Zn14 1.985 . S
O27 C45 1.245 1_556 S
O28 Zn17 1.970 . S
O28 C45 1.263 . S
O29 Zn7 1.955 . S
O29 C48 1.276 1_455 S
C30 O20 1.245 1_554 S
C30 O21 1.263 . S
O31 Zn0 1.955 . S
O31 C50 1.276 1_655 S
C32 O40 1.262 1_655 S
C32 O41 1.245 . S
O33 C4 1.276 1_565 S
O33 Zn10 1.955 . S
C34 O22 1.245 1_554 S
C34 O23 1.263 . S
O35 Zn14 1.955 . S
O35 C18 1.276 1_545 S
C36 O43 1.262 1_545 S
C36 O44 1.245 . S
O37 Zn1 1.945 . S
O37 C26 1.262 1_655 S
O38 Zn17 1.981 . S
O38 C26 1.245 . S
C39 O24 1.245 1_554 S
C39 O25 1.263 . S
O40 Zn6 1.945 . S
O40 C32 1.262 1_455 S
O41 Zn12 1.981 . S
O41 C32 1.245 . S
C42 O46 1.262 1_565 S
C42 O47 1.245 . S
O43 Zn12 1.945 . S
O43 C36 1.262 1_565 S
O44 Zn1 1.981 . S
O44 C36 1.245 . S
C45 O27 1.245 1_554 S
C45 O28 1.263 . S
O46 Zn17 1.945 . S
O46 C42 1.262 1_545 S
O47 Zn6 1.981 . S
O47 C42 1.245 . S
C48 O29 1.276 1_655 S
C48 O49 1.246 . S
O49 C48 1.246 . S
C50 O31 1.276 1_455 S
C50 O51 1.246 . S
O51 C50 1.246 . S
Zn52 O54 1.933 . S
Zn52 O72 1.985 . S
Zn52 O83 1.955 . S
Zn53 O54 1.911 . S
Zn53 O73 1.970 . S
Zn53 O89 1.945 . S
Zn53 O96 1.981 . S
O54 Zn52 1.933 . S
O54 Zn53 1.911 . S
O54 H55 0.841 . S
H55 O54 0.841 . S
C56 O57 1.246 . S
C56 O85 1.276 . S
O57 C56 1.246 . S
Zn58 O60 1.911 . S
Zn58 O75 1.970 . S
Zn58 O92 1.945 . S
Zn58 O99 1.981 . S
Zn59 O60 1.933 . S
Zn59 O74 1.985 . S
Zn59 O81 1.955 . S
O60 Zn58 1.911 . S
O60 Zn59 1.933 . S
O60 H61 0.841 . S
H61 O60 0.841 . S
Zn62 O63 1.933 . S
Zn62 O76 1.985 . S
Zn62 O85 1.955 . S
O63 Zn62 1.933 . S
O63 Zn64 1.911 . S
O63 H65 0.841 . S
Zn64 O63 1.911 . S
Zn64 O77 1.970 . S
Zn64 O93 1.981 . S
Zn64 O95 1.945 . S
H65 O63 0.841 . S
Zn66 O67 1.933 . S
Zn66 O79 1.985 . S
Zn66 O87 1.955 . S
O67 Zn66 1.933 . S
O67 H68 0.841 . S
O67 Zn69 1.911 . S
H68 O67 0.841 . S
Zn69 O67 1.911 . S
Zn69 O80 1.970 . S
Zn69 O90 1.981 . S
Zn69 O98 1.945 . S
C70 O71 1.246 . S
C70 O87 1.276 . S
O71 C70 1.246 . S
O72 Zn52 1.985 . S
O72 C82 1.245 . S
O73 Zn53 1.970 . S
O73 C82 1.263 . S
O74 Zn59 1.985 . S
O74 C86 1.245 . S
O75 Zn58 1.970 . S
O75 C86 1.263 . S
O76 Zn62 1.985 . S
O76 C91 1.245 . S
O77 Zn64 1.970 . S
O77 C91 1.263 . S
C78 O89 1.262 . S
C78 O90 1.245 . S
O79 Zn66 1.985 . S
O79 C97 1.245 . S
O80 Zn69 1.970 . S
O80 C97 1.263 . S
O81 Zn59 1.955 . S
O81 C100 1.276 . S
C82 O72 1.245 . S
C82 O73 1.263 . S
O83 Zn52 1.955 . S
O83 C102 1.276 . S
C84 O92 1.262 . S
C84 O93 1.245 . S
O85 C56 1.276 . S
O85 Zn62 1.955 . S
C86 O74 1.245 . S
C86 O75 1.263 . S
O87 Zn66 1.955 . S
O87 C70 1.276 . S
C88 O95 1.262 . S
C88 O96 1.245 . S
O89 Zn53 1.945 . S
O89 C78 1.262 . S
O90 Zn69 1.981 . S
O90 C78 1.245 . S
C91 O76 1.245 . S
C91 O77 1.263 . S
O92 Zn58 1.945 . S
O92 C84 1.262 . S
O93 Zn64 1.981 . S
O93 C84 1.245 . S
C94 O98 1.262 . S
C94 O99 1.245 . S
O95 Zn64 1.945 . S
O95 C88 1.262 . S
O96 Zn53 1.981 . S
O96 C88 1.245 . S
C97 O79 1.245 . S
C97 O80 1.263 . S
O98 Zn69 1.945 . S
O98 C94 1.262 . S
O99 Zn58 1.981 . S
O99 C94 1.245 . S
C100 O81 1.276 . S
C100 O101 1.246 . S
O101 C100 1.246 . S
C102 O83 1.276 . S
C102 O103 1.246 . S
O103 C102 1.246 . S
C104 C105 1.264 . S
C104 C109 1.479 . S
C104 C114 1.465 . S
C105 C104 1.264 . S
C105 C107 1.339 . S
C105 H132 0.931 . S
C106 C107 1.395 . S
C106 C108 1.320 . S
C107 C105 1.339 . S
C107 C106 1.395 . S
C107 H133 0.929 . S
C108 C106 1.320 . S
C108 C109 1.405 . S
C108 H134 0.930 . S
C109 C104 1.479 . S
C109 C108 1.405 . S
C109 H135 0.931 . S
U110 O111 2.454 1_554 S
U110 O112 2.458 . S
U110 C113 2.984 . S
U110 C114 2.847 1_554 S
U110 C127 2.882 . S
U110 O128 2.441 1_554 S
U110 O129 2.420 1_554 S
U110 O130 2.455 . S
U110 O131 2.449 . S
O111 U110 2.454 1_556 S
O111 C113 1.353 1_556 S
O112 U110 2.458 . S
O112 C113 1.286 . S
C113 U110 2.984 . S
C113 O111 1.353 1_554 S
C113 O112 1.286 . S
C113 C115 1.363 . S
C114 C104 1.465 . S
C114 U110 2.847 1_556 S
C114 O128 1.249 . S
C114 O129 1.202 . S
C115 C113 1.363 . S
C115 C117 1.408 1_554 S
C115 C120 1.342 . S
C116 C117 1.310 . S
C116 C119 1.461 1_556 S
C116 H136 0.932 . S
C117 C115 1.408 1_556 S
C117 C116 1.310 . S
C117 H137 0.930 . S
C118 C119 1.474 . S
C118 C120 1.285 . S
C118 H138 0.929 . S
C119 C116 1.461 1_554 S
C119 C118 1.474 . S
C120 C115 1.342 . S
C120 C118 1.285 . S
C120 H139 0.930 . S
C121 C124 1.424 . S
C121 C126 1.245 . S
C121 C127 1.428 . S
C122 C125 1.260 . S
C122 C126 1.477 . S
C122 H140 0.932 . S
C123 C124 1.384 . S
C123 C125 1.479 . S
C123 H141 0.929 . S
C124 C121 1.424 . S
C124 C123 1.384 . S
C124 H142 0.928 . S
C125 C122 1.260 . S
C125 C123 1.479 . S
C126 C121 1.245 . S
C126 C122 1.477 . S
C126 H143 0.932 . S
C127 U110 2.882 . S
C127 C121 1.428 . S
C127 O130 1.301 . S
C127 O131 1.282 . S
O128 U110 2.441 1_556 S
O128 C114 1.249 . S
O129 U110 2.420 1_556 S
O129 C114 1.202 . S
O130 U110 2.455 . S
O130 C127 1.301 . S
O131 U110 2.449 . S
O131 C127 1.282 . S
H132 C105 0.931 . S
H133 C107 0.929 . S
H134 C108 0.930 . S
H135 C109 0.931 . S
H136 C116 0.932 . S
H137 C117 0.930 . S
H138 C118 0.929 . S
H139 C120 0.930 . S
H140 C122 0.932 . S
H141 C123 0.929 . S
H142 C124 0.928 . S
H143 C126 0.932 . S
C144 C145 1.264 . S
C144 C149 1.479 . S
C144 C154 1.465 . S
C145 C144 1.264 . S
C145 C147 1.339 . S
C145 H172 0.931 . S
C146 C147 1.395 . S
C146 C148 1.320 . S
C147 C145 1.339 . S
C147 C146 1.395 . S
C147 H173 0.929 . S
C148 C146 1.320 . S
C148 C149 1.405 . S
C148 H174 0.930 . S
C149 C144 1.479 . S
C149 C148 1.405 . S
C149 H175 0.931 . S
U150 O151 2.454 . S
U150 O152 2.458 1_554 S
U150 C153 2.984 . S
U150 C154 2.847 . S
U150 C167 2.882 1_554 S
U150 O168 2.441 . S
U150 O169 2.420 . S
U150 O170 2.455 1_554 S
U150 O171 2.449 1_554 S
O151 U150 2.454 . S
O151 C153 1.353 . S
O152 U150 2.458 1_556 S
O152 C153 1.286 1_556 S
C153 U150 2.984 . S
C153 O151 1.353 . S
C153 O152 1.286 1_554 S
C153 C155 1.363 . S
C154 C144 1.465 . S
C154 U150 2.847 . S
C154 O168 1.249 . S
C154 O169 1.202 . S
C155 C153 1.363 . S
C155 C157 1.408 . S
C155 C160 1.342 1_554 S
C156 C157 1.310 . S
C156 C159 1.461 . S
C156 H176 0.932 . S
C157 C155 1.408 . S
C157 C156 1.310 . S
C157 H177 0.930 . S
C158 C159 1.474 1_556 S
C158 C160 1.285 . S
C158 H178 0.929 . S
C159 C156 1.461 . S
C159 C158 1.474 1_554 S
C160 C155 1.342 1_556 S
C160 C158 1.285 . S
C160 H179 0.930 . S
C161 C164 1.424 . S
C161 C166 1.245 . S
C161 C167 1.428 . S
C162 C165 1.260 . S
C162 C166 1.477 . S
C162 H180 0.932 . S
C163 C164 1.384 . S
C163 C165 1.479 . S
C163 H181 0.929 . S
C164 C161 1.424 . S
C164 C163 1.384 . S
C164 H182 0.928 . S
C165 C162 1.260 . S
C165 C163 1.479 . S
C166 C161 1.245 . S
C166 C162 1.477 . S
C166 H183 0.932 . S
C167 U150 2.882 1_556 S
C167 C161 1.428 . S
C167 O170 1.301 . S
C167 O171 1.282 . S
O168 U150 2.441 . S
O168 C154 1.249 . S
O169 U150 2.420 . S
O169 C154 1.202 . S
O170 U150 2.455 1_556 S
O170 C167 1.301 . S
O171 U150 2.449 1_556 S
O171 C167 1.282 . S
H172 C145 0.931 . S
H173 C147 0.929 . S
H174 C148 0.930 . S
H175 C149 0.931 . S
H176 C156 0.932 . S
H177 C157 0.930 . S
H178 C158 0.929 . S
H179 C160 0.930 . S
H180 C162 0.932 . S
H181 C163 0.929 . S
H182 C164 0.928 . S
H183 C166 0.932 . S
C184 C185 1.264 . S
C184 C189 1.479 . S
C184 C194 1.465 . S
C185 C184 1.264 . S
C185 C187 1.339 . S
C185 H212 0.931 . S
C186 C187 1.395 . S
C186 C188 1.320 . S
C187 C185 1.339 . S
C187 C186 1.395 . S
C187 H213 0.929 . S
C188 C186 1.320 . S
C188 C189 1.405 . S
C188 H214 0.930 . S
C189 C184 1.479 . S
C189 C188 1.405 . S
C189 H215 0.931 . S
U190 O191 2.454 . S
U190 O192 2.458 1_554 S
U190 C193 2.984 . S
U190 C194 2.847 . S
U190 C207 2.882 1_554 S
U190 O208 2.441 . S
U190 O209 2.420 . S
U190 O210 2.455 1_554 S
U190 O211 2.449 1_554 S
O191 U190 2.454 . S
O191 C193 1.353 . S
O192 U190 2.458 1_556 S
O192 C193 1.286 1_556 S
C193 U190 2.984 . S
C193 O191 1.353 . S
C193 O192 1.286 1_554 S
C193 C195 1.363 . S
C194 C184 1.465 . S
C194 U190 2.847 . S
C194 O208 1.249 . S
C194 O209 1.202 . S
C195 C193 1.363 . S
C195 C197 1.408 . S
C195 C200 1.342 1_554 S
C196 C197 1.310 . S
C196 C199 1.461 . S
C196 H216 0.932 . S
C197 C195 1.408 . S
C197 C196 1.310 . S
C197 H217 0.930 . S
C198 C199 1.474 1_556 S
C198 C200 1.285 . S
C198 H218 0.929 . S
C199 C196 1.461 . S
C199 C198 1.474 1_554 S
C200 C195 1.342 1_556 S
C200 C198 1.285 . S
C200 H219 0.930 . S
C201 C204 1.424 . S
C201 C206 1.245 . S
C201 C207 1.428 . S
C202 C205 1.260 . S
C202 C206 1.477 . S
C202 H220 0.932 . S
C203 C204 1.384 . S
C203 C205 1.479 . S
C203 H221 0.929 . S
C204 C201 1.424 . S
C204 C203 1.384 . S
C204 H222 0.928 . S
C205 C202 1.260 . S
C205 C203 1.479 . S
C206 C201 1.245 . S
C206 C202 1.477 . S
C206 H223 0.932 . S
C207 U190 2.882 1_556 S
C207 C201 1.428 . S
C207 O210 1.301 . S
C207 O211 1.282 . S
O208 U190 2.441 . S
O208 C194 1.249 . S
O209 U190 2.420 . S
O209 C194 1.202 . S
O210 U190 2.455 1_556 S
O210 C207 1.301 . S
O211 U190 2.449 1_556 S
O211 C207 1.282 . S
H212 C185 0.931 . S
H213 C187 0.929 . S
H214 C188 0.930 . S
H215 C189 0.931 . S
H216 C196 0.932 . S
H217 C197 0.930 . S
H218 C198 0.929 . S
H219 C200 0.930 . S
H220 C202 0.932 . S
H221 C203 0.929 . S
H222 C204 0.928 . S
H223 C206 0.932 . S
C224 C225 1.264 . S
C224 C229 1.479 . S
C224 C234 1.465 . S
C225 C224 1.264 . S
C225 C227 1.339 . S
C225 H252 0.931 . S
C226 C227 1.395 . S
C226 C228 1.320 . S
C227 C225 1.339 . S
C227 C226 1.395 . S
C227 H253 0.929 . S
C228 C226 1.320 . S
C228 C229 1.405 . S
C228 H254 0.930 . S
C229 C224 1.479 . S
C229 C228 1.405 . S
C229 H255 0.931 . S
U230 O231 2.454 . S
U230 O232 2.458 1_554 S
U230 C233 2.984 . S
U230 C234 2.847 . S
U230 C247 2.882 1_554 S
U230 O248 2.441 . S
U230 O249 2.420 . S
U230 O250 2.455 1_554 S
U230 O251 2.449 1_554 S
O231 U230 2.454 . S
O231 C233 1.353 . S
O232 U230 2.458 1_556 S
O232 C233 1.286 1_556 S
C233 U230 2.984 . S
C233 O231 1.353 . S
C233 O232 1.286 1_554 S
C233 C235 1.363 . S
C234 C224 1.465 . S
C234 U230 2.847 . S
C234 O248 1.249 . S
C234 O249 1.202 . S
C235 C233 1.363 . S
C235 C237 1.408 . S
C235 C240 1.342 1_554 S
C236 C237 1.310 . S
C236 C239 1.461 . S
C236 H256 0.932 . S
C237 C235 1.408 . S
C237 C236 1.310 . S
C237 H257 0.930 . S
C238 C239 1.474 1_556 S
C238 C240 1.285 . S
C238 H258 0.929 . S
C239 C236 1.461 . S
C239 C238 1.474 1_554 S
C240 C235 1.342 1_556 S
C240 C238 1.285 . S
C240 H259 0.930 . S
C241 C244 1.424 . S
C241 C246 1.245 . S
C241 C247 1.428 . S
C242 C245 1.260 . S
C242 C246 1.477 . S
C242 H260 0.932 . S
C243 C244 1.384 . S
C243 C245 1.479 . S
C243 H261 0.929 . S
C244 C241 1.424 . S
C244 C243 1.384 . S
C244 H262 0.928 . S
C245 C242 1.260 . S
C245 C243 1.479 . S
C246 C241 1.245 . S
C246 C242 1.477 . S
C246 H263 0.932 . S
C247 U230 2.882 1_556 S
C247 C241 1.428 . S
C247 O250 1.301 . S
C247 O251 1.282 . S
O248 U230 2.441 . S
O248 C234 1.249 . S
O249 U230 2.420 . S
O249 C234 1.202 . S
O250 U230 2.455 1_556 S
O250 C247 1.301 . S
O251 U230 2.449 1_556 S
O251 C247 1.282 . S
H252 C225 0.931 . S
H253 C227 0.929 . S
H254 C228 0.930 . S
H255 C229 0.931 . S
H256 C236 0.932 . S
H257 C237 0.930 . S
H258 C238 0.929 . S
H259 C240 0.930 . S
H260 C242 0.932 . S
H261 C243 0.929 . S
H262 C244 0.928 . S
H263 C246 0.932 . S
C264 C265 1.264 . S
C264 C269 1.479 . S
C264 C274 1.465 . S
C265 C264 1.264 . S
C265 C267 1.339 . S
C265 H292 0.931 . S
C266 C267 1.395 . S
C266 C268 1.320 . S
C267 C265 1.339 . S
C267 C266 1.395 . S
C267 H293 0.929 . S
C268 C266 1.320 . S
C268 C269 1.405 . S
C268 H294 0.930 . S
C269 C264 1.479 . S
C269 C268 1.405 . S
C269 H295 0.931 . S
U270 O271 2.454 . S
U270 O272 2.458 . S
U270 C273 2.984 . S
U270 C274 2.847 . S
U270 C287 2.882 . S
U270 O288 2.441 . S
U270 O289 2.420 . S
U270 O290 2.455 . S
U270 O291 2.449 . S
O271 U270 2.454 . S
O271 C273 1.353 . S
O272 U270 2.458 . S
O272 C273 1.286 . S
C273 U270 2.984 . S
C273 O271 1.353 . S
C273 O272 1.286 . S
C273 C275 1.363 . S
C274 C264 1.465 . S
C274 U270 2.847 . S
C274 O288 1.249 . S
C274 O289 1.202 . S
C275 C273 1.363 . S
C275 C277 1.408 . S
C275 C280 1.342 . S
C276 C277 1.310 . S
C276 C279 1.461 . S
C276 H296 0.932 . S
C277 C275 1.408 . S
C277 C276 1.310 . S
C277 H297 0.930 . S
C278 C279 1.474 . S
C278 C280 1.285 . S
C278 H298 0.929 . S
C279 C276 1.461 . S
C279 C278 1.474 . S
C280 C275 1.342 . S
C280 C278 1.285 . S
C280 H299 0.930 . S
C281 C284 1.424 . S
C281 C286 1.245 . S
C281 C287 1.428 . S
C282 C285 1.260 . S
C282 C286 1.477 . S
C282 H300 0.932 . S
C283 C284 1.384 . S
C283 C285 1.479 . S
C283 H301 0.929 . S
C284 C281 1.424 . S
C284 C283 1.384 . S
C284 H302 0.928 . S
C285 C282 1.260 . S
C285 C283 1.479 . S
C286 C281 1.245 . S
C286 C282 1.477 . S
C286 H303 0.932 . S
C287 U270 2.882 . S
C287 C281 1.428 . S
C287 O290 1.301 . S
C287 O291 1.282 . S
O288 U270 2.441 . S
O288 C274 1.249 . S
O289 U270 2.420 . S
O289 C274 1.202 . S
O290 U270 2.455 . S
O290 C287 1.301 . S
O291 U270 2.449 . S
O291 C287 1.282 . S
H292 C265 0.931 . S
H293 C267 0.929 . S
H294 C268 0.930 . S
H295 C269 0.931 . S
H296 C276 0.932 . S
H297 C277 0.930 . S
H298 C278 0.929 . S
H299 C280 0.930 . S
H300 C282 0.932 . S
H301 C283 0.929 . S
H302 C284 0.928 . S
H303 C286 0.932 . S
C304 C305 1.264 . S
C304 C309 1.479 . S
C304 C314 1.465 . S
C305 C304 1.264 . S
C305 C307 1.339 . S
C305 H332 0.931 . S
C306 C307 1.395 . S
C306 C308 1.320 . S
C307 C305 1.339 . S
C307 C306 1.395 . S
C307 H333 0.929 . S
C308 C306 1.320 . S
C308 C309 1.405 . S
C308 H334 0.930 . S
C309 C304 1.479 . S
C309 C308 1.405 . S
C309 H335 0.931 . S
U310 O311 2.454 . S
U310 O312 2.458 . S
U310 C313 2.984 . S
U310 C314 2.847 . S
U310 C327 2.882 . S
U310 O328 2.441 . S
U310 O329 2.420 . S
U310 O330 2.455 . S
U310 O331 2.449 . S
O311 U310 2.454 . S
O311 C313 1.353 . S
O312 U310 2.458 . S
O312 C313 1.286 . S
C313 U310 2.984 . S
C313 O311 1.353 . S
C313 O312 1.286 . S
C313 C315 1.363 . S
C314 C304 1.465 . S
C314 U310 2.847 . S
C314 O328 1.249 . S
C314 O329 1.202 . S
C315 C313 1.363 . S
C315 C317 1.408 . S
C315 C320 1.342 . S
C316 C317 1.310 . S
C316 C319 1.461 . S
C316 H336 0.932 . S
C317 C315 1.408 . S
C317 C316 1.310 . S
C317 H337 0.930 . S
C318 C319 1.474 . S
C318 C320 1.285 . S
C318 H338 0.929 . S
C319 C316 1.461 . S
C319 C318 1.474 . S
C320 C315 1.342 . S
C320 C318 1.285 . S
C320 H339 0.930 . S
C321 C324 1.424 . S
C321 C326 1.245 . S
C321 C327 1.428 . S
C322 C325 1.260 . S
C322 C326 1.477 . S
C322 H340 0.932 . S
C323 C324 1.384 . S
C323 C325 1.479 . S
C323 H341 0.929 . S
C324 C321 1.424 . S
C324 C323 1.384 . S
C324 H342 0.928 . S
C325 C322 1.260 . S
C325 C323 1.479 . S
C326 C321 1.245 . S
C326 C322 1.477 . S
C326 H343 0.932 . S
C327 U310 2.882 . S
C327 C321 1.428 . S
C327 O330 1.301 . S
C327 O331 1.282 . S
O328 U310 2.441 . S
O328 C314 1.249 . S
O329 U310 2.420 . S
O329 C314 1.202 . S
O330 U310 2.455 . S
O330 C327 1.301 . S
O331 U310 2.449 . S
O331 C327 1.282 . S
H332 C305 0.931 . S
H333 C307 0.929 . S
H334 C308 0.930 . S
H335 C309 0.931 . S
H336 C316 0.932 . S
H337 C317 0.930 . S
H338 C318 0.929 . S
H339 C320 0.930 . S
H340 C322 0.932 . S
H341 C323 0.929 . S
H342 C324 0.928 . S
H343 C326 0.932 . S
C344 C345 1.264 . S
C344 C349 1.479 . S
C344 C354 1.465 . S
C345 C344 1.264 . S
C345 C347 1.339 . S
C345 H372 0.931 . S
C346 C347 1.395 . S
C346 C348 1.320 . S
C347 C345 1.339 . S
C347 C346 1.395 . S
C347 H373 0.929 . S
C348 C346 1.320 . S
C348 C349 1.405 . S
C348 H374 0.930 . S
C349 C344 1.479 . S
C349 C348 1.405 . S
C349 H375 0.931 . S
U350 O351 2.454 . S
U350 O352 2.458 . S
U350 C353 2.984 . S
U350 C354 2.847 . S
U350 C367 2.882 . S
U350 O368 2.441 . S
U350 O369 2.420 . S
U350 O370 2.455 . S
U350 O371 2.449 . S
O351 U350 2.454 . S
O351 C353 1.353 . S
O352 U350 2.458 . S
O352 C353 1.286 . S
C353 U350 2.984 . S
C353 O351 1.353 . S
C353 O352 1.286 . S
C353 C355 1.363 . S
C354 C344 1.465 . S
C354 U350 2.847 . S
C354 O368 1.249 . S
C354 O369 1.202 . S
C355 C353 1.363 . S
C355 C357 1.408 . S
C355 C360 1.342 . S
C356 C357 1.310 . S
C356 C359 1.461 . S
C356 H376 0.932 . S
C357 C355 1.408 . S
C357 C356 1.310 . S
C357 H377 0.930 . S
C358 C359 1.474 . S
C358 C360 1.285 . S
C358 H378 0.929 . S
C359 C356 1.461 . S
C359 C358 1.474 . S
C360 C355 1.342 . S
C360 C358 1.285 . S
C360 H379 0.930 . S
C361 C364 1.424 . S
C361 C366 1.245 . S
C361 C367 1.428 . S
C362 C365 1.260 . S
C362 C366 1.477 . S
C362 H380 0.932 . S
C363 C364 1.384 . S
C363 C365 1.479 . S
C363 H381 0.929 . S
C364 C361 1.424 . S
C364 C363 1.384 . S
C364 H382 0.928 . S
C365 C362 1.260 . S
C365 C363 1.479 . S
C366 C361 1.245 . S
C366 C362 1.477 . S
C366 H383 0.932 . S
C367 U350 2.882 . S
C367 C361 1.428 . S
C367 O370 1.301 . S
C367 O371 1.282 . S
O368 U350 2.441 . S
O368 C354 1.249 . S
O369 U350 2.420 . S
O369 C354 1.202 . S
O370 U350 2.455 . S
O370 C367 1.301 . S
O371 U350 2.449 . S
O371 C367 1.282 . S
H372 C345 0.931 . S
H373 C347 0.929 . S
H374 C348 0.930 . S
H375 C349 0.931 . S
H376 C356 0.932 . S
H377 C357 0.930 . S
H378 C358 0.929 . S
H379 C360 0.930 . S
H380 C362 0.932 . S
H381 C363 0.929 . S
H382 C364 0.928 . S
H383 C366 0.932 . S
C384 C385 1.264 . S
C384 C389 1.479 . S
C384 C394 1.465 . S
C385 C384 1.264 . S
C385 C387 1.339 . S
C385 H412 0.931 . S
C386 C387 1.395 . S
C386 C388 1.320 . S
C387 C385 1.339 . S
C387 C386 1.395 . S
C387 H413 0.929 . S
C388 C386 1.320 . S
C388 C389 1.405 . S
C388 H414 0.930 . S
C389 C384 1.479 . S
C389 C388 1.405 . S
C389 H415 0.931 . S
U390 O391 2.454 . S
U390 O392 2.458 . S
U390 C393 2.984 . S
U390 C394 2.847 . S
U390 C407 2.882 . S
U390 O408 2.441 . S
U390 O409 2.420 . S
U390 O410 2.455 . S
U390 O411 2.449 . S
O391 U390 2.454 . S
O391 C393 1.353 . S
O392 U390 2.458 . S
O392 C393 1.286 . S
C393 U390 2.984 . S
C393 O391 1.353 . S
C393 O392 1.286 . S
C393 C395 1.363 . S
C394 C384 1.465 . S
C394 U390 2.847 . S
C394 O408 1.249 . S
C394 O409 1.202 . S
C395 C393 1.363 . S
C395 C397 1.408 . S
C395 C400 1.342 . S
C396 C397 1.310 . S
C396 C399 1.461 . S
C396 H416 0.932 . S
C397 C395 1.408 . S
C397 C396 1.310 . S
C397 H417 0.930 . S
C398 C399 1.474 . S
C398 C400 1.285 . S
C398 H418 0.929 . S
C399 C396 1.461 . S
C399 C398 1.474 . S
C400 C395 1.342 . S
C400 C398 1.285 . S
C400 H419 0.930 . S
C401 C404 1.424 . S
C401 C406 1.245 . S
C401 C407 1.428 . S
C402 C405 1.260 . S
C402 C406 1.477 . S
C402 H420 0.932 . S
C403 C404 1.384 . S
C403 C405 1.479 . S
C403 H421 0.929 . S
C404 C401 1.424 . S
C404 C403 1.384 . S
C404 H422 0.928 . S
C405 C402 1.260 . S
C405 C403 1.479 . S
C406 C401 1.245 . S
C406 C402 1.477 . S
C406 H423 0.932 . S
C407 U390 2.882 . S
C407 C401 1.428 . S
C407 O410 1.301 . S
C407 O411 1.282 . S
O408 U390 2.441 . S
O408 C394 1.249 . S
O409 U390 2.420 . S
O409 C394 1.202 . S
O410 U390 2.455 . S
O410 C407 1.301 . S
O411 U390 2.449 . S
O411 C407 1.282 . S
H412 C385 0.931 . S
H413 C387 0.929 . S
H414 C388 0.930 . S
H415 C389 0.931 . S
H416 C396 0.932 . S
H417 C397 0.930 . S
H418 C398 0.929 . S
H419 C400 0.930 . S
H420 C402 0.932 . S
H421 C403 0.929 . S
H422 C404 0.928 . S
H423 C406 0.932 . S
H424 C430 0.930 . S
H425 C434 0.930 1_556 S
H426 C439 0.929 1_556 S
H427 C437 0.929 . S
H428 C432 0.929 1_556 S
H429 C438 0.929 . S
C430 H424 0.930 . S
C430 C431 1.367 . S
C430 C438 1.378 . S
C431 C430 1.367 . S
C431 C439 1.433 . S
C432 H428 0.929 1_554 S
C432 C434 1.378 . S
C432 C436 1.350 . S
C433 C436 1.463 . S
C433 C438 1.350 . S
C433 N441 1.427 . S
C434 H425 0.930 1_554 S
C434 C432 1.378 . S
C434 C435 1.367 . S
C435 C434 1.367 . S
C435 C437 1.433 . S
C436 C432 1.350 . S
C436 C433 1.463 . S
C436 N440 1.427 . S
C437 H427 0.929 . S
C437 C435 1.433 . S
C437 N440 1.384 . S
C438 H429 0.929 . S
C438 C430 1.378 . S
C438 C433 1.350 . S
C439 H426 0.929 1_554 S
C439 C431 1.433 . S
C439 N441 1.384 . S
N440 C436 1.427 . S
N440 C437 1.384 . S
N441 C433 1.427 . S
N441 C439 1.384 . S
H442 C448 0.930 . S
H443 C452 0.930 . S
H444 C457 0.929 . S
H445 C455 0.929 . S
H446 C450 0.929 . S
H447 C456 0.929 . S
C448 H442 0.930 . S
C448 C449 1.367 . S
C448 C456 1.378 . S
C449 C448 1.367 . S
C449 C457 1.433 1_554 S
C450 H446 0.929 . S
C450 C452 1.378 . S
C450 C454 1.350 1_556 S
C451 C454 1.463 . S
C451 C456 1.350 . S
C451 N459 1.427 1_554 S
C452 H443 0.930 . S
C452 C450 1.378 . S
C452 C453 1.367 1_556 S
C453 C452 1.367 1_554 S
C453 C455 1.433 . S
C454 C450 1.350 1_554 S
C454 C451 1.463 . S
C454 N458 1.427 . S
C455 H445 0.929 . S
C455 C453 1.433 . S
C455 N458 1.384 . S
C456 H447 0.929 . S
C456 C448 1.378 . S
C456 C451 1.350 . S
C457 H444 0.929 . S
C457 C449 1.433 1_556 S
C457 N459 1.384 . S
N458 C454 1.427 . S
N458 C455 1.384 . S
N459 C451 1.427 1_556 S
N459 C457 1.384 . S
H460 C466 0.930 . S
H461 C470 0.930 . S
H462 C475 0.929 . S
H463 C473 0.929 . S
H464 C468 0.929 . S
H465 C474 0.929 . S
C466 H460 0.930 . S
C466 C467 1.367 . S
C466 C474 1.378 . S
C467 C466 1.367 . S
C467 C475 1.433 1_554 S
C468 H464 0.929 . S
C468 C470 1.378 . S
C468 C472 1.350 1_556 S
C469 C472 1.463 . S
C469 C474 1.350 . S
C469 N477 1.427 1_554 S
C470 H461 0.930 . S
C470 C468 1.378 . S
C470 C471 1.367 1_556 S
C471 C470 1.367 1_554 S
C471 C473 1.433 . S
C472 C468 1.350 1_554 S
C472 C469 1.463 . S
C472 N476 1.427 . S
C473 H463 0.929 . S
C473 C471 1.433 . S
C473 N476 1.384 . S
C474 H465 0.929 . S
C474 C466 1.378 . S
C474 C469 1.350 . S
C475 H462 0.929 . S
C475 C467 1.433 1_556 S
C475 N477 1.384 . S
N476 C472 1.427 . S
N476 C473 1.384 . S
N477 C469 1.427 1_556 S
N477 C475 1.384 . S
H478 C484 0.930 . S
H479 C488 0.930 . S
H480 C493 0.929 . S
H481 C491 0.929 . S
H482 C486 0.929 . S
H483 C492 0.929 . S
C484 H478 0.930 . S
C484 C485 1.367 . S
C484 C492 1.378 . S
C485 C484 1.367 . S
C485 C493 1.433 . S
C486 H482 0.929 . S
C486 C488 1.378 . S
C486 C490 1.350 . S
C487 C490 1.463 . S
C487 C492 1.350 . S
C487 N495 1.427 . S
C488 H479 0.930 . S
C488 C486 1.378 . S
C488 C489 1.367 . S
C489 C488 1.367 . S
C489 C491 1.433 . S
C490 C486 1.350 . S
C490 C487 1.463 . S
C490 N494 1.427 . S
C491 H481 0.929 . S
C491 C489 1.433 . S
C491 N494 1.384 . S
C492 H483 0.929 . S
C492 C484 1.378 . S
C492 C487 1.350 . S
C493 H480 0.929 . S
C493 C485 1.433 . S
C493 N495 1.384 . S
N494 C490 1.427 . S
N494 C491 1.384 . S
N495 C487 1.427 . S
N495 C493 1.384 . S
H496 C502 0.930 . S
H497 C506 0.930 . S
H498 C511 0.929 . S
H499 C509 0.929 . S
H500 C504 0.929 . S
H501 C510 0.929 . S
C502 H496 0.930 . S
C502 C503 1.367 . S
C502 C510 1.378 . S
C503 C502 1.367 . S
C503 C511 1.433 . S
C504 H500 0.929 . S
C504 C506 1.378 . S
C504 C508 1.350 . S
C505 C508 1.463 . S
C505 C510 1.350 . S
C505 N513 1.427 . S
C506 H497 0.930 . S
C506 C504 1.378 . S
C506 C507 1.367 . S
C507 C506 1.367 . S
C507 C509 1.433 . S
C508 C504 1.350 . S
C508 C505 1.463 . S
C508 N512 1.427 . S
C509 H499 0.929 . S
C509 C507 1.433 . S
C509 N512 1.384 . S
C510 H501 0.929 . S
C510 C502 1.378 . S
C510 C505 1.350 . S
C511 H498 0.929 . S
C511 C503 1.433 . S
C511 N513 1.384 . S
N512 C508 1.427 . S
N512 C509 1.384 . S
N513 C505 1.427 . S
N513 C511 1.384 . S
H514 C520 0.930 . S
H515 C524 0.930 . S
H516 C529 0.929 . S
H517 C527 0.929 . S
H518 C522 0.929 . S
H519 C528 0.929 . S
C520 H514 0.930 . S
C520 C521 1.367 . S
C520 C528 1.378 . S
C521 C520 1.367 . S
C521 C529 1.433 . S
C522 H518 0.929 . S
C522 C524 1.378 . S
C522 C526 1.350 . S
C523 C526 1.463 . S
C523 C528 1.350 . S
C523 N531 1.427 . S
C524 H515 0.930 . S
C524 C522 1.378 . S
C524 C525 1.367 . S
C525 C524 1.367 . S
C525 C527 1.433 . S
C526 C522 1.350 . S
C526 C523 1.463 . S
C526 N530 1.427 . S
C527 H517 0.929 . S
C527 C525 1.433 . S
C527 N530 1.384 . S
C528 H519 0.929 . S
C528 C520 1.378 . S
C528 C523 1.350 . S
C529 H516 0.929 . S
C529 C521 1.433 . S
C529 N531 1.384 . S
N530 C526 1.427 . S
N530 C527 1.384 . S
N531 C523 1.427 . S
N531 C529 1.384 . S
H532 C538 0.930 . S
H533 C542 0.930 . S
H534 C547 0.929 . S
H535 C545 0.929 . S
H536 C540 0.929 . S
H537 C546 0.929 . S
C538 H532 0.930 . S
C538 C539 1.367 . S
C538 C546 1.378 . S
C539 C538 1.367 . S
C539 C547 1.433 . S
C540 H536 0.929 . S
C540 C542 1.378 . S
C540 C544 1.350 . S
C541 C544 1.463 . S
C541 C546 1.350 . S
C541 N549 1.427 . S
C542 H533 0.930 . S
C542 C540 1.378 . S
C542 C543 1.367 . S
C543 C542 1.367 . S
C543 C545 1.433 . S
C544 C540 1.350 . S
C544 C541 1.463 . S
C544 N548 1.427 . S
C545 H535 0.929 . S
C545 C543 1.433 . S
C545 N548 1.384 . S
C546 H537 0.929 . S
C546 C538 1.378 . S
C546 C541 1.350 . S
C547 H534 0.929 . S
C547 C539 1.433 . S
C547 N549 1.384 . S
N548 C544 1.427 . S
N548 C545 1.384 . S
N549 C541 1.427 . S
N549 C547 1.384 . S
H550 C556 0.930 . S
H551 C560 0.930 . S
H552 C565 0.929 . S
H553 C563 0.929 . S
H554 C558 0.929 . S
H555 C564 0.929 . S
C556 H550 0.930 . S
C556 C557 1.367 . S
C556 C564 1.378 . S
C557 C556 1.367 . S
C557 C565 1.433 . S
C558 H554 0.929 . S
C558 C560 1.378 . S
C558 C562 1.350 . S
C559 C562 1.463 . S
C559 C564 1.350 . S
C559 N567 1.427 . S
C560 H551 0.930 . S
C560 C558 1.378 . S
C560 C561 1.367 . S
C561 C560 1.367 . S
C561 C563 1.433 . S
C562 C558 1.350 . S
C562 C559 1.463 . S
C562 N566 1.427 . S
C563 H553 0.929 . S
C563 C561 1.433 . S
C563 N566 1.384 . S
C564 H555 0.929 . S
C564 C556 1.378 . S
C564 C559 1.350 . S
C565 H552 0.929 . S
C565 C557 1.433 . S
C565 N567 1.384 . S
N566 C562 1.427 . S
N566 C563 1.384 . S
N567 C559 1.427 . S
N567 C565 1.384 . S
H568 C574 0.930 . S
H569 C578 0.930 . S
H570 C583 0.929 . S
H571 C581 0.929 . S
H572 C576 0.929 . S
H573 C582 0.929 . S
C574 H568 0.930 . S
C574 C575 1.367 . S
C574 C582 1.378 . S
C575 C574 1.367 . S
C575 C583 1.433 . S
C576 H572 0.929 . S
C576 C578 1.378 . S
C576 C580 1.350 . S
C577 C580 1.463 . S
C577 C582 1.350 . S
C577 N585 1.427 . S
C578 H569 0.930 . S
C578 C576 1.378 . S
C578 C579 1.367 . S
C579 C578 1.367 . S
C579 C581 1.433 . S
C580 C576 1.350 . S
C580 C577 1.463 . S
C580 N584 1.427 . S
C581 H571 0.929 . S
C581 C579 1.433 . S
C581 N584 1.384 . S
C582 H573 0.929 . S
C582 C574 1.378 . S
C582 C577 1.350 . S
C583 H570 0.929 . S
C583 C575 1.433 . S
C583 N585 1.384 . S
N584 C580 1.427 . S
N584 C581 1.384 . S
N585 C577 1.427 . S
N585 C583 1.384 . S
H586 C592 0.930 . S
H587 C596 0.930 . S
H588 C601 0.929 . S
H589 C599 0.929 . S
H590 C594 0.929 . S
H591 C600 0.929 . S
C592 H586 0.930 . S
C592 C593 1.367 . S
C592 C600 1.378 . S
C593 C592 1.367 . S
C593 C601 1.433 . S
C594 H590 0.929 . S
C594 C596 1.378 . S
C594 C598 1.350 . S
C595 C598 1.463 . S
C595 C600 1.350 . S
C595 N603 1.427 . S
C596 H587 0.930 . S
C596 C594 1.378 . S
C596 C597 1.367 . S
C597 C596 1.367 . S
C597 C599 1.433 . S
C598 C594 1.350 . S
C598 C595 1.463 . S
C598 N602 1.427 . S
C599 H589 0.929 . S
C599 C597 1.433 . S
C599 N602 1.384 . S
C600 H591 0.929 . S
C600 C592 1.378 . S
C600 C595 1.350 . S
C601 H588 0.929 . S
C601 C593 1.433 . S
C601 N603 1.384 . S
N602 C598 1.427 . S
N602 C599 1.384 . S
N603 C595 1.427 . S
N603 C601 1.384 . S
H604 C610 0.930 . S
H605 C614 0.930 . S
H606 C619 0.929 1_455 S
H607 C617 0.929 . S
H608 C612 0.944 . S
H609 C618 0.929 . S
C610 H604 0.930 . S
C610 C611 1.367 . S
C610 C618 1.378 . S
C611 C610 1.367 . S
C611 C619 1.433 . S
C612 H608 0.944 . S
C612 C614 1.378 . S
C612 C616 1.350 . S
C613 C616 1.463 . S
C613 C618 1.350 . S
C613 N621 1.427 . S
C614 H605 0.930 . S
C614 C612 1.378 . S
C614 C615 1.367 . S
C615 C614 1.367 . S
C615 C617 1.433 . S
C616 C612 1.350 . S
C616 C613 1.463 . S
C616 N620 1.427 . S
C617 H607 0.929 . S
C617 C615 1.433 . S
C617 N620 1.384 . S
C618 H609 0.929 . S
C618 C610 1.378 . S
C618 C613 1.350 . S
C619 H606 0.929 1_655 S
C619 C611 1.433 . S
C619 N621 1.384 . S
N620 C616 1.427 . S
N620 C617 1.384 . S
N621 C613 1.427 . S
N621 C619 1.384 . S
H622 C628 0.930 . S
H623 C632 0.930 . S
H624 C637 0.929 . S
H625 C635 0.929 . S
H626 C630 0.929 . S
H627 C636 0.929 . S
C628 H622 0.930 . S
C628 C629 1.367 . S
C628 C636 1.378 . S
C629 C628 1.367 . S
C629 C637 1.433 . S
C630 H626 0.929 . S
C630 C632 1.378 . S
C630 C634 1.350 . S
C631 C634 1.463 . S
C631 C636 1.350 . S
C631 N639 1.427 . S
C632 H623 0.930 . S
C632 C630 1.378 . S
C632 C633 1.367 . S
C633 C632 1.367 . S
C633 C635 1.433 . S
C634 C630 1.350 . S
C634 C631 1.463 . S
C634 N638 1.427 . S
C635 H625 0.929 . S
C635 C633 1.433 . S
C635 N638 1.384 . S
C636 H627 0.929 . S
C636 C628 1.378 . S
C636 C631 1.350 . S
C637 H624 0.929 . S
C637 C629 1.433 . S
C637 N639 1.384 . S
N638 C634 1.427 . S
N638 C635 1.384 . S
N639 C631 1.427 . S
N639 C637 1.384 . S
H640 C646 0.930 . S
H641 C650 0.930 . S
H642 C655 0.929 . S
H643 C653 0.929 . S
H644 C648 0.929 . S
H645 C654 0.929 . S
C646 H640 0.930 . S
C646 C647 1.367 . S
C646 C654 1.378 . S
C647 C646 1.367 . S
C647 C655 1.433 . S
C648 H644 0.929 . S
C648 C650 1.378 . S
C648 C652 1.350 . S
C649 C652 1.463 . S
C649 C654 1.350 . S
C649 N657 1.427 . S
C650 H641 0.930 . S
C650 C648 1.378 . S
C650 C651 1.367 . S
C651 C650 1.367 . S
C651 C653 1.433 . S
C652 C648 1.350 . S
C652 C649 1.463 . S
C652 N656 1.427 . S
C653 H643 0.929 . S
C653 C651 1.433 . S
C653 N656 1.384 . S
C654 H645 0.929 . S
C654 C646 1.378 . S
C654 C649 1.350 . S
C655 H642 0.929 . S
C655 C647 1.433 . S
C655 N657 1.384 . S
N656 C652 1.427 . S
N656 C653 1.384 . S
N657 C649 1.427 . S
N657 C655 1.384 . S
H658 C664 0.930 . S
H659 C668 0.930 . S
H660 C673 0.929 1_655 S
H661 C671 0.929 . S
H662 C666 0.929 . S
H663 C672 0.929 . S
C664 H658 0.930 . S
C664 C665 1.367 . S
C664 C672 1.378 . S
C665 C664 1.367 . S
C665 C673 1.433 . S
C666 H662 0.929 . S
C666 C668 1.378 . S
C666 C670 1.350 . S
C667 C670 1.463 . S
C667 C672 1.350 . S
C667 N675 1.427 . S
C668 H659 0.930 . S
C668 C666 1.378 . S
C668 C669 1.367 . S
C669 C668 1.367 . S
C669 C671 1.433 . S
C670 C666 1.350 . S
C670 C667 1.463 . S
C670 N674 1.427 . S
C671 H661 0.929 . S
C671 C669 1.433 . S
C671 N674 1.384 . S
C672 H663 0.929 . S
C672 C664 1.378 . S
C672 C667 1.350 . S
C673 H660 0.929 1_455 S
C673 C665 1.433 . S
C673 N675 1.384 . S
N674 C670 1.427 . S
N674 C671 1.384 . S
N675 C667 1.427 . S
N675 C673 1.384 . S
H676 C682 0.930 . S
H677 C686 0.930 . S
H678 C691 0.929 . S
H679 C689 0.929 . S
H680 C684 0.929 . S
H681 C690 0.929 . S
C682 H676 0.930 . S
C682 C683 1.367 . S
C682 C690 1.378 . S
C683 C682 1.367 . S
C683 C691 1.433 . S
C684 H680 0.929 . S
C684 C686 1.378 . S
C684 C688 1.350 . S
C685 C688 1.463 . S
C685 C690 1.350 . S
C685 N693 1.427 . S
C686 H677 0.930 . S
C686 C684 1.378 . S
C686 C687 1.367 . S
C687 C686 1.367 . S
C687 C689 1.433 . S
C688 C684 1.350 . S
C688 C685 1.463 . S
C688 N692 1.427 . S
C689 H679 0.929 . S
C689 C687 1.433 . S
C689 N692 1.384 . S
C690 H681 0.929 . S
C690 C682 1.378 . S
C690 C685 1.350 . S
C691 H678 0.929 . S
C691 C683 1.433 . S
C691 N693 1.384 . S
N692 C688 1.427 . S
N692 C689 1.384 . S
N693 C685 1.427 . S
N693 C691 1.384 . S
H694 C700 0.930 . S
H695 C704 0.930 . S
H696 C709 0.929 . S
H697 C707 0.929 . S
H698 C702 0.929 . S
H699 C708 0.929 . S
C700 H694 0.930 . S
C700 C701 1.367 . S
C700 C708 1.378 . S
C701 C700 1.367 . S
C701 C709 1.433 . S
C702 H698 0.929 . S
C702 C704 1.378 . S
C702 C706 1.350 . S
C703 C706 1.463 . S
C703 C708 1.350 . S
C703 N711 1.427 . S
C704 H695 0.930 . S
C704 C702 1.378 . S
C704 C705 1.367 . S
C705 C704 1.367 . S
C705 C707 1.433 . S
C706 C702 1.350 . S
C706 C703 1.463 . S
C706 N710 1.427 . S
C707 H697 0.929 . S
C707 C705 1.433 . S
C707 N710 1.384 . S
C708 H699 0.929 . S
C708 C700 1.378 . S
C708 C703 1.350 . S
C709 H696 0.929 . S
C709 C701 1.433 . S
C709 N711 1.384 . S
N710 C706 1.427 . S
N710 C707 1.384 . S
N711 C703 1.427 . S
N711 C709 1.384 . S
H712 C718 0.930 . S
H713 C722 0.930 . S
H714 C727 0.929 . S
H715 C725 0.929 . S
H716 C720 0.929 . S
H717 C726 0.929 . S
C718 H712 0.930 . S
C718 C719 1.367 . S
C718 C726 1.378 . S
C719 C718 1.367 . S
C719 C727 1.433 . S
C720 H716 0.929 . S
C720 C722 1.378 . S
C720 C724 1.350 . S
C721 C724 1.463 . S
C721 C726 1.350 . S
C721 N729 1.427 . S
C722 H713 0.930 . S
C722 C720 1.378 . S
C722 C723 1.367 . S
C723 C722 1.367 . S
C723 C725 1.433 . S
C724 C720 1.350 . S
C724 C721 1.463 . S
C724 N728 1.427 . S
C725 H715 0.929 . S
C725 C723 1.433 . S
C725 N728 1.384 . S
C726 H717 0.929 . S
C726 C718 1.378 . S
C726 C721 1.350 . S
C727 H714 0.929 . S
C727 C719 1.433 . S
C727 N729 1.384 . S
N728 C724 1.427 . S
N728 C725 1.384 . S
N729 C721 1.427 . S
N729 C727 1.384 . S
H730 C736 0.930 . S
H731 C740 0.930 . S
H732 C745 0.929 . S
H733 C743 0.929 . S
H734 C738 0.929 . S
H735 C744 0.929 . S
C736 H730 0.930 . S
C736 C737 1.367 . S
C736 C744 1.378 . S
C737 C736 1.367 . S
C737 C745 1.433 . S
C738 H734 0.929 . S
C738 C740 1.378 . S
C738 C742 1.350 . S
C739 C742 1.463 . S
C739 C744 1.350 . S
C739 N747 1.427 . S
C740 H731 0.930 . S
C740 C738 1.378 . S
C740 C741 1.367 . S
C741 C740 1.367 . S
C741 C743 1.433 . S
C742 C738 1.350 . S
C742 C739 1.463 . S
C742 N746 1.427 . S
C743 H733 0.929 . S
C743 C741 1.433 . S
C743 N746 1.384 . S
C744 H735 0.929 . S
C744 C736 1.378 . S
C744 C739 1.350 . S
C745 H732 0.929 . S
C745 C737 1.433 . S
C745 N747 1.384 . S
N746 C742 1.427 . S
N746 C743 1.384 . S
N747 C739 1.427 . S
N747 C745 1.384 . S
H748 C754 0.930 . S
H749 C758 0.930 . S
H750 C763 0.929 . S
H751 C761 0.929 . S
H752 C756 0.929 . S
H753 C762 0.929 . S
C754 H748 0.930 . S
C754 C755 1.367 . S
C754 C762 1.378 . S
C755 C754 1.367 . S
C755 C763 1.433 . S
C756 H752 0.929 . S
C756 C758 1.378 . S
C756 C760 1.350 . S
C757 C760 1.463 . S
C757 C762 1.350 . S
C757 N765 1.427 . S
C758 H749 0.930 . S
C758 C756 1.378 . S
C758 C759 1.367 . S
C759 C758 1.367 . S
C759 C761 1.433 . S
C760 C756 1.350 . S
C760 C757 1.463 . S
C760 N764 1.427 . S
C761 H751 0.929 . S
C761 C759 1.433 . S
C761 N764 1.384 . S
C762 H753 0.929 . S
C762 C754 1.378 . S
C762 C757 1.350 . S
C763 H750 0.929 . S
C763 C755 1.433 . S
C763 N765 1.384 . S
N764 C760 1.427 . S
N764 C761 1.384 . S
N765 C757 1.427 . S
N765 C763 1.384 . S
H766 C772 0.930 . S
H767 C776 0.930 . S
H768 C781 0.929 . S
H769 C779 0.929 . S
H770 C774 0.929 . S
H771 C780 0.929 . S
C772 H766 0.930 . S
C772 C773 1.367 . S
C772 C780 1.378 . S
C773 C772 1.367 . S
C773 C781 1.433 . S
C774 H770 0.929 . S
C774 C776 1.378 . S
C774 C778 1.350 . S
C775 C778 1.463 . S
C775 C780 1.350 . S
C775 N783 1.427 . S
C776 H767 0.930 . S
C776 C774 1.378 . S
C776 C777 1.367 . S
C777 C776 1.367 . S
C777 C779 1.433 . S
C778 C774 1.350 . S
C778 C775 1.463 . S
C778 N782 1.427 . S
C779 H769 0.929 . S
C779 C777 1.433 . S
C779 N782 1.384 . S
C780 H771 0.929 . S
C780 C772 1.378 . S
C780 C775 1.350 . S
C781 H768 0.929 . S
C781 C773 1.433 . S
C781 N783 1.384 . S
N782 C778 1.427 . S
N782 C779 1.384 . S
N783 C775 1.427 . S
N783 C781 1.384 . S
H784 C790 0.930 . S
H785 C794 0.930 . S
H786 C799 0.929 . S
H787 C797 0.929 . S
H788 C792 0.929 . S
H789 C798 0.929 . S
C790 H784 0.930 . S
C790 C791 1.367 . S
C790 C798 1.378 . S
C791 C790 1.367 . S
C791 C799 1.433 . S
C792 H788 0.929 . S
C792 C794 1.378 . S
C792 C796 1.350 . S
C793 C796 1.463 . S
C793 C798 1.350 . S
C793 N801 1.427 . S
C794 H785 0.930 . S
C794 C792 1.378 . S
C794 C795 1.367 . S
C795 C794 1.367 . S
C795 C797 1.433 . S
C796 C792 1.350 . S
C796 C793 1.463 . S
C796 N800 1.427 . S
C797 H787 0.929 . S
C797 C795 1.433 . S
C797 N800 1.384 . S
C798 H789 0.929 . S
C798 C790 1.378 . S
C798 C793 1.350 . S
C799 H786 0.929 . S
C799 C791 1.433 . S
C799 N801 1.384 . S
N800 C796 1.427 . S
N800 C797 1.384 . S
N801 C793 1.427 . S
N801 C799 1.384 . S
H802 C808 0.930 . S
H803 C812 0.930 . S
H804 C817 0.929 . S
H805 C815 0.929 . S
H806 C810 0.929 . S
H807 C816 0.929 . S
C808 H802 0.930 . S
C808 C809 1.367 . S
C808 C816 1.378 . S
C809 C808 1.367 . S
C809 C817 1.433 . S
C810 H806 0.929 . S
C810 C812 1.378 . S
C810 C814 1.350 . S
C811 C814 1.463 . S
C811 C816 1.350 . S
C811 N819 1.427 . S
C812 H803 0.930 . S
C812 C810 1.378 . S
C812 C813 1.367 . S
C813 C812 1.367 . S
C813 C815 1.433 . S
C814 C810 1.350 . S
C814 C811 1.463 . S
C814 N818 1.427 . S
C815 H805 0.929 . S
C815 C813 1.433 . S
C815 N818 1.384 . S
C816 H807 0.929 . S
C816 C808 1.378 . S
C816 C811 1.350 . S
C817 H804 0.929 . S
C817 C809 1.433 . S
C817 N819 1.384 . S
N818 C814 1.427 . S
N818 C815 1.384 . S
N819 C811 1.427 . S
N819 C817 1.384 . S
H820 C826 0.930 . S
H821 C830 0.930 . S
H822 C835 0.929 . S
H823 C833 0.929 . S
H824 C828 0.929 . S
H825 C834 0.929 . S
C826 H820 0.930 . S
C826 C827 1.367 . S
C826 C834 1.378 . S
C827 C826 1.367 . S
C827 C835 1.433 . S
C828 H824 0.929 . S
C828 C830 1.378 . S
C828 C832 1.350 . S
C829 C832 1.463 . S
C829 C834 1.350 . S
C829 N837 1.427 . S
C830 H821 0.930 . S
C830 C828 1.378 . S
C830 C831 1.367 . S
C831 C830 1.367 . S
C831 C833 1.433 . S
C832 C828 1.350 . S
C832 C829 1.463 . S
C832 N836 1.427 . S
C833 H823 0.929 . S
C833 C831 1.433 . S
C833 N836 1.384 . S
C834 H825 0.929 . S
C834 C826 1.378 . S
C834 C829 1.350 . S
C835 H822 0.929 . S
C835 C827 1.433 . S
C835 N837 1.384 . S
N836 C832 1.427 . S
N836 C833 1.384 . S
N837 C829 1.427 . S
N837 C835 1.384 . S
H838 C844 0.930 . S
H839 C848 0.930 . S
H840 C853 0.929 . S
H841 C851 0.929 . S
H842 C846 0.929 . S
H843 C852 0.929 . S
C844 H838 0.930 . S
C844 C845 1.367 . S
C844 C852 1.378 . S
C845 C844 1.367 . S
C845 C853 1.433 . S
C846 H842 0.929 . S
C846 C848 1.378 . S
C846 C850 1.350 . S
C847 C850 1.463 . S
C847 C852 1.350 . S
C847 N855 1.427 . S
C848 H839 0.930 . S
C848 C846 1.378 . S
C848 C849 1.367 . S
C849 C848 1.367 . S
C849 C851 1.433 . S
C850 C846 1.350 . S
C850 C847 1.463 . S
C850 N854 1.427 . S
C851 H841 0.929 . S
C851 C849 1.433 . S
C851 N854 1.384 . S
C852 H843 0.929 . S
C852 C844 1.378 . S
C852 C847 1.350 . S
C853 H840 0.929 . S
C853 C845 1.433 . S
C853 N855 1.384 . S
N854 C850 1.427 . S
N854 C851 1.384 . S
N855 C847 1.427 . S
N855 C853 1.384 . S
C431 C45 1.672 . S
C435 C119 1.681 . S
C449 C30 1.665 . S
C453 C159 1.683 . S
C467 C39 1.665 . S
C471 C199 1.682 . S
C489 C239 1.689 . S
C485 C34 1.674 . S
C503 C97 1.670 . S
C507 C279 1.680 . S
C525 C319 1.681 . S
C521 C82 1.663 . S
C543 C359 1.685 . S
C539 C91 1.668 . S
C561 C399 1.683 . S
C557 C86 1.665 . S
C579 C365 1.609 . S
C575 C26 1.523 . S
C597 C405 1.634 . S
C593 C36 1.549 . S
C615 C266 1.541 . S
C611 C32 1.524 . S
C633 C325 1.633 . S
C629 C42 1.550 . S
C647 C18 1.587 . S
C651 C306 1.689 . S
C669 C346 1.711 . S
C665 C50 1.602 . S
C683 C4 1.570 . S
C687 C386 1.683 . S
C701 C48 1.616 . S
C705 C285 1.633 . S
C723 C205 1.609 . S
C719 C78 1.522 . S
C737 C88 1.546 . S
C741 C245 1.635 . S
C759 C106 1.541 . S
C755 C84 1.528 . S
C777 C165 1.638 . S
C773 C94 1.558 . S
C795 C146 1.684 . S
C791 C70 1.569 . S
C813 C186 1.712 . S
C809 C102 1.608 . S
C827 C56 1.586 . S
C831 C226 1.687 . S
C845 C100 1.617 . S
C849 C125 1.634 . S
