# Generated by pormake.
# Topology pth, (4,4)-cn, num edge types: 1
# Building blocks:
#     Node 0, Type 0, BuildingBlock: GALJAG_clean_sbu_0, # of connection points: 4
#     Node 1, Type 0, BuildingBlock: GALJAG_clean_sbu_0, # of connection points: 4
#     Node 2, Type 0, BuildingBlock: GALJAG_clean_sbu_0, # of connection points: 4
#     Node 3, Type 1, BuildingBlock: KOZSID_clean_sbu_0, # of connection points: 4
#     Node 4, Type 1, BuildingBlock: KOZSID_clean_sbu_0, # of connection points: 4
#     Node 5, Type 1, BuildingBlock: KOZSID_clean_sbu_0, # of connection points: 4
#     Edge 6, Type (0, 1), BuildingBlock: UVAHIK_clean_linker_0, # of connection points: 2
#     Edge 7, Type (0, 1), BuildingBlock: UVAHIK_clean_linker_0, # of connection points: 2
#     Edge 8, Type (0, 1), BuildingBlock: UVAHIK_clean_linker_0, # of connection points: 2
#     Edge 9, Type (0, 1), BuildingBlock: UVAHIK_clean_linker_0, # of connection points: 2
#     Edge 10, Type (0, 1), BuildingBlock: UVAHIK_clean_linker_0, # of connection points: 2
#     Edge 11, Type (0, 1), BuildingBlock: UVAHIK_clean_linker_0, # of connection points: 2
#     Edge 12, Type (0, 1), BuildingBlock: UVAHIK_clean_linker_0, # of connection points: 2
#     Edge 13, Type (0, 1), BuildingBlock: UVAHIK_clean_linker_0, # of connection points: 2
#     Edge 14, Type (0, 1), BuildingBlock: UVAHIK_clean_linker_0, # of connection points: 2
#     Edge 15, Type (0, 1), BuildingBlock: UVAHIK_clean_linker_0, # of connection points: 2
#     Edge 16, Type (0, 1), BuildingBlock: UVAHIK_clean_linker_0, # of connection points: 2
#     Edge 17, Type (0, 1), BuildingBlock: UVAHIK_clean_linker_0, # of connection points: 2
# Relax obj value: 0.002
# Max RMSD: 0.041
# Mean RMSD: 0.024
data_MOF--net-pth--node1-GALJAG_clean_sbu_0--node2-KOZSID_clean_sbu_0--edge1-UVAHIK_clean_linker_0
_symmetry_space_group_name_H-M    P1
_symmetry_Int_Tables_number       1
_symmetry_cell_setting            triclinic
loop_
_symmetry_equiv_pos_as_xyz
'x, y, z'
_cell_length_a     34.294488
_cell_length_b     34.297978
_cell_length_c     74.804782
_cell_angle_alpha  88.089396
_cell_angle_beta   88.048599
_cell_angle_gamma 119.99155
loop_
_atom_site_label
_atom_site_type_symbol
_atom_site_fract_x
_atom_site_fract_y
_atom_site_fract_z
_atom_type_partial_charge
In0 In 0.0525 0.03991 0.03034 0.0
O1 O 0.01171 0.06917 0.04321 0.0
O2 O 0.08202 0.10115 0.04706 0.0
C3 C 0.98906 0.98169 0.00932 0.0
C4 C 0.11958 0.09945 0.00725 0.0
C5 C 0.05995 0.98178 0.05338 0.0
O6 O 0.98069 0.00366 0.02055 0.0
O7 O 0.02915 0.98963 0.00864 0.0
O8 O 0.08363 0.99739 0.0389 0.0
O9 O 0.03304 0.99604 0.05642 0.0
C10 C 0.04545 0.10078 0.05004 0.0
O11 O 0.12649 0.08154 0.02089 0.0
O12 O 0.07866 0.08697 0.00514 0.0
In13 In 0.03759 0.05915 0.3637 0.0
O14 O 0.07009 0.13234 0.35315 0.0
O15 O 0.01853 0.08231 0.33826 0.0
C16 C 0.10151 0.06882 0.38625 0.0
C17 C 0.96913 0.05364 0.38465 0.0
C18 C 0.03201 0.99397 0.34288 0.0
O19 O 0.11045 0.09374 0.37217 0.0
O20 O 0.06041 0.03978 0.38909 0.0
O21 O 0.9989 0.98893 0.35268 0.0
O22 O 0.06739 0.03173 0.34353 0.0
C23 C 0.04616 0.12366 0.33976 0.0
O24 O 0.97087 0.01901 0.3807 0.0
O25 O 0.00173 0.0904 0.37822 0.0
In26 In 0.05225 0.04204 0.69731 0.0
O27 O 0.02631 0.97662 0.71464 0.0
O28 O 0.98646 0.00827 0.71436 0.0
C29 C 0.11441 0.03759 0.6756 0.0
C30 C 0.99913 0.0516 0.67391 0.0
C31 C 0.10266 0.10306 0.72071 0.0
O32 O 0.07779 0.00294 0.68093 0.0
O33 O 0.1193 0.07399 0.68108 0.0
O34 O 0.08517 0.11271 0.70794 0.0
O35 O 0.09372 0.0626 0.72184 0.0
C36 C 0.99057 0.97562 0.72014 0.0
O37 O 0.02372 0.0827 0.68384 0.0
O38 O 0.00236 0.01663 0.67552 0.0
C39 C 0.08409 0.62375 0.16926 0.0
C40 C 0.12681 0.65696 0.1627 0.0
C41 C 0.15695 0.65071 0.17197 0.0
C42 C 0.13113 0.61441 0.18368 0.0
N43 N 0.08621 0.59667 0.18235 0.0
Co44 Co 0.03658 0.54499 0.19743 0.0
N45 N 0.08119 0.53877 0.21223 0.0
C46 C 0.1267 0.56445 0.21052 0.0
C47 C 0.1485 0.55122 0.22211 0.0
C48 C 0.11502 0.5146 0.23172 0.0
C49 C 0.07445 0.5077 0.22547 0.0
N50 N 0.98698 0.49302 0.21237 0.0
C51 C 0.98921 0.46624 0.22556 0.0
C52 C 0.94661 0.43333 0.23232 0.0
C53 C 0.91633 0.43884 0.2228 0.0
C54 C 0.94203 0.47477 0.21088 0.0
N55 N 0.99199 0.55158 0.18278 0.0
C56 C 0.94645 0.5261 0.1845 0.0
C57 C 0.92486 0.53925 0.17274 0.0
C58 C 0.95853 0.57578 0.16311 0.0
C59 C 0.99886 0.58292 0.16965 0.0
N60 N 0.03758 0.50187 0.18057 0.0
C61 C 0.03805 0.43781 0.15791 0.0
C62 C 0.99805 0.43735 0.16266 0.0
C63 C 0.99854 0.46908 0.17399 0.0
C64 C 0.07799 0.47158 0.16449 0.0
C65 C 0.07704 0.50318 0.17555 0.0
N66 N 0.03545 0.58804 0.21426 0.0
C67 C 0.99383 0.61593 0.23102 0.0
C68 C 0.03369 0.65177 0.23657 0.0
C69 C 0.07446 0.65473 0.23109 0.0
C70 C 0.07458 0.62287 0.21996 0.0
C71 C 0.99545 0.58455 0.22008 0.0
H72 H 0.10676 0.62748 0.21596 0.0
H73 H 0.96386 0.55802 0.21641 0.0
H74 H 0.96675 0.46609 0.17729 0.0
H75 H 0.10863 0.52801 0.18001 0.0
C76 C 0.14808 0.59861 0.19701 0.0
C77 C 0.04263 0.62085 0.16338 0.0
C78 C 0.03063 0.46974 0.23177 0.0
C79 C 0.92497 0.49108 0.19773 0.0
H80 H 0.13553 0.6838 0.15261 0.0
H81 H 0.19336 0.6712 0.17076 0.0
H82 H 0.1845 0.56557 0.22303 0.0
H83 H 0.12022 0.49461 0.24181 0.0
H84 H 0.93833 0.40756 0.24287 0.0
H85 H 0.87992 0.41857 0.22418 0.0
H86 H 0.8889 0.52456 0.17156 0.0
H87 H 0.95393 0.59546 0.15266 0.0
H88 H 0.96623 0.41269 0.15766 0.0
H89 H 0.10994 0.47335 0.16144 0.0
H90 H 0.96138 0.61192 0.23518 0.0
H91 H 0.10625 0.68215 0.23501 0.0
C92 C 0.46797 0.00553 0.5589 0.0
C93 C 0.43756 0.96307 0.56665 0.0
C94 C 0.44418 0.93287 0.55753 0.0
C95 C 0.47843 0.95852 0.54494 0.0
N96 N 0.4944 0.00331 0.54557 0.0
Co97 Co 0.54581 0.05264 0.53041 0.0
N98 N 0.55115 0.008 0.51541 0.0
C99 C 0.52377 0.96272 0.51655 0.0
C100 C 0.53435 0.94098 0.5039 0.0
C101 C 0.57101 0.97435 0.49421 0.0
C102 C 0.58106 0.0146 0.50173 0.0
N103 N 0.59902 0.1019 0.51587 0.0
C104 C 0.62687 0.09937 0.50321 0.0
C105 C 0.66301 0.14176 0.49797 0.0
C106 C 0.65773 0.17206 0.50758 0.0
C107 C 0.6192 0.14663 0.51825 0.0
N108 N 0.53841 0.0973 0.54472 0.0
C109 C 0.56299 0.14276 0.54241 0.0
C110 C 0.54742 0.16471 0.55284 0.0
C111 C 0.51017 0.13129 0.5622 0.0
C112 C 0.5055 0.09063 0.5571 0.0
N113 N 0.5884 0.05118 0.54743 0.0
C114 C 0.65388 0.05177 0.56951 0.0
C115 C 0.64829 0.08932 0.56755 0.0
C116 C 0.61595 0.08843 0.55649 0.0
C117 C 0.62497 0.01334 0.56063 0.0
C118 C 0.59247 0.0136 0.54993 0.0
N119 N 0.50347 0.05432 0.51344 0.0
C120 C 0.48046 0.09699 0.49463 0.0
C121 C 0.44039 0.05791 0.49134 0.0
C122 C 0.433 0.01679 0.49889 0.0
C123 C 0.46472 0.01576 0.50983 0.0
C124 C 0.51137 0.09443 0.50554 0.0
H125 H 0.45686 0.98349 0.51546 0.0
H126 H 0.54119 0.12546 0.50756 0.0
H127 H 0.61437 0.1186 0.55541 0.0
H128 H 0.5715 0.98313 0.54363 0.0
C129 C 0.49202 0.94141 0.53091 0.0
C130 C 0.46873 0.04658 0.56399 0.0
C131 C 0.62124 0.05759 0.4963 0.0
C132 C 0.60071 0.16376 0.53041 0.0
H133 H 0.4123 0.95468 0.57743 0.0
H134 H 0.42504 0.89647 0.55938 0.0
H135 H 0.51841 0.90505 0.50235 0.0
H136 H 0.58924 0.96944 0.48325 0.0
H137 H 0.69084 0.15013 0.48843 0.0
H138 H 0.67972 0.20829 0.50703 0.0
H139 H 0.56109 0.20071 0.55336 0.0
H140 H 0.48864 0.13656 0.5715 0.0
H141 H 0.6688 0.11957 0.5745 0.0
H142 H 0.62786 0.98333 0.56155 0.0
H143 H 0.48803 0.12953 0.48878 0.0
H144 H 0.40232 0.98562 0.49677 0.0
C145 C 0.63684 0.57189 0.83542 0.0
C146 C 0.66917 0.56311 0.82802 0.0
C147 C 0.66383 0.52547 0.83708 0.0
C148 C 0.62847 0.51324 0.84933 0.0
N149 N 0.6104 0.54038 0.84849 0.0
Co150 Co 0.55808 0.53443 0.86363 0.0
N151 N 0.55242 0.48096 0.87787 0.0
C152 C 0.57879 0.4622 0.87593 0.0
C153 C 0.56579 0.4249 0.88716 0.0
C154 C 0.52858 0.41907 0.89675 0.0
C155 C 0.52112 0.45351 0.89085 0.0
N156 N 0.50543 0.52816 0.87866 0.0
C157 C 0.47865 0.49623 0.89155 0.0
C158 C 0.44528 0.50401 0.89856 0.0
C159 C 0.45045 0.54157 0.88947 0.0
C160 C 0.48664 0.55466 0.87756 0.0
N161 N 0.5641 0.58823 0.8495 0.0
C162 C 0.53827 0.60755 0.85169 0.0
C163 C 0.55212 0.64563 0.84084 0.0
C164 C 0.58936 0.65144 0.83127 0.0
C165 C 0.59593 0.61612 0.83675 0.0
N166 N 0.51565 0.49352 0.84644 0.0
C167 C 0.45152 0.43224 0.82393 0.0
C168 C 0.44938 0.46963 0.82948 0.0
C169 C 0.48151 0.49957 0.84058 0.0
C170 C 0.487 0.42666 0.8295 0.0
C171 C 0.51847 0.45749 0.84062 0.0
N172 N 0.60037 0.57533 0.88086 0.0
C173 C 0.62516 0.63955 0.89911 0.0
C174 C 0.66199 0.63591 0.90428 0.0
C175 C 0.66718 0.60102 0.89767 0.0
C176 C 0.6362 0.57132 0.88608 0.0
C177 C 0.59507 0.60919 0.88756 0.0
H178 H 0.64211 0.54561 0.88143 0.0
H179 H 0.56813 0.61429 0.88409 0.0
H180 H 0.4775 0.52693 0.84447 0.0
H181 H 0.54445 0.45114 0.84447 0.0
C182 C 0.61312 0.47802 0.86242 0.0
C183 C 0.63402 0.61168 0.83012 0.0
C184 C 0.48242 0.45719 0.89717 0.0
C185 C 0.50292 0.5908 0.86482 0.0
H186 H 0.69461 0.58247 0.8174 0.0
H187 H 0.68397 0.50951 0.83524 0.0
H188 H 0.58061 0.4035 0.88783 0.0
H189 H 0.50856 0.3917 0.90659 0.0
H190 H 0.41942 0.48411 0.90897 0.0
H191 H 0.42982 0.55704 0.89113 0.0
H192 H 0.53773 0.66743 0.84036 0.0
H193 H 0.60989 0.67933 0.82172 0.0
H194 H 0.42232 0.47527 0.82568 0.0
H195 H 0.49057 0.39862 0.82532 0.0
H196 H 0.61997 0.66639 0.9036 0.0
H197 H 0.69491 0.59644 0.90144 0.0
C198 C 0.0826 0.17568 0.06335 0.0
C199 C 0.043 0.13517 0.06059 0.0
C200 C 0.08107 0.20835 0.07348 0.0
C201 C 0.00213 0.24304 0.09283 0.0
H202 H 0.10298 0.31416 0.12185 0.0
C203 C 0.00112 0.35859 0.14757 0.0
C204 C 0.0379 0.40307 0.14639 0.0
C205 C 0.00088 0.326 0.13679 0.0
C206 C 0.07475 0.29469 0.11371 0.0
H207 H 0.9707 0.09687 0.06624 0.0
H208 H 0.96804 0.15311 0.08463 0.0
H209 H 0.10345 0.25613 0.10411 0.0
H210 H 0.10308 0.44783 0.13261 0.0
H211 H 0.10324 0.39026 0.11438 0.0
H212 H 0.97293 0.28097 0.10314 0.0
C213 C 0.00024 0.16036 0.07856 0.0
C214 C 0.07503 0.26157 0.10345 0.0
C215 C 0.00171 0.12794 0.06811 0.0
C216 C 0.07454 0.41387 0.13419 0.0
C217 C 0.0746 0.38102 0.12365 0.0
C218 C 0.00154 0.27569 0.10337 0.0
C219 C 0.03998 0.201 0.08143 0.0
C220 C 0.03892 0.23551 0.09272 0.0
C221 C 0.03772 0.33686 0.12483 0.0
C222 C 0.038 0.30199 0.11379 0.0
H223 H 0.11487 0.18238 0.05752 0.0
H224 H 0.11222 0.23957 0.07494 0.0
H225 H 0.97405 0.22428 0.08456 0.0
H226 H 0.97271 0.34858 0.15704 0.0
H227 H 0.97228 0.29199 0.13808 0.0
C228 C 0.90586 0.01565 0.40822 0.0
C229 C 0.93201 0.05195 0.39581 0.0
C230 C 0.87214 0.01568 0.4193 0.0
C231 C 0.83315 0.09349 0.43536 0.0
H232 H 0.72486 0.98163 0.45096 0.0
C233 C 0.66999 0.07964 0.46777 0.0
C234 C 0.65778 0.05787 0.48494 0.0
C235 C 0.70384 0.07897 0.45707 0.0
C236 C 0.75507 0.01303 0.44669 0.0
H237 H 0.94255 0.11583 0.38467 0.0
H238 H 0.88243 0.11485 0.40312 0.0
H239 H 0.78238 0.97973 0.43145 0.0
H240 H 0.67023 0.01765 0.50433 0.0
H241 H 0.72846 0.01501 0.48525 0.0
H242 H 0.8044 0.1266 0.45006 0.0
C243 C 0.8889 0.08722 0.40504 0.0
C244 C 0.78824 0.01204 0.43564 0.0
C245 C 0.92318 0.08765 0.39431 0.0
C246 C 0.67932 0.03476 0.49113 0.0
C247 C 0.71237 0.03317 0.48027 0.0
C248 C 0.79952 0.09446 0.44606 0.0
C249 C 0.86327 0.05159 0.4179 0.0
C250 C 0.82782 0.0523 0.4298 0.0
C251 C 0.725 0.05545 0.46321 0.0
C252 C 0.76033 0.05427 0.45183 0.0
H253 H 0.91225 0.98784 0.40969 0.0
H254 H 0.85373 0.98794 0.42919 0.0
H255 H 0.86351 0.12515 0.43161 0.0
H256 H 0.65327 0.09706 0.46266 0.0
H257 H 0.713 0.09615 0.44388 0.0
C258 C 0.96564 0.91138 0.74294 0.0
C259 C 0.95537 0.93854 0.73193 0.0
C260 C 0.93188 0.87632 0.7541 0.0
C261 C 0.81384 0.83255 0.77299 0.0
H262 H 0.81848 0.72323 0.78284 0.0
C263 C 0.66446 0.66046 0.80161 0.0
C264 C 0.67161 0.64883 0.81886 0.0
C265 C 0.69988 0.69588 0.79122 0.0
C266 C 0.81701 0.75371 0.78017 0.0
H267 H 0.9019 0.94994 0.72352 0.0
H268 H 0.8427 0.88761 0.7421 0.0
H269 H 0.87875 0.78501 0.76401 0.0
H270 H 0.72111 0.66343 0.83861 0.0
H271 H 0.78379 0.7246 0.82006 0.0
H272 H 0.75081 0.7998 0.78855 0.0
C273 C 0.87691 0.89418 0.74286 0.0
C274 C 0.85164 0.7893 0.76953 0.0
C275 C 0.91081 0.92979 0.73206 0.0
C276 C 0.71495 0.67213 0.82536 0.0
C277 C 0.7506 0.70685 0.81481 0.0
C278 C 0.77882 0.79657 0.78327 0.0
C279 C 0.88694 0.86707 0.75415 0.0
C280 C 0.85054 0.82928 0.76577 0.0
C281 C 0.74312 0.7192 0.79776 0.0
C282 C 0.78022 0.75701 0.78692 0.0
H283 H -0.00012 0.91768 0.74314 0.0
H284 H 0.94125 0.85687 0.7628 0.0
H285 H 0.81215 0.86301 0.77084 0.0
H286 H 0.63141 0.64237 0.79627 0.0
H287 H 0.69366 0.70489 0.77803 0.0
C288 C 0.08505 0.92595 0.05954 0.0
C289 C 0.06181 0.94771 0.06532 0.0
C290 C 0.08435 0.89154 0.07033 0.0
C291 C 0.06671 0.8453 0.11659 0.0
H292 H 0.03511 0.73279 0.09495 0.0
C293 C 0.02985 0.68603 0.15912 0.0
C294 C 0.04477 0.65817 0.15199 0.0
C295 C 0.03218 0.72156 0.14856 0.0
C296 C 0.04468 0.76416 0.10117 0.0
H297 H 0.02063 0.95151 0.08708 0.0
H298 H 0.02003 0.89176 0.10608 0.0
H299 H 0.0407 0.79571 0.07665 0.0
H300 H 0.07301 0.64446 0.12838 0.0
H301 H 0.07868 0.70753 0.10996 0.0
H302 H 0.0716 0.81432 0.14103 0.0
C303 C 0.03861 0.90124 0.09318 0.0
C304 C 0.04773 0.80013 0.09068 0.0
C305 C 0.03883 0.93527 0.08229 0.0
C306 C 0.06158 0.66588 0.13411 0.0
C307 C 0.06441 0.70171 0.12357 0.0
C308 C 0.06419 0.80951 0.12706 0.0
C309 C 0.06087 0.87867 0.08719 0.0
C310 C 0.05861 0.84097 0.0983 0.0
C311 C 0.0498 0.73008 0.13067 0.0
C312 C 0.05294 0.76838 0.1195 0.0
H313 H 0.10302 0.93483 0.04652 0.0
H314 H 0.10214 0.87495 0.06548 0.0
H315 H 0.07561 0.87661 0.12275 0.0
H316 H 0.01646 0.68027 0.17289 0.0
H317 H 0.01978 0.74207 0.15438 0.0
C318 C 0.1824 0.10128 0.39333 0.0
C319 C 0.1365 0.07144 0.39793 0.0
C320 C 0.21552 0.10137 0.40375 0.0
C321 C 0.2328 0.02842 0.43605 0.0
H322 H 0.3415 0.13937 0.44533 0.0
C323 C 0.38403 0.02854 0.46762 0.0
C324 C 0.40621 0.06027 0.48044 0.0
C325 C 0.35159 0.03071 0.4575 0.0
C326 C 0.31119 0.10809 0.44298 0.0
H327 H 0.08918 0.01927 0.41732 0.0
H328 H 0.14687 0.0199 0.43565 0.0
H329 H 0.28337 0.14246 0.4285 0.0
H330 H 0.41127 0.1187 0.49289 0.0
H331 H 0.3544 0.12225 0.47537 0.0
H332 H 0.26007 0.99407 0.45085 0.0
C333 C 0.15738 0.04264 0.42382 0.0
C334 C 0.27809 0.10985 0.43315 0.0
C335 C 0.12431 0.0425 0.41339 0.0
C336 C 0.39526 0.09419 0.48291 0.0
C337 C 0.3627 0.09625 0.47285 0.0
C338 C 0.26583 0.02666 0.44589 0.0
C339 C 0.20338 0.07165 0.419 0.0
C340 C 0.23849 0.07002 0.42959 0.0
C341 C 0.34044 0.06452 0.46003 0.0
C342 C 0.30544 0.06646 0.44947 0.0
H343 H 0.19278 0.12388 0.38146 0.0
H344 H 0.25064 0.12384 0.39957 0.0
H345 H 0.20298 0.99705 0.43335 0.0
H346 H 0.39217 0.00236 0.46526 0.0
H347 H 0.33561 0.00618 0.44753 0.0
C348 C 0.15206 0.12376 0.74657 0.0
C349 C 0.13413 0.13697 0.73256 0.0
C350 C 0.185 0.15594 0.75679 0.0
C351 C 0.23755 0.2748 0.76888 0.0
H352 H 0.33823 0.25792 0.77956 0.0
C353 C 0.39851 0.41288 0.79904 0.0
C354 C 0.41626 0.39878 0.81286 0.0
C355 C 0.36404 0.38128 0.78913 0.0
C356 C 0.31015 0.2629 0.77685 0.0
H357 H 0.13566 0.19414 0.71858 0.0
H358 H 0.19361 0.25056 0.73636 0.0
H359 H 0.277 0.20216 0.76295 0.0
H360 H 0.41147 0.34031 0.82715 0.0
H361 H 0.35156 0.28524 0.80981 0.0
H362 H 0.27097 0.33573 0.78275 0.0
C363 C 0.18188 0.21525 0.73955 0.0
C364 C 0.27499 0.23091 0.76735 0.0
C365 C 0.14879 0.18296 0.72933 0.0
C366 C 0.3991 0.35235 0.8164 0.0
C367 C 0.36469 0.32077 0.80648 0.0
C368 C 0.2728 0.30687 0.77837 0.0
C369 C 0.2009 0.20212 0.75321 0.0
C370 C 0.23818 0.23636 0.76332 0.0
C371 C 0.34659 0.33487 0.7928 0.0
C372 C 0.30943 0.3012 0.7825 0.0
H373 H 0.14123 0.08852 0.74945 0.0
H374 H 0.19828 0.14463 0.76744 0.0
H375 H 0.20946 0.27975 0.76617 0.0
H376 H 0.41146 0.4484 0.79578 0.0
H377 H 0.35132 0.39323 0.77848 0.0
C378 C 0.96916 0.09557 0.65782 0.0
C379 C 0.96643 0.05414 0.66231 0.0
C380 C 0.9366 0.09708 0.64749 0.0
C381 C 0.8192 0.03083 0.63764 0.0
H382 H 0.85095 0.10446 0.59328 0.0
C383 C 0.6834 0.01428 0.59023 0.0
C384 C 0.69 0.05306 0.58046 0.0
C385 C 0.71763 0.01548 0.60024 0.0
C386 C 0.8414 0.0843 0.6058 0.0
H387 H 0.92773 0.98191 0.65954 0.0
H388 H 0.87038 0.98456 0.64193 0.0
H389 H 0.91035 0.10603 0.61085 0.0
H390 H 0.73848 0.12359 0.57354 0.0
H391 H 0.79683 0.12631 0.59174 0.0
H392 H 0.75054 0.00997 0.63309 0.0
C393 C 0.89786 0.01578 0.64625 0.0
C394 C 0.87551 0.08511 0.61578 0.0
C395 C 0.9308 0.01436 0.65623 0.0
C396 C 0.73168 0.09316 0.58111 0.0
C397 C 0.76563 0.09454 0.59133 0.0
C398 C 0.78514 0.03062 0.62786 0.0
C399 C 0.90036 0.05709 0.64186 0.0
C400 C 0.86462 0.05801 0.63167 0.0
C401 C 0.7592 0.05568 0.60098 0.0
C402 C 0.79569 0.05698 0.61169 0.0
H403 H 0.99631 0.12671 0.66235 0.0
H404 H 0.93909 0.12931 0.64427 0.0
H405 H 0.81007 0.01 0.64999 0.0
H406 H 0.65164 0.9829 0.5903 0.0
H407 H 0.71152 0.98462 0.60723 0.0
C408 C 0.96756 0.92826 0.98485 0.0
C409 C 0.9547 0.94821 -0.00183 0.0
C410 C 0.93529 0.8952 0.9747 0.0
C411 C 0.81539 0.80961 0.97583 0.0
H412 H 0.83797 0.81092 0.9246 0.0
C413 C 0.6807 0.68559 0.93029 0.0
C414 C 0.69517 0.66916 0.91607 0.0
C415 C 0.71195 0.71912 0.94061 0.0
C416 C 0.8314 0.80968 0.93893 0.0
H417 H 0.89803 0.94957 0.01122 0.0
H418 H 0.84134 0.89145 0.99345 0.0
H419 H 0.89284 0.87164 0.9417 0.0
H420 H 0.75399 0.67462 0.90181 0.0
H421 H 0.80847 0.73214 0.92015 0.0
H422 H 0.75423 0.74735 0.97313 0.0
C423 C 0.87647 0.90135 0.99095 0.0
C424 C 0.86276 0.84459 0.94871 0.0
C425 C 0.90889 0.93476 0.00103 0.0
C426 C 0.74164 0.68623 0.91274 0.0
C427 C 0.77291 0.71968 0.9231 0.0
C428 C 0.78409 0.77452 0.96606 0.0
C429 C 0.88936 0.88113 0.97772 0.0
C430 C 0.85518 0.84487 0.96726 0.0
C431 C 0.75847 0.73694 0.93702 0.0
C432 C 0.79178 0.77406 0.94749 0.0
H433 H 0.00263 0.93789 0.98234 0.0
H434 H 0.94622 0.87992 0.96475 0.0
H435 H 0.80893 0.80859 0.99016 0.0
H436 H 0.64512 0.67274 0.93339 0.0
H437 H 0.69961 0.73181 0.95114 0.0
C438 C 0.99299 0.91446 0.33334 0.0
C439 C 0.03019 0.95845 0.33171 0.0
C440 C 0.99243 0.88066 0.32319 0.0
C441 C 0.06911 0.85314 0.29739 0.0
H442 H 0.95836 0.76232 0.27824 0.0
C443 C 0.05874 0.70065 0.26279 0.0
C444 C 0.03266 0.68613 0.24777 0.0
C445 C 0.05755 0.73295 0.27335 0.0
C446 C 0.9897 0.78765 0.28335 0.0
H447 H 0.09542 0.00192 0.3179 0.0
H448 H 0.09398 0.94351 0.29989 0.0
H449 H 0.95792 0.82114 0.29543 0.0
H450 H 0.98557 0.69455 0.23179 0.0
H451 H 0.98421 0.75164 0.24992 0.0
H452 H 0.10127 0.82075 0.28478 0.0
C453 C 0.06572 0.93461 0.30931 0.0
C454 C 0.9893 0.82106 0.29343 0.0
C455 C 0.06642 0.96821 0.31954 0.0
C456 C 0.00554 0.70468 0.24346 0.0
C457 C 0.00466 0.73728 0.25389 0.0
C458 C 0.06957 0.81996 0.28722 0.0
C459 C 0.02894 0.89028 0.31111 0.0
C460 C 0.02904 0.85431 0.30055 0.0
C461 C 0.0306 0.7518 0.269 0.0
C462 C 0.02989 0.7868 0.28004 0.0
H463 H 0.96466 0.90596 0.34267 0.0
H464 H 0.96378 0.84681 0.32508 0.0
H465 H 0.10023 0.87777 0.30288 0.0
H466 H 0.07955 0.68651 0.26654 0.0
H467 H 0.07737 0.74273 0.28505 0.0
C468 C 0.19407 0.07169 0.66377 0.0
C469 C 0.14934 0.03613 0.6641 0.0
C470 C 0.22754 0.07099 0.6529 0.0
C471 C 0.25177 0.99482 0.62607 0.0
H472 H 0.35122 0.10879 0.60623 0.0
C473 C 0.387 0.02166 0.56962 0.0
C474 C 0.43097 0.04314 0.57557 0.0
C475 C 0.35134 0.01849 0.58042 0.0
C476 C 0.32361 0.07681 0.61174 0.0
H477 H 0.10419 0.97207 0.65326 0.0
H478 H 0.16216 0.97169 0.63351 0.0
H479 H 0.29048 0.10807 0.62437 0.0
H480 H 0.47228 0.07688 0.59751 0.0
H481 H 0.40998 0.07321 0.61613 0.0
H482 H 0.28473 0.96387 0.61257 0.0
C483 C 0.17192 0.99952 0.64209 0.0
C484 C 0.28894 0.07627 0.62226 0.0
C485 C 0.13856 -0.0002 0.65331 0.0
C486 C 0.43871 0.06085 0.59257 0.0
C487 C 0.40326 0.05861 0.60319 0.0
C488 C 0.28606 0.99539 0.61518 0.0
C489 C 0.21694 0.03518 0.64173 0.0
C490 C 0.2528 0.03532 0.62981 0.0
C491 C 0.35941 0.03746 0.59716 0.0
C492 C 0.32241 0.03643 0.60815 0.0
H493 H 0.20338 0.0999 0.67214 0.0
H494 H 0.26185 0.09846 0.65345 0.0
H495 H 0.22503 0.96269 0.63181 0.0
H496 H 0.38037 0.0076 0.55657 0.0
H497 H 0.31769 0.00214 0.57555 0.0
C498 C 0.14765 0.1478 0.97874 0.0
C499 C 0.15667 0.13372 0.99514 0.0
C500 C 0.18276 0.18135 0.96758 0.0
C501 C 0.3078 0.24297 0.9598 0.0
H502 H 0.28721 0.33065 0.93419 0.0
C503 C 0.45127 0.40995 0.92595 0.0
C504 C 0.44501 0.41963 0.90827 0.0
C505 C 0.41597 0.3742 0.93625 0.0
C506 C 0.29329 0.30618 0.94117 0.0
H507 H 0.20931 0.14355 0.01278 0.0
H508 H 0.27037 0.20298 0.99366 0.0
H509 H 0.22579 0.2695 0.9527 0.0
H510 H 0.39747 0.40091 0.88749 0.0
H511 H 0.33514 0.3387 0.90565 0.0
H512 H 0.3758 0.28074 0.94859 0.0
C513 C 0.23645 0.18746 0.9891 0.0
C514 C 0.25808 0.27098 0.95171 0.0
C515 C 0.20141 0.15355 0.00014 0.0
C516 C 0.40283 0.39377 0.90112 0.0
C517 C 0.36735 0.35843 0.91149 0.0
C518 C 0.34314 0.27852 0.94944 0.0
C519 C 0.2276 0.20193 0.9727 0.0
C520 C 0.26487 0.23891 0.96118 0.0
C521 C 0.37367 0.34816 0.92911 0.0
C522 C 0.3362 0.31043 0.94004 0.0
H523 H 0.11345 0.13286 0.97451 0.0
H524 H 0.17471 0.191 0.95491 0.0
H525 H 0.31411 0.21848 0.96661 0.0
H526 H 0.48351 0.42995 0.93172 0.0
H527 H 0.42152 0.36726 0.94987 0.0
C528 C 0.02498 0.14832 0.31169 0.0
C529 C 0.04775 0.1593 0.32762 0.0
C530 C 0.02376 0.18166 0.30086 0.0
C531 C 0.07764 0.30633 0.29302 0.0
H532 H 0.9666 0.27516 0.27022 0.0
C533 C 0.04191 0.43982 0.26097 0.0
C534 C 0.02843 0.43261 0.24333 0.0
C535 C 0.0433 0.40588 0.27129 0.0
C536 C 0.99786 0.28421 0.27645 0.0
H537 H 0.08748 0.21369 0.34465 0.0
H538 H 0.08427 0.27158 0.32613 0.0
H539 H 0.97239 0.21738 0.28788 0.0
H540 H 0.00395 0.38435 0.22277 0.0
H541 H 0.00525 0.32426 0.241 0.0
H542 H 0.10245 0.37354 0.28192 0.0
C543 C 0.06825 0.23755 0.32168 0.0
C544 C 0.00137 0.2511 0.28648 0.0
C545 C 0.06994 0.20431 0.33237 0.0
C546 C 0.01449 0.39044 0.23637 0.0
C547 C 0.01522 0.35624 0.24678 0.0
C548 C 0.07387 0.33953 0.2832 0.0
C549 C 0.04479 0.22661 0.30585 0.0
C550 C 0.04135 0.26171 0.29489 0.0
C551 C 0.03039 0.36394 0.26422 0.0
C552 C 0.03397 0.32876 0.27482 0.0
H553 H 0.00778 0.11388 0.30766 0.0
H554 H 0.0062 0.17209 0.2886 0.0
H555 H 0.10924 0.31564 0.299 0.0
H556 H 0.05238 0.47209 0.26658 0.0
H557 H 0.0546 0.41242 0.28478 0.0
loop_
_geom_bond_atom_site_label_1
_geom_bond_atom_site_label_2
_geom_bond_distance
_geom_bond_site_symmetry_2
_ccdc_geom_bond_type
In0 O1 2.294 . S
In0 O2 2.326 . S
In0 O6 2.266 1_455 S
In0 O7 2.326 1_545 S
In0 O8 2.271 . S
In0 O9 2.326 1_545 S
In0 O11 2.294 . S
In0 O12 2.326 . S
O1 In0 2.294 . S
O1 C10 1.240 . S
O2 In0 2.326 . S
O2 C10 1.252 . S
C3 O6 1.252 1_465 S
C3 O7 1.260 . S
C4 O11 1.240 . S
C4 O12 1.252 . S
C5 O8 1.251 1_565 S
C5 O9 1.260 . S
O6 In0 2.266 1_655 S
O6 C3 1.252 1_645 S
O7 In0 2.326 1_565 S
O7 C3 1.260 . S
O8 In0 2.271 . S
O8 C5 1.251 1_545 S
O9 In0 2.326 1_565 S
O9 C5 1.260 . S
C10 O1 1.240 . S
C10 O2 1.252 . S
O11 In0 2.294 . S
O11 C4 1.240 . S
O12 In0 2.326 . S
O12 C4 1.252 . S
In13 O14 2.294 . S
In13 O15 2.326 1_455 S
In13 O19 2.266 . S
In13 O20 2.326 . S
In13 O21 2.266 1_545 S
In13 O22 2.326 . S
In13 O24 2.294 1_455 S
In13 O25 2.326 . S
O14 In13 2.294 . S
O14 C23 1.240 . S
O15 In13 2.326 1_655 S
O15 C23 1.252 1_655 S
C16 O19 1.252 . S
C16 O20 1.260 . S
C17 O24 1.240 . S
C17 O25 1.252 1_655 S
C18 O21 1.252 1_545 S
C18 O22 1.260 . S
O19 In13 2.266 . S
O19 C16 1.252 . S
O20 In13 2.326 . S
O20 C16 1.260 . S
O21 In13 2.266 1_565 S
O21 C18 1.252 1_565 S
O22 In13 2.326 . S
O22 C18 1.260 . S
C23 O14 1.240 . S
C23 O15 1.252 1_455 S
O24 In13 2.294 1_655 S
O24 C17 1.240 . S
O25 In13 2.326 . S
O25 C17 1.252 1_455 S
In26 O27 2.294 1_545 S
In26 O28 2.326 1_455 S
In26 O32 2.266 . S
In26 O33 2.326 . S
In26 O34 2.266 . S
In26 O35 2.326 . S
In26 O37 2.294 . S
In26 O38 2.326 1_445 S
O27 In26 2.294 1_565 S
O27 C36 1.240 1_455 S
O28 In26 2.326 1_655 S
O28 C36 1.252 1_545 S
C29 O32 1.252 . S
C29 O33 1.260 . S
C30 O37 1.240 1_655 S
C30 O38 1.252 1_545 S
C31 O34 1.252 . S
C31 O35 1.260 . S
O32 In26 2.266 . S
O32 C29 1.252 . S
O33 In26 2.326 . S
O33 C29 1.260 . S
O34 In26 2.266 . S
O34 C31 1.252 . S
O35 In26 2.326 . S
O35 C31 1.260 . S
C36 O27 1.240 1_655 S
C36 O28 1.252 1_565 S
O37 In26 2.294 . S
O37 C30 1.240 1_455 S
O38 In26 2.326 1_665 S
O38 C30 1.252 1_565 S
C39 C40 1.443 . S
C39 N43 1.376 . S
C39 C77 1.389 . S
C40 C39 1.443 . S
C40 C41 1.340 . S
C40 H80 0.951 . S
C41 C40 1.340 . S
C41 C42 1.439 . S
C41 H81 0.950 . S
C42 C41 1.439 . S
C42 N43 1.374 . S
C42 C76 1.395 . S
N43 C39 1.376 . S
N43 C42 1.374 . S
N43 Co44 2.008 . S
Co44 N43 2.008 . S
Co44 N45 1.995 . S
Co44 N50 2.008 1_455 S
Co44 N55 1.995 1_455 S
Co44 N60 2.282 . S
Co44 N66 2.282 . S
N45 Co44 1.995 . S
N45 C46 1.376 . S
N45 C49 1.383 . S
C46 N45 1.376 . S
C46 C47 1.446 . S
C46 C76 1.391 . S
C47 C46 1.446 . S
C47 C48 1.339 . S
C47 H82 0.949 . S
C48 C47 1.339 . S
C48 C49 1.439 . S
C48 H83 0.950 . S
C49 N45 1.383 . S
C49 C48 1.439 . S
C49 C78 1.392 . S
N50 Co44 2.008 1_655 S
N50 C51 1.376 . S
N50 C54 1.374 . S
C51 N50 1.376 . S
C51 C52 1.443 . S
C51 C78 1.389 1_655 S
C52 C51 1.443 . S
C52 C53 1.340 . S
C52 H84 0.951 . S
C53 C52 1.340 . S
C53 C54 1.439 . S
C53 H85 0.950 . S
C54 N50 1.374 . S
C54 C53 1.439 . S
C54 C79 1.395 . S
N55 Co44 1.995 1_655 S
N55 C56 1.376 . S
N55 C59 1.383 1_655 S
C56 N55 1.376 . S
C56 C57 1.446 . S
C56 C79 1.391 . S
C57 C56 1.446 . S
C57 C58 1.339 . S
C57 H86 0.949 . S
C58 C57 1.339 . S
C58 C59 1.439 1_655 S
C58 H87 0.950 . S
C59 N55 1.383 1_455 S
C59 C58 1.439 1_455 S
C59 C77 1.392 . S
N60 Co44 2.282 . S
N60 C63 1.332 . S
N60 C65 1.332 . S
C61 C62 1.386 . S
C61 C64 1.388 . S
C62 C61 1.386 . S
C62 C63 1.382 . S
C62 H88 0.950 1_455 S
C63 N60 1.332 . S
C63 C62 1.382 . S
C63 H74 0.952 1_455 S
C64 C61 1.388 . S
C64 C65 1.382 . S
C64 H89 0.950 . S
C65 N60 1.332 . S
C65 C64 1.382 . S
C65 H75 0.948 . S
N66 Co44 2.282 . S
N66 C70 1.332 . S
N66 C71 1.332 1_455 S
C67 C68 1.388 1_655 S
C67 C71 1.382 . S
C67 H90 0.950 . S
C68 C67 1.388 1_455 S
C68 C69 1.386 . S
C69 C68 1.386 . S
C69 C70 1.382 . S
C69 H91 0.950 . S
C70 N66 1.332 . S
C70 C69 1.382 . S
C70 H72 0.952 . S
C71 N66 1.332 1_655 S
C71 C67 1.382 . S
C71 H73 0.948 . S
H72 C70 0.952 . S
H73 C71 0.948 . S
H74 C63 0.952 1_655 S
H75 C65 0.948 . S
C76 C42 1.395 . S
C76 C46 1.391 . S
C77 C39 1.389 . S
C77 C59 1.392 . S
C78 C49 1.392 . S
C78 C51 1.389 1_455 S
C79 C54 1.395 . S
C79 C56 1.391 . S
H80 C40 0.951 . S
H81 C41 0.950 . S
H82 C47 0.949 . S
H83 C48 0.950 . S
H84 C52 0.951 . S
H85 C53 0.950 . S
H86 C57 0.949 . S
H87 C58 0.950 . S
H88 C62 0.950 1_655 S
H89 C64 0.950 . S
H90 C67 0.950 . S
H91 C69 0.950 . S
C92 C93 1.443 1_545 S
C92 N96 1.376 . S
C92 C130 1.389 . S
C93 C92 1.443 1_565 S
C93 C94 1.340 . S
C93 H133 0.951 . S
C94 C93 1.340 . S
C94 C95 1.439 . S
C94 H134 0.950 . S
C95 C94 1.439 . S
C95 N96 1.374 1_565 S
C95 C129 1.395 . S
N96 C92 1.376 . S
N96 C95 1.374 1_545 S
N96 Co97 2.008 . S
Co97 N96 2.008 . S
Co97 N98 1.995 . S
Co97 N103 2.008 . S
Co97 N108 1.995 . S
Co97 N113 2.282 . S
Co97 N119 2.282 . S
N98 Co97 1.995 . S
N98 C99 1.376 1_545 S
N98 C102 1.383 . S
C99 N98 1.376 1_565 S
C99 C100 1.446 . S
C99 C129 1.391 . S
C100 C99 1.446 . S
C100 C101 1.339 . S
C100 H135 0.949 . S
C101 C100 1.339 . S
C101 C102 1.439 1_565 S
C101 H136 0.950 . S
C102 N98 1.383 . S
C102 C101 1.439 1_545 S
C102 C131 1.392 . S
N103 Co97 2.008 . S
N103 C104 1.376 . S
N103 C107 1.374 . S
C104 N103 1.376 . S
C104 C105 1.443 . S
C104 C131 1.389 . S
C105 C104 1.443 . S
C105 C106 1.340 . S
C105 H137 0.951 . S
C106 C105 1.340 . S
C106 C107 1.439 . S
C106 H138 0.950 . S
C107 N103 1.374 . S
C107 C106 1.439 . S
C107 C132 1.395 . S
N108 Co97 1.995 . S
N108 C109 1.376 . S
N108 C112 1.383 . S
C109 N108 1.376 . S
C109 C110 1.446 . S
C109 C132 1.391 . S
C110 C109 1.446 . S
C110 C111 1.339 . S
C110 H139 0.949 . S
C111 C110 1.339 . S
C111 C112 1.439 . S
C111 H140 0.950 . S
C112 N108 1.383 . S
C112 C111 1.439 . S
C112 C130 1.392 . S
N113 Co97 2.282 . S
N113 C116 1.332 . S
N113 C118 1.332 . S
C114 C115 1.386 . S
C114 C117 1.388 . S
C115 C114 1.386 . S
C115 C116 1.382 . S
C115 H141 0.950 . S
C116 N113 1.332 . S
C116 C115 1.382 . S
C116 H127 0.952 . S
C117 C114 1.388 . S
C117 C118 1.382 . S
C117 H142 0.950 1_545 S
C118 N113 1.332 . S
C118 C117 1.382 . S
C118 H128 0.948 1_545 S
N119 Co97 2.282 . S
N119 C123 1.332 . S
N119 C124 1.332 . S
C120 C121 1.388 . S
C120 C124 1.382 . S
C120 H143 0.950 . S
C121 C120 1.388 . S
C121 C122 1.386 . S
C122 C121 1.386 . S
C122 C123 1.382 . S
C122 H144 0.950 1_545 S
C123 N119 1.332 . S
C123 C122 1.382 . S
C123 H125 0.952 1_545 S
C124 N119 1.332 . S
C124 C120 1.382 . S
C124 H126 0.948 . S
H125 C123 0.952 1_565 S
H126 C124 0.948 . S
H127 C116 0.952 . S
H128 C118 0.948 1_565 S
C129 C95 1.395 . S
C129 C99 1.391 . S
C130 C92 1.389 . S
C130 C112 1.392 . S
C131 C102 1.392 . S
C131 C104 1.389 . S
C132 C107 1.395 . S
C132 C109 1.391 . S
H133 C93 0.951 . S
H134 C94 0.950 . S
H135 C100 0.949 . S
H136 C101 0.950 . S
H137 C105 0.951 . S
H138 C106 0.950 . S
H139 C110 0.949 . S
H140 C111 0.950 . S
H141 C115 0.950 . S
H142 C117 0.950 1_565 S
H143 C120 0.950 . S
H144 C122 0.950 1_565 S
C145 C146 1.443 . S
C145 N149 1.376 . S
C145 C183 1.389 . S
C146 C145 1.443 . S
C146 C147 1.340 . S
C146 H186 0.951 . S
C147 C146 1.340 . S
C147 C148 1.439 . S
C147 H187 0.950 . S
C148 C147 1.439 . S
C148 N149 1.374 . S
C148 C182 1.395 . S
N149 C145 1.376 . S
N149 C148 1.374 . S
N149 Co150 2.008 . S
Co150 N149 2.008 . S
Co150 N151 1.995 . S
Co150 N156 2.008 . S
Co150 N161 1.995 . S
Co150 N166 2.282 . S
Co150 N172 2.282 . S
N151 Co150 1.995 . S
N151 C152 1.376 . S
N151 C155 1.383 . S
C152 N151 1.376 . S
C152 C153 1.446 . S
C152 C182 1.391 . S
C153 C152 1.446 . S
C153 C154 1.339 . S
C153 H188 0.949 . S
C154 C153 1.339 . S
C154 C155 1.439 . S
C154 H189 0.950 . S
C155 N151 1.383 . S
C155 C154 1.439 . S
C155 C184 1.392 . S
N156 Co150 2.008 . S
N156 C157 1.376 . S
N156 C160 1.374 . S
C157 N156 1.376 . S
C157 C158 1.443 . S
C157 C184 1.389 . S
C158 C157 1.443 . S
C158 C159 1.340 . S
C158 H190 0.951 . S
C159 C158 1.340 . S
C159 C160 1.439 . S
C159 H191 0.950 . S
C160 N156 1.374 . S
C160 C159 1.439 . S
C160 C185 1.395 . S
N161 Co150 1.995 . S
N161 C162 1.376 . S
N161 C165 1.383 . S
C162 N161 1.376 . S
C162 C163 1.446 . S
C162 C185 1.391 . S
C163 C162 1.446 . S
C163 C164 1.339 . S
C163 H192 0.949 . S
C164 C163 1.339 . S
C164 C165 1.439 . S
C164 H193 0.950 . S
C165 N161 1.383 . S
C165 C164 1.439 . S
C165 C183 1.392 . S
N166 Co150 2.282 . S
N166 C169 1.332 . S
N166 C171 1.332 . S
C167 C168 1.386 . S
C167 C170 1.388 . S
C168 C167 1.386 . S
C168 C169 1.382 . S
C168 H194 0.950 . S
C169 N166 1.332 . S
C169 C168 1.382 . S
C169 H180 0.952 . S
C170 C167 1.388 . S
C170 C171 1.382 . S
C170 H195 0.950 . S
C171 N166 1.332 . S
C171 C170 1.382 . S
C171 H181 0.948 . S
N172 Co150 2.282 . S
N172 C176 1.332 . S
N172 C177 1.332 . S
C173 C174 1.388 . S
C173 C177 1.382 . S
C173 H196 0.950 . S
C174 C173 1.388 . S
C174 C175 1.386 . S
C175 C174 1.386 . S
C175 C176 1.382 . S
C175 H197 0.950 . S
C176 N172 1.332 . S
C176 C175 1.382 . S
C176 H178 0.952 . S
C177 N172 1.332 . S
C177 C173 1.382 . S
C177 H179 0.948 . S
H178 C176 0.952 . S
H179 C177 0.948 . S
H180 C169 0.952 . S
H181 C171 0.948 . S
C182 C148 1.395 . S
C182 C152 1.391 . S
C183 C145 1.389 . S
C183 C165 1.392 . S
C184 C155 1.392 . S
C184 C157 1.389 . S
C185 C160 1.395 . S
C185 C162 1.391 . S
H186 C146 0.951 . S
H187 C147 0.950 . S
H188 C153 0.949 . S
H189 C154 0.950 . S
H190 C158 0.951 . S
H191 C159 0.950 . S
H192 C163 0.949 . S
H193 C164 0.950 . S
H194 C168 0.950 . S
H195 C170 0.950 . S
H196 C173 0.950 . S
H197 C175 0.950 . S
C198 C199 1.349 . S
C198 C200 1.327 . S
C198 H223 0.950 . S
C199 C198 1.349 . S
C199 C215 1.349 . S
C200 C198 1.327 . S
C200 C219 1.429 . S
C200 H224 0.950 . S
C201 C218 1.574 . S
C201 C220 1.368 . S
C201 H225 0.949 1_455 S
H202 C206 0.949 . S
C203 C204 1.349 . S
C203 C205 1.327 . S
C203 H226 0.950 1_455 S
C204 C203 1.349 . S
C204 C216 1.349 . S
C205 C203 1.327 . S
C205 C221 1.429 . S
C205 H227 0.950 1_455 S
C206 H202 0.949 . S
C206 C214 1.574 . S
C206 C222 1.368 . S
H207 C215 0.950 1_655 S
H208 C213 0.950 1_655 S
H209 C214 0.949 . S
H210 C216 0.950 . S
H211 C217 0.950 . S
H212 C218 0.949 1_655 S
C213 H208 0.950 1_455 S
C213 C215 1.327 . S
C213 C219 1.429 . S
C214 C206 1.574 . S
C214 H209 0.949 . S
C214 C220 1.368 . S
C215 C199 1.349 . S
C215 H207 0.950 1_455 S
C215 C213 1.327 . S
C216 C204 1.349 . S
C216 H210 0.950 . S
C216 C217 1.327 . S
C217 H211 0.950 . S
C217 C216 1.327 . S
C217 C221 1.429 . S
C218 C201 1.574 . S
C218 H212 0.949 1_455 S
C218 C222 1.368 . S
C219 C200 1.429 . S
C219 C213 1.429 . S
C219 C220 1.523 . S
C220 C201 1.368 . S
C220 C214 1.368 . S
C220 C219 1.523 . S
C221 C205 1.429 . S
C221 C217 1.429 . S
C221 C222 1.523 . S
C222 C206 1.368 . S
C222 C218 1.368 . S
C222 C221 1.523 . S
H223 C198 0.950 . S
H224 C200 0.950 . S
H225 C201 0.949 1_655 S
H226 C203 0.950 1_655 S
H227 C205 0.950 1_655 S
C228 C229 1.349 . S
C228 C230 1.327 . S
C228 H253 0.950 . S
C229 C228 1.349 . S
C229 C245 1.349 . S
C230 C228 1.327 . S
C230 C249 1.429 . S
C230 H254 0.950 . S
C231 C248 1.574 . S
C231 C250 1.368 . S
C231 H255 0.949 . S
H232 C236 0.949 . S
C233 C234 1.349 . S
C233 C235 1.327 . S
C233 H256 0.950 . S
C234 C233 1.349 . S
C234 C246 1.349 . S
C235 C233 1.327 . S
C235 C251 1.429 . S
C235 H257 0.950 . S
C236 H232 0.949 . S
C236 C244 1.574 . S
C236 C252 1.368 . S
H237 C245 0.950 . S
H238 C243 0.950 . S
H239 C244 0.949 . S
H240 C246 0.962 . S
H241 C247 0.978 . S
H242 C248 0.949 . S
C243 H238 0.950 . S
C243 C245 1.327 . S
C243 C249 1.429 . S
C244 C236 1.574 . S
C244 H239 0.949 . S
C244 C250 1.368 . S
C245 C229 1.349 . S
C245 H237 0.950 . S
C245 C243 1.327 . S
C246 C234 1.349 . S
C246 H240 0.962 . S
C246 C247 1.327 . S
C247 H241 0.978 . S
C247 C246 1.327 . S
C247 C251 1.429 . S
C248 C231 1.574 . S
C248 H242 0.949 . S
C248 C252 1.368 . S
C249 C230 1.429 . S
C249 C243 1.429 . S
C249 C250 1.523 . S
C250 C231 1.368 . S
C250 C244 1.368 . S
C250 C249 1.523 . S
C251 C235 1.429 . S
C251 C247 1.429 . S
C251 C252 1.523 . S
C252 C236 1.368 . S
C252 C248 1.368 . S
C252 C251 1.523 . S
H253 C228 0.950 . S
H254 C230 0.950 . S
H255 C231 0.949 . S
H256 C233 0.950 . S
H257 C235 0.950 . S
C258 C259 1.349 . S
C258 C260 1.327 . S
C258 H283 0.950 . S
C259 C258 1.349 . S
C259 C275 1.349 . S
C260 C258 1.327 . S
C260 C279 1.429 . S
C260 H284 0.950 . S
C261 C278 1.574 . S
C261 C280 1.368 . S
C261 H285 0.949 . S
H262 C266 0.949 . S
C263 C264 1.349 . S
C263 C265 1.327 . S
C263 H286 0.950 . S
C264 C263 1.349 . S
C264 C276 1.349 . S
C265 C263 1.327 . S
C265 C281 1.429 . S
C265 H287 0.950 . S
C266 H262 0.949 . S
C266 C274 1.574 . S
C266 C282 1.368 . S
H267 C275 0.950 . S
H268 C273 0.950 . S
H269 C274 0.949 . S
H270 C276 0.950 . S
H271 C277 0.950 . S
H272 C278 0.949 . S
C273 H268 0.950 . S
C273 C275 1.327 . S
C273 C279 1.429 . S
C274 C266 1.574 . S
C274 H269 0.949 . S
C274 C280 1.368 . S
C275 C259 1.349 . S
C275 H267 0.950 . S
C275 C273 1.327 . S
C276 C264 1.349 . S
C276 H270 0.950 . S
C276 C277 1.327 . S
C277 H271 0.950 . S
C277 C276 1.327 . S
C277 C281 1.429 . S
C278 C261 1.574 . S
C278 H272 0.949 . S
C278 C282 1.368 . S
C279 C260 1.429 . S
C279 C273 1.429 . S
C279 C280 1.523 . S
C280 C261 1.368 . S
C280 C274 1.368 . S
C280 C279 1.523 . S
C281 C265 1.429 . S
C281 C277 1.429 . S
C281 C282 1.523 . S
C282 C266 1.368 . S
C282 C278 1.368 . S
C282 C281 1.523 . S
H283 C258 0.950 . S
H284 C260 0.950 . S
H285 C261 0.949 . S
H286 C263 0.950 . S
H287 C265 0.950 . S
C288 C289 1.349 . S
C288 C290 1.327 . S
C288 H313 0.950 . S
C289 C288 1.349 . S
C289 C305 1.349 . S
C290 C288 1.327 . S
C290 C309 1.429 . S
C290 H314 0.950 . S
C291 C308 1.574 . S
C291 C310 1.368 . S
C291 H315 0.949 . S
H292 C296 0.949 . S
C293 C294 1.349 . S
C293 C295 1.327 . S
C293 H316 0.950 . S
C294 C293 1.349 . S
C294 C306 1.349 . S
C295 C293 1.327 . S
C295 C311 1.429 . S
C295 H317 0.950 . S
C296 H292 0.949 . S
C296 C304 1.574 . S
C296 C312 1.368 . S
H297 C305 0.950 . S
H298 C303 0.950 . S
H299 C304 0.949 . S
H300 C306 0.950 . S
H301 C307 0.950 . S
H302 C308 0.949 . S
C303 H298 0.950 . S
C303 C305 1.327 . S
C303 C309 1.429 . S
C304 C296 1.574 . S
C304 H299 0.949 . S
C304 C310 1.368 . S
C305 C289 1.349 . S
C305 H297 0.950 . S
C305 C303 1.327 . S
C306 C294 1.349 . S
C306 H300 0.950 . S
C306 C307 1.327 . S
C307 H301 0.950 . S
C307 C306 1.327 . S
C307 C311 1.429 . S
C308 C291 1.574 . S
C308 H302 0.949 . S
C308 C312 1.368 . S
C309 C290 1.429 . S
C309 C303 1.429 . S
C309 C310 1.523 . S
C310 C291 1.368 . S
C310 C304 1.368 . S
C310 C309 1.523 . S
C311 C295 1.429 . S
C311 C307 1.429 . S
C311 C312 1.523 . S
C312 C296 1.368 . S
C312 C308 1.368 . S
C312 C311 1.523 . S
H313 C288 0.950 . S
H314 C290 0.950 . S
H315 C291 0.949 . S
H316 C293 0.950 . S
H317 C295 0.950 . S
C318 C319 1.349 . S
C318 C320 1.327 . S
C318 H343 0.950 . S
C319 C318 1.349 . S
C319 C335 1.349 . S
C320 C318 1.327 . S
C320 C339 1.429 . S
C320 H344 0.950 . S
C321 C338 1.574 . S
C321 C340 1.368 . S
C321 H345 0.949 . S
H322 C326 0.949 . S
C323 C324 1.349 . S
C323 C325 1.327 . S
C323 H346 0.950 . S
C324 C323 1.349 . S
C324 C336 1.349 . S
C325 C323 1.327 . S
C325 C341 1.429 . S
C325 H347 0.950 . S
C326 H322 0.949 . S
C326 C334 1.574 . S
C326 C342 1.368 . S
H327 C335 0.950 . S
H328 C333 0.950 . S
H329 C334 0.949 . S
H330 C336 0.950 . S
H331 C337 0.950 . S
H332 C338 0.949 . S
C333 H328 0.950 . S
C333 C335 1.327 . S
C333 C339 1.429 . S
C334 C326 1.574 . S
C334 H329 0.949 . S
C334 C340 1.368 . S
C335 C319 1.349 . S
C335 H327 0.950 . S
C335 C333 1.327 . S
C336 C324 1.349 . S
C336 H330 0.950 . S
C336 C337 1.327 . S
C337 H331 0.950 . S
C337 C336 1.327 . S
C337 C341 1.429 . S
C338 C321 1.574 . S
C338 H332 0.949 . S
C338 C342 1.368 . S
C339 C320 1.429 . S
C339 C333 1.429 . S
C339 C340 1.523 . S
C340 C321 1.368 . S
C340 C334 1.368 . S
C340 C339 1.523 . S
C341 C325 1.429 . S
C341 C337 1.429 . S
C341 C342 1.523 . S
C342 C326 1.368 . S
C342 C338 1.368 . S
C342 C341 1.523 . S
H343 C318 0.950 . S
H344 C320 0.950 . S
H345 C321 0.949 . S
H346 C323 0.950 . S
H347 C325 0.950 . S
C348 C349 1.349 . S
C348 C350 1.327 . S
C348 H373 0.950 . S
C349 C348 1.349 . S
C349 C365 1.349 . S
C350 C348 1.327 . S
C350 C369 1.429 . S
C350 H374 0.950 . S
C351 C368 1.574 . S
C351 C370 1.368 . S
C351 H375 0.949 . S
H352 C356 0.949 . S
C353 C354 1.349 . S
C353 C355 1.327 . S
C353 H376 0.950 . S
C354 C353 1.349 . S
C354 C366 1.349 . S
C355 C353 1.327 . S
C355 C371 1.429 . S
C355 H377 0.950 . S
C356 H352 0.949 . S
C356 C364 1.574 . S
C356 C372 1.368 . S
H357 C365 0.950 . S
H358 C363 0.950 . S
H359 C364 0.949 . S
H360 C366 0.950 . S
H361 C367 0.950 . S
H362 C368 0.949 . S
C363 H358 0.950 . S
C363 C365 1.327 . S
C363 C369 1.429 . S
C364 C356 1.574 . S
C364 H359 0.949 . S
C364 C370 1.368 . S
C365 C349 1.349 . S
C365 H357 0.950 . S
C365 C363 1.327 . S
C366 C354 1.349 . S
C366 H360 0.950 . S
C366 C367 1.327 . S
C367 H361 0.950 . S
C367 C366 1.327 . S
C367 C371 1.429 . S
C368 C351 1.574 . S
C368 H362 0.949 . S
C368 C372 1.368 . S
C369 C350 1.429 . S
C369 C363 1.429 . S
C369 C370 1.523 . S
C370 C351 1.368 . S
C370 C364 1.368 . S
C370 C369 1.523 . S
C371 C355 1.429 . S
C371 C367 1.429 . S
C371 C372 1.523 . S
C372 C356 1.368 . S
C372 C368 1.368 . S
C372 C371 1.523 . S
H373 C348 0.950 . S
H374 C350 0.950 . S
H375 C351 0.949 . S
H376 C353 0.950 . S
H377 C355 0.950 . S
C378 C379 1.349 . S
C378 C380 1.327 . S
C378 H403 0.950 . S
C379 C378 1.349 . S
C379 C395 1.357 . S
C380 C378 1.327 . S
C380 C399 1.429 . S
C380 H404 0.950 . S
C381 C398 1.574 . S
C381 C400 1.368 . S
C381 H405 0.949 1_545 S
H382 C386 0.949 . S
C383 C384 1.349 . S
C383 C385 1.327 . S
C383 H406 0.950 1_545 S
C384 C383 1.349 . S
C384 C396 1.349 . S
C385 C383 1.327 . S
C385 C401 1.429 . S
C385 H407 0.950 1_545 S
C386 H382 0.949 . S
C386 C394 1.574 . S
C386 C402 1.368 . S
H387 C395 0.929 1_565 S
H388 C393 0.950 1_565 S
H389 C394 0.949 . S
H390 C396 0.950 . S
H391 C397 0.950 . S
H392 C398 0.949 1_565 S
C393 H388 0.950 1_545 S
C393 C395 1.340 . S
C393 C399 1.429 . S
C394 C386 1.574 . S
C394 H389 0.949 . S
C394 C400 1.368 . S
C395 C379 1.357 . S
C395 H387 0.929 1_545 S
C395 C393 1.340 . S
C396 C384 1.349 . S
C396 H390 0.950 . S
C396 C397 1.327 . S
C397 H391 0.950 . S
C397 C396 1.327 . S
C397 C401 1.429 . S
C398 C381 1.574 . S
C398 H392 0.949 1_545 S
C398 C402 1.368 . S
C399 C380 1.429 . S
C399 C393 1.429 . S
C399 C400 1.523 . S
C400 C381 1.368 . S
C400 C394 1.368 . S
C400 C399 1.523 . S
C401 C385 1.429 . S
C401 C397 1.429 . S
C401 C402 1.523 . S
C402 C386 1.368 . S
C402 C398 1.368 . S
C402 C401 1.523 . S
H403 C378 0.950 . S
H404 C380 0.950 . S
H405 C381 0.949 1_565 S
H406 C383 0.950 1_565 S
H407 C385 0.950 1_565 S
C408 C409 1.292 1_556 S
C408 C410 1.327 . S
C408 H433 0.950 1_655 S
C409 C408 1.292 1_554 S
C409 C425 1.370 . S
C410 C408 1.327 . S
C410 C429 1.429 . S
C410 H434 0.950 . S
C411 C428 1.574 . S
C411 C430 1.368 . S
C411 H435 0.949 . S
H412 C416 0.949 . S
C413 C414 1.349 . S
C413 C415 1.327 . S
C413 H436 0.950 . S
C414 C413 1.349 . S
C414 C426 1.349 . S
C415 C413 1.327 . S
C415 C431 1.429 . S
C415 H437 0.950 . S
C416 H412 0.949 . S
C416 C424 1.574 . S
C416 C432 1.368 . S
H417 C425 0.950 . S
H418 C423 0.950 1_554 S
H419 C424 0.949 . S
H420 C426 0.950 . S
H421 C427 0.950 . S
H422 C428 0.949 . S
C423 H418 0.950 1_556 S
C423 C425 1.327 1_556 S
C423 C429 1.429 . S
C424 C416 1.574 . S
C424 H419 0.949 . S
C424 C430 1.368 . S
C425 C409 1.370 . S
C425 H417 0.950 . S
C425 C423 1.327 1_554 S
C426 C414 1.349 . S
C426 H420 0.950 . S
C426 C427 1.327 . S
C427 H421 0.950 . S
C427 C426 1.327 . S
C427 C431 1.429 . S
C428 C411 1.574 . S
C428 H422 0.949 . S
C428 C432 1.368 . S
C429 C410 1.429 . S
C429 C423 1.429 . S
C429 C430 1.523 . S
C430 C411 1.368 . S
C430 C424 1.368 . S
C430 C429 1.523 . S
C431 C415 1.429 . S
C431 C427 1.429 . S
C431 C432 1.523 . S
C432 C416 1.368 . S
C432 C428 1.368 . S
C432 C431 1.523 . S
H433 C408 0.950 1_455 S
H434 C410 0.950 . S
H435 C411 0.949 . S
H436 C413 0.950 . S
H437 C415 0.950 . S
C438 C439 1.349 . S
C438 C440 1.327 . S
C438 H463 0.950 1_455 S
C439 C438 1.349 . S
C439 C455 1.349 . S
C440 C438 1.327 . S
C440 C459 1.429 . S
C440 H464 0.950 1_455 S
C441 C458 1.574 . S
C441 C460 1.368 . S
C441 H465 0.949 . S
H442 C446 0.947 1_655 S
C443 C444 1.349 . S
C443 C445 1.327 . S
C443 H466 0.950 . S
C444 C443 1.349 . S
C444 C456 1.349 . S
C445 C443 1.327 . S
C445 C461 1.429 . S
C445 H467 0.950 . S
C446 H442 0.947 1_455 S
C446 C454 1.573 . S
C446 C462 1.372 . S
H447 C455 0.950 . S
H448 C453 0.950 . S
H449 C454 0.948 1_655 S
H450 C456 0.950 1_655 S
H451 C457 0.950 1_655 S
H452 C458 0.949 . S
C453 H448 0.950 . S
C453 C455 1.327 . S
C453 C459 1.429 . S
C454 C446 1.573 . S
C454 H449 0.948 1_455 S
C454 C460 1.369 . S
C455 C439 1.349 . S
C455 H447 0.950 . S
C455 C453 1.327 . S
C456 C444 1.349 . S
C456 H450 0.950 1_455 S
C456 C457 1.327 . S
C457 H451 0.950 1_455 S
C457 C456 1.327 . S
C457 C461 1.429 . S
C458 C441 1.574 . S
C458 H452 0.949 . S
C458 C462 1.368 . S
C459 C440 1.429 . S
C459 C453 1.429 . S
C459 C460 1.523 . S
C460 C441 1.368 . S
C460 C454 1.369 . S
C460 C459 1.523 . S
C461 C445 1.429 . S
C461 C457 1.429 . S
C461 C462 1.523 . S
C462 C446 1.372 . S
C462 C458 1.368 . S
C462 C461 1.523 . S
H463 C438 0.950 1_655 S
H464 C440 0.950 1_655 S
H465 C441 0.949 . S
H466 C443 0.950 . S
H467 C445 0.950 . S
C468 C469 1.349 . S
C468 C470 1.327 . S
C468 H493 0.950 . S
C469 C468 1.349 . S
C469 C485 1.349 . S
C470 C468 1.327 . S
C470 C489 1.429 . S
C470 H494 0.950 . S
C471 C488 1.574 . S
C471 C490 1.368 . S
C471 H495 0.949 1_545 S
H472 C476 0.949 . S
C473 C474 1.349 . S
C473 C475 1.327 . S
C473 H496 0.950 1_545 S
C474 C473 1.349 . S
C474 C486 1.349 . S
C475 C473 1.327 . S
C475 C491 1.429 . S
C475 H497 0.950 1_545 S
C476 H472 0.949 . S
C476 C484 1.574 . S
C476 C492 1.368 . S
H477 C485 0.950 1_565 S
H478 C483 0.950 1_565 S
H479 C484 0.949 . S
H480 C486 0.950 . S
H481 C487 0.950 . S
H482 C488 0.949 1_565 S
C483 H478 0.950 1_545 S
C483 C485 1.327 . S
C483 C489 1.429 . S
C484 C476 1.574 . S
C484 H479 0.949 . S
C484 C490 1.368 . S
C485 C469 1.349 . S
C485 H477 0.950 1_545 S
C485 C483 1.327 . S
C486 C474 1.349 . S
C486 H480 0.950 . S
C486 C487 1.327 . S
C487 H481 0.950 . S
C487 C486 1.327 . S
C487 C491 1.429 . S
C488 C471 1.574 . S
C488 H482 0.949 1_545 S
C488 C492 1.368 . S
C489 C470 1.429 . S
C489 C483 1.429 . S
C489 C490 1.523 . S
C490 C471 1.368 . S
C490 C484 1.368 . S
C490 C489 1.523 . S
C491 C475 1.429 . S
C491 C487 1.429 . S
C491 C492 1.523 . S
C492 C476 1.368 . S
C492 C488 1.368 . S
C492 C491 1.523 . S
H493 C468 0.950 . S
H494 C470 0.950 . S
H495 C471 0.949 1_565 S
H496 C473 0.950 1_565 S
H497 C475 0.950 1_565 S
C498 C499 1.349 . S
C498 C500 1.327 . S
C498 H523 0.950 . S
C499 C498 1.349 . S
C499 C515 1.338 1_556 S
C500 C498 1.327 . S
C500 C519 1.429 . S
C500 H524 0.950 . S
C501 C518 1.574 . S
C501 C520 1.368 . S
C501 H525 0.949 . S
H502 C506 0.949 . S
C503 C504 1.349 . S
C503 C505 1.327 . S
C503 H526 0.950 . S
C504 C503 1.349 . S
C504 C516 1.349 . S
C505 C503 1.327 . S
C505 C521 1.429 . S
C505 H527 0.950 . S
C506 H502 0.949 . S
C506 C514 1.574 . S
C506 C522 1.368 . S
H507 C515 0.995 . S
H508 C513 0.950 . S
H509 C514 0.949 . S
H510 C516 0.950 . S
H511 C517 0.950 . S
H512 C518 0.949 . S
C513 H508 0.950 . S
C513 C515 1.297 1_556 S
C513 C519 1.429 . S
C514 C506 1.574 . S
C514 H509 0.949 . S
C514 C520 1.368 . S
C515 C499 1.338 1_554 S
C515 H507 0.995 . S
C515 C513 1.297 1_554 S
C516 C504 1.349 . S
C516 H510 0.950 . S
C516 C517 1.327 . S
C517 H511 0.950 . S
C517 C516 1.327 . S
C517 C521 1.429 . S
C518 C501 1.574 . S
C518 H512 0.949 . S
C518 C522 1.368 . S
C519 C500 1.429 . S
C519 C513 1.429 . S
C519 C520 1.523 . S
C520 C501 1.368 . S
C520 C514 1.368 . S
C520 C519 1.523 . S
C521 C505 1.429 . S
C521 C517 1.429 . S
C521 C522 1.523 . S
C522 C506 1.368 . S
C522 C518 1.368 . S
C522 C521 1.523 . S
H523 C498 0.950 . S
H524 C500 0.950 . S
H525 C501 0.949 . S
H526 C503 0.950 . S
H527 C505 0.950 . S
C528 C529 1.349 1_655 S
C528 C530 1.327 . S
C528 H553 0.950 . S
C529 C528 1.349 1_455 S
C529 C545 1.349 . S
C530 C528 1.327 . S
C530 C549 1.429 1_655 S
C530 H554 0.950 . S
C531 C548 1.574 . S
C531 C550 1.368 . S
C531 H555 0.949 . S
H532 C536 0.949 . S
C533 C534 1.349 . S
C533 C535 1.327 . S
C533 H556 0.950 . S
C534 C533 1.349 . S
C534 C546 1.358 . S
C535 C533 1.327 . S
C535 C551 1.429 . S
C535 H557 0.950 . S
C536 H532 0.949 . S
C536 C544 1.574 . S
C536 C552 1.368 1_655 S
H537 C545 0.950 . S
H538 C543 0.950 . S
H539 C544 0.949 . S
H540 C546 0.932 1_655 S
H541 C547 0.950 . S
H542 C548 0.949 . S
C543 H538 0.950 . S
C543 C545 1.327 . S
C543 C549 1.429 . S
C544 C536 1.574 . S
C544 H539 0.949 . S
C544 C550 1.368 1_655 S
C545 C529 1.349 . S
C545 H537 0.950 . S
C545 C543 1.327 . S
C546 C534 1.358 . S
C546 H540 0.932 1_455 S
C546 C547 1.337 1_455 S
C547 H541 0.950 . S
C547 C546 1.337 1_655 S
C547 C551 1.429 1_655 S
C548 C531 1.574 . S
C548 H542 0.949 . S
C548 C552 1.368 . S
C549 C530 1.429 1_455 S
C549 C543 1.429 . S
C549 C550 1.523 . S
C550 C531 1.368 . S
C550 C544 1.368 1_455 S
C550 C549 1.523 . S
C551 C535 1.429 . S
C551 C547 1.429 1_455 S
C551 C552 1.523 . S
C552 C536 1.368 1_455 S
C552 C548 1.368 . S
C552 C551 1.523 . S
H553 C528 0.950 . S
H554 C530 0.950 . S
H555 C531 0.949 . S
H556 C533 0.950 . S
H557 C535 0.950 . S
C204 C61 1.521 . S
C199 C10 1.521 . S
C229 C17 1.523 . S
C234 C131 1.523 . S
C259 C36 1.525 . S
C264 C183 1.525 . S
C289 C5 1.525 . S
C294 C77 1.524 . S
C324 C121 1.524 . S
C319 C16 1.524 . S
C349 C31 1.524 . S
C354 C167 1.524 . S
C384 C114 1.521 . S
C379 C30 1.521 . S
C409 C3 1.563 1_655 S
C414 C174 1.524 . S
C444 C68 1.524 . S
C439 C18 1.524 1_565 S
C474 C130 1.524 . S
C469 C29 1.525 . S
C504 C184 1.525 . S
C499 C4 1.525 1_556 S
C529 C23 1.523 . S
C534 C78 1.523 . S
