# Generated by pormake.
# Topology pth, (4,4)-cn, num edge types: 1
# Building blocks:
#     Node 0, Type 0, BuildingBlock: NAHDIM_clean_sbu_0, # of connection points: 4
#     Node 1, Type 0, BuildingBlock: NAHDIM_clean_sbu_0, # of connection points: 4
#     Node 2, Type 0, BuildingBlock: NAHDIM_clean_sbu_0, # of connection points: 4
#     Node 3, Type 1, BuildingBlock: NAWXER_clean_sbu_0, # of connection points: 4
#     Node 4, Type 1, BuildingBlock: NAWXER_clean_sbu_0, # of connection points: 4
#     Node 5, Type 1, BuildingBlock: NAWXER_clean_sbu_0, # of connection points: 4
#     Edge 6, Type (0, 1), BuildingBlock: CIFDUS_clean_linker_0, # of connection points: 2
#     Edge 7, Type (0, 1), BuildingBlock: CIFDUS_clean_linker_0, # of connection points: 2
#     Edge 8, Type (0, 1), BuildingBlock: CIFDUS_clean_linker_0, # of connection points: 2
#     Edge 9, Type (0, 1), BuildingBlock: CIFDUS_clean_linker_0, # of connection points: 2
#     Edge 10, Type (0, 1), BuildingBlock: CIFDUS_clean_linker_0, # of connection points: 2
#     Edge 11, Type (0, 1), BuildingBlock: CIFDUS_clean_linker_0, # of connection points: 2
#     Edge 12, Type (0, 1), BuildingBlock: CIFDUS_clean_linker_0, # of connection points: 2
#     Edge 13, Type (0, 1), BuildingBlock: CIFDUS_clean_linker_0, # of connection points: 2
#     Edge 14, Type (0, 1), BuildingBlock: CIFDUS_clean_linker_0, # of connection points: 2
#     Edge 15, Type (0, 1), BuildingBlock: CIFDUS_clean_linker_0, # of connection points: 2
#     Edge 16, Type (0, 1), BuildingBlock: CIFDUS_clean_linker_0, # of connection points: 2
#     Edge 17, Type (0, 1), BuildingBlock: CIFDUS_clean_linker_0, # of connection points: 2
# Relax obj value: 0.052
# Max RMSD: 0.176
# Mean RMSD: 0.101
data_MOF--net-pth--node1-NAHDIM_clean_sbu_0--node2-NAWXER_clean_sbu_0--edge1-CIFDUS_clean_linker_0
_symmetry_space_group_name_H-M    P1
_symmetry_Int_Tables_number       1
_symmetry_cell_setting            triclinic
loop_
_symmetry_equiv_pos_as_xyz
'x, y, z'
_cell_length_a     20.087816
_cell_length_b     20.173587
_cell_length_c     49.565736
_cell_angle_alpha  91.953661
_cell_angle_beta   90.177236
_cell_angle_gamma 120.61632
loop_
_atom_site_label
_atom_site_type_symbol
_atom_site_fract_x
_atom_site_fract_y
_atom_site_fract_z
_atom_type_partial_charge
C0 C 0.01518 0.91963 0.10329 0.0
O1 O 0.94969 0.91774 0.0989 0.0
O2 O 0.05992 0.1255 0.09507 0.0
Zn3 Zn 0.066 0.0477 0.06999 0.0
O4 O 0.96991 0.98349 0.04657 0.0
C5 C 0.16767 0.17085 0.0386 0.0
O6 O 0.11867 0.19186 0.0467 0.0
O7 O 0.07659 0.9723 0.09286 0.0
C8 C 0.93034 1.00112 0.03151 0.0
O9 O 0.95028 0.07371 0.02965 0.0
C10 C 0.99774 0.12315 0.10158 0.0
O11 O 0.93129 0.06567 0.09219 0.0
O12 O 0.15785 0.10669 0.04592 0.0
C13 C 0.01254 0.14766 0.37082 0.0
O14 O 0.94733 0.08202 0.37305 0.0
O15 O 0.06175 0.98816 0.38002 0.0
Zn16 Zn 0.0603 0.06887 0.40481 0.0
O17 O 0.95918 0.02804 0.42407 0.0
C18 C 0.21583 0.14623 0.4322 0.0
O19 O 0.24392 0.18691 0.41064 0.0
O20 O 0.07316 0.15737 0.3829 0.0
C21 C 0.93425 0.97864 0.4423 0.0
O22 O 0.97466 0.94696 0.44921 0.0
C23 C 1.00027 0.92623 0.37277 0.0
O24 O 0.93347 0.91494 0.3812 0.0
O25 O 0.14353 0.0988 0.43333 0.0
C26 C 0.17262 0.05234 0.70034 0.0
O27 O 0.19213 0.1226 0.70864 0.0
O28 O 0.96955 0.03593 0.71183 0.0
Zn29 Zn 0.04549 0.0206 0.73361 0.0
O30 O 0.11785 0.11594 0.75615 0.0
C31 C 0.91992 0.87928 0.75398 0.0
O32 O 0.88593 0.87754 0.73105 0.0
O33 O 0.10954 0.99604 0.70825 0.0
C34 C 0.10489 0.1661 0.76708 0.0
O35 O 0.03636 0.15866 0.76412 0.0
C36 C 0.98742 0.09576 0.69877 0.0
O37 O 0.05938 0.15329 0.6996 0.0
O38 O 0.98855 0.93411 0.75911 0.0
C39 C 0.07389 0.6528 0.27254 0.0
C40 C 0.07194 0.47321 0.20227 0.0
O41 O 0.1343 0.65702 0.26256 0.0
Zn42 Zn 0.0801 0.56675 0.23744 0.0
O43 O 0.00708 0.59871 0.26422 0.0
Zn44 Zn 0.95401 0.50324 0.23653 0.0
O45 O 0.9001 0.41719 0.26034 0.0
O46 O 0.02725 0.47445 0.26426 0.0
O47 O 0.00549 0.46017 0.20962 0.0
O48 O 0.1328 0.53027 0.21305 0.0
O49 O 0.02749 0.60617 0.20998 0.0
O50 O 0.90033 0.53537 0.21203 0.0
C51 C 0.95995 0.42186 0.27126 0.0
C52 C 0.96031 0.59118 0.20205 0.0
C53 C 0.72102 0.15889 0.59515 0.0
C54 C 0.54548 0.17156 0.52961 0.0
O55 O 0.66019 0.0935 0.58952 0.0
Zn56 Zn 0.55935 0.04579 0.56395 0.0
O57 O 0.73105 0.21831 0.58343 0.0
Zn58 Zn 0.63581 0.16794 0.56168 0.0
O59 O 0.54773 0.1324 0.59131 0.0
O60 O 0.47671 0.00524 0.58979 0.0
O61 O 0.61052 0.22737 0.53814 0.0
O62 O 0.52173 0.10338 0.53761 0.0
O63 O 0.57399 0.97613 0.53978 0.0
O64 O 0.65585 0.09927 0.53312 0.0
C65 C 0.49103 0.07006 0.60002 0.0
C66 C 0.62959 0.02802 0.52681 0.0
C67 C 0.45987 0.48408 0.93856 0.0
C68 C 0.6197 0.6165 0.86188 0.0
O69 O 0.44768 0.53556 0.92922 0.0
Zn70 Zn 0.48745 0.61696 0.89806 0.0
O71 O 0.51104 0.4726 0.92803 0.0
Zn72 Zn 0.544 0.55076 0.90107 0.0
O73 O 0.59563 0.6554 0.92489 0.0
O74 O 0.53211 0.71615 0.91797 0.0
O75 O 0.62582 0.56856 0.87615 0.0
O76 O 0.57121 0.6376 0.8681 0.0
O77 O 0.39375 0.5776 0.87576 0.0
O78 O 0.44401 0.50233 0.87492 0.0
C79 C 0.58701 0.71336 0.92968 0.0
C80 C 0.39208 0.51672 0.86692 0.0
H81 H 0.12518 0.24869 0.12497 0.0
H82 H 0.87624 0.13761 0.1178 0.0
H83 H 0.87902 0.23841 0.14708 0.0
H84 H 0.95033 0.35494 0.17535 0.0
H85 H 0.19884 0.46726 0.18413 0.0
H86 H 0.19798 0.36913 0.15319 0.0
C87 C 0.07153 0.24656 0.1298 0.0
C88 C 1.00046 0.18525 0.11926 0.0
C89 C 0.07345 0.30485 0.14681 0.0
C90 C 0.93163 0.18367 0.12567 0.0
C91 C 0.93315 0.24142 0.14239 0.0
C92 C 0.0047 0.35855 0.17054 0.0
C93 C 0.07465 0.41842 0.18219 0.0
C94 C 1.00354 0.30184 0.15316 0.0
C95 C 0.14423 0.42193 0.17546 0.0
C96 C 0.14365 0.36566 0.15785 0.0
H97 H 0.84431 0.04079 0.43409 0.0
H98 H 0.86945 0.88548 0.48518 0.0
H99 H 0.7669 0.87709 0.51397 0.0
H100 H 0.68143 0.92705 0.5277 0.0
H101 H 0.66609 0.09031 0.47807 0.0
H102 H 0.75229 0.08149 0.44542 0.0
C103 C 0.82685 0.00425 0.45132 0.0
C104 C 0.86533 0.96467 0.45765 0.0
C105 C 0.76941 1.00124 0.4681 0.0
C106 C 0.84128 0.91712 0.47994 0.0
C107 C 0.78269 0.91238 0.49646 0.0
C108 C 0.69547 0.95882 0.50933 0.0
C109 C 0.66751 0.00895 0.50509 0.0
C110 C 0.74784 0.95593 0.49117 0.0
C111 C 0.68705 0.05126 0.48158 0.0
C112 C 0.73659 0.04656 0.46302 0.0
H113 H 0.76528 0.77912 0.75452 0.0
H114 H 0.97634 0.85367 0.80038 0.0
H115 H 0.90224 0.77007 0.83678 0.0
H116 H 0.77586 0.68498 0.85745 0.0
H117 H 0.56598 0.62076 0.81266 0.0
H118 H 0.64084 0.68983 0.77386 0.0
C119 C 0.79527 0.77638 0.7723 0.0
C120 C 0.87616 0.82293 0.77477 0.0
C121 C 0.75225 0.7299 0.79342 0.0
C122 C 0.91399 0.81881 0.79804 0.0
C123 C 0.87166 0.771 0.81888 0.0
C124 C 0.74696 0.68494 0.83893 0.0
C125 C 0.66588 0.64779 0.83768 0.0
C126 C 0.79058 0.72753 0.81706 0.0
C127 C 0.62853 0.64908 0.81389 0.0
C128 C 0.67124 0.68873 0.79179 0.0
H129 H 0.89308 0.79725 0.12615 0.0
H130 H 0.14118 0.91108 0.11871 0.0
H131 H 0.14467 0.81733 0.14761 0.0
H132 H 0.07854 0.70609 0.17581 0.0
H133 H 0.83073 0.59148 0.18396 0.0
H134 H 0.82589 0.68245 0.15363 0.0
C135 C 0.94796 0.80155 0.1308 0.0
C136 C 0.01689 0.86151 0.12034 0.0
C137 C 0.94959 0.74735 0.14747 0.0
C138 C 0.08733 0.8658 0.12649 0.0
C139 C 0.08938 0.81217 0.14303 0.0
C140 C 0.02319 0.70051 0.17094 0.0
C141 C 0.95504 0.64204 0.18229 0.0
C142 C 0.021 0.75313 0.15374 0.0
C143 C 0.88402 0.63579 0.17553 0.0
C144 C 0.88131 0.68797 0.15826 0.0
H145 H 0.37237 0.24473 0.439 0.0
H146 H 0.17618 0.05085 0.47418 0.0
H147 H 0.26088 0.04373 0.50755 0.0
H148 H 0.39037 0.0872 0.52543 0.0
H149 H 0.58798 0.28322 0.49232 0.0
H150 H 0.50305 0.29515 0.45957 0.0
C151 C 0.34817 0.20135 0.4541 0.0
C152 C 0.26796 0.148 0.45383 0.0
C153 C 0.39742 0.19763 0.47352 0.0
C154 C 0.23756 0.09257 0.47374 0.0
C155 C 0.28599 0.0882 0.49286 0.0
C156 C 0.41493 0.13269 0.51107 0.0
C157 C 0.49529 0.18362 0.51101 0.0
C158 C 0.36595 0.13954 0.49267 0.0
C159 C 0.52619 0.2432 0.49268 0.0
C160 C 0.47768 0.24984 0.47393 0.0
H161 H 0.10067 0.28549 0.79368 0.0
H162 H 0.24931 0.19249 0.77762 0.0
H163 H 0.35088 0.29431 0.80609 0.0
H164 H 0.39654 0.40611 0.83659 0.0
H165 H 0.25194 0.50273 0.85352 0.0
H166 H 0.15001 0.4035 0.82339 0.0
C167 C 0.15537 0.28772 0.79636 0.0
C168 C 0.16687 0.23084 0.78365 0.0
C169 C 0.21425 0.34694 0.81288 0.0
C170 C 0.2384 0.23499 0.78721 0.0
C171 C 0.29676 0.29331 0.80351 0.0
C172 C 0.34278 0.40577 0.83376 0.0
C173 C 0.33151 0.46125 0.84751 0.0
C174 C 0.28501 0.34894 0.81662 0.0
C175 C 0.26197 0.46054 0.8432 0.0
C176 C 0.20367 0.40367 0.82605 0.0
H177 H 0.00383 0.21503 0.6692 0.0
H178 H 0.83713 0.98235 0.69013 0.0
H179 H 0.74032 0.98306 0.66067 0.0
H180 H 0.70385 0.04713 0.62797 0.0
H181 H 0.86827 0.27974 0.60659 0.0
H182 H 0.96495 0.28173 0.63741 0.0
C183 C 0.94624 0.1646 0.6674 0.0
C184 C 0.92809 0.09858 0.68179 0.0
C185 C 0.89045 0.16526 0.65034 0.0
C186 C 0.85297 0.03391 0.67929 0.0
C187 C 0.79744 0.03416 0.66241 0.0
C188 C 0.76076 0.09851 0.63003 0.0
C189 C 0.7789 0.16303 0.61482 0.0
C190 C 0.81576 0.09915 0.64767 0.0
C191 C 0.85275 0.22925 0.61803 0.0
C192 C 0.9081 0.23032 0.6356 0.0
H193 H 0.82876 0.0133 0.99764 0.0
H194 H 0.88275 0.84858 0.02924 0.0
H195 H 0.77962 0.74601 1.00149 0.0
H196 H 0.67823 0.7031 0.96709 0.0
H197 H 0.61987 0.86361 0.93498 0.0
H198 H 0.71999 0.96753 0.96431 0.0
C199 C 0.81768 0.95492 0.99852 0.0
C200 C 0.86419 0.93913 0.01539 0.0
C201 C 0.75759 0.89537 0.98243 0.0
C202 C 0.84849 0.86288 0.0164 0.0
C203 C 0.78939 0.8039 1.00051 0.0
C204 C 0.68711 0.76077 0.96649 0.0
C205 C 0.64224 0.7758 0.94868 0.0
C206 C 0.74432 0.81963 0.98326 0.0
C207 C 0.65373 0.85058 0.94851 0.0
C208 C 0.71117 0.91 0.96519 0.0
H209 H 0.12793 0.93238 0.35045 0.0
H210 H 0.87988 0.78663 0.35575 0.0
H211 H 0.88284 0.68882 0.32658 0.0
H212 H 0.95365 0.64585 0.29887 0.0
H213 H 0.20108 0.78935 0.29171 0.0
H214 H 0.2006 0.88671 0.32274 0.0
C215 C 0.07457 0.87915 0.34524 0.0
C216 C 1.00365 0.86713 0.35522 0.0
C217 C 0.07654 0.82279 0.32826 0.0
C218 C 0.93516 0.79773 0.34832 0.0
C219 C 0.93675 0.74159 0.33166 0.0
C220 C 0.00789 0.69824 0.30404 0.0
C221 C 0.07735 0.71037 0.29281 0.0
C222 C 0.00688 0.75376 0.32142 0.0
C223 C 0.14682 0.77848 0.30005 0.0
C224 C 0.14643 0.83422 0.3177 0.0
H225 H 0.31584 0.15937 0.68532 0.0
H226 H 0.14496 0.91761 0.67446 0.0
H227 H 0.22981 0.9002 0.64329 0.0
H228 H 0.35143 0.95554 0.61784 0.0
H229 H 0.52004 0.19816 0.62949 0.0
H230 H 0.43722 0.21291 0.6617 0.0
C231 C 0.29693 0.10272 0.6762 0.0
C232 C 0.22394 0.04005 0.68209 0.0
C233 C 0.34574 0.09321 0.6584 0.0
C234 C 0.20085 0.96695 0.67022 0.0
C235 C 0.24934 0.95697 0.65239 0.0
C236 C 0.37022 0.0114 0.62762 0.0
C237 C 0.44177 0.07564 0.62108 0.0
C238 C 0.3218 0.01991 0.64616 0.0
C239 C 0.46516 0.14771 0.63393 0.0
C240 C 0.4178 0.15638 0.6524 0.0
H241 H 0.21413 0.31785 0.02762 0.0
H242 H 0.26544 0.13788 0.01002 0.0
H243 H 0.36545 0.22112 0.97874 0.0
H244 H 0.43263 0.34318 0.95429 0.0
H245 H 0.37687 0.52003 0.97256 0.0
H246 H 0.28484 0.43997 0.00578 0.0
C247 C 0.24722 0.29663 0.01704 0.0
C248 C 0.23174 0.22147 0.02094 0.0
C249 C 0.30397 0.34439 0.99915 0.0
C250 C 0.27601 0.19548 0.0073 0.0
C251 C 0.33312 0.24303 0.98938 0.0
C252 C 0.40104 0.36442 0.96583 0.0
C253 C 0.41125 0.43729 0.96075 0.0
C254 C 0.34692 0.31737 0.98486 0.0
C255 C 0.36968 0.46393 0.97582 0.0
C256 C 0.3169 0.41819 0.99486 0.0
H257 H 0.89118 0.14674 0.34576 0.0
H258 H 0.13884 0.28532 0.35845 0.0
H259 H 0.14299 0.38336 0.32979 0.0
H260 H 0.07754 0.42755 0.30011 0.0
H261 H 0.83013 0.28985 0.28686 0.0
H262 H 0.82464 0.1937 0.3171 0.0
C263 C 0.94613 0.19844 0.34232 0.0
C264 C 0.01475 0.20835 0.35414 0.0
C265 C 0.94811 0.25466 0.32579 0.0
C266 C 0.08524 0.27601 0.34958 0.0
C267 C 0.08766 0.33212 0.33318 0.0
C268 C 0.02215 0.37671 0.30385 0.0
C269 C 0.9543 0.3658 0.29106 0.0
C270 C 0.01959 0.32171 0.32104 0.0
C271 C 0.88318 0.29976 0.2964 0.0
C272 C 0.8801 0.24466 0.31362 0.0
loop_
_geom_bond_atom_site_label_1
_geom_bond_atom_site_label_2
_geom_bond_distance
_geom_bond_site_symmetry_2
_ccdc_geom_bond_type
C0 O1 1.160 . S
C0 O7 1.185 . S
O1 C0 1.160 . S
O2 Zn3 1.899 . S
O2 C10 1.284 . S
Zn3 O2 1.899 . S
Zn3 O4 2.032 1_445 S
Zn3 O7 2.086 1_545 S
Zn3 O12 1.977 . S
O4 Zn3 2.032 1_665 S
O4 C8 1.278 . S
C5 O6 1.203 . S
C5 O12 1.267 . S
O6 C5 1.203 . S
O7 C0 1.185 . S
O7 Zn3 2.086 1_565 S
C8 O4 1.278 . S
C8 O9 1.211 1_565 S
O9 C8 1.211 1_545 S
C10 O2 1.284 . S
C10 O11 1.273 1_455 S
O11 C10 1.273 1_655 S
O12 Zn3 1.977 . S
O12 C5 1.267 . S
C13 O14 1.160 . S
C13 O20 1.185 . S
O14 C13 1.160 . S
O15 Zn16 1.899 . S
O15 C23 1.284 1_545 S
Zn16 O15 1.899 . S
Zn16 O17 2.032 1_455 S
Zn16 O20 2.086 . S
Zn16 O25 1.977 . S
O17 Zn16 2.032 1_655 S
O17 C21 1.278 . S
C18 O19 1.203 . S
C18 O25 1.267 . S
O19 C18 1.203 . S
O20 C13 1.185 . S
O20 Zn16 2.086 . S
C21 O17 1.278 . S
C21 O22 1.211 . S
O22 C21 1.211 . S
C23 O15 1.284 1_565 S
C23 O24 1.273 1_455 S
O24 C23 1.273 1_655 S
O25 Zn16 1.977 . S
O25 C18 1.267 . S
C26 O27 1.160 . S
C26 O33 1.185 1_545 S
O27 C26 1.160 . S
O28 Zn29 1.899 1_655 S
O28 C36 1.284 . S
Zn29 O28 1.899 1_455 S
Zn29 O30 2.032 . S
Zn29 O33 2.086 1_545 S
Zn29 O38 1.977 1_445 S
O30 Zn29 2.032 . S
O30 C34 1.278 . S
C31 O32 1.203 . S
C31 O38 1.267 . S
O32 C31 1.203 . S
O33 C26 1.185 1_565 S
O33 Zn29 2.086 1_565 S
C34 O30 1.278 . S
C34 O35 1.211 . S
O35 C34 1.211 . S
C36 O28 1.284 . S
C36 O37 1.273 . S
O37 C36 1.273 . S
O38 Zn29 1.977 1_665 S
O38 C31 1.267 . S
C39 O41 1.247 . S
C39 O43 1.258 1_455 S
C40 O47 1.247 1_455 S
C40 O48 1.258 . S
O41 C39 1.247 . S
O41 Zn42 2.028 . S
Zn42 O41 2.028 . S
Zn42 O46 2.035 . S
Zn42 O48 2.035 . S
Zn42 O49 2.028 . S
O43 C39 1.258 1_655 S
O43 Zn44 2.035 . S
Zn44 O43 2.035 . S
Zn44 O45 2.028 . S
Zn44 O47 2.028 . S
Zn44 O50 2.035 . S
O45 Zn44 2.028 . S
O45 C51 1.247 1_655 S
O46 Zn42 2.035 . S
O46 C51 1.258 . S
O47 C40 1.247 1_655 S
O47 Zn44 2.028 . S
O48 C40 1.258 . S
O48 Zn42 2.035 . S
O49 Zn42 2.028 . S
O49 C52 1.247 . S
O50 Zn44 2.035 . S
O50 C52 1.258 1_655 S
C51 O45 1.247 1_455 S
C51 O46 1.258 . S
C52 O49 1.247 . S
C52 O50 1.258 1_455 S
C53 O55 1.247 1_545 S
C53 O57 1.258 . S
C54 O61 1.247 . S
C54 O62 1.258 1_545 S
O55 C53 1.247 1_565 S
O55 Zn56 2.028 . S
Zn56 O55 2.028 . S
Zn56 O60 2.035 . S
Zn56 O62 2.035 . S
Zn56 O63 2.028 . S
O57 C53 1.258 . S
O57 Zn58 2.035 . S
Zn58 O57 2.035 . S
Zn58 O59 2.028 . S
Zn58 O61 2.028 . S
Zn58 O64 2.035 . S
O59 Zn58 2.028 . S
O59 C65 1.247 . S
O60 Zn56 2.035 . S
O60 C65 1.258 1_565 S
O61 C54 1.247 . S
O61 Zn58 2.028 . S
O62 C54 1.258 1_565 S
O62 Zn56 2.035 . S
O63 Zn56 2.028 . S
O63 C66 1.247 1_565 S
O64 Zn58 2.035 . S
O64 C66 1.258 . S
C65 O59 1.247 . S
C65 O60 1.258 1_545 S
C66 O63 1.247 1_545 S
C66 O64 1.258 . S
C67 O69 1.247 . S
C67 O71 1.258 . S
C68 O75 1.247 . S
C68 O76 1.258 . S
O69 C67 1.247 . S
O69 Zn70 2.028 . S
Zn70 O69 2.028 . S
Zn70 O74 2.035 . S
Zn70 O76 2.035 . S
Zn70 O77 2.028 . S
O71 C67 1.258 . S
O71 Zn72 2.035 . S
Zn72 O71 2.035 . S
Zn72 O73 2.028 . S
Zn72 O75 2.028 . S
Zn72 O78 2.035 . S
O73 Zn72 2.028 . S
O73 C79 1.247 . S
O74 Zn70 2.035 . S
O74 C79 1.258 . S
O75 C68 1.247 . S
O75 Zn72 2.028 . S
O76 C68 1.258 . S
O76 Zn70 2.035 . S
O77 Zn70 2.028 . S
O77 C80 1.247 . S
O78 Zn72 2.035 . S
O78 C80 1.258 . S
C79 O73 1.247 . S
C79 O74 1.258 . S
C80 O77 1.247 . S
C80 O78 1.258 . S
H81 C87 0.930 . S
H82 C90 0.930 . S
H83 C91 0.930 . S
H84 C92 0.930 . S
H85 C95 0.930 . S
H86 C96 0.930 . S
C87 H81 0.930 . S
C87 C88 1.355 1_655 S
C87 C89 1.415 1_655 S
C88 C87 1.355 1_455 S
C88 C90 1.419 . S
C89 C87 1.415 1_455 S
C89 C94 1.425 . S
C89 C96 1.409 1_455 S
C90 H82 0.930 . S
C90 C88 1.419 . S
C90 C91 1.362 . S
C91 H83 0.930 . S
C91 C90 1.362 . S
C91 C94 1.409 . S
C92 H84 0.930 . S
C92 C93 1.355 . S
C92 C94 1.415 . S
C93 C92 1.355 . S
C93 C95 1.419 1_455 S
C94 C89 1.425 . S
C94 C91 1.409 . S
C94 C92 1.415 . S
C95 H85 0.930 . S
C95 C93 1.419 1_655 S
C95 C96 1.362 . S
C96 H86 0.930 . S
C96 C89 1.409 1_655 S
C96 C95 1.362 . S
H97 C103 0.930 . S
H98 C106 0.930 . S
H99 C107 0.930 . S
H100 C108 0.930 . S
H101 C111 0.930 . S
H102 C112 0.930 . S
C103 H97 0.930 . S
C103 C104 1.355 . S
C103 C105 1.415 . S
C104 C103 1.355 . S
C104 C106 1.419 . S
C105 C103 1.415 . S
C105 C110 1.425 . S
C105 C112 1.409 . S
C106 H98 0.930 . S
C106 C104 1.419 . S
C106 C107 1.362 . S
C107 H99 0.930 . S
C107 C106 1.362 . S
C107 C110 1.409 . S
C108 H100 0.930 . S
C108 C109 1.355 . S
C108 C110 1.415 . S
C109 C108 1.355 . S
C109 C111 1.419 . S
C110 C105 1.425 . S
C110 C107 1.409 . S
C110 C108 1.415 . S
C111 H101 0.930 . S
C111 C109 1.419 . S
C111 C112 1.362 . S
C112 H102 0.930 . S
C112 C105 1.409 . S
C112 C111 1.362 . S
H113 C119 0.930 . S
H114 C122 0.930 . S
H115 C123 0.930 . S
H116 C124 0.930 . S
H117 C127 0.930 . S
H118 C128 0.930 . S
C119 H113 0.930 . S
C119 C120 1.355 . S
C119 C121 1.415 . S
C120 C119 1.355 . S
C120 C122 1.419 . S
C121 C119 1.415 . S
C121 C126 1.425 . S
C121 C128 1.409 . S
C122 H114 0.930 . S
C122 C120 1.419 . S
C122 C123 1.362 . S
C123 H115 0.930 . S
C123 C122 1.362 . S
C123 C126 1.409 . S
C124 H116 0.930 . S
C124 C125 1.355 . S
C124 C126 1.415 . S
C125 C124 1.355 . S
C125 C127 1.419 . S
C126 C121 1.425 . S
C126 C123 1.409 . S
C126 C124 1.415 . S
C127 H117 0.930 . S
C127 C125 1.419 . S
C127 C128 1.362 . S
C128 H118 0.930 . S
C128 C121 1.409 . S
C128 C127 1.362 . S
H129 C135 0.930 . S
H130 C138 0.930 . S
H131 C139 0.930 . S
H132 C140 0.930 . S
H133 C143 0.930 . S
H134 C144 0.930 . S
C135 H129 0.930 . S
C135 C136 1.355 . S
C135 C137 1.415 . S
C136 C135 1.355 . S
C136 C138 1.419 . S
C137 C135 1.415 . S
C137 C142 1.425 . S
C137 C144 1.409 1_455 S
C138 H130 0.930 . S
C138 C136 1.419 . S
C138 C139 1.362 . S
C139 H131 0.930 . S
C139 C138 1.362 . S
C139 C142 1.409 . S
C140 H132 0.930 . S
C140 C141 1.355 . S
C140 C142 1.415 . S
C141 C140 1.355 . S
C141 C143 1.419 1_455 S
C142 C137 1.425 . S
C142 C139 1.409 . S
C142 C140 1.415 . S
C143 H133 0.930 . S
C143 C141 1.419 1_655 S
C143 C144 1.362 . S
C144 H134 0.930 . S
C144 C137 1.409 1_655 S
C144 C143 1.362 . S
H145 C151 0.930 . S
H146 C154 0.930 . S
H147 C155 0.930 . S
H148 C156 0.930 . S
H149 C159 0.930 . S
H150 C160 0.930 . S
C151 H145 0.930 . S
C151 C152 1.355 . S
C151 C153 1.415 . S
C152 C151 1.355 . S
C152 C154 1.419 . S
C153 C151 1.415 . S
C153 C158 1.425 . S
C153 C160 1.409 . S
C154 H146 0.930 . S
C154 C152 1.419 . S
C154 C155 1.362 . S
C155 H147 0.930 . S
C155 C154 1.362 . S
C155 C158 1.409 . S
C156 H148 0.930 . S
C156 C157 1.355 . S
C156 C158 1.415 . S
C157 C156 1.355 . S
C157 C159 1.419 . S
C158 C153 1.425 . S
C158 C155 1.409 . S
C158 C156 1.415 . S
C159 H149 0.930 . S
C159 C157 1.419 . S
C159 C160 1.362 . S
C160 H150 0.930 . S
C160 C153 1.409 . S
C160 C159 1.362 . S
H161 C167 0.930 . S
H162 C170 0.930 . S
H163 C171 0.930 . S
H164 C172 0.930 . S
H165 C175 0.930 . S
H166 C176 0.930 . S
C167 H161 0.930 . S
C167 C168 1.355 . S
C167 C169 1.415 . S
C168 C167 1.355 . S
C168 C170 1.419 . S
C169 C167 1.415 . S
C169 C174 1.425 . S
C169 C176 1.409 . S
C170 H162 0.930 . S
C170 C168 1.419 . S
C170 C171 1.362 . S
C171 H163 0.930 . S
C171 C170 1.362 . S
C171 C174 1.409 . S
C172 H164 0.930 . S
C172 C173 1.355 . S
C172 C174 1.415 . S
C173 C172 1.355 . S
C173 C175 1.419 . S
C174 C169 1.425 . S
C174 C171 1.409 . S
C174 C172 1.415 . S
C175 H165 0.930 . S
C175 C173 1.419 . S
C175 C176 1.362 . S
C176 H166 0.930 . S
C176 C169 1.409 . S
C176 C175 1.362 . S
H177 C183 0.930 . S
H178 C186 0.930 . S
H179 C187 0.930 . S
H180 C188 0.943 . S
H181 C191 0.930 . S
H182 C192 0.930 . S
C183 H177 0.930 . S
C183 C184 1.355 . S
C183 C185 1.415 . S
C184 C183 1.355 . S
C184 C186 1.419 1_545 S
C185 C183 1.415 . S
C185 C190 1.425 . S
C185 C192 1.409 . S
C186 H178 0.930 . S
C186 C184 1.419 1_565 S
C186 C187 1.362 . S
C187 H179 0.930 . S
C187 C186 1.362 . S
C187 C190 1.409 1_565 S
C188 H180 0.943 . S
C188 C189 1.338 1_565 S
C188 C190 1.418 1_565 S
C189 C188 1.338 1_545 S
C189 C191 1.419 . S
C190 C185 1.425 . S
C190 C187 1.409 1_545 S
C190 C188 1.418 1_545 S
C191 H181 0.930 . S
C191 C189 1.419 . S
C191 C192 1.362 . S
C192 H182 0.930 . S
C192 C185 1.409 . S
C192 C191 1.362 . S
H193 C199 0.930 . S
H194 C202 0.930 . S
H195 C203 0.930 . S
H196 C204 0.930 . S
H197 C207 0.930 . S
H198 C208 0.930 . S
C199 H193 0.930 . S
C199 C200 1.355 1_556 S
C199 C201 1.415 . S
C200 C199 1.355 1_554 S
C200 C202 1.419 . S
C201 C199 1.415 . S
C201 C206 1.425 . S
C201 C208 1.409 . S
C202 H194 0.930 . S
C202 C200 1.419 . S
C202 C203 1.362 . S
C203 H195 0.930 . S
C203 C202 1.362 . S
C203 C206 1.409 1_554 S
C204 H196 0.930 . S
C204 C205 1.355 . S
C204 C206 1.415 . S
C205 C204 1.355 . S
C205 C207 1.419 . S
C206 C201 1.425 . S
C206 C203 1.409 1_556 S
C206 C204 1.415 . S
C207 H197 0.930 . S
C207 C205 1.419 . S
C207 C208 1.362 . S
C208 H198 0.930 . S
C208 C201 1.409 . S
C208 C207 1.362 . S
H209 C215 0.930 . S
H210 C218 0.930 . S
H211 C219 0.930 . S
H212 C220 0.930 . S
H213 C223 0.930 . S
H214 C224 0.930 . S
C215 H209 0.930 . S
C215 C216 1.355 . S
C215 C217 1.415 . S
C216 C215 1.355 . S
C216 C218 1.419 1_455 S
C217 C215 1.415 . S
C217 C222 1.425 1_455 S
C217 C224 1.409 . S
C218 H210 0.930 . S
C218 C216 1.419 1_655 S
C218 C219 1.362 . S
C219 H211 0.930 . S
C219 C218 1.362 . S
C219 C222 1.409 . S
C220 H212 0.930 . S
C220 C221 1.355 1_655 S
C220 C222 1.415 . S
C221 C220 1.355 1_455 S
C221 C223 1.419 . S
C222 C217 1.425 1_655 S
C222 C219 1.409 . S
C222 C220 1.415 . S
C223 H213 0.930 . S
C223 C221 1.419 . S
C223 C224 1.362 . S
C224 H214 0.930 . S
C224 C217 1.409 . S
C224 C223 1.362 . S
H225 C231 0.930 . S
H226 C234 0.930 . S
H227 C235 0.930 . S
H228 C236 0.930 . S
H229 C239 0.930 . S
H230 C240 0.930 . S
C231 H225 0.930 . S
C231 C232 1.355 . S
C231 C233 1.415 . S
C232 C231 1.355 . S
C232 C234 1.419 1_545 S
C233 C231 1.415 . S
C233 C238 1.425 1_545 S
C233 C240 1.409 . S
C234 H226 0.930 . S
C234 C232 1.419 1_565 S
C234 C235 1.362 . S
C235 H227 0.930 . S
C235 C234 1.362 . S
C235 C238 1.409 . S
C236 H228 0.930 . S
C236 C237 1.355 1_565 S
C236 C238 1.415 . S
C237 C236 1.355 1_545 S
C237 C239 1.419 . S
C238 C233 1.425 1_565 S
C238 C235 1.409 . S
C238 C236 1.415 . S
C239 H229 0.930 . S
C239 C237 1.419 . S
C239 C240 1.362 . S
C240 H230 0.930 . S
C240 C233 1.409 . S
C240 C239 1.362 . S
H241 C247 0.930 . S
H242 C250 0.930 . S
H243 C251 0.930 . S
H244 C252 0.930 . S
H245 C255 0.930 . S
H246 C256 0.930 . S
C247 H241 0.930 . S
C247 C248 1.355 1_556 S
C247 C249 1.415 . S
C248 C247 1.355 1_554 S
C248 C250 1.419 . S
C249 C247 1.415 . S
C249 C254 1.425 . S
C249 C256 1.409 . S
C250 H242 0.930 . S
C250 C248 1.419 . S
C250 C251 1.362 . S
C251 H243 0.930 . S
C251 C250 1.362 . S
C251 C254 1.409 1_554 S
C252 H244 0.930 . S
C252 C253 1.355 . S
C252 C254 1.415 . S
C253 C252 1.355 . S
C253 C255 1.419 . S
C254 C249 1.425 . S
C254 C251 1.409 1_556 S
C254 C252 1.415 . S
C255 H245 0.930 . S
C255 C253 1.419 . S
C255 C256 1.362 . S
C256 H246 0.930 . S
C256 C249 1.409 . S
C256 C255 1.362 . S
H257 C263 0.930 1_655 S
H258 C266 0.930 . S
H259 C267 0.930 . S
H260 C268 0.930 . S
H261 C271 0.930 . S
H262 C272 0.930 . S
C263 H257 0.930 1_455 S
C263 C264 1.355 . S
C263 C265 1.415 . S
C264 C263 1.355 . S
C264 C266 1.419 . S
C265 C263 1.415 . S
C265 C270 1.425 . S
C265 C272 1.409 1_455 S
C266 H258 0.930 . S
C266 C264 1.419 . S
C266 C267 1.362 . S
C267 H259 0.930 . S
C267 C266 1.362 . S
C267 C270 1.409 . S
C268 H260 0.930 . S
C268 C269 1.355 . S
C268 C270 1.415 . S
C269 C268 1.355 . S
C269 C271 1.419 1_455 S
C270 C265 1.425 . S
C270 C267 1.409 . S
C270 C268 1.415 . S
C271 H261 0.930 . S
C271 C269 1.419 1_655 S
C271 C272 1.362 . S
C272 H262 0.930 . S
C272 C265 1.409 1_655 S
C272 C271 1.362 . S
C93 C40 1.424 . S
C88 C10 1.418 . S
C104 C21 1.397 . S
C109 C66 1.462 . S
C120 C31 1.386 . S
C125 C68 1.441 . S
C136 C0 1.412 . S
C141 C52 1.441 . S
C157 C54 1.433 . S
C152 C18 1.345 . S
C168 C34 1.378 . S
C173 C80 1.425 . S
C189 C53 1.411 . S
C184 C36 1.420 . S
C200 C8 1.407 . S
C205 C79 1.430 . S
C221 C39 1.422 . S
C216 C23 1.422 . S
C237 C65 1.383 . S
C232 C26 1.329 . S
C253 C67 1.458 . S
C248 C5 1.419 . S
C264 C13 1.405 . S
C269 C51 1.447 . S
