# Generated by pormake.
# Topology gar, (4,6)-cn, num edge types: 1
# Building blocks:
#     Node 0, Type 0, BuildingBlock: UXUYUI_clean_sbu_0, # of connection points: 4
#     Node 1, Type 0, BuildingBlock: UXUYUI_clean_sbu_0, # of connection points: 4
#     Node 2, Type 0, BuildingBlock: UXUYUI_clean_sbu_0, # of connection points: 4
#     Node 3, Type 0, BuildingBlock: UXUYUI_clean_sbu_0, # of connection points: 4
#     Node 4, Type 0, BuildingBlock: UXUYUI_clean_sbu_0, # of connection points: 4
#     Node 5, Type 0, BuildingBlock: UXUYUI_clean_sbu_0, # of connection points: 4
#     Node 6, Type 0, BuildingBlock: UXUYUI_clean_sbu_0, # of connection points: 4
#     Node 7, Type 0, BuildingBlock: UXUYUI_clean_sbu_0, # of connection points: 4
#     Node 8, Type 0, BuildingBlock: UXUYUI_clean_sbu_0, # of connection points: 4
#     Node 9, Type 0, BuildingBlock: UXUYUI_clean_sbu_0, # of connection points: 4
#     Node 10, Type 0, BuildingBlock: UXUYUI_clean_sbu_0, # of connection points: 4
#     Node 11, Type 0, BuildingBlock: UXUYUI_clean_sbu_0, # of connection points: 4
#     Node 12, Type 0, BuildingBlock: UXUYUI_clean_sbu_0, # of connection points: 4
#     Node 13, Type 0, BuildingBlock: UXUYUI_clean_sbu_0, # of connection points: 4
#     Node 14, Type 0, BuildingBlock: UXUYUI_clean_sbu_0, # of connection points: 4
#     Node 15, Type 0, BuildingBlock: UXUYUI_clean_sbu_0, # of connection points: 4
#     Node 16, Type 0, BuildingBlock: UXUYUI_clean_sbu_0, # of connection points: 4
#     Node 17, Type 0, BuildingBlock: UXUYUI_clean_sbu_0, # of connection points: 4
#     Node 18, Type 0, BuildingBlock: UXUYUI_clean_sbu_0, # of connection points: 4
#     Node 19, Type 0, BuildingBlock: UXUYUI_clean_sbu_0, # of connection points: 4
#     Node 20, Type 0, BuildingBlock: UXUYUI_clean_sbu_0, # of connection points: 4
#     Node 21, Type 0, BuildingBlock: UXUYUI_clean_sbu_0, # of connection points: 4
#     Node 22, Type 0, BuildingBlock: UXUYUI_clean_sbu_0, # of connection points: 4
#     Node 23, Type 0, BuildingBlock: UXUYUI_clean_sbu_0, # of connection points: 4
#     Node 24, Type 1, BuildingBlock: INOVEN_clean_sbu_0, # of connection points: 6
#     Node 25, Type 1, BuildingBlock: INOVEN_clean_sbu_0, # of connection points: 6
#     Node 26, Type 1, BuildingBlock: INOVEN_clean_sbu_0, # of connection points: 6
#     Node 27, Type 1, BuildingBlock: INOVEN_clean_sbu_0, # of connection points: 6
#     Node 28, Type 1, BuildingBlock: INOVEN_clean_sbu_0, # of connection points: 6
#     Node 29, Type 1, BuildingBlock: INOVEN_clean_sbu_0, # of connection points: 6
#     Node 30, Type 1, BuildingBlock: INOVEN_clean_sbu_0, # of connection points: 6
#     Node 31, Type 1, BuildingBlock: INOVEN_clean_sbu_0, # of connection points: 6
#     Node 32, Type 1, BuildingBlock: INOVEN_clean_sbu_0, # of connection points: 6
#     Node 33, Type 1, BuildingBlock: INOVEN_clean_sbu_0, # of connection points: 6
#     Node 34, Type 1, BuildingBlock: INOVEN_clean_sbu_0, # of connection points: 6
#     Node 35, Type 1, BuildingBlock: INOVEN_clean_sbu_0, # of connection points: 6
#     Node 36, Type 1, BuildingBlock: INOVEN_clean_sbu_0, # of connection points: 6
#     Node 37, Type 1, BuildingBlock: INOVEN_clean_sbu_0, # of connection points: 6
#     Node 38, Type 1, BuildingBlock: INOVEN_clean_sbu_0, # of connection points: 6
#     Node 39, Type 1, BuildingBlock: INOVEN_clean_sbu_0, # of connection points: 6
#     Edge 40, Type (0, 1), None
#     Edge 41, Type (0, 1), None
#     Edge 42, Type (0, 1), None
#     Edge 43, Type (0, 1), None
#     Edge 44, Type (0, 1), None
#     Edge 45, Type (0, 1), None
#     Edge 46, Type (0, 1), None
#     Edge 47, Type (0, 1), None
#     Edge 48, Type (0, 1), None
#     Edge 49, Type (0, 1), None
#     Edge 50, Type (0, 1), None
#     Edge 51, Type (0, 1), None
#     Edge 52, Type (0, 1), None
#     Edge 53, Type (0, 1), None
#     Edge 54, Type (0, 1), None
#     Edge 55, Type (0, 1), None
#     Edge 56, Type (0, 1), None
#     Edge 57, Type (0, 1), None
#     Edge 58, Type (0, 1), None
#     Edge 59, Type (0, 1), None
#     Edge 60, Type (0, 1), None
#     Edge 61, Type (0, 1), None
#     Edge 62, Type (0, 1), None
#     Edge 63, Type (0, 1), None
#     Edge 64, Type (0, 1), None
#     Edge 65, Type (0, 1), None
#     Edge 66, Type (0, 1), None
#     Edge 67, Type (0, 1), None
#     Edge 68, Type (0, 1), None
#     Edge 69, Type (0, 1), None
#     Edge 70, Type (0, 1), None
#     Edge 71, Type (0, 1), None
#     Edge 72, Type (0, 1), None
#     Edge 73, Type (0, 1), None
#     Edge 74, Type (0, 1), None
#     Edge 75, Type (0, 1), None
#     Edge 76, Type (0, 1), None
#     Edge 77, Type (0, 1), None
#     Edge 78, Type (0, 1), None
#     Edge 79, Type (0, 1), None
#     Edge 80, Type (0, 1), None
#     Edge 81, Type (0, 1), None
#     Edge 82, Type (0, 1), None
#     Edge 83, Type (0, 1), None
#     Edge 84, Type (0, 1), None
#     Edge 85, Type (0, 1), None
#     Edge 86, Type (0, 1), None
#     Edge 87, Type (0, 1), None
#     Edge 88, Type (0, 1), None
#     Edge 89, Type (0, 1), None
#     Edge 90, Type (0, 1), None
#     Edge 91, Type (0, 1), None
#     Edge 92, Type (0, 1), None
#     Edge 93, Type (0, 1), None
#     Edge 94, Type (0, 1), None
#     Edge 95, Type (0, 1), None
#     Edge 96, Type (0, 1), None
#     Edge 97, Type (0, 1), None
#     Edge 98, Type (0, 1), None
#     Edge 99, Type (0, 1), None
#     Edge 100, Type (0, 1), None
#     Edge 101, Type (0, 1), None
#     Edge 102, Type (0, 1), None
#     Edge 103, Type (0, 1), None
#     Edge 104, Type (0, 1), None
#     Edge 105, Type (0, 1), None
#     Edge 106, Type (0, 1), None
#     Edge 107, Type (0, 1), None
#     Edge 108, Type (0, 1), None
#     Edge 109, Type (0, 1), None
#     Edge 110, Type (0, 1), None
#     Edge 111, Type (0, 1), None
#     Edge 112, Type (0, 1), None
#     Edge 113, Type (0, 1), None
#     Edge 114, Type (0, 1), None
#     Edge 115, Type (0, 1), None
#     Edge 116, Type (0, 1), None
#     Edge 117, Type (0, 1), None
#     Edge 118, Type (0, 1), None
#     Edge 119, Type (0, 1), None
#     Edge 120, Type (0, 1), None
#     Edge 121, Type (0, 1), None
#     Edge 122, Type (0, 1), None
#     Edge 123, Type (0, 1), None
#     Edge 124, Type (0, 1), None
#     Edge 125, Type (0, 1), None
#     Edge 126, Type (0, 1), None
#     Edge 127, Type (0, 1), None
#     Edge 128, Type (0, 1), None
#     Edge 129, Type (0, 1), None
#     Edge 130, Type (0, 1), None
#     Edge 131, Type (0, 1), None
#     Edge 132, Type (0, 1), None
#     Edge 133, Type (0, 1), None
#     Edge 134, Type (0, 1), None
#     Edge 135, Type (0, 1), None
# Relax obj value: 0.284
# Max RMSD: 0.351
# Mean RMSD: 0.214
data_MOF--net-gar--node1-UXUYUI_clean_sbu_0--node2-INOVEN_clean_sbu_0--edge1-none
_symmetry_space_group_name_H-M    P1
_symmetry_Int_Tables_number       1
_symmetry_cell_setting            triclinic
loop_
_symmetry_equiv_pos_as_xyz
'x, y, z'
_cell_length_a     45.460267
_cell_length_b     40.39912
_cell_length_c     40.485566
_cell_angle_alpha  101.06469
_cell_angle_beta   96.320257
_cell_angle_gamma 104.16632
loop_
_atom_site_label
_atom_site_type_symbol
_atom_site_fract_x
_atom_site_fract_y
_atom_site_fract_z
_atom_type_partial_charge
Li0 Li 0.13712 0.36668 0.3657 0.0
Li1 Li 0.16594 0.41625 0.4142 0.0
Li2 Li 0.1926 0.37697 0.3784 0.0
Li3 Li 0.16148 0.355 0.4195 0.0
C4 C 0.18077 0.43165 0.34618 0.0
N5 N 0.20364 0.47847 0.3079 0.0
C6 C 0.19852 0.46552 0.36237 0.0
C7 C 0.17461 0.42158 0.31059 0.0
C8 C 0.20987 0.48887 0.34251 0.0
C9 C 0.18653 0.44561 0.29167 0.0
C10 C 0.11036 0.3872 0.43475 0.0
C11 C 0.10262 0.40815 0.49213 0.0
N12 N 0.07391 0.40926 0.47974 0.0
C13 C 0.08077 0.38844 0.42254 0.0
C14 C 0.1214 0.39702 0.46979 0.0
C15 C 0.06269 0.39969 0.44572 0.0
C16 C 0.0808 0.32589 0.32353 0.0
N17 N 0.10225 0.35736 0.33372 0.0
C18 C 0.06852 0.38651 0.31027 0.0
C19 C 0.09709 0.38707 0.32655 0.0
C20 C 0.04496 0.35504 0.3016 0.0
C21 C 0.05169 0.32405 0.30691 0.0
H22 H 0.08558 0.30291 0.3304 0.0
H23 H 0.11434 0.41183 0.33611 0.0
C24 C 0.17443 0.47766 0.46809 0.0
N25 N 0.15913 0.45997 0.43646 0.0
C26 C 0.16133 0.49975 0.4891 0.0
C27 C 0.11903 0.48878 0.44323 0.0
C28 C 0.13285 0.46661 0.4231 0.0
C29 C 0.13256 0.50407 0.47725 0.0
H30 H 0.1953 0.47229 0.47816 0.0
H31 H 0.12081 0.45172 0.39808 0.0
C32 C 0.1573 0.30618 0.34252 0.0
N33 N 0.15237 0.25458 0.28485 0.0
C34 C 0.15842 0.27256 0.3455 0.0
C35 C 0.15378 0.31355 0.31023 0.0
C36 C 0.15598 0.24688 0.31604 0.0
C37 C 0.15121 0.28708 0.28137 0.0
C38 C 0.22109 0.39417 0.45548 0.0
C39 C 0.24311 0.37617 0.44839 0.0
C40 C 0.22198 0.41204 0.48892 0.0
C41 C 0.26583 0.37662 0.47481 0.0
C42 C 0.24501 0.41183 0.51465 0.0
N43 N 0.26636 0.39443 0.50708 0.0
C44 C 0.24258 0.39331 0.33838 0.0
C45 C 0.23062 0.33786 0.35249 0.0
C46 C 0.26405 0.38369 0.31868 0.0
N47 N 0.2262 0.37026 0.35465 0.0
C48 C 0.25089 0.32684 0.33237 0.0
C49 C 0.26789 0.34975 0.31502 0.0
H50 H 0.23897 0.41903 0.34044 0.0
H51 H 0.21822 0.32032 0.36642 0.0
C52 C 0.13496 0.29073 0.43259 0.0
N53 N 0.15349 0.32305 0.44844 0.0
C54 C 0.12644 0.26515 0.45108 0.0
C55 C 0.15523 0.30696 0.50228 0.0
C56 C 0.16351 0.33163 0.48268 0.0
C57 C 0.13659 0.27315 0.48643 0.0
H58 H 0.1263 0.28503 0.40558 0.0
H59 H 0.17737 0.35771 0.49498 0.0
O60 O 0.16832 0.40897 0.36511 0.0
O61 O 0.12879 0.37755 0.41235 0.0
O62 O 0.15975 0.33167 0.37117 0.0
O63 O 0.19989 0.39596 0.42959 0.0
H64 H 0.20324 0.47373 0.38994 0.0
H65 H 0.16054 0.39565 0.29769 0.0
H66 H 0.22353 0.51528 0.35455 0.0
H67 H 0.18213 0.43817 0.26411 0.0
H68 H 0.11094 0.4161 0.51931 0.0
H69 H 0.07199 0.3811 0.39543 0.0
H70 H 0.14442 0.39668 0.47954 0.0
H71 H 0.03978 0.40095 0.43666 0.0
H72 H 0.06428 0.41117 0.30756 0.0
H73 H 0.03409 0.29926 0.30048 0.0
H74 H 0.17229 0.5109 0.51541 0.0
H75 H 0.09651 0.49079 0.43351 0.0
H76 H 0.16158 0.26648 0.37031 0.0
H77 H 0.15298 0.33939 0.30752 0.0
H78 H 0.15694 0.22082 0.31799 0.0
H79 H 0.14834 0.29241 0.2562 0.0
H80 H 0.24295 0.36237 0.42273 0.0
H81 H 0.20479 0.42544 0.49511 0.0
H82 H 0.28312 0.36296 0.46965 0.0
H83 H 0.2459 0.4255 0.54064 0.0
H84 H 0.2772 0.40237 0.30621 0.0
H85 H 0.25384 0.30086 0.33126 0.0
H86 H 0.11146 0.23965 0.43797 0.0
H87 H 0.16341 0.31425 0.52952 0.0
Li88 Li 0.0278 0.78183 0.64339 0.0
Li89 Li 0.04865 0.76565 0.69696 0.0
Li90 Li 0.01971 0.71969 0.64764 0.0
Li91 Li 0.99369 0.75657 0.68289 0.0
C92 C 0.07601 0.7439 0.62856 0.0
N93 N 0.11028 0.71672 0.58371 0.0
C94 C 0.10311 0.73667 0.64097 0.0
C95 C 0.06642 0.73758 0.59336 0.0
C96 C 0.12009 0.72286 0.61786 0.0
C97 C 0.08405 0.72376 0.5711 0.0
C98 C 0.02971 0.82682 0.72083 0.0
C99 C 0.03026 0.84401 0.78131 0.0
N100 N 0.03273 0.87755 0.77842 0.0
C101 C 0.03251 0.86146 0.71846 0.0
C102 C 0.02859 0.81792 0.75244 0.0
C103 C 0.03379 0.88669 0.74785 0.0
C104 C 1.01514 0.83059 0.60555 0.0
N105 N 0.03671 0.81515 0.61623 0.0
C106 C 0.07388 0.84874 0.58957 0.0
C107 C 0.06576 0.82413 0.60915 0.0
C108 C 0.0521 0.86494 0.57779 0.0
C109 C 0.0225 0.85601 0.58648 0.0
H110 H 0.99235 0.82336 0.6121 0.0
H111 H 0.0828 0.81242 0.61898 0.0
C112 C 0.08788 0.7451 0.73716 0.0
N113 N 0.08242 0.77472 0.73012 0.0
C114 C 0.11653 0.74609 0.75362 0.0
C115 C 0.13243 0.8088 0.75796 0.0
C116 C 0.10335 0.80649 0.74099 0.0
C117 C 0.13973 0.77792 0.76269 0.0
H118 H 0.07089 0.72018 0.72716 0.0
H119 H 0.09831 0.82938 0.73422 0.0
C120 C 0.96388 0.72255 0.60859 0.0
N121 N 0.91317 0.6809 0.56208 0.0
C122 C 0.93965 0.70111 0.61958 0.0
C123 C 0.96227 0.72309 0.57403 0.0
C124 C 0.91414 0.68033 0.59567 0.0
C125 C 0.93651 0.70162 0.55086 0.0
C126 C 1.00063 0.69801 0.71008 0.0
C127 C 0.98043 0.66751 0.68917 0.0
C128 C 1.00547 0.70182 0.74545 0.0
C129 C 0.96517 0.64128 0.70414 0.0
C130 C 0.98974 0.67502 0.75941 0.0
N131 N 0.97011 0.64558 0.73862 0.0
C132 C 0.04746 0.66398 0.6382 0.0
C133 C 1.013 0.66338 0.5896 0.0
C134 C 0.06165 0.64197 0.61828 0.0
N135 N 0.02477 0.67572 0.62327 0.0
C136 C 0.02632 0.64135 0.56893 0.0
C137 C 0.05211 0.63212 0.5829 0.0
H138 H 0.05697 0.67488 0.66489 0.0
H139 H 0.99556 0.67349 0.57804 0.0
C140 C 0.95555 0.79631 0.7075 0.0
N141 N 0.95969 0.76381 0.70543 0.0
C142 C 0.93535 0.80756 0.72766 0.0
C143 C 0.92164 0.75066 0.74117 0.0
C144 C 0.94299 0.74082 0.72151 0.0
C145 C 0.91817 0.78473 0.745 0.0
H146 H 0.96846 0.81389 0.69392 0.0
H147 H 0.94626 0.71499 0.71942 0.0
O148 O 0.05877 0.7568 0.65077 0.0
O149 O 0.02731 0.80164 0.69208 0.0
O150 O 0.98848 0.74413 0.63167 0.0
O151 O 1.01653 0.72353 0.69602 0.0
H152 H 0.11081 0.74145 0.66816 0.0
H153 H 0.04539 0.74291 0.5834 0.0
H154 H 0.14103 0.71694 0.62707 0.0
H155 H 0.0768 0.71847 0.54381 0.0
H156 H 0.02942 0.83756 0.80597 0.0
H157 H 0.0333 0.86863 0.69407 0.0
H158 H 0.02627 0.79113 0.75456 0.0
H159 H 0.03564 0.91355 0.74635 0.0
H160 H 0.09718 0.85553 0.5843 0.0
H161 H 1.00519 0.86831 0.57843 0.0
H162 H 0.12118 0.72153 0.75597 0.0
H163 H 0.14964 0.83389 0.76487 0.0
H164 H 0.94041 0.70079 0.64632 0.0
H165 H 0.98076 0.73988 0.56524 0.0
H166 H 0.89517 0.66361 0.60379 0.0
H167 H 0.93501 0.70158 0.524 0.0
H168 H 0.97668 0.66405 0.66172 0.0
H169 H 0.02127 0.72521 0.76188 0.0
H170 H 0.94948 0.61747 0.68839 0.0
H171 H 0.99322 0.67754 0.78675 0.0
H172 H 0.08177 0.63595 0.62984 0.0
H173 H 1.01838 0.63437 0.54163 0.0
H174 H 0.93266 0.83368 0.72894 0.0
H175 H 0.90832 0.73202 0.75356 0.0
Li176 Li 0.63713 0.86668 0.86571 0.0
Li177 Li 0.66595 0.91625 0.91421 0.0
Li178 Li 0.69261 0.87697 0.87841 0.0
Li179 Li 0.66148 0.855 0.91951 0.0
C180 C 0.6808 0.93166 0.84621 0.0
N181 N 0.7037 0.97851 0.80796 0.0
C182 C 0.69855 0.96552 0.86242 0.0
C183 C 0.67463 0.92162 0.81062 0.0
C184 C 0.70992 0.98889 0.84257 0.0
C185 C 0.68657 0.94566 0.79171 0.0
C186 C 0.61037 0.88719 0.93476 0.0
C187 C 0.60262 0.90814 0.99214 0.0
N188 N 0.57391 0.90925 0.97974 0.0
C189 C 0.58077 0.88843 0.92255 0.0
C190 C 0.6214 0.89702 0.9698 0.0
C191 C 0.56269 0.89967 0.94573 0.0
C192 C 0.58081 0.8259 0.82354 0.0
N193 N 0.60226 0.85737 0.83373 0.0
C194 C 0.56854 0.88653 0.81028 0.0
C195 C 0.5971 0.88709 0.82657 0.0
C196 C 0.54497 0.85507 0.80162 0.0
C197 C 0.55169 0.82407 0.80692 0.0
H198 H 0.58558 0.80292 0.83041 0.0
H199 H 0.61436 0.91185 0.83612 0.0
C200 C 0.67445 0.97765 0.96811 0.0
N201 N 0.65915 0.95997 0.93648 0.0
C202 C 0.66135 0.99974 0.98913 0.0
C203 C 0.61904 0.98878 0.94326 0.0
C204 C 0.63287 0.96661 0.92312 0.0
C205 C 0.63258 1.00407 0.97727 0.0
H206 H 0.69532 0.97228 0.97817 0.0
H207 H 0.62082 0.95172 0.89811 0.0
C208 C 0.6573 0.80619 0.84251 0.0
N209 N 0.65237 0.75462 0.78481 0.0
C210 C 0.6584 0.77256 0.84546 0.0
C211 C 0.6538 0.81359 0.81024 0.0
C212 C 0.65596 0.7469 0.816 0.0
C213 C 0.65122 0.78714 0.78136 0.0
C214 C 0.7211 0.89414 0.95548 0.0
C215 C 0.74309 0.8761 0.94838 0.0
C216 C 0.72201 0.91202 0.98892 0.0
C217 C 0.7658 0.87652 0.9748 0.0
C218 C 0.74502 0.91177 0.01465 0.0
N219 N 0.76635 0.89433 1.00708 0.0
C220 C 0.74259 0.89331 0.8384 0.0
C221 C 0.73062 0.83785 0.85249 0.0
C222 C 0.76406 0.88369 0.8187 0.0
N223 N 0.72621 0.87025 0.85466 0.0
C224 C 0.75089 0.82683 0.83237 0.0
C225 C 0.7679 0.84974 0.81503 0.0
H226 H 0.73898 0.91903 0.84046 0.0
H227 H 0.71821 0.82031 0.8664 0.0
C228 C 0.63497 0.79073 0.93259 0.0
N229 N 0.6535 0.82304 0.94844 0.0
C230 C 0.62645 0.76514 0.95108 0.0
C231 C 0.65523 0.80696 1.00229 0.0
C232 C 0.66351 0.83163 0.98268 0.0
C233 C 0.63659 0.77315 0.98644 0.0
H234 H 0.62632 0.78503 0.90558 0.0
H235 H 0.67737 0.85771 0.99499 0.0
O236 O 0.66833 0.90897 0.86512 0.0
O237 O 0.6288 0.87756 0.91236 0.0
O238 O 0.65975 0.83166 0.87117 0.0
O239 O 0.6999 0.89595 0.9296 0.0
H240 H 0.70328 0.97372 0.88999 0.0
H241 H 0.66056 0.89569 0.79771 0.0
H242 H 0.72359 1.01528 0.85463 0.0
H243 H 0.68217 0.93824 0.76415 0.0
H244 H 0.61094 0.9161 0.01932 0.0
H245 H 0.57199 0.88109 0.89544 0.0
H246 H 0.64443 0.89669 0.97955 0.0
H247 H 0.53978 0.90092 0.93666 0.0
H248 H 0.5643 0.91119 0.80758 0.0
H249 H 0.53409 0.79928 0.80049 0.0
H250 H 0.67231 1.01089 0.01544 0.0
H251 H 0.59653 0.99079 0.93354 0.0
H252 H 0.66155 0.76646 0.87027 0.0
H253 H 0.65301 0.83944 0.80754 0.0
H254 H 0.65691 0.72083 0.81793 0.0
H255 H 0.64837 0.79248 0.7562 0.0
H256 H 0.74291 0.86229 0.92273 0.0
H257 H 0.70483 0.92545 0.99512 0.0
H258 H 0.78307 0.86283 0.96963 0.0
H259 H 0.74593 0.92545 0.04065 0.0
H260 H 0.77722 0.90237 0.80623 0.0
H261 H 0.75383 0.80085 0.83125 0.0
H262 H 0.61147 0.73965 0.93797 0.0
H263 H 0.6634 0.81425 0.02953 0.0
Li264 Li 0.5278 0.28182 0.14339 0.0
Li265 Li 0.54864 0.26565 0.19697 0.0
Li266 Li 0.51971 0.21969 0.14764 0.0
Li267 Li 0.49368 0.25656 0.18288 0.0
C268 C 0.57601 0.24391 0.12857 0.0
N269 N 0.6103 0.21674 0.08374 0.0
C270 C 0.60311 0.23668 0.141 0.0
C271 C 0.56644 0.23757 0.09338 0.0
C272 C 0.62011 0.22288 0.11789 0.0
C273 C 0.58407 0.22377 0.07112 0.0
C274 C 0.52969 0.32682 0.22083 0.0
C275 C 0.53024 0.34401 0.2813 0.0
N276 N 0.53271 0.37755 0.2784 0.0
C277 C 0.5325 0.36145 0.21844 0.0
C278 C 0.52857 0.31792 0.25243 0.0
C279 C 0.53377 0.38669 0.24783 0.0
C280 C 0.51513 0.33058 0.10554 0.0
N281 N 0.5367 0.31514 0.11622 0.0
C282 C 0.57387 0.34873 0.08957 0.0
C283 C 0.56575 0.32412 0.10915 0.0
C284 C 0.55209 0.36493 0.07779 0.0
C285 C 0.52249 0.356 0.08647 0.0
H286 H 0.49235 0.32335 0.1121 0.0
H287 H 0.5828 0.31241 0.11898 0.0
C288 C 0.58786 0.2451 0.23718 0.0
N289 N 0.58241 0.27472 0.23013 0.0
C290 C 0.61651 0.24608 0.25363 0.0
C291 C 0.63242 0.30879 0.25795 0.0
C292 C 0.60335 0.30649 0.24099 0.0
C293 C 0.63972 0.27791 0.26268 0.0
H294 H 0.57087 0.22018 0.22719 0.0
H295 H 0.59831 0.32938 0.23421 0.0
C296 C 0.46388 0.22253 0.10858 0.0
N297 N 0.41317 0.18085 0.06208 0.0
C298 C 0.43966 0.20108 0.11959 0.0
C299 C 0.46226 0.22306 0.07402 0.0
C300 C 0.41414 0.18029 0.09568 0.0
C301 C 0.43651 0.20158 0.05086 0.0
C302 C 0.50063 0.19801 0.2101 0.0
C303 C 0.48044 0.1675 0.1892 0.0
C304 C 0.50546 0.20185 0.24547 0.0
C305 C 0.46518 0.14129 0.20419 0.0
C306 C 0.48974 0.17507 0.25945 0.0
N307 N 0.47011 0.14561 0.23868 0.0
C308 C 0.54747 0.16398 0.13821 0.0
C309 C 0.51301 0.16338 0.08961 0.0
C310 C 0.56167 0.14197 0.1183 0.0
N311 N 0.52478 0.17571 0.12328 0.0
C312 C 0.52635 0.14135 0.06895 0.0
C313 C 0.55214 0.13212 0.08292 0.0
H314 H 0.55698 0.17489 0.16491 0.0
H315 H 0.49558 0.17348 0.07804 0.0
C316 C 0.45553 0.2963 0.20748 0.0
N317 N 0.45968 0.2638 0.20542 0.0
C318 C 0.43533 0.30756 0.22764 0.0
C319 C 0.42163 0.25065 0.24117 0.0
C320 C 0.44297 0.24081 0.2215 0.0
C321 C 0.41816 0.28472 0.24498 0.0
H322 H 0.46844 0.31388 0.1939 0.0
H323 H 0.44625 0.21498 0.21941 0.0
O324 O 0.55877 0.2568 0.15078 0.0
O325 O 0.5273 0.30164 0.19208 0.0
O326 O 0.48848 0.24412 0.13167 0.0
O327 O 0.51652 0.22353 0.19602 0.0
H328 H 0.61081 0.24146 0.16819 0.0
H329 H 0.5454 0.2429 0.08341 0.0
H330 H 0.64105 0.21696 0.12711 0.0
H331 H 0.57683 0.21847 0.04383 0.0
H332 H 0.5294 0.33757 0.30596 0.0
H333 H 0.53328 0.36862 0.19405 0.0
H334 H 0.52626 0.29113 0.25456 0.0
H335 H 0.53562 0.41355 0.24633 0.0
H336 H 0.59718 0.35553 0.0843 0.0
H337 H 0.50518 0.36829 0.07842 0.0
H338 H 0.62115 0.22152 0.25599 0.0
H339 H 0.64964 0.33388 0.26484 0.0
H340 H 0.44042 0.20077 0.14633 0.0
H341 H 0.48075 0.23985 0.06523 0.0
H342 H 0.39518 0.16357 0.1038 0.0
H343 H 0.435 0.20152 0.02399 0.0
H344 H 0.47669 0.16402 0.16175 0.0
H345 H 0.52125 0.22526 0.26189 0.0
H346 H 0.4495 0.11747 0.18845 0.0
H347 H 0.49321 0.17761 0.28679 0.0
H348 H 0.58179 0.13597 0.12987 0.0
H349 H 0.51841 0.13436 0.04164 0.0
H350 H 0.43265 0.33367 0.22892 0.0
H351 H 0.40831 0.23202 0.25356 0.0
Li352 Li 0.1418 0.87596 0.10472 0.0
Li353 Li 0.17894 0.84943 0.14902 0.0
Li354 Li 0.13661 0.80764 0.10103 0.0
Li355 Li 0.12043 0.84325 0.14974 0.0
C356 C 0.18635 0.82984 0.07121 0.0
N357 N 0.20971 0.79378 0.02005 0.0
C358 C 0.2154 0.82445 0.07801 0.0
C359 C 0.16933 0.81734 0.03833 0.0
C360 C 0.22677 0.80603 0.05184 0.0
C361 C 0.18151 0.79908 1.01281 0.0
C362 C 0.15229 0.911 0.18509 0.0
C363 C 0.15496 0.92908 0.24589 0.0
N364 N 0.14508 0.95732 0.24134 0.0
C365 C 0.1423 0.94026 0.18097 0.0
C366 C 0.15879 0.90538 0.21776 0.0
C367 C 0.13874 0.96336 0.20976 0.0
C368 C 0.10384 0.91542 0.06978 0.0
N369 N 0.13354 0.91773 0.08311 0.0
C370 C 0.14842 0.97648 0.07181 0.0
C371 C 0.15567 0.94805 0.08414 0.0
C372 C 0.11793 0.97465 0.05782 0.0
C373 C 0.09572 0.94302 0.05697 0.0
H374 H 0.08583 0.89227 0.06962 0.0
H375 H 0.17915 0.95078 0.09519 0.0
C376 C 0.23092 0.82004 0.16942 0.0
N377 N 0.21986 0.8488 0.17726 0.0
C378 C 0.25704 0.81647 0.18977 0.0
C379 C 0.26027 0.87166 0.22677 0.0
C380 C 0.23441 0.87446 0.20555 0.0
C381 C 0.27219 0.84232 0.21936 0.0
H382 H 0.21899 0.79911 0.14765 0.0
H383 H 0.2255 0.89689 0.21242 0.0
C384 C 0.07903 0.81861 0.07654 0.0
N385 N 0.02725 0.78461 0.02811 0.0
C386 C 0.05253 0.79951 0.08604 0.0
C387 C 0.07911 0.8206 0.04246 0.0
C388 C 0.02661 0.78244 0.06115 0.0
C389 C 0.05272 0.8032 0.01836 0.0
C390 C 0.14314 0.78655 0.17132 0.0
C391 C 0.12515 0.75181 0.16016 0.0
C392 C 0.15956 0.79815 0.20455 0.0
C393 C 0.12387 0.72928 0.18248 0.0
C394 C 0.15776 0.77478 0.22607 0.0
N395 N 0.14008 0.74114 0.2147 0.0
C396 C 0.15105 0.74107 0.07836 0.0
C397 C 0.09854 0.73641 0.06203 0.0
C398 C 0.1455 0.70433 0.06796 0.0
N399 N 0.12771 0.75671 0.07565 0.0
C400 C 0.09195 0.69955 0.05157 0.0
C401 C 0.11544 0.68263 0.05486 0.0
H402 H 0.17396 0.75695 0.09015 0.0
H403 H 0.07985 0.74837 0.06062 0.0
C404 C 0.07564 0.86862 0.18675 0.0
N405 N 0.08734 0.84085 0.1773 0.0
C406 C 0.0501 0.86528 0.20379 0.0
C407 C 0.04835 0.8046 0.20026 0.0
C408 C 0.07391 0.80916 0.18355 0.0
C409 C 0.03602 0.83286 0.2109 0.0
H410 H 0.08565 0.89328 0.18047 0.0
H411 H 0.08229 0.78691 0.17449 0.0
O412 O 0.17457 0.84699 0.09677 0.0
O413 O 0.15581 0.88805 0.15724 0.0
O414 O 0.10473 0.83532 0.10045 0.0
O415 O 0.14502 0.80895 0.14973 0.0
H416 H 0.22909 0.83455 0.10318 0.0
H417 H 0.14685 0.82136 0.03267 0.0
H418 H 0.24921 0.80162 0.05675 0.0
H419 H 0.16851 0.78905 0.98727 0.0
H420 H 0.15982 0.92501 0.27134 0.0
H421 H 0.13718 0.94497 0.15582 0.0
H422 H 0.16658 0.88288 0.22133 0.0
H423 H 0.1309 0.98604 0.20698 0.0
H424 H 0.1667 1.00002 0.07368 0.0
H425 H 0.07182 0.93971 0.04703 0.0
H426 H 0.26461 0.79301 0.18298 0.0
H427 H 0.27059 0.89229 0.24937 0.0
H428 H 0.05204 0.79764 0.11226 0.0
H429 H 0.09927 0.83563 0.03475 0.0
H430 H 1.00599 0.76741 0.0681 0.0
H431 H 0.05248 0.80453 0.9919 0.0
H432 H 0.11191 0.74243 0.13476 0.0
H433 H 0.17361 0.82488 0.21365 0.0
H434 H 0.10996 0.70238 0.17422 0.0
H435 H 0.17043 0.78338 0.25182 0.0
H436 H 0.16456 0.69299 0.07133 0.0
H437 H 0.06839 0.68438 0.04173 0.0
H438 H 0.04156 0.8879 0.21137 0.0
H439 H 0.03791 0.77876 0.20401 0.0
Li440 Li 0.54786 0.82715 0.45652 0.0
Li441 Li 0.50702 0.78461 0.40772 0.0
Li442 Li 0.54292 0.75832 0.45276 0.0
Li443 Li 0.56518 0.78981 0.40794 0.0
C444 C 0.49814 0.80016 0.48735 0.0
N445 N 0.47426 0.8269 0.54308 0.0
C446 C 0.47179 0.8118 0.48267 0.0
C447 C 0.51205 0.80151 0.52028 0.0
C448 C 0.46011 0.82535 0.5112 0.0
C449 C 0.49969 0.81526 0.54816 0.0
C450 C 0.53959 0.84426 0.38343 0.0
C451 C 0.54181 0.85213 0.32615 0.0
N452 N 0.53686 0.88424 0.33561 0.0
C453 C 0.5344 0.87721 0.39255 0.0
C454 C 0.54329 0.83152 0.34998 0.0
C455 C 0.53316 0.89706 0.36804 0.0
C456 C 0.58754 0.89834 0.48718 0.0
N457 N 0.55787 0.87801 0.48195 0.0
C458 C 0.54131 0.9303 0.49981 0.0
C459 C 0.53495 0.89355 0.48843 0.0
C460 C 0.57167 0.95203 0.50488 0.0
C461 C 0.59494 0.93516 0.49887 0.0
H462 H 0.60556 0.88622 0.48092 0.0
H463 H 0.51135 0.87773 0.48307 0.0
C464 C 0.45216 0.75892 0.35016 0.0
N465 N 0.46667 0.78512 0.37809 0.0
C466 C 0.42663 0.76145 0.32819 0.0
C467 C 0.42989 0.81735 0.36384 0.0
C468 C 0.45573 0.81406 0.38492 0.0
C469 C 0.41489 0.79099 0.33454 0.0
H470 H 0.46072 0.73612 0.34426 0.0
H471 H 0.4675 0.83534 0.40646 0.0
C472 C 0.606 0.81114 0.48109 0.0
N473 N 0.65951 0.83415 0.52838 0.0
C474 C 0.63381 0.80773 0.4712 0.0
C475 C 0.60537 0.82624 0.515 0.0
C476 C 0.66062 0.81949 0.49552 0.0
C477 C 0.63268 0.83775 0.53852 0.0
C478 C 0.53205 0.72143 0.37282 0.0
C479 C 0.54271 0.69279 0.37769 0.0
C480 C 0.52363 0.72511 0.33976 0.0
C481 C 0.54499 0.66834 0.34924 0.0
C482 C 0.52623 0.70009 0.31199 0.0
N483 N 0.53678 0.67248 0.31726 0.0
C484 C 0.52999 0.68584 0.47186 0.0
C485 C 0.5805 0.72124 0.49186 0.0
C486 C 0.5374 0.65768 0.48451 0.0
N487 N 0.5514 0.71736 0.47543 0.0
C488 C 0.58882 0.69381 0.50478 0.0
C489 C 0.56737 0.66096 0.50125 0.0
H490 H 0.50704 0.68193 0.45842 0.0
H491 H 0.59793 0.74555 0.49454 0.0
C492 C 0.6164 0.82634 0.3839 0.0
N493 N 0.59901 0.7932 0.38186 0.0
C494 C 0.64255 0.83218 0.3682 0.0
C495 C 0.63291 0.76968 0.34853 0.0
C496 C 0.607 0.76503 0.36489 0.0
C497 C 0.65117 0.80368 0.34988 0.0
H498 H 0.6102 0.84836 0.3983 0.0
H499 H 0.59366 0.73884 0.36428 0.0
O500 O 0.51016 0.78729 0.4598 0.0
O501 O 0.54182 0.82493 0.40735 0.0
O502 O 0.5795 0.7999 0.4577 0.0
O503 O 0.52962 0.74557 0.40032 0.0
H504 H 0.46055 0.81048 0.4573 0.0
H505 H 0.53221 0.79209 0.52422 0.0
H506 H 0.43982 0.83463 0.50801 0.0
H507 H 0.51027 0.81664 0.57384 0.0
H508 H 0.54473 0.84269 0.30019 0.0
H509 H 0.53143 0.88744 0.41826 0.0
H510 H 0.5476 0.80618 0.3426 0.0
H511 H 0.52934 0.92271 0.3749 0.0
H512 H 0.52235 0.94162 0.50374 0.0
H513 H 0.61866 0.95036 0.502 0.0
H514 H 0.41634 0.74038 0.30594 0.0
H515 H 0.4224 0.84096 0.36989 0.0
H516 H 0.63468 0.79595 0.44509 0.0
H517 H 0.58406 0.82929 0.52299 0.0
H518 H 0.68231 0.81696 0.48827 0.0
H519 H 0.63256 0.84958 0.56483 0.0
H520 H 0.54935 0.68961 0.40314 0.0
H521 H 0.51525 0.74707 0.3356 0.0
H522 H 0.55333 0.64612 0.35259 0.0
H523 H 0.51986 0.70263 0.28624 0.0
H524 H 0.51974 0.63317 0.48055 0.0
H525 H 0.61229 0.69831 0.51708 0.0
H526 H 0.65613 0.8589 0.37091 0.0
H527 H 0.63834 0.7468 0.33471 0.0
Li528 Li 0.6418 0.37595 0.60471 0.0
Li529 Li 0.67894 0.34942 0.64901 0.0
Li530 Li 0.63661 0.30763 0.60102 0.0
Li531 Li 0.62044 0.34325 0.64973 0.0
C532 C 0.68635 0.32983 0.57119 0.0
N533 N 0.70968 0.29376 0.52003 0.0
C534 C 0.7154 0.32443 0.57798 0.0
C535 C 0.66932 0.31733 0.53831 0.0
C536 C 0.72675 0.30601 0.55181 0.0
C537 C 0.68149 0.29906 0.51279 0.0
C538 C 0.65229 0.41099 0.68506 0.0
C539 C 0.65494 0.42908 0.74587 0.0
N540 N 0.64506 0.45732 0.74131 0.0
C541 C 0.64229 0.44025 0.68094 0.0
C542 C 0.65879 0.40538 0.71774 0.0
C543 C 0.63872 0.46335 0.70972 0.0
C544 C 0.60384 0.41542 0.56979 0.0
N545 N 0.63354 0.41772 0.5831 0.0
C546 C 0.64843 0.47647 0.57179 0.0
C547 C 0.65568 0.44803 0.58411 0.0
C548 C 0.61794 0.47464 0.55782 0.0
C549 C 0.59572 0.44302 0.55698 0.0
H550 H 0.58583 0.39228 0.56964 0.0
H551 H 0.67916 0.45076 0.59516 0.0
C552 C 0.73092 0.32004 0.6694 0.0
N553 N 0.71986 0.34879 0.67724 0.0
C554 C 0.75705 0.31646 0.68975 0.0
C555 C 0.76028 0.37165 0.72675 0.0
C556 C 0.73442 0.37445 0.70553 0.0
C557 C 0.7722 0.34231 0.71934 0.0
H558 H 0.71899 0.2991 0.64763 0.0
H559 H 0.72551 0.39688 0.7124 0.0
C560 C 0.57903 0.3186 0.57653 0.0
N561 N 0.52725 0.28461 0.52811 0.0
C562 C 0.55253 0.29951 0.58604 0.0
C563 C 0.57911 0.3206 0.54245 0.0
C564 C 0.52661 0.28244 0.56115 0.0
C565 C 0.55271 0.30321 0.51835 0.0
C566 C 0.64315 0.28655 0.67131 0.0
C567 C 0.62517 0.25181 0.66016 0.0
C568 C 0.65957 0.29816 0.70455 0.0
C569 C 0.6239 0.22928 0.68249 0.0
C570 C 0.65778 0.2748 0.72607 0.0
N571 N 0.6401 0.24115 0.7147 0.0
C572 C 0.65105 0.24107 0.57835 0.0
C573 C 0.59854 0.23641 0.56202 0.0
C574 C 0.6455 0.20433 0.56795 0.0
N575 N 0.62771 0.25671 0.57564 0.0
C576 C 0.59195 0.19954 0.55156 0.0
C577 C 0.61544 0.18262 0.55485 0.0
H578 H 0.67396 0.25694 0.59014 0.0
H579 H 0.57985 0.24837 0.56061 0.0
C580 C 0.57564 0.36862 0.68671 0.0
N581 N 0.58734 0.34085 0.67729 0.0
C582 C 0.55009 0.36528 0.70375 0.0
C583 C 0.54837 0.30461 0.70027 0.0
C584 C 0.57393 0.30918 0.68357 0.0
C585 C 0.53603 0.33288 0.71089 0.0
H586 H 0.58563 0.39327 0.68041 0.0
H587 H 0.58232 0.28692 0.67453 0.0
O588 O 0.67457 0.34699 0.59675 0.0
O589 O 0.65581 0.38805 0.65723 0.0
O590 O 0.60473 0.33532 0.60044 0.0
O591 O 0.64502 0.30895 0.64972 0.0
H592 H 0.72909 0.33454 0.60315 0.0
H593 H 0.64684 0.32135 0.53266 0.0
H594 H 0.7492 0.30159 0.55671 0.0
H595 H 0.66849 0.28902 0.48725 0.0
H596 H 0.65981 0.42502 0.77132 0.0
H597 H 0.63717 0.44495 0.65579 0.0
H598 H 0.66659 0.3829 0.72132 0.0
H599 H 0.63087 0.48603 0.70694 0.0
H600 H 0.66671 0.5 0.57364 0.0
H601 H 0.57182 0.43972 0.54705 0.0
H602 H 0.76461 0.293 0.68295 0.0
H603 H 0.7706 0.39228 0.74934 0.0
H604 H 0.55205 0.29763 0.61225 0.0
H605 H 0.59926 0.33564 0.53474 0.0
H606 H 0.506 0.26741 0.5681 0.0
H607 H 0.55247 0.30455 0.49189 0.0
H608 H 0.61193 0.24242 0.63475 0.0
H609 H 0.67362 0.32489 0.71364 0.0
H610 H 0.60999 0.20238 0.67423 0.0
H611 H 0.67045 0.28341 0.75182 0.0
H612 H 0.66456 0.19298 0.57132 0.0
H613 H 0.56839 0.18438 0.54173 0.0
H614 H 0.54154 0.3879 0.71131 0.0
H615 H 0.53794 0.27879 0.70405 0.0
Li616 Li 0.04787 0.32715 0.95651 0.0
Li617 Li 1.00703 0.28461 0.90771 0.0
Li618 Li 0.04293 0.25832 0.95275 0.0
Li619 Li 0.06519 0.28981 0.90792 0.0
C620 C 0.99815 0.30018 0.98734 0.0
N621 N 0.97429 0.32694 0.04307 0.0
C622 C 0.97179 0.31179 0.98266 0.0
C623 C 1.01208 0.30156 0.02027 0.0
C624 C 0.96012 0.32535 1.01119 0.0
C625 C 0.99973 0.31532 0.04815 0.0
C626 C 0.03959 0.34426 0.88342 0.0
C627 C 0.04182 0.35216 0.82615 0.0
N628 N 0.03683 0.38424 0.83561 0.0
C629 C 0.03435 0.37719 0.89253 0.0
C630 C 0.04331 0.33154 0.84998 0.0
C631 C 0.0331 0.39704 0.86803 0.0
C632 C 0.08754 0.39835 0.98716 0.0
N633 N 0.05787 0.37802 0.98194 0.0
C634 C 0.04132 0.43031 0.99981 0.0
C635 C 0.03496 0.39356 0.98842 0.0
C636 C 0.07168 0.45204 1.00487 0.0
C637 C 0.09494 0.43517 0.99885 0.0
H638 H 0.10556 0.38622 0.9809 0.0
H639 H 1.01136 0.37773 0.98307 0.0
C640 C 0.95217 0.25892 0.85015 0.0
N641 N 0.96667 0.28512 0.87807 0.0
C642 C 0.92663 0.26144 0.82818 0.0
C643 C 0.92988 0.31734 0.86383 0.0
C644 C 0.95573 0.31406 0.88491 0.0
C645 C 0.91489 0.29098 0.83452 0.0
H646 H 0.96073 0.23612 0.84424 0.0
H647 H 0.9675 0.33533 0.90645 0.0
C648 C 0.10601 0.31113 0.98107 0.0
N649 N 0.15953 0.33408 0.02834 0.0
C650 C 0.1338 0.30764 0.97117 0.0
C651 C 0.10541 0.32627 0.01497 0.0
C652 C 0.16062 0.31938 0.99547 0.0
C653 C 0.13273 0.33775 0.03848 0.0
C654 C 0.03205 0.22144 0.87281 0.0
C655 C 0.0427 0.19278 0.87766 0.0
C656 C 0.02364 0.22513 0.83975 0.0
C657 C 0.04498 0.16835 0.8492 0.0
C658 C 0.02623 0.20012 0.81196 0.0
N659 N 0.03678 0.1725 0.81722 0.0
C660 C 0.02999 0.18583 0.97181 0.0
C661 C 0.08049 0.22125 0.9919 0.0
C662 C 0.0374 0.15767 0.98447 0.0
N663 N 0.0514 0.21736 0.97542 0.0
C664 C 0.0888 0.19383 1.00482 0.0
C665 C 0.06735 0.16096 1.00125 0.0
H666 H 1.00706 0.18192 0.95834 0.0
H667 H 0.09791 0.24558 0.99461 0.0
C668 C 0.11642 0.32634 0.88393 0.0
N669 N 0.09901 0.2932 0.88186 0.0
C670 C 0.14258 0.33219 0.86823 0.0
C671 C 0.1329 0.26969 0.84849 0.0
C672 C 0.107 0.26503 0.86485 0.0
C673 C 0.15118 0.30369 0.84988 0.0
H674 H 0.11024 0.34836 0.89835 0.0
H675 H 0.09363 0.23885 0.86421 0.0
O676 O 1.01017 0.2873 0.95979 0.0
O677 O 0.04182 0.32493 0.90733 0.0
O678 O 0.0795 0.2999 0.95769 0.0
O679 O 0.02963 0.24557 0.90031 0.0
H680 H 0.96054 0.31045 0.95729 0.0
H681 H 0.03225 0.29215 0.02421 0.0
H682 H 0.93982 0.33462 1.008 0.0
H683 H 1.01032 0.31672 0.07383 0.0
H684 H 0.04476 0.34272 0.80019 0.0
H685 H 0.03136 0.38741 0.91824 0.0
H686 H 0.04765 0.30621 0.8426 0.0
H687 H 0.02925 0.42267 0.87489 0.0
H688 H 0.02236 0.44162 1.00375 0.0
H689 H 0.11867 0.45036 1.00198 0.0
H690 H 0.91634 0.24037 0.80593 0.0
H691 H 0.9224 0.34094 0.86988 0.0
H692 H 0.13465 0.29583 0.94507 0.0
H693 H 0.08412 0.32937 0.02296 0.0
H694 H 0.1823 0.3168 0.98822 0.0
H695 H 0.13263 0.34962 0.06479 0.0
H696 H 0.04934 0.18959 0.9031 0.0
H697 H 1.01527 0.2471 0.8356 0.0
H698 H 0.05331 0.14612 0.85254 0.0
H699 H 0.01986 0.20267 0.78622 0.0
H700 H 0.01974 0.13315 0.98048 0.0
H701 H 0.11226 0.19833 0.01715 0.0
H702 H 0.15617 0.35891 0.87098 0.0
H703 H 0.13832 0.24681 0.83464 0.0
Li704 Li 0.48781 0.0817 0.37174 0.0
Li705 Li 0.43936 0.03938 0.34312 0.0
Li706 Li 0.47734 0.06568 0.31078 0.0
Li707 Li 0.44722 0.10041 0.34203 0.0
C708 C 0.50033 1.01464 0.33727 0.0
N709 N 0.53942 0.97236 0.32649 0.0
C710 C 0.48871 0.97816 0.32954 0.0
C711 C 0.53191 0.02959 0.34005 0.0
C712 C 0.50878 0.95726 0.32383 0.0
C713 C 0.5513 1.00778 0.33454 0.0
C714 C 0.42461 0.06799 0.40265 0.0
C715 C 0.37266 0.05474 0.41439 0.0
N716 N 0.38237 0.04486 0.44303 0.0
C717 C 0.43405 0.0576 0.43211 0.0
C718 C 0.39366 0.06644 0.39363 0.0
C719 C 0.41235 0.04597 0.45219 0.0
C720 C 0.54623 0.11409 0.41707 0.0
N721 N 0.51984 0.08753 0.40696 0.0
C722 C 0.54018 0.05169 0.43799 0.0
C723 C 0.51626 0.0571 0.41746 0.0
C724 C 0.56769 0.07833 0.44871 0.0
C725 C 0.57082 0.10999 0.43833 0.0
H726 H 0.54859 0.13796 0.40819 0.0
H727 H 0.49516 0.03633 0.4085 0.0
C728 C 0.40941 0.97879 0.30376 0.0
N729 N 0.41208 0.99533 0.33687 0.0
C730 C 0.39317 0.94403 0.29236 0.0
C731 C 0.38297 0.94311 0.3497 0.0
C732 C 0.39928 0.97854 0.36001 0.0
C733 C 0.38027 0.92561 0.31553 0.0
H734 H 0.42142 0.99209 0.28645 0.0
H735 H 0.4027 0.99197 0.38646 0.0
C736 C 0.51939 0.13859 0.34554 0.0
N737 N 0.57484 0.18961 0.35807 0.0
C738 C 0.52149 0.17284 0.3625 0.0
C739 C 0.54541 0.13035 0.33466 0.0
C740 C 0.54976 0.19825 0.36869 0.0
C741 C 0.57325 0.15649 0.34131 0.0
C742 C 0.40873 0.05174 0.27878 0.0
C743 C 0.41273 0.04822 0.24464 0.0
C744 C 0.37908 0.04612 0.28686 0.0
C745 C 0.38695 0.03902 0.21915 0.0
C746 C 0.35389 0.03724 0.26065 0.0
N747 N 0.3583 0.03382 0.22761 0.0
C748 C 0.48797 0.021 0.25692 0.0
C749 C 0.505 0.08153 0.2568 0.0
C750 C 0.50002 1.01193 0.22765 0.0
N751 N 0.49172 0.05529 0.27125 0.0
C752 C 0.51716 0.07371 0.22733 0.0
C753 C 0.51529 0.03861 0.21314 0.0
H754 H 0.47593 1.00083 0.26845 0.0
H755 H 0.50668 0.10841 0.26864 0.0
C756 C 0.40663 0.14163 0.35673 0.0
N757 N 0.42515 0.13152 0.3351 0.0
C758 C 0.38262 0.15421 0.34469 0.0
C759 C 0.39897 0.14772 0.28938 0.0
C760 C 0.42271 0.13561 0.30256 0.0
C761 C 0.37775 0.15571 0.31015 0.0
H762 H 0.40921 0.13773 0.38246 0.0
H763 H 0.43768 0.12659 0.28615 0.0
O764 O 0.48077 0.03543 0.34235 0.0
O765 O 0.44573 0.08051 0.38333 0.0
O766 O 0.49174 0.11365 0.33883 0.0
O767 O 0.43372 0.05939 0.30398 0.0
H768 H 0.46444 0.96604 0.32779 0.0
H769 H 0.54141 0.05769 0.34673 0.0
H770 H 0.49996 0.92902 0.31737 0.0
H771 H 0.5758 1.01901 0.33666 0.0
H772 H 0.34866 0.05357 0.40777 0.0
H773 H 0.45791 0.05874 0.43956 0.0
H774 H 0.38589 0.07431 0.37094 0.0
H775 H 0.41937 0.03795 0.47513 0.0
H776 H 0.53709 0.02689 0.44555 0.0
H777 H 0.59178 0.13116 0.44663 0.0
H778 H 0.39206 0.93144 0.2659 0.0
H779 H 0.37346 0.92942 0.36828 0.0
H780 H 0.50147 0.17968 0.3708 0.0
H781 H 0.54417 0.10417 0.32106 0.0
H782 H 0.55176 0.22485 0.3819 0.0
H783 H 0.59356 0.15046 0.33307 0.0
H784 H 0.43546 0.0523 0.2378 0.0
H785 H 0.37553 0.04823 0.31304 0.0
H786 H 0.3897 0.03581 0.19264 0.0
H787 H 0.33081 0.03282 0.26655 0.0
H788 H 0.49793 0.9846 0.21679 0.0
H789 H 0.52896 0.09484 0.21661 0.0
H790 H 0.36727 0.161 0.36176 0.0
H791 H 0.39672 0.14972 0.26296 0.0
Li792 Li 0.31244 0.24518 0.54269 0.0
Li793 Li 0.32977 0.19805 0.50629 0.0
Li794 Li 0.31212 0.24183 0.47471 0.0
Li795 Li 0.27178 0.19298 0.50081 0.0
C796 C 0.37265 0.27637 0.52915 0.0
N797 N 0.4243 0.33034 0.5603 0.0
C798 C 0.39856 0.26911 0.54491 0.0
C799 C 0.37311 0.31107 0.52905 0.0
C800 C 0.42441 0.29677 0.5606 0.0
C801 C 0.39942 0.33798 0.54494 0.0
C802 C 0.30058 0.17093 0.56077 0.0
C803 C 0.28251 0.11227 0.56915 0.0
N804 N 0.29759 0.12327 0.60189 0.0
C805 C 0.31571 0.18168 0.5946 0.0
C806 C 0.28373 0.13595 0.54799 0.0
C807 C 0.31404 0.15719 0.61492 0.0
C808 C 0.29446 0.27225 0.60972 0.0
N809 N 0.31907 0.27077 0.59338 0.0
C810 C 0.35253 0.29127 0.64848 0.0
C811 C 0.34784 0.28056 0.61244 0.0
C812 C 0.32757 0.29243 0.66613 0.0
C813 C 0.29821 0.28325 0.6458 0.0
H814 H 0.27153 0.26349 0.59498 0.0
H815 H 0.3673 0.27835 0.60001 0.0
C816 C 0.37279 0.1607 0.4799 0.0
N817 N 0.36128 0.17299 0.50803 0.0
C818 C 0.39685 0.14472 0.48285 0.0
C819 C 0.39737 0.15512 0.54363 0.0
C820 C 0.37338 0.17073 0.5395 0.0
C821 C 0.40946 0.14165 0.51512 0.0
H822 H 0.36365 0.16362 0.45517 0.0
H823 H 0.36507 0.18208 0.56171 0.0
C824 C 0.2632 0.26954 0.51963 0.0
N825 N 0.23445 0.31677 0.55104 0.0
C826 C 0.2331 0.25789 0.52555 0.0
C827 C 0.2786 0.30521 0.52934 0.0
C828 C 0.21895 0.28218 0.54145 0.0
C829 C 0.26374 0.32865 0.54543 0.0
C830 C 0.30022 0.15987 0.43931 0.0
C831 C 0.30765 0.16428 0.40754 0.0
C832 C 0.29435 0.12655 0.44635 0.0
C833 C 0.30862 0.13513 0.38316 0.0
C834 C 0.29612 0.09818 0.42153 0.0
N835 N 0.30303 0.10299 0.39065 0.0
C836 C 0.35166 0.28401 0.43407 0.0
C837 C 0.30216 0.25702 0.40249 0.0
C838 C 0.36132 0.29789 0.40616 0.0
N839 N 0.32233 0.26393 0.43244 0.0
C840 C 0.31106 0.27033 0.37371 0.0
C841 C 0.34131 0.29102 0.37485 0.0
H842 H 0.36808 0.28925 0.45712 0.0
H843 H 0.27897 0.24083 0.40053 0.0
C844 C 0.21758 0.16298 0.52932 0.0
N845 N 0.22942 0.16037 0.49961 0.0
C846 C 0.18937 0.13994 0.53174 0.0
C847 C 0.1854 0.11119 0.47305 0.0
C848 C 0.2137 0.13487 0.47167 0.0
C849 C 0.17274 0.11325 0.50346 0.0
H850 H 0.2303 0.18283 0.55159 0.0
H851 H 0.22329 0.13241 0.44831 0.0
O852 O 0.34701 0.24968 0.51383 0.0
O853 O 0.30165 0.19464 0.54056 0.0
O854 O 0.27755 0.24602 0.50467 0.0
O855 O 0.29829 0.18792 0.46316 0.0
H856 H 0.3987 0.24248 0.5452 0.0
H857 H 0.35342 0.31713 0.51664 0.0
H858 H 0.44456 0.29153 0.57301 0.0
H859 H 0.40008 0.36495 0.54503 0.0
H860 H 0.2695 0.08514 0.55955 0.0
H861 H 0.32894 0.20853 0.60499 0.0
H862 H 0.27142 0.12718 0.52215 0.0
H863 H 0.32581 0.16515 0.64106 0.0
H864 H 0.37569 0.29788 0.66245 0.0
H865 H 0.27802 0.28333 0.6577 0.0
H866 H 0.40527 0.13464 0.46007 0.0
H867 H 0.40675 0.15425 0.56912 0.0
H868 H 0.22073 0.23043 0.5178 0.0
H869 H 0.30187 0.31463 0.52486 0.0
H870 H 0.19569 0.27348 0.5463 0.0
H871 H 0.27558 0.35625 0.55369 0.0
H872 H 0.31232 0.18984 0.40161 0.0
H873 H 0.28871 0.12269 0.47079 0.0
H874 H 0.31361 0.13799 0.35819 0.0
H875 H 0.29182 0.07229 0.42674 0.0
H876 H 0.38469 0.31412 0.40922 0.0
H877 H 0.29408 0.26505 0.35105 0.0
H878 H 0.18088 0.14277 0.5558 0.0
H879 H 0.17369 0.09113 0.45048 0.0
Li880 Li 0.24021 0.08916 0.79451 0.0
Li881 Li 0.19365 0.04799 0.82546 0.0
Li882 Li 0.23491 1.01203 0.78603 0.0
Li883 Li 0.1911 0.0433 0.75108 0.0
C884 C 0.26402 0.06667 0.85895 0.0
N885 N 0.30746 0.08885 0.91753 0.0
C886 C 0.25987 0.09022 0.88701 0.0
C887 C 0.29016 0.05435 0.86061 0.0
C888 C 0.28215 0.10116 0.91642 0.0
C889 C 0.31183 0.06583 0.89049 0.0
C890 C 0.17518 0.10546 0.79594 0.0
C891 C 0.12613 0.11653 0.78167 0.0
N892 N 0.1374 0.14967 0.80124 0.0
C893 C 0.18619 0.13944 0.81627 0.0
C894 C 0.14485 0.09372 0.77877 0.0
C895 C 0.16676 0.16149 0.81847 0.0
C896 C 0.25544 0.16712 0.78287 0.0
N897 N 0.26839 0.14297 0.7944 0.0
C898 C 0.31831 0.18696 0.8022 0.0
C899 C 0.29974 0.1533 0.80416 0.0
C900 C 0.30574 0.21252 0.79061 0.0
C901 C 0.27329 0.20152 0.78116 0.0
H902 H 0.2309 0.15984 0.77417 0.0
H903 H 0.31095 0.13513 0.81302 0.0
C904 C 0.14933 1.01994 0.88069 0.0
N905 N 0.16787 0.04969 0.87381 0.0
C906 C 0.13342 1.02018 0.91008 0.0
C907 C 0.15453 0.08148 0.92757 0.0
C908 C 0.17007 0.08024 0.89771 0.0
C909 C 0.13523 0.05115 0.93523 0.0
H910 H 0.14646 0.995 0.86333 0.0
H911 H 0.18414 0.10466 0.89412 0.0
C912 C 0.25019 0.04794 0.7236 0.0
N913 N 0.27398 0.04763 0.6637 0.0
C914 C 0.23678 0.02091 0.69482 0.0
C915 C 0.27573 0.07473 0.72202 0.0
C916 C 0.2491 0.02128 0.66472 0.0
C917 C 0.28745 0.07409 0.69149 0.0
C918 C 0.16129 0.97472 0.77228 0.0
C919 C 0.16402 0.94433 0.75109 0.0
C920 C 0.13367 0.97496 0.78425 0.0
C921 C 0.13903 0.91438 0.74255 0.0
C922 C 0.10926 0.94449 0.77522 0.0
N923 N 0.11242 0.91506 0.75476 0.0
C924 C 0.2452 0.93085 0.78092 0.0
C925 C 0.29174 0.97125 0.78293 0.0
C926 C 0.2603 0.9025 0.77896 0.0
N927 N 0.26037 0.96566 0.78288 0.0
C928 C 0.30764 0.94363 0.78118 0.0
C929 C 0.29263 0.90747 0.779 0.0
H930 H 0.22067 0.9241 0.78095 0.0
H931 H 0.3054 0.99766 0.78443 0.0
C932 C 0.16256 0.07851 0.69559 0.0
N933 N 0.16557 0.0465 0.70037 0.0
C934 C 0.14799 0.08328 0.66392 0.0
C935 C 0.13927 0.02258 0.64016 0.0
C936 C 0.15384 1.0188 0.67241 0.0
C937 C 0.13574 0.05531 0.6346 0.0
H938 H 0.17183 0.10128 0.71644 0.0
H939 H 0.15589 0.99314 0.67453 0.0
O940 O 0.24238 0.05527 0.83009 0.0
O941 O 0.19384 0.08357 0.79306 0.0
O942 O 0.23819 0.04831 0.75312 0.0
O943 O 0.18573 1.00394 0.78197 0.0
H944 H 0.23966 0.09989 0.88605 0.0
H945 H 0.29359 0.03603 0.83908 0.0
H946 H 0.27929 0.11938 0.93838 0.0
H947 H 0.33203 0.05634 0.89214 0.0
H948 H 0.10266 0.10788 0.76835 0.0
H949 H 0.2095 0.1487 0.8301 0.0
H950 H 0.13595 0.06731 0.76323 0.0
H951 H 0.17501 0.18797 0.83388 0.0
H952 H 0.34296 0.19281 0.80974 0.0
H953 H 0.26162 0.21893 0.7715 0.0
H954 H 0.11943 0.99538 0.91297 0.0
H955 H 0.1578 0.10666 0.94472 0.0
H956 H 0.21697 1.0 0.69571 0.0
H957 H 0.28647 0.0957 0.74415 0.0
H958 H 0.23889 1.00063 0.64216 0.0
H959 H 0.30723 0.09465 0.68989 0.0
H960 H 0.18524 0.94387 0.74145 0.0
H961 H 0.13122 0.99839 0.80055 0.0
H962 H 0.14082 0.89057 0.72633 0.0
H963 H 0.08788 0.94425 0.78463 0.0
H964 H 0.24618 0.87631 0.77757 0.0
H965 H 0.33225 0.95108 0.78161 0.0
H966 H 0.14671 0.10938 0.66247 0.0
H967 H 0.13084 0.99955 0.61943 0.0
Li968 Li 0.33863 1.00198 0.99957 0.0
Li969 Li 0.35953 0.96299 0.02806 0.0
Li970 Li 0.39126 0.99919 0.99564 0.0
Li971 Li 0.34961 0.9489 0.96567 0.0
C972 C 0.38796 0.04204 0.06233 0.0
N973 N 0.42002 0.09754 0.11551 0.0
C974 C 0.38437 0.04079 0.09597 0.0
C975 C 0.40768 0.07166 0.05577 0.0
C976 C 0.40061 0.06924 0.12247 0.0
C977 C 0.42395 0.09923 0.08301 0.0
C978 C 0.29942 0.92025 1.00016 0.0
C979 C 0.2893 0.85896 1.001 0.0
N980 N 0.26024 0.85848 1.00646 0.0
C981 C 0.2695 0.91919 1.00601 0.0
C982 C 0.30948 0.88998 0.9979 0.0
C983 C 0.25002 0.88768 1.0091 0.0
C984 C 0.29835 0.04487 0.98668 0.0
N985 N 0.31201 0.0299 1.00903 0.0
C986 C 0.28571 0.05102 0.0528 0.0
C987 C 0.3062 0.03264 0.04148 0.0
C988 C 0.27091 0.06671 0.03043 0.0
C989 C 0.27756 0.06363 0.99697 0.0
H990 H 0.30322 0.04174 0.96089 0.0
H991 H 0.31707 1.01975 0.05836 0.0
C992 C 0.39333 0.95133 0.08045 0.0
N993 N 0.36365 0.94621 0.06641 0.0
C994 C 0.40017 0.93566 0.10672 0.0
C995 C 0.34545 0.91081 0.10409 0.0
C996 C 0.33972 0.92775 0.07841 0.0
C997 C 0.37606 0.91417 0.11795 0.0
H998 H 0.41167 0.96636 0.07019 0.0
H999 H 0.31634 0.92506 0.06732 0.0
C1000 C 0.37062 0.02365 0.94209 0.0
N1001 N 0.39768 0.07664 0.91207 0.0
C1002 C 0.37824 1.01552 0.90956 0.0
C1003 C 0.3761 0.05864 0.95907 0.0
C1004 C 0.39206 0.04271 0.89487 0.0
C1005 C 0.39 0.08508 0.94355 0.0
C1006 C 0.40338 0.92723 0.99155 0.0
C1007 C 0.42716 0.93294 0.97238 0.0
C1008 C 0.39843 0.89838 1.00665 0.0
C1009 C 0.44541 0.90967 0.96844 0.0
C1010 C 0.41717 0.87569 1.00211 0.0
N1011 N 0.44008 0.88176 0.98327 0.0
C1012 C 0.44888 1.01811 0.02811 0.0
C1013 C 0.44819 0.02833 0.97232 0.0
C1014 C 0.48057 0.0246 0.03309 0.0
N1015 N 0.43337 1.01968 0.99811 0.0
C1016 C 0.4802 0.03536 0.97628 0.0
C1017 C 0.49663 0.03286 1.00683 0.0
H1018 H 0.43639 1.0105 0.0478 0.0
H1019 H 0.43531 0.02813 0.94826 0.0
C1020 C 0.31863 0.88285 0.91812 0.0
N1021 N 0.3428 0.91212 0.92699 0.0
C1022 C 0.31907 0.85502 0.89191 0.0
C1023 C 0.36811 0.88909 0.88317 0.0
C1024 C 0.36705 0.91581 0.90991 0.0
C1025 C 0.34417 0.85811 0.87436 0.0
H1026 H 0.29902 0.88099 0.9311 0.0
H1027 H 0.38569 0.93961 0.91731 0.0
O1028 O 0.37369 1.01359 0.03623 0.0
O1029 O 0.31895 0.95111 0.99786 0.0
O1030 O 0.35802 0.99742 0.9573 0.0
O1031 O 0.38591 0.95047 0.99668 0.0
H1032 H 0.36933 1.01802 0.10157 0.0
H1033 H 0.41109 0.07301 0.03001 0.0
H1034 H 0.39799 0.06874 0.14859 0.0
H1035 H 0.43986 0.12187 0.0783 0.0
H1036 H 0.29674 0.83529 0.99904 0.0
H1037 H 0.26148 0.94252 1.00826 0.0
H1038 H 0.3325 0.89038 0.99339 0.0
H1039 H 0.2268 0.88643 1.01363 0.0
H1040 H 0.28074 0.05183 0.07845 0.0
H1041 H 0.26661 0.07528 0.9789 0.0
H1042 H 0.424 0.93955 0.11742 0.0
H1043 H 0.32619 0.89426 0.11198 0.0
H1044 H 0.37376 0.98854 0.89593 0.0
H1045 H 0.3698 0.06525 0.984 0.0
H1046 H 0.39831 0.03685 0.86982 0.0
H1047 H 0.39462 0.11231 0.95648 0.0
H1048 H 0.43149 0.95503 0.9605 0.0
H1049 H 0.38054 0.8936 0.02203 0.0
H1050 H 0.46384 0.91384 0.95363 0.0
H1051 H 0.41357 0.85334 1.01371 0.0
H1052 H 0.49223 0.02286 0.05726 0.0
H1053 H 0.4918 0.04192 0.95549 0.0
H1054 H 0.29947 0.83206 0.88449 0.0
H1055 H 0.38723 0.89279 0.86929 0.0
Li1056 Li 0.3566 0.4353 0.05618 0.0
Li1057 Li 0.3753 0.39348 0.08662 0.0
Li1058 Li 0.41413 0.44212 0.05966 0.0
Li1059 Li 0.37494 0.38969 0.01661 0.0
C1060 C 0.387 0.47513 0.12192 0.0
N1061 N 0.38498 0.53255 0.17035 0.0
C1062 C 0.37503 0.47047 0.15158 0.0
C1063 C 0.39809 0.50896 0.11698 0.0
C1064 C 0.37439 0.49988 0.17586 0.0
C1065 C 0.39661 0.53764 0.14161 0.0
C1066 C 0.31007 0.36852 0.04224 0.0
C1067 C 0.26317 0.32649 1.01127 0.0
N1068 N 0.24762 0.33821 0.03582 0.0
C1069 C 0.29367 0.38 0.06729 0.0
C1070 C 0.29475 0.34145 1.01409 0.0
C1071 C 0.26208 0.36443 0.0635 0.0
C1072 C 0.31125 0.45941 0.02255 0.0
N1073 N 0.32421 0.45902 0.05436 0.0
C1074 C 0.28973 0.48923 0.07918 0.0
C1075 C 0.31372 0.47327 0.08248 0.0
C1076 C 0.27625 0.4905 0.04661 0.0
C1077 C 0.28734 0.47516 0.01809 0.0
H1078 H 0.31945 0.44731 1.00051 0.0
H1079 H 0.32368 0.47203 0.10751 0.0
C1080 C 0.38378 0.38045 0.15966 0.0
N1081 N 0.36521 0.3704 0.12831 0.0
C1082 C 0.37467 0.36664 0.18811 0.0
C1083 C 0.32729 0.3325 0.15255 0.0
C1084 C 0.33735 0.34641 0.12482 0.0
C1085 C 0.34558 0.34262 0.18532 0.0
H1086 H 0.40585 0.39953 0.16299 0.0
H1087 H 0.32244 0.33792 0.10035 0.0
C1088 C 0.38918 0.46609 1.00297 0.0
N1089 N 0.40173 0.51786 0.96672 0.0
C1090 C 0.39842 0.45899 0.97116 0.0
C1091 C 0.38616 0.49944 0.01626 0.0
C1092 C 0.40471 0.48554 0.95325 0.0
C1093 C 0.39265 0.52528 0.99757 0.0
C1094 C 0.42414 0.36463 0.04496 0.0
C1095 C 0.44905 0.37237 0.02774 0.0
C1096 C 0.41445 0.33141 0.05181 0.0
C1097 C 0.46361 0.34644 0.01708 0.0
C1098 C 0.42984 0.3063 0.04105 0.0
N1099 N 0.45385 0.31425 0.02399 0.0
C1100 C 0.4721 0.50042 0.08888 0.0
C1101 C 0.46797 0.4736 0.03084 0.0
C1102 C 0.5003 0.52443 0.08774 0.0
N1103 N 0.4562 0.47547 0.0606 0.0
C1104 C 0.49609 0.49696 0.02866 0.0
C1105 C 0.5128 0.52318 0.05727 0.0
H1106 H 0.4628 0.5021 0.11243 0.0
H1107 H 0.45535 0.45405 1.00836 0.0
C1108 C 0.3411 0.36531 0.94635 0.0
N1109 N 0.36801 0.36592 0.96552 0.0
C1110 C 0.336 0.3549 0.9103 0.0
C1111 C 0.38641 0.34605 0.91306 0.0
C1112 C 0.3905 0.35638 0.94921 0.0
C1113 C 0.35888 0.34537 0.89267 0.0
H1114 H 0.32373 0.37418 0.95896 0.0
H1115 H 0.41227 0.35798 0.964 0.0
O1116 O 0.38888 0.4468 0.09843 0.0
O1117 O 0.34118 0.38257 0.04584 0.0
O1118 O 0.38274 0.44037 0.02078 0.0
O1119 O 0.40948 0.38956 0.05546 0.0
H1120 H 0.36644 0.44448 0.1559 0.0
H1121 H 0.40801 0.51304 0.09452 0.0
H1122 H 0.36578 0.49679 0.19923 0.0
H1123 H 0.405 0.56397 0.13805 0.0
H1124 H 0.25106 0.30544 0.98967 0.0
H1125 H 0.3053 0.40043 0.08959 0.0
H1126 H 0.30723 0.33166 0.9949 0.0
H1127 H 0.24909 0.37303 0.08268 0.0
H1128 H 0.28215 0.50088 0.10196 0.0
H1129 H 0.27741 0.47494 0.99246 0.0
H1130 H 0.39067 0.37431 0.21186 0.0
H1131 H 0.30501 0.31353 0.14812 0.0
H1132 H 0.40089 0.43334 0.96049 0.0
H1133 H 0.37858 0.50523 0.04057 0.0
H1134 H 0.41197 0.48044 0.92865 0.0
H1135 H 0.39038 0.5512 1.00754 0.0
H1136 H 0.45692 0.39801 0.02245 0.0
H1137 H 0.39529 0.32516 0.06533 0.0
H1138 H 0.48288 0.35203 1.00362 0.0
H1139 H 0.42269 0.28048 0.04624 0.0
H1140 H 0.51213 0.54401 0.1106 0.0
H1141 H 0.5045 0.49467 1.00454 0.0
H1142 H 0.31439 0.35525 0.89632 0.0
H1143 H 0.40501 0.3393 0.9012 0.0
Li1144 Li 0.83468 0.1874 0.09319 0.0
Li1145 Li 0.84726 0.13748 0.05584 0.0
Li1146 Li 0.82092 0.17631 0.03183 0.0
Li1147 Li 0.79446 0.13497 0.06208 0.0
C1148 C 0.88722 0.2179 0.06588 0.0
N1149 N 0.93723 0.27641 0.08234 0.0
C1150 C 0.91601 0.21549 0.07956 0.0
C1151 C 0.88393 0.25001 0.06025 0.0
C1152 C 0.94101 0.2454 0.08777 0.0
C1153 C 0.90949 0.27929 0.06879 0.0
C1154 C 0.81554 0.1162 0.11767 0.0
C1155 C 0.78818 0.05845 0.12199 0.0
N1156 N 0.78628 0.07158 0.155 0.0
C1157 C 0.81365 0.12908 0.15172 0.0
C1158 C 0.80302 0.08058 0.10274 0.0
C1159 C 0.79865 0.10611 0.17014 0.0
C1160 C 0.81682 0.22108 0.14841 0.0
N1161 N 0.84175 0.22371 0.13239 0.0
C1162 C 0.86641 0.28024 0.16817 0.0
C1163 C 0.86647 0.25239 0.14182 0.0
C1164 C 0.84097 0.27794 0.18513 0.0
C1165 C 0.81615 0.24784 0.17538 0.0
H1166 H 0.79728 0.19821 0.13986 0.0
H1167 H 0.88617 0.25389 0.12911 0.0
C1168 C 0.88251 0.11066 1.01348 0.0
N1169 N 0.87557 0.11225 0.04541 0.0
C1170 C 0.90325 0.09242 1.00252 0.0
C1171 C 0.90941 0.07798 0.05774 0.0
C1172 C 0.88833 0.0964 0.06759 0.0
C1173 C 0.91708 0.07582 0.02479 0.0
H1174 H 0.87194 0.12378 0.99659 0.0
H1175 H 0.88221 0.0982 0.09283 0.0
C1176 C 0.78036 0.20891 0.06546 0.0
N1177 N 0.74928 0.2596 0.06377 0.0
C1178 C 0.74831 0.19926 0.05673 0.0
C1179 C 0.79657 0.24436 0.07339 0.0
C1180 C 0.73303 0.22525 0.05594 0.0
C1181 C 0.78045 0.26959 0.07242 0.0
C1182 C 0.80102 0.09654 0.99317 0.0
C1183 C 0.78711 0.09944 0.96163 0.0
C1184 C 0.80364 0.06384 0.99753 0.0
C1185 C 0.77537 0.06944 0.93531 0.0
C1186 C 0.79176 0.03448 0.97051 0.0
N1187 N 0.7779 0.03784 0.94027 0.0
C1188 C 0.83915 0.21119 0.98249 0.0
C1189 C 0.78535 0.19317 0.98282 0.0
C1190 C 0.83442 0.22723 0.95586 0.0
N1191 N 0.81479 0.19561 0.99577 0.0
C1192 C 0.77944 0.20825 0.95577 0.0
C1193 C 0.80424 0.22598 0.94245 0.0
H1194 H 0.86217 0.21142 0.99283 0.0
H1195 H 0.76654 0.1791 0.99327 0.0
C1196 C 0.74029 0.11755 0.09029 0.0
N1197 N 0.75323 0.11149 0.06175 0.0
C1198 C 0.70837 0.11121 0.08756 0.0
C1199 C 0.70411 0.09263 0.02635 0.0
C1200 C 0.73578 0.0986 0.0303 0.0
C1201 C 0.69019 0.09988 0.05507 0.0
H1202 H 0.75476 0.12975 0.11476 0.0
H1203 H 0.74641 0.09569 1.00791 0.0
O1204 O 0.86255 0.18883 0.05777 0.0
O1205 O 0.83005 0.13829 0.09924 0.0
O1206 O 0.79561 0.18371 0.06669 0.0
O1207 O 0.81141 0.12549 0.0197 0.0
H1208 H 0.91895 0.19078 0.08387 0.0
H1209 H 0.8619 0.2524 0.04958 0.0
H1210 H 0.96342 0.24399 0.09849 0.0
H1211 H 0.90725 0.30431 0.0647 0.0
H1212 H 0.77819 0.03084 0.11069 0.0
H1213 H 0.82378 0.15647 0.16384 0.0
H1214 H 0.80449 0.07021 0.07653 0.0
H1215 H 0.79694 0.11572 0.1965 0.0
H1216 H 0.88648 0.30264 0.1761 0.0
H1217 H 0.79657 0.24492 0.1886 0.0
H1218 H 0.90895 0.09209 0.97721 0.0
H1219 H 0.91958 0.06555 0.07561 0.0
H1220 H 0.73533 0.17201 0.05041 0.0
H1221 H 0.82129 0.2524 0.08047 0.0
H1222 H 0.70825 0.21811 0.04912 0.0
H1223 H 0.79273 0.29713 0.07862 0.0
H1224 H 0.78492 0.12445 0.95761 0.0
H1225 H 0.81477 0.06112 0.02145 0.0
H1226 H 0.76412 0.07124 0.911 0.0
H1227 H 0.79351 1.00898 0.97361 0.0
H1228 H 0.85413 0.24088 0.9463 0.0
H1229 H 0.75585 0.20597 0.94536 0.0
H1230 H 0.69824 0.11695 0.11024 0.0
H1231 H 0.69076 0.08326 1.00088 0.0
Li1232 Li 0.25039 0.59861 0.21864 0.0
Li1233 Li 0.21484 0.57956 0.25383 0.0
Li1234 Li 0.23977 0.53908 0.22461 0.0
Li1235 Li 0.20022 0.55954 0.19395 0.0
C1236 C 0.26959 0.60236 0.29277 0.0
N1237 N 0.28872 0.64235 0.35886 0.0
C1238 C 0.26831 0.63718 0.3006 0.0
C1239 C 0.28102 0.58807 0.31862 0.0
C1240 C 0.27781 0.65683 0.33413 0.0
C1241 C 0.29064 0.60872 0.35181 0.0
C1242 C 0.19204 0.62942 0.22577 0.0
C1243 C 0.14156 0.6382 0.22755 0.0
N1244 N 0.15433 0.67347 0.23596 0.0
C1245 C 0.20463 0.66581 0.23428 0.0
C1246 C 0.16023 0.61551 0.22233 0.0
C1247 C 0.1852 0.68762 0.23941 0.0
C1248 C 0.271 0.65919 0.19656 0.0
N1249 N 0.28002 0.63799 0.21544 0.0
C1250 C 0.32047 0.68492 0.24973 0.0
C1251 C 0.30556 0.64936 0.23976 0.0
C1252 C 0.30968 0.7079 0.23297 0.0
C1253 C 0.28612 0.69479 0.20468 0.0
H1254 H 0.25018 0.64922 0.17785 0.0
H1255 H 0.31216 0.63155 0.25402 0.0
C1256 C 0.19178 0.56506 0.31 0.0
N1257 N 0.20041 0.59142 0.29385 0.0
C1258 C 0.17845 0.5707 0.33897 0.0
C1259 C 0.18552 0.6313 0.33529 0.0
C1260 C 0.19841 0.62433 0.30627 0.0
C1261 C 0.17455 0.60398 0.35118 0.0
H1262 H 0.19429 0.53945 0.29951 0.0
H1263 H 0.20672 0.64517 0.2938 0.0
C1264 C 0.2617 0.56693 0.16184 0.0
N1265 N 0.30491 0.59093 0.12288 0.0
C1266 C 0.25266 0.5765 0.13177 0.0
C1267 C 0.29277 0.56996 0.17237 0.0
C1268 C 0.27484 0.58849 0.11236 0.0
C1269 C 0.31426 0.58205 0.15225 0.0
C1270 C 0.16788 0.50787 0.22581 0.0
C1271 C 0.16355 0.47235 0.21148 0.0
C1272 C 0.14339 0.51934 0.23733 0.0
C1273 C 0.13465 0.44888 0.20862 0.0
C1274 C 0.11485 0.49507 0.23398 0.0
N1275 N 0.1111 0.46063 0.21982 0.0
C1276 C 0.26024 0.4998 0.26254 0.0
C1277 C 0.27625 0.49389 0.20835 0.0
C1278 C 0.2828 0.48556 0.275 0.0
N1279 N 0.25838 0.50486 0.23038 0.0
C1280 C 0.29921 0.47949 0.2197 0.0
C1281 C 0.30367 0.477 0.25398 0.0
H1282 H 0.24612 0.51002 0.27934 0.0
H1283 H 0.27432 0.49889 0.18301 0.0
C1284 C 0.17129 0.58141 0.14607 0.0
N1285 N 0.16755 0.55238 0.15898 0.0
C1286 C 0.14749 0.58541 0.12423 0.0
C1287 C 0.11665 0.52844 0.12758 0.0
C1288 C 0.14108 0.52584 0.1502 0.0
C1289 C 0.11999 0.55862 0.11453 0.0
H1290 H 0.1925 0.60218 0.15391 0.0
H1291 H 0.13861 0.50311 0.16102 0.0
O1292 O 0.25942 0.58241 0.2601 0.0
O1293 O 0.21087 0.60776 0.22047 0.0
O1294 O 0.24023 0.5545 0.18081 0.0
O1295 O 0.19621 0.53098 0.22933 0.0
H1296 H 0.25934 0.64871 0.28109 0.0
H1297 H 0.28272 0.56144 0.31324 0.0
H1298 H 0.27622 0.6835 0.34048 0.0
H1299 H 0.29963 0.59799 0.37197 0.0
H1300 H 0.11691 0.62776 0.22487 0.0
H1301 H 0.22919 0.67713 0.23751 0.0
H1302 H 0.14999 0.58753 0.2154 0.0
H1303 H 0.19468 0.71579 0.24622 0.0
H1304 H 0.33905 0.69456 0.27132 0.0
H1305 H 0.27756 0.71223 0.19132 0.0
H1306 H 0.17001 0.54898 0.35063 0.0
H1307 H 0.1834 0.65746 0.34468 0.0
H1308 H 0.22874 0.57447 0.1234 0.0
H1309 H 0.30024 0.56333 0.19596 0.0
H1310 H 0.26812 0.59574 0.08888 0.0
H1311 H 0.33836 0.58442 0.16002 0.0
H1312 H 0.18237 0.46303 0.20274 0.0
H1313 H 0.14638 0.54659 0.24899 0.0
H1314 H 0.13097 0.4213 0.19758 0.0
H1315 H 0.0957 0.50359 0.24276 0.0
H1316 H 0.28481 0.48294 0.30122 0.0
H1317 H 0.31437 0.47246 0.20247 0.0
H1318 H 0.15072 0.60918 0.11477 0.0
H1319 H 0.09564 0.50724 0.12028 0.0
Li1320 Li 0.8566 0.93529 0.55619 0.0
Li1321 Li 0.8753 0.89349 0.58663 0.0
Li1322 Li 0.91413 0.94212 0.55966 0.0
Li1323 Li 0.87493 0.88968 0.51661 0.0
C1324 C 0.887 0.97513 0.62192 0.0
N1325 N 0.88496 0.03255 0.67034 0.0
C1326 C 0.87502 0.97048 0.65159 0.0
C1327 C 0.89808 1.00896 0.61697 0.0
C1328 C 0.87438 0.99988 0.67586 0.0
C1329 C 0.89659 0.03764 0.6416 0.0
C1330 C 0.81005 0.86858 0.54227 0.0
C1331 C 0.76309 0.8267 0.51129 0.0
N1332 N 0.74758 0.83843 0.53589 0.0
C1333 C 0.79371 0.88007 0.56736 0.0
C1334 C 0.79468 0.84158 0.51409 0.0
C1335 C 0.7621 0.86457 0.5636 0.0
C1336 C 0.81124 0.9594 0.52256 0.0
N1337 N 0.8242 0.95901 0.55436 0.0
C1338 C 0.78973 0.98922 0.57918 0.0
C1339 C 0.81372 0.97326 0.58248 0.0
C1340 C 0.77624 0.99048 0.54661 0.0
C1341 C 0.78733 0.97514 0.5181 0.0
H1342 H 0.81945 0.94729 0.50051 0.0
H1343 H 0.82367 0.97202 0.60751 0.0
C1344 C 0.88379 0.88046 0.65968 0.0
N1345 N 0.86521 0.8704 0.62832 0.0
C1346 C 0.87468 0.86664 0.68813 0.0
C1347 C 0.8273 0.8325 0.65256 0.0
C1348 C 0.83736 0.84641 0.62483 0.0
C1349 C 0.84559 0.84262 0.68533 0.0
H1350 H 0.90585 0.89953 0.663 0.0
H1351 H 0.82245 0.83792 0.60036 0.0
C1352 C 0.88917 0.96608 0.50297 0.0
N1353 N 0.90171 1.01784 0.46671 0.0
C1354 C 0.89841 0.95898 0.47116 0.0
C1355 C 0.88615 0.99943 0.51625 0.0
C1356 C 0.9047 0.98552 0.45325 0.0
C1357 C 0.89263 0.02526 0.49756 0.0
C1358 C 0.92415 0.86464 0.54497 0.0
C1359 C 0.94905 0.87238 0.52775 0.0
C1360 C 0.91447 0.83142 0.55183 0.0
C1361 C 0.96362 0.84646 0.51709 0.0
C1362 C 0.92987 0.80632 0.54108 0.0
N1363 N 0.95387 0.81427 0.52402 0.0
C1364 C 0.97209 1.00042 0.58888 0.0
C1365 C 0.96797 0.9736 0.53084 0.0
C1366 C 1.0003 0.02443 0.58774 0.0
N1367 N 0.9562 0.97548 0.5606 0.0
C1368 C 0.99608 0.99697 0.52866 0.0
C1369 C 1.0128 0.02318 0.55727 0.0
H1370 H 0.9628 1.00211 0.61243 0.0
H1371 H 0.95535 0.95405 0.50836 0.0
C1372 C 0.8411 0.86534 0.44636 0.0
N1373 N 0.868 0.86591 0.46552 0.0
C1374 C 0.836 0.85493 0.4103 0.0
C1375 C 0.88639 0.84601 0.41307 0.0
C1376 C 0.89048 0.85634 0.44922 0.0
C1377 C 0.85886 0.84536 0.39268 0.0
H1378 H 0.82374 0.87424 0.45896 0.0
H1379 H 0.91224 0.85791 0.46401 0.0
O1380 O 0.88888 0.9468 0.59844 0.0
O1381 O 0.84117 0.88255 0.54585 0.0
O1382 O 0.88273 0.94037 0.52078 0.0
O1383 O 0.90948 0.88956 0.55546 0.0
H1384 H 0.86644 0.94449 0.6559 0.0
H1385 H 0.908 1.01304 0.59451 0.0
H1386 H 0.86577 0.99679 0.69923 0.0
H1387 H 0.90498 0.06397 0.63804 0.0
H1388 H 0.75093 0.8057 0.48966 0.0
H1389 H 0.80538 0.90044 0.5897 0.0
H1390 H 0.80711 0.83179 0.49486 0.0
H1391 H 0.74915 0.87319 0.58281 0.0
H1392 H 0.78215 1.00088 0.60196 0.0
H1393 H 0.7774 0.97492 0.49246 0.0
H1394 H 0.89067 0.87431 0.71187 0.0
H1395 H 0.80502 0.81352 0.64813 0.0
H1396 H 0.90089 0.93333 0.4605 0.0
H1397 H 0.87856 1.00523 0.54056 0.0
H1398 H 0.91196 0.98043 0.42865 0.0
H1399 H 0.89036 0.05118 0.50753 0.0
H1400 H 0.95691 0.89802 0.52245 0.0
H1401 H 0.89531 0.82517 0.56536 0.0
H1402 H 0.98288 0.85205 0.50362 0.0
H1403 H 0.92272 0.78051 0.54628 0.0
H1404 H 1.01212 0.04401 0.6106 0.0
H1405 H 1.0045 0.99467 0.50454 0.0
H1406 H 0.8144 0.8553 0.39632 0.0
H1407 H 0.90498 0.83923 0.40121 0.0
Li1408 Li 0.99505 0.09206 0.30897 0.0
Li1409 Li 0.94623 0.04831 0.26565 0.0
Li1410 Li 0.99259 0.08889 0.23413 0.0
Li1411 Li 0.95098 0.12422 0.27343 0.0
C1412 C 1.01215 0.0321 0.26671 0.0
N1413 N 0.05207 0.99043 0.26756 0.0
C1414 C 1.0055 1.00288 0.28106 0.0
C1415 C 0.03913 0.0402 0.25284 0.0
C1416 C 0.02596 0.98213 0.28127 0.0
C1417 C 0.05901 1.01878 0.25348 0.0
C1418 C 0.93117 0.08005 0.3314 0.0
C1419 C 0.89051 0.08624 0.36358 0.0
N1420 N 0.89619 0.06144 0.37991 0.0
C1421 C 0.93659 0.05459 0.34841 0.0
C1422 C 0.90795 0.09601 0.33892 0.0
C1423 C 0.91866 0.04556 0.37289 0.0
C1424 C 0.03406 0.11753 0.3873 0.0
N1425 N 0.02055 0.08927 0.36025 0.0
C1426 C 0.03611 0.05261 0.39816 0.0
C1427 C 0.02167 0.0571 0.36634 0.0
C1428 C 0.05011 0.08109 0.42653 0.0
C1429 C 0.04849 0.11406 0.41982 0.0
H1430 H 0.0336 0.14344 0.38427 0.0
H1431 H 1.01076 0.03391 0.34666 0.0
C1432 C 0.92582 0.96426 0.25425 0.0
N1433 N 0.91731 0.99463 0.26517 0.0
C1434 C 0.90841 0.93016 0.25728 0.0
C1435 C 0.87221 0.95717 0.28117 0.0
C1436 C 0.89052 0.99066 0.27851 0.0
C1437 C 0.88066 0.92551 0.27095 0.0
H1438 H 0.94647 0.96596 0.24301 0.0
H1439 H 0.88295 1.01368 0.28752 0.0
C1440 C 0.02553 0.16084 0.2855 0.0
N1441 N 0.07565 0.21916 0.30023 0.0
C1442 C 0.02392 0.19026 0.27277 0.0
C1443 C 0.05266 0.16094 0.3055 0.0
C1444 C 0.04951 0.21954 0.28057 0.0
C1445 C 0.07774 0.19071 0.3127 0.0
C1446 C 0.9186 0.07123 0.20432 0.0
C1447 C 0.92145 0.05976 0.1703 0.0
C1448 C 0.88988 0.07271 0.2127 0.0
C1449 C 0.89532 0.04992 0.14513 0.0
C1450 C 0.86438 0.0629 0.18676 0.0
N1451 N 0.8676 0.05177 0.1538 0.0
C1452 C 1.01504 0.05681 0.16114 0.0
C1453 C 0.03782 0.11666 0.17946 0.0
C1454 C 0.03058 0.0554 0.13127 0.0
N1455 N 1.01828 0.08721 0.1857 0.0
C1456 C 0.05364 0.11628 0.14998 0.0
C1457 C 0.05085 0.08542 0.1242 0.0
H1458 H 1.00012 0.03263 0.16421 0.0
H1459 H 0.04159 0.14144 0.19746 0.0
C1460 C 0.94082 0.20588 0.28254 0.0
N1461 N 0.92543 0.17053 0.27679 0.0
C1462 C 0.92557 0.23408 0.28431 0.0
C1463 C 0.87768 0.19181 0.27488 0.0
C1464 C 0.8937 0.16432 0.27311 0.0
C1465 C 0.89289 0.22846 0.28058 0.0
H1466 H 0.96566 0.21323 0.28598 0.0
H1467 H 0.87983 0.13751 0.26867 0.0
O1468 O 0.99232 0.05258 0.26571 0.0
O1469 O 0.94839 0.08916 0.3073 0.0
O1470 O 1.00059 0.13218 0.27885 0.0
O1471 O 0.94382 0.08142 0.22938 0.0
H1472 H 0.98495 0.99656 0.29235 0.0
H1473 H 0.04463 0.0628 0.24167 0.0
H1474 H 0.02113 0.95949 0.29241 0.0
H1475 H 0.07995 0.0247 0.24277 0.0
H1476 H 0.87246 0.09837 0.36971 0.0
H1477 H 0.95429 0.04177 0.34254 0.0
H1478 H 0.90346 0.11571 0.32585 0.0
H1479 H 0.92256 0.02587 0.38626 0.0
H1480 H 0.03576 0.02629 0.40053 0.0
H1481 H 0.05839 0.13754 0.43978 0.0
H1482 H 0.91643 0.90749 0.24815 0.0
H1483 H 0.85121 0.95626 0.29167 0.0
H1484 H 1.00317 0.19041 0.25698 0.0
H1485 H 0.05423 0.1383 0.31549 0.0
H1486 H 0.04861 0.24254 0.27097 0.0
H1487 H 0.09884 0.19121 0.32827 0.0
H1488 H 0.94357 0.05849 0.16345 0.0
H1489 H 0.88736 0.08133 0.23899 0.0
H1490 H 0.89703 0.04064 0.11874 0.0
H1491 H 0.84202 0.06397 0.19288 0.0
H1492 H 0.02647 0.03034 0.11361 0.0
H1493 H 0.06841 0.14086 0.14758 0.0
H1494 H 0.9399 0.26072 0.28874 0.0
H1495 H 0.85281 0.18386 0.2715 0.0
Li1496 Li 0.33465 0.68742 0.59324 0.0
Li1497 Li 0.34724 0.63748 0.55591 0.0
Li1498 Li 0.32092 0.67632 0.53187 0.0
Li1499 Li 0.29444 0.63499 0.56212 0.0
C1500 C 0.38721 0.7179 0.56593 0.0
N1501 N 0.43721 0.77642 0.58239 0.0
C1502 C 0.416 0.7155 0.57961 0.0
C1503 C 0.38391 0.75001 0.5603 0.0
C1504 C 0.441 0.74542 0.58783 0.0
C1505 C 0.40946 0.77929 0.56884 0.0
C1506 C 0.31545 0.61622 0.61771 0.0
C1507 C 0.28805 0.55848 0.62201 0.0
N1508 N 0.28607 0.57162 0.65499 0.0
C1509 C 0.3135 0.62912 0.65173 0.0
C1510 C 0.30295 0.5806 0.60279 0.0
C1511 C 0.29844 0.60616 0.67013 0.0
C1512 C 0.31678 0.72115 0.64842 0.0
N1513 N 0.34173 0.72374 0.63242 0.0
C1514 C 0.36642 0.78025 0.66822 0.0
C1515 C 0.36647 0.75239 0.64188 0.0
C1516 C 0.34097 0.77799 0.68515 0.0
C1517 C 0.31612 0.74791 0.67538 0.0
H1518 H 0.29722 0.69829 0.63986 0.0
H1519 H 0.38618 0.75386 0.62918 0.0
C1520 C 0.38252 0.61066 0.51358 0.0
N1521 N 0.37556 0.61223 0.5455 0.0
C1522 C 0.40327 0.59243 0.50262 0.0
C1523 C 0.40939 0.57794 0.55781 0.0
C1524 C 0.38831 0.59636 0.56767 0.0
C1525 C 0.41707 0.5758 0.52487 0.0
H1526 H 0.37196 0.6238 0.4967 0.0
H1527 H 0.38217 0.59813 0.5929 0.0
C1528 C 0.28035 0.70893 0.56547 0.0
N1529 N 0.24927 0.75961 0.56375 0.0
C1530 C 0.2483 0.69928 0.55672 0.0
C1531 C 0.29656 0.74439 0.5734 0.0
C1532 C 0.23302 0.72527 0.55591 0.0
C1533 C 0.28044 0.76961 0.57243 0.0
C1534 C 0.30102 0.59654 0.49322 0.0
C1535 C 0.28711 0.59945 0.46168 0.0
C1536 C 0.30362 0.56384 0.49759 0.0
C1537 C 0.27537 0.56944 0.43537 0.0
C1538 C 0.29174 0.53448 0.47057 0.0
N1539 N 0.27789 0.53784 0.44033 0.0
C1540 C 0.33917 0.71119 0.48252 0.0
C1541 C 0.28536 0.69317 0.48284 0.0
C1542 C 0.33444 0.72724 0.45589 0.0
N1543 N 0.3148 0.69561 0.4958 0.0
C1544 C 0.27946 0.70825 0.45579 0.0
C1545 C 0.30426 0.72599 0.44248 0.0
H1546 H 0.36219 0.71143 0.49287 0.0
H1547 H 0.26656 0.67909 0.49329 0.0
C1548 C 0.24025 0.6176 0.59031 0.0
N1549 N 0.2532 0.61153 0.56178 0.0
C1550 C 0.20832 0.61125 0.58756 0.0
C1551 C 0.20408 0.59263 0.52636 0.0
C1552 C 0.23576 0.59862 0.53032 0.0
C1553 C 0.19015 0.5999 0.55507 0.0
H1554 H 0.25471 0.62982 0.61478 0.0
H1555 H 0.24639 0.59569 0.50794 0.0
O1556 O 0.36254 0.68882 0.55783 0.0
O1557 O 0.33001 0.6383 0.5993 0.0
O1558 O 0.2956 0.68374 0.56671 0.0
O1559 O 0.31141 0.62549 0.51975 0.0
H1560 H 0.41895 0.69079 0.58394 0.0
H1561 H 0.36188 0.75239 0.54963 0.0
H1562 H 0.46341 0.74402 0.59855 0.0
H1563 H 0.40722 0.80431 0.56475 0.0
H1564 H 0.27806 0.53087 0.61071 0.0
H1565 H 0.32361 0.65651 0.66386 0.0
H1566 H 0.30448 0.57022 0.5766 0.0
H1567 H 0.29666 0.61578 0.69647 0.0
H1568 H 0.3865 0.80262 0.67617 0.0
H1569 H 0.29652 0.74502 0.68859 0.0
H1570 H 0.40898 0.59212 0.47731 0.0
H1571 H 0.41955 0.5655 0.57568 0.0
H1572 H 0.23532 0.67203 0.55039 0.0
H1573 H 0.32128 0.75242 0.58051 0.0
H1574 H 0.20824 0.71812 0.54908 0.0
H1575 H 0.29271 0.79715 0.57863 0.0
H1576 H 0.28493 0.62446 0.45766 0.0
H1577 H 0.31475 0.56112 0.52152 0.0
H1578 H 0.26413 0.57125 0.41105 0.0
H1579 H 0.29349 0.50898 0.47368 0.0
H1580 H 0.35416 0.74088 0.44634 0.0
H1581 H 0.25587 0.70597 0.44538 0.0
H1582 H 0.19819 0.61701 0.61024 0.0
H1583 H 0.19074 0.58325 0.50089 0.0
Li1584 Li 0.44625 0.54832 0.76563 0.0
Li1585 Li 0.49506 0.59207 0.80897 0.0
Li1586 Li 0.45099 0.62425 0.77342 0.0
Li1587 Li 0.49262 0.5889 0.73414 0.0
C1588 C 0.43119 0.58007 0.8314 0.0
N1589 N 0.39625 0.56146 0.87994 0.0
C1590 C 0.43661 0.55459 0.84839 0.0
C1591 C 0.40799 0.59604 0.83896 0.0
C1592 C 0.4187 0.54556 0.87289 0.0
C1593 C 0.39057 0.58628 0.86363 0.0
C1594 C 0.51215 0.53209 0.7667 0.0
C1595 C 0.55898 0.51872 0.75343 0.0
N1596 N 0.55202 0.49037 0.76752 0.0
C1597 C 0.50548 0.50287 0.78104 0.0
C1598 C 0.53913 0.54016 0.75281 0.0
C1599 C 0.52593 0.4821 0.78124 0.0
C1600 C 0.42583 0.46427 0.75422 0.0
N1601 N 0.41733 0.49464 0.76514 0.0
C1602 C 0.37224 0.45719 0.78117 0.0
C1603 C 0.39054 0.49068 0.77851 0.0
C1604 C 0.38068 0.42553 0.77094 0.0
C1605 C 0.40842 0.43017 0.75725 0.0
H1606 H 0.44648 0.46597 0.74297 0.0
H1607 H 0.38298 0.5137 0.78752 0.0
C1608 C 0.53405 0.61754 0.88731 0.0
N1609 N 0.52055 0.58928 0.86025 0.0
C1610 C 0.54847 0.61406 0.91984 0.0
C1611 C 0.53612 0.55262 0.89816 0.0
C1612 C 0.52168 0.55711 0.86633 0.0
C1613 C 0.55011 0.58109 0.92653 0.0
H1614 H 0.53358 0.64344 0.88428 0.0
H1615 H 0.51079 0.53392 0.84665 0.0
C1616 C 0.41879 0.57107 0.70409 0.0
N1617 N 0.36814 0.55119 0.65308 0.0
C1618 C 0.42187 0.55906 0.67026 0.0
C1619 C 0.39002 0.57289 0.71204 0.0
C1620 C 0.39592 0.549 0.64484 0.0
C1621 C 0.36469 0.56285 0.68586 0.0
C1622 C 0.52554 0.66086 0.7855 0.0
C1623 C 0.52394 0.69027 0.77275 0.0
C1624 C 0.55266 0.66097 0.80553 0.0
C1625 C 0.54953 0.71955 0.78056 0.0
C1626 C 0.57774 0.69075 0.81274 0.0
N1627 N 0.57566 0.71919 0.80024 0.0
C1628 C 0.44084 0.70591 0.78247 0.0
C1629 C 0.39372 0.66437 0.7732 0.0
C1630 C 0.42559 0.73412 0.78425 0.0
N1631 N 0.42544 0.67057 0.7768 0.0
C1632 C 0.3777 0.69186 0.77497 0.0
C1633 C 0.39291 0.72851 0.7806 0.0
H1634 H 0.46567 0.71325 0.78585 0.0
H1635 H 0.37984 0.63757 0.76883 0.0
C1636 C 0.51512 0.5568 0.66118 0.0
N1637 N 0.51831 0.58721 0.6857 0.0
C1638 C 0.53065 0.55539 0.6313 0.0
C1639 C 0.55362 0.61629 0.64994 0.0
C1640 C 0.5378 0.61668 0.67942 0.0
C1641 C 0.55087 0.58542 0.62419 0.0
H1642 H 0.50024 0.53261 0.66428 0.0
H1643 H 0.54153 0.64147 0.69739 0.0
O1644 O 0.4484 0.58917 0.80728 0.0
O1645 O 0.49234 0.55259 0.76571 0.0
O1646 O 0.44385 0.58146 0.72937 0.0
O1647 O 0.50061 0.63219 0.77886 0.0
H1648 H 0.4543 0.54176 0.84249 0.0
H1649 H 0.4035 0.61576 0.82591 0.0
H1650 H 0.4226 0.52586 0.88624 0.0
H1651 H 0.37253 0.59842 0.86979 0.0
H1652 H 0.57992 0.52462 0.74271 0.0
H1653 H 0.48494 0.49657 0.79235 0.0
H1654 H 0.54464 0.56276 0.74165 0.0
H1655 H 0.52108 0.45945 0.79237 0.0
H1656 H 0.35124 0.45628 0.79168 0.0
H1657 H 0.41644 0.4075 0.74811 0.0
H1658 H 0.55837 0.63754 0.9398 0.0
H1659 H 0.53579 0.5263 0.90052 0.0
H1660 H 0.44404 0.55751 0.66374 0.0
H1661 H 0.38732 0.58193 0.73819 0.0
H1662 H 0.39782 0.53931 0.61859 0.0
H1663 H 0.3423 0.56418 0.69165 0.0
H1664 H 0.50319 0.69041 0.75694 0.0
H1665 H 0.55423 0.63835 0.81554 0.0
H1666 H 0.54863 0.74254 0.77094 0.0
H1667 H 0.59884 0.69126 0.82833 0.0
H1668 H 0.43991 0.76075 0.78862 0.0
H1669 H 0.35283 0.68393 0.77166 0.0
H1670 H 0.52658 0.53032 0.61367 0.0
H1671 H 0.56834 0.64088 0.6475 0.0
Li1672 Li 0.71484 0.07955 0.75383 0.0
Li1673 Li 0.75039 0.09859 0.71864 0.0
Li1674 Li 0.70022 0.05952 0.69394 0.0
Li1675 Li 0.73978 0.03907 0.7246 0.0
C1676 C 0.69205 0.12941 0.72576 0.0
N1677 N 0.65435 0.17347 0.73595 0.0
C1678 C 0.70464 0.16579 0.73428 0.0
C1679 C 0.66024 0.1155 0.72232 0.0
C1680 C 0.68522 0.18761 0.73941 0.0
C1681 C 0.64157 0.13819 0.72754 0.0
C1682 C 0.76959 0.10235 0.79276 0.0
C1683 C 0.79065 0.10872 0.8518 0.0
N1684 N 0.78873 0.14235 0.85884 0.0
C1685 C 0.76831 0.13717 0.80059 0.0
C1686 C 0.78104 0.08806 0.81861 0.0
C1687 C 0.7778 0.15683 0.83412 0.0
C1688 C 0.69178 0.06504 0.81 0.0
N1689 N 0.70041 0.0914 0.79384 0.0
C1690 C 0.68552 0.13128 0.83529 0.0
C1691 C 0.6984 0.12431 0.80627 0.0
C1692 C 0.67456 0.10396 0.85118 0.0
C1693 C 0.67846 0.07068 0.83897 0.0
H1694 H 0.69429 0.03943 0.79951 0.0
H1695 H 0.70672 0.14515 0.7938 0.0
C1696 C 0.771 0.15917 0.69655 0.0
N1697 N 0.78002 0.13797 0.71543 0.0
C1698 C 0.78612 0.19477 0.70466 0.0
C1699 C 0.82048 0.18491 0.74971 0.0
C1700 C 0.80556 0.14934 0.73975 0.0
C1701 C 0.80968 0.20788 0.73296 0.0
H1702 H 0.75018 0.1492 0.67784 0.0
H1703 H 0.81216 0.13154 0.75402 0.0
C1704 C 0.66788 1.00786 0.72581 0.0
N1705 N 0.6111 0.96063 0.71983 0.0
C1706 C 0.66355 0.97233 0.71148 0.0
C1707 C 0.64339 1.01934 0.73733 0.0
C1708 C 0.63464 0.94887 0.70863 0.0
C1709 C 0.61485 0.99507 0.73399 0.0
C1710 C 0.76171 0.06691 0.66184 0.0
C1711 C 0.75266 0.07648 0.63177 0.0
C1712 C 0.79277 0.06993 0.67237 0.0
C1713 C 0.77485 0.08847 0.61236 0.0
C1714 C 0.81426 0.08202 0.65225 0.0
N1715 N 0.80492 0.0909 0.62288 0.0
C1716 C 0.67129 0.08139 0.64606 0.0
C1717 C 0.64108 0.02582 0.6502 0.0
C1718 C 0.6475 0.08539 0.62422 0.0
N1719 N 0.66755 0.05235 0.65898 0.0
C1720 C 0.61665 0.02842 0.62758 0.0
C1721 C 0.61999 0.05861 0.61453 0.0
H1722 H 0.69251 0.10216 0.6539 0.0
H1723 H 0.63861 1.0031 0.66102 0.0
C1724 C 0.76025 0.9998 0.76254 0.0
N1725 N 0.75839 1.00485 0.73038 0.0
C1726 C 0.78281 0.98556 0.775 0.0
C1727 C 0.79921 0.97947 0.71971 0.0
C1728 C 0.77625 0.99387 0.70834 0.0
C1729 C 0.80367 0.97699 0.75398 0.0
H1730 H 0.74613 1.01003 0.77933 0.0
H1731 H 0.77432 0.99886 0.68301 0.0
O1732 O 0.71087 0.10774 0.72047 0.0
O1733 O 0.75942 0.08239 0.76009 0.0
O1734 O 0.69622 0.03096 0.72932 0.0
O1735 O 0.74023 0.05448 0.68081 0.0
H1736 H 0.7292 0.17711 0.73751 0.0
H1737 H 0.64999 0.08752 0.71539 0.0
H1738 H 0.6947 0.21578 0.74622 0.0
H1739 H 0.61692 0.12776 0.72485 0.0
H1740 H 0.79965 0.09801 0.87196 0.0
H1741 H 0.75933 0.14869 0.78108 0.0
H1742 H 0.78274 0.06144 0.81324 0.0
H1743 H 0.77621 0.18349 0.84046 0.0
H1744 H 0.6834 0.15744 0.84467 0.0
H1745 H 0.67002 0.04896 0.85063 0.0
H1746 H 0.77756 0.2122 0.6913 0.0
H1747 H 0.83905 0.19454 0.77131 0.0
H1748 H 0.68236 0.963 0.70275 0.0
H1749 H 0.64639 0.04659 0.74898 0.0
H1750 H 0.63096 0.92129 0.6976 0.0
H1751 H 0.59571 1.0036 0.74277 0.0
H1752 H 0.72875 0.07446 0.62339 0.0
H1753 H 0.80024 0.0633 0.69596 0.0
H1754 H 0.76813 0.09572 0.58887 0.0
H1755 H 0.83837 0.08439 0.66001 0.0
H1756 H 0.65073 0.10917 0.61477 0.0
H1757 H 0.59564 1.00722 0.62028 0.0
H1758 H 0.78483 0.98295 0.80123 0.0
H1759 H 0.81436 0.97243 0.70247 0.0
Li1760 Li 0.81244 0.74516 0.0427 0.0
Li1761 Li 0.82977 0.69804 1.00629 0.0
Li1762 Li 0.81212 0.74182 0.97472 0.0
Li1763 Li 0.77178 0.69297 1.00081 0.0
C1764 C 0.87264 0.77636 0.02916 0.0
N1765 N 0.9243 0.83032 0.06031 0.0
C1766 C 0.89855 0.76909 0.04492 0.0
C1767 C 0.87311 0.81105 0.02906 0.0
C1768 C 0.9244 0.79674 0.06061 0.0
C1769 C 0.89943 0.83797 0.04495 0.0
C1770 C 0.80057 0.67091 0.06077 0.0
C1771 C 0.78249 0.61225 0.06914 0.0
N1772 N 0.79757 0.62325 0.10188 0.0
C1773 C 0.81569 0.68166 0.0946 0.0
C1774 C 0.78371 0.63594 0.04799 0.0
C1775 C 0.81401 0.65717 0.11492 0.0
C1776 C 0.79445 0.77224 0.10973 0.0
N1777 N 0.81906 0.77076 0.09339 0.0
C1778 C 0.85252 0.79125 0.14848 0.0
C1779 C 0.84784 0.78054 0.11245 0.0
C1780 C 0.82756 0.79241 0.16614 0.0
C1781 C 0.7982 0.78324 0.1458 0.0
H1782 H 0.77152 0.76349 0.09499 0.0
H1783 H 0.86729 0.77833 0.10002 0.0
C1784 C 0.87279 0.6607 0.9799 0.0
N1785 N 0.86128 0.67298 1.00803 0.0
C1786 C 0.89685 0.64472 0.98285 0.0
C1787 C 0.89736 0.65509 0.04363 0.0
C1788 C 0.87337 0.6707 0.0395 0.0
C1789 C 0.90945 0.64164 0.01511 0.0
H1790 H 0.86365 0.66363 0.95517 0.0
H1791 H 0.86506 0.68204 0.0617 0.0
C1792 C 0.76319 0.76952 0.01964 0.0
N1793 N 0.73444 0.81674 0.05106 0.0
C1794 C 0.73308 0.75787 0.02553 0.0
C1795 C 0.7786 0.80519 0.02938 0.0
C1796 C 0.71893 0.78216 0.04144 0.0
C1797 C 0.76374 0.82863 0.04548 0.0
C1798 C 0.80022 0.65986 0.93931 0.0
C1799 C 0.80764 0.66427 0.90754 0.0
C1800 C 0.79435 0.62655 0.94636 0.0
C1801 C 0.80862 0.63512 0.88316 0.0
C1802 C 0.79613 0.59817 0.92153 0.0
N1803 N 0.80304 0.60298 0.89065 0.0
C1804 C 0.85166 0.784 0.93408 0.0
C1805 C 0.80217 0.75701 0.90249 0.0
C1806 C 0.86132 0.79788 0.90617 0.0
N1807 N 0.82233 0.76392 0.93244 0.0
C1808 C 0.81107 0.77032 0.87371 0.0
C1809 C 0.84131 0.79101 0.87486 0.0
H1810 H 0.86808 0.78923 0.95713 0.0
H1811 H 0.77897 0.74083 0.90053 0.0
C1812 C 0.71757 0.66297 0.02932 0.0
N1813 N 0.72942 0.66036 0.9996 0.0
C1814 C 0.68936 0.63993 0.03174 0.0
C1815 C 0.6854 0.61118 0.97305 0.0
C1816 C 0.7137 0.63486 0.97167 0.0
C1817 C 0.67273 0.61324 1.00346 0.0
H1818 H 0.73029 0.68283 0.05158 0.0
H1819 H 0.72329 0.63239 0.94831 0.0
O1820 O 0.847 0.74967 1.01383 0.0
O1821 O 0.80165 0.69462 0.04056 0.0
O1822 O 0.77755 0.74601 1.00467 0.0
O1823 O 0.79828 0.68792 0.96316 0.0
H1824 H 0.89869 0.74245 0.04521 0.0
H1825 H 0.85342 0.81712 0.01665 0.0
H1826 H 0.94455 0.7915 0.07303 0.0
H1827 H 0.90009 0.86493 0.04504 0.0
H1828 H 0.76948 0.58513 0.05954 0.0
H1829 H 0.82892 0.70851 0.10499 0.0
H1830 H 0.77141 0.62716 0.02214 0.0
H1831 H 0.82578 0.66513 0.14106 0.0
H1832 H 0.87568 0.79785 0.16246 0.0
H1833 H 0.77802 0.78332 0.1577 0.0
H1834 H 0.90528 0.63465 0.96007 0.0
H1835 H 0.90674 0.65422 0.06912 0.0
H1836 H 0.72071 0.73042 0.01776 0.0
H1837 H 0.80188 0.81461 0.02492 0.0
H1838 H 0.69567 0.77346 0.04627 0.0
H1839 H 0.77558 0.85622 0.05376 0.0
H1840 H 0.81231 0.68984 0.9016 0.0
H1841 H 0.78872 0.62268 0.97079 0.0
H1842 H 0.81361 0.63799 0.85819 0.0
H1843 H 0.79184 0.57229 0.92674 0.0
H1844 H 0.88469 0.81411 0.90923 0.0
H1845 H 0.79409 0.76505 0.85106 0.0
H1846 H 0.68087 0.64277 0.0558 0.0
H1847 H 0.67369 0.59112 0.95048 0.0
Li1848 Li 0.93935 0.53936 0.84311 0.0
Li1849 Li 0.98782 0.58167 0.87172 0.0
Li1850 Li 0.94723 0.60039 0.84202 0.0
Li1851 Li 0.97733 0.56565 0.81075 0.0
C1852 C 0.92463 0.56796 0.90265 0.0
N1853 N 0.88241 0.54481 0.94305 0.0
C1854 C 0.93409 0.55757 0.93211 0.0
C1855 C 0.89367 0.5664 0.89364 0.0
C1856 C 0.9124 0.54593 0.95219 0.0
C1857 C 0.87269 0.55469 0.91442 0.0
C1858 C 1.0003 0.51459 0.83724 0.0
C1859 C 0.05126 0.50768 0.83449 0.0
N1860 N 0.03936 0.47226 0.82643 0.0
C1861 C 0.98867 0.47811 0.82949 0.0
C1862 C 0.03189 0.52952 0.84001 0.0
C1863 C 1.00872 0.45719 0.82377 0.0
C1864 C 0.90937 0.47878 0.80374 0.0
N1865 N 0.91207 0.49532 0.83686 0.0
C1866 C 0.88299 0.44308 0.84969 0.0
C1867 C 0.8993 0.47851 0.86001 0.0
C1868 C 0.88026 0.42559 0.81551 0.0
C1869 C 0.89313 0.44403 0.79233 0.0
H1870 H 0.92136 0.49209 0.78642 0.0
H1871 H 0.90274 0.49193 0.88646 0.0
C1872 C 0.04623 0.61406 0.91704 0.0
N1873 N 0.01985 0.5875 0.90693 0.0
C1874 C 0.07082 0.60997 0.93831 0.0
C1875 C 0.04019 0.55166 0.93796 0.0
C1876 C 1.01628 0.55707 0.91743 0.0
C1877 C 0.0677 0.57831 0.94869 0.0
H1878 H 0.04858 0.63793 0.90816 0.0
H1879 H 0.99518 0.53628 0.90846 0.0
C1880 C 0.90873 0.55177 0.77878 0.0
N1881 N 0.8583 0.53393 0.72762 0.0
C1882 C 0.91272 0.54826 0.74464 0.0
C1883 C 0.87908 0.54617 0.78687 0.0
C1884 C 0.88694 0.5391 0.71916 0.0
C1885 C 0.85389 0.53733 0.76066 0.0
C1886 C 1.01941 0.63854 0.8455 0.0
C1887 C 0.02153 0.6728 0.86244 0.0
C1888 C 0.04542 0.63027 0.83462 0.0
C1889 C 0.04982 0.69819 0.8686 0.0
C1890 C 0.07326 0.65638 0.84124 0.0
N1891 N 0.07488 0.68952 0.85799 0.0
C1892 C 0.90663 0.6416 0.85672 0.0
C1893 C 0.92274 0.63563 0.80257 0.0
C1894 C 0.88262 0.65418 0.84468 0.0
N1895 N 0.92516 0.63151 0.8351 0.0
C1896 C 0.899 0.64774 0.78938 0.0
C1897 C 0.87777 0.65571 0.81014 0.0
H1898 H 0.9092 0.63768 0.88245 0.0
H1899 H 0.93772 0.62662 0.78616 0.0
C1900 C 0.98793 0.52096 0.75688 0.0
N1901 N 0.9917 0.55525 0.77122 0.0
C1902 C 0.99997 0.51189 0.72761 0.0
C1903 C 1.01713 0.57367 0.72729 0.0
C1904 C 1.00498 0.58149 0.75677 0.0
C1905 C 1.01524 0.53856 0.71309 0.0
H1906 H 0.97589 0.50079 0.76841 0.0
H1907 H 1.00667 0.60837 0.76861 0.0
O1908 O 0.94574 0.58049 0.88332 0.0
O1909 O 0.98076 0.5354 0.84232 0.0
O1910 O 0.93372 0.55937 0.80397 0.0
O1911 O 0.99174 0.61362 0.83881 0.0
H1912 H 0.95795 0.55872 0.93954 0.0
H1913 H 0.8859 0.57428 0.87096 0.0
H1914 H 0.91943 0.53792 0.97512 0.0
H1915 H 0.84868 0.55352 0.90781 0.0
H1916 H 0.07576 0.5189 0.83661 0.0
H1917 H 0.96439 0.466 0.82773 0.0
H1918 H 0.0414 0.55761 0.84671 0.0
H1919 H 0.99988 0.42895 0.81729 0.0
H1920 H 0.8735 0.42939 0.86827 0.0
H1921 H 0.892 0.43144 0.76587 0.0
H1922 H 0.09178 0.63115 0.94662 0.0
H1923 H 0.03712 0.52687 0.94553 0.0
H1924 H 0.93544 0.55231 0.73779 0.0
H1925 H 0.87553 0.54827 0.81304 0.0
H1926 H 0.88968 0.5359 0.69264 0.0
H1927 H 0.83081 0.53293 0.76657 0.0
H1928 H 1.00152 0.67967 0.87074 0.0
H1929 H 0.04415 0.60407 0.82103 0.0
H1930 H 0.05184 0.7248 0.8818 0.0
H1931 H 0.09357 0.65032 0.833 0.0
H1932 H 0.86727 0.66096 0.86175 0.0
H1933 H 0.89676 0.64975 0.76297 0.0
H1934 H 0.99787 0.48456 0.71675 0.0
H1935 H 0.02893 0.5948 0.71657 0.0
Li1936 Li 0.85951 0.46293 0.52801 0.0
Li1937 Li 0.83859 0.50191 0.49953 0.0
Li1938 Li 0.84958 0.44885 0.46562 0.0
Li1939 Li 0.89123 0.49914 0.49559 0.0
C1940 C 0.7994 0.42017 0.50011 0.0
N1941 N 0.76023 0.35839 0.50638 0.0
C1942 C 0.76948 0.4191 0.50595 0.0
C1943 C 0.80947 0.38991 0.49785 0.0
C1944 C 0.75 0.38758 0.50902 0.0
C1945 C 0.7893 0.35889 0.50093 0.0
C1946 C 0.8879 0.542 0.56228 0.0
C1947 C 0.92385 0.5992 0.58297 0.0
N1948 N 0.91989 0.59752 0.61546 0.0
C1949 C 0.88428 0.54075 0.59591 0.0
C1950 C 0.90761 0.57162 0.55572 0.0
C1951 C 0.90048 0.56922 0.62242 0.0
C1952 C 0.89332 0.45127 0.5804 0.0
N1953 N 0.86364 0.44615 0.56636 0.0
C1954 C 0.84545 0.41075 0.60404 0.0
C1955 C 0.83971 0.42768 0.57836 0.0
C1956 C 0.87606 0.41411 0.6179 0.0
C1957 C 0.90017 0.4356 0.60667 0.0
H1958 H 0.91166 0.4663 0.57013 0.0
H1959 H 0.81633 0.42499 0.56727 0.0
C1960 C 0.79837 0.54487 0.48669 0.0
N1961 N 0.81197 0.52982 0.50901 0.0
C1962 C 0.77758 0.56363 0.49699 0.0
C1963 C 0.78564 0.55087 0.55277 0.0
C1964 C 0.80612 0.53249 0.54144 0.0
C1965 C 0.77089 0.56664 0.53044 0.0
H1966 H 0.80327 0.54179 0.46092 0.0
H1967 H 0.81696 0.51955 0.55829 0.0
C1968 C 0.90337 0.42719 0.4915 0.0
N1969 N 0.94009 0.38174 0.4832 0.0
C1970 C 0.92715 0.43291 0.47232 0.0
C1971 C 0.89843 0.39834 0.50659 0.0
C1972 C 0.94541 0.40966 0.46838 0.0
C1973 C 0.91718 0.37566 0.50205 0.0
C1974 C 0.87059 0.52358 0.44203 0.0
C1975 C 0.8782 0.51543 0.4095 0.0
C1976 C 0.8761 0.55857 0.459 0.0
C1977 C 0.89203 0.5426 0.3948 0.0
C1978 C 0.89001 0.585 0.44347 0.0
N1979 N 0.89768 0.57653 0.41199 0.0
C1980 C 0.81859 0.3828 0.41808 0.0
C1981 C 0.86701 0.41575 0.40987 0.0
C1982 C 0.81903 0.35497 0.39187 0.0
N1983 N 0.84277 0.41207 0.42694 0.0
C1984 C 0.86808 0.38902 0.38314 0.0
C1985 C 0.84414 0.35805 0.37433 0.0
H1986 H 0.79897 0.38095 0.43105 0.0
H1987 H 0.88566 0.43954 0.41728 0.0
C1988 C 0.94884 0.51808 0.52806 0.0
N1989 N 0.93333 0.51965 0.49806 0.0
C1990 C 0.98054 0.52458 0.53304 0.0
C1991 C 0.98017 0.53533 0.47624 0.0
C1992 C 0.94816 0.52829 0.47227 0.0
C1993 C 0.99659 0.53284 0.50678 0.0
H1994 H 0.93636 0.51047 0.54775 0.0
H1995 H 0.93528 0.52809 0.4482 0.0
O1996 O 0.81893 0.45105 0.49782 0.0
O1997 O 0.87367 0.51352 0.53619 0.0
O1998 O 0.88589 0.45042 0.49662 0.0
O1999 O 0.85798 0.49737 0.45725 0.0
H2000 H 0.76145 0.44243 0.5082 0.0
H2001 H 0.83249 0.39032 0.49335 0.0
H2002 H 0.72678 0.38632 0.51354 0.0
H2003 H 0.79674 0.33522 0.49897 0.0
H2004 H 0.93977 0.62185 0.57826 0.0
H2005 H 0.86924 0.51798 0.60151 0.0
H2006 H 0.91105 0.57296 0.52997 0.0
H2007 H 0.89784 0.56873 0.64854 0.0
H2008 H 0.82619 0.3942 0.61193 0.0
H2009 H 0.924 0.43949 0.61736 0.0
H2010 H 0.76667 0.57534 0.47895 0.0
H2011 H 0.78063 0.55163 0.5784 0.0
H2012 H 0.93147 0.455 0.46044 0.0
H2013 H 0.88053 0.39355 0.52196 0.0
H2014 H 0.96384 0.41384 0.45357 0.0
H2015 H 0.91359 0.3533 0.51364 0.0
H2016 H 0.87369 0.48844 0.39588 0.0
H2017 H 0.8698 0.56521 0.48394 0.0
H2018 H 0.89827 0.53672 0.36974 0.0
H2019 H 0.89465 0.61223 0.4564 0.0
H2020 H 0.79943 0.33201 0.38444 0.0
H2021 H 0.8872 0.39272 0.36926 0.0
H2022 H 0.99219 0.52284 0.55721 0.0
H2023 H 0.99177 0.5419 0.45544 0.0
Li2024 Li 0.6937 0.54797 0.32548 0.0
Li2025 Li 0.74022 0.58914 0.29449 0.0
Li2026 Li 0.6911 0.54328 0.25108 0.0
Li2027 Li 0.73492 0.512 0.286 0.0
C2028 C 0.67519 0.60544 0.29595 0.0
N2029 N 0.6374 0.64964 0.30125 0.0
C2030 C 0.68619 0.63942 0.31628 0.0
C2031 C 0.64486 0.59369 0.27877 0.0
C2032 C 0.66676 0.66146 0.31848 0.0
C2033 C 0.62614 0.61649 0.28167 0.0
C2034 C 0.76404 0.56665 0.35892 0.0
C2035 C 0.81184 0.56582 0.39049 0.0
N2036 N 0.80746 0.58883 0.41753 0.0
C2037 C 0.75987 0.59019 0.38698 0.0
C2038 C 0.79018 0.55434 0.3606 0.0
C2039 C 0.78214 0.60114 0.4164 0.0
C2040 C 0.64974 0.51987 0.38096 0.0
N2041 N 0.66799 0.54967 0.37387 0.0
C2042 C 0.65441 0.5815 0.42744 0.0
C2043 C 0.66995 0.58027 0.39758 0.0
C2044 C 0.63537 0.55113 0.43529 0.0
C2045 C 0.63384 0.5201 0.41036 0.0
H2046 H 0.6471 0.4949 0.36376 0.0
H2047 H 0.6838 0.60473 0.39383 0.0
C2048 C 0.75544 0.6671 0.28286 0.0
N2049 N 0.76839 0.64294 0.29438 0.0
C2050 C 0.77328 0.7015 0.28116 0.0
C2051 C 0.81831 0.68694 0.30219 0.0
C2052 C 0.79974 0.65328 0.30414 0.0
C2053 C 0.80574 0.7125 0.29061 0.0
H2054 H 0.73089 0.65982 0.27417 0.0
H2055 H 0.81095 0.63511 0.313 0.0
C2056 C 0.6613 0.4747 0.2723 0.0
N2057 N 0.61241 0.41506 0.25474 0.0
C2058 C 0.66402 0.44432 0.25108 0.0
C2059 C 0.63369 0.47494 0.28429 0.0
C2060 C 0.63902 0.41438 0.24253 0.0
C2061 C 0.60927 0.44448 0.27523 0.0
C2062 C 0.75019 0.54792 0.22359 0.0
C2063 C 0.73677 0.52091 0.19479 0.0
C2064 C 0.77575 0.5747 0.22202 0.0
C2065 C 0.7491 0.52128 0.16469 0.0
C2066 C 0.78747 0.57407 0.1915 0.0
N2067 N 0.77399 0.54762 0.16369 0.0
C2068 C 0.66256 0.57849 0.19559 0.0
C2069 C 0.65383 0.51878 0.17241 0.0
C2070 C 0.64799 0.58326 0.16392 0.0
N2071 N 0.66557 0.54648 0.20037 0.0
C2072 C 0.63926 0.52257 0.14015 0.0
C2073 C 0.63573 0.55529 0.1346 0.0
H2074 H 0.67183 0.60126 0.21644 0.0
H2075 H 0.65588 0.49311 0.17452 0.0
C2076 C 0.74519 0.43081 0.28089 0.0
N2077 N 0.76037 0.46562 0.28286 0.0
C2078 C 0.76029 0.40246 0.27893 0.0
C2079 C 0.80763 0.44359 0.28117 0.0
C2080 C 0.79174 0.47121 0.28292 0.0
C2081 C 0.79261 0.40742 0.27897 0.0
H2082 H 0.72066 0.42407 0.28091 0.0
H2083 H 0.8054 0.49762 0.28443 0.0
O2084 O 0.69385 0.58355 0.29307 0.0
O2085 O 0.74242 0.55525 0.33006 0.0
O2086 O 0.68574 0.50392 0.28198 0.0
O2087 O 0.73819 0.54828 0.2531 0.0
H2088 H 0.7095 0.64868 0.33012 0.0
H2089 H 0.63597 0.56729 0.26322 0.0
H2090 H 0.675 0.68794 0.33389 0.0
H2091 H 0.60267 0.60785 0.26834 0.0
H2092 H 0.83204 0.55634 0.39216 0.0
H2093 H 0.73966 0.59985 0.38601 0.0
H2094 H 0.79363 0.53602 0.33908 0.0
H2095 H 0.77927 0.61935 0.43836 0.0
H2096 H 0.65746 0.60673 0.44443 0.0
H2097 H 0.62009 0.49526 0.41342 0.0
H2098 H 0.76161 0.71892 0.27151 0.0
H2099 H 0.84296 0.6928 0.30974 0.0
H2100 H 0.68523 0.44387 0.24143 0.0
H2101 H 0.63125 0.49836 0.30062 0.0
H2102 H 0.64079 0.39057 0.22629 0.0
H2103 H 0.58789 0.44425 0.28465 0.0
H2104 H 0.71695 0.5 0.19566 0.0
H2105 H 0.78649 0.59565 0.24416 0.0
H2106 H 0.73888 0.50065 0.14213 0.0
H2107 H 0.80727 0.59461 0.18991 0.0
H2108 H 0.64671 0.60936 0.16247 0.0
H2109 H 0.63083 0.49953 0.11943 0.0
H2110 H 0.74616 0.37627 0.27753 0.0
H2111 H 0.83224 0.45104 0.2816 0.0
Gd2112 Gd 0.07111 0.04854 1.01092 0.0
Gd2113 Gd 0.11488 0.08761 0.0483 0.0
C2114 C 0.07655 0.13037 1.01337 0.0
C2115 C 1.01471 1.0201 0.98106 0.0
C2116 C 0.98777 0.02944 0.99283 0.0
C2117 C 0.96086 0.02443 0.96988 0.0
C2118 C 0.99061 0.04791 0.02667 0.0
C2119 C 0.94052 0.05796 1.01419 0.0
C2120 C 0.96727 0.06203 0.03726 0.0
C2121 C 0.93729 0.03844 0.98052 0.0
C2122 C 0.11722 0.05055 0.96761 0.0
C2123 C 0.10901 1.00548 0.04582 0.0
C2124 C 0.17148 0.11655 0.07746 0.0
C2125 C 0.19867 0.10892 0.06468 0.0
C2126 C 0.2264 0.11556 0.0868 0.0
C2127 C 0.19565 0.09082 0.03067 0.0
C2128 C 0.24711 0.08385 0.0415 0.0
C2129 C 0.21958 0.0784 0.01916 0.0
C2130 C 0.25054 0.10328 0.07525 0.0
C2131 C 0.06882 0.08588 0.09174 0.0
O2132 O 0.05676 0.09966 1.01024 0.0
O2133 O 0.10487 0.13271 0.02649 0.0
O2134 O 0.03331 0.04501 0.97142 0.0
O2135 O 0.0294 1.0055 1.00086 0.0
O2136 O 0.09706 0.02309 0.97125 0.0
O2137 O 0.11342 0.07635 0.98973 0.0
O2138 O 0.12891 0.03621 0.04916 0.0
O2139 O 0.08077 1.00324 0.03252 0.0
O2140 O 0.15362 0.09046 0.08631 0.0
O2141 O 0.15596 0.13152 0.05894 0.0
O2142 O 0.08928 0.11317 0.0883 0.0
O2143 O 0.07253 0.06002 0.06957 0.0
H2144 H 0.95847 1.01067 0.94357 0.0
H2145 H 1.01147 0.05264 0.04463 0.0
H2146 H 0.97082 0.07742 0.06314 0.0
H2147 H 0.91678 0.03454 0.96224 0.0
H2148 H 0.22902 0.12918 0.1132 0.0
H2149 H 0.17425 0.085 1.01332 0.0
H2150 H 0.21588 0.06307 0.99325 0.0
H2151 H 0.27161 0.10827 0.09299 0.0
Gd2152 Gd 0.36166 0.81644 0.25555 0.0
Gd2153 Gd 0.32564 0.81595 0.29719 0.0
C2154 C 0.3662 0.88791 0.30368 0.0
C2155 C 0.39745 0.83192 0.21257 0.0
C2156 C 0.39308 0.85312 0.18851 0.0
C2157 C 0.41245 0.85812 0.16446 0.0
C2158 C 0.36863 0.8685 0.18986 0.0
C2159 C 0.38274 0.89418 0.14301 0.0
C2160 C 0.36381 0.88942 0.16769 0.0
C2161 C 0.40715 0.87843 0.14148 0.0
C2162 C 0.38912 0.79465 0.30904 0.0
C2163 C 0.321 0.74542 0.24673 0.0
C2164 C 0.28908 0.80098 0.33976 0.0
C2165 C 0.29093 0.77997 0.36454 0.0
C2166 C 0.27279 0.7808 0.39014 0.0
C2167 C 0.31271 0.76072 0.3638 0.0
C2168 C 0.29879 0.74354 0.41497 0.0
C2169 C 0.31646 0.74235 0.38873 0.0
C2170 C 0.27675 0.76265 0.41544 0.0
C2171 C 0.29819 0.83832 0.2443 0.0
O2172 O 0.36351 0.87307 0.2715 0.0
O2173 O 0.3567 0.86798 0.32417 0.0
O2174 O 0.40286 0.84907 0.24426 0.0
O2175 O 0.37634 0.80225 0.20699 0.0
O2176 O 0.38512 0.77976 0.27714 0.0
O2177 O 0.37593 0.81928 0.31203 0.0
O2178 O 0.32413 0.75889 0.27943 0.0
O2179 O 0.32924 0.76651 0.227 0.0
O2180 O 0.28413 0.78363 0.30818 0.0
O2181 O 0.31131 0.82972 0.34593 0.0
O2182 O 0.30232 0.85292 0.27623 0.0
O2183 O 0.31124 0.81352 0.24101 0.0
H2184 H 0.43123 0.84603 0.16319 0.0
H2185 H 0.35308 0.86418 0.20794 0.0
H2186 H 0.34513 0.90158 0.16975 0.0
H2187 H 0.4217 0.88116 0.12216 0.0
H2188 H 0.25623 0.79608 0.391 0.0
H2189 H 0.32719 0.76039 0.34429 0.0
H2190 H 0.33323 0.72735 0.38751 0.0
H2191 H 0.26325 0.7644 0.43582 0.0
Gd2192 Gd 0.62857 0.0709 0.5277 0.0
Gd2193 Gd 0.55895 0.0639 0.53406 0.0
C2194 C 0.57866 0.99169 0.51473 0.0
C2195 C 0.68534 0.06834 0.53466 0.0
C2196 C 0.70592 0.04502 0.53561 0.0
C2197 C 0.7289 0.04741 0.51504 0.0
C2198 C 0.70527 0.02327 0.559 0.0
C2199 C 0.75133 1.00833 0.54229 0.0
C2200 C 0.72781 1.00523 0.56238 0.0
C2201 C 0.75125 0.02928 0.51824 0.0
C2202 C 0.59147 0.07314 0.4728 0.0
C2203 C 0.60864 0.14297 0.54597 0.0
C2204 C 0.50208 0.06612 0.52792 0.0
C2205 C 0.4809 0.08868 0.52649 0.0
C2206 C 0.4572 0.08483 0.54605 0.0
C2207 C 0.48182 0.11117 0.5038 0.0
C2208 C 0.43464 0.12412 0.5193 0.0
C2209 C 0.45886 0.12865 0.50019 0.0
C2210 C 0.4344 0.10228 0.54255 0.0
C2211 C 0.59631 0.06216 0.58913 0.0
O2212 O 0.60788 1.01134 0.52159 0.0
O2213 O 0.55538 1.00624 0.51496 0.0
O2214 O 0.66933 0.06697 0.50521 0.0
O2215 O 0.67039 0.07328 0.5602 0.0
O2216 O 0.61997 0.09195 0.48067 0.0
O2217 O 0.58507 0.05355 0.49301 0.0
O2218 O 0.57945 0.12321 0.53841 0.0
O2219 O 0.63197 0.12851 0.54701 0.0
O2220 O 0.51882 0.06892 0.55734 0.0
O2221 O 0.51646 0.06033 0.50202 0.0
O2222 O 0.56787 0.04321 0.58139 0.0
O2223 O 0.60246 0.0815 0.56868 0.0
H2224 H 0.73016 0.06426 0.4971 0.0
H2225 H 0.68792 0.02098 0.57539 0.0
H2226 H 0.72694 0.98909 0.58093 0.0
H2227 H 0.76913 0.03265 0.5026 0.0
H2228 H 0.45576 0.06737 0.56342 0.0
H2229 H 0.49975 0.11452 0.4882 0.0
H2230 H 0.45999 0.14551 0.48229 0.0
H2231 H 0.41601 0.09773 0.5574 0.0
Gd2232 Gd 0.31435 0.32932 0.77897 0.0
Gd2233 Gd 0.37185 0.30784 0.77983 0.0
C2234 C 0.35403 0.33578 0.85372 0.0
C2235 C 0.25776 0.33125 0.78115 0.0
C2236 C 0.23078 0.32263 0.79858 0.0
C2237 C 0.21174 0.34525 0.80092 0.0
C2238 C 0.22364 0.29323 0.813 0.0
C2239 C 0.17867 0.30971 0.83204 0.0
C2240 C 0.1978 0.28681 0.82955 0.0
C2241 C 0.18607 0.33888 0.81725 0.0
C2242 C 0.35854 0.3895 0.77266 0.0
C2243 C 0.3323 0.30184 0.70509 0.0
C2244 C 0.42839 0.30558 0.77775 0.0
C2245 C 0.45613 0.31533 0.7618 0.0
C2246 C 0.47975 0.29953 0.7681 0.0
C2247 C 0.45908 0.33817 0.73944 0.0
C2248 C 0.50875 0.32809 0.72915 0.0
C2249 C 0.48522 0.3446 0.72334 0.0
C2250 C 0.50568 0.30584 0.75214 0.0
C2251 C 0.32767 0.24786 0.7868 0.0
O2252 O 0.32722 0.33445 0.83623 0.0
O2253 O 0.37633 0.32907 0.83732 0.0
O2254 O 0.2817 0.35584 0.79863 0.0
O2255 O 0.26517 0.30592 0.76137 0.0
O2256 O 0.32962 0.38587 0.77335 0.0
O2257 O 0.36331 0.35974 0.77528 0.0
O2258 O 0.35915 0.30339 0.72262 0.0
O2259 O 0.30987 0.30814 0.72146 0.0
O2260 O 0.40445 0.28226 0.75858 0.0
O2261 O 0.42099 0.33004 0.79875 0.0
O2262 O 0.3567 0.25165 0.78672 0.0
O2263 O 0.32299 0.27759 0.78394 0.0
H2264 H 0.21673 0.36804 0.78993 0.0
H2265 H 0.23806 0.27543 0.81168 0.0
H2266 H 0.19315 0.26424 0.84086 0.0
H2267 H 0.17178 0.35678 0.81783 0.0
H2268 H 0.47798 0.28179 0.78521 0.0
H2269 H 0.44102 0.35051 0.73401 0.0
H2270 H 0.48656 0.36169 0.70565 0.0
H2271 H 0.52338 0.29314 0.75792 0.0
Gd2272 Gd 0.09105 0.10148 0.54741 0.0
Gd2273 Gd 0.09471 0.03518 0.51387 0.0
C2274 C 0.06533 0.076 0.46189 0.0
C2275 C 0.09857 0.16848 0.5635 0.0
C2276 C 0.10812 0.19527 0.54398 0.0
C2277 C 0.10776 0.22994 0.55652 0.0
C2278 C 0.11848 0.18637 0.51292 0.0
C2279 C 0.12725 0.24647 0.5066 0.0
C2280 C 0.1278 0.21168 0.4943 0.0
C2281 C 0.11735 0.25541 0.53802 0.0
C2282 C 0.04259 0.04911 0.55527 0.0
C2283 C 0.12037 0.0605 0.59934 0.0
C2284 C 0.08756 0.96833 0.49843 0.0
C2285 C 0.0781 0.94174 0.51827 0.0
C2286 C 0.08713 0.91071 0.51204 0.0
C2287 C 0.06026 0.94748 0.54396 0.0
C2288 C 0.06053 0.89122 0.55691 0.0
C2289 C 0.0514 0.92236 0.56296 0.0
C2290 C 0.07845 0.88565 0.5312 0.0
C2291 C 0.14295 0.08749 0.50572 0.0
O2292 O 0.07465 0.10223 0.48986 0.0
O2293 O 0.06927 0.04509 0.46513 0.0
O2294 O 0.07168 0.14599 0.55185 0.0
O2295 O 0.11971 0.15347 0.57198 0.0
O2296 O 0.0566 0.077 0.57884 0.0
O2297 O 0.05401 0.05131 0.52833 0.0
O2298 O 0.11096 0.03428 0.57137 0.0
O2299 O 0.11637 0.09141 0.59617 0.0
O2300 O 0.11443 0.99092 0.50993 0.0
O2301 O 0.06641 0.98305 0.48925 0.0
O2302 O 0.12891 0.05954 0.48226 0.0
O2303 O 0.13172 0.08535 0.53281 0.0
H2304 H 0.10009 0.23729 0.58059 0.0
H2305 H 0.1196 0.15989 0.50316 0.0
H2306 H 0.13578 0.20412 0.47047 0.0
H2307 H 0.11651 0.28197 0.54801 0.0
H2308 H 0.10094 0.9059 0.49241 0.0
H2309 H 0.05334 0.97151 0.54947 0.0
H2310 H 0.03796 0.92765 0.58285 0.0
H2311 H 0.0856 0.86177 0.52571 0.0
Gd2312 Gd 0.37106 0.84319 0.77833 0.0
Gd2313 Gd 0.31431 0.79256 0.78137 0.0
C2314 C 0.37522 0.75923 0.78196 0.0
C2315 C 0.42678 0.88117 0.79349 0.0
C2316 C 0.45591 0.87183 0.79267 0.0
C2317 C 0.47754 0.88801 0.77457 0.0
C2318 C 0.46218 0.84638 0.80953 0.0
C2319 C 0.51292 0.85657 0.79371 0.0
C2320 C 0.49045 0.83892 0.81015 0.0
C2321 C 0.50579 0.88026 0.77486 0.0
C2322 C 0.34295 0.80315 0.71696 0.0
C2323 C 0.31023 0.87665 0.77762 0.0
C2324 C 0.25869 0.75428 0.76697 0.0
C2325 C 0.22946 0.76309 0.76905 0.0
C2326 C 0.20833 0.7457 0.78693 0.0
C2327 C 0.22257 0.78917 0.75356 0.0
C2328 C 0.17204 0.77706 0.76999 0.0
C2329 C 0.19409 0.79598 0.7539 0.0
C2330 C 0.17988 0.75282 0.78764 0.0
C2331 C 0.34244 0.83285 0.84269 0.0
O2332 O 0.39007 0.79328 0.78423 0.0
O2333 O 0.34443 0.75198 0.77939 0.0
O2334 O 0.40999 0.8769 0.76374 0.0
O2335 O 0.41082 0.87053 0.81638 0.0
O2336 O 0.35724 0.8362 0.7218 0.0
O2337 O 0.34549 0.79335 0.74447 0.0
O2338 O 0.29538 0.84268 0.77585 0.0
O2339 O 0.34098 0.88378 0.7797 0.0
O2340 O 0.27607 0.75811 0.79624 0.0
O2341 O 0.27398 0.76576 0.74392 0.0
O2342 O 0.32838 0.79974 0.83795 0.0
O2343 O 0.33973 0.84241 0.8151 0.0
H2344 H 0.47285 0.90721 0.76088 0.0
H2345 H 0.4457 0.83298 0.82328 0.0
H2346 H 0.49527 0.82093 0.82533 0.0
H2347 H 0.52256 0.89392 0.76158 0.0
H2348 H 0.21353 0.72601 0.79961 0.0
H2349 H 0.23868 0.80351 0.74006 0.0
H2350 H 0.18879 0.81446 0.73962 0.0
H2351 H 0.1635 0.73821 0.80069 0.0
Gd2352 Gd 0.5944 0.04531 0.05946 0.0
Gd2353 Gd 0.59289 0.09073 1.00358 0.0
C2354 C 0.53038 0.04087 1.01258 0.0
C2355 C 0.59002 0.02041 0.11241 0.0
C2356 C 0.56913 0.02222 0.13646 0.0
C2357 C 0.57105 1.00581 0.1636 0.0
C2358 C 0.54773 0.04155 0.13273 0.0
C2359 C 0.53161 0.03033 0.18511 0.0
C2360 C 0.52897 0.04561 0.15706 0.0
C2361 C 0.55224 1.00982 0.18798 0.0
C2362 C 0.61408 1.01523 1.00279 0.0
C2363 C 0.65678 0.09453 0.05033 0.0
C2364 C 0.59659 0.11465 0.95004 0.0
C2365 C 0.61742 0.11359 0.92588 0.0
C2366 C 0.61364 0.12831 0.89785 0.0
C2367 C 0.64096 0.09731 0.93068 0.0
C2368 C 0.65636 0.10921 0.87818 0.0
C2369 C 0.66051 0.09521 0.90688 0.0
C2370 C 0.63305 0.12607 0.87392 0.0
C2371 C 0.57228 0.12092 0.05928 0.0
O2372 O 0.54422 0.03785 0.04193 0.0
O2373 O 0.54558 0.05446 0.99026 0.0
O2374 O 0.57675 1.00192 0.08174 0.0
O2375 O 0.60922 0.05076 0.11293 0.0
O2376 O 0.61226 1.00291 0.02982 0.0
O2377 O 0.60418 0.04197 1.00737 0.0
O2378 O 0.64302 0.09712 0.02076 0.0
O2379 O 0.64151 0.08216 0.07317 0.0
O2380 O 0.60967 0.13373 0.98057 0.0
O2381 O 0.57815 0.08394 0.94986 0.0
O2382 O 0.57562 0.13349 0.03256 0.0
O2383 O 0.58209 0.09398 0.05571 0.0
H2384 H 0.58759 0.99083 0.16639 0.0
H2385 H 0.54619 0.05424 0.11158 0.0
H2386 H 0.51304 0.06137 0.15451 0.0
H2387 H 0.55475 0.99826 0.2098 0.0
H2388 H 0.59539 0.14086 0.89418 0.0
H2389 H 0.64386 0.08582 0.95249 0.0
H2390 H 0.67847 0.08227 0.91059 0.0
H2391 H 0.62918 0.13645 0.85155 0.0
Gd2392 Gd 0.36461 0.35228 0.30105 0.0
Gd2393 Gd 0.32157 0.28196 0.25942 0.0
C2394 C 0.29148 0.33867 0.29652 0.0
C2395 C 0.3893 0.41825 0.31599 0.0
C2396 C 0.37623 0.44072 0.29782 0.0
C2397 C 0.36895 0.46983 0.31631 0.0
C2398 C 0.36207 0.42648 0.26369 0.0
C2399 C 0.3304 0.46658 0.26814 0.0
C2400 C 0.33943 0.43923 0.24894 0.0
C2401 C 0.34623 0.48281 0.3015 0.0
C2402 C 0.35189 0.30956 0.34666 0.0
C2403 C 0.39471 0.29585 0.26365 0.0
C2404 C 0.2959 0.21609 0.245 0.0
C2405 C 0.30717 0.1931 0.26408 0.0
C2406 C 0.31381 0.16317 0.2464 0.0
C2407 C 0.32046 0.20718 0.2985 0.0
C2408 C 0.35093 0.16579 0.29564 0.0
C2409 C 0.34215 0.19373 0.31418 0.0
C2410 C 0.33549 0.14944 0.26216 0.0
C2411 C 0.33463 0.32444 0.21364 0.0
O2412 O 0.31758 0.36201 0.29695 0.0
O2413 O 0.28763 0.30497 0.28456 0.0
O2414 O 0.37048 0.40304 0.33416 0.0
O2415 O 0.40184 0.39652 0.2979 0.0
O2416 O 0.37248 0.33953 0.35331 0.0
O2417 O 0.34227 0.30181 0.31447 0.0
O2418 O 0.36867 0.27246 0.26343 0.0
O2419 O 0.39865 0.32956 0.27579 0.0
O2420 O 0.31604 0.23058 0.22772 0.0
O2421 O 0.28334 0.23853 0.26198 0.0
O2422 O 0.31413 0.2944 0.207 0.0
O2423 O 0.34411 0.3323 0.24588 0.0
H2424 H 0.37893 0.4806 0.34296 0.0
H2425 H 0.36618 0.40313 0.24945 0.0
H2426 H 0.32754 0.42595 0.22336 0.0
H2427 H 0.34013 0.50453 0.31666 0.0
H2428 H 0.30437 0.15237 0.21962 0.0
H2429 H 0.31653 0.2309 0.31227 0.0
H2430 H 0.35372 0.20705 0.33986 0.0
H2431 H 0.34137 0.12725 0.24755 0.0
Gd2432 Gd 0.59105 0.60147 0.04741 0.0
Gd2433 Gd 0.5947 0.53517 1.01387 0.0
C2434 C 0.56533 0.57601 0.96189 0.0
C2435 C 0.59858 0.66848 0.06351 0.0
C2436 C 0.60813 0.69527 0.04399 0.0
C2437 C 0.60777 0.72993 0.05653 0.0
C2438 C 0.61848 0.68637 1.01292 0.0
C2439 C 0.62726 0.74647 1.0066 0.0
C2440 C 0.6278 0.71168 0.9943 0.0
C2441 C 0.61735 0.75541 0.03802 0.0
C2442 C 0.54259 0.54911 0.05527 0.0
C2443 C 0.62037 0.56048 0.09934 0.0
C2444 C 0.58755 0.46832 0.99842 0.0
C2445 C 0.57809 0.44173 0.01826 0.0
C2446 C 0.58712 0.4107 1.01203 0.0
C2447 C 0.56025 0.44747 0.04395 0.0
C2448 C 0.56052 0.39121 0.0569 0.0
C2449 C 0.55138 0.42234 0.06295 0.0
C2450 C 0.57844 0.38564 0.03119 0.0
C2451 C 0.64294 0.58748 1.00572 0.0
O2452 O 0.57465 0.60223 0.98986 0.0
O2453 O 0.56927 0.54509 0.96513 0.0
O2454 O 0.57168 0.64599 0.05186 0.0
O2455 O 0.61972 0.65347 0.07198 0.0
O2456 O 0.5566 0.577 0.07884 0.0
O2457 O 0.55401 0.55131 0.02833 0.0
O2458 O 0.61095 0.53427 0.07137 0.0
O2459 O 0.61637 0.5914 0.09617 0.0
O2460 O 0.61442 0.49091 1.00992 0.0
O2461 O 0.5664 0.48305 0.98925 0.0
O2462 O 0.62891 0.55953 0.98225 0.0
O2463 O 0.63172 0.58534 0.03281 0.0
H2464 H 0.6001 0.73729 0.08059 0.0
H2465 H 0.6196 0.65989 1.00316 0.0
H2466 H 0.63579 0.70412 0.97047 0.0
H2467 H 0.61652 0.78196 0.04801 0.0
H2468 H 0.60093 0.40589 0.9924 0.0
H2469 H 0.55332 0.4715 0.04946 0.0
H2470 H 0.53795 0.42764 0.08284 0.0
H2471 H 0.5856 0.36176 0.02571 0.0
Gd2472 Gd 0.87104 0.34315 0.27831 0.0
Gd2473 Gd 0.81429 0.29251 0.28133 0.0
C2474 C 0.8752 0.25918 0.28194 0.0
C2475 C 0.92676 0.38112 0.29348 0.0
C2476 C 0.95589 0.37179 0.29265 0.0
C2477 C 0.97751 0.38797 0.27455 0.0
C2478 C 0.96216 0.34634 0.30952 0.0
C2479 C 1.01291 0.35654 0.29369 0.0
C2480 C 0.99044 0.33888 0.31013 0.0
C2481 C 1.00577 0.38022 0.27485 0.0
C2482 C 0.84295 0.3031 0.21694 0.0
C2483 C 0.81021 0.37661 0.2776 0.0
C2484 C 0.75866 0.25423 0.26691 0.0
C2485 C 0.72943 0.26305 0.269 0.0
C2486 C 0.70831 0.24567 0.28689 0.0
C2487 C 0.72254 0.28912 0.2535 0.0
C2488 C 0.67203 0.27704 0.26996 0.0
C2489 C 0.69408 0.29594 0.25386 0.0
C2490 C 0.67987 0.2528 0.28762 0.0
C2491 C 0.8424 0.33278 0.34266 0.0
O2492 O 0.89005 0.29323 0.28422 0.0
O2493 O 0.84441 0.25193 0.27935 0.0
O2494 O 0.90997 0.37686 0.26373 0.0
O2495 O 0.9108 0.37047 0.31637 0.0
O2496 O 0.85723 0.33616 0.22178 0.0
O2497 O 0.84548 0.2933 0.24444 0.0
O2498 O 0.79536 0.34263 0.27581 0.0
O2499 O 0.84097 0.38373 0.27968 0.0
O2500 O 0.77605 0.25804 0.29618 0.0
O2501 O 0.77396 0.26572 0.24386 0.0
O2502 O 0.82834 0.29968 0.33791 0.0
O2503 O 0.8397 0.34236 0.31507 0.0
H2504 H 0.97282 0.40717 0.26086 0.0
H2505 H 0.94569 0.33294 0.32327 0.0
H2506 H 0.99526 0.3209 0.32531 0.0
H2507 H 0.02254 0.39389 0.26157 0.0
H2508 H 0.71352 0.22598 0.29958 0.0
H2509 H 0.73865 0.30345 0.23999 0.0
H2510 H 0.68877 0.31442 0.23957 0.0
H2511 H 0.66349 0.2382 0.30068 0.0
Gd2512 Gd 0.09436 0.5453 0.55943 0.0
Gd2513 Gd 0.09286 0.59072 0.50355 0.0
C2514 C 0.03035 0.54086 0.51254 0.0
C2515 C 0.08997 0.52038 0.61236 0.0
C2516 C 0.06908 0.52218 0.63641 0.0
C2517 C 0.071 0.50576 0.66354 0.0
C2518 C 0.04768 0.5415 0.63269 0.0
C2519 C 0.03156 0.53028 0.68506 0.0
C2520 C 0.02891 0.54556 0.65701 0.0
C2521 C 0.05218 0.50977 0.68792 0.0
C2522 C 0.11406 0.51523 0.50276 0.0
C2523 C 0.15674 0.59453 0.55032 0.0
C2524 C 0.09657 0.61465 0.45002 0.0
C2525 C 0.1174 0.6136 0.42587 0.0
C2526 C 0.11362 0.62833 0.39784 0.0
C2527 C 0.14094 0.59732 0.43067 0.0
C2528 C 0.15636 0.60923 0.37817 0.0
C2529 C 0.16049 0.59523 0.40688 0.0
C2530 C 0.13304 0.62609 0.37391 0.0
C2531 C 0.07224 0.62091 0.55925 0.0
O2532 O 0.04419 0.53784 0.54189 0.0
O2533 O 0.04554 0.55445 0.49023 0.0
O2534 O 0.07671 0.5019 0.58169 0.0
O2535 O 0.10918 0.55074 0.61289 0.0
O2536 O 0.11223 0.50291 0.52979 0.0
O2537 O 0.10416 0.54197 0.50734 0.0
O2538 O 0.14298 0.59712 0.52074 0.0
O2539 O 0.14147 0.58216 0.57315 0.0
O2540 O 0.10964 0.63373 0.48055 0.0
O2541 O 0.07813 0.58395 0.44984 0.0
O2542 O 0.07558 0.63348 0.53253 0.0
O2543 O 0.08205 0.59397 0.55568 0.0
H2544 H 0.08754 0.49078 0.66633 0.0
H2545 H 0.04614 0.5542 0.61153 0.0
H2546 H 1.01298 0.56132 0.65447 0.0
H2547 H 0.0547 0.49821 0.70974 0.0
H2548 H 0.09538 0.64087 0.39416 0.0
H2549 H 0.14384 0.58583 0.45248 0.0
H2550 H 0.17846 0.58229 0.41059 0.0
H2551 H 0.12918 0.63647 0.35155 0.0
Gd2552 Gd 0.81434 0.8293 0.27897 0.0
Gd2553 Gd 0.87184 0.80782 0.27984 0.0
C2554 C 0.85402 0.83576 0.35373 0.0
C2555 C 0.75774 0.83123 0.28115 0.0
C2556 C 0.73076 0.82261 0.29858 0.0
C2557 C 0.71171 0.8452 0.30087 0.0
C2558 C 0.72364 0.79323 0.31304 0.0
C2559 C 0.67865 0.80969 0.33204 0.0
C2560 C 0.69781 0.78681 0.32959 0.0
C2561 C 0.68603 0.83884 0.3172 0.0
C2562 C 0.85853 0.88949 0.27267 0.0
C2563 C 0.83229 0.80182 0.20509 0.0
C2564 C 0.92838 0.80557 0.27775 0.0
C2565 C 0.95612 0.81531 0.26181 0.0
C2566 C 0.97973 0.79949 0.26809 0.0
C2567 C 0.95908 0.83818 0.23946 0.0
C2568 C 1.00874 0.82807 0.22915 0.0
C2569 C 0.98522 0.8446 0.22337 0.0
C2570 C 1.00565 0.8058 0.25213 0.0
C2571 C 0.82766 0.74785 0.2868 0.0
O2572 O 0.82721 0.83443 0.33624 0.0
O2573 O 0.87632 0.82905 0.33732 0.0
O2574 O 0.78169 0.85581 0.29863 0.0
O2575 O 0.76515 0.8059 0.26137 0.0
O2576 O 0.8296 0.88585 0.27336 0.0
O2577 O 0.8633 0.85972 0.27528 0.0
O2578 O 0.85914 0.80337 0.22263 0.0
O2579 O 0.80986 0.80812 0.22147 0.0
O2580 O 0.90444 0.78224 0.25859 0.0
O2581 O 0.92098 0.83003 0.29875 0.0
O2582 O 0.85669 0.75164 0.28673 0.0
O2583 O 0.82299 0.77758 0.28394 0.0
H2584 H 0.71668 0.86797 0.28986 0.0
H2585 H 0.73809 0.77545 0.31174 0.0
H2586 H 0.69317 0.76427 0.34093 0.0
H2587 H 0.67172 0.85671 0.31776 0.0
H2588 H 0.97795 0.78173 0.28517 0.0
H2589 H 0.94103 0.85054 0.23405 0.0
H2590 H 0.98657 0.86171 0.2057 0.0
H2591 H 0.02335 0.79308 0.25789 0.0
Gd2592 Gd 0.86166 0.31642 0.75553 0.0
Gd2593 Gd 0.82564 0.31593 0.79717 0.0
C2594 C 0.86619 0.38789 0.80367 0.0
C2595 C 0.89745 0.3319 0.71255 0.0
C2596 C 0.89308 0.3531 0.68849 0.0
C2597 C 0.91246 0.35808 0.66444 0.0
C2598 C 0.86864 0.36848 0.68983 0.0
C2599 C 0.88274 0.39413 0.64297 0.0
C2600 C 0.86382 0.38938 0.66765 0.0
C2601 C 0.90715 0.37838 0.64145 0.0
C2602 C 0.88911 0.29463 0.80902 0.0
C2603 C 0.821 0.24541 0.74671 0.0
C2604 C 0.78906 0.30097 0.83972 0.0
C2605 C 0.79091 0.27995 0.8645 0.0
C2606 C 0.77276 0.28078 0.8901 0.0
C2607 C 0.81269 0.26071 0.86377 0.0
C2608 C 0.79877 0.24352 0.91493 0.0
C2609 C 0.81643 0.24233 0.8887 0.0
C2610 C 0.77673 0.26263 0.9154 0.0
C2611 C 0.7982 0.3383 0.74427 0.0
O2612 O 0.86351 0.37305 0.77148 0.0
O2613 O 0.8567 0.36796 0.82415 0.0
O2614 O 0.90286 0.34905 0.74424 0.0
O2615 O 0.87635 0.30223 0.70698 0.0
O2616 O 0.88512 0.27975 0.77713 0.0
O2617 O 0.87592 0.31926 0.81201 0.0
O2618 O 0.82413 0.25887 0.77942 0.0
O2619 O 0.82924 0.2665 0.72698 0.0
O2620 O 0.78412 0.28361 0.80814 0.0
O2621 O 0.8113 0.32971 0.8459 0.0
O2622 O 0.80233 0.35291 0.7762 0.0
O2623 O 0.81124 0.31351 0.74098 0.0
H2624 H 0.93123 0.34599 0.66316 0.0
H2625 H 0.85309 0.36417 0.70792 0.0
H2626 H 0.84514 0.40155 0.66971 0.0
H2627 H 0.92169 0.3811 0.62212 0.0
H2628 H 0.7562 0.29606 0.89096 0.0
H2629 H 0.82717 0.26037 0.84426 0.0
H2630 H 0.83321 0.22733 0.88748 0.0
H2631 H 0.76323 0.26439 0.93579 0.0
Gd2632 Gd 0.86462 0.85227 0.80106 0.0
Gd2633 Gd 0.82158 0.78196 0.75943 0.0
C2634 C 0.79148 0.83867 0.79653 0.0
C2635 C 0.8893 0.91824 0.816 0.0
C2636 C 0.87624 0.94072 0.79783 0.0
C2637 C 0.86896 0.96982 0.81632 0.0
C2638 C 0.86207 0.92647 0.76371 0.0
C2639 C 0.83041 0.96657 0.76815 0.0
C2640 C 0.83943 0.93922 0.74895 0.0
C2641 C 0.84624 0.9828 0.80151 0.0
C2642 C 0.85189 0.80956 0.84667 0.0
C2643 C 0.89472 0.79586 0.76367 0.0
C2644 C 0.79591 0.71608 0.74501 0.0
C2645 C 0.80719 0.69309 0.76408 0.0
C2646 C 0.81384 0.66317 0.74639 0.0
C2647 C 0.82047 0.70716 0.7985 0.0
C2648 C 0.85095 0.66578 0.79564 0.0
C2649 C 0.84215 0.69371 0.81418 0.0
C2650 C 0.83552 0.64944 0.76216 0.0
C2651 C 0.83464 0.82444 0.71365 0.0
O2652 O 0.81759 0.862 0.79696 0.0
O2653 O 0.78763 0.80496 0.78456 0.0
O2654 O 0.87048 0.90304 0.83417 0.0
O2655 O 0.90185 0.89652 0.79791 0.0
O2656 O 0.87248 0.83952 0.85332 0.0
O2657 O 0.84228 0.8018 0.81448 0.0
O2658 O 0.86868 0.77246 0.76344 0.0
O2659 O 0.89865 0.82956 0.7758 0.0
O2660 O 0.81605 0.73057 0.72773 0.0
O2661 O 0.78335 0.73853 0.76199 0.0
O2662 O 0.81414 0.79439 0.70701 0.0
O2663 O 0.84412 0.8323 0.74589 0.0
H2664 H 0.87894 0.9806 0.84296 0.0
H2665 H 0.86618 0.90312 0.74947 0.0
H2666 H 0.82754 0.92594 0.72337 0.0
H2667 H 0.84014 1.00453 0.81666 0.0
H2668 H 0.8044 0.65238 0.71961 0.0
H2669 H 0.81653 0.73088 0.81228 0.0
H2670 H 0.85372 0.70703 0.83987 0.0
H2671 H 0.84141 0.62726 0.74754 0.0
Gd2672 Gd 0.57114 0.54854 0.51091 0.0
Gd2673 Gd 0.6149 0.58761 0.54829 0.0
C2674 C 0.57657 0.63036 0.51335 0.0
C2675 C 0.51473 0.52012 0.48108 0.0
C2676 C 0.48779 0.52946 0.49287 0.0
C2677 C 0.46087 0.52446 0.46993 0.0
C2678 C 0.49062 0.54789 0.52672 0.0
C2679 C 0.44052 0.55794 0.51426 0.0
C2680 C 0.46727 0.56199 0.53733 0.0
C2681 C 0.4373 0.53846 0.48059 0.0
C2682 C 0.6173 0.55053 0.46765 0.0
C2683 C 0.60902 0.50547 0.54582 0.0
C2684 C 0.67149 0.61655 0.57747 0.0
C2685 C 0.69869 0.60892 0.56469 0.0
C2686 C 0.72639 0.61547 0.58683 0.0
C2687 C 0.69568 0.59087 0.53066 0.0
C2688 C 0.74711 0.5838 0.54151 0.0
C2689 C 0.71961 0.57843 0.51916 0.0
C2690 C 0.75052 0.60317 0.57528 0.0
C2691 C 0.56884 0.58587 0.59172 0.0
O2692 O 0.55679 0.59965 0.51022 0.0
O2693 O 0.6049 0.63271 0.52647 0.0
O2694 O 0.53333 0.54503 0.47143 0.0
O2695 O 0.52943 0.5055 0.50085 0.0
O2696 O 0.59714 0.52308 0.47129 0.0
O2697 O 0.61346 0.57633 0.48973 0.0
O2698 O 0.62892 0.5362 0.54915 0.0
O2699 O 0.58078 0.50323 0.53252 0.0
O2700 O 0.65364 0.59046 0.58631 0.0
O2701 O 0.65598 0.63152 0.55894 0.0
O2702 O 0.58928 0.61317 0.58827 0.0
O2703 O 0.57256 0.56002 0.56956 0.0
H2704 H 0.45848 0.51072 0.44361 0.0
H2705 H 0.51147 0.5526 0.54468 0.0
H2706 H 0.47081 0.57734 0.56322 0.0
H2707 H 0.41679 0.53457 0.46231 0.0
H2708 H 0.729 0.62904 0.61324 0.0
H2709 H 0.6743 0.58512 0.5133 0.0
H2710 H 0.71591 0.56315 0.49322 0.0
H2711 H 0.77157 0.6081 0.59304 0.0
Gd2712 Gd 0.12857 0.57091 0.0277 0.0
Gd2713 Gd 0.05896 0.5639 0.03405 0.0
C2714 C 0.07866 0.49169 0.01472 0.0
C2715 C 0.18535 0.56835 0.03467 0.0
C2716 C 0.20593 0.54503 0.03562 0.0
C2717 C 0.22891 0.54743 0.01505 0.0
C2718 C 0.20527 0.52328 0.059 0.0
C2719 C 0.25134 0.50834 0.04229 0.0
C2720 C 0.22781 0.50524 0.06238 0.0
C2721 C 0.25126 0.5293 0.01825 0.0
C2722 C 0.09148 0.57314 0.97279 0.0
C2723 C 0.10864 0.64297 0.04597 0.0
C2724 C 1.00208 0.56612 0.02789 0.0
C2725 C 0.9809 0.58868 0.02647 0.0
C2726 C 0.9572 0.58481 0.04602 0.0
C2727 C 0.98182 0.61118 1.00379 0.0
C2728 C 0.93463 0.62411 0.01929 0.0
C2729 C 0.95886 0.62865 1.00018 0.0
C2730 C 0.9344 0.60226 0.04253 0.0
C2731 C 0.09631 0.56217 0.08913 0.0
O2732 O 0.10789 0.51134 0.02158 0.0
O2733 O 0.05539 0.50624 0.01495 0.0
O2734 O 0.16934 0.567 1.00522 0.0
O2735 O 0.17039 0.57327 0.0602 0.0
O2736 O 0.11998 0.59195 0.98067 0.0
O2737 O 0.08508 0.55355 0.99301 0.0
O2738 O 0.07945 0.62321 0.03841 0.0
O2739 O 0.13197 0.62852 0.04701 0.0
O2740 O 1.01881 0.56889 0.05731 0.0
O2741 O 1.01647 0.56035 1.002 0.0
O2742 O 0.06787 0.54322 0.08139 0.0
O2743 O 0.10246 0.58151 0.06868 0.0
H2744 H 0.23017 0.56429 0.99711 0.0
H2745 H 0.18793 0.52099 0.0754 0.0
H2746 H 0.22695 0.4891 0.08093 0.0
H2747 H 0.26914 0.53268 1.0026 0.0
H2748 H 0.95576 0.56735 0.06339 0.0
H2749 H 0.99975 0.61454 0.98819 0.0
H2750 H 0.95999 0.64552 0.98229 0.0
H2751 H 0.916 0.5977 0.05737 0.0
loop_
_geom_bond_atom_site_label_1
_geom_bond_atom_site_label_2
_geom_bond_distance
_geom_bond_site_symmetry_2
_ccdc_geom_bond_type
Li0 N17 1.990 . S
Li0 O60 1.956 . S
Li0 O61 1.970 . S
Li0 O62 1.961 . S
Li1 N25 1.990 . S
Li1 O60 1.970 . S
Li1 O61 1.956 . S
Li1 O63 1.961 . S
Li2 N47 1.990 . S
Li2 O60 1.961 . S
Li2 O62 1.956 . S
Li2 O63 1.970 . S
Li3 N53 1.990 . S
Li3 O61 1.961 . S
Li3 O62 1.970 . S
Li3 O63 1.956 . S
C4 C6 1.348 . S
C4 C7 1.356 . S
C4 O60 1.325 . S
N5 C8 1.314 . S
N5 C9 1.279 . S
C6 C4 1.348 . S
C6 C8 1.353 . S
C6 H64 0.929 . S
C7 C4 1.356 . S
C7 C9 1.358 . S
C7 H65 0.930 . S
C8 N5 1.314 . S
C8 C6 1.353 . S
C8 H66 0.930 . S
C9 N5 1.279 . S
C9 C7 1.358 . S
C9 H67 0.930 . S
C10 C13 1.348 . S
C10 C14 1.356 . S
C10 O61 1.325 . S
C11 N12 1.279 . S
C11 C14 1.358 . S
C11 H68 0.930 . S
N12 C11 1.279 . S
N12 C15 1.314 . S
C13 C10 1.348 . S
C13 C15 1.353 . S
C13 H69 0.929 . S
C14 C10 1.356 . S
C14 C11 1.358 . S
C14 H70 0.930 . S
C15 N12 1.314 . S
C15 C13 1.353 . S
C15 H71 0.930 . S
C16 N17 1.314 . S
C16 C21 1.353 . S
C16 H22 0.930 . S
N17 Li0 1.990 . S
N17 C16 1.314 . S
N17 C19 1.279 . S
C18 C19 1.358 . S
C18 C20 1.356 . S
C18 H72 0.930 . S
C19 N17 1.279 . S
C19 C18 1.358 . S
C19 H23 0.930 . S
C20 C18 1.356 . S
C20 C21 1.348 . S
C21 C16 1.353 . S
C21 C20 1.348 . S
C21 H73 0.929 . S
H22 C16 0.930 . S
H23 C19 0.930 . S
C24 N25 1.314 . S
C24 C26 1.353 . S
C24 H30 0.930 . S
N25 Li1 1.990 . S
N25 C24 1.314 . S
N25 C28 1.279 . S
C26 C24 1.353 . S
C26 C29 1.348 . S
C26 H74 0.929 . S
C27 C28 1.358 . S
C27 C29 1.356 . S
C27 H75 0.930 . S
C28 N25 1.279 . S
C28 C27 1.358 . S
C28 H31 0.930 . S
C29 C26 1.348 . S
C29 C27 1.356 . S
H30 C24 0.930 . S
H31 C28 0.930 . S
C32 C34 1.348 . S
C32 C35 1.356 . S
C32 O62 1.325 . S
N33 C36 1.314 . S
N33 C37 1.279 . S
C34 C32 1.348 . S
C34 C36 1.353 . S
C34 H76 0.929 . S
C35 C32 1.356 . S
C35 C37 1.358 . S
C35 H77 0.930 . S
C36 N33 1.314 . S
C36 C34 1.353 . S
C36 H78 0.930 . S
C37 N33 1.279 . S
C37 C35 1.358 . S
C37 H79 0.930 . S
C38 C39 1.348 . S
C38 C40 1.356 . S
C38 O63 1.325 . S
C39 C38 1.348 . S
C39 C41 1.353 . S
C39 H80 0.929 . S
C40 C38 1.356 . S
C40 C42 1.358 . S
C40 H81 0.930 . S
C41 C39 1.353 . S
C41 N43 1.314 . S
C41 H82 0.930 . S
C42 C40 1.358 . S
C42 N43 1.279 . S
C42 H83 0.930 . S
N43 C41 1.314 . S
N43 C42 1.279 . S
C44 C46 1.353 . S
C44 N47 1.314 . S
C44 H50 0.930 . S
C45 N47 1.279 . S
C45 C48 1.358 . S
C45 H51 0.930 . S
C46 C44 1.353 . S
C46 C49 1.348 . S
C46 H84 0.929 . S
N47 Li2 1.990 . S
N47 C44 1.314 . S
N47 C45 1.279 . S
C48 C45 1.358 . S
C48 C49 1.356 . S
C48 H85 0.930 . S
C49 C46 1.348 . S
C49 C48 1.356 . S
H50 C44 0.930 . S
H51 C45 0.930 . S
C52 N53 1.314 . S
C52 C54 1.353 . S
C52 H58 0.930 . S
N53 Li3 1.990 . S
N53 C52 1.314 . S
N53 C56 1.279 . S
C54 C52 1.353 . S
C54 C57 1.348 . S
C54 H86 0.929 . S
C55 C56 1.358 . S
C55 C57 1.356 . S
C55 H87 0.930 . S
C56 N53 1.279 . S
C56 C55 1.358 . S
C56 H59 0.930 . S
C57 C54 1.348 . S
C57 C55 1.356 . S
H58 C52 0.930 . S
H59 C56 0.930 . S
O60 Li0 1.956 . S
O60 Li1 1.970 . S
O60 Li2 1.961 . S
O60 C4 1.325 . S
O61 Li0 1.970 . S
O61 Li1 1.956 . S
O61 Li3 1.961 . S
O61 C10 1.325 . S
O62 Li0 1.961 . S
O62 Li2 1.956 . S
O62 Li3 1.970 . S
O62 C32 1.325 . S
O63 Li1 1.961 . S
O63 Li2 1.970 . S
O63 Li3 1.956 . S
O63 C38 1.325 . S
H64 C6 0.929 . S
H65 C7 0.930 . S
H66 C8 0.930 . S
H67 C9 0.930 . S
H68 C11 0.930 . S
H69 C13 0.929 . S
H70 C14 0.930 . S
H71 C15 0.930 . S
H72 C18 0.930 . S
H73 C21 0.929 . S
H74 C26 0.929 . S
H75 C27 0.930 . S
H76 C34 0.929 . S
H77 C35 0.930 . S
H78 C36 0.930 . S
H79 C37 0.930 . S
H80 C39 0.929 . S
H81 C40 0.930 . S
H82 C41 0.930 . S
H83 C42 0.930 . S
H84 C46 0.929 . S
H85 C48 0.930 . S
H86 C54 0.929 . S
H87 C55 0.930 . S
Li88 N105 1.990 . S
Li88 O148 1.956 . S
Li88 O149 1.970 . S
Li88 O150 1.961 1_455 S
Li89 N113 1.990 . S
Li89 O148 1.970 . S
Li89 O149 1.956 . S
Li89 O151 1.945 1_455 S
Li90 N135 1.990 . S
Li90 O148 1.961 1_655 S
Li90 O150 1.956 . S
Li90 O151 1.970 . S
Li91 N141 1.990 . S
Li91 O149 1.961 1_655 S
Li91 O150 1.970 . S
Li91 O151 1.979 . S
C92 C94 1.348 . S
C92 C95 1.356 . S
C92 O148 1.325 . S
N93 C96 1.314 . S
N93 C97 1.279 . S
C94 C92 1.348 . S
C94 C96 1.353 . S
C94 H152 0.929 . S
C95 C92 1.356 . S
C95 C97 1.358 . S
C95 H153 0.930 . S
C96 N93 1.314 . S
C96 C94 1.353 . S
C96 H154 0.930 . S
C97 N93 1.279 . S
C97 C95 1.358 . S
C97 H155 0.930 . S
C98 C101 1.348 . S
C98 C102 1.356 . S
C98 O149 1.325 . S
C99 N100 1.279 . S
C99 C102 1.358 . S
C99 H156 0.930 . S
N100 C99 1.279 . S
N100 C103 1.314 . S
C101 C98 1.348 . S
C101 C103 1.353 . S
C101 H157 0.929 . S
C102 C98 1.356 . S
C102 C99 1.358 . S
C102 H158 0.930 . S
C103 N100 1.314 . S
C103 C101 1.353 . S
C103 H159 0.930 . S
C104 N105 1.314 1_655 S
C104 C109 1.353 . S
C104 H110 0.930 . S
N105 Li88 1.990 . S
N105 C104 1.314 1_455 S
N105 C107 1.279 . S
C106 C107 1.358 . S
C106 C108 1.356 . S
C106 H160 0.930 . S
C107 N105 1.279 . S
C107 C106 1.358 . S
C107 H111 0.930 . S
C108 C106 1.356 . S
C108 C109 1.348 1_455 S
C109 C104 1.353 . S
C109 C108 1.348 1_655 S
C109 H161 0.929 . S
H110 C104 0.930 . S
H111 C107 0.930 . S
C112 N113 1.314 . S
C112 C114 1.353 . S
C112 H118 0.930 . S
N113 Li89 1.990 . S
N113 C112 1.314 . S
N113 C116 1.279 . S
C114 C112 1.353 . S
C114 C117 1.348 . S
C114 H162 0.929 . S
C115 C116 1.358 . S
C115 C117 1.356 . S
C115 H163 0.930 . S
C116 N113 1.279 . S
C116 C115 1.358 . S
C116 H119 0.930 . S
C117 C114 1.348 . S
C117 C115 1.356 . S
H118 C112 0.930 . S
H119 C116 0.930 . S
C120 C122 1.348 . S
C120 C123 1.356 . S
C120 O150 1.325 . S
N121 C124 1.314 . S
N121 C125 1.279 . S
C122 C120 1.348 . S
C122 C124 1.353 . S
C122 H164 0.929 . S
C123 C120 1.356 . S
C123 C125 1.358 . S
C123 H165 0.930 . S
C124 N121 1.314 . S
C124 C122 1.353 . S
C124 H166 0.930 . S
C125 N121 1.279 . S
C125 C123 1.358 . S
C125 H167 0.930 . S
C126 C127 1.348 . S
C126 C128 1.356 1_655 S
C126 O151 1.323 . S
C127 C126 1.348 . S
C127 C129 1.353 . S
C127 H168 0.929 . S
C128 C126 1.356 1_455 S
C128 C130 1.358 . S
C128 H169 0.930 . S
C129 C127 1.353 . S
C129 N131 1.314 . S
C129 H170 0.930 . S
C130 C128 1.358 . S
C130 N131 1.279 1_455 S
C130 H171 0.930 . S
N131 C129 1.314 . S
N131 C130 1.279 1_655 S
C132 C134 1.353 . S
C132 N135 1.314 1_455 S
C132 H138 0.930 . S
C133 N135 1.279 . S
C133 C136 1.358 . S
C133 H139 0.930 . S
C134 C132 1.353 . S
C134 C137 1.348 1_455 S
C134 H172 0.929 . S
N135 Li90 1.990 . S
N135 C132 1.314 1_655 S
N135 C133 1.279 . S
C136 C133 1.358 . S
C136 C137 1.356 . S
C136 H173 0.930 . S
C137 C134 1.348 1_655 S
C137 C136 1.356 . S
H138 C132 0.930 . S
H139 C133 0.930 . S
C140 N141 1.314 . S
C140 C142 1.353 . S
C140 H146 0.930 . S
N141 Li91 1.990 . S
N141 C140 1.314 . S
N141 C144 1.279 . S
C142 C140 1.353 . S
C142 C145 1.348 . S
C142 H174 0.929 . S
C143 C144 1.358 . S
C143 C145 1.356 . S
C143 H175 0.930 . S
C144 N141 1.279 . S
C144 C143 1.358 . S
C144 H147 0.930 . S
C145 C142 1.348 . S
C145 C143 1.356 . S
H146 C140 0.930 . S
H147 C144 0.930 . S
O148 Li88 1.956 . S
O148 Li89 1.970 . S
O148 Li90 1.961 1_455 S
O148 C92 1.325 . S
O149 Li88 1.970 . S
O149 Li89 1.956 . S
O149 Li91 1.961 1_455 S
O149 C98 1.325 . S
O150 Li88 1.961 1_655 S
O150 Li90 1.956 . S
O150 Li91 1.970 . S
O150 C120 1.325 . S
O151 Li89 1.945 1_655 S
O151 Li90 1.970 . S
O151 Li91 1.979 . S
O151 C126 1.323 . S
H152 C94 0.929 . S
H153 C95 0.930 . S
H154 C96 0.930 . S
H155 C97 0.930 . S
H156 C99 0.930 . S
H157 C101 0.929 . S
H158 C102 0.930 . S
H159 C103 0.930 . S
H160 C106 0.930 . S
H161 C109 0.929 . S
H162 C114 0.929 . S
H163 C115 0.930 . S
H164 C122 0.929 . S
H165 C123 0.930 . S
H166 C124 0.930 . S
H167 C125 0.930 . S
H168 C127 0.929 . S
H169 C128 0.930 . S
H170 C129 0.930 . S
H171 C130 0.930 . S
H172 C134 0.929 . S
H173 C136 0.930 . S
H174 C142 0.929 . S
H175 C143 0.930 . S
Li176 N193 1.990 . S
Li176 O236 1.956 . S
Li176 O237 1.970 . S
Li176 O238 1.961 . S
Li177 N201 1.990 . S
Li177 O236 1.970 . S
Li177 O237 1.956 . S
Li177 O239 1.961 . S
Li178 N223 1.990 . S
Li178 O236 1.961 . S
Li178 O238 1.956 . S
Li178 O239 1.970 . S
Li179 N229 1.990 . S
Li179 O237 1.961 . S
Li179 O238 1.970 . S
Li179 O239 1.956 . S
C180 C182 1.348 . S
C180 C183 1.356 . S
C180 O236 1.325 . S
N181 C184 1.314 . S
N181 C185 1.279 . S
C182 C180 1.348 . S
C182 C184 1.353 . S
C182 H240 0.929 . S
C183 C180 1.356 . S
C183 C185 1.358 . S
C183 H241 0.930 . S
C184 N181 1.314 . S
C184 C182 1.353 . S
C184 H242 0.931 1_565 S
C185 N181 1.279 . S
C185 C183 1.358 . S
C185 H243 0.930 . S
C186 C189 1.348 . S
C186 C190 1.356 . S
C186 O237 1.325 . S
C187 N188 1.279 . S
C187 C190 1.358 . S
C187 H244 0.930 1_556 S
N188 C187 1.279 . S
N188 C191 1.314 . S
C189 C186 1.348 . S
C189 C191 1.353 . S
C189 H245 0.929 . S
C190 C186 1.356 . S
C190 C187 1.358 . S
C190 H246 0.930 . S
C191 N188 1.314 . S
C191 C189 1.353 . S
C191 H247 0.930 . S
C192 N193 1.314 . S
C192 C197 1.353 . S
C192 H198 0.930 . S
N193 Li176 1.990 . S
N193 C192 1.314 . S
N193 C195 1.279 . S
C194 C195 1.358 . S
C194 C196 1.356 . S
C194 H248 0.930 . S
C195 N193 1.279 . S
C195 C194 1.358 . S
C195 H199 0.930 . S
C196 C194 1.356 . S
C196 C197 1.348 . S
C197 C192 1.353 . S
C197 C196 1.348 . S
C197 H249 0.929 . S
H198 C192 0.930 . S
H199 C195 0.930 . S
C200 N201 1.314 . S
C200 C202 1.353 1_565 S
C200 H206 0.930 . S
N201 Li177 1.990 . S
N201 C200 1.314 . S
N201 C204 1.279 . S
C202 C200 1.353 1_545 S
C202 C205 1.348 . S
C202 H250 0.929 . S
C203 C204 1.358 . S
C203 C205 1.356 1_565 S
C203 H251 0.930 . S
C204 N201 1.279 . S
C204 C203 1.358 . S
C204 H207 0.930 . S
C205 C202 1.348 . S
C205 C203 1.356 1_545 S
H206 C200 0.930 . S
H207 C204 0.930 . S
C208 C210 1.348 . S
C208 C211 1.356 . S
C208 O238 1.325 . S
N209 C212 1.314 . S
N209 C213 1.279 . S
C210 C208 1.348 . S
C210 C212 1.353 . S
C210 H252 0.929 . S
C211 C208 1.356 . S
C211 C213 1.358 . S
C211 H253 0.930 . S
C212 N209 1.314 . S
C212 C210 1.353 . S
C212 H254 0.930 . S
C213 N209 1.279 . S
C213 C211 1.358 . S
C213 H255 0.930 . S
C214 C215 1.348 . S
C214 C216 1.356 . S
C214 O239 1.325 . S
C215 C214 1.348 . S
C215 C217 1.353 . S
C215 H256 0.929 . S
C216 C214 1.356 . S
C216 C218 1.358 . S
C216 H257 0.930 . S
C217 C215 1.353 . S
C217 N219 1.314 . S
C217 H258 0.930 . S
C218 C216 1.358 . S
C218 N219 1.279 . S
C218 H259 0.930 1_556 S
N219 C217 1.314 . S
N219 C218 1.279 . S
C220 C222 1.353 . S
C220 N223 1.314 . S
C220 H226 0.930 . S
C221 N223 1.279 . S
C221 C224 1.358 . S
C221 H227 0.930 . S
C222 C220 1.353 . S
C222 C225 1.348 . S
C222 H260 0.929 . S
N223 Li178 1.990 . S
N223 C220 1.314 . S
N223 C221 1.279 . S
C224 C221 1.358 . S
C224 C225 1.356 . S
C224 H261 0.930 . S
C225 C222 1.348 . S
C225 C224 1.356 . S
H226 C220 0.930 . S
H227 C221 0.930 . S
C228 N229 1.314 . S
C228 C230 1.353 . S
C228 H234 0.930 . S
N229 Li179 1.990 . S
N229 C228 1.314 . S
N229 C232 1.279 . S
C230 C228 1.353 . S
C230 C233 1.348 . S
C230 H262 0.929 . S
C231 C232 1.358 . S
C231 C233 1.356 . S
C231 H263 0.930 . S
C232 N229 1.279 . S
C232 C231 1.358 . S
C232 H235 0.930 . S
C233 C230 1.348 . S
C233 C231 1.356 . S
H234 C228 0.930 . S
H235 C232 0.930 . S
O236 Li176 1.956 . S
O236 Li177 1.970 . S
O236 Li178 1.961 . S
O236 C180 1.325 . S
O237 Li176 1.970 . S
O237 Li177 1.956 . S
O237 Li179 1.961 . S
O237 C186 1.325 . S
O238 Li176 1.961 . S
O238 Li178 1.956 . S
O238 Li179 1.970 . S
O238 C208 1.325 . S
O239 Li177 1.961 . S
O239 Li178 1.970 . S
O239 Li179 1.956 . S
O239 C214 1.325 . S
H240 C182 0.929 . S
H241 C183 0.930 . S
H242 C184 0.931 1_545 S
H243 C185 0.930 . S
H244 C187 0.930 1_554 S
H245 C189 0.929 . S
H246 C190 0.930 . S
H247 C191 0.930 . S
H248 C194 0.930 . S
H249 C197 0.929 . S
H250 C202 0.929 . S
H251 C203 0.930 . S
H252 C210 0.929 . S
H253 C211 0.930 . S
H254 C212 0.930 . S
H255 C213 0.930 . S
H256 C215 0.929 . S
H257 C216 0.930 . S
H258 C217 0.930 . S
H259 C218 0.930 1_554 S
H260 C222 0.929 . S
H261 C224 0.930 . S
H262 C230 0.929 . S
H263 C231 0.930 . S
Li264 N281 1.990 . S
Li264 O324 1.956 . S
Li264 O325 1.970 . S
Li264 O326 1.961 . S
Li265 N289 1.990 . S
Li265 O324 1.970 . S
Li265 O325 1.956 . S
Li265 O327 1.961 . S
Li266 N311 1.990 . S
Li266 O324 1.961 . S
Li266 O326 1.956 . S
Li266 O327 1.970 . S
Li267 N317 1.990 . S
Li267 O325 1.961 . S
Li267 O326 1.970 . S
Li267 O327 1.956 . S
C268 C270 1.348 . S
C268 C271 1.356 . S
C268 O324 1.325 . S
N269 C272 1.314 . S
N269 C273 1.279 . S
C270 C268 1.348 . S
C270 C272 1.353 . S
C270 H328 0.929 . S
C271 C268 1.356 . S
C271 C273 1.358 . S
C271 H329 0.930 . S
C272 N269 1.314 . S
C272 C270 1.353 . S
C272 H330 0.930 . S
C273 N269 1.279 . S
C273 C271 1.358 . S
C273 H331 0.930 . S
C274 C277 1.348 . S
C274 C278 1.356 . S
C274 O325 1.325 . S
C275 N276 1.279 . S
C275 C278 1.358 . S
C275 H332 0.930 . S
N276 C275 1.279 . S
N276 C279 1.314 . S
C277 C274 1.348 . S
C277 C279 1.353 . S
C277 H333 0.929 . S
C278 C274 1.356 . S
C278 C275 1.358 . S
C278 H334 0.930 . S
C279 N276 1.314 . S
C279 C277 1.353 . S
C279 H335 0.930 . S
C280 N281 1.314 . S
C280 C285 1.353 . S
C280 H286 0.930 . S
N281 Li264 1.990 . S
N281 C280 1.314 . S
N281 C283 1.279 . S
C282 C283 1.358 . S
C282 C284 1.356 . S
C282 H336 0.930 . S
C283 N281 1.279 . S
C283 C282 1.358 . S
C283 H287 0.930 . S
C284 C282 1.356 . S
C284 C285 1.348 . S
C285 C280 1.353 . S
C285 C284 1.348 . S
C285 H337 0.929 . S
H286 C280 0.930 . S
H287 C283 0.930 . S
C288 N289 1.314 . S
C288 C290 1.353 . S
C288 H294 0.930 . S
N289 Li265 1.990 . S
N289 C288 1.314 . S
N289 C292 1.279 . S
C290 C288 1.353 . S
C290 C293 1.348 . S
C290 H338 0.929 . S
C291 C292 1.358 . S
C291 C293 1.356 . S
C291 H339 0.930 . S
C292 N289 1.279 . S
C292 C291 1.358 . S
C292 H295 0.930 . S
C293 C290 1.348 . S
C293 C291 1.356 . S
H294 C288 0.930 . S
H295 C292 0.930 . S
C296 C298 1.348 . S
C296 C299 1.356 . S
C296 O326 1.325 . S
N297 C300 1.314 . S
N297 C301 1.279 . S
C298 C296 1.348 . S
C298 C300 1.353 . S
C298 H340 0.929 . S
C299 C296 1.356 . S
C299 C301 1.358 . S
C299 H341 0.930 . S
C300 N297 1.314 . S
C300 C298 1.353 . S
C300 H342 0.930 . S
C301 N297 1.279 . S
C301 C299 1.358 . S
C301 H343 0.930 . S
C302 C303 1.348 . S
C302 C304 1.356 . S
C302 O327 1.325 . S
C303 C302 1.348 . S
C303 C305 1.353 . S
C303 H344 0.929 . S
C304 C302 1.356 . S
C304 C306 1.358 . S
C304 H345 0.930 . S
C305 C303 1.353 . S
C305 N307 1.314 . S
C305 H346 0.930 . S
C306 C304 1.358 . S
C306 N307 1.279 . S
C306 H347 0.930 . S
N307 C305 1.314 . S
N307 C306 1.279 . S
C308 C310 1.353 . S
C308 N311 1.314 . S
C308 H314 0.930 . S
C309 N311 1.279 . S
C309 C312 1.358 . S
C309 H315 0.930 . S
C310 C308 1.353 . S
C310 C313 1.348 . S
C310 H348 0.929 . S
N311 Li266 1.990 . S
N311 C308 1.314 . S
N311 C309 1.279 . S
C312 C309 1.358 . S
C312 C313 1.356 . S
C312 H349 0.930 . S
C313 C310 1.348 . S
C313 C312 1.356 . S
H314 C308 0.930 . S
H315 C309 0.930 . S
C316 N317 1.314 . S
C316 C318 1.353 . S
C316 H322 0.930 . S
N317 Li267 1.990 . S
N317 C316 1.314 . S
N317 C320 1.279 . S
C318 C316 1.353 . S
C318 C321 1.348 . S
C318 H350 0.929 . S
C319 C320 1.358 . S
C319 C321 1.356 . S
C319 H351 0.930 . S
C320 N317 1.279 . S
C320 C319 1.358 . S
C320 H323 0.930 . S
C321 C318 1.348 . S
C321 C319 1.356 . S
H322 C316 0.930 . S
H323 C320 0.930 . S
O324 Li264 1.956 . S
O324 Li265 1.970 . S
O324 Li266 1.961 . S
O324 C268 1.325 . S
O325 Li264 1.970 . S
O325 Li265 1.956 . S
O325 Li267 1.961 . S
O325 C274 1.325 . S
O326 Li264 1.961 . S
O326 Li266 1.956 . S
O326 Li267 1.970 . S
O326 C296 1.325 . S
O327 Li265 1.961 . S
O327 Li266 1.970 . S
O327 Li267 1.956 . S
O327 C302 1.325 . S
H328 C270 0.929 . S
H329 C271 0.930 . S
H330 C272 0.930 . S
H331 C273 0.930 . S
H332 C275 0.930 . S
H333 C277 0.929 . S
H334 C278 0.930 . S
H335 C279 0.930 . S
H336 C282 0.930 . S
H337 C285 0.929 . S
H338 C290 0.929 . S
H339 C291 0.930 . S
H340 C298 0.929 . S
H341 C299 0.930 . S
H342 C300 0.930 . S
H343 C301 0.930 . S
H344 C303 0.929 . S
H345 C304 0.930 . S
H346 C305 0.930 . S
H347 C306 0.930 . S
H348 C310 0.929 . S
H349 C312 0.930 . S
H350 C318 0.929 . S
H351 C319 0.930 . S
Li352 N369 1.990 . S
Li352 O412 1.956 . S
Li352 O413 1.970 . S
Li352 O414 1.961 . S
Li353 N377 1.990 . S
Li353 O412 1.970 . S
Li353 O413 1.956 . S
Li353 O415 1.961 . S
Li354 N399 1.990 . S
Li354 O412 1.961 . S
Li354 O414 1.956 . S
Li354 O415 1.970 . S
Li355 N405 1.990 . S
Li355 O413 1.961 . S
Li355 O414 1.970 . S
Li355 O415 1.956 . S
C356 C358 1.348 . S
C356 C359 1.356 . S
C356 O412 1.325 . S
N357 C360 1.314 . S
N357 C361 1.279 . S
C358 C356 1.348 . S
C358 C360 1.353 . S
C358 H416 0.929 . S
C359 C356 1.356 . S
C359 C361 1.358 . S
C359 H417 0.930 . S
C360 N357 1.314 . S
C360 C358 1.353 . S
C360 H418 0.930 . S
C361 N357 1.279 . S
C361 C359 1.358 . S
C361 H419 0.930 1_554 S
C362 C365 1.348 . S
C362 C366 1.356 . S
C362 O413 1.325 . S
C363 N364 1.279 . S
C363 C366 1.358 . S
C363 H420 0.930 . S
N364 C363 1.279 . S
N364 C367 1.314 . S
C365 C362 1.348 . S
C365 C367 1.353 . S
C365 H421 0.929 . S
C366 C362 1.356 . S
C366 C363 1.358 . S
C366 H422 0.930 . S
C367 N364 1.314 . S
C367 C365 1.353 . S
C367 H423 0.930 . S
C368 N369 1.314 . S
C368 C373 1.353 . S
C368 H374 0.930 . S
N369 Li352 1.990 . S
N369 C368 1.314 . S
N369 C371 1.279 . S
C370 C371 1.358 . S
C370 C372 1.356 . S
C370 H424 0.930 . S
C371 N369 1.279 . S
C371 C370 1.358 . S
C371 H375 0.930 . S
C372 C370 1.356 . S
C372 C373 1.348 . S
C373 C368 1.353 . S
C373 C372 1.348 . S
C373 H425 0.929 . S
H374 C368 0.930 . S
H375 C371 0.930 . S
C376 N377 1.314 . S
C376 C378 1.353 . S
C376 H382 0.930 . S
N377 Li353 1.990 . S
N377 C376 1.314 . S
N377 C380 1.279 . S
C378 C376 1.353 . S
C378 C381 1.348 . S
C378 H426 0.929 . S
C379 C380 1.358 . S
C379 C381 1.356 . S
C379 H427 0.930 . S
C380 N377 1.279 . S
C380 C379 1.358 . S
C380 H383 0.930 . S
C381 C378 1.348 . S
C381 C379 1.356 . S
H382 C376 0.930 . S
H383 C380 0.930 . S
C384 C386 1.348 . S
C384 C387 1.356 . S
C384 O414 1.325 . S
N385 C388 1.318 1_655 S
N385 C389 1.246 1_654 S
C386 C384 1.348 . S
C386 C388 1.369 . S
C386 H428 0.929 . S
C387 C384 1.356 . S
C387 C389 1.358 1_554 S
C387 H429 0.930 . S
C388 N385 1.318 1_455 S
C388 C386 1.369 . S
C388 H430 0.911 1_455 S
C389 N385 1.246 1_456 S
C389 C387 1.358 1_556 S
C389 H431 0.930 . S
C390 C391 1.348 . S
C390 C392 1.356 . S
C390 O415 1.325 . S
C391 C390 1.348 . S
C391 C393 1.353 . S
C391 H432 0.929 . S
C392 C390 1.356 . S
C392 C394 1.358 . S
C392 H433 0.930 . S
C393 C391 1.353 . S
C393 N395 1.314 . S
C393 H434 0.930 . S
C394 C392 1.358 . S
C394 N395 1.279 . S
C394 H435 0.930 . S
N395 C393 1.314 . S
N395 C394 1.279 . S
C396 C398 1.353 . S
C396 N399 1.314 . S
C396 H402 0.930 . S
C397 N399 1.279 . S
C397 C400 1.358 1_554 S
C397 H403 0.930 . S
C398 C396 1.353 . S
C398 C401 1.348 1_554 S
C398 H436 0.929 . S
N399 Li354 1.990 . S
N399 C396 1.314 . S
N399 C397 1.279 . S
C400 C397 1.358 1_556 S
C400 C401 1.356 . S
C400 H437 0.930 . S
C401 C398 1.348 1_556 S
C401 C400 1.356 . S
H402 C396 0.930 . S
H403 C397 0.930 . S
C404 N405 1.314 . S
C404 C406 1.353 . S
C404 H410 0.930 . S
N405 Li355 1.990 . S
N405 C404 1.314 . S
N405 C408 1.279 . S
C406 C404 1.353 . S
C406 C409 1.348 . S
C406 H438 0.929 . S
C407 C408 1.358 . S
C407 C409 1.356 . S
C407 H439 0.930 . S
C408 N405 1.279 . S
C408 C407 1.358 . S
C408 H411 0.930 . S
C409 C406 1.348 . S
C409 C407 1.356 . S
H410 C404 0.930 . S
H411 C408 0.930 . S
O412 Li352 1.956 . S
O412 Li353 1.970 . S
O412 Li354 1.961 . S
O412 C356 1.325 . S
O413 Li352 1.970 . S
O413 Li353 1.956 . S
O413 Li355 1.961 . S
O413 C362 1.325 . S
O414 Li352 1.961 . S
O414 Li354 1.956 . S
O414 Li355 1.970 . S
O414 C384 1.325 . S
O415 Li353 1.961 . S
O415 Li354 1.970 . S
O415 Li355 1.956 . S
O415 C390 1.325 . S
H416 C358 0.929 . S
H417 C359 0.930 . S
H418 C360 0.930 . S
H419 C361 0.930 1_556 S
H420 C363 0.930 . S
H421 C365 0.929 . S
H422 C366 0.930 . S
H423 C367 0.930 . S
H424 C370 0.930 . S
H425 C373 0.929 . S
H426 C378 0.929 . S
H427 C379 0.930 . S
H428 C386 0.929 . S
H429 C387 0.930 . S
H430 C388 0.911 1_655 S
H431 C389 0.930 . S
H432 C391 0.929 . S
H433 C392 0.930 . S
H434 C393 0.930 . S
H435 C394 0.930 . S
H436 C398 0.929 . S
H437 C400 0.930 . S
H438 C406 0.929 . S
H439 C407 0.930 . S
Li440 N457 1.990 . S
Li440 O500 1.956 . S
Li440 O501 1.970 . S
Li440 O502 1.961 . S
Li441 N465 1.990 . S
Li441 O500 1.970 . S
Li441 O501 1.956 . S
Li441 O503 1.961 . S
Li442 N487 1.990 . S
Li442 O500 1.961 . S
Li442 O502 1.956 . S
Li442 O503 1.970 . S
Li443 N493 1.990 . S
Li443 O501 1.961 . S
Li443 O502 1.970 . S
Li443 O503 1.956 . S
C444 C446 1.348 . S
C444 C447 1.356 . S
C444 O500 1.325 . S
N445 C448 1.314 . S
N445 C449 1.279 . S
C446 C444 1.348 . S
C446 C448 1.353 . S
C446 H504 0.929 . S
C447 C444 1.356 . S
C447 C449 1.358 . S
C447 H505 0.930 . S
C448 N445 1.314 . S
C448 C446 1.353 . S
C448 H506 0.930 . S
C449 N445 1.279 . S
C449 C447 1.358 . S
C449 H507 0.930 . S
C450 C453 1.348 . S
C450 C454 1.356 . S
C450 O501 1.325 . S
C451 N452 1.279 . S
C451 C454 1.358 . S
C451 H508 0.930 . S
N452 C451 1.279 . S
N452 C455 1.314 . S
C453 C450 1.348 . S
C453 C455 1.353 . S
C453 H509 0.929 . S
C454 C450 1.356 . S
C454 C451 1.358 . S
C454 H510 0.930 . S
C455 N452 1.314 . S
C455 C453 1.353 . S
C455 H511 0.930 . S
C456 N457 1.314 . S
C456 C461 1.353 . S
C456 H462 0.930 . S
N457 Li440 1.990 . S
N457 C456 1.314 . S
N457 C459 1.279 . S
C458 C459 1.358 . S
C458 C460 1.356 . S
C458 H512 0.930 . S
C459 N457 1.279 . S
C459 C458 1.358 . S
C459 H463 0.930 . S
C460 C458 1.356 . S
C460 C461 1.348 . S
C461 C456 1.353 . S
C461 C460 1.348 . S
C461 H513 0.929 . S
H462 C456 0.930 . S
H463 C459 0.930 . S
C464 N465 1.314 . S
C464 C466 1.353 . S
C464 H470 0.930 . S
N465 Li441 1.990 . S
N465 C464 1.314 . S
N465 C468 1.279 . S
C466 C464 1.353 . S
C466 C469 1.348 . S
C466 H514 0.929 . S
C467 C468 1.358 . S
C467 C469 1.356 . S
C467 H515 0.930 . S
C468 N465 1.279 . S
C468 C467 1.358 . S
C468 H471 0.930 . S
C469 C466 1.348 . S
C469 C467 1.356 . S
H470 C464 0.930 . S
H471 C468 0.930 . S
C472 C474 1.348 . S
C472 C475 1.356 . S
C472 O502 1.325 . S
N473 C476 1.314 . S
N473 C477 1.279 . S
C474 C472 1.348 . S
C474 C476 1.353 . S
C474 H516 0.929 . S
C475 C472 1.356 . S
C475 C477 1.358 . S
C475 H517 0.930 . S
C476 N473 1.314 . S
C476 C474 1.353 . S
C476 H518 0.930 . S
C477 N473 1.279 . S
C477 C475 1.358 . S
C477 H519 0.930 . S
C478 C479 1.348 . S
C478 C480 1.356 . S
C478 O503 1.325 . S
C479 C478 1.348 . S
C479 C481 1.353 . S
C479 H520 0.929 . S
C480 C478 1.356 . S
C480 C482 1.358 . S
C480 H521 0.930 . S
C481 C479 1.353 . S
C481 N483 1.314 . S
C481 H522 0.930 . S
C482 C480 1.358 . S
C482 N483 1.279 . S
C482 H523 0.930 . S
N483 C481 1.314 . S
N483 C482 1.279 . S
C484 C486 1.353 . S
C484 N487 1.314 . S
C484 H490 0.930 . S
C485 N487 1.279 . S
C485 C488 1.358 . S
C485 H491 0.930 . S
C486 C484 1.353 . S
C486 C489 1.348 . S
C486 H524 0.929 . S
N487 Li442 1.990 . S
N487 C484 1.314 . S
N487 C485 1.279 . S
C488 C485 1.358 . S
C488 C489 1.356 . S
C488 H525 0.930 . S
C489 C486 1.348 . S
C489 C488 1.356 . S
H490 C484 0.930 . S
H491 C485 0.930 . S
C492 N493 1.314 . S
C492 C494 1.353 . S
C492 H498 0.930 . S
N493 Li443 1.990 . S
N493 C492 1.314 . S
N493 C496 1.279 . S
C494 C492 1.353 . S
C494 C497 1.348 . S
C494 H526 0.929 . S
C495 C496 1.358 . S
C495 C497 1.356 . S
C495 H527 0.930 . S
C496 N493 1.279 . S
C496 C495 1.358 . S
C496 H499 0.930 . S
C497 C494 1.348 . S
C497 C495 1.356 . S
H498 C492 0.930 . S
H499 C496 0.930 . S
O500 Li440 1.956 . S
O500 Li441 1.970 . S
O500 Li442 1.961 . S
O500 C444 1.325 . S
O501 Li440 1.970 . S
O501 Li441 1.956 . S
O501 Li443 1.961 . S
O501 C450 1.325 . S
O502 Li440 1.961 . S
O502 Li442 1.956 . S
O502 Li443 1.970 . S
O502 C472 1.325 . S
O503 Li441 1.961 . S
O503 Li442 1.970 . S
O503 Li443 1.956 . S
O503 C478 1.325 . S
H504 C446 0.929 . S
H505 C447 0.930 . S
H506 C448 0.930 . S
H507 C449 0.930 . S
H508 C451 0.930 . S
H509 C453 0.929 . S
H510 C454 0.930 . S
H511 C455 0.930 . S
H512 C458 0.930 . S
H513 C461 0.929 . S
H514 C466 0.929 . S
H515 C467 0.930 . S
H516 C474 0.929 . S
H517 C475 0.930 . S
H518 C476 0.930 . S
H519 C477 0.930 . S
H520 C479 0.929 . S
H521 C480 0.930 . S
H522 C481 0.930 . S
H523 C482 0.930 . S
H524 C486 0.929 . S
H525 C488 0.930 . S
H526 C494 0.929 . S
H527 C495 0.930 . S
Li528 N545 1.990 . S
Li528 O588 1.956 . S
Li528 O589 1.970 . S
Li528 O590 1.961 . S
Li529 N553 1.990 . S
Li529 O588 1.970 . S
Li529 O589 1.956 . S
Li529 O591 1.961 . S
Li530 N575 1.990 . S
Li530 O588 1.961 . S
Li530 O590 1.956 . S
Li530 O591 1.970 . S
Li531 N581 1.990 . S
Li531 O589 1.961 . S
Li531 O590 1.970 . S
Li531 O591 1.956 . S
C532 C534 1.348 . S
C532 C535 1.356 . S
C532 O588 1.325 . S
N533 C536 1.314 . S
N533 C537 1.279 . S
C534 C532 1.348 . S
C534 C536 1.353 . S
C534 H592 0.929 . S
C535 C532 1.356 . S
C535 C537 1.358 . S
C535 H593 0.930 . S
C536 N533 1.314 . S
C536 C534 1.353 . S
C536 H594 0.930 . S
C537 N533 1.279 . S
C537 C535 1.358 . S
C537 H595 0.930 . S
C538 C541 1.348 . S
C538 C542 1.356 . S
C538 O589 1.325 . S
C539 N540 1.279 . S
C539 C542 1.358 . S
C539 H596 0.930 . S
N540 C539 1.279 . S
N540 C543 1.314 . S
C541 C538 1.348 . S
C541 C543 1.353 . S
C541 H597 0.929 . S
C542 C538 1.356 . S
C542 C539 1.358 . S
C542 H598 0.930 . S
C543 N540 1.314 . S
C543 C541 1.353 . S
C543 H599 0.930 . S
C544 N545 1.314 . S
C544 C549 1.353 . S
C544 H550 0.930 . S
N545 Li528 1.990 . S
N545 C544 1.314 . S
N545 C547 1.279 . S
C546 C547 1.358 . S
C546 C548 1.356 . S
C546 H600 0.930 . S
C547 N545 1.279 . S
C547 C546 1.358 . S
C547 H551 0.930 . S
C548 C546 1.356 . S
C548 C549 1.348 . S
C549 C544 1.353 . S
C549 C548 1.348 . S
C549 H601 0.929 . S
H550 C544 0.930 . S
H551 C547 0.930 . S
C552 N553 1.314 . S
C552 C554 1.353 . S
C552 H558 0.930 . S
N553 Li529 1.990 . S
N553 C552 1.314 . S
N553 C556 1.279 . S
C554 C552 1.353 . S
C554 C557 1.348 . S
C554 H602 0.929 . S
C555 C556 1.358 . S
C555 C557 1.356 . S
C555 H603 0.930 . S
C556 N553 1.279 . S
C556 C555 1.358 . S
C556 H559 0.930 . S
C557 C554 1.348 . S
C557 C555 1.356 . S
H558 C552 0.930 . S
H559 C556 0.930 . S
C560 C562 1.348 . S
C560 C563 1.356 . S
C560 O590 1.325 . S
N561 C564 1.314 . S
N561 C565 1.279 . S
C562 C560 1.348 . S
C562 C564 1.353 . S
C562 H604 0.929 . S
C563 C560 1.356 . S
C563 C565 1.358 . S
C563 H605 0.930 . S
C564 N561 1.314 . S
C564 C562 1.353 . S
C564 H606 0.930 . S
C565 N561 1.279 . S
C565 C563 1.358 . S
C565 H607 0.930 . S
C566 C567 1.348 . S
C566 C568 1.356 . S
C566 O591 1.325 . S
C567 C566 1.348 . S
C567 C569 1.353 . S
C567 H608 0.929 . S
C568 C566 1.356 . S
C568 C570 1.358 . S
C568 H609 0.930 . S
C569 C567 1.353 . S
C569 N571 1.314 . S
C569 H610 0.930 . S
C570 C568 1.358 . S
C570 N571 1.279 . S
C570 H611 0.930 . S
N571 C569 1.314 . S
N571 C570 1.279 . S
C572 C574 1.353 . S
C572 N575 1.314 . S
C572 H578 0.930 . S
C573 N575 1.279 . S
C573 C576 1.358 . S
C573 H579 0.930 . S
C574 C572 1.353 . S
C574 C577 1.348 . S
C574 H612 0.929 . S
N575 Li530 1.990 . S
N575 C572 1.314 . S
N575 C573 1.279 . S
C576 C573 1.358 . S
C576 C577 1.356 . S
C576 H613 0.930 . S
C577 C574 1.348 . S
C577 C576 1.356 . S
H578 C572 0.930 . S
H579 C573 0.930 . S
C580 N581 1.314 . S
C580 C582 1.353 . S
C580 H586 0.930 . S
N581 Li531 1.990 . S
N581 C580 1.314 . S
N581 C584 1.279 . S
C582 C580 1.353 . S
C582 C585 1.348 . S
C582 H614 0.929 . S
C583 C584 1.358 . S
C583 C585 1.356 . S
C583 H615 0.930 . S
C584 N581 1.279 . S
C584 C583 1.358 . S
C584 H587 0.930 . S
C585 C582 1.348 . S
C585 C583 1.356 . S
H586 C580 0.930 . S
H587 C584 0.930 . S
O588 Li528 1.956 . S
O588 Li529 1.970 . S
O588 Li530 1.961 . S
O588 C532 1.325 . S
O589 Li528 1.970 . S
O589 Li529 1.956 . S
O589 Li531 1.961 . S
O589 C538 1.325 . S
O590 Li528 1.961 . S
O590 Li530 1.956 . S
O590 Li531 1.970 . S
O590 C560 1.325 . S
O591 Li529 1.961 . S
O591 Li530 1.970 . S
O591 Li531 1.956 . S
O591 C566 1.325 . S
H592 C534 0.929 . S
H593 C535 0.930 . S
H594 C536 0.930 . S
H595 C537 0.930 . S
H596 C539 0.930 . S
H597 C541 0.929 . S
H598 C542 0.930 . S
H599 C543 0.930 . S
H600 C546 0.930 . S
H601 C549 0.929 . S
H602 C554 0.929 . S
H603 C555 0.930 . S
H604 C562 0.929 . S
H605 C563 0.930 . S
H606 C564 0.930 . S
H607 C565 0.930 . S
H608 C567 0.929 . S
H609 C568 0.930 . S
H610 C569 0.930 . S
H611 C570 0.930 . S
H612 C574 0.929 . S
H613 C576 0.930 . S
H614 C582 0.929 . S
H615 C583 0.930 . S
Li616 N633 1.990 . S
Li616 O676 1.956 . S
Li616 O677 1.970 . S
Li616 O678 1.961 . S
Li617 N641 1.990 1_455 S
Li617 O676 1.970 . S
Li617 O677 1.956 . S
Li617 O679 1.961 . S
Li618 N663 1.990 . S
Li618 O676 1.961 . S
Li618 O678 1.956 . S
Li618 O679 1.970 . S
Li619 N669 1.990 . S
Li619 O677 1.961 . S
Li619 O678 1.970 . S
Li619 O679 1.956 . S
C620 C622 1.348 . S
C620 C623 1.356 1_556 S
C620 O676 1.325 1_655 S
N621 C624 1.314 1_554 S
N621 C625 1.279 . S
C622 C620 1.348 . S
C622 C624 1.353 . S
C622 H680 0.929 . S
C623 C620 1.356 1_554 S
C623 C625 1.358 . S
C623 H681 0.930 1_655 S
C624 N621 1.314 1_556 S
C624 C622 1.353 . S
C624 H682 0.930 . S
C625 N621 1.279 . S
C625 C623 1.358 . S
C625 H683 0.930 . S
C626 C629 1.348 . S
C626 C630 1.356 . S
C626 O677 1.325 . S
C627 N628 1.279 . S
C627 C630 1.358 . S
C627 H684 0.930 . S
N628 C627 1.279 . S
N628 C631 1.314 . S
C629 C626 1.348 . S
C629 C631 1.353 . S
C629 H685 0.929 . S
C630 C626 1.356 . S
C630 C627 1.358 . S
C630 H686 0.930 . S
C631 N628 1.314 . S
C631 C629 1.353 . S
C631 H687 0.930 . S
C632 N633 1.314 1_554 S
C632 C637 1.353 . S
C632 H638 0.930 1_554 S
N633 Li616 1.990 . S
N633 C632 1.314 1_556 S
N633 C635 1.279 1_556 S
C634 C635 1.358 . S
C634 C636 1.356 . S
C634 H688 0.930 . S
C635 N633 1.279 1_554 S
C635 C634 1.358 . S
C635 H639 0.930 . S
C636 C634 1.356 . S
C636 C637 1.348 . S
C637 C632 1.353 . S
C637 C636 1.348 . S
C637 H689 0.929 . S
H638 C632 0.930 1_556 S
H639 C635 0.930 . S
C640 N641 1.314 . S
C640 C642 1.353 . S
C640 H646 0.930 . S
N641 Li617 1.990 1_655 S
N641 C640 1.314 . S
N641 C644 1.279 . S
C642 C640 1.353 . S
C642 C645 1.348 . S
C642 H690 0.929 . S
C643 C644 1.358 . S
C643 C645 1.356 . S
C643 H691 0.930 . S
C644 N641 1.279 . S
C644 C643 1.358 . S
C644 H647 0.930 . S
C645 C642 1.348 . S
C645 C643 1.356 . S
H646 C640 0.930 . S
H647 C644 0.930 . S
C648 C650 1.348 . S
C648 C651 1.356 1_556 S
C648 O678 1.325 . S
N649 C652 1.314 1_554 S
N649 C653 1.279 . S
C650 C648 1.348 . S
C650 C652 1.353 . S
C650 H692 0.929 . S
C651 C648 1.356 1_554 S
C651 C653 1.358 . S
C651 H693 0.930 . S
C652 N649 1.314 1_556 S
C652 C650 1.353 . S
C652 H694 0.930 . S
C653 N649 1.279 . S
C653 C651 1.358 . S
C653 H695 0.930 . S
C654 C655 1.348 . S
C654 C656 1.356 . S
C654 O679 1.325 . S
C655 C654 1.348 . S
C655 C657 1.353 . S
C655 H696 0.929 . S
C656 C654 1.356 . S
C656 C658 1.358 . S
C656 H697 0.930 . S
C657 C655 1.353 . S
C657 N659 1.314 . S
C657 H698 0.930 . S
C658 C656 1.358 . S
C658 N659 1.279 . S
C658 H699 0.930 . S
N659 C657 1.314 . S
N659 C658 1.279 . S
C660 C662 1.354 1_455 S
C660 N663 1.314 . S
C660 H666 0.930 1_455 S
C661 N663 1.279 . S
C661 C664 1.358 1_556 S
C661 H667 0.930 . S
C662 C660 1.354 1_655 S
C662 C665 1.324 1_656 S
C662 H700 0.953 . S
N663 Li618 1.990 . S
N663 C660 1.314 . S
N663 C661 1.279 . S
C664 C661 1.358 1_554 S
C664 C665 1.356 . S
C664 H701 0.930 . S
C665 C662 1.324 1_454 S
C665 C664 1.356 . S
H666 C660 0.930 1_655 S
H667 C661 0.930 . S
C668 N669 1.314 . S
C668 C670 1.353 . S
C668 H674 0.930 . S
N669 Li619 1.990 . S
N669 C668 1.314 . S
N669 C672 1.279 . S
C670 C668 1.353 . S
C670 C673 1.348 . S
C670 H702 0.929 . S
C671 C672 1.358 . S
C671 C673 1.356 . S
C671 H703 0.930 . S
C672 N669 1.279 . S
C672 C671 1.358 . S
C672 H675 0.930 . S
C673 C670 1.348 . S
C673 C671 1.356 . S
H674 C668 0.930 . S
H675 C672 0.930 . S
O676 Li616 1.956 . S
O676 Li617 1.970 . S
O676 Li618 1.961 . S
O676 C620 1.325 1_455 S
O677 Li616 1.970 . S
O677 Li617 1.956 . S
O677 Li619 1.961 . S
O677 C626 1.325 . S
O678 Li616 1.961 . S
O678 Li618 1.956 . S
O678 Li619 1.970 . S
O678 C648 1.325 . S
O679 Li617 1.961 . S
O679 Li618 1.970 . S
O679 Li619 1.956 . S
O679 C654 1.325 . S
H680 C622 0.929 . S
H681 C623 0.930 1_455 S
H682 C624 0.930 . S
H683 C625 0.930 . S
H684 C627 0.930 . S
H685 C629 0.929 . S
H686 C630 0.930 . S
H687 C631 0.930 . S
H688 C634 0.930 . S
H689 C637 0.929 . S
H690 C642 0.929 . S
H691 C643 0.930 . S
H692 C650 0.929 . S
H693 C651 0.930 . S
H694 C652 0.930 . S
H695 C653 0.930 . S
H696 C655 0.929 . S
H697 C656 0.930 . S
H698 C657 0.930 . S
H699 C658 0.930 . S
H700 C662 0.953 . S
H701 C664 0.930 . S
H702 C670 0.929 . S
H703 C671 0.930 . S
Li704 N721 1.990 . S
Li704 O764 1.956 1_545 S
Li704 O765 1.970 . S
Li704 O766 1.961 . S
Li705 N729 1.990 . S
Li705 O764 1.970 . S
Li705 O765 1.956 1_565 S
Li705 O767 1.961 . S
Li706 N751 1.990 . S
Li706 O764 1.961 1_545 S
Li706 O766 1.956 . S
Li706 O767 1.970 1_545 S
Li707 N757 1.990 . S
Li707 O765 1.961 . S
Li707 O766 1.970 . S
Li707 O767 1.956 1_545 S
C708 C710 1.348 . S
C708 C711 1.356 . S
C708 O764 1.325 . S
N709 C712 1.314 . S
N709 C713 1.279 . S
C710 C708 1.348 . S
C710 C712 1.353 . S
C710 H768 0.929 . S
C711 C708 1.356 . S
C711 C713 1.358 . S
C711 H769 0.930 . S
C712 N709 1.314 . S
C712 C710 1.353 . S
C712 H770 0.930 . S
C713 N709 1.279 . S
C713 C711 1.358 . S
C713 H771 0.930 . S
C714 C717 1.347 . S
C714 C718 1.362 . S
C714 O765 1.325 1_565 S
C715 N716 1.279 . S
C715 C718 1.360 . S
C715 H772 0.938 . S
N716 C715 1.279 . S
N716 C719 1.314 . S
C717 C714 1.347 . S
C717 C719 1.353 . S
C717 H773 0.929 . S
C718 C714 1.362 . S
C718 C715 1.360 . S
C718 H774 0.924 . S
C719 N716 1.314 . S
C719 C717 1.353 . S
C719 H775 0.930 . S
C720 N721 1.314 . S
C720 C725 1.353 . S
C720 H726 0.930 . S
N721 Li704 1.990 . S
N721 C720 1.314 . S
N721 C723 1.279 1_545 S
C722 C723 1.358 1_545 S
C722 C724 1.356 . S
C722 H776 0.930 1_545 S
C723 N721 1.279 1_565 S
C723 C722 1.358 1_565 S
C723 H727 0.930 . S
C724 C722 1.356 . S
C724 C725 1.348 . S
C725 C720 1.353 . S
C725 C724 1.348 . S
C725 H777 0.929 . S
H726 C720 0.930 . S
H727 C723 0.930 . S
C728 N729 1.314 . S
C728 C730 1.353 . S
C728 H734 0.930 . S
N729 Li705 1.990 . S
N729 C728 1.314 . S
N729 C732 1.279 . S
C730 C728 1.353 . S
C730 C733 1.348 . S
C730 H778 0.929 . S
C731 C732 1.358 . S
C731 C733 1.356 . S
C731 H779 0.930 . S
C732 N729 1.279 . S
C732 C731 1.358 . S
C732 H735 0.930 . S
C733 C730 1.348 . S
C733 C731 1.356 . S
H734 C728 0.930 . S
H735 C732 0.930 . S
C736 C738 1.348 . S
C736 C739 1.356 . S
C736 O766 1.325 . S
N737 C740 1.314 . S
N737 C741 1.279 . S
C738 C736 1.348 . S
C738 C740 1.353 . S
C738 H780 0.929 . S
C739 C736 1.356 . S
C739 C741 1.358 . S
C739 H781 0.930 . S
C740 N737 1.314 . S
C740 C738 1.353 . S
C740 H782 0.930 . S
C741 N737 1.279 . S
C741 C739 1.358 . S
C741 H783 0.930 . S
C742 C743 1.348 . S
C742 C744 1.356 . S
C742 O767 1.325 . S
C743 C742 1.348 . S
C743 C745 1.353 . S
C743 H784 0.929 1_565 S
C744 C742 1.356 . S
C744 C746 1.358 . S
C744 H785 0.930 . S
C745 C743 1.353 . S
C745 N747 1.314 . S
C745 H786 0.930 . S
C746 C744 1.358 . S
C746 N747 1.279 . S
C746 H787 0.930 . S
N747 C745 1.314 . S
N747 C746 1.279 . S
C748 C750 1.353 . S
C748 N751 1.314 1_565 S
C748 H754 0.930 . S
C749 N751 1.279 . S
C749 C752 1.358 . S
C749 H755 0.930 . S
C750 C748 1.353 . S
C750 C753 1.327 1_565 S
C750 H788 0.929 . S
N751 Li706 1.990 . S
N751 C748 1.314 1_545 S
N751 C749 1.279 . S
C752 C749 1.358 . S
C752 C753 1.376 . S
C752 H789 0.930 . S
C753 C750 1.327 1_545 S
C753 C752 1.376 . S
H754 C748 0.930 . S
H755 C749 0.930 . S
C756 N757 1.314 . S
C756 C758 1.353 . S
C756 H762 0.930 . S
N757 Li707 1.990 . S
N757 C756 1.314 . S
N757 C760 1.279 . S
C758 C756 1.353 . S
C758 C761 1.348 . S
C758 H790 0.929 . S
C759 C760 1.358 . S
C759 C761 1.356 . S
C759 H791 0.930 . S
C760 N757 1.279 . S
C760 C759 1.358 . S
C760 H763 0.930 . S
C761 C758 1.348 . S
C761 C759 1.356 . S
H762 C756 0.930 . S
H763 C760 0.930 . S
O764 Li704 1.956 1_565 S
O764 Li705 1.970 . S
O764 Li706 1.961 1_565 S
O764 C708 1.325 . S
O765 Li704 1.970 . S
O765 Li705 1.956 1_545 S
O765 Li707 1.961 . S
O765 C714 1.325 1_545 S
O766 Li704 1.961 . S
O766 Li706 1.956 . S
O766 Li707 1.970 . S
O766 C736 1.325 . S
O767 Li705 1.961 . S
O767 Li706 1.970 1_565 S
O767 Li707 1.956 1_565 S
O767 C742 1.325 . S
H768 C710 0.929 . S
H769 C711 0.930 . S
H770 C712 0.930 . S
H771 C713 0.930 . S
H772 C715 0.938 . S
H773 C717 0.929 . S
H774 C718 0.924 . S
H775 C719 0.930 . S
H776 C722 0.930 1_565 S
H777 C725 0.929 . S
H778 C730 0.929 . S
H779 C731 0.930 . S
H780 C738 0.929 . S
H781 C739 0.930 . S
H782 C740 0.930 . S
H783 C741 0.930 . S
H784 C743 0.929 1_545 S
H785 C744 0.930 . S
H786 C745 0.930 . S
H787 C746 0.930 . S
H788 C750 0.929 . S
H789 C752 0.930 . S
H790 C758 0.929 . S
H791 C759 0.930 . S
Li792 N809 1.990 . S
Li792 O852 1.956 . S
Li792 O853 1.970 . S
Li792 O854 1.961 . S
Li793 N817 1.990 . S
Li793 O852 1.970 . S
Li793 O853 1.956 . S
Li793 O855 1.961 . S
Li794 N839 1.990 . S
Li794 O852 1.961 . S
Li794 O854 1.956 . S
Li794 O855 1.970 . S
Li795 N845 1.990 . S
Li795 O853 1.961 . S
Li795 O854 1.970 . S
Li795 O855 1.956 . S
C796 C798 1.348 . S
C796 C799 1.356 . S
C796 O852 1.325 . S
N797 C800 1.314 . S
N797 C801 1.279 . S
C798 C796 1.348 . S
C798 C800 1.353 . S
C798 H856 0.929 . S
C799 C796 1.356 . S
C799 C801 1.358 . S
C799 H857 0.930 . S
C800 N797 1.314 . S
C800 C798 1.353 . S
C800 H858 0.930 . S
C801 N797 1.279 . S
C801 C799 1.358 . S
C801 H859 0.930 . S
C802 C805 1.348 . S
C802 C806 1.356 . S
C802 O853 1.325 . S
C803 N804 1.279 . S
C803 C806 1.358 . S
C803 H860 0.930 . S
N804 C803 1.279 . S
N804 C807 1.314 . S
C805 C802 1.348 . S
C805 C807 1.353 . S
C805 H861 0.929 . S
C806 C802 1.356 . S
C806 C803 1.358 . S
C806 H862 0.930 . S
C807 N804 1.314 . S
C807 C805 1.353 . S
C807 H863 0.930 . S
C808 N809 1.314 . S
C808 C813 1.353 . S
C808 H814 0.930 . S
N809 Li792 1.990 . S
N809 C808 1.314 . S
N809 C811 1.279 . S
C810 C811 1.358 . S
C810 C812 1.356 . S
C810 H864 0.930 . S
C811 N809 1.279 . S
C811 C810 1.358 . S
C811 H815 0.930 . S
C812 C810 1.356 . S
C812 C813 1.348 . S
C813 C808 1.353 . S
C813 C812 1.348 . S
C813 H865 0.929 . S
H814 C808 0.930 . S
H815 C811 0.930 . S
C816 N817 1.314 . S
C816 C818 1.353 . S
C816 H822 0.930 . S
N817 Li793 1.990 . S
N817 C816 1.314 . S
N817 C820 1.279 . S
C818 C816 1.353 . S
C818 C821 1.348 . S
C818 H866 0.929 . S
C819 C820 1.358 . S
C819 C821 1.356 . S
C819 H867 0.930 . S
C820 N817 1.279 . S
C820 C819 1.358 . S
C820 H823 0.930 . S
C821 C818 1.348 . S
C821 C819 1.356 . S
H822 C816 0.930 . S
H823 C820 0.930 . S
C824 C826 1.348 . S
C824 C827 1.356 . S
C824 O854 1.325 . S
N825 C828 1.314 . S
N825 C829 1.279 . S
C826 C824 1.348 . S
C826 C828 1.353 . S
C826 H868 0.929 . S
C827 C824 1.356 . S
C827 C829 1.358 . S
C827 H869 0.930 . S
C828 N825 1.314 . S
C828 C826 1.353 . S
C828 H870 0.930 . S
C829 N825 1.279 . S
C829 C827 1.358 . S
C829 H871 0.930 . S
C830 C831 1.348 . S
C830 C832 1.356 . S
C830 O855 1.325 . S
C831 C830 1.348 . S
C831 C833 1.353 . S
C831 H872 0.929 . S
C832 C830 1.356 . S
C832 C834 1.358 . S
C832 H873 0.930 . S
C833 C831 1.353 . S
C833 N835 1.314 . S
C833 H874 0.930 . S
C834 C832 1.358 . S
C834 N835 1.279 . S
C834 H875 0.930 . S
N835 C833 1.314 . S
N835 C834 1.279 . S
C836 C838 1.353 . S
C836 N839 1.314 . S
C836 H842 0.930 . S
C837 N839 1.279 . S
C837 C840 1.358 . S
C837 H843 0.930 . S
C838 C836 1.353 . S
C838 C841 1.348 . S
C838 H876 0.929 . S
N839 Li794 1.990 . S
N839 C836 1.314 . S
N839 C837 1.279 . S
C840 C837 1.358 . S
C840 C841 1.356 . S
C840 H877 0.930 . S
C841 C838 1.348 . S
C841 C840 1.356 . S
H842 C836 0.930 . S
H843 C837 0.930 . S
C844 N845 1.314 . S
C844 C846 1.353 . S
C844 H850 0.930 . S
N845 Li795 1.990 . S
N845 C844 1.314 . S
N845 C848 1.279 . S
C846 C844 1.353 . S
C846 C849 1.348 . S
C846 H878 0.929 . S
C847 C848 1.358 . S
C847 C849 1.356 . S
C847 H879 0.930 . S
C848 N845 1.279 . S
C848 C847 1.358 . S
C848 H851 0.930 . S
C849 C846 1.348 . S
C849 C847 1.356 . S
H850 C844 0.930 . S
H851 C848 0.930 . S
O852 Li792 1.956 . S
O852 Li793 1.970 . S
O852 Li794 1.961 . S
O852 C796 1.325 . S
O853 Li792 1.970 . S
O853 Li793 1.956 . S
O853 Li795 1.961 . S
O853 C802 1.325 . S
O854 Li792 1.961 . S
O854 Li794 1.956 . S
O854 Li795 1.970 . S
O854 C824 1.325 . S
O855 Li793 1.961 . S
O855 Li794 1.970 . S
O855 Li795 1.956 . S
O855 C830 1.325 . S
H856 C798 0.929 . S
H857 C799 0.930 . S
H858 C800 0.930 . S
H859 C801 0.930 . S
H860 C803 0.930 . S
H861 C805 0.929 . S
H862 C806 0.930 . S
H863 C807 0.930 . S
H864 C810 0.930 . S
H865 C813 0.929 . S
H866 C818 0.929 . S
H867 C819 0.930 . S
H868 C826 0.929 . S
H869 C827 0.930 . S
H870 C828 0.930 . S
H871 C829 0.930 . S
H872 C831 0.929 . S
H873 C832 0.930 . S
H874 C833 0.930 . S
H875 C834 0.930 . S
H876 C838 0.929 . S
H877 C840 0.930 . S
H878 C846 0.929 . S
H879 C847 0.930 . S
Li880 N897 1.990 . S
Li880 O940 1.956 . S
Li880 O941 1.970 . S
Li880 O942 1.961 . S
Li881 N905 1.990 . S
Li881 O940 1.970 . S
Li881 O941 1.956 . S
Li881 O943 1.961 1_545 S
Li882 N927 1.990 . S
Li882 O940 1.961 1_565 S
Li882 O942 1.956 1_565 S
Li882 O943 1.970 . S
Li883 N933 1.990 1_545 S
Li883 O941 1.961 . S
Li883 O942 1.970 . S
Li883 O943 1.956 1_545 S
C884 C886 1.348 . S
C884 C887 1.356 . S
C884 O940 1.325 . S
N885 C888 1.314 . S
N885 C889 1.279 . S
C886 C884 1.348 . S
C886 C888 1.353 . S
C886 H944 0.929 . S
C887 C884 1.356 . S
C887 C889 1.358 . S
C887 H945 0.930 . S
C888 N885 1.314 . S
C888 C886 1.353 . S
C888 H946 0.930 . S
C889 N885 1.279 . S
C889 C887 1.358 . S
C889 H947 0.930 . S
C890 C893 1.348 . S
C890 C894 1.356 . S
C890 O941 1.325 . S
C891 N892 1.279 . S
C891 C894 1.358 . S
C891 H948 0.930 . S
N892 C891 1.279 . S
N892 C895 1.314 . S
C893 C890 1.348 . S
C893 C895 1.353 . S
C893 H949 0.929 . S
C894 C890 1.356 . S
C894 C891 1.358 . S
C894 H950 0.930 . S
C895 N892 1.314 . S
C895 C893 1.353 . S
C895 H951 0.930 . S
C896 N897 1.314 . S
C896 C901 1.353 . S
C896 H902 0.930 . S
N897 Li880 1.990 . S
N897 C896 1.314 . S
N897 C899 1.279 . S
C898 C899 1.358 . S
C898 C900 1.356 . S
C898 H952 0.930 . S
C899 N897 1.279 . S
C899 C898 1.358 . S
C899 H903 0.930 . S
C900 C898 1.356 . S
C900 C901 1.348 . S
C901 C896 1.353 . S
C901 C900 1.348 . S
C901 H953 0.929 . S
H902 C896 0.930 . S
H903 C899 0.930 . S
C904 N905 1.314 1_565 S
C904 C906 1.353 . S
C904 H910 0.930 . S
N905 Li881 1.990 . S
N905 C904 1.314 1_545 S
N905 C908 1.279 . S
C906 C904 1.353 . S
C906 C909 1.348 1_565 S
C906 H954 0.929 . S
C907 C908 1.358 . S
C907 C909 1.356 . S
C907 H955 0.930 . S
C908 N905 1.279 . S
C908 C907 1.358 . S
C908 H911 0.930 . S
C909 C906 1.348 1_545 S
C909 C907 1.356 . S
H910 C904 0.930 . S
H911 C908 0.930 . S
C912 C914 1.348 . S
C912 C915 1.356 . S
C912 O942 1.325 . S
N913 C916 1.314 . S
N913 C917 1.279 . S
C914 C912 1.348 . S
C914 C916 1.353 . S
C914 H956 0.929 1_545 S
C915 C912 1.356 . S
C915 C917 1.358 . S
C915 H957 0.930 . S
C916 N913 1.314 . S
C916 C914 1.353 . S
C916 H958 0.930 1_545 S
C917 N913 1.279 . S
C917 C915 1.358 . S
C917 H959 0.930 . S
C918 C919 1.348 . S
C918 C920 1.356 . S
C918 O943 1.325 . S
C919 C918 1.348 . S
C919 C921 1.353 . S
C919 H960 0.929 . S
C920 C918 1.356 . S
C920 C922 1.358 . S
C920 H961 0.930 . S
C921 C919 1.353 . S
C921 N923 1.314 . S
C921 H962 0.930 . S
C922 C920 1.358 . S
C922 N923 1.279 . S
C922 H963 0.930 . S
N923 C921 1.314 . S
N923 C922 1.279 . S
C924 C926 1.353 . S
C924 N927 1.314 . S
C924 H930 0.930 . S
C925 N927 1.279 . S
C925 C928 1.358 . S
C925 H931 0.930 . S
C926 C924 1.353 . S
C926 C929 1.348 . S
C926 H964 0.929 . S
N927 Li882 1.990 . S
N927 C924 1.314 . S
N927 C925 1.279 . S
C928 C925 1.358 . S
C928 C929 1.356 . S
C928 H965 0.930 . S
C929 C926 1.348 . S
C929 C928 1.356 . S
H930 C924 0.930 . S
H931 C925 0.930 . S
C932 N933 1.314 1_545 S
C932 C934 1.353 . S
C932 H938 0.930 . S
N933 Li883 1.990 1_565 S
N933 C932 1.314 1_565 S
N933 C936 1.279 . S
C934 C932 1.353 . S
C934 C937 1.348 1_545 S
C934 H966 0.929 . S
C935 C936 1.358 . S
C935 C937 1.356 . S
C935 H967 0.930 . S
C936 N933 1.279 . S
C936 C935 1.358 . S
C936 H939 0.930 . S
C937 C934 1.348 1_565 S
C937 C935 1.356 . S
H938 C932 0.930 . S
H939 C936 0.930 . S
O940 Li880 1.956 . S
O940 Li881 1.970 . S
O940 Li882 1.961 1_545 S
O940 C884 1.325 . S
O941 Li880 1.970 . S
O941 Li881 1.956 . S
O941 Li883 1.961 . S
O941 C890 1.325 . S
O942 Li880 1.961 . S
O942 Li882 1.956 1_545 S
O942 Li883 1.970 . S
O942 C912 1.325 . S
O943 Li881 1.961 1_565 S
O943 Li882 1.970 . S
O943 Li883 1.956 1_565 S
O943 C918 1.325 . S
H944 C886 0.929 . S
H945 C887 0.930 . S
H946 C888 0.930 . S
H947 C889 0.930 . S
H948 C891 0.930 . S
H949 C893 0.929 . S
H950 C894 0.930 . S
H951 C895 0.930 . S
H952 C898 0.930 . S
H953 C901 0.929 . S
H954 C906 0.929 . S
H955 C907 0.930 . S
H956 C914 0.929 1_565 S
H957 C915 0.930 . S
H958 C916 0.930 1_565 S
H959 C917 0.930 . S
H960 C919 0.929 . S
H961 C920 0.930 . S
H962 C921 0.930 . S
H963 C922 0.930 . S
H964 C926 0.929 . S
H965 C928 0.930 . S
H966 C934 0.929 . S
H967 C935 0.930 . S
Li968 N985 1.990 1_565 S
Li968 O1028 1.956 . S
Li968 O1029 1.970 1_554 S
Li968 O1030 1.961 1_554 S
Li969 N993 1.990 . S
Li969 O1028 1.970 . S
Li969 O1029 1.956 1_554 S
Li969 O1031 1.958 1_554 S
Li970 N1015 1.990 1_565 S
Li970 O1028 1.961 . S
Li970 O1030 1.956 1_554 S
Li970 O1031 1.971 1_554 S
Li971 N1021 1.990 . S
Li971 O1029 1.961 . S
Li971 O1030 1.970 . S
Li971 O1031 1.959 . S
C972 C974 1.348 1_545 S
C972 C975 1.356 . S
C972 O1028 1.325 1_545 S
N973 C976 1.314 . S
N973 C977 1.279 . S
C974 C972 1.348 1_565 S
C974 C976 1.353 1_565 S
C974 H1032 0.929 . S
C975 C972 1.356 . S
C975 C977 1.358 . S
C975 H1033 0.930 . S
C976 N973 1.314 . S
C976 C974 1.353 1_545 S
C976 H1034 0.930 . S
C977 N973 1.279 . S
C977 C975 1.358 . S
C977 H1035 0.930 . S
C978 C981 1.348 . S
C978 C982 1.356 . S
C978 O1029 1.325 . S
C979 N980 1.279 . S
C979 C982 1.358 . S
C979 H1036 0.930 . S
N980 C979 1.279 . S
N980 C983 1.314 . S
C981 C978 1.348 . S
C981 C983 1.353 . S
C981 H1037 0.929 1_556 S
C982 C978 1.356 . S
C982 C979 1.358 . S
C982 H1038 0.930 . S
C983 N980 1.314 . S
C983 C981 1.353 . S
C983 H1039 0.930 . S
C984 N985 1.314 1_556 S
C984 C989 1.353 . S
C984 H990 0.930 1_545 S
N985 Li968 1.990 1_545 S
N985 C984 1.314 1_554 S
N985 C987 1.279 . S
C986 C987 1.358 . S
C986 C988 1.356 . S
C986 H1040 0.930 . S
C987 N985 1.279 . S
C987 C986 1.358 . S
C987 H991 0.930 . S
C988 C986 1.356 . S
C988 C989 1.348 1_554 S
C989 C984 1.353 . S
C989 C988 1.348 1_556 S
C989 H1041 0.929 . S
H990 C984 0.930 1_565 S
H991 C987 0.930 . S
C992 N993 1.314 . S
C992 C994 1.353 . S
C992 H998 0.930 . S
N993 Li969 1.990 . S
N993 C992 1.314 . S
N993 C996 1.279 . S
C994 C992 1.353 . S
C994 C997 1.348 . S
C994 H1042 0.929 . S
C995 C996 1.358 . S
C995 C997 1.356 . S
C995 H1043 0.930 . S
C996 N993 1.279 . S
C996 C995 1.358 . S
C996 H999 0.930 . S
C997 C994 1.348 . S
C997 C995 1.356 . S
H998 C992 0.930 . S
H999 C996 0.930 . S
C1000 C1002 1.348 . S
C1000 C1003 1.356 1_565 S
C1000 O1030 1.325 . S
N1001 C1004 1.278 1_545 S
N1001 C1005 1.279 . S
C1002 C1000 1.348 . S
C1002 C1004 1.380 . S
C1002 H1044 0.929 . S
C1003 C1000 1.356 1_545 S
C1003 C1005 1.358 . S
C1003 H1045 0.930 . S
C1004 N1001 1.278 1_565 S
C1004 C1002 1.380 . S
C1004 H1046 0.941 . S
C1005 N1001 1.279 . S
C1005 C1003 1.358 . S
C1005 H1047 0.930 . S
C1006 C1007 1.348 . S
C1006 C1008 1.356 . S
C1006 O1031 1.325 . S
C1007 C1006 1.348 . S
C1007 C1009 1.353 . S
C1007 H1048 0.929 . S
C1008 C1006 1.356 . S
C1008 C1010 1.358 . S
C1008 H1049 0.936 . S
C1009 C1007 1.353 . S
C1009 N1011 1.314 . S
C1009 H1050 0.930 . S
C1010 C1008 1.358 . S
C1010 N1011 1.279 . S
C1010 H1051 0.930 . S
N1011 C1009 1.314 . S
N1011 C1010 1.279 . S
C1012 C1014 1.353 . S
C1012 N1015 1.314 . S
C1012 H1018 0.930 . S
C1013 N1015 1.279 1_556 S
C1013 C1016 1.358 . S
C1013 H1019 0.930 . S
C1014 C1012 1.353 . S
C1014 C1017 1.348 . S
C1014 H1052 0.929 . S
N1015 Li970 1.990 1_545 S
N1015 C1012 1.314 . S
N1015 C1013 1.279 1_554 S
C1016 C1013 1.358 . S
C1016 C1017 1.356 1_556 S
C1016 H1053 0.930 . S
C1017 C1014 1.348 . S
C1017 C1016 1.356 1_554 S
H1018 C1012 0.930 . S
H1019 C1013 0.930 . S
C1020 N1021 1.314 . S
C1020 C1022 1.353 . S
C1020 H1026 0.930 . S
N1021 Li971 1.990 . S
N1021 C1020 1.314 . S
N1021 C1024 1.279 . S
C1022 C1020 1.353 . S
C1022 C1025 1.348 . S
C1022 H1054 0.929 . S
C1023 C1024 1.358 . S
C1023 C1025 1.356 . S
C1023 H1055 0.930 . S
C1024 N1021 1.279 . S
C1024 C1023 1.358 . S
C1024 H1027 0.930 . S
C1025 C1022 1.348 . S
C1025 C1023 1.356 . S
H1026 C1020 0.930 . S
H1027 C1024 0.930 . S
O1028 Li968 1.956 . S
O1028 Li969 1.970 . S
O1028 Li970 1.961 . S
O1028 C972 1.325 1_565 S
O1029 Li968 1.970 1_556 S
O1029 Li969 1.956 1_556 S
O1029 Li971 1.961 . S
O1029 C978 1.325 . S
O1030 Li968 1.961 1_556 S
O1030 Li970 1.956 1_556 S
O1030 Li971 1.970 . S
O1030 C1000 1.325 . S
O1031 Li969 1.958 1_556 S
O1031 Li970 1.971 1_556 S
O1031 Li971 1.959 . S
O1031 C1006 1.325 . S
H1032 C974 0.929 . S
H1033 C975 0.930 . S
H1034 C976 0.930 . S
H1035 C977 0.930 . S
H1036 C979 0.930 . S
H1037 C981 0.929 1_554 S
H1038 C982 0.930 . S
H1039 C983 0.930 . S
H1040 C986 0.930 . S
H1041 C989 0.929 . S
H1042 C994 0.929 . S
H1043 C995 0.930 . S
H1044 C1002 0.929 . S
H1045 C1003 0.930 . S
H1046 C1004 0.941 . S
H1047 C1005 0.930 . S
H1048 C1007 0.929 . S
H1049 C1008 0.936 . S
H1050 C1009 0.930 . S
H1051 C1010 0.930 . S
H1052 C1014 0.929 . S
H1053 C1016 0.930 . S
H1054 C1022 0.929 . S
H1055 C1023 0.930 . S
Li1056 N1073 1.990 . S
Li1056 O1116 1.956 . S
Li1056 O1117 1.970 . S
Li1056 O1118 1.961 1_554 S
Li1057 N1081 1.990 . S
Li1057 O1116 1.970 . S
Li1057 O1117 1.956 . S
Li1057 O1119 1.961 . S
Li1058 N1103 1.990 . S
Li1058 O1116 1.961 . S
Li1058 O1118 1.956 1_554 S
Li1058 O1119 1.970 . S
Li1059 N1109 1.990 . S
Li1059 O1117 1.961 1_556 S
Li1059 O1118 1.970 . S
Li1059 O1119 1.956 1_556 S
C1060 C1062 1.348 . S
C1060 C1063 1.356 . S
C1060 O1116 1.325 . S
N1061 C1064 1.314 . S
N1061 C1065 1.279 . S
C1062 C1060 1.348 . S
C1062 C1064 1.353 . S
C1062 H1120 0.929 . S
C1063 C1060 1.356 . S
C1063 C1065 1.358 . S
C1063 H1121 0.930 . S
C1064 N1061 1.314 . S
C1064 C1062 1.353 . S
C1064 H1122 0.930 . S
C1065 N1061 1.279 . S
C1065 C1063 1.358 . S
C1065 H1123 0.930 . S
C1066 C1069 1.348 . S
C1066 C1070 1.356 . S
C1066 O1117 1.325 . S
C1067 N1068 1.276 1_556 S
C1067 C1070 1.360 1_556 S
C1067 H1124 0.932 . S
N1068 C1067 1.276 1_554 S
N1068 C1071 1.314 . S
C1069 C1066 1.348 . S
C1069 C1071 1.353 . S
C1069 H1125 0.929 . S
C1070 C1066 1.356 . S
C1070 C1067 1.360 1_554 S
C1070 H1126 0.925 1_554 S
C1071 N1068 1.314 . S
C1071 C1069 1.353 . S
C1071 H1127 0.930 . S
C1072 N1073 1.314 . S
C1072 C1077 1.353 . S
C1072 H1078 0.930 1_554 S
N1073 Li1056 1.990 . S
N1073 C1072 1.314 . S
N1073 C1075 1.279 . S
C1074 C1075 1.358 . S
C1074 C1076 1.356 . S
C1074 H1128 0.930 . S
C1075 N1073 1.279 . S
C1075 C1074 1.358 . S
C1075 H1079 0.930 . S
C1076 C1074 1.356 . S
C1076 C1077 1.348 . S
C1077 C1072 1.353 . S
C1077 C1076 1.348 . S
C1077 H1129 0.929 1_554 S
H1078 C1072 0.930 1_556 S
H1079 C1075 0.930 . S
C1080 N1081 1.314 . S
C1080 C1082 1.353 . S
C1080 H1086 0.930 . S
N1081 Li1057 1.990 . S
N1081 C1080 1.314 . S
N1081 C1084 1.279 . S
C1082 C1080 1.353 . S
C1082 C1085 1.348 . S
C1082 H1130 0.929 . S
C1083 C1084 1.358 . S
C1083 C1085 1.356 . S
C1083 H1131 0.930 . S
C1084 N1081 1.279 . S
C1084 C1083 1.358 . S
C1084 H1087 0.930 . S
C1085 C1082 1.348 . S
C1085 C1083 1.356 . S
H1086 C1080 0.930 . S
H1087 C1084 0.930 . S
C1088 C1090 1.348 . S
C1088 C1091 1.356 . S
C1088 O1118 1.325 . S
N1089 C1092 1.314 . S
N1089 C1093 1.279 . S
C1090 C1088 1.348 . S
C1090 C1092 1.353 . S
C1090 H1132 0.929 . S
C1091 C1088 1.356 . S
C1091 C1093 1.358 . S
C1091 H1133 0.930 1_556 S
C1092 N1089 1.314 . S
C1092 C1090 1.353 . S
C1092 H1134 0.930 . S
C1093 N1089 1.279 . S
C1093 C1091 1.358 . S
C1093 H1135 0.930 . S
C1094 C1095 1.348 . S
C1094 C1096 1.356 . S
C1094 O1119 1.325 . S
C1095 C1094 1.348 . S
C1095 C1097 1.353 . S
C1095 H1136 0.929 . S
C1096 C1094 1.356 . S
C1096 C1098 1.358 . S
C1096 H1137 0.930 . S
C1097 C1095 1.353 . S
C1097 N1099 1.314 . S
C1097 H1138 0.930 . S
C1098 C1096 1.358 . S
C1098 N1099 1.279 . S
C1098 H1139 0.930 . S
N1099 C1097 1.314 . S
N1099 C1098 1.279 . S
C1100 C1102 1.353 . S
C1100 N1103 1.314 . S
C1100 H1106 0.930 . S
C1101 N1103 1.279 . S
C1101 C1104 1.358 . S
C1101 H1107 0.930 1_554 S
C1102 C1100 1.353 . S
C1102 C1105 1.348 . S
C1102 H1140 0.929 . S
N1103 Li1058 1.990 . S
N1103 C1100 1.314 . S
N1103 C1101 1.279 . S
C1104 C1101 1.358 . S
C1104 C1105 1.356 . S
C1104 H1141 0.930 . S
C1105 C1102 1.348 . S
C1105 C1104 1.356 . S
H1106 C1100 0.930 . S
H1107 C1101 0.930 1_556 S
C1108 N1109 1.314 . S
C1108 C1110 1.353 . S
C1108 H1114 0.930 . S
N1109 Li1059 1.990 . S
N1109 C1108 1.314 . S
N1109 C1112 1.279 . S
C1110 C1108 1.353 . S
C1110 C1113 1.348 . S
C1110 H1142 0.929 . S
C1111 C1112 1.358 . S
C1111 C1113 1.356 . S
C1111 H1143 0.930 . S
C1112 N1109 1.279 . S
C1112 C1111 1.358 . S
C1112 H1115 0.930 . S
C1113 C1110 1.348 . S
C1113 C1111 1.356 . S
H1114 C1108 0.930 . S
H1115 C1112 0.930 . S
O1116 Li1056 1.956 . S
O1116 Li1057 1.970 . S
O1116 Li1058 1.961 . S
O1116 C1060 1.325 . S
O1117 Li1056 1.970 . S
O1117 Li1057 1.956 . S
O1117 Li1059 1.961 1_554 S
O1117 C1066 1.325 . S
O1118 Li1056 1.961 1_556 S
O1118 Li1058 1.956 1_556 S
O1118 Li1059 1.970 . S
O1118 C1088 1.325 . S
O1119 Li1057 1.961 . S
O1119 Li1058 1.970 . S
O1119 Li1059 1.956 1_554 S
O1119 C1094 1.325 . S
H1120 C1062 0.929 . S
H1121 C1063 0.930 . S
H1122 C1064 0.930 . S
H1123 C1065 0.930 . S
H1124 C1067 0.932 . S
H1125 C1069 0.929 . S
H1126 C1070 0.925 1_556 S
H1127 C1071 0.930 . S
H1128 C1074 0.930 . S
H1129 C1077 0.929 1_556 S
H1130 C1082 0.929 . S
H1131 C1083 0.930 . S
H1132 C1090 0.929 . S
H1133 C1091 0.930 1_554 S
H1134 C1092 0.930 . S
H1135 C1093 0.930 . S
H1136 C1095 0.929 . S
H1137 C1096 0.930 . S
H1138 C1097 0.930 . S
H1139 C1098 0.930 . S
H1140 C1102 0.929 . S
H1141 C1104 0.930 . S
H1142 C1110 0.929 . S
H1143 C1111 0.930 . S
Li1144 N1161 1.990 . S
Li1144 O1204 1.956 . S
Li1144 O1205 1.970 . S
Li1144 O1206 1.961 . S
Li1145 N1169 1.990 . S
Li1145 O1204 1.970 . S
Li1145 O1205 1.956 . S
Li1145 O1207 1.961 1_554 S
Li1146 N1191 1.990 1_554 S
Li1146 O1204 1.961 . S
Li1146 O1206 1.956 . S
Li1146 O1207 1.970 1_554 S
Li1147 N1197 1.990 . S
Li1147 O1205 1.961 . S
Li1147 O1206 1.970 . S
Li1147 O1207 1.956 1_554 S
C1148 C1150 1.348 . S
C1148 C1151 1.356 . S
C1148 O1204 1.325 . S
N1149 C1152 1.314 . S
N1149 C1153 1.279 . S
C1150 C1148 1.348 . S
C1150 C1152 1.353 . S
C1150 H1208 0.929 . S
C1151 C1148 1.356 . S
C1151 C1153 1.358 . S
C1151 H1209 0.930 . S
C1152 N1149 1.314 . S
C1152 C1150 1.353 . S
C1152 H1210 0.930 . S
C1153 N1149 1.279 . S
C1153 C1151 1.358 . S
C1153 H1211 0.930 . S
C1154 C1157 1.348 . S
C1154 C1158 1.356 . S
C1154 O1205 1.325 . S
C1155 N1156 1.279 . S
C1155 C1158 1.358 . S
C1155 H1212 0.930 . S
N1156 C1155 1.279 . S
N1156 C1159 1.314 . S
C1157 C1154 1.348 . S
C1157 C1159 1.353 . S
C1157 H1213 0.929 . S
C1158 C1154 1.356 . S
C1158 C1155 1.358 . S
C1158 H1214 0.930 . S
C1159 N1156 1.314 . S
C1159 C1157 1.353 . S
C1159 H1215 0.930 . S
C1160 N1161 1.314 . S
C1160 C1165 1.353 . S
C1160 H1166 0.930 . S
N1161 Li1144 1.990 . S
N1161 C1160 1.314 . S
N1161 C1163 1.279 . S
C1162 C1163 1.358 . S
C1162 C1164 1.356 . S
C1162 H1216 0.930 . S
C1163 N1161 1.279 . S
C1163 C1162 1.358 . S
C1163 H1167 0.930 . S
C1164 C1162 1.356 . S
C1164 C1165 1.348 . S
C1165 C1160 1.353 . S
C1165 C1164 1.348 . S
C1165 H1217 0.929 . S
H1166 C1160 0.930 . S
H1167 C1163 0.930 . S
C1168 N1169 1.314 . S
C1168 C1170 1.353 . S
C1168 H1174 0.930 1_554 S
N1169 Li1145 1.990 . S
N1169 C1168 1.314 . S
N1169 C1172 1.279 . S
C1170 C1168 1.353 . S
C1170 C1173 1.348 . S
C1170 H1218 0.929 1_554 S
C1171 C1172 1.358 . S
C1171 C1173 1.356 . S
C1171 H1219 0.930 . S
C1172 N1169 1.279 . S
C1172 C1171 1.358 . S
C1172 H1175 0.930 . S
C1173 C1170 1.348 . S
C1173 C1171 1.356 . S
H1174 C1168 0.930 1_556 S
H1175 C1172 0.930 . S
C1176 C1178 1.348 . S
C1176 C1179 1.356 . S
C1176 O1206 1.325 . S
N1177 C1180 1.314 . S
N1177 C1181 1.279 . S
C1178 C1176 1.348 . S
C1178 C1180 1.353 . S
C1178 H1220 0.929 . S
C1179 C1176 1.356 . S
C1179 C1181 1.358 . S
C1179 H1221 0.930 . S
C1180 N1177 1.314 . S
C1180 C1178 1.353 . S
C1180 H1222 0.930 . S
C1181 N1177 1.279 . S
C1181 C1179 1.358 . S
C1181 H1223 0.930 . S
C1182 C1183 1.348 . S
C1182 C1184 1.356 . S
C1182 O1207 1.325 . S
C1183 C1182 1.348 . S
C1183 C1185 1.353 . S
C1183 H1224 0.929 . S
C1184 C1182 1.356 . S
C1184 C1186 1.358 . S
C1184 H1225 0.930 . S
C1185 C1183 1.353 . S
C1185 N1187 1.314 . S
C1185 H1226 0.930 . S
C1186 C1184 1.358 . S
C1186 N1187 1.279 . S
C1186 H1227 0.930 . S
N1187 C1185 1.314 . S
N1187 C1186 1.279 . S
C1188 C1190 1.353 . S
C1188 N1191 1.314 . S
C1188 H1194 0.930 . S
C1189 N1191 1.279 . S
C1189 C1192 1.358 . S
C1189 H1195 0.930 . S
C1190 C1188 1.353 . S
C1190 C1193 1.348 . S
C1190 H1228 0.929 . S
N1191 Li1146 1.990 1_556 S
N1191 C1188 1.314 . S
N1191 C1189 1.279 . S
C1192 C1189 1.358 . S
C1192 C1193 1.356 . S
C1192 H1229 0.930 . S
C1193 C1190 1.348 . S
C1193 C1192 1.356 . S
H1194 C1188 0.930 . S
H1195 C1189 0.930 . S
C1196 N1197 1.314 . S
C1196 C1198 1.353 . S
C1196 H1202 0.930 . S
N1197 Li1147 1.990 . S
N1197 C1196 1.314 . S
N1197 C1200 1.279 1_554 S
C1198 C1196 1.353 . S
C1198 C1201 1.348 . S
C1198 H1230 0.929 . S
C1199 C1200 1.358 . S
C1199 C1201 1.356 1_556 S
C1199 H1231 0.930 . S
C1200 N1197 1.279 1_556 S
C1200 C1199 1.358 . S
C1200 H1203 0.930 . S
C1201 C1198 1.348 . S
C1201 C1199 1.356 1_554 S
H1202 C1196 0.930 . S
H1203 C1200 0.930 . S
O1204 Li1144 1.956 . S
O1204 Li1145 1.970 . S
O1204 Li1146 1.961 . S
O1204 C1148 1.325 . S
O1205 Li1144 1.970 . S
O1205 Li1145 1.956 . S
O1205 Li1147 1.961 . S
O1205 C1154 1.325 . S
O1206 Li1144 1.961 . S
O1206 Li1146 1.956 . S
O1206 Li1147 1.970 . S
O1206 C1176 1.325 . S
O1207 Li1145 1.961 1_556 S
O1207 Li1146 1.970 1_556 S
O1207 Li1147 1.956 1_556 S
O1207 C1182 1.325 . S
H1208 C1150 0.929 . S
H1209 C1151 0.930 . S
H1210 C1152 0.930 . S
H1211 C1153 0.930 . S
H1212 C1155 0.930 . S
H1213 C1157 0.929 . S
H1214 C1158 0.930 . S
H1215 C1159 0.930 . S
H1216 C1162 0.930 . S
H1217 C1165 0.929 . S
H1218 C1170 0.929 1_556 S
H1219 C1171 0.930 . S
H1220 C1178 0.929 . S
H1221 C1179 0.930 . S
H1222 C1180 0.930 . S
H1223 C1181 0.930 . S
H1224 C1183 0.929 . S
H1225 C1184 0.930 . S
H1226 C1185 0.930 . S
H1227 C1186 0.930 . S
H1228 C1190 0.929 . S
H1229 C1192 0.930 . S
H1230 C1198 0.929 . S
H1231 C1199 0.930 . S
Li1232 N1249 1.990 . S
Li1232 O1292 1.956 . S
Li1232 O1293 1.970 . S
Li1232 O1294 1.961 . S
Li1233 N1257 1.990 . S
Li1233 O1292 1.970 . S
Li1233 O1293 1.956 . S
Li1233 O1295 1.961 . S
Li1234 N1279 1.990 . S
Li1234 O1292 1.961 . S
Li1234 O1294 1.956 . S
Li1234 O1295 1.970 . S
Li1235 N1285 1.990 . S
Li1235 O1293 1.961 . S
Li1235 O1294 1.970 . S
Li1235 O1295 1.956 . S
C1236 C1238 1.348 . S
C1236 C1239 1.356 . S
C1236 O1292 1.325 . S
N1237 C1240 1.314 . S
N1237 C1241 1.279 . S
C1238 C1236 1.348 . S
C1238 C1240 1.353 . S
C1238 H1296 0.929 . S
C1239 C1236 1.356 . S
C1239 C1241 1.358 . S
C1239 H1297 0.930 . S
C1240 N1237 1.314 . S
C1240 C1238 1.353 . S
C1240 H1298 0.930 . S
C1241 N1237 1.279 . S
C1241 C1239 1.358 . S
C1241 H1299 0.930 . S
C1242 C1245 1.348 . S
C1242 C1246 1.356 . S
C1242 O1293 1.325 . S
C1243 N1244 1.279 . S
C1243 C1246 1.358 . S
C1243 H1300 0.930 . S
N1244 C1243 1.279 . S
N1244 C1247 1.314 . S
C1245 C1242 1.348 . S
C1245 C1247 1.353 . S
C1245 H1301 0.929 . S
C1246 C1242 1.356 . S
C1246 C1243 1.358 . S
C1246 H1302 0.930 . S
C1247 N1244 1.314 . S
C1247 C1245 1.353 . S
C1247 H1303 0.930 . S
C1248 N1249 1.314 . S
C1248 C1253 1.353 . S
C1248 H1254 0.930 . S
N1249 Li1232 1.990 . S
N1249 C1248 1.314 . S
N1249 C1251 1.279 . S
C1250 C1251 1.358 . S
C1250 C1252 1.356 . S
C1250 H1304 0.930 . S
C1251 N1249 1.279 . S
C1251 C1250 1.358 . S
C1251 H1255 0.930 . S
C1252 C1250 1.356 . S
C1252 C1253 1.348 . S
C1253 C1248 1.353 . S
C1253 C1252 1.348 . S
C1253 H1305 0.929 . S
H1254 C1248 0.930 . S
H1255 C1251 0.930 . S
C1256 N1257 1.314 . S
C1256 C1258 1.353 . S
C1256 H1262 0.930 . S
N1257 Li1233 1.990 . S
N1257 C1256 1.314 . S
N1257 C1260 1.279 . S
C1258 C1256 1.353 . S
C1258 C1261 1.348 . S
C1258 H1306 0.929 . S
C1259 C1260 1.358 . S
C1259 C1261 1.356 . S
C1259 H1307 0.930 . S
C1260 N1257 1.279 . S
C1260 C1259 1.358 . S
C1260 H1263 0.930 . S
C1261 C1258 1.348 . S
C1261 C1259 1.356 . S
H1262 C1256 0.930 . S
H1263 C1260 0.930 . S
C1264 C1266 1.348 . S
C1264 C1267 1.356 . S
C1264 O1294 1.325 . S
N1265 C1268 1.314 . S
N1265 C1269 1.279 . S
C1266 C1264 1.348 . S
C1266 C1268 1.353 . S
C1266 H1308 0.929 . S
C1267 C1264 1.356 . S
C1267 C1269 1.358 . S
C1267 H1309 0.930 . S
C1268 N1265 1.314 . S
C1268 C1266 1.353 . S
C1268 H1310 0.930 . S
C1269 N1265 1.279 . S
C1269 C1267 1.358 . S
C1269 H1311 0.930 . S
C1270 C1271 1.348 . S
C1270 C1272 1.356 . S
C1270 O1295 1.325 . S
C1271 C1270 1.348 . S
C1271 C1273 1.353 . S
C1271 H1312 0.929 . S
C1272 C1270 1.356 . S
C1272 C1274 1.358 . S
C1272 H1313 0.930 . S
C1273 C1271 1.353 . S
C1273 N1275 1.314 . S
C1273 H1314 0.930 . S
C1274 C1272 1.358 . S
C1274 N1275 1.279 . S
C1274 H1315 0.930 . S
N1275 C1273 1.314 . S
N1275 C1274 1.279 . S
C1276 C1278 1.353 . S
C1276 N1279 1.314 . S
C1276 H1282 0.930 . S
C1277 N1279 1.279 . S
C1277 C1280 1.358 . S
C1277 H1283 0.930 . S
C1278 C1276 1.353 . S
C1278 C1281 1.348 . S
C1278 H1316 0.929 . S
N1279 Li1234 1.990 . S
N1279 C1276 1.314 . S
N1279 C1277 1.279 . S
C1280 C1277 1.358 . S
C1280 C1281 1.356 . S
C1280 H1317 0.930 . S
C1281 C1278 1.348 . S
C1281 C1280 1.356 . S
H1282 C1276 0.930 . S
H1283 C1277 0.930 . S
C1284 N1285 1.314 . S
C1284 C1286 1.353 . S
C1284 H1290 0.930 . S
N1285 Li1235 1.990 . S
N1285 C1284 1.314 . S
N1285 C1288 1.279 . S
C1286 C1284 1.353 . S
C1286 C1289 1.348 . S
C1286 H1318 0.929 . S
C1287 C1288 1.358 . S
C1287 C1289 1.356 . S
C1287 H1319 0.930 . S
C1288 N1285 1.279 . S
C1288 C1287 1.358 . S
C1288 H1291 0.930 . S
C1289 C1286 1.348 . S
C1289 C1287 1.356 . S
H1290 C1284 0.930 . S
H1291 C1288 0.930 . S
O1292 Li1232 1.956 . S
O1292 Li1233 1.970 . S
O1292 Li1234 1.961 . S
O1292 C1236 1.325 . S
O1293 Li1232 1.970 . S
O1293 Li1233 1.956 . S
O1293 Li1235 1.961 . S
O1293 C1242 1.325 . S
O1294 Li1232 1.961 . S
O1294 Li1234 1.956 . S
O1294 Li1235 1.970 . S
O1294 C1264 1.325 . S
O1295 Li1233 1.961 . S
O1295 Li1234 1.970 . S
O1295 Li1235 1.956 . S
O1295 C1270 1.325 . S
H1296 C1238 0.929 . S
H1297 C1239 0.930 . S
H1298 C1240 0.930 . S
H1299 C1241 0.930 . S
H1300 C1243 0.930 . S
H1301 C1245 0.929 . S
H1302 C1246 0.930 . S
H1303 C1247 0.930 . S
H1304 C1250 0.930 . S
H1305 C1253 0.929 . S
H1306 C1258 0.929 . S
H1307 C1259 0.930 . S
H1308 C1266 0.929 . S
H1309 C1267 0.930 . S
H1310 C1268 0.930 . S
H1311 C1269 0.930 . S
H1312 C1271 0.929 . S
H1313 C1272 0.930 . S
H1314 C1273 0.930 . S
H1315 C1274 0.930 . S
H1316 C1278 0.929 . S
H1317 C1280 0.930 . S
H1318 C1286 0.929 . S
H1319 C1287 0.930 . S
Li1320 N1337 1.990 . S
Li1320 O1380 1.956 . S
Li1320 O1381 1.970 . S
Li1320 O1382 1.961 . S
Li1321 N1345 1.990 . S
Li1321 O1380 1.970 . S
Li1321 O1381 1.956 . S
Li1321 O1383 1.961 . S
Li1322 N1367 1.990 . S
Li1322 O1380 1.961 . S
Li1322 O1382 1.956 . S
Li1322 O1383 1.970 . S
Li1323 N1373 1.990 . S
Li1323 O1381 1.961 . S
Li1323 O1382 1.970 . S
Li1323 O1383 1.956 . S
C1324 C1326 1.348 . S
C1324 C1327 1.356 . S
C1324 O1380 1.325 . S
N1325 C1328 1.314 . S
N1325 C1329 1.279 . S
C1326 C1324 1.348 . S
C1326 C1328 1.353 . S
C1326 H1384 0.929 . S
C1327 C1324 1.356 . S
C1327 C1329 1.358 . S
C1327 H1385 0.930 . S
C1328 N1325 1.314 . S
C1328 C1326 1.353 . S
C1328 H1386 0.930 . S
C1329 N1325 1.279 . S
C1329 C1327 1.358 . S
C1329 H1387 0.930 1_565 S
C1330 C1333 1.348 . S
C1330 C1334 1.356 . S
C1330 O1381 1.325 . S
C1331 N1332 1.279 . S
C1331 C1334 1.358 . S
C1331 H1388 0.930 . S
N1332 C1331 1.279 . S
N1332 C1335 1.314 . S
C1333 C1330 1.348 . S
C1333 C1335 1.353 . S
C1333 H1389 0.929 . S
C1334 C1330 1.356 . S
C1334 C1331 1.358 . S
C1334 H1390 0.930 . S
C1335 N1332 1.314 . S
C1335 C1333 1.353 . S
C1335 H1391 0.930 . S
C1336 N1337 1.314 . S
C1336 C1341 1.353 . S
C1336 H1342 0.930 . S
N1337 Li1320 1.990 . S
N1337 C1336 1.314 . S
N1337 C1339 1.279 . S
C1338 C1339 1.358 . S
C1338 C1340 1.356 . S
C1338 H1392 0.930 . S
C1339 N1337 1.279 . S
C1339 C1338 1.358 . S
C1339 H1343 0.930 . S
C1340 C1338 1.356 . S
C1340 C1341 1.348 . S
C1341 C1336 1.353 . S
C1341 C1340 1.348 . S
C1341 H1393 0.929 . S
H1342 C1336 0.930 . S
H1343 C1339 0.930 . S
C1344 N1345 1.314 . S
C1344 C1346 1.353 . S
C1344 H1350 0.930 . S
N1345 Li1321 1.990 . S
N1345 C1344 1.314 . S
N1345 C1348 1.279 . S
C1346 C1344 1.353 . S
C1346 C1349 1.348 . S
C1346 H1394 0.929 . S
C1347 C1348 1.358 . S
C1347 C1349 1.356 . S
C1347 H1395 0.930 . S
C1348 N1345 1.279 . S
C1348 C1347 1.358 . S
C1348 H1351 0.930 . S
C1349 C1346 1.348 . S
C1349 C1347 1.356 . S
H1350 C1344 0.930 . S
H1351 C1348 0.930 . S
C1352 C1354 1.348 . S
C1352 C1355 1.356 . S
C1352 O1382 1.325 . S
N1353 C1356 1.314 . S
N1353 C1357 1.279 . S
C1354 C1352 1.348 . S
C1354 C1356 1.353 . S
C1354 H1396 0.929 . S
C1355 C1352 1.356 . S
C1355 C1357 1.358 . S
C1355 H1397 0.930 . S
C1356 N1353 1.314 . S
C1356 C1354 1.353 . S
C1356 H1398 0.930 . S
C1357 N1353 1.279 . S
C1357 C1355 1.358 . S
C1357 H1399 0.930 . S
C1358 C1359 1.348 . S
C1358 C1360 1.356 . S
C1358 O1383 1.325 . S
C1359 C1358 1.348 . S
C1359 C1361 1.353 . S
C1359 H1400 0.929 . S
C1360 C1358 1.356 . S
C1360 C1362 1.358 . S
C1360 H1401 0.930 . S
C1361 C1359 1.353 . S
C1361 N1363 1.314 . S
C1361 H1402 0.930 . S
C1362 C1360 1.358 . S
C1362 N1363 1.279 . S
C1362 H1403 0.930 . S
N1363 C1361 1.314 . S
N1363 C1362 1.279 . S
C1364 C1366 1.353 . S
C1364 N1367 1.314 . S
C1364 H1370 0.930 . S
C1365 N1367 1.279 . S
C1365 C1368 1.358 . S
C1365 H1371 0.930 . S
C1366 C1364 1.353 . S
C1366 C1369 1.348 . S
C1366 H1404 0.929 . S
N1367 Li1322 1.990 . S
N1367 C1364 1.314 . S
N1367 C1365 1.279 . S
C1368 C1365 1.358 . S
C1368 C1369 1.356 . S
C1368 H1405 0.930 . S
C1369 C1366 1.348 . S
C1369 C1368 1.356 . S
H1370 C1364 0.930 . S
H1371 C1365 0.930 . S
C1372 N1373 1.314 . S
C1372 C1374 1.353 . S
C1372 H1378 0.930 . S
N1373 Li1323 1.990 . S
N1373 C1372 1.314 . S
N1373 C1376 1.279 . S
C1374 C1372 1.353 . S
C1374 C1377 1.348 . S
C1374 H1406 0.929 . S
C1375 C1376 1.358 . S
C1375 C1377 1.356 . S
C1375 H1407 0.930 . S
C1376 N1373 1.279 . S
C1376 C1375 1.358 . S
C1376 H1379 0.930 . S
C1377 C1374 1.348 . S
C1377 C1375 1.356 . S
H1378 C1372 0.930 . S
H1379 C1376 0.930 . S
O1380 Li1320 1.956 . S
O1380 Li1321 1.970 . S
O1380 Li1322 1.961 . S
O1380 C1324 1.325 . S
O1381 Li1320 1.970 . S
O1381 Li1321 1.956 . S
O1381 Li1323 1.961 . S
O1381 C1330 1.325 . S
O1382 Li1320 1.961 . S
O1382 Li1322 1.956 . S
O1382 Li1323 1.970 . S
O1382 C1352 1.325 . S
O1383 Li1321 1.961 . S
O1383 Li1322 1.970 . S
O1383 Li1323 1.956 . S
O1383 C1358 1.325 . S
H1384 C1326 0.929 . S
H1385 C1327 0.930 . S
H1386 C1328 0.930 . S
H1387 C1329 0.930 1_545 S
H1388 C1331 0.930 . S
H1389 C1333 0.929 . S
H1390 C1334 0.930 . S
H1391 C1335 0.930 . S
H1392 C1338 0.930 . S
H1393 C1341 0.929 . S
H1394 C1346 0.929 . S
H1395 C1347 0.930 . S
H1396 C1354 0.929 . S
H1397 C1355 0.930 . S
H1398 C1356 0.930 . S
H1399 C1357 0.930 . S
H1400 C1359 0.929 . S
H1401 C1360 0.930 . S
H1402 C1361 0.930 . S
H1403 C1362 0.930 . S
H1404 C1366 0.929 . S
H1405 C1368 0.930 . S
H1406 C1374 0.929 . S
H1407 C1375 0.930 . S
Li1408 N1425 1.990 1_655 S
Li1408 O1468 1.956 . S
Li1408 O1469 1.970 . S
Li1408 O1470 1.961 . S
Li1409 N1433 1.990 1_545 S
Li1409 O1468 1.970 . S
Li1409 O1469 1.956 . S
Li1409 O1471 1.961 . S
Li1410 N1455 1.990 1_655 S
Li1410 O1468 1.961 . S
Li1410 O1470 1.956 . S
Li1410 O1471 1.970 . S
Li1411 N1461 1.990 . S
Li1411 O1469 1.961 . S
Li1411 O1470 1.970 . S
Li1411 O1471 1.956 . S
C1412 C1414 1.348 1_545 S
C1412 C1415 1.356 1_655 S
C1412 O1468 1.325 . S
N1413 C1416 1.354 . S
N1413 C1417 1.279 1_565 S
C1414 C1412 1.348 1_565 S
C1414 C1416 1.322 1_655 S
C1414 H1472 0.929 . S
C1415 C1412 1.356 1_455 S
C1415 C1417 1.358 . S
C1415 H1473 0.930 . S
C1416 N1413 1.354 . S
C1416 C1414 1.322 1_455 S
C1416 H1474 0.921 1_455 S
C1417 N1413 1.279 1_545 S
C1417 C1415 1.358 . S
C1417 H1475 0.930 . S
C1418 C1421 1.348 . S
C1418 C1422 1.356 . S
C1418 O1469 1.325 . S
C1419 N1420 1.279 . S
C1419 C1422 1.358 . S
C1419 H1476 0.930 . S
N1420 C1419 1.279 . S
N1420 C1423 1.314 . S
C1421 C1418 1.348 . S
C1421 C1423 1.353 . S
C1421 H1477 0.929 . S
C1422 C1418 1.356 . S
C1422 C1419 1.358 . S
C1422 H1478 0.930 . S
C1423 N1420 1.314 . S
C1423 C1421 1.353 . S
C1423 H1479 0.930 . S
C1424 N1425 1.314 . S
C1424 C1429 1.353 . S
C1424 H1430 0.930 . S
N1425 Li1408 1.990 1_455 S
N1425 C1424 1.314 . S
N1425 C1427 1.279 . S
C1426 C1427 1.358 . S
C1426 C1428 1.356 . S
C1426 H1480 0.930 . S
C1427 N1425 1.279 . S
C1427 C1426 1.358 . S
C1427 H1431 0.930 . S
C1428 C1426 1.356 . S
C1428 C1429 1.348 . S
C1429 C1424 1.353 . S
C1429 C1428 1.348 . S
C1429 H1481 0.929 . S
H1430 C1424 0.930 . S
H1431 C1427 0.930 . S
C1432 N1433 1.314 . S
C1432 C1434 1.353 . S
C1432 H1438 0.930 . S
N1433 Li1409 1.990 1_565 S
N1433 C1432 1.314 . S
N1433 C1436 1.279 . S
C1434 C1432 1.353 . S
C1434 C1437 1.348 . S
C1434 H1482 0.929 . S
C1435 C1436 1.358 . S
C1435 C1437 1.356 . S
C1435 H1483 0.930 . S
C1436 N1433 1.279 . S
C1436 C1435 1.358 . S
C1436 H1439 0.930 . S
C1437 C1434 1.348 . S
C1437 C1435 1.356 . S
H1438 C1432 0.930 . S
H1439 C1436 0.930 . S
C1440 C1442 1.348 . S
C1440 C1443 1.356 . S
C1440 O1470 1.325 1_455 S
N1441 C1444 1.314 . S
N1441 C1445 1.279 . S
C1442 C1440 1.348 . S
C1442 C1444 1.353 . S
C1442 H1484 0.929 1_455 S
C1443 C1440 1.356 . S
C1443 C1445 1.358 . S
C1443 H1485 0.930 . S
C1444 N1441 1.314 . S
C1444 C1442 1.353 . S
C1444 H1486 0.930 . S
C1445 N1441 1.279 . S
C1445 C1443 1.358 . S
C1445 H1487 0.930 . S
C1446 C1447 1.348 . S
C1446 C1448 1.356 . S
C1446 O1471 1.325 . S
C1447 C1446 1.348 . S
C1447 C1449 1.353 . S
C1447 H1488 0.929 . S
C1448 C1446 1.356 . S
C1448 C1450 1.358 . S
C1448 H1489 0.930 . S
C1449 C1447 1.353 . S
C1449 N1451 1.314 . S
C1449 H1490 0.930 . S
C1450 C1448 1.358 . S
C1450 N1451 1.279 . S
C1450 H1491 0.930 . S
N1451 C1449 1.314 . S
N1451 C1450 1.279 . S
C1452 C1454 1.353 . S
C1452 N1455 1.314 . S
C1452 H1458 0.930 1_455 S
C1453 N1455 1.279 . S
C1453 C1456 1.358 . S
C1453 H1459 0.930 . S
C1454 C1452 1.353 . S
C1454 C1457 1.348 . S
C1454 H1492 0.929 . S
N1455 Li1410 1.990 1_455 S
N1455 C1452 1.314 . S
N1455 C1453 1.279 . S
C1456 C1453 1.358 . S
C1456 C1457 1.356 . S
C1456 H1493 0.930 . S
C1457 C1454 1.348 . S
C1457 C1456 1.356 . S
H1458 C1452 0.930 1_655 S
H1459 C1453 0.930 . S
C1460 N1461 1.314 . S
C1460 C1462 1.353 . S
C1460 H1466 0.930 . S
N1461 Li1411 1.990 . S
N1461 C1460 1.314 . S
N1461 C1464 1.279 . S
C1462 C1460 1.353 . S
C1462 C1465 1.348 . S
C1462 H1494 0.929 . S
C1463 C1464 1.358 . S
C1463 C1465 1.356 . S
C1463 H1495 0.930 . S
C1464 N1461 1.279 . S
C1464 C1463 1.358 . S
C1464 H1467 0.930 . S
C1465 C1462 1.348 . S
C1465 C1463 1.356 . S
H1466 C1460 0.930 . S
H1467 C1464 0.930 . S
O1468 Li1408 1.956 . S
O1468 Li1409 1.970 . S
O1468 Li1410 1.961 . S
O1468 C1412 1.325 . S
O1469 Li1408 1.970 . S
O1469 Li1409 1.956 . S
O1469 Li1411 1.961 . S
O1469 C1418 1.325 . S
O1470 Li1408 1.961 . S
O1470 Li1410 1.956 . S
O1470 Li1411 1.970 . S
O1470 C1440 1.325 1_655 S
O1471 Li1409 1.961 . S
O1471 Li1410 1.970 . S
O1471 Li1411 1.956 . S
O1471 C1446 1.325 . S
H1472 C1414 0.929 . S
H1473 C1415 0.930 . S
H1474 C1416 0.921 1_655 S
H1475 C1417 0.930 . S
H1476 C1419 0.930 . S
H1477 C1421 0.929 . S
H1478 C1422 0.930 . S
H1479 C1423 0.930 . S
H1480 C1426 0.930 . S
H1481 C1429 0.929 . S
H1482 C1434 0.929 . S
H1483 C1435 0.930 . S
H1484 C1442 0.929 1_655 S
H1485 C1443 0.930 . S
H1486 C1444 0.930 . S
H1487 C1445 0.930 . S
H1488 C1447 0.929 . S
H1489 C1448 0.930 . S
H1490 C1449 0.930 . S
H1491 C1450 0.930 . S
H1492 C1454 0.929 . S
H1493 C1456 0.930 . S
H1494 C1462 0.929 . S
H1495 C1463 0.930 . S
Li1496 N1513 1.990 . S
Li1496 O1556 1.956 . S
Li1496 O1557 1.970 . S
Li1496 O1558 1.961 . S
Li1497 N1521 1.990 . S
Li1497 O1556 1.970 . S
Li1497 O1557 1.956 . S
Li1497 O1559 1.961 . S
Li1498 N1543 1.990 . S
Li1498 O1556 1.961 . S
Li1498 O1558 1.956 . S
Li1498 O1559 1.970 . S
Li1499 N1549 1.990 . S
Li1499 O1557 1.961 . S
Li1499 O1558 1.970 . S
Li1499 O1559 1.956 . S
C1500 C1502 1.348 . S
C1500 C1503 1.356 . S
C1500 O1556 1.325 . S
N1501 C1504 1.314 . S
N1501 C1505 1.279 . S
C1502 C1500 1.348 . S
C1502 C1504 1.353 . S
C1502 H1560 0.929 . S
C1503 C1500 1.356 . S
C1503 C1505 1.358 . S
C1503 H1561 0.930 . S
C1504 N1501 1.314 . S
C1504 C1502 1.353 . S
C1504 H1562 0.930 . S
C1505 N1501 1.279 . S
C1505 C1503 1.358 . S
C1505 H1563 0.930 . S
C1506 C1509 1.348 . S
C1506 C1510 1.356 . S
C1506 O1557 1.325 . S
C1507 N1508 1.279 . S
C1507 C1510 1.358 . S
C1507 H1564 0.930 . S
N1508 C1507 1.279 . S
N1508 C1511 1.314 . S
C1509 C1506 1.348 . S
C1509 C1511 1.353 . S
C1509 H1565 0.929 . S
C1510 C1506 1.356 . S
C1510 C1507 1.358 . S
C1510 H1566 0.930 . S
C1511 N1508 1.314 . S
C1511 C1509 1.353 . S
C1511 H1567 0.930 . S
C1512 N1513 1.314 . S
C1512 C1517 1.353 . S
C1512 H1518 0.930 . S
N1513 Li1496 1.990 . S
N1513 C1512 1.314 . S
N1513 C1515 1.279 . S
C1514 C1515 1.358 . S
C1514 C1516 1.356 . S
C1514 H1568 0.930 . S
C1515 N1513 1.279 . S
C1515 C1514 1.358 . S
C1515 H1519 0.930 . S
C1516 C1514 1.356 . S
C1516 C1517 1.348 . S
C1517 C1512 1.353 . S
C1517 C1516 1.348 . S
C1517 H1569 0.929 . S
H1518 C1512 0.930 . S
H1519 C1515 0.930 . S
C1520 N1521 1.314 . S
C1520 C1522 1.353 . S
C1520 H1526 0.930 . S
N1521 Li1497 1.990 . S
N1521 C1520 1.314 . S
N1521 C1524 1.279 . S
C1522 C1520 1.353 . S
C1522 C1525 1.348 . S
C1522 H1570 0.929 . S
C1523 C1524 1.358 . S
C1523 C1525 1.356 . S
C1523 H1571 0.930 . S
C1524 N1521 1.279 . S
C1524 C1523 1.358 . S
C1524 H1527 0.930 . S
C1525 C1522 1.348 . S
C1525 C1523 1.356 . S
H1526 C1520 0.930 . S
H1527 C1524 0.930 . S
C1528 C1530 1.348 . S
C1528 C1531 1.356 . S
C1528 O1558 1.325 . S
N1529 C1532 1.314 . S
N1529 C1533 1.279 . S
C1530 C1528 1.348 . S
C1530 C1532 1.353 . S
C1530 H1572 0.929 . S
C1531 C1528 1.356 . S
C1531 C1533 1.358 . S
C1531 H1573 0.930 . S
C1532 N1529 1.314 . S
C1532 C1530 1.353 . S
C1532 H1574 0.930 . S
C1533 N1529 1.279 . S
C1533 C1531 1.358 . S
C1533 H1575 0.930 . S
C1534 C1535 1.348 . S
C1534 C1536 1.356 . S
C1534 O1559 1.325 . S
C1535 C1534 1.348 . S
C1535 C1537 1.353 . S
C1535 H1576 0.929 . S
C1536 C1534 1.356 . S
C1536 C1538 1.358 . S
C1536 H1577 0.930 . S
C1537 C1535 1.353 . S
C1537 N1539 1.314 . S
C1537 H1578 0.930 . S
C1538 C1536 1.358 . S
C1538 N1539 1.279 . S
C1538 H1579 0.930 . S
N1539 C1537 1.314 . S
N1539 C1538 1.279 . S
C1540 C1542 1.353 . S
C1540 N1543 1.314 . S
C1540 H1546 0.930 . S
C1541 N1543 1.279 . S
C1541 C1544 1.358 . S
C1541 H1547 0.930 . S
C1542 C1540 1.353 . S
C1542 C1545 1.348 . S
C1542 H1580 0.929 . S
N1543 Li1498 1.990 . S
N1543 C1540 1.314 . S
N1543 C1541 1.279 . S
C1544 C1541 1.358 . S
C1544 C1545 1.356 . S
C1544 H1581 0.930 . S
C1545 C1542 1.348 . S
C1545 C1544 1.356 . S
H1546 C1540 0.930 . S
H1547 C1541 0.930 . S
C1548 N1549 1.314 . S
C1548 C1550 1.353 . S
C1548 H1554 0.930 . S
N1549 Li1499 1.990 . S
N1549 C1548 1.314 . S
N1549 C1552 1.279 . S
C1550 C1548 1.353 . S
C1550 C1553 1.348 . S
C1550 H1582 0.929 . S
C1551 C1552 1.358 . S
C1551 C1553 1.356 . S
C1551 H1583 0.930 . S
C1552 N1549 1.279 . S
C1552 C1551 1.358 . S
C1552 H1555 0.930 . S
C1553 C1550 1.348 . S
C1553 C1551 1.356 . S
H1554 C1548 0.930 . S
H1555 C1552 0.930 . S
O1556 Li1496 1.956 . S
O1556 Li1497 1.970 . S
O1556 Li1498 1.961 . S
O1556 C1500 1.325 . S
O1557 Li1496 1.970 . S
O1557 Li1497 1.956 . S
O1557 Li1499 1.961 . S
O1557 C1506 1.325 . S
O1558 Li1496 1.961 . S
O1558 Li1498 1.956 . S
O1558 Li1499 1.970 . S
O1558 C1528 1.325 . S
O1559 Li1497 1.961 . S
O1559 Li1498 1.970 . S
O1559 Li1499 1.956 . S
O1559 C1534 1.325 . S
H1560 C1502 0.929 . S
H1561 C1503 0.930 . S
H1562 C1504 0.930 . S
H1563 C1505 0.930 . S
H1564 C1507 0.930 . S
H1565 C1509 0.929 . S
H1566 C1510 0.930 . S
H1567 C1511 0.930 . S
H1568 C1514 0.930 . S
H1569 C1517 0.929 . S
H1570 C1522 0.929 . S
H1571 C1523 0.930 . S
H1572 C1530 0.929 . S
H1573 C1531 0.930 . S
H1574 C1532 0.930 . S
H1575 C1533 0.930 . S
H1576 C1535 0.929 . S
H1577 C1536 0.930 . S
H1578 C1537 0.930 . S
H1579 C1538 0.930 . S
H1580 C1542 0.929 . S
H1581 C1544 0.930 . S
H1582 C1550 0.929 . S
H1583 C1551 0.930 . S
Li1584 N1601 1.990 . S
Li1584 O1644 1.956 . S
Li1584 O1645 1.970 . S
Li1584 O1646 1.961 . S
Li1585 N1609 1.990 . S
Li1585 O1644 1.970 . S
Li1585 O1645 1.956 . S
Li1585 O1647 1.961 . S
Li1586 N1631 1.990 . S
Li1586 O1644 1.961 . S
Li1586 O1646 1.956 . S
Li1586 O1647 1.970 . S
Li1587 N1637 1.990 . S
Li1587 O1645 1.961 . S
Li1587 O1646 1.970 . S
Li1587 O1647 1.956 . S
C1588 C1590 1.348 . S
C1588 C1591 1.356 . S
C1588 O1644 1.325 . S
N1589 C1592 1.314 . S
N1589 C1593 1.279 . S
C1590 C1588 1.348 . S
C1590 C1592 1.353 . S
C1590 H1648 0.929 . S
C1591 C1588 1.356 . S
C1591 C1593 1.358 . S
C1591 H1649 0.930 . S
C1592 N1589 1.314 . S
C1592 C1590 1.353 . S
C1592 H1650 0.930 . S
C1593 N1589 1.279 . S
C1593 C1591 1.358 . S
C1593 H1651 0.930 . S
C1594 C1597 1.348 . S
C1594 C1598 1.356 . S
C1594 O1645 1.325 . S
C1595 N1596 1.279 . S
C1595 C1598 1.358 . S
C1595 H1652 0.930 . S
N1596 C1595 1.279 . S
N1596 C1599 1.314 . S
C1597 C1594 1.348 . S
C1597 C1599 1.353 . S
C1597 H1653 0.929 . S
C1598 C1594 1.356 . S
C1598 C1595 1.358 . S
C1598 H1654 0.930 . S
C1599 N1596 1.314 . S
C1599 C1597 1.353 . S
C1599 H1655 0.930 . S
C1600 N1601 1.314 . S
C1600 C1605 1.353 . S
C1600 H1606 0.930 . S
N1601 Li1584 1.990 . S
N1601 C1600 1.314 . S
N1601 C1603 1.279 . S
C1602 C1603 1.358 . S
C1602 C1604 1.356 . S
C1602 H1656 0.930 . S
C1603 N1601 1.279 . S
C1603 C1602 1.358 . S
C1603 H1607 0.930 . S
C1604 C1602 1.356 . S
C1604 C1605 1.348 . S
C1605 C1600 1.353 . S
C1605 C1604 1.348 . S
C1605 H1657 0.929 . S
H1606 C1600 0.930 . S
H1607 C1603 0.930 . S
C1608 N1609 1.314 . S
C1608 C1610 1.353 . S
C1608 H1614 0.930 . S
N1609 Li1585 1.990 . S
N1609 C1608 1.314 . S
N1609 C1612 1.279 . S
C1610 C1608 1.353 . S
C1610 C1613 1.348 . S
C1610 H1658 0.929 . S
C1611 C1612 1.358 . S
C1611 C1613 1.356 . S
C1611 H1659 0.930 . S
C1612 N1609 1.279 . S
C1612 C1611 1.358 . S
C1612 H1615 0.930 . S
C1613 C1610 1.348 . S
C1613 C1611 1.356 . S
H1614 C1608 0.930 . S
H1615 C1612 0.930 . S
C1616 C1618 1.348 . S
C1616 C1619 1.356 . S
C1616 O1646 1.325 . S
N1617 C1620 1.314 . S
N1617 C1621 1.279 . S
C1618 C1616 1.348 . S
C1618 C1620 1.353 . S
C1618 H1660 0.929 . S
C1619 C1616 1.356 . S
C1619 C1621 1.358 . S
C1619 H1661 0.930 . S
C1620 N1617 1.314 . S
C1620 C1618 1.353 . S
C1620 H1662 0.930 . S
C1621 N1617 1.279 . S
C1621 C1619 1.358 . S
C1621 H1663 0.930 . S
C1622 C1623 1.348 . S
C1622 C1624 1.356 . S
C1622 O1647 1.325 . S
C1623 C1622 1.348 . S
C1623 C1625 1.353 . S
C1623 H1664 0.929 . S
C1624 C1622 1.356 . S
C1624 C1626 1.358 . S
C1624 H1665 0.930 . S
C1625 C1623 1.353 . S
C1625 N1627 1.314 . S
C1625 H1666 0.930 . S
C1626 C1624 1.358 . S
C1626 N1627 1.279 . S
C1626 H1667 0.930 . S
N1627 C1625 1.314 . S
N1627 C1626 1.279 . S
C1628 C1630 1.353 . S
C1628 N1631 1.314 . S
C1628 H1634 0.930 . S
C1629 N1631 1.279 . S
C1629 C1632 1.358 . S
C1629 H1635 0.930 . S
C1630 C1628 1.353 . S
C1630 C1633 1.348 . S
C1630 H1668 0.929 . S
N1631 Li1586 1.990 . S
N1631 C1628 1.314 . S
N1631 C1629 1.279 . S
C1632 C1629 1.358 . S
C1632 C1633 1.356 . S
C1632 H1669 0.930 . S
C1633 C1630 1.348 . S
C1633 C1632 1.356 . S
H1634 C1628 0.930 . S
H1635 C1629 0.930 . S
C1636 N1637 1.314 . S
C1636 C1638 1.353 . S
C1636 H1642 0.930 . S
N1637 Li1587 1.990 . S
N1637 C1636 1.314 . S
N1637 C1640 1.279 . S
C1638 C1636 1.353 . S
C1638 C1641 1.348 . S
C1638 H1670 0.929 . S
C1639 C1640 1.358 . S
C1639 C1641 1.356 . S
C1639 H1671 0.930 . S
C1640 N1637 1.279 . S
C1640 C1639 1.358 . S
C1640 H1643 0.930 . S
C1641 C1638 1.348 . S
C1641 C1639 1.356 . S
H1642 C1636 0.930 . S
H1643 C1640 0.930 . S
O1644 Li1584 1.956 . S
O1644 Li1585 1.970 . S
O1644 Li1586 1.961 . S
O1644 C1588 1.325 . S
O1645 Li1584 1.970 . S
O1645 Li1585 1.956 . S
O1645 Li1587 1.961 . S
O1645 C1594 1.325 . S
O1646 Li1584 1.961 . S
O1646 Li1586 1.956 . S
O1646 Li1587 1.970 . S
O1646 C1616 1.325 . S
O1647 Li1585 1.961 . S
O1647 Li1586 1.970 . S
O1647 Li1587 1.956 . S
O1647 C1622 1.325 . S
H1648 C1590 0.929 . S
H1649 C1591 0.930 . S
H1650 C1592 0.930 . S
H1651 C1593 0.930 . S
H1652 C1595 0.930 . S
H1653 C1597 0.929 . S
H1654 C1598 0.930 . S
H1655 C1599 0.930 . S
H1656 C1602 0.930 . S
H1657 C1605 0.929 . S
H1658 C1610 0.929 . S
H1659 C1611 0.930 . S
H1660 C1618 0.929 . S
H1661 C1619 0.930 . S
H1662 C1620 0.930 . S
H1663 C1621 0.930 . S
H1664 C1623 0.929 . S
H1665 C1624 0.930 . S
H1666 C1625 0.930 . S
H1667 C1626 0.930 . S
H1668 C1630 0.929 . S
H1669 C1632 0.930 . S
H1670 C1638 0.929 . S
H1671 C1639 0.930 . S
Li1672 N1689 1.990 . S
Li1672 O1732 1.956 . S
Li1672 O1733 1.970 . S
Li1672 O1734 1.961 . S
Li1673 N1697 1.990 . S
Li1673 O1732 1.970 . S
Li1673 O1733 1.956 . S
Li1673 O1735 1.961 . S
Li1674 N1719 1.990 . S
Li1674 O1732 1.961 . S
Li1674 O1734 1.956 . S
Li1674 O1735 1.970 . S
Li1675 N1725 1.990 . S
Li1675 O1733 1.961 . S
Li1675 O1734 1.970 . S
Li1675 O1735 1.956 . S
C1676 C1678 1.348 . S
C1676 C1679 1.356 . S
C1676 O1732 1.325 . S
N1677 C1680 1.314 . S
N1677 C1681 1.279 . S
C1678 C1676 1.348 . S
C1678 C1680 1.353 . S
C1678 H1736 0.929 . S
C1679 C1676 1.356 . S
C1679 C1681 1.358 . S
C1679 H1737 0.930 . S
C1680 N1677 1.314 . S
C1680 C1678 1.353 . S
C1680 H1738 0.930 . S
C1681 N1677 1.279 . S
C1681 C1679 1.358 . S
C1681 H1739 0.930 . S
C1682 C1685 1.348 . S
C1682 C1686 1.356 . S
C1682 O1733 1.325 . S
C1683 N1684 1.279 . S
C1683 C1686 1.358 . S
C1683 H1740 0.930 . S
N1684 C1683 1.279 . S
N1684 C1687 1.314 . S
C1685 C1682 1.348 . S
C1685 C1687 1.353 . S
C1685 H1741 0.929 . S
C1686 C1682 1.356 . S
C1686 C1683 1.358 . S
C1686 H1742 0.930 . S
C1687 N1684 1.314 . S
C1687 C1685 1.353 . S
C1687 H1743 0.930 . S
C1688 N1689 1.314 . S
C1688 C1693 1.353 . S
C1688 H1694 0.930 . S
N1689 Li1672 1.990 . S
N1689 C1688 1.314 . S
N1689 C1691 1.279 . S
C1690 C1691 1.358 . S
C1690 C1692 1.356 . S
C1690 H1744 0.930 . S
C1691 N1689 1.279 . S
C1691 C1690 1.358 . S
C1691 H1695 0.930 . S
C1692 C1690 1.356 . S
C1692 C1693 1.348 . S
C1693 C1688 1.353 . S
C1693 C1692 1.348 . S
C1693 H1745 0.929 . S
H1694 C1688 0.930 . S
H1695 C1691 0.930 . S
C1696 N1697 1.314 . S
C1696 C1698 1.353 . S
C1696 H1702 0.930 . S
N1697 Li1673 1.990 . S
N1697 C1696 1.314 . S
N1697 C1700 1.279 . S
C1698 C1696 1.353 . S
C1698 C1701 1.348 . S
C1698 H1746 0.929 . S
C1699 C1700 1.358 . S
C1699 C1701 1.356 . S
C1699 H1747 0.930 . S
C1700 N1697 1.279 . S
C1700 C1699 1.358 . S
C1700 H1703 0.930 . S
C1701 C1698 1.348 . S
C1701 C1699 1.356 . S
H1702 C1696 0.930 . S
H1703 C1700 0.930 . S
C1704 C1706 1.348 1_545 S
C1704 C1707 1.356 . S
C1704 O1734 1.325 . S
N1705 C1708 1.314 . S
N1705 C1709 1.279 . S
C1706 C1704 1.348 1_565 S
C1706 C1708 1.353 . S
C1706 H1748 0.929 . S
C1707 C1704 1.356 . S
C1707 C1709 1.358 1_545 S
C1707 H1749 0.930 . S
C1708 N1705 1.314 . S
C1708 C1706 1.353 . S
C1708 H1750 0.930 . S
C1709 N1705 1.279 . S
C1709 C1707 1.358 1_565 S
C1709 H1751 0.930 . S
C1710 C1711 1.348 . S
C1710 C1712 1.356 . S
C1710 O1735 1.325 . S
C1711 C1710 1.348 . S
C1711 C1713 1.353 . S
C1711 H1752 0.929 . S
C1712 C1710 1.356 . S
C1712 C1714 1.358 . S
C1712 H1753 0.930 . S
C1713 C1711 1.353 . S
C1713 N1715 1.314 . S
C1713 H1754 0.930 . S
C1714 C1712 1.358 . S
C1714 N1715 1.279 . S
C1714 H1755 0.930 . S
N1715 C1713 1.314 . S
N1715 C1714 1.279 . S
C1716 C1718 1.353 . S
C1716 N1719 1.314 . S
C1716 H1722 0.930 . S
C1717 N1719 1.279 . S
C1717 C1720 1.358 . S
C1717 H1723 0.930 . S
C1718 C1716 1.353 . S
C1718 C1721 1.348 . S
C1718 H1756 0.929 . S
N1719 Li1674 1.990 . S
N1719 C1716 1.314 . S
N1719 C1717 1.279 . S
C1720 C1717 1.358 . S
C1720 C1721 1.356 . S
C1720 H1757 0.930 . S
C1721 C1718 1.348 . S
C1721 C1720 1.356 . S
H1722 C1716 0.930 . S
H1723 C1717 0.930 . S
C1724 N1725 1.314 . S
C1724 C1726 1.353 1_545 S
C1724 H1730 0.930 . S
N1725 Li1675 1.990 . S
N1725 C1724 1.314 . S
N1725 C1728 1.279 . S
C1726 C1724 1.353 1_565 S
C1726 C1729 1.348 . S
C1726 H1758 0.929 . S
C1727 C1728 1.358 1_565 S
C1727 C1729 1.356 . S
C1727 H1759 0.930 . S
C1728 N1725 1.279 . S
C1728 C1727 1.358 1_545 S
C1728 H1731 0.930 . S
C1729 C1726 1.348 . S
C1729 C1727 1.356 . S
H1730 C1724 0.930 . S
H1731 C1728 0.930 . S
O1732 Li1672 1.956 . S
O1732 Li1673 1.970 . S
O1732 Li1674 1.961 . S
O1732 C1676 1.325 . S
O1733 Li1672 1.970 . S
O1733 Li1673 1.956 . S
O1733 Li1675 1.961 . S
O1733 C1682 1.325 . S
O1734 Li1672 1.961 . S
O1734 Li1674 1.956 . S
O1734 Li1675 1.970 . S
O1734 C1704 1.325 . S
O1735 Li1673 1.961 . S
O1735 Li1674 1.970 . S
O1735 Li1675 1.956 . S
O1735 C1710 1.325 . S
H1736 C1678 0.929 . S
H1737 C1679 0.930 . S
H1738 C1680 0.930 . S
H1739 C1681 0.930 . S
H1740 C1683 0.930 . S
H1741 C1685 0.929 . S
H1742 C1686 0.930 . S
H1743 C1687 0.930 . S
H1744 C1690 0.930 . S
H1745 C1693 0.929 . S
H1746 C1698 0.929 . S
H1747 C1699 0.930 . S
H1748 C1706 0.929 . S
H1749 C1707 0.930 . S
H1750 C1708 0.930 . S
H1751 C1709 0.930 . S
H1752 C1711 0.929 . S
H1753 C1712 0.930 . S
H1754 C1713 0.930 . S
H1755 C1714 0.930 . S
H1756 C1718 0.929 . S
H1757 C1720 0.930 . S
H1758 C1726 0.929 . S
H1759 C1727 0.930 . S
Li1760 N1777 1.990 . S
Li1760 O1820 1.956 . S
Li1760 O1821 1.970 . S
Li1760 O1822 1.961 . S
Li1761 N1785 1.990 . S
Li1761 O1820 1.970 . S
Li1761 O1821 1.956 . S
Li1761 O1823 1.961 1_554 S
Li1762 N1807 1.990 . S
Li1762 O1820 1.961 1_556 S
Li1762 O1822 1.956 1_556 S
Li1762 O1823 1.970 . S
Li1763 N1813 1.990 . S
Li1763 O1821 1.961 1_556 S
Li1763 O1822 1.970 1_556 S
Li1763 O1823 1.956 . S
C1764 C1766 1.348 . S
C1764 C1767 1.356 . S
C1764 O1820 1.325 . S
N1765 C1768 1.314 . S
N1765 C1769 1.279 . S
C1766 C1764 1.348 . S
C1766 C1768 1.353 . S
C1766 H1824 0.929 . S
C1767 C1764 1.356 . S
C1767 C1769 1.358 . S
C1767 H1825 0.930 . S
C1768 N1765 1.314 . S
C1768 C1766 1.353 . S
C1768 H1826 0.930 . S
C1769 N1765 1.279 . S
C1769 C1767 1.358 . S
C1769 H1827 0.930 . S
C1770 C1773 1.348 . S
C1770 C1774 1.356 . S
C1770 O1821 1.325 . S
C1771 N1772 1.279 . S
C1771 C1774 1.358 . S
C1771 H1828 0.930 . S
N1772 C1771 1.279 . S
N1772 C1775 1.314 . S
C1773 C1770 1.348 . S
C1773 C1775 1.353 . S
C1773 H1829 0.929 . S
C1774 C1770 1.356 . S
C1774 C1771 1.358 . S
C1774 H1830 0.930 . S
C1775 N1772 1.314 . S
C1775 C1773 1.353 . S
C1775 H1831 0.930 . S
C1776 N1777 1.314 . S
C1776 C1781 1.353 . S
C1776 H1782 0.930 . S
N1777 Li1760 1.990 . S
N1777 C1776 1.314 . S
N1777 C1779 1.279 . S
C1778 C1779 1.358 . S
C1778 C1780 1.356 . S
C1778 H1832 0.930 . S
C1779 N1777 1.279 . S
C1779 C1778 1.358 . S
C1779 H1783 0.930 . S
C1780 C1778 1.356 . S
C1780 C1781 1.348 . S
C1781 C1776 1.353 . S
C1781 C1780 1.348 . S
C1781 H1833 0.929 . S
H1782 C1776 0.930 . S
H1783 C1779 0.930 . S
C1784 N1785 1.314 1_556 S
C1784 C1786 1.353 . S
C1784 H1790 0.930 . S
N1785 Li1761 1.990 . S
N1785 C1784 1.314 1_554 S
N1785 C1788 1.279 . S
C1786 C1784 1.353 . S
C1786 C1789 1.348 1_556 S
C1786 H1834 0.929 . S
C1787 C1788 1.358 . S
C1787 C1789 1.356 . S
C1787 H1835 0.930 . S
C1788 N1785 1.279 . S
C1788 C1787 1.358 . S
C1788 H1791 0.930 . S
C1789 C1786 1.348 1_554 S
C1789 C1787 1.356 . S
H1790 C1784 0.930 . S
H1791 C1788 0.930 . S
C1792 C1794 1.348 1_554 S
C1792 C1795 1.356 . S
C1792 O1822 1.325 . S
N1793 C1796 1.314 1_554 S
N1793 C1797 1.279 . S
C1794 C1792 1.348 1_556 S
C1794 C1796 1.353 . S
C1794 H1836 0.929 . S
C1795 C1792 1.356 . S
C1795 C1797 1.358 . S
C1795 H1837 0.930 . S
C1796 N1793 1.314 1_556 S
C1796 C1794 1.353 . S
C1796 H1838 0.930 . S
C1797 N1793 1.279 . S
C1797 C1795 1.358 . S
C1797 H1839 0.930 . S
C1798 C1799 1.348 . S
C1798 C1800 1.356 . S
C1798 O1823 1.325 . S
C1799 C1798 1.348 . S
C1799 C1801 1.353 . S
C1799 H1840 0.929 . S
C1800 C1798 1.356 . S
C1800 C1802 1.358 . S
C1800 H1841 0.930 . S
C1801 C1799 1.353 . S
C1801 N1803 1.314 . S
C1801 H1842 0.930 . S
C1802 C1800 1.358 . S
C1802 N1803 1.279 . S
C1802 H1843 0.930 . S
N1803 C1801 1.314 . S
N1803 C1802 1.279 . S
C1804 C1806 1.353 . S
C1804 N1807 1.314 . S
C1804 H1810 0.930 . S
C1805 N1807 1.279 . S
C1805 C1808 1.358 . S
C1805 H1811 0.930 . S
C1806 C1804 1.353 . S
C1806 C1809 1.348 . S
C1806 H1844 0.929 . S
N1807 Li1762 1.990 . S
N1807 C1804 1.314 . S
N1807 C1805 1.279 . S
C1808 C1805 1.358 . S
C1808 C1809 1.356 . S
C1808 H1845 0.930 . S
C1809 C1806 1.348 . S
C1809 C1808 1.356 . S
H1810 C1804 0.930 . S
H1811 C1805 0.930 . S
C1812 N1813 1.314 1_554 S
C1812 C1814 1.353 . S
C1812 H1818 0.930 . S
N1813 Li1763 1.990 . S
N1813 C1812 1.314 1_556 S
N1813 C1816 1.279 . S
C1814 C1812 1.353 . S
C1814 C1817 1.348 1_554 S
C1814 H1846 0.929 . S
C1815 C1816 1.358 . S
C1815 C1817 1.356 . S
C1815 H1847 0.930 . S
C1816 N1813 1.279 . S
C1816 C1815 1.358 . S
C1816 H1819 0.930 . S
C1817 C1814 1.348 1_556 S
C1817 C1815 1.356 . S
H1818 C1812 0.930 . S
H1819 C1816 0.930 . S
O1820 Li1760 1.956 . S
O1820 Li1761 1.970 . S
O1820 Li1762 1.961 1_554 S
O1820 C1764 1.325 . S
O1821 Li1760 1.970 . S
O1821 Li1761 1.956 . S
O1821 Li1763 1.961 1_554 S
O1821 C1770 1.325 . S
O1822 Li1760 1.961 . S
O1822 Li1762 1.956 1_554 S
O1822 Li1763 1.970 1_554 S
O1822 C1792 1.325 . S
O1823 Li1761 1.961 1_556 S
O1823 Li1762 1.970 . S
O1823 Li1763 1.956 . S
O1823 C1798 1.325 . S
H1824 C1766 0.929 . S
H1825 C1767 0.930 . S
H1826 C1768 0.930 . S
H1827 C1769 0.930 . S
H1828 C1771 0.930 . S
H1829 C1773 0.929 . S
H1830 C1774 0.930 . S
H1831 C1775 0.930 . S
H1832 C1778 0.930 . S
H1833 C1781 0.929 . S
H1834 C1786 0.929 . S
H1835 C1787 0.930 . S
H1836 C1794 0.929 . S
H1837 C1795 0.930 . S
H1838 C1796 0.930 . S
H1839 C1797 0.930 . S
H1840 C1799 0.929 . S
H1841 C1800 0.930 . S
H1842 C1801 0.930 . S
H1843 C1802 0.930 . S
H1844 C1806 0.929 . S
H1845 C1808 0.930 . S
H1846 C1814 0.929 . S
H1847 C1815 0.930 . S
Li1848 N1865 1.990 . S
Li1848 O1908 1.956 . S
Li1848 O1909 1.970 . S
Li1848 O1910 1.961 . S
Li1849 N1873 1.990 1_655 S
Li1849 O1908 1.970 . S
Li1849 O1909 1.956 . S
Li1849 O1911 1.961 . S
Li1850 N1895 1.990 . S
Li1850 O1908 1.961 . S
Li1850 O1910 1.956 . S
Li1850 O1911 1.970 . S
Li1851 N1901 1.990 . S
Li1851 O1909 1.961 . S
Li1851 O1910 1.970 . S
Li1851 O1911 1.956 . S
C1852 C1854 1.348 . S
C1852 C1855 1.356 . S
C1852 O1908 1.325 . S
N1853 C1856 1.314 . S
N1853 C1857 1.279 . S
C1854 C1852 1.348 . S
C1854 C1856 1.353 . S
C1854 H1912 0.929 . S
C1855 C1852 1.356 . S
C1855 C1857 1.358 . S
C1855 H1913 0.930 . S
C1856 N1853 1.314 . S
C1856 C1854 1.353 . S
C1856 H1914 0.930 . S
C1857 N1853 1.279 . S
C1857 C1855 1.358 . S
C1857 H1915 0.930 . S
C1858 C1861 1.348 . S
C1858 C1862 1.356 1_655 S
C1858 O1909 1.325 . S
C1859 N1860 1.279 . S
C1859 C1862 1.358 . S
C1859 H1916 0.930 . S
N1860 C1859 1.279 . S
N1860 C1863 1.314 1_455 S
C1861 C1858 1.348 . S
C1861 C1863 1.353 . S
C1861 H1917 0.929 . S
C1862 C1858 1.356 1_455 S
C1862 C1859 1.358 . S
C1862 H1918 0.930 . S
C1863 N1860 1.314 1_655 S
C1863 C1861 1.353 . S
C1863 H1919 0.930 . S
C1864 N1865 1.314 . S
C1864 C1869 1.353 . S
C1864 H1870 0.930 . S
N1865 Li1848 1.990 . S
N1865 C1864 1.314 . S
N1865 C1867 1.279 . S
C1866 C1867 1.358 . S
C1866 C1868 1.356 . S
C1866 H1920 0.930 . S
C1867 N1865 1.279 . S
C1867 C1866 1.358 . S
C1867 H1871 0.930 . S
C1868 C1866 1.356 . S
C1868 C1869 1.348 . S
C1869 C1864 1.353 . S
C1869 C1868 1.348 . S
C1869 H1921 0.929 . S
H1870 C1864 0.930 . S
H1871 C1867 0.930 . S
C1872 N1873 1.314 . S
C1872 C1874 1.353 . S
C1872 H1878 0.930 . S
N1873 Li1849 1.990 1_455 S
N1873 C1872 1.314 . S
N1873 C1876 1.279 . S
C1874 C1872 1.353 . S
C1874 C1877 1.348 . S
C1874 H1922 0.929 . S
C1875 C1876 1.358 . S
C1875 C1877 1.356 . S
C1875 H1923 0.930 . S
C1876 N1873 1.279 . S
C1876 C1875 1.358 . S
C1876 H1879 0.930 . S
C1877 C1874 1.348 . S
C1877 C1875 1.356 . S
H1878 C1872 0.930 . S
H1879 C1876 0.930 . S
C1880 C1882 1.348 . S
C1880 C1883 1.356 . S
C1880 O1910 1.325 . S
N1881 C1884 1.314 . S
N1881 C1885 1.279 . S
C1882 C1880 1.348 . S
C1882 C1884 1.353 . S
C1882 H1924 0.929 . S
C1883 C1880 1.356 . S
C1883 C1885 1.358 . S
C1883 H1925 0.930 . S
C1884 N1881 1.314 . S
C1884 C1882 1.353 . S
C1884 H1926 0.930 . S
C1885 N1881 1.279 . S
C1885 C1883 1.358 . S
C1885 H1927 0.930 . S
C1886 C1887 1.348 . S
C1886 C1888 1.356 1_655 S
C1886 O1911 1.325 . S
C1887 C1886 1.348 . S
C1887 C1889 1.353 1_655 S
C1887 H1928 0.929 . S
C1888 C1886 1.356 1_455 S
C1888 C1890 1.358 . S
C1888 H1929 0.930 . S
C1889 C1887 1.353 1_455 S
C1889 N1891 1.314 . S
C1889 H1930 0.930 . S
C1890 C1888 1.358 . S
C1890 N1891 1.279 . S
C1890 H1931 0.930 . S
N1891 C1889 1.314 . S
N1891 C1890 1.279 . S
C1892 C1894 1.353 . S
C1892 N1895 1.314 . S
C1892 H1898 0.930 . S
C1893 N1895 1.279 . S
C1893 C1896 1.358 . S
C1893 H1899 0.930 . S
C1894 C1892 1.353 . S
C1894 C1897 1.348 . S
C1894 H1932 0.929 . S
N1895 Li1850 1.990 . S
N1895 C1892 1.314 . S
N1895 C1893 1.279 . S
C1896 C1893 1.358 . S
C1896 C1897 1.356 . S
C1896 H1933 0.930 . S
C1897 C1894 1.348 . S
C1897 C1896 1.356 . S
H1898 C1892 0.930 . S
H1899 C1893 0.930 . S
C1900 N1901 1.314 . S
C1900 C1902 1.353 1_655 S
C1900 H1906 0.930 . S
N1901 Li1851 1.990 . S
N1901 C1900 1.314 . S
N1901 C1904 1.279 1_655 S
C1902 C1900 1.353 1_455 S
C1902 C1905 1.348 . S
C1902 H1934 0.929 . S
C1903 C1904 1.358 . S
C1903 C1905 1.356 . S
C1903 H1935 0.930 . S
C1904 N1901 1.279 1_455 S
C1904 C1903 1.358 . S
C1904 H1907 0.930 . S
C1905 C1902 1.348 . S
C1905 C1903 1.356 . S
H1906 C1900 0.930 . S
H1907 C1904 0.930 . S
O1908 Li1848 1.956 . S
O1908 Li1849 1.970 . S
O1908 Li1850 1.961 . S
O1908 C1852 1.325 . S
O1909 Li1848 1.970 . S
O1909 Li1849 1.956 . S
O1909 Li1851 1.961 . S
O1909 C1858 1.325 . S
O1910 Li1848 1.961 . S
O1910 Li1850 1.956 . S
O1910 Li1851 1.970 . S
O1910 C1880 1.325 . S
O1911 Li1849 1.961 . S
O1911 Li1850 1.970 . S
O1911 Li1851 1.956 . S
O1911 C1886 1.325 . S
H1912 C1854 0.929 . S
H1913 C1855 0.930 . S
H1914 C1856 0.930 . S
H1915 C1857 0.930 . S
H1916 C1859 0.930 . S
H1917 C1861 0.929 . S
H1918 C1862 0.930 . S
H1919 C1863 0.930 . S
H1920 C1866 0.930 . S
H1921 C1869 0.929 . S
H1922 C1874 0.929 . S
H1923 C1875 0.930 . S
H1924 C1882 0.929 . S
H1925 C1883 0.930 . S
H1926 C1884 0.930 . S
H1927 C1885 0.930 . S
H1928 C1887 0.929 . S
H1929 C1888 0.930 . S
H1930 C1889 0.930 . S
H1931 C1890 0.930 . S
H1932 C1894 0.929 . S
H1933 C1896 0.930 . S
H1934 C1902 0.929 . S
H1935 C1903 0.930 . S
Li1936 N1953 1.990 . S
Li1936 O1996 1.956 . S
Li1936 O1997 1.970 . S
Li1936 O1998 1.961 . S
Li1937 N1961 1.990 . S
Li1937 O1996 1.970 . S
Li1937 O1997 1.956 . S
Li1937 O1999 1.961 . S
Li1938 N1983 1.990 . S
Li1938 O1996 1.961 . S
Li1938 O1998 1.956 . S
Li1938 O1999 1.970 . S
Li1939 N1989 1.990 . S
Li1939 O1997 1.961 . S
Li1939 O1998 1.970 . S
Li1939 O1999 1.956 . S
C1940 C1942 1.348 . S
C1940 C1943 1.356 . S
C1940 O1996 1.325 . S
N1941 C1944 1.314 . S
N1941 C1945 1.279 . S
C1942 C1940 1.348 . S
C1942 C1944 1.353 . S
C1942 H2000 0.929 . S
C1943 C1940 1.356 . S
C1943 C1945 1.358 . S
C1943 H2001 0.930 . S
C1944 N1941 1.314 . S
C1944 C1942 1.353 . S
C1944 H2002 0.930 . S
C1945 N1941 1.279 . S
C1945 C1943 1.358 . S
C1945 H2003 0.930 . S
C1946 C1949 1.348 . S
C1946 C1950 1.356 . S
C1946 O1997 1.325 . S
C1947 N1948 1.279 . S
C1947 C1950 1.358 . S
C1947 H2004 0.930 . S
N1948 C1947 1.279 . S
N1948 C1951 1.314 . S
C1949 C1946 1.348 . S
C1949 C1951 1.353 . S
C1949 H2005 0.929 . S
C1950 C1946 1.356 . S
C1950 C1947 1.358 . S
C1950 H2006 0.930 . S
C1951 N1948 1.314 . S
C1951 C1949 1.353 . S
C1951 H2007 0.930 . S
C1952 N1953 1.314 . S
C1952 C1957 1.353 . S
C1952 H1958 0.930 . S
N1953 Li1936 1.990 . S
N1953 C1952 1.314 . S
N1953 C1955 1.279 . S
C1954 C1955 1.358 . S
C1954 C1956 1.356 . S
C1954 H2008 0.930 . S
C1955 N1953 1.279 . S
C1955 C1954 1.358 . S
C1955 H1959 0.930 . S
C1956 C1954 1.356 . S
C1956 C1957 1.348 . S
C1957 C1952 1.353 . S
C1957 C1956 1.348 . S
C1957 H2009 0.929 . S
H1958 C1952 0.930 . S
H1959 C1955 0.930 . S
C1960 N1961 1.314 . S
C1960 C1962 1.353 . S
C1960 H1966 0.930 . S
N1961 Li1937 1.990 . S
N1961 C1960 1.314 . S
N1961 C1964 1.279 . S
C1962 C1960 1.353 . S
C1962 C1965 1.348 . S
C1962 H2010 0.929 . S
C1963 C1964 1.358 . S
C1963 C1965 1.356 . S
C1963 H2011 0.930 . S
C1964 N1961 1.279 . S
C1964 C1963 1.358 . S
C1964 H1967 0.930 . S
C1965 C1962 1.348 . S
C1965 C1963 1.356 . S
H1966 C1960 0.930 . S
H1967 C1964 0.930 . S
C1968 C1970 1.348 . S
C1968 C1971 1.356 . S
C1968 O1998 1.325 . S
N1969 C1972 1.314 . S
N1969 C1973 1.279 . S
C1970 C1968 1.348 . S
C1970 C1972 1.353 . S
C1970 H2012 0.929 . S
C1971 C1968 1.356 . S
C1971 C1973 1.358 . S
C1971 H2013 0.930 . S
C1972 N1969 1.314 . S
C1972 C1970 1.353 . S
C1972 H2014 0.930 . S
C1973 N1969 1.279 . S
C1973 C1971 1.358 . S
C1973 H2015 0.930 . S
C1974 C1975 1.348 . S
C1974 C1976 1.356 . S
C1974 O1999 1.325 . S
C1975 C1974 1.348 . S
C1975 C1977 1.353 . S
C1975 H2016 0.929 . S
C1976 C1974 1.356 . S
C1976 C1978 1.358 . S
C1976 H2017 0.930 . S
C1977 C1975 1.353 . S
C1977 N1979 1.314 . S
C1977 H2018 0.930 . S
C1978 C1976 1.358 . S
C1978 N1979 1.279 . S
C1978 H2019 0.930 . S
N1979 C1977 1.314 . S
N1979 C1978 1.279 . S
C1980 C1982 1.353 . S
C1980 N1983 1.314 . S
C1980 H1986 0.930 . S
C1981 N1983 1.279 . S
C1981 C1984 1.358 . S
C1981 H1987 0.930 . S
C1982 C1980 1.353 . S
C1982 C1985 1.348 . S
C1982 H2020 0.929 . S
N1983 Li1938 1.990 . S
N1983 C1980 1.314 . S
N1983 C1981 1.279 . S
C1984 C1981 1.358 . S
C1984 C1985 1.356 . S
C1984 H2021 0.930 . S
C1985 C1982 1.348 . S
C1985 C1984 1.356 . S
H1986 C1980 0.930 . S
H1987 C1981 0.930 . S
C1988 N1989 1.314 . S
C1988 C1990 1.353 . S
C1988 H1994 0.930 . S
N1989 Li1939 1.990 . S
N1989 C1988 1.314 . S
N1989 C1992 1.279 . S
C1990 C1988 1.353 . S
C1990 C1993 1.348 1_655 S
C1990 H2022 0.929 1_655 S
C1991 C1992 1.358 . S
C1991 C1993 1.356 1_655 S
C1991 H2023 0.930 . S
C1992 N1989 1.279 . S
C1992 C1991 1.358 . S
C1992 H1995 0.930 . S
C1993 C1990 1.348 1_455 S
C1993 C1991 1.356 1_455 S
H1994 C1988 0.930 . S
H1995 C1992 0.930 . S
O1996 Li1936 1.956 . S
O1996 Li1937 1.970 . S
O1996 Li1938 1.961 . S
O1996 C1940 1.325 . S
O1997 Li1936 1.970 . S
O1997 Li1937 1.956 . S
O1997 Li1939 1.961 . S
O1997 C1946 1.325 . S
O1998 Li1936 1.961 . S
O1998 Li1938 1.956 . S
O1998 Li1939 1.970 . S
O1998 C1968 1.325 . S
O1999 Li1937 1.961 . S
O1999 Li1938 1.970 . S
O1999 Li1939 1.956 . S
O1999 C1974 1.325 . S
H2000 C1942 0.929 . S
H2001 C1943 0.930 . S
H2002 C1944 0.930 . S
H2003 C1945 0.930 . S
H2004 C1947 0.930 . S
H2005 C1949 0.929 . S
H2006 C1950 0.930 . S
H2007 C1951 0.930 . S
H2008 C1954 0.930 . S
H2009 C1957 0.929 . S
H2010 C1962 0.929 . S
H2011 C1963 0.930 . S
H2012 C1970 0.929 . S
H2013 C1971 0.930 . S
H2014 C1972 0.930 . S
H2015 C1973 0.930 . S
H2016 C1975 0.929 . S
H2017 C1976 0.930 . S
H2018 C1977 0.930 . S
H2019 C1978 0.930 . S
H2020 C1982 0.929 . S
H2021 C1984 0.930 . S
H2022 C1990 0.929 1_455 S
H2023 C1991 0.930 . S
Li2024 N2041 1.990 . S
Li2024 O2084 1.956 . S
Li2024 O2085 1.970 . S
Li2024 O2086 1.961 . S
Li2025 N2049 1.990 . S
Li2025 O2084 1.970 . S
Li2025 O2085 1.956 . S
Li2025 O2087 1.961 . S
Li2026 N2071 1.990 . S
Li2026 O2084 1.961 . S
Li2026 O2086 1.956 . S
Li2026 O2087 1.970 . S
Li2027 N2077 1.990 . S
Li2027 O2085 1.961 . S
Li2027 O2086 1.970 . S
Li2027 O2087 1.956 . S
C2028 C2030 1.348 . S
C2028 C2031 1.356 . S
C2028 O2084 1.325 . S
N2029 C2032 1.314 . S
N2029 C2033 1.279 . S
C2030 C2028 1.348 . S
C2030 C2032 1.353 . S
C2030 H2088 0.929 . S
C2031 C2028 1.356 . S
C2031 C2033 1.358 . S
C2031 H2089 0.930 . S
C2032 N2029 1.314 . S
C2032 C2030 1.353 . S
C2032 H2090 0.930 . S
C2033 N2029 1.279 . S
C2033 C2031 1.358 . S
C2033 H2091 0.930 . S
C2034 C2037 1.348 . S
C2034 C2038 1.356 . S
C2034 O2085 1.325 . S
C2035 N2036 1.279 . S
C2035 C2038 1.358 . S
C2035 H2092 0.930 . S
N2036 C2035 1.279 . S
N2036 C2039 1.314 . S
C2037 C2034 1.348 . S
C2037 C2039 1.353 . S
C2037 H2093 0.929 . S
C2038 C2034 1.356 . S
C2038 C2035 1.358 . S
C2038 H2094 0.930 . S
C2039 N2036 1.314 . S
C2039 C2037 1.353 . S
C2039 H2095 0.930 . S
C2040 N2041 1.314 . S
C2040 C2045 1.353 . S
C2040 H2046 0.930 . S
N2041 Li2024 1.990 . S
N2041 C2040 1.314 . S
N2041 C2043 1.279 . S
C2042 C2043 1.358 . S
C2042 C2044 1.356 . S
C2042 H2096 0.930 . S
C2043 N2041 1.279 . S
C2043 C2042 1.358 . S
C2043 H2047 0.930 . S
C2044 C2042 1.356 . S
C2044 C2045 1.348 . S
C2045 C2040 1.353 . S
C2045 C2044 1.348 . S
C2045 H2097 0.929 . S
H2046 C2040 0.930 . S
H2047 C2043 0.930 . S
C2048 N2049 1.314 . S
C2048 C2050 1.353 . S
C2048 H2054 0.930 . S
N2049 Li2025 1.990 . S
N2049 C2048 1.314 . S
N2049 C2052 1.279 . S
C2050 C2048 1.353 . S
C2050 C2053 1.348 . S
C2050 H2098 0.929 . S
C2051 C2052 1.358 . S
C2051 C2053 1.356 . S
C2051 H2099 0.930 . S
C2052 N2049 1.279 . S
C2052 C2051 1.358 . S
C2052 H2055 0.930 . S
C2053 C2050 1.348 . S
C2053 C2051 1.356 . S
H2054 C2048 0.930 . S
H2055 C2052 0.930 . S
C2056 C2058 1.348 . S
C2056 C2059 1.356 . S
C2056 O2086 1.325 . S
N2057 C2060 1.314 . S
N2057 C2061 1.279 . S
C2058 C2056 1.348 . S
C2058 C2060 1.353 . S
C2058 H2100 0.929 . S
C2059 C2056 1.356 . S
C2059 C2061 1.358 . S
C2059 H2101 0.930 . S
C2060 N2057 1.314 . S
C2060 C2058 1.353 . S
C2060 H2102 0.930 . S
C2061 N2057 1.279 . S
C2061 C2059 1.358 . S
C2061 H2103 0.930 . S
C2062 C2063 1.348 . S
C2062 C2064 1.356 . S
C2062 O2087 1.325 . S
C2063 C2062 1.348 . S
C2063 C2065 1.353 . S
C2063 H2104 0.929 . S
C2064 C2062 1.356 . S
C2064 C2066 1.358 . S
C2064 H2105 0.930 . S
C2065 C2063 1.353 . S
C2065 N2067 1.314 . S
C2065 H2106 0.930 . S
C2066 C2064 1.358 . S
C2066 N2067 1.279 . S
C2066 H2107 0.930 . S
N2067 C2065 1.314 . S
N2067 C2066 1.279 . S
C2068 C2070 1.353 . S
C2068 N2071 1.314 . S
C2068 H2074 0.930 . S
C2069 N2071 1.279 . S
C2069 C2072 1.358 . S
C2069 H2075 0.930 . S
C2070 C2068 1.353 . S
C2070 C2073 1.348 . S
C2070 H2108 0.929 . S
N2071 Li2026 1.990 . S
N2071 C2068 1.314 . S
N2071 C2069 1.279 . S
C2072 C2069 1.358 . S
C2072 C2073 1.356 . S
C2072 H2109 0.930 . S
C2073 C2070 1.348 . S
C2073 C2072 1.356 . S
H2074 C2068 0.930 . S
H2075 C2069 0.930 . S
C2076 N2077 1.314 . S
C2076 C2078 1.353 . S
C2076 H2082 0.930 . S
N2077 Li2027 1.990 . S
N2077 C2076 1.314 . S
N2077 C2080 1.279 . S
C2078 C2076 1.353 . S
C2078 C2081 1.348 . S
C2078 H2110 0.929 . S
C2079 C2080 1.358 . S
C2079 C2081 1.356 . S
C2079 H2111 0.930 . S
C2080 N2077 1.279 . S
C2080 C2079 1.358 . S
C2080 H2083 0.930 . S
C2081 C2078 1.348 . S
C2081 C2079 1.356 . S
H2082 C2076 0.930 . S
H2083 C2080 0.930 . S
O2084 Li2024 1.956 . S
O2084 Li2025 1.970 . S
O2084 Li2026 1.961 . S
O2084 C2028 1.325 . S
O2085 Li2024 1.970 . S
O2085 Li2025 1.956 . S
O2085 Li2027 1.961 . S
O2085 C2034 1.325 . S
O2086 Li2024 1.961 . S
O2086 Li2026 1.956 . S
O2086 Li2027 1.970 . S
O2086 C2056 1.325 . S
O2087 Li2025 1.961 . S
O2087 Li2026 1.970 . S
O2087 Li2027 1.956 . S
O2087 C2062 1.325 . S
H2088 C2030 0.929 . S
H2089 C2031 0.930 . S
H2090 C2032 0.930 . S
H2091 C2033 0.930 . S
H2092 C2035 0.930 . S
H2093 C2037 0.929 . S
H2094 C2038 0.930 . S
H2095 C2039 0.930 . S
H2096 C2042 0.930 . S
H2097 C2045 0.929 . S
H2098 C2050 0.929 . S
H2099 C2051 0.930 . S
H2100 C2058 0.929 . S
H2101 C2059 0.930 . S
H2102 C2060 0.930 . S
H2103 C2061 0.930 . S
H2104 C2063 0.929 . S
H2105 C2064 0.930 . S
H2106 C2065 0.930 . S
H2107 C2066 0.930 . S
H2108 C2070 0.929 . S
H2109 C2072 0.930 . S
H2110 C2078 0.929 . S
H2111 C2079 0.930 . S
Gd2112 C2115 2.818 1_455 S
Gd2112 O2132 2.377 . S
Gd2112 O2134 2.448 1_455 S
Gd2112 O2135 2.506 1_456 S
Gd2112 O2136 2.435 . S
Gd2112 O2137 2.717 . S
Gd2112 O2139 2.395 1_546 S
Gd2112 O2143 2.327 1_556 S
Gd2113 C2124 2.818 . S
Gd2113 O2133 2.395 . S
Gd2113 O2137 2.327 1_554 S
Gd2113 O2138 2.377 . S
Gd2113 O2140 2.448 . S
Gd2113 O2141 2.506 . S
Gd2113 O2142 2.435 . S
Gd2113 O2143 2.717 . S
C2114 O2132 1.240 1_554 S
C2114 O2133 1.240 . S
C2115 Gd2112 2.818 1_655 S
C2115 C2116 1.510 . S
C2115 O2134 1.249 . S
C2115 O2135 1.252 1_556 S
C2116 C2115 1.510 . S
C2116 C2117 1.404 . S
C2116 C2118 1.352 1_556 S
C2117 C2116 1.404 . S
C2117 C2121 1.389 . S
C2117 H2144 0.930 . S
C2118 C2116 1.352 1_554 S
C2118 C2120 1.374 1_554 S
C2118 H2145 0.931 . S
C2119 C2120 1.359 . S
C2119 C2121 1.364 . S
C2120 C2118 1.374 1_556 S
C2120 C2119 1.359 . S
C2120 H2146 0.931 1_556 S
C2121 C2117 1.389 . S
C2121 C2119 1.364 . S
C2121 H2147 0.931 . S
C2122 O2136 1.256 . S
C2122 O2137 1.257 . S
C2123 O2138 1.240 1_565 S
C2123 O2139 1.240 . S
C2124 Gd2113 2.818 . S
C2124 C2125 1.510 . S
C2124 O2140 1.249 . S
C2124 O2141 1.252 . S
C2125 C2124 1.510 . S
C2125 C2126 1.404 . S
C2125 C2127 1.352 . S
C2126 C2125 1.404 . S
C2126 C2130 1.389 . S
C2126 H2148 0.930 . S
C2127 C2125 1.352 . S
C2127 C2129 1.374 . S
C2127 H2149 0.931 . S
C2128 C2129 1.359 . S
C2128 C2130 1.364 . S
C2129 C2127 1.374 . S
C2129 C2128 1.359 . S
C2129 H2150 0.931 1_545 S
C2130 C2126 1.389 . S
C2130 C2128 1.364 . S
C2130 H2151 0.931 . S
C2131 O2142 1.256 . S
C2131 O2143 1.257 . S
O2132 Gd2112 2.377 . S
O2132 C2114 1.240 1_556 S
O2133 Gd2113 2.395 . S
O2133 C2114 1.240 . S
O2134 Gd2112 2.448 1_655 S
O2134 C2115 1.249 . S
O2135 Gd2112 2.506 1_654 S
O2135 C2115 1.252 1_554 S
O2136 Gd2112 2.435 . S
O2136 C2122 1.256 . S
O2137 Gd2112 2.717 . S
O2137 Gd2113 2.327 1_556 S
O2137 C2122 1.257 . S
O2138 Gd2113 2.377 . S
O2138 C2123 1.240 1_545 S
O2139 Gd2112 2.395 1_564 S
O2139 C2123 1.240 . S
O2140 Gd2113 2.448 . S
O2140 C2124 1.249 . S
O2141 Gd2113 2.506 . S
O2141 C2124 1.252 . S
O2142 Gd2113 2.435 . S
O2142 C2131 1.256 . S
O2143 Gd2112 2.327 1_554 S
O2143 Gd2113 2.717 . S
O2143 C2131 1.257 . S
H2144 C2117 0.930 . S
H2145 C2118 0.931 . S
H2146 C2120 0.931 1_554 S
H2147 C2121 0.931 . S
H2148 C2126 0.930 . S
H2149 C2127 0.931 . S
H2150 C2129 0.931 1_565 S
H2151 C2130 0.931 . S
Gd2152 C2155 2.818 . S
Gd2152 O2172 2.377 . S
Gd2152 O2174 2.448 . S
Gd2152 O2175 2.506 . S
Gd2152 O2176 2.435 . S
Gd2152 O2177 2.717 . S
Gd2152 O2179 2.395 . S
Gd2152 O2183 2.327 . S
Gd2153 C2164 2.818 . S
Gd2153 O2173 2.395 . S
Gd2153 O2177 2.327 . S
Gd2153 O2178 2.377 . S
Gd2153 O2180 2.448 . S
Gd2153 O2181 2.506 . S
Gd2153 O2182 2.435 . S
Gd2153 O2183 2.717 . S
C2154 O2172 1.240 . S
C2154 O2173 1.240 . S
C2155 Gd2152 2.818 . S
C2155 C2156 1.510 . S
C2155 O2174 1.249 . S
C2155 O2175 1.252 . S
C2156 C2155 1.510 . S
C2156 C2157 1.404 . S
C2156 C2158 1.352 . S
C2157 C2156 1.404 . S
C2157 C2161 1.389 . S
C2157 H2184 0.930 . S
C2158 C2156 1.352 . S
C2158 C2160 1.374 . S
C2158 H2185 0.931 . S
C2159 C2160 1.359 . S
C2159 C2161 1.364 . S
C2160 C2158 1.374 . S
C2160 C2159 1.359 . S
C2160 H2186 0.931 . S
C2161 C2157 1.389 . S
C2161 C2159 1.364 . S
C2161 H2187 0.931 . S
C2162 O2176 1.256 . S
C2162 O2177 1.257 . S
C2163 O2178 1.240 . S
C2163 O2179 1.240 . S
C2164 Gd2153 2.818 . S
C2164 C2165 1.510 . S
C2164 O2180 1.249 . S
C2164 O2181 1.252 . S
C2165 C2164 1.510 . S
C2165 C2166 1.404 . S
C2165 C2167 1.352 . S
C2166 C2165 1.404 . S
C2166 C2170 1.389 . S
C2166 H2188 0.930 . S
C2167 C2165 1.352 . S
C2167 C2169 1.374 . S
C2167 H2189 0.931 . S
C2168 C2169 1.359 . S
C2168 C2170 1.364 . S
C2169 C2167 1.374 . S
C2169 C2168 1.359 . S
C2169 H2190 0.931 . S
C2170 C2166 1.389 . S
C2170 C2168 1.364 . S
C2170 H2191 0.931 . S
C2171 O2182 1.256 . S
C2171 O2183 1.257 . S
O2172 Gd2152 2.377 . S
O2172 C2154 1.240 . S
O2173 Gd2153 2.395 . S
O2173 C2154 1.240 . S
O2174 Gd2152 2.448 . S
O2174 C2155 1.249 . S
O2175 Gd2152 2.506 . S
O2175 C2155 1.252 . S
O2176 Gd2152 2.435 . S
O2176 C2162 1.256 . S
O2177 Gd2152 2.717 . S
O2177 Gd2153 2.327 . S
O2177 C2162 1.257 . S
O2178 Gd2153 2.377 . S
O2178 C2163 1.240 . S
O2179 Gd2152 2.395 . S
O2179 C2163 1.240 . S
O2180 Gd2153 2.448 . S
O2180 C2164 1.249 . S
O2181 Gd2153 2.506 . S
O2181 C2164 1.252 . S
O2182 Gd2153 2.435 . S
O2182 C2171 1.256 . S
O2183 Gd2152 2.327 . S
O2183 Gd2153 2.717 . S
O2183 C2171 1.257 . S
H2184 C2157 0.930 . S
H2185 C2158 0.931 . S
H2186 C2160 0.931 . S
H2187 C2161 0.931 . S
H2188 C2166 0.930 . S
H2189 C2167 0.931 . S
H2190 C2169 0.931 . S
H2191 C2170 0.931 . S
Gd2192 C2195 2.818 . S
Gd2192 O2212 2.377 1_545 S
Gd2192 O2214 2.448 . S
Gd2192 O2215 2.506 . S
Gd2192 O2216 2.435 . S
Gd2192 O2217 2.717 . S
Gd2192 O2219 2.395 . S
Gd2192 O2223 2.327 . S
Gd2193 C2204 2.818 . S
Gd2193 O2213 2.395 1_545 S
Gd2193 O2217 2.327 . S
Gd2193 O2218 2.377 . S
Gd2193 O2220 2.448 . S
Gd2193 O2221 2.506 . S
Gd2193 O2222 2.435 . S
Gd2193 O2223 2.717 . S
C2194 O2212 1.240 . S
C2194 O2213 1.240 . S
C2195 Gd2192 2.818 . S
C2195 C2196 1.510 1_545 S
C2195 O2214 1.249 . S
C2195 O2215 1.252 . S
C2196 C2195 1.510 1_565 S
C2196 C2197 1.404 . S
C2196 C2198 1.352 . S
C2197 C2196 1.404 . S
C2197 C2201 1.389 . S
C2197 H2224 0.930 . S
C2198 C2196 1.352 . S
C2198 C2200 1.374 . S
C2198 H2225 0.931 . S
C2199 C2200 1.359 . S
C2199 C2201 1.364 . S
C2200 C2198 1.374 . S
C2200 C2199 1.359 . S
C2200 H2226 0.931 . S
C2201 C2197 1.389 . S
C2201 C2199 1.364 . S
C2201 H2227 0.931 . S
C2202 O2216 1.256 . S
C2202 O2217 1.257 . S
C2203 O2218 1.240 . S
C2203 O2219 1.240 . S
C2204 Gd2193 2.818 . S
C2204 C2205 1.510 . S
C2204 O2220 1.249 . S
C2204 O2221 1.252 . S
C2205 C2204 1.510 . S
C2205 C2206 1.404 . S
C2205 C2207 1.352 . S
C2206 C2205 1.404 . S
C2206 C2210 1.389 . S
C2206 H2228 0.930 . S
C2207 C2205 1.352 . S
C2207 C2209 1.374 . S
C2207 H2229 0.931 . S
C2208 C2209 1.359 . S
C2208 C2210 1.364 . S
C2209 C2207 1.374 . S
C2209 C2208 1.359 . S
C2209 H2230 0.931 . S
C2210 C2206 1.389 . S
C2210 C2208 1.364 . S
C2210 H2231 0.931 . S
C2211 O2222 1.256 . S
C2211 O2223 1.257 . S
O2212 Gd2192 2.377 1_565 S
O2212 C2194 1.240 . S
O2213 Gd2193 2.395 1_565 S
O2213 C2194 1.240 . S
O2214 Gd2192 2.448 . S
O2214 C2195 1.249 . S
O2215 Gd2192 2.506 . S
O2215 C2195 1.252 . S
O2216 Gd2192 2.435 . S
O2216 C2202 1.256 . S
O2217 Gd2192 2.717 . S
O2217 Gd2193 2.327 . S
O2217 C2202 1.257 . S
O2218 Gd2193 2.377 . S
O2218 C2203 1.240 . S
O2219 Gd2192 2.395 . S
O2219 C2203 1.240 . S
O2220 Gd2193 2.448 . S
O2220 C2204 1.249 . S
O2221 Gd2193 2.506 . S
O2221 C2204 1.252 . S
O2222 Gd2193 2.435 . S
O2222 C2211 1.256 . S
O2223 Gd2192 2.327 . S
O2223 Gd2193 2.717 . S
O2223 C2211 1.257 . S
H2224 C2197 0.930 . S
H2225 C2198 0.931 . S
H2226 C2200 0.931 . S
H2227 C2201 0.931 . S
H2228 C2206 0.930 . S
H2229 C2207 0.931 . S
H2230 C2209 0.931 . S
H2231 C2210 0.931 . S
Gd2232 C2235 2.818 . S
Gd2232 O2252 2.377 . S
Gd2232 O2254 2.448 . S
Gd2232 O2255 2.506 . S
Gd2232 O2256 2.435 . S
Gd2232 O2257 2.717 . S
Gd2232 O2259 2.395 . S
Gd2232 O2263 2.327 . S
Gd2233 C2244 2.818 . S
Gd2233 O2253 2.395 . S
Gd2233 O2257 2.327 . S
Gd2233 O2258 2.377 . S
Gd2233 O2260 2.448 . S
Gd2233 O2261 2.506 . S
Gd2233 O2262 2.435 . S
Gd2233 O2263 2.717 . S
C2234 O2252 1.240 . S
C2234 O2253 1.240 . S
C2235 Gd2232 2.818 . S
C2235 C2236 1.510 . S
C2235 O2254 1.249 . S
C2235 O2255 1.252 . S
C2236 C2235 1.510 . S
C2236 C2237 1.404 . S
C2236 C2238 1.352 . S
C2237 C2236 1.404 . S
C2237 C2241 1.389 . S
C2237 H2264 0.930 . S
C2238 C2236 1.352 . S
C2238 C2240 1.374 . S
C2238 H2265 0.931 . S
C2239 C2240 1.359 . S
C2239 C2241 1.364 . S
C2240 C2238 1.374 . S
C2240 C2239 1.359 . S
C2240 H2266 0.931 . S
C2241 C2237 1.389 . S
C2241 C2239 1.364 . S
C2241 H2267 0.931 . S
C2242 O2256 1.256 . S
C2242 O2257 1.257 . S
C2243 O2258 1.240 . S
C2243 O2259 1.240 . S
C2244 Gd2233 2.818 . S
C2244 C2245 1.510 . S
C2244 O2260 1.249 . S
C2244 O2261 1.252 . S
C2245 C2244 1.510 . S
C2245 C2246 1.404 . S
C2245 C2247 1.352 . S
C2246 C2245 1.404 . S
C2246 C2250 1.389 . S
C2246 H2268 0.930 . S
C2247 C2245 1.352 . S
C2247 C2249 1.374 . S
C2247 H2269 0.931 . S
C2248 C2249 1.359 . S
C2248 C2250 1.364 . S
C2249 C2247 1.374 . S
C2249 C2248 1.359 . S
C2249 H2270 0.931 . S
C2250 C2246 1.389 . S
C2250 C2248 1.364 . S
C2250 H2271 0.931 . S
C2251 O2262 1.256 . S
C2251 O2263 1.257 . S
O2252 Gd2232 2.377 . S
O2252 C2234 1.240 . S
O2253 Gd2233 2.395 . S
O2253 C2234 1.240 . S
O2254 Gd2232 2.448 . S
O2254 C2235 1.249 . S
O2255 Gd2232 2.506 . S
O2255 C2235 1.252 . S
O2256 Gd2232 2.435 . S
O2256 C2242 1.256 . S
O2257 Gd2232 2.717 . S
O2257 Gd2233 2.327 . S
O2257 C2242 1.257 . S
O2258 Gd2233 2.377 . S
O2258 C2243 1.240 . S
O2259 Gd2232 2.395 . S
O2259 C2243 1.240 . S
O2260 Gd2233 2.448 . S
O2260 C2244 1.249 . S
O2261 Gd2233 2.506 . S
O2261 C2244 1.252 . S
O2262 Gd2233 2.435 . S
O2262 C2251 1.256 . S
O2263 Gd2232 2.327 . S
O2263 Gd2233 2.717 . S
O2263 C2251 1.257 . S
H2264 C2237 0.930 . S
H2265 C2238 0.931 . S
H2266 C2240 0.931 . S
H2267 C2241 0.931 . S
H2268 C2246 0.930 . S
H2269 C2247 0.931 . S
H2270 C2249 0.931 . S
H2271 C2250 0.931 . S
Gd2272 C2275 2.818 . S
Gd2272 O2292 2.377 . S
Gd2272 O2294 2.448 . S
Gd2272 O2295 2.506 . S
Gd2272 O2296 2.435 . S
Gd2272 O2297 2.717 . S
Gd2272 O2299 2.395 . S
Gd2272 O2303 2.327 . S
Gd2273 C2284 2.795 1_545 S
Gd2273 O2293 2.412 . S
Gd2273 O2297 2.341 . S
Gd2273 O2298 2.379 . S
Gd2273 O2300 2.426 1_545 S
Gd2273 O2301 2.487 1_545 S
Gd2273 O2302 2.442 . S
Gd2273 O2303 2.739 . S
C2274 O2292 1.240 . S
C2274 O2293 1.240 . S
C2275 Gd2272 2.818 . S
C2275 C2276 1.510 . S
C2275 O2294 1.249 . S
C2275 O2295 1.252 . S
C2276 C2275 1.510 . S
C2276 C2277 1.404 . S
C2276 C2278 1.352 . S
C2277 C2276 1.404 . S
C2277 C2281 1.389 . S
C2277 H2304 0.930 . S
C2278 C2276 1.352 . S
C2278 C2280 1.374 . S
C2278 H2305 0.931 . S
C2279 C2280 1.359 . S
C2279 C2281 1.364 . S
C2280 C2278 1.374 . S
C2280 C2279 1.359 . S
C2280 H2306 0.931 . S
C2281 C2277 1.389 . S
C2281 C2279 1.364 . S
C2281 H2307 0.931 . S
C2282 O2296 1.256 . S
C2282 O2297 1.257 . S
C2283 O2298 1.240 . S
C2283 O2299 1.240 . S
C2284 Gd2273 2.795 1_565 S
C2284 C2285 1.510 . S
C2284 O2300 1.249 . S
C2284 O2301 1.252 . S
C2285 C2284 1.510 . S
C2285 C2286 1.404 . S
C2285 C2287 1.352 . S
C2286 C2285 1.404 . S
C2286 C2290 1.389 . S
C2286 H2308 0.930 . S
C2287 C2285 1.352 . S
C2287 C2289 1.374 . S
C2287 H2309 0.931 . S
C2288 C2289 1.359 . S
C2288 C2290 1.364 . S
C2289 C2287 1.374 . S
C2289 C2288 1.359 . S
C2289 H2310 0.931 . S
C2290 C2286 1.389 . S
C2290 C2288 1.364 . S
C2290 H2311 0.931 . S
C2291 O2302 1.256 . S
C2291 O2303 1.257 . S
O2292 Gd2272 2.377 . S
O2292 C2274 1.240 . S
O2293 Gd2273 2.412 . S
O2293 C2274 1.240 . S
O2294 Gd2272 2.448 . S
O2294 C2275 1.249 . S
O2295 Gd2272 2.506 . S
O2295 C2275 1.252 . S
O2296 Gd2272 2.435 . S
O2296 C2282 1.256 . S
O2297 Gd2272 2.717 . S
O2297 Gd2273 2.341 . S
O2297 C2282 1.257 . S
O2298 Gd2273 2.379 . S
O2298 C2283 1.240 . S
O2299 Gd2272 2.395 . S
O2299 C2283 1.240 . S
O2300 Gd2273 2.426 1_565 S
O2300 C2284 1.249 . S
O2301 Gd2273 2.487 1_565 S
O2301 C2284 1.252 . S
O2302 Gd2273 2.442 . S
O2302 C2291 1.256 . S
O2303 Gd2272 2.327 . S
O2303 Gd2273 2.739 . S
O2303 C2291 1.257 . S
H2304 C2277 0.930 . S
H2305 C2278 0.931 . S
H2306 C2280 0.931 . S
H2307 C2281 0.931 . S
H2308 C2286 0.930 . S
H2309 C2287 0.931 . S
H2310 C2289 0.931 . S
H2311 C2290 0.931 . S
Gd2312 C2315 2.818 . S
Gd2312 O2332 2.377 . S
Gd2312 O2334 2.448 . S
Gd2312 O2335 2.506 . S
Gd2312 O2336 2.435 . S
Gd2312 O2337 2.717 . S
Gd2312 O2339 2.395 . S
Gd2312 O2343 2.327 . S
Gd2313 C2324 2.818 . S
Gd2313 O2333 2.395 . S
Gd2313 O2337 2.327 . S
Gd2313 O2338 2.377 . S
Gd2313 O2340 2.448 . S
Gd2313 O2341 2.506 . S
Gd2313 O2342 2.435 . S
Gd2313 O2343 2.717 . S
C2314 O2332 1.240 . S
C2314 O2333 1.240 . S
C2315 Gd2312 2.818 . S
C2315 C2316 1.510 . S
C2315 O2334 1.249 . S
C2315 O2335 1.252 . S
C2316 C2315 1.510 . S
C2316 C2317 1.404 . S
C2316 C2318 1.352 . S
C2317 C2316 1.404 . S
C2317 C2321 1.389 . S
C2317 H2344 0.930 . S
C2318 C2316 1.352 . S
C2318 C2320 1.374 . S
C2318 H2345 0.931 . S
C2319 C2320 1.359 . S
C2319 C2321 1.364 . S
C2320 C2318 1.374 . S
C2320 C2319 1.359 . S
C2320 H2346 0.931 . S
C2321 C2317 1.389 . S
C2321 C2319 1.364 . S
C2321 H2347 0.931 . S
C2322 O2336 1.256 . S
C2322 O2337 1.257 . S
C2323 O2338 1.240 . S
C2323 O2339 1.240 . S
C2324 Gd2313 2.818 . S
C2324 C2325 1.510 . S
C2324 O2340 1.249 . S
C2324 O2341 1.252 . S
C2325 C2324 1.510 . S
C2325 C2326 1.404 . S
C2325 C2327 1.352 . S
C2326 C2325 1.404 . S
C2326 C2330 1.389 . S
C2326 H2348 0.930 . S
C2327 C2325 1.352 . S
C2327 C2329 1.374 . S
C2327 H2349 0.931 . S
C2328 C2329 1.359 . S
C2328 C2330 1.364 . S
C2329 C2327 1.374 . S
C2329 C2328 1.359 . S
C2329 H2350 0.931 . S
C2330 C2326 1.389 . S
C2330 C2328 1.364 . S
C2330 H2351 0.931 . S
C2331 O2342 1.256 . S
C2331 O2343 1.257 . S
O2332 Gd2312 2.377 . S
O2332 C2314 1.240 . S
O2333 Gd2313 2.395 . S
O2333 C2314 1.240 . S
O2334 Gd2312 2.448 . S
O2334 C2315 1.249 . S
O2335 Gd2312 2.506 . S
O2335 C2315 1.252 . S
O2336 Gd2312 2.435 . S
O2336 C2322 1.256 . S
O2337 Gd2312 2.717 . S
O2337 Gd2313 2.327 . S
O2337 C2322 1.257 . S
O2338 Gd2313 2.377 . S
O2338 C2323 1.240 . S
O2339 Gd2312 2.395 . S
O2339 C2323 1.240 . S
O2340 Gd2313 2.448 . S
O2340 C2324 1.249 . S
O2341 Gd2313 2.506 . S
O2341 C2324 1.252 . S
O2342 Gd2313 2.435 . S
O2342 C2331 1.256 . S
O2343 Gd2312 2.327 . S
O2343 Gd2313 2.717 . S
O2343 C2331 1.257 . S
H2344 C2317 0.930 . S
H2345 C2318 0.931 . S
H2346 C2320 0.931 . S
H2347 C2321 0.931 . S
H2348 C2326 0.930 . S
H2349 C2327 0.931 . S
H2350 C2329 0.931 . S
H2351 C2330 0.931 . S
Gd2352 C2355 2.818 . S
Gd2352 O2372 2.377 . S
Gd2352 O2374 2.448 1_545 S
Gd2352 O2375 2.506 . S
Gd2352 O2376 2.435 1_545 S
Gd2352 O2377 2.717 1_554 S
Gd2352 O2379 2.395 . S
Gd2352 O2383 2.327 . S
Gd2353 C2364 2.818 . S
Gd2353 O2373 2.395 . S
Gd2353 O2377 2.327 . S
Gd2353 O2378 2.377 1_556 S
Gd2353 O2380 2.448 . S
Gd2353 O2381 2.506 . S
Gd2353 O2382 2.435 1_556 S
Gd2353 O2383 2.717 1_556 S
C2354 O2372 1.240 . S
C2354 O2373 1.240 1_554 S
C2355 Gd2352 2.818 . S
C2355 C2356 1.510 . S
C2355 O2374 1.249 1_545 S
C2355 O2375 1.252 . S
C2356 C2355 1.510 . S
C2356 C2357 1.404 1_545 S
C2356 C2358 1.352 . S
C2357 C2356 1.404 1_565 S
C2357 C2361 1.389 . S
C2357 H2384 0.930 . S
C2358 C2356 1.352 . S
C2358 C2360 1.374 . S
C2358 H2385 0.931 . S
C2359 C2360 1.359 1_565 S
C2359 C2361 1.364 . S
C2360 C2358 1.374 . S
C2360 C2359 1.359 1_545 S
C2360 H2386 0.931 . S
C2361 C2357 1.389 . S
C2361 C2359 1.364 . S
C2361 H2387 0.931 . S
C2362 O2376 1.256 1_556 S
C2362 O2377 1.257 1_565 S
C2363 O2378 1.240 . S
C2363 O2379 1.240 . S
C2364 Gd2353 2.818 . S
C2364 C2365 1.510 . S
C2364 O2380 1.249 . S
C2364 O2381 1.252 . S
C2365 C2364 1.510 . S
C2365 C2366 1.404 . S
C2365 C2367 1.352 . S
C2366 C2365 1.404 . S
C2366 C2370 1.389 . S
C2366 H2388 0.930 . S
C2367 C2365 1.352 . S
C2367 C2369 1.374 . S
C2367 H2389 0.931 . S
C2368 C2369 1.359 . S
C2368 C2370 1.364 . S
C2369 C2367 1.374 . S
C2369 C2368 1.359 . S
C2369 H2390 0.931 . S
C2370 C2366 1.389 . S
C2370 C2368 1.364 . S
C2370 H2391 0.931 . S
C2371 O2382 1.256 . S
C2371 O2383 1.257 . S
O2372 Gd2352 2.377 . S
O2372 C2354 1.240 . S
O2373 Gd2353 2.395 . S
O2373 C2354 1.240 1_556 S
O2374 Gd2352 2.448 1_565 S
O2374 C2355 1.249 1_565 S
O2375 Gd2352 2.506 . S
O2375 C2355 1.252 . S
O2376 Gd2352 2.435 1_565 S
O2376 C2362 1.256 1_554 S
O2377 Gd2352 2.717 1_556 S
O2377 Gd2353 2.327 . S
O2377 C2362 1.257 1_545 S
O2378 Gd2353 2.377 1_554 S
O2378 C2363 1.240 . S
O2379 Gd2352 2.395 . S
O2379 C2363 1.240 . S
O2380 Gd2353 2.448 . S
O2380 C2364 1.249 . S
O2381 Gd2353 2.506 . S
O2381 C2364 1.252 . S
O2382 Gd2353 2.435 1_554 S
O2382 C2371 1.256 . S
O2383 Gd2352 2.327 . S
O2383 Gd2353 2.717 1_554 S
O2383 C2371 1.257 . S
H2384 C2357 0.930 . S
H2385 C2358 0.931 . S
H2386 C2360 0.931 . S
H2387 C2361 0.931 . S
H2388 C2366 0.930 . S
H2389 C2367 0.931 . S
H2390 C2369 0.931 . S
H2391 C2370 0.931 . S
Gd2392 C2395 2.818 . S
Gd2392 O2412 2.377 . S
Gd2392 O2414 2.448 . S
Gd2392 O2415 2.506 . S
Gd2392 O2416 2.435 . S
Gd2392 O2417 2.717 . S
Gd2392 O2419 2.395 . S
Gd2392 O2423 2.327 . S
Gd2393 C2404 2.818 . S
Gd2393 O2413 2.395 . S
Gd2393 O2417 2.327 . S
Gd2393 O2418 2.377 . S
Gd2393 O2420 2.448 . S
Gd2393 O2421 2.506 . S
Gd2393 O2422 2.435 . S
Gd2393 O2423 2.717 . S
C2394 O2412 1.240 . S
C2394 O2413 1.240 . S
C2395 Gd2392 2.818 . S
C2395 C2396 1.510 . S
C2395 O2414 1.249 . S
C2395 O2415 1.252 . S
C2396 C2395 1.510 . S
C2396 C2397 1.404 . S
C2396 C2398 1.352 . S
C2397 C2396 1.404 . S
C2397 C2401 1.389 . S
C2397 H2424 0.930 . S
C2398 C2396 1.352 . S
C2398 C2400 1.374 . S
C2398 H2425 0.931 . S
C2399 C2400 1.359 . S
C2399 C2401 1.364 . S
C2400 C2398 1.374 . S
C2400 C2399 1.359 . S
C2400 H2426 0.931 . S
C2401 C2397 1.389 . S
C2401 C2399 1.364 . S
C2401 H2427 0.931 . S
C2402 O2416 1.256 . S
C2402 O2417 1.257 . S
C2403 O2418 1.240 . S
C2403 O2419 1.240 . S
C2404 Gd2393 2.818 . S
C2404 C2405 1.510 . S
C2404 O2420 1.249 . S
C2404 O2421 1.252 . S
C2405 C2404 1.510 . S
C2405 C2406 1.404 . S
C2405 C2407 1.352 . S
C2406 C2405 1.404 . S
C2406 C2410 1.389 . S
C2406 H2428 0.930 . S
C2407 C2405 1.352 . S
C2407 C2409 1.374 . S
C2407 H2429 0.931 . S
C2408 C2409 1.359 . S
C2408 C2410 1.364 . S
C2409 C2407 1.374 . S
C2409 C2408 1.359 . S
C2409 H2430 0.931 . S
C2410 C2406 1.389 . S
C2410 C2408 1.364 . S
C2410 H2431 0.931 . S
C2411 O2422 1.256 . S
C2411 O2423 1.257 . S
O2412 Gd2392 2.377 . S
O2412 C2394 1.240 . S
O2413 Gd2393 2.395 . S
O2413 C2394 1.240 . S
O2414 Gd2392 2.448 . S
O2414 C2395 1.249 . S
O2415 Gd2392 2.506 . S
O2415 C2395 1.252 . S
O2416 Gd2392 2.435 . S
O2416 C2402 1.256 . S
O2417 Gd2392 2.717 . S
O2417 Gd2393 2.327 . S
O2417 C2402 1.257 . S
O2418 Gd2393 2.377 . S
O2418 C2403 1.240 . S
O2419 Gd2392 2.395 . S
O2419 C2403 1.240 . S
O2420 Gd2393 2.448 . S
O2420 C2404 1.249 . S
O2421 Gd2393 2.506 . S
O2421 C2404 1.252 . S
O2422 Gd2393 2.435 . S
O2422 C2411 1.256 . S
O2423 Gd2392 2.327 . S
O2423 Gd2393 2.717 . S
O2423 C2411 1.257 . S
H2424 C2397 0.930 . S
H2425 C2398 0.931 . S
H2426 C2400 0.931 . S
H2427 C2401 0.931 . S
H2428 C2406 0.930 . S
H2429 C2407 0.931 . S
H2430 C2409 0.931 . S
H2431 C2410 0.931 . S
Gd2432 C2435 2.818 . S
Gd2432 O2452 2.377 1_554 S
Gd2432 O2454 2.448 . S
Gd2432 O2455 2.506 . S
Gd2432 O2456 2.435 . S
Gd2432 O2457 2.717 . S
Gd2432 O2459 2.395 . S
Gd2432 O2463 2.327 . S
Gd2433 C2444 2.818 1_556 S
Gd2433 O2453 2.395 . S
Gd2433 O2457 2.327 1_556 S
Gd2433 O2458 2.377 1_556 S
Gd2433 O2460 2.448 1_556 S
Gd2433 O2461 2.506 1_556 S
Gd2433 O2462 2.435 . S
Gd2433 O2463 2.717 1_556 S
C2434 O2452 1.240 . S
C2434 O2453 1.240 . S
C2435 Gd2432 2.818 . S
C2435 C2436 1.510 1_554 S
C2435 O2454 1.249 . S
C2435 O2455 1.252 . S
C2436 C2435 1.510 1_556 S
C2436 C2437 1.412 . S
C2436 C2438 1.352 . S
C2437 C2436 1.412 . S
C2437 C2441 1.411 . S
C2437 H2464 0.902 1_556 S
C2438 C2436 1.352 . S
C2438 C2440 1.374 . S
C2438 H2465 0.931 . S
C2439 C2440 1.359 . S
C2439 C2441 1.364 . S
C2440 C2438 1.374 . S
C2440 C2439 1.359 . S
C2440 H2466 0.931 . S
C2441 C2437 1.411 . S
C2441 C2439 1.364 . S
C2441 H2467 0.931 . S
C2442 O2456 1.256 . S
C2442 O2457 1.257 . S
C2443 O2458 1.240 . S
C2443 O2459 1.240 . S
C2444 Gd2433 2.818 1_554 S
C2444 C2445 1.510 . S
C2444 O2460 1.249 . S
C2444 O2461 1.252 . S
C2445 C2444 1.510 . S
C2445 C2446 1.404 . S
C2445 C2447 1.352 . S
C2446 C2445 1.404 . S
C2446 C2450 1.389 . S
C2446 H2468 0.930 . S
C2447 C2445 1.352 . S
C2447 C2449 1.374 . S
C2447 H2469 0.931 . S
C2448 C2449 1.359 . S
C2448 C2450 1.364 . S
C2449 C2447 1.374 . S
C2449 C2448 1.359 . S
C2449 H2470 0.931 . S
C2450 C2446 1.389 . S
C2450 C2448 1.364 . S
C2450 H2471 0.931 . S
C2451 O2462 1.256 1_554 S
C2451 O2463 1.257 . S
O2452 Gd2432 2.377 1_556 S
O2452 C2434 1.240 . S
O2453 Gd2433 2.395 . S
O2453 C2434 1.240 . S
O2454 Gd2432 2.448 . S
O2454 C2435 1.249 . S
O2455 Gd2432 2.506 . S
O2455 C2435 1.252 . S
O2456 Gd2432 2.435 . S
O2456 C2442 1.256 . S
O2457 Gd2432 2.717 . S
O2457 Gd2433 2.327 1_554 S
O2457 C2442 1.257 . S
O2458 Gd2433 2.377 1_554 S
O2458 C2443 1.240 . S
O2459 Gd2432 2.395 . S
O2459 C2443 1.240 . S
O2460 Gd2433 2.448 1_554 S
O2460 C2444 1.249 . S
O2461 Gd2433 2.506 1_554 S
O2461 C2444 1.252 . S
O2462 Gd2433 2.435 . S
O2462 C2451 1.256 1_556 S
O2463 Gd2432 2.327 . S
O2463 Gd2433 2.717 1_554 S
O2463 C2451 1.257 . S
H2464 C2437 0.902 1_554 S
H2465 C2438 0.931 . S
H2466 C2440 0.931 . S
H2467 C2441 0.931 . S
H2468 C2446 0.930 . S
H2469 C2447 0.931 . S
H2470 C2449 0.931 . S
H2471 C2450 0.931 . S
Gd2472 C2475 2.818 . S
Gd2472 O2492 2.377 . S
Gd2472 O2494 2.448 . S
Gd2472 O2495 2.506 . S
Gd2472 O2496 2.435 . S
Gd2472 O2497 2.717 . S
Gd2472 O2499 2.395 . S
Gd2472 O2503 2.327 . S
Gd2473 C2484 2.818 . S
Gd2473 O2493 2.395 . S
Gd2473 O2497 2.327 . S
Gd2473 O2498 2.377 . S
Gd2473 O2500 2.448 . S
Gd2473 O2501 2.506 . S
Gd2473 O2502 2.435 . S
Gd2473 O2503 2.717 . S
C2474 O2492 1.240 . S
C2474 O2493 1.240 . S
C2475 Gd2472 2.818 . S
C2475 C2476 1.510 . S
C2475 O2494 1.249 . S
C2475 O2495 1.252 . S
C2476 C2475 1.510 . S
C2476 C2477 1.404 . S
C2476 C2478 1.352 . S
C2477 C2476 1.404 . S
C2477 C2481 1.389 1_655 S
C2477 H2504 0.930 . S
C2478 C2476 1.352 . S
C2478 C2480 1.401 . S
C2478 H2505 0.931 . S
C2479 C2480 1.340 1_455 S
C2479 C2481 1.364 . S
C2480 C2478 1.401 . S
C2480 C2479 1.340 1_655 S
C2480 H2506 0.923 1_655 S
C2481 C2477 1.389 1_455 S
C2481 C2479 1.364 . S
C2481 H2507 0.931 . S
C2482 O2496 1.256 . S
C2482 O2497 1.257 . S
C2483 O2498 1.240 . S
C2483 O2499 1.240 . S
C2484 Gd2473 2.818 . S
C2484 C2485 1.510 . S
C2484 O2500 1.249 . S
C2484 O2501 1.252 . S
C2485 C2484 1.510 . S
C2485 C2486 1.404 . S
C2485 C2487 1.352 . S
C2486 C2485 1.404 . S
C2486 C2490 1.389 . S
C2486 H2508 0.930 . S
C2487 C2485 1.352 . S
C2487 C2489 1.374 . S
C2487 H2509 0.931 . S
C2488 C2489 1.359 . S
C2488 C2490 1.364 . S
C2489 C2487 1.374 . S
C2489 C2488 1.359 . S
C2489 H2510 0.931 . S
C2490 C2486 1.389 . S
C2490 C2488 1.364 . S
C2490 H2511 0.931 . S
C2491 O2502 1.256 . S
C2491 O2503 1.257 . S
O2492 Gd2472 2.377 . S
O2492 C2474 1.240 . S
O2493 Gd2473 2.395 . S
O2493 C2474 1.240 . S
O2494 Gd2472 2.448 . S
O2494 C2475 1.249 . S
O2495 Gd2472 2.506 . S
O2495 C2475 1.252 . S
O2496 Gd2472 2.435 . S
O2496 C2482 1.256 . S
O2497 Gd2472 2.717 . S
O2497 Gd2473 2.327 . S
O2497 C2482 1.257 . S
O2498 Gd2473 2.377 . S
O2498 C2483 1.240 . S
O2499 Gd2472 2.395 . S
O2499 C2483 1.240 . S
O2500 Gd2473 2.448 . S
O2500 C2484 1.249 . S
O2501 Gd2473 2.506 . S
O2501 C2484 1.252 . S
O2502 Gd2473 2.435 . S
O2502 C2491 1.256 . S
O2503 Gd2472 2.327 . S
O2503 Gd2473 2.717 . S
O2503 C2491 1.257 . S
H2504 C2477 0.930 . S
H2505 C2478 0.931 . S
H2506 C2480 0.923 1_455 S
H2507 C2481 0.931 . S
H2508 C2486 0.930 . S
H2509 C2487 0.931 . S
H2510 C2489 0.931 . S
H2511 C2490 0.931 . S
Gd2512 C2515 2.818 . S
Gd2512 O2532 2.377 . S
Gd2512 O2534 2.448 . S
Gd2512 O2535 2.506 . S
Gd2512 O2536 2.435 . S
Gd2512 O2537 2.717 . S
Gd2512 O2539 2.395 . S
Gd2512 O2543 2.327 . S
Gd2513 C2524 2.818 . S
Gd2513 O2533 2.395 . S
Gd2513 O2537 2.327 . S
Gd2513 O2538 2.377 . S
Gd2513 O2540 2.448 . S
Gd2513 O2541 2.506 . S
Gd2513 O2542 2.435 . S
Gd2513 O2543 2.717 . S
C2514 O2532 1.240 . S
C2514 O2533 1.240 . S
C2515 Gd2512 2.818 . S
C2515 C2516 1.510 . S
C2515 O2534 1.249 . S
C2515 O2535 1.252 . S
C2516 C2515 1.510 . S
C2516 C2517 1.404 . S
C2516 C2518 1.352 . S
C2517 C2516 1.404 . S
C2517 C2521 1.389 . S
C2517 H2544 0.930 . S
C2518 C2516 1.352 . S
C2518 C2520 1.374 1_455 S
C2518 H2545 0.931 . S
C2519 C2520 1.359 . S
C2519 C2521 1.364 1_655 S
C2520 C2518 1.374 1_655 S
C2520 C2519 1.359 . S
C2520 H2546 0.931 . S
C2521 C2517 1.389 . S
C2521 C2519 1.364 1_455 S
C2521 H2547 0.931 . S
C2522 O2536 1.256 . S
C2522 O2537 1.257 . S
C2523 O2538 1.240 . S
C2523 O2539 1.240 . S
C2524 Gd2513 2.818 . S
C2524 C2525 1.510 . S
C2524 O2540 1.249 . S
C2524 O2541 1.252 . S
C2525 C2524 1.510 . S
C2525 C2526 1.404 . S
C2525 C2527 1.352 . S
C2526 C2525 1.404 . S
C2526 C2530 1.389 . S
C2526 H2548 0.930 . S
C2527 C2525 1.352 . S
C2527 C2529 1.374 . S
C2527 H2549 0.931 . S
C2528 C2529 1.359 . S
C2528 C2530 1.364 . S
C2529 C2527 1.374 . S
C2529 C2528 1.359 . S
C2529 H2550 0.931 . S
C2530 C2526 1.389 . S
C2530 C2528 1.364 . S
C2530 H2551 0.931 . S
C2531 O2542 1.256 . S
C2531 O2543 1.257 . S
O2532 Gd2512 2.377 . S
O2532 C2514 1.240 . S
O2533 Gd2513 2.395 . S
O2533 C2514 1.240 . S
O2534 Gd2512 2.448 . S
O2534 C2515 1.249 . S
O2535 Gd2512 2.506 . S
O2535 C2515 1.252 . S
O2536 Gd2512 2.435 . S
O2536 C2522 1.256 . S
O2537 Gd2512 2.717 . S
O2537 Gd2513 2.327 . S
O2537 C2522 1.257 . S
O2538 Gd2513 2.377 . S
O2538 C2523 1.240 . S
O2539 Gd2512 2.395 . S
O2539 C2523 1.240 . S
O2540 Gd2513 2.448 . S
O2540 C2524 1.249 . S
O2541 Gd2513 2.506 . S
O2541 C2524 1.252 . S
O2542 Gd2513 2.435 . S
O2542 C2531 1.256 . S
O2543 Gd2512 2.327 . S
O2543 Gd2513 2.717 . S
O2543 C2531 1.257 . S
H2544 C2517 0.930 . S
H2545 C2518 0.931 . S
H2546 C2520 0.931 . S
H2547 C2521 0.931 . S
H2548 C2526 0.930 . S
H2549 C2527 0.931 . S
H2550 C2529 0.931 . S
H2551 C2530 0.931 . S
Gd2552 C2555 2.818 . S
Gd2552 O2572 2.377 . S
Gd2552 O2574 2.448 . S
Gd2552 O2575 2.506 . S
Gd2552 O2576 2.435 . S
Gd2552 O2577 2.717 . S
Gd2552 O2579 2.395 . S
Gd2552 O2583 2.327 . S
Gd2553 C2564 2.818 . S
Gd2553 O2573 2.395 . S
Gd2553 O2577 2.327 . S
Gd2553 O2578 2.377 . S
Gd2553 O2580 2.448 . S
Gd2553 O2581 2.506 . S
Gd2553 O2582 2.435 . S
Gd2553 O2583 2.717 . S
C2554 O2572 1.240 . S
C2554 O2573 1.240 . S
C2555 Gd2552 2.818 . S
C2555 C2556 1.510 . S
C2555 O2574 1.249 . S
C2555 O2575 1.252 . S
C2556 C2555 1.510 . S
C2556 C2557 1.404 . S
C2556 C2558 1.352 . S
C2557 C2556 1.404 . S
C2557 C2561 1.389 . S
C2557 H2584 0.930 . S
C2558 C2556 1.352 . S
C2558 C2560 1.374 . S
C2558 H2585 0.931 . S
C2559 C2560 1.359 . S
C2559 C2561 1.364 . S
C2560 C2558 1.374 . S
C2560 C2559 1.359 . S
C2560 H2586 0.931 . S
C2561 C2557 1.389 . S
C2561 C2559 1.364 . S
C2561 H2587 0.931 . S
C2562 O2576 1.256 . S
C2562 O2577 1.257 . S
C2563 O2578 1.240 . S
C2563 O2579 1.240 . S
C2564 Gd2553 2.818 . S
C2564 C2565 1.510 . S
C2564 O2580 1.249 . S
C2564 O2581 1.252 . S
C2565 C2564 1.510 . S
C2565 C2566 1.404 . S
C2565 C2567 1.352 . S
C2566 C2565 1.404 . S
C2566 C2570 1.389 . S
C2566 H2588 0.930 . S
C2567 C2565 1.352 . S
C2567 C2569 1.374 . S
C2567 H2589 0.931 . S
C2568 C2569 1.359 . S
C2568 C2570 1.364 . S
C2569 C2567 1.374 . S
C2569 C2568 1.359 . S
C2569 H2590 0.931 . S
C2570 C2566 1.389 . S
C2570 C2568 1.364 . S
C2570 H2591 0.931 . S
C2571 O2582 1.256 . S
C2571 O2583 1.257 . S
O2572 Gd2552 2.377 . S
O2572 C2554 1.240 . S
O2573 Gd2553 2.395 . S
O2573 C2554 1.240 . S
O2574 Gd2552 2.448 . S
O2574 C2555 1.249 . S
O2575 Gd2552 2.506 . S
O2575 C2555 1.252 . S
O2576 Gd2552 2.435 . S
O2576 C2562 1.256 . S
O2577 Gd2552 2.717 . S
O2577 Gd2553 2.327 . S
O2577 C2562 1.257 . S
O2578 Gd2553 2.377 . S
O2578 C2563 1.240 . S
O2579 Gd2552 2.395 . S
O2579 C2563 1.240 . S
O2580 Gd2553 2.448 . S
O2580 C2564 1.249 . S
O2581 Gd2553 2.506 . S
O2581 C2564 1.252 . S
O2582 Gd2553 2.435 . S
O2582 C2571 1.256 . S
O2583 Gd2552 2.327 . S
O2583 Gd2553 2.717 . S
O2583 C2571 1.257 . S
H2584 C2557 0.930 . S
H2585 C2558 0.931 . S
H2586 C2560 0.931 . S
H2587 C2561 0.931 . S
H2588 C2566 0.930 . S
H2589 C2567 0.931 . S
H2590 C2569 0.931 . S
H2591 C2570 0.931 . S
Gd2592 C2595 2.818 . S
Gd2592 O2612 2.377 . S
Gd2592 O2614 2.448 . S
Gd2592 O2615 2.506 . S
Gd2592 O2616 2.435 . S
Gd2592 O2617 2.717 . S
Gd2592 O2619 2.395 . S
Gd2592 O2623 2.327 . S
Gd2593 C2604 2.818 . S
Gd2593 O2613 2.395 . S
Gd2593 O2617 2.327 . S
Gd2593 O2618 2.377 . S
Gd2593 O2620 2.448 . S
Gd2593 O2621 2.506 . S
Gd2593 O2622 2.435 . S
Gd2593 O2623 2.717 . S
C2594 O2612 1.240 . S
C2594 O2613 1.240 . S
C2595 Gd2592 2.818 . S
C2595 C2596 1.510 . S
C2595 O2614 1.249 . S
C2595 O2615 1.252 . S
C2596 C2595 1.510 . S
C2596 C2597 1.404 . S
C2596 C2598 1.352 . S
C2597 C2596 1.404 . S
C2597 C2601 1.389 . S
C2597 H2624 0.930 . S
C2598 C2596 1.352 . S
C2598 C2600 1.374 . S
C2598 H2625 0.931 . S
C2599 C2600 1.359 . S
C2599 C2601 1.364 . S
C2600 C2598 1.374 . S
C2600 C2599 1.359 . S
C2600 H2626 0.931 . S
C2601 C2597 1.389 . S
C2601 C2599 1.364 . S
C2601 H2627 0.931 . S
C2602 O2616 1.256 . S
C2602 O2617 1.257 . S
C2603 O2618 1.240 . S
C2603 O2619 1.240 . S
C2604 Gd2593 2.818 . S
C2604 C2605 1.510 . S
C2604 O2620 1.249 . S
C2604 O2621 1.252 . S
C2605 C2604 1.510 . S
C2605 C2606 1.404 . S
C2605 C2607 1.352 . S
C2606 C2605 1.404 . S
C2606 C2610 1.389 . S
C2606 H2628 0.930 . S
C2607 C2605 1.352 . S
C2607 C2609 1.374 . S
C2607 H2629 0.931 . S
C2608 C2609 1.359 . S
C2608 C2610 1.364 . S
C2609 C2607 1.374 . S
C2609 C2608 1.359 . S
C2609 H2630 0.931 . S
C2610 C2606 1.389 . S
C2610 C2608 1.364 . S
C2610 H2631 0.931 . S
C2611 O2622 1.256 . S
C2611 O2623 1.257 . S
O2612 Gd2592 2.377 . S
O2612 C2594 1.240 . S
O2613 Gd2593 2.395 . S
O2613 C2594 1.240 . S
O2614 Gd2592 2.448 . S
O2614 C2595 1.249 . S
O2615 Gd2592 2.506 . S
O2615 C2595 1.252 . S
O2616 Gd2592 2.435 . S
O2616 C2602 1.256 . S
O2617 Gd2592 2.717 . S
O2617 Gd2593 2.327 . S
O2617 C2602 1.257 . S
O2618 Gd2593 2.377 . S
O2618 C2603 1.240 . S
O2619 Gd2592 2.395 . S
O2619 C2603 1.240 . S
O2620 Gd2593 2.448 . S
O2620 C2604 1.249 . S
O2621 Gd2593 2.506 . S
O2621 C2604 1.252 . S
O2622 Gd2593 2.435 . S
O2622 C2611 1.256 . S
O2623 Gd2592 2.327 . S
O2623 Gd2593 2.717 . S
O2623 C2611 1.257 . S
H2624 C2597 0.930 . S
H2625 C2598 0.931 . S
H2626 C2600 0.931 . S
H2627 C2601 0.931 . S
H2628 C2606 0.930 . S
H2629 C2607 0.931 . S
H2630 C2609 0.931 . S
H2631 C2610 0.931 . S
Gd2632 C2635 2.818 . S
Gd2632 O2652 2.377 . S
Gd2632 O2654 2.448 . S
Gd2632 O2655 2.506 . S
Gd2632 O2656 2.435 . S
Gd2632 O2657 2.717 . S
Gd2632 O2659 2.395 . S
Gd2632 O2663 2.327 . S
Gd2633 C2644 2.818 . S
Gd2633 O2653 2.395 . S
Gd2633 O2657 2.327 . S
Gd2633 O2658 2.377 . S
Gd2633 O2660 2.448 . S
Gd2633 O2661 2.506 . S
Gd2633 O2662 2.435 . S
Gd2633 O2663 2.717 . S
C2634 O2652 1.240 . S
C2634 O2653 1.240 . S
C2635 Gd2632 2.818 . S
C2635 C2636 1.510 . S
C2635 O2654 1.249 . S
C2635 O2655 1.252 . S
C2636 C2635 1.510 . S
C2636 C2637 1.404 . S
C2636 C2638 1.352 . S
C2637 C2636 1.404 . S
C2637 C2641 1.389 . S
C2637 H2664 0.930 . S
C2638 C2636 1.352 . S
C2638 C2640 1.374 . S
C2638 H2665 0.931 . S
C2639 C2640 1.359 . S
C2639 C2641 1.364 . S
C2640 C2638 1.374 . S
C2640 C2639 1.359 . S
C2640 H2666 0.931 . S
C2641 C2637 1.389 . S
C2641 C2639 1.364 . S
C2641 H2667 0.931 1_565 S
C2642 O2656 1.256 . S
C2642 O2657 1.257 . S
C2643 O2658 1.240 . S
C2643 O2659 1.240 . S
C2644 Gd2633 2.818 . S
C2644 C2645 1.510 . S
C2644 O2660 1.249 . S
C2644 O2661 1.252 . S
C2645 C2644 1.510 . S
C2645 C2646 1.404 . S
C2645 C2647 1.352 . S
C2646 C2645 1.404 . S
C2646 C2650 1.389 . S
C2646 H2668 0.930 . S
C2647 C2645 1.352 . S
C2647 C2649 1.374 . S
C2647 H2669 0.931 . S
C2648 C2649 1.359 . S
C2648 C2650 1.364 . S
C2649 C2647 1.374 . S
C2649 C2648 1.359 . S
C2649 H2670 0.931 . S
C2650 C2646 1.389 . S
C2650 C2648 1.364 . S
C2650 H2671 0.931 . S
C2651 O2662 1.256 . S
C2651 O2663 1.257 . S
O2652 Gd2632 2.377 . S
O2652 C2634 1.240 . S
O2653 Gd2633 2.395 . S
O2653 C2634 1.240 . S
O2654 Gd2632 2.448 . S
O2654 C2635 1.249 . S
O2655 Gd2632 2.506 . S
O2655 C2635 1.252 . S
O2656 Gd2632 2.435 . S
O2656 C2642 1.256 . S
O2657 Gd2632 2.717 . S
O2657 Gd2633 2.327 . S
O2657 C2642 1.257 . S
O2658 Gd2633 2.377 . S
O2658 C2643 1.240 . S
O2659 Gd2632 2.395 . S
O2659 C2643 1.240 . S
O2660 Gd2633 2.448 . S
O2660 C2644 1.249 . S
O2661 Gd2633 2.506 . S
O2661 C2644 1.252 . S
O2662 Gd2633 2.435 . S
O2662 C2651 1.256 . S
O2663 Gd2632 2.327 . S
O2663 Gd2633 2.717 . S
O2663 C2651 1.257 . S
H2664 C2637 0.930 . S
H2665 C2638 0.931 . S
H2666 C2640 0.931 . S
H2667 C2641 0.931 1_545 S
H2668 C2646 0.930 . S
H2669 C2647 0.931 . S
H2670 C2649 0.931 . S
H2671 C2650 0.931 . S
Gd2672 C2675 2.818 . S
Gd2672 O2692 2.377 . S
Gd2672 O2694 2.448 . S
Gd2672 O2695 2.506 . S
Gd2672 O2696 2.435 . S
Gd2672 O2697 2.717 . S
Gd2672 O2699 2.395 . S
Gd2672 O2703 2.327 . S
Gd2673 C2684 2.818 . S
Gd2673 O2693 2.395 . S
Gd2673 O2697 2.327 . S
Gd2673 O2698 2.377 . S
Gd2673 O2700 2.448 . S
Gd2673 O2701 2.506 . S
Gd2673 O2702 2.435 . S
Gd2673 O2703 2.717 . S
C2674 O2692 1.240 . S
C2674 O2693 1.240 . S
C2675 Gd2672 2.818 . S
C2675 C2676 1.510 . S
C2675 O2694 1.249 . S
C2675 O2695 1.252 . S
C2676 C2675 1.510 . S
C2676 C2677 1.404 . S
C2676 C2678 1.352 . S
C2677 C2676 1.404 . S
C2677 C2681 1.389 . S
C2677 H2704 0.930 . S
C2678 C2676 1.352 . S
C2678 C2680 1.374 . S
C2678 H2705 0.931 . S
C2679 C2680 1.359 . S
C2679 C2681 1.364 . S
C2680 C2678 1.374 . S
C2680 C2679 1.359 . S
C2680 H2706 0.931 . S
C2681 C2677 1.389 . S
C2681 C2679 1.364 . S
C2681 H2707 0.931 . S
C2682 O2696 1.256 . S
C2682 O2697 1.257 . S
C2683 O2698 1.240 . S
C2683 O2699 1.240 . S
C2684 Gd2673 2.818 . S
C2684 C2685 1.510 . S
C2684 O2700 1.249 . S
C2684 O2701 1.252 . S
C2685 C2684 1.510 . S
C2685 C2686 1.404 . S
C2685 C2687 1.352 . S
C2686 C2685 1.404 . S
C2686 C2690 1.389 . S
C2686 H2708 0.930 . S
C2687 C2685 1.352 . S
C2687 C2689 1.374 . S
C2687 H2709 0.931 . S
C2688 C2689 1.359 . S
C2688 C2690 1.364 . S
C2689 C2687 1.374 . S
C2689 C2688 1.359 . S
C2689 H2710 0.931 . S
C2690 C2686 1.389 . S
C2690 C2688 1.364 . S
C2690 H2711 0.931 . S
C2691 O2702 1.256 . S
C2691 O2703 1.257 . S
O2692 Gd2672 2.377 . S
O2692 C2674 1.240 . S
O2693 Gd2673 2.395 . S
O2693 C2674 1.240 . S
O2694 Gd2672 2.448 . S
O2694 C2675 1.249 . S
O2695 Gd2672 2.506 . S
O2695 C2675 1.252 . S
O2696 Gd2672 2.435 . S
O2696 C2682 1.256 . S
O2697 Gd2672 2.717 . S
O2697 Gd2673 2.327 . S
O2697 C2682 1.257 . S
O2698 Gd2673 2.377 . S
O2698 C2683 1.240 . S
O2699 Gd2672 2.395 . S
O2699 C2683 1.240 . S
O2700 Gd2673 2.448 . S
O2700 C2684 1.249 . S
O2701 Gd2673 2.506 . S
O2701 C2684 1.252 . S
O2702 Gd2673 2.435 . S
O2702 C2691 1.256 . S
O2703 Gd2672 2.327 . S
O2703 Gd2673 2.717 . S
O2703 C2691 1.257 . S
H2704 C2677 0.930 . S
H2705 C2678 0.931 . S
H2706 C2680 0.931 . S
H2707 C2681 0.931 . S
H2708 C2686 0.930 . S
H2709 C2687 0.931 . S
H2710 C2689 0.931 . S
H2711 C2690 0.931 . S
Gd2712 C2715 2.815 1_554 S
Gd2712 O2732 2.381 1_554 S
Gd2712 O2734 2.431 1_554 S
Gd2712 O2735 2.518 . S
Gd2712 O2736 2.407 1_554 S
Gd2712 O2737 2.713 1_554 S
Gd2712 O2739 2.397 . S
Gd2712 O2743 2.359 . S
Gd2713 C2724 2.818 1_455 S
Gd2713 O2733 2.395 . S
Gd2713 O2737 2.327 1_554 S
Gd2713 O2738 2.377 . S
Gd2713 O2740 2.448 . S
Gd2713 O2741 2.484 1_455 S
Gd2713 O2742 2.435 . S
Gd2713 O2743 2.717 . S
C2714 O2732 1.240 1_554 S
C2714 O2733 1.240 . S
C2715 Gd2712 2.815 1_556 S
C2715 C2716 1.510 . S
C2715 O2734 1.249 . S
C2715 O2735 1.252 1_556 S
C2716 C2715 1.510 . S
C2716 C2717 1.404 . S
C2716 C2718 1.352 1_556 S
C2717 C2716 1.404 . S
C2717 C2721 1.389 . S
C2717 H2744 0.930 . S
C2718 C2716 1.352 1_554 S
C2718 C2720 1.374 . S
C2718 H2745 0.931 . S
C2719 C2720 1.359 1_556 S
C2719 C2721 1.364 . S
C2720 C2718 1.374 . S
C2720 C2719 1.359 1_554 S
C2720 H2746 0.931 . S
C2721 C2717 1.389 . S
C2721 C2719 1.364 . S
C2721 H2747 0.931 . S
C2722 O2736 1.256 . S
C2722 O2737 1.257 . S
C2723 O2738 1.240 . S
C2723 O2739 1.240 . S
C2724 Gd2713 2.818 1_655 S
C2724 C2725 1.510 . S
C2724 O2740 1.249 1_655 S
C2724 O2741 1.263 . S
C2725 C2724 1.510 . S
C2725 C2726 1.404 . S
C2725 C2727 1.352 . S
C2726 C2725 1.404 . S
C2726 C2730 1.389 . S
C2726 H2748 0.930 . S
C2727 C2725 1.352 . S
C2727 C2729 1.374 . S
C2727 H2749 0.931 . S
C2728 C2729 1.359 . S
C2728 C2730 1.364 . S
C2729 C2727 1.374 . S
C2729 C2728 1.359 . S
C2729 H2750 0.931 . S
C2730 C2726 1.389 . S
C2730 C2728 1.364 . S
C2730 H2751 0.931 . S
C2731 O2742 1.256 . S
C2731 O2743 1.257 . S
O2732 Gd2712 2.381 1_556 S
O2732 C2714 1.240 1_556 S
O2733 Gd2713 2.395 . S
O2733 C2714 1.240 . S
O2734 Gd2712 2.431 1_556 S
O2734 C2715 1.249 . S
O2735 Gd2712 2.518 . S
O2735 C2715 1.252 1_554 S
O2736 Gd2712 2.407 1_556 S
O2736 C2722 1.256 . S
O2737 Gd2712 2.713 1_556 S
O2737 Gd2713 2.327 1_556 S
O2737 C2722 1.257 . S
O2738 Gd2713 2.377 . S
O2738 C2723 1.240 . S
O2739 Gd2712 2.397 . S
O2739 C2723 1.240 . S
O2740 Gd2713 2.448 . S
O2740 C2724 1.249 1_455 S
O2741 Gd2713 2.484 1_655 S
O2741 C2724 1.263 . S
O2742 Gd2713 2.435 . S
O2742 C2731 1.256 . S
O2743 Gd2712 2.359 . S
O2743 Gd2713 2.717 . S
O2743 C2731 1.257 . S
H2744 C2717 0.930 . S
H2745 C2718 0.931 . S
H2746 C2720 0.931 . S
H2747 C2721 0.931 . S
H2748 C2726 0.930 . S
H2749 C2727 0.931 . S
H2750 C2729 0.931 . S
H2751 C2730 0.931 . S
C665 C2114 3.787 . S
C381 C2171 3.230 . S
C460 C2194 2.514 . S
C2248 C585 1.790 . S
C108 C2288 3.402 . S
C2319 C196 0.525 . S
C2371 C313 3.908 . S
C49 C2394 3.248 . S
C2131 C1457 3.479 . S
C1545 C2168 1.358 . S
C2211 C1721 0.886 . S
C2234 C1113 2.876 . S
C1428 C2274 3.466 . S
C2322 C1516 1.472 . S
C2368 C1692 1.391 . S
C2411 C1085 3.203 . S
C2128 C988 3.181 . S
C1817 C2451 2.565 1_556 S
C2483 C2081 3.787 . S
C2514 C1993 2.093 . S
C761 C2408 3.736 . S
C821 C2208 2.665 . S
C2053 C2571 3.097 . S
C2594 C1868 0.560 . S
C2123 C372 3.790 . S
C2602 C645 3.220 . S
C577 C2203 2.504 . S
C497 C2559 1.794 . S
C2279 C57 3.417 . S
C293 C2488 0.519 . S
C2362 C205 3.891 1_565 S
C2643 C145 3.261 . S
C2122 C909 3.475 . S
C2599 C1956 1.377 . S
C724 C2202 0.886 . S
C1780 C2563 2.868 . S
C937 C2283 3.471 1_565 S
C2491 C1985 1.477 . S
C753 C2359 1.383 1_545 S
C1809 C2642 3.205 . S
C1173 C2119 3.195 1_554 S
C1105 C2442 2.556 . S
C1633 C2314 3.784 . S
C1553 C2523 2.082 . S
C2639 C1729 3.755 . S
C1340 C2199 2.677 . S
C2242 C1604 3.089 . S
C2163 C1252 0.572 . S
C489 C2674 3.787 . S
C2611 C557 3.230 . S
C636 C2714 2.514 . S
C409 C2568 1.790 1_455 S
C284 C2448 3.402 . S
C2479 C20 0.525 . S
C2531 C137 3.907 1_455 S
C2634 C225 3.248 . S
C2691 C1641 3.479 . S
C1193 C2608 1.358 . S
C2731 C1289 0.887 . S
C2554 C1377 2.876 . S
C2434 C1613 3.467 . S
C1164 C2482 1.472 . S
C2528 C1261 1.391 . S
C1349 C2651 3.203 . S
C2688 C1965 3.186 . S
C849 C2291 2.565 . S
C2323 C929 3.787 . S
C2354 C1017 2.095 . S
C2648 C1897 3.736 . S
C1789 C2728 2.665 . S
C2251 C900 3.097 . S
C2154 C733 0.555 . S
C548 C2683 3.790 . S
C2162 C469 3.219 . S
C401 C2723 2.504 1_556 S
C673 C2239 1.794 . S
C233 C2439 3.417 . S
C2328 C117 0.519 . S
C29 C2522 3.892 . S
C321 C2403 3.261 . S
C2682 C2044 3.475 . S
C997 C2159 1.378 . S
C2722 C1877 0.887 . S
C812 C2243 2.868 . S
C2073 C2443 3.471 . S
C2331 C1025 1.481 . S
C1905 C2519 1.389 1_455 S
C2402 C841 3.205 . S
C2679 C1525 3.196 . S
C2282 C1369 2.556 1_445 S
C1465 C2474 3.784 . S
C2363 C1201 2.082 . S
C1281 C2399 3.755 . S
C1076 C2719 2.677 1_554 S
C2562 C1437 3.089 . S
C2603 C1701 0.572 . S
