# Generated by pormake.
# Topology soc, (4,6)-cn, num edge types: 1
# Building blocks:
#     Node 0, Type 0, BuildingBlock: ESEHIV_clean_sbu_0, # of connection points: 4
#     Node 1, Type 0, BuildingBlock: ESEHIV_clean_sbu_0, # of connection points: 4
#     Node 2, Type 0, BuildingBlock: ESEHIV_clean_sbu_0, # of connection points: 4
#     Node 3, Type 0, BuildingBlock: ESEHIV_clean_sbu_0, # of connection points: 4
#     Node 4, Type 0, BuildingBlock: ESEHIV_clean_sbu_0, # of connection points: 4
#     Node 5, Type 0, BuildingBlock: ESEHIV_clean_sbu_0, # of connection points: 4
#     Node 6, Type 0, BuildingBlock: ESEHIV_clean_sbu_0, # of connection points: 4
#     Node 7, Type 0, BuildingBlock: ESEHIV_clean_sbu_0, # of connection points: 4
#     Node 8, Type 0, BuildingBlock: ESEHIV_clean_sbu_0, # of connection points: 4
#     Node 9, Type 0, BuildingBlock: ESEHIV_clean_sbu_0, # of connection points: 4
#     Node 10, Type 0, BuildingBlock: ESEHIV_clean_sbu_0, # of connection points: 4
#     Node 11, Type 0, BuildingBlock: ESEHIV_clean_sbu_0, # of connection points: 4
#     Node 12, Type 1, BuildingBlock: BETDAH_clean_sbu_0, # of connection points: 6
#     Node 13, Type 1, BuildingBlock: BETDAH_clean_sbu_0, # of connection points: 6
#     Node 14, Type 1, BuildingBlock: BETDAH_clean_sbu_0, # of connection points: 6
#     Node 15, Type 1, BuildingBlock: BETDAH_clean_sbu_0, # of connection points: 6
#     Node 16, Type 1, BuildingBlock: BETDAH_clean_sbu_0, # of connection points: 6
#     Node 17, Type 1, BuildingBlock: BETDAH_clean_sbu_0, # of connection points: 6
#     Node 18, Type 1, BuildingBlock: BETDAH_clean_sbu_0, # of connection points: 6
#     Node 19, Type 1, BuildingBlock: BETDAH_clean_sbu_0, # of connection points: 6
#     Edge 20, Type (0, 1), BuildingBlock: AJUNOK_clean_linker_0, # of connection points: 2
#     Edge 21, Type (0, 1), BuildingBlock: AJUNOK_clean_linker_0, # of connection points: 2
#     Edge 22, Type (0, 1), BuildingBlock: AJUNOK_clean_linker_0, # of connection points: 2
#     Edge 23, Type (0, 1), BuildingBlock: AJUNOK_clean_linker_0, # of connection points: 2
#     Edge 24, Type (0, 1), BuildingBlock: AJUNOK_clean_linker_0, # of connection points: 2
#     Edge 25, Type (0, 1), BuildingBlock: AJUNOK_clean_linker_0, # of connection points: 2
#     Edge 26, Type (0, 1), BuildingBlock: AJUNOK_clean_linker_0, # of connection points: 2
#     Edge 27, Type (0, 1), BuildingBlock: AJUNOK_clean_linker_0, # of connection points: 2
#     Edge 28, Type (0, 1), BuildingBlock: AJUNOK_clean_linker_0, # of connection points: 2
#     Edge 29, Type (0, 1), BuildingBlock: AJUNOK_clean_linker_0, # of connection points: 2
#     Edge 30, Type (0, 1), BuildingBlock: AJUNOK_clean_linker_0, # of connection points: 2
#     Edge 31, Type (0, 1), BuildingBlock: AJUNOK_clean_linker_0, # of connection points: 2
#     Edge 32, Type (0, 1), BuildingBlock: AJUNOK_clean_linker_0, # of connection points: 2
#     Edge 33, Type (0, 1), BuildingBlock: AJUNOK_clean_linker_0, # of connection points: 2
#     Edge 34, Type (0, 1), BuildingBlock: AJUNOK_clean_linker_0, # of connection points: 2
#     Edge 35, Type (0, 1), BuildingBlock: AJUNOK_clean_linker_0, # of connection points: 2
#     Edge 36, Type (0, 1), BuildingBlock: AJUNOK_clean_linker_0, # of connection points: 2
#     Edge 37, Type (0, 1), BuildingBlock: AJUNOK_clean_linker_0, # of connection points: 2
#     Edge 38, Type (0, 1), BuildingBlock: AJUNOK_clean_linker_0, # of connection points: 2
#     Edge 39, Type (0, 1), BuildingBlock: AJUNOK_clean_linker_0, # of connection points: 2
#     Edge 40, Type (0, 1), BuildingBlock: AJUNOK_clean_linker_0, # of connection points: 2
#     Edge 41, Type (0, 1), BuildingBlock: AJUNOK_clean_linker_0, # of connection points: 2
#     Edge 42, Type (0, 1), BuildingBlock: AJUNOK_clean_linker_0, # of connection points: 2
#     Edge 43, Type (0, 1), BuildingBlock: AJUNOK_clean_linker_0, # of connection points: 2
#     Edge 44, Type (0, 1), BuildingBlock: AJUNOK_clean_linker_0, # of connection points: 2
#     Edge 45, Type (0, 1), BuildingBlock: AJUNOK_clean_linker_0, # of connection points: 2
#     Edge 46, Type (0, 1), BuildingBlock: AJUNOK_clean_linker_0, # of connection points: 2
#     Edge 47, Type (0, 1), BuildingBlock: AJUNOK_clean_linker_0, # of connection points: 2
#     Edge 48, Type (0, 1), BuildingBlock: AJUNOK_clean_linker_0, # of connection points: 2
#     Edge 49, Type (0, 1), BuildingBlock: AJUNOK_clean_linker_0, # of connection points: 2
#     Edge 50, Type (0, 1), BuildingBlock: AJUNOK_clean_linker_0, # of connection points: 2
#     Edge 51, Type (0, 1), BuildingBlock: AJUNOK_clean_linker_0, # of connection points: 2
#     Edge 52, Type (0, 1), BuildingBlock: AJUNOK_clean_linker_0, # of connection points: 2
#     Edge 53, Type (0, 1), BuildingBlock: AJUNOK_clean_linker_0, # of connection points: 2
#     Edge 54, Type (0, 1), BuildingBlock: AJUNOK_clean_linker_0, # of connection points: 2
#     Edge 55, Type (0, 1), BuildingBlock: AJUNOK_clean_linker_0, # of connection points: 2
#     Edge 56, Type (0, 1), BuildingBlock: AJUNOK_clean_linker_0, # of connection points: 2
#     Edge 57, Type (0, 1), BuildingBlock: AJUNOK_clean_linker_0, # of connection points: 2
#     Edge 58, Type (0, 1), BuildingBlock: AJUNOK_clean_linker_0, # of connection points: 2
#     Edge 59, Type (0, 1), BuildingBlock: AJUNOK_clean_linker_0, # of connection points: 2
#     Edge 60, Type (0, 1), BuildingBlock: AJUNOK_clean_linker_0, # of connection points: 2
#     Edge 61, Type (0, 1), BuildingBlock: AJUNOK_clean_linker_0, # of connection points: 2
#     Edge 62, Type (0, 1), BuildingBlock: AJUNOK_clean_linker_0, # of connection points: 2
#     Edge 63, Type (0, 1), BuildingBlock: AJUNOK_clean_linker_0, # of connection points: 2
#     Edge 64, Type (0, 1), BuildingBlock: AJUNOK_clean_linker_0, # of connection points: 2
#     Edge 65, Type (0, 1), BuildingBlock: AJUNOK_clean_linker_0, # of connection points: 2
#     Edge 66, Type (0, 1), BuildingBlock: AJUNOK_clean_linker_0, # of connection points: 2
#     Edge 67, Type (0, 1), BuildingBlock: AJUNOK_clean_linker_0, # of connection points: 2
# Relax obj value: 0.226
# Max RMSD: 0.364
# Mean RMSD: 0.194
data_MOF--net-soc--node1-ESEHIV_clean_sbu_0--node2-BETDAH_clean_sbu_0--edge1-AJUNOK_clean_linker_0
_symmetry_space_group_name_H-M    P1
_symmetry_Int_Tables_number       1
_symmetry_cell_setting            triclinic
loop_
_symmetry_equiv_pos_as_xyz
'x, y, z'
_cell_length_a     40.704421
_cell_length_b     38.696334
_cell_length_c     33.046983
_cell_angle_alpha  80.433469
_cell_angle_beta   80.702871
_cell_angle_gamma 65.507314
loop_
_atom_site_label
_atom_site_type_symbol
_atom_site_fract_x
_atom_site_fract_y
_atom_site_fract_z
_atom_type_partial_charge
Cu0 Cu 0.05888 0.06095 0.40288 0.0
N1 N 0.07878 0.07696 0.43895 0.0
N2 N 0.11034 0.1063 0.45689 0.0
C3 C 0.10417 0.0912 0.42645 0.0
C4 C 0.0876 0.10161 0.48985 0.0
C5 C 0.06798 0.08365 0.4786 0.0
O6 O 0.10218 0.02858 0.36753 0.0
C7 C 0.99422 0.11531 0.36134 0.0
O8 O 0.99368 0.0872 0.34456 0.0
H9 H 0.11572 0.09306 0.39469 0.0
H10 H 0.04593 0.07812 0.49725 0.0
N11 N 0.03511 0.03083 0.4318 0.0
N12 N 1.00383 0.99423 0.43894 0.0
C13 C 1.01569 0.01843 0.41337 0.0
C14 C 0.03618 0.01334 0.47068 0.0
C15 C 0.0168 0.99059 0.47518 0.0
C16 C 0.11164 0.99232 0.36952 0.0
O17 O 0.08872 0.97757 0.38812 0.0
H18 H 1.01385 0.02368 0.38058 0.0
H19 H 0.0514 0.01532 0.4935 0.0
O20 O 0.0206 0.10971 0.3815 0.0
H21 H 0.08429 0.11188 0.5194 0.0
H22 H 1.01343 0.97207 0.50245 0.0
Cu23 Cu 0.05752 0.06574 0.75958 0.0
N24 N 0.03924 0.04576 0.72542 0.0
N25 N 1.00271 0.02105 0.70901 0.0
C26 C 1.00606 0.04501 0.73216 0.0
C27 C 0.03529 1.00712 0.6862 0.0
C28 C 0.05758 0.02234 0.69633 0.0
O29 O 1.01489 0.10302 0.78974 0.0
C30 C 0.12416 1.00479 0.76796 0.0
O31 O 0.12844 0.02024 0.7301 0.0
H32 H 0.98575 0.06084 0.75497 0.0
H33 H 0.08585 0.01483 0.68513 0.0
N34 N 0.08227 0.09398 0.72925 0.0
N35 N 0.11371 0.13038 0.71918 0.0
C36 C 0.09855 0.11039 0.74711 0.0
C37 C 0.08712 0.10378 0.68838 0.0
C38 C 0.10669 0.12642 0.68204 0.0
C39 C 0.99909 0.13585 0.76967 0.0
O40 O 1.01159 0.14253 0.73138 0.0
H41 H 0.09943 0.10741 0.78012 0.0
H42 H 0.07674 0.09555 0.66511 0.0
O43 O 0.09419 0.02124 0.79 0.0
H44 H 0.04371 0.98534 0.66557 0.0
H45 H 0.11446 0.1395 0.65262 0.0
Cu46 Cu 0.31152 0.09764 0.10943 0.0
N47 N 0.27358 0.0988 0.08263 0.0
N48 N 0.2396 0.07358 0.06061 0.0
C49 C 0.25487 0.07628 0.09301 0.0
C50 C 0.24872 0.09619 0.02916 0.0
C51 C 0.26953 0.11116 0.04252 0.0
O52 O 0.33164 0.04337 0.13928 0.0
C53 C 0.32353 0.15349 0.04811 0.0
O54 O 0.29149 0.17336 0.06644 0.0
H55 H 0.25537 0.05992 0.12274 0.0
H56 H 0.28434 0.12581 0.02236 0.0
N57 N 0.29467 0.13278 0.14927 0.0
N58 N 0.29417 0.1717 0.19287 0.0
C59 C 0.31381 0.14916 0.163 0.0
C60 C 0.26174 0.14594 0.171 0.0
C61 C 0.26151 0.16958 0.19821 0.0
C62 C 0.31399 0.03484 0.17291 0.0
O63 O 0.2849 0.06232 0.18791 0.0
H64 H 0.34175 0.14412 0.15187 0.0
H65 H 0.23964 0.13827 0.16781 0.0
O66 O 0.34008 0.11832 0.06302 0.0
H67 H 0.24492 0.09808 0.99709 0.0
H68 H 0.23917 0.184 0.22033 0.0
Cu69 Cu 0.09546 0.32524 0.14131 0.0
N70 N 0.10706 0.35408 0.0937 0.0
N71 N 0.13851 0.35922 0.03194 0.0
C72 C 0.13977 0.34131 0.07084 0.0
C73 C 0.10372 0.38432 0.03022 0.0
C74 C 0.08445 0.38119 0.06826 0.0
O75 O 0.13432 0.31793 0.17817 0.0
C76 C 0.08176 0.26466 0.09449 0.0
O77 O 0.10648 0.2295 0.09632 0.0
H78 H 0.16321 0.3169 0.08131 0.0
H79 H 0.05545 0.39537 0.07568 0.0
N80 N 0.05086 0.34893 0.17389 0.0
N81 N 0.99752 0.35534 0.21215 0.0
C82 C 0.01963 0.3433 0.17719 0.0
C83 C 0.0487 0.36415 0.20843 0.0
C84 C 1.01645 0.36788 0.23188 0.0
C85 C 0.15617 0.29434 0.20401 0.0
O86 O 0.15892 0.25888 0.21112 0.0
H87 H 1.01435 0.32834 0.15585 0.0
H88 H 0.07063 0.36886 0.21785 0.0
O89 O 0.08705 0.28847 0.1128 0.0
H90 H 0.09263 0.40227 1.00278 0.0
H91 H 1.0093 0.37626 0.26277 0.0
Cu92 Cu 0.80558 0.02134 0.02422 0.0
N93 N 0.8285 0.04379 0.98018 0.0
N94 N 0.83493 0.09292 0.93803 0.0
C95 C 0.81536 0.08207 0.97048 0.0
C96 C 0.8613 0.05996 0.92613 0.0
C97 C 0.85717 0.02961 0.95212 0.0
O98 O 0.78755 0.06112 0.06172 0.0
C99 C 0.79622 0.9731 0.98039 0.0
O100 O 0.83023 0.9561 0.98829 0.0
H101 H 0.79207 0.10182 0.98758 0.0
H102 H 0.87374 0.99954 0.95052 0.0
N103 N 0.83364 0.97929 0.05949 0.0
N104 N 0.84362 0.93898 0.1177 0.0
C105 C 0.81883 0.96794 0.09601 0.0
C106 C 0.86933 0.9568 0.05796 0.0
C107 C 0.87545 0.9315 0.09362 0.0
C108 C 0.81561 0.06389 0.07149 0.0
O109 O 0.84761 0.04195 0.05499 0.0
H110 H 0.79004 0.98012 0.1059 0.0
H111 H 0.88934 0.95854 0.03273 0.0
O112 O 0.77619 1.00391 0.99674 0.0
H113 H 0.88185 0.05787 0.9003 0.0
H114 H 0.9012 0.90895 0.101 0.0
Cu115 Cu 0.0317 0.79198 1.01783 0.0
N116 N 1.00257 0.80324 0.97353 0.0
N117 N 0.96249 0.80436 0.9328 0.0
C118 C 0.97063 0.80023 0.97217 0.0
C119 C 0.98995 0.81056 0.90876 0.0
C120 C 1.01439 0.80966 0.93362 0.0
O121 O 1.01143 0.76716 0.07005 0.0
C122 C 0.09745 0.79597 0.97154 0.0
O123 O 0.07387 0.83147 0.96549 0.0
H124 H 0.95451 0.79348 0.99919 0.0
H125 H 0.03994 0.81193 0.9228 0.0
N126 N 0.03019 0.83432 0.03905 0.0
N127 N 0.05314 0.8573 0.07991 0.0
C128 C 0.05852 0.82821 0.05902 0.0
C129 C 1.00558 0.86941 0.04672 0.0
C130 C 0.01998 0.8839 0.07188 0.0
C131 C 0.98022 0.78769 0.0883 0.0
O132 O 0.96188 0.82165 0.0699 0.0
H133 H 0.08269 0.80206 0.05857 0.0
H134 H 0.97865 0.88267 0.03666 0.0
O135 O 0.08553 0.77132 0.9929 0.0
H136 H 0.99234 0.81516 0.87538 0.0
H137 H 1.00658 0.91097 0.08464 0.0
Cu138 Cu 0.55808 0.55166 0.9037 0.0
N139 N 0.57529 0.57295 0.93699 0.0
N140 N 0.60333 0.60763 0.9509 0.0
C141 C 0.60277 0.58421 0.92526 0.0
C142 C 0.57511 0.61097 0.98004 0.0
C143 C 0.55779 0.58959 0.97127 0.0
O144 O 0.60238 0.51696 0.87141 0.0
C145 C 0.49125 0.60077 0.86246 0.0
O146 O 0.48987 0.56988 0.85298 0.0
H147 H 0.62026 0.57762 0.89676 0.0
H148 H 0.53241 0.58902 0.98657 0.0
N149 N 0.53597 0.52238 0.9379 0.0
N150 N 0.50837 0.48235 0.95477 0.0
C151 C 0.51724 0.50578 0.92468 0.0
C152 C 0.53939 0.50854 0.97799 0.0
C153 C 0.5222 0.48361 0.98856 0.0
C154 C 0.61521 0.48066 0.88202 0.0
O155 O 0.59649 0.46669 0.91081 0.0
H156 H 0.51234 0.50848 0.89295 0.0
H157 H 0.55456 0.51484 0.99762 0.0
O158 O 0.51934 0.59787 0.87787 0.0
H159 H 0.56554 0.63022 1.00367 0.0
H160 H 0.52023 0.46755 1.01831 0.0
Cu161 Cu 0.5632 0.57074 0.26038 0.0
N162 N 0.54311 0.54748 0.23233 0.0
N163 N 0.50601 0.52085 0.22281 0.0
C164 C 0.51218 0.54278 0.24599 0.0
C165 C 0.53414 0.51223 0.19281 0.0
C166 C 0.55682 0.52883 0.19863 0.0
O167 O 0.52295 0.61134 0.2894 0.0
C168 C 0.62911 0.51091 0.26496 0.0
O169 O 0.62751 0.52281 0.22548 0.0
H170 H 0.49486 0.55559 0.27246 0.0
H171 H 0.58192 0.52653 0.18013 0.0
N172 N 0.58606 0.59801 0.22443 0.0
N173 N 0.6162 0.63582 0.21079 0.0
C174 C 0.60725 0.61087 0.23874 0.0
C175 C 0.58178 0.61462 0.18538 0.0
C176 C 0.60044 0.63823 0.17684 0.0
C177 C 0.50185 0.63477 0.26328 0.0
O178 O 0.50807 0.62595 0.22531 0.0
H179 H 0.61477 0.60293 0.26996 0.0
H180 H 0.56466 0.6116 0.16553 0.0
O181 O 0.60221 0.52908 0.29003 0.0
H182 H 0.53892 0.49402 0.16908 0.0
H183 H 0.60048 0.65724 0.14887 0.0
Cu184 Cu 0.78952 0.61765 0.61874 0.0
N185 N 0.79852 0.64605 0.56867 0.0
N186 N 0.81444 0.67206 0.50682 0.0
C187 C 0.82645 0.64588 0.53988 0.0
C188 C 0.77822 0.68912 0.51537 0.0
C189 C 0.76869 0.67329 0.55306 0.0
O190 O 0.77487 0.65459 0.65983 0.0
C191 C 0.77752 0.57814 0.56992 0.0
O192 O 0.8116 0.57388 0.56251 0.0
H193 H 0.85447 0.62653 0.54246 0.0
H194 H 0.74139 0.68055 0.56811 0.0
N195 N 0.82439 0.57214 0.64357 0.0
N196 N 0.83527 0.51645 0.68475 0.0
C197 C 0.81881 0.53935 0.65202 0.0
C198 C 0.84587 0.56941 0.67203 0.0
C199 C 0.85287 0.53519 0.69697 0.0
C200 C 0.79851 0.66886 0.65829 0.0
O201 O 0.82718 0.65759 0.6312 0.0
H202 H 0.80076 0.53362 0.63629 0.0
H203 H 0.85269 0.59228 0.6775 0.0
O204 O 0.75798 0.59787 0.59928 0.0
H205 H 0.75987 0.71184 0.49575 0.0
H206 H 0.86727 0.52644 0.72418 0.0
Cu207 Cu 0.59219 0.82149 0.63097 0.0
N208 N 0.6234 0.82655 0.57983 0.0
N209 N 0.66057 0.8315 0.52068 0.0
C210 C 0.65411 0.80787 0.55435 0.0
C211 C 0.63269 0.86546 0.52509 0.0
C212 C 0.61093 0.86247 0.56054 0.0
O213 O 0.60954 0.84639 0.66568 0.0
C214 C 0.55814 0.80371 0.58334 0.0
O215 O 0.58301 0.77126 0.59771 0.0
H216 H 0.67161 0.77801 0.56055 0.0
H217 H 0.58667 0.88557 0.57173 0.0
N218 N 0.5613 0.80296 0.67368 0.0
N219 N 0.51068 0.79967 0.71412 0.0
C220 C 0.52413 0.81401 0.67762 0.0
C221 C 0.57101 0.78185 0.70982 0.0
C222 C 0.54063 0.77962 0.7341 0.0
C223 C 0.6393 0.82272 0.67994 0.0
O224 O 0.65281 0.78759 0.67001 0.0
H225 H 0.5071 0.83255 0.65425 0.0
H226 H 0.59827 0.76984 0.71879 0.0
O227 O 0.55498 0.835 0.595 0.0
H228 H 0.62796 0.8911 0.50374 0.0
H229 H 0.54064 0.76498 0.76499 0.0
Cu230 Cu 0.3081 0.52306 0.53866 0.0
N231 N 0.33067 0.54784 0.4935 0.0
N232 N 0.33567 0.59762 0.44852 0.0
C233 C 0.32058 0.58659 0.48553 0.0
C234 C 0.35623 0.56423 0.43262 0.0
C235 C 0.35299 0.53402 0.45992 0.0
O236 O 0.29216 0.56133 0.57577 0.0
C237 C 0.29138 0.47873 0.49705 0.0
O238 O 0.32637 0.46002 0.49955 0.0
H239 H 0.30093 0.60668 0.50566 0.0
H240 H 0.365 0.50422 0.45471 0.0
N241 N 0.33165 0.47862 0.57678 0.0
N242 N 0.33668 0.4365 0.6348 0.0
C243 C 0.3142 0.4674 0.61201 0.0
C244 C 0.36654 0.45378 0.57761 0.0
C245 C 0.36959 0.42788 0.61282 0.0
C246 C 0.32147 0.56185 0.58442 0.0
O247 O 0.35293 0.53705 0.56993 0.0
H248 H 0.28524 0.48117 0.62026 0.0
H249 H 0.38829 0.45433 0.55423 0.0
O250 O 0.27479 0.50998 0.51352 0.0
H251 H 0.37226 0.56162 0.40292 0.0
H252 H 0.39417 0.40393 0.62124 0.0
Cu253 Cu 0.51398 0.3162 0.52486 0.0
N254 N 0.55508 0.29662 0.48474 0.0
N255 N 0.60835 0.2923 0.44678 0.0
C256 C 0.59013 0.29203 0.48527 0.0
C257 C 0.58353 0.29715 0.42139 0.0
C258 C 0.55142 0.29991 0.44437 0.0
O259 O 0.53083 0.34628 0.55492 0.0
C260 C 0.46526 0.30823 0.47944 0.0
O261 O 0.48878 0.27344 0.4896 0.0
H262 H 0.60139 0.29047 0.51312 0.0
H263 H 0.52609 0.30785 0.43176 0.0
N264 N 0.50339 0.28171 0.56803 0.0
N265 N 0.47657 0.26304 0.62789 0.0
C266 C 0.47716 0.29276 0.5999 0.0
C267 C 0.52013 0.24354 0.5762 0.0
C268 C 0.50384 0.23204 0.61298 0.0
C269 C 0.55582 0.3241 0.57809 0.0
O270 O 0.56335 0.28738 0.58203 0.0
H271 H 0.45902 0.32229 0.60266 0.0
H272 H 0.54335 0.22551 0.5575 0.0
O273 O 0.46994 0.33566 0.492 0.0
H274 H 0.58712 0.30153 0.38806 0.0
H275 H 0.5125 0.20318 0.62826 0.0
Ho276 Ho 0.28553 0.30148 0.38108 0.0
Ho277 Ho 0.30608 0.35136 0.3048 0.0
C278 C 0.31864 0.26482 0.29443 0.0
C279 C 0.25211 0.26798 0.43487 0.0
C280 C 0.23134 0.2448 0.436 0.0
C281 C 0.21647 0.24391 0.40092 0.0
C282 C 0.19747 0.22068 0.40274 0.0
C283 C 0.19314 0.19845 0.43971 0.0
C284 C 0.20825 0.19928 0.47456 0.0
C285 C 0.22742 0.2222 0.47263 0.0
C286 C 0.34834 0.30711 0.39399 0.0
C287 C 0.26961 0.38872 0.39084 0.0
C288 C 0.34015 0.38484 0.2521 0.0
C289 C 0.36058 0.4084 0.25156 0.0
C290 C 0.38364 0.40175 0.28188 0.0
C291 C 0.40386 0.42383 0.2793 0.0
C292 C 0.40083 0.45314 0.24673 0.0
C293 C 0.37668 0.46048 0.21741 0.0
C294 C 0.35679 0.43821 0.21978 0.0
C295 C 0.24436 0.3439 0.29098 0.0
O296 O 0.3018 0.26226 0.33183 0.0
O297 O 0.32824 0.29382 0.28004 0.0
O298 O 0.28663 0.25161 0.42189 0.0
O299 O 0.23686 0.30404 0.42005 0.0
O300 O 0.33358 0.28584 0.41684 0.0
O301 O 0.33039 0.32162 0.36272 0.0
O302 O 0.2877 0.3913 0.35416 0.0
O303 O 0.26064 0.35931 0.40445 0.0
O304 O 0.30535 0.40108 0.26387 0.0
O305 O 0.35527 0.34874 0.26698 0.0
O306 O 0.25861 0.36576 0.26823 0.0
O307 O 0.26182 0.33066 0.32275 0.0
H308 H 0.21954 0.26113 0.37238 0.0
H309 H 0.1858 0.2204 0.37561 0.0
H310 H 0.2053 0.18206 0.5032 0.0
H311 H 0.23919 0.2223 0.49975 0.0
H312 H 0.38658 0.37908 0.30696 0.0
H313 H 0.42274 0.41708 0.30194 0.0
H314 H 0.37364 0.48307 0.19222 0.0
H315 H 0.33877 0.44393 0.19642 0.0
Ho316 Ho 0.81182 0.32857 0.36873 0.0
Ho317 Ho 0.80446 0.30037 0.29818 0.0
C318 C 0.74836 0.29996 0.38114 0.0
C319 C 0.81557 0.36976 0.42068 0.0
C320 C 0.79202 0.40039 0.44663 0.0
C321 C 0.76831 0.43606 0.42919 0.0
C322 C 0.75321 0.4674 0.45207 0.0
C323 C 0.7617 0.46363 0.49257 0.0
C324 C 0.78217 0.42718 0.51133 0.0
C325 C 0.79729 0.3958 0.48846 0.0
C326 C 0.85876 0.25327 0.36374 0.0
C327 C 0.86503 0.33311 0.28406 0.0
C328 C 0.79461 0.26063 0.24938 0.0
C329 C 0.80612 0.23265 0.21932 0.0
C330 C 0.82621 0.19368 0.23073 0.0
C331 C 0.82925 0.16641 0.20592 0.0
C332 C 0.8125 0.1776 0.16914 0.0
C333 C 0.79395 0.21664 0.15678 0.0
C334 C 0.79076 0.24393 0.1817 0.0
C335 C 0.76182 0.37604 0.29882 0.0
O336 O 0.75879 0.32389 0.39396 0.0
O337 O 0.76557 0.28375 0.34734 0.0
O338 O 0.81545 0.33578 0.43148 0.0
O339 O 0.8173 0.37887 0.38074 0.0
O340 O 0.84095 0.26742 0.3974 0.0
O341 O 0.85078 0.27984 0.33479 0.0
O342 O 0.85634 0.30747 0.27164 0.0
O343 O 0.84746 0.34877 0.31821 0.0
O344 O 0.7936 0.29499 0.23762 0.0
O345 O 0.80224 0.24819 0.28742 0.0
O346 O 0.78145 0.35974 0.26703 0.0
O347 O 0.7662 0.3511 0.32982 0.0
H348 H 0.76362 0.44054 0.39704 0.0
H349 H 0.73787 0.49536 0.43683 0.0
H350 H 0.78957 0.4237 0.54226 0.0
H351 H 0.81544 0.36861 0.50257 0.0
H352 H 0.83796 0.18406 0.25982 0.0
H353 H 0.84336 0.13646 0.21647 0.0
H354 H 0.78115 0.22598 0.12835 0.0
H355 H 0.77468 0.27377 0.17255 0.0
Ho356 Ho 0.81717 0.77243 0.2923 0.0
Ho357 Ho 0.84199 0.82564 0.32638 0.0
C358 C 0.76856 0.81565 0.37265 0.0
C359 C 0.79829 0.7225 0.27055 0.0
C360 C 0.76482 0.71808 0.26686 0.0
C361 C 0.76045 0.68504 0.28645 0.0
C362 C 0.73168 0.67725 0.27885 0.0
C363 C 0.70713 0.70225 0.25122 0.0
C364 C 0.71018 0.7364 0.23338 0.0
C365 C 0.73881 0.74441 0.24128 0.0
C366 C 0.79978 0.84297 0.24838 0.0
C367 C 0.89151 0.77958 0.24807 0.0
C368 C 0.85902 0.88055 0.33728 0.0
C369 C 0.88791 0.88582 0.35402 0.0
C370 C 0.91396 0.89524 0.32677 0.0
C371 C 0.93758 0.90673 0.34161 0.0
C372 C 0.93525 0.90939 0.38389 0.0
C373 C 0.91121 0.89724 0.41155 0.0
C374 C 0.88756 0.88565 0.39673 0.0
C375 C 0.86369 0.75546 0.36998 0.0
O376 O 0.77558 0.78821 0.34905 0.0
O377 O 0.78685 0.83813 0.36434 0.0
O378 O 0.8053 0.74854 0.24488 0.0
O379 O 0.80583 0.72137 0.30759 0.0
O380 O 0.80223 0.81262 0.23483 0.0
O381 O 0.80021 0.83553 0.28719 0.0
O382 O 0.88209 0.80927 0.26906 0.0
O383 O 0.87407 0.75635 0.25757 0.0
O384 O 0.83711 0.86885 0.36343 0.0
O385 O 0.86779 0.86486 0.3029 0.0
O386 O 0.86246 0.78577 0.38283 0.0
O387 O 0.85997 0.76269 0.33154 0.0
H388 H 0.78014 0.6645 0.30634 0.0
H389 H 0.72965 0.65075 0.29295 0.0
H390 H 0.69108 0.75622 0.21246 0.0
H391 H 0.74128 0.77042 0.22619 0.0
H392 H 0.91487 0.89562 0.29375 0.0
H393 H 0.95618 0.91579 0.31983 0.0
H394 H 0.90895 0.89927 0.44427 0.0
H395 H 0.86783 0.8785 0.41857 0.0
Ho396 Ho 0.29763 0.81627 0.2849 0.0
Ho397 Ho 0.33261 0.83069 0.35779 0.0
C398 C 0.32275 0.88786 0.26915 0.0
C399 C 0.25199 0.81279 0.24216 0.0
C400 C 0.22323 0.83265 0.21469 0.0
C401 C 0.18841 0.8581 0.22866 0.0
C402 C 0.1597 0.8692 0.2045 0.0
C403 C 0.16569 0.85478 0.16651 0.0
C404 C 0.20101 0.83197 0.15123 0.0
C405 C 0.22954 0.82094 0.17518 0.0
C406 C 0.36937 0.76971 0.28323 0.0
C407 C 0.31557 0.75341 0.3687 0.0
C408 C 0.37425 0.83721 0.40387 0.0
C409 C 0.40325 0.81926 0.43106 0.0
C410 C 0.43905 0.79666 0.41661 0.0
C411 C 0.46709 0.78705 0.44131 0.0
C412 C 0.45928 0.7997 0.48051 0.0
C413 C 0.42334 0.82002 0.49583 0.0
C414 C 0.39552 0.82989 0.47119 0.0
C415 C 0.26042 0.87778 0.35754 0.0
O416 O 0.30489 0.87058 0.25577 0.0
O417 O 0.33734 0.87576 0.30503 0.0
O418 O 0.28469 0.80991 0.22695 0.0
O419 O 0.24468 0.81704 0.28172 0.0
O420 O 0.34835 0.77237 0.25633 0.0
O421 O 0.35101 0.79391 0.30824 0.0
O422 O 0.33158 0.77223 0.38291 0.0
O423 O 0.29811 0.76722 0.33482 0.0
O424 O 0.34307 0.83505 0.41793 0.0
O425 O 0.3824 0.8358 0.36386 0.0
O426 O 0.28028 0.87518 0.38558 0.0
O427 O 0.28005 0.85318 0.33369 0.0
H428 H 0.18291 0.86749 0.25907 0.0
H429 H 0.13246 0.88657 0.21681 0.0
H430 H 0.20602 0.82036 0.12209 0.0
H431 H 0.25612 0.80105 0.16395 0.0
H432 H 0.44558 0.78818 0.3857 0.0
H433 H 0.49489 0.77143 0.42919 0.0
H434 H 0.41707 0.83036 0.52586 0.0
H435 H 0.36815 0.84777 0.48268 0.0
Ho436 Ho 0.30824 0.8167 0.8708 0.0
Ho437 Ho 0.29331 0.79302 0.80465 0.0
C438 C 0.2418 0.78865 0.88982 0.0
C439 C 0.31084 0.8591 0.92148 0.0
C440 C 0.28766 0.88733 0.94945 0.0
C441 C 0.25152 0.91135 0.94337 0.0
C442 C 0.23138 0.93959 0.96968 0.0
C443 C 0.24725 0.94391 1.00236 0.0
C444 C 0.28305 0.91845 1.00894 0.0
C445 C 0.30286 0.89039 0.98293 0.0
C446 C 0.35972 0.74364 0.87009 0.0
C447 C 0.36449 0.80923 0.78884 0.0
C448 C 0.27901 0.76513 0.74756 0.0
C449 C 0.29868 0.73555 0.72029 0.0
C450 C 0.32251 0.69907 0.73544 0.0
C451 C 0.33509 0.66919 0.71107 0.0
C452 C 0.32439 0.67609 0.67134 0.0
C453 C 0.30387 0.71326 0.65472 0.0
C454 C 0.29083 0.74296 0.67929 0.0
C455 C 0.25524 0.86965 0.80714 0.0
O456 O 0.25828 0.80698 0.90343 0.0
O457 O 0.25289 0.7771 0.85263 0.0
O458 O 0.31247 0.82444 0.93244 0.0
O459 O 0.30971 0.86955 0.8817 0.0
O460 O 0.35408 0.76602 0.89748 0.0
O461 O 0.3366 0.75953 0.84417 0.0
O462 O 0.35173 0.78465 0.78207 0.0
O463 O 0.3467 0.8315 0.8184 0.0
O464 O 0.28714 0.79492 0.74051 0.0
O465 O 0.27504 0.75354 0.78676 0.0
O466 O 0.27732 0.85384 0.77658 0.0
O467 O 0.25886 0.84398 0.83723 0.0
H468 H 0.2393 0.90886 0.91786 0.0
H469 H 0.20397 0.95881 0.96364 0.0
H470 H 0.29683 0.92156 0.03264 0.0
H471 H 0.3307 0.87188 0.98811 0.0
H472 H 0.32931 0.69319 0.76685 0.0
H473 H 0.35092 0.64043 0.72408 0.0
H474 H 0.29533 0.71865 0.62405 0.0
H475 H 0.27276 0.77112 0.66716 0.0
Ho476 Ho 0.30287 0.27242 0.82157 0.0
Ho477 Ho 0.33389 0.32187 0.85774 0.0
C478 C 0.25345 0.32458 0.8947 0.0
C479 C 0.28313 0.21934 0.81127 0.0
C480 C 0.25247 0.21488 0.79807 0.0
C481 C 0.23817 0.19035 0.82304 0.0
C482 C 0.21206 0.18178 0.80935 0.0
C483 C 0.20012 0.19739 0.77027 0.0
C484 C 0.21312 0.22336 0.74602 0.0
C485 C 0.2391 0.23217 0.75986 0.0
C486 C 0.29566 0.33863 0.77229 0.0
C487 C 0.38005 0.27398 0.7818 0.0
C488 C 0.35095 0.37553 0.87162 0.0
C489 C 0.38137 0.38044 0.88484 0.0
C490 C 0.39893 0.40033 0.85693 0.0
C491 C 0.42404 0.41071 0.8699 0.0
C492 C 0.43179 0.40166 0.91112 0.0
C493 C 0.41622 0.37947 0.93853 0.0
C494 C 0.39103 0.3689 0.92547 0.0
C495 C 0.35349 0.24916 0.9009 0.0
O496 O 0.25694 0.29913 0.87017 0.0
O497 O 0.27748 0.34008 0.89187 0.0
O498 O 0.30262 0.23273 0.78309 0.0
O499 O 0.27757 0.23293 0.84654 0.0
O500 O 0.29109 0.31019 0.76188 0.0
O501 O 0.29531 0.33364 0.81169 0.0
O502 O 0.37298 0.3037 0.80154 0.0
O503 O 0.36138 0.25203 0.7924 0.0
O504 O 0.33247 0.36023 0.89913 0.0
O505 O 0.35636 0.36386 0.83523 0.0
O506 O 0.36343 0.27516 0.90827 0.0
O507 O 0.33758 0.26342 0.86869 0.0
H508 H 0.24813 0.17677 0.85259 0.0
H509 H 0.2024 0.16161 0.8285 0.0
H510 H 0.20382 0.23607 0.716 0.0
H511 H 0.24946 0.25153 0.74017 0.0
H512 H 0.39194 0.40948 0.8255 0.0
H513 H 0.43592 0.42775 0.84828 0.0
H514 H 0.42172 0.3725 0.97054 0.0
H515 H 0.37798 0.35334 0.94761 0.0
Ho516 Ho 0.78866 0.31283 0.79698 0.0
Ho517 Ho 0.83745 0.32065 0.85626 0.0
C518 C 0.82345 0.37778 0.77402 0.0
C519 C 0.73975 0.31814 0.75151 0.0
C520 C 0.71155 0.33334 0.72159 0.0
C521 C 0.6742 0.34771 0.73544 0.0
C522 C 0.64802 0.35406 0.70868 0.0
C523 C 0.65845 0.34596 0.66735 0.0
C524 C 0.69568 0.33354 0.6531 0.0
C525 C 0.72174 0.32729 0.67972 0.0
C526 C 0.85779 0.25955 0.79279 0.0
C527 C 0.8105 0.25025 0.87493 0.0
C528 C 0.88462 0.31315 0.90528 0.0
C529 C 0.91244 0.30839 0.93308 0.0
C530 C 0.94965 0.28732 0.92229 0.0
C531 C 0.97579 0.28177 0.9487 0.0
C532 C 0.96579 0.29759 0.9866 0.0
C533 C 0.92851 0.31895 0.99722 0.0
C534 C 0.90227 0.32411 0.97098 0.0
C535 C 0.76651 0.37183 0.85947 0.0
O536 O 0.79713 0.3671 0.76962 0.0
O537 O 0.84653 0.35971 0.80206 0.0
O538 O 0.77413 0.30866 0.73818 0.0
O539 O 0.73202 0.32624 0.78979 0.0
O540 O 0.82991 0.25439 0.78562 0.0
O541 O 0.84831 0.29436 0.79808 0.0
O542 O 0.83457 0.26367 0.87974 0.0
O543 O 0.78497 0.26867 0.84953 0.0
O544 O 0.85009 0.32237 0.91775 0.0
O545 O 0.89303 0.30846 0.86604 0.0
O546 O 0.79341 0.37982 0.86469 0.0
O547 O 0.77837 0.33666 0.85567 0.0
H548 H 0.66525 0.35214 0.76757 0.0
H549 H 0.61983 0.36296 0.72115 0.0
H550 H 0.7049 0.32703 0.62156 0.0
H551 H 0.75014 0.31572 0.66787 0.0
H552 H 0.95861 0.27461 0.89352 0.0
H553 H 1.00408 0.26519 0.93923 0.0
H554 H 0.91946 0.33109 0.0263 0.0
H555 H 0.87392 0.34043 0.98045 0.0
Ho556 Ho 0.77001 0.81522 0.84989 0.0
Ho557 Ho 0.80913 0.84316 0.7816 0.0
C558 C 0.80685 0.7643 0.77339 0.0
C559 C 0.73382 0.78323 0.90197 0.0
C560 C 0.71697 0.7558 0.90473 0.0
C561 C 0.68715 0.76342 0.88332 0.0
C562 C 0.67002 0.73797 0.88973 0.0
C563 C 0.6825 0.70468 0.91755 0.0
C564 C 0.71339 0.6963 0.93725 0.0
C565 C 0.73025 0.7218 0.93118 0.0
C566 C 0.8344 0.80977 0.87007 0.0
C567 C 0.7722 0.89386 0.85905 0.0
C568 C 0.84749 0.87393 0.73112 0.0
C569 C 0.8654 0.90012 0.73043 0.0
C570 C 0.88607 0.8972 0.76194 0.0
C571 C 0.9039 0.92172 0.75923 0.0
C572 C 0.90135 0.94928 0.72498 0.0
C573 C 0.88002 0.95268 0.69403 0.0
C574 C 0.86204 0.92839 0.69686 0.0
C575 C 0.74732 0.84579 0.75807 0.0
O576 O 0.78133 0.77275 0.80466 0.0
O577 O 0.82731 0.78412 0.76315 0.0
O578 O 0.76921 0.76892 0.89552 0.0
O579 O 0.71855 0.81706 0.88164 0.0
O580 O 0.80447 0.81877 0.8939 0.0
O581 O 0.82982 0.80201 0.83594 0.0
O582 O 0.79644 0.88562 0.82666 0.0
O583 O 0.75231 0.8736 0.87093 0.0
O584 O 0.81208 0.88926 0.73651 0.0
O585 O 0.86147 0.83992 0.75148 0.0
O586 O 0.77762 0.83964 0.7354 0.0
O587 O 0.74938 0.85409 0.79337 0.0
H588 H 0.67659 0.78929 0.86244 0.0
H589 H 0.64638 0.74489 0.87392 0.0
H590 H 0.72423 0.67025 0.95784 0.0
H591 H 0.75339 0.71522 0.94778 0.0
H592 H 0.88895 0.87564 0.7882 0.0
H593 H 0.92069 0.91832 0.78314 0.0
H594 H 0.87778 0.97371 0.66735 0.0
H595 H 0.84601 0.93119 0.67238 0.0
C596 C 0.1202 0.16057 0.47436 0.0
C597 C 0.132 0.12838 0.45276 0.0
C598 C 0.14004 0.18333 0.46956 0.0
C599 C 0.17213 0.17491 0.44271 0.0
H600 H 0.09513 0.16863 0.49461 0.0
H601 H 0.13013 0.20787 0.48675 0.0
S602 S 0.21609 0.09294 0.38093 0.0
N603 N 0.1791 0.08824 0.40513 0.0
N604 N 0.21573 0.13201 0.3953 0.0
C605 C 0.18442 0.14294 0.421 0.0
C606 C 0.1645 0.11941 0.42623 0.0
C607 C 0.93418 0.15683 0.39617 0.0
C608 C 0.96116 0.1516 0.36241 0.0
C609 C 0.90123 0.18961 0.39638 0.0
C610 C 0.89376 0.21835 0.36265 0.0
H611 H 0.93838 0.13512 0.42241 0.0
H612 H 0.88131 0.19226 0.42301 0.0
S613 S 0.95675 0.21854 0.26753 0.0
N614 N 0.97893 0.17806 0.2952 0.0
N615 N 0.91754 0.23928 0.29501 0.0
C616 C 0.92095 0.21335 0.32889 0.0
C617 C 0.95445 0.18011 0.32891 0.0
C618 C 0.99234 0.93559 0.44365 0.0
C619 C 0.98507 0.97369 0.42712 0.0
C620 C 0.97635 0.9145 0.42953 0.0
C621 C 0.95313 0.93078 0.39809 0.0
H622 H 1.01107 0.92177 0.46688 0.0
H623 H 0.98252 0.88521 0.4428 0.0
S624 S 0.92256 0.03037 0.34767 0.0
N625 N 0.95045 0.02762 0.38031 0.0
N626 N 0.9218 0.98756 0.35278 0.0
C627 C 0.94514 0.96894 0.38198 0.0
C628 C 0.96075 0.99051 0.39676 0.0
C629 C 0.16444 0.93806 0.3977 0.0
C630 C 0.15041 0.96517 0.36404 0.0
C631 C 0.19945 0.90913 0.39437 0.0
C632 C 0.22186 0.90507 0.35688 0.0
H633 H 0.14815 0.93935 0.42725 0.0
H634 H 0.2092 0.8898 0.42164 0.0
S635 S 0.19931 0.9694 0.25967 0.0
N636 N 0.16247 0.98699 0.29213 0.0
N637 N 0.22833 0.93179 0.28561 0.0
C638 C 0.20848 0.93196 0.32281 0.0
C639 C 0.17279 0.96222 0.32646 0.0
C640 C 0.16601 0.95878 0.82081 0.0
C641 C 0.15375 0.96761 0.78133 0.0
C642 C 0.19835 0.92653 0.82966 0.0
C643 C 0.21972 0.90238 0.79924 0.0
H644 H 0.15149 0.97769 0.84437 0.0
H645 H 0.20727 0.92121 0.86002 0.0
S646 S 0.19548 0.90938 0.69343 0.0
N647 N 0.16287 0.94643 0.71365 0.0
N648 N 0.22303 0.88726 0.72964 0.0
C649 C 0.20627 0.90986 0.76055 0.0
C650 C 0.17351 0.94204 0.75183 0.0
C651 C 0.12262 0.16932 0.76465 0.0
C652 C 0.13347 0.15086 0.72853 0.0
C653 C 0.14368 0.18556 0.77729 0.0
C654 C 0.17617 0.18417 0.75401 0.0
H655 H 0.09796 0.17055 0.78372 0.0
H656 H 0.13488 0.19865 0.80583 0.0
S657 S 0.21704 0.13848 0.65772 0.0
N658 N 0.17901 0.13173 0.67006 0.0
N659 N 0.21851 0.16279 0.69351 0.0
C660 C 0.18693 0.16667 0.71734 0.0
C661 C 0.16556 0.14992 0.7046 0.0
C662 C 0.93235 0.1595 0.78931 0.0
C663 C 0.96447 0.16548 0.78552 0.0
C664 C 0.89823 0.19017 0.79266 0.0
C665 C 0.89473 0.22806 0.79281 0.0
H666 H 0.93357 0.13133 0.78722 0.0
H667 H 0.8743 0.18412 0.7943 0.0
S668 S 0.97091 0.25844 0.78491 0.0
N669 N 0.99092 0.2118 0.7827 0.0
N670 N 0.92679 0.26924 0.7901 0.0
C671 C 0.92669 0.23413 0.79061 0.0
C672 C 0.9615 0.20291 0.78661 0.0
C673 C 0.97363 0.98637 0.68106 0.0
C674 C 0.97364 0.0079 0.71165 0.0
C675 C 0.94939 0.96859 0.68509 0.0
C676 C 0.92371 0.97187 0.7196 0.0
H677 H 0.99296 0.98236 0.65389 0.0
H678 H 0.95155 0.95108 0.66157 0.0
S679 S 0.90647 0.02996 0.80508 0.0
N680 N 0.94157 0.03481 0.7759 0.0
N681 N 0.8959 1.00165 0.78231 0.0
C682 C 0.92133 0.99514 0.7491 0.0
C683 C 0.94615 0.01328 0.74531 0.0
C684 C 0.30915 0.18128 0.25842 0.0
C685 C 0.30567 0.19235 0.21615 0.0
C686 C 0.31636 0.20338 0.28277 0.0
C687 C 0.31995 0.23782 0.26597 0.0
H688 H 0.30528 0.15581 0.27291 0.0
H689 H 0.31753 0.19419 0.3155 0.0
S690 S 0.31185 0.27963 0.15647 0.0
N691 N 0.30619 0.2395 0.1582 0.0
N692 N 0.31904 0.2817 0.20365 0.0
C693 C 0.31736 0.24862 0.22325 0.0
C694 C 0.31027 0.22581 0.19848 0.0
C695 C 0.95358 0.32442 0.21515 0.0
C696 C 0.96304 0.35197 0.2278 0.0
C697 C 0.92135 0.31946 0.23208 0.0
C698 C 0.8972 0.34135 0.26294 0.0
H699 H 0.97156 0.30579 0.19271 0.0
H700 H 0.91583 0.29756 0.22153 0.0
S701 S 0.90626 0.42088 0.30305 0.0
N702 N 0.94258 0.40456 0.26987 0.0
N703 N 0.88377 0.39402 0.30261 0.0
C704 C 0.9056 0.36996 0.27459 0.0
C705 C 0.93797 0.37547 0.25695 0.0
C706 C 0.8513 0.87624 0.15528 0.0
C707 C 0.83611 0.91607 0.15431 0.0
C708 C 0.84007 0.85338 0.18683 0.0
C709 C 0.81442 0.86885 0.22023 0.0
H710 H 0.87031 0.86273 0.12996 0.0
H711 H 0.85069 0.82315 0.18389 0.0
S712 S 0.7685 0.97175 0.23408 0.0
N713 N 0.79496 0.97052 0.19027 0.0
N714 N 0.77532 0.92687 0.25113 0.0
C715 C 0.80042 0.9086 0.22099 0.0
C716 C 0.81096 0.9323 0.18775 0.0
C717 C 0.08302 0.89152 0.1072 0.0
C718 C 0.07821 0.85775 0.10582 0.0
C719 C 0.11097 0.89095 0.12773 0.0
C720 C 0.13499 0.85653 0.14691 0.0
H721 H 0.066 0.91813 0.09103 0.0
H722 H 0.11454 0.91721 0.12753 0.0
S723 S 0.13141 0.76137 0.15702 0.0
N724 N 0.09739 0.78986 0.13024 0.0
N725 N 0.15087 0.78871 0.16626 0.0
C726 C 0.12965 0.823 0.14718 0.0
C727 C 0.10096 0.82363 0.12731 0.0
C728 C 0.21333 0.04713 1.0175 0.0
C729 C 0.22736 0.04454 0.05483 0.0
C730 C 0.21552 0.01455 1.00224 0.0
C731 C 0.23013 0.97843 0.02478 0.0
H732 H 0.20397 0.07383 0.99771 0.0
H733 H 0.20929 0.01739 0.97091 0.0
S734 S 0.25182 0.95906 0.13306 0.0
N735 N 0.24418 1.00459 0.11997 0.0
N736 N 0.24538 0.94416 0.09222 0.0
C737 C 0.23619 0.97688 0.06585 0.0
C738 C 0.2354 0.00979 0.08086 0.0
C739 C 0.19855 0.35611 0.99794 0.0
C740 C 0.1669 0.34992 0.99783 0.0
C741 C 0.22566 0.34886 0.96411 0.0
C742 C 0.22274 0.33431 0.92891 0.0
H743 H 0.20208 0.36715 0.02423 0.0
H744 H 0.24949 0.35411 0.966 0.0
S745 S 0.14588 0.31046 0.91524 0.0
N746 N 0.13457 0.3271 0.96064 0.0
N747 N 0.18553 0.31243 0.89771 0.0
C748 C 0.1914 0.32709 0.92913 0.0
C749 C 0.16354 0.33516 0.96331 0.0
C750 C 0.79382 0.16017 0.91812 0.0
C751 C 0.82922 0.1319 0.92173 0.0
C752 C 0.78771 0.19847 0.90334 0.0
C753 C 0.81668 0.21027 0.89299 0.0
H754 H 0.7707 0.15244 0.92623 0.0
H755 H 0.76011 0.21899 0.90029 0.0
S756 S 0.91445 0.14767 0.89913 0.0
N757 N 0.89342 0.11859 0.91439 0.0
N758 N 0.88222 0.19032 0.88873 0.0
C759 C 0.85214 0.18234 0.89754 0.0
C760 C 0.85835 0.14327 0.91128 0.0
C761 C 0.89601 0.82428 0.93531 0.0
C762 C 0.93127 0.80312 0.91816 0.0
C763 C 0.86536 0.82633 0.91884 0.0
C764 C 0.86843 0.80727 0.88451 0.0
H765 H 0.89211 0.8402 0.96097 0.0
H766 H 0.83881 0.84348 0.93308 0.0
S767 S 0.95489 0.74488 0.8308 0.0
N768 N 0.96766 0.76058 0.86652 0.0
N769 N 0.91003 0.76459 0.83566 0.0
C770 C 0.90357 0.7854 0.86753 0.0
C771 C 0.9349 0.78326 0.88435 0.0
C772 C 0.20131 0.28199 0.25685 0.0
C773 C 0.17733 0.30755 0.22804 0.0
C774 C 0.22115 0.29387 0.27945 0.0
C775 C 0.21822 0.33198 0.27448 0.0
H776 H 0.20535 0.25219 0.26164 0.0
H777 H 0.24 0.27261 0.29958 0.0
S778 S 0.15896 0.41088 0.20448 0.0
N779 N 0.15173 0.37348 0.19745 0.0
N780 N 0.18866 0.39525 0.23883 0.0
C781 C 0.19404 0.35777 0.24636 0.0
C782 C 0.17382 0.34582 0.22358 0.0
C783 C 0.14848 0.81886 0.9546 0.0
C784 C 0.13694 0.78877 0.95569 0.0
C785 C 0.18249 0.81759 0.9349 0.0
C786 C 0.20718 0.78649 0.91395 0.0
H787 H 0.13051 0.84449 0.96858 0.0
H788 H 0.18881 0.8422 0.93474 0.0
S789 S 0.19244 0.69865 0.90888 0.0
N790 N 0.1549 0.72543 0.93545 0.0
N791 N 0.2181 0.72344 0.89743 0.0
C792 C 0.19663 0.7556 0.9154 0.0
C793 C 0.16199 0.75656 0.93649 0.0
C794 C 0.30818 0.19319 0.97956 0.0
C795 C 0.33486 0.17123 1.00682 0.0
C796 C 0.31516 0.21587 0.94373 0.0
C797 C 0.34901 0.21863 0.93365 0.0
H798 H 0.281 0.19387 0.98671 0.0
H799 H 0.29308 0.2332 0.92526 0.0
S800 S 0.42886 0.16615 0.99315 0.0
N801 N 0.39727 0.15255 0.01942 0.0
N802 N 0.41007 0.19603 0.9534 0.0
C803 C 0.37627 0.19603 0.9599 0.0
C804 C 0.36937 0.17214 0.99594 0.0
C805 C 0.04811 0.24619 0.0494 0.0
C806 C 0.05077 0.27524 0.06807 0.0
C807 C 0.02088 0.25367 0.02362 0.0
C808 C 0.99419 0.29066 1.01511 0.0
H809 H 0.06752 0.21694 0.05448 0.0
H810 H 0.02063 0.22996 1.01044 0.0
S811 S 0.98823 0.37784 0.05438 0.0
N812 N 0.02377 0.34338 0.07455 0.0
N813 N 0.97244 0.35714 0.02702 0.0
C814 C 0.99606 0.32014 0.03357 0.0
C815 C 0.02423 0.31258 0.05961 0.0
C816 C 0.75412 0.95224 0.95044 0.0
C817 C 0.78579 0.95939 0.94676 0.0
C818 C 0.74883 0.93236 0.92128 0.0
C819 C 0.77473 0.91947 0.8871 0.0
H820 H 0.73429 0.96026 0.97701 0.0
H821 H 0.72482 0.92608 0.92623 0.0
S822 S 0.86219 0.93202 0.86385 0.0
N823 N 0.84279 0.95296 0.90599 0.0
N824 N 0.83341 0.91625 0.85209 0.0
C825 C 0.80593 0.92783 0.88281 0.0
C826 C 0.81126 0.94758 0.91234 0.0
C827 C 0.95641 0.80481 0.16085 0.0
C828 C 0.96523 0.77827 0.13205 0.0
C829 C 0.93476 0.80335 0.19873 0.0
C830 C 0.91965 0.77567 0.21021 0.0
H831 H 0.96521 0.8282 0.15322 0.0
H832 H 0.92843 0.82557 0.21834 0.0
S833 S 0.93432 0.69885 0.14632 0.0
N834 N 0.95737 0.72265 0.11844 0.0
N835 N 0.91652 0.71999 0.18886 0.0
C836 C 0.92909 0.74813 0.1822 0.0
C837 C 0.95167 0.74945 0.14355 0.0
C838 C 0.32721 0.9634 0.17683 0.0
C839 C 0.32342 0.99509 0.196 0.0
C840 C 0.32745 0.92881 0.20027 0.0
C841 C 0.32475 0.92384 0.24401 0.0
H842 H 0.32801 0.96599 0.14358 0.0
H843 H 0.32928 0.90593 0.18393 0.0
S844 S 0.31434 0.99787 0.30933 0.0
N845 N 0.31669 0.01869 0.26174 0.0
N846 N 0.31832 0.95439 0.30494 0.0
C847 C 0.32203 0.95497 0.26325 0.0
C848 C 0.32103 0.9902 0.23958 0.0
C849 C 0.78162 0.12221 0.10934 0.0
C850 C 0.81428 0.09184 0.09824 0.0
C851 C 0.78123 0.15011 0.13202 0.0
C852 C 0.81344 0.14847 0.14446 0.0
H853 H 0.75633 0.12479 0.09996 0.0
H854 H 0.75549 0.173 0.14014 0.0
S855 S 0.9062 0.07506 0.12349 0.0
N856 N 0.87988 0.06169 0.10244 0.0
N857 N 0.87872 0.11467 0.14358 0.0
C858 C 0.84616 0.11829 0.13376 0.0
C859 C 0.84667 0.08984 0.11106 0.0
C860 C 0.63415 0.64334 0.90262 0.0
C861 C 0.62434 0.63059 0.94338 0.0
C862 C 0.65304 0.6672 0.89451 0.0
C863 C 0.66283 0.67918 0.92684 0.0
H864 H 0.62649 0.6356 0.87669 0.0
H865 H 0.66008 0.67628 0.8627 0.0
S866 S 0.64355 0.65411 0.03894 0.0
N867 N 0.62644 0.63123 1.01633 0.0
N868 N 0.6608 0.67731 1.00115 0.0
C869 C 0.65323 0.66671 0.96772 0.0
C870 C 0.63421 0.64219 0.97597 0.0
C871 C 0.45754 0.6702 0.87592 0.0
C872 C 0.45806 0.63791 0.86082 0.0
C873 C 0.42571 0.70395 0.87874 0.0
C874 C 0.39293 0.70741 0.86603 0.0
H875 H 0.48176 0.66923 0.88655 0.0
H876 H 0.42687 0.72771 0.89089 0.0
S877 S 0.37858 0.63176 0.82517 0.0
N878 N 0.42178 0.61205 0.83358 0.0
N879 N 0.36273 0.67559 0.8383 0.0
C880 C 0.39299 0.67585 0.8503 0.0
C881 C 0.42526 0.6412 0.84787 0.0
C882 C 0.4556 0.48087 0.9309 0.0
C883 C 0.48773 0.46146 0.94989 0.0
C884 C 0.43745 0.46104 0.91947 0.0
C885 C 0.45099 0.42099 0.92637 0.0
H886 H 0.44502 0.51166 0.92389 0.0
H887 H 0.4129 0.47714 0.90443 0.0
S888 S 0.53448 0.35686 0.97481 0.0
N889 N 0.53259 0.4003 0.97533 0.0
N890 N 0.49817 0.36244 0.95373 0.0
C891 C 0.48264 0.40113 0.94635 0.0
C892 C 0.50116 0.42155 0.95814 0.0
C893 C 0.68177 0.46606 0.85844 0.0
C894 C 0.65297 0.45388 0.86817 0.0
C895 C 0.71835 0.43944 0.85469 0.0
C896 C 0.72762 0.3996 0.86016 0.0
H897 H 0.67618 0.49621 0.85589 0.0
H898 H 0.73959 0.45015 0.84839 0.0
S899 S 0.66245 0.35284 0.88254 0.0
N900 N 0.63655 0.39898 0.8801 0.0
N901 N 0.70463 0.34968 0.87368 0.0
C902 C 0.69904 0.38723 0.86785 0.0
C903 C 0.66199 0.41413 0.87166 0.0
C904 C 0.68523 0.45543 0.24532 0.0
C905 C 0.66181 0.47639 0.2771 0.0
C906 C 0.71731 0.42387 0.25304 0.0
C907 C 0.72777 0.41087 0.29314 0.0
H908 H 0.67896 0.46335 0.21359 0.0
H909 H 0.73382 0.40926 0.22696 0.0
S910 S 0.67675 0.45482 0.38797 0.0
N911 N 0.65167 0.48178 0.35079 0.0
N912 N 0.71209 0.42121 0.36555 0.0
C913 C 0.70465 0.43095 0.32565 0.0
C914 C 0.6717 0.46387 0.31762 0.0
C915 C 0.63406 0.66518 0.25927 0.0
C916 C 0.63567 0.65725 0.21867 0.0
C917 C 0.65627 0.68121 0.26931 0.0
C918 C 0.68026 0.69081 0.23895 0.0
H919 H 0.61604 0.65818 0.28385 0.0
H920 H 0.65527 0.68535 0.3012 0.0
S921 S 0.69354 0.67854 0.12781 0.0
N922 N 0.66248 0.66171 0.14771 0.0
N923 N 0.7035 0.69329 0.16651 0.0
C924 C 0.6809 0.68512 0.1979 0.0
C925 C 0.65866 0.6681 0.18772 0.0
C926 C 0.4547 0.69648 0.238 0.0
C927 C 0.47139 0.67204 0.27211 0.0
C928 C 0.42375 0.72987 0.24275 0.0
C929 C 0.40745 0.74107 0.2818 0.0
H930 H 0.46474 0.68935 0.20677 0.0
H931 H 0.41131 0.74612 0.21519 0.0
S932 S 0.44282 0.69132 0.38147 0.0
N933 N 0.47153 0.6641 0.34675 0.0
N934 N 0.41234 0.72755 0.35561 0.0
C935 C 0.42499 0.71887 0.31643 0.0
C936 C 0.45713 0.68422 0.31159 0.0
C937 C 0.46932 0.49388 0.19648 0.0
C938 C 0.47723 0.50714 0.22938 0.0
C939 C 0.44403 0.47732 0.20228 0.0
C940 C 0.42504 0.4738 0.24111 0.0
H941 H 0.48305 0.4958 0.16585 0.0
H942 H 0.44008 0.46624 0.17626 0.0
S943 S 0.43187 0.50736 0.33686 0.0
N944 N 0.46197 0.51698 0.30244 0.0
N945 N 0.41289 0.48787 0.3122 0.0
C946 C 0.43106 0.48851 0.27393 0.0
C947 C 0.45738 0.50483 0.26834 0.0
C948 C 0.78445 0.69192 0.72906 0.0
C949 C 0.79694 0.69561 0.687 0.0
C950 C 0.78876 0.71332 0.75704 0.0
C951 C 0.80606 0.73895 0.74418 0.0
H952 H 0.77226 0.6716 0.74067 0.0
H953 H 0.77857 0.7096 0.78912 0.0
S954 S 0.83947 0.76231 0.63602 0.0
N955 N 0.82428 0.72942 0.63318 0.0
N956 N 0.83293 0.76871 0.68528 0.0
C957 C 0.81772 0.7435 0.70187 0.0
C958 C 0.81295 0.72217 0.6735 0.0
C959 C 0.46793 0.77306 0.75746 0.0
C960 C 0.47336 0.80296 0.72994 0.0
C961 C 0.43305 0.77531 0.7753 0.0
C962 C 0.40112 0.80792 0.76761 0.0
H963 H 0.49108 0.74715 0.76533 0.0
H964 H 0.43116 0.75125 0.79605 0.0
S965 S 0.39806 0.89409 0.69636 0.0
N966 N 0.44187 0.86628 0.69454 0.0
N967 N 0.37701 0.87055 0.7287 0.0
C968 C 0.40562 0.838 0.73971 0.0
C969 C 0.44131 0.83551 0.72076 0.0
C970 C 0.31037 0.42664 0.70869 0.0
C971 C 0.32714 0.41282 0.67017 0.0
C972 C 0.3017 0.40269 0.74285 0.0
C973 C 0.30877 0.36416 0.73955 0.0
H974 H 0.30404 0.45606 0.71247 0.0
H975 H 0.28841 0.41475 0.77139 0.0
S976 S 0.35263 0.31456 0.64528 0.0
N977 N 0.35089 0.35821 0.63169 0.0
N978 N 0.33442 0.31405 0.69361 0.0
C979 C 0.32587 0.35047 0.70106 0.0
C980 C 0.33506 0.37444 0.66713 0.0
C981 C 0.61727 0.30776 0.59863 0.0
C982 C 0.58141 0.33532 0.59571 0.0
C983 C 0.64176 0.31235 0.62041 0.0
C984 C 0.63197 0.34479 0.64095 0.0
H985 H 0.62653 0.2814 0.58473 0.0
H986 H 0.66832 0.28928 0.62249 0.0
S987 S 0.54278 0.42772 0.64013 0.0
N988 N 0.53822 0.39791 0.61311 0.0
N989 N 0.58437 0.40676 0.65429 0.0
C990 C 0.5967 0.37358 0.63705 0.0
C991 C 0.57155 0.36893 0.61428 0.0
C992 C 0.74197 0.53869 0.56532 0.0
C993 C 0.76634 0.55553 0.54705 0.0
C994 C 0.73887 0.50983 0.54691 0.0
C995 C 0.75971 0.49758 0.50959 0.0
H996 H 0.72703 0.54603 0.59506 0.0
H997 H 0.7212 0.49611 0.56257 0.0
S998 S 0.82665 0.53297 0.44911 0.0
N999 N 0.81028 0.55867 0.4884 0.0
N1000 N 0.80506 0.50433 0.45528 0.0
C1001 C 0.78292 0.51526 0.49049 0.0
C1002 C 0.78596 0.54438 0.50876 0.0
C1003 C 0.70193 0.79431 0.4628 0.0
C1004 C 0.68992 0.82542 0.4864 0.0
C1005 C 0.72655 0.79169 0.42615 0.0
C1006 C 0.74066 0.81997 0.41092 0.0
H1007 H 0.69149 0.7723 0.47207 0.0
H1008 H 0.73467 0.76702 0.40963 0.0
S1009 S 0.71898 0.90675 0.46202 0.0
N1010 N 0.6955 0.88457 0.49199 0.0
N1011 N 0.74045 0.87995 0.42425 0.0
C1012 C 0.72911 0.85089 0.43475 0.0
C1013 C 0.70423 0.85352 0.47186 0.0
C1014 C 0.32759 0.66557 0.45152 0.0
C1015 C 0.32953 0.63662 0.42888 0.0
C1016 C 0.32324 0.70288 0.43233 0.0
C1017 C 0.31944 0.71372 0.38963 0.0
H1018 H 0.33028 0.65907 0.48428 0.0
H1019 H 0.3226 0.7235 0.45126 0.0
S1020 S 0.32175 0.64929 0.31628 0.0
N1021 N 0.32681 0.6223 0.36102 0.0
N1022 N 0.31811 0.69137 0.32569 0.0
C1023 C 0.32081 0.68512 0.36695 0.0
C1024 C 0.32595 0.64708 0.38624 0.0
C1025 C 0.43456 0.27777 0.44512 0.0
C1026 C 0.43579 0.31196 0.45342 0.0
C1027 C 0.408 0.27735 0.42291 0.0
C1028 C 0.38081 0.31099 0.40656 0.0
H1029 H 0.45391 0.25025 0.45691 0.0
H1030 H 0.40804 0.24987 0.41985 0.0
S1031 S 0.37097 0.40911 0.41714 0.0
N1032 N 0.40686 0.3813 0.44167 0.0
N1033 N 0.35694 0.38037 0.39978 0.0
C1034 C 0.38184 0.34578 0.41322 0.0
C1035 C 0.40914 0.34629 0.43651 0.0
C1036 C 0.69883 0.82526 0.68176 0.0
C1037 C 0.66311 0.83419 0.69998 0.0
C1038 C 0.72464 0.82982 0.70121 0.0
C1039 C 0.71664 0.84308 0.74053 0.0
H1040 H 0.70725 0.81389 0.65219 0.0
H1041 H 0.75163 0.82202 0.68503 0.0
S1042 S 0.62749 0.86759 0.8034 0.0
N1043 N 0.62105 0.85525 0.76068 0.0
N1044 N 0.66999 0.86365 0.79775 0.0
C1045 C 0.68101 0.85175 0.75963 0.0
C1046 C 0.65423 0.84737 0.73928 0.0
C1047 C 0.66089 0.28324 0.39284 0.0
C1048 C 0.64476 0.29171 0.43323 0.0
C1049 C 0.69443 0.28508 0.37705 0.0
C1050 C 0.71413 0.29537 0.40064 0.0
H1051 H 0.6475 0.27515 0.37267 0.0
H1052 H 0.70456 0.27918 0.34547 0.0
S1053 S 0.68706 0.31718 0.50936 0.0
N1054 N 0.65328 0.30902 0.49732 0.0
N1055 N 0.71638 0.31176 0.46764 0.0
C1056 C 0.69931 0.30275 0.44149 0.0
C1057 C 0.66486 0.30094 0.45779 0.0
C1058 C 0.81924 0.6917 0.43212 0.0
C1059 C 0.83415 0.68267 0.46998 0.0
C1060 C 0.83132 0.71215 0.39834 0.0
C1061 C 0.85902 0.72417 0.40031 0.0
H1062 H 0.79611 0.68543 0.42962 0.0
H1063 H 0.81618 0.72191 0.37244 0.0
S1064 S 0.90892 0.70539 0.49162 0.0
N1065 N 0.87959 0.68532 0.507 0.0
N1066 N 0.90266 0.72333 0.44312 0.0
C1067 C 0.87579 0.71308 0.43725 0.0
C1068 C 0.86344 0.69226 0.47196 0.0
C1069 C 0.51927 0.77446 0.56551 0.0
C1070 C 0.5339 0.8024 0.55606 0.0
C1071 C 0.49616 0.77236 0.5398 0.0
C1072 C 0.48819 0.7973 0.50339 0.0
H1073 H 0.52492 0.75485 0.59349 0.0
H1074 H 0.48384 0.75182 0.54878 0.0
S1075 S 0.52291 0.87232 0.463 0.0
N1076 N 0.54094 0.85346 0.50695 0.0
N1077 N 0.49801 0.84904 0.45789 0.0
C1078 C 0.50395 0.82409 0.49277 0.0
C1079 C 0.52677 0.82676 0.51935 0.0
C1080 C 0.27123 0.47472 0.43131 0.0
C1081 C 0.27373 0.46287 0.47369 0.0
C1082 C 0.267 0.45196 0.40503 0.0
C1083 C 0.26498 0.41648 0.42014 0.0
H1084 H 0.2755 0.50022 0.4178 0.0
H1085 H 0.2675 0.46121 0.37224 0.0
S1086 S 0.26886 0.37359 0.52957 0.0
N1087 N 0.2728 0.41431 0.52993 0.0
N1088 N 0.26413 0.37187 0.48134 0.0
C1089 C 0.26524 0.40559 0.46309 0.0
C1090 C 0.26994 0.42862 0.4896 0.0
C1091 C 0.44115 0.29616 0.68918 0.0
C1092 C 0.45322 0.26451 0.6666 0.0
C1093 C 0.41881 0.29807 0.7268 0.0
C1094 C 0.40691 0.26862 0.74374 0.0
H1095 H 0.44923 0.31968 0.67786 0.0
H1096 H 0.41011 0.32352 0.74217 0.0
S1097 S 0.4291 0.18031 0.69581 0.0
N1098 N 0.45042 0.20349 0.6635 0.0
N1099 N 0.40855 0.20712 0.7338 0.0
C1100 C 0.41857 0.23692 0.72131 0.0
C1101 C 0.44162 0.23485 0.68304 0.0
C1102 C 0.85942 0.45439 0.72831 0.0
C1103 C 0.83165 0.48169 0.7055 0.0
C1104 C 0.85672 0.42087 0.74944 0.0
C1105 C 0.82613 0.41267 0.74879 0.0
H1106 H 0.88372 0.45886 0.72979 0.0
H1107 H 0.87897 0.40124 0.76664 0.0
S1108 S 0.74441 0.47528 0.69569 0.0
N1109 N 0.77119 0.49871 0.6855 0.0
N1110 N 0.76686 0.43531 0.72391 0.0
C1111 C 0.79804 0.43957 0.72604 0.0
C1112 C 0.80057 0.47407 0.70479 0.0
C1113 C 0.29899 0.60183 0.64217 0.0
C1114 C 0.32188 0.59154 0.60587 0.0
C1115 C 0.30167 0.6279 0.66462 0.0
C1116 C 0.3269 0.64452 0.65089 0.0
H1117 H 0.27944 0.58927 0.6535 0.0
H1118 H 0.28325 0.63598 0.69229 0.0
S1119 S 0.39256 0.62719 0.55756 0.0
N1120 N 0.37073 0.59957 0.55713 0.0
N1121 N 0.37488 0.64944 0.59938 0.0
C1122 C 0.34995 0.63448 0.6148 0.0
C1123 C 0.34762 0.60766 0.5922 0.0
loop_
_geom_bond_atom_site_label_1
_geom_bond_atom_site_label_2
_geom_bond_distance
_geom_bond_site_symmetry_2
_ccdc_geom_bond_type
Cu0 N1 1.999 . S
Cu0 O6 1.974 1_545 S
Cu0 N11 1.982 1_545 S
Cu0 O20 1.959 1_455 S
N1 Cu0 1.999 . S
N1 C3 1.263 . S
N1 C5 1.389 . S
N2 C3 1.358 . S
N2 C4 1.400 . S
C3 N1 1.263 . S
C3 N2 1.358 . S
C3 H9 0.930 . S
C4 N2 1.400 . S
C4 C5 1.351 . S
C4 H21 0.930 . S
C5 N1 1.389 . S
C5 C4 1.351 . S
C5 H10 0.930 . S
O6 Cu0 1.974 1_565 S
O6 C16 1.282 . S
C7 O8 1.261 1_655 S
C7 O20 1.251 . S
O8 C7 1.261 1_455 S
H9 C3 0.930 . S
H10 C5 0.930 . S
N11 Cu0 1.982 1_565 S
N11 C13 1.336 1_465 S
N11 C14 1.393 . S
N12 C13 1.345 1_565 S
N12 C15 1.336 1_655 S
C13 N11 1.336 1_645 S
C13 N12 1.345 1_545 S
C13 H18 0.930 . S
C14 N11 1.393 . S
C14 C15 1.346 . S
C14 H19 0.930 . S
C15 N12 1.336 1_455 S
C15 C14 1.346 . S
C15 H22 0.929 . S
C16 O6 1.282 . S
C16 O17 1.216 . S
O17 C16 1.216 . S
H18 C13 0.930 . S
H19 C14 0.930 . S
O20 Cu0 1.959 1_655 S
O20 C7 1.251 . S
H21 C4 0.930 . S
H22 C15 0.929 . S
Cu23 N24 1.999 . S
Cu23 O29 1.974 1_455 S
Cu23 N34 1.985 . S
Cu23 O43 1.959 . S
N24 Cu23 1.999 . S
N24 C26 1.263 1_455 S
N24 C28 1.389 . S
N25 C26 1.358 . S
N25 C27 1.400 1_545 S
C26 N24 1.263 1_655 S
C26 N25 1.358 . S
C26 H32 0.930 . S
C27 N25 1.400 1_565 S
C27 C28 1.351 1_665 S
C27 H44 0.930 . S
C28 N24 1.389 . S
C28 C27 1.351 1_445 S
C28 H33 0.930 1_545 S
O29 Cu23 1.974 1_655 S
O29 C39 1.282 . S
C30 O31 1.261 . S
C30 O43 1.251 . S
O31 C30 1.261 . S
H32 C26 0.930 . S
H33 C28 0.930 1_565 S
N34 Cu23 1.985 . S
N34 C36 1.335 . S
N34 C37 1.390 . S
N35 C36 1.345 . S
N35 C38 1.336 . S
C36 N34 1.335 . S
C36 N35 1.345 . S
C36 H41 0.930 . S
C37 N34 1.390 . S
C37 C38 1.346 . S
C37 H42 0.930 . S
C38 N35 1.336 . S
C38 C37 1.346 . S
C38 H45 0.929 . S
C39 O29 1.282 . S
C39 O40 1.216 . S
O40 C39 1.216 . S
H41 C36 0.930 . S
H42 C37 0.930 . S
O43 Cu23 1.959 . S
O43 C30 1.251 . S
H44 C27 0.930 . S
H45 C38 0.929 . S
Cu46 N47 1.999 . S
Cu46 O52 1.974 . S
Cu46 N57 1.985 . S
Cu46 O66 1.959 . S
N47 Cu46 1.999 . S
N47 C49 1.263 . S
N47 C51 1.389 . S
N48 C49 1.358 . S
N48 C50 1.400 . S
C49 N47 1.263 . S
C49 N48 1.358 . S
C49 H55 0.930 . S
C50 N48 1.400 . S
C50 C51 1.351 . S
C50 H67 0.930 1_554 S
C51 N47 1.389 . S
C51 C50 1.351 . S
C51 H56 0.930 . S
O52 Cu46 1.974 . S
O52 C62 1.282 . S
C53 O54 1.261 . S
C53 O66 1.251 . S
O54 C53 1.261 . S
H55 C49 0.930 . S
H56 C51 0.930 . S
N57 Cu46 1.985 . S
N57 C59 1.335 . S
N57 C60 1.390 . S
N58 C59 1.345 . S
N58 C61 1.336 . S
C59 N57 1.335 . S
C59 N58 1.345 . S
C59 H64 0.930 . S
C60 N57 1.390 . S
C60 C61 1.346 . S
C60 H65 0.930 . S
C61 N58 1.336 . S
C61 C60 1.346 . S
C61 H68 0.929 . S
C62 O52 1.282 . S
C62 O63 1.216 . S
O63 C62 1.216 . S
H64 C59 0.930 . S
H65 C60 0.930 . S
O66 Cu46 1.959 . S
O66 C53 1.251 . S
H67 C50 0.930 1_556 S
H68 C61 0.929 . S
Cu69 N70 1.999 . S
Cu69 O75 1.974 . S
Cu69 N80 1.985 . S
Cu69 O89 1.959 . S
N70 Cu69 1.999 . S
N70 C72 1.263 . S
N70 C74 1.389 . S
N71 C72 1.358 . S
N71 C73 1.400 1_554 S
C72 N70 1.263 . S
C72 N71 1.358 . S
C72 H78 0.930 . S
C73 N71 1.400 1_556 S
C73 C74 1.351 1_556 S
C73 H90 0.930 . S
C74 N70 1.389 . S
C74 C73 1.351 1_554 S
C74 H79 0.930 1_554 S
O75 Cu69 1.974 . S
O75 C85 1.282 . S
C76 O77 1.261 . S
C76 O89 1.251 . S
O77 C76 1.261 . S
H78 C72 0.930 . S
H79 C74 0.930 1_556 S
N80 Cu69 1.985 . S
N80 C82 1.335 . S
N80 C83 1.390 . S
N81 C82 1.345 1_655 S
N81 C84 1.336 1_655 S
C82 N80 1.335 . S
C82 N81 1.345 1_455 S
C82 H87 0.930 1_455 S
C83 N80 1.390 . S
C83 C84 1.346 . S
C83 H88 0.930 . S
C84 N81 1.336 1_455 S
C84 C83 1.346 . S
C84 H91 0.929 . S
C85 O75 1.282 . S
C85 O86 1.216 . S
O86 C85 1.216 . S
H87 C82 0.930 1_655 S
H88 C83 0.930 . S
O89 Cu69 1.959 . S
O89 C76 1.251 . S
H90 C73 0.930 . S
H91 C84 0.929 . S
Cu92 N93 1.999 1_554 S
Cu92 O98 1.974 . S
Cu92 N103 1.985 1_545 S
Cu92 O112 1.959 1_544 S
N93 Cu92 1.999 1_556 S
N93 C95 1.263 . S
N93 C97 1.389 . S
N94 C95 1.358 . S
N94 C96 1.400 . S
C95 N93 1.263 . S
C95 N94 1.358 . S
C95 H101 0.930 . S
C96 N94 1.400 . S
C96 C97 1.351 . S
C96 H113 0.930 . S
C97 N93 1.389 . S
C97 C96 1.351 . S
C97 H102 0.930 . S
O98 Cu92 1.974 . S
O98 C108 1.282 . S
C99 O100 1.261 . S
C99 O112 1.251 . S
O100 C99 1.261 . S
H101 C95 0.930 . S
H102 C97 0.930 . S
N103 Cu92 1.985 1_565 S
N103 C105 1.335 . S
N103 C106 1.390 . S
N104 C105 1.345 . S
N104 C107 1.336 . S
C105 N103 1.335 . S
C105 N104 1.345 . S
C105 H110 0.930 . S
C106 N103 1.390 . S
C106 C107 1.346 . S
C106 H111 0.930 . S
C107 N104 1.336 . S
C107 C106 1.346 . S
C107 H114 0.929 . S
C108 O98 1.282 . S
C108 O109 1.216 . S
O109 C108 1.216 . S
H110 C105 0.930 . S
H111 C106 0.930 . S
O112 Cu92 1.959 1_566 S
O112 C99 1.251 . S
H113 C96 0.930 . S
H114 C107 0.929 . S
Cu115 N116 1.999 1_454 S
Cu115 O121 1.974 1_455 S
Cu115 N126 1.985 . S
Cu115 O135 1.959 1_554 S
N116 Cu115 1.999 1_656 S
N116 C118 1.263 . S
N116 C120 1.389 . S
N117 C118 1.358 . S
N117 C119 1.400 . S
C118 N116 1.263 . S
C118 N117 1.358 . S
C118 H124 0.930 . S
C119 N117 1.400 . S
C119 C120 1.351 . S
C119 H136 0.930 . S
C120 N116 1.389 . S
C120 C119 1.351 . S
C120 H125 0.930 1_655 S
O121 Cu115 1.974 1_655 S
O121 C131 1.282 . S
C122 O123 1.261 . S
C122 O135 1.251 . S
O123 C122 1.261 . S
H124 C118 0.930 . S
H125 C120 0.930 1_455 S
N126 Cu115 1.985 . S
N126 C128 1.335 . S
N126 C129 1.390 . S
N127 C128 1.345 . S
N127 C130 1.336 . S
C128 N126 1.335 . S
C128 N127 1.345 . S
C128 H133 0.930 . S
C129 N126 1.390 . S
C129 C130 1.346 . S
C129 H134 0.930 1_455 S
C130 N127 1.336 . S
C130 C129 1.346 . S
C130 H137 0.929 . S
C131 O121 1.282 . S
C131 O132 1.216 . S
O132 C131 1.216 . S
H133 C128 0.930 . S
H134 C129 0.930 1_655 S
O135 Cu115 1.959 1_556 S
O135 C122 1.251 . S
H136 C119 0.930 . S
H137 C130 0.929 . S
Cu138 N139 1.999 . S
Cu138 O144 1.974 . S
Cu138 N149 1.985 . S
Cu138 O158 1.959 . S
N139 Cu138 1.999 . S
N139 C141 1.263 . S
N139 C143 1.389 . S
N140 C141 1.358 . S
N140 C142 1.400 . S
C141 N139 1.263 . S
C141 N140 1.358 . S
C141 H147 0.930 . S
C142 N140 1.400 . S
C142 C143 1.351 . S
C142 H159 0.930 1_556 S
C143 N139 1.389 . S
C143 C142 1.351 . S
C143 H148 0.930 1_556 S
O144 Cu138 1.974 . S
O144 C154 1.282 . S
C145 O146 1.261 . S
C145 O158 1.251 . S
O146 C145 1.261 . S
H147 C141 0.930 . S
H148 C143 0.930 1_554 S
N149 Cu138 1.985 . S
N149 C151 1.335 . S
N149 C152 1.390 . S
N150 C151 1.345 . S
N150 C153 1.336 . S
C151 N149 1.335 . S
C151 N150 1.345 . S
C151 H156 0.930 . S
C152 N149 1.390 . S
C152 C153 1.346 . S
C152 H157 0.930 . S
C153 N150 1.336 . S
C153 C152 1.346 . S
C153 H160 0.929 . S
C154 O144 1.282 . S
C154 O155 1.216 . S
O155 C154 1.216 . S
H156 C151 0.930 . S
H157 C152 0.930 . S
O158 Cu138 1.959 . S
O158 C145 1.251 . S
H159 C142 0.930 1_554 S
H160 C153 0.929 . S
Cu161 N162 1.999 . S
Cu161 O167 1.974 . S
Cu161 N172 1.985 . S
Cu161 O181 1.959 . S
N162 Cu161 1.999 . S
N162 C164 1.263 . S
N162 C166 1.389 . S
N163 C164 1.358 . S
N163 C165 1.400 . S
C164 N162 1.263 . S
C164 N163 1.358 . S
C164 H170 0.930 . S
C165 N163 1.400 . S
C165 C166 1.351 . S
C165 H182 0.930 . S
C166 N162 1.389 . S
C166 C165 1.351 . S
C166 H171 0.930 . S
O167 Cu161 1.974 . S
O167 C177 1.282 . S
C168 O169 1.261 . S
C168 O181 1.251 . S
O169 C168 1.261 . S
H170 C164 0.930 . S
H171 C166 0.930 . S
N172 Cu161 1.985 . S
N172 C174 1.335 . S
N172 C175 1.390 . S
N173 C174 1.345 . S
N173 C176 1.336 . S
C174 N172 1.335 . S
C174 N173 1.345 . S
C174 H179 0.930 . S
C175 N172 1.390 . S
C175 C176 1.346 . S
C175 H180 0.930 . S
C176 N173 1.336 . S
C176 C175 1.346 . S
C176 H183 0.929 . S
C177 O167 1.282 . S
C177 O178 1.216 . S
O178 C177 1.216 . S
H179 C174 0.930 . S
H180 C175 0.930 . S
O181 Cu161 1.959 . S
O181 C168 1.251 . S
H182 C165 0.930 . S
H183 C176 0.929 . S
Cu184 N185 1.999 . S
Cu184 O190 1.974 . S
Cu184 N195 1.985 . S
Cu184 O204 1.959 . S
N185 Cu184 1.999 . S
N185 C187 1.263 . S
N185 C189 1.389 . S
N186 C187 1.358 . S
N186 C188 1.400 . S
C187 N185 1.263 . S
C187 N186 1.358 . S
C187 H193 0.930 . S
C188 N186 1.400 . S
C188 C189 1.351 . S
C188 H205 0.930 . S
C189 N185 1.389 . S
C189 C188 1.351 . S
C189 H194 0.930 . S
O190 Cu184 1.974 . S
O190 C200 1.282 . S
C191 O192 1.261 . S
C191 O204 1.251 . S
O192 C191 1.261 . S
H193 C187 0.930 . S
H194 C189 0.930 . S
N195 Cu184 1.985 . S
N195 C197 1.335 . S
N195 C198 1.390 . S
N196 C197 1.345 . S
N196 C199 1.336 . S
C197 N195 1.335 . S
C197 N196 1.345 . S
C197 H202 0.930 . S
C198 N195 1.390 . S
C198 C199 1.346 . S
C198 H203 0.930 . S
C199 N196 1.336 . S
C199 C198 1.346 . S
C199 H206 0.929 . S
C200 O190 1.282 . S
C200 O201 1.216 . S
O201 C200 1.216 . S
H202 C197 0.930 . S
H203 C198 0.930 . S
O204 Cu184 1.959 . S
O204 C191 1.251 . S
H205 C188 0.930 . S
H206 C199 0.929 . S
Cu207 N208 1.999 . S
Cu207 O213 1.974 . S
Cu207 N218 1.985 . S
Cu207 O227 1.959 . S
N208 Cu207 1.999 . S
N208 C210 1.263 . S
N208 C212 1.389 . S
N209 C210 1.358 . S
N209 C211 1.400 . S
C210 N208 1.263 . S
C210 N209 1.358 . S
C210 H216 0.930 . S
C211 N209 1.400 . S
C211 C212 1.351 . S
C211 H228 0.930 . S
C212 N208 1.389 . S
C212 C211 1.351 . S
C212 H217 0.930 . S
O213 Cu207 1.974 . S
O213 C223 1.282 . S
C214 O215 1.261 . S
C214 O227 1.251 . S
O215 C214 1.261 . S
H216 C210 0.930 . S
H217 C212 0.930 . S
N218 Cu207 1.985 . S
N218 C220 1.335 . S
N218 C221 1.390 . S
N219 C220 1.345 . S
N219 C222 1.336 . S
C220 N218 1.335 . S
C220 N219 1.345 . S
C220 H225 0.930 . S
C221 N218 1.390 . S
C221 C222 1.346 . S
C221 H226 0.930 . S
C222 N219 1.336 . S
C222 C221 1.346 . S
C222 H229 0.929 . S
C223 O213 1.282 . S
C223 O224 1.216 . S
O224 C223 1.216 . S
H225 C220 0.930 . S
H226 C221 0.930 . S
O227 Cu207 1.959 . S
O227 C214 1.251 . S
H228 C211 0.930 . S
H229 C222 0.929 . S
Cu230 N231 1.999 . S
Cu230 O236 1.974 . S
Cu230 N241 1.985 . S
Cu230 O250 1.959 . S
N231 Cu230 1.999 . S
N231 C233 1.263 . S
N231 C235 1.389 . S
N232 C233 1.358 . S
N232 C234 1.400 . S
C233 N231 1.263 . S
C233 N232 1.358 . S
C233 H239 0.930 . S
C234 N232 1.400 . S
C234 C235 1.351 . S
C234 H251 0.930 . S
C235 N231 1.389 . S
C235 C234 1.351 . S
C235 H240 0.930 . S
O236 Cu230 1.974 . S
O236 C246 1.282 . S
C237 O238 1.261 . S
C237 O250 1.251 . S
O238 C237 1.261 . S
H239 C233 0.930 . S
H240 C235 0.930 . S
N241 Cu230 1.985 . S
N241 C243 1.335 . S
N241 C244 1.390 . S
N242 C243 1.345 . S
N242 C245 1.336 . S
C243 N241 1.335 . S
C243 N242 1.345 . S
C243 H248 0.930 . S
C244 N241 1.390 . S
C244 C245 1.346 . S
C244 H249 0.930 . S
C245 N242 1.336 . S
C245 C244 1.346 . S
C245 H252 0.929 . S
C246 O236 1.282 . S
C246 O247 1.216 . S
O247 C246 1.216 . S
H248 C243 0.930 . S
H249 C244 0.930 . S
O250 Cu230 1.959 . S
O250 C237 1.251 . S
H251 C234 0.930 . S
H252 C245 0.929 . S
Cu253 N254 1.999 . S
Cu253 O259 1.974 . S
Cu253 N264 1.985 . S
Cu253 O273 1.959 . S
N254 Cu253 1.999 . S
N254 C256 1.263 . S
N254 C258 1.389 . S
N255 C256 1.358 . S
N255 C257 1.400 . S
C256 N254 1.263 . S
C256 N255 1.358 . S
C256 H262 0.930 . S
C257 N255 1.400 . S
C257 C258 1.351 . S
C257 H274 0.930 . S
C258 N254 1.389 . S
C258 C257 1.351 . S
C258 H263 0.930 . S
O259 Cu253 1.974 . S
O259 C269 1.282 . S
C260 O261 1.261 . S
C260 O273 1.251 . S
O261 C260 1.261 . S
H262 C256 0.930 . S
H263 C258 0.930 . S
N264 Cu253 1.985 . S
N264 C266 1.335 . S
N264 C267 1.390 . S
N265 C266 1.345 . S
N265 C268 1.336 . S
C266 N264 1.335 . S
C266 N265 1.345 . S
C266 H271 0.930 . S
C267 N264 1.390 . S
C267 C268 1.346 . S
C267 H272 0.930 . S
C268 N265 1.336 . S
C268 C267 1.346 . S
C268 H275 0.929 . S
C269 O259 1.282 . S
C269 O270 1.216 . S
O270 C269 1.216 . S
H271 C266 0.930 . S
H272 C267 0.930 . S
O273 Cu253 1.959 . S
O273 C260 1.251 . S
H274 C257 0.930 . S
H275 C268 0.929 . S
Ho276 C279 2.811 . S
Ho276 O296 2.322 . S
Ho276 O298 2.378 . S
Ho276 O299 2.524 . S
Ho276 O300 2.381 . S
Ho276 O301 2.669 . S
Ho276 O303 2.346 . S
Ho276 O307 2.305 . S
Ho277 C288 2.811 . S
Ho277 O297 2.346 . S
Ho277 O301 2.305 . S
Ho277 O302 2.322 . S
Ho277 O304 2.378 . S
Ho277 O305 2.524 . S
Ho277 O306 2.381 . S
Ho277 O307 2.669 . S
C278 O296 1.259 . S
C278 O297 1.268 . S
C279 Ho276 2.811 . S
C279 C280 1.488 . S
C279 O298 1.215 . S
C279 O299 1.289 . S
C280 C279 1.488 . S
C280 C281 1.348 . S
C280 C285 1.413 . S
C281 C280 1.348 . S
C281 C282 1.442 . S
C281 H308 0.930 . S
C282 C281 1.442 . S
C282 C283 1.381 . S
C282 H309 0.931 . S
C283 C282 1.381 . S
C283 C284 1.321 . S
C284 C283 1.321 . S
C284 C285 1.403 . S
C284 H310 0.934 . S
C285 C280 1.413 . S
C285 C284 1.403 . S
C285 H311 0.930 . S
C286 O300 1.275 . S
C286 O301 1.256 . S
C287 O302 1.259 . S
C287 O303 1.268 . S
C288 Ho277 2.811 . S
C288 C289 1.488 . S
C288 O304 1.215 . S
C288 O305 1.289 . S
C289 C288 1.488 . S
C289 C290 1.348 . S
C289 C294 1.413 . S
C290 C289 1.348 . S
C290 C291 1.442 . S
C290 H312 0.930 . S
C291 C290 1.442 . S
C291 C292 1.381 . S
C291 H313 0.931 . S
C292 C291 1.381 . S
C292 C293 1.321 . S
C293 C292 1.321 . S
C293 C294 1.403 . S
C293 H314 0.934 . S
C294 C289 1.413 . S
C294 C293 1.403 . S
C294 H315 0.930 . S
C295 O306 1.275 . S
C295 O307 1.256 . S
O296 Ho276 2.322 . S
O296 C278 1.259 . S
O297 Ho277 2.346 . S
O297 C278 1.268 . S
O298 Ho276 2.378 . S
O298 C279 1.215 . S
O299 Ho276 2.524 . S
O299 C279 1.289 . S
O300 Ho276 2.381 . S
O300 C286 1.275 . S
O301 Ho276 2.669 . S
O301 Ho277 2.305 . S
O301 C286 1.256 . S
O302 Ho277 2.322 . S
O302 C287 1.259 . S
O303 Ho276 2.346 . S
O303 C287 1.268 . S
O304 Ho277 2.378 . S
O304 C288 1.215 . S
O305 Ho277 2.524 . S
O305 C288 1.289 . S
O306 Ho277 2.381 . S
O306 C295 1.275 . S
O307 Ho276 2.305 . S
O307 Ho277 2.669 . S
O307 C295 1.256 . S
H308 C281 0.930 . S
H309 C282 0.931 . S
H310 C284 0.934 . S
H311 C285 0.930 . S
H312 C290 0.930 . S
H313 C291 0.931 . S
H314 C293 0.934 . S
H315 C294 0.930 . S
Ho316 C319 2.811 . S
Ho316 O336 2.322 . S
Ho316 O338 2.378 . S
Ho316 O339 2.524 . S
Ho316 O340 2.381 . S
Ho316 O341 2.669 . S
Ho316 O343 2.346 . S
Ho316 O347 2.305 . S
Ho317 C328 2.811 . S
Ho317 O337 2.346 . S
Ho317 O341 2.305 . S
Ho317 O342 2.322 . S
Ho317 O344 2.378 . S
Ho317 O345 2.524 . S
Ho317 O346 2.381 . S
Ho317 O347 2.669 . S
C318 O336 1.259 . S
C318 O337 1.268 . S
C319 Ho316 2.811 . S
C319 C320 1.488 . S
C319 O338 1.215 . S
C319 O339 1.289 . S
C320 C319 1.488 . S
C320 C321 1.348 . S
C320 C325 1.413 . S
C321 C320 1.348 . S
C321 C322 1.442 . S
C321 H348 0.930 . S
C322 C321 1.442 . S
C322 C323 1.381 . S
C322 H349 0.931 . S
C323 C322 1.381 . S
C323 C324 1.321 . S
C324 C323 1.321 . S
C324 C325 1.403 . S
C324 H350 0.934 . S
C325 C320 1.413 . S
C325 C324 1.403 . S
C325 H351 0.930 . S
C326 O340 1.275 . S
C326 O341 1.256 . S
C327 O342 1.259 . S
C327 O343 1.268 . S
C328 Ho317 2.811 . S
C328 C329 1.488 . S
C328 O344 1.215 . S
C328 O345 1.289 . S
C329 C328 1.488 . S
C329 C330 1.348 . S
C329 C334 1.413 . S
C330 C329 1.348 . S
C330 C331 1.442 . S
C330 H352 0.930 . S
C331 C330 1.442 . S
C331 C332 1.381 . S
C331 H353 0.931 . S
C332 C331 1.381 . S
C332 C333 1.321 . S
C333 C332 1.321 . S
C333 C334 1.403 . S
C333 H354 0.934 . S
C334 C329 1.413 . S
C334 C333 1.403 . S
C334 H355 0.930 . S
C335 O346 1.275 . S
C335 O347 1.256 . S
O336 Ho316 2.322 . S
O336 C318 1.259 . S
O337 Ho317 2.346 . S
O337 C318 1.268 . S
O338 Ho316 2.378 . S
O338 C319 1.215 . S
O339 Ho316 2.524 . S
O339 C319 1.289 . S
O340 Ho316 2.381 . S
O340 C326 1.275 . S
O341 Ho316 2.669 . S
O341 Ho317 2.305 . S
O341 C326 1.256 . S
O342 Ho317 2.322 . S
O342 C327 1.259 . S
O343 Ho316 2.346 . S
O343 C327 1.268 . S
O344 Ho317 2.378 . S
O344 C328 1.215 . S
O345 Ho317 2.524 . S
O345 C328 1.289 . S
O346 Ho317 2.381 . S
O346 C335 1.275 . S
O347 Ho316 2.305 . S
O347 Ho317 2.669 . S
O347 C335 1.256 . S
H348 C321 0.930 . S
H349 C322 0.931 . S
H350 C324 0.934 . S
H351 C325 0.930 . S
H352 C330 0.930 . S
H353 C331 0.931 . S
H354 C333 0.934 . S
H355 C334 0.930 . S
Ho356 C359 2.811 . S
Ho356 O376 2.322 . S
Ho356 O378 2.378 . S
Ho356 O379 2.524 . S
Ho356 O380 2.381 . S
Ho356 O381 2.669 . S
Ho356 O383 2.346 . S
Ho356 O387 2.305 . S
Ho357 C368 2.811 . S
Ho357 O377 2.346 . S
Ho357 O381 2.305 . S
Ho357 O382 2.322 . S
Ho357 O384 2.378 . S
Ho357 O385 2.524 . S
Ho357 O386 2.381 . S
Ho357 O387 2.669 . S
C358 O376 1.259 . S
C358 O377 1.268 . S
C359 Ho356 2.811 . S
C359 C360 1.488 . S
C359 O378 1.215 . S
C359 O379 1.289 . S
C360 C359 1.488 . S
C360 C361 1.348 . S
C360 C365 1.413 . S
C361 C360 1.348 . S
C361 C362 1.442 . S
C361 H388 0.930 . S
C362 C361 1.442 . S
C362 C363 1.381 . S
C362 H389 0.931 . S
C363 C362 1.381 . S
C363 C364 1.321 . S
C364 C363 1.321 . S
C364 C365 1.403 . S
C364 H390 0.934 . S
C365 C360 1.413 . S
C365 C364 1.403 . S
C365 H391 0.930 . S
C366 O380 1.275 . S
C366 O381 1.256 . S
C367 O382 1.259 . S
C367 O383 1.268 . S
C368 Ho357 2.811 . S
C368 C369 1.488 . S
C368 O384 1.215 . S
C368 O385 1.289 . S
C369 C368 1.488 . S
C369 C370 1.348 . S
C369 C374 1.413 . S
C370 C369 1.348 . S
C370 C371 1.442 . S
C370 H392 0.930 . S
C371 C370 1.442 . S
C371 C372 1.381 . S
C371 H393 0.931 . S
C372 C371 1.381 . S
C372 C373 1.321 . S
C373 C372 1.321 . S
C373 C374 1.403 . S
C373 H394 0.934 . S
C374 C369 1.413 . S
C374 C373 1.403 . S
C374 H395 0.930 . S
C375 O386 1.275 . S
C375 O387 1.256 . S
O376 Ho356 2.322 . S
O376 C358 1.259 . S
O377 Ho357 2.346 . S
O377 C358 1.268 . S
O378 Ho356 2.378 . S
O378 C359 1.215 . S
O379 Ho356 2.524 . S
O379 C359 1.289 . S
O380 Ho356 2.381 . S
O380 C366 1.275 . S
O381 Ho356 2.669 . S
O381 Ho357 2.305 . S
O381 C366 1.256 . S
O382 Ho357 2.322 . S
O382 C367 1.259 . S
O383 Ho356 2.346 . S
O383 C367 1.268 . S
O384 Ho357 2.378 . S
O384 C368 1.215 . S
O385 Ho357 2.524 . S
O385 C368 1.289 . S
O386 Ho357 2.381 . S
O386 C375 1.275 . S
O387 Ho356 2.305 . S
O387 Ho357 2.669 . S
O387 C375 1.256 . S
H388 C361 0.930 . S
H389 C362 0.931 . S
H390 C364 0.934 . S
H391 C365 0.930 . S
H392 C370 0.930 . S
H393 C371 0.931 . S
H394 C373 0.934 . S
H395 C374 0.930 . S
Ho396 C399 2.811 . S
Ho396 O416 2.322 . S
Ho396 O418 2.378 . S
Ho396 O419 2.524 . S
Ho396 O420 2.381 . S
Ho396 O421 2.669 . S
Ho396 O423 2.346 . S
Ho396 O427 2.305 . S
Ho397 C408 2.811 . S
Ho397 O417 2.346 . S
Ho397 O421 2.305 . S
Ho397 O422 2.322 . S
Ho397 O424 2.378 . S
Ho397 O425 2.524 . S
Ho397 O426 2.381 . S
Ho397 O427 2.669 . S
C398 O416 1.259 . S
C398 O417 1.268 . S
C399 Ho396 2.811 . S
C399 C400 1.488 . S
C399 O418 1.215 . S
C399 O419 1.289 . S
C400 C399 1.488 . S
C400 C401 1.348 . S
C400 C405 1.413 . S
C401 C400 1.348 . S
C401 C402 1.442 . S
C401 H428 0.930 . S
C402 C401 1.442 . S
C402 C403 1.381 . S
C402 H429 0.931 . S
C403 C402 1.381 . S
C403 C404 1.321 . S
C404 C403 1.321 . S
C404 C405 1.403 . S
C404 H430 0.934 . S
C405 C400 1.413 . S
C405 C404 1.403 . S
C405 H431 0.930 . S
C406 O420 1.275 . S
C406 O421 1.256 . S
C407 O422 1.259 . S
C407 O423 1.268 . S
C408 Ho397 2.811 . S
C408 C409 1.488 . S
C408 O424 1.215 . S
C408 O425 1.289 . S
C409 C408 1.488 . S
C409 C410 1.348 . S
C409 C414 1.413 . S
C410 C409 1.348 . S
C410 C411 1.442 . S
C410 H432 0.930 . S
C411 C410 1.442 . S
C411 C412 1.381 . S
C411 H433 0.931 . S
C412 C411 1.381 . S
C412 C413 1.321 . S
C413 C412 1.321 . S
C413 C414 1.403 . S
C413 H434 0.934 . S
C414 C409 1.413 . S
C414 C413 1.403 . S
C414 H435 0.930 . S
C415 O426 1.275 . S
C415 O427 1.256 . S
O416 Ho396 2.322 . S
O416 C398 1.259 . S
O417 Ho397 2.346 . S
O417 C398 1.268 . S
O418 Ho396 2.378 . S
O418 C399 1.215 . S
O419 Ho396 2.524 . S
O419 C399 1.289 . S
O420 Ho396 2.381 . S
O420 C406 1.275 . S
O421 Ho396 2.669 . S
O421 Ho397 2.305 . S
O421 C406 1.256 . S
O422 Ho397 2.322 . S
O422 C407 1.259 . S
O423 Ho396 2.346 . S
O423 C407 1.268 . S
O424 Ho397 2.378 . S
O424 C408 1.215 . S
O425 Ho397 2.524 . S
O425 C408 1.289 . S
O426 Ho397 2.381 . S
O426 C415 1.275 . S
O427 Ho396 2.305 . S
O427 Ho397 2.669 . S
O427 C415 1.256 . S
H428 C401 0.930 . S
H429 C402 0.931 . S
H430 C404 0.934 . S
H431 C405 0.930 . S
H432 C410 0.930 . S
H433 C411 0.931 . S
H434 C413 0.934 . S
H435 C414 0.930 . S
Ho436 C439 2.811 . S
Ho436 O456 2.322 . S
Ho436 O458 2.378 . S
Ho436 O459 2.524 . S
Ho436 O460 2.381 . S
Ho436 O461 2.669 . S
Ho436 O463 2.346 . S
Ho436 O467 2.305 . S
Ho437 C448 2.811 . S
Ho437 O457 2.346 . S
Ho437 O461 2.305 . S
Ho437 O462 2.322 . S
Ho437 O464 2.378 . S
Ho437 O465 2.524 . S
Ho437 O466 2.381 . S
Ho437 O467 2.669 . S
C438 O456 1.259 . S
C438 O457 1.268 . S
C439 Ho436 2.811 . S
C439 C440 1.488 . S
C439 O458 1.215 . S
C439 O459 1.289 . S
C440 C439 1.488 . S
C440 C441 1.348 . S
C440 C445 1.413 . S
C441 C440 1.348 . S
C441 C442 1.442 . S
C441 H468 0.930 . S
C442 C441 1.442 . S
C442 C443 1.381 . S
C442 H469 0.931 . S
C443 C442 1.381 . S
C443 C444 1.321 . S
C444 C443 1.321 . S
C444 C445 1.403 . S
C444 H470 0.934 1_556 S
C445 C440 1.413 . S
C445 C444 1.403 . S
C445 H471 0.930 . S
C446 O460 1.275 . S
C446 O461 1.256 . S
C447 O462 1.259 . S
C447 O463 1.268 . S
C448 Ho437 2.811 . S
C448 C449 1.488 . S
C448 O464 1.215 . S
C448 O465 1.289 . S
C449 C448 1.488 . S
C449 C450 1.348 . S
C449 C454 1.413 . S
C450 C449 1.348 . S
C450 C451 1.442 . S
C450 H472 0.930 . S
C451 C450 1.442 . S
C451 C452 1.381 . S
C451 H473 0.931 . S
C452 C451 1.381 . S
C452 C453 1.321 . S
C453 C452 1.321 . S
C453 C454 1.403 . S
C453 H474 0.934 . S
C454 C449 1.413 . S
C454 C453 1.403 . S
C454 H475 0.930 . S
C455 O466 1.275 . S
C455 O467 1.256 . S
O456 Ho436 2.322 . S
O456 C438 1.259 . S
O457 Ho437 2.346 . S
O457 C438 1.268 . S
O458 Ho436 2.378 . S
O458 C439 1.215 . S
O459 Ho436 2.524 . S
O459 C439 1.289 . S
O460 Ho436 2.381 . S
O460 C446 1.275 . S
O461 Ho436 2.669 . S
O461 Ho437 2.305 . S
O461 C446 1.256 . S
O462 Ho437 2.322 . S
O462 C447 1.259 . S
O463 Ho436 2.346 . S
O463 C447 1.268 . S
O464 Ho437 2.378 . S
O464 C448 1.215 . S
O465 Ho437 2.524 . S
O465 C448 1.289 . S
O466 Ho437 2.381 . S
O466 C455 1.275 . S
O467 Ho436 2.305 . S
O467 Ho437 2.669 . S
O467 C455 1.256 . S
H468 C441 0.930 . S
H469 C442 0.931 . S
H470 C444 0.934 1_554 S
H471 C445 0.930 . S
H472 C450 0.930 . S
H473 C451 0.931 . S
H474 C453 0.934 . S
H475 C454 0.930 . S
Ho476 C479 2.811 . S
Ho476 O496 2.322 . S
Ho476 O498 2.378 . S
Ho476 O499 2.524 . S
Ho476 O500 2.381 . S
Ho476 O501 2.669 . S
Ho476 O503 2.346 . S
Ho476 O507 2.305 . S
Ho477 C488 2.811 . S
Ho477 O497 2.346 . S
Ho477 O501 2.305 . S
Ho477 O502 2.322 . S
Ho477 O504 2.378 . S
Ho477 O505 2.524 . S
Ho477 O506 2.381 . S
Ho477 O507 2.669 . S
C478 O496 1.259 . S
C478 O497 1.268 . S
C479 Ho476 2.811 . S
C479 C480 1.488 . S
C479 O498 1.215 . S
C479 O499 1.289 . S
C480 C479 1.488 . S
C480 C481 1.348 . S
C480 C485 1.413 . S
C481 C480 1.348 . S
C481 C482 1.442 . S
C481 H508 0.930 . S
C482 C481 1.442 . S
C482 C483 1.381 . S
C482 H509 0.931 . S
C483 C482 1.381 . S
C483 C484 1.321 . S
C484 C483 1.321 . S
C484 C485 1.403 . S
C484 H510 0.934 . S
C485 C480 1.413 . S
C485 C484 1.403 . S
C485 H511 0.930 . S
C486 O500 1.275 . S
C486 O501 1.256 . S
C487 O502 1.259 . S
C487 O503 1.268 . S
C488 Ho477 2.811 . S
C488 C489 1.488 . S
C488 O504 1.215 . S
C488 O505 1.289 . S
C489 C488 1.488 . S
C489 C490 1.348 . S
C489 C494 1.413 . S
C490 C489 1.348 . S
C490 C491 1.442 . S
C490 H512 0.930 . S
C491 C490 1.442 . S
C491 C492 1.381 . S
C491 H513 0.931 . S
C492 C491 1.381 . S
C492 C493 1.321 . S
C493 C492 1.321 . S
C493 C494 1.403 . S
C493 H514 0.934 . S
C494 C489 1.413 . S
C494 C493 1.403 . S
C494 H515 0.930 . S
C495 O506 1.275 . S
C495 O507 1.256 . S
O496 Ho476 2.322 . S
O496 C478 1.259 . S
O497 Ho477 2.346 . S
O497 C478 1.268 . S
O498 Ho476 2.378 . S
O498 C479 1.215 . S
O499 Ho476 2.524 . S
O499 C479 1.289 . S
O500 Ho476 2.381 . S
O500 C486 1.275 . S
O501 Ho476 2.669 . S
O501 Ho477 2.305 . S
O501 C486 1.256 . S
O502 Ho477 2.322 . S
O502 C487 1.259 . S
O503 Ho476 2.346 . S
O503 C487 1.268 . S
O504 Ho477 2.378 . S
O504 C488 1.215 . S
O505 Ho477 2.524 . S
O505 C488 1.289 . S
O506 Ho477 2.381 . S
O506 C495 1.275 . S
O507 Ho476 2.305 . S
O507 Ho477 2.669 . S
O507 C495 1.256 . S
H508 C481 0.930 . S
H509 C482 0.931 . S
H510 C484 0.934 . S
H511 C485 0.930 . S
H512 C490 0.930 . S
H513 C491 0.931 . S
H514 C493 0.934 . S
H515 C494 0.930 . S
Ho516 C519 2.811 . S
Ho516 O536 2.322 . S
Ho516 O538 2.378 . S
Ho516 O539 2.524 . S
Ho516 O540 2.381 . S
Ho516 O541 2.669 . S
Ho516 O543 2.346 . S
Ho516 O547 2.305 . S
Ho517 C528 2.811 . S
Ho517 O537 2.346 . S
Ho517 O541 2.305 . S
Ho517 O542 2.322 . S
Ho517 O544 2.378 . S
Ho517 O545 2.524 . S
Ho517 O546 2.381 . S
Ho517 O547 2.669 . S
C518 O536 1.259 . S
C518 O537 1.268 . S
C519 Ho516 2.811 . S
C519 C520 1.488 . S
C519 O538 1.215 . S
C519 O539 1.289 . S
C520 C519 1.488 . S
C520 C521 1.348 . S
C520 C525 1.413 . S
C521 C520 1.348 . S
C521 C522 1.442 . S
C521 H548 0.930 . S
C522 C521 1.442 . S
C522 C523 1.381 . S
C522 H549 0.931 . S
C523 C522 1.381 . S
C523 C524 1.321 . S
C524 C523 1.321 . S
C524 C525 1.403 . S
C524 H550 0.934 . S
C525 C520 1.413 . S
C525 C524 1.403 . S
C525 H551 0.930 . S
C526 O540 1.275 . S
C526 O541 1.256 . S
C527 O542 1.259 . S
C527 O543 1.268 . S
C528 Ho517 2.811 . S
C528 C529 1.488 . S
C528 O544 1.215 . S
C528 O545 1.289 . S
C529 C528 1.488 . S
C529 C530 1.348 . S
C529 C534 1.413 . S
C530 C529 1.348 . S
C530 C531 1.442 . S
C530 H552 0.930 . S
C531 C530 1.442 . S
C531 C532 1.381 . S
C531 H553 0.931 . S
C532 C531 1.381 . S
C532 C533 1.321 . S
C533 C532 1.321 . S
C533 C534 1.403 . S
C533 H554 0.934 1_556 S
C534 C529 1.413 . S
C534 C533 1.403 . S
C534 H555 0.930 . S
C535 O546 1.275 . S
C535 O547 1.256 . S
O536 Ho516 2.322 . S
O536 C518 1.259 . S
O537 Ho517 2.346 . S
O537 C518 1.268 . S
O538 Ho516 2.378 . S
O538 C519 1.215 . S
O539 Ho516 2.524 . S
O539 C519 1.289 . S
O540 Ho516 2.381 . S
O540 C526 1.275 . S
O541 Ho516 2.669 . S
O541 Ho517 2.305 . S
O541 C526 1.256 . S
O542 Ho517 2.322 . S
O542 C527 1.259 . S
O543 Ho516 2.346 . S
O543 C527 1.268 . S
O544 Ho517 2.378 . S
O544 C528 1.215 . S
O545 Ho517 2.524 . S
O545 C528 1.289 . S
O546 Ho517 2.381 . S
O546 C535 1.275 . S
O547 Ho516 2.305 . S
O547 Ho517 2.669 . S
O547 C535 1.256 . S
H548 C521 0.930 . S
H549 C522 0.931 . S
H550 C524 0.934 . S
H551 C525 0.930 . S
H552 C530 0.930 . S
H553 C531 0.931 . S
H554 C533 0.934 1_554 S
H555 C534 0.930 . S
Ho556 C559 2.811 . S
Ho556 O576 2.322 . S
Ho556 O578 2.378 . S
Ho556 O579 2.524 . S
Ho556 O580 2.381 . S
Ho556 O581 2.669 . S
Ho556 O583 2.346 . S
Ho556 O587 2.305 . S
Ho557 C568 2.811 . S
Ho557 O577 2.346 . S
Ho557 O581 2.305 . S
Ho557 O582 2.322 . S
Ho557 O584 2.378 . S
Ho557 O585 2.524 . S
Ho557 O586 2.381 . S
Ho557 O587 2.669 . S
C558 O576 1.259 . S
C558 O577 1.268 . S
C559 Ho556 2.811 . S
C559 C560 1.488 . S
C559 O578 1.215 . S
C559 O579 1.289 . S
C560 C559 1.488 . S
C560 C561 1.348 . S
C560 C565 1.413 . S
C561 C560 1.348 . S
C561 C562 1.442 . S
C561 H588 0.930 . S
C562 C561 1.442 . S
C562 C563 1.381 . S
C562 H589 0.931 . S
C563 C562 1.381 . S
C563 C564 1.321 . S
C564 C563 1.321 . S
C564 C565 1.403 . S
C564 H590 0.934 . S
C565 C560 1.413 . S
C565 C564 1.403 . S
C565 H591 0.930 . S
C566 O580 1.275 . S
C566 O581 1.256 . S
C567 O582 1.259 . S
C567 O583 1.268 . S
C568 Ho557 2.811 . S
C568 C569 1.488 . S
C568 O584 1.215 . S
C568 O585 1.289 . S
C569 C568 1.488 . S
C569 C570 1.348 . S
C569 C574 1.413 . S
C570 C569 1.348 . S
C570 C571 1.442 . S
C570 H592 0.930 . S
C571 C570 1.442 . S
C571 C572 1.381 . S
C571 H593 0.931 . S
C572 C571 1.381 . S
C572 C573 1.321 . S
C573 C572 1.321 . S
C573 C574 1.403 . S
C573 H594 0.934 . S
C574 C569 1.413 . S
C574 C573 1.403 . S
C574 H595 0.930 . S
C575 O586 1.275 . S
C575 O587 1.256 . S
O576 Ho556 2.322 . S
O576 C558 1.259 . S
O577 Ho557 2.346 . S
O577 C558 1.268 . S
O578 Ho556 2.378 . S
O578 C559 1.215 . S
O579 Ho556 2.524 . S
O579 C559 1.289 . S
O580 Ho556 2.381 . S
O580 C566 1.275 . S
O581 Ho556 2.669 . S
O581 Ho557 2.305 . S
O581 C566 1.256 . S
O582 Ho557 2.322 . S
O582 C567 1.259 . S
O583 Ho556 2.346 . S
O583 C567 1.268 . S
O584 Ho557 2.378 . S
O584 C568 1.215 . S
O585 Ho557 2.524 . S
O585 C568 1.289 . S
O586 Ho557 2.381 . S
O586 C575 1.275 . S
O587 Ho556 2.305 . S
O587 Ho557 2.669 . S
O587 C575 1.256 . S
H588 C561 0.930 . S
H589 C562 0.931 . S
H590 C564 0.934 . S
H591 C565 0.930 . S
H592 C570 0.930 . S
H593 C571 0.931 . S
H594 C573 0.934 . S
H595 C574 0.930 . S
C596 C597 1.369 . S
C596 C598 1.419 . S
C596 H600 0.930 . S
C597 C596 1.369 . S
C597 C606 1.429 . S
C598 C596 1.419 . S
C598 C599 1.363 . S
C598 H601 0.929 . S
C599 C598 1.363 . S
C599 C605 1.428 . S
H600 C596 0.930 . S
H601 C598 0.929 . S
S602 N603 1.613 . S
S602 N604 1.610 . S
N603 S602 1.613 . S
N603 C606 1.350 . S
N604 S602 1.610 . S
N604 C605 1.351 . S
C605 C599 1.428 . S
C605 N604 1.351 . S
C605 C606 1.434 . S
C606 C597 1.429 . S
C606 N603 1.350 . S
C606 C605 1.434 . S
C607 C608 1.369 . S
C607 C609 1.419 . S
C607 H611 0.930 . S
C608 C607 1.369 . S
C608 C617 1.429 . S
C609 C607 1.419 . S
C609 C610 1.363 . S
C609 H612 0.929 . S
C610 C609 1.363 . S
C610 C616 1.428 . S
H611 C607 0.930 . S
H612 C609 0.929 . S
S613 N614 1.613 . S
S613 N615 1.610 . S
N614 S613 1.613 . S
N614 C617 1.350 . S
N615 S613 1.610 . S
N615 C616 1.351 . S
C616 C610 1.428 . S
C616 N615 1.351 . S
C616 C617 1.434 . S
C617 C608 1.429 . S
C617 N614 1.350 . S
C617 C616 1.434 . S
C618 C619 1.369 . S
C618 C620 1.419 . S
C618 H622 0.930 . S
C619 C618 1.369 . S
C619 C628 1.429 . S
C620 C618 1.419 . S
C620 C621 1.363 . S
C620 H623 0.929 . S
C621 C620 1.363 . S
C621 C627 1.428 . S
H622 C618 0.930 . S
H623 C620 0.929 . S
S624 N625 1.613 . S
S624 N626 1.610 1_545 S
N625 S624 1.613 . S
N625 C628 1.350 1_545 S
N626 S624 1.610 1_565 S
N626 C627 1.351 . S
C627 C621 1.428 . S
C627 N626 1.351 . S
C627 C628 1.434 . S
C628 C619 1.429 . S
C628 N625 1.350 1_565 S
C628 C627 1.434 . S
C629 C630 1.369 . S
C629 C631 1.419 . S
C629 H633 0.930 . S
C630 C629 1.369 . S
C630 C639 1.429 . S
C631 C629 1.419 . S
C631 C632 1.363 . S
C631 H634 0.929 . S
C632 C631 1.363 . S
C632 C638 1.428 . S
H633 C629 0.930 . S
H634 C631 0.929 . S
S635 N636 1.613 . S
S635 N637 1.610 . S
N636 S635 1.613 . S
N636 C639 1.350 . S
N637 S635 1.610 . S
N637 C638 1.351 . S
C638 C632 1.428 . S
C638 N637 1.351 . S
C638 C639 1.434 . S
C639 C630 1.429 . S
C639 N636 1.350 . S
C639 C638 1.434 . S
C640 C641 1.369 . S
C640 C642 1.419 . S
C640 H644 0.930 . S
C641 C640 1.369 . S
C641 C650 1.429 . S
C642 C640 1.419 . S
C642 C643 1.363 . S
C642 H645 0.929 . S
C643 C642 1.363 . S
C643 C649 1.428 . S
H644 C640 0.930 . S
H645 C642 0.929 . S
S646 N647 1.613 . S
S646 N648 1.610 . S
N647 S646 1.613 . S
N647 C650 1.350 . S
N648 S646 1.610 . S
N648 C649 1.351 . S
C649 C643 1.428 . S
C649 N648 1.351 . S
C649 C650 1.434 . S
C650 C641 1.429 . S
C650 N647 1.350 . S
C650 C649 1.434 . S
C651 C652 1.369 . S
C651 C653 1.419 . S
C651 H655 0.930 . S
C652 C651 1.369 . S
C652 C661 1.429 . S
C653 C651 1.419 . S
C653 C654 1.363 . S
C653 H656 0.929 . S
C654 C653 1.363 . S
C654 C660 1.428 . S
H655 C651 0.930 . S
H656 C653 0.929 . S
S657 N658 1.613 . S
S657 N659 1.610 . S
N658 S657 1.613 . S
N658 C661 1.350 . S
N659 S657 1.610 . S
N659 C660 1.351 . S
C660 C654 1.428 . S
C660 N659 1.351 . S
C660 C661 1.434 . S
C661 C652 1.429 . S
C661 N658 1.350 . S
C661 C660 1.434 . S
C662 C663 1.369 . S
C662 C664 1.419 . S
C662 H666 0.930 . S
C663 C662 1.369 . S
C663 C672 1.429 . S
C664 C662 1.419 . S
C664 C665 1.363 . S
C664 H667 0.929 . S
C665 C664 1.363 . S
C665 C671 1.428 . S
H666 C662 0.930 . S
H667 C664 0.929 . S
S668 N669 1.613 . S
S668 N670 1.610 . S
N669 S668 1.613 . S
N669 C672 1.350 . S
N670 S668 1.610 . S
N670 C671 1.351 . S
C671 C665 1.428 . S
C671 N670 1.351 . S
C671 C672 1.434 . S
C672 C663 1.429 . S
C672 N669 1.350 . S
C672 C671 1.434 . S
C673 C674 1.369 1_565 S
C673 C675 1.419 . S
C673 H677 0.930 . S
C674 C673 1.369 1_545 S
C674 C683 1.429 . S
C675 C673 1.419 . S
C675 C676 1.363 . S
C675 H678 0.929 . S
C676 C675 1.363 . S
C676 C682 1.428 1_565 S
H677 C673 0.930 . S
H678 C675 0.929 . S
S679 N680 1.613 . S
S679 N681 1.610 . S
N680 S679 1.613 . S
N680 C683 1.350 . S
N681 S679 1.610 . S
N681 C682 1.351 . S
C682 C676 1.428 1_545 S
C682 N681 1.351 . S
C682 C683 1.434 . S
C683 C674 1.429 . S
C683 N680 1.350 . S
C683 C682 1.434 . S
C684 C685 1.369 . S
C684 C686 1.419 . S
C684 H688 0.930 . S
C685 C684 1.369 . S
C685 C694 1.429 . S
C686 C684 1.419 . S
C686 C687 1.363 . S
C686 H689 0.929 . S
C687 C686 1.363 . S
C687 C693 1.428 . S
H688 C684 0.930 . S
H689 C686 0.929 . S
S690 N691 1.613 . S
S690 N692 1.610 . S
N691 S690 1.613 . S
N691 C694 1.350 . S
N692 S690 1.610 . S
N692 C693 1.351 . S
C693 C687 1.428 . S
C693 N692 1.351 . S
C693 C694 1.434 . S
C694 C685 1.429 . S
C694 N691 1.350 . S
C694 C693 1.434 . S
C695 C696 1.369 . S
C695 C697 1.419 . S
C695 H699 0.930 . S
C696 C695 1.369 . S
C696 C705 1.429 . S
C697 C695 1.419 . S
C697 C698 1.363 . S
C697 H700 0.929 . S
C698 C697 1.363 . S
C698 C704 1.428 . S
H699 C695 0.930 . S
H700 C697 0.929 . S
S701 N702 1.613 . S
S701 N703 1.610 . S
N702 S701 1.613 . S
N702 C705 1.350 . S
N703 S701 1.610 . S
N703 C704 1.351 . S
C704 C698 1.428 . S
C704 N703 1.351 . S
C704 C705 1.434 . S
C705 C696 1.429 . S
C705 N702 1.350 . S
C705 C704 1.434 . S
C706 C707 1.369 . S
C706 C708 1.419 . S
C706 H710 0.930 . S
C707 C706 1.369 . S
C707 C716 1.429 . S
C708 C706 1.419 . S
C708 C709 1.363 . S
C708 H711 0.929 . S
C709 C708 1.363 . S
C709 C715 1.428 . S
H710 C706 0.930 . S
H711 C708 0.929 . S
S712 N713 1.613 . S
S712 N714 1.610 . S
N713 S712 1.613 . S
N713 C716 1.350 . S
N714 S712 1.610 . S
N714 C715 1.351 . S
C715 C709 1.428 . S
C715 N714 1.351 . S
C715 C716 1.434 . S
C716 C707 1.429 . S
C716 N713 1.350 . S
C716 C715 1.434 . S
C717 C718 1.369 . S
C717 C719 1.419 . S
C717 H721 0.930 . S
C718 C717 1.369 . S
C718 C727 1.429 . S
C719 C717 1.419 . S
C719 C720 1.363 . S
C719 H722 0.929 . S
C720 C719 1.363 . S
C720 C726 1.428 . S
H721 C717 0.930 . S
H722 C719 0.929 . S
S723 N724 1.613 . S
S723 N725 1.610 . S
N724 S723 1.613 . S
N724 C727 1.350 . S
N725 S723 1.610 . S
N725 C726 1.351 . S
C726 C720 1.428 . S
C726 N725 1.351 . S
C726 C727 1.434 . S
C727 C718 1.429 . S
C727 N724 1.350 . S
C727 C726 1.434 . S
C728 C729 1.361 1_566 S
C728 C730 1.437 . S
C728 H732 0.920 1_565 S
C729 C728 1.361 1_544 S
C729 C738 1.429 1_545 S
C730 C728 1.437 . S
C730 C731 1.363 1_556 S
C730 H733 0.929 . S
C731 C730 1.363 1_554 S
C731 C737 1.428 . S
H732 C728 0.920 1_545 S
H733 C730 0.929 . S
S734 N735 1.613 1_565 S
S734 N736 1.610 . S
N735 S734 1.613 1_545 S
N735 C738 1.350 1_545 S
N736 S734 1.610 . S
N736 C737 1.351 . S
C737 C731 1.428 . S
C737 N736 1.351 . S
C737 C738 1.434 . S
C738 C729 1.429 1_565 S
C738 N735 1.350 1_565 S
C738 C737 1.434 . S
C739 C740 1.369 . S
C739 C741 1.419 . S
C739 H743 0.930 . S
C740 C739 1.369 . S
C740 C749 1.429 . S
C741 C739 1.419 . S
C741 C742 1.363 . S
C741 H744 0.929 . S
C742 C741 1.363 . S
C742 C748 1.428 . S
H743 C739 0.930 . S
H744 C741 0.929 . S
S745 N746 1.613 . S
S745 N747 1.610 . S
N746 S745 1.613 . S
N746 C749 1.350 . S
N747 S745 1.610 . S
N747 C748 1.351 . S
C748 C742 1.428 . S
C748 N747 1.351 . S
C748 C749 1.434 . S
C749 C740 1.429 . S
C749 N746 1.350 . S
C749 C748 1.434 . S
C750 C751 1.369 . S
C750 C752 1.419 . S
C750 H754 0.930 . S
C751 C750 1.369 . S
C751 C760 1.429 . S
C752 C750 1.419 . S
C752 C753 1.363 . S
C752 H755 0.929 . S
C753 C752 1.363 . S
C753 C759 1.428 . S
H754 C750 0.930 . S
H755 C752 0.929 . S
S756 N757 1.613 . S
S756 N758 1.610 . S
N757 S756 1.613 . S
N757 C760 1.350 . S
N758 S756 1.610 . S
N758 C759 1.351 . S
C759 C753 1.428 . S
C759 N758 1.351 . S
C759 C760 1.434 . S
C760 C751 1.429 . S
C760 N757 1.350 . S
C760 C759 1.434 . S
C761 C762 1.369 . S
C761 C763 1.419 . S
C761 H765 0.930 . S
C762 C761 1.369 . S
C762 C771 1.429 . S
C763 C761 1.419 . S
C763 C764 1.363 . S
C763 H766 0.929 . S
C764 C763 1.363 . S
C764 C770 1.428 . S
H765 C761 0.930 . S
H766 C763 0.929 . S
S767 N768 1.613 . S
S767 N769 1.610 . S
N768 S767 1.613 . S
N768 C771 1.350 . S
N769 S767 1.610 . S
N769 C770 1.351 . S
C770 C764 1.428 . S
C770 N769 1.351 . S
C770 C771 1.434 . S
C771 C762 1.429 . S
C771 N768 1.350 . S
C771 C770 1.434 . S
C772 C773 1.369 . S
C772 C774 1.419 . S
C772 H776 0.930 . S
C773 C772 1.369 . S
C773 C782 1.429 . S
C774 C772 1.419 . S
C774 C775 1.363 . S
C774 H777 0.929 . S
C775 C774 1.363 . S
C775 C781 1.428 . S
H776 C772 0.930 . S
H777 C774 0.929 . S
S778 N779 1.613 . S
S778 N780 1.610 . S
N779 S778 1.613 . S
N779 C782 1.350 . S
N780 S778 1.610 . S
N780 C781 1.351 . S
C781 C775 1.428 . S
C781 N780 1.351 . S
C781 C782 1.434 . S
C782 C773 1.429 . S
C782 N779 1.350 . S
C782 C781 1.434 . S
C783 C784 1.369 . S
C783 C785 1.419 . S
C783 H787 0.930 . S
C784 C783 1.369 . S
C784 C793 1.429 . S
C785 C783 1.419 . S
C785 C786 1.363 . S
C785 H788 0.929 . S
C786 C785 1.363 . S
C786 C792 1.428 . S
H787 C783 0.930 . S
H788 C785 0.929 . S
S789 N790 1.613 . S
S789 N791 1.610 . S
N790 S789 1.613 . S
N790 C793 1.350 . S
N791 S789 1.610 . S
N791 C792 1.351 . S
C792 C786 1.428 . S
C792 N791 1.351 . S
C792 C793 1.434 . S
C793 C784 1.429 . S
C793 N790 1.350 . S
C793 C792 1.434 . S
C794 C795 1.369 1_556 S
C794 C796 1.419 . S
C794 H798 0.930 . S
C795 C794 1.369 1_554 S
C795 C804 1.429 . S
C796 C794 1.419 . S
C796 C797 1.363 . S
C796 H799 0.929 . S
C797 C796 1.363 . S
C797 C803 1.428 . S
H798 C794 0.930 . S
H799 C796 0.929 . S
S800 N801 1.613 . S
S800 N802 1.610 1_554 S
N801 S800 1.613 . S
N801 C804 1.350 . S
N802 S800 1.610 1_556 S
N802 C803 1.351 . S
C803 C797 1.428 . S
C803 N802 1.351 . S
C803 C804 1.434 1_556 S
C804 C795 1.429 . S
C804 N801 1.350 . S
C804 C803 1.434 1_554 S
C805 C806 1.369 . S
C805 C807 1.419 1_455 S
C805 H809 0.930 . S
C806 C805 1.369 . S
C806 C815 1.429 1_455 S
C807 C805 1.419 1_655 S
C807 C808 1.363 . S
C807 H810 0.929 1_655 S
C808 C807 1.363 . S
C808 C814 1.428 . S
H809 C805 0.930 . S
H810 C807 0.929 1_455 S
S811 N812 1.613 . S
S811 N813 1.610 . S
N812 S811 1.613 . S
N812 C815 1.350 . S
N813 S811 1.610 . S
N813 C814 1.351 . S
C814 C808 1.428 . S
C814 N813 1.351 . S
C814 C815 1.434 . S
C815 C806 1.429 1_655 S
C815 N812 1.350 . S
C815 C814 1.434 . S
C816 C817 1.369 . S
C816 C818 1.419 . S
C816 H820 0.930 . S
C817 C816 1.369 . S
C817 C826 1.429 . S
C818 C816 1.419 . S
C818 C819 1.363 . S
C818 H821 0.929 . S
C819 C818 1.363 . S
C819 C825 1.428 . S
H820 C816 0.930 . S
H821 C818 0.929 . S
S822 N823 1.613 . S
S822 N824 1.610 . S
N823 S822 1.613 . S
N823 C826 1.350 . S
N824 S822 1.610 . S
N824 C825 1.351 . S
C825 C819 1.428 . S
C825 N824 1.351 . S
C825 C826 1.434 . S
C826 C817 1.429 . S
C826 N823 1.350 . S
C826 C825 1.434 . S
C827 C828 1.369 . S
C827 C829 1.419 . S
C827 H831 0.930 . S
C828 C827 1.369 . S
C828 C837 1.429 . S
C829 C827 1.419 . S
C829 C830 1.363 . S
C829 H832 0.929 . S
C830 C829 1.363 . S
C830 C836 1.428 . S
H831 C827 0.930 . S
H832 C829 0.929 . S
S833 N834 1.613 . S
S833 N835 1.610 . S
N834 S833 1.613 . S
N834 C837 1.350 . S
N835 S833 1.610 . S
N835 C836 1.351 . S
C836 C830 1.428 . S
C836 N835 1.351 . S
C836 C837 1.434 . S
C837 C828 1.429 . S
C837 N834 1.350 . S
C837 C836 1.434 . S
C838 C839 1.369 1_565 S
C838 C840 1.419 . S
C838 H842 0.930 . S
C839 C838 1.369 1_545 S
C839 C848 1.429 1_545 S
C840 C838 1.419 . S
C840 C841 1.363 . S
C840 H843 0.929 . S
C841 C840 1.363 . S
C841 C847 1.428 . S
H842 C838 0.930 . S
H843 C840 0.929 . S
S844 N845 1.613 1_565 S
S844 N846 1.610 . S
N845 S844 1.613 1_545 S
N845 C848 1.350 1_545 S
N846 S844 1.610 . S
N846 C847 1.351 . S
C847 C841 1.428 . S
C847 N846 1.351 . S
C847 C848 1.434 . S
C848 C839 1.429 1_565 S
C848 N845 1.350 1_565 S
C848 C847 1.434 . S
C849 C850 1.369 . S
C849 C851 1.419 . S
C849 H853 0.930 . S
C850 C849 1.369 . S
C850 C859 1.429 . S
C851 C849 1.419 . S
C851 C852 1.363 . S
C851 H854 0.929 . S
C852 C851 1.363 . S
C852 C858 1.428 . S
H853 C849 0.930 . S
H854 C851 0.929 . S
S855 N856 1.613 . S
S855 N857 1.610 . S
N856 S855 1.613 . S
N856 C859 1.350 . S
N857 S855 1.610 . S
N857 C858 1.351 . S
C858 C852 1.428 . S
C858 N857 1.351 . S
C858 C859 1.434 . S
C859 C850 1.429 . S
C859 N856 1.350 . S
C859 C858 1.434 . S
C860 C861 1.369 . S
C860 C862 1.419 . S
C860 H864 0.930 . S
C861 C860 1.369 . S
C861 C870 1.429 . S
C862 C860 1.419 . S
C862 C863 1.363 . S
C862 H865 0.929 . S
C863 C862 1.363 . S
C863 C869 1.428 . S
H864 C860 0.930 . S
H865 C862 0.929 . S
S866 N867 1.613 . S
S866 N868 1.610 1_554 S
N867 S866 1.613 . S
N867 C870 1.350 1_554 S
N868 S866 1.610 1_556 S
N868 C869 1.351 . S
C869 C863 1.428 . S
C869 N868 1.351 . S
C869 C870 1.434 . S
C870 C861 1.429 . S
C870 N867 1.350 1_556 S
C870 C869 1.434 . S
C871 C872 1.369 . S
C871 C873 1.419 . S
C871 H875 0.930 . S
C872 C871 1.369 . S
C872 C881 1.429 . S
C873 C871 1.419 . S
C873 C874 1.363 . S
C873 H876 0.929 . S
C874 C873 1.363 . S
C874 C880 1.428 . S
H875 C871 0.930 . S
H876 C873 0.929 . S
S877 N878 1.613 . S
S877 N879 1.610 . S
N878 S877 1.613 . S
N878 C881 1.350 . S
N879 S877 1.610 . S
N879 C880 1.351 . S
C880 C874 1.428 . S
C880 N879 1.351 . S
C880 C881 1.434 . S
C881 C872 1.429 . S
C881 N878 1.350 . S
C881 C880 1.434 . S
C882 C883 1.369 . S
C882 C884 1.419 . S
C882 H886 0.930 . S
C883 C882 1.369 . S
C883 C892 1.429 . S
C884 C882 1.419 . S
C884 C885 1.363 . S
C884 H887 0.929 . S
C885 C884 1.363 . S
C885 C891 1.428 . S
H886 C882 0.930 . S
H887 C884 0.929 . S
S888 N889 1.613 . S
S888 N890 1.610 . S
N889 S888 1.613 . S
N889 C892 1.350 . S
N890 S888 1.610 . S
N890 C891 1.351 . S
C891 C885 1.428 . S
C891 N890 1.351 . S
C891 C892 1.434 . S
C892 C883 1.429 . S
C892 N889 1.350 . S
C892 C891 1.434 . S
C893 C894 1.369 . S
C893 C895 1.419 . S
C893 H897 0.930 . S
C894 C893 1.369 . S
C894 C903 1.429 . S
C895 C893 1.419 . S
C895 C896 1.363 . S
C895 H898 0.929 . S
C896 C895 1.363 . S
C896 C902 1.428 . S
H897 C893 0.930 . S
H898 C895 0.929 . S
S899 N900 1.613 . S
S899 N901 1.610 . S
N900 S899 1.613 . S
N900 C903 1.350 . S
N901 S899 1.610 . S
N901 C902 1.351 . S
C902 C896 1.428 . S
C902 N901 1.351 . S
C902 C903 1.434 . S
C903 C894 1.429 . S
C903 N900 1.350 . S
C903 C902 1.434 . S
C904 C905 1.369 . S
C904 C906 1.419 . S
C904 H908 0.930 . S
C905 C904 1.369 . S
C905 C914 1.429 . S
C906 C904 1.419 . S
C906 C907 1.363 . S
C906 H909 0.929 . S
C907 C906 1.363 . S
C907 C913 1.428 . S
H908 C904 0.930 . S
H909 C906 0.929 . S
S910 N911 1.613 . S
S910 N912 1.610 . S
N911 S910 1.613 . S
N911 C914 1.350 . S
N912 S910 1.610 . S
N912 C913 1.351 . S
C913 C907 1.428 . S
C913 N912 1.351 . S
C913 C914 1.434 . S
C914 C905 1.429 . S
C914 N911 1.350 . S
C914 C913 1.434 . S
C915 C916 1.369 . S
C915 C917 1.419 . S
C915 H919 0.930 . S
C916 C915 1.369 . S
C916 C925 1.429 . S
C917 C915 1.419 . S
C917 C918 1.363 . S
C917 H920 0.929 . S
C918 C917 1.363 . S
C918 C924 1.428 . S
H919 C915 0.930 . S
H920 C917 0.929 . S
S921 N922 1.613 . S
S921 N923 1.610 . S
N922 S921 1.613 . S
N922 C925 1.350 . S
N923 S921 1.610 . S
N923 C924 1.351 . S
C924 C918 1.428 . S
C924 N923 1.351 . S
C924 C925 1.434 . S
C925 C916 1.429 . S
C925 N922 1.350 . S
C925 C924 1.434 . S
C926 C927 1.369 . S
C926 C928 1.419 . S
C926 H930 0.930 . S
C927 C926 1.369 . S
C927 C936 1.429 . S
C928 C926 1.419 . S
C928 C929 1.363 . S
C928 H931 0.929 . S
C929 C928 1.363 . S
C929 C935 1.428 . S
H930 C926 0.930 . S
H931 C928 0.929 . S
S932 N933 1.613 . S
S932 N934 1.610 . S
N933 S932 1.613 . S
N933 C936 1.350 . S
N934 S932 1.610 . S
N934 C935 1.351 . S
C935 C929 1.428 . S
C935 N934 1.351 . S
C935 C936 1.434 . S
C936 C927 1.429 . S
C936 N933 1.350 . S
C936 C935 1.434 . S
C937 C938 1.369 . S
C937 C939 1.419 . S
C937 H941 0.930 . S
C938 C937 1.369 . S
C938 C947 1.429 . S
C939 C937 1.419 . S
C939 C940 1.363 . S
C939 H942 0.929 . S
C940 C939 1.363 . S
C940 C946 1.428 . S
H941 C937 0.930 . S
H942 C939 0.929 . S
S943 N944 1.613 . S
S943 N945 1.610 . S
N944 S943 1.613 . S
N944 C947 1.350 . S
N945 S943 1.610 . S
N945 C946 1.351 . S
C946 C940 1.428 . S
C946 N945 1.351 . S
C946 C947 1.434 . S
C947 C938 1.429 . S
C947 N944 1.350 . S
C947 C946 1.434 . S
C948 C949 1.369 . S
C948 C950 1.419 . S
C948 H952 0.930 . S
C949 C948 1.369 . S
C949 C958 1.429 . S
C950 C948 1.419 . S
C950 C951 1.363 . S
C950 H953 0.929 . S
C951 C950 1.363 . S
C951 C957 1.428 . S
H952 C948 0.930 . S
H953 C950 0.929 . S
S954 N955 1.613 . S
S954 N956 1.610 . S
N955 S954 1.613 . S
N955 C958 1.350 . S
N956 S954 1.610 . S
N956 C957 1.351 . S
C957 C951 1.428 . S
C957 N956 1.351 . S
C957 C958 1.434 . S
C958 C949 1.429 . S
C958 N955 1.350 . S
C958 C957 1.434 . S
C959 C960 1.369 . S
C959 C961 1.419 . S
C959 H963 0.930 . S
C960 C959 1.369 . S
C960 C969 1.429 . S
C961 C959 1.419 . S
C961 C962 1.363 . S
C961 H964 0.929 . S
C962 C961 1.363 . S
C962 C968 1.428 . S
H963 C959 0.930 . S
H964 C961 0.929 . S
S965 N966 1.613 . S
S965 N967 1.610 . S
N966 S965 1.613 . S
N966 C969 1.350 . S
N967 S965 1.610 . S
N967 C968 1.351 . S
C968 C962 1.428 . S
C968 N967 1.351 . S
C968 C969 1.434 . S
C969 C960 1.429 . S
C969 N966 1.350 . S
C969 C968 1.434 . S
C970 C971 1.369 . S
C970 C972 1.419 . S
C970 H974 0.930 . S
C971 C970 1.369 . S
C971 C980 1.429 . S
C972 C970 1.419 . S
C972 C973 1.363 . S
C972 H975 0.929 . S
C973 C972 1.363 . S
C973 C979 1.428 . S
H974 C970 0.930 . S
H975 C972 0.929 . S
S976 N977 1.613 . S
S976 N978 1.610 . S
N977 S976 1.613 . S
N977 C980 1.350 . S
N978 S976 1.610 . S
N978 C979 1.351 . S
C979 C973 1.428 . S
C979 N978 1.351 . S
C979 C980 1.434 . S
C980 C971 1.429 . S
C980 N977 1.350 . S
C980 C979 1.434 . S
C981 C982 1.369 . S
C981 C983 1.419 . S
C981 H985 0.930 . S
C982 C981 1.369 . S
C982 C991 1.429 . S
C983 C981 1.419 . S
C983 C984 1.363 . S
C983 H986 0.929 . S
C984 C983 1.363 . S
C984 C990 1.428 . S
H985 C981 0.930 . S
H986 C983 0.929 . S
S987 N988 1.613 . S
S987 N989 1.610 . S
N988 S987 1.613 . S
N988 C991 1.350 . S
N989 S987 1.610 . S
N989 C990 1.351 . S
C990 C984 1.428 . S
C990 N989 1.351 . S
C990 C991 1.434 . S
C991 C982 1.429 . S
C991 N988 1.350 . S
C991 C990 1.434 . S
C992 C993 1.369 . S
C992 C994 1.419 . S
C992 H996 0.930 . S
C993 C992 1.369 . S
C993 C1002 1.429 . S
C994 C992 1.419 . S
C994 C995 1.363 . S
C994 H997 0.929 . S
C995 C994 1.363 . S
C995 C1001 1.428 . S
H996 C992 0.930 . S
H997 C994 0.929 . S
S998 N999 1.613 . S
S998 N1000 1.610 . S
N999 S998 1.613 . S
N999 C1002 1.350 . S
N1000 S998 1.610 . S
N1000 C1001 1.351 . S
C1001 C995 1.428 . S
C1001 N1000 1.351 . S
C1001 C1002 1.434 . S
C1002 C993 1.429 . S
C1002 N999 1.350 . S
C1002 C1001 1.434 . S
C1003 C1004 1.369 . S
C1003 C1005 1.419 . S
C1003 H1007 0.930 . S
C1004 C1003 1.369 . S
C1004 C1013 1.429 . S
C1005 C1003 1.419 . S
C1005 C1006 1.363 . S
C1005 H1008 0.929 . S
C1006 C1005 1.363 . S
C1006 C1012 1.428 . S
H1007 C1003 0.930 . S
H1008 C1005 0.929 . S
S1009 N1010 1.613 . S
S1009 N1011 1.610 . S
N1010 S1009 1.613 . S
N1010 C1013 1.350 . S
N1011 S1009 1.610 . S
N1011 C1012 1.351 . S
C1012 C1006 1.428 . S
C1012 N1011 1.351 . S
C1012 C1013 1.434 . S
C1013 C1004 1.429 . S
C1013 N1010 1.350 . S
C1013 C1012 1.434 . S
C1014 C1015 1.369 . S
C1014 C1016 1.419 . S
C1014 H1018 0.930 . S
C1015 C1014 1.369 . S
C1015 C1024 1.429 . S
C1016 C1014 1.419 . S
C1016 C1017 1.363 . S
C1016 H1019 0.929 . S
C1017 C1016 1.363 . S
C1017 C1023 1.428 . S
H1018 C1014 0.930 . S
H1019 C1016 0.929 . S
S1020 N1021 1.613 . S
S1020 N1022 1.610 . S
N1021 S1020 1.613 . S
N1021 C1024 1.350 . S
N1022 S1020 1.610 . S
N1022 C1023 1.351 . S
C1023 C1017 1.428 . S
C1023 N1022 1.351 . S
C1023 C1024 1.434 . S
C1024 C1015 1.429 . S
C1024 N1021 1.350 . S
C1024 C1023 1.434 . S
C1025 C1026 1.369 . S
C1025 C1027 1.419 . S
C1025 H1029 0.930 . S
C1026 C1025 1.369 . S
C1026 C1035 1.429 . S
C1027 C1025 1.419 . S
C1027 C1028 1.363 . S
C1027 H1030 0.929 . S
C1028 C1027 1.363 . S
C1028 C1034 1.428 . S
H1029 C1025 0.930 . S
H1030 C1027 0.929 . S
S1031 N1032 1.613 . S
S1031 N1033 1.610 . S
N1032 S1031 1.613 . S
N1032 C1035 1.350 . S
N1033 S1031 1.610 . S
N1033 C1034 1.351 . S
C1034 C1028 1.428 . S
C1034 N1033 1.351 . S
C1034 C1035 1.434 . S
C1035 C1026 1.429 . S
C1035 N1032 1.350 . S
C1035 C1034 1.434 . S
C1036 C1037 1.369 . S
C1036 C1038 1.419 . S
C1036 H1040 0.930 . S
C1037 C1036 1.369 . S
C1037 C1046 1.429 . S
C1038 C1036 1.419 . S
C1038 C1039 1.363 . S
C1038 H1041 0.929 . S
C1039 C1038 1.363 . S
C1039 C1045 1.428 . S
H1040 C1036 0.930 . S
H1041 C1038 0.929 . S
S1042 N1043 1.613 . S
S1042 N1044 1.610 . S
N1043 S1042 1.613 . S
N1043 C1046 1.350 . S
N1044 S1042 1.610 . S
N1044 C1045 1.351 . S
C1045 C1039 1.428 . S
C1045 N1044 1.351 . S
C1045 C1046 1.434 . S
C1046 C1037 1.429 . S
C1046 N1043 1.350 . S
C1046 C1045 1.434 . S
C1047 C1048 1.369 . S
C1047 C1049 1.419 . S
C1047 H1051 0.930 . S
C1048 C1047 1.369 . S
C1048 C1057 1.429 . S
C1049 C1047 1.419 . S
C1049 C1050 1.363 . S
C1049 H1052 0.929 . S
C1050 C1049 1.363 . S
C1050 C1056 1.428 . S
H1051 C1047 0.930 . S
H1052 C1049 0.929 . S
S1053 N1054 1.613 . S
S1053 N1055 1.610 . S
N1054 S1053 1.613 . S
N1054 C1057 1.350 . S
N1055 S1053 1.610 . S
N1055 C1056 1.351 . S
C1056 C1050 1.428 . S
C1056 N1055 1.351 . S
C1056 C1057 1.434 . S
C1057 C1048 1.429 . S
C1057 N1054 1.350 . S
C1057 C1056 1.434 . S
C1058 C1059 1.369 . S
C1058 C1060 1.419 . S
C1058 H1062 0.930 . S
C1059 C1058 1.369 . S
C1059 C1068 1.429 . S
C1060 C1058 1.419 . S
C1060 C1061 1.363 . S
C1060 H1063 0.929 . S
C1061 C1060 1.363 . S
C1061 C1067 1.428 . S
H1062 C1058 0.930 . S
H1063 C1060 0.929 . S
S1064 N1065 1.613 . S
S1064 N1066 1.610 . S
N1065 S1064 1.613 . S
N1065 C1068 1.350 . S
N1066 S1064 1.610 . S
N1066 C1067 1.351 . S
C1067 C1061 1.428 . S
C1067 N1066 1.351 . S
C1067 C1068 1.434 . S
C1068 C1059 1.429 . S
C1068 N1065 1.350 . S
C1068 C1067 1.434 . S
C1069 C1070 1.369 . S
C1069 C1071 1.419 . S
C1069 H1073 0.930 . S
C1070 C1069 1.369 . S
C1070 C1079 1.429 . S
C1071 C1069 1.419 . S
C1071 C1072 1.363 . S
C1071 H1074 0.929 . S
C1072 C1071 1.363 . S
C1072 C1078 1.428 . S
H1073 C1069 0.930 . S
H1074 C1071 0.929 . S
S1075 N1076 1.613 . S
S1075 N1077 1.610 . S
N1076 S1075 1.613 . S
N1076 C1079 1.350 . S
N1077 S1075 1.610 . S
N1077 C1078 1.351 . S
C1078 C1072 1.428 . S
C1078 N1077 1.351 . S
C1078 C1079 1.434 . S
C1079 C1070 1.429 . S
C1079 N1076 1.350 . S
C1079 C1078 1.434 . S
C1080 C1081 1.369 . S
C1080 C1082 1.419 . S
C1080 H1084 0.930 . S
C1081 C1080 1.369 . S
C1081 C1090 1.429 . S
C1082 C1080 1.419 . S
C1082 C1083 1.363 . S
C1082 H1085 0.929 . S
C1083 C1082 1.363 . S
C1083 C1089 1.428 . S
H1084 C1080 0.930 . S
H1085 C1082 0.929 . S
S1086 N1087 1.613 . S
S1086 N1088 1.610 . S
N1087 S1086 1.613 . S
N1087 C1090 1.350 . S
N1088 S1086 1.610 . S
N1088 C1089 1.351 . S
C1089 C1083 1.428 . S
C1089 N1088 1.351 . S
C1089 C1090 1.434 . S
C1090 C1081 1.429 . S
C1090 N1087 1.350 . S
C1090 C1089 1.434 . S
C1091 C1092 1.369 . S
C1091 C1093 1.419 . S
C1091 H1095 0.930 . S
C1092 C1091 1.369 . S
C1092 C1101 1.429 . S
C1093 C1091 1.419 . S
C1093 C1094 1.363 . S
C1093 H1096 0.929 . S
C1094 C1093 1.363 . S
C1094 C1100 1.428 . S
H1095 C1091 0.930 . S
H1096 C1093 0.929 . S
S1097 N1098 1.613 . S
S1097 N1099 1.610 . S
N1098 S1097 1.613 . S
N1098 C1101 1.350 . S
N1099 S1097 1.610 . S
N1099 C1100 1.351 . S
C1100 C1094 1.428 . S
C1100 N1099 1.351 . S
C1100 C1101 1.434 . S
C1101 C1092 1.429 . S
C1101 N1098 1.350 . S
C1101 C1100 1.434 . S
C1102 C1103 1.369 . S
C1102 C1104 1.419 . S
C1102 H1106 0.930 . S
C1103 C1102 1.369 . S
C1103 C1112 1.429 . S
C1104 C1102 1.419 . S
C1104 C1105 1.363 . S
C1104 H1107 0.929 . S
C1105 C1104 1.363 . S
C1105 C1111 1.428 . S
H1106 C1102 0.930 . S
H1107 C1104 0.929 . S
S1108 N1109 1.613 . S
S1108 N1110 1.610 . S
N1109 S1108 1.613 . S
N1109 C1112 1.350 . S
N1110 S1108 1.610 . S
N1110 C1111 1.351 . S
C1111 C1105 1.428 . S
C1111 N1110 1.351 . S
C1111 C1112 1.434 . S
C1112 C1103 1.429 . S
C1112 N1109 1.350 . S
C1112 C1111 1.434 . S
C1113 C1114 1.369 . S
C1113 C1115 1.419 . S
C1113 H1117 0.930 . S
C1114 C1113 1.369 . S
C1114 C1123 1.429 . S
C1115 C1113 1.419 . S
C1115 C1116 1.363 . S
C1115 H1118 0.929 . S
C1116 C1115 1.363 . S
C1116 C1122 1.428 . S
H1117 C1113 0.930 . S
H1118 C1115 0.929 . S
S1119 N1120 1.613 . S
S1119 N1121 1.610 . S
N1120 S1119 1.613 . S
N1120 C1123 1.350 . S
N1121 S1119 1.610 . S
N1121 C1122 1.351 . S
C1122 C1116 1.428 . S
C1122 N1121 1.351 . S
C1122 C1123 1.434 . S
C1123 C1114 1.429 . S
C1123 N1120 1.350 . S
C1123 C1122 1.434 . S
C599 C283 1.304 . S
C597 N2 1.284 . S
C610 C326 2.407 . S
C608 C7 2.410 . S
C621 C372 1.885 . S
C619 N12 1.722 . S
C630 C16 1.825 . S
C632 C415 1.904 . S
C643 C455 2.549 . S
C641 C30 2.519 1_565 S
C654 C483 1.567 . S
C652 N35 1.535 . S
C663 C39 2.114 . S
C665 C526 2.095 . S
C676 C572 1.188 . S
C674 N25 1.141 . S
C687 C278 1.331 . S
C685 N58 1.293 . S
C696 N81 2.136 . S
C698 C327 2.059 . S
C709 C366 1.509 . S
C707 N104 1.486 . S
C718 N127 1.493 . S
C720 C403 1.380 . S
C731 C443 1.145 1_554 S
C729 N48 1.272 . S
C742 C478 1.492 . S
C740 N71 1.409 1_556 S
C751 N94 1.739 . S
C753 C527 1.678 . S
C764 C566 1.822 . S
C762 N117 1.829 . S
C773 C85 2.676 . S
C775 C295 2.510 . S
C784 C122 2.613 . S
C786 C438 2.575 . S
C795 C53 2.314 . S
C797 C495 2.202 . S
C808 C532 1.497 1_554 S
C806 C76 1.581 . S
C819 C567 2.109 . S
C817 C99 2.117 . S
C830 C367 2.040 . S
C828 C131 2.080 . S
C841 C398 2.141 . S
C839 C62 2.175 . S
C850 C108 1.371 . S
C852 C332 1.323 . S
C863 C563 1.376 . S
C861 N140 1.366 . S
C872 C145 2.404 . S
C874 C446 2.397 . S
C885 C492 1.726 . S
C883 N150 1.545 . S
C894 C154 1.837 . S
C896 C535 1.912 . S
C907 C335 2.561 . S
C905 C168 2.528 . S
C916 N173 1.371 . S
C918 C363 1.418 . S
C929 C406 2.096 . S
C927 C177 2.121 . S
C940 C292 1.236 . S
C938 N163 1.158 . S
C951 C558 1.756 . S
C949 C200 1.731 . S
C962 C447 2.322 . S
C960 N219 2.396 . S
C971 N242 1.767 . S
C973 C486 1.765 . S
C984 C523 1.580 . S
C982 C269 1.725 . S
C995 C323 1.387 . S
C993 C191 1.506 . S
C1004 N209 1.657 . S
C1006 C358 1.748 . S
C1015 N232 2.011 . S
C1017 C407 1.949 . S
C1026 C260 2.436 . S
C1028 C286 2.349 . S
C1037 C223 2.386 . S
C1039 C575 2.222 . S
C1048 N255 2.203 . S
C1050 C318 2.165 . S
C1059 N186 1.922 . S
C1061 C375 1.791 . S
C1072 C412 1.239 . S
C1070 C214 1.322 . S
C1083 C287 1.814 . S
C1081 C237 1.819 . S
C1094 C487 1.714 . S
C1092 N265 1.601 . S
C1105 C518 1.764 . S
C1103 N196 1.778 . S
C1116 C452 1.080 . S
C1114 C246 1.117 . S
