# Generated by pormake.
# Topology ibd, (4,6)-cn, num edge types: 1
# Building blocks:
#     Node 0, Type 0, BuildingBlock: NAHDIM_clean_sbu_0, # of connection points: 4
#     Node 1, Type 0, BuildingBlock: NAHDIM_clean_sbu_0, # of connection points: 4
#     Node 2, Type 0, BuildingBlock: NAHDIM_clean_sbu_0, # of connection points: 4
#     Node 3, Type 0, BuildingBlock: NAHDIM_clean_sbu_0, # of connection points: 4
#     Node 4, Type 0, BuildingBlock: NAHDIM_clean_sbu_0, # of connection points: 4
#     Node 5, Type 0, BuildingBlock: NAHDIM_clean_sbu_0, # of connection points: 4
#     Node 6, Type 0, BuildingBlock: NAHDIM_clean_sbu_0, # of connection points: 4
#     Node 7, Type 0, BuildingBlock: NAHDIM_clean_sbu_0, # of connection points: 4
#     Node 8, Type 0, BuildingBlock: NAHDIM_clean_sbu_0, # of connection points: 4
#     Node 9, Type 0, BuildingBlock: NAHDIM_clean_sbu_0, # of connection points: 4
#     Node 10, Type 0, BuildingBlock: NAHDIM_clean_sbu_0, # of connection points: 4
#     Node 11, Type 0, BuildingBlock: NAHDIM_clean_sbu_0, # of connection points: 4
#     Node 12, Type 0, BuildingBlock: NAHDIM_clean_sbu_0, # of connection points: 4
#     Node 13, Type 0, BuildingBlock: NAHDIM_clean_sbu_0, # of connection points: 4
#     Node 14, Type 0, BuildingBlock: NAHDIM_clean_sbu_0, # of connection points: 4
#     Node 15, Type 0, BuildingBlock: NAHDIM_clean_sbu_0, # of connection points: 4
#     Node 16, Type 0, BuildingBlock: NAHDIM_clean_sbu_0, # of connection points: 4
#     Node 17, Type 0, BuildingBlock: NAHDIM_clean_sbu_0, # of connection points: 4
#     Node 18, Type 0, BuildingBlock: NAHDIM_clean_sbu_0, # of connection points: 4
#     Node 19, Type 0, BuildingBlock: NAHDIM_clean_sbu_0, # of connection points: 4
#     Node 20, Type 0, BuildingBlock: NAHDIM_clean_sbu_0, # of connection points: 4
#     Node 21, Type 0, BuildingBlock: NAHDIM_clean_sbu_0, # of connection points: 4
#     Node 22, Type 0, BuildingBlock: NAHDIM_clean_sbu_0, # of connection points: 4
#     Node 23, Type 0, BuildingBlock: NAHDIM_clean_sbu_0, # of connection points: 4
#     Node 24, Type 1, BuildingBlock: IZENUY_clean_sbu_0, # of connection points: 6
#     Node 25, Type 1, BuildingBlock: IZENUY_clean_sbu_0, # of connection points: 6
#     Node 26, Type 1, BuildingBlock: IZENUY_clean_sbu_0, # of connection points: 6
#     Node 27, Type 1, BuildingBlock: IZENUY_clean_sbu_0, # of connection points: 6
#     Node 28, Type 1, BuildingBlock: IZENUY_clean_sbu_0, # of connection points: 6
#     Node 29, Type 1, BuildingBlock: IZENUY_clean_sbu_0, # of connection points: 6
#     Node 30, Type 1, BuildingBlock: IZENUY_clean_sbu_0, # of connection points: 6
#     Node 31, Type 1, BuildingBlock: IZENUY_clean_sbu_0, # of connection points: 6
#     Node 32, Type 1, BuildingBlock: IZENUY_clean_sbu_0, # of connection points: 6
#     Node 33, Type 1, BuildingBlock: IZENUY_clean_sbu_0, # of connection points: 6
#     Node 34, Type 1, BuildingBlock: IZENUY_clean_sbu_0, # of connection points: 6
#     Node 35, Type 1, BuildingBlock: IZENUY_clean_sbu_0, # of connection points: 6
#     Node 36, Type 1, BuildingBlock: IZENUY_clean_sbu_0, # of connection points: 6
#     Node 37, Type 1, BuildingBlock: IZENUY_clean_sbu_0, # of connection points: 6
#     Node 38, Type 1, BuildingBlock: IZENUY_clean_sbu_0, # of connection points: 6
#     Node 39, Type 1, BuildingBlock: IZENUY_clean_sbu_0, # of connection points: 6
#     Edge 40, Type (0, 1), BuildingBlock: XIVTED_clean_linker_0, # of connection points: 2
#     Edge 41, Type (0, 1), BuildingBlock: XIVTED_clean_linker_0, # of connection points: 2
#     Edge 42, Type (0, 1), BuildingBlock: XIVTED_clean_linker_0, # of connection points: 2
#     Edge 43, Type (0, 1), BuildingBlock: XIVTED_clean_linker_0, # of connection points: 2
#     Edge 44, Type (0, 1), BuildingBlock: XIVTED_clean_linker_0, # of connection points: 2
#     Edge 45, Type (0, 1), BuildingBlock: XIVTED_clean_linker_0, # of connection points: 2
#     Edge 46, Type (0, 1), BuildingBlock: XIVTED_clean_linker_0, # of connection points: 2
#     Edge 47, Type (0, 1), BuildingBlock: XIVTED_clean_linker_0, # of connection points: 2
#     Edge 48, Type (0, 1), BuildingBlock: XIVTED_clean_linker_0, # of connection points: 2
#     Edge 49, Type (0, 1), BuildingBlock: XIVTED_clean_linker_0, # of connection points: 2
#     Edge 50, Type (0, 1), BuildingBlock: XIVTED_clean_linker_0, # of connection points: 2
#     Edge 51, Type (0, 1), BuildingBlock: XIVTED_clean_linker_0, # of connection points: 2
#     Edge 52, Type (0, 1), BuildingBlock: XIVTED_clean_linker_0, # of connection points: 2
#     Edge 53, Type (0, 1), BuildingBlock: XIVTED_clean_linker_0, # of connection points: 2
#     Edge 54, Type (0, 1), BuildingBlock: XIVTED_clean_linker_0, # of connection points: 2
#     Edge 55, Type (0, 1), BuildingBlock: XIVTED_clean_linker_0, # of connection points: 2
#     Edge 56, Type (0, 1), BuildingBlock: XIVTED_clean_linker_0, # of connection points: 2
#     Edge 57, Type (0, 1), BuildingBlock: XIVTED_clean_linker_0, # of connection points: 2
#     Edge 58, Type (0, 1), BuildingBlock: XIVTED_clean_linker_0, # of connection points: 2
#     Edge 59, Type (0, 1), BuildingBlock: XIVTED_clean_linker_0, # of connection points: 2
#     Edge 60, Type (0, 1), BuildingBlock: XIVTED_clean_linker_0, # of connection points: 2
#     Edge 61, Type (0, 1), BuildingBlock: XIVTED_clean_linker_0, # of connection points: 2
#     Edge 62, Type (0, 1), BuildingBlock: XIVTED_clean_linker_0, # of connection points: 2
#     Edge 63, Type (0, 1), BuildingBlock: XIVTED_clean_linker_0, # of connection points: 2
#     Edge 64, Type (0, 1), BuildingBlock: XIVTED_clean_linker_0, # of connection points: 2
#     Edge 65, Type (0, 1), BuildingBlock: XIVTED_clean_linker_0, # of connection points: 2
#     Edge 66, Type (0, 1), BuildingBlock: XIVTED_clean_linker_0, # of connection points: 2
#     Edge 67, Type (0, 1), BuildingBlock: XIVTED_clean_linker_0, # of connection points: 2
#     Edge 68, Type (0, 1), BuildingBlock: XIVTED_clean_linker_0, # of connection points: 2
#     Edge 69, Type (0, 1), BuildingBlock: XIVTED_clean_linker_0, # of connection points: 2
#     Edge 70, Type (0, 1), BuildingBlock: XIVTED_clean_linker_0, # of connection points: 2
#     Edge 71, Type (0, 1), BuildingBlock: XIVTED_clean_linker_0, # of connection points: 2
#     Edge 72, Type (0, 1), BuildingBlock: XIVTED_clean_linker_0, # of connection points: 2
#     Edge 73, Type (0, 1), BuildingBlock: XIVTED_clean_linker_0, # of connection points: 2
#     Edge 74, Type (0, 1), BuildingBlock: XIVTED_clean_linker_0, # of connection points: 2
#     Edge 75, Type (0, 1), BuildingBlock: XIVTED_clean_linker_0, # of connection points: 2
#     Edge 76, Type (0, 1), BuildingBlock: XIVTED_clean_linker_0, # of connection points: 2
#     Edge 77, Type (0, 1), BuildingBlock: XIVTED_clean_linker_0, # of connection points: 2
#     Edge 78, Type (0, 1), BuildingBlock: XIVTED_clean_linker_0, # of connection points: 2
#     Edge 79, Type (0, 1), BuildingBlock: XIVTED_clean_linker_0, # of connection points: 2
#     Edge 80, Type (0, 1), BuildingBlock: XIVTED_clean_linker_0, # of connection points: 2
#     Edge 81, Type (0, 1), BuildingBlock: XIVTED_clean_linker_0, # of connection points: 2
#     Edge 82, Type (0, 1), BuildingBlock: XIVTED_clean_linker_0, # of connection points: 2
#     Edge 83, Type (0, 1), BuildingBlock: XIVTED_clean_linker_0, # of connection points: 2
#     Edge 84, Type (0, 1), BuildingBlock: XIVTED_clean_linker_0, # of connection points: 2
#     Edge 85, Type (0, 1), BuildingBlock: XIVTED_clean_linker_0, # of connection points: 2
#     Edge 86, Type (0, 1), BuildingBlock: XIVTED_clean_linker_0, # of connection points: 2
#     Edge 87, Type (0, 1), BuildingBlock: XIVTED_clean_linker_0, # of connection points: 2
#     Edge 88, Type (0, 1), BuildingBlock: XIVTED_clean_linker_0, # of connection points: 2
#     Edge 89, Type (0, 1), BuildingBlock: XIVTED_clean_linker_0, # of connection points: 2
#     Edge 90, Type (0, 1), BuildingBlock: XIVTED_clean_linker_0, # of connection points: 2
#     Edge 91, Type (0, 1), BuildingBlock: XIVTED_clean_linker_0, # of connection points: 2
#     Edge 92, Type (0, 1), BuildingBlock: XIVTED_clean_linker_0, # of connection points: 2
#     Edge 93, Type (0, 1), BuildingBlock: XIVTED_clean_linker_0, # of connection points: 2
#     Edge 94, Type (0, 1), BuildingBlock: XIVTED_clean_linker_0, # of connection points: 2
#     Edge 95, Type (0, 1), BuildingBlock: XIVTED_clean_linker_0, # of connection points: 2
#     Edge 96, Type (0, 1), BuildingBlock: XIVTED_clean_linker_0, # of connection points: 2
#     Edge 97, Type (0, 1), BuildingBlock: XIVTED_clean_linker_0, # of connection points: 2
#     Edge 98, Type (0, 1), BuildingBlock: XIVTED_clean_linker_0, # of connection points: 2
#     Edge 99, Type (0, 1), BuildingBlock: XIVTED_clean_linker_0, # of connection points: 2
#     Edge 100, Type (0, 1), BuildingBlock: XIVTED_clean_linker_0, # of connection points: 2
#     Edge 101, Type (0, 1), BuildingBlock: XIVTED_clean_linker_0, # of connection points: 2
#     Edge 102, Type (0, 1), BuildingBlock: XIVTED_clean_linker_0, # of connection points: 2
#     Edge 103, Type (0, 1), BuildingBlock: XIVTED_clean_linker_0, # of connection points: 2
#     Edge 104, Type (0, 1), BuildingBlock: XIVTED_clean_linker_0, # of connection points: 2
#     Edge 105, Type (0, 1), BuildingBlock: XIVTED_clean_linker_0, # of connection points: 2
#     Edge 106, Type (0, 1), BuildingBlock: XIVTED_clean_linker_0, # of connection points: 2
#     Edge 107, Type (0, 1), BuildingBlock: XIVTED_clean_linker_0, # of connection points: 2
#     Edge 108, Type (0, 1), BuildingBlock: XIVTED_clean_linker_0, # of connection points: 2
#     Edge 109, Type (0, 1), BuildingBlock: XIVTED_clean_linker_0, # of connection points: 2
#     Edge 110, Type (0, 1), BuildingBlock: XIVTED_clean_linker_0, # of connection points: 2
#     Edge 111, Type (0, 1), BuildingBlock: XIVTED_clean_linker_0, # of connection points: 2
#     Edge 112, Type (0, 1), BuildingBlock: XIVTED_clean_linker_0, # of connection points: 2
#     Edge 113, Type (0, 1), BuildingBlock: XIVTED_clean_linker_0, # of connection points: 2
#     Edge 114, Type (0, 1), BuildingBlock: XIVTED_clean_linker_0, # of connection points: 2
#     Edge 115, Type (0, 1), BuildingBlock: XIVTED_clean_linker_0, # of connection points: 2
#     Edge 116, Type (0, 1), BuildingBlock: XIVTED_clean_linker_0, # of connection points: 2
#     Edge 117, Type (0, 1), BuildingBlock: XIVTED_clean_linker_0, # of connection points: 2
#     Edge 118, Type (0, 1), BuildingBlock: XIVTED_clean_linker_0, # of connection points: 2
#     Edge 119, Type (0, 1), BuildingBlock: XIVTED_clean_linker_0, # of connection points: 2
#     Edge 120, Type (0, 1), BuildingBlock: XIVTED_clean_linker_0, # of connection points: 2
#     Edge 121, Type (0, 1), BuildingBlock: XIVTED_clean_linker_0, # of connection points: 2
#     Edge 122, Type (0, 1), BuildingBlock: XIVTED_clean_linker_0, # of connection points: 2
#     Edge 123, Type (0, 1), BuildingBlock: XIVTED_clean_linker_0, # of connection points: 2
#     Edge 124, Type (0, 1), BuildingBlock: XIVTED_clean_linker_0, # of connection points: 2
#     Edge 125, Type (0, 1), BuildingBlock: XIVTED_clean_linker_0, # of connection points: 2
#     Edge 126, Type (0, 1), BuildingBlock: XIVTED_clean_linker_0, # of connection points: 2
#     Edge 127, Type (0, 1), BuildingBlock: XIVTED_clean_linker_0, # of connection points: 2
#     Edge 128, Type (0, 1), BuildingBlock: XIVTED_clean_linker_0, # of connection points: 2
#     Edge 129, Type (0, 1), BuildingBlock: XIVTED_clean_linker_0, # of connection points: 2
#     Edge 130, Type (0, 1), BuildingBlock: XIVTED_clean_linker_0, # of connection points: 2
#     Edge 131, Type (0, 1), BuildingBlock: XIVTED_clean_linker_0, # of connection points: 2
#     Edge 132, Type (0, 1), BuildingBlock: XIVTED_clean_linker_0, # of connection points: 2
#     Edge 133, Type (0, 1), BuildingBlock: XIVTED_clean_linker_0, # of connection points: 2
#     Edge 134, Type (0, 1), BuildingBlock: XIVTED_clean_linker_0, # of connection points: 2
#     Edge 135, Type (0, 1), BuildingBlock: XIVTED_clean_linker_0, # of connection points: 2
# Relax obj value: 0.317
# Max RMSD: 0.299
# Mean RMSD: 0.268
data_MOF--net-ibd--node1-NAHDIM_clean_sbu_0--node2-IZENUY_clean_sbu_0--edge1-XIVTED_clean_linker_0
_symmetry_space_group_name_H-M    P1
_symmetry_Int_Tables_number       1
_symmetry_cell_setting            triclinic
loop_
_symmetry_equiv_pos_as_xyz
'x, y, z'
_cell_length_a     48.586486
_cell_length_b     48.525056
_cell_length_c     48.569486
_cell_angle_alpha  90.720804
_cell_angle_beta   90.830415
_cell_angle_gamma 91.47909
loop_
_atom_site_label
_atom_site_type_symbol
_atom_site_fract_x
_atom_site_fract_y
_atom_site_fract_z
_atom_type_partial_charge
C0 C 0.01793 0.20286 0.36163 0.0
O1 O 0.02675 0.21598 0.38398 0.0
O2 O 0.98231 0.25169 0.40129 0.0
Zn3 Zn 0.96408 0.2226 0.37729 0.0
O4 O 0.93769 0.24051 0.35139 0.0
C5 C 0.92136 0.20442 0.41268 0.0
O6 O 0.90902 0.22548 0.40166 0.0
O7 O 0.99238 0.20232 0.35548 0.0
C8 C 0.92359 0.22659 0.33364 0.0
O9 O 0.92584 0.19967 0.33263 0.0
C10 C -0.00042 0.27039 0.39451 0.0
O11 O 0.007 0.27247 0.3687 0.0
O12 O 0.94469 0.19763 0.4037 0.0
C13 C 0.04839 0.71165 0.6554 0.0
O14 O 0.03983 0.69685 0.63398 0.0
O15 O 0.99438 0.72169 0.61025 0.0
Zn16 Zn 0.0106 0.75184 0.63437 0.0
O17 O 0.98288 0.76621 0.66086 0.0
C18 C 0.01042 0.78932 0.59008 0.0
O19 O 0.98706 0.77583 0.58499 0.0
O20 O 0.04022 0.73618 0.65825 0.0
C21 C 0.97138 0.78936 0.65928 0.0
O22 O 0.97586 0.80498 0.63786 0.0
C23 C 0.97175 0.70877 0.61416 0.0
O24 O 0.95646 0.7155 0.63516 0.0
O25 O 0.02506 0.78254 0.6107 0.0
C26 C 0.5512 0.72596 0.8649 0.0
O27 O 0.55651 0.75019 0.87632 0.0
O28 O 0.5106 0.76143 0.9143 0.0
Zn29 Zn 0.49638 0.73272 0.88721 0.0
O30 O 0.47107 0.7479 0.8584 0.0
C31 C 0.45025 0.70324 0.91159 0.0
O32 O 0.43533 0.71745 0.89435 0.0
O33 O 0.52757 0.71454 0.86773 0.0
C34 C 0.45621 0.7689 0.86104 0.0
O35 O 0.45688 0.78296 0.88434 0.0
C36 C 0.52054 0.78567 0.91138 0.0
O37 O 0.52263 0.79619 0.88668 0.0
O38 O 0.47634 0.70522 0.91058 0.0
C39 C 0.54752 0.21413 0.15466 0.0
O40 O 0.53967 0.19875 0.13338 0.0
O41 O 0.48782 0.21902 0.11444 0.0
Zn42 Zn 0.50568 0.25098 0.13498 0.0
O43 O 0.47995 0.26888 0.1614 0.0
C44 C 0.49974 0.28893 0.09176 0.0
O45 O 0.47395 0.28074 0.09455 0.0
O46 O 0.537 0.23759 0.15809 0.0
C47 C 0.48432 0.29427 0.16706 0.0
O48 O 0.50411 0.30776 0.15443 0.0
C49 C 0.46239 0.21232 0.11452 0.0
O50 O 0.44551 0.22664 0.1296 0.0
O51 O 0.51814 0.2787 0.10714 0.0
C52 C 0.02652 0.71395 0.09767 0.0
O53 O 0.0008 0.72072 0.10133 0.0
O54 O 0.06278 0.77624 0.15713 0.0
Zn55 Zn 0.03274 0.7593 0.13311 0.0
O56 O 0.01672 0.78792 0.10858 0.0
C57 C -0.00012 0.75545 0.18134 0.0
O58 O 0.01171 0.77959 0.1868 0.0
O59 O 0.0456 0.72815 0.10968 0.0
C60 C 0.99429 0.80015 0.11256 0.0
O61 O 0.97928 0.79379 0.13394 0.0
C62 C 0.06988 0.80157 0.15568 0.0
O63 O 0.0604 0.81622 0.13524 0.0
O64 O 0.00472 0.7434 0.15864 0.0
C65 C 0.56797 0.71953 0.4058 0.0
O66 O 0.58507 0.72816 0.38687 0.0
O67 O 0.49998 0.74967 0.35873 0.0
Zn68 Zn 0.53196 0.76052 0.38325 0.0
O69 O 0.52041 0.78992 0.40976 0.0
C70 C 0.58103 0.79128 0.36382 0.0
O71 O 0.58026 0.80612 0.38659 0.0
O72 O 0.54393 0.72917 0.4066 0.0
C73 C 0.49826 0.80294 0.40654 0.0
O74 O 0.48412 0.79977 0.38341 0.0
C75 C 0.48073 0.73268 0.36466 0.0
O76 O 0.48143 0.71988 0.38832 0.0
O77 O 0.56281 0.77254 0.3591 0.0
C78 C 0.52138 0.19935 0.60162 0.0
O79 O 0.5324 0.19876 0.62646 0.0
O80 O 0.52153 0.25647 0.65011 0.0
Zn81 Zn 0.49117 0.24501 0.62368 0.0
O82 O 0.4758 0.27783 0.60396 0.0
C83 C 0.45547 0.24015 0.66845 0.0
O84 O 0.4644 0.26578 0.67192 0.0
O85 O 0.50383 0.21746 0.59597 0.0
C86 C 0.48407 0.30271 0.60778 0.0
O87 O 0.50299 0.30868 0.6266 0.0
C88 C 0.54417 0.26947 0.64645 0.0
O89 O 0.55121 0.27688 0.62154 0.0
O90 O 0.46272 0.22685 0.6472 0.0
C91 C 0.08958 0.26976 0.92361 0.0
O92 O 0.10485 0.29113 0.91639 0.0
O93 O 0.02131 0.27588 0.86255 0.0
Zn94 Zn 0.04987 0.29393 0.88737 0.0
O95 O 0.03113 0.32187 0.91098 0.0
C96 C 0.09196 0.29188 0.84919 0.0
O97 O 0.08686 0.2656 0.85365 0.0
O98 O 0.06567 0.26628 0.91302 0.0
C99 C 0.00733 0.3304 0.90475 0.0
O100 O -0.00336 0.32421 0.88039 0.0
C101 C 0.00521 0.25613 0.86922 0.0
O102 O 0.00746 0.24533 0.89378 0.0
O103 O 0.07897 0.3097 0.86292 0.0
C104 C 0.40846 0.90169 0.2204 0.0
O105 O 0.40236 0.88667 0.2419 0.0
O106 O 0.34993 0.91184 0.26482 0.0
Zn107 Zn 0.37543 0.94011 0.24847 0.0
O108 O 0.4031 0.9549 0.27635 0.0
C109 C 0.33024 0.97642 0.24755 0.0
O110 O 0.324 0.9625 0.26972 0.0
O111 O 0.39742 0.92493 0.21772 0.0
C112 C 0.39928 0.97477 0.293 0.0
O113 O 0.37529 0.9866 0.29334 0.0
C114 C 0.35103 0.90545 0.29008 0.0
O115 O 0.3724 0.91382 0.30512 0.0
O116 O 0.35204 0.97081 0.23467 0.0
C117 C 0.35417 0.09293 0.51108 0.0
O118 O 0.35166 0.09232 0.4841 0.0
O119 O 0.34029 0.15641 0.47291 0.0
Zn120 Zn 0.31924 0.13728 0.50276 0.0
O121 O 0.28754 0.11343 0.48836 0.0
C122 C 0.28688 0.16366 0.54496 0.0
O123 O 0.27783 0.1385 0.54999 0.0
O124 O 0.34317 0.11233 0.52444 0.0
C125 C 0.26334 0.12117 0.48266 0.0
O126 O 0.25748 0.1474 0.48456 0.0
C127 C 0.3279 0.16513 0.45164 0.0
O128 O 0.30197 0.15789 0.44734 0.0
O129 O 0.30485 0.16739 0.52658 0.0
C130 C 0.15003 0.96891 0.71445 0.0
O131 O 0.14161 0.96665 0.73989 0.0
O132 O 0.1031 0.01348 0.74975 0.0
Zn133 Zn 0.12716 0.02365 0.71793 0.0
O134 O 0.15717 0.04982 0.73108 0.0
C135 C 0.10409 0.06612 0.68304 0.0
O136 O 0.12483 0.08181 0.69204 0.0
O137 O 0.14502 0.99065 0.70116 0.0
C138 C 0.15362 0.06815 0.7495 0.0
O139 O 0.12899 0.07123 0.75973 0.0
C140 C 0.11078 0.0089 0.77437 0.0
O141 O 0.13712 0.00951 0.78092 0.0
O142 O 0.1024 0.0411 0.69033 0.0
C143 C 0.23727 0.85997 0.05003 0.0
O144 O 0.25098 0.88309 0.04539 0.0
O145 O 0.24213 0.89322 0.98676 0.0
Zn146 Zn 0.20826 0.87334 -0.00019 0.0
O147 O 0.1944 0.84603 0.97141 0.0
C148 C 0.17865 0.92287 0.99359 0.0
O149 O 0.19232 0.92373 0.97047 0.0
O150 O 0.21782 0.85232 0.03368 0.0
C151 C 0.16913 0.84146 0.96562 0.0
O152 O 0.15044 0.8563 0.9777 0.0
C153 C 0.25038 0.89268 0.96208 0.0
O154 O 0.23703 0.87717 0.94369 0.0
O155 O 0.18086 0.90203 0.00897 0.0
C156 C 0.22513 0.38484 0.98388 0.0
O157 O 0.23693 0.36737 0.9672 0.0
O158 O 0.28493 0.3478 0.99187 0.0
Zn159 Zn 0.27078 0.37313 0.0208 0.0
O160 O 0.29646 0.40537 0.02801 0.0
C161 C 0.28077 0.33301 0.06254 0.0
O162 O 0.30236 0.32818 0.0474 0.0
O163 O 0.23534 0.38921 0.00781 0.0
C164 C 0.31438 0.40694 0.04728 0.0
O165 O 0.31818 0.38555 0.06304 0.0
C166 C 0.30918 0.34854 0.9825 0.0
O167 O 0.32706 0.36729 0.99183 0.0
O168 O 0.26441 0.35174 0.05537 0.0
C169 C 0.65418 0.14788 0.9381 0.0
O170 O 0.63856 0.13654 0.95692 0.0
O171 O 0.72596 0.09405 0.95294 0.0
Zn172 Zn 0.69532 0.11746 0.96603 0.0
O173 O 0.71087 0.14371 0.99475 0.0
C174 C 0.65748 0.09555 0.00637 0.0
O175 O 0.66276 0.11904 0.01937 0.0
O176 O 0.67914 0.14091 0.9365 0.0
C177 C 0.731 0.13824 0.01055 0.0
O178 O 0.74197 0.11381 0.0091 0.0
C179 C 0.74841 0.10234 0.94239 0.0
O180 O 0.75223 0.1286 0.93696 0.0
O181 O 0.66775 0.09148 0.98281 0.0
C182 C 0.08261 0.46183 0.29644 0.0
O183 O 0.07442 0.43825 0.28507 0.0
O184 O 0.15689 0.43876 0.26458 0.0
Zn185 Zn 0.12478 0.46147 0.25443 0.0
O186 O 0.09919 0.44065 0.22862 0.0
C187 C 0.15295 0.51234 0.25348 0.0
O188 O 0.15363 0.50683 0.2799 0.0
O189 O 0.10393 0.47418 0.28744 0.0
C190 C 0.08401 0.45406 0.21239 0.0
O191 O 0.08648 0.48108 0.21219 0.0
C192 C 0.1587 0.42352 0.28551 0.0
O193 O 0.13761 0.42092 0.30198 0.0
O194 O 0.14065 0.49542 0.23702 0.0
C195 C 0.75107 0.89609 0.47616 0.0
O196 O 0.75687 0.87278 0.46377 0.0
O197 O 0.81527 0.86161 0.48484 0.0
Zn198 Zn 0.7976 0.8852 0.51342 0.0
O199 O 0.82268 0.91547 0.52847 0.0
C200 C 0.79753 0.84113 0.5529 0.0
O201 O 0.82206 0.83676 0.54296 0.0
O202 O 0.7654 0.9043 0.4969 0.0
C203 C 0.83176 0.91636 0.55312 0.0
O204 O 0.82732 0.89515 0.56912 0.0
C205 C 0.84092 0.85735 0.48375 0.0
O206 O 0.85776 0.87017 0.50133 0.0
O207 O 0.78362 0.86091 0.54365 0.0
C208 C 0.85841 0.10179 0.27504 0.0
O209 O 0.88044 0.09606 0.28965 0.0
O210 O 0.91119 0.0555 0.25861 0.0
Zn211 Zn 0.8824 0.06815 0.23177 0.0
O212 O 0.85918 0.03566 0.21873 0.0
C213 C 0.89998 0.08154 0.17546 0.0
O214 O 0.8839 0.06103 0.16667 0.0
O215 O 0.8563 0.09334 0.25023 0.0
C216 C 0.86604 0.01415 0.20562 0.0
O217 O 0.89166 0.01128 0.19804 0.0
C218 C 0.90547 0.03761 0.27668 0.0
O219 O 0.88021 0.02743 0.27793 0.0
O220 O 0.90128 0.08764 0.20097 0.0
C221 C 0.16901 0.66915 0.45189 0.0
O222 O 0.14998 0.65495 0.46491 0.0
O223 O 0.23811 0.61444 0.47253 0.0
Zn224 Zn 0.20483 0.6352 0.48338 0.0
O225 O 0.21459 0.65636 0.51811 0.0
C226 C 0.15821 0.60656 0.50887 0.0
O227 O 0.15848 0.62748 0.52632 0.0
O228 O 0.1941 0.6631 0.45528 0.0
C229 C 0.2338 0.64898 0.53424 0.0
O230 O 0.24576 0.62543 0.52961 0.0
C231 C 0.2548 0.61902 0.45316 0.0
O232 O 0.25086 0.63976 0.43655 0.0
O233 O 0.17512 0.60658 0.48919 0.0
C234 C 0.34175 0.58932 0.76532 0.0
O235 O 0.36383 0.58422 0.78013 0.0
O236 O 0.39541 0.54392 0.75074 0.0
Zn237 Zn 0.36921 0.55872 0.72248 0.0
O238 O 0.3487 0.52722 0.70361 0.0
C239 C 0.4068 0.56547 0.67994 0.0
O240 O 0.40391 0.53848 0.6805 0.0
O241 O 0.34067 0.58183 0.74017 0.0
C242 C 0.33761 0.52992 0.67999 0.0
O243 O 0.34076 0.5534 0.66709 0.0
C244 C 0.38984 0.52325 0.76562 0.0
O245 O 0.36549 0.51096 0.76326 0.0
O246 O 0.39223 0.5799 0.69581 0.0
C247 C 0.58642 0.97637 0.82082 0.0
O248 O 0.5836 0.95056 0.81252 0.0
O249 O 0.65403 0.95048 0.79238 0.0
Zn250 Zn 0.628 0.97876 0.77933 0.0
O251 O 0.60324 0.9639 0.74891 0.0
C252 C 0.66838 0.0215 0.7832 0.0
O253 O 0.67094 0.01097 0.80787 0.0
O254 O 0.60471 0.99177 0.81006 0.0
C255 C 0.59909 0.93818 0.745 0.0
O256 O 0.6121 0.92068 0.7606 0.0
C257 C 0.67227 0.94269 0.77575 0.0
O258 O 0.67211 0.95223 0.75055 0.0
O259 O 0.6505 0.01107 0.76649 0.0
C260 C 0.83442 0.58634 -0.00129 0.0
O261 O 0.83951 0.58675 0.97222 0.0
O262 O 0.81855 0.64413 0.95539 0.0
Zn263 Zn 0.79435 0.62553 0.98311 0.0
O264 O 0.76461 0.60048 0.96647 0.0
C265 C 0.77057 0.65392 0.02979 0.0
O266 O 0.77123 0.62983 0.04179 0.0
O267 O 0.81658 0.60234 0.00833 0.0
C268 C 0.74058 0.60704 0.95868 0.0
O269 O 0.7334 0.63293 0.95988 0.0
C270 C 0.80749 0.65707 0.93573 0.0
O271 O 0.78079 0.6543 0.93161 0.0
O272 O 0.77839 0.65614 0.00508 0.0
C273 C 0.89703 0.39758 0.7122 0.0
O274 O 0.88888 0.37933 0.73031 0.0
O275 O 0.83894 0.40906 0.75788 0.0
Zn276 Zn 0.86862 0.43589 0.74684 0.0
O277 O 0.89612 0.4444 0.77733 0.0
C278 C 0.8287 0.47814 0.74789 0.0
O279 O 0.81875 0.46289 0.76776 0.0
O280 O 0.88964 0.42235 0.71475 0.0
C281 C 0.89144 0.46006 0.7978 0.0
O282 O 0.86686 0.47025 0.8006 0.0
C283 C 0.83794 0.39769 0.78125 0.0
O284 O 0.85894 0.40086 0.79843 0.0
O285 O 0.85036 0.47078 0.73576 0.0
C286 C 0.73381 0.34823 0.555 0.0
O287 O 0.70699 0.34795 0.55107 0.0
O288 O 0.76246 0.39925 0.48565 0.0
Zn289 Zn 0.733 0.37696 0.50402 0.0
O290 O 0.71809 0.34706 0.47891 0.0
C291 C 0.69565 0.4219 0.50132 0.0
O292 O 0.70445 0.42362 0.47594 0.0
O293 O 0.74926 0.35966 0.53737 0.0
C294 C 0.69272 0.34337 0.47295 0.0
O295 O 0.67469 0.36033 0.48305 0.0
C296 C 0.76455 0.40141 0.45973 0.0
O297 O 0.74719 0.38759 0.44343 0.0
O298 O 0.7041 0.40267 0.51652 0.0
C299 C 0.65947 0.49015 0.21745 0.0
O300 O 0.65354 0.4872 0.24356 0.0
O301 O 0.61283 0.52529 0.25774 0.0
Zn302 Zn 0.63463 0.5421 0.22717 0.0
O303 O 0.66278 0.56794 0.24434 0.0
C304 C 0.58888 0.54794 0.19215 0.0
O305 O 0.58915 0.521 0.19446 0.0
O306 O 0.6532 0.51233 0.2055 0.0
C307 C 0.68285 0.57836 0.23126 0.0
O308 O 0.68518 0.57276 0.20488 0.0
C309 C 0.59721 0.54045 0.27179 0.0
O310 O 0.5959 0.56678 0.26606 0.0
O311 O 0.60807 0.56239 0.2036 0.0
Fe312 Fe 0.13497 0.1062 0.15894 0.0
Fe313 Fe 0.13091 0.16815 0.14992 0.0
O314 O 0.14793 0.13691 0.14415 0.0
Fe315 Fe 0.17755 0.13616 0.12335 0.0
O316 O 0.16121 0.11151 0.09947 0.0
O317 O 0.14617 0.08346 0.13122 0.0
O318 O 0.10261 0.10874 0.14019 0.0
C319 C 0.08736 0.12934 0.14146 0.0
C320 C 0.19005 0.10052 0.16745 0.0
O321 O 0.09645 0.15203 0.15157 0.0
C322 C 0.18757 0.18465 0.15097 0.0
O323 O 0.12113 0.1232 0.18947 0.0
O324 O 0.1361 0.1661 0.18696 0.0
O325 O 0.19399 0.10891 0.14315 0.0
O326 O 0.16666 0.10193 0.1783 0.0
C327 C 0.14242 0.17212 0.09511 0.0
O328 O 0.16225 0.1899 0.14878 0.0
O329 O 0.19597 0.16085 0.14553 0.0
C330 C 0.12676 0.14628 0.20091 0.0
O331 O 0.12437 0.17201 0.11347 0.0
O332 O 0.16629 0.1633 0.09995 0.0
C333 C 0.15104 0.08849 0.10628 0.0
Fe334 Fe 0.08037 0.89817 0.38924 0.0
Fe335 Fe 0.11726 0.94388 0.36536 0.0
O336 O 0.11076 0.91899 0.39099 0.0
Fe337 Fe 0.13507 0.91433 0.41789 0.0
O338 O 0.13988 0.87877 0.40764 0.0
O339 O 0.09592 0.8676 0.40425 0.0
O340 O 0.08975 0.88431 0.35605 0.0
C341 C 0.09541 0.89839 0.33518 0.0
C342 C 0.08343 0.90752 0.44441 0.0
O343 O 0.09986 0.92414 0.33734 0.0
C344 C 0.13699 0.97023 0.4148 0.0
O345 O 0.05929 0.92491 0.37368 0.0
O346 O 0.08621 0.96204 0.37347 0.0
O347 O 0.10923 0.9045 0.44338 0.0
O348 O 0.06938 0.9104 0.42262 0.0
C349 C 0.16802 0.92134 0.37138 0.0
O350 O 0.13612 0.96805 0.38875 0.0
O351 O 0.13206 0.94961 0.42967 0.0
C352 C 0.06246 0.95089 0.37253 0.0
O353 O 0.1484 0.92697 0.35536 0.0
O354 O 0.16529 0.923 0.39719 0.0
C355 C 0.12085 0.86072 0.40547 0.0
Fe356 Fe 0.37154 0.88494 0.65555 0.0
Fe357 Fe 0.34801 0.86166 0.60114 0.0
O358 O 0.3704 0.85876 0.62992 0.0
Fe359 Fe 0.39167 0.82989 0.63289 0.0
O360 O 0.37666 0.82028 0.66545 0.0
O361 O 0.3796 0.86177 0.68397 0.0
O362 O 0.33549 0.87905 0.66313 0.0
C363 C 0.31634 0.8807 0.64549 0.0
C364 C 0.42621 0.87469 0.65112 0.0
O365 O 0.32148 0.88006 0.62 0.0
C366 C 0.39614 0.84077 0.57801 0.0
O367 O 0.36397 0.91306 0.63178 0.0
O368 O 0.36503 0.89342 0.59089 0.0
O369 O 0.42027 0.8491 0.65015 0.0
O370 O 0.40761 0.89227 0.64947 0.0
C371 C 0.34086 0.80711 0.61261 0.0
O372 O 0.37037 0.84383 0.57696 0.0
O373 O 0.40837 0.83777 0.60076 0.0
C374 C 0.3676 0.91461 0.60606 0.0
O375 O 0.32979 0.83012 0.60975 0.0
O376 O 0.36671 0.80558 0.61613 0.0
C377 C 0.37686 0.83589 0.68641 0.0
Fe378 Fe 0.40674 0.1345 0.89341 0.0
Fe379 Fe 0.37615 0.09034 0.85824 0.0
O380 O 0.37705 0.11358 0.8866 0.0
Fe381 Fe 0.34818 0.11596 0.90812 0.0
O382 O 0.34423 0.15191 0.89986 0.0
O383 O 0.38772 0.16373 0.90709 0.0
O384 O 0.40389 0.15051 0.86017 0.0
C385 C 0.40267 0.13788 0.83737 0.0
C386 C 0.39333 0.12113 0.94578 0.0
O387 O 0.39797 0.11209 0.83624 0.0
C388 C 0.35003 0.06033 0.90047 0.0
O389 O 0.43106 0.10902 0.8808 0.0
O390 O 0.40522 0.07214 0.87177 0.0
O391 O 0.3683 0.1247 0.93947 0.0
O392 O 0.41123 0.11995 0.9273 0.0
C393 C 0.32429 0.11007 0.85485 0.0
O394 O 0.35415 0.06444 0.87513 0.0
O395 O 0.35061 0.08014 0.91754 0.0
C396 C 0.42832 0.08312 0.87782 0.0
O397 O 0.34691 0.10706 0.84299 0.0
O398 O 0.32267 0.10782 0.88073 0.0
C399 C 0.36284 0.17023 0.90353 0.0
Fe400 Fe 0.56232 0.37551 0.87562 0.0
Fe401 Fe 0.59916 0.41936 0.84827 0.0
O402 O 0.59309 0.39588 0.87531 0.0
Fe403 Fe 0.61813 0.39209 0.90167 0.0
O404 O 0.62208 0.35602 0.8928 0.0
O405 O 0.5779 0.34555 0.89178 0.0
O406 O 0.57043 0.35977 0.84296 0.0
C407 C 0.57599 0.37243 0.82118 0.0
C408 C 0.56742 0.38794 0.93012 0.0
O409 O 0.58106 0.39817 0.82168 0.0
C410 C 0.62056 0.44783 0.89602 0.0
O411 O 0.5411 0.40158 0.85923 0.0
O412 O 0.56843 0.43818 0.85615 0.0
O413 O 0.59301 0.38398 0.92834 0.0
O414 O 0.55256 0.38967 0.9087 0.0
C415 C 0.6501 0.39711 0.85408 0.0
O416 O 0.61865 0.4446 0.87008 0.0
O417 O 0.61599 0.42791 0.91192 0.0
C418 C 0.54455 0.42737 0.85656 0.0
O419 O 0.63008 0.40195 0.83827 0.0
O420 O 0.6478 0.39937 0.87988 0.0
C421 C 0.60271 0.33824 0.89212 0.0
Fe422 Fe 0.83298 0.3586 0.08682 0.0
Fe423 Fe 0.85368 0.37803 0.14369 0.0
O424 O 0.85433 0.35409 0.11609 0.0
Fe425 Fe 0.87661 0.32593 0.11753 0.0
O426 O 0.89434 0.33749 0.08728 0.0
O427 O 0.85715 0.34358 0.0622 0.0
O428 O 0.84947 0.39143 0.07986 0.0
C429 C 0.851 0.41142 0.09661 0.0
C430 C 0.82754 0.30315 0.09329 0.0
O431 O 0.84618 0.40792 0.12193 0.0
C432 C 0.85888 0.32647 0.17027 0.0
O433 O 0.80505 0.37487 0.10608 0.0
O434 O 0.81764 0.37046 0.14935 0.0
O435 O 0.85335 0.30242 0.09751 0.0
O436 O 0.81554 0.32585 0.09218 0.0
C437 C 0.90881 0.37022 0.13986 0.0
O438 O 0.86142 0.35257 0.1704 0.0
O439 O 0.86028 0.31291 0.14808 0.0
C440 C 0.79916 0.37426 0.13145 0.0
O441 O 0.88952 0.38701 0.13932 0.0
O442 O 0.90389 0.34449 0.13771 0.0
C443 C 0.8831 0.34204 0.06435 0.0
Fe444 Fe 0.86664 0.62412 0.40297 0.0
Fe445 Fe 0.92737 0.63644 0.39166 0.0
O446 O 0.89589 0.61949 0.38244 0.0
Fe447 Fe 0.89359 0.59797 0.35284 0.0
O448 O 0.86699 0.6185 0.33767 0.0
O449 O 0.8415 0.61994 0.37445 0.0
O450 O 0.86717 0.66075 0.39639 0.0
C451 C 0.88744 0.67663 0.4023 0.0
C452 C 0.86307 0.56882 0.39273 0.0
O453 O 0.91113 0.66701 0.40658 0.0
C454 C 0.94394 0.58391 0.37285 0.0
O455 O 0.88623 0.62907 0.43538 0.0
O456 O 0.92853 0.61927 0.42451 0.0
O457 O 0.86843 0.57348 0.3677 0.0
O458 O 0.86484 0.58785 0.41062 0.0
C459 C 0.92612 0.64372 0.33603 0.0
O460 O 0.94934 0.60913 0.37812 0.0
O461 O 0.91994 0.57596 0.36598 0.0
C462 C 0.91017 0.62177 0.44237 0.0
O463 O 0.92786 0.65468 0.35963 0.0
O464 O 0.91832 0.61872 0.33286 0.0
C465 C 0.84424 0.62283 0.34874 0.0
Fe466 Fe 0.93279 0.87849 0.89344 0.0
Fe467 Fe 0.87647 0.89638 0.91363 0.0
O468 O 0.90378 0.89957 0.89015 0.0
Fe469 Fe 0.90188 0.92344 0.86305 0.0
O470 O 0.93285 0.94148 0.87513 0.0
O471 O 0.95725 0.90433 0.8799 0.0
O472 O 0.94074 0.8923 0.92747 0.0
C473 C 0.92431 0.8909 0.9473 0.0
C474 C 0.92415 0.87666 0.83777 0.0
O475 O 0.89866 0.88739 0.94295 0.0
C476 C 0.84914 0.90274 0.86252 0.0
O477 O 0.91359 0.8487 0.90733 0.0
O478 O 0.87046 0.86064 0.90386 0.0
O479 O 0.92094 0.90245 0.8385 0.0
O480 O 0.92637 0.86326 0.85969 0.0
C481 C 0.87855 0.95208 0.90818 0.0
O482 O 0.84941 0.90452 0.88854 0.0
O483 O 0.87087 0.90676 0.84916 0.0
C484 C 0.88826 0.84227 0.9047 0.0
O485 O 0.88047 0.93215 0.9245 0.0
O486 O 0.88224 0.94865 0.8826 0.0
C487 C 0.95585 0.93025 0.87753 0.0
Fe488 Fe 0.86864 0.13126 0.68962 0.0
Fe489 Fe 0.83049 0.15373 0.645 0.0
O490 O 0.861 0.15681 0.6652 0.0
Fe491 Fe 0.88409 0.18505 0.66046 0.0
O492 O 0.88104 0.19614 0.696 0.0
O493 O 0.88667 0.15517 0.71373 0.0
O494 O 0.83738 0.13758 0.70838 0.0
C495 C 0.81364 0.13555 0.69756 0.0
C496 C 0.9192 0.14019 0.66686 0.0
O497 O 0.81043 0.1364 0.67166 0.0
C498 C 0.86965 0.17268 0.60706 0.0
O499 O 0.85225 0.10275 0.66975 0.0
O500 O 0.84124 0.12133 0.63026 0.0
O501 O 0.91528 0.16584 0.66816 0.0
O502 O 0.90013 0.12311 0.67224 0.0
C503 C 0.83127 0.20872 0.65623 0.0
O504 O 0.84489 0.17041 0.61455 0.0
O505 O 0.88887 0.17553 0.62464 0.0
C506 C 0.84781 0.10061 0.64406 0.0
O507 O 0.81821 0.18606 0.65841 0.0
O508 O 0.85695 0.20929 0.65182 0.0
C509 C 0.88647 0.18119 0.71633 0.0
Fe510 Fe 0.62419 0.07762 0.35392 0.0
Fe511 Fe 0.64482 0.10342 0.4085 0.0
O512 O 0.61991 0.10108 0.38164 0.0
Fe513 Fe 0.59096 0.12237 0.38221 0.0
O514 O 0.60044 0.13789 0.3499 0.0
O515 O 0.60722 0.09892 0.32802 0.0
O516 O 0.65619 0.09471 0.34457 0.0
C517 C 0.67649 0.09874 0.3607 0.0
C518 C 0.56926 0.0708 0.36299 0.0
O519 O 0.674 0.09556 0.38639 0.0
C520 C 0.59421 0.10926 0.43644 0.0
O521 O 0.64207 0.05196 0.37465 0.0
O522 O 0.63915 0.06756 0.41709 0.0
O523 O 0.56777 0.09677 0.36522 0.0
O524 O 0.59229 0.05944 0.3617 0.0
C525 C 0.6344 0.15789 0.40127 0.0
O526 O 0.62018 0.11205 0.43538 0.0
O527 O 0.57973 0.10845 0.41469 0.0
C528 C 0.64236 0.04786 0.40036 0.0
O529 O 0.65212 0.13938 0.40151 0.0
O530 O 0.60898 0.15171 0.39934 0.0
C531 C 0.60396 0.12471 0.32778 0.0
Fe532 Fe 0.63584 0.83366 0.13576 0.0
Fe533 Fe 0.67354 0.87123 0.10144 0.0
O534 O 0.65277 0.86591 0.13073 0.0
Fe535 Fe 0.64841 0.89284 0.15504 0.0
O536 O 0.61144 0.89254 0.14879 0.0
O537 O 0.60617 0.84785 0.15326 0.0
O538 O 0.61656 0.83688 0.10395 0.0
C539 C 0.62674 0.84145 0.08065 0.0
C540 C 0.65306 0.84552 0.18814 0.0
O541 O 0.65167 0.84939 0.07836 0.0
C542 C 0.70353 0.89838 0.14513 0.0
O543 O 0.66204 0.81331 0.11904 0.0
O544 O 0.69555 0.84288 0.11015 0.0
O545 O 0.64513 0.86988 0.18451 0.0
O546 O 0.65411 0.82876 0.16811 0.0
C547 C 0.6478 0.92077 0.10442 0.0
O548 O 0.69879 0.89418 0.11963 0.0
O549 O 0.68487 0.89477 0.1626 0.0
C550 C 0.68703 0.8185 0.1139 0.0
O551 O 0.65314 0.89981 0.09015 0.0
O552 O 0.65111 0.92081 0.13025 0.0
C553 C 0.59603 0.87151 0.15177 0.0
Fe554 Fe 0.37486 0.67716 0.14876 0.0
Fe555 Fe 0.3231 0.64807 0.12442 0.0
O556 O 0.35016 0.64976 0.14923 0.0
Fe557 Fe 0.35261 0.62372 0.17413 0.0
O558 O 0.38611 0.61429 0.16211 0.0
O559 O 0.40373 0.6564 0.1608 0.0
O560 O 0.38483 0.66804 0.1141 0.0
C561 C 0.3686 0.66607 0.09368 0.0
C562 C 0.36811 0.67241 0.20411 0.0
O563 O 0.34285 0.66471 0.09705 0.0
C564 C 0.29724 0.62995 0.17315 0.0
O565 O 0.35025 0.7027 0.13655 0.0
O566 O 0.31011 0.68061 0.13635 0.0
O567 O 0.36755 0.64645 0.2011 0.0
O568 O 0.36675 0.6879 0.1835 0.0
C569 C 0.3384 0.59443 0.1255 0.0
O570 O 0.29827 0.63099 0.14714 0.0
O571 O 0.31904 0.63145 0.18754 0.0
C572 C 0.32414 0.70286 0.1371 0.0
O573 O 0.33484 0.61547 0.11104 0.0
O574 O 0.33847 0.59619 0.15152 0.0
C575 C 0.40661 0.63052 0.16015 0.0
Fe576 Fe 0.11024 0.56975 0.85673 0.0
Fe577 Fe 0.13342 0.59941 0.90839 0.0
O578 O 0.10679 0.59446 0.88351 0.0
Fe579 Fe 0.07694 0.61447 0.88526 0.0
O580 O 0.08347 0.62869 0.85172 0.0
O581 O 0.09124 0.58933 0.83084 0.0
O582 O 0.14113 0.58701 0.84453 0.0
C583 C 0.16234 0.59222 0.85907 0.0
C584 C 0.05616 0.56142 0.86934 0.0
O585 O 0.16142 0.59099 0.88504 0.0
C586 C 0.08489 0.60468 0.93971 0.0
O587 O 0.12989 0.54576 0.87788 0.0
O588 O 0.12961 0.56412 0.91948 0.0
O589 O 0.05367 0.58731 0.87105 0.0
O590 O 0.07953 0.55102 0.86709 0.0
C591 C 0.11999 0.65274 0.899 0.0
O592 O 0.11044 0.60885 0.9363 0.0
O593 O 0.06874 0.60182 0.91924 0.0
C594 C 0.13143 0.54335 0.90382 0.0
O595 O 0.13865 0.63512 0.8987 0.0
O596 O 0.09486 0.64524 0.89965 0.0
C597 C 0.08696 0.61493 0.82996 0.0
Fe598 Fe 0.15444 0.37382 0.5758 0.0
Fe599 Fe 0.11863 0.33618 0.61193 0.0
O600 O 0.13435 0.36874 0.60561 0.0
Fe601 Fe 0.12973 0.3962 0.62914 0.0
O602 O 0.16637 0.39933 0.63592 0.0
O603 O 0.17878 0.39869 0.59251 0.0
O604 O 0.17781 0.34696 0.58576 0.0
C605 C 0.17047 0.3225 0.59108 0.0
C606 C 0.12714 0.42237 0.57751 0.0
O607 O 0.14555 0.31634 0.59568 0.0
C608 C 0.0779 0.37336 0.62746 0.0
O609 O 0.13344 0.34998 0.55391 0.0
O610 O 0.09888 0.33768 0.58024 0.0
O611 O 0.13111 0.4232 0.60328 0.0
O612 O 0.13257 0.40108 0.56368 0.0
C613 C 0.13643 0.35035 0.66372 0.0
O614 O 0.08865 0.34999 0.62926 0.0
O615 O 0.0927 0.39467 0.62367 0.0
C616 C 0.10877 0.3414 0.55668 0.0
O617 O 0.1374 0.3329 0.64429 0.0
O618 O 0.12766 0.37427 0.65945 0.0
C619 C 0.18424 0.4035 0.61776 0.0
Fe620 Fe 0.68322 0.63954 0.61824 0.0
Fe621 Fe 0.64614 0.61226 0.66099 0.0
O622 O 0.65529 0.64114 0.64107 0.0
Fe623 Fe 0.63608 0.67148 0.64375 0.0
O624 O 0.62605 0.66877 0.60787 0.0
O625 O 0.66759 0.66182 0.59228 0.0
O626 O 0.66732 0.61086 0.59936 0.0
C627 C 0.6596 0.58842 0.60982 0.0
C628 C 0.69099 0.69191 0.63777 0.0
O629 O 0.65679 0.58649 0.63557 0.0
C630 C 0.63929 0.6574 0.6976 0.0
O631 O 0.70356 0.6167 0.64017 0.0
O632 O 0.67942 0.61296 0.67796 0.0
O633 O 0.66519 0.69497 0.63629 0.0
O634 O 0.70095 0.6683 0.6354 0.0
C635 C 0.59539 0.62912 0.64522 0.0
O636 O 0.63382 0.63272 0.69012 0.0
O637 O 0.64492 0.67554 0.68 0.0
C638 C 0.70196 0.61134 0.66561 0.0
O639 O 0.61234 0.60992 0.64495 0.0
O640 O 0.60328 0.65355 0.6513 0.0
C641 C 0.6424 0.66679 0.58808 0.0
Fe642 Fe 0.43093 0.39214 0.39342 0.0
Fe643 Fe 0.39774 0.43486 0.36178 0.0
O644 O 0.40091 0.41176 0.38949 0.0
Fe645 Fe 0.37373 0.4079 0.41301 0.0
O646 O 0.36912 0.37173 0.40389 0.0
O647 O 0.41289 0.36184 0.40747 0.0
O648 O 0.42564 0.37616 0.35976 0.0
C649 C 0.42303 0.38902 0.33754 0.0
C650 C 0.42139 0.40435 0.44721 0.0
O651 O 0.41772 0.41439 0.33764 0.0
C652 C 0.37434 0.46357 0.40657 0.0
O653 O 0.45422 0.41888 0.37968 0.0
O654 O 0.42801 0.45456 0.37321 0.0
O655 O 0.39598 0.40011 0.44235 0.0
O656 O 0.43813 0.40646 0.42765 0.0
C657 C 0.34592 0.41167 0.36217 0.0
O658 O 0.37721 0.45956 0.38095 0.0
O659 O 0.3766 0.44397 0.42326 0.0
C660 C 0.45155 0.44453 0.37612 0.0
O661 O 0.36723 0.41651 0.34835 0.0
O662 O 0.3464 0.41468 0.38803 0.0
C663 C 0.38783 0.35423 0.40513 0.0
H664 H 0.07167 0.2189 0.35449 0.0
H665 H 0.09473 0.11189 0.23174 0.0
H666 H 0.00899 0.16115 0.32417 0.0
H667 H 0.13459 0.19253 0.23392 0.0
H668 H 0.0715 0.12314 0.27438 0.0
H669 H 0.1026 0.20279 0.31844 0.0
C670 C 0.0646 0.20253 0.34055 0.0
C671 C 0.03772 0.1914 0.34213 0.0
C672 C 0.08559 0.13822 0.26566 0.0
C673 C 0.07292 0.17283 0.30138 0.0
C674 C 0.09899 0.13183 0.24137 0.0
C675 C 0.11636 0.15149 0.22894 0.0
C676 C 0.08981 0.1643 0.2779 0.0
C677 C 0.12113 0.17689 0.2426 0.0
C678 C 0.08217 0.19351 0.31998 0.0
C679 C 0.02949 0.17039 0.32349 0.0
N680 N 0.10776 0.18267 0.26633 0.0
N681 N 0.04705 0.16176 0.30388 0.0
H682 H 0.05787 0.82104 0.59387 0.0
H683 H 0.02833 0.89625 0.45178 0.0
H684 H 0.98272 0.81022 0.54597 0.0
H685 H 0.10636 0.90094 0.49555 0.0
H686 H 0.00802 0.8728 0.49106 0.0
H687 H 0.07289 0.85723 0.5625 0.0
C688 C 0.04446 0.82637 0.57685 0.0
C689 C 0.01919 0.81229 0.57228 0.0
C690 C 0.02948 0.87936 0.49224 0.0
C691 C 0.03618 0.85377 0.53639 0.0
C692 C 0.04106 0.89295 0.46987 0.0
C693 C 0.06927 0.90002 0.47011 0.0
C694 C 0.04622 0.87283 0.51494 0.0
C695 C 0.08465 0.89538 0.49424 0.0
C696 C 0.05301 0.8471 0.55899 0.0
C697 C 0.00252 0.82028 0.55008 0.0
N698 N 0.07304 0.88167 0.5155 0.0
N699 N 0.01142 0.84032 0.53283 0.0
H700 H 0.42809 0.81692 0.85536 0.0
H701 H 0.3829 0.78151 0.69961 0.0
H702 H 0.44448 0.74023 0.81342 0.0
H703 H 0.37876 0.86281 0.73632 0.0
H704 H 0.39681 0.76356 0.74428 0.0
H705 H 0.40211 0.83162 0.81476 0.0
C706 C 0.42604 0.80309 0.83773 0.0
C707 C 0.43878 0.77747 0.83764 0.0
C708 C 0.39255 0.78527 0.74262 0.0
C709 C 0.40903 0.79406 0.79127 0.0
C710 C 0.38446 0.79553 0.71713 0.0
C711 C 0.38014 0.82382 0.71406 0.0
C712 C 0.39631 0.80341 0.76522 0.0
C713 C 0.38229 0.84092 0.7376 0.0
C714 C 0.41122 0.81149 0.81458 0.0
C715 C 0.43532 0.76032 0.81428 0.0
N716 N 0.39054 0.83051 0.76211 0.0
N717 N 0.42092 0.76899 0.79201 0.0
H718 H 0.49208 0.17751 0.08261 0.0
H719 H 0.36151 0.13161 0.99065 0.0
H720 H 0.40856 0.19827 0.10178 0.0
H721 H 0.44581 0.11942 0.96726 0.0
H722 H 0.37767 0.14666 0.03633 0.0
H723 H 0.47465 0.14722 0.04556 0.0
C724 C 0.47003 0.17546 0.07925 0.0
C725 C 0.45176 0.19088 0.09498 0.0
C726 C 0.3926 0.14031 0.02133 0.0
C727 C 0.43169 0.15628 0.05245 0.0
C728 C 0.3834 0.13163 0.99522 0.0
C729 C 0.40238 0.12483 0.97484 0.0
C730 C 0.42097 0.14221 0.0271 0.0
C731 C 0.43044 0.12493 0.98214 0.0
C732 C 0.4601 0.15813 0.05807 0.0
C733 C 0.4234 0.18705 0.08995 0.0
N734 N 0.43891 0.1339 0.00755 0.0
N735 N 0.41424 0.17041 0.06884 0.0
H736 H 0.0874 0.77814 0.20356 0.0
H737 H 0.09987 0.92243 0.28452 0.0
H738 H 0.08037 0.85687 0.16392 0.0
H739 H 0.09273 0.84316 0.3236 0.0
H740 H 0.1004 0.89902 0.23962 0.0
H741 H 0.09849 0.80204 0.24688 0.0
C742 C 0.08867 0.80046 0.20382 0.0
C743 C 0.08247 0.81553 0.18015 0.0
C744 C 0.09882 0.88679 0.25805 0.0
C745 C 0.09478 0.84302 0.22984 0.0
C746 C 0.09842 0.90013 0.28368 0.0
C747 C 0.09584 0.88474 0.30784 0.0
C748 C 0.09681 0.85789 0.25662 0.0
C749 C 0.09434 0.85589 0.30551 0.0
C750 C 0.09484 0.8141 0.22864 0.0
C751 C 0.08469 0.84442 0.18173 0.0
N752 N 0.09476 0.84342 0.28037 0.0
N753 N 0.0903 0.85725 0.20627 0.0
H754 H 0.52117 0.81186 0.45779 0.0
H755 H 0.37675 0.84575 0.5251 0.0
H756 H 0.44649 0.82357 0.41056 0.0
H757 H 0.45137 0.83275 0.57204 0.0
H758 H 0.40294 0.8425 0.48272 0.0
H759 H 0.49723 0.82539 0.49943 0.0
C760 C 0.49984 0.8177 0.45609 0.0
C761 C 0.4857 0.81619 0.43069 0.0
C762 C 0.41361 0.84047 0.5023 0.0
C763 C 0.45805 0.83133 0.47839 0.0
C764 C 0.39864 0.8422 0.52652 0.0
C765 C 0.4118 0.83916 0.55219 0.0
C766 C 0.44196 0.83563 0.5037 0.0
C767 C 0.44028 0.83493 0.55273 0.0
C768 C 0.48614 0.82532 0.47992 0.0
C769 C 0.45816 0.82421 0.42973 0.0
N770 N 0.45436 0.83314 0.52885 0.0
N771 N 0.44512 0.83109 0.45331 0.0
H772 H 0.43908 0.1857 0.67057 0.0
H773 H 0.41099 0.19347 0.83208 0.0
H774 H 0.44127 0.26127 0.71855 0.0
H775 H 0.4058 0.1177 0.78444 0.0
H776 H 0.41938 0.21884 0.78997 0.0
H777 H 0.42323 0.16082 0.71104 0.0
C778 C 0.43586 0.19714 0.68949 0.0
C779 C 0.44179 0.22559 0.69125 0.0
C780 C 0.41635 0.19667 0.78867 0.0
C781 C 0.42397 0.19717 0.73769 0.0
C782 C 0.41168 0.18212 0.81276 0.0
C783 C 0.40796 0.15333 0.81186 0.0
C784 C 0.4174 0.1824 0.7634 0.0
C785 C 0.40876 0.13984 0.78615 0.0
C786 C 0.42691 0.18289 0.71263 0.0
C787 C 0.43716 0.23933 0.71628 0.0
N788 N 0.41354 0.15448 0.76295 0.0
N789 N 0.42879 0.22494 0.73857 0.0
H790 H 0.05923 0.23033 0.95007 0.0
H791 H 0.17845 0.1917 0.05658 0.0
H792 H 0.14052 0.26841 0.94854 0.0
H793 H 0.09172 0.18017 0.0724 0.0
H794 H 0.16675 0.21294 0.0125 0.0
H795 H 0.07307 0.20419 0.99031 0.0
C796 C 0.08009 0.233 0.95801 0.0
C797 C 0.09869 0.25179 0.94609 0.0
C798 C 0.15036 0.20567 0.02566 0.0
C799 C 0.11458 0.22192 0.99215 0.0
C800 C 0.15698 0.19351 0.05072 0.0
C801 C 0.136 0.18437 0.06822 0.0
C802 C 0.1226 0.20822 0.01794 0.0
C803 C 0.10854 0.18721 0.05966 0.0
C804 C 0.08791 0.21816 0.98106 0.0
C805 C 0.12547 0.25432 0.95725 0.0
N806 N 0.10263 0.19884 0.03509 0.0
N807 N 0.13262 0.2396 0.97976 0.0
H808 H 0.33602 0.00863 0.20193 0.0
H809 H 0.1883 0.07569 0.21788 0.0
H810 H 0.28177 0.99241 0.26982 0.0
H811 H 0.2421 0.09108 0.14942 0.0
H812 H 0.22388 0.04801 0.23911 0.0
H813 H 0.30335 0.04171 0.18416 0.0
C814 C 0.31731 0.01212 0.21317 0.0
C815 C 0.31152 -0.0024 0.23728 0.0
C816 C 0.22795 0.05757 0.21951 0.0
C817 C 0.27403 0.03536 0.21705 0.0
C818 C 0.20764 0.0734 0.20737 0.0
C819 C 0.21208 0.0855 0.18167 0.0
C820 C 0.25288 0.05378 0.20585 0.0
C821 C 0.23764 0.08196 0.16913 0.0
C822 C 0.29866 0.03102 0.20302 0.0
C823 C 0.28702 0.00303 0.25107 0.0
N824 N 0.257 0.06628 0.18126 0.0
N825 N 0.26911 0.02138 0.24067 0.0
H826 H 0.26154 0.06695 0.49602 0.0
H827 H 0.14304 0.02158 0.39242 0.0
H828 H 0.21638 0.12814 0.45173 0.0
H829 H 0.16056 0.97592 0.46609 0.0
H830 H 0.17084 0.06051 0.41125 0.0
H831 H 0.22659 0.03221 0.48231 0.0
C832 C 0.24423 0.07305 0.48338 0.0
C833 C 0.24186 0.10039 0.47485 0.0
C834 C 0.16817 0.0421 0.42341 0.0
C835 C 0.20194 0.06072 0.45897 0.0
C836 C 0.15238 0.01989 0.4127 0.0
C837 C 0.14968 0.99538 0.4276 0.0
C838 C 0.18179 0.03946 0.44887 0.0
C839 C 0.16212 0.99436 0.45383 0.0
C840 C 0.2242 0.05328 0.47576 0.0
C841 C 0.2189 0.10725 0.45872 0.0
N842 N 0.17804 0.01589 0.46341 0.0
N843 N 0.19994 0.08741 0.45093 0.0
H844 H 0.17745 0.92873 0.74181 0.0
H845 H 0.27241 0.89519 0.61343 0.0
H846 H 0.16657 0.96358 0.66114 0.0
H847 H 0.29638 0.8813 0.69802 0.0
H848 H 0.22772 0.91046 0.62904 0.0
H849 H 0.21492 0.90123 0.72404 0.0
C850 C 0.18258 0.93023 0.72025 0.0
C851 C 0.16918 0.94879 0.70301 0.0
C852 C 0.24269 0.90384 0.64414 0.0
C853 C 0.21196 0.9175 0.68267 0.0
C854 C 0.26822 0.89511 0.63528 0.0
C855 C 0.28837 0.88742 0.65451 0.0
C856 C 0.23719 0.90475 0.6724 0.0
C857 C 0.28162 0.88747 0.68251 0.0
C858 C 0.20405 0.91464 0.71018 0.0
C859 C 0.17663 0.94982 0.67524 0.0
N860 N 0.25665 0.89622 0.69065 0.0
N861 N 0.19771 0.93458 0.66597 0.0
H862 H 0.28152 0.92766 0.99502 0.0
H863 H 0.33871 0.01435 0.86855 0.0
H864 H 0.2679 0.90376 0.90985 0.0
H865 H 0.34107 0.04309 0.95311 0.0
H866 H 0.32026 0.96989 0.88377 0.0
H867 H 0.31128 0.9657 0.98031 0.0
C868 C 0.28506 0.93019 0.97321 0.0
C869 C 0.27182 0.91278 0.95358 0.0
C870 C 0.32502 0.98586 0.89899 0.0
C871 C 0.30573 0.95646 0.93664 0.0
C872 C 0.33555 0.01127 0.89034 0.0
C873 C 0.34102 0.03265 0.90955 0.0
C874 C 0.32002 0.98179 0.92705 0.0
C875 C 0.33677 0.02735 0.93753 0.0
C876 C 0.30202 0.95197 0.96484 0.0
C877 C 0.27745 0.91686 0.92566 0.0
N878 N 0.32633 0.00252 0.9454 0.0
N879 N 0.29375 0.93853 0.91798 0.0
H880 H 0.34089 0.90202 0.34535 0.0
H881 H 0.17976 0.90973 0.31768 0.0
H882 H 0.30211 0.88967 0.26542 0.0
H883 H 0.21698 0.91467 0.39895 0.0
H884 H 0.22409 0.89736 0.29894 0.0
H885 H 0.29554 0.9 0.36634 0.0
C886 C 0.32292 0.89821 0.33226 0.0
C887 C 0.32526 0.89665 0.30352 0.0
C888 C 0.22256 0.90099 0.3209 0.0
C889 C 0.27333 0.89485 0.32734 0.0
C890 C 0.19728 0.90828 0.33159 0.0
C891 C 0.19476 0.9137 0.35987 0.0
C892 C 0.2456 0.89929 0.33855 0.0
C893 C 0.21806 0.91099 0.37697 0.0
C894 C 0.29699 0.89724 0.34425 0.0
C895 C 0.30126 0.89149 0.28763 0.0
N896 N 0.24258 0.90423 0.366 0.0
N897 N 0.27627 0.89129 0.29971 0.0
H898 H 0.37468 0.04581 0.48879 0.0
H899 H 0.36795 0.96554 0.63117 0.0
H900 H 0.35698 0.0847 0.56678 0.0
H901 H 0.37682 0.92585 0.5518 0.0
H902 H 0.37151 0.01036 0.609 0.0
H903 H 0.38383 0.00305 0.51277 0.0
C904 C 0.37313 0.0455 0.51101 0.0
C905 C 0.36461 0.06875 0.52575 0.0
C906 C 0.37287 0.99184 0.59648 0.0
C907 C 0.37479 0.01977 0.55329 0.0
C908 C 0.3708 0.96622 0.60911 0.0
C909 C 0.37163 0.94187 0.59326 0.0
C910 C 0.37583 0.99313 0.5678 0.0
C911 C 0.37566 0.94407 0.56479 0.0
C912 C 0.37826 0.02103 0.52468 0.0
C913 C 0.36319 0.06719 0.55454 0.0
N914 N 0.3774 0.96924 0.55296 0.0
N915 N 0.36788 0.04299 0.56734 0.0
H916 H 0.20525 0.07308 0.72853 0.0
H917 H 0.27176 0.11744 0.87274 0.0
H918 H 0.15717 0.09602 0.79885 0.0
H919 H 0.31871 0.10682 0.79868 0.0
H920 H 0.22941 0.11465 0.84507 0.0
H921 H 0.24669 0.09048 0.75249 0.0
C922 C 0.20338 0.08213 0.7489 0.0
C923 C 0.17782 0.08274 0.76191 0.0
C924 C 0.24899 0.11327 0.83483 0.0
C925 C 0.22521 0.10238 0.78962 0.0
C926 C 0.27319 0.11478 0.85063 0.0
C927 C 0.29881 0.11182 0.83808 0.0
C928 C 0.25041 0.10854 0.80631 0.0
C929 C 0.29941 0.10882 0.80931 0.0
C930 C 0.22705 0.0921 0.76257 0.0
C931 C 0.17652 0.09498 0.78815 0.0
N932 N 0.27555 0.10687 0.79446 0.0
N933 N 0.19999 0.10392 0.80136 0.0
H934 H 0.18254 0.97538 0.97364 0.0
H935 H 0.12455 0.03887 0.11261 0.0
H936 H 0.14599 0.92754 0.03863 0.0
H937 H 0.1701 0.08649 0.05321 0.0
H938 H 0.12367 -0.00036 0.08089 0.0
H939 H 0.1692 0.01757 -0.00256 0.0
C940 C 0.1712 0.9737 0.99262 0.0
C941 C 0.1658 0.94792 0.00446 0.0
C942 C 0.13367 0.01872 0.07465 0.0
C943 C 0.15073 0.99605 0.03181 0.0
C944 C 0.13426 0.04114 0.0928 0.0
C945 C 0.14796 0.06583 0.08579 0.0
C946 C 0.14702 0.02085 0.04932 0.0
C947 C 0.15964 0.06772 0.0596 0.0
C948 C 0.16373 -0.00218 0.00625 0.0
C949 C 0.15096 0.947 0.02899 0.0
N950 N 0.15923 0.04536 0.04242 0.0
N951 N 0.14425 0.97073 0.04202 0.0
H952 H 0.30736 0.28691 0.07939 0.0
H953 H 0.1781 0.23828 0.16494 0.0
H954 H 0.2384 0.33772 0.09864 0.0
H955 H 0.24272 0.18461 0.13932 0.0
H956 H 0.20709 0.27804 0.15327 0.0
H957 H 0.29084 0.25306 0.11252 0.0
C958 C 0.28899 0.29118 0.0909 0.0
C959 C 0.27382 0.31483 0.08572 0.0
C960 C 0.21518 0.25759 0.15073 0.0
C961 C 0.25481 0.27618 0.12359 0.0
C962 C 0.19865 0.23485 0.15749 0.0
C963 C 0.20764 0.20806 0.15224 0.0
C964 C 0.24073 0.25348 0.13838 0.0
C965 C 0.23469 0.20489 0.14314 0.0
C966 C 0.27959 0.27184 0.10984 0.0
C967 C 0.25041 0.31948 0.10153 0.0
N968 N 0.25004 0.22734 0.13584 0.0
N969 N 0.24139 0.30011 0.11943 0.0
H970 H 0.68464 0.18333 0.90647 0.0
H971 H 0.56661 0.29494 0.90029 0.0
H972 H 0.60254 0.16911 0.93706 0.0
H973 H 0.65287 0.31405 0.88818 0.0
H974 H 0.57755 0.2464 0.90536 0.0
H975 H 0.67096 0.22852 0.89038 0.0
C976 C 0.66359 0.18947 0.90937 0.0
C977 C 0.64481 0.17257 0.92352 0.0
C978 C 0.59405 0.26121 0.90145 0.0
C979 C 0.62916 0.22436 0.90536 0.0
C980 C 0.58785 0.28894 0.89858 0.0
C981 C 0.60892 0.30867 0.89418 0.0
C982 C 0.62149 0.2531 0.89973 0.0
C983 C 0.63602 0.29962 0.89193 0.0
C984 C 0.65587 0.21536 0.90032 0.0
C985 C 0.61779 0.1816 0.92655 0.0
N986 N 0.64154 0.2725 0.89485 0.0
N987 N 0.61085 0.20701 0.9178 0.0
H988 H 0.07045 0.39884 0.21123 0.0
H989 H 0.92807 0.42271 0.13323 0.0
H990 H 0.0466 0.47672 0.17742 0.0
H991 H 0.95364 0.34246 0.15928 0.0
H992 H 0.9733 0.44174 0.146 0.0
H993 H 0.03002 0.3767 0.18903 0.0
C994 C 0.0569 0.41123 0.19888 0.0
C995 C 0.0617 0.43976 0.19646 0.0
C996 C 0.96918 0.41993 0.14879 0.0
C997 C 0.0154 0.41459 0.17118 0.0
C998 C 0.94328 0.40905 0.1416 0.0
C999 C 0.93697 0.38104 0.14561 0.0
C1000 C 0.98893 0.40277 0.16039 0.0
C1001 C 0.95763 0.36422 0.15604 0.0
C1002 C 0.03382 0.39857 0.18622 0.0
C1003 C 0.04357 0.45474 0.18009 0.0
N1004 N 0.98265 0.37543 0.16342 0.0
N1005 N 0.02108 0.44202 0.16831 0.0
H1006 H 0.89274 0.83622 0.48161 0.0
H1007 H 0.84043 0.70519 0.39297 0.0
H1008 H 0.81132 0.82708 0.44527 0.0
H1009 H 0.92326 0.71505 0.42574 0.0
H1010 H 0.83124 0.75228 0.40754 0.0
H1011 H 0.90625 0.79467 0.45676 0.0
C1012 C 0.87783 0.82573 0.46812 0.0
C1013 C 0.85075 0.83492 0.46584 0.0
C1014 C 0.85152 0.74426 0.41135 0.0
C1015 C 0.86598 0.78728 0.43755 0.0
C1016 C 0.85677 0.71732 0.40307 0.0
C1017 C 0.88253 0.70599 0.4085 0.0
C1018 C 0.8721 0.75999 0.42537 0.0
C1019 C 0.90301 0.72284 0.42134 0.0
C1020 C 0.88553 0.80196 0.45398 0.0
C1021 C 0.83233 0.82056 0.44794 0.0
N1022 N 0.89725 0.74888 0.42963 0.0
N1023 N 0.8402 0.79732 0.43475 0.0
H1024 H 0.92607 0.0564 0.13289 0.0
H1025 H 0.04802 0.16841 0.14489 0.0
H1026 H 0.92284 0.13316 0.17834 0.0
H1027 H 0.05886 0.08274 0.12345 0.0
H1028 H -0.00172 0.16093 0.14146 0.0
H1029 H 0.97013 0.07175 0.11357 0.0
C1030 C 0.93415 0.07687 0.13801 0.0
C1031 C 0.92124 0.09339 0.1576 0.0
C1032 C 0.01158 0.14389 0.13709 0.0
C1033 C 0.97133 0.11084 0.13589 0.0
C1034 C 0.03998 0.14808 0.13914 0.0
C1035 C 0.05761 0.12593 0.13531 0.0
C1036 C 0.00071 0.11738 0.13121 0.0
C1037 C 0.046 0.10024 0.12724 0.0
C1038 C 0.95935 0.0855 0.12717 0.0
C1039 C 0.93251 0.11966 0.16364 0.0
N1040 N 0.01821 0.09654 0.12591 0.0
N1041 N 0.95717 0.12744 0.15314 0.0
H1042 H 0.21274 0.6979 0.55137 0.0
H1043 H 0.35749 0.75341 0.61096 0.0
H1044 H 0.28314 0.64639 0.56201 0.0
H1045 H 0.28512 0.80289 0.60424 0.0
H1046 H 0.32921 0.71248 0.59892 0.0
H1047 H 0.23713 0.73474 0.57701 0.0
C1048 C 0.23318 0.69418 0.55947 0.0
C1049 C 0.24609 0.66919 0.55414 0.0
C1050 C 0.31949 0.73226 0.60037 0.0
C1051 C 0.27435 0.71146 0.58318 0.0
C1052 C 0.33564 0.75566 0.6072 0.0
C1053 C 0.32378 0.78172 0.60812 0.0
C1054 C 0.29132 0.73498 0.59435 0.0
C1055 C 0.29528 0.78331 0.60335 0.0
C1056 C 0.24714 0.71526 0.57409 0.0
C1057 C 0.27249 0.66542 0.56541 0.0
N1058 N 0.28012 0.76033 0.59639 0.0
N1059 N 0.28594 0.68651 0.57902 0.0
H1060 H 0.03237 0.44478 0.31591 0.0
H1061 H -0.00021 0.59452 0.37443 0.0
H1062 H 0.09229 0.51197 0.32168 0.0
H1063 H 0.93938 0.52808 0.36516 0.0
H1064 H 0.03591 0.56223 0.36321 0.0
H1065 H 0.00031 0.47245 0.34204 0.0
C1066 C 0.03896 0.46518 0.32302 0.0
C1067 C 0.06487 0.47625 0.31615 0.0
C1068 C 0.01478 0.55466 0.36397 0.0
C1069 C 0.02818 0.50815 0.34584 0.0
C1070 C 0.99415 0.57309 0.37042 0.0
C1071 C 0.96645 0.56412 0.3702 0.0
C1072 C 0.00764 0.52711 0.35724 0.0
C1073 C 0.9604 0.53605 0.36508 0.0
C1074 C 0.0206 0.48101 0.3379 0.0
C1075 C 0.07237 0.50273 0.32615 0.0
N1076 N 0.98077 0.51864 0.35848 0.0
N1077 N 0.05396 0.51791 0.34015 0.0
H1078 H 0.4417 0.54454 0.77612 0.0
H1079 H 0.49006 0.41174 0.85712 0.0
H1080 H 0.38721 0.47637 0.79653 0.0
H1081 H 0.5441 0.48097 0.83891 0.0
H1082 H 0.45119 0.43723 0.83932 0.0
H1083 H 0.47834 0.52369 0.80298 0.0
C1084 C 0.43736 0.52527 0.78642 0.0
C1085 C 0.41139 0.51203 0.78382 0.0
C1086 C 0.4715 0.44697 0.83944 0.0
C1087 C 0.45337 0.48798 0.81457 0.0
C1088 C 0.49375 0.43242 0.84962 0.0
C1089 C 0.5205 0.44407 0.84919 0.0
C1090 C 0.47598 0.47335 0.82856 0.0
C1091 C 0.52391 0.47106 0.83948 0.0
C1092 C 0.45832 0.51339 0.80178 0.0
C1093 C 0.40694 0.48721 0.7978 0.0
N1094 N 0.50195 0.48466 0.82927 0.0
N1095 N 0.4278 0.47588 0.81237 0.0
H1096 H 0.9499 0.8406 0.66609 0.0
H1097 H 0.93193 0.82171 0.82798 0.0
H1098 H 0.96129 0.76368 0.70805 0.0
H1099 H 0.92263 0.89917 0.7864 0.0
H1100 H 0.93772 0.79894 0.78344 0.0
H1101 H 0.93393 0.86097 0.70901 0.0
C1102 C 0.94867 0.82787 0.68421 0.0
C1103 C 0.95736 0.80053 0.68358 0.0
C1104 C 0.9343 0.8209 0.78405 0.0
C1105 C 0.9394 0.82379 0.7328 0.0
C1106 C 0.9311 0.83394 0.8095 0.0
C1107 C 0.92717 0.86247 0.81096 0.0
C1108 C 0.9336 0.83649 0.75989 0.0
C1109 C 0.92593 0.87719 0.78629 0.0
C1110 C 0.93965 0.83955 0.70874 0.0
C1111 C 0.95512 0.78496 0.70765 0.0
N1112 N 0.9293 0.86405 0.76179 0.0
N1113 N 0.94666 0.79691 0.73137 0.0
H1114 H 0.94888 0.1719 0.44898 0.0
H1115 H 0.83361 0.18044 0.56423 0.0
H1116 H 0.87118 0.2114 0.43626 0.0
H1117 H 0.91954 0.16736 0.5823 0.0
H1118 H 0.84428 0.18308 0.51529 0.0
H1119 H 0.93502 0.16044 0.49571 0.0
C1120 C 0.92869 0.17772 0.45581 0.0
C1121 C 0.91127 0.19294 0.4388 0.0
C1122 C 0.86075 0.17954 0.52999 0.0
C1123 C 0.89544 0.18002 0.49225 0.0
C1124 C 0.85471 0.17803 0.55791 0.0
C1125 C 0.87579 0.17397 0.57741 0.0
C1126 C 0.888 0.17662 0.52145 0.0
C1127 C 0.90272 0.17086 0.56801 0.0
C1128 C 0.92091 0.17135 0.48256 0.0
C1129 C 0.88536 0.1999 0.44877 0.0
N1130 N 0.90806 0.17227 0.54067 0.0
N1131 N 0.87829 0.19355 0.47494 0.0
H1132 H 0.56669 0.16162 0.15868 0.0
H1133 H 0.59935 0.18006 0.31929 0.0
H1134 H 0.56535 0.23957 0.20246 0.0
H1135 H 0.60305 0.10214 0.27571 0.0
H1136 H 0.5923 0.20304 0.27549 0.0
H1137 H 0.5861 0.14051 0.19979 0.0
C1138 C 0.5709 0.17442 0.17676 0.0
C1139 C 0.56395 0.20231 0.17727 0.0
C1140 C 0.59484 0.18094 0.27546 0.0
C1141 C 0.58584 0.17821 0.22445 0.0
C1142 C 0.59877 0.16777 0.3005 0.0
C1143 C 0.60136 0.13905 0.30123 0.0
C1144 C 0.59332 0.16529 0.25093 0.0
C1145 C 0.60084 0.12428 0.27617 0.0
C1146 C 0.58189 0.16232 0.20027 0.0
C1147 C 0.57003 0.2179 0.20123 0.0
N1148 N 0.5966 0.13754 0.25206 0.0
N1149 N 0.58029 0.20556 0.22396 0.0
H1150 H 0.56252 0.82474 0.91327 0.0
H1151 H 0.57415 0.82013 0.07771 0.0
H1152 H 0.50737 0.77803 0.96487 0.0
H1153 H 0.63981 0.85121 0.02672 0.0
H1154 H 0.54603 0.81124 0.03652 0.0
H1155 H 0.58734 0.8418 0.95477 0.0
C1156 C 0.55534 0.81851 0.93332 0.0
C1157 C 0.53305 0.79978 0.9357 0.0
C1158 C 0.56658 0.82004 0.03431 0.0
C1159 C 0.56125 0.81896 0.98295 0.0
C1160 C 0.5827 0.82508 0.05785 0.0
C1161 C 0.60956 0.83611 0.05568 0.0
C1162 C 0.57725 0.82614 0.00832 0.0
C1163 C 0.61935 0.84237 0.02934 0.0
C1164 C 0.56961 0.82805 0.95693 0.0
C1165 C 0.52466 0.79222 0.96212 0.0
N1166 N 0.60322 0.83721 0.00664 0.0
N1167 N 0.53884 0.80171 0.98468 0.0
H1168 H 0.97344 0.20859 0.87129 0.0
H1169 H 0.89951 0.23579 0.72616 0.0
H1170 H 0.98831 0.28074 0.82199 0.0
H1171 H 0.89969 0.15609 0.76478 0.0
H1172 H 0.92469 0.25536 0.76593 0.0
H1173 H 0.93965 0.19166 0.83666 0.0
C1174 C 0.96949 0.22092 0.85329 0.0
C1175 C 0.98392 0.24594 0.84934 0.0
C1176 C 0.91899 0.23363 0.76579 0.0
C1177 C 0.94525 0.2269 0.80994 0.0
C1178 C 0.90449 0.22246 0.74314 0.0
C1179 C 0.89784 0.19415 0.74191 0.0
C1180 C 0.92681 0.21643 0.78743 0.0
C1181 C 0.90471 0.17795 0.76467 0.0
C1182 C 0.95024 0.21126 0.83357 0.0
C1183 C 0.97793 0.26116 0.82572 0.0
N1184 N 0.91904 0.18928 0.7864 0.0
N1185 N 0.95911 0.25137 0.8069 0.0
H1186 H 0.56589 0.16571 0.60195 0.0
H1187 H 0.53934 0.1164 0.44598 0.0
H1188 H 0.49598 0.18842 0.55208 0.0
H1189 H 0.61811 0.1119 0.48786 0.0
H1190 H 0.51912 0.13238 0.48882 0.0
H1191 H 0.58128 0.13641 0.56401 0.0
C1192 C 0.55364 0.16432 0.58315 0.0
C1193 C 0.52985 0.17983 0.57999 0.0
C1194 C 0.54075 0.12754 0.4887 0.0
C1195 C 0.54717 0.14628 0.53676 0.0
C1196 C 0.55231 0.11827 0.46427 0.0
C1197 C 0.58062 0.11335 0.46317 0.0
C1198 C 0.55758 0.13182 0.51218 0.0
C1199 C 0.59629 0.11591 0.48764 0.0
C1200 C 0.56243 0.14762 0.56154 0.0
C1201 C 0.51468 0.17714 0.55526 0.0
N1202 N 0.58463 0.12531 0.51109 0.0
N1203 N 0.52368 0.16083 0.53454 0.0
H1204 H 0.61301 0.8382 0.35742 0.0
H1205 H 0.65274 0.79186 0.20559 0.0
H1206 H 0.59596 0.7575 0.32183 0.0
H1207 H 0.65699 0.87601 0.23565 0.0
H1208 H 0.64482 0.77639 0.25256 0.0
H1209 H 0.64131 0.84952 0.31752 0.0
C1210 C 0.61561 0.82273 0.34146 0.0
C1211 C 0.60161 0.79715 0.34253 0.0
C1212 C 0.64797 0.79822 0.24893 0.0
C1213 C 0.63382 0.80985 0.29708 0.0
C1214 C 0.6526 0.80705 0.22212 0.0
C1215 C 0.65472 0.83532 0.21661 0.0
C1216 C 0.64543 0.81781 0.27025 0.0
C1217 C 0.65473 0.85404 0.2389 0.0
C1218 C 0.63171 0.82918 0.31871 0.0
C1219 C 0.60588 0.77773 0.32147 0.0
N1220 N 0.64962 0.84499 0.26469 0.0
N1221 N 0.62131 0.7846 0.29944 0.0
H1222 H 0.9435 0.82329 0.10835 0.0
H1223 H 0.97846 0.89175 0.96404 0.0
H1224 H 0.0235 0.8232 0.07078 0.0
H1225 H 0.89589 0.88092 0.99463 0.0
H1226 H -0.00344 0.8763 0.00815 0.0
H1227 H 0.92718 0.85322 0.07167 0.0
C1228 C 0.9577 0.82979 0.09257 0.0
C1229 C 0.98474 0.82035 0.09232 0.0
C1230 C 0.97448 0.87764 0.00533 0.0
C1231 C 0.96629 0.85458 0.05049 0.0
C1232 C 0.96412 0.88655 0.98016 0.0
C1233 C 0.93557 0.88702 0.97538 0.0
C1234 C 0.9562 0.86907 0.02584 0.0
C1235 C 0.91804 0.88042 -0.00279 0.0
C1236 C 0.94838 0.84687 0.07166 0.0
C1237 C 0.00234 0.82959 0.07152 0.0
N1238 N 0.92862 0.87131 0.02137 0.0
N1239 N 0.99273 0.846 0.05132 0.0
H1240 H 0.67847 0.91896 0.82611 0.0
H1241 H 0.8395 0.90369 0.80674 0.0
H1242 H 0.71965 0.93075 0.74879 0.0
H1243 H 0.79806 0.89496 0.88436 0.0
H1244 H 0.79475 0.9046 0.78328 0.0
H1245 H 0.72068 0.9007 0.84554 0.0
C1246 C 0.69628 0.91733 0.81309 0.0
C1247 C 0.69576 0.92695 0.78599 0.0
C1248 C 0.79547 0.90216 0.80541 0.0
C1249 C 0.7442 0.90637 0.80817 0.0
C1250 C 0.82101 0.90169 0.81883 0.0
C1251 C 0.82251 0.89991 0.84763 0.0
C1252 C 0.77131 0.90092 0.82092 0.0
C1253 C 0.79789 0.89692 0.86218 0.0
C1254 C 0.7204 0.90692 0.82421 0.0
C1255 C 0.71928 0.92394 0.76993 0.0
N1256 N 0.77331 0.89788 0.8487 0.0
N1257 N 0.74274 0.91434 0.78142 0.0
H1258 H 0.83888 0.9656 0.52693 0.0
H1259 H 0.85809 0.05103 0.66787 0.0
H1260 H 0.84682 0.92795 0.60667 0.0
H1261 H 0.84108 0.08798 0.58918 0.0
H1262 H 0.8601 0.00608 0.64504 0.0
H1263 H 0.8469 0.01077 0.54859 0.0
C1264 C 0.84274 0.96677 0.54895 0.0
C1265 C 0.84174 0.94297 0.56508 0.0
C1266 C 0.85599 0.02403 0.63277 0.0
C1267 C 0.85062 0.99467 0.59001 0.0
C1268 C 0.85474 0.04971 0.64579 0.0
C1269 C 0.84904 0.07329 0.63047 0.0
C1270 C 0.85158 0.02187 0.60419 0.0
C1271 C 0.8452 0.07033 0.60187 0.0
C1272 C 0.84717 0.99261 0.56131 0.0
C1273 C 0.84711 0.94576 0.59346 0.0
N1274 N 0.84643 0.04506 0.58968 0.0
N1275 N 0.851 0.97119 0.60508 0.0
H1276 H 0.81134 0.11965 0.25056 0.0
H1277 H 0.72587 0.10401 0.38851 0.0
H1278 H 0.84867 0.10639 0.33035 0.0
H1279 H 0.68948 0.10903 0.30711 0.0
H1280 H 0.77116 0.11319 0.36892 0.0
H1281 H 0.76709 0.12555 0.27255 0.0
C1282 C 0.81033 0.11848 0.27278 0.0
C1283 C 0.83359 0.11192 0.2886 0.0
C1284 C 0.75323 0.11247 0.3554 0.0
C1285 C 0.78291 0.11821 0.31385 0.0
C1286 C 0.72737 0.10711 0.36653 0.0
C1287 C 0.70389 0.10524 0.34934 0.0
C1288 C 0.75562 0.11602 0.32689 0.0
C1289 C 0.70705 0.10983 0.32109 0.0
C1290 C 0.78502 0.12174 0.28532 0.0
C1291 C 0.83118 0.11109 0.31733 0.0
N1292 N 0.73246 0.1148 0.31073 0.0
N1293 N 0.80613 0.11369 0.32903 0.0
H1294 H 0.64418 0.09265 0.06087 0.0
H1295 H 0.6301 0.96847 0.12809 0.0
H1296 H 0.64334 0.04443 0.98557 0.0
H1297 H 0.64882 0.93199 0.04926 0.0
H1298 H 0.62265 0.01219 0.10574 0.0
H1299 H 0.63418 0.05111 0.08644 0.0
C1300 C 0.64116 0.07336 0.04962 0.0
C1301 C 0.64514 0.07195 0.02111 0.0
C1302 C 0.62864 0.99487 0.0932 0.0
C1303 C 0.63347 0.02385 0.05028 0.0
C1304 C 0.63274 0.96972 0.10603 0.0
C1305 C 0.64078 0.94669 0.09064 0.0
C1306 C 0.63304 -0.00288 0.06476 0.0
C1307 C 0.64311 0.9493 0.06204 0.0
C1308 C 0.63536 0.04942 0.0643 0.0
C1309 C 0.6409 0.04642 0.00762 0.0
N1310 N 0.6396 0.97414 0.05012 0.0
N1311 N 0.63575 0.02335 0.02238 0.0
H1312 H 0.71414 0.04269 0.81037 0.0
H1313 H 0.75939 0.13414 0.68248 0.0
H1314 H 0.66582 0.05111 0.73578 0.0
H1315 H 0.81391 0.1161 0.75054 0.0
H1316 H 0.72157 0.11165 0.70658 0.0
H1317 H 0.74754 0.07665 0.79315 0.0
C1318 C 0.71039 0.05188 0.79051 0.0
C1319 C 0.68734 0.0438 0.77431 0.0
C1320 C 0.74173 0.11285 0.71641 0.0
C1321 C 0.72538 0.08265 0.75459 0.0
C1322 C 0.76335 0.12573 0.70268 0.0
C1323 C 0.78998 0.12651 0.71427 0.0
C1324 C 0.74674 0.10049 0.74189 0.0
C1325 C 0.79376 0.11571 0.7407 0.0
C1326 C 0.72948 0.07125 0.7807 0.0
C1327 C 0.68346 0.05648 0.74881 0.0
N1328 N 0.77243 0.10275 0.75347 0.0
N1329 N 0.70239 0.07513 0.73967 0.0
H1330 H 0.72048 0.88937 0.42835 0.0
H1331 H 0.65621 0.002 0.37064 0.0
H1332 H 0.73227 0.94354 0.49897 0.0
H1333 H 0.65004 0.03279 0.45407 0.0
H1334 H 0.67788 0.96096 0.38797 0.0
H1335 H 0.68793 0.92169 0.40897 0.0
C1336 C 0.7162 0.90805 0.43978 0.0
C1337 C 0.72951 0.91399 0.46507 0.0
C1338 C 0.67116 0.97621 0.40265 0.0
C1339 C 0.69282 0.95149 0.44275 0.0
C1340 C 0.65891 -0.00012 0.39268 0.0
C1341 C 0.6516 0.0211 0.41088 0.0
C1342 C 0.6761 0.97372 0.43108 0.0
C1343 C 0.65557 0.01714 0.43922 0.0
C1344 C 0.69779 0.92669 0.42856 0.0
C1345 C 0.72287 0.93829 0.47919 0.0
N1346 N 0.66789 0.99412 0.44838 0.0
N1347 N 0.70516 0.95617 0.46776 0.0
H1348 H 0.81837 0.00395 0.23239 0.0
H1349 H 0.74961 0.91002 0.11458 0.0
H1350 H 0.86477 0.97698 0.16239 0.0
H1351 H 0.71823 0.91551 0.19718 0.0
H1352 H 0.79174 0.93472 0.13038 0.0
H1353 H 0.78096 0.97216 0.21865 0.0
C1354 C 0.82072 0.99117 0.21416 0.0
C1355 C 0.8446 0.99316 0.19839 0.0
C1356 C 0.7757 0.9302 0.14503 0.0
C1357 C 0.80167 0.95685 0.18235 0.0
C1358 C 0.75163 0.9162 0.13603 0.0
C1359 C 0.73016 0.91098 0.15449 0.0
C1360 C 0.7781 0.93926 0.17255 0.0
C1361 C 0.73403 0.91928 0.1821 0.0
C1362 C 0.7994 0.97293 0.20638 0.0
C1363 C 0.84666 0.97598 0.1751 0.0
N1364 N 0.75735 0.93324 0.19018 0.0
N1365 N 0.82525 0.95873 0.16751 0.0
H1366 H 0.79479 0.10766 0.91089 0.0
H1367 H 0.85148 0.96143 0.95641 0.0
H1368 H 0.75322 0.05237 0.96652 0.0
H1369 H 0.87583 0.0011 0.88116 0.0
H1370 H 0.82289 0.00069 0.96714 0.0
H1371 H 0.83126 0.07387 0.90572 0.0
C1372 C 0.79339 0.08851 0.92205 0.0
C1373 C 0.77081 0.08265 0.93888 0.0
C1374 C 0.83477 0.00092 0.94844 0.0
C1375 C 0.81249 0.0444 0.93353 0.0
C1376 C 0.85127 0.97861 0.9424 0.0
C1377 C 0.86575 0.97778 0.91763 0.0
C1378 C 0.8329 0.02263 0.92971 0.0
C1379 C 0.8647 0.00073 0.9003 0.0
C1380 C 0.81416 0.0693 0.91913 0.0
C1381 C 0.77005 0.05759 0.95301 0.0
N1382 N 0.84831 0.02214 0.90654 0.0
N1383 N 0.79057 0.03943 0.95003 0.0
H1384 H 0.78839 0.69361 0.89803 0.0
H1385 H 0.9181 0.79696 0.91836 0.0
H1386 H 0.86152 0.67328 0.94428 0.0
H1387 H 0.83767 0.82086 0.88988 0.0
H1388 H 0.90141 0.74889 0.91936 0.0
H1389 H 0.81061 0.73711 0.88515 0.0
C1390 C 0.80932 0.69802 0.90506 0.0
C1391 C 0.8229 0.68 0.92273 0.0
C1392 C 0.88753 0.76468 0.91272 0.0
C1393 C 0.84831 0.72994 0.90831 0.0
C1394 C 0.897 0.79209 0.91219 0.0
C1395 C 0.87911 0.81299 0.90445 0.0
C1396 C 0.86008 0.75815 0.9052 0.0
C1397 C 0.85206 0.80549 0.89643 0.0
C1398 C 0.82193 0.72296 0.89782 0.0
C1399 C 0.85013 0.68673 0.93094 0.0
N1400 N 0.84335 0.77872 0.89713 0.0
N1401 N 0.86181 0.71137 0.92398 0.0
H1402 H 0.21039 0.81417 0.06928 0.0
H1403 H 0.34696 0.75501 0.134 0.0
H1404 H 0.28608 0.86209 0.07904 0.0
H1405 H 0.2687 0.71068 0.13152 0.0
H1406 H 0.32361 0.79677 0.12043 0.0
H1407 H 0.2296 0.77872 0.09843 0.0
C1408 C 0.23094 0.8174 0.07787 0.0
C1409 C 0.24686 0.84087 0.07132 0.0
C1410 C 0.31149 0.778 0.12323 0.0
C1411 C 0.26913 0.80019 0.10446 0.0
C1412 C 0.32482 0.75411 0.13097 0.0
C1413 C 0.30987 0.72913 0.13331 0.0
C1414 C 0.28304 0.77684 0.11762 0.0
C1415 C 0.28117 0.72934 0.1295 0.0
C1416 C 0.2419 0.79715 0.09456 0.0
C1417 C 0.2732 0.84417 0.08334 0.0
N1418 N 0.26877 0.7527 0.12143 0.0
N1419 N 0.28371 0.8238 0.09896 0.0
H1420 H 0.94367 0.44045 0.80057 0.0
H1421 H 0.00252 0.57528 0.87678 0.0
H1422 H 0.89202 0.50264 0.83531 0.0
H1423 H 0.05292 0.50679 0.85416 0.0
H1424 H 0.96144 0.54703 0.8659 0.0
H1425 H 0.9834 0.46199 0.82433 0.0
C1426 C 0.94062 0.45843 0.8135 0.0
C1427 C 0.91457 0.47004 0.8156 0.0
C1428 C 0.98147 0.53806 0.86362 0.0
C1429 C 0.96001 0.49499 0.84261 0.0
C1430 C 0.00496 0.55422 0.86974 0.0
C1431 C 0.03122 0.54355 0.86591 0.0
C1432 C 0.98425 0.51112 0.85332 0.0
C1433 C 0.0331 0.51599 0.85713 0.0
C1434 C 0.96332 0.47072 0.82709 0.0
C1435 C 0.91177 0.49315 0.83289 0.0
N1436 N 0.00993 0.50086 0.85076 0.0
N1437 N 0.9343 0.50514 0.84539 0.0
H1438 H 0.30119 0.21815 0.53917 0.0
H1439 H 0.16325 0.26941 0.60766 0.0
H1440 H 0.24235 0.16425 0.57893 0.0
H1441 H 0.22297 0.3243 0.57049 0.0
H1442 H 0.19439 0.23144 0.60144 0.0
H1443 H 0.27554 0.25782 0.5548 0.0
C1444 C 0.28304 0.21465 0.55147 0.0
C1445 C 0.27369 0.18779 0.55747 0.0
C1446 C 0.20082 0.25179 0.59479 0.0
C1447 C 0.24414 0.23317 0.57525 0.0
C1448 C 0.18299 0.27352 0.59825 0.0
C1449 C 0.19034 0.30003 0.58919 0.0
C1450 C 0.22618 0.25647 0.582 0.0
C1451 C 0.21636 0.30416 0.57757 0.0
C1452 C 0.26839 0.23735 0.56036 0.0
C1453 C 0.25019 0.18455 0.57365 0.0
N1454 N 0.23325 0.28252 0.57403 0.0
N1455 N 0.23605 0.20697 0.58172 0.0
H1456 H 0.05753 0.02445 0.77454 0.0
H1457 H 0.00953 0.91434 0.88141 0.0
H1458 H 0.11646 0.97819 0.82105 0.0
H1459 H 0.95968 0.98302 0.85838 0.0
H1460 H 0.04961 0.93792 0.8617 0.0
H1461 H 0.0217 0.01001 0.80629 0.0
C1462 C 0.06293 0.01137 0.7916 0.0
C1463 C 0.08987 0.00223 0.79506 0.0
C1464 C 0.02999 0.94802 0.86146 0.0
C1465 C 0.04893 0.98539 0.83134 0.0
C1466 C 0.00709 0.93458 0.87267 0.0
C1467 C 0.98107 0.94646 0.87105 0.0
C1468 C 0.0267 0.97329 0.84821 0.0
C1469 C 0.97921 0.97286 0.85977 0.0
C1470 C 0.04253 0.00329 0.80983 0.0
C1471 C 0.09587 0.98559 0.81767 0.0
N1472 N 0.00161 0.98513 0.8483 0.0
N1473 N 0.07541 0.97726 0.83475 0.0
H1474 H 0.63994 0.3263 0.45949 0.0
H1475 H 0.68701 0.17934 0.40477 0.0
H1476 H 0.7248 0.30389 0.45033 0.0
H1477 H 0.60195 0.20236 0.41016 0.0
H1478 H 0.70116 0.22642 0.41747 0.0
H1479 H 0.62548 0.28266 0.43738 0.0
C1480 C 0.65553 0.31234 0.4526 0.0
C1481 C 0.6836 0.31859 0.45708 0.0
C1482 C 0.67939 0.22124 0.4157 0.0
C1483 C 0.66724 0.26862 0.43193 0.0
C1484 C 0.6713 0.19433 0.40849 0.0
C1485 C 0.64325 0.18679 0.40677 0.0
C1486 C 0.65932 0.24075 0.42138 0.0
C1487 C 0.62381 0.20718 0.41148 0.0
C1488 C 0.64727 0.28742 0.43999 0.0
C1489 C 0.70291 0.29981 0.44757 0.0
N1490 N 0.63221 0.23317 0.41883 0.0
N1491 N 0.69436 0.27558 0.43568 0.0
H1492 H 0.92221 0.34826 0.70404 0.0
H1493 H 0.04675 0.41973 0.62586 0.0
H1494 H 0.92147 0.43211 0.6753 0.0
H1495 H 0.04168 0.33257 0.64277 0.0
H1496 H -0.00106 0.42369 0.63997 0.0
H1497 H 0.96361 0.34069 0.67734 0.0
C1498 C 0.93047 0.36494 0.69177 0.0
C1499 C 0.91868 0.391 0.69233 0.0
C1500 C 0.00822 0.40365 0.64032 0.0
C1501 C 0.96619 0.38262 0.66206 0.0
C1502 C 0.03555 0.40141 0.63237 0.0
C1503 C 0.04839 0.37589 0.6336 0.0
C1504 C 0.99374 0.38025 0.64978 0.0
C1505 C 0.03276 0.35276 0.64184 0.0
C1506 C 0.95415 0.36063 0.67656 0.0
C1507 C 0.93012 0.41179 0.67583 0.0
N1508 N 0.00637 0.35556 0.64993 0.0
N1509 N 0.9535 0.40728 0.66172 0.0
H1510 H 0.57913 0.60323 0.18874 0.0
H1511 H 0.42008 0.57673 0.15241 0.0
H1512 H 0.54261 0.52306 0.16964 0.0
H1513 H 0.45653 0.65789 0.16653 0.0
H1514 H 0.46578 0.55736 0.15447 0.0
H1515 H 0.53568 0.62429 0.17604 0.0
C1516 C 0.56211 0.59007 0.18151 0.0
C1517 C 0.56439 0.56129 0.18059 0.0
C1518 C 0.46385 0.57943 0.15695 0.0
C1519 C 0.51458 0.58524 0.1663 0.0
C1520 C 0.43772 0.59052 0.15589 0.0
C1521 C 0.43443 0.61895 0.1597 0.0
C1522 C 0.48694 0.59684 0.16208 0.0
C1523 C 0.45809 0.63582 0.16371 0.0
C1524 C 0.53728 0.60212 0.17432 0.0
C1525 C 0.54172 0.5453 0.17093 0.0
N1526 N 0.48335 0.62446 0.16507 0.0
N1527 N 0.51767 0.55748 0.16446 0.0
H1528 H 0.59605 0.75126 0.84177 0.0
H1529 H 0.62105 0.62479 0.73935 0.0
H1530 H 0.55102 0.67346 0.84385 0.0
H1531 H 0.64498 0.70897 0.72147 0.0
H1532 H 0.60566 0.63977 0.78452 0.0
H1533 H 0.62405 0.73306 0.80456 0.0
C1534 C 0.59236 0.7302 0.83474 0.0
C1535 C 0.57091 0.71395 0.84561 0.0
C1536 C 0.61456 0.6549 0.77081 0.0
C1537 C 0.60284 0.69312 0.80323 0.0
C1538 C 0.6234 0.64639 0.745 0.0
C1539 C 0.6338 0.66576 0.72632 0.0
C1540 C 0.61623 0.68294 0.77809 0.0
C1541 C 0.63669 0.6934 0.73503 0.0
C1542 C 0.60828 0.71991 0.81346 0.0
C1543 C 0.56709 0.68681 0.83579 0.0
N1544 N 0.62765 0.70123 0.76023 0.0
N1545 N 0.58277 0.6773 0.815 0.0
H1546 H 0.46671 0.31005 0.05145 0.0
H1547 H 0.59221 0.38978 0.9808 0.0
H1548 H 0.54979 0.3146 0.08426 0.0
H1549 H 0.51321 0.3749 0.94076 0.0
H1550 H 0.57353 0.37142 0.02329 0.0
H1551 H 0.48047 0.34165 0.01498 0.0
C1552 C 0.48779 0.31785 0.05112 0.0
C1553 C 0.50725 0.30937 0.0707 0.0
C1554 C 0.56014 0.37251 0.00534 0.0
C1555 C 0.52302 0.34563 0.02918 0.0
C1556 C 0.57076 0.38311 0.98108 0.0
C1557 C 0.5544 0.38334 0.95704 0.0
C1558 C 0.53301 0.36189 0.00556 0.0
C1559 C 0.52664 0.37485 0.95874 0.0
C1560 C 0.4956 0.33591 0.03032 0.0
C1561 C 0.5342 0.32029 0.06939 0.0
N1562 N 0.51693 0.36399 0.98249 0.0
N1563 N 0.54132 0.33771 0.04888 0.0
H1564 H 0.91259 0.28152 0.33155 0.0
H1565 H 0.85338 0.27078 0.17802 0.0
H1566 H 0.89691 0.20442 0.28809 0.0
H1567 H 0.86714 0.34768 0.22244 0.0
H1568 H 0.86278 0.24588 0.2203 0.0
H1569 H 0.88991 0.30565 0.29417 0.0
C1570 C 0.90415 0.26961 0.31425 0.0
C1571 C 0.90704 0.24093 0.31275 0.0
C1572 C 0.86342 0.2682 0.2209 0.0
C1573 C 0.88113 0.26851 0.26975 0.0
C1574 C 0.85803 0.28247 0.19674 0.0
C1575 C 0.85996 0.3114 0.19655 0.0
C1576 C 0.87096 0.28293 0.24502 0.0
C1577 C 0.86572 0.32539 0.22152 0.0
C1578 C 0.89115 0.28343 0.29291 0.0
C1579 C 0.8954 0.22657 0.28999 0.0
N1580 N 0.87139 0.31101 0.24466 0.0
N1581 N 0.88325 0.24056 0.26922 0.0
H1582 H 0.91957 0.6868 0.60623 0.0
H1583 H 0.96143 0.61467 0.46517 0.0
H1584 H 0.00254 0.68227 0.57623 0.0
H1585 H 0.87773 0.63244 0.48672 0.0
H1586 H 0.97628 0.62763 0.51183 0.0
H1587 H 0.90384 0.65608 0.56842 0.0
C1588 C 0.93451 0.67902 0.59195 0.0
C1589 C 0.96228 0.68752 0.59397 0.0
C1590 C 0.95459 0.62828 0.50647 0.0
C1591 C 0.94455 0.65243 0.55095 0.0
C1592 C 0.94607 0.6208 0.47983 0.0
C1593 C 0.9184 0.62323 0.47178 0.0
C1594 C 0.93533 0.63833 0.52513 0.0
C1595 C 0.89938 0.63083 0.49185 0.0
C1596 C 0.92554 0.66152 0.5704 0.0
C1597 C 0.98084 0.67668 0.57508 0.0
N1598 N 0.90828 0.63861 0.51748 0.0
N1599 N 0.97159 0.65993 0.55421 0.0
H1600 H 0.54731 0.24741 0.6973 0.0
H1601 H 0.58564 0.39206 0.7692 0.0
H1602 H 0.57152 0.31942 0.65152 0.0
H1603 H 0.56644 0.31724 0.81302 0.0
H1604 H 0.58495 0.36542 0.726 0.0
H1605 H 0.56012 0.27166 0.73997 0.0
C1606 C 0.55593 0.26818 0.69626 0.0
C1607 C 0.55822 0.28153 0.67096 0.0
C1608 C 0.58105 0.35487 0.74512 0.0
C1609 C 0.57215 0.3098 0.71975 0.0
C1610 C 0.58126 0.37007 0.76976 0.0
C1611 C 0.57568 0.35695 0.79475 0.0
C1612 C 0.5752 0.32637 0.74551 0.0
C1613 C 0.5705 0.32836 0.79426 0.0
C1614 C 0.56309 0.28211 0.72063 0.0
C1615 C 0.56953 0.30841 0.67067 0.0
N1616 N 0.57024 0.31411 0.77007 0.0
N1617 N 0.57563 0.32191 0.69481 0.0
H1618 H 0.02244 0.34529 0.95743 0.0
H1619 H 0.86716 0.34572 0.00988 0.0
H1620 H 0.95172 0.33866 0.90265 0.0
H1621 H 0.93916 0.34481 0.06303 0.0
H1622 H 0.89735 0.34949 0.97 0.0
H1623 H 0.99177 0.35295 0.99588 0.0
C1624 C 0.00047 0.3459 0.9534 0.0
C1625 C 0.98962 0.34088 0.92684 0.0
C1626 C 0.90647 0.34858 0.99044 0.0
C1627 C 0.95429 0.34917 0.9709 0.0
C1628 C 0.88926 0.34632 0.01318 0.0
C1629 C 0.90063 0.34452 0.03981 0.0
C1630 C 0.9352 0.34918 0.99443 0.0
C1631 C 0.92942 0.34571 0.04289 0.0
C1632 C 0.98293 0.35013 0.97541 0.0
C1633 C 0.96099 0.34219 0.92283 0.0
N1634 N 0.94565 0.34785 0.0205 0.0
N1635 N 0.94426 0.3458 0.94471 0.0
H1636 H 0.98782 0.77392 0.23305 0.0
H1637 H 0.92857 0.62735 0.28173 0.0
H1638 H 0.97673 0.70342 0.17848 0.0
H1639 H 0.9425 0.69791 0.33574 0.0
H1640 H 0.94281 0.6556 0.24277 0.0
H1641 H 0.96708 0.7473 0.26998 0.0
C1642 C 0.98076 0.75293 0.22875 0.0
C1643 C 0.98425 0.7408 0.20273 0.0
C1644 C 0.94267 0.66486 0.26317 0.0
C1645 C 0.96075 0.71007 0.24498 0.0
C1646 C 0.93463 0.64873 0.28541 0.0
C1647 C 0.9346 0.66019 0.31208 0.0
C1648 C 0.95067 0.69261 0.26767 0.0
C1649 C 0.94244 0.68809 0.31561 0.0
C1650 C 0.96899 0.73769 0.24987 0.0
C1651 C 0.9746 0.71355 0.1983 0.0
N1652 N 0.95021 0.70328 0.29369 0.0
N1653 N 0.96349 0.69901 0.2193 0.0
H1654 H 0.53822 0.69812 0.44814 0.0
H1655 H 0.67184 0.66971 0.54029 0.0
H1656 H 0.62113 0.70567 0.41773 0.0
H1657 H 0.58908 0.67274 0.57131 0.0
H1658 H 0.65355 0.67637 0.49368 0.0
H1659 H 0.55643 0.6808 0.4914 0.0
C1660 C 0.56024 0.69573 0.45039 0.0
C1661 C 0.57823 0.70381 0.42947 0.0
C1662 C 0.63944 0.67548 0.51072 0.0
C1663 C 0.59924 0.68438 0.47913 0.0
C1664 C 0.64986 0.6718 0.53732 0.0
C1665 C 0.632 0.67106 0.55979 0.0
C1666 C 0.61098 0.67828 0.50659 0.0
C1667 C 0.60368 0.67357 0.55469 0.0
C1668 C 0.57065 0.68596 0.47517 0.0
C1669 C 0.60654 0.69995 0.43343 0.0
N1670 N 0.59408 0.67715 0.52867 0.0
N1671 N 0.61623 0.69085 0.45798 0.0
H1672 H 0.78573 0.50285 0.77295 0.0
H1673 H 0.75149 0.59633 0.64426 0.0
H1674 H 0.83787 0.50906 0.70193 0.0
H1675 H 0.70528 0.59626 0.71957 0.0
H1676 H 0.7862 0.56835 0.66666 0.0
H1677 H 0.75868 0.54057 0.7554 0.0
C1678 C 0.79161 0.51229 0.75374 0.0
C1679 C 0.81385 0.50258 0.7387 0.0
C1680 C 0.76863 0.57476 0.67837 0.0
C1681 C 0.78287 0.54571 0.71837 0.0
C1682 C 0.74881 0.59077 0.6656 0.0
C1683 C 0.72517 0.59822 0.67989 0.0
C1684 C 0.76467 0.56607 0.70554 0.0
C1685 C 0.72293 0.59062 0.70758 0.0
C1686 C 0.77619 0.5339 0.74375 0.0
C1687 C 0.82073 0.51579 0.71409 0.0
N1688 N 0.74223 0.57468 0.71937 0.0
N1689 N 0.80506 0.53649 0.7045 0.0
H1690 H 0.69488 0.61149 0.92522 0.0
H1691 H 0.6441 0.45596 0.94705 0.0
H1692 H 0.74047 0.55291 0.9726 0.0
H1693 H 0.62704 0.49807 0.87111 0.0
H1694 H 0.67109 0.49621 0.96332 0.0
H1695 H 0.66217 0.57415 0.91111 0.0
C1696 C 0.69792 0.59084 0.93272 0.0
C1697 C 0.72048 0.58519 0.94994 0.0
C1698 C 0.6612 0.49669 0.9432 0.0
C1699 C 0.68306 0.54289 0.93447 0.0
C1700 C 0.64563 0.47382 0.93394 0.0
C1701 C 0.63349 0.47352 0.90752 0.0
C1702 C 0.66435 0.51964 0.92616 0.0
C1703 C 0.63627 0.49733 0.8915 0.0
C1704 C 0.67934 0.56964 0.92464 0.0
C1705 C 0.72351 0.55811 0.95909 0.0
N1706 N 0.6515 0.51947 0.90105 0.0
N1707 N 0.70493 0.53802 0.95138 0.0
H1708 H 0.67839 0.4419 0.23803 0.0
H1709 H 0.76169 0.40427 0.10249 0.0
H1710 H 0.67554 0.48935 0.16348 0.0
H1711 H 0.77627 0.36844 0.18212 0.0
H1712 H 0.7227 0.42875 0.12152 0.0
H1713 H 0.70714 0.40857 0.21484 0.0
C1714 C 0.68362 0.44522 0.21671 0.0
C1715 C 0.67486 0.46868 0.2028 0.0
C1716 C 0.73421 0.4152 0.13469 0.0
C1717 C 0.70778 0.43052 0.1761 0.0
C1718 C 0.75634 0.40107 0.1238 0.0
C1719 C 0.77249 0.3846 0.14086 0.0
C1720 C 0.72813 0.41268 0.16275 0.0
C1721 C 0.76461 0.38124 0.16833 0.0
C1722 C 0.70004 0.42616 0.20347 0.0
C1723 C 0.68209 0.47173 0.17509 0.0
N1724 N 0.74317 0.39538 0.17848 0.0
N1725 N 0.69833 0.45298 0.16271 0.0
H1726 H 0.80327 0.43261 0.48797 0.0
H1727 H 0.84264 0.52651 0.35957 0.0
H1728 H 0.77013 0.41749 0.40602 0.0
H1729 H 0.8592 0.54882 0.44467 0.0
H1730 H 0.82262 0.48237 0.37458 0.0
H1731 H 0.83111 0.47073 0.47046 0.0
C1732 C 0.80202 0.43714 0.46621 0.0
C1733 C 0.78402 0.42209 0.44849 0.0
C1734 C 0.8308 0.49692 0.38988 0.0
C1735 C 0.81579 0.46592 0.42835 0.0
C1736 C 0.84223 0.52206 0.38136 0.0
C1737 C 0.85226 0.54149 0.40094 0.0
C1738 C 0.8297 0.49117 0.41812 0.0
C1739 C 0.85135 0.53463 0.42888 0.0
C1740 C 0.8179 0.45898 0.45624 0.0
C1741 C 0.78355 0.42872 0.42044 0.0
N1742 N 0.84019 0.5101 0.43661 0.0
N1743 N 0.79902 0.45037 0.41124 0.0
H1744 H 0.82422 0.38241 0.83354 0.0
H1745 H 0.66376 0.39209 0.79967 0.0
H1746 H 0.7902 0.38981 0.75141 0.0
H1747 H 0.69808 0.38729 0.88197 0.0
H1748 H 0.70933 0.38394 0.78113 0.0
H1749 H 0.77766 0.37565 0.85095 0.0
C1750 C 0.80703 0.38204 0.81908 0.0
C1751 C 0.81106 0.38725 0.79107 0.0
C1752 C 0.70684 0.38447 0.80324 0.0
C1753 C 0.75776 0.37996 0.81089 0.0
C1754 C 0.68085 0.38925 0.81385 0.0
C1755 C 0.67719 0.39089 0.84242 0.0
C1756 C 0.72935 0.38137 0.82133 0.0
C1757 C 0.7 0.38661 0.85979 0.0
C1758 C 0.78042 0.37834 0.82906 0.0
C1759 C 0.78802 0.38634 0.77326 0.0
N1760 N 0.72514 0.3823 0.84897 0.0
N1761 N 0.76233 0.38324 0.78353 0.0
H1762 H 0.86801 0.54451 0.98356 0.0
H1763 H 0.84083 0.46113 0.12172 0.0
H1764 H 0.82544 0.57771 0.0535 0.0
H1765 H 0.87119 0.42538 0.04655 0.0
H1766 H 0.84394 0.50675 0.10074 0.0
H1767 H 0.87873 0.50388 0.01039 0.0
C1768 C 0.86128 0.54348 0.00469 0.0
C1769 C 0.84533 0.56428 0.01612 0.0
C1770 C 0.85017 0.48891 0.08898 0.0
C1771 C 0.8573 0.51773 0.04685 0.0
C1772 C 0.84842 0.46291 0.10094 0.0
C1773 C 0.85525 0.4394 0.08565 0.0
C1774 C 0.85897 0.49135 0.06166 0.0
C1775 C 0.86518 0.4429 0.05889 0.0
C1776 C 0.86733 0.52022 0.01998 0.0
C1777 C 0.83743 0.56195 0.04372 0.0
N1778 N 0.86653 0.46834 0.04768 0.0
N1779 N 0.84317 0.53888 0.05803 0.0
H1780 H 0.73306 0.59635 0.21236 0.0
H1781 H 0.79056 0.62739 0.36436 0.0
H1782 H 0.6831 0.5951 0.28517 0.0
H1783 H 0.84167 0.62489 0.29239 0.0
H1784 H 0.74978 0.62448 0.33446 0.0
H1785 H 0.7716 0.61544 0.24005 0.0
C1786 C 0.73006 0.60045 0.23407 0.0
C1787 C 0.70499 0.59364 0.24657 0.0
C1788 C 0.76992 0.62491 0.32518 0.0
C1789 C 0.74898 0.61532 0.27837 0.0
C1790 C 0.79324 0.6266 0.34226 0.0
C1791 C 0.8196 0.62577 0.33091 0.0
C1792 C 0.77297 0.62223 0.29656 0.0
C1793 C 0.82176 0.62511 0.3021 0.0
C1794 C 0.75209 0.61132 0.24988 0.0
C1795 C 0.70221 0.59961 0.27474 0.0
N1796 N 0.79875 0.62295 0.28593 0.0
N1797 N 0.72403 0.60979 0.28974 0.0
H1798 H 0.68428 0.47197 0.47896 0.0
H1799 H 0.64705 0.53559 0.6254 0.0
H1800 H 0.67314 0.42408 0.55249 0.0
H1801 H 0.66611 0.58431 0.55399 0.0
H1802 H 0.64736 0.49404 0.59663 0.0
H1803 H 0.66792 0.51243 0.5036 0.0
C1804 C 0.67789 0.46982 0.50012 0.0
C1805 C 0.68061 0.44477 0.51388 0.0
C1806 C 0.65123 0.51385 0.5872 0.0
C1807 C 0.66217 0.49098 0.54222 0.0
C1808 C 0.65111 0.53759 0.60363 0.0
C1809 C 0.65714 0.56343 0.5922 0.0
C1810 C 0.65748 0.51593 0.55915 0.0
C1811 C 0.66183 0.56478 0.56378 0.0
C1812 C 0.66867 0.49296 0.51421 0.0
C1813 C 0.67184 0.44313 0.54122 0.0
N1814 N 0.66221 0.54131 0.54829 0.0
N1815 N 0.66338 0.46603 0.55462 0.0
H1816 H 0.81949 0.79421 0.57381 0.0
H1817 H 0.67726 0.74626 0.63949 0.0
H1818 H 0.74775 0.84469 0.57811 0.0
H1819 H 0.74696 0.69353 0.63074 0.0
H1820 H 0.70616 0.78552 0.62612 0.0
H1821 H 0.79649 0.76028 0.60292 0.0
C1822 C 0.79903 0.79832 0.58112 0.0
C1823 C 0.78532 0.82208 0.5731 0.0
C1824 C 0.71525 0.76543 0.6275 0.0
C1825 C 0.75888 0.78334 0.60637 0.0
C1826 C 0.69876 0.74298 0.63521 0.0
C1827 C 0.70952 0.71642 0.63561 0.0
C1828 C 0.74264 0.76128 0.61997 0.0
C1829 C 0.73764 0.71355 0.63027 0.0
C1830 C 0.78592 0.77894 0.59776 0.0
C1831 C 0.75894 0.82646 0.58343 0.0
N1832 N 0.75312 0.73563 0.62221 0.0
N1833 N 0.74647 0.80712 0.59926 0.0
H1834 H 0.20402 0.70779 0.4297 0.0
H1835 H 0.08499 0.81635 0.40756 0.0
H1836 H 0.11773 0.68933 0.44228 0.0
H1837 H 0.17182 0.83776 0.40705 0.0
H1838 H 0.09636 0.76802 0.41295 0.0
H1839 H 0.19214 0.75345 0.41344 0.0
C1840 C 0.18253 0.71316 0.42866 0.0
C1841 C 0.16185 0.69484 0.43774 0.0
C1842 C 0.11292 0.78327 0.41152 0.0
C1843 C 0.14817 0.74715 0.41935 0.0
C1844 C 0.10646 0.8109 0.40845 0.0
C1845 C 0.12749 0.83122 0.40724 0.0
C1846 C 0.14062 0.77585 0.4133 0.0
C1847 C 0.15493 0.82286 0.40825 0.0
C1848 C 0.17578 0.7393 0.41948 0.0
C1849 C 0.13437 0.70289 0.43577 0.0
N1850 N 0.1607 0.79582 0.4114 0.0
N1851 N 0.12835 0.72856 0.42704 0.0
H1852 H 0.5844 0.88478 0.73168 0.0
H1853 H 0.4472 0.92761 0.65334 0.0
H1854 H 0.56443 0.96892 0.71366 0.0
H1855 H 0.46981 0.84316 0.66603 0.0
H1856 H 0.49239 0.94291 0.67092 0.0
H1857 H 0.54506 0.8689 0.70336 0.0
C1858 C 0.57192 0.89991 0.72154 0.0
C1859 C 0.57749 0.92822 0.72534 0.0
C1860 C 0.48758 0.92102 0.66961 0.0
C1861 C 0.53233 0.91021 0.69306 0.0
C1862 C 0.46175 0.91226 0.6596 0.0
C1863 C 0.45454 0.88407 0.65862 0.0
C1864 C 0.5063 0.90148 0.6789 0.0
C1865 C 0.47437 0.86511 0.66668 0.0
C1866 C 0.54945 0.89083 0.70536 0.0
C1867 C 0.56075 0.94689 0.71152 0.0
N1868 N 0.49922 0.87418 0.67679 0.0
N1869 N 0.53875 0.93756 0.69624 0.0
H1870 H 0.36141 0.33626 0.96644 0.0
H1871 H 0.31133 0.19179 0.90053 0.0
H1872 H 0.27622 0.3102 0.95585 0.0
H1873 H 0.39666 0.21465 0.91644 0.0
H1874 H 0.29851 0.23849 0.91311 0.0
H1875 H 0.37499 0.29537 0.94052 0.0
C1876 C 0.34555 0.32216 0.95834 0.0
C1877 C 0.31768 0.32634 0.96372 0.0
C1878 C 0.32007 0.23336 0.91361 0.0
C1879 C 0.33303 0.2796 0.93424 0.0
C1880 C 0.3274 0.20668 0.90645 0.0
C1881 C 0.35506 0.19914 0.90797 0.0
C1882 C 0.34051 0.25261 0.92245 0.0
C1883 C 0.37503 0.21943 0.91538 0.0
C1884 C 0.35331 0.2988 0.94361 0.0
C1885 C 0.29798 0.30753 0.95259 0.0
N1886 N 0.36733 0.24516 0.92267 0.0
N1887 N 0.30606 0.28483 0.93863 0.0
H1888 H 0.42396 0.61978 0.68058 0.0
H1889 H 0.57144 0.58071 0.62671 0.0
H1890 H 0.44333 0.54011 0.64649 0.0
H1891 H 0.55179 0.66188 0.65677 0.0
H1892 H 0.52262 0.56788 0.62673 0.0
H1893 H 0.46809 0.63808 0.66448 0.0
C1894 C 0.43725 0.60626 0.66926 0.0
C1895 C 0.43026 0.57822 0.66543 0.0
C1896 C 0.52891 0.5886 0.63305 0.0
C1897 C 0.48084 0.59892 0.64726 0.0
C1898 C 0.55682 0.5959 0.63315 0.0
C1899 C 0.56574 0.62221 0.64232 0.0
C1900 C 0.50978 0.60764 0.64246 0.0
C1901 C 0.54584 0.64124 0.6499 0.0
C1902 C 0.46249 0.61671 0.66013 0.0
C1903 C 0.44812 0.56174 0.65036 0.0
N1904 N 0.5188 0.63344 0.6502 0.0
N1905 N 0.47279 0.57223 0.64223 0.0
H1906 H 0.7803 0.13802 0.03882 0.0
H1907 H 0.77247 0.29731 0.08145 0.0
H1908 H 0.71043 0.18879 0.02224 0.0
H1909 H 0.84661 0.25052 0.08873 0.0
H1910 H 0.74748 0.25565 0.06605 0.0
H1911 H 0.80278 0.17692 0.06352 0.0
C1912 C 0.76955 0.15722 0.04065 0.0
C1913 C 0.74359 0.16028 0.02819 0.0
C1914 C 0.76919 0.25444 0.07115 0.0
C1915 C 0.76918 0.20478 0.05629 0.0
C1916 C 0.7835 0.27825 0.07995 0.0
C1917 C 0.81181 0.27753 0.08603 0.0
C1918 C 0.78321 0.22965 0.06835 0.0
C1919 C 0.82487 0.25211 0.08399 0.0
C1920 C 0.78243 0.17943 0.05467 0.0
C1921 C 0.73059 0.1856 0.03125 0.0
N1922 N 0.8105 0.22921 0.07511 0.0
N1923 N 0.74359 0.2069 0.04483 0.0
H1924 H 0.53762 0.95339 0.83811 0.0
H1925 H 0.48235 0.0997 0.88472 0.0
H1926 H 0.5879 0.02798 0.84392 0.0
H1927 H 0.43038 0.02711 0.87096 0.0
H1928 H 0.52279 0.07144 0.87929 0.0
H1929 H 0.5001 0.97767 0.85996 0.0
C1930 C 0.54095 0.97472 0.84443 0.0
C1931 C 0.56569 0.98887 0.83866 0.0
C1932 C 0.50253 0.06165 0.87774 0.0
C1933 C 0.52286 0.01678 0.86339 0.0
C1934 C 0.47942 0.07779 0.8808 0.0
C1935 C 0.45292 0.06587 0.87768 0.0
C1936 C 0.49912 0.03342 0.87145 0.0
C1937 C 0.45041 0.03729 0.87302 0.0
C1938 C 0.51949 0.9886 0.85682 0.0
C1939 C 0.56897 0.01642 0.84751 0.0
N1940 N 0.47322 0.0221 0.86971 0.0
N1941 N 0.54765 0.02958 0.85909 0.0
H1942 H 0.90177 0.99596 0.31407 0.0
H1943 H 0.0623 0.00404 0.35365 0.0
H1944 H 0.95889 0.05667 0.28189 0.0
H1945 H 0.008 0.93541 0.37316 0.0
H1946 H 0.02295 0.02805 0.33433 0.0
H1947 H 0.93894 0.97787 0.34242 0.0
C1948 C 0.92207 0.00562 0.31309 0.0
C1949 C 0.92729 0.02767 0.29534 0.0
C1950 C 0.01964 0.00785 0.3431 0.0
C1951 C 0.96992 0.00708 0.32778 0.0
C1952 C 0.04206 0.99418 0.35427 0.0
C1953 C 0.03851 0.96749 0.3647 0.0
C1954 C 0.99348 0.9948 0.3425 0.0
C1955 C 0.01178 0.9558 0.36501 0.0
C1956 C 0.94329 0.99526 0.32928 0.0
C1957 C 0.95399 0.03946 0.29507 0.0
N1958 N 0.99035 0.96943 0.35385 0.0
N1959 N 0.97434 0.02892 0.31092 0.0
H1960 H 0.45478 0.26989 0.20824 0.0
H1961 H 0.43028 0.41246 0.28722 0.0
H1962 H 0.48148 0.3493 0.17795 0.0
H1963 H 0.42803 0.33363 0.32757 0.0
H1964 H 0.44081 0.38918 0.24398 0.0
H1965 H 0.43624 0.29279 0.24896 0.0
C1966 C 0.45638 0.29215 0.20996 0.0
C1967 C 0.46989 0.30774 0.18985 0.0
C1968 C 0.43793 0.37699 0.26229 0.0
C1969 C 0.44884 0.33391 0.2362 0.0
C1970 C 0.43189 0.39024 0.28698 0.0
C1971 C 0.42857 0.37498 0.31112 0.0
C1972 C 0.44042 0.34825 0.26162 0.0
C1973 C 0.43076 0.34622 0.30951 0.0
C1974 C 0.44596 0.30516 0.23325 0.0
C1975 C 0.47145 0.3365 0.19311 0.0
N1976 N 0.43661 0.33375 0.28515 0.0
N1977 N 0.46115 0.34865 0.21591 0.0
H1978 H 0.47563 0.67707 0.95419 0.0
H1979 H 0.33987 0.67041 0.04504 0.0
H1980 H 0.39541 0.69972 0.92394 0.0
H1981 H 0.42243 0.66394 0.0781 0.0
H1982 H 0.35874 0.67339 -0.00122 0.0
H1983 H 0.45497 0.66336 -0.00246 0.0
C1984 C 0.45359 0.67876 0.95647 0.0
C1985 C 0.43729 0.69 0.93554 0.0
C1986 C 0.37268 0.67121 0.01616 0.0
C1987 C 0.41359 0.67457 0.98525 0.0
C1988 C 0.36196 0.66955 0.04259 0.0
C1989 C 0.37964 0.66729 0.06553 0.0
C1990 C 0.40127 0.67043 0.01263 0.0
C1991 C 0.40805 0.66604 0.06106 0.0
C1992 C 0.44184 0.67106 0.98131 0.0
C1993 C 0.40882 0.69146 0.93961 0.0
N1994 N 0.41799 0.66773 0.03514 0.0
N1995 N 0.3979 0.68414 0.96414 0.0
H1996 H 0.06715 0.73571 0.70356 0.0
H1997 H 0.08731 0.59156 0.77816 0.0
H1998 H 0.0601 0.65703 0.66115 0.0
H1999 H 0.08291 0.67006 0.82058 0.0
H2000 H 0.084 0.61538 0.73417 0.0
H2001 H 0.08095 0.71217 0.74536 0.0
C2002 C 0.06891 0.71351 0.7029 0.0
C2003 C 0.06201 0.69828 0.67892 0.0
C2004 C 0.08386 0.62735 0.75313 0.0
C2005 C 0.07746 0.67115 0.72688 0.0
C2006 C 0.08565 0.61378 0.77824 0.0
C2007 C 0.08501 0.6288 0.80311 0.0
C2008 C 0.08157 0.65614 0.75291 0.0
C2009 C 0.08311 0.65757 0.80195 0.0
C2010 C 0.07667 0.70006 0.72684 0.0
C2011 C 0.06496 0.66957 0.67925 0.0
N2012 N 0.08137 0.67027 0.77729 0.0
N2013 N 0.07212 0.65688 0.70298 0.0
H2014 H 0.04857 0.29985 0.39193 0.0
H2015 H 0.05484 0.32418 0.55512 0.0
H2016 H 0.9834 0.27728 0.44744 0.0
H2017 H 0.1235 0.34236 0.50222 0.0
H2018 H 0.02691 0.31151 0.51479 0.0
H2019 H 0.0746 0.32069 0.43088 0.0
C2020 C 0.03956 0.29967 0.41219 0.0
C2021 C 0.01393 0.28657 0.41653 0.0
C2022 C 0.04807 0.31831 0.51192 0.0
C2023 C 0.04355 0.31007 0.46103 0.0
C2024 C 0.0641 0.32548 0.53501 0.0
C2025 C 0.09169 0.33404 0.53211 0.0
C2026 C 0.05965 0.3196 0.48563 0.0
C2027 C 0.10239 0.33563 0.50544 0.0
C2028 C 0.05448 0.3114 0.43442 0.0
C2029 C 0.00324 0.28686 0.4432 0.0
N2030 N 0.08637 0.32832 0.4832 0.0
N2031 N 0.01817 0.29822 0.46442 0.0
H2032 H 0.46711 0.76337 0.32017 0.0
H2033 H 0.3701 0.64624 0.2536 0.0
H2034 H 0.44327 0.68933 0.36306 0.0
H2035 H 0.38499 0.72557 0.21655 0.0
H2036 H 0.39193 0.66363 0.29614 0.0
H2037 H 0.43302 0.7519 0.28434 0.0
C2038 C 0.45456 0.74474 0.32212 0.0
C2039 C 0.45832 0.72702 0.34439 0.0
C2040 C 0.39004 0.67737 0.27885 0.0
C2041 C 0.41926 0.71368 0.30331 0.0
C2042 C 0.37758 0.66746 0.25453 0.0
C2043 C 0.37621 0.6843 0.23127 0.0
C2044 C 0.40147 0.70423 0.27984 0.0
C2045 C 0.38588 0.71173 0.23382 0.0
C2046 C 0.43498 0.73826 0.3017 0.0
C2047 C 0.44119 0.70342 0.3461 0.0
N2048 N 0.39852 0.72069 0.25752 0.0
N2049 N 0.42264 0.69721 0.32558 0.0
H2050 H 0.99111 0.68442 0.0636 0.0
H2051 H 0.11309 0.60812 0.98863 0.0
H2052 H 0.07673 0.69155 0.0884 0.0
H2053 H 0.03134 0.61463 0.9536 0.0
H2054 H 0.09701 0.62839 0.03144 0.0
H2055 H 0.00301 0.64973 0.02915 0.0
C2056 C 0.01238 0.6785 0.062 0.0
C2057 C 0.03306 0.69121 0.07859 0.0
C2058 C 0.08248 0.62501 0.01453 0.0
C2059 C 0.0467 0.65146 0.03937 0.0
C2060 C 0.0916 0.61334 0.9901 0.0
C2061 C 0.07369 0.6103 0.96726 0.0
C2062 C 0.05527 0.63379 0.01615 0.0
C2063 C 0.04597 0.61695 0.97055 0.0
C2064 C 0.01912 0.65868 0.04235 0.0
C2065 C 0.0602 0.68257 0.07578 0.0
N2066 N 0.0377 0.62887 0.99441 0.0
N2067 N 0.06626 0.66338 0.05637 0.0
H2068 H 0.11638 0.25858 0.81136 0.0
H2069 H 0.1419 0.38336 0.70933 0.0
H2070 H 0.10547 0.34423 0.83266 0.0
H2071 H 0.14007 0.29776 0.68381 0.0
H2072 H 0.14018 0.36917 0.75721 0.0
H2073 H 0.13644 0.27264 0.76775 0.0
C2074 C 0.11863 0.28037 0.8071 0.0
C2075 C 0.1087 0.30027 0.82543 0.0
C2076 C 0.14051 0.35347 0.74118 0.0
C2077 C 0.13154 0.31641 0.77554 0.0
C2078 C 0.14147 0.36153 0.71381 0.0
C2079 C 0.14044 0.34169 0.69251 0.0
C2080 C 0.13834 0.32534 0.74736 0.0
C2081 C 0.1405 0.31375 0.69957 0.0
C2082 C 0.13004 0.28836 0.78216 0.0
C2083 C 0.11244 0.32818 0.81895 0.0
N2084 N 0.13897 0.30638 0.72644 0.0
N2085 N 0.12323 0.33541 0.79436 0.0
H2086 H 0.51331 0.34746 0.58943 0.0
H2087 H 0.39078 0.39713 0.49325 0.0
H2088 H 0.43364 0.30635 0.58318 0.0
H2089 H 0.47506 0.40023 0.46601 0.0
H2090 H 0.40621 0.37805 0.53678 0.0
H2091 H 0.49873 0.37984 0.55379 0.0
C2092 C 0.4926 0.34562 0.58094 0.0
C2093 C 0.47463 0.32418 0.589 0.0
C2094 C 0.42133 0.38341 0.52143 0.0
C2095 C 0.45789 0.36117 0.54903 0.0
C2096 C 0.41263 0.39437 0.49657 0.0
C2097 C 0.4316 0.39963 0.47558 0.0
C2098 C 0.44922 0.37801 0.52557 0.0
C2099 C 0.45968 0.39609 0.48143 0.0
C2100 C 0.48441 0.36396 0.56063 0.0
C2101 C 0.44813 0.32248 0.5773 0.0
N2102 N 0.46767 0.3851 0.50584 0.0
N2103 N 0.44052 0.34078 0.5579 0.0
H2104 H 0.20557 0.4241 0.25509 0.0
H2105 H 0.29932 0.39086 0.38525 0.0
H2106 H 0.17379 0.39872 0.33364 0.0
H2107 H 0.33166 0.41838 0.30766 0.0
H2108 H 0.25378 0.38576 0.36401 0.0
H2109 H 0.25192 0.41397 0.27117 0.0
C2110 C 0.20828 0.41601 0.27561 0.0
C2111 C 0.18582 0.41276 0.29328 0.0
C2112 C 0.27083 0.39268 0.35151 0.0
C2113 C 0.2389 0.40133 0.31184 0.0
C2114 C 0.29685 0.3957 0.36365 0.0
C2115 C 0.31919 0.40565 0.34832 0.0
C2116 C 0.26698 0.39988 0.32388 0.0
C2117 C 0.31492 0.41098 0.3203 0.0
C2118 C 0.23479 0.41025 0.28477 0.0
C2119 C 0.19053 0.40185 0.31946 0.0
N2120 N 0.28918 0.40841 0.30905 0.0
N2121 N 0.21663 0.39691 0.3281 0.0
H2122 H 0.31287 0.45455 0.0179 0.0
H2123 H 0.35285 0.54636 0.14958 0.0
H2124 H 0.34311 0.42145 0.09437 0.0
H2125 H 0.32941 0.58031 0.07114 0.0
H2126 H 0.35438 0.50084 0.12807 0.0
H2127 H 0.32465 0.50091 0.03491 0.0
C2128 C 0.3224 0.457 0.03812 0.0
C2129 C 0.32651 0.43415 0.05499 0.0
C2130 C 0.34908 0.51824 0.11549 0.0
C2131 C 0.33972 0.48716 0.07468 0.0
C2132 C 0.34801 0.54424 0.1278 0.0
C2133 C 0.34046 0.56708 0.11223 0.0
C2134 C 0.34232 0.51497 0.08743 0.0
C2135 C 0.33498 0.5632 0.08399 0.0
C2136 C 0.32909 0.4835 0.04783 0.0
C2137 C 0.33927 0.4385 0.08081 0.0
N2138 N 0.33572 0.53754 0.07255 0.0
N2139 N 0.34501 0.46457 0.09006 0.0
H2140 H 0.2923 0.60063 0.7409 0.0
H2141 H 0.21302 0.60047 0.88367 0.0
H2142 H 0.33314 0.59806 0.82036 0.0
H2143 H 0.17258 0.59603 0.80389 0.0
H2144 H 0.25722 0.60663 0.861 0.0
H2145 H 0.24858 0.6069 0.76386 0.0
C2146 C 0.29216 0.6018 0.76318 0.0
C2147 C 0.31637 0.59835 0.77875 0.0
C2148 C 0.23866 0.60447 0.84846 0.0
C2149 C 0.26628 0.60521 0.80515 0.0
C2150 C 0.2134 0.60088 0.86138 0.0
C2151 C 0.18907 0.59728 0.84564 0.0
C2152 C 0.23963 0.6045 0.81959 0.0
C2153 C 0.19082 0.59834 0.81685 0.0
C2154 C 0.26714 0.60529 0.77628 0.0
C2155 C 0.31495 0.60034 0.80754 0.0
N2156 N 0.21569 0.60166 0.80476 0.0
N2157 N 0.29024 0.60328 0.81984 0.0
H2158 H 0.12674 0.59494 0.55392 0.0
H2159 H 0.13119 0.43412 0.52242 0.0
H2160 H 0.15364 0.55969 0.47712 0.0
H2161 H 0.10858 0.46979 0.60051 0.0
H2162 H 0.12874 0.47972 0.50177 0.0
H2163 H 0.1091 0.54953 0.56723 0.0
C2164 C 0.12849 0.57778 0.53963 0.0
C2165 C 0.14232 0.58097 0.51469 0.0
C2166 C 0.12388 0.47748 0.52333 0.0
C2167 C 0.12248 0.52891 0.5299 0.0
C2168 C 0.12524 0.45142 0.53511 0.0
C2169 C 0.1208 0.4483 0.56339 0.0
C2170 C 0.1181 0.50047 0.53999 0.0
C2171 C 0.11284 0.47138 0.57876 0.0
C2172 C 0.11846 0.55181 0.54727 0.0
C2173 C 0.14365 0.55806 0.49683 0.0
N2174 N 0.11216 0.49655 0.56697 0.0
N2175 N 0.13432 0.5329 0.505 0.0
H2176 H 0.18571 0.54909 0.28282 0.0
H2177 H 0.2479 0.61684 0.14773 0.0
H2178 H 0.15656 0.52988 0.2002 0.0
H2179 H 0.28728 0.62211 0.22801 0.0
H2180 H 0.20799 0.59414 0.16832 0.0
H2181 H 0.21653 0.5846 0.26441 0.0
C2182 C 0.18553 0.55255 0.26083 0.0
C2183 C 0.16889 0.53616 0.24294 0.0
C2184 C 0.22523 0.60059 0.18147 0.0
C2185 C 0.20412 0.57677 0.22181 0.0
C2186 C 0.24803 0.61362 0.16976 0.0
C2187 C 0.27126 0.62086 0.18608 0.0
C2188 C 0.22562 0.59481 0.20969 0.0
C2189 C 0.27003 0.61648 0.21455 0.0
C2190 C 0.20317 0.57282 0.25036 0.0
C2191 C 0.16933 0.54177 0.21469 0.0
N2192 N 0.24773 0.6034 0.22541 0.0
N2193 N 0.18691 0.56144 0.20495 0.0
H2194 H 0.19617 0.42282 0.01282 0.0
H2195 H 0.14208 0.49502 0.8766 0.0
H2196 H 0.20516 0.38862 0.93103 0.0
H2197 H 0.13742 0.53063 0.9583 0.0
H2198 H 0.15819 0.45237 0.89672 0.0
H2199 H 0.16713 0.45833 0.99382 0.0
C2200 C 0.19171 0.42252 0.9909 0.0
C2201 C 0.20355 0.40303 0.97341 0.0
C2202 C 0.15341 0.46944 0.91024 0.0
C2203 C 0.17054 0.44385 0.95148 0.0
C2204 C 0.14425 0.49383 0.89878 0.0
C2205 C 0.13887 0.51664 0.91576 0.0
C2206 C 0.15724 0.46784 0.93889 0.0
C2207 C 0.14173 0.51375 0.94437 0.0
C2208 C 0.17516 0.44287 0.98005 0.0
C2209 C 0.19675 0.40345 0.94524 0.0
N2210 N 0.15097 0.48991 0.955 0.0
N2211 N 0.18101 0.42382 0.93508 0.0
H2212 H 0.31417 0.52637 0.62838 0.0
H2213 H 0.20787 0.40769 0.66903 0.0
H2214 H 0.31862 0.4835 0.70563 0.0
H2215 H 0.21982 0.43228 0.58483 0.0
H2216 H 0.2486 0.43531 0.68278 0.0
H2217 H 0.27985 0.49212 0.61168 0.0
C2218 C 0.30812 0.50963 0.64173 0.0
C2219 C 0.31908 0.50792 0.66852 0.0
C2220 C 0.2425 0.43443 0.66125 0.0
C2221 C 0.27971 0.46889 0.64965 0.0
C2222 C 0.2192 0.41874 0.6534 0.0
C2223 C 0.21033 0.41787 0.62579 0.0
C2224 C 0.25679 0.44971 0.64141 0.0
C2225 C 0.22592 0.43241 0.60636 0.0
C2226 C 0.28859 0.49006 0.63216 0.0
C2227 C 0.31063 0.4857 0.68487 0.0
N2228 N 0.24821 0.44805 0.6146 0.0
N2229 N 0.2912 0.46725 0.67529 0.0
H2230 H 0.27258 0.57952 0.48812 0.0
H2231 H 0.36932 0.51083 0.37712 0.0
H2232 H 0.2888 0.61481 0.40863 0.0
H2233 H 0.354 0.47688 0.4574 0.0
H2234 H 0.34494 0.55208 0.39049 0.0
H2235 H 0.30692 0.54498 0.47934 0.0
C2236 C 0.2835 0.58012 0.46884 0.0
C2237 C 0.27752 0.59986 0.44887 0.0
C2238 C 0.34716 0.53575 0.4053 0.0
C2239 C 0.31691 0.56018 0.43867 0.0
C2240 C 0.36108 0.51215 0.39769 0.0
C2241 C 0.36331 0.49012 0.41601 0.0
C2242 C 0.33521 0.53732 0.43137 0.0
C2243 C 0.35256 0.49321 0.4425 0.0
C2244 C 0.30319 0.56039 0.46388 0.0
C2245 C 0.29262 0.59985 0.42449 0.0
N2246 N 0.33868 0.51622 0.44925 0.0
N2247 N 0.31142 0.58008 0.41992 0.0
H2248 H 0.38096 0.18561 0.45469 0.0
H2249 H 0.33753 0.32932 0.39451 0.0
H2250 H 0.30251 0.19838 0.41457 0.0
H2251 H 0.42115 0.31155 0.41829 0.0
H2252 H 0.32516 0.2805 0.3989 0.0
H2253 H 0.39748 0.23013 0.43778 0.0
C2254 C 0.36738 0.19753 0.44188 0.0
C2255 C 0.34015 0.18849 0.43645 0.0
C2256 C 0.34628 0.28724 0.40291 0.0
C2257 C 0.35875 0.23965 0.41747 0.0
C2258 C 0.35331 0.31515 0.40059 0.0
C2259 C 0.38032 0.3246 0.40643 0.0
C2260 C 0.36633 0.26868 0.41143 0.0
C2261 C 0.4 0.30523 0.41382 0.0
C2262 C 0.37681 0.22299 0.43228 0.0
C2263 C 0.32356 0.20466 0.41953 0.0
N2264 N 0.39254 0.27824 0.41642 0.0
N2265 N 0.33296 0.2297 0.41106 0.0
H2266 H 0.7083 0.31223 0.59008 0.0
H2267 H 0.8518 0.26106 0.64872 0.0
H2268 H 0.78746 0.34997 0.57257 0.0
H2269 H 0.77517 0.21446 0.65431 0.0
H2270 H 0.82641 0.30027 0.63192 0.0
H2271 H 0.73061 0.28284 0.62386 0.0
C2272 C 0.73029 0.31463 0.59362 0.0
C2273 C 0.74615 0.33315 0.5781 0.0
C2274 C 0.8151 0.2816 0.63722 0.0
C2275 C 0.77171 0.29972 0.61666 0.0
C2276 C 0.82958 0.25919 0.64688 0.0
C2277 C 0.81568 0.23415 0.6522 0.0
C2278 C 0.78655 0.27893 0.63274 0.0
C2279 C 0.78682 0.23317 0.64994 0.0
C2280 C 0.743 0.29784 0.61289 0.0
C2281 C 0.77452 0.33559 0.58371 0.0
N2282 N 0.77323 0.25509 0.63988 0.0
N2283 N 0.78643 0.31883 0.60232 0.0
H2284 H 0.40129 0.02189 0.32473 0.0
H2285 H 0.56407 0.0158 0.34942 0.0
H2286 H 0.45073 0.95389 0.29869 0.0
H2287 H 0.51616 0.08779 0.36583 0.0
H2288 H 0.5216 0.98997 0.33773 0.0
H2289 H 0.44203 0.04329 0.34703 0.0
C2290 C 0.42062 0.0113 0.32397 0.0
C2291 C 0.42271 0.98627 0.30949 0.0
C2292 C 0.52039 0.01137 0.34408 0.0
C2293 C 0.46937 0.01067 0.33483 0.0
C2294 C 0.54463 0.02613 0.35077 0.0
C2295 C 0.54372 0.05414 0.35819 0.0
C2296 C 0.49507 0.02468 0.34487 0.0
C2297 C 0.5179 0.06635 0.35983 0.0
C2298 C 0.44389 0.02356 0.33665 0.0
C2299 C 0.44825 0.97339 0.30933 0.0
N2300 N 0.49463 0.05161 0.35301 0.0
N2301 N 0.47064 0.98586 0.32158 0.0
H2302 H 0.77707 0.70768 0.01483 0.0
H2303 H 0.6813 0.76559 0.13127 0.0
H2304 H 0.74441 0.65655 0.0794 0.0
H2305 H 0.73252 0.81812 0.08112 0.0
H2306 H 0.70536 0.72552 0.11395 0.0
H2307 H 0.76153 0.7484 0.03938 0.0
C2308 C 0.76664 0.70501 0.03421 0.0
C2309 C 0.76177 0.67864 0.04497 0.0
C2310 C 0.71164 0.74583 0.10703 0.0
C2311 C 0.74395 0.72526 0.07319 0.0
C2312 C 0.69791 0.7687 0.11689 0.0
C2313 C 0.70473 0.79515 0.10735 0.0
C2314 C 0.73202 0.74938 0.08714 0.0
C2315 C 0.72656 0.79807 0.08894 0.0
C2316 C 0.75795 0.72831 0.04832 0.0
C2317 C 0.74845 0.67648 0.0703 0.0
N2318 N 0.73914 0.77538 0.07906 0.0
N2319 N 0.73973 0.69949 0.08344 0.0
H2320 H 0.59868 0.48841 0.29264 0.0
H2321 H 0.45433 0.5 0.36572 0.0
H2322 H 0.55502 0.56454 0.29915 0.0
H2323 H 0.50461 0.42802 0.37004 0.0
H2324 H 0.49291 0.52554 0.34566 0.0
H2325 H 0.56637 0.46724 0.32457 0.0
C2326 C 0.58241 0.50074 0.30095 0.0
C2327 C 0.57933 0.52818 0.29296 0.0
C2328 C 0.49563 0.50427 0.35138 0.0
C2329 C 0.54216 0.50403 0.32945 0.0
C2330 C 0.4736 0.48967 0.36288 0.0
C2331 C 0.47604 0.46165 0.36912 0.0
C2332 C 0.52017 0.49069 0.34585 0.0
C2333 C 0.50163 0.44947 0.36524 0.0
C2334 C 0.56401 0.48867 0.31927 0.0
C2335 C 0.55804 0.54325 0.3046 0.0
N2336 N 0.52254 0.46394 0.35345 0.0
N2337 N 0.54005 0.53087 0.322 0.0
H2338 H 0.11703 0.82159 0.95304 0.0
H2339 H 0.17155 0.67725 0.89979 0.0
H2340 H 0.20286 0.80528 0.94002 0.0
H2341 H 0.08536 0.69569 0.90617 0.0
H2342 H 0.18324 0.72559 0.90994 0.0
H2343 H 0.1047 0.77733 0.93106 0.0
C2344 C 0.13326 0.80889 0.94524 0.0
C2345 C 0.16103 0.81695 0.94878 0.0
C2346 C 0.16175 0.7191 0.90887 0.0
C2347 C 0.14711 0.76619 0.92386 0.0
C2348 C 0.15508 0.69147 0.90314 0.0
C2349 C 0.12746 0.68229 0.90256 0.0
C2350 C 0.14067 0.73764 0.91424 0.0
C2351 C 0.10696 0.70175 0.90673 0.0
C2352 C 0.12622 0.78359 0.93273 0.0
C2353 C 0.18119 0.79974 0.93808 0.0
N2354 N 0.11399 0.72842 0.91269 0.0
N2355 N 0.17384 0.77503 0.92642 0.0
H2356 H 0.43436 0.93396 0.18233 0.0
H2357 H 0.55876 0.83116 0.16556 0.0
H2358 H 0.43673 0.85366 0.21951 0.0
H2359 H 0.56549 0.91836 0.14919 0.0
H2360 H 0.51038 0.83641 0.17639 0.0
H2361 H 0.47838 0.92527 0.16062 0.0
C2362 C 0.44386 0.91429 0.18554 0.0
C2363 C 0.43205 0.89463 0.2031 0.0
C2364 C 0.52241 0.85436 0.17029 0.0
C2365 C 0.48242 0.88472 0.17843 0.0
C2366 C 0.55006 0.85143 0.16411 0.0
C2367 C 0.56635 0.87447 0.15685 0.0
C2368 C 0.51083 0.88048 0.16907 0.0
C2369 C 0.5538 0.90012 0.15504 0.0
C2370 C 0.46907 0.90945 0.17326 0.0
C2371 C 0.44525 0.8695 0.20639 0.0
N2372 N 0.52677 0.90247 0.16127 0.0
N2373 N 0.46989 0.86536 0.19437 0.0
H2374 H 0.09357 0.12095 0.67646 0.0
H2375 H 0.93388 0.08736 0.65548 0.0
H2376 H 0.05895 0.03938 0.66043 0.0
H2377 H 0.96789 0.17 0.66595 0.0
H2378 H 0.98029 0.07037 0.65042 0.0
H2379 H 0.04897 0.14032 0.66495 0.0
C2380 C 0.07678 0.10715 0.66994 0.0
C2381 C 0.07978 0.07847 0.67003 0.0
C2382 C 0.97764 0.09226 0.65357 0.0
C2383 C 0.02871 0.10042 0.65723 0.0
C2384 C 0.95113 0.10196 0.65662 0.0
C2385 C 0.94705 0.13007 0.66169 0.0
C2386 C 0.00032 0.11074 0.6559 0.0
C2387 C 0.97012 0.14811 0.66241 0.0
C2388 C 0.05128 0.11821 0.66349 0.0
C2389 C 0.0574 0.0616 0.6612 0.0
N2390 N 0.99583 0.13807 0.65994 0.0
N2391 N 0.0327 0.07279 0.6556 0.0
loop_
_geom_bond_atom_site_label_1
_geom_bond_atom_site_label_2
_geom_bond_distance
_geom_bond_site_symmetry_2
_ccdc_geom_bond_type
C0 O1 1.160 . S
C0 O7 1.185 . S
O1 C0 1.160 . S
O2 Zn3 1.899 . S
O2 C10 1.284 . S
Zn3 O2 1.899 . S
Zn3 O4 2.032 1_455 S
Zn3 O7 2.086 . S
Zn3 O12 1.977 1_455 S
O4 Zn3 2.032 1_655 S
O4 C8 1.278 . S
C5 O6 1.203 . S
C5 O12 1.267 . S
O6 C5 1.203 . S
O7 C0 1.185 . S
O7 Zn3 2.086 . S
C8 O4 1.278 . S
C8 O9 1.211 . S
O9 C8 1.211 . S
C10 O2 1.284 . S
C10 O11 1.273 . S
O11 C10 1.273 . S
O12 Zn3 1.977 1_655 S
O12 C5 1.267 . S
C13 O14 1.160 . S
C13 O20 1.185 . S
O14 C13 1.160 . S
O15 Zn16 1.899 1_655 S
O15 C23 1.284 . S
Zn16 O15 1.899 1_455 S
Zn16 O17 2.032 1_455 S
Zn16 O20 2.086 . S
Zn16 O25 1.977 . S
O17 Zn16 2.032 1_655 S
O17 C21 1.278 . S
C18 O19 1.203 . S
C18 O25 1.267 . S
O19 C18 1.203 . S
O20 C13 1.185 . S
O20 Zn16 2.086 . S
C21 O17 1.278 . S
C21 O22 1.211 . S
O22 C21 1.211 . S
C23 O15 1.284 . S
C23 O24 1.273 . S
O24 C23 1.273 . S
O25 Zn16 1.977 . S
O25 C18 1.267 . S
C26 O27 1.160 . S
C26 O33 1.185 . S
O27 C26 1.160 . S
O28 Zn29 1.899 . S
O28 C36 1.284 . S
Zn29 O28 1.899 . S
Zn29 O30 2.032 . S
Zn29 O33 2.086 . S
Zn29 O38 1.977 . S
O30 Zn29 2.032 . S
O30 C34 1.278 . S
C31 O32 1.203 . S
C31 O38 1.267 . S
O32 C31 1.203 . S
O33 C26 1.185 . S
O33 Zn29 2.086 . S
C34 O30 1.278 . S
C34 O35 1.211 . S
O35 C34 1.211 . S
C36 O28 1.284 . S
C36 O37 1.273 . S
O37 C36 1.273 . S
O38 Zn29 1.977 . S
O38 C31 1.267 . S
C39 O40 1.160 . S
C39 O46 1.185 . S
O40 C39 1.160 . S
O41 Zn42 1.899 . S
O41 C49 1.284 . S
Zn42 O41 1.899 . S
Zn42 O43 2.032 . S
Zn42 O46 2.086 . S
Zn42 O51 1.977 . S
O43 Zn42 2.032 . S
O43 C47 1.278 . S
C44 O45 1.203 . S
C44 O51 1.267 . S
O45 C44 1.203 . S
O46 C39 1.185 . S
O46 Zn42 2.086 . S
C47 O43 1.278 . S
C47 O48 1.211 . S
O48 C47 1.211 . S
C49 O41 1.284 . S
C49 O50 1.273 . S
O50 C49 1.273 . S
O51 Zn42 1.977 . S
O51 C44 1.267 . S
C52 O53 1.160 . S
C52 O59 1.185 . S
O53 C52 1.160 . S
O54 Zn55 1.899 . S
O54 C62 1.284 . S
Zn55 O54 1.899 . S
Zn55 O56 2.032 1_455 S
Zn55 O59 2.086 . S
Zn55 O64 1.977 1_455 S
O56 Zn55 2.032 1_655 S
O56 C60 1.278 . S
C57 O58 1.203 . S
C57 O64 1.267 . S
O58 C57 1.203 . S
O59 C52 1.185 . S
O59 Zn55 2.086 . S
C60 O56 1.278 . S
C60 O61 1.211 . S
O61 C60 1.211 . S
C62 O54 1.284 . S
C62 O63 1.273 . S
O63 C62 1.273 . S
O64 Zn55 1.977 1_655 S
O64 C57 1.267 . S
C65 O66 1.160 . S
C65 O72 1.185 . S
O66 C65 1.160 . S
O67 Zn68 1.899 . S
O67 C75 1.284 . S
Zn68 O67 1.899 . S
Zn68 O69 2.032 . S
Zn68 O72 2.086 . S
Zn68 O77 1.977 . S
O69 Zn68 2.032 . S
O69 C73 1.278 . S
C70 O71 1.203 . S
C70 O77 1.267 . S
O71 C70 1.203 . S
O72 C65 1.185 . S
O72 Zn68 2.086 . S
C73 O69 1.278 . S
C73 O74 1.211 . S
O74 C73 1.211 . S
C75 O67 1.284 . S
C75 O76 1.273 . S
O76 C75 1.273 . S
O77 Zn68 1.977 . S
O77 C70 1.267 . S
C78 O79 1.160 . S
C78 O85 1.185 . S
O79 C78 1.160 . S
O80 Zn81 1.899 . S
O80 C88 1.284 . S
Zn81 O80 1.899 . S
Zn81 O82 2.032 . S
Zn81 O85 2.086 . S
Zn81 O90 1.977 . S
O82 Zn81 2.032 . S
O82 C86 1.278 . S
C83 O84 1.203 . S
C83 O90 1.267 . S
O84 C83 1.203 . S
O85 C78 1.185 . S
O85 Zn81 2.086 . S
C86 O82 1.278 . S
C86 O87 1.211 . S
O87 C86 1.211 . S
C88 O80 1.284 . S
C88 O89 1.273 . S
O89 C88 1.273 . S
O90 Zn81 1.977 . S
O90 C83 1.267 . S
C91 O92 1.160 . S
C91 O98 1.185 . S
O92 C91 1.160 . S
O93 Zn94 1.899 . S
O93 C101 1.284 1_455 S
Zn94 O93 1.899 . S
Zn94 O95 2.032 1_455 S
Zn94 O98 2.086 . S
Zn94 O103 1.977 . S
O95 Zn94 2.032 1_655 S
O95 C99 1.278 . S
C96 O97 1.203 . S
C96 O103 1.267 . S
O97 C96 1.203 . S
O98 C91 1.185 . S
O98 Zn94 2.086 . S
C99 O95 1.278 . S
C99 O100 1.211 . S
O100 C99 1.211 . S
C101 O93 1.284 1_655 S
C101 O102 1.273 . S
O102 C101 1.273 . S
O103 Zn94 1.977 . S
O103 C96 1.267 . S
C104 O105 1.160 . S
C104 O111 1.185 . S
O105 C104 1.160 . S
O106 Zn107 1.899 . S
O106 C114 1.284 . S
Zn107 O106 1.899 . S
Zn107 O108 2.032 1_565 S
Zn107 O111 2.086 . S
Zn107 O116 1.977 1_565 S
O108 Zn107 2.032 1_545 S
O108 C112 1.278 . S
C109 O110 1.203 . S
C109 O116 1.267 . S
O110 C109 1.203 . S
O111 C104 1.185 . S
O111 Zn107 2.086 . S
C112 O108 1.278 . S
C112 O113 1.211 . S
O113 C112 1.211 . S
C114 O106 1.284 . S
C114 O115 1.273 . S
O115 C114 1.273 . S
O116 Zn107 1.977 1_545 S
O116 C109 1.267 . S
C117 O118 1.160 . S
C117 O124 1.185 . S
O118 C117 1.160 . S
O119 Zn120 1.899 . S
O119 C127 1.284 . S
Zn120 O119 1.899 . S
Zn120 O121 2.032 . S
Zn120 O124 2.086 . S
Zn120 O129 1.977 . S
O121 Zn120 2.032 . S
O121 C125 1.278 . S
C122 O123 1.203 . S
C122 O129 1.267 . S
O123 C122 1.203 . S
O124 C117 1.185 . S
O124 Zn120 2.086 . S
C125 O121 1.278 . S
C125 O126 1.211 . S
O126 C125 1.211 . S
C127 O119 1.284 . S
C127 O128 1.273 . S
O128 C127 1.273 . S
O129 Zn120 1.977 . S
O129 C122 1.267 . S
C130 O131 1.160 . S
C130 O137 1.185 . S
O131 C130 1.160 . S
O132 Zn133 1.899 . S
O132 C140 1.284 . S
Zn133 O132 1.899 . S
Zn133 O134 2.032 1_565 S
Zn133 O137 2.086 . S
Zn133 O142 1.977 1_565 S
O134 Zn133 2.032 1_545 S
O134 C138 1.278 . S
C135 O136 1.203 . S
C135 O142 1.267 . S
O136 C135 1.203 . S
O137 C130 1.185 . S
O137 Zn133 2.086 . S
C138 O134 1.278 . S
C138 O139 1.211 . S
O139 C138 1.211 . S
C140 O132 1.284 . S
C140 O141 1.273 . S
O141 C140 1.273 . S
O142 Zn133 1.977 1_545 S
O142 C135 1.267 . S
C143 O144 1.160 . S
C143 O150 1.185 . S
O144 C143 1.160 . S
O145 Zn146 1.899 . S
O145 C153 1.284 1_554 S
Zn146 O145 1.899 . S
Zn146 O147 2.032 1_554 S
Zn146 O150 2.086 . S
Zn146 O155 1.977 . S
O147 Zn146 2.032 1_556 S
O147 C151 1.278 . S
C148 O149 1.203 . S
C148 O155 1.267 . S
O149 C148 1.203 . S
O150 C143 1.185 . S
O150 Zn146 2.086 . S
C151 O147 1.278 . S
C151 O152 1.211 . S
O152 C151 1.211 . S
C153 O145 1.284 1_556 S
C153 O154 1.273 . S
O154 C153 1.273 . S
O155 Zn146 1.977 . S
O155 C148 1.267 . S
C156 O157 1.160 . S
C156 O163 1.185 . S
O157 C156 1.160 . S
O158 Zn159 1.899 1_556 S
O158 C166 1.284 . S
Zn159 O158 1.899 1_554 S
Zn159 O160 2.032 . S
Zn159 O163 2.086 1_554 S
Zn159 O168 1.977 . S
O160 Zn159 2.032 . S
O160 C164 1.278 . S
C161 O162 1.203 . S
C161 O168 1.267 . S
O162 C161 1.203 . S
O163 C156 1.185 . S
O163 Zn159 2.086 1_556 S
C164 O160 1.278 . S
C164 O165 1.211 . S
O165 C164 1.211 . S
C166 O158 1.284 . S
C166 O167 1.280 . S
O167 C166 1.280 . S
O168 Zn159 1.977 . S
O168 C161 1.267 . S
C169 O170 1.160 . S
C169 O176 1.185 . S
O170 C169 1.160 . S
O171 Zn172 1.899 . S
O171 C179 1.284 . S
Zn172 O171 1.899 . S
Zn172 O173 2.032 1_556 S
Zn172 O176 2.086 . S
Zn172 O181 1.977 1_556 S
O173 Zn172 2.032 1_554 S
O173 C177 1.278 . S
C174 O175 1.203 . S
C174 O181 1.267 . S
O175 C174 1.203 . S
O176 C169 1.185 . S
O176 Zn172 2.086 . S
C177 O173 1.278 . S
C177 O178 1.211 . S
O178 C177 1.211 . S
C179 O171 1.284 . S
C179 O180 1.273 . S
O180 C179 1.273 . S
O181 Zn172 1.977 1_554 S
O181 C174 1.267 . S
C182 O183 1.160 . S
C182 O189 1.185 . S
O183 C182 1.160 . S
O184 Zn185 1.899 . S
O184 C192 1.284 . S
Zn185 O184 1.899 . S
Zn185 O186 2.032 . S
Zn185 O189 2.086 . S
Zn185 O194 1.977 . S
O186 Zn185 2.032 . S
O186 C190 1.278 . S
C187 O188 1.203 . S
C187 O194 1.267 . S
O188 C187 1.203 . S
O189 C182 1.185 . S
O189 Zn185 2.086 . S
C190 O186 1.278 . S
C190 O191 1.211 . S
O191 C190 1.211 . S
C192 O184 1.284 . S
C192 O193 1.273 . S
O193 C192 1.273 . S
O194 Zn185 1.977 . S
O194 C187 1.267 . S
C195 O196 1.160 . S
C195 O202 1.185 . S
O196 C195 1.160 . S
O197 Zn198 1.899 . S
O197 C205 1.284 . S
Zn198 O197 1.899 . S
Zn198 O199 2.032 . S
Zn198 O202 2.086 . S
Zn198 O207 1.977 . S
O199 Zn198 2.032 . S
O199 C203 1.278 . S
C200 O201 1.203 . S
C200 O207 1.267 . S
O201 C200 1.203 . S
O202 C195 1.185 . S
O202 Zn198 2.086 . S
C203 O199 1.278 . S
C203 O204 1.211 . S
O204 C203 1.211 . S
C205 O197 1.284 . S
C205 O206 1.273 . S
O206 C205 1.273 . S
O207 Zn198 1.977 . S
O207 C200 1.267 . S
C208 O209 1.160 . S
C208 O215 1.185 . S
O209 C208 1.160 . S
O210 Zn211 1.899 . S
O210 C218 1.284 1_545 S
Zn211 O210 1.899 . S
Zn211 O212 2.032 . S
Zn211 O215 2.086 . S
Zn211 O220 1.977 . S
O212 Zn211 2.032 . S
O212 C216 1.278 1_545 S
C213 O214 1.203 . S
C213 O220 1.267 . S
O214 C213 1.203 . S
O215 C208 1.185 . S
O215 Zn211 2.086 . S
C216 O212 1.278 1_565 S
C216 O217 1.211 . S
O217 C216 1.211 . S
C218 O210 1.284 1_565 S
C218 O219 1.273 . S
O219 C218 1.273 . S
O220 Zn211 1.977 . S
O220 C213 1.267 . S
C221 O222 1.160 . S
C221 O228 1.185 . S
O222 C221 1.160 . S
O223 Zn224 1.899 . S
O223 C231 1.284 . S
Zn224 O223 1.899 . S
Zn224 O225 2.032 . S
Zn224 O228 2.086 . S
Zn224 O233 1.977 . S
O225 Zn224 2.032 . S
O225 C229 1.278 . S
C226 O227 1.203 . S
C226 O233 1.267 . S
O227 C226 1.203 . S
O228 C221 1.185 . S
O228 Zn224 2.086 . S
C229 O225 1.278 . S
C229 O230 1.211 . S
O230 C229 1.211 . S
C231 O223 1.284 . S
C231 O232 1.273 . S
O232 C231 1.273 . S
O233 Zn224 1.977 . S
O233 C226 1.267 . S
C234 O235 1.160 . S
C234 O241 1.185 . S
O235 C234 1.160 . S
O236 Zn237 1.899 . S
O236 C244 1.284 . S
Zn237 O236 1.899 . S
Zn237 O238 2.032 . S
Zn237 O241 2.086 . S
Zn237 O246 1.977 . S
O238 Zn237 2.032 . S
O238 C242 1.278 . S
C239 O240 1.203 . S
C239 O246 1.267 . S
O240 C239 1.203 . S
O241 C234 1.185 . S
O241 Zn237 2.086 . S
C242 O238 1.278 . S
C242 O243 1.211 . S
O243 C242 1.211 . S
C244 O236 1.284 . S
C244 O245 1.273 . S
O245 C244 1.273 . S
O246 Zn237 1.977 . S
O246 C239 1.267 . S
C247 O248 1.160 . S
C247 O254 1.185 . S
O248 C247 1.160 . S
O249 Zn250 1.899 . S
O249 C257 1.284 1_545 S
Zn250 O249 1.899 . S
Zn250 O251 2.032 1_545 S
Zn250 O254 2.086 . S
Zn250 O259 1.977 . S
O251 Zn250 2.032 1_565 S
O251 C255 1.278 . S
C252 O253 1.203 . S
C252 O259 1.267 . S
O253 C252 1.203 . S
O254 C247 1.185 . S
O254 Zn250 2.086 . S
C255 O251 1.278 . S
C255 O256 1.211 . S
O256 C255 1.211 . S
C257 O249 1.284 1_565 S
C257 O258 1.273 . S
O258 C257 1.273 . S
O259 Zn250 1.977 . S
O259 C252 1.267 . S
C260 O261 1.160 . S
C260 O267 1.185 . S
O261 C260 1.160 . S
O262 Zn263 1.899 . S
O262 C270 1.284 1_554 S
Zn263 O262 1.899 . S
Zn263 O264 2.032 1_554 S
Zn263 O267 2.086 . S
Zn263 O272 1.977 . S
O264 Zn263 2.032 1_556 S
O264 C268 1.278 . S
C265 O266 1.203 . S
C265 O272 1.267 . S
O266 C265 1.203 . S
O267 C260 1.185 . S
O267 Zn263 2.086 . S
C268 O264 1.278 . S
C268 O269 1.211 . S
O269 C268 1.211 . S
C270 O262 1.284 1_556 S
C270 O271 1.273 . S
O271 C270 1.273 . S
O272 Zn263 1.977 . S
O272 C265 1.267 . S
C273 O274 1.160 . S
C273 O280 1.185 . S
O274 C273 1.160 . S
O275 Zn276 1.899 . S
O275 C283 1.284 . S
Zn276 O275 1.899 . S
Zn276 O277 2.032 . S
Zn276 O280 2.086 . S
Zn276 O285 1.977 . S
O277 Zn276 2.032 . S
O277 C281 1.278 . S
C278 O279 1.203 . S
C278 O285 1.267 . S
O279 C278 1.203 . S
O280 C273 1.185 . S
O280 Zn276 2.086 . S
C281 O277 1.278 . S
C281 O282 1.211 . S
O282 C281 1.211 . S
C283 O275 1.284 . S
C283 O284 1.273 . S
O284 C283 1.273 . S
O285 Zn276 1.977 . S
O285 C278 1.267 . S
C286 O287 1.160 . S
C286 O293 1.185 . S
O287 C286 1.160 . S
O288 Zn289 1.899 . S
O288 C296 1.284 . S
Zn289 O288 1.899 . S
Zn289 O290 2.032 . S
Zn289 O293 2.086 . S
Zn289 O298 1.977 . S
O290 Zn289 2.032 . S
O290 C294 1.278 . S
C291 O292 1.203 . S
C291 O298 1.267 . S
O292 C291 1.203 . S
O293 C286 1.185 . S
O293 Zn289 2.086 . S
C294 O290 1.278 . S
C294 O295 1.211 . S
O295 C294 1.211 . S
C296 O288 1.284 . S
C296 O297 1.273 . S
O297 C296 1.273 . S
O298 Zn289 1.977 . S
O298 C291 1.267 . S
C299 O300 1.160 . S
C299 O306 1.185 . S
O300 C299 1.160 . S
O301 Zn302 1.899 . S
O301 C309 1.284 . S
Zn302 O301 1.899 . S
Zn302 O303 2.032 . S
Zn302 O306 2.086 . S
Zn302 O311 1.977 . S
O303 Zn302 2.032 . S
O303 C307 1.278 . S
C304 O305 1.203 . S
C304 O311 1.267 . S
O305 C304 1.203 . S
O306 C299 1.185 . S
O306 Zn302 2.086 . S
C307 O303 1.278 . S
C307 O308 1.211 . S
O308 C307 1.211 . S
C309 O301 1.284 . S
C309 O310 1.273 . S
O310 C309 1.273 . S
O311 Zn302 1.977 . S
O311 C304 1.267 . S
Fe312 O314 1.918 . S
Fe312 O317 1.997 . S
Fe312 O318 2.002 . S
Fe312 O323 1.976 . S
Fe312 O326 1.996 . S
Fe313 O314 1.918 . S
Fe313 O321 1.997 . S
Fe313 O324 1.996 . S
Fe313 O328 1.976 . S
Fe313 O331 2.002 . S
O314 Fe312 1.918 . S
O314 Fe313 1.918 . S
O314 Fe315 1.918 . S
Fe315 O314 1.918 . S
Fe315 O316 2.002 . S
Fe315 O325 1.976 . S
Fe315 O329 1.996 . S
Fe315 O332 1.997 . S
O316 Fe315 2.002 . S
O316 C333 1.295 . S
O317 Fe312 1.997 . S
O317 C333 1.235 . S
O318 Fe312 2.002 . S
O318 C319 1.295 . S
C319 O318 1.295 . S
C319 O321 1.235 . S
C320 O325 1.287 . S
C320 O326 1.255 . S
O321 Fe313 1.997 . S
O321 C319 1.235 . S
C322 O328 1.287 . S
C322 O329 1.255 . S
O323 Fe312 1.976 . S
O323 C330 1.287 . S
O324 Fe313 1.996 . S
O324 C330 1.255 . S
O325 Fe315 1.976 . S
O325 C320 1.287 . S
O326 Fe312 1.996 . S
O326 C320 1.255 . S
C327 O331 1.295 . S
C327 O332 1.235 . S
O328 Fe313 1.976 . S
O328 C322 1.287 . S
O329 Fe315 1.996 . S
O329 C322 1.255 . S
C330 O323 1.287 . S
C330 O324 1.255 . S
O331 Fe313 2.002 . S
O331 C327 1.295 . S
O332 Fe315 1.997 . S
O332 C327 1.235 . S
C333 O316 1.295 . S
C333 O317 1.235 . S
Fe334 O336 1.918 . S
Fe334 O339 1.997 . S
Fe334 O340 2.002 . S
Fe334 O345 1.976 . S
Fe334 O348 1.996 . S
Fe335 O336 1.918 . S
Fe335 O343 1.997 . S
Fe335 O346 1.996 . S
Fe335 O350 1.976 . S
Fe335 O353 2.002 . S
O336 Fe334 1.918 . S
O336 Fe335 1.918 . S
O336 Fe337 1.918 . S
Fe337 O336 1.918 . S
Fe337 O338 2.002 . S
Fe337 O347 1.976 . S
Fe337 O351 1.996 . S
Fe337 O354 1.997 . S
O338 Fe337 2.002 . S
O338 C355 1.295 . S
O339 Fe334 1.997 . S
O339 C355 1.235 . S
O340 Fe334 2.002 . S
O340 C341 1.295 . S
C341 O340 1.295 . S
C341 O343 1.235 . S
C342 O347 1.287 . S
C342 O348 1.255 . S
O343 Fe335 1.997 . S
O343 C341 1.235 . S
C344 O350 1.287 . S
C344 O351 1.255 . S
O345 Fe334 1.976 . S
O345 C352 1.287 . S
O346 Fe335 1.996 . S
O346 C352 1.255 . S
O347 Fe337 1.976 . S
O347 C342 1.287 . S
O348 Fe334 1.996 . S
O348 C342 1.255 . S
C349 O353 1.295 . S
C349 O354 1.235 . S
O350 Fe335 1.976 . S
O350 C344 1.287 . S
O351 Fe337 1.996 . S
O351 C344 1.255 . S
C352 O345 1.287 . S
C352 O346 1.255 . S
O353 Fe335 2.002 . S
O353 C349 1.295 . S
O354 Fe337 1.997 . S
O354 C349 1.235 . S
C355 O338 1.295 . S
C355 O339 1.235 . S
Fe356 O358 1.918 . S
Fe356 O361 1.997 . S
Fe356 O362 2.002 . S
Fe356 O367 1.976 . S
Fe356 O370 1.996 . S
Fe357 O358 1.918 . S
Fe357 O365 1.997 . S
Fe357 O368 1.996 . S
Fe357 O372 1.976 . S
Fe357 O375 2.002 . S
O358 Fe356 1.918 . S
O358 Fe357 1.918 . S
O358 Fe359 1.918 . S
Fe359 O358 1.918 . S
Fe359 O360 2.002 . S
Fe359 O369 1.976 . S
Fe359 O373 1.996 . S
Fe359 O376 1.997 . S
O360 Fe359 2.002 . S
O360 C377 1.295 . S
O361 Fe356 1.997 . S
O361 C377 1.235 . S
O362 Fe356 2.002 . S
O362 C363 1.295 . S
C363 O362 1.295 . S
C363 O365 1.235 . S
C364 O369 1.287 . S
C364 O370 1.255 . S
O365 Fe357 1.997 . S
O365 C363 1.235 . S
C366 O372 1.287 . S
C366 O373 1.255 . S
O367 Fe356 1.976 . S
O367 C374 1.287 . S
O368 Fe357 1.996 . S
O368 C374 1.255 . S
O369 Fe359 1.976 . S
O369 C364 1.287 . S
O370 Fe356 1.996 . S
O370 C364 1.255 . S
C371 O375 1.295 . S
C371 O376 1.235 . S
O372 Fe357 1.976 . S
O372 C366 1.287 . S
O373 Fe359 1.996 . S
O373 C366 1.255 . S
C374 O367 1.287 . S
C374 O368 1.255 . S
O375 Fe357 2.002 . S
O375 C371 1.295 . S
O376 Fe359 1.997 . S
O376 C371 1.235 . S
C377 O360 1.295 . S
C377 O361 1.235 . S
Fe378 O380 1.918 . S
Fe378 O383 1.997 . S
Fe378 O384 2.002 . S
Fe378 O389 1.976 . S
Fe378 O392 1.996 . S
Fe379 O380 1.918 . S
Fe379 O387 1.997 . S
Fe379 O390 1.996 . S
Fe379 O394 1.976 . S
Fe379 O397 2.002 . S
O380 Fe378 1.918 . S
O380 Fe379 1.918 . S
O380 Fe381 1.918 . S
Fe381 O380 1.918 . S
Fe381 O382 2.002 . S
Fe381 O391 1.976 . S
Fe381 O395 1.996 . S
Fe381 O398 1.997 . S
O382 Fe381 2.002 . S
O382 C399 1.295 . S
O383 Fe378 1.997 . S
O383 C399 1.235 . S
O384 Fe378 2.002 . S
O384 C385 1.295 . S
C385 O384 1.295 . S
C385 O387 1.235 . S
C386 O391 1.287 . S
C386 O392 1.255 . S
O387 Fe379 1.997 . S
O387 C385 1.235 . S
C388 O394 1.287 . S
C388 O395 1.255 . S
O389 Fe378 1.976 . S
O389 C396 1.287 . S
O390 Fe379 1.996 . S
O390 C396 1.255 . S
O391 Fe381 1.976 . S
O391 C386 1.287 . S
O392 Fe378 1.996 . S
O392 C386 1.255 . S
C393 O397 1.295 . S
C393 O398 1.235 . S
O394 Fe379 1.976 . S
O394 C388 1.287 . S
O395 Fe381 1.996 . S
O395 C388 1.255 . S
C396 O389 1.287 . S
C396 O390 1.255 . S
O397 Fe379 2.002 . S
O397 C393 1.295 . S
O398 Fe381 1.997 . S
O398 C393 1.235 . S
C399 O382 1.295 . S
C399 O383 1.235 . S
Fe400 O402 1.918 . S
Fe400 O405 1.997 . S
Fe400 O406 2.002 . S
Fe400 O411 1.976 . S
Fe400 O414 1.996 . S
Fe401 O402 1.918 . S
Fe401 O409 1.997 . S
Fe401 O412 1.996 . S
Fe401 O416 1.976 . S
Fe401 O419 2.002 . S
O402 Fe400 1.918 . S
O402 Fe401 1.918 . S
O402 Fe403 1.918 . S
Fe403 O402 1.918 . S
Fe403 O404 2.002 . S
Fe403 O413 1.976 . S
Fe403 O417 1.996 . S
Fe403 O420 1.997 . S
O404 Fe403 2.002 . S
O404 C421 1.295 . S
O405 Fe400 1.997 . S
O405 C421 1.235 . S
O406 Fe400 2.002 . S
O406 C407 1.295 . S
C407 O406 1.295 . S
C407 O409 1.235 . S
C408 O413 1.287 . S
C408 O414 1.255 . S
O409 Fe401 1.997 . S
O409 C407 1.235 . S
C410 O416 1.287 . S
C410 O417 1.255 . S
O411 Fe400 1.976 . S
O411 C418 1.287 . S
O412 Fe401 1.996 . S
O412 C418 1.255 . S
O413 Fe403 1.976 . S
O413 C408 1.287 . S
O414 Fe400 1.996 . S
O414 C408 1.255 . S
C415 O419 1.295 . S
C415 O420 1.235 . S
O416 Fe401 1.976 . S
O416 C410 1.287 . S
O417 Fe403 1.996 . S
O417 C410 1.255 . S
C418 O411 1.287 . S
C418 O412 1.255 . S
O419 Fe401 2.002 . S
O419 C415 1.295 . S
O420 Fe403 1.997 . S
O420 C415 1.235 . S
C421 O404 1.295 . S
C421 O405 1.235 . S
Fe422 O424 1.918 . S
Fe422 O427 1.997 . S
Fe422 O428 2.002 . S
Fe422 O433 1.976 . S
Fe422 O436 1.996 . S
Fe423 O424 1.918 . S
Fe423 O431 1.997 . S
Fe423 O434 1.996 . S
Fe423 O438 1.976 . S
Fe423 O441 2.002 . S
O424 Fe422 1.918 . S
O424 Fe423 1.918 . S
O424 Fe425 1.918 . S
Fe425 O424 1.918 . S
Fe425 O426 2.002 . S
Fe425 O435 1.976 . S
Fe425 O439 1.996 . S
Fe425 O442 1.997 . S
O426 Fe425 2.002 . S
O426 C443 1.295 . S
O427 Fe422 1.997 . S
O427 C443 1.235 . S
O428 Fe422 2.002 . S
O428 C429 1.295 . S
C429 O428 1.295 . S
C429 O431 1.235 . S
C430 O435 1.287 . S
C430 O436 1.255 . S
O431 Fe423 1.997 . S
O431 C429 1.235 . S
C432 O438 1.287 . S
C432 O439 1.255 . S
O433 Fe422 1.976 . S
O433 C440 1.287 . S
O434 Fe423 1.996 . S
O434 C440 1.255 . S
O435 Fe425 1.976 . S
O435 C430 1.287 . S
O436 Fe422 1.996 . S
O436 C430 1.255 . S
C437 O441 1.295 . S
C437 O442 1.235 . S
O438 Fe423 1.976 . S
O438 C432 1.287 . S
O439 Fe425 1.996 . S
O439 C432 1.255 . S
C440 O433 1.287 . S
C440 O434 1.255 . S
O441 Fe423 2.002 . S
O441 C437 1.295 . S
O442 Fe425 1.997 . S
O442 C437 1.235 . S
C443 O426 1.295 . S
C443 O427 1.235 . S
Fe444 O446 1.918 . S
Fe444 O449 1.997 . S
Fe444 O450 2.002 . S
Fe444 O455 1.976 . S
Fe444 O458 1.996 . S
Fe445 O446 1.918 . S
Fe445 O453 1.997 . S
Fe445 O456 1.996 . S
Fe445 O460 1.976 . S
Fe445 O463 2.002 . S
O446 Fe444 1.918 . S
O446 Fe445 1.918 . S
O446 Fe447 1.918 . S
Fe447 O446 1.918 . S
Fe447 O448 2.002 . S
Fe447 O457 1.976 . S
Fe447 O461 1.996 . S
Fe447 O464 1.997 . S
O448 Fe447 2.002 . S
O448 C465 1.295 . S
O449 Fe444 1.997 . S
O449 C465 1.235 . S
O450 Fe444 2.002 . S
O450 C451 1.295 . S
C451 O450 1.295 . S
C451 O453 1.235 . S
C452 O457 1.287 . S
C452 O458 1.255 . S
O453 Fe445 1.997 . S
O453 C451 1.235 . S
C454 O460 1.287 . S
C454 O461 1.255 . S
O455 Fe444 1.976 . S
O455 C462 1.287 . S
O456 Fe445 1.996 . S
O456 C462 1.255 . S
O457 Fe447 1.976 . S
O457 C452 1.287 . S
O458 Fe444 1.996 . S
O458 C452 1.255 . S
C459 O463 1.295 . S
C459 O464 1.235 . S
O460 Fe445 1.976 . S
O460 C454 1.287 . S
O461 Fe447 1.996 . S
O461 C454 1.255 . S
C462 O455 1.287 . S
C462 O456 1.255 . S
O463 Fe445 2.002 . S
O463 C459 1.295 . S
O464 Fe447 1.997 . S
O464 C459 1.235 . S
C465 O448 1.295 . S
C465 O449 1.235 . S
Fe466 O468 1.918 . S
Fe466 O471 1.997 . S
Fe466 O472 2.002 . S
Fe466 O477 1.976 . S
Fe466 O480 1.996 . S
Fe467 O468 1.918 . S
Fe467 O475 1.997 . S
Fe467 O478 1.996 . S
Fe467 O482 1.976 . S
Fe467 O485 2.002 . S
O468 Fe466 1.918 . S
O468 Fe467 1.918 . S
O468 Fe469 1.918 . S
Fe469 O468 1.918 . S
Fe469 O470 2.002 . S
Fe469 O479 1.976 . S
Fe469 O483 1.996 . S
Fe469 O486 1.997 . S
O470 Fe469 2.002 . S
O470 C487 1.295 . S
O471 Fe466 1.997 . S
O471 C487 1.235 . S
O472 Fe466 2.002 . S
O472 C473 1.295 . S
C473 O472 1.295 . S
C473 O475 1.235 . S
C474 O479 1.287 . S
C474 O480 1.255 . S
O475 Fe467 1.997 . S
O475 C473 1.235 . S
C476 O482 1.287 . S
C476 O483 1.255 . S
O477 Fe466 1.976 . S
O477 C484 1.287 . S
O478 Fe467 1.996 . S
O478 C484 1.255 . S
O479 Fe469 1.976 . S
O479 C474 1.287 . S
O480 Fe466 1.996 . S
O480 C474 1.255 . S
C481 O485 1.295 . S
C481 O486 1.235 . S
O482 Fe467 1.976 . S
O482 C476 1.287 . S
O483 Fe469 1.996 . S
O483 C476 1.255 . S
C484 O477 1.287 . S
C484 O478 1.255 . S
O485 Fe467 2.002 . S
O485 C481 1.295 . S
O486 Fe469 1.997 . S
O486 C481 1.235 . S
C487 O470 1.295 . S
C487 O471 1.235 . S
Fe488 O490 1.918 . S
Fe488 O493 1.997 . S
Fe488 O494 2.002 . S
Fe488 O499 1.976 . S
Fe488 O502 1.996 . S
Fe489 O490 1.918 . S
Fe489 O497 1.997 . S
Fe489 O500 1.996 . S
Fe489 O504 1.976 . S
Fe489 O507 2.002 . S
O490 Fe488 1.918 . S
O490 Fe489 1.918 . S
O490 Fe491 1.918 . S
Fe491 O490 1.918 . S
Fe491 O492 2.002 . S
Fe491 O501 1.976 . S
Fe491 O505 1.996 . S
Fe491 O508 1.997 . S
O492 Fe491 2.002 . S
O492 C509 1.295 . S
O493 Fe488 1.997 . S
O493 C509 1.235 . S
O494 Fe488 2.002 . S
O494 C495 1.295 . S
C495 O494 1.295 . S
C495 O497 1.235 . S
C496 O501 1.287 . S
C496 O502 1.255 . S
O497 Fe489 1.997 . S
O497 C495 1.235 . S
C498 O504 1.287 . S
C498 O505 1.255 . S
O499 Fe488 1.976 . S
O499 C506 1.287 . S
O500 Fe489 1.996 . S
O500 C506 1.255 . S
O501 Fe491 1.976 . S
O501 C496 1.287 . S
O502 Fe488 1.996 . S
O502 C496 1.255 . S
C503 O507 1.295 . S
C503 O508 1.235 . S
O504 Fe489 1.976 . S
O504 C498 1.287 . S
O505 Fe491 1.996 . S
O505 C498 1.255 . S
C506 O499 1.287 . S
C506 O500 1.255 . S
O507 Fe489 2.002 . S
O507 C503 1.295 . S
O508 Fe491 1.997 . S
O508 C503 1.235 . S
C509 O492 1.295 . S
C509 O493 1.235 . S
Fe510 O512 1.918 . S
Fe510 O515 1.997 . S
Fe510 O516 2.002 . S
Fe510 O521 1.976 . S
Fe510 O524 1.996 . S
Fe511 O512 1.918 . S
Fe511 O519 1.997 . S
Fe511 O522 1.996 . S
Fe511 O526 1.976 . S
Fe511 O529 2.002 . S
O512 Fe510 1.918 . S
O512 Fe511 1.918 . S
O512 Fe513 1.918 . S
Fe513 O512 1.918 . S
Fe513 O514 2.002 . S
Fe513 O523 1.976 . S
Fe513 O527 1.996 . S
Fe513 O530 1.997 . S
O514 Fe513 2.002 . S
O514 C531 1.295 . S
O515 Fe510 1.997 . S
O515 C531 1.235 . S
O516 Fe510 2.002 . S
O516 C517 1.295 . S
C517 O516 1.295 . S
C517 O519 1.235 . S
C518 O523 1.287 . S
C518 O524 1.255 . S
O519 Fe511 1.997 . S
O519 C517 1.235 . S
C520 O526 1.287 . S
C520 O527 1.255 . S
O521 Fe510 1.976 . S
O521 C528 1.287 . S
O522 Fe511 1.996 . S
O522 C528 1.255 . S
O523 Fe513 1.976 . S
O523 C518 1.287 . S
O524 Fe510 1.996 . S
O524 C518 1.255 . S
C525 O529 1.295 . S
C525 O530 1.235 . S
O526 Fe511 1.976 . S
O526 C520 1.287 . S
O527 Fe513 1.996 . S
O527 C520 1.255 . S
C528 O521 1.287 . S
C528 O522 1.255 . S
O529 Fe511 2.002 . S
O529 C525 1.295 . S
O530 Fe513 1.997 . S
O530 C525 1.235 . S
C531 O514 1.295 . S
C531 O515 1.235 . S
Fe532 O534 1.918 . S
Fe532 O537 1.997 . S
Fe532 O538 2.002 . S
Fe532 O543 1.976 . S
Fe532 O546 1.996 . S
Fe533 O534 1.918 . S
Fe533 O541 1.997 . S
Fe533 O544 1.996 . S
Fe533 O548 1.976 . S
Fe533 O551 2.002 . S
O534 Fe532 1.918 . S
O534 Fe533 1.918 . S
O534 Fe535 1.918 . S
Fe535 O534 1.918 . S
Fe535 O536 2.002 . S
Fe535 O545 1.976 . S
Fe535 O549 1.996 . S
Fe535 O552 1.997 . S
O536 Fe535 2.002 . S
O536 C553 1.295 . S
O537 Fe532 1.997 . S
O537 C553 1.235 . S
O538 Fe532 2.002 . S
O538 C539 1.295 . S
C539 O538 1.295 . S
C539 O541 1.235 . S
C540 O545 1.287 . S
C540 O546 1.255 . S
O541 Fe533 1.997 . S
O541 C539 1.235 . S
C542 O548 1.287 . S
C542 O549 1.255 . S
O543 Fe532 1.976 . S
O543 C550 1.287 . S
O544 Fe533 1.996 . S
O544 C550 1.255 . S
O545 Fe535 1.976 . S
O545 C540 1.287 . S
O546 Fe532 1.996 . S
O546 C540 1.255 . S
C547 O551 1.295 . S
C547 O552 1.235 . S
O548 Fe533 1.976 . S
O548 C542 1.287 . S
O549 Fe535 1.996 . S
O549 C542 1.255 . S
C550 O543 1.287 . S
C550 O544 1.255 . S
O551 Fe533 2.002 . S
O551 C547 1.295 . S
O552 Fe535 1.997 . S
O552 C547 1.235 . S
C553 O536 1.295 . S
C553 O537 1.235 . S
Fe554 O556 1.918 . S
Fe554 O559 1.997 . S
Fe554 O560 2.002 . S
Fe554 O565 1.976 . S
Fe554 O568 1.996 . S
Fe555 O556 1.918 . S
Fe555 O563 1.997 . S
Fe555 O566 1.996 . S
Fe555 O570 1.976 . S
Fe555 O573 2.002 . S
O556 Fe554 1.918 . S
O556 Fe555 1.918 . S
O556 Fe557 1.918 . S
Fe557 O556 1.918 . S
Fe557 O558 2.002 . S
Fe557 O567 1.976 . S
Fe557 O571 1.996 . S
Fe557 O574 1.997 . S
O558 Fe557 2.002 . S
O558 C575 1.295 . S
O559 Fe554 1.997 . S
O559 C575 1.235 . S
O560 Fe554 2.002 . S
O560 C561 1.295 . S
C561 O560 1.295 . S
C561 O563 1.235 . S
C562 O567 1.287 . S
C562 O568 1.255 . S
O563 Fe555 1.997 . S
O563 C561 1.235 . S
C564 O570 1.287 . S
C564 O571 1.255 . S
O565 Fe554 1.976 . S
O565 C572 1.287 . S
O566 Fe555 1.996 . S
O566 C572 1.255 . S
O567 Fe557 1.976 . S
O567 C562 1.287 . S
O568 Fe554 1.996 . S
O568 C562 1.255 . S
C569 O573 1.295 . S
C569 O574 1.235 . S
O570 Fe555 1.976 . S
O570 C564 1.287 . S
O571 Fe557 1.996 . S
O571 C564 1.255 . S
C572 O565 1.287 . S
C572 O566 1.255 . S
O573 Fe555 2.002 . S
O573 C569 1.295 . S
O574 Fe557 1.997 . S
O574 C569 1.235 . S
C575 O558 1.295 . S
C575 O559 1.235 . S
Fe576 O578 1.918 . S
Fe576 O581 1.997 . S
Fe576 O582 2.002 . S
Fe576 O587 1.976 . S
Fe576 O590 1.996 . S
Fe577 O578 1.918 . S
Fe577 O585 1.997 . S
Fe577 O588 1.996 . S
Fe577 O592 1.976 . S
Fe577 O595 2.002 . S
O578 Fe576 1.918 . S
O578 Fe577 1.918 . S
O578 Fe579 1.918 . S
Fe579 O578 1.918 . S
Fe579 O580 2.002 . S
Fe579 O589 1.976 . S
Fe579 O593 1.996 . S
Fe579 O596 1.997 . S
O580 Fe579 2.002 . S
O580 C597 1.295 . S
O581 Fe576 1.997 . S
O581 C597 1.235 . S
O582 Fe576 2.002 . S
O582 C583 1.295 . S
C583 O582 1.295 . S
C583 O585 1.235 . S
C584 O589 1.287 . S
C584 O590 1.255 . S
O585 Fe577 1.997 . S
O585 C583 1.235 . S
C586 O592 1.287 . S
C586 O593 1.255 . S
O587 Fe576 1.976 . S
O587 C594 1.287 . S
O588 Fe577 1.996 . S
O588 C594 1.255 . S
O589 Fe579 1.976 . S
O589 C584 1.287 . S
O590 Fe576 1.996 . S
O590 C584 1.255 . S
C591 O595 1.295 . S
C591 O596 1.235 . S
O592 Fe577 1.976 . S
O592 C586 1.287 . S
O593 Fe579 1.996 . S
O593 C586 1.255 . S
C594 O587 1.287 . S
C594 O588 1.255 . S
O595 Fe577 2.002 . S
O595 C591 1.295 . S
O596 Fe579 1.997 . S
O596 C591 1.235 . S
C597 O580 1.295 . S
C597 O581 1.235 . S
Fe598 O600 1.918 . S
Fe598 O603 1.997 . S
Fe598 O604 2.002 . S
Fe598 O609 1.976 . S
Fe598 O612 1.996 . S
Fe599 O600 1.918 . S
Fe599 O607 1.997 . S
Fe599 O610 1.996 . S
Fe599 O614 1.976 . S
Fe599 O617 2.002 . S
O600 Fe598 1.918 . S
O600 Fe599 1.918 . S
O600 Fe601 1.918 . S
Fe601 O600 1.918 . S
Fe601 O602 2.002 . S
Fe601 O611 1.976 . S
Fe601 O615 1.996 . S
Fe601 O618 1.997 . S
O602 Fe601 2.002 . S
O602 C619 1.295 . S
O603 Fe598 1.997 . S
O603 C619 1.235 . S
O604 Fe598 2.002 . S
O604 C605 1.295 . S
C605 O604 1.295 . S
C605 O607 1.235 . S
C606 O611 1.287 . S
C606 O612 1.255 . S
O607 Fe599 1.997 . S
O607 C605 1.235 . S
C608 O614 1.287 . S
C608 O615 1.255 . S
O609 Fe598 1.976 . S
O609 C616 1.287 . S
O610 Fe599 1.996 . S
O610 C616 1.255 . S
O611 Fe601 1.976 . S
O611 C606 1.287 . S
O612 Fe598 1.996 . S
O612 C606 1.255 . S
C613 O617 1.295 . S
C613 O618 1.235 . S
O614 Fe599 1.976 . S
O614 C608 1.287 . S
O615 Fe601 1.996 . S
O615 C608 1.255 . S
C616 O609 1.287 . S
C616 O610 1.255 . S
O617 Fe599 2.002 . S
O617 C613 1.295 . S
O618 Fe601 1.997 . S
O618 C613 1.235 . S
C619 O602 1.295 . S
C619 O603 1.235 . S
Fe620 O622 1.918 . S
Fe620 O625 1.997 . S
Fe620 O626 2.002 . S
Fe620 O631 1.976 . S
Fe620 O634 1.996 . S
Fe621 O622 1.918 . S
Fe621 O629 1.997 . S
Fe621 O632 1.996 . S
Fe621 O636 1.976 . S
Fe621 O639 2.002 . S
O622 Fe620 1.918 . S
O622 Fe621 1.918 . S
O622 Fe623 1.918 . S
Fe623 O622 1.918 . S
Fe623 O624 2.002 . S
Fe623 O633 1.976 . S
Fe623 O637 1.996 . S
Fe623 O640 1.997 . S
O624 Fe623 2.002 . S
O624 C641 1.295 . S
O625 Fe620 1.997 . S
O625 C641 1.235 . S
O626 Fe620 2.002 . S
O626 C627 1.295 . S
C627 O626 1.295 . S
C627 O629 1.235 . S
C628 O633 1.287 . S
C628 O634 1.255 . S
O629 Fe621 1.997 . S
O629 C627 1.235 . S
C630 O636 1.287 . S
C630 O637 1.255 . S
O631 Fe620 1.976 . S
O631 C638 1.287 . S
O632 Fe621 1.996 . S
O632 C638 1.255 . S
O633 Fe623 1.976 . S
O633 C628 1.287 . S
O634 Fe620 1.996 . S
O634 C628 1.255 . S
C635 O639 1.295 . S
C635 O640 1.235 . S
O636 Fe621 1.976 . S
O636 C630 1.287 . S
O637 Fe623 1.996 . S
O637 C630 1.255 . S
C638 O631 1.287 . S
C638 O632 1.255 . S
O639 Fe621 2.002 . S
O639 C635 1.295 . S
O640 Fe623 1.997 . S
O640 C635 1.235 . S
C641 O624 1.295 . S
C641 O625 1.235 . S
Fe642 O644 1.918 . S
Fe642 O647 1.997 . S
Fe642 O648 2.002 . S
Fe642 O653 1.976 . S
Fe642 O656 1.996 . S
Fe643 O644 1.918 . S
Fe643 O651 1.997 . S
Fe643 O654 1.996 . S
Fe643 O658 1.976 . S
Fe643 O661 2.002 . S
O644 Fe642 1.918 . S
O644 Fe643 1.918 . S
O644 Fe645 1.918 . S
Fe645 O644 1.918 . S
Fe645 O646 2.002 . S
Fe645 O655 1.976 . S
Fe645 O659 1.996 . S
Fe645 O662 1.997 . S
O646 Fe645 2.002 . S
O646 C663 1.295 . S
O647 Fe642 1.997 . S
O647 C663 1.235 . S
O648 Fe642 2.002 . S
O648 C649 1.295 . S
C649 O648 1.295 . S
C649 O651 1.235 . S
C650 O655 1.287 . S
C650 O656 1.255 . S
O651 Fe643 1.997 . S
O651 C649 1.235 . S
C652 O658 1.287 . S
C652 O659 1.255 . S
O653 Fe642 1.976 . S
O653 C660 1.287 . S
O654 Fe643 1.996 . S
O654 C660 1.255 . S
O655 Fe645 1.976 . S
O655 C650 1.287 . S
O656 Fe642 1.996 . S
O656 C650 1.255 . S
C657 O661 1.295 . S
C657 O662 1.235 . S
O658 Fe643 1.976 . S
O658 C652 1.287 . S
O659 Fe645 1.996 . S
O659 C652 1.255 . S
C660 O653 1.287 . S
C660 O654 1.255 . S
O661 Fe643 2.002 . S
O661 C657 1.295 . S
O662 Fe645 1.997 . S
O662 C657 1.235 . S
C663 O646 1.295 . S
C663 O647 1.235 . S
H664 C670 0.930 . S
H665 C674 0.930 . S
H666 C679 0.929 . S
H667 C677 0.929 . S
H668 C672 0.929 . S
H669 C678 0.929 . S
C670 H664 0.930 . S
C670 C671 1.367 . S
C670 C678 1.378 . S
C671 C670 1.367 . S
C671 C679 1.433 . S
C672 H668 0.929 . S
C672 C674 1.378 . S
C672 C676 1.350 . S
C673 C676 1.463 . S
C673 C678 1.350 . S
C673 N681 1.427 . S
C674 H665 0.930 . S
C674 C672 1.378 . S
C674 C675 1.367 . S
C675 C674 1.367 . S
C675 C677 1.433 . S
C676 C672 1.350 . S
C676 C673 1.463 . S
C676 N680 1.427 . S
C677 H667 0.929 . S
C677 C675 1.433 . S
C677 N680 1.384 . S
C678 H669 0.929 . S
C678 C670 1.378 . S
C678 C673 1.350 . S
C679 H666 0.929 . S
C679 C671 1.433 . S
C679 N681 1.384 . S
N680 C676 1.427 . S
N680 C677 1.384 . S
N681 C673 1.427 . S
N681 C679 1.384 . S
H682 C688 0.930 . S
H683 C692 0.930 . S
H684 C697 0.929 . S
H685 C695 0.929 . S
H686 C690 0.929 . S
H687 C696 0.929 . S
C688 H682 0.930 . S
C688 C689 1.367 . S
C688 C696 1.378 . S
C689 C688 1.367 . S
C689 C697 1.433 . S
C690 H686 0.929 . S
C690 C692 1.378 . S
C690 C694 1.350 . S
C691 C694 1.463 . S
C691 C696 1.350 . S
C691 N699 1.427 . S
C692 H683 0.930 . S
C692 C690 1.378 . S
C692 C693 1.367 . S
C693 C692 1.367 . S
C693 C695 1.433 . S
C694 C690 1.350 . S
C694 C691 1.463 . S
C694 N698 1.427 . S
C695 H685 0.929 . S
C695 C693 1.433 . S
C695 N698 1.384 . S
C696 H687 0.929 . S
C696 C688 1.378 . S
C696 C691 1.350 . S
C697 H684 0.929 . S
C697 C689 1.433 . S
C697 N699 1.384 . S
N698 C694 1.427 . S
N698 C695 1.384 . S
N699 C691 1.427 . S
N699 C697 1.384 . S
H700 C706 0.930 . S
H701 C710 0.930 . S
H702 C715 0.929 . S
H703 C713 0.929 . S
H704 C708 0.929 . S
H705 C714 0.929 . S
C706 H700 0.930 . S
C706 C707 1.367 . S
C706 C714 1.378 . S
C707 C706 1.367 . S
C707 C715 1.433 . S
C708 H704 0.929 . S
C708 C710 1.378 . S
C708 C712 1.350 . S
C709 C712 1.463 . S
C709 C714 1.350 . S
C709 N717 1.427 . S
C710 H701 0.930 . S
C710 C708 1.378 . S
C710 C711 1.367 . S
C711 C710 1.367 . S
C711 C713 1.433 . S
C712 C708 1.350 . S
C712 C709 1.463 . S
C712 N716 1.427 . S
C713 H703 0.929 . S
C713 C711 1.433 . S
C713 N716 1.384 . S
C714 H705 0.929 . S
C714 C706 1.378 . S
C714 C709 1.350 . S
C715 H702 0.929 . S
C715 C707 1.433 . S
C715 N717 1.384 . S
N716 C712 1.427 . S
N716 C713 1.384 . S
N717 C709 1.427 . S
N717 C715 1.384 . S
H718 C724 0.930 . S
H719 C728 0.930 . S
H720 C733 0.929 . S
H721 C731 0.929 . S
H722 C726 0.929 . S
H723 C732 0.929 . S
C724 H718 0.930 . S
C724 C725 1.367 . S
C724 C732 1.378 . S
C725 C724 1.367 . S
C725 C733 1.433 . S
C726 H722 0.929 . S
C726 C728 1.378 1_554 S
C726 C730 1.350 . S
C727 C730 1.463 . S
C727 C732 1.350 . S
C727 N735 1.427 . S
C728 H719 0.930 . S
C728 C726 1.378 1_556 S
C728 C729 1.367 . S
C729 C728 1.367 . S
C729 C731 1.433 . S
C730 C726 1.350 . S
C730 C727 1.463 . S
C730 N734 1.427 1_554 S
C731 H721 0.929 . S
C731 C729 1.433 . S
C731 N734 1.384 . S
C732 H723 0.929 . S
C732 C724 1.378 . S
C732 C727 1.350 . S
C733 H720 0.929 . S
C733 C725 1.433 . S
C733 N735 1.384 . S
N734 C730 1.427 1_556 S
N734 C731 1.384 . S
N735 C727 1.427 . S
N735 C733 1.384 . S
H736 C742 0.930 . S
H737 C746 0.930 . S
H738 C751 0.929 . S
H739 C749 0.929 . S
H740 C744 0.929 . S
H741 C750 0.929 . S
C742 H736 0.930 . S
C742 C743 1.367 . S
C742 C750 1.378 . S
C743 C742 1.367 . S
C743 C751 1.433 . S
C744 H740 0.929 . S
C744 C746 1.378 . S
C744 C748 1.350 . S
C745 C748 1.463 . S
C745 C750 1.350 . S
C745 N753 1.427 . S
C746 H737 0.930 . S
C746 C744 1.378 . S
C746 C747 1.367 . S
C747 C746 1.367 . S
C747 C749 1.433 . S
C748 C744 1.350 . S
C748 C745 1.463 . S
C748 N752 1.427 . S
C749 H739 0.929 . S
C749 C747 1.433 . S
C749 N752 1.384 . S
C750 H741 0.929 . S
C750 C742 1.378 . S
C750 C745 1.350 . S
C751 H738 0.929 . S
C751 C743 1.433 . S
C751 N753 1.384 . S
N752 C748 1.427 . S
N752 C749 1.384 . S
N753 C745 1.427 . S
N753 C751 1.384 . S
H754 C760 0.930 . S
H755 C764 0.930 . S
H756 C769 0.929 . S
H757 C767 0.929 . S
H758 C762 0.929 . S
H759 C768 0.929 . S
C760 H754 0.930 . S
C760 C761 1.367 . S
C760 C768 1.378 . S
C761 C760 1.367 . S
C761 C769 1.433 . S
C762 H758 0.929 . S
C762 C764 1.378 . S
C762 C766 1.350 . S
C763 C766 1.463 . S
C763 C768 1.350 . S
C763 N771 1.427 . S
C764 H755 0.930 . S
C764 C762 1.378 . S
C764 C765 1.367 . S
C765 C764 1.367 . S
C765 C767 1.433 . S
C766 C762 1.350 . S
C766 C763 1.463 . S
C766 N770 1.427 . S
C767 H757 0.929 . S
C767 C765 1.433 . S
C767 N770 1.384 . S
C768 H759 0.929 . S
C768 C760 1.378 . S
C768 C763 1.350 . S
C769 H756 0.929 . S
C769 C761 1.433 . S
C769 N771 1.384 . S
N770 C766 1.427 . S
N770 C767 1.384 . S
N771 C763 1.427 . S
N771 C769 1.384 . S
H772 C778 0.930 . S
H773 C782 0.930 . S
H774 C787 0.929 . S
H775 C785 0.929 . S
H776 C780 0.929 . S
H777 C786 0.929 . S
C778 H772 0.930 . S
C778 C779 1.367 . S
C778 C786 1.378 . S
C779 C778 1.367 . S
C779 C787 1.433 . S
C780 H776 0.929 . S
C780 C782 1.378 . S
C780 C784 1.350 . S
C781 C784 1.463 . S
C781 C786 1.350 . S
C781 N789 1.427 . S
C782 H773 0.930 . S
C782 C780 1.378 . S
C782 C783 1.367 . S
C783 C782 1.367 . S
C783 C785 1.433 . S
C784 C780 1.350 . S
C784 C781 1.463 . S
C784 N788 1.427 . S
C785 H775 0.929 . S
C785 C783 1.433 . S
C785 N788 1.384 . S
C786 H777 0.929 . S
C786 C778 1.378 . S
C786 C781 1.350 . S
C787 H774 0.929 . S
C787 C779 1.433 . S
C787 N789 1.384 . S
N788 C784 1.427 . S
N788 C785 1.384 . S
N789 C781 1.427 . S
N789 C787 1.384 . S
H790 C796 0.930 . S
H791 C800 0.930 . S
H792 C805 0.929 . S
H793 C803 0.929 . S
H794 C798 0.929 1_556 S
H795 C804 0.929 1_554 S
C796 H790 0.930 . S
C796 C797 1.367 . S
C796 C804 1.378 . S
C797 C796 1.367 . S
C797 C805 1.433 . S
C798 H794 0.929 1_554 S
C798 C800 1.378 . S
C798 C802 1.350 . S
C799 C802 1.463 1_556 S
C799 C804 1.350 . S
C799 N807 1.427 . S
C800 H791 0.930 . S
C800 C798 1.378 . S
C800 C801 1.367 . S
C801 C800 1.367 . S
C801 C803 1.433 . S
C802 C798 1.350 . S
C802 C799 1.463 1_554 S
C802 N806 1.427 . S
C803 H793 0.929 . S
C803 C801 1.433 . S
C803 N806 1.384 . S
C804 H795 0.929 1_556 S
C804 C796 1.378 . S
C804 C799 1.350 . S
C805 H792 0.929 . S
C805 C797 1.433 . S
C805 N807 1.384 . S
N806 C802 1.427 . S
N806 C803 1.384 . S
N807 C799 1.427 . S
N807 C805 1.384 . S
H808 C814 0.930 . S
H809 C818 0.930 . S
H810 C823 0.929 . S
H811 C821 0.929 . S
H812 C816 0.929 . S
H813 C822 0.929 . S
C814 H808 0.930 . S
C814 C815 1.367 . S
C814 C822 1.378 . S
C815 C814 1.367 . S
C815 C823 1.433 . S
C816 H812 0.929 . S
C816 C818 1.378 . S
C816 C820 1.350 . S
C817 C820 1.463 . S
C817 C822 1.350 . S
C817 N825 1.427 . S
C818 H809 0.930 . S
C818 C816 1.378 . S
C818 C819 1.367 . S
C819 C818 1.367 . S
C819 C821 1.433 . S
C820 C816 1.350 . S
C820 C817 1.463 . S
C820 N824 1.427 . S
C821 H811 0.929 . S
C821 C819 1.433 . S
C821 N824 1.384 . S
C822 H813 0.929 . S
C822 C814 1.378 . S
C822 C817 1.350 . S
C823 H810 0.929 . S
C823 C815 1.433 . S
C823 N825 1.384 . S
N824 C820 1.427 . S
N824 C821 1.384 . S
N825 C817 1.427 . S
N825 C823 1.384 . S
H826 C832 0.930 . S
H827 C836 0.930 . S
H828 C841 0.929 . S
H829 C839 0.929 . S
H830 C834 0.929 . S
H831 C840 0.929 . S
C832 H826 0.930 . S
C832 C833 1.367 . S
C832 C840 1.378 . S
C833 C832 1.367 . S
C833 C841 1.433 . S
C834 H830 0.929 . S
C834 C836 1.378 1_545 S
C834 C838 1.350 . S
C835 C838 1.463 . S
C835 C840 1.350 . S
C835 N843 1.427 . S
C836 H827 0.930 . S
C836 C834 1.378 1_565 S
C836 C837 1.367 . S
C837 C836 1.367 . S
C837 C839 1.433 . S
C838 C834 1.350 . S
C838 C835 1.463 . S
C838 N842 1.427 . S
C839 H829 0.929 . S
C839 C837 1.433 . S
C839 N842 1.384 1_565 S
C840 H831 0.929 . S
C840 C832 1.378 . S
C840 C835 1.350 . S
C841 H828 0.929 . S
C841 C833 1.433 . S
C841 N843 1.384 . S
N842 C838 1.427 . S
N842 C839 1.384 1_545 S
N843 C835 1.427 . S
N843 C841 1.384 . S
H844 C850 0.930 . S
H845 C854 0.930 . S
H846 C859 0.929 . S
H847 C857 0.929 . S
H848 C852 0.929 . S
H849 C858 0.929 . S
C850 H844 0.930 . S
C850 C851 1.367 . S
C850 C858 1.378 . S
C851 C850 1.367 . S
C851 C859 1.433 . S
C852 H848 0.929 . S
C852 C854 1.378 . S
C852 C856 1.350 . S
C853 C856 1.463 . S
C853 C858 1.350 . S
C853 N861 1.427 . S
C854 H845 0.930 . S
C854 C852 1.378 . S
C854 C855 1.367 . S
C855 C854 1.367 . S
C855 C857 1.433 . S
C856 C852 1.350 . S
C856 C853 1.463 . S
C856 N860 1.427 . S
C857 H847 0.929 . S
C857 C855 1.433 . S
C857 N860 1.384 . S
C858 H849 0.929 . S
C858 C850 1.378 . S
C858 C853 1.350 . S
C859 H846 0.929 . S
C859 C851 1.433 . S
C859 N861 1.384 . S
N860 C856 1.427 . S
N860 C857 1.384 . S
N861 C853 1.427 . S
N861 C859 1.384 . S
H862 C868 0.930 . S
H863 C872 0.930 . S
H864 C877 0.929 . S
H865 C875 0.929 . S
H866 C870 0.929 . S
H867 C876 0.929 . S
C868 H862 0.930 . S
C868 C869 1.367 . S
C868 C876 1.378 . S
C869 C868 1.367 . S
C869 C877 1.433 . S
C870 H866 0.929 . S
C870 C872 1.378 . S
C870 C874 1.350 . S
C871 C874 1.463 1_565 S
C871 C876 1.350 . S
C871 N879 1.427 . S
C872 H863 0.930 . S
C872 C870 1.378 . S
C872 C873 1.367 . S
C873 C872 1.367 . S
C873 C875 1.433 . S
C874 C870 1.350 . S
C874 C871 1.463 1_545 S
C874 N878 1.427 . S
C875 H865 0.929 . S
C875 C873 1.433 . S
C875 N878 1.384 . S
C876 H867 0.929 . S
C876 C868 1.378 . S
C876 C871 1.350 . S
C877 H864 0.929 . S
C877 C869 1.433 . S
C877 N879 1.384 . S
N878 C874 1.427 . S
N878 C875 1.384 . S
N879 C871 1.427 . S
N879 C877 1.384 . S
H880 C886 0.930 . S
H881 C890 0.930 . S
H882 C895 0.929 . S
H883 C893 0.929 . S
H884 C888 0.929 . S
H885 C894 0.929 . S
C886 H880 0.930 . S
C886 C887 1.367 . S
C886 C894 1.378 . S
C887 C886 1.367 . S
C887 C895 1.433 . S
C888 H884 0.929 . S
C888 C890 1.378 . S
C888 C892 1.350 . S
C889 C892 1.463 . S
C889 C894 1.350 . S
C889 N897 1.427 . S
C890 H881 0.930 . S
C890 C888 1.378 . S
C890 C891 1.367 . S
C891 C890 1.367 . S
C891 C893 1.433 . S
C892 C888 1.350 . S
C892 C889 1.463 . S
C892 N896 1.427 . S
C893 H883 0.929 . S
C893 C891 1.433 . S
C893 N896 1.384 . S
C894 H885 0.929 . S
C894 C886 1.378 . S
C894 C889 1.350 . S
C895 H882 0.929 . S
C895 C887 1.433 . S
C895 N897 1.384 . S
N896 C892 1.427 . S
N896 C893 1.384 . S
N897 C889 1.427 . S
N897 C895 1.384 . S
H898 C904 0.930 . S
H899 C908 0.930 . S
H900 C913 0.929 . S
H901 C911 0.929 . S
H902 C906 0.929 . S
H903 C912 0.929 . S
C904 H898 0.930 . S
C904 C905 1.367 . S
C904 C912 1.378 . S
C905 C904 1.367 . S
C905 C913 1.433 . S
C906 H902 0.929 . S
C906 C908 1.378 1_545 S
C906 C910 1.350 . S
C907 C910 1.463 . S
C907 C912 1.350 . S
C907 N915 1.427 . S
C908 H899 0.930 . S
C908 C906 1.378 1_565 S
C908 C909 1.367 . S
C909 C908 1.367 . S
C909 C911 1.433 . S
C910 C906 1.350 . S
C910 C907 1.463 . S
C910 N914 1.427 1_545 S
C911 H901 0.929 . S
C911 C909 1.433 . S
C911 N914 1.384 . S
C912 H903 0.929 . S
C912 C904 1.378 . S
C912 C907 1.350 . S
C913 H900 0.929 . S
C913 C905 1.433 . S
C913 N915 1.384 . S
N914 C910 1.427 1_565 S
N914 C911 1.384 . S
N915 C907 1.427 . S
N915 C913 1.384 . S
H916 C922 0.930 . S
H917 C926 0.930 . S
H918 C931 0.929 . S
H919 C929 0.929 . S
H920 C924 0.929 . S
H921 C930 0.929 . S
C922 H916 0.930 . S
C922 C923 1.367 . S
C922 C930 1.378 . S
C923 C922 1.367 . S
C923 C931 1.433 . S
C924 H920 0.929 . S
C924 C926 1.378 . S
C924 C928 1.350 . S
C925 C928 1.463 . S
C925 C930 1.350 . S
C925 N933 1.427 . S
C926 H917 0.930 . S
C926 C924 1.378 . S
C926 C927 1.367 . S
C927 C926 1.367 . S
C927 C929 1.433 . S
C928 C924 1.350 . S
C928 C925 1.463 . S
C928 N932 1.427 . S
C929 H919 0.929 . S
C929 C927 1.433 . S
C929 N932 1.384 . S
C930 H921 0.929 . S
C930 C922 1.378 . S
C930 C925 1.350 . S
C931 H918 0.929 . S
C931 C923 1.433 . S
C931 N933 1.384 . S
N932 C928 1.427 . S
N932 C929 1.384 . S
N933 C925 1.427 . S
N933 C931 1.384 . S
H934 C940 0.930 . S
H935 C944 0.930 . S
H936 C949 0.929 . S
H937 C947 0.929 . S
H938 C942 0.929 . S
H939 C948 0.929 . S
C940 H934 0.930 . S
C940 C941 1.367 . S
C940 C948 1.378 . S
C941 C940 1.367 . S
C941 C949 1.433 . S
C942 H938 0.929 . S
C942 C944 1.378 . S
C942 C946 1.350 . S
C943 C946 1.463 1_565 S
C943 C948 1.350 . S
C943 N951 1.427 . S
C944 H935 0.930 . S
C944 C942 1.378 . S
C944 C945 1.367 . S
C945 C944 1.367 . S
C945 C947 1.433 . S
C946 C942 1.350 . S
C946 C943 1.463 1_545 S
C946 N950 1.427 . S
C947 H937 0.929 . S
C947 C945 1.433 . S
C947 N950 1.384 . S
C948 H939 0.929 . S
C948 C940 1.378 . S
C948 C943 1.350 . S
C949 H936 0.929 . S
C949 C941 1.433 . S
C949 N951 1.384 . S
N950 C946 1.427 . S
N950 C947 1.384 . S
N951 C943 1.427 . S
N951 C949 1.384 . S
H952 C958 0.930 . S
H953 C962 0.930 . S
H954 C967 0.929 . S
H955 C965 0.929 . S
H956 C960 0.929 . S
H957 C966 0.929 . S
C958 H952 0.930 . S
C958 C959 1.367 . S
C958 C966 1.378 . S
C959 C958 1.367 . S
C959 C967 1.433 . S
C960 H956 0.929 . S
C960 C962 1.378 . S
C960 C964 1.350 . S
C961 C964 1.463 . S
C961 C966 1.350 . S
C961 N969 1.427 . S
C962 H953 0.930 . S
C962 C960 1.378 . S
C962 C963 1.367 . S
C963 C962 1.367 . S
C963 C965 1.433 . S
C964 C960 1.350 . S
C964 C961 1.463 . S
C964 N968 1.427 . S
C965 H955 0.929 . S
C965 C963 1.433 . S
C965 N968 1.384 . S
C966 H957 0.929 . S
C966 C958 1.378 . S
C966 C961 1.350 . S
C967 H954 0.929 . S
C967 C959 1.433 . S
C967 N969 1.384 . S
N968 C964 1.427 . S
N968 C965 1.384 . S
N969 C961 1.427 . S
N969 C967 1.384 . S
H970 C976 0.930 . S
H971 C980 0.930 . S
H972 C985 0.929 . S
H973 C983 0.929 . S
H974 C978 0.929 . S
H975 C984 0.929 . S
C976 H970 0.930 . S
C976 C977 1.367 . S
C976 C984 1.378 . S
C977 C976 1.367 . S
C977 C985 1.433 . S
C978 H974 0.929 . S
C978 C980 1.378 . S
C978 C982 1.350 . S
C979 C982 1.463 . S
C979 C984 1.350 . S
C979 N987 1.427 . S
C980 H971 0.930 . S
C980 C978 1.378 . S
C980 C981 1.367 . S
C981 C980 1.367 . S
C981 C983 1.433 . S
C982 C978 1.350 . S
C982 C979 1.463 . S
C982 N986 1.427 . S
C983 H973 0.929 . S
C983 C981 1.433 . S
C983 N986 1.384 . S
C984 H975 0.929 . S
C984 C976 1.378 . S
C984 C979 1.350 . S
C985 H972 0.929 . S
C985 C977 1.433 . S
C985 N987 1.384 . S
N986 C982 1.427 . S
N986 C983 1.384 . S
N987 C979 1.427 . S
N987 C985 1.384 . S
H988 C994 0.930 . S
H989 C998 0.930 . S
H990 C1003 0.929 . S
H991 C1001 0.929 . S
H992 C996 0.929 . S
H993 C1002 0.929 . S
C994 H988 0.930 . S
C994 C995 1.367 . S
C994 C1002 1.378 . S
C995 C994 1.367 . S
C995 C1003 1.433 . S
C996 H992 0.929 . S
C996 C998 1.378 1_455 S
C996 C1000 1.350 . S
C997 C1000 1.463 . S
C997 C1002 1.350 . S
C997 N1005 1.427 . S
C998 H989 0.930 . S
C998 C996 1.378 1_655 S
C998 C999 1.367 . S
C999 C998 1.367 . S
C999 C1001 1.433 . S
C1000 C996 1.350 . S
C1000 C997 1.463 . S
C1000 N1004 1.427 1_455 S
C1001 H991 0.929 . S
C1001 C999 1.433 . S
C1001 N1004 1.384 . S
C1002 H993 0.929 . S
C1002 C994 1.378 . S
C1002 C997 1.350 . S
C1003 H990 0.929 . S
C1003 C995 1.433 . S
C1003 N1005 1.384 . S
N1004 C1000 1.427 1_655 S
N1004 C1001 1.384 . S
N1005 C997 1.427 . S
N1005 C1003 1.384 . S
H1006 C1012 0.930 . S
H1007 C1016 0.930 . S
H1008 C1021 0.929 . S
H1009 C1019 0.929 . S
H1010 C1014 0.929 . S
H1011 C1020 0.929 . S
C1012 H1006 0.930 . S
C1012 C1013 1.367 . S
C1012 C1020 1.378 . S
C1013 C1012 1.367 . S
C1013 C1021 1.433 . S
C1014 H1010 0.929 . S
C1014 C1016 1.378 . S
C1014 C1018 1.350 . S
C1015 C1018 1.463 . S
C1015 C1020 1.350 . S
C1015 N1023 1.427 . S
C1016 H1007 0.930 . S
C1016 C1014 1.378 . S
C1016 C1017 1.367 . S
C1017 C1016 1.367 . S
C1017 C1019 1.433 . S
C1018 C1014 1.350 . S
C1018 C1015 1.463 . S
C1018 N1022 1.427 . S
C1019 H1009 0.929 . S
C1019 C1017 1.433 . S
C1019 N1022 1.384 . S
C1020 H1011 0.929 . S
C1020 C1012 1.378 . S
C1020 C1015 1.350 . S
C1021 H1008 0.929 . S
C1021 C1013 1.433 . S
C1021 N1023 1.384 . S
N1022 C1018 1.427 . S
N1022 C1019 1.384 . S
N1023 C1015 1.427 . S
N1023 C1021 1.384 . S
H1024 C1030 0.930 . S
H1025 C1034 0.930 . S
H1026 C1039 0.929 . S
H1027 C1037 0.929 . S
H1028 C1032 0.929 . S
H1029 C1038 0.929 . S
C1030 H1024 0.930 . S
C1030 C1031 1.367 . S
C1030 C1038 1.378 . S
C1031 C1030 1.367 . S
C1031 C1039 1.433 . S
C1032 H1028 0.929 . S
C1032 C1034 1.378 . S
C1032 C1036 1.350 . S
C1033 C1036 1.463 1_655 S
C1033 C1038 1.350 . S
C1033 N1041 1.427 . S
C1034 H1025 0.930 . S
C1034 C1032 1.378 . S
C1034 C1035 1.367 . S
C1035 C1034 1.367 . S
C1035 C1037 1.433 . S
C1036 C1032 1.350 . S
C1036 C1033 1.463 1_455 S
C1036 N1040 1.427 . S
C1037 H1027 0.929 . S
C1037 C1035 1.433 . S
C1037 N1040 1.384 . S
C1038 H1029 0.929 . S
C1038 C1030 1.378 . S
C1038 C1033 1.350 . S
C1039 H1026 0.929 . S
C1039 C1031 1.433 . S
C1039 N1041 1.384 . S
N1040 C1036 1.427 . S
N1040 C1037 1.384 . S
N1041 C1033 1.427 . S
N1041 C1039 1.384 . S
H1042 C1048 0.930 . S
H1043 C1052 0.930 . S
H1044 C1057 0.929 . S
H1045 C1055 0.929 . S
H1046 C1050 0.929 . S
H1047 C1056 0.929 . S
C1048 H1042 0.930 . S
C1048 C1049 1.367 . S
C1048 C1056 1.378 . S
C1049 C1048 1.367 . S
C1049 C1057 1.433 . S
C1050 H1046 0.929 . S
C1050 C1052 1.378 . S
C1050 C1054 1.350 . S
C1051 C1054 1.463 . S
C1051 C1056 1.350 . S
C1051 N1059 1.427 . S
C1052 H1043 0.930 . S
C1052 C1050 1.378 . S
C1052 C1053 1.367 . S
C1053 C1052 1.367 . S
C1053 C1055 1.433 . S
C1054 C1050 1.350 . S
C1054 C1051 1.463 . S
C1054 N1058 1.427 . S
C1055 H1045 0.929 . S
C1055 C1053 1.433 . S
C1055 N1058 1.384 . S
C1056 H1047 0.929 . S
C1056 C1048 1.378 . S
C1056 C1051 1.350 . S
C1057 H1044 0.929 . S
C1057 C1049 1.433 . S
C1057 N1059 1.384 . S
N1058 C1054 1.427 . S
N1058 C1055 1.384 . S
N1059 C1051 1.427 . S
N1059 C1057 1.384 . S
H1060 C1066 0.930 . S
H1061 C1070 0.930 . S
H1062 C1075 0.929 . S
H1063 C1073 0.929 . S
H1064 C1068 0.929 . S
H1065 C1074 0.929 . S
C1066 H1060 0.930 . S
C1066 C1067 1.367 . S
C1066 C1074 1.378 . S
C1067 C1066 1.367 . S
C1067 C1075 1.433 . S
C1068 H1064 0.929 . S
C1068 C1070 1.378 . S
C1068 C1072 1.350 1_655 S
C1069 C1072 1.463 . S
C1069 C1074 1.350 . S
C1069 N1077 1.427 . S
C1070 H1061 0.930 . S
C1070 C1068 1.378 . S
C1070 C1071 1.367 . S
C1071 C1070 1.367 . S
C1071 C1073 1.433 . S
C1072 C1068 1.350 1_455 S
C1072 C1069 1.463 . S
C1072 N1076 1.427 1_455 S
C1073 H1063 0.929 . S
C1073 C1071 1.433 . S
C1073 N1076 1.384 . S
C1074 H1065 0.929 . S
C1074 C1066 1.378 . S
C1074 C1069 1.350 . S
C1075 H1062 0.929 . S
C1075 C1067 1.433 . S
C1075 N1077 1.384 . S
N1076 C1072 1.427 1_655 S
N1076 C1073 1.384 . S
N1077 C1069 1.427 . S
N1077 C1075 1.384 . S
H1078 C1084 0.930 . S
H1079 C1088 0.930 . S
H1080 C1093 0.929 . S
H1081 C1091 0.929 . S
H1082 C1086 0.929 . S
H1083 C1092 0.929 . S
C1084 H1078 0.930 . S
C1084 C1085 1.367 . S
C1084 C1092 1.378 . S
C1085 C1084 1.367 . S
C1085 C1093 1.433 . S
C1086 H1082 0.929 . S
C1086 C1088 1.378 . S
C1086 C1090 1.350 . S
C1087 C1090 1.463 . S
C1087 C1092 1.350 . S
C1087 N1095 1.427 . S
C1088 H1079 0.930 . S
C1088 C1086 1.378 . S
C1088 C1089 1.367 . S
C1089 C1088 1.367 . S
C1089 C1091 1.433 . S
C1090 C1086 1.350 . S
C1090 C1087 1.463 . S
C1090 N1094 1.427 . S
C1091 H1081 0.929 . S
C1091 C1089 1.433 . S
C1091 N1094 1.384 . S
C1092 H1083 0.929 . S
C1092 C1084 1.378 . S
C1092 C1087 1.350 . S
C1093 H1080 0.929 . S
C1093 C1085 1.433 . S
C1093 N1095 1.384 . S
N1094 C1090 1.427 . S
N1094 C1091 1.384 . S
N1095 C1087 1.427 . S
N1095 C1093 1.384 . S
H1096 C1102 0.930 . S
H1097 C1106 0.930 . S
H1098 C1111 0.929 . S
H1099 C1109 0.929 . S
H1100 C1104 0.929 . S
H1101 C1110 0.929 . S
C1102 H1096 0.930 . S
C1102 C1103 1.367 . S
C1102 C1110 1.378 . S
C1103 C1102 1.367 . S
C1103 C1111 1.433 . S
C1104 H1100 0.929 . S
C1104 C1106 1.378 . S
C1104 C1108 1.350 . S
C1105 C1108 1.463 . S
C1105 C1110 1.350 . S
C1105 N1113 1.427 . S
C1106 H1097 0.930 . S
C1106 C1104 1.378 . S
C1106 C1107 1.367 . S
C1107 C1106 1.367 . S
C1107 C1109 1.433 . S
C1108 C1104 1.350 . S
C1108 C1105 1.463 . S
C1108 N1112 1.427 . S
C1109 H1099 0.929 . S
C1109 C1107 1.433 . S
C1109 N1112 1.384 . S
C1110 H1101 0.929 . S
C1110 C1102 1.378 . S
C1110 C1105 1.350 . S
C1111 H1098 0.929 . S
C1111 C1103 1.433 . S
C1111 N1113 1.384 . S
N1112 C1108 1.427 . S
N1112 C1109 1.384 . S
N1113 C1105 1.427 . S
N1113 C1111 1.384 . S
H1114 C1120 0.930 . S
H1115 C1124 0.930 . S
H1116 C1129 0.929 . S
H1117 C1127 0.929 . S
H1118 C1122 0.929 . S
H1119 C1128 0.929 . S
C1120 H1114 0.930 . S
C1120 C1121 1.367 . S
C1120 C1128 1.378 . S
C1121 C1120 1.367 . S
C1121 C1129 1.433 . S
C1122 H1118 0.929 . S
C1122 C1124 1.378 . S
C1122 C1126 1.350 . S
C1123 C1126 1.463 . S
C1123 C1128 1.350 . S
C1123 N1131 1.427 . S
C1124 H1115 0.930 . S
C1124 C1122 1.378 . S
C1124 C1125 1.367 . S
C1125 C1124 1.367 . S
C1125 C1127 1.433 . S
C1126 C1122 1.350 . S
C1126 C1123 1.463 . S
C1126 N1130 1.427 . S
C1127 H1117 0.929 . S
C1127 C1125 1.433 . S
C1127 N1130 1.384 . S
C1128 H1119 0.929 . S
C1128 C1120 1.378 . S
C1128 C1123 1.350 . S
C1129 H1116 0.929 . S
C1129 C1121 1.433 . S
C1129 N1131 1.384 . S
N1130 C1126 1.427 . S
N1130 C1127 1.384 . S
N1131 C1123 1.427 . S
N1131 C1129 1.384 . S
H1132 C1138 0.930 . S
H1133 C1142 0.930 . S
H1134 C1147 0.929 . S
H1135 C1145 0.929 . S
H1136 C1140 0.929 . S
H1137 C1146 0.929 . S
C1138 H1132 0.930 . S
C1138 C1139 1.367 . S
C1138 C1146 1.378 . S
C1139 C1138 1.367 . S
C1139 C1147 1.433 . S
C1140 H1136 0.929 . S
C1140 C1142 1.378 . S
C1140 C1144 1.350 . S
C1141 C1144 1.463 . S
C1141 C1146 1.350 . S
C1141 N1149 1.427 . S
C1142 H1133 0.930 . S
C1142 C1140 1.378 . S
C1142 C1143 1.367 . S
C1143 C1142 1.367 . S
C1143 C1145 1.433 . S
C1144 C1140 1.350 . S
C1144 C1141 1.463 . S
C1144 N1148 1.427 . S
C1145 H1135 0.929 . S
C1145 C1143 1.433 . S
C1145 N1148 1.384 . S
C1146 H1137 0.929 . S
C1146 C1138 1.378 . S
C1146 C1141 1.350 . S
C1147 H1134 0.929 . S
C1147 C1139 1.433 . S
C1147 N1149 1.384 . S
N1148 C1144 1.427 . S
N1148 C1145 1.384 . S
N1149 C1141 1.427 . S
N1149 C1147 1.384 . S
H1150 C1156 0.930 . S
H1151 C1160 0.930 . S
H1152 C1165 0.929 . S
H1153 C1163 0.929 . S
H1154 C1158 0.929 . S
H1155 C1164 0.929 . S
C1156 H1150 0.930 . S
C1156 C1157 1.367 . S
C1156 C1164 1.378 . S
C1157 C1156 1.367 . S
C1157 C1165 1.433 . S
C1158 H1154 0.929 . S
C1158 C1160 1.378 . S
C1158 C1162 1.350 . S
C1159 C1162 1.463 1_556 S
C1159 C1164 1.350 . S
C1159 N1167 1.427 . S
C1160 H1151 0.930 . S
C1160 C1158 1.378 . S
C1160 C1161 1.367 . S
C1161 C1160 1.367 . S
C1161 C1163 1.433 . S
C1162 C1158 1.350 . S
C1162 C1159 1.463 1_554 S
C1162 N1166 1.427 . S
C1163 H1153 0.929 . S
C1163 C1161 1.433 . S
C1163 N1166 1.384 . S
C1164 H1155 0.929 . S
C1164 C1156 1.378 . S
C1164 C1159 1.350 . S
C1165 H1152 0.929 . S
C1165 C1157 1.433 . S
C1165 N1167 1.384 . S
N1166 C1162 1.427 . S
N1166 C1163 1.384 . S
N1167 C1159 1.427 . S
N1167 C1165 1.384 . S
H1168 C1174 0.920 1_455 S
H1169 C1178 0.930 . S
H1170 C1183 0.929 . S
H1171 C1181 0.929 . S
H1172 C1176 0.929 . S
H1173 C1182 0.929 . S
C1174 H1168 0.920 1_655 S
C1174 C1175 1.367 . S
C1174 C1182 1.378 . S
C1175 C1174 1.367 . S
C1175 C1183 1.433 . S
C1176 H1172 0.929 . S
C1176 C1178 1.378 . S
C1176 C1180 1.350 . S
C1177 C1180 1.463 . S
C1177 C1182 1.350 . S
C1177 N1185 1.427 . S
C1178 H1169 0.930 . S
C1178 C1176 1.378 . S
C1178 C1179 1.367 . S
C1179 C1178 1.367 . S
C1179 C1181 1.433 . S
C1180 C1176 1.350 . S
C1180 C1177 1.463 . S
C1180 N1184 1.427 . S
C1181 H1171 0.929 . S
C1181 C1179 1.433 . S
C1181 N1184 1.384 . S
C1182 H1173 0.929 . S
C1182 C1174 1.378 . S
C1182 C1177 1.350 . S
C1183 H1170 0.929 . S
C1183 C1175 1.433 . S
C1183 N1185 1.384 . S
N1184 C1180 1.427 . S
N1184 C1181 1.384 . S
N1185 C1177 1.427 . S
N1185 C1183 1.384 . S
H1186 C1192 0.930 . S
H1187 C1196 0.930 . S
H1188 C1201 0.929 . S
H1189 C1199 0.929 . S
H1190 C1194 0.929 . S
H1191 C1200 0.929 . S
C1192 H1186 0.930 . S
C1192 C1193 1.367 . S
C1192 C1200 1.378 . S
C1193 C1192 1.367 . S
C1193 C1201 1.433 . S
C1194 H1190 0.929 . S
C1194 C1196 1.378 . S
C1194 C1198 1.350 . S
C1195 C1198 1.463 . S
C1195 C1200 1.350 . S
C1195 N1203 1.427 . S
C1196 H1187 0.930 . S
C1196 C1194 1.378 . S
C1196 C1197 1.367 . S
C1197 C1196 1.367 . S
C1197 C1199 1.433 . S
C1198 C1194 1.350 . S
C1198 C1195 1.463 . S
C1198 N1202 1.427 . S
C1199 H1189 0.929 . S
C1199 C1197 1.433 . S
C1199 N1202 1.384 . S
C1200 H1191 0.929 . S
C1200 C1192 1.378 . S
C1200 C1195 1.350 . S
C1201 H1188 0.929 . S
C1201 C1193 1.433 . S
C1201 N1203 1.384 . S
N1202 C1198 1.427 . S
N1202 C1199 1.384 . S
N1203 C1195 1.427 . S
N1203 C1201 1.384 . S
H1204 C1210 0.930 . S
H1205 C1214 0.930 . S
H1206 C1219 0.929 . S
H1207 C1217 0.929 . S
H1208 C1212 0.929 . S
H1209 C1218 0.929 . S
C1210 H1204 0.930 . S
C1210 C1211 1.367 . S
C1210 C1218 1.378 . S
C1211 C1210 1.367 . S
C1211 C1219 1.433 . S
C1212 H1208 0.929 . S
C1212 C1214 1.378 . S
C1212 C1216 1.350 . S
C1213 C1216 1.463 . S
C1213 C1218 1.350 . S
C1213 N1221 1.427 . S
C1214 H1205 0.930 . S
C1214 C1212 1.378 . S
C1214 C1215 1.367 . S
C1215 C1214 1.367 . S
C1215 C1217 1.433 . S
C1216 C1212 1.350 . S
C1216 C1213 1.463 . S
C1216 N1220 1.427 . S
C1217 H1207 0.929 . S
C1217 C1215 1.433 . S
C1217 N1220 1.384 . S
C1218 H1209 0.929 . S
C1218 C1210 1.378 . S
C1218 C1213 1.350 . S
C1219 H1206 0.929 . S
C1219 C1211 1.433 . S
C1219 N1221 1.384 . S
N1220 C1216 1.427 . S
N1220 C1217 1.384 . S
N1221 C1213 1.427 . S
N1221 C1219 1.384 . S
H1222 C1228 0.930 . S
H1223 C1232 0.930 . S
H1224 C1237 0.929 . S
H1225 C1235 0.929 . S
H1226 C1230 0.929 . S
H1227 C1236 0.929 . S
C1228 H1222 0.930 . S
C1228 C1229 1.367 . S
C1228 C1236 1.378 . S
C1229 C1228 1.367 . S
C1229 C1237 1.433 . S
C1230 H1226 0.929 . S
C1230 C1232 1.378 1_554 S
C1230 C1234 1.350 . S
C1231 C1234 1.463 . S
C1231 C1236 1.350 . S
C1231 N1239 1.427 . S
C1232 H1223 0.930 . S
C1232 C1230 1.378 1_556 S
C1232 C1233 1.367 . S
C1233 C1232 1.367 . S
C1233 C1235 1.433 . S
C1234 C1230 1.350 . S
C1234 C1231 1.463 . S
C1234 N1238 1.433 . S
C1235 H1225 0.929 . S
C1235 C1233 1.433 . S
C1235 N1238 1.373 1_556 S
C1236 H1227 0.929 . S
C1236 C1228 1.378 . S
C1236 C1231 1.350 . S
C1237 H1224 0.929 . S
C1237 C1229 1.433 . S
C1237 N1239 1.384 . S
N1238 C1234 1.433 . S
N1238 C1235 1.373 1_554 S
N1239 C1231 1.427 . S
N1239 C1237 1.384 . S
H1240 C1246 0.930 . S
H1241 C1250 0.930 . S
H1242 C1255 0.929 . S
H1243 C1253 0.929 . S
H1244 C1248 0.929 . S
H1245 C1254 0.929 . S
C1246 H1240 0.930 . S
C1246 C1247 1.367 . S
C1246 C1254 1.378 . S
C1247 C1246 1.367 . S
C1247 C1255 1.433 . S
C1248 H1244 0.929 . S
C1248 C1250 1.378 . S
C1248 C1252 1.350 . S
C1249 C1252 1.463 . S
C1249 C1254 1.350 . S
C1249 N1257 1.427 . S
C1250 H1241 0.930 . S
C1250 C1248 1.378 . S
C1250 C1251 1.367 . S
C1251 C1250 1.367 . S
C1251 C1253 1.433 . S
C1252 C1248 1.350 . S
C1252 C1249 1.463 . S
C1252 N1256 1.427 . S
C1253 H1243 0.929 . S
C1253 C1251 1.433 . S
C1253 N1256 1.384 . S
C1254 H1245 0.929 . S
C1254 C1246 1.378 . S
C1254 C1249 1.350 . S
C1255 H1242 0.929 . S
C1255 C1247 1.433 . S
C1255 N1257 1.384 . S
N1256 C1252 1.427 . S
N1256 C1253 1.384 . S
N1257 C1249 1.427 . S
N1257 C1255 1.384 . S
H1258 C1264 0.930 . S
H1259 C1268 0.930 . S
H1260 C1273 0.929 . S
H1261 C1271 0.929 . S
H1262 C1266 0.929 . S
H1263 C1272 0.929 . S
C1264 H1258 0.930 . S
C1264 C1265 1.367 . S
C1264 C1272 1.378 . S
C1265 C1264 1.367 . S
C1265 C1273 1.433 . S
C1266 H1262 0.929 . S
C1266 C1268 1.378 1_565 S
C1266 C1270 1.350 . S
C1267 C1270 1.463 . S
C1267 C1272 1.350 . S
C1267 N1275 1.427 . S
C1268 H1259 0.930 . S
C1268 C1266 1.378 1_545 S
C1268 C1269 1.367 . S
C1269 C1268 1.367 . S
C1269 C1271 1.433 . S
C1270 C1266 1.350 . S
C1270 C1267 1.463 . S
C1270 N1274 1.427 1_565 S
C1271 H1261 0.929 . S
C1271 C1269 1.433 . S
C1271 N1274 1.384 . S
C1272 H1263 0.929 . S
C1272 C1264 1.378 . S
C1272 C1267 1.350 . S
C1273 H1260 0.929 . S
C1273 C1265 1.433 . S
C1273 N1275 1.384 . S
N1274 C1270 1.427 1_545 S
N1274 C1271 1.384 . S
N1275 C1267 1.427 . S
N1275 C1273 1.384 . S
H1276 C1282 0.930 . S
H1277 C1286 0.930 . S
H1278 C1291 0.929 . S
H1279 C1289 0.929 . S
H1280 C1284 0.929 . S
H1281 C1290 0.929 . S
C1282 H1276 0.930 . S
C1282 C1283 1.367 . S
C1282 C1290 1.378 . S
C1283 C1282 1.367 . S
C1283 C1291 1.433 . S
C1284 H1280 0.929 . S
C1284 C1286 1.378 . S
C1284 C1288 1.350 . S
C1285 C1288 1.463 . S
C1285 C1290 1.350 . S
C1285 N1293 1.427 . S
C1286 H1277 0.930 . S
C1286 C1284 1.378 . S
C1286 C1287 1.367 . S
C1287 C1286 1.367 . S
C1287 C1289 1.433 . S
C1288 C1284 1.350 . S
C1288 C1285 1.463 . S
C1288 N1292 1.427 . S
C1289 H1279 0.929 . S
C1289 C1287 1.433 . S
C1289 N1292 1.384 . S
C1290 H1281 0.929 . S
C1290 C1282 1.378 . S
C1290 C1285 1.350 . S
C1291 H1278 0.929 . S
C1291 C1283 1.433 . S
C1291 N1293 1.384 . S
N1292 C1288 1.427 . S
N1292 C1289 1.384 . S
N1293 C1285 1.427 . S
N1293 C1291 1.384 . S
H1294 C1300 0.930 . S
H1295 C1304 0.930 . S
H1296 C1309 0.929 . S
H1297 C1307 0.929 . S
H1298 C1302 0.929 . S
H1299 C1308 0.929 . S
C1300 H1294 0.930 . S
C1300 C1301 1.367 . S
C1300 C1308 1.378 . S
C1301 C1300 1.367 . S
C1301 C1309 1.433 . S
C1302 H1298 0.929 . S
C1302 C1304 1.378 1_545 S
C1302 C1306 1.350 . S
C1303 C1306 1.463 . S
C1303 C1308 1.350 . S
C1303 N1311 1.427 . S
C1304 H1295 0.930 . S
C1304 C1302 1.378 1_565 S
C1304 C1305 1.367 . S
C1305 C1304 1.367 . S
C1305 C1307 1.433 . S
C1306 C1302 1.350 . S
C1306 C1303 1.463 . S
C1306 N1310 1.427 1_545 S
C1307 H1297 0.929 . S
C1307 C1305 1.433 . S
C1307 N1310 1.384 . S
C1308 H1299 0.929 . S
C1308 C1300 1.378 . S
C1308 C1303 1.350 . S
C1309 H1296 0.929 . S
C1309 C1301 1.433 . S
C1309 N1311 1.384 . S
N1310 C1306 1.427 1_565 S
N1310 C1307 1.384 . S
N1311 C1303 1.427 . S
N1311 C1309 1.384 . S
H1312 C1318 0.930 . S
H1313 C1322 0.930 . S
H1314 C1327 0.929 . S
H1315 C1325 0.929 . S
H1316 C1320 0.929 . S
H1317 C1326 0.929 . S
C1318 H1312 0.930 . S
C1318 C1319 1.367 . S
C1318 C1326 1.378 . S
C1319 C1318 1.367 . S
C1319 C1327 1.433 . S
C1320 H1316 0.929 . S
C1320 C1322 1.378 . S
C1320 C1324 1.350 . S
C1321 C1324 1.463 . S
C1321 C1326 1.350 . S
C1321 N1329 1.427 . S
C1322 H1313 0.930 . S
C1322 C1320 1.378 . S
C1322 C1323 1.367 . S
C1323 C1322 1.367 . S
C1323 C1325 1.433 . S
C1324 C1320 1.350 . S
C1324 C1321 1.463 . S
C1324 N1328 1.427 . S
C1325 H1315 0.929 . S
C1325 C1323 1.433 . S
C1325 N1328 1.384 . S
C1326 H1317 0.929 . S
C1326 C1318 1.378 . S
C1326 C1321 1.350 . S
C1327 H1314 0.929 . S
C1327 C1319 1.433 . S
C1327 N1329 1.384 . S
N1328 C1324 1.427 . S
N1328 C1325 1.384 . S
N1329 C1321 1.427 . S
N1329 C1327 1.384 . S
H1330 C1336 0.930 . S
H1331 C1340 0.930 . S
H1332 C1345 0.929 . S
H1333 C1343 0.929 . S
H1334 C1338 0.929 1_565 S
H1335 C1344 0.925 . S
C1336 H1330 0.930 . S
C1336 C1337 1.367 . S
C1336 C1344 1.378 . S
C1337 C1336 1.367 . S
C1337 C1345 1.433 . S
C1338 H1334 0.929 1_545 S
C1338 C1340 1.378 . S
C1338 C1342 1.350 . S
C1339 C1342 1.463 1_565 S
C1339 C1344 1.350 . S
C1339 N1347 1.427 . S
C1340 H1331 0.930 . S
C1340 C1338 1.378 . S
C1340 C1341 1.367 . S
C1341 C1340 1.367 . S
C1341 C1343 1.433 . S
C1342 C1338 1.350 . S
C1342 C1339 1.463 1_545 S
C1342 N1346 1.427 . S
C1343 H1333 0.929 . S
C1343 C1341 1.433 . S
C1343 N1346 1.384 . S
C1344 H1335 0.925 . S
C1344 C1336 1.378 . S
C1344 C1339 1.350 . S
C1345 H1332 0.929 . S
C1345 C1337 1.433 . S
C1345 N1347 1.384 . S
N1346 C1342 1.427 . S
N1346 C1343 1.384 . S
N1347 C1339 1.427 . S
N1347 C1345 1.384 . S
H1348 C1354 0.930 . S
H1349 C1358 0.930 . S
H1350 C1363 0.929 . S
H1351 C1361 0.929 . S
H1352 C1356 0.929 . S
H1353 C1362 0.929 . S
C1354 H1348 0.930 . S
C1354 C1355 1.367 . S
C1354 C1362 1.378 . S
C1355 C1354 1.367 . S
C1355 C1363 1.433 . S
C1356 H1352 0.929 . S
C1356 C1358 1.378 . S
C1356 C1360 1.350 . S
C1357 C1360 1.463 . S
C1357 C1362 1.350 . S
C1357 N1365 1.427 . S
C1358 H1349 0.930 . S
C1358 C1356 1.378 . S
C1358 C1359 1.367 . S
C1359 C1358 1.367 . S
C1359 C1361 1.433 . S
C1360 C1356 1.350 . S
C1360 C1357 1.463 . S
C1360 N1364 1.427 . S
C1361 H1351 0.929 . S
C1361 C1359 1.433 . S
C1361 N1364 1.384 . S
C1362 H1353 0.929 . S
C1362 C1354 1.378 . S
C1362 C1357 1.350 . S
C1363 H1350 0.929 . S
C1363 C1355 1.433 . S
C1363 N1365 1.384 . S
N1364 C1360 1.427 . S
N1364 C1361 1.384 . S
N1365 C1357 1.427 . S
N1365 C1363 1.384 . S
H1366 C1372 0.930 . S
H1367 C1376 0.930 . S
H1368 C1381 0.929 . S
H1369 C1379 0.929 . S
H1370 C1374 0.929 . S
H1371 C1380 0.929 . S
C1372 H1366 0.930 . S
C1372 C1373 1.367 . S
C1372 C1380 1.378 . S
C1373 C1372 1.367 . S
C1373 C1381 1.433 . S
C1374 H1370 0.929 . S
C1374 C1376 1.378 . S
C1374 C1378 1.350 1_565 S
C1375 C1378 1.463 . S
C1375 C1380 1.350 . S
C1375 N1383 1.427 . S
C1376 H1367 0.930 . S
C1376 C1374 1.378 . S
C1376 C1377 1.367 . S
C1377 C1376 1.367 . S
C1377 C1379 1.433 . S
C1378 C1374 1.350 1_545 S
C1378 C1375 1.463 . S
C1378 N1382 1.427 . S
C1379 H1369 0.929 . S
C1379 C1377 1.433 . S
C1379 N1382 1.384 1_565 S
C1380 H1371 0.929 . S
C1380 C1372 1.378 . S
C1380 C1375 1.350 . S
C1381 H1368 0.929 . S
C1381 C1373 1.433 . S
C1381 N1383 1.384 . S
N1382 C1378 1.427 . S
N1382 C1379 1.384 1_545 S
N1383 C1375 1.427 . S
N1383 C1381 1.384 . S
H1384 C1390 0.930 . S
H1385 C1394 0.930 . S
H1386 C1399 0.929 1_554 S
H1387 C1397 0.929 . S
H1388 C1392 0.929 . S
H1389 C1398 0.929 . S
C1390 H1384 0.930 . S
C1390 C1391 1.367 . S
C1390 C1398 1.378 . S
C1391 C1390 1.367 . S
C1391 C1399 1.433 . S
C1392 H1388 0.929 . S
C1392 C1394 1.378 . S
C1392 C1396 1.350 . S
C1393 C1396 1.463 . S
C1393 C1398 1.350 . S
C1393 N1401 1.427 . S
C1394 H1385 0.930 . S
C1394 C1392 1.378 . S
C1394 C1395 1.367 . S
C1395 C1394 1.367 . S
C1395 C1397 1.433 . S
C1396 C1392 1.350 . S
C1396 C1393 1.463 . S
C1396 N1400 1.427 . S
C1397 H1387 0.929 . S
C1397 C1395 1.433 . S
C1397 N1400 1.384 . S
C1398 H1389 0.929 . S
C1398 C1390 1.378 . S
C1398 C1393 1.350 . S
C1399 H1386 0.929 1_556 S
C1399 C1391 1.433 . S
C1399 N1401 1.384 . S
N1400 C1396 1.427 . S
N1400 C1397 1.384 . S
N1401 C1393 1.427 . S
N1401 C1399 1.384 . S
H1402 C1408 0.930 . S
H1403 C1412 0.930 . S
H1404 C1417 0.929 . S
H1405 C1415 0.929 . S
H1406 C1410 0.929 . S
H1407 C1416 0.929 . S
C1408 H1402 0.930 . S
C1408 C1409 1.367 . S
C1408 C1416 1.378 . S
C1409 C1408 1.367 . S
C1409 C1417 1.433 . S
C1410 H1406 0.929 . S
C1410 C1412 1.378 . S
C1410 C1414 1.350 . S
C1411 C1414 1.463 . S
C1411 C1416 1.350 . S
C1411 N1419 1.427 . S
C1412 H1403 0.930 . S
C1412 C1410 1.378 . S
C1412 C1413 1.367 . S
C1413 C1412 1.367 . S
C1413 C1415 1.433 . S
C1414 C1410 1.350 . S
C1414 C1411 1.463 . S
C1414 N1418 1.427 . S
C1415 H1405 0.929 . S
C1415 C1413 1.433 . S
C1415 N1418 1.384 . S
C1416 H1407 0.929 . S
C1416 C1408 1.378 . S
C1416 C1411 1.350 . S
C1417 H1404 0.929 . S
C1417 C1409 1.433 . S
C1417 N1419 1.384 . S
N1418 C1414 1.427 . S
N1418 C1415 1.384 . S
N1419 C1411 1.427 . S
N1419 C1417 1.384 . S
H1420 C1426 0.930 . S
H1421 C1430 0.930 . S
H1422 C1435 0.929 . S
H1423 C1433 0.929 . S
H1424 C1428 0.929 . S
H1425 C1434 0.929 . S
C1426 H1420 0.930 . S
C1426 C1427 1.367 . S
C1426 C1434 1.378 . S
C1427 C1426 1.367 . S
C1427 C1435 1.433 . S
C1428 H1424 0.929 . S
C1428 C1430 1.378 1_655 S
C1428 C1432 1.350 . S
C1429 C1432 1.463 . S
C1429 C1434 1.350 . S
C1429 N1437 1.427 . S
C1430 H1421 0.930 . S
C1430 C1428 1.378 1_455 S
C1430 C1431 1.367 . S
C1431 C1430 1.367 . S
C1431 C1433 1.433 . S
C1432 C1428 1.350 . S
C1432 C1429 1.463 . S
C1432 N1436 1.427 1_655 S
C1433 H1423 0.929 . S
C1433 C1431 1.433 . S
C1433 N1436 1.384 . S
C1434 H1425 0.929 . S
C1434 C1426 1.378 . S
C1434 C1429 1.350 . S
C1435 H1422 0.929 . S
C1435 C1427 1.433 . S
C1435 N1437 1.384 . S
N1436 C1432 1.427 1_455 S
N1436 C1433 1.384 . S
N1437 C1429 1.427 . S
N1437 C1435 1.384 . S
H1438 C1444 0.930 . S
H1439 C1448 0.930 . S
H1440 C1453 0.929 . S
H1441 C1451 0.929 . S
H1442 C1446 0.929 . S
H1443 C1452 0.929 . S
C1444 H1438 0.930 . S
C1444 C1445 1.367 . S
C1444 C1452 1.378 . S
C1445 C1444 1.367 . S
C1445 C1453 1.433 . S
C1446 H1442 0.929 . S
C1446 C1448 1.378 . S
C1446 C1450 1.350 . S
C1447 C1450 1.463 . S
C1447 C1452 1.350 . S
C1447 N1455 1.427 . S
C1448 H1439 0.930 . S
C1448 C1446 1.378 . S
C1448 C1449 1.367 . S
C1449 C1448 1.367 . S
C1449 C1451 1.433 . S
C1450 C1446 1.350 . S
C1450 C1447 1.463 . S
C1450 N1454 1.427 . S
C1451 H1441 0.929 . S
C1451 C1449 1.433 . S
C1451 N1454 1.384 . S
C1452 H1443 0.929 . S
C1452 C1444 1.378 . S
C1452 C1447 1.350 . S
C1453 H1440 0.929 . S
C1453 C1445 1.433 . S
C1453 N1455 1.384 . S
N1454 C1450 1.427 . S
N1454 C1451 1.384 . S
N1455 C1447 1.427 . S
N1455 C1453 1.384 . S
H1456 C1462 0.930 . S
H1457 C1466 0.930 . S
H1458 C1471 0.929 . S
H1459 C1469 0.929 . S
H1460 C1464 0.929 . S
H1461 C1470 0.929 . S
C1462 H1456 0.930 . S
C1462 C1463 1.367 . S
C1462 C1470 1.378 . S
C1463 C1462 1.367 . S
C1463 C1471 1.433 . S
C1464 H1460 0.929 . S
C1464 C1466 1.378 1_455 S
C1464 C1468 1.350 . S
C1465 C1468 1.463 . S
C1465 C1470 1.350 . S
C1465 N1473 1.427 . S
C1466 H1457 0.930 . S
C1466 C1464 1.378 1_655 S
C1466 C1467 1.367 . S
C1467 C1466 1.367 . S
C1467 C1469 1.433 . S
C1468 C1464 1.350 . S
C1468 C1465 1.463 . S
C1468 N1472 1.427 1_455 S
C1469 H1459 0.929 . S
C1469 C1467 1.433 . S
C1469 N1472 1.384 . S
C1470 H1461 0.929 . S
C1470 C1462 1.378 . S
C1470 C1465 1.350 . S
C1471 H1458 0.929 . S
C1471 C1463 1.433 . S
C1471 N1473 1.384 . S
N1472 C1468 1.427 1_655 S
N1472 C1469 1.384 . S
N1473 C1465 1.427 . S
N1473 C1471 1.384 . S
H1474 C1480 0.930 . S
H1475 C1484 0.930 . S
H1476 C1489 0.929 . S
H1477 C1487 0.929 . S
H1478 C1482 0.929 . S
H1479 C1488 0.929 . S
C1480 H1474 0.930 . S
C1480 C1481 1.367 . S
C1480 C1488 1.378 . S
C1481 C1480 1.367 . S
C1481 C1489 1.433 . S
C1482 H1478 0.929 . S
C1482 C1484 1.378 . S
C1482 C1486 1.350 . S
C1483 C1486 1.463 . S
C1483 C1488 1.350 . S
C1483 N1491 1.427 . S
C1484 H1475 0.930 . S
C1484 C1482 1.378 . S
C1484 C1485 1.367 . S
C1485 C1484 1.367 . S
C1485 C1487 1.433 . S
C1486 C1482 1.350 . S
C1486 C1483 1.463 . S
C1486 N1490 1.427 . S
C1487 H1477 0.929 . S
C1487 C1485 1.433 . S
C1487 N1490 1.384 . S
C1488 H1479 0.929 . S
C1488 C1480 1.378 . S
C1488 C1483 1.350 . S
C1489 H1476 0.929 . S
C1489 C1481 1.433 . S
C1489 N1491 1.384 . S
N1490 C1486 1.427 . S
N1490 C1487 1.384 . S
N1491 C1483 1.427 . S
N1491 C1489 1.384 . S
H1492 C1498 0.930 . S
H1493 C1502 0.930 . S
H1494 C1507 0.929 . S
H1495 C1505 0.929 . S
H1496 C1500 0.929 . S
H1497 C1506 0.929 . S
C1498 H1492 0.930 . S
C1498 C1499 1.367 . S
C1498 C1506 1.378 . S
C1499 C1498 1.367 . S
C1499 C1507 1.433 . S
C1500 H1496 0.929 . S
C1500 C1502 1.378 . S
C1500 C1504 1.350 . S
C1501 C1504 1.463 1_655 S
C1501 C1506 1.350 . S
C1501 N1509 1.427 . S
C1502 H1493 0.930 . S
C1502 C1500 1.378 . S
C1502 C1503 1.367 . S
C1503 C1502 1.367 . S
C1503 C1505 1.433 . S
C1504 C1500 1.350 . S
C1504 C1501 1.463 1_455 S
C1504 N1508 1.427 . S
C1505 H1495 0.929 . S
C1505 C1503 1.433 . S
C1505 N1508 1.384 . S
C1506 H1497 0.929 . S
C1506 C1498 1.378 . S
C1506 C1501 1.350 . S
C1507 H1494 0.929 . S
C1507 C1499 1.433 . S
C1507 N1509 1.384 . S
N1508 C1504 1.427 . S
N1508 C1505 1.384 . S
N1509 C1501 1.427 . S
N1509 C1507 1.384 . S
H1510 C1516 0.930 . S
H1511 C1520 0.930 . S
H1512 C1525 0.929 . S
H1513 C1523 0.929 . S
H1514 C1518 0.929 . S
H1515 C1524 0.929 . S
C1516 H1510 0.930 . S
C1516 C1517 1.367 . S
C1516 C1524 1.378 . S
C1517 C1516 1.367 . S
C1517 C1525 1.433 . S
C1518 H1514 0.929 . S
C1518 C1520 1.378 . S
C1518 C1522 1.350 . S
C1519 C1522 1.463 . S
C1519 C1524 1.350 . S
C1519 N1527 1.427 . S
C1520 H1511 0.930 . S
C1520 C1518 1.378 . S
C1520 C1521 1.367 . S
C1521 C1520 1.367 . S
C1521 C1523 1.433 . S
C1522 C1518 1.350 . S
C1522 C1519 1.463 . S
C1522 N1526 1.427 . S
C1523 H1513 0.929 . S
C1523 C1521 1.433 . S
C1523 N1526 1.384 . S
C1524 H1515 0.929 . S
C1524 C1516 1.378 . S
C1524 C1519 1.350 . S
C1525 H1512 0.929 . S
C1525 C1517 1.433 . S
C1525 N1527 1.384 . S
N1526 C1522 1.427 . S
N1526 C1523 1.384 . S
N1527 C1519 1.427 . S
N1527 C1525 1.384 . S
H1528 C1534 0.930 . S
H1529 C1538 0.930 . S
H1530 C1543 0.929 . S
H1531 C1541 0.929 . S
H1532 C1536 0.929 . S
H1533 C1542 0.929 . S
C1534 H1528 0.930 . S
C1534 C1535 1.367 . S
C1534 C1542 1.378 . S
C1535 C1534 1.367 . S
C1535 C1543 1.433 . S
C1536 H1532 0.929 . S
C1536 C1538 1.378 . S
C1536 C1540 1.350 . S
C1537 C1540 1.463 . S
C1537 C1542 1.350 . S
C1537 N1545 1.427 . S
C1538 H1529 0.930 . S
C1538 C1536 1.378 . S
C1538 C1539 1.367 . S
C1539 C1538 1.367 . S
C1539 C1541 1.433 . S
C1540 C1536 1.350 . S
C1540 C1537 1.463 . S
C1540 N1544 1.427 . S
C1541 H1531 0.929 . S
C1541 C1539 1.433 . S
C1541 N1544 1.384 . S
C1542 H1533 0.929 . S
C1542 C1534 1.378 . S
C1542 C1537 1.350 . S
C1543 H1530 0.929 . S
C1543 C1535 1.433 . S
C1543 N1545 1.384 . S
N1544 C1540 1.427 . S
N1544 C1541 1.384 . S
N1545 C1537 1.427 . S
N1545 C1543 1.384 . S
H1546 C1552 0.930 . S
H1547 C1556 0.930 . S
H1548 C1561 0.929 . S
H1549 C1559 0.929 . S
H1550 C1554 0.929 . S
H1551 C1560 0.929 . S
C1552 H1546 0.930 . S
C1552 C1553 1.367 . S
C1552 C1560 1.378 . S
C1553 C1552 1.367 . S
C1553 C1561 1.433 . S
C1554 H1550 0.929 . S
C1554 C1556 1.378 1_554 S
C1554 C1558 1.350 . S
C1555 C1558 1.463 . S
C1555 C1560 1.350 . S
C1555 N1563 1.427 . S
C1556 H1547 0.930 . S
C1556 C1554 1.378 1_556 S
C1556 C1557 1.367 . S
C1557 C1556 1.367 . S
C1557 C1559 1.433 . S
C1558 C1554 1.350 . S
C1558 C1555 1.463 . S
C1558 N1562 1.427 1_554 S
C1559 H1549 0.929 . S
C1559 C1557 1.433 . S
C1559 N1562 1.384 . S
C1560 H1551 0.929 . S
C1560 C1552 1.378 . S
C1560 C1555 1.350 . S
C1561 H1548 0.929 . S
C1561 C1553 1.433 . S
C1561 N1563 1.384 . S
N1562 C1558 1.427 1_556 S
N1562 C1559 1.384 . S
N1563 C1555 1.427 . S
N1563 C1561 1.384 . S
H1564 C1570 0.930 . S
H1565 C1574 0.930 . S
H1566 C1579 0.929 . S
H1567 C1577 0.929 . S
H1568 C1572 0.929 . S
H1569 C1578 0.929 . S
C1570 H1564 0.930 . S
C1570 C1571 1.367 . S
C1570 C1578 1.378 . S
C1571 C1570 1.367 . S
C1571 C1579 1.433 . S
C1572 H1568 0.929 . S
C1572 C1574 1.378 . S
C1572 C1576 1.350 . S
C1573 C1576 1.463 . S
C1573 C1578 1.350 . S
C1573 N1581 1.427 . S
C1574 H1565 0.930 . S
C1574 C1572 1.378 . S
C1574 C1575 1.367 . S
C1575 C1574 1.367 . S
C1575 C1577 1.433 . S
C1576 C1572 1.350 . S
C1576 C1573 1.463 . S
C1576 N1580 1.427 . S
C1577 H1567 0.929 . S
C1577 C1575 1.433 . S
C1577 N1580 1.384 . S
C1578 H1569 0.929 . S
C1578 C1570 1.378 . S
C1578 C1573 1.350 . S
C1579 H1566 0.929 . S
C1579 C1571 1.433 . S
C1579 N1581 1.384 . S
N1580 C1576 1.427 . S
N1580 C1577 1.384 . S
N1581 C1573 1.427 . S
N1581 C1579 1.384 . S
H1582 C1588 0.930 . S
H1583 C1592 0.930 . S
H1584 C1597 0.929 . S
H1585 C1595 0.929 . S
H1586 C1590 0.929 . S
H1587 C1596 0.929 . S
C1588 H1582 0.930 . S
C1588 C1589 1.367 . S
C1588 C1596 1.378 . S
C1589 C1588 1.367 . S
C1589 C1597 1.433 . S
C1590 H1586 0.929 . S
C1590 C1592 1.378 . S
C1590 C1594 1.350 . S
C1591 C1594 1.463 . S
C1591 C1596 1.350 . S
C1591 N1599 1.427 . S
C1592 H1583 0.930 . S
C1592 C1590 1.378 . S
C1592 C1593 1.367 . S
C1593 C1592 1.367 . S
C1593 C1595 1.433 . S
C1594 C1590 1.350 . S
C1594 C1591 1.463 . S
C1594 N1598 1.427 . S
C1595 H1585 0.929 . S
C1595 C1593 1.433 . S
C1595 N1598 1.384 . S
C1596 H1587 0.929 . S
C1596 C1588 1.378 . S
C1596 C1591 1.350 . S
C1597 H1584 0.929 . S
C1597 C1589 1.433 . S
C1597 N1599 1.384 . S
N1598 C1594 1.427 . S
N1598 C1595 1.384 . S
N1599 C1591 1.427 . S
N1599 C1597 1.384 . S
H1600 C1606 0.930 . S
H1601 C1610 0.930 . S
H1602 C1615 0.929 . S
H1603 C1613 0.929 . S
H1604 C1608 0.929 . S
H1605 C1614 0.929 . S
C1606 H1600 0.930 . S
C1606 C1607 1.367 . S
C1606 C1614 1.378 . S
C1607 C1606 1.367 . S
C1607 C1615 1.433 . S
C1608 H1604 0.929 . S
C1608 C1610 1.378 . S
C1608 C1612 1.350 . S
C1609 C1612 1.463 . S
C1609 C1614 1.350 . S
C1609 N1617 1.427 . S
C1610 H1601 0.930 . S
C1610 C1608 1.378 . S
C1610 C1611 1.367 . S
C1611 C1610 1.367 . S
C1611 C1613 1.433 . S
C1612 C1608 1.350 . S
C1612 C1609 1.463 . S
C1612 N1616 1.427 . S
C1613 H1603 0.929 . S
C1613 C1611 1.433 . S
C1613 N1616 1.384 . S
C1614 H1605 0.929 . S
C1614 C1606 1.378 . S
C1614 C1609 1.350 . S
C1615 H1602 0.929 . S
C1615 C1607 1.433 . S
C1615 N1617 1.384 . S
N1616 C1612 1.427 . S
N1616 C1613 1.384 . S
N1617 C1609 1.427 . S
N1617 C1615 1.384 . S
H1618 C1624 0.930 . S
H1619 C1628 0.930 . S
H1620 C1633 0.929 . S
H1621 C1631 0.929 . S
H1622 C1626 0.929 1_556 S
H1623 C1632 0.929 . S
C1624 H1618 0.930 . S
C1624 C1625 1.367 . S
C1624 C1632 1.378 . S
C1625 C1624 1.367 . S
C1625 C1633 1.433 . S
C1626 H1622 0.929 1_554 S
C1626 C1628 1.378 . S
C1626 C1630 1.350 . S
C1627 C1630 1.463 1_556 S
C1627 C1632 1.350 . S
C1627 N1635 1.427 . S
C1628 H1619 0.930 . S
C1628 C1626 1.378 . S
C1628 C1629 1.367 . S
C1629 C1628 1.367 . S
C1629 C1631 1.433 . S
C1630 C1626 1.350 . S
C1630 C1627 1.463 1_554 S
C1630 N1634 1.427 . S
C1631 H1621 0.929 . S
C1631 C1629 1.433 . S
C1631 N1634 1.384 . S
C1632 H1623 0.929 . S
C1632 C1624 1.378 . S
C1632 C1627 1.350 . S
C1633 H1620 0.929 . S
C1633 C1625 1.433 . S
C1633 N1635 1.384 . S
N1634 C1630 1.427 . S
N1634 C1631 1.384 . S
N1635 C1627 1.427 . S
N1635 C1633 1.384 . S
H1636 C1642 0.930 . S
H1637 C1646 0.930 . S
H1638 C1651 0.929 . S
H1639 C1649 0.929 . S
H1640 C1644 0.929 . S
H1641 C1650 0.929 . S
C1642 H1636 0.930 . S
C1642 C1643 1.367 . S
C1642 C1650 1.378 . S
C1643 C1642 1.367 . S
C1643 C1651 1.433 . S
C1644 H1640 0.929 . S
C1644 C1646 1.378 . S
C1644 C1648 1.350 . S
C1645 C1648 1.463 . S
C1645 C1650 1.350 . S
C1645 N1653 1.427 . S
C1646 H1637 0.930 . S
C1646 C1644 1.378 . S
C1646 C1647 1.367 . S
C1647 C1646 1.367 . S
C1647 C1649 1.433 . S
C1648 C1644 1.350 . S
C1648 C1645 1.463 . S
C1648 N1652 1.427 . S
C1649 H1639 0.929 . S
C1649 C1647 1.433 . S
C1649 N1652 1.384 . S
C1650 H1641 0.929 . S
C1650 C1642 1.378 . S
C1650 C1645 1.350 . S
C1651 H1638 0.929 . S
C1651 C1643 1.433 . S
C1651 N1653 1.384 . S
N1652 C1648 1.427 . S
N1652 C1649 1.384 . S
N1653 C1645 1.427 . S
N1653 C1651 1.384 . S
H1654 C1660 0.930 . S
H1655 C1664 0.930 . S
H1656 C1669 0.929 . S
H1657 C1667 0.929 . S
H1658 C1662 0.929 . S
H1659 C1668 0.929 . S
C1660 H1654 0.930 . S
C1660 C1661 1.367 . S
C1660 C1668 1.378 . S
C1661 C1660 1.367 . S
C1661 C1669 1.433 . S
C1662 H1658 0.929 . S
C1662 C1664 1.378 . S
C1662 C1666 1.350 . S
C1663 C1666 1.463 . S
C1663 C1668 1.350 . S
C1663 N1671 1.427 . S
C1664 H1655 0.930 . S
C1664 C1662 1.378 . S
C1664 C1665 1.367 . S
C1665 C1664 1.367 . S
C1665 C1667 1.433 . S
C1666 C1662 1.350 . S
C1666 C1663 1.463 . S
C1666 N1670 1.427 . S
C1667 H1657 0.929 . S
C1667 C1665 1.433 . S
C1667 N1670 1.384 . S
C1668 H1659 0.929 . S
C1668 C1660 1.378 . S
C1668 C1663 1.350 . S
C1669 H1656 0.929 . S
C1669 C1661 1.433 . S
C1669 N1671 1.384 . S
N1670 C1666 1.427 . S
N1670 C1667 1.384 . S
N1671 C1663 1.427 . S
N1671 C1669 1.384 . S
H1672 C1678 0.930 . S
H1673 C1682 0.930 . S
H1674 C1687 0.929 . S
H1675 C1685 0.929 . S
H1676 C1680 0.929 . S
H1677 C1686 0.929 . S
C1678 H1672 0.930 . S
C1678 C1679 1.367 . S
C1678 C1686 1.378 . S
C1679 C1678 1.367 . S
C1679 C1687 1.433 . S
C1680 H1676 0.929 . S
C1680 C1682 1.378 . S
C1680 C1684 1.350 . S
C1681 C1684 1.463 . S
C1681 C1686 1.350 . S
C1681 N1689 1.427 . S
C1682 H1673 0.930 . S
C1682 C1680 1.378 . S
C1682 C1683 1.367 . S
C1683 C1682 1.367 . S
C1683 C1685 1.433 . S
C1684 C1680 1.350 . S
C1684 C1681 1.463 . S
C1684 N1688 1.427 . S
C1685 H1675 0.929 . S
C1685 C1683 1.433 . S
C1685 N1688 1.384 . S
C1686 H1677 0.929 . S
C1686 C1678 1.378 . S
C1686 C1681 1.350 . S
C1687 H1674 0.929 . S
C1687 C1679 1.433 . S
C1687 N1689 1.384 . S
N1688 C1684 1.427 . S
N1688 C1685 1.384 . S
N1689 C1681 1.427 . S
N1689 C1687 1.384 . S
H1690 C1696 0.930 . S
H1691 C1700 0.930 . S
H1692 C1705 0.929 1_554 S
H1693 C1703 0.929 . S
H1694 C1698 0.929 . S
H1695 C1704 0.929 . S
C1696 H1690 0.930 . S
C1696 C1697 1.367 . S
C1696 C1704 1.378 . S
C1697 C1696 1.367 . S
C1697 C1705 1.433 . S
C1698 H1694 0.929 . S
C1698 C1700 1.378 . S
C1698 C1702 1.350 . S
C1699 C1702 1.463 . S
C1699 C1704 1.350 . S
C1699 N1707 1.427 . S
C1700 H1691 0.930 . S
C1700 C1698 1.378 . S
C1700 C1701 1.367 . S
C1701 C1700 1.367 . S
C1701 C1703 1.433 . S
C1702 C1698 1.350 . S
C1702 C1699 1.463 . S
C1702 N1706 1.427 . S
C1703 H1693 0.929 . S
C1703 C1701 1.433 . S
C1703 N1706 1.384 . S
C1704 H1695 0.929 . S
C1704 C1696 1.378 . S
C1704 C1699 1.350 . S
C1705 H1692 0.929 1_556 S
C1705 C1697 1.433 . S
C1705 N1707 1.384 . S
N1706 C1702 1.427 . S
N1706 C1703 1.384 . S
N1707 C1699 1.427 . S
N1707 C1705 1.384 . S
H1708 C1714 0.930 . S
H1709 C1718 0.930 . S
H1710 C1723 0.929 . S
H1711 C1721 0.929 . S
H1712 C1716 0.929 . S
H1713 C1722 0.929 . S
C1714 H1708 0.930 . S
C1714 C1715 1.367 . S
C1714 C1722 1.378 . S
C1715 C1714 1.367 . S
C1715 C1723 1.433 . S
C1716 H1712 0.929 . S
C1716 C1718 1.378 . S
C1716 C1720 1.350 . S
C1717 C1720 1.463 . S
C1717 C1722 1.350 . S
C1717 N1725 1.427 . S
C1718 H1709 0.930 . S
C1718 C1716 1.378 . S
C1718 C1719 1.367 . S
C1719 C1718 1.367 . S
C1719 C1721 1.433 . S
C1720 C1716 1.350 . S
C1720 C1717 1.463 . S
C1720 N1724 1.427 . S
C1721 H1711 0.929 . S
C1721 C1719 1.433 . S
C1721 N1724 1.384 . S
C1722 H1713 0.929 . S
C1722 C1714 1.378 . S
C1722 C1717 1.350 . S
C1723 H1710 0.929 . S
C1723 C1715 1.433 . S
C1723 N1725 1.384 . S
N1724 C1720 1.427 . S
N1724 C1721 1.384 . S
N1725 C1717 1.427 . S
N1725 C1723 1.384 . S
H1726 C1732 0.930 . S
H1727 C1736 0.930 . S
H1728 C1741 0.929 . S
H1729 C1739 0.929 . S
H1730 C1734 0.929 . S
H1731 C1740 0.929 . S
C1732 H1726 0.930 . S
C1732 C1733 1.367 . S
C1732 C1740 1.378 . S
C1733 C1732 1.367 . S
C1733 C1741 1.433 . S
C1734 H1730 0.929 . S
C1734 C1736 1.378 . S
C1734 C1738 1.350 . S
C1735 C1738 1.463 . S
C1735 C1740 1.350 . S
C1735 N1743 1.427 . S
C1736 H1727 0.930 . S
C1736 C1734 1.378 . S
C1736 C1737 1.367 . S
C1737 C1736 1.367 . S
C1737 C1739 1.433 . S
C1738 C1734 1.350 . S
C1738 C1735 1.463 . S
C1738 N1742 1.427 . S
C1739 H1729 0.929 . S
C1739 C1737 1.433 . S
C1739 N1742 1.384 . S
C1740 H1731 0.929 . S
C1740 C1732 1.378 . S
C1740 C1735 1.350 . S
C1741 H1728 0.929 . S
C1741 C1733 1.433 . S
C1741 N1743 1.384 . S
N1742 C1738 1.427 . S
N1742 C1739 1.384 . S
N1743 C1735 1.427 . S
N1743 C1741 1.384 . S
H1744 C1750 0.930 . S
H1745 C1754 0.930 . S
H1746 C1759 0.929 . S
H1747 C1757 0.929 . S
H1748 C1752 0.929 . S
H1749 C1758 0.929 . S
C1750 H1744 0.930 . S
C1750 C1751 1.367 . S
C1750 C1758 1.378 . S
C1751 C1750 1.367 . S
C1751 C1759 1.433 . S
C1752 H1748 0.929 . S
C1752 C1754 1.378 . S
C1752 C1756 1.350 . S
C1753 C1756 1.463 . S
C1753 C1758 1.350 . S
C1753 N1761 1.427 . S
C1754 H1745 0.930 . S
C1754 C1752 1.378 . S
C1754 C1755 1.367 . S
C1755 C1754 1.367 . S
C1755 C1757 1.433 . S
C1756 C1752 1.350 . S
C1756 C1753 1.463 . S
C1756 N1760 1.427 . S
C1757 H1747 0.929 . S
C1757 C1755 1.433 . S
C1757 N1760 1.384 . S
C1758 H1749 0.929 . S
C1758 C1750 1.378 . S
C1758 C1753 1.350 . S
C1759 H1746 0.929 . S
C1759 C1751 1.433 . S
C1759 N1761 1.384 . S
N1760 C1756 1.427 . S
N1760 C1757 1.384 . S
N1761 C1753 1.427 . S
N1761 C1759 1.384 . S
H1762 C1768 0.930 . S
H1763 C1772 0.930 . S
H1764 C1777 0.929 . S
H1765 C1775 0.929 . S
H1766 C1770 0.929 . S
H1767 C1776 0.929 . S
C1768 H1762 0.930 . S
C1768 C1769 1.367 . S
C1768 C1776 1.378 . S
C1769 C1768 1.367 . S
C1769 C1777 1.433 . S
C1770 H1766 0.929 . S
C1770 C1772 1.378 . S
C1770 C1774 1.350 . S
C1771 C1774 1.463 . S
C1771 C1776 1.350 . S
C1771 N1779 1.427 . S
C1772 H1763 0.930 . S
C1772 C1770 1.378 . S
C1772 C1773 1.367 . S
C1773 C1772 1.367 . S
C1773 C1775 1.433 . S
C1774 C1770 1.350 . S
C1774 C1771 1.463 . S
C1774 N1778 1.427 . S
C1775 H1765 0.929 . S
C1775 C1773 1.433 . S
C1775 N1778 1.384 . S
C1776 H1767 0.929 . S
C1776 C1768 1.378 . S
C1776 C1771 1.350 . S
C1777 H1764 0.929 . S
C1777 C1769 1.433 . S
C1777 N1779 1.384 . S
N1778 C1774 1.427 . S
N1778 C1775 1.384 . S
N1779 C1771 1.427 . S
N1779 C1777 1.384 . S
H1780 C1786 0.930 . S
H1781 C1790 0.930 . S
H1782 C1795 0.929 . S
H1783 C1793 0.929 . S
H1784 C1788 0.929 . S
H1785 C1794 0.929 . S
C1786 H1780 0.930 . S
C1786 C1787 1.367 . S
C1786 C1794 1.378 . S
C1787 C1786 1.367 . S
C1787 C1795 1.433 . S
C1788 H1784 0.929 . S
C1788 C1790 1.378 . S
C1788 C1792 1.350 . S
C1789 C1792 1.463 . S
C1789 C1794 1.350 . S
C1789 N1797 1.427 . S
C1790 H1781 0.930 . S
C1790 C1788 1.378 . S
C1790 C1791 1.367 . S
C1791 C1790 1.367 . S
C1791 C1793 1.433 . S
C1792 C1788 1.350 . S
C1792 C1789 1.463 . S
C1792 N1796 1.427 . S
C1793 H1783 0.929 . S
C1793 C1791 1.433 . S
C1793 N1796 1.384 . S
C1794 H1785 0.929 . S
C1794 C1786 1.378 . S
C1794 C1789 1.350 . S
C1795 H1782 0.929 . S
C1795 C1787 1.433 . S
C1795 N1797 1.384 . S
N1796 C1792 1.427 . S
N1796 C1793 1.384 . S
N1797 C1789 1.427 . S
N1797 C1795 1.384 . S
H1798 C1804 0.930 . S
H1799 C1808 0.930 . S
H1800 C1813 0.929 . S
H1801 C1811 0.929 . S
H1802 C1806 0.929 . S
H1803 C1812 0.929 . S
C1804 H1798 0.930 . S
C1804 C1805 1.367 . S
C1804 C1812 1.378 . S
C1805 C1804 1.367 . S
C1805 C1813 1.433 . S
C1806 H1802 0.929 . S
C1806 C1808 1.378 . S
C1806 C1810 1.350 . S
C1807 C1810 1.463 . S
C1807 C1812 1.350 . S
C1807 N1815 1.427 . S
C1808 H1799 0.930 . S
C1808 C1806 1.378 . S
C1808 C1809 1.367 . S
C1809 C1808 1.367 . S
C1809 C1811 1.433 . S
C1810 C1806 1.350 . S
C1810 C1807 1.463 . S
C1810 N1814 1.427 . S
C1811 H1801 0.929 . S
C1811 C1809 1.433 . S
C1811 N1814 1.384 . S
C1812 H1803 0.929 . S
C1812 C1804 1.378 . S
C1812 C1807 1.350 . S
C1813 H1800 0.929 . S
C1813 C1805 1.433 . S
C1813 N1815 1.384 . S
N1814 C1810 1.427 . S
N1814 C1811 1.384 . S
N1815 C1807 1.427 . S
N1815 C1813 1.384 . S
H1816 C1822 0.930 . S
H1817 C1826 0.930 . S
H1818 C1831 0.929 . S
H1819 C1829 0.929 . S
H1820 C1824 0.929 . S
H1821 C1830 0.929 . S
C1822 H1816 0.930 . S
C1822 C1823 1.367 . S
C1822 C1830 1.378 . S
C1823 C1822 1.367 . S
C1823 C1831 1.433 . S
C1824 H1820 0.929 . S
C1824 C1826 1.378 . S
C1824 C1828 1.350 . S
C1825 C1828 1.463 . S
C1825 C1830 1.350 . S
C1825 N1833 1.427 . S
C1826 H1817 0.930 . S
C1826 C1824 1.378 . S
C1826 C1827 1.367 . S
C1827 C1826 1.367 . S
C1827 C1829 1.433 . S
C1828 C1824 1.350 . S
C1828 C1825 1.463 . S
C1828 N1832 1.427 . S
C1829 H1819 0.929 . S
C1829 C1827 1.433 . S
C1829 N1832 1.384 . S
C1830 H1821 0.929 . S
C1830 C1822 1.378 . S
C1830 C1825 1.350 . S
C1831 H1818 0.929 . S
C1831 C1823 1.433 . S
C1831 N1833 1.384 . S
N1832 C1828 1.427 . S
N1832 C1829 1.384 . S
N1833 C1825 1.427 . S
N1833 C1831 1.384 . S
H1834 C1840 0.930 . S
H1835 C1844 0.930 . S
H1836 C1849 0.929 . S
H1837 C1847 0.929 . S
H1838 C1842 0.929 . S
H1839 C1848 0.929 . S
C1840 H1834 0.930 . S
C1840 C1841 1.367 . S
C1840 C1848 1.378 . S
C1841 C1840 1.367 . S
C1841 C1849 1.433 . S
C1842 H1838 0.929 . S
C1842 C1844 1.378 . S
C1842 C1846 1.350 . S
C1843 C1846 1.463 . S
C1843 C1848 1.350 . S
C1843 N1851 1.427 . S
C1844 H1835 0.930 . S
C1844 C1842 1.378 . S
C1844 C1845 1.367 . S
C1845 C1844 1.367 . S
C1845 C1847 1.433 . S
C1846 C1842 1.350 . S
C1846 C1843 1.463 . S
C1846 N1850 1.427 . S
C1847 H1837 0.929 . S
C1847 C1845 1.433 . S
C1847 N1850 1.384 . S
C1848 H1839 0.929 . S
C1848 C1840 1.378 . S
C1848 C1843 1.350 . S
C1849 H1836 0.929 . S
C1849 C1841 1.433 . S
C1849 N1851 1.384 . S
N1850 C1846 1.427 . S
N1850 C1847 1.384 . S
N1851 C1843 1.427 . S
N1851 C1849 1.384 . S
H1852 C1858 0.930 . S
H1853 C1862 0.930 . S
H1854 C1867 0.929 . S
H1855 C1865 0.929 . S
H1856 C1860 0.929 . S
H1857 C1866 0.929 . S
C1858 H1852 0.930 . S
C1858 C1859 1.367 . S
C1858 C1866 1.378 . S
C1859 C1858 1.367 . S
C1859 C1867 1.433 . S
C1860 H1856 0.929 . S
C1860 C1862 1.378 . S
C1860 C1864 1.350 . S
C1861 C1864 1.463 . S
C1861 C1866 1.350 . S
C1861 N1869 1.427 . S
C1862 H1853 0.930 . S
C1862 C1860 1.378 . S
C1862 C1863 1.367 . S
C1863 C1862 1.367 . S
C1863 C1865 1.433 . S
C1864 C1860 1.350 . S
C1864 C1861 1.463 . S
C1864 N1868 1.427 . S
C1865 H1855 0.929 . S
C1865 C1863 1.433 . S
C1865 N1868 1.384 . S
C1866 H1857 0.929 . S
C1866 C1858 1.378 . S
C1866 C1861 1.350 . S
C1867 H1854 0.929 . S
C1867 C1859 1.433 . S
C1867 N1869 1.384 . S
N1868 C1864 1.427 . S
N1868 C1865 1.384 . S
N1869 C1861 1.427 . S
N1869 C1867 1.384 . S
H1870 C1876 0.930 . S
H1871 C1880 0.930 . S
H1872 C1885 0.929 . S
H1873 C1883 0.929 . S
H1874 C1878 0.929 . S
H1875 C1884 0.929 . S
C1876 H1870 0.930 . S
C1876 C1877 1.367 . S
C1876 C1884 1.378 . S
C1877 C1876 1.367 . S
C1877 C1885 1.433 . S
C1878 H1874 0.929 . S
C1878 C1880 1.378 . S
C1878 C1882 1.350 . S
C1879 C1882 1.463 . S
C1879 C1884 1.350 . S
C1879 N1887 1.427 . S
C1880 H1871 0.930 . S
C1880 C1878 1.378 . S
C1880 C1881 1.367 . S
C1881 C1880 1.367 . S
C1881 C1883 1.433 . S
C1882 C1878 1.350 . S
C1882 C1879 1.463 . S
C1882 N1886 1.427 . S
C1883 H1873 0.929 . S
C1883 C1881 1.433 . S
C1883 N1886 1.384 . S
C1884 H1875 0.929 . S
C1884 C1876 1.378 . S
C1884 C1879 1.350 . S
C1885 H1872 0.929 . S
C1885 C1877 1.433 . S
C1885 N1887 1.384 . S
N1886 C1882 1.427 . S
N1886 C1883 1.384 . S
N1887 C1879 1.427 . S
N1887 C1885 1.384 . S
H1888 C1894 0.930 . S
H1889 C1898 0.930 . S
H1890 C1903 0.929 . S
H1891 C1901 0.929 . S
H1892 C1896 0.929 . S
H1893 C1902 0.929 . S
C1894 H1888 0.930 . S
C1894 C1895 1.367 . S
C1894 C1902 1.378 . S
C1895 C1894 1.367 . S
C1895 C1903 1.433 . S
C1896 H1892 0.929 . S
C1896 C1898 1.378 . S
C1896 C1900 1.350 . S
C1897 C1900 1.463 . S
C1897 C1902 1.350 . S
C1897 N1905 1.427 . S
C1898 H1889 0.930 . S
C1898 C1896 1.378 . S
C1898 C1899 1.367 . S
C1899 C1898 1.367 . S
C1899 C1901 1.433 . S
C1900 C1896 1.350 . S
C1900 C1897 1.463 . S
C1900 N1904 1.427 . S
C1901 H1891 0.929 . S
C1901 C1899 1.433 . S
C1901 N1904 1.384 . S
C1902 H1893 0.929 . S
C1902 C1894 1.378 . S
C1902 C1897 1.350 . S
C1903 H1890 0.929 . S
C1903 C1895 1.433 . S
C1903 N1905 1.384 . S
N1904 C1900 1.427 . S
N1904 C1901 1.384 . S
N1905 C1897 1.427 . S
N1905 C1903 1.384 . S
H1906 C1912 0.930 . S
H1907 C1916 0.930 . S
H1908 C1921 0.929 . S
H1909 C1919 0.929 . S
H1910 C1914 0.929 . S
H1911 C1920 0.929 . S
C1912 H1906 0.930 . S
C1912 C1913 1.367 . S
C1912 C1920 1.378 . S
C1913 C1912 1.367 . S
C1913 C1921 1.433 . S
C1914 H1910 0.929 . S
C1914 C1916 1.378 . S
C1914 C1918 1.350 . S
C1915 C1918 1.463 . S
C1915 C1920 1.350 . S
C1915 N1923 1.427 . S
C1916 H1907 0.930 . S
C1916 C1914 1.378 . S
C1916 C1917 1.367 . S
C1917 C1916 1.367 . S
C1917 C1919 1.433 . S
C1918 C1914 1.350 . S
C1918 C1915 1.463 . S
C1918 N1922 1.427 . S
C1919 H1909 0.929 . S
C1919 C1917 1.433 . S
C1919 N1922 1.384 . S
C1920 H1911 0.929 . S
C1920 C1912 1.378 . S
C1920 C1915 1.350 . S
C1921 H1908 0.929 . S
C1921 C1913 1.433 . S
C1921 N1923 1.384 . S
N1922 C1918 1.427 . S
N1922 C1919 1.384 . S
N1923 C1915 1.427 . S
N1923 C1921 1.384 . S
H1924 C1930 0.930 . S
H1925 C1934 0.930 . S
H1926 C1939 0.929 . S
H1927 C1937 0.929 . S
H1928 C1932 0.929 . S
H1929 C1938 0.929 . S
C1930 H1924 0.930 . S
C1930 C1931 1.367 . S
C1930 C1938 1.378 . S
C1931 C1930 1.367 . S
C1931 C1939 1.433 . S
C1932 H1928 0.929 . S
C1932 C1934 1.378 . S
C1932 C1936 1.350 . S
C1933 C1936 1.463 . S
C1933 C1938 1.350 . S
C1933 N1941 1.427 . S
C1934 H1925 0.930 . S
C1934 C1932 1.378 . S
C1934 C1935 1.367 . S
C1935 C1934 1.367 . S
C1935 C1937 1.433 . S
C1936 C1932 1.350 . S
C1936 C1933 1.463 . S
C1936 N1940 1.427 . S
C1937 H1927 0.929 . S
C1937 C1935 1.433 . S
C1937 N1940 1.384 . S
C1938 H1929 0.929 . S
C1938 C1930 1.378 . S
C1938 C1933 1.350 . S
C1939 H1926 0.929 . S
C1939 C1931 1.433 . S
C1939 N1941 1.384 . S
N1940 C1936 1.427 . S
N1940 C1937 1.384 . S
N1941 C1933 1.427 . S
N1941 C1939 1.384 . S
H1942 C1948 0.930 . S
H1943 C1952 0.930 . S
H1944 C1957 0.929 1_545 S
H1945 C1955 0.929 . S
H1946 C1950 0.929 . S
H1947 C1956 0.929 . S
C1948 H1942 0.930 . S
C1948 C1949 1.367 . S
C1948 C1956 1.378 . S
C1949 C1948 1.367 . S
C1949 C1957 1.433 . S
C1950 H1946 0.929 . S
C1950 C1952 1.378 . S
C1950 C1954 1.350 . S
C1951 C1954 1.463 1_655 S
C1951 C1956 1.350 . S
C1951 N1959 1.427 . S
C1952 H1943 0.930 . S
C1952 C1950 1.378 . S
C1952 C1953 1.367 . S
C1953 C1952 1.367 . S
C1953 C1955 1.433 . S
C1954 C1950 1.350 . S
C1954 C1951 1.463 1_455 S
C1954 N1958 1.427 . S
C1955 H1945 0.929 . S
C1955 C1953 1.433 . S
C1955 N1958 1.388 . S
C1956 H1947 0.929 . S
C1956 C1948 1.378 . S
C1956 C1951 1.350 . S
C1957 H1944 0.929 1_565 S
C1957 C1949 1.433 . S
C1957 N1959 1.384 . S
N1958 C1954 1.427 . S
N1958 C1955 1.388 . S
N1959 C1951 1.427 . S
N1959 C1957 1.384 . S
H1960 C1966 0.930 . S
H1961 C1970 0.930 . S
H1962 C1975 0.929 . S
H1963 C1973 0.929 . S
H1964 C1968 0.929 . S
H1965 C1974 0.929 . S
C1966 H1960 0.930 . S
C1966 C1967 1.367 . S
C1966 C1974 1.378 . S
C1967 C1966 1.367 . S
C1967 C1975 1.433 . S
C1968 H1964 0.929 . S
C1968 C1970 1.378 . S
C1968 C1972 1.350 . S
C1969 C1972 1.463 . S
C1969 C1974 1.350 . S
C1969 N1977 1.427 . S
C1970 H1961 0.930 . S
C1970 C1968 1.378 . S
C1970 C1971 1.367 . S
C1971 C1970 1.367 . S
C1971 C1973 1.433 . S
C1972 C1968 1.350 . S
C1972 C1969 1.463 . S
C1972 N1976 1.427 . S
C1973 H1963 0.929 . S
C1973 C1971 1.433 . S
C1973 N1976 1.384 . S
C1974 H1965 0.929 . S
C1974 C1966 1.378 . S
C1974 C1969 1.350 . S
C1975 H1962 0.929 . S
C1975 C1967 1.433 . S
C1975 N1977 1.384 . S
N1976 C1972 1.427 . S
N1976 C1973 1.384 . S
N1977 C1969 1.427 . S
N1977 C1975 1.384 . S
H1978 C1984 0.930 . S
H1979 C1988 0.930 . S
H1980 C1993 0.929 . S
H1981 C1991 0.929 . S
H1982 C1986 0.929 1_556 S
H1983 C1992 0.929 . S
C1984 H1978 0.930 . S
C1984 C1985 1.367 . S
C1984 C1992 1.378 . S
C1985 C1984 1.367 . S
C1985 C1993 1.433 . S
C1986 H1982 0.929 1_554 S
C1986 C1988 1.378 . S
C1986 C1990 1.350 . S
C1987 C1990 1.463 1_556 S
C1987 C1992 1.350 . S
C1987 N1995 1.427 . S
C1988 H1979 0.930 . S
C1988 C1986 1.378 . S
C1988 C1989 1.367 . S
C1989 C1988 1.367 . S
C1989 C1991 1.433 . S
C1990 C1986 1.350 . S
C1990 C1987 1.463 1_554 S
C1990 N1994 1.427 . S
C1991 H1981 0.929 . S
C1991 C1989 1.433 . S
C1991 N1994 1.384 . S
C1992 H1983 0.929 . S
C1992 C1984 1.378 . S
C1992 C1987 1.350 . S
C1993 H1980 0.929 . S
C1993 C1985 1.433 . S
C1993 N1995 1.384 . S
N1994 C1990 1.427 . S
N1994 C1991 1.384 . S
N1995 C1987 1.427 . S
N1995 C1993 1.384 . S
H1996 C2002 0.930 . S
H1997 C2006 0.930 . S
H1998 C2011 0.929 . S
H1999 C2009 0.929 . S
H2000 C2004 0.929 . S
H2001 C2010 0.929 . S
C2002 H1996 0.930 . S
C2002 C2003 1.367 . S
C2002 C2010 1.378 . S
C2003 C2002 1.367 . S
C2003 C2011 1.433 . S
C2004 H2000 0.929 . S
C2004 C2006 1.378 . S
C2004 C2008 1.350 . S
C2005 C2008 1.463 . S
C2005 C2010 1.350 . S
C2005 N2013 1.427 . S
C2006 H1997 0.930 . S
C2006 C2004 1.378 . S
C2006 C2007 1.367 . S
C2007 C2006 1.367 . S
C2007 C2009 1.433 . S
C2008 C2004 1.350 . S
C2008 C2005 1.463 . S
C2008 N2012 1.427 . S
C2009 H1999 0.929 . S
C2009 C2007 1.433 . S
C2009 N2012 1.384 . S
C2010 H2001 0.929 . S
C2010 C2002 1.378 . S
C2010 C2005 1.350 . S
C2011 H1998 0.929 . S
C2011 C2003 1.433 . S
C2011 N2013 1.384 . S
N2012 C2008 1.427 . S
N2012 C2009 1.384 . S
N2013 C2005 1.427 . S
N2013 C2011 1.384 . S
H2014 C2020 0.930 . S
H2015 C2024 0.930 . S
H2016 C2029 0.929 . S
H2017 C2027 0.929 . S
H2018 C2022 0.929 . S
H2019 C2028 0.929 . S
C2020 H2014 0.930 . S
C2020 C2021 1.367 . S
C2020 C2028 1.378 . S
C2021 C2020 1.367 . S
C2021 C2029 1.433 . S
C2022 H2018 0.929 . S
C2022 C2024 1.378 . S
C2022 C2026 1.350 . S
C2023 C2026 1.463 . S
C2023 C2028 1.350 . S
C2023 N2031 1.427 . S
C2024 H2015 0.930 . S
C2024 C2022 1.378 . S
C2024 C2025 1.367 . S
C2025 C2024 1.367 . S
C2025 C2027 1.433 . S
C2026 C2022 1.350 . S
C2026 C2023 1.463 . S
C2026 N2030 1.427 . S
C2027 H2017 0.929 . S
C2027 C2025 1.433 . S
C2027 N2030 1.384 . S
C2028 H2019 0.929 . S
C2028 C2020 1.378 . S
C2028 C2023 1.350 . S
C2029 H2016 0.929 . S
C2029 C2021 1.433 . S
C2029 N2031 1.384 . S
N2030 C2026 1.427 . S
N2030 C2027 1.384 . S
N2031 C2023 1.427 . S
N2031 C2029 1.384 . S
H2032 C2038 0.930 . S
H2033 C2042 0.930 . S
H2034 C2047 0.929 . S
H2035 C2045 0.929 . S
H2036 C2040 0.929 . S
H2037 C2046 0.929 . S
C2038 H2032 0.930 . S
C2038 C2039 1.367 . S
C2038 C2046 1.378 . S
C2039 C2038 1.367 . S
C2039 C2047 1.433 . S
C2040 H2036 0.929 . S
C2040 C2042 1.378 . S
C2040 C2044 1.350 . S
C2041 C2044 1.463 . S
C2041 C2046 1.350 . S
C2041 N2049 1.427 . S
C2042 H2033 0.930 . S
C2042 C2040 1.378 . S
C2042 C2043 1.367 . S
C2043 C2042 1.367 . S
C2043 C2045 1.433 . S
C2044 C2040 1.350 . S
C2044 C2041 1.463 . S
C2044 N2048 1.427 . S
C2045 H2035 0.929 . S
C2045 C2043 1.433 . S
C2045 N2048 1.384 . S
C2046 H2037 0.929 . S
C2046 C2038 1.378 . S
C2046 C2041 1.350 . S
C2047 H2034 0.929 . S
C2047 C2039 1.433 . S
C2047 N2049 1.384 . S
N2048 C2044 1.427 . S
N2048 C2045 1.384 . S
N2049 C2041 1.427 . S
N2049 C2047 1.384 . S
H2050 C2056 0.930 . S
H2051 C2060 0.930 . S
H2052 C2065 0.929 . S
H2053 C2063 0.929 . S
H2054 C2058 0.929 . S
H2055 C2064 0.929 . S
C2056 H2050 0.930 . S
C2056 C2057 1.367 . S
C2056 C2064 1.378 . S
C2057 C2056 1.367 . S
C2057 C2065 1.433 . S
C2058 H2054 0.929 . S
C2058 C2060 1.378 1_554 S
C2058 C2062 1.350 . S
C2059 C2062 1.463 . S
C2059 C2064 1.350 . S
C2059 N2067 1.427 . S
C2060 H2051 0.930 . S
C2060 C2058 1.378 1_556 S
C2060 C2061 1.367 . S
C2061 C2060 1.367 . S
C2061 C2063 1.433 . S
C2062 C2058 1.350 . S
C2062 C2059 1.463 . S
C2062 N2066 1.427 1_554 S
C2063 H2053 0.929 . S
C2063 C2061 1.433 . S
C2063 N2066 1.384 . S
C2064 H2055 0.929 . S
C2064 C2056 1.378 . S
C2064 C2059 1.350 . S
C2065 H2052 0.929 . S
C2065 C2057 1.433 . S
C2065 N2067 1.384 . S
N2066 C2062 1.427 1_556 S
N2066 C2063 1.384 . S
N2067 C2059 1.427 . S
N2067 C2065 1.384 . S
H2068 C2074 0.930 . S
H2069 C2078 0.930 . S
H2070 C2083 0.929 . S
H2071 C2081 0.929 . S
H2072 C2076 0.929 . S
H2073 C2082 0.929 . S
C2074 H2068 0.930 . S
C2074 C2075 1.367 . S
C2074 C2082 1.378 . S
C2075 C2074 1.367 . S
C2075 C2083 1.433 . S
C2076 H2072 0.929 . S
C2076 C2078 1.378 . S
C2076 C2080 1.350 . S
C2077 C2080 1.463 . S
C2077 C2082 1.350 . S
C2077 N2085 1.427 . S
C2078 H2069 0.930 . S
C2078 C2076 1.378 . S
C2078 C2079 1.367 . S
C2079 C2078 1.367 . S
C2079 C2081 1.433 . S
C2080 C2076 1.350 . S
C2080 C2077 1.463 . S
C2080 N2084 1.427 . S
C2081 H2071 0.929 . S
C2081 C2079 1.433 . S
C2081 N2084 1.384 . S
C2082 H2073 0.929 . S
C2082 C2074 1.378 . S
C2082 C2077 1.350 . S
C2083 H2070 0.929 . S
C2083 C2075 1.433 . S
C2083 N2085 1.384 . S
N2084 C2080 1.427 . S
N2084 C2081 1.384 . S
N2085 C2077 1.427 . S
N2085 C2083 1.384 . S
H2086 C2092 0.930 . S
H2087 C2096 0.930 . S
H2088 C2101 0.929 . S
H2089 C2099 0.929 . S
H2090 C2094 0.929 . S
H2091 C2100 0.929 . S
C2092 H2086 0.930 . S
C2092 C2093 1.367 . S
C2092 C2100 1.378 . S
C2093 C2092 1.367 . S
C2093 C2101 1.433 . S
C2094 H2090 0.929 . S
C2094 C2096 1.378 . S
C2094 C2098 1.350 . S
C2095 C2098 1.463 . S
C2095 C2100 1.350 . S
C2095 N2103 1.427 . S
C2096 H2087 0.930 . S
C2096 C2094 1.378 . S
C2096 C2097 1.367 . S
C2097 C2096 1.367 . S
C2097 C2099 1.433 . S
C2098 C2094 1.350 . S
C2098 C2095 1.463 . S
C2098 N2102 1.427 . S
C2099 H2089 0.929 . S
C2099 C2097 1.433 . S
C2099 N2102 1.384 . S
C2100 H2091 0.929 . S
C2100 C2092 1.378 . S
C2100 C2095 1.350 . S
C2101 H2088 0.929 . S
C2101 C2093 1.433 . S
C2101 N2103 1.384 . S
N2102 C2098 1.427 . S
N2102 C2099 1.384 . S
N2103 C2095 1.427 . S
N2103 C2101 1.384 . S
H2104 C2110 0.930 . S
H2105 C2114 0.930 . S
H2106 C2119 0.929 . S
H2107 C2117 0.929 . S
H2108 C2112 0.929 . S
H2109 C2118 0.929 . S
C2110 H2104 0.930 . S
C2110 C2111 1.367 . S
C2110 C2118 1.378 . S
C2111 C2110 1.367 . S
C2111 C2119 1.433 . S
C2112 H2108 0.929 . S
C2112 C2114 1.378 . S
C2112 C2116 1.350 . S
C2113 C2116 1.463 . S
C2113 C2118 1.350 . S
C2113 N2121 1.427 . S
C2114 H2105 0.930 . S
C2114 C2112 1.378 . S
C2114 C2115 1.367 . S
C2115 C2114 1.367 . S
C2115 C2117 1.433 . S
C2116 C2112 1.350 . S
C2116 C2113 1.463 . S
C2116 N2120 1.427 . S
C2117 H2107 0.929 . S
C2117 C2115 1.433 . S
C2117 N2120 1.384 . S
C2118 H2109 0.929 . S
C2118 C2110 1.378 . S
C2118 C2113 1.350 . S
C2119 H2106 0.929 . S
C2119 C2111 1.433 . S
C2119 N2121 1.384 . S
N2120 C2116 1.427 . S
N2120 C2117 1.384 . S
N2121 C2113 1.427 . S
N2121 C2119 1.384 . S
H2122 C2128 0.930 . S
H2123 C2132 0.930 . S
H2124 C2137 0.929 . S
H2125 C2135 0.929 . S
H2126 C2130 0.929 . S
H2127 C2136 0.929 . S
C2128 H2122 0.930 . S
C2128 C2129 1.367 . S
C2128 C2136 1.378 . S
C2129 C2128 1.367 . S
C2129 C2137 1.433 . S
C2130 H2126 0.929 . S
C2130 C2132 1.378 . S
C2130 C2134 1.350 . S
C2131 C2134 1.463 . S
C2131 C2136 1.350 . S
C2131 N2139 1.427 . S
C2132 H2123 0.930 . S
C2132 C2130 1.378 . S
C2132 C2133 1.367 . S
C2133 C2132 1.367 . S
C2133 C2135 1.433 . S
C2134 C2130 1.350 . S
C2134 C2131 1.463 . S
C2134 N2138 1.427 . S
C2135 H2125 0.929 . S
C2135 C2133 1.433 . S
C2135 N2138 1.384 . S
C2136 H2127 0.929 . S
C2136 C2128 1.378 . S
C2136 C2131 1.350 . S
C2137 H2124 0.929 . S
C2137 C2129 1.433 . S
C2137 N2139 1.384 . S
N2138 C2134 1.427 . S
N2138 C2135 1.384 . S
N2139 C2131 1.427 . S
N2139 C2137 1.384 . S
H2140 C2146 0.930 . S
H2141 C2150 0.930 . S
H2142 C2155 0.929 . S
H2143 C2153 0.929 . S
H2144 C2148 0.929 . S
H2145 C2154 0.929 . S
C2146 H2140 0.930 . S
C2146 C2147 1.367 . S
C2146 C2154 1.378 . S
C2147 C2146 1.367 . S
C2147 C2155 1.433 . S
C2148 H2144 0.929 . S
C2148 C2150 1.378 . S
C2148 C2152 1.350 . S
C2149 C2152 1.463 . S
C2149 C2154 1.350 . S
C2149 N2157 1.427 . S
C2150 H2141 0.930 . S
C2150 C2148 1.378 . S
C2150 C2151 1.367 . S
C2151 C2150 1.367 . S
C2151 C2153 1.433 . S
C2152 C2148 1.350 . S
C2152 C2149 1.463 . S
C2152 N2156 1.427 . S
C2153 H2143 0.929 . S
C2153 C2151 1.433 . S
C2153 N2156 1.384 . S
C2154 H2145 0.929 . S
C2154 C2146 1.378 . S
C2154 C2149 1.350 . S
C2155 H2142 0.929 . S
C2155 C2147 1.433 . S
C2155 N2157 1.384 . S
N2156 C2152 1.427 . S
N2156 C2153 1.384 . S
N2157 C2149 1.427 . S
N2157 C2155 1.384 . S
H2158 C2164 0.930 . S
H2159 C2168 0.930 . S
H2160 C2173 0.929 . S
H2161 C2171 0.929 . S
H2162 C2166 0.929 . S
H2163 C2172 0.929 . S
C2164 H2158 0.930 . S
C2164 C2165 1.367 . S
C2164 C2172 1.378 . S
C2165 C2164 1.367 . S
C2165 C2173 1.433 . S
C2166 H2162 0.929 . S
C2166 C2168 1.378 . S
C2166 C2170 1.350 . S
C2167 C2170 1.463 . S
C2167 C2172 1.350 . S
C2167 N2175 1.427 . S
C2168 H2159 0.930 . S
C2168 C2166 1.378 . S
C2168 C2169 1.367 . S
C2169 C2168 1.367 . S
C2169 C2171 1.433 . S
C2170 C2166 1.350 . S
C2170 C2167 1.463 . S
C2170 N2174 1.427 . S
C2171 H2161 0.929 . S
C2171 C2169 1.433 . S
C2171 N2174 1.384 . S
C2172 H2163 0.929 . S
C2172 C2164 1.378 . S
C2172 C2167 1.350 . S
C2173 H2160 0.929 . S
C2173 C2165 1.433 . S
C2173 N2175 1.384 . S
N2174 C2170 1.427 . S
N2174 C2171 1.384 . S
N2175 C2167 1.427 . S
N2175 C2173 1.384 . S
H2176 C2182 0.930 . S
H2177 C2186 0.930 . S
H2178 C2191 0.929 . S
H2179 C2189 0.929 . S
H2180 C2184 0.929 . S
H2181 C2190 0.929 . S
C2182 H2176 0.930 . S
C2182 C2183 1.367 . S
C2182 C2190 1.378 . S
C2183 C2182 1.367 . S
C2183 C2191 1.433 . S
C2184 H2180 0.929 . S
C2184 C2186 1.378 . S
C2184 C2188 1.350 . S
C2185 C2188 1.463 . S
C2185 C2190 1.350 . S
C2185 N2193 1.427 . S
C2186 H2177 0.930 . S
C2186 C2184 1.378 . S
C2186 C2187 1.367 . S
C2187 C2186 1.367 . S
C2187 C2189 1.433 . S
C2188 C2184 1.350 . S
C2188 C2185 1.463 . S
C2188 N2192 1.427 . S
C2189 H2179 0.929 . S
C2189 C2187 1.433 . S
C2189 N2192 1.384 . S
C2190 H2181 0.929 . S
C2190 C2182 1.378 . S
C2190 C2185 1.350 . S
C2191 H2178 0.929 . S
C2191 C2183 1.433 . S
C2191 N2193 1.384 . S
N2192 C2188 1.427 . S
N2192 C2189 1.384 . S
N2193 C2185 1.427 . S
N2193 C2191 1.384 . S
H2194 C2200 0.930 . S
H2195 C2204 0.930 . S
H2196 C2209 0.929 . S
H2197 C2207 0.929 . S
H2198 C2202 0.929 . S
H2199 C2208 0.929 . S
C2200 H2194 0.930 . S
C2200 C2201 1.367 . S
C2200 C2208 1.378 . S
C2201 C2200 1.367 . S
C2201 C2209 1.433 . S
C2202 H2198 0.929 . S
C2202 C2204 1.378 . S
C2202 C2206 1.350 . S
C2203 C2206 1.463 . S
C2203 C2208 1.350 . S
C2203 N2211 1.427 . S
C2204 H2195 0.930 . S
C2204 C2202 1.378 . S
C2204 C2205 1.367 . S
C2205 C2204 1.367 . S
C2205 C2207 1.433 . S
C2206 C2202 1.350 . S
C2206 C2203 1.463 . S
C2206 N2210 1.427 . S
C2207 H2197 0.929 . S
C2207 C2205 1.433 . S
C2207 N2210 1.384 . S
C2208 H2199 0.929 . S
C2208 C2200 1.378 . S
C2208 C2203 1.350 . S
C2209 H2196 0.929 . S
C2209 C2201 1.433 . S
C2209 N2211 1.384 . S
N2210 C2206 1.427 . S
N2210 C2207 1.384 . S
N2211 C2203 1.427 . S
N2211 C2209 1.384 . S
H2212 C2218 0.930 . S
H2213 C2222 0.930 . S
H2214 C2227 0.929 . S
H2215 C2225 0.929 . S
H2216 C2220 0.929 . S
H2217 C2226 0.929 . S
C2218 H2212 0.930 . S
C2218 C2219 1.367 . S
C2218 C2226 1.378 . S
C2219 C2218 1.367 . S
C2219 C2227 1.433 . S
C2220 H2216 0.929 . S
C2220 C2222 1.378 . S
C2220 C2224 1.350 . S
C2221 C2224 1.463 . S
C2221 C2226 1.350 . S
C2221 N2229 1.427 . S
C2222 H2213 0.930 . S
C2222 C2220 1.378 . S
C2222 C2223 1.367 . S
C2223 C2222 1.367 . S
C2223 C2225 1.433 . S
C2224 C2220 1.350 . S
C2224 C2221 1.463 . S
C2224 N2228 1.427 . S
C2225 H2215 0.929 . S
C2225 C2223 1.433 . S
C2225 N2228 1.384 . S
C2226 H2217 0.929 . S
C2226 C2218 1.378 . S
C2226 C2221 1.350 . S
C2227 H2214 0.929 . S
C2227 C2219 1.433 . S
C2227 N2229 1.384 . S
N2228 C2224 1.427 . S
N2228 C2225 1.384 . S
N2229 C2221 1.427 . S
N2229 C2227 1.384 . S
H2230 C2236 0.930 . S
H2231 C2240 0.930 . S
H2232 C2245 0.929 . S
H2233 C2243 0.929 . S
H2234 C2238 0.929 . S
H2235 C2244 0.929 . S
C2236 H2230 0.930 . S
C2236 C2237 1.367 . S
C2236 C2244 1.378 . S
C2237 C2236 1.367 . S
C2237 C2245 1.433 . S
C2238 H2234 0.929 . S
C2238 C2240 1.378 . S
C2238 C2242 1.350 . S
C2239 C2242 1.463 . S
C2239 C2244 1.350 . S
C2239 N2247 1.427 . S
C2240 H2231 0.930 . S
C2240 C2238 1.378 . S
C2240 C2241 1.367 . S
C2241 C2240 1.367 . S
C2241 C2243 1.433 . S
C2242 C2238 1.350 . S
C2242 C2239 1.463 . S
C2242 N2246 1.427 . S
C2243 H2233 0.929 . S
C2243 C2241 1.433 . S
C2243 N2246 1.384 . S
C2244 H2235 0.929 . S
C2244 C2236 1.378 . S
C2244 C2239 1.350 . S
C2245 H2232 0.929 . S
C2245 C2237 1.433 . S
C2245 N2247 1.384 . S
N2246 C2242 1.427 . S
N2246 C2243 1.384 . S
N2247 C2239 1.427 . S
N2247 C2245 1.384 . S
H2248 C2254 0.930 . S
H2249 C2258 0.930 . S
H2250 C2263 0.929 . S
H2251 C2261 0.929 . S
H2252 C2256 0.929 . S
H2253 C2262 0.929 . S
C2254 H2248 0.930 . S
C2254 C2255 1.367 . S
C2254 C2262 1.378 . S
C2255 C2254 1.367 . S
C2255 C2263 1.433 . S
C2256 H2252 0.929 . S
C2256 C2258 1.378 . S
C2256 C2260 1.350 . S
C2257 C2260 1.463 . S
C2257 C2262 1.350 . S
C2257 N2265 1.427 . S
C2258 H2249 0.930 . S
C2258 C2256 1.378 . S
C2258 C2259 1.367 . S
C2259 C2258 1.367 . S
C2259 C2261 1.433 . S
C2260 C2256 1.350 . S
C2260 C2257 1.463 . S
C2260 N2264 1.427 . S
C2261 H2251 0.929 . S
C2261 C2259 1.433 . S
C2261 N2264 1.384 . S
C2262 H2253 0.929 . S
C2262 C2254 1.378 . S
C2262 C2257 1.350 . S
C2263 H2250 0.929 . S
C2263 C2255 1.433 . S
C2263 N2265 1.384 . S
N2264 C2260 1.427 . S
N2264 C2261 1.384 . S
N2265 C2257 1.427 . S
N2265 C2263 1.384 . S
H2266 C2272 0.930 . S
H2267 C2276 0.930 . S
H2268 C2281 0.929 . S
H2269 C2279 0.929 . S
H2270 C2274 0.929 . S
H2271 C2280 0.929 . S
C2272 H2266 0.930 . S
C2272 C2273 1.367 . S
C2272 C2280 1.378 . S
C2273 C2272 1.367 . S
C2273 C2281 1.433 . S
C2274 H2270 0.929 . S
C2274 C2276 1.378 . S
C2274 C2278 1.350 . S
C2275 C2278 1.463 . S
C2275 C2280 1.350 . S
C2275 N2283 1.427 . S
C2276 H2267 0.930 . S
C2276 C2274 1.378 . S
C2276 C2277 1.367 . S
C2277 C2276 1.367 . S
C2277 C2279 1.433 . S
C2278 C2274 1.350 . S
C2278 C2275 1.463 . S
C2278 N2282 1.427 . S
C2279 H2269 0.929 . S
C2279 C2277 1.433 . S
C2279 N2282 1.384 . S
C2280 H2271 0.929 . S
C2280 C2272 1.378 . S
C2280 C2275 1.350 . S
C2281 H2268 0.929 . S
C2281 C2273 1.433 . S
C2281 N2283 1.384 . S
N2282 C2278 1.427 . S
N2282 C2279 1.384 . S
N2283 C2275 1.427 . S
N2283 C2281 1.384 . S
H2284 C2290 0.930 . S
H2285 C2294 0.930 . S
H2286 C2299 0.929 . S
H2287 C2297 0.929 . S
H2288 C2292 0.929 . S
H2289 C2298 0.929 . S
C2290 H2284 0.930 . S
C2290 C2291 1.367 . S
C2290 C2298 1.378 . S
C2291 C2290 1.367 . S
C2291 C2299 1.433 . S
C2292 H2288 0.929 . S
C2292 C2294 1.378 . S
C2292 C2296 1.350 . S
C2293 C2296 1.463 . S
C2293 C2298 1.350 . S
C2293 N2301 1.427 . S
C2294 H2285 0.930 . S
C2294 C2292 1.378 . S
C2294 C2295 1.367 . S
C2295 C2294 1.367 . S
C2295 C2297 1.433 . S
C2296 C2292 1.350 . S
C2296 C2293 1.463 . S
C2296 N2300 1.427 . S
C2297 H2287 0.929 . S
C2297 C2295 1.433 . S
C2297 N2300 1.384 . S
C2298 H2289 0.929 . S
C2298 C2290 1.378 . S
C2298 C2293 1.350 . S
C2299 H2286 0.929 . S
C2299 C2291 1.433 . S
C2299 N2301 1.384 . S
N2300 C2296 1.427 . S
N2300 C2297 1.384 . S
N2301 C2293 1.427 . S
N2301 C2299 1.384 . S
H2302 C2308 0.930 . S
H2303 C2312 0.930 . S
H2304 C2317 0.929 . S
H2305 C2315 0.929 . S
H2306 C2310 0.929 . S
H2307 C2316 0.929 . S
C2308 H2302 0.930 . S
C2308 C2309 1.367 . S
C2308 C2316 1.378 . S
C2309 C2308 1.367 . S
C2309 C2317 1.433 . S
C2310 H2306 0.929 . S
C2310 C2312 1.378 . S
C2310 C2314 1.350 . S
C2311 C2314 1.463 . S
C2311 C2316 1.350 . S
C2311 N2319 1.427 . S
C2312 H2303 0.930 . S
C2312 C2310 1.378 . S
C2312 C2313 1.367 . S
C2313 C2312 1.367 . S
C2313 C2315 1.433 . S
C2314 C2310 1.350 . S
C2314 C2311 1.463 . S
C2314 N2318 1.427 . S
C2315 H2305 0.929 . S
C2315 C2313 1.433 . S
C2315 N2318 1.384 . S
C2316 H2307 0.929 . S
C2316 C2308 1.378 . S
C2316 C2311 1.350 . S
C2317 H2304 0.929 . S
C2317 C2309 1.433 . S
C2317 N2319 1.384 . S
N2318 C2314 1.427 . S
N2318 C2315 1.384 . S
N2319 C2311 1.427 . S
N2319 C2317 1.384 . S
H2320 C2326 0.930 . S
H2321 C2330 0.930 . S
H2322 C2335 0.929 . S
H2323 C2333 0.929 . S
H2324 C2328 0.929 . S
H2325 C2334 0.929 . S
C2326 H2320 0.930 . S
C2326 C2327 1.367 . S
C2326 C2334 1.378 . S
C2327 C2326 1.367 . S
C2327 C2335 1.433 . S
C2328 H2324 0.929 . S
C2328 C2330 1.378 . S
C2328 C2332 1.350 . S
C2329 C2332 1.463 . S
C2329 C2334 1.350 . S
C2329 N2337 1.427 . S
C2330 H2321 0.930 . S
C2330 C2328 1.378 . S
C2330 C2331 1.367 . S
C2331 C2330 1.367 . S
C2331 C2333 1.433 . S
C2332 C2328 1.350 . S
C2332 C2329 1.463 . S
C2332 N2336 1.427 . S
C2333 H2323 0.929 . S
C2333 C2331 1.433 . S
C2333 N2336 1.384 . S
C2334 H2325 0.929 . S
C2334 C2326 1.378 . S
C2334 C2329 1.350 . S
C2335 H2322 0.929 . S
C2335 C2327 1.433 . S
C2335 N2337 1.384 . S
N2336 C2332 1.427 . S
N2336 C2333 1.384 . S
N2337 C2329 1.427 . S
N2337 C2335 1.384 . S
H2338 C2344 0.897 1_554 S
H2339 C2348 0.930 . S
H2340 C2353 0.929 . S
H2341 C2351 0.929 . S
H2342 C2346 0.929 . S
H2343 C2352 0.929 . S
C2344 H2338 0.897 1_556 S
C2344 C2345 1.367 . S
C2344 C2352 1.378 . S
C2345 C2344 1.367 . S
C2345 C2353 1.433 . S
C2346 H2342 0.929 . S
C2346 C2348 1.378 . S
C2346 C2350 1.350 . S
C2347 C2350 1.463 . S
C2347 C2352 1.350 . S
C2347 N2355 1.427 . S
C2348 H2339 0.930 . S
C2348 C2346 1.378 . S
C2348 C2349 1.367 . S
C2349 C2348 1.367 . S
C2349 C2351 1.433 . S
C2350 C2346 1.350 . S
C2350 C2347 1.463 . S
C2350 N2354 1.427 . S
C2351 H2341 0.929 . S
C2351 C2349 1.433 . S
C2351 N2354 1.384 . S
C2352 H2343 0.929 . S
C2352 C2344 1.378 . S
C2352 C2347 1.350 . S
C2353 H2340 0.929 . S
C2353 C2345 1.433 . S
C2353 N2355 1.384 . S
N2354 C2350 1.427 . S
N2354 C2351 1.384 . S
N2355 C2347 1.427 . S
N2355 C2353 1.384 . S
H2356 C2362 0.930 . S
H2357 C2366 0.930 . S
H2358 C2371 0.929 . S
H2359 C2369 0.929 . S
H2360 C2364 0.929 . S
H2361 C2370 0.929 . S
C2362 H2356 0.930 . S
C2362 C2363 1.367 . S
C2362 C2370 1.378 . S
C2363 C2362 1.367 . S
C2363 C2371 1.433 . S
C2364 H2360 0.929 . S
C2364 C2366 1.378 . S
C2364 C2368 1.350 . S
C2365 C2368 1.463 . S
C2365 C2370 1.350 . S
C2365 N2373 1.427 . S
C2366 H2357 0.930 . S
C2366 C2364 1.378 . S
C2366 C2367 1.367 . S
C2367 C2366 1.367 . S
C2367 C2369 1.433 . S
C2368 C2364 1.350 . S
C2368 C2365 1.463 . S
C2368 N2372 1.427 . S
C2369 H2359 0.929 . S
C2369 C2367 1.433 . S
C2369 N2372 1.384 . S
C2370 H2361 0.929 . S
C2370 C2362 1.378 . S
C2370 C2365 1.350 . S
C2371 H2358 0.929 . S
C2371 C2363 1.433 . S
C2371 N2373 1.384 . S
N2372 C2368 1.427 . S
N2372 C2369 1.384 . S
N2373 C2365 1.427 . S
N2373 C2371 1.384 . S
H2374 C2380 0.930 . S
H2375 C2384 0.930 . S
H2376 C2389 0.929 . S
H2377 C2387 0.929 . S
H2378 C2382 0.943 . S
H2379 C2388 0.929 . S
C2380 H2374 0.930 . S
C2380 C2381 1.367 . S
C2380 C2388 1.378 . S
C2381 C2380 1.367 . S
C2381 C2389 1.433 . S
C2382 H2378 0.943 . S
C2382 C2384 1.353 1_455 S
C2382 C2386 1.361 . S
C2383 C2386 1.463 . S
C2383 C2388 1.350 . S
C2383 N2391 1.427 . S
C2384 H2375 0.930 . S
C2384 C2382 1.353 1_655 S
C2384 C2385 1.367 . S
C2385 C2384 1.367 . S
C2385 C2387 1.433 . S
C2386 C2382 1.361 . S
C2386 C2383 1.463 . S
C2386 N2390 1.413 1_455 S
C2387 H2377 0.929 . S
C2387 C2385 1.433 . S
C2387 N2390 1.411 . S
C2388 H2379 0.929 . S
C2388 C2380 1.378 . S
C2388 C2383 1.350 . S
C2389 H2376 0.929 . S
C2389 C2381 1.433 . S
C2389 N2391 1.384 . S
N2390 C2386 1.413 1_655 S
N2390 C2387 1.411 . S
N2391 C2383 1.427 . S
N2391 C2389 1.384 . S
C675 C330 0.929 . S
C671 C0 0.924 . S
C689 C18 1.106 . S
C693 C342 1.128 . S
C711 C377 1.197 . S
C707 C34 1.213 . S
C729 C386 1.082 . S
C725 C49 1.083 . S
C747 C341 1.098 . S
C743 C62 1.123 . S
C761 C73 1.169 . S
C765 C366 1.172 . S
C783 C385 1.153 . S
C779 C83 1.125 . S
C797 C91 0.984 . S
C801 C327 0.983 . S
C815 C109 0.979 . S
C819 C320 0.991 . S
C837 C344 1.084 . S
C833 C125 1.084 . S
C855 C363 1.174 . S
C851 C130 1.182 . S
C873 C388 1.123 . S
C869 C153 1.135 . S
C891 C349 1.140 . S
C887 C114 1.139 . S
C909 C374 1.144 . S
C905 C117 1.138 . S
C923 C138 1.089 . S
C927 C393 1.076 . S
C945 C333 0.987 . S
C941 C148 0.965 . S
C959 C161 0.986 . S
C963 C322 1.006 . S
C977 C169 1.182 . S
C981 C421 1.179 . S
C999 C437 1.087 . S
C995 C190 1.100 . S
C1017 C451 1.086 . S
C1013 C205 1.114 . S
C1031 C213 0.992 . S
C1035 C319 1.015 . S
C1049 C229 1.124 . S
C1053 C371 1.112 . S
C1071 C454 1.160 . S
C1067 C182 1.161 . S
C1089 C418 1.122 . S
C1085 C244 1.138 . S
C1107 C474 1.159 . S
C1103 C21 1.174 . S
C1125 C498 1.085 . S
C1121 C5 1.041 . S
C1139 C39 0.999 . S
C1143 C531 0.991 . S
C1157 C36 1.137 . S
C1161 C539 1.117 . S
C1175 C101 1.138 . S
C1179 C509 1.127 . S
C1193 C78 0.988 . S
C1197 C520 0.991 . S
C1215 C540 1.096 . S
C1211 C70 1.078 . S
C1229 C60 1.223 . S
C1233 C473 1.203 . S
C1247 C257 1.112 . S
C1251 C476 1.107 . S
C1269 C506 1.086 . S
C1265 C203 1.093 . S
C1287 C517 1.098 . S
C1283 C208 1.113 . S
C1305 C547 1.071 . S
C1301 C174 1.033 . S
C1323 C495 1.071 . S
C1319 C252 1.033 . S
C1341 C528 1.088 . S
C1337 C195 1.091 . S
C1359 C542 1.105 . S
C1355 C216 1.112 . S
C1373 C179 1.170 . S
C1377 C481 1.147 . S
C1395 C484 1.096 . S
C1391 C270 1.093 . S
C1409 C143 1.110 . S
C1413 C572 1.098 . S
C1431 C584 1.106 . S
C1427 C281 1.109 . S
C1445 C122 1.051 . S
C1449 C605 1.066 . S
C1467 C487 1.161 . S
C1463 C140 1.165 . S
C1485 C525 1.081 . S
C1481 C294 1.117 . S
C1503 C608 1.065 . S
C1499 C273 1.071 . S
C1517 C304 1.045 . S
C1521 C575 1.044 . S
C1535 C26 0.943 . S
C1539 C630 0.950 . S
C1553 C44 1.085 . S
C1557 C408 1.140 . S
C1575 C432 1.156 . S
C1571 C8 1.158 . S
C1589 C23 1.096 . S
C1593 C462 1.085 . S
C1607 C88 1.103 . S
C1611 C407 1.094 . S
C1625 C99 1.205 . S
C1629 C443 1.195 . S
C1647 C459 1.163 . S
C1643 C57 1.140 . S
C1665 C641 0.964 . S
C1661 C65 0.965 . S
C1683 C638 0.976 . S
C1679 C278 0.945 . S
C1701 C410 1.081 . S
C1697 C268 1.089 . S
C1719 C440 1.164 . S
C1715 C299 1.156 . S
C1733 C296 1.159 . S
C1737 C452 1.152 . S
C1755 C415 1.132 . S
C1751 C283 1.133 . S
C1769 C260 1.142 . S
C1773 C429 1.127 . S
C1791 C465 1.071 . S
C1787 C307 1.093 . S
C1805 C291 0.974 . S
C1809 C627 1.013 . S
C1827 C628 1.024 . S
C1823 C200 0.977 . S
C1841 C221 1.166 . S
C1845 C355 1.161 . S
C1863 C364 1.053 . S
C1859 C255 1.061 . S
C1877 C166 1.105 . S
C1881 C399 1.084 . S
C1899 C635 1.023 . S
C1895 C239 0.986 . S
C1917 C430 1.093 . S
C1913 C177 1.102 . S
C1935 C396 1.161 . S
C1931 C247 1.153 . S
C1953 C352 1.111 . S
C1949 C218 1.118 . S
C1967 C47 1.209 . S
C1971 C649 1.187 . S
C1985 C31 1.078 . S
C1989 C561 1.106 . S
C2003 C13 1.006 . S
C2007 C597 0.979 . S
C2025 C616 1.079 . S
C2021 C10 1.083 . S
C2043 C562 1.094 . S
C2039 C75 1.086 . S
C2057 C52 0.996 . S
C2061 C586 0.998 . S
C2079 C613 1.124 . S
C2075 C96 1.094 . S
C2093 C86 1.209 . S
C2097 C650 1.184 . S
C2115 C657 1.133 . S
C2111 C192 1.137 . S
C2129 C164 1.106 . S
C2133 C569 1.084 . S
C2147 C234 1.119 . S
C2151 C583 1.086 . S
C2169 C606 1.052 . S
C2165 C226 1.014 . S
C2187 C564 1.054 . S
C2183 C187 1.020 . S
C2201 C156 1.097 . S
C2205 C594 1.087 . S
C2223 C619 1.108 . S
C2219 C242 1.128 . S
C2241 C652 1.155 . S
C2237 C231 1.143 . S
C2259 C663 1.104 . S
C2255 C127 1.123 . S
C2277 C503 1.134 . S
C2273 C286 1.149 . S
C2291 C112 1.108 . S
C2295 C518 1.107 . S
C2309 C265 1.031 . S
C2313 C550 1.055 . S
C2331 C660 1.145 . S
C2327 C309 1.145 . S
C2349 C591 1.091 . S
C2345 C151 1.101 . S
C2367 C553 1.091 . S
C2363 C104 1.120 . S
C2385 C496 1.053 . S
C2381 C135 1.019 . S
