# Generated by pormake.
# Topology llk, (3,12)-cn, num edge types: 1
# Building blocks:
#     Node 0, Type 0, BuildingBlock: OLANEW_clean_sbu_2, # of connection points: 3
#     Node 1, Type 0, BuildingBlock: OLANEW_clean_sbu_2, # of connection points: 3
#     Node 2, Type 0, BuildingBlock: OLANEW_clean_sbu_2, # of connection points: 3
#     Node 3, Type 0, BuildingBlock: OLANEW_clean_sbu_2, # of connection points: 3
#     Node 4, Type 0, BuildingBlock: OLANEW_clean_sbu_2, # of connection points: 3
#     Node 5, Type 0, BuildingBlock: OLANEW_clean_sbu_2, # of connection points: 3
#     Node 6, Type 0, BuildingBlock: OLANEW_clean_sbu_2, # of connection points: 3
#     Node 7, Type 0, BuildingBlock: OLANEW_clean_sbu_2, # of connection points: 3
#     Node 8, Type 0, BuildingBlock: OLANEW_clean_sbu_2, # of connection points: 3
#     Node 9, Type 0, BuildingBlock: OLANEW_clean_sbu_2, # of connection points: 3
#     Node 10, Type 0, BuildingBlock: OLANEW_clean_sbu_2, # of connection points: 3
#     Node 11, Type 0, BuildingBlock: OLANEW_clean_sbu_2, # of connection points: 3
#     Node 12, Type 0, BuildingBlock: OLANEW_clean_sbu_2, # of connection points: 3
#     Node 13, Type 0, BuildingBlock: OLANEW_clean_sbu_2, # of connection points: 3
#     Node 14, Type 0, BuildingBlock: OLANEW_clean_sbu_2, # of connection points: 3
#     Node 15, Type 0, BuildingBlock: OLANEW_clean_sbu_2, # of connection points: 3
#     Node 16, Type 0, BuildingBlock: OLANEW_clean_sbu_2, # of connection points: 3
#     Node 17, Type 0, BuildingBlock: OLANEW_clean_sbu_2, # of connection points: 3
#     Node 18, Type 0, BuildingBlock: OLANEW_clean_sbu_2, # of connection points: 3
#     Node 19, Type 0, BuildingBlock: OLANEW_clean_sbu_2, # of connection points: 3
#     Node 20, Type 0, BuildingBlock: OLANEW_clean_sbu_2, # of connection points: 3
#     Node 21, Type 0, BuildingBlock: OLANEW_clean_sbu_2, # of connection points: 3
#     Node 22, Type 0, BuildingBlock: OLANEW_clean_sbu_2, # of connection points: 3
#     Node 23, Type 0, BuildingBlock: OLANEW_clean_sbu_2, # of connection points: 3
#     Node 24, Type 1, BuildingBlock: EZIPEK_clean_sbu_0, # of connection points: 12
#     Node 25, Type 1, BuildingBlock: EZIPEK_clean_sbu_0, # of connection points: 12
#     Node 26, Type 1, BuildingBlock: EZIPEK_clean_sbu_0, # of connection points: 12
#     Node 27, Type 1, BuildingBlock: EZIPEK_clean_sbu_0, # of connection points: 12
#     Node 28, Type 1, BuildingBlock: EZIPEK_clean_sbu_0, # of connection points: 12
#     Node 29, Type 1, BuildingBlock: EZIPEK_clean_sbu_0, # of connection points: 12
#     Edge 30, Type (0, 1), BuildingBlock: TEMPAE_clean_linker_10, # of connection points: 2
#     Edge 31, Type (0, 1), BuildingBlock: TEMPAE_clean_linker_10, # of connection points: 2
#     Edge 32, Type (0, 1), BuildingBlock: TEMPAE_clean_linker_10, # of connection points: 2
#     Edge 33, Type (0, 1), BuildingBlock: TEMPAE_clean_linker_10, # of connection points: 2
#     Edge 34, Type (0, 1), BuildingBlock: TEMPAE_clean_linker_10, # of connection points: 2
#     Edge 35, Type (0, 1), BuildingBlock: TEMPAE_clean_linker_10, # of connection points: 2
#     Edge 36, Type (0, 1), BuildingBlock: TEMPAE_clean_linker_10, # of connection points: 2
#     Edge 37, Type (0, 1), BuildingBlock: TEMPAE_clean_linker_10, # of connection points: 2
#     Edge 38, Type (0, 1), BuildingBlock: TEMPAE_clean_linker_10, # of connection points: 2
#     Edge 39, Type (0, 1), BuildingBlock: TEMPAE_clean_linker_10, # of connection points: 2
#     Edge 40, Type (0, 1), BuildingBlock: TEMPAE_clean_linker_10, # of connection points: 2
#     Edge 41, Type (0, 1), BuildingBlock: TEMPAE_clean_linker_10, # of connection points: 2
#     Edge 42, Type (0, 1), BuildingBlock: TEMPAE_clean_linker_10, # of connection points: 2
#     Edge 43, Type (0, 1), BuildingBlock: TEMPAE_clean_linker_10, # of connection points: 2
#     Edge 44, Type (0, 1), BuildingBlock: TEMPAE_clean_linker_10, # of connection points: 2
#     Edge 45, Type (0, 1), BuildingBlock: TEMPAE_clean_linker_10, # of connection points: 2
#     Edge 46, Type (0, 1), BuildingBlock: TEMPAE_clean_linker_10, # of connection points: 2
#     Edge 47, Type (0, 1), BuildingBlock: TEMPAE_clean_linker_10, # of connection points: 2
#     Edge 48, Type (0, 1), BuildingBlock: TEMPAE_clean_linker_10, # of connection points: 2
#     Edge 49, Type (0, 1), BuildingBlock: TEMPAE_clean_linker_10, # of connection points: 2
#     Edge 50, Type (0, 1), BuildingBlock: TEMPAE_clean_linker_10, # of connection points: 2
#     Edge 51, Type (0, 1), BuildingBlock: TEMPAE_clean_linker_10, # of connection points: 2
#     Edge 52, Type (0, 1), BuildingBlock: TEMPAE_clean_linker_10, # of connection points: 2
#     Edge 53, Type (0, 1), BuildingBlock: TEMPAE_clean_linker_10, # of connection points: 2
#     Edge 54, Type (0, 1), BuildingBlock: TEMPAE_clean_linker_10, # of connection points: 2
#     Edge 55, Type (0, 1), BuildingBlock: TEMPAE_clean_linker_10, # of connection points: 2
#     Edge 56, Type (0, 1), BuildingBlock: TEMPAE_clean_linker_10, # of connection points: 2
#     Edge 57, Type (0, 1), BuildingBlock: TEMPAE_clean_linker_10, # of connection points: 2
#     Edge 58, Type (0, 1), BuildingBlock: TEMPAE_clean_linker_10, # of connection points: 2
#     Edge 59, Type (0, 1), BuildingBlock: TEMPAE_clean_linker_10, # of connection points: 2
#     Edge 60, Type (0, 1), BuildingBlock: TEMPAE_clean_linker_10, # of connection points: 2
#     Edge 61, Type (0, 1), BuildingBlock: TEMPAE_clean_linker_10, # of connection points: 2
#     Edge 62, Type (0, 1), BuildingBlock: TEMPAE_clean_linker_10, # of connection points: 2
#     Edge 63, Type (0, 1), BuildingBlock: TEMPAE_clean_linker_10, # of connection points: 2
#     Edge 64, Type (0, 1), BuildingBlock: TEMPAE_clean_linker_10, # of connection points: 2
#     Edge 65, Type (0, 1), BuildingBlock: TEMPAE_clean_linker_10, # of connection points: 2
#     Edge 66, Type (0, 1), BuildingBlock: TEMPAE_clean_linker_10, # of connection points: 2
#     Edge 67, Type (0, 1), BuildingBlock: TEMPAE_clean_linker_10, # of connection points: 2
#     Edge 68, Type (0, 1), BuildingBlock: TEMPAE_clean_linker_10, # of connection points: 2
#     Edge 69, Type (0, 1), BuildingBlock: TEMPAE_clean_linker_10, # of connection points: 2
#     Edge 70, Type (0, 1), BuildingBlock: TEMPAE_clean_linker_10, # of connection points: 2
#     Edge 71, Type (0, 1), BuildingBlock: TEMPAE_clean_linker_10, # of connection points: 2
#     Edge 72, Type (0, 1), BuildingBlock: TEMPAE_clean_linker_10, # of connection points: 2
#     Edge 73, Type (0, 1), BuildingBlock: TEMPAE_clean_linker_10, # of connection points: 2
#     Edge 74, Type (0, 1), BuildingBlock: TEMPAE_clean_linker_10, # of connection points: 2
#     Edge 75, Type (0, 1), BuildingBlock: TEMPAE_clean_linker_10, # of connection points: 2
#     Edge 76, Type (0, 1), BuildingBlock: TEMPAE_clean_linker_10, # of connection points: 2
#     Edge 77, Type (0, 1), BuildingBlock: TEMPAE_clean_linker_10, # of connection points: 2
#     Edge 78, Type (0, 1), BuildingBlock: TEMPAE_clean_linker_10, # of connection points: 2
#     Edge 79, Type (0, 1), BuildingBlock: TEMPAE_clean_linker_10, # of connection points: 2
#     Edge 80, Type (0, 1), BuildingBlock: TEMPAE_clean_linker_10, # of connection points: 2
#     Edge 81, Type (0, 1), BuildingBlock: TEMPAE_clean_linker_10, # of connection points: 2
#     Edge 82, Type (0, 1), BuildingBlock: TEMPAE_clean_linker_10, # of connection points: 2
#     Edge 83, Type (0, 1), BuildingBlock: TEMPAE_clean_linker_10, # of connection points: 2
#     Edge 84, Type (0, 1), BuildingBlock: TEMPAE_clean_linker_10, # of connection points: 2
#     Edge 85, Type (0, 1), BuildingBlock: TEMPAE_clean_linker_10, # of connection points: 2
#     Edge 86, Type (0, 1), BuildingBlock: TEMPAE_clean_linker_10, # of connection points: 2
#     Edge 87, Type (0, 1), BuildingBlock: TEMPAE_clean_linker_10, # of connection points: 2
#     Edge 88, Type (0, 1), BuildingBlock: TEMPAE_clean_linker_10, # of connection points: 2
#     Edge 89, Type (0, 1), BuildingBlock: TEMPAE_clean_linker_10, # of connection points: 2
#     Edge 90, Type (0, 1), BuildingBlock: TEMPAE_clean_linker_10, # of connection points: 2
#     Edge 91, Type (0, 1), BuildingBlock: TEMPAE_clean_linker_10, # of connection points: 2
#     Edge 92, Type (0, 1), BuildingBlock: TEMPAE_clean_linker_10, # of connection points: 2
#     Edge 93, Type (0, 1), BuildingBlock: TEMPAE_clean_linker_10, # of connection points: 2
#     Edge 94, Type (0, 1), BuildingBlock: TEMPAE_clean_linker_10, # of connection points: 2
#     Edge 95, Type (0, 1), BuildingBlock: TEMPAE_clean_linker_10, # of connection points: 2
#     Edge 96, Type (0, 1), BuildingBlock: TEMPAE_clean_linker_10, # of connection points: 2
#     Edge 97, Type (0, 1), BuildingBlock: TEMPAE_clean_linker_10, # of connection points: 2
#     Edge 98, Type (0, 1), BuildingBlock: TEMPAE_clean_linker_10, # of connection points: 2
#     Edge 99, Type (0, 1), BuildingBlock: TEMPAE_clean_linker_10, # of connection points: 2
#     Edge 100, Type (0, 1), BuildingBlock: TEMPAE_clean_linker_10, # of connection points: 2
#     Edge 101, Type (0, 1), BuildingBlock: TEMPAE_clean_linker_10, # of connection points: 2
# Relax obj value: 0.047
# Max RMSD: 0.088
# Mean RMSD: 0.076
data_MOF--net-llk--node1-OLANEW_clean_sbu_2--node2-EZIPEK_clean_sbu_0--edge1-TEMPAE_clean_linker_10
_symmetry_space_group_name_H-M    P1
_symmetry_Int_Tables_number       1
_symmetry_cell_setting            triclinic
loop_
_symmetry_equiv_pos_as_xyz
'x, y, z'
_cell_length_a     49.658397
_cell_length_b     51.754138
_cell_length_c     50.687839
_cell_angle_alpha  89.976578
_cell_angle_beta   89.961683
_cell_angle_gamma 90.032163
loop_
_atom_site_label
_atom_site_type_symbol
_atom_site_fract_x
_atom_site_fract_y
_atom_site_fract_z
_atom_type_partial_charge
O0 O 0.00722 0.28585 0.29523 0.0
Cd1 Cd 0.00599 0.24816 0.26635 0.0
O2 O 0.96508 0.29611 0.28722 0.0
Cd3 Cd 0.9653 0.27587 0.24959 0.0
O4 O 0.96952 0.29243 0.21023 0.0
C5 C 0.9903 0.30634 0.20652 0.0
O6 O 0.0085 0.30762 0.2253 0.0
C7 C 0.98649 0.29928 0.30055 0.0
C8 C 0.00388 0.20451 0.29877 0.0
O9 O 0.02645 0.21393 0.29113 0.0
O10 O 0.98227 0.21529 0.29043 0.0
O11 O 0.7182 0.98685 0.28815 0.0
Cd12 Cd 0.74581 0.98465 0.24841 0.0
O13 O 0.71043 0.02824 0.28224 0.0
Cd14 Cd 0.74818 0.03112 0.2607 0.0
O15 O 0.78744 0.02721 0.27933 0.0
C16 C 0.79033 0.04077 0.30004 0.0
O17 O 0.77108 0.05695 0.30662 0.0
C18 C 0.70513 0.00717 0.29408 0.0
C19 C 0.71014 0.98806 0.20604 0.0
O20 O 0.71671 0.96611 0.21582 0.0
O21 O 0.72121 0.00833 0.21569 0.0
O22 O 0.98717 0.71805 0.2922 0.0
Cd23 Cd 0.98919 0.75622 0.26396 0.0
O24 O 0.03098 0.71248 0.2903 0.0
Cd25 Cd 0.0329 0.73219 0.25241 0.0
O26 O 0.02922 0.71537 0.21312 0.0
C27 C 0.00789 0.70241 0.20891 0.0
O28 O 0.98902 0.7022 0.22711 0.0
C29 C 0.00833 0.70691 0.30053 0.0
C30 C 0.99134 0.79931 0.29712 0.0
O31 O 0.96877 0.7904 0.28888 0.0
O32 O 0.01293 0.78829 0.28905 0.0
O33 O 0.28264 0.02 0.28593 0.0
Cd34 Cd 0.25272 0.02055 0.24783 0.0
O35 O 0.28776 0.97794 0.28285 0.0
Cd36 Cd 0.24892 0.97473 0.26327 0.0
O37 O 0.20917 0.97737 0.28129 0.0
C38 C 0.2056 0.99708 0.29584 0.0
O39 O 0.22455 0.01477 0.29675 0.0
C40 C 0.29486 0.99947 0.29273 0.0
C41 C 0.28633 0.01621 0.20409 0.0
O42 O 0.27929 0.0384 0.21293 0.0
O43 O 0.27653 0.99609 0.2153 0.0
O44 O 0.00765 0.71804 0.7104 0.0
Cd45 Cd 0.00541 0.75644 0.73821 0.0
O46 O 0.96389 0.7121 0.71249 0.0
Cd47 Cd 0.9618 0.73217 0.75016 0.0
O48 O 0.96494 0.71603 0.7898 0.0
C49 C 0.98679 0.7044 0.79521 0.0
O50 O 0.00654 0.70513 0.77794 0.0
C51 C 0.98655 0.70665 0.70223 0.0
C52 C 0.00313 0.79907 0.70442 0.0
O53 O 0.02572 0.79035 0.71278 0.0
O54 O 0.98157 0.78811 0.71269 0.0
O55 O 0.28252 0.99787 0.71795 0.0
Cd56 Cd 0.25392 0.99923 0.75703 0.0
O57 O 0.2847 0.04021 0.71564 0.0
Cd58 Cd 0.2467 0.04332 0.73676 0.0
O59 O 0.20701 0.03846 0.71917 0.0
C60 C 0.20317 0.01716 0.70728 0.0
O61 O 0.2218 0.9992 0.7088 0.0
C62 C 0.29293 0.01816 0.70811 0.0
C63 C 0.28873 1.00054 0.80012 0.0
O64 O 0.27991 0.97904 0.79102 0.0
O65 O 0.28029 0.02146 0.78941 0.0
O66 O 0.98872 0.28523 0.70744 0.0
Cd67 Cd 0.99062 0.24739 0.73615 0.0
O68 O 0.03091 0.29566 0.71504 0.0
Cd69 Cd 0.03094 0.27567 0.75282 0.0
O70 O 0.02615 0.29321 0.79167 0.0
C71 C 0.00572 0.30779 0.79432 0.0
O72 O 0.98828 0.30919 0.77488 0.0
C73 C 0.00935 0.29876 0.70193 0.0
C74 C 0.99246 0.20375 0.7037 0.0
O75 O 0.96996 0.21286 0.71189 0.0
O76 O 0.01413 0.21485 0.71146 0.0
O77 O 0.71373 0.01181 0.71944 0.0
Cd78 Cd 0.74406 0.01132 0.75724 0.0
O79 O 0.71037 0.96946 0.71912 0.0
Cd80 Cd 0.74873 0.96615 0.73955 0.0
O81 O 0.78822 0.97033 0.7213 0.0
C82 C 0.79086 0.99038 0.70703 0.0
O83 O 0.77125 0.00739 0.70664 0.0
C84 C 0.70248 0.99139 0.71087 0.0
C85 C 0.71102 0.00889 0.80155 0.0
O86 O 0.7189 0.03066 0.79228 0.0
O87 O 0.71967 0.98824 0.79046 0.0
O88 O 0.28734 0.28627 0.98741 0.0
Cd89 Cd 0.2586 0.248 0.98733 0.0
O90 O 0.28412 0.29061 0.03041 0.0
Cd91 Cd 0.24605 0.26984 0.03055 0.0
O92 O 0.20698 0.2883 0.02546 0.0
C93 C 0.20291 0.30764 0.0404 0.0
O94 O 0.22089 0.31312 0.05857 0.0
C95 C 0.29505 0.29699 0.00868 0.0
C96 C 0.29226 0.20496 0.9911 0.0
O97 O 0.2851 0.21392 0.9686 0.0
O98 O 0.28287 0.21592 0.01182 0.0
O99 O 0.28614 0.71943 0.00645 0.0
Cd100 Cd 0.25744 0.75763 0.00406 0.0
O101 O 0.28689 0.71498 0.96335 0.0
Cd102 Cd 0.24884 0.73556 0.96008 0.0
O103 O 0.20914 0.7182 0.96503 0.0
C104 C 0.20639 0.70467 0.9858 0.0
O105 O 0.2261 0.70436 0.00309 0.0
C106 C 0.2958 0.70869 0.98596 0.0
C107 C 0.29126 0.80075 0.00327 0.0
O108 O 0.28211 0.79172 0.02505 0.0
O109 O 0.28378 0.78982 0.9818 0.0
O110 O 0.71013 0.28744 0.01674 0.0
Cd111 Cd 0.73899 0.24924 0.01697 0.0
O112 O 0.70955 0.2887 0.97343 0.0
Cd113 Cd 0.74799 0.26865 0.97225 0.0
O114 O 0.78653 0.28832 0.97681 0.0
C115 C 0.78898 0.30867 0.96295 0.0
O116 O 0.76976 0.31451 0.94616 0.0
C117 C 0.70047 0.29657 0.99545 0.0
C118 C 0.70566 0.20584 0.01385 0.0
O119 O 0.71298 0.21502 0.03621 0.0
O120 O 0.7147 0.2168 0.99296 0.0
O121 O 0.71105 0.71886 0.99546 0.0
Cd122 Cd 0.7398 0.75704 0.99837 0.0
O123 O 0.70756 0.71616 0.03858 0.0
Cd124 Cd 0.74577 0.73626 0.04308 0.0
O125 O 0.78554 0.71877 0.03954 0.0
C126 C 0.79023 0.70722 0.01789 0.0
O127 O 0.77237 0.70887 0.99885 0.0
C128 C 0.69999 0.70904 0.01576 0.0
C129 C 0.70614 0.80018 1.00042 0.0
O130 O 0.71509 0.79164 0.97836 0.0
O131 O 0.71373 0.78873 0.02157 0.0
O132 O 0.51039 0.78715 0.79537 0.0
Cd133 Cd 0.50899 0.74948 0.76645 0.0
O134 O 0.46722 0.79511 0.7905 0.0
Cd135 Cd 0.46615 0.77534 0.75263 0.0
O136 O 0.46883 0.79244 0.71339 0.0
C137 C 0.49052 0.80437 0.70796 0.0
O138 O 0.51052 0.80342 0.7249 0.0
C139 C 0.48935 0.79939 0.80229 0.0
C140 C 0.50651 0.7058 0.79882 0.0
O141 O 0.52917 0.71523 0.79144 0.0
O142 O 0.485 0.7166 0.79025 0.0
O143 O 0.2134 0.4951 0.78456 0.0
Cd144 Cd 0.24356 0.49612 0.7466 0.0
O145 O 0.20879 0.53732 0.78391 0.0
Cd146 Cd 0.24777 0.54104 0.76463 0.0
O147 O 0.28714 0.53688 0.78316 0.0
C148 C 0.28999 0.51653 0.79693 0.0
O149 O 0.27062 0.49924 0.79681 0.0
C150 C 0.2014 0.51535 0.79253 0.0
C151 C 0.2101 0.49856 0.70263 0.0
O152 O 0.21845 0.47681 0.71153 0.0
O153 O 0.21852 0.5192 0.71391 0.0
O154 O 0.48652 0.2182 0.79527 0.0
Cd155 Cd 0.48756 0.25608 0.76659 0.0
O156 O 0.52976 0.21079 0.7901 0.0
Cd157 Cd 0.53018 0.23043 0.75212 0.0
O158 O 0.52691 0.21397 0.71262 0.0
C159 C 0.50546 0.20144 0.70769 0.0
O160 O 0.48606 0.20141 0.72534 0.0
C161 C 0.50776 0.20622 0.80205 0.0
C162 C 0.48975 0.29959 0.7992 0.0
O163 O 0.46715 0.29021 0.79162 0.0
O164 O 0.51133 0.28884 0.79073 0.0
O165 O 0.78075 0.5204 0.78534 0.0
Cd166 Cd 0.75192 0.52172 0.74649 0.0
O167 O 0.7839 0.47806 0.78406 0.0
Cd168 Cd 0.74639 0.47576 0.76204 0.0
O169 O 0.70631 0.4793 0.77911 0.0
C170 C 0.70283 0.49925 0.79332 0.0
O171 O 0.72203 0.51669 0.79424 0.0
C172 C 0.79158 0.49961 0.79347 0.0
C173 C 0.78653 0.51791 0.70348 0.0
O174 O 0.77997 0.53997 0.713 0.0
O175 O 0.77582 0.4977 0.71369 0.0
O176 O 0.51449 0.21951 0.20999 0.0
Cd177 Cd 0.51428 0.25797 0.23786 0.0
O178 O 0.47108 0.213 0.21518 0.0
Cd179 Cd 0.47124 0.23333 0.25276 0.0
O180 O 0.47554 0.21591 0.29173 0.0
C181 C 0.49524 0.2004 0.29413 0.0
O182 O 0.51221 0.19805 0.27437 0.0
C183 C 0.49302 0.20777 0.20342 0.0
C184 C 0.51111 0.30091 0.20451 0.0
O185 O 0.53392 0.29149 0.21138 0.0
O186 O 0.48979 0.29045 0.214 0.0
O187 O 0.78169 0.4891 0.21843 0.0
Cd188 Cd 0.7518 0.48884 0.25661 0.0
O189 O 0.78599 0.53132 0.22025 0.0
Cd190 Cd 0.74725 0.5343 0.24011 0.0
O191 O 0.70794 0.53075 0.22134 0.0
C192 C 0.70523 0.51094 0.20676 0.0
O193 O 0.72464 0.49373 0.20631 0.0
C194 C 0.79344 0.50967 0.21092 0.0
C195 C 0.78539 0.49256 0.30039 0.0
O196 O 0.77803 0.4705 0.29143 0.0
O197 O 0.77594 0.51286 0.28926 0.0
O198 O 0.48948 0.786 0.21112 0.0
Cd199 Cd 0.49219 0.74749 0.2388 0.0
O200 O 0.53282 0.79376 0.21485 0.0
Cd201 Cd 0.5346 0.77369 0.25255 0.0
O202 O 0.53138 0.79079 0.29176 0.0
C203 C 0.50974 0.80304 0.29658 0.0
O204 O 0.49025 0.80237 0.27906 0.0
C205 C 0.51034 0.79833 0.20381 0.0
C206 C 0.49411 0.70477 0.20509 0.0
O207 O 0.47161 0.71347 0.21374 0.0
O208 O 0.51575 0.71583 0.21298 0.0
O209 O 0.21403 0.50487 0.21674 0.0
Cd210 Cd 0.24328 0.50277 0.25528 0.0
O211 O 0.21071 0.4626 0.21421 0.0
Cd212 Cd 0.24848 0.45849 0.23554 0.0
O213 O 0.28874 0.46399 0.21939 0.0
C214 C 0.29228 0.48523 0.20726 0.0
O215 O 0.27295 0.50253 0.20772 0.0
C216 C 0.20302 0.4849 0.20688 0.0
C217 C 0.20896 0.50186 0.29867 0.0
O218 O 0.21836 0.52323 0.28978 0.0
O219 O 0.21668 0.48085 0.28763 0.0
O220 O 0.78438 0.78539 0.49359 0.0
Cd221 Cd 0.75557 0.74726 0.49604 0.0
O222 O 0.78567 0.78908 0.53675 0.0
Cd223 Cd 0.74731 0.76899 0.54006 0.0
O224 O 0.70797 0.78712 0.53551 0.0
C225 C 0.70524 0.80067 0.51475 0.0
O226 O 0.7247 0.80054 0.49718 0.0
C227 C 0.79439 0.79568 0.51414 0.0
C228 C 0.78949 0.70431 0.49813 0.0
O229 O 0.78059 0.71285 0.47605 0.0
O230 O 0.78167 0.71562 0.51927 0.0
O231 O 0.78715 0.21835 0.50733 0.0
Cd232 Cd 0.75797 0.25629 0.50682 0.0
O233 O 0.7859 0.2137 0.46425 0.0
Cd234 Cd 0.74843 0.23532 0.46219 0.0
O235 O 0.70893 0.21768 0.46722 0.0
C236 C 0.70588 0.20476 0.48835 0.0
O237 O 0.72512 0.2053 0.50613 0.0
C238 C 0.79574 0.20742 0.48649 0.0
C239 C 0.79114 0.29984 0.50581 0.0
O240 O 0.78339 0.2899 0.5277 0.0
O241 O 0.78256 0.28959 0.48438 0.0
O242 O 0.21 0.7857 0.51052 0.0
Cd243 Cd 0.23928 0.74788 0.50946 0.0
O244 O 0.21131 0.79013 0.46742 0.0
Cd245 Cd 0.24961 0.76982 0.46565 0.0
O246 O 0.28905 0.78764 0.47066 0.0
C247 C 0.29123 0.80205 0.49085 0.0
O248 O 0.27112 0.80295 0.50769 0.0
C249 C 0.20122 0.79632 0.4896 0.0
C250 C 0.20584 0.70456 0.50716 0.0
O251 O 0.21388 0.71361 0.52933 0.0
O252 O 0.21431 0.71553 0.48605 0.0
O253 O 0.20816 0.21824 0.49404 0.0
Cd254 Cd 0.23723 0.25628 0.4945 0.0
O255 O 0.21106 0.21246 0.53689 0.0
Cd256 Cd 0.24871 0.2339 0.53826 0.0
O257 O 0.28854 0.21704 0.533 0.0
C258 C 0.29151 0.20369 0.51216 0.0
O259 O 0.27189 0.20332 0.49477 0.0
C260 C 0.20034 0.20678 0.51488 0.0
C261 C 0.2039 0.2997 0.49586 0.0
O262 O 0.21145 0.28981 0.47389 0.0
O263 O 0.21274 0.28948 0.5172 0.0
C264 C 0.99759 0.93829 0.5645 0.0
C265 C 0.99661 0.93893 0.43651 0.0
C266 C 0.99673 0.06337 0.56516 0.0
C267 C -0.00143 0.06395 0.43715 0.0
C268 C 0.93251 0.06396 0.49959 0.0
C269 C 0.93225 0.93832 0.50084 0.0
C270 C 0.06266 0.06385 0.50282 0.0
C271 C 0.06238 0.93824 0.49983 0.0
C272 C 0.06269 1.00127 0.43686 0.0
C273 C 0.93278 0.00501 0.43663 0.0
C274 C 0.06218 1.00133 0.5653 0.0
C275 C 0.93222 1.00064 0.56485 0.0
Eu276 Eu 0.99732 0.95247 0.50056 0.0
O277 O 0.97317 0.97824 0.47706 0.0
O278 O 0.02144 0.97807 0.5242 0.0
Eu279 Eu 0.94609 1.00111 0.5007 0.0
Eu280 Eu 0.04879 1.00107 0.50102 0.0
O281 O 0.97323 0.97816 0.52402 0.0
O282 O 0.02158 0.97839 0.47746 0.0
Eu283 Eu 0.99724 1.0009 0.55049 0.0
Eu284 Eu 0.99765 1.00139 0.45119 0.0
O285 O 0.9732 0.02403 0.52429 0.0
O286 O 0.97374 0.02395 0.47782 0.0
O287 O 0.02177 0.02422 0.47763 0.0
O288 O 0.02144 0.02385 0.52434 0.0
Eu289 Eu 0.99757 0.04987 0.50112 0.0
O290 O 0.99772 0.93053 0.53936 0.0
O291 O 0.99688 0.93095 0.46157 0.0
O292 O 0.99662 0.07136 0.5401 0.0
O293 O -0.00168 0.07173 0.46228 0.0
O294 O 0.92389 0.0395 0.50045 0.0
O295 O 0.92373 0.96281 0.50039 0.0
O296 O 0.07118 0.03936 0.50191 0.0
O297 O 0.07097 0.96271 0.50057 0.0
O298 O 0.03705 1.0013 0.42909 0.0
O299 O 0.95846 0.00465 0.42898 0.0
O300 O 0.03646 1.00113 0.57286 0.0
O301 O 0.95786 1.0009 0.57261 0.0
O302 O 0.037 0.07142 0.50264 0.0
O303 O 0.9582 0.07147 0.49968 0.0
O304 O 0.03668 0.93074 0.49971 0.0
O305 O 0.95793 0.93079 0.50104 0.0
O306 O 0.99666 0.96358 0.42872 0.0
O307 O -0.00144 0.03939 0.42916 0.0
O308 O 0.9973 0.96286 0.5725 0.0
O309 O 0.9971 0.03873 0.57294 0.0
O310 O 0.92369 1.00053 0.53984 0.0
O311 O 0.92398 1.003 0.46148 0.0
O312 O 0.07088 1.00124 0.54032 0.0
O313 O 0.0712 1.00116 0.46188 0.0
C314 C 0.49901 0.93993 0.06741 0.0
C315 C 0.49832 0.06555 0.0674 0.0
C316 C 0.49878 0.93996 0.93984 0.0
C317 C 0.50059 0.06559 0.93983 0.0
C318 C 0.56532 1.00286 0.94038 0.0
C319 C 0.56411 1.00135 0.06796 0.0
C320 C 0.43427 1.00297 0.93928 0.0
C321 C 0.4331 0.00348 0.06684 0.0
C322 C 0.43403 0.06537 0.00231 0.0
C323 C 0.56467 0.06521 0.00492 0.0
C324 C 0.43368 0.94035 0.00321 0.0
C325 C 0.56436 0.94014 0.00381 0.0
Eu326 Eu 0.49873 1.00275 0.05386 0.0
O327 O 0.52295 0.02571 0.02748 0.0
O328 O 0.47501 0.97978 0.02709 0.0
Eu329 Eu 0.54989 1.00269 0.00405 0.0
Eu330 Eu 0.44853 1.00283 0.0032 0.0
O331 O 0.52266 0.97985 0.0273 0.0
O332 O 0.47522 0.02571 0.02698 0.0
Eu333 Eu 0.49905 0.954 0.00362 0.0
Eu334 Eu 0.49933 0.05151 0.00362 0.0
O335 O 0.52322 0.97977 0.98017 0.0
O336 O 0.5233 0.02564 0.9802 0.0
O337 O 0.47568 0.02571 0.97981 0.0
O338 O 0.47556 0.97991 0.97982 0.0
Eu339 Eu 0.49968 1.00277 0.95334 0.0
O340 O 0.49854 0.96443 0.07572 0.0
O341 O 0.49871 0.04104 0.07573 0.0
O342 O 0.49936 0.96446 0.93151 0.0
O343 O 0.50023 0.04108 0.93152 0.0
O344 O 0.57294 1.00293 0.96562 0.0
O345 O 0.57217 1.00161 0.04285 0.0
O346 O 0.42622 1.00283 0.96439 0.0
O347 O 0.4255 1.00331 0.0416 0.0
O348 O 0.45966 0.07324 0.0026 0.0
O349 O 0.53907 0.07312 0.00456 0.0
O350 O 0.45927 0.9324 0.00359 0.0
O351 O 0.53873 0.93227 0.00356 0.0
O352 O 0.4599 1.00302 0.93115 0.0
O353 O 0.53985 1.0027 0.93185 0.0
O354 O 0.45857 1.00324 0.07539 0.0
O355 O 0.53849 1.00195 0.07609 0.0
O356 O 0.49834 0.07313 0.04224 0.0
O357 O 0.50041 0.07318 0.96498 0.0
O358 O 0.49925 0.93236 0.04226 0.0
O359 O 0.49864 0.93236 0.96499 0.0
O360 O 0.57247 0.96472 0.004 0.0
O361 O 0.57269 0.0406 0.00478 0.0
O362 O 0.42571 0.96497 0.00299 0.0
O363 O 0.42593 0.04078 0.00257 0.0
C364 C 0.99573 0.44225 0.06417 0.0
C365 C 0.99742 0.44336 0.9369 0.0
C366 C -0.00143 0.56775 0.06538 0.0
C367 C 0.99595 0.56889 0.93795 0.0
C368 C 0.93242 0.56889 0.00333 0.0
C369 C 0.93142 0.44337 0.99736 0.0
C370 C 0.06247 0.56792 1.00017 0.0
C371 C 0.06127 0.44237 0.00389 0.0
C372 C 0.0616 0.50579 0.93646 0.0
C373 C 0.93137 0.50588 0.93755 0.0
C374 C 0.06247 0.50338 0.06459 0.0
C375 C 0.93225 0.50514 0.06579 0.0
Eu376 Eu 0.99647 0.45707 1.00065 0.0
O377 O 0.97264 0.48334 0.9778 0.0
O378 O 0.0207 0.48263 0.02393 0.0
Eu379 Eu 0.94562 0.50593 0.00158 0.0
Eu380 Eu 0.04816 0.5052 1.00063 0.0
O381 O 0.9726 0.48252 0.02471 0.0
O382 O 0.02085 0.48256 0.97707 0.0
Eu383 Eu 0.99721 0.50512 0.05097 0.0
Eu384 Eu 0.99664 0.50598 0.95124 0.0
O385 O 0.9732 0.5284 0.02495 0.0
O386 O 0.97287 0.52878 0.97807 0.0
O387 O 0.02099 0.52849 0.97767 0.0
O388 O 0.0214 0.52808 0.02461 0.0
Eu389 Eu 0.99732 0.55415 0.00155 0.0
O390 O 0.99522 0.43484 0.03898 0.0
O391 O 0.99757 0.43551 0.96195 0.0
O392 O 0.99808 0.57561 0.04032 0.0
O393 O 0.9966 0.5763 0.96314 0.0
O394 O 0.92367 0.54445 0.00301 0.0
O395 O 0.92295 0.46779 0.99951 0.0
O396 O 0.07079 0.54337 0.99989 0.0
O397 O 0.07014 0.4667 0.00215 0.0
O398 O 0.03591 0.50649 0.92885 0.0
O399 O 0.95697 0.50538 0.92957 0.0
O400 O 0.03688 0.50332 0.07261 0.0
O401 O 0.95796 0.50543 0.07337 0.0
O402 O 0.03688 0.57568 1.00099 0.0
O403 O 0.95816 0.57622 0.00273 0.0
O404 O 0.03554 0.43502 0.00346 0.0
O405 O 0.95703 0.43565 0.99753 0.0
O406 O 0.99706 0.46796 0.92885 0.0
O407 O 0.99581 0.54441 0.92955 0.0
O408 O 0.99647 0.46669 0.07263 0.0
O409 O -0.0015 0.54314 0.07337 0.0
O410 O 0.92358 0.50507 0.04083 0.0
O411 O 0.92309 0.50661 0.96264 0.0
O412 O 0.07073 0.50455 0.03952 0.0
O413 O 0.07023 0.50496 0.96142 0.0
C414 C 0.49975 0.44049 0.06535 0.0
C415 C 0.49829 0.56551 0.06524 0.0
C416 C 0.49671 0.44027 0.9374 0.0
C417 C 0.49832 0.56536 0.93721 0.0
C418 C 0.56221 0.50322 0.9363 0.0
C419 C 0.5637 0.50309 0.06472 0.0
C420 C 0.4323 0.50355 0.93788 0.0
C421 C 0.43383 0.50222 0.06623 0.0
C422 C 0.43301 0.56577 1.00096 0.0
C423 C 0.56319 0.56572 1.00107 0.0
C424 C 0.43292 0.44013 0.00282 0.0
C425 C 0.56306 0.44003 1.00033 0.0
Eu426 Eu 0.4986 0.50299 0.05085 0.0
O427 O 0.52246 0.52587 0.02429 0.0
O428 O 0.47422 0.48005 0.02488 0.0
Eu429 Eu 0.5494 0.50289 1.00068 0.0
Eu430 Eu 0.44671 0.50295 0.00189 0.0
O431 O 0.52239 0.48003 0.02433 0.0
O432 O 0.47411 0.52598 0.02494 0.0
Eu433 Eu 0.498 0.45419 0.00135 0.0
Eu434 Eu 0.49808 0.55166 0.00126 0.0
O435 O 0.52189 0.47994 0.97764 0.0
O436 O 0.52184 0.52575 0.97767 0.0
O437 O 0.47378 0.52577 0.97822 0.0
O438 O 0.47359 0.47994 0.9782 0.0
Eu439 Eu 0.49746 0.50283 0.95164 0.0
O440 O 0.49951 0.46511 0.07318 0.0
O441 O 0.49867 0.5409 0.07311 0.0
O442 O 0.49695 0.46486 0.92945 0.0
O443 O 0.49776 0.54075 0.92936 0.0
O444 O 0.57116 0.50296 0.96118 0.0
O445 O 0.57209 0.50322 0.03964 0.0
O446 O 0.42399 0.50356 0.96297 0.0
O447 O 0.42494 0.50235 0.04134 0.0
O448 O 0.4587 0.5733 1.00069 0.0
O449 O 0.53752 0.57328 0.00128 0.0
O450 O 0.4586 0.43258 0.00273 0.0
O451 O 0.53736 0.43253 1.00053 0.0
O452 O 0.45788 0.50318 0.92988 0.0
O453 O 0.53645 0.50316 0.92894 0.0
O454 O 0.45959 0.50252 0.0736 0.0
O455 O 0.53811 0.50295 0.07266 0.0
O456 O 0.49797 0.5734 0.04014 0.0
O457 O 0.49848 0.57328 0.9623 0.0
O458 O 0.4992 0.43255 0.04029 0.0
O459 O 0.49699 0.43243 0.96251 0.0
O460 O 0.57165 0.46453 1.00043 0.0
O461 O 0.57172 0.54123 1.00076 0.0
O462 O 0.42439 0.46462 0.00221 0.0
O463 O 0.42445 0.54129 0.00171 0.0
C464 C -0.00094 0.44011 0.5652 0.0
C465 C 0.99593 0.44014 0.43772 0.0
C466 C 0.99751 0.56573 0.56517 0.0
C467 C -0.00187 0.56575 0.43754 0.0
C468 C 0.93246 0.56547 0.50153 0.0
C469 C 0.93229 0.44048 0.50239 0.0
C470 C 0.06322 0.56532 0.50136 0.0
C471 C 0.06286 0.44031 0.5006 0.0
C472 C 0.06284 0.50227 0.43722 0.0
C473 C 0.93181 0.5027 0.43807 0.0
C474 C 0.06361 0.5031 0.56474 0.0
C475 C 0.93257 0.50407 0.56557 0.0
Eu476 Eu 0.99759 0.45423 0.50146 0.0
O477 O 0.97376 0.48012 0.478 0.0
O478 O 0.02162 0.48002 0.52489 0.0
Eu479 Eu 0.94707 0.50297 0.50174 0.0
Eu480 Eu 0.04835 0.50284 0.50107 0.0
O481 O 0.97385 0.47994 0.52534 0.0
O482 O 0.02135 0.47996 0.47761 0.0
Eu483 Eu 0.99799 0.5029 0.5517 0.0
Eu484 Eu 0.99742 0.50294 0.45111 0.0
O485 O 0.9742 0.52582 0.52505 0.0
O486 O 0.97377 0.52594 0.47789 0.0
O487 O 0.02146 0.52586 0.4776 0.0
O488 O 0.02168 0.52582 0.52484 0.0
Eu489 Eu 0.99782 0.55173 0.50135 0.0
O490 O -0.00116 0.43254 0.54005 0.0
O491 O 0.99619 0.43255 0.46287 0.0
O492 O 0.99746 0.57333 0.54002 0.0
O493 O -0.00185 0.57335 0.46268 0.0
O494 O 0.92442 0.54087 0.5017 0.0
O495 O 0.92427 0.46508 0.50228 0.0
O496 O 0.07117 0.5407 0.50095 0.0
O497 O 0.07098 0.46489 0.50088 0.0
O498 O 0.03725 0.5024 0.42901 0.0
O499 O 0.9573 0.50293 0.42955 0.0
O500 O 0.03812 0.5031 0.57326 0.0
O501 O 0.95814 0.50346 0.5738 0.0
O502 O 0.03763 0.57329 0.50164 0.0
O503 O 0.95808 0.5734 0.50129 0.0
O504 O 0.03723 0.43246 0.50061 0.0
O505 O 0.95789 0.43257 0.50222 0.0
O506 O 0.9966 0.46463 0.42934 0.0
O507 O 0.99781 0.54124 0.42925 0.0
O508 O -0.00151 0.46459 0.57356 0.0
O509 O 0.99787 0.54122 0.57349 0.0
O510 O 0.92463 0.50392 0.54044 0.0
O511 O 0.92414 0.50266 0.4633 0.0
O512 O 0.07128 0.50295 0.53951 0.0
O513 O 0.0708 0.50251 0.46234 0.0
C514 C 0.49773 0.94043 0.56546 0.0
C515 C 0.50023 0.93975 0.43814 0.0
C516 C 0.49917 0.06599 0.56481 0.0
C517 C 0.50001 0.06524 0.43734 0.0
C518 C 0.43435 0.06592 0.50068 0.0
C519 C 0.43389 0.94027 0.50107 0.0
C520 C 0.56438 0.06562 0.50149 0.0
C521 C 0.56388 0.9399 0.50265 0.0
C522 C 0.56502 1.00274 0.43807 0.0
C523 C 0.43475 1.00292 0.43669 0.0
C524 C 0.56353 1.00215 0.56627 0.0
C525 C 0.43331 0.00452 0.56488 0.0
Eu526 Eu 0.49893 0.95442 0.50171 0.0
O527 O 0.47517 0.97997 0.47779 0.0
O528 O 0.52284 0.98017 0.52525 0.0
Eu529 Eu 0.4479 1.00303 0.50092 0.0
Eu530 Eu 0.55041 1.0028 0.50201 0.0
O531 O 0.47465 0.98024 0.52486 0.0
O532 O 0.52342 0.97992 0.47838 0.0
Eu533 Eu 0.49859 1.00315 0.55133 0.0
Eu534 Eu 0.4997 1.0026 0.45155 0.0
O535 O 0.475 0.02589 0.52444 0.0
O536 O 0.47545 0.0257 0.47763 0.0
O537 O 0.52351 0.02553 0.47813 0.0
O538 O 0.52309 0.02589 0.52508 0.0
Eu539 Eu 0.49934 0.0515 0.50115 0.0
O540 O 0.49849 0.93275 0.54036 0.0
O541 O 0.49945 0.93231 0.46332 0.0
O542 O 0.49889 0.0735 0.53964 0.0
O543 O 0.50032 0.07307 0.4624 0.0
O544 O 0.42573 0.04144 0.50098 0.0
O545 O 0.42542 0.96477 0.50054 0.0
O546 O 0.57288 0.0411 0.5016 0.0
O547 O 0.57255 0.96436 0.50279 0.0
O548 O 0.53946 1.00272 0.42995 0.0
O549 O 0.46048 1.00255 0.4291 0.0
O550 O 0.53778 1.00223 0.57379 0.0
O551 O 0.45888 0.00445 0.57293 0.0
O552 O 0.53873 0.07319 0.5015 0.0
O553 O 0.46005 0.07341 0.50046 0.0
O554 O 0.53817 0.93246 0.50215 0.0
O555 O 0.45953 0.93266 0.5017 0.0
O556 O 0.50048 0.96423 0.42976 0.0
O557 O 0.4995 0.04067 0.42927 0.0
O558 O 0.49743 0.965 0.57357 0.0
O559 O 0.49936 0.04149 0.57315 0.0
O560 O 0.42514 0.00376 0.53977 0.0
O561 O 0.42603 1.00315 0.46164 0.0
O562 O 0.57227 1.00259 0.54133 0.0
O563 O 0.57318 1.00271 0.46318 0.0
C564 C 0.17252 0.17208 0.53594 0.0
C565 C 0.17977 0.18611 0.51332 0.0
C566 C 0.15386 0.15178 0.53453 0.0
C567 C 0.14213 0.14541 0.50994 0.0
C568 C 0.14924 0.15954 0.48707 0.0
C569 C 0.16798 0.17973 0.48903 0.0
C570 C 0.14668 0.13713 0.55935 0.0
C571 C 0.13703 0.15334 0.46053 0.0
C572 C 0.11068 0.07902 0.50133 0.0
C573 C 0.08321 0.08456 0.50456 0.0
C574 C 0.13013 0.09865 0.50305 0.0
C575 C 0.12191 0.12434 0.50823 0.0
C576 C 0.09429 0.13004 0.51166 0.0
C577 C 0.0753 0.11012 0.50974 0.0
C578 C 0.15946 0.09192 0.49926 0.0
C579 C 0.08477 0.1572 0.51735 0.0
H580 H 0.18159 0.17681 0.55477 0.0
H581 H 0.17348 0.19043 0.47145 0.0
H582 H 0.12477 0.13879 0.56327 0.0
H583 H 0.15122 0.1163 0.55678 0.0
H584 H 0.15781 0.14434 0.57688 0.0
H585 H 0.14493 0.16601 0.4446 0.0
H586 H 0.14125 0.13294 0.45525 0.0
H587 H 0.11483 0.15556 0.46143 0.0
H588 H 0.11703 0.05939 0.49731 0.0
H589 H 0.05419 0.11468 0.51249 0.0
H590 H 0.17113 0.09743 0.51705 0.0
H591 H 0.16785 0.10302 0.48242 0.0
H592 H 0.16254 0.07099 0.49546 0.0
H593 H 0.09438 0.16449 0.53565 0.0
H594 H 0.06256 0.15833 0.51975 0.0
H595 H 0.09086 0.17029 0.50107 0.0
C596 C 0.82739 0.18 0.51273 0.0
C597 C 0.81612 0.18664 0.48827 0.0
C598 C 0.84595 0.1597 0.51489 0.0
C599 C 0.85338 0.14569 0.49206 0.0
C600 C 0.84215 0.15228 0.46731 0.0
C601 C 0.82368 0.17272 0.4657 0.0
C602 C 0.85763 0.15327 0.54161 0.0
C603 C 0.84965 0.13774 0.44253 0.0
C604 C 0.9201 0.11033 0.49305 0.0
C605 C 0.91205 0.08474 0.49789 0.0
C606 C 0.90119 0.13029 0.49102 0.0
C607 C 0.87351 0.1246 0.49397 0.0
C608 C 0.86515 0.09888 0.49885 0.0
C609 C 0.88452 0.07921 0.50071 0.0
C610 C 0.91087 0.15748 0.48566 0.0
C611 C 0.83574 0.09215 0.50214 0.0
H612 H 0.82164 0.19061 0.53028 0.0
H613 H 0.81499 0.17763 0.44674 0.0
H614 H 0.85327 0.13282 0.54665 0.0
H615 H 0.87986 0.15547 0.54112 0.0
H616 H 0.84947 0.16581 0.55749 0.0
H617 H 0.83883 0.14507 0.42487 0.0
H618 H 0.87163 0.13935 0.43895 0.0
H619 H 0.84497 0.1169 0.44493 0.0
H620 H 0.94126 0.11489 0.49063 0.0
H621 H 0.87806 0.05955 0.50446 0.0
H622 H 0.9045 0.17047 0.50192 0.0
H623 H 0.90161 0.1649 0.46725 0.0
H624 H 0.93312 0.15862 0.48367 0.0
H625 H 0.82707 0.1032 0.51886 0.0
H626 H 0.83256 0.07121 0.50582 0.0
H627 H 0.82441 0.09774 0.48417 0.0
C628 C 0.82697 0.82679 0.53436 0.0
C629 C 0.8151 0.81613 0.51173 0.0
C630 C 0.84582 0.84689 0.5324 0.0
C631 C 0.85287 0.85661 0.50723 0.0
C632 C 0.84107 0.84591 0.48431 0.0
C633 C 0.82236 0.82574 0.48683 0.0
C634 C 0.85819 0.85773 0.55728 0.0
C635 C 0.84812 0.85583 0.45714 0.0
C636 C 0.88419 0.92349 0.50383 0.0
C637 C 0.91168 0.91755 0.50164 0.0
C638 C 0.86477 0.90384 0.50546 0.0
C639 C 0.87304 0.87767 0.50488 0.0
C640 C 0.90066 0.87153 0.5024 0.0
C641 C 0.91961 0.89151 0.50078 0.0
C642 C 0.83542 0.91106 0.50805 0.0
C643 C 0.91024 0.84383 0.50173 0.0
H644 H 0.82148 0.81949 0.55367 0.0
H645 H 0.81321 0.8177 0.46924 0.0
H646 H 0.8804 0.85548 0.55663 0.0
H647 H 0.85388 0.87871 0.55874 0.0
H648 H 0.85048 0.84805 0.57534 0.0
H649 H 0.83696 0.84555 0.44131 0.0
H650 H 0.84351 0.87676 0.45578 0.0
H651 H 0.87002 0.85356 0.45352 0.0
H652 H 0.87779 0.94349 0.50456 0.0
H653 H 0.94074 0.88659 0.499 0.0
H654 H 0.82722 0.90336 0.52684 0.0
H655 H 0.82365 0.90222 0.49179 0.0
H656 H 0.83227 0.9323 0.50765 0.0
H657 H 0.90441 0.83387 0.52026 0.0
H658 H 0.93242 0.84234 0.49932 0.0
H659 H 0.90044 0.83335 0.48523 0.0
C660 C 0.16989 0.82426 0.51569 0.0
C661 C 0.18028 0.81662 0.49115 0.0
C662 C 0.15087 0.8442 0.51755 0.0
C663 C 0.14203 0.85676 0.49432 0.0
C664 C 0.15228 0.84906 0.46949 0.0
C665 C 0.17128 0.82907 0.4682 0.0
C666 C 0.1403 0.85188 0.54437 0.0
C667 C 0.14321 0.86198 0.44429 0.0
C668 C 0.07496 0.89156 0.49603 0.0
C669 C 0.08293 0.91748 0.49874 0.0
C670 C 0.09399 0.87165 0.49459 0.0
C671 C 0.12171 0.87773 0.49596 0.0
C672 C 0.12998 0.90376 0.49878 0.0
C673 C 0.11049 0.92335 0.50011 0.0
C674 C 0.08441 0.8441 0.49149 0.0
C675 C 0.15943 0.91091 0.50034 0.0
H676 H 0.17675 0.81478 0.53353 0.0
H677 H 0.17923 0.82333 0.44916 0.0
H678 H 0.14465 0.87259 0.54809 0.0
H679 H 0.11811 0.84948 0.545 0.0
H680 H 0.14932 0.84025 0.56052 0.0
H681 H 0.15318 0.85374 0.42657 0.0
H682 H 0.1211 0.8599 0.442 0.0
H683 H 0.14767 0.88297 0.44514 0.0
H684 H 0.05376 0.8867 0.49486 0.0
H685 H 0.11693 0.94325 0.50222 0.0
H686 H 0.09183 0.83216 0.50815 0.0
H687 H 0.09276 0.83569 0.47309 0.0
H688 H 0.0621 0.84264 0.49078 0.0
H689 H 0.169 0.90084 0.51723 0.0
H690 H 0.16252 0.93204 0.50271 0.0
H691 H 0.16999 0.9045 0.4822 0.0
C692 C 0.51845 0.17909 0.17246 0.0
C693 C 0.49377 0.18732 0.18303 0.0
C694 C 0.51955 0.15901 0.15392 0.0
C695 C 0.49539 0.14698 0.14565 0.0
C696 C 0.47041 0.1553 0.15605 0.0
C697 C 0.4699 0.17533 0.17467 0.0
C698 C 0.54657 0.15059 0.14326 0.0
C699 C 0.44422 0.14304 0.14751 0.0
C700 C 0.49547 0.11226 0.07987 0.0
C701 C 0.49767 0.08627 0.0876 0.0
C702 C 0.49469 0.13216 0.09856 0.0
C703 C 0.49621 0.12601 0.1257 0.0
C704 C 0.49848 0.0999 0.13373 0.0
C705 C 0.49915 0.08032 0.11458 0.0
C706 C 0.49218 0.1598 0.08926 0.0
C707 C 0.50021 0.09266 0.16254 0.0
H708 H 0.537 0.18816 0.17888 0.0
H709 H 0.45075 0.18156 0.18272 0.0
H710 H 0.54979 0.12978 0.14742 0.0
H711 H 0.54704 0.15303 0.12151 0.0
H712 H 0.5635 0.16175 0.15193 0.0
H713 H 0.42651 0.15172 0.15753 0.0
H714 H 0.44164 0.14522 0.12588 0.0
H715 H 0.44457 0.12202 0.15182 0.0
H716 H 0.49424 0.11719 0.05913 0.0
H717 H 0.50088 0.06036 0.12082 0.0
H718 H 0.50966 0.17126 0.09625 0.0
H719 H 0.47381 0.16871 0.09776 0.0
H720 H 0.49113 0.1613 0.06742 0.0
H721 H 0.51785 0.10225 0.17173 0.0
H722 H 0.50205 0.07146 0.16551 0.0
H723 H 0.48201 0.09954 0.17311 0.0
C724 C 0.82071 0.48506 0.17794 0.0
C725 C 0.81466 0.50853 0.19046 0.0
C726 C 0.83977 0.48392 0.15755 0.0
C727 C 0.85315 0.50677 0.14959 0.0
C728 C 0.84743 0.53045 0.16236 0.0
C729 C 0.82821 0.53106 0.18263 0.0
C730 C 0.84539 0.45832 0.14436 0.0
C731 C 0.86149 0.55517 0.15449 0.0
C732 C 0.91958 0.50083 0.11334 0.0
C733 C 0.91178 0.50504 0.08705 0.0
C734 C 0.90067 0.50118 0.13384 0.0
C735 C 0.87328 0.50589 0.12797 0.0
C736 C 0.86517 0.50995 0.10153 0.0
C737 C 0.88452 0.50944 0.08135 0.0
C738 C 0.91005 0.49668 0.16182 0.0
C739 C 0.83608 0.51502 0.09458 0.0
H740 H 0.81029 0.46757 0.18381 0.0
H741 H 0.82368 0.54926 0.19221 0.0
H742 H 0.84075 0.45964 0.12299 0.0
H743 H 0.86707 0.45346 0.14615 0.0
H744 H 0.83337 0.4423 0.15301 0.0
H745 H 0.85491 0.57194 0.16655 0.0
H746 H 0.8836 0.55292 0.15666 0.0
H747 H 0.85744 0.55949 0.13342 0.0
H748 H 0.94053 0.4972 0.11801 0.0
H749 H 0.87828 0.51279 0.06115 0.0
H750 H 0.89917 0.47999 0.17052 0.0
H751 H 0.90535 0.51382 0.17413 0.0
H752 H 0.93203 0.49287 0.16299 0.0
H753 H 0.8233 0.49878 0.10148 0.0
H754 H 0.83304 0.51751 0.07301 0.0
H755 H 0.82896 0.53272 0.10476 0.0
C756 C 0.53159 0.83095 0.17388 0.0
C757 C 0.50832 0.81866 0.18336 0.0
C758 C 0.52992 0.85084 0.15516 0.0
C759 C 0.50437 0.85871 0.14581 0.0
C760 C 0.48081 0.84638 0.15522 0.0
C761 C 0.48307 0.82643 0.17382 0.0
C762 C 0.55551 0.86343 0.14539 0.0
C763 C 0.45321 0.85434 0.14571 0.0
C764 C 0.49896 0.92524 0.11463 0.0
C765 C 0.49971 0.91922 0.08764 0.0
C766 C 0.50022 0.90571 0.13381 0.0
C767 C 0.50235 0.87959 0.12582 0.0
C768 C 0.50293 0.87335 0.09867 0.0
C769 C 0.50157 0.89321 0.07993 0.0
C770 C 0.49947 0.91303 0.16264 0.0
C771 C 0.50526 0.8457 0.08939 0.0
H772 H 0.55118 0.82506 0.18112 0.0
H773 H 0.46498 0.81712 0.18111 0.0
H774 H 0.55714 0.86118 0.12368 0.0
H775 H 0.55503 0.88446 0.14961 0.0
H776 H 0.57379 0.85505 0.15465 0.0
H777 H 0.43686 0.84296 0.15517 0.0
H778 H 0.44982 0.87512 0.14993 0.0
H779 H 0.45181 0.85181 0.12402 0.0
H780 H 0.49749 0.94522 0.12085 0.0
H781 H 0.50219 0.88822 0.05918 0.0
H782 H 0.51828 0.90665 0.17247 0.0
H783 H 0.4825 0.90305 0.17261 0.0
H784 H 0.4972 0.93419 0.16559 0.0
H785 H 0.5242 0.83706 0.09693 0.0
H786 H 0.50514 0.84409 0.06754 0.0
H787 H 0.48836 0.83406 0.09738 0.0
C788 C 0.17129 0.46578 0.17387 0.0
C789 C 0.18209 0.48767 0.18631 0.0
C790 C 0.15206 0.46823 0.15376 0.0
C791 C 0.14341 0.49314 0.14601 0.0
C792 C 0.15413 0.5153 0.15853 0.0
C793 C 0.17335 0.5123 0.17853 0.0
C794 C 0.14103 0.44416 0.14081 0.0
C795 C 0.1453 0.54218 0.15078 0.0
C796 C 0.11081 0.50096 0.07879 0.0
C797 C 0.08335 0.50139 0.08539 0.0
C798 C 0.13061 0.49833 0.09833 0.0
C799 C 0.12276 0.49605 0.12508 0.0
C800 C 0.09517 0.49658 0.13191 0.0
C801 C 0.07581 0.49927 0.11202 0.0
C802 C 0.15992 0.49787 0.09037 0.0
C803 C 0.08605 0.49415 0.16025 0.0
H804 H 0.17798 0.44669 0.17969 0.0
H805 H 0.1816 0.52932 0.18801 0.0
H806 H 0.11886 0.44331 0.14341 0.0
H807 H 0.14505 0.44471 0.11928 0.0
H808 H 0.14997 0.42622 0.14904 0.0
H809 H 0.15576 0.55741 0.16232 0.0
H810 H 0.14933 0.54546 0.12951 0.0
H811 H 0.12328 0.54427 0.15379 0.0
H812 H 0.11692 0.50254 0.05832 0.0
H813 H 0.0547 0.49954 0.11745 0.0
H814 H 0.16924 0.47938 0.09659 0.0
H815 H 0.17097 0.51364 0.10049 0.0
H816 H 0.16268 0.50011 0.06873 0.0
H817 H 0.0932 0.47557 0.16864 0.0
H818 H 0.06379 0.49501 0.16226 0.0
H819 H 0.095 0.50987 0.17227 0.0
C820 C 0.46755 0.83266 0.83104 0.0
C821 C 0.49082 0.81935 0.82316 0.0
C822 C 0.4688 0.85235 0.84999 0.0
C823 C 0.49394 0.85893 0.86128 0.0
C824 C 0.51747 0.84549 0.8536 0.0
C825 C 0.51563 0.82582 0.83465 0.0
C826 C 0.44325 0.86619 0.85785 0.0
C827 C 0.54462 0.852 0.86526 0.0
C828 C 0.50093 0.92516 0.89273 0.0
C829 C 0.49792 0.91929 0.91961 0.0
C830 C 0.49985 0.90567 0.87352 0.0
C831 C 0.49554 0.87974 0.88136 0.0
C832 C 0.49253 0.87366 0.9084 0.0
C833 C 0.49379 0.89347 0.92718 0.0
C834 C 0.50323 0.91283 0.84482 0.0
C835 C 0.48779 0.84623 0.9175 0.0
H836 H 0.4483 0.8278 0.82228 0.0
H837 H 0.53372 0.81569 0.82865 0.0
H838 H 0.43985 0.86413 0.87938 0.0
H839 H 0.44518 0.88715 0.85363 0.0
H840 H 0.4253 0.85866 0.84728 0.0
H841 H 0.56099 0.83973 0.85715 0.0
H842 H 0.54957 0.87255 0.8613 0.0
H843 H 0.54407 0.84952 0.887 0.0
H844 H 0.5042 0.94499 0.88664 0.0
H845 H 0.4913 0.88863 0.94784 0.0
H846 H 0.48496 0.90724 0.83359 0.0
H847 H 0.52043 0.90207 0.8362 0.0
H848 H 0.50677 0.93385 0.84202 0.0
H849 H 0.46908 0.83855 0.90847 0.0
H850 H 0.48598 0.84473 0.93929 0.0
H851 H 0.5046 0.83368 0.91091 0.0
C852 C 0.17416 0.48963 0.82467 0.0
C853 C 0.17994 0.51344 0.8127 0.0
C854 C 0.15489 0.48775 0.84481 0.0
C855 C 0.14099 0.5102 0.85305 0.0
C856 C 0.14641 0.53422 0.84079 0.0
C857 C 0.16588 0.53557 0.82078 0.0
C858 C 0.14962 0.46181 0.85748 0.0
C859 C 0.1318 0.55853 0.84897 0.0
C860 C 0.07452 0.50238 0.88891 0.0
C861 C 0.08214 0.50627 0.91529 0.0
C862 C 0.0935 0.50345 0.86848 0.0
C863 C 0.12078 0.50857 0.87455 0.0
C864 C 0.12871 0.51231 0.9011 0.0
C865 C 0.10929 0.51107 0.92118 0.0
C866 C 0.08433 0.49928 0.84039 0.0
C867 C 0.15766 0.51782 0.90827 0.0
H868 H 0.18497 0.47245 0.8186 0.0
H869 H 0.17019 0.55403 0.81161 0.0
H870 H 0.15415 0.46279 0.87888 0.0
H871 H 0.12803 0.45664 0.8555 0.0
H872 H 0.16193 0.44616 0.84857 0.0
H873 H 0.1381 0.57561 0.83721 0.0
H874 H 0.10976 0.55587 0.84667 0.0
H875 H 0.13566 0.56259 0.87013 0.0
H876 H 0.05365 0.49847 0.88411 0.0
H877 H 0.11538 0.51422 0.94145 0.0
H878 H 0.09558 0.48298 0.83143 0.0
H879 H 0.08873 0.51674 0.82843 0.0
H880 H 0.06243 0.49507 0.83907 0.0
H881 H 0.17078 0.50194 0.90117 0.0
H882 H 0.16055 0.52003 0.92988 0.0
H883 H 0.16448 0.53581 0.8984 0.0
C884 C 0.48188 0.17849 0.8336 0.0
C885 C 0.50668 0.18625 0.82295 0.0
C886 C 0.48046 0.15878 0.85256 0.0
C887 C 0.50444 0.14668 0.86117 0.0
C888 C 0.52957 0.1546 0.85075 0.0
C889 C 0.53038 0.17425 0.8317 0.0
C890 C 0.4533 0.15077 0.86322 0.0
C891 C 0.55558 0.14225 0.85965 0.0
C892 C 0.50376 0.11226 0.92718 0.0
C893 C 0.50141 0.08626 0.91957 0.0
C894 C 0.50474 0.13209 0.90838 0.0
C895 C 0.50328 0.12583 0.88127 0.0
C896 C 0.50083 0.0997 0.87337 0.0
C897 C 0.49996 0.08021 0.89261 0.0
C898 C 0.50745 0.15975 0.91754 0.0
C899 C 0.49915 0.09234 0.84459 0.0
H900 H 0.46346 0.18759 0.82689 0.0
H901 H 0.54964 0.18015 0.82361 0.0
H902 H 0.44977 0.12998 0.85915 0.0
H903 H 0.45281 0.1533 0.88495 0.0
H904 H 0.43656 0.1621 0.85445 0.0
H905 H 0.57346 0.15078 0.84975 0.0
H906 H 0.55795 0.14452 0.88129 0.0
H907 H 0.55513 0.12122 0.85545 0.0
H908 H 0.50497 0.11726 0.9479 0.0
H909 H 0.49809 0.06024 0.88646 0.0
H910 H 0.49015 0.17132 0.91033 0.0
H911 H 0.52598 0.16846 0.90913 0.0
H912 H 0.50833 0.16135 0.93937 0.0
H913 H 0.48168 0.10208 0.83526 0.0
H914 H 0.49706 0.07115 0.84173 0.0
H915 H 0.51749 0.09898 0.83407 0.0
C916 C 0.82157 0.5243 0.824 0.0
C917 C 0.81228 0.50048 0.81442 0.0
C918 C 0.84064 0.52547 0.84434 0.0
C919 C 0.85058 0.50226 0.85541 0.0
C920 C 0.84131 0.47815 0.84588 0.0
C921 C 0.8223 0.47754 0.82544 0.0
C922 C 0.85018 0.55153 0.85396 0.0
C923 C 0.85149 0.45301 0.85726 0.0
C924 C 0.91813 0.50449 0.88995 0.0
C925 C 0.91052 0.50525 0.91664 0.0
C926 C 0.89881 0.50347 0.86987 0.0
C927 C 0.87117 0.50323 0.87657 0.0
C928 C 0.86326 0.50405 0.90338 0.0
C929 C 0.88303 0.50505 0.92312 0.0
C930 C 0.908 0.50259 0.84145 0.0
C931 C 0.83391 0.50384 0.9112 0.0
H932 H 0.81393 0.54211 0.81561 0.0
H933 H 0.81514 0.45906 0.81824 0.0
H934 H 0.84612 0.5535 0.8754 0.0
H935 H 0.87227 0.55326 0.85117 0.0
H936 H 0.84022 0.56776 0.84345 0.0
H937 H 0.842 0.4359 0.84786 0.0
H938 H 0.87363 0.45167 0.85465 0.0
H939 H 0.8474 0.45232 0.87878 0.0
H940 H 0.93926 0.50463 0.8846 0.0
H941 H 0.87688 0.50559 0.94363 0.0
H942 H 0.89967 0.51933 0.83049 0.0
H943 H 0.90027 0.48484 0.83181 0.0
H944 H 0.93029 0.5029 0.83958 0.0
H945 H 0.82341 0.52059 0.90223 0.0
H946 H 0.83111 0.5046 0.93294 0.0
H947 H 0.82405 0.48611 0.9036 0.0
C948 C 0.67441 0.67742 0.9881 0.0
C949 C 0.67945 0.6885 0.01287 0.0
C950 C 0.65596 0.65708 0.98528 0.0
C951 C 0.64207 0.64776 0.00774 0.0
C952 C 0.64684 0.65902 0.03275 0.0
C953 C 0.66555 0.6792 0.03503 0.0
C954 C 0.65141 0.64548 0.95831 0.0
C955 C 0.63219 0.64972 0.0571 0.0
C956 C 0.57601 0.61237 0.99826 0.0
C957 C 0.58374 0.58648 0.0017 0.0
C958 C 0.59486 0.63244 0.99987 0.0
C959 C 0.62215 0.62655 0.00504 0.0
C960 C 0.63024 0.60049 0.00814 0.0
C961 C 0.61093 0.58074 0.00641 0.0
C962 C 0.58548 0.66 0.99641 0.0
C963 C 0.65922 0.59352 0.01365 0.0
H964 H 0.68517 0.68439 0.9709 0.0
H965 H 0.6693 0.68767 0.05424 0.0
H966 H 0.65612 0.62452 0.95872 0.0
H967 H 0.62992 0.64741 0.95267 0.0
H968 H 0.66398 0.65482 0.94287 0.0
H969 H 0.63822 0.66053 0.07508 0.0
H970 H 0.61014 0.65186 0.05435 0.0
H971 H 0.63628 0.62889 0.06032 0.0
H972 H 0.55512 0.61709 0.99442 0.0
H973 H 0.61713 0.56085 0.00918 0.0
H974 H 0.59687 0.66943 0.98021 0.0
H975 H 0.58951 0.67116 0.01467 0.0
H976 H 0.56363 0.66126 0.99188 0.0
H977 H 0.67243 0.6014 0.99793 0.0
H978 H 0.66234 0.5723 0.01488 0.0
H979 H 0.66572 0.60235 0.03255 0.0
C980 C 0.32379 0.67893 0.01351 0.0
C981 C 0.31631 0.6881 0.98851 0.0
C982 C 0.34235 0.65868 0.01621 0.0
C983 C 0.35379 0.64745 0.99336 0.0
C984 C 0.34648 0.65669 0.96808 0.0
C985 C 0.32778 0.67689 0.96596 0.0
C986 C 0.34966 0.64927 0.04349 0.0
C987 C 0.35845 0.64528 0.94329 0.0
C988 C 0.42048 0.61258 0.99991 0.0
C989 C 0.41247 0.58654 0.99981 0.0
C990 C 0.40157 0.63255 0.99796 0.0
C991 C 0.37391 0.6264 0.99592 0.0
C992 C 0.36557 0.60024 0.99606 0.0
C993 C 0.38495 0.5806 0.998 0.0
C994 C 0.41124 0.66024 0.99783 0.0
C995 C 0.33618 0.59301 0.99395 0.0
H996 H 0.31494 0.68739 0.03104 0.0
H997 H 0.32211 0.68384 0.94657 0.0
H998 H 0.34503 0.62837 0.04532 0.0
H999 H 0.37161 0.6516 0.0468 0.0
H1000 H 0.3387 0.65986 0.05923 0.0
H1001 H 0.35052 0.65456 0.92513 0.0
H1002 H 0.38068 0.64749 0.94356 0.0
H1003 H 0.35407 0.62427 0.94237 0.0
H1004 H 0.44164 0.61752 0.00135 0.0
H1005 H 0.37849 0.56059 0.99784 0.0
H1006 H 0.40172 0.6711 0.01423 0.0
H1007 H 0.40516 0.6698 0.97917 0.0
H1008 H 0.43346 0.66175 0.99984 0.0
H1009 H 0.32461 0.60217 0.01016 0.0
H1010 H 0.33298 0.57178 0.9948 0.0
H1011 H 0.32779 0.60036 0.97511 0.0
C1012 C 0.32729 0.32524 0.98398 0.0
C1013 C 0.3157 0.31762 0.00801 0.0
C1014 C 0.34608 0.34545 0.98292 0.0
C1015 C 0.35345 0.35833 0.00646 0.0
C1016 C 0.34195 0.35069 0.03079 0.0
C1017 C 0.32322 0.33041 0.03128 0.0
C1018 C 0.35802 0.35306 0.95663 0.0
C1019 C 0.34943 0.36395 0.0563 0.0
C1020 C 0.42031 0.39356 0.00752 0.0
C1021 C 0.41237 0.41936 0.00385 0.0
C1022 C 0.40132 0.37357 0.0085 0.0
C1023 C 0.37368 0.37944 0.00569 0.0
C1024 C 0.36542 0.40538 0.00207 0.0
C1025 C 0.38487 0.42506 0.00123 0.0
C1026 C 0.41088 0.34613 0.01253 0.0
C1027 C 0.33606 0.41231 0.99898 0.0
H1028 H 0.32158 0.3155 0.9659 0.0
H1029 H 0.31432 0.32471 0.04993 0.0
H1030 H 0.35376 0.37372 0.95252 0.0
H1031 H 0.38023 0.3508 0.95716 0.0
H1032 H 0.34996 0.34126 0.94011 0.0
H1033 H 0.3385 0.3558 0.07353 0.0
H1034 H 0.37139 0.36207 0.05984 0.0
H1035 H 0.34489 0.38489 0.05496 0.0
H1036 H 0.44145 0.38884 0.00973 0.0
H1037 H 0.37848 0.44488 0.99837 0.0
H1038 H 0.40464 0.33398 0.99557 0.0
H1039 H 0.40142 0.33782 0.03046 0.0
H1040 H 0.43311 0.34486 0.01463 0.0
H1041 H 0.3275 0.40217 0.98162 0.0
H1042 H 0.33296 0.43342 0.99642 0.0
H1043 H 0.32457 0.40582 0.01655 0.0
C1044 C 0.67194 0.32796 0.0205 0.0
C1045 C 0.67982 0.31717 0.9963 0.0
C1046 C 0.65333 0.3483 0.02152 0.0
C1047 C 0.64223 0.35799 0.99779 0.0
C1048 C 0.64991 0.34708 0.97332 0.0
C1049 C 0.66865 0.32682 0.97287 0.0
C1050 C 0.64558 0.35949 0.04798 0.0
C1051 C 0.63832 0.35681 0.94763 0.0
C1052 C 0.5755 0.39321 0.00138 0.0
C1053 C 0.58355 0.4192 0.99989 0.0
C1054 C 0.5944 0.37315 1.00075 0.0
C1055 C 0.62209 0.37915 0.9986 0.0
C1056 C 0.63046 0.40527 0.99716 0.0
C1057 C 0.61109 0.42501 0.99783 0.0
C1058 C 0.58471 0.34551 0.00233 0.0
C1059 C 0.65987 0.41234 0.99486 0.0
H1060 H 0.68054 0.3207 0.0387 0.0
H1061 H 0.67463 0.31862 0.95409 0.0
H1062 H 0.65022 0.38046 0.04843 0.0
H1063 H 0.62358 0.35739 0.05114 0.0
H1064 H 0.65627 0.34995 0.06458 0.0
H1065 H 0.64651 0.34633 0.93027 0.0
H1066 H 0.61609 0.35462 0.94776 0.0
H1067 H 0.64274 0.3777 0.94529 0.0
H1068 H 0.55433 0.38837 0.00304 0.0
H1069 H 0.61757 0.44497 0.99661 0.0
H1070 H 0.59384 0.33577 0.01965 0.0
H1071 H 0.5912 0.33473 0.98451 0.0
H1072 H 0.56244 0.34413 0.00399 0.0
H1073 H 0.67118 0.40445 0.01193 0.0
H1074 H 0.66307 0.43358 0.99407 0.0
H1075 H 0.66856 0.40358 0.97679 0.0
C1076 C 0.01371 0.6782 0.67249 0.0
C1077 C 0.98847 0.68646 0.68164 0.0
C1078 C 0.01585 0.6584 0.65371 0.0
C1079 C 0.99219 0.64671 0.64376 0.0
C1080 C 0.96665 0.65508 0.65273 0.0
C1081 C 0.9651 0.67483 0.6716 0.0
C1082 C 0.04343 0.64991 0.64461 0.0
C1083 C 0.94097 0.64316 0.6424 0.0
C1084 C 0.99558 0.61246 0.57779 0.0
C1085 C 0.99675 0.58638 0.58544 0.0
C1086 C 0.99424 0.63226 0.59658 0.0
C1087 C 0.9941 0.6259 0.62371 0.0
C1088 C 0.9955 0.59971 0.63165 0.0
C1089 C 0.99678 0.58025 0.61242 0.0
C1090 C 0.99273 0.65999 0.58738 0.0
C1091 C 0.99546 0.59225 0.66045 0.0
H1092 H 0.03188 0.68701 0.68019 0.0
H1093 H 0.94551 0.6811 0.67854 0.0
H1094 H 0.04627 0.62904 0.64879 0.0
H1095 H 0.04529 0.65251 0.62296 0.0
H1096 H 0.05986 0.6609 0.65439 0.0
H1097 H 0.92271 0.65191 0.65136 0.0
H1098 H 0.93985 0.64556 0.62067 0.0
H1099 H 0.94082 0.6221 0.64652 0.0
H1100 H 0.99554 0.61754 0.55705 0.0
H1101 H 0.99769 0.56022 0.6186 0.0
H1102 H 0.00974 0.67123 0.59572 0.0
H1103 H 0.97386 0.66901 0.59462 0.0
H1104 H 0.99333 0.66169 0.56553 0.0
H1105 H 0.01248 0.60177 0.67077 0.0
H1106 H 0.99712 0.57103 0.66336 0.0
H1107 H 0.97662 0.59904 0.66996 0.0
C1108 C 0.32443 0.03835 0.67551 0.0
C1109 C 0.31378 0.01606 0.68734 0.0
C1110 C 0.34359 0.03659 0.65525 0.0
C1111 C 0.35231 0.01196 0.64668 0.0
C1112 C 0.34172 0.98939 0.65856 0.0
C1113 C 0.32258 0.99171 0.67876 0.0
C1114 C 0.35452 0.06108 0.64305 0.0
C1115 C 0.35063 0.9628 0.64994 0.0
C1116 C 0.38494 0.00648 0.57916 0.0
C1117 C 0.41239 0.00598 0.58571 0.0
C1118 C 0.36512 0.00836 0.59882 0.0
C1119 C 0.37295 0.0098 0.62562 0.0
C1120 C 0.40055 0.00923 0.63239 0.0
C1121 C 0.41992 0.0073 0.6124 0.0
C1122 C 0.33581 0.0089 0.59091 0.0
C1123 C 0.40966 0.01077 0.66079 0.0
H1124 H 0.3177 0.05724 0.68197 0.0
H1125 H 0.31444 0.97439 0.68776 0.0
H1126 H 0.37667 0.06198 0.64573 0.0
H1127 H 0.35058 0.06114 0.6215 0.0
H1128 H 0.34544 0.07872 0.6518 0.0
H1129 H 0.34023 0.94718 0.66101 0.0
H1130 H 0.34659 0.96017 0.62858 0.0
H1131 H 0.37266 0.96069 0.65284 0.0
H1132 H 0.37885 0.00551 0.55866 0.0
H1133 H 0.44102 0.00695 0.6178 0.0
H1134 H 0.32634 0.02708 0.59784 0.0
H1135 H 0.32489 0.99268 0.60045 0.0
H1136 H 0.33306 0.00745 0.56921 0.0
H1137 H 0.4024 0.02901 0.66981 0.0
H1138 H 0.43192 0.00999 0.66274 0.0
H1139 H 0.40082 0.99461 0.67229 0.0
C1140 C 0.03093 0.33329 0.67456 0.0
C1141 C 0.00796 0.31889 0.6812 0.0
C1142 C 0.02967 0.35314 0.65576 0.0
C1143 C 0.00483 0.35877 0.64339 0.0
C1144 C 0.9816 0.34423 0.64985 0.0
C1145 C 0.98345 0.32441 0.66864 0.0
C1146 C 0.05491 0.36815 0.6492 0.0
C1147 C 0.95476 0.34973 0.63703 0.0
C1148 C 0.99605 0.42493 0.61213 0.0
C1149 C 0.00037 0.4194 0.58536 0.0
C1150 C 0.99734 0.40535 0.63125 0.0
C1151 C 0.00322 0.37971 0.62342 0.0
C1152 C 0.00768 0.37401 0.59649 0.0
C1153 C 0.00614 0.39389 0.5778 0.0
C1154 C 0.99238 0.41208 0.65983 0.0
C1155 C 0.01418 0.34692 0.58742 0.0
H1156 H 0.04995 0.32916 0.68414 0.0
H1157 H 0.96558 0.31344 0.6737 0.0
H1158 H 0.05941 0.36648 0.62783 0.0
H1159 H 0.05183 0.38895 0.65352 0.0
H1160 H 0.07267 0.36127 0.66051 0.0
H1161 H 0.93859 0.33671 0.64432 0.0
H1162 H 0.94873 0.37002 0.64092 0.0
H1163 H 0.95642 0.34747 0.61533 0.0
H1164 H 0.9915 0.44453 0.61818 0.0
H1165 H 0.00973 0.38937 0.55722 0.0
H1166 H 0.01034 0.4071 0.6718 0.0
H1167 H 0.97528 0.40056 0.6676 0.0
H1168 H 0.98782 0.43291 0.66264 0.0
H1169 H 0.0327 0.33994 0.59737 0.0
H1170 H 0.01726 0.34576 0.56574 0.0
H1171 H 0.99762 0.33359 0.59297 0.0
C1172 C 0.6727 0.01731 0.68118 0.0
C1173 C 0.68127 0.99312 0.69045 0.0
C1174 C 0.65356 0.01924 0.66096 0.0
C1175 C 0.64275 0.99645 0.64976 0.0
C1176 C 0.65109 0.97199 0.65918 0.0
C1177 C 0.67024 0.97062 0.67944 0.0
C1178 C 0.64502 0.04566 0.65146 0.0
C1179 C 0.63991 0.94728 0.64771 0.0
C1180 C 0.57588 1.00075 0.61411 0.0
C1181 C 0.58397 1.00114 0.58755 0.0
C1182 C 0.59481 0.99928 0.63453 0.0
C1183 C 0.62254 0.99821 0.62829 0.0
C1184 C 0.63093 0.99872 0.60161 0.0
C1185 C 0.61155 1.00017 0.58153 0.0
C1186 C 0.58512 0.99874 0.66279 0.0
C1187 C 0.66039 0.99763 0.59426 0.0
H1188 H 0.68112 0.0348 0.68956 0.0
H1189 H 0.67678 0.95185 0.68645 0.0
H1190 H 0.64962 0.04774 0.63014 0.0
H1191 H 0.62294 0.04798 0.6538 0.0
H1192 H 0.65525 0.06149 0.66235 0.0
H1193 H 0.64843 0.92981 0.65732 0.0
H1194 H 0.61769 0.94688 0.64994 0.0
H1195 H 0.64435 0.94637 0.62627 0.0
H1196 H 0.55468 1.00149 0.6191 0.0
H1197 H 0.61808 1.00043 0.56113 0.0
H1198 H 0.59396 0.01514 0.6739 0.0
H1199 H 0.59193 0.9807 0.67254 0.0
H1200 H 0.56283 0.99988 0.6643 0.0
H1201 H 0.67132 0.01401 0.60347 0.0
H1202 H 0.66359 0.99839 0.57258 0.0
H1203 H 0.66949 0.97957 0.60196 0.0
C1204 C 0.01175 0.32431 0.33479 0.0
C1205 C 0.98759 0.31932 0.32137 0.0
C1206 C 0.01336 0.344 0.35373 0.0
C1207 C 0.99026 0.35899 0.35943 0.0
C1208 C 0.96575 0.35391 0.34618 0.0
C1209 C 0.96472 0.33414 0.32729 0.0
C1210 C 0.03984 0.34889 0.36751 0.0
C1211 C 0.94066 0.36943 0.35188 0.0
C1212 C 0.98773 0.39416 0.42494 0.0
C1213 C 0.9945 0.4195 0.41754 0.0
C1214 C 0.98618 0.37432 0.40621 0.0
C1215 C 0.99168 0.37989 0.37942 0.0
C1216 C -0.00148 0.40537 0.37176 0.0
C1217 C -0.00023 0.42491 0.39091 0.0
C1218 C 0.9786 0.34741 0.41508 0.0
C1219 C 0.00461 0.41197 0.34335 0.0
H1220 H 0.02954 0.313 0.33032 0.0
H1221 H 0.94597 0.33044 0.31703 0.0
H1222 H 0.04654 0.36903 0.36383 0.0
H1223 H 0.03731 0.34668 0.38914 0.0
H1224 H 0.05594 0.33551 0.36081 0.0
H1225 H 0.92315 0.3629 0.34 0.0
H1226 H 0.93539 0.36789 0.3731 0.0
H1227 H 0.94438 0.39016 0.34764 0.0
H1228 H 0.98337 0.38976 0.44541 0.0
H1229 H 0.00511 0.44438 0.38501 0.0
H1230 H 0.99502 0.3337 0.41018 0.0
H1231 H 0.96032 0.34083 0.40446 0.0
H1232 H 0.97465 0.34637 0.43664 0.0
H1233 H 0.02174 0.40013 0.33619 0.0
H1234 H 0.0097 0.43271 0.34066 0.0
H1235 H 0.98699 0.40729 0.33079 0.0
C1236 C 0.67975 0.98349 0.32919 0.0
C1237 C 0.68449 0.00642 0.31514 0.0
C1238 C 0.66069 0.98259 0.34959 0.0
C1239 C 0.646 0.00513 0.35604 0.0
C1240 C 0.65063 0.02832 0.34194 0.0
C1241 C 0.66985 0.0287 0.32166 0.0
C1242 C 0.65625 0.95751 0.36421 0.0
C1243 C 0.63524 0.05271 0.34825 0.0
C1244 C 0.57907 0.99729 0.39104 0.0
C1245 C 0.58596 1.00296 0.41727 0.0
C1246 C 0.59845 0.99784 0.37096 0.0
C1247 C 0.62537 0.0043 0.37721 0.0
C1248 C 0.63255 0.00996 0.40361 0.0
C1249 C 0.61275 0.00915 0.42337 0.0
C1250 C 0.59008 0.99157 0.34304 0.0
C1251 C 0.66109 0.017 0.41095 0.0
H1252 H 0.69102 0.9662 0.32434 0.0
H1253 H 0.67341 0.04649 0.31093 0.0
H1254 H 0.66004 0.96032 0.38559 0.0
H1255 H 0.63499 0.95125 0.36206 0.0
H1256 H 0.66954 0.94178 0.35694 0.0
H1257 H 0.64146 0.06923 0.33563 0.0
H1258 H 0.61334 0.04939 0.34551 0.0
H1259 H 0.63836 0.05809 0.36922 0.0
H1260 H 0.55848 0.99229 0.38612 0.0
H1261 H 0.61825 0.0137 0.44353 0.0
H1262 H 0.602 0.97502 0.3355 0.0
H1263 H 0.59428 0.00829 0.32996 0.0
H1264 H 0.56835 0.98667 0.34153 0.0
H1265 H 0.67494 1.00108 0.40543 0.0
H1266 H 0.66335 0.02092 0.43239 0.0
H1267 H 0.66753 0.03441 0.39983 0.0
C1268 C 0.02996 0.67572 0.33171 0.0
C1269 C 0.00651 0.68678 0.32121 0.0
C1270 C 0.02853 0.65596 0.3506 0.0
C1271 C 0.00303 0.64695 0.35906 0.0
C1272 C 0.97928 0.65807 0.34865 0.0
C1273 C 0.9813 0.67792 0.3299 0.0
C1274 C 0.05429 0.64467 0.36145 0.0
C1275 C 0.95175 0.64889 0.3572 0.0
C1276 C -0.00049 0.58034 0.39031 0.0
C1277 C -0.00117 0.58644 0.41728 0.0
C1278 C 0.00069 0.59985 0.37111 0.0
C1279 C 0.00124 0.62606 0.37907 0.0
C1280 C 0.00038 0.63238 0.40619 0.0
C1281 C -0.00084 0.61253 0.42494 0.0
C1282 C 0.00153 0.59244 0.34231 0.0
C1283 C 0.00096 0.66013 0.41542 0.0
H1284 H 0.04951 0.68247 0.32514 0.0
H1285 H 0.96308 0.68628 0.32181 0.0
H1286 H 0.05487 0.64706 0.3832 0.0
H1287 H 0.05508 0.62364 0.35732 0.0
H1288 H 0.0725 0.65391 0.35288 0.0
H1289 H 0.93525 0.6595 0.34712 0.0
H1290 H 0.94953 0.62797 0.35293 0.0
H1291 H 0.94939 0.65138 0.37881 0.0
H1292 H -0.00075 0.5603 0.38411 0.0
H1293 H -0.00139 0.61758 0.44568 0.0
H1294 H 0.02037 0.59973 0.33317 0.0
H1295 H 0.98447 0.60153 0.33166 0.0
H1296 H 0.00051 0.57119 0.33937 0.0
H1297 H 0.01973 0.66963 0.40856 0.0
H1298 H -0.00013 0.66178 0.43725 0.0
H1299 H 0.98383 0.67094 0.40676 0.0
C1300 C 0.32218 0.0237 0.32596 0.0
C1301 C 0.31633 1.00045 0.31293 0.0
C1302 C 0.34151 0.02466 0.34609 0.0
C1303 C 0.35538 1.00184 0.35325 0.0
C1304 C 0.34988 0.9784 0.33994 0.0
C1305 C 0.33038 0.97797 0.31995 0.0
C1306 C 0.34688 0.05 0.35989 0.0
C1307 C 0.36444 0.95372 0.34697 0.0
C1308 C 0.4219 0.00793 0.38928 0.0
C1309 C 0.41427 1.00301 0.41548 0.0
C1310 C 0.40291 0.00775 0.36886 0.0
C1311 C 0.37562 1.00246 0.37475 0.0
C1312 C 0.3677 0.99761 0.40112 0.0
C1313 C 0.38712 0.99799 0.4212 0.0
C1314 C 0.41208 0.01312 0.34096 0.0
C1315 C 0.33874 0.99187 0.4081 0.0
H1316 H 0.31138 0.04116 0.32071 0.0
H1317 H 0.32602 0.95994 0.30996 0.0
H1318 H 0.34237 0.0481 0.38124 0.0
H1319 H 0.36848 0.0552 0.35808 0.0
H1320 H 0.3346 0.06606 0.35173 0.0
H1321 H 0.35806 0.93718 0.33448 0.0
H1322 H 0.38648 0.95642 0.34471 0.0
H1323 H 0.36061 0.94875 0.36794 0.0
H1324 H 0.44278 0.01204 0.38462 0.0
H1325 H 0.38102 0.99405 0.44135 0.0
H1326 H 0.4009 0.02985 0.33278 0.0
H1327 H 0.40758 0.99624 0.32822 0.0
H1328 H 0.43399 0.0173 0.33977 0.0
H1329 H 0.32567 0.00813 0.40183 0.0
H1330 H 0.33587 0.98865 0.4296 0.0
H1331 H 0.33182 0.9744 0.39739 0.0
C1332 C 0.97799 0.1725 0.32593 0.0
C1333 C 0.00283 0.18254 0.31754 0.0
C1334 C 0.97671 0.15269 0.34484 0.0
C1335 C 0.00084 0.14274 0.35569 0.0
C1336 C 0.02597 0.15246 0.34698 0.0
C1337 C 0.02667 0.17222 0.328 0.0
C1338 C 0.94953 0.14271 0.35354 0.0
C1339 C 0.05214 0.14229 0.35805 0.0
C1340 C -0.00165 0.11047 0.42302 0.0
C1341 C -0.00111 0.08416 0.41631 0.0
C1342 C -0.00121 0.12971 0.40349 0.0
C1343 C -0.00018 0.12251 0.37655 0.0
C1344 C 0.0002 0.09604 0.3696 0.0
C1345 C -0.00028 0.07721 0.38952 0.0
C1346 C -0.00172 0.15776 0.41168 0.0
C1347 C 0.00124 0.0876 0.3411 0.0
H1348 H 0.95948 0.18034 0.31794 0.0
H1349 H 0.04595 0.17985 0.32166 0.0
H1350 H 0.94841 0.1215 0.3506 0.0
H1351 H 0.94671 0.1464 0.37493 0.0
H1352 H 0.93271 0.15193 0.3426 0.0
H1353 H 0.07001 0.15144 0.34871 0.0
H1354 H 0.05294 0.1459 0.37961 0.0
H1355 H 0.05338 0.12108 0.35513 0.0
H1356 H 0.99761 0.11615 0.44359 0.0
H1357 H 9e-05 0.05699 0.38399 0.0
H1358 H 0.98075 0.16762 0.4026 0.0
H1359 H 0.01669 0.16767 0.40447 0.0
H1360 H 0.99709 0.16013 0.43343 0.0
H1361 H 0.98371 0.09553 0.33023 0.0
H1362 H 0.0012 0.06624 0.33898 0.0
H1363 H 0.01966 0.09536 0.33155 0.0
C1364 C 0.82978 0.01463 0.31533 0.0
C1365 C 0.81324 0.03642 0.31816 0.0
C1366 C 0.84983 0.009 0.33399 0.0
C1367 C 0.85358 0.02572 0.35579 0.0
C1368 C 0.83751 0.04816 0.3583 0.0
C1369 C 0.81745 0.05316 0.33952 0.0
C1370 C 0.86651 0.98482 0.33076 0.0
C1371 C 0.84121 0.06667 0.38106 0.0
C1372 C 0.88608 1.0005 0.41856 0.0
C1373 C 0.91258 0.00936 0.4157 0.0
C1374 C 0.86678 0.00522 0.39891 0.0
C1375 C 0.87407 0.01961 0.3762 0.0
C1376 C 0.90079 0.02867 0.3733 0.0
C1377 C 0.91977 0.02323 0.39296 0.0
C1378 C 0.83855 0.99495 0.40251 0.0
C1379 C 0.90921 0.04455 0.34967 0.0
H1380 H 0.82656 1.00154 0.29895 0.0
H1381 H 0.80481 0.07009 0.34178 0.0
H1382 H 0.88824 0.9898 0.33029 0.0
H1383 H 0.86329 0.97185 0.34791 0.0
H1384 H 0.86142 0.97409 0.31245 0.0
H1385 H 0.82785 0.08381 0.37953 0.0
H1386 H 0.83686 0.05665 0.39994 0.0
H1387 H 0.86241 0.07339 0.38191 0.0
H1388 H 0.88049 0.98971 0.43607 0.0
H1389 H 0.94016 0.03047 0.39082 0.0
H1390 H 0.83283 0.98285 0.38533 0.0
H1391 H 0.82408 0.01125 0.40344 0.0
H1392 H 0.83643 0.98322 0.42075 0.0
H1393 H 0.90552 0.03356 0.33124 0.0
H1394 H 0.93082 0.05009 0.35038 0.0
H1395 H 0.89693 0.06242 0.34862 0.0
C1396 C 0.9685 0.83221 0.32564 0.0
C1397 C 0.99237 0.82101 0.31621 0.0
C1398 C 0.9691 0.85181 0.34478 0.0
C1399 C 0.99417 0.86044 0.35475 0.0
C1400 C 0.01835 0.84953 0.34501 0.0
C1401 C 0.01716 0.82995 0.32586 0.0
C1402 C 0.94288 0.86301 0.35464 0.0
C1403 C 0.04547 0.85827 0.35511 0.0
C1404 C 0.99683 0.92583 0.3888 0.0
C1405 C 0.99616 0.91881 0.41558 0.0
C1406 C 0.9963 0.90705 0.36882 0.0
C1407 C 0.99505 0.88058 0.3757 0.0
C1408 C 0.99444 0.87332 0.40263 0.0
C1409 C 0.99502 0.89248 0.42222 0.0
C1410 C 0.99702 0.91556 0.34032 0.0
C1411 C 0.9931 0.84527 0.41076 0.0
H1412 H 0.94925 0.82544 0.31831 0.0
H1413 H 0.0357 0.82141 0.31871 0.0
H1414 H 0.94082 0.8594 0.37613 0.0
H1415 H 0.94273 0.88425 0.35173 0.0
H1416 H 0.92512 0.85462 0.34444 0.0
H1417 H 0.0624 0.84831 0.34504 0.0
H1418 H 0.04778 0.87941 0.35225 0.0
H1419 H 0.04693 0.85447 0.3766 0.0
H1420 H 0.99778 0.94605 0.38332 0.0
H1421 H 0.99449 0.88674 0.44278 0.0
H1422 H 0.97871 0.90864 0.32996 0.0
H1423 H 0.01463 0.90685 0.33021 0.0
H1424 H -0.0018 0.9369 0.33825 0.0
H1425 H 0.97468 0.8362 0.40255 0.0
H1426 H 0.99293 0.84282 0.43254 0.0
H1427 H 0.01062 0.83463 0.40261 0.0
C1428 C 0.17844 0.02096 0.3293 0.0
C1429 C 0.18241 0.99863 0.31411 0.0
C1430 C 0.15838 0.02194 0.34874 0.0
C1431 C 0.14196 1.00002 0.35317 0.0
C1432 C 0.14531 0.97767 0.3374 0.0
C1433 C 0.16546 0.97727 0.31796 0.0
C1434 C 0.15519 0.04623 0.36497 0.0
C1435 C 0.12812 0.95394 0.34158 0.0
C1436 C 0.10966 0.99326 0.42077 0.0
C1437 C 0.08321 1.00129 0.41568 0.0
C1438 C 0.12895 0.99255 0.40052 0.0
C1439 C 0.12166 1.00033 0.3747 0.0
C1440 C 0.09509 0.0087 0.36951 0.0
C1441 C 0.07616 0.00898 0.39003 0.0
C1442 C 0.1571 0.98337 0.40673 0.0
C1443 C 0.08664 0.01743 0.3423 0.0
H1444 H 0.19137 0.0376 0.32637 0.0
H1445 H 0.16844 0.95993 0.30634 0.0
H1446 H 0.13409 0.0532 0.36396 0.0
H1447 H 0.15963 0.042 0.38598 0.0
H1448 H 0.16875 0.06199 0.35824 0.0
H1449 H 0.13265 0.93845 0.32707 0.0
H1450 H 0.13146 0.9462 0.36173 0.0
H1451 H 0.10648 0.95901 0.34002 0.0
H1452 H 0.11521 0.98713 0.44048 0.0
H1453 H 0.05583 0.01545 0.38594 0.0
H1454 H 0.17185 0.99888 0.40226 0.0
H1455 H 0.16227 0.96657 0.39412 0.0
H1456 H 0.15942 0.97765 0.42774 0.0
H1457 H 0.09944 0.03381 0.33577 0.0
H1458 H 0.06523 0.0236 0.34162 0.0
H1459 H 0.08959 1.00151 0.32793 0.0
C1460 C 0.02588 0.83146 0.67519 0.0
C1461 C 0.00204 0.82051 0.68502 0.0
C1462 C 0.0252 0.85086 0.65582 0.0
C1463 C 9e-05 0.85956 0.64606 0.0
C1464 C 0.97594 0.84885 0.65615 0.0
C1465 C 0.9772 0.82944 0.67549 0.0
C1466 C 0.05139 0.86184 0.64558 0.0
C1467 C 0.94877 0.85769 0.64628 0.0
C1468 C 0.99761 0.925 0.61214 0.0
C1469 C 0.99793 0.91806 0.58534 0.0
C1470 C -0.00182 0.90618 0.63207 0.0
C1471 C -0.00089 0.87972 0.62512 0.0
C1472 C -0.00067 0.87252 0.59818 0.0
C1473 C -0.00127 0.89175 0.57862 0.0
C1474 C 0.99788 0.91463 0.66059 0.0
C1475 C 0.00034 0.84448 0.58999 0.0
H1476 H 0.04516 0.82467 0.6824 0.0
H1477 H 0.95868 0.82109 0.68295 0.0
H1478 H 0.05307 0.85827 0.62406 0.0
H1479 H 0.05182 0.88308 0.64853 0.0
H1480 H 0.06922 0.85327 0.65551 0.0
H1481 H 0.93188 0.84775 0.65648 0.0
H1482 H 0.94658 0.87883 0.64922 0.0
H1483 H 0.9471 0.85396 0.62479 0.0
H1484 H 0.99698 0.94521 0.61768 0.0
H1485 H -0.00102 0.88607 0.55805 0.0
H1486 H 0.01626 0.90758 0.67073 0.0
H1487 H 0.98032 0.90601 0.6709 0.0
H1488 H 0.9969 0.93597 0.6627 0.0
H1489 H 0.0188 0.83528 0.59795 0.0
H1490 H 0.00019 0.84208 0.56821 0.0
H1491 H 0.98285 0.83394 0.59836 0.0
C1492 C 0.16426 0.03506 0.68176 0.0
C1493 C 0.1802 0.01385 0.689 0.0
C1494 C 0.14449 0.03274 0.66212 0.0
C1495 C 0.14044 0.00858 0.64963 0.0
C1496 C 0.15578 0.98689 0.65753 0.0
C1497 C 0.17553 0.98981 0.67706 0.0
C1498 C 0.1285 0.05631 0.65418 0.0
C1499 C 0.15178 0.96075 0.64489 0.0
C1500 C 0.07483 0.99792 0.61296 0.0
C1501 C 0.08255 1.00225 0.58665 0.0
C1502 C 0.09348 0.99973 0.63361 0.0
C1503 C 0.12055 0.00612 0.62789 0.0
C1504 C 0.12861 0.01027 0.60141 0.0
C1505 C 0.10953 0.00821 0.58109 0.0
C1506 C 0.08418 0.995 0.66158 0.0
C1507 C 0.15733 0.01718 0.59458 0.0
H1508 H 0.1678 0.05372 0.69082 0.0
H1509 H 0.18769 0.97329 0.68263 0.0
H1510 H 0.13259 0.06104 0.6332 0.0
H1511 H 0.10662 0.05234 0.65595 0.0
H1512 H 0.13346 0.07346 0.66642 0.0
H1513 H 0.16445 0.94557 0.65415 0.0
H1514 H 0.13036 0.95482 0.64638 0.0
H1515 H 0.15684 0.96183 0.6236 0.0
H1516 H 0.05409 0.99312 0.61754 0.0
H1517 H 0.1157 0.01171 0.56089 0.0
H1518 H 0.0874 0.01262 0.67363 0.0
H1519 H 0.09623 0.97929 0.67065 0.0
H1520 H 0.06254 0.98963 0.66263 0.0
H1521 H 0.16307 0.03543 0.6046 0.0
H1522 H 0.16038 0.01962 0.57301 0.0
H1523 H 0.17117 1.0019 0.60176 0.0
C1524 C 0.01804 0.17271 0.6752 0.0
C1525 C 0.99333 0.18174 0.68497 0.0
C1526 C 0.01906 0.15291 0.65628 0.0
C1527 C 0.99479 0.14187 0.64691 0.0
C1528 C 0.96982 0.15054 0.65706 0.0
C1529 C 0.96938 0.17036 0.67596 0.0
C1530 C 0.04609 0.14411 0.64598 0.0
C1531 C 0.94351 0.1392 0.64759 0.0
C1532 C 0.99516 0.10979 0.57946 0.0
C1533 C 0.99637 0.08347 0.5861 0.0
C1534 C 0.99468 0.12896 0.59905 0.0
C1535 C 0.99548 0.1217 0.62597 0.0
C1536 C 0.9968 0.09523 0.63286 0.0
C1537 C 0.9972 0.07645 0.61287 0.0
C1538 C 0.99323 0.157 0.59092 0.0
C1539 C 0.99775 0.08673 0.66135 0.0
H1540 H 0.03664 0.18137 0.68204 0.0
H1541 H 0.9502 0.1772 0.6834 0.0
H1542 H 0.04837 0.12297 0.64884 0.0
H1543 H 0.04742 0.1479 0.62448 0.0
H1544 H 0.06312 0.15406 0.65591 0.0
H1545 H 0.92586 0.14751 0.65804 0.0
H1546 H 0.94116 0.14279 0.62613 0.0
H1547 H 0.94348 0.11795 0.65051 0.0
H1548 H 0.9945 0.11553 0.55891 0.0
H1549 H -0.00182 0.05623 0.61834 0.0
H1550 H 0.01083 0.16767 0.59886 0.0
H1551 H 0.97489 0.16605 0.59934 0.0
H1552 H 0.99283 0.15944 0.56915 0.0
H1553 H 0.01547 0.09543 0.67128 0.0
H1554 H -0.00109 0.06539 0.6634 0.0
H1555 H 0.97955 0.09366 0.67189 0.0
C1556 C 0.83163 0.97249 0.68438 0.0
C1557 C 0.8137 0.99303 0.68846 0.0
C1558 C 0.8515 0.97386 0.66471 0.0
C1559 C 0.85354 0.99635 0.64892 0.0
C1560 C 0.83609 0.01747 0.65355 0.0
C1561 C 0.81636 0.01553 0.67323 0.0
C1562 C 0.86983 0.95098 0.66033 0.0
C1563 C 0.83785 0.04188 0.63729 0.0
C1564 C 0.91856 0.00827 0.61161 0.0
C1565 C 0.91173 1.00017 0.58604 0.0
C1566 C 0.89978 0.00725 0.63223 0.0
C1567 C 0.8736 0.99768 0.62722 0.0
C1568 C 0.86652 0.98954 0.60146 0.0
C1569 C 0.88564 0.99103 0.58111 0.0
C1570 C 0.90797 0.0164 0.65936 0.0
C1571 C 0.8388 0.97907 0.59545 0.0
H1572 H 0.82968 0.95502 0.69602 0.0
H1573 H 0.80265 0.03154 0.67634 0.0
H1574 H 0.86673 0.94316 0.64018 0.0
H1575 H 0.8912 0.95707 0.66174 0.0
H1576 H 0.8662 0.93525 0.67483 0.0
H1577 H 0.82354 0.05695 0.64414 0.0
H1578 H 0.85856 0.04988 0.63811 0.0
H1579 H 0.83343 0.03745 0.61632 0.0
H1580 H 0.93861 0.01559 0.61555 0.0
H1581 H 0.88029 0.98456 0.56146 0.0
H1582 H 0.90604 1.00034 0.67375 0.0
H1583 H 0.89435 0.03209 0.66601 0.0
H1584 H 0.92902 0.02366 0.65986 0.0
H1585 H 0.8346 0.962 0.60805 0.0
H1586 H 0.83659 0.97331 0.57445 0.0
H1587 H 0.82334 0.99384 0.6001 0.0
C1588 C 0.31691 0.03605 0.17047 0.0
C1589 C 0.30636 0.01387 0.18258 0.0
C1590 C 0.33728 0.03422 0.15136 0.0
C1591 C 0.34739 0.00961 0.14425 0.0
C1592 C 0.33653 0.98712 0.15607 0.0
C1593 C 0.3161 0.98951 0.17506 0.0
C1594 C 0.34825 0.05863 0.13903 0.0
C1595 C 0.34678 0.96055 0.14895 0.0
C1596 C 0.38416 0.00353 0.07894 0.0
C1597 C 0.41127 0.00438 0.08685 0.0
C1598 C 0.36321 0.00503 0.09742 0.0
C1599 C 0.36942 0.00744 0.12452 0.0
C1600 C 0.39666 0.00808 0.13274 0.0
C1601 C 0.41727 0.00654 0.11382 0.0
C1602 C 0.3344 0.00426 0.08789 0.0
C1603 C 0.40404 0.01063 0.16153 0.0
H1604 H 0.3095 0.05494 0.17615 0.0
H1605 H 0.30811 0.97228 0.18437 0.0
H1606 H 0.37006 0.06044 0.1434 0.0
H1607 H 0.3461 0.05777 0.11727 0.0
H1608 H 0.33784 0.07623 0.14634 0.0
H1609 H 0.33587 0.94497 0.15961 0.0
H1610 H 0.34465 0.95725 0.12743 0.0
H1611 H 0.36853 0.95908 0.1537 0.0
H1612 H 0.37917 1.00179 0.05821 0.0
H1613 H 0.43807 0.00724 0.12022 0.0
H1614 H 0.32391 0.02235 0.09356 0.0
H1615 H 0.32349 0.98805 0.09745 0.0
H1616 H 0.33297 1.00192 0.06615 0.0
H1617 H 0.39583 0.02895 0.16954 0.0
H1618 H 0.42617 0.01041 0.16472 0.0
H1619 H 0.3949 0.9946 0.173 0.0
C1620 C 0.01592 0.33783 0.17873 0.0
C1621 C 0.99233 0.32356 0.18324 0.0
C1622 C 0.01725 0.3563 0.1585 0.0
C1623 C 0.99436 0.36076 0.14252 0.0
C1624 C 0.97077 0.34585 0.1464 0.0
C1625 C 0.97007 0.32733 0.16665 0.0
C1626 C 0.04289 0.37158 0.15472 0.0
C1627 C 0.94597 0.35004 0.1297 0.0
C1628 C 0.98772 0.42676 0.11034 0.0
C1629 C 0.9955 0.4215 0.0843 0.0
C1630 C 0.98712 0.40712 0.12944 0.0
C1631 C 0.99476 0.38167 0.12239 0.0
C1632 C 0.0028 0.37626 0.09618 0.0
C1633 C 0.00301 0.39622 0.07744 0.0
C1634 C 0.97819 0.41359 0.15715 0.0
C1635 C 0.01148 0.34948 0.08798 0.0
H1636 H 0.03326 0.33494 0.19137 0.0
H1637 H 0.95175 0.31643 0.17001 0.0
H1638 H 0.04973 0.37024 0.13392 0.0
H1639 H 0.03909 0.39229 0.15895 0.0
H1640 H 0.05938 0.36474 0.16777 0.0
H1641 H 0.92961 0.33618 0.13455 0.0
H1642 H 0.93831 0.36996 0.13269 0.0
H1643 H 0.95107 0.34805 0.10849 0.0
H1644 H 0.98174 0.44619 0.11577 0.0
H1645 H 0.00935 0.39201 0.05744 0.0
H1646 H 0.99461 0.40922 0.17129 0.0
H1647 H 0.96066 0.40145 0.16271 0.0
H1648 H 0.9725 0.43424 0.15932 0.0
H1649 H 0.03039 0.34427 0.09832 0.0
H1650 H 0.01496 0.34801 0.06638 0.0
H1651 H 0.99603 0.33503 0.09372 0.0
C1652 C 0.67625 0.96784 0.17587 0.0
C1653 C 0.68952 0.99004 0.18502 0.0
C1654 C 0.65572 0.96956 0.15693 0.0
C1655 C 0.64832 0.99406 0.14685 0.0
C1656 C 0.66181 0.01651 0.15579 0.0
C1657 C 0.68224 0.01423 0.17478 0.0
C1658 C 0.64183 0.94518 0.14782 0.0
C1659 C 0.65456 0.04296 0.14539 0.0
C1660 C 0.61259 0.99663 0.08075 0.0
C1661 C 0.58557 0.99986 0.08831 0.0
C1662 C 0.63316 0.99475 0.09958 0.0
C1663 C 0.62666 0.99617 0.12671 0.0
C1664 C 0.59951 0.99952 0.13456 0.0
C1665 C 0.57928 1.00129 0.11528 0.0
C1666 C 0.66187 0.9911 0.09043 0.0
C1667 C 0.59183 1.00115 0.16334 0.0
H1668 H 0.68169 0.94908 0.18372 0.0
H1669 H 0.69236 0.03148 0.18176 0.0
H1670 H 0.61994 0.94641 0.15202 0.0
H1671 H 0.64413 0.94299 0.12616 0.0
H1672 H 0.64998 0.92763 0.15757 0.0
H1673 H 0.667 0.05849 0.15435 0.0
H1674 H 0.65726 0.04354 0.12367 0.0
H1675 H 0.63304 0.0471 0.14948 0.0
H1676 H 0.61781 0.99537 0.06003 0.0
H1677 H 0.55853 0.0038 0.1214 0.0
H1678 H 0.67014 0.97289 0.09863 0.0
H1679 H 0.67463 0.00713 0.09783 0.0
H1680 H 0.66356 0.99041 0.06858 0.0
H1681 H 0.59798 0.98321 0.17369 0.0
H1682 H 0.56984 0.00396 0.16618 0.0
H1683 H 0.60264 0.01743 0.17286 0.0
C1684 C 0.02824 0.68006 0.16985 0.0
C1685 C 0.00568 0.68517 0.18568 0.0
C1686 C 0.02709 0.6616 0.14958 0.0
C1687 C 0.00273 0.64813 0.14489 0.0
C1688 C 0.97964 0.65388 0.16017 0.0
C1689 C 0.98142 0.67225 0.18044 0.0
C1690 C 0.05216 0.65594 0.13372 0.0
C1691 C 0.95321 0.64015 0.15553 0.0
C1692 C 0.99376 0.61399 0.07918 0.0
C1693 C -0.00063 0.5882 0.08587 0.0
C1694 C 0.9947 0.63367 0.09818 0.0
C1695 C 0.00159 0.62749 0.12451 0.0
C1696 C 0.00728 0.60154 0.13143 0.0
C1697 C 0.00599 0.58219 0.11206 0.0
C1698 C 0.98826 0.66107 0.09009 0.0
C1699 C 0.01485 0.59422 0.1593 0.0
H1700 H 0.04708 0.6899 0.17381 0.0
H1701 H 0.96385 0.67617 0.1925 0.0
H1702 H 0.05837 0.63558 0.13689 0.0
H1703 H 0.04801 0.65827 0.11235 0.0
H1704 H 0.06922 0.66876 0.13917 0.0
H1705 H 0.93679 0.6478 0.1682 0.0
H1706 H 0.9471 0.64211 0.13457 0.0
H1707 H 0.95557 0.61922 0.15962 0.0
H1708 H 0.98843 0.61888 0.05905 0.0
H1709 H 0.0105 0.56239 0.11743 0.0
H1710 H 0.00578 0.67378 0.09408 0.0
H1711 H 0.97114 0.66849 0.10193 0.0
H1712 H 0.98301 0.66261 0.06884 0.0
H1713 H 0.03305 0.6051 0.16548 0.0
H1714 H 0.01895 0.57322 0.16141 0.0
H1715 H -0.00163 0.59956 0.17304 0.0
C1716 C 0.31962 0.02475 0.83032 0.0
C1717 C 0.30902 1.00114 0.82153 0.0
C1718 C 0.33995 0.02551 0.84954 0.0
C1719 C 0.3499 1.00212 0.86022 0.0
C1720 C 0.33905 0.97825 0.85169 0.0
C1721 C 0.31874 0.97804 0.83245 0.0
C1722 C 0.35097 0.05135 0.85823 0.0
C1723 C 0.34908 0.9529 0.86272 0.0
C1724 C 0.41926 1.00192 0.89194 0.0
C1725 C 0.4128 1.00299 0.91888 0.0
C1726 C 0.39899 1.0017 0.87262 0.0
C1727 C 0.37162 1.0026 0.88041 0.0
C1728 C 0.36494 0.00379 0.9075 0.0
C1729 C 0.38556 0.00397 0.92638 0.0
C1730 C 0.40686 1.00041 0.84387 0.0
C1731 C 0.33598 0.0048 0.91659 0.0
H1732 H 0.31226 0.04268 0.82197 0.0
H1733 H 0.31069 0.95971 0.82575 0.0
H1734 H 0.34842 0.05365 0.87984 0.0
H1735 H 0.37288 0.05234 0.85403 0.0
H1736 H 0.34089 0.06778 0.84817 0.0
H1737 H 0.33836 0.93602 0.85417 0.0
H1738 H 0.37093 0.9508 0.85868 0.0
H1739 H 0.34644 0.95256 0.88445 0.0
H1740 H 0.44017 1.00114 0.88585 0.0
H1741 H 0.3802 0.00486 0.94709 0.0
H1742 H 0.3986 0.01734 0.83316 0.0
H1743 H 0.39812 0.98285 0.8347 0.0
H1744 H 0.42905 1.00001 0.84107 0.0
H1745 H 0.32578 0.02186 0.90789 0.0
H1746 H 0.33418 0.00588 0.93841 0.0
H1747 H 0.32505 0.98739 0.90964 0.0
C1748 C 0.97979 0.34009 0.82075 0.0
C1749 C 0.00324 0.32537 0.81726 0.0
C1750 C 0.97802 0.35868 0.84082 0.0
C1751 C 0.00031 0.3628 0.85768 0.0
C1752 C 0.02378 0.34754 0.85471 0.0
C1753 C 0.02492 0.32891 0.83461 0.0
C1754 C 0.95251 0.37434 0.84359 0.0
C1755 C 0.04797 0.3514 0.87233 0.0
C1756 C 0.00659 0.42841 0.89076 0.0
C1757 C 0.99778 0.42294 0.91645 0.0
C1758 C 0.00763 0.40897 0.87147 0.0
C1759 C -0.00065 0.38355 0.87796 0.0
C1760 C 0.99018 0.37797 0.90377 0.0
C1761 C 0.98959 0.3977 0.92272 0.0
C1762 C 0.01779 0.41561 0.84421 0.0
C1763 C 0.98079 0.35121 0.91134 0.0
H1764 H 0.9629 0.3374 0.8075 0.0
H1765 H 0.04314 0.31767 0.83201 0.0
H1766 H 0.9447 0.37293 0.86405 0.0
H1767 H 0.95688 0.39502 0.83972 0.0
H1768 H 0.93651 0.36789 0.82977 0.0
H1769 H 0.06438 0.33746 0.86796 0.0
H1770 H 0.05592 0.37129 0.86982 0.0
H1771 H 0.04205 0.34924 0.89333 0.0
H1772 H 0.01312 0.44781 0.88581 0.0
H1773 H 0.98247 0.39335 0.94245 0.0
H1774 H 0.00194 0.41152 0.82937 0.0
H1775 H 0.03541 0.40336 0.83925 0.0
H1776 H 0.02379 0.43622 0.84245 0.0
H1777 H 0.96249 0.34617 0.89991 0.0
H1778 H 0.97602 0.34965 0.9327 0.0
H1779 H 0.99644 0.33669 0.90642 0.0
C1780 C 0.68107 0.98377 0.83191 0.0
C1781 C 0.69132 0.00765 0.82346 0.0
C1782 C 0.66091 0.98242 0.85128 0.0
C1783 C 0.6508 0.00551 0.86249 0.0
C1784 C 0.66145 0.02964 0.85447 0.0
C1785 C 0.68157 0.03042 0.83503 0.0
C1786 C 0.65008 0.95633 0.85941 0.0
C1787 C 0.65127 0.05467 0.8661 0.0
C1788 C 0.58104 0.00473 0.89331 0.0
C1789 C 0.58711 1.00316 0.92031 0.0
C1790 C 0.60158 0.0054 0.87427 0.0
C1791 C 0.62884 0.00446 0.8824 0.0
C1792 C 0.63513 1.00271 0.90954 0.0
C1793 C 0.61423 1.00209 0.92815 0.0
C1794 C 0.59412 0.00728 0.84546 0.0
C1795 C 0.66396 1.00163 0.91896 0.0
H1796 H 0.68846 0.96608 0.82305 0.0
H1797 H 0.68938 0.04896 0.82863 0.0
H1798 H 0.65225 0.95371 0.88102 0.0
H1799 H 0.62827 0.95515 0.85481 0.0
H1800 H 0.66056 0.94018 0.84926 0.0
H1801 H 0.66214 0.07177 0.8582 0.0
H1802 H 0.62949 0.0569 0.86178 0.0
H1803 H 0.65352 0.05438 0.88787 0.0
H1804 H 0.56023 0.00559 0.88697 0.0
H1805 H 0.61927 1.0008 0.9489 0.0
H1806 H 0.60268 0.99065 0.83448 0.0
H1807 H 0.60285 0.0251 0.83679 0.0
H1808 H 0.57197 0.00757 0.84237 0.0
H1809 H 0.67439 0.98485 0.90997 0.0
H1810 H 0.66545 1.00002 0.94077 0.0
H1811 H 0.67488 0.01927 0.91258 0.0
C1812 C 0.01346 0.67588 0.82523 0.0
C1813 C 0.98878 0.68737 0.81863 0.0
C1814 C 0.01518 0.65753 0.84554 0.0
C1815 C 0.99163 0.65033 0.85945 0.0
C1816 C 0.9668 0.66243 0.85346 0.0
C1817 C 0.9657 0.68091 0.8332 0.0
C1818 C 0.04209 0.64529 0.8516 0.0
C1819 C 0.94124 0.65521 0.86784 0.0
C1820 C 0.99028 0.58379 0.89115 0.0
C1821 C 0.99509 0.58967 0.91776 0.0
C1822 C 0.98901 0.60337 0.87201 0.0
C1823 C 0.99278 0.62945 0.8796 0.0
C1824 C 0.99777 0.63554 0.90636 0.0
C1825 C -0.0012 0.61561 0.92511 0.0
C1826 C 0.98354 0.59613 0.84365 0.0
C1827 C 0.00205 0.66311 0.91518 0.0
H1828 H 0.03141 0.68086 0.81416 0.0
H1829 H 0.94653 0.68964 0.82819 0.0
H1830 H 0.04676 0.64723 0.87291 0.0
H1831 H 0.04131 0.62433 0.84708 0.0
H1832 H 0.05875 0.65411 0.84005 0.0
H1833 H 0.92383 0.66725 0.86167 0.0
H1834 H 0.93634 0.63463 0.864 0.0
H1835 H 0.94404 0.65733 0.88944 0.0
H1836 H 0.98725 0.56388 0.88523 0.0
H1837 H 0.00265 0.62045 0.94556 0.0
H1838 H 0.00047 0.60259 0.83096 0.0
H1839 H 0.96513 0.6061 0.83659 0.0
H1840 H 0.98081 0.57498 0.84103 0.0
H1841 H 0.01944 0.67164 0.90453 0.0
H1842 H 0.00582 0.66459 0.93673 0.0
H1843 H 0.98411 0.67492 0.91026 0.0
C1844 C 0.16525 0.32406 0.01214 0.0
C1845 C 0.18017 0.32551 0.03559 0.0
C1846 C 0.14542 0.34252 0.00628 0.0
C1847 C 0.1402 0.36269 0.02444 0.0
C1848 C 0.15463 0.36381 0.04848 0.0
C1849 C 0.17452 0.34528 0.0537 0.0
C1850 C 0.13049 0.34079 0.9804 0.0
C1851 C 0.14935 0.38482 0.06851 0.0
C1852 C 0.1084 0.4253 1.00071 0.0
C1853 C 0.08142 0.42171 0.008 0.0
C1854 C 0.12767 0.406 0.00548 0.0
C1855 C 0.11982 0.38281 0.01822 0.0
C1856 C 0.09262 0.3791 0.0256 0.0
C1857 C 0.07373 0.3985 0.02022 0.0
C1858 C 0.15647 0.41051 0.99708 0.0
C1859 C 0.08356 0.35487 0.03968 0.0
H1860 H 0.16959 0.30893 0.998 0.0
H1861 H 0.1859 0.34647 0.07191 0.0
H1862 H 0.10848 0.33975 0.98401 0.0
H1863 H 0.1343 0.35846 0.96855 0.0
H1864 H 0.13661 0.32368 0.96861 0.0
H1865 H 0.16158 0.38238 0.08669 0.0
H1866 H 0.15401 0.40398 0.0598 0.0
H1867 H 0.12773 0.38497 0.07408 0.0
H1868 H 0.11444 0.44315 0.9912 0.0
H1869 H 0.05299 0.3957 0.02626 0.0
H1870 H 0.16329 0.39458 0.98405 0.0
H1871 H 0.16979 0.41055 0.01464 0.0
H1872 H 0.15907 0.42912 0.98644 0.0
H1873 H 0.08884 0.33756 0.02786 0.0
H1874 H 0.06152 0.35471 0.04343 0.0
H1875 H 0.09417 0.35318 0.05886 0.0
C1876 C 0.16514 0.68273 0.96818 0.0
C1877 C 0.18319 0.68694 0.98903 0.0
C1878 C 0.14484 0.66392 0.97013 0.0
C1879 C 0.14246 0.64912 0.99352 0.0
C1880 C 0.16003 0.65389 0.01494 0.0
C1881 C 0.18021 0.6727 0.01241 0.0
C1882 C 0.12644 0.65935 0.94688 0.0
C1883 C 0.15792 0.6387 0.04031 0.0
C1884 C 0.07677 0.61384 0.0066 0.0
C1885 C 0.08321 0.58848 0.99906 0.0
C1886 C 0.09587 0.63374 0.00501 0.0
C1887 C 0.122 0.62822 0.99541 0.0
C1888 C 0.12867 0.60268 0.98779 0.0
C1889 C 0.10923 0.58307 0.98984 0.0
C1890 C 0.08809 0.66067 0.01358 0.0
C1891 C 0.15629 0.5961 0.97728 0.0
H1892 H 0.16734 0.6936 0.95003 0.0
H1893 H 0.194 0.6759 0.02865 0.0
H1894 H 0.12922 0.63938 0.9394 0.0
H1895 H 0.10509 0.66121 0.95305 0.0
H1896 H 0.13031 0.6731 0.93046 0.0
H1897 H 0.17231 0.6456 0.05553 0.0
H1898 H 0.1372 0.64006 0.04839 0.0
H1899 H 0.16199 0.61798 0.03638 0.0
H1900 H 0.05676 0.61818 0.01393 0.0
H1901 H 0.11432 0.5636 0.98376 0.0
H1902 H 0.09037 0.6743 0.99683 0.0
H1903 H 0.10174 0.66736 0.0295 0.0
H1904 H 0.06701 0.66168 0.02086 0.0
H1905 H 0.16076 0.608 0.95959 0.0
H1906 H 0.15814 0.57538 0.97186 0.0
H1907 H 0.17181 0.6007 0.9923 0.0
C1908 C 0.32072 0.17477 0.01783 0.0
C1909 C 0.31165 0.18327 0.99309 0.0
C1910 C 0.3402 0.15522 0.01994 0.0
C1911 C 0.35084 0.14387 0.99677 0.0
C1912 C 0.34144 0.15204 0.97176 0.0
C1913 C 0.32197 0.17164 0.97022 0.0
C1914 C 0.34971 0.14699 0.04696 0.0
C1915 C 0.35224 0.14032 0.9466 0.0
C1916 C 0.41961 0.11183 1.00001 0.0
C1917 C 0.41275 0.08553 0.00136 0.0
C1918 C 0.39967 0.131 0.99864 0.0
C1919 C 0.37217 0.12376 0.99864 0.0
C1920 C 0.36506 0.09733 1.00017 0.0
C1921 C 0.3854 0.07855 0.0015 0.0
C1922 C 0.40804 0.15901 0.99703 0.0
C1923 C 0.33595 0.08885 1.00025 0.0
H1924 H 0.31287 0.18364 0.0356 0.0
H1925 H 0.31508 0.17807 0.95102 0.0
H1926 H 0.34669 0.1259 0.04957 0.0
H1927 H 0.3716 0.1508 0.04894 0.0
H1928 H 0.33896 0.15728 0.06305 0.0
H1929 H 0.34235 0.14837 0.92874 0.0
H1930 H 0.37422 0.14387 0.94513 0.0
H1931 H 0.34923 0.11908 0.9468 0.0
H1932 H 0.44061 0.11753 0.99987 0.0
H1933 H 0.37975 0.05835 0.00257 0.0
H1934 H 0.39913 0.17 0.01367 0.0
H1935 H 0.4003 0.16772 0.97852 0.0
H1936 H 0.43026 0.16146 0.99755 0.0
H1937 H 0.32512 0.09797 0.01697 0.0
H1938 H 0.33378 0.06754 0.00187 0.0
H1939 H 0.32593 0.09533 0.98184 0.0
C1940 C 0.82786 0.32477 0.9898 0.0
C1941 C 0.81145 0.32696 0.9674 0.0
C1942 C 0.84768 0.34336 0.99532 0.0
C1943 C 0.85137 0.36442 0.97785 0.0
C1944 C 0.83533 0.36638 0.95487 0.0
C1945 C 0.81547 0.3477 0.95 0.0
C1946 C 0.86432 0.34074 0.0201 0.0
C1947 C 0.83895 0.38835 0.93555 0.0
C1948 C 0.88448 0.42622 0.00222 0.0
C1949 C 0.91094 0.42304 0.99319 0.0
C1950 C 0.86496 0.40704 0.9978 0.0
C1951 C 0.87201 0.38447 0.98355 0.0
C1952 C 0.89867 0.38127 0.97427 0.0
C1953 C 0.91785 0.40048 0.97941 0.0
C1954 C 0.83679 0.41095 0.00828 0.0
C1955 C 0.90684 0.35777 0.95852 0.0
H1956 H 0.82476 0.30888 0.00341 0.0
H1957 H 0.80293 0.34948 0.9326 0.0
H1958 H 0.88604 0.33996 0.01503 0.0
H1959 H 0.86129 0.35793 0.03284 0.0
H1960 H 0.85905 0.32316 0.03158 0.0
H1961 H 0.82541 0.38662 0.9182 0.0
H1962 H 0.83483 0.40704 0.94548 0.0
H1963 H 0.86009 0.38897 0.92847 0.0
H1964 H 0.87908 0.44358 0.01294 0.0
H1965 H 0.9382 0.39806 0.97205 0.0
H1966 H 0.83101 0.39446 0.02109 0.0
H1967 H 0.82227 0.41155 0.99168 0.0
H1968 H 0.83484 0.42911 0.01981 0.0
H1969 H 0.90316 0.33998 0.97018 0.0
H1970 H 0.9284 0.35828 0.9527 0.0
H1971 H 0.89441 0.3564 0.94039 0.0
C1972 C 0.67569 0.82997 0.02547 0.0
C1973 C 0.68677 0.82196 0.00135 0.0
C1974 C 0.6562 0.84959 0.02646 0.0
C1975 C 0.64761 0.86151 0.00278 0.0
C1976 C 0.65905 0.85385 0.97842 0.0
C1977 C 0.67848 0.83415 0.978 0.0
C1978 C 0.64447 0.85729 0.05281 0.0
C1979 C 0.65048 0.86618 0.95276 0.0
C1980 C 0.57887 0.89373 0.00134 0.0
C1981 C 0.58564 0.91996 0.00382 0.0
C1982 C 0.59882 0.87453 1.00107 0.0
C1983 C 0.62625 0.88167 0.00339 0.0
C1984 C 0.63325 0.90804 0.00607 0.0
C1985 C 0.6129 0.92685 0.00623 0.0
C1986 C 0.59056 0.84658 0.99816 0.0
C1987 C 0.66227 0.9164 0.00868 0.0
H1988 H 0.68196 0.82065 0.0436 0.0
H1989 H 0.68694 0.82811 0.95928 0.0
H1990 H 0.64729 0.87831 0.0561 0.0
H1991 H 0.62248 0.85349 0.05298 0.0
H1992 H 0.65383 0.84662 0.06948 0.0
H1993 H 0.66182 0.85848 0.93558 0.0
H1994 H 0.62868 0.86276 0.94945 0.0
H1995 H 0.65352 0.8874 0.95369 0.0
H1996 H 0.55793 0.8881 0.99943 0.0
H1997 H 0.61847 0.94699 0.00828 0.0
H1998 H 0.59796 0.83521 0.01523 0.0
H1999 H 0.59987 0.83825 0.98017 0.0
H2000 H 0.56837 0.84421 0.9968 0.0
H2001 H 0.67163 0.90686 0.026 0.0
H2002 H 0.66433 0.93766 0.01098 0.0
H2003 H 0.6738 0.91032 0.99099 0.0
C2004 C 0.81919 0.67806 0.99076 0.0
C2005 C 0.81338 0.68939 0.01525 0.0
C2006 C 0.8392 0.6591 0.98833 0.0
C2007 C 0.85364 0.65114 0.01098 0.0
C2008 C 0.84841 0.66299 0.03563 0.0
C2009 C 0.82841 0.68207 0.03745 0.0
C2010 C 0.84445 0.64714 0.96164 0.0
C2011 C 0.8634 0.65496 0.06022 0.0
C2012 C 0.88494 0.58416 0.01014 0.0
C2013 C 0.91205 0.58981 0.00486 0.0
C2014 C 0.86574 0.60395 0.01228 0.0
C2015 C 0.8738 0.63 0.00894 0.0
C2016 C 0.90105 0.63585 0.00348 0.0
C2017 C 0.91983 0.61572 0.00155 0.0
C2018 C 0.83682 0.59699 0.01824 0.0
C2019 C 0.91039 0.66339 0.99966 0.0
H2020 H 0.80774 0.68369 0.97348 0.0
H2021 H 0.82399 0.69067 0.05646 0.0
H2022 H 0.8661 0.64887 0.95649 0.0
H2023 H 0.83956 0.62622 0.96224 0.0
H2024 H 0.83235 0.65631 0.94577 0.0
H2025 H 0.85762 0.66669 0.07768 0.0
H2026 H 0.85923 0.63433 0.06459 0.0
H2027 H 0.88543 0.65684 0.0571 0.0
H2028 H 0.87869 0.56427 0.01288 0.0
H2029 H 0.94068 0.6204 0.99736 0.0
H2030 H 0.82356 0.60394 0.00213 0.0
H2031 H 0.83022 0.6067 0.03665 0.0
H2032 H 0.83388 0.57583 0.02055 0.0
H2033 H 0.89921 0.67243 0.98312 0.0
H2034 H 0.9323 0.66466 0.9954 0.0
H2035 H 0.90603 0.67488 0.01763 0.0
C2036 C 0.32185 0.83117 0.97912 0.0
C2037 C 0.31074 0.82247 0.00299 0.0
C2038 C 0.34145 0.85074 0.97871 0.0
C2039 C 0.35012 0.86191 0.00274 0.0
C2040 C 0.33866 0.85355 0.02685 0.0
C2041 C 0.31912 0.83393 0.02669 0.0
C2042 C 0.35317 0.85919 0.95259 0.0
C2043 C 0.34734 0.86506 0.05287 0.0
C2044 C 0.41899 0.89393 0.00479 0.0
C2045 C 0.41231 0.92023 0.003 0.0
C2046 C 0.39896 0.87477 0.00469 0.0
C2047 C 0.37155 0.88203 0.0027 0.0
C2048 C 0.36463 0.90848 1.0008 0.0
C2049 C 0.38505 0.92724 1.00099 0.0
C2050 C 0.40714 0.84674 0.00678 0.0
C2051 C 0.33563 0.91698 0.99859 0.0
H2052 H 0.31552 0.82242 0.96071 0.0
H2053 H 0.31065 0.82735 0.04523 0.0
H2054 H 0.3504 0.8803 0.94994 0.0
H2055 H 0.37515 0.85537 0.95229 0.0
H2056 H 0.34377 0.84904 0.93562 0.0
H2057 H 0.336 0.85687 0.06983 0.0
H2058 H 0.36913 0.86149 0.05603 0.0
H2059 H 0.34438 0.8863 0.05262 0.0
H2060 H 0.43992 0.8882 0.00636 0.0
H2061 H 0.37955 0.94745 0.99952 0.0
H2062 H 0.39974 0.8359 0.98935 0.0
H2063 H 0.39777 0.83789 0.02449 0.0
H2064 H 0.42932 0.8443 0.00811 0.0
H2065 H 0.32621 0.90809 0.98094 0.0
H2066 H 0.33361 0.93831 0.9971 0.0
H2067 H 0.32411 0.91025 0.01605 0.0
C2068 C 0.6769 0.17204 0.03528 0.0
C2069 C 0.68653 0.18389 0.01223 0.0
C2070 C 0.65766 0.15218 0.03411 0.0
C2071 C 0.64776 0.14401 0.00929 0.0
C2072 C 0.65772 0.15557 0.98593 0.0
C2073 C 0.67701 0.17535 0.98767 0.0
C2074 C 0.64759 0.14024 0.05947 0.0
C2075 C 0.64765 0.14736 0.9591 0.0
C2076 C 0.61331 0.07853 0.00497 0.0
C2077 C 0.58595 0.08541 0.00571 0.0
C2078 C 0.63363 0.09738 0.006 0.0
C2079 C 0.62648 0.12378 0.00783 0.0
C2080 C 0.59897 0.13091 0.00848 0.0
C2081 C 0.57906 0.11167 0.0074 0.0
C2082 C 0.66276 0.08903 0.00522 0.0
C2083 C 0.59054 0.15888 0.01044 0.0
H2084 H 0.68415 0.17848 0.05434 0.0
H2085 H 0.68432 0.1844 0.96975 0.0
H2086 H 0.62564 0.14368 0.06152 0.0
H2087 H 0.65067 0.11902 0.05906 0.0
H2088 H 0.65792 0.14823 0.07711 0.0
H2089 H 0.65801 0.15774 0.9428 0.0
H2090 H 0.65069 0.12629 0.95638 0.0
H2091 H 0.62571 0.15108 0.95759 0.0
H2092 H 0.61898 0.05836 0.00361 0.0
H2093 H 0.55805 0.1173 0.00801 0.0
H2094 H 0.6732 0.09552 0.02339 0.0
H2095 H 0.67313 0.09824 0.98826 0.0
H2096 H 0.66496 0.06774 0.00351 0.0
H2097 H 0.59874 0.16752 0.02878 0.0
H2098 H 0.5683 0.16122 0.01051 0.0
H2099 H 0.59895 0.16998 0.99362 0.0
C2100 C 0.48033 0.67328 0.82502 0.0
C2101 C 0.50524 0.68382 0.81756 0.0
C2102 C 0.47877 0.65343 0.84388 0.0
C2103 C 0.50266 0.64398 0.85564 0.0
C2104 C 0.52789 0.65424 0.84788 0.0
C2105 C 0.52888 0.67398 0.8289 0.0
C2106 C 0.4515 0.64286 0.85152 0.0
C2107 C 0.55382 0.64468 0.86 0.0
C2108 C 0.49777 0.61182 0.9229 0.0
C2109 C 0.49908 0.5855 0.91631 0.0
C2110 C 0.49881 0.63101 0.90335 0.0
C2111 C 0.50125 0.62378 0.87652 0.0
C2112 C 0.50253 0.59731 0.86968 0.0
C2113 C 0.50142 0.5785 0.88962 0.0
C2114 C 0.49741 0.65907 0.91143 0.0
C2115 C 0.50518 0.58883 0.84129 0.0
H2116 H 0.46197 0.68072 0.81634 0.0
H2117 H 0.54822 0.68203 0.82329 0.0
H2118 H 0.45101 0.62163 0.84855 0.0
H2119 H 0.44771 0.6465 0.87277 0.0
H2120 H 0.43492 0.6517 0.83991 0.0
H2121 H 0.57183 0.65417 0.85132 0.0
H2122 H 0.55367 0.64839 0.88156 0.0
H2123 H 0.55568 0.62349 0.85724 0.0
H2124 H 0.49593 0.61753 0.94339 0.0
H2125 H 0.50256 0.55828 0.8842 0.0
H2126 H 0.48001 0.66856 0.90172 0.0
H2127 H 0.51585 0.66933 0.90483 0.0
H2128 H 0.49538 0.66148 0.93312 0.0
H2129 H 0.48799 0.59631 0.82959 0.0
H2130 H 0.50581 0.56746 0.83925 0.0
H2131 H 0.52383 0.597 0.83257 0.0
C2132 C 0.33047 0.53434 0.82016 0.0
C2133 C 0.31284 0.51367 0.81542 0.0
C2134 C 0.35042 0.53262 0.8397 0.0
C2135 C 0.35286 0.50964 0.85468 0.0
C2136 C 0.33568 0.48845 0.84942 0.0
C2137 C 0.31586 0.49074 0.82989 0.0
C2138 C 0.36843 0.55561 0.84477 0.0
C2139 C 0.33787 0.46354 0.86482 0.0
C2140 C 0.41831 0.49724 0.89099 0.0
C2141 C 0.41162 0.50442 0.91689 0.0
C2142 C 0.39936 0.49876 0.87058 0.0
C2143 C 0.37312 0.50785 0.87614 0.0
C2144 C 0.36615 0.51502 0.90224 0.0
C2145 C 0.38546 0.51309 0.92235 0.0
C2146 C 0.40745 0.49068 0.84306 0.0
C2147 C 0.33836 0.52493 0.90886 0.0
H2148 H 0.32822 0.55215 0.80911 0.0
H2149 H 0.30239 0.47464 0.82629 0.0
H2150 H 0.36539 0.56265 0.86523 0.0
H2151 H 0.38988 0.54989 0.84293 0.0
H2152 H 0.36445 0.57179 0.83091 0.0
H2153 H 0.32365 0.44854 0.85761 0.0
H2154 H 0.35866 0.45581 0.8635 0.0
H2155 H 0.33363 0.46723 0.88598 0.0
H2156 H 0.43841 0.4903 0.8866 0.0
H2157 H 0.38019 0.51885 0.94226 0.0
H2158 H 0.40519 0.5072 0.82929 0.0
H2159 H 0.39398 0.47505 0.83596 0.0
H2160 H 0.42858 0.48371 0.84211 0.0
H2161 H 0.33385 0.54237 0.89692 0.0
H2162 H 0.33624 0.52993 0.93008 0.0
H2163 H 0.32304 0.51013 0.90382 0.0
C2164 C 0.46707 0.33199 0.82843 0.0
C2165 C 0.49087 0.32152 0.81801 0.0
C2166 C 0.46784 0.35176 0.84739 0.0
C2167 C 0.49302 0.36134 0.85612 0.0
C2168 C 0.5171 0.3512 0.84534 0.0
C2169 C 0.51574 0.33139 0.82644 0.0
C2170 C 0.44172 0.3621 0.85841 0.0
C2171 C 0.54433 0.36099 0.85407 0.0
C2172 C 0.49495 0.42695 0.88978 0.0
C2173 C 0.49596 0.42004 0.91658 0.0
C2174 C 0.49405 0.40807 0.86991 0.0
C2175 C 0.49415 0.38161 0.87693 0.0
C2176 C 0.49521 0.37446 0.90388 0.0
C2177 C 0.49611 0.39373 0.92335 0.0
C2178 C 0.49294 0.41646 0.84139 0.0
C2179 C 0.49533 0.34642 0.91216 0.0
H2180 H 0.44776 0.32448 0.82207 0.0
H2181 H 0.53423 0.32344 0.8185 0.0
H2182 H 0.44083 0.3585 0.87998 0.0
H2183 H 0.44063 0.38331 0.85546 0.0
H2184 H 0.42382 0.35306 0.84906 0.0
H2185 H 0.56113 0.35159 0.84323 0.0
H2186 H 0.54565 0.38218 0.85101 0.0
H2187 H 0.54703 0.35736 0.87548 0.0
H2188 H 0.49479 0.44716 0.88421 0.0
H2189 H 0.49689 0.38807 0.94392 0.0
H2190 H 0.47443 0.40879 0.83196 0.0
H2191 H 0.51037 0.4084 0.83046 0.0
H2192 H 0.49309 0.43782 0.83921 0.0
H2193 H 0.47688 0.33667 0.90484 0.0
H2194 H 0.4963 0.34407 0.93392 0.0
H2195 H 0.51283 0.33636 0.90323 0.0
C2196 C 0.6761 0.52345 0.82688 0.0
C2197 C 0.67964 0.50114 0.81156 0.0
C2198 C 0.65628 0.52456 0.84654 0.0
C2199 C 0.63967 0.50279 0.85105 0.0
C2200 C 0.64247 0.48054 0.83505 0.0
C2201 C 0.6624 0.48 0.8154 0.0
C2202 C 0.65366 0.54875 0.86301 0.0
C2203 C 0.62501 0.45698 0.83926 0.0
C2204 C 0.60882 0.49533 0.9192 0.0
C2205 C 0.58233 0.50356 0.91477 0.0
C2206 C 0.62768 0.49485 0.89856 0.0
C2207 C 0.61988 0.50307 0.87301 0.0
C2208 C 0.59328 0.51172 0.86851 0.0
C2209 C 0.5748 0.51175 0.88941 0.0
C2210 C 0.65589 0.48539 0.90404 0.0
C2211 C 0.58431 0.52092 0.84163 0.0
H2212 H 0.68926 0.53993 0.82394 0.0
H2213 H 0.66503 0.46268 0.80367 0.0
H2214 H 0.63259 0.55584 0.86262 0.0
H2215 H 0.65866 0.54435 0.88387 0.0
H2216 H 0.66714 0.56448 0.85605 0.0
H2217 H 0.62895 0.44166 0.82442 0.0
H2218 H 0.62874 0.44891 0.85921 0.0
H2219 H 0.60342 0.46237 0.8383 0.0
H2220 H 0.61473 0.48883 0.93868 0.0
H2221 H 0.55442 0.51841 0.88585 0.0
H2222 H 0.67066 0.50082 0.89937 0.0
H2223 H 0.66059 0.46866 0.89115 0.0
H2224 H 0.65866 0.47946 0.92493 0.0
H2225 H 0.59726 0.53714 0.83496 0.0
H2226 H 0.56301 0.52748 0.84155 0.0
H2227 H 0.58657 0.50512 0.82701 0.0
C2228 C 0.48437 0.33319 0.17859 0.0
C2229 C 0.50942 0.32257 0.1854 0.0
C2230 C 0.48238 0.35283 0.15956 0.0
C2231 C 0.50597 0.362 0.14695 0.0
C2232 C 0.53134 0.35161 0.15399 0.0
C2233 C 0.53276 0.33207 0.17316 0.0
C2234 C 0.45498 0.36355 0.15269 0.0
C2235 C 0.55696 0.36087 0.14096 0.0
C2236 C 0.49924 0.39406 0.07978 0.0
C2237 C 0.501 0.42038 0.08626 0.0
C2238 C 0.50073 0.37489 0.09934 0.0
C2239 C 0.50409 0.38216 0.12606 0.0
C2240 C 0.50583 0.40864 0.13279 0.0
C2241 C 0.50425 0.42741 0.11285 0.0
C2242 C 0.49881 0.34683 0.09138 0.0
C2243 C 0.50947 0.41716 0.16106 0.0
H2244 H 0.46623 0.326 0.18796 0.0
H2245 H 0.5522 0.32396 0.17826 0.0
H2246 H 0.45474 0.38479 0.15566 0.0
H2247 H 0.45056 0.35993 0.13156 0.0
H2248 H 0.43867 0.35482 0.16478 0.0
H2249 H 0.57514 0.3512 0.14904 0.0
H2250 H 0.55602 0.35713 0.11942 0.0
H2251 H 0.55918 0.38204 0.14361 0.0
H2252 H 0.49668 0.38832 0.05937 0.0
H2253 H 0.50575 0.44763 0.11818 0.0
H2254 H 0.48166 0.33748 0.10169 0.0
H2255 H 0.51736 0.33645 0.09738 0.0
H2256 H 0.49603 0.3444 0.06977 0.0
H2257 H 0.49259 0.40985 0.17331 0.0
H2258 H 0.51039 0.43853 0.16302 0.0
H2259 H 0.52831 0.40885 0.1692 0.0
C2260 C 0.67979 0.4865 0.17244 0.0
C2261 C 0.68251 0.50875 0.18802 0.0
C2262 C 0.66012 0.48496 0.15269 0.0
C2263 C 0.64278 0.50621 0.14836 0.0
C2264 C 0.64491 0.52848 0.16445 0.0
C2265 C 0.66473 0.52946 0.18417 0.0
C2266 C 0.65825 0.46078 0.13609 0.0
C2267 C 0.6267 0.5515 0.1604 0.0
C2268 C 0.61038 0.51245 0.08079 0.0
C2269 C 0.5843 0.5033 0.08577 0.0
C2270 C 0.6296 0.51365 0.10105 0.0
C2271 C 0.62262 0.50522 0.12676 0.0
C2272 C 0.59644 0.49563 0.1318 0.0
C2273 C 0.57757 0.4949 0.11128 0.0
C2274 C 0.65731 0.52413 0.095 0.0
C2275 C 0.58835 0.48617 0.15887 0.0
H2276 H 0.69339 0.47037 0.17533 0.0
H2277 H 0.66674 0.54674 0.19608 0.0
H2278 H 0.63754 0.45278 0.13695 0.0
H2279 H 0.66253 0.46551 0.11515 0.0
H2280 H 0.6726 0.44561 0.14262 0.0
H2281 H 0.6305 0.56707 0.17501 0.0
H2282 H 0.62972 0.55949 0.1403 0.0
H2283 H 0.6053 0.5455 0.16191 0.0
H2284 H 0.61564 0.51914 0.06118 0.0
H2285 H 0.55752 0.48756 0.11525 0.0
H2286 H 0.67276 0.50925 0.09935 0.0
H2287 H 0.66164 0.54101 0.10781 0.0
H2288 H 0.65943 0.53017 0.07407 0.0
H2289 H 0.602 0.47042 0.16529 0.0
H2290 H 0.5673 0.47887 0.15938 0.0
H2291 H 0.5903 0.50207 0.17341 0.0
C2292 C 0.51971 0.67439 0.17587 0.0
C2293 C 0.49499 0.68324 0.18578 0.0
C2294 C 0.52076 0.65491 0.15661 0.0
C2295 C 0.49651 0.64403 0.147 0.0
C2296 C 0.47152 0.65261 0.15719 0.0
C2297 C 0.47106 0.6721 0.17645 0.0
C2298 C 0.54781 0.6462 0.14628 0.0
C2299 C 0.44523 0.64144 0.14747 0.0
C2300 C 0.49697 0.61199 0.0795 0.0
C2301 C 0.49809 0.58566 0.08614 0.0
C2302 C 0.49652 0.63116 0.0991 0.0
C2303 C 0.49725 0.6239 0.12603 0.0
C2304 C 0.49849 0.59743 0.1329 0.0
C2305 C 0.49888 0.57865 0.11292 0.0
C2306 C 0.49517 0.65921 0.09098 0.0
C2307 C 0.49932 0.58891 0.1614 0.0
H2308 H 0.53831 0.68288 0.18295 0.0
H2309 H 0.45186 0.67881 0.18398 0.0
H2310 H 0.55015 0.62507 0.14915 0.0
H2311 H 0.54912 0.64998 0.12477 0.0
H2312 H 0.56482 0.65619 0.15621 0.0
H2313 H 0.42753 0.64986 0.15776 0.0
H2314 H 0.44309 0.64504 0.12599 0.0
H2315 H 0.44503 0.6202 0.1504 0.0
H2316 H 0.49634 0.61772 0.05895 0.0
H2317 H 0.49977 0.55843 0.1184 0.0
H2318 H 0.51275 0.66984 0.09901 0.0
H2319 H 0.4768 0.66828 0.09933 0.0
H2320 H 0.49486 0.66166 0.06921 0.0
H2321 H 0.51701 0.59759 0.1714 0.0
H2322 H 0.50046 0.56757 0.16345 0.0
H2323 H 0.48108 0.59584 0.17187 0.0
C2324 C 0.31942 0.51275 0.17678 0.0
C2325 C 0.31574 0.48901 0.18968 0.0
C2326 C 0.33946 0.51585 0.15756 0.0
C2327 C 0.35617 0.49467 0.15102 0.0
C2328 C 0.35329 0.47095 0.16467 0.0
C2329 C 0.33313 0.46842 0.18393 0.0
C2330 C 0.34215 0.54153 0.14363 0.0
C2331 C 0.37084 0.44797 0.15825 0.0
C2332 C 0.38708 0.49341 0.08252 0.0
C2333 C 0.41362 0.50114 0.08769 0.0
C2334 C 0.36818 0.49119 0.10299 0.0
C2335 C 0.37597 0.49706 0.12919 0.0
C2336 C 0.40259 0.50524 0.1345 0.0
C2337 C 0.42111 0.50711 0.1137 0.0
C2338 C 0.33995 0.48231 0.09663 0.0
C2339 C 0.41155 0.5119 0.16214 0.0
H2340 H 0.30616 0.5288 0.18123 0.0
H2341 H 0.33042 0.45002 0.1938 0.0
H2342 H 0.36325 0.54851 0.14471 0.0
H2343 H 0.33711 0.5392 0.12244 0.0
H2344 H 0.32873 0.55652 0.15218 0.0
H2345 H 0.36697 0.43134 0.1716 0.0
H2346 H 0.36711 0.44172 0.13764 0.0
H2347 H 0.39242 0.45334 0.15969 0.0
H2348 H 0.38115 0.4886 0.06254 0.0
H2349 H 0.44151 0.51331 0.1179 0.0
H2350 H 0.32519 0.49718 0.10289 0.0
H2351 H 0.33527 0.46437 0.10773 0.0
H2352 H 0.33712 0.47848 0.07524 0.0
H2353 H 0.39861 0.52741 0.17035 0.0
H2354 H 0.43286 0.51842 0.16286 0.0
H2355 H 0.40929 0.4948 0.17516 0.0
C2356 C 0.81389 0.49152 0.67198 0.0
C2357 C 0.80688 0.51577 0.68224 0.0
C2358 C 0.83426 0.48907 0.65294 0.0
C2359 C 0.84798 0.51141 0.64402 0.0
C2360 C 0.84082 0.53597 0.65408 0.0
C2361 C 0.82031 0.53787 0.67304 0.0
C2362 C 0.84125 0.46258 0.64253 0.0
C2363 C 0.85499 0.56024 0.64499 0.0
C2364 C 0.91713 0.50381 0.61279 0.0
C2365 C 0.91101 0.50545 0.58581 0.0
C2366 C 0.89679 0.50557 0.63197 0.0
C2367 C 0.86972 0.50913 0.62399 0.0
C2368 C 0.86338 0.51073 0.59685 0.0
C2369 C 0.88405 0.50885 0.57812 0.0
C2370 C 0.90427 0.50375 0.66078 0.0
C2371 C 0.83475 0.5146 0.58758 0.0
H2372 H 0.80362 0.47435 0.679 0.0
H2373 H 0.81508 0.55667 0.68092 0.0
H2374 H 0.83873 0.4621 0.62079 0.0
H2375 H 0.86268 0.45817 0.64675 0.0
H2376 H 0.82853 0.44716 0.65136 0.0
H2377 H 0.84692 0.57787 0.65467 0.0
H2378 H 0.87683 0.55883 0.64932 0.0
H2379 H 0.85286 0.56242 0.62331 0.0
H2380 H 0.93782 0.50116 0.619 0.0
H2381 H 0.87897 0.51027 0.55738 0.0
H2382 H 0.8932 0.48758 0.67022 0.0
H2383 H 0.89829 0.52174 0.67114 0.0
H2384 H 0.92621 0.50068 0.66372 0.0
H2385 H 0.8218 0.4987 0.59498 0.0
H2386 H 0.83318 0.51527 0.56572 0.0
H2387 H 0.82661 0.5329 0.59571 0.0
C2388 C 0.51671 0.83314 0.67772 0.0
C2389 C 0.49206 0.82188 0.68488 0.0
C2390 C 0.51813 0.85174 0.65761 0.0
C2391 C 0.49428 0.85946 0.64452 0.0
C2392 C 0.46943 0.8477 0.65119 0.0
C2393 C 0.46865 0.82894 0.67118 0.0
C2394 C 0.54507 0.86356 0.65077 0.0
C2395 C 0.44356 0.85551 0.63773 0.0
C2396 C 0.49327 0.9259 0.61256 0.0
C2397 C 0.49704 0.9198 0.58583 0.0
C2398 C 0.49227 0.90644 0.63185 0.0
C2399 C 0.49524 0.88025 0.62428 0.0
C2400 C 0.49917 0.87395 0.59741 0.0
C2401 C 0.49997 0.89376 0.57853 0.0
C2402 C 0.48794 0.9139 0.66034 0.0
C2403 C 0.50257 0.84627 0.58859 0.0
H2404 H 0.53491 0.82771 0.68813 0.0
H2405 H 0.4495 0.82042 0.67667 0.0
H2406 H 0.54911 0.86145 0.62935 0.0
H2407 H 0.54477 0.88456 0.65519 0.0
H2408 H 0.56189 0.85456 0.66191 0.0
H2409 H 0.42605 0.84394 0.6446 0.0
H2410 H 0.43939 0.87623 0.64162 0.0
H2411 H 0.4455 0.85321 0.61605 0.0
H2412 H 0.4909 0.9459 0.61847 0.0
H2413 H 0.50299 0.88871 0.558 0.0
H2414 H 0.50514 0.90716 0.67248 0.0
H2415 H 0.46956 0.90432 0.66807 0.0
H2416 H 0.48578 0.93511 0.66295 0.0
H2417 H 0.52008 0.83744 0.59875 0.0
H2418 H 0.50565 0.84462 0.56694 0.0
H2419 H 0.48453 0.83482 0.5941 0.0
C2420 C 0.17883 0.52345 0.67346 0.0
C2421 C 0.19016 0.49973 0.68096 0.0
C2422 C 0.15845 0.52464 0.65433 0.0
C2423 C 0.14926 0.50156 0.64236 0.0
C2424 C 0.16099 0.47762 0.64942 0.0
C2425 C 0.18128 0.47699 0.66867 0.0
C2426 C 0.14642 0.55053 0.64726 0.0
C2427 C 0.15184 0.45263 0.63693 0.0
C2428 C 0.07944 0.50044 0.61172 0.0
C2429 C 0.08539 0.50314 0.58478 0.0
C2430 C 0.10003 0.50002 0.63069 0.0
C2431 C 0.12721 0.50241 0.62256 0.0
C2432 C 0.13336 0.50536 0.59548 0.0
C2433 C 0.11242 0.50568 0.57695 0.0
C2434 C 0.09272 0.49684 0.65943 0.0
C2435 C 0.16209 0.50804 0.58605 0.0
H2436 H 0.18553 0.54111 0.6829 0.0
H2437 H 0.18994 0.45859 0.67434 0.0
H2438 H 0.14841 0.55404 0.62575 0.0
H2439 H 0.1246 0.5506 0.65196 0.0
H2440 H 0.1562 0.56672 0.658 0.0
H2441 H 0.16343 0.43571 0.64418 0.0
H2442 H 0.13018 0.44938 0.64119 0.0
H2443 H 0.15404 0.45376 0.61517 0.0
H2444 H 0.0587 0.49843 0.61804 0.0
H2445 H 0.11736 0.50791 0.55624 0.0
H2446 H 0.10062 0.51339 0.671 0.0
H2447 H 0.10221 0.47908 0.66741 0.0
H2448 H 0.07062 0.49557 0.66255 0.0
H2449 H 0.17179 0.52489 0.59568 0.0
H2450 H 0.16345 0.51054 0.56432 0.0
H2451 H 0.17381 0.49065 0.5917 0.0
C2452 C 0.52673 0.17877 0.6693 0.0
C2453 C 0.50371 0.18432 0.68433 0.0
C2454 C 0.52597 0.16028 0.64904 0.0
C2455 C 0.50154 0.14724 0.64352 0.0
C2456 C 0.478 0.15349 0.65791 0.0
C2457 C 0.47939 0.17188 0.67821 0.0
C2458 C 0.55151 0.15407 0.63415 0.0
C2459 C 0.45149 0.14025 0.65235 0.0
C2460 C 0.4946 0.1125 0.57787 0.0
C2461 C 0.4995 0.0867 0.58506 0.0
C2462 C 0.49511 0.13238 0.59668 0.0
C2463 C 0.50082 0.12639 0.62332 0.0
C2464 C 0.50577 0.10044 0.63076 0.0
C2465 C 0.50496 0.0809 0.61157 0.0
C2466 C 0.48951 0.15978 0.58803 0.0
C2467 C 0.51207 0.09333 0.65898 0.0
H2468 H 0.54562 0.18823 0.67394 0.0
H2469 H 0.46148 0.17614 0.68963 0.0
H2470 H 0.55727 0.13367 0.6378 0.0
H2471 H 0.5482 0.1562 0.61262 0.0
H2472 H 0.56856 0.16672 0.64005 0.0
H2473 H 0.43473 0.14838 0.66426 0.0
H2474 H 0.44631 0.14206 0.63114 0.0
H2475 H 0.45321 0.11932 0.65679 0.0
H2476 H 0.4902 0.11725 0.5575 0.0
H2477 H 0.5089 0.0611 0.61735 0.0
H2478 H 0.50707 0.17226 0.59259 0.0
H2479 H 0.47205 0.16762 0.5991 0.0
H2480 H 0.48518 0.16118 0.56658 0.0
H2481 H 0.53019 0.10397 0.66575 0.0
H2482 H 0.51569 0.07229 0.66149 0.0
H2483 H 0.49514 0.09909 0.672 0.0
C2484 C 0.81567 0.47213 0.33386 0.0
C2485 C 0.80536 0.49452 0.32198 0.0
C2486 C 0.83598 0.4736 0.35304 0.0
C2487 C 0.84625 0.49806 0.36047 0.0
C2488 C 0.83562 0.52076 0.34891 0.0
C2489 C 0.81527 0.51872 0.32982 0.0
C2490 C 0.8467 0.44897 0.36509 0.0
C2491 C 0.84605 0.54717 0.35639 0.0
C2492 C 0.8829 0.50308 0.42591 0.0
C2493 C 0.91002 0.50214 0.41802 0.0
C2494 C 0.86198 0.50195 0.40739 0.0
C2495 C 0.86825 0.49984 0.38026 0.0
C2496 C 0.89551 0.49912 0.37207 0.0
C2497 C 0.91607 0.50029 0.39104 0.0
C2498 C 0.83315 0.50281 0.41689 0.0
C2499 C 0.90294 0.49689 0.34327 0.0
H2500 H 0.80813 0.45335 0.32792 0.0
H2501 H 0.80746 0.53612 0.3207 0.0
H2502 H 0.86851 0.44707 0.36074 0.0
H2503 H 0.84448 0.44959 0.38686 0.0
H2504 H 0.83617 0.43153 0.35755 0.0
H2505 H 0.8353 0.56295 0.34592 0.0
H2506 H 0.84389 0.55021 0.37795 0.0
H2507 H 0.86783 0.54857 0.35169 0.0
H2508 H 0.87786 0.50459 0.44666 0.0
H2509 H 0.93689 0.49953 0.38465 0.0
H2510 H 0.82253 0.48485 0.41099 0.0
H2511 H 0.82241 0.5192 0.40752 0.0
H2512 H 0.83168 0.50489 0.43865 0.0
H2513 H 0.89461 0.47872 0.335 0.0
H2514 H 0.92508 0.49701 0.3401 0.0
H2515 H 0.89396 0.51312 0.33199 0.0
C2516 C 0.53076 0.82698 0.33427 0.0
C2517 C 0.50775 0.82054 0.31962 0.0
C2518 C 0.52966 0.84575 0.35425 0.0
C2519 C 0.5049 0.85817 0.35987 0.0
C2520 C 0.48142 0.85106 0.34582 0.0
C2521 C 0.48315 0.83242 0.32579 0.0
C2522 C 0.55514 0.85288 0.36877 0.0
C2523 C 0.45458 0.86361 0.35149 0.0
C2524 C 0.49717 0.89305 0.42533 0.0
C2525 C 0.50115 0.91896 0.41797 0.0
C2526 C 0.49832 0.87309 0.40665 0.0
C2527 C 0.50369 0.8791 0.37994 0.0
C2528 C 0.50776 0.90515 0.37233 0.0
C2529 C 0.50637 0.92477 0.39141 0.0
C2530 C 0.49374 0.84557 0.4155 0.0
C2531 C 0.51367 0.9123 0.34402 0.0
H2532 H 0.54987 0.81797 0.32957 0.0
H2533 H 0.46526 0.82746 0.31465 0.0
H2534 H 0.56018 0.87343 0.36492 0.0
H2535 H 0.55214 0.8508 0.39036 0.0
H2536 H 0.57254 0.84075 0.36275 0.0
H2537 H 0.43798 0.85499 0.33974 0.0
H2538 H 0.44958 0.86174 0.37274 0.0
H2539 H 0.45569 0.88456 0.34697 0.0
H2540 H 0.49303 0.88826 0.44575 0.0
H2541 H 0.50963 0.94465 0.38548 0.0
H2542 H 0.51165 0.83362 0.41079 0.0
H2543 H 0.47642 0.83713 0.40469 0.0
H2544 H 0.4897 0.84414 0.43701 0.0
H2545 H 0.53204 0.90211 0.33716 0.0
H2546 H 0.5167 0.93342 0.34139 0.0
H2547 H 0.49682 0.90604 0.33117 0.0
C2548 C 0.17658 0.47826 0.32786 0.0
C2549 C 0.18871 0.50155 0.32012 0.0
C2550 C 0.15611 0.47788 0.34696 0.0
C2551 C 0.14765 0.50135 0.35864 0.0
C2552 C 0.1601 0.52487 0.35124 0.0
C2553 C 0.18047 0.52469 0.33204 0.0
C2554 C 0.14331 0.45242 0.3544 0.0
C2555 C 0.15171 0.55026 0.36341 0.0
C2556 C 0.07821 0.50442 0.39004 0.0
C2557 C 0.08439 0.50179 0.41693 0.0
C2558 C 0.0986 0.50424 0.37084 0.0
C2559 C 0.12579 0.5013 0.37868 0.0
C2560 C 0.13217 0.49848 0.40571 0.0
C2561 C 0.11143 0.49878 0.42448 0.0
C2562 C 0.09107 0.50731 0.34215 0.0
C2563 C 0.16092 0.49523 0.41484 0.0
H2564 H 0.18278 0.4603 0.3187 0.0
H2565 H 0.18973 0.54277 0.32617 0.0
H2566 H 0.14548 0.44902 0.37591 0.0
H2567 H 0.12143 0.45296 0.35002 0.0
H2568 H 0.1524 0.43586 0.34367 0.0
H2569 H 0.16362 0.5668 0.35572 0.0
H2570 H 0.13009 0.5539 0.35937 0.0
H2571 H 0.15416 0.54943 0.38515 0.0
H2572 H 0.05745 0.5068 0.38394 0.0
H2573 H 0.11654 0.49658 0.44514 0.0
H2574 H 0.09828 0.49041 0.33069 0.0
H2575 H 0.10104 0.52469 0.33383 0.0
H2576 H 0.06898 0.50919 0.33928 0.0
H2577 H 0.17003 0.47801 0.40535 0.0
H2578 H 0.16246 0.49299 0.43659 0.0
H2579 H 0.17306 0.51224 0.4088 0.0
C2580 C 0.51988 0.16688 0.32014 0.0
C2581 C 0.4973 0.18291 0.3172 0.0
C2582 C 0.52111 0.14837 0.34033 0.0
C2583 C 0.49913 0.14569 0.35792 0.0
C2584 C 0.47659 0.16227 0.35553 0.0
C2585 C 0.47599 0.18077 0.33525 0.0
C2586 C 0.54564 0.13126 0.34245 0.0
C2587 C 0.45275 0.15993 0.37389 0.0
C2588 C 0.49011 0.08062 0.39154 0.0
C2589 C 0.5001 0.08566 0.41688 0.0
C2590 C 0.48946 0.10006 0.37223 0.0
C2591 C 0.49942 0.12502 0.37831 0.0
C2592 C 0.5098 0.13013 0.40377 0.0
C2593 C 0.50984 0.11045 0.4228 0.0
C2594 C 0.47798 0.09393 0.34537 0.0
C2595 C 0.52096 0.15638 0.41088 0.0
H2596 H 0.53649 0.16848 0.30635 0.0
H2597 H 0.45843 0.19302 0.33308 0.0
H2598 H 0.55413 0.13228 0.36267 0.0
H2599 H 0.53987 0.11086 0.33882 0.0
H2600 H 0.56161 0.13673 0.32813 0.0
H2601 H 0.4372 0.17488 0.37 0.0
H2602 H 0.44338 0.14058 0.37163 0.0
H2603 H 0.45941 0.16166 0.39469 0.0
H2604 H 0.48233 0.06158 0.38689 0.0
H2605 H 0.51781 0.11444 0.44229 0.0
H2606 H 0.49357 0.09696 0.32999 0.0
H2607 H 0.46106 0.10722 0.34089 0.0
H2608 H 0.47055 0.07372 0.34398 0.0
H2609 H 0.53763 0.16154 0.39728 0.0
H2610 H 0.52862 0.1571 0.43145 0.0
H2611 H 0.50511 0.1713 0.40857 0.0
C2612 C 0.6794 0.83309 0.48847 0.0
C2613 C 0.68242 0.81886 0.51185 0.0
C2614 C 0.65961 0.85229 0.48621 0.0
C2615 C 0.64252 0.85749 0.50791 0.0
C2616 C 0.64495 0.84274 0.53132 0.0
C2617 C 0.66483 0.82352 0.53299 0.0
C2618 C 0.65742 0.86742 0.46081 0.0
C2619 C 0.62705 0.84776 0.55486 0.0
C2620 C 0.6106 0.92409 0.51205 0.0
C2621 C 0.5843 0.91906 0.5034 0.0
C2622 C 0.62973 0.90419 0.51371 0.0
C2623 C 0.62245 0.87874 0.50627 0.0
C2624 C 0.59606 0.87362 0.4972 0.0
C2625 C 0.57728 0.8938 0.49598 0.0
C2626 C 0.65768 0.91035 0.52363 0.0
C2627 C 0.58763 0.8468 0.48882 0.0
H2628 H 0.69283 0.82955 0.472 0.0
H2629 H 0.66707 0.81267 0.55114 0.0
H2630 H 0.63655 0.86641 0.45308 0.0
H2631 H 0.66198 0.88809 0.46458 0.0
H2632 H 0.67142 0.86021 0.44538 0.0
H2633 H 0.63094 0.83406 0.5713 0.0
H2634 H 0.63033 0.86773 0.56216 0.0
H2635 H 0.60557 0.84621 0.54908 0.0
H2636 H 0.61614 0.94349 0.51799 0.0
H2637 H 0.55707 0.88974 0.48905 0.0
H2638 H 0.67282 0.90531 0.50838 0.0
H2639 H 0.6622 0.89854 0.54135 0.0
H2640 H 0.66006 0.93109 0.5288 0.0
H2641 H 0.60093 0.83981 0.47274 0.0
H2642 H 0.56644 0.84614 0.48183 0.0
H2643 H 0.58983 0.83319 0.50559 0.0
C2644 C 0.66641 0.18068 0.46988 0.0
C2645 C 0.68303 0.18661 0.49142 0.0
C2646 C 0.64665 0.16136 0.47179 0.0
C2647 C 0.64329 0.14786 0.49587 0.0
C2648 C 0.65936 0.15437 0.51793 0.0
C2649 C 0.67911 0.17361 0.5154 0.0
C2650 C 0.62988 0.1549 0.44783 0.0
C2651 C 0.65609 0.14064 0.54403 0.0
C2652 C 0.5776 0.11196 0.50676 0.0
C2653 C 0.58493 0.08639 0.50089 0.0
C2654 C 0.59643 0.1321 0.50542 0.0
C2655 C 0.62324 0.12661 0.49786 0.0
C2656 C 0.63087 0.10086 0.49208 0.0
C2657 C 0.61164 0.08102 0.49378 0.0
C2658 C 0.58759 0.15929 0.51194 0.0
C2659 C 0.65928 0.0943 0.48382 0.0
H2660 H 0.66938 0.19057 0.45125 0.0
H2661 H 0.6918 0.17815 0.53217 0.0
H2662 H 0.63356 0.13458 0.44188 0.0
H2663 H 0.60814 0.15664 0.45257 0.0
H2664 H 0.63448 0.16768 0.43079 0.0
H2665 H 0.66936 0.14878 0.55959 0.0
H2666 H 0.63489 0.14194 0.55082 0.0
H2667 H 0.66088 0.11983 0.54165 0.0
H2668 H 0.55707 0.11634 0.51249 0.0
H2669 H 0.61747 0.06137 0.48905 0.0
H2670 H 0.59042 0.17197 0.49451 0.0
H2671 H 0.6002 0.16723 0.52807 0.0
H2672 H 0.56612 0.16021 0.51807 0.0
H2673 H 0.66464 0.10514 0.46567 0.0
H2674 H 0.66195 0.07333 0.47997 0.0
H2675 H 0.67365 0.10025 0.49942 0.0
C2676 C 0.82044 0.67502 0.52317 0.0
C2677 C 0.80909 0.68273 0.49908 0.0
C2678 C 0.84019 0.65563 0.52417 0.0
C2679 C 0.84874 0.64362 0.50052 0.0
C2680 C 0.83703 0.65098 0.4762 0.0
C2681 C 0.81737 0.67047 0.47577 0.0
C2682 C 0.8522 0.64827 0.55049 0.0
C2683 C 0.84554 0.63852 0.45058 0.0
C2684 C 0.9177 0.6118 0.49877 0.0
C2685 C 0.9111 0.58556 0.50156 0.0
C2686 C 0.89761 0.63089 0.4985 0.0
C2687 C 0.87025 0.62361 0.50114 0.0
C2688 C 0.86343 0.59723 0.50415 0.0
C2689 C 0.8839 0.57855 0.5043 0.0
C2690 C 0.90567 0.65886 0.49525 0.0
C2691 C 0.83449 0.58872 0.5071 0.0
H2692 H 0.8142 0.6844 0.54128 0.0
H2693 H 0.8087 0.67628 0.45707 0.0
H2694 H 0.84956 0.62727 0.55403 0.0
H2695 H 0.87417 0.65221 0.5504 0.0
H2696 H 0.84292 0.65903 0.56713 0.0
H2697 H 0.83403 0.64602 0.43342 0.0
H2698 H 0.86729 0.64206 0.44708 0.0
H2699 H 0.84265 0.61729 0.45171 0.0
H2700 H 0.93858 0.61752 0.49661 0.0
H2701 H 0.87847 0.55839 0.5066 0.0
H2702 H 0.89833 0.67033 0.51228 0.0
H2703 H 0.89618 0.66698 0.47726 0.0
H2704 H 0.92784 0.66134 0.49367 0.0
H2705 H 0.8252 0.59836 0.5244 0.0
H2706 H 0.83258 0.56747 0.50964 0.0
H2707 H 0.82278 0.59457 0.48945 0.0
C2708 C 0.31666 0.83524 0.51653 0.0
C2709 C 0.31423 0.82006 0.49373 0.0
C2710 C 0.33666 0.85428 0.51859 0.0
C2711 C 0.35457 0.85835 0.49727 0.0
C2712 C 0.35274 0.84262 0.47449 0.0
C2713 C 0.33264 0.82357 0.47302 0.0
C2714 C 0.3382 0.87047 0.54334 0.0
C2715 C 0.37151 0.84641 0.45135 0.0
C2716 C 0.38733 0.92444 0.49106 0.0
C2717 C 0.4133 0.91958 0.50069 0.0
C2718 C 0.36805 0.90464 0.48973 0.0
C2719 C 0.37481 0.87949 0.49856 0.0
C2720 C 0.40086 0.87456 0.50865 0.0
C2721 C 0.41983 0.89462 0.50946 0.0
C2722 C 0.34051 0.91057 0.47866 0.0
C2723 C 0.40871 0.84809 0.51856 0.0
H2724 H 0.3026 0.83258 0.53267 0.0
H2725 H 0.33087 0.81197 0.45531 0.0
H2726 H 0.3588 0.86965 0.55174 0.0
H2727 H 0.33396 0.89098 0.5385 0.0
H2728 H 0.32365 0.86401 0.55864 0.0
H2729 H 0.36803 0.83202 0.43546 0.0
H2730 H 0.36872 0.86606 0.44302 0.0
H2731 H 0.39276 0.84494 0.45792 0.0
H2732 H 0.3822 0.94362 0.48407 0.0
H2733 H 0.43978 0.89074 0.51716 0.0
H2734 H 0.32483 0.90639 0.49366 0.0
H2735 H 0.33641 0.89798 0.46141 0.0
H2736 H 0.33855 0.93106 0.47239 0.0
H2737 H 0.39479 0.84192 0.53449 0.0
H2738 H 0.42964 0.84759 0.5263 0.0
H2739 H 0.40696 0.83376 0.50239 0.0
C2740 C 0.17721 0.33282 0.52068 0.0
C2741 C 0.18468 0.32161 0.49656 0.0
C2742 C 0.15796 0.35266 0.52173 0.0
C2743 C 0.14579 0.36141 0.49811 0.0
C2744 C 0.15352 0.35045 0.47367 0.0
C2745 C 0.17292 0.33073 0.47319 0.0
C2746 C 0.15035 0.364 0.54815 0.0
C2747 C 0.14096 0.35925 0.44807 0.0
C2748 C 0.07728 0.39385 0.50233 0.0
C2749 C 0.0841 0.4201 0.50015 0.0
C2750 C 0.09716 0.37458 0.50181 0.0
C2751 C 0.12456 0.38168 0.499 0.0
C2752 C 0.13162 0.40809 0.49685 0.0
C2753 C 0.11134 0.42696 0.49746 0.0
C2754 C 0.08884 0.34661 0.50418 0.0
C2755 C 0.16062 0.41641 0.49383 0.0
H2756 H 0.18623 0.32592 0.53883 0.0
H2757 H 0.17853 0.32216 0.45447 0.0
H2758 H 0.15347 0.38523 0.54796 0.0
H2759 H 0.12867 0.36054 0.55209 0.0
H2760 H 0.16226 0.3556 0.5646 0.0
H2761 H 0.14963 0.34918 0.43068 0.0
H2762 H 0.11894 0.35561 0.44853 0.0
H2763 H 0.14385 0.38036 0.44552 0.0
H2764 H 0.05636 0.38825 0.50451 0.0
H2765 H 0.11693 0.44713 0.49569 0.0
H2766 H 0.09889 0.33761 0.52142 0.0
H2767 H 0.09536 0.33579 0.48639 0.0
H2768 H 0.06671 0.34432 0.50646 0.0
H2769 H 0.17264 0.40935 0.5108 0.0
H2770 H 0.16278 0.43775 0.49258 0.0
H2771 H 0.16936 0.40772 0.47574 0.0
C2772 C 0.31831 0.17224 0.48552 0.0
C2773 C 0.31476 0.18603 0.5091 0.0
C2774 C 0.33842 0.15336 0.48318 0.0
C2775 C 0.35528 0.14801 0.505 0.0
C2776 C 0.35237 0.16239 0.52859 0.0
C2777 C 0.33221 0.18132 0.53032 0.0
C2778 C 0.34115 0.13865 0.45759 0.0
C2779 C 0.36998 0.1572 0.55228 0.0
C2780 C 0.38736 0.0815 0.5091 0.0
C2781 C 0.41383 0.08668 0.50103 0.0
C2782 C 0.3681 0.10131 0.5105 0.0
C2783 C 0.37544 0.12684 0.50341 0.0
C2784 C 0.402 0.13213 0.49488 0.0
C2785 C 0.4209 0.11203 0.49391 0.0
C2786 C 0.33999 0.09496 0.51986 0.0
C2787 C 0.4105 0.15905 0.48689 0.0
H2788 H 0.30499 0.17584 0.46899 0.0
H2789 H 0.32957 0.19184 0.54863 0.0
H2790 H 0.36218 0.13977 0.45026 0.0
H2791 H 0.3365 0.11793 0.46094 0.0
H2792 H 0.32747 0.14612 0.44202 0.0
H2793 H 0.36585 0.17074 0.56879 0.0
H2794 H 0.36663 0.13716 0.55937 0.0
H2795 H 0.39154 0.15883 0.54677 0.0
H2796 H 0.38175 0.06204 0.51482 0.0
H2797 H 0.44125 0.11622 0.48744 0.0
H2798 H 0.32512 0.10018 0.50443 0.0
H2799 H 0.33511 0.10652 0.53766 0.0
H2800 H 0.33754 0.07416 0.52471 0.0
H2801 H 0.39742 0.1662 0.47073 0.0
H2802 H 0.43179 0.15982 0.48018 0.0
H2803 H 0.40803 0.17247 0.50378 0.0
C2804 C 0.81832 0.33278 0.48122 0.0
C2805 C 0.81029 0.32181 0.50529 0.0
C2806 C 0.83758 0.35264 0.48037 0.0
C2807 C 0.84915 0.36169 0.50415 0.0
C2808 C 0.84082 0.351 0.52854 0.0
C2809 C 0.82146 0.33123 0.52883 0.0
C2810 C 0.84585 0.36367 0.45398 0.0
C2811 C 0.85273 0.36014 0.55432 0.0
C2812 C 0.9178 0.39402 0.5011 0.0
C2813 C 0.91099 0.4203 0.50272 0.0
C2814 C 0.89787 0.37478 0.50145 0.0
C2815 C 0.87044 0.38193 0.5035 0.0
C2816 C 0.86338 0.40837 0.50506 0.0
C2817 C 0.88371 0.42722 0.50465 0.0
C2818 C 0.90619 0.34676 0.4997 0.0
C2819 C 0.83433 0.41675 0.50725 0.0
H2820 H 0.80977 0.32565 0.46294 0.0
H2821 H 0.8154 0.32286 0.54752 0.0
H2822 H 0.84279 0.3849 0.45382 0.0
H2823 H 0.86761 0.36013 0.4506 0.0
H2824 H 0.83433 0.35508 0.43738 0.0
H2825 H 0.84358 0.35031 0.57164 0.0
H2826 H 0.87474 0.35648 0.55447 0.0
H2827 H 0.84982 0.38128 0.55648 0.0
H2828 H 0.93875 0.38837 0.49952 0.0
H2829 H 0.87811 0.44741 0.50594 0.0
H2830 H 0.89656 0.33754 0.48235 0.0
H2831 H 0.8992 0.33618 0.51748 0.0
H2832 H 0.92836 0.34443 0.49799 0.0
H2833 H 0.82271 0.40942 0.49012 0.0
H2834 H 0.83218 0.4381 0.50807 0.0
H2835 H 0.82513 0.40834 0.52527 0.0
C2836 C 0.17647 0.67414 0.48166 0.0
C2837 C 0.18643 0.68281 0.50601 0.0
C2838 C 0.15687 0.65462 0.48037 0.0
C2839 C 0.14699 0.64348 0.50399 0.0
C2840 C 0.15731 0.65179 0.52859 0.0
C2841 C 0.17689 0.67136 0.52931 0.0
C2842 C 0.14639 0.64622 0.45376 0.0
C2843 C 0.14734 0.6403 0.5542 0.0
C2844 C 0.07797 0.61172 0.50312 0.0
C2845 C 0.08463 0.58539 0.5017 0.0
C2846 C 0.09806 0.6308 0.50379 0.0
C2847 C 0.12551 0.62344 0.503 0.0
C2848 C 0.13241 0.59697 0.50144 0.0
C2849 C 0.11193 0.57828 0.50082 0.0
C2850 C 0.08991 0.65887 0.50548 0.0
C2851 C 0.16146 0.58837 0.50053 0.0
H2852 H 0.18371 0.68288 0.46356 0.0
H2853 H 0.18446 0.67792 0.54821 0.0
H2854 H 0.14918 0.62509 0.45126 0.0
H2855 H 0.12447 0.65014 0.45245 0.0
H2856 H 0.15666 0.65632 0.43722 0.0
H2857 H 0.15791 0.64842 0.57164 0.0
H2858 H 0.12544 0.64398 0.55639 0.0
H2859 H 0.1502 0.61904 0.55407 0.0
H2860 H 0.05702 0.61751 0.50383 0.0
H2861 H 0.11743 0.55806 0.4997 0.0
H2862 H 0.09824 0.66969 0.48842 0.0
H2863 H 0.0984 0.66767 0.52361 0.0
H2864 H 0.0677 0.6614 0.50574 0.0
H2865 H 0.17176 0.59727 0.48335 0.0
H2866 H 0.16345 0.56704 0.49909 0.0
H2867 H 0.17213 0.595 0.51851 0.0
loop_
_geom_bond_atom_site_label_1
_geom_bond_atom_site_label_2
_geom_bond_distance
_geom_bond_site_symmetry_2
_ccdc_geom_bond_type
O0 Cd1 2.300 1_455 S
O0 C7 1.275 1_455 S
Cd1 O0 2.300 1_655 S
Cd1 O9 2.381 1_655 S
Cd1 O10 2.378 . S
O2 Cd3 2.385 . S
O2 C7 1.255 . S
Cd3 O2 2.385 . S
Cd3 O4 2.317 . S
O4 Cd3 2.317 . S
O4 C5 1.232 . S
C5 O4 1.232 . S
C5 O6 1.218 . S
O6 C5 1.218 . S
C7 O0 1.275 1_655 S
C7 O2 1.255 . S
C8 O9 1.258 1_655 S
C8 O10 1.256 . S
O9 Cd1 2.381 1_455 S
O9 C8 1.258 1_455 S
O10 Cd1 2.378 . S
O10 C8 1.256 . S
O11 Cd12 2.300 1_565 S
O11 C18 1.275 1_565 S
Cd12 O11 2.300 1_545 S
Cd12 O20 2.381 1_545 S
Cd12 O21 2.378 . S
O13 Cd14 2.385 . S
O13 C18 1.255 . S
Cd14 O13 2.385 . S
Cd14 O15 2.317 . S
O15 Cd14 2.317 . S
O15 C16 1.232 . S
C16 O15 1.232 . S
C16 O17 1.218 . S
O17 C16 1.218 . S
C18 O11 1.275 1_545 S
C18 O13 1.255 . S
C19 O20 1.258 1_545 S
C19 O21 1.256 . S
O20 Cd12 2.381 1_565 S
O20 C19 1.258 1_565 S
O21 Cd12 2.378 . S
O21 C19 1.256 . S
O22 Cd23 2.300 1_655 S
O22 C29 1.275 1_655 S
Cd23 O22 2.300 1_455 S
Cd23 O31 2.381 1_455 S
Cd23 O32 2.378 . S
O24 Cd25 2.385 . S
O24 C29 1.255 . S
Cd25 O24 2.385 . S
Cd25 O26 2.317 . S
O26 Cd25 2.317 . S
O26 C27 1.232 . S
C27 O26 1.232 . S
C27 O28 1.218 . S
O28 C27 1.218 . S
C29 O22 1.275 1_455 S
C29 O24 1.255 . S
C30 O31 1.258 1_455 S
C30 O32 1.256 . S
O31 Cd23 2.381 1_655 S
O31 C30 1.258 1_655 S
O32 Cd23 2.378 . S
O32 C30 1.256 . S
O33 Cd34 2.300 1_545 S
O33 C40 1.275 1_545 S
Cd34 O33 2.300 1_565 S
Cd34 O42 2.381 1_565 S
Cd34 O43 2.378 . S
O35 Cd36 2.385 . S
O35 C40 1.255 . S
Cd36 O35 2.385 . S
Cd36 O37 2.317 . S
O37 Cd36 2.317 . S
O37 C38 1.232 . S
C38 O37 1.232 . S
C38 O39 1.218 . S
O39 C38 1.218 . S
C40 O33 1.275 1_565 S
C40 O35 1.255 . S
C41 O42 1.258 1_565 S
C41 O43 1.256 . S
O42 Cd34 2.381 1_545 S
O42 C41 1.258 1_545 S
O43 Cd34 2.378 . S
O43 C41 1.256 . S
O44 Cd45 2.300 1_455 S
O44 C51 1.275 1_455 S
Cd45 O44 2.300 1_655 S
Cd45 O53 2.381 1_655 S
Cd45 O54 2.378 . S
O46 Cd47 2.385 . S
O46 C51 1.255 . S
Cd47 O46 2.385 . S
Cd47 O48 2.317 . S
O48 Cd47 2.317 . S
O48 C49 1.232 . S
C49 O48 1.232 . S
C49 O50 1.218 . S
O50 C49 1.218 . S
C51 O44 1.275 1_655 S
C51 O46 1.255 . S
C52 O53 1.258 1_655 S
C52 O54 1.256 . S
O53 Cd45 2.381 1_455 S
O53 C52 1.258 1_455 S
O54 Cd45 2.378 . S
O54 C52 1.256 . S
O55 Cd56 2.300 1_565 S
O55 C62 1.275 1_565 S
Cd56 O55 2.300 1_545 S
Cd56 O64 2.381 1_545 S
Cd56 O65 2.378 . S
O57 Cd58 2.385 . S
O57 C62 1.255 . S
Cd58 O57 2.385 . S
Cd58 O59 2.317 . S
O59 Cd58 2.317 . S
O59 C60 1.232 . S
C60 O59 1.232 . S
C60 O61 1.218 . S
O61 C60 1.218 . S
C62 O55 1.275 1_545 S
C62 O57 1.255 . S
C63 O64 1.258 1_545 S
C63 O65 1.256 . S
O64 Cd56 2.381 1_565 S
O64 C63 1.258 1_565 S
O65 Cd56 2.378 . S
O65 C63 1.256 . S
O66 Cd67 2.300 1_655 S
O66 C73 1.275 1_655 S
Cd67 O66 2.300 1_455 S
Cd67 O75 2.381 1_455 S
Cd67 O76 2.378 . S
O68 Cd69 2.385 . S
O68 C73 1.255 . S
Cd69 O68 2.385 . S
Cd69 O70 2.317 . S
O70 Cd69 2.317 . S
O70 C71 1.232 . S
C71 O70 1.232 . S
C71 O72 1.218 . S
O72 C71 1.218 . S
C73 O66 1.275 1_455 S
C73 O68 1.255 . S
C74 O75 1.258 1_455 S
C74 O76 1.256 . S
O75 Cd67 2.381 1_655 S
O75 C74 1.258 1_655 S
O76 Cd67 2.378 . S
O76 C74 1.256 . S
O77 Cd78 2.300 1_545 S
O77 C84 1.275 1_545 S
Cd78 O77 2.300 1_565 S
Cd78 O86 2.381 1_565 S
Cd78 O87 2.378 . S
O79 Cd80 2.385 . S
O79 C84 1.255 . S
Cd80 O79 2.385 . S
Cd80 O81 2.317 . S
O81 Cd80 2.317 . S
O81 C82 1.232 . S
C82 O81 1.232 . S
C82 O83 1.218 . S
O83 C82 1.218 . S
C84 O77 1.275 1_565 S
C84 O79 1.255 . S
C85 O86 1.258 1_565 S
C85 O87 1.256 . S
O86 Cd78 2.381 1_545 S
O86 C85 1.258 1_545 S
O87 Cd78 2.378 . S
O87 C85 1.256 . S
O88 Cd89 2.300 1_556 S
O88 C95 1.275 1_556 S
Cd89 O88 2.300 1_554 S
Cd89 O97 2.381 1_554 S
Cd89 O98 2.378 . S
O90 Cd91 2.385 . S
O90 C95 1.255 . S
Cd91 O90 2.385 . S
Cd91 O92 2.317 . S
O92 Cd91 2.317 . S
O92 C93 1.232 . S
C93 O92 1.232 . S
C93 O94 1.218 . S
O94 C93 1.218 . S
C95 O88 1.275 1_554 S
C95 O90 1.255 . S
C96 O97 1.258 1_554 S
C96 O98 1.256 . S
O97 Cd89 2.381 1_556 S
O97 C96 1.258 1_556 S
O98 Cd89 2.378 . S
O98 C96 1.256 . S
O99 Cd100 2.300 1_554 S
O99 C106 1.275 1_554 S
Cd100 O99 2.300 1_556 S
Cd100 O108 2.381 1_556 S
Cd100 O109 2.378 . S
O101 Cd102 2.385 . S
O101 C106 1.255 . S
Cd102 O101 2.385 . S
Cd102 O103 2.317 . S
O103 Cd102 2.317 . S
O103 C104 1.232 . S
C104 O103 1.232 . S
C104 O105 1.218 . S
O105 C104 1.218 . S
C106 O99 1.275 1_556 S
C106 O101 1.255 . S
C107 O108 1.258 1_556 S
C107 O109 1.256 . S
O108 Cd100 2.381 1_554 S
O108 C107 1.258 1_554 S
O109 Cd100 2.378 . S
O109 C107 1.256 . S
O110 Cd111 2.300 1_554 S
O110 C117 1.275 1_554 S
Cd111 O110 2.300 1_556 S
Cd111 O119 2.381 1_556 S
Cd111 O120 2.378 . S
O112 Cd113 2.385 . S
O112 C117 1.255 . S
Cd113 O112 2.385 . S
Cd113 O114 2.317 . S
O114 Cd113 2.317 . S
O114 C115 1.232 . S
C115 O114 1.232 . S
C115 O116 1.218 . S
O116 C115 1.218 . S
C117 O110 1.275 1_556 S
C117 O112 1.255 . S
C118 O119 1.258 1_556 S
C118 O120 1.256 . S
O119 Cd111 2.381 1_554 S
O119 C118 1.258 1_554 S
O120 Cd111 2.378 . S
O120 C118 1.256 . S
O121 Cd122 2.300 1_556 S
O121 C128 1.275 1_556 S
Cd122 O121 2.300 1_554 S
Cd122 O130 2.381 1_554 S
Cd122 O131 2.378 . S
O123 Cd124 2.385 . S
O123 C128 1.255 . S
Cd124 O123 2.385 . S
Cd124 O125 2.317 . S
O125 Cd124 2.317 . S
O125 C126 1.232 . S
C126 O125 1.232 . S
C126 O127 1.218 . S
O127 C126 1.218 . S
C128 O121 1.275 1_554 S
C128 O123 1.255 . S
C129 O130 1.258 1_554 S
C129 O131 1.256 . S
O130 Cd122 2.381 1_556 S
O130 C129 1.258 1_556 S
O131 Cd122 2.378 . S
O131 C129 1.256 . S
O132 Cd133 2.300 . S
O132 C139 1.275 . S
Cd133 O132 2.300 . S
Cd133 O141 2.381 . S
Cd133 O142 2.378 . S
O134 Cd135 2.385 . S
O134 C139 1.255 . S
Cd135 O134 2.385 . S
Cd135 O136 2.317 . S
O136 Cd135 2.317 . S
O136 C137 1.232 . S
C137 O136 1.232 . S
C137 O138 1.218 . S
O138 C137 1.218 . S
C139 O132 1.275 . S
C139 O134 1.255 . S
C140 O141 1.258 . S
C140 O142 1.256 . S
O141 Cd133 2.381 . S
O141 C140 1.258 . S
O142 Cd133 2.378 . S
O142 C140 1.256 . S
O143 Cd144 2.300 . S
O143 C150 1.275 . S
Cd144 O143 2.300 . S
Cd144 O152 2.381 . S
Cd144 O153 2.378 . S
O145 Cd146 2.385 . S
O145 C150 1.255 . S
Cd146 O145 2.385 . S
Cd146 O147 2.317 . S
O147 Cd146 2.317 . S
O147 C148 1.232 . S
C148 O147 1.232 . S
C148 O149 1.218 . S
O149 C148 1.218 . S
C150 O143 1.275 . S
C150 O145 1.255 . S
C151 O152 1.258 . S
C151 O153 1.256 . S
O152 Cd144 2.381 . S
O152 C151 1.258 . S
O153 Cd144 2.378 . S
O153 C151 1.256 . S
O154 Cd155 2.300 . S
O154 C161 1.275 . S
Cd155 O154 2.300 . S
Cd155 O163 2.381 . S
Cd155 O164 2.378 . S
O156 Cd157 2.385 . S
O156 C161 1.255 . S
Cd157 O156 2.385 . S
Cd157 O158 2.317 . S
O158 Cd157 2.317 . S
O158 C159 1.232 . S
C159 O158 1.232 . S
C159 O160 1.218 . S
O160 C159 1.218 . S
C161 O154 1.275 . S
C161 O156 1.255 . S
C162 O163 1.258 . S
C162 O164 1.256 . S
O163 Cd155 2.381 . S
O163 C162 1.258 . S
O164 Cd155 2.378 . S
O164 C162 1.256 . S
O165 Cd166 2.300 . S
O165 C172 1.275 . S
Cd166 O165 2.300 . S
Cd166 O174 2.381 . S
Cd166 O175 2.378 . S
O167 Cd168 2.385 . S
O167 C172 1.255 . S
Cd168 O167 2.385 . S
Cd168 O169 2.317 . S
O169 Cd168 2.317 . S
O169 C170 1.232 . S
C170 O169 1.232 . S
C170 O171 1.218 . S
O171 C170 1.218 . S
C172 O165 1.275 . S
C172 O167 1.255 . S
C173 O174 1.258 . S
C173 O175 1.256 . S
O174 Cd166 2.381 . S
O174 C173 1.258 . S
O175 Cd166 2.378 . S
O175 C173 1.256 . S
O176 Cd177 2.300 . S
O176 C183 1.275 . S
Cd177 O176 2.300 . S
Cd177 O185 2.381 . S
Cd177 O186 2.378 . S
O178 Cd179 2.385 . S
O178 C183 1.255 . S
Cd179 O178 2.385 . S
Cd179 O180 2.317 . S
O180 Cd179 2.317 . S
O180 C181 1.232 . S
C181 O180 1.232 . S
C181 O182 1.218 . S
O182 C181 1.218 . S
C183 O176 1.275 . S
C183 O178 1.255 . S
C184 O185 1.258 . S
C184 O186 1.256 . S
O185 Cd177 2.381 . S
O185 C184 1.258 . S
O186 Cd177 2.378 . S
O186 C184 1.256 . S
O187 Cd188 2.300 . S
O187 C194 1.275 . S
Cd188 O187 2.300 . S
Cd188 O196 2.381 . S
Cd188 O197 2.378 . S
O189 Cd190 2.385 . S
O189 C194 1.255 . S
Cd190 O189 2.385 . S
Cd190 O191 2.317 . S
O191 Cd190 2.317 . S
O191 C192 1.232 . S
C192 O191 1.232 . S
C192 O193 1.218 . S
O193 C192 1.218 . S
C194 O187 1.275 . S
C194 O189 1.255 . S
C195 O196 1.258 . S
C195 O197 1.256 . S
O196 Cd188 2.381 . S
O196 C195 1.258 . S
O197 Cd188 2.378 . S
O197 C195 1.256 . S
O198 Cd199 2.300 . S
O198 C205 1.275 . S
Cd199 O198 2.300 . S
Cd199 O207 2.381 . S
Cd199 O208 2.378 . S
O200 Cd201 2.385 . S
O200 C205 1.255 . S
Cd201 O200 2.385 . S
Cd201 O202 2.317 . S
O202 Cd201 2.317 . S
O202 C203 1.232 . S
C203 O202 1.232 . S
C203 O204 1.218 . S
O204 C203 1.218 . S
C205 O198 1.275 . S
C205 O200 1.255 . S
C206 O207 1.258 . S
C206 O208 1.256 . S
O207 Cd199 2.381 . S
O207 C206 1.258 . S
O208 Cd199 2.378 . S
O208 C206 1.256 . S
O209 Cd210 2.300 . S
O209 C216 1.275 . S
Cd210 O209 2.300 . S
Cd210 O218 2.381 . S
Cd210 O219 2.378 . S
O211 Cd212 2.385 . S
O211 C216 1.255 . S
Cd212 O211 2.385 . S
Cd212 O213 2.317 . S
O213 Cd212 2.317 . S
O213 C214 1.232 . S
C214 O213 1.232 . S
C214 O215 1.218 . S
O215 C214 1.218 . S
C216 O209 1.275 . S
C216 O211 1.255 . S
C217 O218 1.258 . S
C217 O219 1.256 . S
O218 Cd210 2.381 . S
O218 C217 1.258 . S
O219 Cd210 2.378 . S
O219 C217 1.256 . S
O220 Cd221 2.300 . S
O220 C227 1.275 . S
Cd221 O220 2.300 . S
Cd221 O229 2.381 . S
Cd221 O230 2.378 . S
O222 Cd223 2.385 . S
O222 C227 1.255 . S
Cd223 O222 2.385 . S
Cd223 O224 2.317 . S
O224 Cd223 2.317 . S
O224 C225 1.232 . S
C225 O224 1.232 . S
C225 O226 1.218 . S
O226 C225 1.218 . S
C227 O220 1.275 . S
C227 O222 1.255 . S
C228 O229 1.258 . S
C228 O230 1.256 . S
O229 Cd221 2.381 . S
O229 C228 1.258 . S
O230 Cd221 2.378 . S
O230 C228 1.256 . S
O231 Cd232 2.300 . S
O231 C238 1.275 . S
Cd232 O231 2.300 . S
Cd232 O240 2.381 . S
Cd232 O241 2.378 . S
O233 Cd234 2.385 . S
O233 C238 1.255 . S
Cd234 O233 2.385 . S
Cd234 O235 2.317 . S
O235 Cd234 2.317 . S
O235 C236 1.232 . S
C236 O235 1.232 . S
C236 O237 1.218 . S
O237 C236 1.218 . S
C238 O231 1.275 . S
C238 O233 1.255 . S
C239 O240 1.258 . S
C239 O241 1.256 . S
O240 Cd232 2.381 . S
O240 C239 1.258 . S
O241 Cd232 2.378 . S
O241 C239 1.256 . S
O242 Cd243 2.300 . S
O242 C249 1.275 . S
Cd243 O242 2.300 . S
Cd243 O251 2.381 . S
Cd243 O252 2.378 . S
O244 Cd245 2.385 . S
O244 C249 1.255 . S
Cd245 O244 2.385 . S
Cd245 O246 2.317 . S
O246 Cd245 2.317 . S
O246 C247 1.232 . S
C247 O246 1.232 . S
C247 O248 1.218 . S
O248 C247 1.218 . S
C249 O242 1.275 . S
C249 O244 1.255 . S
C250 O251 1.258 . S
C250 O252 1.256 . S
O251 Cd243 2.381 . S
O251 C250 1.258 . S
O252 Cd243 2.378 . S
O252 C250 1.256 . S
O253 Cd254 2.300 . S
O253 C260 1.275 . S
Cd254 O253 2.300 . S
Cd254 O262 2.381 . S
Cd254 O263 2.378 . S
O255 Cd256 2.385 . S
O255 C260 1.255 . S
Cd256 O255 2.385 . S
Cd256 O257 2.317 . S
O257 Cd256 2.317 . S
O257 C258 1.232 . S
C258 O257 1.232 . S
C258 O259 1.218 . S
O259 C258 1.218 . S
C260 O253 1.275 . S
C260 O255 1.255 . S
C261 O262 1.258 . S
C261 O263 1.256 . S
O262 Cd254 2.381 . S
O262 C261 1.258 . S
O263 Cd254 2.378 . S
O263 C261 1.256 . S
C264 O290 1.283 . S
C264 O308 1.283 . S
C265 O291 1.283 . S
C265 O306 1.283 . S
C266 O292 1.283 . S
C266 O309 1.283 . S
C267 O293 1.283 . S
C267 O307 1.283 . S
C268 O294 1.283 . S
C268 O303 1.283 . S
C269 O295 1.283 . S
C269 O305 1.283 . S
C270 O296 1.283 . S
C270 O302 1.283 . S
C271 O297 1.283 . S
C271 O304 1.283 . S
C272 O298 1.283 . S
C272 O313 1.283 . S
C273 O299 1.283 . S
C273 O311 1.283 . S
C274 O300 1.283 . S
C274 O312 1.283 . S
C275 O301 1.283 . S
C275 O310 1.283 . S
Eu276 O277 2.370 1_455 S
Eu276 O278 2.370 . S
Eu276 O281 2.370 1_455 S
Eu276 O282 2.370 . S
Eu276 O290 2.363 . S
Eu276 O291 2.363 . S
Eu276 O304 2.363 . S
Eu276 O305 2.363 1_455 S
O277 Eu276 2.370 1_655 S
O277 Eu279 2.370 1_565 S
O277 Eu284 2.370 1_665 S
O278 Eu276 2.370 . S
O278 Eu280 2.370 1_565 S
O278 Eu283 2.370 1_565 S
Eu279 O277 2.370 1_545 S
Eu279 O281 2.370 1_545 S
Eu279 O285 2.370 . S
Eu279 O286 2.370 . S
Eu279 O294 2.363 . S
Eu279 O295 2.363 1_545 S
Eu279 O310 2.363 . S
Eu279 O311 2.363 . S
Eu280 O278 2.370 1_545 S
Eu280 O282 2.370 1_545 S
Eu280 O287 2.370 . S
Eu280 O288 2.370 . S
Eu280 O296 2.363 . S
Eu280 O297 2.363 1_545 S
Eu280 O312 2.363 . S
Eu280 O313 2.363 . S
O281 Eu276 2.370 1_655 S
O281 Eu279 2.370 1_565 S
O281 Eu283 2.370 1_665 S
O282 Eu276 2.370 . S
O282 Eu280 2.370 1_565 S
O282 Eu284 2.370 1_565 S
Eu283 O278 2.370 1_545 S
Eu283 O281 2.370 1_445 S
Eu283 O285 2.370 1_455 S
Eu283 O288 2.370 . S
Eu283 O300 2.363 . S
Eu283 O301 2.363 1_455 S
Eu283 O308 2.363 1_545 S
Eu283 O309 2.363 . S
Eu284 O277 2.370 1_445 S
Eu284 O282 2.370 1_545 S
Eu284 O286 2.370 1_455 S
Eu284 O287 2.370 . S
Eu284 O298 2.363 . S
Eu284 O299 2.363 1_455 S
Eu284 O306 2.363 1_545 S
Eu284 O307 2.363 . S
O285 Eu279 2.370 . S
O285 Eu283 2.370 1_655 S
O285 Eu289 2.370 1_655 S
O286 Eu279 2.370 . S
O286 Eu284 2.370 1_655 S
O286 Eu289 2.370 1_655 S
O287 Eu280 2.370 . S
O287 Eu284 2.370 . S
O287 Eu289 2.370 . S
O288 Eu280 2.370 . S
O288 Eu283 2.370 . S
O288 Eu289 2.370 . S
Eu289 O285 2.370 1_455 S
Eu289 O286 2.370 1_455 S
Eu289 O287 2.370 . S
Eu289 O288 2.370 . S
Eu289 O292 2.363 . S
Eu289 O293 2.363 . S
Eu289 O302 2.363 . S
Eu289 O303 2.363 1_455 S
O290 C264 1.283 . S
O290 Eu276 2.363 . S
O291 C265 1.283 . S
O291 Eu276 2.363 . S
O292 C266 1.283 . S
O292 Eu289 2.363 . S
O293 C267 1.283 . S
O293 Eu289 2.363 . S
O294 C268 1.283 . S
O294 Eu279 2.363 . S
O295 C269 1.283 . S
O295 Eu279 2.363 1_565 S
O296 C270 1.283 . S
O296 Eu280 2.363 . S
O297 C271 1.283 . S
O297 Eu280 2.363 1_565 S
O298 C272 1.283 . S
O298 Eu284 2.363 . S
O299 C273 1.283 . S
O299 Eu284 2.363 1_655 S
O300 C274 1.283 . S
O300 Eu283 2.363 . S
O301 C275 1.283 . S
O301 Eu283 2.363 1_655 S
O302 C270 1.283 . S
O302 Eu289 2.363 . S
O303 C268 1.283 . S
O303 Eu289 2.363 1_655 S
O304 C271 1.283 . S
O304 Eu276 2.363 . S
O305 C269 1.283 . S
O305 Eu276 2.363 1_655 S
O306 C265 1.283 . S
O306 Eu284 2.363 1_565 S
O307 C267 1.283 . S
O307 Eu284 2.363 . S
O308 C264 1.283 . S
O308 Eu283 2.363 1_565 S
O309 C266 1.283 . S
O309 Eu283 2.363 . S
O310 C275 1.283 . S
O310 Eu279 2.363 . S
O311 C273 1.283 . S
O311 Eu279 2.363 . S
O312 C274 1.283 . S
O312 Eu280 2.363 . S
O313 C272 1.283 . S
O313 Eu280 2.363 . S
C314 O340 1.283 . S
C314 O358 1.283 . S
C315 O341 1.283 . S
C315 O356 1.283 . S
C316 O342 1.283 . S
C316 O359 1.283 . S
C317 O343 1.283 . S
C317 O357 1.283 . S
C318 O344 1.283 . S
C318 O353 1.283 . S
C319 O345 1.283 . S
C319 O355 1.283 . S
C320 O346 1.283 . S
C320 O352 1.283 . S
C321 O347 1.283 . S
C321 O354 1.283 . S
C322 O348 1.283 . S
C322 O363 1.283 . S
C323 O349 1.283 . S
C323 O361 1.283 . S
C324 O350 1.283 . S
C324 O362 1.283 . S
C325 O351 1.283 . S
C325 O360 1.283 . S
Eu326 O327 2.370 . S
Eu326 O328 2.370 1_545 S
Eu326 O331 2.370 1_545 S
Eu326 O332 2.370 . S
Eu326 O340 2.363 1_545 S
Eu326 O341 2.363 . S
Eu326 O354 2.363 . S
Eu326 O355 2.363 . S
O327 Eu326 2.370 . S
O327 Eu329 2.370 . S
O327 Eu334 2.370 . S
O328 Eu326 2.370 1_565 S
O328 Eu330 2.370 1_565 S
O328 Eu333 2.370 . S
Eu329 O327 2.370 . S
Eu329 O331 2.370 1_545 S
Eu329 O335 2.370 1_544 S
Eu329 O336 2.370 1_554 S
Eu329 O344 2.363 1_554 S
Eu329 O345 2.363 . S
Eu329 O360 2.363 1_545 S
Eu329 O361 2.363 . S
Eu330 O328 2.370 1_545 S
Eu330 O332 2.370 . S
Eu330 O337 2.370 1_554 S
Eu330 O338 2.370 1_544 S
Eu330 O346 2.363 1_554 S
Eu330 O347 2.363 . S
Eu330 O362 2.363 1_545 S
Eu330 O363 2.363 . S
O331 Eu326 2.370 1_565 S
O331 Eu329 2.370 1_565 S
O331 Eu333 2.370 . S
O332 Eu326 2.370 . S
O332 Eu330 2.370 . S
O332 Eu334 2.370 . S
Eu333 O328 2.370 . S
Eu333 O331 2.370 . S
Eu333 O335 2.370 1_554 S
Eu333 O338 2.370 1_554 S
Eu333 O350 2.363 . S
Eu333 O351 2.363 . S
Eu333 O358 2.363 . S
Eu333 O359 2.363 1_554 S
Eu334 O327 2.370 . S
Eu334 O332 2.370 . S
Eu334 O336 2.370 1_554 S
Eu334 O337 2.370 1_554 S
Eu334 O348 2.363 . S
Eu334 O349 2.363 . S
Eu334 O356 2.363 . S
Eu334 O357 2.363 1_554 S
O335 Eu329 2.370 1_566 S
O335 Eu333 2.370 1_556 S
O335 Eu339 2.370 1_565 S
O336 Eu329 2.370 1_556 S
O336 Eu334 2.370 1_556 S
O336 Eu339 2.370 . S
O337 Eu330 2.370 1_556 S
O337 Eu334 2.370 1_556 S
O337 Eu339 2.370 . S
O338 Eu330 2.370 1_566 S
O338 Eu333 2.370 1_556 S
O338 Eu339 2.370 1_565 S
Eu339 O335 2.370 1_545 S
Eu339 O336 2.370 . S
Eu339 O337 2.370 . S
Eu339 O338 2.370 1_545 S
Eu339 O342 2.363 1_545 S
Eu339 O343 2.363 . S
Eu339 O352 2.363 . S
Eu339 O353 2.363 . S
O340 C314 1.283 . S
O340 Eu326 2.363 1_565 S
O341 C315 1.283 . S
O341 Eu326 2.363 . S
O342 C316 1.283 . S
O342 Eu339 2.363 1_565 S
O343 C317 1.283 . S
O343 Eu339 2.363 . S
O344 C318 1.283 . S
O344 Eu329 2.363 1_556 S
O345 C319 1.283 . S
O345 Eu329 2.363 . S
O346 C320 1.283 . S
O346 Eu330 2.363 1_556 S
O347 C321 1.283 . S
O347 Eu330 2.363 . S
O348 C322 1.283 . S
O348 Eu334 2.363 . S
O349 C323 1.283 . S
O349 Eu334 2.363 . S
O350 C324 1.283 . S
O350 Eu333 2.363 . S
O351 C325 1.283 . S
O351 Eu333 2.363 . S
O352 C320 1.283 . S
O352 Eu339 2.363 . S
O353 C318 1.283 . S
O353 Eu339 2.363 . S
O354 C321 1.283 . S
O354 Eu326 2.363 . S
O355 C319 1.283 . S
O355 Eu326 2.363 . S
O356 C315 1.283 . S
O356 Eu334 2.363 . S
O357 C317 1.283 . S
O357 Eu334 2.363 1_556 S
O358 C314 1.283 . S
O358 Eu333 2.363 . S
O359 C316 1.283 . S
O359 Eu333 2.363 1_556 S
O360 C325 1.283 . S
O360 Eu329 2.363 1_565 S
O361 C323 1.283 . S
O361 Eu329 2.363 . S
O362 C324 1.283 . S
O362 Eu330 2.363 1_565 S
O363 C322 1.283 . S
O363 Eu330 2.363 . S
C364 O390 1.283 . S
C364 O408 1.283 . S
C365 O391 1.283 . S
C365 O406 1.283 . S
C366 O392 1.283 . S
C366 O409 1.283 . S
C367 O393 1.283 . S
C367 O407 1.283 . S
C368 O394 1.283 . S
C368 O403 1.283 . S
C369 O395 1.283 . S
C369 O405 1.283 . S
C370 O396 1.283 . S
C370 O402 1.283 . S
C371 O397 1.283 . S
C371 O404 1.283 . S
C372 O398 1.283 . S
C372 O413 1.283 . S
C373 O399 1.283 . S
C373 O411 1.283 . S
C374 O400 1.283 . S
C374 O412 1.283 . S
C375 O401 1.283 . S
C375 O410 1.283 . S
Eu376 O377 2.370 1_454 S
Eu376 O378 2.370 . S
Eu376 O381 2.370 1_455 S
Eu376 O382 2.370 1_554 S
Eu376 O390 2.363 . S
Eu376 O391 2.363 1_554 S
Eu376 O404 2.363 . S
Eu376 O405 2.363 1_455 S
O377 Eu376 2.370 1_656 S
O377 Eu379 2.370 1_556 S
O377 Eu384 2.370 1_655 S
O378 Eu376 2.370 . S
O378 Eu380 2.370 . S
O378 Eu383 2.370 . S
Eu379 O377 2.370 1_554 S
Eu379 O381 2.370 . S
Eu379 O385 2.370 . S
Eu379 O386 2.370 1_554 S
Eu379 O394 2.363 . S
Eu379 O395 2.363 . S
Eu379 O410 2.363 . S
Eu379 O411 2.363 1_554 S
Eu380 O378 2.370 . S
Eu380 O382 2.370 1_554 S
Eu380 O387 2.370 1_554 S
Eu380 O388 2.370 . S
Eu380 O396 2.363 . S
Eu380 O397 2.363 . S
Eu380 O412 2.363 . S
Eu380 O413 2.363 1_554 S
O381 Eu376 2.370 1_655 S
O381 Eu379 2.370 . S
O381 Eu383 2.370 1_655 S
O382 Eu376 2.370 1_556 S
O382 Eu380 2.370 1_556 S
O382 Eu384 2.370 . S
Eu383 O378 2.370 . S
Eu383 O381 2.370 1_455 S
Eu383 O385 2.370 1_455 S
Eu383 O388 2.370 . S
Eu383 O400 2.363 . S
Eu383 O401 2.363 1_455 S
Eu383 O408 2.363 . S
Eu383 O409 2.363 . S
Eu384 O377 2.370 1_455 S
Eu384 O382 2.370 . S
Eu384 O386 2.370 1_455 S
Eu384 O387 2.370 . S
Eu384 O398 2.363 . S
Eu384 O399 2.363 1_455 S
Eu384 O406 2.363 . S
Eu384 O407 2.363 . S
O385 Eu379 2.370 . S
O385 Eu383 2.370 1_655 S
O385 Eu389 2.370 1_655 S
O386 Eu379 2.370 1_556 S
O386 Eu384 2.370 1_655 S
O386 Eu389 2.370 1_656 S
O387 Eu380 2.370 1_556 S
O387 Eu384 2.370 . S
O387 Eu389 2.370 1_556 S
O388 Eu380 2.370 . S
O388 Eu383 2.370 . S
O388 Eu389 2.370 . S
Eu389 O385 2.370 1_455 S
Eu389 O386 2.370 1_454 S
Eu389 O387 2.370 1_554 S
Eu389 O388 2.370 . S
Eu389 O392 2.363 . S
Eu389 O393 2.363 1_554 S
Eu389 O402 2.363 . S
Eu389 O403 2.363 1_455 S
O390 C364 1.283 . S
O390 Eu376 2.363 . S
O391 C365 1.283 . S
O391 Eu376 2.363 1_556 S
O392 C366 1.283 . S
O392 Eu389 2.363 . S
O393 C367 1.283 . S
O393 Eu389 2.363 1_556 S
O394 C368 1.283 . S
O394 Eu379 2.363 . S
O395 C369 1.283 . S
O395 Eu379 2.363 . S
O396 C370 1.283 . S
O396 Eu380 2.363 . S
O397 C371 1.283 . S
O397 Eu380 2.363 . S
O398 C372 1.283 . S
O398 Eu384 2.363 . S
O399 C373 1.283 . S
O399 Eu384 2.363 1_655 S
O400 C374 1.283 . S
O400 Eu383 2.363 . S
O401 C375 1.283 . S
O401 Eu383 2.363 1_655 S
O402 C370 1.283 . S
O402 Eu389 2.363 . S
O403 C368 1.283 . S
O403 Eu389 2.363 1_655 S
O404 C371 1.283 . S
O404 Eu376 2.363 . S
O405 C369 1.283 . S
O405 Eu376 2.363 1_655 S
O406 C365 1.283 . S
O406 Eu384 2.363 . S
O407 C367 1.283 . S
O407 Eu384 2.363 . S
O408 C364 1.283 . S
O408 Eu383 2.363 . S
O409 C366 1.283 . S
O409 Eu383 2.363 . S
O410 C375 1.283 . S
O410 Eu379 2.363 . S
O411 C373 1.283 . S
O411 Eu379 2.363 1_556 S
O412 C374 1.283 . S
O412 Eu380 2.363 . S
O413 C372 1.283 . S
O413 Eu380 2.363 1_556 S
C414 O440 1.283 . S
C414 O458 1.283 . S
C415 O441 1.283 . S
C415 O456 1.283 . S
C416 O442 1.283 . S
C416 O459 1.283 . S
C417 O443 1.283 . S
C417 O457 1.283 . S
C418 O444 1.283 . S
C418 O453 1.283 . S
C419 O445 1.283 . S
C419 O455 1.283 . S
C420 O446 1.283 . S
C420 O452 1.283 . S
C421 O447 1.283 . S
C421 O454 1.283 . S
C422 O448 1.283 . S
C422 O463 1.283 . S
C423 O449 1.283 . S
C423 O461 1.283 . S
C424 O450 1.283 . S
C424 O462 1.283 . S
C425 O451 1.283 . S
C425 O460 1.283 . S
Eu426 O427 2.370 . S
Eu426 O428 2.370 . S
Eu426 O431 2.370 . S
Eu426 O432 2.370 . S
Eu426 O440 2.363 . S
Eu426 O441 2.363 . S
Eu426 O454 2.363 . S
Eu426 O455 2.363 . S
O427 Eu426 2.370 . S
O427 Eu429 2.370 . S
O427 Eu434 2.370 . S
O428 Eu426 2.370 . S
O428 Eu430 2.370 . S
O428 Eu433 2.370 . S
Eu429 O427 2.370 . S
Eu429 O431 2.370 . S
Eu429 O435 2.370 1_554 S
Eu429 O436 2.370 1_554 S
Eu429 O444 2.363 1_554 S
Eu429 O445 2.363 . S
Eu429 O460 2.363 . S
Eu429 O461 2.363 . S
Eu430 O428 2.370 . S
Eu430 O432 2.370 . S
Eu430 O437 2.370 1_554 S
Eu430 O438 2.370 1_554 S
Eu430 O446 2.363 1_554 S
Eu430 O447 2.363 . S
Eu430 O462 2.363 . S
Eu430 O463 2.363 . S
O431 Eu426 2.370 . S
O431 Eu429 2.370 . S
O431 Eu433 2.370 . S
O432 Eu426 2.370 . S
O432 Eu430 2.370 . S
O432 Eu434 2.370 . S
Eu433 O428 2.370 . S
Eu433 O431 2.370 . S
Eu433 O435 2.370 1_554 S
Eu433 O438 2.370 1_554 S
Eu433 O450 2.363 . S
Eu433 O451 2.363 . S
Eu433 O458 2.363 . S
Eu433 O459 2.363 1_554 S
Eu434 O427 2.370 . S
Eu434 O432 2.370 . S
Eu434 O436 2.370 1_554 S
Eu434 O437 2.370 1_554 S
Eu434 O448 2.363 . S
Eu434 O449 2.363 . S
Eu434 O456 2.363 . S
Eu434 O457 2.363 1_554 S
O435 Eu429 2.370 1_556 S
O435 Eu433 2.370 1_556 S
O435 Eu439 2.370 . S
O436 Eu429 2.370 1_556 S
O436 Eu434 2.370 1_556 S
O436 Eu439 2.370 . S
O437 Eu430 2.370 1_556 S
O437 Eu434 2.370 1_556 S
O437 Eu439 2.370 . S
O438 Eu430 2.370 1_556 S
O438 Eu433 2.370 1_556 S
O438 Eu439 2.370 . S
Eu439 O435 2.370 . S
Eu439 O436 2.370 . S
Eu439 O437 2.370 . S
Eu439 O438 2.370 . S
Eu439 O442 2.363 . S
Eu439 O443 2.363 . S
Eu439 O452 2.363 . S
Eu439 O453 2.363 . S
O440 C414 1.283 . S
O440 Eu426 2.363 . S
O441 C415 1.283 . S
O441 Eu426 2.363 . S
O442 C416 1.283 . S
O442 Eu439 2.363 . S
O443 C417 1.283 . S
O443 Eu439 2.363 . S
O444 C418 1.283 . S
O444 Eu429 2.363 1_556 S
O445 C419 1.283 . S
O445 Eu429 2.363 . S
O446 C420 1.283 . S
O446 Eu430 2.363 1_556 S
O447 C421 1.283 . S
O447 Eu430 2.363 . S
O448 C422 1.283 . S
O448 Eu434 2.363 . S
O449 C423 1.283 . S
O449 Eu434 2.363 . S
O450 C424 1.283 . S
O450 Eu433 2.363 . S
O451 C425 1.283 . S
O451 Eu433 2.363 . S
O452 C420 1.283 . S
O452 Eu439 2.363 . S
O453 C418 1.283 . S
O453 Eu439 2.363 . S
O454 C421 1.283 . S
O454 Eu426 2.363 . S
O455 C419 1.283 . S
O455 Eu426 2.363 . S
O456 C415 1.283 . S
O456 Eu434 2.363 . S
O457 C417 1.283 . S
O457 Eu434 2.363 1_556 S
O458 C414 1.283 . S
O458 Eu433 2.363 . S
O459 C416 1.283 . S
O459 Eu433 2.363 1_556 S
O460 C425 1.283 . S
O460 Eu429 2.363 . S
O461 C423 1.283 . S
O461 Eu429 2.363 . S
O462 C424 1.283 . S
O462 Eu430 2.363 . S
O463 C422 1.283 . S
O463 Eu430 2.363 . S
C464 O490 1.283 . S
C464 O508 1.283 . S
C465 O491 1.283 . S
C465 O506 1.283 . S
C466 O492 1.283 . S
C466 O509 1.283 . S
C467 O493 1.283 . S
C467 O507 1.283 . S
C468 O494 1.283 . S
C468 O503 1.283 . S
C469 O495 1.283 . S
C469 O505 1.283 . S
C470 O496 1.283 . S
C470 O502 1.283 . S
C471 O497 1.283 . S
C471 O504 1.283 . S
C472 O498 1.283 . S
C472 O513 1.283 . S
C473 O499 1.283 . S
C473 O511 1.283 . S
C474 O500 1.283 . S
C474 O512 1.283 . S
C475 O501 1.283 . S
C475 O510 1.283 . S
Eu476 O477 2.370 1_455 S
Eu476 O478 2.370 . S
Eu476 O481 2.370 1_455 S
Eu476 O482 2.370 . S
Eu476 O490 2.363 . S
Eu476 O491 2.363 . S
Eu476 O504 2.363 . S
Eu476 O505 2.363 1_455 S
O477 Eu476 2.370 1_655 S
O477 Eu479 2.370 . S
O477 Eu484 2.370 1_655 S
O478 Eu476 2.370 . S
O478 Eu480 2.370 . S
O478 Eu483 2.370 . S
Eu479 O477 2.370 . S
Eu479 O481 2.370 . S
Eu479 O485 2.370 . S
Eu479 O486 2.370 . S
Eu479 O494 2.363 . S
Eu479 O495 2.363 . S
Eu479 O510 2.363 . S
Eu479 O511 2.363 . S
Eu480 O478 2.370 . S
Eu480 O482 2.370 . S
Eu480 O487 2.370 . S
Eu480 O488 2.370 . S
Eu480 O496 2.363 . S
Eu480 O497 2.363 . S
Eu480 O512 2.363 . S
Eu480 O513 2.363 . S
O481 Eu476 2.370 1_655 S
O481 Eu479 2.370 . S
O481 Eu483 2.370 1_655 S
O482 Eu476 2.370 . S
O482 Eu480 2.370 . S
O482 Eu484 2.370 . S
Eu483 O478 2.370 . S
Eu483 O481 2.370 1_455 S
Eu483 O485 2.370 1_455 S
Eu483 O488 2.370 . S
Eu483 O500 2.363 . S
Eu483 O501 2.363 1_455 S
Eu483 O508 2.363 . S
Eu483 O509 2.363 . S
Eu484 O477 2.370 1_455 S
Eu484 O482 2.370 . S
Eu484 O486 2.370 1_455 S
Eu484 O487 2.370 . S
Eu484 O498 2.363 . S
Eu484 O499 2.363 1_455 S
Eu484 O506 2.363 . S
Eu484 O507 2.363 . S
O485 Eu479 2.370 . S
O485 Eu483 2.370 1_655 S
O485 Eu489 2.370 1_655 S
O486 Eu479 2.370 . S
O486 Eu484 2.370 1_655 S
O486 Eu489 2.370 1_655 S
O487 Eu480 2.370 . S
O487 Eu484 2.370 . S
O487 Eu489 2.370 . S
O488 Eu480 2.370 . S
O488 Eu483 2.370 . S
O488 Eu489 2.370 . S
Eu489 O485 2.370 1_455 S
Eu489 O486 2.370 1_455 S
Eu489 O487 2.370 . S
Eu489 O488 2.370 . S
Eu489 O492 2.363 . S
Eu489 O493 2.363 . S
Eu489 O502 2.363 . S
Eu489 O503 2.363 1_455 S
O490 C464 1.283 . S
O490 Eu476 2.363 . S
O491 C465 1.283 . S
O491 Eu476 2.363 . S
O492 C466 1.283 . S
O492 Eu489 2.363 . S
O493 C467 1.283 . S
O493 Eu489 2.363 . S
O494 C468 1.283 . S
O494 Eu479 2.363 . S
O495 C469 1.283 . S
O495 Eu479 2.363 . S
O496 C470 1.283 . S
O496 Eu480 2.363 . S
O497 C471 1.283 . S
O497 Eu480 2.363 . S
O498 C472 1.283 . S
O498 Eu484 2.363 . S
O499 C473 1.283 . S
O499 Eu484 2.363 1_655 S
O500 C474 1.283 . S
O500 Eu483 2.363 . S
O501 C475 1.283 . S
O501 Eu483 2.363 1_655 S
O502 C470 1.283 . S
O502 Eu489 2.363 . S
O503 C468 1.283 . S
O503 Eu489 2.363 1_655 S
O504 C471 1.283 . S
O504 Eu476 2.363 . S
O505 C469 1.283 . S
O505 Eu476 2.363 1_655 S
O506 C465 1.283 . S
O506 Eu484 2.363 . S
O507 C467 1.283 . S
O507 Eu484 2.363 . S
O508 C464 1.283 . S
O508 Eu483 2.363 . S
O509 C466 1.283 . S
O509 Eu483 2.363 . S
O510 C475 1.283 . S
O510 Eu479 2.363 . S
O511 C473 1.283 . S
O511 Eu479 2.363 . S
O512 C474 1.283 . S
O512 Eu480 2.363 . S
O513 C472 1.283 . S
O513 Eu480 2.363 . S
C514 O540 1.283 . S
C514 O558 1.283 . S
C515 O541 1.283 . S
C515 O556 1.283 . S
C516 O542 1.283 . S
C516 O559 1.283 . S
C517 O543 1.283 . S
C517 O557 1.283 . S
C518 O544 1.283 . S
C518 O553 1.283 . S
C519 O545 1.283 . S
C519 O555 1.283 . S
C520 O546 1.283 . S
C520 O552 1.283 . S
C521 O547 1.283 . S
C521 O554 1.283 . S
C522 O548 1.283 . S
C522 O563 1.283 . S
C523 O549 1.283 . S
C523 O561 1.283 . S
C524 O550 1.283 . S
C524 O562 1.283 . S
C525 O551 1.283 . S
C525 O560 1.283 . S
Eu526 O527 2.370 . S
Eu526 O528 2.370 . S
Eu526 O531 2.370 . S
Eu526 O532 2.370 . S
Eu526 O540 2.363 . S
Eu526 O541 2.363 . S
Eu526 O554 2.363 . S
Eu526 O555 2.363 . S
O527 Eu526 2.370 . S
O527 Eu529 2.370 1_565 S
O527 Eu534 2.370 1_565 S
O528 Eu526 2.370 . S
O528 Eu530 2.370 1_565 S
O528 Eu533 2.370 1_565 S
Eu529 O527 2.370 1_545 S
Eu529 O531 2.370 1_545 S
Eu529 O535 2.370 . S
Eu529 O536 2.370 . S
Eu529 O544 2.363 . S
Eu529 O545 2.363 1_545 S
Eu529 O560 2.363 . S
Eu529 O561 2.363 . S
Eu530 O528 2.370 1_545 S
Eu530 O532 2.370 1_545 S
Eu530 O537 2.370 . S
Eu530 O538 2.370 . S
Eu530 O546 2.363 . S
Eu530 O547 2.363 1_545 S
Eu530 O562 2.363 . S
Eu530 O563 2.363 . S
O531 Eu526 2.370 . S
O531 Eu529 2.370 1_565 S
O531 Eu533 2.370 1_565 S
O532 Eu526 2.370 . S
O532 Eu530 2.370 1_565 S
O532 Eu534 2.370 1_565 S
Eu533 O528 2.370 1_545 S
Eu533 O531 2.370 1_545 S
Eu533 O535 2.370 . S
Eu533 O538 2.370 . S
Eu533 O550 2.363 . S
Eu533 O551 2.363 . S
Eu533 O558 2.363 1_545 S
Eu533 O559 2.363 . S
Eu534 O527 2.370 1_545 S
Eu534 O532 2.370 1_545 S
Eu534 O536 2.370 . S
Eu534 O537 2.370 . S
Eu534 O548 2.363 . S
Eu534 O549 2.363 . S
Eu534 O556 2.363 1_545 S
Eu534 O557 2.363 . S
O535 Eu529 2.370 . S
O535 Eu533 2.370 . S
O535 Eu539 2.370 . S
O536 Eu529 2.370 . S
O536 Eu534 2.370 . S
O536 Eu539 2.370 . S
O537 Eu530 2.370 . S
O537 Eu534 2.370 . S
O537 Eu539 2.370 . S
O538 Eu530 2.370 . S
O538 Eu533 2.370 . S
O538 Eu539 2.370 . S
Eu539 O535 2.370 . S
Eu539 O536 2.370 . S
Eu539 O537 2.370 . S
Eu539 O538 2.370 . S
Eu539 O542 2.363 . S
Eu539 O543 2.363 . S
Eu539 O552 2.363 . S
Eu539 O553 2.363 . S
O540 C514 1.283 . S
O540 Eu526 2.363 . S
O541 C515 1.283 . S
O541 Eu526 2.363 . S
O542 C516 1.283 . S
O542 Eu539 2.363 . S
O543 C517 1.283 . S
O543 Eu539 2.363 . S
O544 C518 1.283 . S
O544 Eu529 2.363 . S
O545 C519 1.283 . S
O545 Eu529 2.363 1_565 S
O546 C520 1.283 . S
O546 Eu530 2.363 . S
O547 C521 1.283 . S
O547 Eu530 2.363 1_565 S
O548 C522 1.283 . S
O548 Eu534 2.363 . S
O549 C523 1.283 . S
O549 Eu534 2.363 . S
O550 C524 1.283 . S
O550 Eu533 2.363 . S
O551 C525 1.283 . S
O551 Eu533 2.363 . S
O552 C520 1.283 . S
O552 Eu539 2.363 . S
O553 C518 1.283 . S
O553 Eu539 2.363 . S
O554 C521 1.283 . S
O554 Eu526 2.363 . S
O555 C519 1.283 . S
O555 Eu526 2.363 . S
O556 C515 1.283 . S
O556 Eu534 2.363 1_565 S
O557 C517 1.283 . S
O557 Eu534 2.363 . S
O558 C514 1.283 . S
O558 Eu533 2.363 1_565 S
O559 C516 1.283 . S
O559 Eu533 2.363 . S
O560 C525 1.283 . S
O560 Eu529 2.363 . S
O561 C523 1.283 . S
O561 Eu529 2.363 . S
O562 C524 1.283 . S
O562 Eu530 2.363 . S
O563 C522 1.283 . S
O563 Eu530 2.363 . S
C564 C565 1.391 . S
C564 C566 1.394 . S
C564 H580 0.931 . S
C565 C564 1.391 . S
C565 C569 1.376 . S
C566 C564 1.394 . S
C566 C567 1.369 . S
C566 C570 1.531 . S
C567 C566 1.369 . S
C567 C568 1.410 . S
C567 C575 1.503 . S
C568 C567 1.410 . S
C568 C569 1.392 . S
C568 C571 1.511 . S
C569 C565 1.376 . S
C569 C568 1.392 . S
C569 H581 0.929 . S
C570 C566 1.531 . S
C570 H582 0.960 . S
C570 H583 0.962 . S
C570 H584 0.960 . S
C571 C568 1.511 . S
C571 H585 0.961 . S
C571 H586 0.961 . S
C571 H587 0.961 . S
C572 C573 1.370 . S
C572 C574 1.363 . S
C572 H588 0.931 . S
C573 C572 1.370 . S
C573 C577 1.408 . S
C574 C572 1.363 . S
C574 C575 1.370 . S
C574 C578 1.524 . S
C575 C567 1.503 . S
C575 C574 1.370 . S
C575 C576 1.403 . S
C576 C575 1.403 . S
C576 C577 1.404 . S
C576 C579 1.539 . S
C577 C573 1.408 . S
C577 C576 1.404 . S
C577 H589 0.930 . S
C578 C574 1.524 . S
C578 H590 0.956 . S
C578 H591 0.961 . S
C578 H592 0.961 . S
C579 C576 1.539 . S
C579 H593 0.958 . S
C579 H594 0.961 . S
C579 H595 0.960 . S
H580 C564 0.931 . S
H581 C569 0.929 . S
H582 C570 0.960 . S
H583 C570 0.962 . S
H584 C570 0.960 . S
H585 C571 0.961 . S
H586 C571 0.961 . S
H587 C571 0.961 . S
H588 C572 0.931 . S
H589 C577 0.930 . S
H590 C578 0.956 . S
H591 C578 0.961 . S
H592 C578 0.961 . S
H593 C579 0.958 . S
H594 C579 0.961 . S
H595 C579 0.960 . S
C596 C597 1.391 . S
C596 C598 1.394 . S
C596 H612 0.931 . S
C597 C596 1.391 . S
C597 C601 1.376 . S
C598 C596 1.394 . S
C598 C599 1.369 . S
C598 C602 1.531 . S
C599 C598 1.369 . S
C599 C600 1.410 . S
C599 C607 1.503 . S
C600 C599 1.410 . S
C600 C601 1.392 . S
C600 C603 1.511 . S
C601 C597 1.376 . S
C601 C600 1.392 . S
C601 H613 0.929 . S
C602 C598 1.531 . S
C602 H614 0.960 . S
C602 H615 0.962 . S
C602 H616 0.960 . S
C603 C600 1.511 . S
C603 H617 0.961 . S
C603 H618 0.961 . S
C603 H619 0.961 . S
C604 C605 1.370 . S
C604 C606 1.363 . S
C604 H620 0.931 . S
C605 C604 1.370 . S
C605 C609 1.408 . S
C606 C604 1.363 . S
C606 C607 1.370 . S
C606 C610 1.524 . S
C607 C599 1.503 . S
C607 C606 1.370 . S
C607 C608 1.403 . S
C608 C607 1.403 . S
C608 C609 1.404 . S
C608 C611 1.539 . S
C609 C605 1.408 . S
C609 C608 1.404 . S
C609 H621 0.930 . S
C610 C606 1.524 . S
C610 H622 0.956 . S
C610 H623 0.961 . S
C610 H624 0.961 . S
C611 C608 1.539 . S
C611 H625 0.958 . S
C611 H626 0.961 . S
C611 H627 0.960 . S
H612 C596 0.931 . S
H613 C601 0.929 . S
H614 C602 0.960 . S
H615 C602 0.962 . S
H616 C602 0.960 . S
H617 C603 0.961 . S
H618 C603 0.961 . S
H619 C603 0.961 . S
H620 C604 0.931 . S
H621 C609 0.930 . S
H622 C610 0.956 . S
H623 C610 0.961 . S
H624 C610 0.961 . S
H625 C611 0.958 . S
H626 C611 0.961 . S
H627 C611 0.960 . S
C628 C629 1.391 . S
C628 C630 1.394 . S
C628 H644 0.931 . S
C629 C628 1.391 . S
C629 C633 1.376 . S
C630 C628 1.394 . S
C630 C631 1.369 . S
C630 C634 1.531 . S
C631 C630 1.369 . S
C631 C632 1.410 . S
C631 C639 1.503 . S
C632 C631 1.410 . S
C632 C633 1.392 . S
C632 C635 1.511 . S
C633 C629 1.376 . S
C633 C632 1.392 . S
C633 H645 0.929 . S
C634 C630 1.531 . S
C634 H646 0.960 . S
C634 H647 0.962 . S
C634 H648 0.960 . S
C635 C632 1.511 . S
C635 H649 0.961 . S
C635 H650 0.961 . S
C635 H651 0.961 . S
C636 C637 1.370 . S
C636 C638 1.363 . S
C636 H652 0.931 . S
C637 C636 1.370 . S
C637 C641 1.408 . S
C638 C636 1.363 . S
C638 C639 1.370 . S
C638 C642 1.524 . S
C639 C631 1.503 . S
C639 C638 1.370 . S
C639 C640 1.403 . S
C640 C639 1.403 . S
C640 C641 1.404 . S
C640 C643 1.539 . S
C641 C637 1.408 . S
C641 C640 1.404 . S
C641 H653 0.930 . S
C642 C638 1.524 . S
C642 H654 0.956 . S
C642 H655 0.961 . S
C642 H656 0.961 . S
C643 C640 1.539 . S
C643 H657 0.958 . S
C643 H658 0.961 . S
C643 H659 0.960 . S
H644 C628 0.931 . S
H645 C633 0.929 . S
H646 C634 0.960 . S
H647 C634 0.962 . S
H648 C634 0.960 . S
H649 C635 0.961 . S
H650 C635 0.961 . S
H651 C635 0.961 . S
H652 C636 0.931 . S
H653 C641 0.930 . S
H654 C642 0.956 . S
H655 C642 0.961 . S
H656 C642 0.961 . S
H657 C643 0.958 . S
H658 C643 0.961 . S
H659 C643 0.960 . S
C660 C661 1.391 . S
C660 C662 1.394 . S
C660 H676 0.931 . S
C661 C660 1.391 . S
C661 C665 1.376 . S
C662 C660 1.394 . S
C662 C663 1.369 . S
C662 C666 1.531 . S
C663 C662 1.369 . S
C663 C664 1.410 . S
C663 C671 1.503 . S
C664 C663 1.410 . S
C664 C665 1.392 . S
C664 C667 1.511 . S
C665 C661 1.376 . S
C665 C664 1.392 . S
C665 H677 0.929 . S
C666 C662 1.531 . S
C666 H678 0.960 . S
C666 H679 0.962 . S
C666 H680 0.960 . S
C667 C664 1.511 . S
C667 H681 0.961 . S
C667 H682 0.961 . S
C667 H683 0.961 . S
C668 C669 1.370 . S
C668 C670 1.363 . S
C668 H684 0.931 . S
C669 C668 1.370 . S
C669 C673 1.408 . S
C670 C668 1.363 . S
C670 C671 1.370 . S
C670 C674 1.524 . S
C671 C663 1.503 . S
C671 C670 1.370 . S
C671 C672 1.403 . S
C672 C671 1.403 . S
C672 C673 1.404 . S
C672 C675 1.539 . S
C673 C669 1.408 . S
C673 C672 1.404 . S
C673 H685 0.930 . S
C674 C670 1.524 . S
C674 H686 0.956 . S
C674 H687 0.961 . S
C674 H688 0.961 . S
C675 C672 1.539 . S
C675 H689 0.958 . S
C675 H690 0.961 . S
C675 H691 0.960 . S
H676 C660 0.931 . S
H677 C665 0.929 . S
H678 C666 0.960 . S
H679 C666 0.962 . S
H680 C666 0.960 . S
H681 C667 0.961 . S
H682 C667 0.961 . S
H683 C667 0.961 . S
H684 C668 0.931 . S
H685 C673 0.930 . S
H686 C674 0.956 . S
H687 C674 0.961 . S
H688 C674 0.961 . S
H689 C675 0.958 . S
H690 C675 0.961 . S
H691 C675 0.960 . S
C692 C693 1.391 . S
C692 C694 1.394 . S
C692 H708 0.931 . S
C693 C692 1.391 . S
C693 C697 1.376 . S
C694 C692 1.394 . S
C694 C695 1.369 . S
C694 C698 1.531 . S
C695 C694 1.369 . S
C695 C696 1.410 . S
C695 C703 1.503 . S
C696 C695 1.410 . S
C696 C697 1.392 . S
C696 C699 1.511 . S
C697 C693 1.376 . S
C697 C696 1.392 . S
C697 H709 0.929 . S
C698 C694 1.531 . S
C698 H710 0.960 . S
C698 H711 0.962 . S
C698 H712 0.960 . S
C699 C696 1.511 . S
C699 H713 0.961 . S
C699 H714 0.961 . S
C699 H715 0.961 . S
C700 C701 1.370 . S
C700 C702 1.363 . S
C700 H716 0.931 . S
C701 C700 1.370 . S
C701 C705 1.408 . S
C702 C700 1.363 . S
C702 C703 1.370 . S
C702 C706 1.524 . S
C703 C695 1.503 . S
C703 C702 1.370 . S
C703 C704 1.403 . S
C704 C703 1.403 . S
C704 C705 1.404 . S
C704 C707 1.539 . S
C705 C701 1.408 . S
C705 C704 1.404 . S
C705 H717 0.930 . S
C706 C702 1.524 . S
C706 H718 0.956 . S
C706 H719 0.961 . S
C706 H720 0.961 . S
C707 C704 1.539 . S
C707 H721 0.958 . S
C707 H722 0.961 . S
C707 H723 0.960 . S
H708 C692 0.931 . S
H709 C697 0.929 . S
H710 C698 0.960 . S
H711 C698 0.962 . S
H712 C698 0.960 . S
H713 C699 0.961 . S
H714 C699 0.961 . S
H715 C699 0.961 . S
H716 C700 0.931 . S
H717 C705 0.930 . S
H718 C706 0.956 . S
H719 C706 0.961 . S
H720 C706 0.961 . S
H721 C707 0.958 . S
H722 C707 0.961 . S
H723 C707 0.960 . S
C724 C725 1.391 . S
C724 C726 1.394 . S
C724 H740 0.931 . S
C725 C724 1.391 . S
C725 C729 1.376 . S
C726 C724 1.394 . S
C726 C727 1.369 . S
C726 C730 1.531 . S
C727 C726 1.369 . S
C727 C728 1.410 . S
C727 C735 1.503 . S
C728 C727 1.410 . S
C728 C729 1.392 . S
C728 C731 1.511 . S
C729 C725 1.376 . S
C729 C728 1.392 . S
C729 H741 0.929 . S
C730 C726 1.531 . S
C730 H742 0.960 . S
C730 H743 0.962 . S
C730 H744 0.960 . S
C731 C728 1.511 . S
C731 H745 0.961 . S
C731 H746 0.961 . S
C731 H747 0.961 . S
C732 C733 1.370 . S
C732 C734 1.363 . S
C732 H748 0.931 . S
C733 C732 1.370 . S
C733 C737 1.408 . S
C734 C732 1.363 . S
C734 C735 1.370 . S
C734 C738 1.524 . S
C735 C727 1.503 . S
C735 C734 1.370 . S
C735 C736 1.403 . S
C736 C735 1.403 . S
C736 C737 1.404 . S
C736 C739 1.539 . S
C737 C733 1.408 . S
C737 C736 1.404 . S
C737 H749 0.930 . S
C738 C734 1.524 . S
C738 H750 0.956 . S
C738 H751 0.961 . S
C738 H752 0.961 . S
C739 C736 1.539 . S
C739 H753 0.958 . S
C739 H754 0.961 . S
C739 H755 0.960 . S
H740 C724 0.931 . S
H741 C729 0.929 . S
H742 C730 0.960 . S
H743 C730 0.962 . S
H744 C730 0.960 . S
H745 C731 0.961 . S
H746 C731 0.961 . S
H747 C731 0.961 . S
H748 C732 0.931 . S
H749 C737 0.930 . S
H750 C738 0.956 . S
H751 C738 0.961 . S
H752 C738 0.961 . S
H753 C739 0.958 . S
H754 C739 0.961 . S
H755 C739 0.960 . S
C756 C757 1.391 . S
C756 C758 1.394 . S
C756 H772 0.931 . S
C757 C756 1.391 . S
C757 C761 1.376 . S
C758 C756 1.394 . S
C758 C759 1.369 . S
C758 C762 1.531 . S
C759 C758 1.369 . S
C759 C760 1.410 . S
C759 C767 1.503 . S
C760 C759 1.410 . S
C760 C761 1.392 . S
C760 C763 1.511 . S
C761 C757 1.376 . S
C761 C760 1.392 . S
C761 H773 0.929 . S
C762 C758 1.531 . S
C762 H774 0.960 . S
C762 H775 0.962 . S
C762 H776 0.960 . S
C763 C760 1.511 . S
C763 H777 0.961 . S
C763 H778 0.961 . S
C763 H779 0.961 . S
C764 C765 1.370 . S
C764 C766 1.363 . S
C764 H780 0.931 . S
C765 C764 1.370 . S
C765 C769 1.408 . S
C766 C764 1.363 . S
C766 C767 1.370 . S
C766 C770 1.524 . S
C767 C759 1.503 . S
C767 C766 1.370 . S
C767 C768 1.403 . S
C768 C767 1.403 . S
C768 C769 1.404 . S
C768 C771 1.539 . S
C769 C765 1.408 . S
C769 C768 1.404 . S
C769 H781 0.930 . S
C770 C766 1.524 . S
C770 H782 0.956 . S
C770 H783 0.961 . S
C770 H784 0.961 . S
C771 C768 1.539 . S
C771 H785 0.958 . S
C771 H786 0.961 . S
C771 H787 0.960 . S
H772 C756 0.931 . S
H773 C761 0.929 . S
H774 C762 0.960 . S
H775 C762 0.962 . S
H776 C762 0.960 . S
H777 C763 0.961 . S
H778 C763 0.961 . S
H779 C763 0.961 . S
H780 C764 0.931 . S
H781 C769 0.930 . S
H782 C770 0.956 . S
H783 C770 0.961 . S
H784 C770 0.961 . S
H785 C771 0.958 . S
H786 C771 0.961 . S
H787 C771 0.960 . S
C788 C789 1.391 . S
C788 C790 1.394 . S
C788 H804 0.931 . S
C789 C788 1.391 . S
C789 C793 1.376 . S
C790 C788 1.394 . S
C790 C791 1.369 . S
C790 C794 1.531 . S
C791 C790 1.369 . S
C791 C792 1.410 . S
C791 C799 1.503 . S
C792 C791 1.410 . S
C792 C793 1.392 . S
C792 C795 1.511 . S
C793 C789 1.376 . S
C793 C792 1.392 . S
C793 H805 0.929 . S
C794 C790 1.531 . S
C794 H806 0.960 . S
C794 H807 0.962 . S
C794 H808 0.960 . S
C795 C792 1.511 . S
C795 H809 0.961 . S
C795 H810 0.961 . S
C795 H811 0.961 . S
C796 C797 1.370 . S
C796 C798 1.363 . S
C796 H812 0.931 . S
C797 C796 1.370 . S
C797 C801 1.408 . S
C798 C796 1.363 . S
C798 C799 1.370 . S
C798 C802 1.524 . S
C799 C791 1.503 . S
C799 C798 1.370 . S
C799 C800 1.403 . S
C800 C799 1.403 . S
C800 C801 1.404 . S
C800 C803 1.539 . S
C801 C797 1.408 . S
C801 C800 1.404 . S
C801 H813 0.930 . S
C802 C798 1.524 . S
C802 H814 0.956 . S
C802 H815 0.961 . S
C802 H816 0.961 . S
C803 C800 1.539 . S
C803 H817 0.958 . S
C803 H818 0.961 . S
C803 H819 0.960 . S
H804 C788 0.931 . S
H805 C793 0.929 . S
H806 C794 0.960 . S
H807 C794 0.962 . S
H808 C794 0.960 . S
H809 C795 0.961 . S
H810 C795 0.961 . S
H811 C795 0.961 . S
H812 C796 0.931 . S
H813 C801 0.930 . S
H814 C802 0.956 . S
H815 C802 0.961 . S
H816 C802 0.961 . S
H817 C803 0.958 . S
H818 C803 0.961 . S
H819 C803 0.960 . S
C820 C821 1.391 . S
C820 C822 1.394 . S
C820 H836 0.931 . S
C821 C820 1.391 . S
C821 C825 1.376 . S
C822 C820 1.394 . S
C822 C823 1.369 . S
C822 C826 1.531 . S
C823 C822 1.369 . S
C823 C824 1.410 . S
C823 C831 1.503 . S
C824 C823 1.410 . S
C824 C825 1.392 . S
C824 C827 1.511 . S
C825 C821 1.376 . S
C825 C824 1.392 . S
C825 H837 0.929 . S
C826 C822 1.531 . S
C826 H838 0.960 . S
C826 H839 0.962 . S
C826 H840 0.960 . S
C827 C824 1.511 . S
C827 H841 0.961 . S
C827 H842 0.961 . S
C827 H843 0.961 . S
C828 C829 1.370 . S
C828 C830 1.363 . S
C828 H844 0.931 . S
C829 C828 1.370 . S
C829 C833 1.408 . S
C830 C828 1.363 . S
C830 C831 1.370 . S
C830 C834 1.524 . S
C831 C823 1.503 . S
C831 C830 1.370 . S
C831 C832 1.403 . S
C832 C831 1.403 . S
C832 C833 1.404 . S
C832 C835 1.539 . S
C833 C829 1.408 . S
C833 C832 1.404 . S
C833 H845 0.930 . S
C834 C830 1.524 . S
C834 H846 0.956 . S
C834 H847 0.961 . S
C834 H848 0.961 . S
C835 C832 1.539 . S
C835 H849 0.958 . S
C835 H850 0.961 . S
C835 H851 0.960 . S
H836 C820 0.931 . S
H837 C825 0.929 . S
H838 C826 0.960 . S
H839 C826 0.962 . S
H840 C826 0.960 . S
H841 C827 0.961 . S
H842 C827 0.961 . S
H843 C827 0.961 . S
H844 C828 0.931 . S
H845 C833 0.930 . S
H846 C834 0.956 . S
H847 C834 0.961 . S
H848 C834 0.961 . S
H849 C835 0.958 . S
H850 C835 0.961 . S
H851 C835 0.960 . S
C852 C853 1.391 . S
C852 C854 1.394 . S
C852 H868 0.931 . S
C853 C852 1.391 . S
C853 C857 1.376 . S
C854 C852 1.394 . S
C854 C855 1.369 . S
C854 C858 1.531 . S
C855 C854 1.369 . S
C855 C856 1.410 . S
C855 C863 1.503 . S
C856 C855 1.410 . S
C856 C857 1.392 . S
C856 C859 1.511 . S
C857 C853 1.376 . S
C857 C856 1.392 . S
C857 H869 0.929 . S
C858 C854 1.531 . S
C858 H870 0.960 . S
C858 H871 0.962 . S
C858 H872 0.960 . S
C859 C856 1.511 . S
C859 H873 0.961 . S
C859 H874 0.961 . S
C859 H875 0.961 . S
C860 C861 1.370 . S
C860 C862 1.363 . S
C860 H876 0.931 . S
C861 C860 1.370 . S
C861 C865 1.408 . S
C862 C860 1.363 . S
C862 C863 1.370 . S
C862 C866 1.524 . S
C863 C855 1.503 . S
C863 C862 1.370 . S
C863 C864 1.403 . S
C864 C863 1.403 . S
C864 C865 1.404 . S
C864 C867 1.539 . S
C865 C861 1.408 . S
C865 C864 1.404 . S
C865 H877 0.930 . S
C866 C862 1.524 . S
C866 H878 0.956 . S
C866 H879 0.961 . S
C866 H880 0.961 . S
C867 C864 1.539 . S
C867 H881 0.958 . S
C867 H882 0.961 . S
C867 H883 0.960 . S
H868 C852 0.931 . S
H869 C857 0.929 . S
H870 C858 0.960 . S
H871 C858 0.962 . S
H872 C858 0.960 . S
H873 C859 0.961 . S
H874 C859 0.961 . S
H875 C859 0.961 . S
H876 C860 0.931 . S
H877 C865 0.930 . S
H878 C866 0.956 . S
H879 C866 0.961 . S
H880 C866 0.961 . S
H881 C867 0.958 . S
H882 C867 0.961 . S
H883 C867 0.960 . S
C884 C885 1.391 . S
C884 C886 1.394 . S
C884 H900 0.931 . S
C885 C884 1.391 . S
C885 C889 1.376 . S
C886 C884 1.394 . S
C886 C887 1.369 . S
C886 C890 1.531 . S
C887 C886 1.369 . S
C887 C888 1.410 . S
C887 C895 1.503 . S
C888 C887 1.410 . S
C888 C889 1.392 . S
C888 C891 1.511 . S
C889 C885 1.376 . S
C889 C888 1.392 . S
C889 H901 0.929 . S
C890 C886 1.531 . S
C890 H902 0.960 . S
C890 H903 0.962 . S
C890 H904 0.960 . S
C891 C888 1.511 . S
C891 H905 0.961 . S
C891 H906 0.961 . S
C891 H907 0.961 . S
C892 C893 1.370 . S
C892 C894 1.363 . S
C892 H908 0.931 . S
C893 C892 1.370 . S
C893 C897 1.408 . S
C894 C892 1.363 . S
C894 C895 1.370 . S
C894 C898 1.524 . S
C895 C887 1.503 . S
C895 C894 1.370 . S
C895 C896 1.403 . S
C896 C895 1.403 . S
C896 C897 1.404 . S
C896 C899 1.539 . S
C897 C893 1.408 . S
C897 C896 1.404 . S
C897 H909 0.930 . S
C898 C894 1.524 . S
C898 H910 0.956 . S
C898 H911 0.961 . S
C898 H912 0.961 . S
C899 C896 1.539 . S
C899 H913 0.958 . S
C899 H914 0.961 . S
C899 H915 0.960 . S
H900 C884 0.931 . S
H901 C889 0.929 . S
H902 C890 0.960 . S
H903 C890 0.962 . S
H904 C890 0.960 . S
H905 C891 0.961 . S
H906 C891 0.961 . S
H907 C891 0.961 . S
H908 C892 0.931 . S
H909 C897 0.930 . S
H910 C898 0.956 . S
H911 C898 0.961 . S
H912 C898 0.961 . S
H913 C899 0.958 . S
H914 C899 0.961 . S
H915 C899 0.960 . S
C916 C917 1.391 . S
C916 C918 1.394 . S
C916 H932 0.931 . S
C917 C916 1.391 . S
C917 C921 1.376 . S
C918 C916 1.394 . S
C918 C919 1.369 . S
C918 C922 1.531 . S
C919 C918 1.369 . S
C919 C920 1.410 . S
C919 C927 1.503 . S
C920 C919 1.410 . S
C920 C921 1.392 . S
C920 C923 1.511 . S
C921 C917 1.376 . S
C921 C920 1.392 . S
C921 H933 0.929 . S
C922 C918 1.531 . S
C922 H934 0.960 . S
C922 H935 0.962 . S
C922 H936 0.960 . S
C923 C920 1.511 . S
C923 H937 0.961 . S
C923 H938 0.961 . S
C923 H939 0.961 . S
C924 C925 1.370 . S
C924 C926 1.363 . S
C924 H940 0.931 . S
C925 C924 1.370 . S
C925 C929 1.408 . S
C926 C924 1.363 . S
C926 C927 1.370 . S
C926 C930 1.524 . S
C927 C919 1.503 . S
C927 C926 1.370 . S
C927 C928 1.403 . S
C928 C927 1.403 . S
C928 C929 1.404 . S
C928 C931 1.539 . S
C929 C925 1.408 . S
C929 C928 1.404 . S
C929 H941 0.930 . S
C930 C926 1.524 . S
C930 H942 0.956 . S
C930 H943 0.961 . S
C930 H944 0.961 . S
C931 C928 1.539 . S
C931 H945 0.958 . S
C931 H946 0.961 . S
C931 H947 0.960 . S
H932 C916 0.931 . S
H933 C921 0.929 . S
H934 C922 0.960 . S
H935 C922 0.962 . S
H936 C922 0.960 . S
H937 C923 0.961 . S
H938 C923 0.961 . S
H939 C923 0.961 . S
H940 C924 0.931 . S
H941 C929 0.930 . S
H942 C930 0.956 . S
H943 C930 0.961 . S
H944 C930 0.961 . S
H945 C931 0.958 . S
H946 C931 0.961 . S
H947 C931 0.960 . S
C948 C949 1.390 1_556 S
C948 C950 1.393 1_556 S
C948 H964 0.933 . S
C949 C948 1.390 1_554 S
C949 C953 1.376 . S
C950 C948 1.393 1_554 S
C950 C951 1.369 . S
C950 C954 1.531 1_554 S
C951 C950 1.369 . S
C951 C952 1.410 . S
C951 C959 1.503 . S
C952 C951 1.410 . S
C952 C953 1.392 . S
C952 C955 1.511 . S
C953 C949 1.376 . S
C953 C952 1.392 . S
C953 H965 0.929 . S
C954 C950 1.531 1_556 S
C954 H966 0.960 1_556 S
C954 H967 0.962 . S
C954 H968 0.960 1_556 S
C955 C952 1.511 . S
C955 H969 0.961 . S
C955 H970 0.961 . S
C955 H971 0.961 . S
C956 C957 1.370 1_556 S
C956 C958 1.363 . S
C956 H972 0.931 . S
C957 C956 1.370 1_554 S
C957 C961 1.408 . S
C958 C956 1.363 . S
C958 C959 1.370 1_556 S
C958 C962 1.524 . S
C959 C951 1.503 . S
C959 C958 1.370 1_554 S
C959 C960 1.403 . S
C960 C959 1.403 . S
C960 C961 1.404 . S
C960 C963 1.539 . S
C961 C957 1.408 . S
C961 C960 1.404 . S
C961 H973 0.930 . S
C962 C958 1.524 . S
C962 H974 0.956 . S
C962 H975 0.961 . S
C962 H976 0.961 . S
C963 C960 1.539 . S
C963 H977 0.958 . S
C963 H978 0.961 . S
C963 H979 0.960 . S
H964 C948 0.933 . S
H965 C953 0.929 . S
H966 C954 0.960 1_554 S
H967 C954 0.962 . S
H968 C954 0.960 1_554 S
H969 C955 0.961 . S
H970 C955 0.961 . S
H971 C955 0.961 . S
H972 C956 0.931 . S
H973 C961 0.930 . S
H974 C962 0.956 . S
H975 C962 0.961 . S
H976 C962 0.961 . S
H977 C963 0.958 . S
H978 C963 0.961 . S
H979 C963 0.960 . S
C980 C981 1.378 1_554 S
C980 C982 1.394 . S
C980 H996 0.931 . S
C981 C980 1.378 1_556 S
C981 C985 1.389 . S
C982 C980 1.394 . S
C982 C983 1.337 1_554 S
C982 C986 1.531 . S
C983 C982 1.337 1_556 S
C983 C984 1.441 . S
C983 C991 1.503 . S
C984 C983 1.441 . S
C984 C985 1.392 . S
C984 C987 1.511 . S
C985 C981 1.389 . S
C985 C984 1.392 . S
C985 H997 0.929 . S
C986 C982 1.531 . S
C986 H998 0.960 . S
C986 H999 0.962 . S
C986 H1000 0.960 . S
C987 C984 1.511 . S
C987 H1001 0.961 . S
C987 H1002 0.961 . S
C987 H1003 0.961 . S
C988 C989 1.368 1_554 S
C988 C990 1.363 . S
C988 H1004 0.931 . S
C989 C988 1.368 1_556 S
C989 C993 1.410 . S
C990 C988 1.363 . S
C990 C991 1.365 1_554 S
C990 C994 1.524 . S
C991 C983 1.503 . S
C991 C990 1.365 1_556 S
C991 C992 1.408 . S
C992 C991 1.408 . S
C992 C993 1.404 . S
C992 C995 1.539 . S
C993 C989 1.410 . S
C993 C992 1.404 . S
C993 H1005 0.930 . S
C994 C990 1.524 . S
C994 H1006 0.956 . S
C994 H1007 0.961 1_554 S
C994 H1008 0.961 . S
C995 C992 1.539 . S
C995 H1009 0.958 1_556 S
C995 H1010 0.961 . S
C995 H1011 0.960 . S
H996 C980 0.931 . S
H997 C985 0.929 . S
H998 C986 0.960 . S
H999 C986 0.962 . S
H1000 C986 0.960 . S
H1001 C987 0.961 . S
H1002 C987 0.961 . S
H1003 C987 0.961 . S
H1004 C988 0.931 . S
H1005 C993 0.930 . S
H1006 C994 0.956 . S
H1007 C994 0.961 1_556 S
H1008 C994 0.961 . S
H1009 C995 0.958 1_554 S
H1010 C995 0.961 . S
H1011 C995 0.960 . S
C1012 C1013 1.391 . S
C1012 C1014 1.394 . S
C1012 H1028 0.931 . S
C1013 C1012 1.391 . S
C1013 C1017 1.376 1_556 S
C1014 C1012 1.394 . S
C1014 C1015 1.369 . S
C1014 C1018 1.531 . S
C1015 C1014 1.369 . S
C1015 C1016 1.410 1_556 S
C1015 C1023 1.503 . S
C1016 C1015 1.410 1_554 S
C1016 C1017 1.392 . S
C1016 C1019 1.511 . S
C1017 C1013 1.376 1_554 S
C1017 C1016 1.392 . S
C1017 H1029 0.929 . S
C1018 C1014 1.531 . S
C1018 H1030 0.960 . S
C1018 H1031 0.962 . S
C1018 H1032 0.960 . S
C1019 C1016 1.511 . S
C1019 H1033 0.961 . S
C1019 H1034 0.961 . S
C1019 H1035 0.961 . S
C1020 C1021 1.363 1_554 S
C1020 C1022 1.363 . S
C1020 H1036 0.931 . S
C1021 C1020 1.363 1_556 S
C1021 C1025 1.416 . S
C1022 C1020 1.363 . S
C1022 C1023 1.370 1_554 S
C1022 C1026 1.524 . S
C1023 C1015 1.503 . S
C1023 C1022 1.370 1_556 S
C1023 C1024 1.403 . S
C1024 C1023 1.403 . S
C1024 C1025 1.404 . S
C1024 C1027 1.539 . S
C1025 C1021 1.416 . S
C1025 C1024 1.404 . S
C1025 H1037 0.930 . S
C1026 C1022 1.524 . S
C1026 H1038 0.956 . S
C1026 H1039 0.961 . S
C1026 H1040 0.961 . S
C1027 C1024 1.539 . S
C1027 H1041 0.958 . S
C1027 H1042 0.961 . S
C1027 H1043 0.960 . S
H1028 C1012 0.931 . S
H1029 C1017 0.929 . S
H1030 C1018 0.960 . S
H1031 C1018 0.962 . S
H1032 C1018 0.960 . S
H1033 C1019 0.961 . S
H1034 C1019 0.961 . S
H1035 C1019 0.961 . S
H1036 C1020 0.931 . S
H1037 C1025 0.930 . S
H1038 C1026 0.956 . S
H1039 C1026 0.961 . S
H1040 C1026 0.961 . S
H1041 C1027 0.958 . S
H1042 C1027 0.961 . S
H1043 C1027 0.960 . S
C1044 C1045 1.391 1_554 S
C1044 C1046 1.394 . S
C1044 H1060 0.931 . S
C1045 C1044 1.391 1_556 S
C1045 C1049 1.376 . S
C1046 C1044 1.394 . S
C1046 C1047 1.369 1_554 S
C1046 C1050 1.531 . S
C1047 C1046 1.369 1_556 S
C1047 C1048 1.410 . S
C1047 C1055 1.503 . S
C1048 C1047 1.410 . S
C1048 C1049 1.392 . S
C1048 C1051 1.511 . S
C1049 C1045 1.376 . S
C1049 C1048 1.392 . S
C1049 H1061 0.929 . S
C1050 C1046 1.531 . S
C1050 H1062 0.960 . S
C1050 H1063 0.962 . S
C1050 H1064 0.960 . S
C1051 C1048 1.511 . S
C1051 H1065 0.961 . S
C1051 H1066 0.961 . S
C1051 H1067 0.961 . S
C1052 C1053 1.352 1_554 S
C1052 C1054 1.363 . S
C1052 H1068 0.931 . S
C1053 C1052 1.352 1_556 S
C1053 C1057 1.428 . S
C1054 C1052 1.363 . S
C1054 C1055 1.370 1_554 S
C1054 C1058 1.524 . S
C1055 C1047 1.503 . S
C1055 C1054 1.370 1_556 S
C1055 C1056 1.403 . S
C1056 C1055 1.403 . S
C1056 C1057 1.404 . S
C1056 C1059 1.539 . S
C1057 C1053 1.428 . S
C1057 C1056 1.404 . S
C1057 H1069 0.930 . S
C1058 C1054 1.524 . S
C1058 H1070 0.956 . S
C1058 H1071 0.961 . S
C1058 H1072 0.961 . S
C1059 C1056 1.539 . S
C1059 H1073 0.958 . S
C1059 H1074 0.961 . S
C1059 H1075 0.960 . S
H1060 C1044 0.931 . S
H1061 C1049 0.929 . S
H1062 C1050 0.960 . S
H1063 C1050 0.962 . S
H1064 C1050 0.960 . S
H1065 C1051 0.961 . S
H1066 C1051 0.961 . S
H1067 C1051 0.961 . S
H1068 C1052 0.931 . S
H1069 C1057 0.930 . S
H1070 C1058 0.956 . S
H1071 C1058 0.961 . S
H1072 C1058 0.961 . S
H1073 C1059 0.958 . S
H1074 C1059 0.961 . S
H1075 C1059 0.960 . S
C1076 C1077 1.362 1_455 S
C1076 C1078 1.394 . S
C1076 H1092 0.931 . S
C1077 C1076 1.362 1_655 S
C1077 C1081 1.407 . S
C1078 C1076 1.394 . S
C1078 C1079 1.369 1_455 S
C1078 C1082 1.531 . S
C1079 C1078 1.369 1_655 S
C1079 C1080 1.410 . S
C1079 C1087 1.503 . S
C1080 C1079 1.410 . S
C1080 C1081 1.392 . S
C1080 C1083 1.511 . S
C1081 C1077 1.407 . S
C1081 C1080 1.392 . S
C1081 H1093 0.929 . S
C1082 C1078 1.531 . S
C1082 H1094 0.960 . S
C1082 H1095 0.962 . S
C1082 H1096 0.960 . S
C1083 C1080 1.511 . S
C1083 H1097 0.961 . S
C1083 H1098 0.961 . S
C1083 H1099 0.961 . S
C1084 C1085 1.364 1_455 S
C1084 C1086 1.363 . S
C1084 H1100 0.931 . S
C1085 C1084 1.364 1_655 S
C1085 C1089 1.415 . S
C1086 C1084 1.363 . S
C1086 C1087 1.370 1_455 S
C1086 C1090 1.524 . S
C1087 C1079 1.503 . S
C1087 C1086 1.370 1_655 S
C1087 C1088 1.403 . S
C1088 C1087 1.403 . S
C1088 C1089 1.404 . S
C1088 C1091 1.539 . S
C1089 C1085 1.415 . S
C1089 C1088 1.404 . S
C1089 H1101 0.930 . S
C1090 C1086 1.524 . S
C1090 H1102 0.956 . S
C1090 H1103 0.961 . S
C1090 H1104 0.961 . S
C1091 C1088 1.539 . S
C1091 H1105 0.958 . S
C1091 H1106 0.961 . S
C1091 H1107 0.960 . S
H1092 C1076 0.931 . S
H1093 C1081 0.929 . S
H1094 C1082 0.960 . S
H1095 C1082 0.962 . S
H1096 C1082 0.960 . S
H1097 C1083 0.961 . S
H1098 C1083 0.961 . S
H1099 C1083 0.961 . S
H1100 C1084 0.931 . S
H1101 C1089 0.930 . S
H1102 C1090 0.956 . S
H1103 C1090 0.961 . S
H1104 C1090 0.961 . S
H1105 C1091 0.958 . S
H1106 C1091 0.961 . S
H1107 C1091 0.960 . S
C1108 C1109 1.391 . S
C1108 C1110 1.394 . S
C1108 H1124 0.931 . S
C1109 C1108 1.391 . S
C1109 C1113 1.376 1_545 S
C1110 C1108 1.394 . S
C1110 C1111 1.369 . S
C1110 C1114 1.531 . S
C1111 C1110 1.369 . S
C1111 C1112 1.400 1_545 S
C1111 C1119 1.503 . S
C1112 C1111 1.400 1_565 S
C1112 C1113 1.396 . S
C1112 C1115 1.520 . S
C1113 C1109 1.376 1_565 S
C1113 C1112 1.396 . S
C1113 H1125 0.929 . S
C1114 C1110 1.531 . S
C1114 H1126 0.960 . S
C1114 H1127 0.962 . S
C1114 H1128 0.960 . S
C1115 C1112 1.520 . S
C1115 H1129 0.961 . S
C1115 H1130 0.961 . S
C1115 H1131 0.961 1_565 S
C1116 C1117 1.336 1_565 S
C1116 C1118 1.363 . S
C1116 H1132 0.931 . S
C1117 C1116 1.336 1_545 S
C1117 C1121 1.447 . S
C1118 C1116 1.363 . S
C1118 C1119 1.370 1_565 S
C1118 C1122 1.524 . S
C1119 C1111 1.503 . S
C1119 C1118 1.370 1_545 S
C1119 C1120 1.403 . S
C1120 C1119 1.403 . S
C1120 C1121 1.404 . S
C1120 C1123 1.539 . S
C1121 C1117 1.447 . S
C1121 C1120 1.404 . S
C1121 H1133 0.930 . S
C1122 C1118 1.524 . S
C1122 H1134 0.956 . S
C1122 H1135 0.961 . S
C1122 H1136 0.961 . S
C1123 C1120 1.539 . S
C1123 H1137 0.958 . S
C1123 H1138 0.961 . S
C1123 H1139 0.960 . S
H1124 C1108 0.931 . S
H1125 C1113 0.929 . S
H1126 C1114 0.960 . S
H1127 C1114 0.962 . S
H1128 C1114 0.960 . S
H1129 C1115 0.961 . S
H1130 C1115 0.961 . S
H1131 C1115 0.961 1_545 S
H1132 C1116 0.931 . S
H1133 C1121 0.930 . S
H1134 C1122 0.956 . S
H1135 C1122 0.961 . S
H1136 C1122 0.961 . S
H1137 C1123 0.958 . S
H1138 C1123 0.961 . S
H1139 C1123 0.960 . S
C1140 C1141 1.363 1_455 S
C1140 C1142 1.394 . S
C1140 H1156 0.931 . S
C1141 C1140 1.363 1_655 S
C1141 C1145 1.405 . S
C1142 C1140 1.394 . S
C1142 C1143 1.369 1_455 S
C1142 C1146 1.531 . S
C1143 C1142 1.369 1_655 S
C1143 C1144 1.410 . S
C1143 C1151 1.503 . S
C1144 C1143 1.410 . S
C1144 C1145 1.392 . S
C1144 C1147 1.511 . S
C1145 C1141 1.405 . S
C1145 C1144 1.392 . S
C1145 H1157 0.929 . S
C1146 C1142 1.531 . S
C1146 H1158 0.960 . S
C1146 H1159 0.962 . S
C1146 H1160 0.960 . S
C1147 C1144 1.511 . S
C1147 H1161 0.961 . S
C1147 H1162 0.961 . S
C1147 H1163 0.961 . S
C1148 C1149 1.365 1_455 S
C1148 C1150 1.363 . S
C1148 H1164 0.931 . S
C1149 C1148 1.365 1_655 S
C1149 C1153 1.414 . S
C1150 C1148 1.363 . S
C1150 C1151 1.370 1_455 S
C1150 C1154 1.524 . S
C1151 C1143 1.503 . S
C1151 C1150 1.370 1_655 S
C1151 C1152 1.403 . S
C1152 C1151 1.403 . S
C1152 C1153 1.404 . S
C1152 C1155 1.539 . S
C1153 C1149 1.414 . S
C1153 C1152 1.404 . S
C1153 H1165 0.930 . S
C1154 C1150 1.524 . S
C1154 H1166 0.956 . S
C1154 H1167 0.961 . S
C1154 H1168 0.961 . S
C1155 C1152 1.539 . S
C1155 H1169 0.958 . S
C1155 H1170 0.961 . S
C1155 H1171 0.960 . S
H1156 C1140 0.931 . S
H1157 C1145 0.929 . S
H1158 C1146 0.960 . S
H1159 C1146 0.962 . S
H1160 C1146 0.960 . S
H1161 C1147 0.961 . S
H1162 C1147 0.961 . S
H1163 C1147 0.961 . S
H1164 C1148 0.931 . S
H1165 C1153 0.930 . S
H1166 C1154 0.956 . S
H1167 C1154 0.961 . S
H1168 C1154 0.961 . S
H1169 C1155 0.958 . S
H1170 C1155 0.961 . S
H1171 C1155 0.960 . S
C1172 C1173 1.391 . S
C1172 C1174 1.394 . S
C1172 H1188 0.931 . S
C1173 C1172 1.391 . S
C1173 C1177 1.376 1_545 S
C1174 C1172 1.394 . S
C1174 C1175 1.369 . S
C1174 C1178 1.531 . S
C1175 C1174 1.369 . S
C1175 C1176 1.410 1_545 S
C1175 C1183 1.503 . S
C1176 C1175 1.410 1_565 S
C1176 C1177 1.392 . S
C1176 C1179 1.511 . S
C1177 C1173 1.376 1_565 S
C1177 C1176 1.392 . S
C1177 H1189 0.929 . S
C1178 C1174 1.531 . S
C1178 H1190 0.960 . S
C1178 H1191 0.962 . S
C1178 H1192 0.960 . S
C1179 C1176 1.511 . S
C1179 H1193 0.961 . S
C1179 H1194 0.961 . S
C1179 H1195 0.961 1_565 S
C1180 C1181 1.338 1_565 S
C1180 C1182 1.363 . S
C1180 H1196 0.931 . S
C1181 C1180 1.338 1_545 S
C1181 C1185 1.445 . S
C1182 C1180 1.363 . S
C1182 C1183 1.370 1_565 S
C1182 C1186 1.524 . S
C1183 C1175 1.503 . S
C1183 C1182 1.370 1_545 S
C1183 C1184 1.403 . S
C1184 C1183 1.403 . S
C1184 C1185 1.404 . S
C1184 C1187 1.539 . S
C1185 C1181 1.445 . S
C1185 C1184 1.404 . S
C1185 H1197 0.930 . S
C1186 C1182 1.524 . S
C1186 H1198 0.956 . S
C1186 H1199 0.961 . S
C1186 H1200 0.961 . S
C1187 C1184 1.539 . S
C1187 H1201 0.958 . S
C1187 H1202 0.961 . S
C1187 H1203 0.960 . S
H1188 C1172 0.931 . S
H1189 C1177 0.929 . S
H1190 C1178 0.960 . S
H1191 C1178 0.962 . S
H1192 C1178 0.960 . S
H1193 C1179 0.961 . S
H1194 C1179 0.961 . S
H1195 C1179 0.961 1_545 S
H1196 C1180 0.931 . S
H1197 C1185 0.930 . S
H1198 C1186 0.956 . S
H1199 C1186 0.961 . S
H1200 C1186 0.961 . S
H1201 C1187 0.958 . S
H1202 C1187 0.961 . S
H1203 C1187 0.960 . S
C1204 C1205 1.423 . S
C1204 C1206 1.394 . S
C1204 H1220 0.931 . S
C1205 C1204 1.423 . S
C1205 C1209 1.345 1_455 S
C1206 C1204 1.394 . S
C1206 C1207 1.369 . S
C1206 C1210 1.531 . S
C1207 C1206 1.369 . S
C1207 C1208 1.410 1_455 S
C1207 C1215 1.503 . S
C1208 C1207 1.410 1_655 S
C1208 C1209 1.392 . S
C1208 C1211 1.511 . S
C1209 C1205 1.345 1_655 S
C1209 C1208 1.392 . S
C1209 H1221 0.929 . S
C1210 C1206 1.531 . S
C1210 H1222 0.960 . S
C1210 H1223 0.962 . S
C1210 H1224 0.960 . S
C1211 C1208 1.511 . S
C1211 H1225 0.961 . S
C1211 H1226 0.961 . S
C1211 H1227 0.961 . S
C1212 C1213 1.368 1_655 S
C1212 C1214 1.363 . S
C1212 H1228 0.931 . S
C1213 C1212 1.368 1_455 S
C1213 C1217 1.411 . S
C1214 C1212 1.363 . S
C1214 C1215 1.370 1_655 S
C1214 C1218 1.524 . S
C1215 C1207 1.503 . S
C1215 C1214 1.370 1_455 S
C1215 C1216 1.403 . S
C1216 C1215 1.403 . S
C1216 C1217 1.404 . S
C1216 C1219 1.539 . S
C1217 C1213 1.411 . S
C1217 C1216 1.404 . S
C1217 H1229 0.930 . S
C1218 C1214 1.524 . S
C1218 H1230 0.958 . S
C1218 H1231 0.961 . S
C1218 H1232 0.961 . S
C1219 C1216 1.539 . S
C1219 H1233 0.958 . S
C1219 H1234 0.961 . S
C1219 H1235 0.960 . S
H1220 C1204 0.931 . S
H1221 C1209 0.929 . S
H1222 C1210 0.960 . S
H1223 C1210 0.962 . S
H1224 C1210 0.960 . S
H1225 C1211 0.961 . S
H1226 C1211 0.961 . S
H1227 C1211 0.961 . S
H1228 C1212 0.931 . S
H1229 C1217 0.930 . S
H1230 C1218 0.958 . S
H1231 C1218 0.961 . S
H1232 C1218 0.961 . S
H1233 C1219 0.958 . S
H1234 C1219 0.961 . S
H1235 C1219 0.960 . S
C1236 C1237 1.391 1_565 S
C1236 C1238 1.394 . S
C1236 H1252 0.931 . S
C1237 C1236 1.391 1_545 S
C1237 C1241 1.376 . S
C1238 C1236 1.394 . S
C1238 C1239 1.369 1_565 S
C1238 C1242 1.531 . S
C1239 C1238 1.369 1_545 S
C1239 C1240 1.410 . S
C1239 C1247 1.503 . S
C1240 C1239 1.410 . S
C1240 C1241 1.392 . S
C1240 C1243 1.511 . S
C1241 C1237 1.376 . S
C1241 C1240 1.392 . S
C1241 H1253 0.929 . S
C1242 C1238 1.531 . S
C1242 H1254 0.960 1_565 S
C1242 H1255 0.962 . S
C1242 H1256 0.960 . S
C1243 C1240 1.511 . S
C1243 H1257 0.961 . S
C1243 H1258 0.961 . S
C1243 H1259 0.961 . S
C1244 C1245 1.370 1_565 S
C1244 C1246 1.363 . S
C1244 H1260 0.931 . S
C1245 C1244 1.370 1_545 S
C1245 C1249 1.408 . S
C1246 C1244 1.363 . S
C1246 C1247 1.370 1_565 S
C1246 C1250 1.524 . S
C1247 C1239 1.503 . S
C1247 C1246 1.370 1_545 S
C1247 C1248 1.403 . S
C1248 C1247 1.403 . S
C1248 C1249 1.404 . S
C1248 C1251 1.539 . S
C1249 C1245 1.408 . S
C1249 C1248 1.404 . S
C1249 H1261 0.930 . S
C1250 C1246 1.524 . S
C1250 H1262 0.956 . S
C1250 H1263 0.961 . S
C1250 H1264 0.961 . S
C1251 C1248 1.539 . S
C1251 H1265 0.958 . S
C1251 H1266 0.961 . S
C1251 H1267 0.960 . S
H1252 C1236 0.931 . S
H1253 C1241 0.929 . S
H1254 C1242 0.960 1_545 S
H1255 C1242 0.962 . S
H1256 C1242 0.960 . S
H1257 C1243 0.961 . S
H1258 C1243 0.961 . S
H1259 C1243 0.961 . S
H1260 C1244 0.931 . S
H1261 C1249 0.930 . S
H1262 C1250 0.956 . S
H1263 C1250 0.961 . S
H1264 C1250 0.961 . S
H1265 C1251 0.958 . S
H1266 C1251 0.961 . S
H1267 C1251 0.960 . S
C1268 C1269 1.391 1_455 S
C1268 C1270 1.394 . S
C1268 H1284 0.931 . S
C1269 C1268 1.391 1_655 S
C1269 C1273 1.376 . S
C1270 C1268 1.394 . S
C1270 C1271 1.369 1_455 S
C1270 C1274 1.531 . S
C1271 C1270 1.369 1_655 S
C1271 C1272 1.410 . S
C1271 C1279 1.503 . S
C1272 C1271 1.410 . S
C1272 C1273 1.392 . S
C1272 C1275 1.511 . S
C1273 C1269 1.376 . S
C1273 C1272 1.392 . S
C1273 H1285 0.929 . S
C1274 C1270 1.531 . S
C1274 H1286 0.960 . S
C1274 H1287 0.962 . S
C1274 H1288 0.960 . S
C1275 C1272 1.511 . S
C1275 H1289 0.961 . S
C1275 H1290 0.961 . S
C1275 H1291 0.961 . S
C1276 C1277 1.354 1_455 S
C1276 C1278 1.363 . S
C1276 H1292 0.931 . S
C1277 C1276 1.354 1_655 S
C1277 C1281 1.426 . S
C1278 C1276 1.363 . S
C1278 C1279 1.370 1_455 S
C1278 C1282 1.524 . S
C1279 C1271 1.503 . S
C1279 C1278 1.370 1_655 S
C1279 C1280 1.403 . S
C1280 C1279 1.403 . S
C1280 C1281 1.404 . S
C1280 C1283 1.539 . S
C1281 C1277 1.426 . S
C1281 C1280 1.404 . S
C1281 H1293 0.930 . S
C1282 C1278 1.524 . S
C1282 H1294 0.956 . S
C1282 H1295 0.961 . S
C1282 H1296 0.961 . S
C1283 C1280 1.539 . S
C1283 H1297 0.958 . S
C1283 H1298 0.961 . S
C1283 H1299 0.960 . S
H1284 C1268 0.931 . S
H1285 C1273 0.929 . S
H1286 C1274 0.960 . S
H1287 C1274 0.962 . S
H1288 C1274 0.960 . S
H1289 C1275 0.961 . S
H1290 C1275 0.961 . S
H1291 C1275 0.961 . S
H1292 C1276 0.931 . S
H1293 C1281 0.930 . S
H1294 C1282 0.956 . S
H1295 C1282 0.961 . S
H1296 C1282 0.961 . S
H1297 C1283 0.958 . S
H1298 C1283 0.961 . S
H1299 C1283 0.960 . S
C1300 C1301 1.391 1_545 S
C1300 C1302 1.394 . S
C1300 H1316 0.931 . S
C1301 C1300 1.391 1_565 S
C1301 C1305 1.376 . S
C1302 C1300 1.394 . S
C1302 C1303 1.369 1_545 S
C1302 C1306 1.531 . S
C1303 C1302 1.369 1_565 S
C1303 C1304 1.410 . S
C1303 C1311 1.503 . S
C1304 C1303 1.410 . S
C1304 C1305 1.392 . S
C1304 C1307 1.511 . S
C1305 C1301 1.376 . S
C1305 C1304 1.392 . S
C1305 H1317 0.929 . S
C1306 C1302 1.531 . S
C1306 H1318 0.960 . S
C1306 H1319 0.962 . S
C1306 H1320 0.960 . S
C1307 C1304 1.511 . S
C1307 H1321 0.961 . S
C1307 H1322 0.961 . S
C1307 H1323 0.961 . S
C1308 C1309 1.362 1_545 S
C1308 C1310 1.363 . S
C1308 H1324 0.931 . S
C1309 C1308 1.362 1_565 S
C1309 C1313 1.418 . S
C1310 C1308 1.363 . S
C1310 C1311 1.370 1_545 S
C1310 C1314 1.524 . S
C1311 C1303 1.503 . S
C1311 C1310 1.370 1_565 S
C1311 C1312 1.403 . S
C1312 C1311 1.403 . S
C1312 C1313 1.404 . S
C1312 C1315 1.539 . S
C1313 C1309 1.418 . S
C1313 C1312 1.404 . S
C1313 H1325 0.930 . S
C1314 C1310 1.524 . S
C1314 H1326 0.956 . S
C1314 H1327 0.961 . S
C1314 H1328 0.961 . S
C1315 C1312 1.539 . S
C1315 H1329 0.958 . S
C1315 H1330 0.961 . S
C1315 H1331 0.960 . S
H1316 C1300 0.931 . S
H1317 C1305 0.929 . S
H1318 C1306 0.960 . S
H1319 C1306 0.962 . S
H1320 C1306 0.960 . S
H1321 C1307 0.961 . S
H1322 C1307 0.961 . S
H1323 C1307 0.961 . S
H1324 C1308 0.931 . S
H1325 C1313 0.930 . S
H1326 C1314 0.956 . S
H1327 C1314 0.961 . S
H1328 C1314 0.961 . S
H1329 C1315 0.958 . S
H1330 C1315 0.961 . S
H1331 C1315 0.960 . S
C1332 C1333 1.375 1_655 S
C1332 C1334 1.394 . S
C1332 H1348 0.931 . S
C1333 C1332 1.375 1_455 S
C1333 C1337 1.392 . S
C1334 C1332 1.394 . S
C1334 C1335 1.346 1_655 S
C1334 C1338 1.531 . S
C1335 C1334 1.346 1_455 S
C1335 C1336 1.432 . S
C1335 C1343 1.503 . S
C1336 C1335 1.432 . S
C1336 C1337 1.392 . S
C1336 C1339 1.511 . S
C1337 C1333 1.392 . S
C1337 C1336 1.392 . S
C1337 H1349 0.929 . S
C1338 C1334 1.531 . S
C1338 H1350 0.960 . S
C1338 H1351 0.962 . S
C1338 H1352 0.960 . S
C1339 C1336 1.511 . S
C1339 H1353 0.961 . S
C1339 H1354 0.961 . S
C1339 H1355 0.961 . S
C1340 C1341 1.368 1_655 S
C1340 C1342 1.363 . S
C1340 H1356 0.931 . S
C1341 C1340 1.368 1_455 S
C1341 C1345 1.410 . S
C1342 C1340 1.363 . S
C1342 C1343 1.368 1_655 S
C1342 C1346 1.524 . S
C1343 C1335 1.503 . S
C1343 C1342 1.368 1_455 S
C1343 C1344 1.405 . S
C1344 C1343 1.405 . S
C1344 C1345 1.404 . S
C1344 C1347 1.539 . S
C1345 C1341 1.410 . S
C1345 C1344 1.404 . S
C1345 H1357 0.930 . S
C1346 C1342 1.524 . S
C1346 H1358 0.956 . S
C1346 H1359 0.961 1_655 S
C1346 H1360 0.961 . S
C1347 C1344 1.539 . S
C1347 H1361 0.958 1_455 S
C1347 H1362 0.961 . S
C1347 H1363 0.960 . S
H1348 C1332 0.931 . S
H1349 C1337 0.929 . S
H1350 C1338 0.960 . S
H1351 C1338 0.962 . S
H1352 C1338 0.960 . S
H1353 C1339 0.961 . S
H1354 C1339 0.961 . S
H1355 C1339 0.961 . S
H1356 C1340 0.931 . S
H1357 C1345 0.930 . S
H1358 C1346 0.956 . S
H1359 C1346 0.961 1_455 S
H1360 C1346 0.961 . S
H1361 C1347 0.958 1_655 S
H1362 C1347 0.961 . S
H1363 C1347 0.960 . S
C1364 C1365 1.391 . S
C1364 C1366 1.394 . S
C1364 H1380 0.929 1_545 S
C1365 C1364 1.391 . S
C1365 C1369 1.376 . S
C1366 C1364 1.394 . S
C1366 C1367 1.369 . S
C1366 C1370 1.531 . S
C1367 C1366 1.369 . S
C1367 C1368 1.410 . S
C1367 C1375 1.503 . S
C1368 C1367 1.410 . S
C1368 C1369 1.392 . S
C1368 C1371 1.511 . S
C1369 C1365 1.376 . S
C1369 C1368 1.392 . S
C1369 H1381 0.929 . S
C1370 C1366 1.531 . S
C1370 H1382 0.960 . S
C1370 H1383 0.962 1_545 S
C1370 H1384 0.960 . S
C1371 C1368 1.511 . S
C1371 H1385 0.961 . S
C1371 H1386 0.961 . S
C1371 H1387 0.961 . S
C1372 C1373 1.370 1_565 S
C1372 C1374 1.363 . S
C1372 H1388 0.931 . S
C1373 C1372 1.370 1_545 S
C1373 C1377 1.408 . S
C1374 C1372 1.363 . S
C1374 C1375 1.370 1_565 S
C1374 C1378 1.524 . S
C1375 C1367 1.503 . S
C1375 C1374 1.370 1_545 S
C1375 C1376 1.403 . S
C1376 C1375 1.403 . S
C1376 C1377 1.404 . S
C1376 C1379 1.539 . S
C1377 C1373 1.408 . S
C1377 C1376 1.404 . S
C1377 H1389 0.930 . S
C1378 C1374 1.524 . S
C1378 H1390 0.956 . S
C1378 H1391 0.961 . S
C1378 H1392 0.961 . S
C1379 C1376 1.539 . S
C1379 H1393 0.958 . S
C1379 H1394 0.961 . S
C1379 H1395 0.960 . S
H1380 C1364 0.929 1_565 S
H1381 C1369 0.929 . S
H1382 C1370 0.960 . S
H1383 C1370 0.962 1_565 S
H1384 C1370 0.960 . S
H1385 C1371 0.961 . S
H1386 C1371 0.961 . S
H1387 C1371 0.961 . S
H1388 C1372 0.931 . S
H1389 C1377 0.930 . S
H1390 C1378 0.956 . S
H1391 C1378 0.961 . S
H1392 C1378 0.961 . S
H1393 C1379 0.958 . S
H1394 C1379 0.961 . S
H1395 C1379 0.960 . S
C1396 C1397 1.391 1_655 S
C1396 C1398 1.394 . S
C1396 H1412 0.931 . S
C1397 C1396 1.391 1_455 S
C1397 C1401 1.376 . S
C1398 C1396 1.394 . S
C1398 C1399 1.379 . S
C1398 C1402 1.531 . S
C1399 C1398 1.379 . S
C1399 C1400 1.399 1_655 S
C1399 C1407 1.503 . S
C1400 C1399 1.399 1_455 S
C1400 C1401 1.392 . S
C1400 C1403 1.511 . S
C1401 C1397 1.376 . S
C1401 C1400 1.392 . S
C1401 H1413 0.929 . S
C1402 C1398 1.531 . S
C1402 H1414 0.960 . S
C1402 H1415 0.962 . S
C1402 H1416 0.960 . S
C1403 C1400 1.511 . S
C1403 H1417 0.961 . S
C1403 H1418 0.961 . S
C1403 H1419 0.961 . S
C1404 C1405 1.370 1_655 S
C1404 C1406 1.363 1_655 S
C1404 H1420 0.931 . S
C1405 C1404 1.370 1_455 S
C1405 C1409 1.408 1_455 S
C1406 C1404 1.363 1_455 S
C1406 C1407 1.370 1_455 S
C1406 C1410 1.524 . S
C1407 C1399 1.503 . S
C1407 C1406 1.370 1_655 S
C1407 C1408 1.402 . S
C1408 C1407 1.402 . S
C1408 C1409 1.404 . S
C1408 C1411 1.538 1_655 S
C1409 C1405 1.408 1_655 S
C1409 C1408 1.404 . S
C1409 H1421 0.930 . S
C1410 C1406 1.524 . S
C1410 H1422 0.937 1_455 S
C1410 H1423 0.978 . S
C1410 H1424 0.963 . S
C1411 C1408 1.538 1_455 S
C1411 H1425 0.923 1_455 S
C1411 H1426 0.982 . S
C1411 H1427 0.978 . S
H1412 C1396 0.931 . S
H1413 C1401 0.929 . S
H1414 C1402 0.960 . S
H1415 C1402 0.962 . S
H1416 C1402 0.960 . S
H1417 C1403 0.961 . S
H1418 C1403 0.961 . S
H1419 C1403 0.961 . S
H1420 C1404 0.931 . S
H1421 C1409 0.930 . S
H1422 C1410 0.937 1_655 S
H1423 C1410 0.978 . S
H1424 C1410 0.963 . S
H1425 C1411 0.923 1_655 S
H1426 C1411 0.982 . S
H1427 C1411 0.978 . S
C1428 C1429 1.391 . S
C1428 C1430 1.394 . S
C1428 H1444 0.931 . S
C1429 C1428 1.391 . S
C1429 C1433 1.376 1_545 S
C1430 C1428 1.394 . S
C1430 C1431 1.369 . S
C1430 C1434 1.531 . S
C1431 C1430 1.369 . S
C1431 C1432 1.410 1_545 S
C1431 C1439 1.503 . S
C1432 C1431 1.410 1_565 S
C1432 C1433 1.392 . S
C1432 C1435 1.511 . S
C1433 C1429 1.376 1_565 S
C1433 C1432 1.392 . S
C1433 H1445 0.929 . S
C1434 C1430 1.531 . S
C1434 H1446 0.960 . S
C1434 H1447 0.962 . S
C1434 H1448 0.960 . S
C1435 C1432 1.511 . S
C1435 H1449 0.961 . S
C1435 H1450 0.961 . S
C1435 H1451 0.961 1_565 S
C1436 C1437 1.339 1_565 S
C1436 C1438 1.363 . S
C1436 H1452 0.931 . S
C1437 C1436 1.339 1_545 S
C1437 C1441 1.444 . S
C1438 C1436 1.363 . S
C1438 C1439 1.370 1_565 S
C1438 C1442 1.524 . S
C1439 C1431 1.503 . S
C1439 C1438 1.370 1_545 S
C1439 C1440 1.403 . S
C1440 C1439 1.403 . S
C1440 C1441 1.404 . S
C1440 C1443 1.539 . S
C1441 C1437 1.444 . S
C1441 C1440 1.404 . S
C1441 H1453 0.930 . S
C1442 C1438 1.524 . S
C1442 H1454 0.956 . S
C1442 H1455 0.961 . S
C1442 H1456 0.961 . S
C1443 C1440 1.539 . S
C1443 H1457 0.958 . S
C1443 H1458 0.961 . S
C1443 H1459 0.960 . S
H1444 C1428 0.931 . S
H1445 C1433 0.929 . S
H1446 C1434 0.960 . S
H1447 C1434 0.962 . S
H1448 C1434 0.960 . S
H1449 C1435 0.961 . S
H1450 C1435 0.961 . S
H1451 C1435 0.961 1_545 S
H1452 C1436 0.931 . S
H1453 C1441 0.930 . S
H1454 C1442 0.956 . S
H1455 C1442 0.961 . S
H1456 C1442 0.961 . S
H1457 C1443 0.958 . S
H1458 C1443 0.961 . S
H1459 C1443 0.960 . S
C1460 C1461 1.389 1_455 S
C1460 C1462 1.394 . S
C1460 H1476 0.931 . S
C1461 C1460 1.389 1_655 S
C1461 C1465 1.377 . S
C1462 C1460 1.394 . S
C1462 C1463 1.370 1_455 S
C1462 C1466 1.531 . S
C1463 C1462 1.370 1_655 S
C1463 C1464 1.409 . S
C1463 C1471 1.503 . S
C1464 C1463 1.409 . S
C1464 C1465 1.392 . S
C1464 C1467 1.511 . S
C1465 C1461 1.377 . S
C1465 C1464 1.392 . S
C1465 H1477 0.929 . S
C1466 C1462 1.531 . S
C1466 H1478 0.960 . S
C1466 H1479 0.962 . S
C1466 H1480 0.960 . S
C1467 C1464 1.511 . S
C1467 H1481 0.961 . S
C1467 H1482 0.961 . S
C1467 H1483 0.961 . S
C1468 C1469 1.370 1_455 S
C1468 C1470 1.363 . S
C1468 H1484 0.931 . S
C1469 C1468 1.370 1_655 S
C1469 C1473 1.409 . S
C1470 C1468 1.363 . S
C1470 C1471 1.370 1_455 S
C1470 C1474 1.524 . S
C1471 C1463 1.503 . S
C1471 C1470 1.370 1_655 S
C1471 C1472 1.403 . S
C1472 C1471 1.403 . S
C1472 C1473 1.404 . S
C1472 C1475 1.539 . S
C1473 C1469 1.409 . S
C1473 C1472 1.404 . S
C1473 H1485 0.930 . S
C1474 C1470 1.524 . S
C1474 H1486 0.956 . S
C1474 H1487 0.961 1_455 S
C1474 H1488 0.961 . S
C1475 C1472 1.539 . S
C1475 H1489 0.958 1_655 S
C1475 H1490 0.961 . S
C1475 H1491 0.960 . S
H1476 C1460 0.931 . S
H1477 C1465 0.929 . S
H1478 C1466 0.960 . S
H1479 C1466 0.962 . S
H1480 C1466 0.960 . S
H1481 C1467 0.961 . S
H1482 C1467 0.961 . S
H1483 C1467 0.961 . S
H1484 C1468 0.931 . S
H1485 C1473 0.930 . S
H1486 C1474 0.956 . S
H1487 C1474 0.961 1_655 S
H1488 C1474 0.961 . S
H1489 C1475 0.958 1_455 S
H1490 C1475 0.961 . S
H1491 C1475 0.960 . S
C1492 C1493 1.391 1_545 S
C1492 C1494 1.394 . S
C1492 H1508 0.931 . S
C1493 C1492 1.391 1_565 S
C1493 C1497 1.376 . S
C1494 C1492 1.394 . S
C1494 C1495 1.369 1_545 S
C1494 C1498 1.531 . S
C1495 C1494 1.369 1_565 S
C1495 C1496 1.410 . S
C1495 C1503 1.503 . S
C1496 C1495 1.410 . S
C1496 C1497 1.392 . S
C1496 C1499 1.511 . S
C1497 C1493 1.376 . S
C1497 C1496 1.392 . S
C1497 H1509 0.929 . S
C1498 C1494 1.531 . S
C1498 H1510 0.960 . S
C1498 H1511 0.962 . S
C1498 H1512 0.960 . S
C1499 C1496 1.511 . S
C1499 H1513 0.961 . S
C1499 H1514 0.961 . S
C1499 H1515 0.961 . S
C1500 C1501 1.352 1_545 S
C1500 C1502 1.363 . S
C1500 H1516 0.931 . S
C1501 C1500 1.352 1_565 S
C1501 C1505 1.428 . S
C1502 C1500 1.363 . S
C1502 C1503 1.370 1_545 S
C1502 C1506 1.524 . S
C1503 C1495 1.503 . S
C1503 C1502 1.370 1_565 S
C1503 C1504 1.403 . S
C1504 C1503 1.403 . S
C1504 C1505 1.404 . S
C1504 C1507 1.539 . S
C1505 C1501 1.428 . S
C1505 C1504 1.404 . S
C1505 H1517 0.930 . S
C1506 C1502 1.524 . S
C1506 H1518 0.956 . S
C1506 H1519 0.961 . S
C1506 H1520 0.961 . S
C1507 C1504 1.539 . S
C1507 H1521 0.958 . S
C1507 H1522 0.961 . S
C1507 H1523 0.960 . S
H1508 C1492 0.931 . S
H1509 C1497 0.929 . S
H1510 C1498 0.960 . S
H1511 C1498 0.962 . S
H1512 C1498 0.960 . S
H1513 C1499 0.961 . S
H1514 C1499 0.961 . S
H1515 C1499 0.961 . S
H1516 C1500 0.931 . S
H1517 C1505 0.930 . S
H1518 C1506 0.956 . S
H1519 C1506 0.961 . S
H1520 C1506 0.961 . S
H1521 C1507 0.958 . S
H1522 C1507 0.961 . S
H1523 C1507 0.960 . S
C1524 C1525 1.391 . S
C1524 C1526 1.394 . S
C1524 H1540 0.931 . S
C1525 C1524 1.391 . S
C1525 C1529 1.376 1_455 S
C1526 C1524 1.394 . S
C1526 C1527 1.369 . S
C1526 C1530 1.531 . S
C1527 C1526 1.369 . S
C1527 C1528 1.410 1_455 S
C1527 C1535 1.503 . S
C1528 C1527 1.410 1_655 S
C1528 C1529 1.392 . S
C1528 C1531 1.511 . S
C1529 C1525 1.376 1_655 S
C1529 C1528 1.392 . S
C1529 H1541 0.929 . S
C1530 C1526 1.531 . S
C1530 H1542 0.960 . S
C1530 H1543 0.962 . S
C1530 H1544 0.960 . S
C1531 C1528 1.511 . S
C1531 H1545 0.961 . S
C1531 H1546 0.961 . S
C1531 H1547 0.961 . S
C1532 C1533 1.348 1_655 S
C1532 C1534 1.363 . S
C1532 H1548 0.931 . S
C1533 C1532 1.348 1_455 S
C1533 C1537 1.434 . S
C1534 C1532 1.363 . S
C1534 C1535 1.370 1_655 S
C1534 C1538 1.524 . S
C1535 C1527 1.503 . S
C1535 C1534 1.370 1_455 S
C1535 C1536 1.403 . S
C1536 C1535 1.403 . S
C1536 C1537 1.404 . S
C1536 C1539 1.539 . S
C1537 C1533 1.434 . S
C1537 C1536 1.404 . S
C1537 H1549 0.930 . S
C1538 C1534 1.524 . S
C1538 H1550 0.956 . S
C1538 H1551 0.961 . S
C1538 H1552 0.961 . S
C1539 C1536 1.539 . S
C1539 H1553 0.958 . S
C1539 H1554 0.961 . S
C1539 H1555 0.960 . S
H1540 C1524 0.931 . S
H1541 C1529 0.929 . S
H1542 C1530 0.960 . S
H1543 C1530 0.962 . S
H1544 C1530 0.960 . S
H1545 C1531 0.961 . S
H1546 C1531 0.961 . S
H1547 C1531 0.961 . S
H1548 C1532 0.931 . S
H1549 C1537 0.930 . S
H1550 C1538 0.956 . S
H1551 C1538 0.961 . S
H1552 C1538 0.961 . S
H1553 C1539 0.958 . S
H1554 C1539 0.961 . S
H1555 C1539 0.960 . S
C1556 C1557 1.391 . S
C1556 C1558 1.394 . S
C1556 H1572 0.931 . S
C1557 C1556 1.391 . S
C1557 C1561 1.376 . S
C1558 C1556 1.394 . S
C1558 C1559 1.369 . S
C1558 C1562 1.531 . S
C1559 C1558 1.369 . S
C1559 C1560 1.410 . S
C1559 C1567 1.503 . S
C1560 C1559 1.410 . S
C1560 C1561 1.392 . S
C1560 C1563 1.511 . S
C1561 C1557 1.376 . S
C1561 C1560 1.392 . S
C1561 H1573 0.929 . S
C1562 C1558 1.531 . S
C1562 H1574 0.960 . S
C1562 H1575 0.962 1_565 S
C1562 H1576 0.960 . S
C1563 C1560 1.511 . S
C1563 H1577 0.961 1_565 S
C1563 H1578 0.961 1_565 S
C1563 H1579 0.961 . S
C1564 C1565 1.339 1_545 S
C1564 C1566 1.363 . S
C1564 H1580 0.931 . S
C1565 C1564 1.339 1_565 S
C1565 C1569 1.443 . S
C1566 C1564 1.363 . S
C1566 C1567 1.370 1_545 S
C1566 C1570 1.524 . S
C1567 C1559 1.503 . S
C1567 C1566 1.370 1_565 S
C1567 C1568 1.403 . S
C1568 C1567 1.403 . S
C1568 C1569 1.404 . S
C1568 C1571 1.539 . S
C1569 C1565 1.443 . S
C1569 C1568 1.404 . S
C1569 H1581 0.930 . S
C1570 C1566 1.524 . S
C1570 H1582 0.956 . S
C1570 H1583 0.961 . S
C1570 H1584 0.961 . S
C1571 C1568 1.539 . S
C1571 H1585 0.958 . S
C1571 H1586 0.961 . S
C1571 H1587 0.960 . S
H1572 C1556 0.931 . S
H1573 C1561 0.929 . S
H1574 C1562 0.960 . S
H1575 C1562 0.962 1_545 S
H1576 C1562 0.960 . S
H1577 C1563 0.961 1_545 S
H1578 C1563 0.961 1_545 S
H1579 C1563 0.961 . S
H1580 C1564 0.931 . S
H1581 C1569 0.930 . S
H1582 C1570 0.956 . S
H1583 C1570 0.961 . S
H1584 C1570 0.961 . S
H1585 C1571 0.958 . S
H1586 C1571 0.961 . S
H1587 C1571 0.960 . S
C1588 C1589 1.391 . S
C1588 C1590 1.394 . S
C1588 H1604 0.931 . S
C1589 C1588 1.391 . S
C1589 C1593 1.376 1_545 S
C1590 C1588 1.394 . S
C1590 C1591 1.369 . S
C1590 C1594 1.531 . S
C1591 C1590 1.369 . S
C1591 C1592 1.399 1_545 S
C1591 C1599 1.503 . S
C1592 C1591 1.399 1_565 S
C1592 C1593 1.396 . S
C1592 C1595 1.521 . S
C1593 C1589 1.376 1_565 S
C1593 C1592 1.396 . S
C1593 H1605 0.929 . S
C1594 C1590 1.531 . S
C1594 H1606 0.960 . S
C1594 H1607 0.962 . S
C1594 H1608 0.960 . S
C1595 C1592 1.521 . S
C1595 H1609 0.961 . S
C1595 H1610 0.961 . S
C1595 H1611 0.961 1_565 S
C1596 C1597 1.336 1_565 S
C1596 C1598 1.363 . S
C1596 H1612 0.931 . S
C1597 C1596 1.336 1_545 S
C1597 C1601 1.447 . S
C1598 C1596 1.363 . S
C1598 C1599 1.370 1_565 S
C1598 C1602 1.524 . S
C1599 C1591 1.503 . S
C1599 C1598 1.370 1_545 S
C1599 C1600 1.403 . S
C1600 C1599 1.403 . S
C1600 C1601 1.404 . S
C1600 C1603 1.539 . S
C1601 C1597 1.447 . S
C1601 C1600 1.404 . S
C1601 H1613 0.930 . S
C1602 C1598 1.524 . S
C1602 H1614 0.956 . S
C1602 H1615 0.961 . S
C1602 H1616 0.961 . S
C1603 C1600 1.539 . S
C1603 H1617 0.958 . S
C1603 H1618 0.961 . S
C1603 H1619 0.960 . S
H1604 C1588 0.931 . S
H1605 C1593 0.929 . S
H1606 C1594 0.960 . S
H1607 C1594 0.962 . S
H1608 C1594 0.960 . S
H1609 C1595 0.961 . S
H1610 C1595 0.961 . S
H1611 C1595 0.961 1_545 S
H1612 C1596 0.931 . S
H1613 C1601 0.930 . S
H1614 C1602 0.956 . S
H1615 C1602 0.961 . S
H1616 C1602 0.961 . S
H1617 C1603 0.958 . S
H1618 C1603 0.961 . S
H1619 C1603 0.960 . S
C1620 C1621 1.391 . S
C1620 C1622 1.394 . S
C1620 H1636 0.931 . S
C1621 C1620 1.391 . S
C1621 C1625 1.376 1_455 S
C1622 C1620 1.394 . S
C1622 C1623 1.369 . S
C1622 C1626 1.531 . S
C1623 C1622 1.369 . S
C1623 C1624 1.410 1_455 S
C1623 C1631 1.503 . S
C1624 C1623 1.410 1_655 S
C1624 C1625 1.392 . S
C1624 C1627 1.511 . S
C1625 C1621 1.376 1_655 S
C1625 C1624 1.392 . S
C1625 H1637 0.929 . S
C1626 C1622 1.531 . S
C1626 H1638 0.960 . S
C1626 H1639 0.962 . S
C1626 H1640 0.960 . S
C1627 C1624 1.511 . S
C1627 H1641 0.961 . S
C1627 H1642 0.961 . S
C1627 H1643 0.961 . S
C1628 C1629 1.353 1_655 S
C1628 C1630 1.363 . S
C1628 H1644 0.931 . S
C1629 C1628 1.353 1_455 S
C1629 C1633 1.429 . S
C1630 C1628 1.363 . S
C1630 C1631 1.370 1_655 S
C1630 C1634 1.524 . S
C1631 C1623 1.503 . S
C1631 C1630 1.370 1_455 S
C1631 C1632 1.403 . S
C1632 C1631 1.403 . S
C1632 C1633 1.404 . S
C1632 C1635 1.539 . S
C1633 C1629 1.429 . S
C1633 C1632 1.404 . S
C1633 H1645 0.930 . S
C1634 C1630 1.524 . S
C1634 H1646 0.956 . S
C1634 H1647 0.961 . S
C1634 H1648 0.961 . S
C1635 C1632 1.539 . S
C1635 H1649 0.958 . S
C1635 H1650 0.961 . S
C1635 H1651 0.960 . S
H1636 C1620 0.931 . S
H1637 C1625 0.929 . S
H1638 C1626 0.960 . S
H1639 C1626 0.962 . S
H1640 C1626 0.960 . S
H1641 C1627 0.961 . S
H1642 C1627 0.961 . S
H1643 C1627 0.961 . S
H1644 C1628 0.931 . S
H1645 C1633 0.930 . S
H1646 C1634 0.956 . S
H1647 C1634 0.961 . S
H1648 C1634 0.961 . S
H1649 C1635 0.958 . S
H1650 C1635 0.961 . S
H1651 C1635 0.960 . S
C1652 C1653 1.391 1_565 S
C1652 C1654 1.394 . S
C1652 H1668 0.931 . S
C1653 C1652 1.391 1_545 S
C1653 C1657 1.376 . S
C1654 C1652 1.394 . S
C1654 C1655 1.369 1_565 S
C1654 C1658 1.531 . S
C1655 C1654 1.369 1_545 S
C1655 C1656 1.410 . S
C1655 C1663 1.503 . S
C1656 C1655 1.410 . S
C1656 C1657 1.392 . S
C1656 C1659 1.511 . S
C1657 C1653 1.376 . S
C1657 C1656 1.392 . S
C1657 H1669 0.929 . S
C1658 C1654 1.531 . S
C1658 H1670 0.960 . S
C1658 H1671 0.962 . S
C1658 H1672 0.960 . S
C1659 C1656 1.511 . S
C1659 H1673 0.961 . S
C1659 H1674 0.961 . S
C1659 H1675 0.961 . S
C1660 C1661 1.370 1_565 S
C1660 C1662 1.363 . S
C1660 H1676 0.931 . S
C1661 C1660 1.370 1_545 S
C1661 C1665 1.408 . S
C1662 C1660 1.363 . S
C1662 C1663 1.370 1_565 S
C1662 C1666 1.524 . S
C1663 C1655 1.503 . S
C1663 C1662 1.370 1_545 S
C1663 C1664 1.403 . S
C1664 C1663 1.403 . S
C1664 C1665 1.404 . S
C1664 C1667 1.539 . S
C1665 C1661 1.408 . S
C1665 C1664 1.404 . S
C1665 H1677 0.930 . S
C1666 C1662 1.524 . S
C1666 H1678 0.956 . S
C1666 H1679 0.961 . S
C1666 H1680 0.961 . S
C1667 C1664 1.539 . S
C1667 H1681 0.958 . S
C1667 H1682 0.961 . S
C1667 H1683 0.960 . S
H1668 C1652 0.931 . S
H1669 C1657 0.929 . S
H1670 C1658 0.960 . S
H1671 C1658 0.962 . S
H1672 C1658 0.960 . S
H1673 C1659 0.961 . S
H1674 C1659 0.961 . S
H1675 C1659 0.961 . S
H1676 C1660 0.931 . S
H1677 C1665 0.930 . S
H1678 C1666 0.956 . S
H1679 C1666 0.961 . S
H1680 C1666 0.961 . S
H1681 C1667 0.958 . S
H1682 C1667 0.961 . S
H1683 C1667 0.960 . S
C1684 C1685 1.371 1_455 S
C1684 C1686 1.394 . S
C1684 H1700 0.931 . S
C1685 C1684 1.371 1_655 S
C1685 C1689 1.396 . S
C1686 C1684 1.394 . S
C1686 C1687 1.369 1_455 S
C1686 C1690 1.531 . S
C1687 C1686 1.369 1_655 S
C1687 C1688 1.410 . S
C1687 C1695 1.503 . S
C1688 C1687 1.410 . S
C1688 C1689 1.392 . S
C1688 C1691 1.511 . S
C1689 C1685 1.396 . S
C1689 C1688 1.392 . S
C1689 H1701 0.929 . S
C1690 C1686 1.531 . S
C1690 H1702 0.960 . S
C1690 H1703 0.962 . S
C1690 H1704 0.960 . S
C1691 C1688 1.511 . S
C1691 H1705 0.961 . S
C1691 H1706 0.961 . S
C1691 H1707 0.961 . S
C1692 C1693 1.367 1_455 S
C1692 C1694 1.363 . S
C1692 H1708 0.931 . S
C1693 C1692 1.367 1_655 S
C1693 C1697 1.411 . S
C1694 C1692 1.363 . S
C1694 C1695 1.370 1_455 S
C1694 C1698 1.524 . S
C1695 C1687 1.503 . S
C1695 C1694 1.370 1_655 S
C1695 C1696 1.403 . S
C1696 C1695 1.403 . S
C1696 C1697 1.404 . S
C1696 C1699 1.539 . S
C1697 C1693 1.411 . S
C1697 C1696 1.404 . S
C1697 H1709 0.930 . S
C1698 C1694 1.524 . S
C1698 H1710 0.956 . S
C1698 H1711 0.961 1_455 S
C1698 H1712 0.961 . S
C1699 C1696 1.539 . S
C1699 H1713 0.958 . S
C1699 H1714 0.961 . S
C1699 H1715 0.960 . S
H1700 C1684 0.931 . S
H1701 C1689 0.929 . S
H1702 C1690 0.960 . S
H1703 C1690 0.962 . S
H1704 C1690 0.960 . S
H1705 C1691 0.961 . S
H1706 C1691 0.961 . S
H1707 C1691 0.961 . S
H1708 C1692 0.931 . S
H1709 C1697 0.930 . S
H1710 C1698 0.956 . S
H1711 C1698 0.961 1_655 S
H1712 C1698 0.961 . S
H1713 C1699 0.958 . S
H1714 C1699 0.961 . S
H1715 C1699 0.960 . S
C1716 C1717 1.419 . S
C1716 C1718 1.394 . S
C1716 H1732 0.931 . S
C1717 C1716 1.419 . S
C1717 C1721 1.349 1_545 S
C1718 C1716 1.394 . S
C1718 C1719 1.369 . S
C1718 C1722 1.531 . S
C1719 C1718 1.369 . S
C1719 C1720 1.410 1_545 S
C1719 C1727 1.503 . S
C1720 C1719 1.410 1_565 S
C1720 C1721 1.392 . S
C1720 C1723 1.511 . S
C1721 C1717 1.349 1_565 S
C1721 C1720 1.392 . S
C1721 H1733 0.929 . S
C1722 C1718 1.531 . S
C1722 H1734 0.960 . S
C1722 H1735 0.962 . S
C1722 H1736 0.960 . S
C1723 C1720 1.511 . S
C1723 H1737 0.961 . S
C1723 H1738 0.961 . S
C1723 H1739 0.961 . S
C1724 C1725 1.369 1_565 S
C1724 C1726 1.363 . S
C1724 H1740 0.931 . S
C1725 C1724 1.369 1_545 S
C1725 C1729 1.410 . S
C1726 C1724 1.363 . S
C1726 C1727 1.370 1_565 S
C1726 C1730 1.524 . S
C1727 C1719 1.503 . S
C1727 C1726 1.370 1_545 S
C1727 C1728 1.403 . S
C1728 C1727 1.403 . S
C1728 C1729 1.404 . S
C1728 C1731 1.539 . S
C1729 C1725 1.410 . S
C1729 C1728 1.404 . S
C1729 H1741 0.930 . S
C1730 C1726 1.524 . S
C1730 H1742 0.956 1_565 S
C1730 H1743 0.961 . S
C1730 H1744 0.961 . S
C1731 C1728 1.539 . S
C1731 H1745 0.958 . S
C1731 H1746 0.961 . S
C1731 H1747 0.960 . S
H1732 C1716 0.931 . S
H1733 C1721 0.929 . S
H1734 C1722 0.960 . S
H1735 C1722 0.962 . S
H1736 C1722 0.960 . S
H1737 C1723 0.961 . S
H1738 C1723 0.961 . S
H1739 C1723 0.961 . S
H1740 C1724 0.931 . S
H1741 C1729 0.930 . S
H1742 C1730 0.956 1_545 S
H1743 C1730 0.961 . S
H1744 C1730 0.961 . S
H1745 C1731 0.958 . S
H1746 C1731 0.961 . S
H1747 C1731 0.960 . S
C1748 C1749 1.391 . S
C1748 C1750 1.394 . S
C1748 H1764 0.931 . S
C1749 C1748 1.391 . S
C1749 C1753 1.376 1_655 S
C1750 C1748 1.394 . S
C1750 C1751 1.369 . S
C1750 C1754 1.531 . S
C1751 C1750 1.369 . S
C1751 C1752 1.410 1_655 S
C1751 C1759 1.503 . S
C1752 C1751 1.410 1_455 S
C1752 C1753 1.392 . S
C1752 C1755 1.511 . S
C1753 C1749 1.376 1_455 S
C1753 C1752 1.392 . S
C1753 H1765 0.929 . S
C1754 C1750 1.531 . S
C1754 H1766 0.960 . S
C1754 H1767 0.962 . S
C1754 H1768 0.960 . S
C1755 C1752 1.511 . S
C1755 H1769 0.961 . S
C1755 H1770 0.961 . S
C1755 H1771 0.961 . S
C1756 C1757 1.365 1_455 S
C1756 C1758 1.363 . S
C1756 H1772 0.931 . S
C1757 C1756 1.365 1_655 S
C1757 C1761 1.415 . S
C1758 C1756 1.363 . S
C1758 C1759 1.370 1_455 S
C1758 C1762 1.524 . S
C1759 C1751 1.503 . S
C1759 C1758 1.370 1_655 S
C1759 C1760 1.403 . S
C1760 C1759 1.403 . S
C1760 C1761 1.404 . S
C1760 C1763 1.539 . S
C1761 C1757 1.415 . S
C1761 C1760 1.404 . S
C1761 H1773 0.930 . S
C1762 C1758 1.524 . S
C1762 H1774 0.956 . S
C1762 H1775 0.961 . S
C1762 H1776 0.961 . S
C1763 C1760 1.539 . S
C1763 H1777 0.958 . S
C1763 H1778 0.961 . S
C1763 H1779 0.960 . S
H1764 C1748 0.931 . S
H1765 C1753 0.929 . S
H1766 C1754 0.960 . S
H1767 C1754 0.962 . S
H1768 C1754 0.960 . S
H1769 C1755 0.961 . S
H1770 C1755 0.961 . S
H1771 C1755 0.961 . S
H1772 C1756 0.931 . S
H1773 C1761 0.930 . S
H1774 C1762 0.956 . S
H1775 C1762 0.961 . S
H1776 C1762 0.961 . S
H1777 C1763 0.958 . S
H1778 C1763 0.961 . S
H1779 C1763 0.960 . S
C1780 C1781 1.391 . S
C1780 C1782 1.394 . S
C1780 H1796 0.931 . S
C1781 C1780 1.391 . S
C1781 C1785 1.376 1_565 S
C1782 C1780 1.394 . S
C1782 C1783 1.369 . S
C1782 C1786 1.531 . S
C1783 C1782 1.369 . S
C1783 C1784 1.410 1_565 S
C1783 C1791 1.503 . S
C1784 C1783 1.410 1_545 S
C1784 C1785 1.392 . S
C1784 C1787 1.511 . S
C1785 C1781 1.376 1_545 S
C1785 C1784 1.392 . S
C1785 H1797 0.929 . S
C1786 C1782 1.531 . S
C1786 H1798 0.960 . S
C1786 H1799 0.962 . S
C1786 H1800 0.960 . S
C1787 C1784 1.511 . S
C1787 H1801 0.961 . S
C1787 H1802 0.961 . S
C1787 H1803 0.961 . S
C1788 C1789 1.350 1_545 S
C1788 C1790 1.363 . S
C1788 H1804 0.931 . S
C1789 C1788 1.350 1_565 S
C1789 C1793 1.431 . S
C1790 C1788 1.363 . S
C1790 C1791 1.370 1_545 S
C1790 C1794 1.524 . S
C1791 C1783 1.503 . S
C1791 C1790 1.370 1_565 S
C1791 C1792 1.403 . S
C1792 C1791 1.403 . S
C1792 C1793 1.404 . S
C1792 C1795 1.539 . S
C1793 C1789 1.431 . S
C1793 C1792 1.404 . S
C1793 H1805 0.930 . S
C1794 C1790 1.524 . S
C1794 H1806 0.956 . S
C1794 H1807 0.961 . S
C1794 H1808 0.961 . S
C1795 C1792 1.539 . S
C1795 H1809 0.958 . S
C1795 H1810 0.961 . S
C1795 H1811 0.960 . S
H1796 C1780 0.931 . S
H1797 C1785 0.929 . S
H1798 C1786 0.960 . S
H1799 C1786 0.962 . S
H1800 C1786 0.960 . S
H1801 C1787 0.961 . S
H1802 C1787 0.961 . S
H1803 C1787 0.961 . S
H1804 C1788 0.931 . S
H1805 C1793 0.930 . S
H1806 C1794 0.956 . S
H1807 C1794 0.961 . S
H1808 C1794 0.961 . S
H1809 C1795 0.958 . S
H1810 C1795 0.961 . S
H1811 C1795 0.960 . S
C1812 C1813 1.391 1_455 S
C1812 C1814 1.394 . S
C1812 H1828 0.931 . S
C1813 C1812 1.391 1_655 S
C1813 C1817 1.376 . S
C1814 C1812 1.394 . S
C1814 C1815 1.369 1_455 S
C1814 C1818 1.531 . S
C1815 C1814 1.369 1_655 S
C1815 C1816 1.410 . S
C1815 C1823 1.503 . S
C1816 C1815 1.410 . S
C1816 C1817 1.392 . S
C1816 C1819 1.511 . S
C1817 C1813 1.376 . S
C1817 C1816 1.392 . S
C1817 H1829 0.929 . S
C1818 C1814 1.531 . S
C1818 H1830 0.960 . S
C1818 H1831 0.962 . S
C1818 H1832 0.960 . S
C1819 C1816 1.511 . S
C1819 H1833 0.961 . S
C1819 H1834 0.961 . S
C1819 H1835 0.961 . S
C1820 C1821 1.353 1_455 S
C1820 C1822 1.363 . S
C1820 H1836 0.931 . S
C1821 C1820 1.353 1_655 S
C1821 C1825 1.427 . S
C1822 C1820 1.363 . S
C1822 C1823 1.370 1_455 S
C1822 C1826 1.524 . S
C1823 C1815 1.503 . S
C1823 C1822 1.370 1_655 S
C1823 C1824 1.403 . S
C1824 C1823 1.403 . S
C1824 C1825 1.404 . S
C1824 C1827 1.539 . S
C1825 C1821 1.427 . S
C1825 C1824 1.404 . S
C1825 H1837 0.930 . S
C1826 C1822 1.524 . S
C1826 H1838 0.956 . S
C1826 H1839 0.961 . S
C1826 H1840 0.961 . S
C1827 C1824 1.539 . S
C1827 H1841 0.958 . S
C1827 H1842 0.961 . S
C1827 H1843 0.960 . S
H1828 C1812 0.931 . S
H1829 C1817 0.929 . S
H1830 C1818 0.960 . S
H1831 C1818 0.962 . S
H1832 C1818 0.960 . S
H1833 C1819 0.961 . S
H1834 C1819 0.961 . S
H1835 C1819 0.961 . S
H1836 C1820 0.931 . S
H1837 C1825 0.930 . S
H1838 C1826 0.956 . S
H1839 C1826 0.961 . S
H1840 C1826 0.961 . S
H1841 C1827 0.958 . S
H1842 C1827 0.961 . S
H1843 C1827 0.960 . S
C1844 C1845 1.391 1_556 S
C1844 C1846 1.394 . S
C1844 H1860 0.931 . S
C1845 C1844 1.391 1_554 S
C1845 C1849 1.376 . S
C1846 C1844 1.394 . S
C1846 C1847 1.369 1_556 S
C1846 C1850 1.531 . S
C1847 C1846 1.369 1_554 S
C1847 C1848 1.410 . S
C1847 C1855 1.503 . S
C1848 C1847 1.410 . S
C1848 C1849 1.392 . S
C1848 C1851 1.511 . S
C1849 C1845 1.376 . S
C1849 C1848 1.392 . S
C1849 H1861 0.929 . S
C1850 C1846 1.531 . S
C1850 H1862 0.948 1_556 S
C1850 H1863 0.962 . S
C1850 H1864 0.960 . S
C1851 C1848 1.511 . S
C1851 H1865 0.961 . S
C1851 H1866 0.961 . S
C1851 H1867 0.961 . S
C1852 C1853 1.370 1_556 S
C1852 C1854 1.363 . S
C1852 H1868 0.931 . S
C1853 C1852 1.370 1_554 S
C1853 C1857 1.408 . S
C1854 C1852 1.363 . S
C1854 C1855 1.370 1_556 S
C1854 C1858 1.524 . S
C1855 C1847 1.503 . S
C1855 C1854 1.370 1_554 S
C1855 C1856 1.403 . S
C1856 C1855 1.403 . S
C1856 C1857 1.404 . S
C1856 C1859 1.539 . S
C1857 C1853 1.408 . S
C1857 C1856 1.404 . S
C1857 H1869 0.930 . S
C1858 C1854 1.524 . S
C1858 H1870 0.956 . S
C1858 H1871 0.961 . S
C1858 H1872 0.961 . S
C1859 C1856 1.539 . S
C1859 H1873 0.958 . S
C1859 H1874 0.961 . S
C1859 H1875 0.960 . S
H1860 C1844 0.931 . S
H1861 C1849 0.929 . S
H1862 C1850 0.948 1_554 S
H1863 C1850 0.962 . S
H1864 C1850 0.960 . S
H1865 C1851 0.961 . S
H1866 C1851 0.961 . S
H1867 C1851 0.961 . S
H1868 C1852 0.931 . S
H1869 C1857 0.930 . S
H1870 C1858 0.956 . S
H1871 C1858 0.961 . S
H1872 C1858 0.961 . S
H1873 C1859 0.958 . S
H1874 C1859 0.961 . S
H1875 C1859 0.960 . S
C1876 C1877 1.391 . S
C1876 C1878 1.394 . S
C1876 H1892 0.931 . S
C1877 C1876 1.391 . S
C1877 C1881 1.376 1_556 S
C1878 C1876 1.394 . S
C1878 C1879 1.369 . S
C1878 C1882 1.531 . S
C1879 C1878 1.369 . S
C1879 C1880 1.410 1_556 S
C1879 C1887 1.503 . S
C1880 C1879 1.410 1_554 S
C1880 C1881 1.392 . S
C1880 C1883 1.511 . S
C1881 C1877 1.376 1_554 S
C1881 C1880 1.392 . S
C1881 H1893 0.929 . S
C1882 C1878 1.531 . S
C1882 H1894 0.960 . S
C1882 H1895 0.962 . S
C1882 H1896 0.960 . S
C1883 C1880 1.511 . S
C1883 H1897 0.961 . S
C1883 H1898 0.961 . S
C1883 H1899 0.961 . S
C1884 C1885 1.352 1_554 S
C1884 C1886 1.363 . S
C1884 H1900 0.931 . S
C1885 C1884 1.352 1_556 S
C1885 C1889 1.429 . S
C1886 C1884 1.363 . S
C1886 C1887 1.370 1_554 S
C1886 C1890 1.524 . S
C1887 C1879 1.503 . S
C1887 C1886 1.370 1_556 S
C1887 C1888 1.403 . S
C1888 C1887 1.403 . S
C1888 C1889 1.404 . S
C1888 C1891 1.539 . S
C1889 C1885 1.429 . S
C1889 C1888 1.404 . S
C1889 H1901 0.930 . S
C1890 C1886 1.524 . S
C1890 H1902 0.956 . S
C1890 H1903 0.961 . S
C1890 H1904 0.961 . S
C1891 C1888 1.539 . S
C1891 H1905 0.958 . S
C1891 H1906 0.961 . S
C1891 H1907 0.960 . S
H1892 C1876 0.931 . S
H1893 C1881 0.929 . S
H1894 C1882 0.960 . S
H1895 C1882 0.962 . S
H1896 C1882 0.960 . S
H1897 C1883 0.961 . S
H1898 C1883 0.961 . S
H1899 C1883 0.961 . S
H1900 C1884 0.931 . S
H1901 C1889 0.930 . S
H1902 C1890 0.956 . S
H1903 C1890 0.961 . S
H1904 C1890 0.961 . S
H1905 C1891 0.958 . S
H1906 C1891 0.961 . S
H1907 C1891 0.960 . S
C1908 C1909 1.391 . S
C1908 C1910 1.394 . S
C1908 H1924 0.931 . S
C1909 C1908 1.391 . S
C1909 C1913 1.376 1_554 S
C1910 C1908 1.394 . S
C1910 C1911 1.369 . S
C1910 C1914 1.531 . S
C1911 C1910 1.369 . S
C1911 C1912 1.410 1_554 S
C1911 C1919 1.503 . S
C1912 C1911 1.410 1_556 S
C1912 C1913 1.392 . S
C1912 C1915 1.511 . S
C1913 C1909 1.376 1_556 S
C1913 C1912 1.392 . S
C1913 H1925 0.929 . S
C1914 C1910 1.531 . S
C1914 H1926 0.960 . S
C1914 H1927 0.962 . S
C1914 H1928 0.960 . S
C1915 C1912 1.511 . S
C1915 H1929 0.961 . S
C1915 H1930 0.961 . S
C1915 H1931 0.961 . S
C1916 C1917 1.351 1_556 S
C1916 C1918 1.363 . S
C1916 H1932 0.931 . S
C1917 C1916 1.351 1_554 S
C1917 C1921 1.431 . S
C1918 C1916 1.363 . S
C1918 C1919 1.370 1_556 S
C1918 C1922 1.524 . S
C1919 C1911 1.503 . S
C1919 C1918 1.370 1_554 S
C1919 C1920 1.403 . S
C1920 C1919 1.403 . S
C1920 C1921 1.404 . S
C1920 C1923 1.539 . S
C1921 C1917 1.431 . S
C1921 C1920 1.404 . S
C1921 H1933 0.930 . S
C1922 C1918 1.524 . S
C1922 H1934 0.956 . S
C1922 H1935 0.961 . S
C1922 H1936 0.961 . S
C1923 C1920 1.539 . S
C1923 H1937 0.958 . S
C1923 H1938 0.961 . S
C1923 H1939 0.960 . S
H1924 C1908 0.931 . S
H1925 C1913 0.929 . S
H1926 C1914 0.960 . S
H1927 C1914 0.962 . S
H1928 C1914 0.960 . S
H1929 C1915 0.961 . S
H1930 C1915 0.961 . S
H1931 C1915 0.961 . S
H1932 C1916 0.931 . S
H1933 C1921 0.930 . S
H1934 C1922 0.956 . S
H1935 C1922 0.961 . S
H1936 C1922 0.961 . S
H1937 C1923 0.958 . S
H1938 C1923 0.961 . S
H1939 C1923 0.960 . S
C1940 C1941 1.393 . S
C1940 C1942 1.396 . S
C1940 H1956 0.927 1_556 S
C1941 C1940 1.393 . S
C1941 C1945 1.376 . S
C1942 C1940 1.396 . S
C1942 C1943 1.369 . S
C1942 C1946 1.533 . S
C1943 C1942 1.369 . S
C1943 C1944 1.410 . S
C1943 C1951 1.503 . S
C1944 C1943 1.410 . S
C1944 C1945 1.392 . S
C1944 C1947 1.511 . S
C1945 C1941 1.376 . S
C1945 C1944 1.392 . S
C1945 H1957 0.929 . S
C1946 C1942 1.533 . S
C1946 H1958 0.975 . S
C1946 H1959 0.936 1_556 S
C1946 H1960 0.971 . S
C1947 C1944 1.511 . S
C1947 H1961 0.961 . S
C1947 H1962 0.961 . S
C1947 H1963 0.961 . S
C1948 C1949 1.338 1_554 S
C1948 C1950 1.363 . S
C1948 H1964 0.931 . S
C1949 C1948 1.338 1_556 S
C1949 C1953 1.444 . S
C1950 C1948 1.363 . S
C1950 C1951 1.370 1_554 S
C1950 C1954 1.524 . S
C1951 C1943 1.503 . S
C1951 C1950 1.370 1_556 S
C1951 C1952 1.403 . S
C1952 C1951 1.403 . S
C1952 C1953 1.404 . S
C1952 C1955 1.539 . S
C1953 C1949 1.444 . S
C1953 C1952 1.404 . S
C1953 H1965 0.930 . S
C1954 C1950 1.524 . S
C1954 H1966 0.956 . S
C1954 H1967 0.961 . S
C1954 H1968 0.961 . S
C1955 C1952 1.539 . S
C1955 H1969 0.958 . S
C1955 H1970 0.961 . S
C1955 H1971 0.960 . S
H1956 C1940 0.927 1_554 S
H1957 C1945 0.929 . S
H1958 C1946 0.975 . S
H1959 C1946 0.936 1_554 S
H1960 C1946 0.971 . S
H1961 C1947 0.961 . S
H1962 C1947 0.961 . S
H1963 C1947 0.961 . S
H1964 C1948 0.931 . S
H1965 C1953 0.930 . S
H1966 C1954 0.956 . S
H1967 C1954 0.961 . S
H1968 C1954 0.961 . S
H1969 C1955 0.958 . S
H1970 C1955 0.961 . S
H1971 C1955 0.960 . S
C1972 C1973 1.391 . S
C1972 C1974 1.394 . S
C1972 H1988 0.931 . S
C1973 C1972 1.391 . S
C1973 C1977 1.376 1_554 S
C1974 C1972 1.394 . S
C1974 C1975 1.369 . S
C1974 C1978 1.531 . S
C1975 C1974 1.369 . S
C1975 C1976 1.410 1_554 S
C1975 C1983 1.503 . S
C1976 C1975 1.410 1_556 S
C1976 C1977 1.392 . S
C1976 C1979 1.511 . S
C1977 C1973 1.376 1_556 S
C1977 C1976 1.392 . S
C1977 H1989 0.929 . S
C1978 C1974 1.531 . S
C1978 H1990 0.960 . S
C1978 H1991 0.962 . S
C1978 H1992 0.960 . S
C1979 C1976 1.511 . S
C1979 H1993 0.961 . S
C1979 H1994 0.961 . S
C1979 H1995 0.961 . S
C1980 C1981 1.352 1_556 S
C1980 C1982 1.363 . S
C1980 H1996 0.931 . S
C1981 C1980 1.352 1_554 S
C1981 C1985 1.430 . S
C1982 C1980 1.363 . S
C1982 C1983 1.370 1_556 S
C1982 C1986 1.524 . S
C1983 C1975 1.503 . S
C1983 C1982 1.370 1_554 S
C1983 C1984 1.403 . S
C1984 C1983 1.403 . S
C1984 C1985 1.404 . S
C1984 C1987 1.539 . S
C1985 C1981 1.430 . S
C1985 C1984 1.404 . S
C1985 H1997 0.930 . S
C1986 C1982 1.524 . S
C1986 H1998 0.956 . S
C1986 H1999 0.961 . S
C1986 H2000 0.961 . S
C1987 C1984 1.539 . S
C1987 H2001 0.958 . S
C1987 H2002 0.961 . S
C1987 H2003 0.960 . S
H1988 C1972 0.931 . S
H1989 C1977 0.929 . S
H1990 C1978 0.960 . S
H1991 C1978 0.962 . S
H1992 C1978 0.960 . S
H1993 C1979 0.961 . S
H1994 C1979 0.961 . S
H1995 C1979 0.961 . S
H1996 C1980 0.931 . S
H1997 C1985 0.930 . S
H1998 C1986 0.956 . S
H1999 C1986 0.961 . S
H2000 C1986 0.961 . S
H2001 C1987 0.958 . S
H2002 C1987 0.961 . S
H2003 C1987 0.960 . S
C2004 C2005 1.391 1_556 S
C2004 C2006 1.394 . S
C2004 H2020 0.931 . S
C2005 C2004 1.391 1_554 S
C2005 C2009 1.376 . S
C2006 C2004 1.394 . S
C2006 C2007 1.369 1_556 S
C2006 C2010 1.531 . S
C2007 C2006 1.369 1_554 S
C2007 C2008 1.410 . S
C2007 C2015 1.503 . S
C2008 C2007 1.410 . S
C2008 C2009 1.392 . S
C2008 C2011 1.511 . S
C2009 C2005 1.376 . S
C2009 C2008 1.392 . S
C2009 H2021 0.929 . S
C2010 C2006 1.531 . S
C2010 H2022 0.960 . S
C2010 H2023 0.962 . S
C2010 H2024 0.960 . S
C2011 C2008 1.511 . S
C2011 H2025 0.961 . S
C2011 H2026 0.961 . S
C2011 H2027 0.961 . S
C2012 C2013 1.349 1_556 S
C2012 C2014 1.363 . S
C2012 H2028 0.931 . S
C2013 C2012 1.349 1_554 S
C2013 C2017 1.432 . S
C2014 C2012 1.363 . S
C2014 C2015 1.370 1_556 S
C2014 C2018 1.524 . S
C2015 C2007 1.503 . S
C2015 C2014 1.370 1_554 S
C2015 C2016 1.403 . S
C2016 C2015 1.403 . S
C2016 C2017 1.404 . S
C2016 C2019 1.539 . S
C2017 C2013 1.432 . S
C2017 C2016 1.404 . S
C2017 H2029 0.930 . S
C2018 C2014 1.524 . S
C2018 H2030 0.956 . S
C2018 H2031 0.961 . S
C2018 H2032 0.961 . S
C2019 C2016 1.539 . S
C2019 H2033 0.958 . S
C2019 H2034 0.961 . S
C2019 H2035 0.960 . S
H2020 C2004 0.931 . S
H2021 C2009 0.929 . S
H2022 C2010 0.960 . S
H2023 C2010 0.962 . S
H2024 C2010 0.960 . S
H2025 C2011 0.961 . S
H2026 C2011 0.961 . S
H2027 C2011 0.961 . S
H2028 C2012 0.931 . S
H2029 C2017 0.930 . S
H2030 C2018 0.956 . S
H2031 C2018 0.961 . S
H2032 C2018 0.961 . S
H2033 C2019 0.958 . S
H2034 C2019 0.961 . S
H2035 C2019 0.960 . S
C2036 C2037 1.391 . S
C2036 C2038 1.394 . S
C2036 H2052 0.931 . S
C2037 C2036 1.391 . S
C2037 C2041 1.376 1_556 S
C2038 C2036 1.394 . S
C2038 C2039 1.369 . S
C2038 C2042 1.531 . S
C2039 C2038 1.369 . S
C2039 C2040 1.410 1_556 S
C2039 C2047 1.503 . S
C2040 C2039 1.410 1_554 S
C2040 C2041 1.392 . S
C2040 C2043 1.511 . S
C2041 C2037 1.376 1_554 S
C2041 C2040 1.392 . S
C2041 H2053 0.929 . S
C2042 C2038 1.531 . S
C2042 H2054 0.960 . S
C2042 H2055 0.962 . S
C2042 H2056 0.960 . S
C2043 C2040 1.511 . S
C2043 H2057 0.961 . S
C2043 H2058 0.961 . S
C2043 H2059 0.961 1_554 S
C2044 C2045 1.344 1_554 S
C2044 C2046 1.363 . S
C2044 H2060 0.931 . S
C2045 C2044 1.344 1_556 S
C2045 C2049 1.438 . S
C2046 C2044 1.363 . S
C2046 C2047 1.370 1_554 S
C2046 C2050 1.524 . S
C2047 C2039 1.503 . S
C2047 C2046 1.370 1_556 S
C2047 C2048 1.403 . S
C2048 C2047 1.403 . S
C2048 C2049 1.404 . S
C2048 C2051 1.539 . S
C2049 C2045 1.438 . S
C2049 C2048 1.404 . S
C2049 H2061 0.930 . S
C2050 C2046 1.524 . S
C2050 H2062 0.956 . S
C2050 H2063 0.961 . S
C2050 H2064 0.961 . S
C2051 C2048 1.539 . S
C2051 H2065 0.958 . S
C2051 H2066 0.961 . S
C2051 H2067 0.960 . S
H2052 C2036 0.931 . S
H2053 C2041 0.929 . S
H2054 C2042 0.960 . S
H2055 C2042 0.962 . S
H2056 C2042 0.960 . S
H2057 C2043 0.961 . S
H2058 C2043 0.961 . S
H2059 C2043 0.961 1_556 S
H2060 C2044 0.931 . S
H2061 C2049 0.930 . S
H2062 C2050 0.956 . S
H2063 C2050 0.961 . S
H2064 C2050 0.961 . S
H2065 C2051 0.958 . S
H2066 C2051 0.961 . S
H2067 C2051 0.960 . S
C2068 C2069 1.391 . S
C2068 C2070 1.394 . S
C2068 H2084 0.931 . S
C2069 C2068 1.391 . S
C2069 C2073 1.376 1_554 S
C2070 C2068 1.394 . S
C2070 C2071 1.369 . S
C2070 C2074 1.531 . S
C2071 C2070 1.369 . S
C2071 C2072 1.401 1_554 S
C2071 C2079 1.503 . S
C2072 C2071 1.401 1_556 S
C2072 C2073 1.395 . S
C2072 C2075 1.518 . S
C2073 C2069 1.376 1_556 S
C2073 C2072 1.395 . S
C2073 H2085 0.929 . S
C2074 C2070 1.531 . S
C2074 H2086 0.960 . S
C2074 H2087 0.962 . S
C2074 H2088 0.960 . S
C2075 C2072 1.518 . S
C2075 H2089 0.961 . S
C2075 H2090 0.961 . S
C2075 H2091 0.961 1_556 S
C2076 C2077 1.335 1_556 S
C2076 C2078 1.363 . S
C2076 H2092 0.931 . S
C2077 C2076 1.335 1_554 S
C2077 C2081 1.448 . S
C2078 C2076 1.363 . S
C2078 C2079 1.370 1_556 S
C2078 C2082 1.524 . S
C2079 C2071 1.503 . S
C2079 C2078 1.370 1_554 S
C2079 C2080 1.403 . S
C2080 C2079 1.403 . S
C2080 C2081 1.404 . S
C2080 C2083 1.539 . S
C2081 C2077 1.448 . S
C2081 C2080 1.404 . S
C2081 H2093 0.930 . S
C2082 C2078 1.524 . S
C2082 H2094 0.956 . S
C2082 H2095 0.961 . S
C2082 H2096 0.961 . S
C2083 C2080 1.539 . S
C2083 H2097 0.958 . S
C2083 H2098 0.961 . S
C2083 H2099 0.960 . S
H2084 C2068 0.931 . S
H2085 C2073 0.929 . S
H2086 C2074 0.960 . S
H2087 C2074 0.962 . S
H2088 C2074 0.960 . S
H2089 C2075 0.961 . S
H2090 C2075 0.961 . S
H2091 C2075 0.961 1_554 S
H2092 C2076 0.931 . S
H2093 C2081 0.930 . S
H2094 C2082 0.956 . S
H2095 C2082 0.961 . S
H2096 C2082 0.961 . S
H2097 C2083 0.958 . S
H2098 C2083 0.961 . S
H2099 C2083 0.960 . S
C2100 C2101 1.391 . S
C2100 C2102 1.394 . S
C2100 H2116 0.931 . S
C2101 C2100 1.391 . S
C2101 C2105 1.376 . S
C2102 C2100 1.394 . S
C2102 C2103 1.369 . S
C2102 C2106 1.531 . S
C2103 C2102 1.369 . S
C2103 C2104 1.410 . S
C2103 C2111 1.503 . S
C2104 C2103 1.410 . S
C2104 C2105 1.392 . S
C2104 C2107 1.511 . S
C2105 C2101 1.376 . S
C2105 C2104 1.392 . S
C2105 H2117 0.929 . S
C2106 C2102 1.531 . S
C2106 H2118 0.960 . S
C2106 H2119 0.962 . S
C2106 H2120 0.960 . S
C2107 C2104 1.511 . S
C2107 H2121 0.961 . S
C2107 H2122 0.961 . S
C2107 H2123 0.961 . S
C2108 C2109 1.370 . S
C2108 C2110 1.363 . S
C2108 H2124 0.931 . S
C2109 C2108 1.370 . S
C2109 C2113 1.408 . S
C2110 C2108 1.363 . S
C2110 C2111 1.370 . S
C2110 C2114 1.524 . S
C2111 C2103 1.503 . S
C2111 C2110 1.370 . S
C2111 C2112 1.403 . S
C2112 C2111 1.403 . S
C2112 C2113 1.404 . S
C2112 C2115 1.539 . S
C2113 C2109 1.408 . S
C2113 C2112 1.404 . S
C2113 H2125 0.930 . S
C2114 C2110 1.524 . S
C2114 H2126 0.956 . S
C2114 H2127 0.961 . S
C2114 H2128 0.961 . S
C2115 C2112 1.539 . S
C2115 H2129 0.958 . S
C2115 H2130 0.961 . S
C2115 H2131 0.960 . S
H2116 C2100 0.931 . S
H2117 C2105 0.929 . S
H2118 C2106 0.960 . S
H2119 C2106 0.962 . S
H2120 C2106 0.960 . S
H2121 C2107 0.961 . S
H2122 C2107 0.961 . S
H2123 C2107 0.961 . S
H2124 C2108 0.931 . S
H2125 C2113 0.930 . S
H2126 C2114 0.956 . S
H2127 C2114 0.961 . S
H2128 C2114 0.961 . S
H2129 C2115 0.958 . S
H2130 C2115 0.961 . S
H2131 C2115 0.960 . S
C2132 C2133 1.391 . S
C2132 C2134 1.394 . S
C2132 H2148 0.931 . S
C2133 C2132 1.391 . S
C2133 C2137 1.376 . S
C2134 C2132 1.394 . S
C2134 C2135 1.369 . S
C2134 C2138 1.531 . S
C2135 C2134 1.369 . S
C2135 C2136 1.410 . S
C2135 C2143 1.503 . S
C2136 C2135 1.410 . S
C2136 C2137 1.392 . S
C2136 C2139 1.511 . S
C2137 C2133 1.376 . S
C2137 C2136 1.392 . S
C2137 H2149 0.929 . S
C2138 C2134 1.531 . S
C2138 H2150 0.960 . S
C2138 H2151 0.962 . S
C2138 H2152 0.960 . S
C2139 C2136 1.511 . S
C2139 H2153 0.961 . S
C2139 H2154 0.961 . S
C2139 H2155 0.961 . S
C2140 C2141 1.370 . S
C2140 C2142 1.363 . S
C2140 H2156 0.931 . S
C2141 C2140 1.370 . S
C2141 C2145 1.408 . S
C2142 C2140 1.363 . S
C2142 C2143 1.370 . S
C2142 C2146 1.524 . S
C2143 C2135 1.503 . S
C2143 C2142 1.370 . S
C2143 C2144 1.403 . S
C2144 C2143 1.403 . S
C2144 C2145 1.404 . S
C2144 C2147 1.539 . S
C2145 C2141 1.408 . S
C2145 C2144 1.404 . S
C2145 H2157 0.930 . S
C2146 C2142 1.524 . S
C2146 H2158 0.956 . S
C2146 H2159 0.961 . S
C2146 H2160 0.961 . S
C2147 C2144 1.539 . S
C2147 H2161 0.958 . S
C2147 H2162 0.961 . S
C2147 H2163 0.960 . S
H2148 C2132 0.931 . S
H2149 C2137 0.929 . S
H2150 C2138 0.960 . S
H2151 C2138 0.962 . S
H2152 C2138 0.960 . S
H2153 C2139 0.961 . S
H2154 C2139 0.961 . S
H2155 C2139 0.961 . S
H2156 C2140 0.931 . S
H2157 C2145 0.930 . S
H2158 C2146 0.956 . S
H2159 C2146 0.961 . S
H2160 C2146 0.961 . S
H2161 C2147 0.958 . S
H2162 C2147 0.961 . S
H2163 C2147 0.960 . S
C2164 C2165 1.391 . S
C2164 C2166 1.394 . S
C2164 H2180 0.931 . S
C2165 C2164 1.391 . S
C2165 C2169 1.376 . S
C2166 C2164 1.394 . S
C2166 C2167 1.369 . S
C2166 C2170 1.531 . S
C2167 C2166 1.369 . S
C2167 C2168 1.410 . S
C2167 C2175 1.503 . S
C2168 C2167 1.410 . S
C2168 C2169 1.392 . S
C2168 C2171 1.511 . S
C2169 C2165 1.376 . S
C2169 C2168 1.392 . S
C2169 H2181 0.929 . S
C2170 C2166 1.531 . S
C2170 H2182 0.960 . S
C2170 H2183 0.962 . S
C2170 H2184 0.960 . S
C2171 C2168 1.511 . S
C2171 H2185 0.961 . S
C2171 H2186 0.961 . S
C2171 H2187 0.961 . S
C2172 C2173 1.370 . S
C2172 C2174 1.363 . S
C2172 H2188 0.931 . S
C2173 C2172 1.370 . S
C2173 C2177 1.408 . S
C2174 C2172 1.363 . S
C2174 C2175 1.370 . S
C2174 C2178 1.524 . S
C2175 C2167 1.503 . S
C2175 C2174 1.370 . S
C2175 C2176 1.403 . S
C2176 C2175 1.403 . S
C2176 C2177 1.404 . S
C2176 C2179 1.539 . S
C2177 C2173 1.408 . S
C2177 C2176 1.404 . S
C2177 H2189 0.930 . S
C2178 C2174 1.524 . S
C2178 H2190 0.956 . S
C2178 H2191 0.961 . S
C2178 H2192 0.961 . S
C2179 C2176 1.539 . S
C2179 H2193 0.958 . S
C2179 H2194 0.961 . S
C2179 H2195 0.960 . S
H2180 C2164 0.931 . S
H2181 C2169 0.929 . S
H2182 C2170 0.960 . S
H2183 C2170 0.962 . S
H2184 C2170 0.960 . S
H2185 C2171 0.961 . S
H2186 C2171 0.961 . S
H2187 C2171 0.961 . S
H2188 C2172 0.931 . S
H2189 C2177 0.930 . S
H2190 C2178 0.956 . S
H2191 C2178 0.961 . S
H2192 C2178 0.961 . S
H2193 C2179 0.958 . S
H2194 C2179 0.961 . S
H2195 C2179 0.960 . S
C2196 C2197 1.391 . S
C2196 C2198 1.394 . S
C2196 H2212 0.931 . S
C2197 C2196 1.391 . S
C2197 C2201 1.376 . S
C2198 C2196 1.394 . S
C2198 C2199 1.369 . S
C2198 C2202 1.531 . S
C2199 C2198 1.369 . S
C2199 C2200 1.410 . S
C2199 C2207 1.503 . S
C2200 C2199 1.410 . S
C2200 C2201 1.392 . S
C2200 C2203 1.511 . S
C2201 C2197 1.376 . S
C2201 C2200 1.392 . S
C2201 H2213 0.929 . S
C2202 C2198 1.531 . S
C2202 H2214 0.960 . S
C2202 H2215 0.962 . S
C2202 H2216 0.960 . S
C2203 C2200 1.511 . S
C2203 H2217 0.961 . S
C2203 H2218 0.961 . S
C2203 H2219 0.961 . S
C2204 C2205 1.370 . S
C2204 C2206 1.363 . S
C2204 H2220 0.931 . S
C2205 C2204 1.370 . S
C2205 C2209 1.408 . S
C2206 C2204 1.363 . S
C2206 C2207 1.370 . S
C2206 C2210 1.524 . S
C2207 C2199 1.503 . S
C2207 C2206 1.370 . S
C2207 C2208 1.403 . S
C2208 C2207 1.403 . S
C2208 C2209 1.404 . S
C2208 C2211 1.539 . S
C2209 C2205 1.408 . S
C2209 C2208 1.404 . S
C2209 H2221 0.930 . S
C2210 C2206 1.524 . S
C2210 H2222 0.956 . S
C2210 H2223 0.961 . S
C2210 H2224 0.961 . S
C2211 C2208 1.539 . S
C2211 H2225 0.958 . S
C2211 H2226 0.961 . S
C2211 H2227 0.960 . S
H2212 C2196 0.931 . S
H2213 C2201 0.929 . S
H2214 C2202 0.960 . S
H2215 C2202 0.962 . S
H2216 C2202 0.960 . S
H2217 C2203 0.961 . S
H2218 C2203 0.961 . S
H2219 C2203 0.961 . S
H2220 C2204 0.931 . S
H2221 C2209 0.930 . S
H2222 C2210 0.956 . S
H2223 C2210 0.961 . S
H2224 C2210 0.961 . S
H2225 C2211 0.958 . S
H2226 C2211 0.961 . S
H2227 C2211 0.960 . S
C2228 C2229 1.391 . S
C2228 C2230 1.394 . S
C2228 H2244 0.931 . S
C2229 C2228 1.391 . S
C2229 C2233 1.376 . S
C2230 C2228 1.394 . S
C2230 C2231 1.369 . S
C2230 C2234 1.531 . S
C2231 C2230 1.369 . S
C2231 C2232 1.410 . S
C2231 C2239 1.503 . S
C2232 C2231 1.410 . S
C2232 C2233 1.392 . S
C2232 C2235 1.511 . S
C2233 C2229 1.376 . S
C2233 C2232 1.392 . S
C2233 H2245 0.929 . S
C2234 C2230 1.531 . S
C2234 H2246 0.960 . S
C2234 H2247 0.962 . S
C2234 H2248 0.960 . S
C2235 C2232 1.511 . S
C2235 H2249 0.961 . S
C2235 H2250 0.961 . S
C2235 H2251 0.961 . S
C2236 C2237 1.370 . S
C2236 C2238 1.363 . S
C2236 H2252 0.931 . S
C2237 C2236 1.370 . S
C2237 C2241 1.408 . S
C2238 C2236 1.363 . S
C2238 C2239 1.370 . S
C2238 C2242 1.524 . S
C2239 C2231 1.503 . S
C2239 C2238 1.370 . S
C2239 C2240 1.403 . S
C2240 C2239 1.403 . S
C2240 C2241 1.404 . S
C2240 C2243 1.539 . S
C2241 C2237 1.408 . S
C2241 C2240 1.404 . S
C2241 H2253 0.930 . S
C2242 C2238 1.524 . S
C2242 H2254 0.956 . S
C2242 H2255 0.961 . S
C2242 H2256 0.961 . S
C2243 C2240 1.539 . S
C2243 H2257 0.958 . S
C2243 H2258 0.961 . S
C2243 H2259 0.960 . S
H2244 C2228 0.931 . S
H2245 C2233 0.929 . S
H2246 C2234 0.960 . S
H2247 C2234 0.962 . S
H2248 C2234 0.960 . S
H2249 C2235 0.961 . S
H2250 C2235 0.961 . S
H2251 C2235 0.961 . S
H2252 C2236 0.931 . S
H2253 C2241 0.930 . S
H2254 C2242 0.956 . S
H2255 C2242 0.961 . S
H2256 C2242 0.961 . S
H2257 C2243 0.958 . S
H2258 C2243 0.961 . S
H2259 C2243 0.960 . S
C2260 C2261 1.391 . S
C2260 C2262 1.394 . S
C2260 H2276 0.931 . S
C2261 C2260 1.391 . S
C2261 C2265 1.376 . S
C2262 C2260 1.394 . S
C2262 C2263 1.369 . S
C2262 C2266 1.531 . S
C2263 C2262 1.369 . S
C2263 C2264 1.410 . S
C2263 C2271 1.503 . S
C2264 C2263 1.410 . S
C2264 C2265 1.392 . S
C2264 C2267 1.511 . S
C2265 C2261 1.376 . S
C2265 C2264 1.392 . S
C2265 H2277 0.929 . S
C2266 C2262 1.531 . S
C2266 H2278 0.960 . S
C2266 H2279 0.962 . S
C2266 H2280 0.960 . S
C2267 C2264 1.511 . S
C2267 H2281 0.961 . S
C2267 H2282 0.961 . S
C2267 H2283 0.961 . S
C2268 C2269 1.370 . S
C2268 C2270 1.363 . S
C2268 H2284 0.931 . S
C2269 C2268 1.370 . S
C2269 C2273 1.408 . S
C2270 C2268 1.363 . S
C2270 C2271 1.370 . S
C2270 C2274 1.524 . S
C2271 C2263 1.503 . S
C2271 C2270 1.370 . S
C2271 C2272 1.403 . S
C2272 C2271 1.403 . S
C2272 C2273 1.404 . S
C2272 C2275 1.539 . S
C2273 C2269 1.408 . S
C2273 C2272 1.404 . S
C2273 H2285 0.930 . S
C2274 C2270 1.524 . S
C2274 H2286 0.956 . S
C2274 H2287 0.961 . S
C2274 H2288 0.961 . S
C2275 C2272 1.539 . S
C2275 H2289 0.958 . S
C2275 H2290 0.961 . S
C2275 H2291 0.960 . S
H2276 C2260 0.931 . S
H2277 C2265 0.929 . S
H2278 C2266 0.960 . S
H2279 C2266 0.962 . S
H2280 C2266 0.960 . S
H2281 C2267 0.961 . S
H2282 C2267 0.961 . S
H2283 C2267 0.961 . S
H2284 C2268 0.931 . S
H2285 C2273 0.930 . S
H2286 C2274 0.956 . S
H2287 C2274 0.961 . S
H2288 C2274 0.961 . S
H2289 C2275 0.958 . S
H2290 C2275 0.961 . S
H2291 C2275 0.960 . S
C2292 C2293 1.391 . S
C2292 C2294 1.394 . S
C2292 H2308 0.931 . S
C2293 C2292 1.391 . S
C2293 C2297 1.376 . S
C2294 C2292 1.394 . S
C2294 C2295 1.369 . S
C2294 C2298 1.531 . S
C2295 C2294 1.369 . S
C2295 C2296 1.410 . S
C2295 C2303 1.503 . S
C2296 C2295 1.410 . S
C2296 C2297 1.392 . S
C2296 C2299 1.511 . S
C2297 C2293 1.376 . S
C2297 C2296 1.392 . S
C2297 H2309 0.929 . S
C2298 C2294 1.531 . S
C2298 H2310 0.960 . S
C2298 H2311 0.962 . S
C2298 H2312 0.960 . S
C2299 C2296 1.511 . S
C2299 H2313 0.961 . S
C2299 H2314 0.961 . S
C2299 H2315 0.961 . S
C2300 C2301 1.370 . S
C2300 C2302 1.363 . S
C2300 H2316 0.931 . S
C2301 C2300 1.370 . S
C2301 C2305 1.408 . S
C2302 C2300 1.363 . S
C2302 C2303 1.370 . S
C2302 C2306 1.524 . S
C2303 C2295 1.503 . S
C2303 C2302 1.370 . S
C2303 C2304 1.403 . S
C2304 C2303 1.403 . S
C2304 C2305 1.404 . S
C2304 C2307 1.539 . S
C2305 C2301 1.408 . S
C2305 C2304 1.404 . S
C2305 H2317 0.930 . S
C2306 C2302 1.524 . S
C2306 H2318 0.956 . S
C2306 H2319 0.961 . S
C2306 H2320 0.961 . S
C2307 C2304 1.539 . S
C2307 H2321 0.958 . S
C2307 H2322 0.961 . S
C2307 H2323 0.960 . S
H2308 C2292 0.931 . S
H2309 C2297 0.929 . S
H2310 C2298 0.960 . S
H2311 C2298 0.962 . S
H2312 C2298 0.960 . S
H2313 C2299 0.961 . S
H2314 C2299 0.961 . S
H2315 C2299 0.961 . S
H2316 C2300 0.931 . S
H2317 C2305 0.930 . S
H2318 C2306 0.956 . S
H2319 C2306 0.961 . S
H2320 C2306 0.961 . S
H2321 C2307 0.958 . S
H2322 C2307 0.961 . S
H2323 C2307 0.960 . S
C2324 C2325 1.391 . S
C2324 C2326 1.394 . S
C2324 H2340 0.931 . S
C2325 C2324 1.391 . S
C2325 C2329 1.376 . S
C2326 C2324 1.394 . S
C2326 C2327 1.369 . S
C2326 C2330 1.531 . S
C2327 C2326 1.369 . S
C2327 C2328 1.410 . S
C2327 C2335 1.503 . S
C2328 C2327 1.410 . S
C2328 C2329 1.392 . S
C2328 C2331 1.511 . S
C2329 C2325 1.376 . S
C2329 C2328 1.392 . S
C2329 H2341 0.929 . S
C2330 C2326 1.531 . S
C2330 H2342 0.960 . S
C2330 H2343 0.962 . S
C2330 H2344 0.960 . S
C2331 C2328 1.511 . S
C2331 H2345 0.961 . S
C2331 H2346 0.961 . S
C2331 H2347 0.961 . S
C2332 C2333 1.370 . S
C2332 C2334 1.363 . S
C2332 H2348 0.931 . S
C2333 C2332 1.370 . S
C2333 C2337 1.408 . S
C2334 C2332 1.363 . S
C2334 C2335 1.370 . S
C2334 C2338 1.524 . S
C2335 C2327 1.503 . S
C2335 C2334 1.370 . S
C2335 C2336 1.403 . S
C2336 C2335 1.403 . S
C2336 C2337 1.404 . S
C2336 C2339 1.539 . S
C2337 C2333 1.408 . S
C2337 C2336 1.404 . S
C2337 H2349 0.930 . S
C2338 C2334 1.524 . S
C2338 H2350 0.956 . S
C2338 H2351 0.961 . S
C2338 H2352 0.961 . S
C2339 C2336 1.539 . S
C2339 H2353 0.958 . S
C2339 H2354 0.961 . S
C2339 H2355 0.960 . S
H2340 C2324 0.931 . S
H2341 C2329 0.929 . S
H2342 C2330 0.960 . S
H2343 C2330 0.962 . S
H2344 C2330 0.960 . S
H2345 C2331 0.961 . S
H2346 C2331 0.961 . S
H2347 C2331 0.961 . S
H2348 C2332 0.931 . S
H2349 C2337 0.930 . S
H2350 C2338 0.956 . S
H2351 C2338 0.961 . S
H2352 C2338 0.961 . S
H2353 C2339 0.958 . S
H2354 C2339 0.961 . S
H2355 C2339 0.960 . S
C2356 C2357 1.391 . S
C2356 C2358 1.394 . S
C2356 H2372 0.931 . S
C2357 C2356 1.391 . S
C2357 C2361 1.376 . S
C2358 C2356 1.394 . S
C2358 C2359 1.369 . S
C2358 C2362 1.531 . S
C2359 C2358 1.369 . S
C2359 C2360 1.410 . S
C2359 C2367 1.503 . S
C2360 C2359 1.410 . S
C2360 C2361 1.392 . S
C2360 C2363 1.511 . S
C2361 C2357 1.376 . S
C2361 C2360 1.392 . S
C2361 H2373 0.929 . S
C2362 C2358 1.531 . S
C2362 H2374 0.960 . S
C2362 H2375 0.962 . S
C2362 H2376 0.960 . S
C2363 C2360 1.511 . S
C2363 H2377 0.961 . S
C2363 H2378 0.961 . S
C2363 H2379 0.961 . S
C2364 C2365 1.370 . S
C2364 C2366 1.363 . S
C2364 H2380 0.931 . S
C2365 C2364 1.370 . S
C2365 C2369 1.408 . S
C2366 C2364 1.363 . S
C2366 C2367 1.370 . S
C2366 C2370 1.524 . S
C2367 C2359 1.503 . S
C2367 C2366 1.370 . S
C2367 C2368 1.403 . S
C2368 C2367 1.403 . S
C2368 C2369 1.404 . S
C2368 C2371 1.539 . S
C2369 C2365 1.408 . S
C2369 C2368 1.404 . S
C2369 H2381 0.930 . S
C2370 C2366 1.524 . S
C2370 H2382 0.956 . S
C2370 H2383 0.961 . S
C2370 H2384 0.961 . S
C2371 C2368 1.539 . S
C2371 H2385 0.958 . S
C2371 H2386 0.961 . S
C2371 H2387 0.960 . S
H2372 C2356 0.931 . S
H2373 C2361 0.929 . S
H2374 C2362 0.960 . S
H2375 C2362 0.962 . S
H2376 C2362 0.960 . S
H2377 C2363 0.961 . S
H2378 C2363 0.961 . S
H2379 C2363 0.961 . S
H2380 C2364 0.931 . S
H2381 C2369 0.930 . S
H2382 C2370 0.956 . S
H2383 C2370 0.961 . S
H2384 C2370 0.961 . S
H2385 C2371 0.958 . S
H2386 C2371 0.961 . S
H2387 C2371 0.960 . S
C2388 C2389 1.391 . S
C2388 C2390 1.394 . S
C2388 H2404 0.931 . S
C2389 C2388 1.391 . S
C2389 C2393 1.376 . S
C2390 C2388 1.394 . S
C2390 C2391 1.369 . S
C2390 C2394 1.531 . S
C2391 C2390 1.369 . S
C2391 C2392 1.410 . S
C2391 C2399 1.503 . S
C2392 C2391 1.410 . S
C2392 C2393 1.392 . S
C2392 C2395 1.511 . S
C2393 C2389 1.376 . S
C2393 C2392 1.392 . S
C2393 H2405 0.929 . S
C2394 C2390 1.531 . S
C2394 H2406 0.960 . S
C2394 H2407 0.962 . S
C2394 H2408 0.960 . S
C2395 C2392 1.511 . S
C2395 H2409 0.961 . S
C2395 H2410 0.961 . S
C2395 H2411 0.961 . S
C2396 C2397 1.370 . S
C2396 C2398 1.363 . S
C2396 H2412 0.931 . S
C2397 C2396 1.370 . S
C2397 C2401 1.408 . S
C2398 C2396 1.363 . S
C2398 C2399 1.370 . S
C2398 C2402 1.524 . S
C2399 C2391 1.503 . S
C2399 C2398 1.370 . S
C2399 C2400 1.403 . S
C2400 C2399 1.403 . S
C2400 C2401 1.404 . S
C2400 C2403 1.539 . S
C2401 C2397 1.408 . S
C2401 C2400 1.404 . S
C2401 H2413 0.930 . S
C2402 C2398 1.524 . S
C2402 H2414 0.956 . S
C2402 H2415 0.961 . S
C2402 H2416 0.961 . S
C2403 C2400 1.539 . S
C2403 H2417 0.958 . S
C2403 H2418 0.961 . S
C2403 H2419 0.960 . S
H2404 C2388 0.931 . S
H2405 C2393 0.929 . S
H2406 C2394 0.960 . S
H2407 C2394 0.962 . S
H2408 C2394 0.960 . S
H2409 C2395 0.961 . S
H2410 C2395 0.961 . S
H2411 C2395 0.961 . S
H2412 C2396 0.931 . S
H2413 C2401 0.930 . S
H2414 C2402 0.956 . S
H2415 C2402 0.961 . S
H2416 C2402 0.961 . S
H2417 C2403 0.958 . S
H2418 C2403 0.961 . S
H2419 C2403 0.960 . S
C2420 C2421 1.391 . S
C2420 C2422 1.394 . S
C2420 H2436 0.931 . S
C2421 C2420 1.391 . S
C2421 C2425 1.376 . S
C2422 C2420 1.394 . S
C2422 C2423 1.369 . S
C2422 C2426 1.531 . S
C2423 C2422 1.369 . S
C2423 C2424 1.410 . S
C2423 C2431 1.503 . S
C2424 C2423 1.410 . S
C2424 C2425 1.392 . S
C2424 C2427 1.511 . S
C2425 C2421 1.376 . S
C2425 C2424 1.392 . S
C2425 H2437 0.929 . S
C2426 C2422 1.531 . S
C2426 H2438 0.960 . S
C2426 H2439 0.962 . S
C2426 H2440 0.960 . S
C2427 C2424 1.511 . S
C2427 H2441 0.961 . S
C2427 H2442 0.961 . S
C2427 H2443 0.961 . S
C2428 C2429 1.370 . S
C2428 C2430 1.363 . S
C2428 H2444 0.931 . S
C2429 C2428 1.370 . S
C2429 C2433 1.408 . S
C2430 C2428 1.363 . S
C2430 C2431 1.370 . S
C2430 C2434 1.524 . S
C2431 C2423 1.503 . S
C2431 C2430 1.370 . S
C2431 C2432 1.403 . S
C2432 C2431 1.403 . S
C2432 C2433 1.404 . S
C2432 C2435 1.539 . S
C2433 C2429 1.408 . S
C2433 C2432 1.404 . S
C2433 H2445 0.930 . S
C2434 C2430 1.524 . S
C2434 H2446 0.956 . S
C2434 H2447 0.961 . S
C2434 H2448 0.961 . S
C2435 C2432 1.539 . S
C2435 H2449 0.958 . S
C2435 H2450 0.961 . S
C2435 H2451 0.960 . S
H2436 C2420 0.931 . S
H2437 C2425 0.929 . S
H2438 C2426 0.960 . S
H2439 C2426 0.962 . S
H2440 C2426 0.960 . S
H2441 C2427 0.961 . S
H2442 C2427 0.961 . S
H2443 C2427 0.961 . S
H2444 C2428 0.931 . S
H2445 C2433 0.930 . S
H2446 C2434 0.956 . S
H2447 C2434 0.961 . S
H2448 C2434 0.961 . S
H2449 C2435 0.958 . S
H2450 C2435 0.961 . S
H2451 C2435 0.960 . S
C2452 C2453 1.391 . S
C2452 C2454 1.394 . S
C2452 H2468 0.931 . S
C2453 C2452 1.391 . S
C2453 C2457 1.376 . S
C2454 C2452 1.394 . S
C2454 C2455 1.369 . S
C2454 C2458 1.531 . S
C2455 C2454 1.369 . S
C2455 C2456 1.410 . S
C2455 C2463 1.503 . S
C2456 C2455 1.410 . S
C2456 C2457 1.392 . S
C2456 C2459 1.511 . S
C2457 C2453 1.376 . S
C2457 C2456 1.392 . S
C2457 H2469 0.929 . S
C2458 C2454 1.531 . S
C2458 H2470 0.960 . S
C2458 H2471 0.962 . S
C2458 H2472 0.960 . S
C2459 C2456 1.511 . S
C2459 H2473 0.961 . S
C2459 H2474 0.961 . S
C2459 H2475 0.961 . S
C2460 C2461 1.370 . S
C2460 C2462 1.363 . S
C2460 H2476 0.931 . S
C2461 C2460 1.370 . S
C2461 C2465 1.408 . S
C2462 C2460 1.363 . S
C2462 C2463 1.370 . S
C2462 C2466 1.524 . S
C2463 C2455 1.503 . S
C2463 C2462 1.370 . S
C2463 C2464 1.403 . S
C2464 C2463 1.403 . S
C2464 C2465 1.404 . S
C2464 C2467 1.539 . S
C2465 C2461 1.408 . S
C2465 C2464 1.404 . S
C2465 H2477 0.930 . S
C2466 C2462 1.524 . S
C2466 H2478 0.956 . S
C2466 H2479 0.961 . S
C2466 H2480 0.961 . S
C2467 C2464 1.539 . S
C2467 H2481 0.958 . S
C2467 H2482 0.961 . S
C2467 H2483 0.960 . S
H2468 C2452 0.931 . S
H2469 C2457 0.929 . S
H2470 C2458 0.960 . S
H2471 C2458 0.962 . S
H2472 C2458 0.960 . S
H2473 C2459 0.961 . S
H2474 C2459 0.961 . S
H2475 C2459 0.961 . S
H2476 C2460 0.931 . S
H2477 C2465 0.930 . S
H2478 C2466 0.956 . S
H2479 C2466 0.961 . S
H2480 C2466 0.961 . S
H2481 C2467 0.958 . S
H2482 C2467 0.961 . S
H2483 C2467 0.960 . S
C2484 C2485 1.391 . S
C2484 C2486 1.394 . S
C2484 H2500 0.931 . S
C2485 C2484 1.391 . S
C2485 C2489 1.376 . S
C2486 C2484 1.394 . S
C2486 C2487 1.369 . S
C2486 C2490 1.531 . S
C2487 C2486 1.369 . S
C2487 C2488 1.410 . S
C2487 C2495 1.503 . S
C2488 C2487 1.410 . S
C2488 C2489 1.392 . S
C2488 C2491 1.511 . S
C2489 C2485 1.376 . S
C2489 C2488 1.392 . S
C2489 H2501 0.929 . S
C2490 C2486 1.531 . S
C2490 H2502 0.960 . S
C2490 H2503 0.962 . S
C2490 H2504 0.960 . S
C2491 C2488 1.511 . S
C2491 H2505 0.961 . S
C2491 H2506 0.961 . S
C2491 H2507 0.961 . S
C2492 C2493 1.370 . S
C2492 C2494 1.363 . S
C2492 H2508 0.931 . S
C2493 C2492 1.370 . S
C2493 C2497 1.408 . S
C2494 C2492 1.363 . S
C2494 C2495 1.370 . S
C2494 C2498 1.524 . S
C2495 C2487 1.503 . S
C2495 C2494 1.370 . S
C2495 C2496 1.403 . S
C2496 C2495 1.403 . S
C2496 C2497 1.404 . S
C2496 C2499 1.539 . S
C2497 C2493 1.408 . S
C2497 C2496 1.404 . S
C2497 H2509 0.930 . S
C2498 C2494 1.524 . S
C2498 H2510 0.956 . S
C2498 H2511 0.961 . S
C2498 H2512 0.961 . S
C2499 C2496 1.539 . S
C2499 H2513 0.958 . S
C2499 H2514 0.961 . S
C2499 H2515 0.960 . S
H2500 C2484 0.931 . S
H2501 C2489 0.929 . S
H2502 C2490 0.960 . S
H2503 C2490 0.962 . S
H2504 C2490 0.960 . S
H2505 C2491 0.961 . S
H2506 C2491 0.961 . S
H2507 C2491 0.961 . S
H2508 C2492 0.931 . S
H2509 C2497 0.930 . S
H2510 C2498 0.956 . S
H2511 C2498 0.961 . S
H2512 C2498 0.961 . S
H2513 C2499 0.958 . S
H2514 C2499 0.961 . S
H2515 C2499 0.960 . S
C2516 C2517 1.391 . S
C2516 C2518 1.394 . S
C2516 H2532 0.931 . S
C2517 C2516 1.391 . S
C2517 C2521 1.376 . S
C2518 C2516 1.394 . S
C2518 C2519 1.369 . S
C2518 C2522 1.531 . S
C2519 C2518 1.369 . S
C2519 C2520 1.410 . S
C2519 C2527 1.503 . S
C2520 C2519 1.410 . S
C2520 C2521 1.392 . S
C2520 C2523 1.511 . S
C2521 C2517 1.376 . S
C2521 C2520 1.392 . S
C2521 H2533 0.929 . S
C2522 C2518 1.531 . S
C2522 H2534 0.960 . S
C2522 H2535 0.962 . S
C2522 H2536 0.960 . S
C2523 C2520 1.511 . S
C2523 H2537 0.961 . S
C2523 H2538 0.961 . S
C2523 H2539 0.961 . S
C2524 C2525 1.370 . S
C2524 C2526 1.363 . S
C2524 H2540 0.931 . S
C2525 C2524 1.370 . S
C2525 C2529 1.408 . S
C2526 C2524 1.363 . S
C2526 C2527 1.370 . S
C2526 C2530 1.524 . S
C2527 C2519 1.503 . S
C2527 C2526 1.370 . S
C2527 C2528 1.403 . S
C2528 C2527 1.403 . S
C2528 C2529 1.404 . S
C2528 C2531 1.539 . S
C2529 C2525 1.408 . S
C2529 C2528 1.404 . S
C2529 H2541 0.930 . S
C2530 C2526 1.524 . S
C2530 H2542 0.956 . S
C2530 H2543 0.961 . S
C2530 H2544 0.961 . S
C2531 C2528 1.539 . S
C2531 H2545 0.958 . S
C2531 H2546 0.961 . S
C2531 H2547 0.960 . S
H2532 C2516 0.931 . S
H2533 C2521 0.929 . S
H2534 C2522 0.960 . S
H2535 C2522 0.962 . S
H2536 C2522 0.960 . S
H2537 C2523 0.961 . S
H2538 C2523 0.961 . S
H2539 C2523 0.961 . S
H2540 C2524 0.931 . S
H2541 C2529 0.930 . S
H2542 C2530 0.956 . S
H2543 C2530 0.961 . S
H2544 C2530 0.961 . S
H2545 C2531 0.958 . S
H2546 C2531 0.961 . S
H2547 C2531 0.960 . S
C2548 C2549 1.391 . S
C2548 C2550 1.394 . S
C2548 H2564 0.931 . S
C2549 C2548 1.391 . S
C2549 C2553 1.376 . S
C2550 C2548 1.394 . S
C2550 C2551 1.369 . S
C2550 C2554 1.531 . S
C2551 C2550 1.369 . S
C2551 C2552 1.410 . S
C2551 C2559 1.503 . S
C2552 C2551 1.410 . S
C2552 C2553 1.392 . S
C2552 C2555 1.511 . S
C2553 C2549 1.376 . S
C2553 C2552 1.392 . S
C2553 H2565 0.929 . S
C2554 C2550 1.531 . S
C2554 H2566 0.960 . S
C2554 H2567 0.962 . S
C2554 H2568 0.960 . S
C2555 C2552 1.511 . S
C2555 H2569 0.961 . S
C2555 H2570 0.961 . S
C2555 H2571 0.961 . S
C2556 C2557 1.370 . S
C2556 C2558 1.363 . S
C2556 H2572 0.931 . S
C2557 C2556 1.370 . S
C2557 C2561 1.408 . S
C2558 C2556 1.363 . S
C2558 C2559 1.370 . S
C2558 C2562 1.524 . S
C2559 C2551 1.503 . S
C2559 C2558 1.370 . S
C2559 C2560 1.403 . S
C2560 C2559 1.403 . S
C2560 C2561 1.404 . S
C2560 C2563 1.539 . S
C2561 C2557 1.408 . S
C2561 C2560 1.404 . S
C2561 H2573 0.930 . S
C2562 C2558 1.524 . S
C2562 H2574 0.956 . S
C2562 H2575 0.961 . S
C2562 H2576 0.961 . S
C2563 C2560 1.539 . S
C2563 H2577 0.958 . S
C2563 H2578 0.961 . S
C2563 H2579 0.960 . S
H2564 C2548 0.931 . S
H2565 C2553 0.929 . S
H2566 C2554 0.960 . S
H2567 C2554 0.962 . S
H2568 C2554 0.960 . S
H2569 C2555 0.961 . S
H2570 C2555 0.961 . S
H2571 C2555 0.961 . S
H2572 C2556 0.931 . S
H2573 C2561 0.930 . S
H2574 C2562 0.956 . S
H2575 C2562 0.961 . S
H2576 C2562 0.961 . S
H2577 C2563 0.958 . S
H2578 C2563 0.961 . S
H2579 C2563 0.960 . S
C2580 C2581 1.391 . S
C2580 C2582 1.394 . S
C2580 H2596 0.931 . S
C2581 C2580 1.391 . S
C2581 C2585 1.376 . S
C2582 C2580 1.394 . S
C2582 C2583 1.369 . S
C2582 C2586 1.531 . S
C2583 C2582 1.369 . S
C2583 C2584 1.410 . S
C2583 C2591 1.503 . S
C2584 C2583 1.410 . S
C2584 C2585 1.392 . S
C2584 C2587 1.511 . S
C2585 C2581 1.376 . S
C2585 C2584 1.392 . S
C2585 H2597 0.929 . S
C2586 C2582 1.531 . S
C2586 H2598 0.960 . S
C2586 H2599 0.962 . S
C2586 H2600 0.960 . S
C2587 C2584 1.511 . S
C2587 H2601 0.961 . S
C2587 H2602 0.961 . S
C2587 H2603 0.961 . S
C2588 C2589 1.370 . S
C2588 C2590 1.363 . S
C2588 H2604 0.931 . S
C2589 C2588 1.370 . S
C2589 C2593 1.408 . S
C2590 C2588 1.363 . S
C2590 C2591 1.370 . S
C2590 C2594 1.524 . S
C2591 C2583 1.503 . S
C2591 C2590 1.370 . S
C2591 C2592 1.403 . S
C2592 C2591 1.403 . S
C2592 C2593 1.404 . S
C2592 C2595 1.539 . S
C2593 C2589 1.408 . S
C2593 C2592 1.404 . S
C2593 H2605 0.930 . S
C2594 C2590 1.524 . S
C2594 H2606 0.956 . S
C2594 H2607 0.961 . S
C2594 H2608 0.961 . S
C2595 C2592 1.539 . S
C2595 H2609 0.958 . S
C2595 H2610 0.961 . S
C2595 H2611 0.960 . S
H2596 C2580 0.931 . S
H2597 C2585 0.929 . S
H2598 C2586 0.960 . S
H2599 C2586 0.962 . S
H2600 C2586 0.960 . S
H2601 C2587 0.961 . S
H2602 C2587 0.961 . S
H2603 C2587 0.961 . S
H2604 C2588 0.931 . S
H2605 C2593 0.930 . S
H2606 C2594 0.956 . S
H2607 C2594 0.961 . S
H2608 C2594 0.961 . S
H2609 C2595 0.958 . S
H2610 C2595 0.961 . S
H2611 C2595 0.960 . S
C2612 C2613 1.391 . S
C2612 C2614 1.394 . S
C2612 H2628 0.931 . S
C2613 C2612 1.391 . S
C2613 C2617 1.376 . S
C2614 C2612 1.394 . S
C2614 C2615 1.369 . S
C2614 C2618 1.531 . S
C2615 C2614 1.369 . S
C2615 C2616 1.410 . S
C2615 C2623 1.503 . S
C2616 C2615 1.410 . S
C2616 C2617 1.392 . S
C2616 C2619 1.511 . S
C2617 C2613 1.376 . S
C2617 C2616 1.392 . S
C2617 H2629 0.929 . S
C2618 C2614 1.531 . S
C2618 H2630 0.960 . S
C2618 H2631 0.962 . S
C2618 H2632 0.960 . S
C2619 C2616 1.511 . S
C2619 H2633 0.961 . S
C2619 H2634 0.961 . S
C2619 H2635 0.961 . S
C2620 C2621 1.370 . S
C2620 C2622 1.363 . S
C2620 H2636 0.931 . S
C2621 C2620 1.370 . S
C2621 C2625 1.408 . S
C2622 C2620 1.363 . S
C2622 C2623 1.370 . S
C2622 C2626 1.524 . S
C2623 C2615 1.503 . S
C2623 C2622 1.370 . S
C2623 C2624 1.403 . S
C2624 C2623 1.403 . S
C2624 C2625 1.404 . S
C2624 C2627 1.539 . S
C2625 C2621 1.408 . S
C2625 C2624 1.404 . S
C2625 H2637 0.930 . S
C2626 C2622 1.524 . S
C2626 H2638 0.956 . S
C2626 H2639 0.961 . S
C2626 H2640 0.961 . S
C2627 C2624 1.539 . S
C2627 H2641 0.958 . S
C2627 H2642 0.961 . S
C2627 H2643 0.960 . S
H2628 C2612 0.931 . S
H2629 C2617 0.929 . S
H2630 C2618 0.960 . S
H2631 C2618 0.962 . S
H2632 C2618 0.960 . S
H2633 C2619 0.961 . S
H2634 C2619 0.961 . S
H2635 C2619 0.961 . S
H2636 C2620 0.931 . S
H2637 C2625 0.930 . S
H2638 C2626 0.956 . S
H2639 C2626 0.961 . S
H2640 C2626 0.961 . S
H2641 C2627 0.958 . S
H2642 C2627 0.961 . S
H2643 C2627 0.960 . S
C2644 C2645 1.391 . S
C2644 C2646 1.394 . S
C2644 H2660 0.931 . S
C2645 C2644 1.391 . S
C2645 C2649 1.376 . S
C2646 C2644 1.394 . S
C2646 C2647 1.369 . S
C2646 C2650 1.531 . S
C2647 C2646 1.369 . S
C2647 C2648 1.410 . S
C2647 C2655 1.503 . S
C2648 C2647 1.410 . S
C2648 C2649 1.392 . S
C2648 C2651 1.511 . S
C2649 C2645 1.376 . S
C2649 C2648 1.392 . S
C2649 H2661 0.929 . S
C2650 C2646 1.531 . S
C2650 H2662 0.960 . S
C2650 H2663 0.962 . S
C2650 H2664 0.960 . S
C2651 C2648 1.511 . S
C2651 H2665 0.961 . S
C2651 H2666 0.961 . S
C2651 H2667 0.961 . S
C2652 C2653 1.370 . S
C2652 C2654 1.363 . S
C2652 H2668 0.931 . S
C2653 C2652 1.370 . S
C2653 C2657 1.408 . S
C2654 C2652 1.363 . S
C2654 C2655 1.370 . S
C2654 C2658 1.524 . S
C2655 C2647 1.503 . S
C2655 C2654 1.370 . S
C2655 C2656 1.403 . S
C2656 C2655 1.403 . S
C2656 C2657 1.404 . S
C2656 C2659 1.539 . S
C2657 C2653 1.408 . S
C2657 C2656 1.404 . S
C2657 H2669 0.930 . S
C2658 C2654 1.524 . S
C2658 H2670 0.956 . S
C2658 H2671 0.961 . S
C2658 H2672 0.961 . S
C2659 C2656 1.539 . S
C2659 H2673 0.958 . S
C2659 H2674 0.961 . S
C2659 H2675 0.960 . S
H2660 C2644 0.931 . S
H2661 C2649 0.929 . S
H2662 C2650 0.960 . S
H2663 C2650 0.962 . S
H2664 C2650 0.960 . S
H2665 C2651 0.961 . S
H2666 C2651 0.961 . S
H2667 C2651 0.961 . S
H2668 C2652 0.931 . S
H2669 C2657 0.930 . S
H2670 C2658 0.956 . S
H2671 C2658 0.961 . S
H2672 C2658 0.961 . S
H2673 C2659 0.958 . S
H2674 C2659 0.961 . S
H2675 C2659 0.960 . S
C2676 C2677 1.391 . S
C2676 C2678 1.394 . S
C2676 H2692 0.931 . S
C2677 C2676 1.391 . S
C2677 C2681 1.376 . S
C2678 C2676 1.394 . S
C2678 C2679 1.369 . S
C2678 C2682 1.531 . S
C2679 C2678 1.369 . S
C2679 C2680 1.410 . S
C2679 C2687 1.503 . S
C2680 C2679 1.410 . S
C2680 C2681 1.392 . S
C2680 C2683 1.511 . S
C2681 C2677 1.376 . S
C2681 C2680 1.392 . S
C2681 H2693 0.929 . S
C2682 C2678 1.531 . S
C2682 H2694 0.960 . S
C2682 H2695 0.962 . S
C2682 H2696 0.960 . S
C2683 C2680 1.511 . S
C2683 H2697 0.961 . S
C2683 H2698 0.961 . S
C2683 H2699 0.961 . S
C2684 C2685 1.370 . S
C2684 C2686 1.363 . S
C2684 H2700 0.931 . S
C2685 C2684 1.370 . S
C2685 C2689 1.408 . S
C2686 C2684 1.363 . S
C2686 C2687 1.370 . S
C2686 C2690 1.524 . S
C2687 C2679 1.503 . S
C2687 C2686 1.370 . S
C2687 C2688 1.403 . S
C2688 C2687 1.403 . S
C2688 C2689 1.404 . S
C2688 C2691 1.539 . S
C2689 C2685 1.408 . S
C2689 C2688 1.404 . S
C2689 H2701 0.930 . S
C2690 C2686 1.524 . S
C2690 H2702 0.956 . S
C2690 H2703 0.961 . S
C2690 H2704 0.961 . S
C2691 C2688 1.539 . S
C2691 H2705 0.958 . S
C2691 H2706 0.961 . S
C2691 H2707 0.960 . S
H2692 C2676 0.931 . S
H2693 C2681 0.929 . S
H2694 C2682 0.960 . S
H2695 C2682 0.962 . S
H2696 C2682 0.960 . S
H2697 C2683 0.961 . S
H2698 C2683 0.961 . S
H2699 C2683 0.961 . S
H2700 C2684 0.931 . S
H2701 C2689 0.930 . S
H2702 C2690 0.956 . S
H2703 C2690 0.961 . S
H2704 C2690 0.961 . S
H2705 C2691 0.958 . S
H2706 C2691 0.961 . S
H2707 C2691 0.960 . S
C2708 C2709 1.391 . S
C2708 C2710 1.394 . S
C2708 H2724 0.931 . S
C2709 C2708 1.391 . S
C2709 C2713 1.376 . S
C2710 C2708 1.394 . S
C2710 C2711 1.369 . S
C2710 C2714 1.531 . S
C2711 C2710 1.369 . S
C2711 C2712 1.410 . S
C2711 C2719 1.503 . S
C2712 C2711 1.410 . S
C2712 C2713 1.392 . S
C2712 C2715 1.511 . S
C2713 C2709 1.376 . S
C2713 C2712 1.392 . S
C2713 H2725 0.929 . S
C2714 C2710 1.531 . S
C2714 H2726 0.960 . S
C2714 H2727 0.962 . S
C2714 H2728 0.960 . S
C2715 C2712 1.511 . S
C2715 H2729 0.961 . S
C2715 H2730 0.961 . S
C2715 H2731 0.961 . S
C2716 C2717 1.370 . S
C2716 C2718 1.363 . S
C2716 H2732 0.931 . S
C2717 C2716 1.370 . S
C2717 C2721 1.408 . S
C2718 C2716 1.363 . S
C2718 C2719 1.370 . S
C2718 C2722 1.524 . S
C2719 C2711 1.503 . S
C2719 C2718 1.370 . S
C2719 C2720 1.403 . S
C2720 C2719 1.403 . S
C2720 C2721 1.404 . S
C2720 C2723 1.539 . S
C2721 C2717 1.408 . S
C2721 C2720 1.404 . S
C2721 H2733 0.930 . S
C2722 C2718 1.524 . S
C2722 H2734 0.956 . S
C2722 H2735 0.961 . S
C2722 H2736 0.961 . S
C2723 C2720 1.539 . S
C2723 H2737 0.958 . S
C2723 H2738 0.961 . S
C2723 H2739 0.960 . S
H2724 C2708 0.931 . S
H2725 C2713 0.929 . S
H2726 C2714 0.960 . S
H2727 C2714 0.962 . S
H2728 C2714 0.960 . S
H2729 C2715 0.961 . S
H2730 C2715 0.961 . S
H2731 C2715 0.961 . S
H2732 C2716 0.931 . S
H2733 C2721 0.930 . S
H2734 C2722 0.956 . S
H2735 C2722 0.961 . S
H2736 C2722 0.961 . S
H2737 C2723 0.958 . S
H2738 C2723 0.961 . S
H2739 C2723 0.960 . S
C2740 C2741 1.391 . S
C2740 C2742 1.394 . S
C2740 H2756 0.931 . S
C2741 C2740 1.391 . S
C2741 C2745 1.376 . S
C2742 C2740 1.394 . S
C2742 C2743 1.369 . S
C2742 C2746 1.531 . S
C2743 C2742 1.369 . S
C2743 C2744 1.410 . S
C2743 C2751 1.503 . S
C2744 C2743 1.410 . S
C2744 C2745 1.392 . S
C2744 C2747 1.511 . S
C2745 C2741 1.376 . S
C2745 C2744 1.392 . S
C2745 H2757 0.929 . S
C2746 C2742 1.531 . S
C2746 H2758 0.960 . S
C2746 H2759 0.962 . S
C2746 H2760 0.960 . S
C2747 C2744 1.511 . S
C2747 H2761 0.961 . S
C2747 H2762 0.961 . S
C2747 H2763 0.961 . S
C2748 C2749 1.370 . S
C2748 C2750 1.363 . S
C2748 H2764 0.931 . S
C2749 C2748 1.370 . S
C2749 C2753 1.408 . S
C2750 C2748 1.363 . S
C2750 C2751 1.370 . S
C2750 C2754 1.524 . S
C2751 C2743 1.503 . S
C2751 C2750 1.370 . S
C2751 C2752 1.403 . S
C2752 C2751 1.403 . S
C2752 C2753 1.404 . S
C2752 C2755 1.539 . S
C2753 C2749 1.408 . S
C2753 C2752 1.404 . S
C2753 H2765 0.930 . S
C2754 C2750 1.524 . S
C2754 H2766 0.956 . S
C2754 H2767 0.961 . S
C2754 H2768 0.961 . S
C2755 C2752 1.539 . S
C2755 H2769 0.958 . S
C2755 H2770 0.961 . S
C2755 H2771 0.960 . S
H2756 C2740 0.931 . S
H2757 C2745 0.929 . S
H2758 C2746 0.960 . S
H2759 C2746 0.962 . S
H2760 C2746 0.960 . S
H2761 C2747 0.961 . S
H2762 C2747 0.961 . S
H2763 C2747 0.961 . S
H2764 C2748 0.931 . S
H2765 C2753 0.930 . S
H2766 C2754 0.956 . S
H2767 C2754 0.961 . S
H2768 C2754 0.961 . S
H2769 C2755 0.958 . S
H2770 C2755 0.961 . S
H2771 C2755 0.960 . S
C2772 C2773 1.391 . S
C2772 C2774 1.394 . S
C2772 H2788 0.931 . S
C2773 C2772 1.391 . S
C2773 C2777 1.376 . S
C2774 C2772 1.394 . S
C2774 C2775 1.369 . S
C2774 C2778 1.531 . S
C2775 C2774 1.369 . S
C2775 C2776 1.410 . S
C2775 C2783 1.503 . S
C2776 C2775 1.410 . S
C2776 C2777 1.392 . S
C2776 C2779 1.511 . S
C2777 C2773 1.376 . S
C2777 C2776 1.392 . S
C2777 H2789 0.929 . S
C2778 C2774 1.531 . S
C2778 H2790 0.960 . S
C2778 H2791 0.962 . S
C2778 H2792 0.960 . S
C2779 C2776 1.511 . S
C2779 H2793 0.961 . S
C2779 H2794 0.961 . S
C2779 H2795 0.961 . S
C2780 C2781 1.370 . S
C2780 C2782 1.363 . S
C2780 H2796 0.931 . S
C2781 C2780 1.370 . S
C2781 C2785 1.408 . S
C2782 C2780 1.363 . S
C2782 C2783 1.370 . S
C2782 C2786 1.524 . S
C2783 C2775 1.503 . S
C2783 C2782 1.370 . S
C2783 C2784 1.403 . S
C2784 C2783 1.403 . S
C2784 C2785 1.404 . S
C2784 C2787 1.539 . S
C2785 C2781 1.408 . S
C2785 C2784 1.404 . S
C2785 H2797 0.930 . S
C2786 C2782 1.524 . S
C2786 H2798 0.956 . S
C2786 H2799 0.961 . S
C2786 H2800 0.961 . S
C2787 C2784 1.539 . S
C2787 H2801 0.958 . S
C2787 H2802 0.961 . S
C2787 H2803 0.960 . S
H2788 C2772 0.931 . S
H2789 C2777 0.929 . S
H2790 C2778 0.960 . S
H2791 C2778 0.962 . S
H2792 C2778 0.960 . S
H2793 C2779 0.961 . S
H2794 C2779 0.961 . S
H2795 C2779 0.961 . S
H2796 C2780 0.931 . S
H2797 C2785 0.930 . S
H2798 C2786 0.956 . S
H2799 C2786 0.961 . S
H2800 C2786 0.961 . S
H2801 C2787 0.958 . S
H2802 C2787 0.961 . S
H2803 C2787 0.960 . S
C2804 C2805 1.391 . S
C2804 C2806 1.394 . S
C2804 H2820 0.931 . S
C2805 C2804 1.391 . S
C2805 C2809 1.376 . S
C2806 C2804 1.394 . S
C2806 C2807 1.369 . S
C2806 C2810 1.531 . S
C2807 C2806 1.369 . S
C2807 C2808 1.410 . S
C2807 C2815 1.503 . S
C2808 C2807 1.410 . S
C2808 C2809 1.392 . S
C2808 C2811 1.511 . S
C2809 C2805 1.376 . S
C2809 C2808 1.392 . S
C2809 H2821 0.929 . S
C2810 C2806 1.531 . S
C2810 H2822 0.960 . S
C2810 H2823 0.962 . S
C2810 H2824 0.960 . S
C2811 C2808 1.511 . S
C2811 H2825 0.961 . S
C2811 H2826 0.961 . S
C2811 H2827 0.961 . S
C2812 C2813 1.370 . S
C2812 C2814 1.363 . S
C2812 H2828 0.931 . S
C2813 C2812 1.370 . S
C2813 C2817 1.408 . S
C2814 C2812 1.363 . S
C2814 C2815 1.370 . S
C2814 C2818 1.524 . S
C2815 C2807 1.503 . S
C2815 C2814 1.370 . S
C2815 C2816 1.403 . S
C2816 C2815 1.403 . S
C2816 C2817 1.404 . S
C2816 C2819 1.539 . S
C2817 C2813 1.408 . S
C2817 C2816 1.404 . S
C2817 H2829 0.930 . S
C2818 C2814 1.524 . S
C2818 H2830 0.956 . S
C2818 H2831 0.961 . S
C2818 H2832 0.961 . S
C2819 C2816 1.539 . S
C2819 H2833 0.958 . S
C2819 H2834 0.961 . S
C2819 H2835 0.960 . S
H2820 C2804 0.931 . S
H2821 C2809 0.929 . S
H2822 C2810 0.960 . S
H2823 C2810 0.962 . S
H2824 C2810 0.960 . S
H2825 C2811 0.961 . S
H2826 C2811 0.961 . S
H2827 C2811 0.961 . S
H2828 C2812 0.931 . S
H2829 C2817 0.930 . S
H2830 C2818 0.956 . S
H2831 C2818 0.961 . S
H2832 C2818 0.961 . S
H2833 C2819 0.958 . S
H2834 C2819 0.961 . S
H2835 C2819 0.960 . S
C2836 C2837 1.391 . S
C2836 C2838 1.394 . S
C2836 H2852 0.931 . S
C2837 C2836 1.391 . S
C2837 C2841 1.376 . S
C2838 C2836 1.394 . S
C2838 C2839 1.369 . S
C2838 C2842 1.531 . S
C2839 C2838 1.369 . S
C2839 C2840 1.410 . S
C2839 C2847 1.503 . S
C2840 C2839 1.410 . S
C2840 C2841 1.392 . S
C2840 C2843 1.511 . S
C2841 C2837 1.376 . S
C2841 C2840 1.392 . S
C2841 H2853 0.929 . S
C2842 C2838 1.531 . S
C2842 H2854 0.960 . S
C2842 H2855 0.962 . S
C2842 H2856 0.960 . S
C2843 C2840 1.511 . S
C2843 H2857 0.961 . S
C2843 H2858 0.961 . S
C2843 H2859 0.961 . S
C2844 C2845 1.370 . S
C2844 C2846 1.363 . S
C2844 H2860 0.931 . S
C2845 C2844 1.370 . S
C2845 C2849 1.408 . S
C2846 C2844 1.363 . S
C2846 C2847 1.370 . S
C2846 C2850 1.524 . S
C2847 C2839 1.503 . S
C2847 C2846 1.370 . S
C2847 C2848 1.403 . S
C2848 C2847 1.403 . S
C2848 C2849 1.404 . S
C2848 C2851 1.539 . S
C2849 C2845 1.408 . S
C2849 C2848 1.404 . S
C2849 H2861 0.930 . S
C2850 C2846 1.524 . S
C2850 H2862 0.956 . S
C2850 H2863 0.961 . S
C2850 H2864 0.961 . S
C2851 C2848 1.539 . S
C2851 H2865 0.958 . S
C2851 H2866 0.961 . S
C2851 H2867 0.960 . S
H2852 C2836 0.931 . S
H2853 C2841 0.929 . S
H2854 C2842 0.960 . S
H2855 C2842 0.962 . S
H2856 C2842 0.960 . S
H2857 C2843 0.961 . S
H2858 C2843 0.961 . S
H2859 C2843 0.961 . S
H2860 C2844 0.931 . S
H2861 C2849 0.930 . S
H2862 C2850 0.956 . S
H2863 C2850 0.961 . S
H2864 C2850 0.961 . S
H2865 C2851 0.958 . S
H2866 C2851 0.961 . S
H2867 C2851 0.960 . S
C573 C270 1.610 . S
C565 C260 1.514 . S
C597 C238 1.557 . S
C605 C268 1.610 . S
C637 C269 1.610 . S
C629 C227 1.527 . S
C661 C249 1.571 . S
C669 C271 1.610 . S
C701 C315 1.669 . S
C693 C183 1.599 . S
C733 C375 1.556 . S
C725 C194 1.478 . S
C757 C205 1.581 . S
C765 C314 1.670 . S
C797 C374 1.556 . S
C789 C216 1.447 . S
C821 C139 1.566 . S
C829 C316 1.677 . S
C861 C372 1.556 . S
C853 C150 1.480 . S
C885 C161 1.594 . S
C893 C317 1.669 . S
C917 C172 1.510 . S
C925 C373 1.562 . S
C957 C423 1.610 . S
C949 C128 1.525 . S
C981 C106 1.562 . S
C989 C422 1.610 1_556 S
C1013 C95 1.571 1_556 S
C1021 C424 1.610 1_556 S
C1053 C425 1.609 1_556 S
C1045 C117 1.544 . S
C1077 C51 1.614 . S
C1085 C466 1.669 1_655 S
C1109 C62 1.457 . S
C1117 C525 1.555 . S
C1141 C73 1.570 1_655 S
C1149 C464 1.670 1_655 S
C1173 C84 1.512 1_545 S
C1181 C524 1.555 . S
C1213 C465 1.669 . S
C1205 C7 1.616 1_455 S
C1245 C522 1.556 . S
C1237 C18 1.472 . S
C1269 C29 1.586 1_655 S
C1277 C467 1.669 1_655 S
C1309 C523 1.555 1_565 S
C1301 C40 1.498 . S
C1341 C267 1.533 . S
C1333 C8 1.490 1_455 S
C1365 C16 1.092 . S
C1373 C273 1.394 . S
C1397 C30 1.431 . S
C1405 C265 1.540 . S
C1429 C38 1.222 1_545 S
C1437 C272 1.386 . S
C1461 C52 1.430 . S
C1469 C264 1.540 1_655 S
C1501 C274 1.391 1_565 S
C1493 C60 1.169 1_565 S
C1525 C74 1.472 . S
C1533 C266 1.530 . S
C1565 C275 1.390 1_565 S
C1557 C82 1.091 . S
C1597 C321 1.318 . S
C1589 C41 1.251 1_545 S
C1621 C5 1.407 1_455 S
C1629 C364 1.618 . S
C1661 C319 1.318 . S
C1653 C19 1.218 . S
C1693 C366 1.623 1_655 S
C1685 C27 1.322 1_655 S
C1717 C63 1.289 . S
C1725 C320 1.317 . S
C1757 C365 1.621 1_655 S
C1749 C71 1.407 1_655 S
C1789 C318 1.315 1_565 S
C1781 C85 1.263 . S
C1821 C367 1.621 1_655 S
C1813 C49 1.337 . S
C1853 C371 1.467 . S
C1845 C93 1.161 . S
C1877 C104 1.142 . S
C1885 C370 1.464 1_556 S
C1917 C322 1.459 . S
C1909 C96 1.401 . S
C1949 C369 1.466 1_556 S
C1941 C115 1.160 . S
C1973 C129 1.406 . S
C1981 C325 1.462 . S
C2005 C126 1.197 . S
C2013 C368 1.469 . S
C2045 C324 1.459 1_556 S
C2037 C107 1.395 . S
C2077 C323 1.460 . S
C2069 C118 1.393 1_554 S
C2109 C417 1.535 . S
C2101 C140 1.483 . S
C2141 C420 1.392 . S
C2133 C148 1.088 . S
C2165 C162 1.428 . S
C2173 C416 1.540 . S
C2205 C418 1.389 . S
C2197 C170 1.223 . S
C2237 C414 1.535 . S
C2229 C184 1.482 . S
C2261 C192 1.220 . S
C2269 C419 1.386 . S
C2293 C206 1.494 . S
C2301 C415 1.529 . S
C2333 C421 1.389 . S
C2325 C214 1.188 . S
C2365 C475 1.317 . S
C2357 C173 1.274 . S
C2389 C137 1.345 . S
C2397 C514 1.625 . S
C2429 C474 1.317 . S
C2421 C151 1.233 . S
C2461 C516 1.623 . S
C2453 C159 1.337 . S
C2493 C473 1.319 . S
C2485 C195 1.238 . S
C2517 C203 1.362 . S
C2525 C515 1.626 . S
C2557 C472 1.316 . S
C2549 C217 1.240 . S
C2589 C517 1.622 . S
C2581 C181 1.398 . S
C2621 C521 1.465 . S
C2613 C225 1.271 . S
C2645 C236 1.226 . S
C2653 C520 1.465 . S
C2685 C468 1.459 . S
C2677 C228 1.401 . S
C2709 C247 1.272 . S
C2717 C519 1.470 . S
C2749 C471 1.460 . S
C2741 C261 1.410 . S
C2781 C518 1.465 . S
C2773 C258 1.233 . S
C2813 C469 1.460 . S
C2805 C239 1.421 . S
C2837 C250 1.398 . S
C2845 C470 1.456 . S
