# Generated by pormake.
# Topology ssa, (4,4)-cn, num edge types: 1
# Building blocks:
#     Node 0, Type 0, BuildingBlock: KOZSID_clean_sbu_0, # of connection points: 4
#     Node 1, Type 0, BuildingBlock: KOZSID_clean_sbu_0, # of connection points: 4
#     Node 2, Type 0, BuildingBlock: KOZSID_clean_sbu_0, # of connection points: 4
#     Node 3, Type 0, BuildingBlock: KOZSID_clean_sbu_0, # of connection points: 4
#     Node 4, Type 0, BuildingBlock: KOZSID_clean_sbu_0, # of connection points: 4
#     Node 5, Type 0, BuildingBlock: KOZSID_clean_sbu_0, # of connection points: 4
#     Node 6, Type 1, BuildingBlock: ESEHIV_clean_sbu_0, # of connection points: 4
#     Node 7, Type 1, BuildingBlock: ESEHIV_clean_sbu_0, # of connection points: 4
#     Node 8, Type 1, BuildingBlock: ESEHIV_clean_sbu_0, # of connection points: 4
#     Node 9, Type 1, BuildingBlock: ESEHIV_clean_sbu_0, # of connection points: 4
#     Node 10, Type 1, BuildingBlock: ESEHIV_clean_sbu_0, # of connection points: 4
#     Node 11, Type 1, BuildingBlock: ESEHIV_clean_sbu_0, # of connection points: 4
#     Edge 12, Type (0, 1), BuildingBlock: MIFKUJ_clean_linker_0, # of connection points: 2
#     Edge 13, Type (0, 1), BuildingBlock: MIFKUJ_clean_linker_0, # of connection points: 2
#     Edge 14, Type (0, 1), BuildingBlock: MIFKUJ_clean_linker_0, # of connection points: 2
#     Edge 15, Type (0, 1), BuildingBlock: MIFKUJ_clean_linker_0, # of connection points: 2
#     Edge 16, Type (0, 1), BuildingBlock: MIFKUJ_clean_linker_0, # of connection points: 2
#     Edge 17, Type (0, 1), BuildingBlock: MIFKUJ_clean_linker_0, # of connection points: 2
#     Edge 18, Type (0, 1), BuildingBlock: MIFKUJ_clean_linker_0, # of connection points: 2
#     Edge 19, Type (0, 1), BuildingBlock: MIFKUJ_clean_linker_0, # of connection points: 2
#     Edge 20, Type (0, 1), BuildingBlock: MIFKUJ_clean_linker_0, # of connection points: 2
#     Edge 21, Type (0, 1), BuildingBlock: MIFKUJ_clean_linker_0, # of connection points: 2
#     Edge 22, Type (0, 1), BuildingBlock: MIFKUJ_clean_linker_0, # of connection points: 2
#     Edge 23, Type (0, 1), BuildingBlock: MIFKUJ_clean_linker_0, # of connection points: 2
#     Edge 24, Type (0, 1), BuildingBlock: MIFKUJ_clean_linker_0, # of connection points: 2
#     Edge 25, Type (0, 1), BuildingBlock: MIFKUJ_clean_linker_0, # of connection points: 2
#     Edge 26, Type (0, 1), BuildingBlock: MIFKUJ_clean_linker_0, # of connection points: 2
#     Edge 27, Type (0, 1), BuildingBlock: MIFKUJ_clean_linker_0, # of connection points: 2
#     Edge 28, Type (0, 1), BuildingBlock: MIFKUJ_clean_linker_0, # of connection points: 2
#     Edge 29, Type (0, 1), BuildingBlock: MIFKUJ_clean_linker_0, # of connection points: 2
#     Edge 30, Type (0, 1), BuildingBlock: MIFKUJ_clean_linker_0, # of connection points: 2
#     Edge 31, Type (0, 1), BuildingBlock: MIFKUJ_clean_linker_0, # of connection points: 2
#     Edge 32, Type (0, 1), BuildingBlock: MIFKUJ_clean_linker_0, # of connection points: 2
#     Edge 33, Type (0, 1), BuildingBlock: MIFKUJ_clean_linker_0, # of connection points: 2
#     Edge 34, Type (0, 1), BuildingBlock: MIFKUJ_clean_linker_0, # of connection points: 2
#     Edge 35, Type (0, 1), BuildingBlock: MIFKUJ_clean_linker_0, # of connection points: 2
# Relax obj value: 0.014
# Max RMSD: 0.096
# Mean RMSD: 0.055
data_MOF--net-ssa--node1-KOZSID_clean_sbu_0--node2-ESEHIV_clean_sbu_0--edge1-MIFKUJ_clean_linker_0
_symmetry_space_group_name_H-M    P1
_symmetry_Int_Tables_number       1
_symmetry_cell_setting            triclinic
loop_
_symmetry_equiv_pos_as_xyz
'x, y, z'
_cell_length_a     68.136958
_cell_length_b     69.468941
_cell_length_c     51.351291
_cell_angle_alpha  87.954917
_cell_angle_beta   89.965319
_cell_angle_gamma 122.01786
loop_
_atom_site_label
_atom_site_type_symbol
_atom_site_fract_x
_atom_site_fract_y
_atom_site_fract_z
_atom_type_partial_charge
C0 C 0.96129 0.49397 0.99264 0.0
C1 C 0.93842 0.47966 1.0011 0.0
C2 C 0.93877 0.47368 0.02658 0.0
C3 C 0.96172 0.4834 0.03196 0.0
N4 N 0.97602 0.49476 0.01121 0.0
Co5 Co 0.00964 0.50471 0.00835 0.0
N6 N 0.00995 0.49393 0.04518 0.0
C7 C 0.99166 0.48341 0.06206 0.0
C8 C 0.9969 0.47857 0.08621 0.0
C9 C 0.01998 0.48651 0.08478 0.0
C10 C 0.02755 0.49566 0.05965 0.0
N11 N 0.04344 0.51527 0.00569 0.0
C12 C 0.05814 0.51553 0.02389 0.0
C13 C 0.08044 0.52527 0.01362 0.0
C14 C 0.07993 0.53162 0.9883 0.0
C15 C 0.05746 0.52544 0.98447 0.0
N16 N 0.00912 0.51487 0.9713 0.0
C17 C 0.02639 0.52172 0.95341 0.0
C18 C 0.01923 0.51982 0.92826 0.0
C19 C 0.99617 0.51184 0.93024 0.0
C20 C 0.99077 0.51092 0.95651 0.0
N21 N 0.01887 0.53489 0.02075 0.0
C22 C 0.04141 0.57649 0.04532 0.0
C23 C 0.04776 0.57496 0.01993 0.0
C24 C 0.0361 0.55415 0.00793 0.0
C25 C 0.02172 0.55748 0.05682 0.0
C26 C 0.01056 0.53698 0.04407 0.0
N27 N 1.00048 0.47426 0.99565 0.0
C28 C 1.00257 0.45265 0.96106 0.0
C29 C 0.9806 0.4341 0.96794 0.0
C30 C 0.9702 0.43492 0.99097 0.0
C31 C 0.98061 0.45491 0.00469 0.0
C32 C 0.01232 0.47223 0.97542 0.0
H33 H 0.97183 0.45442 0.02202 0.0
H34 H 0.02912 0.48566 0.96922 0.0
H35 H 0.04203 0.55368 0.98882 0.0
H36 H 0.99602 0.52274 0.05394 0.0
C37 C 0.96998 0.47906 0.05489 0.0
C38 C 0.96832 0.50647 0.96693 0.0
C39 C 0.05175 0.50625 0.0508 0.0
C40 C 0.04852 0.52739 0.96074 0.0
H41 H 0.92291 0.47361 0.98993 0.0
H42 H 0.92401 0.46241 0.03918 0.0
H43 H 0.98538 0.47057 0.10301 0.0
H44 H 0.03013 0.4859 0.10061 0.0
H45 H 0.09551 0.52733 0.0233 0.0
H46 H 0.09418 0.53947 0.97422 0.0
H47 H 0.02922 0.52243 0.91064 0.0
H48 H 0.98455 0.50605 0.91406 0.0
H49 H 0.0623 0.58951 0.0098 0.0
H50 H 0.0158 0.55792 0.07624 0.0
H51 H 0.01195 0.45235 0.94419 0.0
H52 H 0.95349 0.42072 0.9977 0.0
C53 C 0.53641 0.00842 0.55743 0.0
C54 C 0.53645 0.99681 0.57996 0.0
C55 C 0.51418 0.97913 0.58432 0.0
C56 C 0.50189 0.98096 0.56429 0.0
N57 N 0.51505 0.9985 0.54715 0.0
Co58 Co 0.50418 0.00808 0.51589 0.0
N59 N 0.47102 0.98425 0.52442 0.0
C60 C 0.46269 0.97004 0.54578 0.0
C61 C 0.4393 0.95458 0.54531 0.0
C62 C 0.4324 0.95882 0.52199 0.0
C63 C 0.45207 0.97672 0.50957 0.0
N64 N 0.49336 0.01712 0.48415 0.0
C65 C 0.47236 0.00603 0.47298 0.0
C66 C 0.4723 0.01671 0.44968 0.0
C67 C 0.49433 0.03488 0.44553 0.0
C68 C 0.50647 0.03419 0.46647 0.0
N69 N 0.53723 0.03235 0.5077 0.0
C70 C 0.54538 0.04771 0.48735 0.0
C71 C 0.56875 0.06325 0.48793 0.0
C72 C 0.57586 0.05786 0.51034 0.0
C73 C 0.55631 0.03929 0.52213 0.0
N74 N 0.50696 0.98595 0.49448 0.0
C75 C 0.50828 0.95384 0.46241 0.0
C76 C 0.52026 0.97713 0.45529 0.0
C77 C 0.51927 0.99263 0.47129 0.0
C78 C 0.49593 0.94721 0.48628 0.0
C79 C 0.4957 0.96332 0.50189 0.0
N80 N 0.50142 0.03027 0.53739 0.0
C81 C 0.5078 0.06787 0.5429 0.0
C82 C 0.50091 0.0629 0.56926 0.0
C83 C 0.4938 0.04102 0.57908 0.0
C84 C 0.49404 0.02516 0.56301 0.0
C85 C 0.50799 0.05156 0.52755 0.0
H86 H 0.48836 0.0089 0.57192 0.0
H87 H 0.51386 0.05674 0.50783 0.0
H88 H 0.52848 0.00997 0.46437 0.0
H89 H 0.48595 0.95695 0.51976 0.0
C90 C 0.47774 0.96876 0.5632 0.0
C91 C 0.55642 0.02995 0.54793 0.0
C92 C 0.45264 0.98439 0.48265 0.0
C93 C 0.53045 0.04783 0.46882 0.0
H94 H 0.55085 1.00123 0.59256 0.0
H95 H 0.50753 0.96719 0.60093 0.0
H96 H 0.42883 0.94077 0.55933 0.0
H97 H 0.41511 0.949 0.51445 0.0
H98 H 0.45801 0.01131 0.43659 0.0
H99 H 0.50098 0.04649 0.42861 0.0
H100 H 0.5792 0.07731 0.47419 0.0
H101 H 0.59327 0.067 0.51769 0.0
H102 H 0.53058 0.98361 0.43746 0.0
H103 H 0.48598 0.92954 0.49292 0.0
H104 H 0.51362 0.08453 0.53418 0.0
H105 H 0.48786 0.03597 0.59915 0.0
C106 C 0.55133 0.54688 0.97251 0.0
C107 C 0.55534 0.56051 0.95021 0.0
C108 C 0.5347 0.55808 0.94407 0.0
C109 C 0.51927 0.54309 0.96273 0.0
N110 N 0.52892 0.53618 0.98083 0.0
Co111 Co 0.51244 0.51275 0.0099 0.0
N112 N 0.48149 0.50603 0.99793 0.0
C113 C 0.47719 0.51529 0.9768 0.0
C114 C 0.4543 0.50816 0.9744 0.0
C115 C 0.44339 0.49388 0.9956 0.0
C116 C 0.46035 0.49312 0.0097 0.0
N117 N 0.49603 0.48947 0.03906 0.0
C118 C 0.47354 0.47845 0.04698 0.0
C119 C 0.46927 0.46467 0.06915 0.0
C120 C 0.49 0.46753 0.0759 0.0
C121 C 0.50563 0.48281 0.05752 0.0
N122 N 0.54332 0.51928 0.02171 0.0
C123 C 0.54768 0.51002 0.04281 0.0
C124 C 0.57059 0.51714 0.04509 0.0
C125 C 0.5814 0.5313 0.02376 0.0
C126 C 0.56435 0.53188 0.00965 0.0
N127 N 0.51459 0.53661 0.03291 0.0
C128 C 0.51503 0.5686 0.06673 0.0
C129 C 0.52203 0.55378 0.07514 0.0
C130 C 0.52167 0.53815 0.05819 0.0
C131 C 0.50801 0.56715 0.04083 0.0
C132 C 0.50802 0.55132 0.02445 0.0
N133 N 0.51029 0.48888 0.98695 0.0
C134 C 0.51523 0.4572 0.97997 0.0
C135 C 0.50994 0.45676 0.95354 0.0
C136 C 0.50451 0.4726 0.94437 0.0
C137 C 0.50469 0.48822 0.96119 0.0
C138 C 0.51535 0.47321 0.9961 0.0
H139 H 0.5004 0.49976 0.95281 0.0
H140 H 0.5199 0.47277 0.01586 0.0
H141 H 0.52693 0.52727 0.06616 0.0
H142 H 0.50246 0.55121 0.00502 0.0
C143 C 0.49528 0.53263 0.96148 0.0
C144 C 0.56858 0.54284 0.98377 0.0
C145 C 0.45612 0.48192 0.0354 0.0
C146 C 0.52963 0.493 0.05857 0.0
H147 H 0.57115 0.57037 0.93872 0.0
H148 H 0.53107 0.56525 0.92705 0.0
H149 H 0.44666 0.51366 0.95978 0.0
H150 H 0.4252 0.48578 1.00067 0.0
H151 H 0.453 0.45435 0.07984 0.0
H152 H 0.49346 0.46021 0.0929 0.0
H153 H 0.57831 0.5118 0.05978 0.0
H154 H 0.59958 0.53948 0.01851 0.0
H155 H 0.52737 0.55382 0.09501 0.0
H156 H 0.50273 0.57836 0.03302 0.0
H157 H 0.51979 0.44555 0.98819 0.0
H158 H 0.4999 0.47289 0.92424 0.0
C159 C 0.96226 0.46807 0.52478 0.0
C160 C 0.94001 0.45583 0.51517 0.0
C161 C 0.94076 0.46544 0.49126 0.0
C162 C 0.96327 0.48306 0.48762 0.0
N163 N 0.97711 0.48513 0.50758 0.0
Co164 Co 0.01046 0.51017 0.51104 0.0
N165 N 0.0114 0.5246 0.47596 0.0
C166 C 0.99376 0.51694 0.45915 0.0
C167 C 0.99955 0.52947 0.43608 0.0
C168 C 0.0224 0.54593 0.43802 0.0
C169 C 0.02931 0.54248 0.46225 0.0
N170 N 0.04353 0.53566 0.51496 0.0
C171 C 0.0583 0.55304 0.49805 0.0
C172 C 0.07993 0.56655 0.50876 0.0
C173 C 0.07885 0.55744 0.53311 0.0
C174 C 0.05674 0.53891 0.53596 0.0
N175 N 0.00987 0.4952 0.54559 0.0
C176 C 0.02791 0.50213 0.56169 0.0
C177 C 0.0226 0.48867 0.58397 0.0
C178 C 0.99972 0.47224 0.58216 0.0
C179 C 0.99226 0.47673 0.55889 0.0
N180 N 0.02108 0.49212 0.49362 0.0
C181 C 0.0403 0.47244 0.46413 0.0
C182 C 0.05032 0.48295 0.48731 0.0
C183 C 0.04047 0.49255 0.50167 0.0
C184 C 0.01968 0.47067 0.45686 0.0
C185 C 0.0103 0.48035 0.47192 0.0
N186 N 0.99977 0.52824 0.52843 0.0
C187 C 0.99533 0.5439 0.56772 0.0
C188 C 0.97903 0.54767 0.55604 0.0
C189 C 0.9746 0.54295 0.52968 0.0
C190 C 0.98493 0.53322 0.51644 0.0
C191 C 0.00569 0.53468 0.55355 0.0
H192 H 0.98019 0.52947 0.49668 0.0
H193 H 0.01795 0.53235 0.56367 0.0
H194 H 0.04928 0.50085 0.51875 0.0
H195 H 0.99467 0.47864 0.46525 0.0
C196 C 0.97191 0.49802 0.46577 0.0
C197 C 0.96812 0.46334 0.55077 0.0
C198 C 0.05309 0.55673 0.47126 0.0
C199 C 0.04883 0.52271 0.55663 0.0
H200 H 0.92467 0.44169 0.52464 0.0
H201 H 0.92648 0.46043 0.47826 0.0
H202 H 0.9885 0.52685 0.41973 0.0
H203 H 0.03283 0.55896 0.4232 0.0
H204 H 0.09518 0.58108 0.49965 0.0
H205 H 0.09284 0.56309 0.54668 0.0
H206 H 0.03383 0.49098 0.60004 0.0
H207 H 0.98955 0.45876 0.59664 0.0
H208 H 0.0663 0.48471 0.49379 0.0
H209 H 0.01099 0.46217 0.43937 0.0
H210 H 0.99958 0.5472 0.58803 0.0
H211 H 0.96286 0.54633 0.51926 0.0
C212 C 0.47786 0.99062 0.05139 0.0
C213 C 0.47531 0.99834 0.07495 0.0
C214 C 0.4921 0.02087 0.07524 0.0
C215 C 0.50396 0.0257 0.05196 0.0
N216 N 0.49567 0.00765 0.03665 0.0
Co217 Co 0.50846 0.00747 1.00138 0.0
N218 N 0.53487 0.03993 1.00329 0.0
C219 C 0.53982 0.05328 0.02387 0.0
C220 C 0.55919 0.07457 0.02005 0.0
C221 C 0.56704 0.07498 0.99546 0.0
C222 C 0.5518 0.05388 0.98549 0.0
N223 N 0.52068 0.00762 0.96561 0.0
C224 C 0.53825 0.02484 0.95076 0.0
C225 C 0.53928 0.0178 0.9261 0.0
C226 C 0.52191 0.9955 0.9253 0.0
C227 C 0.5111 0.99017 0.94931 0.0
N228 N 0.48265 0.97465 1.00006 0.0
C229 C 0.47871 0.96073 0.98034 0.0
C230 C 0.46083 0.93877 0.98537 0.0
C231 C 0.45308 0.93848 0.00999 0.0
C232 C 0.46674 0.96039 0.01864 0.0
N233 N 0.48901 0.01771 0.98489 0.0
C234 C 0.4679 0.03631 0.955 0.0
C235 C 0.46394 0.01492 0.95001 0.0
C236 C 0.47444 0.00595 0.96517 0.0
C237 C 0.48114 0.04742 0.97652 0.0
C238 C 0.49128 0.03778 0.99123 0.0
N239 N 0.52787 0.99715 0.01767 0.0
C240 C 0.5403 0.97044 0.01918 0.0
C241 C 0.54749 0.97578 0.04477 0.0
C242 C 0.54663 0.99344 0.05572 0.0
C243 C 0.53697 0.00397 0.04182 0.0
C244 C 0.53074 0.98135 0.00604 0.0
H245 H 0.53624 0.01693 0.05141 0.0
H246 H 0.52504 0.97606 0.98685 0.0
H247 H 0.471 0.98976 0.96003 0.0
H248 H 0.5015 0.04725 0.0071 0.0
C249 C 0.52464 0.04606 0.0454 0.0
C250 C 0.46383 0.9667 0.04467 0.0
C251 C 0.55387 0.04824 0.95878 0.0
C252 C 0.49208 0.9689 0.95728 0.0
H253 H 0.4631 0.98855 0.09072 0.0
H254 H 0.49588 0.03215 0.09107 0.0
H255 H 0.56637 0.08839 0.03329 0.0
H256 H 0.58208 0.08934 0.98581 0.0
H257 H 0.55112 0.02781 0.91014 0.0
H258 H 0.5175 0.98455 0.90902 0.0
H259 H 0.45432 0.92459 0.97272 0.0
H260 H 0.43906 0.92378 0.02047 0.0
H261 H 0.45313 0.00528 0.93411 0.0
H262 H 0.48458 0.06396 0.98137 0.0
H263 H 0.54133 0.95735 0.00958 0.0
H264 H 0.55221 0.99833 0.07544 0.0
C265 C 0.53166 0.56077 0.51408 0.0
C266 C 0.53012 0.57597 0.52942 0.0
C267 C 0.51559 0.56348 0.54994 0.0
C268 C 0.50915 0.54148 0.54594 0.0
N269 N 0.5191 0.53927 0.5244 0.0
Co270 Co 0.51379 0.5104 0.51031 0.0
N271 N 0.48901 0.4916 0.53733 0.0
C272 C 0.48045 0.49912 0.55537 0.0
C273 C 0.46411 0.48217 0.57186 0.0
C274 C 0.46243 0.46275 0.56416 0.0
C275 C 0.47792 0.46903 0.54333 0.0
N276 N 0.50916 0.48159 0.49682 0.0
C277 C 0.49664 0.46014 0.50727 0.0
C278 C 0.49935 0.44508 0.493 0.0
C279 C 0.51465 0.45762 0.4731 0.0
C280 C 0.52037 0.47949 0.47643 0.0
N281 N 0.53792 0.52915 0.48266 0.0
C282 C 0.54559 0.52165 0.46359 0.0
C283 C 0.56071 0.53846 0.44609 0.0
C284 C 0.56227 0.55776 0.45402 0.0
C285 C 0.54798 0.5515 0.47598 0.0
N286 N 0.53785 0.51191 0.53432 0.0
C287 C 0.57071 0.51188 0.56888 0.0
C288 C 0.57255 0.51084 0.5418 0.0
C289 C 0.55614 0.51081 0.52512 0.0
C290 C 0.55205 0.51312 0.5781 0.0
C291 C 0.53615 0.51324 0.56076 0.0
N292 N 0.48973 0.50891 0.48637 0.0
C293 C 0.47119 0.50095 0.44425 0.0
C294 C 0.45708 0.5091 0.4515 0.0
C295 C 0.4597 0.51693 0.47686 0.0
C296 C 0.47567 0.51646 0.49378 0.0
C297 C 0.48727 0.50117 0.46163 0.0
H298 H 0.47649 0.52258 0.51275 0.0
H299 H 0.49763 0.49507 0.45453 0.0
H300 H 0.55857 0.50976 0.50482 0.0
H301 H 0.52245 0.51417 0.56933 0.0
C302 C 0.49084 0.52236 0.55905 0.0
C303 C 0.54294 0.5669 0.48848 0.0
C304 C 0.48336 0.45357 0.53164 0.0
C305 C 0.53697 0.49852 0.46161 0.0
H306 H 0.53772 0.59399 0.52546 0.0
H307 H 0.50922 0.5695 0.56494 0.0
H308 H 0.45553 0.48393 0.58853 0.0
H309 H 0.45185 0.44608 0.5736 0.0
H310 H 0.4916 0.42705 0.49712 0.0
H311 H 0.52143 0.45165 0.45851 0.0
H312 H 0.56881 0.53671 0.42895 0.0
H313 H 0.57204 0.57439 0.44423 0.0
H314 H 0.58674 0.51026 0.53325 0.0
H315 H 0.54931 0.51359 0.59878 0.0
H316 H 0.46986 0.49418 0.42524 0.0
H317 H 0.44978 0.52385 0.48377 0.0
Cu318 Cu 0.2442 0.48032 0.24511 0.0
N319 N 0.24994 0.46387 0.22154 0.0
N320 N 0.26911 0.45559 0.19331 0.0
C321 C 0.26945 0.47196 0.2071 0.0
C322 C 0.24843 0.43651 0.19915 0.0
C323 C 0.23667 0.44166 0.21661 0.0
O324 O 0.27299 0.49853 0.26522 0.0
C325 C 0.21151 0.48122 0.21378 0.0
O326 O 0.20375 0.45947 0.21699 0.0
H327 H 0.28374 0.48946 0.20712 0.0
H328 H 0.21987 0.42992 0.22554 0.0
N329 N 0.22155 0.46037 0.26949 0.0
N330 N 0.19205 0.44663 0.29818 0.0
C331 C 0.20537 0.4633 0.28025 0.0
C332 C 0.21848 0.44123 0.28101 0.0
C333 C 0.20027 0.43271 0.29877 0.0
C334 C 0.28348 0.48847 0.27256 0.0
O335 O 0.2751 0.46748 0.26589 0.0
H336 H 0.20389 0.47778 0.27553 0.0
H337 H 0.22892 0.43414 0.27702 0.0
O338 O 0.23047 0.49526 0.22487 0.0
H339 H 0.24251 0.41985 0.19204 0.0
H340 H 0.19366 0.4175 0.31118 0.0
Cu341 Cu 0.77165 0.24009 0.75073 0.0
N342 N 0.76483 0.21617 0.72965 0.0
N343 N 0.74468 0.18735 0.70339 0.0
C344 C 0.74433 0.20268 0.71853 0.0
C345 C 0.76632 0.19138 0.70522 0.0
C346 C 0.77874 0.20924 0.72139 0.0
O347 O 0.74219 0.22873 0.77059 0.0
C348 C 0.79404 0.28803 0.73075 0.0
O349 O 0.79159 0.29365 0.75414 0.0
H350 H 0.72947 0.20415 0.72157 0.0
H351 H 0.79671 0.21686 0.72646 0.0
N352 N 0.79452 0.24374 0.77376 0.0
N353 N 0.82401 0.25959 0.80113 0.0
C354 C 0.81184 0.26328 0.78308 0.0
C355 C 0.79589 0.22712 0.78616 0.0
C356 C 0.81404 0.23683 0.80312 0.0
C357 C 0.74086 0.22802 0.79552 0.0
O358 O 0.75998 0.23978 0.80856 0.0
H359 H 0.81486 0.2798 0.77762 0.0
H360 H 0.78408 0.20915 0.78355 0.0
O361 O 0.78509 0.26705 0.72619 0.0
H362 H 0.77293 0.1825 0.6951 0.0
H363 H 0.81926 0.22782 0.81613 0.0
Cu364 Cu 0.54096 0.77352 0.27004 0.0
N365 N 0.56141 0.79686 0.24662 0.0
N366 N 0.57382 0.82477 0.21614 0.0
C367 C 0.55532 0.80771 0.22942 0.0
C368 C 0.59231 0.82459 0.22519 0.0
C369 C 0.58456 0.8072 0.24392 0.0
O370 O 0.52266 0.78414 0.28802 0.0
C371 C 0.53933 0.73993 0.24081 0.0
O372 O 0.56137 0.7529 0.24614 0.0
H373 H 0.53773 0.80368 0.22744 0.0
H374 H 0.59511 0.80263 0.25496 0.0
N375 N 0.55726 0.76887 0.29605 0.0
N376 N 0.5658 0.75034 0.32592 0.0
C377 C 0.55063 0.74868 0.30782 0.0
C378 C 0.57716 0.78405 0.3072 0.0
C379 C 0.58254 0.77268 0.32554 0.0
C380 C 0.53389 0.80486 0.29485 0.0
O381 O 0.55608 0.81763 0.28898 0.0
H382 H 0.53477 0.73318 0.30321 0.0
H383 H 0.58703 0.8021 0.3024 0.0
O384 O 0.52545 0.7455 0.24964 0.0
H385 H 0.61009 0.8362 0.21876 0.0
H386 H 0.59773 0.7804 0.33745 0.0
Cu387 Cu 0.77891 0.54001 0.77761 0.0
N388 N 0.79983 0.56025 0.75215 0.0
N389 N 0.82789 0.57466 0.72164 0.0
C390 C 0.81855 0.56067 0.74298 0.0
C391 C 0.81461 0.58346 0.71726 0.0
C392 C 0.79734 0.57461 0.73626 0.0
O393 O 0.79396 0.52511 0.7948 0.0
C394 C 0.74636 0.51803 0.73624 0.0
O395 O 0.76442 0.52149 0.72273 0.0
H396 H 0.82422 0.54974 0.75069 0.0
H397 H 0.7832 0.57741 0.73755 0.0
N398 N 0.77498 0.55663 0.80245 0.0
N399 N 0.75723 0.56642 0.83072 0.0
C400 C 0.75471 0.55386 0.81012 0.0
C401 C 0.79092 0.57165 0.81854 0.0
C402 C 0.77996 0.57763 0.83616 0.0
C403 C 0.79272 0.52078 0.81941 0.0
O404 O 0.77734 0.52201 0.83346 0.0
H405 H 0.73826 0.54196 0.80165 0.0
H406 H 0.80902 0.57707 0.81815 0.0
O407 O 0.74859 0.52215 0.76051 0.0
H408 H 0.81675 0.5948 0.70098 0.0
H409 H 0.78795 0.58893 0.85206 0.0
Cu410 Cu 0.2485 0.77761 0.26307 0.0
N411 N 0.22356 0.77118 0.24183 0.0
N412 N 0.19434 0.75181 0.21484 0.0
C413 C 0.21141 0.75212 0.22847 0.0
C414 C 0.19579 0.77146 0.21972 0.0
C415 C 0.21394 0.78346 0.23623 0.0
O416 O 0.23705 0.74946 0.28554 0.0
C417 C 0.28062 0.80764 0.22595 0.0
O418 O 0.26693 0.81534 0.22948 0.0
H419 H 0.21496 0.73865 0.22892 0.0
H420 H 0.21993 0.80017 0.24314 0.0
N421 N 0.25569 0.80126 0.28532 0.0
N422 N 0.27629 0.82955 0.31229 0.0
C423 C 0.27607 0.81388 0.29718 0.0
C424 C 0.2425 0.80916 0.29321 0.0
C425 C 0.25513 0.82658 0.30974 0.0
C426 C 0.22 0.74472 0.30084 0.0
O427 O 0.21233 0.75852 0.30024 0.0
H428 H 0.29024 0.81123 0.29504 0.0
H429 H 0.22478 0.80251 0.2878 0.0
O430 O 0.27615 0.78973 0.23934 0.0
H431 H 0.1849 0.777 0.2114 0.0
H432 H 0.24908 0.83628 0.31905 0.0
Cu433 Cu 0.47472 0.24797 0.75648 0.0
N434 N 0.45633 0.25444 0.73556 0.0
N435 N 0.44607 0.27143 0.70564 0.0
C436 C 0.46298 0.26826 0.71401 0.0
C437 C 0.42791 0.25866 0.72218 0.0
C438 C 0.43426 0.24815 0.74052 0.0
O439 O 0.49324 0.2743 0.77884 0.0
C440 C 0.49922 0.22589 0.74017 0.0
O441 O 0.50384 0.22511 0.76489 0.0
H442 H 0.48034 0.27694 0.70564 0.0
H443 H 0.42375 0.23734 0.75689 0.0
N444 N 0.45473 0.22439 0.77989 0.0
N445 N 0.43757 0.19208 0.80432 0.0
C446 C 0.45123 0.20347 0.78319 0.0
C447 C 0.44264 0.22619 0.79933 0.0
C448 C 0.43198 0.2063 0.81436 0.0
C449 C 0.49987 0.29492 0.77262 0.0
O450 O 0.49909 0.3005 0.74814 0.0
H451 H 0.4595 0.19718 0.77121 0.0
H452 H 0.44233 0.24129 0.80284 0.0
O453 O 0.48947 0.23666 0.73324 0.0
H454 H 0.41144 0.2575 0.72153 0.0
H455 H 0.42158 0.20296 0.83183 0.0
H456 H 0.0901 0.54295 0.07144 0.0
H457 H 0.11887 0.54299 0.10044 0.0
H458 H 0.08182 0.46987 0.09956 0.0
H459 H 0.05322 0.4699 0.07053 0.0
H460 H 0.0945 0.48405 0.14861 0.0
H461 H 0.13227 0.5041 0.06367 0.0
H462 H 0.1473 0.52741 0.02276 0.0
H463 H 0.19269 0.58616 0.06606 0.0
H464 H 0.17764 0.56326 0.10729 0.0
H465 H 0.17156 0.45306 0.18915 0.0
H466 H 0.14724 0.46196 0.1638 0.0
H467 H 0.19404 0.53328 0.17582 0.0
H468 H 0.21913 0.52439 0.2016 0.0
H469 H 0.17812 0.5253 0.12455 0.0
H470 H 0.14345 0.50495 0.20922 0.0
H471 H 0.1285 0.4821 0.25042 0.0
H472 H 0.07718 0.42508 0.20871 0.0
H473 H 0.09208 0.44745 0.16718 0.0
C474 C 0.0882 0.52692 0.0774 0.0
C475 C 0.06942 0.50642 0.06863 0.0
C476 C 0.10467 0.52693 0.09397 0.0
C477 C 0.10276 0.50642 0.10222 0.0
C478 C 0.08381 0.48594 0.09364 0.0
C479 C 0.06745 0.48595 0.07698 0.0
C480 C 0.12035 0.50608 0.11969 0.0
C481 C 0.11274 0.49296 0.14319 0.0
C482 C 0.1444 0.51832 0.11332 0.0
C483 C 0.15367 0.53202 0.08856 0.0
C484 C 0.14534 0.52202 0.06447 0.0
C485 C 0.15387 0.53516 0.04123 0.0
C486 C 0.1709 0.55826 0.04181 0.0
C487 C 0.17947 0.56827 0.06564 0.0
C488 C 0.17096 0.55522 0.08895 0.0
C489 C 0.17694 0.47075 0.1866 0.0
C490 C 0.19745 0.48797 0.19779 0.0
C491 C 0.16279 0.4758 0.172 0.0
C492 C 0.1684 0.49826 0.16808 0.0
C493 C 0.18916 0.51575 0.17861 0.0
C494 C 0.20349 0.51065 0.19344 0.0
C495 C 0.15213 0.50282 0.15316 0.0
C496 C 0.15994 0.51666 0.13015 0.0
C497 C 0.12822 0.49137 0.16006 0.0
C498 C 0.119 0.47786 0.18503 0.0
C499 C 0.12908 0.48749 0.2088 0.0
C500 C 0.1206 0.47462 0.23222 0.0
C501 C 0.10192 0.45214 0.23218 0.0
C502 C 0.09165 0.44249 0.20871 0.0
C503 C 0.1001 0.45527 0.18522 0.0
H504 H 0.09539 0.44221 0.25034 0.0
H505 H 0.17748 0.56841 0.02379 0.0
H506 H 0.56324 0.06711 0.57152 0.0
H507 H 0.59567 0.09267 0.59881 0.0
H508 H 0.62443 0.0507 0.59115 0.0
H509 H 0.59179 0.02503 0.56388 0.0
H510 H 0.62683 0.06509 0.64171 0.0
H511 H 0.64588 0.09774 0.55447 0.0
H512 H 0.63831 0.1113 0.51293 0.0
H513 H 0.63291 0.16164 0.55283 0.0
H514 H 0.64 0.14808 0.59472 0.0
H515 H 0.73847 0.14779 0.6868 0.0
H516 H 0.70689 0.11993 0.66047 0.0
H517 H 0.67667 0.16101 0.65911 0.0
H518 H 0.70852 0.18926 0.68451 0.0
H519 H 0.67599 0.14616 0.61208 0.0
H520 H 0.65469 0.11304 0.69903 0.0
H521 H 0.66013 0.09891 0.74144 0.0
H522 H 0.66841 0.04962 0.70313 0.0
H523 H 0.66332 0.06368 0.66042 0.0
C524 C 0.57645 0.06334 0.57592 0.0
C525 C 0.57523 0.04426 0.56582 0.0
C526 C 0.59492 0.0779 0.59138 0.0
C527 C 0.61256 0.07369 0.59675 0.0
C528 C 0.61099 0.05422 0.58722 0.0
C529 C 0.59247 0.03964 0.5717 0.0
C530 C 0.63302 0.09011 0.61152 0.0
C531 C 0.63783 0.08274 0.63508 0.0
C532 C 0.64702 0.11323 0.60305 0.0
C533 C 0.6433 0.12177 0.57778 0.0
C534 C 0.64294 0.11161 0.55442 0.0
C535 C 0.63874 0.1193 0.5308 0.0
C536 C 0.6351 0.1373 0.53025 0.0
C537 C 0.63572 0.14769 0.5533 0.0
C538 C 0.63985 0.14002 0.57699 0.0
C539 C 0.72522 0.151 0.68073 0.0
C540 C 0.72604 0.17077 0.68794 0.0
C541 C 0.70705 0.13494 0.66587 0.0
C542 C 0.68926 0.13825 0.65806 0.0
C543 C 0.69016 0.15805 0.66498 0.0
C544 C 0.70831 0.17411 0.67977 0.0
C545 C 0.66974 0.12124 0.64251 0.0
C546 C 0.66511 0.12849 0.61871 0.0
C547 C 0.65583 0.09806 0.65087 0.0
C548 C 0.65889 0.08958 0.67651 0.0
C549 C 0.65787 0.09932 0.69963 0.0
C550 C 0.66085 0.0913 0.72372 0.0
C551 C 0.66469 0.07342 0.72497 0.0
C552 C 0.66548 0.06349 0.70213 0.0
C553 C 0.66254 0.07147 0.67797 0.0
H554 H 0.66698 0.06723 0.74365 0.0
H555 H 0.63184 0.14322 0.51195 0.0
H556 H 0.48353 0.58205 0.07042 0.0
H557 H 0.48346 0.60877 0.10015 0.0
H558 H 0.54633 0.61983 0.13404 0.0
H559 H 0.54647 0.59313 0.10446 0.0
H560 H 0.51842 0.61604 0.17158 0.0
H561 H 0.54417 0.65933 0.08991 0.0
H562 H 0.54156 0.66717 0.04324 0.0
H563 H 0.47811 0.66439 0.0585 0.0
H564 H 0.4802 0.65624 0.10524 0.0
H565 H 0.5635 0.71981 0.23218 0.0
H566 H 0.55472 0.68908 0.20393 0.0
H567 H 0.49017 0.68275 0.18396 0.0
H568 H 0.49907 0.71415 0.21258 0.0
H569 H 0.51358 0.68175 0.14029 0.0
H570 H 0.49022 0.64212 0.22307 0.0
H571 H 0.49366 0.63495 0.26972 0.0
H572 H 0.55321 0.63126 0.25245 0.0
H573 H 0.55033 0.63871 0.20572 0.0
C574 C 0.49751 0.59032 0.08398 0.0
C575 C 0.51504 0.58528 0.0848 0.0
C576 C 0.49744 0.60568 0.1011 0.0
C577 C 0.51503 0.61671 0.1194 0.0
C578 C 0.53246 0.61162 0.12031 0.0
C579 C 0.53249 0.59621 0.10331 0.0
C580 C 0.51532 0.63336 0.13773 0.0
C581 C 0.51757 0.6305 0.1646 0.0
C582 C 0.51346 0.65198 0.12907 0.0
C583 C 0.5122 0.65692 0.10101 0.0
C584 C 0.52957 0.66021 0.08328 0.0
C585 C 0.5282 0.66475 0.05682 0.0
C586 C 0.50964 0.66621 0.0479 0.0
C587 C 0.49245 0.66321 0.06543 0.0
C588 C 0.49373 0.65865 0.09191 0.0
C589 C 0.54728 0.7119 0.222 0.0
C590 C 0.532 0.71961 0.22482 0.0
C591 C 0.54223 0.69411 0.20583 0.0
C592 C 0.52166 0.68324 0.19183 0.0
C593 C 0.50616 0.69074 0.19457 0.0
C594 C 0.51117 0.70861 0.21108 0.0
C595 C 0.51712 0.66462 0.174 0.0
C596 C 0.51413 0.66712 0.14726 0.0
C597 C 0.51836 0.64568 0.18276 0.0
C598 C 0.52014 0.64113 0.21087 0.0
C599 C 0.50415 0.63994 0.22922 0.0
C600 C 0.50598 0.6358 0.25569 0.0
C601 C 0.52366 0.63269 0.26405 0.0
C602 C 0.53952 0.63368 0.24595 0.0
C603 C 0.53778 0.63782 0.21946 0.0
H604 H 0.52504 0.62948 0.28455 0.0
H605 H 0.50861 0.66972 0.02741 0.0
H606 H 0.99379 0.57566 0.59789 0.0
H607 H 0.97053 0.58401 0.62604 0.0
H608 H 0.91181 0.5465 0.57708 0.0
H609 H 0.93414 0.53655 0.54985 0.0
H610 H 0.92667 0.5959 0.59711 0.0
H611 H 0.90453 0.51753 0.62104 0.0
H612 H 0.91443 0.4892 0.63398 0.0
H613 H 0.94961 0.52741 0.7007 0.0
H614 H 0.94024 0.55618 0.68785 0.0
H615 H 0.82861 0.57539 0.66911 0.0
H616 H 0.85734 0.57518 0.64085 0.0
H617 H 0.89691 0.57886 0.70826 0.0
H618 H 0.86737 0.57784 0.73658 0.0
H619 H 0.89537 0.54957 0.67971 0.0
H620 H 0.91429 0.6252 0.66115 0.0
H621 H 0.90756 0.6559 0.64919 0.0
H622 H 0.88292 0.62732 0.57462 0.0
H623 H 0.88921 0.59627 0.58626 0.0
C624 C 0.97589 0.56896 0.5931 0.0
C625 C 0.96591 0.5552 0.57155 0.0
C626 C 0.96273 0.57402 0.6091 0.0
C627 C 0.93955 0.56585 0.60353 0.0
C628 C 0.92978 0.55307 0.58149 0.0
C629 C 0.94271 0.54755 0.56583 0.0
C630 C 0.92498 0.56932 0.62166 0.0
C631 C 0.91962 0.58574 0.61512 0.0
C632 C 0.91657 0.55653 0.64544 0.0
C633 C 0.92196 0.53913 0.6533 0.0
C634 C 0.91459 0.52001 0.6383 0.0
C635 C 0.92006 0.50385 0.64565 0.0
C636 C 0.93272 0.50654 0.6681 0.0
C637 C 0.93986 0.52537 0.68328 0.0
C638 C 0.93447 0.5416 0.67598 0.0
C639 C 0.84364 0.57651 0.67778 0.0
C640 C 0.84591 0.57675 0.70495 0.0
C641 C 0.86014 0.57649 0.66164 0.0
C642 C 0.87961 0.5774 0.6723 0.0
C643 C 0.88209 0.57814 0.69949 0.0
C644 C 0.8653 0.57762 0.71566 0.0
C645 C 0.89656 0.57615 0.65524 0.0
C646 C 0.90246 0.56006 0.66192 0.0
C647 C 0.90581 0.58961 0.6318 0.0
C648 C 0.90206 0.6083 0.62467 0.0
C649 C 0.90729 0.62537 0.64227 0.0
C650 C 0.90358 0.64285 0.63554 0.0
C651 C 0.89478 0.64353 0.61119 0.0
C652 C 0.88973 0.62676 0.59349 0.0
C653 C 0.89339 0.60923 0.60013 0.0
H654 H 0.89191 0.65708 0.60601 0.0
H655 H 0.93693 0.49401 0.67377 0.0
H656 H 0.46573 0.93309 0.07217 0.0
H657 H 0.43739 0.9047 0.1042 0.0
H658 H 0.3939 0.93196 0.09238 0.0
H659 H 0.42245 0.96053 0.06076 0.0
H660 H 0.39518 0.92383 0.14259 0.0
H661 H 0.38254 0.88006 0.0661 0.0
H662 H 0.39497 0.86538 0.03081 0.0
H663 H 0.41655 0.83364 0.08737 0.0
H664 H 0.4045 0.84837 0.12299 0.0
H665 H 0.28635 0.83941 0.18938 0.0
H666 H 0.31931 0.86378 0.16065 0.0
H667 H 0.354 0.83075 0.18954 0.0
H668 H 0.32036 0.8057 0.21885 0.0
H669 H 0.36103 0.84104 0.13484 0.0
H670 H 0.36952 0.88075 0.21132 0.0
H671 H 0.35678 0.89485 0.24685 0.0
H672 H 0.34464 0.93501 0.19148 0.0
H673 H 0.35663 0.92061 0.15548 0.0
C674 C 0.45005 0.93292 0.07642 0.0
C675 C 0.44629 0.94901 0.06394 0.0
C676 C 0.43377 0.91661 0.09469 0.0
C677 C 0.41315 0.91582 0.10075 0.0
C678 C 0.40953 0.93204 0.08826 0.0
C679 C 0.42583 0.94836 0.07008 0.0
C680 C 0.3954 0.89837 0.12013 0.0
C681 C 0.38763 0.90575 0.14065 0.0
C682 C 0.38595 0.87465 0.11854 0.0
C683 C 0.39279 0.86545 0.09718 0.0
C684 C 0.39003 0.87002 0.07099 0.0
C685 C 0.397 0.86169 0.05094 0.0
C686 C 0.40657 0.84861 0.05684 0.0
C687 C 0.40913 0.84378 0.08282 0.0
C688 C 0.40221 0.85209 0.10295 0.0
C689 C 0.30084 0.83706 0.18976 0.0
C690 C 0.3006 0.82059 0.20686 0.0
C691 C 0.31983 0.85118 0.17317 0.0
C692 C 0.33951 0.84958 0.17308 0.0
C693 C 0.33912 0.83249 0.18925 0.0
C694 C 0.31986 0.81815 0.20604 0.0
C695 C 0.36043 0.86656 0.15675 0.0
C696 C 0.36879 0.85914 0.13689 0.0
C697 C 0.37059 0.89031 0.15901 0.0
C698 C 0.36383 0.89945 0.18065 0.0
C699 C 0.36398 0.89246 0.20667 0.0
C700 C 0.35687 0.9005 0.22691 0.0
C701 C 0.34991 0.91582 0.22143 0.0
C702 C 0.35004 0.92313 0.19569 0.0
C703 C 0.35696 0.91501 0.17535 0.0
H704 H 0.34444 0.92205 0.23712 0.0
H705 H 0.41198 0.84219 0.04129 0.0
H706 H 0.44288 0.41268 0.53864 0.0
H707 H 0.4361 0.37991 0.5662 0.0
H708 H 0.50839 0.41644 0.58571 0.0
H709 H 0.515 0.44922 0.55847 0.0
H710 H 0.4542 0.35252 0.56662 0.0
H711 H 0.51157 0.40517 0.65042 0.0
H712 H 0.52722 0.44313 0.668 0.0
H713 H 0.46886 0.44459 0.63917 0.0
H714 H 0.45267 0.40651 0.62186 0.0
H715 H 0.47252 0.2851 0.66141 0.0
H716 H 0.47812 0.31483 0.62948 0.0
H717 H 0.43045 0.32464 0.6736 0.0
H718 H 0.42497 0.29522 0.70556 0.0
H719 H 0.4714 0.36491 0.66061 0.0
H720 H 0.41309 0.29779 0.61893 0.0
H721 H 0.39643 0.25992 0.60086 0.0
H722 H 0.45344 0.28668 0.54599 0.0
H723 H 0.4706 0.32467 0.56399 0.0
C724 C 0.45722 0.4135 0.54877 0.0
C725 C 0.47934 0.43329 0.54687 0.0
C726 C 0.45342 0.39485 0.56431 0.0
C727 C 0.4717 0.39587 0.57816 0.0
C728 C 0.49402 0.41542 0.57541 0.0
C729 C 0.49779 0.43405 0.55991 0.0
C730 C 0.46718 0.37701 0.5966 0.0
C731 C 0.45801 0.35521 0.58715 0.0
C732 C 0.47194 0.38054 0.62342 0.0
C733 C 0.48104 0.40308 0.63463 0.0
C734 C 0.50201 0.41354 0.64799 0.0
C735 C 0.51098 0.43508 0.65789 0.0
C736 C 0.49908 0.44629 0.65463 0.0
C737 C 0.4781 0.43592 0.64162 0.0
C738 C 0.46902 0.41436 0.63177 0.0
C739 C 0.46321 0.29357 0.6642 0.0
C740 C 0.44825 0.28777 0.68593 0.0
C741 C 0.46633 0.31044 0.64593 0.0
C742 C 0.45465 0.32186 0.6492 0.0
C743 C 0.4396 0.316 0.67074 0.0
C744 C 0.43632 0.29903 0.68885 0.0
C745 C 0.45856 0.34042 0.63061 0.0
C746 C 0.46768 0.36221 0.64005 0.0
C747 C 0.45356 0.33682 0.60386 0.0
C748 C 0.44324 0.31401 0.59298 0.0
C749 C 0.42217 0.29555 0.60316 0.0
C750 C 0.41262 0.27408 0.5929 0.0
C751 C 0.4239 0.27088 0.57234 0.0
C752 C 0.44473 0.28917 0.56194 0.0
C753 C 0.45437 0.31068 0.57215 0.0
H754 H 0.41648 0.25423 0.56442 0.0
H755 H 0.5061 0.46299 0.66222 0.0
H756 H 0.51281 0.95533 0.4085 0.0
H757 H 0.51385 0.92811 0.38098 0.0
H758 H 0.50358 0.88496 0.44866 0.0
H759 H 0.50449 0.913 0.47661 0.0
H760 H 0.53179 0.88285 0.41937 0.0
H761 H 0.45924 0.87459 0.40149 0.0
H762 H 0.43226 0.88676 0.38952 0.0
H763 H 0.46614 0.9114 0.31448 0.0
H764 H 0.49357 0.89971 0.32614 0.0
H765 H 0.50819 0.7893 0.34085 0.0
H766 H 0.49954 0.81156 0.36987 0.0
H767 H 0.52864 0.86696 0.31231 0.0
H768 H 0.53777 0.84511 0.28379 0.0
H769 H 0.48754 0.85959 0.33776 0.0
H770 H 0.56146 0.86893 0.35907 0.0
H771 H 0.58662 0.85483 0.37209 0.0
H772 H 0.5463 0.82482 0.44276 0.0
H773 H 0.52067 0.83847 0.42995 0.0
C774 C 0.51113 0.94029 0.4178 0.0
C775 C 0.50851 0.9367 0.44515 0.0
C776 C 0.51129 0.92436 0.40179 0.0
C777 C 0.50823 0.90393 0.4124 0.0
C778 C 0.50581 0.90036 0.43968 0.0
C779 C 0.50603 0.91646 0.45576 0.0
C780 C 0.50805 0.88661 0.39522 0.0
C781 C 0.52171 0.87754 0.40182 0.0
C782 C 0.49515 0.87951 0.37197 0.0
C783 C 0.4786 0.88644 0.36479 0.0
C784 C 0.46104 0.88274 0.38249 0.0
C785 C 0.44565 0.88954 0.37576 0.0
C786 C 0.44752 0.89989 0.35128 0.0
C787 C 0.46474 0.90341 0.33345 0.0
C788 C 0.4802 0.89668 0.34011 0.0
C789 C 0.51205 0.80593 0.33411 0.0
C790 C 0.52337 0.81531 0.30985 0.0
C791 C 0.50733 0.81877 0.35081 0.0
C792 C 0.51353 0.8411 0.34341 0.0
C793 C 0.52359 0.84985 0.31854 0.0
C794 C 0.52873 0.83727 0.30218 0.0
C795 C 0.51127 0.85609 0.362 0.0
C796 C 0.49729 0.86477 0.35556 0.0
C797 C 0.52349 0.86251 0.38561 0.0
C798 C 0.539 0.85448 0.39341 0.0
C799 C 0.55784 0.85916 0.37728 0.0
C800 C 0.57221 0.85128 0.38464 0.0
C801 C 0.56802 0.83888 0.4082 0.0
C802 C 0.54949 0.83439 0.42449 0.0
C803 C 0.53505 0.8422 0.41719 0.0
H804 H 0.57916 0.83279 0.41387 0.0
H805 H 0.4356 0.90514 0.3461 0.0
H806 H 0.60562 0.5831 0.96431 0.0
H807 H 0.63732 0.58849 0.93611 0.0
H808 H 0.60946 0.51625 0.94201 0.0
H809 H 0.57677 0.51079 0.96824 0.0
H810 H 0.67074 0.58383 0.94111 0.0
H811 H 0.62235 0.4972 0.89046 0.0
H812 H 0.58303 0.46943 0.87577 0.0
H813 H 0.56737 0.52168 0.87027 0.0
H814 H 0.60665 0.54981 0.88462 0.0
H815 H 0.75339 0.56638 0.88302 0.0
H816 H 0.72138 0.56359 0.90804 0.0
H817 H 0.68809 0.56329 0.83637 0.0
H818 H 0.71966 0.56491 0.81145 0.0
H819 H 0.65709 0.53438 0.86726 0.0
H820 H 0.71715 0.61137 0.87662 0.0
H821 H 0.75611 0.64349 0.88645 0.0
H822 H 0.74754 0.6183 0.96586 0.0
H823 H 0.70863 0.58585 0.95643 0.0
C824 C 0.60611 0.5684 0.95904 0.0
C825 C 0.58851 0.5465 0.9677 0.0
C826 C 0.62433 0.57147 0.9432 0.0
C827 C 0.6256 0.55273 0.93632 0.0
C828 C 0.60854 0.53093 0.94617 0.0
C829 C 0.59 0.52782 0.96139 0.0
C830 C 0.64491 0.55602 0.91921 0.0
C831 C 0.6677 0.57305 0.92491 0.0
C832 C 0.64106 0.54238 0.8976 0.0
C833 C 0.61741 0.52558 0.88881 0.0
C834 C 0.61055 0.50278 0.88601 0.0
C835 C 0.58826 0.48697 0.87777 0.0
C836 C 0.57273 0.4938 0.87209 0.0
C837 C 0.57942 0.51642 0.87471 0.0
C838 C 0.60168 0.5323 0.88293 0.0
C839 C 0.73932 0.56593 0.87268 0.0
C840 C 0.739 0.56601 0.84535 0.0
C841 C 0.72104 0.56441 0.88696 0.0
C842 C 0.70241 0.56363 0.87416 0.0
C843 C 0.70219 0.56383 0.84677 0.0
C844 C 0.72023 0.56483 0.83252 0.0
C845 C 0.68292 0.56205 0.88933 0.0
C846 C 0.6601 0.54527 0.88334 0.0
C847 C 0.68667 0.57657 0.90995 0.0
C848 C 0.71005 0.59608 0.91575 0.0
C849 C 0.72364 0.6126 0.89614 0.0
C850 C 0.7457 0.63088 0.90164 0.0
C851 C 0.75431 0.63291 0.92675 0.0
C852 C 0.74085 0.61669 0.94642 0.0
C853 C 0.71878 0.59837 0.94101 0.0
H854 H 0.7714 0.64707 0.93097 0.0
H855 H 0.55555 0.48157 0.86557 0.0
H856 H 0.07268 0.55219 0.42702 0.0
H857 H 0.10233 0.58226 0.39744 0.0
H858 H 0.10496 0.63305 0.44581 0.0
H859 H 0.07502 0.60293 0.47502 0.0
H860 H 0.10467 0.6446 0.39648 0.0
H861 H 0.14831 0.61949 0.44468 0.0
H862 H 0.15709 0.59123 0.46148 0.0
H863 H 0.16425 0.5756 0.38321 0.0
H864 H 0.1552 0.60357 0.36594 0.0
H865 H 0.2041 0.74324 0.34945 0.0
H866 H 0.17799 0.7101 0.3773 0.0
H867 H 0.1807 0.66642 0.32178 0.0
H868 H 0.20772 0.7001 0.29384 0.0
H869 H 0.17748 0.64926 0.37155 0.0
H870 H 0.13515 0.67475 0.32312 0.0
H871 H 0.1259 0.7025 0.3057 0.0
H872 H 0.11525 0.71642 0.3835 0.0
H873 H 0.12477 0.68898 0.40141 0.0
C874 C 0.07969 0.5698 0.43132 0.0
C875 C 0.07164 0.5752 0.45345 0.0
C876 C 0.09676 0.58704 0.41447 0.0
C877 C 0.10633 0.61016 0.41937 0.0
C878 C 0.09807 0.61547 0.44145 0.0
C879 C 0.081 0.59825 0.45825 0.0
C880 C 0.12446 0.62884 0.40136 0.0
C881 C 0.12069 0.64569 0.39137 0.0
C882 C 0.14518 0.6301 0.39368 0.0
C883 C 0.15085 0.61346 0.40403 0.0
C884 C 0.15161 0.60992 0.43106 0.0
C885 C 0.15665 0.59397 0.44066 0.0
C886 C 0.16117 0.58158 0.42343 0.0
C887 C 0.16072 0.58519 0.39654 0.0
C888 C 0.15565 0.6011 0.38683 0.0
C889 C 0.19957 0.72663 0.34332 0.0
C890 C 0.20806 0.72441 0.31933 0.0
C891 C 0.18439 0.70757 0.35924 0.0
C892 C 0.17665 0.68549 0.3515 0.0
C893 C 0.18616 0.68318 0.32824 0.0
C894 C 0.20174 0.70246 0.3123 0.0
C895 C 0.15783 0.66523 0.36719 0.0
C896 C 0.16142 0.64809 0.37664 0.0
C897 C 0.13681 0.66357 0.3743 0.0
C898 C 0.13085 0.67993 0.36361 0.0
C899 C 0.13097 0.68383 0.33652 0.0
C900 C 0.12567 0.69949 0.32656 0.0
C901 C 0.12003 0.71125 0.34349 0.0
C902 C 0.11963 0.70731 0.37041 0.0
C903 C 0.12496 0.69169 0.38048 0.0
H904 H 0.11593 0.72337 0.33574 0.0
H905 H 0.16506 0.56924 0.4309 0.0
H906 H 0.44981 0.062 0.96752 0.0
H907 H 0.43916 0.08295 0.93761 0.0
H908 H 0.45584 0.05664 0.87203 0.0
H909 H 0.46738 0.03635 0.90178 0.0
H910 H 0.47474 0.10096 0.86537 0.0
H911 H 0.39946 0.03806 0.8877 0.0
H912 H 0.36726 0.00997 0.91663 0.0
H913 H 0.3641 0.06351 0.95164 0.0
H914 H 0.39652 0.09197 0.92318 0.0
H915 H 0.43792 0.15797 0.78036 0.0
H916 H 0.43683 0.12536 0.80171 0.0
H917 H 0.42714 0.14597 0.87639 0.0
H918 H 0.42841 0.17854 0.85546 0.0
H919 H 0.40146 0.09972 0.87282 0.0
H920 H 0.48002 0.16241 0.85367 0.0
H921 H 0.51182 0.19034 0.82419 0.0
H922 H 0.5087 0.13623 0.78277 0.0
H923 H 0.47636 0.10793 0.81154 0.0
C924 C 0.45118 0.06064 0.94674 0.0
C925 C 0.45943 0.04748 0.93706 0.0
C926 C 0.44485 0.07243 0.92965 0.0
C927 C 0.44645 0.07115 0.90256 0.0
C928 C 0.45435 0.05777 0.89285 0.0
C929 C 0.46074 0.04602 0.90991 0.0
C930 C 0.44118 0.08488 0.88448 0.0
C931 C 0.4585 0.10032 0.8666 0.0
C932 C 0.42011 0.08423 0.88628 0.0
C933 C 0.40054 0.06717 0.9034 0.0
C934 C 0.39201 0.04387 0.90169 0.0
C935 C 0.3737 0.02787 0.91799 0.0
C936 C 0.36367 0.03495 0.93599 0.0
C937 C 0.3719 0.05805 0.93769 0.0
C938 C 0.39022 0.07412 0.92146 0.0
C939 C 0.43538 0.15548 0.8013 0.0
C940 C 0.43358 0.17113 0.81619 0.0
C941 C 0.43466 0.13677 0.81343 0.0
C942 C 0.43224 0.13346 0.84064 0.0
C943 C 0.42899 0.1482 0.85535 0.0
C944 C 0.42969 0.16686 0.84328 0.0
C945 C 0.43518 0.11603 0.85423 0.0
C946 C 0.41747 0.09997 0.87127 0.0
C947 C 0.45587 0.11604 0.8516 0.0
C948 C 0.47554 0.13305 0.83453 0.0
C949 C 0.48594 0.15645 0.83811 0.0
C950 C 0.50405 0.17235 0.82151 0.0
C951 C 0.51216 0.16505 0.8015 0.0
C952 C 0.50226 0.14184 0.79815 0.0
C953 C 0.48403 0.12586 0.81458 0.0
H954 H 0.52619 0.17737 0.78868 0.0
H955 H 0.34949 0.02254 0.94859 0.0
H956 H 0.45894 0.51278 0.39732 0.0
H957 H 0.43095 0.51245 0.36774 0.0
H958 H 0.38883 0.50788 0.43321 0.0
H959 H 0.41561 0.50604 0.46294 0.0
H960 H 0.36118 0.48304 0.40009 0.0
H961 H 0.42618 0.55921 0.39141 0.0
H962 H 0.467 0.5898 0.38354 0.0
H963 H 0.46463 0.5677 0.30596 0.0
H964 H 0.42391 0.53673 0.31349 0.0
H965 H 0.28937 0.50697 0.32067 0.0
H966 H 0.32018 0.5147 0.35157 0.0
H967 H 0.35489 0.49966 0.29298 0.0
H968 H 0.32399 0.49145 0.2625 0.0
H969 H 0.38617 0.5371 0.3236 0.0
H970 H 0.32123 0.45944 0.33509 0.0
H971 H 0.28009 0.43009 0.34362 0.0
H972 H 0.28258 0.45792 0.41776 0.0
H973 H 0.32368 0.48767 0.40947 0.0
C974 C 0.44361 0.51132 0.40566 0.0
C975 C 0.43996 0.50948 0.43296 0.0
C976 C 0.42766 0.5116 0.38851 0.0
C977 C 0.40776 0.51072 0.39793 0.0
C978 C 0.40398 0.50876 0.42512 0.0
C979 C 0.41967 0.50803 0.44228 0.0
C980 C 0.39064 0.51123 0.37961 0.0
C981 C 0.3668 0.49523 0.38371 0.0
C982 C 0.39755 0.52682 0.35776 0.0
C983 C 0.42202 0.54551 0.35311 0.0
C984 C 0.4344 0.56077 0.37273 0.0
C985 C 0.45752 0.57819 0.36833 0.0
C986 C 0.46841 0.58066 0.34429 0.0
C987 C 0.45618 0.56574 0.32458 0.0
C988 C 0.43308 0.54826 0.32891 0.0
C989 C 0.30399 0.50609 0.31416 0.0
C990 C 0.30443 0.49896 0.28898 0.0
C991 C 0.32149 0.51027 0.33192 0.0
C992 C 0.33993 0.50767 0.32475 0.0
C993 C 0.34102 0.5019 0.29908 0.0
C994 C 0.32336 0.4973 0.28159 0.0
C995 C 0.35702 0.50903 0.34429 0.0
C996 C 0.38075 0.52523 0.34028 0.0
C997 C 0.35005 0.49391 0.36644 0.0
C998 C 0.32544 0.47592 0.37153 0.0
C999 C 0.31295 0.45941 0.35312 0.0
C1000 C 0.28965 0.44268 0.35792 0.0
C1001 C 0.27871 0.44218 0.38118 0.0
C1002 C 0.29107 0.45836 0.39973 0.0
C1003 C 0.31436 0.47515 0.39499 0.0
H1004 H 0.26066 0.42922 0.38486 0.0
H1005 H 0.48629 0.59416 0.34089 0.0
H1006 H 0.97881 0.43677 0.91503 0.0
H1007 H 0.9547 0.40626 0.88599 0.0
H1008 H 0.92857 0.35788 0.95141 0.0
H1009 H 0.95312 0.38835 0.98069 0.0
H1010 H 0.93746 0.34122 0.9069 0.0
H1011 H 0.89739 0.37819 0.93019 0.0
H1012 H 0.89323 0.41103 0.93523 0.0
H1013 H 0.90408 0.42635 0.8528 0.0
H1014 H 0.90868 0.3938 0.84732 0.0
H1015 H 0.83436 0.2538 0.85062 0.0
H1016 H 0.86365 0.28294 0.87788 0.0
H1017 H 0.8844 0.33276 0.81435 0.0
H1018 H 0.85498 0.30366 0.78704 0.0
H1019 H 0.87908 0.34884 0.85773 0.0
H1020 H 0.91848 0.31179 0.8338 0.0
H1021 H 0.92336 0.27944 0.82834 0.0
H1022 H 0.91441 0.26458 0.91093 0.0
H1023 H 0.90916 0.29667 0.91684 0.0
C1024 C 0.96836 0.41957 0.92322 0.0
C1025 C 0.96786 0.415 0.95021 0.0
C1026 C 0.95443 0.40219 0.9066 0.0
C1027 C 0.93963 0.37988 0.91661 0.0
C1028 C 0.93982 0.37502 0.94334 0.0
C1029 C 0.95372 0.39245 0.96004 0.0
C1030 C 0.92314 0.36196 0.89933 0.0
C1031 C 0.9245 0.34271 0.89635 0.0
C1032 C 0.9066 0.36422 0.88516 0.0
C1033 C 0.90362 0.38369 0.88838 0.0
C1034 C 0.89908 0.38867 0.91316 0.0
C1035 C 0.89661 0.40722 0.9161 0.0
C1036 C 0.89845 0.42081 0.89436 0.0
C1037 C 0.90269 0.41583 0.86963 0.0
C1038 C 0.90522 0.39733 0.86659 0.0
C1039 C 0.84541 0.27086 0.8423 0.0
C1040 C 0.84232 0.27641 0.81666 0.0
C1041 C 0.86216 0.28753 0.85793 0.0
C1042 C 0.87639 0.31003 0.84812 0.0
C1043 C 0.87359 0.31554 0.82238 0.0
C1044 C 0.85674 0.2989 0.8068 0.0
C1045 C 0.8934 0.32802 0.86509 0.0
C1046 C 0.89208 0.34731 0.86812 0.0
C1047 C 0.91001 0.3258 0.87921 0.0
C1048 C 0.91321 0.30651 0.87573 0.0
C1049 C 0.91737 0.30152 0.85077 0.0
C1050 C 0.92024 0.28324 0.8476 0.0
C1051 C 0.91914 0.26992 0.86927 0.0
C1052 C 0.91523 0.27489 0.89416 0.0
C1053 C 0.91233 0.29314 0.89744 0.0
H1054 H 0.92137 0.25579 0.86677 0.0
H1055 H 0.89654 0.43516 0.89667 0.0
H1056 H 0.97397 0.52937 0.91661 0.0
H1057 H 0.94483 0.53 0.89137 0.0
H1058 H 0.90113 0.51038 0.95987 0.0
H1059 H 0.93029 0.50904 0.98515 0.0
H1060 H 0.87542 0.48462 0.92019 0.0
H1061 H 0.92879 0.56387 0.93141 0.0
H1062 H 0.96668 0.59996 0.92972 0.0
H1063 H 0.97054 0.59674 0.84667 0.0
H1064 H 0.93279 0.56044 0.8479 0.0
H1065 H 0.79253 0.50821 0.8706 0.0
H1066 H 0.82293 0.50718 0.89442 0.0
H1067 H 0.86418 0.52585 0.82364 0.0
H1068 H 0.8337 0.52718 0.79957 0.0
H1069 H 0.8907 0.55044 0.86305 0.0
H1070 H 0.83711 0.47125 0.85191 0.0
H1071 H 0.79919 0.43519 0.85375 0.0
H1072 H 0.79577 0.43839 0.93685 0.0
H1073 H 0.83355 0.47464 0.93547 0.0
C1074 C 0.95753 0.52265 0.92624 0.0
C1075 C 0.95293 0.51349 0.95227 0.0
C1076 C 0.94098 0.52437 0.91169 0.0
C1077 C 0.91977 0.51878 0.92307 0.0
C1078 C 0.91652 0.51322 0.94991 0.0
C1079 C 0.93316 0.51154 0.96434 0.0
C1080 C 0.90115 0.51883 0.90722 0.0
C1081 C 0.87876 0.49919 0.90801 0.0
C1082 C 0.90538 0.53749 0.8906 0.0
C1083 C 0.92807 0.55931 0.88979 0.0
C1084 C 0.9378 0.57076 0.91281 0.0
C1085 C 0.95924 0.59127 0.91193 0.0
C1086 C 0.97104 0.60061 0.88812 0.0
C1087 C 0.96139 0.58947 0.86511 0.0
C1088 C 0.93997 0.56894 0.86589 0.0
C1089 C 0.8079 0.51184 0.8599 0.0
C1090 C 0.81043 0.51763 0.83298 0.0
C1091 C 0.82537 0.51119 0.87364 0.0
C1092 C 0.84599 0.51625 0.86098 0.0
C1093 C 0.84852 0.52184 0.83401 0.0
C1094 C 0.83094 0.5224 0.82017 0.0
C1095 C 0.86498 0.51625 0.8761 0.0
C1096 C 0.8874 0.53587 0.87519 0.0
C1097 C 0.86079 0.49757 0.89264 0.0
C1098 C 0.83807 0.47578 0.89355 0.0
C1099 C 0.82819 0.46436 0.87055 0.0
C1100 C 0.80673 0.44387 0.87152 0.0
C1101 C 0.79505 0.43454 0.89539 0.0
C1102 C 0.80483 0.44566 0.91837 0.0
C1103 C 0.82628 0.46616 0.91751 0.0
H1104 H 0.77844 0.41867 0.8961 0.0
H1105 H 0.98763 0.61649 0.88747 0.0
H1106 H 0.40767 0.97256 0.47899 0.0
H1107 H 0.37867 0.94609 0.44884 0.0
H1108 H 0.42976 0.93542 0.41432 0.0
H1109 H 0.45872 0.96188 0.44456 0.0
H1110 H 0.40358 0.94103 0.37746 0.0
H1111 H 0.39086 0.89644 0.45597 0.0
H1112 H 0.38429 0.88767 0.50327 0.0
H1113 H 0.32042 0.88589 0.49911 0.0
H1114 H 0.32682 0.89509 0.45182 0.0
H1115 H 0.32209 0.84412 0.30825 0.0
H1116 H 0.35301 0.87021 0.33634 0.0
H1117 H 0.30417 0.87845 0.38031 0.0
H1118 H 0.27299 0.85154 0.3533 0.0
H1119 H 0.33072 0.87329 0.41231 0.0
H1120 H 0.34425 0.91961 0.33414 0.0
H1121 H 0.35203 0.93072 0.28735 0.0
H1122 H 0.41462 0.93004 0.29091 0.0
H1123 H 0.40707 0.91867 0.33767 0.0
C1124 C 0.41257 0.96446 0.46496 0.0
C1125 C 0.43516 0.96887 0.46414 0.0
C1126 C 0.39609 0.9494 0.4478 0.0
C1127 C 0.40201 0.93859 0.42955 0.0
C1128 C 0.42483 0.94354 0.42828 0.0
C1129 C 0.44128 0.95854 0.44552 0.0
C1130 C 0.38426 0.9219 0.41206 0.0
C1131 C 0.38777 0.92603 0.38501 0.0
C1132 C 0.36352 0.90256 0.422 0.0
C1133 C 0.35942 0.89665 0.45037 0.0
C1134 C 0.37549 0.89434 0.46516 0.0
C1135 C 0.3718 0.88928 0.49198 0.0
C1136 C 0.35197 0.88627 0.5042 0.0
C1137 C 0.33578 0.88825 0.48962 0.0
C1138 C 0.33942 0.89338 0.4628 0.0
C1139 C 0.3178 0.85127 0.324 0.0
C1140 C 0.29487 0.84557 0.32837 0.0
C1141 C 0.33563 0.86647 0.3399 0.0
C1142 C 0.33102 0.87657 0.36029 0.0
C1143 C 0.30821 0.87095 0.36468 0.0
C1144 C 0.29036 0.85565 0.34896 0.0
C1145 C 0.34975 0.89257 0.37754 0.0
C1146 C 0.3465 0.88825 0.40464 0.0
C1147 C 0.37072 0.91176 0.36761 0.0
C1148 C 0.37497 0.91806 0.33935 0.0
C1149 C 0.35954 0.9216 0.32489 0.0
C1150 C 0.36395 0.928 0.29838 0.0
C1151 C 0.38381 0.93109 0.28617 0.0
C1152 C 0.39925 0.92766 0.3004 0.0
C1153 C 0.39492 0.92124 0.3269 0.0
H1154 H 0.38729 0.93621 0.26571 0.0
H1155 H 0.34914 0.88235 0.52496 0.0
H1156 H 0.52504 0.4637 0.90231 0.0
H1157 H 0.52501 0.43659 0.87319 0.0
H1158 H 0.49534 0.38467 0.9349 0.0
H1159 H 0.49555 0.41181 0.96421 0.0
H1160 H 0.52695 0.38133 0.90936 0.0
H1161 H 0.46254 0.38689 0.88306 0.0
H1162 H 0.44282 0.40654 0.86877 0.0
H1163 H 0.48682 0.4335 0.80025 0.0
H1164 H 0.50701 0.41424 0.81431 0.0
H1165 H 0.49121 0.28746 0.82583 0.0
H1166 H 0.49426 0.31449 0.85748 0.0
H1167 H 0.52225 0.3677 0.79717 0.0
H1168 H 0.51874 0.34074 0.76549 0.0
H1169 H 0.49094 0.36976 0.82285 0.0
H1170 H 0.55543 0.36408 0.84923 0.0
H1171 H 0.57506 0.34437 0.86367 0.0
H1172 H 0.5308 0.3174 0.93199 0.0
H1173 H 0.51071 0.33673 0.91779 0.0
C1174 C 0.51834 0.44648 0.9097 0.0
C1175 C 0.51015 0.44007 0.93572 0.0
C1176 C 0.51833 0.4309 0.89295 0.0
C1177 C 0.50981 0.40827 0.90152 0.0
C1178 C 0.50201 0.40192 0.92762 0.0
C1179 C 0.50217 0.41756 0.94445 0.0
C1180 C 0.50883 0.39126 0.88327 0.0
C1181 C 0.5188 0.37862 0.89059 0.0
C1182 C 0.49862 0.3878 0.85843 0.0
C1183 C 0.48642 0.39929 0.84986 0.0
C1184 C 0.46811 0.39713 0.86503 0.0
C1185 C 0.45683 0.40818 0.85696 0.0
C1186 C 0.4636 0.42131 0.83365 0.0
C1187 C 0.48161 0.42335 0.81832 0.0
C1188 C 0.49297 0.41236 0.82631 0.0
C1189 C 0.49843 0.30501 0.8194 0.0
C1190 C 0.5048 0.31182 0.79299 0.0
C1191 C 0.50017 0.32055 0.83759 0.0
C1192 C 0.50862 0.3434 0.82998 0.0
C1193 C 0.51557 0.35027 0.80375 0.0
C1194 C 0.51368 0.33477 0.78559 0.0
C1195 C 0.50929 0.35995 0.84877 0.0
C1196 C 0.49916 0.37246 0.84159 0.0
C1197 C 0.51934 0.36325 0.87371 0.0
C1198 C 0.53142 0.35166 0.88231 0.0
C1199 C 0.54977 0.35381 0.86723 0.0
C1200 C 0.561 0.34273 0.87539 0.0
C1201 C 0.55414 0.32959 0.8987 0.0
C1202 C 0.53608 0.32756 0.91393 0.0
C1203 C 0.52478 0.33858 0.90584 0.0
H1204 H 0.56285 0.32103 0.90498 0.0
H1205 H 0.45485 0.42985 0.82744 0.0
H1206 H 0.0467 0.47903 0.41139 0.0
H1207 H 0.06926 0.46976 0.38342 0.0
H1208 H 0.08364 0.43969 0.44985 0.0
H1209 H 0.06122 0.44918 0.47804 0.0
H1210 H 0.12202 0.46761 0.42309 0.0
H1211 H 0.0464 0.40699 0.4013 0.0
H1212 H 0.00598 0.38947 0.38749 0.0
H1213 H 0.02929 0.42743 0.31433 0.0
H1214 H 0.06985 0.44544 0.32784 0.0
H1215 H 0.17879 0.42751 0.347 0.0
H1216 H 0.14969 0.42716 0.37528 0.0
H1217 H 0.13536 0.46218 0.31446 0.0
H1218 H 0.16403 0.46211 0.28588 0.0
H1219 H 0.09572 0.42872 0.33955 0.0
H1220 H 0.17053 0.49145 0.36268 0.0
H1221 H 0.2111 0.50962 0.37619 0.0
H1222 H 0.18904 0.46786 0.44679 0.0
H1223 H 0.14834 0.44921 0.43351 0.0
C1224 C 0.05426 0.47002 0.41996 0.0
C1225 C 0.05213 0.46478 0.44691 0.0
C1226 C 0.06716 0.46472 0.40394 0.0
C1227 C 0.07796 0.4538 0.41446 0.0
C1228 C 0.07546 0.44812 0.44129 0.0
C1229 C 0.06268 0.45356 0.45737 0.0
C1230 C 0.09308 0.44969 0.39776 0.0
C1231 C 0.1161 0.45867 0.4051 0.0
C1232 C 0.08556 0.43857 0.37392 0.0
C1233 C 0.06117 0.4277 0.36568 0.0
C1234 C 0.0429 0.41173 0.38234 0.0
C1235 C 0.01996 0.40169 0.37456 0.0
C1236 C 0.01506 0.40737 0.35007 0.0
C1237 C 0.03311 0.42306 0.3333 0.0
C1238 C 0.05608 0.43317 0.341 0.0
C1239 C 0.16919 0.43481 0.3395 0.0
C1240 C 0.17388 0.44503 0.31428 0.0
C1241 C 0.15269 0.43475 0.35575 0.0
C1242 C 0.1406 0.44492 0.34708 0.0
C1243 C 0.14458 0.45433 0.32158 0.0
C1244 C 0.16112 0.45447 0.30536 0.0
C1245 C 0.12455 0.44666 0.36493 0.0
C1246 C 0.10146 0.43735 0.35774 0.0
C1247 C 0.13197 0.4575 0.3889 0.0
C1248 C 0.15642 0.46875 0.39696 0.0
C1249 C 0.17435 0.48601 0.38098 0.0
C1250 C 0.19736 0.49642 0.38861 0.0
C1251 C 0.20265 0.48985 0.4123 0.0
C1252 C 0.18492 0.4729 0.42843 0.0
C1253 C 0.16188 0.46241 0.42087 0.0
H1254 H 0.22048 0.49793 0.41818 0.0
H1255 H 0.99729 0.39958 0.34408 0.0
H1256 H 0.5917 0.05058 0.93616 0.0
H1257 H 0.62143 0.08065 0.90677 0.0
H1258 H 0.58658 0.11731 0.91053 0.0
H1259 H 0.55647 0.0868 0.93924 0.0
H1260 H 0.60195 0.12162 0.86282 0.0
H1261 H 0.63635 0.13172 0.94633 0.0
H1262 H 0.64838 0.12034 0.98629 0.0
H1263 H 0.69149 0.10584 0.94061 0.0
H1264 H 0.67944 0.11683 0.90032 0.0
H1265 H 0.73086 0.22714 0.84729 0.0
H1266 H 0.69777 0.19744 0.87301 0.0
H1267 H 0.66851 0.16001 0.80363 0.0
H1268 H 0.70143 0.19018 0.77762 0.0
H1269 H 0.68464 0.15656 0.88449 0.0
H1270 H 0.60991 0.12321 0.81135 0.0
H1271 H 0.59727 0.13759 0.77456 0.0
H1272 H 0.6345 0.20449 0.80467 0.0
H1273 H 0.64711 0.19045 0.84179 0.0
C1274 C 0.59031 0.06497 0.93049 0.0
C1275 C 0.57173 0.0663 0.94002 0.0
C1276 C 0.60743 0.08229 0.91381 0.0
C1277 C 0.60665 0.10164 0.90651 0.0
C1278 C 0.58778 0.10271 0.91569 0.0
C1279 C 0.57058 0.0853 0.93224 0.0
C1280 C 0.62569 0.12093 0.88992 0.0
C1281 C 0.62003 0.12917 0.86756 0.0
C1282 C 0.64942 0.13135 0.89611 0.0
C1283 C 0.65683 0.12489 0.9203 0.0
C1284 C 0.64828 0.12597 0.94479 0.0
C1285 C 0.65511 0.1196 0.9675 0.0
C1286 C 0.67065 0.11232 0.96599 0.0
C1287 C 0.67943 0.11145 0.94175 0.0
C1288 C 0.67262 0.11776 0.91898 0.0
C1289 C 0.7172 0.21281 0.83734 0.0
C1290 C 0.71889 0.21127 0.81023 0.0
C1291 C 0.69825 0.19564 0.85219 0.0
C1292 C 0.68034 0.17621 0.84053 0.0
C1293 C 0.68172 0.17484 0.8133 0.0
C1294 C 0.70063 0.1922 0.79833 0.0
C1295 C 0.66099 0.1572 0.85716 0.0
C1296 C 0.66659 0.14897 0.87959 0.0
C1297 C 0.63721 0.14721 0.85136 0.0
C1298 C 0.62966 0.15581 0.82918 0.0
C1299 C 0.61534 0.14097 0.81015 0.0
C1300 C 0.60819 0.14907 0.78923 0.0
C1301 C 0.61514 0.17196 0.78723 0.0
C1302 C 0.6292 0.18678 0.80619 0.0
C1303 C 0.63639 0.17877 0.82714 0.0
H1304 H 0.60959 0.17819 0.77103 0.0
H1305 H 0.67592 0.1074 0.98359 0.0
H1306 H 0.51482 0.56512 0.45034 0.0
H1307 H 0.51886 0.59685 0.4231 0.0
H1308 H 0.58016 0.64367 0.46449 0.0
H1309 H 0.5759 0.61183 0.49191 0.0
H1310 H 0.55085 0.6594 0.45644 0.0
H1311 H 0.58452 0.62617 0.40578 0.0
H1312 H 0.58391 0.59439 0.38505 0.0
H1313 H 0.52711 0.58364 0.33801 0.0
H1314 H 0.52714 0.61512 0.3588 0.0
H1315 H 0.59124 0.75404 0.36868 0.0
H1316 H 0.5881 0.72329 0.39617 0.0
H1317 H 0.53292 0.67424 0.3491 0.0
H1318 H 0.53685 0.70467 0.32051 0.0
H1319 H 0.5595 0.65963 0.36046 0.0
H1320 H 0.52313 0.68963 0.41018 0.0
H1321 H 0.51987 0.71912 0.43143 0.0
H1322 H 0.57695 0.73366 0.48017 0.0
H1323 H 0.58076 0.70445 0.45895 0.0
C1324 C 0.52905 0.58226 0.45358 0.0
C1325 C 0.54508 0.58629 0.47302 0.0
C1326 C 0.53139 0.60029 0.43806 0.0
C1327 C 0.54996 0.62256 0.44161 0.0
C1328 C 0.56574 0.62661 0.46145 0.0
C1329 C 0.56336 0.60854 0.47701 0.0
C1330 C 0.55315 0.64157 0.42432 0.0
C1331 C 0.55308 0.65966 0.43548 0.0
C1332 C 0.55532 0.64147 0.39692 0.0
C1333 C 0.5557 0.62288 0.384 0.0
C1334 C 0.57182 0.61695 0.39112 0.0
C1335 C 0.57158 0.59899 0.37935 0.0
C1336 C 0.55547 0.58698 0.36025 0.0
C1337 C 0.53958 0.59294 0.35282 0.0
C1338 C 0.5397 0.61085 0.36458 0.0
C1339 C 0.57857 0.73679 0.36386 0.0
C1340 C 0.56417 0.73212 0.34228 0.0
C1341 C 0.57662 0.71915 0.37988 0.0
C1342 C 0.55994 0.69642 0.37506 0.0
C1343 C 0.54584 0.69164 0.35335 0.0
C1344 C 0.54797 0.70922 0.3371 0.0
C1345 C 0.55719 0.67759 0.39253 0.0
C1346 C 0.55735 0.65949 0.38141 0.0
C1347 C 0.55465 0.67747 0.41993 0.0
C1348 C 0.55238 0.69502 0.43278 0.0
C1349 C 0.5351 0.69923 0.42529 0.0
C1350 C 0.53313 0.71588 0.43735 0.0
C1351 C 0.54824 0.7283 0.45709 0.0
C1352 C 0.56529 0.72405 0.46485 0.0
C1353 C 0.56735 0.70744 0.45283 0.0
H1354 H 0.54668 0.74118 0.46641 0.0
H1355 H 0.55531 0.57308 0.35117 0.0
H1356 H 0.48884 0.09433 0.55709 0.0
H1357 H 0.48926 0.12232 0.58505 0.0
H1358 H 0.51445 0.09936 0.64833 0.0
H1359 H 0.51372 0.07112 0.62056 0.0
H1360 H 0.48366 0.1061 0.66735 0.0
H1361 H 0.54966 0.15152 0.61048 0.0
H1362 H 0.5706 0.16639 0.56823 0.0
H1363 H 0.52783 0.19267 0.54772 0.0
H1364 H 0.50643 0.17769 0.58973 0.0
H1365 H 0.51637 0.19834 0.74954 0.0
H1366 H 0.51752 0.17188 0.72042 0.0
H1367 H 0.48872 0.19291 0.65921 0.0
H1368 H 0.48785 0.21973 0.68821 0.0
H1369 H 0.52109 0.18726 0.63896 0.0
H1370 H 0.45642 0.14299 0.69795 0.0
H1371 H 0.43606 0.12776 0.74044 0.0
H1372 H 0.47694 0.09872 0.75738 0.0
H1373 H 0.49811 0.11441 0.7154 0.0
C1374 C 0.49466 0.09531 0.57688 0.0
C1375 C 0.50128 0.08031 0.58638 0.0
C1376 C 0.49494 0.11146 0.59296 0.0
C1377 C 0.50222 0.11343 0.61895 0.0
C1378 C 0.5087 0.09836 0.62848 0.0
C1379 C 0.50823 0.08209 0.6125 0.0
C1380 C 0.50282 0.13087 0.63628 0.0
C1381 C 0.49218 0.1239 0.66121 0.0
C1382 C 0.5134 0.15416 0.62835 0.0
C1383 C 0.5263 0.16329 0.60314 0.0
C1384 C 0.54462 0.16034 0.59689 0.0
C1385 C 0.55658 0.16881 0.573 0.0
C1386 C 0.55051 0.18042 0.55528 0.0
C1387 C 0.5325 0.18364 0.56145 0.0
C1388 C 0.52046 0.17518 0.58531 0.0
C1389 C 0.51048 0.19758 0.72981 0.0
C1390 C 0.50199 0.21132 0.72139 0.0
C1391 C 0.51098 0.18221 0.71314 0.0
C1392 C 0.50282 0.1799 0.68754 0.0
C1393 C 0.49506 0.19415 0.6788 0.0
C1394 C 0.49457 0.20956 0.69548 0.0
C1395 C 0.50207 0.1625 0.6701 0.0
C1396 C 0.51263 0.16947 0.64512 0.0
C1397 C 0.49154 0.13922 0.67808 0.0
C1398 C 0.47904 0.1301 0.70357 0.0
C1399 C 0.46129 0.13361 0.71086 0.0
C1400 C 0.44959 0.12489 0.73487 0.0
C1401 C 0.45522 0.1123 0.75159 0.0
C1402 C 0.47262 0.10849 0.74441 0.0
C1403 C 0.48453 0.11737 0.72055 0.0
H1404 H 0.44605 0.1054 0.77008 0.0
H1405 H 0.55978 0.18696 0.53679 0.0
H1406 H 0.45728 0.50681 0.07531 0.0
H1407 H 0.42462 0.50096 0.1022 0.0
H1408 H 0.37787 0.44226 0.05876 0.0
H1409 H 0.41067 0.44824 0.03178 0.0
H1410 H 0.36138 0.47027 0.06579 0.0
H1411 H 0.39306 0.43531 0.1184 0.0
H1412 H 0.42415 0.43363 0.14076 0.0
H1413 H 0.43655 0.48854 0.18816 0.0
H1414 H 0.40579 0.49083 0.16575 0.0
H1415 H 0.26495 0.42959 0.15297 0.0
H1416 H 0.29625 0.4328 0.12608 0.0
H1417 H 0.34627 0.48986 0.16948 0.0
H1418 H 0.31518 0.48625 0.19699 0.0
H1419 H 0.36041 0.46112 0.16216 0.0
H1420 H 0.33054 0.49756 0.1088 0.0
H1421 H 0.3005 0.50067 0.08585 0.0
H1422 H 0.28545 0.44422 0.03974 0.0
H1423 H 0.31522 0.44058 0.06269 0.0
C1424 C 0.43999 0.49264 0.07168 0.0
C1425 C 0.43625 0.47795 0.05164 0.0
C1426 C 0.42141 0.48928 0.08699 0.0
C1427 C 0.39885 0.47107 0.08259 0.0
C1428 C 0.39514 0.45641 0.06244 0.0
C1429 C 0.41377 0.45976 0.04715 0.0
C1430 C 0.37917 0.46747 0.09895 0.0
C1431 C 0.36095 0.4679 0.08683 0.0
C1432 C 0.37895 0.46493 0.12644 0.0
C1433 C 0.39723 0.46336 0.14023 0.0
C1434 C 0.40252 0.44714 0.13346 0.0
C1435 C 0.42008 0.44606 0.14616 0.0
C1436 C 0.43235 0.46099 0.16583 0.0
C1437 C 0.42704 0.47699 0.1729 0.0
C1438 C 0.40953 0.47818 0.16022 0.0
C1439 C 0.2826 0.44272 0.15691 0.0
C1440 C 0.2875 0.45773 0.17707 0.0
C1441 C 0.30047 0.44466 0.14138 0.0
C1442 C 0.32359 0.46174 0.14559 0.0
C1443 C 0.32855 0.47661 0.16582 0.0
C1444 C 0.31071 0.47467 0.18137 0.0
C1445 C 0.34264 0.46405 0.12902 0.0
C1446 C 0.36075 0.46338 0.14111 0.0
C1447 C 0.34281 0.46648 0.10151 0.0
C1448 C 0.32493 0.46865 0.08766 0.0
C1449 C 0.32069 0.48569 0.09392 0.0
C1450 C 0.30374 0.48757 0.08088 0.0
C1451 C 0.29103 0.47261 0.0614 0.0
C1452 C 0.29529 0.45577 0.05487 0.0
C1453 C 0.31221 0.4538 0.06787 0.0
H1454 H 0.27791 0.47409 0.05132 0.0
H1455 H 0.44594 0.46014 0.17564 0.0
H1456 H 0.94274 0.41709 0.54569 0.0
H1457 H 0.91279 0.38767 0.5755 0.0
H1458 H 0.92208 0.43939 0.62711 0.0
H1459 H 0.95216 0.46876 0.59728 0.0
H1460 H 0.918 0.4041 0.65498 0.0
H1461 H 0.87509 0.41248 0.58638 0.0
H1462 H 0.86438 0.41382 0.5408 0.0
H1463 H 0.84538 0.34471 0.5329 0.0
H1464 H 0.85636 0.34308 0.57833 0.0
H1465 H 0.81733 0.33448 0.73439 0.0
H1466 H 0.84557 0.36392 0.70359 0.0
H1467 H 0.8355 0.31248 0.65116 0.0
H1468 H 0.80689 0.28292 0.68172 0.0
H1469 H 0.8399 0.34771 0.62364 0.0
H1470 H 0.8831 0.33923 0.6917 0.0
H1471 H 0.89385 0.33757 0.7372 0.0
H1472 H 0.91257 0.4065 0.74598 0.0
H1473 H 0.90156 0.40845 0.70064 0.0
C1474 C 0.93828 0.42214 0.56335 0.0
C1475 C 0.94967 0.44526 0.56902 0.0
C1476 C 0.9211 0.40531 0.58041 0.0
C1477 C 0.91476 0.41114 0.60361 0.0
C1478 C 0.92647 0.43427 0.60944 0.0
C1479 C 0.94363 0.4511 0.59235 0.0
C1480 C 0.89601 0.39319 0.62169 0.0
C1481 C 0.90084 0.392 0.64813 0.0
C1482 C 0.87363 0.37688 0.61292 0.0
C1483 C 0.86675 0.37773 0.58569 0.0
C1484 C 0.86878 0.39762 0.57487 0.0
C1485 C 0.86265 0.39843 0.54907 0.0
C1486 C 0.85425 0.37938 0.53395 0.0
C1487 C 0.85191 0.35946 0.54463 0.0
C1488 C 0.85808 0.35858 0.57041 0.0
C1489 C 0.8209 0.32936 0.71622 0.0
C1490 C 0.80972 0.30616 0.71075 0.0
C1491 C 0.83727 0.3463 0.6986 0.0
C1492 C 0.84319 0.34061 0.67505 0.0
C1493 C 0.83146 0.3175 0.66913 0.0
C1494 C 0.81502 0.30053 0.68672 0.0
C1495 C 0.86188 0.35863 0.65695 0.0
C1496 C 0.85705 0.35982 0.6305 0.0
C1497 C 0.88429 0.3749 0.6657 0.0
C1498 C 0.89128 0.37391 0.69284 0.0
C1499 C 0.88937 0.35399 0.70338 0.0
C1500 C 0.89552 0.353 0.72914 0.0
C1501 C 0.90383 0.3719 0.74449 0.0
C1502 C 0.9061 0.39186 0.73408 0.0
C1503 C 0.89991 0.39292 0.70834 0.0
H1504 H 0.90857 0.37109 0.76444 0.0
H1505 H 0.84951 0.38004 0.51397 0.0
H1506 H 0.52567 0.92972 0.04647 0.0
H1507 H 0.53343 0.90582 0.07499 0.0
H1508 H 0.59032 0.96546 0.10829 0.0
H1509 H 0.58293 0.98971 0.07927 0.0
H1510 H 0.59937 0.93047 0.09805 0.0
H1511 H 0.54185 0.93944 0.14082 0.0
H1512 H 0.50544 0.93898 0.14267 0.0
H1513 H 0.46681 0.86791 0.12725 0.0
H1514 H 0.50305 0.86801 0.12493 0.0
H1515 H 0.60634 0.86949 0.20899 0.0
H1516 H 0.60456 0.89682 0.17921 0.0
H1517 H 0.53925 0.84291 0.15105 0.0
H1518 H 0.54077 0.81578 0.18128 0.0
H1519 H 0.53602 0.87745 0.16008 0.0
H1520 H 0.59149 0.8675 0.11489 0.0
H1521 H 0.62706 0.86678 0.10954 0.0
H1522 H 0.66839 0.93751 0.1262 0.0
H1523 H 0.63303 0.93858 0.13199 0.0
C1524 C 0.54016 0.93783 0.05944 0.0
C1525 C 0.55372 0.96162 0.06061 0.0
C1526 C 0.54444 0.92412 0.07587 0.0
C1527 C 0.56226 0.93391 0.09388 0.0
C1528 C 0.57643 0.95765 0.09452 0.0
C1529 C 0.5721 0.97143 0.07809 0.0
C1530 C 0.5652 0.91917 0.11283 0.0
C1531 C 0.58573 0.91911 0.11195 0.0
C1532 C 0.54709 0.90402 0.13041 0.0
C1533 C 0.5252 0.90378 0.13253 0.0
C1534 C 0.52561 0.92373 0.1377 0.0
C1535 C 0.505 0.92354 0.13884 0.0
C1536 C 0.48383 0.90344 0.13503 0.0
C1537 C 0.48323 0.88347 0.13019 0.0
C1538 C 0.5038 0.88358 0.129 0.0
C1539 C 0.59179 0.8635 0.19619 0.0
C1540 C 0.57368 0.84056 0.19741 0.0
C1541 C 0.59077 0.87909 0.17917 0.0
C1542 C 0.57184 0.8719 0.16272 0.0
C1543 C 0.55396 0.84889 0.16364 0.0
C1544 C 0.55483 0.8334 0.18088 0.0
C1545 C 0.57014 0.88837 0.14516 0.0
C1546 C 0.5498 0.88884 0.14634 0.0
C1547 C 0.58832 0.90365 0.12762 0.0
C1548 C 0.6096 0.90306 0.12416 0.0
C1549 C 0.60816 0.88286 0.11763 0.0
C1550 C 0.62828 0.88239 0.11447 0.0
C1551 C 0.64997 0.90207 0.11761 0.0
C1552 C 0.65158 0.92227 0.12383 0.0
C1553 C 0.6315 0.92282 0.12703 0.0
H1554 H 0.66553 0.90168 0.11515 0.0
H1555 H 0.4679 0.90333 0.13588 0.0
H1556 H 0.59478 0.49014 0.5641 0.0
H1557 H 0.62277 0.49004 0.59356 0.0
H1558 H 0.61317 0.53167 0.64591 0.0
H1559 H 0.58623 0.53305 0.61577 0.0
H1560 H 0.65636 0.54615 0.64488 0.0
H1561 H 0.58926 0.47209 0.6573 0.0
H1562 H 0.55656 0.43492 0.64464 0.0
H1563 H 0.60396 0.4185 0.61287 0.0
H1564 H 0.63699 0.45575 0.62496 0.0
H1565 H 0.71291 0.5266 0.75123 0.0
H1566 H 0.68154 0.52394 0.72488 0.0
H1567 H 0.70044 0.49654 0.66252 0.0
H1568 H 0.73201 0.49952 0.68851 0.0
H1569 H 0.65143 0.47422 0.67086 0.0
H1570 H 0.71845 0.55043 0.65866 0.0
H1571 H 0.7499 0.58728 0.67385 0.0
H1572 H 0.69995 0.5987 0.70904 0.0
H1573 H 0.66819 0.56172 0.6944 0.0
C1574 C 0.59875 0.49957 0.58167 0.0
C1575 C 0.58791 0.51157 0.58727 0.0
C1576 C 0.61463 0.4992 0.59884 0.0
C1577 C 0.62 0.51049 0.62247 0.0
C1578 C 0.60941 0.52267 0.62801 0.0
C1579 C 0.59367 0.52322 0.61074 0.0
C1580 C 0.63677 0.50983 0.64115 0.0
C1581 C 0.65494 0.5303 0.65079 0.0
C1582 C 0.63541 0.48931 0.64898 0.0
C1583 C 0.61561 0.46682 0.64182 0.0
C1584 C 0.59272 0.46062 0.64745 0.0
C1585 C 0.57412 0.43953 0.6404 0.0
C1586 C 0.57817 0.42438 0.62791 0.0
C1587 C 0.60085 0.43027 0.62251 0.0
C1588 C 0.61952 0.45137 0.62948 0.0
C1589 C 0.71015 0.51961 0.7321 0.0
C1590 C 0.72506 0.51323 0.72209 0.0
C1591 C 0.69225 0.51824 0.71694 0.0
C1592 C 0.6886 0.51018 0.69151 0.0
C1593 C 0.70279 0.50281 0.682 0.0
C1594 C 0.7209 0.50454 0.69694 0.0
C1595 C 0.67088 0.51047 0.67432 0.0
C1596 C 0.65263 0.48996 0.66497 0.0
C1597 C 0.67191 0.53088 0.66712 0.0
C1598 C 0.69096 0.55321 0.67568 0.0
C1599 C 0.71418 0.56072 0.66982 0.0
C1600 C 0.73206 0.58164 0.6783 0.0
C1601 C 0.72693 0.5953 0.69246 0.0
C1602 C 0.7039 0.58809 0.69811 0.0
C1603 C 0.68595 0.56716 0.68972 0.0
H1604 H 0.74079 0.61149 0.69901 0.0
H1605 H 0.56373 0.40805 0.62247 0.0
H1606 H 0.08849 0.60042 0.04675 0.0
H1607 H 0.11349 0.63119 0.07507 0.0
H1608 H 0.05388 0.62876 0.10779 0.0
H1609 H 0.02861 0.59807 0.07903 0.0
H1610 H 0.09274 0.67354 0.09771 0.0
H1611 H 0.07507 0.60282 0.14033 0.0
H1612 H 0.07233 0.56594 0.14186 0.0
H1613 H 0.14561 0.5999 0.1273 0.0
H1614 H 0.14874 0.63698 0.1253 0.0
H1615 H 0.14949 0.73789 0.20762 0.0
H1616 H 0.1224 0.70838 0.17889 0.0
H1617 H 0.17633 0.69751 0.15455 0.0
H1618 H 0.20311 0.7264 0.18402 0.0
H1619 H 0.13885 0.65875 0.16084 0.0
H1620 H 0.15784 0.72842 0.11607 0.0
H1621 H 0.16229 0.76596 0.11061 0.0
H1622 H 0.08941 0.73544 0.12522 0.0
H1623 H 0.08457 0.69774 0.1311 0.0
C1624 C 0.08068 0.60674 0.05952 0.0
C1625 C 0.05653 0.5968 0.06061 0.0
C1626 C 0.095 0.62419 0.07588 0.0
C1627 C 0.08549 0.63203 0.09373 0.0
C1628 C 0.06151 0.62285 0.09419 0.0
C1629 C 0.04712 0.60527 0.07787 0.0
C1630 C 0.10056 0.64909 0.11265 0.0
C1631 C 0.10258 0.67026 0.11181 0.0
C1632 C 0.11385 0.64492 0.13048 0.0
C1633 C 0.11211 0.62268 0.13248 0.0
C1634 C 0.09059 0.60242 0.13734 0.0
C1635 C 0.08896 0.58148 0.13829 0.0
C1636 C 0.10878 0.58057 0.13462 0.0
C1637 C 0.13028 0.60062 0.13012 0.0
C1638 C 0.13199 0.62161 0.12911 0.0
C1639 C 0.15551 0.72921 0.19605 0.0
C1640 C 0.17839 0.73445 0.19796 0.0
C1641 C 0.14006 0.7124 0.17957 0.0
C1642 C 0.14737 0.70092 0.16414 0.0
C1643 C 0.17022 0.70606 0.16623 0.0
C1644 C 0.18552 0.72256 0.18307 0.0
C1645 C 0.13128 0.68349 0.14591 0.0
C1646 C 0.129 0.66215 0.14687 0.0
C1647 C 0.11805 0.68766 0.12787 0.0
C1648 C 0.12089 0.71029 0.12429 0.0
C1649 C 0.14279 0.72974 0.11831 0.0
C1650 C 0.14538 0.75104 0.1151 0.0
C1651 C 0.12615 0.75309 0.11764 0.0
C1652 C 0.10429 0.73383 0.1233 0.0
C1653 C 0.10161 0.71249 0.12656 0.0
H1654 H 0.12819 0.7696 0.11515 0.0
H1655 H 0.10748 0.56434 0.13532 0.0
loop_
_geom_bond_atom_site_label_1
_geom_bond_atom_site_label_2
_geom_bond_distance
_geom_bond_site_symmetry_2
_ccdc_geom_bond_type
C0 C1 1.444 1_556 S
C0 N4 1.376 1_556 S
C0 C38 1.389 . S
C1 C0 1.444 1_554 S
C1 C2 1.340 . S
C1 H41 0.951 1_554 S
C2 C1 1.340 . S
C2 C3 1.439 . S
C2 H42 0.950 . S
C3 C2 1.439 . S
C3 N4 1.374 . S
C3 C37 1.395 . S
N4 C0 1.376 1_554 S
N4 C3 1.374 . S
N4 Co5 2.008 1_655 S
Co5 N4 2.008 1_455 S
Co5 N6 1.995 . S
Co5 N11 2.012 . S
Co5 N16 1.995 1_554 S
Co5 N21 2.282 . S
Co5 N27 2.282 1_454 S
N6 Co5 1.995 . S
N6 C7 1.376 1_455 S
N6 C10 1.383 . S
C7 N6 1.376 1_655 S
C7 C8 1.446 . S
C7 C37 1.391 . S
C8 C7 1.446 . S
C8 C9 1.339 1_655 S
C8 H43 0.949 . S
C9 C8 1.339 1_455 S
C9 C10 1.439 . S
C9 H44 0.950 . S
C10 N6 1.383 . S
C10 C9 1.439 . S
C10 C39 1.392 . S
N11 Co5 2.012 . S
N11 C12 1.396 . S
N11 C15 1.354 1_554 S
C12 N11 1.396 . S
C12 C13 1.443 . S
C12 C39 1.389 . S
C13 C12 1.443 . S
C13 C14 1.340 1_554 S
C13 H45 0.951 . S
C14 C13 1.340 1_556 S
C14 C15 1.439 . S
C14 H46 0.950 . S
C15 N11 1.354 1_556 S
C15 C14 1.439 . S
C15 C40 1.395 . S
N16 Co5 1.995 1_556 S
N16 C17 1.376 . S
N16 C20 1.383 1_455 S
C17 N16 1.376 . S
C17 C18 1.446 . S
C17 C40 1.391 . S
C18 C17 1.446 . S
C18 C19 1.339 . S
C18 H47 0.949 . S
C19 C18 1.339 . S
C19 C20 1.439 1_455 S
C19 H48 0.949 . S
C20 N16 1.383 1_655 S
C20 C19 1.439 1_655 S
C20 C38 1.392 . S
N21 Co5 2.282 . S
N21 C24 1.332 . S
N21 C26 1.332 . S
C22 C23 1.386 . S
C22 C25 1.388 . S
C23 C22 1.386 . S
C23 C24 1.382 . S
C23 H49 0.950 . S
C24 N21 1.332 . S
C24 C23 1.382 . S
C24 H35 0.952 . S
C25 C22 1.388 . S
C25 C26 1.382 . S
C25 H50 0.950 . S
C26 N21 1.332 . S
C26 C25 1.382 . S
C26 H36 0.948 . S
N27 Co5 2.282 1_656 S
N27 C31 1.332 . S
N27 C32 1.332 . S
C28 C29 1.388 . S
C28 C32 1.382 . S
C28 H51 0.950 . S
C29 C28 1.388 . S
C29 C30 1.386 . S
C30 C29 1.386 . S
C30 C31 1.382 . S
C30 H52 0.950 . S
C31 N27 1.332 . S
C31 C30 1.382 . S
C31 H33 0.952 1_556 S
C32 N27 1.332 . S
C32 C28 1.382 . S
C32 H34 0.948 1_655 S
H33 C31 0.952 1_554 S
H34 C32 0.948 1_455 S
H35 C24 0.952 . S
H36 C26 0.948 . S
C37 C3 1.395 . S
C37 C7 1.391 . S
C38 C0 1.389 . S
C38 C20 1.392 . S
C39 C10 1.392 . S
C39 C12 1.389 . S
C40 C15 1.395 . S
C40 C17 1.391 . S
H41 C1 0.951 1_556 S
H42 C2 0.950 . S
H43 C8 0.949 . S
H44 C9 0.950 . S
H45 C13 0.951 . S
H46 C14 0.950 . S
H47 C18 0.949 . S
H48 C19 0.949 . S
H49 C23 0.950 . S
H50 C25 0.950 . S
H51 C28 0.950 . S
H52 C30 0.950 . S
C53 C54 1.443 . S
C53 N57 1.376 . S
C53 C91 1.389 . S
C54 C53 1.443 . S
C54 C55 1.340 1_545 S
C54 H94 0.951 . S
C55 C54 1.340 1_565 S
C55 C56 1.439 . S
C55 H95 0.950 . S
C56 C55 1.439 . S
C56 N57 1.374 1_565 S
C56 C90 1.395 . S
N57 C53 1.376 . S
N57 C56 1.374 1_545 S
N57 Co58 2.008 . S
Co58 N57 2.008 . S
Co58 N59 1.995 1_545 S
Co58 N64 2.008 . S
Co58 N69 1.995 . S
Co58 N74 2.282 1_545 S
Co58 N80 2.282 . S
N59 Co58 1.995 1_565 S
N59 C60 1.376 . S
N59 C63 1.383 . S
C60 N59 1.376 . S
C60 C61 1.446 . S
C60 C90 1.391 . S
C61 C60 1.446 . S
C61 C62 1.339 . S
C61 H96 0.949 . S
C62 C61 1.339 . S
C62 C63 1.439 . S
C62 H97 0.950 . S
C63 N59 1.383 . S
C63 C62 1.439 . S
C63 C92 1.392 . S
N64 Co58 2.008 . S
N64 C65 1.376 1_545 S
N64 C68 1.374 . S
C65 N64 1.376 1_565 S
C65 C66 1.443 1_565 S
C65 C92 1.389 . S
C66 C65 1.443 1_545 S
C66 C67 1.340 . S
C66 H98 0.951 1_545 S
C67 C66 1.340 . S
C67 C68 1.439 . S
C67 H99 0.950 . S
C68 N64 1.374 . S
C68 C67 1.439 . S
C68 C93 1.395 . S
N69 Co58 1.995 . S
N69 C70 1.376 . S
N69 C73 1.383 . S
C70 N69 1.376 . S
C70 C71 1.446 . S
C70 C93 1.391 . S
C71 C70 1.446 . S
C71 C72 1.339 . S
C71 H100 0.949 . S
C72 C71 1.339 . S
C72 C73 1.439 . S
C72 H101 0.950 . S
C73 N69 1.383 . S
C73 C72 1.439 . S
C73 C91 1.392 . S
N74 Co58 2.282 1_565 S
N74 C77 1.332 . S
N74 C79 1.332 . S
C75 C76 1.386 . S
C75 C78 1.388 . S
C76 C75 1.386 . S
C76 C77 1.382 . S
C76 H102 0.950 . S
C77 N74 1.332 . S
C77 C76 1.382 . S
C77 H88 0.952 1_565 S
C78 C75 1.388 . S
C78 C79 1.382 . S
C78 H103 0.950 . S
C79 N74 1.332 . S
C79 C78 1.382 . S
C79 H89 0.948 . S
N80 Co58 2.282 . S
N80 C84 1.332 . S
N80 C85 1.332 . S
C81 C82 1.388 . S
C81 C85 1.382 . S
C81 H104 0.950 . S
C82 C81 1.388 . S
C82 C83 1.386 . S
C83 C82 1.386 . S
C83 C84 1.382 . S
C83 H105 0.950 . S
C84 N80 1.332 . S
C84 C83 1.382 . S
C84 H86 0.952 . S
C85 N80 1.332 . S
C85 C81 1.382 . S
C85 H87 0.948 . S
H86 C84 0.952 . S
H87 C85 0.948 . S
H88 C77 0.952 1_545 S
H89 C79 0.948 . S
C90 C56 1.395 . S
C90 C60 1.391 . S
C91 C53 1.389 . S
C91 C73 1.392 . S
C92 C63 1.392 . S
C92 C65 1.389 . S
C93 C68 1.395 . S
C93 C70 1.391 . S
H94 C54 0.951 . S
H95 C55 0.950 . S
H96 C61 0.949 . S
H97 C62 0.950 . S
H98 C66 0.951 1_565 S
H99 C67 0.950 . S
H100 C71 0.949 . S
H101 C72 0.950 . S
H102 C76 0.950 . S
H103 C78 0.950 . S
H104 C81 0.950 . S
H105 C83 0.950 . S
C106 C107 1.443 . S
C106 N110 1.376 . S
C106 C144 1.389 . S
C107 C106 1.443 . S
C107 C108 1.340 . S
C107 H147 0.951 . S
C108 C107 1.340 . S
C108 C109 1.439 . S
C108 H148 0.950 . S
C109 C108 1.439 . S
C109 N110 1.374 . S
C109 C143 1.395 . S
N110 C106 1.376 . S
N110 C109 1.374 . S
N110 Co111 2.008 1_556 S
Co111 N110 2.008 1_554 S
Co111 N112 1.995 1_554 S
Co111 N117 2.008 . S
Co111 N122 1.995 . S
Co111 N127 2.282 . S
Co111 N133 2.282 1_554 S
N112 Co111 1.995 1_556 S
N112 C113 1.376 . S
N112 C116 1.383 1_556 S
C113 N112 1.376 . S
C113 C114 1.446 . S
C113 C143 1.391 . S
C114 C113 1.446 . S
C114 C115 1.339 1_556 S
C114 H149 0.949 . S
C115 C114 1.339 1_554 S
C115 C116 1.439 . S
C115 H150 0.950 . S
C116 N112 1.383 1_554 S
C116 C115 1.439 . S
C116 C145 1.392 . S
N117 Co111 2.008 . S
N117 C118 1.376 . S
N117 C121 1.374 . S
C118 N117 1.376 . S
C118 C119 1.443 . S
C118 C145 1.389 . S
C119 C118 1.443 . S
C119 C120 1.340 . S
C119 H151 0.951 . S
C120 C119 1.340 . S
C120 C121 1.439 . S
C120 H152 0.950 . S
C121 N117 1.374 . S
C121 C120 1.439 . S
C121 C146 1.395 . S
N122 Co111 1.995 . S
N122 C123 1.376 . S
N122 C126 1.383 1_554 S
C123 N122 1.376 . S
C123 C124 1.446 . S
C123 C146 1.391 . S
C124 C123 1.446 . S
C124 C125 1.339 . S
C124 H153 0.949 . S
C125 C124 1.339 . S
C125 C126 1.439 1_554 S
C125 H154 0.950 1_554 S
C126 N122 1.383 1_556 S
C126 C125 1.439 1_556 S
C126 C144 1.392 . S
N127 Co111 2.282 . S
N127 C130 1.332 . S
N127 C132 1.332 . S
C128 C129 1.386 . S
C128 C131 1.388 . S
C129 C128 1.386 . S
C129 C130 1.382 . S
C129 H155 0.950 . S
C130 N127 1.332 . S
C130 C129 1.382 . S
C130 H141 0.952 . S
C131 C128 1.388 . S
C131 C132 1.382 . S
C131 H156 0.950 . S
C132 N127 1.332 . S
C132 C131 1.382 . S
C132 H142 0.948 . S
N133 Co111 2.282 1_556 S
N133 C137 1.332 . S
N133 C138 1.332 . S
C134 C135 1.388 . S
C134 C138 1.382 . S
C134 H157 0.950 . S
C135 C134 1.388 . S
C135 C136 1.386 . S
C136 C135 1.386 . S
C136 C137 1.382 . S
C136 H158 0.950 . S
C137 N133 1.332 . S
C137 C136 1.382 . S
C137 H139 0.952 . S
C138 N133 1.332 . S
C138 C134 1.382 . S
C138 H140 0.948 1_556 S
H139 C137 0.952 . S
H140 C138 0.948 1_554 S
H141 C130 0.952 . S
H142 C132 0.948 . S
C143 C109 1.395 . S
C143 C113 1.391 . S
C144 C106 1.389 . S
C144 C126 1.392 . S
C145 C116 1.392 . S
C145 C118 1.389 . S
C146 C121 1.395 . S
C146 C123 1.391 . S
H147 C107 0.951 . S
H148 C108 0.950 . S
H149 C114 0.949 . S
H150 C115 0.950 . S
H151 C119 0.951 . S
H152 C120 0.950 . S
H153 C124 0.949 . S
H154 C125 0.950 1_556 S
H155 C129 0.950 . S
H156 C131 0.950 . S
H157 C134 0.950 . S
H158 C136 0.950 . S
C159 C160 1.443 . S
C159 N163 1.376 . S
C159 C197 1.389 . S
C160 C159 1.443 . S
C160 C161 1.340 . S
C160 H200 0.951 . S
C161 C160 1.340 . S
C161 C162 1.439 . S
C161 H201 0.950 . S
C162 C161 1.439 . S
C162 N163 1.374 . S
C162 C196 1.395 . S
N163 C159 1.376 . S
N163 C162 1.374 . S
N163 Co164 2.008 1_655 S
Co164 N163 2.008 1_455 S
Co164 N165 1.995 1_455 S
Co164 N170 2.008 . S
Co164 N175 1.995 . S
Co164 N180 2.282 . S
Co164 N186 2.282 1_455 S
N165 Co164 1.995 1_655 S
N165 C166 1.376 . S
N165 C169 1.383 1_655 S
C166 N165 1.376 . S
C166 C167 1.446 . S
C166 C196 1.391 . S
C167 C166 1.446 . S
C167 C168 1.339 1_655 S
C167 H202 0.949 . S
C168 C167 1.339 1_455 S
C168 C169 1.439 . S
C168 H203 0.950 . S
C169 N165 1.383 1_455 S
C169 C168 1.439 . S
C169 C198 1.392 . S
N170 Co164 2.008 . S
N170 C171 1.376 . S
N170 C174 1.374 . S
C171 N170 1.376 . S
C171 C172 1.443 . S
C171 C198 1.389 . S
C172 C171 1.443 . S
C172 C173 1.340 . S
C172 H204 0.951 . S
C173 C172 1.340 . S
C173 C174 1.439 . S
C173 H205 0.950 . S
C174 N170 1.374 . S
C174 C173 1.439 . S
C174 C199 1.395 . S
N175 Co164 1.995 . S
N175 C176 1.376 . S
N175 C179 1.383 1_455 S
C176 N175 1.376 . S
C176 C177 1.446 . S
C176 C199 1.391 . S
C177 C176 1.446 . S
C177 C178 1.307 1_455 S
C177 H206 0.949 . S
C178 C177 1.307 1_655 S
C178 C179 1.465 . S
C178 H207 0.956 . S
C179 N175 1.383 1_655 S
C179 C178 1.465 . S
C179 C197 1.392 . S
N180 Co164 2.282 . S
N180 C183 1.332 . S
N180 C185 1.332 . S
C181 C182 1.386 . S
C181 C184 1.388 . S
C182 C181 1.386 . S
C182 C183 1.382 . S
C182 H208 0.950 . S
C183 N180 1.332 . S
C183 C182 1.382 . S
C183 H194 0.952 . S
C184 C181 1.388 . S
C184 C185 1.382 . S
C184 H209 0.950 . S
C185 N180 1.332 . S
C185 C184 1.382 . S
C185 H195 0.948 . S
N186 Co164 2.282 1_655 S
N186 C190 1.332 . S
N186 C191 1.332 . S
C187 C188 1.388 . S
C187 C191 1.382 . S
C187 H210 0.950 . S
C188 C187 1.388 . S
C188 C189 1.386 . S
C189 C188 1.386 . S
C189 C190 1.382 . S
C189 H211 0.950 . S
C190 N186 1.332 . S
C190 C189 1.382 . S
C190 H192 0.952 . S
C191 N186 1.332 . S
C191 C187 1.382 . S
C191 H193 0.948 1_655 S
H192 C190 0.952 . S
H193 C191 0.948 1_455 S
H194 C183 0.952 . S
H195 C185 0.948 . S
C196 C162 1.395 . S
C196 C166 1.391 . S
C197 C159 1.389 . S
C197 C179 1.392 . S
C198 C169 1.392 . S
C198 C171 1.389 . S
C199 C174 1.395 . S
C199 C176 1.391 . S
H200 C160 0.951 . S
H201 C161 0.950 . S
H202 C167 0.949 . S
H203 C168 0.950 . S
H204 C172 0.951 . S
H205 C173 0.950 . S
H206 C177 0.949 . S
H207 C178 0.956 . S
H208 C182 0.950 . S
H209 C184 0.950 . S
H210 C187 0.950 . S
H211 C189 0.950 . S
C212 C213 1.443 . S
C212 N216 1.376 1_565 S
C212 C250 1.389 . S
C213 C212 1.443 . S
C213 C214 1.340 1_565 S
C213 H253 0.951 . S
C214 C213 1.340 1_545 S
C214 C215 1.439 . S
C214 H254 0.950 . S
C215 C214 1.439 . S
C215 N216 1.374 . S
C215 C249 1.395 . S
N216 C212 1.376 1_545 S
N216 C215 1.374 . S
N216 Co217 2.008 . S
Co217 N216 2.008 . S
Co217 N218 1.995 . S
Co217 N223 2.008 1_544 S
Co217 N228 1.995 1_545 S
Co217 N233 2.282 1_554 S
Co217 N239 2.282 1_545 S
N218 Co217 1.995 . S
N218 C219 1.376 . S
N218 C222 1.383 1_554 S
C219 N218 1.376 . S
C219 C220 1.446 . S
C219 C249 1.391 . S
C220 C219 1.446 . S
C220 C221 1.339 1_554 S
C220 H255 0.949 . S
C221 C220 1.339 1_556 S
C221 C222 1.439 . S
C221 H256 0.950 . S
C222 N218 1.383 1_556 S
C222 C221 1.439 . S
C222 C251 1.392 . S
N223 Co217 2.008 1_566 S
N223 C224 1.376 1_565 S
N223 C227 1.374 . S
C224 N223 1.376 1_545 S
C224 C225 1.443 . S
C224 C251 1.389 . S
C225 C224 1.443 . S
C225 C226 1.340 1_545 S
C225 H257 0.951 . S
C226 C225 1.340 1_565 S
C226 C227 1.439 . S
C226 H258 0.950 . S
C227 N223 1.374 . S
C227 C226 1.439 . S
C227 C252 1.395 . S
N228 Co217 1.995 1_565 S
N228 C229 1.376 1_554 S
N228 C232 1.383 . S
C229 N228 1.376 1_556 S
C229 C230 1.446 . S
C229 C252 1.391 . S
C230 C229 1.446 . S
C230 C231 1.339 1_556 S
C230 H259 0.949 . S
C231 C230 1.339 1_554 S
C231 C232 1.439 . S
C231 H260 0.950 . S
C232 N228 1.383 . S
C232 C231 1.439 . S
C232 C250 1.392 . S
N233 Co217 2.282 1_556 S
N233 C236 1.332 . S
N233 C238 1.332 . S
C234 C235 1.386 . S
C234 C237 1.388 . S
C235 C234 1.386 . S
C235 C236 1.382 . S
C235 H261 0.950 . S
C236 N233 1.332 . S
C236 C235 1.382 . S
C236 H247 0.952 1_545 S
C237 C234 1.388 . S
C237 C238 1.382 . S
C237 H262 0.950 . S
C238 N233 1.332 . S
C238 C237 1.382 . S
C238 H248 0.966 . S
N239 Co217 2.282 1_565 S
N239 C243 1.332 . S
N239 C244 1.332 . S
C240 C241 1.388 . S
C240 C244 1.382 . S
C240 H263 0.950 . S
C241 C240 1.388 . S
C241 C242 1.386 . S
C242 C241 1.386 . S
C242 C243 1.382 . S
C242 H264 0.950 . S
C243 N239 1.332 . S
C243 C242 1.382 . S
C243 H245 0.952 1_565 S
C244 N239 1.332 . S
C244 C240 1.382 . S
C244 H246 0.948 . S
H245 C243 0.952 1_545 S
H246 C244 0.948 . S
H247 C236 0.952 1_565 S
H248 C238 0.966 . S
C249 C215 1.395 . S
C249 C219 1.391 . S
C250 C212 1.389 . S
C250 C232 1.392 . S
C251 C222 1.392 . S
C251 C224 1.389 . S
C252 C227 1.395 . S
C252 C229 1.391 . S
H253 C213 0.951 . S
H254 C214 0.950 . S
H255 C220 0.949 . S
H256 C221 0.950 . S
H257 C225 0.951 . S
H258 C226 0.950 . S
H259 C230 0.949 . S
H260 C231 0.950 . S
H261 C235 0.950 . S
H262 C237 0.950 . S
H263 C240 0.950 . S
H264 C242 0.950 . S
C265 C266 1.443 . S
C265 N269 1.376 . S
C265 C303 1.389 . S
C266 C265 1.443 . S
C266 C267 1.340 . S
C266 H306 0.951 . S
C267 C266 1.340 . S
C267 C268 1.439 . S
C267 H307 0.950 . S
C268 C267 1.439 . S
C268 N269 1.374 . S
C268 C302 1.395 . S
N269 C265 1.376 . S
N269 C268 1.374 . S
N269 Co270 2.008 . S
Co270 N269 2.008 . S
Co270 N271 1.995 . S
Co270 N276 2.008 . S
Co270 N281 1.995 . S
Co270 N286 2.282 . S
Co270 N292 2.282 . S
N271 Co270 1.995 . S
N271 C272 1.376 . S
N271 C275 1.383 . S
C272 N271 1.376 . S
C272 C273 1.446 . S
C272 C302 1.391 . S
C273 C272 1.446 . S
C273 C274 1.339 . S
C273 H308 0.949 . S
C274 C273 1.339 . S
C274 C275 1.439 . S
C274 H309 0.950 . S
C275 N271 1.383 . S
C275 C274 1.439 . S
C275 C304 1.392 . S
N276 Co270 2.008 . S
N276 C277 1.376 . S
N276 C280 1.374 . S
C277 N276 1.376 . S
C277 C278 1.443 . S
C277 C304 1.389 . S
C278 C277 1.443 . S
C278 C279 1.340 . S
C278 H310 0.951 . S
C279 C278 1.340 . S
C279 C280 1.439 . S
C279 H311 0.950 . S
C280 N276 1.374 . S
C280 C279 1.439 . S
C280 C305 1.395 . S
N281 Co270 1.995 . S
N281 C282 1.376 . S
N281 C285 1.383 . S
C282 N281 1.376 . S
C282 C283 1.446 . S
C282 C305 1.391 . S
C283 C282 1.446 . S
C283 C284 1.339 . S
C283 H312 0.949 . S
C284 C283 1.339 . S
C284 C285 1.439 . S
C284 H313 0.950 . S
C285 N281 1.383 . S
C285 C284 1.439 . S
C285 C303 1.392 . S
N286 Co270 2.282 . S
N286 C289 1.332 . S
N286 C291 1.332 . S
C287 C288 1.386 . S
C287 C290 1.388 . S
C288 C287 1.386 . S
C288 C289 1.382 . S
C288 H314 0.950 . S
C289 N286 1.332 . S
C289 C288 1.382 . S
C289 H300 0.952 . S
C290 C287 1.388 . S
C290 C291 1.382 . S
C290 H315 0.950 . S
C291 N286 1.332 . S
C291 C290 1.382 . S
C291 H301 0.948 . S
N292 Co270 2.282 . S
N292 C296 1.332 . S
N292 C297 1.332 . S
C293 C294 1.388 . S
C293 C297 1.382 . S
C293 H316 0.950 . S
C294 C293 1.388 . S
C294 C295 1.386 . S
C295 C294 1.386 . S
C295 C296 1.382 . S
C295 H317 0.950 . S
C296 N292 1.332 . S
C296 C295 1.382 . S
C296 H298 0.952 . S
C297 N292 1.332 . S
C297 C293 1.382 . S
C297 H299 0.948 . S
H298 C296 0.952 . S
H299 C297 0.948 . S
H300 C289 0.952 . S
H301 C291 0.948 . S
C302 C268 1.395 . S
C302 C272 1.391 . S
C303 C265 1.389 . S
C303 C285 1.392 . S
C304 C275 1.392 . S
C304 C277 1.389 . S
C305 C280 1.395 . S
C305 C282 1.391 . S
H306 C266 0.951 . S
H307 C267 0.950 . S
H308 C273 0.949 . S
H309 C274 0.950 . S
H310 C278 0.951 . S
H311 C279 0.950 . S
H312 C283 0.949 . S
H313 C284 0.950 . S
H314 C288 0.950 . S
H315 C290 0.950 . S
H316 C293 0.950 . S
H317 C295 0.950 . S
Cu318 N319 1.999 . S
Cu318 O324 1.974 . S
Cu318 N329 1.985 . S
Cu318 O338 1.959 . S
N319 Cu318 1.999 . S
N319 C321 1.263 . S
N319 C323 1.389 . S
N320 C321 1.358 . S
N320 C322 1.400 . S
C321 N319 1.263 . S
C321 N320 1.358 . S
C321 H327 0.930 . S
C322 N320 1.400 . S
C322 C323 1.351 . S
C322 H339 0.930 . S
C323 N319 1.389 . S
C323 C322 1.351 . S
C323 H328 0.930 . S
O324 Cu318 1.974 . S
O324 C334 1.282 . S
C325 O326 1.261 . S
C325 O338 1.251 . S
O326 C325 1.261 . S
H327 C321 0.930 . S
H328 C323 0.930 . S
N329 Cu318 1.985 . S
N329 C331 1.335 . S
N329 C332 1.390 . S
N330 C331 1.345 . S
N330 C333 1.336 . S
C331 N329 1.335 . S
C331 N330 1.345 . S
C331 H336 0.930 . S
C332 N329 1.390 . S
C332 C333 1.346 . S
C332 H337 0.930 . S
C333 N330 1.336 . S
C333 C332 1.346 . S
C333 H340 0.929 . S
C334 O324 1.282 . S
C334 O335 1.216 . S
O335 C334 1.216 . S
H336 C331 0.930 . S
H337 C332 0.930 . S
O338 Cu318 1.959 . S
O338 C325 1.251 . S
H339 C322 0.930 . S
H340 C333 0.929 . S
Cu341 N342 1.999 . S
Cu341 O347 1.974 . S
Cu341 N352 1.985 . S
Cu341 O361 1.959 . S
N342 Cu341 1.999 . S
N342 C344 1.263 . S
N342 C346 1.389 . S
N343 C344 1.358 . S
N343 C345 1.400 . S
C344 N342 1.263 . S
C344 N343 1.358 . S
C344 H350 0.930 . S
C345 N343 1.400 . S
C345 C346 1.351 . S
C345 H362 0.930 . S
C346 N342 1.389 . S
C346 C345 1.351 . S
C346 H351 0.930 . S
O347 Cu341 1.974 . S
O347 C357 1.282 . S
C348 O349 1.261 . S
C348 O361 1.251 . S
O349 C348 1.261 . S
H350 C344 0.930 . S
H351 C346 0.930 . S
N352 Cu341 1.985 . S
N352 C354 1.335 . S
N352 C355 1.390 . S
N353 C354 1.345 . S
N353 C356 1.336 . S
C354 N352 1.335 . S
C354 N353 1.345 . S
C354 H359 0.930 . S
C355 N352 1.390 . S
C355 C356 1.346 . S
C355 H360 0.930 . S
C356 N353 1.336 . S
C356 C355 1.346 . S
C356 H363 0.929 . S
C357 O347 1.282 . S
C357 O358 1.216 . S
O358 C357 1.216 . S
H359 C354 0.930 . S
H360 C355 0.930 . S
O361 Cu341 1.959 . S
O361 C348 1.251 . S
H362 C345 0.930 . S
H363 C356 0.929 . S
Cu364 N365 1.999 . S
Cu364 O370 1.974 . S
Cu364 N375 1.985 . S
Cu364 O384 1.959 . S
N365 Cu364 1.999 . S
N365 C367 1.263 . S
N365 C369 1.389 . S
N366 C367 1.358 . S
N366 C368 1.400 . S
C367 N365 1.263 . S
C367 N366 1.358 . S
C367 H373 0.930 . S
C368 N366 1.400 . S
C368 C369 1.351 . S
C368 H385 0.930 . S
C369 N365 1.389 . S
C369 C368 1.351 . S
C369 H374 0.930 . S
O370 Cu364 1.974 . S
O370 C380 1.282 . S
C371 O372 1.261 . S
C371 O384 1.251 . S
O372 C371 1.261 . S
H373 C367 0.930 . S
H374 C369 0.930 . S
N375 Cu364 1.985 . S
N375 C377 1.335 . S
N375 C378 1.390 . S
N376 C377 1.345 . S
N376 C379 1.336 . S
C377 N375 1.335 . S
C377 N376 1.345 . S
C377 H382 0.930 . S
C378 N375 1.390 . S
C378 C379 1.346 . S
C378 H383 0.930 . S
C379 N376 1.336 . S
C379 C378 1.346 . S
C379 H386 0.929 . S
C380 O370 1.282 . S
C380 O381 1.216 . S
O381 C380 1.216 . S
H382 C377 0.930 . S
H383 C378 0.930 . S
O384 Cu364 1.959 . S
O384 C371 1.251 . S
H385 C368 0.930 . S
H386 C379 0.929 . S
Cu387 N388 1.999 . S
Cu387 O393 1.974 . S
Cu387 N398 1.985 . S
Cu387 O407 1.959 . S
N388 Cu387 1.999 . S
N388 C390 1.263 . S
N388 C392 1.389 . S
N389 C390 1.358 . S
N389 C391 1.400 . S
C390 N388 1.263 . S
C390 N389 1.358 . S
C390 H396 0.930 . S
C391 N389 1.400 . S
C391 C392 1.351 . S
C391 H408 0.930 . S
C392 N388 1.389 . S
C392 C391 1.351 . S
C392 H397 0.930 . S
O393 Cu387 1.974 . S
O393 C403 1.282 . S
C394 O395 1.261 . S
C394 O407 1.251 . S
O395 C394 1.261 . S
H396 C390 0.930 . S
H397 C392 0.930 . S
N398 Cu387 1.985 . S
N398 C400 1.335 . S
N398 C401 1.390 . S
N399 C400 1.345 . S
N399 C402 1.336 . S
C400 N398 1.335 . S
C400 N399 1.345 . S
C400 H405 0.930 . S
C401 N398 1.390 . S
C401 C402 1.346 . S
C401 H406 0.930 . S
C402 N399 1.336 . S
C402 C401 1.346 . S
C402 H409 0.929 . S
C403 O393 1.282 . S
C403 O404 1.216 . S
O404 C403 1.216 . S
H405 C400 0.930 . S
H406 C401 0.930 . S
O407 Cu387 1.959 . S
O407 C394 1.251 . S
H408 C391 0.930 . S
H409 C402 0.929 . S
Cu410 N411 1.999 . S
Cu410 O416 1.974 . S
Cu410 N421 1.985 . S
Cu410 O430 1.959 . S
N411 Cu410 1.999 . S
N411 C413 1.263 . S
N411 C415 1.389 . S
N412 C413 1.358 . S
N412 C414 1.400 . S
C413 N411 1.263 . S
C413 N412 1.358 . S
C413 H419 0.930 . S
C414 N412 1.400 . S
C414 C415 1.351 . S
C414 H431 0.930 . S
C415 N411 1.389 . S
C415 C414 1.351 . S
C415 H420 0.930 . S
O416 Cu410 1.974 . S
O416 C426 1.282 . S
C417 O418 1.261 . S
C417 O430 1.251 . S
O418 C417 1.261 . S
H419 C413 0.930 . S
H420 C415 0.930 . S
N421 Cu410 1.985 . S
N421 C423 1.335 . S
N421 C424 1.390 . S
N422 C423 1.345 . S
N422 C425 1.336 . S
C423 N421 1.335 . S
C423 N422 1.345 . S
C423 H428 0.930 . S
C424 N421 1.390 . S
C424 C425 1.346 . S
C424 H429 0.930 . S
C425 N422 1.336 . S
C425 C424 1.346 . S
C425 H432 0.929 . S
C426 O416 1.282 . S
C426 O427 1.216 . S
O427 C426 1.216 . S
H428 C423 0.930 . S
H429 C424 0.930 . S
O430 Cu410 1.959 . S
O430 C417 1.251 . S
H431 C414 0.930 . S
H432 C425 0.929 . S
Cu433 N434 1.999 . S
Cu433 O439 1.974 . S
Cu433 N444 1.985 . S
Cu433 O453 1.959 . S
N434 Cu433 1.999 . S
N434 C436 1.263 . S
N434 C438 1.389 . S
N435 C436 1.358 . S
N435 C437 1.400 . S
C436 N434 1.263 . S
C436 N435 1.358 . S
C436 H442 0.930 . S
C437 N435 1.400 . S
C437 C438 1.351 . S
C437 H454 0.930 . S
C438 N434 1.389 . S
C438 C437 1.351 . S
C438 H443 0.930 . S
O439 Cu433 1.974 . S
O439 C449 1.282 . S
C440 O441 1.261 . S
C440 O453 1.251 . S
O441 C440 1.261 . S
H442 C436 0.930 . S
H443 C438 0.930 . S
N444 Cu433 1.985 . S
N444 C446 1.335 . S
N444 C447 1.390 . S
N445 C446 1.345 . S
N445 C448 1.336 . S
C446 N444 1.335 . S
C446 N445 1.345 . S
C446 H451 0.930 . S
C447 N444 1.390 . S
C447 C448 1.346 . S
C447 H452 0.930 . S
C448 N445 1.336 . S
C448 C447 1.346 . S
C448 H455 0.929 . S
C449 O439 1.282 . S
C449 O450 1.216 . S
O450 C449 1.216 . S
H451 C446 0.930 . S
H452 C447 0.930 . S
O453 Cu433 1.959 . S
O453 C440 1.251 . S
H454 C437 0.930 . S
H455 C448 0.929 . S
H456 C474 0.951 . S
H457 C476 0.951 . S
H458 C478 0.950 . S
H459 C479 0.950 . S
H460 C481 0.950 . S
H461 C484 0.950 . S
H462 C485 0.950 . S
H463 C487 0.950 . S
H464 C488 0.950 . S
H465 C489 0.951 . S
H466 C491 0.951 . S
H467 C493 0.950 . S
H468 C494 0.950 . S
H469 C496 0.950 . S
H470 C499 0.950 . S
H471 C500 0.950 . S
H472 C502 0.950 . S
H473 C503 0.950 . S
C474 H456 0.951 . S
C474 C475 1.366 . S
C474 C476 1.388 . S
C475 C474 1.366 . S
C475 C479 1.385 . S
C476 H457 0.951 . S
C476 C474 1.388 . S
C476 C477 1.366 . S
C477 C476 1.366 . S
C477 C478 1.414 . S
C477 C480 1.499 . S
C478 H458 0.950 . S
C478 C477 1.414 . S
C478 C479 1.374 . S
C479 H459 0.950 . S
C479 C475 1.385 . S
C479 C478 1.374 . S
C480 C477 1.499 . S
C480 C481 1.373 . S
C480 C482 1.389 . S
C481 H460 0.950 . S
C481 C480 1.373 . S
C481 C497 1.377 . S
C482 C480 1.389 . S
C482 C483 1.524 . S
C482 C496 1.377 . S
C483 C482 1.524 . S
C483 C484 1.397 . S
C483 C488 1.363 . S
C484 H461 0.950 . S
C484 C483 1.397 . S
C484 C485 1.334 . S
C485 H462 0.950 . S
C485 C484 1.334 . S
C485 C486 1.287 . S
C486 C485 1.287 . S
C486 C487 1.524 . S
C486 H505 0.913 . S
C487 H463 0.950 . S
C487 C486 1.524 . S
C487 C488 1.415 . S
C488 H464 0.950 . S
C488 C483 1.363 . S
C488 C487 1.415 . S
C489 H465 0.951 . S
C489 C490 1.366 . S
C489 C491 1.388 . S
C490 C489 1.366 . S
C490 C494 1.385 . S
C491 H466 0.951 . S
C491 C489 1.388 . S
C491 C492 1.366 . S
C492 C491 1.366 . S
C492 C493 1.414 . S
C492 C495 1.499 . S
C493 H467 0.950 . S
C493 C492 1.414 . S
C493 C494 1.374 . S
C494 H468 0.950 . S
C494 C490 1.385 . S
C494 C493 1.374 . S
C495 C492 1.499 . S
C495 C496 1.373 . S
C495 C497 1.389 . S
C496 H469 0.950 . S
C496 C482 1.377 . S
C496 C495 1.373 . S
C497 C481 1.377 . S
C497 C495 1.389 . S
C497 C498 1.524 . S
C498 C497 1.524 . S
C498 C499 1.397 . S
C498 C503 1.363 . S
C499 H470 0.950 . S
C499 C498 1.397 . S
C499 C500 1.334 . S
C500 H471 0.950 . S
C500 C499 1.334 . S
C500 C501 1.287 . S
C501 C500 1.287 . S
C501 C502 1.524 . S
C501 H504 0.999 . S
C502 H472 0.950 . S
C502 C501 1.524 . S
C502 C503 1.415 . S
C503 H473 0.950 . S
C503 C498 1.363 . S
C503 C502 1.415 . S
H504 C501 0.999 . S
H505 C486 0.913 . S
H506 C524 0.951 . S
H507 C526 0.951 . S
H508 C528 0.950 . S
H509 C529 0.950 . S
H510 C531 0.950 . S
H511 C534 0.950 . S
H512 C535 0.950 . S
H513 C537 0.950 . S
H514 C538 0.950 . S
H515 C539 0.951 . S
H516 C541 0.951 . S
H517 C543 0.950 . S
H518 C544 0.950 . S
H519 C546 0.950 . S
H520 C549 0.950 . S
H521 C550 0.950 . S
H522 C552 0.950 . S
H523 C553 0.950 . S
C524 H506 0.951 . S
C524 C525 1.366 . S
C524 C526 1.388 . S
C525 C524 1.366 . S
C525 C529 1.385 . S
C526 H507 0.951 . S
C526 C524 1.388 . S
C526 C527 1.366 . S
C527 C526 1.366 . S
C527 C528 1.414 . S
C527 C530 1.499 . S
C528 H508 0.950 . S
C528 C527 1.414 . S
C528 C529 1.374 . S
C529 H509 0.950 . S
C529 C525 1.385 . S
C529 C528 1.374 . S
C530 C527 1.499 . S
C530 C531 1.373 . S
C530 C532 1.389 . S
C531 H510 0.950 . S
C531 C530 1.373 . S
C531 C547 1.377 . S
C532 C530 1.389 . S
C532 C533 1.524 . S
C532 C546 1.377 . S
C533 C532 1.524 . S
C533 C534 1.397 . S
C533 C538 1.363 . S
C534 H511 0.950 . S
C534 C533 1.397 . S
C534 C535 1.334 . S
C535 H512 0.950 . S
C535 C534 1.334 . S
C535 C536 1.287 . S
C536 C535 1.287 . S
C536 C537 1.524 . S
C536 H555 0.913 . S
C537 H513 0.950 . S
C537 C536 1.524 . S
C537 C538 1.415 . S
C538 H514 0.950 . S
C538 C533 1.363 . S
C538 C537 1.415 . S
C539 H515 0.951 . S
C539 C540 1.366 . S
C539 C541 1.388 . S
C540 C539 1.366 . S
C540 C544 1.385 . S
C541 H516 0.951 . S
C541 C539 1.388 . S
C541 C542 1.366 . S
C542 C541 1.366 . S
C542 C543 1.414 . S
C542 C545 1.499 . S
C543 H517 0.950 . S
C543 C542 1.414 . S
C543 C544 1.374 . S
C544 H518 0.950 . S
C544 C540 1.385 . S
C544 C543 1.374 . S
C545 C542 1.499 . S
C545 C546 1.373 . S
C545 C547 1.389 . S
C546 H519 0.950 . S
C546 C532 1.377 . S
C546 C545 1.373 . S
C547 C531 1.377 . S
C547 C545 1.389 . S
C547 C548 1.524 . S
C548 C547 1.524 . S
C548 C549 1.397 . S
C548 C553 1.363 . S
C549 H520 0.950 . S
C549 C548 1.397 . S
C549 C550 1.334 . S
C550 H521 0.950 . S
C550 C549 1.334 . S
C550 C551 1.287 . S
C551 C550 1.287 . S
C551 C552 1.524 . S
C551 H554 0.999 . S
C552 H522 0.950 . S
C552 C551 1.524 . S
C552 C553 1.415 . S
C553 H523 0.950 . S
C553 C548 1.363 . S
C553 C552 1.415 . S
H554 C551 0.999 . S
H555 C536 0.913 . S
H556 C574 0.951 . S
H557 C576 0.951 . S
H558 C578 0.950 . S
H559 C579 0.950 . S
H560 C581 0.950 . S
H561 C584 0.950 . S
H562 C585 0.950 . S
H563 C587 0.950 . S
H564 C588 0.950 . S
H565 C589 0.951 . S
H566 C591 0.951 . S
H567 C593 0.950 . S
H568 C594 0.950 . S
H569 C596 0.950 . S
H570 C599 0.950 . S
H571 C600 0.950 . S
H572 C602 0.950 . S
H573 C603 0.950 . S
C574 H556 0.951 . S
C574 C575 1.366 . S
C574 C576 1.388 . S
C575 C574 1.366 . S
C575 C579 1.385 . S
C576 H557 0.951 . S
C576 C574 1.388 . S
C576 C577 1.366 . S
C577 C576 1.366 . S
C577 C578 1.414 . S
C577 C580 1.499 . S
C578 H558 0.950 . S
C578 C577 1.414 . S
C578 C579 1.374 . S
C579 H559 0.950 . S
C579 C575 1.385 . S
C579 C578 1.374 . S
C580 C577 1.499 . S
C580 C581 1.373 . S
C580 C582 1.389 . S
C581 H560 0.950 . S
C581 C580 1.373 . S
C581 C597 1.377 . S
C582 C580 1.389 . S
C582 C583 1.524 . S
C582 C596 1.377 . S
C583 C582 1.524 . S
C583 C584 1.397 . S
C583 C588 1.363 . S
C584 H561 0.950 . S
C584 C583 1.397 . S
C584 C585 1.334 . S
C585 H562 0.950 . S
C585 C584 1.334 . S
C585 C586 1.287 . S
C586 C585 1.287 . S
C586 C587 1.524 . S
C586 H605 0.913 . S
C587 H563 0.950 . S
C587 C586 1.524 . S
C587 C588 1.415 . S
C588 H564 0.950 . S
C588 C583 1.363 . S
C588 C587 1.415 . S
C589 H565 0.951 . S
C589 C590 1.366 . S
C589 C591 1.388 . S
C590 C589 1.366 . S
C590 C594 1.385 . S
C591 H566 0.951 . S
C591 C589 1.388 . S
C591 C592 1.366 . S
C592 C591 1.366 . S
C592 C593 1.414 . S
C592 C595 1.499 . S
C593 H567 0.950 . S
C593 C592 1.414 . S
C593 C594 1.374 . S
C594 H568 0.950 . S
C594 C590 1.385 . S
C594 C593 1.374 . S
C595 C592 1.499 . S
C595 C596 1.373 . S
C595 C597 1.389 . S
C596 H569 0.950 . S
C596 C582 1.377 . S
C596 C595 1.373 . S
C597 C581 1.377 . S
C597 C595 1.389 . S
C597 C598 1.524 . S
C598 C597 1.524 . S
C598 C599 1.397 . S
C598 C603 1.363 . S
C599 H570 0.950 . S
C599 C598 1.397 . S
C599 C600 1.334 . S
C600 H571 0.950 . S
C600 C599 1.334 . S
C600 C601 1.287 . S
C601 C600 1.287 . S
C601 C602 1.524 . S
C601 H604 0.999 . S
C602 H572 0.950 . S
C602 C601 1.524 . S
C602 C603 1.415 . S
C603 H573 0.950 . S
C603 C598 1.363 . S
C603 C602 1.415 . S
H604 C601 0.999 . S
H605 C586 0.913 . S
H606 C624 0.951 . S
H607 C626 0.951 . S
H608 C628 0.950 . S
H609 C629 0.950 . S
H610 C631 0.950 . S
H611 C634 0.950 . S
H612 C635 0.950 . S
H613 C637 0.950 . S
H614 C638 0.950 . S
H615 C639 0.951 . S
H616 C641 0.951 . S
H617 C643 0.950 . S
H618 C644 0.950 . S
H619 C646 0.950 . S
H620 C649 0.950 . S
H621 C650 0.950 . S
H622 C652 0.950 . S
H623 C653 0.950 . S
C624 H606 0.951 . S
C624 C625 1.366 . S
C624 C626 1.388 . S
C625 C624 1.366 . S
C625 C629 1.385 . S
C626 H607 0.951 . S
C626 C624 1.388 . S
C626 C627 1.366 . S
C627 C626 1.366 . S
C627 C628 1.414 . S
C627 C630 1.499 . S
C628 H608 0.950 . S
C628 C627 1.414 . S
C628 C629 1.374 . S
C629 H609 0.950 . S
C629 C625 1.385 . S
C629 C628 1.374 . S
C630 C627 1.499 . S
C630 C631 1.373 . S
C630 C632 1.389 . S
C631 H610 0.950 . S
C631 C630 1.373 . S
C631 C647 1.377 . S
C632 C630 1.389 . S
C632 C633 1.524 . S
C632 C646 1.377 . S
C633 C632 1.524 . S
C633 C634 1.397 . S
C633 C638 1.363 . S
C634 H611 0.950 . S
C634 C633 1.397 . S
C634 C635 1.334 . S
C635 H612 0.950 . S
C635 C634 1.334 . S
C635 C636 1.287 . S
C636 C635 1.287 . S
C636 C637 1.524 . S
C636 H655 0.913 . S
C637 H613 0.950 . S
C637 C636 1.524 . S
C637 C638 1.415 . S
C638 H614 0.950 . S
C638 C633 1.363 . S
C638 C637 1.415 . S
C639 H615 0.951 . S
C639 C640 1.366 . S
C639 C641 1.388 . S
C640 C639 1.366 . S
C640 C644 1.385 . S
C641 H616 0.951 . S
C641 C639 1.388 . S
C641 C642 1.366 . S
C642 C641 1.366 . S
C642 C643 1.414 . S
C642 C645 1.499 . S
C643 H617 0.950 . S
C643 C642 1.414 . S
C643 C644 1.374 . S
C644 H618 0.950 . S
C644 C640 1.385 . S
C644 C643 1.374 . S
C645 C642 1.499 . S
C645 C646 1.373 . S
C645 C647 1.389 . S
C646 H619 0.950 . S
C646 C632 1.377 . S
C646 C645 1.373 . S
C647 C631 1.377 . S
C647 C645 1.389 . S
C647 C648 1.524 . S
C648 C647 1.524 . S
C648 C649 1.397 . S
C648 C653 1.363 . S
C649 H620 0.950 . S
C649 C648 1.397 . S
C649 C650 1.334 . S
C650 H621 0.950 . S
C650 C649 1.334 . S
C650 C651 1.287 . S
C651 C650 1.287 . S
C651 C652 1.524 . S
C651 H654 0.999 . S
C652 H622 0.950 . S
C652 C651 1.524 . S
C652 C653 1.415 . S
C653 H623 0.950 . S
C653 C648 1.363 . S
C653 C652 1.415 . S
H654 C651 0.999 . S
H655 C636 0.913 . S
H656 C674 0.951 . S
H657 C676 0.951 . S
H658 C678 0.950 . S
H659 C679 0.950 . S
H660 C681 0.950 . S
H661 C684 0.950 . S
H662 C685 0.950 . S
H663 C687 0.950 . S
H664 C688 0.950 . S
H665 C689 0.951 . S
H666 C691 0.951 . S
H667 C693 0.950 . S
H668 C694 0.950 . S
H669 C696 0.950 . S
H670 C699 0.950 . S
H671 C700 0.950 . S
H672 C702 0.950 . S
H673 C703 0.950 . S
C674 H656 0.951 . S
C674 C675 1.366 . S
C674 C676 1.388 . S
C675 C674 1.366 . S
C675 C679 1.385 . S
C676 H657 0.951 . S
C676 C674 1.388 . S
C676 C677 1.366 . S
C677 C676 1.366 . S
C677 C678 1.414 . S
C677 C680 1.499 . S
C678 H658 0.950 . S
C678 C677 1.414 . S
C678 C679 1.374 . S
C679 H659 0.950 . S
C679 C675 1.385 . S
C679 C678 1.374 . S
C680 C677 1.499 . S
C680 C681 1.373 . S
C680 C682 1.389 . S
C681 H660 0.950 . S
C681 C680 1.373 . S
C681 C697 1.377 . S
C682 C680 1.389 . S
C682 C683 1.524 . S
C682 C696 1.377 . S
C683 C682 1.524 . S
C683 C684 1.397 . S
C683 C688 1.363 . S
C684 H661 0.950 . S
C684 C683 1.397 . S
C684 C685 1.334 . S
C685 H662 0.950 . S
C685 C684 1.334 . S
C685 C686 1.287 . S
C686 C685 1.287 . S
C686 C687 1.524 . S
C686 H705 0.913 . S
C687 H663 0.950 . S
C687 C686 1.524 . S
C687 C688 1.415 . S
C688 H664 0.950 . S
C688 C683 1.363 . S
C688 C687 1.415 . S
C689 H665 0.951 . S
C689 C690 1.366 . S
C689 C691 1.388 . S
C690 C689 1.366 . S
C690 C694 1.385 . S
C691 H666 0.951 . S
C691 C689 1.388 . S
C691 C692 1.366 . S
C692 C691 1.366 . S
C692 C693 1.414 . S
C692 C695 1.499 . S
C693 H667 0.950 . S
C693 C692 1.414 . S
C693 C694 1.374 . S
C694 H668 0.950 . S
C694 C690 1.385 . S
C694 C693 1.374 . S
C695 C692 1.499 . S
C695 C696 1.373 . S
C695 C697 1.389 . S
C696 H669 0.950 . S
C696 C682 1.377 . S
C696 C695 1.373 . S
C697 C681 1.377 . S
C697 C695 1.389 . S
C697 C698 1.524 . S
C698 C697 1.524 . S
C698 C699 1.397 . S
C698 C703 1.363 . S
C699 H670 0.950 . S
C699 C698 1.397 . S
C699 C700 1.334 . S
C700 H671 0.950 . S
C700 C699 1.334 . S
C700 C701 1.287 . S
C701 C700 1.287 . S
C701 C702 1.524 . S
C701 H704 0.999 . S
C702 H672 0.950 . S
C702 C701 1.524 . S
C702 C703 1.415 . S
C703 H673 0.950 . S
C703 C698 1.363 . S
C703 C702 1.415 . S
H704 C701 0.999 . S
H705 C686 0.913 . S
H706 C724 0.951 . S
H707 C726 0.951 . S
H708 C728 0.950 . S
H709 C729 0.950 . S
H710 C731 0.950 . S
H711 C734 0.950 . S
H712 C735 0.950 . S
H713 C737 0.950 . S
H714 C738 0.950 . S
H715 C739 0.951 . S
H716 C741 0.951 . S
H717 C743 0.950 . S
H718 C744 0.950 . S
H719 C746 0.950 . S
H720 C749 0.950 . S
H721 C750 0.950 . S
H722 C752 0.950 . S
H723 C753 0.950 . S
C724 H706 0.951 . S
C724 C725 1.366 . S
C724 C726 1.388 . S
C725 C724 1.366 . S
C725 C729 1.385 . S
C726 H707 0.951 . S
C726 C724 1.388 . S
C726 C727 1.366 . S
C727 C726 1.366 . S
C727 C728 1.414 . S
C727 C730 1.499 . S
C728 H708 0.950 . S
C728 C727 1.414 . S
C728 C729 1.374 . S
C729 H709 0.950 . S
C729 C725 1.385 . S
C729 C728 1.374 . S
C730 C727 1.499 . S
C730 C731 1.373 . S
C730 C732 1.389 . S
C731 H710 0.950 . S
C731 C730 1.373 . S
C731 C747 1.377 . S
C732 C730 1.389 . S
C732 C733 1.524 . S
C732 C746 1.377 . S
C733 C732 1.524 . S
C733 C734 1.397 . S
C733 C738 1.363 . S
C734 H711 0.950 . S
C734 C733 1.397 . S
C734 C735 1.334 . S
C735 H712 0.950 . S
C735 C734 1.334 . S
C735 C736 1.287 . S
C736 C735 1.287 . S
C736 C737 1.524 . S
C736 H755 0.913 . S
C737 H713 0.950 . S
C737 C736 1.524 . S
C737 C738 1.415 . S
C738 H714 0.950 . S
C738 C733 1.363 . S
C738 C737 1.415 . S
C739 H715 0.951 . S
C739 C740 1.366 . S
C739 C741 1.388 . S
C740 C739 1.366 . S
C740 C744 1.385 . S
C741 H716 0.951 . S
C741 C739 1.388 . S
C741 C742 1.366 . S
C742 C741 1.366 . S
C742 C743 1.414 . S
C742 C745 1.499 . S
C743 H717 0.950 . S
C743 C742 1.414 . S
C743 C744 1.374 . S
C744 H718 0.950 . S
C744 C740 1.385 . S
C744 C743 1.374 . S
C745 C742 1.499 . S
C745 C746 1.373 . S
C745 C747 1.389 . S
C746 H719 0.950 . S
C746 C732 1.377 . S
C746 C745 1.373 . S
C747 C731 1.377 . S
C747 C745 1.389 . S
C747 C748 1.524 . S
C748 C747 1.524 . S
C748 C749 1.397 . S
C748 C753 1.363 . S
C749 H720 0.950 . S
C749 C748 1.397 . S
C749 C750 1.334 . S
C750 H721 0.950 . S
C750 C749 1.334 . S
C750 C751 1.287 . S
C751 C750 1.287 . S
C751 C752 1.524 . S
C751 H754 0.999 . S
C752 H722 0.950 . S
C752 C751 1.524 . S
C752 C753 1.415 . S
C753 H723 0.950 . S
C753 C748 1.363 . S
C753 C752 1.415 . S
H754 C751 0.999 . S
H755 C736 0.913 . S
H756 C774 0.951 . S
H757 C776 0.951 . S
H758 C778 0.950 . S
H759 C779 0.950 . S
H760 C781 0.950 . S
H761 C784 0.950 . S
H762 C785 0.950 . S
H763 C787 0.950 . S
H764 C788 0.950 . S
H765 C789 0.951 . S
H766 C791 0.951 . S
H767 C793 0.950 . S
H768 C794 0.950 . S
H769 C796 0.950 . S
H770 C799 0.950 . S
H771 C800 0.950 . S
H772 C802 0.950 . S
H773 C803 0.950 . S
C774 H756 0.951 . S
C774 C775 1.366 . S
C774 C776 1.388 . S
C775 C774 1.366 . S
C775 C779 1.385 . S
C776 H757 0.951 . S
C776 C774 1.388 . S
C776 C777 1.366 . S
C777 C776 1.366 . S
C777 C778 1.414 . S
C777 C780 1.499 . S
C778 H758 0.950 . S
C778 C777 1.414 . S
C778 C779 1.374 . S
C779 H759 0.950 . S
C779 C775 1.385 . S
C779 C778 1.374 . S
C780 C777 1.499 . S
C780 C781 1.373 . S
C780 C782 1.389 . S
C781 H760 0.950 . S
C781 C780 1.373 . S
C781 C797 1.377 . S
C782 C780 1.389 . S
C782 C783 1.524 . S
C782 C796 1.377 . S
C783 C782 1.524 . S
C783 C784 1.397 . S
C783 C788 1.363 . S
C784 H761 0.950 . S
C784 C783 1.397 . S
C784 C785 1.334 . S
C785 H762 0.950 . S
C785 C784 1.334 . S
C785 C786 1.287 . S
C786 C785 1.287 . S
C786 C787 1.524 . S
C786 H805 0.913 . S
C787 H763 0.950 . S
C787 C786 1.524 . S
C787 C788 1.415 . S
C788 H764 0.950 . S
C788 C783 1.363 . S
C788 C787 1.415 . S
C789 H765 0.951 . S
C789 C790 1.366 . S
C789 C791 1.388 . S
C790 C789 1.366 . S
C790 C794 1.385 . S
C791 H766 0.951 . S
C791 C789 1.388 . S
C791 C792 1.366 . S
C792 C791 1.366 . S
C792 C793 1.414 . S
C792 C795 1.499 . S
C793 H767 0.950 . S
C793 C792 1.414 . S
C793 C794 1.374 . S
C794 H768 0.950 . S
C794 C790 1.385 . S
C794 C793 1.374 . S
C795 C792 1.499 . S
C795 C796 1.373 . S
C795 C797 1.389 . S
C796 H769 0.950 . S
C796 C782 1.377 . S
C796 C795 1.373 . S
C797 C781 1.377 . S
C797 C795 1.389 . S
C797 C798 1.524 . S
C798 C797 1.524 . S
C798 C799 1.397 . S
C798 C803 1.363 . S
C799 H770 0.950 . S
C799 C798 1.397 . S
C799 C800 1.334 . S
C800 H771 0.950 . S
C800 C799 1.334 . S
C800 C801 1.287 . S
C801 C800 1.287 . S
C801 C802 1.524 . S
C801 H804 0.999 . S
C802 H772 0.950 . S
C802 C801 1.524 . S
C802 C803 1.415 . S
C803 H773 0.950 . S
C803 C798 1.363 . S
C803 C802 1.415 . S
H804 C801 0.999 . S
H805 C786 0.913 . S
H806 C824 0.951 . S
H807 C826 0.951 . S
H808 C828 0.950 . S
H809 C829 0.950 . S
H810 C831 0.950 . S
H811 C834 0.950 . S
H812 C835 0.950 . S
H813 C837 0.950 . S
H814 C838 0.950 . S
H815 C839 0.951 . S
H816 C841 0.951 . S
H817 C843 0.950 . S
H818 C844 0.950 . S
H819 C846 0.950 . S
H820 C849 0.950 . S
H821 C850 0.950 . S
H822 C852 0.950 . S
H823 C853 0.950 . S
C824 H806 0.951 . S
C824 C825 1.366 . S
C824 C826 1.388 . S
C825 C824 1.366 . S
C825 C829 1.385 . S
C826 H807 0.951 . S
C826 C824 1.388 . S
C826 C827 1.366 . S
C827 C826 1.366 . S
C827 C828 1.414 . S
C827 C830 1.499 . S
C828 H808 0.950 . S
C828 C827 1.414 . S
C828 C829 1.374 . S
C829 H809 0.950 . S
C829 C825 1.385 . S
C829 C828 1.374 . S
C830 C827 1.499 . S
C830 C831 1.373 . S
C830 C832 1.389 . S
C831 H810 0.950 . S
C831 C830 1.373 . S
C831 C847 1.377 . S
C832 C830 1.389 . S
C832 C833 1.524 . S
C832 C846 1.377 . S
C833 C832 1.524 . S
C833 C834 1.397 . S
C833 C838 1.363 . S
C834 H811 0.950 . S
C834 C833 1.397 . S
C834 C835 1.334 . S
C835 H812 0.950 . S
C835 C834 1.334 . S
C835 C836 1.287 . S
C836 C835 1.287 . S
C836 C837 1.524 . S
C836 H855 0.913 . S
C837 H813 0.950 . S
C837 C836 1.524 . S
C837 C838 1.415 . S
C838 H814 0.950 . S
C838 C833 1.363 . S
C838 C837 1.415 . S
C839 H815 0.951 . S
C839 C840 1.366 . S
C839 C841 1.388 . S
C840 C839 1.366 . S
C840 C844 1.385 . S
C841 H816 0.951 . S
C841 C839 1.388 . S
C841 C842 1.366 . S
C842 C841 1.366 . S
C842 C843 1.414 . S
C842 C845 1.499 . S
C843 H817 0.950 . S
C843 C842 1.414 . S
C843 C844 1.374 . S
C844 H818 0.950 . S
C844 C840 1.385 . S
C844 C843 1.374 . S
C845 C842 1.499 . S
C845 C846 1.373 . S
C845 C847 1.389 . S
C846 H819 0.950 . S
C846 C832 1.377 . S
C846 C845 1.373 . S
C847 C831 1.377 . S
C847 C845 1.389 . S
C847 C848 1.524 . S
C848 C847 1.524 . S
C848 C849 1.397 . S
C848 C853 1.363 . S
C849 H820 0.950 . S
C849 C848 1.397 . S
C849 C850 1.334 . S
C850 H821 0.950 . S
C850 C849 1.334 . S
C850 C851 1.287 . S
C851 C850 1.287 . S
C851 C852 1.524 . S
C851 H854 0.999 . S
C852 H822 0.950 . S
C852 C851 1.524 . S
C852 C853 1.415 . S
C853 H823 0.950 . S
C853 C848 1.363 . S
C853 C852 1.415 . S
H854 C851 0.999 . S
H855 C836 0.913 . S
H856 C874 0.951 . S
H857 C876 0.951 . S
H858 C878 0.950 . S
H859 C879 0.950 . S
H860 C881 0.950 . S
H861 C884 0.950 . S
H862 C885 0.950 . S
H863 C887 0.950 . S
H864 C888 0.950 . S
H865 C889 0.951 . S
H866 C891 0.951 . S
H867 C893 0.950 . S
H868 C894 0.950 . S
H869 C896 0.950 . S
H870 C899 0.950 . S
H871 C900 0.950 . S
H872 C902 0.950 . S
H873 C903 0.950 . S
C874 H856 0.951 . S
C874 C875 1.366 . S
C874 C876 1.388 . S
C875 C874 1.366 . S
C875 C879 1.385 . S
C876 H857 0.951 . S
C876 C874 1.388 . S
C876 C877 1.366 . S
C877 C876 1.366 . S
C877 C878 1.414 . S
C877 C880 1.499 . S
C878 H858 0.950 . S
C878 C877 1.414 . S
C878 C879 1.374 . S
C879 H859 0.950 . S
C879 C875 1.385 . S
C879 C878 1.374 . S
C880 C877 1.499 . S
C880 C881 1.373 . S
C880 C882 1.389 . S
C881 H860 0.950 . S
C881 C880 1.373 . S
C881 C897 1.377 . S
C882 C880 1.389 . S
C882 C883 1.524 . S
C882 C896 1.377 . S
C883 C882 1.524 . S
C883 C884 1.397 . S
C883 C888 1.363 . S
C884 H861 0.950 . S
C884 C883 1.397 . S
C884 C885 1.334 . S
C885 H862 0.950 . S
C885 C884 1.334 . S
C885 C886 1.287 . S
C886 C885 1.287 . S
C886 C887 1.524 . S
C886 H905 0.913 . S
C887 H863 0.950 . S
C887 C886 1.524 . S
C887 C888 1.415 . S
C888 H864 0.950 . S
C888 C883 1.363 . S
C888 C887 1.415 . S
C889 H865 0.951 . S
C889 C890 1.366 . S
C889 C891 1.388 . S
C890 C889 1.366 . S
C890 C894 1.385 . S
C891 H866 0.951 . S
C891 C889 1.388 . S
C891 C892 1.366 . S
C892 C891 1.366 . S
C892 C893 1.414 . S
C892 C895 1.499 . S
C893 H867 0.950 . S
C893 C892 1.414 . S
C893 C894 1.374 . S
C894 H868 0.950 . S
C894 C890 1.385 . S
C894 C893 1.374 . S
C895 C892 1.499 . S
C895 C896 1.373 . S
C895 C897 1.389 . S
C896 H869 0.950 . S
C896 C882 1.377 . S
C896 C895 1.373 . S
C897 C881 1.377 . S
C897 C895 1.389 . S
C897 C898 1.524 . S
C898 C897 1.524 . S
C898 C899 1.397 . S
C898 C903 1.363 . S
C899 H870 0.950 . S
C899 C898 1.397 . S
C899 C900 1.334 . S
C900 H871 0.950 . S
C900 C899 1.334 . S
C900 C901 1.287 . S
C901 C900 1.287 . S
C901 C902 1.524 . S
C901 H904 0.999 . S
C902 H872 0.950 . S
C902 C901 1.524 . S
C902 C903 1.415 . S
C903 H873 0.950 . S
C903 C898 1.363 . S
C903 C902 1.415 . S
H904 C901 0.999 . S
H905 C886 0.913 . S
H906 C924 0.951 . S
H907 C926 0.951 . S
H908 C928 0.950 . S
H909 C929 0.950 . S
H910 C931 0.950 . S
H911 C934 0.950 . S
H912 C935 0.950 . S
H913 C937 0.950 . S
H914 C938 0.950 . S
H915 C939 0.951 . S
H916 C941 0.951 . S
H917 C943 0.950 . S
H918 C944 0.950 . S
H919 C946 0.950 . S
H920 C949 0.950 . S
H921 C950 0.950 . S
H922 C952 0.950 . S
H923 C953 0.950 . S
C924 H906 0.951 . S
C924 C925 1.366 . S
C924 C926 1.388 . S
C925 C924 1.366 . S
C925 C929 1.385 . S
C926 H907 0.951 . S
C926 C924 1.388 . S
C926 C927 1.366 . S
C927 C926 1.366 . S
C927 C928 1.414 . S
C927 C930 1.499 . S
C928 H908 0.950 . S
C928 C927 1.414 . S
C928 C929 1.374 . S
C929 H909 0.950 . S
C929 C925 1.385 . S
C929 C928 1.374 . S
C930 C927 1.499 . S
C930 C931 1.373 . S
C930 C932 1.389 . S
C931 H910 0.950 . S
C931 C930 1.373 . S
C931 C947 1.377 . S
C932 C930 1.389 . S
C932 C933 1.524 . S
C932 C946 1.377 . S
C933 C932 1.524 . S
C933 C934 1.397 . S
C933 C938 1.363 . S
C934 H911 0.950 . S
C934 C933 1.397 . S
C934 C935 1.334 . S
C935 H912 0.950 . S
C935 C934 1.334 . S
C935 C936 1.287 . S
C936 C935 1.287 . S
C936 C937 1.524 . S
C936 H955 0.906 1_545 S
C937 H913 0.950 . S
C937 C936 1.524 . S
C937 C938 1.415 . S
C938 H914 0.950 . S
C938 C933 1.363 . S
C938 C937 1.415 . S
C939 H915 0.951 . S
C939 C940 1.366 . S
C939 C941 1.388 . S
C940 C939 1.366 . S
C940 C944 1.385 . S
C941 H916 0.951 . S
C941 C939 1.388 . S
C941 C942 1.366 . S
C942 C941 1.366 . S
C942 C943 1.414 . S
C942 C945 1.499 . S
C943 H917 0.950 . S
C943 C942 1.414 . S
C943 C944 1.374 . S
C944 H918 0.950 . S
C944 C940 1.385 . S
C944 C943 1.374 . S
C945 C942 1.499 . S
C945 C946 1.373 . S
C945 C947 1.389 . S
C946 H919 0.950 . S
C946 C932 1.377 . S
C946 C945 1.373 . S
C947 C931 1.377 . S
C947 C945 1.389 . S
C947 C948 1.524 . S
C948 C947 1.524 . S
C948 C949 1.397 . S
C948 C953 1.363 . S
C949 H920 0.950 . S
C949 C948 1.397 . S
C949 C950 1.334 . S
C950 H921 0.950 . S
C950 C949 1.334 . S
C950 C951 1.287 . S
C951 C950 1.287 . S
C951 C952 1.524 . S
C951 H954 0.999 . S
C952 H922 0.950 . S
C952 C951 1.524 . S
C952 C953 1.415 . S
C953 H923 0.950 . S
C953 C948 1.363 . S
C953 C952 1.415 . S
H954 C951 0.999 . S
H955 C936 0.906 1_565 S
H956 C974 0.951 . S
H957 C976 0.951 . S
H958 C978 0.950 . S
H959 C979 0.950 . S
H960 C981 0.950 . S
H961 C984 0.950 . S
H962 C985 0.950 . S
H963 C987 0.950 . S
H964 C988 0.950 . S
H965 C989 0.951 . S
H966 C991 0.951 . S
H967 C993 0.950 . S
H968 C994 0.950 . S
H969 C996 0.950 . S
H970 C999 0.950 . S
H971 C1000 0.950 . S
H972 C1002 0.950 . S
H973 C1003 0.950 . S
C974 H956 0.951 . S
C974 C975 1.366 . S
C974 C976 1.388 . S
C975 C974 1.366 . S
C975 C979 1.385 . S
C976 H957 0.951 . S
C976 C974 1.388 . S
C976 C977 1.366 . S
C977 C976 1.366 . S
C977 C978 1.414 . S
C977 C980 1.499 . S
C978 H958 0.950 . S
C978 C977 1.414 . S
C978 C979 1.374 . S
C979 H959 0.950 . S
C979 C975 1.385 . S
C979 C978 1.374 . S
C980 C977 1.499 . S
C980 C981 1.373 . S
C980 C982 1.389 . S
C981 H960 0.950 . S
C981 C980 1.373 . S
C981 C997 1.377 . S
C982 C980 1.389 . S
C982 C983 1.524 . S
C982 C996 1.377 . S
C983 C982 1.524 . S
C983 C984 1.397 . S
C983 C988 1.363 . S
C984 H961 0.950 . S
C984 C983 1.397 . S
C984 C985 1.334 . S
C985 H962 0.950 . S
C985 C984 1.334 . S
C985 C986 1.287 . S
C986 C985 1.287 . S
C986 C987 1.524 . S
C986 H1005 0.913 . S
C987 H963 0.950 . S
C987 C986 1.524 . S
C987 C988 1.415 . S
C988 H964 0.950 . S
C988 C983 1.363 . S
C988 C987 1.415 . S
C989 H965 0.951 . S
C989 C990 1.366 . S
C989 C991 1.388 . S
C990 C989 1.366 . S
C990 C994 1.385 . S
C991 H966 0.951 . S
C991 C989 1.388 . S
C991 C992 1.366 . S
C992 C991 1.366 . S
C992 C993 1.414 . S
C992 C995 1.499 . S
C993 H967 0.950 . S
C993 C992 1.414 . S
C993 C994 1.374 . S
C994 H968 0.950 . S
C994 C990 1.385 . S
C994 C993 1.374 . S
C995 C992 1.499 . S
C995 C996 1.373 . S
C995 C997 1.389 . S
C996 H969 0.950 . S
C996 C982 1.377 . S
C996 C995 1.373 . S
C997 C981 1.377 . S
C997 C995 1.389 . S
C997 C998 1.524 . S
C998 C997 1.524 . S
C998 C999 1.397 . S
C998 C1003 1.363 . S
C999 H970 0.950 . S
C999 C998 1.397 . S
C999 C1000 1.334 . S
C1000 H971 0.950 . S
C1000 C999 1.334 . S
C1000 C1001 1.287 . S
C1001 C1000 1.287 . S
C1001 C1002 1.524 . S
C1001 H1004 0.999 . S
C1002 H972 0.950 . S
C1002 C1001 1.524 . S
C1002 C1003 1.415 . S
C1003 H973 0.950 . S
C1003 C998 1.363 . S
C1003 C1002 1.415 . S
H1004 C1001 0.999 . S
H1005 C986 0.913 . S
H1006 C1024 0.951 . S
H1007 C1026 0.951 . S
H1008 C1028 0.950 . S
H1009 C1029 0.950 . S
H1010 C1031 0.950 . S
H1011 C1034 0.950 . S
H1012 C1035 0.950 . S
H1013 C1037 0.950 . S
H1014 C1038 0.950 . S
H1015 C1039 0.951 . S
H1016 C1041 0.951 . S
H1017 C1043 0.950 . S
H1018 C1044 0.950 . S
H1019 C1046 0.950 . S
H1020 C1049 0.950 . S
H1021 C1050 0.950 . S
H1022 C1052 0.950 . S
H1023 C1053 0.950 . S
C1024 H1006 0.951 . S
C1024 C1025 1.366 . S
C1024 C1026 1.388 . S
C1025 C1024 1.366 . S
C1025 C1029 1.385 . S
C1026 H1007 0.951 . S
C1026 C1024 1.388 . S
C1026 C1027 1.366 . S
C1027 C1026 1.366 . S
C1027 C1028 1.414 . S
C1027 C1030 1.499 . S
C1028 H1008 0.950 . S
C1028 C1027 1.414 . S
C1028 C1029 1.374 . S
C1029 H1009 0.950 . S
C1029 C1025 1.385 . S
C1029 C1028 1.374 . S
C1030 C1027 1.499 . S
C1030 C1031 1.373 . S
C1030 C1032 1.389 . S
C1031 H1010 0.950 . S
C1031 C1030 1.373 . S
C1031 C1047 1.377 . S
C1032 C1030 1.389 . S
C1032 C1033 1.524 . S
C1032 C1046 1.377 . S
C1033 C1032 1.524 . S
C1033 C1034 1.397 . S
C1033 C1038 1.363 . S
C1034 H1011 0.950 . S
C1034 C1033 1.397 . S
C1034 C1035 1.334 . S
C1035 H1012 0.950 . S
C1035 C1034 1.334 . S
C1035 C1036 1.287 . S
C1036 C1035 1.287 . S
C1036 C1037 1.524 . S
C1036 H1055 0.913 . S
C1037 H1013 0.950 . S
C1037 C1036 1.524 . S
C1037 C1038 1.415 . S
C1038 H1014 0.950 . S
C1038 C1033 1.363 . S
C1038 C1037 1.415 . S
C1039 H1015 0.951 . S
C1039 C1040 1.366 . S
C1039 C1041 1.388 . S
C1040 C1039 1.366 . S
C1040 C1044 1.385 . S
C1041 H1016 0.951 . S
C1041 C1039 1.388 . S
C1041 C1042 1.366 . S
C1042 C1041 1.366 . S
C1042 C1043 1.414 . S
C1042 C1045 1.499 . S
C1043 H1017 0.950 . S
C1043 C1042 1.414 . S
C1043 C1044 1.374 . S
C1044 H1018 0.950 . S
C1044 C1040 1.385 . S
C1044 C1043 1.374 . S
C1045 C1042 1.499 . S
C1045 C1046 1.373 . S
C1045 C1047 1.389 . S
C1046 H1019 0.950 . S
C1046 C1032 1.377 . S
C1046 C1045 1.373 . S
C1047 C1031 1.377 . S
C1047 C1045 1.389 . S
C1047 C1048 1.524 . S
C1048 C1047 1.524 . S
C1048 C1049 1.397 . S
C1048 C1053 1.363 . S
C1049 H1020 0.950 . S
C1049 C1048 1.397 . S
C1049 C1050 1.334 . S
C1050 H1021 0.950 . S
C1050 C1049 1.334 . S
C1050 C1051 1.287 . S
C1051 C1050 1.287 . S
C1051 C1052 1.524 . S
C1051 H1054 0.999 . S
C1052 H1022 0.950 . S
C1052 C1051 1.524 . S
C1052 C1053 1.415 . S
C1053 H1023 0.950 . S
C1053 C1048 1.363 . S
C1053 C1052 1.415 . S
H1054 C1051 0.999 . S
H1055 C1036 0.913 . S
H1056 C1074 0.951 . S
H1057 C1076 0.951 . S
H1058 C1078 0.950 . S
H1059 C1079 0.950 . S
H1060 C1081 0.950 . S
H1061 C1084 0.950 . S
H1062 C1085 0.950 . S
H1063 C1087 0.950 . S
H1064 C1088 0.950 . S
H1065 C1089 0.951 . S
H1066 C1091 0.951 . S
H1067 C1093 0.950 . S
H1068 C1094 0.950 . S
H1069 C1096 0.950 . S
H1070 C1099 0.950 . S
H1071 C1100 0.950 . S
H1072 C1102 0.950 . S
H1073 C1103 0.950 . S
C1074 H1056 0.951 . S
C1074 C1075 1.366 . S
C1074 C1076 1.388 . S
C1075 C1074 1.366 . S
C1075 C1079 1.385 . S
C1076 H1057 0.951 . S
C1076 C1074 1.388 . S
C1076 C1077 1.366 . S
C1077 C1076 1.366 . S
C1077 C1078 1.414 . S
C1077 C1080 1.499 . S
C1078 H1058 0.950 . S
C1078 C1077 1.414 . S
C1078 C1079 1.374 . S
C1079 H1059 0.950 . S
C1079 C1075 1.385 . S
C1079 C1078 1.374 . S
C1080 C1077 1.499 . S
C1080 C1081 1.373 . S
C1080 C1082 1.389 . S
C1081 H1060 0.950 . S
C1081 C1080 1.373 . S
C1081 C1097 1.377 . S
C1082 C1080 1.389 . S
C1082 C1083 1.524 . S
C1082 C1096 1.377 . S
C1083 C1082 1.524 . S
C1083 C1084 1.397 . S
C1083 C1088 1.363 . S
C1084 H1061 0.950 . S
C1084 C1083 1.397 . S
C1084 C1085 1.334 . S
C1085 H1062 0.950 . S
C1085 C1084 1.334 . S
C1085 C1086 1.287 . S
C1086 C1085 1.287 . S
C1086 C1087 1.524 . S
C1086 H1105 0.913 . S
C1087 H1063 0.950 . S
C1087 C1086 1.524 . S
C1087 C1088 1.415 . S
C1088 H1064 0.950 . S
C1088 C1083 1.363 . S
C1088 C1087 1.415 . S
C1089 H1065 0.951 . S
C1089 C1090 1.366 . S
C1089 C1091 1.388 . S
C1090 C1089 1.366 . S
C1090 C1094 1.385 . S
C1091 H1066 0.951 . S
C1091 C1089 1.388 . S
C1091 C1092 1.366 . S
C1092 C1091 1.366 . S
C1092 C1093 1.414 . S
C1092 C1095 1.499 . S
C1093 H1067 0.950 . S
C1093 C1092 1.414 . S
C1093 C1094 1.374 . S
C1094 H1068 0.950 . S
C1094 C1090 1.385 . S
C1094 C1093 1.374 . S
C1095 C1092 1.499 . S
C1095 C1096 1.373 . S
C1095 C1097 1.389 . S
C1096 H1069 0.950 . S
C1096 C1082 1.377 . S
C1096 C1095 1.373 . S
C1097 C1081 1.377 . S
C1097 C1095 1.389 . S
C1097 C1098 1.524 . S
C1098 C1097 1.524 . S
C1098 C1099 1.397 . S
C1098 C1103 1.363 . S
C1099 H1070 0.950 . S
C1099 C1098 1.397 . S
C1099 C1100 1.334 . S
C1100 H1071 0.950 . S
C1100 C1099 1.334 . S
C1100 C1101 1.287 . S
C1101 C1100 1.287 . S
C1101 C1102 1.524 . S
C1101 H1104 0.999 . S
C1102 H1072 0.950 . S
C1102 C1101 1.524 . S
C1102 C1103 1.415 . S
C1103 H1073 0.950 . S
C1103 C1098 1.363 . S
C1103 C1102 1.415 . S
H1104 C1101 0.999 . S
H1105 C1086 0.913 . S
H1106 C1124 0.951 . S
H1107 C1126 0.951 . S
H1108 C1128 0.950 . S
H1109 C1129 0.950 . S
H1110 C1131 0.950 . S
H1111 C1134 0.950 . S
H1112 C1135 0.950 . S
H1113 C1137 0.950 . S
H1114 C1138 0.950 . S
H1115 C1139 0.951 . S
H1116 C1141 0.951 . S
H1117 C1143 0.950 . S
H1118 C1144 0.950 . S
H1119 C1146 0.950 . S
H1120 C1149 0.950 . S
H1121 C1150 0.950 . S
H1122 C1152 0.950 . S
H1123 C1153 0.950 . S
C1124 H1106 0.951 . S
C1124 C1125 1.366 . S
C1124 C1126 1.388 . S
C1125 C1124 1.366 . S
C1125 C1129 1.385 . S
C1126 H1107 0.951 . S
C1126 C1124 1.388 . S
C1126 C1127 1.366 . S
C1127 C1126 1.366 . S
C1127 C1128 1.414 . S
C1127 C1130 1.499 . S
C1128 H1108 0.950 . S
C1128 C1127 1.414 . S
C1128 C1129 1.374 . S
C1129 H1109 0.950 . S
C1129 C1125 1.385 . S
C1129 C1128 1.374 . S
C1130 C1127 1.499 . S
C1130 C1131 1.373 . S
C1130 C1132 1.389 . S
C1131 H1110 0.950 . S
C1131 C1130 1.373 . S
C1131 C1147 1.377 . S
C1132 C1130 1.389 . S
C1132 C1133 1.524 . S
C1132 C1146 1.377 . S
C1133 C1132 1.524 . S
C1133 C1134 1.397 . S
C1133 C1138 1.363 . S
C1134 H1111 0.950 . S
C1134 C1133 1.397 . S
C1134 C1135 1.334 . S
C1135 H1112 0.950 . S
C1135 C1134 1.334 . S
C1135 C1136 1.287 . S
C1136 C1135 1.287 . S
C1136 C1137 1.524 . S
C1136 H1155 0.913 . S
C1137 H1113 0.950 . S
C1137 C1136 1.524 . S
C1137 C1138 1.415 . S
C1138 H1114 0.950 . S
C1138 C1133 1.363 . S
C1138 C1137 1.415 . S
C1139 H1115 0.951 . S
C1139 C1140 1.366 . S
C1139 C1141 1.388 . S
C1140 C1139 1.366 . S
C1140 C1144 1.385 . S
C1141 H1116 0.951 . S
C1141 C1139 1.388 . S
C1141 C1142 1.366 . S
C1142 C1141 1.366 . S
C1142 C1143 1.414 . S
C1142 C1145 1.499 . S
C1143 H1117 0.950 . S
C1143 C1142 1.414 . S
C1143 C1144 1.374 . S
C1144 H1118 0.950 . S
C1144 C1140 1.385 . S
C1144 C1143 1.374 . S
C1145 C1142 1.499 . S
C1145 C1146 1.373 . S
C1145 C1147 1.389 . S
C1146 H1119 0.950 . S
C1146 C1132 1.377 . S
C1146 C1145 1.373 . S
C1147 C1131 1.377 . S
C1147 C1145 1.389 . S
C1147 C1148 1.524 . S
C1148 C1147 1.524 . S
C1148 C1149 1.397 . S
C1148 C1153 1.363 . S
C1149 H1120 0.950 . S
C1149 C1148 1.397 . S
C1149 C1150 1.334 . S
C1150 H1121 0.950 . S
C1150 C1149 1.334 . S
C1150 C1151 1.287 . S
C1151 C1150 1.287 . S
C1151 C1152 1.524 . S
C1151 H1154 0.999 . S
C1152 H1122 0.950 . S
C1152 C1151 1.524 . S
C1152 C1153 1.415 . S
C1153 H1123 0.950 . S
C1153 C1148 1.363 . S
C1153 C1152 1.415 . S
H1154 C1151 0.999 . S
H1155 C1136 0.913 . S
H1156 C1174 0.951 . S
H1157 C1176 0.951 . S
H1158 C1178 0.950 . S
H1159 C1179 0.950 . S
H1160 C1181 0.950 . S
H1161 C1184 0.950 . S
H1162 C1185 0.950 . S
H1163 C1187 0.950 . S
H1164 C1188 0.950 . S
H1165 C1189 0.951 . S
H1166 C1191 0.951 . S
H1167 C1193 0.950 . S
H1168 C1194 0.950 . S
H1169 C1196 0.950 . S
H1170 C1199 0.950 . S
H1171 C1200 0.950 . S
H1172 C1202 0.950 . S
H1173 C1203 0.950 . S
C1174 H1156 0.951 . S
C1174 C1175 1.366 . S
C1174 C1176 1.388 . S
C1175 C1174 1.366 . S
C1175 C1179 1.385 . S
C1176 H1157 0.951 . S
C1176 C1174 1.388 . S
C1176 C1177 1.366 . S
C1177 C1176 1.366 . S
C1177 C1178 1.414 . S
C1177 C1180 1.499 . S
C1178 H1158 0.950 . S
C1178 C1177 1.414 . S
C1178 C1179 1.374 . S
C1179 H1159 0.950 . S
C1179 C1175 1.385 . S
C1179 C1178 1.374 . S
C1180 C1177 1.499 . S
C1180 C1181 1.373 . S
C1180 C1182 1.389 . S
C1181 H1160 0.950 . S
C1181 C1180 1.373 . S
C1181 C1197 1.377 . S
C1182 C1180 1.389 . S
C1182 C1183 1.524 . S
C1182 C1196 1.377 . S
C1183 C1182 1.524 . S
C1183 C1184 1.397 . S
C1183 C1188 1.363 . S
C1184 H1161 0.950 . S
C1184 C1183 1.397 . S
C1184 C1185 1.334 . S
C1185 H1162 0.950 . S
C1185 C1184 1.334 . S
C1185 C1186 1.287 . S
C1186 C1185 1.287 . S
C1186 C1187 1.524 . S
C1186 H1205 0.913 . S
C1187 H1163 0.950 . S
C1187 C1186 1.524 . S
C1187 C1188 1.415 . S
C1188 H1164 0.950 . S
C1188 C1183 1.363 . S
C1188 C1187 1.415 . S
C1189 H1165 0.951 . S
C1189 C1190 1.366 . S
C1189 C1191 1.388 . S
C1190 C1189 1.366 . S
C1190 C1194 1.385 . S
C1191 H1166 0.951 . S
C1191 C1189 1.388 . S
C1191 C1192 1.366 . S
C1192 C1191 1.366 . S
C1192 C1193 1.414 . S
C1192 C1195 1.499 . S
C1193 H1167 0.950 . S
C1193 C1192 1.414 . S
C1193 C1194 1.374 . S
C1194 H1168 0.950 . S
C1194 C1190 1.385 . S
C1194 C1193 1.374 . S
C1195 C1192 1.499 . S
C1195 C1196 1.373 . S
C1195 C1197 1.389 . S
C1196 H1169 0.950 . S
C1196 C1182 1.377 . S
C1196 C1195 1.373 . S
C1197 C1181 1.377 . S
C1197 C1195 1.389 . S
C1197 C1198 1.524 . S
C1198 C1197 1.524 . S
C1198 C1199 1.397 . S
C1198 C1203 1.363 . S
C1199 H1170 0.950 . S
C1199 C1198 1.397 . S
C1199 C1200 1.334 . S
C1200 H1171 0.950 . S
C1200 C1199 1.334 . S
C1200 C1201 1.287 . S
C1201 C1200 1.287 . S
C1201 C1202 1.524 . S
C1201 H1204 0.999 . S
C1202 H1172 0.950 . S
C1202 C1201 1.524 . S
C1202 C1203 1.415 . S
C1203 H1173 0.950 . S
C1203 C1198 1.363 . S
C1203 C1202 1.415 . S
H1204 C1201 0.999 . S
H1205 C1186 0.913 . S
H1206 C1224 0.951 . S
H1207 C1226 0.951 . S
H1208 C1228 0.950 . S
H1209 C1229 0.950 . S
H1210 C1231 0.950 . S
H1211 C1234 0.950 . S
H1212 C1235 0.950 . S
H1213 C1237 0.950 . S
H1214 C1238 0.950 . S
H1215 C1239 0.951 . S
H1216 C1241 0.951 . S
H1217 C1243 0.950 . S
H1218 C1244 0.950 . S
H1219 C1246 0.950 . S
H1220 C1249 0.950 . S
H1221 C1250 0.950 . S
H1222 C1252 0.950 . S
H1223 C1253 0.950 . S
C1224 H1206 0.951 . S
C1224 C1225 1.366 . S
C1224 C1226 1.388 . S
C1225 C1224 1.366 . S
C1225 C1229 1.385 . S
C1226 H1207 0.951 . S
C1226 C1224 1.388 . S
C1226 C1227 1.366 . S
C1227 C1226 1.366 . S
C1227 C1228 1.414 . S
C1227 C1230 1.499 . S
C1228 H1208 0.950 . S
C1228 C1227 1.414 . S
C1228 C1229 1.374 . S
C1229 H1209 0.950 . S
C1229 C1225 1.385 . S
C1229 C1228 1.374 . S
C1230 C1227 1.499 . S
C1230 C1231 1.373 . S
C1230 C1232 1.389 . S
C1231 H1210 0.950 . S
C1231 C1230 1.373 . S
C1231 C1247 1.377 . S
C1232 C1230 1.389 . S
C1232 C1233 1.524 . S
C1232 C1246 1.377 . S
C1233 C1232 1.524 . S
C1233 C1234 1.397 . S
C1233 C1238 1.363 . S
C1234 H1211 0.950 . S
C1234 C1233 1.397 . S
C1234 C1235 1.334 . S
C1235 H1212 0.950 . S
C1235 C1234 1.334 . S
C1235 C1236 1.287 . S
C1236 C1235 1.287 . S
C1236 C1237 1.524 . S
C1236 H1255 0.913 1_455 S
C1237 H1213 0.950 . S
C1237 C1236 1.524 . S
C1237 C1238 1.415 . S
C1238 H1214 0.950 . S
C1238 C1233 1.363 . S
C1238 C1237 1.415 . S
C1239 H1215 0.951 . S
C1239 C1240 1.366 . S
C1239 C1241 1.388 . S
C1240 C1239 1.366 . S
C1240 C1244 1.385 . S
C1241 H1216 0.951 . S
C1241 C1239 1.388 . S
C1241 C1242 1.366 . S
C1242 C1241 1.366 . S
C1242 C1243 1.414 . S
C1242 C1245 1.499 . S
C1243 H1217 0.950 . S
C1243 C1242 1.414 . S
C1243 C1244 1.374 . S
C1244 H1218 0.950 . S
C1244 C1240 1.385 . S
C1244 C1243 1.374 . S
C1245 C1242 1.499 . S
C1245 C1246 1.373 . S
C1245 C1247 1.389 . S
C1246 H1219 0.950 . S
C1246 C1232 1.377 . S
C1246 C1245 1.373 . S
C1247 C1231 1.377 . S
C1247 C1245 1.389 . S
C1247 C1248 1.524 . S
C1248 C1247 1.524 . S
C1248 C1249 1.397 . S
C1248 C1253 1.363 . S
C1249 H1220 0.950 . S
C1249 C1248 1.397 . S
C1249 C1250 1.334 . S
C1250 H1221 0.950 . S
C1250 C1249 1.334 . S
C1250 C1251 1.287 . S
C1251 C1250 1.287 . S
C1251 C1252 1.524 . S
C1251 H1254 0.999 . S
C1252 H1222 0.950 . S
C1252 C1251 1.524 . S
C1252 C1253 1.415 . S
C1253 H1223 0.950 . S
C1253 C1248 1.363 . S
C1253 C1252 1.415 . S
H1254 C1251 0.999 . S
H1255 C1236 0.913 1_655 S
H1256 C1274 0.951 . S
H1257 C1276 0.951 . S
H1258 C1278 0.950 . S
H1259 C1279 0.950 . S
H1260 C1281 0.950 . S
H1261 C1284 0.950 . S
H1262 C1285 0.950 . S
H1263 C1287 0.950 . S
H1264 C1288 0.950 . S
H1265 C1289 0.951 . S
H1266 C1291 0.951 . S
H1267 C1293 0.950 . S
H1268 C1294 0.950 . S
H1269 C1296 0.950 . S
H1270 C1299 0.950 . S
H1271 C1300 0.950 . S
H1272 C1302 0.950 . S
H1273 C1303 0.950 . S
C1274 H1256 0.951 . S
C1274 C1275 1.366 . S
C1274 C1276 1.388 . S
C1275 C1274 1.366 . S
C1275 C1279 1.385 . S
C1276 H1257 0.951 . S
C1276 C1274 1.388 . S
C1276 C1277 1.366 . S
C1277 C1276 1.366 . S
C1277 C1278 1.414 . S
C1277 C1280 1.499 . S
C1278 H1258 0.950 . S
C1278 C1277 1.414 . S
C1278 C1279 1.374 . S
C1279 H1259 0.950 . S
C1279 C1275 1.385 . S
C1279 C1278 1.374 . S
C1280 C1277 1.499 . S
C1280 C1281 1.373 . S
C1280 C1282 1.389 . S
C1281 H1260 0.950 . S
C1281 C1280 1.373 . S
C1281 C1297 1.377 . S
C1282 C1280 1.389 . S
C1282 C1283 1.524 . S
C1282 C1296 1.377 . S
C1283 C1282 1.524 . S
C1283 C1284 1.397 . S
C1283 C1288 1.363 . S
C1284 H1261 0.950 . S
C1284 C1283 1.397 . S
C1284 C1285 1.334 . S
C1285 H1262 0.950 . S
C1285 C1284 1.334 . S
C1285 C1286 1.287 . S
C1286 C1285 1.287 . S
C1286 C1287 1.524 . S
C1286 H1305 0.913 . S
C1287 H1263 0.950 . S
C1287 C1286 1.524 . S
C1287 C1288 1.415 . S
C1288 H1264 0.950 . S
C1288 C1283 1.363 . S
C1288 C1287 1.415 . S
C1289 H1265 0.951 . S
C1289 C1290 1.366 . S
C1289 C1291 1.388 . S
C1290 C1289 1.366 . S
C1290 C1294 1.385 . S
C1291 H1266 0.951 . S
C1291 C1289 1.388 . S
C1291 C1292 1.366 . S
C1292 C1291 1.366 . S
C1292 C1293 1.414 . S
C1292 C1295 1.499 . S
C1293 H1267 0.950 . S
C1293 C1292 1.414 . S
C1293 C1294 1.374 . S
C1294 H1268 0.950 . S
C1294 C1290 1.385 . S
C1294 C1293 1.374 . S
C1295 C1292 1.499 . S
C1295 C1296 1.373 . S
C1295 C1297 1.389 . S
C1296 H1269 0.950 . S
C1296 C1282 1.377 . S
C1296 C1295 1.373 . S
C1297 C1281 1.377 . S
C1297 C1295 1.389 . S
C1297 C1298 1.524 . S
C1298 C1297 1.524 . S
C1298 C1299 1.397 . S
C1298 C1303 1.363 . S
C1299 H1270 0.950 . S
C1299 C1298 1.397 . S
C1299 C1300 1.334 . S
C1300 H1271 0.950 . S
C1300 C1299 1.334 . S
C1300 C1301 1.287 . S
C1301 C1300 1.287 . S
C1301 C1302 1.524 . S
C1301 H1304 0.999 . S
C1302 H1272 0.950 . S
C1302 C1301 1.524 . S
C1302 C1303 1.415 . S
C1303 H1273 0.950 . S
C1303 C1298 1.363 . S
C1303 C1302 1.415 . S
H1304 C1301 0.999 . S
H1305 C1286 0.913 . S
H1306 C1324 0.951 . S
H1307 C1326 0.951 . S
H1308 C1328 0.950 . S
H1309 C1329 0.950 . S
H1310 C1331 0.950 . S
H1311 C1334 0.950 . S
H1312 C1335 0.950 . S
H1313 C1337 0.950 . S
H1314 C1338 0.950 . S
H1315 C1339 0.951 . S
H1316 C1341 0.951 . S
H1317 C1343 0.950 . S
H1318 C1344 0.950 . S
H1319 C1346 0.950 . S
H1320 C1349 0.950 . S
H1321 C1350 0.950 . S
H1322 C1352 0.950 . S
H1323 C1353 0.950 . S
C1324 H1306 0.951 . S
C1324 C1325 1.366 . S
C1324 C1326 1.388 . S
C1325 C1324 1.366 . S
C1325 C1329 1.385 . S
C1326 H1307 0.951 . S
C1326 C1324 1.388 . S
C1326 C1327 1.366 . S
C1327 C1326 1.366 . S
C1327 C1328 1.414 . S
C1327 C1330 1.499 . S
C1328 H1308 0.950 . S
C1328 C1327 1.414 . S
C1328 C1329 1.374 . S
C1329 H1309 0.950 . S
C1329 C1325 1.385 . S
C1329 C1328 1.374 . S
C1330 C1327 1.499 . S
C1330 C1331 1.373 . S
C1330 C1332 1.389 . S
C1331 H1310 0.950 . S
C1331 C1330 1.373 . S
C1331 C1347 1.377 . S
C1332 C1330 1.389 . S
C1332 C1333 1.524 . S
C1332 C1346 1.377 . S
C1333 C1332 1.524 . S
C1333 C1334 1.397 . S
C1333 C1338 1.363 . S
C1334 H1311 0.950 . S
C1334 C1333 1.397 . S
C1334 C1335 1.334 . S
C1335 H1312 0.950 . S
C1335 C1334 1.334 . S
C1335 C1336 1.287 . S
C1336 C1335 1.287 . S
C1336 C1337 1.524 . S
C1336 H1355 0.913 . S
C1337 H1313 0.950 . S
C1337 C1336 1.524 . S
C1337 C1338 1.415 . S
C1338 H1314 0.950 . S
C1338 C1333 1.363 . S
C1338 C1337 1.415 . S
C1339 H1315 0.951 . S
C1339 C1340 1.366 . S
C1339 C1341 1.388 . S
C1340 C1339 1.366 . S
C1340 C1344 1.385 . S
C1341 H1316 0.951 . S
C1341 C1339 1.388 . S
C1341 C1342 1.366 . S
C1342 C1341 1.366 . S
C1342 C1343 1.414 . S
C1342 C1345 1.499 . S
C1343 H1317 0.950 . S
C1343 C1342 1.414 . S
C1343 C1344 1.374 . S
C1344 H1318 0.950 . S
C1344 C1340 1.385 . S
C1344 C1343 1.374 . S
C1345 C1342 1.499 . S
C1345 C1346 1.373 . S
C1345 C1347 1.389 . S
C1346 H1319 0.950 . S
C1346 C1332 1.377 . S
C1346 C1345 1.373 . S
C1347 C1331 1.377 . S
C1347 C1345 1.389 . S
C1347 C1348 1.524 . S
C1348 C1347 1.524 . S
C1348 C1349 1.397 . S
C1348 C1353 1.363 . S
C1349 H1320 0.950 . S
C1349 C1348 1.397 . S
C1349 C1350 1.334 . S
C1350 H1321 0.950 . S
C1350 C1349 1.334 . S
C1350 C1351 1.287 . S
C1351 C1350 1.287 . S
C1351 C1352 1.524 . S
C1351 H1354 0.999 . S
C1352 H1322 0.950 . S
C1352 C1351 1.524 . S
C1352 C1353 1.415 . S
C1353 H1323 0.950 . S
C1353 C1348 1.363 . S
C1353 C1352 1.415 . S
H1354 C1351 0.999 . S
H1355 C1336 0.913 . S
H1356 C1374 0.951 . S
H1357 C1376 0.951 . S
H1358 C1378 0.950 . S
H1359 C1379 0.950 . S
H1360 C1381 0.950 . S
H1361 C1384 0.950 . S
H1362 C1385 0.950 . S
H1363 C1387 0.950 . S
H1364 C1388 0.950 . S
H1365 C1389 0.951 . S
H1366 C1391 0.951 . S
H1367 C1393 0.950 . S
H1368 C1394 0.950 . S
H1369 C1396 0.950 . S
H1370 C1399 0.950 . S
H1371 C1400 0.950 . S
H1372 C1402 0.950 . S
H1373 C1403 0.950 . S
C1374 H1356 0.951 . S
C1374 C1375 1.366 . S
C1374 C1376 1.388 . S
C1375 C1374 1.366 . S
C1375 C1379 1.385 . S
C1376 H1357 0.951 . S
C1376 C1374 1.388 . S
C1376 C1377 1.366 . S
C1377 C1376 1.366 . S
C1377 C1378 1.414 . S
C1377 C1380 1.499 . S
C1378 H1358 0.950 . S
C1378 C1377 1.414 . S
C1378 C1379 1.374 . S
C1379 H1359 0.950 . S
C1379 C1375 1.385 . S
C1379 C1378 1.374 . S
C1380 C1377 1.499 . S
C1380 C1381 1.373 . S
C1380 C1382 1.389 . S
C1381 H1360 0.950 . S
C1381 C1380 1.373 . S
C1381 C1397 1.377 . S
C1382 C1380 1.389 . S
C1382 C1383 1.524 . S
C1382 C1396 1.377 . S
C1383 C1382 1.524 . S
C1383 C1384 1.397 . S
C1383 C1388 1.363 . S
C1384 H1361 0.950 . S
C1384 C1383 1.397 . S
C1384 C1385 1.334 . S
C1385 H1362 0.950 . S
C1385 C1384 1.334 . S
C1385 C1386 1.287 . S
C1386 C1385 1.287 . S
C1386 C1387 1.524 . S
C1386 H1405 0.913 . S
C1387 H1363 0.950 . S
C1387 C1386 1.524 . S
C1387 C1388 1.415 . S
C1388 H1364 0.950 . S
C1388 C1383 1.363 . S
C1388 C1387 1.415 . S
C1389 H1365 0.951 . S
C1389 C1390 1.366 . S
C1389 C1391 1.388 . S
C1390 C1389 1.366 . S
C1390 C1394 1.385 . S
C1391 H1366 0.951 . S
C1391 C1389 1.388 . S
C1391 C1392 1.366 . S
C1392 C1391 1.366 . S
C1392 C1393 1.414 . S
C1392 C1395 1.499 . S
C1393 H1367 0.950 . S
C1393 C1392 1.414 . S
C1393 C1394 1.374 . S
C1394 H1368 0.950 . S
C1394 C1390 1.385 . S
C1394 C1393 1.374 . S
C1395 C1392 1.499 . S
C1395 C1396 1.373 . S
C1395 C1397 1.389 . S
C1396 H1369 0.950 . S
C1396 C1382 1.377 . S
C1396 C1395 1.373 . S
C1397 C1381 1.377 . S
C1397 C1395 1.389 . S
C1397 C1398 1.524 . S
C1398 C1397 1.524 . S
C1398 C1399 1.397 . S
C1398 C1403 1.363 . S
C1399 H1370 0.950 . S
C1399 C1398 1.397 . S
C1399 C1400 1.334 . S
C1400 H1371 0.950 . S
C1400 C1399 1.334 . S
C1400 C1401 1.287 . S
C1401 C1400 1.287 . S
C1401 C1402 1.524 . S
C1401 H1404 0.999 . S
C1402 H1372 0.950 . S
C1402 C1401 1.524 . S
C1402 C1403 1.415 . S
C1403 H1373 0.950 . S
C1403 C1398 1.363 . S
C1403 C1402 1.415 . S
H1404 C1401 0.999 . S
H1405 C1386 0.913 . S
H1406 C1424 0.951 . S
H1407 C1426 0.951 . S
H1408 C1428 0.950 . S
H1409 C1429 0.950 . S
H1410 C1431 0.950 . S
H1411 C1434 0.950 . S
H1412 C1435 0.950 . S
H1413 C1437 0.950 . S
H1414 C1438 0.950 . S
H1415 C1439 0.951 . S
H1416 C1441 0.951 . S
H1417 C1443 0.950 . S
H1418 C1444 0.950 . S
H1419 C1446 0.950 . S
H1420 C1449 0.950 . S
H1421 C1450 0.950 . S
H1422 C1452 0.950 . S
H1423 C1453 0.950 . S
C1424 H1406 0.951 . S
C1424 C1425 1.366 . S
C1424 C1426 1.388 . S
C1425 C1424 1.366 . S
C1425 C1429 1.385 . S
C1426 H1407 0.951 . S
C1426 C1424 1.388 . S
C1426 C1427 1.366 . S
C1427 C1426 1.366 . S
C1427 C1428 1.414 . S
C1427 C1430 1.499 . S
C1428 H1408 0.950 . S
C1428 C1427 1.414 . S
C1428 C1429 1.374 . S
C1429 H1409 0.950 . S
C1429 C1425 1.385 . S
C1429 C1428 1.374 . S
C1430 C1427 1.499 . S
C1430 C1431 1.373 . S
C1430 C1432 1.389 . S
C1431 H1410 0.950 . S
C1431 C1430 1.373 . S
C1431 C1447 1.377 . S
C1432 C1430 1.389 . S
C1432 C1433 1.524 . S
C1432 C1446 1.377 . S
C1433 C1432 1.524 . S
C1433 C1434 1.397 . S
C1433 C1438 1.363 . S
C1434 H1411 0.950 . S
C1434 C1433 1.397 . S
C1434 C1435 1.334 . S
C1435 H1412 0.950 . S
C1435 C1434 1.334 . S
C1435 C1436 1.287 . S
C1436 C1435 1.287 . S
C1436 C1437 1.524 . S
C1436 H1455 0.913 . S
C1437 H1413 0.950 . S
C1437 C1436 1.524 . S
C1437 C1438 1.415 . S
C1438 H1414 0.950 . S
C1438 C1433 1.363 . S
C1438 C1437 1.415 . S
C1439 H1415 0.951 . S
C1439 C1440 1.366 . S
C1439 C1441 1.388 . S
C1440 C1439 1.366 . S
C1440 C1444 1.385 . S
C1441 H1416 0.951 . S
C1441 C1439 1.388 . S
C1441 C1442 1.366 . S
C1442 C1441 1.366 . S
C1442 C1443 1.414 . S
C1442 C1445 1.499 . S
C1443 H1417 0.950 . S
C1443 C1442 1.414 . S
C1443 C1444 1.374 . S
C1444 H1418 0.950 . S
C1444 C1440 1.385 . S
C1444 C1443 1.374 . S
C1445 C1442 1.499 . S
C1445 C1446 1.373 . S
C1445 C1447 1.389 . S
C1446 H1419 0.950 . S
C1446 C1432 1.377 . S
C1446 C1445 1.373 . S
C1447 C1431 1.377 . S
C1447 C1445 1.389 . S
C1447 C1448 1.524 . S
C1448 C1447 1.524 . S
C1448 C1449 1.397 . S
C1448 C1453 1.363 . S
C1449 H1420 0.950 . S
C1449 C1448 1.397 . S
C1449 C1450 1.334 . S
C1450 H1421 0.950 . S
C1450 C1449 1.334 . S
C1450 C1451 1.287 . S
C1451 C1450 1.287 . S
C1451 C1452 1.524 . S
C1451 H1454 0.999 . S
C1452 H1422 0.950 . S
C1452 C1451 1.524 . S
C1452 C1453 1.415 . S
C1453 H1423 0.950 . S
C1453 C1448 1.363 . S
C1453 C1452 1.415 . S
H1454 C1451 0.999 . S
H1455 C1436 0.913 . S
H1456 C1474 0.951 . S
H1457 C1476 0.951 . S
H1458 C1478 0.950 . S
H1459 C1479 0.950 . S
H1460 C1481 0.950 . S
H1461 C1484 0.950 . S
H1462 C1485 0.950 . S
H1463 C1487 0.950 . S
H1464 C1488 0.950 . S
H1465 C1489 0.951 . S
H1466 C1491 0.951 . S
H1467 C1493 0.950 . S
H1468 C1494 0.950 . S
H1469 C1496 0.950 . S
H1470 C1499 0.950 . S
H1471 C1500 0.950 . S
H1472 C1502 0.950 . S
H1473 C1503 0.950 . S
C1474 H1456 0.951 . S
C1474 C1475 1.366 . S
C1474 C1476 1.388 . S
C1475 C1474 1.366 . S
C1475 C1479 1.385 . S
C1476 H1457 0.951 . S
C1476 C1474 1.388 . S
C1476 C1477 1.366 . S
C1477 C1476 1.366 . S
C1477 C1478 1.414 . S
C1477 C1480 1.499 . S
C1478 H1458 0.950 . S
C1478 C1477 1.414 . S
C1478 C1479 1.374 . S
C1479 H1459 0.950 . S
C1479 C1475 1.385 . S
C1479 C1478 1.374 . S
C1480 C1477 1.499 . S
C1480 C1481 1.373 . S
C1480 C1482 1.389 . S
C1481 H1460 0.950 . S
C1481 C1480 1.373 . S
C1481 C1497 1.377 . S
C1482 C1480 1.389 . S
C1482 C1483 1.524 . S
C1482 C1496 1.377 . S
C1483 C1482 1.524 . S
C1483 C1484 1.397 . S
C1483 C1488 1.363 . S
C1484 H1461 0.950 . S
C1484 C1483 1.397 . S
C1484 C1485 1.334 . S
C1485 H1462 0.950 . S
C1485 C1484 1.334 . S
C1485 C1486 1.287 . S
C1486 C1485 1.287 . S
C1486 C1487 1.524 . S
C1486 H1505 0.913 . S
C1487 H1463 0.950 . S
C1487 C1486 1.524 . S
C1487 C1488 1.415 . S
C1488 H1464 0.950 . S
C1488 C1483 1.363 . S
C1488 C1487 1.415 . S
C1489 H1465 0.951 . S
C1489 C1490 1.366 . S
C1489 C1491 1.388 . S
C1490 C1489 1.366 . S
C1490 C1494 1.385 . S
C1491 H1466 0.951 . S
C1491 C1489 1.388 . S
C1491 C1492 1.366 . S
C1492 C1491 1.366 . S
C1492 C1493 1.414 . S
C1492 C1495 1.499 . S
C1493 H1467 0.950 . S
C1493 C1492 1.414 . S
C1493 C1494 1.374 . S
C1494 H1468 0.950 . S
C1494 C1490 1.385 . S
C1494 C1493 1.374 . S
C1495 C1492 1.499 . S
C1495 C1496 1.373 . S
C1495 C1497 1.389 . S
C1496 H1469 0.950 . S
C1496 C1482 1.377 . S
C1496 C1495 1.373 . S
C1497 C1481 1.377 . S
C1497 C1495 1.389 . S
C1497 C1498 1.524 . S
C1498 C1497 1.524 . S
C1498 C1499 1.397 . S
C1498 C1503 1.363 . S
C1499 H1470 0.950 . S
C1499 C1498 1.397 . S
C1499 C1500 1.334 . S
C1500 H1471 0.950 . S
C1500 C1499 1.334 . S
C1500 C1501 1.287 . S
C1501 C1500 1.287 . S
C1501 C1502 1.524 . S
C1501 H1504 0.999 . S
C1502 H1472 0.950 . S
C1502 C1501 1.524 . S
C1502 C1503 1.415 . S
C1503 H1473 0.950 . S
C1503 C1498 1.363 . S
C1503 C1502 1.415 . S
H1504 C1501 0.999 . S
H1505 C1486 0.913 . S
H1506 C1524 0.951 . S
H1507 C1526 0.951 . S
H1508 C1528 0.950 . S
H1509 C1529 0.950 . S
H1510 C1531 0.950 . S
H1511 C1534 0.950 . S
H1512 C1535 0.950 . S
H1513 C1537 0.950 . S
H1514 C1538 0.950 . S
H1515 C1539 0.951 . S
H1516 C1541 0.951 . S
H1517 C1543 0.950 . S
H1518 C1544 0.950 . S
H1519 C1546 0.950 . S
H1520 C1549 0.950 . S
H1521 C1550 0.950 . S
H1522 C1552 0.950 . S
H1523 C1553 0.950 . S
C1524 H1506 0.951 . S
C1524 C1525 1.366 . S
C1524 C1526 1.388 . S
C1525 C1524 1.366 . S
C1525 C1529 1.385 . S
C1526 H1507 0.951 . S
C1526 C1524 1.388 . S
C1526 C1527 1.366 . S
C1527 C1526 1.366 . S
C1527 C1528 1.414 . S
C1527 C1530 1.499 . S
C1528 H1508 0.950 . S
C1528 C1527 1.414 . S
C1528 C1529 1.374 . S
C1529 H1509 0.950 . S
C1529 C1525 1.385 . S
C1529 C1528 1.374 . S
C1530 C1527 1.499 . S
C1530 C1531 1.373 . S
C1530 C1532 1.389 . S
C1531 H1510 0.950 . S
C1531 C1530 1.373 . S
C1531 C1547 1.377 . S
C1532 C1530 1.389 . S
C1532 C1533 1.524 . S
C1532 C1546 1.377 . S
C1533 C1532 1.524 . S
C1533 C1534 1.397 . S
C1533 C1538 1.363 . S
C1534 H1511 0.950 . S
C1534 C1533 1.397 . S
C1534 C1535 1.334 . S
C1535 H1512 0.950 . S
C1535 C1534 1.334 . S
C1535 C1536 1.287 . S
C1536 C1535 1.287 . S
C1536 C1537 1.524 . S
C1536 H1555 0.913 . S
C1537 H1513 0.950 . S
C1537 C1536 1.524 . S
C1537 C1538 1.415 . S
C1538 H1514 0.950 . S
C1538 C1533 1.363 . S
C1538 C1537 1.415 . S
C1539 H1515 0.951 . S
C1539 C1540 1.366 . S
C1539 C1541 1.388 . S
C1540 C1539 1.366 . S
C1540 C1544 1.385 . S
C1541 H1516 0.951 . S
C1541 C1539 1.388 . S
C1541 C1542 1.366 . S
C1542 C1541 1.366 . S
C1542 C1543 1.414 . S
C1542 C1545 1.499 . S
C1543 H1517 0.950 . S
C1543 C1542 1.414 . S
C1543 C1544 1.374 . S
C1544 H1518 0.950 . S
C1544 C1540 1.385 . S
C1544 C1543 1.374 . S
C1545 C1542 1.499 . S
C1545 C1546 1.373 . S
C1545 C1547 1.389 . S
C1546 H1519 0.950 . S
C1546 C1532 1.377 . S
C1546 C1545 1.373 . S
C1547 C1531 1.377 . S
C1547 C1545 1.389 . S
C1547 C1548 1.524 . S
C1548 C1547 1.524 . S
C1548 C1549 1.397 . S
C1548 C1553 1.363 . S
C1549 H1520 0.950 . S
C1549 C1548 1.397 . S
C1549 C1550 1.334 . S
C1550 H1521 0.950 . S
C1550 C1549 1.334 . S
C1550 C1551 1.287 . S
C1551 C1550 1.287 . S
C1551 C1552 1.524 . S
C1551 H1554 0.999 . S
C1552 H1522 0.950 . S
C1552 C1551 1.524 . S
C1552 C1553 1.415 . S
C1553 H1523 0.950 . S
C1553 C1548 1.363 . S
C1553 C1552 1.415 . S
H1554 C1551 0.999 . S
H1555 C1536 0.913 . S
H1556 C1574 0.951 . S
H1557 C1576 0.951 . S
H1558 C1578 0.950 . S
H1559 C1579 0.950 . S
H1560 C1581 0.950 . S
H1561 C1584 0.950 . S
H1562 C1585 0.950 . S
H1563 C1587 0.950 . S
H1564 C1588 0.950 . S
H1565 C1589 0.951 . S
H1566 C1591 0.951 . S
H1567 C1593 0.950 . S
H1568 C1594 0.950 . S
H1569 C1596 0.950 . S
H1570 C1599 0.950 . S
H1571 C1600 0.950 . S
H1572 C1602 0.950 . S
H1573 C1603 0.950 . S
C1574 H1556 0.951 . S
C1574 C1575 1.366 . S
C1574 C1576 1.388 . S
C1575 C1574 1.366 . S
C1575 C1579 1.385 . S
C1576 H1557 0.951 . S
C1576 C1574 1.388 . S
C1576 C1577 1.366 . S
C1577 C1576 1.366 . S
C1577 C1578 1.414 . S
C1577 C1580 1.499 . S
C1578 H1558 0.950 . S
C1578 C1577 1.414 . S
C1578 C1579 1.374 . S
C1579 H1559 0.950 . S
C1579 C1575 1.385 . S
C1579 C1578 1.374 . S
C1580 C1577 1.499 . S
C1580 C1581 1.373 . S
C1580 C1582 1.389 . S
C1581 H1560 0.950 . S
C1581 C1580 1.373 . S
C1581 C1597 1.377 . S
C1582 C1580 1.389 . S
C1582 C1583 1.524 . S
C1582 C1596 1.377 . S
C1583 C1582 1.524 . S
C1583 C1584 1.397 . S
C1583 C1588 1.363 . S
C1584 H1561 0.950 . S
C1584 C1583 1.397 . S
C1584 C1585 1.334 . S
C1585 H1562 0.950 . S
C1585 C1584 1.334 . S
C1585 C1586 1.287 . S
C1586 C1585 1.287 . S
C1586 C1587 1.524 . S
C1586 H1605 0.913 . S
C1587 H1563 0.950 . S
C1587 C1586 1.524 . S
C1587 C1588 1.415 . S
C1588 H1564 0.950 . S
C1588 C1583 1.363 . S
C1588 C1587 1.415 . S
C1589 H1565 0.951 . S
C1589 C1590 1.366 . S
C1589 C1591 1.388 . S
C1590 C1589 1.366 . S
C1590 C1594 1.385 . S
C1591 H1566 0.951 . S
C1591 C1589 1.388 . S
C1591 C1592 1.366 . S
C1592 C1591 1.366 . S
C1592 C1593 1.414 . S
C1592 C1595 1.499 . S
C1593 H1567 0.950 . S
C1593 C1592 1.414 . S
C1593 C1594 1.374 . S
C1594 H1568 0.950 . S
C1594 C1590 1.385 . S
C1594 C1593 1.374 . S
C1595 C1592 1.499 . S
C1595 C1596 1.373 . S
C1595 C1597 1.389 . S
C1596 H1569 0.950 . S
C1596 C1582 1.377 . S
C1596 C1595 1.373 . S
C1597 C1581 1.377 . S
C1597 C1595 1.389 . S
C1597 C1598 1.524 . S
C1598 C1597 1.524 . S
C1598 C1599 1.397 . S
C1598 C1603 1.363 . S
C1599 H1570 0.950 . S
C1599 C1598 1.397 . S
C1599 C1600 1.334 . S
C1600 H1571 0.950 . S
C1600 C1599 1.334 . S
C1600 C1601 1.287 . S
C1601 C1600 1.287 . S
C1601 C1602 1.524 . S
C1601 H1604 0.999 . S
C1602 H1572 0.950 . S
C1602 C1601 1.524 . S
C1602 C1603 1.415 . S
C1603 H1573 0.950 . S
C1603 C1598 1.363 . S
C1603 C1602 1.415 . S
H1604 C1601 0.999 . S
H1605 C1586 0.913 . S
H1606 C1624 0.951 . S
H1607 C1626 0.951 . S
H1608 C1628 0.950 . S
H1609 C1629 0.950 . S
H1610 C1631 0.950 . S
H1611 C1634 0.950 . S
H1612 C1635 0.950 . S
H1613 C1637 0.950 . S
H1614 C1638 0.950 . S
H1615 C1639 0.951 . S
H1616 C1641 0.951 . S
H1617 C1643 0.950 . S
H1618 C1644 0.950 . S
H1619 C1646 0.950 . S
H1620 C1649 0.950 . S
H1621 C1650 0.950 . S
H1622 C1652 0.950 . S
H1623 C1653 0.950 . S
C1624 H1606 0.951 . S
C1624 C1625 1.366 . S
C1624 C1626 1.388 . S
C1625 C1624 1.366 . S
C1625 C1629 1.385 . S
C1626 H1607 0.951 . S
C1626 C1624 1.388 . S
C1626 C1627 1.366 . S
C1627 C1626 1.366 . S
C1627 C1628 1.414 . S
C1627 C1630 1.499 . S
C1628 H1608 0.950 . S
C1628 C1627 1.414 . S
C1628 C1629 1.374 . S
C1629 H1609 0.950 . S
C1629 C1625 1.385 . S
C1629 C1628 1.374 . S
C1630 C1627 1.499 . S
C1630 C1631 1.373 . S
C1630 C1632 1.389 . S
C1631 H1610 0.950 . S
C1631 C1630 1.373 . S
C1631 C1647 1.377 . S
C1632 C1630 1.389 . S
C1632 C1633 1.524 . S
C1632 C1646 1.377 . S
C1633 C1632 1.524 . S
C1633 C1634 1.397 . S
C1633 C1638 1.363 . S
C1634 H1611 0.950 . S
C1634 C1633 1.397 . S
C1634 C1635 1.334 . S
C1635 H1612 0.950 . S
C1635 C1634 1.334 . S
C1635 C1636 1.287 . S
C1636 C1635 1.287 . S
C1636 C1637 1.524 . S
C1636 H1655 0.913 . S
C1637 H1613 0.950 . S
C1637 C1636 1.524 . S
C1637 C1638 1.415 . S
C1638 H1614 0.950 . S
C1638 C1633 1.363 . S
C1638 C1637 1.415 . S
C1639 H1615 0.951 . S
C1639 C1640 1.366 . S
C1639 C1641 1.388 . S
C1640 C1639 1.366 . S
C1640 C1644 1.385 . S
C1641 H1616 0.951 . S
C1641 C1639 1.388 . S
C1641 C1642 1.366 . S
C1642 C1641 1.366 . S
C1642 C1643 1.414 . S
C1642 C1645 1.499 . S
C1643 H1617 0.950 . S
C1643 C1642 1.414 . S
C1643 C1644 1.374 . S
C1644 H1618 0.950 . S
C1644 C1640 1.385 . S
C1644 C1643 1.374 . S
C1645 C1642 1.499 . S
C1645 C1646 1.373 . S
C1645 C1647 1.389 . S
C1646 H1619 0.950 . S
C1646 C1632 1.377 . S
C1646 C1645 1.373 . S
C1647 C1631 1.377 . S
C1647 C1645 1.389 . S
C1647 C1648 1.524 . S
C1648 C1647 1.524 . S
C1648 C1649 1.397 . S
C1648 C1653 1.363 . S
C1649 H1620 0.950 . S
C1649 C1648 1.397 . S
C1649 C1650 1.334 . S
C1650 H1621 0.950 . S
C1650 C1649 1.334 . S
C1650 C1651 1.287 . S
C1651 C1650 1.287 . S
C1651 C1652 1.524 . S
C1651 H1654 0.999 . S
C1652 H1622 0.950 . S
C1652 C1651 1.524 . S
C1652 C1653 1.415 . S
C1653 H1623 0.950 . S
C1653 C1648 1.363 . S
C1653 C1652 1.415 . S
H1654 C1651 0.999 . S
H1655 C1636 0.913 . S
C475 C39 2.129 . S
C490 C325 2.109 . S
C525 C91 1.416 . S
C540 N343 1.403 . S
C590 C371 1.925 . S
C575 C128 1.948 . S
C640 N389 1.233 . S
C625 C188 1.248 . S
C690 C417 2.018 . S
C675 C250 2.039 . S
C740 N435 1.391 . S
C725 C304 1.400 . S
C775 C75 1.981 . S
C790 C380 1.979 . S
C825 C144 1.421 . S
C840 N399 1.368 . S
C890 C426 2.070 . S
C875 C198 2.070 . S
C940 N445 1.199 . S
C925 C234 1.251 . S
C975 C294 1.893 . S
C990 C334 1.888 . S
C1040 N353 1.219 . S
C1025 C29 1.271 . S
C1090 C403 1.979 . S
C1075 C38 2.020 . S
C1125 C92 1.316 . S
C1140 N422 1.290 . S
C1190 C449 1.796 . S
C1175 C135 1.840 . S
C1225 C181 1.147 . S
C1240 N330 1.122 . S
C1275 C251 1.937 . S
C1290 C357 1.894 . S
C1325 C303 1.281 . S
C1340 N376 1.259 . S
C1375 C82 1.889 . S
C1390 C440 1.876 . S
C1440 N320 1.247 . S
C1425 C145 1.313 . S
C1475 C197 1.986 . S
C1490 C348 1.974 . S
C1525 C241 1.139 . S
C1540 N366 1.081 . S
C1575 C287 1.808 . S
C1590 C394 1.794 . S
C1625 C22 1.171 . S
C1640 N412 1.114 . S
