# Generated by pormake.
# Topology ocu, (6,8)-cn, num edge types: 1
# Building blocks:
#     Node 0, Type 0, BuildingBlock: KUMJIN_clean_sbu_1, # of connection points: 6
#     Node 1, Type 0, BuildingBlock: KUMJIN_clean_sbu_1, # of connection points: 6
#     Node 2, Type 0, BuildingBlock: KUMJIN_clean_sbu_1, # of connection points: 6
#     Node 3, Type 0, BuildingBlock: KUMJIN_clean_sbu_1, # of connection points: 6
#     Node 4, Type 0, BuildingBlock: KUMJIN_clean_sbu_1, # of connection points: 6
#     Node 5, Type 0, BuildingBlock: KUMJIN_clean_sbu_1, # of connection points: 6
#     Node 6, Type 0, BuildingBlock: KUMJIN_clean_sbu_1, # of connection points: 6
#     Node 7, Type 0, BuildingBlock: KUMJIN_clean_sbu_1, # of connection points: 6
#     Node 8, Type 1, BuildingBlock: GIZVER_clean_sbu_0, # of connection points: 8
#     Node 9, Type 1, BuildingBlock: GIZVER_clean_sbu_0, # of connection points: 8
#     Node 10, Type 1, BuildingBlock: GIZVER_clean_sbu_0, # of connection points: 8
#     Node 11, Type 1, BuildingBlock: GIZVER_clean_sbu_0, # of connection points: 8
#     Node 12, Type 1, BuildingBlock: GIZVER_clean_sbu_0, # of connection points: 8
#     Node 13, Type 1, BuildingBlock: GIZVER_clean_sbu_0, # of connection points: 8
#     Edge 14, Type (0, 1), BuildingBlock: ZUJKAS_clean_linker_0, # of connection points: 2
#     Edge 15, Type (0, 1), BuildingBlock: ZUJKAS_clean_linker_0, # of connection points: 2
#     Edge 16, Type (0, 1), BuildingBlock: ZUJKAS_clean_linker_0, # of connection points: 2
#     Edge 17, Type (0, 1), BuildingBlock: ZUJKAS_clean_linker_0, # of connection points: 2
#     Edge 18, Type (0, 1), BuildingBlock: ZUJKAS_clean_linker_0, # of connection points: 2
#     Edge 19, Type (0, 1), BuildingBlock: ZUJKAS_clean_linker_0, # of connection points: 2
#     Edge 20, Type (0, 1), BuildingBlock: ZUJKAS_clean_linker_0, # of connection points: 2
#     Edge 21, Type (0, 1), BuildingBlock: ZUJKAS_clean_linker_0, # of connection points: 2
#     Edge 22, Type (0, 1), BuildingBlock: ZUJKAS_clean_linker_0, # of connection points: 2
#     Edge 23, Type (0, 1), BuildingBlock: ZUJKAS_clean_linker_0, # of connection points: 2
#     Edge 24, Type (0, 1), BuildingBlock: ZUJKAS_clean_linker_0, # of connection points: 2
#     Edge 25, Type (0, 1), BuildingBlock: ZUJKAS_clean_linker_0, # of connection points: 2
#     Edge 26, Type (0, 1), BuildingBlock: ZUJKAS_clean_linker_0, # of connection points: 2
#     Edge 27, Type (0, 1), BuildingBlock: ZUJKAS_clean_linker_0, # of connection points: 2
#     Edge 28, Type (0, 1), BuildingBlock: ZUJKAS_clean_linker_0, # of connection points: 2
#     Edge 29, Type (0, 1), BuildingBlock: ZUJKAS_clean_linker_0, # of connection points: 2
#     Edge 30, Type (0, 1), BuildingBlock: ZUJKAS_clean_linker_0, # of connection points: 2
#     Edge 31, Type (0, 1), BuildingBlock: ZUJKAS_clean_linker_0, # of connection points: 2
#     Edge 32, Type (0, 1), BuildingBlock: ZUJKAS_clean_linker_0, # of connection points: 2
#     Edge 33, Type (0, 1), BuildingBlock: ZUJKAS_clean_linker_0, # of connection points: 2
#     Edge 34, Type (0, 1), BuildingBlock: ZUJKAS_clean_linker_0, # of connection points: 2
#     Edge 35, Type (0, 1), BuildingBlock: ZUJKAS_clean_linker_0, # of connection points: 2
#     Edge 36, Type (0, 1), BuildingBlock: ZUJKAS_clean_linker_0, # of connection points: 2
#     Edge 37, Type (0, 1), BuildingBlock: ZUJKAS_clean_linker_0, # of connection points: 2
#     Edge 38, Type (0, 1), BuildingBlock: ZUJKAS_clean_linker_0, # of connection points: 2
#     Edge 39, Type (0, 1), BuildingBlock: ZUJKAS_clean_linker_0, # of connection points: 2
#     Edge 40, Type (0, 1), BuildingBlock: ZUJKAS_clean_linker_0, # of connection points: 2
#     Edge 41, Type (0, 1), BuildingBlock: ZUJKAS_clean_linker_0, # of connection points: 2
#     Edge 42, Type (0, 1), BuildingBlock: ZUJKAS_clean_linker_0, # of connection points: 2
#     Edge 43, Type (0, 1), BuildingBlock: ZUJKAS_clean_linker_0, # of connection points: 2
#     Edge 44, Type (0, 1), BuildingBlock: ZUJKAS_clean_linker_0, # of connection points: 2
#     Edge 45, Type (0, 1), BuildingBlock: ZUJKAS_clean_linker_0, # of connection points: 2
#     Edge 46, Type (0, 1), BuildingBlock: ZUJKAS_clean_linker_0, # of connection points: 2
#     Edge 47, Type (0, 1), BuildingBlock: ZUJKAS_clean_linker_0, # of connection points: 2
#     Edge 48, Type (0, 1), BuildingBlock: ZUJKAS_clean_linker_0, # of connection points: 2
#     Edge 49, Type (0, 1), BuildingBlock: ZUJKAS_clean_linker_0, # of connection points: 2
#     Edge 50, Type (0, 1), BuildingBlock: ZUJKAS_clean_linker_0, # of connection points: 2
#     Edge 51, Type (0, 1), BuildingBlock: ZUJKAS_clean_linker_0, # of connection points: 2
#     Edge 52, Type (0, 1), BuildingBlock: ZUJKAS_clean_linker_0, # of connection points: 2
#     Edge 53, Type (0, 1), BuildingBlock: ZUJKAS_clean_linker_0, # of connection points: 2
#     Edge 54, Type (0, 1), BuildingBlock: ZUJKAS_clean_linker_0, # of connection points: 2
#     Edge 55, Type (0, 1), BuildingBlock: ZUJKAS_clean_linker_0, # of connection points: 2
#     Edge 56, Type (0, 1), BuildingBlock: ZUJKAS_clean_linker_0, # of connection points: 2
#     Edge 57, Type (0, 1), BuildingBlock: ZUJKAS_clean_linker_0, # of connection points: 2
#     Edge 58, Type (0, 1), BuildingBlock: ZUJKAS_clean_linker_0, # of connection points: 2
#     Edge 59, Type (0, 1), BuildingBlock: ZUJKAS_clean_linker_0, # of connection points: 2
#     Edge 60, Type (0, 1), BuildingBlock: ZUJKAS_clean_linker_0, # of connection points: 2
#     Edge 61, Type (0, 1), BuildingBlock: ZUJKAS_clean_linker_0, # of connection points: 2
# Relax obj value: 0.149
# Max RMSD: 0.214
# Mean RMSD: 0.171
data_MOF--net-ocu--node1-KUMJIN_clean_sbu_1--node2-GIZVER_clean_sbu_0--edge1-ZUJKAS_clean_linker_0
_symmetry_space_group_name_H-M    P1
_symmetry_Int_Tables_number       1
_symmetry_cell_setting            triclinic
loop_
_symmetry_equiv_pos_as_xyz
'x, y, z'
_cell_length_a     54.026634
_cell_length_b     56.281032
_cell_length_c     43.446773
_cell_angle_alpha  98.892696
_cell_angle_beta   81.474586
_cell_angle_gamma 108.13292
loop_
_atom_site_label
_atom_site_type_symbol
_atom_site_fract_x
_atom_site_fract_y
_atom_site_fract_z
_atom_type_partial_charge
Eu0 Eu 0.2511 0.25939 0.21738 0.0
C1 C 0.31543 0.32547 0.33122 0.0
N2 N 0.32305 0.31536 0.30218 0.0
C3 C 0.35991 0.3521 0.29663 0.0
C4 C 0.32971 0.34966 0.34384 0.0
C5 C 0.3455 0.32785 0.28537 0.0
C6 C 0.35188 0.36315 0.32587 0.0
C7 C 0.28645 0.32062 0.37983 0.0
C8 C 0.29389 0.31119 0.34902 0.0
C9 C 0.30039 0.34486 0.39219 0.0
C10 C 0.32187 0.35937 0.3742 0.0
Eu11 Eu 0.29748 0.27403 0.28638 0.0
N12 N 0.28019 0.28804 0.33622 0.0
C13 C 0.26514 0.30537 0.3973 0.0
C14 C 0.26009 0.27271 0.35345 0.0
C15 C 0.25202 0.28126 0.3841 0.0
H16 H 0.35282 0.31898 0.26365 0.0
H17 H 0.23583 0.26919 0.3976 0.0
H18 H 0.2063 0.20488 0.23462 0.0
H19 H 0.32431 0.28012 0.11621 0.0
H20 H 0.25046 0.25387 0.3436 0.0
H21 H 0.25883 0.31194 0.42105 0.0
H22 H 0.30042 0.2901 0.1668 0.0
H23 H 0.37751 0.36206 0.28301 0.0
H24 H 0.29482 0.3525 0.41572 0.0
H25 H 0.33259 0.37794 0.38421 0.0
H26 H 0.19132 0.16111 0.20997 0.0
H27 H 0.36332 0.3818 0.33471 0.0
H28 H 0.31205 0.23679 0.08907 0.0
N29 N 0.23658 0.21662 0.19807 0.0
C30 C 0.24825 0.21033 0.16928 0.0
C31 C 0.20748 0.1747 0.19844 0.0
C32 C 0.23998 0.18559 0.15414 0.0
C33 C 0.21629 0.19942 0.2126 0.0
C34 C 0.21937 0.16773 0.1691 0.0
N35 N 0.2769 0.25239 0.17026 0.0
C36 C 0.29593 0.2709 0.15626 0.0
C37 C 0.28152 0.22224 0.12556 0.0
C38 C 0.26897 0.22858 0.15514 0.0
C39 C 0.30197 0.24093 0.1118 0.0
C40 C 0.30907 0.26538 0.12712 0.0
H41 H 0.21241 0.14856 0.15815 0.0
H42 H 0.24632 0.16047 0.11268 0.0
H43 H 0.28257 0.19247 0.0877 0.0
O44 O 0.24166 0.28047 0.18452 0.0
O45 O 0.27698 0.2336 0.21935 0.0
O46 O 0.31457 0.2599 0.23822 0.0
O47 O 0.21255 0.24766 0.20082 0.0
O48 O 0.28095 0.29818 0.22288 0.0
O49 O 0.31503 0.29011 0.24092 0.0
O50 O 0.30113 0.24178 0.30587 0.0
O51 O 0.2659 0.29491 0.29703 0.0
O52 O 0.23768 0.2847 0.25815 0.0
O53 O 0.33147 0.27735 0.30986 0.0
O54 O 0.2642 0.23792 0.28122 0.0
O55 O 0.22999 0.24555 0.26314 0.0
C56 C 0.30251 0.23951 0.22058 0.0
C57 C 0.19737 0.28049 0.19117 0.0
C58 C 0.17533 0.30722 0.1739 0.0
C59 C 0.15946 0.30622 0.20273 0.0
C60 C 0.18112 0.27968 0.21966 0.0
C61 C 0.16237 0.29254 0.22537 0.0
C62 C 0.19431 0.2942 0.16822 0.0
C63 C 0.30578 0.30429 0.22732 0.0
C64 C 0.21721 0.26686 0.18528 0.0
C65 C 0.25249 0.17938 0.12468 0.0
C66 C 0.27318 0.19761 0.11047 0.0
C67 C 0.24565 0.29708 0.28502 0.0
C68 C 0.34452 0.24099 0.30549 0.0
C69 C 0.36909 0.21465 0.31781 0.0
C70 C 0.38381 0.2173 0.28831 0.0
C71 C 0.35975 0.24383 0.27649 0.0
C72 C 0.3493 0.22655 0.32625 0.0
C73 C 0.37918 0.23188 0.26786 0.0
C74 C 0.23908 0.23508 0.28221 0.0
C75 C 0.3243 0.2538 0.31454 0.0
H76 H 0.1444 0.31568 0.20759 0.0
H77 H 0.18303 0.26923 0.2377 0.0
H78 H 0.14998 0.29183 0.24741 0.0
H79 H 0.20675 0.29484 0.14617 0.0
H80 H 0.39937 0.20859 0.28135 0.0
H81 H 0.35682 0.25564 0.26082 0.0
H82 H 0.33771 0.2246 0.34885 0.0
H83 H 0.3909 0.23418 0.24544 0.0
Eu84 Eu 0.74998 0.28481 0.25264 0.0
C85 C 0.84214 0.25228 0.18926 0.0
N86 N 0.81915 0.23702 0.20167 0.0
C87 C 0.81538 0.20968 0.15329 0.0
C88 C 0.85189 0.2475 0.15771 0.0
C89 C 0.80665 0.21508 0.18476 0.0
C90 C 0.83779 0.22624 0.13949 0.0
C91 C 0.88131 0.28738 0.19715 0.0
C92 C 0.8568 0.27189 0.20866 0.0
C93 C 0.89043 0.28349 0.16535 0.0
C94 C 0.87575 0.2636 0.14567 0.0
Eu95 Eu 0.80466 0.25 0.25409 0.0
N96 N 0.84711 0.27569 0.23907 0.0
C97 C 0.89604 0.30605 0.2181 0.0
C98 C 0.86195 0.29276 0.26007 0.0
C99 C 0.88652 0.30845 0.24981 0.0
H100 H 0.79001 0.20148 0.19539 0.0
H101 H 0.89797 0.3225 0.26627 0.0
H102 H 0.75491 0.31976 0.32262 0.0
H103 H 0.66494 0.21297 0.20731 0.0
H104 H 0.85431 0.29475 0.28448 0.0
H105 H 0.91498 0.31836 0.21016 0.0
H106 H 0.70861 0.24442 0.20356 0.0
H107 H 0.80497 0.1926 0.13979 0.0
H108 H 0.90906 0.29541 0.15591 0.0
H109 H 0.88335 0.26042 0.12137 0.0
H110 H 0.72837 0.32223 0.37368 0.0
H111 H 0.84459 0.22191 0.11515 0.0
H112 H 0.63727 0.20989 0.258 0.0
N113 N 0.72576 0.28901 0.30198 0.0
C114 C 0.70084 0.27348 0.30529 0.0
C115 C 0.72046 0.30831 0.35472 0.0
C116 C 0.68499 0.27421 0.33408 0.0
C117 C 0.73555 0.30671 0.32585 0.0
C118 C 0.69515 0.29187 0.35895 0.0
N119 N 0.70714 0.25643 0.25237 0.0
C120 C 0.69739 0.24212 0.22611 0.0
C121 C 0.66597 0.23948 0.28296 0.0
C122 C 0.69151 0.25632 0.27999 0.0
C123 C 0.65673 0.22319 0.25666 0.0
C124 C 0.67235 0.22482 0.22799 0.0
H125 H 0.68359 0.29301 0.38145 0.0
H126 H 0.64744 0.25714 0.35933 0.0
H127 H 0.63075 0.22677 0.31457 0.0
O128 O 0.72617 0.29861 0.22758 0.0
O129 O 0.7469 0.26133 0.29252 0.0
O130 O 0.7626 0.22891 0.26879 0.0
O131 O 0.75697 0.32516 0.25287 0.0
O132 O 0.75633 0.25734 0.21015 0.0
O133 O 0.76821 0.22731 0.2302 0.0
O134 O 0.81738 0.24465 0.2972 0.0
O135 O 0.81622 0.28877 0.23791 0.0
O136 O 0.7817 0.28534 0.21193 0.0
O137 O 0.82233 0.22013 0.25493 0.0
O138 O 0.79734 0.27702 0.29665 0.0
O139 O 0.78509 0.30764 0.278 0.0
C140 C 0.7461 0.23751 0.2893 0.0
C141 C 0.72039 0.33804 0.24654 0.0
C142 C 0.69258 0.36019 0.23193 0.0
C143 C 0.6874 0.36869 0.2637 0.0
C144 C 0.71501 0.3465 0.27818 0.0
C145 C 0.69851 0.36175 0.28668 0.0
C146 C 0.70904 0.34478 0.22358 0.0
C147 C 0.7565 0.23401 0.20988 0.0
C148 C 0.73766 0.32215 0.23645 0.0
C149 C 0.65978 0.25709 0.33728 0.0
C150 C 0.65033 0.23972 0.31182 0.0
C151 C 0.80646 0.29542 0.21599 0.0
C152 C 0.81469 0.20318 0.30279 0.0
C153 C 0.82393 0.17557 0.33448 0.0
C154 C 0.79726 0.16169 0.33701 0.0
C155 C 0.78811 0.18931 0.30558 0.0
C156 C 0.83247 0.1964 0.3174 0.0
C157 C 0.77943 0.16866 0.32273 0.0
C158 C 0.79733 0.3005 0.29733 0.0
C159 C 0.82429 0.22481 0.28487 0.0
H160 H 0.67462 0.38051 0.27075 0.0
H161 H 0.7236 0.34148 0.29623 0.0
H162 H 0.69437 0.36827 0.3111 0.0
H163 H 0.71344 0.33838 0.19909 0.0
H164 H 0.7902 0.14564 0.35024 0.0
H165 H 0.77419 0.19439 0.29443 0.0
H166 H 0.85304 0.2071 0.31501 0.0
H167 H 0.75889 0.15801 0.32489 0.0
Eu168 Eu 0.76871 0.74544 0.28884 0.0
C169 C 0.83247 0.8005 0.1709 0.0
N170 N 0.8234 0.81038 0.19934 0.0
C171 C 0.86264 0.84518 0.20013 0.0
C172 C 0.85726 0.81272 0.15606 0.0
C173 C 0.83775 0.83273 0.21367 0.0
C174 C 0.87251 0.83508 0.17129 0.0
C175 C 0.82488 0.76873 0.12567 0.0
C176 C 0.81651 0.77859 0.15588 0.0
C177 C 0.84966 0.78076 0.11107 0.0
C178 C 0.86583 0.80261 0.12626 0.0
Eu179 Eu 0.78056 0.78822 0.21863 0.0
N180 N 0.79271 0.76704 0.17066 0.0
C181 C 0.80802 0.74707 0.11102 0.0
C182 C 0.77588 0.74646 0.15615 0.0
C183 C 0.78337 0.73597 0.12628 0.0
H184 H 0.82986 0.84147 0.23511 0.0
H185 H 0.77001 0.71952 0.11488 0.0
H186 H 0.71979 0.692 0.27181 0.0
H187 H 0.78106 0.80863 0.39713 0.0
H188 H 0.75653 0.73844 0.16734 0.0
H189 H 0.81373 0.73895 0.08781 0.0
H190 H 0.7937 0.79191 0.34302 0.0
H191 H 0.87401 0.86281 0.21168 0.0
H192 H 0.85645 0.77339 0.08793 0.0
H193 H 0.88482 0.81176 0.11455 0.0
H194 H 0.67543 0.67042 0.29434 0.0
H195 H 0.89167 0.84499 0.16066 0.0
H196 H 0.73685 0.78954 0.42331 0.0
N197 N 0.7259 0.72274 0.30806 0.0
C198 C 0.71664 0.73208 0.33672 0.0
C199 C 0.68669 0.68789 0.30633 0.0
C200 C 0.69178 0.71961 0.35118 0.0
C201 C 0.71171 0.70051 0.29328 0.0
C202 C 0.67658 0.69757 0.33529 0.0
N203 N 0.75669 0.7649 0.33821 0.0
C204 C 0.77419 0.78409 0.35397 0.0
C205 C 0.72462 0.76216 0.38342 0.0
C206 C 0.73265 0.75343 0.3525 0.0
C207 C 0.74221 0.78241 0.39946 0.0
C208 C 0.76716 0.7933 0.38472 0.0
H209 H 0.65736 0.68749 0.34559 0.0
H210 H 0.66416 0.71967 0.39281 0.0
H211 H 0.69305 0.75668 0.42117 0.0
O212 O 0.80207 0.74411 0.311 0.0
O213 O 0.74619 0.77552 0.29771 0.0
O214 O 0.76311 0.80614 0.26348 0.0
O215 O 0.76784 0.71169 0.30848 0.0
O216 O 0.80716 0.77548 0.278 0.0
O217 O 0.79903 0.80892 0.26259 0.0
O218 O 0.74987 0.78923 0.19149 0.0
O219 O 0.80537 0.76013 0.21342 0.0
O220 O 0.78215 0.72703 0.24165 0.0
O221 O 0.78247 0.82258 0.19971 0.0
O222 O 0.74127 0.75898 0.22906 0.0
O223 O 0.74929 0.7256 0.24516 0.0
C224 C 0.74736 0.79713 0.28793 0.0
C225 C 0.79248 0.71764 0.35129 0.0
C226 C 0.81504 0.7053 0.38815 0.0
C227 C 0.79587 0.70934 0.41237 0.0
C228 C 0.7734 0.72104 0.37576 0.0
C229 C 0.77527 0.71721 0.40615 0.0
C230 C 0.8133 0.70976 0.35758 0.0
C231 C 0.8108 0.79978 0.28019 0.0
C232 C 0.79061 0.72156 0.31902 0.0
C233 C 0.68321 0.729 0.38139 0.0
C234 C 0.69966 0.75009 0.39755 0.0
C235 C 0.80129 0.73699 0.22058 0.0
C236 C 0.76202 0.8181 0.15364 0.0
C237 C 0.74208 0.8314 0.11492 0.0
C238 C 0.76347 0.82976 0.09277 0.0
C239 C 0.78333 0.81708 0.13127 0.0
C240 C 0.74143 0.82531 0.14538 0.0
C241 C 0.7839 0.82262 0.10095 0.0
C242 C 0.73671 0.73464 0.22843 0.0
C243 C 0.76121 0.81246 0.18585 0.0
H244 H 0.79631 0.7057 0.43601 0.0
H245 H 0.75681 0.7262 0.37142 0.0
H246 H 0.7604 0.71989 0.42485 0.0
H247 H 0.828 0.70698 0.33866 0.0
H248 H 0.7648 0.8347 0.06932 0.0
H249 H 0.79974 0.81246 0.13724 0.0
H250 H 0.72501 0.82628 0.16269 0.0
H251 H 0.80046 0.82179 0.08388 0.0
Eu252 Eu 0.24321 0.78834 0.2565 0.0
C253 C 0.28315 0.7022 0.28678 0.0
N254 N 0.2949 0.72723 0.29301 0.0
C255 C 0.30236 0.72142 0.34406 0.0
C256 C 0.27968 0.6858 0.30961 0.0
C257 C 0.30491 0.73701 0.32094 0.0
C258 C 0.28937 0.69574 0.33854 0.0
C259 C 0.26482 0.66666 0.24935 0.0
C260 C 0.27584 0.69282 0.25698 0.0
C261 C 0.25968 0.65047 0.27261 0.0
C262 C 0.2672 0.66 0.30265 0.0
Eu263 Eu 0.29718 0.75252 0.25345 0.0
N264 N 0.28164 0.7089 0.23478 0.0
C265 C 0.2605 0.65741 0.21821 0.0
C266 C 0.28065 0.69946 0.20386 0.0
C267 C 0.26904 0.67382 0.19525 0.0
H268 H 0.31457 0.75695 0.32547 0.0
H269 H 0.26722 0.66667 0.17083 0.0
H270 H 0.20019 0.75377 0.20639 0.0
H271 H 0.30575 0.88636 0.25696 0.0
H272 H 0.28847 0.71166 0.18561 0.0
H273 H 0.25196 0.63748 0.21142 0.0
H274 H 0.28778 0.84541 0.27661 0.0
H275 H 0.31014 0.72926 0.36622 0.0
H276 H 0.25086 0.63039 0.26726 0.0
H277 H 0.26393 0.64717 0.32005 0.0
H278 H 0.1839 0.75864 0.15832 0.0
H279 H 0.28721 0.68372 0.35659 0.0
H280 H 0.29048 0.89431 0.20978 0.0
N281 N 0.22608 0.79105 0.21083 0.0
C282 C 0.23497 0.81376 0.19946 0.0
C283 C 0.19837 0.77422 0.16954 0.0
C284 C 0.22595 0.81739 0.17219 0.0
C285 C 0.20789 0.77142 0.19654 0.0
C286 C 0.20747 0.79727 0.15726 0.0
N287 N 0.26233 0.82928 0.24075 0.0
C288 C 0.28064 0.84814 0.25605 0.0
C289 C 0.26334 0.8569 0.20294 0.0
C290 C 0.25341 0.8334 0.21488 0.0
C291 C 0.28234 0.87606 0.21832 0.0
C292 C 0.29101 0.87164 0.24494 0.0
H293 H 0.20005 0.79936 0.13631 0.0
H294 H 0.229 0.84393 0.1396 0.0
H295 H 0.26184 0.87841 0.16635 0.0
O296 O 0.22408 0.79832 0.30169 0.0
O297 O 0.27554 0.79399 0.21627 0.0
O298 O 0.30808 0.79266 0.24255 0.0
O299 O 0.20404 0.79257 0.26023 0.0
O300 O 0.27124 0.80597 0.29428 0.0
O301 O 0.30288 0.78519 0.29072 0.0
O302 O 0.33076 0.75776 0.21793 0.0
O303 O 0.26579 0.74824 0.29558 0.0
O304 O 0.23087 0.7498 0.27304 0.0
O305 O 0.33568 0.75404 0.26496 0.0
O306 O 0.27273 0.7452 0.21181 0.0
O307 O 0.23313 0.7478 0.23657 0.0
C308 C 0.30045 0.79992 0.21943 0.0
C309 C 0.1975 0.82383 0.30073 0.0
C310 C 0.19523 0.85616 0.34357 0.0
C311 C 0.18745 0.86952 0.32396 0.0
C312 C 0.19018 0.83728 0.28069 0.0
C313 C 0.18502 0.86004 0.29246 0.0
C314 C 0.19968 0.8333 0.33206 0.0
C315 C 0.29223 0.8029 0.30343 0.0
C316 C 0.20408 0.80045 0.28994 0.0
C317 C 0.23569 0.84084 0.16054 0.0
C318 C 0.25436 0.8605 0.17581 0.0
C319 C 0.2404 0.74233 0.2946 0.0
C320 C 0.36273 0.73923 0.22493 0.0
C321 C 0.37036 0.70435 0.18887 0.0
C322 C 0.39308 0.70674 0.20268 0.0
C323 C 0.3853 0.74157 0.23889 0.0
C324 C 0.35535 0.72059 0.2001 0.0
C325 C 0.40043 0.7253 0.22775 0.0
C326 C 0.24696 0.73831 0.21351 0.0
C327 C 0.34669 0.75594 0.23658 0.0
H328 H 0.18357 0.88721 0.3329 0.0
H329 H 0.18858 0.83036 0.25616 0.0
H330 H 0.17931 0.87039 0.27713 0.0
H331 H 0.20507 0.82288 0.34772 0.0
H332 H 0.40491 0.69418 0.19431 0.0
H333 H 0.39114 0.7559 0.25834 0.0
H334 H 0.33806 0.7189 0.18907 0.0
H335 H 0.41783 0.72707 0.23854 0.0
Eu336 Eu 0.25547 0.78064 0.75136 0.0
C337 C 0.35384 0.7582 0.68075 0.0
N338 N 0.32901 0.74271 0.68566 0.0
C339 C 0.32964 0.72695 0.63118 0.0
C340 C 0.36745 0.75883 0.65045 0.0
C341 C 0.31695 0.72684 0.66165 0.0
C342 C 0.35496 0.74306 0.62552 0.0
C343 C 0.39126 0.78986 0.70165 0.0
C344 C 0.36542 0.77383 0.70608 0.0
C345 C 0.40493 0.79039 0.67153 0.0
C346 C 0.39299 0.77511 0.64596 0.0
Eu347 Eu 0.30957 0.74364 0.73784 0.0
N348 N 0.35182 0.77283 0.7351 0.0
C349 C 0.40292 0.80433 0.72781 0.0
C350 C 0.3639 0.78523 0.76084 0.0
C351 C 0.38933 0.80163 0.7576 0.0
H352 H 0.29758 0.71402 0.66602 0.0
H353 H 0.39871 0.81156 0.77813 0.0
H354 H 0.27285 0.83233 0.80277 0.0
H355 H 0.16621 0.70093 0.75298 0.0
H356 H 0.35448 0.78168 0.78393 0.0
H357 H 0.42274 0.81685 0.72538 0.0
H358 H 0.20848 0.72722 0.73024 0.0
H359 H 0.31995 0.71451 0.61212 0.0
H360 H 0.42492 0.8023 0.66785 0.0
H361 H 0.4038 0.77583 0.62286 0.0
H362 H 0.25661 0.8488 0.85535 0.0
H363 H 0.36476 0.74308 0.60188 0.0
H364 H 0.14744 0.71415 0.80592 0.0
N365 N 0.2409 0.79881 0.80038 0.0
C366 C 0.21762 0.78533 0.81437 0.0
C367 C 0.24552 0.83089 0.84413 0.0
C368 C 0.20749 0.79414 0.84421 0.0
C369 C 0.25478 0.82143 0.81451 0.0
C370 C 0.22183 0.81716 0.85912 0.0
N371 N 0.21449 0.75422 0.7704 0.0
C372 C 0.2009 0.73285 0.75354 0.0
C373 C 0.17957 0.7483 0.81264 0.0
C374 C 0.20386 0.76258 0.79883 0.0
C375 C 0.16613 0.72569 0.79608 0.0
C376 C 0.17672 0.71809 0.76626 0.0
H377 H 0.21472 0.82455 0.88209 0.0
H378 H 0.17543 0.78621 0.88121 0.0
H379 H 0.15099 0.74614 0.85355 0.0
O380 O 0.24136 0.78588 0.70914 0.0
O381 O 0.25068 0.75208 0.78563 0.0
O382 O 0.27023 0.72226 0.76035 0.0
O383 O 0.24013 0.81224 0.75073 0.0
O384 O 0.25526 0.75213 0.70796 0.0
O385 O 0.2714 0.72135 0.7194 0.0
O386 O 0.32977 0.72875 0.76769 0.0
O387 O 0.30781 0.76975 0.70333 0.0
O388 O 0.29678 0.80213 0.73439 0.0
O389 O 0.31794 0.70821 0.7226 0.0
O390 O 0.3062 0.76824 0.78459 0.0
O391 O 0.29353 0.80075 0.77189 0.0
C392 C 0.25345 0.72938 0.78191 0.0
C393 C 0.20722 0.80439 0.71705 0.0
C394 C 0.1785 0.81633 0.68806 0.0
C395 C 0.15668 0.80053 0.70434 0.0
C396 C 0.18519 0.789 0.73333 0.0
C397 C 0.16006 0.78705 0.72694 0.0
C398 C 0.20383 0.81824 0.69458 0.0
C399 C 0.25655 0.7289 0.70415 0.0
C400 C 0.23374 0.80523 0.72226 0.0
C401 C 0.18346 0.77978 0.85822 0.0
C402 C 0.16953 0.75695 0.84247 0.0
C403 C 0.31109 0.79392 0.7106 0.0
C404 C 0.33875 0.68809 0.75185 0.0
C405 C 0.36067 0.66887 0.78179 0.0
C406 C 0.35594 0.64745 0.75947 0.0
C407 C 0.3344 0.66651 0.72982 0.0
C408 C 0.35177 0.68915 0.77804 0.0
C409 C 0.34291 0.64633 0.73371 0.0
C410 C 0.30545 0.79175 0.78957 0.0
C411 C 0.32857 0.70869 0.7477 0.0
H412 H 0.13697 0.79898 0.70001 0.0
H413 H 0.18731 0.77842 0.75088 0.0
H414 H 0.14316 0.77509 0.73958 0.0
H415 H 0.22082 0.83016 0.68192 0.0
H416 H 0.36209 0.63137 0.76212 0.0
H417 H 0.32417 0.66505 0.70966 0.0
H418 H 0.35518 0.70568 0.7952 0.0
H419 H 0.33928 0.62971 0.71676 0.0
Eu420 Eu 0.27351 0.23995 0.78691 0.0
C421 C 0.34137 0.29048 0.67135 0.0
N422 N 0.33255 0.30144 0.69927 0.0
C423 C 0.37389 0.33345 0.70122 0.0
C424 C 0.36716 0.30063 0.65755 0.0
C425 C 0.34816 0.3229 0.71397 0.0
C426 C 0.38348 0.32224 0.67297 0.0
C427 C 0.3333 0.25752 0.62737 0.0
C428 C 0.32454 0.26905 0.6563 0.0
C429 C 0.359 0.26764 0.61373 0.0
C430 C 0.37585 0.28909 0.62876 0.0
Eu431 Eu 0.28826 0.28265 0.71662 0.0
N432 N 0.29978 0.25926 0.67015 0.0
C433 C 0.31592 0.23616 0.61289 0.0
C434 C 0.2825 0.23904 0.65567 0.0
C435 C 0.29038 0.22698 0.62703 0.0
H436 H 0.34068 0.33247 0.73498 0.0
H437 H 0.27666 0.2108 0.61567 0.0
H438 H 0.22634 0.18555 0.7681 0.0
H439 H 0.28229 0.30086 0.89716 0.0
H440 H 0.26255 0.23248 0.66582 0.0
H441 H 0.32192 0.22681 0.59062 0.0
H442 H 0.29686 0.28489 0.84339 0.0
H443 H 0.3862 0.35045 0.71296 0.0
H444 H 0.36603 0.25903 0.59148 0.0
H445 H 0.39559 0.29669 0.61783 0.0
H446 H 0.18147 0.16323 0.78841 0.0
H447 H 0.40339 0.3306 0.66306 0.0
H448 H 0.23701 0.28188 0.92059 0.0
N449 N 0.23057 0.21627 0.80431 0.0
C450 C 0.2203 0.22517 0.83264 0.0
C451 C 0.19202 0.18082 0.80085 0.0
C452 C 0.19508 0.21235 0.84584 0.0
C453 C 0.2173 0.19386 0.78902 0.0
C454 C 0.18072 0.19025 0.8292 0.0
N455 N 0.26001 0.25818 0.83635 0.0
C456 C 0.27701 0.27693 0.85334 0.0
C457 C 0.22641 0.25484 0.8799 0.0
C458 C 0.23565 0.24635 0.84943 0.0
C459 C 0.24331 0.27494 0.89701 0.0
C460 C 0.26888 0.28575 0.88385 0.0
H461 H 0.16128 0.17988 0.83854 0.0
H462 H 0.16595 0.21192 0.88601 0.0
H463 H 0.19346 0.24897 0.91591 0.0
O464 O 0.30743 0.2388 0.80792 0.0
O465 O 0.25287 0.27127 0.79697 0.0
O466 O 0.26433 0.29801 0.7579 0.0
O467 O 0.27166 0.20807 0.81093 0.0
O468 O 0.31176 0.27082 0.77829 0.0
O469 O 0.30385 0.30395 0.76184 0.0
O470 O 0.26179 0.28694 0.68551 0.0
O471 O 0.31313 0.25538 0.71622 0.0
O472 O 0.28652 0.22101 0.73965 0.0
O473 O 0.29669 0.31724 0.69528 0.0
O474 O 0.24817 0.25379 0.72299 0.0
O475 O 0.25426 0.22066 0.74273 0.0
C476 C 0.25134 0.29088 0.78473 0.0
C477 C 0.31118 0.19858 0.81044 0.0
C478 C 0.34089 0.17928 0.8272 0.0
C479 C 0.33992 0.16385 0.79832 0.0
C480 C 0.31041 0.18298 0.78195 0.0
C481 C 0.32482 0.16578 0.77589 0.0
C482 C 0.3264 0.19673 0.83301 0.0
C483 C 0.31482 0.29505 0.78062 0.0
C484 C 0.29595 0.21662 0.817 0.0
C485 C 0.18533 0.22148 0.87559 0.0
C486 C 0.20099 0.24258 0.89264 0.0
C487 C 0.30676 0.23123 0.72003 0.0
C488 C 0.2593 0.32859 0.68999 0.0
C489 C 0.23051 0.34943 0.67431 0.0
C490 C 0.23185 0.36449 0.70335 0.0
C491 C 0.26035 0.34391 0.71886 0.0
C492 C 0.24403 0.33118 0.66781 0.0
C493 C 0.24655 0.3616 0.72552 0.0
C494 C 0.24185 0.22966 0.72566 0.0
C495 C 0.27465 0.31047 0.68294 0.0
H496 H 0.35042 0.14991 0.79325 0.0
H497 H 0.29845 0.18398 0.76461 0.0
H498 H 0.32409 0.15371 0.75387 0.0
H499 H 0.32702 0.20895 0.85496 0.0
H500 H 0.22148 0.37853 0.70887 0.0
H501 H 0.27192 0.34229 0.73633 0.0
H502 H 0.24325 0.31959 0.64538 0.0
H503 H 0.24741 0.37324 0.74786 0.0
Eu504 Eu 0.75508 0.27708 0.73986 0.0
C505 C 0.78495 0.1912 0.79406 0.0
N506 N 0.79439 0.2164 0.80144 0.0
C507 C 0.79326 0.21112 0.85534 0.0
C508 C 0.77852 0.17484 0.81749 0.0
C509 C 0.79936 0.22655 0.83127 0.0
C510 C 0.78239 0.18516 0.8485 0.0
C511 C 0.7754 0.15536 0.75427 0.0
C512 C 0.78381 0.18168 0.76276 0.0
C513 C 0.76747 0.13905 0.77764 0.0
C514 C 0.76947 0.14876 0.80913 0.0
Eu515 Eu 0.80297 0.24178 0.76075 0.0
N516 N 0.79315 0.19793 0.74066 0.0
C517 C 0.7765 0.14612 0.72251 0.0
C518 C 0.7974 0.18855 0.70993 0.0
C519 C 0.78794 0.16279 0.70028 0.0
H520 H 0.80777 0.24662 0.83642 0.0
H521 H 0.79001 0.15577 0.67569 0.0
H522 H 0.7068 0.2355 0.70206 0.0
H523 H 0.81276 0.37215 0.71456 0.0
H524 H 0.80756 0.20088 0.69237 0.0
H525 H 0.76988 0.1261 0.71502 0.0
H526 H 0.79416 0.33753 0.74715 0.0
H527 H 0.79685 0.21925 0.87911 0.0
H528 H 0.76087 0.11884 0.77151 0.0
H529 H 0.76454 0.13589 0.82676 0.0
H530 H 0.68871 0.22915 0.65141 0.0
H531 H 0.77769 0.17321 0.86714 0.0
H532 H 0.79913 0.36807 0.66165 0.0
N533 N 0.73506 0.27033 0.69328 0.0
C534 C 0.74419 0.28878 0.67408 0.0
C535 C 0.70447 0.24591 0.65736 0.0
C536 C 0.73421 0.28615 0.64514 0.0
C537 C 0.71498 0.2494 0.68585 0.0
C538 C 0.7143 0.26425 0.63677 0.0
N539 N 0.77152 0.31298 0.71235 0.0
C540 C 0.78852 0.33502 0.72386 0.0
C541 C 0.77257 0.33048 0.66476 0.0
C542 C 0.76294 0.31077 0.6839 0.0
C543 C 0.7911 0.35258 0.67574 0.0
C544 C 0.79889 0.35493 0.70556 0.0
H545 H 0.70606 0.26154 0.61477 0.0
H546 H 0.73675 0.30381 0.60335 0.0
H547 H 0.77054 0.34251 0.62042 0.0
O548 O 0.74106 0.2933 0.78506 0.0
O549 O 0.78973 0.27976 0.70327 0.0
O550 O 0.82138 0.27074 0.72631 0.0
O551 O 0.71852 0.28647 0.74434 0.0
O552 O 0.79044 0.29937 0.766 0.0
O553 O 0.78991 0.27018 0.79637 0.0
O554 O 0.83762 0.23318 0.77031 0.0
O555 O 0.76766 0.24366 0.79565 0.0
O556 O 0.73707 0.24074 0.76319 0.0
O557 O 0.84012 0.27135 0.76582 0.0
O558 O 0.78584 0.23066 0.71304 0.0
O559 O 0.74528 0.23557 0.72699 0.0
C560 C 0.81416 0.28162 0.70585 0.0
C561 C 0.69958 0.30263 0.79371 0.0
C562 C 0.68395 0.31941 0.84486 0.0
C563 C 0.6609 0.31899 0.83299 0.0
C564 C 0.6766 0.30214 0.78188 0.0
C565 C 0.6572 0.31012 0.80165 0.0
C566 C 0.70274 0.31054 0.82519 0.0
C567 C 0.79734 0.29365 0.7909 0.0
C568 C 0.71969 0.29339 0.77424 0.0
C569 C 0.74407 0.30556 0.62576 0.0
C570 C 0.76328 0.32762 0.6355 0.0
C571 C 0.74352 0.23461 0.78834 0.0
C572 C 0.87447 0.25652 0.74159 0.0
C573 C 0.88644 0.23605 0.69109 0.0
C574 C 0.91308 0.24735 0.69502 0.0
C575 C 0.90091 0.26765 0.74609 0.0
C576 C 0.86765 0.24315 0.71287 0.0
C577 C 0.92023 0.26381 0.72213 0.0
C578 C 0.76075 0.22413 0.70927 0.0
C579 C 0.85319 0.25573 0.76673 0.0
H580 H 0.64609 0.3261 0.84755 0.0
H581 H 0.67355 0.29542 0.75759 0.0
H582 H 0.63947 0.30979 0.79258 0.0
H583 H 0.72005 0.30991 0.83447 0.0
H584 H 0.92813 0.24222 0.67842 0.0
H585 H 0.90651 0.27857 0.76811 0.0
H586 H 0.84708 0.23503 0.70943 0.0
H587 H 0.94072 0.27216 0.72551 0.0
Eu588 Eu 0.75681 0.75584 0.71923 0.0
C589 C 0.81208 0.81977 0.83429 0.0
N590 N 0.82248 0.81224 0.80527 0.0
C591 C 0.85456 0.85264 0.80359 0.0
C592 C 0.82257 0.84439 0.84889 0.0
C593 C 0.84369 0.82804 0.79007 0.0
C594 C 0.84394 0.86087 0.83307 0.0
C595 C 0.7794 0.81048 0.87928 0.0
C596 C 0.79053 0.80294 0.84935 0.0
C597 C 0.79001 0.83494 0.89385 0.0
C598 C 0.81146 0.85183 0.8787 0.0
Eu599 Eu 0.80354 0.76979 0.78664 0.0
N600 N 0.78 0.77953 0.83438 0.0
C601 C 0.75784 0.79321 0.89369 0.0
C602 C 0.75972 0.76234 0.84883 0.0
C603 C 0.74808 0.769 0.87848 0.0
H604 H 0.85284 0.82159 0.76798 0.0
H605 H 0.73185 0.75533 0.88979 0.0
H606 H 0.69903 0.71369 0.73923 0.0
H607 H 0.82495 0.7555 0.61334 0.0
H608 H 0.75294 0.7433 0.83806 0.0
H609 H 0.7488 0.79829 0.91671 0.0
H610 H 0.80782 0.77293 0.66488 0.0
H611 H 0.87134 0.86513 0.79143 0.0
H612 H 0.78169 0.84102 0.91684 0.0
H613 H 0.81932 0.87066 0.89025 0.0
H614 H 0.67275 0.67126 0.71922 0.0
H615 H 0.85252 0.87993 0.84353 0.0
H616 H 0.80136 0.71294 0.58999 0.0
N617 N 0.72988 0.71554 0.70223 0.0
C618 C 0.73851 0.70437 0.67445 0.0
C619 C 0.69128 0.68029 0.70651 0.0
C620 C 0.7237 0.68048 0.66165 0.0
C621 C 0.7064 0.70417 0.71803 0.0
C622 C 0.7 0.66834 0.67826 0.0
N623 N 0.77597 0.74007 0.67134 0.0
C624 C 0.79789 0.75413 0.65527 0.0
C625 C 0.77084 0.7065 0.62884 0.0
C626 C 0.76197 0.7171 0.65833 0.0
C627 C 0.79398 0.72039 0.61278 0.0
C628 C 0.80741 0.74439 0.62594 0.0
H629 H 0.68809 0.64995 0.66924 0.0
H630 H 0.72163 0.6513 0.62237 0.0
H631 H 0.76274 0.67417 0.59355 0.0
O632 O 0.75683 0.78726 0.69524 0.0
O633 O 0.78486 0.73097 0.71292 0.0
O634 O 0.8203 0.75088 0.74138 0.0
O635 O 0.72168 0.75599 0.69995 0.0
O636 O 0.78953 0.79238 0.72628 0.0
O637 O 0.82442 0.78422 0.74128 0.0
O638 O 0.80992 0.74346 0.8148 0.0
O639 O 0.77625 0.79509 0.78909 0.0
O640 O 0.73935 0.77053 0.76662 0.0
O641 O 0.83973 0.77866 0.80802 0.0
O642 O 0.77312 0.7315 0.78044 0.0
O643 O 0.73822 0.73948 0.76432 0.0
C644 C 0.80874 0.7334 0.71969 0.0
C645 C 0.72809 0.77823 0.65604 0.0
C646 C 0.7097 0.79567 0.61978 0.0
C647 C 0.71899 0.78048 0.59478 0.0
C648 C 0.73714 0.76334 0.6307 0.0
C649 C 0.73262 0.76447 0.60028 0.0
C650 C 0.71435 0.79439 0.65049 0.0
C651 C 0.81473 0.79527 0.72364 0.0
C652 C 0.73282 0.77721 0.68828 0.0
C653 C 0.73277 0.66963 0.63257 0.0
C654 C 0.75621 0.68264 0.61616 0.0
C655 C 0.75125 0.79035 0.78517 0.0
C656 C 0.85413 0.74464 0.81406 0.0
C657 C 0.88023 0.72318 0.83386 0.0
C658 C 0.89552 0.72343 0.80466 0.0
C659 C 0.86983 0.74502 0.78528 0.0
C660 C 0.85917 0.73347 0.83828 0.0
C661 C 0.89023 0.7342 0.78051 0.0
C662 C 0.7479 0.726 0.77856 0.0
C663 C 0.83365 0.75732 0.81951 0.0
H664 H 0.71536 0.78067 0.57097 0.0
H665 H 0.74763 0.75079 0.63429 0.0
H666 H 0.73959 0.7528 0.5809 0.0
H667 H 0.70753 0.8061 0.67003 0.0
H668 H 0.91162 0.7153 0.80056 0.0
H669 H 0.86662 0.75423 0.76683 0.0
H670 H 0.84737 0.73357 0.86075 0.0
H671 H 0.90223 0.73451 0.7582 0.0
Co672 Co 0.06371 0.97495 0.48555 0.0
Co673 Co 0.05724 0.99753 0.5419 0.0
Co674 Co 0.02693 0.01445 0.50142 0.0
O675 O 0.05842 1.00569 0.50197 0.0
H676 H 0.0738 0.01977 0.49828 0.0
O677 O 0.99549 0.02353 0.50128 0.0
Co678 Co 0.99167 0.05455 0.51977 0.0
Co679 Co 0.99508 0.03291 0.463 0.0
H680 H 0.98001 1.00961 0.50526 0.0
O681 O 0.08621 0.99742 0.55835 0.0
O682 O 0.05943 0.96536 0.52952 0.0
O683 O 1.02604 0.99527 0.57049 0.0
O684 O 1.00432 0.98812 0.52926 0.0
O685 O 0.03722 0.03912 0.53862 0.0
O686 O 0.98311 0.0817 0.5375 0.0
O687 O 0.95751 0.04276 0.52165 0.0
O688 O 0.02896 0.07073 0.52219 0.0
O689 O 0.04932 0.0406 0.47315 0.0
O690 O 1.02564 0.03567 0.43387 0.0
O691 O 0.99335 0.06505 0.47727 0.0
O692 O 0.96506 0.03376 0.44932 0.0
C693 C 0.09611 0.964 0.47731 0.0
C694 C 1.01289 0.96613 0.46455 0.0
C695 C 1.0049 0.98602 0.55799 0.0
C696 C 0.07802 0.97364 0.54817 0.0
C697 C 0.96004 0.06555 0.53478 0.0
C698 C 0.04199 0.06264 0.53825 0.0
C699 C 0.04739 0.04393 0.44522 0.0
C700 C 0.9736 0.0573 0.46046 0.0
O701 O 0.0738 0.94782 0.47064 0.0
O702 O 0.0975 0.98724 0.48725 0.0
O703 O 1.01684 0.98961 0.46441 0.0
O704 O 1.02676 0.95823 0.4798 0.0
Co705 Co 0.56095 0.96773 0.96657 0.0
Co706 Co 0.54585 0.97174 0.02135 0.0
Co707 Co 0.52685 0.01455 0.00379 0.0
O708 O 0.5561 0.99716 0.99691 0.0
H709 H 0.57276 1.0088 1.00193 0.0
O710 O 0.49767 0.03205 0.01084 0.0
Co711 Co 0.49232 0.06096 0.04226 0.0
Co712 Co 0.50966 0.05848 0.98802 0.0
H713 H 0.48126 0.02083 0.0044 0.0
O714 O 0.56919 0.9723 0.04625 0.0
O715 O 0.55811 0.94679 1.00109 0.0
O716 O 0.51043 0.9602 0.0371 0.0
O717 O 0.50748 0.9991 0.04323 0.0
O718 O 0.55036 0.04261 0.02975 0.0
O719 O 0.48607 0.0859 0.07019 0.0
O720 O 0.4559 0.05603 0.04438 0.0
O721 O 0.52857 0.07109 0.04643 0.0
O722 O 0.54616 0.03052 0.96444 0.0
O723 O 0.54583 0.07008 0.9762 0.0
O724 O 0.49694 0.08302 0.00854 0.0
O725 O 0.4879 0.05941 0.96169 0.0
C726 C 0.59121 0.95217 0.94349 0.0
C727 C 0.50409 0.96403 0.96667 0.0
C728 C 0.49857 0.97609 0.04864 0.0
C729 C 0.57089 0.95304 0.02607 0.0
C730 C 0.46192 0.07676 0.06409 0.0
C731 C 0.54915 0.06408 0.04336 0.0
C732 C 0.55705 0.0541 0.96283 0.0
C733 C 0.48478 0.07747 0.98312 0.0
O734 O 0.56674 0.94233 0.939 0.0
O735 O 0.59753 0.9732 0.96262 0.0
O736 O 0.50334 0.98623 0.97789 0.0
O737 O 0.52456 0.95698 0.96459 0.0
Co738 Co 0.05848 0.46543 0.96618 0.0
Co739 Co 0.05742 0.48032 0.02509 0.0
Co740 Co 0.02692 0.51331 1.00032 0.0
O741 O 0.05651 0.4969 0.99231 0.0
H742 H 0.07321 0.50961 0.98944 0.0
O743 O 0.99727 0.53035 0.00867 0.0
Co744 Co 0.9922 0.55898 0.04083 0.0
Co745 Co 1.00705 0.55671 0.98558 0.0
H746 H 0.98071 0.51871 0.00329 0.0
O747 O 0.08814 0.47788 0.03432 0.0
O748 O 0.05885 0.44966 0.00421 0.0
O749 O 0.02843 0.47458 0.05622 0.0
O750 O 1.00489 0.49245 0.03467 0.0
O751 O 0.0482 0.53905 0.03121 0.0
O752 O 0.9861 0.58367 0.06959 0.0
O753 O 0.95565 0.55364 0.04436 0.0
O754 O 0.02881 0.56979 0.04318 0.0
O755 O 0.04881 0.5333 0.96475 0.0
O756 O 0.04264 0.57089 0.97394 0.0
O757 O 0.9952 0.58106 0.00798 0.0
O758 O 0.98335 0.55783 0.96176 0.0
C759 C 0.08809 0.4492 0.94262 0.0
C760 C 1.00376 0.46365 0.96357 0.0
C761 C 1.00715 0.47914 0.05494 0.0
C762 C 0.07927 0.4554 0.01983 0.0
C763 C 0.9618 0.57432 0.06415 0.0
C764 C 0.04846 0.56159 0.04214 0.0
C765 C 0.05679 0.557 0.96265 0.0
C766 C 0.98171 0.57596 0.98379 0.0
O767 O 0.06325 0.43772 0.94138 0.0
O768 O 0.09481 0.4716 0.95864 0.0
O769 O 1.00624 0.4873 0.96919 0.0
O770 O 1.02106 0.45407 0.96899 0.0
Co771 Co 0.55851 0.47268 0.99509 0.0
Co772 Co 0.55246 0.49968 0.04856 0.0
Co773 Co 0.52632 0.51558 1.00271 0.0
O774 O 0.55627 0.50535 0.00708 0.0
H775 H 0.57256 0.51825 1.00265 0.0
O776 O 0.49606 0.52557 0.99869 0.0
Co777 Co 0.49049 0.55584 0.01742 0.0
Co778 Co 0.49757 0.53578 0.96045 0.0
H779 H 0.48039 0.51152 1.00092 0.0
O780 O 0.57999 0.4997 0.06761 0.0
O781 O 0.55283 0.4666 0.0406 0.0
O782 O 0.52087 0.501 0.07508 0.0
O783 O 0.50147 0.49139 0.03175 0.0
O784 O 0.53637 0.54169 0.03877 0.0
O785 O 0.48006 0.5823 0.0349 0.0
O786 O 0.45673 0.54318 0.01655 0.0
O787 O 0.52721 0.57283 0.02213 0.0
O788 O 0.55128 0.5397 0.97348 0.0
O789 O 0.52932 0.53898 0.93383 0.0
O790 O 0.49411 0.56729 0.97508 0.0
O791 O 0.46856 0.53636 0.94387 0.0
C792 C 0.58858 0.45842 0.98919 0.0
C793 C 0.51042 0.46589 0.97009 0.0
C794 C 0.50044 0.49133 0.06129 0.0
C795 C 0.57126 0.47561 0.05941 0.0
C796 C 0.45768 0.56575 0.02935 0.0
C797 C 0.54071 0.56511 0.03794 0.0
C798 C 0.5507 0.54429 0.94565 0.0
C799 C 0.47554 0.55962 0.95655 0.0
O800 O 0.56529 0.44354 0.98422 0.0
O801 O 0.59236 0.48238 0.99694 0.0
O802 O 0.51654 0.4892 0.96693 0.0
O803 O 0.52151 0.45838 0.98921 0.0
Co804 Co 0.07203 0.48349 0.50758 0.0
Co805 Co 0.06031 0.48088 0.45389 0.0
Co806 Co 1.02631 0.51338 0.50348 0.0
O807 O 0.04029 0.48305 0.49176 0.0
H808 H 1.02656 0.46742 0.49411 0.0
O809 O 1.01215 0.5435 0.51562 0.0
Co810 Co 0.98027 0.5429 0.50015 0.0
Co811 Co 0.99234 0.54558 0.55405 0.0
H812 H 1.0258 0.55917 0.51315 0.0
O813 O 0.06088 0.45049 0.43106 0.0
O814 O 0.08967 0.47427 0.46455 0.0
O815 O 0.07094 0.51097 0.43458 0.0
O816 O 0.05006 0.53388 0.46943 0.0
O817 O 0.99899 0.49696 0.47439 0.0
O818 O 0.95298 0.54438 0.48385 0.0
O819 O 0.98991 0.57564 0.49315 0.0
O820 O 0.96642 0.50808 0.50395 0.0
O821 O 1.00278 0.49304 0.53734 0.0
O822 O 0.98245 0.5153 0.57399 0.0
O823 O 0.96263 0.55186 0.5435 0.0
O824 O 0.99155 0.57651 0.57606 0.0
C825 C 0.08522 0.45863 0.52558 0.0
C826 C 0.07798 0.53357 0.52399 0.0
C827 C 0.06594 0.53155 0.44474 0.0
C828 C 0.08282 0.45502 0.44297 0.0
C829 C 0.96707 0.56762 0.48228 0.0
C830 C 0.97455 0.49308 0.48281 0.0
C831 C 0.98759 0.4949 0.56275 0.0
C832 C 0.96959 0.57179 0.56413 0.0
O833 O 0.09924 0.48189 0.52404 0.0
O834 O 0.06227 0.45069 0.51492 0.0
O835 O 0.05358 0.52971 0.53255 0.0
O836 O 0.08615 0.51827 0.50338 0.0
Co837 Co 0.5735 0.98447 0.50719 0.0
Co838 Co 0.56394 0.98392 0.45315 0.0
Co839 Co 0.52924 0.01613 0.5029 0.0
O840 O 0.54295 0.98572 0.4905 0.0
H841 H 0.52888 0.97019 0.49187 0.0
O842 O 0.51519 0.04628 0.51512 0.0
Co843 Co 0.48324 0.04619 0.50033 0.0
Co844 Co 0.49658 0.04959 0.55409 0.0
H845 H 0.52894 0.0618 0.51211 0.0
O846 O 0.56412 0.95369 0.42916 0.0
O847 O 0.59199 0.97548 0.4646 0.0
O848 O 0.57498 0.01455 0.4343 0.0
O849 O 0.55146 0.03586 0.46775 0.0
O850 O 0.50062 0.99861 0.47528 0.0
O851 O 0.45589 0.04854 0.4847 0.0
O852 O 0.49349 0.07892 0.49379 0.0
O853 O 0.46877 1.01144 0.50402 0.0
O854 O 0.50707 0.9967 0.53813 0.0
O855 O 0.48756 0.01981 0.5747 0.0
O856 O 0.46615 0.05471 0.54391 0.0
O857 O 0.49522 0.08107 0.57497 0.0
C858 C 0.58429 0.95815 0.52528 0.0
C859 C 0.58223 0.03561 0.52294 0.0
C860 C 0.56807 0.03432 0.44363 0.0
C861 C 0.58529 0.95693 0.44216 0.0
C862 C 0.47054 0.07164 0.48331 0.0
C863 C 0.47625 0.99568 0.48349 0.0
C864 C 0.49257 0.99925 0.56394 0.0
C865 C 0.47288 0.0752 0.5636 0.0
O866 O 0.59955 0.98109 0.52461 0.0
O867 O 0.56183 0.95161 0.51367 0.0
O868 O 0.55794 0.0336 0.53056 0.0
O869 O 0.58935 0.01901 0.50352 0.0
H870 H 0.18528 0.22171 0.28955 0.0
H871 H 0.15512 0.18798 0.3182 0.0
H872 H 0.22061 0.17075 0.34527 0.0
H873 H 0.25089 0.20405 0.3166 0.0
H874 H 0.15783 0.13323 0.3067 0.0
H875 H 0.16978 0.1801 0.4286 0.0
H876 H 0.17606 0.19787 0.39552 0.0
H877 H 0.1987 0.1819 0.40132 0.0
C878 C 0.19329 0.21079 0.30163 0.0
C879 C 0.22053 0.21552 0.30055 0.0
C880 C 0.17604 0.19158 0.318 0.0
C881 C 0.18573 0.17706 0.33392 0.0
C882 C 0.21282 0.18193 0.33333 0.0
H883 H 0.09936 0.0605 0.45546 0.0
H884 H 0.135 0.09091 0.42727 0.0
C885 C 0.23006 0.20097 0.31682 0.0
C886 C 0.16752 0.15614 0.35017 0.0
H887 H 0.14154 0.13871 0.42265 0.0
C888 C 0.15423 0.13434 0.33205 0.0
C889 C 0.16344 0.15756 0.38318 0.0
C890 C 0.1776 0.1806 0.40349 0.0
C891 C 0.13661 0.11389 0.34611 0.0
C892 C 0.13146 0.11571 0.37921 0.0
C893 C 0.14537 0.13733 0.39732 0.0
C894 C 0.11047 0.09622 0.39532 0.0
C895 C 0.124 0.09046 0.32524 0.0
C896 C 0.08487 0.08923 0.38693 0.0
C897 C 0.06474 0.07162 0.40248 0.0
C898 C 0.06953 0.06102 0.42745 0.0
C899 C 0.09511 0.0682 0.43618 0.0
C900 C 0.11544 0.08561 0.42015 0.0
H901 H 0.13679 0.0884 0.3031 0.0
H902 H 0.11965 0.07325 0.33705 0.0
H903 H 0.10541 0.09189 0.31888 0.0
H904 H 0.08027 0.0978 0.3687 0.0
H905 H 0.0452 0.06695 0.3955 0.0
H906 H 0.86139 0.20582 0.37073 0.0
H907 H 0.89315 0.19338 0.3948 0.0
H908 H 0.86136 0.11657 0.35489 0.0
H909 H 0.82952 0.12879 0.33088 0.0
H910 H 0.87406 0.14767 0.43633 0.0
H911 H 0.9471 0.14187 0.33277 0.0
H912 H 0.92715 0.16297 0.33726 0.0
H913 H 0.91293 0.12992 0.32662 0.0
C914 C 0.86133 0.18632 0.36698 0.0
C915 C 0.843 0.16819 0.34911 0.0
C916 C 0.87941 0.1793 0.38067 0.0
C917 C 0.8796 0.15419 0.37624 0.0
C918 C 0.86151 0.1361 0.35824 0.0
H919 H 0.92436 0.04641 0.44446 0.0
H920 H 0.90444 0.07494 0.4275 0.0
C921 C 0.84326 0.14303 0.34483 0.0
C922 C 0.89756 0.14629 0.3919 0.0
H923 H 0.94978 0.12288 0.37699 0.0
C924 C 0.891 0.1428 0.42363 0.0
C925 C 0.91952 0.13999 0.37508 0.0
C926 C 0.92734 0.14396 0.34105 0.0
C927 C 0.90506 0.13168 0.43858 0.0
C928 C 0.92609 0.12405 0.42134 0.0
C929 C 0.93364 0.12892 0.3901 0.0
C930 C 0.93787 0.10783 0.43397 0.0
C931 C 0.89634 0.12655 0.47206 0.0
C932 C 0.96306 0.11717 0.4437 0.0
C933 C 0.97444 0.10093 0.45376 0.0
C934 C 0.96086 0.07516 0.45352 0.0
C935 C 0.93536 0.06613 0.44455 0.0
C936 C 0.92394 0.08237 0.43494 0.0
H937 H 0.88351 0.138 0.48407 0.0
H938 H 0.88515 0.10635 0.47217 0.0
H939 H 0.91345 0.13032 0.48538 0.0
H940 H 0.97398 0.13685 0.44306 0.0
H941 H 0.99415 0.10832 0.46056 0.0
H942 H 0.84628 0.788 0.30945 0.0
H943 H 0.87938 0.81625 0.34161 0.0
H944 H 0.85578 0.87945 0.32585 0.0
H945 H 0.82207 0.85117 0.2942 0.0
H946 H 0.92156 0.85643 0.32633 0.0
H947 H 0.85387 0.88833 0.42077 0.0
H948 H 0.84268 0.86167 0.392 0.0
H949 H 0.84982 0.89316 0.38215 0.0
C950 C 0.84801 0.80789 0.31284 0.0
C951 C 0.83144 0.81725 0.29911 0.0
C952 C 0.86703 0.82406 0.33125 0.0
C953 C 0.86993 0.84999 0.33661 0.0
C954 C 0.85364 0.85948 0.32265 0.0
H955 H 0.97712 0.97757 0.43553 0.0
H956 H 0.94269 0.94908 0.40554 0.0
C957 C 0.83453 0.84328 0.30423 0.0
C958 C 0.89033 0.86698 0.35634 0.0
H959 H 0.89932 0.90892 0.42271 0.0
C960 C 0.91666 0.86779 0.34749 0.0
C961 C 0.88402 0.8819 0.38398 0.0
C962 C 0.85606 0.88113 0.39553 0.0
C963 C 0.9368 0.88333 0.36513 0.0
C964 C 0.9305 0.89818 0.3928 0.0
C965 C 0.90419 0.89746 0.40162 0.0
C966 C 0.95107 0.91521 0.41229 0.0
C967 C 0.96477 0.88422 0.35351 0.0
C968 C 0.96709 0.90571 0.42673 0.0
C969 C 0.98698 0.92205 0.44406 0.0
C970 C 0.99127 0.94825 0.44729 0.0
C971 C 0.9747 0.95756 0.43339 0.0
C972 C 0.95484 0.94126 0.41624 0.0
H973 H 0.96688 0.8765 0.32846 0.0
H974 H 0.97793 0.90381 0.35637 0.0
H975 H 0.97134 0.87278 0.36742 0.0
H976 H 0.96425 0.88564 0.42456 0.0
H977 H 0.99915 0.91417 0.45461 0.0
H978 H 0.2397 0.86874 0.37194 0.0
H979 H 0.24425 0.88243 0.42791 0.0
H980 H 0.1612 0.87405 0.44429 0.0
H981 H 0.15707 0.86131 0.38889 0.0
H982 H 0.23504 0.92552 0.45237 0.0
H983 H 0.17053 0.85903 0.52836 0.0
H984 H 0.19015 0.84921 0.49401 0.0
H985 H 0.15748 0.85039 0.49132 0.0
C986 C 0.22257 0.86993 0.38787 0.0
C987 C 0.19821 0.86507 0.37654 0.0
C988 C 0.22507 0.87708 0.41973 0.0
C989 C 0.20309 0.87884 0.44053 0.0
C990 C 0.17847 0.87243 0.42904 0.0
H991 H 0.10335 0.9187 0.45426 0.0
H992 H 0.13777 0.9028 0.46514 0.0
C993 C 0.17611 0.8658 0.39728 0.0
C994 C 0.20628 0.89387 0.47143 0.0
H995 H 0.15292 0.89621 0.52128 0.0
C996 C 0.2181 0.91964 0.46933 0.0
C997 C 0.18626 0.88665 0.49588 0.0
C998 C 0.17571 0.85973 0.50273 0.0
C999 C 0.20368 0.93652 0.48095 0.0
C1000 C 0.17876 0.92712 0.49758 0.0
C1001 C 0.17182 0.90332 0.50807 0.0
C1002 C 0.15728 0.93679 0.49376 0.0
C1003 C 0.2127 0.96236 0.47003 0.0
C1004 C 0.1572 0.96124 0.50575 0.0
C1005 C 0.13816 0.97067 0.49844 0.0
C1006 C 0.11846 0.95541 0.47996 0.0
C1007 C 0.11847 0.93088 0.46821 0.0
C1008 C 0.13786 0.9217 0.47491 0.0
H1009 H 0.23273 0.9666 0.45736 0.0
H1010 H 0.19908 0.96376 0.45405 0.0
H1011 H 0.21272 0.97691 0.4904 0.0
H1012 H 0.17181 0.973 0.52062 0.0
H1013 H 0.13825 0.98956 0.50846 0.0
H1014 H 0.1479 0.79958 0.64012 0.0
H1015 H 0.13562 0.8251 0.60769 0.0
H1016 H 0.1864 0.89238 0.6534 0.0
H1017 H 0.19935 0.86679 0.68509 0.0
H1018 H 0.10972 0.8571 0.63149 0.0
H1019 H 0.20089 0.90949 0.56541 0.0
H1020 H 0.19895 0.88242 0.58418 0.0
H1021 H 0.20404 0.91303 0.60647 0.0
C1022 C 0.15688 0.81978 0.64265 0.0
C1023 C 0.17443 0.83129 0.66516 0.0
C1024 C 0.14992 0.83433 0.62412 0.0
C1025 C 0.16021 0.86065 0.62793 0.0
C1026 C 0.17869 0.87209 0.64943 0.0
H1027 H 0.11693 0.98545 0.58614 0.0
H1028 H 0.13691 0.95714 0.60311 0.0
C1029 C 0.18596 0.85748 0.66768 0.0
C1030 C 0.14893 0.87614 0.6127 0.0
H1031 H 0.16463 0.92668 0.57152 0.0
C1032 C 0.12168 0.87189 0.61765 0.0
C1033 C 0.16458 0.89573 0.59515 0.0
C1034 C 0.1937 0.90028 0.58722 0.0
C1035 C 0.10968 0.88695 0.60609 0.0
C1036 C 0.12537 0.90673 0.5889 0.0
C1037 C 0.15263 0.91121 0.58425 0.0
C1038 C 0.11396 0.92373 0.57688 0.0
C1039 C 0.08048 0.88229 0.6137 0.0
C1040 C 0.09478 0.91437 0.55591 0.0
C1041 C 0.08298 0.9305 0.54641 0.0
C1042 C 0.09054 0.95629 0.55737 0.0
C1043 C 0.11042 0.96565 0.57749 0.0
C1044 C 0.12201 0.94953 0.58711 0.0
H1045 H 0.07255 0.87088 0.63361 0.0
H1046 H 0.07553 0.9003 0.61963 0.0
H1047 H 0.07051 0.8718 0.59298 0.0
H1048 H 0.08881 0.89458 0.5471 0.0
H1049 H 0.06799 0.92279 0.53056 0.0
H1050 H 0.23101 0.1783 0.71121 0.0
H1051 H 0.19764 0.14999 0.67909 0.0
H1052 H 0.17224 0.21276 0.66581 0.0
H1053 H 0.20543 0.24111 0.6978 0.0
H1054 H 0.14344 0.13927 0.68646 0.0
H1055 H 0.18452 0.18177 0.57616 0.0
H1056 H 0.20266 0.1886 0.60977 0.0
H1057 H 0.17835 0.20404 0.60836 0.0
C1058 C 0.21811 0.18606 0.70182 0.0
C1059 C 0.22083 0.21202 0.7074 0.0
C1060 C 0.19913 0.16984 0.68323 0.0
C1061 C 0.18264 0.17924 0.66951 0.0
C1062 C 0.18506 0.20507 0.67547 0.0
H1063 H 0.05551 0.11452 0.54981 0.0
H1064 H 0.08935 0.14243 0.58184 0.0
C1065 C 0.20399 0.22127 0.69402 0.0
C1066 C 0.16261 0.16207 0.64942 0.0
H1067 H 0.14206 0.1522 0.57641 0.0
C1068 C 0.14322 0.14201 0.66234 0.0
C1069 C 0.16224 0.16561 0.61791 0.0
C1070 C 0.18319 0.18601 0.60208 0.0
C1071 C 0.12316 0.12586 0.645 0.0
C1072 C 0.12269 0.12946 0.61349 0.0
C1073 C 0.14221 0.14945 0.60053 0.0
C1074 C 0.10237 0.11253 0.59349 0.0
C1075 C 0.10226 0.10554 0.66103 0.0
C1076 C 0.09874 0.08647 0.58859 0.0
C1077 C 0.07935 0.07052 0.57051 0.0
C1078 C 0.06322 0.08018 0.55638 0.0
C1079 C 0.06742 0.10638 0.56042 0.0
C1080 C 0.08679 0.12237 0.57876 0.0
H1081 H 0.10073 0.11014 0.68692 0.0
H1082 H 0.0828 0.10257 0.65308 0.0
H1083 H 0.10738 0.08762 0.6554 0.0
H1084 H 0.11096 0.07838 0.59874 0.0
H1085 H 0.07704 0.05051 0.56766 0.0
H1086 H 0.85 0.19366 0.70711 0.0
H1087 H 0.83611 0.15348 0.67588 0.0
H1088 H 0.89172 0.18266 0.59885 0.0
H1089 H 0.9037 0.22462 0.6291 0.0
H1090 H 0.84535 0.14302 0.58056 0.0
H1091 H 0.892 0.12033 0.67444 0.0
H1092 H 0.86336 0.13041 0.68689 0.0
H1093 H 0.89299 0.15205 0.67108 0.0
C1094 C 0.85809 0.19219 0.6828 0.0
C1095 C 0.87743 0.21255 0.67018 0.0
C1096 C 0.8502 0.16908 0.66515 0.0
C1097 C 0.86291 0.16525 0.6354 0.0
C1098 C 0.88152 0.18556 0.62189 0.0
H1099 H 0.95504 0.1121 0.53789 0.0
H1100 H 0.91619 0.12503 0.55874 0.0
C1101 C 0.8887 0.20928 0.63925 0.0
C1102 C 0.8613 0.13949 0.62167 0.0
H1103 H 0.88586 0.0923 0.62958 0.0
C1104 C 0.85357 0.13153 0.59147 0.0
C1105 C 0.87124 0.12425 0.63666 0.0
C1106 C 0.88052 0.13215 0.66894 0.0
C1107 C 0.85894 0.11028 0.57424 0.0
C1108 C 0.87231 0.09737 0.58772 0.0
C1109 C 0.8757 0.10266 0.61955 0.0
C1110 C 0.89212 0.0876 0.56836 0.0
C1111 C 0.85288 0.10294 0.54077 0.0
C1112 C 0.89113 0.06241 0.56722 0.0
C1113 C 0.91327 0.05504 0.55523 0.0
C1114 C 0.93657 0.07303 0.54533 0.0
C1115 C 0.93727 0.09808 0.54574 0.0
C1116 C 0.91505 0.1053 0.55704 0.0
H1117 H 0.84318 0.11542 0.53308 0.0
H1118 H 0.87115 0.1035 0.52519 0.0
H1119 H 0.84003 0.08321 0.53811 0.0
H1120 H 0.87376 0.04885 0.5768 0.0
H1121 H 0.91255 0.03556 0.55505 0.0
H1122 H 0.86737 0.80358 0.70723 0.0
H1123 H 0.89733 0.83697 0.67791 0.0
H1124 H 0.83294 0.86426 0.66834 0.0
H1125 H 0.80289 0.83112 0.69766 0.0
H1126 H 0.89396 0.84839 0.61506 0.0
H1127 H 0.88906 0.92611 0.70969 0.0
H1128 H 0.87941 0.89354 0.71686 0.0
H1129 H 0.85817 0.90502 0.69897 0.0
C1130 C 0.8596 0.81673 0.69895 0.0
C1131 C 0.83281 0.8149 0.70512 0.0
C1132 C 0.87671 0.83571 0.68212 0.0
C1133 C 0.86735 0.85322 0.67135 0.0
C1134 C 0.84056 0.85111 0.67685 0.0
H1135 H 0.95703 0.95923 0.53794 0.0
H1136 H 0.9217 0.92799 0.56507 0.0
C1137 C 0.82343 0.83209 0.69352 0.0
C1138 C 0.88568 0.87389 0.65464 0.0
H1139 H 0.91341 0.93763 0.66163 0.0
C1140 C 0.89819 0.86793 0.62511 0.0
C1141 C 0.89123 0.89928 0.66805 0.0
C1142 C 0.87897 0.90651 0.70024 0.0
C1143 C 0.91622 0.88676 0.60857 0.0
C1144 C 0.92158 0.91223 0.6218 0.0
C1145 C 0.90903 0.91814 0.65137 0.0
C1146 C 0.9416 0.93276 0.60632 0.0
C1147 C 0.92998 0.87914 0.57752 0.0
C1148 C 0.96394 0.9466 0.6211 0.0
C1149 C 0.984 0.96459 0.60586 0.0
C1150 C 0.98216 0.96916 0.57543 0.0
C1151 C 0.95919 0.95607 0.56123 0.0
C1152 C 0.93905 0.93808 0.57661 0.0
H1153 H 0.92787 0.85865 0.57392 0.0
H1154 H 0.92135 0.88358 0.55828 0.0
H1155 H 0.95116 0.88968 0.57579 0.0
H1156 H 0.96625 0.94291 0.6441 0.0
H1157 H 1.00131 0.97437 0.61762 0.0
H1158 H 0.28425 0.19044 0.19277 0.0
H1159 H 0.30951 0.16263 0.1651 0.0
H1160 H 0.38127 0.22164 0.18005 0.0
H1161 H 0.35612 0.24979 0.20649 0.0
H1162 H 0.34588 0.16556 0.11183 0.0
H1163 H 0.3946 0.1643 0.21486 0.0
H1164 H 0.36745 0.17711 0.21814 0.0
H1165 H 0.3999 0.19527 0.2045 0.0
C1166 C 0.3054 0.19766 0.19001 0.0
C1167 C 0.31794 0.22245 0.20267 0.0
C1168 C 0.31994 0.18158 0.17419 0.0
C1169 C 0.34756 0.18953 0.17089 0.0
C1170 C 0.3601 0.2145 0.18282 0.0
H1171 H 0.47356 0.12269 0.09902 0.0
H1172 H 0.44548 0.14827 0.12242 0.0
C1173 C 0.34557 0.23068 0.19821 0.0
C1174 C 0.36315 0.17188 0.155 0.0
H1175 H 0.40957 0.14499 0.16637 0.0
C1176 C 0.35971 0.16098 0.12386 0.0
C1177 C 0.38148 0.16575 0.17027 0.0
C1178 C 0.38597 0.17601 0.20386 0.0
C1179 C 0.37439 0.14501 0.10749 0.0
C1180 C 0.39262 0.13867 0.12283 0.0
C1181 C 0.39577 0.14945 0.15415 0.0
C1182 C 0.40963 0.12217 0.10683 0.0
C1183 C 0.3709 0.13605 0.07341 0.0
C1184 C 0.3995 0.09833 0.08964 0.0
C1185 C 0.41598 0.08339 0.07547 0.0
C1186 C 0.44306 0.09158 0.07857 0.0
C1187 C 0.45292 0.11529 0.09596 0.0
C1188 C 0.43667 0.13018 0.10964 0.0
H1189 H 0.36295 0.14851 0.0628 0.0
H1190 H 0.3897 0.13524 0.05963 0.0
H1191 H 0.35673 0.11692 0.07142 0.0
H1192 H 0.37873 0.09097 0.08749 0.0
H1193 H 0.40747 0.06537 0.0624 0.0
H1194 H 0.84811 0.33326 0.23589 0.0
H1195 H 0.87737 0.36701 0.20708 0.0
H1196 H 0.83179 0.33967 0.12854 0.0
H1197 H 0.80222 0.30549 0.15746 0.0
H1198 H 0.88937 0.34884 0.11543 0.0
H1199 H 0.86182 0.43041 0.18378 0.0
H1200 H 0.86714 0.40879 0.20675 0.0
H1201 H 0.84032 0.39851 0.18312 0.0
C1202 C 0.84424 0.33439 0.21249 0.0
C1203 C 0.82297 0.31662 0.19882 0.0
C1204 C 0.86086 0.35386 0.19618 0.0
C1205 C 0.8566 0.35603 0.16582 0.0
C1206 C 0.83527 0.33843 0.15207 0.0
H1207 H 0.95536 0.47624 0.05345 0.0
H1208 H 0.9167 0.44751 0.07975 0.0
C1209 C 0.8184 0.31899 0.16859 0.0
C1210 C 0.87544 0.3759 0.1481 0.0
H1211 H 0.90194 0.43973 0.15004 0.0
C1212 C 0.89185 0.3687 0.12266 0.0
C1213 C 0.87862 0.4018 0.15756 0.0
C1214 C 0.86093 0.41046 0.18414 0.0
C1215 C 0.91209 0.38674 0.10728 0.0
C1216 C 0.91606 0.41263 0.11767 0.0
C1217 C 0.89893 0.41988 0.14223 0.0
C1218 C 0.93898 0.43212 0.10448 0.0
C1219 C 0.92955 0.37799 0.08046 0.0
C1220 C 0.96418 0.43365 0.11067 0.0
C1221 C 0.9862 0.45011 0.09602 0.0
C1222 C 0.98357 0.46541 0.07464 0.0
C1223 C 0.95816 0.46481 0.06976 0.0
C1224 C 0.93604 0.44833 0.08466 0.0
H1225 H 0.92053 0.35817 0.07082 0.0
H1226 H 0.93397 0.39017 0.06133 0.0
H1227 H 0.94837 0.37921 0.08891 0.0
H1228 H 0.96685 0.42151 0.12619 0.0
H1229 H 1.00535 0.45004 0.10058 0.0
H1230 H 0.71903 0.81914 0.06032 0.0
H1231 H 0.68864 0.83792 0.04393 0.0
H1232 H 0.68708 0.88257 0.13388 0.0
H1233 H 0.71822 0.86456 0.15011 0.0
H1234 H 0.63822 0.83982 0.0694 0.0
H1235 H 0.71015 0.93516 0.07162 0.0
H1236 H 0.71946 0.90734 0.07364 0.0
H1237 H 0.70398 0.92162 0.10782 0.0
C1238 C 0.71226 0.833 0.07661 0.0
C1239 C 0.7213 0.84058 0.10639 0.0
C1240 C 0.69478 0.84357 0.06727 0.0
C1241 C 0.68603 0.86194 0.08748 0.0
C1242 C 0.69402 0.86874 0.11773 0.0
H1243 H 0.59264 0.95738 0.07984 0.0
H1244 H 0.61975 0.93373 0.09209 0.0
C1245 C 0.71156 0.85821 0.1271 0.0
C1246 C 0.66919 0.87449 0.07646 0.0
H1247 H 0.66704 0.93172 0.06235 0.0
C1248 C 0.6445 0.85989 0.06768 0.0
C1249 C 0.6776 0.90063 0.07408 0.0
C1250 C 0.70433 0.91711 0.082 0.0
C1251 C 0.62758 0.87093 0.05756 0.0
C1252 C 0.63589 0.89713 0.05558 0.0
C1253 C 0.66078 0.9116 0.06381 0.0
C1254 C 0.61844 0.91042 0.04749 0.0
C1255 C 0.60065 0.85466 0.05017 0.0
C1256 C 0.60856 0.90511 0.01821 0.0
C1257 C 0.59263 0.91856 0.0111 0.0
C1258 C 0.58677 0.93773 0.03303 0.0
C1259 C 0.59677 0.94284 0.06226 0.0
C1260 C 0.61235 0.92933 0.06938 0.0
H1261 H 0.59527 0.83617 0.05938 0.0
H1262 H 0.58561 0.86422 0.06016 0.0
H1263 H 0.60025 0.85116 0.02438 0.0
H1264 H 0.61345 0.89086 1.00075 0.0
H1265 H 0.58527 0.91421 0.9884 0.0
H1266 H 0.25872 0.72649 0.15 0.0
H1267 H 0.22991 0.69486 0.11459 0.0
H1268 H 0.17265 0.6731 0.19348 0.0
H1269 H 0.20118 0.70385 0.22847 0.0
H1270 H 0.17982 0.63243 0.15367 0.0
H1271 H 0.16248 0.70298 0.0894 0.0
H1272 H 0.19614 0.70434 0.08985 0.0
H1273 H 0.17726 0.71154 0.1257 0.0
C1274 C 0.24018 0.71459 0.15964 0.0
C1275 C 0.23213 0.71765 0.19188 0.0
C1276 C 0.22363 0.69677 0.13946 0.0
C1277 C 0.19894 0.68187 0.15138 0.0
C1278 C 0.19151 0.68439 0.18371 0.0
H1279 H 0.05295 0.60689 0.07794 0.0
H1280 H 0.09127 0.63511 0.10149 0.0
C1281 C 0.20786 0.70205 0.20368 0.0
C1282 C 0.18021 0.66382 0.13075 0.0
H1283 H 0.1397 0.66047 0.0758 0.0
C1284 C 0.1713 0.63846 0.13629 0.0
C1285 C 0.16869 0.67189 0.10866 0.0
C1286 C 0.17638 0.69918 0.10308 0.0
C1287 C 0.15083 0.62104 0.12091 0.0
C1288 C 0.13942 0.62903 0.09862 0.0
C1289 C 0.14868 0.65431 0.09261 0.0
C1290 C 0.11658 0.61191 0.08308 0.0
C1291 C 0.14069 0.59459 0.12993 0.0
C1292 C 0.11807 0.58951 0.06454 0.0
C1293 C 0.09601 0.57308 0.05119 0.0
C1294 C 0.07212 0.57892 0.05584 0.0
C1295 C 0.07096 0.60169 0.07383 0.0
C1296 C 0.09291 0.61795 0.0873 0.0
H1297 H 0.14725 0.59324 0.15249 0.0
H1298 H 0.11895 0.58792 0.13205 0.0
H1299 H 0.14815 0.58177 0.11153 0.0
H1300 H 0.13628 0.5847 0.06042 0.0
H1301 H 0.09771 0.55589 0.03714 0.0
H1302 H 0.32295 0.84282 0.7913 0.0
H1303 H 0.35403 0.87248 0.82457 0.0
H1304 H 0.35719 0.81175 0.87198 0.0
H1305 H 0.32534 0.78178 0.83911 0.0
H1306 H 0.35585 0.8551 0.91244 0.0
H1307 H 0.43164 0.87732 0.81136 0.0
H1308 H 0.40167 0.8833 0.80695 0.0
H1309 H 0.40184 0.85165 0.80853 0.0
C1310 C 0.32991 0.83571 0.80906 0.0
C1311 C 0.32196 0.80984 0.81226 0.0
C1312 C 0.34788 0.85272 0.82789 0.0
C1313 C 0.35837 0.84422 0.85018 0.0
C1314 C 0.34948 0.81863 0.85464 0.0
H1315 H 0.50125 0.91814 0.9334 0.0
H1316 H 0.46484 0.8896 0.90691 0.0
C1317 C 0.33133 0.80155 0.83588 0.0
C1318 C 0.37913 0.86199 0.86821 0.0
H1319 H 0.44107 0.90237 0.8599 0.0
C1320 C 0.37449 0.86545 0.90101 0.0
C1321 C 0.40352 0.87528 0.85316 0.0
C1322 C 0.41013 0.87157 0.81809 0.0
C1323 C 0.39356 0.88205 0.91919 0.0
C1324 C 0.41768 0.89565 0.90409 0.0
C1325 C 0.42238 0.89208 0.87133 0.0
C1326 C 0.43895 0.91272 0.92184 0.0
C1327 C 0.38804 0.88457 0.95441 0.0
C1328 C 0.43637 0.93519 0.93918 0.0
C1329 C 0.45728 0.95176 0.95445 0.0
C1330 C 0.48108 0.94605 0.95254 0.0
C1331 C 0.48326 0.92322 0.93554 0.0
C1332 C 0.46248 0.90684 0.92025 0.0
H1333 H 0.37068 0.86935 0.96255 0.0
H1334 H 0.40523 0.88423 0.96536 0.0
H1335 H 0.38424 0.9029 0.96273 0.0
H1336 H 0.41839 0.94014 0.94035 0.0
H1337 H 0.45494 0.96914 0.96732 0.0
H1338 H 0.24237 0.3041 0.84867 0.0
H1339 H 0.21613 0.33106 0.87635 0.0
H1340 H 0.1959 0.34116 0.78803 0.0
H1341 H 0.22191 0.31396 0.76052 0.0
H1342 H 0.22113 0.38417 0.86707 0.0
H1343 H 0.12385 0.31809 0.84326 0.0
H1344 H 0.1527 0.30779 0.84042 0.0
H1345 H 0.14814 0.32377 0.80998 0.0
C1346 C 0.23215 0.31175 0.83516 0.0
C1347 C 0.23449 0.30668 0.80225 0.0
C1348 C 0.21722 0.32746 0.85104 0.0
C1349 C 0.20371 0.33829 0.83453 0.0
C1350 C 0.20584 0.33308 0.80162 0.0
H1351 H 0.08778 0.42159 0.8851 0.0
H1352 H 0.11687 0.39694 0.86014 0.0
C1353 C 0.221 0.31762 0.7858 0.0
C1354 C 0.18755 0.35503 0.85149 0.0
H1355 H 0.12468 0.35863 0.86759 0.0
C1356 C 0.20001 0.3786 0.86723 0.0
C1357 C 0.15997 0.34807 0.85174 0.0
C1358 C 0.14521 0.323 0.83568 0.0
C1359 C 0.18598 0.39558 0.8821 0.0
C1360 C 0.15814 0.38858 0.88276 0.0
C1361 C 0.1458 0.36463 0.86737 0.0
C1362 C 0.14139 0.40563 0.89807 0.0
C1363 C 0.20163 0.42128 0.8956 0.0
C1364 C 0.14492 0.41961 0.92799 0.0
C1365 C 0.12878 0.4349 0.94174 0.0
C1366 C 0.10775 0.43588 0.92676 0.0
C1367 C 0.10388 0.42161 0.8973 0.0
C1368 C 0.12055 0.40716 0.88306 0.0
H1369 H 0.22203 0.42658 0.884 0.0
H1370 H 0.1926 0.43599 0.89307 0.0
H1371 H 0.20279 0.42102 0.92083 0.0
H1372 H 0.15971 0.4183 0.94134 0.0
H1373 H 0.13207 0.44507 0.96476 0.0
H1374 H 0.74646 0.22171 0.84563 0.0
H1375 H 0.71765 0.18573 0.87121 0.0
H1376 H 0.66851 0.16623 0.79598 0.0
H1377 H 0.69733 0.2021 0.7703 0.0
H1378 H 0.64109 0.16702 0.85546 0.0
H1379 H 0.71023 0.11036 0.84678 0.0
H1380 H 0.72277 0.14306 0.86122 0.0
H1381 H 0.7144 0.13434 0.82161 0.0
C1382 C 0.72989 0.20944 0.83418 0.0
C1383 C 0.72484 0.2142 0.80526 0.0
C1384 C 0.71339 0.18889 0.84885 0.0
C1385 C 0.69136 0.17283 0.83501 0.0
C1386 C 0.68569 0.1781 0.80677 0.0
H1387 H 0.57036 0.03988 0.90077 0.0
H1388 H 0.60516 0.06618 0.86626 0.0
C1389 C 0.70222 0.19861 0.79209 0.0
C1390 C 0.67333 0.15145 0.8509 0.0
H1391 H 0.67025 0.09707 0.87929 0.0
C1392 C 0.64738 0.15157 0.8603 0.0
C1393 C 0.68153 0.13125 0.8571 0.0
C1394 C 0.7087 0.12949 0.84599 0.0
C1395 C 0.62971 0.13247 0.87662 0.0
C1396 C 0.6382 0.11276 0.88367 0.0
C1397 C 0.66388 0.11222 0.87368 0.0
C1398 C 0.62111 0.0941 0.90401 0.0
C1399 C 0.60223 0.1338 0.88718 0.0
C1400 C 0.61956 0.10065 0.93648 0.0
C1401 C 0.59999 0.08579 0.95594 0.0
C1402 C 0.58172 0.06404 0.94331 0.0
C1403 C 0.58456 0.05629 0.91103 0.0
C1404 C 0.6042 0.07138 0.89137 0.0
H1405 H 0.59779 0.14867 0.8768 0.0
H1406 H 0.58776 0.11541 0.8807 0.0
H1407 H 0.59977 0.1379 0.91309 0.0
H1408 H 0.6324 0.11815 0.94656 0.0
H1409 H 0.59793 0.09229 0.98074 0.0
H1410 H 0.92789 0.73409 0.85464 0.0
H1411 H 0.9408 0.71185 0.8907 0.0
H1412 H 0.86079 0.66577 0.9067 0.0
H1413 H 0.84764 0.68817 0.87059 0.0
H1414 H 0.89644 0.68383 0.96309 0.0
H1415 H 0.93401 0.63483 0.85334 0.0
H1416 H 0.94338 0.66863 0.85619 0.0
H1417 H 0.90963 0.65081 0.85412 0.0
C1418 C 0.91298 0.71952 0.86629 0.0
C1419 C 0.88688 0.71251 0.85949 0.0
C1420 C 0.92033 0.70701 0.88702 0.0
C1421 C 0.90175 0.68716 0.90113 0.0
C1422 C 0.87533 0.68118 0.89611 0.0
H1423 H 0.93967 0.56217 0.95117 0.0
H1424 H 0.91746 0.58939 0.93587 0.0
C1425 C 0.86788 0.69389 0.87546 0.0
C1426 C 0.91076 0.67041 0.91687 0.0
H1427 H 0.94395 0.6267 0.90088 0.0
C1428 C 0.90672 0.67121 0.94964 0.0
C1429 C 0.9239 0.65388 0.89908 0.0
C1430 C 0.9279 0.65172 0.86371 0.0
C1431 C 0.91596 0.65598 0.96514 0.0
C1432 C 0.92974 0.63995 0.94729 0.0
C1433 C 0.93344 0.63907 0.91452 0.0
C1434 C 0.94014 0.6233 0.96157 0.0
C1435 C 0.91063 0.65686 1.00031 0.0
C1436 C 0.95972 0.63322 0.982 0.0
C1437 C 0.97232 0.61754 0.99114 0.0
C1438 C 0.96581 0.59194 0.97935 0.0
C1439 C 0.9453 0.58192 0.96028 0.0
C1440 C 0.93255 0.59743 0.95157 0.0
H1441 H 0.8944 0.66504 0.00962 0.0
H1442 H 0.90566 0.63775 0.00771 0.0
H1443 H 0.92849 0.66878 0.01103 0.0
H1444 H 0.96619 0.65323 0.98955 0.0
H1445 H 0.98814 0.6257 0.0058 0.0
H1446 H 0.16921 0.35414 0.18252 0.0
H1447 H 0.15505 0.37451 0.14548 0.0
H1448 H 0.15763 0.31279 0.07395 0.0
H1449 H 0.1717 0.29206 0.11113 0.0
H1450 H 0.17759 0.36538 0.05431 0.0
H1451 H 0.07823 0.3416 0.11954 0.0
H1452 H 0.1044 0.35661 0.14364 0.0
H1453 H 0.10209 0.32592 0.12291 0.0
C1454 C 0.167 0.34498 0.15883 0.0
C1455 C 0.17112 0.3213 0.14988 0.0
C1456 C 0.15897 0.35666 0.1377 0.0
C1457 C 0.15485 0.3449 0.10723 0.0
C1458 C 0.16059 0.32206 0.09746 0.0
H1459 H 0.05939 0.40394 0.00931 0.0
H1460 H 0.0779 0.37277 0.02319 0.0
C1461 C 0.1687 0.31031 0.11867 0.0
C1462 C 0.14273 0.35577 0.0867 0.0
H1463 H 0.0875 0.37219 0.08379 0.0
C1464 C 0.15776 0.36654 0.06038 0.0
C1465 C 0.11667 0.35679 0.09432 0.0
C1466 C 0.09926 0.34442 0.12147 0.0
C1467 C 0.14789 0.37975 0.04263 0.0
C1468 C 0.12255 0.38241 0.05177 0.0
C1469 C 0.10696 0.37022 0.07686 0.0
C1470 C 0.11311 0.40031 0.03851 0.0
C1471 C 0.16487 0.39126 0.01471 0.0
C1472 C 0.12691 0.42599 0.04215 0.0
C1473 C 0.11638 0.4437 0.03451 0.0
C1474 C 0.09174 0.43614 0.02314 0.0
C1475 C 0.07845 0.41031 0.01797 0.0
C1476 C 0.08897 0.39251 0.0259 0.0
H1477 H 0.17898 0.38068 0.00444 0.0
H1478 H 0.15287 0.39175 0.99627 0.0
H1479 H 0.17632 0.41086 0.02229 0.0
H1480 H 0.14528 0.43251 0.05245 0.0
H1481 H 0.1272 0.46345 0.03857 0.0
H1482 H 0.22393 0.73625 0.83787 0.0
H1483 H 0.19207 0.70368 0.86682 0.0
H1484 H 0.20922 0.64618 0.79671 0.0
H1485 H 0.24087 0.67843 0.76768 0.0
H1486 H 0.14739 0.66698 0.84693 0.0
H1487 H 0.21765 0.62274 0.87782 0.0
H1488 H 0.22798 0.65322 0.86368 0.0
H1489 H 0.21955 0.62502 0.83672 0.0
C1490 C 0.22088 0.71667 0.82862 0.0
C1491 C 0.23494 0.70997 0.80046 0.0
C1492 C 0.20274 0.69808 0.84523 0.0
C1493 C 0.19858 0.67247 0.83417 0.0
C1494 C 0.21254 0.66577 0.80606 0.0
H1495 H 0.07808 0.54027 0.90477 0.0
H1496 H 0.11381 0.56635 0.8709 0.0
C1497 C 0.23062 0.68429 0.78947 0.0
C1498 C 0.17916 0.65275 0.85158 0.0
H1499 H 0.1725 0.60189 0.88966 0.0
C1500 C 0.15288 0.65272 0.85619 0.0
C1501 C 0.18636 0.63411 0.86361 0.0
C1502 C 0.21445 0.63381 0.86051 0.0
C1503 C 0.13366 0.63463 0.8726 0.0
C1504 C 0.14091 0.61616 0.88479 0.0
C1505 C 0.16704 0.6159 0.87986 0.0
C1506 C 0.12203 0.59895 0.90571 0.0
C1507 C 0.10573 0.63555 0.87734 0.0
C1508 C 0.11577 0.6084 0.93661 0.0
C1509 C 0.09574 0.59368 0.95575 0.0
C1510 C 0.08158 0.56916 0.94442 0.0
C1511 C 0.08894 0.559 0.91411 0.0
C1512 C 0.10911 0.57391 0.89476 0.0
H1513 H 0.10245 0.64818 0.86209 0.0
H1514 H 0.09202 0.6164 0.87249 0.0
H1515 H 0.10095 0.64257 0.90213 0.0
H1516 H 0.12566 0.62759 0.9455 0.0
H1517 H 0.09045 0.60192 0.97908 0.0
H1518 H 0.32765 0.17989 0.89083 0.0
H1519 H 0.35187 0.1716 0.92933 0.0
H1520 H 0.41276 0.16277 0.85613 0.0
H1521 H 0.3894 0.1722 0.81798 0.0
H1522 H 0.36227 0.12913 0.93077 0.0
H1523 H 0.45662 0.20392 0.92282 0.0
H1524 H 0.42833 0.20559 0.90671 0.0
H1525 H 0.44948 0.18831 0.88459 0.0
C1526 C 0.34656 0.17688 0.8831 0.0
C1527 C 0.35652 0.17658 0.85125 0.0
C1528 C 0.36032 0.17202 0.90512 0.0
C1529 C 0.38436 0.16692 0.89578 0.0
C1530 C 0.39462 0.16728 0.86416 0.0
H1531 H 0.45096 0.06495 0.939 0.0
H1532 H 0.42513 0.08944 0.92565 0.0
C1533 C 0.38098 0.17225 0.84221 0.0
C1534 C 0.39738 0.15848 0.91806 0.0
H1535 H 0.45756 0.16484 0.93977 0.0
C1536 C 0.38296 0.13738 0.93337 0.0
C1537 C 0.42429 0.1694 0.92203 0.0
C1538 C 0.44045 0.19323 0.90841 0.0
C1539 C 0.39516 0.12578 0.95036 0.0
C1540 C 0.42253 0.13523 0.95161 0.0
C1541 C 0.43659 0.15746 0.93851 0.0
C1542 C 0.43727 0.12024 0.96197 0.0
C1543 C 0.37882 0.10282 0.96573 0.0
C1544 C 0.45301 0.12958 0.98674 0.0
C1545 C 0.46808 0.1155 0.99453 0.0
C1546 C 0.4679 0.09218 0.97719 0.0
C1547 C 0.45178 0.08291 0.95274 0.0
C1548 C 0.43675 0.0968 0.94519 0.0
H1549 H 0.3582 0.10311 0.97196 0.0
H1550 H 0.37868 0.0857 0.9491 0.0
H1551 H 0.38688 0.10142 0.98723 0.0
H1552 H 0.45377 0.14777 0.99981 0.0
H1553 H 0.48026 0.12309 0.01351 0.0
H1554 H 0.81086 0.2898 0.84763 0.0
H1555 H 0.84531 0.31925 0.87688 0.0
H1556 H 0.8635 0.36955 0.80577 0.0
H1557 H 0.82983 0.33952 0.77559 0.0
H1558 H 0.90745 0.36467 0.82353 0.0
H1559 H 0.84259 0.38406 0.92949 0.0
H1560 H 0.83969 0.35122 0.91977 0.0
H1561 H 0.82999 0.36758 0.8934 0.0
C1562 C 0.8222 0.30708 0.83813 0.0
C1563 C 0.81736 0.31235 0.80935 0.0
C1564 C 0.84173 0.32408 0.85511 0.0
C1565 C 0.85665 0.34694 0.84396 0.0
C1566 C 0.85206 0.35217 0.81507 0.0
H1567 H 0.9604 0.47458 0.95044 0.0
H1568 H 0.92456 0.44685 0.92134 0.0
C1569 C 0.8326 0.33507 0.79795 0.0
C1570 C 0.87743 0.36508 0.86205 0.0
H1571 H 0.88855 0.39893 0.93378 0.0
C1572 C 0.90326 0.37227 0.84756 0.0
C1573 C 0.87199 0.37524 0.89336 0.0
C1574 C 0.84452 0.36934 0.90984 0.0
C1575 C 0.9238 0.38884 0.86369 0.0
C1576 C 0.91849 0.39825 0.89532 0.0
C1577 C 0.89262 0.39154 0.90962 0.0
C1578 C 0.93964 0.4148 0.91399 0.0
C1579 C 0.95103 0.39634 0.84665 0.0
C1580 C 0.95963 0.40579 0.9202 0.0
C1581 C 0.98003 0.42149 0.93689 0.0
C1582 C 0.98094 0.44664 0.94781 0.0
C1583 C 0.96046 0.45542 0.94227 0.0
C1584 C 0.93994 0.43959 0.92565 0.0
H1585 H 0.95069 0.39279 0.82081 0.0
H1586 H 0.96118 0.41657 0.85309 0.0
H1587 H 0.96262 0.38512 0.85332 0.0
H1588 H 0.95954 0.38659 0.91195 0.0
H1589 H 0.99533 0.41395 0.94073 0.0
H1590 H 0.69948 0.78749 0.7827 0.0
H1591 H 0.67476 0.81573 0.81012 0.0
H1592 H 0.74241 0.85987 0.85654 0.0
H1593 H 0.76769 0.83326 0.82697 0.0
H1594 H 0.6579 0.82717 0.86637 0.0
H1595 H 0.72694 0.91692 0.83248 0.0
H1596 H 0.73125 0.88699 0.81557 0.0
H1597 H 0.74197 0.90106 0.85339 0.0
C1598 C 0.70928 0.80336 0.7985 0.0
C1599 C 0.73582 0.80763 0.80259 0.0
C1600 C 0.69496 0.8196 0.81442 0.0
C1601 C 0.7065 0.84069 0.83532 0.0
C1602 C 0.73285 0.84457 0.83996 0.0
H1603 H 0.64291 0.95776 0.95437 0.0
H1604 H 0.67079 0.93092 0.93022 0.0
C1605 C 0.74733 0.82874 0.82341 0.0
C1606 C 0.69085 0.85805 0.85248 0.0
H1607 H 0.69213 0.92011 0.87158 0.0
C1608 C 0.66551 0.84748 0.86723 0.0
C1609 C 0.70032 0.88481 0.85427 0.0
C1610 C 0.72648 0.8981 0.83782 0.0
C1611 C 0.64982 0.86245 0.88352 0.0
C1612 C 0.65922 0.88918 0.88509 0.0
C1613 C 0.68466 0.8998 0.87077 0.0
C1614 C 0.64257 0.90622 0.89997 0.0
C1615 C 0.62339 0.84923 0.89947 0.0
C1616 C 0.61756 0.90218 0.89078 0.0
C1617 C 0.60171 0.91746 0.90451 0.0
C1618 C 0.6102 0.93784 0.9278 0.0
C1619 C 0.63558 0.94249 0.93648 0.0
C1620 C 0.65154 0.92696 0.92269 0.0
H1621 H 0.62299 0.83069 0.90572 0.0
H1622 H 0.61798 0.86068 0.92109 0.0
H1623 H 0.60832 0.84569 0.88315 0.0
H1624 H 0.61014 0.8871 0.87272 0.0
H1625 H 0.58247 0.91308 0.89677 0.0
H1626 H 0.80239 0.69075 0.23313 0.0
H1627 H 0.829 0.66436 0.20597 0.0
H1628 H 0.86269 0.71815 0.13924 0.0
H1629 H 0.83873 0.74587 0.16889 0.0
H1630 H 0.83236 0.63815 0.15678 0.0
H1631 H 0.92868 0.71028 0.14907 0.0
H1632 H 0.90037 0.71716 0.17122 0.0
H1633 H 0.90622 0.71846 0.12936 0.0
C1634 C 0.8157 0.69722 0.21287 0.0
C1635 C 0.81779 0.72065 0.20316 0.0
C1636 C 0.83099 0.68186 0.19703 0.0
C1637 C 0.84871 0.68894 0.17034 0.0
C1638 C 0.85028 0.71211 0.16021 0.0
H1639 H 0.91117 0.57016 0.05075 0.0
H1640 H 0.8835 0.59727 0.07388 0.0
C1641 C 0.83576 0.72792 0.17684 0.0
C1642 C 0.86484 0.67189 0.15323 0.0
H1643 H 0.926 0.67124 0.11781 0.0
C1644 C 0.85292 0.6456 0.14859 0.0
C1645 C 0.89197 0.68087 0.14237 0.0
C1646 C 0.90759 0.70817 0.14857 0.0
C1647 C 0.86689 0.62848 0.13414 0.0
C1648 C 0.89363 0.63756 0.12207 0.0
C1649 C 0.90553 0.66384 0.12643 0.0
C1650 C 0.91019 0.62036 0.107 0.0
C1651 C 0.85291 0.60069 0.13336 0.0
C1652 C 0.93503 0.62421 0.11662 0.0
C1653 C 0.95095 0.60892 0.1031 0.0
C1654 C 0.94285 0.58886 0.07932 0.0
C1655 C 0.91802 0.5849 0.0694 0.0
C1656 C 0.90205 0.60051 0.08286 0.0
H1657 H 0.83598 0.59682 0.15174 0.0
H1658 H 0.84526 0.59353 0.11031 0.0
H1659 H 0.86627 0.59005 0.13684 0.0
H1660 H 0.94228 0.63915 0.13492 0.0
H1661 H 0.96994 0.61305 0.11141 0.0
H1662 H 0.3505 0.82662 0.23081 0.0
H1663 H 0.38093 0.8601 0.20246 0.0
H1664 H 0.32342 0.8516 0.13935 0.0
H1665 H 0.29279 0.81788 0.16751 0.0
H1666 H 0.39954 0.85553 0.13808 0.0
H1667 H 0.34701 0.92829 0.16734 0.0
H1668 H 0.34048 0.90229 0.19007 0.0
H1669 H 0.32821 0.89723 0.15266 0.0
C1670 C 0.34427 0.83181 0.21089 0.0
C1671 C 0.31913 0.81967 0.20154 0.0
C1672 C 0.36166 0.85104 0.19481 0.0
C1673 C 0.35428 0.8586 0.16915 0.0
C1674 C 0.3293 0.84641 0.15952 0.0
H1675 H 0.44768 0.96427 0.03856 0.0
H1676 H 0.41053 0.93697 0.06892 0.0
C1677 C 0.31188 0.82707 0.17555 0.0
C1678 C 0.37342 0.87832 0.15161 0.0
H1679 H 0.38629 0.93823 0.13332 0.0
C1680 C 0.39664 0.87361 0.13703 0.0
C1681 C 0.36943 0.90177 0.15007 0.0
C1682 C 0.34504 0.90792 0.16599 0.0
C1683 C 0.41612 0.89176 0.1211 0.0
C1684 C 0.41253 0.91552 0.12033 0.0
C1685 C 0.38903 0.92008 0.13423 0.0
C1686 C 0.43329 0.93576 0.10536 0.0
C1687 C 0.4403 0.88522 0.10499 0.0
C1688 C 0.45793 0.94512 0.11671 0.0
C1689 C 0.47898 0.96065 0.0995 0.0
C1690 C 0.47555 0.96748 0.07107 0.0
C1691 C 0.45049 0.95977 0.06092 0.0
C1692 C 0.4294 0.94402 0.07806 0.0
H1693 H 0.43695 0.86454 0.10069 0.0
H1694 H 0.4467 0.89314 0.08224 0.0
H1695 H 0.45646 0.8933 0.12011 0.0
H1696 H 0.46123 0.93919 0.13792 0.0
H1697 H 0.49831 0.96596 0.10731 0.0
H1698 H 0.74993 0.2365 0.14969 0.0
H1699 H 0.71746 0.20657 0.11771 0.0
H1700 H 0.69195 0.15871 0.19205 0.0
H1701 H 0.72547 0.1878 0.22299 0.0
H1702 H 0.6906 0.13085 0.13966 0.0
H1703 H 0.64254 0.20253 0.12993 0.0
H1704 H 0.67514 0.21032 0.11035 0.0
H1705 H 0.67005 0.20969 0.15213 0.0
C1706 C 0.7377 0.21929 0.15879 0.0
C1707 C 0.74006 0.2144 0.18877 0.0
C1708 C 0.71892 0.20238 0.14075 0.0
C1709 C 0.70163 0.18075 0.15283 0.0
C1710 C 0.7049 0.17533 0.18223 0.0
H1711 H 0.54946 0.10023 0.09285 0.0
H1712 H 0.58704 0.12758 0.11864 0.0
C1713 C 0.72413 0.19189 0.19989 0.0
C1714 C 0.67988 0.16389 0.13526 0.0
H1715 H 0.62765 0.16302 0.09895 0.0
C1716 C 0.67679 0.1379 0.13086 0.0
C1717 C 0.66155 0.17299 0.12412 0.0
C1718 C 0.66232 0.20036 0.12969 0.0
C1719 C 0.65596 0.1208 0.11579 0.0
C1720 C 0.63827 0.13001 0.10366 0.0
C1721 C 0.64138 0.15597 0.10796 0.0
C1722 C 0.61564 0.11307 0.0877 0.0
C1723 C 0.65269 0.09301 0.11404 0.0
C1724 C 0.61917 0.09592 0.0615 0.0
C1725 C 0.59757 0.07985 0.04705 0.0
C1726 C 0.57218 0.0812 0.05802 0.0
C1727 C 0.5688 0.09884 0.08372 0.0
C1728 C 0.59028 0.11449 0.09851 0.0
H1729 H 0.66278 0.08892 0.1322 0.0
H1730 H 0.63169 0.08198 0.11704 0.0
H1731 H 0.66146 0.08648 0.0908 0.0
H1732 H 0.6386 0.095 0.05212 0.0
H1733 H 0.60077 0.06661 0.02708 0.0
H1734 H 0.69606 0.71888 0.79896 0.0
H1735 H 0.6669 0.68548 0.82878 0.0
H1736 H 0.7298 0.65304 0.82618 0.0
H1737 H 0.75921 0.68643 0.7964 0.0
H1738 H 0.67654 0.61874 0.80826 0.0
H1739 H 0.67553 0.67763 0.92341 0.0
H1740 H 0.67136 0.69109 0.89022 0.0
H1741 H 0.70188 0.68534 0.8923 0.0
C1742 C 0.70363 0.7045 0.80444 0.0
C1743 C 0.72988 0.70517 0.79518 0.0
C1744 C 0.68703 0.68559 0.82169 0.0
C1745 C 0.69634 0.66701 0.82982 0.0
C1746 C 0.72237 0.66734 0.8202 0.0
H1747 H 0.60067 0.56315 0.96345 0.0
H1748 H 0.63908 0.59071 0.93538 0.0
C1749 C 0.73908 0.6864 0.80322 0.0
C1750 C 0.67867 0.64704 0.84802 0.0
H1751 H 0.64407 0.63727 0.91961 0.0
C1752 C 0.66962 0.62265 0.8327 0.0
C1753 C 0.67013 0.65219 0.87998 0.0
C1754 C 0.68031 0.67792 0.89767 0.0
C1755 C 0.6512 0.60344 0.8482 0.0
C1756 C 0.64138 0.60894 0.8797 0.0
C1757 C 0.65148 0.63308 0.89544 0.0
C1758 C 0.61903 0.5907 0.89577 0.0
C1759 C 0.64223 0.57752 0.83052 0.0
C1760 C 0.5951 0.58159 0.88285 0.0
C1761 C 0.57333 0.5658 0.89858 0.0
C1762 C 0.57479 0.559 0.92797 0.0
C1763 C 0.59889 0.5679 0.94081 0.0
C1764 C 0.62082 0.5837 0.92486 0.0
H1765 H 0.65752 0.57416 0.81172 0.0
H1766 H 0.63722 0.56261 0.84637 0.0
H1767 H 0.62456 0.57587 0.81921 0.0
H1768 H 0.59301 0.58728 0.8609 0.0
H1769 H 0.55511 0.55951 0.88799 0.0
H1770 H 0.40538 0.65631 0.78021 0.0
H1771 H 0.42424 0.64926 0.82421 0.0
H1772 H 0.36757 0.67653 0.88872 0.0
H1773 H 0.34772 0.68257 0.84424 0.0
H1774 H 0.446 0.67624 0.8746 0.0
H1775 H 0.35166 0.60627 0.91143 0.0
H1776 H 0.35672 0.6202 0.87551 0.0
H1777 H 0.35113 0.63812 0.91248 0.0
C1778 C 0.39701 0.66095 0.80377 0.0
C1779 C 0.37473 0.6694 0.80881 0.0
C1780 C 0.40794 0.65713 0.82895 0.0
C1781 C 0.39696 0.66181 0.85978 0.0
C1782 C 0.37597 0.67221 0.86509 0.0
H1783 H 0.48216 0.60894 0.9813 0.0
H1784 H 0.46132 0.63816 0.96721 0.0
C1785 C 0.36483 0.6759 0.83971 0.0
C1786 C 0.40639 0.6534 0.88538 0.0
H1787 H 0.38865 0.60667 0.933 0.0
C1788 C 0.43342 0.66142 0.888 0.0
C1789 C 0.38987 0.63403 0.9028 0.0
C1790 C 0.36076 0.62396 0.9004 0.0
C1791 C 0.44472 0.64906 0.90514 0.0
C1792 C 0.42832 0.62874 0.92105 0.0
C1793 C 0.40108 0.62231 0.92084 0.0
C1794 C 0.43904 0.61106 0.93287 0.0
C1795 C 0.4742 0.65639 0.90369 0.0
C1796 C 0.43253 0.58592 0.91929 0.0
C1797 C 0.44394 0.56917 0.92766 0.0
C1798 C 0.46232 0.57724 0.94963 0.0
C1799 C 0.46826 0.60224 0.96403 0.0
C1800 C 0.45648 0.61899 0.95592 0.0
H1801 H 0.48404 0.66983 0.88627 0.0
H1802 H 0.48035 0.66547 0.92699 0.0
H1803 H 0.48118 0.63949 0.89749 0.0
H1804 H 0.41912 0.57937 0.90144 0.0
H1805 H 0.43879 0.55004 0.91622 0.0
H1806 H 0.32617 0.34653 0.79321 0.0
H1807 H 0.35939 0.3753 0.82521 0.0
H1808 H 0.38137 0.3124 0.84531 0.0
H1809 H 0.34886 0.28371 0.81282 0.0
H1810 H 0.3646 0.37797 0.88741 0.0
H1811 H 0.45193 0.35894 0.81668 0.0
H1812 H 0.42011 0.34878 0.80248 0.0
H1813 H 0.42791 0.33097 0.82871 0.0
C1814 C 0.33826 0.33883 0.80416 0.0
C1815 C 0.33494 0.31276 0.80007 0.0
C1816 C 0.35721 0.35532 0.82258 0.0
C1817 C 0.37331 0.34615 0.83728 0.0
C1818 C 0.36973 0.3201 0.83362 0.0
H1819 H 0.4948 0.414 0.96435 0.0
H1820 H 0.46088 0.38488 0.93335 0.0
C1821 C 0.35091 0.30364 0.81515 0.0
C1822 C 0.39333 0.36366 0.85713 0.0
H1823 H 0.45862 0.38231 0.86689 0.0
C1824 C 0.38517 0.379 0.88279 0.0
C1825 C 0.42025 0.36509 0.85121 0.0
C1826 C 0.43066 0.35026 0.8231 0.0
C1827 C 0.403 0.39528 0.90291 0.0
C1828 C 0.42984 0.39651 0.89714 0.0
C1829 C 0.43803 0.38122 0.8715 0.0
C1830 C 0.44987 0.41413 0.91682 0.0
C1831 C 0.39289 0.41074 0.93055 0.0
C1832 C 0.4551 0.44025 0.91775 0.0
C1833 C 0.47451 0.45689 0.93526 0.0
C1834 C 0.48927 0.44785 0.95233 0.0
C1835 C 0.48384 0.42164 0.95158 0.0
C1836 C 0.46448 0.40497 0.93382 0.0
H1837 H 0.37137 0.4031 0.93631 0.0
H1838 H 0.40268 0.41151 0.95157 0.0
H1839 H 0.39715 0.43027 0.92487 0.0
H1840 H 0.44441 0.44781 0.9045 0.0
H1841 H 0.47803 0.47692 0.93523 0.0
H1842 H 0.64986 0.31709 0.89808 0.0
H1843 H 0.65714 0.34555 0.94604 0.0
H1844 H 0.73917 0.37415 0.9134 0.0
H1845 H 0.73153 0.34786 0.86398 0.0
H1846 H 0.68625 0.36472 0.99438 0.0
H1847 H 0.71344 0.4315 0.90331 0.0
H1848 H 0.70255 0.39817 0.89205 0.0
H1849 H 0.73445 0.41273 0.90537 0.0
C1850 C 0.66947 0.32928 0.9012 0.0
C1851 C 0.68973 0.33104 0.87676 0.0
C1852 C 0.67382 0.34512 0.92894 0.0
C1853 C 0.6986 0.36256 0.93263 0.0
C1854 C 0.71982 0.36128 0.91049 0.0
H1855 H 0.63847 0.48464 1.00025 0.0
H1856 H 0.67443 0.46757 1.00207 0.0
C1857 C 0.71533 0.34607 0.88226 0.0
C1858 C 0.69955 0.38546 0.95437 0.0
H1859 H 0.68959 0.44133 0.94898 0.0
C1860 C 0.68804 0.38208 0.98511 0.0
C1861 C 0.70228 0.40826 0.94219 0.0
C1862 C 0.7138 0.41302 0.90896 0.0
C1863 C 0.6739 0.39801 1.00109 0.0
C1864 C 0.67349 0.41874 0.98688 0.0
C1865 C 0.68994 0.42517 0.9595 0.0
C1866 C 0.65112 0.42878 0.99332 0.0
C1867 C 0.65665 0.39033 0.03059 0.0
C1868 C 0.6263 0.41243 0.98739 0.0
C1869 C 0.60587 0.42204 0.98572 0.0
C1870 C 0.6101 0.44812 0.98986 0.0
C1871 C 0.63477 0.46441 0.99666 0.0
C1872 C 0.6552 0.45477 0.99829 0.0
H1873 H 0.66833 0.38671 0.04735 0.0
H1874 H 0.64717 0.40476 0.04183 0.0
H1875 H 0.64112 0.37249 0.02492 0.0
H1876 H 0.62309 0.39229 0.98247 0.0
H1877 H 0.58695 0.4091 0.98085 0.0
H1878 H 0.66796 0.33021 0.18291 0.0
H1879 H 0.64885 0.34317 0.14274 0.0
H1880 H 0.67298 0.42004 0.18565 0.0
H1881 H 0.69215 0.4073 0.22557 0.0
H1882 H 0.60875 0.36795 0.15549 0.0
H1883 H 0.69842 0.42462 0.09137 0.0
H1884 H 0.69877 0.40134 0.11554 0.0
H1885 H 0.69833 0.43239 0.13305 0.0
C1886 C 0.66936 0.3499 0.18351 0.0
C1887 C 0.68134 0.36779 0.2074 0.0
C1888 C 0.65847 0.35722 0.16064 0.0
C1889 C 0.65987 0.38256 0.1611 0.0
C1890 C 0.67211 0.40044 0.18468 0.0
H1891 H 0.60838 0.48923 0.09971 0.0
H1892 H 0.62872 0.46266 0.11929 0.0
C1893 C 0.68274 0.39313 0.20765 0.0
C1894 C 0.64701 0.39049 0.13854 0.0
H1895 H 0.65877 0.43512 0.08923 0.0
C1896 C 0.61958 0.3821 0.14019 0.0
C1897 C 0.66133 0.40884 0.11869 0.0
C1898 C 0.69087 0.41714 0.11426 0.0
C1899 C 0.60593 0.39314 0.12435 0.0
C1900 C 0.62028 0.41278 0.10616 0.0
C1901 C 0.64778 0.42011 0.10327 0.0
C1902 C 0.60749 0.42819 0.09321 0.0
C1903 C 0.57638 0.38504 0.12921 0.0
C1904 C 0.58876 0.41765 0.07181 0.0
C1905 C 0.57653 0.43287 0.06094 0.0
C1906 C 0.5834 0.45888 0.07074 0.0
C1907 C 0.60253 0.46928 0.09165 0.0
C1908 C 0.61432 0.45411 0.10281 0.0
H1909 H 0.56861 0.3733 0.14883 0.0
H1910 H 0.56889 0.40166 0.13414 0.0
H1911 H 0.56858 0.37374 0.10759 0.0
H1912 H 0.58367 0.39776 0.06349 0.0
H1913 H 0.56198 0.42434 0.04468 0.0
H1914 H 0.70049 0.74567 0.19942 0.0
H1915 H 0.66755 0.71675 0.16736 0.0
H1916 H 0.69401 0.65482 0.18143 0.0
H1917 H 0.72686 0.68356 0.21368 0.0
H1918 H 0.67389 0.68664 0.11254 0.0
H1919 H 0.61578 0.62724 0.20424 0.0
H1920 H 0.63999 0.65699 0.21343 0.0
H1921 H 0.64993 0.62929 0.1989 0.0
C1922 C 0.69918 0.72586 0.19597 0.0
C1923 C 0.71611 0.71694 0.20966 0.0
C1924 C 0.68033 0.70933 0.17753 0.0
C1925 C 0.67787 0.68346 0.17237 0.0
C1926 C 0.69496 0.67454 0.18569 0.0
H1927 H 0.5761 0.55426 0.06825 0.0
H1928 H 0.60952 0.58314 0.09936 0.0
C1929 C 0.7138 0.69105 0.20416 0.0
C1930 C 0.65794 0.66605 0.15233 0.0
H1931 H 0.60488 0.61342 0.15225 0.0
C1932 C 0.65871 0.6707 0.12128 0.0
C1933 C 0.6382 0.64509 0.16358 0.0
C1934 C 0.63569 0.63942 0.19693 0.0
C1935 C 0.64065 0.65488 0.10111 0.0
C1936 C 0.62071 0.63407 0.11243 0.0
C1937 C 0.62003 0.62936 0.14347 0.0
C1938 C 0.6006 0.61673 0.09248 0.0
C1939 C 0.64361 0.66024 0.06757 0.0
C1940 C 0.58419 0.62581 0.0781 0.0
C1941 C 0.56502 0.60926 0.05995 0.0
C1942 C 0.56158 0.58318 0.05613 0.0
C1943 C 0.57804 0.57419 0.07063 0.0
C1944 C 0.59723 0.59072 0.08855 0.0
H1945 H 0.66382 0.67178 0.06025 0.0
H1946 H 0.63885 0.64254 0.05134 0.0
H1947 H 0.63002 0.67096 0.06521 0.0
H1948 H 0.58588 0.64569 0.0813 0.0
H1949 H 0.55263 0.61686 0.04936 0.0
H1950 H 0.32147 0.67282 0.1817 0.0
H1951 H 0.30763 0.64109 0.13734 0.0
H1952 H 0.38716 0.66122 0.09288 0.0
H1953 H 0.40059 0.69383 0.13619 0.0
H1954 H 0.34709 0.64619 0.0498 0.0
H1955 H 0.33269 0.5796 0.13849 0.0
H1956 H 0.31343 0.60113 0.14291 0.0
H1957 H 0.34751 0.61269 0.14903 0.0
C1958 C 0.33572 0.67083 0.16196 0.0
C1959 C 0.36212 0.68535 0.16231 0.0
C1960 C 0.32779 0.65285 0.13673 0.0
C1961 C 0.34635 0.64891 0.11201 0.0
C1962 C 0.37247 0.66425 0.11169 0.0
H1963 H 0.45267 0.61296 0.04081 0.0
H1964 H 0.41204 0.6242 0.04741 0.0
C1965 C 0.3803 0.6824 0.13667 0.0
C1966 C 0.34088 0.62594 0.08991 0.0
H1967 H 0.35398 0.57077 0.08936 0.0
C1968 C 0.34711 0.62891 0.05793 0.0
C1969 C 0.34013 0.60317 0.10051 0.0
C1970 C 0.33303 0.59875 0.13457 0.0
C1971 C 0.35853 0.61238 0.03791 0.0
C1972 C 0.36306 0.59272 0.05055 0.0
C1973 C 0.35092 0.58639 0.08016 0.0
C1974 C 0.38706 0.58565 0.04008 0.0
C1975 C 0.36952 0.61832 0.00508 0.0
C1976 C 0.38627 0.56033 0.03492 0.0
C1977 C 0.4094 0.55391 0.03183 0.0
C1978 C 0.43351 0.57277 0.0342 0.0
C1979 C 0.4343 0.59812 0.03915 0.0
C1980 C 0.41119 0.60452 0.04208 0.0
H1981 H 0.35633 0.6258 0.99463 0.0
H1982 H 0.38875 0.63307 0.00575 0.0
H1983 H 0.3724 0.6014 0.9899 0.0
H1984 H 0.36774 0.54562 0.03439 0.0
H1985 H 0.40833 0.53415 0.02805 0.0
H1986 H 0.35494 0.30672 0.1999 0.0
H1987 H 0.38582 0.34074 0.17285 0.0
H1988 H 0.33016 0.38339 0.19303 0.0
H1989 H 0.29859 0.34861 0.21877 0.0
H1990 H 0.35161 0.38727 0.13605 0.0
H1991 H 0.43164 0.40497 0.21009 0.0
H1992 H 0.42265 0.37295 0.19252 0.0
H1993 H 0.39929 0.38442 0.21994 0.0
C1994 C 0.3494 0.32346 0.19878 0.0
C1995 C 0.32455 0.32526 0.21176 0.0
C1996 C 0.36713 0.34298 0.18349 0.0
C1997 C 0.36069 0.36502 0.18165 0.0
C1998 C 0.3357 0.36669 0.19435 0.0
H1999 H 0.48574 0.49626 0.12416 0.0
H2000 H 0.44972 0.46767 0.15369 0.0
C2001 C 0.3177 0.34688 0.20908 0.0
C2002 C 0.37973 0.38592 0.16562 0.0
H2003 H 0.44356 0.42224 0.16099 0.0
C2004 C 0.37164 0.39513 0.14177 0.0
C2005 C 0.40576 0.39661 0.17342 0.0
C2006 C 0.41523 0.38941 0.20063 0.0
C2007 C 0.38899 0.41419 0.12498 0.0
C2008 C 0.4155 0.42364 0.13132 0.0
C2009 C 0.42337 0.41486 0.15573 0.0
C2010 C 0.43555 0.44239 0.11291 0.0
C2011 C 0.37847 0.42425 0.10109 0.0
C2012 C 0.43945 0.43806 0.08004 0.0
C2013 C 0.45964 0.45479 0.06305 0.0
C2014 C 0.47683 0.47578 0.07867 0.0
C2015 C 0.47275 0.48028 0.11148 0.0
C2016 C 0.45223 0.46386 0.12838 0.0
H2017 H 0.35721 0.42201 0.10701 0.0
H2018 H 0.38886 0.44447 0.09932 0.0
H2019 H 0.381 0.41344 0.07782 0.0
H2020 H 0.4275 0.42128 0.06751 0.0
H2021 H 0.46257 0.45059 0.03782 0.0
H2022 H 0.86154 0.73833 0.71635 0.0
H2023 H 0.88585 0.70988 0.68904 0.0
H2024 H 0.81556 0.66119 0.65162 0.0
H2025 H 0.79084 0.68915 0.68021 0.0
H2026 H 0.88077 0.66115 0.69418 0.0
H2027 H 0.8658 0.66696 0.57247 0.0
H2028 H 0.85748 0.68811 0.60516 0.0
H2029 H 0.83599 0.65671 0.59769 0.0
C2030 C 0.851 0.72144 0.70281 0.0
C2031 C 0.8239 0.71623 0.70115 0.0
C2032 C 0.86513 0.70515 0.68673 0.0
C2033 C 0.85293 0.68322 0.66763 0.0
C2034 C 0.8259 0.67808 0.66551 0.0
H2035 H 0.91807 0.56562 0.55315 0.0
H2036 H 0.88918 0.59119 0.57779 0.0
C2037 C 0.81164 0.69424 0.68202 0.0
C2038 C 0.86844 0.66561 0.65115 0.0
H2039 H 0.88749 0.63771 0.57914 0.0
C2040 C 0.8822 0.65613 0.66899 0.0
C2041 C 0.87036 0.65849 0.61821 0.0
C2042 C 0.85683 0.66823 0.59716 0.0
C2043 C 0.8974 0.63997 0.65526 0.0
C2044 C 0.90003 0.63342 0.62219 0.0
C2045 C 0.88588 0.64255 0.60435 0.0
C2046 C 0.91788 0.61789 0.60588 0.0
C2047 C 0.90989 0.62957 0.67682 0.0
C2048 C 0.94415 0.62438 0.61217 0.0
C2049 C 0.96058 0.60964 0.59834 0.0
C2050 C 0.9517 0.58794 0.57705 0.0
C2051 C 0.92574 0.58195 0.56956 0.0
C2052 C 0.90912 0.59669 0.58373 0.0
H2053 H 0.89872 0.62858 0.70046 0.0
H2054 H 0.91117 0.61046 0.66738 0.0
H2055 H 0.92994 0.64227 0.67976 0.0
H2056 H 0.95215 0.64101 0.62796 0.0
H2057 H 0.98044 0.61535 0.60457 0.0
H2058 H 0.3306 0.78915 0.64875 0.0
H2059 H 0.36506 0.82092 0.62081 0.0
H2060 H 0.37273 0.87214 0.70594 0.0
H2061 H 0.33879 0.84056 0.73395 0.0
H2062 H 0.36061 0.883 0.63417 0.0
H2063 H 0.4499 0.86009 0.65352 0.0
H2064 H 0.42222 0.83539 0.6395 0.0
H2065 H 0.41962 0.85064 0.67877 0.0
C2066 C 0.33993 0.80708 0.66151 0.0
C2067 C 0.3321 0.81243 0.69348 0.0
C2068 C 0.35949 0.82516 0.64556 0.0
C2069 C 0.37137 0.84876 0.66144 0.0
C2070 C 0.36378 0.85399 0.69338 0.0
H2071 H 0.46138 0.99687 0.61982 0.0
H2072 H 0.4332 0.9592 0.64223 0.0
C2073 C 0.3443 0.836 0.70926 0.0
C2074 C 0.39064 0.86875 0.64463 0.0
H2075 H 0.45631 0.89584 0.62773 0.0
C2076 C 0.38153 0.88575 0.63251 0.0
C2077 C 0.41781 0.8721 0.64247 0.0
C2078 C 0.4282 0.8537 0.65433 0.0
C2079 C 0.39902 0.90645 0.61878 0.0
C2080 C 0.42632 0.91046 0.6178 0.0
C2081 C 0.4354 0.89292 0.62896 0.0
C2082 C 0.44556 0.93312 0.60587 0.0
C2083 C 0.38815 0.92386 0.60542 0.0
C2084 C 0.46283 0.93091 0.57883 0.0
C2085 C 0.47918 0.95247 0.56598 0.0
C2086 C 0.47855 0.9766 0.58004 0.0
C2087 C 0.46225 0.97864 0.60816 0.0
C2088 C 0.44599 0.95712 0.62095 0.0
H2089 H 0.36752 0.91466 0.60043 0.0
H2090 H 0.38859 0.9407 0.62266 0.0
H2091 H 0.40007 0.93025 0.58347 0.0
H2092 H 0.46294 0.91252 0.56702 0.0
H2093 H 0.4915 0.95014 0.54436 0.0
H2094 H 0.18848 0.31627 0.64712 0.0
H2095 H 0.16035 0.32618 0.61422 0.0
H2096 H 0.21074 0.40269 0.61721 0.0
H2097 H 0.23856 0.39291 0.64991 0.0
H2098 H 0.13411 0.36371 0.63333 0.0
H2099 H 0.19992 0.38355 0.52406 0.0
H2100 H 0.2056 0.3659 0.55232 0.0
H2101 H 0.21529 0.39977 0.55836 0.0
C2102 C 0.19377 0.335 0.64005 0.0
C2103 C 0.21564 0.35386 0.65088 0.0
C2104 C 0.17769 0.34066 0.62145 0.0
C2105 C 0.18363 0.3651 0.61298 0.0
C2106 C 0.20603 0.38362 0.62295 0.0
H2107 H 0.13154 0.47142 0.5502 0.0
H2108 H 0.1516 0.44435 0.56943 0.0
C2109 C 0.22184 0.37806 0.64174 0.0
C2110 C 0.16551 0.37226 0.59619 0.0
H2111 H 0.16475 0.4025 0.53422 0.0
C2112 C 0.14047 0.37163 0.61125 0.0
C2113 C 0.17389 0.38258 0.56741 0.0
C2114 C 0.20006 0.38278 0.54944 0.0
C2115 C 0.12439 0.38276 0.59945 0.0
C2116 C 0.13349 0.39441 0.57163 0.0
C2117 C 0.15783 0.39362 0.55561 0.0
C2118 C 0.11988 0.41029 0.56081 0.0
C2119 C 0.09861 0.38348 0.61784 0.0
C2120 C 0.09514 0.40016 0.5497 0.0
C2121 C 0.08341 0.41575 0.53855 0.0
C2122 C 0.09634 0.44165 0.53833 0.0
C2123 C 0.12096 0.45159 0.54987 0.0
C2124 C 0.13255 0.43612 0.5609 0.0
H2125 H 0.09601 0.37649 0.64102 0.0
H2126 H 0.09713 0.40298 0.62155 0.0
H2127 H 0.08232 0.37153 0.60439 0.0
H2128 H 0.08515 0.38019 0.54914 0.0
H2129 H 0.06448 0.40752 0.52976 0.0
H2130 H 0.71159 0.19362 0.71812 0.0
H2131 H 0.68632 0.1626 0.68058 0.0
H2132 H 0.75437 0.17389 0.61251 0.0
H2133 H 0.78013 0.20613 0.65045 0.0
H2134 H 0.68634 0.17627 0.60992 0.0
H2135 H 0.71331 0.09193 0.62806 0.0
H2136 H 0.71333 0.117 0.6595 0.0
H2137 H 0.73777 0.12225 0.62658 0.0
C2138 C 0.72144 0.18945 0.69534 0.0
C2139 C 0.74791 0.20242 0.68728 0.0
C2140 C 0.70685 0.17171 0.67386 0.0
C2141 C 0.7184 0.16614 0.64379 0.0
C2142 C 0.74514 0.17812 0.63572 0.0
H2143 H 0.63538 0.0463 0.51002 0.0
H2144 H 0.66922 0.0789 0.53683 0.0
C2145 C 0.75988 0.19627 0.65741 0.0
C2146 C 0.70168 0.14807 0.62128 0.0
H2147 H 0.67827 0.08517 0.59805 0.0
C2148 C 0.68486 0.15639 0.60675 0.0
C2149 C 0.69957 0.12221 0.61774 0.0
C2150 C 0.71687 0.11257 0.63371 0.0
C2151 C 0.6657 0.13937 0.58897 0.0
C2152 C 0.66295 0.1133 0.58626 0.0
C2153 C 0.68031 0.10512 0.60017 0.0
C2154 C 0.64209 0.09414 0.56938 0.0
C2155 C 0.64856 0.14948 0.57332 0.0
C2156 C 0.61545 0.09174 0.57879 0.0
C2157 C 0.59593 0.07313 0.56334 0.0
C2158 C 0.60268 0.05636 0.5384 0.0
C2159 C 0.62939 0.05888 0.52907 0.0
C2160 C 0.64883 0.07751 0.54442 0.0
H2161 H 0.65788 0.16963 0.57001 0.0
H2162 H 0.64419 0.1386 0.55016 0.0
H2163 H 0.62975 0.14794 0.58833 0.0
H2164 H 0.60972 0.10397 0.59846 0.0
H2165 H 0.57559 0.0716 0.57133 0.0
H2166 H 0.81055 0.29479 0.35332 0.0
H2167 H 0.83821 0.32701 0.38851 0.0
H2168 H 0.84967 0.38146 0.32383 0.0
H2169 H 0.82097 0.34972 0.28953 0.0
H2170 H 0.88717 0.35206 0.38113 0.0
H2171 H 0.83098 0.42105 0.40248 0.0
H2172 H 0.81812 0.38972 0.38314 0.0
H2173 H 0.83993 0.41431 0.36143 0.0
C2174 C 0.8187 0.31375 0.34691 0.0
C2175 C 0.81333 0.31991 0.31902 0.0
C2176 C 0.83453 0.33211 0.36695 0.0
C2177 C 0.84555 0.35684 0.3592 0.0
C2178 C 0.84063 0.36281 0.33094 0.0
H2179 H 0.98371 0.46436 0.42824 0.0
H2180 H 0.95176 0.4308 0.39987 0.0
C2181 C 0.82434 0.34462 0.31125 0.0
C2182 C 0.86312 0.37606 0.37998 0.0
H2183 H 0.87525 0.43637 0.4157 0.0
C2184 C 0.88437 0.3704 0.38897 0.0
C2185 C 0.85925 0.39985 0.39072 0.0
C2186 C 0.83566 0.40648 0.38422 0.0
C2187 C 0.90223 0.38806 0.40768 0.0
C2188 C 0.89933 0.41238 0.41664 0.0
C2189 C 0.87769 0.41783 0.40842 0.0
C2190 C 0.91872 0.43257 0.43413 0.0
C2191 C 0.92379 0.3803 0.41799 0.0
C2192 C 0.91064 0.44528 0.46235 0.0
C2193 C 0.92881 0.46483 0.47837 0.0
C2194 C 0.9554 0.47194 0.46646 0.0
C2195 C 0.96343 0.45914 0.43823 0.0
C2196 C 0.94521 0.43983 0.42206 0.0
H2197 H 0.91825 0.35958 0.41825 0.0
H2198 H 0.94164 0.38575 0.40124 0.0
H2199 H 0.92861 0.38959 0.44172 0.0
H2200 H 0.89027 0.44007 0.47199 0.0
H2201 H 0.92202 0.47435 0.50006 0.0
H2202 H 0.72736 0.8292 0.26476 0.0
H2203 H 0.7008 0.85571 0.2928 0.0
H2204 H 0.70329 0.82861 0.37935 0.0
H2205 H 0.72945 0.80189 0.35117 0.0
H2206 H 0.64981 0.83917 0.33241 0.0
H2207 H 0.72726 0.90786 0.39891 0.0
H2208 H 0.73488 0.88792 0.36435 0.0
H2209 H 0.72246 0.87498 0.40074 0.0
C2210 C 0.72235 0.82885 0.2898 0.0
C2211 C 0.73074 0.81309 0.30561 0.0
C2212 C 0.70705 0.84409 0.30587 0.0
C2213 C 0.70011 0.84459 0.33845 0.0
C2214 C 0.70846 0.82894 0.35433 0.0
H2215 H 0.61938 0.94118 0.47081 0.0
H2216 H 0.64609 0.91337 0.44714 0.0
C2217 C 0.72334 0.81335 0.3381 0.0
C2218 C 0.68362 0.86092 0.35542 0.0
H2219 H 0.68518 0.91333 0.40825 0.0
C2220 C 0.65757 0.8554 0.34899 0.0
C2221 C 0.69336 0.88189 0.37762 0.0
C2222 C 0.72106 0.88876 0.38584 0.0
C2223 C 0.64106 0.86989 0.36407 0.0
C2224 C 0.65107 0.89172 0.38528 0.0
C2225 C 0.67716 0.89698 0.392 0.0
C2226 C 0.63502 0.90933 0.40018 0.0
C2227 C 0.6127 0.86076 0.35775 0.0
C2228 C 0.62015 0.91737 0.38213 0.0
C2229 C 0.60417 0.93253 0.39592 0.0
C2230 C 0.60327 0.94133 0.42812 0.0
C2231 C 0.61928 0.93465 0.44604 0.0
C2232 C 0.63471 0.9187 0.43235 0.0
H2233 H 0.60614 0.84 0.35171 0.0
H2234 H 0.59964 0.86575 0.37829 0.0
H2235 H 0.61039 0.86926 0.33735 0.0
H2236 H 0.62081 0.91196 0.3571 0.0
H2237 H 0.59269 0.93768 0.38108 0.0
H2238 H 0.18845 0.7197 0.28937 0.0
H2239 H 0.15839 0.68628 0.31744 0.0
H2240 H 0.22026 0.68614 0.36977 0.0
H2241 H 0.25005 0.7213 0.34328 0.0
H2242 H 0.15927 0.64055 0.3163 0.0
H2243 H 0.163 0.68452 0.43945 0.0
H2244 H 0.17728 0.70235 0.40675 0.0
H2245 H 0.19454 0.68385 0.42011 0.0
C2246 C 0.19574 0.71291 0.30714 0.0
C2247 C 0.22204 0.7229 0.31351 0.0
C2248 C 0.17843 0.69361 0.32314 0.0
C2249 C 0.18686 0.6836 0.34591 0.0
C2250 C 0.21301 0.69374 0.35275 0.0
H2251 H 0.10755 0.53497 0.39989 0.0
H2252 H 0.13569 0.57198 0.37681 0.0
C2253 C 0.23027 0.71352 0.33709 0.0
C2254 C 0.16835 0.6618 0.36101 0.0
H2255 H 0.14083 0.64058 0.43155 0.0
C2256 C 0.15517 0.6407 0.34153 0.0
C2257 C 0.16265 0.66196 0.39394 0.0
C2258 C 0.1749 0.68448 0.41629 0.0
C2259 C 0.13668 0.61984 0.35388 0.0
C2260 C 0.13173 0.61956 0.38677 0.0
C2261 C 0.14466 0.64072 0.40635 0.0
C2262 C 0.11406 0.59707 0.40116 0.0
C2263 C 0.1223 0.5985 0.33141 0.0
C2264 C 0.09276 0.59884 0.42342 0.0
C2265 C 0.07659 0.57754 0.43722 0.0
C2266 C 0.08143 0.55408 0.42893 0.0
C2267 C 0.10279 0.55253 0.40657 0.0
C2268 C 0.11899 0.57375 0.39316 0.0
H2269 H 0.12169 0.60503 0.30875 0.0
H2270 H 0.13271 0.58393 0.32642 0.0
H2271 H 0.1019 0.58968 0.34137 0.0
H2272 H 0.08866 0.6167 0.43013 0.0
H2273 H 0.0605 0.5795 0.45451 0.0
H2274 H 0.37639 0.16833 0.30514 0.0
H2275 H 0.39228 0.14676 0.33913 0.0
H2276 H 0.39222 0.20691 0.41388 0.0
H2277 H 0.37601 0.22851 0.37993 0.0
H2278 H 0.43982 0.16738 0.36318 0.0
H2279 H 0.35854 0.14364 0.45861 0.0
H2280 H 0.35412 0.1525 0.42205 0.0
H2281 H 0.36985 0.17612 0.45156 0.0
C2282 C 0.37946 0.17679 0.32895 0.0
C2283 C 0.37521 0.20016 0.33983 0.0
C2284 C 0.38848 0.16446 0.34835 0.0
C2285 C 0.39344 0.17524 0.379 0.0
C2286 C 0.38818 0.19809 0.39045 0.0
H2287 H 0.49492 0.12156 0.47592 0.0
H2288 H 0.47778 0.14976 0.4531 0.0
C2289 C 0.37895 0.21041 0.37104 0.0
C2290 C 0.40621 0.16342 0.39765 0.0
H2291 H 0.39733 0.13418 0.46335 0.0
C2292 C 0.43061 0.16021 0.38518 0.0
C2293 C 0.39412 0.15419 0.42633 0.0
C2294 C 0.36762 0.15655 0.44041 0.0
C2295 C 0.44293 0.14727 0.40006 0.0
C2296 C 0.43073 0.13778 0.42858 0.0
C2297 C 0.40668 0.14165 0.44156 0.0
C2298 C 0.44117 0.12156 0.44361 0.0
C2299 C 0.46825 0.14289 0.38437 0.0
C2300 C 0.42606 0.09661 0.44641 0.0
C2301 C 0.43564 0.08063 0.45952 0.0
C2302 C 0.4606 0.08923 0.4702 0.0
C2303 C 0.47566 0.11436 0.46781 0.0
C2304 C 0.46596 0.13044 0.45466 0.0
H2305 H 0.4722 0.14701 0.35961 0.0
H2306 H 0.48472 0.1554 0.39713 0.0
H2307 H 0.46788 0.12312 0.38489 0.0
H2308 H 0.4069 0.08937 0.43799 0.0
H2309 H 0.42347 0.06141 0.461 0.0
H2310 H 0.66529 0.80397 0.65313 0.0
H2311 H 0.63939 0.82923 0.64028 0.0
H2312 H 0.69468 0.85031 0.55959 0.0
H2313 H 0.72067 0.82528 0.57229 0.0
H2314 H 0.65201 0.87961 0.63404 0.0
H2315 H 0.62533 0.82244 0.5216 0.0
H2316 H 0.63958 0.81186 0.54996 0.0
H2317 H 0.66008 0.83336 0.52341 0.0
C2318 C 0.67205 0.81417 0.63282 0.0
C2319 C 0.69487 0.81236 0.61351 0.0
C2320 C 0.65715 0.82846 0.6254 0.0
C2321 C 0.66475 0.84109 0.59852 0.0
C2322 C 0.68802 0.84008 0.5799 0.0
H2323 H 0.63049 0.96674 0.54907 0.0
H2324 H 0.64659 0.93696 0.56904 0.0
C2325 C 0.70288 0.82581 0.58724 0.0
C2326 C 0.64871 0.85576 0.59011 0.0
H2327 H 0.61874 0.86328 0.52994 0.0
C2328 C 0.64444 0.87586 0.61144 0.0
C2329 C 0.63839 0.85054 0.56086 0.0
C2330 C 0.64082 0.82821 0.53778 0.0
C2331 C 0.63122 0.89164 0.60371 0.0
C2332 C 0.62249 0.88746 0.57362 0.0
C2333 C 0.62564 0.86662 0.55288 0.0
C2334 C 0.61185 0.90548 0.56234 0.0
C2335 C 0.62692 0.91274 0.62781 0.0
C2336 C 0.58719 0.89753 0.55094 0.0
C2337 C 0.57792 0.91458 0.53907 0.0
C2338 C 0.59328 0.93979 0.53826 0.0
C2339 C 0.61799 0.94754 0.54956 0.0
C2340 C 0.6272 0.93056 0.56128 0.0
H2341 H 0.62641 0.9083 0.65199 0.0
H2342 H 0.64338 0.93008 0.62436 0.0
H2343 H 0.60836 0.91665 0.62568 0.0
H2344 H 0.57515 0.87814 0.55121 0.0
H2345 H 0.55887 0.90799 0.53039 0.0
H2346 H 0.72912 0.1866 0.27608 0.0
H2347 H 0.69605 0.15625 0.30629 0.0
H2348 H 0.68416 0.21642 0.3756 0.0
H2349 H 0.7182 0.24709 0.34577 0.0
H2350 H 0.69818 0.15285 0.37534 0.0
H2351 H 0.60852 0.17032 0.34681 0.0
H2352 H 0.63888 0.17783 0.32135 0.0
H2353 H 0.63591 0.19667 0.3581 0.0
C2354 C 0.71942 0.19352 0.29761 0.0
C2355 C 0.72583 0.21941 0.30807 0.0
C2356 C 0.70049 0.1761 0.31485 0.0
C2357 C 0.68742 0.18412 0.34289 0.0
C2358 C 0.69375 0.20991 0.35368 0.0
H2359 H 0.56628 0.08294 0.46162 0.0
H2360 H 0.59395 0.12101 0.43891 0.0
C2361 C 0.71299 0.22742 0.3365 0.0
C2362 C 0.66805 0.16506 0.36115 0.0
H2363 H 0.60237 0.13646 0.376 0.0
C2364 C 0.67723 0.14944 0.37583 0.0
C2365 C 0.64078 0.16079 0.36181 0.0
C2366 C 0.6302 0.17715 0.34615 0.0
C2367 C 0.65985 0.1292 0.39053 0.0
C2368 C 0.63255 0.12407 0.38985 0.0
C2369 C 0.6233 0.14032 0.37626 0.0
C2370 C 0.61368 0.10111 0.40172 0.0
C2371 C 0.67087 0.1133 0.40643 0.0
C2372 C 0.61492 0.07729 0.38761 0.0
C2373 C 0.59922 0.05557 0.40043 0.0
C2374 C 0.58177 0.05714 0.42763 0.0
C2375 C 0.57951 0.08099 0.44072 0.0
C2376 C 0.59533 0.1028 0.42782 0.0
H2377 H 0.69101 0.12359 0.41252 0.0
H2378 H 0.65826 0.10726 0.42814 0.0
H2379 H 0.67182 0.09619 0.39032 0.0
H2380 H 0.6286 0.07554 0.36709 0.0
H2381 H 0.60137 0.03757 0.38947 0.0
H2382 H 0.83448 0.66922 0.35222 0.0
H2383 H 0.86512 0.64949 0.36624 0.0
H2384 H 0.8726 0.69809 0.45348 0.0
H2385 H 0.84255 0.7184 0.43943 0.0
H2386 H 0.91956 0.67256 0.3873 0.0
H2387 H 0.84297 0.62254 0.4751 0.0
H2388 H 0.83522 0.63588 0.44386 0.0
H2389 H 0.84863 0.65598 0.47741 0.0
C2390 C 0.84311 0.67615 0.37405 0.0
C2391 C 0.83587 0.69526 0.39483 0.0
C2392 C 0.86051 0.66477 0.38207 0.0
C2393 C 0.87083 0.67222 0.411 0.0
C2394 C 0.86458 0.69196 0.43118 0.0
H2395 H 0.9852 0.61931 0.48393 0.0
H2396 H 0.96405 0.64654 0.46533 0.0
C2397 C 0.84731 0.70343 0.42316 0.0
C2398 C 0.8868 0.65832 0.421 0.0
H2399 H 0.88485 0.61734 0.47212 0.0
C2400 C 0.91211 0.66053 0.40589 0.0
C2401 C 0.87679 0.64253 0.44507 0.0
C2402 C 0.84935 0.63883 0.46124 0.0
C2403 C 0.92775 0.64725 0.41433 0.0
C2404 C 0.91779 0.63163 0.4386 0.0
C2405 C 0.8925 0.62953 0.4537 0.0
C2406 C 0.93227 0.61574 0.44741 0.0
C2407 C 0.95448 0.64948 0.39676 0.0
C2408 C 0.92142 0.58955 0.44343 0.0
C2409 C 0.93323 0.57411 0.45412 0.0
C2410 C 0.9562 0.58451 0.46915 0.0
C2411 C 0.96756 0.61077 0.47239 0.0
C2412 C 0.95558 0.62631 0.46167 0.0
H2413 H 0.95732 0.65865 0.37509 0.0
H2414 H 0.96968 0.66095 0.41203 0.0
H2415 H 0.95751 0.63063 0.39037 0.0
H2416 H 0.90345 0.58103 0.43249 0.0
H2417 H 0.92403 0.55396 0.45098 0.0
H2418 H 0.34002 0.80573 0.3197 0.0
H2419 H 0.36823 0.8389 0.35212 0.0
H2420 H 0.30947 0.87785 0.37184 0.0
H2421 H 0.2805 0.84436 0.33865 0.0
H2422 H 0.38522 0.89237 0.34092 0.0
H2423 H 0.33383 0.87347 0.45954 0.0
H2424 H 0.32918 0.84967 0.4261 0.0
H2425 H 0.3146 0.87468 0.42958 0.0
C2426 C 0.33262 0.82106 0.33107 0.0
C2427 C 0.30773 0.82222 0.32637 0.0
C2428 C 0.34902 0.84014 0.3496 0.0
C2429 C 0.341 0.8608 0.36437 0.0
C2430 C 0.31595 0.86192 0.36069 0.0
H2431 H 0.4239 0.99013 0.48579 0.0
H2432 H 0.39136 0.95771 0.4568 0.0
C2433 C 0.29943 0.84279 0.34174 0.0
C2434 C 0.35961 0.8814 0.3825 0.0
H2435 H 0.3728 0.90715 0.45694 0.0
C2436 C 0.38246 0.89577 0.36629 0.0
C2437 C 0.35602 0.88558 0.41553 0.0
C2438 C 0.33219 0.87002 0.43394 0.0
C2439 C 0.40177 0.91439 0.38222 0.0
C2440 C 0.39844 0.91833 0.41539 0.0
C2441 C 0.37541 0.90408 0.43156 0.0
C2442 C 0.41836 0.93748 0.43368 0.0
C2443 C 0.42531 0.92991 0.36329 0.0
C2444 C 0.44437 0.93669 0.43089 0.0
C2445 C 0.46317 0.95539 0.44728 0.0
C2446 C 0.45625 0.97506 0.46717 0.0
C2447 C 0.42999 0.9753 0.47069 0.0
C2448 C 0.4113 0.95675 0.45411 0.0
H2449 H 0.42143 0.92945 0.33876 0.0
H2450 H 0.43129 0.94982 0.37395 0.0
H2451 H 0.44196 0.92215 0.36252 0.0
H2452 H 0.45016 0.92163 0.41596 0.0
H2453 H 0.48313 0.95446 0.44431 0.0
H2454 H 0.20792 0.31281 0.26488 0.0
H2455 H 0.18211 0.33949 0.29356 0.0
H2456 H 0.22228 0.34741 0.37484 0.0
H2457 H 0.24795 0.32074 0.34601 0.0
H2458 H 0.14773 0.33434 0.34416 0.0
H2459 H 0.22938 0.4197 0.37269 0.0
H2460 H 0.23438 0.39338 0.34578 0.0
H2461 H 0.23129 0.39234 0.38742 0.0
C2462 C 0.21121 0.31998 0.2889 0.0
C2463 C 0.23017 0.31409 0.30295 0.0
C2464 C 0.19645 0.33554 0.30538 0.0
C2465 C 0.20028 0.34614 0.33652 0.0
C2466 C 0.21914 0.34027 0.35069 0.0
H2467 H 0.12397 0.44723 0.468 0.0
H2468 H 0.15196 0.42062 0.44402 0.0
C2469 C 0.23388 0.32468 0.33413 0.0
C2470 C 0.18389 0.36246 0.35413 0.0
H2471 H 0.18692 0.42022 0.39585 0.0
C2472 C 0.15643 0.35315 0.35533 0.0
C2473 C 0.19485 0.38703 0.36933 0.0
C2474 C 0.22409 0.39883 0.36856 0.0
C2475 C 0.13983 0.3673 0.37112 0.0
C2476 C 0.15074 0.39217 0.3856 0.0
C2477 C 0.17824 0.40135 0.38487 0.0
C2478 C 0.13403 0.40904 0.40055 0.0
C2479 C 0.11064 0.35488 0.37272 0.0
C2480 C 0.11486 0.41233 0.38429 0.0
C2481 C 0.0985 0.42702 0.39824 0.0
C2482 C 0.10115 0.43982 0.42871 0.0
C2483 C 0.12111 0.43759 0.44464 0.0
C2484 C 0.13723 0.42233 0.43081 0.0
H2485 H 0.10585 0.33408 0.37131 0.0
H2486 H 0.10026 0.36165 0.39468 0.0
H2487 H 0.10305 0.35907 0.35244 0.0
H2488 H 0.11248 0.40352 0.36051 0.0
H2489 H 0.08384 0.42858 0.38479 0.0
H2490 H 0.29378 0.17936 0.70913 0.0
H2491 H 0.32072 0.15302 0.68168 0.0
H2492 H 0.38342 0.21953 0.66103 0.0
H2493 H 0.35676 0.24601 0.68898 0.0
H2494 H 0.34626 0.15195 0.6162 0.0
H2495 H 0.41843 0.17788 0.70345 0.0
H2496 H 0.38626 0.18216 0.71285 0.0
H2497 H 0.41131 0.2034 0.68986 0.0
C2498 C 0.31338 0.1885 0.69903 0.0
C2499 C 0.32303 0.21504 0.70191 0.0
C2500 C 0.32878 0.1733 0.68304 0.0
C2501 C 0.35443 0.18405 0.66941 0.0
C2502 C 0.36394 0.21054 0.67164 0.0
H2503 H 0.48526 0.12487 0.58777 0.0
H2504 H 0.45624 0.15009 0.61066 0.0
C2505 C 0.34851 0.22576 0.68755 0.0
C2506 C 0.37115 0.16764 0.65303 0.0
H2507 H 0.4266 0.15167 0.65806 0.0
C2508 C 0.36386 0.15189 0.62533 0.0
C2509 C 0.39426 0.16741 0.6646 0.0
C2510 C 0.40309 0.18344 0.69443 0.0
C2511 C 0.37925 0.13674 0.60854 0.0
C2512 C 0.40233 0.13617 0.62031 0.0
C2513 C 0.40926 0.15177 0.6484 0.0
C2514 C 0.42 0.12034 0.60396 0.0
C2515 C 0.37091 0.12241 0.57762 0.0
C2516 C 0.41008 0.0948 0.5917 0.0
C2517 C 0.42696 0.08044 0.57736 0.0
C2518 C 0.45442 0.09077 0.57588 0.0
C2519 C 0.46431 0.11612 0.58834 0.0
C2520 C 0.44752 0.13063 0.60177 0.0
H2521 H 0.35909 0.13142 0.56707 0.0
H2522 H 0.38804 0.12116 0.56055 0.0
H2523 H 0.35841 0.10311 0.58151 0.0
H2524 H 0.38922 0.08557 0.59383 0.0
H2525 H 0.41847 0.06092 0.56853 0.0
H2526 H 0.81024 0.29728 0.65067 0.0
H2527 H 0.8418 0.33131 0.6241 0.0
H2528 H 0.89538 0.34099 0.69264 0.0
H2529 H 0.8642 0.30666 0.71883 0.0
H2530 H 0.85903 0.37896 0.6456 0.0
H2531 H 0.94466 0.34266 0.61453 0.0
H2532 H 0.91268 0.32303 0.62785 0.0
H2533 H 0.93392 0.3433 0.65563 0.0
C2534 C 0.82897 0.30633 0.6597 0.0
C2535 C 0.83474 0.29916 0.68677 0.0
C2536 C 0.84699 0.32583 0.64453 0.0
C2537 C 0.87119 0.3386 0.65606 0.0
C2538 C 0.87722 0.33106 0.6827 0.0
H2539 H 0.96085 0.49158 0.62146 0.0
H2540 H 0.93352 0.45359 0.64405 0.0
C2541 C 0.85931 0.31137 0.69771 0.0
C2542 C 0.88929 0.36082 0.6415 0.0
H2543 H 0.95279 0.38671 0.6121 0.0
C2544 C 0.87949 0.38054 0.63806 0.0
C2545 C 0.91593 0.36284 0.63125 0.0
C2546 C 0.92735 0.3417 0.63219 0.0
C2547 C 0.89561 0.4023 0.6252 0.0
C2548 C 0.92256 0.40487 0.61643 0.0
C2549 C 0.93226 0.38496 0.61927 0.0
C2550 C 0.94085 0.42788 0.60374 0.0
C2551 C 0.88339 0.42206 0.62055 0.0
C2552 C 0.95527 0.42608 0.57423 0.0
C2553 C 0.97136 0.44778 0.56145 0.0
C2554 C 0.9733 0.47179 0.5779 0.0
C2555 C 0.95964 0.47345 0.60799 0.0
C2556 C 0.94379 0.45172 0.62085 0.0
H2557 H 0.86193 0.41406 0.61945 0.0
H2558 H 0.88654 0.43707 0.64064 0.0
H2559 H 0.89231 0.43075 0.59871 0.0
H2560 H 0.9535 0.4079 0.56065 0.0
H2561 H 0.9815 0.44576 0.5382 0.0
H2562 H 0.2364 0.73673 0.65376 0.0
H2563 H 0.20757 0.70496 0.61926 0.0
H2564 H 0.20884 0.64711 0.6732 0.0
H2565 H 0.23855 0.67848 0.70662 0.0
H2566 H 0.21368 0.63145 0.61378 0.0
H2567 H 0.13101 0.67265 0.6383 0.0
H2568 H 0.16059 0.6939 0.62217 0.0
H2569 H 0.15915 0.684 0.66004 0.0
C2570 C 0.23056 0.7172 0.6581 0.0
C2571 C 0.23972 0.71001 0.68274 0.0
C2572 C 0.21393 0.69912 0.63857 0.0
C2573 C 0.20565 0.67373 0.64402 0.0
C2574 C 0.21498 0.66658 0.66854 0.0
H2575 H 0.07067 0.55812 0.58198 0.0
H2576 H 0.10277 0.59227 0.6094 0.0
C2577 C 0.23199 0.68452 0.6876 0.0
C2578 C 0.18745 0.65437 0.62417 0.0
H2579 H 0.12714 0.63827 0.59837 0.0
C2580 C 0.19472 0.63291 0.61043 0.0
C2581 C 0.16259 0.65616 0.62021 0.0
C2582 C 0.15273 0.67778 0.63622 0.0
C2583 C 0.17769 0.61301 0.59323 0.0
C2584 C 0.15316 0.61515 0.58844 0.0
C2585 C 0.14606 0.63678 0.6018 0.0
C2586 C 0.13388 0.59463 0.57124 0.0
C2587 C 0.18579 0.58954 0.58157 0.0
C2588 C 0.14059 0.5848 0.54052 0.0
C2589 C 0.12241 0.56488 0.52505 0.0
C2590 C 0.09703 0.555 0.53976 0.0
C2591 C 0.09009 0.56543 0.57006 0.0
C2592 C 0.10841 0.58494 0.58574 0.0
H2593 H 0.20114 0.58805 0.59497 0.0
H2594 H 0.16884 0.57232 0.58331 0.0
H2595 H 0.19403 0.59018 0.55665 0.0
H2596 H 0.15986 0.5925 0.52851 0.0
H2597 H 0.12812 0.55737 0.5015 0.0
loop_
_geom_bond_atom_site_label_1
_geom_bond_atom_site_label_2
_geom_bond_distance
_geom_bond_site_symmetry_2
_ccdc_geom_bond_type
Eu0 N29 2.600 . S
Eu0 N35 2.562 . S
Eu0 O44 2.462 . S
Eu0 O45 2.373 . S
Eu0 O47 2.432 . S
Eu0 O48 2.291 . S
Eu0 O52 2.335 . S
Eu0 O55 2.372 . S
Eu0 C64 2.787 . S
C1 N2 1.365 . S
C1 C4 1.405 . S
C1 C8 1.448 . S
N2 C1 1.365 . S
N2 C5 1.319 . S
N2 Eu11 2.600 . S
C3 C5 1.397 . S
C3 C6 1.367 . S
C3 H23 0.931 . S
C4 C1 1.405 . S
C4 C6 1.403 . S
C4 C10 1.439 . S
C5 N2 1.319 . S
C5 C3 1.397 . S
C5 H16 0.930 . S
C6 C3 1.367 . S
C6 C4 1.403 . S
C6 H27 0.929 . S
C7 C8 1.430 . S
C7 C9 1.387 . S
C7 C13 1.404 . S
C8 C1 1.448 . S
C8 C7 1.430 . S
C8 N12 1.351 . S
C9 C7 1.387 . S
C9 C10 1.374 . S
C9 H24 0.931 . S
C10 C4 1.439 . S
C10 C9 1.374 . S
C10 H25 0.931 . S
Eu11 N2 2.600 . S
Eu11 N12 2.562 . S
Eu11 O46 2.335 . S
Eu11 O49 2.372 . S
Eu11 O50 2.462 . S
Eu11 O51 2.373 . S
Eu11 O53 2.432 . S
Eu11 O54 2.291 . S
Eu11 C75 2.787 . S
N12 C8 1.351 . S
N12 Eu11 2.562 . S
N12 C14 1.325 . S
C13 C7 1.404 . S
C13 C15 1.366 . S
C13 H21 0.930 . S
C14 N12 1.325 . S
C14 C15 1.416 . S
C14 H20 0.929 . S
C15 C13 1.366 . S
C15 C14 1.416 . S
C15 H17 0.930 . S
H16 C5 0.930 . S
H17 C15 0.930 . S
H18 C33 0.930 . S
H19 C40 0.930 . S
H20 C14 0.929 . S
H21 C13 0.930 . S
H22 C36 0.929 . S
H23 C3 0.931 . S
H24 C9 0.931 . S
H25 C10 0.931 . S
H26 C31 0.931 . S
H27 C6 0.929 . S
H28 C39 0.930 . S
N29 Eu0 2.600 . S
N29 C30 1.365 . S
N29 C33 1.319 . S
C30 N29 1.365 . S
C30 C32 1.405 . S
C30 C38 1.448 . S
C31 H26 0.931 . S
C31 C33 1.397 . S
C31 C34 1.367 . S
C32 C30 1.405 . S
C32 C34 1.403 . S
C32 C65 1.439 . S
C33 H18 0.930 . S
C33 N29 1.319 . S
C33 C31 1.397 . S
C34 C31 1.367 . S
C34 C32 1.403 . S
C34 H41 0.929 . S
N35 Eu0 2.562 . S
N35 C36 1.325 . S
N35 C38 1.351 . S
C36 H22 0.929 . S
C36 N35 1.325 . S
C36 C40 1.416 . S
C37 C38 1.430 . S
C37 C39 1.404 . S
C37 C66 1.387 . S
C38 C30 1.448 . S
C38 N35 1.351 . S
C38 C37 1.430 . S
C39 H28 0.930 . S
C39 C37 1.404 . S
C39 C40 1.366 . S
C40 H19 0.930 . S
C40 C36 1.416 . S
C40 C39 1.366 . S
H41 C34 0.929 . S
H42 C65 0.931 . S
H43 C66 0.931 . S
O44 Eu0 2.462 . S
O44 C64 1.252 . S
O45 Eu0 2.373 . S
O45 C56 1.249 . S
O46 Eu11 2.335 . S
O46 C56 1.264 . S
O47 Eu0 2.432 . S
O47 C64 1.268 . S
O48 Eu0 2.291 . S
O48 C63 1.255 . S
O49 Eu11 2.372 . S
O49 C63 1.257 . S
O50 Eu11 2.462 . S
O50 C75 1.252 . S
O51 Eu11 2.373 . S
O51 C67 1.249 . S
O52 Eu0 2.335 . S
O52 C67 1.264 . S
O53 Eu11 2.432 . S
O53 C75 1.268 . S
O54 Eu11 2.291 . S
O54 C74 1.255 . S
O55 Eu0 2.372 . S
O55 C74 1.257 . S
C56 O45 1.249 . S
C56 O46 1.264 . S
C57 C60 1.382 . S
C57 C62 1.390 . S
C57 C64 1.506 . S
C58 C59 1.398 . S
C58 C62 1.392 . S
C59 C58 1.398 . S
C59 C61 1.372 . S
C59 H76 0.931 . S
C60 C57 1.382 . S
C60 C61 1.390 . S
C60 H77 0.931 . S
C61 C59 1.372 . S
C61 C60 1.390 . S
C61 H78 0.929 . S
C62 C57 1.390 . S
C62 C58 1.392 . S
C62 H79 0.930 . S
C63 O48 1.255 . S
C63 O49 1.257 . S
C64 Eu0 2.787 . S
C64 O44 1.252 . S
C64 O47 1.268 . S
C64 C57 1.506 . S
C65 C32 1.439 . S
C65 H42 0.931 . S
C65 C66 1.374 . S
C66 C37 1.387 . S
C66 H43 0.931 . S
C66 C65 1.374 . S
C67 O51 1.249 . S
C67 O52 1.264 . S
C68 C71 1.382 . S
C68 C72 1.390 . S
C68 C75 1.506 . S
C69 C70 1.398 . S
C69 C72 1.392 . S
C70 C69 1.398 . S
C70 C73 1.372 . S
C70 H80 0.931 . S
C71 C68 1.382 . S
C71 C73 1.390 . S
C71 H81 0.931 . S
C72 C68 1.390 . S
C72 C69 1.392 . S
C72 H82 0.930 . S
C73 C70 1.372 . S
C73 C71 1.390 . S
C73 H83 0.929 . S
C74 O54 1.255 . S
C74 O55 1.257 . S
C75 Eu11 2.787 . S
C75 O50 1.252 . S
C75 O53 1.268 . S
C75 C68 1.506 . S
H76 C59 0.931 . S
H77 C60 0.931 . S
H78 C61 0.929 . S
H79 C62 0.930 . S
H80 C70 0.931 . S
H81 C71 0.931 . S
H82 C72 0.930 . S
H83 C73 0.929 . S
Eu84 N113 2.600 . S
Eu84 N119 2.562 . S
Eu84 O128 2.462 . S
Eu84 O129 2.373 . S
Eu84 O131 2.432 . S
Eu84 O132 2.291 . S
Eu84 O136 2.335 . S
Eu84 O139 2.372 . S
Eu84 C148 2.787 . S
C85 N86 1.365 . S
C85 C88 1.405 . S
C85 C92 1.448 . S
N86 C85 1.365 . S
N86 C89 1.319 . S
N86 Eu95 2.600 . S
C87 C89 1.397 . S
C87 C90 1.367 . S
C87 H107 0.931 . S
C88 C85 1.405 . S
C88 C90 1.403 . S
C88 C94 1.439 . S
C89 N86 1.319 . S
C89 C87 1.397 . S
C89 H100 0.930 . S
C90 C87 1.367 . S
C90 C88 1.403 . S
C90 H111 0.929 . S
C91 C92 1.430 . S
C91 C93 1.387 . S
C91 C97 1.404 . S
C92 C85 1.448 . S
C92 C91 1.430 . S
C92 N96 1.351 . S
C93 C91 1.387 . S
C93 C94 1.374 . S
C93 H108 0.931 . S
C94 C88 1.439 . S
C94 C93 1.374 . S
C94 H109 0.931 . S
Eu95 N86 2.600 . S
Eu95 N96 2.562 . S
Eu95 O130 2.335 . S
Eu95 O133 2.372 . S
Eu95 O134 2.462 . S
Eu95 O135 2.373 . S
Eu95 O137 2.432 . S
Eu95 O138 2.291 . S
Eu95 C159 2.787 . S
N96 C92 1.351 . S
N96 Eu95 2.562 . S
N96 C98 1.325 . S
C97 C91 1.404 . S
C97 C99 1.366 . S
C97 H105 0.930 . S
C98 N96 1.325 . S
C98 C99 1.416 . S
C98 H104 0.929 . S
C99 C97 1.366 . S
C99 C98 1.416 . S
C99 H101 0.930 . S
H100 C89 0.930 . S
H101 C99 0.930 . S
H102 C117 0.930 . S
H103 C124 0.930 . S
H104 C98 0.929 . S
H105 C97 0.930 . S
H106 C120 0.929 . S
H107 C87 0.931 . S
H108 C93 0.931 . S
H109 C94 0.931 . S
H110 C115 0.931 . S
H111 C90 0.929 . S
H112 C123 0.930 . S
N113 Eu84 2.600 . S
N113 C114 1.365 . S
N113 C117 1.319 . S
C114 N113 1.365 . S
C114 C116 1.405 . S
C114 C122 1.448 . S
C115 H110 0.931 . S
C115 C117 1.397 . S
C115 C118 1.367 . S
C116 C114 1.405 . S
C116 C118 1.403 . S
C116 C149 1.439 . S
C117 H102 0.930 . S
C117 N113 1.319 . S
C117 C115 1.397 . S
C118 C115 1.367 . S
C118 C116 1.403 . S
C118 H125 0.929 . S
N119 Eu84 2.562 . S
N119 C120 1.325 . S
N119 C122 1.351 . S
C120 H106 0.929 . S
C120 N119 1.325 . S
C120 C124 1.416 . S
C121 C122 1.430 . S
C121 C123 1.404 . S
C121 C150 1.387 . S
C122 C114 1.448 . S
C122 N119 1.351 . S
C122 C121 1.430 . S
C123 H112 0.930 . S
C123 C121 1.404 . S
C123 C124 1.366 . S
C124 H103 0.930 . S
C124 C120 1.416 . S
C124 C123 1.366 . S
H125 C118 0.929 . S
H126 C149 0.931 . S
H127 C150 0.931 . S
O128 Eu84 2.462 . S
O128 C148 1.252 . S
O129 Eu84 2.373 . S
O129 C140 1.249 . S
O130 Eu95 2.335 . S
O130 C140 1.264 . S
O131 Eu84 2.432 . S
O131 C148 1.268 . S
O132 Eu84 2.291 . S
O132 C147 1.255 . S
O133 Eu95 2.372 . S
O133 C147 1.257 . S
O134 Eu95 2.462 . S
O134 C159 1.252 . S
O135 Eu95 2.373 . S
O135 C151 1.249 . S
O136 Eu84 2.335 . S
O136 C151 1.264 . S
O137 Eu95 2.432 . S
O137 C159 1.268 . S
O138 Eu95 2.291 . S
O138 C158 1.255 . S
O139 Eu84 2.372 . S
O139 C158 1.257 . S
C140 O129 1.249 . S
C140 O130 1.264 . S
C141 C144 1.382 . S
C141 C146 1.390 . S
C141 C148 1.506 . S
C142 C143 1.398 . S
C142 C146 1.392 . S
C143 C142 1.398 . S
C143 C145 1.372 . S
C143 H160 0.931 . S
C144 C141 1.382 . S
C144 C145 1.390 . S
C144 H161 0.931 . S
C145 C143 1.372 . S
C145 C144 1.390 . S
C145 H162 0.929 . S
C146 C141 1.390 . S
C146 C142 1.392 . S
C146 H163 0.930 . S
C147 O132 1.255 . S
C147 O133 1.257 . S
C148 Eu84 2.787 . S
C148 O128 1.252 . S
C148 O131 1.268 . S
C148 C141 1.506 . S
C149 C116 1.439 . S
C149 H126 0.931 . S
C149 C150 1.374 . S
C150 C121 1.387 . S
C150 H127 0.931 . S
C150 C149 1.374 . S
C151 O135 1.249 . S
C151 O136 1.264 . S
C152 C155 1.382 . S
C152 C156 1.390 . S
C152 C159 1.506 . S
C153 C154 1.398 . S
C153 C156 1.392 . S
C154 C153 1.398 . S
C154 C157 1.372 . S
C154 H164 0.931 . S
C155 C152 1.382 . S
C155 C157 1.390 . S
C155 H165 0.931 . S
C156 C152 1.390 . S
C156 C153 1.392 . S
C156 H166 0.930 . S
C157 C154 1.372 . S
C157 C155 1.390 . S
C157 H167 0.929 . S
C158 O138 1.255 . S
C158 O139 1.257 . S
C159 Eu95 2.787 . S
C159 O134 1.252 . S
C159 O137 1.268 . S
C159 C152 1.506 . S
H160 C143 0.931 . S
H161 C144 0.931 . S
H162 C145 0.929 . S
H163 C146 0.930 . S
H164 C154 0.931 . S
H165 C155 0.931 . S
H166 C156 0.930 . S
H167 C157 0.929 . S
Eu168 N197 2.600 . S
Eu168 N203 2.562 . S
Eu168 O212 2.462 . S
Eu168 O213 2.373 . S
Eu168 O215 2.432 . S
Eu168 O216 2.291 . S
Eu168 O220 2.335 . S
Eu168 O223 2.372 . S
Eu168 C232 2.787 . S
C169 N170 1.365 . S
C169 C172 1.405 . S
C169 C176 1.448 . S
N170 C169 1.365 . S
N170 C173 1.319 . S
N170 Eu179 2.600 . S
C171 C173 1.397 . S
C171 C174 1.367 . S
C171 H191 0.931 . S
C172 C169 1.405 . S
C172 C174 1.403 . S
C172 C178 1.439 . S
C173 N170 1.319 . S
C173 C171 1.397 . S
C173 H184 0.930 . S
C174 C171 1.367 . S
C174 C172 1.403 . S
C174 H195 0.929 . S
C175 C176 1.430 . S
C175 C177 1.387 . S
C175 C181 1.404 . S
C176 C169 1.448 . S
C176 C175 1.430 . S
C176 N180 1.351 . S
C177 C175 1.387 . S
C177 C178 1.374 . S
C177 H192 0.931 . S
C178 C172 1.439 . S
C178 C177 1.374 . S
C178 H193 0.931 . S
Eu179 N170 2.600 . S
Eu179 N180 2.562 . S
Eu179 O214 2.335 . S
Eu179 O217 2.372 . S
Eu179 O218 2.462 . S
Eu179 O219 2.373 . S
Eu179 O221 2.432 . S
Eu179 O222 2.291 . S
Eu179 C243 2.787 . S
N180 C176 1.351 . S
N180 Eu179 2.562 . S
N180 C182 1.325 . S
C181 C175 1.404 . S
C181 C183 1.366 . S
C181 H189 0.930 . S
C182 N180 1.325 . S
C182 C183 1.416 . S
C182 H188 0.929 . S
C183 C181 1.366 . S
C183 C182 1.416 . S
C183 H185 0.930 . S
H184 C173 0.930 . S
H185 C183 0.930 . S
H186 C201 0.930 . S
H187 C208 0.930 . S
H188 C182 0.929 . S
H189 C181 0.930 . S
H190 C204 0.929 . S
H191 C171 0.931 . S
H192 C177 0.931 . S
H193 C178 0.931 . S
H194 C199 0.931 . S
H195 C174 0.929 . S
H196 C207 0.930 . S
N197 Eu168 2.600 . S
N197 C198 1.365 . S
N197 C201 1.319 . S
C198 N197 1.365 . S
C198 C200 1.405 . S
C198 C206 1.448 . S
C199 H194 0.931 . S
C199 C201 1.397 . S
C199 C202 1.367 . S
C200 C198 1.405 . S
C200 C202 1.403 . S
C200 C233 1.439 . S
C201 H186 0.930 . S
C201 N197 1.319 . S
C201 C199 1.397 . S
C202 C199 1.367 . S
C202 C200 1.403 . S
C202 H209 0.929 . S
N203 Eu168 2.562 . S
N203 C204 1.325 . S
N203 C206 1.351 . S
C204 H190 0.929 . S
C204 N203 1.325 . S
C204 C208 1.416 . S
C205 C206 1.430 . S
C205 C207 1.404 . S
C205 C234 1.387 . S
C206 C198 1.448 . S
C206 N203 1.351 . S
C206 C205 1.430 . S
C207 H196 0.930 . S
C207 C205 1.404 . S
C207 C208 1.366 . S
C208 H187 0.930 . S
C208 C204 1.416 . S
C208 C207 1.366 . S
H209 C202 0.929 . S
H210 C233 0.931 . S
H211 C234 0.931 . S
O212 Eu168 2.462 . S
O212 C232 1.252 . S
O213 Eu168 2.373 . S
O213 C224 1.249 . S
O214 Eu179 2.335 . S
O214 C224 1.264 . S
O215 Eu168 2.432 . S
O215 C232 1.268 . S
O216 Eu168 2.291 . S
O216 C231 1.255 . S
O217 Eu179 2.372 . S
O217 C231 1.257 . S
O218 Eu179 2.462 . S
O218 C243 1.252 . S
O219 Eu179 2.373 . S
O219 C235 1.249 . S
O220 Eu168 2.335 . S
O220 C235 1.264 . S
O221 Eu179 2.432 . S
O221 C243 1.268 . S
O222 Eu179 2.291 . S
O222 C242 1.255 . S
O223 Eu168 2.372 . S
O223 C242 1.257 . S
C224 O213 1.249 . S
C224 O214 1.264 . S
C225 C228 1.382 . S
C225 C230 1.390 . S
C225 C232 1.506 . S
C226 C227 1.398 . S
C226 C230 1.392 . S
C227 C226 1.398 . S
C227 C229 1.372 . S
C227 H244 0.931 . S
C228 C225 1.382 . S
C228 C229 1.390 . S
C228 H245 0.931 . S
C229 C227 1.372 . S
C229 C228 1.390 . S
C229 H246 0.929 . S
C230 C225 1.390 . S
C230 C226 1.392 . S
C230 H247 0.930 . S
C231 O216 1.255 . S
C231 O217 1.257 . S
C232 Eu168 2.787 . S
C232 O212 1.252 . S
C232 O215 1.268 . S
C232 C225 1.506 . S
C233 C200 1.439 . S
C233 H210 0.931 . S
C233 C234 1.374 . S
C234 C205 1.387 . S
C234 H211 0.931 . S
C234 C233 1.374 . S
C235 O219 1.249 . S
C235 O220 1.264 . S
C236 C239 1.382 . S
C236 C240 1.390 . S
C236 C243 1.506 . S
C237 C238 1.398 . S
C237 C240 1.392 . S
C238 C237 1.398 . S
C238 C241 1.372 . S
C238 H248 0.931 . S
C239 C236 1.382 . S
C239 C241 1.390 . S
C239 H249 0.931 . S
C240 C236 1.390 . S
C240 C237 1.392 . S
C240 H250 0.930 . S
C241 C238 1.372 . S
C241 C239 1.390 . S
C241 H251 0.929 . S
C242 O222 1.255 . S
C242 O223 1.257 . S
C243 Eu179 2.787 . S
C243 O218 1.252 . S
C243 O221 1.268 . S
C243 C236 1.506 . S
H244 C227 0.931 . S
H245 C228 0.931 . S
H246 C229 0.929 . S
H247 C230 0.930 . S
H248 C238 0.931 . S
H249 C239 0.931 . S
H250 C240 0.930 . S
H251 C241 0.929 . S
Eu252 N281 2.600 . S
Eu252 N287 2.562 . S
Eu252 O296 2.462 . S
Eu252 O297 2.373 . S
Eu252 O299 2.432 . S
Eu252 O300 2.291 . S
Eu252 O304 2.335 . S
Eu252 O307 2.372 . S
Eu252 C316 2.787 . S
C253 N254 1.365 . S
C253 C256 1.405 . S
C253 C260 1.448 . S
N254 C253 1.365 . S
N254 C257 1.319 . S
N254 Eu263 2.600 . S
C255 C257 1.397 . S
C255 C258 1.367 . S
C255 H275 0.931 . S
C256 C253 1.405 . S
C256 C258 1.403 . S
C256 C262 1.439 . S
C257 N254 1.319 . S
C257 C255 1.397 . S
C257 H268 0.930 . S
C258 C255 1.367 . S
C258 C256 1.403 . S
C258 H279 0.929 . S
C259 C260 1.430 . S
C259 C261 1.387 . S
C259 C265 1.404 . S
C260 C253 1.448 . S
C260 C259 1.430 . S
C260 N264 1.351 . S
C261 C259 1.387 . S
C261 C262 1.374 . S
C261 H276 0.931 . S
C262 C256 1.439 . S
C262 C261 1.374 . S
C262 H277 0.931 . S
Eu263 N254 2.600 . S
Eu263 N264 2.562 . S
Eu263 O298 2.335 . S
Eu263 O301 2.372 . S
Eu263 O302 2.462 . S
Eu263 O303 2.373 . S
Eu263 O305 2.432 . S
Eu263 O306 2.291 . S
Eu263 C327 2.787 . S
N264 C260 1.351 . S
N264 Eu263 2.562 . S
N264 C266 1.325 . S
C265 C259 1.404 . S
C265 C267 1.366 . S
C265 H273 0.930 . S
C266 N264 1.325 . S
C266 C267 1.416 . S
C266 H272 0.929 . S
C267 C265 1.366 . S
C267 C266 1.416 . S
C267 H269 0.930 . S
H268 C257 0.930 . S
H269 C267 0.930 . S
H270 C285 0.930 . S
H271 C292 0.930 . S
H272 C266 0.929 . S
H273 C265 0.930 . S
H274 C288 0.929 . S
H275 C255 0.931 . S
H276 C261 0.931 . S
H277 C262 0.931 . S
H278 C283 0.931 . S
H279 C258 0.929 . S
H280 C291 0.930 . S
N281 Eu252 2.600 . S
N281 C282 1.365 . S
N281 C285 1.319 . S
C282 N281 1.365 . S
C282 C284 1.405 . S
C282 C290 1.448 . S
C283 H278 0.931 . S
C283 C285 1.397 . S
C283 C286 1.367 . S
C284 C282 1.405 . S
C284 C286 1.403 . S
C284 C317 1.439 . S
C285 H270 0.930 . S
C285 N281 1.319 . S
C285 C283 1.397 . S
C286 C283 1.367 . S
C286 C284 1.403 . S
C286 H293 0.929 . S
N287 Eu252 2.562 . S
N287 C288 1.325 . S
N287 C290 1.351 . S
C288 H274 0.929 . S
C288 N287 1.325 . S
C288 C292 1.416 . S
C289 C290 1.430 . S
C289 C291 1.404 . S
C289 C318 1.387 . S
C290 C282 1.448 . S
C290 N287 1.351 . S
C290 C289 1.430 . S
C291 H280 0.930 . S
C291 C289 1.404 . S
C291 C292 1.366 . S
C292 H271 0.930 . S
C292 C288 1.416 . S
C292 C291 1.366 . S
H293 C286 0.929 . S
H294 C317 0.931 . S
H295 C318 0.931 . S
O296 Eu252 2.462 . S
O296 C316 1.252 . S
O297 Eu252 2.373 . S
O297 C308 1.249 . S
O298 Eu263 2.335 . S
O298 C308 1.264 . S
O299 Eu252 2.432 . S
O299 C316 1.268 . S
O300 Eu252 2.291 . S
O300 C315 1.255 . S
O301 Eu263 2.372 . S
O301 C315 1.257 . S
O302 Eu263 2.462 . S
O302 C327 1.252 . S
O303 Eu263 2.373 . S
O303 C319 1.249 . S
O304 Eu252 2.335 . S
O304 C319 1.264 . S
O305 Eu263 2.432 . S
O305 C327 1.268 . S
O306 Eu263 2.291 . S
O306 C326 1.255 . S
O307 Eu252 2.372 . S
O307 C326 1.257 . S
C308 O297 1.249 . S
C308 O298 1.264 . S
C309 C312 1.382 . S
C309 C314 1.390 . S
C309 C316 1.506 . S
C310 C311 1.398 . S
C310 C314 1.392 . S
C311 C310 1.398 . S
C311 C313 1.372 . S
C311 H328 0.931 . S
C312 C309 1.382 . S
C312 C313 1.390 . S
C312 H329 0.931 . S
C313 C311 1.372 . S
C313 C312 1.390 . S
C313 H330 0.929 . S
C314 C309 1.390 . S
C314 C310 1.392 . S
C314 H331 0.930 . S
C315 O300 1.255 . S
C315 O301 1.257 . S
C316 Eu252 2.787 . S
C316 O296 1.252 . S
C316 O299 1.268 . S
C316 C309 1.506 . S
C317 C284 1.439 . S
C317 H294 0.931 . S
C317 C318 1.374 . S
C318 C289 1.387 . S
C318 H295 0.931 . S
C318 C317 1.374 . S
C319 O303 1.249 . S
C319 O304 1.264 . S
C320 C323 1.382 . S
C320 C324 1.390 . S
C320 C327 1.506 . S
C321 C322 1.398 . S
C321 C324 1.392 . S
C322 C321 1.398 . S
C322 C325 1.372 . S
C322 H332 0.931 . S
C323 C320 1.382 . S
C323 C325 1.390 . S
C323 H333 0.931 . S
C324 C320 1.390 . S
C324 C321 1.392 . S
C324 H334 0.930 . S
C325 C322 1.372 . S
C325 C323 1.390 . S
C325 H335 0.929 . S
C326 O306 1.255 . S
C326 O307 1.257 . S
C327 Eu263 2.787 . S
C327 O302 1.252 . S
C327 O305 1.268 . S
C327 C320 1.506 . S
H328 C311 0.931 . S
H329 C312 0.931 . S
H330 C313 0.929 . S
H331 C314 0.930 . S
H332 C322 0.931 . S
H333 C323 0.931 . S
H334 C324 0.930 . S
H335 C325 0.929 . S
Eu336 N365 2.600 . S
Eu336 N371 2.562 . S
Eu336 O380 2.462 . S
Eu336 O381 2.373 . S
Eu336 O383 2.432 . S
Eu336 O384 2.291 . S
Eu336 O388 2.335 . S
Eu336 O391 2.372 . S
Eu336 C400 2.787 . S
C337 N338 1.365 . S
C337 C340 1.405 . S
C337 C344 1.448 . S
N338 C337 1.365 . S
N338 C341 1.319 . S
N338 Eu347 2.600 . S
C339 C341 1.397 . S
C339 C342 1.367 . S
C339 H359 0.931 . S
C340 C337 1.405 . S
C340 C342 1.403 . S
C340 C346 1.439 . S
C341 N338 1.319 . S
C341 C339 1.397 . S
C341 H352 0.930 . S
C342 C339 1.367 . S
C342 C340 1.403 . S
C342 H363 0.929 . S
C343 C344 1.430 . S
C343 C345 1.387 . S
C343 C349 1.404 . S
C344 C337 1.448 . S
C344 C343 1.430 . S
C344 N348 1.351 . S
C345 C343 1.387 . S
C345 C346 1.374 . S
C345 H360 0.931 . S
C346 C340 1.439 . S
C346 C345 1.374 . S
C346 H361 0.931 . S
Eu347 N338 2.600 . S
Eu347 N348 2.562 . S
Eu347 O382 2.335 . S
Eu347 O385 2.372 . S
Eu347 O386 2.462 . S
Eu347 O387 2.373 . S
Eu347 O389 2.432 . S
Eu347 O390 2.291 . S
Eu347 C411 2.787 . S
N348 C344 1.351 . S
N348 Eu347 2.562 . S
N348 C350 1.325 . S
C349 C343 1.404 . S
C349 C351 1.366 . S
C349 H357 0.930 . S
C350 N348 1.325 . S
C350 C351 1.416 . S
C350 H356 0.929 . S
C351 C349 1.366 . S
C351 C350 1.416 . S
C351 H353 0.930 . S
H352 C341 0.930 . S
H353 C351 0.930 . S
H354 C369 0.930 . S
H355 C376 0.930 . S
H356 C350 0.929 . S
H357 C349 0.930 . S
H358 C372 0.929 . S
H359 C339 0.931 . S
H360 C345 0.931 . S
H361 C346 0.931 . S
H362 C367 0.931 . S
H363 C342 0.929 . S
H364 C375 0.930 . S
N365 Eu336 2.600 . S
N365 C366 1.365 . S
N365 C369 1.319 . S
C366 N365 1.365 . S
C366 C368 1.405 . S
C366 C374 1.448 . S
C367 H362 0.931 . S
C367 C369 1.397 . S
C367 C370 1.367 . S
C368 C366 1.405 . S
C368 C370 1.403 . S
C368 C401 1.439 . S
C369 H354 0.930 . S
C369 N365 1.319 . S
C369 C367 1.397 . S
C370 C367 1.367 . S
C370 C368 1.403 . S
C370 H377 0.929 . S
N371 Eu336 2.562 . S
N371 C372 1.325 . S
N371 C374 1.351 . S
C372 H358 0.929 . S
C372 N371 1.325 . S
C372 C376 1.416 . S
C373 C374 1.430 . S
C373 C375 1.404 . S
C373 C402 1.387 . S
C374 C366 1.448 . S
C374 N371 1.351 . S
C374 C373 1.430 . S
C375 H364 0.930 . S
C375 C373 1.404 . S
C375 C376 1.366 . S
C376 H355 0.930 . S
C376 C372 1.416 . S
C376 C375 1.366 . S
H377 C370 0.929 . S
H378 C401 0.931 . S
H379 C402 0.931 . S
O380 Eu336 2.462 . S
O380 C400 1.252 . S
O381 Eu336 2.373 . S
O381 C392 1.249 . S
O382 Eu347 2.335 . S
O382 C392 1.264 . S
O383 Eu336 2.432 . S
O383 C400 1.268 . S
O384 Eu336 2.291 . S
O384 C399 1.255 . S
O385 Eu347 2.372 . S
O385 C399 1.257 . S
O386 Eu347 2.462 . S
O386 C411 1.252 . S
O387 Eu347 2.373 . S
O387 C403 1.249 . S
O388 Eu336 2.335 . S
O388 C403 1.264 . S
O389 Eu347 2.432 . S
O389 C411 1.268 . S
O390 Eu347 2.291 . S
O390 C410 1.255 . S
O391 Eu336 2.372 . S
O391 C410 1.257 . S
C392 O381 1.249 . S
C392 O382 1.264 . S
C393 C396 1.382 . S
C393 C398 1.390 . S
C393 C400 1.506 . S
C394 C395 1.398 . S
C394 C398 1.392 . S
C395 C394 1.398 . S
C395 C397 1.372 . S
C395 H412 0.931 . S
C396 C393 1.382 . S
C396 C397 1.390 . S
C396 H413 0.931 . S
C397 C395 1.372 . S
C397 C396 1.390 . S
C397 H414 0.929 . S
C398 C393 1.390 . S
C398 C394 1.392 . S
C398 H415 0.930 . S
C399 O384 1.255 . S
C399 O385 1.257 . S
C400 Eu336 2.787 . S
C400 O380 1.252 . S
C400 O383 1.268 . S
C400 C393 1.506 . S
C401 C368 1.439 . S
C401 H378 0.931 . S
C401 C402 1.374 . S
C402 C373 1.387 . S
C402 H379 0.931 . S
C402 C401 1.374 . S
C403 O387 1.249 . S
C403 O388 1.264 . S
C404 C407 1.382 . S
C404 C408 1.390 . S
C404 C411 1.506 . S
C405 C406 1.398 . S
C405 C408 1.392 . S
C406 C405 1.398 . S
C406 C409 1.372 . S
C406 H416 0.931 . S
C407 C404 1.382 . S
C407 C409 1.390 . S
C407 H417 0.931 . S
C408 C404 1.390 . S
C408 C405 1.392 . S
C408 H418 0.930 . S
C409 C406 1.372 . S
C409 C407 1.390 . S
C409 H419 0.929 . S
C410 O390 1.255 . S
C410 O391 1.257 . S
C411 Eu347 2.787 . S
C411 O386 1.252 . S
C411 O389 1.268 . S
C411 C404 1.506 . S
H412 C395 0.931 . S
H413 C396 0.931 . S
H414 C397 0.929 . S
H415 C398 0.930 . S
H416 C406 0.931 . S
H417 C407 0.931 . S
H418 C408 0.930 . S
H419 C409 0.929 . S
Eu420 N449 2.600 . S
Eu420 N455 2.562 . S
Eu420 O464 2.462 . S
Eu420 O465 2.373 . S
Eu420 O467 2.432 . S
Eu420 O468 2.291 . S
Eu420 O472 2.335 . S
Eu420 O475 2.372 . S
Eu420 C484 2.787 . S
C421 N422 1.365 . S
C421 C424 1.405 . S
C421 C428 1.448 . S
N422 C421 1.365 . S
N422 C425 1.319 . S
N422 Eu431 2.600 . S
C423 C425 1.397 . S
C423 C426 1.367 . S
C423 H443 0.931 . S
C424 C421 1.405 . S
C424 C426 1.403 . S
C424 C430 1.439 . S
C425 N422 1.319 . S
C425 C423 1.397 . S
C425 H436 0.930 . S
C426 C423 1.367 . S
C426 C424 1.403 . S
C426 H447 0.929 . S
C427 C428 1.430 . S
C427 C429 1.387 . S
C427 C433 1.404 . S
C428 C421 1.448 . S
C428 C427 1.430 . S
C428 N432 1.351 . S
C429 C427 1.387 . S
C429 C430 1.374 . S
C429 H444 0.931 . S
C430 C424 1.439 . S
C430 C429 1.374 . S
C430 H445 0.931 . S
Eu431 N422 2.600 . S
Eu431 N432 2.562 . S
Eu431 O466 2.335 . S
Eu431 O469 2.372 . S
Eu431 O470 2.462 . S
Eu431 O471 2.373 . S
Eu431 O473 2.432 . S
Eu431 O474 2.291 . S
Eu431 C495 2.787 . S
N432 C428 1.351 . S
N432 Eu431 2.562 . S
N432 C434 1.325 . S
C433 C427 1.404 . S
C433 C435 1.366 . S
C433 H441 0.930 . S
C434 N432 1.325 . S
C434 C435 1.416 . S
C434 H440 0.929 . S
C435 C433 1.366 . S
C435 C434 1.416 . S
C435 H437 0.930 . S
H436 C425 0.930 . S
H437 C435 0.930 . S
H438 C453 0.930 . S
H439 C460 0.930 . S
H440 C434 0.929 . S
H441 C433 0.930 . S
H442 C456 0.929 . S
H443 C423 0.931 . S
H444 C429 0.931 . S
H445 C430 0.931 . S
H446 C451 0.931 . S
H447 C426 0.929 . S
H448 C459 0.930 . S
N449 Eu420 2.600 . S
N449 C450 1.365 . S
N449 C453 1.319 . S
C450 N449 1.365 . S
C450 C452 1.405 . S
C450 C458 1.448 . S
C451 H446 0.931 . S
C451 C453 1.397 . S
C451 C454 1.367 . S
C452 C450 1.405 . S
C452 C454 1.403 . S
C452 C485 1.439 . S
C453 H438 0.930 . S
C453 N449 1.319 . S
C453 C451 1.397 . S
C454 C451 1.367 . S
C454 C452 1.403 . S
C454 H461 0.929 . S
N455 Eu420 2.562 . S
N455 C456 1.325 . S
N455 C458 1.351 . S
C456 H442 0.929 . S
C456 N455 1.325 . S
C456 C460 1.416 . S
C457 C458 1.430 . S
C457 C459 1.404 . S
C457 C486 1.387 . S
C458 C450 1.448 . S
C458 N455 1.351 . S
C458 C457 1.430 . S
C459 H448 0.930 . S
C459 C457 1.404 . S
C459 C460 1.366 . S
C460 H439 0.930 . S
C460 C456 1.416 . S
C460 C459 1.366 . S
H461 C454 0.929 . S
H462 C485 0.931 . S
H463 C486 0.931 . S
O464 Eu420 2.462 . S
O464 C484 1.252 . S
O465 Eu420 2.373 . S
O465 C476 1.249 . S
O466 Eu431 2.335 . S
O466 C476 1.264 . S
O467 Eu420 2.432 . S
O467 C484 1.268 . S
O468 Eu420 2.291 . S
O468 C483 1.255 . S
O469 Eu431 2.372 . S
O469 C483 1.257 . S
O470 Eu431 2.462 . S
O470 C495 1.252 . S
O471 Eu431 2.373 . S
O471 C487 1.249 . S
O472 Eu420 2.335 . S
O472 C487 1.264 . S
O473 Eu431 2.432 . S
O473 C495 1.268 . S
O474 Eu431 2.291 . S
O474 C494 1.255 . S
O475 Eu420 2.372 . S
O475 C494 1.257 . S
C476 O465 1.249 . S
C476 O466 1.264 . S
C477 C480 1.382 . S
C477 C482 1.390 . S
C477 C484 1.506 . S
C478 C479 1.398 . S
C478 C482 1.392 . S
C479 C478 1.398 . S
C479 C481 1.372 . S
C479 H496 0.931 . S
C480 C477 1.382 . S
C480 C481 1.390 . S
C480 H497 0.931 . S
C481 C479 1.372 . S
C481 C480 1.390 . S
C481 H498 0.929 . S
C482 C477 1.390 . S
C482 C478 1.392 . S
C482 H499 0.930 . S
C483 O468 1.255 . S
C483 O469 1.257 . S
C484 Eu420 2.787 . S
C484 O464 1.252 . S
C484 O467 1.268 . S
C484 C477 1.506 . S
C485 C452 1.439 . S
C485 H462 0.931 . S
C485 C486 1.374 . S
C486 C457 1.387 . S
C486 H463 0.931 . S
C486 C485 1.374 . S
C487 O471 1.249 . S
C487 O472 1.264 . S
C488 C491 1.382 . S
C488 C492 1.390 . S
C488 C495 1.506 . S
C489 C490 1.398 . S
C489 C492 1.392 . S
C490 C489 1.398 . S
C490 C493 1.372 . S
C490 H500 0.931 . S
C491 C488 1.382 . S
C491 C493 1.390 . S
C491 H501 0.931 . S
C492 C488 1.390 . S
C492 C489 1.392 . S
C492 H502 0.930 . S
C493 C490 1.372 . S
C493 C491 1.390 . S
C493 H503 0.929 . S
C494 O474 1.255 . S
C494 O475 1.257 . S
C495 Eu431 2.787 . S
C495 O470 1.252 . S
C495 O473 1.268 . S
C495 C488 1.506 . S
H496 C479 0.931 . S
H497 C480 0.931 . S
H498 C481 0.929 . S
H499 C482 0.930 . S
H500 C490 0.931 . S
H501 C491 0.931 . S
H502 C492 0.930 . S
H503 C493 0.929 . S
Eu504 N533 2.600 . S
Eu504 N539 2.562 . S
Eu504 O548 2.462 . S
Eu504 O549 2.373 . S
Eu504 O551 2.432 . S
Eu504 O552 2.291 . S
Eu504 O556 2.335 . S
Eu504 O559 2.372 . S
Eu504 C568 2.787 . S
C505 N506 1.365 . S
C505 C508 1.405 . S
C505 C512 1.448 . S
N506 C505 1.365 . S
N506 C509 1.319 . S
N506 Eu515 2.600 . S
C507 C509 1.397 . S
C507 C510 1.367 . S
C507 H527 0.931 . S
C508 C505 1.405 . S
C508 C510 1.403 . S
C508 C514 1.439 . S
C509 N506 1.319 . S
C509 C507 1.397 . S
C509 H520 0.930 . S
C510 C507 1.367 . S
C510 C508 1.403 . S
C510 H531 0.929 . S
C511 C512 1.430 . S
C511 C513 1.387 . S
C511 C517 1.404 . S
C512 C505 1.448 . S
C512 C511 1.430 . S
C512 N516 1.351 . S
C513 C511 1.387 . S
C513 C514 1.374 . S
C513 H528 0.931 . S
C514 C508 1.439 . S
C514 C513 1.374 . S
C514 H529 0.931 . S
Eu515 N506 2.600 . S
Eu515 N516 2.562 . S
Eu515 O550 2.335 . S
Eu515 O553 2.372 . S
Eu515 O554 2.462 . S
Eu515 O555 2.373 . S
Eu515 O557 2.432 . S
Eu515 O558 2.291 . S
Eu515 C579 2.787 . S
N516 C512 1.351 . S
N516 Eu515 2.562 . S
N516 C518 1.325 . S
C517 C511 1.404 . S
C517 C519 1.366 . S
C517 H525 0.930 . S
C518 N516 1.325 . S
C518 C519 1.416 . S
C518 H524 0.929 . S
C519 C517 1.366 . S
C519 C518 1.416 . S
C519 H521 0.930 . S
H520 C509 0.930 . S
H521 C519 0.930 . S
H522 C537 0.930 . S
H523 C544 0.930 . S
H524 C518 0.929 . S
H525 C517 0.930 . S
H526 C540 0.929 . S
H527 C507 0.931 . S
H528 C513 0.931 . S
H529 C514 0.931 . S
H530 C535 0.931 . S
H531 C510 0.929 . S
H532 C543 0.930 . S
N533 Eu504 2.600 . S
N533 C534 1.365 . S
N533 C537 1.319 . S
C534 N533 1.365 . S
C534 C536 1.405 . S
C534 C542 1.448 . S
C535 H530 0.931 . S
C535 C537 1.397 . S
C535 C538 1.367 . S
C536 C534 1.405 . S
C536 C538 1.403 . S
C536 C569 1.439 . S
C537 H522 0.930 . S
C537 N533 1.319 . S
C537 C535 1.397 . S
C538 C535 1.367 . S
C538 C536 1.403 . S
C538 H545 0.929 . S
N539 Eu504 2.562 . S
N539 C540 1.325 . S
N539 C542 1.351 . S
C540 H526 0.929 . S
C540 N539 1.325 . S
C540 C544 1.416 . S
C541 C542 1.430 . S
C541 C543 1.404 . S
C541 C570 1.387 . S
C542 C534 1.448 . S
C542 N539 1.351 . S
C542 C541 1.430 . S
C543 H532 0.930 . S
C543 C541 1.404 . S
C543 C544 1.366 . S
C544 H523 0.930 . S
C544 C540 1.416 . S
C544 C543 1.366 . S
H545 C538 0.929 . S
H546 C569 0.931 . S
H547 C570 0.931 . S
O548 Eu504 2.462 . S
O548 C568 1.252 . S
O549 Eu504 2.373 . S
O549 C560 1.249 . S
O550 Eu515 2.335 . S
O550 C560 1.264 . S
O551 Eu504 2.432 . S
O551 C568 1.268 . S
O552 Eu504 2.291 . S
O552 C567 1.255 . S
O553 Eu515 2.372 . S
O553 C567 1.257 . S
O554 Eu515 2.462 . S
O554 C579 1.252 . S
O555 Eu515 2.373 . S
O555 C571 1.249 . S
O556 Eu504 2.335 . S
O556 C571 1.264 . S
O557 Eu515 2.432 . S
O557 C579 1.268 . S
O558 Eu515 2.291 . S
O558 C578 1.255 . S
O559 Eu504 2.372 . S
O559 C578 1.257 . S
C560 O549 1.249 . S
C560 O550 1.264 . S
C561 C564 1.382 . S
C561 C566 1.390 . S
C561 C568 1.506 . S
C562 C563 1.398 . S
C562 C566 1.392 . S
C563 C562 1.398 . S
C563 C565 1.372 . S
C563 H580 0.931 . S
C564 C561 1.382 . S
C564 C565 1.390 . S
C564 H581 0.931 . S
C565 C563 1.372 . S
C565 C564 1.390 . S
C565 H582 0.929 . S
C566 C561 1.390 . S
C566 C562 1.392 . S
C566 H583 0.930 . S
C567 O552 1.255 . S
C567 O553 1.257 . S
C568 Eu504 2.787 . S
C568 O548 1.252 . S
C568 O551 1.268 . S
C568 C561 1.506 . S
C569 C536 1.439 . S
C569 H546 0.931 . S
C569 C570 1.374 . S
C570 C541 1.387 . S
C570 H547 0.931 . S
C570 C569 1.374 . S
C571 O555 1.249 . S
C571 O556 1.264 . S
C572 C575 1.382 . S
C572 C576 1.390 . S
C572 C579 1.506 . S
C573 C574 1.398 . S
C573 C576 1.392 . S
C574 C573 1.398 . S
C574 C577 1.372 . S
C574 H584 0.931 . S
C575 C572 1.382 . S
C575 C577 1.390 . S
C575 H585 0.931 . S
C576 C572 1.390 . S
C576 C573 1.392 . S
C576 H586 0.930 . S
C577 C574 1.372 . S
C577 C575 1.390 . S
C577 H587 0.929 . S
C578 O558 1.255 . S
C578 O559 1.257 . S
C579 Eu515 2.787 . S
C579 O554 1.252 . S
C579 O557 1.268 . S
C579 C572 1.506 . S
H580 C563 0.931 . S
H581 C564 0.931 . S
H582 C565 0.929 . S
H583 C566 0.930 . S
H584 C574 0.931 . S
H585 C575 0.931 . S
H586 C576 0.930 . S
H587 C577 0.929 . S
Eu588 N617 2.600 . S
Eu588 N623 2.562 . S
Eu588 O632 2.462 . S
Eu588 O633 2.373 . S
Eu588 O635 2.432 . S
Eu588 O636 2.291 . S
Eu588 O640 2.335 . S
Eu588 O643 2.372 . S
Eu588 C652 2.787 . S
C589 N590 1.365 . S
C589 C592 1.405 . S
C589 C596 1.448 . S
N590 C589 1.365 . S
N590 C593 1.319 . S
N590 Eu599 2.600 . S
C591 C593 1.397 . S
C591 C594 1.367 . S
C591 H611 0.931 . S
C592 C589 1.405 . S
C592 C594 1.403 . S
C592 C598 1.439 . S
C593 N590 1.319 . S
C593 C591 1.397 . S
C593 H604 0.930 . S
C594 C591 1.367 . S
C594 C592 1.403 . S
C594 H615 0.929 . S
C595 C596 1.430 . S
C595 C597 1.387 . S
C595 C601 1.404 . S
C596 C589 1.448 . S
C596 C595 1.430 . S
C596 N600 1.351 . S
C597 C595 1.387 . S
C597 C598 1.374 . S
C597 H612 0.931 . S
C598 C592 1.439 . S
C598 C597 1.374 . S
C598 H613 0.931 . S
Eu599 N590 2.600 . S
Eu599 N600 2.562 . S
Eu599 O634 2.335 . S
Eu599 O637 2.372 . S
Eu599 O638 2.462 . S
Eu599 O639 2.373 . S
Eu599 O641 2.432 . S
Eu599 O642 2.291 . S
Eu599 C663 2.787 . S
N600 C596 1.351 . S
N600 Eu599 2.562 . S
N600 C602 1.325 . S
C601 C595 1.404 . S
C601 C603 1.366 . S
C601 H609 0.930 . S
C602 N600 1.325 . S
C602 C603 1.416 . S
C602 H608 0.929 . S
C603 C601 1.366 . S
C603 C602 1.416 . S
C603 H605 0.930 . S
H604 C593 0.930 . S
H605 C603 0.930 . S
H606 C621 0.930 . S
H607 C628 0.930 . S
H608 C602 0.929 . S
H609 C601 0.930 . S
H610 C624 0.929 . S
H611 C591 0.931 . S
H612 C597 0.931 . S
H613 C598 0.931 . S
H614 C619 0.931 . S
H615 C594 0.929 . S
H616 C627 0.930 . S
N617 Eu588 2.600 . S
N617 C618 1.365 . S
N617 C621 1.319 . S
C618 N617 1.365 . S
C618 C620 1.405 . S
C618 C626 1.448 . S
C619 H614 0.931 . S
C619 C621 1.397 . S
C619 C622 1.367 . S
C620 C618 1.405 . S
C620 C622 1.403 . S
C620 C653 1.439 . S
C621 H606 0.930 . S
C621 N617 1.319 . S
C621 C619 1.397 . S
C622 C619 1.367 . S
C622 C620 1.403 . S
C622 H629 0.929 . S
N623 Eu588 2.562 . S
N623 C624 1.325 . S
N623 C626 1.351 . S
C624 H610 0.929 . S
C624 N623 1.325 . S
C624 C628 1.416 . S
C625 C626 1.430 . S
C625 C627 1.404 . S
C625 C654 1.387 . S
C626 C618 1.448 . S
C626 N623 1.351 . S
C626 C625 1.430 . S
C627 H616 0.930 . S
C627 C625 1.404 . S
C627 C628 1.366 . S
C628 H607 0.930 . S
C628 C624 1.416 . S
C628 C627 1.366 . S
H629 C622 0.929 . S
H630 C653 0.931 . S
H631 C654 0.931 . S
O632 Eu588 2.462 . S
O632 C652 1.252 . S
O633 Eu588 2.373 . S
O633 C644 1.249 . S
O634 Eu599 2.335 . S
O634 C644 1.264 . S
O635 Eu588 2.432 . S
O635 C652 1.268 . S
O636 Eu588 2.291 . S
O636 C651 1.255 . S
O637 Eu599 2.372 . S
O637 C651 1.257 . S
O638 Eu599 2.462 . S
O638 C663 1.252 . S
O639 Eu599 2.373 . S
O639 C655 1.249 . S
O640 Eu588 2.335 . S
O640 C655 1.264 . S
O641 Eu599 2.432 . S
O641 C663 1.268 . S
O642 Eu599 2.291 . S
O642 C662 1.255 . S
O643 Eu588 2.372 . S
O643 C662 1.257 . S
C644 O633 1.249 . S
C644 O634 1.264 . S
C645 C648 1.382 . S
C645 C650 1.390 . S
C645 C652 1.506 . S
C646 C647 1.398 . S
C646 C650 1.392 . S
C647 C646 1.398 . S
C647 C649 1.372 . S
C647 H664 0.931 . S
C648 C645 1.382 . S
C648 C649 1.390 . S
C648 H665 0.931 . S
C649 C647 1.372 . S
C649 C648 1.390 . S
C649 H666 0.929 . S
C650 C645 1.390 . S
C650 C646 1.392 . S
C650 H667 0.930 . S
C651 O636 1.255 . S
C651 O637 1.257 . S
C652 Eu588 2.787 . S
C652 O632 1.252 . S
C652 O635 1.268 . S
C652 C645 1.506 . S
C653 C620 1.439 . S
C653 H630 0.931 . S
C653 C654 1.374 . S
C654 C625 1.387 . S
C654 H631 0.931 . S
C654 C653 1.374 . S
C655 O639 1.249 . S
C655 O640 1.264 . S
C656 C659 1.382 . S
C656 C660 1.390 . S
C656 C663 1.506 . S
C657 C658 1.398 . S
C657 C660 1.392 . S
C658 C657 1.398 . S
C658 C661 1.372 . S
C658 H668 0.931 . S
C659 C656 1.382 . S
C659 C661 1.390 . S
C659 H669 0.931 . S
C660 C656 1.390 . S
C660 C657 1.392 . S
C660 H670 0.930 . S
C661 C658 1.372 . S
C661 C659 1.390 . S
C661 H671 0.929 . S
C662 O642 1.255 . S
C662 O643 1.257 . S
C663 Eu599 2.787 . S
C663 O638 1.252 . S
C663 O641 1.268 . S
C663 C656 1.506 . S
H664 C647 0.931 . S
H665 C648 0.931 . S
H666 C649 0.929 . S
H667 C650 0.930 . S
H668 C658 0.931 . S
H669 C659 0.931 . S
H670 C660 0.930 . S
H671 C661 0.929 . S
Co672 O675 2.042 . S
Co672 O682 2.264 . S
Co672 O701 2.286 . S
Co672 O702 2.069 . S
Co672 O704 2.015 1_455 S
Co673 O675 2.122 . S
Co673 O681 2.073 . S
Co673 O682 2.327 . S
Co673 O683 1.976 1_455 S
Co674 O675 2.084 1_545 S
Co674 O677 2.090 1_455 S
Co674 O684 2.105 1_445 S
Co674 O685 2.151 . S
Co674 O689 2.117 . S
Co674 O703 2.136 1_445 S
O675 Co672 2.042 . S
O675 Co673 2.122 . S
O675 Co674 2.084 1_565 S
O675 H676 0.980 . S
H676 O675 0.980 . S
O677 Co674 2.090 1_655 S
O677 Co678 2.042 . S
O677 Co679 2.122 . S
O677 H680 0.980 . S
Co678 O677 2.042 . S
Co678 O686 2.286 . S
Co678 O687 2.069 . S
Co678 O688 2.015 1_655 S
Co678 O691 2.264 . S
Co679 O677 2.122 . S
Co679 O690 1.976 1_655 S
Co679 O691 2.327 . S
Co679 O692 2.073 . S
H680 O677 0.980 . S
O681 Co673 2.073 . S
O681 C696 1.245 . S
O682 Co672 2.264 . S
O682 Co673 2.327 . S
O682 C696 1.257 . S
O683 Co673 1.976 1_655 S
O683 C695 1.251 . S
O684 Co674 2.105 1_665 S
O684 C695 1.274 . S
O685 Co674 2.151 . S
O685 C698 1.246 . S
O686 Co678 2.286 . S
O686 C697 1.259 . S
O687 Co678 2.069 . S
O687 C697 1.289 . S
O688 Co678 2.015 1_455 S
O688 C698 1.257 . S
O689 Co674 2.117 . S
O689 C699 1.274 . S
O690 Co679 1.976 1_455 S
O690 C699 1.251 . S
O691 Co678 2.264 . S
O691 Co679 2.327 . S
O691 C700 1.257 . S
O692 Co679 2.073 . S
O692 C700 1.245 . S
C693 O701 1.259 . S
C693 O702 1.289 . S
C694 O703 1.246 . S
C694 O704 1.257 . S
C695 O683 1.251 . S
C695 O684 1.274 . S
C696 O681 1.245 . S
C696 O682 1.257 . S
C697 O686 1.259 . S
C697 O687 1.289 . S
C698 O685 1.246 . S
C698 O688 1.257 . S
C699 O689 1.274 . S
C699 O690 1.251 . S
C700 O691 1.257 . S
C700 O692 1.245 . S
O701 Co672 2.286 . S
O701 C693 1.259 . S
O702 Co672 2.069 . S
O702 C693 1.289 . S
O703 Co674 2.136 1_665 S
O703 C694 1.246 . S
O704 Co672 2.015 1_655 S
O704 C694 1.257 . S
Co705 O708 2.042 1_556 S
Co705 O715 2.264 1_556 S
Co705 O734 2.286 . S
Co705 O735 2.069 . S
Co705 O737 2.015 . S
Co706 O708 2.122 . S
Co706 O714 2.073 . S
Co706 O715 2.327 . S
Co706 O716 1.976 . S
Co707 O708 2.079 1_545 S
Co707 O710 2.095 1_554 S
Co707 O717 2.109 1_545 S
Co707 O718 2.148 . S
Co707 O722 2.114 1_554 S
Co707 O736 2.139 1_544 S
O708 Co705 2.042 1_554 S
O708 Co706 2.122 . S
O708 Co707 2.079 1_565 S
O708 H709 0.980 . S
H709 O708 0.980 . S
O710 Co707 2.095 1_556 S
O710 Co711 2.042 1_556 S
O710 Co712 2.122 . S
O710 H713 0.980 . S
Co711 O710 2.042 1_554 S
Co711 O719 2.286 . S
Co711 O720 2.069 . S
Co711 O721 2.015 . S
Co711 O724 2.264 1_554 S
Co712 O710 2.122 . S
Co712 O723 1.976 . S
Co712 O724 2.327 . S
Co712 O725 2.073 . S
H713 O710 0.980 . S
O714 Co706 2.073 . S
O714 C729 1.245 . S
O715 Co705 2.264 1_554 S
O715 Co706 2.327 . S
O715 C729 1.257 . S
O716 Co706 1.976 . S
O716 C728 1.251 . S
O717 Co707 2.109 1_565 S
O717 C728 1.274 . S
O718 Co707 2.148 . S
O718 C731 1.246 . S
O719 Co711 2.286 . S
O719 C730 1.259 . S
O720 Co711 2.069 . S
O720 C730 1.289 . S
O721 Co711 2.015 . S
O721 C731 1.257 . S
O722 Co707 2.114 1_556 S
O722 C732 1.274 . S
O723 Co712 1.976 . S
O723 C732 1.251 . S
O724 Co711 2.264 1_556 S
O724 Co712 2.327 . S
O724 C733 1.257 . S
O725 Co712 2.073 . S
O725 C733 1.245 . S
C726 O734 1.259 . S
C726 O735 1.289 . S
C727 O736 1.246 . S
C727 O737 1.257 . S
C728 O716 1.251 . S
C728 O717 1.274 . S
C729 O714 1.245 . S
C729 O715 1.257 . S
C730 O719 1.259 . S
C730 O720 1.289 . S
C731 O718 1.246 . S
C731 O721 1.257 . S
C732 O722 1.274 . S
C732 O723 1.251 . S
C733 O724 1.257 . S
C733 O725 1.245 . S
O734 Co705 2.286 . S
O734 C726 1.259 . S
O735 Co705 2.069 . S
O735 C726 1.289 . S
O736 Co707 2.139 1_566 S
O736 C727 1.246 . S
O737 Co705 2.015 . S
O737 C727 1.257 . S
Co738 O741 2.042 1_556 S
Co738 O748 2.264 1_556 S
Co738 O767 2.286 . S
Co738 O768 2.069 . S
Co738 O770 2.015 1_455 S
Co739 O741 2.122 . S
Co739 O747 2.073 . S
Co739 O748 2.327 . S
Co739 O749 1.976 1_455 S
Co740 O741 2.092 . S
Co740 O743 2.082 1_454 S
Co740 O750 2.108 1_455 S
Co740 O751 2.146 . S
Co740 O755 2.114 1_554 S
Co740 O769 2.141 1_454 S
O741 Co738 2.042 1_554 S
O741 Co739 2.122 . S
O741 Co740 2.092 . S
O741 H742 0.980 . S
H742 O741 0.980 . S
O743 Co740 2.082 1_656 S
O743 Co744 2.042 1_556 S
O743 Co745 2.122 . S
O743 H746 0.980 . S
Co744 O743 2.042 1_554 S
Co744 O752 2.286 . S
Co744 O753 2.069 . S
Co744 O754 2.015 1_655 S
Co744 O757 2.264 1_554 S
Co745 O743 2.122 . S
Co745 O756 1.976 1_655 S
Co745 O757 2.327 . S
Co745 O758 2.073 . S
H746 O743 0.980 . S
O747 Co739 2.073 . S
O747 C762 1.245 . S
O748 Co738 2.264 1_554 S
O748 Co739 2.327 . S
O748 C762 1.257 . S
O749 Co739 1.976 1_655 S
O749 C761 1.251 . S
O750 Co740 2.108 1_655 S
O750 C761 1.274 . S
O751 Co740 2.146 . S
O751 C764 1.246 . S
O752 Co744 2.286 . S
O752 C763 1.259 . S
O753 Co744 2.069 . S
O753 C763 1.289 . S
O754 Co744 2.015 1_455 S
O754 C764 1.257 . S
O755 Co740 2.114 1_556 S
O755 C765 1.274 . S
O756 Co745 1.976 1_455 S
O756 C765 1.251 . S
O757 Co744 2.264 1_556 S
O757 Co745 2.327 . S
O757 C766 1.257 . S
O758 Co745 2.073 . S
O758 C766 1.245 . S
C759 O767 1.259 . S
C759 O768 1.289 . S
C760 O769 1.246 . S
C760 O770 1.257 . S
C761 O749 1.251 . S
C761 O750 1.274 . S
C762 O747 1.245 . S
C762 O748 1.257 . S
C763 O752 1.259 . S
C763 O753 1.289 . S
C764 O751 1.246 . S
C764 O754 1.257 . S
C765 O755 1.274 . S
C765 O756 1.251 . S
C766 O757 1.257 . S
C766 O758 1.245 . S
O767 Co738 2.286 . S
O767 C759 1.259 . S
O768 Co738 2.069 . S
O768 C759 1.289 . S
O769 Co740 2.141 1_656 S
O769 C760 1.246 . S
O770 Co738 2.015 1_655 S
O770 C760 1.257 . S
Co771 O774 2.042 1_556 S
Co771 O781 2.264 1_556 S
Co771 O800 2.286 . S
Co771 O801 2.069 . S
Co771 O803 2.015 . S
Co772 O774 2.122 . S
Co772 O780 2.073 . S
Co772 O781 2.327 . S
Co772 O782 1.976 . S
Co773 O774 2.087 . S
Co773 O776 2.087 1_554 S
Co773 O783 2.111 . S
Co773 O784 2.143 . S
Co773 O788 2.111 1_554 S
Co773 O802 2.143 1_554 S
O774 Co771 2.042 1_554 S
O774 Co772 2.122 . S
O774 Co773 2.087 . S
O774 H775 0.980 . S
H775 O774 0.980 . S
O776 Co773 2.087 1_556 S
O776 Co777 2.042 1_556 S
O776 Co778 2.122 . S
O776 H779 0.980 . S
Co777 O776 2.042 1_554 S
Co777 O785 2.286 . S
Co777 O786 2.069 . S
Co777 O787 2.015 . S
Co777 O790 2.264 1_554 S
Co778 O776 2.122 . S
Co778 O789 1.976 . S
Co778 O790 2.327 . S
Co778 O791 2.073 . S
H779 O776 0.980 . S
O780 Co772 2.073 . S
O780 C795 1.245 . S
O781 Co771 2.264 1_554 S
O781 Co772 2.327 . S
O781 C795 1.257 . S
O782 Co772 1.976 . S
O782 C794 1.251 . S
O783 Co773 2.111 . S
O783 C794 1.274 . S
O784 Co773 2.143 . S
O784 C797 1.246 . S
O785 Co777 2.286 . S
O785 C796 1.259 . S
O786 Co777 2.069 . S
O786 C796 1.289 . S
O787 Co777 2.015 . S
O787 C797 1.257 . S
O788 Co773 2.111 1_556 S
O788 C798 1.274 . S
O789 Co778 1.976 . S
O789 C798 1.251 . S
O790 Co777 2.264 1_556 S
O790 Co778 2.327 . S
O790 C799 1.257 . S
O791 Co778 2.073 . S
O791 C799 1.245 . S
C792 O800 1.259 . S
C792 O801 1.289 . S
C793 O802 1.246 . S
C793 O803 1.257 . S
C794 O782 1.251 . S
C794 O783 1.274 . S
C795 O780 1.245 . S
C795 O781 1.257 . S
C796 O785 1.259 . S
C796 O786 1.289 . S
C797 O784 1.246 . S
C797 O787 1.257 . S
C798 O788 1.274 . S
C798 O789 1.251 . S
C799 O790 1.257 . S
C799 O791 1.245 . S
O800 Co771 2.286 . S
O800 C792 1.259 . S
O801 Co771 2.069 . S
O801 C792 1.289 . S
O802 Co773 2.143 1_556 S
O802 C793 1.246 . S
O803 Co771 2.015 . S
O803 C793 1.257 . S
Co804 O807 2.042 . S
Co804 O814 2.264 . S
Co804 O833 2.286 . S
Co804 O834 2.069 . S
Co804 O836 2.015 . S
Co805 O807 2.122 . S
Co805 O813 2.073 . S
Co805 O814 2.327 . S
Co805 O815 1.976 . S
Co806 O807 2.092 . S
Co806 O809 2.082 1_455 S
Co806 O816 2.113 . S
Co806 O817 2.140 1_455 S
Co806 O821 2.110 1_455 S
Co806 O835 2.147 . S
O807 Co804 2.042 . S
O807 Co805 2.122 . S
O807 Co806 2.092 . S
O807 H808 0.980 . S
H808 O807 0.980 . S
O809 Co806 2.082 1_655 S
O809 Co810 2.042 . S
O809 Co811 2.122 . S
O809 H812 0.980 . S
Co810 O809 2.042 . S
Co810 O818 2.286 . S
Co810 O819 2.069 . S
Co810 O820 2.015 . S
Co810 O823 2.264 . S
Co811 O809 2.122 . S
Co811 O822 1.976 . S
Co811 O823 2.327 . S
Co811 O824 2.073 . S
H812 O809 0.980 . S
O813 Co805 2.073 . S
O813 C828 1.245 . S
O814 Co804 2.264 . S
O814 Co805 2.327 . S
O814 C828 1.257 . S
O815 Co805 1.976 . S
O815 C827 1.251 . S
O816 Co806 2.113 . S
O816 C827 1.274 . S
O817 Co806 2.140 1_655 S
O817 C830 1.246 . S
O818 Co810 2.286 . S
O818 C829 1.259 . S
O819 Co810 2.069 . S
O819 C829 1.289 . S
O820 Co810 2.015 . S
O820 C830 1.257 . S
O821 Co806 2.110 1_655 S
O821 C831 1.274 . S
O822 Co811 1.976 . S
O822 C831 1.251 . S
O823 Co810 2.264 . S
O823 Co811 2.327 . S
O823 C832 1.257 . S
O824 Co811 2.073 . S
O824 C832 1.245 . S
C825 O833 1.259 . S
C825 O834 1.289 . S
C826 O835 1.246 . S
C826 O836 1.257 . S
C827 O815 1.251 . S
C827 O816 1.274 . S
C828 O813 1.245 . S
C828 O814 1.257 . S
C829 O818 1.259 . S
C829 O819 1.289 . S
C830 O817 1.246 . S
C830 O820 1.257 . S
C831 O821 1.274 . S
C831 O822 1.251 . S
C832 O823 1.257 . S
C832 O824 1.245 . S
O833 Co804 2.286 . S
O833 C825 1.259 . S
O834 Co804 2.069 . S
O834 C825 1.289 . S
O835 Co806 2.147 . S
O835 C826 1.246 . S
O836 Co804 2.015 . S
O836 C826 1.257 . S
Co837 O840 2.042 . S
Co837 O847 2.264 . S
Co837 O866 2.286 . S
Co837 O867 2.069 . S
Co837 O869 2.015 1_565 S
Co838 O840 2.122 . S
Co838 O846 2.073 . S
Co838 O847 2.327 . S
Co838 O848 1.976 1_565 S
Co839 O840 2.079 1_545 S
Co839 O842 2.095 . S
Co839 O849 2.117 . S
Co839 O850 2.140 1_545 S
Co839 O854 2.106 1_545 S
Co839 O868 2.147 . S
O840 Co837 2.042 . S
O840 Co838 2.122 . S
O840 Co839 2.079 1_565 S
O840 H841 0.980 . S
H841 O840 0.980 . S
O842 Co839 2.095 . S
O842 Co843 2.042 . S
O842 Co844 2.122 . S
O842 H845 0.980 . S
Co843 O842 2.042 . S
Co843 O851 2.286 . S
Co843 O852 2.069 . S
Co843 O853 2.015 1_545 S
Co843 O856 2.264 . S
Co844 O842 2.122 . S
Co844 O855 1.976 1_545 S
Co844 O856 2.327 . S
Co844 O857 2.073 . S
H845 O842 0.980 . S
O846 Co838 2.073 . S
O846 C861 1.245 . S
O847 Co837 2.264 . S
O847 Co838 2.327 . S
O847 C861 1.257 . S
O848 Co838 1.976 1_545 S
O848 C860 1.251 . S
O849 Co839 2.117 . S
O849 C860 1.274 . S
O850 Co839 2.140 1_565 S
O850 C863 1.246 . S
O851 Co843 2.286 . S
O851 C862 1.259 . S
O852 Co843 2.069 . S
O852 C862 1.289 . S
O853 Co843 2.015 1_565 S
O853 C863 1.257 . S
O854 Co839 2.106 1_565 S
O854 C864 1.274 . S
O855 Co844 1.976 1_565 S
O855 C864 1.251 . S
O856 Co843 2.264 . S
O856 Co844 2.327 . S
O856 C865 1.257 . S
O857 Co844 2.073 . S
O857 C865 1.245 . S
C858 O866 1.259 . S
C858 O867 1.289 . S
C859 O868 1.246 . S
C859 O869 1.257 . S
C860 O848 1.251 . S
C860 O849 1.274 . S
C861 O846 1.245 . S
C861 O847 1.257 . S
C862 O851 1.259 . S
C862 O852 1.289 . S
C863 O850 1.246 . S
C863 O853 1.257 . S
C864 O854 1.274 . S
C864 O855 1.251 . S
C865 O856 1.257 . S
C865 O857 1.245 . S
O866 Co837 2.286 . S
O866 C858 1.259 . S
O867 Co837 2.069 . S
O867 C858 1.289 . S
O868 Co839 2.147 . S
O868 C859 1.246 . S
O869 Co837 2.015 1_545 S
O869 C859 1.257 . S
H870 C878 0.929 . S
H871 C880 0.930 . S
H872 C882 0.930 . S
H873 C885 0.929 . S
H874 C888 0.930 . S
H875 C890 0.960 . S
H876 C890 0.960 . S
H877 C890 0.960 . S
C878 H870 0.929 . S
C878 C879 1.377 . S
C878 C880 1.384 . S
C879 C878 1.377 . S
C879 C885 1.390 . S
C880 H871 0.930 . S
C880 C878 1.384 . S
C880 C881 1.372 . S
C881 C880 1.372 . S
C881 C882 1.400 . S
C881 C886 1.490 . S
C882 H872 0.930 . S
C882 C881 1.400 . S
C882 C885 1.386 . S
H883 C899 0.930 . S
H884 C900 0.931 . S
C885 H873 0.929 . S
C885 C879 1.390 . S
C885 C882 1.386 . S
C886 C881 1.490 . S
C886 C888 1.395 . S
C886 C889 1.403 . S
H887 C893 0.930 . S
C888 H874 0.930 . S
C888 C886 1.395 . S
C888 C891 1.403 . S
C889 C886 1.403 . S
C889 C890 1.524 . S
C889 C893 1.400 . S
C890 H875 0.960 . S
C890 H876 0.960 . S
C890 H877 0.960 . S
C890 C889 1.524 . S
C891 C888 1.403 . S
C891 C892 1.392 . S
C891 C895 1.495 . S
C892 C891 1.392 . S
C892 C893 1.385 . S
C892 C894 1.478 . S
C893 H887 0.930 . S
C893 C889 1.400 . S
C893 C892 1.385 . S
C894 C892 1.478 . S
C894 C896 1.381 . S
C894 C900 1.383 . S
C895 C891 1.495 . S
C895 H901 0.959 . S
C895 H902 0.961 . S
C895 H903 0.960 . S
C896 C894 1.381 . S
C896 C897 1.394 . S
C896 H904 0.930 . S
C897 C896 1.394 . S
C897 C898 1.383 . S
C897 H905 0.929 . S
C898 C897 1.383 . S
C898 C899 1.377 . S
C899 H883 0.930 . S
C899 C898 1.377 . S
C899 C900 1.379 . S
C900 H884 0.931 . S
C900 C894 1.383 . S
C900 C899 1.379 . S
H901 C895 0.959 . S
H902 C895 0.961 . S
H903 C895 0.960 . S
H904 C896 0.930 . S
H905 C897 0.929 . S
H906 C914 0.929 . S
H907 C916 0.930 . S
H908 C918 0.930 . S
H909 C921 0.929 . S
H910 C924 0.930 . S
H911 C926 0.960 . S
H912 C926 0.960 . S
H913 C926 0.960 . S
C914 H906 0.929 . S
C914 C915 1.377 . S
C914 C916 1.384 . S
C915 C914 1.377 . S
C915 C921 1.390 . S
C916 H907 0.930 . S
C916 C914 1.384 . S
C916 C917 1.372 . S
C917 C916 1.372 . S
C917 C918 1.400 . S
C917 C922 1.490 . S
C918 H908 0.930 . S
C918 C917 1.400 . S
C918 C921 1.386 . S
H919 C935 0.930 . S
H920 C936 0.931 . S
C921 H909 0.929 . S
C921 C915 1.390 . S
C921 C918 1.386 . S
C922 C917 1.490 . S
C922 C924 1.395 . S
C922 C925 1.403 . S
H923 C929 0.930 . S
C924 H910 0.930 . S
C924 C922 1.395 . S
C924 C927 1.403 . S
C925 C922 1.403 . S
C925 C926 1.524 . S
C925 C929 1.400 . S
C926 H911 0.960 . S
C926 H912 0.960 . S
C926 H913 0.960 . S
C926 C925 1.524 . S
C927 C924 1.403 . S
C927 C928 1.392 . S
C927 C931 1.495 . S
C928 C927 1.392 . S
C928 C929 1.385 . S
C928 C930 1.478 . S
C929 H923 0.930 . S
C929 C925 1.400 . S
C929 C928 1.385 . S
C930 C928 1.478 . S
C930 C932 1.381 . S
C930 C936 1.383 . S
C931 C927 1.495 . S
C931 H937 0.959 . S
C931 H938 0.961 . S
C931 H939 0.960 . S
C932 C930 1.381 . S
C932 C933 1.394 . S
C932 H940 0.930 . S
C933 C932 1.394 . S
C933 C934 1.383 . S
C933 H941 0.929 . S
C934 C933 1.383 . S
C934 C935 1.377 . S
C935 H919 0.930 . S
C935 C934 1.377 . S
C935 C936 1.379 . S
C936 H920 0.931 . S
C936 C930 1.383 . S
C936 C935 1.379 . S
H937 C931 0.959 . S
H938 C931 0.961 . S
H939 C931 0.960 . S
H940 C932 0.930 . S
H941 C933 0.929 . S
H942 C950 0.929 . S
H943 C952 0.930 . S
H944 C954 0.930 . S
H945 C957 0.929 . S
H946 C960 0.930 . S
H947 C962 0.960 . S
H948 C962 0.960 . S
H949 C962 0.960 . S
C950 H942 0.929 . S
C950 C951 1.377 . S
C950 C952 1.384 . S
C951 C950 1.377 . S
C951 C957 1.390 . S
C952 H943 0.930 . S
C952 C950 1.384 . S
C952 C953 1.372 . S
C953 C952 1.372 . S
C953 C954 1.400 . S
C953 C958 1.490 . S
C954 H944 0.930 . S
C954 C953 1.400 . S
C954 C957 1.386 . S
H955 C971 0.930 . S
H956 C972 0.931 . S
C957 H945 0.929 . S
C957 C951 1.390 . S
C957 C954 1.386 . S
C958 C953 1.490 . S
C958 C960 1.395 . S
C958 C961 1.403 . S
H959 C965 0.930 . S
C960 H946 0.930 . S
C960 C958 1.395 . S
C960 C963 1.403 . S
C961 C958 1.403 . S
C961 C962 1.524 . S
C961 C965 1.400 . S
C962 H947 0.960 . S
C962 H948 0.960 . S
C962 H949 0.960 . S
C962 C961 1.524 . S
C963 C960 1.403 . S
C963 C964 1.392 . S
C963 C967 1.495 . S
C964 C963 1.392 . S
C964 C965 1.385 . S
C964 C966 1.478 . S
C965 H959 0.930 . S
C965 C961 1.400 . S
C965 C964 1.385 . S
C966 C964 1.478 . S
C966 C968 1.381 . S
C966 C972 1.383 . S
C967 C963 1.495 . S
C967 H973 0.959 . S
C967 H974 0.961 . S
C967 H975 0.960 . S
C968 C966 1.381 . S
C968 C969 1.394 . S
C968 H976 0.930 . S
C969 C968 1.394 . S
C969 C970 1.383 . S
C969 H977 0.929 . S
C970 C969 1.383 . S
C970 C971 1.377 . S
C971 H955 0.930 . S
C971 C970 1.377 . S
C971 C972 1.379 . S
C972 H956 0.931 . S
C972 C966 1.383 . S
C972 C971 1.379 . S
H973 C967 0.959 . S
H974 C967 0.961 . S
H975 C967 0.960 . S
H976 C968 0.930 . S
H977 C969 0.929 . S
H978 C986 0.929 . S
H979 C988 0.930 . S
H980 C990 0.930 . S
H981 C993 0.929 . S
H982 C996 0.930 . S
H983 C998 0.960 . S
H984 C998 0.960 . S
H985 C998 0.960 . S
C986 H978 0.929 . S
C986 C987 1.377 . S
C986 C988 1.384 . S
C987 C986 1.377 . S
C987 C993 1.390 . S
C988 H979 0.930 . S
C988 C986 1.384 . S
C988 C989 1.372 . S
C989 C988 1.372 . S
C989 C990 1.400 . S
C989 C994 1.490 . S
C990 H980 0.930 . S
C990 C989 1.400 . S
C990 C993 1.386 . S
H991 C1007 0.930 . S
H992 C1008 0.931 . S
C993 H981 0.929 . S
C993 C987 1.390 . S
C993 C990 1.386 . S
C994 C989 1.490 . S
C994 C996 1.395 . S
C994 C997 1.403 . S
H995 C1001 0.930 . S
C996 H982 0.930 . S
C996 C994 1.395 . S
C996 C999 1.403 . S
C997 C994 1.403 . S
C997 C998 1.524 . S
C997 C1001 1.400 . S
C998 H983 0.960 . S
C998 H984 0.960 . S
C998 H985 0.960 . S
C998 C997 1.524 . S
C999 C996 1.403 . S
C999 C1000 1.392 . S
C999 C1003 1.495 . S
C1000 C999 1.392 . S
C1000 C1001 1.385 . S
C1000 C1002 1.478 . S
C1001 H995 0.930 . S
C1001 C997 1.400 . S
C1001 C1000 1.385 . S
C1002 C1000 1.478 . S
C1002 C1004 1.381 . S
C1002 C1008 1.383 . S
C1003 C999 1.495 . S
C1003 H1009 0.959 . S
C1003 H1010 0.961 . S
C1003 H1011 0.960 . S
C1004 C1002 1.381 . S
C1004 C1005 1.394 . S
C1004 H1012 0.930 . S
C1005 C1004 1.394 . S
C1005 C1006 1.383 . S
C1005 H1013 0.929 . S
C1006 C1005 1.383 . S
C1006 C1007 1.377 . S
C1007 H991 0.930 . S
C1007 C1006 1.377 . S
C1007 C1008 1.379 . S
C1008 H992 0.931 . S
C1008 C1002 1.383 . S
C1008 C1007 1.379 . S
H1009 C1003 0.959 . S
H1010 C1003 0.961 . S
H1011 C1003 0.960 . S
H1012 C1004 0.930 . S
H1013 C1005 0.929 . S
H1014 C1022 0.929 . S
H1015 C1024 0.930 . S
H1016 C1026 0.930 . S
H1017 C1029 0.929 . S
H1018 C1032 0.930 . S
H1019 C1034 0.960 . S
H1020 C1034 0.960 . S
H1021 C1034 0.960 . S
C1022 H1014 0.929 . S
C1022 C1023 1.377 . S
C1022 C1024 1.384 . S
C1023 C1022 1.377 . S
C1023 C1029 1.390 . S
C1024 H1015 0.930 . S
C1024 C1022 1.384 . S
C1024 C1025 1.372 . S
C1025 C1024 1.372 . S
C1025 C1026 1.400 . S
C1025 C1030 1.490 . S
C1026 H1016 0.930 . S
C1026 C1025 1.400 . S
C1026 C1029 1.386 . S
H1027 C1043 0.930 . S
H1028 C1044 0.931 . S
C1029 H1017 0.929 . S
C1029 C1023 1.390 . S
C1029 C1026 1.386 . S
C1030 C1025 1.490 . S
C1030 C1032 1.395 . S
C1030 C1033 1.403 . S
H1031 C1037 0.930 . S
C1032 H1018 0.930 . S
C1032 C1030 1.395 . S
C1032 C1035 1.403 . S
C1033 C1030 1.403 . S
C1033 C1034 1.524 . S
C1033 C1037 1.400 . S
C1034 H1019 0.960 . S
C1034 H1020 0.960 . S
C1034 H1021 0.960 . S
C1034 C1033 1.524 . S
C1035 C1032 1.403 . S
C1035 C1036 1.392 . S
C1035 C1039 1.495 . S
C1036 C1035 1.392 . S
C1036 C1037 1.385 . S
C1036 C1038 1.478 . S
C1037 H1031 0.930 . S
C1037 C1033 1.400 . S
C1037 C1036 1.385 . S
C1038 C1036 1.478 . S
C1038 C1040 1.381 . S
C1038 C1044 1.383 . S
C1039 C1035 1.495 . S
C1039 H1045 0.959 . S
C1039 H1046 0.961 . S
C1039 H1047 0.960 . S
C1040 C1038 1.381 . S
C1040 C1041 1.394 . S
C1040 H1048 0.930 . S
C1041 C1040 1.394 . S
C1041 C1042 1.383 . S
C1041 H1049 0.929 . S
C1042 C1041 1.383 . S
C1042 C1043 1.377 . S
C1043 H1027 0.930 . S
C1043 C1042 1.377 . S
C1043 C1044 1.379 . S
C1044 H1028 0.931 . S
C1044 C1038 1.383 . S
C1044 C1043 1.379 . S
H1045 C1039 0.959 . S
H1046 C1039 0.961 . S
H1047 C1039 0.960 . S
H1048 C1040 0.930 . S
H1049 C1041 0.929 . S
H1050 C1058 0.929 . S
H1051 C1060 0.930 . S
H1052 C1062 0.930 . S
H1053 C1065 0.929 . S
H1054 C1068 0.930 . S
H1055 C1070 0.960 . S
H1056 C1070 0.960 . S
H1057 C1070 0.960 . S
C1058 H1050 0.929 . S
C1058 C1059 1.377 . S
C1058 C1060 1.384 . S
C1059 C1058 1.377 . S
C1059 C1065 1.390 . S
C1060 H1051 0.930 . S
C1060 C1058 1.384 . S
C1060 C1061 1.372 . S
C1061 C1060 1.372 . S
C1061 C1062 1.400 . S
C1061 C1066 1.490 . S
C1062 H1052 0.930 . S
C1062 C1061 1.400 . S
C1062 C1065 1.386 . S
H1063 C1079 0.930 . S
H1064 C1080 0.931 . S
C1065 H1053 0.929 . S
C1065 C1059 1.390 . S
C1065 C1062 1.386 . S
C1066 C1061 1.490 . S
C1066 C1068 1.395 . S
C1066 C1069 1.403 . S
H1067 C1073 0.930 . S
C1068 H1054 0.930 . S
C1068 C1066 1.395 . S
C1068 C1071 1.403 . S
C1069 C1066 1.403 . S
C1069 C1070 1.524 . S
C1069 C1073 1.400 . S
C1070 H1055 0.960 . S
C1070 H1056 0.960 . S
C1070 H1057 0.960 . S
C1070 C1069 1.524 . S
C1071 C1068 1.403 . S
C1071 C1072 1.392 . S
C1071 C1075 1.495 . S
C1072 C1071 1.392 . S
C1072 C1073 1.385 . S
C1072 C1074 1.478 . S
C1073 H1067 0.930 . S
C1073 C1069 1.400 . S
C1073 C1072 1.385 . S
C1074 C1072 1.478 . S
C1074 C1076 1.381 . S
C1074 C1080 1.383 . S
C1075 C1071 1.495 . S
C1075 H1081 0.959 . S
C1075 H1082 0.961 . S
C1075 H1083 0.960 . S
C1076 C1074 1.381 . S
C1076 C1077 1.394 . S
C1076 H1084 0.930 . S
C1077 C1076 1.394 . S
C1077 C1078 1.383 . S
C1077 H1085 0.929 . S
C1078 C1077 1.383 . S
C1078 C1079 1.377 . S
C1079 H1063 0.930 . S
C1079 C1078 1.377 . S
C1079 C1080 1.379 . S
C1080 H1064 0.931 . S
C1080 C1074 1.383 . S
C1080 C1079 1.379 . S
H1081 C1075 0.959 . S
H1082 C1075 0.961 . S
H1083 C1075 0.960 . S
H1084 C1076 0.930 . S
H1085 C1077 0.929 . S
H1086 C1094 0.929 . S
H1087 C1096 0.930 . S
H1088 C1098 0.930 . S
H1089 C1101 0.929 . S
H1090 C1104 0.930 . S
H1091 C1106 0.960 . S
H1092 C1106 0.960 . S
H1093 C1106 0.960 . S
C1094 H1086 0.929 . S
C1094 C1095 1.377 . S
C1094 C1096 1.384 . S
C1095 C1094 1.377 . S
C1095 C1101 1.390 . S
C1096 H1087 0.930 . S
C1096 C1094 1.384 . S
C1096 C1097 1.372 . S
C1097 C1096 1.372 . S
C1097 C1098 1.400 . S
C1097 C1102 1.490 . S
C1098 H1088 0.930 . S
C1098 C1097 1.400 . S
C1098 C1101 1.386 . S
H1099 C1115 0.930 . S
H1100 C1116 0.931 . S
C1101 H1089 0.929 . S
C1101 C1095 1.390 . S
C1101 C1098 1.386 . S
C1102 C1097 1.490 . S
C1102 C1104 1.395 . S
C1102 C1105 1.403 . S
H1103 C1109 0.930 . S
C1104 H1090 0.930 . S
C1104 C1102 1.395 . S
C1104 C1107 1.403 . S
C1105 C1102 1.403 . S
C1105 C1106 1.524 . S
C1105 C1109 1.400 . S
C1106 H1091 0.960 . S
C1106 H1092 0.960 . S
C1106 H1093 0.960 . S
C1106 C1105 1.524 . S
C1107 C1104 1.403 . S
C1107 C1108 1.392 . S
C1107 C1111 1.495 . S
C1108 C1107 1.392 . S
C1108 C1109 1.385 . S
C1108 C1110 1.478 . S
C1109 H1103 0.930 . S
C1109 C1105 1.400 . S
C1109 C1108 1.385 . S
C1110 C1108 1.478 . S
C1110 C1112 1.381 . S
C1110 C1116 1.383 . S
C1111 C1107 1.495 . S
C1111 H1117 0.959 . S
C1111 H1118 0.961 . S
C1111 H1119 0.960 . S
C1112 C1110 1.381 . S
C1112 C1113 1.394 . S
C1112 H1120 0.930 . S
C1113 C1112 1.394 . S
C1113 C1114 1.383 . S
C1113 H1121 0.929 . S
C1114 C1113 1.383 . S
C1114 C1115 1.377 . S
C1115 H1099 0.930 . S
C1115 C1114 1.377 . S
C1115 C1116 1.379 . S
C1116 H1100 0.931 . S
C1116 C1110 1.383 . S
C1116 C1115 1.379 . S
H1117 C1111 0.959 . S
H1118 C1111 0.961 . S
H1119 C1111 0.960 . S
H1120 C1112 0.930 . S
H1121 C1113 0.929 . S
H1122 C1130 0.929 . S
H1123 C1132 0.930 . S
H1124 C1134 0.930 . S
H1125 C1137 0.929 . S
H1126 C1140 0.930 . S
H1127 C1142 0.960 . S
H1128 C1142 0.960 . S
H1129 C1142 0.960 . S
C1130 H1122 0.929 . S
C1130 C1131 1.377 . S
C1130 C1132 1.384 . S
C1131 C1130 1.377 . S
C1131 C1137 1.390 . S
C1132 H1123 0.930 . S
C1132 C1130 1.384 . S
C1132 C1133 1.372 . S
C1133 C1132 1.372 . S
C1133 C1134 1.400 . S
C1133 C1138 1.490 . S
C1134 H1124 0.930 . S
C1134 C1133 1.400 . S
C1134 C1137 1.386 . S
H1135 C1151 0.930 . S
H1136 C1152 0.931 . S
C1137 H1125 0.929 . S
C1137 C1131 1.390 . S
C1137 C1134 1.386 . S
C1138 C1133 1.490 . S
C1138 C1140 1.395 . S
C1138 C1141 1.403 . S
H1139 C1145 0.930 . S
C1140 H1126 0.930 . S
C1140 C1138 1.395 . S
C1140 C1143 1.403 . S
C1141 C1138 1.403 . S
C1141 C1142 1.524 . S
C1141 C1145 1.400 . S
C1142 H1127 0.960 . S
C1142 H1128 0.960 . S
C1142 H1129 0.960 . S
C1142 C1141 1.524 . S
C1143 C1140 1.403 . S
C1143 C1144 1.392 . S
C1143 C1147 1.495 . S
C1144 C1143 1.392 . S
C1144 C1145 1.385 . S
C1144 C1146 1.478 . S
C1145 H1139 0.930 . S
C1145 C1141 1.400 . S
C1145 C1144 1.385 . S
C1146 C1144 1.478 . S
C1146 C1148 1.381 . S
C1146 C1152 1.383 . S
C1147 C1143 1.495 . S
C1147 H1153 0.959 . S
C1147 H1154 0.961 . S
C1147 H1155 0.960 . S
C1148 C1146 1.381 . S
C1148 C1149 1.394 . S
C1148 H1156 0.930 . S
C1149 C1148 1.394 . S
C1149 C1150 1.383 . S
C1149 H1157 0.929 . S
C1150 C1149 1.383 . S
C1150 C1151 1.377 . S
C1151 H1135 0.930 . S
C1151 C1150 1.377 . S
C1151 C1152 1.379 . S
C1152 H1136 0.931 . S
C1152 C1146 1.383 . S
C1152 C1151 1.379 . S
H1153 C1147 0.959 . S
H1154 C1147 0.961 . S
H1155 C1147 0.960 . S
H1156 C1148 0.930 . S
H1157 C1149 0.929 . S
H1158 C1166 0.929 . S
H1159 C1168 0.930 . S
H1160 C1170 0.930 . S
H1161 C1173 0.929 . S
H1162 C1176 0.930 . S
H1163 C1178 0.960 . S
H1164 C1178 0.960 . S
H1165 C1178 0.960 . S
C1166 H1158 0.929 . S
C1166 C1167 1.377 . S
C1166 C1168 1.384 . S
C1167 C1166 1.377 . S
C1167 C1173 1.390 . S
C1168 H1159 0.930 . S
C1168 C1166 1.384 . S
C1168 C1169 1.372 . S
C1169 C1168 1.372 . S
C1169 C1170 1.400 . S
C1169 C1174 1.490 . S
C1170 H1160 0.930 . S
C1170 C1169 1.400 . S
C1170 C1173 1.386 . S
H1171 C1187 0.930 . S
H1172 C1188 0.931 . S
C1173 H1161 0.929 . S
C1173 C1167 1.390 . S
C1173 C1170 1.386 . S
C1174 C1169 1.490 . S
C1174 C1176 1.395 . S
C1174 C1177 1.403 . S
H1175 C1181 0.930 . S
C1176 H1162 0.930 . S
C1176 C1174 1.395 . S
C1176 C1179 1.403 . S
C1177 C1174 1.403 . S
C1177 C1178 1.524 . S
C1177 C1181 1.400 . S
C1178 H1163 0.960 . S
C1178 H1164 0.960 . S
C1178 H1165 0.960 . S
C1178 C1177 1.524 . S
C1179 C1176 1.403 . S
C1179 C1180 1.392 . S
C1179 C1183 1.495 . S
C1180 C1179 1.392 . S
C1180 C1181 1.385 . S
C1180 C1182 1.478 . S
C1181 H1175 0.930 . S
C1181 C1177 1.400 . S
C1181 C1180 1.385 . S
C1182 C1180 1.478 . S
C1182 C1184 1.381 . S
C1182 C1188 1.383 . S
C1183 C1179 1.495 . S
C1183 H1189 0.959 . S
C1183 H1190 0.961 . S
C1183 H1191 0.960 . S
C1184 C1182 1.381 . S
C1184 C1185 1.394 . S
C1184 H1192 0.930 . S
C1185 C1184 1.394 . S
C1185 C1186 1.383 . S
C1185 H1193 0.929 . S
C1186 C1185 1.383 . S
C1186 C1187 1.377 . S
C1187 H1171 0.930 . S
C1187 C1186 1.377 . S
C1187 C1188 1.379 . S
C1188 H1172 0.931 . S
C1188 C1182 1.383 . S
C1188 C1187 1.379 . S
H1189 C1183 0.959 . S
H1190 C1183 0.961 . S
H1191 C1183 0.960 . S
H1192 C1184 0.930 . S
H1193 C1185 0.929 . S
H1194 C1202 0.929 . S
H1195 C1204 0.930 . S
H1196 C1206 0.930 . S
H1197 C1209 0.929 . S
H1198 C1212 0.930 . S
H1199 C1214 0.960 . S
H1200 C1214 0.960 . S
H1201 C1214 0.960 . S
C1202 H1194 0.929 . S
C1202 C1203 1.377 . S
C1202 C1204 1.384 . S
C1203 C1202 1.377 . S
C1203 C1209 1.390 . S
C1204 H1195 0.930 . S
C1204 C1202 1.384 . S
C1204 C1205 1.372 . S
C1205 C1204 1.372 . S
C1205 C1206 1.400 . S
C1205 C1210 1.490 . S
C1206 H1196 0.930 . S
C1206 C1205 1.400 . S
C1206 C1209 1.386 . S
H1207 C1223 0.930 . S
H1208 C1224 0.931 . S
C1209 H1197 0.929 . S
C1209 C1203 1.390 . S
C1209 C1206 1.386 . S
C1210 C1205 1.490 . S
C1210 C1212 1.395 . S
C1210 C1213 1.403 . S
H1211 C1217 0.930 . S
C1212 H1198 0.930 . S
C1212 C1210 1.395 . S
C1212 C1215 1.403 . S
C1213 C1210 1.403 . S
C1213 C1214 1.524 . S
C1213 C1217 1.400 . S
C1214 H1199 0.960 . S
C1214 H1200 0.960 . S
C1214 H1201 0.960 . S
C1214 C1213 1.524 . S
C1215 C1212 1.403 . S
C1215 C1216 1.392 . S
C1215 C1219 1.495 . S
C1216 C1215 1.392 . S
C1216 C1217 1.385 . S
C1216 C1218 1.478 . S
C1217 H1211 0.930 . S
C1217 C1213 1.400 . S
C1217 C1216 1.385 . S
C1218 C1216 1.478 . S
C1218 C1220 1.381 . S
C1218 C1224 1.383 . S
C1219 C1215 1.495 . S
C1219 H1225 0.959 . S
C1219 H1226 0.961 . S
C1219 H1227 0.960 . S
C1220 C1218 1.381 . S
C1220 C1221 1.394 . S
C1220 H1228 0.930 . S
C1221 C1220 1.394 . S
C1221 C1222 1.383 . S
C1221 H1229 0.929 . S
C1222 C1221 1.383 . S
C1222 C1223 1.377 . S
C1223 H1207 0.930 . S
C1223 C1222 1.377 . S
C1223 C1224 1.379 . S
C1224 H1208 0.931 . S
C1224 C1218 1.383 . S
C1224 C1223 1.379 . S
H1225 C1219 0.959 . S
H1226 C1219 0.961 . S
H1227 C1219 0.960 . S
H1228 C1220 0.930 . S
H1229 C1221 0.929 . S
H1230 C1238 0.929 . S
H1231 C1240 0.930 . S
H1232 C1242 0.930 . S
H1233 C1245 0.929 . S
H1234 C1248 0.930 . S
H1235 C1250 0.960 . S
H1236 C1250 0.960 . S
H1237 C1250 0.960 . S
C1238 H1230 0.929 . S
C1238 C1239 1.377 . S
C1238 C1240 1.384 . S
C1239 C1238 1.377 . S
C1239 C1245 1.390 . S
C1240 H1231 0.930 . S
C1240 C1238 1.384 . S
C1240 C1241 1.372 . S
C1241 C1240 1.372 . S
C1241 C1242 1.400 . S
C1241 C1246 1.490 . S
C1242 H1232 0.930 . S
C1242 C1241 1.400 . S
C1242 C1245 1.386 . S
H1243 C1259 0.930 . S
H1244 C1260 0.931 . S
C1245 H1233 0.929 . S
C1245 C1239 1.390 . S
C1245 C1242 1.386 . S
C1246 C1241 1.490 . S
C1246 C1248 1.395 . S
C1246 C1249 1.403 . S
H1247 C1253 0.930 . S
C1248 H1234 0.930 . S
C1248 C1246 1.395 . S
C1248 C1251 1.403 . S
C1249 C1246 1.403 . S
C1249 C1250 1.524 . S
C1249 C1253 1.400 . S
C1250 H1235 0.960 . S
C1250 H1236 0.960 . S
C1250 H1237 0.960 . S
C1250 C1249 1.524 . S
C1251 C1248 1.403 . S
C1251 C1252 1.392 . S
C1251 C1255 1.495 . S
C1252 C1251 1.392 . S
C1252 C1253 1.385 . S
C1252 C1254 1.478 . S
C1253 H1247 0.930 . S
C1253 C1249 1.400 . S
C1253 C1252 1.385 . S
C1254 C1252 1.478 . S
C1254 C1256 1.381 . S
C1254 C1260 1.383 . S
C1255 C1251 1.495 . S
C1255 H1261 0.959 . S
C1255 H1262 0.961 . S
C1255 H1263 0.960 . S
C1256 C1254 1.381 . S
C1256 C1257 1.394 . S
C1256 H1264 0.930 . S
C1257 C1256 1.394 . S
C1257 C1258 1.383 . S
C1257 H1265 0.929 1_554 S
C1258 C1257 1.383 . S
C1258 C1259 1.377 . S
C1259 H1243 0.930 . S
C1259 C1258 1.377 . S
C1259 C1260 1.379 . S
C1260 H1244 0.931 . S
C1260 C1254 1.383 . S
C1260 C1259 1.379 . S
H1261 C1255 0.959 . S
H1262 C1255 0.961 . S
H1263 C1255 0.960 . S
H1264 C1256 0.930 . S
H1265 C1257 0.929 1_556 S
H1266 C1274 0.929 . S
H1267 C1276 0.930 . S
H1268 C1278 0.930 . S
H1269 C1281 0.929 . S
H1270 C1284 0.930 . S
H1271 C1286 0.960 . S
H1272 C1286 0.960 . S
H1273 C1286 0.960 . S
C1274 H1266 0.929 . S
C1274 C1275 1.377 . S
C1274 C1276 1.384 . S
C1275 C1274 1.377 . S
C1275 C1281 1.390 . S
C1276 H1267 0.930 . S
C1276 C1274 1.384 . S
C1276 C1277 1.372 . S
C1277 C1276 1.372 . S
C1277 C1278 1.400 . S
C1277 C1282 1.490 . S
C1278 H1268 0.930 . S
C1278 C1277 1.400 . S
C1278 C1281 1.386 . S
H1279 C1295 0.930 . S
H1280 C1296 0.931 . S
C1281 H1269 0.929 . S
C1281 C1275 1.390 . S
C1281 C1278 1.386 . S
C1282 C1277 1.490 . S
C1282 C1284 1.395 . S
C1282 C1285 1.403 . S
H1283 C1289 0.930 . S
C1284 H1270 0.930 . S
C1284 C1282 1.395 . S
C1284 C1287 1.403 . S
C1285 C1282 1.403 . S
C1285 C1286 1.524 . S
C1285 C1289 1.400 . S
C1286 H1271 0.960 . S
C1286 H1272 0.960 . S
C1286 H1273 0.960 . S
C1286 C1285 1.524 . S
C1287 C1284 1.403 . S
C1287 C1288 1.392 . S
C1287 C1291 1.495 . S
C1288 C1287 1.392 . S
C1288 C1289 1.385 . S
C1288 C1290 1.478 . S
C1289 H1283 0.930 . S
C1289 C1285 1.400 . S
C1289 C1288 1.385 . S
C1290 C1288 1.478 . S
C1290 C1292 1.381 . S
C1290 C1296 1.383 . S
C1291 C1287 1.495 . S
C1291 H1297 0.959 . S
C1291 H1298 0.961 . S
C1291 H1299 0.960 . S
C1292 C1290 1.381 . S
C1292 C1293 1.394 . S
C1292 H1300 0.930 . S
C1293 C1292 1.394 . S
C1293 C1294 1.383 . S
C1293 H1301 0.929 . S
C1294 C1293 1.383 . S
C1294 C1295 1.377 . S
C1295 H1279 0.930 . S
C1295 C1294 1.377 . S
C1295 C1296 1.379 . S
C1296 H1280 0.931 . S
C1296 C1290 1.383 . S
C1296 C1295 1.379 . S
H1297 C1291 0.959 . S
H1298 C1291 0.961 . S
H1299 C1291 0.960 . S
H1300 C1292 0.930 . S
H1301 C1293 0.929 . S
H1302 C1310 0.929 . S
H1303 C1312 0.930 . S
H1304 C1314 0.930 . S
H1305 C1317 0.929 . S
H1306 C1320 0.930 . S
H1307 C1322 0.960 . S
H1308 C1322 0.960 . S
H1309 C1322 0.960 . S
C1310 H1302 0.929 . S
C1310 C1311 1.377 . S
C1310 C1312 1.384 . S
C1311 C1310 1.377 . S
C1311 C1317 1.390 . S
C1312 H1303 0.930 . S
C1312 C1310 1.384 . S
C1312 C1313 1.372 . S
C1313 C1312 1.372 . S
C1313 C1314 1.400 . S
C1313 C1318 1.490 . S
C1314 H1304 0.930 . S
C1314 C1313 1.400 . S
C1314 C1317 1.386 . S
H1315 C1331 0.930 . S
H1316 C1332 0.931 . S
C1317 H1305 0.929 . S
C1317 C1311 1.390 . S
C1317 C1314 1.386 . S
C1318 C1313 1.490 . S
C1318 C1320 1.395 . S
C1318 C1321 1.403 . S
H1319 C1325 0.930 . S
C1320 H1306 0.930 . S
C1320 C1318 1.395 . S
C1320 C1323 1.403 . S
C1321 C1318 1.403 . S
C1321 C1322 1.524 . S
C1321 C1325 1.400 . S
C1322 H1307 0.960 . S
C1322 H1308 0.960 . S
C1322 H1309 0.960 . S
C1322 C1321 1.524 . S
C1323 C1320 1.403 . S
C1323 C1324 1.392 . S
C1323 C1327 1.495 . S
C1324 C1323 1.392 . S
C1324 C1325 1.385 . S
C1324 C1326 1.478 . S
C1325 H1319 0.930 . S
C1325 C1321 1.400 . S
C1325 C1324 1.385 . S
C1326 C1324 1.478 . S
C1326 C1328 1.381 . S
C1326 C1332 1.383 . S
C1327 C1323 1.495 . S
C1327 H1333 0.959 . S
C1327 H1334 0.961 . S
C1327 H1335 0.960 . S
C1328 C1326 1.381 . S
C1328 C1329 1.394 . S
C1328 H1336 0.930 . S
C1329 C1328 1.394 . S
C1329 C1330 1.383 . S
C1329 H1337 0.929 . S
C1330 C1329 1.383 . S
C1330 C1331 1.377 . S
C1331 H1315 0.930 . S
C1331 C1330 1.377 . S
C1331 C1332 1.379 . S
C1332 H1316 0.931 . S
C1332 C1326 1.383 . S
C1332 C1331 1.379 . S
H1333 C1327 0.959 . S
H1334 C1327 0.961 . S
H1335 C1327 0.960 . S
H1336 C1328 0.930 . S
H1337 C1329 0.929 . S
H1338 C1346 0.929 . S
H1339 C1348 0.930 . S
H1340 C1350 0.930 . S
H1341 C1353 0.929 . S
H1342 C1356 0.930 . S
H1343 C1358 0.960 . S
H1344 C1358 0.960 . S
H1345 C1358 0.960 . S
C1346 H1338 0.929 . S
C1346 C1347 1.377 . S
C1346 C1348 1.384 . S
C1347 C1346 1.377 . S
C1347 C1353 1.390 . S
C1348 H1339 0.930 . S
C1348 C1346 1.384 . S
C1348 C1349 1.372 . S
C1349 C1348 1.372 . S
C1349 C1350 1.400 . S
C1349 C1354 1.490 . S
C1350 H1340 0.930 . S
C1350 C1349 1.400 . S
C1350 C1353 1.386 . S
H1351 C1367 0.930 . S
H1352 C1368 0.931 . S
C1353 H1341 0.929 . S
C1353 C1347 1.390 . S
C1353 C1350 1.386 . S
C1354 C1349 1.490 . S
C1354 C1356 1.395 . S
C1354 C1357 1.403 . S
H1355 C1361 0.930 . S
C1356 H1342 0.930 . S
C1356 C1354 1.395 . S
C1356 C1359 1.403 . S
C1357 C1354 1.403 . S
C1357 C1358 1.524 . S
C1357 C1361 1.400 . S
C1358 H1343 0.960 . S
C1358 H1344 0.960 . S
C1358 H1345 0.960 . S
C1358 C1357 1.524 . S
C1359 C1356 1.403 . S
C1359 C1360 1.392 . S
C1359 C1363 1.495 . S
C1360 C1359 1.392 . S
C1360 C1361 1.385 . S
C1360 C1362 1.478 . S
C1361 H1355 0.930 . S
C1361 C1357 1.400 . S
C1361 C1360 1.385 . S
C1362 C1360 1.478 . S
C1362 C1364 1.381 . S
C1362 C1368 1.383 . S
C1363 C1359 1.495 . S
C1363 H1369 0.959 . S
C1363 H1370 0.961 . S
C1363 H1371 0.960 . S
C1364 C1362 1.381 . S
C1364 C1365 1.394 . S
C1364 H1372 0.930 . S
C1365 C1364 1.394 . S
C1365 C1366 1.383 . S
C1365 H1373 0.929 . S
C1366 C1365 1.383 . S
C1366 C1367 1.377 . S
C1367 H1351 0.930 . S
C1367 C1366 1.377 . S
C1367 C1368 1.379 . S
C1368 H1352 0.931 . S
C1368 C1362 1.383 . S
C1368 C1367 1.379 . S
H1369 C1363 0.959 . S
H1370 C1363 0.961 . S
H1371 C1363 0.960 . S
H1372 C1364 0.930 . S
H1373 C1365 0.929 . S
H1374 C1382 0.929 . S
H1375 C1384 0.930 . S
H1376 C1386 0.930 . S
H1377 C1389 0.929 . S
H1378 C1392 0.930 . S
H1379 C1394 0.960 . S
H1380 C1394 0.960 . S
H1381 C1394 0.960 . S
C1382 H1374 0.929 . S
C1382 C1383 1.377 . S
C1382 C1384 1.384 . S
C1383 C1382 1.377 . S
C1383 C1389 1.390 . S
C1384 H1375 0.930 . S
C1384 C1382 1.384 . S
C1384 C1385 1.372 . S
C1385 C1384 1.372 . S
C1385 C1386 1.400 . S
C1385 C1390 1.490 . S
C1386 H1376 0.930 . S
C1386 C1385 1.400 . S
C1386 C1389 1.386 . S
H1387 C1403 0.930 . S
H1388 C1404 0.931 . S
C1389 H1377 0.929 . S
C1389 C1383 1.390 . S
C1389 C1386 1.386 . S
C1390 C1385 1.490 . S
C1390 C1392 1.395 . S
C1390 C1393 1.403 . S
H1391 C1397 0.930 . S
C1392 H1378 0.930 . S
C1392 C1390 1.395 . S
C1392 C1395 1.403 . S
C1393 C1390 1.403 . S
C1393 C1394 1.524 . S
C1393 C1397 1.400 . S
C1394 H1379 0.960 . S
C1394 H1380 0.960 . S
C1394 H1381 0.960 . S
C1394 C1393 1.524 . S
C1395 C1392 1.403 . S
C1395 C1396 1.392 . S
C1395 C1399 1.495 . S
C1396 C1395 1.392 . S
C1396 C1397 1.385 . S
C1396 C1398 1.478 . S
C1397 H1391 0.930 . S
C1397 C1393 1.400 . S
C1397 C1396 1.385 . S
C1398 C1396 1.478 . S
C1398 C1400 1.381 . S
C1398 C1404 1.383 . S
C1399 C1395 1.495 . S
C1399 H1405 0.959 . S
C1399 H1406 0.961 . S
C1399 H1407 0.960 . S
C1400 C1398 1.381 . S
C1400 C1401 1.394 . S
C1400 H1408 0.930 . S
C1401 C1400 1.394 . S
C1401 C1402 1.383 . S
C1401 H1409 0.929 . S
C1402 C1401 1.383 . S
C1402 C1403 1.377 . S
C1403 H1387 0.930 . S
C1403 C1402 1.377 . S
C1403 C1404 1.379 . S
C1404 H1388 0.931 . S
C1404 C1398 1.383 . S
C1404 C1403 1.379 . S
H1405 C1399 0.959 . S
H1406 C1399 0.961 . S
H1407 C1399 0.960 . S
H1408 C1400 0.930 . S
H1409 C1401 0.929 . S
H1410 C1418 0.929 . S
H1411 C1420 0.930 . S
H1412 C1422 0.930 . S
H1413 C1425 0.929 . S
H1414 C1428 0.930 . S
H1415 C1430 0.960 . S
H1416 C1430 0.960 . S
H1417 C1430 0.960 . S
C1418 H1410 0.929 . S
C1418 C1419 1.377 . S
C1418 C1420 1.384 . S
C1419 C1418 1.377 . S
C1419 C1425 1.390 . S
C1420 H1411 0.930 . S
C1420 C1418 1.384 . S
C1420 C1421 1.372 . S
C1421 C1420 1.372 . S
C1421 C1422 1.400 . S
C1421 C1426 1.490 . S
C1422 H1412 0.930 . S
C1422 C1421 1.400 . S
C1422 C1425 1.386 . S
H1423 C1439 0.930 . S
H1424 C1440 0.931 . S
C1425 H1413 0.929 . S
C1425 C1419 1.390 . S
C1425 C1422 1.386 . S
C1426 C1421 1.490 . S
C1426 C1428 1.395 . S
C1426 C1429 1.403 . S
H1427 C1433 0.930 . S
C1428 H1414 0.930 . S
C1428 C1426 1.395 . S
C1428 C1431 1.403 . S
C1429 C1426 1.403 . S
C1429 C1430 1.524 . S
C1429 C1433 1.400 . S
C1430 H1415 0.960 . S
C1430 H1416 0.960 . S
C1430 H1417 0.960 . S
C1430 C1429 1.524 . S
C1431 C1428 1.403 . S
C1431 C1432 1.392 . S
C1431 C1435 1.495 . S
C1432 C1431 1.392 . S
C1432 C1433 1.385 . S
C1432 C1434 1.478 . S
C1433 H1427 0.930 . S
C1433 C1429 1.400 . S
C1433 C1432 1.385 . S
C1434 C1432 1.478 . S
C1434 C1436 1.381 . S
C1434 C1440 1.383 . S
C1435 C1431 1.495 . S
C1435 H1441 0.959 . S
C1435 H1442 0.961 . S
C1435 H1443 0.960 . S
C1436 C1434 1.381 . S
C1436 C1437 1.394 . S
C1436 H1444 0.930 . S
C1437 C1436 1.394 . S
C1437 C1438 1.383 . S
C1437 H1445 0.929 . S
C1438 C1437 1.383 . S
C1438 C1439 1.377 . S
C1439 H1423 0.930 . S
C1439 C1438 1.377 . S
C1439 C1440 1.379 . S
C1440 H1424 0.931 . S
C1440 C1434 1.383 . S
C1440 C1439 1.379 . S
H1441 C1435 0.959 . S
H1442 C1435 0.961 . S
H1443 C1435 0.960 . S
H1444 C1436 0.930 . S
H1445 C1437 0.929 . S
H1446 C1454 0.929 . S
H1447 C1456 0.930 . S
H1448 C1458 0.930 . S
H1449 C1461 0.929 . S
H1450 C1464 0.930 . S
H1451 C1466 0.960 . S
H1452 C1466 0.960 . S
H1453 C1466 0.960 . S
C1454 H1446 0.929 . S
C1454 C1455 1.377 . S
C1454 C1456 1.384 . S
C1455 C1454 1.377 . S
C1455 C1461 1.390 . S
C1456 H1447 0.930 . S
C1456 C1454 1.384 . S
C1456 C1457 1.372 . S
C1457 C1456 1.372 . S
C1457 C1458 1.400 . S
C1457 C1462 1.490 . S
C1458 H1448 0.930 . S
C1458 C1457 1.400 . S
C1458 C1461 1.386 . S
H1459 C1475 0.930 . S
H1460 C1476 0.931 . S
C1461 H1449 0.929 . S
C1461 C1455 1.390 . S
C1461 C1458 1.386 . S
C1462 C1457 1.490 . S
C1462 C1464 1.395 . S
C1462 C1465 1.403 . S
H1463 C1469 0.930 . S
C1464 H1450 0.930 . S
C1464 C1462 1.395 . S
C1464 C1467 1.403 . S
C1465 C1462 1.403 . S
C1465 C1466 1.524 . S
C1465 C1469 1.400 . S
C1466 H1451 0.960 . S
C1466 H1452 0.960 . S
C1466 H1453 0.960 . S
C1466 C1465 1.524 . S
C1467 C1464 1.403 . S
C1467 C1468 1.392 . S
C1467 C1471 1.495 . S
C1468 C1467 1.392 . S
C1468 C1469 1.385 . S
C1468 C1470 1.478 . S
C1469 H1463 0.930 . S
C1469 C1465 1.400 . S
C1469 C1468 1.385 . S
C1470 C1468 1.478 . S
C1470 C1472 1.381 . S
C1470 C1476 1.383 . S
C1471 C1467 1.495 . S
C1471 H1477 0.959 . S
C1471 H1478 0.961 . S
C1471 H1479 0.960 . S
C1472 C1470 1.381 . S
C1472 C1473 1.394 . S
C1472 H1480 0.930 . S
C1473 C1472 1.394 . S
C1473 C1474 1.383 . S
C1473 H1481 0.929 . S
C1474 C1473 1.383 . S
C1474 C1475 1.377 . S
C1475 H1459 0.930 . S
C1475 C1474 1.377 . S
C1475 C1476 1.379 . S
C1476 H1460 0.931 . S
C1476 C1470 1.383 . S
C1476 C1475 1.379 . S
H1477 C1471 0.959 . S
H1478 C1471 0.961 . S
H1479 C1471 0.960 . S
H1480 C1472 0.930 . S
H1481 C1473 0.929 . S
H1482 C1490 0.929 . S
H1483 C1492 0.930 . S
H1484 C1494 0.930 . S
H1485 C1497 0.929 . S
H1486 C1500 0.930 . S
H1487 C1502 0.960 . S
H1488 C1502 0.960 . S
H1489 C1502 0.960 . S
C1490 H1482 0.929 . S
C1490 C1491 1.377 . S
C1490 C1492 1.384 . S
C1491 C1490 1.377 . S
C1491 C1497 1.390 . S
C1492 H1483 0.930 . S
C1492 C1490 1.384 . S
C1492 C1493 1.372 . S
C1493 C1492 1.372 . S
C1493 C1494 1.400 . S
C1493 C1498 1.490 . S
C1494 H1484 0.930 . S
C1494 C1493 1.400 . S
C1494 C1497 1.386 . S
H1495 C1511 0.930 . S
H1496 C1512 0.931 . S
C1497 H1485 0.929 . S
C1497 C1491 1.390 . S
C1497 C1494 1.386 . S
C1498 C1493 1.490 . S
C1498 C1500 1.395 . S
C1498 C1501 1.403 . S
H1499 C1505 0.930 . S
C1500 H1486 0.930 . S
C1500 C1498 1.395 . S
C1500 C1503 1.403 . S
C1501 C1498 1.403 . S
C1501 C1502 1.524 . S
C1501 C1505 1.400 . S
C1502 H1487 0.960 . S
C1502 H1488 0.960 . S
C1502 H1489 0.960 . S
C1502 C1501 1.524 . S
C1503 C1500 1.403 . S
C1503 C1504 1.392 . S
C1503 C1507 1.495 . S
C1504 C1503 1.392 . S
C1504 C1505 1.385 . S
C1504 C1506 1.478 . S
C1505 H1499 0.930 . S
C1505 C1501 1.400 . S
C1505 C1504 1.385 . S
C1506 C1504 1.478 . S
C1506 C1508 1.381 . S
C1506 C1512 1.383 . S
C1507 C1503 1.495 . S
C1507 H1513 0.959 . S
C1507 H1514 0.961 . S
C1507 H1515 0.960 . S
C1508 C1506 1.381 . S
C1508 C1509 1.394 . S
C1508 H1516 0.930 . S
C1509 C1508 1.394 . S
C1509 C1510 1.383 . S
C1509 H1517 0.929 . S
C1510 C1509 1.383 . S
C1510 C1511 1.377 . S
C1511 H1495 0.930 . S
C1511 C1510 1.377 . S
C1511 C1512 1.379 . S
C1512 H1496 0.931 . S
C1512 C1506 1.383 . S
C1512 C1511 1.379 . S
H1513 C1507 0.959 . S
H1514 C1507 0.961 . S
H1515 C1507 0.960 . S
H1516 C1508 0.930 . S
H1517 C1509 0.929 . S
H1518 C1526 0.929 . S
H1519 C1528 0.930 . S
H1520 C1530 0.930 . S
H1521 C1533 0.929 . S
H1522 C1536 0.930 . S
H1523 C1538 0.960 . S
H1524 C1538 0.960 . S
H1525 C1538 0.960 . S
C1526 H1518 0.929 . S
C1526 C1527 1.377 . S
C1526 C1528 1.384 . S
C1527 C1526 1.377 . S
C1527 C1533 1.390 . S
C1528 H1519 0.930 . S
C1528 C1526 1.384 . S
C1528 C1529 1.372 . S
C1529 C1528 1.372 . S
C1529 C1530 1.400 . S
C1529 C1534 1.490 . S
C1530 H1520 0.930 . S
C1530 C1529 1.400 . S
C1530 C1533 1.386 . S
H1531 C1547 0.930 . S
H1532 C1548 0.931 . S
C1533 H1521 0.929 . S
C1533 C1527 1.390 . S
C1533 C1530 1.386 . S
C1534 C1529 1.490 . S
C1534 C1536 1.395 . S
C1534 C1537 1.403 . S
H1535 C1541 0.930 . S
C1536 H1522 0.930 . S
C1536 C1534 1.395 . S
C1536 C1539 1.403 . S
C1537 C1534 1.403 . S
C1537 C1538 1.524 . S
C1537 C1541 1.400 . S
C1538 H1523 0.960 . S
C1538 H1524 0.960 . S
C1538 H1525 0.960 . S
C1538 C1537 1.524 . S
C1539 C1536 1.403 . S
C1539 C1540 1.392 . S
C1539 C1543 1.495 . S
C1540 C1539 1.392 . S
C1540 C1541 1.385 . S
C1540 C1542 1.478 . S
C1541 H1535 0.930 . S
C1541 C1537 1.400 . S
C1541 C1540 1.385 . S
C1542 C1540 1.478 . S
C1542 C1544 1.381 . S
C1542 C1548 1.383 . S
C1543 C1539 1.495 . S
C1543 H1549 0.959 . S
C1543 H1550 0.961 . S
C1543 H1551 0.960 . S
C1544 C1542 1.381 . S
C1544 C1545 1.394 . S
C1544 H1552 0.930 . S
C1545 C1544 1.394 . S
C1545 C1546 1.383 . S
C1545 H1553 0.929 1_556 S
C1546 C1545 1.383 . S
C1546 C1547 1.377 . S
C1547 H1531 0.930 . S
C1547 C1546 1.377 . S
C1547 C1548 1.379 . S
C1548 H1532 0.931 . S
C1548 C1542 1.383 . S
C1548 C1547 1.379 . S
H1549 C1543 0.959 . S
H1550 C1543 0.961 . S
H1551 C1543 0.960 . S
H1552 C1544 0.930 . S
H1553 C1545 0.929 1_554 S
H1554 C1562 0.929 . S
H1555 C1564 0.930 . S
H1556 C1566 0.930 . S
H1557 C1569 0.929 . S
H1558 C1572 0.930 . S
H1559 C1574 0.960 . S
H1560 C1574 0.960 . S
H1561 C1574 0.960 . S
C1562 H1554 0.929 . S
C1562 C1563 1.377 . S
C1562 C1564 1.384 . S
C1563 C1562 1.377 . S
C1563 C1569 1.390 . S
C1564 H1555 0.930 . S
C1564 C1562 1.384 . S
C1564 C1565 1.372 . S
C1565 C1564 1.372 . S
C1565 C1566 1.400 . S
C1565 C1570 1.490 . S
C1566 H1556 0.930 . S
C1566 C1565 1.400 . S
C1566 C1569 1.386 . S
H1567 C1583 0.930 . S
H1568 C1584 0.931 . S
C1569 H1557 0.929 . S
C1569 C1563 1.390 . S
C1569 C1566 1.386 . S
C1570 C1565 1.490 . S
C1570 C1572 1.395 . S
C1570 C1573 1.403 . S
H1571 C1577 0.930 . S
C1572 H1558 0.930 . S
C1572 C1570 1.395 . S
C1572 C1575 1.403 . S
C1573 C1570 1.403 . S
C1573 C1574 1.524 . S
C1573 C1577 1.400 . S
C1574 H1559 0.960 . S
C1574 H1560 0.960 . S
C1574 H1561 0.960 . S
C1574 C1573 1.524 . S
C1575 C1572 1.403 . S
C1575 C1576 1.392 . S
C1575 C1579 1.495 . S
C1576 C1575 1.392 . S
C1576 C1577 1.385 . S
C1576 C1578 1.478 . S
C1577 H1571 0.930 . S
C1577 C1573 1.400 . S
C1577 C1576 1.385 . S
C1578 C1576 1.478 . S
C1578 C1580 1.381 . S
C1578 C1584 1.383 . S
C1579 C1575 1.495 . S
C1579 H1585 0.959 . S
C1579 H1586 0.961 . S
C1579 H1587 0.960 . S
C1580 C1578 1.381 . S
C1580 C1581 1.394 . S
C1580 H1588 0.930 . S
C1581 C1580 1.394 . S
C1581 C1582 1.383 . S
C1581 H1589 0.929 . S
C1582 C1581 1.383 . S
C1582 C1583 1.377 . S
C1583 H1567 0.930 . S
C1583 C1582 1.377 . S
C1583 C1584 1.379 . S
C1584 H1568 0.931 . S
C1584 C1578 1.383 . S
C1584 C1583 1.379 . S
H1585 C1579 0.959 . S
H1586 C1579 0.961 . S
H1587 C1579 0.960 . S
H1588 C1580 0.930 . S
H1589 C1581 0.929 . S
H1590 C1598 0.929 . S
H1591 C1600 0.930 . S
H1592 C1602 0.930 . S
H1593 C1605 0.929 . S
H1594 C1608 0.930 . S
H1595 C1610 0.960 . S
H1596 C1610 0.960 . S
H1597 C1610 0.960 . S
C1598 H1590 0.929 . S
C1598 C1599 1.377 . S
C1598 C1600 1.384 . S
C1599 C1598 1.377 . S
C1599 C1605 1.390 . S
C1600 H1591 0.930 . S
C1600 C1598 1.384 . S
C1600 C1601 1.372 . S
C1601 C1600 1.372 . S
C1601 C1602 1.400 . S
C1601 C1606 1.490 . S
C1602 H1592 0.930 . S
C1602 C1601 1.400 . S
C1602 C1605 1.386 . S
H1603 C1619 0.930 . S
H1604 C1620 0.931 . S
C1605 H1593 0.929 . S
C1605 C1599 1.390 . S
C1605 C1602 1.386 . S
C1606 C1601 1.490 . S
C1606 C1608 1.395 . S
C1606 C1609 1.403 . S
H1607 C1613 0.930 . S
C1608 H1594 0.930 . S
C1608 C1606 1.395 . S
C1608 C1611 1.403 . S
C1609 C1606 1.403 . S
C1609 C1610 1.524 . S
C1609 C1613 1.400 . S
C1610 H1595 0.960 . S
C1610 H1596 0.960 . S
C1610 H1597 0.960 . S
C1610 C1609 1.524 . S
C1611 C1608 1.403 . S
C1611 C1612 1.392 . S
C1611 C1615 1.495 . S
C1612 C1611 1.392 . S
C1612 C1613 1.385 . S
C1612 C1614 1.478 . S
C1613 H1607 0.930 . S
C1613 C1609 1.400 . S
C1613 C1612 1.385 . S
C1614 C1612 1.478 . S
C1614 C1616 1.381 . S
C1614 C1620 1.383 . S
C1615 C1611 1.495 . S
C1615 H1621 0.959 . S
C1615 H1622 0.961 . S
C1615 H1623 0.960 . S
C1616 C1614 1.381 . S
C1616 C1617 1.394 . S
C1616 H1624 0.930 . S
C1617 C1616 1.394 . S
C1617 C1618 1.383 . S
C1617 H1625 0.929 . S
C1618 C1617 1.383 . S
C1618 C1619 1.377 . S
C1619 H1603 0.930 . S
C1619 C1618 1.377 . S
C1619 C1620 1.379 . S
C1620 H1604 0.931 . S
C1620 C1614 1.383 . S
C1620 C1619 1.379 . S
H1621 C1615 0.959 . S
H1622 C1615 0.961 . S
H1623 C1615 0.960 . S
H1624 C1616 0.930 . S
H1625 C1617 0.929 . S
H1626 C1634 0.929 . S
H1627 C1636 0.930 . S
H1628 C1638 0.930 . S
H1629 C1641 0.929 . S
H1630 C1644 0.930 . S
H1631 C1646 0.960 . S
H1632 C1646 0.960 . S
H1633 C1646 0.960 . S
C1634 H1626 0.929 . S
C1634 C1635 1.377 . S
C1634 C1636 1.384 . S
C1635 C1634 1.377 . S
C1635 C1641 1.390 . S
C1636 H1627 0.930 . S
C1636 C1634 1.384 . S
C1636 C1637 1.372 . S
C1637 C1636 1.372 . S
C1637 C1638 1.400 . S
C1637 C1642 1.490 . S
C1638 H1628 0.930 . S
C1638 C1637 1.400 . S
C1638 C1641 1.386 . S
H1639 C1655 0.930 . S
H1640 C1656 0.931 . S
C1641 H1629 0.929 . S
C1641 C1635 1.390 . S
C1641 C1638 1.386 . S
C1642 C1637 1.490 . S
C1642 C1644 1.395 . S
C1642 C1645 1.403 . S
H1643 C1649 0.930 . S
C1644 H1630 0.930 . S
C1644 C1642 1.395 . S
C1644 C1647 1.403 . S
C1645 C1642 1.403 . S
C1645 C1646 1.524 . S
C1645 C1649 1.400 . S
C1646 H1631 0.960 . S
C1646 H1632 0.960 . S
C1646 H1633 0.960 . S
C1646 C1645 1.524 . S
C1647 C1644 1.403 . S
C1647 C1648 1.392 . S
C1647 C1651 1.495 . S
C1648 C1647 1.392 . S
C1648 C1649 1.385 . S
C1648 C1650 1.478 . S
C1649 H1643 0.930 . S
C1649 C1645 1.400 . S
C1649 C1648 1.385 . S
C1650 C1648 1.478 . S
C1650 C1652 1.381 . S
C1650 C1656 1.383 . S
C1651 C1647 1.495 . S
C1651 H1657 0.959 . S
C1651 H1658 0.961 . S
C1651 H1659 0.960 . S
C1652 C1650 1.381 . S
C1652 C1653 1.394 . S
C1652 H1660 0.930 . S
C1653 C1652 1.394 . S
C1653 C1654 1.383 . S
C1653 H1661 0.929 . S
C1654 C1653 1.383 . S
C1654 C1655 1.377 . S
C1655 H1639 0.930 . S
C1655 C1654 1.377 . S
C1655 C1656 1.379 . S
C1656 H1640 0.931 . S
C1656 C1650 1.383 . S
C1656 C1655 1.379 . S
H1657 C1651 0.959 . S
H1658 C1651 0.961 . S
H1659 C1651 0.960 . S
H1660 C1652 0.930 . S
H1661 C1653 0.929 . S
H1662 C1670 0.929 . S
H1663 C1672 0.930 . S
H1664 C1674 0.930 . S
H1665 C1677 0.929 . S
H1666 C1680 0.930 . S
H1667 C1682 0.960 . S
H1668 C1682 0.960 . S
H1669 C1682 0.960 . S
C1670 H1662 0.929 . S
C1670 C1671 1.377 . S
C1670 C1672 1.384 . S
C1671 C1670 1.377 . S
C1671 C1677 1.390 . S
C1672 H1663 0.930 . S
C1672 C1670 1.384 . S
C1672 C1673 1.372 . S
C1673 C1672 1.372 . S
C1673 C1674 1.400 . S
C1673 C1678 1.490 . S
C1674 H1664 0.930 . S
C1674 C1673 1.400 . S
C1674 C1677 1.386 . S
H1675 C1691 0.930 . S
H1676 C1692 0.931 . S
C1677 H1665 0.929 . S
C1677 C1671 1.390 . S
C1677 C1674 1.386 . S
C1678 C1673 1.490 . S
C1678 C1680 1.395 . S
C1678 C1681 1.403 . S
H1679 C1685 0.930 . S
C1680 H1666 0.930 . S
C1680 C1678 1.395 . S
C1680 C1683 1.403 . S
C1681 C1678 1.403 . S
C1681 C1682 1.524 . S
C1681 C1685 1.400 . S
C1682 H1667 0.960 . S
C1682 H1668 0.960 . S
C1682 H1669 0.960 . S
C1682 C1681 1.524 . S
C1683 C1680 1.403 . S
C1683 C1684 1.392 . S
C1683 C1687 1.495 . S
C1684 C1683 1.392 . S
C1684 C1685 1.385 . S
C1684 C1686 1.478 . S
C1685 H1679 0.930 . S
C1685 C1681 1.400 . S
C1685 C1684 1.385 . S
C1686 C1684 1.478 . S
C1686 C1688 1.381 . S
C1686 C1692 1.383 . S
C1687 C1683 1.495 . S
C1687 H1693 0.959 . S
C1687 H1694 0.961 . S
C1687 H1695 0.960 . S
C1688 C1686 1.381 . S
C1688 C1689 1.394 . S
C1688 H1696 0.930 . S
C1689 C1688 1.394 . S
C1689 C1690 1.383 . S
C1689 H1697 0.929 . S
C1690 C1689 1.383 . S
C1690 C1691 1.377 . S
C1691 H1675 0.930 . S
C1691 C1690 1.377 . S
C1691 C1692 1.379 . S
C1692 H1676 0.931 . S
C1692 C1686 1.383 . S
C1692 C1691 1.379 . S
H1693 C1687 0.959 . S
H1694 C1687 0.961 . S
H1695 C1687 0.960 . S
H1696 C1688 0.930 . S
H1697 C1689 0.929 . S
H1698 C1706 0.929 . S
H1699 C1708 0.930 . S
H1700 C1710 0.930 . S
H1701 C1713 0.929 . S
H1702 C1716 0.930 . S
H1703 C1718 0.960 . S
H1704 C1718 0.960 . S
H1705 C1718 0.960 . S
C1706 H1698 0.929 . S
C1706 C1707 1.377 . S
C1706 C1708 1.384 . S
C1707 C1706 1.377 . S
C1707 C1713 1.390 . S
C1708 H1699 0.930 . S
C1708 C1706 1.384 . S
C1708 C1709 1.372 . S
C1709 C1708 1.372 . S
C1709 C1710 1.400 . S
C1709 C1714 1.490 . S
C1710 H1700 0.930 . S
C1710 C1709 1.400 . S
C1710 C1713 1.386 . S
H1711 C1727 0.930 . S
H1712 C1728 0.931 . S
C1713 H1701 0.929 . S
C1713 C1707 1.390 . S
C1713 C1710 1.386 . S
C1714 C1709 1.490 . S
C1714 C1716 1.395 . S
C1714 C1717 1.403 . S
H1715 C1721 0.930 . S
C1716 H1702 0.930 . S
C1716 C1714 1.395 . S
C1716 C1719 1.403 . S
C1717 C1714 1.403 . S
C1717 C1718 1.524 . S
C1717 C1721 1.400 . S
C1718 H1703 0.960 . S
C1718 H1704 0.960 . S
C1718 H1705 0.960 . S
C1718 C1717 1.524 . S
C1719 C1716 1.403 . S
C1719 C1720 1.392 . S
C1719 C1723 1.495 . S
C1720 C1719 1.392 . S
C1720 C1721 1.385 . S
C1720 C1722 1.478 . S
C1721 H1715 0.930 . S
C1721 C1717 1.400 . S
C1721 C1720 1.385 . S
C1722 C1720 1.478 . S
C1722 C1724 1.381 . S
C1722 C1728 1.383 . S
C1723 C1719 1.495 . S
C1723 H1729 0.959 . S
C1723 H1730 0.961 . S
C1723 H1731 0.960 . S
C1724 C1722 1.381 . S
C1724 C1725 1.394 . S
C1724 H1732 0.930 . S
C1725 C1724 1.394 . S
C1725 C1726 1.383 . S
C1725 H1733 0.929 . S
C1726 C1725 1.383 . S
C1726 C1727 1.377 . S
C1727 H1711 0.930 . S
C1727 C1726 1.377 . S
C1727 C1728 1.379 . S
C1728 H1712 0.931 . S
C1728 C1722 1.383 . S
C1728 C1727 1.379 . S
H1729 C1723 0.959 . S
H1730 C1723 0.961 . S
H1731 C1723 0.960 . S
H1732 C1724 0.930 . S
H1733 C1725 0.929 . S
H1734 C1742 0.929 . S
H1735 C1744 0.930 . S
H1736 C1746 0.930 . S
H1737 C1749 0.929 . S
H1738 C1752 0.930 . S
H1739 C1754 0.960 . S
H1740 C1754 0.960 . S
H1741 C1754 0.960 . S
C1742 H1734 0.929 . S
C1742 C1743 1.377 . S
C1742 C1744 1.384 . S
C1743 C1742 1.377 . S
C1743 C1749 1.390 . S
C1744 H1735 0.930 . S
C1744 C1742 1.384 . S
C1744 C1745 1.372 . S
C1745 C1744 1.372 . S
C1745 C1746 1.400 . S
C1745 C1750 1.490 . S
C1746 H1736 0.930 . S
C1746 C1745 1.400 . S
C1746 C1749 1.386 . S
H1747 C1763 0.930 . S
H1748 C1764 0.931 . S
C1749 H1737 0.929 . S
C1749 C1743 1.390 . S
C1749 C1746 1.386 . S
C1750 C1745 1.490 . S
C1750 C1752 1.395 . S
C1750 C1753 1.403 . S
H1751 C1757 0.930 . S
C1752 H1738 0.930 . S
C1752 C1750 1.395 . S
C1752 C1755 1.403 . S
C1753 C1750 1.403 . S
C1753 C1754 1.524 . S
C1753 C1757 1.400 . S
C1754 H1739 0.960 . S
C1754 H1740 0.960 . S
C1754 H1741 0.960 . S
C1754 C1753 1.524 . S
C1755 C1752 1.403 . S
C1755 C1756 1.392 . S
C1755 C1759 1.495 . S
C1756 C1755 1.392 . S
C1756 C1757 1.385 . S
C1756 C1758 1.478 . S
C1757 H1751 0.930 . S
C1757 C1753 1.400 . S
C1757 C1756 1.385 . S
C1758 C1756 1.478 . S
C1758 C1760 1.381 . S
C1758 C1764 1.383 . S
C1759 C1755 1.495 . S
C1759 H1765 0.959 . S
C1759 H1766 0.961 . S
C1759 H1767 0.960 . S
C1760 C1758 1.381 . S
C1760 C1761 1.394 . S
C1760 H1768 0.930 . S
C1761 C1760 1.394 . S
C1761 C1762 1.383 . S
C1761 H1769 0.929 . S
C1762 C1761 1.383 . S
C1762 C1763 1.377 . S
C1763 H1747 0.930 . S
C1763 C1762 1.377 . S
C1763 C1764 1.379 . S
C1764 H1748 0.931 . S
C1764 C1758 1.383 . S
C1764 C1763 1.379 . S
H1765 C1759 0.959 . S
H1766 C1759 0.961 . S
H1767 C1759 0.960 . S
H1768 C1760 0.930 . S
H1769 C1761 0.929 . S
H1770 C1778 0.929 . S
H1771 C1780 0.930 . S
H1772 C1782 0.930 . S
H1773 C1785 0.929 . S
H1774 C1788 0.930 . S
H1775 C1790 0.960 . S
H1776 C1790 0.960 . S
H1777 C1790 0.960 . S
C1778 H1770 0.929 . S
C1778 C1779 1.377 . S
C1778 C1780 1.384 . S
C1779 C1778 1.377 . S
C1779 C1785 1.390 . S
C1780 H1771 0.930 . S
C1780 C1778 1.384 . S
C1780 C1781 1.372 . S
C1781 C1780 1.372 . S
C1781 C1782 1.400 . S
C1781 C1786 1.490 . S
C1782 H1772 0.930 . S
C1782 C1781 1.400 . S
C1782 C1785 1.386 . S
H1783 C1799 0.930 . S
H1784 C1800 0.931 . S
C1785 H1773 0.929 . S
C1785 C1779 1.390 . S
C1785 C1782 1.386 . S
C1786 C1781 1.490 . S
C1786 C1788 1.395 . S
C1786 C1789 1.403 . S
H1787 C1793 0.930 . S
C1788 H1774 0.930 . S
C1788 C1786 1.395 . S
C1788 C1791 1.403 . S
C1789 C1786 1.403 . S
C1789 C1790 1.524 . S
C1789 C1793 1.400 . S
C1790 H1775 0.960 . S
C1790 H1776 0.960 . S
C1790 H1777 0.960 . S
C1790 C1789 1.524 . S
C1791 C1788 1.403 . S
C1791 C1792 1.392 . S
C1791 C1795 1.495 . S
C1792 C1791 1.392 . S
C1792 C1793 1.385 . S
C1792 C1794 1.478 . S
C1793 H1787 0.930 . S
C1793 C1789 1.400 . S
C1793 C1792 1.385 . S
C1794 C1792 1.478 . S
C1794 C1796 1.381 . S
C1794 C1800 1.383 . S
C1795 C1791 1.495 . S
C1795 H1801 0.959 . S
C1795 H1802 0.961 . S
C1795 H1803 0.960 . S
C1796 C1794 1.381 . S
C1796 C1797 1.394 . S
C1796 H1804 0.930 . S
C1797 C1796 1.394 . S
C1797 C1798 1.383 . S
C1797 H1805 0.929 . S
C1798 C1797 1.383 . S
C1798 C1799 1.377 . S
C1799 H1783 0.930 . S
C1799 C1798 1.377 . S
C1799 C1800 1.379 . S
C1800 H1784 0.931 . S
C1800 C1794 1.383 . S
C1800 C1799 1.379 . S
H1801 C1795 0.959 . S
H1802 C1795 0.961 . S
H1803 C1795 0.960 . S
H1804 C1796 0.930 . S
H1805 C1797 0.929 . S
H1806 C1814 0.929 . S
H1807 C1816 0.930 . S
H1808 C1818 0.930 . S
H1809 C1821 0.929 . S
H1810 C1824 0.930 . S
H1811 C1826 0.960 . S
H1812 C1826 0.960 . S
H1813 C1826 0.960 . S
C1814 H1806 0.929 . S
C1814 C1815 1.377 . S
C1814 C1816 1.384 . S
C1815 C1814 1.377 . S
C1815 C1821 1.390 . S
C1816 H1807 0.930 . S
C1816 C1814 1.384 . S
C1816 C1817 1.372 . S
C1817 C1816 1.372 . S
C1817 C1818 1.400 . S
C1817 C1822 1.490 . S
C1818 H1808 0.930 . S
C1818 C1817 1.400 . S
C1818 C1821 1.386 . S
H1819 C1835 0.930 . S
H1820 C1836 0.931 . S
C1821 H1809 0.929 . S
C1821 C1815 1.390 . S
C1821 C1818 1.386 . S
C1822 C1817 1.490 . S
C1822 C1824 1.395 . S
C1822 C1825 1.403 . S
H1823 C1829 0.930 . S
C1824 H1810 0.930 . S
C1824 C1822 1.395 . S
C1824 C1827 1.403 . S
C1825 C1822 1.403 . S
C1825 C1826 1.524 . S
C1825 C1829 1.400 . S
C1826 H1811 0.960 . S
C1826 H1812 0.960 . S
C1826 H1813 0.960 . S
C1826 C1825 1.524 . S
C1827 C1824 1.403 . S
C1827 C1828 1.392 . S
C1827 C1831 1.495 . S
C1828 C1827 1.392 . S
C1828 C1829 1.385 . S
C1828 C1830 1.478 . S
C1829 H1823 0.930 . S
C1829 C1825 1.400 . S
C1829 C1828 1.385 . S
C1830 C1828 1.478 . S
C1830 C1832 1.381 . S
C1830 C1836 1.383 . S
C1831 C1827 1.495 . S
C1831 H1837 0.959 . S
C1831 H1838 0.961 . S
C1831 H1839 0.960 . S
C1832 C1830 1.381 . S
C1832 C1833 1.394 . S
C1832 H1840 0.930 . S
C1833 C1832 1.394 . S
C1833 C1834 1.383 . S
C1833 H1841 0.929 . S
C1834 C1833 1.383 . S
C1834 C1835 1.377 . S
C1835 H1819 0.930 . S
C1835 C1834 1.377 . S
C1835 C1836 1.379 . S
C1836 H1820 0.931 . S
C1836 C1830 1.383 . S
C1836 C1835 1.379 . S
H1837 C1831 0.959 . S
H1838 C1831 0.961 . S
H1839 C1831 0.960 . S
H1840 C1832 0.930 . S
H1841 C1833 0.929 . S
H1842 C1850 0.929 . S
H1843 C1852 0.930 . S
H1844 C1854 0.930 . S
H1845 C1857 0.929 . S
H1846 C1860 0.930 . S
H1847 C1862 0.960 . S
H1848 C1862 0.960 . S
H1849 C1862 0.960 . S
C1850 H1842 0.929 . S
C1850 C1851 1.377 . S
C1850 C1852 1.384 . S
C1851 C1850 1.377 . S
C1851 C1857 1.390 . S
C1852 H1843 0.930 . S
C1852 C1850 1.384 . S
C1852 C1853 1.372 . S
C1853 C1852 1.372 . S
C1853 C1854 1.400 . S
C1853 C1858 1.490 . S
C1854 H1844 0.930 . S
C1854 C1853 1.400 . S
C1854 C1857 1.386 . S
H1855 C1871 0.930 . S
H1856 C1872 0.931 . S
C1857 H1845 0.929 . S
C1857 C1851 1.390 . S
C1857 C1854 1.386 . S
C1858 C1853 1.490 . S
C1858 C1860 1.395 . S
C1858 C1861 1.403 . S
H1859 C1865 0.930 . S
C1860 H1846 0.930 . S
C1860 C1858 1.395 . S
C1860 C1863 1.403 . S
C1861 C1858 1.403 . S
C1861 C1862 1.524 . S
C1861 C1865 1.400 . S
C1862 H1847 0.960 . S
C1862 H1848 0.960 . S
C1862 H1849 0.960 . S
C1862 C1861 1.524 . S
C1863 C1860 1.403 . S
C1863 C1864 1.392 . S
C1863 C1867 1.495 . S
C1864 C1863 1.392 . S
C1864 C1865 1.385 . S
C1864 C1866 1.478 . S
C1865 H1859 0.930 . S
C1865 C1861 1.400 . S
C1865 C1864 1.385 . S
C1866 C1864 1.478 . S
C1866 C1868 1.381 . S
C1866 C1872 1.383 . S
C1867 C1863 1.495 . S
C1867 H1873 0.959 . S
C1867 H1874 0.961 . S
C1867 H1875 0.960 . S
C1868 C1866 1.381 . S
C1868 C1869 1.394 . S
C1868 H1876 0.930 . S
C1869 C1868 1.394 . S
C1869 C1870 1.383 . S
C1869 H1877 0.929 . S
C1870 C1869 1.383 . S
C1870 C1871 1.377 . S
C1871 H1855 0.930 . S
C1871 C1870 1.377 . S
C1871 C1872 1.379 . S
C1872 H1856 0.931 . S
C1872 C1866 1.383 . S
C1872 C1871 1.379 . S
H1873 C1867 0.959 . S
H1874 C1867 0.961 . S
H1875 C1867 0.960 . S
H1876 C1868 0.930 . S
H1877 C1869 0.929 . S
H1878 C1886 0.929 . S
H1879 C1888 0.930 . S
H1880 C1890 0.930 . S
H1881 C1893 0.929 . S
H1882 C1896 0.930 . S
H1883 C1898 0.960 . S
H1884 C1898 0.960 . S
H1885 C1898 0.960 . S
C1886 H1878 0.929 . S
C1886 C1887 1.377 . S
C1886 C1888 1.384 . S
C1887 C1886 1.377 . S
C1887 C1893 1.390 . S
C1888 H1879 0.930 . S
C1888 C1886 1.384 . S
C1888 C1889 1.372 . S
C1889 C1888 1.372 . S
C1889 C1890 1.400 . S
C1889 C1894 1.490 . S
C1890 H1880 0.930 . S
C1890 C1889 1.400 . S
C1890 C1893 1.386 . S
H1891 C1907 0.930 . S
H1892 C1908 0.931 . S
C1893 H1881 0.929 . S
C1893 C1887 1.390 . S
C1893 C1890 1.386 . S
C1894 C1889 1.490 . S
C1894 C1896 1.395 . S
C1894 C1897 1.403 . S
H1895 C1901 0.930 . S
C1896 H1882 0.930 . S
C1896 C1894 1.395 . S
C1896 C1899 1.403 . S
C1897 C1894 1.403 . S
C1897 C1898 1.524 . S
C1897 C1901 1.400 . S
C1898 H1883 0.960 . S
C1898 H1884 0.960 . S
C1898 H1885 0.960 . S
C1898 C1897 1.524 . S
C1899 C1896 1.403 . S
C1899 C1900 1.392 . S
C1899 C1903 1.495 . S
C1900 C1899 1.392 . S
C1900 C1901 1.385 . S
C1900 C1902 1.478 . S
C1901 H1895 0.930 . S
C1901 C1897 1.400 . S
C1901 C1900 1.385 . S
C1902 C1900 1.478 . S
C1902 C1904 1.381 . S
C1902 C1908 1.383 . S
C1903 C1899 1.495 . S
C1903 H1909 0.959 . S
C1903 H1910 0.961 . S
C1903 H1911 0.960 . S
C1904 C1902 1.381 . S
C1904 C1905 1.394 . S
C1904 H1912 0.930 . S
C1905 C1904 1.394 . S
C1905 C1906 1.383 . S
C1905 H1913 0.929 . S
C1906 C1905 1.383 . S
C1906 C1907 1.377 . S
C1907 H1891 0.930 . S
C1907 C1906 1.377 . S
C1907 C1908 1.379 . S
C1908 H1892 0.931 . S
C1908 C1902 1.383 . S
C1908 C1907 1.379 . S
H1909 C1903 0.959 . S
H1910 C1903 0.961 . S
H1911 C1903 0.960 . S
H1912 C1904 0.930 . S
H1913 C1905 0.929 . S
H1914 C1922 0.929 . S
H1915 C1924 0.930 . S
H1916 C1926 0.930 . S
H1917 C1929 0.929 . S
H1918 C1932 0.930 . S
H1919 C1934 0.960 . S
H1920 C1934 0.960 . S
H1921 C1934 0.960 . S
C1922 H1914 0.929 . S
C1922 C1923 1.377 . S
C1922 C1924 1.384 . S
C1923 C1922 1.377 . S
C1923 C1929 1.390 . S
C1924 H1915 0.930 . S
C1924 C1922 1.384 . S
C1924 C1925 1.372 . S
C1925 C1924 1.372 . S
C1925 C1926 1.400 . S
C1925 C1930 1.490 . S
C1926 H1916 0.930 . S
C1926 C1925 1.400 . S
C1926 C1929 1.386 . S
H1927 C1943 0.930 . S
H1928 C1944 0.931 . S
C1929 H1917 0.929 . S
C1929 C1923 1.390 . S
C1929 C1926 1.386 . S
C1930 C1925 1.490 . S
C1930 C1932 1.395 . S
C1930 C1933 1.403 . S
H1931 C1937 0.930 . S
C1932 H1918 0.930 . S
C1932 C1930 1.395 . S
C1932 C1935 1.403 . S
C1933 C1930 1.403 . S
C1933 C1934 1.524 . S
C1933 C1937 1.400 . S
C1934 H1919 0.960 . S
C1934 H1920 0.960 . S
C1934 H1921 0.960 . S
C1934 C1933 1.524 . S
C1935 C1932 1.403 . S
C1935 C1936 1.392 . S
C1935 C1939 1.495 . S
C1936 C1935 1.392 . S
C1936 C1937 1.385 . S
C1936 C1938 1.478 . S
C1937 H1931 0.930 . S
C1937 C1933 1.400 . S
C1937 C1936 1.385 . S
C1938 C1936 1.478 . S
C1938 C1940 1.381 . S
C1938 C1944 1.383 . S
C1939 C1935 1.495 . S
C1939 H1945 0.959 . S
C1939 H1946 0.961 . S
C1939 H1947 0.960 . S
C1940 C1938 1.381 . S
C1940 C1941 1.394 . S
C1940 H1948 0.930 . S
C1941 C1940 1.394 . S
C1941 C1942 1.383 . S
C1941 H1949 0.929 . S
C1942 C1941 1.383 . S
C1942 C1943 1.377 . S
C1943 H1927 0.930 . S
C1943 C1942 1.377 . S
C1943 C1944 1.379 . S
C1944 H1928 0.931 . S
C1944 C1938 1.383 . S
C1944 C1943 1.379 . S
H1945 C1939 0.959 . S
H1946 C1939 0.961 . S
H1947 C1939 0.960 . S
H1948 C1940 0.930 . S
H1949 C1941 0.929 . S
H1950 C1958 0.929 . S
H1951 C1960 0.930 . S
H1952 C1962 0.930 . S
H1953 C1965 0.929 . S
H1954 C1968 0.930 . S
H1955 C1970 0.960 . S
H1956 C1970 0.960 . S
H1957 C1970 0.960 . S
C1958 H1950 0.929 . S
C1958 C1959 1.377 . S
C1958 C1960 1.384 . S
C1959 C1958 1.377 . S
C1959 C1965 1.390 . S
C1960 H1951 0.930 . S
C1960 C1958 1.384 . S
C1960 C1961 1.372 . S
C1961 C1960 1.372 . S
C1961 C1962 1.400 . S
C1961 C1966 1.490 . S
C1962 H1952 0.930 . S
C1962 C1961 1.400 . S
C1962 C1965 1.386 . S
H1963 C1979 0.930 . S
H1964 C1980 0.931 . S
C1965 H1953 0.929 . S
C1965 C1959 1.390 . S
C1965 C1962 1.386 . S
C1966 C1961 1.490 . S
C1966 C1968 1.395 . S
C1966 C1969 1.403 . S
H1967 C1973 0.930 . S
C1968 H1954 0.930 . S
C1968 C1966 1.395 . S
C1968 C1971 1.403 . S
C1969 C1966 1.403 . S
C1969 C1970 1.524 . S
C1969 C1973 1.400 . S
C1970 H1955 0.960 . S
C1970 H1956 0.960 . S
C1970 H1957 0.960 . S
C1970 C1969 1.524 . S
C1971 C1968 1.403 . S
C1971 C1972 1.392 . S
C1971 C1975 1.495 . S
C1972 C1971 1.392 . S
C1972 C1973 1.385 . S
C1972 C1974 1.478 . S
C1973 H1967 0.930 . S
C1973 C1969 1.400 . S
C1973 C1972 1.385 . S
C1974 C1972 1.478 . S
C1974 C1976 1.381 . S
C1974 C1980 1.383 . S
C1975 C1971 1.495 . S
C1975 H1981 0.959 . S
C1975 H1982 0.961 . S
C1975 H1983 0.960 . S
C1976 C1974 1.381 . S
C1976 C1977 1.394 . S
C1976 H1984 0.930 . S
C1977 C1976 1.394 . S
C1977 C1978 1.383 . S
C1977 H1985 0.929 . S
C1978 C1977 1.383 . S
C1978 C1979 1.377 . S
C1979 H1963 0.930 . S
C1979 C1978 1.377 . S
C1979 C1980 1.379 . S
C1980 H1964 0.931 . S
C1980 C1974 1.383 . S
C1980 C1979 1.379 . S
H1981 C1975 0.959 . S
H1982 C1975 0.961 . S
H1983 C1975 0.960 . S
H1984 C1976 0.930 . S
H1985 C1977 0.929 . S
H1986 C1994 0.929 . S
H1987 C1996 0.930 . S
H1988 C1998 0.930 . S
H1989 C2001 0.929 . S
H1990 C2004 0.930 . S
H1991 C2006 0.960 . S
H1992 C2006 0.960 . S
H1993 C2006 0.960 . S
C1994 H1986 0.929 . S
C1994 C1995 1.377 . S
C1994 C1996 1.384 . S
C1995 C1994 1.377 . S
C1995 C2001 1.390 . S
C1996 H1987 0.930 . S
C1996 C1994 1.384 . S
C1996 C1997 1.372 . S
C1997 C1996 1.372 . S
C1997 C1998 1.400 . S
C1997 C2002 1.490 . S
C1998 H1988 0.930 . S
C1998 C1997 1.400 . S
C1998 C2001 1.386 . S
H1999 C2015 0.930 . S
H2000 C2016 0.931 . S
C2001 H1989 0.929 . S
C2001 C1995 1.390 . S
C2001 C1998 1.386 . S
C2002 C1997 1.490 . S
C2002 C2004 1.395 . S
C2002 C2005 1.403 . S
H2003 C2009 0.930 . S
C2004 H1990 0.930 . S
C2004 C2002 1.395 . S
C2004 C2007 1.403 . S
C2005 C2002 1.403 . S
C2005 C2006 1.524 . S
C2005 C2009 1.400 . S
C2006 H1991 0.960 . S
C2006 H1992 0.960 . S
C2006 H1993 0.960 . S
C2006 C2005 1.524 . S
C2007 C2004 1.403 . S
C2007 C2008 1.392 . S
C2007 C2011 1.495 . S
C2008 C2007 1.392 . S
C2008 C2009 1.385 . S
C2008 C2010 1.478 . S
C2009 H2003 0.930 . S
C2009 C2005 1.400 . S
C2009 C2008 1.385 . S
C2010 C2008 1.478 . S
C2010 C2012 1.381 . S
C2010 C2016 1.383 . S
C2011 C2007 1.495 . S
C2011 H2017 0.959 . S
C2011 H2018 0.961 . S
C2011 H2019 0.960 . S
C2012 C2010 1.381 . S
C2012 C2013 1.394 . S
C2012 H2020 0.930 . S
C2013 C2012 1.394 . S
C2013 C2014 1.383 . S
C2013 H2021 0.929 . S
C2014 C2013 1.383 . S
C2014 C2015 1.377 . S
C2015 H1999 0.930 . S
C2015 C2014 1.377 . S
C2015 C2016 1.379 . S
C2016 H2000 0.931 . S
C2016 C2010 1.383 . S
C2016 C2015 1.379 . S
H2017 C2011 0.959 . S
H2018 C2011 0.961 . S
H2019 C2011 0.960 . S
H2020 C2012 0.930 . S
H2021 C2013 0.929 . S
H2022 C2030 0.929 . S
H2023 C2032 0.930 . S
H2024 C2034 0.930 . S
H2025 C2037 0.929 . S
H2026 C2040 0.930 . S
H2027 C2042 0.960 . S
H2028 C2042 0.960 . S
H2029 C2042 0.960 . S
C2030 H2022 0.929 . S
C2030 C2031 1.377 . S
C2030 C2032 1.384 . S
C2031 C2030 1.377 . S
C2031 C2037 1.390 . S
C2032 H2023 0.930 . S
C2032 C2030 1.384 . S
C2032 C2033 1.372 . S
C2033 C2032 1.372 . S
C2033 C2034 1.400 . S
C2033 C2038 1.490 . S
C2034 H2024 0.930 . S
C2034 C2033 1.400 . S
C2034 C2037 1.386 . S
H2035 C2051 0.930 . S
H2036 C2052 0.931 . S
C2037 H2025 0.929 . S
C2037 C2031 1.390 . S
C2037 C2034 1.386 . S
C2038 C2033 1.490 . S
C2038 C2040 1.395 . S
C2038 C2041 1.403 . S
H2039 C2045 0.930 . S
C2040 H2026 0.930 . S
C2040 C2038 1.395 . S
C2040 C2043 1.403 . S
C2041 C2038 1.403 . S
C2041 C2042 1.524 . S
C2041 C2045 1.400 . S
C2042 H2027 0.960 . S
C2042 H2028 0.960 . S
C2042 H2029 0.960 . S
C2042 C2041 1.524 . S
C2043 C2040 1.403 . S
C2043 C2044 1.392 . S
C2043 C2047 1.495 . S
C2044 C2043 1.392 . S
C2044 C2045 1.385 . S
C2044 C2046 1.478 . S
C2045 H2039 0.930 . S
C2045 C2041 1.400 . S
C2045 C2044 1.385 . S
C2046 C2044 1.478 . S
C2046 C2048 1.381 . S
C2046 C2052 1.383 . S
C2047 C2043 1.495 . S
C2047 H2053 0.959 . S
C2047 H2054 0.961 . S
C2047 H2055 0.960 . S
C2048 C2046 1.381 . S
C2048 C2049 1.394 . S
C2048 H2056 0.930 . S
C2049 C2048 1.394 . S
C2049 C2050 1.383 . S
C2049 H2057 0.929 . S
C2050 C2049 1.383 . S
C2050 C2051 1.377 . S
C2051 H2035 0.930 . S
C2051 C2050 1.377 . S
C2051 C2052 1.379 . S
C2052 H2036 0.931 . S
C2052 C2046 1.383 . S
C2052 C2051 1.379 . S
H2053 C2047 0.959 . S
H2054 C2047 0.961 . S
H2055 C2047 0.960 . S
H2056 C2048 0.930 . S
H2057 C2049 0.929 . S
H2058 C2066 0.929 . S
H2059 C2068 0.930 . S
H2060 C2070 0.930 . S
H2061 C2073 0.929 . S
H2062 C2076 0.930 . S
H2063 C2078 0.960 . S
H2064 C2078 0.960 . S
H2065 C2078 0.960 . S
C2066 H2058 0.929 . S
C2066 C2067 1.377 . S
C2066 C2068 1.384 . S
C2067 C2066 1.377 . S
C2067 C2073 1.390 . S
C2068 H2059 0.930 . S
C2068 C2066 1.384 . S
C2068 C2069 1.372 . S
C2069 C2068 1.372 . S
C2069 C2070 1.400 . S
C2069 C2074 1.490 . S
C2070 H2060 0.930 . S
C2070 C2069 1.400 . S
C2070 C2073 1.386 . S
H2071 C2087 0.930 . S
H2072 C2088 0.931 . S
C2073 H2061 0.929 . S
C2073 C2067 1.390 . S
C2073 C2070 1.386 . S
C2074 C2069 1.490 . S
C2074 C2076 1.395 . S
C2074 C2077 1.403 . S
H2075 C2081 0.930 . S
C2076 H2062 0.930 . S
C2076 C2074 1.395 . S
C2076 C2079 1.403 . S
C2077 C2074 1.403 . S
C2077 C2078 1.524 . S
C2077 C2081 1.400 . S
C2078 H2063 0.960 . S
C2078 H2064 0.960 . S
C2078 H2065 0.960 . S
C2078 C2077 1.524 . S
C2079 C2076 1.403 . S
C2079 C2080 1.392 . S
C2079 C2083 1.495 . S
C2080 C2079 1.392 . S
C2080 C2081 1.385 . S
C2080 C2082 1.478 . S
C2081 H2075 0.930 . S
C2081 C2077 1.400 . S
C2081 C2080 1.385 . S
C2082 C2080 1.478 . S
C2082 C2084 1.381 . S
C2082 C2088 1.383 . S
C2083 C2079 1.495 . S
C2083 H2089 0.959 . S
C2083 H2090 0.961 . S
C2083 H2091 0.960 . S
C2084 C2082 1.381 . S
C2084 C2085 1.394 . S
C2084 H2092 0.930 . S
C2085 C2084 1.394 . S
C2085 C2086 1.383 . S
C2085 H2093 0.929 . S
C2086 C2085 1.383 . S
C2086 C2087 1.377 . S
C2087 H2071 0.930 . S
C2087 C2086 1.377 . S
C2087 C2088 1.379 . S
C2088 H2072 0.931 . S
C2088 C2082 1.383 . S
C2088 C2087 1.379 . S
H2089 C2083 0.959 . S
H2090 C2083 0.961 . S
H2091 C2083 0.960 . S
H2092 C2084 0.930 . S
H2093 C2085 0.929 . S
H2094 C2102 0.929 . S
H2095 C2104 0.930 . S
H2096 C2106 0.930 . S
H2097 C2109 0.929 . S
H2098 C2112 0.930 . S
H2099 C2114 0.960 . S
H2100 C2114 0.960 . S
H2101 C2114 0.960 . S
C2102 H2094 0.929 . S
C2102 C2103 1.377 . S
C2102 C2104 1.384 . S
C2103 C2102 1.377 . S
C2103 C2109 1.390 . S
C2104 H2095 0.930 . S
C2104 C2102 1.384 . S
C2104 C2105 1.372 . S
C2105 C2104 1.372 . S
C2105 C2106 1.400 . S
C2105 C2110 1.490 . S
C2106 H2096 0.930 . S
C2106 C2105 1.400 . S
C2106 C2109 1.386 . S
H2107 C2123 0.930 . S
H2108 C2124 0.931 . S
C2109 H2097 0.929 . S
C2109 C2103 1.390 . S
C2109 C2106 1.386 . S
C2110 C2105 1.490 . S
C2110 C2112 1.395 . S
C2110 C2113 1.403 . S
H2111 C2117 0.930 . S
C2112 H2098 0.930 . S
C2112 C2110 1.395 . S
C2112 C2115 1.403 . S
C2113 C2110 1.403 . S
C2113 C2114 1.524 . S
C2113 C2117 1.400 . S
C2114 H2099 0.960 . S
C2114 H2100 0.960 . S
C2114 H2101 0.960 . S
C2114 C2113 1.524 . S
C2115 C2112 1.403 . S
C2115 C2116 1.392 . S
C2115 C2119 1.495 . S
C2116 C2115 1.392 . S
C2116 C2117 1.385 . S
C2116 C2118 1.478 . S
C2117 H2111 0.930 . S
C2117 C2113 1.400 . S
C2117 C2116 1.385 . S
C2118 C2116 1.478 . S
C2118 C2120 1.381 . S
C2118 C2124 1.383 . S
C2119 C2115 1.495 . S
C2119 H2125 0.959 . S
C2119 H2126 0.961 . S
C2119 H2127 0.960 . S
C2120 C2118 1.381 . S
C2120 C2121 1.394 . S
C2120 H2128 0.930 . S
C2121 C2120 1.394 . S
C2121 C2122 1.383 . S
C2121 H2129 0.929 . S
C2122 C2121 1.383 . S
C2122 C2123 1.377 . S
C2123 H2107 0.930 . S
C2123 C2122 1.377 . S
C2123 C2124 1.379 . S
C2124 H2108 0.931 . S
C2124 C2118 1.383 . S
C2124 C2123 1.379 . S
H2125 C2119 0.959 . S
H2126 C2119 0.961 . S
H2127 C2119 0.960 . S
H2128 C2120 0.930 . S
H2129 C2121 0.929 . S
H2130 C2138 0.929 . S
H2131 C2140 0.930 . S
H2132 C2142 0.930 . S
H2133 C2145 0.929 . S
H2134 C2148 0.930 . S
H2135 C2150 0.960 . S
H2136 C2150 0.960 . S
H2137 C2150 0.960 . S
C2138 H2130 0.929 . S
C2138 C2139 1.377 . S
C2138 C2140 1.384 . S
C2139 C2138 1.377 . S
C2139 C2145 1.390 . S
C2140 H2131 0.930 . S
C2140 C2138 1.384 . S
C2140 C2141 1.372 . S
C2141 C2140 1.372 . S
C2141 C2142 1.400 . S
C2141 C2146 1.490 . S
C2142 H2132 0.930 . S
C2142 C2141 1.400 . S
C2142 C2145 1.386 . S
H2143 C2159 0.930 . S
H2144 C2160 0.931 . S
C2145 H2133 0.929 . S
C2145 C2139 1.390 . S
C2145 C2142 1.386 . S
C2146 C2141 1.490 . S
C2146 C2148 1.395 . S
C2146 C2149 1.403 . S
H2147 C2153 0.930 . S
C2148 H2134 0.930 . S
C2148 C2146 1.395 . S
C2148 C2151 1.403 . S
C2149 C2146 1.403 . S
C2149 C2150 1.524 . S
C2149 C2153 1.400 . S
C2150 H2135 0.960 . S
C2150 H2136 0.960 . S
C2150 H2137 0.960 . S
C2150 C2149 1.524 . S
C2151 C2148 1.403 . S
C2151 C2152 1.392 . S
C2151 C2155 1.495 . S
C2152 C2151 1.392 . S
C2152 C2153 1.385 . S
C2152 C2154 1.478 . S
C2153 H2147 0.930 . S
C2153 C2149 1.400 . S
C2153 C2152 1.385 . S
C2154 C2152 1.478 . S
C2154 C2156 1.381 . S
C2154 C2160 1.383 . S
C2155 C2151 1.495 . S
C2155 H2161 0.959 . S
C2155 H2162 0.961 . S
C2155 H2163 0.960 . S
C2156 C2154 1.381 . S
C2156 C2157 1.394 . S
C2156 H2164 0.930 . S
C2157 C2156 1.394 . S
C2157 C2158 1.383 . S
C2157 H2165 0.929 . S
C2158 C2157 1.383 . S
C2158 C2159 1.377 . S
C2159 H2143 0.930 . S
C2159 C2158 1.377 . S
C2159 C2160 1.379 . S
C2160 H2144 0.931 . S
C2160 C2154 1.383 . S
C2160 C2159 1.379 . S
H2161 C2155 0.959 . S
H2162 C2155 0.961 . S
H2163 C2155 0.960 . S
H2164 C2156 0.930 . S
H2165 C2157 0.929 . S
H2166 C2174 0.929 . S
H2167 C2176 0.930 . S
H2168 C2178 0.930 . S
H2169 C2181 0.929 . S
H2170 C2184 0.930 . S
H2171 C2186 0.960 . S
H2172 C2186 0.960 . S
H2173 C2186 0.960 . S
C2174 H2166 0.929 . S
C2174 C2175 1.377 . S
C2174 C2176 1.384 . S
C2175 C2174 1.377 . S
C2175 C2181 1.390 . S
C2176 H2167 0.930 . S
C2176 C2174 1.384 . S
C2176 C2177 1.372 . S
C2177 C2176 1.372 . S
C2177 C2178 1.400 . S
C2177 C2182 1.490 . S
C2178 H2168 0.930 . S
C2178 C2177 1.400 . S
C2178 C2181 1.386 . S
H2179 C2195 0.930 . S
H2180 C2196 0.931 . S
C2181 H2169 0.929 . S
C2181 C2175 1.390 . S
C2181 C2178 1.386 . S
C2182 C2177 1.490 . S
C2182 C2184 1.395 . S
C2182 C2185 1.403 . S
H2183 C2189 0.930 . S
C2184 H2170 0.930 . S
C2184 C2182 1.395 . S
C2184 C2187 1.403 . S
C2185 C2182 1.403 . S
C2185 C2186 1.524 . S
C2185 C2189 1.400 . S
C2186 H2171 0.960 . S
C2186 H2172 0.960 . S
C2186 H2173 0.960 . S
C2186 C2185 1.524 . S
C2187 C2184 1.403 . S
C2187 C2188 1.392 . S
C2187 C2191 1.495 . S
C2188 C2187 1.392 . S
C2188 C2189 1.385 . S
C2188 C2190 1.478 . S
C2189 H2183 0.930 . S
C2189 C2185 1.400 . S
C2189 C2188 1.385 . S
C2190 C2188 1.478 . S
C2190 C2192 1.381 . S
C2190 C2196 1.383 . S
C2191 C2187 1.495 . S
C2191 H2197 0.959 . S
C2191 H2198 0.961 . S
C2191 H2199 0.960 . S
C2192 C2190 1.381 . S
C2192 C2193 1.394 . S
C2192 H2200 0.930 . S
C2193 C2192 1.394 . S
C2193 C2194 1.383 . S
C2193 H2201 0.929 . S
C2194 C2193 1.383 . S
C2194 C2195 1.377 . S
C2195 H2179 0.930 . S
C2195 C2194 1.377 . S
C2195 C2196 1.379 . S
C2196 H2180 0.931 . S
C2196 C2190 1.383 . S
C2196 C2195 1.379 . S
H2197 C2191 0.959 . S
H2198 C2191 0.961 . S
H2199 C2191 0.960 . S
H2200 C2192 0.930 . S
H2201 C2193 0.929 . S
H2202 C2210 0.929 . S
H2203 C2212 0.930 . S
H2204 C2214 0.930 . S
H2205 C2217 0.929 . S
H2206 C2220 0.930 . S
H2207 C2222 0.960 . S
H2208 C2222 0.960 . S
H2209 C2222 0.960 . S
C2210 H2202 0.929 . S
C2210 C2211 1.377 . S
C2210 C2212 1.384 . S
C2211 C2210 1.377 . S
C2211 C2217 1.390 . S
C2212 H2203 0.930 . S
C2212 C2210 1.384 . S
C2212 C2213 1.372 . S
C2213 C2212 1.372 . S
C2213 C2214 1.400 . S
C2213 C2218 1.490 . S
C2214 H2204 0.930 . S
C2214 C2213 1.400 . S
C2214 C2217 1.386 . S
H2215 C2231 0.930 . S
H2216 C2232 0.931 . S
C2217 H2205 0.929 . S
C2217 C2211 1.390 . S
C2217 C2214 1.386 . S
C2218 C2213 1.490 . S
C2218 C2220 1.395 . S
C2218 C2221 1.403 . S
H2219 C2225 0.930 . S
C2220 H2206 0.930 . S
C2220 C2218 1.395 . S
C2220 C2223 1.403 . S
C2221 C2218 1.403 . S
C2221 C2222 1.524 . S
C2221 C2225 1.400 . S
C2222 H2207 0.960 . S
C2222 H2208 0.960 . S
C2222 H2209 0.960 . S
C2222 C2221 1.524 . S
C2223 C2220 1.403 . S
C2223 C2224 1.392 . S
C2223 C2227 1.495 . S
C2224 C2223 1.392 . S
C2224 C2225 1.385 . S
C2224 C2226 1.478 . S
C2225 H2219 0.930 . S
C2225 C2221 1.400 . S
C2225 C2224 1.385 . S
C2226 C2224 1.478 . S
C2226 C2228 1.381 . S
C2226 C2232 1.383 . S
C2227 C2223 1.495 . S
C2227 H2233 0.959 . S
C2227 H2234 0.961 . S
C2227 H2235 0.960 . S
C2228 C2226 1.381 . S
C2228 C2229 1.394 . S
C2228 H2236 0.930 . S
C2229 C2228 1.394 . S
C2229 C2230 1.383 . S
C2229 H2237 0.929 . S
C2230 C2229 1.383 . S
C2230 C2231 1.377 . S
C2231 H2215 0.930 . S
C2231 C2230 1.377 . S
C2231 C2232 1.379 . S
C2232 H2216 0.931 . S
C2232 C2226 1.383 . S
C2232 C2231 1.379 . S
H2233 C2227 0.959 . S
H2234 C2227 0.961 . S
H2235 C2227 0.960 . S
H2236 C2228 0.930 . S
H2237 C2229 0.929 . S
H2238 C2246 0.929 . S
H2239 C2248 0.930 . S
H2240 C2250 0.930 . S
H2241 C2253 0.929 . S
H2242 C2256 0.930 . S
H2243 C2258 0.960 . S
H2244 C2258 0.960 . S
H2245 C2258 0.960 . S
C2246 H2238 0.929 . S
C2246 C2247 1.377 . S
C2246 C2248 1.384 . S
C2247 C2246 1.377 . S
C2247 C2253 1.390 . S
C2248 H2239 0.930 . S
C2248 C2246 1.384 . S
C2248 C2249 1.372 . S
C2249 C2248 1.372 . S
C2249 C2250 1.400 . S
C2249 C2254 1.490 . S
C2250 H2240 0.930 . S
C2250 C2249 1.400 . S
C2250 C2253 1.386 . S
H2251 C2267 0.930 . S
H2252 C2268 0.931 . S
C2253 H2241 0.929 . S
C2253 C2247 1.390 . S
C2253 C2250 1.386 . S
C2254 C2249 1.490 . S
C2254 C2256 1.395 . S
C2254 C2257 1.403 . S
H2255 C2261 0.930 . S
C2256 H2242 0.930 . S
C2256 C2254 1.395 . S
C2256 C2259 1.403 . S
C2257 C2254 1.403 . S
C2257 C2258 1.524 . S
C2257 C2261 1.400 . S
C2258 H2243 0.960 . S
C2258 H2244 0.960 . S
C2258 H2245 0.960 . S
C2258 C2257 1.524 . S
C2259 C2256 1.403 . S
C2259 C2260 1.392 . S
C2259 C2263 1.495 . S
C2260 C2259 1.392 . S
C2260 C2261 1.385 . S
C2260 C2262 1.478 . S
C2261 H2255 0.930 . S
C2261 C2257 1.400 . S
C2261 C2260 1.385 . S
C2262 C2260 1.478 . S
C2262 C2264 1.381 . S
C2262 C2268 1.383 . S
C2263 C2259 1.495 . S
C2263 H2269 0.959 . S
C2263 H2270 0.961 . S
C2263 H2271 0.960 . S
C2264 C2262 1.381 . S
C2264 C2265 1.394 . S
C2264 H2272 0.930 . S
C2265 C2264 1.394 . S
C2265 C2266 1.383 . S
C2265 H2273 0.929 . S
C2266 C2265 1.383 . S
C2266 C2267 1.377 . S
C2267 H2251 0.930 . S
C2267 C2266 1.377 . S
C2267 C2268 1.379 . S
C2268 H2252 0.931 . S
C2268 C2262 1.383 . S
C2268 C2267 1.379 . S
H2269 C2263 0.959 . S
H2270 C2263 0.961 . S
H2271 C2263 0.960 . S
H2272 C2264 0.930 . S
H2273 C2265 0.929 . S
H2274 C2282 0.929 . S
H2275 C2284 0.930 . S
H2276 C2286 0.930 . S
H2277 C2289 0.929 . S
H2278 C2292 0.930 . S
H2279 C2294 0.960 . S
H2280 C2294 0.960 . S
H2281 C2294 0.960 . S
C2282 H2274 0.929 . S
C2282 C2283 1.377 . S
C2282 C2284 1.384 . S
C2283 C2282 1.377 . S
C2283 C2289 1.390 . S
C2284 H2275 0.930 . S
C2284 C2282 1.384 . S
C2284 C2285 1.372 . S
C2285 C2284 1.372 . S
C2285 C2286 1.400 . S
C2285 C2290 1.490 . S
C2286 H2276 0.930 . S
C2286 C2285 1.400 . S
C2286 C2289 1.386 . S
H2287 C2303 0.930 . S
H2288 C2304 0.931 . S
C2289 H2277 0.929 . S
C2289 C2283 1.390 . S
C2289 C2286 1.386 . S
C2290 C2285 1.490 . S
C2290 C2292 1.395 . S
C2290 C2293 1.403 . S
H2291 C2297 0.930 . S
C2292 H2278 0.930 . S
C2292 C2290 1.395 . S
C2292 C2295 1.403 . S
C2293 C2290 1.403 . S
C2293 C2294 1.524 . S
C2293 C2297 1.400 . S
C2294 H2279 0.960 . S
C2294 H2280 0.960 . S
C2294 H2281 0.960 . S
C2294 C2293 1.524 . S
C2295 C2292 1.403 . S
C2295 C2296 1.392 . S
C2295 C2299 1.495 . S
C2296 C2295 1.392 . S
C2296 C2297 1.385 . S
C2296 C2298 1.478 . S
C2297 H2291 0.930 . S
C2297 C2293 1.400 . S
C2297 C2296 1.385 . S
C2298 C2296 1.478 . S
C2298 C2300 1.381 . S
C2298 C2304 1.383 . S
C2299 C2295 1.495 . S
C2299 H2305 0.959 . S
C2299 H2306 0.961 . S
C2299 H2307 0.960 . S
C2300 C2298 1.381 . S
C2300 C2301 1.394 . S
C2300 H2308 0.930 . S
C2301 C2300 1.394 . S
C2301 C2302 1.383 . S
C2301 H2309 0.929 . S
C2302 C2301 1.383 . S
C2302 C2303 1.377 . S
C2303 H2287 0.930 . S
C2303 C2302 1.377 . S
C2303 C2304 1.379 . S
C2304 H2288 0.931 . S
C2304 C2298 1.383 . S
C2304 C2303 1.379 . S
H2305 C2299 0.959 . S
H2306 C2299 0.961 . S
H2307 C2299 0.960 . S
H2308 C2300 0.930 . S
H2309 C2301 0.929 . S
H2310 C2318 0.929 . S
H2311 C2320 0.930 . S
H2312 C2322 0.930 . S
H2313 C2325 0.929 . S
H2314 C2328 0.930 . S
H2315 C2330 0.960 . S
H2316 C2330 0.960 . S
H2317 C2330 0.960 . S
C2318 H2310 0.929 . S
C2318 C2319 1.377 . S
C2318 C2320 1.384 . S
C2319 C2318 1.377 . S
C2319 C2325 1.390 . S
C2320 H2311 0.930 . S
C2320 C2318 1.384 . S
C2320 C2321 1.372 . S
C2321 C2320 1.372 . S
C2321 C2322 1.400 . S
C2321 C2326 1.490 . S
C2322 H2312 0.930 . S
C2322 C2321 1.400 . S
C2322 C2325 1.386 . S
H2323 C2339 0.930 . S
H2324 C2340 0.931 . S
C2325 H2313 0.929 . S
C2325 C2319 1.390 . S
C2325 C2322 1.386 . S
C2326 C2321 1.490 . S
C2326 C2328 1.395 . S
C2326 C2329 1.403 . S
H2327 C2333 0.930 . S
C2328 H2314 0.930 . S
C2328 C2326 1.395 . S
C2328 C2331 1.403 . S
C2329 C2326 1.403 . S
C2329 C2330 1.524 . S
C2329 C2333 1.400 . S
C2330 H2315 0.960 . S
C2330 H2316 0.960 . S
C2330 H2317 0.960 . S
C2330 C2329 1.524 . S
C2331 C2328 1.403 . S
C2331 C2332 1.392 . S
C2331 C2335 1.495 . S
C2332 C2331 1.392 . S
C2332 C2333 1.385 . S
C2332 C2334 1.478 . S
C2333 H2327 0.930 . S
C2333 C2329 1.400 . S
C2333 C2332 1.385 . S
C2334 C2332 1.478 . S
C2334 C2336 1.381 . S
C2334 C2340 1.383 . S
C2335 C2331 1.495 . S
C2335 H2341 0.959 . S
C2335 H2342 0.961 . S
C2335 H2343 0.960 . S
C2336 C2334 1.381 . S
C2336 C2337 1.394 . S
C2336 H2344 0.930 . S
C2337 C2336 1.394 . S
C2337 C2338 1.383 . S
C2337 H2345 0.929 . S
C2338 C2337 1.383 . S
C2338 C2339 1.377 . S
C2339 H2323 0.930 . S
C2339 C2338 1.377 . S
C2339 C2340 1.379 . S
C2340 H2324 0.931 . S
C2340 C2334 1.383 . S
C2340 C2339 1.379 . S
H2341 C2335 0.959 . S
H2342 C2335 0.961 . S
H2343 C2335 0.960 . S
H2344 C2336 0.930 . S
H2345 C2337 0.929 . S
H2346 C2354 0.929 . S
H2347 C2356 0.930 . S
H2348 C2358 0.930 . S
H2349 C2361 0.929 . S
H2350 C2364 0.930 . S
H2351 C2366 0.960 . S
H2352 C2366 0.960 . S
H2353 C2366 0.960 . S
C2354 H2346 0.929 . S
C2354 C2355 1.377 . S
C2354 C2356 1.384 . S
C2355 C2354 1.377 . S
C2355 C2361 1.390 . S
C2356 H2347 0.930 . S
C2356 C2354 1.384 . S
C2356 C2357 1.372 . S
C2357 C2356 1.372 . S
C2357 C2358 1.400 . S
C2357 C2362 1.490 . S
C2358 H2348 0.930 . S
C2358 C2357 1.400 . S
C2358 C2361 1.386 . S
H2359 C2375 0.930 . S
H2360 C2376 0.931 . S
C2361 H2349 0.929 . S
C2361 C2355 1.390 . S
C2361 C2358 1.386 . S
C2362 C2357 1.490 . S
C2362 C2364 1.395 . S
C2362 C2365 1.403 . S
H2363 C2369 0.930 . S
C2364 H2350 0.930 . S
C2364 C2362 1.395 . S
C2364 C2367 1.403 . S
C2365 C2362 1.403 . S
C2365 C2366 1.524 . S
C2365 C2369 1.400 . S
C2366 H2351 0.960 . S
C2366 H2352 0.960 . S
C2366 H2353 0.960 . S
C2366 C2365 1.524 . S
C2367 C2364 1.403 . S
C2367 C2368 1.392 . S
C2367 C2371 1.495 . S
C2368 C2367 1.392 . S
C2368 C2369 1.385 . S
C2368 C2370 1.478 . S
C2369 H2363 0.930 . S
C2369 C2365 1.400 . S
C2369 C2368 1.385 . S
C2370 C2368 1.478 . S
C2370 C2372 1.381 . S
C2370 C2376 1.383 . S
C2371 C2367 1.495 . S
C2371 H2377 0.959 . S
C2371 H2378 0.961 . S
C2371 H2379 0.960 . S
C2372 C2370 1.381 . S
C2372 C2373 1.394 . S
C2372 H2380 0.930 . S
C2373 C2372 1.394 . S
C2373 C2374 1.383 . S
C2373 H2381 0.929 . S
C2374 C2373 1.383 . S
C2374 C2375 1.377 . S
C2375 H2359 0.930 . S
C2375 C2374 1.377 . S
C2375 C2376 1.379 . S
C2376 H2360 0.931 . S
C2376 C2370 1.383 . S
C2376 C2375 1.379 . S
H2377 C2371 0.959 . S
H2378 C2371 0.961 . S
H2379 C2371 0.960 . S
H2380 C2372 0.930 . S
H2381 C2373 0.929 . S
H2382 C2390 0.929 . S
H2383 C2392 0.930 . S
H2384 C2394 0.930 . S
H2385 C2397 0.929 . S
H2386 C2400 0.930 . S
H2387 C2402 0.960 . S
H2388 C2402 0.960 . S
H2389 C2402 0.960 . S
C2390 H2382 0.929 . S
C2390 C2391 1.377 . S
C2390 C2392 1.384 . S
C2391 C2390 1.377 . S
C2391 C2397 1.390 . S
C2392 H2383 0.930 . S
C2392 C2390 1.384 . S
C2392 C2393 1.372 . S
C2393 C2392 1.372 . S
C2393 C2394 1.400 . S
C2393 C2398 1.490 . S
C2394 H2384 0.930 . S
C2394 C2393 1.400 . S
C2394 C2397 1.386 . S
H2395 C2411 0.930 . S
H2396 C2412 0.931 . S
C2397 H2385 0.929 . S
C2397 C2391 1.390 . S
C2397 C2394 1.386 . S
C2398 C2393 1.490 . S
C2398 C2400 1.395 . S
C2398 C2401 1.403 . S
H2399 C2405 0.930 . S
C2400 H2386 0.930 . S
C2400 C2398 1.395 . S
C2400 C2403 1.403 . S
C2401 C2398 1.403 . S
C2401 C2402 1.524 . S
C2401 C2405 1.400 . S
C2402 H2387 0.960 . S
C2402 H2388 0.960 . S
C2402 H2389 0.960 . S
C2402 C2401 1.524 . S
C2403 C2400 1.403 . S
C2403 C2404 1.392 . S
C2403 C2407 1.495 . S
C2404 C2403 1.392 . S
C2404 C2405 1.385 . S
C2404 C2406 1.478 . S
C2405 H2399 0.930 . S
C2405 C2401 1.400 . S
C2405 C2404 1.385 . S
C2406 C2404 1.478 . S
C2406 C2408 1.381 . S
C2406 C2412 1.383 . S
C2407 C2403 1.495 . S
C2407 H2413 0.959 . S
C2407 H2414 0.961 . S
C2407 H2415 0.960 . S
C2408 C2406 1.381 . S
C2408 C2409 1.394 . S
C2408 H2416 0.930 . S
C2409 C2408 1.394 . S
C2409 C2410 1.383 . S
C2409 H2417 0.929 . S
C2410 C2409 1.383 . S
C2410 C2411 1.377 . S
C2411 H2395 0.930 . S
C2411 C2410 1.377 . S
C2411 C2412 1.379 . S
C2412 H2396 0.931 . S
C2412 C2406 1.383 . S
C2412 C2411 1.379 . S
H2413 C2407 0.959 . S
H2414 C2407 0.961 . S
H2415 C2407 0.960 . S
H2416 C2408 0.930 . S
H2417 C2409 0.929 . S
H2418 C2426 0.929 . S
H2419 C2428 0.930 . S
H2420 C2430 0.930 . S
H2421 C2433 0.929 . S
H2422 C2436 0.930 . S
H2423 C2438 0.960 . S
H2424 C2438 0.960 . S
H2425 C2438 0.960 . S
C2426 H2418 0.929 . S
C2426 C2427 1.377 . S
C2426 C2428 1.384 . S
C2427 C2426 1.377 . S
C2427 C2433 1.390 . S
C2428 H2419 0.930 . S
C2428 C2426 1.384 . S
C2428 C2429 1.372 . S
C2429 C2428 1.372 . S
C2429 C2430 1.400 . S
C2429 C2434 1.490 . S
C2430 H2420 0.930 . S
C2430 C2429 1.400 . S
C2430 C2433 1.386 . S
H2431 C2447 0.930 . S
H2432 C2448 0.931 . S
C2433 H2421 0.929 . S
C2433 C2427 1.390 . S
C2433 C2430 1.386 . S
C2434 C2429 1.490 . S
C2434 C2436 1.395 . S
C2434 C2437 1.403 . S
H2435 C2441 0.930 . S
C2436 H2422 0.930 . S
C2436 C2434 1.395 . S
C2436 C2439 1.403 . S
C2437 C2434 1.403 . S
C2437 C2438 1.524 . S
C2437 C2441 1.400 . S
C2438 H2423 0.960 . S
C2438 H2424 0.960 . S
C2438 H2425 0.960 . S
C2438 C2437 1.524 . S
C2439 C2436 1.403 . S
C2439 C2440 1.392 . S
C2439 C2443 1.495 . S
C2440 C2439 1.392 . S
C2440 C2441 1.385 . S
C2440 C2442 1.478 . S
C2441 H2435 0.930 . S
C2441 C2437 1.400 . S
C2441 C2440 1.385 . S
C2442 C2440 1.478 . S
C2442 C2444 1.381 . S
C2442 C2448 1.383 . S
C2443 C2439 1.495 . S
C2443 H2449 0.959 . S
C2443 H2450 0.961 . S
C2443 H2451 0.960 . S
C2444 C2442 1.381 . S
C2444 C2445 1.394 . S
C2444 H2452 0.930 . S
C2445 C2444 1.394 . S
C2445 C2446 1.383 . S
C2445 H2453 0.929 . S
C2446 C2445 1.383 . S
C2446 C2447 1.377 . S
C2447 H2431 0.930 . S
C2447 C2446 1.377 . S
C2447 C2448 1.379 . S
C2448 H2432 0.931 . S
C2448 C2442 1.383 . S
C2448 C2447 1.379 . S
H2449 C2443 0.959 . S
H2450 C2443 0.961 . S
H2451 C2443 0.960 . S
H2452 C2444 0.930 . S
H2453 C2445 0.929 . S
H2454 C2462 0.929 . S
H2455 C2464 0.930 . S
H2456 C2466 0.930 . S
H2457 C2469 0.929 . S
H2458 C2472 0.930 . S
H2459 C2474 0.960 . S
H2460 C2474 0.960 . S
H2461 C2474 0.960 . S
C2462 H2454 0.929 . S
C2462 C2463 1.377 . S
C2462 C2464 1.384 . S
C2463 C2462 1.377 . S
C2463 C2469 1.390 . S
C2464 H2455 0.930 . S
C2464 C2462 1.384 . S
C2464 C2465 1.372 . S
C2465 C2464 1.372 . S
C2465 C2466 1.400 . S
C2465 C2470 1.490 . S
C2466 H2456 0.930 . S
C2466 C2465 1.400 . S
C2466 C2469 1.386 . S
H2467 C2483 0.930 . S
H2468 C2484 0.931 . S
C2469 H2457 0.929 . S
C2469 C2463 1.390 . S
C2469 C2466 1.386 . S
C2470 C2465 1.490 . S
C2470 C2472 1.395 . S
C2470 C2473 1.403 . S
H2471 C2477 0.930 . S
C2472 H2458 0.930 . S
C2472 C2470 1.395 . S
C2472 C2475 1.403 . S
C2473 C2470 1.403 . S
C2473 C2474 1.524 . S
C2473 C2477 1.400 . S
C2474 H2459 0.960 . S
C2474 H2460 0.960 . S
C2474 H2461 0.960 . S
C2474 C2473 1.524 . S
C2475 C2472 1.403 . S
C2475 C2476 1.392 . S
C2475 C2479 1.495 . S
C2476 C2475 1.392 . S
C2476 C2477 1.385 . S
C2476 C2478 1.478 . S
C2477 H2471 0.930 . S
C2477 C2473 1.400 . S
C2477 C2476 1.385 . S
C2478 C2476 1.478 . S
C2478 C2480 1.381 . S
C2478 C2484 1.383 . S
C2479 C2475 1.495 . S
C2479 H2485 0.959 . S
C2479 H2486 0.961 . S
C2479 H2487 0.960 . S
C2480 C2478 1.381 . S
C2480 C2481 1.394 . S
C2480 H2488 0.930 . S
C2481 C2480 1.394 . S
C2481 C2482 1.383 . S
C2481 H2489 0.929 . S
C2482 C2481 1.383 . S
C2482 C2483 1.377 . S
C2483 H2467 0.930 . S
C2483 C2482 1.377 . S
C2483 C2484 1.379 . S
C2484 H2468 0.931 . S
C2484 C2478 1.383 . S
C2484 C2483 1.379 . S
H2485 C2479 0.959 . S
H2486 C2479 0.961 . S
H2487 C2479 0.960 . S
H2488 C2480 0.930 . S
H2489 C2481 0.929 . S
H2490 C2498 0.929 . S
H2491 C2500 0.930 . S
H2492 C2502 0.930 . S
H2493 C2505 0.929 . S
H2494 C2508 0.930 . S
H2495 C2510 0.960 . S
H2496 C2510 0.960 . S
H2497 C2510 0.960 . S
C2498 H2490 0.929 . S
C2498 C2499 1.377 . S
C2498 C2500 1.384 . S
C2499 C2498 1.377 . S
C2499 C2505 1.390 . S
C2500 H2491 0.930 . S
C2500 C2498 1.384 . S
C2500 C2501 1.372 . S
C2501 C2500 1.372 . S
C2501 C2502 1.400 . S
C2501 C2506 1.490 . S
C2502 H2492 0.930 . S
C2502 C2501 1.400 . S
C2502 C2505 1.386 . S
H2503 C2519 0.930 . S
H2504 C2520 0.931 . S
C2505 H2493 0.929 . S
C2505 C2499 1.390 . S
C2505 C2502 1.386 . S
C2506 C2501 1.490 . S
C2506 C2508 1.395 . S
C2506 C2509 1.403 . S
H2507 C2513 0.930 . S
C2508 H2494 0.930 . S
C2508 C2506 1.395 . S
C2508 C2511 1.403 . S
C2509 C2506 1.403 . S
C2509 C2510 1.524 . S
C2509 C2513 1.400 . S
C2510 H2495 0.960 . S
C2510 H2496 0.960 . S
C2510 H2497 0.960 . S
C2510 C2509 1.524 . S
C2511 C2508 1.403 . S
C2511 C2512 1.392 . S
C2511 C2515 1.495 . S
C2512 C2511 1.392 . S
C2512 C2513 1.385 . S
C2512 C2514 1.478 . S
C2513 H2507 0.930 . S
C2513 C2509 1.400 . S
C2513 C2512 1.385 . S
C2514 C2512 1.478 . S
C2514 C2516 1.381 . S
C2514 C2520 1.383 . S
C2515 C2511 1.495 . S
C2515 H2521 0.959 . S
C2515 H2522 0.961 . S
C2515 H2523 0.960 . S
C2516 C2514 1.381 . S
C2516 C2517 1.394 . S
C2516 H2524 0.930 . S
C2517 C2516 1.394 . S
C2517 C2518 1.383 . S
C2517 H2525 0.929 . S
C2518 C2517 1.383 . S
C2518 C2519 1.377 . S
C2519 H2503 0.930 . S
C2519 C2518 1.377 . S
C2519 C2520 1.379 . S
C2520 H2504 0.931 . S
C2520 C2514 1.383 . S
C2520 C2519 1.379 . S
H2521 C2515 0.959 . S
H2522 C2515 0.961 . S
H2523 C2515 0.960 . S
H2524 C2516 0.930 . S
H2525 C2517 0.929 . S
H2526 C2534 0.929 . S
H2527 C2536 0.930 . S
H2528 C2538 0.930 . S
H2529 C2541 0.929 . S
H2530 C2544 0.930 . S
H2531 C2546 0.960 . S
H2532 C2546 0.960 . S
H2533 C2546 0.960 . S
C2534 H2526 0.929 . S
C2534 C2535 1.377 . S
C2534 C2536 1.384 . S
C2535 C2534 1.377 . S
C2535 C2541 1.390 . S
C2536 H2527 0.930 . S
C2536 C2534 1.384 . S
C2536 C2537 1.372 . S
C2537 C2536 1.372 . S
C2537 C2538 1.400 . S
C2537 C2542 1.490 . S
C2538 H2528 0.930 . S
C2538 C2537 1.400 . S
C2538 C2541 1.386 . S
H2539 C2555 0.930 . S
H2540 C2556 0.931 . S
C2541 H2529 0.929 . S
C2541 C2535 1.390 . S
C2541 C2538 1.386 . S
C2542 C2537 1.490 . S
C2542 C2544 1.395 . S
C2542 C2545 1.403 . S
H2543 C2549 0.930 . S
C2544 H2530 0.930 . S
C2544 C2542 1.395 . S
C2544 C2547 1.403 . S
C2545 C2542 1.403 . S
C2545 C2546 1.524 . S
C2545 C2549 1.400 . S
C2546 H2531 0.960 . S
C2546 H2532 0.960 . S
C2546 H2533 0.960 . S
C2546 C2545 1.524 . S
C2547 C2544 1.403 . S
C2547 C2548 1.392 . S
C2547 C2551 1.495 . S
C2548 C2547 1.392 . S
C2548 C2549 1.385 . S
C2548 C2550 1.478 . S
C2549 H2543 0.930 . S
C2549 C2545 1.400 . S
C2549 C2548 1.385 . S
C2550 C2548 1.478 . S
C2550 C2552 1.381 . S
C2550 C2556 1.383 . S
C2551 C2547 1.495 . S
C2551 H2557 0.959 . S
C2551 H2558 0.961 . S
C2551 H2559 0.960 . S
C2552 C2550 1.381 . S
C2552 C2553 1.394 . S
C2552 H2560 0.930 . S
C2553 C2552 1.394 . S
C2553 C2554 1.383 . S
C2553 H2561 0.929 . S
C2554 C2553 1.383 . S
C2554 C2555 1.377 . S
C2555 H2539 0.930 . S
C2555 C2554 1.377 . S
C2555 C2556 1.379 . S
C2556 H2540 0.931 . S
C2556 C2550 1.383 . S
C2556 C2555 1.379 . S
H2557 C2551 0.959 . S
H2558 C2551 0.961 . S
H2559 C2551 0.960 . S
H2560 C2552 0.930 . S
H2561 C2553 0.929 . S
H2562 C2570 0.929 . S
H2563 C2572 0.930 . S
H2564 C2574 0.930 . S
H2565 C2577 0.929 . S
H2566 C2580 0.930 . S
H2567 C2582 0.960 . S
H2568 C2582 0.960 . S
H2569 C2582 0.960 . S
C2570 H2562 0.929 . S
C2570 C2571 1.377 . S
C2570 C2572 1.384 . S
C2571 C2570 1.377 . S
C2571 C2577 1.390 . S
C2572 H2563 0.930 . S
C2572 C2570 1.384 . S
C2572 C2573 1.372 . S
C2573 C2572 1.372 . S
C2573 C2574 1.400 . S
C2573 C2578 1.490 . S
C2574 H2564 0.930 . S
C2574 C2573 1.400 . S
C2574 C2577 1.386 . S
H2575 C2591 0.930 . S
H2576 C2592 0.931 . S
C2577 H2565 0.929 . S
C2577 C2571 1.390 . S
C2577 C2574 1.386 . S
C2578 C2573 1.490 . S
C2578 C2580 1.395 . S
C2578 C2581 1.403 . S
H2579 C2585 0.930 . S
C2580 H2566 0.930 . S
C2580 C2578 1.395 . S
C2580 C2583 1.403 . S
C2581 C2578 1.403 . S
C2581 C2582 1.524 . S
C2581 C2585 1.400 . S
C2582 H2567 0.960 . S
C2582 H2568 0.960 . S
C2582 H2569 0.960 . S
C2582 C2581 1.524 . S
C2583 C2580 1.403 . S
C2583 C2584 1.392 . S
C2583 C2587 1.495 . S
C2584 C2583 1.392 . S
C2584 C2585 1.385 . S
C2584 C2586 1.478 . S
C2585 H2579 0.930 . S
C2585 C2581 1.400 . S
C2585 C2584 1.385 . S
C2586 C2584 1.478 . S
C2586 C2588 1.381 . S
C2586 C2592 1.383 . S
C2587 C2583 1.495 . S
C2587 H2593 0.959 . S
C2587 H2594 0.961 . S
C2587 H2595 0.960 . S
C2588 C2586 1.381 . S
C2588 C2589 1.394 . S
C2588 H2596 0.930 . S
C2589 C2588 1.394 . S
C2589 C2590 1.383 . S
C2589 H2597 0.929 . S
C2590 C2589 1.383 . S
C2590 C2591 1.377 . S
C2591 H2575 0.930 . S
C2591 C2590 1.377 . S
C2591 C2592 1.379 . S
C2592 H2576 0.931 . S
C2592 C2586 1.383 . S
C2592 C2591 1.379 . S
H2593 C2587 0.959 . S
H2594 C2587 0.961 . S
H2595 C2587 0.960 . S
H2596 C2588 0.930 . S
H2597 C2589 0.929 . S
C898 C699 1.235 . S
C879 C74 1.368 . S
C934 C700 1.750 . S
C915 C153 1.646 . S
C970 C694 1.460 . S
C951 C231 1.489 . S
C987 C310 0.897 . S
C1006 C693 0.395 . S
C1023 C394 1.646 . S
C1042 C696 1.707 . S
C1078 C698 1.484 . S
C1059 C494 1.491 . S
C1095 C573 0.874 . S
C1114 C697 0.411 . S
C1131 C651 1.372 . S
C1150 C695 1.259 . S
C1186 C730 2.625 . S
C1167 C56 2.630 . S
C1203 C151 1.554 . S
C1222 C761 1.430 . S
C1258 C729 1.409 . S
C1239 C237 1.328 . S
C1294 C764 1.267 . S
C1275 C326 1.226 . S
C1311 C410 1.555 . S
C1330 C727 1.580 . S
C1366 C759 2.645 . S
C1347 C476 2.655 . S
C1383 C571 1.235 . S
C1402 C732 1.132 . S
C1419 C657 1.294 . S
C1438 C766 1.412 . S
C1455 C58 1.306 . S
C1474 C762 1.413 . S
C1491 C392 1.555 . S
C1510 C765 1.420 . S
C1546 C733 1.438 . S
C1527 C478 1.341 . S
C1582 C760 1.220 . S
C1563 C567 1.232 . S
C1599 C655 2.631 . S
C1618 C726 2.618 . S
C1635 C235 2.652 . S
C1654 C763 2.641 . S
C1690 C728 1.126 . S
C1671 C308 1.232 . S
C1707 C147 1.565 . S
C1726 C731 1.582 . S
C1743 C662 1.420 . S
C1762 C798 1.297 . S
C1779 C405 1.228 . S
C1798 C799 1.260 . S
C1834 C793 1.334 . S
C1815 C483 1.316 . S
C1870 C792 0.326 . S
C1851 C562 0.655 . S
C1887 C142 1.245 . S
C1906 C795 1.236 . S
C1942 C797 1.316 . S
C1923 C242 1.319 . S
C1959 C321 0.662 . S
C1978 C796 0.355 . S
C1995 C63 1.419 . S
C2014 C794 1.375 . S
C2031 C644 2.846 . S
C2050 C832 2.735 . S
C2086 C864 1.191 . S
C2067 C403 1.282 . S
C2103 C489 1.218 . S
C2122 C825 1.357 . S
C2139 C578 1.568 . S
C2158 C859 1.593 . S
C2194 C830 1.276 . S
C2175 C158 1.238 . S
C2211 C224 2.855 . S
C2230 C861 2.766 . S
C2266 C827 1.537 . S
C2247 C319 1.645 . S
C2302 C862 1.359 . S
C2283 C69 1.257 . S
C2338 C858 1.352 . S
C2319 C646 1.239 . S
C2355 C140 1.280 . S
C2374 C860 1.199 . S
C2391 C226 1.198 . S
C2410 C829 1.362 . S
C2446 C863 1.572 . S
C2427 C315 1.572 . S
C2463 C67 2.845 . S
C2482 C828 2.738 . S
C2499 C487 2.856 . S
C2518 C865 2.775 . S
C2554 C831 1.549 . S
C2535 C560 1.644 . S
C2590 C826 1.232 . S
C2571 C399 1.246 . S
