# Generated by pormake.
# Topology gar, (4,6)-cn, num edge types: 1
# Building blocks:
#     Node 0, Type 0, BuildingBlock: NAHDIM_clean_sbu_0, # of connection points: 4
#     Node 1, Type 0, BuildingBlock: NAHDIM_clean_sbu_0, # of connection points: 4
#     Node 2, Type 0, BuildingBlock: NAHDIM_clean_sbu_0, # of connection points: 4
#     Node 3, Type 0, BuildingBlock: NAHDIM_clean_sbu_0, # of connection points: 4
#     Node 4, Type 0, BuildingBlock: NAHDIM_clean_sbu_0, # of connection points: 4
#     Node 5, Type 0, BuildingBlock: NAHDIM_clean_sbu_0, # of connection points: 4
#     Node 6, Type 0, BuildingBlock: NAHDIM_clean_sbu_0, # of connection points: 4
#     Node 7, Type 0, BuildingBlock: NAHDIM_clean_sbu_0, # of connection points: 4
#     Node 8, Type 0, BuildingBlock: NAHDIM_clean_sbu_0, # of connection points: 4
#     Node 9, Type 0, BuildingBlock: NAHDIM_clean_sbu_0, # of connection points: 4
#     Node 10, Type 0, BuildingBlock: NAHDIM_clean_sbu_0, # of connection points: 4
#     Node 11, Type 0, BuildingBlock: NAHDIM_clean_sbu_0, # of connection points: 4
#     Node 12, Type 0, BuildingBlock: NAHDIM_clean_sbu_0, # of connection points: 4
#     Node 13, Type 0, BuildingBlock: NAHDIM_clean_sbu_0, # of connection points: 4
#     Node 14, Type 0, BuildingBlock: NAHDIM_clean_sbu_0, # of connection points: 4
#     Node 15, Type 0, BuildingBlock: NAHDIM_clean_sbu_0, # of connection points: 4
#     Node 16, Type 0, BuildingBlock: NAHDIM_clean_sbu_0, # of connection points: 4
#     Node 17, Type 0, BuildingBlock: NAHDIM_clean_sbu_0, # of connection points: 4
#     Node 18, Type 0, BuildingBlock: NAHDIM_clean_sbu_0, # of connection points: 4
#     Node 19, Type 0, BuildingBlock: NAHDIM_clean_sbu_0, # of connection points: 4
#     Node 20, Type 0, BuildingBlock: NAHDIM_clean_sbu_0, # of connection points: 4
#     Node 21, Type 0, BuildingBlock: NAHDIM_clean_sbu_0, # of connection points: 4
#     Node 22, Type 0, BuildingBlock: NAHDIM_clean_sbu_0, # of connection points: 4
#     Node 23, Type 0, BuildingBlock: NAHDIM_clean_sbu_0, # of connection points: 4
#     Node 24, Type 1, BuildingBlock: BETFEN_clean_sbu_0, # of connection points: 6
#     Node 25, Type 1, BuildingBlock: BETFEN_clean_sbu_0, # of connection points: 6
#     Node 26, Type 1, BuildingBlock: BETFEN_clean_sbu_0, # of connection points: 6
#     Node 27, Type 1, BuildingBlock: BETFEN_clean_sbu_0, # of connection points: 6
#     Node 28, Type 1, BuildingBlock: BETFEN_clean_sbu_0, # of connection points: 6
#     Node 29, Type 1, BuildingBlock: BETFEN_clean_sbu_0, # of connection points: 6
#     Node 30, Type 1, BuildingBlock: BETFEN_clean_sbu_0, # of connection points: 6
#     Node 31, Type 1, BuildingBlock: BETFEN_clean_sbu_0, # of connection points: 6
#     Node 32, Type 1, BuildingBlock: BETFEN_clean_sbu_0, # of connection points: 6
#     Node 33, Type 1, BuildingBlock: BETFEN_clean_sbu_0, # of connection points: 6
#     Node 34, Type 1, BuildingBlock: BETFEN_clean_sbu_0, # of connection points: 6
#     Node 35, Type 1, BuildingBlock: BETFEN_clean_sbu_0, # of connection points: 6
#     Node 36, Type 1, BuildingBlock: BETFEN_clean_sbu_0, # of connection points: 6
#     Node 37, Type 1, BuildingBlock: BETFEN_clean_sbu_0, # of connection points: 6
#     Node 38, Type 1, BuildingBlock: BETFEN_clean_sbu_0, # of connection points: 6
#     Node 39, Type 1, BuildingBlock: BETFEN_clean_sbu_0, # of connection points: 6
#     Edge 40, Type (0, 1), BuildingBlock: MIFKUJ_clean_linker_0, # of connection points: 2
#     Edge 41, Type (0, 1), BuildingBlock: MIFKUJ_clean_linker_0, # of connection points: 2
#     Edge 42, Type (0, 1), BuildingBlock: MIFKUJ_clean_linker_0, # of connection points: 2
#     Edge 43, Type (0, 1), BuildingBlock: MIFKUJ_clean_linker_0, # of connection points: 2
#     Edge 44, Type (0, 1), BuildingBlock: MIFKUJ_clean_linker_0, # of connection points: 2
#     Edge 45, Type (0, 1), BuildingBlock: MIFKUJ_clean_linker_0, # of connection points: 2
#     Edge 46, Type (0, 1), BuildingBlock: MIFKUJ_clean_linker_0, # of connection points: 2
#     Edge 47, Type (0, 1), BuildingBlock: MIFKUJ_clean_linker_0, # of connection points: 2
#     Edge 48, Type (0, 1), BuildingBlock: MIFKUJ_clean_linker_0, # of connection points: 2
#     Edge 49, Type (0, 1), BuildingBlock: MIFKUJ_clean_linker_0, # of connection points: 2
#     Edge 50, Type (0, 1), BuildingBlock: MIFKUJ_clean_linker_0, # of connection points: 2
#     Edge 51, Type (0, 1), BuildingBlock: MIFKUJ_clean_linker_0, # of connection points: 2
#     Edge 52, Type (0, 1), BuildingBlock: MIFKUJ_clean_linker_0, # of connection points: 2
#     Edge 53, Type (0, 1), BuildingBlock: MIFKUJ_clean_linker_0, # of connection points: 2
#     Edge 54, Type (0, 1), BuildingBlock: MIFKUJ_clean_linker_0, # of connection points: 2
#     Edge 55, Type (0, 1), BuildingBlock: MIFKUJ_clean_linker_0, # of connection points: 2
#     Edge 56, Type (0, 1), BuildingBlock: MIFKUJ_clean_linker_0, # of connection points: 2
#     Edge 57, Type (0, 1), BuildingBlock: MIFKUJ_clean_linker_0, # of connection points: 2
#     Edge 58, Type (0, 1), BuildingBlock: MIFKUJ_clean_linker_0, # of connection points: 2
#     Edge 59, Type (0, 1), BuildingBlock: MIFKUJ_clean_linker_0, # of connection points: 2
#     Edge 60, Type (0, 1), BuildingBlock: MIFKUJ_clean_linker_0, # of connection points: 2
#     Edge 61, Type (0, 1), BuildingBlock: MIFKUJ_clean_linker_0, # of connection points: 2
#     Edge 62, Type (0, 1), BuildingBlock: MIFKUJ_clean_linker_0, # of connection points: 2
#     Edge 63, Type (0, 1), BuildingBlock: MIFKUJ_clean_linker_0, # of connection points: 2
#     Edge 64, Type (0, 1), BuildingBlock: MIFKUJ_clean_linker_0, # of connection points: 2
#     Edge 65, Type (0, 1), BuildingBlock: MIFKUJ_clean_linker_0, # of connection points: 2
#     Edge 66, Type (0, 1), BuildingBlock: MIFKUJ_clean_linker_0, # of connection points: 2
#     Edge 67, Type (0, 1), BuildingBlock: MIFKUJ_clean_linker_0, # of connection points: 2
#     Edge 68, Type (0, 1), BuildingBlock: MIFKUJ_clean_linker_0, # of connection points: 2
#     Edge 69, Type (0, 1), BuildingBlock: MIFKUJ_clean_linker_0, # of connection points: 2
#     Edge 70, Type (0, 1), BuildingBlock: MIFKUJ_clean_linker_0, # of connection points: 2
#     Edge 71, Type (0, 1), BuildingBlock: MIFKUJ_clean_linker_0, # of connection points: 2
#     Edge 72, Type (0, 1), BuildingBlock: MIFKUJ_clean_linker_0, # of connection points: 2
#     Edge 73, Type (0, 1), BuildingBlock: MIFKUJ_clean_linker_0, # of connection points: 2
#     Edge 74, Type (0, 1), BuildingBlock: MIFKUJ_clean_linker_0, # of connection points: 2
#     Edge 75, Type (0, 1), BuildingBlock: MIFKUJ_clean_linker_0, # of connection points: 2
#     Edge 76, Type (0, 1), BuildingBlock: MIFKUJ_clean_linker_0, # of connection points: 2
#     Edge 77, Type (0, 1), BuildingBlock: MIFKUJ_clean_linker_0, # of connection points: 2
#     Edge 78, Type (0, 1), BuildingBlock: MIFKUJ_clean_linker_0, # of connection points: 2
#     Edge 79, Type (0, 1), BuildingBlock: MIFKUJ_clean_linker_0, # of connection points: 2
#     Edge 80, Type (0, 1), BuildingBlock: MIFKUJ_clean_linker_0, # of connection points: 2
#     Edge 81, Type (0, 1), BuildingBlock: MIFKUJ_clean_linker_0, # of connection points: 2
#     Edge 82, Type (0, 1), BuildingBlock: MIFKUJ_clean_linker_0, # of connection points: 2
#     Edge 83, Type (0, 1), BuildingBlock: MIFKUJ_clean_linker_0, # of connection points: 2
#     Edge 84, Type (0, 1), BuildingBlock: MIFKUJ_clean_linker_0, # of connection points: 2
#     Edge 85, Type (0, 1), BuildingBlock: MIFKUJ_clean_linker_0, # of connection points: 2
#     Edge 86, Type (0, 1), BuildingBlock: MIFKUJ_clean_linker_0, # of connection points: 2
#     Edge 87, Type (0, 1), BuildingBlock: MIFKUJ_clean_linker_0, # of connection points: 2
#     Edge 88, Type (0, 1), BuildingBlock: MIFKUJ_clean_linker_0, # of connection points: 2
#     Edge 89, Type (0, 1), BuildingBlock: MIFKUJ_clean_linker_0, # of connection points: 2
#     Edge 90, Type (0, 1), BuildingBlock: MIFKUJ_clean_linker_0, # of connection points: 2
#     Edge 91, Type (0, 1), BuildingBlock: MIFKUJ_clean_linker_0, # of connection points: 2
#     Edge 92, Type (0, 1), BuildingBlock: MIFKUJ_clean_linker_0, # of connection points: 2
#     Edge 93, Type (0, 1), BuildingBlock: MIFKUJ_clean_linker_0, # of connection points: 2
#     Edge 94, Type (0, 1), BuildingBlock: MIFKUJ_clean_linker_0, # of connection points: 2
#     Edge 95, Type (0, 1), BuildingBlock: MIFKUJ_clean_linker_0, # of connection points: 2
#     Edge 96, Type (0, 1), BuildingBlock: MIFKUJ_clean_linker_0, # of connection points: 2
#     Edge 97, Type (0, 1), BuildingBlock: MIFKUJ_clean_linker_0, # of connection points: 2
#     Edge 98, Type (0, 1), BuildingBlock: MIFKUJ_clean_linker_0, # of connection points: 2
#     Edge 99, Type (0, 1), BuildingBlock: MIFKUJ_clean_linker_0, # of connection points: 2
#     Edge 100, Type (0, 1), BuildingBlock: MIFKUJ_clean_linker_0, # of connection points: 2
#     Edge 101, Type (0, 1), BuildingBlock: MIFKUJ_clean_linker_0, # of connection points: 2
#     Edge 102, Type (0, 1), BuildingBlock: MIFKUJ_clean_linker_0, # of connection points: 2
#     Edge 103, Type (0, 1), BuildingBlock: MIFKUJ_clean_linker_0, # of connection points: 2
#     Edge 104, Type (0, 1), BuildingBlock: MIFKUJ_clean_linker_0, # of connection points: 2
#     Edge 105, Type (0, 1), BuildingBlock: MIFKUJ_clean_linker_0, # of connection points: 2
#     Edge 106, Type (0, 1), BuildingBlock: MIFKUJ_clean_linker_0, # of connection points: 2
#     Edge 107, Type (0, 1), BuildingBlock: MIFKUJ_clean_linker_0, # of connection points: 2
#     Edge 108, Type (0, 1), BuildingBlock: MIFKUJ_clean_linker_0, # of connection points: 2
#     Edge 109, Type (0, 1), BuildingBlock: MIFKUJ_clean_linker_0, # of connection points: 2
#     Edge 110, Type (0, 1), BuildingBlock: MIFKUJ_clean_linker_0, # of connection points: 2
#     Edge 111, Type (0, 1), BuildingBlock: MIFKUJ_clean_linker_0, # of connection points: 2
#     Edge 112, Type (0, 1), BuildingBlock: MIFKUJ_clean_linker_0, # of connection points: 2
#     Edge 113, Type (0, 1), BuildingBlock: MIFKUJ_clean_linker_0, # of connection points: 2
#     Edge 114, Type (0, 1), BuildingBlock: MIFKUJ_clean_linker_0, # of connection points: 2
#     Edge 115, Type (0, 1), BuildingBlock: MIFKUJ_clean_linker_0, # of connection points: 2
#     Edge 116, Type (0, 1), BuildingBlock: MIFKUJ_clean_linker_0, # of connection points: 2
#     Edge 117, Type (0, 1), BuildingBlock: MIFKUJ_clean_linker_0, # of connection points: 2
#     Edge 118, Type (0, 1), BuildingBlock: MIFKUJ_clean_linker_0, # of connection points: 2
#     Edge 119, Type (0, 1), BuildingBlock: MIFKUJ_clean_linker_0, # of connection points: 2
#     Edge 120, Type (0, 1), BuildingBlock: MIFKUJ_clean_linker_0, # of connection points: 2
#     Edge 121, Type (0, 1), BuildingBlock: MIFKUJ_clean_linker_0, # of connection points: 2
#     Edge 122, Type (0, 1), BuildingBlock: MIFKUJ_clean_linker_0, # of connection points: 2
#     Edge 123, Type (0, 1), BuildingBlock: MIFKUJ_clean_linker_0, # of connection points: 2
#     Edge 124, Type (0, 1), BuildingBlock: MIFKUJ_clean_linker_0, # of connection points: 2
#     Edge 125, Type (0, 1), BuildingBlock: MIFKUJ_clean_linker_0, # of connection points: 2
#     Edge 126, Type (0, 1), BuildingBlock: MIFKUJ_clean_linker_0, # of connection points: 2
#     Edge 127, Type (0, 1), BuildingBlock: MIFKUJ_clean_linker_0, # of connection points: 2
#     Edge 128, Type (0, 1), BuildingBlock: MIFKUJ_clean_linker_0, # of connection points: 2
#     Edge 129, Type (0, 1), BuildingBlock: MIFKUJ_clean_linker_0, # of connection points: 2
#     Edge 130, Type (0, 1), BuildingBlock: MIFKUJ_clean_linker_0, # of connection points: 2
#     Edge 131, Type (0, 1), BuildingBlock: MIFKUJ_clean_linker_0, # of connection points: 2
#     Edge 132, Type (0, 1), BuildingBlock: MIFKUJ_clean_linker_0, # of connection points: 2
#     Edge 133, Type (0, 1), BuildingBlock: MIFKUJ_clean_linker_0, # of connection points: 2
#     Edge 134, Type (0, 1), BuildingBlock: MIFKUJ_clean_linker_0, # of connection points: 2
#     Edge 135, Type (0, 1), BuildingBlock: MIFKUJ_clean_linker_0, # of connection points: 2
# Relax obj value: 0.184
# Max RMSD: 0.292
# Mean RMSD: 0.178
data_MOF--net-gar--node1-NAHDIM_clean_sbu_0--node2-BETFEN_clean_sbu_0--edge1-MIFKUJ_clean_linker_0
_symmetry_space_group_name_H-M    P1
_symmetry_Int_Tables_number       1
_symmetry_cell_setting            triclinic
loop_
_symmetry_equiv_pos_as_xyz
'x, y, z'
_cell_length_a     81.084279
_cell_length_b     72.700929
_cell_length_c     71.58784
_cell_angle_alpha  94.572147
_cell_angle_beta   98.603265
_cell_angle_gamma 102.63681
loop_
_atom_site_label
_atom_site_type_symbol
_atom_site_fract_x
_atom_site_fract_y
_atom_site_fract_z
_atom_type_partial_charge
C0 C 0.04282 0.29674 0.39884 0.0
O1 O 0.03298 0.28011 0.40014 0.0
O2 O 0.01721 0.28579 0.43427 0.0
Zn3 Zn 0.0194 0.30992 0.42087 0.0
O4 O 0.02398 0.33449 0.43894 0.0
C5 C 0.98676 0.29365 0.39423 0.0
O6 O 0.99065 0.27721 0.39624 0.0
O7 O 0.0393 0.31162 0.40624 0.0
C8 C 0.02319 0.34931 0.43078 0.0
O9 O 0.01987 0.34756 0.4121 0.0
C10 C 0.02763 0.28397 0.44882 0.0
O11 O 0.04 0.29865 0.45662 0.0
O12 O 0.99707 0.30872 0.4029 0.0
C13 C 0.02739 0.82742 0.64854 0.0
O14 O 0.02498 0.82893 0.63021 0.0
O15 O 0.0561 0.80091 0.62448 0.0
Zn16 Zn 0.06075 0.82691 0.64021 0.0
O17 O 0.05908 0.84875 0.62411 0.0
C18 C 0.09449 0.82087 0.65467 0.0
O19 O 0.08952 0.80695 0.64072 0.0
O20 O 0.0421 0.82601 0.65662 0.0
C21 C 0.07113 0.85925 0.61759 0.0
O22 O 0.08646 0.85568 0.62021 0.0
C23 C 0.04944 0.79605 0.60703 0.0
O24 O 0.04438 0.8087 0.59688 0.0
O25 O 0.0845 0.83182 0.65726 0.0
C26 C 0.55511 0.8155 0.8957 0.0
O27 O 0.55363 0.83255 0.90164 0.0
O28 O 0.5227 0.78013 0.93009 0.0
Zn29 Zn 0.52481 0.80241 0.91385 0.0
O30 O 0.52925 0.82886 0.92889 0.0
C31 C 0.48927 0.8025 0.90155 0.0
O32 O 0.49073 0.80767 0.91984 0.0
O33 O 0.54432 0.80108 0.89905 0.0
C34 C 0.53337 0.83364 0.94678 0.0
O35 O 0.53547 0.8206 0.95801 0.0
C36 C 0.53572 0.77653 0.94017 0.0
O37 O 0.55077 0.78826 0.94138 0.0
O38 O 0.5023 0.79902 0.89524 0.0
C39 C 0.52193 0.31906 0.15373 0.0
O40 O 0.51862 0.31873 0.13516 0.0
O41 O 0.5502 0.29357 0.1297 0.0
Zn42 Zn 0.55552 0.31992 0.14509 0.0
O43 O 0.55498 0.34188 0.12864 0.0
C44 C 0.59294 0.3319 0.15799 0.0
O45 O 0.59288 0.33907 0.14171 0.0
O46 O 0.5372 0.31963 0.16165 0.0
C47 C 0.55949 0.35881 0.13702 0.0
O48 O 0.56486 0.36136 0.1555 0.0
C49 C 0.56149 0.28722 0.12229 0.0
O50 O 0.57677 0.29842 0.12332 0.0
O51 O 0.57873 0.32365 0.16238 0.0
C52 C 0.03019 0.82792 0.1572 0.0
O53 O 0.02775 0.83053 0.13914 0.0
O54 O 0.05967 0.80024 0.13354 0.0
Zn55 Zn 0.0634 0.82659 0.14812 0.0
O56 O 0.06107 0.84714 0.13043 0.0
C57 C 0.0989 0.82487 0.15874 0.0
O58 O 0.09508 0.81458 0.14207 0.0
O59 O 0.04479 0.82572 0.16478 0.0
C60 C 0.07337 0.85976 0.12673 0.0
O61 O 0.08921 0.85947 0.13382 0.0
C62 C 0.04927 0.793 0.11828 0.0
O63 O 0.03927 0.80306 0.11003 0.0
O64 O 0.08746 0.8323 0.16461 0.0
C65 C 0.54366 0.79899 0.40001 0.0
O66 O 0.54569 0.79999 0.41866 0.0
O67 O 0.50957 0.77212 0.42055 0.0
Zn68 Zn 0.50901 0.79515 0.4058 0.0
O69 O 0.51408 0.81997 0.42341 0.0
C70 C 0.472 0.7819 0.38784 0.0
O71 O 0.4712 0.76938 0.40012 0.0
O72 O 0.5286 0.797 0.39067 0.0
C73 C 0.50215 0.82797 0.42667 0.0
O74 O 0.48617 0.81926 0.41971 0.0
C75 C 0.50153 0.76638 0.43377 0.0
O76 O 0.49063 0.77565 0.43944 0.0
O77 O 0.48637 0.79319 0.38752 0.0
C78 C 0.53011 0.33045 0.65082 0.0
O79 O 0.52841 0.33109 0.63236 0.0
O80 O 0.55834 0.30358 0.62789 0.0
Zn81 Zn 0.56434 0.32876 0.64539 0.0
O82 O 0.56737 0.3523 0.6311 0.0
C83 C 0.60112 0.33587 0.66041 0.0
O84 O 0.60247 0.34295 0.64423 0.0
O85 O 0.54454 0.32927 0.65988 0.0
C86 C 0.56292 0.35238 0.61328 0.0
O87 O 0.5565 0.33615 0.60249 0.0
C88 C 0.56982 0.29643 0.62178 0.0
O89 O 0.58585 0.30612 0.62569 0.0
O90 O 0.58623 0.32956 0.6643 0.0
C91 C 0.04745 0.30419 0.89654 0.0
O92 O 0.05016 0.31144 0.91444 0.0
O93 O 0.01219 0.27178 0.91867 0.0
Zn94 Zn 0.01262 0.29486 0.90382 0.0
O95 O 0.01673 0.31992 0.92104 0.0
C96 C 0.97631 0.29259 0.89353 0.0
O97 O 0.97802 0.29558 0.91214 0.0
O98 O 0.03212 0.29648 0.88842 0.0
C99 C 0.01219 0.33374 0.9135 0.0
O100 O 0.00534 0.33118 0.89538 0.0
C101 C 0.02278 0.27167 0.93371 0.0
O102 O 0.03409 0.28744 0.94092 0.0
O103 O 0.98946 0.29124 0.88621 0.0
C104 C 0.425 0.1813 0.28739 0.0
O105 O 0.43247 0.17877 0.27264 0.0
O106 O 0.45565 0.15623 0.27948 0.0
Zn107 Zn 0.44146 0.1523 0.30025 0.0
O108 O 0.45608 0.1518 0.32561 0.0
C109 C 0.42486 0.11417 0.2812 0.0
O110 O 0.43597 0.11791 0.26962 0.0
O111 O 0.42759 0.17204 0.30145 0.0
C112 C 0.46048 0.13626 0.32795 0.0
O113 O 0.45635 0.12263 0.31372 0.0
C114 C 0.47193 0.16104 0.28196 0.0
O115 O 0.48077 0.16377 0.29929 0.0
O116 O 0.42466 0.12683 0.29443 0.0
C117 C 0.30429 0.18653 0.50896 0.0
O118 O 0.30735 0.20433 0.50549 0.0
O119 O 0.27424 0.20952 0.53749 0.0
Zn120 Zn 0.27105 0.19426 0.51133 0.0
O121 O 0.27366 0.21138 0.48986 0.0
C122 C 0.23527 0.18251 0.51481 0.0
O123 O 0.23918 0.19964 0.52408 0.0
O124 O 0.28937 0.17869 0.51189 0.0
C125 C 0.2656 0.2057 0.47296 0.0
O126 O 0.25481 0.18898 0.46959 0.0
C127 C 0.28667 0.22295 0.5458 0.0
O128 O 0.29966 0.22883 0.53707 0.0
O129 O 0.24679 0.17674 0.50724 0.0
C130 C 0.20111 0.05364 0.86376 0.0
O131 O 0.18426 0.04879 0.86052 0.0
O132 O 0.18037 0.08098 0.83308 0.0
Zn133 Zn 0.19343 0.08902 0.85982 0.0
O134 O 0.17722 0.08687 0.87853 0.0
C135 C 0.20167 0.12637 0.84947 0.0
O136 O 0.18643 0.11997 0.83896 0.0
O137 O 0.20862 0.07106 0.86484 0.0
C138 C 0.16492 0.09516 0.87745 0.0
O139 O 0.16319 0.1065 0.86426 0.0
C140 C 0.1647 0.07228 0.82822 0.0
O141 O 0.15546 0.06716 0.84133 0.0
O142 O 0.20755 0.11572 0.86068 0.0
C143 C 0.26709 0.9376 0.02258 0.0
O144 O 0.26264 0.91921 0.01737 0.0
O145 O 0.30119 0.91687 0.0532 0.0
Zn146 Zn 0.30111 0.93022 0.02924 0.0
O147 O 0.29679 0.91189 0.00498 0.0
C148 C 0.33557 0.95278 0.04584 0.0
O149 O 0.33174 0.94633 0.06166 0.0
O150 O 0.2829 0.94554 0.02805 0.0
C151 C 0.29929 0.91939 0.98985 0.0
O152 O 0.30399 0.93798 0.99091 0.0
C153 C 0.29098 0.90145 0.05524 0.0
O154 O 0.27936 0.89249 0.0407 0.0
O155 O 0.3245 0.94805 0.03065 0.0
C156 C 0.27271 0.4429 0.04694 0.0
O157 O 0.26946 0.42488 0.04962 0.0
O158 O 0.3051 0.4207 0.07009 0.0
Zn159 Zn 0.30641 0.4356 0.04683 0.0
O160 O 0.30219 0.4186 0.02141 0.0
C161 C 0.34279 0.44656 0.04497 0.0
O162 O 0.33961 0.42859 0.03811 0.0
O163 O 0.28796 0.4511 0.04539 0.0
C164 C 0.30657 0.4269 0.00726 0.0
O165 O 0.31306 0.44532 0.00987 0.0
C166 C 0.29765 0.40329 0.06982 0.0
O167 O 0.29033 0.39333 0.05339 0.0
O168 O 0.3306 0.45312 0.05011 0.0
C169 C 0.81677 0.18611 0.02171 0.0
O170 O 0.82135 0.20406 0.02887 0.0
O171 O 0.78903 0.21046 0.0428 0.0
Zn172 Zn 0.78359 0.19491 0.01665 0.0
O173 O 0.78484 0.21143 0.99487 0.0
C174 C 0.75387 0.17085 0.02753 0.0
O175 O 0.76375 0.17473 0.04433 0.0
O176 O 0.80097 0.17872 0.01546 0.0
C177 C 0.77864 0.20322 0.97811 0.0
O178 O 0.77163 0.18492 0.9759 0.0
C179 C 0.78039 0.22206 0.04784 0.0
O180 O 0.76782 0.22499 0.03544 0.0
O181 O 0.75962 0.17779 0.01337 0.0
C182 C 0.15468 0.44715 0.25088 0.0
O183 O 0.13996 0.4403 0.25622 0.0
O184 O 0.12461 0.47417 0.21491 0.0
Zn185 Zn 0.13853 0.47721 0.24103 0.0
O186 O 0.1239 0.47152 0.26103 0.0
C187 C 0.14063 0.51659 0.24705 0.0
O188 O 0.12388 0.51023 0.24405 0.0
O189 O 0.15665 0.46233 0.24298 0.0
C190 C 0.13154 0.47569 0.27817 0.0
O191 O 0.14825 0.48239 0.2816 0.0
C192 C 0.10835 0.47104 0.2122 0.0
O193 O 0.10026 0.4671 0.2265 0.0
O194 O 0.15008 0.5048 0.24658 0.0
C195 C 0.77301 0.9423 0.53978 0.0
O196 O 0.7706 0.92643 0.52855 0.0
O197 O 0.80846 0.92014 0.5732 0.0
Zn198 Zn 0.80765 0.93559 0.55032 0.0
O199 O 0.80547 0.91948 0.52483 0.0
C200 C 0.84342 0.95721 0.56533 0.0
O201 O 0.84204 0.94719 0.57973 0.0
O202 O 0.7877 0.94906 0.55009 0.0
C203 C 0.79666 0.90279 0.51858 0.0
O204 O 0.78693 0.89324 0.52934 0.0
C205 C 0.79486 0.91033 0.57767 0.0
O206 O 0.78006 0.90951 0.56688 0.0
O207 O 0.83049 0.95514 0.55215 0.0
C208 C 0.88232 0.07091 0.18836 0.0
O209 O 0.89912 0.07679 0.19106 0.0
O210 O 0.90944 0.04028 0.17703 0.0
Zn211 Zn 0.89249 0.03735 0.19492 0.0
O212 O 0.90518 0.04692 0.22136 0.0
C213 C 0.88768 1.00024 0.20609 0.0
O214 O 0.90325 0.00764 0.21544 0.0
O215 O 0.87578 0.05339 0.18851 0.0
C216 C 0.89869 0.05385 0.23456 0.0
O217 O 0.88283 0.05578 0.23094 0.0
C218 C 0.92508 0.04074 0.18317 0.0
O219 O 0.9297 0.03797 0.20091 0.0
O220 O 0.88035 0.01016 0.19521 0.0
C221 C 0.31574 0.68473 0.52757 0.0
O222 O 0.31875 0.69933 0.54067 0.0
O223 O 0.28888 0.71329 0.54223 0.0
Zn224 Zn 0.28395 0.69672 0.5167 0.0
O225 O 0.28494 0.71296 0.4948 0.0
C226 C 0.24784 0.68749 0.51737 0.0
O227 O 0.25148 0.70582 0.5228 0.0
O228 O 0.30165 0.6807 0.51586 0.0
C229 C 0.27659 0.70573 0.4784 0.0
O230 O 0.26756 0.6881 0.47624 0.0
C231 C 0.2837 0.70606 0.55655 0.0
O232 O 0.27556 0.68809 0.55448 0.0
O233 O 0.25985 0.67983 0.51363 0.0
C234 C 0.38933 0.57285 0.71444 0.0
O235 O 0.40557 0.57643 0.72237 0.0
O236 O 0.41218 0.55008 0.67507 0.0
Zn237 Zn 0.39857 0.54149 0.69538 0.0
O238 O 0.41468 0.54105 0.71952 0.0
C239 C 0.39074 0.5008 0.6904 0.0
O240 O 0.40747 0.50386 0.69536 0.0
O241 O 0.38337 0.55883 0.70162 0.0
C242 C 0.40792 0.53294 0.73253 0.0
O243 O 0.39131 0.52554 0.72943 0.0
C244 C 0.41733 0.56738 0.67258 0.0
O245 O 0.41305 0.58062 0.68313 0.0
O246 O 0.38403 0.5149 0.68812 0.0
C247 C 0.65677 0.94584 0.73761 0.0
O248 O 0.65013 0.94416 0.71948 0.0
O249 O 0.62283 0.97009 0.71795 0.0
Zn250 Zn 0.63523 0.97286 0.74493 0.0
O251 O 0.61834 0.96774 0.76272 0.0
C252 C 0.64388 0.01259 0.7609 0.0
O253 O 0.62958 0.00799 0.76779 0.0
O254 O 0.65193 0.95651 0.7495 0.0
C255 C 0.62321 0.96493 0.77973 0.0
O256 O 0.63925 0.96421 0.78516 0.0
C257 C 0.61055 0.97844 0.71612 0.0
O258 O 0.60676 0.98658 0.73145 0.0
O259 O 0.64863 0.99997 0.7511 0.0
C260 C 0.80556 0.68907 0.02288 0.0
O261 O 0.80934 0.7066 0.03121 0.0
O262 O 0.77711 0.71316 0.04165 0.0
Zn263 Zn 0.77221 0.69762 0.01547 0.0
O264 O 0.77448 0.7151 0.99438 0.0
C265 C 0.74146 0.67431 0.02571 0.0
O266 O 0.75113 0.67807 0.04263 0.0
O267 O 0.79012 0.68167 0.01492 0.0
C268 C 0.77341 0.7078 0.97732 0.0
O269 O 0.77053 0.68924 0.97386 0.0
C270 C 0.76639 0.72156 0.04774 0.0
O271 O 0.7519 0.72105 0.03644 0.0
O272 O 0.74777 0.68062 0.01154 0.0
C273 C 0.92578 0.66881 0.77518 0.0
O274 O 0.92924 0.658 0.7614 0.0
O275 O 0.95532 0.63825 0.77944 0.0
Zn276 Zn 0.93871 0.64247 0.7964 0.0
O277 O 0.95 0.6415 0.82324 0.0
C278 C 0.91371 0.61063 0.7741 0.0
O279 O 0.92296 0.61451 0.76071 0.0
O280 O 0.93013 0.66589 0.7923 0.0
C281 C 0.95146 0.62491 0.82642 0.0
O282 O 0.94536 0.61082 0.81274 0.0
C283 C 0.97138 0.6449 0.7843 0.0
O284 O 0.97728 0.65625 0.80025 0.0
O285 O 0.91799 0.62076 0.79012 0.0
C286 C 0.77063 0.44489 0.54131 0.0
O287 O 0.77318 0.43512 0.55569 0.0
O288 O 0.80076 0.41657 0.55251 0.0
Zn289 Zn 0.79949 0.43113 0.52918 0.0
O290 O 0.79514 0.4147 0.50363 0.0
C291 C 0.83465 0.45285 0.54451 0.0
O292 O 0.83235 0.44391 0.55949 0.0
O293 O 0.78031 0.44538 0.52878 0.0
C294 C 0.8013 0.40047 0.49965 0.0
O295 O 0.81075 0.39435 0.51323 0.0
C296 C 0.79272 0.39977 0.55395 0.0
O297 O 0.78243 0.38962 0.53898 0.0
O298 O 0.82242 0.44997 0.53041 0.0
C299 C 0.70118 0.5392 0.37113 0.0
O300 O 0.68466 0.53274 0.37066 0.0
O301 O 0.68027 0.56212 0.33039 0.0
Zn302 Zn 0.69005 0.57135 0.3579 0.0
O303 O 0.67097 0.56829 0.37328 0.0
C304 C 0.69623 0.60872 0.34717 0.0
O305 O 0.68135 0.60125 0.33625 0.0
O306 O 0.70659 0.55581 0.36682 0.0
C307 C 0.65602 0.56951 0.36594 0.0
O308 O 0.65334 0.57411 0.34856 0.0
C309 C 0.6681 0.54773 0.32394 0.0
O310 O 0.66115 0.53675 0.33577 0.0
O311 O 0.70257 0.59874 0.35883 0.0
Pr312 Pr 0.02117 0.05296 0.02039 0.0
Pr313 Pr 0.06182 0.06857 0.02878 0.0
C314 C 0.98722 0.04879 0.01995 0.0
C315 C 0.97413 0.06031 0.01872 0.0
C316 C 0.963 0.05981 0.00152 0.0
C317 C 0.95029 0.07019 1.00054 0.0
C318 C 0.9484 0.08129 0.01676 0.0
C319 C 0.95951 0.08175 0.03394 0.0
C320 C 0.97214 0.07133 0.03492 0.0
C321 C 0.03834 0.04418 0.99165 0.0
C322 C 0.03906 0.09785 0.01253 0.0
C323 C 0.09583 0.07343 0.02929 0.0
C324 C 0.10898 0.06221 0.02891 0.0
C325 C 0.12415 0.0674 0.04236 0.0
C326 C 0.13699 0.05735 0.04193 0.0
C327 C 0.13498 0.04189 0.02794 0.0
C328 C 0.11969 0.03666 0.01454 0.0
C329 C 0.10683 0.04667 0.01505 0.0
C330 C 0.04463 0.0776 0.05748 0.0
C331 C 0.04401 0.02365 0.03627 0.0
O332 O 0.99862 0.05193 0.03557 0.0
O333 O 0.99365 0.04541 0.00464 0.0
O334 O 0.04163 0.05984 0.0019 0.0
O335 O 0.02463 0.03254 0.99479 0.0
O336 O 0.05465 0.09478 0.01581 0.0
O337 O 0.02522 0.08517 0.01477 0.0
O338 O 0.08464 0.07203 0.0137 0.0
O339 O 0.08915 0.07438 0.04481 0.0
O340 O 0.04131 0.06192 0.04726 0.0
O341 O 0.05856 0.08897 0.05455 0.0
O342 O 0.02863 0.02738 0.03451 0.0
O343 O 0.05754 0.03587 0.03255 0.0
H344 H 0.96406 0.0513 0.98882 0.0
H345 H 0.94201 0.06962 0.98705 0.0
H346 H 0.95823 0.08985 0.04679 0.0
H347 H 0.98021 0.07175 0.04847 0.0
H348 H 0.1261 0.07932 0.05321 0.0
H349 H 0.14846 0.06162 0.05265 0.0
H350 H 0.11775 0.02502 0.00341 0.0
H351 H 0.09529 0.04234 0.00449 0.0
Pr352 Pr 0.29983 0.83369 0.28345 0.0
Pr353 Pr 0.277 0.79554 0.26323 0.0
C354 C 0.32324 0.86287 0.3045 0.0
C355 C 0.33097 0.88303 0.30334 0.0
C356 C 0.32103 0.89664 0.30251 0.0
C357 C 0.32857 0.91558 0.3011 0.0
C358 C 0.34615 0.92125 0.30037 0.0
C359 C 0.35611 0.90767 0.30134 0.0
C360 C 0.3486 0.88876 0.30291 0.0
C361 C 0.26663 0.83551 0.26776 0.0
C362 C 0.29478 0.82856 0.23723 0.0
C363 C 0.25314 0.76646 0.24264 0.0
C364 C 0.24408 0.74735 0.24526 0.0
C365 C 0.25025 0.73808 0.26031 0.0
C366 C 0.24115 0.7201 0.26303 0.0
C367 C 0.22569 0.71124 0.25084 0.0
C368 C 0.21954 0.7207 0.23586 0.0
C369 C 0.22869 0.73862 0.23311 0.0
C370 C 0.31007 0.79367 0.27939 0.0
C371 C 0.28204 0.8006 0.30925 0.0
O372 O 0.32728 0.85039 0.29287 0.0
O373 O 0.30715 0.85839 0.30667 0.0
O374 O 0.27052 0.82211 0.27629 0.0
O375 O 0.27989 0.84949 0.2686 0.0
O376 O 0.28254 0.81341 0.23796 0.0
O377 O 0.305 0.83797 0.25273 0.0
O378 O 0.24934 0.78032 0.25264 0.0
O379 O 0.26955 0.76907 0.24208 0.0
O380 O 0.30644 0.80694 0.27037 0.0
O381 O 0.29652 0.78018 0.27915 0.0
O382 O 0.29492 0.81511 0.30853 0.0
O383 O 0.2713 0.79202 0.29377 0.0
H384 H 0.3074 0.89267 0.30278 0.0
H385 H 0.32057 0.92572 0.3002 0.0
H386 H 0.36973 0.9117 0.30101 0.0
H387 H 0.35656 0.87856 0.30368 0.0
H388 H 0.26202 0.7448 0.27 0.0
H389 H 0.24609 0.71324 0.27481 0.0
H390 H 0.20776 0.71416 0.22613 0.0
H391 H 0.22371 0.74571 0.22153 0.0
Pr392 Pr 0.55784 0.06519 0.5286 0.0
Pr393 Pr 0.51735 0.05926 0.52092 0.0
C394 C 0.59096 0.06389 0.53938 0.0
C395 C 0.60406 0.05255 0.53962 0.0
C396 C 0.62116 0.06202 0.53998 0.0
C397 C 0.63415 0.05208 0.5411 0.0
C398 C 0.63038 0.03234 0.54184 0.0
C399 C 0.61313 0.02278 0.54119 0.0
C400 C 0.60009 0.03282 0.54018 0.0
C401 C 0.54395 0.07945 0.49657 0.0
C402 C 0.53271 0.02389 0.50563 0.0
C403 C 0.4844 0.06143 0.5106 0.0
C404 C 0.47166 0.07318 0.51236 0.0
C405 C 0.46044 0.06965 0.52555 0.0
C406 C 0.44724 0.07922 0.52602 0.0
C407 C 0.44482 0.09252 0.51324 0.0
C408 C 0.45626 0.09631 0.50027 0.0
C409 C 0.46947 0.08672 0.49979 0.0
C410 C 0.53102 0.04477 0.55282 0.0
C411 C 0.54235 0.10076 0.54353 0.0
O412 O 0.57922 0.05969 0.55009 0.0
O413 O 0.58525 0.06938 0.52318 0.0
O414 O 0.5378 0.06368 0.50193 0.0
O415 O 0.55835 0.08822 0.50736 0.0
O416 O 0.51945 0.03182 0.50317 0.0
O417 O 0.54775 0.03298 0.51578 0.0
O418 O 0.49636 0.06684 0.50041 0.0
O419 O 0.48971 0.05355 0.52546 0.0
O420 O 0.53741 0.06049 0.54753 0.0
O421 O 0.5164 0.03638 0.5423 0.0
O422 O 0.55581 0.09313 0.54568 0.0
O423 O 0.52726 0.09141 0.53373 0.0
H424 H 0.62452 0.07723 0.53957 0.0
H425 H 0.64718 0.05989 0.54122 0.0
H426 H 0.60976 0.00763 0.54188 0.0
H427 H 0.58698 0.02521 0.54002 0.0
H428 H 0.46161 0.05917 0.5353 0.0
H429 H 0.43887 0.0761 0.53638 0.0
H430 H 0.45469 0.10627 0.49005 0.0
H431 H 0.47769 0.08961 0.48925 0.0
Pr432 Pr 0.2711 0.31511 0.77398 0.0
Pr433 Pr 0.31135 0.32896 0.77907 0.0
C434 C 0.23804 0.30047 0.77684 0.0
C435 C 0.22393 0.30277 0.78722 0.0
C436 C 0.20936 0.30758 0.77753 0.0
C437 C 0.19528 0.30839 0.78647 0.0
C438 C 0.19532 0.30426 0.80535 0.0
C439 C 0.21004 0.29973 0.81518 0.0
C440 C 0.22416 0.29897 0.80622 0.0
C441 C 0.2836 0.34963 0.76086 0.0
C442 C 0.29357 0.34001 0.81514 0.0
C443 C 0.34392 0.34426 0.77489 0.0
C444 C 0.35744 0.34154 0.76374 0.0
C445 C 0.36748 0.32845 0.76817 0.0
C446 C 0.38103 0.32701 0.75852 0.0
C447 C 0.38493 0.33863 0.74422 0.0
C448 C 0.37471 0.35152 0.73958 0.0
C449 C 0.36119 0.35301 0.74928 0.0
C450 C 0.29917 0.294 0.79146 0.0
C451 C 0.28892 0.3035 0.73808 0.0
O452 O 0.25096 0.29469 0.78576 0.0
O453 O 0.24261 0.31292 0.76523 0.0
O454 O 0.28958 0.3443 0.77621 0.0
O455 O 0.26992 0.33737 0.75211 0.0
O456 O 0.30688 0.34546 0.80654 0.0
O457 O 0.27958 0.32738 0.80648 0.0
O458 O 0.33058 0.34937 0.76607 0.0
O459 O 0.34003 0.33247 0.78734 0.0
O460 O 0.29291 0.29974 0.77648 0.0
O461 O 0.31313 0.30593 0.80011 0.0
O462 O 0.27554 0.29825 0.74663 0.0
O463 O 0.30291 0.31613 0.74675 0.0
H464 H 0.20874 0.31046 0.76285 0.0
H465 H 0.18433 0.31224 0.77853 0.0
H466 H 0.21049 0.29626 0.82965 0.0
H467 H 0.23512 0.29506 0.81409 0.0
H468 H 0.36505 0.31946 0.77928 0.0
H469 H 0.38847 0.31675 0.76229 0.0
H470 H 0.37746 0.36086 0.72881 0.0
H471 H 0.35385 0.36341 0.74568 0.0
Pr472 Pr 0.02761 0.05553 0.50904 0.0
Pr473 Pr 0.04877 0.07909 0.55182 0.0
C474 C 1.00297 0.03795 0.47989 0.0
C475 C 0.99633 0.04125 0.46049 0.0
C476 C 0.99149 0.02607 0.44593 0.0
C477 C 0.98453 0.02882 0.42759 0.0
C478 C 0.98218 0.04679 0.42359 0.0
C479 C 0.98727 0.06204 0.43815 0.0
C480 C 0.99438 0.05933 0.45643 0.0
C481 C 0.06222 0.07322 0.50897 0.0
C482 C 0.03254 0.10288 0.51773 0.0
C483 C 0.07443 0.09661 0.57991 0.0
C484 C 0.08068 0.09312 0.59925 0.0
C485 C 0.07083 0.07911 0.60802 0.0
C486 C 0.07713 0.07527 0.62618 0.0
C487 C 0.09343 0.08532 0.63577 0.0
C488 C 0.10325 0.09933 0.62684 0.0
C489 C 0.0969 0.1032 0.60871 0.0
C490 C 0.0144 0.06136 0.55288 0.0
C491 C 0.04418 0.03182 0.54287 0.0
O492 O 1.00037 0.0493 0.49376 0.0
O493 O 0.01816 0.03408 0.48272 0.0
O494 O 0.05362 0.07316 0.52211 0.0
O495 O 0.05243 0.06292 0.49399 0.0
O496 O 0.04296 0.10353 0.53411 0.0
O497 O 0.02436 0.08678 0.50694 0.0
O498 O 0.07629 0.08435 0.56636 0.0
O499 O 0.05954 0.10125 0.57716 0.0
O500 O 0.02221 0.06169 0.53892 0.0
O501 O 0.02488 0.07106 0.56776 0.0
O502 O 0.03364 0.03097 0.52653 0.0
O503 O 0.05218 0.04795 0.55365 0.0
H504 H 0.9929 0.01204 0.44881 0.0
H505 H 0.98061 0.01681 0.41664 0.0
H506 H 0.98579 0.07608 0.43538 0.0
H507 H 0.9982 0.07133 0.46741 0.0
H508 H 0.05835 0.07102 0.60074 0.0
H509 H 0.06938 0.06424 0.63259 0.0
H510 H 0.11578 0.10744 0.63395 0.0
H511 H 0.10469 0.11397 0.60202 0.0
Pr512 Pr 0.28587 0.79066 0.77251 0.0
Pr513 Pr 0.30166 0.83586 0.77264 0.0
C514 C 0.27618 0.75331 0.76067 0.0
C515 C 0.28005 0.73524 0.76501 0.0
C516 C 0.29213 0.73432 0.78089 0.0
C517 C 0.29797 0.71774 0.78287 0.0
C518 C 0.29193 0.70195 0.76888 0.0
C519 C 0.27913 0.70272 0.75355 0.0
C520 C 0.27324 0.71923 0.75166 0.0
C521 C 0.28635 0.81057 0.80808 0.0
C522 C 0.32742 0.80925 0.79013 0.0
C523 C 0.30959 0.87394 0.77819 0.0
C524 C 0.30154 0.88801 0.78646 0.0
C525 C 0.3094 0.90735 0.78811 0.0
C526 C 0.30197 0.92071 0.79664 0.0
C527 C 0.28657 0.91484 0.80366 0.0
C528 C 0.2787 0.89538 0.8018 0.0
C529 C 0.28615 0.88207 0.7933 0.0
C530 C 0.30366 0.81228 0.74072 0.0
C531 C 0.25934 0.81796 0.75954 0.0
O532 O 0.2884 0.765 0.75455 0.0
O533 O 0.26841 0.76167 0.77244 0.0
O534 O 0.29122 0.81703 0.79359 0.0
O535 O 0.28074 0.79222 0.80449 0.0
O536 O 0.32468 0.82654 0.78998 0.0
O537 O 0.31551 0.79384 0.78242 0.0
O538 O 0.31575 0.86347 0.79023 0.0
O539 O 0.30119 0.86425 0.76208 0.0
O540 O 0.29129 0.8106 0.74971 0.0
O541 O 0.31543 0.82756 0.74752 0.0
O542 O 0.26204 0.80064 0.75822 0.0
O543 O 0.27167 0.83311 0.767 0.0
H544 H 0.29758 0.74668 0.79125 0.0
H545 H 0.30768 0.71753 0.79496 0.0
H546 H 0.27439 0.69102 0.74233 0.0
H547 H 0.26404 0.71983 0.7392 0.0
H548 H 0.32131 0.9121 0.78288 0.0
H549 H 0.3082 0.93562 0.79762 0.0
H550 H 0.26694 0.89037 0.80716 0.0
H551 H 0.27998 0.86713 0.79221 0.0
Pr552 Pr 0.55075 0.0602 0.05369 0.0
Pr553 Pr 0.53967 0.06267 0.01099 0.0
C554 C 0.56182 0.07152 0.09097 0.0
C555 C 0.55894 0.08594 0.10488 0.0
C556 C 0.55816 0.08203 0.12359 0.0
C557 C 0.55426 0.09511 0.13659 0.0
C558 C 0.55097 0.11227 0.13101 0.0
C559 C 0.55214 0.11634 0.11234 0.0
C560 C 0.55617 0.1033 0.0994 0.0
C561 C 0.55222 0.0255 0.03414 0.0
C562 C 0.50923 0.04837 0.03713 0.0
C563 C 0.52705 0.05731 0.97341 0.0
C564 C 0.53066 0.04731 0.95633 0.0
C565 C 0.53322 0.05692 0.94038 0.0
C566 C 0.53807 0.04808 0.9247 0.0
C567 C 0.54063 0.0296 0.9249 0.0
C568 C 0.53758 0.01981 0.94062 0.0
C569 C 0.53248 0.02852 0.95611 0.0
C570 C 0.54507 0.09697 0.03446 0.0
C571 C 0.58011 0.07157 0.02652 0.0
O572 O 0.57032 0.07791 0.07773 0.0
O573 O 0.54871 0.05722 0.08457 0.0
O574 O 0.54791 0.03926 0.02669 0.0
O575 O 0.55598 0.02946 0.05248 0.0
O576 O 0.51308 0.05089 0.02008 0.0
O577 O 0.5211 0.052 0.05257 0.0
O578 O 0.52039 0.04678 0.98563 0.0
O579 O 0.53885 0.07221 0.98153 0.0
O580 O 0.53735 0.08096 0.03808 0.0
O581 O 0.54983 0.09567 0.01801 0.0
O582 O 0.57566 0.07546 0.0431 0.0
O583 O 0.56852 0.06257 0.01188 0.0
H584 H 0.56022 0.06868 0.12804 0.0
H585 H 0.55319 0.09148 0.15082 0.0
H586 H 0.54977 0.12949 0.10772 0.0
H587 H 0.5569 0.10663 0.08505 0.0
H588 H 0.53182 0.07139 0.94024 0.0
H589 H 0.5404 0.0559 0.91272 0.0
H590 H 0.53925 0.00544 0.94097 0.0
H591 H 0.53021 0.02063 0.96798 0.0
Pr592 Pr 0.2655 0.30324 0.27588 0.0
Pr593 Pr 0.30581 0.32502 0.27881 0.0
C594 C 0.23269 0.29035 0.28044 0.0
C595 C 0.21988 0.29357 0.2924 0.0
C596 C 0.21208 0.30899 0.29068 0.0
C597 C 0.19881 0.31077 0.30068 0.0
C598 C 0.193 0.29718 0.31264 0.0
C599 C 0.20119 0.28209 0.31475 0.0
C600 C 0.21439 0.28027 0.3047 0.0
C601 C 0.27563 0.31698 0.24286 0.0
C602 C 0.28 0.34856 0.29505 0.0
C603 C 0.3357 0.34019 0.26781 0.0
C604 C 0.35132 0.33448 0.26365 0.0
C605 C 0.36719 0.34771 0.26776 0.0
C606 C 0.38173 0.3433 0.26189 0.0
C607 C 0.38063 0.32561 0.25163 0.0
C608 C 0.36486 0.31209 0.24822 0.0
C609 C 0.35037 0.31644 0.25425 0.0
C610 C 0.30032 0.30714 0.31173 0.0
C611 C 0.29243 0.27836 0.26607 0.0
O612 O 0.24525 0.28312 0.28794 0.0
O613 O 0.23734 0.30299 0.26903 0.0
O614 O 0.28049 0.32544 0.25953 0.0
O615 O 0.26475 0.30085 0.24274 0.0
O616 O 0.29415 0.35022 0.28758 0.0
O617 O 0.26921 0.332 0.29514 0.0
O618 O 0.32148 0.33243 0.25592 0.0
O619 O 0.33356 0.34204 0.28562 0.0
O620 O 0.28971 0.30744 0.29716 0.0
O621 O 0.31528 0.31706 0.30979 0.0
O622 O 0.27818 0.27759 0.27312 0.0
O623 O 0.30266 0.29448 0.26351 0.0
H624 H 0.21591 0.31947 0.28125 0.0
H625 H 0.19274 0.32248 0.29852 0.0
H626 H 0.19731 0.27154 0.32408 0.0
H627 H 0.2201 0.2682 0.30628 0.0
H628 H 0.36821 0.3617 0.27496 0.0
H629 H 0.39366 0.35405 0.26461 0.0
H630 H 0.36368 0.29826 0.24058 0.0
H631 H 0.3383 0.30589 0.25105 0.0
Pr632 Pr 0.53106 0.55148 0.01227 0.0
Pr633 Pr 0.55016 0.57618 0.05528 0.0
C634 C 0.50717 0.53212 0.9833 0.0
C635 C 0.50165 0.53189 0.96278 0.0
C636 C 0.51353 0.53561 0.95037 0.0
C637 C 0.50781 0.53523 0.93088 0.0
C638 C 0.49015 0.53121 0.92355 0.0
C639 C 0.47836 0.52772 0.93615 0.0
C640 C 0.48407 0.528 0.95556 0.0
C641 C 0.56591 0.56899 0.01354 0.0
C642 C 0.53653 0.59906 0.01912 0.0
C643 C 0.57371 0.59346 0.08545 0.0
C644 C 0.57837 0.58935 0.10497 0.0
C645 C 0.59006 0.60305 0.1182 0.0
C646 C 0.59566 0.5986 0.13633 0.0
C647 C 0.58972 0.58031 0.14143 0.0
C648 C 0.5776 0.56679 0.12822 0.0
C649 C 0.57194 0.5713 0.11015 0.0
C650 C 0.51502 0.55925 0.05324 0.0
C651 C 0.54463 0.52869 0.04883 0.0
O652 O 0.50477 0.54631 0.99427 0.0
O653 O 0.52165 0.52721 0.98878 0.0
O654 O 0.55705 0.5688 0.02652 0.0
O655 O 0.5564 0.55873 0.99835 0.0
O656 O 0.54662 0.60008 0.03582 0.0
O657 O 0.52799 0.58272 0.00893 0.0
O658 O 0.57673 0.58162 0.07229 0.0
O659 O 0.55891 0.59804 0.08124 0.0
O660 O 0.52438 0.55874 0.0409 0.0
O661 O 0.52419 0.56989 0.06838 0.0
O662 O 0.53498 0.52762 0.03186 0.0
O663 O 0.55277 0.54505 0.05913 0.0
H664 H 0.52719 0.53877 0.95571 0.0
H665 H 0.51721 0.53785 0.92155 0.0
H666 H 0.46468 0.52498 0.93107 0.0
H667 H 0.47473 0.52524 0.96497 0.0
H668 H 0.5951 0.61706 0.11438 0.0
H669 H 0.60478 0.60944 0.14629 0.0
H670 H 0.5729 0.55253 0.13161 0.0
H671 H 0.5629 0.56054 0.10002 0.0
Pr672 Pr 0.784 0.29117 0.2724 0.0
Pr673 Pr 0.79669 0.33246 0.27389 0.0
C674 C 0.77073 0.25377 0.26222 0.0
C675 C 0.77779 0.2385 0.25446 0.0
C676 C 0.76998 0.21949 0.25535 0.0
C677 C 0.77726 0.20505 0.24863 0.0
C678 C 0.79243 0.2095 0.24089 0.0
C679 C 0.80004 0.22864 0.23985 0.0
C680 C 0.79284 0.24299 0.24668 0.0
C681 C 0.78457 0.31033 0.30815 0.0
C682 C 0.82403 0.30662 0.28877 0.0
C683 C 0.81133 0.36965 0.28387 0.0
C684 C 0.80853 0.38445 0.29747 0.0
C685 C 0.80708 0.40204 0.29155 0.0
C686 C 0.8024 0.41536 0.30359 0.0
C687 C 0.79895 0.41117 0.32164 0.0
C688 C 0.80111 0.39393 0.32787 0.0
C689 C 0.80597 0.38071 0.31592 0.0
C690 C 0.79629 0.31305 0.23832 0.0
C691 C 0.75595 0.31723 0.26029 0.0
O692 O 0.76864 0.26668 0.25095 0.0
O693 O 0.77752 0.26098 0.2797 0.0
O694 O 0.77947 0.3158 0.29247 0.0
O695 O 0.78869 0.29417 0.3057 0.0
O696 O 0.81954 0.32284 0.29164 0.0
O697 O 0.81324 0.29207 0.27814 0.0
O698 O 0.81751 0.35613 0.29111 0.0
O699 O 0.79909 0.36337 0.26923 0.0
O700 O 0.80153 0.30789 0.2541 0.0
O701 O 0.79193 0.32906 0.24058 0.0
O702 O 0.7599 0.30071 0.25731 0.0
O703 O 0.76745 0.33186 0.26997 0.0
H704 H 0.7584 0.21583 0.26144 0.0
H705 H 0.77118 0.19046 0.24978 0.0
H706 H 0.81153 0.23255 0.23365 0.0
H707 H 0.79908 0.25764 0.24605 0.0
H708 H 0.80901 0.4052 0.27739 0.0
H709 H 0.80071 0.42858 0.29848 0.0
H710 H 0.79876 0.39061 0.34185 0.0
H711 H 0.80729 0.36736 0.32093 0.0
Pr712 Pr 0.0462 0.57265 0.54843 0.0
Pr713 Pr 0.03358 0.56896 0.50289 0.0
C714 C 0.06029 0.58339 0.58521 0.0
C715 C 0.05744 0.58 0.60453 0.0
C716 C 0.07157 0.58289 0.61922 0.0
C717 C 0.06914 0.58283 0.63814 0.0
C718 C 0.05252 0.58006 0.64262 0.0
C719 C 0.03836 0.57601 0.62768 0.0
C720 C 0.0408 0.57589 0.6088 0.0
C721 C 0.04203 0.53672 0.52892 0.0
C722 C 0.00498 0.55705 0.53213 0.0
C723 C 0.0238 0.55474 0.46613 0.0
C724 C 0.02986 0.54303 0.45225 0.0
C725 C 0.0189 0.53464 0.43529 0.0
C726 C 0.02488 0.52441 0.42146 0.0
C727 C 0.04192 0.52243 0.42444 0.0
C728 C 0.05267 0.53032 0.4418 0.0
C729 C 0.0467 0.54059 0.45559 0.0
C730 C 0.03153 0.60449 0.52018 0.0
C731 C 0.07422 0.58745 0.5197 0.0
O732 O 0.0496 0.59177 0.57561 0.0
O733 O 0.0645 0.57001 0.57489 0.0
O734 O 0.04816 0.55222 0.52282 0.0
O735 O 0.039 0.53951 0.54612 0.0
O736 O 0.00882 0.55536 0.51481 0.0
O737 O 0.01652 0.56505 0.54734 0.0
O738 O 0.01764 0.54616 0.47989 0.0
O739 O 0.03357 0.57177 0.47178 0.0
O740 O 0.0362 0.59114 0.52787 0.0
O741 O 0.02714 0.59943 0.50198 0.0
O742 O 0.06991 0.5894 0.53671 0.0
O743 O 0.06339 0.57758 0.50479 0.0
H744 H 0.08451 0.58599 0.61613 0.0
H745 H 0.0803 0.58564 0.64927 0.0
H746 H 0.02538 0.57404 0.63052 0.0
H747 H 0.02972 0.57355 0.59761 0.0
H748 H 0.00583 0.5363 0.43259 0.0
H749 H 0.01624 0.51829 0.40832 0.0
H750 H 0.06591 0.52921 0.44444 0.0
H751 H 0.05532 0.54697 0.46867 0.0
Pr752 Pr 0.76967 0.80622 0.28263 0.0
Pr753 Pr 0.81026 0.8162 0.28718 0.0
C754 C 0.7364 0.79333 0.28567 0.0
C755 C 0.72247 0.79654 0.29596 0.0
C756 C 0.71054 0.80645 0.28809 0.0
C757 C 0.69642 0.80799 0.29669 0.0
C758 C 0.69376 0.79955 0.31335 0.0
C759 C 0.70586 0.78992 0.32142 0.0
C760 C 0.72001 0.78838 0.3128 0.0
C761 C 0.78459 0.84169 0.27311 0.0
C762 C 0.79373 0.82683 0.32469 0.0
C763 C 0.84334 0.82974 0.28361 0.0
C764 C 0.85701 0.82783 0.27239 0.0
C765 C 0.86482 0.81236 0.2732 0.0
C766 C 0.8787 0.81169 0.26381 0.0
C767 C 0.88514 0.82647 0.25338 0.0
C768 C 0.87712 0.84178 0.25234 0.0
C769 C 0.86329 0.84247 0.26177 0.0
C770 C 0.79526 0.78079 0.29679 0.0
C771 C 0.78599 0.7953 0.24517 0.0
O772 O 0.74891 0.78699 0.29473 0.0
O773 O 0.74149 0.80537 0.27387 0.0
O774 O 0.79032 0.83403 0.28704 0.0
O775 O 0.76983 0.83159 0.26424 0.0
O776 O 0.80729 0.83135 0.31625 0.0
O777 O 0.77894 0.81606 0.31548 0.0
O778 O 0.83068 0.83655 0.27566 0.0
O779 O 0.83854 0.81666 0.29454 0.0
O780 O 0.78961 0.78839 0.28276 0.0
O781 O 0.81001 0.79091 0.30576 0.0
O782 O 0.7724 0.79116 0.25358 0.0
O783 O 0.80098 0.80567 0.25436 0.0
H784 H 0.71192 0.81274 0.27502 0.0
H785 H 0.68752 0.81573 0.2902 0.0
H786 H 0.70414 0.78303 0.33409 0.0
H787 H 0.72878 0.7804 0.31912 0.0
H788 H 0.86038 0.80087 0.28131 0.0
H789 H 0.8844 0.79957 0.26473 0.0
H790 H 0.88185 0.85354 0.24467 0.0
H791 H 0.85771 0.8547 0.26108 0.0
Pr792 Pr 0.79709 0.33122 0.78273 0.0
Pr793 Pr 0.78017 0.28992 0.75974 0.0
C794 C 0.81717 0.36498 0.79855 0.0
C795 C 0.8205 0.38466 0.79428 0.0
C796 C 0.82856 0.39925 0.80885 0.0
C797 C 0.83186 0.4181 0.80504 0.0
C798 C 0.82714 0.42263 0.78656 0.0
C799 C 0.81895 0.40793 0.77198 0.0
C800 C 0.81559 0.38905 0.77584 0.0
C801 C 0.76186 0.32349 0.76904 0.0
C802 C 0.79614 0.32465 0.73518 0.0
C803 C 0.75583 0.25971 0.74256 0.0
C804 C 0.74852 0.24042 0.74662 0.0
C805 C 0.74267 0.22568 0.73166 0.0
C806 C 0.73524 0.20738 0.73529 0.0
C807 C 0.73342 0.20362 0.75393 0.0
C808 C 0.73944 0.21839 0.76892 0.0
C809 C 0.74703 0.23663 0.7653 0.0
C810 C 0.81388 0.29127 0.77754 0.0
C811 C 0.78476 0.29573 0.80701 0.0
O812 O 0.82228 0.353 0.78736 0.0
O813 O 0.80206 0.35816 0.80286 0.0
O814 O 0.77306 0.31883 0.76046 0.0
O815 O 0.76887 0.33335 0.78537 0.0
O816 O 0.78791 0.30669 0.73461 0.0
O817 O 0.80119 0.33628 0.7513 0.0
O818 O 0.75267 0.27354 0.75336 0.0
O819 O 0.77156 0.2631 0.73896 0.0
O820 O 0.80592 0.30426 0.77775 0.0
O821 O 0.8042 0.27627 0.76696 0.0
O822 O 0.79616 0.31185 0.80724 0.0
O823 O 0.77494 0.28667 0.79101 0.0
H824 H 0.83239 0.39604 0.82316 0.0
H825 H 0.83841 0.4291 0.81649 0.0
H826 H 0.81506 0.41102 0.75766 0.0
H827 H 0.80921 0.3779 0.76446 0.0
H828 H 0.74371 0.22838 0.71716 0.0
H829 H 0.73057 0.19626 0.72348 0.0
H830 H 0.73836 0.21581 0.78343 0.0
H831 H 0.75159 0.24779 0.77709 0.0
Pr832 Pr 0.77706 0.80181 0.78218 0.0
Pr833 Pr 0.81614 0.82818 0.78593 0.0
C834 C 0.74819 0.78354 0.79333 0.0
C835 C 0.73213 0.78773 0.79812 0.0
C836 C 0.71642 0.77464 0.79165 0.0
C837 C 0.70136 0.77756 0.7975 0.0
C838 C 0.70169 0.79358 0.81015 0.0
C839 C 0.71741 0.80699 0.8161 0.0
C840 C 0.73241 0.80415 0.81009 0.0
C841 C 0.7812 0.82012 0.74928 0.0
C842 C 0.78558 0.84863 0.79428 0.0
C843 C 0.84832 0.84571 0.78248 0.0
C844 C 0.86184 0.84454 0.77101 0.0
C845 C 0.87893 0.84818 0.78023 0.0
C846 C 0.89206 0.84686 0.76993 0.0
C847 C 0.88842 0.84179 0.75009 0.0
C848 C 0.87125 0.83862 0.74081 0.0
C849 C 0.85808 0.83985 0.75117 0.0
C850 C 0.80637 0.81273 0.81837 0.0
C851 C 0.80617 0.78267 0.76684 0.0
O852 O 0.76233 0.79179 0.80514 0.0
O853 O 0.7501 0.78265 0.77541 0.0
O854 O 0.792 0.82109 0.76406 0.0
O855 O 0.76688 0.80863 0.75104 0.0
O856 O 0.8004 0.85118 0.78813 0.0
O857 O 0.77666 0.8317 0.79673 0.0
O858 O 0.83463 0.85073 0.77443 0.0
O859 O 0.84497 0.83249 0.79367 0.0
O860 O 0.80284 0.80454 0.80163 0.0
O861 O 0.81583 0.82983 0.81909 0.0
O862 O 0.79179 0.7791 0.77396 0.0
O863 O 0.81574 0.80001 0.76701 0.0
H864 H 0.71585 0.76193 0.78233 0.0
H865 H 0.68948 0.76713 0.79222 0.0
H866 H 0.71832 0.81941 0.82595 0.0
H867 H 0.74433 0.81458 0.81527 0.0
H868 H 0.88214 0.85199 0.7955 0.0
H869 H 0.90509 0.84988 0.77758 0.0
H870 H 0.86786 0.8346 0.72561 0.0
H871 H 0.84497 0.83694 0.7437 0.0
Pr872 Pr 0.51973 0.55351 0.52123 0.0
Pr873 Pr 0.55997 0.57008 0.52626 0.0
C874 C 0.48613 0.5482 0.52335 0.0
C875 C 0.47265 0.55907 0.52193 0.0
C876 C 0.46999 0.56998 0.50688 0.0
C877 C 0.45744 0.58055 0.50623 0.0
C878 C 0.44754 0.58064 0.52075 0.0
C879 C 0.45021 0.5697 0.53575 0.0
C880 C 0.46256 0.55891 0.53624 0.0
C881 C 0.53476 0.54801 0.48949 0.0
C882 C 0.53551 0.59898 0.51383 0.0
C883 C 0.59345 0.57481 0.52369 0.0
C884 C 0.60677 0.56354 0.52491 0.0
C885 C 0.6178 0.56397 0.54216 0.0
C886 C 0.63056 0.55367 0.54318 0.0
C887 C 0.6327 0.54276 0.52696 0.0
C888 C 0.62168 0.54237 0.50969 0.0
C889 C 0.60892 0.55266 0.50867 0.0
C890 C 0.54492 0.57692 0.55754 0.0
C891 C 0.54392 0.52458 0.534 0.0
O892 O 0.49832 0.55331 0.53824 0.0
O893 O 0.49171 0.54368 0.50776 0.0
O894 O 0.53812 0.56281 0.501 0.0
O895 O 0.52237 0.53505 0.49355 0.0
O896 O 0.55088 0.59558 0.51367 0.0
O897 O 0.52275 0.58632 0.51846 0.0
O898 O 0.58108 0.5702 0.50893 0.0
O899 O 0.58816 0.57958 0.53942 0.0
O900 O 0.54157 0.56159 0.54668 0.0
O901 O 0.55738 0.58953 0.55308 0.0
O902 O 0.52845 0.52781 0.53349 0.0
O903 O 0.55689 0.53737 0.52991 0.0
H904 H 0.47771 0.5705 0.49573 0.0
H905 H 0.45571 0.58897 0.49458 0.0
H906 H 0.4427 0.56943 0.54707 0.0
H907 H 0.46441 0.55065 0.54799 0.0
H908 H 0.61667 0.57239 0.55488 0.0
H909 H 0.63898 0.55455 0.55664 0.0
H910 H 0.62282 0.53399 0.49695 0.0
H911 H 0.60075 0.55208 0.49509 0.0
Pr912 Pr 0.05451 0.56281 0.0298 0.0
Pr913 Pr 0.01464 0.55847 0.02152 0.0
C914 C 0.08711 0.55971 0.04115 0.0
C915 C 0.10044 0.54893 0.03868 0.0
C916 C 0.10993 0.55137 0.02376 0.0
C917 C 0.12361 0.54256 0.02282 0.0
C918 C 0.1282 0.53113 0.0368 0.0
C919 C 0.11849 0.5285 0.05153 0.0
C920 C 0.10485 0.53731 0.05247 0.0
C921 C 0.04127 0.57246 0.99463 0.0
C922 C 0.02874 0.52099 0.00979 0.0
C923 C 0.98217 0.56178 0.01053 0.0
C924 C 0.9691 0.57178 0.01558 0.0
C925 C 0.95209 0.56145 0.01396 0.0
C926 C 0.93904 0.5707 0.01659 0.0
C927 C 0.94265 0.59059 0.0207 0.0
C928 C 0.9599 0.60082 0.02324 0.0
C929 C 0.973 0.5915 0.0208 0.0
C930 C 0.02737 0.55004 0.05737 0.0
C931 C 0.04046 0.6005 0.04059 0.0
O932 O 0.07413 0.5517 0.04888 0.0
O933 O 0.08292 0.5703 0.0281 0.0
O934 O 0.03465 0.55831 0.00231 0.0
O935 O 0.05591 0.58166 0.0046 0.0
O936 O 0.0163 0.52981 0.00529 0.0
O937 O 0.04342 0.52987 0.02077 0.0
O938 O 0.9954 0.57157 0.00431 0.0
O939 O 0.98599 0.54909 0.02132 0.0
O940 O 0.03451 0.56351 0.04915 0.0
O941 O 0.01255 0.54116 0.04765 0.0
O942 O 0.05298 0.59186 0.04544 0.0
O943 O 0.02577 0.59136 0.02983 0.0
H944 H 0.10701 0.56035 0.01297 0.0
H945 H 0.13063 0.54475 0.01114 0.0
H946 H 0.12175 0.52008 0.06273 0.0
H947 H 0.09802 0.53539 0.06434 0.0
H948 H 0.9488 0.54621 0.01013 0.0
H949 H 0.92605 0.56222 0.01506 0.0
H950 H 0.96325 0.61613 0.02633 0.0
H951 H 0.98606 0.59981 0.02228 0.0
H952 H 0.04449 0.26662 0.96503 0.0
H953 H 0.04634 0.23706 0.97825 0.0
H954 H 0.00417 0.20633 0.93518 0.0
H955 H 1.0021 0.23599 0.92195 0.0
H956 H 1.0011 0.19378 0.96926 0.0
H957 H 0.0453 0.20521 0.93137 0.0
H958 H 0.07056 0.22367 0.92028 0.0
H959 H 0.10048 0.22833 0.97599 0.0
H960 H 0.07532 0.21012 0.98749 0.0
H961 H 0.01323 0.10229 0.98562 0.0
H962 H 0.01006 0.13111 0.97162 0.0
H963 H 0.05616 0.16274 0.00886 0.0
H964 H 0.06004 0.13343 0.02178 0.0
H965 H 0.05658 0.17457 0.97674 0.0
H966 H 0.01061 0.16483 0.01496 0.0
H967 H 0.98515 0.145 0.02466 0.0
H968 H 0.95888 0.13546 0.9668 0.0
H969 H 0.98396 0.15557 0.95688 0.0
C970 C 0.03553 0.25362 0.95838 0.0
C971 C 0.02319 0.25374 0.94233 0.0
C972 C 0.03666 0.23666 0.96593 0.0
C973 C 0.02557 0.21935 0.95757 0.0
C974 C 0.01292 0.21947 0.94187 0.0
C975 C 0.01177 0.23646 0.93429 0.0
C976 C 0.02739 0.20116 0.96507 0.0
C977 C 0.01321 0.18953 0.97075 0.0
C978 C 0.04319 0.19557 0.96723 0.0
C979 C 0.05837 0.20646 0.96034 0.0
C980 C 0.05723 0.2103 0.9413 0.0
C981 C 0.07153 0.2207 0.93493 0.0
C982 C 0.0871 0.22721 0.94744 0.0
C983 C 0.08841 0.2233 0.96633 0.0
C984 C 0.07413 0.21292 0.97277 0.0
C985 C 0.02262 0.11544 0.9909 0.0
C986 C 0.03678 0.11568 0.00495 0.0
C987 C 0.02073 0.13201 0.98299 0.0
C988 C 0.03255 0.14944 0.98952 0.0
C989 C 0.04675 0.14961 0.00358 0.0
C990 C 0.04894 0.13288 0.01106 0.0
C991 C 0.0304 0.16733 0.98141 0.0
C992 C 0.04451 0.1789 0.97548 0.0
C993 C 0.01452 0.17284 0.97899 0.0
C994 C 0.99914 0.16165 0.98519 0.0
C995 C 0.99933 0.15861 0.00436 0.0
C996 C 0.98495 0.14737 0.0099 0.0
C997 C 0.97037 0.13906 0.99637 0.0
C998 C 0.97009 0.14206 0.9773 0.0
C999 C 0.98433 0.15349 0.97174 0.0
H1000 H 0.95929 0.13027 1.00061 0.0
H1001 H 0.09816 0.23526 0.94248 0.0
H1002 H 0.11343 0.84821 0.19216 0.0
H1003 H 0.14184 0.85088 0.21131 0.0
H1004 H 0.1516 0.80874 0.17123 0.0
H1005 H 0.12347 0.80605 0.1521 0.0
H1006 H 0.16042 0.8018 0.20795 0.0
H1007 H 0.17028 0.85467 0.17127 0.0
H1008 H 0.16515 0.88415 0.15926 0.0
H1009 H 0.17614 0.91215 0.21636 0.0
H1010 H 0.18112 0.88274 0.22873 0.0
H1011 H 0.2492 0.81109 0.23688 0.0
H1012 H 0.221 0.81031 0.2187 0.0
H1013 H 0.21717 0.8582 0.25614 0.0
H1014 H 0.24591 0.85944 0.2738 0.0
H1015 H 0.20469 0.86241 0.22193 0.0
H1016 H 0.1955 0.80985 0.25889 0.0
H1017 H 0.20133 0.78063 0.27091 0.0
H1018 H 0.18904 0.75205 0.21402 0.0
H1019 H 0.18333 0.78118 0.20161 0.0
C1020 C 0.12165 0.83955 0.18742 0.0
C1021 C 0.11613 0.82695 0.17054 0.0
C1022 C 0.13791 0.84112 0.19835 0.0
C1023 C 0.14893 0.83005 0.19269 0.0
C1024 C 0.14337 0.8174 0.17594 0.0
C1025 C 0.12725 0.81596 0.16495 0.0
C1026 C 0.16623 0.83146 0.20413 0.0
C1027 C 0.17014 0.81503 0.21089 0.0
C1028 C 0.17885 0.84877 0.20834 0.0
C1029 C 0.17587 0.86645 0.20093 0.0
C1030 C 0.17145 0.86707 0.18127 0.0
C1031 C 0.1686 0.88377 0.1744 0.0
C1032 C 0.17026 0.9 0.18704 0.0
C1033 C 0.17482 0.89956 0.20659 0.0
C1034 C 0.17767 0.88289 0.21354 0.0
C1035 C 0.24222 0.82125 0.24137 0.0
C1036 C 0.24946 0.83496 0.25705 0.0
C1037 C 0.22608 0.82084 0.23096 0.0
C1038 C 0.21659 0.83383 0.23632 0.0
C1039 C 0.22408 0.84789 0.25176 0.0
C1040 C 0.24044 0.84854 0.26192 0.0
C1041 C 0.19892 0.83274 0.22584 0.0
C1042 C 0.19494 0.84921 0.2192 0.0
C1043 C 0.18618 0.81546 0.22184 0.0
C1044 C 0.18908 0.79774 0.22931 0.0
C1045 C 0.19407 0.79735 0.24894 0.0
C1046 C 0.19737 0.78081 0.25582 0.0
C1047 C 0.19558 0.76451 0.24323 0.0
C1048 C 0.19042 0.76469 0.22374 0.0
C1049 C 0.18712 0.7812 0.21678 0.0
H1050 H 0.19817 0.75173 0.24858 0.0
H1051 H 0.16805 0.91292 0.18169 0.0
H1052 H 0.53374 0.85084 0.44241 0.0
H1053 H 0.54013 0.88404 0.45641 0.0
H1054 H 0.48609 0.88282 0.447 0.0
H1055 H 0.47961 0.84979 0.43299 0.0
H1056 H 0.50463 0.9138 0.43453 0.0
H1057 H 0.50768 0.88232 0.49134 0.0
H1058 H 0.51818 0.86117 0.51314 0.0
H1059 H 0.56961 0.89487 0.51856 0.0
H1060 H 0.55945 0.91608 0.49657 0.0
H1061 H 0.50301 0.99896 0.48791 0.0
H1062 H 0.4992 0.96594 0.47507 0.0
H1063 H 0.55351 0.97045 0.49107 0.0
H1064 H 0.55738 0.00344 0.5045 0.0
H1065 H 0.5366 0.93808 0.49959 0.0
H1066 H 0.53418 0.97006 0.44391 0.0
H1067 H 0.52441 0.99135 0.42179 0.0
H1068 H 0.47301 0.95695 0.41343 0.0
H1069 H 0.48243 0.93559 0.4357 0.0
C1070 C 0.52321 0.85758 0.44349 0.0
C1071 C 0.50616 0.84761 0.43655 0.0
C1072 C 0.52688 0.87657 0.45153 0.0
C1073 C 0.51358 0.88595 0.4528 0.0
C1074 C 0.49657 0.87593 0.44613 0.0
C1075 C 0.49289 0.85698 0.43818 0.0
C1076 C 0.51731 0.90636 0.46048 0.0
C1077 C 0.51145 0.91907 0.44884 0.0
C1078 C 0.52671 0.91339 0.47892 0.0
C1079 C 0.53283 0.90066 0.49215 0.0
C1080 C 0.52125 0.88512 0.49705 0.0
C1081 C 0.52714 0.87315 0.50947 0.0
C1082 C 0.54456 0.87664 0.51718 0.0
C1083 C 0.55613 0.89216 0.51254 0.0
C1084 C 0.55031 0.90417 0.50011 0.0
C1085 C 0.5142 0.99302 0.48862 0.0
C1086 C 0.53053 0.00397 0.49714 0.0
C1087 C 0.512 0.97409 0.48119 0.0
C1088 C 0.5261 0.9657 0.48179 0.0
C1089 C 0.54242 0.97657 0.49037 0.0
C1090 C 0.54462 0.99549 0.49798 0.0
C1091 C 0.52371 0.94553 0.47371 0.0
C1092 C 0.52985 0.93286 0.48524 0.0
C1093 C 0.51469 0.93855 0.45509 0.0
C1094 C 0.50899 0.95131 0.44161 0.0
C1095 C 0.52077 0.96711 0.43746 0.0
C1096 C 0.5153 0.97918 0.42488 0.0
C1097 C 0.49809 0.97553 0.41625 0.0
C1098 C 0.48633 0.95977 0.42014 0.0
C1099 C 0.49173 0.94766 0.43273 0.0
H1100 H 0.49388 0.98489 0.40652 0.0
H1101 H 0.54909 0.86735 0.5268 0.0
H1102 H 0.52879 0.32964 0.68894 0.0
H1103 H 0.50438 0.33119 0.70497 0.0
H1104 H 0.47366 0.33459 0.65127 0.0
H1105 H 0.49799 0.33331 0.63523 0.0
H1106 H 0.46886 0.35949 0.67814 0.0
H1107 H 0.46884 0.29318 0.67221 0.0
H1108 H 0.48126 0.26534 0.67604 0.0
H1109 H 0.49086 0.27917 0.73672 0.0
H1110 H 0.47869 0.30725 0.73324 0.0
H1111 H 0.38692 0.33991 0.70633 0.0
H1112 H 0.41155 0.33856 0.69072 0.0
H1113 H 0.44144 0.33396 0.74457 0.0
H1114 H 0.41684 0.33518 0.76022 0.0
H1115 H 0.44686 0.30989 0.71786 0.0
H1116 H 0.44649 0.37604 0.72383 0.0
H1117 H 0.43361 0.40355 0.71996 0.0
H1118 H 0.42459 0.39003 0.65927 0.0
H1119 H 0.43718 0.36224 0.66278 0.0
C1120 C 0.51684 0.3307 0.68054 0.0
C1121 C 0.51538 0.33128 0.66077 0.0
C1122 C 0.50286 0.33153 0.68972 0.0
C1123 C 0.48708 0.33283 0.67932 0.0
C1124 C 0.48567 0.3336 0.65962 0.0
C1125 C 0.49961 0.33279 0.65045 0.0
C1126 C 0.47202 0.33339 0.68887 0.0
C1127 C 0.46394 0.34852 0.68665 0.0
C1128 C 0.46575 0.31932 0.70032 0.0
C1129 C 0.47302 0.30242 0.70245 0.0
C1130 C 0.47372 0.29037 0.68636 0.0
C1131 C 0.48069 0.27453 0.68847 0.0
C1132 C 0.48689 0.27052 0.70661 0.0
C1133 C 0.48608 0.28231 0.72268 0.0
C1134 C 0.47914 0.29818 0.72065 0.0
C1135 C 0.39876 0.33873 0.71488 0.0
C1136 C 0.39986 0.33765 0.73456 0.0
C1137 C 0.41287 0.33796 0.70593 0.0
C1138 C 0.42848 0.33638 0.71648 0.0
C1139 C 0.42955 0.33514 0.73608 0.0
C1140 C 0.41544 0.33578 0.74502 0.0
C1141 C 0.4437 0.33599 0.70714 0.0
C1142 C 0.4518 0.3209 0.7094 0.0
C1143 C 0.44999 0.3501 0.69574 0.0
C1144 C 0.44265 0.36697 0.69357 0.0
C1145 C 0.44167 0.37887 0.70966 0.0
C1146 C 0.43444 0.39452 0.70753 0.0
C1147 C 0.42829 0.39853 0.68939 0.0
C1148 C 0.42937 0.38691 0.67332 0.0
C1149 C 0.43656 0.37121 0.67537 0.0
H1150 H 0.42268 0.41064 0.68777 0.0
H1151 H 0.49228 0.25826 0.70821 0.0
H1152 H 0.04275 0.87425 0.61524 0.0
H1153 H 0.03851 0.90289 0.60146 0.0
H1154 H 0.08833 0.91109 0.58475 0.0
H1155 H 0.09287 0.88276 0.59907 0.0
H1156 H 0.08486 0.94348 0.59841 0.0
H1157 H 0.04953 0.8945 0.55208 0.0
H1158 H 0.02717 0.86538 0.53992 0.0
H1159 H 0.98908 0.89134 0.55929 0.0
H1160 H 0.01126 0.92054 0.57179 0.0
H1161 H 0.03966 0.99723 0.52193 0.0
H1162 H 0.04484 0.96776 0.53325 0.0
H1163 H 0.05921 0.99576 0.59073 0.0
H1164 H 0.05489 0.0254 0.57935 0.0
H1165 H 0.0317 0.94465 0.55455 0.0
H1166 H 0.08686 0.97703 0.61769 0.0
H1167 H 0.11065 0.00551 0.62659 0.0
H1168 H 0.11212 0.01125 0.56759 0.0
H1169 H 0.08848 0.98268 0.55834 0.0
C1170 C 0.05278 0.88206 0.60853 0.0
C1171 C 0.06815 0.87612 0.60824 0.0
C1172 C 0.05031 0.89846 0.60056 0.0
C1173 C 0.063 0.90916 0.59179 0.0
C1174 C 0.07832 0.90318 0.59141 0.0
C1175 C 0.08088 0.88688 0.59955 0.0
C1176 C 0.06047 0.92679 0.58343 0.0
C1177 C 0.07323 0.94368 0.58879 0.0
C1178 C 0.04548 0.92717 0.57055 0.0
C1179 C 0.03209 0.90965 0.56302 0.0
C1180 C 0.03641 0.89395 0.55387 0.0
C1181 C 0.02376 0.87744 0.5469 0.0
C1182 C 0.00672 0.8765 0.54888 0.0
C1183 C 1.00228 0.89208 0.55779 0.0
C1184 C 0.01488 0.90863 0.5648 0.0
C1185 C 0.04401 0.99712 0.53697 0.0
C1186 C 0.04702 0.01376 0.54968 0.0
C1187 C 0.04693 0.98022 0.54346 0.0
C1188 C 0.05273 0.97945 0.56286 0.0
C1189 C 0.05526 0.99596 0.57563 0.0
C1190 C 0.05268 0.01295 0.5691 0.0
C1191 C 0.05599 0.96141 0.56973 0.0
C1192 C 0.04335 0.94445 0.56412 0.0
C1193 C 0.07133 0.96085 0.58193 0.0
C1194 C 0.0858 0.97781 0.58734 0.0
C1195 C 0.09233 0.98431 0.60662 0.0
C1196 C 0.10577 1.00048 0.61173 0.0
C1197 C 0.11286 0.01021 0.59767 0.0
C1198 C 0.10658 0.00374 0.57847 0.0
C1199 C 0.09315 0.98756 0.57329 0.0
H1200 H 0.12324 0.02275 0.60165 0.0
H1201 H 0.99695 0.8637 0.54347 0.0
H1202 H 0.45954 0.80912 0.91114 0.0
H1203 H 0.4326 0.80791 0.89021 0.0
H1204 H 0.4543 0.79189 0.8417 0.0
H1205 H 0.48155 0.79333 0.86264 0.0
H1206 H 0.4368 0.8181 0.8337 0.0
H1207 H 0.42515 0.75916 0.85946 0.0
H1208 H 0.42384 0.73775 0.88451 0.0
H1209 H 0.38908 0.76557 0.90872 0.0
H1210 H 0.39037 0.78733 0.88396 0.0
H1211 H 0.33837 0.77633 0.79441 0.0
H1212 H 0.36612 0.77301 0.81082 0.0
H1213 H 0.38257 0.83378 0.82439 0.0
H1214 H 0.35507 0.83727 0.80783 0.0
H1215 H 0.3813 0.78144 0.84671 0.0
H1216 H 0.42537 0.84842 0.82611 0.0
H1217 H 0.42677 0.8675 0.79915 0.0
H1218 H 0.39689 0.81919 0.76099 0.0
H1219 H 0.39552 0.79975 0.78766 0.0
C1220 C 0.45863 0.80526 0.89603 0.0
C1221 C 0.47276 0.80126 0.88862 0.0
C1222 C 0.44313 0.80449 0.88406 0.0
C1223 C 0.44127 0.79957 0.86435 0.0
C1224 C 0.45537 0.79567 0.85685 0.0
C1225 C 0.47094 0.79644 0.86885 0.0
C1226 C 0.42468 0.79889 0.85168 0.0
C1227 C 0.42468 0.81004 0.83653 0.0
C1228 C 0.40882 0.78807 0.85503 0.0
C1229 C 0.40796 0.77498 0.86993 0.0
C1230 C 0.41732 0.76081 0.8702 0.0
C1231 C 0.41657 0.74859 0.88434 0.0
C1232 C 0.40641 0.75033 0.89822 0.0
C1233 C 0.39695 0.76426 0.89796 0.0
C1234 C 0.39767 0.77652 0.88387 0.0
C1235 C 0.34792 0.78902 0.80077 0.0
C1236 C 0.34442 0.80709 0.79968 0.0
C1237 C 0.36379 0.78708 0.81022 0.0
C1238 C 0.37658 0.80314 0.81871 0.0
C1239 C 0.37309 0.82117 0.81769 0.0
C1240 C 0.35726 0.82313 0.80824 0.0
C1241 C 0.39338 0.80109 0.82909 0.0
C1242 C 0.39342 0.78944 0.84382 0.0
C1243 C 0.40928 0.81116 0.82511 0.0
C1244 C 0.41022 0.82268 0.80893 0.0
C1245 C 0.41917 0.84185 0.81195 0.0
C1246 C 0.41994 0.85273 0.79672 0.0
C1247 C 0.41188 0.84458 0.77838 0.0
C1248 C 0.40308 0.82551 0.77521 0.0
C1249 C 0.40228 0.81456 0.79039 0.0
H1250 H 0.41248 0.85303 0.76661 0.0
H1251 H 0.40584 0.74085 0.90915 0.0
H1252 H 0.53392 0.25775 0.12369 0.0
H1253 H 0.52911 0.22446 0.11029 0.0
H1254 H 0.57632 0.23793 0.08803 0.0
H1255 H 0.58124 0.27103 0.10137 0.0
H1256 H 0.54954 0.21657 0.06152 0.0
H1257 H 0.57426 0.21467 0.12743 0.0
H1258 H 0.57529 0.21938 0.16214 0.0
H1259 H 0.52511 0.18258 0.15597 0.0
H1260 H 0.52383 0.17748 0.12121 0.0
H1261 H 0.56779 0.13028 0.03428 0.0
H1262 H 0.56863 0.16133 0.05062 0.0
H1263 H 0.52468 0.13672 0.07531 0.0
H1264 H 0.52426 0.10529 0.05941 0.0
H1265 H 0.54572 0.16287 0.10057 0.0
H1266 H 0.52099 0.16226 0.03606 0.0
H1267 H 0.51826 0.15734 1.00115 0.0
H1268 H 0.56528 0.19921 0.00395 0.0
H1269 H 0.56842 0.20421 0.03891 0.0
C1270 C 0.54325 0.25363 0.11589 0.0
C1271 C 0.55796 0.26713 0.11359 0.0
C1272 C 0.54054 0.23455 0.10834 0.0
C1273 C 0.55242 0.22861 0.09826 0.0
C1274 C 0.56697 0.24212 0.09577 0.0
C1275 C 0.56977 0.26109 0.10343 0.0
C1276 C 0.54968 0.2085 0.08979 0.0
C1277 C 0.54888 0.20486 0.0701 0.0
C1278 C 0.54804 0.19305 0.10082 0.0
C1279 C 0.54888 0.19588 0.12171 0.0
C1280 C 0.56342 0.20764 0.13347 0.0
C1281 C 0.56408 0.2103 0.15315 0.0
C1282 C 0.55028 0.20125 0.16125 0.0
C1283 C 0.53582 0.18948 0.14967 0.0
C1284 C 0.53514 0.18666 0.12999 0.0
C1285 C 0.55835 0.13147 0.04326 0.0
C1286 C 0.54589 0.11541 0.04545 0.0
C1287 C 0.55877 0.14927 0.05254 0.0
C1288 C 0.54643 0.1516 0.06384 0.0
C1289 C 0.53426 0.13541 0.06655 0.0
C1290 C 0.53399 0.11746 0.05744 0.0
C1291 C 0.54617 0.17102 0.07231 0.0
C1292 C 0.54628 0.17453 0.09194 0.0
C1293 C 0.54686 0.18638 0.06118 0.0
C1294 C 0.545 0.18351 0.04013 0.0
C1295 C 0.5308 0.17034 0.02924 0.0
C1296 C 0.52918 0.16754 0.00944 0.0
C1297 C 0.54161 0.17793 1.00034 0.0
C1298 C 0.55567 0.19117 0.01102 0.0
C1299 C 0.55736 0.19401 0.03083 0.0
H1300 H 0.54032 0.17574 0.98501 0.0
H1301 H 0.55079 0.20338 0.17648 0.0
H1302 H 0.06658 0.32869 0.39433 0.0
H1303 H 0.09251 0.33029 0.38022 0.0
H1304 H 0.07988 0.26926 0.36844 0.0
H1305 H 0.05413 0.26752 0.38268 0.0
H1306 H 0.11294 0.28211 0.38382 0.0
H1307 H 0.07419 0.29791 0.33313 0.0
H1308 H 0.05429 0.31603 0.31851 0.0
H1309 H 0.09425 0.36714 0.33087 0.0
H1310 H 0.11434 0.34935 0.34579 0.0
H1311 H 0.16698 0.26795 0.31793 0.0
H1312 H 0.14244 0.26963 0.33342 0.0
H1313 H 0.16005 0.33052 0.3442 0.0
H1314 H 0.1849 0.32896 0.32896 0.0
H1315 H 0.12565 0.3198 0.33073 0.0
H1316 H 0.16477 0.30384 0.38004 0.0
H1317 H 0.18478 0.2858 0.39458 0.0
H1318 H 0.14424 0.23521 0.38503 0.0
H1319 H 0.12403 0.25289 0.37018 0.0
C1320 C 0.06928 0.31561 0.38865 0.0
C1321 C 0.05823 0.29797 0.38964 0.0
C1322 C 0.08409 0.31655 0.38053 0.0
C1323 C 0.08812 0.2999 0.37313 0.0
C1324 C 0.07709 0.28231 0.37406 0.0
C1325 C 0.0623 0.28135 0.38217 0.0
C1326 C 0.10397 0.30064 0.36472 0.0
C1327 C 0.1156 0.29019 0.37207 0.0
C1328 C 0.10777 0.31163 0.34976 0.0
C1329 C 0.09572 0.32234 0.34077 0.0
C1330 C 0.0787 0.31304 0.33287 0.0
C1331 C 0.06739 0.32324 0.3245 0.0
C1332 C 0.07299 0.34273 0.32381 0.0
C1333 C 0.08992 0.35205 0.33144 0.0
C1334 C 0.10128 0.34191 0.33985 0.0
C1335 C 0.16584 0.28171 0.32384 0.0
C1336 C 0.17808 0.29831 0.3223 0.0
C1337 C 0.15172 0.28264 0.33263 0.0
C1338 C 0.14947 0.30018 0.34017 0.0
C1339 C 0.16151 0.31682 0.33849 0.0
C1340 C 0.17569 0.3159 0.32972 0.0
C1341 C 0.13445 0.30103 0.34965 0.0
C1342 C 0.12302 0.31181 0.34254 0.0
C1343 C 0.13083 0.29036 0.36486 0.0
C1344 C 0.14292 0.27967 0.37384 0.0
C1345 C 0.16015 0.28884 0.3809 0.0
C1346 C 0.17152 0.27868 0.38922 0.0
C1347 C 0.16579 0.25936 0.39069 0.0
C1348 C 0.14866 0.25017 0.38387 0.0
C1349 C 0.13724 0.26026 0.37551 0.0
H1350 H 0.17461 0.25152 0.39714 0.0
H1351 H 0.06421 0.35061 0.31732 0.0
H1352 H 0.9596 0.04369 0.19213 0.0
H1353 H 0.98131 0.05341 0.17232 0.0
H1354 H 0.94196 0.05954 0.12711 0.0
H1355 H 0.92014 0.04959 0.14669 0.0
H1356 H 0.96349 0.04065 0.11414 0.0
H1357 H 0.96859 0.09829 0.15458 0.0
H1358 H 0.97258 0.11826 0.18516 0.0
H1359 H 0.02223 0.10691 0.20132 0.0
H1360 H 0.01843 0.08665 0.17093 0.0
H1361 H 0.01461 0.08815 0.05475 0.0
H1362 H 0.99573 0.0858 0.07873 0.0
H1363 H 0.03458 0.0705 0.11838 0.0
H1364 H 0.05358 0.07306 0.09447 0.0
H1365 H 0.0141 0.09466 0.13476 0.0
H1366 H 0.00857 0.03607 0.09559 0.0
H1367 H 0.00427 0.01452 0.066 0.0
H1368 H 0.95532 0.02694 0.04813 0.0
H1369 H 0.95947 0.04884 0.07751 0.0
C1370 C 0.95555 0.04706 0.17795 0.0
C1371 C 0.93815 0.04586 0.17097 0.0
C1372 C 0.96799 0.05275 0.16671 0.0
C1373 C 0.96325 0.05746 0.14837 0.0
C1374 C 0.94587 0.05604 0.14127 0.0
C1375 C 0.93343 0.05032 0.15247 0.0
C1376 C 0.97632 0.06326 0.13627 0.0
C1377 C 0.97439 0.05266 0.11853 0.0
C1378 C 0.99081 0.07858 0.14229 0.0
C1379 C 0.99315 0.0908 0.16055 0.0
C1380 C 0.9803 0.09993 0.16472 0.0
C1381 C 0.98254 0.11132 0.18201 0.0
C1382 C 0.99763 0.11381 0.1952 0.0
C1383 C 0.01054 0.10495 0.1911 0.0
C1384 C 0.00836 0.09353 0.17384 0.0
C1385 C 0.01924 0.08485 0.0688 0.0
C1386 C 0.03541 0.08081 0.07297 0.0
C1387 C 0.00848 0.0834 0.08235 0.0
C1388 C 0.0137 0.07764 0.10007 0.0
C1389 C 0.03038 0.07498 0.10475 0.0
C1390 C 0.04119 0.07647 0.09118 0.0
C1391 C 1.00105 0.07218 0.11263 0.0
C1392 C 1.0031 0.08276 0.1304 0.0
C1393 C 0.98665 0.05679 0.10671 0.0
C1394 C 0.98441 0.04424 0.08867 0.0
C1395 C 0.99699 0.0344 0.08524 0.0
C1396 C 0.99454 0.02203 0.06856 0.0
C1397 C 0.97948 0.01926 0.05525 0.0
C1398 C 0.96692 0.02899 0.05852 0.0
C1399 C 0.96933 0.04141 0.07517 0.0
H1400 H 0.97761 0.00968 0.04234 0.0
H1401 H 0.99934 0.12264 0.20857 0.0
H1402 H 0.29665 0.74104 0.47631 0.0
H1403 H 0.29779 0.75846 0.44844 0.0
H1404 H 0.25867 0.71285 0.41515 0.0
H1405 H 0.25776 0.69524 0.44272 0.0
H1406 H 0.28312 0.72381 0.3955 0.0
H1407 H 0.2503 0.75581 0.4321 0.0
H1408 H 0.24465 0.77315 0.4606 0.0
H1409 H 0.28901 0.8178 0.45992 0.0
H1410 H 0.29504 0.80059 0.43154 0.0
H1411 H 0.25907 0.76909 0.31585 0.0
H1412 H 0.25825 0.75465 0.34545 0.0
H1413 H 0.30086 0.79944 0.37383 0.0
H1414 H 0.30175 0.81412 0.34428 0.0
H1415 H 0.27592 0.7899 0.39631 0.0
H1416 H 0.30823 0.75818 0.3592 0.0
H1417 H 0.31327 0.7413 0.33011 0.0
H1418 H 0.26947 0.6962 0.33155 0.0
H1419 H 0.26401 0.71298 0.36051 0.0
C1420 C 0.28826 0.73476 0.46307 0.0
C1421 C 0.27711 0.71673 0.46178 0.0
C1422 C 0.28887 0.74477 0.44714 0.0
C1423 C 0.27819 0.73708 0.42967 0.0
C1424 C 0.26706 0.7191 0.42841 0.0
C1425 C 0.26652 0.70905 0.44425 0.0
C1426 C 0.27873 0.74749 0.41257 0.0
C1427 C 0.28134 0.73818 0.39566 0.0
C1428 C 0.27686 0.76644 0.4128 0.0
C1429 C 0.27322 0.77682 0.42982 0.0
C1430 C 0.25892 0.76926 0.43812 0.0
C1431 C 0.25564 0.77907 0.45423 0.0
C1432 C 0.26649 0.79654 0.46209 0.0
C1433 C 0.28063 0.80425 0.45383 0.0
C1434 C 0.28398 0.79448 0.43772 0.0
C1435 C 0.26817 0.77603 0.32841 0.0
C1436 C 0.28054 0.79275 0.32762 0.0
C1437 C 0.26772 0.76769 0.34532 0.0
C1438 C 0.27963 0.77583 0.3618 0.0
C1439 C 0.29156 0.7929 0.36128 0.0
C1440 C 0.29207 0.80124 0.34434 0.0
C1441 C 0.28006 0.76608 0.3793 0.0
C1442 C 0.27772 0.77554 0.39623 0.0
C1443 C 0.28216 0.74725 0.37911 0.0
C1444 C 0.28563 0.73691 0.36194 0.0
C1445 C 0.29962 0.74471 0.35326 0.0
C1446 C 0.30256 0.73516 0.33679 0.0
C1447 C 0.29168 0.7177 0.32896 0.0
C1448 C 0.27788 0.70973 0.33762 0.0
C1449 C 0.27487 0.71925 0.35408 0.0
H1450 H 0.29396 0.71033 0.3162 0.0
H1451 H 0.26393 0.80412 0.47457 0.0
H1452 H 0.58321 0.9942 0.70839 0.0
H1453 H 0.56992 1.00073 0.67767 0.0
H1454 H 0.60414 0.97448 0.65002 0.0
H1455 H 0.61783 0.96809 0.68103 0.0
H1456 H 0.60265 0.00824 0.63769 0.0
H1457 H 0.56204 0.9525 0.64414 0.0
H1458 H 0.54257 0.93043 0.66001 0.0
H1459 H 0.51233 0.9715 0.66616 0.0
H1460 H 0.53176 0.99394 0.65058 0.0
H1461 H 0.5549 0.02424 0.54985 0.0
H1462 H 0.56873 0.00875 0.57485 0.0
H1463 H 0.54026 0.03015 0.61455 0.0
H1464 H 0.52623 0.04535 0.58935 0.0
H1465 H 0.53954 0.99343 0.6169 0.0
H1466 H 0.58297 0.05025 0.61301 0.0
H1467 H 0.6028 0.07155 0.59682 0.0
H1468 H 0.62809 0.02693 0.58505 0.0
H1469 H 0.60812 0.0052 0.60074 0.0
C1470 C 0.58784 0.9896 0.6958 0.0
C1471 C 0.60159 0.98062 0.69716 0.0
C1472 C 0.58015 0.99327 0.6782 0.0
C1473 C 0.5859 0.9879 0.66152 0.0
C1474 C 0.59947 0.97867 0.66273 0.0
C1475 C 0.60721 0.97496 0.68042 0.0
C1476 C 0.57821 0.99301 0.64311 0.0
C1477 C 0.58888 0.00466 0.63287 0.0
C1478 C 0.56024 0.98843 0.63693 0.0
C1479 C 0.54844 0.97496 0.64627 0.0
C1480 C 0.55131 0.95689 0.64899 0.0
C1481 C 0.54027 0.9443 0.65792 0.0
C1482 C 0.52624 0.94957 0.66411 0.0
C1483 C 0.5232 0.96743 0.66136 0.0
C1484 C 0.53421 0.98008 0.65245 0.0
C1485 C 0.55173 0.0257 0.56395 0.0
C1486 C 0.53971 0.03606 0.56789 0.0
C1487 C 0.55962 0.01687 0.57821 0.0
C1488 C 0.55564 0.01844 0.59661 0.0
C1489 C 0.54351 0.02876 0.60044 0.0
C1490 C 0.53558 0.0375 0.58615 0.0
C1491 C 0.56392 0.00927 0.61196 0.0
C1492 C 0.55334 0.99676 0.62154 0.0
C1493 C 0.58197 0.01294 0.61739 0.0
C1494 C 0.59392 0.02603 0.60788 0.0
C1495 C 0.59264 0.04491 0.6068 0.0
C1496 C 0.60391 0.05707 0.59772 0.0
C1497 C 0.61668 0.05059 0.5899 0.0
C1498 C 0.61817 0.03192 0.59109 0.0
C1499 C 0.60686 0.01967 0.60005 0.0
H1500 H 0.62544 0.06005 0.58296 0.0
H1501 H 0.5177 0.9398 0.67102 0.0
H1502 H 0.32368 0.43813 0.97875 0.0
H1503 H 0.32057 0.42201 0.94685 0.0
H1504 H 0.28219 0.37592 0.96002 0.0
H1505 H 0.28586 0.39179 0.99252 0.0
H1506 H 0.30105 0.3618 0.93915 0.0
H1507 H 0.27174 0.41146 0.93247 0.0
H1508 H 0.26753 0.44403 0.93647 0.0
H1509 H 0.3087 0.46331 0.90613 0.0
H1510 H 0.31332 0.4309 0.90217 0.0
H1511 H 0.27174 0.32795 0.83983 0.0
H1512 H 0.27306 0.34134 0.87265 0.0
H1513 H 0.31805 0.38411 0.86842 0.0
H1514 H 0.31691 0.37077 0.83563 0.0
H1515 H 0.2934 0.39873 0.88442 0.0
H1516 H 0.32225 0.34747 0.8922 0.0
H1517 H 0.32433 0.31413 0.88748 0.0
H1518 H 0.28076 0.29697 0.91494 0.0
H1519 H 0.27828 0.3302 0.91959 0.0
C1520 C 0.31457 0.42454 0.97492 0.0
C1521 C 0.30488 0.41635 0.98814 0.0
C1522 C 0.31272 0.41535 0.95657 0.0
C1523 C 0.30078 0.39793 0.95071 0.0
C1524 C 0.2914 0.38941 0.96407 0.0
C1525 C 0.29348 0.39849 0.98265 0.0
C1526 C 0.29817 0.38886 0.93063 0.0
C1527 C 0.2991 0.36983 0.92721 0.0
C1528 C 0.29573 0.39925 0.91488 0.0
C1529 C 0.29296 0.41877 0.91716 0.0
C1530 C 0.27997 0.42267 0.92676 0.0
C1531 C 0.2775 0.4411 0.92901 0.0
C1532 C 0.28787 0.45574 0.9216 0.0
C1533 C 0.3007 0.45196 0.91188 0.0
C1534 C 0.30323 0.43356 0.90961 0.0
C1535 C 0.28193 0.34022 0.84585 0.0
C1536 C 0.29424 0.34826 0.83504 0.0
C1537 C 0.2827 0.34781 0.86467 0.0
C1538 C 0.29572 0.36367 0.87307 0.0
C1539 C 0.30789 0.37186 0.86225 0.0
C1540 C 0.30725 0.36417 0.8435 0.0
C1541 C 0.2966 0.37188 0.89305 0.0
C1542 C 0.29528 0.39074 0.89641 0.0
C1543 C 0.29836 0.36123 0.90865 0.0
C1544 C 0.29998 0.34129 0.90607 0.0
C1545 C 0.31304 0.33657 0.8971 0.0
C1546 C 0.3143 0.3177 0.89446 0.0
C1547 C 0.30266 0.30343 0.90085 0.0
C1548 C 0.28976 0.30803 0.90997 0.0
C1549 C 0.28843 0.32688 0.91262 0.0
H1550 H 0.30365 0.28883 0.89878 0.0
H1551 H 0.28594 0.47 0.92335 0.0
H1552 H 0.93036 0.04792 0.2468 0.0
H1553 H 0.94468 0.04969 0.27955 0.0
H1554 H 0.90334 0.0694 0.29972 0.0
H1555 H 0.88877 0.06767 0.26681 0.0
H1556 H 0.93745 0.08787 0.32 0.0
H1557 H 0.90142 0.02538 0.29946 0.0
H1558 H 0.89036 0.99595 0.27734 0.0
H1559 H 0.94061 0.98471 0.28444 0.0
H1560 H 0.95205 0.01427 0.30631 0.0
H1561 H 0.95641 0.06479 0.41447 0.0
H1562 H 0.94244 0.06842 0.3827 0.0
H1563 H 0.97596 0.03879 0.3577 0.0
H1564 H 0.98969 0.03476 0.38947 0.0
H1565 H 0.94449 0.02582 0.34003 0.0
H1566 H 0.98103 0.08801 0.35961 0.0
H1567 H 0.99303 0.11795 0.38073 0.0
H1568 H 0.94317 0.13019 0.37498 0.0
H1569 H 0.93083 0.10018 0.35401 0.0
C1570 C 0.92437 0.05289 0.25814 0.0
C1571 C 0.90829 0.0574 0.25422 0.0
C1572 C 0.93259 0.05388 0.27684 0.0
C1573 C 0.92491 0.0594 0.29197 0.0
C1574 C 0.90939 0.06504 0.28816 0.0
C1575 C 0.90108 0.06397 0.26939 0.0
C1576 C 0.93254 0.05781 0.31166 0.0
C1577 C 0.9388 0.07431 0.32454 0.0
C1578 C 0.93455 0.04012 0.31731 0.0
C1579 C 0.92762 0.02214 0.30441 0.0
C1580 C 0.91014 0.01671 0.2962 0.0
C1581 C 0.9038 1.0 0.28371 0.0
C1582 C 0.91477 0.98848 0.27947 0.0
C1583 C 0.93212 0.99365 0.28773 0.0
C1584 C 0.93854 0.01038 0.30018 0.0
C1585 C 0.96088 0.05922 0.40218 0.0
C1586 C 0.97414 0.04953 0.40438 0.0
C1587 C 0.95292 0.06133 0.38404 0.0
C1588 C 0.95829 0.05408 0.36781 0.0
C1589 C 0.9716 0.04447 0.37002 0.0
C1590 C 0.97942 0.04217 0.38814 0.0
C1591 C 0.94971 0.05595 0.34849 0.0
C1592 C 0.94317 0.03944 0.33562 0.0
C1593 C 0.94757 0.07366 0.34285 0.0
C1594 C 0.95498 0.09175 0.35539 0.0
C1595 C 0.9726 0.09702 0.36296 0.0
C1596 C 0.97947 0.11401 0.37489 0.0
C1597 C 0.96886 0.12594 0.37924 0.0
C1598 C 0.95137 0.12092 0.37162 0.0
C1599 C 0.94443 0.10393 0.3597 0.0
H1600 H 0.9742 0.13909 0.38848 0.0
H1601 H 0.90984 0.97554 0.26982 0.0
H1602 H 0.30603 0.7406 0.56895 0.0
H1603 H 0.31044 0.75921 0.60022 0.0
H1604 H 0.27173 0.71635 0.6175 0.0
H1605 H 0.26742 0.69762 0.58652 0.0
H1606 H 0.26826 0.7541 0.6258 0.0
H1607 H 0.31146 0.71751 0.63358 0.0
H1608 H 0.33625 0.70619 0.62523 0.0
H1609 H 0.36659 0.76349 0.63348 0.0
H1610 H 0.34188 0.77517 0.64163 0.0
H1611 H 0.27906 0.78112 0.72388 0.0
H1612 H 0.27695 0.76328 0.69293 0.0
H1613 H 0.3235 0.80106 0.68416 0.0
H1614 H 0.32624 0.81821 0.71578 0.0
H1615 H 0.32358 0.7673 0.67051 0.0
H1616 H 0.28175 0.80456 0.66333 0.0
H1617 H 0.25736 0.81707 0.67111 0.0
H1618 H 0.22485 0.76082 0.66046 0.0
H1619 H 0.24911 0.74794 0.65286 0.0
C1620 C 0.29846 0.73517 0.57942 0.0
C1621 C 0.28641 0.71761 0.57527 0.0
C1622 C 0.30103 0.74578 0.59728 0.0
C1623 C 0.29144 0.73912 0.61119 0.0
C1624 C 0.27925 0.72175 0.60697 0.0
C1625 C 0.27686 0.71103 0.58927 0.0
C1626 C 0.29404 0.75018 0.6302 0.0
C1627 C 0.28029 0.75685 0.63567 0.0
C1628 C 0.3099 0.75425 0.64282 0.0
C1629 C 0.32477 0.74723 0.638 0.0
C1630 C 0.32337 0.72771 0.63345 0.0
C1631 C 0.33742 0.72122 0.62878 0.0
C1632 C 0.35297 0.73412 0.62876 0.0
C1633 C 0.35452 0.75352 0.63347 0.0
C1634 C 0.34051 0.76008 0.63812 0.0
C1635 C 0.28901 0.78542 0.71551 0.0
C1636 C 0.30286 0.80101 0.7223 0.0
C1637 C 0.28767 0.77536 0.69767 0.0
C1638 C 0.29983 0.78106 0.6859 0.0
C1639 C 0.3139 0.79639 0.69287 0.0
C1640 C 0.31543 0.80623 0.71093 0.0
C1641 C 0.29772 0.77116 0.6663 0.0
C1642 C 0.31155 0.76471 0.66066 0.0
C1643 C 0.28198 0.76754 0.65338 0.0
C1644 C 0.26729 0.77527 0.65767 0.0
C1645 C 0.26942 0.79485 0.66274 0.0
C1646 C 0.25562 0.802 0.66712 0.0
C1647 C 0.23958 0.78974 0.66633 0.0
C1648 C 0.23729 0.7703 0.66108 0.0
C1649 C 0.25106 0.76306 0.65672 0.0
H1650 H 0.22892 0.79531 0.66974 0.0
H1651 H 0.36383 0.72907 0.62515 0.0
H1652 H 0.59037 0.96949 0.77358 0.0
H1653 H 0.57342 0.97625 0.7976 0.0
H1654 H 0.61321 0.96933 0.84184 0.0
H1655 H 0.63027 0.96242 0.81789 0.0
H1656 H 0.58002 0.95536 0.84936 0.0
H1657 H 0.61395 0.01201 0.83143 0.0
H1658 H 0.6247 0.03332 0.8086 0.0
H1659 H 0.57351 0.03869 0.78866 0.0
H1660 H 0.56242 0.01717 0.81126 0.0
H1661 H 0.56794 0.01363 0.92779 0.0
H1662 H 0.57906 0.99871 0.90208 0.0
H1663 H 0.53954 0.01116 0.86095 0.0
H1664 H 0.52843 0.02621 0.88677 0.0
H1665 H 0.57051 0.02059 0.85065 0.0
H1666 H 0.53732 0.96598 0.87228 0.0
H1667 H 0.52762 0.94431 0.89532 0.0
H1668 H 0.57841 0.93537 0.90934 0.0
H1669 H 0.5885 0.9572 0.88659 0.0
C1670 C 0.5954 0.96903 0.78838 0.0
C1671 C 0.61179 0.96572 0.79387 0.0
C1672 C 0.58569 0.9729 0.80208 0.0
C1673 C 0.59222 0.97357 0.82146 0.0
C1674 C 0.608 0.96891 0.82693 0.0
C1675 C 0.61775 0.96505 0.81323 0.0
C1676 C 0.58348 0.98108 0.83599 0.0
C1677 C 0.578 0.96964 0.84978 0.0
C1678 C 0.58071 0.99964 0.83627 0.0
C1679 C 0.58734 0.01282 0.82288 0.0
C1680 C 0.60497 0.01763 0.82208 0.0
C1681 C 0.61112 0.02976 0.80919 0.0
C1682 C 0.59979 0.03731 0.79712 0.0
C1683 C 0.58227 0.0328 0.79799 0.0
C1684 C 0.57604 0.02065 0.81085 0.0
C1685 C 0.56151 0.0129 0.91326 0.0
C1686 C 0.54722 0.02076 0.9092 0.0
C1687 C 0.56784 0.0044 0.89862 0.0
C1688 C 0.5599 0.00348 0.87965 0.0
C1689 C 0.54575 0.01159 0.87552 0.0
C1690 C 0.53946 0.0202 0.89021 0.0
C1691 C 0.56694 0.99487 0.86413 0.0
C1692 C 0.57224 0.00619 0.85016 0.0
C1693 C 0.56967 0.97626 0.86385 0.0
C1694 C 0.56369 0.96333 0.87777 0.0
C1695 C 0.54647 0.95952 0.88038 0.0
C1696 C 0.54088 0.94717 0.89336 0.0
C1697 C 0.55237 0.93841 0.90372 0.0
C1698 C 0.5695 0.94209 0.90123 0.0
C1699 C 0.57516 0.95445 0.8883 0.0
H1700 H 0.54802 0.92881 0.91372 0.0
H1701 H 0.60458 0.04669 0.78713 0.0
H1702 H 0.31115 0.41961 0.10651 0.0
H1703 H 0.30849 0.40523 0.13604 0.0
H1704 H 0.27915 0.35267 0.10369 0.0
H1705 H 0.28158 0.36697 0.07416 0.0
H1706 H 0.26422 0.36128 0.13279 0.0
H1707 H 0.32147 0.35832 0.12514 0.0
H1708 H 0.35125 0.37102 0.12072 0.0
H1709 H 0.36072 0.408 0.17296 0.0
H1710 H 0.33091 0.3957 0.17756 0.0
H1711 H 0.26462 0.30139 0.2059 0.0
H1712 H 0.26932 0.31629 0.17709 0.0
H1713 H 0.29932 0.3675 0.21141 0.0
H1714 H 0.29489 0.35246 0.24032 0.0
H1715 H 0.31415 0.36036 0.18179 0.0
H1716 H 0.25721 0.36461 0.18903 0.0
H1717 H 0.22737 0.35264 0.19378 0.0
H1718 H 0.21743 0.31407 0.14258 0.0
H1719 H 0.24725 0.32572 0.13765 0.0
C1720 C 0.3042 0.40495 0.10565 0.0
C1721 C 0.2966 0.39447 0.08788 0.0
C1722 C 0.30274 0.39671 0.12259 0.0
C1723 C 0.29373 0.37776 0.12219 0.0
C1724 C 0.28617 0.36729 0.10445 0.0
C1725 C 0.28762 0.3755 0.08753 0.0
C1726 C 0.29178 0.36894 0.14017 0.0
C1727 C 0.27518 0.36087 0.14336 0.0
C1728 C 0.30599 0.36881 0.15433 0.0
C1729 C 0.3239 0.37623 0.15159 0.0
C1730 C 0.32986 0.36928 0.1356 0.0
C1731 C 0.34675 0.37638 0.13308 0.0
C1732 C 0.35785 0.39034 0.14652 0.0
C1733 C 0.3521 0.3972 0.16254 0.0
C1734 C 0.33521 0.39016 0.16512 0.0
C1735 C 0.2723 0.31579 0.20732 0.0
C1736 C 0.27934 0.32574 0.22541 0.0
C1737 C 0.27489 0.32437 0.19081 0.0
C1738 C 0.28445 0.3432 0.19197 0.0
C1739 C 0.29187 0.353 0.21006 0.0
C1740 C 0.28933 0.34438 0.2266 0.0
C1741 C 0.2866 0.3526 0.17432 0.0
C1742 C 0.3032 0.36079 0.17121 0.0
C1743 C 0.2724 0.35293 0.16024 0.0
C1744 C 0.25448 0.34588 0.16311 0.0
C1745 C 0.24868 0.35346 0.1789 0.0
C1746 C 0.23178 0.34677 0.18159 0.0
C1747 C 0.22054 0.33255 0.16853 0.0
C1748 C 0.22616 0.32506 0.1527 0.0
C1749 C 0.24305 0.33172 0.14994 0.0
H1750 H 0.20746 0.32737 0.17065 0.0
H1751 H 0.37093 0.39582 0.14455 0.0
H1752 H 0.27173 0.97599 0.03162 0.0
H1753 H 0.24965 0.99412 0.03197 0.0
H1754 H 0.21029 0.94269 0.014 0.0
H1755 H 0.23227 0.92453 0.01327 0.0
H1756 H 0.20277 0.97056 0.99505 0.0
H1757 H 0.22001 0.96319 0.06062 0.0
H1758 H 0.2404 0.96529 0.09038 0.0
H1759 H 0.25553 0.02582 0.09132 0.0
H1760 H 0.23538 0.02405 0.0614 0.0
H1761 H 0.13158 0.00354 0.01979 0.0
H1762 H 0.15429 0.98653 0.01814 0.0
H1763 H 0.19247 0.03928 0.03308 0.0
H1764 H 0.16983 0.05647 0.03443 0.0
H1765 H 0.20089 0.01142 0.05325 0.0
H1766 H 0.18257 0.01848 0.98783 0.0
H1767 H 0.16163 0.01588 0.9584 0.0
H1768 H 0.14799 0.95529 0.95753 0.0
H1769 H 0.16866 0.95754 0.98712 0.0
C1770 C 0.25838 0.96853 0.0277 0.0
C1771 C 0.25379 0.94877 0.02249 0.0
C1772 C 0.24575 0.97891 0.02799 0.0
C1773 C 0.22826 0.96975 0.02325 0.0
C1774 C 0.22367 0.95009 0.01773 0.0
C1775 C 0.23628 0.93971 0.01738 0.0
C1776 C 0.21473 0.98059 0.0241 0.0
C1777 C 0.20225 0.97931 0.00786 0.0
C1778 C 0.21421 0.99235 0.04066 0.0
C1779 C 0.22632 0.99346 0.05867 0.0
C1780 C 0.22778 0.97693 0.06709 0.0
C1781 C 0.23928 0.97807 0.084 0.0
C1782 C 0.24929 0.99567 0.09271 0.0
C1783 C 0.24779 0.01219 0.08454 0.0
C1784 C 0.23632 0.01113 0.06762 0.0
C1785 C 0.14479 0.01158 0.02252 0.0
C1786 C 0.14883 0.03142 0.0272 0.0
C1787 C 0.15777 1.00181 0.02162 0.0
C1788 C 0.17509 0.01165 0.02532 0.0
C1789 C 0.1792 0.03139 0.03021 0.0
C1790 C 0.16622 0.04118 0.03106 0.0
C1791 C 0.18893 1.00132 0.02424 0.0
C1792 C 0.20145 0.0027 0.04043 0.0
C1793 C 0.18943 0.98959 0.00766 0.0
C1794 C 0.17705 0.9882 0.9898 0.0
C1795 C 0.17501 0.00461 0.98145 0.0
C1796 C 0.1632 0.0032 0.96473 0.0
C1797 C 0.15346 0.98544 0.95613 0.0
C1798 C 0.15553 0.96904 0.96422 0.0
C1799 C 0.1673 0.97038 0.98096 0.0
H1800 H 0.14433 0.98436 0.94319 0.0
H1801 H 0.25818 0.99652 0.1058 0.0
H1802 H 0.71947 0.65618 0.99313 0.0
H1803 H 0.68964 0.6384 0.99038 0.0
H1804 H 0.69226 0.65155 0.05078 0.0
H1805 H 0.72216 0.66845 0.05367 0.0
H1806 H 0.67639 0.61754 0.04242 0.0
H1807 H 0.67033 0.67379 0.01444 0.0
H1808 H 0.67485 0.69821 0.99251 0.0
H1809 H 0.6533 0.6558 0.94472 0.0
H1810 H 0.64886 0.63107 0.96636 0.0
H1811 H 0.58594 0.59465 0.04267 0.0
H1812 H 0.61559 0.61256 0.04425 0.0
H1813 H 0.61553 0.58722 0.98769 0.0
H1814 H 0.58604 0.56894 0.9863 0.0
H1815 H 0.62959 0.62695 0.99368 0.0
H1816 H 0.6355 0.57098 0.024 0.0
H1817 H 0.62957 0.54842 0.04748 0.0
H1818 H 0.65028 0.59346 0.09306 0.0
H1819 H 0.65614 0.61634 0.06982 0.0
C1820 C 0.71366 0.65526 0.0058 0.0
C1821 C 0.72324 0.66371 0.02362 0.0
C1822 C 0.69652 0.64519 0.00421 0.0
C1823 C 0.68844 0.64376 0.02033 0.0
C1824 C 0.69806 0.65229 0.03809 0.0
C1825 C 0.71522 0.66202 0.03973 0.0
C1826 C 0.67016 0.63309 0.01894 0.0
C1827 C 0.66619 0.61986 0.03187 0.0
C1828 C 0.65668 0.63574 0.00506 0.0
C1829 C 0.65945 0.65054 0.99201 0.0
C1830 C 0.66669 0.66964 0.99924 0.0
C1831 C 0.66921 0.68354 0.98687 0.0
C1832 C 0.66442 0.67855 0.96723 0.0
C1833 C 0.65705 0.65964 0.95993 0.0
C1834 C 0.65452 0.64568 0.97224 0.0
C1835 C 0.59235 0.59265 0.03075 0.0
C1836 C 0.58379 0.58005 0.01457 0.0
C1837 C 0.60925 0.60301 0.03157 0.0
C1838 C 0.61787 0.60111 0.01614 0.0
C1839 C 0.60917 0.58889 0.99978 0.0
C1840 C 0.59234 0.5784 0.99904 0.0
C1841 C 0.63601 0.61164 0.01716 0.0
C1842 C 0.63989 0.62475 0.00416 0.0
C1843 C 0.64936 0.6092 0.0312 0.0
C1844 C 0.64613 0.59539 0.04517 0.0
C1845 C 0.6387 0.57609 0.03903 0.0
C1846 C 0.63536 0.56324 0.05229 0.0
C1847 C 0.63951 0.56951 0.07175 0.0
C1848 C 0.64706 0.58863 0.07798 0.0
C1849 C 0.65042 0.60153 0.06477 0.0
H1850 H 0.6369 0.55955 0.08199 0.0
H1851 H 0.66637 0.68933 0.95768 0.0
H1852 H 0.73617 0.54879 0.37645 0.0
H1853 H 0.7553 0.52721 0.3751 0.0
H1854 H 0.71212 0.47922 0.36961 0.0
H1855 H 0.69293 0.50072 0.37142 0.0
H1856 H 0.74079 0.47214 0.38994 0.0
H1857 H 0.72493 0.49553 0.33047 0.0
H1858 H 0.72172 0.52021 0.3094 0.0
H1859 H 0.77618 0.54321 0.32117 0.0
H1860 H 0.77968 0.51881 0.34255 0.0
H1861 H 0.76932 0.4025 0.33576 0.0
H1862 H 0.75504 0.4246 0.3506 0.0
H1863 H 0.79823 0.47093 0.34883 0.0
H1864 H 0.81206 0.44888 0.33294 0.0
H1865 H 0.77092 0.47983 0.33463 0.0
H1866 H 0.7863 0.4525 0.39219 0.0
H1867 H 0.78781 0.42651 0.412 0.0
H1868 H 0.73281 0.40894 0.40222 0.0
H1869 H 0.73097 0.43471 0.38217 0.0
C1870 C 0.73078 0.53365 0.37535 0.0
C1871 C 0.71301 0.52643 0.37369 0.0
C1872 C 0.74173 0.52135 0.37458 0.0
C1873 C 0.73506 0.50163 0.37184 0.0
C1874 C 0.71751 0.4944 0.37166 0.0
C1875 C 0.70655 0.50671 0.37262 0.0
C1876 C 0.74595 0.48869 0.36696 0.0
C1877 C 0.74739 0.47373 0.37785 0.0
C1878 C 0.7546 0.4909 0.35124 0.0
C1879 C 0.75254 0.50549 0.33827 0.0
C1880 C 0.7362 0.50594 0.32867 0.0
C1881 C 0.73433 0.51986 0.31666 0.0
C1882 C 0.74873 0.5333 0.31399 0.0
C1883 C 0.76504 0.53281 0.32328 0.0
C1884 C 0.76697 0.51894 0.33534 0.0
C1885 C 0.77586 0.41736 0.33889 0.0
C1886 C 0.79171 0.4241 0.33319 0.0
C1887 C 0.76776 0.42998 0.34751 0.0
C1888 C 0.77562 0.44946 0.35108 0.0
C1889 C 0.7919 0.45598 0.34621 0.0
C1890 C 0.7998 0.44344 0.33718 0.0
C1891 C 0.76613 0.46327 0.3578 0.0
C1892 C 0.76473 0.47836 0.34704 0.0
C1893 C 0.75739 0.46097 0.37349 0.0
C1894 C 0.75851 0.44552 0.38564 0.0
C1895 C 0.77453 0.44305 0.3942 0.0
C1896 C 0.77544 0.42837 0.40551 0.0
C1897 C 0.7604 0.41613 0.40844 0.0
C1898 C 0.74444 0.41849 0.40001 0.0
C1899 C 0.74346 0.43315 0.3887 0.0
H1900 H 0.76108 0.40478 0.4172 0.0
H1901 H 0.74726 0.54407 0.30468 0.0
H1902 H 0.86334 0.46174 0.57209 0.0
H1903 H 0.89167 0.48098 0.57028 0.0
H1904 H 0.87296 0.49152 0.51344 0.0
H1905 H 0.84458 0.47204 0.51504 0.0
H1906 H 0.90311 0.48211 0.51509 0.0
H1907 H 0.88069 0.52609 0.55125 0.0
H1908 H 0.86731 0.53737 0.57731 0.0
H1909 H 0.90936 0.53065 0.6183 0.0
H1910 H 0.92288 0.51907 0.59249 0.0
H1911 H 0.97612 0.55158 0.50543 0.0
H1912 H 0.94684 0.53588 0.50801 0.0
H1913 H 0.96405 0.5273 0.56599 0.0
H1914 H 0.99333 0.54386 0.56373 0.0
H1915 H 0.93432 0.53592 0.56351 0.0
H1916 H 0.95703 0.49241 0.5258 0.0
H1917 H 0.96997 0.48246 0.49872 0.0
H1918 H 0.92652 0.48863 0.45961 0.0
H1919 H 0.91355 0.49925 0.48632 0.0
C1920 C 0.86518 0.46823 0.55923 0.0
C1921 C 0.85164 0.46534 0.54371 0.0
C1922 C 0.88141 0.47931 0.55825 0.0
C1923 C 0.88445 0.48787 0.54179 0.0
C1924 C 0.87093 0.48508 0.5263 0.0
C1925 C 0.85469 0.47399 0.52726 0.0
C1926 C 0.90184 0.49924 0.54053 0.0
C1927 C 0.90985 0.49405 0.52553 0.0
C1928 C 0.9108 0.51457 0.55437 0.0
C1929 C 0.90271 0.52153 0.56994 0.0
C1930 C 0.88701 0.52686 0.56583 0.0
C1931 C 0.87942 0.53334 0.58055 0.0
C1932 C 0.88746 0.53468 0.59945 0.0
C1933 C 0.90313 0.52958 0.60366 0.0
C1934 C 0.91077 0.52308 0.58898 0.0
C1935 C 0.97366 0.54647 0.51879 0.0
C1936 C 0.98707 0.54883 0.53434 0.0
C1937 C 0.9569 0.53738 0.52021 0.0
C1938 C 0.95324 0.52989 0.53703 0.0
C1939 C 0.96653 0.53282 0.55281 0.0
C1940 C 0.98327 0.54229 0.55151 0.0
C1941 C 0.93566 0.51879 0.53805 0.0
C1942 C 0.92761 0.52399 0.55305 0.0
C1943 C 0.92663 0.5035 0.52412 0.0
C1944 C 0.93438 0.4968 0.50809 0.0
C1945 C 0.95028 0.49177 0.51143 0.0
C1946 C 0.95762 0.48601 0.49615 0.0
C1947 C 0.94906 0.48487 0.47751 0.0
C1948 C 0.93314 0.48952 0.47407 0.0
C1949 C 0.92581 0.49546 0.48926 0.0
H1950 H 0.95477 0.48038 0.46572 0.0
H1951 H 0.88156 0.5397 0.61083 0.0
H1952 H 0.41618 0.20248 0.25933 0.0
H1953 H 0.39212 0.21778 0.25579 0.0
H1954 H 0.38019 0.20129 0.30972 0.0
H1955 H 0.40412 0.18573 0.31327 0.0
H1956 H 0.3524 0.19168 0.28342 0.0
H1957 H 0.39719 0.247 0.30354 0.0
H1958 H 0.42362 0.27173 0.30461 0.0
H1959 H 0.40433 0.2846 0.24923 0.0
H1960 H 0.37807 0.25962 0.24751 0.0
H1961 H 0.29314 0.25172 0.29043 0.0
H1962 H 0.31362 0.23148 0.29293 0.0
H1963 H 0.32803 0.24711 0.23967 0.0
H1964 H 0.30809 0.26792 0.23758 0.0
H1965 H 0.35432 0.25701 0.26718 0.0
H1966 H 0.30958 0.19984 0.24717 0.0
H1967 H 0.28216 0.17767 0.24868 0.0
H1968 H 0.30092 0.17068 0.3064 0.0
H1969 H 0.32836 0.19301 0.30533 0.0
C1970 C 0.40859 0.20231 0.27057 0.0
C1971 C 0.41197 0.19274 0.28651 0.0
C1972 C 0.39487 0.21114 0.26856 0.0
C1973 C 0.38435 0.21065 0.28249 0.0
C1974 C 0.38811 0.20175 0.29876 0.0
C1975 C 0.40184 0.19293 0.3008 0.0
C1976 C 0.36876 0.21827 0.27944 0.0
C1977 C 0.35284 0.20605 0.28005 0.0
C1978 C 0.36932 0.23692 0.27478 0.0
C1979 C 0.38568 0.2512 0.27531 0.0
C1980 C 0.3987 0.25485 0.29142 0.0
C1981 C 0.41364 0.269 0.29218 0.0
C1982 C 0.41564 0.2798 0.27703 0.0
C1983 C 0.40275 0.27635 0.26102 0.0
C1984 C 0.38788 0.2621 0.26009 0.0
C1985 C 0.30009 0.25009 0.27883 0.0
C1986 C 0.29917 0.26134 0.26383 0.0
C1987 C 0.31185 0.23858 0.2803 0.0
C1988 C 0.32249 0.23795 0.26658 0.0
C1989 C 0.32005 0.24753 0.25049 0.0
C1990 C 0.30859 0.25928 0.24921 0.0
C1991 C 0.33797 0.23024 0.27047 0.0
C1992 C 0.3539 0.24255 0.27027 0.0
C1993 C 0.33741 0.2118 0.27564 0.0
C1994 C 0.32099 0.19818 0.2762 0.0
C1995 C 0.30782 0.19365 0.26022 0.0
C1996 C 0.29228 0.18105 0.26099 0.0
C1997 C 0.28979 0.17279 0.27763 0.0
C1998 C 0.30287 0.17707 0.29351 0.0
C1999 C 0.31842 0.18968 0.29282 0.0
H2000 H 0.27774 0.16305 0.27821 0.0
H2001 H 0.42718 0.2908 0.27765 0.0
H2002 H 0.3375 0.20026 0.50472 0.0
H2003 H 0.36049 0.18351 0.50545 0.0
H2004 H 0.32592 0.13227 0.51491 0.0
H2005 H 0.30276 0.14913 0.51453 0.0
H2006 H 0.35647 0.13709 0.53741 0.0
H2007 H 0.33771 0.13825 0.47101 0.0
H2008 H 0.33004 0.15275 0.44192 0.0
H2009 H 0.3812 0.18765 0.44961 0.0
H2010 H 0.38911 0.17355 0.4789 0.0
H2011 H 0.41179 0.07676 0.51758 0.0
H2012 H 0.38772 0.092 0.51708 0.0
H2013 H 0.42018 0.14472 0.5077 0.0
H2014 H 0.44438 0.12958 0.50827 0.0
H2015 H 0.3899 0.13801 0.4847 0.0
H2016 H 0.4084 0.1373 0.55154 0.0
H2017 H 0.41601 0.12276 0.58061 0.0
H2018 H 0.36525 0.08679 0.57196 0.0
H2019 H 0.35739 0.10094 0.54268 0.0
C2020 C 0.3347 0.18541 0.50693 0.0
C2021 C 0.31819 0.17604 0.50946 0.0
C2022 C 0.3479 0.1758 0.50726 0.0
C2023 C 0.34494 0.1565 0.50993 0.0
C2024 C 0.32854 0.14713 0.51275 0.0
C2025 C 0.31528 0.15678 0.51247 0.0
C2026 C 0.35905 0.14627 0.50992 0.0
C2027 C 0.36359 0.13703 0.52574 0.0
C2028 C 0.36865 0.1465 0.4949 0.0
C2029 C 0.36396 0.15496 0.47724 0.0
C2030 C 0.34729 0.14912 0.46657 0.0
C2031 C 0.3429 0.15725 0.45004 0.0
C2032 C 0.35511 0.17114 0.44395 0.0
C2033 C 0.37175 0.1769 0.45436 0.0
C2034 C 0.3762 0.16883 0.47091 0.0
C2035 C 0.41391 0.09167 0.51566 0.0
C2036 C 0.43013 0.10194 0.51309 0.0
C2037 C 0.40008 0.10037 0.51534 0.0
C2038 C 0.40212 0.11961 0.51258 0.0
C2039 C 0.41824 0.12987 0.50985 0.0
C2040 C 0.43208 0.12116 0.51013 0.0
C2041 C 0.38741 0.12895 0.51226 0.0
C2042 C 0.38275 0.13801 0.49635 0.0
C2043 C 0.37769 0.12853 0.52718 0.0
C2044 C 0.38236 0.12005 0.54481 0.0
C2045 C 0.3989 0.12619 0.55576 0.0
C2046 C 0.40325 0.11803 0.57228 0.0
C2047 C 0.39114 0.10382 0.5781 0.0
C2048 C 0.37462 0.09777 0.56742 0.0
C2049 C 0.37021 0.10587 0.55087 0.0
H2050 H 0.39453 0.09753 0.5909 0.0
H2051 H 0.35169 0.17742 0.43114 0.0
H2052 H 0.7274 0.62881 0.36718 0.0
H2053 H 0.74486 0.65864 0.36013 0.0
H2054 H 0.70528 0.66081 0.3134 0.0
H2055 H 0.68787 0.6311 0.32026 0.0
H2056 H 0.73683 0.66604 0.30301 0.0
H2057 H 0.71162 0.69022 0.35366 0.0
H2058 H 0.70444 0.69263 0.3859 0.0
H2059 H 0.75803 0.70816 0.41006 0.0
H2060 H 0.76553 0.70557 0.37795 0.0
H2061 H 0.76435 0.75866 0.27954 0.0
H2062 H 0.74831 0.72976 0.28968 0.0
H2063 H 0.78907 0.73373 0.33718 0.0
H2064 H 0.80497 0.76307 0.32736 0.0
H2065 H 0.75852 0.72488 0.34809 0.0
H2066 H 0.78398 0.70173 0.29777 0.0
H2067 H 0.79146 0.6997 0.26565 0.0
H2068 H 0.73804 0.68202 0.24106 0.0
H2069 H 0.73022 0.68422 0.27303 0.0
C2070 C 0.72234 0.63576 0.35554 0.0
C2071 C 0.70624 0.62757 0.34426 0.0
C2072 C 0.73232 0.65281 0.35156 0.0
C2073 C 0.72634 0.66193 0.33625 0.0
C2074 C 0.71014 0.65398 0.32525 0.0
C2075 C 0.70017 0.63702 0.32926 0.0
C2076 C 0.7372 0.67934 0.33111 0.0
C2077 C 0.74142 0.67898 0.31279 0.0
C2078 C 0.74362 0.696 0.34409 0.0
C2079 C 0.73913 0.69748 0.36341 0.0
C2080 C 0.72187 0.69396 0.36585 0.0
C2081 C 0.71775 0.6954 0.38411 0.0
C2082 C 0.73077 0.70048 0.40002 0.0
C2083 C 0.74795 0.70419 0.39772 0.0
C2084 C 0.75215 0.70274 0.37949 0.0
C2085 C 0.76989 0.75337 0.29214 0.0
C2086 C 0.7859 0.76304 0.30265 0.0
C2087 C 0.76076 0.73681 0.29787 0.0
C2088 C 0.7676 0.72943 0.31404 0.0
C2089 C 0.78357 0.73915 0.32463 0.0
C2090 C 0.79267 0.75583 0.31897 0.0
C2091 C 0.75797 0.71166 0.3199 0.0
C2092 C 0.75402 0.71191 0.33835 0.0
C2093 C 0.75186 0.69484 0.30707 0.0
C2094 C 0.75652 0.69329 0.28781 0.0
C2095 C 0.77382 0.69753 0.28551 0.0
C2096 C 0.77812 0.69633 0.26733 0.0
C2097 C 0.76523 0.69077 0.25132 0.0
C2098 C 0.74801 0.68634 0.25347 0.0
C2099 C 0.74364 0.68754 0.27162 0.0
H2100 H 0.76859 0.68986 0.23726 0.0
H2101 H 0.72755 0.7016 0.41414 0.0
H2102 H 0.88939 0.60136 0.79639 0.0
H2103 H 0.86949 0.57064 0.79537 0.0
H2104 H 0.88697 0.54979 0.74556 0.0
H2105 H 0.90669 0.58067 0.74622 0.0
H2106 H 0.85241 0.5349 0.74457 0.0
H2107 H 0.90561 0.5432 0.7881 0.0
H2108 H 0.92828 0.55991 0.81468 0.0
H2109 H 0.89164 0.55404 0.85263 0.0
H2110 H 0.86868 0.53759 0.82618 0.0
H2111 H 0.84068 0.43655 0.7564 0.0
H2112 H 0.85036 0.46983 0.75156 0.0
H2113 H 0.83298 0.48712 0.80282 0.0
H2114 H 0.82325 0.45385 0.80773 0.0
H2115 H 0.86559 0.50459 0.80297 0.0
H2116 H 0.81268 0.49316 0.75915 0.0
H2117 H 0.79061 0.47628 0.73212 0.0
H2118 H 0.82717 0.48711 0.69435 0.0
H2119 H 0.84954 0.50383 0.72121 0.0
C2120 C 0.88878 0.59036 0.785 0.0
C2121 C 0.89982 0.59328 0.77159 0.0
C2122 C 0.87739 0.57284 0.78443 0.0
C2123 C 0.87705 0.55788 0.77063 0.0
C2124 C 0.88711 0.56117 0.75636 0.0
C2125 C 0.89841 0.57878 0.75681 0.0
C2126 C 0.86782 0.53836 0.77242 0.0
C2127 C 0.85531 0.52818 0.75727 0.0
C2128 C 0.87154 0.52976 0.78911 0.0
C2129 C 0.88539 0.53934 0.80512 0.0
C2130 C 0.90237 0.54559 0.80208 0.0
C2131 C 0.91527 0.555 0.81713 0.0
C2132 C 0.9114 0.55808 0.83532 0.0
C2133 C 0.89462 0.55168 0.83852 0.0
C2134 C 0.88165 0.54231 0.82351 0.0
C2135 C 0.83858 0.44743 0.7664 0.0
C2136 C 0.83132 0.44263 0.78251 0.0
C2137 C 0.8441 0.46644 0.76361 0.0
C2138 C 0.84231 0.48093 0.77679 0.0
C2139 C 0.83451 0.47614 0.79251 0.0
C2140 C 0.82903 0.45716 0.79534 0.0
C2141 C 0.85002 0.50103 0.77516 0.0
C2142 C 0.86243 0.51132 0.79035 0.0
C2143 C 0.84628 0.50959 0.75845 0.0
C2144 C 0.83283 0.49962 0.74224 0.0
C2145 C 0.81605 0.49182 0.74511 0.0
C2146 C 0.80348 0.4823 0.72981 0.0
C2147 C 0.8075 0.48059 0.71153 0.0
C2148 C 0.82408 0.48843 0.70852 0.0
C2149 C 0.83671 0.49796 0.72377 0.0
H2150 H 0.79774 0.47321 0.69971 0.0
H2151 H 0.9214 0.56537 0.84695 0.0
H2152 H 0.09659 0.88754 0.11447 0.0
H2153 H 0.09109 0.9142 0.09781 0.0
H2154 H 0.03685 0.89459 0.09754 0.0
H2155 H 0.04223 0.86757 0.11385 0.0
H2156 H 0.04172 0.90678 0.06449 0.0
H2157 H 0.06234 0.93215 0.12969 0.0
H2158 H 0.08227 0.93866 0.16031 0.0
H2159 H 0.12235 0.96861 0.13346 0.0
H2160 H 0.10271 0.96206 0.10261 0.0
H2161 H 0.01973 0.99452 0.04542 0.0
H2162 H 0.02427 0.96598 0.05931 0.0
H2163 H 0.07836 0.98324 0.0577 0.0
H2164 H 0.07399 0.01187 0.04398 0.0
H2165 H 0.07313 0.97215 0.09168 0.0
H2166 H 0.05187 0.94685 0.02633 0.0
H2167 H 0.03144 0.94056 0.99608 0.0
H2168 H 0.99189 0.91084 0.02378 0.0
H2169 H 0.01203 0.91718 0.05427 0.0
C2170 C 0.08346 0.88881 0.1108 0.0
C2171 C 0.06987 0.87541 0.11564 0.0
C2172 C 0.08034 0.90417 0.10134 0.0
C2173 C 0.06357 0.9067 0.09668 0.0
C2174 C 0.04992 0.89305 0.10101 0.0
C2175 C 0.05302 0.87759 0.11038 0.0
C2176 C 0.06034 0.9237 0.08757 0.0
C2177 C 0.04844 0.92108 0.07059 0.0
C2178 C 0.06927 0.94243 0.09527 0.0
C2179 C 0.0811 0.94645 0.1138 0.0
C2180 C 0.07544 0.94 0.13029 0.0
C2181 C 0.08668 0.94372 0.14769 0.0
C2182 C 0.10358 0.954 0.14882 0.0
C2183 C 0.10926 0.96062 0.13255 0.0
C2184 C 0.09808 0.95693 0.11511 0.0
C2185 C 0.03259 0.99222 0.04788 0.0
C2186 C 0.04648 0.00559 0.04354 0.0
C2187 C 0.03515 0.97581 0.05579 0.0
C2188 C 0.05166 0.97233 0.05949 0.0
C2189 C 0.06551 0.98557 0.05502 0.0
C2190 C 0.06296 1.00194 0.04708 0.0
C2191 C 0.05461 0.95523 0.06855 0.0
C2192 C 0.06643 0.95785 0.08557 0.0
C2193 C 0.04553 0.93654 0.06094 0.0
C2194 C 0.03342 0.93265 0.04262 0.0
C2195 C 0.03878 0.9391 0.026 0.0
C2196 C 0.02726 0.93551 0.00881 0.0
C2197 C 0.01036 0.92535 0.00802 0.0
C2198 C 0.00497 0.91873 0.02442 0.0
C2199 C 0.01644 0.9223 0.04165 0.0
H2200 H 1.00146 0.92258 0.99469 0.0
H2201 H 0.11227 0.95686 0.1623 0.0
H2202 H 0.96775 0.28673 0.85446 0.0
H2203 H 0.94021 0.28671 0.83494 0.0
H2204 H 0.91942 0.29736 0.88571 0.0
H2205 H 0.94669 0.29701 0.90523 0.0
H2206 H 0.89625 0.27252 0.86174 0.0
H2207 H 0.93256 0.33301 0.85807 0.0
H2208 H 0.95844 0.35525 0.85219 0.0
H2209 H 0.94841 0.33111 0.79374 0.0
H2210 H 0.92259 0.30853 0.79934 0.0
H2211 H 0.8362 0.32212 0.79895 0.0
H2212 H 0.86384 0.32297 0.8189 0.0
H2213 H 0.85739 0.26317 0.80218 0.0
H2214 H 0.82991 0.2623 0.78212 0.0
H2215 H 0.89376 0.31435 0.8104 0.0
H2216 H 0.87213 0.24371 0.84248 0.0
H2217 H 0.84585 0.22451 0.85103 0.0
H2218 H 0.82564 0.27412 0.85707 0.0
H2219 H 0.8519 0.29368 0.84889 0.0
C2220 C 0.9573 0.28898 0.86147 0.0
C2221 C 0.95951 0.29192 0.88144 0.0
C2222 C 0.94155 0.28906 0.85028 0.0
C2223 C 0.92771 0.29226 0.8588 0.0
C2224 C 0.92983 0.29485 0.87874 0.0
C2225 C 0.94551 0.2947 0.88991 0.0
C2226 C 0.9111 0.29314 0.84704 0.0
C2227 C 0.89575 0.28162 0.85048 0.0
C2228 C 0.91027 0.30537 0.83262 0.0
C2229 C 0.92574 0.31896 0.82918 0.0
C2230 C 0.93595 0.33235 0.844 0.0
C2231 C 0.95059 0.34503 0.84071 0.0
C2232 C 0.95509 0.34456 0.82262 0.0
C2233 C 0.94493 0.33144 0.80776 0.0
C2234 C 0.93028 0.31871 0.81098 0.0
C2235 C 0.84076 0.30921 0.79943 0.0
C2236 C 0.83092 0.29216 0.78895 0.0
C2237 C 0.85655 0.30971 0.81081 0.0
C2238 C 0.86265 0.29311 0.81215 0.0
C2239 C 0.85289 0.27612 0.80151 0.0
C2240 C 0.83722 0.27566 0.78999 0.0
C2241 C 0.87906 0.2934 0.82484 0.0
C2242 C 0.89432 0.30517 0.8216 0.0
C2243 C 0.87975 0.28176 0.83975 0.0
C2244 C 0.86393 0.27012 0.84484 0.0
C2245 C 0.86211 0.25054 0.84569 0.0
C2246 C 0.84721 0.23959 0.85048 0.0
C2247 C 0.83406 0.24808 0.85453 0.0
C2248 C 0.8358 0.26755 0.85385 0.0
C2249 C 0.85068 0.27856 0.84911 0.0
H2250 H 0.82255 0.23957 0.85824 0.0
H2251 H 0.96643 0.35439 0.8201 0.0
H2252 H 0.53814 0.27168 0.61115 0.0
H2253 H 0.53188 0.23868 0.59661 0.0
H2254 H 0.58578 0.24356 0.59601 0.0
H2255 H 0.59205 0.27652 0.61001 0.0
H2256 H 0.56815 0.22435 0.56422 0.0
H2257 H 0.56464 0.22159 0.63056 0.0
H2258 H 0.55402 0.22825 0.66033 0.0
H2259 H 0.50272 0.20008 0.63352 0.0
H2260 H 0.51301 0.19346 0.60351 0.0
H2261 H 0.57208 0.1275 0.55765 0.0
H2262 H 0.57512 0.1607 0.56985 0.0
H2263 H 0.5201 0.15243 0.56055 0.0
H2264 H 0.51691 0.11923 0.54819 0.0
H2265 H 0.53636 0.17305 0.59598 0.0
H2266 H 0.54072 0.17406 0.53009 0.0
H2267 H 0.55198 0.16668 0.50095 0.0
H2268 H 0.60247 0.19783 0.52757 0.0
H2269 H 0.59156 0.20511 0.557 0.0
C2270 C 0.54864 0.26577 0.60778 0.0
C2271 C 0.56561 0.27678 0.61185 0.0
C2272 C 0.54506 0.24684 0.59956 0.0
C2273 C 0.55839 0.23845 0.59545 0.0
C2274 C 0.57526 0.24962 0.59903 0.0
C2275 C 0.57882 0.26852 0.60712 0.0
C2276 C 0.55497 0.21801 0.58778 0.0
C2277 C 0.56134 0.21316 0.5713 0.0
C2278 C 0.54576 0.2033 0.5967 0.0
C2279 C 0.53956 0.20722 0.61474 0.0
C2280 C 0.55107 0.21694 0.63098 0.0
C2281 C 0.54512 0.22069 0.6479 0.0
C2282 C 0.5277 0.21464 0.6488 0.0
C2283 C 0.5162 0.20478 0.63279 0.0
C2284 C 0.52209 0.20102 0.61583 0.0
C2285 C 0.56061 0.13267 0.5583 0.0
C2286 C 0.54425 0.12066 0.55188 0.0
C2287 C 0.56237 0.15169 0.56521 0.0
C2288 C 0.54784 0.15909 0.56598 0.0
C2289 C 0.53149 0.14703 0.56006 0.0
C2290 C 0.52971 0.12806 0.55294 0.0
C2291 C 0.54974 0.17949 0.57265 0.0
C2292 C 0.54309 0.18429 0.58889 0.0
C2293 C 0.55877 0.19414 0.56358 0.0
C2294 C 0.56534 0.18998 0.54582 0.0
C2295 C 0.55425 0.17921 0.52979 0.0
C2296 C 0.56056 0.17506 0.51321 0.0
C2297 C 0.57793 0.18175 0.51242 0.0
C2298 C 0.58901 0.19264 0.5282 0.0
C2299 C 0.58277 0.19679 0.54484 0.0
H2300 H 0.5828 0.17852 0.49957 0.0
H2301 H 0.52311 0.21756 0.66191 0.0
H2302 H 0.57718 0.80379 0.41643 0.0
H2303 H 0.60203 0.80475 0.4008 0.0
H2304 H 0.56948 0.79721 0.34597 0.0
H2305 H 0.54437 0.79601 0.36158 0.0
H2306 H 0.59195 0.77467 0.34645 0.0
H2307 H 0.59554 0.84047 0.36408 0.0
H2308 H 0.5962 0.8689 0.38566 0.0
H2309 H 0.64159 0.86138 0.42058 0.0
H2310 H 0.64107 0.83273 0.39934 0.0
H2311 H 0.66082 0.79597 0.29488 0.0
H2312 H 0.63525 0.79684 0.3088 0.0
H2313 H 0.66545 0.80496 0.36504 0.0
H2314 H 0.69125 0.80475 0.3512 0.0
H2315 H 0.64363 0.8279 0.36276 0.0
H2316 H 0.63949 0.76159 0.34587 0.0
H2317 H 0.63885 0.73304 0.32447 0.0
H2318 H 0.59453 0.7415 0.28829 0.0
H2319 H 0.59504 0.77026 0.30936 0.0
C2320 C 0.57524 0.80239 0.40104 0.0
C2321 C 0.55873 0.79988 0.39027 0.0
C2322 C 0.58953 0.80303 0.39211 0.0
C2323 C 0.58771 0.8013 0.37219 0.0
C2324 C 0.57123 0.79864 0.36136 0.0
C2325 C 0.55689 0.79801 0.3703 0.0
C2326 C 0.603 0.80193 0.36277 0.0
C2327 C 0.60314 0.78647 0.34978 0.0
C2328 C 0.61779 0.8171 0.36742 0.0
C2329 C 0.61817 0.83435 0.3802 0.0
C2330 C 0.60559 0.84479 0.37644 0.0
C2331 C 0.60595 0.86096 0.3886 0.0
C2332 C 0.61891 0.86691 0.40451 0.0
C2333 C 0.63155 0.85673 0.40826 0.0
C2334 C 0.63124 0.84054 0.39616 0.0
C2335 C 0.66211 0.79817 0.31021 0.0
C2336 C 0.67816 0.80028 0.3219 0.0
C2337 C 0.6474 0.79846 0.31817 0.0
C2338 C 0.64834 0.80072 0.338 0.0
C2339 C 0.66437 0.80312 0.34971 0.0
C2340 C 0.6791 0.80283 0.34176 0.0
C2341 C 0.63263 0.80059 0.34653 0.0
C2342 C 0.63241 0.81615 0.35936 0.0
C2343 C 0.61778 0.78551 0.34174 0.0
C2344 C 0.61741 0.76819 0.32909 0.0
C2345 C 0.62969 0.75744 0.33327 0.0
C2346 C 0.62933 0.74121 0.32121 0.0
C2347 C 0.61668 0.73549 0.305 0.0
C2348 C 0.60433 0.74597 0.30084 0.0
C2349 C 0.60464 0.76223 0.31284 0.0
H2350 H 0.61643 0.72291 0.29568 0.0
H2351 H 0.61917 0.87944 0.4139 0.0
H2352 H 0.00868 0.249 0.43179 0.0
H2353 H 0.00851 0.21807 0.44304 0.0
H2354 H 0.04388 0.24546 0.49378 0.0
H2355 H 0.04454 0.27633 0.48229 0.0
H2356 H 0.05382 0.2162 0.48107 0.0
H2357 H 0.99913 0.22583 0.49261 0.0
H2358 H 0.97049 0.23231 0.48409 0.0
H2359 H 0.95535 0.18285 0.44287 0.0
H2360 H 0.98397 0.17621 0.45097 0.0
H2361 H 0.0465 0.13896 0.53564 0.0
H2362 H 0.0444 0.16901 0.5237 0.0
H2363 H 0.01224 0.13882 0.47209 0.0
H2364 H 0.01404 0.10858 0.48404 0.0
H2365 H 1.00039 0.16874 0.48422 0.0
H2366 H 0.05478 0.15872 0.47325 0.0
H2367 H 0.08323 0.15188 0.48211 0.0
H2368 H 0.09888 0.20206 0.52239 0.0
H2369 H 0.07042 0.20904 0.51399 0.0
C2370 C 0.01632 0.24846 0.44542 0.0
C2371 C 0.02659 0.26521 0.45615 0.0
C2372 C 0.01616 0.23072 0.4519 0.0
C2373 C 0.02602 0.2293 0.46943 0.0
C2374 C 0.03616 0.24606 0.48021 0.0
C2375 C 0.03648 0.26376 0.47364 0.0
C2376 C 0.02621 0.21042 0.47636 0.0
C2377 C 0.04211 0.20597 0.482 0.0
C2378 C 0.01097 0.1967 0.4771 0.0
C2379 C 0.99374 0.20063 0.47227 0.0
C2380 C 0.98973 0.21641 0.48163 0.0
C2381 C 0.97349 0.2201 0.4769 0.0
C2382 C 0.96113 0.20803 0.46291 0.0
C2383 C 0.96495 0.19221 0.45368 0.0
C2384 C 0.98116 0.18846 0.45835 0.0
C2385 C 0.0389 0.13862 0.52177 0.0
C2386 C 0.03052 0.12122 0.5108 0.0
C2387 C 0.03777 0.15589 0.51491 0.0
C2388 C 0.02839 0.15627 0.49684 0.0
C2389 C 0.01962 0.13895 0.48605 0.0
C2390 C 0.0207 0.12163 0.49292 0.0
C2391 C 0.02798 0.17471 0.48914 0.0
C2392 C 0.01207 0.17902 0.48329 0.0
C2393 C 0.0432 0.18833 0.48821 0.0
C2394 C 0.06041 0.18431 0.4931 0.0
C2395 C 0.06425 0.16823 0.48409 0.0
C2396 C 0.08038 0.16434 0.48902 0.0
C2397 C 0.09284 0.17651 0.50283 0.0
C2398 C 0.08921 0.19263 0.51171 0.0
C2399 C 0.07309 0.19657 0.50686 0.0
H2400 H 0.10531 0.17346 0.50664 0.0
H2401 H 0.94857 0.21091 0.45927 0.0
H2402 H 0.62545 0.34685 0.15186 0.0
H2403 H 0.65262 0.34551 0.17111 0.0
H2404 H 0.62524 0.31627 0.21139 0.0
H2405 H 0.59794 0.31769 0.19228 0.0
H2406 H 0.65397 0.34242 0.2295 0.0
H2407 H 0.63973 0.29143 0.17878 0.0
H2408 H 0.63156 0.27689 0.1454 0.0
H2409 H 0.6778 0.31077 0.13207 0.0
H2410 H 0.68612 0.32572 0.16532 0.0
H2411 H 0.7287 0.28934 0.24201 0.0
H2412 H 0.70068 0.29267 0.22686 0.0
H2413 H 0.7158 0.35302 0.2441 0.0
H2414 H 0.74387 0.34974 0.25969 0.0
H2415 H 0.69244 0.31053 0.19801 0.0
H2416 H 0.68005 0.36967 0.24937 0.0
H2417 H 0.68731 0.38172 0.28351 0.0
H2418 H 0.69247 0.32662 0.29729 0.0
H2419 H 0.68502 0.31418 0.26327 0.0
C2420 C 0.62517 0.34026 0.16488 0.0
C2421 C 0.60947 0.33224 0.17042 0.0
C2422 C 0.64074 0.33948 0.17587 0.0
C2423 C 0.64099 0.33059 0.1926 0.0
C2424 C 0.62538 0.32319 0.19854 0.0
C2425 C 0.60977 0.32395 0.18754 0.0
C2426 C 0.65747 0.32821 0.20332 0.0
C2427 C 0.66241 0.33549 0.22262 0.0
C2428 C 0.66837 0.31887 0.19447 0.0
C2429 C 0.66346 0.30983 0.17449 0.0
C2430 C 0.64809 0.29588 0.16869 0.0
C2431 C 0.64344 0.28755 0.14981 0.0
C2432 C 0.65414 0.29294 0.13661 0.0
C2433 C 0.66952 0.30663 0.1423 0.0
C2434 C 0.67421 0.31503 0.16116 0.0
C2435 C 0.72607 0.30333 0.24276 0.0
C2436 C 0.73858 0.31928 0.2521 0.0
C2437 C 0.71001 0.30522 0.234 0.0
C2438 C 0.70603 0.32308 0.23435 0.0
C2439 C 0.71843 0.33904 0.24384 0.0
C2440 C 0.73451 0.33715 0.25271 0.0
C2441 C 0.68912 0.32493 0.22419 0.0
C2442 C 0.68408 0.31755 0.20493 0.0
C2443 C 0.67802 0.33384 0.23321 0.0
C2444 C 0.68215 0.34106 0.25375 0.0
C2445 C 0.68266 0.36011 0.25969 0.0
C2446 C 0.68682 0.36701 0.27902 0.0
C2447 C 0.69041 0.35496 0.29255 0.0
C2448 C 0.68976 0.33595 0.28679 0.0
C2449 C 0.68558 0.32898 0.26748 0.0
H2450 H 0.69367 0.36034 0.30751 0.0
H2451 H 0.65052 0.28647 0.122 0.0
H2452 H 0.54409 0.84918 0.98398 0.0
H2453 H 0.54722 0.88197 0.99737 0.0
H2454 H 0.53027 0.89651 0.94161 0.0
H2455 H 0.5275 0.86377 0.92803 0.0
H2456 H 0.55579 0.92374 0.95915 0.0
H2457 H 0.50364 0.8906 0.97599 0.0
H2458 H 0.48457 0.86564 0.98929 0.0
H2459 H 0.5156 0.88295 0.04461 0.0
H2460 H 0.535 0.90786 0.03158 0.0
H2461 H 0.54255 0.01368 0.99607 0.0
H2462 H 0.53918 0.9817 0.97968 0.0
H2463 H 0.55684 0.96282 0.03312 0.0
H2464 H 0.55973 0.99452 0.04935 0.0
H2465 H 0.52945 0.93795 0.01517 0.0
H2466 H 0.58187 0.9717 0.99666 0.0
H2467 H 0.59995 0.99627 0.98184 0.0
H2468 H 0.56666 0.97755 0.92799 0.0
H2469 H 0.54808 0.9534 0.94263 0.0
C2470 C 0.54101 0.85932 0.97453 0.0
C2471 C 0.53545 0.85373 0.95491 0.0
C2472 C 0.54273 0.87812 0.98225 0.0
C2473 C 0.53871 0.89178 0.97061 0.0
C2474 C 0.53341 0.8863 0.95096 0.0
C2475 C 0.53179 0.86751 0.9432 0.0
C2476 C 0.54012 0.91175 0.97895 0.0
C2477 C 0.54983 0.92684 0.97125 0.0
C2478 C 0.5325 0.91595 0.99486 0.0
C2479 C 0.52087 0.90098 0.00276 0.0
C2480 C 0.50647 0.88899 0.99096 0.0
C2481 C 0.49559 0.87487 0.99845 0.0
C2482 C 0.49889 0.87268 0.01777 0.0
C2483 C 0.51307 0.88464 0.02964 0.0
C2484 C 0.52401 0.89878 0.02221 0.0
C2485 C 0.54574 0.00266 0.00418 0.0
C2486 C 0.55131 0.00659 0.02392 0.0
C2487 C 0.54392 0.9844 0.99485 0.0
C2488 C 0.54785 0.96972 0.0051 0.0
C2489 C 0.55366 0.97378 0.02483 0.0
C2490 C 0.55539 0.99198 0.03411 0.0
C2491 C 0.54541 0.94996 0.99562 0.0
C2492 C 0.53543 0.93487 0.00308 0.0
C2493 C 0.5526 0.94582 0.97934 0.0
C2494 C 0.56352 0.96082 0.97076 0.0
C2495 C 0.57829 0.97301 0.98171 0.0
C2496 C 0.58862 0.98689 0.97334 0.0
C2497 C 0.58443 0.98855 0.95399 0.0
C2498 C 0.56987 0.97637 0.94299 0.0
C2499 C 0.55942 0.96261 0.95132 0.0
H2500 H 0.59249 0.99923 0.94751 0.0
H2501 H 0.49045 0.86174 0.02355 0.0
H2502 H 0.9961 0.83419 0.6357 0.0
H2503 H 0.9729 0.83583 0.65341 0.0
H2504 H 1.00307 0.8236 0.70375 0.0
H2505 H 0.02651 0.8219 0.68604 0.0
H2506 H 0.96896 0.803 0.69774 0.0
H2507 H 0.99949 0.86786 0.70038 0.0
H2508 H 0.013 0.89658 0.68716 0.0
H2509 H 0.96452 0.89711 0.65378 0.0
H2510 H 0.95075 0.86822 0.66659 0.0
H2511 H 0.91635 0.82734 0.76185 0.0
H2512 H 0.93973 0.82429 0.74506 0.0
H2513 H 0.91514 0.84569 0.69653 0.0
H2514 H 0.89225 0.8501 0.71382 0.0
H2515 H 0.94719 0.8616 0.70226 0.0
H2516 H 0.91698 0.79573 0.6969 0.0
H2517 H 0.90336 0.76581 0.70813 0.0
H2518 H 0.95015 0.76693 0.7457 0.0
H2519 H 0.96421 0.7966 0.73434 0.0
C2520 C 0.99786 0.8318 0.65053 0.0
C2521 C 0.01324 0.82798 0.65945 0.0
C2522 C 0.98457 0.83282 0.66067 0.0
C2523 C 0.98629 0.83004 0.67997 0.0
C2524 C 1.00147 0.82584 0.68887 0.0
C2525 C 0.01487 0.82493 0.67875 0.0
C2526 C 0.97222 0.83168 0.69077 0.0
C2527 C 0.96434 0.8159 0.69898 0.0
C2528 C 0.9659 0.84833 0.69197 0.0
C2529 C 0.97412 0.86577 0.68432 0.0
C2530 C 0.99173 0.87402 0.6901 0.0
C2531 C 0.99943 0.89034 0.6827 0.0
C2532 C 0.98963 0.89864 0.6696 0.0
C2533 C 0.9721 0.89065 0.66391 0.0
C2534 C 0.96433 0.87431 0.67125 0.0
C2535 C 0.91598 0.8317 0.74772 0.0
C2536 C 0.90241 0.83923 0.73936 0.0
C2537 C 0.92926 0.82956 0.73793 0.0
C2538 C 0.92918 0.83446 0.71933 0.0
C2539 C 0.91555 0.84175 0.71084 0.0
C2540 C 0.90235 0.84413 0.72072 0.0
C2541 C 0.94367 0.83281 0.7091 0.0
C2542 C 0.95172 0.84865 0.70103 0.0
C2543 C 0.95005 0.81615 0.7079 0.0
C2544 C 0.94158 0.79847 0.71492 0.0
C2545 C 0.92432 0.78965 0.70765 0.0
C2546 C 0.91653 0.77273 0.71401 0.0
C2547 C 0.92579 0.76461 0.72779 0.0
C2548 C 0.94296 0.77327 0.73508 0.0
C2549 C 0.95088 0.79007 0.72859 0.0
H2550 H 0.9197 0.75155 0.73273 0.0
H2551 H 0.99562 0.91128 0.66388 0.0
H2552 H 0.16537 0.07357 0.90693 0.0
H2553 H 0.14199 0.06234 0.92414 0.0
H2554 H 0.11037 0.09287 0.89106 0.0
H2555 H 0.13383 0.10452 0.87403 0.0
H2556 H 0.1072 0.09674 0.92755 0.0
H2557 H 0.1052 0.04478 0.88083 0.0
H2558 H 0.11709 0.02133 0.86369 0.0
H2559 H 0.12917 0.99748 0.91555 0.0
H2560 H 0.11759 0.02097 0.93308 0.0
H2561 H 0.03146 0.05633 0.95746 0.0
H2562 H 0.0511 0.06141 0.93447 0.0
H2563 H 0.0852 0.03367 0.96778 0.0
H2564 H 0.06518 0.02808 0.99045 0.0
H2565 H 0.08607 0.02759 0.92966 0.0
H2566 H 0.09097 0.08116 0.97664 0.0
H2567 H 0.07992 0.10501 0.9944 0.0
H2568 H 0.06268 0.12565 0.94218 0.0
H2569 H 0.07366 0.10193 0.92411 0.0
C2570 C 0.15349 0.07803 0.90341 0.0
C2571 C 0.1514 0.08985 0.88905 0.0
C2572 C 0.14011 0.07149 0.91317 0.0
C2573 C 0.12433 0.07644 0.90857 0.0
C2574 C 0.12241 0.08878 0.89472 0.0
C2575 C 0.13584 0.09544 0.88503 0.0
C2576 C 0.10984 0.06877 0.91825 0.0
C2577 C 0.1024 0.08161 0.92773 0.0
C2578 C 0.10384 0.04903 0.91882 0.0
C2579 C 0.11064 0.03474 0.90829 0.0
C2580 C 0.11049 0.03461 0.88861 0.0
C2581 C 0.11717 0.02131 0.87882 0.0
C2582 C 0.12392 0.00795 0.88854 0.0
C2583 C 0.12396 0.00785 0.90806 0.0
C2584 C 0.11732 0.02114 0.91792 0.0
C2585 C 0.04278 0.05059 0.95932 0.0
C2586 C 0.04692 0.04172 0.97546 0.0
C2587 C 0.05406 0.05366 0.94636 0.0
C2588 C 0.06976 0.04831 0.94972 0.0
C2589 C 0.07317 0.03796 0.965 0.0
C2590 C 0.06178 0.03473 0.97788 0.0
C2591 C 0.08345 0.05558 0.93884 0.0
C2592 C 0.09079 0.04269 0.92927 0.0
C2593 C 0.08944 0.07529 0.9382 0.0
C2594 C 0.08297 0.08967 0.94903 0.0
C2595 C 0.08473 0.09072 0.96896 0.0
C2596 C 0.07849 0.10421 0.97907 0.0
C2597 C 0.0705 0.11675 0.96941 0.0
C2598 C 0.06884 0.1159 0.94963 0.0
C2599 C 0.07511 0.10248 0.93945 0.0
H2600 H 0.06568 0.12719 0.97724 0.0
H2601 H 0.12908 0.99766 0.88094 0.0
H2602 H 0.78009 0.36347 0.56152 0.0
H2603 H 0.78217 0.3511 0.59233 0.0
H2604 H 0.81084 0.40625 0.61961 0.0
H2605 H 0.80922 0.41857 0.58875 0.0
H2606 H 0.8244 0.38026 0.63483 0.0
H2607 H 0.76731 0.38913 0.62125 0.0
H2608 H 0.73853 0.38578 0.60243 0.0
H2609 H 0.72845 0.32528 0.60235 0.0
H2610 H 0.75728 0.32824 0.62096 0.0
H2611 H 0.81098 0.36114 0.72927 0.0
H2612 H 0.8119 0.37415 0.69882 0.0
H2613 H 0.7868 0.31891 0.66897 0.0
H2614 H 0.78572 0.30583 0.6992 0.0
H2615 H 0.77164 0.34588 0.65567 0.0
H2616 H 0.82949 0.33787 0.66979 0.0
H2617 H 0.85808 0.34226 0.68943 0.0
H2618 H 0.86631 0.40267 0.68958 0.0
H2619 H 0.83767 0.39864 0.67014 0.0
C2620 C 0.78688 0.37297 0.57406 0.0
C2621 C 0.7944 0.39206 0.57262 0.0
C2622 C 0.78799 0.36589 0.59173 0.0
C2623 C 0.79641 0.37779 0.60845 0.0
C2624 C 0.80424 0.39676 0.60699 0.0
C2625 C 0.80326 0.40381 0.5893 0.0
C2626 C 0.79692 0.3705 0.62743 0.0
C2627 C 0.81282 0.37296 0.63946 0.0
C2628 C 0.78188 0.36074 0.63352 0.0
C2629 C 0.76452 0.3589 0.62234 0.0
C2630 C 0.75901 0.3751 0.6171 0.0
C2631 C 0.74268 0.37327 0.60649 0.0
C2632 C 0.73168 0.35532 0.60116 0.0
C2633 C 0.73699 0.33917 0.60647 0.0
C2634 C 0.75332 0.34091 0.61706 0.0
C2635 C 0.80583 0.35169 0.71624 0.0
C2636 C 0.79827 0.33239 0.71679 0.0
C2637 C 0.8064 0.35916 0.69881 0.0
C2638 C 0.79946 0.34751 0.68154 0.0
C2639 C 0.7922 0.32821 0.68206 0.0
C2640 C 0.79167 0.32073 0.69943 0.0
C2641 C 0.79911 0.35545 0.66293 0.0
C2642 C 0.78321 0.35317 0.651 0.0
C2643 C 0.81412 0.36553 0.65706 0.0
C2644 C 0.83137 0.36796 0.66867 0.0
C2645 C 0.83734 0.3521 0.67414 0.0
C2646 C 0.85357 0.35452 0.68521 0.0
C2647 C 0.86399 0.37273 0.69079 0.0
C2648 C 0.85822 0.38857 0.68527 0.0
C2649 C 0.842 0.38622 0.67421 0.0
H2650 H 0.87654 0.37458 0.69937 0.0
H2651 H 0.71904 0.35394 0.59294 0.0
H2652 H 0.46281 0.10224 0.33982 0.0
H2653 H 0.47632 0.09607 0.37073 0.0
H2654 H 0.49118 0.15616 0.38933 0.0
H2655 H 0.47736 0.1625 0.35831 0.0
H2656 H 0.518 0.13583 0.39666 0.0
H2657 H 0.46026 0.13239 0.40622 0.0
H2658 H 0.42875 0.12179 0.39854 0.0
H2659 H 0.43207 0.06401 0.40215 0.0
H2660 H 0.46363 0.0742 0.40945 0.0
H2661 H 0.54936 0.11643 0.48961 0.0
H2662 H 0.53452 0.12946 0.46329 0.0
H2663 H 0.50456 0.0731 0.44116 0.0
H2664 H 0.51875 0.06027 0.46796 0.0
H2665 H 0.48484 0.09596 0.43779 0.0
H2666 H 0.54118 0.09731 0.42272 0.0
H2667 H 0.57283 0.10601 0.42859 0.0
H2668 H 0.57229 0.16513 0.43348 0.0
H2669 H 0.54063 0.15676 0.42784 0.0
C2670 C 0.46897 0.11418 0.35044 0.0
C2671 C 0.46905 0.13287 0.34664 0.0
C2672 C 0.4766 0.11061 0.36813 0.0
C2673 C 0.48462 0.12566 0.38231 0.0
C2674 C 0.48498 0.14438 0.37854 0.0
C2675 C 0.47708 0.14797 0.36087 0.0
C2676 C 0.49286 0.1216 0.40091 0.0
C2677 C 0.51076 0.12744 0.40589 0.0
C2678 C 0.48337 0.11025 0.41261 0.0
C2679 C 0.46436 0.10407 0.40824 0.0
C2680 C 0.4543 0.1174 0.4052 0.0
C2681 C 0.43642 0.11146 0.40094 0.0
C2682 C 0.42842 0.09223 0.39984 0.0
C2683 C 0.43828 0.0789 0.40304 0.0
C2684 C 0.45618 0.08475 0.40722 0.0
C2685 C 0.53961 0.10688 0.47908 0.0
C2686 C 0.53527 0.08735 0.48065 0.0
C2687 C 0.53118 0.1143 0.46402 0.0
C2688 C 0.51861 0.10223 0.45 0.0
C2689 C 0.51419 0.08272 0.45176 0.0
C2690 C 0.52236 0.07537 0.46701 0.0
C2691 C 0.51011 0.1097 0.43336 0.0
C2692 C 0.49213 0.10455 0.42873 0.0
C2693 C 0.51955 0.12137 0.42177 0.0
C2694 C 0.53856 0.12642 0.42507 0.0
C2695 C 0.54783 0.11217 0.42516 0.0
C2696 C 0.56576 0.11703 0.42843 0.0
C2697 C 0.57457 0.13611 0.43146 0.0
C2698 C 0.56545 0.15036 0.43117 0.0
C2699 C 0.54752 0.14556 0.42792 0.0
H2700 H 0.58845 0.13985 0.43399 0.0
H2701 H 0.41457 0.08766 0.39653 0.0
H2702 H 0.74426 0.73634 0.06633 0.0
H2703 H 0.74863 0.74939 0.09963 0.0
H2704 H 0.79983 0.74005 0.10807 0.0
H2705 H 0.79536 0.72647 0.07476 0.0
H2706 H 0.78502 0.72941 0.13684 0.0
H2707 H 0.79208 0.78524 0.10532 0.0
H2708 H 0.78472 0.80648 0.08186 0.0
H2709 H 0.739 0.80881 0.10453 0.0
H2710 H 0.74596 0.78737 0.12798 0.0
H2711 H 0.81173 0.79001 0.22601 0.0
H2712 H 0.80908 0.77779 0.19249 0.0
H2713 H 0.75439 0.77216 0.18483 0.0
H2714 H 0.75684 0.78393 0.21842 0.0
H2715 H 0.77229 0.79123 0.15606 0.0
H2716 H 0.76566 0.73426 0.18714 0.0
H2717 H 0.77427 0.71407 0.21109 0.0
H2718 H 0.82105 0.71531 0.18941 0.0
H2719 H 0.81283 0.73581 0.1655 0.0
C2720 C 0.75651 0.73716 0.0752 0.0
C2721 C 0.76948 0.73042 0.06779 0.0
C2722 C 0.75902 0.74472 0.09428 0.0
C2723 C 0.77466 0.74599 0.10641 0.0
C2724 C 0.78766 0.73927 0.09905 0.0
C2725 C 0.78511 0.73158 0.07996 0.0
C2726 C 0.77723 0.75392 0.12681 0.0
C2727 C 0.78249 0.74307 0.14098 0.0
C2728 C 0.77371 0.77164 0.13238 0.0
C2729 C 0.76947 0.78455 0.1183 0.0
C2730 C 0.78038 0.79016 0.10521 0.0
C2731 C 0.7763 0.80226 0.09193 0.0
C2732 C 0.76138 0.80896 0.09167 0.0
C2733 C 0.75054 0.8036 0.10473 0.0
C2734 C 0.75456 0.79148 0.11804 0.0
C2735 C 0.79913 0.78615 0.2172 0.0
C2736 C 0.78448 0.78789 0.2249 0.0
C2737 C 0.79765 0.77915 0.19807 0.0
C2738 C 0.78154 0.77406 0.18619 0.0
C2739 C 0.76694 0.77602 0.19376 0.0
C2740 C 0.76836 0.78266 0.21297 0.0
C2741 C 0.77992 0.76665 0.16588 0.0
C2742 C 0.77487 0.77762 0.1518 0.0
C2743 C 0.78381 0.74917 0.16041 0.0
C2744 C 0.78873 0.73675 0.17468 0.0
C2745 C 0.77786 0.73039 0.18759 0.0
C2746 C 0.78265 0.71885 0.20114 0.0
C2747 C 0.79822 0.71345 0.20181 0.0
C2748 C 0.80901 0.71954 0.1889 0.0
C2749 C 0.80429 0.7311 0.17534 0.0
H2750 H 0.80191 0.70452 0.21231 0.0
H2751 H 0.75825 0.81833 0.08138 0.0
H2752 H 0.13056 0.06502 0.8132 0.0
H2753 H 0.11783 0.06412 0.77984 0.0
H2754 H 0.16808 0.07209 0.76418 0.0
H2755 H 0.18091 0.07367 0.79752 0.0
H2756 H 0.15227 0.09579 0.74887 0.0
H2757 H 0.13678 0.02883 0.75328 0.0
H2758 H 0.12403 0.99992 0.76672 0.0
H2759 H 0.07448 0.01273 0.75576 0.0
H2760 H 0.08697 0.04186 0.74248 0.0
H2761 H 0.1258 0.08182 0.64935 0.0
H2762 H 0.13723 0.0766 0.68157 0.0
H2763 H 0.08777 0.07428 0.69787 0.0
H2764 H 0.07623 0.07953 0.66566 0.0
H2765 H 0.1028 0.04704 0.71251 0.0
H2766 H 0.11866 0.11432 0.709 0.0
H2767 H 0.13143 0.14313 0.69541 0.0
H2768 H 0.18062 0.12929 0.70479 0.0
H2769 H 0.16809 0.10024 0.71819 0.0
C2770 C 0.13885 0.06631 0.8026 0.0
C2771 C 0.15673 0.06951 0.80796 0.0
C2772 C 0.13155 0.06571 0.78352 0.0
C2773 C 0.14198 0.06792 0.76946 0.0
C2774 C 0.15978 0.07043 0.77477 0.0
C2775 C 0.16709 0.0713 0.79383 0.0
C2776 C 0.1346 0.06903 0.74944 0.0
C2777 C 0.14165 0.08493 0.74084 0.0
C2778 C 0.1204 0.05517 0.73912 0.0
C2779 C 0.11285 0.03762 0.74704 0.0
C2780 C 0.12319 0.02556 0.75387 0.0
C2781 C 0.116 0.00912 0.76143 0.0
C2782 C 0.09847 0.00452 0.76213 0.0
C2783 C 0.08807 0.01632 0.75522 0.0
C2784 C 0.09519 0.03279 0.74765 0.0
C2785 C 0.11737 0.08026 0.65982 0.0
C2786 C 0.10016 0.08127 0.65504 0.0
C2787 C 0.1239 0.07721 0.67818 0.0
C2788 C 0.11339 0.07529 0.69215 0.0
C2789 C 0.09608 0.0757 0.68728 0.0
C2790 C 0.08952 0.0787 0.66889 0.0
C2791 C 0.12065 0.07363 0.71201 0.0
C2792 C 0.11351 0.05776 0.72057 0.0
C2793 C 0.13482 0.08747 0.72234 0.0
C2794 C 0.1424 0.10502 0.71443 0.0
C2795 C 0.13217 0.11735 0.70804 0.0
C2796 C 0.13937 0.13374 0.70039 0.0
C2797 C 0.15682 0.13802 0.69919 0.0
C2798 C 0.16711 0.12595 0.7057 0.0
C2799 C 0.15997 0.10953 0.71334 0.0
H2800 H 0.16236 0.1507 0.69326 0.0
H2801 H 0.09293 0.99178 0.768 0.0
H2802 H 0.80615 0.3659 0.4866 0.0
H2803 H 0.80301 0.35221 0.45356 0.0
H2804 H 0.78883 0.40221 0.43429 0.0
H2805 H 0.7911 0.41554 0.46724 0.0
H2806 H 0.76945 0.37357 0.4128 0.0
H2807 H 0.82953 0.393 0.43347 0.0
H2808 H 0.8577 0.39583 0.45346 0.0
H2809 H 0.85238 0.33572 0.44238 0.0
H2810 H 0.82403 0.33246 0.4226 0.0
H2811 H 0.77693 0.34469 0.31649 0.0
H2812 H 0.77965 0.36198 0.34799 0.0
H2813 H 0.79517 0.31552 0.37406 0.0
H2814 H 0.79333 0.29876 0.34267 0.0
H2815 H 0.81496 0.34589 0.39105 0.0
H2816 H 0.75178 0.32837 0.37207 0.0
H2817 H 0.72509 0.32867 0.35048 0.0
H2818 H 0.73889 0.38962 0.35645 0.0
H2819 H 0.76576 0.38962 0.37779 0.0
C2820 C 0.80226 0.37394 0.47532 0.0
C2821 C 0.79887 0.39182 0.4796 0.0
C2822 C 0.80058 0.36615 0.45638 0.0
C2823 C 0.79588 0.37626 0.44127 0.0
C2824 C 0.79235 0.39404 0.44558 0.0
C2825 C 0.79371 0.40168 0.46448 0.0
C2826 C 0.7945 0.36824 0.42103 0.0
C2827 C 0.77952 0.36772 0.40804 0.0
C2828 C 0.80759 0.36061 0.41459 0.0
C2829 C 0.82454 0.36246 0.42673 0.0
C2830 C 0.83427 0.38035 0.43546 0.0
C2831 C 0.85029 0.38204 0.44673 0.0
C2832 C 0.8568 0.36596 0.44924 0.0
C2833 C 0.84731 0.34815 0.44047 0.0
C2834 C 0.83126 0.34638 0.42923 0.0
C2835 C 0.78089 0.3382 0.32898 0.0
C2836 C 0.785 0.32042 0.3271 0.0
C2837 C 0.78234 0.34805 0.34704 0.0
C2838 C 0.78749 0.34009 0.36362 0.0
C2839 C 0.79125 0.32212 0.36163 0.0
C2840 C 0.7901 0.31246 0.34362 0.0
C2841 C 0.78961 0.35047 0.38307 0.0
C2842 C 0.80486 0.35165 0.39587 0.0
C2843 C 0.77694 0.35907 0.3892 0.0
C2844 C 0.76072 0.35898 0.37652 0.0
C2845 C 0.7491 0.34181 0.36873 0.0
C2846 C 0.73397 0.34193 0.35652 0.0
C2847 C 0.73029 0.35915 0.35209 0.0
C2848 C 0.74173 0.37629 0.35989 0.0
C2849 C 0.75689 0.37624 0.37208 0.0
H2850 H 0.71858 0.35921 0.34261 0.0
H2851 H 0.86922 0.3673 0.45795 0.0
H2852 H 0.50598 0.16371 0.28108 0.0
H2853 H 0.51972 0.16292 0.253 0.0
H2854 H 0.47153 0.16129 0.2171 0.0
H2855 H 0.45762 0.16154 0.24506 0.0
H2856 H 0.48456 0.13463 0.20417 0.0
H2857 H 0.50619 0.20058 0.223 0.0
H2858 H 0.5201 0.22986 0.24447 0.0
H2859 H 0.56711 0.21125 0.25368 0.0
H2860 H 0.55341 0.18172 0.23248 0.0
H2861 H 0.52405 0.12898 0.12361 0.0
H2862 H 0.5112 0.1452 0.14685 0.0
H2863 H 0.55151 0.14037 0.19158 0.0
H2864 H 0.56446 0.1242 0.1684 0.0
H2865 H 0.54068 0.17456 0.19665 0.0
H2866 H 0.51635 0.10635 0.1822 0.0
H2867 H 0.50237 0.07744 0.16015 0.0
H2868 H 0.45977 0.1018 0.14214 0.0
H2869 H 0.47365 0.13099 0.16391 0.0
C2870 C 0.49836 0.16345 0.26723 0.0
C2871 C 0.48069 0.16252 0.26528 0.0
C2872 C 0.50626 0.16314 0.25118 0.0
C2873 C 0.49669 0.16221 0.23291 0.0
C2874 C 0.47917 0.162 0.23103 0.0
C2875 C 0.47124 0.16212 0.24704 0.0
C2876 C 0.50454 0.15949 0.21575 0.0
C2877 C 0.49662 0.14369 0.20234 0.0
C2878 C 0.52041 0.17111 0.21342 0.0
C2879 C 0.52872 0.18884 0.22624 0.0
C2880 C 0.51945 0.20265 0.22972 0.0
C2881 C 0.52731 0.21931 0.24182 0.0
C2882 C 0.54447 0.2224 0.25046 0.0
C2883 C 0.55381 0.20884 0.24698 0.0
C2884 C 0.54602 0.19214 0.2349 0.0
C2885 C 0.53043 0.13184 0.13831 0.0
C2886 C 0.54509 0.12508 0.1443 0.0
C2887 C 0.52305 0.14105 0.15156 0.0
C2888 C 0.53031 0.14375 0.17092 0.0
C2889 C 0.54572 0.1384 0.17668 0.0
C2890 C 0.55301 0.12903 0.16348 0.0
C2891 C 0.52078 0.14966 0.18549 0.0
C2892 C 0.52841 0.1659 0.19839 0.0
C2893 C 0.50458 0.13856 0.18734 0.0
C2894 C 0.49611 0.12091 0.17451 0.0
C2895 C 0.50405 0.10558 0.17345 0.0
C2896 C 0.49615 0.08915 0.16101 0.0
C2897 C 0.48021 0.08781 0.14971 0.0
C2898 C 0.47213 0.10288 0.15088 0.0
C2899 C 0.48 0.11936 0.16326 0.0
H2900 H 0.47412 0.07508 0.1401 0.0
H2901 H 0.55053 0.23531 0.25983 0.0
H2902 H 0.77181 0.69593 0.93979 0.0
H2903 H 0.7769 0.71518 0.91394 0.0
H2904 H 0.78594 0.76616 0.95287 0.0
H2905 H 0.78065 0.74686 0.97896 0.0
H2906 H 0.76664 0.76913 0.91864 0.0
H2907 H 0.81942 0.75138 0.93898 0.0
H2908 H 0.83784 0.72941 0.94747 0.0
H2909 H 0.82273 0.69965 0.89109 0.0
H2910 H 0.80401 0.72129 0.88234 0.0
H2911 H 0.80882 0.82868 0.85505 0.0
H2912 H 0.8024 0.81218 0.88273 0.0
H2913 H 0.78813 0.75855 0.84715 0.0
H2914 H 0.7942 0.77493 0.8195 0.0
H2915 H 0.81106 0.75864 0.88092 0.0
H2916 H 0.75764 0.77504 0.86079 0.0
H2917 H 0.73895 0.79657 0.85172 0.0
H2918 H 0.75521 0.82862 0.90697 0.0
H2919 H 0.77417 0.80737 0.91632 0.0
C2920 C 0.77483 0.71124 0.94293 0.0
C2921 C 0.77593 0.71981 0.96156 0.0
C2922 C 0.7778 0.72226 0.92809 0.0
C2923 C 0.78207 0.74217 0.93144 0.0
C2924 C 0.78273 0.75083 0.9499 0.0
C2925 C 0.77975 0.73977 0.96483 0.0
C2926 C 0.78618 0.75375 0.91567 0.0
C2927 C 0.77656 0.76706 0.91061 0.0
C2928 C 0.79888 0.75085 0.90487 0.0
C2929 C 0.8102 0.73787 0.91006 0.0
C2930 C 0.81992 0.74007 0.92843 0.0
C2931 C 0.83043 0.72769 0.93328 0.0
C2932 C 0.83142 0.71312 0.91984 0.0
C2933 C 0.82193 0.71093 0.9015 0.0
C2934 C 0.81139 0.72326 0.89658 0.0
C2935 C 0.80422 0.81339 0.85315 0.0
C2936 C 0.80202 0.80311 0.83511 0.0
C2937 C 0.80052 0.80398 0.86895 0.0
C2938 C 0.79478 0.7841 0.86702 0.0
C2939 C 0.79257 0.77386 0.849 0.0
C2940 C 0.796 0.78326 0.8332 0.0
C2941 C 0.79144 0.77386 0.88381 0.0
C2942 C 0.80123 0.7608 0.88905 0.0
C2943 C 0.77889 0.77698 0.8947 0.0
C2944 C 0.76748 0.78975 0.88918 0.0
C2945 C 0.75736 0.78679 0.87096 0.0
C2946 C 0.74669 0.79892 0.86577 0.0
C2947 C 0.74594 0.81401 0.87873 0.0
C2948 C 0.75582 0.81695 0.89693 0.0
C2949 C 0.76652 0.80485 0.90219 0.0
H2950 H 0.73767 0.82338 0.87469 0.0
H2951 H 0.83957 0.70354 0.92363 0.0
H2952 H 0.81228 0.14936 0.00573 0.0
H2953 H 0.83422 0.13119 0.00409 0.0
H2954 H 0.87285 0.17904 0.03438 0.0
H2955 H 0.8511 0.19737 0.03574 0.0
H2956 H 0.88432 0.16436 0.00555 0.0
H2957 H 0.85689 0.1395 0.05611 0.0
H2958 H 0.83263 0.12496 0.07128 0.0
H2959 H 0.82097 0.07552 0.03025 0.0
H2960 H 0.84504 0.08988 0.01467 0.0
H2961 H 0.95084 0.11741 0.03302 0.0
H2962 H 0.92812 0.13471 0.0326 0.0
H2963 H 0.89225 0.08704 0.9983 0.0
H2964 H 0.9149 0.06954 0.99882 0.0
H2965 H 0.87901 0.10093 0.0282 0.0
H2966 H 0.90576 0.12639 0.97715 0.0
H2967 H 0.9296 0.14129 0.96158 0.0
H2968 H 0.94293 0.18936 0.00444 0.0
H2969 H 0.91897 0.17481 0.02013 0.0
C2970 C 0.82544 0.156 0.01208 0.0
C2971 C 0.82991 0.17483 0.02089 0.0
C2972 C 0.83798 0.14556 0.0112 0.0
C2973 C 0.85521 0.15366 0.01929 0.0
C2974 C 0.85967 0.17246 0.02803 0.0
C2975 C 0.84718 0.18292 0.02884 0.0
C2976 C 0.86866 0.14271 0.01842 0.0
C2977 C 0.88322 0.1506 0.01074 0.0
C2978 C 0.86713 0.12453 0.02476 0.0
C2979 C 0.85265 0.11585 0.0341 0.0
C2980 C 0.84906 0.12559 0.05022 0.0
C2981 C 0.83536 0.11737 0.05892 0.0
C2982 C 0.82523 0.09935 0.0517 0.0
C2983 C 0.82881 0.08949 0.03581 0.0
C2984 C 0.84249 0.09766 0.02705 0.0
C2985 C 0.93811 0.11058 0.02541 0.0
C2986 C 0.9347 0.09209 0.01593 0.0
C2987 C 0.92516 0.12055 0.02505 0.0
C2988 C 0.9085 0.11223 0.0153 0.0
C2989 C 0.90502 0.09377 0.00586 0.0
C2990 C 0.91802 0.08384 0.00606 0.0
C2991 C 0.89463 0.12265 0.01542 0.0
C2992 C 0.88003 0.11467 0.02298 0.0
C2993 C 0.89614 0.14077 0.00906 0.0
C2994 C 0.91068 0.14945 0.99988 0.0
C2995 C 0.91384 0.14008 0.98331 0.0
C2996 C 0.92734 0.1485 0.97443 0.0
C2997 C 0.93784 0.16622 0.98206 0.0
C2998 C 0.93479 0.17562 0.99855 0.0
C2999 C 0.92121 0.16735 0.00739 0.0
H3000 H 0.94831 0.17269 0.97519 0.0
H3001 H 0.81463 0.09301 0.05846 0.0
H3002 H 0.35701 0.48155 0.06555 0.0
H3003 H 0.38599 0.50123 0.06713 0.0
H3004 H 0.39671 0.45942 0.02733 0.0
H3005 H 0.36816 0.43943 0.02642 0.0
H3006 H 0.42333 0.47083 0.05232 0.0
H3007 H 0.38758 0.50377 0.01533 0.0
H3008 H 0.36383 0.51962 0.00789 0.0
H3009 H 0.38523 0.56105 0.05653 0.0
H3010 H 0.409 0.54529 0.0644 0.0
H3011 H 0.49694 0.53012 0.02641 0.0
H3012 H 0.46735 0.51186 0.02466 0.0
H3013 H 0.4626 0.54665 0.07434 0.0
H3014 H 0.49221 0.56485 0.07619 0.0
H3015 H 0.43338 0.53937 0.04452 0.0
H3016 H 0.46999 0.5053 0.08004 0.0
H3017 H 0.4944 0.49001 0.08441 0.0
H3018 H 0.47131 0.45056 0.03468 0.0
H3019 H 0.44688 0.46582 0.02983 0.0
C3020 C 0.36555 0.47659 0.05714 0.0
C3021 C 0.36023 0.45891 0.04586 0.0
C3022 C 0.38213 0.48791 0.05795 0.0
C3023 C 0.39362 0.48204 0.04712 0.0
C3024 C 0.38824 0.46436 0.03588 0.0
C3025 C 0.37182 0.45292 0.03533 0.0
C3026 C 0.41125 0.49411 0.04754 0.0
C3027 C 0.42541 0.48575 0.05037 0.0
C3028 C 0.41423 0.51372 0.04525 0.0
C3029 C 0.39997 0.52323 0.04056 0.0
C3030 C 0.38715 0.51618 0.02452 0.0
C3031 C 0.3737 0.52516 0.02021 0.0
C3032 C 0.37299 0.5413 0.03176 0.0
C3033 C 0.38577 0.54852 0.04761 0.0
C3034 C 0.39925 0.53958 0.052 0.0
C3035 C 0.4895 0.53402 0.03679 0.0
C3036 C 0.49684 0.54895 0.05139 0.0
C3037 C 0.47263 0.52352 0.03585 0.0
C3038 C 0.46276 0.52783 0.04943 0.0
C3039 C 0.46994 0.54309 0.0637 0.0
C3040 C 0.48687 0.55343 0.06478 0.0
C3041 C 0.44521 0.51601 0.0492 0.0
C3042 C 0.43116 0.52443 0.04645 0.0
C3043 C 0.44228 0.49641 0.05121 0.0
C3044 C 0.45667 0.48681 0.05448 0.0
C3045 C 0.47016 0.49342 0.06998 0.0
C3046 C 0.484 0.48476 0.07254 0.0
C3047 C 0.48443 0.46936 0.0598 0.0
C3048 C 0.47097 0.46251 0.04453 0.0
C3049 C 0.45711 0.47115 0.04188 0.0
H3050 H 0.49519 0.46271 0.06178 0.0
H3051 H 0.36257 0.54823 0.0284 0.0
H3052 H 0.39874 0.60588 0.73837 0.0
H3053 H 0.38009 0.62447 0.75033 0.0
H3054 H 0.33565 0.58428 0.71833 0.0
H3055 H 0.35431 0.56584 0.70586 0.0
H3056 H 0.33231 0.61864 0.71464 0.0
H3057 H 0.34661 0.58598 0.76739 0.0
H3058 H 0.36487 0.57425 0.79211 0.0
H3059 H 0.3895 0.63152 0.81589 0.0
H3060 H 0.37154 0.64363 0.79109 0.0
H3061 H 0.27686 0.66408 0.75854 0.0
H3062 H 0.29144 0.63868 0.7523 0.0
H3063 H 0.34041 0.67753 0.77285 0.0
H3064 H 0.32608 0.70308 0.77859 0.0
H3065 H 0.33851 0.64039 0.78338 0.0
H3066 H 0.32582 0.67214 0.7275 0.0
H3067 H 0.30633 0.68323 0.70342 0.0
H3068 H 0.27742 0.62588 0.68619 0.0
H3069 H 0.2966 0.61448 0.71039 0.0
C3070 C 0.385 0.60098 0.73385 0.0
C3071 C 0.378 0.58437 0.72118 0.0
C3072 C 0.37433 0.61155 0.74084 0.0
C3073 C 0.35644 0.60557 0.73554 0.0
C3074 C 0.34942 0.58911 0.72269 0.0
C3075 C 0.3601 0.5786 0.71556 0.0
C3076 C 0.34516 0.61694 0.74287 0.0
C3077 C 0.33344 0.62304 0.72971 0.0
C3078 C 0.34674 0.62291 0.76253 0.0
C3079 C 0.3578 0.61571 0.77728 0.0
C3080 C 0.35603 0.59609 0.77777 0.0
C3081 C 0.36631 0.58936 0.79184 0.0
C3082 C 0.37834 0.60213 0.80558 0.0
C3083 C 0.38017 0.62165 0.80524 0.0
C3084 C 0.36993 0.62845 0.79119 0.0
C3085 C 0.29072 0.66717 0.76194 0.0
C3086 C 0.3003 0.68569 0.76883 0.0
C3087 C 0.29901 0.65263 0.75845 0.0
C3088 C 0.31698 0.65635 0.76189 0.0
C3089 C 0.32651 0.6744 0.77013 0.0
C3090 C 0.31826 0.68898 0.77349 0.0
C3091 C 0.32597 0.64217 0.75513 0.0
C3092 C 0.33725 0.63565 0.76837 0.0
C3093 C 0.32391 0.63567 0.73558 0.0
C3094 C 0.31251 0.64249 0.72089 0.0
C3095 C 0.31523 0.66191 0.71867 0.0
C3096 C 0.30425 0.66825 0.70499 0.0
C3097 C 0.29061 0.65527 0.69332 0.0
C3098 C 0.28796 0.63592 0.69526 0.0
C3099 C 0.29888 0.62951 0.70895 0.0
H3100 H 0.28213 0.66021 0.68274 0.0
H3101 H 0.38623 0.59691 0.81654 0.0
H3102 H 0.23358 0.65132 0.49969 0.0
H3103 H 0.20417 0.63264 0.49846 0.0
H3104 H 0.19294 0.67887 0.53198 0.0
H3105 H 0.22207 0.69764 0.53305 0.0
H3106 H 0.18284 0.64272 0.54498 0.0
H3107 H 0.17832 0.67246 0.48673 0.0
H3108 H 0.18618 0.67979 0.45572 0.0
H3109 H 0.17268 0.62038 0.43527 0.0
H3110 H 0.16497 0.61269 0.46628 0.0
H3111 H 0.09408 0.62008 0.53965 0.0
H3112 H 0.12347 0.63552 0.53747 0.0
H3113 H 0.12394 0.59162 0.49336 0.0
H3114 H 0.09398 0.5766 0.49484 0.0
H3115 H 0.1406 0.62351 0.48508 0.0
H3116 H 0.14383 0.59287 0.54144 0.0
H3117 H 0.13646 0.58408 0.57226 0.0
H3118 H 0.15338 0.64246 0.5963 0.0
H3119 H 0.16065 0.65163 0.56556 0.0
C3120 C 0.22483 0.65749 0.50677 0.0
C3121 C 0.23015 0.67598 0.51644 0.0
C3122 C 0.20803 0.64683 0.50601 0.0
C3123 C 0.19638 0.65441 0.5151 0.0
C3124 C 0.20173 0.67276 0.52488 0.0
C3125 C 0.21838 0.6835 0.52541 0.0
C3126 C 0.17861 0.64327 0.51467 0.0
C3127 C 0.17354 0.63863 0.53192 0.0
C3128 C 0.1667 0.63736 0.49754 0.0
C3129 C 0.17126 0.64199 0.47889 0.0
C3130 C 0.17718 0.66095 0.47568 0.0
C3131 C 0.18158 0.66518 0.45809 0.0
C3132 C 0.17998 0.65056 0.44356 0.0
C3133 C 0.17394 0.63169 0.44656 0.0
C3134 C 0.16955 0.62739 0.46413 0.0
C3135 C 0.10043 0.61371 0.52946 0.0
C3136 C 0.09182 0.59699 0.51758 0.0
C3137 C 0.1173 0.6225 0.52829 0.0
C3138 C 0.1262 0.61446 0.51566 0.0
C3139 C 0.11744 0.59804 0.50335 0.0
C3140 C 0.10034 0.58945 0.50421 0.0
C3141 C 0.14463 0.62322 0.51551 0.0
C3142 C 0.14987 0.62738 0.49817 0.0
C3143 C 0.15684 0.62843 0.53256 0.0
C3144 C 0.15268 0.62295 0.55115 0.0
C3145 C 0.1459 0.60385 0.55328 0.0
C3146 C 0.14175 0.5988 0.57073 0.0
C3147 C 0.14442 0.61271 0.58622 0.0
C3148 C 0.15131 0.6317 0.58429 0.0
C3149 C 0.15547 0.63683 0.56686 0.0
H3150 H 0.14119 0.60877 0.59971 0.0
H3151 H 0.18339 0.65386 0.42995 0.0
H3152 H 0.67447 0.94921 0.77365 0.0
H3153 H 0.69799 0.93482 0.78489 0.0
H3154 H 0.69398 0.90664 0.7285 0.0
H3155 H 0.67026 0.92106 0.71698 0.0
H3156 H 0.69752 0.88308 0.75705 0.0
H3157 H 0.72515 0.94437 0.74274 0.0
H3158 H 0.73085 0.97922 0.74398 0.0
H3159 H 0.74657 0.98477 0.80456 0.0
H3160 H 0.74072 0.94993 0.80372 0.0
H3161 H 0.791 0.88028 0.77592 0.0
H3162 H 0.77064 0.90016 0.76923 0.0
H3163 H 0.73992 0.87227 0.80766 0.0
H3164 H 0.76002 0.85205 0.81412 0.0
H3165 H 0.75435 0.92416 0.78659 0.0
H3166 H 0.69862 0.859 0.78448 0.0
H3167 H 0.69382 0.82412 0.78221 0.0
H3168 H 0.7355 0.82619 0.75124 0.0
H3169 H 0.74027 0.861 0.7529 0.0
C3170 C 0.6785 0.93992 0.76358 0.0
C3171 C 0.67054 0.93635 0.74436 0.0
C3172 C 0.692 0.93176 0.77005 0.0
C3173 C 0.69781 0.91988 0.75748 0.0
C3174 C 0.68967 0.91586 0.73839 0.0
C3175 C 0.67617 0.92412 0.73183 0.0
C3176 C 0.71251 0.91181 0.76438 0.0
C3177 C 0.70994 0.89204 0.76349 0.0
C3178 C 0.72873 0.92356 0.77263 0.0
C3179 C 0.73235 0.94453 0.77318 0.0
C3180 C 0.72969 0.95301 0.75635 0.0
C3181 C 0.73297 0.97277 0.75697 0.0
C3182 C 0.73903 0.9842 0.77434 0.0
C3183 C 0.74186 0.9759 0.79112 0.0
C3184 C 0.73858 0.95615 0.79057 0.0
C3185 C 0.78027 0.87887 0.78351 0.0
C3186 C 0.77689 0.86438 0.79525 0.0
C3187 C 0.76862 0.89022 0.77963 0.0
C3188 C 0.75357 0.88727 0.78754 0.0
C3189 C 0.7513 0.87445 0.8011 0.0
C3190 C 0.76282 0.86296 0.80482 0.0
C3191 C 0.73926 0.89546 0.77961 0.0
C3192 C 0.7419 0.91522 0.78024 0.0
C3193 C 0.72316 0.88368 0.77086 0.0
C3194 C 0.71989 0.86264 0.76899 0.0
C3195 C 0.70666 0.852 0.77706 0.0
C3196 C 0.70396 0.83224 0.7759 0.0
C3197 C 0.71439 0.82295 0.76667 0.0
C3198 C 0.72746 0.83339 0.75843 0.0
C3199 C 0.73014 0.85314 0.75944 0.0
H3200 H 0.71233 0.80767 0.76587 0.0
H3201 H 0.74156 0.99949 0.7748 0.0
H3202 H 0.77268 0.97519 0.56164 0.0
H3203 H 0.74845 0.9901 0.56295 0.0
H3204 H 0.71621 0.94547 0.5215 0.0
H3205 H 0.74031 0.93073 0.51988 0.0
H3206 H 0.71081 0.97839 0.51294 0.0
H3207 H 0.71353 0.94733 0.56954 0.0
H3208 H 0.72727 0.93953 0.60007 0.0
H3209 H 0.73758 0.99792 0.62357 0.0
H3210 H 0.7241 0.00612 0.59308 0.0
H3211 H 0.6303 0.99768 0.52326 0.0
H3212 H 0.65413 0.98188 0.52412 0.0
H3213 H 0.68636 0.0279 0.56399 0.0
H3214 H 0.66249 0.04348 0.56361 0.0
H3215 H 0.69178 0.99436 0.57365 0.0
H3216 H 0.68908 0.02513 0.51655 0.0
H3217 H 0.67514 0.03249 0.48592 0.0
H3218 H 0.6645 0.9738 0.46331 0.0
H3219 H 0.67818 0.96605 0.49391 0.0
C3220 C 0.76043 0.96856 0.55279 0.0
C3221 C 0.7585 0.95172 0.54067 0.0
C3222 C 0.74654 0.97705 0.55362 0.0
C3223 C 0.73036 0.96883 0.54247 0.0
C3224 C 0.72849 0.95213 0.53025 0.0
C3225 C 0.74234 0.94368 0.52939 0.0
C3226 C 0.7154 0.97764 0.54326 0.0
C3227 C 0.70654 0.98163 0.52621 0.0
C3228 C 0.70993 0.98227 0.56058 0.0
C3229 C 0.71796 0.97737 0.57896 0.0
C3230 C 0.71884 0.95853 0.58117 0.0
C3231 C 0.72656 0.95404 0.59847 0.0
C3232 C 0.73334 0.96823 0.61373 0.0
C3233 C 0.73235 0.98695 0.61173 0.0
C3234 C 0.72466 0.99152 0.59445 0.0
C3235 C 0.64238 0.00432 0.53242 0.0
C3236 C 0.64449 0.02198 0.5432 0.0
C3237 C 0.65607 0.99534 0.53277 0.0
C3238 C 0.6722 0.00382 0.54389 0.0
C3239 C 0.67413 0.02109 0.55521 0.0
C3240 C 0.66048 0.03008 0.55484 0.0
C3241 C 0.68718 0.99502 0.54332 0.0
C3242 C 0.69605 0.99107 0.5604 0.0
C3243 C 0.69264 0.99034 0.52602 0.0
C3244 C 0.6845 0.99499 0.50758 0.0
C3245 C 0.68365 0.01377 0.50509 0.0
C3246 C 0.67582 0.01802 0.48773 0.0
C3247 C 0.6689 0.00361 0.4727 0.0
C3248 C 0.66985 0.98494 0.47498 0.0
C3249 C 0.67765 0.98061 0.49232 0.0
H3250 H 0.66284 0.00692 0.45926 0.0
H3251 H 0.73932 0.96472 0.62711 0.0
H3252 H 0.40019 0.47068 0.70585 0.0
H3253 H 0.38121 0.44247 0.71375 0.0
H3254 H 0.33727 0.46018 0.6859 0.0
H3255 H 0.35615 0.4887 0.67842 0.0
H3256 H 0.3338 0.45386 0.72068 0.0
H3257 H 0.35076 0.42008 0.66873 0.0
H3258 H 0.37091 0.40898 0.65045 0.0
H3259 H 0.39005 0.38269 0.69809 0.0
H3260 H 0.37023 0.39391 0.71677 0.0
H3261 H 0.28069 0.35306 0.723 0.0
H3262 H 0.29859 0.3769 0.70756 0.0
H3263 H 0.32673 0.4037 0.76246 0.0
H3264 H 0.30908 0.37968 0.77798 0.0
H3265 H 0.33667 0.38632 0.712 0.0
H3266 H 0.33135 0.45226 0.75796 0.0
H3267 H 0.31124 0.4627 0.7768 0.0
H3268 H 0.2688 0.42412 0.74036 0.0
H3269 H 0.28863 0.41367 0.72115 0.0
C3270 C 0.38652 0.46835 0.70099 0.0
C3271 C 0.37965 0.48202 0.69166 0.0
C3272 C 0.37567 0.45215 0.70548 0.0
C3273 C 0.3578 0.44919 0.70043 0.0
C3274 C 0.35101 0.46222 0.69002 0.0
C3275 C 0.36182 0.4785 0.68571 0.0
C3276 C 0.34613 0.43385 0.70783 0.0
C3277 C 0.33439 0.43909 0.7186 0.0
C3278 C 0.34702 0.41457 0.7054 0.0
C3279 C 0.35909 0.408 0.69421 0.0
C3280 C 0.35938 0.4121 0.67538 0.0
C3281 C 0.37073 0.40576 0.66493 0.0
C3282 C 0.38177 0.39517 0.67311 0.0
C3283 C 0.3815 0.39091 0.69177 0.0
C3284 C 0.37021 0.39726 0.70229 0.0
C3285 C 0.29061 0.36413 0.73176 0.0
C3286 C 0.29347 0.36469 0.75166 0.0
C3287 C 0.30089 0.37758 0.72293 0.0
C3288 C 0.31393 0.39196 0.73391 0.0
C3289 C 0.31669 0.39268 0.7538 0.0
C3290 C 0.30659 0.37905 0.76262 0.0
C3291 C 0.3245 0.40649 0.7246 0.0
C3292 C 0.33608 0.40112 0.71378 0.0
C3293 C 0.32358 0.42567 0.727 0.0
C3294 C 0.3115 0.43206 0.73825 0.0
C3295 C 0.31772 0.44606 0.75393 0.0
C3296 C 0.30638 0.45197 0.76468 0.0
C3297 C 0.28876 0.44403 0.75982 0.0
C3298 C 0.28245 0.4302 0.74416 0.0
C3299 C 0.29375 0.42426 0.73336 0.0
H3300 H 0.28 0.44861 0.76816 0.0
H3301 H 0.3905 0.39023 0.66497 0.0
H3302 H 0.17467 0.53425 0.25504 0.0
H3303 H 0.18743 0.56829 0.25892 0.0
H3304 H 0.13695 0.57962 0.25024 0.0
H3305 H 0.12404 0.54553 0.24619 0.0
H3306 H 0.15762 0.59931 0.22875 0.0
H3307 H 0.16107 0.58875 0.29401 0.0
H3308 H 0.16806 0.5729 0.32235 0.0
H3309 H 0.22151 0.58791 0.31819 0.0
H3310 H 0.21484 0.60363 0.28966 0.0
H3311 H 0.1911 0.6987 0.24917 0.0
H3312 H 0.1752 0.6665 0.25163 0.0
H3313 H 0.22269 0.64831 0.26085 0.0
H3314 H 0.23866 0.68048 0.25848 0.0
H3315 H 0.20134 0.63293 0.28394 0.0
H3316 H 0.19752 0.64055 0.21717 0.0
H3317 H 0.1907 0.65585 0.18839 0.0
H3318 H 0.13786 0.64575 0.19523 0.0
H3319 H 0.14443 0.63063 0.22422 0.0
C3320 C 0.16627 0.54397 0.25408 0.0
C3321 C 0.14835 0.5372 0.25027 0.0
C3322 C 0.17358 0.56342 0.25641 0.0
C3323 C 0.16312 0.57646 0.25507 0.0
C3324 C 0.14523 0.56977 0.25141 0.0
C3325 C 0.13789 0.55029 0.24912 0.0
C3326 C 0.17096 0.59703 0.25653 0.0
C3327 C 0.16692 0.60678 0.24098 0.0
C3328 C 0.18335 0.6066 0.27233 0.0
C3329 C 0.18743 0.59726 0.28959 0.0
C3330 C 0.17431 0.58856 0.29904 0.0
C3331 C 0.17821 0.57961 0.31516 0.0
C3332 C 0.19521 0.57936 0.32203 0.0
C3333 C 0.20835 0.58811 0.31284 0.0
C3334 C 0.20451 0.59706 0.29671 0.0
C3335 C 0.19814 0.68782 0.25172 0.0
C3336 C 0.21611 0.69205 0.25347 0.0
C3337 C 0.18905 0.66946 0.25317 0.0
C3338 C 0.19776 0.65497 0.25618 0.0
C3339 C 0.21573 0.6593 0.25855 0.0
C3340 C 0.22484 0.67768 0.2572 0.0
C3341 C 0.18814 0.63513 0.25607 0.0
C3342 C 0.19186 0.62551 0.27184 0.0
C3343 C 0.17547 0.62564 0.24045 0.0
C3344 C 0.17151 0.63467 0.22298 0.0
C3345 C 0.18448 0.64174 0.21262 0.0
C3346 C 0.18065 0.65036 0.19626 0.0
C3347 C 0.16387 0.65183 0.19002 0.0
C3348 C 0.15086 0.64464 0.2001 0.0
C3349 C 0.15463 0.63604 0.2165 0.0
H3350 H 0.16093 0.6585 0.17734 0.0
H3351 H 0.19821 0.57242 0.33451 0.0
H3352 H 0.52859 0.74973 0.43271 0.0
H3353 H 0.53376 0.7219 0.44741 0.0
H3354 H 0.4864 0.71615 0.46941 0.0
H3355 H 0.48157 0.74461 0.45542 0.0
H3356 H 0.50861 0.70828 0.49514 0.0
H3357 H 0.4912 0.68697 0.42897 0.0
H3358 H 0.49131 0.68705 0.39454 0.0
H3359 H 0.54314 0.68039 0.40264 0.0
H3360 H 0.54342 0.68053 0.43716 0.0
H3361 H 0.5063 0.61224 0.51413 0.0
H3362 H 0.49991 0.64062 0.50142 0.0
H3363 H 0.55011 0.65466 0.48576 0.0
H3364 H 0.5566 0.62627 0.49835 0.0
H3365 H 0.52475 0.65724 0.45674 0.0
H3366 H 0.54152 0.68011 0.52391 0.0
H3367 H 0.53959 0.67723 0.55767 0.0
H3368 H 0.48624 0.67783 0.54647 0.0
H3369 H 0.48782 0.68063 0.51254 0.0
C3370 C 0.51924 0.74254 0.44066 0.0
C3371 C 0.50459 0.74935 0.44274 0.0
C3372 C 0.52217 0.72652 0.44901 0.0
C3373 C 0.5103 0.71652 0.45923 0.0
C3374 C 0.49576 0.72348 0.46158 0.0
C3375 C 0.49298 0.73975 0.4535 0.0
C3376 C 0.51307 0.69884 0.46737 0.0
C3377 C 0.5119 0.69705 0.48661 0.0
C3378 C 0.5175 0.68405 0.45644 0.0
C3379 C 0.51738 0.68394 0.43568 0.0
C3380 C 0.50266 0.68566 0.42342 0.0
C3381 C 0.50265 0.68564 0.40389 0.0
C3382 C 0.51724 0.68377 0.39642 0.0
C3383 C 0.53186 0.68186 0.40845 0.0
C3384 C 0.53195 0.68189 0.428 0.0
C3385 C 0.51606 0.62142 0.50814 0.0
C3386 C 0.53201 0.61693 0.50733 0.0
C3387 C 0.51238 0.6377 0.50089 0.0
C3388 C 0.52455 0.64987 0.49268 0.0
C3389 C 0.5405 0.6455 0.49199 0.0
C3390 C 0.54423 0.62928 0.49931 0.0
C3391 C 0.52059 0.66695 0.48444 0.0
C3392 C 0.52146 0.66854 0.46519 0.0
C3393 C 0.51563 0.68134 0.49524 0.0
C3394 C 0.51478 0.68054 0.51572 0.0
C3395 C 0.52938 0.67966 0.52865 0.0
C3396 C 0.52834 0.67803 0.54779 0.0
C3397 C 0.51279 0.67737 0.55418 0.0
C3398 C 0.49826 0.67844 0.54146 0.0
C3399 C 0.49923 0.68009 0.5223 0.0
H3400 H 0.51198 0.67602 0.56898 0.0
H3401 H 0.5172 0.68376 0.38129 0.0
H3402 H 0.60512 0.3309 0.69836 0.0
H3403 H 0.63113 0.32721 0.71881 0.0
H3404 H 0.65814 0.33171 0.67129 0.0
H3405 H 0.63247 0.3359 0.65096 0.0
H3406 H 0.66126 0.2997 0.69416 0.0
H3407 H 0.66675 0.36812 0.70014 0.0
H3408 H 0.65672 0.39707 0.70766 0.0
H3409 H 0.65392 0.38323 0.76448 0.0
H3410 H 0.66371 0.35402 0.7572 0.0
H3411 H 0.74888 0.31468 0.73129 0.0
H3412 H 0.72044 0.31532 0.71497 0.0
H3413 H 0.70592 0.33 0.76882 0.0
H3414 H 0.73488 0.33039 0.78514 0.0
H3415 H 0.69421 0.35022 0.74518 0.0
H3416 H 0.69108 0.28417 0.74192 0.0
H3417 H 0.70067 0.25464 0.73597 0.0
H3418 H 0.69724 0.26161 0.67662 0.0
H3419 H 0.68793 0.29138 0.68226 0.0
C3420 C 0.61662 0.33115 0.6923 0.0
C3421 C 0.61675 0.33379 0.67306 0.0
C3422 C 0.63145 0.32903 0.70399 0.0
C3423 C 0.64655 0.32914 0.69654 0.0
C3424 C 0.64662 0.33153 0.6773 0.0
C3425 C 0.63195 0.33404 0.66574 0.0
C3426 C 0.66243 0.3271 0.70877 0.0
C3427 C 0.66856 0.31076 0.70526 0.0
C3428 C 0.67158 0.34122 0.72368 0.0
C3429 C 0.66575 0.35878 0.72805 0.0
C3430 C 0.66383 0.37115 0.71418 0.0
C3431 C 0.65823 0.38763 0.71841 0.0
C3432 C 0.65463 0.39196 0.73651 0.0
C3433 C 0.65667 0.37984 0.75045 0.0
C3434 C 0.66226 0.36333 0.74628 0.0
C3435 C 0.73959 0.3179 0.73969 0.0
C3436 C 0.74409 0.32242 0.75952 0.0
C3437 C 0.72324 0.31814 0.73033 0.0
C3438 C 0.71077 0.32234 0.74061 0.0
C3439 C 0.71522 0.32667 0.7605 0.0
C3440 C 0.73175 0.3268 0.76985 0.0
C3441 C 0.69339 0.32288 0.73046 0.0
C3442 C 0.6869 0.33895 0.73431 0.0
C3443 C 0.68372 0.30827 0.71612 0.0
C3444 C 0.68891 0.29011 0.71255 0.0
C3445 C 0.69244 0.27946 0.72761 0.0
C3446 C 0.69784 0.26268 0.7243 0.0
C3447 C 0.69959 0.25627 0.70594 0.0
C3448 C 0.69588 0.2666 0.69084 0.0
C3449 C 0.69053 0.28342 0.69408 0.0
H3450 H 0.7038 0.2433 0.70341 0.0
H3451 H 0.6503 0.40472 0.73976 0.0
H3452 H 0.99597 0.36168 0.90444 0.0
H3453 H 0.99961 0.39282 0.92194 0.0
H3454 H 0.03739 0.37999 0.96496 0.0
H3455 H 0.03319 0.34827 0.94776 0.0
H3456 H 0.01851 0.39767 0.98163 0.0
H3457 H 0.04811 0.41074 0.92989 0.0
H3458 H 0.05243 0.40971 0.89649 0.0
H3459 H 0.0114 0.43762 0.8828 0.0
H3460 H 0.00667 0.43859 0.91608 0.0
H3461 H 0.0483 0.49603 0.02065 0.0
H3462 H 0.04588 0.46377 0.00589 0.0
H3463 H 1.00235 0.46839 0.9654 0.0
H3464 H 0.00462 0.50062 0.98012 0.0
H3465 H 0.02643 0.45534 0.94821 0.0
H3466 H 0.99594 0.43915 1.00027 0.0
H3467 H 0.9915 0.43808 0.03354 0.0
H3468 H 0.03664 0.41657 0.04684 0.0
H3469 H 0.04123 0.41734 0.01356 0.0
C3470 C 0.00508 0.36545 0.91762 0.0
C3471 C 0.01438 0.35251 0.92463 0.0
C3472 C 0.00725 0.38339 0.92758 0.0
C3473 C 0.01912 0.38909 0.94459 0.0
C3474 C 0.02823 0.37605 0.95183 0.0
C3475 C 0.02584 0.35791 0.94199 0.0
C3476 C 0.02165 0.40849 0.95491 0.0
C3477 C 0.02057 0.41029 0.97434 0.0
C3478 C 0.02411 0.42508 0.94548 0.0
C3479 C 0.02695 0.4246 0.92546 0.0
C3480 C 0.03993 0.41655 0.91973 0.0
C3481 C 0.04246 0.41599 0.90082 0.0
C3482 C 0.03217 0.42356 0.88752 0.0
C3483 C 0.01935 0.43175 0.89312 0.0
C3484 C 0.01675 0.43232 0.912 0.0
C3485 C 0.03813 0.49016 0.00868 0.0
C3486 C 0.02669 0.50099 0.00154 0.0
C3487 C 0.03671 0.47164 1.00031 0.0
C3488 C 0.02389 0.46358 0.98455 0.0
C3489 C 0.01234 0.47429 0.97754 0.0
C3490 C 0.01363 0.49271 0.98602 0.0
C3491 C 0.023 0.44439 0.97477 0.0
C3492 C 0.02449 0.44269 0.95545 0.0
C3493 C 0.02121 0.42796 0.98436 0.0
C3494 C 0.01901 0.42849 0.00452 0.0
C3495 C 0.00502 0.4344 0.01035 0.0
C3496 C 1.00242 0.43373 0.02917 0.0
C3497 C 0.0138 0.42728 0.0423 0.0
C3498 C 0.02783 0.42155 0.03665 0.0
C3499 C 0.0304 0.42203 0.01781 0.0
H3500 H 0.01172 0.42667 0.05685 0.0
H3501 H 0.03415 0.42311 0.87289 0.0
H3502 H 0.99907 0.83559 0.14543 0.0
H3503 H 0.97562 0.83539 0.16315 0.0
H3504 H 0.00535 0.81965 0.21182 0.0
H3505 H 0.02905 0.81976 0.19404 0.0
H3506 H 0.9717 0.79868 0.20461 0.0
H3507 H 1.0007 0.86433 0.21195 0.0
H3508 H 0.01391 0.89467 0.20126 0.0
H3509 H 0.96562 0.89586 0.16787 0.0
H3510 H 0.95216 0.86537 0.17815 0.0
H3511 H 0.91458 0.81568 0.26731 0.0
H3512 H 0.93973 0.81579 0.25224 0.0
H3513 H 0.91554 0.83678 0.20319 0.0
H3514 H 0.89039 0.83682 0.21826 0.0
H3515 H 0.9477 0.85548 0.21231 0.0
H3516 H 0.9189 0.78948 0.20335 0.0
H3517 H 0.90539 0.75881 0.2132 0.0
H3518 H 0.95277 0.7579 0.24869 0.0
H3519 H 0.96651 0.78871 0.23925 0.0
C3520 C 1.0007 0.83209 0.15991 0.0
C3521 C 0.01602 0.82775 0.1683 0.0
C3522 C 0.98725 0.83206 0.17007 0.0
C3523 C 0.98874 0.82771 0.18891 0.0
C3524 C 0.00391 0.82311 0.19731 0.0
C3525 C 0.01747 0.82323 0.18715 0.0
C3526 C 0.97434 0.82791 0.19965 0.0
C3527 C 0.96663 0.81119 0.20659 0.0
C3528 C 0.96743 0.84409 0.20185 0.0
C3529 C 0.97546 0.86247 0.1957 0.0
C3530 C 0.99293 0.87098 0.20221 0.0
C3531 C 1.00045 0.88822 0.19625 0.0
C3532 C 0.99062 0.89716 0.18386 0.0
C3533 C 0.97322 0.88891 0.17745 0.0
C3534 C 0.96564 0.87165 0.18336 0.0
C3535 C 0.91451 0.82011 0.25322 0.0
C3536 C 0.90037 0.82616 0.24399 0.0
C3537 C 0.92894 0.82018 0.2446 0.0
C3538 C 0.92953 0.82607 0.22642 0.0
C3539 C 0.91546 0.83218 0.21721 0.0
C3540 C 0.90107 0.83223 0.22587 0.0
C3541 C 0.94487 0.82616 0.21711 0.0
C3542 C 0.95279 0.84297 0.21044 0.0
C3543 C 0.9519 0.81003 0.21507 0.0
C3544 C 0.94368 0.7915 0.22075 0.0
C3545 C 0.9264 0.78281 0.21337 0.0
C3546 C 0.91871 0.76539 0.21886 0.0
C3547 C 0.9282 0.75644 0.23161 0.0
C3548 C 0.94542 0.76487 0.23885 0.0
C3549 C 0.95317 0.7823 0.23342 0.0
H3550 H 0.92222 0.74295 0.23583 0.0
H3551 H 0.99647 0.91051 0.17926 0.0
H3552 H 0.57309 0.3962 0.14992 0.0
H3553 H 0.57008 0.42393 0.13392 0.0
H3554 H 0.53956 0.3875 0.08466 0.0
H3555 H 0.543 0.35949 0.10052 0.0
H3556 H 0.56034 0.41606 0.07346 0.0
H3557 H 0.52138 0.41185 0.11787 0.0
H3558 H 0.51238 0.40921 0.14916 0.0
H3559 H 0.54837 0.46171 0.17187 0.0
H3560 H 0.55771 0.46455 0.14076 0.0
H3561 H 0.52935 0.49189 0.0333 0.0
H3562 H 0.53125 0.46258 0.04717 0.0
H3563 H 0.5648 0.49515 0.09681 0.0
H3564 H 0.56287 0.52451 0.08318 0.0
H3565 H 0.54081 0.4677 0.10684 0.0
H3566 H 0.58032 0.4712 0.06262 0.0
H3567 H 0.58915 0.47387 0.03126 0.0
H3568 H 0.55161 0.42264 0.00806 0.0
H3569 H 0.54239 0.41981 0.03925 0.0
C3570 C 0.56576 0.39401 0.13566 0.0
C3571 C 0.55819 0.37554 0.12658 0.0
C3572 C 0.56395 0.40996 0.12653 0.0
C3573 C 0.55424 0.40796 0.10818 0.0
C3574 C 0.54703 0.38951 0.09885 0.0
C3575 C 0.54899 0.37348 0.10794 0.0
C3576 C 0.55167 0.42513 0.0989 0.0
C3577 C 0.5558 0.42718 0.08067 0.0
C3578 C 0.54603 0.43994 0.10832 0.0
C3579 C 0.54035 0.43833 0.12702 0.0
C3580 C 0.52745 0.42277 0.12957 0.0
C3581 C 0.52227 0.42125 0.14727 0.0
C3582 C 0.52983 0.43526 0.1625 0.0
C3583 C 0.54254 0.45085 0.16006 0.0
C3584 C 0.54777 0.45244 0.14239 0.0
C3585 C 0.53722 0.49287 0.04713 0.0
C3586 C 0.54604 0.51069 0.05701 0.0
C3587 C 0.53832 0.47604 0.05504 0.0
C3588 C 0.54832 0.47655 0.07299 0.0
C3589 C 0.55701 0.49431 0.08294 0.0
C3590 C 0.55594 0.51114 0.07505 0.0
C3591 C 0.54966 0.45868 0.08153 0.0
C3592 C 0.54527 0.45651 0.09961 0.0
C3593 C 0.55499 0.44376 0.07195 0.0
C3594 C 0.56055 0.44541 0.05321 0.0
C3595 C 0.57386 0.46059 0.0508 0.0
C3596 C 0.57895 0.46212 0.03306 0.0
C3597 C 0.57091 0.44846 0.01766 0.0
C3598 C 0.5578 0.43322 0.01999 0.0
C3599 C 0.55265 0.43164 0.0377 0.0
H3600 H 0.57487 0.44967 0.00394 0.0
H3601 H 0.5258 0.43405 0.17619 0.0
H3602 H 0.9622 0.26442 0.37297 0.0
H3603 H 0.93464 0.26594 0.3546 0.0
H3604 H 0.94616 0.32639 0.37079 0.0
H3605 H 0.97368 0.32499 0.3893 0.0
H3606 H 0.91362 0.30972 0.37448 0.0
H3607 H 0.94906 0.30843 0.32637 0.0
H3608 H 0.96856 0.2957 0.30834 0.0
H3609 H 0.9303 0.24361 0.29141 0.0
H3610 H 0.91065 0.25594 0.30956 0.0
H3611 H 0.84984 0.33443 0.30983 0.0
H3612 H 0.87721 0.33129 0.32704 0.0
H3613 H 0.86418 0.27145 0.30728 0.0
H3614 H 0.83677 0.27455 0.28963 0.0
H3615 H 0.89696 0.28652 0.30568 0.0
H3616 H 0.86106 0.28784 0.3527 0.0
H3617 H 0.84134 0.30024 0.37065 0.0
H3618 H 0.88007 0.35152 0.39005 0.0
H3619 H 0.89993 0.33957 0.37193 0.0
C3620 C 0.95892 0.27807 0.37258 0.0
C3621 C 0.97021 0.29459 0.3826 0.0
C3622 C 0.94315 0.27891 0.36201 0.0
C3623 C 0.93835 0.29631 0.36117 0.0
C3624 C 0.94957 0.31281 0.37121 0.0
C3625 C 0.96535 0.31198 0.38173 0.0
C3626 C 0.92156 0.2973 0.35002 0.0
C3627 C 0.91007 0.30487 0.35939 0.0
C3628 C 0.91667 0.29046 0.33043 0.0
C3629 C 0.92846 0.28304 0.31949 0.0
C3630 C 0.94486 0.2942 0.31893 0.0
C3631 C 0.95593 0.28707 0.30867 0.0
C3632 C 0.95069 0.26884 0.29878 0.0
C3633 C 0.93435 0.25772 0.2991 0.0
C3634 C 0.92324 0.26478 0.30936 0.0
C3635 C 0.85277 0.32058 0.30904 0.0
C3636 C 0.84103 0.30472 0.2984 0.0
C3637 C 0.86843 0.3188 0.31901 0.0
C3638 C 0.87267 0.30106 0.31878 0.0
C3639 C 0.86118 0.28527 0.30777 0.0
C3640 C 0.8455 0.28706 0.29769 0.0
C3641 C 0.88906 0.2991 0.3301 0.0
C3642 C 0.90047 0.29133 0.32079 0.0
C3643 C 0.89383 0.30567 0.34978 0.0
C3644 C 0.88194 0.31287 0.3608 0.0
C3645 C 0.86533 0.30183 0.36067 0.0
C3646 C 0.85413 0.30877 0.37089 0.0
C3647 C 0.85943 0.32667 0.38146 0.0
C3648 C 0.87597 0.33766 0.38184 0.0
C3649 C 0.88721 0.3308 0.3716 0.0
H3650 H 0.85075 0.33202 0.38937 0.0
H3651 H 0.95928 0.26334 0.29084 0.0
H3652 H 0.03466 0.78026 0.57061 0.0
H3653 H 0.03151 0.74768 0.55637 0.0
H3654 H 0.05668 0.73426 0.60925 0.0
H3655 H 0.06005 0.76686 0.62354 0.0
H3656 H 0.06837 0.71933 0.5797 0.0
H3657 H 0.01317 0.71986 0.59577 0.0
H3658 H 0.98675 0.73131 0.59619 0.0
H3659 H 0.97436 0.72027 0.5353 0.0
H3660 H 1.00085 0.70899 0.53449 0.0
H3661 H 0.04524 0.619 0.55708 0.0
H3662 H 0.04779 0.65111 0.57231 0.0
H3663 H 0.023 0.66567 0.51978 0.0
H3664 H 0.02015 0.63342 0.50469 0.0
H3665 H 0.01113 0.67984 0.5496 0.0
H3666 H 0.06647 0.67916 0.53366 0.0
H3667 H 0.09237 0.66663 0.53351 0.0
H3668 H 0.10434 0.67749 0.59443 0.0
H3669 H 0.07833 0.68978 0.59497 0.0
C3670 C 0.03953 0.7704 0.57924 0.0
C3671 C 0.04753 0.77622 0.59828 0.0
C3672 C 0.03766 0.75172 0.57108 0.0
C3673 C 0.04368 0.73838 0.58177 0.0
C3674 C 0.0519 0.74423 0.60069 0.0
C3675 C 0.05375 0.7629 0.60887 0.0
C3676 C 0.04135 0.71834 0.57326 0.0
C3677 C 0.05582 0.71063 0.57334 0.0
C3678 C 0.02503 0.70701 0.56462 0.0
C3679 C 0.00909 0.71376 0.56506 0.0
C3680 C 0.00489 0.72002 0.58245 0.0
C3681 C 0.98988 0.72645 0.58277 0.0
C3682 C 0.97891 0.72656 0.56578 0.0
C3683 C 0.98289 0.7202 0.54844 0.0
C3684 C 0.99789 0.71377 0.54805 0.0
C3685 C 0.04015 0.62896 0.54889 0.0
C3686 C 0.03245 0.62364 0.52974 0.0
C3687 C 0.04174 0.64739 0.55754 0.0
C3688 C 0.03577 0.66096 0.54715 0.0
C3689 C 0.02772 0.65552 0.52811 0.0
C3690 C 0.02614 0.63708 0.51948 0.0
C3691 C 0.03814 0.68087 0.55598 0.0
C3692 C 0.02368 0.68855 0.55596 0.0
C3693 C 0.05446 0.69215 0.56468 0.0
C3694 C 0.07035 0.68523 0.56436 0.0
C3695 C 0.07457 0.67878 0.54703 0.0
C3696 C 0.08927 0.67172 0.54688 0.0
C3697 C 0.09997 0.67122 0.56395 0.0
C3698 C 0.09602 0.67786 0.58122 0.0
C3699 C 0.08131 0.68489 0.58145 0.0
H3700 H 0.11132 0.66571 0.56381 0.0
H3701 H 0.9673 0.73154 0.56605 0.0
H3702 H 0.56267 0.78236 0.88241 0.0
H3703 H 0.58688 0.77869 0.86692 0.0
H3704 H 0.60455 0.83954 0.87118 0.0
H3705 H 0.58026 0.84334 0.88643 0.0
H3706 H 0.60706 0.82339 0.83692 0.0
H3707 H 0.62355 0.81352 0.90202 0.0
H3708 H 0.62011 0.7987 0.93144 0.0
H3709 H 0.61813 0.7442 0.90209 0.0
H3710 H 0.62133 0.75866 0.8724 0.0
H3711 H 0.69147 0.82664 0.8187 0.0
H3712 H 0.66652 0.83033 0.83258 0.0
H3713 H 0.65064 0.76962 0.83194 0.0
H3714 H 0.67608 0.76587 0.81915 0.0
H3715 H 0.64697 0.78575 0.86416 0.0
H3716 H 0.63078 0.7955 0.79904 0.0
H3717 H 0.63436 0.81029 0.76962 0.0
H3718 H 0.63571 0.86473 0.7987 0.0
H3719 H 0.63237 0.85031 0.82837 0.0
C3720 C 0.57167 0.79498 0.88 0.0
C3721 C 0.56952 0.81315 0.88577 0.0
C3722 C 0.58556 0.79286 0.8712 0.0
C3723 C 0.59771 0.80884 0.86807 0.0
C3724 C 0.59539 0.82698 0.87344 0.0
C3725 C 0.5815 0.82912 0.88224 0.0
C3726 C 0.61293 0.80668 0.85943 0.0
C3727 C 0.6159 0.81533 0.843 0.0
C3728 C 0.62432 0.79585 0.86709 0.0
C3729 C 0.62251 0.78715 0.88495 0.0
C3730 C 0.62225 0.79835 0.9018 0.0
C3731 C 0.62037 0.79002 0.91853 0.0
C3732 C 0.61886 0.77051 0.91862 0.0
C3733 C 0.61928 0.7593 0.90199 0.0
C3734 C 0.62114 0.76756 0.88521 0.0
C3735 C 0.68278 0.81404 0.82162 0.0
C3736 C 0.68589 0.79592 0.81767 0.0
C3737 C 0.66833 0.81617 0.82937 0.0
C3738 C 0.65646 0.80024 0.8331 0.0
C3739 C 0.65951 0.78216 0.82915 0.0
C3740 C 0.67403 0.78002 0.82157 0.0
C3741 C 0.6411 0.80237 0.84154 0.0
C3742 C 0.63812 0.79375 0.85799 0.0
C3743 C 0.62969 0.81319 0.83386 0.0
C3744 C 0.63148 0.82185 0.81597 0.0
C3745 C 0.63194 0.81065 0.79919 0.0
C3746 C 0.63392 0.81896 0.78246 0.0
C3747 C 0.63531 0.83845 0.7823 0.0
C3748 C 0.63466 0.84964 0.79885 0.0
C3749 C 0.6327 0.8414 0.81562 0.0
H3750 H 0.63685 0.84486 0.76935 0.0
H3751 H 0.6174 0.76409 0.93159 0.0
H3752 H 0.42825 0.54346 0.64853 0.0
H3753 H 0.45133 0.55158 0.63025 0.0
H3754 H 0.45765 0.611 0.64871 0.0
H3755 H 0.43437 0.60302 0.66709 0.0
H3756 H 0.46149 0.60249 0.60934 0.0
H3757 H 0.48378 0.59159 0.67208 0.0
H3758 H 0.48451 0.57448 0.70047 0.0
H3759 H 0.49122 0.5255 0.66749 0.0
H3760 H 0.49025 0.54221 0.63883 0.0
H3761 H 0.5428 0.61107 0.57511 0.0
H3762 H 0.52305 0.6161 0.59702 0.0
H3763 H 0.50376 0.55547 0.59364 0.0
H3764 H 0.52338 0.55045 0.57219 0.0
H3765 H 0.50979 0.57282 0.62989 0.0
H3766 H 0.48627 0.58419 0.56646 0.0
H3767 H 0.4858 0.6019 0.53855 0.0
H3768 H 0.48111 0.65104 0.57281 0.0
H3769 H 0.4824 0.63393 0.6012 0.0
C3770 C 0.43434 0.55829 0.64853 0.0
C3771 C 0.42964 0.57258 0.6595 0.0
C3772 C 0.44752 0.5629 0.63804 0.0
C3773 C 0.45632 0.58185 0.63839 0.0
C3774 C 0.45101 0.59629 0.64833 0.0
C3775 C 0.43776 0.59168 0.65887 0.0
C3776 C 0.47199 0.58608 0.62976 0.0
C3777 C 0.47226 0.59639 0.61399 0.0
C3778 C 0.48601 0.57817 0.636 0.0
C3779 C 0.48685 0.56813 0.65328 0.0
C3780 C 0.4853 0.57713 0.67085 0.0
C3781 C 0.48577 0.56751 0.687 0.0
C3782 C 0.48789 0.54891 0.68578 0.0
C3783 C 0.48958 0.53991 0.66842 0.0
C3784 C 0.48909 0.54946 0.65222 0.0
C3785 C 0.53448 0.59889 0.57933 0.0
C3786 C 0.53449 0.58039 0.57196 0.0
C3787 C 0.52319 0.60177 0.59172 0.0
C3788 C 0.51189 0.58615 0.59681 0.0
C3789 C 0.51239 0.56771 0.58991 0.0
C3790 C 0.52356 0.56486 0.5776 0.0
C3791 C 0.49901 0.58846 0.60885 0.0
C3792 C 0.49928 0.5794 0.62543 0.0
C3793 C 0.48561 0.59762 0.6033 0.0
C3794 C 0.48473 0.60782 0.58609 0.0
C3795 C 0.48539 0.59885 0.56815 0.0
C3796 C 0.48497 0.60878 0.55222 0.0
C3797 C 0.48341 0.62757 0.55388 0.0
C3798 C 0.48236 0.63649 0.57153 0.0
C3799 C 0.48303 0.62671 0.58758 0.0
H3800 H 0.48298 0.63518 0.54149 0.0
H3801 H 0.48824 0.54148 0.6983 0.0
H3802 H 0.76394 0.18999 0.94129 0.0
H3803 H 0.76567 0.20662 0.91316 0.0
H3804 H 0.79728 0.25676 0.94792 0.0
H3805 H 0.79527 0.24024 0.97637 0.0
H3806 H 0.77454 0.26646 0.92257 0.0
H3807 H 0.81441 0.22734 0.91934 0.0
H3808 H 0.82481 0.19791 0.91931 0.0
H3809 H 0.78728 0.17306 0.86978 0.0
H3810 H 0.7765 0.20226 0.86967 0.0
H3811 H 0.8014 0.31095 0.84295 0.0
H3812 H 0.80071 0.29617 0.87238 0.0
H3813 H 0.76534 0.24609 0.84164 0.0
H3814 H 0.76597 0.26073 0.81207 0.0
H3815 H 0.79149 0.23741 0.8655 0.0
H3816 H 0.75144 0.27708 0.86975 0.0
H3817 H 0.74215 0.30719 0.86978 0.0
H3818 H 0.7817 0.3318 0.91762 0.0
H3819 H 0.79138 0.30189 0.91771 0.0
C3820 C 0.77128 0.20456 0.94303 0.0
C3821 C 0.77954 0.21373 0.96114 0.0
C3822 C 0.77234 0.21404 0.92685 0.0
C3823 C 0.78188 0.23287 0.92828 0.0
C3824 C 0.78991 0.24221 0.94639 0.0
C3825 C 0.78877 0.23274 0.96266 0.0
C3826 C 0.78321 0.24276 0.91086 0.0
C3827 C 0.77852 0.26023 0.91022 0.0
C3828 C 0.78814 0.23457 0.89454 0.0
C3829 C 0.79453 0.21693 0.89462 0.0
C3830 C 0.80828 0.21555 0.90854 0.0
C3831 C 0.81426 0.19891 0.90853 0.0
C3832 C 0.80668 0.18361 0.89458 0.0
C3833 C 0.79313 0.18492 0.88059 0.0
C3834 C 0.78708 0.20152 0.88055 0.0
C3835 C 0.79336 0.29684 0.84241 0.0
C3836 C 0.78366 0.28709 0.82508 0.0
C3837 C 0.79295 0.28842 0.85931 0.0
C3838 C 0.78286 0.27007 0.85929 0.0
C3839 C 0.7732 0.26028 0.84202 0.0
C3840 C 0.77352 0.26872 0.82512 0.0
C3841 C 0.78263 0.26092 0.87718 0.0
C3842 C 0.78757 0.24363 0.8779 0.0
C3843 C 0.77809 0.26936 0.8936 0.0
C3844 C 0.77224 0.28731 0.89361 0.0
C3845 C 0.75824 0.28896 0.88018 0.0
C3846 C 0.75289 0.30598 0.88019 0.0
C3847 C 0.76136 0.32142 0.89366 0.0
C3848 C 0.77517 0.31984 0.90718 0.0
C3849 C 0.78058 0.30285 0.90721 0.0
H3850 H 0.7572 0.33458 0.89365 0.0
H3851 H 0.81134 0.17074 0.8946 0.0
H3852 H 0.12231 0.48748 0.18341 0.0
H3853 H 0.10766 0.50072 0.15729 0.0
H3854 H 0.05916 0.47931 0.17489 0.0
H3855 H 0.07372 0.46608 0.20124 0.0
H3856 H 0.05841 0.47538 0.1344 0.0
H3857 H 0.07784 0.52255 0.18938 0.0
H3858 H 0.09964 0.54176 0.21547 0.0
H3859 H 0.12913 0.56662 0.17492 0.0
H3860 H 0.10765 0.54728 0.14857 0.0
H3861 H 0.0109 0.52716 0.08031 0.0
H3862 H 0.02374 0.51532 0.10855 0.0
H3863 H 0.07371 0.54795 0.10287 0.0
H3864 H 0.06044 0.56174 0.07613 0.0
H3865 H 0.07366 0.5457 0.13788 0.0
H3866 H 0.05588 0.49788 0.08296 0.0
H3867 H 0.03368 0.48025 0.05628 0.0
H3868 H 1.00223 0.4568 0.0958 0.0
H3869 H 0.02414 0.4744 0.12268 0.0
C3870 C 0.10849 0.48525 0.18156 0.0
C3871 C 0.09918 0.47589 0.19453 0.0
C3872 C 0.10017 0.49291 0.16667 0.0
C3873 C 0.08241 0.49123 0.16442 0.0
C3874 C 0.07291 0.48081 0.17651 0.0
C3875 C 0.08124 0.47328 0.19154 0.0
C3876 C 0.07396 0.50137 0.15021 0.0
C3877 C 0.06162 0.49075 0.13521 0.0
C3878 C 0.07844 0.5214 0.15117 0.0
C3879 C 0.09121 0.53332 0.167 0.0
C3880 C 0.08904 0.532 0.18602 0.0
C3881 C 0.10134 0.54292 0.20086 0.0
C3882 C 0.11579 0.55537 0.19686 0.0
C3883 C 0.11794 0.55695 0.178 0.0
C3884 C 0.1057 0.54602 0.16311 0.0
C3885 C 0.02458 0.53203 0.08531 0.0
C3886 C 0.03485 0.5447 0.07558 0.0
C3887 C 0.03195 0.52512 0.10134 0.0
C3888 C 0.04984 0.5299 0.10726 0.0
C3889 C 0.05993 0.54366 0.09835 0.0
C3890 C 0.05241 0.5513 0.08287 0.0
C3891 C 0.05809 0.51975 0.12185 0.0
C3892 C 0.07046 0.53033 0.13695 0.0
C3893 C 0.05385 0.49964 0.12084 0.0
C3894 C 0.04155 0.48757 0.10479 0.0
C3895 C 0.04428 0.48884 0.08594 0.0
C3896 C 0.03173 0.47893 0.07079 0.0
C3897 C 0.0165 0.4676 0.07438 0.0
C3898 C 0.01399 0.46569 0.09308 0.0
C3899 C 0.02649 0.47557 0.10826 0.0
H3900 H 0.00659 0.46037 0.06269 0.0
H3901 H 0.1253 0.56381 0.20836 0.0
H3902 H 0.8196 0.91528 0.49527 0.0
H3903 H 0.81993 0.90205 0.46293 0.0
H3904 H 0.77457 0.85872 0.46481 0.0
H3905 H 0.77457 0.87149 0.49749 0.0
H3906 H 0.795 0.84334 0.44792 0.0
H3907 H 0.77396 0.89937 0.44042 0.0
H3908 H 0.77411 0.93334 0.44583 0.0
H3909 H 0.82125 0.94796 0.42405 0.0
H3910 H 0.8215 0.91407 0.41874 0.0
H3911 H 0.77015 0.81699 0.34799 0.0
H3912 H 0.77159 0.8296 0.381 0.0
H3913 H 0.82096 0.86646 0.38038 0.0
H3914 H 0.81964 0.85391 0.34724 0.0
H3915 H 0.79905 0.88506 0.39641 0.0
H3916 H 0.81867 0.82768 0.40297 0.0
H3917 H 0.81679 0.79338 0.39663 0.0
H3918 H 0.76998 0.781 0.41931 0.0
H3919 H 0.77145 0.81524 0.42555 0.0
C3920 C 0.80969 0.90292 0.48883 0.0
C3921 C 0.797 0.89452 0.49898 0.0
C3922 C 0.80984 0.89541 0.47023 0.0
C3923 C 0.79708 0.87956 0.46115 0.0
C3924 C 0.78455 0.87097 0.4714 0.0
C3925 C 0.78454 0.87832 0.49011 0.0
C3926 C 0.79679 0.87196 0.44103 0.0
C3927 C 0.79567 0.85247 0.43666 0.0
C3928 C 0.79796 0.88381 0.42623 0.0
C3929 C 0.79783 0.9042 0.42936 0.0
C3930 C 0.78442 0.90984 0.43691 0.0
C3931 C 0.78443 0.92908 0.43994 0.0
C3932 C 0.79771 0.9428 0.43534 0.0
C3933 C 0.81099 0.93731 0.42764 0.0
C3934 C 0.81105 0.91809 0.4246 0.0
C3935 C 0.78136 0.82776 0.35483 0.0
C3936 C 0.79481 0.83439 0.3449 0.0
C3937 C 0.78218 0.83491 0.37377 0.0
C3938 C 0.79645 0.84888 0.38326 0.0
C3939 C 0.80984 0.85566 0.37337 0.0
C3940 C 0.80909 0.84841 0.35443 0.0
C3941 C 0.79724 0.85653 0.40341 0.0
C3942 C 0.79844 0.876 0.40775 0.0
C3943 C 0.7959 0.84463 0.41811 0.0
C3944 C 0.7951 0.82403 0.41458 0.0
C3945 C 0.80791 0.81765 0.40649 0.0
C3946 C 0.80693 0.79821 0.40293 0.0
C3947 C 0.79325 0.78502 0.40752 0.0
C3948 C 0.78056 0.79123 0.41574 0.0
C3949 C 0.78147 0.81065 0.41931 0.0
H3950 H 0.7925 0.76998 0.40474 0.0
H3951 H 0.79769 0.95769 0.43769 0.0
H3952 H 0.39895 0.51051 0.75971 0.0
H3953 H 0.41529 0.51052 0.7912 0.0
H3954 H 0.45656 0.55401 0.77909 0.0
H3955 H 0.44041 0.55369 0.7472 0.0
H3956 H 0.46904 0.52867 0.79852 0.0
H3957 H 0.42779 0.56513 0.80497 0.0
H3958 H 0.39919 0.57213 0.80065 0.0
H3959 H 0.38097 0.52648 0.83244 0.0
H3960 H 0.40937 0.51882 0.83647 0.0
H3961 H 0.50345 0.55512 0.89889 0.0
H3962 H 0.49185 0.55539 0.86532 0.0
H3963 H 0.45094 0.50709 0.86817 0.0
H3964 H 0.46266 0.50634 0.90147 0.0
H3965 H 0.43984 0.5378 0.85355 0.0
H3966 H 0.48178 0.50095 0.8453 0.0
H3967 H 0.5109 0.4952 0.84955 0.0
H3968 H 0.52859 0.54436 0.82203 0.0
H3969 H 0.49961 0.55056 0.81786 0.0
C3970 C 0.41154 0.52002 0.76369 0.0
C3971 C 0.41833 0.53226 0.75109 0.0
C3972 C 0.42085 0.52003 0.78171 0.0
C3973 C 0.43698 0.53255 0.78762 0.0
C3974 C 0.44409 0.5443 0.77482 0.0
C3975 C 0.43485 0.54414 0.75666 0.0
C3976 C 0.44602 0.53375 0.80742 0.0
C3977 C 0.46276 0.53094 0.81057 0.0
C3978 C 0.43779 0.53666 0.82314 0.0
C3979 C 0.4207 0.54131 0.82089 0.0
C3980 C 0.41766 0.55648 0.81091 0.0
C3981 C 0.40147 0.56057 0.80853 0.0
C3982 C 0.38827 0.54978 0.8163 0.0
C3983 C 0.39122 0.53483 0.82643 0.0
C3984 C 0.40735 0.53059 0.82875 0.0
C3985 C 0.49217 0.54433 0.89228 0.0
C3986 C 0.48389 0.5308 0.90291 0.0
C3987 C 0.48555 0.54456 0.87313 0.0
C3988 C 0.47055 0.53128 0.86435 0.0
C3989 C 0.46248 0.51752 0.87478 0.0
C3990 C 0.46914 0.5172 0.89382 0.0
C3991 C 0.46263 0.53222 0.84458 0.0
C3992 C 0.44613 0.53559 0.84148 0.0
C3993 C 0.47117 0.5301 0.829 0.0
C3994 C 0.48858 0.52634 0.83146 0.0
C3995 C 0.49192 0.51064 0.84032 0.0
C3996 C 0.50839 0.50727 0.84267 0.0
C3997 C 0.5216 0.51944 0.83612 0.0
C3998 C 0.51835 0.53497 0.82713 0.0
C3999 C 0.50191 0.53841 0.82476 0.0
H4000 H 0.53434 0.5168 0.83795 0.0
H4001 H 0.37575 0.553 0.81451 0.0
H4002 H 0.76686 0.2504 0.06216 0.0
H4003 H 0.77169 0.26509 0.09503 0.0
H4004 H 0.80619 0.22952 0.11168 0.0
H4005 H 0.80145 0.21473 0.07872 0.0
H4006 H 0.78315 0.23096 0.13644 0.0
H4007 H 0.82247 0.27503 0.10856 0.0
H4008 H 0.83149 0.29606 0.08474 0.0
H4009 H 0.7961 0.32954 0.09723 0.0
H4010 H 0.78668 0.30855 0.12095 0.0
H4011 H 0.81104 0.28349 0.22975 0.0
H4012 H 0.81005 0.26698 0.19814 0.0
H4013 H 0.77964 0.30332 0.1728 0.0
H4014 H 0.78077 0.31982 0.20417 0.0
H4015 H 0.80345 0.30065 0.15294 0.0
H4016 H 0.7628 0.25596 0.17935 0.0
H4017 H 0.75216 0.23396 0.2017 0.0
H4018 H 0.7887 0.20126 0.19139 0.0
H4019 H 0.79987 0.22337 0.16936 0.0
C4020 C 0.77555 0.24573 0.07276 0.0
C4021 C 0.78382 0.23142 0.06774 0.0
C4022 C 0.77833 0.25419 0.09157 0.0
C4023 C 0.78941 0.24852 0.10583 0.0
C4024 C 0.79761 0.23415 0.10092 0.0
C4025 C 0.79494 0.22578 0.08205 0.0
C4026 C 0.79223 0.25754 0.12585 0.0
C4027 C 0.78787 0.24616 0.14015 0.0
C4028 C 0.79809 0.27741 0.13063 0.0
C4029 C 0.80377 0.29011 0.11642 0.0
C4030 C 0.81651 0.28679 0.10612 0.0
C4031 C 0.82171 0.29872 0.09266 0.0
C4032 C 0.81435 0.3141 0.08944 0.0
C4033 C 0.80179 0.31761 0.09973 0.0
C4034 C 0.79652 0.30571 0.1132 0.0
C4035 C 0.80403 0.28778 0.21742 0.0
C4036 C 0.7959 0.30286 0.21943 0.0
C4037 C 0.80346 0.27835 0.19935 0.0
C4038 C 0.79464 0.28377 0.183 0.0
C4039 C 0.78657 0.29887 0.18511 0.0
C4040 C 0.78721 0.3083 0.20308 0.0
C4041 C 0.79399 0.27414 0.16359 0.0
C4042 C 0.79884 0.28542 0.14935 0.0
C4043 C 0.78848 0.25419 0.15889 0.0
C4044 C 0.78226 0.2414 0.1728 0.0
C4045 C 0.76873 0.24423 0.18204 0.0
C4046 C 0.76257 0.23172 0.19462 0.0
C4047 C 0.76969 0.21618 0.19789 0.0
C4048 C 0.78316 0.21327 0.1888 0.0
C4049 C 0.78943 0.2258 0.1763 0.0
H4050 H 0.76473 0.20637 0.20742 0.0
H4051 H 0.8184 0.32332 0.07901 0.0
H4052 H 0.09687 0.46307 0.27603 0.0
H4053 H 0.08025 0.46659 0.30141 0.0
H4054 H 0.12706 0.49063 0.34104 0.0
H4055 H 0.14379 0.48718 0.31585 0.0
H4056 H 0.08 0.45527 0.3389 0.0
H4057 H 0.12059 0.53103 0.36359 0.0
H4058 H 0.13938 0.5567 0.35075 0.0
H4059 H 0.11106 0.53706 0.29445 0.0
H4060 H 0.09195 0.5115 0.307 0.0
H4061 H 0.06318 0.49773 0.42704 0.0
H4062 H 0.07692 0.48598 0.40174 0.0
H4063 H 0.05008 0.51518 0.36175 0.0
H4064 H 0.03675 0.52747 0.38691 0.0
H4065 H 0.08574 0.52272 0.36291 0.0
H4066 H 0.03747 0.47067 0.35937 0.0
H4067 H 0.01797 0.44446 0.37047 0.0
H4068 H 0.05882 0.41582 0.3815 0.0
H4069 H 0.07879 0.44224 0.37122 0.0
C4070 C 0.10364 0.46879 0.29022 0.0
C4071 C 0.12162 0.47512 0.29389 0.0
C4072 C 0.09413 0.47068 0.30471 0.0
C4073 C 0.10247 0.47904 0.32297 0.0
C4074 C 0.12044 0.48426 0.32695 0.0
C4075 C 0.12995 0.48231 0.31253 0.0
C4076 C 0.09241 0.48429 0.33724 0.0
C4077 C 0.08126 0.46997 0.3443 0.0
C4078 C 0.0939 0.50353 0.34384 0.0
C4079 C 0.10496 0.51925 0.33623 0.0
C4080 C 0.11832 0.53227 0.3485 0.0
C4081 C 0.12903 0.54679 0.34126 0.0
C4082 C 0.12644 0.54847 0.32179 0.0
C4083 C 0.11308 0.53571 0.30952 0.0
C4084 C 0.10232 0.5212 0.31668 0.0
C4085 C 0.06013 0.50154 0.41282 0.0
C4086 C 0.04887 0.51352 0.40895 0.0
C4087 C 0.06783 0.49465 0.39839 0.0
C4088 C 0.06431 0.49954 0.37991 0.0
C4089 C 0.05284 0.51117 0.37593 0.0
C4090 C 0.04514 0.51804 0.39029 0.0
C4091 C 0.07346 0.49367 0.36497 0.0
C4092 C 0.08449 0.50796 0.35772 0.0
C4093 C 0.07169 0.47439 0.35814 0.0
C4094 C 0.05975 0.45867 0.3648 0.0
C4095 C 0.04243 0.45899 0.36451 0.0
C4096 C 0.03126 0.44405 0.37062 0.0
C4097 C 0.03717 0.42852 0.37676 0.0
C4098 C 0.05426 0.42788 0.37676 0.0
C4099 C 0.06553 0.44289 0.37088 0.0
H4100 H 0.0285 0.41696 0.38147 0.0
H4101 H 0.13476 0.55969 0.31621 0.0
H4102 H 0.76869 0.88535 0.5886 0.0
H4103 H 0.76863 0.87105 0.61826 0.0
H4104 H 0.82183 0.89947 0.6369 0.0
H4105 H 0.8221 0.91357 0.60686 0.0
H4106 H 0.81604 0.86428 0.64723 0.0
H4107 H 0.78982 0.91645 0.65368 0.0
H4108 H 0.76988 0.9366 0.64432 0.0
H4109 H 0.72694 0.89024 0.64507 0.0
H4110 H 0.74663 0.8697 0.65416 0.0
H4111 H 0.81067 0.84404 0.74322 0.0
H4112 H 0.81504 0.86064 0.71518 0.0
H4113 H 0.76261 0.83522 0.68909 0.0
H4114 H 0.75815 0.81901 0.7172 0.0
H4115 H 0.77041 0.87172 0.68433 0.0
H4116 H 0.79775 0.8192 0.67628 0.0
H4117 H 0.81835 0.8001 0.68674 0.0
H4118 H 0.86016 0.84885 0.69064 0.0
H4119 H 0.83977 0.86831 0.6804 0.0
C4120 C 0.78044 0.88853 0.59893 0.0
C4121 C 0.79537 0.90078 0.59535 0.0
C4122 C 0.78036 0.88038 0.61598 0.0
C4123 C 0.79512 0.88445 0.63009 0.0
C4124 C 0.81024 0.89616 0.62633 0.0
C4125 C 0.81037 0.90425 0.60914 0.0
C4126 C 0.79446 0.8768 0.64884 0.0
C4127 C 0.80622 0.86615 0.65547 0.0
C4128 C 0.78162 0.87911 0.65968 0.0
C4129 C 0.76972 0.89149 0.65445 0.0
C4130 C 0.77613 0.91051 0.65173 0.0
C4131 C 0.76487 0.92201 0.64649 0.0
C4132 C 0.74715 0.9147 0.64405 0.0
C4133 C 0.74067 0.89588 0.64694 0.0
C4134 C 0.75187 0.88431 0.65216 0.0
C4135 C 0.8001 0.84203 0.7315 0.0
C4136 C 0.78409 0.83018 0.73239 0.0
C4137 C 0.80262 0.85145 0.71542 0.0
C4138 C 0.78921 0.84906 0.69983 0.0
C4139 C 0.77318 0.83733 0.70086 0.0
C4140 C 0.77066 0.82799 0.71692 0.0
C4141 C 0.79166 0.85876 0.68245 0.0
C4142 C 0.78028 0.8699 0.67612 0.0
C4143 C 0.80494 0.85704 0.67205 0.0
C4144 C 0.81723 0.84524 0.67772 0.0
C4145 C 0.81133 0.82587 0.67943 0.0
C4146 C 0.82297 0.81498 0.68532 0.0
C4147 C 0.84055 0.82327 0.68938 0.0
C4148 C 0.84654 0.84245 0.68749 0.0
C4149 C 0.83495 0.85341 0.68162 0.0
H4150 H 0.84954 0.81482 0.69396 0.0
H4151 H 0.73846 0.92362 0.63997 0.0
H4152 H 0.76036 0.46473 0.51239 0.0
H4153 H 0.73664 0.48069 0.5095 0.0
H4154 H 0.72499 0.46379 0.56336 0.0
H4155 H 0.74845 0.44751 0.56618 0.0
H4156 H 0.69617 0.45886 0.53853 0.0
H4157 H 0.74618 0.50958 0.55901 0.0
H4158 H 0.77494 0.52903 0.55779 0.0
H4159 H 0.7565 0.54309 0.5026 0.0
H4160 H 0.72767 0.52351 0.50338 0.0
H4161 H 0.64318 0.52255 0.55545 0.0
H4162 H 0.66623 0.50565 0.55738 0.0
H4163 H 0.6763 0.52131 0.50261 0.0
H4164 H 0.65362 0.53874 0.50083 0.0
H4165 H 0.70565 0.52661 0.52755 0.0
H4166 H 0.65516 0.47636 0.50777 0.0
H4167 H 0.62633 0.45765 0.50984 0.0
H4168 H 0.6456 0.44307 0.56449 0.0
H4169 H 0.67453 0.46195 0.5629 0.0
C4170 C 0.75278 0.46443 0.52365 0.0
C4171 C 0.75639 0.45488 0.53956 0.0
C4172 C 0.73923 0.47362 0.52201 0.0
C4173 C 0.72909 0.47366 0.53632 0.0
C4174 C 0.73259 0.46399 0.55212 0.0
C4175 C 0.74608 0.45474 0.55374 0.0
C4176 C 0.71488 0.48378 0.53487 0.0
C4177 C 0.6983 0.47374 0.53636 0.0
C4178 C 0.71751 0.50311 0.53166 0.0
C4179 C 0.73482 0.51492 0.53117 0.0
C4180 C 0.7483 0.5167 0.54655 0.0
C4181 C 0.7646 0.52777 0.54595 0.0
C4182 C 0.76756 0.53725 0.53011 0.0
C4183 C 0.7542 0.53572 0.51485 0.0
C4184 C 0.73787 0.52465 0.51536 0.0
C4185 C 0.65036 0.52253 0.54386 0.0
C4186 C 0.6465 0.53204 0.52798 0.0
C4187 C 0.66345 0.51268 0.5449 0.0
C4188 C 0.67292 0.51201 0.53005 0.0
C4189 C 0.66915 0.52155 0.51422 0.0
C4190 C 0.65606 0.53139 0.51316 0.0
C4191 C 0.68696 0.5017 0.53118 0.0
C4192 C 0.70351 0.51172 0.52966 0.0
C4193 C 0.6843 0.48238 0.53443 0.0
C4194 C 0.66698 0.47074 0.5353 0.0
C4195 C 0.65323 0.46927 0.5203 0.0
C4196 C 0.63688 0.45863 0.52137 0.0
C4197 C 0.63412 0.44924 0.53732 0.0
C4198 C 0.64775 0.45039 0.55217 0.0
C4199 C 0.66414 0.46105 0.55118 0.0
H4200 H 0.62144 0.44109 0.53816 0.0
H4201 H 0.78019 0.54581 0.52967 0.0
H4202 H 0.22038 0.1481 0.49313 0.0
H4203 H 0.19146 0.12828 0.49222 0.0
H4204 H 0.18197 0.16907 0.53395 0.0
H4205 H 0.21062 0.18887 0.53489 0.0
H4206 H 0.17111 0.13239 0.54208 0.0
H4207 H 0.16527 0.16784 0.48823 0.0
H4208 H 0.17231 0.17915 0.45815 0.0
H4209 H 0.15964 0.12169 0.43137 0.0
H4210 H 0.15275 0.11002 0.46138 0.0
H4211 H 0.08072 0.10327 0.53442 0.0
H4212 H 0.11029 0.12089 0.53534 0.0
H4213 H 0.1142 0.08356 0.48702 0.0
H4214 H 0.08434 0.06655 0.48558 0.0
H4215 H 0.12863 0.11724 0.48224 0.0
H4216 H 0.13351 0.08133 0.53534 0.0
H4217 H 0.12592 0.06965 0.56509 0.0
H4218 H 0.14043 0.12665 0.59317 0.0
H4219 H 0.14793 0.13871 0.56352 0.0
C4220 C 0.21213 0.15283 0.50211 0.0
C4221 C 0.21784 0.17014 0.514 0.0
C4222 C 0.19559 0.1415 0.50156 0.0
C4223 C 0.18448 0.1472 0.51298 0.0
C4224 C 0.19028 0.16432 0.52504 0.0
C4225 C 0.20668 0.1757 0.52546 0.0
C4226 C 0.1667 0.13562 0.51223 0.0
C4227 C 0.16178 0.12917 0.52902 0.0
C4228 C 0.15459 0.13105 0.49515 0.0
C4229 C 0.15869 0.13805 0.4771 0.0
C4230 C 0.16413 0.15761 0.47597 0.0
C4231 C 0.16806 0.16409 0.45892 0.0
C4232 C 0.16648 0.15115 0.44287 0.0
C4233 C 0.1609 0.1317 0.44382 0.0
C4234 C 0.15697 0.12515 0.46084 0.0
C4235 C 0.08797 0.09875 0.52413 0.0
C4236 C 0.08033 0.08341 0.51008 0.0
C4237 C 0.10492 0.10879 0.52468 0.0
C4238 C 0.11476 0.10338 0.51149 0.0
C4239 C 0.10701 0.08805 0.4974 0.0
C4240 C 0.08996 0.07827 0.49663 0.0
C4241 C 0.13294 0.11389 0.5121 0.0
C4242 C 0.13796 0.12022 0.49529 0.0
C4243 C 0.14518 0.11819 0.52915 0.0
C4244 C 0.14117 0.11094 0.54716 0.0
C4245 C 0.13503 0.09138 0.54785 0.0
C4246 C 0.13074 0.0847 0.56469 0.0
C4247 C 0.13266 0.09741 0.58099 0.0
C4248 C 0.13895 0.11683 0.58052 0.0
C4249 C 0.14325 0.1236 0.56371 0.0
H4250 H 0.1293 0.09221 0.594 0.0
H4251 H 0.16952 0.15619 0.42969 0.0
H4252 H 0.18887 0.01561 0.85363 0.0
H4253 H 0.20543 0.99195 0.84904 0.0
H4254 H 0.25241 0.03445 0.86924 0.0
H4255 H 0.23586 0.05842 0.87324 0.0
H4256 H 0.25462 0.01675 0.8375 0.0
H4257 H 0.23815 0.99641 0.89474 0.0
H4258 H 0.2188 0.98681 0.91752 0.0
H4259 H 0.19072 0.93861 0.8781 0.0
H4260 H 0.20974 0.94806 0.85495 0.0
H4261 H 0.30292 0.94612 0.82878 0.0
H4262 H 0.29003 0.96964 0.84375 0.0
H4263 H 0.23981 0.93861 0.81524 0.0
H4264 H 0.2526 0.91535 0.79974 0.0
H4265 H 0.2422 0.95113 0.85519 0.0
H4266 H 0.25726 0.97486 0.79696 0.0
H4267 H 0.27726 0.9847 0.77487 0.0
H4268 H 0.30915 0.02711 0.81832 0.0
H4269 H 0.28944 0.01731 0.84075 0.0
C4270 C 0.20271 0.01988 0.85742 0.0
C4271 C 0.21107 0.03891 0.86366 0.0
C4272 C 0.21218 0.00628 0.85491 0.0
C4273 C 0.23019 0.01136 0.85895 0.0
C4274 C 0.23853 0.03021 0.86602 0.0
C4275 C 0.22906 0.04388 0.86831 0.0
C4276 C 0.2402 0.99748 0.85388 0.0
C4277 C 0.25217 0.00256 0.84179 0.0
C4278 C 0.23681 0.97882 0.85915 0.0
C4279 C 0.22532 0.97304 0.87304 0.0
C4280 C 0.22777 0.98384 0.89086 0.0
C4281 C 0.21687 0.97841 0.90385 0.0
C4282 C 0.20352 0.96213 0.89924 0.0
C4283 C 0.20106 0.95122 0.88165 0.0
C4284 C 0.21192 0.9566 0.86859 0.0
C4285 C 0.28915 0.9444 0.82555 0.0
C4286 C 0.27878 0.92894 0.81298 0.0
C4287 C 0.28182 0.95773 0.83424 0.0
C4288 C 0.26401 0.95579 0.83056 0.0
C4289 C 0.25358 0.94023 0.81832 0.0
C4290 C 0.26091 0.92699 0.80948 0.0
C4291 C 0.25628 0.97046 0.83874 0.0
C4292 C 0.24478 0.96547 0.8513 0.0
C4293 C 0.2602 0.98926 0.8341 0.0
C4294 C 0.272 0.9952 0.82059 0.0
C4295 C 0.26862 0.98616 0.80185 0.0
C4296 C 0.27988 0.99176 0.78926 0.0
C4297 C 0.2945 0.00648 0.79521 0.0
C4298 C 0.29785 0.01568 0.81374 0.0
C4299 C 0.28663 0.01012 0.8264 0.0
H4300 H 0.3032 0.01079 0.78544 0.0
H4301 H 0.19509 0.95795 0.90932 0.0
H4302 H 0.34751 0.96946 0.01593 0.0
H4303 H 0.37651 0.98766 0.01511 0.0
H4304 H 0.39202 0.98081 0.07397 0.0
H4305 H 0.36296 0.96293 0.07503 0.0
H4306 H 0.40571 0.01607 0.06714 0.0
H4307 H 0.40149 0.95298 0.03795 0.0
H4308 H 0.38877 0.92429 0.0152 0.0
H4309 H 0.39653 0.95694 0.96852 0.0
H4310 H 0.40909 0.98589 0.991 0.0
H4311 H 0.49621 0.03702 0.0687 0.0
H4312 H 0.4664 0.02271 0.0707 0.0
H4313 H 0.45116 0.02852 0.01151 0.0
H4314 H 0.48094 0.04244 0.00927 0.0
H4315 H 0.43717 0.99424 0.01867 0.0
H4316 H 0.44242 0.05739 0.04828 0.0
H4317 H 0.45538 0.0858 0.07133 0.0
H4318 H 0.44605 0.05296 0.11754 0.0
H4319 H 0.43325 0.02427 0.09478 0.0
C4320 C 0.35706 0.97191 0.02874 0.0
C4321 C 0.35292 0.96461 0.04551 0.0
C4322 C 0.37366 0.98227 0.02823 0.0
C4323 C 0.38654 0.98537 0.0444 0.0
C4324 C 0.38233 0.97857 0.06131 0.0
C4325 C 0.3657 0.96829 0.06186 0.0
C4326 C 0.40451 0.99521 0.04355 0.0
C4327 C 0.41266 0.01119 0.05667 0.0
C4328 C 0.41351 0.98905 0.0297 0.0
C4329 C 0.40608 0.97163 0.01615 0.0
C4330 C 0.40038 0.95407 0.02283 0.0
C4331 C 0.39321 0.93775 0.00999 0.0
C4332 C 0.3918 0.9388 0.99043 0.0
C4333 C 0.3976 0.95615 0.98367 0.0
C4334 C 0.40476 0.97252 0.99646 0.0
C4335 C 0.48651 0.03542 0.05614 0.0
C4336 C 0.49101 0.04088 0.03881 0.0
C4337 C 0.46943 0.02728 0.05733 0.0
C4338 C 0.45646 0.02466 0.04129 0.0
C4339 C 0.46091 0.03036 0.02407 0.0
C4340 C 0.47798 0.03838 0.02283 0.0
C4341 C 0.43839 0.01523 0.04217 0.0
C4342 C 0.43022 0.99923 0.02909 0.0
C4343 C 0.42943 0.02136 0.0561 0.0
C4344 C 0.43702 0.03863 0.06982 0.0
C4345 C 0.44325 0.05619 0.06336 0.0
C4346 C 0.45055 0.07235 0.07638 0.0
C4347 C 0.45159 0.07117 0.09589 0.0
C4348 C 0.44527 0.05384 0.10243 0.0
C4349 C 0.43797 0.03763 0.08947 0.0
H4350 H 0.45725 0.0837 0.10594 0.0
H4351 H 0.38624 0.92615 0.98051 0.0
H4352 H 0.91003 0.68672 0.79974 0.0
H4353 H 0.88734 0.70337 0.79161 0.0
H4354 H 0.89201 0.69597 0.73242 0.0
H4355 H 0.91474 0.67912 0.74039 0.0
H4356 H 0.88803 0.73243 0.74523 0.0
H4357 H 0.86055 0.66747 0.74443 0.0
H4358 H 0.85489 0.63631 0.75658 0.0
H4359 H 0.8387 0.66073 0.80528 0.0
H4360 H 0.84454 0.69213 0.7936 0.0
H4361 H 0.81679 0.77434 0.7334 0.0
H4362 H 0.83341 0.75082 0.72704 0.0
H4363 H 0.83099 0.7341 0.78338 0.0
H4364 H 0.81289 0.756 0.78871 0.0
H4365 H 0.83172 0.70538 0.76329 0.0
H4366 H 0.86854 0.77148 0.76792 0.0
H4367 H 0.87538 0.80275 0.75615 0.0
H4368 H 0.87354 0.77572 0.70004 0.0
H4369 H 0.86696 0.74428 0.71163 0.0
C4370 C 0.90645 0.68886 0.78502 0.0
C4371 C 0.91409 0.68146 0.77069 0.0
C4372 C 0.8934 0.69826 0.7804 0.0
C4373 C 0.88781 0.70053 0.76139 0.0
C4374 C 0.89607 0.69418 0.74715 0.0
C4375 C 0.90905 0.68459 0.75175 0.0
C4376 C 0.87301 0.70909 0.75655 0.0
C4377 C 0.87561 0.72641 0.7489 0.0
C4378 C 0.85683 0.70111 0.76119 0.0
C4379 C 0.85309 0.68219 0.76818 0.0
C4380 C 0.8559 0.66623 0.7578 0.0
C4381 C 0.85264 0.64852 0.7646 0.0
C4382 C 0.84646 0.64655 0.7817 0.0
C4383 C 0.84349 0.66228 0.79203 0.0
C4384 C 0.84675 0.68004 0.78532 0.0
C4385 C 0.81944 0.76515 0.74409 0.0
C4386 C 0.8136 0.76679 0.76148 0.0
C4387 C 0.82919 0.75195 0.74063 0.0
C4388 C 0.83412 0.74109 0.75499 0.0
C4389 C 0.82748 0.74223 0.77201 0.0
C4390 C 0.81713 0.75476 0.7751 0.0
C4391 C 0.84702 0.72953 0.75324 0.0
C4392 C 0.84404 0.7114 0.75943 0.0
C4393 C 0.8629 0.7368 0.74735 0.0
C4394 C 0.86716 0.75564 0.74058 0.0
C4395 C 0.86964 0.77227 0.75309 0.0
C4396 C 0.8735 0.79 0.74644 0.0
C4397 C 0.87488 0.79122 0.72731 0.0
C4398 C 0.87246 0.77473 0.71483 0.0
C4399 C 0.86878 0.75698 0.72145 0.0
H4400 H 0.87783 0.80487 0.72207 0.0
H4401 H 0.84396 0.63282 0.78694 0.0
H4402 H 0.80382 0.65428 0.00339 0.0
H4403 H 0.82684 0.63739 0.00305 0.0
H4404 H 0.86123 0.68263 0.04214 0.0
H4405 H 0.83851 0.69976 0.04212 0.0
H4406 H 0.87762 0.67267 0.01617 0.0
H4407 H 0.84239 0.6386 0.05606 0.0
H4408 H 0.81567 0.62066 0.06478 0.0
H4409 H 0.81077 0.57744 0.01843 0.0
H4410 H 0.83735 0.59526 0.00927 0.0
H4411 H 0.94231 0.6226 0.04404 0.0
H4412 H 0.91907 0.63907 0.04441 0.0
H4413 H 0.88725 0.59765 0.99966 0.0
H4414 H 0.9105 0.58143 0.99876 0.0
H4415 H 0.86969 0.6054 0.02855 0.0
H4416 H 0.90574 0.64029 0.98934 0.0
H4417 H 0.93317 0.6582 0.98221 0.0
H4418 H 0.93712 0.70015 0.02943 0.0
H4419 H 0.90981 0.68234 0.03701 0.0
C4420 C 0.81628 0.6606 0.01194 0.0
C4421 C 0.81927 0.67838 0.02281 0.0
C4422 C 0.82944 0.65088 0.01181 0.0
C4423 C 0.84581 0.65858 0.02275 0.0
C4424 C 0.84878 0.67635 0.03355 0.0
C4425 C 0.83571 0.68612 0.03356 0.0
C4426 C 0.85993 0.64833 0.02286 0.0
C4427 C 0.87589 0.65804 0.01913 0.0
C4428 C 0.85775 0.6291 0.0264 0.0
C4429 C 0.84176 0.61836 0.03186 0.0
C4430 C 0.83554 0.62534 0.04763 0.0
C4431 C 0.82043 0.61519 0.05267 0.0
C4432 C 0.8115 0.59795 0.04213 0.0
C4433 C 0.81769 0.59081 0.02656 0.0
C4434 C 0.83278 0.60092 0.02144 0.0
C4435 C 0.93045 0.61704 0.03415 0.0
C4436 C 0.92838 0.60056 0.02143 0.0
C4437 C 0.91712 0.62646 0.03444 0.0
C4438 C 0.90139 0.61963 0.02202 0.0
C4439 C 0.8992 0.60312 0.00947 0.0
C4440 C 0.91254 0.59378 0.00907 0.0
C4441 C 0.88727 0.62978 0.02191 0.0
C4442 C 0.87134 0.62004 0.02561 0.0
C4443 C 0.88953 0.64902 0.01854 0.0
C4444 C 0.90582 0.65989 0.01385 0.0
C4445 C 0.91252 0.65327 0.99828 0.0
C4446 C 0.92804 0.66341 0.99415 0.0
C4447 C 0.93691 0.68028 0.00539 0.0
C4448 C 0.93025 0.68707 0.02075 0.0
C4449 C 0.91474 0.67697 0.02496 0.0
H4450 H 0.94892 0.6881 0.00218 0.0
H4451 H 0.79982 0.59011 0.04606 0.0
H4452 H 0.23338 0.14496 0.8694 0.0
H4453 H 0.25205 0.174 0.86216 0.0
H4454 H 0.21312 0.17795 0.81551 0.0
H4455 H 0.19441 0.14925 0.82266 0.0
H4456 H 0.24585 0.17948 0.80574 0.0
H4457 H 0.21948 0.20745 0.85372 0.0
H4458 H 0.21194 0.21174 0.88564 0.0
H4459 H 0.26537 0.2272 0.91049 0.0
H4460 H 0.27322 0.22272 0.87872 0.0
H4461 H 0.26972 0.26866 0.77514 0.0
H4462 H 0.25541 0.2403 0.78754 0.0
H4463 H 0.29615 0.25095 0.83616 0.0
H4464 H 0.31024 0.27993 0.82409 0.0
H4465 H 0.26611 0.24085 0.84714 0.0
H4466 H 0.29303 0.21559 0.79975 0.0
H4467 H 0.30129 0.21126 0.7682 0.0
H4468 H 0.24835 0.18997 0.7428 0.0
H4469 H 0.23974 0.19441 0.77416 0.0
C4470 C 0.22874 0.15216 0.85775 0.0
C4471 C 0.21245 0.14476 0.84655 0.0
C4472 C 0.2394 0.16872 0.85366 0.0
C4473 C 0.23394 0.17801 0.83827 0.0
C4474 C 0.21756 0.17091 0.8274 0.0
C4475 C 0.20687 0.15453 0.83157 0.0
C4476 C 0.24549 0.19461 0.83272 0.0
C4477 C 0.2502 0.19295 0.81472 0.0
C4478 C 0.25166 0.21189 0.84478 0.0
C4479 C 0.24693 0.2145 0.86387 0.0
C4480 C 0.22962 0.21156 0.86601 0.0
C4481 C 0.22529 0.21407 0.88407 0.0
C4482 C 0.23817 0.21967 0.90009 0.0
C4483 C 0.25541 0.22282 0.89807 0.0
C4484 C 0.2598 0.2203 0.88004 0.0
C4485 C 0.27564 0.26497 0.78847 0.0
C4486 C 0.29108 0.27645 0.79867 0.0
C4487 C 0.26752 0.24868 0.79549 0.0
C4488 C 0.27486 0.24331 0.81263 0.0
C4489 C 0.2903 0.25479 0.82287 0.0
C4490 C 0.29836 0.27126 0.81593 0.0
C4491 C 0.26612 0.2259 0.81989 0.0
C4492 C 0.26198 0.22733 0.83823 0.0
C4493 C 0.26061 0.20829 0.80821 0.0
C4494 C 0.26573 0.20545 0.78931 0.0
C4495 C 0.28313 0.21009 0.78742 0.0
C4496 C 0.28788 0.20761 0.76957 0.0
C4497 C 0.27535 0.20038 0.7535 0.0
C4498 C 0.25804 0.19557 0.75526 0.0
C4499 C 0.25322 0.19805 0.77308 0.0
H4500 H 0.27905 0.19847 0.7397 0.0
H4501 H 0.23479 0.22162 0.91406 0.0
H4502 H 0.4016 0.1016 0.304 0.0
H4503 H 0.38712 0.06884 0.30599 0.0
H4504 H 0.41025 0.04968 0.25991 0.0
H4505 H 0.4247 0.08251 0.25765 0.0
H4506 H 0.37688 0.03017 0.25728 0.0
H4507 H 0.42787 0.04686 0.30424 0.0
H4508 H 0.44832 0.06702 0.33085 0.0
H4509 H 0.40955 0.05929 0.3662 0.0
H4510 H 0.38879 0.03918 0.3397 0.0
H4511 H 0.36785 0.93417 0.2761 0.0
H4512 H 0.38031 0.96719 0.27212 0.0
H4513 H 0.35456 0.98642 0.31576 0.0
H4514 H 0.34214 0.95339 0.31989 0.0
H4515 H 0.38918 0.00583 0.31949 0.0
H4516 H 0.3384 0.98779 0.27144 0.0
H4517 H 0.31888 0.96759 0.24415 0.0
H4518 H 0.3587 0.97754 0.21025 0.0
H4519 H 0.37854 0.99759 0.23744 0.0
C4520 C 0.40346 0.09047 0.29411 0.0
C4521 C 0.41445 0.09465 0.28079 0.0
C4522 C 0.39521 0.07174 0.29532 0.0
C4523 C 0.39787 0.05683 0.28333 0.0
C4524 C 0.40811 0.061 0.26936 0.0
C4525 C 0.41637 0.07976 0.26811 0.0
C4526 C 0.39064 0.03687 0.28605 0.0
C4527 C 0.37972 0.02477 0.27081 0.0
C4528 C 0.39421 0.02994 0.30378 0.0
C4529 C 0.40673 0.04167 0.31992 0.0
C4530 C 0.42367 0.04954 0.31765 0.0
C4531 C 0.43532 0.06096 0.33272 0.0
C4532 C 0.43022 0.06453 0.35018 0.0
C4533 C 0.41348 0.05655 0.35265 0.0
C4534 C 0.40177 0.04511 0.33762 0.0
C4535 C 0.36497 0.94544 0.28494 0.0
C4536 C 0.35401 0.94124 0.29828 0.0
C4537 C 0.37199 0.96427 0.28257 0.0
C4538 C 0.36823 0.9792 0.29355 0.0
C4539 C 0.35757 0.97507 0.30713 0.0
C4540 C 0.35041 0.95624 0.30939 0.0
C4541 C 0.37535 0.99915 0.29074 0.0
C4542 C 0.3863 0.01124 0.30598 0.0
C4543 C 0.37195 0.006 0.27295 0.0
C4544 C 0.36001 0.99404 0.25654 0.0
C4545 C 0.34304 0.98554 0.25822 0.0
C4546 C 0.33191 0.97414 0.24275 0.0
C4547 C 0.33756 0.97124 0.22549 0.0
C4548 C 0.35434 0.97978 0.22364 0.0
C4549 C 0.36554 0.99118 0.23907 0.0
H4550 H 0.32892 0.96241 0.21353 0.0
H4551 H 0.43926 0.07344 0.36178 0.0
H4552 H 0.55505 0.35769 0.57577 0.0
H4553 H 0.55448 0.38751 0.56241 0.0
H4554 H 0.57195 0.41835 0.61844 0.0
H4555 H 0.57243 0.38855 0.63193 0.0
H4556 H 0.5459 0.43008 0.60111 0.0
H4557 H 0.59863 0.42122 0.58525 0.0
H4558 H 0.61865 0.40473 0.57215 0.0
H4559 H 0.58887 0.39912 0.51624 0.0
H4560 H 0.56856 0.41541 0.52904 0.0
H4561 H 0.57486 0.51505 0.54344 0.0
H4562 H 0.5801 0.48654 0.55689 0.0
H4563 H 0.52559 0.46449 0.55244 0.0
H4564 H 0.52027 0.49313 0.53953 0.0
H4565 H 0.57293 0.45018 0.54599 0.0
H4566 H 0.51671 0.43969 0.58876 0.0
H4567 H 0.50018 0.45912 0.60449 0.0
H4568 H 0.54262 0.50766 0.61152 0.0
H4569 H 0.55949 0.48847 0.59609 0.0
C4570 C 0.55892 0.37081 0.58526 0.0
C4571 C 0.56375 0.37066 0.60496 0.0
C4572 C 0.55867 0.38791 0.57756 0.0
C4573 C 0.56326 0.40527 0.58936 0.0
C4574 C 0.56833 0.40517 0.60901 0.0
C4575 C 0.56865 0.3881 0.61671 0.0
C4576 C 0.56191 0.42336 0.58136 0.0
C4577 C 0.55183 0.43445 0.58906 0.0
C4578 C 0.56993 0.4294 0.5659 0.0
C4579 C 0.58196 0.41934 0.55815 0.0
C4580 C 0.59624 0.41629 0.5702 0.0
C4581 C 0.60767 0.40702 0.56282 0.0
C4582 C 0.60498 0.40079 0.54339 0.0
C4583 C 0.5909 0.40389 0.5313 0.0
C4584 C 0.57944 0.41317 0.5386 0.0
C4585 C 0.56396 0.5041 0.54522 0.0
C4586 C 0.54713 0.50653 0.54055 0.0
C4587 C 0.56699 0.48775 0.5529 0.0
C4588 C 0.55328 0.47343 0.55605 0.0
C4589 C 0.53644 0.47548 0.55062 0.0
C4590 C 0.5334 0.49188 0.54312 0.0
C4591 C 0.55654 0.4566 0.56542 0.0
C4592 C 0.56698 0.44578 0.55801 0.0
C4593 C 0.54925 0.45107 0.58151 0.0
C4594 C 0.5393 0.46267 0.5911 0.0
C4595 C 0.52254 0.45448 0.59374 0.0
C4596 C 0.51311 0.46546 0.60259 0.0
C4597 C 0.52032 0.48462 0.60894 0.0
C4598 C 0.53702 0.49283 0.60653 0.0
C4599 C 0.54652 0.48191 0.59772 0.0
H4600 H 0.51299 0.4931 0.61576 0.0
H4601 H 0.61386 0.39365 0.5377 0.0
H4602 H 0.43953 0.75977 0.38486 0.0
H4603 H 0.41322 0.76295 0.36518 0.0
H4604 H 0.4418 0.81093 0.34272 0.0
H4605 H 0.46826 0.80797 0.36262 0.0
H4606 H 0.41205 0.81779 0.35126 0.0
H4607 H 0.4281 0.76786 0.31593 0.0
H4608 H 0.43683 0.73768 0.3108 0.0
H4609 H 0.38995 0.70741 0.32599 0.0
H4610 H 0.38104 0.73745 0.33147 0.0
H4611 H 0.34089 0.81829 0.27859 0.0
H4612 H 0.36934 0.81722 0.29533 0.0
H4613 H 0.34656 0.76745 0.31978 0.0
H4614 H 0.31832 0.76821 0.30278 0.0
H4615 H 0.37477 0.76273 0.30821 0.0
H4616 H 0.35943 0.81297 0.34512 0.0
H4617 H 0.35019 0.84298 0.34906 0.0
H4618 H 0.39549 0.87265 0.33024 0.0
H4619 H 0.40489 0.84273 0.32592 0.0
C4620 C 0.44029 0.77097 0.37569 0.0
C4621 C 0.45609 0.78354 0.37528 0.0
C4622 C 0.42519 0.77275 0.36438 0.0
C4623 C 0.42549 0.78706 0.35225 0.0
C4624 C 0.44121 0.79975 0.35191 0.0
C4625 C 0.45636 0.79797 0.36324 0.0
C4626 C 0.40934 0.78869 0.34003 0.0
C4627 C 0.40403 0.80583 0.34164 0.0
C4628 C 0.39868 0.77305 0.32762 0.0
C4629 C 0.40397 0.75494 0.32427 0.0
C4630 C 0.41971 0.75479 0.31831 0.0
C4631 C 0.42468 0.7377 0.31532 0.0
C4632 C 0.41397 0.72064 0.31811 0.0
C4633 C 0.39824 0.72063 0.32385 0.0
C4634 C 0.39322 0.73769 0.32689 0.0
C4635 C 0.342 0.80714 0.28753 0.0
C4636 C 0.32739 0.79333 0.28935 0.0
C4637 C 0.35826 0.80656 0.29716 0.0
C4638 C 0.36016 0.79234 0.30902 0.0
C4639 C 0.34552 0.77853 0.31072 0.0
C4640 C 0.32934 0.77901 0.301 0.0
C4641 C 0.3773 0.79169 0.31971 0.0
C4642 C 0.38282 0.77472 0.31778 0.0
C4643 C 0.38811 0.80748 0.3318 0.0
C4644 C 0.38279 0.82558 0.33504 0.0
C4645 C 0.3674 0.82588 0.34177 0.0
C4646 C 0.36213 0.84287 0.34406 0.0
C4647 C 0.37223 0.8597 0.33986 0.0
C4648 C 0.38767 0.85959 0.33347 0.0
C4649 C 0.39299 0.84263 0.33111 0.0
H4650 H 0.36811 0.87284 0.34159 0.0
H4651 H 0.41785 0.70743 0.31578 0.0
H4652 H 0.06854 0.76863 0.1315 0.0
H4653 H 0.06727 0.73634 0.11793 0.0
H4654 H 0.0272 0.7404 0.07259 0.0
H4655 H 0.02821 0.77268 0.08625 0.0
H4656 H 0.01976 0.70663 0.08608 0.0
H4657 H 0.0686 0.74404 0.06517 0.0
H4658 H 0.0964 0.76725 0.06902 0.0
H4659 H 0.12005 0.73233 0.10496 0.0
H4660 H 0.09232 0.70902 0.10153 0.0
H4661 H 0.02137 0.62477 0.02718 0.0
H4662 H 0.02352 0.65755 0.03966 0.0
H4663 H 0.06557 0.65484 0.08326 0.0
H4664 H 0.0639 0.6221 0.07033 0.0
H4665 H 0.07193 0.68803 0.07057 0.0
H4666 H 0.02315 0.65085 0.09198 0.0
H4667 H 0.99554 0.62724 0.08774 0.0
H4668 H 0.97183 0.66145 0.05096 0.0
H4669 H 0.99938 0.6852 0.05482 0.0
C4670 C 0.05944 0.7627 0.11863 0.0
C4671 C 0.04851 0.77334 0.10995 0.0
C4672 C 0.05879 0.74421 0.11083 0.0
C4673 C 0.04728 0.73594 0.09408 0.0
C4674 C 0.03621 0.74644 0.08549 0.0
C4675 C 0.03685 0.76495 0.0933 0.0
C4676 C 0.04675 0.71634 0.08559 0.0
C4677 C 0.03113 0.70265 0.08246 0.0
C4678 C 0.06163 0.71093 0.08124 0.0
C4679 C 0.07834 0.72487 0.08324 0.0
C4680 C 0.0797 0.74137 0.07401 0.0
C4681 C 0.09545 0.75454 0.0761 0.0
C4682 C 0.10997 0.75129 0.08727 0.0
C4683 C 0.10879 0.73484 0.09633 0.0
C4684 C 0.09306 0.72164 0.0943 0.0
C4685 C 0.03113 0.63113 0.03941 0.0
C4686 C 0.04238 0.62072 0.04786 0.0
C4687 C 0.03228 0.6499 0.04661 0.0
C4688 C 0.04444 0.65863 0.06272 0.0
C4689 C 0.05601 0.64844 0.07089 0.0
C4690 C 0.05503 0.62969 0.0635 0.0
C4691 C 0.04495 0.67828 0.07111 0.0
C4692 C 0.06056 0.692 0.07421 0.0
C4693 C 0.03006 0.6837 0.07549 0.0
C4694 C 0.01336 0.66973 0.07358 0.0
C4695 C 0.01206 0.65332 0.08294 0.0
C4696 C 0.99643 0.63991 0.0806 0.0
C4697 C 0.98196 0.64283 0.06906 0.0
C4698 C 0.98306 0.65922 0.0599 0.0
C4699 C 0.99868 0.67267 0.06218 0.0
H4700 H 0.96989 0.63241 0.06726 0.0
H4701 H 0.12215 0.7615 0.08887 0.0
H4702 H 0.04699 0.29155 0.85912 0.0
H4703 H 0.07164 0.29174 0.84301 0.0
H4704 H 0.10599 0.31735 0.89501 0.0
H4705 H 0.08151 0.31758 0.91102 0.0
H4706 H 0.11662 0.33399 0.86634 0.0
H4707 H 0.09885 0.26929 0.87883 0.0
H4708 H 0.07849 0.23843 0.87781 0.0
H4709 H 0.07045 0.23222 0.81675 0.0
H4710 H 0.0906 0.26318 0.81741 0.0
H4711 H 0.19428 0.31684 0.84237 0.0
H4712 H 0.169 0.31665 0.85725 0.0
H4713 H 0.13615 0.29208 0.80404 0.0
H4714 H 0.16133 0.29152 0.78926 0.0
H4715 H 0.1244 0.27506 0.83253 0.0
H4716 H 0.143 0.33979 0.82042 0.0
H4717 H 0.16367 0.37053 0.82194 0.0
H4718 H 0.1705 0.3765 0.88295 0.0
H4719 H 0.15003 0.34567 0.8818 0.0
C4720 C 0.05979 0.29726 0.86711 0.0
C4721 C 0.06223 0.3045 0.8864 0.0
C4722 C 0.0739 0.29728 0.8579 0.0
C4723 C 0.09075 0.30436 0.86783 0.0
C4724 C 0.09317 0.31181 0.887 0.0
C4725 C 0.0791 0.31188 0.89617 0.0
C4726 C 0.10593 0.30406 0.85837 0.0
C4727 C 0.1184 0.32104 0.85914 0.0
C4728 C 0.10817 0.28729 0.8486 0.0
C4729 C 0.0961 0.26864 0.84817 0.0
C4730 C 0.09264 0.26141 0.86519 0.0
C4731 C 0.08116 0.24389 0.86468 0.0
C4732 C 0.07314 0.2334 0.84723 0.0
C4733 C 0.07664 0.24038 0.83026 0.0
C4734 C 0.08811 0.2579 0.83069 0.0
C4735 C 0.18169 0.31123 0.83385 0.0
C4736 C 0.17992 0.3043 0.81454 0.0
C4737 C 0.16721 0.31131 0.84235 0.0
C4738 C 0.1506 0.3046 0.83172 0.0
C4739 C 0.14879 0.29743 0.81254 0.0
C4740 C 0.16325 0.29731 0.80405 0.0
C4741 C 0.13512 0.30497 0.84058 0.0
C4742 C 0.1226 0.28801 0.83969 0.0
C4743 C 0.13286 0.32175 0.85032 0.0
C4744 C 0.1451 0.34034 0.85103 0.0
C4745 C 0.149 0.3476 0.83417 0.0
C4746 C 0.16067 0.36504 0.83496 0.0
C4747 C 0.16843 0.37543 0.85253 0.0
C4748 C 0.1645 0.36842 0.86935 0.0
C4749 C 0.15285 0.35097 0.86863 0.0
H4750 H 0.17746 0.38894 0.85311 0.0
H4751 H 0.06426 0.21984 0.84686 0.0
H4752 H 0.50982 0.74406 0.93234 0.0
H4753 H 0.50901 0.71386 0.94543 0.0
H4754 H 0.5576 0.73831 0.98193 0.0
H4755 H 0.5588 0.7682 0.96825 0.0
H4756 H 0.55876 0.70547 0.96845 0.0
H4757 H 0.51652 0.72823 0.99782 0.0
H4758 H 0.49058 0.74046 0.99909 0.0
H4759 H 0.45962 0.68988 0.96516 0.0
H4760 H 0.48541 0.67745 0.96348 0.0
H4761 H 0.5564 0.63481 0.03174 0.0
H4762 H 0.55514 0.66438 0.01825 0.0
H4763 H 0.51276 0.63442 0.97509 0.0
H4764 H 0.51393 0.60462 0.98848 0.0
H4765 H 0.5079 0.66907 0.99124 0.0
H4766 H 0.55137 0.64631 0.96373 0.0
H4767 H 0.57773 0.63449 0.96468 0.0
H4768 H 0.60707 0.68628 0.99783 0.0
H4769 H 0.58082 0.69829 0.99735 0.0
C4770 C 0.52025 0.74306 0.94329 0.0
C4771 C 0.53435 0.75862 0.94926 0.0
C4772 C 0.51976 0.72574 0.95086 0.0
C4773 C 0.53315 0.72368 0.96494 0.0
C4774 C 0.5471 0.73935 0.97109 0.0
C4775 C 0.54774 0.75653 0.9633 0.0
C4776 C 0.53297 0.70513 0.97287 0.0
C4777 C 0.54768 0.69772 0.97366 0.0
C4778 C 0.51845 0.69458 0.97936 0.0
C4779 C 0.50292 0.702 0.98036 0.0
C4780 C 0.50419 0.71978 0.99051 0.0
C4781 C 0.48952 0.72673 0.99132 0.0
C4782 C 0.47347 0.71597 0.98217 0.0
C4783 C 0.47206 0.69821 0.97222 0.0
C4784 C 0.4867 0.69119 0.97135 0.0
C4785 C 0.54672 0.63443 0.01943 0.0
C4786 C 0.53528 0.61721 0.01122 0.0
C4787 C 0.54608 0.65141 0.01167 0.0
C4788 C 0.53395 0.65166 0.99554 0.0
C4789 C 0.52225 0.63461 0.98753 0.0
C4790 C 0.52298 0.61755 0.99518 0.0
C4791 C 0.5337 0.66969 0.98694 0.0
C4792 C 0.51893 0.67692 0.986 0.0
C4793 C 0.54824 0.68023 0.98057 0.0
C4794 C 0.56409 0.67313 0.98065 0.0
C4795 C 0.56342 0.65512 0.97134 0.0
C4796 C 0.57835 0.64839 0.97178 0.0
C4797 C 0.59406 0.6596 0.98135 0.0
C4798 C 0.59488 0.6776 0.99045 0.0
C4799 C 0.57999 0.68438 0.99008 0.0
H4800 H 0.6056 0.65436 0.98169 0.0
H4801 H 0.46212 0.72138 0.98281 0.0
H4802 H 0.11196 0.85063 0.68187 0.0
H4803 H 0.13966 0.85334 0.70266 0.0
H4804 H 0.14237 0.79858 0.67711 0.0
H4805 H 0.11503 0.79583 0.65637 0.0
H4806 H 0.14957 0.80244 0.71663 0.0
H4807 H 0.16574 0.83793 0.66479 0.0
H4808 H 0.16504 0.86361 0.64436 0.0
H4809 H 0.18277 0.90521 0.69341 0.0
H4810 H 0.18336 0.87975 0.71417 0.0
H4811 H 0.23336 0.79165 0.73692 0.0
H4812 H 0.20542 0.79536 0.72239 0.0
H4813 H 0.21763 0.85322 0.74886 0.0
H4814 H 0.24613 0.84977 0.76314 0.0
H4815 H 0.20194 0.85157 0.71353 0.0
H4816 H 0.18913 0.81723 0.76521 0.0
H4817 H 0.18969 0.79224 0.78648 0.0
H4818 H 0.165 0.74957 0.73978 0.0
H4819 H 0.1645 0.77428 0.71815 0.0
C4820 C 0.11849 0.83919 0.68069 0.0
C4821 C 0.11125 0.82302 0.66741 0.0
C4822 C 0.13433 0.84078 0.69255 0.0
C4823 C 0.14312 0.82616 0.69144 0.0
C4824 C 0.13583 0.81002 0.67828 0.0
C4825 C 0.12019 0.80852 0.66635 0.0
C4826 C 0.15986 0.82731 0.7039 0.0
C4827 C 0.16104 0.81313 0.7159 0.0
C4828 C 0.17471 0.84167 0.70352 0.0
C4829 C 0.17439 0.85694 0.69104 0.0
C4830 C 0.16934 0.85255 0.67123 0.0
C4831 C 0.16899 0.86707 0.65959 0.0
C4832 C 0.1738 0.88603 0.66759 0.0
C4833 C 0.17901 0.89052 0.68724 0.0
C4834 C 0.17936 0.87605 0.69895 0.0
C4835 C 0.23015 0.80517 0.73985 0.0
C4836 C 0.24203 0.82036 0.7514 0.0
C4837 C 0.21405 0.80725 0.73154 0.0
C4838 C 0.20916 0.82445 0.73479 0.0
C4839 C 0.22101 0.83975 0.74619 0.0
C4840 C 0.23729 0.83774 0.75441 0.0
C4841 C 0.19179 0.8263 0.72587 0.0
C4842 C 0.19045 0.84103 0.71456 0.0
C4843 C 0.1767 0.81256 0.72705 0.0
C4844 C 0.17687 0.79762 0.74003 0.0
C4845 C 0.18391 0.80251 0.75944 0.0
C4846 C 0.18421 0.7884 0.77157 0.0
C4847 C 0.17741 0.76933 0.76448 0.0
C4848 C 0.17026 0.76435 0.74525 0.0
C4849 C 0.16994 0.77841 0.73306 0.0
H4850 H 0.17766 0.75843 0.7739 0.0
H4851 H 0.17352 0.89725 0.65856 0.0
H4852 H 0.01986 0.38235 0.41673 0.0
H4853 H 0.02366 0.41356 0.43411 0.0
H4854 H 0.03616 0.39106 0.487 0.0
H4855 H 0.03198 0.35942 0.46959 0.0
H4856 H 0.01514 0.41414 0.49071 0.0
H4857 H 0.06761 0.41891 0.4658 0.0
H4858 H 0.08536 0.41668 0.44095 0.0
H4859 H 0.0627 0.45651 0.41125 0.0
H4860 H 0.04478 0.45893 0.43579 0.0
H4861 H 0.0428 0.50438 0.5453 0.0
H4862 H 0.04095 0.47274 0.52978 0.0
H4863 H 0.03565 0.49383 0.47498 0.0
H4864 H 0.03929 0.52592 0.49086 0.0
H4865 H 0.05357 0.47065 0.47307 0.0
H4866 H 1.0006 0.46575 0.49818 0.0
H4867 H 0.98322 0.46795 0.52348 0.0
H4868 H 0.00603 0.42794 0.55259 0.0
H4869 H 0.02383 0.42578 0.52781 0.0
C4870 C 0.02346 0.38395 0.43206 0.0
C4871 C 0.02569 0.3683 0.44173 0.0
C4872 C 0.02572 0.40192 0.44201 0.0
C4873 C 0.0305 0.40485 0.46189 0.0
C4874 C 0.03255 0.38922 0.47165 0.0
C4875 C 0.0302 0.37114 0.46169 0.0
C4876 C 0.03307 0.42415 0.47238 0.0
C4877 C 0.02371 0.42648 0.48703 0.0
C4878 C 0.04393 0.44039 0.46734 0.0
C4879 C 0.05477 0.43899 0.45258 0.0
C4880 C 0.06636 0.42712 0.45391 0.0
C4881 C 0.07649 0.42586 0.43989 0.0
C4882 C 0.0752 0.43649 0.42454 0.0
C4883 C 0.06378 0.44839 0.42318 0.0
C4884 C 0.05364 0.44971 0.43714 0.0
C4885 C 0.04127 0.50225 0.52993 0.0
C4886 C 0.04092 0.51759 0.51922 0.0
C4887 C 0.03999 0.48404 0.521 0.0
C4888 C 0.03748 0.48048 0.50105 0.0
C4889 C 0.03739 0.49595 0.49037 0.0
C4890 C 0.03935 0.51433 0.4994 0.0
C4891 C 0.03541 0.46085 0.49132 0.0
C4892 C 0.04491 0.4584 0.47679 0.0
C4893 C 0.02458 0.44453 0.49644 0.0
C4894 C 0.01366 0.44572 0.51119 0.0
C4895 C 1.00197 0.45749 0.51002 0.0
C4896 C 0.99205 0.45873 0.52426 0.0
C4897 C 0.99351 0.4481 0.53958 0.0
C4898 C 0.00491 0.43618 0.54072 0.0
C4899 C 0.01493 0.43495 0.52659 0.0
H4900 H 0.98581 0.44909 0.55056 0.0
H4901 H 0.08305 0.4355 0.41369 0.0
H4902 H 0.4885 0.31911 0.14091 0.0
H4903 H 0.46555 0.31902 0.1594 0.0
H4904 H 0.50063 0.31842 0.21084 0.0
H4905 H 0.52376 0.31835 0.19234 0.0
H4906 H 0.46945 0.29365 0.20959 0.0
H4907 H 0.48956 0.35886 0.20128 0.0
H4908 H 0.49809 0.38593 0.1833 0.0
H4909 H 0.44717 0.37397 0.15085 0.0
H4910 H 0.4384 0.34663 0.16843 0.0
H4911 H 0.41434 0.33225 0.26883 0.0
H4912 H 0.43902 0.32867 0.25386 0.0
H4913 H 0.40521 0.30777 0.20044 0.0
H4914 H 0.38051 0.31099 0.21531 0.0
H4915 H 0.43692 0.34401 0.20496 0.0
H4916 H 0.4189 0.27589 0.20918 0.0
H4917 H 0.41087 0.24747 0.22557 0.0
H4918 H 0.4577 0.26573 0.26595 0.0
H4919 H 0.46606 0.29418 0.24965 0.0
C4920 C 0.49139 0.31895 0.15615 0.0
C4921 C 0.50802 0.31884 0.16513 0.0
C4922 C 0.47824 0.31895 0.16673 0.0
C4923 C 0.48139 0.31894 0.18656 0.0
C4924 C 0.4979 0.31848 0.19557 0.0
C4925 C 0.51112 0.31851 0.18497 0.0
C4926 C 0.46742 0.31958 0.19775 0.0
C4927 C 0.46253 0.30484 0.20881 0.0
C4928 C 0.45819 0.33402 0.19655 0.0
C4929 C 0.46336 0.35059 0.18608 0.0
C4930 C 0.48021 0.36192 0.19022 0.0
C4931 C 0.48509 0.37732 0.18011 0.0
C4932 C 0.47319 0.38164 0.16592 0.0
C4933 C 0.45638 0.37059 0.16184 0.0
C4934 C 0.45144 0.35515 0.17188 0.0
C4935 C 0.41217 0.32671 0.25395 0.0
C4936 C 0.39548 0.32192 0.24324 0.0
C4937 C 0.42625 0.32457 0.24546 0.0
C4938 C 0.42389 0.3179 0.22608 0.0
C4939 C 0.40725 0.31279 0.21545 0.0
C4940 C 0.39316 0.3146 0.22399 0.0
C4941 C 0.43886 0.31797 0.21647 0.0
C4942 C 0.44397 0.33293 0.20581 0.0
C4943 C 0.44827 0.30379 0.21804 0.0
C4944 C 0.443 0.28722 0.22835 0.0
C4945 C 0.42741 0.2739 0.22164 0.0
C4946 C 0.42288 0.25771 0.2308 0.0
C4947 C 0.43378 0.25478 0.24677 0.0
C4948 C 0.44928 0.26801 0.25356 0.0
C4949 C 0.45394 0.28413 0.24434 0.0
H4950 H 0.43018 0.24232 0.25393 0.0
H4951 H 0.477 0.39356 0.1581 0.0
H4952 H 0.65741 0.5668 0.40394 0.0
H4953 H 0.63333 0.55778 0.42078 0.0
H4954 H 0.59791 0.55032 0.36784 0.0
H4955 H 0.62191 0.56011 0.35107 0.0
H4956 H 0.58662 0.56831 0.39292 0.0
H4957 H 0.60684 0.51168 0.39162 0.0
H4958 H 0.62794 0.49188 0.39581 0.0
H4959 H 0.63889 0.50973 0.4559 0.0
H4960 H 0.61806 0.52986 0.45205 0.0
H4961 H 0.53377 0.51621 0.46537 0.0
H4962 H 0.55043 0.51445 0.43942 0.0
H4963 H 0.57313 0.57449 0.45217 0.0
H4964 H 0.55653 0.57638 0.47749 0.0
H4965 H 0.58542 0.52294 0.44122 0.0
H4966 H 0.57855 0.59445 0.41331 0.0
H4967 H 0.55657 0.6131 0.4086 0.0
H4968 H 0.51678 0.56234 0.4043 0.0
H4969 H 0.5385 0.54334 0.40871 0.0
C4970 C 0.64448 0.56322 0.3959 0.0
C4971 C 0.64153 0.56423 0.37622 0.0
C4972 C 0.63073 0.55787 0.4055 0.0
C4973 C 0.61379 0.55298 0.39552 0.0
C4974 C 0.61085 0.55395 0.37584 0.0
C4975 C 0.62458 0.55961 0.36628 0.0
C4976 C 0.59914 0.54804 0.40584 0.0
C4977 C 0.58628 0.55821 0.4033 0.0
C4978 C 0.59841 0.53452 0.4191 0.0
C4979 C 0.61093 0.52237 0.42151 0.0
C4980 C 0.61382 0.51148 0.40571 0.0
C4981 C 0.62573 0.50019 0.40803 0.0
C4982 C 0.63476 0.49957 0.42611 0.0
C4983 C 0.63189 0.51022 0.44191 0.0
C4984 C 0.62001 0.52155 0.43967 0.0
C4985 C 0.5422 0.52899 0.46241 0.0
C4986 C 0.54389 0.54641 0.47338 0.0
C4987 C 0.55171 0.52798 0.44769 0.0
C4988 C 0.56281 0.5444 0.44374 0.0
C4989 C 0.5644 0.56173 0.45472 0.0
C4990 C 0.55498 0.56274 0.46929 0.0
C4991 C 0.57345 0.54376 0.42874 0.0
C4992 C 0.58558 0.53264 0.43045 0.0
C4993 C 0.57337 0.55617 0.4145 0.0
C4994 C 0.56019 0.56747 0.41141 0.0
C4995 C 0.56511 0.58724 0.4112 0.0
C4996 C 0.55269 0.59788 0.40863 0.0
C4997 C 0.53529 0.58892 0.40618 0.0
C4998 C 0.53027 0.56928 0.40624 0.0
C4999 C 0.54263 0.55856 0.4088 0.0
H5000 H 0.5257 0.59719 0.40421 0.0
H5001 H 0.64397 0.49081 0.42787 0.0
H5002 H 0.31229 0.91754 0.08866 0.0
H5003 H 0.31349 0.90558 0.11965 0.0
H5004 H 0.27321 0.85653 0.09551 0.0
H5005 H 0.27169 0.86859 0.0645 0.0
H5006 H 0.26766 0.87025 0.12916 0.0
H5007 H 0.31567 0.85404 0.1053 0.0
H5008 H 0.34247 0.86028 0.09204 0.0
H5009 H 0.36766 0.89951 0.14131 0.0
H5010 H 0.34094 0.89368 0.15476 0.0
H5011 H 0.27651 0.81225 0.20241 0.0
H5012 H 0.27687 0.82504 0.172 0.0
H5013 H 0.31592 0.87408 0.19895 0.0
H5014 H 0.31584 0.86123 0.22957 0.0
H5015 H 0.32231 0.86136 0.16456 0.0
H5016 H 0.27455 0.87664 0.18903 0.0
H5017 H 0.24804 0.86954 0.20277 0.0
H5018 H 0.22235 0.83191 0.15259 0.0
H5019 H 0.24881 0.83849 0.13869 0.0
C5020 C 0.30369 0.90418 0.0899 0.0
C5021 C 0.29194 0.89399 0.07402 0.0
C5022 C 0.30444 0.89732 0.10765 0.0
C5023 C 0.29358 0.88002 0.10992 0.0
C5024 C 0.28173 0.8699 0.09414 0.0
C5025 C 0.28093 0.87679 0.07638 0.0
C5026 C 0.29454 0.87249 0.12874 0.0
C5027 C 0.27957 0.86809 0.13677 0.0
C5028 C 0.31016 0.87011 0.13897 0.0
C5029 C 0.32626 0.87357 0.13095 0.0
C5030 C 0.32689 0.8641 0.11324 0.0
C5031 C 0.34207 0.86755 0.1057 0.0
C5032 C 0.35674 0.88032 0.1158 0.0
C5033 C 0.35628 0.88964 0.13349 0.0
C5034 C 0.34112 0.88626 0.14109 0.0
C5035 C 0.2853 0.8257 0.20193 0.0
C5036 C 0.29609 0.83575 0.21853 0.0
C5037 C 0.28541 0.83304 0.1845 0.0
C5038 C 0.2962 0.85069 0.18323 0.0
C5039 C 0.30743 0.86048 0.1996 0.0
C5040 C 0.30735 0.85311 0.21711 0.0
C5041 C 0.29543 0.859 0.16487 0.0
C5042 C 0.31042 0.86358 0.15695 0.0
C5043 C 0.27983 0.86156 0.15476 0.0
C5044 C 0.26373 0.85795 0.16287 0.0
C5045 C 0.26328 0.86677 0.18096 0.0
C5046 C 0.24826 0.86283 0.18878 0.0
C5047 C 0.23353 0.85025 0.17858 0.0
C5048 C 0.23377 0.84164 0.16049 0.0
C5049 C 0.24878 0.84547 0.15262 0.0
H5050 H 0.22192 0.8472 0.18468 0.0
H5051 H 0.36848 0.88297 0.10994 0.0
H5052 H 0.97411 0.65056 0.85374 0.0
H5053 H 0.99003 0.6437 0.88335 0.0
H5054 H 0.96479 0.58437 0.87002 0.0
H5055 H 0.9491 0.59101 0.84044 0.0
H5056 H 0.96525 0.60045 0.90805 0.0
H5057 H 1.00356 0.5973 0.86236 0.0
H5058 H 0.02066 0.61059 0.83877 0.0
H5059 H 0.04979 0.65599 0.8809 0.0
H5060 H 0.03267 0.64311 0.90467 0.0
H5061 H 0.01208 0.55351 0.97077 0.0
H5062 H 0.99697 0.56473 0.94345 0.0
H5063 H 0.03473 0.61811 0.95407 0.0
H5064 H 0.05022 0.6066 0.98105 0.0
H5065 H 0.02838 0.60816 0.91834 0.0
H5066 H 0.99155 0.6154 0.96296 0.0
H5067 H 0.97261 0.60844 0.98661 0.0
H5068 H 0.94089 0.56079 0.94886 0.0
H5069 H 0.95947 0.56782 0.92473 0.0
C5070 C 0.97191 0.63609 0.85722 0.0
C5071 C 0.9604 0.62131 0.8448 0.0
C5072 C 0.98106 0.63219 0.87403 0.0
C5073 C 0.97864 0.61351 0.87873 0.0
C5074 C 0.96685 0.59885 0.86658 0.0
C5075 C 0.95793 0.60268 0.84969 0.0
C5076 C 0.98827 0.60906 0.89634 0.0
C5077 C 0.97903 0.60192 0.91025 0.0
C5078 C 0.00631 0.61177 0.89947 0.0
C5079 C 0.01672 0.61936 0.88523 0.0
C5080 C 0.01351 0.6102 0.86655 0.0
C5081 C 0.02323 0.61764 0.85316 0.0
C5082 C 0.03627 0.63415 0.85832 0.0
C5083 C 0.03967 0.64322 0.87691 0.0
C5084 C 0.02997 0.63585 0.89035 0.0
C5085 C 0.01716 0.56763 0.96724 0.0
C5086 C 0.03233 0.57918 0.97796 0.0
C5087 C 0.00842 0.57412 0.95174 0.0
C5088 C 0.01451 0.59243 0.94684 0.0
C5089 C 0.02974 0.60395 0.95754 0.0
C5090 C 0.03859 0.59737 0.97294 0.0
C5091 C 0.00532 0.59919 0.93013 0.0
C5092 C 0.01461 0.60674 0.9163 0.0
C5093 C 0.98734 0.59731 0.92724 0.0
C5094 C 0.97698 0.59201 0.94217 0.0
C5095 C 0.98067 0.60327 0.95982 0.0
C5096 C 0.96994 0.59938 0.97327 0.0
C5097 C 0.95559 0.58409 0.9693 0.0
C5098 C 0.95201 0.57261 0.95191 0.0
C5099 C 0.96258 0.57661 0.9383 0.0
H5100 H 0.94715 0.58125 0.97959 0.0
H5101 H 0.04377 0.63989 0.84793 0.0
H5102 H 0.31145 0.25117 0.56825 0.0
H5103 H 0.31155 0.26471 0.60067 0.0
H5104 H 0.26206 0.22762 0.60035 0.0
H5105 H 0.26175 0.21419 0.56783 0.0
H5106 H 0.26307 0.26267 0.61591 0.0
H5107 H 0.29912 0.21857 0.62393 0.0
H5108 H 0.32317 0.20426 0.61858 0.0
H5109 H 0.35901 0.25716 0.64014 0.0
H5110 H 0.33514 0.27187 0.64539 0.0
H5111 H 0.26341 0.27583 0.71571 0.0
H5112 H 0.26284 0.26213 0.6832 0.0
H5113 H 0.31267 0.29827 0.68305 0.0
H5114 H 0.31348 0.3118 0.71559 0.0
H5115 H 0.31131 0.26343 0.66775 0.0
H5116 H 0.27548 0.30766 0.65958 0.0
H5117 H 0.25155 0.32218 0.66497 0.0
H5118 H 0.21547 0.26938 0.64367 0.0
H5119 H 0.23921 0.25447 0.63839 0.0
C5120 C 0.30056 0.24589 0.57504 0.0
C5121 C 0.28663 0.23151 0.5654 0.0
C5122 C 0.30067 0.2536 0.59365 0.0
C5123 C 0.28691 0.24704 0.60312 0.0
C5124 C 0.27285 0.23292 0.59341 0.0
C5125 C 0.27273 0.2252 0.5748 0.0
C5126 C 0.28716 0.25486 0.62313 0.0
C5127 C 0.27351 0.2626 0.62728 0.0
C5128 C 0.30095 0.25519 0.63797 0.0
C5129 C 0.31533 0.24637 0.63487 0.0
C5130 C 0.31212 0.22719 0.62739 0.0
C5131 C 0.32572 0.219 0.6244 0.0
C5132 C 0.3426 0.22981 0.62897 0.0
C5133 C 0.34592 0.24882 0.63658 0.0
C5134 C 0.33236 0.25708 0.63958 0.0
C5135 C 0.27426 0.28088 0.70878 0.0
C5136 C 0.28847 0.29497 0.71833 0.0
C5137 C 0.27388 0.27308 0.69012 0.0
C5138 C 0.28763 0.27929 0.68051 0.0
C5139 C 0.3019 0.29321 0.6901 0.0
C5140 C 0.30231 0.30098 0.70875 0.0
C5141 C 0.28723 0.27128 0.66053 0.0
C5142 C 0.30086 0.2635 0.65638 0.0
C5143 C 0.27344 0.27095 0.64569 0.0
C5144 C 0.25913 0.2799 0.64877 0.0
C5145 C 0.26245 0.29911 0.65618 0.0
C5146 C 0.24892 0.30741 0.65919 0.0
C5147 C 0.23201 0.29669 0.65472 0.0
C5148 C 0.22858 0.27766 0.64716 0.0
C5149 C 0.24207 0.26927 0.64414 0.0
H5150 H 0.22155 0.30315 0.65706 0.0
H5151 H 0.35312 0.22344 0.62664 0.0
H5152 H 0.68207 0.56347 0.29504 0.0
H5153 H 0.66719 0.56529 0.26326 0.0
H5154 H 0.62079 0.53011 0.27555 0.0
H5155 H 0.63574 0.52791 0.30741 0.0
H5156 H 0.62443 0.52286 0.23811 0.0
H5157 H 0.62572 0.57633 0.28163 0.0
H5158 H 0.6384 0.60345 0.30629 0.0
H5159 H 0.67009 0.63026 0.26853 0.0
H5160 H 0.65781 0.60312 0.24374 0.0
H5161 H 0.57239 0.55855 0.1652 0.0
H5162 H 0.58433 0.54963 0.19572 0.0
H5163 H 0.63463 0.58143 0.19042 0.0
H5164 H 0.62294 0.5901 0.15985 0.0
H5165 H 0.62605 0.58931 0.22539 0.0
H5166 H 0.62422 0.5338 0.18199 0.0
H5167 H 0.60972 0.5068 0.15775 0.0
H5168 H 0.5766 0.48404 0.19602 0.0
H5169 H 0.59075 0.51107 0.22041 0.0
C5170 C 0.66879 0.5558 0.29087 0.0
C5171 C 0.65999 0.54577 0.30379 0.0
C5172 C 0.6603 0.55688 0.27273 0.0
C5173 C 0.6428 0.5482 0.26726 0.0
C5174 C 0.63428 0.537 0.27957 0.0
C5175 C 0.64283 0.53576 0.29775 0.0
C5176 C 0.63323 0.55234 0.24942 0.0
C5177 C 0.62457 0.53735 0.23539 0.0
C5178 C 0.6334 0.57128 0.24595 0.0
C5179 C 0.64092 0.58761 0.26086 0.0
C5180 C 0.6355 0.58792 0.27864 0.0
C5181 C 0.6426 0.60331 0.29263 0.0
C5182 C 0.65503 0.61857 0.28897 0.0
C5183 C 0.66045 0.61843 0.27134 0.0
C5184 C 0.65342 0.60305 0.2573 0.0
C5185 C 0.58602 0.5635 0.17046 0.0
C5186 C 0.5967 0.57512 0.16013 0.0
C5187 C 0.5928 0.5584 0.18789 0.0
C5188 C 0.61036 0.56479 0.19523 0.0
C5189 C 0.62102 0.57641 0.185 0.0
C5190 C 0.61429 0.58146 0.1676 0.0
C5191 C 0.61773 0.55989 0.21382 0.0
C5192 C 0.62586 0.57479 0.22811 0.0
C5193 C 0.61682 0.54089 0.21755 0.0
C5194 C 0.60843 0.52457 0.20295 0.0
C5195 C 0.61375 0.52312 0.18518 0.0
C5196 C 0.60561 0.5078 0.17143 0.0
C5197 C 0.59221 0.49374 0.17532 0.0
C5198 C 0.58696 0.49496 0.19301 0.0
C5199 C 0.59505 0.51027 0.20681 0.0
H5200 H 0.58594 0.48189 0.16466 0.0
H5201 H 0.6604 0.63055 0.29976 0.0
H5202 H 0.2889 0.8805 0.98164 0.0
H5203 H 0.28609 0.86163 0.95088 0.0
H5204 H 0.30293 0.91286 0.92557 0.0
H5205 H 0.30543 0.93173 0.956 0.0
H5206 H 0.27661 0.89052 0.90285 0.0
H5207 H 0.32965 0.88255 0.93721 0.0
H5208 H 0.34841 0.87415 0.96399 0.0
H5209 H 0.31793 0.8169 0.95491 0.0
H5210 H 0.29885 0.82504 0.92823 0.0
H5211 H 0.29633 0.84918 0.81703 0.0
H5212 H 0.29765 0.86752 0.84775 0.0
H5213 H 0.27913 0.81563 0.87129 0.0
H5214 H 0.27791 0.79733 0.8407 0.0
H5215 H 0.3057 0.83779 0.89508 0.0
H5216 H 0.25387 0.84617 0.8584 0.0
H5217 H 0.23499 0.85578 0.83258 0.0
H5218 H 0.26342 0.9137 0.84661 0.0
H5219 H 0.28291 0.90434 0.87187 0.0
C5220 C 0.29199 0.88773 0.96951 0.0
C5221 C 0.29741 0.90764 0.97133 0.0
C5222 C 0.29046 0.87692 0.95194 0.0
C5223 C 0.29447 0.88578 0.93588 0.0
C5224 C 0.29974 0.90565 0.93769 0.0
C5225 C 0.3012 0.91644 0.95517 0.0
C5226 C 0.29304 0.87453 0.91709 0.0
C5227 C 0.28317 0.87915 0.90108 0.0
C5228 C 0.30125 0.85939 0.91484 0.0
C5229 C 0.31272 0.85446 0.93086 0.0
C5230 C 0.32687 0.86821 0.94103 0.0
C5231 C 0.33757 0.86349 0.95617 0.0
C5232 C 0.33433 0.84502 0.96118 0.0
C5233 C 0.32041 0.83121 0.95103 0.0
C5234 C 0.30965 0.83587 0.93589 0.0
C5235 C 0.29252 0.84173 0.82876 0.0
C5236 C 0.28703 0.82183 0.82648 0.0
C5237 C 0.2932 0.85221 0.84629 0.0
C5238 C 0.28837 0.84298 0.86186 0.0
C5239 C 0.28293 0.82309 0.85954 0.0
C5240 C 0.28219 0.81265 0.84203 0.0
C5241 C 0.28937 0.85389 0.88072 0.0
C5242 C 0.29915 0.84917 0.89678 0.0
C5243 C 0.28119 0.86909 0.88296 0.0
C5244 C 0.27001 0.87449 0.86693 0.0
C5245 C 0.25632 0.86089 0.85573 0.0
C5246 C 0.24548 0.86631 0.84118 0.0
C5247 C 0.24803 0.88533 0.83788 0.0
C5248 C 0.26151 0.89895 0.84902 0.0
C5249 C 0.27251 0.89358 0.86341 0.0
H5250 H 0.23955 0.88953 0.82671 0.0
H5251 H 0.34264 0.84139 0.97291 0.0
H5252 H 0.00602 0.65908 0.78747 0.0
H5253 H 0.02554 0.64745 0.76889 0.0
H5254 H 0.98309 0.60421 0.73754 0.0
H5255 H 0.96355 0.61574 0.75577 0.0
H5256 H 0.01313 0.59095 0.75024 0.0
H5257 H 0.99572 0.64225 0.71799 0.0
H5258 H 0.99319 0.67534 0.71669 0.0
H5259 H 0.04785 0.69505 0.73251 0.0
H5260 H 0.05067 0.66205 0.73414 0.0
H5261 H 0.02676 0.56116 0.65975 0.0
H5262 H 0.01904 0.57158 0.68971 0.0
H5263 H 0.06493 0.6168 0.70122 0.0
H5264 H 0.07211 0.60729 0.67063 0.0
H5265 H 0.03939 0.63096 0.70453 0.0
H5266 H 0.05766 0.57943 0.73005 0.0
H5267 H 0.0608 0.5466 0.73164 0.0
H5268 H 0.00656 0.52734 0.72992 0.0
H5269 H 1.00304 0.56001 0.72803 0.0
C5270 C 1.00087 0.64711 0.7766 0.0
C5271 C 0.98325 0.63841 0.77298 0.0
C5272 C 0.01203 0.64047 0.76608 0.0
C5273 C 0.00571 0.62495 0.75195 0.0
C5274 C 0.98819 0.61612 0.7485 0.0
C5275 C 0.97703 0.62285 0.75881 0.0
C5276 C 0.01705 0.61831 0.73995 0.0
C5277 C 0.01893 0.59961 0.74021 0.0
C5278 C 0.02509 0.62995 0.72748 0.0
C5279 C 0.02338 0.64974 0.72643 0.0
C5280 C 0.00718 0.65366 0.72136 0.0
C5281 C 0.00569 0.67239 0.72052 0.0
C5282 C 0.02034 0.68729 0.72458 0.0
C5283 C 0.03651 0.68349 0.72942 0.0
C5284 C 0.03806 0.66479 0.73029 0.0
C5285 C 0.03532 0.57321 0.66873 0.0
C5286 C 0.04991 0.58354 0.66259 0.0
C5287 C 0.03103 0.57899 0.68606 0.0
C5288 C 0.04144 0.59496 0.69782 0.0
C5289 C 0.05669 0.60445 0.69239 0.0
C5290 C 0.06086 0.59884 0.67493 0.0
C5291 C 0.03515 0.60321 0.71424 0.0
C5292 C 0.03412 0.62229 0.71485 0.0
C5293 C 0.02807 0.59193 0.72764 0.0
C5294 C 0.03009 0.57221 0.72881 0.0
C5295 C 0.04638 0.56819 0.72988 0.0
C5296 C 0.04823 0.5496 0.73086 0.0
C5297 C 0.03389 0.53489 0.73087 0.0
C5298 C 0.01766 0.53875 0.72993 0.0
C5299 C 0.01574 0.55731 0.72894 0.0
H5300 H 0.03535 0.52051 0.73162 0.0
H5301 H 0.01917 0.70178 0.72392 0.0
H5302 H 0.29133 0.23741 0.47268 0.0
H5303 H 0.29729 0.25499 0.44572 0.0
H5304 H 0.25309 0.21772 0.41007 0.0
H5305 H 0.2474 0.19979 0.43676 0.0
H5306 H 0.27797 0.22307 0.39089 0.0
H5307 H 0.25404 0.26494 0.42821 0.0
H5308 H 0.25136 0.28423 0.45705 0.0
H5309 H 0.30244 0.31786 0.45961 0.0
H5310 H 0.3055 0.29861 0.4309 0.0
H5311 H 0.27146 0.28071 0.31495 0.0
H5312 H 0.2656 0.26408 0.34263 0.0
H5313 H 0.31478 0.29483 0.37415 0.0
H5314 H 0.32072 0.31133 0.34644 0.0
H5315 H 0.28767 0.29318 0.39523 0.0
H5316 H 0.31124 0.25086 0.35772 0.0
H5317 H 0.31309 0.23239 0.32801 0.0
H5318 H 0.26145 0.20018 0.32515 0.0
H5319 H 0.25925 0.21859 0.35482 0.0
C5320 C 0.28281 0.23303 0.45914 0.0
C5321 C 0.26884 0.21719 0.45696 0.0
C5322 C 0.2862 0.24315 0.44369 0.0
C5323 C 0.27554 0.23789 0.42576 0.0
C5324 C 0.26156 0.22212 0.42364 0.0
C5325 C 0.25827 0.2119 0.439 0.0
C5326 C 0.27904 0.24855 0.40914 0.0
C5327 C 0.27985 0.23838 0.39185 0.0
C5328 C 0.28187 0.26861 0.41028 0.0
C5329 C 0.28006 0.28021 0.42752 0.0
C5330 C 0.26474 0.27636 0.43501 0.0
C5331 C 0.26315 0.2873 0.45132 0.0
C5332 C 0.27674 0.30223 0.46019 0.0
C5333 C 0.29193 0.30628 0.45274 0.0
C5334 C 0.2936 0.29537 0.43644 0.0
C5335 C 0.28096 0.28398 0.32781 0.0
C5336 C 0.29652 0.29734 0.32853 0.0
C5337 C 0.27764 0.27442 0.3436 0.0
C5338 C 0.28978 0.27815 0.36049 0.0
C5339 C 0.30521 0.29173 0.36132 0.0
C5340 C 0.30862 0.3011 0.34545 0.0
C5341 C 0.2865 0.26767 0.37716 0.0
C5342 C 0.28576 0.27787 0.39439 0.0
C5343 C 0.28362 0.24766 0.37594 0.0
C5344 C 0.28503 0.23622 0.35839 0.0
C5345 C 0.30025 0.2399 0.3507 0.0
C5346 C 0.30136 0.22944 0.33388 0.0
C5347 C 0.28736 0.21519 0.32463 0.0
C5348 C 0.27227 0.21126 0.3323 0.0
C5349 C 0.2711 0.22167 0.34915 0.0
H5350 H 0.28821 0.20719 0.31155 0.0
H5351 H 0.27548 0.31068 0.47281 0.0
H5352 H 0.31628 0.65703 0.49937 0.0
H5353 H 0.33861 0.63952 0.49704 0.0
H5354 H 0.36713 0.66932 0.55068 0.0
H5355 H 0.34514 0.68719 0.55283 0.0
H5356 H 0.38815 0.66803 0.52669 0.0
H5357 H 0.34355 0.62204 0.54583 0.0
H5358 H 0.31427 0.60232 0.54372 0.0
H5359 H 0.31697 0.57565 0.4889 0.0
H5360 H 0.3462 0.5954 0.49058 0.0
H5361 H 0.44338 0.60554 0.54932 0.0
H5362 H 0.42115 0.62368 0.54899 0.0
H5363 H 0.39981 0.5995 0.49114 0.0
H5364 H 0.42215 0.58149 0.49133 0.0
H5365 H 0.37522 0.59774 0.51571 0.0
H5366 H 0.42071 0.6431 0.49777 0.0
H5367 H 0.44982 0.6633 0.50021 0.0
H5368 H 0.44552 0.6911 0.55386 0.0
H5369 H 0.41647 0.67084 0.55192 0.0
C5370 C 0.32727 0.6598 0.5107 0.0
C5371 C 0.32889 0.67351 0.5263 0.0
C5372 C 0.34002 0.64971 0.50939 0.0
C5373 C 0.35453 0.65292 0.52379 0.0
C5374 C 0.35611 0.66659 0.53937 0.0
C5375 C 0.34347 0.67677 0.54061 0.0
C5376 C 0.36821 0.64231 0.52257 0.0
C5377 C 0.38531 0.65265 0.52455 0.0
C5378 C 0.36455 0.62224 0.51929 0.0
C5379 C 0.34699 0.61034 0.51825 0.0
C5380 C 0.33784 0.61208 0.53326 0.0
C5381 C 0.32127 0.60087 0.53215 0.0
C5382 C 0.31375 0.58778 0.51616 0.0
C5383 C 0.32281 0.58582 0.50126 0.0
C5384 C 0.33938 0.597 0.50229 0.0
C5385 C 0.43396 0.60415 0.53653 0.0
C5386 C 0.43445 0.59211 0.52035 0.0
C5387 C 0.42133 0.61457 0.53633 0.0
C5388 C 0.40885 0.61296 0.52002 0.0
C5389 C 0.40932 0.60094 0.50386 0.0
C5390 C 0.42212 0.59076 0.50395 0.0
C5391 C 0.39508 0.62349 0.52005 0.0
C5392 C 0.37799 0.61313 0.51784 0.0
C5393 C 0.39877 0.64353 0.52327 0.0
C5394 C 0.41645 0.65532 0.52477 0.0
C5395 C 0.42605 0.65334 0.51021 0.0
C5396 C 0.44252 0.66484 0.51147 0.0
C5397 C 0.44949 0.67849 0.52716 0.0
C5398 C 0.44008 0.68054 0.5417 0.0
C5399 C 0.42361 0.66905 0.54053 0.0
H5400 H 0.46213 0.68757 0.52798 0.0
H5401 H 0.30092 0.57912 0.51533 0.0
H5402 H 0.85288 0.97438 0.53445 0.0
H5403 H 0.88127 0.99294 0.5314 0.0
H5404 H 0.90062 0.98658 0.58939 0.0
H5405 H 0.87234 0.96799 0.59255 0.0
H5406 H 0.91155 0.02329 0.58068 0.0
H5407 H 0.90889 0.95942 0.55357 0.0
H5408 H 0.89633 0.93014 0.5316 0.0
H5409 H 0.90174 0.96171 0.48379 0.0
H5410 H 0.91413 0.99124 0.5055 0.0
H5411 H 1.00091 0.0497 0.58359 0.0
H5412 H 0.97157 0.03286 0.58474 0.0
H5413 H 0.95791 0.0333 0.52418 0.0
H5414 H 0.98752 0.0497 0.52305 0.0
H5415 H 0.9431 1.00062 0.53274 0.0
H5416 H 0.94635 0.06409 0.55842 0.0
H5417 H 0.95814 0.09416 0.5794 0.0
H5418 H 0.95059 0.06496 0.62838 0.0
H5419 H 0.93896 0.03466 0.60771 0.0
C5420 C 0.86313 0.97704 0.54662 0.0
C5421 C 0.8603 0.96962 0.56375 0.0
C5422 C 0.8794 0.98758 0.54481 0.0
C5423 C 0.89316 0.99102 0.56011 0.0
C5424 C 0.89023 0.9841 0.57738 0.0
C5425 C 0.87403 0.97342 0.57914 0.0
C5426 C 0.91069 1.00155 0.55811 0.0
C5427 C 0.91853 0.01824 0.57034 0.0
C5428 C 0.91961 0.99532 0.5442 0.0
C5429 C 0.91226 0.97756 0.53116 0.0
C5430 C 0.90728 0.96014 0.53837 0.0
C5431 C 0.90021 0.94349 0.52597 0.0
C5432 C 0.89819 0.94407 0.50631 0.0
C5433 C 0.90329 0.96129 0.49902 0.0
C5434 C 0.91034 0.97798 0.51136 0.0
C5435 C 0.99165 0.04618 0.57051 0.0
C5436 C 0.99655 0.05093 0.55316 0.0
C5437 C 0.97481 0.03664 0.57119 0.0
C5438 C 0.96229 0.03204 0.55461 0.0
C5439 C 0.96724 0.03663 0.53721 0.0
C5440 C 0.9842 0.04595 0.53651 0.0
C5441 C 0.94415 0.02236 0.55548 0.0
C5442 C 0.93615 0.00581 0.54303 0.0
C5443 C 0.93497 0.02887 0.56903 0.0
C5444 C 0.94192 0.04708 0.58152 0.0
C5445 C 0.94731 0.06406 0.57367 0.0
C5446 C 0.95395 0.08115 0.58551 0.0
C5447 C 0.95515 0.08146 0.60521 0.0
C5448 C 0.94967 0.06469 0.61312 0.0
C5449 C 0.94303 0.04756 0.60135 0.0
H5450 H 0.9603 0.09471 0.61435 0.0
H5451 H 0.89272 0.93117 0.49673 0.0
H5452 H 0.89295 0.10939 0.19544 0.0
H5453 H 0.87534 0.13186 0.20103 0.0
H5454 H 0.82967 0.08656 0.18722 0.0
H5455 H 0.84722 0.06379 0.18178 0.0
H5456 H 0.82789 0.12468 0.17334 0.0
H5457 H 0.84224 0.0946 0.22942 0.0
H5458 H 0.86245 0.08361 0.25275 0.0
H5459 H 0.89182 0.14094 0.26876 0.0
H5460 H 0.87196 0.15223 0.24523 0.0
H5461 H 0.77647 0.17501 0.22053 0.0
H5462 H 0.78995 0.15025 0.20916 0.0
H5463 H 0.83987 0.18533 0.23375 0.0
H5464 H 0.82649 0.20974 0.24579 0.0
H5465 H 0.83758 0.15006 0.24157 0.0
H5466 H 0.82515 0.18047 0.18549 0.0
H5467 H 0.80684 0.19242 0.16094 0.0
H5468 H 0.7751 0.1362 0.14458 0.0
H5469 H 0.79326 0.12389 0.16907 0.0
C5470 C 0.87914 0.10421 0.1932 0.0
C5471 C 0.87148 0.08478 0.18842 0.0
C5472 C 0.86912 0.11708 0.19638 0.0
C5473 C 0.85129 0.11076 0.19468 0.0
C5474 C 0.84344 0.09163 0.18857 0.0
C5475 C 0.85349 0.07867 0.18557 0.0
C5476 C 0.84125 0.12377 0.20145 0.0
C5477 C 0.82974 0.13005 0.18827 0.0
C5478 C 0.844 0.13091 0.2209 0.0
C5479 C 0.8557 0.12423 0.23544 0.0
C5480 C 0.85308 0.10485 0.23782 0.0
C5481 C 0.86446 0.09856 0.25108 0.0
C5482 C 0.87844 0.11156 0.2622 0.0
C5483 C 0.881 0.13088 0.26012 0.0
C5484 C 0.86968 0.13723 0.24683 0.0
C5485 C 0.7903 0.17734 0.22369 0.0
C5486 C 0.80042 0.19435 0.23402 0.0
C5487 C 0.79799 0.16328 0.21699 0.0
C5488 C 0.81592 0.16606 0.22043 0.0
C5489 C 0.82601 0.18293 0.23089 0.0
C5490 C 0.81835 0.19693 0.23762 0.0
C5491 C 0.82428 0.15133 0.21343 0.0
C5492 C 0.83552 0.14465 0.22663 0.0
C5493 C 0.82136 0.14396 0.19398 0.0
C5494 C 0.81045 0.1513 0.17924 0.0
C5495 C 0.8142 0.17068 0.17675 0.0
C5496 C 0.80386 0.17751 0.16282 0.0
C5497 C 0.78975 0.16511 0.15129 0.0
C5498 C 0.78601 0.14581 0.15357 0.0
C5499 C 0.79635 0.13888 0.16742 0.0
H5500 H 0.78175 0.17045 0.14055 0.0
H5501 H 0.88725 0.10666 0.27245 0.0
H5502 H 0.73084 0.15714 0.99454 0.0
H5503 H 0.70162 0.13758 0.99128 0.0
H5504 H 0.70756 0.13829 0.05226 0.0
H5505 H 0.73682 0.15735 0.05557 0.0
H5506 H 0.6922 0.10401 0.03604 0.0
H5507 H 0.68482 0.16703 0.027 0.0
H5508 H 0.68827 0.19659 0.01178 0.0
H5509 H 0.66291 0.16492 0.95812 0.0
H5510 H 0.6595 0.13514 0.97299 0.0
H5511 H 0.60769 0.0855 0.05466 0.0
H5512 H 0.63719 0.0993 0.05143 0.0
H5513 H 0.62339 0.08793 0.99038 0.0
H5514 H 0.5936 0.07401 0.99348 0.0
H5515 H 0.6425 0.12472 0.00249 0.0
H5516 H 0.64697 0.06194 0.01322 0.0
H5517 H 0.64297 0.03298 0.02938 0.0
H5518 H 0.67349 0.06474 0.08083 0.0
H5519 H 0.67746 0.09397 0.06506 0.0
C5520 C 0.72592 0.1531 0.00725 0.0
C5521 C 0.73618 0.15887 0.02533 0.0
C5522 C 0.70918 0.14197 0.00537 0.0
C5523 C 0.70226 0.13661 0.02154 0.0
C5524 C 0.71257 0.14219 0.03956 0.0
C5525 C 0.72932 0.15317 0.04143 0.0
C5526 C 0.68428 0.1253 0.0199 0.0
C5527 C 0.68135 0.10864 0.02882 0.0
C5528 C 0.67007 0.13096 0.00999 0.0
C5529 C 0.67209 0.14885 1.00105 0.0
C5530 C 0.6801 0.16636 0.01192 0.0
C5531 C 0.68203 0.18316 0.00337 0.0
C5532 C 0.67586 0.18263 0.98398 0.0
C5533 C 0.66771 0.16531 0.97313 0.0
C5534 C 0.66577 0.14847 0.98161 0.0
C5535 C 0.61089 0.08576 0.04052 0.0
C5536 C 0.59825 0.07862 0.02432 0.0
C5537 C 0.62782 0.09361 0.0387 0.0
C5538 C 0.63255 0.09453 0.02067 0.0
C5539 C 0.62002 0.08731 0.00443 0.0
C5540 C 0.60303 0.07928 0.00624 0.0
C5541 C 0.65047 0.10373 0.01901 0.0
C5542 C 0.65339 0.11997 0.00948 0.0
C5543 C 0.66467 0.09777 0.02846 0.0
C5544 C 0.66241 0.08018 0.03798 0.0
C5545 C 0.65273 0.06279 0.02802 0.0
C5546 C 0.65048 0.04632 0.0371 0.0
C5547 C 0.65795 0.04703 0.05612 0.0
C5548 C 0.66771 0.06421 0.06609 0.0
C5549 C 0.66998 0.08073 0.05708 0.0
H5550 H 0.65619 0.03426 0.06313 0.0
H5551 H 0.67736 0.19564 0.97739 0.0
H5552 H 0.15727 0.42061 0.27534 0.0
H5553 H 0.18278 0.40929 0.28681 0.0
H5554 H 0.21121 0.44385 0.25069 0.0
H5555 H 0.18576 0.45537 0.23916 0.0
H5556 H 0.21556 0.40635 0.24954 0.0
H5557 H 0.21829 0.45906 0.29566 0.0
H5558 H 0.20693 0.47801 0.31856 0.0
H5559 H 0.19911 0.43154 0.35221 0.0
H5560 H 0.21018 0.4122 0.32935 0.0
H5561 H 0.29094 0.38405 0.28495 0.0
H5562 H 0.27407 0.40801 0.28307 0.0
H5563 H 0.23844 0.37578 0.31417 0.0
H5564 H 0.25521 0.35176 0.31619 0.0
H5565 H 0.24044 0.41622 0.31837 0.0
H5566 H 0.23097 0.36208 0.2705 0.0
H5567 H 0.24124 0.34098 0.24853 0.0
H5568 H 0.26003 0.3881 0.21878 0.0
H5569 H 0.25011 0.40955 0.24082 0.0
C5570 C 0.1689 0.42568 0.26969 0.0
C5571 C 0.16953 0.43891 0.25638 0.0
C5572 C 0.18348 0.41932 0.27638 0.0
C5573 C 0.19889 0.426 0.2698 0.0
C5574 C 0.19943 0.43868 0.25602 0.0
C5575 C 0.18489 0.4452 0.24945 0.0
C5576 C 0.21437 0.41953 0.2772 0.0
C5577 C 0.22124 0.40889 0.2645 0.0
C5578 C 0.22146 0.42248 0.29682 0.0
C5579 C 0.21495 0.43413 0.3107 0.0
C5580 C 0.21403 0.45283 0.30786 0.0
C5581 C 0.20766 0.46365 0.32085 0.0
C5582 C 0.20227 0.45597 0.33681 0.0
C5583 C 0.20328 0.43746 0.33984 0.0
C5584 C 0.20962 0.42657 0.32688 0.0
C5585 C 0.27999 0.38247 0.29219 0.0
C5586 C 0.27409 0.36576 0.30021 0.0
C5587 C 0.27037 0.39621 0.2911 0.0
C5588 C 0.25485 0.39335 0.29809 0.0
C5589 C 0.25035 0.37813 0.3086 0.0
C5590 C 0.2599 0.36435 0.30962 0.0
C5591 C 0.24158 0.40317 0.29069 0.0
C5592 C 0.235 0.41418 0.30335 0.0
C5593 C 0.23452 0.40035 0.27107 0.0
C5594 C 0.23997 0.38743 0.25739 0.0
C5595 C 0.23737 0.36795 0.25932 0.0
C5596 C 0.24312 0.35593 0.24687 0.0
C5597 C 0.2513 0.36321 0.2323 0.0
C5598 C 0.2537 0.3825 0.2301 0.0
C5599 C 0.24802 0.39459 0.24256 0.0
H5600 H 0.25569 0.35387 0.22265 0.0
H5601 H 0.19734 0.46436 0.34684 0.0
H5602 H 0.27318 0.47896 0.0372 0.0
H5603 H 0.24937 0.49493 0.03415 0.0
H5604 H 0.21659 0.44603 0.05078 0.0
H5605 H 0.24008 0.42992 0.05338 0.0
H5606 H 0.1997 0.45765 0.02202 0.0
H5607 H 0.23466 0.48861 0.08143 0.0
H5608 H 0.26124 0.50671 0.10226 0.0
H5609 H 0.26263 0.55305 0.06844 0.0
H5610 H 0.23616 0.53511 0.04727 0.0
H5611 H 0.13126 0.49577 0.04567 0.0
H5612 H 0.15627 0.48209 0.04634 0.0
H5613 H 0.18431 0.53263 0.02731 0.0
H5614 H 0.15951 0.54672 0.02726 0.0
H5615 H 0.20418 0.52149 0.05532 0.0
H5616 H 0.16824 0.49108 0.99697 0.0
H5617 H 0.14151 0.473 0.97642 0.0
H5618 H 0.1419 0.42554 0.00841 0.0
H5619 H 0.16852 0.44343 0.02932 0.0
C5620 C 0.26091 0.47165 0.04026 0.0
C5621 C 0.2586 0.45314 0.04555 0.0
C5622 C 0.24729 0.48083 0.03859 0.0
C5623 C 0.23112 0.4718 0.0424 0.0
C5624 C 0.22886 0.45334 0.0477 0.0
C5625 C 0.24238 0.44414 0.04924 0.0
C5626 C 0.2164 0.48128 0.04066 0.0
C5627 C 0.20067 0.47153 0.0295 0.0
C5628 C 0.21766 0.49964 0.04992 0.0
C5629 C 0.23354 0.51044 0.06265 0.0
C5630 C 0.24071 0.5026 0.07836 0.0
C5631 C 0.25574 0.51284 0.09024 0.0
C5632 C 0.26365 0.53099 0.08664 0.0
C5633 C 0.25651 0.53897 0.07119 0.0
C5634 C 0.24149 0.52878 0.05925 0.0
C5635 C 0.14276 0.50407 0.04172 0.0
C5636 C 0.14327 0.52239 0.03638 0.0
C5637 C 0.15704 0.49612 0.04192 0.0
C5638 C 0.17219 0.5062 0.03666 0.0
C5639 C 0.17278 0.5245 0.03137 0.0
C5640 C 0.15849 0.53248 0.03117 0.0
C5641 C 0.18744 0.49771 0.03695 0.0
C5642 C 0.20325 0.50765 0.04779 0.0
C5643 C 0.18627 0.4795 0.02742 0.0
C5644 C 0.1703 0.46866 0.01481 0.0
C5645 C 0.16256 0.47684 0.99971 0.0
C5646 C 0.14744 0.46661 0.98798 0.0
C5647 C 0.13999 0.44815 0.99113 0.0
C5648 C 0.14767 0.43985 0.00599 0.0
C5649 C 0.16279 0.45002 0.01777 0.0
H5650 H 0.12828 0.44026 0.98204 0.0
H5651 H 0.27528 0.53889 0.09585 0.0
H5652 H 0.89705 0.9793 0.23405 0.0
H5653 H 0.87967 0.95079 0.24333 0.0
H5654 H 0.83918 0.95058 0.19665 0.0
H5655 H 0.85636 0.97946 0.18759 0.0
H5656 H 0.82672 0.94723 0.22797 0.0
H5657 H 0.86392 0.91712 0.19766 0.0
H5658 H 0.89102 0.9106 0.19045 0.0
H5659 H 0.90432 0.89845 0.24774 0.0
H5660 H 0.87748 0.90528 0.25544 0.0
H5661 H 0.77618 0.85663 0.24029 0.0
H5662 H 0.79381 0.88289 0.22751 0.0
H5663 H 0.83313 0.89029 0.2771 0.0
H5664 H 0.81547 0.86421 0.29006 0.0
H5665 H 0.84565 0.88883 0.24286 0.0
H5666 H 0.80906 0.92116 0.27318 0.0
H5667 H 0.78133 0.92645 0.27967 0.0
H5668 H 0.7665 0.93312 0.22092 0.0
H5669 H 0.79406 0.9276 0.21402 0.0
C5670 C 0.88456 0.97302 0.22556 0.0
C5671 C 0.87804 0.98168 0.21013 0.0
C5672 C 0.87466 0.95665 0.23084 0.0
C5673 C 0.85815 0.94845 0.22061 0.0
C5674 C 0.85187 0.95669 0.20477 0.0
C5675 C 0.86171 0.97316 0.19958 0.0
C5676 C 0.84691 0.93229 0.22738 0.0
C5677 C 0.83077 0.93432 0.23087 0.0
C5678 C 0.85235 0.91563 0.23166 0.0
C5679 C 0.86874 0.91196 0.22719 0.0
C5680 C 0.87272 0.91331 0.20881 0.0
C5681 C 0.88803 0.90951 0.20462 0.0
C5682 C 0.89941 0.90418 0.21864 0.0
C5683 C 0.89552 0.90263 0.2369 0.0
C5684 C 0.88026 0.90648 0.24118 0.0
C5685 C 0.78851 0.864 0.24854 0.0
C5686 C 0.79454 0.85836 0.26609 0.0
C5687 C 0.79855 0.87895 0.24123 0.0
C5688 C 0.81475 0.88848 0.25138 0.0
C5689 C 0.82069 0.88303 0.26904 0.0
C5690 C 0.81059 0.8682 0.27642 0.0
C5691 C 0.82565 0.90394 0.24344 0.0
C5692 C 0.84167 0.90175 0.2398 0.0
C5693 C 0.82011 0.92041 0.23892 0.0
C5694 C 0.80355 0.92377 0.24305 0.0
C5695 C 0.79982 0.92359 0.26161 0.0
C5696 C 0.78415 0.92666 0.26537 0.0
C5697 C 0.77214 0.93006 0.25071 0.0
C5698 C 0.7758 0.93045 0.23226 0.0
C5699 C 0.79145 0.92737 0.22842 0.0
H5700 H 0.76001 0.93244 0.25364 0.0
H5701 H 0.91123 0.90118 0.21535 0.0
H5702 H 0.6365 0.04353 0.77922 0.0
H5703 H 0.65242 0.07662 0.78213 0.0
H5704 H 0.6896 0.05976 0.75136 0.0
H5705 H 0.674 0.02665 0.74873 0.0
H5706 H 0.70505 0.08644 0.78069 0.0
H5707 H 0.65734 0.07724 0.729 0.0
H5708 H 0.62679 0.068 0.7142 0.0
H5709 H 0.6156 0.10958 0.75338 0.0
H5710 H 0.64607 0.1189 0.76858 0.0
H5711 H 0.73941 0.16981 0.74091 0.0
H5712 H 0.72474 0.13797 0.74631 0.0
H5713 H 0.69371 0.16227 0.78067 0.0
H5714 H 0.70833 0.19418 0.77529 0.0
H5715 H 0.6748 0.13297 0.75302 0.0
H5716 H 0.72357 0.14435 0.80248 0.0
H5717 H 0.75428 0.15356 0.81653 0.0
H5718 H 0.76376 0.108 0.78085 0.0
H5719 H 0.73312 0.09868 0.76637 0.0
C5720 C 0.64816 0.04683 0.77325 0.0
C5721 C 0.65393 0.03247 0.76365 0.0
C5722 C 0.6572 0.06576 0.77486 0.0
C5723 C 0.67207 0.07065 0.76676 0.0
C5724 C 0.67815 0.05628 0.75771 0.0
C5725 C 0.66916 0.03737 0.75614 0.0
C5726 C 0.68093 0.09078 0.7669 0.0
C5727 C 0.69848 0.0966 0.77453 0.0
C5728 C 0.67223 0.1041 0.75925 0.0
C5729 C 0.65394 0.09861 0.75005 0.0
C5730 C 0.64834 0.08431 0.73455 0.0
C5731 C 0.63105 0.07908 0.72607 0.0
C5732 C 0.61925 0.08816 0.73288 0.0
C5733 C 0.62474 0.10254 0.74814 0.0
C5734 C 0.64202 0.10781 0.75668 0.0
C5735 C 0.72947 0.16833 0.74963 0.0
C5736 C 0.72498 0.18441 0.75769 0.0
C5737 C 0.7212 0.15019 0.75281 0.0
C5738 C 0.70825 0.14783 0.764 0.0
C5739 C 0.70373 0.16385 0.77207 0.0
C5740 C 0.71213 0.18202 0.76906 0.0
C5741 C 0.69896 0.12855 0.76656 0.0
C5742 C 0.68133 0.12289 0.7594 0.0
C5743 C 0.70761 0.11537 0.77454 0.0
C5744 C 0.72606 0.12092 0.78322 0.0
C5745 C 0.73222 0.13639 0.7975 0.0
C5746 C 0.74961 0.14162 0.80557 0.0
C5747 C 0.76097 0.1314 0.79956 0.0
C5748 C 0.75495 0.11591 0.78548 0.0
C5749 C 0.73756 0.11064 0.77735 0.0
H5750 H 0.77443 0.13546 0.80582 0.0
H5751 H 0.60587 0.08408 0.72631 0.0
loop_
_geom_bond_atom_site_label_1
_geom_bond_atom_site_label_2
_geom_bond_distance
_geom_bond_site_symmetry_2
_ccdc_geom_bond_type
C0 O1 1.160 . S
C0 O7 1.185 . S
O1 C0 1.160 . S
O2 Zn3 1.899 . S
O2 C10 1.284 . S
Zn3 O2 1.899 . S
Zn3 O4 2.032 . S
Zn3 O7 2.086 . S
Zn3 O12 1.977 1_455 S
O4 Zn3 2.032 . S
O4 C8 1.278 . S
C5 O6 1.203 . S
C5 O12 1.267 . S
O6 C5 1.203 . S
O7 C0 1.185 . S
O7 Zn3 2.086 . S
C8 O4 1.278 . S
C8 O9 1.211 1_455 S
O9 C8 1.211 1_655 S
C10 O2 1.284 . S
C10 O11 1.273 . S
O11 C10 1.273 . S
O12 Zn3 1.977 1_655 S
O12 C5 1.267 . S
C13 O14 1.160 . S
C13 O20 1.185 . S
O14 C13 1.160 . S
O15 Zn16 1.899 . S
O15 C23 1.284 . S
Zn16 O15 1.899 . S
Zn16 O17 2.032 . S
Zn16 O20 2.086 . S
Zn16 O25 1.977 . S
O17 Zn16 2.032 . S
O17 C21 1.278 . S
C18 O19 1.203 . S
C18 O25 1.267 . S
O19 C18 1.203 . S
O20 C13 1.185 . S
O20 Zn16 2.086 . S
C21 O17 1.278 . S
C21 O22 1.211 . S
O22 C21 1.211 . S
C23 O15 1.284 . S
C23 O24 1.273 . S
O24 C23 1.273 . S
O25 Zn16 1.977 . S
O25 C18 1.267 . S
C26 O27 1.160 . S
C26 O33 1.185 . S
O27 C26 1.160 . S
O28 Zn29 1.899 . S
O28 C36 1.284 . S
Zn29 O28 1.899 . S
Zn29 O30 2.032 . S
Zn29 O33 2.086 . S
Zn29 O38 1.977 . S
O30 Zn29 2.032 . S
O30 C34 1.278 . S
C31 O32 1.203 . S
C31 O38 1.267 . S
O32 C31 1.203 . S
O33 C26 1.185 . S
O33 Zn29 2.086 . S
C34 O30 1.278 . S
C34 O35 1.211 . S
O35 C34 1.211 . S
C36 O28 1.284 . S
C36 O37 1.273 . S
O37 C36 1.273 . S
O38 Zn29 1.977 . S
O38 C31 1.267 . S
C39 O40 1.160 . S
C39 O46 1.185 . S
O40 C39 1.160 . S
O41 Zn42 1.899 . S
O41 C49 1.284 . S
Zn42 O41 1.899 . S
Zn42 O43 2.032 . S
Zn42 O46 2.086 . S
Zn42 O51 1.977 . S
O43 Zn42 2.032 . S
O43 C47 1.278 . S
C44 O45 1.203 . S
C44 O51 1.267 . S
O45 C44 1.203 . S
O46 C39 1.185 . S
O46 Zn42 2.086 . S
C47 O43 1.278 . S
C47 O48 1.211 . S
O48 C47 1.211 . S
C49 O41 1.284 . S
C49 O50 1.273 . S
O50 C49 1.273 . S
O51 Zn42 1.977 . S
O51 C44 1.267 . S
C52 O53 1.160 . S
C52 O59 1.185 . S
O53 C52 1.160 . S
O54 Zn55 1.899 . S
O54 C62 1.284 . S
Zn55 O54 1.899 . S
Zn55 O56 2.032 . S
Zn55 O59 2.086 . S
Zn55 O64 1.977 . S
O56 Zn55 2.032 . S
O56 C60 1.278 . S
C57 O58 1.203 . S
C57 O64 1.267 . S
O58 C57 1.203 . S
O59 C52 1.185 . S
O59 Zn55 2.086 . S
C60 O56 1.278 . S
C60 O61 1.211 . S
O61 C60 1.211 . S
C62 O54 1.284 . S
C62 O63 1.273 . S
O63 C62 1.273 . S
O64 Zn55 1.977 . S
O64 C57 1.267 . S
C65 O66 1.160 . S
C65 O72 1.185 . S
O66 C65 1.160 . S
O67 Zn68 1.899 . S
O67 C75 1.284 . S
Zn68 O67 1.899 . S
Zn68 O69 2.032 . S
Zn68 O72 2.086 . S
Zn68 O77 1.977 . S
O69 Zn68 2.032 . S
O69 C73 1.278 . S
C70 O71 1.203 . S
C70 O77 1.267 . S
O71 C70 1.203 . S
O72 C65 1.185 . S
O72 Zn68 2.086 . S
C73 O69 1.278 . S
C73 O74 1.211 . S
O74 C73 1.211 . S
C75 O67 1.284 . S
C75 O76 1.273 . S
O76 C75 1.273 . S
O77 Zn68 1.977 . S
O77 C70 1.267 . S
C78 O79 1.160 . S
C78 O85 1.185 . S
O79 C78 1.160 . S
O80 Zn81 1.899 . S
O80 C88 1.284 . S
Zn81 O80 1.899 . S
Zn81 O82 2.032 . S
Zn81 O85 2.086 . S
Zn81 O90 1.977 . S
O82 Zn81 2.032 . S
O82 C86 1.278 . S
C83 O84 1.203 . S
C83 O90 1.267 . S
O84 C83 1.203 . S
O85 C78 1.185 . S
O85 Zn81 2.086 . S
C86 O82 1.278 . S
C86 O87 1.211 . S
O87 C86 1.211 . S
C88 O80 1.284 . S
C88 O89 1.273 . S
O89 C88 1.273 . S
O90 Zn81 1.977 . S
O90 C83 1.267 . S
C91 O92 1.160 . S
C91 O98 1.185 . S
O92 C91 1.160 . S
O93 Zn94 1.899 . S
O93 C101 1.284 . S
Zn94 O93 1.899 . S
Zn94 O95 2.032 . S
Zn94 O98 2.086 . S
Zn94 O103 1.977 1_455 S
O95 Zn94 2.032 . S
O95 C99 1.278 . S
C96 O97 1.203 . S
C96 O103 1.267 . S
O97 C96 1.203 . S
O98 C91 1.185 . S
O98 Zn94 2.086 . S
C99 O95 1.278 . S
C99 O100 1.211 . S
O100 C99 1.211 . S
C101 O93 1.284 . S
C101 O102 1.273 . S
O102 C101 1.273 . S
O103 Zn94 1.977 1_655 S
O103 C96 1.267 . S
C104 O105 1.160 . S
C104 O111 1.185 . S
O105 C104 1.160 . S
O106 Zn107 1.899 . S
O106 C114 1.284 . S
Zn107 O106 1.899 . S
Zn107 O108 2.032 . S
Zn107 O111 2.086 . S
Zn107 O116 1.977 . S
O108 Zn107 2.032 . S
O108 C112 1.278 . S
C109 O110 1.203 . S
C109 O116 1.267 . S
O110 C109 1.203 . S
O111 C104 1.185 . S
O111 Zn107 2.086 . S
C112 O108 1.278 . S
C112 O113 1.211 . S
O113 C112 1.211 . S
C114 O106 1.284 . S
C114 O115 1.273 . S
O115 C114 1.273 . S
O116 Zn107 1.977 . S
O116 C109 1.267 . S
C117 O118 1.160 . S
C117 O124 1.185 . S
O118 C117 1.160 . S
O119 Zn120 1.899 . S
O119 C127 1.284 . S
Zn120 O119 1.899 . S
Zn120 O121 2.032 . S
Zn120 O124 2.086 . S
Zn120 O129 1.977 . S
O121 Zn120 2.032 . S
O121 C125 1.278 . S
C122 O123 1.203 . S
C122 O129 1.267 . S
O123 C122 1.203 . S
O124 C117 1.185 . S
O124 Zn120 2.086 . S
C125 O121 1.278 . S
C125 O126 1.211 . S
O126 C125 1.211 . S
C127 O119 1.284 . S
C127 O128 1.273 . S
O128 C127 1.273 . S
O129 Zn120 1.977 . S
O129 C122 1.267 . S
C130 O131 1.160 . S
C130 O137 1.185 . S
O131 C130 1.160 . S
O132 Zn133 1.899 . S
O132 C140 1.284 . S
Zn133 O132 1.899 . S
Zn133 O134 2.032 . S
Zn133 O137 2.086 . S
Zn133 O142 1.977 . S
O134 Zn133 2.032 . S
O134 C138 1.278 . S
C135 O136 1.203 . S
C135 O142 1.267 . S
O136 C135 1.203 . S
O137 C130 1.185 . S
O137 Zn133 2.086 . S
C138 O134 1.278 . S
C138 O139 1.211 . S
O139 C138 1.211 . S
C140 O132 1.284 . S
C140 O141 1.273 . S
O141 C140 1.273 . S
O142 Zn133 1.977 . S
O142 C135 1.267 . S
C143 O144 1.160 . S
C143 O150 1.185 . S
O144 C143 1.160 . S
O145 Zn146 1.899 . S
O145 C153 1.284 . S
Zn146 O145 1.899 . S
Zn146 O147 2.032 . S
Zn146 O150 2.086 . S
Zn146 O155 1.977 . S
O147 Zn146 2.032 . S
O147 C151 1.278 . S
C148 O149 1.203 . S
C148 O155 1.267 . S
O149 C148 1.203 . S
O150 C143 1.185 . S
O150 Zn146 2.086 . S
C151 O147 1.278 . S
C151 O152 1.211 . S
O152 C151 1.211 . S
C153 O145 1.284 . S
C153 O154 1.273 . S
O154 C153 1.273 . S
O155 Zn146 1.977 . S
O155 C148 1.267 . S
C156 O157 1.160 . S
C156 O163 1.185 . S
O157 C156 1.160 . S
O158 Zn159 1.899 . S
O158 C166 1.284 . S
Zn159 O158 1.899 . S
Zn159 O160 2.032 . S
Zn159 O163 2.086 . S
Zn159 O168 1.977 . S
O160 Zn159 2.032 . S
O160 C164 1.278 1_554 S
C161 O162 1.203 . S
C161 O168 1.267 . S
O162 C161 1.203 . S
O163 C156 1.185 . S
O163 Zn159 2.086 . S
C164 O160 1.278 1_556 S
C164 O165 1.211 1_556 S
O165 C164 1.211 1_554 S
C166 O158 1.284 . S
C166 O167 1.273 . S
O167 C166 1.273 . S
O168 Zn159 1.977 . S
O168 C161 1.267 . S
C169 O170 1.160 . S
C169 O176 1.185 1_554 S
O170 C169 1.160 . S
O171 Zn172 1.899 . S
O171 C179 1.284 . S
Zn172 O171 1.899 . S
Zn172 O173 2.032 1_554 S
Zn172 O176 2.086 1_554 S
Zn172 O181 1.977 1_554 S
O173 Zn172 2.032 1_556 S
O173 C177 1.278 . S
C174 O175 1.203 1_556 S
C174 O181 1.267 . S
O175 C174 1.203 1_554 S
O176 C169 1.185 1_556 S
O176 Zn172 2.086 1_556 S
C177 O173 1.278 . S
C177 O178 1.211 . S
O178 C177 1.211 . S
C179 O171 1.284 . S
C179 O180 1.273 . S
O180 C179 1.273 . S
O181 Zn172 1.977 1_556 S
O181 C174 1.267 . S
C182 O183 1.160 . S
C182 O189 1.185 . S
O183 C182 1.160 . S
O184 Zn185 1.899 . S
O184 C192 1.284 . S
Zn185 O184 1.899 . S
Zn185 O186 2.032 . S
Zn185 O189 2.086 . S
Zn185 O194 1.977 . S
O186 Zn185 2.032 . S
O186 C190 1.278 . S
C187 O188 1.203 . S
C187 O194 1.267 . S
O188 C187 1.203 . S
O189 C182 1.185 . S
O189 Zn185 2.086 . S
C190 O186 1.278 . S
C190 O191 1.211 . S
O191 C190 1.211 . S
C192 O184 1.284 . S
C192 O193 1.273 . S
O193 C192 1.273 . S
O194 Zn185 1.977 . S
O194 C187 1.267 . S
C195 O196 1.160 . S
C195 O202 1.185 . S
O196 C195 1.160 . S
O197 Zn198 1.899 . S
O197 C205 1.284 . S
Zn198 O197 1.899 . S
Zn198 O199 2.032 . S
Zn198 O202 2.086 . S
Zn198 O207 1.977 . S
O199 Zn198 2.032 . S
O199 C203 1.278 . S
C200 O201 1.203 . S
C200 O207 1.267 . S
O201 C200 1.203 . S
O202 C195 1.185 . S
O202 Zn198 2.086 . S
C203 O199 1.278 . S
C203 O204 1.211 . S
O204 C203 1.211 . S
C205 O197 1.284 . S
C205 O206 1.273 . S
O206 C205 1.273 . S
O207 Zn198 1.977 . S
O207 C200 1.267 . S
C208 O209 1.160 . S
C208 O215 1.185 . S
O209 C208 1.160 . S
O210 Zn211 1.899 . S
O210 C218 1.284 . S
Zn211 O210 1.899 . S
Zn211 O212 2.032 . S
Zn211 O215 2.086 . S
Zn211 O220 1.977 . S
O212 Zn211 2.032 . S
O212 C216 1.278 . S
C213 O214 1.203 . S
C213 O220 1.267 . S
O214 C213 1.203 . S
O215 C208 1.185 . S
O215 Zn211 2.086 . S
C216 O212 1.278 . S
C216 O217 1.211 . S
O217 C216 1.211 . S
C218 O210 1.284 . S
C218 O219 1.273 . S
O219 C218 1.273 . S
O220 Zn211 1.977 . S
O220 C213 1.267 . S
C221 O222 1.160 . S
C221 O228 1.185 . S
O222 C221 1.160 . S
O223 Zn224 1.899 . S
O223 C231 1.284 . S
Zn224 O223 1.899 . S
Zn224 O225 2.032 . S
Zn224 O228 2.086 . S
Zn224 O233 1.977 . S
O225 Zn224 2.032 . S
O225 C229 1.278 . S
C226 O227 1.203 . S
C226 O233 1.267 . S
O227 C226 1.203 . S
O228 C221 1.185 . S
O228 Zn224 2.086 . S
C229 O225 1.278 . S
C229 O230 1.211 . S
O230 C229 1.211 . S
C231 O223 1.284 . S
C231 O232 1.273 . S
O232 C231 1.273 . S
O233 Zn224 1.977 . S
O233 C226 1.267 . S
C234 O235 1.160 . S
C234 O241 1.185 . S
O235 C234 1.160 . S
O236 Zn237 1.899 . S
O236 C244 1.284 . S
Zn237 O236 1.899 . S
Zn237 O238 2.032 . S
Zn237 O241 2.086 . S
Zn237 O246 1.977 . S
O238 Zn237 2.032 . S
O238 C242 1.278 . S
C239 O240 1.203 . S
C239 O246 1.267 . S
O240 C239 1.203 . S
O241 C234 1.185 . S
O241 Zn237 2.086 . S
C242 O238 1.278 . S
C242 O243 1.211 . S
O243 C242 1.211 . S
C244 O236 1.284 . S
C244 O245 1.273 . S
O245 C244 1.273 . S
O246 Zn237 1.977 . S
O246 C239 1.267 . S
C247 O248 1.160 . S
C247 O254 1.185 . S
O248 C247 1.160 . S
O249 Zn250 1.899 . S
O249 C257 1.284 . S
Zn250 O249 1.899 . S
Zn250 O251 2.032 . S
Zn250 O254 2.086 . S
Zn250 O259 1.977 1_565 S
O251 Zn250 2.032 . S
O251 C255 1.278 1_565 S
C252 O253 1.203 . S
C252 O259 1.267 . S
O253 C252 1.203 . S
O254 C247 1.185 . S
O254 Zn250 2.086 . S
C255 O251 1.278 1_545 S
C255 O256 1.211 . S
O256 C255 1.211 . S
C257 O249 1.284 . S
C257 O258 1.273 1_565 S
O258 C257 1.273 1_545 S
O259 Zn250 1.977 1_545 S
O259 C252 1.267 . S
C260 O261 1.160 . S
C260 O267 1.185 . S
O261 C260 1.160 . S
O262 Zn263 1.899 . S
O262 C270 1.284 . S
Zn263 O262 1.899 . S
Zn263 O264 2.032 . S
Zn263 O267 2.086 . S
Zn263 O272 1.977 . S
O264 Zn263 2.032 . S
O264 C268 1.278 1_554 S
C265 O266 1.203 . S
C265 O272 1.267 . S
O266 C265 1.203 . S
O267 C260 1.185 . S
O267 Zn263 2.086 . S
C268 O264 1.278 1_556 S
C268 O269 1.211 . S
O269 C268 1.211 . S
C270 O262 1.284 . S
C270 O271 1.273 . S
O271 C270 1.273 . S
O272 Zn263 1.977 . S
O272 C265 1.267 . S
C273 O274 1.160 . S
C273 O280 1.185 . S
O274 C273 1.160 . S
O275 Zn276 1.899 . S
O275 C283 1.284 . S
Zn276 O275 1.899 . S
Zn276 O277 2.032 . S
Zn276 O280 2.086 . S
Zn276 O285 1.977 . S
O277 Zn276 2.032 . S
O277 C281 1.278 . S
C278 O279 1.203 . S
C278 O285 1.267 . S
O279 C278 1.203 . S
O280 C273 1.185 . S
O280 Zn276 2.086 . S
C281 O277 1.278 . S
C281 O282 1.211 . S
O282 C281 1.211 . S
C283 O275 1.284 . S
C283 O284 1.273 . S
O284 C283 1.273 . S
O285 Zn276 1.977 . S
O285 C278 1.267 . S
C286 O287 1.160 . S
C286 O293 1.185 . S
O287 C286 1.160 . S
O288 Zn289 1.899 . S
O288 C296 1.284 . S
Zn289 O288 1.899 . S
Zn289 O290 2.032 . S
Zn289 O293 2.086 . S
Zn289 O298 1.977 . S
O290 Zn289 2.032 . S
O290 C294 1.278 . S
C291 O292 1.203 . S
C291 O298 1.267 . S
O292 C291 1.203 . S
O293 C286 1.185 . S
O293 Zn289 2.086 . S
C294 O290 1.278 . S
C294 O295 1.211 . S
O295 C294 1.211 . S
C296 O288 1.284 . S
C296 O297 1.273 . S
O297 C296 1.273 . S
O298 Zn289 1.977 . S
O298 C291 1.267 . S
C299 O300 1.160 . S
C299 O306 1.185 . S
O300 C299 1.160 . S
O301 Zn302 1.899 . S
O301 C309 1.284 . S
Zn302 O301 1.899 . S
Zn302 O303 2.032 . S
Zn302 O306 2.086 . S
Zn302 O311 1.977 . S
O303 Zn302 2.032 . S
O303 C307 1.278 . S
C304 O305 1.203 . S
C304 O311 1.267 . S
O305 C304 1.203 . S
O306 C299 1.185 . S
O306 Zn302 2.086 . S
C307 O303 1.278 . S
C307 O308 1.211 . S
O308 C307 1.211 . S
C309 O301 1.284 . S
C309 O310 1.273 . S
O310 C309 1.273 . S
O311 Zn302 1.977 . S
O311 C304 1.267 . S
Pr312 C314 2.880 1_454 S
Pr312 O332 2.562 1_455 S
Pr312 O333 2.490 1_454 S
Pr312 O334 2.695 . S
Pr312 O335 2.512 1_554 S
Pr312 O337 2.437 . S
Pr312 O340 2.436 . S
Pr312 O342 2.438 . S
Pr313 C323 2.880 . S
Pr313 O334 2.436 . S
Pr313 O336 2.438 . S
Pr313 O338 2.562 . S
Pr313 O339 2.490 . S
Pr313 O340 2.695 . S
Pr313 O341 2.512 . S
Pr313 O343 2.437 . S
C314 Pr312 2.880 1_656 S
C314 C315 1.491 . S
C314 O332 1.254 1_556 S
C314 O333 1.225 . S
C315 C314 1.491 . S
C315 C316 1.392 . S
C315 C320 1.363 . S
C316 C315 1.392 . S
C316 C317 1.368 . S
C316 H344 0.929 . S
C317 C316 1.368 . S
C317 C318 1.386 . S
C317 H345 0.929 . S
C318 C317 1.386 . S
C318 C319 1.373 . S
C319 C318 1.373 . S
C319 C320 1.412 . S
C319 H346 0.931 1_556 S
C320 C315 1.363 . S
C320 C319 1.412 . S
C320 H347 0.920 1_556 S
C321 O334 1.270 1_556 S
C321 O335 1.248 . S
C322 O336 1.267 . S
C322 O337 1.278 . S
C323 Pr313 2.880 . S
C323 C324 1.491 . S
C323 O338 1.254 . S
C323 O339 1.225 . S
C324 C323 1.491 . S
C324 C325 1.392 . S
C324 C329 1.356 . S
C325 C324 1.392 . S
C325 C326 1.368 . S
C325 H348 0.929 . S
C326 C325 1.368 . S
C326 C327 1.386 . S
C326 H349 0.929 . S
C327 C326 1.386 . S
C327 C328 1.373 . S
C328 C327 1.373 . S
C328 C329 1.409 . S
C328 H350 0.931 . S
C329 C324 1.356 . S
C329 C328 1.409 . S
C329 H351 0.930 . S
C330 O340 1.270 . S
C330 O341 1.248 . S
C331 O342 1.267 . S
C331 O343 1.278 . S
O332 Pr312 2.562 1_655 S
O332 C314 1.254 1_554 S
O333 Pr312 2.490 1_656 S
O333 C314 1.225 . S
O334 Pr312 2.695 . S
O334 Pr313 2.436 . S
O334 C321 1.270 1_554 S
O335 Pr312 2.512 1_556 S
O335 C321 1.248 . S
O336 Pr313 2.438 . S
O336 C322 1.267 . S
O337 Pr312 2.437 . S
O337 C322 1.278 . S
O338 Pr313 2.562 . S
O338 C323 1.254 . S
O339 Pr313 2.490 . S
O339 C323 1.225 . S
O340 Pr312 2.436 . S
O340 Pr313 2.695 . S
O340 C330 1.270 . S
O341 Pr313 2.512 . S
O341 C330 1.248 . S
O342 Pr312 2.438 . S
O342 C331 1.267 . S
O343 Pr313 2.437 . S
O343 C331 1.278 . S
H344 C316 0.929 . S
H345 C317 0.929 . S
H346 C319 0.931 1_554 S
H347 C320 0.920 1_554 S
H348 C325 0.929 . S
H349 C326 0.929 . S
H350 C328 0.931 . S
H351 C329 0.930 . S
Pr352 C354 2.880 . S
Pr352 O372 2.562 . S
Pr352 O373 2.490 . S
Pr352 O374 2.695 . S
Pr352 O375 2.512 . S
Pr352 O377 2.437 . S
Pr352 O380 2.436 . S
Pr352 O382 2.438 . S
Pr353 C363 2.880 . S
Pr353 O374 2.436 . S
Pr353 O376 2.438 . S
Pr353 O378 2.562 . S
Pr353 O379 2.490 . S
Pr353 O380 2.695 . S
Pr353 O381 2.512 . S
Pr353 O383 2.437 . S
C354 Pr352 2.880 . S
C354 C355 1.491 . S
C354 O372 1.254 . S
C354 O373 1.225 . S
C355 C354 1.491 . S
C355 C356 1.392 . S
C355 C360 1.356 . S
C356 C355 1.392 . S
C356 C357 1.368 . S
C356 H384 0.929 . S
C357 C356 1.368 . S
C357 C358 1.386 . S
C357 H385 0.929 . S
C358 C357 1.386 . S
C358 C359 1.373 . S
C359 C358 1.373 . S
C359 C360 1.409 . S
C359 H386 0.931 . S
C360 C355 1.356 . S
C360 C359 1.409 . S
C360 H387 0.930 . S
C361 O374 1.270 . S
C361 O375 1.248 . S
C362 O376 1.267 . S
C362 O377 1.278 . S
C363 Pr353 2.880 . S
C363 C364 1.491 . S
C363 O378 1.254 . S
C363 O379 1.225 . S
C364 C363 1.491 . S
C364 C365 1.392 . S
C364 C369 1.356 . S
C365 C364 1.392 . S
C365 C366 1.368 . S
C365 H388 0.929 . S
C366 C365 1.368 . S
C366 C367 1.386 . S
C366 H389 0.929 . S
C367 C366 1.386 . S
C367 C368 1.373 . S
C368 C367 1.373 . S
C368 C369 1.409 . S
C368 H390 0.931 . S
C369 C364 1.356 . S
C369 C368 1.409 . S
C369 H391 0.930 . S
C370 O380 1.270 . S
C370 O381 1.248 . S
C371 O382 1.267 . S
C371 O383 1.278 . S
O372 Pr352 2.562 . S
O372 C354 1.254 . S
O373 Pr352 2.490 . S
O373 C354 1.225 . S
O374 Pr352 2.695 . S
O374 Pr353 2.436 . S
O374 C361 1.270 . S
O375 Pr352 2.512 . S
O375 C361 1.248 . S
O376 Pr353 2.438 . S
O376 C362 1.267 . S
O377 Pr352 2.437 . S
O377 C362 1.278 . S
O378 Pr353 2.562 . S
O378 C363 1.254 . S
O379 Pr353 2.490 . S
O379 C363 1.225 . S
O380 Pr352 2.436 . S
O380 Pr353 2.695 . S
O380 C370 1.270 . S
O381 Pr353 2.512 . S
O381 C370 1.248 . S
O382 Pr352 2.438 . S
O382 C371 1.267 . S
O383 Pr353 2.437 . S
O383 C371 1.278 . S
H384 C356 0.929 . S
H385 C357 0.929 . S
H386 C359 0.931 . S
H387 C360 0.930 . S
H388 C365 0.929 . S
H389 C366 0.929 . S
H390 C368 0.931 . S
H391 C369 0.930 . S
Pr392 C394 2.880 . S
Pr392 O412 2.562 . S
Pr392 O413 2.490 . S
Pr392 O414 2.695 . S
Pr392 O415 2.512 . S
Pr392 O417 2.437 . S
Pr392 O420 2.436 . S
Pr392 O422 2.438 . S
Pr393 C403 2.880 . S
Pr393 O414 2.436 . S
Pr393 O416 2.438 . S
Pr393 O418 2.562 . S
Pr393 O419 2.490 . S
Pr393 O420 2.695 . S
Pr393 O421 2.512 . S
Pr393 O423 2.437 . S
C394 Pr392 2.880 . S
C394 C395 1.491 . S
C394 O412 1.254 . S
C394 O413 1.225 . S
C395 C394 1.491 . S
C395 C396 1.392 . S
C395 C400 1.356 . S
C396 C395 1.392 . S
C396 C397 1.368 . S
C396 H424 0.929 . S
C397 C396 1.368 . S
C397 C398 1.386 . S
C397 H425 0.929 . S
C398 C397 1.386 . S
C398 C399 1.373 . S
C399 C398 1.373 . S
C399 C400 1.409 . S
C399 H426 0.931 . S
C400 C395 1.356 . S
C400 C399 1.409 . S
C400 H427 0.930 . S
C401 O414 1.270 . S
C401 O415 1.248 . S
C402 O416 1.267 . S
C402 O417 1.278 . S
C403 Pr393 2.880 . S
C403 C404 1.491 . S
C403 O418 1.254 . S
C403 O419 1.225 . S
C404 C403 1.491 . S
C404 C405 1.392 . S
C404 C409 1.356 . S
C405 C404 1.392 . S
C405 C406 1.368 . S
C405 H428 0.929 . S
C406 C405 1.368 . S
C406 C407 1.386 . S
C406 H429 0.929 . S
C407 C406 1.386 . S
C407 C408 1.373 . S
C408 C407 1.373 . S
C408 C409 1.409 . S
C408 H430 0.931 . S
C409 C404 1.356 . S
C409 C408 1.409 . S
C409 H431 0.930 . S
C410 O420 1.270 . S
C410 O421 1.248 . S
C411 O422 1.267 . S
C411 O423 1.278 . S
O412 Pr392 2.562 . S
O412 C394 1.254 . S
O413 Pr392 2.490 . S
O413 C394 1.225 . S
O414 Pr392 2.695 . S
O414 Pr393 2.436 . S
O414 C401 1.270 . S
O415 Pr392 2.512 . S
O415 C401 1.248 . S
O416 Pr393 2.438 . S
O416 C402 1.267 . S
O417 Pr392 2.437 . S
O417 C402 1.278 . S
O418 Pr393 2.562 . S
O418 C403 1.254 . S
O419 Pr393 2.490 . S
O419 C403 1.225 . S
O420 Pr392 2.436 . S
O420 Pr393 2.695 . S
O420 C410 1.270 . S
O421 Pr393 2.512 . S
O421 C410 1.248 . S
O422 Pr392 2.438 . S
O422 C411 1.267 . S
O423 Pr393 2.437 . S
O423 C411 1.278 . S
H424 C396 0.929 . S
H425 C397 0.929 . S
H426 C399 0.931 . S
H427 C400 0.930 . S
H428 C405 0.929 . S
H429 C406 0.929 . S
H430 C408 0.931 . S
H431 C409 0.930 . S
Pr432 C434 2.880 . S
Pr432 O452 2.562 . S
Pr432 O453 2.490 . S
Pr432 O454 2.695 . S
Pr432 O455 2.512 . S
Pr432 O457 2.437 . S
Pr432 O460 2.436 . S
Pr432 O462 2.438 . S
Pr433 C443 2.880 . S
Pr433 O454 2.436 . S
Pr433 O456 2.438 . S
Pr433 O458 2.562 . S
Pr433 O459 2.490 . S
Pr433 O460 2.695 . S
Pr433 O461 2.512 . S
Pr433 O463 2.437 . S
C434 Pr432 2.880 . S
C434 C435 1.491 . S
C434 O452 1.254 . S
C434 O453 1.225 . S
C435 C434 1.491 . S
C435 C436 1.392 . S
C435 C440 1.356 . S
C436 C435 1.392 . S
C436 C437 1.368 . S
C436 H464 0.929 . S
C437 C436 1.368 . S
C437 C438 1.386 . S
C437 H465 0.929 . S
C438 C437 1.386 . S
C438 C439 1.373 . S
C439 C438 1.373 . S
C439 C440 1.409 . S
C439 H466 0.931 . S
C440 C435 1.356 . S
C440 C439 1.409 . S
C440 H467 0.930 . S
C441 O454 1.270 . S
C441 O455 1.248 . S
C442 O456 1.267 . S
C442 O457 1.278 . S
C443 Pr433 2.880 . S
C443 C444 1.491 . S
C443 O458 1.254 . S
C443 O459 1.225 . S
C444 C443 1.491 . S
C444 C445 1.392 . S
C444 C449 1.356 . S
C445 C444 1.392 . S
C445 C446 1.368 . S
C445 H468 0.929 . S
C446 C445 1.368 . S
C446 C447 1.386 . S
C446 H469 0.929 . S
C447 C446 1.386 . S
C447 C448 1.373 . S
C448 C447 1.373 . S
C448 C449 1.409 . S
C448 H470 0.931 . S
C449 C444 1.356 . S
C449 C448 1.409 . S
C449 H471 0.930 . S
C450 O460 1.270 . S
C450 O461 1.248 . S
C451 O462 1.267 . S
C451 O463 1.278 . S
O452 Pr432 2.562 . S
O452 C434 1.254 . S
O453 Pr432 2.490 . S
O453 C434 1.225 . S
O454 Pr432 2.695 . S
O454 Pr433 2.436 . S
O454 C441 1.270 . S
O455 Pr432 2.512 . S
O455 C441 1.248 . S
O456 Pr433 2.438 . S
O456 C442 1.267 . S
O457 Pr432 2.437 . S
O457 C442 1.278 . S
O458 Pr433 2.562 . S
O458 C443 1.254 . S
O459 Pr433 2.490 . S
O459 C443 1.225 . S
O460 Pr432 2.436 . S
O460 Pr433 2.695 . S
O460 C450 1.270 . S
O461 Pr433 2.512 . S
O461 C450 1.248 . S
O462 Pr432 2.438 . S
O462 C451 1.267 . S
O463 Pr433 2.437 . S
O463 C451 1.278 . S
H464 C436 0.929 . S
H465 C437 0.929 . S
H466 C439 0.931 . S
H467 C440 0.930 . S
H468 C445 0.929 . S
H469 C446 0.929 . S
H470 C448 0.931 . S
H471 C449 0.930 . S
Pr472 C474 2.880 . S
Pr472 O492 2.562 . S
Pr472 O493 2.490 . S
Pr472 O494 2.695 . S
Pr472 O495 2.512 . S
Pr472 O497 2.437 . S
Pr472 O500 2.436 . S
Pr472 O502 2.438 . S
Pr473 C483 2.880 . S
Pr473 O494 2.436 . S
Pr473 O496 2.438 . S
Pr473 O498 2.562 . S
Pr473 O499 2.490 . S
Pr473 O500 2.695 . S
Pr473 O501 2.512 . S
Pr473 O503 2.437 . S
C474 Pr472 2.880 . S
C474 C475 1.491 . S
C474 O492 1.254 . S
C474 O493 1.225 . S
C475 C474 1.491 . S
C475 C476 1.392 . S
C475 C480 1.356 1_455 S
C476 C475 1.392 . S
C476 C477 1.368 . S
C476 H504 0.929 . S
C477 C476 1.368 . S
C477 C478 1.386 1_455 S
C477 H505 0.929 . S
C478 C477 1.386 1_655 S
C478 C479 1.373 . S
C479 C478 1.373 . S
C479 C480 1.409 . S
C479 H506 0.931 . S
C480 C475 1.356 1_655 S
C480 C479 1.409 . S
C480 H507 0.930 . S
C481 O494 1.270 . S
C481 O495 1.248 . S
C482 O496 1.267 . S
C482 O497 1.278 . S
C483 Pr473 2.880 . S
C483 C484 1.491 . S
C483 O498 1.254 . S
C483 O499 1.225 . S
C484 C483 1.491 . S
C484 C485 1.392 . S
C484 C489 1.356 . S
C485 C484 1.392 . S
C485 C486 1.368 . S
C485 H508 0.929 . S
C486 C485 1.368 . S
C486 C487 1.386 . S
C486 H509 0.929 . S
C487 C486 1.386 . S
C487 C488 1.373 . S
C488 C487 1.373 . S
C488 C489 1.409 . S
C488 H510 0.931 . S
C489 C484 1.356 . S
C489 C488 1.409 . S
C489 H511 0.930 . S
C490 O500 1.270 . S
C490 O501 1.248 . S
C491 O502 1.267 . S
C491 O503 1.278 . S
O492 Pr472 2.562 . S
O492 C474 1.254 . S
O493 Pr472 2.490 . S
O493 C474 1.225 . S
O494 Pr472 2.695 . S
O494 Pr473 2.436 . S
O494 C481 1.270 . S
O495 Pr472 2.512 . S
O495 C481 1.248 . S
O496 Pr473 2.438 . S
O496 C482 1.267 . S
O497 Pr472 2.437 . S
O497 C482 1.278 . S
O498 Pr473 2.562 . S
O498 C483 1.254 . S
O499 Pr473 2.490 . S
O499 C483 1.225 . S
O500 Pr472 2.436 . S
O500 Pr473 2.695 . S
O500 C490 1.270 . S
O501 Pr473 2.512 . S
O501 C490 1.248 . S
O502 Pr472 2.438 . S
O502 C491 1.267 . S
O503 Pr473 2.437 . S
O503 C491 1.278 . S
H504 C476 0.929 . S
H505 C477 0.929 . S
H506 C479 0.931 . S
H507 C480 0.930 . S
H508 C485 0.929 . S
H509 C486 0.929 . S
H510 C488 0.931 . S
H511 C489 0.930 . S
Pr512 C514 2.880 . S
Pr512 O532 2.562 . S
Pr512 O533 2.490 . S
Pr512 O534 2.695 . S
Pr512 O535 2.512 . S
Pr512 O537 2.437 . S
Pr512 O540 2.436 . S
Pr512 O542 2.438 . S
Pr513 C523 2.880 . S
Pr513 O534 2.436 . S
Pr513 O536 2.438 . S
Pr513 O538 2.562 . S
Pr513 O539 2.490 . S
Pr513 O540 2.695 . S
Pr513 O541 2.512 . S
Pr513 O543 2.437 . S
C514 Pr512 2.880 . S
C514 C515 1.491 . S
C514 O532 1.254 . S
C514 O533 1.225 . S
C515 C514 1.491 . S
C515 C516 1.392 . S
C515 C520 1.356 . S
C516 C515 1.392 . S
C516 C517 1.368 . S
C516 H544 0.929 . S
C517 C516 1.368 . S
C517 C518 1.386 . S
C517 H545 0.929 . S
C518 C517 1.386 . S
C518 C519 1.373 . S
C519 C518 1.373 . S
C519 C520 1.409 . S
C519 H546 0.931 . S
C520 C515 1.356 . S
C520 C519 1.409 . S
C520 H547 0.930 . S
C521 O534 1.270 . S
C521 O535 1.248 . S
C522 O536 1.267 . S
C522 O537 1.278 . S
C523 Pr513 2.880 . S
C523 C524 1.491 . S
C523 O538 1.254 . S
C523 O539 1.225 . S
C524 C523 1.491 . S
C524 C525 1.392 . S
C524 C529 1.356 . S
C525 C524 1.392 . S
C525 C526 1.368 . S
C525 H548 0.929 . S
C526 C525 1.368 . S
C526 C527 1.386 . S
C526 H549 0.929 . S
C527 C526 1.386 . S
C527 C528 1.373 . S
C528 C527 1.373 . S
C528 C529 1.409 . S
C528 H550 0.931 . S
C529 C524 1.356 . S
C529 C528 1.409 . S
C529 H551 0.930 . S
C530 O540 1.270 . S
C530 O541 1.248 . S
C531 O542 1.267 . S
C531 O543 1.278 . S
O532 Pr512 2.562 . S
O532 C514 1.254 . S
O533 Pr512 2.490 . S
O533 C514 1.225 . S
O534 Pr512 2.695 . S
O534 Pr513 2.436 . S
O534 C521 1.270 . S
O535 Pr512 2.512 . S
O535 C521 1.248 . S
O536 Pr513 2.438 . S
O536 C522 1.267 . S
O537 Pr512 2.437 . S
O537 C522 1.278 . S
O538 Pr513 2.562 . S
O538 C523 1.254 . S
O539 Pr513 2.490 . S
O539 C523 1.225 . S
O540 Pr512 2.436 . S
O540 Pr513 2.695 . S
O540 C530 1.270 . S
O541 Pr513 2.512 . S
O541 C530 1.248 . S
O542 Pr512 2.438 . S
O542 C531 1.267 . S
O543 Pr513 2.437 . S
O543 C531 1.278 . S
H544 C516 0.929 . S
H545 C517 0.929 . S
H546 C519 0.931 . S
H547 C520 0.930 . S
H548 C525 0.929 . S
H549 C526 0.929 . S
H550 C528 0.931 . S
H551 C529 0.930 . S
Pr552 C554 2.880 . S
Pr552 O572 2.562 . S
Pr552 O573 2.490 . S
Pr552 O574 2.695 . S
Pr552 O575 2.512 . S
Pr552 O577 2.437 . S
Pr552 O580 2.436 . S
Pr552 O582 2.438 . S
Pr553 C563 2.880 1_554 S
Pr553 O574 2.436 . S
Pr553 O576 2.438 . S
Pr553 O578 2.562 1_554 S
Pr553 O579 2.490 1_554 S
Pr553 O580 2.695 . S
Pr553 O581 2.512 . S
Pr553 O583 2.437 . S
C554 Pr552 2.880 . S
C554 C555 1.491 . S
C554 O572 1.254 . S
C554 O573 1.225 . S
C555 C554 1.491 . S
C555 C556 1.392 . S
C555 C560 1.356 . S
C556 C555 1.392 . S
C556 C557 1.368 . S
C556 H584 0.929 . S
C557 C556 1.368 . S
C557 C558 1.386 . S
C557 H585 0.929 . S
C558 C557 1.386 . S
C558 C559 1.373 . S
C559 C558 1.373 . S
C559 C560 1.409 . S
C559 H586 0.931 . S
C560 C555 1.356 . S
C560 C559 1.409 . S
C560 H587 0.930 . S
C561 O574 1.270 . S
C561 O575 1.248 . S
C562 O576 1.267 . S
C562 O577 1.278 . S
C563 Pr553 2.880 1_556 S
C563 C564 1.491 . S
C563 O578 1.254 . S
C563 O579 1.225 . S
C564 C563 1.491 . S
C564 C565 1.392 . S
C564 C569 1.356 . S
C565 C564 1.392 . S
C565 C566 1.368 . S
C565 H588 0.929 . S
C566 C565 1.368 . S
C566 C567 1.386 . S
C566 H589 0.929 . S
C567 C566 1.386 . S
C567 C568 1.373 . S
C568 C567 1.373 . S
C568 C569 1.409 . S
C568 H590 0.931 . S
C569 C564 1.356 . S
C569 C568 1.409 . S
C569 H591 0.930 . S
C570 O580 1.270 . S
C570 O581 1.248 . S
C571 O582 1.267 . S
C571 O583 1.278 . S
O572 Pr552 2.562 . S
O572 C554 1.254 . S
O573 Pr552 2.490 . S
O573 C554 1.225 . S
O574 Pr552 2.695 . S
O574 Pr553 2.436 . S
O574 C561 1.270 . S
O575 Pr552 2.512 . S
O575 C561 1.248 . S
O576 Pr553 2.438 . S
O576 C562 1.267 . S
O577 Pr552 2.437 . S
O577 C562 1.278 . S
O578 Pr553 2.562 1_556 S
O578 C563 1.254 . S
O579 Pr553 2.490 1_556 S
O579 C563 1.225 . S
O580 Pr552 2.436 . S
O580 Pr553 2.695 . S
O580 C570 1.270 . S
O581 Pr553 2.512 . S
O581 C570 1.248 . S
O582 Pr552 2.438 . S
O582 C571 1.267 . S
O583 Pr553 2.437 . S
O583 C571 1.278 . S
H584 C556 0.929 . S
H585 C557 0.929 . S
H586 C559 0.931 . S
H587 C560 0.930 . S
H588 C565 0.929 . S
H589 C566 0.929 . S
H590 C568 0.931 . S
H591 C569 0.930 . S
Pr592 C594 2.880 . S
Pr592 O612 2.562 . S
Pr592 O613 2.490 . S
Pr592 O614 2.695 . S
Pr592 O615 2.512 . S
Pr592 O617 2.437 . S
Pr592 O620 2.436 . S
Pr592 O622 2.438 . S
Pr593 C603 2.880 . S
Pr593 O614 2.436 . S
Pr593 O616 2.438 . S
Pr593 O618 2.562 . S
Pr593 O619 2.490 . S
Pr593 O620 2.695 . S
Pr593 O621 2.512 . S
Pr593 O623 2.437 . S
C594 Pr592 2.880 . S
C594 C595 1.491 . S
C594 O612 1.254 . S
C594 O613 1.225 . S
C595 C594 1.491 . S
C595 C596 1.392 . S
C595 C600 1.356 . S
C596 C595 1.392 . S
C596 C597 1.368 . S
C596 H624 0.929 . S
C597 C596 1.368 . S
C597 C598 1.386 . S
C597 H625 0.929 . S
C598 C597 1.386 . S
C598 C599 1.373 . S
C599 C598 1.373 . S
C599 C600 1.409 . S
C599 H626 0.931 . S
C600 C595 1.356 . S
C600 C599 1.409 . S
C600 H627 0.930 . S
C601 O614 1.270 . S
C601 O615 1.248 . S
C602 O616 1.267 . S
C602 O617 1.278 . S
C603 Pr593 2.880 . S
C603 C604 1.491 . S
C603 O618 1.254 . S
C603 O619 1.225 . S
C604 C603 1.491 . S
C604 C605 1.392 . S
C604 C609 1.356 . S
C605 C604 1.392 . S
C605 C606 1.368 . S
C605 H628 0.929 . S
C606 C605 1.368 . S
C606 C607 1.386 . S
C606 H629 0.929 . S
C607 C606 1.386 . S
C607 C608 1.373 . S
C608 C607 1.373 . S
C608 C609 1.409 . S
C608 H630 0.931 . S
C609 C604 1.356 . S
C609 C608 1.409 . S
C609 H631 0.930 . S
C610 O620 1.270 . S
C610 O621 1.248 . S
C611 O622 1.267 . S
C611 O623 1.278 . S
O612 Pr592 2.562 . S
O612 C594 1.254 . S
O613 Pr592 2.490 . S
O613 C594 1.225 . S
O614 Pr592 2.695 . S
O614 Pr593 2.436 . S
O614 C601 1.270 . S
O615 Pr592 2.512 . S
O615 C601 1.248 . S
O616 Pr593 2.438 . S
O616 C602 1.267 . S
O617 Pr592 2.437 . S
O617 C602 1.278 . S
O618 Pr593 2.562 . S
O618 C603 1.254 . S
O619 Pr593 2.490 . S
O619 C603 1.225 . S
O620 Pr592 2.436 . S
O620 Pr593 2.695 . S
O620 C610 1.270 . S
O621 Pr593 2.512 . S
O621 C610 1.248 . S
O622 Pr592 2.438 . S
O622 C611 1.267 . S
O623 Pr593 2.437 . S
O623 C611 1.278 . S
H624 C596 0.929 . S
H625 C597 0.929 . S
H626 C599 0.931 . S
H627 C600 0.930 . S
H628 C605 0.929 . S
H629 C606 0.929 . S
H630 C608 0.931 . S
H631 C609 0.930 . S
Pr632 C634 2.880 1_554 S
Pr632 O652 2.562 1_554 S
Pr632 O653 2.490 1_554 S
Pr632 O654 2.695 . S
Pr632 O655 2.512 . S
Pr632 O657 2.437 . S
Pr632 O660 2.436 . S
Pr632 O662 2.438 . S
Pr633 C643 2.880 . S
Pr633 O654 2.436 . S
Pr633 O656 2.438 . S
Pr633 O658 2.562 . S
Pr633 O659 2.490 . S
Pr633 O660 2.695 . S
Pr633 O661 2.512 . S
Pr633 O663 2.437 . S
C634 Pr632 2.880 1_556 S
C634 C635 1.491 . S
C634 O652 1.254 . S
C634 O653 1.225 . S
C635 C634 1.491 . S
C635 C636 1.392 . S
C635 C640 1.356 . S
C636 C635 1.392 . S
C636 C637 1.368 . S
C636 H664 0.929 . S
C637 C636 1.368 . S
C637 C638 1.386 . S
C637 H665 0.929 . S
C638 C637 1.386 . S
C638 C639 1.373 . S
C639 C638 1.373 . S
C639 C640 1.409 . S
C639 H666 0.931 . S
C640 C635 1.356 . S
C640 C639 1.409 . S
C640 H667 0.930 . S
C641 O654 1.270 . S
C641 O655 1.248 . S
C642 O656 1.267 . S
C642 O657 1.278 . S
C643 Pr633 2.880 . S
C643 C644 1.491 . S
C643 O658 1.254 . S
C643 O659 1.225 . S
C644 C643 1.491 . S
C644 C645 1.392 . S
C644 C649 1.356 . S
C645 C644 1.392 . S
C645 C646 1.368 . S
C645 H668 0.929 . S
C646 C645 1.368 . S
C646 C647 1.386 . S
C646 H669 0.929 . S
C647 C646 1.386 . S
C647 C648 1.373 . S
C648 C647 1.373 . S
C648 C649 1.409 . S
C648 H670 0.931 . S
C649 C644 1.356 . S
C649 C648 1.409 . S
C649 H671 0.930 . S
C650 O660 1.270 . S
C650 O661 1.248 . S
C651 O662 1.267 . S
C651 O663 1.278 . S
O652 Pr632 2.562 1_556 S
O652 C634 1.254 . S
O653 Pr632 2.490 1_556 S
O653 C634 1.225 . S
O654 Pr632 2.695 . S
O654 Pr633 2.436 . S
O654 C641 1.270 . S
O655 Pr632 2.512 . S
O655 C641 1.248 . S
O656 Pr633 2.438 . S
O656 C642 1.267 . S
O657 Pr632 2.437 . S
O657 C642 1.278 . S
O658 Pr633 2.562 . S
O658 C643 1.254 . S
O659 Pr633 2.490 . S
O659 C643 1.225 . S
O660 Pr632 2.436 . S
O660 Pr633 2.695 . S
O660 C650 1.270 . S
O661 Pr633 2.512 . S
O661 C650 1.248 . S
O662 Pr632 2.438 . S
O662 C651 1.267 . S
O663 Pr633 2.437 . S
O663 C651 1.278 . S
H664 C636 0.929 . S
H665 C637 0.929 . S
H666 C639 0.931 . S
H667 C640 0.930 . S
H668 C645 0.929 . S
H669 C646 0.929 . S
H670 C648 0.931 . S
H671 C649 0.930 . S
Pr672 C674 2.880 . S
Pr672 O692 2.562 . S
Pr672 O693 2.490 . S
Pr672 O694 2.695 . S
Pr672 O695 2.512 . S
Pr672 O697 2.437 . S
Pr672 O700 2.436 . S
Pr672 O702 2.438 . S
Pr673 C683 2.880 . S
Pr673 O694 2.436 . S
Pr673 O696 2.438 . S
Pr673 O698 2.562 . S
Pr673 O699 2.490 . S
Pr673 O700 2.695 . S
Pr673 O701 2.512 . S
Pr673 O703 2.437 . S
C674 Pr672 2.880 . S
C674 C675 1.491 . S
C674 O692 1.254 . S
C674 O693 1.225 . S
C675 C674 1.491 . S
C675 C676 1.392 . S
C675 C680 1.356 . S
C676 C675 1.392 . S
C676 C677 1.368 . S
C676 H704 0.929 . S
C677 C676 1.368 . S
C677 C678 1.386 . S
C677 H705 0.929 . S
C678 C677 1.386 . S
C678 C679 1.373 . S
C679 C678 1.373 . S
C679 C680 1.409 . S
C679 H706 0.931 . S
C680 C675 1.356 . S
C680 C679 1.409 . S
C680 H707 0.930 . S
C681 O694 1.270 . S
C681 O695 1.248 . S
C682 O696 1.267 . S
C682 O697 1.278 . S
C683 Pr673 2.880 . S
C683 C684 1.491 . S
C683 O698 1.254 . S
C683 O699 1.225 . S
C684 C683 1.491 . S
C684 C685 1.392 . S
C684 C689 1.356 . S
C685 C684 1.392 . S
C685 C686 1.368 . S
C685 H708 0.929 . S
C686 C685 1.368 . S
C686 C687 1.386 . S
C686 H709 0.929 . S
C687 C686 1.386 . S
C687 C688 1.373 . S
C688 C687 1.373 . S
C688 C689 1.409 . S
C688 H710 0.931 . S
C689 C684 1.356 . S
C689 C688 1.409 . S
C689 H711 0.930 . S
C690 O700 1.270 . S
C690 O701 1.248 . S
C691 O702 1.267 . S
C691 O703 1.278 . S
O692 Pr672 2.562 . S
O692 C674 1.254 . S
O693 Pr672 2.490 . S
O693 C674 1.225 . S
O694 Pr672 2.695 . S
O694 Pr673 2.436 . S
O694 C681 1.270 . S
O695 Pr672 2.512 . S
O695 C681 1.248 . S
O696 Pr673 2.438 . S
O696 C682 1.267 . S
O697 Pr672 2.437 . S
O697 C682 1.278 . S
O698 Pr673 2.562 . S
O698 C683 1.254 . S
O699 Pr673 2.490 . S
O699 C683 1.225 . S
O700 Pr672 2.436 . S
O700 Pr673 2.695 . S
O700 C690 1.270 . S
O701 Pr673 2.512 . S
O701 C690 1.248 . S
O702 Pr672 2.438 . S
O702 C691 1.267 . S
O703 Pr673 2.437 . S
O703 C691 1.278 . S
H704 C676 0.929 . S
H705 C677 0.929 . S
H706 C679 0.931 . S
H707 C680 0.930 . S
H708 C685 0.929 . S
H709 C686 0.929 . S
H710 C688 0.931 . S
H711 C689 0.930 . S
Pr712 C714 2.880 . S
Pr712 O732 2.562 . S
Pr712 O733 2.490 . S
Pr712 O734 2.695 . S
Pr712 O735 2.512 . S
Pr712 O737 2.437 . S
Pr712 O740 2.436 . S
Pr712 O742 2.438 . S
Pr713 C723 2.880 . S
Pr713 O734 2.436 . S
Pr713 O736 2.438 . S
Pr713 O738 2.562 . S
Pr713 O739 2.490 . S
Pr713 O740 2.695 . S
Pr713 O741 2.512 . S
Pr713 O743 2.437 . S
C714 Pr712 2.880 . S
C714 C715 1.491 . S
C714 O732 1.254 . S
C714 O733 1.225 . S
C715 C714 1.491 . S
C715 C716 1.392 . S
C715 C720 1.356 . S
C716 C715 1.392 . S
C716 C717 1.368 . S
C716 H744 0.929 . S
C717 C716 1.368 . S
C717 C718 1.386 . S
C717 H745 0.929 . S
C718 C717 1.386 . S
C718 C719 1.373 . S
C719 C718 1.373 . S
C719 C720 1.409 . S
C719 H746 0.931 1_455 S
C720 C715 1.356 . S
C720 C719 1.409 . S
C720 H747 0.930 . S
C721 O734 1.270 . S
C721 O735 1.248 . S
C722 O736 1.267 . S
C722 O737 1.278 . S
C723 Pr713 2.880 . S
C723 C724 1.491 . S
C723 O738 1.254 . S
C723 O739 1.225 . S
C724 C723 1.491 . S
C724 C725 1.392 . S
C724 C729 1.356 . S
C725 C724 1.392 . S
C725 C726 1.368 . S
C725 H748 0.929 . S
C726 C725 1.368 . S
C726 C727 1.386 . S
C726 H749 0.929 . S
C727 C726 1.386 . S
C727 C728 1.373 . S
C728 C727 1.373 . S
C728 C729 1.409 . S
C728 H750 0.931 . S
C729 C724 1.356 . S
C729 C728 1.409 . S
C729 H751 0.930 . S
C730 O740 1.270 . S
C730 O741 1.248 . S
C731 O742 1.267 . S
C731 O743 1.278 . S
O732 Pr712 2.562 . S
O732 C714 1.254 . S
O733 Pr712 2.490 . S
O733 C714 1.225 . S
O734 Pr712 2.695 . S
O734 Pr713 2.436 . S
O734 C721 1.270 . S
O735 Pr712 2.512 . S
O735 C721 1.248 . S
O736 Pr713 2.438 . S
O736 C722 1.267 . S
O737 Pr712 2.437 . S
O737 C722 1.278 . S
O738 Pr713 2.562 . S
O738 C723 1.254 . S
O739 Pr713 2.490 . S
O739 C723 1.225 . S
O740 Pr712 2.436 . S
O740 Pr713 2.695 . S
O740 C730 1.270 . S
O741 Pr713 2.512 . S
O741 C730 1.248 . S
O742 Pr712 2.438 . S
O742 C731 1.267 . S
O743 Pr713 2.437 . S
O743 C731 1.278 . S
H744 C716 0.929 . S
H745 C717 0.929 . S
H746 C719 0.931 1_655 S
H747 C720 0.930 . S
H748 C725 0.929 . S
H749 C726 0.929 . S
H750 C728 0.931 . S
H751 C729 0.930 . S
Pr752 C754 2.880 . S
Pr752 O772 2.562 . S
Pr752 O773 2.490 . S
Pr752 O774 2.695 . S
Pr752 O775 2.512 . S
Pr752 O777 2.437 . S
Pr752 O780 2.436 . S
Pr752 O782 2.438 . S
Pr753 C763 2.880 . S
Pr753 O774 2.436 . S
Pr753 O776 2.438 . S
Pr753 O778 2.562 . S
Pr753 O779 2.490 . S
Pr753 O780 2.695 . S
Pr753 O781 2.512 . S
Pr753 O783 2.437 . S
C754 Pr752 2.880 . S
C754 C755 1.491 . S
C754 O772 1.254 . S
C754 O773 1.225 . S
C755 C754 1.491 . S
C755 C756 1.392 . S
C755 C760 1.356 . S
C756 C755 1.392 . S
C756 C757 1.368 . S
C756 H784 0.929 . S
C757 C756 1.368 . S
C757 C758 1.386 . S
C757 H785 0.929 . S
C758 C757 1.386 . S
C758 C759 1.373 . S
C759 C758 1.373 . S
C759 C760 1.409 . S
C759 H786 0.931 . S
C760 C755 1.356 . S
C760 C759 1.409 . S
C760 H787 0.930 . S
C761 O774 1.270 . S
C761 O775 1.248 . S
C762 O776 1.267 . S
C762 O777 1.278 . S
C763 Pr753 2.880 . S
C763 C764 1.491 . S
C763 O778 1.254 . S
C763 O779 1.225 . S
C764 C763 1.491 . S
C764 C765 1.392 . S
C764 C769 1.356 . S
C765 C764 1.392 . S
C765 C766 1.368 . S
C765 H788 0.929 . S
C766 C765 1.368 . S
C766 C767 1.386 . S
C766 H789 0.929 . S
C767 C766 1.386 . S
C767 C768 1.373 . S
C768 C767 1.373 . S
C768 C769 1.409 . S
C768 H790 0.931 . S
C769 C764 1.356 . S
C769 C768 1.409 . S
C769 H791 0.930 . S
C770 O780 1.270 . S
C770 O781 1.248 . S
C771 O782 1.267 . S
C771 O783 1.278 . S
O772 Pr752 2.562 . S
O772 C754 1.254 . S
O773 Pr752 2.490 . S
O773 C754 1.225 . S
O774 Pr752 2.695 . S
O774 Pr753 2.436 . S
O774 C761 1.270 . S
O775 Pr752 2.512 . S
O775 C761 1.248 . S
O776 Pr753 2.438 . S
O776 C762 1.267 . S
O777 Pr752 2.437 . S
O777 C762 1.278 . S
O778 Pr753 2.562 . S
O778 C763 1.254 . S
O779 Pr753 2.490 . S
O779 C763 1.225 . S
O780 Pr752 2.436 . S
O780 Pr753 2.695 . S
O780 C770 1.270 . S
O781 Pr753 2.512 . S
O781 C770 1.248 . S
O782 Pr752 2.438 . S
O782 C771 1.267 . S
O783 Pr753 2.437 . S
O783 C771 1.278 . S
H784 C756 0.929 . S
H785 C757 0.929 . S
H786 C759 0.931 . S
H787 C760 0.930 . S
H788 C765 0.929 . S
H789 C766 0.929 . S
H790 C768 0.931 . S
H791 C769 0.930 . S
Pr792 C794 2.880 . S
Pr792 O812 2.562 . S
Pr792 O813 2.490 . S
Pr792 O814 2.695 . S
Pr792 O815 2.512 . S
Pr792 O817 2.437 . S
Pr792 O820 2.436 . S
Pr792 O822 2.438 . S
Pr793 C803 2.880 . S
Pr793 O814 2.436 . S
Pr793 O816 2.438 . S
Pr793 O818 2.562 . S
Pr793 O819 2.490 . S
Pr793 O820 2.695 . S
Pr793 O821 2.512 . S
Pr793 O823 2.437 . S
C794 Pr792 2.880 . S
C794 C795 1.491 . S
C794 O812 1.254 . S
C794 O813 1.225 . S
C795 C794 1.491 . S
C795 C796 1.392 . S
C795 C800 1.356 . S
C796 C795 1.392 . S
C796 C797 1.368 . S
C796 H824 0.929 . S
C797 C796 1.368 . S
C797 C798 1.386 . S
C797 H825 0.929 . S
C798 C797 1.386 . S
C798 C799 1.373 . S
C799 C798 1.373 . S
C799 C800 1.409 . S
C799 H826 0.931 . S
C800 C795 1.356 . S
C800 C799 1.409 . S
C800 H827 0.930 . S
C801 O814 1.270 . S
C801 O815 1.248 . S
C802 O816 1.267 . S
C802 O817 1.278 . S
C803 Pr793 2.880 . S
C803 C804 1.491 . S
C803 O818 1.254 . S
C803 O819 1.225 . S
C804 C803 1.491 . S
C804 C805 1.392 . S
C804 C809 1.356 . S
C805 C804 1.392 . S
C805 C806 1.368 . S
C805 H828 0.929 . S
C806 C805 1.368 . S
C806 C807 1.386 . S
C806 H829 0.929 . S
C807 C806 1.386 . S
C807 C808 1.373 . S
C808 C807 1.373 . S
C808 C809 1.409 . S
C808 H830 0.931 . S
C809 C804 1.356 . S
C809 C808 1.409 . S
C809 H831 0.930 . S
C810 O820 1.270 . S
C810 O821 1.248 . S
C811 O822 1.267 . S
C811 O823 1.278 . S
O812 Pr792 2.562 . S
O812 C794 1.254 . S
O813 Pr792 2.490 . S
O813 C794 1.225 . S
O814 Pr792 2.695 . S
O814 Pr793 2.436 . S
O814 C801 1.270 . S
O815 Pr792 2.512 . S
O815 C801 1.248 . S
O816 Pr793 2.438 . S
O816 C802 1.267 . S
O817 Pr792 2.437 . S
O817 C802 1.278 . S
O818 Pr793 2.562 . S
O818 C803 1.254 . S
O819 Pr793 2.490 . S
O819 C803 1.225 . S
O820 Pr792 2.436 . S
O820 Pr793 2.695 . S
O820 C810 1.270 . S
O821 Pr793 2.512 . S
O821 C810 1.248 . S
O822 Pr792 2.438 . S
O822 C811 1.267 . S
O823 Pr793 2.437 . S
O823 C811 1.278 . S
H824 C796 0.929 . S
H825 C797 0.929 . S
H826 C799 0.931 . S
H827 C800 0.930 . S
H828 C805 0.929 . S
H829 C806 0.929 . S
H830 C808 0.931 . S
H831 C809 0.930 . S
Pr832 C834 2.880 . S
Pr832 O852 2.562 . S
Pr832 O853 2.490 . S
Pr832 O854 2.695 . S
Pr832 O855 2.512 . S
Pr832 O857 2.437 . S
Pr832 O860 2.436 . S
Pr832 O862 2.438 . S
Pr833 C843 2.880 . S
Pr833 O854 2.436 . S
Pr833 O856 2.438 . S
Pr833 O858 2.562 . S
Pr833 O859 2.490 . S
Pr833 O860 2.695 . S
Pr833 O861 2.512 . S
Pr833 O863 2.437 . S
C834 Pr832 2.880 . S
C834 C835 1.491 . S
C834 O852 1.254 . S
C834 O853 1.225 . S
C835 C834 1.491 . S
C835 C836 1.392 . S
C835 C840 1.356 . S
C836 C835 1.392 . S
C836 C837 1.368 . S
C836 H864 0.929 . S
C837 C836 1.368 . S
C837 C838 1.386 . S
C837 H865 0.929 . S
C838 C837 1.386 . S
C838 C839 1.373 . S
C839 C838 1.373 . S
C839 C840 1.409 . S
C839 H866 0.931 . S
C840 C835 1.356 . S
C840 C839 1.409 . S
C840 H867 0.930 . S
C841 O854 1.270 . S
C841 O855 1.248 . S
C842 O856 1.267 . S
C842 O857 1.278 . S
C843 Pr833 2.880 . S
C843 C844 1.491 . S
C843 O858 1.254 . S
C843 O859 1.225 . S
C844 C843 1.491 . S
C844 C845 1.392 . S
C844 C849 1.356 . S
C845 C844 1.392 . S
C845 C846 1.368 . S
C845 H868 0.929 . S
C846 C845 1.368 . S
C846 C847 1.386 . S
C846 H869 0.929 . S
C847 C846 1.386 . S
C847 C848 1.373 . S
C848 C847 1.373 . S
C848 C849 1.409 . S
C848 H870 0.931 . S
C849 C844 1.356 . S
C849 C848 1.409 . S
C849 H871 0.930 . S
C850 O860 1.270 . S
C850 O861 1.248 . S
C851 O862 1.267 . S
C851 O863 1.278 . S
O852 Pr832 2.562 . S
O852 C834 1.254 . S
O853 Pr832 2.490 . S
O853 C834 1.225 . S
O854 Pr832 2.695 . S
O854 Pr833 2.436 . S
O854 C841 1.270 . S
O855 Pr832 2.512 . S
O855 C841 1.248 . S
O856 Pr833 2.438 . S
O856 C842 1.267 . S
O857 Pr832 2.437 . S
O857 C842 1.278 . S
O858 Pr833 2.562 . S
O858 C843 1.254 . S
O859 Pr833 2.490 . S
O859 C843 1.225 . S
O860 Pr832 2.436 . S
O860 Pr833 2.695 . S
O860 C850 1.270 . S
O861 Pr833 2.512 . S
O861 C850 1.248 . S
O862 Pr832 2.438 . S
O862 C851 1.267 . S
O863 Pr833 2.437 . S
O863 C851 1.278 . S
H864 C836 0.929 . S
H865 C837 0.929 . S
H866 C839 0.931 . S
H867 C840 0.930 . S
H868 C845 0.929 . S
H869 C846 0.929 . S
H870 C848 0.931 . S
H871 C849 0.930 . S
Pr872 C874 2.880 . S
Pr872 O892 2.562 . S
Pr872 O893 2.490 . S
Pr872 O894 2.695 . S
Pr872 O895 2.512 . S
Pr872 O897 2.437 . S
Pr872 O900 2.436 . S
Pr872 O902 2.438 . S
Pr873 C883 2.880 . S
Pr873 O894 2.436 . S
Pr873 O896 2.438 . S
Pr873 O898 2.562 . S
Pr873 O899 2.490 . S
Pr873 O900 2.695 . S
Pr873 O901 2.512 . S
Pr873 O903 2.437 . S
C874 Pr872 2.880 . S
C874 C875 1.491 . S
C874 O892 1.254 . S
C874 O893 1.225 . S
C875 C874 1.491 . S
C875 C876 1.392 . S
C875 C880 1.356 . S
C876 C875 1.392 . S
C876 C877 1.368 . S
C876 H904 0.929 . S
C877 C876 1.368 . S
C877 C878 1.386 . S
C877 H905 0.929 . S
C878 C877 1.386 . S
C878 C879 1.373 . S
C879 C878 1.373 . S
C879 C880 1.409 . S
C879 H906 0.931 . S
C880 C875 1.356 . S
C880 C879 1.409 . S
C880 H907 0.930 . S
C881 O894 1.270 . S
C881 O895 1.248 . S
C882 O896 1.267 . S
C882 O897 1.278 . S
C883 Pr873 2.880 . S
C883 C884 1.491 . S
C883 O898 1.254 . S
C883 O899 1.225 . S
C884 C883 1.491 . S
C884 C885 1.392 . S
C884 C889 1.356 . S
C885 C884 1.392 . S
C885 C886 1.368 . S
C885 H908 0.929 . S
C886 C885 1.368 . S
C886 C887 1.386 . S
C886 H909 0.929 . S
C887 C886 1.386 . S
C887 C888 1.373 . S
C888 C887 1.373 . S
C888 C889 1.409 . S
C888 H910 0.931 . S
C889 C884 1.356 . S
C889 C888 1.409 . S
C889 H911 0.930 . S
C890 O900 1.270 . S
C890 O901 1.248 . S
C891 O902 1.267 . S
C891 O903 1.278 . S
O892 Pr872 2.562 . S
O892 C874 1.254 . S
O893 Pr872 2.490 . S
O893 C874 1.225 . S
O894 Pr872 2.695 . S
O894 Pr873 2.436 . S
O894 C881 1.270 . S
O895 Pr872 2.512 . S
O895 C881 1.248 . S
O896 Pr873 2.438 . S
O896 C882 1.267 . S
O897 Pr872 2.437 . S
O897 C882 1.278 . S
O898 Pr873 2.562 . S
O898 C883 1.254 . S
O899 Pr873 2.490 . S
O899 C883 1.225 . S
O900 Pr872 2.436 . S
O900 Pr873 2.695 . S
O900 C890 1.270 . S
O901 Pr873 2.512 . S
O901 C890 1.248 . S
O902 Pr872 2.438 . S
O902 C891 1.267 . S
O903 Pr873 2.437 . S
O903 C891 1.278 . S
H904 C876 0.929 . S
H905 C877 0.929 . S
H906 C879 0.931 . S
H907 C880 0.930 . S
H908 C885 0.929 . S
H909 C886 0.929 . S
H910 C888 0.931 . S
H911 C889 0.930 . S
Pr912 C914 2.880 . S
Pr912 O932 2.562 . S
Pr912 O933 2.481 1_554 S
Pr912 O934 2.695 . S
Pr912 O935 2.512 1_554 S
Pr912 O937 2.437 . S
Pr912 O940 2.436 . S
Pr912 O942 2.438 . S
Pr913 C923 2.880 1_455 S
Pr913 O934 2.436 . S
Pr913 O936 2.438 . S
Pr913 O938 2.562 1_455 S
Pr913 O939 2.490 1_455 S
Pr913 O940 2.695 . S
Pr913 O941 2.512 . S
Pr913 O943 2.437 . S
C914 Pr912 2.880 . S
C914 C915 1.491 . S
C914 O932 1.254 . S
C914 O933 1.216 1_554 S
C915 C914 1.491 . S
C915 C916 1.392 1_554 S
C915 C920 1.356 . S
C916 C915 1.392 1_556 S
C916 C917 1.368 . S
C916 H944 0.929 . S
C917 C916 1.368 . S
C917 C918 1.386 . S
C917 H945 0.929 . S
C918 C917 1.386 . S
C918 C919 1.373 1_556 S
C919 C918 1.373 1_554 S
C919 C920 1.409 . S
C919 H946 0.931 . S
C920 C915 1.356 . S
C920 C919 1.409 . S
C920 H947 0.930 . S
C921 O934 1.270 1_556 S
C921 O935 1.248 . S
C922 O936 1.267 . S
C922 O937 1.278 . S
C923 Pr913 2.880 1_655 S
C923 C924 1.491 . S
C923 O938 1.254 . S
C923 O939 1.225 . S
C924 C923 1.491 . S
C924 C925 1.392 . S
C924 C929 1.356 . S
C925 C924 1.392 . S
C925 C926 1.368 . S
C925 H948 0.929 . S
C926 C925 1.368 . S
C926 C927 1.386 . S
C926 H949 0.929 . S
C927 C926 1.386 . S
C927 C928 1.373 . S
C928 C927 1.373 . S
C928 C929 1.409 . S
C928 H950 0.931 . S
C929 C924 1.356 . S
C929 C928 1.409 . S
C929 H951 0.930 . S
C930 O940 1.270 . S
C930 O941 1.248 . S
C931 O942 1.267 . S
C931 O943 1.278 . S
O932 Pr912 2.562 . S
O932 C914 1.254 . S
O933 Pr912 2.481 1_556 S
O933 C914 1.216 1_556 S
O934 Pr912 2.695 . S
O934 Pr913 2.436 . S
O934 C921 1.270 1_554 S
O935 Pr912 2.512 1_556 S
O935 C921 1.248 . S
O936 Pr913 2.438 . S
O936 C922 1.267 . S
O937 Pr912 2.437 . S
O937 C922 1.278 . S
O938 Pr913 2.562 1_655 S
O938 C923 1.254 . S
O939 Pr913 2.490 1_655 S
O939 C923 1.225 . S
O940 Pr912 2.436 . S
O940 Pr913 2.695 . S
O940 C930 1.270 . S
O941 Pr913 2.512 . S
O941 C930 1.248 . S
O942 Pr912 2.438 . S
O942 C931 1.267 . S
O943 Pr913 2.437 . S
O943 C931 1.278 . S
H944 C916 0.929 . S
H945 C917 0.929 . S
H946 C919 0.931 . S
H947 C920 0.930 . S
H948 C925 0.929 . S
H949 C926 0.929 . S
H950 C928 0.931 . S
H951 C929 0.930 . S
H952 C970 0.951 . S
H953 C972 0.951 . S
H954 C974 0.950 . S
H955 C975 0.950 . S
H956 C977 0.950 1_655 S
H957 C980 0.950 . S
H958 C981 0.950 . S
H959 C983 0.950 . S
H960 C984 0.950 . S
H961 C985 0.951 . S
H962 C987 0.951 . S
H963 C989 0.950 . S
H964 C990 0.950 . S
H965 C992 0.950 . S
H966 C995 0.950 . S
H967 C996 0.950 . S
H968 C998 0.950 . S
H969 C999 0.950 . S
C970 H952 0.951 . S
C970 C971 1.366 . S
C970 C972 1.388 . S
C971 C970 1.366 . S
C971 C975 1.385 . S
C972 H953 0.951 . S
C972 C970 1.388 . S
C972 C973 1.366 . S
C973 C972 1.366 . S
C973 C974 1.414 . S
C973 C976 1.499 . S
C974 H954 0.950 . S
C974 C973 1.414 . S
C974 C975 1.374 . S
C975 H955 0.950 . S
C975 C971 1.385 . S
C975 C974 1.374 . S
C976 C973 1.499 . S
C976 C977 1.373 . S
C976 C978 1.389 . S
C977 H956 0.950 1_455 S
C977 C976 1.373 . S
C977 C993 1.377 . S
C978 C976 1.389 . S
C978 C979 1.524 . S
C978 C992 1.377 . S
C979 C978 1.524 . S
C979 C980 1.397 . S
C979 C984 1.363 1_556 S
C980 H957 0.950 . S
C980 C979 1.397 . S
C980 C981 1.334 . S
C981 H958 0.950 . S
C981 C980 1.334 . S
C981 C982 1.287 . S
C982 C981 1.287 . S
C982 C983 1.524 1_556 S
C982 H1001 0.913 . S
C983 H959 0.950 . S
C983 C982 1.524 1_554 S
C983 C984 1.415 . S
C984 H960 0.950 . S
C984 C979 1.363 1_554 S
C984 C983 1.415 . S
C985 H961 0.951 . S
C985 C986 1.366 1_556 S
C985 C987 1.388 . S
C986 C985 1.366 1_554 S
C986 C990 1.385 . S
C987 H962 0.951 . S
C987 C985 1.388 . S
C987 C988 1.366 . S
C988 C987 1.366 . S
C988 C989 1.414 1_556 S
C988 C991 1.499 . S
C989 H963 0.950 . S
C989 C988 1.414 1_554 S
C989 C990 1.374 . S
C990 H964 0.950 . S
C990 C986 1.385 . S
C990 C989 1.374 . S
C991 C988 1.499 . S
C991 C992 1.373 . S
C991 C993 1.389 . S
C992 H965 0.950 . S
C992 C978 1.377 . S
C992 C991 1.373 . S
C993 C977 1.377 . S
C993 C991 1.389 . S
C993 C994 1.524 1_455 S
C994 C993 1.524 1_655 S
C994 C995 1.397 . S
C994 C999 1.363 . S
C995 H966 0.950 . S
C995 C994 1.397 . S
C995 C996 1.334 . S
C996 H967 0.950 . S
C996 C995 1.334 . S
C996 C997 1.287 . S
C997 C996 1.287 . S
C997 C998 1.524 . S
C997 H1000 0.999 . S
C998 H968 0.950 . S
C998 C997 1.524 . S
C998 C999 1.415 . S
C999 H969 0.950 . S
C999 C994 1.363 . S
C999 C998 1.415 . S
H1000 C997 0.999 . S
H1001 C982 0.913 . S
H1002 C1020 0.951 . S
H1003 C1022 0.951 . S
H1004 C1024 0.950 . S
H1005 C1025 0.950 . S
H1006 C1027 0.950 . S
H1007 C1030 0.950 . S
H1008 C1031 0.950 . S
H1009 C1033 0.950 . S
H1010 C1034 0.950 . S
H1011 C1035 0.951 . S
H1012 C1037 0.951 . S
H1013 C1039 0.950 . S
H1014 C1040 0.950 . S
H1015 C1042 0.950 . S
H1016 C1045 0.950 . S
H1017 C1046 0.950 . S
H1018 C1048 0.950 . S
H1019 C1049 0.950 . S
C1020 H1002 0.951 . S
C1020 C1021 1.366 . S
C1020 C1022 1.388 . S
C1021 C1020 1.366 . S
C1021 C1025 1.385 . S
C1022 H1003 0.951 . S
C1022 C1020 1.388 . S
C1022 C1023 1.366 . S
C1023 C1022 1.366 . S
C1023 C1024 1.414 . S
C1023 C1026 1.499 . S
C1024 H1004 0.950 . S
C1024 C1023 1.414 . S
C1024 C1025 1.374 . S
C1025 H1005 0.950 . S
C1025 C1021 1.385 . S
C1025 C1024 1.374 . S
C1026 C1023 1.499 . S
C1026 C1027 1.373 . S
C1026 C1028 1.389 . S
C1027 H1006 0.950 . S
C1027 C1026 1.373 . S
C1027 C1043 1.377 . S
C1028 C1026 1.389 . S
C1028 C1029 1.524 . S
C1028 C1042 1.377 . S
C1029 C1028 1.524 . S
C1029 C1030 1.397 . S
C1029 C1034 1.363 . S
C1030 H1007 0.950 . S
C1030 C1029 1.397 . S
C1030 C1031 1.334 . S
C1031 H1008 0.950 . S
C1031 C1030 1.334 . S
C1031 C1032 1.287 . S
C1032 C1031 1.287 . S
C1032 C1033 1.524 . S
C1032 H1051 0.913 . S
C1033 H1009 0.950 . S
C1033 C1032 1.524 . S
C1033 C1034 1.415 . S
C1034 H1010 0.950 . S
C1034 C1029 1.363 . S
C1034 C1033 1.415 . S
C1035 H1011 0.951 . S
C1035 C1036 1.366 . S
C1035 C1037 1.388 . S
C1036 C1035 1.366 . S
C1036 C1040 1.385 . S
C1037 H1012 0.951 . S
C1037 C1035 1.388 . S
C1037 C1038 1.366 . S
C1038 C1037 1.366 . S
C1038 C1039 1.414 . S
C1038 C1041 1.499 . S
C1039 H1013 0.950 . S
C1039 C1038 1.414 . S
C1039 C1040 1.374 . S
C1040 H1014 0.950 . S
C1040 C1036 1.385 . S
C1040 C1039 1.374 . S
C1041 C1038 1.499 . S
C1041 C1042 1.373 . S
C1041 C1043 1.389 . S
C1042 H1015 0.950 . S
C1042 C1028 1.377 . S
C1042 C1041 1.373 . S
C1043 C1027 1.377 . S
C1043 C1041 1.389 . S
C1043 C1044 1.524 . S
C1044 C1043 1.524 . S
C1044 C1045 1.397 . S
C1044 C1049 1.363 . S
C1045 H1016 0.950 . S
C1045 C1044 1.397 . S
C1045 C1046 1.334 . S
C1046 H1017 0.950 . S
C1046 C1045 1.334 . S
C1046 C1047 1.287 . S
C1047 C1046 1.287 . S
C1047 C1048 1.524 . S
C1047 H1050 0.999 . S
C1048 H1018 0.950 . S
C1048 C1047 1.524 . S
C1048 C1049 1.415 . S
C1049 H1019 0.950 . S
C1049 C1044 1.363 . S
C1049 C1048 1.415 . S
H1050 C1047 0.999 . S
H1051 C1032 0.913 . S
H1052 C1070 0.951 . S
H1053 C1072 0.951 . S
H1054 C1074 0.950 . S
H1055 C1075 0.950 . S
H1056 C1077 0.950 . S
H1057 C1080 0.950 . S
H1058 C1081 0.950 . S
H1059 C1083 0.950 . S
H1060 C1084 0.950 . S
H1061 C1085 0.951 . S
H1062 C1087 0.951 . S
H1063 C1089 0.950 . S
H1064 C1090 0.950 . S
H1065 C1092 0.950 . S
H1066 C1095 0.950 . S
H1067 C1096 0.950 . S
H1068 C1098 0.950 . S
H1069 C1099 0.950 . S
C1070 H1052 0.951 . S
C1070 C1071 1.366 . S
C1070 C1072 1.388 . S
C1071 C1070 1.366 . S
C1071 C1075 1.385 . S
C1072 H1053 0.951 . S
C1072 C1070 1.388 . S
C1072 C1073 1.366 . S
C1073 C1072 1.366 . S
C1073 C1074 1.414 . S
C1073 C1076 1.499 . S
C1074 H1054 0.950 . S
C1074 C1073 1.414 . S
C1074 C1075 1.374 . S
C1075 H1055 0.950 . S
C1075 C1071 1.385 . S
C1075 C1074 1.374 . S
C1076 C1073 1.499 . S
C1076 C1077 1.373 . S
C1076 C1078 1.389 . S
C1077 H1056 0.950 . S
C1077 C1076 1.373 . S
C1077 C1093 1.377 . S
C1078 C1076 1.389 . S
C1078 C1079 1.524 . S
C1078 C1092 1.377 . S
C1079 C1078 1.524 . S
C1079 C1080 1.397 . S
C1079 C1084 1.363 . S
C1080 H1057 0.950 . S
C1080 C1079 1.397 . S
C1080 C1081 1.334 . S
C1081 H1058 0.950 . S
C1081 C1080 1.334 . S
C1081 C1082 1.287 . S
C1082 C1081 1.287 . S
C1082 C1083 1.524 . S
C1082 H1101 0.913 . S
C1083 H1059 0.950 . S
C1083 C1082 1.524 . S
C1083 C1084 1.415 . S
C1084 H1060 0.950 . S
C1084 C1079 1.363 . S
C1084 C1083 1.415 . S
C1085 H1061 0.951 . S
C1085 C1086 1.366 1_565 S
C1085 C1087 1.388 . S
C1086 C1085 1.366 1_545 S
C1086 C1090 1.385 . S
C1087 H1062 0.951 . S
C1087 C1085 1.388 . S
C1087 C1088 1.366 . S
C1088 C1087 1.366 . S
C1088 C1089 1.414 . S
C1088 C1091 1.499 . S
C1089 H1063 0.950 . S
C1089 C1088 1.414 . S
C1089 C1090 1.374 1_565 S
C1090 H1064 0.950 . S
C1090 C1086 1.385 . S
C1090 C1089 1.374 1_545 S
C1091 C1088 1.499 . S
C1091 C1092 1.373 . S
C1091 C1093 1.389 . S
C1092 H1065 0.950 . S
C1092 C1078 1.377 . S
C1092 C1091 1.373 . S
C1093 C1077 1.377 . S
C1093 C1091 1.389 . S
C1093 C1094 1.524 . S
C1094 C1093 1.524 . S
C1094 C1095 1.397 . S
C1094 C1099 1.363 . S
C1095 H1066 0.950 . S
C1095 C1094 1.397 . S
C1095 C1096 1.334 . S
C1096 H1067 0.950 . S
C1096 C1095 1.334 . S
C1096 C1097 1.287 . S
C1097 C1096 1.287 . S
C1097 C1098 1.524 . S
C1097 H1100 0.999 . S
C1098 H1068 0.950 . S
C1098 C1097 1.524 . S
C1098 C1099 1.415 . S
C1099 H1069 0.950 . S
C1099 C1094 1.363 . S
C1099 C1098 1.415 . S
H1100 C1097 0.999 . S
H1101 C1082 0.913 . S
H1102 C1120 0.951 . S
H1103 C1122 0.951 . S
H1104 C1124 0.950 . S
H1105 C1125 0.950 . S
H1106 C1127 0.950 . S
H1107 C1130 0.950 . S
H1108 C1131 0.950 . S
H1109 C1133 0.950 . S
H1110 C1134 0.950 . S
H1111 C1135 0.951 . S
H1112 C1137 0.951 . S
H1113 C1139 0.950 . S
H1114 C1140 0.950 . S
H1115 C1142 0.950 . S
H1116 C1145 0.950 . S
H1117 C1146 0.950 . S
H1118 C1148 0.950 . S
H1119 C1149 0.950 . S
C1120 H1102 0.951 . S
C1120 C1121 1.366 . S
C1120 C1122 1.388 . S
C1121 C1120 1.366 . S
C1121 C1125 1.385 . S
C1122 H1103 0.951 . S
C1122 C1120 1.388 . S
C1122 C1123 1.366 . S
C1123 C1122 1.366 . S
C1123 C1124 1.414 . S
C1123 C1126 1.499 . S
C1124 H1104 0.950 . S
C1124 C1123 1.414 . S
C1124 C1125 1.374 . S
C1125 H1105 0.950 . S
C1125 C1121 1.385 . S
C1125 C1124 1.374 . S
C1126 C1123 1.499 . S
C1126 C1127 1.373 . S
C1126 C1128 1.389 . S
C1127 H1106 0.950 . S
C1127 C1126 1.373 . S
C1127 C1143 1.377 . S
C1128 C1126 1.389 . S
C1128 C1129 1.524 . S
C1128 C1142 1.377 . S
C1129 C1128 1.524 . S
C1129 C1130 1.397 . S
C1129 C1134 1.363 . S
C1130 H1107 0.950 . S
C1130 C1129 1.397 . S
C1130 C1131 1.334 . S
C1131 H1108 0.950 . S
C1131 C1130 1.334 . S
C1131 C1132 1.287 . S
C1132 C1131 1.287 . S
C1132 C1133 1.524 . S
C1132 H1151 0.913 . S
C1133 H1109 0.950 . S
C1133 C1132 1.524 . S
C1133 C1134 1.415 . S
C1134 H1110 0.950 . S
C1134 C1129 1.363 . S
C1134 C1133 1.415 . S
C1135 H1111 0.951 . S
C1135 C1136 1.366 . S
C1135 C1137 1.388 . S
C1136 C1135 1.366 . S
C1136 C1140 1.385 . S
C1137 H1112 0.951 . S
C1137 C1135 1.388 . S
C1137 C1138 1.366 . S
C1138 C1137 1.366 . S
C1138 C1139 1.414 . S
C1138 C1141 1.499 . S
C1139 H1113 0.950 . S
C1139 C1138 1.414 . S
C1139 C1140 1.374 . S
C1140 H1114 0.950 . S
C1140 C1136 1.385 . S
C1140 C1139 1.374 . S
C1141 C1138 1.499 . S
C1141 C1142 1.373 . S
C1141 C1143 1.389 . S
C1142 H1115 0.950 . S
C1142 C1128 1.377 . S
C1142 C1141 1.373 . S
C1143 C1127 1.377 . S
C1143 C1141 1.389 . S
C1143 C1144 1.524 . S
C1144 C1143 1.524 . S
C1144 C1145 1.397 . S
C1144 C1149 1.363 . S
C1145 H1116 0.950 . S
C1145 C1144 1.397 . S
C1145 C1146 1.334 . S
C1146 H1117 0.950 . S
C1146 C1145 1.334 . S
C1146 C1147 1.287 . S
C1147 C1146 1.287 . S
C1147 C1148 1.524 . S
C1147 H1150 0.999 . S
C1148 H1118 0.950 . S
C1148 C1147 1.524 . S
C1148 C1149 1.415 . S
C1149 H1119 0.950 . S
C1149 C1144 1.363 . S
C1149 C1148 1.415 . S
H1150 C1147 0.999 . S
H1151 C1132 0.913 . S
H1152 C1170 0.951 . S
H1153 C1172 0.951 . S
H1154 C1174 0.950 . S
H1155 C1175 0.950 . S
H1156 C1177 0.950 . S
H1157 C1180 0.950 . S
H1158 C1181 0.950 . S
H1159 C1183 0.951 . S
H1160 C1184 0.950 . S
H1161 C1185 0.951 . S
H1162 C1187 0.951 . S
H1163 C1189 0.950 . S
H1164 C1190 0.944 1_545 S
H1165 C1192 0.950 . S
H1166 C1195 0.950 . S
H1167 C1196 0.950 . S
H1168 C1198 0.950 . S
H1169 C1199 0.950 . S
C1170 H1152 0.951 . S
C1170 C1171 1.366 . S
C1170 C1172 1.388 . S
C1171 C1170 1.366 . S
C1171 C1175 1.385 . S
C1172 H1153 0.951 . S
C1172 C1170 1.388 . S
C1172 C1173 1.366 . S
C1173 C1172 1.366 . S
C1173 C1174 1.414 . S
C1173 C1176 1.499 . S
C1174 H1154 0.950 . S
C1174 C1173 1.414 . S
C1174 C1175 1.374 . S
C1175 H1155 0.950 . S
C1175 C1171 1.385 . S
C1175 C1174 1.374 . S
C1176 C1173 1.499 . S
C1176 C1177 1.373 . S
C1176 C1178 1.389 . S
C1177 H1156 0.950 . S
C1177 C1176 1.373 . S
C1177 C1193 1.377 . S
C1178 C1176 1.389 . S
C1178 C1179 1.524 . S
C1178 C1192 1.377 . S
C1179 C1178 1.524 . S
C1179 C1180 1.397 . S
C1179 C1184 1.363 . S
C1180 H1157 0.950 . S
C1180 C1179 1.397 . S
C1180 C1181 1.334 . S
C1181 H1158 0.950 . S
C1181 C1180 1.334 . S
C1181 C1182 1.287 . S
C1182 C1181 1.287 . S
C1182 C1183 1.523 1_455 S
C1182 H1201 0.913 1_455 S
C1183 H1159 0.951 . S
C1183 C1182 1.523 1_655 S
C1183 C1184 1.414 1_655 S
C1184 H1160 0.950 . S
C1184 C1179 1.363 . S
C1184 C1183 1.414 1_455 S
C1185 H1161 0.951 . S
C1185 C1186 1.366 . S
C1185 C1187 1.388 1_545 S
C1186 C1185 1.366 . S
C1186 C1190 1.380 1_545 S
C1187 H1162 0.951 . S
C1187 C1185 1.388 1_565 S
C1187 C1188 1.366 . S
C1188 C1187 1.366 . S
C1188 C1189 1.414 . S
C1188 C1191 1.499 . S
C1189 H1163 0.950 . S
C1189 C1188 1.414 . S
C1189 C1190 1.384 . S
C1190 H1164 0.944 1_565 S
C1190 C1186 1.380 1_565 S
C1190 C1189 1.384 . S
C1191 C1188 1.499 . S
C1191 C1192 1.373 . S
C1191 C1193 1.389 . S
C1192 H1165 0.950 . S
C1192 C1178 1.377 . S
C1192 C1191 1.373 . S
C1193 C1177 1.377 . S
C1193 C1191 1.389 . S
C1193 C1194 1.524 . S
C1194 C1193 1.524 . S
C1194 C1195 1.397 . S
C1194 C1199 1.363 . S
C1195 H1166 0.950 . S
C1195 C1194 1.397 . S
C1195 C1196 1.334 1_565 S
C1196 H1167 0.950 . S
C1196 C1195 1.334 1_545 S
C1196 C1197 1.287 . S
C1197 C1196 1.287 . S
C1197 C1198 1.524 1_545 S
C1197 H1200 0.999 . S
C1198 H1168 0.950 . S
C1198 C1197 1.524 1_565 S
C1198 C1199 1.415 . S
C1199 H1169 0.950 . S
C1199 C1194 1.363 . S
C1199 C1198 1.415 . S
H1200 C1197 0.999 . S
H1201 C1182 0.913 1_655 S
H1202 C1220 0.951 . S
H1203 C1222 0.951 . S
H1204 C1224 0.950 . S
H1205 C1225 0.950 . S
H1206 C1227 0.950 . S
H1207 C1230 0.950 . S
H1208 C1231 0.950 . S
H1209 C1233 0.950 . S
H1210 C1234 0.950 . S
H1211 C1235 0.951 . S
H1212 C1237 0.951 . S
H1213 C1239 0.950 . S
H1214 C1240 0.950 . S
H1215 C1242 0.950 . S
H1216 C1245 0.950 . S
H1217 C1246 0.950 . S
H1218 C1248 0.950 . S
H1219 C1249 0.950 . S
C1220 H1202 0.951 . S
C1220 C1221 1.366 . S
C1220 C1222 1.388 . S
C1221 C1220 1.366 . S
C1221 C1225 1.385 . S
C1222 H1203 0.951 . S
C1222 C1220 1.388 . S
C1222 C1223 1.366 . S
C1223 C1222 1.366 . S
C1223 C1224 1.414 . S
C1223 C1226 1.499 . S
C1224 H1204 0.950 . S
C1224 C1223 1.414 . S
C1224 C1225 1.374 . S
C1225 H1205 0.950 . S
C1225 C1221 1.385 . S
C1225 C1224 1.374 . S
C1226 C1223 1.499 . S
C1226 C1227 1.373 . S
C1226 C1228 1.389 . S
C1227 H1206 0.950 . S
C1227 C1226 1.373 . S
C1227 C1243 1.377 . S
C1228 C1226 1.389 . S
C1228 C1229 1.524 . S
C1228 C1242 1.377 . S
C1229 C1228 1.524 . S
C1229 C1230 1.397 . S
C1229 C1234 1.363 . S
C1230 H1207 0.950 . S
C1230 C1229 1.397 . S
C1230 C1231 1.334 . S
C1231 H1208 0.950 . S
C1231 C1230 1.334 . S
C1231 C1232 1.287 . S
C1232 C1231 1.287 . S
C1232 C1233 1.524 . S
C1232 H1251 0.913 . S
C1233 H1209 0.950 . S
C1233 C1232 1.524 . S
C1233 C1234 1.415 . S
C1234 H1210 0.950 . S
C1234 C1229 1.363 . S
C1234 C1233 1.415 . S
C1235 H1211 0.951 . S
C1235 C1236 1.366 . S
C1235 C1237 1.388 . S
C1236 C1235 1.366 . S
C1236 C1240 1.385 . S
C1237 H1212 0.951 . S
C1237 C1235 1.388 . S
C1237 C1238 1.366 . S
C1238 C1237 1.366 . S
C1238 C1239 1.414 . S
C1238 C1241 1.499 . S
C1239 H1213 0.950 . S
C1239 C1238 1.414 . S
C1239 C1240 1.374 . S
C1240 H1214 0.950 . S
C1240 C1236 1.385 . S
C1240 C1239 1.374 . S
C1241 C1238 1.499 . S
C1241 C1242 1.373 . S
C1241 C1243 1.389 . S
C1242 H1215 0.950 . S
C1242 C1228 1.377 . S
C1242 C1241 1.373 . S
C1243 C1227 1.377 . S
C1243 C1241 1.389 . S
C1243 C1244 1.524 . S
C1244 C1243 1.524 . S
C1244 C1245 1.397 . S
C1244 C1249 1.363 . S
C1245 H1216 0.950 . S
C1245 C1244 1.397 . S
C1245 C1246 1.334 . S
C1246 H1217 0.950 . S
C1246 C1245 1.334 . S
C1246 C1247 1.287 . S
C1247 C1246 1.287 . S
C1247 C1248 1.524 . S
C1247 H1250 0.999 . S
C1248 H1218 0.950 . S
C1248 C1247 1.524 . S
C1248 C1249 1.415 . S
C1249 H1219 0.950 . S
C1249 C1244 1.363 . S
C1249 C1248 1.415 . S
H1250 C1247 0.999 . S
H1251 C1232 0.913 . S
H1252 C1270 0.951 . S
H1253 C1272 0.951 . S
H1254 C1274 0.950 . S
H1255 C1275 0.950 . S
H1256 C1277 0.950 . S
H1257 C1280 0.950 . S
H1258 C1281 0.950 . S
H1259 C1283 0.950 . S
H1260 C1284 0.950 . S
H1261 C1285 0.951 . S
H1262 C1287 0.951 . S
H1263 C1289 0.950 . S
H1264 C1290 0.950 . S
H1265 C1292 0.950 . S
H1266 C1295 0.950 . S
H1267 C1296 0.950 . S
H1268 C1298 0.950 . S
H1269 C1299 0.950 . S
C1270 H1252 0.951 . S
C1270 C1271 1.366 . S
C1270 C1272 1.388 . S
C1271 C1270 1.366 . S
C1271 C1275 1.385 . S
C1272 H1253 0.951 . S
C1272 C1270 1.388 . S
C1272 C1273 1.366 . S
C1273 C1272 1.366 . S
C1273 C1274 1.414 . S
C1273 C1276 1.499 . S
C1274 H1254 0.950 . S
C1274 C1273 1.414 . S
C1274 C1275 1.374 . S
C1275 H1255 0.950 . S
C1275 C1271 1.385 . S
C1275 C1274 1.374 . S
C1276 C1273 1.499 . S
C1276 C1277 1.373 . S
C1276 C1278 1.389 . S
C1277 H1256 0.950 . S
C1277 C1276 1.373 . S
C1277 C1293 1.377 . S
C1278 C1276 1.389 . S
C1278 C1279 1.524 . S
C1278 C1292 1.377 . S
C1279 C1278 1.524 . S
C1279 C1280 1.397 . S
C1279 C1284 1.363 . S
C1280 H1257 0.950 . S
C1280 C1279 1.397 . S
C1280 C1281 1.334 . S
C1281 H1258 0.950 . S
C1281 C1280 1.334 . S
C1281 C1282 1.287 . S
C1282 C1281 1.287 . S
C1282 C1283 1.524 . S
C1282 H1301 0.913 . S
C1283 H1259 0.950 . S
C1283 C1282 1.524 . S
C1283 C1284 1.415 . S
C1284 H1260 0.950 . S
C1284 C1279 1.363 . S
C1284 C1283 1.415 . S
C1285 H1261 0.951 . S
C1285 C1286 1.366 . S
C1285 C1287 1.388 . S
C1286 C1285 1.366 . S
C1286 C1290 1.385 . S
C1287 H1262 0.951 . S
C1287 C1285 1.388 . S
C1287 C1288 1.366 . S
C1288 C1287 1.366 . S
C1288 C1289 1.414 . S
C1288 C1291 1.499 . S
C1289 H1263 0.950 . S
C1289 C1288 1.414 . S
C1289 C1290 1.374 . S
C1290 H1264 0.950 . S
C1290 C1286 1.385 . S
C1290 C1289 1.374 . S
C1291 C1288 1.499 . S
C1291 C1292 1.373 . S
C1291 C1293 1.389 . S
C1292 H1265 0.950 . S
C1292 C1278 1.377 . S
C1292 C1291 1.373 . S
C1293 C1277 1.377 . S
C1293 C1291 1.389 . S
C1293 C1294 1.524 . S
C1294 C1293 1.524 . S
C1294 C1295 1.397 . S
C1294 C1299 1.363 . S
C1295 H1266 0.950 . S
C1295 C1294 1.397 . S
C1295 C1296 1.334 . S
C1296 H1267 0.950 . S
C1296 C1295 1.334 . S
C1296 C1297 1.287 . S
C1297 C1296 1.287 . S
C1297 C1298 1.524 . S
C1297 H1300 0.999 1_554 S
C1298 H1268 0.950 . S
C1298 C1297 1.524 . S
C1298 C1299 1.415 . S
C1299 H1269 0.950 . S
C1299 C1294 1.363 . S
C1299 C1298 1.415 . S
H1300 C1297 0.999 1_556 S
H1301 C1282 0.913 . S
H1302 C1320 0.951 . S
H1303 C1322 0.951 . S
H1304 C1324 0.950 . S
H1305 C1325 0.950 . S
H1306 C1327 0.950 . S
H1307 C1330 0.950 . S
H1308 C1331 0.950 . S
H1309 C1333 0.950 . S
H1310 C1334 0.950 . S
H1311 C1335 0.951 . S
H1312 C1337 0.951 . S
H1313 C1339 0.950 . S
H1314 C1340 0.950 . S
H1315 C1342 0.950 . S
H1316 C1345 0.950 . S
H1317 C1346 0.950 . S
H1318 C1348 0.950 . S
H1319 C1349 0.950 . S
C1320 H1302 0.951 . S
C1320 C1321 1.366 . S
C1320 C1322 1.388 . S
C1321 C1320 1.366 . S
C1321 C1325 1.385 . S
C1322 H1303 0.951 . S
C1322 C1320 1.388 . S
C1322 C1323 1.366 . S
C1323 C1322 1.366 . S
C1323 C1324 1.414 . S
C1323 C1326 1.499 . S
C1324 H1304 0.950 . S
C1324 C1323 1.414 . S
C1324 C1325 1.374 . S
C1325 H1305 0.950 . S
C1325 C1321 1.385 . S
C1325 C1324 1.374 . S
C1326 C1323 1.499 . S
C1326 C1327 1.373 . S
C1326 C1328 1.389 . S
C1327 H1306 0.950 . S
C1327 C1326 1.373 . S
C1327 C1343 1.377 . S
C1328 C1326 1.389 . S
C1328 C1329 1.524 . S
C1328 C1342 1.377 . S
C1329 C1328 1.524 . S
C1329 C1330 1.397 . S
C1329 C1334 1.363 . S
C1330 H1307 0.950 . S
C1330 C1329 1.397 . S
C1330 C1331 1.334 . S
C1331 H1308 0.950 . S
C1331 C1330 1.334 . S
C1331 C1332 1.287 . S
C1332 C1331 1.287 . S
C1332 C1333 1.524 . S
C1332 H1351 0.913 . S
C1333 H1309 0.950 . S
C1333 C1332 1.524 . S
C1333 C1334 1.415 . S
C1334 H1310 0.950 . S
C1334 C1329 1.363 . S
C1334 C1333 1.415 . S
C1335 H1311 0.951 . S
C1335 C1336 1.366 . S
C1335 C1337 1.388 . S
C1336 C1335 1.366 . S
C1336 C1340 1.385 . S
C1337 H1312 0.951 . S
C1337 C1335 1.388 . S
C1337 C1338 1.366 . S
C1338 C1337 1.366 . S
C1338 C1339 1.414 . S
C1338 C1341 1.499 . S
C1339 H1313 0.950 . S
C1339 C1338 1.414 . S
C1339 C1340 1.374 . S
C1340 H1314 0.950 . S
C1340 C1336 1.385 . S
C1340 C1339 1.374 . S
C1341 C1338 1.499 . S
C1341 C1342 1.373 . S
C1341 C1343 1.389 . S
C1342 H1315 0.950 . S
C1342 C1328 1.377 . S
C1342 C1341 1.373 . S
C1343 C1327 1.377 . S
C1343 C1341 1.389 . S
C1343 C1344 1.524 . S
C1344 C1343 1.524 . S
C1344 C1345 1.397 . S
C1344 C1349 1.363 . S
C1345 H1316 0.950 . S
C1345 C1344 1.397 . S
C1345 C1346 1.334 . S
C1346 H1317 0.950 . S
C1346 C1345 1.334 . S
C1346 C1347 1.287 . S
C1347 C1346 1.287 . S
C1347 C1348 1.524 . S
C1347 H1350 0.999 . S
C1348 H1318 0.950 . S
C1348 C1347 1.524 . S
C1348 C1349 1.415 . S
C1349 H1319 0.950 . S
C1349 C1344 1.363 . S
C1349 C1348 1.415 . S
H1350 C1347 0.999 . S
H1351 C1332 0.913 . S
H1352 C1370 0.951 . S
H1353 C1372 0.951 . S
H1354 C1374 0.950 . S
H1355 C1375 0.950 . S
H1356 C1377 0.950 . S
H1357 C1380 0.950 . S
H1358 C1381 0.950 . S
H1359 C1383 0.950 . S
H1360 C1384 0.950 . S
H1361 C1385 0.959 . S
H1362 C1387 0.951 . S
H1363 C1389 0.950 . S
H1364 C1390 0.950 . S
H1365 C1392 0.950 1_455 S
H1366 C1395 0.950 . S
H1367 C1396 0.950 1_565 S
H1368 C1398 0.950 . S
H1369 C1399 0.950 . S
C1370 H1352 0.951 . S
C1370 C1371 1.366 . S
C1370 C1372 1.388 . S
C1371 C1370 1.366 . S
C1371 C1375 1.385 . S
C1372 H1353 0.951 . S
C1372 C1370 1.388 . S
C1372 C1373 1.366 . S
C1373 C1372 1.366 . S
C1373 C1374 1.414 . S
C1373 C1376 1.499 . S
C1374 H1354 0.950 . S
C1374 C1373 1.414 . S
C1374 C1375 1.374 . S
C1375 H1355 0.950 . S
C1375 C1371 1.385 . S
C1375 C1374 1.374 . S
C1376 C1373 1.499 . S
C1376 C1377 1.373 . S
C1376 C1378 1.389 . S
C1377 H1356 0.950 . S
C1377 C1376 1.373 . S
C1377 C1393 1.377 . S
C1378 C1376 1.389 . S
C1378 C1379 1.524 . S
C1378 C1392 1.377 . S
C1379 C1378 1.524 . S
C1379 C1380 1.397 . S
C1379 C1384 1.363 1_655 S
C1380 H1357 0.950 . S
C1380 C1379 1.397 . S
C1380 C1381 1.334 . S
C1381 H1358 0.950 . S
C1381 C1380 1.334 . S
C1381 C1382 1.251 1_655 S
C1382 C1381 1.251 1_455 S
C1382 C1383 1.558 . S
C1382 H1401 0.916 . S
C1383 H1359 0.950 . S
C1383 C1382 1.558 . S
C1383 C1384 1.415 . S
C1384 H1360 0.950 . S
C1384 C1379 1.363 1_455 S
C1384 C1383 1.415 . S
C1385 H1361 0.959 . S
C1385 C1386 1.342 1_655 S
C1385 C1387 1.404 . S
C1386 C1385 1.342 1_455 S
C1386 C1390 1.385 . S
C1387 H1362 0.951 . S
C1387 C1385 1.404 . S
C1387 C1388 1.366 . S
C1388 C1387 1.366 . S
C1388 C1389 1.414 1_655 S
C1388 C1391 1.499 . S
C1389 H1363 0.950 . S
C1389 C1388 1.414 1_455 S
C1389 C1390 1.374 . S
C1390 H1364 0.950 . S
C1390 C1386 1.385 . S
C1390 C1389 1.374 . S
C1391 C1388 1.499 . S
C1391 C1392 1.373 . S
C1391 C1393 1.389 . S
C1392 H1365 0.950 1_655 S
C1392 C1378 1.377 . S
C1392 C1391 1.373 . S
C1393 C1377 1.377 . S
C1393 C1391 1.389 . S
C1393 C1394 1.524 . S
C1394 C1393 1.524 . S
C1394 C1395 1.397 . S
C1394 C1399 1.363 . S
C1395 H1366 0.950 . S
C1395 C1394 1.397 . S
C1395 C1396 1.334 . S
C1396 H1367 0.950 1_545 S
C1396 C1395 1.334 . S
C1396 C1397 1.284 . S
C1397 C1396 1.284 . S
C1397 C1398 1.541 . S
C1397 H1400 0.987 1_545 S
C1398 H1368 0.950 . S
C1398 C1397 1.541 . S
C1398 C1399 1.415 . S
C1399 H1369 0.950 . S
C1399 C1394 1.363 . S
C1399 C1398 1.415 . S
H1400 C1397 0.987 1_565 S
H1401 C1382 0.916 . S
H1402 C1420 0.951 . S
H1403 C1422 0.951 . S
H1404 C1424 0.950 . S
H1405 C1425 0.950 . S
H1406 C1427 0.950 . S
H1407 C1430 0.950 . S
H1408 C1431 0.950 . S
H1409 C1433 0.950 . S
H1410 C1434 0.950 . S
H1411 C1435 0.951 . S
H1412 C1437 0.951 . S
H1413 C1439 0.950 . S
H1414 C1440 0.950 . S
H1415 C1442 0.950 . S
H1416 C1445 0.950 . S
H1417 C1446 0.950 . S
H1418 C1448 0.950 . S
H1419 C1449 0.950 . S
C1420 H1402 0.951 . S
C1420 C1421 1.366 . S
C1420 C1422 1.388 . S
C1421 C1420 1.366 . S
C1421 C1425 1.385 . S
C1422 H1403 0.951 . S
C1422 C1420 1.388 . S
C1422 C1423 1.366 . S
C1423 C1422 1.366 . S
C1423 C1424 1.414 . S
C1423 C1426 1.499 . S
C1424 H1404 0.950 . S
C1424 C1423 1.414 . S
C1424 C1425 1.374 . S
C1425 H1405 0.950 . S
C1425 C1421 1.385 . S
C1425 C1424 1.374 . S
C1426 C1423 1.499 . S
C1426 C1427 1.373 . S
C1426 C1428 1.389 . S
C1427 H1406 0.950 . S
C1427 C1426 1.373 . S
C1427 C1443 1.377 . S
C1428 C1426 1.389 . S
C1428 C1429 1.524 . S
C1428 C1442 1.377 . S
C1429 C1428 1.524 . S
C1429 C1430 1.397 . S
C1429 C1434 1.363 . S
C1430 H1407 0.950 . S
C1430 C1429 1.397 . S
C1430 C1431 1.334 . S
C1431 H1408 0.950 . S
C1431 C1430 1.334 . S
C1431 C1432 1.287 . S
C1432 C1431 1.287 . S
C1432 C1433 1.524 . S
C1432 H1451 0.913 . S
C1433 H1409 0.950 . S
C1433 C1432 1.524 . S
C1433 C1434 1.415 . S
C1434 H1410 0.950 . S
C1434 C1429 1.363 . S
C1434 C1433 1.415 . S
C1435 H1411 0.951 . S
C1435 C1436 1.366 . S
C1435 C1437 1.388 . S
C1436 C1435 1.366 . S
C1436 C1440 1.385 . S
C1437 H1412 0.951 . S
C1437 C1435 1.388 . S
C1437 C1438 1.366 . S
C1438 C1437 1.366 . S
C1438 C1439 1.414 . S
C1438 C1441 1.499 . S
C1439 H1413 0.950 . S
C1439 C1438 1.414 . S
C1439 C1440 1.374 . S
C1440 H1414 0.950 . S
C1440 C1436 1.385 . S
C1440 C1439 1.374 . S
C1441 C1438 1.499 . S
C1441 C1442 1.373 . S
C1441 C1443 1.389 . S
C1442 H1415 0.950 . S
C1442 C1428 1.377 . S
C1442 C1441 1.373 . S
C1443 C1427 1.377 . S
C1443 C1441 1.389 . S
C1443 C1444 1.524 . S
C1444 C1443 1.524 . S
C1444 C1445 1.397 . S
C1444 C1449 1.363 . S
C1445 H1416 0.950 . S
C1445 C1444 1.397 . S
C1445 C1446 1.334 . S
C1446 H1417 0.950 . S
C1446 C1445 1.334 . S
C1446 C1447 1.287 . S
C1447 C1446 1.287 . S
C1447 C1448 1.524 . S
C1447 H1450 0.999 . S
C1448 H1418 0.950 . S
C1448 C1447 1.524 . S
C1448 C1449 1.415 . S
C1449 H1419 0.950 . S
C1449 C1444 1.363 . S
C1449 C1448 1.415 . S
H1450 C1447 0.999 . S
H1451 C1432 0.913 . S
H1452 C1470 0.951 . S
H1453 C1472 0.951 . S
H1454 C1474 0.950 . S
H1455 C1475 0.950 . S
H1456 C1477 0.950 . S
H1457 C1480 0.950 . S
H1458 C1481 0.950 . S
H1459 C1483 0.950 . S
H1460 C1484 0.950 1_545 S
H1461 C1485 0.951 . S
H1462 C1487 0.951 . S
H1463 C1489 0.950 . S
H1464 C1490 0.950 . S
H1465 C1492 0.950 . S
H1466 C1495 0.950 . S
H1467 C1496 0.950 . S
H1468 C1498 0.950 . S
H1469 C1499 0.950 . S
C1470 H1452 0.951 . S
C1470 C1471 1.346 1_545 S
C1470 C1472 1.388 . S
C1471 C1470 1.346 1_565 S
C1471 C1475 1.388 . S
C1472 H1453 0.951 . S
C1472 C1470 1.388 . S
C1472 C1473 1.366 . S
C1473 C1472 1.366 . S
C1473 C1474 1.414 . S
C1473 C1476 1.499 . S
C1474 H1454 0.950 . S
C1474 C1473 1.414 . S
C1474 C1475 1.374 1_545 S
C1475 H1455 0.950 . S
C1475 C1471 1.388 . S
C1475 C1474 1.374 1_565 S
C1476 C1473 1.499 . S
C1476 C1477 1.373 . S
C1476 C1478 1.389 . S
C1477 H1456 0.950 . S
C1477 C1476 1.373 . S
C1477 C1493 1.377 . S
C1478 C1476 1.389 . S
C1478 C1479 1.524 1_545 S
C1478 C1492 1.377 . S
C1479 C1478 1.524 1_565 S
C1479 C1480 1.397 . S
C1479 C1484 1.363 . S
C1480 H1457 0.950 . S
C1480 C1479 1.397 . S
C1480 C1481 1.334 . S
C1481 H1458 0.950 . S
C1481 C1480 1.334 . S
C1481 C1482 1.287 . S
C1482 C1481 1.287 . S
C1482 C1483 1.524 . S
C1482 H1501 0.913 . S
C1483 H1459 0.950 . S
C1483 C1482 1.524 . S
C1483 C1484 1.415 . S
C1484 H1460 0.950 1_565 S
C1484 C1479 1.363 . S
C1484 C1483 1.415 . S
C1485 H1461 0.951 . S
C1485 C1486 1.366 . S
C1485 C1487 1.388 . S
C1486 C1485 1.366 . S
C1486 C1490 1.385 . S
C1487 H1462 0.951 . S
C1487 C1485 1.388 . S
C1487 C1488 1.366 . S
C1488 C1487 1.366 . S
C1488 C1489 1.414 . S
C1488 C1491 1.499 . S
C1489 H1463 0.950 . S
C1489 C1488 1.414 . S
C1489 C1490 1.374 . S
C1490 H1464 0.950 . S
C1490 C1486 1.385 . S
C1490 C1489 1.374 . S
C1491 C1488 1.499 . S
C1491 C1492 1.373 . S
C1491 C1493 1.389 . S
C1492 H1465 0.950 . S
C1492 C1478 1.377 . S
C1492 C1491 1.373 . S
C1493 C1477 1.377 . S
C1493 C1491 1.389 . S
C1493 C1494 1.524 . S
C1494 C1493 1.524 . S
C1494 C1495 1.397 . S
C1494 C1499 1.363 . S
C1495 H1466 0.950 . S
C1495 C1494 1.397 . S
C1495 C1496 1.334 . S
C1496 H1467 0.950 . S
C1496 C1495 1.334 . S
C1496 C1497 1.287 . S
C1497 C1496 1.287 . S
C1497 C1498 1.524 . S
C1497 H1500 0.999 . S
C1498 H1468 0.950 . S
C1498 C1497 1.524 . S
C1498 C1499 1.415 . S
C1499 H1469 0.950 . S
C1499 C1494 1.363 . S
C1499 C1498 1.415 . S
H1500 C1497 0.999 . S
H1501 C1482 0.913 . S
H1502 C1520 0.951 . S
H1503 C1522 0.951 . S
H1504 C1524 0.950 . S
H1505 C1525 0.950 . S
H1506 C1527 0.950 . S
H1507 C1530 0.950 . S
H1508 C1531 0.950 . S
H1509 C1533 0.950 . S
H1510 C1534 0.950 . S
H1511 C1535 0.951 . S
H1512 C1537 0.951 . S
H1513 C1539 0.950 . S
H1514 C1540 0.950 . S
H1515 C1542 0.950 . S
H1516 C1545 0.950 . S
H1517 C1546 0.950 . S
H1518 C1548 0.950 . S
H1519 C1549 0.950 . S
C1520 H1502 0.951 . S
C1520 C1521 1.366 . S
C1520 C1522 1.388 . S
C1521 C1520 1.366 . S
C1521 C1525 1.385 . S
C1522 H1503 0.951 . S
C1522 C1520 1.388 . S
C1522 C1523 1.366 . S
C1523 C1522 1.366 . S
C1523 C1524 1.414 . S
C1523 C1526 1.499 . S
C1524 H1504 0.950 . S
C1524 C1523 1.414 . S
C1524 C1525 1.374 . S
C1525 H1505 0.950 . S
C1525 C1521 1.385 . S
C1525 C1524 1.374 . S
C1526 C1523 1.499 . S
C1526 C1527 1.373 . S
C1526 C1528 1.389 . S
C1527 H1506 0.950 . S
C1527 C1526 1.373 . S
C1527 C1543 1.377 . S
C1528 C1526 1.389 . S
C1528 C1529 1.524 . S
C1528 C1542 1.377 . S
C1529 C1528 1.524 . S
C1529 C1530 1.397 . S
C1529 C1534 1.363 . S
C1530 H1507 0.950 . S
C1530 C1529 1.397 . S
C1530 C1531 1.334 . S
C1531 H1508 0.950 . S
C1531 C1530 1.334 . S
C1531 C1532 1.287 . S
C1532 C1531 1.287 . S
C1532 C1533 1.524 . S
C1532 H1551 0.913 . S
C1533 H1509 0.950 . S
C1533 C1532 1.524 . S
C1533 C1534 1.415 . S
C1534 H1510 0.950 . S
C1534 C1529 1.363 . S
C1534 C1533 1.415 . S
C1535 H1511 0.951 . S
C1535 C1536 1.366 . S
C1535 C1537 1.388 . S
C1536 C1535 1.366 . S
C1536 C1540 1.385 . S
C1537 H1512 0.951 . S
C1537 C1535 1.388 . S
C1537 C1538 1.366 . S
C1538 C1537 1.366 . S
C1538 C1539 1.414 . S
C1538 C1541 1.499 . S
C1539 H1513 0.950 . S
C1539 C1538 1.414 . S
C1539 C1540 1.374 . S
C1540 H1514 0.950 . S
C1540 C1536 1.385 . S
C1540 C1539 1.374 . S
C1541 C1538 1.499 . S
C1541 C1542 1.373 . S
C1541 C1543 1.389 . S
C1542 H1515 0.950 . S
C1542 C1528 1.377 . S
C1542 C1541 1.373 . S
C1543 C1527 1.377 . S
C1543 C1541 1.389 . S
C1543 C1544 1.524 . S
C1544 C1543 1.524 . S
C1544 C1545 1.397 . S
C1544 C1549 1.363 . S
C1545 H1516 0.950 . S
C1545 C1544 1.397 . S
C1545 C1546 1.334 . S
C1546 H1517 0.950 . S
C1546 C1545 1.334 . S
C1546 C1547 1.287 . S
C1547 C1546 1.287 . S
C1547 C1548 1.524 . S
C1547 H1550 0.999 . S
C1548 H1518 0.950 . S
C1548 C1547 1.524 . S
C1548 C1549 1.415 . S
C1549 H1519 0.950 . S
C1549 C1544 1.363 . S
C1549 C1548 1.415 . S
H1550 C1547 0.999 . S
H1551 C1532 0.913 . S
H1552 C1570 0.951 . S
H1553 C1572 0.951 . S
H1554 C1574 0.950 . S
H1555 C1575 0.950 . S
H1556 C1577 0.950 . S
H1557 C1580 0.950 . S
H1558 C1581 0.942 1_565 S
H1559 C1583 0.950 1_455 S
H1560 C1584 0.950 . S
H1561 C1585 0.951 . S
H1562 C1587 0.951 . S
H1563 C1589 0.999 . S
H1564 C1590 0.950 . S
H1565 C1592 0.950 . S
H1566 C1595 0.950 . S
H1567 C1596 0.950 . S
H1568 C1598 0.950 . S
H1569 C1599 0.950 . S
C1570 H1552 0.951 . S
C1570 C1571 1.366 . S
C1570 C1572 1.388 . S
C1571 C1570 1.366 . S
C1571 C1575 1.385 . S
C1572 H1553 0.951 . S
C1572 C1570 1.388 . S
C1572 C1573 1.366 . S
C1573 C1572 1.366 . S
C1573 C1574 1.414 . S
C1573 C1576 1.499 . S
C1574 H1554 0.950 . S
C1574 C1573 1.414 . S
C1574 C1575 1.374 . S
C1575 H1555 0.950 . S
C1575 C1571 1.385 . S
C1575 C1574 1.374 . S
C1576 C1573 1.499 . S
C1576 C1577 1.373 . S
C1576 C1578 1.389 . S
C1577 H1556 0.950 . S
C1577 C1576 1.373 . S
C1577 C1593 1.377 . S
C1578 C1576 1.389 . S
C1578 C1579 1.524 . S
C1578 C1592 1.377 . S
C1579 C1578 1.524 . S
C1579 C1580 1.397 . S
C1579 C1584 1.363 . S
C1580 H1557 0.950 . S
C1580 C1579 1.397 . S
C1580 C1581 1.347 . S
C1581 H1558 0.942 1_545 S
C1581 C1580 1.347 . S
C1581 C1582 1.281 1_545 S
C1582 C1581 1.281 1_565 S
C1582 C1583 1.521 1_565 S
C1582 H1601 0.918 . S
C1583 H1559 0.950 1_655 S
C1583 C1582 1.521 1_545 S
C1583 C1584 1.415 . S
C1584 H1560 0.950 . S
C1584 C1579 1.363 . S
C1584 C1583 1.415 . S
C1585 H1561 0.951 . S
C1585 C1586 1.399 . S
C1585 C1587 1.388 . S
C1586 C1585 1.399 . S
C1586 C1590 1.362 1_655 S
C1587 H1562 0.951 . S
C1587 C1585 1.388 . S
C1587 C1588 1.366 . S
C1588 C1587 1.366 . S
C1588 C1589 1.344 1_655 S
C1588 C1591 1.499 . S
C1589 H1563 0.999 . S
C1589 C1588 1.344 1_455 S
C1589 C1590 1.398 . S
C1590 H1564 0.950 . S
C1590 C1586 1.362 1_455 S
C1590 C1589 1.398 . S
C1591 C1588 1.499 . S
C1591 C1592 1.373 . S
C1591 C1593 1.389 . S
C1592 H1565 0.950 . S
C1592 C1578 1.377 . S
C1592 C1591 1.373 . S
C1593 C1577 1.377 . S
C1593 C1591 1.389 . S
C1593 C1594 1.524 . S
C1594 C1593 1.524 . S
C1594 C1595 1.397 . S
C1594 C1599 1.363 . S
C1595 H1566 0.950 . S
C1595 C1594 1.397 . S
C1595 C1596 1.334 . S
C1596 H1567 0.950 . S
C1596 C1595 1.334 . S
C1596 C1597 1.287 . S
C1597 C1596 1.287 . S
C1597 C1598 1.524 . S
C1597 H1600 0.999 . S
C1598 H1568 0.950 . S
C1598 C1597 1.524 . S
C1598 C1599 1.415 . S
C1599 H1569 0.950 . S
C1599 C1594 1.363 . S
C1599 C1598 1.415 . S
H1600 C1597 0.999 . S
H1601 C1582 0.918 . S
H1602 C1620 0.951 . S
H1603 C1622 0.951 . S
H1604 C1624 0.950 . S
H1605 C1625 0.950 . S
H1606 C1627 0.950 . S
H1607 C1630 0.950 . S
H1608 C1631 0.950 . S
H1609 C1633 0.950 . S
H1610 C1634 0.950 . S
H1611 C1635 0.951 . S
H1612 C1637 0.951 . S
H1613 C1639 0.950 . S
H1614 C1640 0.950 . S
H1615 C1642 0.950 . S
H1616 C1645 0.950 . S
H1617 C1646 0.950 . S
H1618 C1648 0.950 . S
H1619 C1649 0.950 . S
C1620 H1602 0.951 . S
C1620 C1621 1.366 . S
C1620 C1622 1.388 . S
C1621 C1620 1.366 . S
C1621 C1625 1.385 . S
C1622 H1603 0.951 . S
C1622 C1620 1.388 . S
C1622 C1623 1.366 . S
C1623 C1622 1.366 . S
C1623 C1624 1.414 . S
C1623 C1626 1.499 . S
C1624 H1604 0.950 . S
C1624 C1623 1.414 . S
C1624 C1625 1.374 . S
C1625 H1605 0.950 . S
C1625 C1621 1.385 . S
C1625 C1624 1.374 . S
C1626 C1623 1.499 . S
C1626 C1627 1.373 . S
C1626 C1628 1.389 . S
C1627 H1606 0.950 . S
C1627 C1626 1.373 . S
C1627 C1643 1.377 . S
C1628 C1626 1.389 . S
C1628 C1629 1.524 . S
C1628 C1642 1.377 . S
C1629 C1628 1.524 . S
C1629 C1630 1.397 . S
C1629 C1634 1.363 . S
C1630 H1607 0.950 . S
C1630 C1629 1.397 . S
C1630 C1631 1.334 . S
C1631 H1608 0.950 . S
C1631 C1630 1.334 . S
C1631 C1632 1.287 . S
C1632 C1631 1.287 . S
C1632 C1633 1.524 . S
C1632 H1651 0.913 . S
C1633 H1609 0.950 . S
C1633 C1632 1.524 . S
C1633 C1634 1.415 . S
C1634 H1610 0.950 . S
C1634 C1629 1.363 . S
C1634 C1633 1.415 . S
C1635 H1611 0.951 . S
C1635 C1636 1.366 . S
C1635 C1637 1.388 . S
C1636 C1635 1.366 . S
C1636 C1640 1.385 . S
C1637 H1612 0.951 . S
C1637 C1635 1.388 . S
C1637 C1638 1.366 . S
C1638 C1637 1.366 . S
C1638 C1639 1.414 . S
C1638 C1641 1.499 . S
C1639 H1613 0.950 . S
C1639 C1638 1.414 . S
C1639 C1640 1.374 . S
C1640 H1614 0.950 . S
C1640 C1636 1.385 . S
C1640 C1639 1.374 . S
C1641 C1638 1.499 . S
C1641 C1642 1.373 . S
C1641 C1643 1.389 . S
C1642 H1615 0.950 . S
C1642 C1628 1.377 . S
C1642 C1641 1.373 . S
C1643 C1627 1.377 . S
C1643 C1641 1.389 . S
C1643 C1644 1.524 . S
C1644 C1643 1.524 . S
C1644 C1645 1.397 . S
C1644 C1649 1.363 . S
C1645 H1616 0.950 . S
C1645 C1644 1.397 . S
C1645 C1646 1.334 . S
C1646 H1617 0.950 . S
C1646 C1645 1.334 . S
C1646 C1647 1.287 . S
C1647 C1646 1.287 . S
C1647 C1648 1.524 . S
C1647 H1650 0.999 . S
C1648 H1618 0.950 . S
C1648 C1647 1.524 . S
C1648 C1649 1.415 . S
C1649 H1619 0.950 . S
C1649 C1644 1.363 . S
C1649 C1648 1.415 . S
H1650 C1647 0.999 . S
H1651 C1632 0.913 . S
H1652 C1670 0.951 . S
H1653 C1672 0.951 . S
H1654 C1674 0.950 . S
H1655 C1675 0.950 . S
H1656 C1677 0.950 . S
H1657 C1680 0.950 . S
H1658 C1681 0.950 . S
H1659 C1683 0.950 . S
H1660 C1684 0.950 . S
H1661 C1685 0.951 . S
H1662 C1687 0.951 . S
H1663 C1689 0.950 . S
H1664 C1690 0.950 . S
H1665 C1692 0.950 . S
H1666 C1695 0.950 . S
H1667 C1696 0.950 . S
H1668 C1698 0.950 . S
H1669 C1699 0.950 . S
C1670 H1652 0.951 . S
C1670 C1671 1.366 1_545 S
C1670 C1672 1.388 . S
C1671 C1670 1.366 1_565 S
C1671 C1675 1.385 . S
C1672 H1653 0.951 . S
C1672 C1670 1.388 . S
C1672 C1673 1.366 . S
C1673 C1672 1.366 . S
C1673 C1674 1.414 1_545 S
C1673 C1676 1.499 . S
C1674 H1654 0.950 . S
C1674 C1673 1.414 1_565 S
C1674 C1675 1.374 . S
C1675 H1655 0.950 . S
C1675 C1671 1.385 . S
C1675 C1674 1.374 . S
C1676 C1673 1.499 . S
C1676 C1677 1.373 . S
C1676 C1678 1.389 . S
C1677 H1656 0.950 . S
C1677 C1676 1.373 . S
C1677 C1693 1.377 . S
C1678 C1676 1.389 . S
C1678 C1679 1.524 . S
C1678 C1692 1.377 . S
C1679 C1678 1.524 . S
C1679 C1680 1.397 . S
C1679 C1684 1.363 . S
C1680 H1657 0.950 . S
C1680 C1679 1.397 . S
C1680 C1681 1.334 . S
C1681 H1658 0.950 . S
C1681 C1680 1.334 . S
C1681 C1682 1.287 . S
C1682 C1681 1.287 . S
C1682 C1683 1.524 . S
C1682 H1701 0.913 . S
C1683 H1659 0.950 . S
C1683 C1682 1.524 . S
C1683 C1684 1.415 . S
C1684 H1660 0.950 . S
C1684 C1679 1.363 . S
C1684 C1683 1.415 . S
C1685 H1661 0.951 . S
C1685 C1686 1.366 . S
C1685 C1687 1.388 . S
C1686 C1685 1.366 . S
C1686 C1690 1.385 . S
C1687 H1662 0.951 . S
C1687 C1685 1.388 . S
C1687 C1688 1.366 . S
C1688 C1687 1.366 . S
C1688 C1689 1.414 . S
C1688 C1691 1.499 . S
C1689 H1663 0.950 . S
C1689 C1688 1.414 . S
C1689 C1690 1.374 . S
C1690 H1664 0.950 . S
C1690 C1686 1.385 . S
C1690 C1689 1.374 . S
C1691 C1688 1.499 . S
C1691 C1692 1.373 . S
C1691 C1693 1.389 . S
C1692 H1665 0.950 . S
C1692 C1678 1.377 . S
C1692 C1691 1.373 . S
C1693 C1677 1.377 . S
C1693 C1691 1.389 . S
C1693 C1694 1.524 . S
C1694 C1693 1.524 . S
C1694 C1695 1.397 . S
C1694 C1699 1.363 1_545 S
C1695 H1666 0.950 . S
C1695 C1694 1.397 . S
C1695 C1696 1.334 . S
C1696 H1667 0.950 . S
C1696 C1695 1.334 . S
C1696 C1697 1.287 1_545 S
C1697 C1696 1.287 1_565 S
C1697 C1698 1.524 . S
C1697 H1700 0.999 . S
C1698 H1668 0.950 . S
C1698 C1697 1.524 . S
C1698 C1699 1.415 . S
C1699 H1669 0.950 . S
C1699 C1694 1.363 1_565 S
C1699 C1698 1.415 . S
H1700 C1697 0.999 . S
H1701 C1682 0.913 . S
H1702 C1720 0.951 . S
H1703 C1722 0.951 . S
H1704 C1724 0.950 . S
H1705 C1725 0.950 . S
H1706 C1727 0.950 . S
H1707 C1730 0.950 . S
H1708 C1731 0.950 . S
H1709 C1733 0.950 . S
H1710 C1734 0.950 . S
H1711 C1735 0.951 . S
H1712 C1737 0.951 . S
H1713 C1739 0.950 . S
H1714 C1740 0.950 . S
H1715 C1742 0.950 . S
H1716 C1745 0.950 . S
H1717 C1746 0.950 . S
H1718 C1748 0.950 . S
H1719 C1749 0.950 . S
C1720 H1702 0.951 . S
C1720 C1721 1.366 . S
C1720 C1722 1.388 . S
C1721 C1720 1.366 . S
C1721 C1725 1.385 . S
C1722 H1703 0.951 . S
C1722 C1720 1.388 . S
C1722 C1723 1.366 . S
C1723 C1722 1.366 . S
C1723 C1724 1.414 . S
C1723 C1726 1.499 . S
C1724 H1704 0.950 . S
C1724 C1723 1.414 . S
C1724 C1725 1.374 . S
C1725 H1705 0.950 . S
C1725 C1721 1.385 . S
C1725 C1724 1.374 . S
C1726 C1723 1.499 . S
C1726 C1727 1.373 . S
C1726 C1728 1.389 . S
C1727 H1706 0.950 . S
C1727 C1726 1.373 . S
C1727 C1743 1.377 . S
C1728 C1726 1.389 . S
C1728 C1729 1.524 . S
C1728 C1742 1.377 . S
C1729 C1728 1.524 . S
C1729 C1730 1.397 . S
C1729 C1734 1.363 . S
C1730 H1707 0.950 . S
C1730 C1729 1.397 . S
C1730 C1731 1.334 . S
C1731 H1708 0.950 . S
C1731 C1730 1.334 . S
C1731 C1732 1.287 . S
C1732 C1731 1.287 . S
C1732 C1733 1.524 . S
C1732 H1751 0.913 . S
C1733 H1709 0.950 . S
C1733 C1732 1.524 . S
C1733 C1734 1.415 . S
C1734 H1710 0.950 . S
C1734 C1729 1.363 . S
C1734 C1733 1.415 . S
C1735 H1711 0.951 . S
C1735 C1736 1.366 . S
C1735 C1737 1.388 . S
C1736 C1735 1.366 . S
C1736 C1740 1.385 . S
C1737 H1712 0.951 . S
C1737 C1735 1.388 . S
C1737 C1738 1.366 . S
C1738 C1737 1.366 . S
C1738 C1739 1.414 . S
C1738 C1741 1.499 . S
C1739 H1713 0.950 . S
C1739 C1738 1.414 . S
C1739 C1740 1.374 . S
C1740 H1714 0.950 . S
C1740 C1736 1.385 . S
C1740 C1739 1.374 . S
C1741 C1738 1.499 . S
C1741 C1742 1.373 . S
C1741 C1743 1.389 . S
C1742 H1715 0.950 . S
C1742 C1728 1.377 . S
C1742 C1741 1.373 . S
C1743 C1727 1.377 . S
C1743 C1741 1.389 . S
C1743 C1744 1.524 . S
C1744 C1743 1.524 . S
C1744 C1745 1.397 . S
C1744 C1749 1.363 . S
C1745 H1716 0.950 . S
C1745 C1744 1.397 . S
C1745 C1746 1.334 . S
C1746 H1717 0.950 . S
C1746 C1745 1.334 . S
C1746 C1747 1.287 . S
C1747 C1746 1.287 . S
C1747 C1748 1.524 . S
C1747 H1750 0.999 . S
C1748 H1718 0.950 . S
C1748 C1747 1.524 . S
C1748 C1749 1.415 . S
C1749 H1719 0.950 . S
C1749 C1744 1.363 . S
C1749 C1748 1.415 . S
H1750 C1747 0.999 . S
H1751 C1732 0.913 . S
H1752 C1770 0.951 . S
H1753 C1772 0.951 . S
H1754 C1774 0.950 . S
H1755 C1775 0.950 . S
H1756 C1777 0.950 . S
H1757 C1780 0.950 . S
H1758 C1781 0.950 . S
H1759 C1783 0.950 . S
H1760 C1784 0.950 1_545 S
H1761 C1785 0.951 . S
H1762 C1787 0.951 . S
H1763 C1789 0.950 . S
H1764 C1790 0.950 . S
H1765 C1792 0.950 . S
H1766 C1795 0.950 . S
H1767 C1796 0.950 . S
H1768 C1798 0.950 . S
H1769 C1799 0.950 . S
C1770 H1752 0.951 . S
C1770 C1771 1.366 . S
C1770 C1772 1.388 . S
C1771 C1770 1.366 . S
C1771 C1775 1.385 . S
C1772 H1753 0.951 . S
C1772 C1770 1.388 . S
C1772 C1773 1.366 . S
C1773 C1772 1.366 . S
C1773 C1774 1.414 . S
C1773 C1776 1.499 . S
C1774 H1754 0.950 . S
C1774 C1773 1.414 . S
C1774 C1775 1.374 . S
C1775 H1755 0.950 . S
C1775 C1771 1.385 . S
C1775 C1774 1.374 . S
C1776 C1773 1.499 . S
C1776 C1777 1.373 . S
C1776 C1778 1.389 . S
C1777 H1756 0.950 . S
C1777 C1776 1.373 . S
C1777 C1793 1.377 . S
C1778 C1776 1.389 . S
C1778 C1779 1.524 . S
C1778 C1792 1.377 . S
C1779 C1778 1.524 . S
C1779 C1780 1.397 . S
C1779 C1784 1.363 . S
C1780 H1757 0.950 . S
C1780 C1779 1.397 . S
C1780 C1781 1.334 . S
C1781 H1758 0.950 . S
C1781 C1780 1.334 . S
C1781 C1782 1.287 . S
C1782 C1781 1.287 . S
C1782 C1783 1.524 . S
C1782 H1801 0.913 . S
C1783 H1759 0.950 . S
C1783 C1782 1.524 . S
C1783 C1784 1.415 . S
C1784 H1760 0.950 1_565 S
C1784 C1779 1.363 . S
C1784 C1783 1.415 . S
C1785 H1761 0.951 . S
C1785 C1786 1.366 1_565 S
C1785 C1787 1.387 . S
C1786 C1785 1.366 1_545 S
C1786 C1790 1.385 . S
C1787 H1762 0.951 . S
C1787 C1785 1.387 . S
C1787 C1788 1.366 1_565 S
C1788 C1787 1.366 1_545 S
C1788 C1789 1.414 . S
C1788 C1791 1.499 1_545 S
C1789 H1763 0.950 . S
C1789 C1788 1.414 . S
C1789 C1790 1.374 . S
C1790 H1764 0.950 . S
C1790 C1786 1.385 . S
C1790 C1789 1.374 . S
C1791 C1788 1.499 1_565 S
C1791 C1792 1.373 . S
C1791 C1793 1.389 . S
C1792 H1765 0.950 . S
C1792 C1778 1.377 . S
C1792 C1791 1.373 . S
C1793 C1777 1.377 . S
C1793 C1791 1.389 . S
C1793 C1794 1.524 . S
C1794 C1793 1.524 . S
C1794 C1795 1.397 1_565 S
C1794 C1799 1.363 . S
C1795 H1766 0.950 . S
C1795 C1794 1.397 1_545 S
C1795 C1796 1.334 . S
C1796 H1767 0.950 . S
C1796 C1795 1.334 . S
C1796 C1797 1.287 1_554 S
C1797 C1796 1.287 1_556 S
C1797 C1798 1.524 1_545 S
C1797 H1800 0.999 . S
C1798 H1768 0.950 . S
C1798 C1797 1.524 1_565 S
C1798 C1799 1.415 1_556 S
C1799 H1769 0.950 . S
C1799 C1794 1.363 . S
C1799 C1798 1.415 1_554 S
H1800 C1797 0.999 . S
H1801 C1782 0.913 . S
H1802 C1820 0.951 . S
H1803 C1822 0.951 . S
H1804 C1824 0.950 . S
H1805 C1825 0.950 . S
H1806 C1827 0.950 . S
H1807 C1830 0.950 . S
H1808 C1831 0.950 . S
H1809 C1833 0.950 . S
H1810 C1834 0.950 . S
H1811 C1835 0.951 . S
H1812 C1837 0.951 . S
H1813 C1839 0.950 . S
H1814 C1840 0.950 . S
H1815 C1842 0.950 1_556 S
H1816 C1845 0.950 . S
H1817 C1846 0.950 . S
H1818 C1848 0.950 . S
H1819 C1849 0.950 . S
C1820 H1802 0.951 . S
C1820 C1821 1.366 . S
C1820 C1822 1.388 . S
C1821 C1820 1.366 . S
C1821 C1825 1.385 . S
C1822 H1803 0.951 . S
C1822 C1820 1.388 . S
C1822 C1823 1.366 . S
C1823 C1822 1.366 . S
C1823 C1824 1.414 . S
C1823 C1826 1.499 . S
C1824 H1804 0.950 . S
C1824 C1823 1.414 . S
C1824 C1825 1.374 . S
C1825 H1805 0.950 . S
C1825 C1821 1.385 . S
C1825 C1824 1.374 . S
C1826 C1823 1.499 . S
C1826 C1827 1.373 . S
C1826 C1828 1.389 . S
C1827 H1806 0.950 . S
C1827 C1826 1.373 . S
C1827 C1843 1.377 . S
C1828 C1826 1.389 . S
C1828 C1829 1.524 1_554 S
C1828 C1842 1.377 . S
C1829 C1828 1.524 1_556 S
C1829 C1830 1.397 . S
C1829 C1834 1.363 . S
C1830 H1807 0.950 . S
C1830 C1829 1.397 . S
C1830 C1831 1.334 . S
C1831 H1808 0.950 . S
C1831 C1830 1.334 . S
C1831 C1832 1.287 . S
C1832 C1831 1.287 . S
C1832 C1833 1.524 . S
C1832 H1851 0.913 . S
C1833 H1809 0.950 . S
C1833 C1832 1.524 . S
C1833 C1834 1.415 . S
C1834 H1810 0.950 . S
C1834 C1829 1.363 . S
C1834 C1833 1.415 . S
C1835 H1811 0.951 . S
C1835 C1836 1.366 . S
C1835 C1837 1.388 . S
C1836 C1835 1.366 . S
C1836 C1840 1.385 . S
C1837 H1812 0.951 . S
C1837 C1835 1.388 . S
C1837 C1838 1.366 . S
C1838 C1837 1.366 . S
C1838 C1839 1.414 . S
C1838 C1841 1.499 . S
C1839 H1813 0.950 . S
C1839 C1838 1.414 . S
C1839 C1840 1.374 . S
C1840 H1814 0.950 . S
C1840 C1836 1.385 . S
C1840 C1839 1.374 . S
C1841 C1838 1.499 . S
C1841 C1842 1.373 . S
C1841 C1843 1.389 . S
C1842 H1815 0.950 1_554 S
C1842 C1828 1.377 . S
C1842 C1841 1.373 . S
C1843 C1827 1.377 . S
C1843 C1841 1.389 . S
C1843 C1844 1.524 . S
C1844 C1843 1.524 . S
C1844 C1845 1.397 . S
C1844 C1849 1.363 . S
C1845 H1816 0.950 . S
C1845 C1844 1.397 . S
C1845 C1846 1.334 . S
C1846 H1817 0.950 . S
C1846 C1845 1.334 . S
C1846 C1847 1.287 . S
C1847 C1846 1.287 . S
C1847 C1848 1.524 . S
C1847 H1850 0.999 . S
C1848 H1818 0.950 . S
C1848 C1847 1.524 . S
C1848 C1849 1.415 . S
C1849 H1819 0.950 . S
C1849 C1844 1.363 . S
C1849 C1848 1.415 . S
H1850 C1847 0.999 . S
H1851 C1832 0.913 . S
H1852 C1870 0.951 . S
H1853 C1872 0.951 . S
H1854 C1874 0.950 . S
H1855 C1875 0.950 . S
H1856 C1877 0.950 . S
H1857 C1880 0.950 . S
H1858 C1881 0.950 . S
H1859 C1883 0.950 . S
H1860 C1884 0.950 . S
H1861 C1885 0.951 . S
H1862 C1887 0.951 . S
H1863 C1889 0.950 . S
H1864 C1890 0.950 . S
H1865 C1892 0.950 . S
H1866 C1895 0.950 . S
H1867 C1896 0.950 . S
H1868 C1898 0.950 . S
H1869 C1899 0.950 . S
C1870 H1852 0.951 . S
C1870 C1871 1.366 . S
C1870 C1872 1.388 . S
C1871 C1870 1.366 . S
C1871 C1875 1.385 . S
C1872 H1853 0.951 . S
C1872 C1870 1.388 . S
C1872 C1873 1.366 . S
C1873 C1872 1.366 . S
C1873 C1874 1.414 . S
C1873 C1876 1.499 . S
C1874 H1854 0.950 . S
C1874 C1873 1.414 . S
C1874 C1875 1.374 . S
C1875 H1855 0.950 . S
C1875 C1871 1.385 . S
C1875 C1874 1.374 . S
C1876 C1873 1.499 . S
C1876 C1877 1.373 . S
C1876 C1878 1.389 . S
C1877 H1856 0.950 . S
C1877 C1876 1.373 . S
C1877 C1893 1.377 . S
C1878 C1876 1.389 . S
C1878 C1879 1.524 . S
C1878 C1892 1.377 . S
C1879 C1878 1.524 . S
C1879 C1880 1.397 . S
C1879 C1884 1.363 . S
C1880 H1857 0.950 . S
C1880 C1879 1.397 . S
C1880 C1881 1.334 . S
C1881 H1858 0.950 . S
C1881 C1880 1.334 . S
C1881 C1882 1.287 . S
C1882 C1881 1.287 . S
C1882 C1883 1.524 . S
C1882 H1901 0.913 . S
C1883 H1859 0.950 . S
C1883 C1882 1.524 . S
C1883 C1884 1.415 . S
C1884 H1860 0.950 . S
C1884 C1879 1.363 . S
C1884 C1883 1.415 . S
C1885 H1861 0.951 . S
C1885 C1886 1.366 . S
C1885 C1887 1.388 . S
C1886 C1885 1.366 . S
C1886 C1890 1.385 . S
C1887 H1862 0.951 . S
C1887 C1885 1.388 . S
C1887 C1888 1.366 . S
C1888 C1887 1.366 . S
C1888 C1889 1.414 . S
C1888 C1891 1.499 . S
C1889 H1863 0.950 . S
C1889 C1888 1.414 . S
C1889 C1890 1.374 . S
C1890 H1864 0.950 . S
C1890 C1886 1.385 . S
C1890 C1889 1.374 . S
C1891 C1888 1.499 . S
C1891 C1892 1.373 . S
C1891 C1893 1.389 . S
C1892 H1865 0.950 . S
C1892 C1878 1.377 . S
C1892 C1891 1.373 . S
C1893 C1877 1.377 . S
C1893 C1891 1.389 . S
C1893 C1894 1.524 . S
C1894 C1893 1.524 . S
C1894 C1895 1.397 . S
C1894 C1899 1.363 . S
C1895 H1866 0.950 . S
C1895 C1894 1.397 . S
C1895 C1896 1.334 . S
C1896 H1867 0.950 . S
C1896 C1895 1.334 . S
C1896 C1897 1.287 . S
C1897 C1896 1.287 . S
C1897 C1898 1.524 . S
C1897 H1900 0.999 . S
C1898 H1868 0.950 . S
C1898 C1897 1.524 . S
C1898 C1899 1.415 . S
C1899 H1869 0.950 . S
C1899 C1894 1.363 . S
C1899 C1898 1.415 . S
H1900 C1897 0.999 . S
H1901 C1882 0.913 . S
H1902 C1920 0.951 . S
H1903 C1922 0.951 . S
H1904 C1924 0.950 . S
H1905 C1925 0.950 . S
H1906 C1927 0.950 . S
H1907 C1930 0.950 . S
H1908 C1931 0.950 . S
H1909 C1933 0.950 . S
H1910 C1934 0.950 . S
H1911 C1935 0.951 . S
H1912 C1937 0.951 . S
H1913 C1939 0.950 . S
H1914 C1940 0.950 . S
H1915 C1942 0.950 . S
H1916 C1945 0.950 . S
H1917 C1946 0.950 . S
H1918 C1948 0.950 . S
H1919 C1949 0.950 . S
C1920 H1902 0.951 . S
C1920 C1921 1.366 . S
C1920 C1922 1.388 . S
C1921 C1920 1.366 . S
C1921 C1925 1.385 . S
C1922 H1903 0.951 . S
C1922 C1920 1.388 . S
C1922 C1923 1.366 . S
C1923 C1922 1.366 . S
C1923 C1924 1.414 . S
C1923 C1926 1.499 . S
C1924 H1904 0.950 . S
C1924 C1923 1.414 . S
C1924 C1925 1.374 . S
C1925 H1905 0.950 . S
C1925 C1921 1.385 . S
C1925 C1924 1.374 . S
C1926 C1923 1.499 . S
C1926 C1927 1.373 . S
C1926 C1928 1.389 . S
C1927 H1906 0.950 . S
C1927 C1926 1.373 . S
C1927 C1943 1.377 . S
C1928 C1926 1.389 . S
C1928 C1929 1.524 . S
C1928 C1942 1.377 . S
C1929 C1928 1.524 . S
C1929 C1930 1.397 . S
C1929 C1934 1.363 . S
C1930 H1907 0.950 . S
C1930 C1929 1.397 . S
C1930 C1931 1.334 . S
C1931 H1908 0.950 . S
C1931 C1930 1.334 . S
C1931 C1932 1.287 . S
C1932 C1931 1.287 . S
C1932 C1933 1.524 . S
C1932 H1951 0.913 . S
C1933 H1909 0.950 . S
C1933 C1932 1.524 . S
C1933 C1934 1.415 . S
C1934 H1910 0.950 . S
C1934 C1929 1.363 . S
C1934 C1933 1.415 . S
C1935 H1911 0.951 . S
C1935 C1936 1.366 . S
C1935 C1937 1.388 . S
C1936 C1935 1.366 . S
C1936 C1940 1.385 . S
C1937 H1912 0.951 . S
C1937 C1935 1.388 . S
C1937 C1938 1.366 . S
C1938 C1937 1.366 . S
C1938 C1939 1.414 . S
C1938 C1941 1.499 . S
C1939 H1913 0.950 . S
C1939 C1938 1.414 . S
C1939 C1940 1.374 . S
C1940 H1914 0.950 . S
C1940 C1936 1.385 . S
C1940 C1939 1.374 . S
C1941 C1938 1.499 . S
C1941 C1942 1.373 . S
C1941 C1943 1.389 . S
C1942 H1915 0.950 . S
C1942 C1928 1.377 . S
C1942 C1941 1.373 . S
C1943 C1927 1.377 . S
C1943 C1941 1.389 . S
C1943 C1944 1.524 . S
C1944 C1943 1.524 . S
C1944 C1945 1.397 . S
C1944 C1949 1.363 . S
C1945 H1916 0.950 . S
C1945 C1944 1.397 . S
C1945 C1946 1.334 . S
C1946 H1917 0.950 . S
C1946 C1945 1.334 . S
C1946 C1947 1.287 . S
C1947 C1946 1.287 . S
C1947 C1948 1.524 . S
C1947 H1950 0.999 . S
C1948 H1918 0.950 . S
C1948 C1947 1.524 . S
C1948 C1949 1.415 . S
C1949 H1919 0.950 . S
C1949 C1944 1.363 . S
C1949 C1948 1.415 . S
H1950 C1947 0.999 . S
H1951 C1932 0.913 . S
H1952 C1970 0.951 . S
H1953 C1972 0.951 . S
H1954 C1974 0.950 . S
H1955 C1975 0.950 . S
H1956 C1977 0.950 . S
H1957 C1980 0.950 . S
H1958 C1981 0.950 . S
H1959 C1983 0.950 . S
H1960 C1984 0.950 . S
H1961 C1985 0.951 . S
H1962 C1987 0.951 . S
H1963 C1989 0.950 . S
H1964 C1990 0.950 . S
H1965 C1992 0.950 . S
H1966 C1995 0.950 . S
H1967 C1996 0.950 . S
H1968 C1998 0.950 . S
H1969 C1999 0.950 . S
C1970 H1952 0.951 . S
C1970 C1971 1.366 . S
C1970 C1972 1.388 . S
C1971 C1970 1.366 . S
C1971 C1975 1.385 . S
C1972 H1953 0.951 . S
C1972 C1970 1.388 . S
C1972 C1973 1.366 . S
C1973 C1972 1.366 . S
C1973 C1974 1.414 . S
C1973 C1976 1.499 . S
C1974 H1954 0.950 . S
C1974 C1973 1.414 . S
C1974 C1975 1.374 . S
C1975 H1955 0.950 . S
C1975 C1971 1.385 . S
C1975 C1974 1.374 . S
C1976 C1973 1.499 . S
C1976 C1977 1.373 . S
C1976 C1978 1.389 . S
C1977 H1956 0.950 . S
C1977 C1976 1.373 . S
C1977 C1993 1.377 . S
C1978 C1976 1.389 . S
C1978 C1979 1.524 . S
C1978 C1992 1.377 . S
C1979 C1978 1.524 . S
C1979 C1980 1.397 . S
C1979 C1984 1.363 . S
C1980 H1957 0.950 . S
C1980 C1979 1.397 . S
C1980 C1981 1.334 . S
C1981 H1958 0.950 . S
C1981 C1980 1.334 . S
C1981 C1982 1.287 . S
C1982 C1981 1.287 . S
C1982 C1983 1.524 . S
C1982 H2001 0.913 . S
C1983 H1959 0.950 . S
C1983 C1982 1.524 . S
C1983 C1984 1.415 . S
C1984 H1960 0.950 . S
C1984 C1979 1.363 . S
C1984 C1983 1.415 . S
C1985 H1961 0.951 . S
C1985 C1986 1.366 . S
C1985 C1987 1.388 . S
C1986 C1985 1.366 . S
C1986 C1990 1.385 . S
C1987 H1962 0.951 . S
C1987 C1985 1.388 . S
C1987 C1988 1.366 . S
C1988 C1987 1.366 . S
C1988 C1989 1.414 . S
C1988 C1991 1.499 . S
C1989 H1963 0.950 . S
C1989 C1988 1.414 . S
C1989 C1990 1.374 . S
C1990 H1964 0.950 . S
C1990 C1986 1.385 . S
C1990 C1989 1.374 . S
C1991 C1988 1.499 . S
C1991 C1992 1.373 . S
C1991 C1993 1.389 . S
C1992 H1965 0.950 . S
C1992 C1978 1.377 . S
C1992 C1991 1.373 . S
C1993 C1977 1.377 . S
C1993 C1991 1.389 . S
C1993 C1994 1.524 . S
C1994 C1993 1.524 . S
C1994 C1995 1.397 . S
C1994 C1999 1.363 . S
C1995 H1966 0.950 . S
C1995 C1994 1.397 . S
C1995 C1996 1.334 . S
C1996 H1967 0.950 . S
C1996 C1995 1.334 . S
C1996 C1997 1.287 . S
C1997 C1996 1.287 . S
C1997 C1998 1.524 . S
C1997 H2000 0.999 . S
C1998 H1968 0.950 . S
C1998 C1997 1.524 . S
C1998 C1999 1.415 . S
C1999 H1969 0.950 . S
C1999 C1994 1.363 . S
C1999 C1998 1.415 . S
H2000 C1997 0.999 . S
H2001 C1982 0.913 . S
H2002 C2020 0.951 . S
H2003 C2022 0.951 . S
H2004 C2024 0.950 . S
H2005 C2025 0.950 . S
H2006 C2027 0.950 . S
H2007 C2030 0.950 . S
H2008 C2031 0.950 . S
H2009 C2033 0.950 . S
H2010 C2034 0.950 . S
H2011 C2035 0.951 . S
H2012 C2037 0.951 . S
H2013 C2039 0.950 . S
H2014 C2040 0.950 . S
H2015 C2042 0.950 . S
H2016 C2045 0.950 . S
H2017 C2046 0.950 . S
H2018 C2048 0.950 . S
H2019 C2049 0.950 . S
C2020 H2002 0.951 . S
C2020 C2021 1.366 . S
C2020 C2022 1.388 . S
C2021 C2020 1.366 . S
C2021 C2025 1.385 . S
C2022 H2003 0.951 . S
C2022 C2020 1.388 . S
C2022 C2023 1.366 . S
C2023 C2022 1.366 . S
C2023 C2024 1.414 . S
C2023 C2026 1.499 . S
C2024 H2004 0.950 . S
C2024 C2023 1.414 . S
C2024 C2025 1.374 . S
C2025 H2005 0.950 . S
C2025 C2021 1.385 . S
C2025 C2024 1.374 . S
C2026 C2023 1.499 . S
C2026 C2027 1.373 . S
C2026 C2028 1.389 . S
C2027 H2006 0.950 . S
C2027 C2026 1.373 . S
C2027 C2043 1.377 . S
C2028 C2026 1.389 . S
C2028 C2029 1.524 . S
C2028 C2042 1.377 . S
C2029 C2028 1.524 . S
C2029 C2030 1.397 . S
C2029 C2034 1.363 . S
C2030 H2007 0.950 . S
C2030 C2029 1.397 . S
C2030 C2031 1.334 . S
C2031 H2008 0.950 . S
C2031 C2030 1.334 . S
C2031 C2032 1.287 . S
C2032 C2031 1.287 . S
C2032 C2033 1.524 . S
C2032 H2051 0.913 . S
C2033 H2009 0.950 . S
C2033 C2032 1.524 . S
C2033 C2034 1.415 . S
C2034 H2010 0.950 . S
C2034 C2029 1.363 . S
C2034 C2033 1.415 . S
C2035 H2011 0.951 . S
C2035 C2036 1.366 . S
C2035 C2037 1.388 . S
C2036 C2035 1.366 . S
C2036 C2040 1.385 . S
C2037 H2012 0.951 . S
C2037 C2035 1.388 . S
C2037 C2038 1.366 . S
C2038 C2037 1.366 . S
C2038 C2039 1.414 . S
C2038 C2041 1.499 . S
C2039 H2013 0.950 . S
C2039 C2038 1.414 . S
C2039 C2040 1.374 . S
C2040 H2014 0.950 . S
C2040 C2036 1.385 . S
C2040 C2039 1.374 . S
C2041 C2038 1.499 . S
C2041 C2042 1.373 . S
C2041 C2043 1.389 . S
C2042 H2015 0.950 . S
C2042 C2028 1.377 . S
C2042 C2041 1.373 . S
C2043 C2027 1.377 . S
C2043 C2041 1.389 . S
C2043 C2044 1.524 . S
C2044 C2043 1.524 . S
C2044 C2045 1.397 . S
C2044 C2049 1.363 . S
C2045 H2016 0.950 . S
C2045 C2044 1.397 . S
C2045 C2046 1.334 . S
C2046 H2017 0.950 . S
C2046 C2045 1.334 . S
C2046 C2047 1.287 . S
C2047 C2046 1.287 . S
C2047 C2048 1.524 . S
C2047 H2050 0.999 . S
C2048 H2018 0.950 . S
C2048 C2047 1.524 . S
C2048 C2049 1.415 . S
C2049 H2019 0.950 . S
C2049 C2044 1.363 . S
C2049 C2048 1.415 . S
H2050 C2047 0.999 . S
H2051 C2032 0.913 . S
H2052 C2070 0.951 . S
H2053 C2072 0.951 . S
H2054 C2074 0.950 . S
H2055 C2075 0.950 . S
H2056 C2077 0.950 . S
H2057 C2080 0.950 . S
H2058 C2081 0.950 . S
H2059 C2083 0.950 . S
H2060 C2084 0.950 . S
H2061 C2085 0.951 . S
H2062 C2087 0.951 . S
H2063 C2089 0.950 . S
H2064 C2090 0.950 . S
H2065 C2092 0.950 . S
H2066 C2095 0.950 . S
H2067 C2096 0.950 . S
H2068 C2098 0.950 . S
H2069 C2099 0.950 . S
C2070 H2052 0.951 . S
C2070 C2071 1.366 . S
C2070 C2072 1.388 . S
C2071 C2070 1.366 . S
C2071 C2075 1.385 . S
C2072 H2053 0.951 . S
C2072 C2070 1.388 . S
C2072 C2073 1.366 . S
C2073 C2072 1.366 . S
C2073 C2074 1.414 . S
C2073 C2076 1.499 . S
C2074 H2054 0.950 . S
C2074 C2073 1.414 . S
C2074 C2075 1.374 . S
C2075 H2055 0.950 . S
C2075 C2071 1.385 . S
C2075 C2074 1.374 . S
C2076 C2073 1.499 . S
C2076 C2077 1.373 . S
C2076 C2078 1.389 . S
C2077 H2056 0.950 . S
C2077 C2076 1.373 . S
C2077 C2093 1.377 . S
C2078 C2076 1.389 . S
C2078 C2079 1.524 . S
C2078 C2092 1.377 . S
C2079 C2078 1.524 . S
C2079 C2080 1.397 . S
C2079 C2084 1.363 . S
C2080 H2057 0.950 . S
C2080 C2079 1.397 . S
C2080 C2081 1.334 . S
C2081 H2058 0.950 . S
C2081 C2080 1.334 . S
C2081 C2082 1.287 . S
C2082 C2081 1.287 . S
C2082 C2083 1.524 . S
C2082 H2101 0.913 . S
C2083 H2059 0.950 . S
C2083 C2082 1.524 . S
C2083 C2084 1.415 . S
C2084 H2060 0.950 . S
C2084 C2079 1.363 . S
C2084 C2083 1.415 . S
C2085 H2061 0.951 . S
C2085 C2086 1.366 . S
C2085 C2087 1.388 . S
C2086 C2085 1.366 . S
C2086 C2090 1.385 . S
C2087 H2062 0.951 . S
C2087 C2085 1.388 . S
C2087 C2088 1.366 . S
C2088 C2087 1.366 . S
C2088 C2089 1.414 . S
C2088 C2091 1.499 . S
C2089 H2063 0.950 . S
C2089 C2088 1.414 . S
C2089 C2090 1.374 . S
C2090 H2064 0.950 . S
C2090 C2086 1.385 . S
C2090 C2089 1.374 . S
C2091 C2088 1.499 . S
C2091 C2092 1.373 . S
C2091 C2093 1.389 . S
C2092 H2065 0.950 . S
C2092 C2078 1.377 . S
C2092 C2091 1.373 . S
C2093 C2077 1.377 . S
C2093 C2091 1.389 . S
C2093 C2094 1.524 . S
C2094 C2093 1.524 . S
C2094 C2095 1.397 . S
C2094 C2099 1.363 . S
C2095 H2066 0.950 . S
C2095 C2094 1.397 . S
C2095 C2096 1.334 . S
C2096 H2067 0.950 . S
C2096 C2095 1.334 . S
C2096 C2097 1.287 . S
C2097 C2096 1.287 . S
C2097 C2098 1.524 . S
C2097 H2100 0.999 . S
C2098 H2068 0.950 . S
C2098 C2097 1.524 . S
C2098 C2099 1.415 . S
C2099 H2069 0.950 . S
C2099 C2094 1.363 . S
C2099 C2098 1.415 . S
H2100 C2097 0.999 . S
H2101 C2082 0.913 . S
H2102 C2120 0.951 . S
H2103 C2122 0.951 . S
H2104 C2124 0.950 . S
H2105 C2125 0.950 . S
H2106 C2127 0.950 . S
H2107 C2130 0.950 . S
H2108 C2131 0.950 . S
H2109 C2133 0.950 . S
H2110 C2134 0.950 . S
H2111 C2135 0.951 . S
H2112 C2137 0.951 . S
H2113 C2139 0.950 . S
H2114 C2140 0.950 . S
H2115 C2142 0.950 . S
H2116 C2145 0.950 . S
H2117 C2146 0.950 . S
H2118 C2148 0.950 . S
H2119 C2149 0.950 . S
C2120 H2102 0.951 . S
C2120 C2121 1.366 . S
C2120 C2122 1.388 . S
C2121 C2120 1.366 . S
C2121 C2125 1.385 . S
C2122 H2103 0.951 . S
C2122 C2120 1.388 . S
C2122 C2123 1.366 . S
C2123 C2122 1.366 . S
C2123 C2124 1.414 . S
C2123 C2126 1.499 . S
C2124 H2104 0.950 . S
C2124 C2123 1.414 . S
C2124 C2125 1.374 . S
C2125 H2105 0.950 . S
C2125 C2121 1.385 . S
C2125 C2124 1.374 . S
C2126 C2123 1.499 . S
C2126 C2127 1.373 . S
C2126 C2128 1.389 . S
C2127 H2106 0.950 . S
C2127 C2126 1.373 . S
C2127 C2143 1.377 . S
C2128 C2126 1.389 . S
C2128 C2129 1.524 . S
C2128 C2142 1.377 . S
C2129 C2128 1.524 . S
C2129 C2130 1.397 . S
C2129 C2134 1.363 . S
C2130 H2107 0.950 . S
C2130 C2129 1.397 . S
C2130 C2131 1.334 . S
C2131 H2108 0.950 . S
C2131 C2130 1.334 . S
C2131 C2132 1.287 . S
C2132 C2131 1.287 . S
C2132 C2133 1.524 . S
C2132 H2151 0.913 . S
C2133 H2109 0.950 . S
C2133 C2132 1.524 . S
C2133 C2134 1.415 . S
C2134 H2110 0.950 . S
C2134 C2129 1.363 . S
C2134 C2133 1.415 . S
C2135 H2111 0.951 . S
C2135 C2136 1.366 . S
C2135 C2137 1.388 . S
C2136 C2135 1.366 . S
C2136 C2140 1.385 . S
C2137 H2112 0.951 . S
C2137 C2135 1.388 . S
C2137 C2138 1.366 . S
C2138 C2137 1.366 . S
C2138 C2139 1.414 . S
C2138 C2141 1.499 . S
C2139 H2113 0.950 . S
C2139 C2138 1.414 . S
C2139 C2140 1.374 . S
C2140 H2114 0.950 . S
C2140 C2136 1.385 . S
C2140 C2139 1.374 . S
C2141 C2138 1.499 . S
C2141 C2142 1.373 . S
C2141 C2143 1.389 . S
C2142 H2115 0.950 . S
C2142 C2128 1.377 . S
C2142 C2141 1.373 . S
C2143 C2127 1.377 . S
C2143 C2141 1.389 . S
C2143 C2144 1.524 . S
C2144 C2143 1.524 . S
C2144 C2145 1.397 . S
C2144 C2149 1.363 . S
C2145 H2116 0.950 . S
C2145 C2144 1.397 . S
C2145 C2146 1.334 . S
C2146 H2117 0.950 . S
C2146 C2145 1.334 . S
C2146 C2147 1.287 . S
C2147 C2146 1.287 . S
C2147 C2148 1.524 . S
C2147 H2150 0.999 . S
C2148 H2118 0.950 . S
C2148 C2147 1.524 . S
C2148 C2149 1.415 . S
C2149 H2119 0.950 . S
C2149 C2144 1.363 . S
C2149 C2148 1.415 . S
H2150 C2147 0.999 . S
H2151 C2132 0.913 . S
H2152 C2170 0.951 . S
H2153 C2172 0.951 . S
H2154 C2174 0.950 . S
H2155 C2175 0.950 . S
H2156 C2177 0.950 . S
H2157 C2180 0.950 . S
H2158 C2181 0.950 . S
H2159 C2183 0.950 . S
H2160 C2184 0.950 . S
H2161 C2185 0.951 . S
H2162 C2187 0.951 . S
H2163 C2189 0.950 . S
H2164 C2190 0.983 . S
H2165 C2192 0.950 . S
H2166 C2195 0.950 . S
H2167 C2196 0.950 1_556 S
H2168 C2198 0.950 . S
H2169 C2199 0.950 . S
C2170 H2152 0.951 . S
C2170 C2171 1.366 . S
C2170 C2172 1.388 . S
C2171 C2170 1.366 . S
C2171 C2175 1.385 . S
C2172 H2153 0.951 . S
C2172 C2170 1.388 . S
C2172 C2173 1.366 . S
C2173 C2172 1.366 . S
C2173 C2174 1.414 . S
C2173 C2176 1.499 . S
C2174 H2154 0.950 . S
C2174 C2173 1.414 . S
C2174 C2175 1.374 . S
C2175 H2155 0.950 . S
C2175 C2171 1.385 . S
C2175 C2174 1.374 . S
C2176 C2173 1.499 . S
C2176 C2177 1.373 . S
C2176 C2178 1.389 . S
C2177 H2156 0.950 . S
C2177 C2176 1.373 . S
C2177 C2193 1.377 . S
C2178 C2176 1.389 . S
C2178 C2179 1.524 . S
C2178 C2192 1.377 . S
C2179 C2178 1.524 . S
C2179 C2180 1.397 . S
C2179 C2184 1.363 . S
C2180 H2157 0.950 . S
C2180 C2179 1.397 . S
C2180 C2181 1.334 . S
C2181 H2158 0.950 . S
C2181 C2180 1.334 . S
C2181 C2182 1.287 . S
C2182 C2181 1.287 . S
C2182 C2183 1.524 . S
C2182 H2201 0.913 . S
C2183 H2159 0.950 . S
C2183 C2182 1.524 . S
C2183 C2184 1.415 . S
C2184 H2160 0.950 . S
C2184 C2179 1.363 . S
C2184 C2183 1.415 . S
C2185 H2161 0.951 . S
C2185 C2186 1.366 . S
C2185 C2187 1.388 . S
C2186 C2185 1.366 . S
C2186 C2190 1.385 . S
C2187 H2162 0.951 . S
C2187 C2185 1.388 . S
C2187 C2188 1.366 . S
C2188 C2187 1.366 . S
C2188 C2189 1.414 . S
C2188 C2191 1.499 . S
C2189 H2163 0.950 . S
C2189 C2188 1.414 . S
C2189 C2190 1.374 . S
C2190 H2164 0.983 . S
C2190 C2186 1.385 . S
C2190 C2189 1.374 . S
C2191 C2188 1.499 . S
C2191 C2192 1.373 . S
C2191 C2193 1.389 . S
C2192 H2165 0.950 . S
C2192 C2178 1.377 . S
C2192 C2191 1.373 . S
C2193 C2177 1.377 . S
C2193 C2191 1.389 . S
C2193 C2194 1.524 . S
C2194 C2193 1.524 . S
C2194 C2195 1.397 . S
C2194 C2199 1.363 . S
C2195 H2166 0.950 . S
C2195 C2194 1.397 . S
C2195 C2196 1.334 . S
C2196 H2167 0.950 1_554 S
C2196 C2195 1.334 . S
C2196 C2197 1.281 . S
C2197 C2196 1.281 . S
C2197 C2198 1.568 1_455 S
C2197 H2200 0.961 1_454 S
C2198 H2168 0.950 . S
C2198 C2197 1.568 1_655 S
C2198 C2199 1.415 1_655 S
C2199 H2169 0.950 . S
C2199 C2194 1.363 . S
C2199 C2198 1.415 1_455 S
H2200 C2197 0.961 1_656 S
H2201 C2182 0.913 . S
H2202 C2220 0.951 . S
H2203 C2222 0.951 . S
H2204 C2224 0.950 . S
H2205 C2225 0.950 . S
H2206 C2227 0.950 . S
H2207 C2230 0.950 . S
H2208 C2231 0.950 . S
H2209 C2233 0.950 . S
H2210 C2234 0.950 . S
H2211 C2235 0.951 . S
H2212 C2237 0.951 . S
H2213 C2239 0.950 . S
H2214 C2240 0.950 . S
H2215 C2242 0.950 . S
H2216 C2245 0.950 . S
H2217 C2246 0.950 . S
H2218 C2248 0.950 . S
H2219 C2249 0.950 . S
C2220 H2202 0.951 . S
C2220 C2221 1.366 . S
C2220 C2222 1.388 . S
C2221 C2220 1.366 . S
C2221 C2225 1.385 . S
C2222 H2203 0.951 . S
C2222 C2220 1.388 . S
C2222 C2223 1.366 . S
C2223 C2222 1.366 . S
C2223 C2224 1.414 . S
C2223 C2226 1.499 . S
C2224 H2204 0.950 . S
C2224 C2223 1.414 . S
C2224 C2225 1.374 . S
C2225 H2205 0.950 . S
C2225 C2221 1.385 . S
C2225 C2224 1.374 . S
C2226 C2223 1.499 . S
C2226 C2227 1.373 . S
C2226 C2228 1.389 . S
C2227 H2206 0.950 . S
C2227 C2226 1.373 . S
C2227 C2243 1.377 . S
C2228 C2226 1.389 . S
C2228 C2229 1.524 . S
C2228 C2242 1.377 . S
C2229 C2228 1.524 . S
C2229 C2230 1.397 . S
C2229 C2234 1.363 . S
C2230 H2207 0.950 . S
C2230 C2229 1.397 . S
C2230 C2231 1.334 . S
C2231 H2208 0.950 . S
C2231 C2230 1.334 . S
C2231 C2232 1.287 . S
C2232 C2231 1.287 . S
C2232 C2233 1.524 . S
C2232 H2251 0.913 . S
C2233 H2209 0.950 . S
C2233 C2232 1.524 . S
C2233 C2234 1.415 . S
C2234 H2210 0.950 . S
C2234 C2229 1.363 . S
C2234 C2233 1.415 . S
C2235 H2211 0.951 . S
C2235 C2236 1.366 . S
C2235 C2237 1.388 . S
C2236 C2235 1.366 . S
C2236 C2240 1.385 . S
C2237 H2212 0.951 . S
C2237 C2235 1.388 . S
C2237 C2238 1.366 . S
C2238 C2237 1.366 . S
C2238 C2239 1.414 . S
C2238 C2241 1.499 . S
C2239 H2213 0.950 . S
C2239 C2238 1.414 . S
C2239 C2240 1.374 . S
C2240 H2214 0.950 . S
C2240 C2236 1.385 . S
C2240 C2239 1.374 . S
C2241 C2238 1.499 . S
C2241 C2242 1.373 . S
C2241 C2243 1.389 . S
C2242 H2215 0.950 . S
C2242 C2228 1.377 . S
C2242 C2241 1.373 . S
C2243 C2227 1.377 . S
C2243 C2241 1.389 . S
C2243 C2244 1.524 . S
C2244 C2243 1.524 . S
C2244 C2245 1.397 . S
C2244 C2249 1.363 . S
C2245 H2216 0.950 . S
C2245 C2244 1.397 . S
C2245 C2246 1.334 . S
C2246 H2217 0.950 . S
C2246 C2245 1.334 . S
C2246 C2247 1.287 . S
C2247 C2246 1.287 . S
C2247 C2248 1.524 . S
C2247 H2250 0.999 . S
C2248 H2218 0.950 . S
C2248 C2247 1.524 . S
C2248 C2249 1.415 . S
C2249 H2219 0.950 . S
C2249 C2244 1.363 . S
C2249 C2248 1.415 . S
H2250 C2247 0.999 . S
H2251 C2232 0.913 . S
H2252 C2270 0.951 . S
H2253 C2272 0.951 . S
H2254 C2274 0.950 . S
H2255 C2275 0.950 . S
H2256 C2277 0.950 . S
H2257 C2280 0.950 . S
H2258 C2281 0.950 . S
H2259 C2283 0.950 . S
H2260 C2284 0.950 . S
H2261 C2285 0.951 . S
H2262 C2287 0.951 . S
H2263 C2289 0.950 . S
H2264 C2290 0.950 . S
H2265 C2292 0.950 . S
H2266 C2295 0.950 . S
H2267 C2296 0.950 . S
H2268 C2298 0.950 . S
H2269 C2299 0.950 . S
C2270 H2252 0.951 . S
C2270 C2271 1.366 . S
C2270 C2272 1.388 . S
C2271 C2270 1.366 . S
C2271 C2275 1.385 . S
C2272 H2253 0.951 . S
C2272 C2270 1.388 . S
C2272 C2273 1.366 . S
C2273 C2272 1.366 . S
C2273 C2274 1.414 . S
C2273 C2276 1.499 . S
C2274 H2254 0.950 . S
C2274 C2273 1.414 . S
C2274 C2275 1.374 . S
C2275 H2255 0.950 . S
C2275 C2271 1.385 . S
C2275 C2274 1.374 . S
C2276 C2273 1.499 . S
C2276 C2277 1.373 . S
C2276 C2278 1.389 . S
C2277 H2256 0.950 . S
C2277 C2276 1.373 . S
C2277 C2293 1.377 . S
C2278 C2276 1.389 . S
C2278 C2279 1.524 . S
C2278 C2292 1.377 . S
C2279 C2278 1.524 . S
C2279 C2280 1.397 . S
C2279 C2284 1.363 . S
C2280 H2257 0.950 . S
C2280 C2279 1.397 . S
C2280 C2281 1.334 . S
C2281 H2258 0.950 . S
C2281 C2280 1.334 . S
C2281 C2282 1.287 . S
C2282 C2281 1.287 . S
C2282 C2283 1.524 . S
C2282 H2301 0.913 . S
C2283 H2259 0.950 . S
C2283 C2282 1.524 . S
C2283 C2284 1.415 . S
C2284 H2260 0.950 . S
C2284 C2279 1.363 . S
C2284 C2283 1.415 . S
C2285 H2261 0.951 . S
C2285 C2286 1.366 . S
C2285 C2287 1.388 . S
C2286 C2285 1.366 . S
C2286 C2290 1.385 . S
C2287 H2262 0.951 . S
C2287 C2285 1.388 . S
C2287 C2288 1.366 . S
C2288 C2287 1.366 . S
C2288 C2289 1.414 . S
C2288 C2291 1.499 . S
C2289 H2263 0.950 . S
C2289 C2288 1.414 . S
C2289 C2290 1.374 . S
C2290 H2264 0.950 . S
C2290 C2286 1.385 . S
C2290 C2289 1.374 . S
C2291 C2288 1.499 . S
C2291 C2292 1.373 . S
C2291 C2293 1.389 . S
C2292 H2265 0.950 . S
C2292 C2278 1.377 . S
C2292 C2291 1.373 . S
C2293 C2277 1.377 . S
C2293 C2291 1.389 . S
C2293 C2294 1.524 . S
C2294 C2293 1.524 . S
C2294 C2295 1.397 . S
C2294 C2299 1.363 . S
C2295 H2266 0.950 . S
C2295 C2294 1.397 . S
C2295 C2296 1.334 . S
C2296 H2267 0.950 . S
C2296 C2295 1.334 . S
C2296 C2297 1.287 . S
C2297 C2296 1.287 . S
C2297 C2298 1.524 . S
C2297 H2300 0.999 . S
C2298 H2268 0.950 . S
C2298 C2297 1.524 . S
C2298 C2299 1.415 . S
C2299 H2269 0.950 . S
C2299 C2294 1.363 . S
C2299 C2298 1.415 . S
H2300 C2297 0.999 . S
H2301 C2282 0.913 . S
H2302 C2320 0.951 . S
H2303 C2322 0.951 . S
H2304 C2324 0.950 . S
H2305 C2325 0.950 . S
H2306 C2327 0.950 . S
H2307 C2330 0.950 . S
H2308 C2331 0.950 . S
H2309 C2333 0.950 . S
H2310 C2334 0.950 . S
H2311 C2335 0.951 . S
H2312 C2337 0.951 . S
H2313 C2339 0.950 . S
H2314 C2340 0.950 . S
H2315 C2342 0.950 . S
H2316 C2345 0.950 . S
H2317 C2346 0.950 . S
H2318 C2348 0.950 . S
H2319 C2349 0.950 . S
C2320 H2302 0.951 . S
C2320 C2321 1.366 . S
C2320 C2322 1.388 . S
C2321 C2320 1.366 . S
C2321 C2325 1.385 . S
C2322 H2303 0.951 . S
C2322 C2320 1.388 . S
C2322 C2323 1.366 . S
C2323 C2322 1.366 . S
C2323 C2324 1.414 . S
C2323 C2326 1.499 . S
C2324 H2304 0.950 . S
C2324 C2323 1.414 . S
C2324 C2325 1.374 . S
C2325 H2305 0.950 . S
C2325 C2321 1.385 . S
C2325 C2324 1.374 . S
C2326 C2323 1.499 . S
C2326 C2327 1.373 . S
C2326 C2328 1.389 . S
C2327 H2306 0.950 . S
C2327 C2326 1.373 . S
C2327 C2343 1.377 . S
C2328 C2326 1.389 . S
C2328 C2329 1.524 . S
C2328 C2342 1.377 . S
C2329 C2328 1.524 . S
C2329 C2330 1.397 . S
C2329 C2334 1.363 . S
C2330 H2307 0.950 . S
C2330 C2329 1.397 . S
C2330 C2331 1.334 . S
C2331 H2308 0.950 . S
C2331 C2330 1.334 . S
C2331 C2332 1.287 . S
C2332 C2331 1.287 . S
C2332 C2333 1.524 . S
C2332 H2351 0.913 . S
C2333 H2309 0.950 . S
C2333 C2332 1.524 . S
C2333 C2334 1.415 . S
C2334 H2310 0.950 . S
C2334 C2329 1.363 . S
C2334 C2333 1.415 . S
C2335 H2311 0.951 . S
C2335 C2336 1.366 . S
C2335 C2337 1.388 . S
C2336 C2335 1.366 . S
C2336 C2340 1.385 . S
C2337 H2312 0.951 . S
C2337 C2335 1.388 . S
C2337 C2338 1.366 . S
C2338 C2337 1.366 . S
C2338 C2339 1.414 . S
C2338 C2341 1.499 . S
C2339 H2313 0.950 . S
C2339 C2338 1.414 . S
C2339 C2340 1.374 . S
C2340 H2314 0.950 . S
C2340 C2336 1.385 . S
C2340 C2339 1.374 . S
C2341 C2338 1.499 . S
C2341 C2342 1.373 . S
C2341 C2343 1.389 . S
C2342 H2315 0.950 . S
C2342 C2328 1.377 . S
C2342 C2341 1.373 . S
C2343 C2327 1.377 . S
C2343 C2341 1.389 . S
C2343 C2344 1.524 . S
C2344 C2343 1.524 . S
C2344 C2345 1.397 . S
C2344 C2349 1.363 . S
C2345 H2316 0.950 . S
C2345 C2344 1.397 . S
C2345 C2346 1.334 . S
C2346 H2317 0.950 . S
C2346 C2345 1.334 . S
C2346 C2347 1.287 . S
C2347 C2346 1.287 . S
C2347 C2348 1.524 . S
C2347 H2350 0.999 . S
C2348 H2318 0.950 . S
C2348 C2347 1.524 . S
C2348 C2349 1.415 . S
C2349 H2319 0.950 . S
C2349 C2344 1.363 . S
C2349 C2348 1.415 . S
H2350 C2347 0.999 . S
H2351 C2332 0.913 . S
H2352 C2370 0.951 . S
H2353 C2372 0.951 . S
H2354 C2374 0.950 . S
H2355 C2375 0.950 . S
H2356 C2377 0.950 . S
H2357 C2380 0.950 . S
H2358 C2381 0.950 . S
H2359 C2383 0.950 . S
H2360 C2384 0.950 . S
H2361 C2385 0.904 1_655 S
H2362 C2387 0.951 1_655 S
H2363 C2389 0.950 . S
H2364 C2390 0.950 . S
H2365 C2392 0.950 . S
H2366 C2395 0.950 . S
H2367 C2396 0.950 . S
H2368 C2398 0.950 1_655 S
H2369 C2399 0.950 1_655 S
C2370 H2352 0.951 . S
C2370 C2371 1.366 . S
C2370 C2372 1.388 . S
C2371 C2370 1.366 . S
C2371 C2375 1.385 1_455 S
C2372 H2353 0.951 . S
C2372 C2370 1.388 . S
C2372 C2373 1.366 . S
C2373 C2372 1.366 . S
C2373 C2374 1.414 1_455 S
C2373 C2376 1.499 . S
C2374 H2354 0.950 . S
C2374 C2373 1.414 1_655 S
C2374 C2375 1.374 . S
C2375 H2355 0.950 . S
C2375 C2371 1.385 1_655 S
C2375 C2374 1.374 . S
C2376 C2373 1.499 . S
C2376 C2377 1.373 . S
C2376 C2378 1.389 . S
C2377 H2356 0.950 . S
C2377 C2376 1.373 . S
C2377 C2393 1.377 . S
C2378 C2376 1.389 . S
C2378 C2379 1.524 . S
C2378 C2392 1.377 . S
C2379 C2378 1.524 . S
C2379 C2380 1.397 1_455 S
C2379 C2384 1.363 . S
C2380 H2357 0.950 . S
C2380 C2379 1.397 1_655 S
C2380 C2381 1.334 . S
C2381 H2358 0.950 . S
C2381 C2380 1.334 . S
C2381 C2382 1.287 1_655 S
C2382 C2381 1.287 1_455 S
C2382 C2383 1.524 . S
C2382 H2401 0.913 . S
C2383 H2359 0.950 . S
C2383 C2382 1.524 . S
C2383 C2384 1.415 . S
C2384 H2360 0.950 . S
C2384 C2379 1.363 . S
C2384 C2383 1.415 . S
C2385 H2361 0.904 1_455 S
C2385 C2386 1.366 . S
C2385 C2387 1.388 . S
C2386 C2385 1.366 . S
C2386 C2390 1.385 . S
C2387 H2362 0.951 1_455 S
C2387 C2385 1.388 . S
C2387 C2388 1.366 . S
C2388 C2387 1.366 . S
C2388 C2389 1.414 . S
C2388 C2391 1.499 . S
C2389 H2363 0.950 . S
C2389 C2388 1.414 . S
C2389 C2390 1.374 . S
C2390 H2364 0.950 . S
C2390 C2386 1.385 . S
C2390 C2389 1.374 . S
C2391 C2388 1.499 . S
C2391 C2392 1.373 . S
C2391 C2393 1.389 . S
C2392 H2365 0.950 . S
C2392 C2378 1.377 . S
C2392 C2391 1.373 . S
C2393 C2377 1.377 . S
C2393 C2391 1.389 . S
C2393 C2394 1.524 . S
C2394 C2393 1.524 . S
C2394 C2395 1.397 . S
C2394 C2399 1.363 . S
C2395 H2366 0.950 . S
C2395 C2394 1.397 . S
C2395 C2396 1.334 . S
C2396 H2367 0.950 . S
C2396 C2395 1.334 . S
C2396 C2397 1.287 . S
C2397 C2396 1.287 . S
C2397 C2398 1.524 . S
C2397 H2400 0.999 . S
C2398 H2368 0.950 1_455 S
C2398 C2397 1.524 . S
C2398 C2399 1.415 . S
C2399 H2369 0.950 1_455 S
C2399 C2394 1.363 . S
C2399 C2398 1.415 . S
H2400 C2397 0.999 . S
H2401 C2382 0.913 . S
H2402 C2420 0.951 . S
H2403 C2422 0.951 . S
H2404 C2424 0.950 . S
H2405 C2425 0.950 . S
H2406 C2427 0.950 . S
H2407 C2430 0.950 . S
H2408 C2431 0.950 . S
H2409 C2433 0.950 . S
H2410 C2434 0.950 . S
H2411 C2435 0.951 . S
H2412 C2437 0.951 . S
H2413 C2439 0.950 . S
H2414 C2440 0.950 . S
H2415 C2442 0.950 . S
H2416 C2445 0.950 . S
H2417 C2446 0.950 . S
H2418 C2448 0.950 . S
H2419 C2449 0.950 . S
C2420 H2402 0.951 . S
C2420 C2421 1.366 . S
C2420 C2422 1.388 . S
C2421 C2420 1.366 . S
C2421 C2425 1.385 . S
C2422 H2403 0.951 . S
C2422 C2420 1.388 . S
C2422 C2423 1.366 . S
C2423 C2422 1.366 . S
C2423 C2424 1.414 . S
C2423 C2426 1.499 . S
C2424 H2404 0.950 . S
C2424 C2423 1.414 . S
C2424 C2425 1.374 . S
C2425 H2405 0.950 . S
C2425 C2421 1.385 . S
C2425 C2424 1.374 . S
C2426 C2423 1.499 . S
C2426 C2427 1.373 . S
C2426 C2428 1.389 . S
C2427 H2406 0.950 . S
C2427 C2426 1.373 . S
C2427 C2443 1.377 . S
C2428 C2426 1.389 . S
C2428 C2429 1.524 . S
C2428 C2442 1.377 . S
C2429 C2428 1.524 . S
C2429 C2430 1.397 . S
C2429 C2434 1.363 . S
C2430 H2407 0.950 . S
C2430 C2429 1.397 . S
C2430 C2431 1.334 . S
C2431 H2408 0.950 . S
C2431 C2430 1.334 . S
C2431 C2432 1.287 . S
C2432 C2431 1.287 . S
C2432 C2433 1.524 . S
C2432 H2451 0.913 . S
C2433 H2409 0.950 . S
C2433 C2432 1.524 . S
C2433 C2434 1.415 . S
C2434 H2410 0.950 . S
C2434 C2429 1.363 . S
C2434 C2433 1.415 . S
C2435 H2411 0.951 . S
C2435 C2436 1.366 . S
C2435 C2437 1.388 . S
C2436 C2435 1.366 . S
C2436 C2440 1.385 . S
C2437 H2412 0.951 . S
C2437 C2435 1.388 . S
C2437 C2438 1.366 . S
C2438 C2437 1.366 . S
C2438 C2439 1.414 . S
C2438 C2441 1.499 . S
C2439 H2413 0.950 . S
C2439 C2438 1.414 . S
C2439 C2440 1.374 . S
C2440 H2414 0.950 . S
C2440 C2436 1.385 . S
C2440 C2439 1.374 . S
C2441 C2438 1.499 . S
C2441 C2442 1.373 . S
C2441 C2443 1.389 . S
C2442 H2415 0.950 . S
C2442 C2428 1.377 . S
C2442 C2441 1.373 . S
C2443 C2427 1.377 . S
C2443 C2441 1.389 . S
C2443 C2444 1.524 . S
C2444 C2443 1.524 . S
C2444 C2445 1.397 . S
C2444 C2449 1.363 . S
C2445 H2416 0.950 . S
C2445 C2444 1.397 . S
C2445 C2446 1.334 . S
C2446 H2417 0.950 . S
C2446 C2445 1.334 . S
C2446 C2447 1.287 . S
C2447 C2446 1.287 . S
C2447 C2448 1.524 . S
C2447 H2450 0.999 . S
C2448 H2418 0.950 . S
C2448 C2447 1.524 . S
C2448 C2449 1.415 . S
C2449 H2419 0.950 . S
C2449 C2444 1.363 . S
C2449 C2448 1.415 . S
H2450 C2447 0.999 . S
H2451 C2432 0.913 . S
H2452 C2470 0.951 . S
H2453 C2472 0.951 . S
H2454 C2474 0.950 . S
H2455 C2475 0.950 . S
H2456 C2477 0.950 . S
H2457 C2480 0.950 . S
H2458 C2481 0.950 . S
H2459 C2483 0.950 . S
H2460 C2484 0.950 . S
H2461 C2485 0.951 1_545 S
H2462 C2487 0.951 . S
H2463 C2489 0.950 . S
H2464 C2490 0.950 . S
H2465 C2492 0.950 . S
H2466 C2495 0.950 . S
H2467 C2496 0.950 . S
H2468 C2498 0.950 . S
H2469 C2499 0.950 . S
C2470 H2452 0.951 . S
C2470 C2471 1.366 . S
C2470 C2472 1.388 . S
C2471 C2470 1.366 . S
C2471 C2475 1.385 . S
C2472 H2453 0.951 . S
C2472 C2470 1.388 . S
C2472 C2473 1.366 . S
C2473 C2472 1.366 . S
C2473 C2474 1.414 . S
C2473 C2476 1.499 . S
C2474 H2454 0.950 . S
C2474 C2473 1.414 . S
C2474 C2475 1.374 . S
C2475 H2455 0.950 . S
C2475 C2471 1.385 . S
C2475 C2474 1.374 . S
C2476 C2473 1.499 . S
C2476 C2477 1.373 . S
C2476 C2478 1.389 . S
C2477 H2456 0.950 . S
C2477 C2476 1.373 . S
C2477 C2493 1.377 . S
C2478 C2476 1.389 . S
C2478 C2479 1.524 . S
C2478 C2492 1.377 . S
C2479 C2478 1.524 . S
C2479 C2480 1.397 . S
C2479 C2484 1.363 . S
C2480 H2457 0.950 . S
C2480 C2479 1.397 . S
C2480 C2481 1.334 . S
C2481 H2458 0.950 . S
C2481 C2480 1.334 . S
C2481 C2482 1.287 . S
C2482 C2481 1.287 . S
C2482 C2483 1.524 . S
C2482 H2501 0.913 . S
C2483 H2459 0.950 . S
C2483 C2482 1.524 . S
C2483 C2484 1.415 . S
C2484 H2460 0.950 . S
C2484 C2479 1.363 . S
C2484 C2483 1.415 . S
C2485 H2461 0.951 1_565 S
C2485 C2486 1.376 1_556 S
C2485 C2487 1.388 . S
C2486 C2485 1.376 1_554 S
C2486 C2490 1.423 . S
C2487 H2462 0.951 . S
C2487 C2485 1.388 . S
C2487 C2488 1.366 . S
C2488 C2487 1.366 . S
C2488 C2489 1.414 1_556 S
C2488 C2491 1.499 . S
C2489 H2463 0.950 . S
C2489 C2488 1.414 1_554 S
C2489 C2490 1.374 . S
C2490 H2464 0.950 . S
C2490 C2486 1.423 . S
C2490 C2489 1.374 . S
C2491 C2488 1.499 . S
C2491 C2492 1.373 . S
C2491 C2493 1.389 . S
C2492 H2465 0.950 . S
C2492 C2478 1.377 . S
C2492 C2491 1.373 . S
C2493 C2477 1.377 . S
C2493 C2491 1.389 . S
C2493 C2494 1.524 . S
C2494 C2493 1.524 . S
C2494 C2495 1.397 1_556 S
C2494 C2499 1.363 . S
C2495 H2466 0.950 . S
C2495 C2494 1.397 1_554 S
C2495 C2496 1.334 . S
C2496 H2467 0.950 . S
C2496 C2495 1.334 . S
C2496 C2497 1.287 1_554 S
C2497 C2496 1.287 1_556 S
C2497 C2498 1.524 . S
C2497 H2500 0.996 1_556 S
C2498 H2468 0.950 . S
C2498 C2497 1.524 . S
C2498 C2499 1.415 . S
C2499 H2469 0.950 . S
C2499 C2494 1.363 . S
C2499 C2498 1.415 . S
H2500 C2497 0.996 1_554 S
H2501 C2482 0.913 . S
H2502 C2520 0.951 . S
H2503 C2522 0.951 . S
H2504 C2524 0.950 . S
H2505 C2525 0.950 . S
H2506 C2527 0.950 . S
H2507 C2530 0.950 . S
H2508 C2531 0.950 1_455 S
H2509 C2533 0.950 . S
H2510 C2534 0.950 . S
H2511 C2535 0.951 . S
H2512 C2537 0.951 . S
H2513 C2539 0.950 . S
H2514 C2540 0.950 . S
H2515 C2542 0.950 . S
H2516 C2545 0.950 . S
H2517 C2546 0.950 . S
H2518 C2548 0.950 . S
H2519 C2549 0.950 . S
C2520 H2502 0.951 . S
C2520 C2521 1.366 . S
C2520 C2522 1.388 1_455 S
C2521 C2520 1.366 . S
C2521 C2525 1.385 . S
C2522 H2503 0.951 . S
C2522 C2520 1.388 1_655 S
C2522 C2523 1.366 . S
C2523 C2522 1.366 . S
C2523 C2524 1.414 1_655 S
C2523 C2526 1.499 . S
C2524 H2504 0.950 . S
C2524 C2523 1.414 1_455 S
C2524 C2525 1.374 . S
C2525 H2505 0.950 . S
C2525 C2521 1.385 . S
C2525 C2524 1.374 . S
C2526 C2523 1.499 . S
C2526 C2527 1.373 . S
C2526 C2528 1.389 . S
C2527 H2506 0.950 . S
C2527 C2526 1.373 . S
C2527 C2543 1.377 . S
C2528 C2526 1.389 . S
C2528 C2529 1.524 . S
C2528 C2542 1.377 . S
C2529 C2528 1.524 . S
C2529 C2530 1.397 . S
C2529 C2534 1.363 . S
C2530 H2507 0.950 . S
C2530 C2529 1.397 . S
C2530 C2531 1.334 . S
C2531 H2508 0.950 1_655 S
C2531 C2530 1.334 . S
C2531 C2532 1.287 . S
C2532 C2531 1.287 . S
C2532 C2533 1.524 . S
C2532 H2551 0.913 . S
C2533 H2509 0.950 . S
C2533 C2532 1.524 . S
C2533 C2534 1.415 . S
C2534 H2510 0.950 . S
C2534 C2529 1.363 . S
C2534 C2533 1.415 . S
C2535 H2511 0.951 . S
C2535 C2536 1.366 . S
C2535 C2537 1.388 . S
C2536 C2535 1.366 . S
C2536 C2540 1.385 . S
C2537 H2512 0.951 . S
C2537 C2535 1.388 . S
C2537 C2538 1.366 . S
C2538 C2537 1.366 . S
C2538 C2539 1.414 . S
C2538 C2541 1.499 . S
C2539 H2513 0.950 . S
C2539 C2538 1.414 . S
C2539 C2540 1.374 . S
C2540 H2514 0.950 . S
C2540 C2536 1.385 . S
C2540 C2539 1.374 . S
C2541 C2538 1.499 . S
C2541 C2542 1.373 . S
C2541 C2543 1.389 . S
C2542 H2515 0.950 . S
C2542 C2528 1.377 . S
C2542 C2541 1.373 . S
C2543 C2527 1.377 . S
C2543 C2541 1.389 . S
C2543 C2544 1.524 . S
C2544 C2543 1.524 . S
C2544 C2545 1.397 . S
C2544 C2549 1.363 . S
C2545 H2516 0.950 . S
C2545 C2544 1.397 . S
C2545 C2546 1.334 . S
C2546 H2517 0.950 . S
C2546 C2545 1.334 . S
C2546 C2547 1.287 . S
C2547 C2546 1.287 . S
C2547 C2548 1.524 . S
C2547 H2550 0.999 . S
C2548 H2518 0.950 . S
C2548 C2547 1.524 . S
C2548 C2549 1.415 . S
C2549 H2519 0.950 . S
C2549 C2544 1.363 . S
C2549 C2548 1.415 . S
H2550 C2547 0.999 . S
H2551 C2532 0.913 . S
H2552 C2570 0.951 . S
H2553 C2572 0.951 . S
H2554 C2574 0.950 . S
H2555 C2575 0.950 . S
H2556 C2577 0.950 . S
H2557 C2580 0.950 . S
H2558 C2581 0.950 . S
H2559 C2583 0.950 . S
H2560 C2584 0.950 . S
H2561 C2585 0.951 . S
H2562 C2587 0.951 . S
H2563 C2589 0.950 . S
H2564 C2590 0.950 . S
H2565 C2592 0.950 . S
H2566 C2595 0.950 . S
H2567 C2596 0.950 . S
H2568 C2598 0.950 . S
H2569 C2599 0.950 . S
C2570 H2552 0.951 . S
C2570 C2571 1.366 . S
C2570 C2572 1.388 . S
C2571 C2570 1.366 . S
C2571 C2575 1.385 . S
C2572 H2553 0.951 . S
C2572 C2570 1.388 . S
C2572 C2573 1.366 . S
C2573 C2572 1.366 . S
C2573 C2574 1.414 . S
C2573 C2576 1.499 . S
C2574 H2554 0.950 . S
C2574 C2573 1.414 . S
C2574 C2575 1.374 . S
C2575 H2555 0.950 . S
C2575 C2571 1.385 . S
C2575 C2574 1.374 . S
C2576 C2573 1.499 . S
C2576 C2577 1.373 . S
C2576 C2578 1.389 . S
C2577 H2556 0.950 . S
C2577 C2576 1.373 . S
C2577 C2593 1.377 . S
C2578 C2576 1.389 . S
C2578 C2579 1.524 . S
C2578 C2592 1.377 . S
C2579 C2578 1.524 . S
C2579 C2580 1.397 . S
C2579 C2584 1.363 . S
C2580 H2557 0.950 . S
C2580 C2579 1.397 . S
C2580 C2581 1.334 . S
C2581 H2558 0.950 . S
C2581 C2580 1.334 . S
C2581 C2582 1.287 1_545 S
C2582 C2581 1.287 1_565 S
C2582 C2583 1.524 . S
C2582 H2601 0.913 . S
C2583 H2559 0.950 . S
C2583 C2582 1.524 . S
C2583 C2584 1.415 1_565 S
C2584 H2560 0.950 . S
C2584 C2579 1.363 . S
C2584 C2583 1.415 1_545 S
C2585 H2561 0.951 . S
C2585 C2586 1.366 . S
C2585 C2587 1.388 . S
C2586 C2585 1.366 . S
C2586 C2590 1.385 . S
C2587 H2562 0.951 . S
C2587 C2585 1.388 . S
C2587 C2588 1.366 . S
C2588 C2587 1.366 . S
C2588 C2589 1.414 . S
C2588 C2591 1.499 . S
C2589 H2563 0.950 . S
C2589 C2588 1.414 . S
C2589 C2590 1.374 . S
C2590 H2564 0.950 . S
C2590 C2586 1.385 . S
C2590 C2589 1.374 . S
C2591 C2588 1.499 . S
C2591 C2592 1.373 . S
C2591 C2593 1.389 . S
C2592 H2565 0.950 . S
C2592 C2578 1.377 . S
C2592 C2591 1.373 . S
C2593 C2577 1.377 . S
C2593 C2591 1.389 . S
C2593 C2594 1.524 . S
C2594 C2593 1.524 . S
C2594 C2595 1.397 . S
C2594 C2599 1.363 . S
C2595 H2566 0.950 . S
C2595 C2594 1.397 . S
C2595 C2596 1.334 . S
C2596 H2567 0.950 . S
C2596 C2595 1.334 . S
C2596 C2597 1.287 . S
C2597 C2596 1.287 . S
C2597 C2598 1.524 . S
C2597 H2600 0.999 . S
C2598 H2568 0.950 . S
C2598 C2597 1.524 . S
C2598 C2599 1.415 . S
C2599 H2569 0.950 . S
C2599 C2594 1.363 . S
C2599 C2598 1.415 . S
H2600 C2597 0.999 . S
H2601 C2582 0.913 . S
H2602 C2620 0.951 . S
H2603 C2622 0.951 . S
H2604 C2624 0.950 . S
H2605 C2625 0.950 . S
H2606 C2627 0.950 . S
H2607 C2630 0.950 . S
H2608 C2631 0.950 . S
H2609 C2633 0.950 . S
H2610 C2634 0.950 . S
H2611 C2635 0.951 . S
H2612 C2637 0.951 . S
H2613 C2639 0.950 . S
H2614 C2640 0.950 . S
H2615 C2642 0.950 . S
H2616 C2645 0.950 . S
H2617 C2646 0.950 . S
H2618 C2648 0.950 . S
H2619 C2649 0.950 . S
C2620 H2602 0.951 . S
C2620 C2621 1.366 . S
C2620 C2622 1.388 . S
C2621 C2620 1.366 . S
C2621 C2625 1.385 . S
C2622 H2603 0.951 . S
C2622 C2620 1.388 . S
C2622 C2623 1.366 . S
C2623 C2622 1.366 . S
C2623 C2624 1.414 . S
C2623 C2626 1.499 . S
C2624 H2604 0.950 . S
C2624 C2623 1.414 . S
C2624 C2625 1.374 . S
C2625 H2605 0.950 . S
C2625 C2621 1.385 . S
C2625 C2624 1.374 . S
C2626 C2623 1.499 . S
C2626 C2627 1.373 . S
C2626 C2628 1.389 . S
C2627 H2606 0.950 . S
C2627 C2626 1.373 . S
C2627 C2643 1.377 . S
C2628 C2626 1.389 . S
C2628 C2629 1.524 . S
C2628 C2642 1.377 . S
C2629 C2628 1.524 . S
C2629 C2630 1.397 . S
C2629 C2634 1.363 . S
C2630 H2607 0.950 . S
C2630 C2629 1.397 . S
C2630 C2631 1.334 . S
C2631 H2608 0.950 . S
C2631 C2630 1.334 . S
C2631 C2632 1.287 . S
C2632 C2631 1.287 . S
C2632 C2633 1.524 . S
C2632 H2651 0.913 . S
C2633 H2609 0.950 . S
C2633 C2632 1.524 . S
C2633 C2634 1.415 . S
C2634 H2610 0.950 . S
C2634 C2629 1.363 . S
C2634 C2633 1.415 . S
C2635 H2611 0.951 . S
C2635 C2636 1.366 . S
C2635 C2637 1.388 . S
C2636 C2635 1.366 . S
C2636 C2640 1.385 . S
C2637 H2612 0.951 . S
C2637 C2635 1.388 . S
C2637 C2638 1.366 . S
C2638 C2637 1.366 . S
C2638 C2639 1.414 . S
C2638 C2641 1.499 . S
C2639 H2613 0.950 . S
C2639 C2638 1.414 . S
C2639 C2640 1.374 . S
C2640 H2614 0.950 . S
C2640 C2636 1.385 . S
C2640 C2639 1.374 . S
C2641 C2638 1.499 . S
C2641 C2642 1.373 . S
C2641 C2643 1.389 . S
C2642 H2615 0.950 . S
C2642 C2628 1.377 . S
C2642 C2641 1.373 . S
C2643 C2627 1.377 . S
C2643 C2641 1.389 . S
C2643 C2644 1.524 . S
C2644 C2643 1.524 . S
C2644 C2645 1.397 . S
C2644 C2649 1.363 . S
C2645 H2616 0.950 . S
C2645 C2644 1.397 . S
C2645 C2646 1.334 . S
C2646 H2617 0.950 . S
C2646 C2645 1.334 . S
C2646 C2647 1.287 . S
C2647 C2646 1.287 . S
C2647 C2648 1.524 . S
C2647 H2650 0.999 . S
C2648 H2618 0.950 . S
C2648 C2647 1.524 . S
C2648 C2649 1.415 . S
C2649 H2619 0.950 . S
C2649 C2644 1.363 . S
C2649 C2648 1.415 . S
H2650 C2647 0.999 . S
H2651 C2632 0.913 . S
H2652 C2670 0.951 . S
H2653 C2672 0.951 . S
H2654 C2674 0.950 . S
H2655 C2675 0.950 . S
H2656 C2677 0.950 . S
H2657 C2680 0.950 . S
H2658 C2681 0.950 . S
H2659 C2683 0.950 . S
H2660 C2684 0.950 . S
H2661 C2685 0.951 . S
H2662 C2687 0.951 . S
H2663 C2689 0.950 . S
H2664 C2690 0.950 . S
H2665 C2692 0.950 . S
H2666 C2695 0.950 . S
H2667 C2696 0.950 . S
H2668 C2698 0.950 . S
H2669 C2699 0.950 . S
C2670 H2652 0.951 . S
C2670 C2671 1.366 . S
C2670 C2672 1.388 . S
C2671 C2670 1.366 . S
C2671 C2675 1.385 . S
C2672 H2653 0.951 . S
C2672 C2670 1.388 . S
C2672 C2673 1.366 . S
C2673 C2672 1.366 . S
C2673 C2674 1.414 . S
C2673 C2676 1.499 . S
C2674 H2654 0.950 . S
C2674 C2673 1.414 . S
C2674 C2675 1.374 . S
C2675 H2655 0.950 . S
C2675 C2671 1.385 . S
C2675 C2674 1.374 . S
C2676 C2673 1.499 . S
C2676 C2677 1.373 . S
C2676 C2678 1.389 . S
C2677 H2656 0.950 . S
C2677 C2676 1.373 . S
C2677 C2693 1.377 . S
C2678 C2676 1.389 . S
C2678 C2679 1.524 . S
C2678 C2692 1.377 . S
C2679 C2678 1.524 . S
C2679 C2680 1.397 . S
C2679 C2684 1.363 . S
C2680 H2657 0.950 . S
C2680 C2679 1.397 . S
C2680 C2681 1.334 . S
C2681 H2658 0.950 . S
C2681 C2680 1.334 . S
C2681 C2682 1.287 . S
C2682 C2681 1.287 . S
C2682 C2683 1.524 . S
C2682 H2701 0.913 . S
C2683 H2659 0.950 . S
C2683 C2682 1.524 . S
C2683 C2684 1.415 . S
C2684 H2660 0.950 . S
C2684 C2679 1.363 . S
C2684 C2683 1.415 . S
C2685 H2661 0.951 . S
C2685 C2686 1.366 . S
C2685 C2687 1.388 . S
C2686 C2685 1.366 . S
C2686 C2690 1.385 . S
C2687 H2662 0.951 . S
C2687 C2685 1.388 . S
C2687 C2688 1.366 . S
C2688 C2687 1.366 . S
C2688 C2689 1.414 . S
C2688 C2691 1.499 . S
C2689 H2663 0.950 . S
C2689 C2688 1.414 . S
C2689 C2690 1.374 . S
C2690 H2664 0.950 . S
C2690 C2686 1.385 . S
C2690 C2689 1.374 . S
C2691 C2688 1.499 . S
C2691 C2692 1.373 . S
C2691 C2693 1.389 . S
C2692 H2665 0.950 . S
C2692 C2678 1.377 . S
C2692 C2691 1.373 . S
C2693 C2677 1.377 . S
C2693 C2691 1.389 . S
C2693 C2694 1.524 . S
C2694 C2693 1.524 . S
C2694 C2695 1.397 . S
C2694 C2699 1.363 . S
C2695 H2666 0.950 . S
C2695 C2694 1.397 . S
C2695 C2696 1.334 . S
C2696 H2667 0.950 . S
C2696 C2695 1.334 . S
C2696 C2697 1.287 . S
C2697 C2696 1.287 . S
C2697 C2698 1.524 . S
C2697 H2700 0.999 . S
C2698 H2668 0.950 . S
C2698 C2697 1.524 . S
C2698 C2699 1.415 . S
C2699 H2669 0.950 . S
C2699 C2694 1.363 . S
C2699 C2698 1.415 . S
H2700 C2697 0.999 . S
H2701 C2682 0.913 . S
H2702 C2720 0.951 . S
H2703 C2722 0.951 . S
H2704 C2724 0.950 . S
H2705 C2725 0.950 . S
H2706 C2727 0.950 . S
H2707 C2730 0.950 . S
H2708 C2731 0.950 . S
H2709 C2733 0.950 . S
H2710 C2734 0.950 . S
H2711 C2735 0.951 . S
H2712 C2737 0.951 . S
H2713 C2739 0.950 . S
H2714 C2740 0.950 . S
H2715 C2742 0.950 . S
H2716 C2745 0.950 . S
H2717 C2746 0.950 . S
H2718 C2748 0.950 . S
H2719 C2749 0.950 . S
C2720 H2702 0.951 . S
C2720 C2721 1.366 . S
C2720 C2722 1.388 . S
C2721 C2720 1.366 . S
C2721 C2725 1.385 . S
C2722 H2703 0.951 . S
C2722 C2720 1.388 . S
C2722 C2723 1.366 . S
C2723 C2722 1.366 . S
C2723 C2724 1.414 . S
C2723 C2726 1.499 . S
C2724 H2704 0.950 . S
C2724 C2723 1.414 . S
C2724 C2725 1.374 . S
C2725 H2705 0.950 . S
C2725 C2721 1.385 . S
C2725 C2724 1.374 . S
C2726 C2723 1.499 . S
C2726 C2727 1.373 . S
C2726 C2728 1.389 . S
C2727 H2706 0.950 . S
C2727 C2726 1.373 . S
C2727 C2743 1.377 . S
C2728 C2726 1.389 . S
C2728 C2729 1.524 . S
C2728 C2742 1.377 . S
C2729 C2728 1.524 . S
C2729 C2730 1.397 . S
C2729 C2734 1.363 . S
C2730 H2707 0.950 . S
C2730 C2729 1.397 . S
C2730 C2731 1.334 . S
C2731 H2708 0.950 . S
C2731 C2730 1.334 . S
C2731 C2732 1.287 . S
C2732 C2731 1.287 . S
C2732 C2733 1.524 . S
C2732 H2751 0.913 . S
C2733 H2709 0.950 . S
C2733 C2732 1.524 . S
C2733 C2734 1.415 . S
C2734 H2710 0.950 . S
C2734 C2729 1.363 . S
C2734 C2733 1.415 . S
C2735 H2711 0.951 . S
C2735 C2736 1.366 . S
C2735 C2737 1.388 . S
C2736 C2735 1.366 . S
C2736 C2740 1.385 . S
C2737 H2712 0.951 . S
C2737 C2735 1.388 . S
C2737 C2738 1.366 . S
C2738 C2737 1.366 . S
C2738 C2739 1.414 . S
C2738 C2741 1.499 . S
C2739 H2713 0.950 . S
C2739 C2738 1.414 . S
C2739 C2740 1.374 . S
C2740 H2714 0.950 . S
C2740 C2736 1.385 . S
C2740 C2739 1.374 . S
C2741 C2738 1.499 . S
C2741 C2742 1.373 . S
C2741 C2743 1.389 . S
C2742 H2715 0.950 . S
C2742 C2728 1.377 . S
C2742 C2741 1.373 . S
C2743 C2727 1.377 . S
C2743 C2741 1.389 . S
C2743 C2744 1.524 . S
C2744 C2743 1.524 . S
C2744 C2745 1.397 . S
C2744 C2749 1.363 . S
C2745 H2716 0.950 . S
C2745 C2744 1.397 . S
C2745 C2746 1.334 . S
C2746 H2717 0.950 . S
C2746 C2745 1.334 . S
C2746 C2747 1.287 . S
C2747 C2746 1.287 . S
C2747 C2748 1.524 . S
C2747 H2750 0.999 . S
C2748 H2718 0.950 . S
C2748 C2747 1.524 . S
C2748 C2749 1.415 . S
C2749 H2719 0.950 . S
C2749 C2744 1.363 . S
C2749 C2748 1.415 . S
H2750 C2747 0.999 . S
H2751 C2732 0.913 . S
H2752 C2770 0.951 . S
H2753 C2772 0.951 . S
H2754 C2774 0.950 . S
H2755 C2775 0.950 . S
H2756 C2777 0.950 . S
H2757 C2780 0.950 . S
H2758 C2781 0.950 . S
H2759 C2783 0.950 . S
H2760 C2784 0.950 . S
H2761 C2785 0.951 . S
H2762 C2787 0.951 . S
H2763 C2789 0.950 . S
H2764 C2790 0.950 . S
H2765 C2792 0.950 . S
H2766 C2795 0.950 . S
H2767 C2796 0.950 . S
H2768 C2798 0.950 . S
H2769 C2799 0.950 . S
C2770 H2752 0.951 . S
C2770 C2771 1.366 . S
C2770 C2772 1.388 . S
C2771 C2770 1.366 . S
C2771 C2775 1.385 . S
C2772 H2753 0.951 . S
C2772 C2770 1.388 . S
C2772 C2773 1.366 . S
C2773 C2772 1.366 . S
C2773 C2774 1.414 . S
C2773 C2776 1.499 . S
C2774 H2754 0.950 . S
C2774 C2773 1.414 . S
C2774 C2775 1.374 . S
C2775 H2755 0.950 . S
C2775 C2771 1.385 . S
C2775 C2774 1.374 . S
C2776 C2773 1.499 . S
C2776 C2777 1.373 . S
C2776 C2778 1.389 . S
C2777 H2756 0.950 . S
C2777 C2776 1.373 . S
C2777 C2793 1.377 . S
C2778 C2776 1.389 . S
C2778 C2779 1.524 . S
C2778 C2792 1.377 . S
C2779 C2778 1.524 . S
C2779 C2780 1.397 . S
C2779 C2784 1.363 . S
C2780 H2757 0.950 . S
C2780 C2779 1.397 . S
C2780 C2781 1.334 . S
C2781 H2758 0.950 . S
C2781 C2780 1.334 . S
C2781 C2782 1.287 . S
C2782 C2781 1.287 . S
C2782 C2783 1.524 . S
C2782 H2801 0.913 . S
C2783 H2759 0.950 . S
C2783 C2782 1.524 . S
C2783 C2784 1.415 . S
C2784 H2760 0.950 . S
C2784 C2779 1.363 . S
C2784 C2783 1.415 . S
C2785 H2761 0.951 . S
C2785 C2786 1.366 . S
C2785 C2787 1.388 . S
C2786 C2785 1.366 . S
C2786 C2790 1.385 . S
C2787 H2762 0.951 . S
C2787 C2785 1.388 . S
C2787 C2788 1.366 . S
C2788 C2787 1.366 . S
C2788 C2789 1.414 . S
C2788 C2791 1.499 . S
C2789 H2763 0.950 . S
C2789 C2788 1.414 . S
C2789 C2790 1.374 . S
C2790 H2764 0.950 . S
C2790 C2786 1.385 . S
C2790 C2789 1.374 . S
C2791 C2788 1.499 . S
C2791 C2792 1.373 . S
C2791 C2793 1.389 . S
C2792 H2765 0.950 . S
C2792 C2778 1.377 . S
C2792 C2791 1.373 . S
C2793 C2777 1.377 . S
C2793 C2791 1.389 . S
C2793 C2794 1.524 . S
C2794 C2793 1.524 . S
C2794 C2795 1.397 . S
C2794 C2799 1.363 . S
C2795 H2766 0.950 . S
C2795 C2794 1.397 . S
C2795 C2796 1.334 . S
C2796 H2767 0.950 . S
C2796 C2795 1.334 . S
C2796 C2797 1.287 . S
C2797 C2796 1.287 . S
C2797 C2798 1.524 . S
C2797 H2800 0.999 . S
C2798 H2768 0.950 . S
C2798 C2797 1.524 . S
C2798 C2799 1.415 . S
C2799 H2769 0.950 . S
C2799 C2794 1.363 . S
C2799 C2798 1.415 . S
H2800 C2797 0.999 . S
H2801 C2782 0.913 . S
H2802 C2820 0.951 . S
H2803 C2822 0.951 . S
H2804 C2824 0.950 . S
H2805 C2825 0.950 . S
H2806 C2827 0.950 . S
H2807 C2830 0.950 . S
H2808 C2831 0.950 . S
H2809 C2833 0.950 . S
H2810 C2834 0.950 . S
H2811 C2835 0.951 . S
H2812 C2837 0.951 . S
H2813 C2839 0.950 . S
H2814 C2840 0.950 . S
H2815 C2842 0.950 . S
H2816 C2845 0.950 . S
H2817 C2846 0.950 . S
H2818 C2848 0.950 . S
H2819 C2849 0.950 . S
C2820 H2802 0.951 . S
C2820 C2821 1.366 . S
C2820 C2822 1.388 . S
C2821 C2820 1.366 . S
C2821 C2825 1.385 . S
C2822 H2803 0.951 . S
C2822 C2820 1.388 . S
C2822 C2823 1.366 . S
C2823 C2822 1.366 . S
C2823 C2824 1.414 . S
C2823 C2826 1.499 . S
C2824 H2804 0.950 . S
C2824 C2823 1.414 . S
C2824 C2825 1.374 . S
C2825 H2805 0.950 . S
C2825 C2821 1.385 . S
C2825 C2824 1.374 . S
C2826 C2823 1.499 . S
C2826 C2827 1.373 . S
C2826 C2828 1.389 . S
C2827 H2806 0.950 . S
C2827 C2826 1.373 . S
C2827 C2843 1.377 . S
C2828 C2826 1.389 . S
C2828 C2829 1.524 . S
C2828 C2842 1.377 . S
C2829 C2828 1.524 . S
C2829 C2830 1.397 . S
C2829 C2834 1.363 . S
C2830 H2807 0.950 . S
C2830 C2829 1.397 . S
C2830 C2831 1.334 . S
C2831 H2808 0.950 . S
C2831 C2830 1.334 . S
C2831 C2832 1.287 . S
C2832 C2831 1.287 . S
C2832 C2833 1.524 . S
C2832 H2851 0.913 . S
C2833 H2809 0.950 . S
C2833 C2832 1.524 . S
C2833 C2834 1.415 . S
C2834 H2810 0.950 . S
C2834 C2829 1.363 . S
C2834 C2833 1.415 . S
C2835 H2811 0.951 . S
C2835 C2836 1.366 . S
C2835 C2837 1.388 . S
C2836 C2835 1.366 . S
C2836 C2840 1.385 . S
C2837 H2812 0.951 . S
C2837 C2835 1.388 . S
C2837 C2838 1.366 . S
C2838 C2837 1.366 . S
C2838 C2839 1.414 . S
C2838 C2841 1.499 . S
C2839 H2813 0.950 . S
C2839 C2838 1.414 . S
C2839 C2840 1.374 . S
C2840 H2814 0.950 . S
C2840 C2836 1.385 . S
C2840 C2839 1.374 . S
C2841 C2838 1.499 . S
C2841 C2842 1.373 . S
C2841 C2843 1.389 . S
C2842 H2815 0.950 . S
C2842 C2828 1.377 . S
C2842 C2841 1.373 . S
C2843 C2827 1.377 . S
C2843 C2841 1.389 . S
C2843 C2844 1.524 . S
C2844 C2843 1.524 . S
C2844 C2845 1.397 . S
C2844 C2849 1.363 . S
C2845 H2816 0.950 . S
C2845 C2844 1.397 . S
C2845 C2846 1.334 . S
C2846 H2817 0.950 . S
C2846 C2845 1.334 . S
C2846 C2847 1.287 . S
C2847 C2846 1.287 . S
C2847 C2848 1.524 . S
C2847 H2850 0.999 . S
C2848 H2818 0.950 . S
C2848 C2847 1.524 . S
C2848 C2849 1.415 . S
C2849 H2819 0.950 . S
C2849 C2844 1.363 . S
C2849 C2848 1.415 . S
H2850 C2847 0.999 . S
H2851 C2832 0.913 . S
H2852 C2870 0.951 . S
H2853 C2872 0.951 . S
H2854 C2874 0.950 . S
H2855 C2875 0.950 . S
H2856 C2877 0.950 . S
H2857 C2880 0.950 . S
H2858 C2881 0.950 . S
H2859 C2883 0.950 . S
H2860 C2884 0.950 . S
H2861 C2885 0.951 . S
H2862 C2887 0.951 . S
H2863 C2889 0.950 . S
H2864 C2890 0.950 . S
H2865 C2892 0.950 . S
H2866 C2895 0.950 . S
H2867 C2896 0.950 . S
H2868 C2898 0.950 . S
H2869 C2899 0.950 . S
C2870 H2852 0.951 . S
C2870 C2871 1.366 . S
C2870 C2872 1.388 . S
C2871 C2870 1.366 . S
C2871 C2875 1.385 . S
C2872 H2853 0.951 . S
C2872 C2870 1.388 . S
C2872 C2873 1.366 . S
C2873 C2872 1.366 . S
C2873 C2874 1.414 . S
C2873 C2876 1.499 . S
C2874 H2854 0.950 . S
C2874 C2873 1.414 . S
C2874 C2875 1.374 . S
C2875 H2855 0.950 . S
C2875 C2871 1.385 . S
C2875 C2874 1.374 . S
C2876 C2873 1.499 . S
C2876 C2877 1.373 . S
C2876 C2878 1.389 . S
C2877 H2856 0.950 . S
C2877 C2876 1.373 . S
C2877 C2893 1.377 . S
C2878 C2876 1.389 . S
C2878 C2879 1.524 . S
C2878 C2892 1.377 . S
C2879 C2878 1.524 . S
C2879 C2880 1.397 . S
C2879 C2884 1.363 . S
C2880 H2857 0.950 . S
C2880 C2879 1.397 . S
C2880 C2881 1.334 . S
C2881 H2858 0.950 . S
C2881 C2880 1.334 . S
C2881 C2882 1.287 . S
C2882 C2881 1.287 . S
C2882 C2883 1.524 . S
C2882 H2901 0.913 . S
C2883 H2859 0.950 . S
C2883 C2882 1.524 . S
C2883 C2884 1.415 . S
C2884 H2860 0.950 . S
C2884 C2879 1.363 . S
C2884 C2883 1.415 . S
C2885 H2861 0.951 . S
C2885 C2886 1.366 . S
C2885 C2887 1.388 . S
C2886 C2885 1.366 . S
C2886 C2890 1.385 . S
C2887 H2862 0.951 . S
C2887 C2885 1.388 . S
C2887 C2888 1.366 . S
C2888 C2887 1.366 . S
C2888 C2889 1.414 . S
C2888 C2891 1.499 . S
C2889 H2863 0.950 . S
C2889 C2888 1.414 . S
C2889 C2890 1.374 . S
C2890 H2864 0.950 . S
C2890 C2886 1.385 . S
C2890 C2889 1.374 . S
C2891 C2888 1.499 . S
C2891 C2892 1.373 . S
C2891 C2893 1.389 . S
C2892 H2865 0.950 . S
C2892 C2878 1.377 . S
C2892 C2891 1.373 . S
C2893 C2877 1.377 . S
C2893 C2891 1.389 . S
C2893 C2894 1.524 . S
C2894 C2893 1.524 . S
C2894 C2895 1.397 . S
C2894 C2899 1.363 . S
C2895 H2866 0.950 . S
C2895 C2894 1.397 . S
C2895 C2896 1.334 . S
C2896 H2867 0.950 . S
C2896 C2895 1.334 . S
C2896 C2897 1.287 . S
C2897 C2896 1.287 . S
C2897 C2898 1.524 . S
C2897 H2900 0.999 1_545 S
C2898 H2868 0.950 . S
C2898 C2897 1.524 . S
C2898 C2899 1.415 . S
C2899 H2869 0.950 . S
C2899 C2894 1.363 . S
C2899 C2898 1.415 . S
H2900 C2897 0.999 1_565 S
H2901 C2882 0.913 . S
H2902 C2920 0.951 . S
H2903 C2922 0.951 . S
H2904 C2924 0.950 . S
H2905 C2925 0.950 . S
H2906 C2927 0.950 . S
H2907 C2930 0.950 . S
H2908 C2931 0.950 . S
H2909 C2933 0.950 . S
H2910 C2934 0.950 . S
H2911 C2935 0.951 . S
H2912 C2937 0.951 . S
H2913 C2939 0.950 . S
H2914 C2940 0.950 . S
H2915 C2942 0.950 . S
H2916 C2945 0.950 . S
H2917 C2946 0.950 . S
H2918 C2948 0.950 . S
H2919 C2949 0.950 . S
C2920 H2902 0.951 . S
C2920 C2921 1.366 . S
C2920 C2922 1.388 . S
C2921 C2920 1.366 . S
C2921 C2925 1.385 . S
C2922 H2903 0.951 . S
C2922 C2920 1.388 . S
C2922 C2923 1.366 . S
C2923 C2922 1.366 . S
C2923 C2924 1.414 . S
C2923 C2926 1.499 . S
C2924 H2904 0.950 . S
C2924 C2923 1.414 . S
C2924 C2925 1.374 . S
C2925 H2905 0.950 . S
C2925 C2921 1.385 . S
C2925 C2924 1.374 . S
C2926 C2923 1.499 . S
C2926 C2927 1.373 . S
C2926 C2928 1.389 . S
C2927 H2906 0.950 . S
C2927 C2926 1.373 . S
C2927 C2943 1.377 . S
C2928 C2926 1.389 . S
C2928 C2929 1.524 . S
C2928 C2942 1.377 . S
C2929 C2928 1.524 . S
C2929 C2930 1.397 . S
C2929 C2934 1.363 . S
C2930 H2907 0.950 . S
C2930 C2929 1.397 . S
C2930 C2931 1.334 . S
C2931 H2908 0.950 . S
C2931 C2930 1.334 . S
C2931 C2932 1.287 . S
C2932 C2931 1.287 . S
C2932 C2933 1.524 . S
C2932 H2951 0.913 . S
C2933 H2909 0.950 . S
C2933 C2932 1.524 . S
C2933 C2934 1.415 . S
C2934 H2910 0.950 . S
C2934 C2929 1.363 . S
C2934 C2933 1.415 . S
C2935 H2911 0.951 . S
C2935 C2936 1.366 . S
C2935 C2937 1.388 . S
C2936 C2935 1.366 . S
C2936 C2940 1.385 . S
C2937 H2912 0.951 . S
C2937 C2935 1.388 . S
C2937 C2938 1.366 . S
C2938 C2937 1.366 . S
C2938 C2939 1.414 . S
C2938 C2941 1.499 . S
C2939 H2913 0.950 . S
C2939 C2938 1.414 . S
C2939 C2940 1.374 . S
C2940 H2914 0.950 . S
C2940 C2936 1.385 . S
C2940 C2939 1.374 . S
C2941 C2938 1.499 . S
C2941 C2942 1.373 . S
C2941 C2943 1.389 . S
C2942 H2915 0.950 . S
C2942 C2928 1.377 . S
C2942 C2941 1.373 . S
C2943 C2927 1.377 . S
C2943 C2941 1.389 . S
C2943 C2944 1.524 . S
C2944 C2943 1.524 . S
C2944 C2945 1.397 . S
C2944 C2949 1.363 . S
C2945 H2916 0.950 . S
C2945 C2944 1.397 . S
C2945 C2946 1.334 . S
C2946 H2917 0.950 . S
C2946 C2945 1.334 . S
C2946 C2947 1.287 . S
C2947 C2946 1.287 . S
C2947 C2948 1.524 . S
C2947 H2950 0.999 . S
C2948 H2918 0.950 . S
C2948 C2947 1.524 . S
C2948 C2949 1.415 . S
C2949 H2919 0.950 . S
C2949 C2944 1.363 . S
C2949 C2948 1.415 . S
H2950 C2947 0.999 . S
H2951 C2932 0.913 . S
H2952 C2970 0.951 . S
H2953 C2972 0.951 . S
H2954 C2974 0.950 . S
H2955 C2975 0.950 . S
H2956 C2977 0.950 . S
H2957 C2980 0.950 . S
H2958 C2981 0.950 . S
H2959 C2983 0.950 1_556 S
H2960 C2984 0.950 . S
H2961 C2985 0.951 . S
H2962 C2987 0.951 . S
H2963 C2989 0.950 . S
H2964 C2990 0.950 . S
H2965 C2992 0.950 . S
H2966 C2995 0.950 . S
H2967 C2996 0.950 . S
H2968 C2998 0.950 . S
H2969 C2999 0.950 . S
C2970 H2952 0.951 . S
C2970 C2971 1.366 . S
C2970 C2972 1.388 . S
C2971 C2970 1.366 . S
C2971 C2975 1.385 1_556 S
C2972 H2953 0.951 . S
C2972 C2970 1.388 . S
C2972 C2973 1.366 . S
C2973 C2972 1.366 . S
C2973 C2974 1.414 1_556 S
C2973 C2976 1.499 . S
C2974 H2954 0.950 . S
C2974 C2973 1.414 1_554 S
C2974 C2975 1.374 . S
C2975 H2955 0.950 . S
C2975 C2971 1.385 1_554 S
C2975 C2974 1.374 . S
C2976 C2973 1.499 . S
C2976 C2977 1.373 . S
C2976 C2978 1.389 . S
C2977 H2956 0.950 . S
C2977 C2976 1.373 . S
C2977 C2993 1.377 . S
C2978 C2976 1.389 . S
C2978 C2979 1.524 1_556 S
C2978 C2992 1.377 . S
C2979 C2978 1.524 1_554 S
C2979 C2980 1.397 . S
C2979 C2984 1.363 1_554 S
C2980 H2957 0.950 . S
C2980 C2979 1.397 . S
C2980 C2981 1.334 . S
C2981 H2958 0.950 . S
C2981 C2980 1.334 . S
C2981 C2982 1.287 . S
C2982 C2981 1.287 . S
C2982 C2983 1.524 . S
C2982 H3001 0.913 . S
C2983 H2959 0.950 1_554 S
C2983 C2982 1.524 . S
C2983 C2984 1.415 1_554 S
C2984 H2960 0.950 . S
C2984 C2979 1.363 1_556 S
C2984 C2983 1.415 1_556 S
C2985 H2961 0.951 . S
C2985 C2986 1.366 . S
C2985 C2987 1.388 . S
C2986 C2985 1.366 . S
C2986 C2990 1.385 . S
C2987 H2962 0.951 . S
C2987 C2985 1.388 . S
C2987 C2988 1.366 . S
C2988 C2987 1.366 . S
C2988 C2989 1.414 . S
C2988 C2991 1.499 . S
C2989 H2963 0.950 . S
C2989 C2988 1.414 . S
C2989 C2990 1.374 . S
C2990 H2964 0.950 . S
C2990 C2986 1.385 . S
C2990 C2989 1.374 . S
C2991 C2988 1.499 . S
C2991 C2992 1.373 . S
C2991 C2993 1.389 . S
C2992 H2965 0.950 . S
C2992 C2978 1.377 . S
C2992 C2991 1.373 . S
C2993 C2977 1.377 . S
C2993 C2991 1.389 . S
C2993 C2994 1.524 . S
C2994 C2993 1.524 . S
C2994 C2995 1.397 . S
C2994 C2999 1.363 . S
C2995 H2966 0.950 . S
C2995 C2994 1.397 . S
C2995 C2996 1.334 . S
C2996 H2967 0.950 . S
C2996 C2995 1.334 . S
C2996 C2997 1.287 . S
C2997 C2996 1.287 . S
C2997 C2998 1.524 . S
C2997 H3000 0.999 . S
C2998 H2968 0.950 . S
C2998 C2997 1.524 . S
C2998 C2999 1.415 . S
C2999 H2969 0.950 . S
C2999 C2994 1.363 . S
C2999 C2998 1.415 . S
H3000 C2997 0.999 . S
H3001 C2982 0.913 . S
H3002 C3020 0.951 . S
H3003 C3022 0.951 . S
H3004 C3024 0.950 . S
H3005 C3025 0.950 . S
H3006 C3027 0.950 . S
H3007 C3030 0.950 . S
H3008 C3031 0.950 . S
H3009 C3033 0.950 . S
H3010 C3034 0.950 . S
H3011 C3035 0.951 . S
H3012 C3037 0.951 . S
H3013 C3039 0.950 . S
H3014 C3040 0.950 . S
H3015 C3042 0.950 . S
H3016 C3045 0.950 . S
H3017 C3046 0.950 . S
H3018 C3048 0.950 . S
H3019 C3049 0.950 . S
C3020 H3002 0.951 . S
C3020 C3021 1.366 . S
C3020 C3022 1.388 . S
C3021 C3020 1.366 . S
C3021 C3025 1.385 . S
C3022 H3003 0.951 . S
C3022 C3020 1.388 . S
C3022 C3023 1.366 . S
C3023 C3022 1.366 . S
C3023 C3024 1.414 . S
C3023 C3026 1.499 . S
C3024 H3004 0.950 . S
C3024 C3023 1.414 . S
C3024 C3025 1.374 . S
C3025 H3005 0.950 . S
C3025 C3021 1.385 . S
C3025 C3024 1.374 . S
C3026 C3023 1.499 . S
C3026 C3027 1.373 . S
C3026 C3028 1.389 . S
C3027 H3006 0.950 . S
C3027 C3026 1.373 . S
C3027 C3043 1.377 . S
C3028 C3026 1.389 . S
C3028 C3029 1.524 . S
C3028 C3042 1.377 . S
C3029 C3028 1.524 . S
C3029 C3030 1.397 1_554 S
C3029 C3034 1.363 . S
C3030 H3007 0.950 . S
C3030 C3029 1.397 1_556 S
C3030 C3031 1.334 . S
C3031 H3008 0.950 . S
C3031 C3030 1.334 . S
C3031 C3032 1.287 . S
C3032 C3031 1.287 . S
C3032 C3033 1.524 . S
C3032 H3051 0.913 . S
C3033 H3009 0.950 . S
C3033 C3032 1.524 . S
C3033 C3034 1.415 1_556 S
C3034 H3010 0.950 . S
C3034 C3029 1.363 . S
C3034 C3033 1.415 1_554 S
C3035 H3011 0.951 . S
C3035 C3036 1.366 . S
C3035 C3037 1.388 . S
C3036 C3035 1.366 . S
C3036 C3040 1.385 . S
C3037 H3012 0.951 . S
C3037 C3035 1.388 . S
C3037 C3038 1.366 . S
C3038 C3037 1.366 . S
C3038 C3039 1.414 . S
C3038 C3041 1.499 . S
C3039 H3013 0.950 . S
C3039 C3038 1.414 . S
C3039 C3040 1.374 . S
C3040 H3014 0.950 . S
C3040 C3036 1.385 . S
C3040 C3039 1.374 . S
C3041 C3038 1.499 . S
C3041 C3042 1.373 . S
C3041 C3043 1.389 . S
C3042 H3015 0.950 . S
C3042 C3028 1.377 . S
C3042 C3041 1.373 . S
C3043 C3027 1.377 . S
C3043 C3041 1.389 . S
C3043 C3044 1.524 . S
C3044 C3043 1.524 . S
C3044 C3045 1.397 . S
C3044 C3049 1.363 . S
C3045 H3016 0.950 . S
C3045 C3044 1.397 . S
C3045 C3046 1.334 . S
C3046 H3017 0.950 . S
C3046 C3045 1.334 . S
C3046 C3047 1.287 . S
C3047 C3046 1.287 . S
C3047 C3048 1.524 . S
C3047 H3050 0.999 . S
C3048 H3018 0.950 . S
C3048 C3047 1.524 . S
C3048 C3049 1.415 . S
C3049 H3019 0.950 . S
C3049 C3044 1.363 . S
C3049 C3048 1.415 . S
H3050 C3047 0.999 . S
H3051 C3032 0.913 . S
H3052 C3070 0.951 . S
H3053 C3072 0.951 . S
H3054 C3074 0.950 . S
H3055 C3075 0.950 . S
H3056 C3077 0.950 . S
H3057 C3080 0.950 . S
H3058 C3081 0.950 . S
H3059 C3083 0.950 . S
H3060 C3084 0.950 . S
H3061 C3085 0.951 . S
H3062 C3087 0.951 . S
H3063 C3089 0.950 . S
H3064 C3090 0.950 . S
H3065 C3092 0.950 . S
H3066 C3095 0.950 . S
H3067 C3096 0.950 . S
H3068 C3098 0.950 . S
H3069 C3099 0.950 . S
C3070 H3052 0.951 . S
C3070 C3071 1.366 . S
C3070 C3072 1.388 . S
C3071 C3070 1.366 . S
C3071 C3075 1.385 . S
C3072 H3053 0.951 . S
C3072 C3070 1.388 . S
C3072 C3073 1.366 . S
C3073 C3072 1.366 . S
C3073 C3074 1.414 . S
C3073 C3076 1.499 . S
C3074 H3054 0.950 . S
C3074 C3073 1.414 . S
C3074 C3075 1.374 . S
C3075 H3055 0.950 . S
C3075 C3071 1.385 . S
C3075 C3074 1.374 . S
C3076 C3073 1.499 . S
C3076 C3077 1.373 . S
C3076 C3078 1.389 . S
C3077 H3056 0.950 . S
C3077 C3076 1.373 . S
C3077 C3093 1.377 . S
C3078 C3076 1.389 . S
C3078 C3079 1.524 . S
C3078 C3092 1.377 . S
C3079 C3078 1.524 . S
C3079 C3080 1.397 . S
C3079 C3084 1.363 . S
C3080 H3057 0.950 . S
C3080 C3079 1.397 . S
C3080 C3081 1.334 . S
C3081 H3058 0.950 . S
C3081 C3080 1.334 . S
C3081 C3082 1.287 . S
C3082 C3081 1.287 . S
C3082 C3083 1.524 . S
C3082 H3101 0.913 . S
C3083 H3059 0.950 . S
C3083 C3082 1.524 . S
C3083 C3084 1.415 . S
C3084 H3060 0.950 . S
C3084 C3079 1.363 . S
C3084 C3083 1.415 . S
C3085 H3061 0.951 . S
C3085 C3086 1.366 . S
C3085 C3087 1.388 . S
C3086 C3085 1.366 . S
C3086 C3090 1.385 . S
C3087 H3062 0.951 . S
C3087 C3085 1.388 . S
C3087 C3088 1.366 . S
C3088 C3087 1.366 . S
C3088 C3089 1.414 . S
C3088 C3091 1.499 . S
C3089 H3063 0.950 . S
C3089 C3088 1.414 . S
C3089 C3090 1.374 . S
C3090 H3064 0.950 . S
C3090 C3086 1.385 . S
C3090 C3089 1.374 . S
C3091 C3088 1.499 . S
C3091 C3092 1.373 . S
C3091 C3093 1.389 . S
C3092 H3065 0.950 . S
C3092 C3078 1.377 . S
C3092 C3091 1.373 . S
C3093 C3077 1.377 . S
C3093 C3091 1.389 . S
C3093 C3094 1.524 . S
C3094 C3093 1.524 . S
C3094 C3095 1.397 . S
C3094 C3099 1.363 . S
C3095 H3066 0.950 . S
C3095 C3094 1.397 . S
C3095 C3096 1.334 . S
C3096 H3067 0.950 . S
C3096 C3095 1.334 . S
C3096 C3097 1.287 . S
C3097 C3096 1.287 . S
C3097 C3098 1.524 . S
C3097 H3100 0.999 . S
C3098 H3068 0.950 . S
C3098 C3097 1.524 . S
C3098 C3099 1.415 . S
C3099 H3069 0.950 . S
C3099 C3094 1.363 . S
C3099 C3098 1.415 . S
H3100 C3097 0.999 . S
H3101 C3082 0.913 . S
H3102 C3120 0.951 . S
H3103 C3122 0.951 . S
H3104 C3124 0.950 . S
H3105 C3125 0.950 . S
H3106 C3127 0.950 . S
H3107 C3130 0.950 . S
H3108 C3131 0.950 . S
H3109 C3133 0.950 . S
H3110 C3134 0.950 . S
H3111 C3135 0.951 . S
H3112 C3137 0.951 . S
H3113 C3139 0.950 . S
H3114 C3140 0.950 . S
H3115 C3142 0.950 . S
H3116 C3145 0.950 . S
H3117 C3146 0.950 . S
H3118 C3148 0.950 . S
H3119 C3149 0.950 . S
C3120 H3102 0.951 . S
C3120 C3121 1.366 . S
C3120 C3122 1.388 . S
C3121 C3120 1.366 . S
C3121 C3125 1.385 . S
C3122 H3103 0.951 . S
C3122 C3120 1.388 . S
C3122 C3123 1.366 . S
C3123 C3122 1.366 . S
C3123 C3124 1.414 . S
C3123 C3126 1.499 . S
C3124 H3104 0.950 . S
C3124 C3123 1.414 . S
C3124 C3125 1.374 . S
C3125 H3105 0.950 . S
C3125 C3121 1.385 . S
C3125 C3124 1.374 . S
C3126 C3123 1.499 . S
C3126 C3127 1.373 . S
C3126 C3128 1.389 . S
C3127 H3106 0.950 . S
C3127 C3126 1.373 . S
C3127 C3143 1.377 . S
C3128 C3126 1.389 . S
C3128 C3129 1.524 . S
C3128 C3142 1.377 . S
C3129 C3128 1.524 . S
C3129 C3130 1.397 . S
C3129 C3134 1.363 . S
C3130 H3107 0.950 . S
C3130 C3129 1.397 . S
C3130 C3131 1.334 . S
C3131 H3108 0.950 . S
C3131 C3130 1.334 . S
C3131 C3132 1.287 . S
C3132 C3131 1.287 . S
C3132 C3133 1.524 . S
C3132 H3151 0.913 . S
C3133 H3109 0.950 . S
C3133 C3132 1.524 . S
C3133 C3134 1.415 . S
C3134 H3110 0.950 . S
C3134 C3129 1.363 . S
C3134 C3133 1.415 . S
C3135 H3111 0.951 . S
C3135 C3136 1.366 . S
C3135 C3137 1.388 . S
C3136 C3135 1.366 . S
C3136 C3140 1.385 . S
C3137 H3112 0.951 . S
C3137 C3135 1.388 . S
C3137 C3138 1.366 . S
C3138 C3137 1.366 . S
C3138 C3139 1.414 . S
C3138 C3141 1.499 . S
C3139 H3113 0.950 . S
C3139 C3138 1.414 . S
C3139 C3140 1.374 . S
C3140 H3114 0.950 . S
C3140 C3136 1.385 . S
C3140 C3139 1.374 . S
C3141 C3138 1.499 . S
C3141 C3142 1.373 . S
C3141 C3143 1.389 . S
C3142 H3115 0.950 . S
C3142 C3128 1.377 . S
C3142 C3141 1.373 . S
C3143 C3127 1.377 . S
C3143 C3141 1.389 . S
C3143 C3144 1.524 . S
C3144 C3143 1.524 . S
C3144 C3145 1.397 . S
C3144 C3149 1.363 . S
C3145 H3116 0.950 . S
C3145 C3144 1.397 . S
C3145 C3146 1.334 . S
C3146 H3117 0.950 . S
C3146 C3145 1.334 . S
C3146 C3147 1.287 . S
C3147 C3146 1.287 . S
C3147 C3148 1.524 . S
C3147 H3150 0.999 . S
C3148 H3118 0.950 . S
C3148 C3147 1.524 . S
C3148 C3149 1.415 . S
C3149 H3119 0.950 . S
C3149 C3144 1.363 . S
C3149 C3148 1.415 . S
H3150 C3147 0.999 . S
H3151 C3132 0.913 . S
H3152 C3170 0.951 . S
H3153 C3172 0.951 . S
H3154 C3174 0.950 . S
H3155 C3175 0.950 . S
H3156 C3177 0.950 . S
H3157 C3180 0.950 . S
H3158 C3181 0.950 . S
H3159 C3183 0.950 . S
H3160 C3184 0.950 . S
H3161 C3185 0.951 . S
H3162 C3187 0.951 . S
H3163 C3189 0.950 . S
H3164 C3190 0.950 . S
H3165 C3192 0.950 . S
H3166 C3195 0.950 . S
H3167 C3196 0.950 . S
H3168 C3198 0.950 . S
H3169 C3199 0.950 . S
C3170 H3152 0.951 . S
C3170 C3171 1.366 . S
C3170 C3172 1.388 . S
C3171 C3170 1.366 . S
C3171 C3175 1.385 . S
C3172 H3153 0.951 . S
C3172 C3170 1.388 . S
C3172 C3173 1.366 . S
C3173 C3172 1.366 . S
C3173 C3174 1.414 . S
C3173 C3176 1.499 . S
C3174 H3154 0.950 . S
C3174 C3173 1.414 . S
C3174 C3175 1.374 . S
C3175 H3155 0.950 . S
C3175 C3171 1.385 . S
C3175 C3174 1.374 . S
C3176 C3173 1.499 . S
C3176 C3177 1.373 . S
C3176 C3178 1.389 . S
C3177 H3156 0.950 . S
C3177 C3176 1.373 . S
C3177 C3193 1.377 . S
C3178 C3176 1.389 . S
C3178 C3179 1.524 . S
C3178 C3192 1.377 . S
C3179 C3178 1.524 . S
C3179 C3180 1.397 . S
C3179 C3184 1.363 . S
C3180 H3157 0.950 . S
C3180 C3179 1.397 . S
C3180 C3181 1.334 . S
C3181 H3158 0.950 . S
C3181 C3180 1.334 . S
C3181 C3182 1.287 . S
C3182 C3181 1.287 . S
C3182 C3183 1.524 . S
C3182 H3201 0.913 . S
C3183 H3159 0.950 . S
C3183 C3182 1.524 . S
C3183 C3184 1.415 . S
C3184 H3160 0.950 . S
C3184 C3179 1.363 . S
C3184 C3183 1.415 . S
C3185 H3161 0.951 . S
C3185 C3186 1.366 . S
C3185 C3187 1.388 . S
C3186 C3185 1.366 . S
C3186 C3190 1.385 . S
C3187 H3162 0.951 . S
C3187 C3185 1.388 . S
C3187 C3188 1.366 . S
C3188 C3187 1.366 . S
C3188 C3189 1.414 . S
C3188 C3191 1.499 . S
C3189 H3163 0.950 . S
C3189 C3188 1.414 . S
C3189 C3190 1.374 . S
C3190 H3164 0.950 . S
C3190 C3186 1.385 . S
C3190 C3189 1.374 . S
C3191 C3188 1.499 . S
C3191 C3192 1.373 . S
C3191 C3193 1.389 . S
C3192 H3165 0.950 . S
C3192 C3178 1.377 . S
C3192 C3191 1.373 . S
C3193 C3177 1.377 . S
C3193 C3191 1.389 . S
C3193 C3194 1.524 . S
C3194 C3193 1.524 . S
C3194 C3195 1.397 . S
C3194 C3199 1.363 . S
C3195 H3166 0.950 . S
C3195 C3194 1.397 . S
C3195 C3196 1.334 . S
C3196 H3167 0.950 . S
C3196 C3195 1.334 . S
C3196 C3197 1.287 . S
C3197 C3196 1.287 . S
C3197 C3198 1.524 . S
C3197 H3200 0.999 . S
C3198 H3168 0.950 . S
C3198 C3197 1.524 . S
C3198 C3199 1.415 . S
C3199 H3169 0.950 . S
C3199 C3194 1.363 . S
C3199 C3198 1.415 . S
H3200 C3197 0.999 . S
H3201 C3182 0.913 . S
H3202 C3220 0.951 . S
H3203 C3222 0.951 . S
H3204 C3224 0.950 . S
H3205 C3225 0.950 . S
H3206 C3227 0.950 . S
H3207 C3230 0.950 . S
H3208 C3231 0.950 1_565 S
H3209 C3233 0.950 . S
H3210 C3234 0.950 . S
H3211 C3235 0.951 . S
H3212 C3237 0.951 . S
H3213 C3239 0.950 . S
H3214 C3240 0.950 . S
H3215 C3242 0.950 1_545 S
H3216 C3245 0.950 . S
H3217 C3246 0.950 . S
H3218 C3248 0.950 . S
H3219 C3249 0.950 . S
C3220 H3202 0.951 . S
C3220 C3221 1.366 . S
C3220 C3222 1.388 . S
C3221 C3220 1.366 . S
C3221 C3225 1.385 . S
C3222 H3203 0.951 . S
C3222 C3220 1.388 . S
C3222 C3223 1.366 . S
C3223 C3222 1.366 . S
C3223 C3224 1.414 . S
C3223 C3226 1.499 . S
C3224 H3204 0.950 . S
C3224 C3223 1.414 . S
C3224 C3225 1.374 . S
C3225 H3205 0.950 . S
C3225 C3221 1.385 . S
C3225 C3224 1.374 . S
C3226 C3223 1.499 . S
C3226 C3227 1.373 . S
C3226 C3228 1.389 . S
C3227 H3206 0.950 . S
C3227 C3226 1.373 . S
C3227 C3243 1.377 . S
C3228 C3226 1.389 . S
C3228 C3229 1.513 1_565 S
C3228 C3242 1.377 . S
C3229 C3228 1.513 1_545 S
C3229 C3230 1.381 1_545 S
C3229 C3234 1.390 . S
C3230 H3207 0.950 . S
C3230 C3229 1.381 1_565 S
C3230 C3231 1.334 1_565 S
C3231 H3208 0.950 1_545 S
C3231 C3230 1.334 1_545 S
C3231 C3232 1.287 . S
C3232 C3231 1.287 . S
C3232 C3233 1.524 . S
C3232 H3251 0.913 . S
C3233 H3209 0.950 . S
C3233 C3232 1.524 . S
C3233 C3234 1.415 . S
C3234 H3210 0.950 . S
C3234 C3229 1.390 . S
C3234 C3233 1.415 . S
C3235 H3211 0.951 . S
C3235 C3236 1.366 1_565 S
C3235 C3237 1.388 . S
C3236 C3235 1.366 1_545 S
C3236 C3240 1.385 . S
C3237 H3212 0.951 . S
C3237 C3235 1.388 . S
C3237 C3238 1.366 . S
C3238 C3237 1.366 . S
C3238 C3239 1.414 1_565 S
C3238 C3241 1.499 . S
C3239 H3213 0.950 . S
C3239 C3238 1.414 1_545 S
C3239 C3240 1.374 . S
C3240 H3214 0.950 . S
C3240 C3236 1.385 . S
C3240 C3239 1.374 . S
C3241 C3238 1.499 . S
C3241 C3242 1.373 . S
C3241 C3243 1.389 . S
C3242 H3215 0.950 1_565 S
C3242 C3228 1.377 . S
C3242 C3241 1.373 . S
C3243 C3227 1.377 . S
C3243 C3241 1.389 . S
C3243 C3244 1.524 . S
C3244 C3243 1.524 . S
C3244 C3245 1.397 . S
C3244 C3249 1.363 . S
C3245 H3216 0.950 . S
C3245 C3244 1.397 . S
C3245 C3246 1.334 . S
C3246 H3217 0.950 . S
C3246 C3245 1.334 . S
C3246 C3247 1.287 . S
C3247 C3246 1.287 . S
C3247 C3248 1.524 . S
C3247 H3250 0.999 . S
C3248 H3218 0.950 . S
C3248 C3247 1.524 . S
C3248 C3249 1.415 . S
C3249 H3219 0.950 . S
C3249 C3244 1.363 . S
C3249 C3248 1.415 . S
H3250 C3247 0.999 . S
H3251 C3232 0.913 . S
H3252 C3270 0.951 . S
H3253 C3272 0.951 . S
H3254 C3274 0.950 . S
H3255 C3275 0.950 . S
H3256 C3277 0.950 . S
H3257 C3280 0.950 . S
H3258 C3281 0.950 . S
H3259 C3283 0.950 . S
H3260 C3284 0.950 . S
H3261 C3285 0.951 . S
H3262 C3287 0.951 . S
H3263 C3289 0.950 . S
H3264 C3290 0.950 . S
H3265 C3292 0.950 . S
H3266 C3295 0.950 . S
H3267 C3296 0.950 . S
H3268 C3298 0.950 . S
H3269 C3299 0.950 . S
C3270 H3252 0.951 . S
C3270 C3271 1.366 . S
C3270 C3272 1.388 . S
C3271 C3270 1.366 . S
C3271 C3275 1.385 . S
C3272 H3253 0.951 . S
C3272 C3270 1.388 . S
C3272 C3273 1.366 . S
C3273 C3272 1.366 . S
C3273 C3274 1.414 . S
C3273 C3276 1.499 . S
C3274 H3254 0.950 . S
C3274 C3273 1.414 . S
C3274 C3275 1.374 . S
C3275 H3255 0.950 . S
C3275 C3271 1.385 . S
C3275 C3274 1.374 . S
C3276 C3273 1.499 . S
C3276 C3277 1.373 . S
C3276 C3278 1.389 . S
C3277 H3256 0.950 . S
C3277 C3276 1.373 . S
C3277 C3293 1.377 . S
C3278 C3276 1.389 . S
C3278 C3279 1.524 . S
C3278 C3292 1.377 . S
C3279 C3278 1.524 . S
C3279 C3280 1.397 . S
C3279 C3284 1.363 . S
C3280 H3257 0.950 . S
C3280 C3279 1.397 . S
C3280 C3281 1.334 . S
C3281 H3258 0.950 . S
C3281 C3280 1.334 . S
C3281 C3282 1.287 . S
C3282 C3281 1.287 . S
C3282 C3283 1.524 . S
C3282 H3301 0.913 . S
C3283 H3259 0.950 . S
C3283 C3282 1.524 . S
C3283 C3284 1.415 . S
C3284 H3260 0.950 . S
C3284 C3279 1.363 . S
C3284 C3283 1.415 . S
C3285 H3261 0.951 . S
C3285 C3286 1.366 . S
C3285 C3287 1.388 . S
C3286 C3285 1.366 . S
C3286 C3290 1.385 . S
C3287 H3262 0.951 . S
C3287 C3285 1.388 . S
C3287 C3288 1.366 . S
C3288 C3287 1.366 . S
C3288 C3289 1.414 . S
C3288 C3291 1.499 . S
C3289 H3263 0.950 . S
C3289 C3288 1.414 . S
C3289 C3290 1.374 . S
C3290 H3264 0.950 . S
C3290 C3286 1.385 . S
C3290 C3289 1.374 . S
C3291 C3288 1.499 . S
C3291 C3292 1.373 . S
C3291 C3293 1.389 . S
C3292 H3265 0.950 . S
C3292 C3278 1.377 . S
C3292 C3291 1.373 . S
C3293 C3277 1.377 . S
C3293 C3291 1.389 . S
C3293 C3294 1.524 . S
C3294 C3293 1.524 . S
C3294 C3295 1.397 . S
C3294 C3299 1.363 . S
C3295 H3266 0.950 . S
C3295 C3294 1.397 . S
C3295 C3296 1.334 . S
C3296 H3267 0.950 . S
C3296 C3295 1.334 . S
C3296 C3297 1.287 . S
C3297 C3296 1.287 . S
C3297 C3298 1.524 . S
C3297 H3300 0.999 . S
C3298 H3268 0.950 . S
C3298 C3297 1.524 . S
C3298 C3299 1.415 . S
C3299 H3269 0.950 . S
C3299 C3294 1.363 . S
C3299 C3298 1.415 . S
H3300 C3297 0.999 . S
H3301 C3282 0.913 . S
H3302 C3320 0.951 . S
H3303 C3322 0.951 . S
H3304 C3324 0.950 . S
H3305 C3325 0.950 . S
H3306 C3327 0.950 . S
H3307 C3330 0.950 . S
H3308 C3331 0.950 . S
H3309 C3333 0.950 . S
H3310 C3334 0.950 . S
H3311 C3335 0.951 . S
H3312 C3337 0.951 . S
H3313 C3339 0.950 . S
H3314 C3340 0.950 . S
H3315 C3342 0.950 . S
H3316 C3345 0.950 . S
H3317 C3346 0.950 . S
H3318 C3348 0.950 . S
H3319 C3349 0.950 . S
C3320 H3302 0.951 . S
C3320 C3321 1.366 . S
C3320 C3322 1.388 . S
C3321 C3320 1.366 . S
C3321 C3325 1.385 . S
C3322 H3303 0.951 . S
C3322 C3320 1.388 . S
C3322 C3323 1.366 . S
C3323 C3322 1.366 . S
C3323 C3324 1.414 . S
C3323 C3326 1.499 . S
C3324 H3304 0.950 . S
C3324 C3323 1.414 . S
C3324 C3325 1.374 . S
C3325 H3305 0.950 . S
C3325 C3321 1.385 . S
C3325 C3324 1.374 . S
C3326 C3323 1.499 . S
C3326 C3327 1.373 . S
C3326 C3328 1.389 . S
C3327 H3306 0.950 . S
C3327 C3326 1.373 . S
C3327 C3343 1.377 . S
C3328 C3326 1.389 . S
C3328 C3329 1.524 . S
C3328 C3342 1.377 . S
C3329 C3328 1.524 . S
C3329 C3330 1.397 . S
C3329 C3334 1.363 . S
C3330 H3307 0.950 . S
C3330 C3329 1.397 . S
C3330 C3331 1.334 . S
C3331 H3308 0.950 . S
C3331 C3330 1.334 . S
C3331 C3332 1.287 . S
C3332 C3331 1.287 . S
C3332 C3333 1.524 . S
C3332 H3351 0.913 . S
C3333 H3309 0.950 . S
C3333 C3332 1.524 . S
C3333 C3334 1.415 . S
C3334 H3310 0.950 . S
C3334 C3329 1.363 . S
C3334 C3333 1.415 . S
C3335 H3311 0.951 . S
C3335 C3336 1.366 . S
C3335 C3337 1.388 . S
C3336 C3335 1.366 . S
C3336 C3340 1.385 . S
C3337 H3312 0.951 . S
C3337 C3335 1.388 . S
C3337 C3338 1.366 . S
C3338 C3337 1.366 . S
C3338 C3339 1.414 . S
C3338 C3341 1.499 . S
C3339 H3313 0.950 . S
C3339 C3338 1.414 . S
C3339 C3340 1.374 . S
C3340 H3314 0.950 . S
C3340 C3336 1.385 . S
C3340 C3339 1.374 . S
C3341 C3338 1.499 . S
C3341 C3342 1.373 . S
C3341 C3343 1.389 . S
C3342 H3315 0.950 . S
C3342 C3328 1.377 . S
C3342 C3341 1.373 . S
C3343 C3327 1.377 . S
C3343 C3341 1.389 . S
C3343 C3344 1.524 . S
C3344 C3343 1.524 . S
C3344 C3345 1.397 . S
C3344 C3349 1.363 . S
C3345 H3316 0.950 . S
C3345 C3344 1.397 . S
C3345 C3346 1.334 . S
C3346 H3317 0.950 . S
C3346 C3345 1.334 . S
C3346 C3347 1.287 . S
C3347 C3346 1.287 . S
C3347 C3348 1.524 . S
C3347 H3350 0.999 . S
C3348 H3318 0.950 . S
C3348 C3347 1.524 . S
C3348 C3349 1.415 . S
C3349 H3319 0.950 . S
C3349 C3344 1.363 . S
C3349 C3348 1.415 . S
H3350 C3347 0.999 . S
H3351 C3332 0.913 . S
H3352 C3370 0.951 . S
H3353 C3372 0.951 . S
H3354 C3374 0.950 . S
H3355 C3375 0.950 . S
H3356 C3377 0.950 . S
H3357 C3380 0.950 . S
H3358 C3381 0.950 . S
H3359 C3383 0.950 . S
H3360 C3384 0.950 . S
H3361 C3385 0.951 . S
H3362 C3387 0.951 . S
H3363 C3389 0.950 . S
H3364 C3390 0.950 . S
H3365 C3392 0.950 . S
H3366 C3395 0.950 . S
H3367 C3396 0.950 . S
H3368 C3398 0.950 . S
H3369 C3399 0.950 . S
C3370 H3352 0.951 . S
C3370 C3371 1.366 . S
C3370 C3372 1.388 . S
C3371 C3370 1.366 . S
C3371 C3375 1.385 . S
C3372 H3353 0.951 . S
C3372 C3370 1.388 . S
C3372 C3373 1.366 . S
C3373 C3372 1.366 . S
C3373 C3374 1.414 . S
C3373 C3376 1.499 . S
C3374 H3354 0.950 . S
C3374 C3373 1.414 . S
C3374 C3375 1.374 . S
C3375 H3355 0.950 . S
C3375 C3371 1.385 . S
C3375 C3374 1.374 . S
C3376 C3373 1.499 . S
C3376 C3377 1.373 . S
C3376 C3378 1.389 . S
C3377 H3356 0.950 . S
C3377 C3376 1.373 . S
C3377 C3393 1.377 . S
C3378 C3376 1.389 . S
C3378 C3379 1.524 . S
C3378 C3392 1.377 . S
C3379 C3378 1.524 . S
C3379 C3380 1.397 . S
C3379 C3384 1.363 . S
C3380 H3357 0.950 . S
C3380 C3379 1.397 . S
C3380 C3381 1.334 . S
C3381 H3358 0.950 . S
C3381 C3380 1.334 . S
C3381 C3382 1.287 . S
C3382 C3381 1.287 . S
C3382 C3383 1.524 . S
C3382 H3401 0.913 . S
C3383 H3359 0.950 . S
C3383 C3382 1.524 . S
C3383 C3384 1.415 . S
C3384 H3360 0.950 . S
C3384 C3379 1.363 . S
C3384 C3383 1.415 . S
C3385 H3361 0.951 . S
C3385 C3386 1.366 . S
C3385 C3387 1.388 . S
C3386 C3385 1.366 . S
C3386 C3390 1.385 . S
C3387 H3362 0.951 . S
C3387 C3385 1.388 . S
C3387 C3388 1.366 . S
C3388 C3387 1.366 . S
C3388 C3389 1.414 . S
C3388 C3391 1.499 . S
C3389 H3363 0.950 . S
C3389 C3388 1.414 . S
C3389 C3390 1.374 . S
C3390 H3364 0.950 . S
C3390 C3386 1.385 . S
C3390 C3389 1.374 . S
C3391 C3388 1.499 . S
C3391 C3392 1.373 . S
C3391 C3393 1.389 . S
C3392 H3365 0.950 . S
C3392 C3378 1.377 . S
C3392 C3391 1.373 . S
C3393 C3377 1.377 . S
C3393 C3391 1.389 . S
C3393 C3394 1.524 . S
C3394 C3393 1.524 . S
C3394 C3395 1.397 . S
C3394 C3399 1.363 . S
C3395 H3366 0.950 . S
C3395 C3394 1.397 . S
C3395 C3396 1.334 . S
C3396 H3367 0.950 . S
C3396 C3395 1.334 . S
C3396 C3397 1.287 . S
C3397 C3396 1.287 . S
C3397 C3398 1.524 . S
C3397 H3400 0.999 . S
C3398 H3368 0.950 . S
C3398 C3397 1.524 . S
C3398 C3399 1.415 . S
C3399 H3369 0.950 . S
C3399 C3394 1.363 . S
C3399 C3398 1.415 . S
H3400 C3397 0.999 . S
H3401 C3382 0.913 . S
H3402 C3420 0.951 . S
H3403 C3422 0.951 . S
H3404 C3424 0.950 . S
H3405 C3425 0.950 . S
H3406 C3427 0.950 . S
H3407 C3430 0.950 . S
H3408 C3431 0.950 . S
H3409 C3433 0.950 . S
H3410 C3434 0.950 . S
H3411 C3435 0.951 . S
H3412 C3437 0.951 . S
H3413 C3439 0.950 . S
H3414 C3440 0.950 . S
H3415 C3442 0.950 . S
H3416 C3445 0.950 . S
H3417 C3446 0.950 . S
H3418 C3448 0.950 . S
H3419 C3449 0.950 . S
C3420 H3402 0.951 . S
C3420 C3421 1.366 . S
C3420 C3422 1.388 . S
C3421 C3420 1.366 . S
C3421 C3425 1.385 . S
C3422 H3403 0.951 . S
C3422 C3420 1.388 . S
C3422 C3423 1.366 . S
C3423 C3422 1.366 . S
C3423 C3424 1.414 . S
C3423 C3426 1.499 . S
C3424 H3404 0.950 . S
C3424 C3423 1.414 . S
C3424 C3425 1.374 . S
C3425 H3405 0.950 . S
C3425 C3421 1.385 . S
C3425 C3424 1.374 . S
C3426 C3423 1.499 . S
C3426 C3427 1.373 . S
C3426 C3428 1.389 . S
C3427 H3406 0.950 . S
C3427 C3426 1.373 . S
C3427 C3443 1.377 . S
C3428 C3426 1.389 . S
C3428 C3429 1.524 . S
C3428 C3442 1.377 . S
C3429 C3428 1.524 . S
C3429 C3430 1.397 . S
C3429 C3434 1.363 . S
C3430 H3407 0.950 . S
C3430 C3429 1.397 . S
C3430 C3431 1.334 . S
C3431 H3408 0.950 . S
C3431 C3430 1.334 . S
C3431 C3432 1.287 . S
C3432 C3431 1.287 . S
C3432 C3433 1.524 . S
C3432 H3451 0.913 . S
C3433 H3409 0.950 . S
C3433 C3432 1.524 . S
C3433 C3434 1.415 . S
C3434 H3410 0.950 . S
C3434 C3429 1.363 . S
C3434 C3433 1.415 . S
C3435 H3411 0.951 . S
C3435 C3436 1.366 . S
C3435 C3437 1.388 . S
C3436 C3435 1.366 . S
C3436 C3440 1.385 . S
C3437 H3412 0.951 . S
C3437 C3435 1.388 . S
C3437 C3438 1.366 . S
C3438 C3437 1.366 . S
C3438 C3439 1.414 . S
C3438 C3441 1.499 . S
C3439 H3413 0.950 . S
C3439 C3438 1.414 . S
C3439 C3440 1.374 . S
C3440 H3414 0.950 . S
C3440 C3436 1.385 . S
C3440 C3439 1.374 . S
C3441 C3438 1.499 . S
C3441 C3442 1.373 . S
C3441 C3443 1.389 . S
C3442 H3415 0.950 . S
C3442 C3428 1.377 . S
C3442 C3441 1.373 . S
C3443 C3427 1.377 . S
C3443 C3441 1.389 . S
C3443 C3444 1.524 . S
C3444 C3443 1.524 . S
C3444 C3445 1.397 . S
C3444 C3449 1.363 . S
C3445 H3416 0.950 . S
C3445 C3444 1.397 . S
C3445 C3446 1.334 . S
C3446 H3417 0.950 . S
C3446 C3445 1.334 . S
C3446 C3447 1.287 . S
C3447 C3446 1.287 . S
C3447 C3448 1.524 . S
C3447 H3450 0.999 . S
C3448 H3418 0.950 . S
C3448 C3447 1.524 . S
C3448 C3449 1.415 . S
C3449 H3419 0.950 . S
C3449 C3444 1.363 . S
C3449 C3448 1.415 . S
H3450 C3447 0.999 . S
H3451 C3432 0.913 . S
H3452 C3470 0.951 . S
H3453 C3472 0.951 . S
H3454 C3474 0.950 . S
H3455 C3475 0.950 . S
H3456 C3477 0.950 . S
H3457 C3480 0.950 . S
H3458 C3481 0.950 . S
H3459 C3483 0.950 . S
H3460 C3484 0.950 . S
H3461 C3485 0.951 . S
H3462 C3487 0.951 . S
H3463 C3489 0.950 . S
H3464 C3490 0.950 . S
H3465 C3492 0.950 . S
H3466 C3495 0.950 . S
H3467 C3496 0.950 1_655 S
H3468 C3498 0.950 . S
H3469 C3499 0.950 . S
C3470 H3452 0.951 . S
C3470 C3471 1.366 . S
C3470 C3472 1.388 . S
C3471 C3470 1.366 . S
C3471 C3475 1.385 . S
C3472 H3453 0.951 . S
C3472 C3470 1.388 . S
C3472 C3473 1.366 . S
C3473 C3472 1.366 . S
C3473 C3474 1.414 . S
C3473 C3476 1.499 . S
C3474 H3454 0.950 . S
C3474 C3473 1.414 . S
C3474 C3475 1.374 . S
C3475 H3455 0.950 . S
C3475 C3471 1.385 . S
C3475 C3474 1.374 . S
C3476 C3473 1.499 . S
C3476 C3477 1.373 . S
C3476 C3478 1.389 . S
C3477 H3456 0.950 . S
C3477 C3476 1.373 . S
C3477 C3493 1.377 . S
C3478 C3476 1.389 . S
C3478 C3479 1.524 . S
C3478 C3492 1.377 . S
C3479 C3478 1.524 . S
C3479 C3480 1.397 . S
C3479 C3484 1.363 . S
C3480 H3457 0.950 . S
C3480 C3479 1.397 . S
C3480 C3481 1.334 . S
C3481 H3458 0.950 . S
C3481 C3480 1.334 . S
C3481 C3482 1.287 . S
C3482 C3481 1.287 . S
C3482 C3483 1.524 . S
C3482 H3501 0.913 . S
C3483 H3459 0.950 . S
C3483 C3482 1.524 . S
C3483 C3484 1.415 . S
C3484 H3460 0.950 . S
C3484 C3479 1.363 . S
C3484 C3483 1.415 . S
C3485 H3461 0.951 . S
C3485 C3486 1.366 . S
C3485 C3487 1.388 . S
C3486 C3485 1.366 . S
C3486 C3490 1.385 1_554 S
C3487 H3462 0.951 . S
C3487 C3485 1.388 . S
C3487 C3488 1.366 1_554 S
C3488 C3487 1.366 1_556 S
C3488 C3489 1.414 . S
C3488 C3491 1.499 . S
C3489 H3463 0.950 . S
C3489 C3488 1.414 . S
C3489 C3490 1.374 . S
C3490 H3464 0.950 . S
C3490 C3486 1.385 1_556 S
C3490 C3489 1.374 . S
C3491 C3488 1.499 . S
C3491 C3492 1.373 . S
C3491 C3493 1.389 . S
C3492 H3465 0.950 . S
C3492 C3478 1.377 . S
C3492 C3491 1.373 . S
C3493 C3477 1.377 . S
C3493 C3491 1.389 . S
C3493 C3494 1.524 1_556 S
C3494 C3493 1.524 1_554 S
C3494 C3495 1.397 . S
C3494 C3499 1.363 . S
C3495 H3466 0.950 . S
C3495 C3494 1.397 . S
C3495 C3496 1.334 . S
C3496 H3467 0.950 1_455 S
C3496 C3495 1.334 . S
C3496 C3497 1.287 . S
C3497 C3496 1.287 . S
C3497 C3498 1.524 . S
C3497 H3500 0.999 . S
C3498 H3468 0.950 . S
C3498 C3497 1.524 . S
C3498 C3499 1.415 . S
C3499 H3469 0.950 . S
C3499 C3494 1.363 . S
C3499 C3498 1.415 . S
H3500 C3497 0.999 . S
H3501 C3482 0.913 . S
H3502 C3520 0.951 . S
H3503 C3522 0.951 . S
H3504 C3524 0.950 . S
H3505 C3525 0.950 . S
H3506 C3527 0.950 . S
H3507 C3530 0.950 . S
H3508 C3531 0.950 1_455 S
H3509 C3533 0.950 . S
H3510 C3534 0.950 . S
H3511 C3535 0.951 . S
H3512 C3537 0.951 . S
H3513 C3539 0.950 . S
H3514 C3540 0.950 . S
H3515 C3542 0.950 . S
H3516 C3545 0.950 . S
H3517 C3546 0.950 . S
H3518 C3548 0.950 . S
H3519 C3549 0.950 . S
C3520 H3502 0.951 . S
C3520 C3521 1.366 1_655 S
C3520 C3522 1.388 . S
C3521 C3520 1.366 1_455 S
C3521 C3525 1.385 . S
C3522 H3503 0.951 . S
C3522 C3520 1.388 . S
C3522 C3523 1.366 . S
C3523 C3522 1.366 . S
C3523 C3524 1.414 . S
C3523 C3526 1.499 . S
C3524 H3504 0.950 . S
C3524 C3523 1.414 . S
C3524 C3525 1.374 1_655 S
C3525 H3505 0.950 . S
C3525 C3521 1.385 . S
C3525 C3524 1.374 1_455 S
C3526 C3523 1.499 . S
C3526 C3527 1.373 . S
C3526 C3528 1.389 . S
C3527 H3506 0.950 . S
C3527 C3526 1.373 . S
C3527 C3543 1.377 . S
C3528 C3526 1.389 . S
C3528 C3529 1.524 . S
C3528 C3542 1.377 . S
C3529 C3528 1.524 . S
C3529 C3530 1.397 . S
C3529 C3534 1.363 . S
C3530 H3507 0.950 . S
C3530 C3529 1.397 . S
C3530 C3531 1.334 . S
C3531 H3508 0.950 1_655 S
C3531 C3530 1.334 . S
C3531 C3532 1.287 . S
C3532 C3531 1.287 . S
C3532 C3533 1.524 . S
C3532 H3551 0.913 . S
C3533 H3509 0.950 . S
C3533 C3532 1.524 . S
C3533 C3534 1.415 . S
C3534 H3510 0.950 . S
C3534 C3529 1.363 . S
C3534 C3533 1.415 . S
C3535 H3511 0.951 . S
C3535 C3536 1.366 . S
C3535 C3537 1.388 . S
C3536 C3535 1.366 . S
C3536 C3540 1.385 . S
C3537 H3512 0.951 . S
C3537 C3535 1.388 . S
C3537 C3538 1.366 . S
C3538 C3537 1.366 . S
C3538 C3539 1.414 . S
C3538 C3541 1.499 . S
C3539 H3513 0.950 . S
C3539 C3538 1.414 . S
C3539 C3540 1.374 . S
C3540 H3514 0.950 . S
C3540 C3536 1.385 . S
C3540 C3539 1.374 . S
C3541 C3538 1.499 . S
C3541 C3542 1.373 . S
C3541 C3543 1.389 . S
C3542 H3515 0.950 . S
C3542 C3528 1.377 . S
C3542 C3541 1.373 . S
C3543 C3527 1.377 . S
C3543 C3541 1.389 . S
C3543 C3544 1.524 . S
C3544 C3543 1.524 . S
C3544 C3545 1.397 . S
C3544 C3549 1.363 . S
C3545 H3516 0.950 . S
C3545 C3544 1.397 . S
C3545 C3546 1.334 . S
C3546 H3517 0.950 . S
C3546 C3545 1.334 . S
C3546 C3547 1.287 . S
C3547 C3546 1.287 . S
C3547 C3548 1.524 . S
C3547 H3550 0.999 . S
C3548 H3518 0.950 . S
C3548 C3547 1.524 . S
C3548 C3549 1.415 . S
C3549 H3519 0.950 . S
C3549 C3544 1.363 . S
C3549 C3548 1.415 . S
H3550 C3547 0.999 . S
H3551 C3532 0.913 . S
H3552 C3570 0.951 . S
H3553 C3572 0.951 . S
H3554 C3574 0.950 . S
H3555 C3575 0.950 . S
H3556 C3577 0.950 . S
H3557 C3580 0.950 . S
H3558 C3581 0.950 . S
H3559 C3583 0.950 . S
H3560 C3584 0.950 . S
H3561 C3585 0.951 . S
H3562 C3587 0.951 . S
H3563 C3589 0.950 . S
H3564 C3590 0.950 . S
H3565 C3592 0.950 . S
H3566 C3595 0.950 . S
H3567 C3596 0.950 . S
H3568 C3598 0.950 . S
H3569 C3599 0.950 . S
C3570 H3552 0.951 . S
C3570 C3571 1.366 . S
C3570 C3572 1.388 . S
C3571 C3570 1.366 . S
C3571 C3575 1.385 . S
C3572 H3553 0.951 . S
C3572 C3570 1.388 . S
C3572 C3573 1.366 . S
C3573 C3572 1.366 . S
C3573 C3574 1.414 . S
C3573 C3576 1.499 . S
C3574 H3554 0.950 . S
C3574 C3573 1.414 . S
C3574 C3575 1.374 . S
C3575 H3555 0.950 . S
C3575 C3571 1.385 . S
C3575 C3574 1.374 . S
C3576 C3573 1.499 . S
C3576 C3577 1.373 . S
C3576 C3578 1.389 . S
C3577 H3556 0.950 . S
C3577 C3576 1.373 . S
C3577 C3593 1.377 . S
C3578 C3576 1.389 . S
C3578 C3579 1.524 . S
C3578 C3592 1.377 . S
C3579 C3578 1.524 . S
C3579 C3580 1.397 . S
C3579 C3584 1.363 . S
C3580 H3557 0.950 . S
C3580 C3579 1.397 . S
C3580 C3581 1.334 . S
C3581 H3558 0.950 . S
C3581 C3580 1.334 . S
C3581 C3582 1.287 . S
C3582 C3581 1.287 . S
C3582 C3583 1.524 . S
C3582 H3601 0.913 . S
C3583 H3559 0.950 . S
C3583 C3582 1.524 . S
C3583 C3584 1.415 . S
C3584 H3560 0.950 . S
C3584 C3579 1.363 . S
C3584 C3583 1.415 . S
C3585 H3561 0.951 . S
C3585 C3586 1.366 . S
C3585 C3587 1.388 . S
C3586 C3585 1.366 . S
C3586 C3590 1.385 . S
C3587 H3562 0.951 . S
C3587 C3585 1.388 . S
C3587 C3588 1.366 . S
C3588 C3587 1.366 . S
C3588 C3589 1.414 . S
C3588 C3591 1.499 . S
C3589 H3563 0.950 . S
C3589 C3588 1.414 . S
C3589 C3590 1.374 . S
C3590 H3564 0.950 . S
C3590 C3586 1.385 . S
C3590 C3589 1.374 . S
C3591 C3588 1.499 . S
C3591 C3592 1.373 . S
C3591 C3593 1.389 . S
C3592 H3565 0.950 . S
C3592 C3578 1.377 . S
C3592 C3591 1.373 . S
C3593 C3577 1.377 . S
C3593 C3591 1.389 . S
C3593 C3594 1.524 . S
C3594 C3593 1.524 . S
C3594 C3595 1.397 . S
C3594 C3599 1.363 . S
C3595 H3566 0.950 . S
C3595 C3594 1.397 . S
C3595 C3596 1.334 . S
C3596 H3567 0.950 . S
C3596 C3595 1.334 . S
C3596 C3597 1.287 . S
C3597 C3596 1.287 . S
C3597 C3598 1.524 . S
C3597 H3600 0.999 . S
C3598 H3568 0.950 . S
C3598 C3597 1.524 . S
C3598 C3599 1.415 . S
C3599 H3569 0.950 . S
C3599 C3594 1.363 . S
C3599 C3598 1.415 . S
H3600 C3597 0.999 . S
H3601 C3582 0.913 . S
H3602 C3620 0.951 . S
H3603 C3622 0.951 . S
H3604 C3624 0.950 . S
H3605 C3625 0.950 . S
H3606 C3627 0.950 . S
H3607 C3630 0.950 . S
H3608 C3631 0.950 . S
H3609 C3633 0.950 . S
H3610 C3634 0.950 . S
H3611 C3635 0.951 . S
H3612 C3637 0.951 . S
H3613 C3639 0.950 . S
H3614 C3640 0.950 . S
H3615 C3642 0.950 . S
H3616 C3645 0.950 . S
H3617 C3646 0.950 . S
H3618 C3648 0.950 . S
H3619 C3649 0.950 . S
C3620 H3602 0.951 . S
C3620 C3621 1.366 . S
C3620 C3622 1.388 . S
C3621 C3620 1.366 . S
C3621 C3625 1.385 . S
C3622 H3603 0.951 . S
C3622 C3620 1.388 . S
C3622 C3623 1.366 . S
C3623 C3622 1.366 . S
C3623 C3624 1.414 . S
C3623 C3626 1.499 . S
C3624 H3604 0.950 . S
C3624 C3623 1.414 . S
C3624 C3625 1.374 . S
C3625 H3605 0.950 . S
C3625 C3621 1.385 . S
C3625 C3624 1.374 . S
C3626 C3623 1.499 . S
C3626 C3627 1.373 . S
C3626 C3628 1.389 . S
C3627 H3606 0.950 . S
C3627 C3626 1.373 . S
C3627 C3643 1.377 . S
C3628 C3626 1.389 . S
C3628 C3629 1.524 . S
C3628 C3642 1.377 . S
C3629 C3628 1.524 . S
C3629 C3630 1.397 . S
C3629 C3634 1.363 . S
C3630 H3607 0.950 . S
C3630 C3629 1.397 . S
C3630 C3631 1.334 . S
C3631 H3608 0.950 . S
C3631 C3630 1.334 . S
C3631 C3632 1.287 . S
C3632 C3631 1.287 . S
C3632 C3633 1.524 . S
C3632 H3651 0.913 . S
C3633 H3609 0.950 . S
C3633 C3632 1.524 . S
C3633 C3634 1.415 . S
C3634 H3610 0.950 . S
C3634 C3629 1.363 . S
C3634 C3633 1.415 . S
C3635 H3611 0.951 . S
C3635 C3636 1.366 . S
C3635 C3637 1.388 . S
C3636 C3635 1.366 . S
C3636 C3640 1.385 . S
C3637 H3612 0.951 . S
C3637 C3635 1.388 . S
C3637 C3638 1.366 . S
C3638 C3637 1.366 . S
C3638 C3639 1.414 . S
C3638 C3641 1.499 . S
C3639 H3613 0.950 . S
C3639 C3638 1.414 . S
C3639 C3640 1.374 . S
C3640 H3614 0.950 . S
C3640 C3636 1.385 . S
C3640 C3639 1.374 . S
C3641 C3638 1.499 . S
C3641 C3642 1.373 . S
C3641 C3643 1.389 . S
C3642 H3615 0.950 . S
C3642 C3628 1.377 . S
C3642 C3641 1.373 . S
C3643 C3627 1.377 . S
C3643 C3641 1.389 . S
C3643 C3644 1.524 . S
C3644 C3643 1.524 . S
C3644 C3645 1.397 . S
C3644 C3649 1.363 . S
C3645 H3616 0.950 . S
C3645 C3644 1.397 . S
C3645 C3646 1.334 . S
C3646 H3617 0.950 . S
C3646 C3645 1.334 . S
C3646 C3647 1.287 . S
C3647 C3646 1.287 . S
C3647 C3648 1.524 . S
C3647 H3650 0.999 . S
C3648 H3618 0.950 . S
C3648 C3647 1.524 . S
C3648 C3649 1.415 . S
C3649 H3619 0.950 . S
C3649 C3644 1.363 . S
C3649 C3648 1.415 . S
H3650 C3647 0.999 . S
H3651 C3632 0.913 . S
H3652 C3670 0.951 . S
H3653 C3672 0.951 . S
H3654 C3674 0.950 . S
H3655 C3675 0.950 . S
H3656 C3677 0.950 . S
H3657 C3680 0.950 . S
H3658 C3681 0.950 1_655 S
H3659 C3683 0.950 . S
H3660 C3684 0.950 . S
H3661 C3685 0.951 . S
H3662 C3687 0.951 . S
H3663 C3689 0.950 . S
H3664 C3690 0.950 . S
H3665 C3692 0.950 . S
H3666 C3695 0.950 . S
H3667 C3696 0.950 . S
H3668 C3698 0.950 . S
H3669 C3699 0.950 . S
C3670 H3652 0.951 . S
C3670 C3671 1.366 . S
C3670 C3672 1.388 . S
C3671 C3670 1.366 . S
C3671 C3675 1.385 . S
C3672 H3653 0.951 . S
C3672 C3670 1.388 . S
C3672 C3673 1.366 . S
C3673 C3672 1.366 . S
C3673 C3674 1.414 . S
C3673 C3676 1.499 . S
C3674 H3654 0.950 . S
C3674 C3673 1.414 . S
C3674 C3675 1.374 . S
C3675 H3655 0.950 . S
C3675 C3671 1.385 . S
C3675 C3674 1.374 . S
C3676 C3673 1.499 . S
C3676 C3677 1.373 . S
C3676 C3678 1.389 . S
C3677 H3656 0.950 . S
C3677 C3676 1.373 . S
C3677 C3693 1.377 . S
C3678 C3676 1.389 . S
C3678 C3679 1.524 . S
C3678 C3692 1.377 . S
C3679 C3678 1.524 . S
C3679 C3680 1.397 . S
C3679 C3684 1.363 . S
C3680 H3657 0.950 . S
C3680 C3679 1.397 . S
C3680 C3681 1.334 . S
C3681 H3658 0.950 1_455 S
C3681 C3680 1.334 . S
C3681 C3682 1.287 1_455 S
C3682 C3681 1.287 1_655 S
C3682 C3683 1.524 . S
C3682 H3701 0.913 . S
C3683 H3659 0.950 . S
C3683 C3682 1.524 . S
C3683 C3684 1.415 1_655 S
C3684 H3660 0.950 . S
C3684 C3679 1.363 . S
C3684 C3683 1.415 1_455 S
C3685 H3661 0.951 . S
C3685 C3686 1.366 . S
C3685 C3687 1.388 . S
C3686 C3685 1.366 . S
C3686 C3690 1.385 . S
C3687 H3662 0.951 . S
C3687 C3685 1.388 . S
C3687 C3688 1.366 . S
C3688 C3687 1.366 . S
C3688 C3689 1.414 . S
C3688 C3691 1.499 . S
C3689 H3663 0.950 . S
C3689 C3688 1.414 . S
C3689 C3690 1.374 . S
C3690 H3664 0.950 . S
C3690 C3686 1.385 . S
C3690 C3689 1.374 . S
C3691 C3688 1.499 . S
C3691 C3692 1.373 . S
C3691 C3693 1.389 . S
C3692 H3665 0.950 . S
C3692 C3678 1.377 . S
C3692 C3691 1.373 . S
C3693 C3677 1.377 . S
C3693 C3691 1.389 . S
C3693 C3694 1.524 . S
C3694 C3693 1.524 . S
C3694 C3695 1.397 . S
C3694 C3699 1.363 . S
C3695 H3666 0.950 . S
C3695 C3694 1.397 . S
C3695 C3696 1.334 . S
C3696 H3667 0.950 . S
C3696 C3695 1.334 . S
C3696 C3697 1.287 . S
C3697 C3696 1.287 . S
C3697 C3698 1.524 . S
C3697 H3700 0.999 . S
C3698 H3668 0.950 . S
C3698 C3697 1.524 . S
C3698 C3699 1.415 . S
C3699 H3669 0.950 . S
C3699 C3694 1.363 . S
C3699 C3698 1.415 . S
H3700 C3697 0.999 . S
H3701 C3682 0.913 . S
H3702 C3720 0.951 . S
H3703 C3722 0.951 . S
H3704 C3724 0.950 . S
H3705 C3725 0.950 . S
H3706 C3727 0.950 . S
H3707 C3730 0.950 . S
H3708 C3731 0.950 . S
H3709 C3733 0.950 . S
H3710 C3734 0.950 . S
H3711 C3735 0.951 . S
H3712 C3737 0.951 . S
H3713 C3739 0.950 . S
H3714 C3740 0.950 . S
H3715 C3742 0.950 . S
H3716 C3745 0.950 . S
H3717 C3746 0.950 . S
H3718 C3748 0.950 . S
H3719 C3749 0.950 . S
C3720 H3702 0.951 . S
C3720 C3721 1.366 . S
C3720 C3722 1.388 . S
C3721 C3720 1.366 . S
C3721 C3725 1.385 . S
C3722 H3703 0.951 . S
C3722 C3720 1.388 . S
C3722 C3723 1.366 . S
C3723 C3722 1.366 . S
C3723 C3724 1.414 . S
C3723 C3726 1.499 . S
C3724 H3704 0.950 . S
C3724 C3723 1.414 . S
C3724 C3725 1.374 . S
C3725 H3705 0.950 . S
C3725 C3721 1.385 . S
C3725 C3724 1.374 . S
C3726 C3723 1.499 . S
C3726 C3727 1.373 . S
C3726 C3728 1.389 . S
C3727 H3706 0.950 . S
C3727 C3726 1.373 . S
C3727 C3743 1.377 . S
C3728 C3726 1.389 . S
C3728 C3729 1.524 . S
C3728 C3742 1.377 . S
C3729 C3728 1.524 . S
C3729 C3730 1.397 . S
C3729 C3734 1.363 . S
C3730 H3707 0.950 . S
C3730 C3729 1.397 . S
C3730 C3731 1.334 . S
C3731 H3708 0.950 . S
C3731 C3730 1.334 . S
C3731 C3732 1.287 . S
C3732 C3731 1.287 . S
C3732 C3733 1.524 . S
C3732 H3751 0.913 . S
C3733 H3709 0.950 . S
C3733 C3732 1.524 . S
C3733 C3734 1.415 . S
C3734 H3710 0.950 . S
C3734 C3729 1.363 . S
C3734 C3733 1.415 . S
C3735 H3711 0.951 . S
C3735 C3736 1.366 . S
C3735 C3737 1.388 . S
C3736 C3735 1.366 . S
C3736 C3740 1.385 . S
C3737 H3712 0.951 . S
C3737 C3735 1.388 . S
C3737 C3738 1.366 . S
C3738 C3737 1.366 . S
C3738 C3739 1.414 . S
C3738 C3741 1.499 . S
C3739 H3713 0.950 . S
C3739 C3738 1.414 . S
C3739 C3740 1.374 . S
C3740 H3714 0.950 . S
C3740 C3736 1.385 . S
C3740 C3739 1.374 . S
C3741 C3738 1.499 . S
C3741 C3742 1.373 . S
C3741 C3743 1.389 . S
C3742 H3715 0.950 . S
C3742 C3728 1.377 . S
C3742 C3741 1.373 . S
C3743 C3727 1.377 . S
C3743 C3741 1.389 . S
C3743 C3744 1.524 . S
C3744 C3743 1.524 . S
C3744 C3745 1.397 . S
C3744 C3749 1.363 . S
C3745 H3716 0.950 . S
C3745 C3744 1.397 . S
C3745 C3746 1.334 . S
C3746 H3717 0.950 . S
C3746 C3745 1.334 . S
C3746 C3747 1.287 . S
C3747 C3746 1.287 . S
C3747 C3748 1.524 . S
C3747 H3750 0.999 . S
C3748 H3718 0.950 . S
C3748 C3747 1.524 . S
C3748 C3749 1.415 . S
C3749 H3719 0.950 . S
C3749 C3744 1.363 . S
C3749 C3748 1.415 . S
H3750 C3747 0.999 . S
H3751 C3732 0.913 . S
H3752 C3770 0.951 . S
H3753 C3772 0.951 . S
H3754 C3774 0.950 . S
H3755 C3775 0.950 . S
H3756 C3777 0.950 . S
H3757 C3780 0.950 . S
H3758 C3781 0.950 . S
H3759 C3783 0.950 . S
H3760 C3784 0.950 . S
H3761 C3785 0.951 . S
H3762 C3787 0.951 . S
H3763 C3789 0.950 . S
H3764 C3790 0.950 . S
H3765 C3792 0.950 . S
H3766 C3795 0.950 . S
H3767 C3796 0.950 . S
H3768 C3798 0.950 . S
H3769 C3799 0.950 . S
C3770 H3752 0.951 . S
C3770 C3771 1.366 . S
C3770 C3772 1.388 . S
C3771 C3770 1.366 . S
C3771 C3775 1.385 . S
C3772 H3753 0.951 . S
C3772 C3770 1.388 . S
C3772 C3773 1.366 . S
C3773 C3772 1.366 . S
C3773 C3774 1.414 . S
C3773 C3776 1.499 . S
C3774 H3754 0.950 . S
C3774 C3773 1.414 . S
C3774 C3775 1.374 . S
C3775 H3755 0.950 . S
C3775 C3771 1.385 . S
C3775 C3774 1.374 . S
C3776 C3773 1.499 . S
C3776 C3777 1.373 . S
C3776 C3778 1.389 . S
C3777 H3756 0.950 . S
C3777 C3776 1.373 . S
C3777 C3793 1.377 . S
C3778 C3776 1.389 . S
C3778 C3779 1.524 . S
C3778 C3792 1.377 . S
C3779 C3778 1.524 . S
C3779 C3780 1.397 . S
C3779 C3784 1.363 . S
C3780 H3757 0.950 . S
C3780 C3779 1.397 . S
C3780 C3781 1.334 . S
C3781 H3758 0.950 . S
C3781 C3780 1.334 . S
C3781 C3782 1.287 . S
C3782 C3781 1.287 . S
C3782 C3783 1.524 . S
C3782 H3801 0.913 . S
C3783 H3759 0.950 . S
C3783 C3782 1.524 . S
C3783 C3784 1.415 . S
C3784 H3760 0.950 . S
C3784 C3779 1.363 . S
C3784 C3783 1.415 . S
C3785 H3761 0.951 . S
C3785 C3786 1.366 . S
C3785 C3787 1.388 . S
C3786 C3785 1.366 . S
C3786 C3790 1.385 . S
C3787 H3762 0.951 . S
C3787 C3785 1.388 . S
C3787 C3788 1.366 . S
C3788 C3787 1.366 . S
C3788 C3789 1.414 . S
C3788 C3791 1.499 . S
C3789 H3763 0.950 . S
C3789 C3788 1.414 . S
C3789 C3790 1.374 . S
C3790 H3764 0.950 . S
C3790 C3786 1.385 . S
C3790 C3789 1.374 . S
C3791 C3788 1.499 . S
C3791 C3792 1.373 . S
C3791 C3793 1.389 . S
C3792 H3765 0.950 . S
C3792 C3778 1.377 . S
C3792 C3791 1.373 . S
C3793 C3777 1.377 . S
C3793 C3791 1.389 . S
C3793 C3794 1.524 . S
C3794 C3793 1.524 . S
C3794 C3795 1.397 . S
C3794 C3799 1.363 . S
C3795 H3766 0.950 . S
C3795 C3794 1.397 . S
C3795 C3796 1.334 . S
C3796 H3767 0.950 . S
C3796 C3795 1.334 . S
C3796 C3797 1.287 . S
C3797 C3796 1.287 . S
C3797 C3798 1.524 . S
C3797 H3800 0.999 . S
C3798 H3768 0.950 . S
C3798 C3797 1.524 . S
C3798 C3799 1.415 . S
C3799 H3769 0.950 . S
C3799 C3794 1.363 . S
C3799 C3798 1.415 . S
H3800 C3797 0.999 . S
H3801 C3782 0.913 . S
H3802 C3820 0.951 . S
H3803 C3822 0.951 . S
H3804 C3824 0.950 . S
H3805 C3825 0.950 . S
H3806 C3827 0.950 . S
H3807 C3830 0.950 . S
H3808 C3831 0.950 . S
H3809 C3833 0.950 . S
H3810 C3834 0.950 . S
H3811 C3835 0.951 . S
H3812 C3837 0.951 . S
H3813 C3839 0.950 . S
H3814 C3840 0.950 . S
H3815 C3842 0.950 . S
H3816 C3845 0.950 . S
H3817 C3846 0.950 . S
H3818 C3848 0.950 . S
H3819 C3849 0.950 . S
C3820 H3802 0.951 . S
C3820 C3821 1.366 . S
C3820 C3822 1.388 . S
C3821 C3820 1.366 . S
C3821 C3825 1.385 . S
C3822 H3803 0.951 . S
C3822 C3820 1.388 . S
C3822 C3823 1.366 . S
C3823 C3822 1.366 . S
C3823 C3824 1.414 . S
C3823 C3826 1.499 . S
C3824 H3804 0.950 . S
C3824 C3823 1.414 . S
C3824 C3825 1.374 . S
C3825 H3805 0.950 . S
C3825 C3821 1.385 . S
C3825 C3824 1.374 . S
C3826 C3823 1.499 . S
C3826 C3827 1.373 . S
C3826 C3828 1.389 . S
C3827 H3806 0.950 . S
C3827 C3826 1.373 . S
C3827 C3843 1.377 . S
C3828 C3826 1.389 . S
C3828 C3829 1.524 . S
C3828 C3842 1.377 . S
C3829 C3828 1.524 . S
C3829 C3830 1.397 . S
C3829 C3834 1.363 . S
C3830 H3807 0.950 . S
C3830 C3829 1.397 . S
C3830 C3831 1.334 . S
C3831 H3808 0.950 . S
C3831 C3830 1.334 . S
C3831 C3832 1.287 . S
C3832 C3831 1.287 . S
C3832 C3833 1.524 . S
C3832 H3851 0.913 . S
C3833 H3809 0.950 . S
C3833 C3832 1.524 . S
C3833 C3834 1.415 . S
C3834 H3810 0.950 . S
C3834 C3829 1.363 . S
C3834 C3833 1.415 . S
C3835 H3811 0.951 . S
C3835 C3836 1.366 . S
C3835 C3837 1.388 . S
C3836 C3835 1.366 . S
C3836 C3840 1.385 . S
C3837 H3812 0.951 . S
C3837 C3835 1.388 . S
C3837 C3838 1.366 . S
C3838 C3837 1.366 . S
C3838 C3839 1.414 . S
C3838 C3841 1.499 . S
C3839 H3813 0.950 . S
C3839 C3838 1.414 . S
C3839 C3840 1.374 . S
C3840 H3814 0.950 . S
C3840 C3836 1.385 . S
C3840 C3839 1.374 . S
C3841 C3838 1.499 . S
C3841 C3842 1.373 . S
C3841 C3843 1.389 . S
C3842 H3815 0.950 . S
C3842 C3828 1.377 . S
C3842 C3841 1.373 . S
C3843 C3827 1.377 . S
C3843 C3841 1.389 . S
C3843 C3844 1.524 . S
C3844 C3843 1.524 . S
C3844 C3845 1.397 . S
C3844 C3849 1.363 . S
C3845 H3816 0.950 . S
C3845 C3844 1.397 . S
C3845 C3846 1.334 . S
C3846 H3817 0.950 . S
C3846 C3845 1.334 . S
C3846 C3847 1.287 . S
C3847 C3846 1.287 . S
C3847 C3848 1.524 . S
C3847 H3850 0.999 . S
C3848 H3818 0.950 . S
C3848 C3847 1.524 . S
C3848 C3849 1.415 . S
C3849 H3819 0.950 . S
C3849 C3844 1.363 . S
C3849 C3848 1.415 . S
H3850 C3847 0.999 . S
H3851 C3832 0.913 . S
H3852 C3870 0.951 . S
H3853 C3872 0.951 . S
H3854 C3874 0.950 . S
H3855 C3875 0.950 . S
H3856 C3877 0.950 . S
H3857 C3880 0.950 . S
H3858 C3881 0.950 . S
H3859 C3883 0.950 . S
H3860 C3884 0.950 . S
H3861 C3885 0.951 . S
H3862 C3887 0.951 . S
H3863 C3889 0.950 . S
H3864 C3890 0.950 . S
H3865 C3892 0.950 . S
H3866 C3895 0.950 . S
H3867 C3896 0.950 . S
H3868 C3898 0.950 . S
H3869 C3899 0.950 . S
C3870 H3852 0.951 . S
C3870 C3871 1.366 . S
C3870 C3872 1.388 . S
C3871 C3870 1.366 . S
C3871 C3875 1.385 . S
C3872 H3853 0.951 . S
C3872 C3870 1.388 . S
C3872 C3873 1.366 . S
C3873 C3872 1.366 . S
C3873 C3874 1.414 . S
C3873 C3876 1.499 . S
C3874 H3854 0.950 . S
C3874 C3873 1.414 . S
C3874 C3875 1.374 . S
C3875 H3855 0.950 . S
C3875 C3871 1.385 . S
C3875 C3874 1.374 . S
C3876 C3873 1.499 . S
C3876 C3877 1.373 . S
C3876 C3878 1.389 . S
C3877 H3856 0.950 . S
C3877 C3876 1.373 . S
C3877 C3893 1.377 . S
C3878 C3876 1.389 . S
C3878 C3879 1.524 . S
C3878 C3892 1.377 . S
C3879 C3878 1.524 . S
C3879 C3880 1.397 . S
C3879 C3884 1.363 . S
C3880 H3857 0.950 . S
C3880 C3879 1.397 . S
C3880 C3881 1.334 . S
C3881 H3858 0.950 . S
C3881 C3880 1.334 . S
C3881 C3882 1.287 . S
C3882 C3881 1.287 . S
C3882 C3883 1.524 . S
C3882 H3901 0.913 . S
C3883 H3859 0.950 . S
C3883 C3882 1.524 . S
C3883 C3884 1.415 . S
C3884 H3860 0.950 . S
C3884 C3879 1.363 . S
C3884 C3883 1.415 . S
C3885 H3861 0.951 . S
C3885 C3886 1.366 . S
C3885 C3887 1.388 . S
C3886 C3885 1.366 . S
C3886 C3890 1.385 . S
C3887 H3862 0.951 . S
C3887 C3885 1.388 . S
C3887 C3888 1.366 . S
C3888 C3887 1.366 . S
C3888 C3889 1.414 . S
C3888 C3891 1.499 . S
C3889 H3863 0.950 . S
C3889 C3888 1.414 . S
C3889 C3890 1.374 . S
C3890 H3864 0.950 . S
C3890 C3886 1.385 . S
C3890 C3889 1.374 . S
C3891 C3888 1.499 . S
C3891 C3892 1.373 . S
C3891 C3893 1.389 . S
C3892 H3865 0.950 . S
C3892 C3878 1.377 . S
C3892 C3891 1.373 . S
C3893 C3877 1.377 . S
C3893 C3891 1.389 . S
C3893 C3894 1.524 . S
C3894 C3893 1.524 . S
C3894 C3895 1.397 . S
C3894 C3899 1.363 . S
C3895 H3866 0.950 . S
C3895 C3894 1.397 . S
C3895 C3896 1.334 . S
C3896 H3867 0.950 . S
C3896 C3895 1.334 . S
C3896 C3897 1.287 . S
C3897 C3896 1.287 . S
C3897 C3898 1.524 . S
C3897 H3900 0.999 1_455 S
C3898 H3868 0.950 . S
C3898 C3897 1.524 . S
C3898 C3899 1.415 . S
C3899 H3869 0.950 . S
C3899 C3894 1.363 . S
C3899 C3898 1.415 . S
H3900 C3897 0.999 1_655 S
H3901 C3882 0.913 . S
H3902 C3920 0.951 . S
H3903 C3922 0.951 . S
H3904 C3924 0.950 . S
H3905 C3925 0.950 . S
H3906 C3927 0.950 . S
H3907 C3930 0.950 . S
H3908 C3931 0.950 . S
H3909 C3933 0.950 . S
H3910 C3934 0.950 . S
H3911 C3935 0.951 . S
H3912 C3937 0.951 . S
H3913 C3939 0.950 . S
H3914 C3940 0.950 . S
H3915 C3942 0.950 . S
H3916 C3945 0.950 . S
H3917 C3946 0.950 . S
H3918 C3948 0.950 . S
H3919 C3949 0.950 . S
C3920 H3902 0.951 . S
C3920 C3921 1.366 . S
C3920 C3922 1.388 . S
C3921 C3920 1.366 . S
C3921 C3925 1.385 . S
C3922 H3903 0.951 . S
C3922 C3920 1.388 . S
C3922 C3923 1.366 . S
C3923 C3922 1.366 . S
C3923 C3924 1.414 . S
C3923 C3926 1.499 . S
C3924 H3904 0.950 . S
C3924 C3923 1.414 . S
C3924 C3925 1.374 . S
C3925 H3905 0.950 . S
C3925 C3921 1.385 . S
C3925 C3924 1.374 . S
C3926 C3923 1.499 . S
C3926 C3927 1.373 . S
C3926 C3928 1.389 . S
C3927 H3906 0.950 . S
C3927 C3926 1.373 . S
C3927 C3943 1.377 . S
C3928 C3926 1.389 . S
C3928 C3929 1.524 . S
C3928 C3942 1.377 . S
C3929 C3928 1.524 . S
C3929 C3930 1.397 . S
C3929 C3934 1.363 . S
C3930 H3907 0.950 . S
C3930 C3929 1.397 . S
C3930 C3931 1.334 . S
C3931 H3908 0.950 . S
C3931 C3930 1.334 . S
C3931 C3932 1.287 . S
C3932 C3931 1.287 . S
C3932 C3933 1.524 . S
C3932 H3951 0.913 . S
C3933 H3909 0.950 . S
C3933 C3932 1.524 . S
C3933 C3934 1.415 . S
C3934 H3910 0.950 . S
C3934 C3929 1.363 . S
C3934 C3933 1.415 . S
C3935 H3911 0.951 . S
C3935 C3936 1.366 . S
C3935 C3937 1.388 . S
C3936 C3935 1.366 . S
C3936 C3940 1.385 . S
C3937 H3912 0.951 . S
C3937 C3935 1.388 . S
C3937 C3938 1.366 . S
C3938 C3937 1.366 . S
C3938 C3939 1.414 . S
C3938 C3941 1.499 . S
C3939 H3913 0.950 . S
C3939 C3938 1.414 . S
C3939 C3940 1.374 . S
C3940 H3914 0.950 . S
C3940 C3936 1.385 . S
C3940 C3939 1.374 . S
C3941 C3938 1.499 . S
C3941 C3942 1.373 . S
C3941 C3943 1.389 . S
C3942 H3915 0.950 . S
C3942 C3928 1.377 . S
C3942 C3941 1.373 . S
C3943 C3927 1.377 . S
C3943 C3941 1.389 . S
C3943 C3944 1.524 . S
C3944 C3943 1.524 . S
C3944 C3945 1.397 . S
C3944 C3949 1.363 . S
C3945 H3916 0.950 . S
C3945 C3944 1.397 . S
C3945 C3946 1.334 . S
C3946 H3917 0.950 . S
C3946 C3945 1.334 . S
C3946 C3947 1.287 . S
C3947 C3946 1.287 . S
C3947 C3948 1.524 . S
C3947 H3950 0.999 . S
C3948 H3918 0.950 . S
C3948 C3947 1.524 . S
C3948 C3949 1.415 . S
C3949 H3919 0.950 . S
C3949 C3944 1.363 . S
C3949 C3948 1.415 . S
H3950 C3947 0.999 . S
H3951 C3932 0.913 . S
H3952 C3970 0.951 . S
H3953 C3972 0.951 . S
H3954 C3974 0.950 . S
H3955 C3975 0.950 . S
H3956 C3977 0.950 . S
H3957 C3980 0.950 . S
H3958 C3981 0.950 . S
H3959 C3983 0.950 . S
H3960 C3984 0.950 . S
H3961 C3985 0.951 . S
H3962 C3987 0.951 . S
H3963 C3989 0.950 . S
H3964 C3990 0.950 . S
H3965 C3992 0.950 . S
H3966 C3995 0.950 . S
H3967 C3996 0.950 . S
H3968 C3998 0.950 . S
H3969 C3999 0.950 . S
C3970 H3952 0.951 . S
C3970 C3971 1.366 . S
C3970 C3972 1.388 . S
C3971 C3970 1.366 . S
C3971 C3975 1.385 . S
C3972 H3953 0.951 . S
C3972 C3970 1.388 . S
C3972 C3973 1.366 . S
C3973 C3972 1.366 . S
C3973 C3974 1.414 . S
C3973 C3976 1.499 . S
C3974 H3954 0.950 . S
C3974 C3973 1.414 . S
C3974 C3975 1.374 . S
C3975 H3955 0.950 . S
C3975 C3971 1.385 . S
C3975 C3974 1.374 . S
C3976 C3973 1.499 . S
C3976 C3977 1.373 . S
C3976 C3978 1.389 . S
C3977 H3956 0.950 . S
C3977 C3976 1.373 . S
C3977 C3993 1.377 . S
C3978 C3976 1.389 . S
C3978 C3979 1.524 . S
C3978 C3992 1.377 . S
C3979 C3978 1.524 . S
C3979 C3980 1.397 . S
C3979 C3984 1.363 . S
C3980 H3957 0.950 . S
C3980 C3979 1.397 . S
C3980 C3981 1.334 . S
C3981 H3958 0.950 . S
C3981 C3980 1.334 . S
C3981 C3982 1.287 . S
C3982 C3981 1.287 . S
C3982 C3983 1.524 . S
C3982 H4001 0.913 . S
C3983 H3959 0.950 . S
C3983 C3982 1.524 . S
C3983 C3984 1.415 . S
C3984 H3960 0.950 . S
C3984 C3979 1.363 . S
C3984 C3983 1.415 . S
C3985 H3961 0.951 . S
C3985 C3986 1.366 . S
C3985 C3987 1.388 . S
C3986 C3985 1.366 . S
C3986 C3990 1.385 . S
C3987 H3962 0.951 . S
C3987 C3985 1.388 . S
C3987 C3988 1.366 . S
C3988 C3987 1.366 . S
C3988 C3989 1.414 . S
C3988 C3991 1.499 . S
C3989 H3963 0.950 . S
C3989 C3988 1.414 . S
C3989 C3990 1.374 . S
C3990 H3964 0.950 . S
C3990 C3986 1.385 . S
C3990 C3989 1.374 . S
C3991 C3988 1.499 . S
C3991 C3992 1.373 . S
C3991 C3993 1.389 . S
C3992 H3965 0.950 . S
C3992 C3978 1.377 . S
C3992 C3991 1.373 . S
C3993 C3977 1.377 . S
C3993 C3991 1.389 . S
C3993 C3994 1.524 . S
C3994 C3993 1.524 . S
C3994 C3995 1.397 . S
C3994 C3999 1.363 . S
C3995 H3966 0.950 . S
C3995 C3994 1.397 . S
C3995 C3996 1.334 . S
C3996 H3967 0.950 . S
C3996 C3995 1.334 . S
C3996 C3997 1.287 . S
C3997 C3996 1.287 . S
C3997 C3998 1.524 . S
C3997 H4000 0.999 . S
C3998 H3968 0.950 . S
C3998 C3997 1.524 . S
C3998 C3999 1.415 . S
C3999 H3969 0.950 . S
C3999 C3994 1.363 . S
C3999 C3998 1.415 . S
H4000 C3997 0.999 . S
H4001 C3982 0.913 . S
H4002 C4020 0.951 . S
H4003 C4022 0.951 . S
H4004 C4024 0.950 . S
H4005 C4025 0.950 . S
H4006 C4027 0.950 . S
H4007 C4030 0.950 . S
H4008 C4031 0.950 . S
H4009 C4033 0.950 . S
H4010 C4034 0.950 . S
H4011 C4035 0.951 . S
H4012 C4037 0.951 . S
H4013 C4039 0.950 . S
H4014 C4040 0.950 . S
H4015 C4042 0.950 . S
H4016 C4045 0.950 . S
H4017 C4046 0.950 . S
H4018 C4048 0.950 . S
H4019 C4049 0.950 . S
C4020 H4002 0.951 . S
C4020 C4021 1.366 . S
C4020 C4022 1.388 . S
C4021 C4020 1.366 . S
C4021 C4025 1.385 . S
C4022 H4003 0.951 . S
C4022 C4020 1.388 . S
C4022 C4023 1.366 . S
C4023 C4022 1.366 . S
C4023 C4024 1.414 . S
C4023 C4026 1.499 . S
C4024 H4004 0.950 . S
C4024 C4023 1.414 . S
C4024 C4025 1.374 . S
C4025 H4005 0.950 . S
C4025 C4021 1.385 . S
C4025 C4024 1.374 . S
C4026 C4023 1.499 . S
C4026 C4027 1.373 . S
C4026 C4028 1.389 . S
C4027 H4006 0.950 . S
C4027 C4026 1.373 . S
C4027 C4043 1.377 . S
C4028 C4026 1.389 . S
C4028 C4029 1.524 . S
C4028 C4042 1.377 . S
C4029 C4028 1.524 . S
C4029 C4030 1.397 . S
C4029 C4034 1.363 . S
C4030 H4007 0.950 . S
C4030 C4029 1.397 . S
C4030 C4031 1.334 . S
C4031 H4008 0.950 . S
C4031 C4030 1.334 . S
C4031 C4032 1.287 . S
C4032 C4031 1.287 . S
C4032 C4033 1.524 . S
C4032 H4051 0.913 . S
C4033 H4009 0.950 . S
C4033 C4032 1.524 . S
C4033 C4034 1.415 . S
C4034 H4010 0.950 . S
C4034 C4029 1.363 . S
C4034 C4033 1.415 . S
C4035 H4011 0.951 . S
C4035 C4036 1.366 . S
C4035 C4037 1.388 . S
C4036 C4035 1.366 . S
C4036 C4040 1.385 . S
C4037 H4012 0.951 . S
C4037 C4035 1.388 . S
C4037 C4038 1.366 . S
C4038 C4037 1.366 . S
C4038 C4039 1.414 . S
C4038 C4041 1.499 . S
C4039 H4013 0.950 . S
C4039 C4038 1.414 . S
C4039 C4040 1.374 . S
C4040 H4014 0.950 . S
C4040 C4036 1.385 . S
C4040 C4039 1.374 . S
C4041 C4038 1.499 . S
C4041 C4042 1.373 . S
C4041 C4043 1.389 . S
C4042 H4015 0.950 . S
C4042 C4028 1.377 . S
C4042 C4041 1.373 . S
C4043 C4027 1.377 . S
C4043 C4041 1.389 . S
C4043 C4044 1.524 . S
C4044 C4043 1.524 . S
C4044 C4045 1.397 . S
C4044 C4049 1.363 . S
C4045 H4016 0.950 . S
C4045 C4044 1.397 . S
C4045 C4046 1.334 . S
C4046 H4017 0.950 . S
C4046 C4045 1.334 . S
C4046 C4047 1.287 . S
C4047 C4046 1.287 . S
C4047 C4048 1.524 . S
C4047 H4050 0.999 . S
C4048 H4018 0.950 . S
C4048 C4047 1.524 . S
C4048 C4049 1.415 . S
C4049 H4019 0.950 . S
C4049 C4044 1.363 . S
C4049 C4048 1.415 . S
H4050 C4047 0.999 . S
H4051 C4032 0.913 . S
H4052 C4070 0.951 . S
H4053 C4072 0.951 . S
H4054 C4074 0.950 . S
H4055 C4075 0.950 . S
H4056 C4077 0.950 . S
H4057 C4080 0.950 . S
H4058 C4081 0.950 . S
H4059 C4083 0.950 . S
H4060 C4084 0.950 . S
H4061 C4085 0.951 . S
H4062 C4087 0.951 . S
H4063 C4089 0.950 . S
H4064 C4090 0.950 . S
H4065 C4092 0.950 . S
H4066 C4095 0.950 . S
H4067 C4096 0.950 . S
H4068 C4098 0.950 . S
H4069 C4099 0.950 . S
C4070 H4052 0.951 . S
C4070 C4071 1.366 . S
C4070 C4072 1.388 . S
C4071 C4070 1.366 . S
C4071 C4075 1.385 . S
C4072 H4053 0.951 . S
C4072 C4070 1.388 . S
C4072 C4073 1.366 . S
C4073 C4072 1.366 . S
C4073 C4074 1.414 . S
C4073 C4076 1.499 . S
C4074 H4054 0.950 . S
C4074 C4073 1.414 . S
C4074 C4075 1.374 . S
C4075 H4055 0.950 . S
C4075 C4071 1.385 . S
C4075 C4074 1.374 . S
C4076 C4073 1.499 . S
C4076 C4077 1.373 . S
C4076 C4078 1.389 . S
C4077 H4056 0.950 . S
C4077 C4076 1.373 . S
C4077 C4093 1.377 . S
C4078 C4076 1.389 . S
C4078 C4079 1.524 . S
C4078 C4092 1.377 . S
C4079 C4078 1.524 . S
C4079 C4080 1.397 . S
C4079 C4084 1.363 . S
C4080 H4057 0.950 . S
C4080 C4079 1.397 . S
C4080 C4081 1.334 . S
C4081 H4058 0.950 . S
C4081 C4080 1.334 . S
C4081 C4082 1.287 . S
C4082 C4081 1.287 . S
C4082 C4083 1.524 . S
C4082 H4101 0.913 . S
C4083 H4059 0.950 . S
C4083 C4082 1.524 . S
C4083 C4084 1.415 . S
C4084 H4060 0.950 . S
C4084 C4079 1.363 . S
C4084 C4083 1.415 . S
C4085 H4061 0.951 . S
C4085 C4086 1.366 . S
C4085 C4087 1.388 . S
C4086 C4085 1.366 . S
C4086 C4090 1.385 . S
C4087 H4062 0.951 . S
C4087 C4085 1.388 . S
C4087 C4088 1.366 . S
C4088 C4087 1.366 . S
C4088 C4089 1.414 . S
C4088 C4091 1.499 . S
C4089 H4063 0.950 . S
C4089 C4088 1.414 . S
C4089 C4090 1.374 . S
C4090 H4064 0.950 . S
C4090 C4086 1.385 . S
C4090 C4089 1.374 . S
C4091 C4088 1.499 . S
C4091 C4092 1.373 . S
C4091 C4093 1.389 . S
C4092 H4065 0.950 . S
C4092 C4078 1.377 . S
C4092 C4091 1.373 . S
C4093 C4077 1.377 . S
C4093 C4091 1.389 . S
C4093 C4094 1.524 . S
C4094 C4093 1.524 . S
C4094 C4095 1.397 . S
C4094 C4099 1.363 . S
C4095 H4066 0.950 . S
C4095 C4094 1.397 . S
C4095 C4096 1.334 . S
C4096 H4067 0.950 . S
C4096 C4095 1.334 . S
C4096 C4097 1.287 . S
C4097 C4096 1.287 . S
C4097 C4098 1.524 . S
C4097 H4100 0.999 . S
C4098 H4068 0.950 . S
C4098 C4097 1.524 . S
C4098 C4099 1.415 . S
C4099 H4069 0.950 . S
C4099 C4094 1.363 . S
C4099 C4098 1.415 . S
H4100 C4097 0.999 . S
H4101 C4082 0.913 . S
H4102 C4120 0.951 . S
H4103 C4122 0.951 . S
H4104 C4124 0.950 . S
H4105 C4125 0.950 . S
H4106 C4127 0.950 . S
H4107 C4130 0.950 . S
H4108 C4131 0.950 . S
H4109 C4133 0.950 . S
H4110 C4134 0.950 . S
H4111 C4135 0.951 . S
H4112 C4137 0.951 . S
H4113 C4139 0.950 . S
H4114 C4140 0.950 . S
H4115 C4142 0.950 . S
H4116 C4145 0.950 . S
H4117 C4146 0.950 . S
H4118 C4148 0.950 . S
H4119 C4149 0.950 . S
C4120 H4102 0.951 . S
C4120 C4121 1.366 . S
C4120 C4122 1.388 . S
C4121 C4120 1.366 . S
C4121 C4125 1.385 . S
C4122 H4103 0.951 . S
C4122 C4120 1.388 . S
C4122 C4123 1.366 . S
C4123 C4122 1.366 . S
C4123 C4124 1.414 . S
C4123 C4126 1.499 . S
C4124 H4104 0.950 . S
C4124 C4123 1.414 . S
C4124 C4125 1.374 . S
C4125 H4105 0.950 . S
C4125 C4121 1.385 . S
C4125 C4124 1.374 . S
C4126 C4123 1.499 . S
C4126 C4127 1.373 . S
C4126 C4128 1.389 . S
C4127 H4106 0.950 . S
C4127 C4126 1.373 . S
C4127 C4143 1.377 . S
C4128 C4126 1.389 . S
C4128 C4129 1.524 . S
C4128 C4142 1.377 . S
C4129 C4128 1.524 . S
C4129 C4130 1.397 . S
C4129 C4134 1.363 . S
C4130 H4107 0.950 . S
C4130 C4129 1.397 . S
C4130 C4131 1.334 . S
C4131 H4108 0.950 . S
C4131 C4130 1.334 . S
C4131 C4132 1.287 . S
C4132 C4131 1.287 . S
C4132 C4133 1.524 . S
C4132 H4151 0.913 . S
C4133 H4109 0.950 . S
C4133 C4132 1.524 . S
C4133 C4134 1.415 . S
C4134 H4110 0.950 . S
C4134 C4129 1.363 . S
C4134 C4133 1.415 . S
C4135 H4111 0.951 . S
C4135 C4136 1.366 . S
C4135 C4137 1.388 . S
C4136 C4135 1.366 . S
C4136 C4140 1.385 . S
C4137 H4112 0.951 . S
C4137 C4135 1.388 . S
C4137 C4138 1.366 . S
C4138 C4137 1.366 . S
C4138 C4139 1.414 . S
C4138 C4141 1.499 . S
C4139 H4113 0.950 . S
C4139 C4138 1.414 . S
C4139 C4140 1.374 . S
C4140 H4114 0.950 . S
C4140 C4136 1.385 . S
C4140 C4139 1.374 . S
C4141 C4138 1.499 . S
C4141 C4142 1.373 . S
C4141 C4143 1.389 . S
C4142 H4115 0.950 . S
C4142 C4128 1.377 . S
C4142 C4141 1.373 . S
C4143 C4127 1.377 . S
C4143 C4141 1.389 . S
C4143 C4144 1.524 . S
C4144 C4143 1.524 . S
C4144 C4145 1.397 . S
C4144 C4149 1.363 . S
C4145 H4116 0.950 . S
C4145 C4144 1.397 . S
C4145 C4146 1.334 . S
C4146 H4117 0.950 . S
C4146 C4145 1.334 . S
C4146 C4147 1.287 . S
C4147 C4146 1.287 . S
C4147 C4148 1.524 . S
C4147 H4150 0.999 . S
C4148 H4118 0.950 . S
C4148 C4147 1.524 . S
C4148 C4149 1.415 . S
C4149 H4119 0.950 . S
C4149 C4144 1.363 . S
C4149 C4148 1.415 . S
H4150 C4147 0.999 . S
H4151 C4132 0.913 . S
H4152 C4170 0.951 . S
H4153 C4172 0.951 . S
H4154 C4174 0.950 . S
H4155 C4175 0.950 . S
H4156 C4177 0.950 . S
H4157 C4180 0.950 . S
H4158 C4181 0.950 . S
H4159 C4183 0.950 . S
H4160 C4184 0.950 . S
H4161 C4185 0.951 . S
H4162 C4187 0.951 . S
H4163 C4189 0.950 . S
H4164 C4190 0.950 . S
H4165 C4192 0.950 . S
H4166 C4195 0.950 . S
H4167 C4196 0.950 . S
H4168 C4198 0.950 . S
H4169 C4199 0.950 . S
C4170 H4152 0.951 . S
C4170 C4171 1.366 . S
C4170 C4172 1.388 . S
C4171 C4170 1.366 . S
C4171 C4175 1.385 . S
C4172 H4153 0.951 . S
C4172 C4170 1.388 . S
C4172 C4173 1.366 . S
C4173 C4172 1.366 . S
C4173 C4174 1.414 . S
C4173 C4176 1.499 . S
C4174 H4154 0.950 . S
C4174 C4173 1.414 . S
C4174 C4175 1.374 . S
C4175 H4155 0.950 . S
C4175 C4171 1.385 . S
C4175 C4174 1.374 . S
C4176 C4173 1.499 . S
C4176 C4177 1.373 . S
C4176 C4178 1.389 . S
C4177 H4156 0.950 . S
C4177 C4176 1.373 . S
C4177 C4193 1.377 . S
C4178 C4176 1.389 . S
C4178 C4179 1.524 . S
C4178 C4192 1.377 . S
C4179 C4178 1.524 . S
C4179 C4180 1.397 . S
C4179 C4184 1.363 . S
C4180 H4157 0.950 . S
C4180 C4179 1.397 . S
C4180 C4181 1.334 . S
C4181 H4158 0.950 . S
C4181 C4180 1.334 . S
C4181 C4182 1.287 . S
C4182 C4181 1.287 . S
C4182 C4183 1.524 . S
C4182 H4201 0.913 . S
C4183 H4159 0.950 . S
C4183 C4182 1.524 . S
C4183 C4184 1.415 . S
C4184 H4160 0.950 . S
C4184 C4179 1.363 . S
C4184 C4183 1.415 . S
C4185 H4161 0.951 . S
C4185 C4186 1.366 . S
C4185 C4187 1.388 . S
C4186 C4185 1.366 . S
C4186 C4190 1.385 . S
C4187 H4162 0.951 . S
C4187 C4185 1.388 . S
C4187 C4188 1.366 . S
C4188 C4187 1.366 . S
C4188 C4189 1.414 . S
C4188 C4191 1.499 . S
C4189 H4163 0.950 . S
C4189 C4188 1.414 . S
C4189 C4190 1.374 . S
C4190 H4164 0.950 . S
C4190 C4186 1.385 . S
C4190 C4189 1.374 . S
C4191 C4188 1.499 . S
C4191 C4192 1.373 . S
C4191 C4193 1.389 . S
C4192 H4165 0.950 . S
C4192 C4178 1.377 . S
C4192 C4191 1.373 . S
C4193 C4177 1.377 . S
C4193 C4191 1.389 . S
C4193 C4194 1.524 . S
C4194 C4193 1.524 . S
C4194 C4195 1.397 . S
C4194 C4199 1.363 . S
C4195 H4166 0.950 . S
C4195 C4194 1.397 . S
C4195 C4196 1.334 . S
C4196 H4167 0.950 . S
C4196 C4195 1.334 . S
C4196 C4197 1.287 . S
C4197 C4196 1.287 . S
C4197 C4198 1.524 . S
C4197 H4200 0.999 . S
C4198 H4168 0.950 . S
C4198 C4197 1.524 . S
C4198 C4199 1.415 . S
C4199 H4169 0.950 . S
C4199 C4194 1.363 . S
C4199 C4198 1.415 . S
H4200 C4197 0.999 . S
H4201 C4182 0.913 . S
H4202 C4220 0.951 . S
H4203 C4222 0.951 . S
H4204 C4224 0.950 . S
H4205 C4225 0.950 . S
H4206 C4227 0.950 . S
H4207 C4230 0.950 . S
H4208 C4231 0.950 . S
H4209 C4233 0.950 . S
H4210 C4234 0.950 . S
H4211 C4235 0.951 . S
H4212 C4237 0.951 . S
H4213 C4239 0.950 . S
H4214 C4240 0.950 . S
H4215 C4242 0.950 . S
H4216 C4245 0.950 . S
H4217 C4246 0.950 . S
H4218 C4248 0.950 . S
H4219 C4249 0.950 . S
C4220 H4202 0.951 . S
C4220 C4221 1.366 . S
C4220 C4222 1.388 . S
C4221 C4220 1.366 . S
C4221 C4225 1.385 . S
C4222 H4203 0.951 . S
C4222 C4220 1.388 . S
C4222 C4223 1.366 . S
C4223 C4222 1.366 . S
C4223 C4224 1.414 . S
C4223 C4226 1.499 . S
C4224 H4204 0.950 . S
C4224 C4223 1.414 . S
C4224 C4225 1.374 . S
C4225 H4205 0.950 . S
C4225 C4221 1.385 . S
C4225 C4224 1.374 . S
C4226 C4223 1.499 . S
C4226 C4227 1.373 . S
C4226 C4228 1.389 . S
C4227 H4206 0.950 . S
C4227 C4226 1.373 . S
C4227 C4243 1.377 . S
C4228 C4226 1.389 . S
C4228 C4229 1.524 . S
C4228 C4242 1.377 . S
C4229 C4228 1.524 . S
C4229 C4230 1.397 . S
C4229 C4234 1.363 . S
C4230 H4207 0.950 . S
C4230 C4229 1.397 . S
C4230 C4231 1.334 . S
C4231 H4208 0.950 . S
C4231 C4230 1.334 . S
C4231 C4232 1.287 . S
C4232 C4231 1.287 . S
C4232 C4233 1.524 . S
C4232 H4251 0.913 . S
C4233 H4209 0.950 . S
C4233 C4232 1.524 . S
C4233 C4234 1.415 . S
C4234 H4210 0.950 . S
C4234 C4229 1.363 . S
C4234 C4233 1.415 . S
C4235 H4211 0.951 . S
C4235 C4236 1.366 . S
C4235 C4237 1.388 . S
C4236 C4235 1.366 . S
C4236 C4240 1.385 . S
C4237 H4212 0.951 . S
C4237 C4235 1.388 . S
C4237 C4238 1.366 . S
C4238 C4237 1.366 . S
C4238 C4239 1.414 . S
C4238 C4241 1.499 . S
C4239 H4213 0.950 . S
C4239 C4238 1.414 . S
C4239 C4240 1.374 . S
C4240 H4214 0.950 . S
C4240 C4236 1.385 . S
C4240 C4239 1.374 . S
C4241 C4238 1.499 . S
C4241 C4242 1.373 . S
C4241 C4243 1.389 . S
C4242 H4215 0.950 . S
C4242 C4228 1.377 . S
C4242 C4241 1.373 . S
C4243 C4227 1.377 . S
C4243 C4241 1.389 . S
C4243 C4244 1.524 . S
C4244 C4243 1.524 . S
C4244 C4245 1.397 . S
C4244 C4249 1.363 . S
C4245 H4216 0.950 . S
C4245 C4244 1.397 . S
C4245 C4246 1.334 . S
C4246 H4217 0.950 . S
C4246 C4245 1.334 . S
C4246 C4247 1.287 . S
C4247 C4246 1.287 . S
C4247 C4248 1.524 . S
C4247 H4250 0.999 . S
C4248 H4218 0.950 . S
C4248 C4247 1.524 . S
C4248 C4249 1.415 . S
C4249 H4219 0.950 . S
C4249 C4244 1.363 . S
C4249 C4248 1.415 . S
H4250 C4247 0.999 . S
H4251 C4232 0.913 . S
H4252 C4270 0.951 . S
H4253 C4272 0.951 1_565 S
H4254 C4274 0.950 . S
H4255 C4275 0.950 . S
H4256 C4277 0.950 1_545 S
H4257 C4280 0.950 . S
H4258 C4281 0.950 . S
H4259 C4283 0.950 . S
H4260 C4284 0.950 . S
H4261 C4285 0.951 . S
H4262 C4287 0.951 . S
H4263 C4289 0.950 . S
H4264 C4290 0.950 . S
H4265 C4292 0.950 . S
H4266 C4295 0.950 . S
H4267 C4296 0.950 . S
H4268 C4298 0.950 . S
H4269 C4299 0.950 . S
C4270 H4252 0.951 . S
C4270 C4271 1.366 . S
C4270 C4272 1.388 . S
C4271 C4270 1.366 . S
C4271 C4275 1.385 . S
C4272 H4253 0.951 1_545 S
C4272 C4270 1.388 . S
C4272 C4273 1.366 . S
C4273 C4272 1.366 . S
C4273 C4274 1.414 . S
C4273 C4276 1.499 1_545 S
C4274 H4254 0.950 . S
C4274 C4273 1.414 . S
C4274 C4275 1.374 . S
C4275 H4255 0.950 . S
C4275 C4271 1.385 . S
C4275 C4274 1.374 . S
C4276 C4273 1.499 1_565 S
C4276 C4277 1.373 . S
C4276 C4278 1.389 . S
C4277 H4256 0.950 1_565 S
C4277 C4276 1.373 . S
C4277 C4293 1.377 . S
C4278 C4276 1.389 . S
C4278 C4279 1.524 . S
C4278 C4292 1.377 . S
C4279 C4278 1.524 . S
C4279 C4280 1.397 . S
C4279 C4284 1.363 . S
C4280 H4257 0.950 . S
C4280 C4279 1.397 . S
C4280 C4281 1.334 . S
C4281 H4258 0.950 . S
C4281 C4280 1.334 . S
C4281 C4282 1.287 . S
C4282 C4281 1.287 . S
C4282 C4283 1.524 . S
C4282 H4301 0.913 . S
C4283 H4259 0.950 . S
C4283 C4282 1.524 . S
C4283 C4284 1.415 . S
C4284 H4260 0.950 . S
C4284 C4279 1.363 . S
C4284 C4283 1.415 . S
C4285 H4261 0.951 . S
C4285 C4286 1.366 . S
C4285 C4287 1.388 . S
C4286 C4285 1.366 . S
C4286 C4290 1.385 . S
C4287 H4262 0.951 . S
C4287 C4285 1.388 . S
C4287 C4288 1.366 . S
C4288 C4287 1.366 . S
C4288 C4289 1.414 . S
C4288 C4291 1.499 . S
C4289 H4263 0.950 . S
C4289 C4288 1.414 . S
C4289 C4290 1.374 . S
C4290 H4264 0.950 . S
C4290 C4286 1.385 . S
C4290 C4289 1.374 . S
C4291 C4288 1.499 . S
C4291 C4292 1.373 . S
C4291 C4293 1.389 . S
C4292 H4265 0.950 . S
C4292 C4278 1.377 . S
C4292 C4291 1.373 . S
C4293 C4277 1.377 . S
C4293 C4291 1.389 . S
C4293 C4294 1.524 . S
C4294 C4293 1.524 . S
C4294 C4295 1.397 . S
C4294 C4299 1.363 1_565 S
C4295 H4266 0.950 . S
C4295 C4294 1.397 . S
C4295 C4296 1.334 . S
C4296 H4267 0.950 . S
C4296 C4295 1.334 . S
C4296 C4297 1.287 1_565 S
C4297 C4296 1.287 1_545 S
C4297 C4298 1.524 . S
C4297 H4300 0.999 . S
C4298 H4268 0.950 . S
C4298 C4297 1.524 . S
C4298 C4299 1.415 . S
C4299 H4269 0.950 . S
C4299 C4294 1.363 1_545 S
C4299 C4298 1.415 . S
H4300 C4297 0.999 . S
H4301 C4282 0.913 . S
H4302 C4320 0.951 . S
H4303 C4322 0.951 . S
H4304 C4324 0.950 . S
H4305 C4325 0.950 . S
H4306 C4327 0.950 . S
H4307 C4330 0.950 . S
H4308 C4331 0.950 . S
H4309 C4333 0.950 . S
H4310 C4334 0.950 . S
H4311 C4335 0.951 . S
H4312 C4337 0.951 . S
H4313 C4339 0.950 . S
H4314 C4340 0.950 . S
H4315 C4342 0.948 1_565 S
H4316 C4345 0.950 . S
H4317 C4346 0.950 . S
H4318 C4348 0.950 . S
H4319 C4349 0.950 . S
C4320 H4302 0.951 . S
C4320 C4321 1.366 . S
C4320 C4322 1.388 . S
C4321 C4320 1.366 . S
C4321 C4325 1.385 . S
C4322 H4303 0.951 . S
C4322 C4320 1.388 . S
C4322 C4323 1.366 . S
C4323 C4322 1.366 . S
C4323 C4324 1.414 . S
C4323 C4326 1.499 . S
C4324 H4304 0.950 . S
C4324 C4323 1.414 . S
C4324 C4325 1.374 . S
C4325 H4305 0.950 . S
C4325 C4321 1.385 . S
C4325 C4324 1.374 . S
C4326 C4323 1.499 . S
C4326 C4327 1.373 1_565 S
C4326 C4328 1.389 . S
C4327 H4306 0.950 . S
C4327 C4326 1.373 1_545 S
C4327 C4343 1.377 . S
C4328 C4326 1.389 . S
C4328 C4329 1.524 . S
C4328 C4342 1.362 1_565 S
C4329 C4328 1.524 . S
C4329 C4330 1.397 . S
C4329 C4334 1.363 1_554 S
C4330 H4307 0.950 . S
C4330 C4329 1.397 . S
C4330 C4331 1.334 . S
C4331 H4308 0.950 . S
C4331 C4330 1.334 . S
C4331 C4332 1.287 1_554 S
C4332 C4331 1.287 1_556 S
C4332 C4333 1.524 . S
C4332 H4351 0.913 . S
C4333 H4309 0.950 . S
C4333 C4332 1.524 . S
C4333 C4334 1.415 . S
C4334 H4310 0.950 . S
C4334 C4329 1.363 1_556 S
C4334 C4333 1.415 . S
C4335 H4311 0.951 . S
C4335 C4336 1.366 . S
C4335 C4337 1.388 . S
C4336 C4335 1.366 . S
C4336 C4340 1.385 . S
C4337 H4312 0.951 . S
C4337 C4335 1.388 . S
C4337 C4338 1.366 . S
C4338 C4337 1.366 . S
C4338 C4339 1.414 . S
C4338 C4341 1.499 . S
C4339 H4313 0.950 . S
C4339 C4338 1.414 . S
C4339 C4340 1.374 . S
C4340 H4314 0.950 . S
C4340 C4336 1.385 . S
C4340 C4339 1.374 . S
C4341 C4338 1.499 . S
C4341 C4342 1.391 . S
C4341 C4343 1.389 . S
C4342 H4315 0.948 1_545 S
C4342 C4328 1.362 1_545 S
C4342 C4341 1.391 . S
C4343 C4327 1.377 . S
C4343 C4341 1.389 . S
C4343 C4344 1.524 . S
C4344 C4343 1.524 . S
C4344 C4345 1.397 . S
C4344 C4349 1.363 . S
C4345 H4316 0.950 . S
C4345 C4344 1.397 . S
C4345 C4346 1.334 . S
C4346 H4317 0.950 . S
C4346 C4345 1.334 . S
C4346 C4347 1.287 . S
C4347 C4346 1.287 . S
C4347 C4348 1.524 . S
C4347 H4350 0.999 . S
C4348 H4318 0.950 . S
C4348 C4347 1.524 . S
C4348 C4349 1.415 . S
C4349 H4319 0.950 . S
C4349 C4344 1.363 . S
C4349 C4348 1.415 . S
H4350 C4347 0.999 . S
H4351 C4332 0.913 . S
H4352 C4370 0.951 . S
H4353 C4372 0.951 . S
H4354 C4374 0.950 . S
H4355 C4375 0.950 . S
H4356 C4377 0.950 . S
H4357 C4380 0.950 . S
H4358 C4381 0.950 . S
H4359 C4383 0.950 . S
H4360 C4384 0.950 . S
H4361 C4385 0.951 . S
H4362 C4387 0.951 . S
H4363 C4389 0.950 . S
H4364 C4390 0.950 . S
H4365 C4392 0.950 . S
H4366 C4395 0.950 . S
H4367 C4396 0.950 . S
H4368 C4398 0.950 . S
H4369 C4399 0.950 . S
C4370 H4352 0.951 . S
C4370 C4371 1.366 . S
C4370 C4372 1.388 . S
C4371 C4370 1.366 . S
C4371 C4375 1.385 . S
C4372 H4353 0.951 . S
C4372 C4370 1.388 . S
C4372 C4373 1.366 . S
C4373 C4372 1.366 . S
C4373 C4374 1.414 . S
C4373 C4376 1.499 . S
C4374 H4354 0.950 . S
C4374 C4373 1.414 . S
C4374 C4375 1.374 . S
C4375 H4355 0.950 . S
C4375 C4371 1.385 . S
C4375 C4374 1.374 . S
C4376 C4373 1.499 . S
C4376 C4377 1.373 . S
C4376 C4378 1.389 . S
C4377 H4356 0.950 . S
C4377 C4376 1.373 . S
C4377 C4393 1.377 . S
C4378 C4376 1.389 . S
C4378 C4379 1.524 . S
C4378 C4392 1.377 . S
C4379 C4378 1.524 . S
C4379 C4380 1.397 . S
C4379 C4384 1.363 . S
C4380 H4357 0.950 . S
C4380 C4379 1.397 . S
C4380 C4381 1.334 . S
C4381 H4358 0.950 . S
C4381 C4380 1.334 . S
C4381 C4382 1.287 . S
C4382 C4381 1.287 . S
C4382 C4383 1.524 . S
C4382 H4401 0.913 . S
C4383 H4359 0.950 . S
C4383 C4382 1.524 . S
C4383 C4384 1.415 . S
C4384 H4360 0.950 . S
C4384 C4379 1.363 . S
C4384 C4383 1.415 . S
C4385 H4361 0.951 . S
C4385 C4386 1.366 . S
C4385 C4387 1.388 . S
C4386 C4385 1.366 . S
C4386 C4390 1.385 . S
C4387 H4362 0.951 . S
C4387 C4385 1.388 . S
C4387 C4388 1.366 . S
C4388 C4387 1.366 . S
C4388 C4389 1.414 . S
C4388 C4391 1.499 . S
C4389 H4363 0.950 . S
C4389 C4388 1.414 . S
C4389 C4390 1.374 . S
C4390 H4364 0.950 . S
C4390 C4386 1.385 . S
C4390 C4389 1.374 . S
C4391 C4388 1.499 . S
C4391 C4392 1.373 . S
C4391 C4393 1.389 . S
C4392 H4365 0.950 . S
C4392 C4378 1.377 . S
C4392 C4391 1.373 . S
C4393 C4377 1.377 . S
C4393 C4391 1.389 . S
C4393 C4394 1.524 . S
C4394 C4393 1.524 . S
C4394 C4395 1.397 . S
C4394 C4399 1.363 . S
C4395 H4366 0.950 . S
C4395 C4394 1.397 . S
C4395 C4396 1.334 . S
C4396 H4367 0.950 . S
C4396 C4395 1.334 . S
C4396 C4397 1.287 . S
C4397 C4396 1.287 . S
C4397 C4398 1.524 . S
C4397 H4400 0.999 . S
C4398 H4368 0.950 . S
C4398 C4397 1.524 . S
C4398 C4399 1.415 . S
C4399 H4369 0.950 . S
C4399 C4394 1.363 . S
C4399 C4398 1.415 . S
H4400 C4397 0.999 . S
H4401 C4382 0.913 . S
H4402 C4420 0.951 . S
H4403 C4422 0.951 . S
H4404 C4424 0.950 . S
H4405 C4425 0.950 . S
H4406 C4427 0.950 . S
H4407 C4430 0.950 . S
H4408 C4431 0.950 . S
H4409 C4433 0.950 . S
H4410 C4434 0.950 . S
H4411 C4435 0.951 . S
H4412 C4437 0.951 . S
H4413 C4439 0.950 . S
H4414 C4440 0.950 . S
H4415 C4442 0.950 . S
H4416 C4445 0.930 1_554 S
H4417 C4446 0.950 . S
H4418 C4448 0.950 . S
H4419 C4449 0.950 . S
C4420 H4402 0.951 . S
C4420 C4421 1.366 . S
C4420 C4422 1.388 . S
C4421 C4420 1.366 . S
C4421 C4425 1.385 . S
C4422 H4403 0.951 . S
C4422 C4420 1.388 . S
C4422 C4423 1.366 . S
C4423 C4422 1.366 . S
C4423 C4424 1.414 . S
C4423 C4426 1.499 . S
C4424 H4404 0.950 . S
C4424 C4423 1.414 . S
C4424 C4425 1.374 . S
C4425 H4405 0.950 . S
C4425 C4421 1.385 . S
C4425 C4424 1.374 . S
C4426 C4423 1.499 . S
C4426 C4427 1.373 . S
C4426 C4428 1.389 . S
C4427 H4406 0.950 . S
C4427 C4426 1.373 . S
C4427 C4443 1.377 . S
C4428 C4426 1.389 . S
C4428 C4429 1.524 . S
C4428 C4442 1.377 . S
C4429 C4428 1.524 . S
C4429 C4430 1.397 . S
C4429 C4434 1.363 . S
C4430 H4407 0.950 . S
C4430 C4429 1.397 . S
C4430 C4431 1.334 . S
C4431 H4408 0.950 . S
C4431 C4430 1.334 . S
C4431 C4432 1.287 . S
C4432 C4431 1.287 . S
C4432 C4433 1.524 . S
C4432 H4451 0.913 . S
C4433 H4409 0.950 . S
C4433 C4432 1.524 . S
C4433 C4434 1.415 . S
C4434 H4410 0.950 . S
C4434 C4429 1.363 . S
C4434 C4433 1.415 . S
C4435 H4411 0.951 . S
C4435 C4436 1.366 . S
C4435 C4437 1.388 . S
C4436 C4435 1.366 . S
C4436 C4440 1.385 . S
C4437 H4412 0.951 . S
C4437 C4435 1.388 . S
C4437 C4438 1.366 . S
C4438 C4437 1.366 . S
C4438 C4439 1.414 . S
C4438 C4441 1.499 . S
C4439 H4413 0.950 . S
C4439 C4438 1.414 . S
C4439 C4440 1.374 . S
C4440 H4414 0.950 . S
C4440 C4436 1.385 . S
C4440 C4439 1.374 . S
C4441 C4438 1.499 . S
C4441 C4442 1.373 . S
C4441 C4443 1.389 . S
C4442 H4415 0.950 . S
C4442 C4428 1.377 . S
C4442 C4441 1.373 . S
C4443 C4427 1.377 . S
C4443 C4441 1.389 . S
C4443 C4444 1.524 . S
C4444 C4443 1.524 . S
C4444 C4445 1.381 1_554 S
C4444 C4449 1.363 . S
C4445 H4416 0.930 1_556 S
C4445 C4444 1.381 1_556 S
C4445 C4446 1.370 . S
C4446 H4417 0.950 . S
C4446 C4445 1.370 . S
C4446 C4447 1.287 . S
C4447 C4446 1.287 . S
C4447 C4448 1.524 . S
C4447 H4450 0.999 . S
C4448 H4418 0.950 . S
C4448 C4447 1.524 . S
C4448 C4449 1.415 1_556 S
C4449 H4419 0.950 . S
C4449 C4444 1.363 . S
C4449 C4448 1.415 1_554 S
H4450 C4447 0.999 . S
H4451 C4432 0.913 . S
H4452 C4470 0.951 . S
H4453 C4472 0.951 . S
H4454 C4474 0.950 . S
H4455 C4475 0.950 . S
H4456 C4477 0.950 . S
H4457 C4480 0.950 . S
H4458 C4481 0.950 . S
H4459 C4483 0.950 . S
H4460 C4484 0.950 . S
H4461 C4485 0.951 . S
H4462 C4487 0.951 . S
H4463 C4489 0.950 . S
H4464 C4490 0.950 . S
H4465 C4492 0.950 . S
H4466 C4495 0.950 . S
H4467 C4496 0.950 . S
H4468 C4498 0.950 . S
H4469 C4499 0.950 . S
C4470 H4452 0.951 . S
C4470 C4471 1.366 . S
C4470 C4472 1.388 . S
C4471 C4470 1.366 . S
C4471 C4475 1.385 . S
C4472 H4453 0.951 . S
C4472 C4470 1.388 . S
C4472 C4473 1.366 . S
C4473 C4472 1.366 . S
C4473 C4474 1.414 . S
C4473 C4476 1.499 . S
C4474 H4454 0.950 . S
C4474 C4473 1.414 . S
C4474 C4475 1.374 . S
C4475 H4455 0.950 . S
C4475 C4471 1.385 . S
C4475 C4474 1.374 . S
C4476 C4473 1.499 . S
C4476 C4477 1.373 . S
C4476 C4478 1.389 . S
C4477 H4456 0.950 . S
C4477 C4476 1.373 . S
C4477 C4493 1.377 . S
C4478 C4476 1.389 . S
C4478 C4479 1.524 . S
C4478 C4492 1.377 . S
C4479 C4478 1.524 . S
C4479 C4480 1.397 . S
C4479 C4484 1.363 . S
C4480 H4457 0.950 . S
C4480 C4479 1.397 . S
C4480 C4481 1.334 . S
C4481 H4458 0.950 . S
C4481 C4480 1.334 . S
C4481 C4482 1.287 . S
C4482 C4481 1.287 . S
C4482 C4483 1.524 . S
C4482 H4501 0.913 . S
C4483 H4459 0.950 . S
C4483 C4482 1.524 . S
C4483 C4484 1.415 . S
C4484 H4460 0.950 . S
C4484 C4479 1.363 . S
C4484 C4483 1.415 . S
C4485 H4461 0.951 . S
C4485 C4486 1.366 . S
C4485 C4487 1.388 . S
C4486 C4485 1.366 . S
C4486 C4490 1.385 . S
C4487 H4462 0.951 . S
C4487 C4485 1.388 . S
C4487 C4488 1.366 . S
C4488 C4487 1.366 . S
C4488 C4489 1.414 . S
C4488 C4491 1.499 . S
C4489 H4463 0.950 . S
C4489 C4488 1.414 . S
C4489 C4490 1.374 . S
C4490 H4464 0.950 . S
C4490 C4486 1.385 . S
C4490 C4489 1.374 . S
C4491 C4488 1.499 . S
C4491 C4492 1.373 . S
C4491 C4493 1.389 . S
C4492 H4465 0.950 . S
C4492 C4478 1.377 . S
C4492 C4491 1.373 . S
C4493 C4477 1.377 . S
C4493 C4491 1.389 . S
C4493 C4494 1.524 . S
C4494 C4493 1.524 . S
C4494 C4495 1.397 . S
C4494 C4499 1.363 . S
C4495 H4466 0.950 . S
C4495 C4494 1.397 . S
C4495 C4496 1.334 . S
C4496 H4467 0.950 . S
C4496 C4495 1.334 . S
C4496 C4497 1.287 . S
C4497 C4496 1.287 . S
C4497 C4498 1.524 . S
C4497 H4500 0.999 . S
C4498 H4468 0.950 . S
C4498 C4497 1.524 . S
C4498 C4499 1.415 . S
C4499 H4469 0.950 . S
C4499 C4494 1.363 . S
C4499 C4498 1.415 . S
H4500 C4497 0.999 . S
H4501 C4482 0.913 . S
H4502 C4520 0.951 . S
H4503 C4522 0.951 . S
H4504 C4524 0.950 . S
H4505 C4525 0.950 . S
H4506 C4527 0.950 . S
H4507 C4530 0.950 . S
H4508 C4531 0.950 . S
H4509 C4533 0.950 . S
H4510 C4534 0.950 . S
H4511 C4535 0.951 . S
H4512 C4537 0.951 . S
H4513 C4539 0.950 . S
H4514 C4540 0.950 . S
H4515 C4542 0.950 . S
H4516 C4545 0.950 . S
H4517 C4546 0.950 . S
H4518 C4548 0.950 . S
H4519 C4549 0.950 . S
C4520 H4502 0.951 . S
C4520 C4521 1.366 . S
C4520 C4522 1.388 . S
C4521 C4520 1.366 . S
C4521 C4525 1.385 . S
C4522 H4503 0.951 . S
C4522 C4520 1.388 . S
C4522 C4523 1.366 . S
C4523 C4522 1.366 . S
C4523 C4524 1.414 . S
C4523 C4526 1.499 . S
C4524 H4504 0.950 . S
C4524 C4523 1.414 . S
C4524 C4525 1.374 . S
C4525 H4505 0.950 . S
C4525 C4521 1.385 . S
C4525 C4524 1.374 . S
C4526 C4523 1.499 . S
C4526 C4527 1.373 . S
C4526 C4528 1.389 . S
C4527 H4506 0.950 . S
C4527 C4526 1.373 . S
C4527 C4543 1.377 1_545 S
C4528 C4526 1.389 . S
C4528 C4529 1.524 . S
C4528 C4542 1.377 1_545 S
C4529 C4528 1.524 . S
C4529 C4530 1.397 . S
C4529 C4534 1.363 . S
C4530 H4507 0.950 . S
C4530 C4529 1.397 . S
C4530 C4531 1.334 . S
C4531 H4508 0.950 . S
C4531 C4530 1.334 . S
C4531 C4532 1.287 . S
C4532 C4531 1.287 . S
C4532 C4533 1.524 . S
C4532 H4551 0.913 . S
C4533 H4509 0.950 . S
C4533 C4532 1.524 . S
C4533 C4534 1.415 . S
C4534 H4510 0.950 . S
C4534 C4529 1.363 . S
C4534 C4533 1.415 . S
C4535 H4511 0.951 . S
C4535 C4536 1.366 . S
C4535 C4537 1.388 . S
C4536 C4535 1.366 . S
C4536 C4540 1.385 . S
C4537 H4512 0.951 . S
C4537 C4535 1.388 . S
C4537 C4538 1.366 . S
C4538 C4537 1.366 . S
C4538 C4539 1.414 . S
C4538 C4541 1.499 . S
C4539 H4513 0.950 . S
C4539 C4538 1.414 . S
C4539 C4540 1.374 . S
C4540 H4514 0.950 . S
C4540 C4536 1.385 . S
C4540 C4539 1.374 . S
C4541 C4538 1.499 . S
C4541 C4542 1.373 . S
C4541 C4543 1.389 . S
C4542 H4515 0.950 . S
C4542 C4528 1.377 1_565 S
C4542 C4541 1.373 . S
C4543 C4527 1.377 1_565 S
C4543 C4541 1.389 . S
C4543 C4544 1.524 . S
C4544 C4543 1.524 . S
C4544 C4545 1.397 . S
C4544 C4549 1.363 . S
C4545 H4516 0.950 . S
C4545 C4544 1.397 . S
C4545 C4546 1.334 . S
C4546 H4517 0.950 . S
C4546 C4545 1.334 . S
C4546 C4547 1.287 . S
C4547 C4546 1.287 . S
C4547 C4548 1.524 . S
C4547 H4550 0.999 . S
C4548 H4518 0.950 . S
C4548 C4547 1.524 . S
C4548 C4549 1.415 . S
C4549 H4519 0.950 . S
C4549 C4544 1.363 . S
C4549 C4548 1.415 . S
H4550 C4547 0.999 . S
H4551 C4532 0.913 . S
H4552 C4570 0.951 . S
H4553 C4572 0.951 . S
H4554 C4574 0.950 . S
H4555 C4575 0.950 . S
H4556 C4577 0.950 . S
H4557 C4580 0.950 . S
H4558 C4581 0.950 . S
H4559 C4583 0.950 . S
H4560 C4584 0.950 . S
H4561 C4585 0.951 . S
H4562 C4587 0.951 . S
H4563 C4589 0.950 . S
H4564 C4590 0.950 . S
H4565 C4592 0.950 . S
H4566 C4595 0.950 . S
H4567 C4596 0.950 . S
H4568 C4598 0.950 . S
H4569 C4599 0.950 . S
C4570 H4552 0.951 . S
C4570 C4571 1.366 . S
C4570 C4572 1.388 . S
C4571 C4570 1.366 . S
C4571 C4575 1.385 . S
C4572 H4553 0.951 . S
C4572 C4570 1.388 . S
C4572 C4573 1.366 . S
C4573 C4572 1.366 . S
C4573 C4574 1.414 . S
C4573 C4576 1.499 . S
C4574 H4554 0.950 . S
C4574 C4573 1.414 . S
C4574 C4575 1.374 . S
C4575 H4555 0.950 . S
C4575 C4571 1.385 . S
C4575 C4574 1.374 . S
C4576 C4573 1.499 . S
C4576 C4577 1.373 . S
C4576 C4578 1.389 . S
C4577 H4556 0.950 . S
C4577 C4576 1.373 . S
C4577 C4593 1.377 . S
C4578 C4576 1.389 . S
C4578 C4579 1.524 . S
C4578 C4592 1.377 . S
C4579 C4578 1.524 . S
C4579 C4580 1.397 . S
C4579 C4584 1.363 . S
C4580 H4557 0.950 . S
C4580 C4579 1.397 . S
C4580 C4581 1.334 . S
C4581 H4558 0.950 . S
C4581 C4580 1.334 . S
C4581 C4582 1.287 . S
C4582 C4581 1.287 . S
C4582 C4583 1.524 . S
C4582 H4601 0.913 . S
C4583 H4559 0.950 . S
C4583 C4582 1.524 . S
C4583 C4584 1.415 . S
C4584 H4560 0.950 . S
C4584 C4579 1.363 . S
C4584 C4583 1.415 . S
C4585 H4561 0.951 . S
C4585 C4586 1.366 . S
C4585 C4587 1.388 . S
C4586 C4585 1.366 . S
C4586 C4590 1.385 . S
C4587 H4562 0.951 . S
C4587 C4585 1.388 . S
C4587 C4588 1.366 . S
C4588 C4587 1.366 . S
C4588 C4589 1.414 . S
C4588 C4591 1.499 . S
C4589 H4563 0.950 . S
C4589 C4588 1.414 . S
C4589 C4590 1.374 . S
C4590 H4564 0.950 . S
C4590 C4586 1.385 . S
C4590 C4589 1.374 . S
C4591 C4588 1.499 . S
C4591 C4592 1.373 . S
C4591 C4593 1.389 . S
C4592 H4565 0.950 . S
C4592 C4578 1.377 . S
C4592 C4591 1.373 . S
C4593 C4577 1.377 . S
C4593 C4591 1.389 . S
C4593 C4594 1.524 . S
C4594 C4593 1.524 . S
C4594 C4595 1.397 . S
C4594 C4599 1.363 . S
C4595 H4566 0.950 . S
C4595 C4594 1.397 . S
C4595 C4596 1.334 . S
C4596 H4567 0.950 . S
C4596 C4595 1.334 . S
C4596 C4597 1.287 . S
C4597 C4596 1.287 . S
C4597 C4598 1.524 . S
C4597 H4600 0.999 . S
C4598 H4568 0.950 . S
C4598 C4597 1.524 . S
C4598 C4599 1.415 . S
C4599 H4569 0.950 . S
C4599 C4594 1.363 . S
C4599 C4598 1.415 . S
H4600 C4597 0.999 . S
H4601 C4582 0.913 . S
H4602 C4620 0.951 . S
H4603 C4622 0.951 . S
H4604 C4624 0.950 . S
H4605 C4625 0.950 . S
H4606 C4627 0.950 . S
H4607 C4630 0.950 . S
H4608 C4631 0.950 . S
H4609 C4633 0.950 . S
H4610 C4634 0.950 . S
H4611 C4635 0.951 . S
H4612 C4637 0.951 . S
H4613 C4639 0.950 . S
H4614 C4640 0.950 . S
H4615 C4642 0.950 . S
H4616 C4645 0.950 . S
H4617 C4646 0.950 . S
H4618 C4648 0.950 . S
H4619 C4649 0.950 . S
C4620 H4602 0.951 . S
C4620 C4621 1.366 . S
C4620 C4622 1.388 . S
C4621 C4620 1.366 . S
C4621 C4625 1.385 . S
C4622 H4603 0.951 . S
C4622 C4620 1.388 . S
C4622 C4623 1.366 . S
C4623 C4622 1.366 . S
C4623 C4624 1.414 . S
C4623 C4626 1.499 . S
C4624 H4604 0.950 . S
C4624 C4623 1.414 . S
C4624 C4625 1.374 . S
C4625 H4605 0.950 . S
C4625 C4621 1.385 . S
C4625 C4624 1.374 . S
C4626 C4623 1.499 . S
C4626 C4627 1.373 . S
C4626 C4628 1.389 . S
C4627 H4606 0.950 . S
C4627 C4626 1.373 . S
C4627 C4643 1.377 . S
C4628 C4626 1.389 . S
C4628 C4629 1.524 . S
C4628 C4642 1.377 . S
C4629 C4628 1.524 . S
C4629 C4630 1.397 . S
C4629 C4634 1.363 . S
C4630 H4607 0.950 . S
C4630 C4629 1.397 . S
C4630 C4631 1.334 . S
C4631 H4608 0.950 . S
C4631 C4630 1.334 . S
C4631 C4632 1.287 . S
C4632 C4631 1.287 . S
C4632 C4633 1.524 . S
C4632 H4651 0.913 . S
C4633 H4609 0.950 . S
C4633 C4632 1.524 . S
C4633 C4634 1.415 . S
C4634 H4610 0.950 . S
C4634 C4629 1.363 . S
C4634 C4633 1.415 . S
C4635 H4611 0.951 . S
C4635 C4636 1.366 . S
C4635 C4637 1.388 . S
C4636 C4635 1.366 . S
C4636 C4640 1.385 . S
C4637 H4612 0.951 . S
C4637 C4635 1.388 . S
C4637 C4638 1.366 . S
C4638 C4637 1.366 . S
C4638 C4639 1.414 . S
C4638 C4641 1.499 . S
C4639 H4613 0.950 . S
C4639 C4638 1.414 . S
C4639 C4640 1.374 . S
C4640 H4614 0.950 . S
C4640 C4636 1.385 . S
C4640 C4639 1.374 . S
C4641 C4638 1.499 . S
C4641 C4642 1.373 . S
C4641 C4643 1.389 . S
C4642 H4615 0.950 . S
C4642 C4628 1.377 . S
C4642 C4641 1.373 . S
C4643 C4627 1.377 . S
C4643 C4641 1.389 . S
C4643 C4644 1.524 . S
C4644 C4643 1.524 . S
C4644 C4645 1.397 . S
C4644 C4649 1.363 . S
C4645 H4616 0.950 . S
C4645 C4644 1.397 . S
C4645 C4646 1.334 . S
C4646 H4617 0.950 . S
C4646 C4645 1.334 . S
C4646 C4647 1.287 . S
C4647 C4646 1.287 . S
C4647 C4648 1.524 . S
C4647 H4650 0.999 . S
C4648 H4618 0.950 . S
C4648 C4647 1.524 . S
C4648 C4649 1.415 . S
C4649 H4619 0.950 . S
C4649 C4644 1.363 . S
C4649 C4648 1.415 . S
H4650 C4647 0.999 . S
H4651 C4632 0.913 . S
H4652 C4670 0.951 . S
H4653 C4672 0.951 . S
H4654 C4674 0.950 . S
H4655 C4675 0.950 . S
H4656 C4677 0.950 . S
H4657 C4680 0.950 . S
H4658 C4681 0.950 . S
H4659 C4683 0.950 . S
H4660 C4684 0.950 . S
H4661 C4685 0.951 . S
H4662 C4687 0.951 . S
H4663 C4689 0.950 . S
H4664 C4690 0.950 . S
H4665 C4692 0.950 . S
H4666 C4695 0.950 . S
H4667 C4696 0.950 . S
H4668 C4698 0.950 . S
H4669 C4699 0.952 . S
C4670 H4652 0.951 . S
C4670 C4671 1.366 . S
C4670 C4672 1.388 . S
C4671 C4670 1.366 . S
C4671 C4675 1.385 . S
C4672 H4653 0.951 . S
C4672 C4670 1.388 . S
C4672 C4673 1.366 . S
C4673 C4672 1.366 . S
C4673 C4674 1.414 . S
C4673 C4676 1.499 . S
C4674 H4654 0.950 . S
C4674 C4673 1.414 . S
C4674 C4675 1.374 . S
C4675 H4655 0.950 . S
C4675 C4671 1.385 . S
C4675 C4674 1.374 . S
C4676 C4673 1.499 . S
C4676 C4677 1.373 . S
C4676 C4678 1.389 . S
C4677 H4656 0.950 . S
C4677 C4676 1.373 . S
C4677 C4693 1.377 . S
C4678 C4676 1.389 . S
C4678 C4679 1.524 . S
C4678 C4692 1.377 . S
C4679 C4678 1.524 . S
C4679 C4680 1.397 . S
C4679 C4684 1.363 . S
C4680 H4657 0.950 . S
C4680 C4679 1.397 . S
C4680 C4681 1.334 . S
C4681 H4658 0.950 . S
C4681 C4680 1.334 . S
C4681 C4682 1.287 . S
C4682 C4681 1.287 . S
C4682 C4683 1.524 . S
C4682 H4701 0.913 . S
C4683 H4659 0.950 . S
C4683 C4682 1.524 . S
C4683 C4684 1.415 . S
C4684 H4660 0.950 . S
C4684 C4679 1.363 . S
C4684 C4683 1.415 . S
C4685 H4661 0.951 . S
C4685 C4686 1.366 . S
C4685 C4687 1.388 . S
C4686 C4685 1.366 . S
C4686 C4690 1.385 . S
C4687 H4662 0.951 . S
C4687 C4685 1.388 . S
C4687 C4688 1.366 . S
C4688 C4687 1.366 . S
C4688 C4689 1.414 . S
C4688 C4691 1.499 . S
C4689 H4663 0.950 . S
C4689 C4688 1.414 . S
C4689 C4690 1.374 . S
C4690 H4664 0.950 . S
C4690 C4686 1.385 . S
C4690 C4689 1.374 . S
C4691 C4688 1.499 . S
C4691 C4692 1.373 . S
C4691 C4693 1.389 . S
C4692 H4665 0.950 . S
C4692 C4678 1.377 . S
C4692 C4691 1.373 . S
C4693 C4677 1.377 . S
C4693 C4691 1.389 . S
C4693 C4694 1.524 . S
C4694 C4693 1.524 . S
C4694 C4695 1.397 . S
C4694 C4699 1.363 1_455 S
C4695 H4666 0.950 . S
C4695 C4694 1.397 . S
C4695 C4696 1.334 1_455 S
C4696 H4667 0.950 . S
C4696 C4695 1.334 1_655 S
C4696 C4697 1.287 . S
C4697 C4696 1.287 . S
C4697 C4698 1.524 . S
C4697 H4700 0.999 . S
C4698 H4668 0.950 . S
C4698 C4697 1.524 . S
C4698 C4699 1.415 . S
C4699 H4669 0.952 . S
C4699 C4694 1.363 1_655 S
C4699 C4698 1.415 . S
H4700 C4697 0.999 . S
H4701 C4682 0.913 . S
H4702 C4720 0.951 . S
H4703 C4722 0.951 . S
H4704 C4724 0.950 . S
H4705 C4725 0.950 . S
H4706 C4727 0.950 . S
H4707 C4730 0.950 . S
H4708 C4731 0.950 . S
H4709 C4733 0.950 . S
H4710 C4734 0.950 . S
H4711 C4735 0.951 . S
H4712 C4737 0.951 . S
H4713 C4739 0.950 . S
H4714 C4740 0.950 . S
H4715 C4742 0.950 . S
H4716 C4745 0.950 . S
H4717 C4746 0.950 . S
H4718 C4748 0.950 . S
H4719 C4749 0.950 . S
C4720 H4702 0.951 . S
C4720 C4721 1.366 . S
C4720 C4722 1.388 . S
C4721 C4720 1.366 . S
C4721 C4725 1.385 . S
C4722 H4703 0.951 . S
C4722 C4720 1.388 . S
C4722 C4723 1.366 . S
C4723 C4722 1.366 . S
C4723 C4724 1.414 . S
C4723 C4726 1.499 . S
C4724 H4704 0.950 . S
C4724 C4723 1.414 . S
C4724 C4725 1.374 . S
C4725 H4705 0.950 . S
C4725 C4721 1.385 . S
C4725 C4724 1.374 . S
C4726 C4723 1.499 . S
C4726 C4727 1.373 . S
C4726 C4728 1.389 . S
C4727 H4706 0.950 . S
C4727 C4726 1.373 . S
C4727 C4743 1.377 . S
C4728 C4726 1.389 . S
C4728 C4729 1.524 . S
C4728 C4742 1.377 . S
C4729 C4728 1.524 . S
C4729 C4730 1.397 . S
C4729 C4734 1.363 . S
C4730 H4707 0.950 . S
C4730 C4729 1.397 . S
C4730 C4731 1.334 . S
C4731 H4708 0.950 . S
C4731 C4730 1.334 . S
C4731 C4732 1.287 . S
C4732 C4731 1.287 . S
C4732 C4733 1.524 . S
C4732 H4751 0.913 . S
C4733 H4709 0.950 . S
C4733 C4732 1.524 . S
C4733 C4734 1.415 . S
C4734 H4710 0.950 . S
C4734 C4729 1.363 . S
C4734 C4733 1.415 . S
C4735 H4711 0.951 . S
C4735 C4736 1.366 . S
C4735 C4737 1.388 . S
C4736 C4735 1.366 . S
C4736 C4740 1.385 . S
C4737 H4712 0.951 . S
C4737 C4735 1.388 . S
C4737 C4738 1.366 . S
C4738 C4737 1.366 . S
C4738 C4739 1.414 . S
C4738 C4741 1.499 . S
C4739 H4713 0.950 . S
C4739 C4738 1.414 . S
C4739 C4740 1.374 . S
C4740 H4714 0.950 . S
C4740 C4736 1.385 . S
C4740 C4739 1.374 . S
C4741 C4738 1.499 . S
C4741 C4742 1.373 . S
C4741 C4743 1.389 . S
C4742 H4715 0.950 . S
C4742 C4728 1.377 . S
C4742 C4741 1.373 . S
C4743 C4727 1.377 . S
C4743 C4741 1.389 . S
C4743 C4744 1.524 . S
C4744 C4743 1.524 . S
C4744 C4745 1.397 . S
C4744 C4749 1.363 . S
C4745 H4716 0.950 . S
C4745 C4744 1.397 . S
C4745 C4746 1.334 . S
C4746 H4717 0.950 . S
C4746 C4745 1.334 . S
C4746 C4747 1.287 . S
C4747 C4746 1.287 . S
C4747 C4748 1.524 . S
C4747 H4750 0.999 . S
C4748 H4718 0.950 . S
C4748 C4747 1.524 . S
C4748 C4749 1.415 . S
C4749 H4719 0.950 . S
C4749 C4744 1.363 . S
C4749 C4748 1.415 . S
H4750 C4747 0.999 . S
H4751 C4732 0.913 . S
H4752 C4770 0.951 . S
H4753 C4772 0.951 . S
H4754 C4774 0.950 . S
H4755 C4775 0.950 . S
H4756 C4777 0.950 . S
H4757 C4780 0.950 . S
H4758 C4781 0.950 . S
H4759 C4783 0.950 . S
H4760 C4784 0.950 . S
H4761 C4785 0.951 . S
H4762 C4787 0.951 . S
H4763 C4789 0.950 . S
H4764 C4790 0.950 . S
H4765 C4792 0.950 . S
H4766 C4795 0.950 . S
H4767 C4796 0.950 . S
H4768 C4798 0.950 . S
H4769 C4799 0.950 . S
C4770 H4752 0.951 . S
C4770 C4771 1.366 . S
C4770 C4772 1.388 . S
C4771 C4770 1.366 . S
C4771 C4775 1.385 . S
C4772 H4753 0.951 . S
C4772 C4770 1.388 . S
C4772 C4773 1.366 . S
C4773 C4772 1.366 . S
C4773 C4774 1.414 . S
C4773 C4776 1.499 . S
C4774 H4754 0.950 . S
C4774 C4773 1.414 . S
C4774 C4775 1.374 . S
C4775 H4755 0.950 . S
C4775 C4771 1.385 . S
C4775 C4774 1.374 . S
C4776 C4773 1.499 . S
C4776 C4777 1.373 . S
C4776 C4778 1.389 . S
C4777 H4756 0.950 . S
C4777 C4776 1.373 . S
C4777 C4793 1.377 . S
C4778 C4776 1.389 . S
C4778 C4779 1.524 . S
C4778 C4792 1.377 . S
C4779 C4778 1.524 . S
C4779 C4780 1.397 . S
C4779 C4784 1.363 . S
C4780 H4757 0.950 . S
C4780 C4779 1.397 . S
C4780 C4781 1.334 . S
C4781 H4758 0.950 . S
C4781 C4780 1.334 . S
C4781 C4782 1.287 . S
C4782 C4781 1.287 . S
C4782 C4783 1.524 . S
C4782 H4801 0.913 . S
C4783 H4759 0.950 . S
C4783 C4782 1.524 . S
C4783 C4784 1.415 . S
C4784 H4760 0.950 . S
C4784 C4779 1.363 . S
C4784 C4783 1.415 . S
C4785 H4761 0.951 . S
C4785 C4786 1.347 1_554 S
C4785 C4787 1.388 . S
C4786 C4785 1.347 1_556 S
C4786 C4790 1.424 . S
C4787 H4762 0.951 . S
C4787 C4785 1.388 . S
C4787 C4788 1.366 1_554 S
C4788 C4787 1.366 1_556 S
C4788 C4789 1.414 . S
C4788 C4791 1.499 . S
C4789 H4763 0.950 . S
C4789 C4788 1.414 . S
C4789 C4790 1.374 . S
C4790 H4764 0.950 . S
C4790 C4786 1.424 . S
C4790 C4789 1.374 . S
C4791 C4788 1.499 . S
C4791 C4792 1.373 . S
C4791 C4793 1.389 . S
C4792 H4765 0.950 . S
C4792 C4778 1.377 . S
C4792 C4791 1.373 . S
C4793 C4777 1.377 . S
C4793 C4791 1.389 . S
C4793 C4794 1.524 . S
C4794 C4793 1.524 . S
C4794 C4795 1.397 . S
C4794 C4799 1.363 1_556 S
C4795 H4766 0.950 . S
C4795 C4794 1.397 . S
C4795 C4796 1.334 . S
C4796 H4767 0.950 . S
C4796 C4795 1.334 . S
C4796 C4797 1.287 1_556 S
C4797 C4796 1.287 1_554 S
C4797 C4798 1.524 . S
C4797 H4800 0.999 . S
C4798 H4768 0.950 . S
C4798 C4797 1.524 . S
C4798 C4799 1.415 . S
C4799 H4769 0.950 . S
C4799 C4794 1.363 1_554 S
C4799 C4798 1.415 . S
H4800 C4797 0.999 . S
H4801 C4782 0.913 . S
H4802 C4820 0.951 . S
H4803 C4822 0.951 . S
H4804 C4824 0.950 . S
H4805 C4825 0.950 . S
H4806 C4827 0.950 . S
H4807 C4830 0.950 . S
H4808 C4831 0.950 . S
H4809 C4833 0.950 . S
H4810 C4834 0.950 . S
H4811 C4835 0.951 . S
H4812 C4837 0.951 . S
H4813 C4839 0.950 . S
H4814 C4840 0.950 . S
H4815 C4842 0.950 . S
H4816 C4845 0.950 . S
H4817 C4846 0.950 . S
H4818 C4848 0.950 . S
H4819 C4849 0.950 . S
C4820 H4802 0.951 . S
C4820 C4821 1.366 . S
C4820 C4822 1.388 . S
C4821 C4820 1.366 . S
C4821 C4825 1.385 . S
C4822 H4803 0.951 . S
C4822 C4820 1.388 . S
C4822 C4823 1.366 . S
C4823 C4822 1.366 . S
C4823 C4824 1.414 . S
C4823 C4826 1.499 . S
C4824 H4804 0.950 . S
C4824 C4823 1.414 . S
C4824 C4825 1.374 . S
C4825 H4805 0.950 . S
C4825 C4821 1.385 . S
C4825 C4824 1.374 . S
C4826 C4823 1.499 . S
C4826 C4827 1.373 . S
C4826 C4828 1.389 . S
C4827 H4806 0.950 . S
C4827 C4826 1.373 . S
C4827 C4843 1.377 . S
C4828 C4826 1.389 . S
C4828 C4829 1.524 . S
C4828 C4842 1.377 . S
C4829 C4828 1.524 . S
C4829 C4830 1.397 . S
C4829 C4834 1.363 . S
C4830 H4807 0.950 . S
C4830 C4829 1.397 . S
C4830 C4831 1.334 . S
C4831 H4808 0.950 . S
C4831 C4830 1.334 . S
C4831 C4832 1.287 . S
C4832 C4831 1.287 . S
C4832 C4833 1.524 . S
C4832 H4851 0.913 . S
C4833 H4809 0.950 . S
C4833 C4832 1.524 . S
C4833 C4834 1.415 . S
C4834 H4810 0.950 . S
C4834 C4829 1.363 . S
C4834 C4833 1.415 . S
C4835 H4811 0.951 . S
C4835 C4836 1.366 . S
C4835 C4837 1.388 . S
C4836 C4835 1.366 . S
C4836 C4840 1.385 . S
C4837 H4812 0.951 . S
C4837 C4835 1.388 . S
C4837 C4838 1.366 . S
C4838 C4837 1.366 . S
C4838 C4839 1.414 . S
C4838 C4841 1.499 . S
C4839 H4813 0.950 . S
C4839 C4838 1.414 . S
C4839 C4840 1.374 . S
C4840 H4814 0.950 . S
C4840 C4836 1.385 . S
C4840 C4839 1.374 . S
C4841 C4838 1.499 . S
C4841 C4842 1.373 . S
C4841 C4843 1.389 . S
C4842 H4815 0.950 . S
C4842 C4828 1.377 . S
C4842 C4841 1.373 . S
C4843 C4827 1.377 . S
C4843 C4841 1.389 . S
C4843 C4844 1.524 . S
C4844 C4843 1.524 . S
C4844 C4845 1.397 . S
C4844 C4849 1.363 . S
C4845 H4816 0.950 . S
C4845 C4844 1.397 . S
C4845 C4846 1.334 . S
C4846 H4817 0.950 . S
C4846 C4845 1.334 . S
C4846 C4847 1.287 . S
C4847 C4846 1.287 . S
C4847 C4848 1.524 . S
C4847 H4850 0.999 . S
C4848 H4818 0.950 . S
C4848 C4847 1.524 . S
C4848 C4849 1.415 . S
C4849 H4819 0.950 . S
C4849 C4844 1.363 . S
C4849 C4848 1.415 . S
H4850 C4847 0.999 . S
H4851 C4832 0.913 . S
H4852 C4870 0.951 . S
H4853 C4872 0.951 . S
H4854 C4874 0.950 . S
H4855 C4875 0.950 . S
H4856 C4877 0.950 . S
H4857 C4880 0.950 . S
H4858 C4881 0.950 . S
H4859 C4883 0.950 . S
H4860 C4884 0.950 . S
H4861 C4885 0.951 . S
H4862 C4887 0.951 . S
H4863 C4889 0.950 . S
H4864 C4890 0.950 . S
H4865 C4892 0.950 . S
H4866 C4895 0.950 . S
H4867 C4896 0.950 . S
H4868 C4898 0.950 . S
H4869 C4899 0.950 . S
C4870 H4852 0.951 . S
C4870 C4871 1.366 . S
C4870 C4872 1.388 . S
C4871 C4870 1.366 . S
C4871 C4875 1.385 . S
C4872 H4853 0.951 . S
C4872 C4870 1.388 . S
C4872 C4873 1.366 . S
C4873 C4872 1.366 . S
C4873 C4874 1.414 . S
C4873 C4876 1.499 . S
C4874 H4854 0.950 . S
C4874 C4873 1.414 . S
C4874 C4875 1.374 . S
C4875 H4855 0.950 . S
C4875 C4871 1.385 . S
C4875 C4874 1.374 . S
C4876 C4873 1.499 . S
C4876 C4877 1.373 . S
C4876 C4878 1.389 . S
C4877 H4856 0.950 . S
C4877 C4876 1.373 . S
C4877 C4893 1.377 . S
C4878 C4876 1.389 . S
C4878 C4879 1.524 . S
C4878 C4892 1.377 . S
C4879 C4878 1.524 . S
C4879 C4880 1.397 . S
C4879 C4884 1.363 . S
C4880 H4857 0.950 . S
C4880 C4879 1.397 . S
C4880 C4881 1.334 . S
C4881 H4858 0.950 . S
C4881 C4880 1.334 . S
C4881 C4882 1.287 . S
C4882 C4881 1.287 . S
C4882 C4883 1.524 . S
C4882 H4901 0.913 . S
C4883 H4859 0.950 . S
C4883 C4882 1.524 . S
C4883 C4884 1.415 . S
C4884 H4860 0.950 . S
C4884 C4879 1.363 . S
C4884 C4883 1.415 . S
C4885 H4861 0.951 . S
C4885 C4886 1.366 . S
C4885 C4887 1.388 . S
C4886 C4885 1.366 . S
C4886 C4890 1.385 . S
C4887 H4862 0.951 . S
C4887 C4885 1.388 . S
C4887 C4888 1.366 . S
C4888 C4887 1.366 . S
C4888 C4889 1.414 . S
C4888 C4891 1.499 . S
C4889 H4863 0.950 . S
C4889 C4888 1.414 . S
C4889 C4890 1.374 . S
C4890 H4864 0.950 . S
C4890 C4886 1.385 . S
C4890 C4889 1.374 . S
C4891 C4888 1.499 . S
C4891 C4892 1.373 . S
C4891 C4893 1.389 . S
C4892 H4865 0.950 . S
C4892 C4878 1.377 . S
C4892 C4891 1.373 . S
C4893 C4877 1.377 . S
C4893 C4891 1.389 . S
C4893 C4894 1.524 . S
C4894 C4893 1.524 . S
C4894 C4895 1.397 1_455 S
C4894 C4899 1.363 . S
C4895 H4866 0.950 . S
C4895 C4894 1.397 1_655 S
C4895 C4896 1.334 . S
C4896 H4867 0.950 . S
C4896 C4895 1.334 . S
C4896 C4897 1.287 . S
C4897 C4896 1.287 . S
C4897 C4898 1.524 . S
C4897 H4900 0.999 . S
C4898 H4868 0.950 . S
C4898 C4897 1.524 . S
C4898 C4899 1.415 1_655 S
C4899 H4869 0.950 . S
C4899 C4894 1.363 . S
C4899 C4898 1.415 1_455 S
H4900 C4897 0.999 . S
H4901 C4882 0.913 . S
H4902 C4920 0.951 . S
H4903 C4922 0.951 . S
H4904 C4924 0.950 . S
H4905 C4925 0.950 . S
H4906 C4927 0.950 . S
H4907 C4930 0.950 . S
H4908 C4931 0.950 . S
H4909 C4933 0.950 . S
H4910 C4934 0.950 . S
H4911 C4935 0.951 . S
H4912 C4937 0.951 . S
H4913 C4939 0.950 . S
H4914 C4940 0.950 . S
H4915 C4942 0.950 . S
H4916 C4945 0.950 . S
H4917 C4946 0.950 . S
H4918 C4948 0.950 . S
H4919 C4949 0.950 . S
C4920 H4902 0.951 . S
C4920 C4921 1.366 . S
C4920 C4922 1.388 . S
C4921 C4920 1.366 . S
C4921 C4925 1.385 . S
C4922 H4903 0.951 . S
C4922 C4920 1.388 . S
C4922 C4923 1.366 . S
C4923 C4922 1.366 . S
C4923 C4924 1.414 . S
C4923 C4926 1.499 . S
C4924 H4904 0.950 . S
C4924 C4923 1.414 . S
C4924 C4925 1.374 . S
C4925 H4905 0.950 . S
C4925 C4921 1.385 . S
C4925 C4924 1.374 . S
C4926 C4923 1.499 . S
C4926 C4927 1.373 . S
C4926 C4928 1.389 . S
C4927 H4906 0.950 . S
C4927 C4926 1.373 . S
C4927 C4943 1.377 . S
C4928 C4926 1.389 . S
C4928 C4929 1.524 . S
C4928 C4942 1.377 . S
C4929 C4928 1.524 . S
C4929 C4930 1.397 . S
C4929 C4934 1.363 . S
C4930 H4907 0.950 . S
C4930 C4929 1.397 . S
C4930 C4931 1.334 . S
C4931 H4908 0.950 . S
C4931 C4930 1.334 . S
C4931 C4932 1.287 . S
C4932 C4931 1.287 . S
C4932 C4933 1.524 . S
C4932 H4951 0.913 . S
C4933 H4909 0.950 . S
C4933 C4932 1.524 . S
C4933 C4934 1.415 . S
C4934 H4910 0.950 . S
C4934 C4929 1.363 . S
C4934 C4933 1.415 . S
C4935 H4911 0.951 . S
C4935 C4936 1.366 . S
C4935 C4937 1.388 . S
C4936 C4935 1.366 . S
C4936 C4940 1.385 . S
C4937 H4912 0.951 . S
C4937 C4935 1.388 . S
C4937 C4938 1.366 . S
C4938 C4937 1.366 . S
C4938 C4939 1.414 . S
C4938 C4941 1.499 . S
C4939 H4913 0.950 . S
C4939 C4938 1.414 . S
C4939 C4940 1.374 . S
C4940 H4914 0.950 . S
C4940 C4936 1.385 . S
C4940 C4939 1.374 . S
C4941 C4938 1.499 . S
C4941 C4942 1.373 . S
C4941 C4943 1.389 . S
C4942 H4915 0.950 . S
C4942 C4928 1.377 . S
C4942 C4941 1.373 . S
C4943 C4927 1.377 . S
C4943 C4941 1.389 . S
C4943 C4944 1.524 . S
C4944 C4943 1.524 . S
C4944 C4945 1.397 . S
C4944 C4949 1.363 . S
C4945 H4916 0.950 . S
C4945 C4944 1.397 . S
C4945 C4946 1.334 . S
C4946 H4917 0.950 . S
C4946 C4945 1.334 . S
C4946 C4947 1.287 . S
C4947 C4946 1.287 . S
C4947 C4948 1.524 . S
C4947 H4950 0.999 . S
C4948 H4918 0.950 . S
C4948 C4947 1.524 . S
C4948 C4949 1.415 . S
C4949 H4919 0.950 . S
C4949 C4944 1.363 . S
C4949 C4948 1.415 . S
H4950 C4947 0.999 . S
H4951 C4932 0.913 . S
H4952 C4970 0.951 . S
H4953 C4972 0.951 . S
H4954 C4974 0.950 . S
H4955 C4975 0.950 . S
H4956 C4977 0.950 . S
H4957 C4980 0.950 . S
H4958 C4981 0.950 . S
H4959 C4983 0.950 . S
H4960 C4984 0.950 . S
H4961 C4985 0.951 . S
H4962 C4987 0.951 . S
H4963 C4989 0.950 . S
H4964 C4990 0.950 . S
H4965 C4992 0.950 . S
H4966 C4995 0.950 . S
H4967 C4996 0.950 . S
H4968 C4998 0.950 . S
H4969 C4999 0.950 . S
C4970 H4952 0.951 . S
C4970 C4971 1.366 . S
C4970 C4972 1.388 . S
C4971 C4970 1.366 . S
C4971 C4975 1.385 . S
C4972 H4953 0.951 . S
C4972 C4970 1.388 . S
C4972 C4973 1.366 . S
C4973 C4972 1.366 . S
C4973 C4974 1.414 . S
C4973 C4976 1.499 . S
C4974 H4954 0.950 . S
C4974 C4973 1.414 . S
C4974 C4975 1.374 . S
C4975 H4955 0.950 . S
C4975 C4971 1.385 . S
C4975 C4974 1.374 . S
C4976 C4973 1.499 . S
C4976 C4977 1.373 . S
C4976 C4978 1.389 . S
C4977 H4956 0.950 . S
C4977 C4976 1.373 . S
C4977 C4993 1.377 . S
C4978 C4976 1.389 . S
C4978 C4979 1.524 . S
C4978 C4992 1.377 . S
C4979 C4978 1.524 . S
C4979 C4980 1.397 . S
C4979 C4984 1.363 . S
C4980 H4957 0.950 . S
C4980 C4979 1.397 . S
C4980 C4981 1.334 . S
C4981 H4958 0.950 . S
C4981 C4980 1.334 . S
C4981 C4982 1.287 . S
C4982 C4981 1.287 . S
C4982 C4983 1.524 . S
C4982 H5001 0.913 . S
C4983 H4959 0.950 . S
C4983 C4982 1.524 . S
C4983 C4984 1.415 . S
C4984 H4960 0.950 . S
C4984 C4979 1.363 . S
C4984 C4983 1.415 . S
C4985 H4961 0.951 . S
C4985 C4986 1.366 . S
C4985 C4987 1.388 . S
C4986 C4985 1.366 . S
C4986 C4990 1.385 . S
C4987 H4962 0.951 . S
C4987 C4985 1.388 . S
C4987 C4988 1.366 . S
C4988 C4987 1.366 . S
C4988 C4989 1.414 . S
C4988 C4991 1.499 . S
C4989 H4963 0.950 . S
C4989 C4988 1.414 . S
C4989 C4990 1.374 . S
C4990 H4964 0.950 . S
C4990 C4986 1.385 . S
C4990 C4989 1.374 . S
C4991 C4988 1.499 . S
C4991 C4992 1.373 . S
C4991 C4993 1.389 . S
C4992 H4965 0.950 . S
C4992 C4978 1.377 . S
C4992 C4991 1.373 . S
C4993 C4977 1.377 . S
C4993 C4991 1.389 . S
C4993 C4994 1.524 . S
C4994 C4993 1.524 . S
C4994 C4995 1.397 . S
C4994 C4999 1.363 . S
C4995 H4966 0.950 . S
C4995 C4994 1.397 . S
C4995 C4996 1.334 . S
C4996 H4967 0.950 . S
C4996 C4995 1.334 . S
C4996 C4997 1.287 . S
C4997 C4996 1.287 . S
C4997 C4998 1.524 . S
C4997 H5000 0.999 . S
C4998 H4968 0.950 . S
C4998 C4997 1.524 . S
C4998 C4999 1.415 . S
C4999 H4969 0.950 . S
C4999 C4994 1.363 . S
C4999 C4998 1.415 . S
H5000 C4997 0.999 . S
H5001 C4982 0.913 . S
H5002 C5020 0.951 . S
H5003 C5022 0.951 . S
H5004 C5024 0.950 . S
H5005 C5025 0.950 . S
H5006 C5027 0.950 . S
H5007 C5030 0.950 . S
H5008 C5031 0.950 . S
H5009 C5033 0.950 . S
H5010 C5034 0.950 . S
H5011 C5035 0.951 . S
H5012 C5037 0.951 . S
H5013 C5039 0.950 . S
H5014 C5040 0.950 . S
H5015 C5042 0.950 . S
H5016 C5045 0.950 . S
H5017 C5046 0.950 . S
H5018 C5048 0.950 . S
H5019 C5049 0.950 . S
C5020 H5002 0.951 . S
C5020 C5021 1.366 . S
C5020 C5022 1.388 . S
C5021 C5020 1.366 . S
C5021 C5025 1.385 . S
C5022 H5003 0.951 . S
C5022 C5020 1.388 . S
C5022 C5023 1.366 . S
C5023 C5022 1.366 . S
C5023 C5024 1.414 . S
C5023 C5026 1.499 . S
C5024 H5004 0.950 . S
C5024 C5023 1.414 . S
C5024 C5025 1.374 . S
C5025 H5005 0.950 . S
C5025 C5021 1.385 . S
C5025 C5024 1.374 . S
C5026 C5023 1.499 . S
C5026 C5027 1.373 . S
C5026 C5028 1.389 . S
C5027 H5006 0.950 . S
C5027 C5026 1.373 . S
C5027 C5043 1.377 . S
C5028 C5026 1.389 . S
C5028 C5029 1.524 . S
C5028 C5042 1.377 . S
C5029 C5028 1.524 . S
C5029 C5030 1.397 . S
C5029 C5034 1.363 . S
C5030 H5007 0.950 . S
C5030 C5029 1.397 . S
C5030 C5031 1.334 . S
C5031 H5008 0.950 . S
C5031 C5030 1.334 . S
C5031 C5032 1.287 . S
C5032 C5031 1.287 . S
C5032 C5033 1.524 . S
C5032 H5051 0.913 . S
C5033 H5009 0.950 . S
C5033 C5032 1.524 . S
C5033 C5034 1.415 . S
C5034 H5010 0.950 . S
C5034 C5029 1.363 . S
C5034 C5033 1.415 . S
C5035 H5011 0.951 . S
C5035 C5036 1.366 . S
C5035 C5037 1.388 . S
C5036 C5035 1.366 . S
C5036 C5040 1.385 . S
C5037 H5012 0.951 . S
C5037 C5035 1.388 . S
C5037 C5038 1.366 . S
C5038 C5037 1.366 . S
C5038 C5039 1.414 . S
C5038 C5041 1.499 . S
C5039 H5013 0.950 . S
C5039 C5038 1.414 . S
C5039 C5040 1.374 . S
C5040 H5014 0.950 . S
C5040 C5036 1.385 . S
C5040 C5039 1.374 . S
C5041 C5038 1.499 . S
C5041 C5042 1.373 . S
C5041 C5043 1.389 . S
C5042 H5015 0.950 . S
C5042 C5028 1.377 . S
C5042 C5041 1.373 . S
C5043 C5027 1.377 . S
C5043 C5041 1.389 . S
C5043 C5044 1.524 . S
C5044 C5043 1.524 . S
C5044 C5045 1.397 . S
C5044 C5049 1.363 . S
C5045 H5016 0.950 . S
C5045 C5044 1.397 . S
C5045 C5046 1.334 . S
C5046 H5017 0.950 . S
C5046 C5045 1.334 . S
C5046 C5047 1.287 . S
C5047 C5046 1.287 . S
C5047 C5048 1.524 . S
C5047 H5050 0.999 . S
C5048 H5018 0.950 . S
C5048 C5047 1.524 . S
C5048 C5049 1.415 . S
C5049 H5019 0.950 . S
C5049 C5044 1.363 . S
C5049 C5048 1.415 . S
H5050 C5047 0.999 . S
H5051 C5032 0.913 . S
H5052 C5070 0.951 . S
H5053 C5072 0.951 . S
H5054 C5074 0.950 . S
H5055 C5075 0.950 . S
H5056 C5077 0.950 . S
H5057 C5080 0.950 . S
H5058 C5081 0.950 . S
H5059 C5083 0.950 . S
H5060 C5084 0.925 1_655 S
H5061 C5085 0.951 . S
H5062 C5087 0.951 . S
H5063 C5089 0.950 . S
H5064 C5090 0.950 . S
H5065 C5092 0.950 . S
H5066 C5095 0.950 . S
H5067 C5096 0.950 . S
H5068 C5098 0.950 . S
H5069 C5099 0.950 . S
C5070 H5052 0.951 . S
C5070 C5071 1.366 . S
C5070 C5072 1.388 . S
C5071 C5070 1.366 . S
C5071 C5075 1.385 . S
C5072 H5053 0.951 . S
C5072 C5070 1.388 . S
C5072 C5073 1.366 . S
C5073 C5072 1.366 . S
C5073 C5074 1.414 . S
C5073 C5076 1.499 . S
C5074 H5054 0.950 . S
C5074 C5073 1.414 . S
C5074 C5075 1.374 . S
C5075 H5055 0.950 . S
C5075 C5071 1.385 . S
C5075 C5074 1.374 . S
C5076 C5073 1.499 . S
C5076 C5077 1.373 . S
C5076 C5078 1.389 . S
C5077 H5056 0.950 . S
C5077 C5076 1.373 . S
C5077 C5093 1.377 . S
C5078 C5076 1.389 . S
C5078 C5079 1.524 1_655 S
C5078 C5092 1.377 1_655 S
C5079 C5078 1.524 1_455 S
C5079 C5080 1.397 . S
C5079 C5084 1.363 . S
C5080 H5057 0.950 . S
C5080 C5079 1.397 . S
C5080 C5081 1.334 . S
C5081 H5058 0.950 . S
C5081 C5080 1.334 . S
C5081 C5082 1.287 . S
C5082 C5081 1.287 . S
C5082 C5083 1.524 . S
C5082 H5101 0.913 . S
C5083 H5059 0.950 . S
C5083 C5082 1.524 . S
C5083 C5084 1.415 . S
C5084 H5060 0.925 1_455 S
C5084 C5079 1.363 . S
C5084 C5083 1.415 . S
C5085 H5061 0.951 . S
C5085 C5086 1.366 . S
C5085 C5087 1.388 . S
C5086 C5085 1.366 . S
C5086 C5090 1.385 . S
C5087 H5062 0.951 . S
C5087 C5085 1.388 . S
C5087 C5088 1.366 . S
C5088 C5087 1.366 . S
C5088 C5089 1.414 . S
C5088 C5091 1.485 1_455 S
C5089 H5063 0.950 . S
C5089 C5088 1.414 . S
C5089 C5090 1.374 . S
C5090 H5064 0.950 . S
C5090 C5086 1.385 . S
C5090 C5089 1.374 . S
C5091 C5088 1.485 1_655 S
C5091 C5092 1.372 1_655 S
C5091 C5093 1.403 . S
C5092 H5065 0.950 . S
C5092 C5078 1.377 1_455 S
C5092 C5091 1.372 1_455 S
C5093 C5077 1.377 . S
C5093 C5091 1.403 . S
C5093 C5094 1.524 . S
C5094 C5093 1.524 . S
C5094 C5095 1.397 . S
C5094 C5099 1.363 . S
C5095 H5066 0.950 . S
C5095 C5094 1.397 . S
C5095 C5096 1.334 . S
C5096 H5067 0.950 . S
C5096 C5095 1.334 . S
C5096 C5097 1.287 . S
C5097 C5096 1.287 . S
C5097 C5098 1.524 . S
C5097 H5100 0.999 . S
C5098 H5068 0.950 . S
C5098 C5097 1.524 . S
C5098 C5099 1.415 . S
C5099 H5069 0.950 . S
C5099 C5094 1.363 . S
C5099 C5098 1.415 . S
H5100 C5097 0.999 . S
H5101 C5082 0.913 . S
H5102 C5120 0.951 . S
H5103 C5122 0.951 . S
H5104 C5124 0.950 . S
H5105 C5125 0.950 . S
H5106 C5127 0.950 . S
H5107 C5130 0.950 . S
H5108 C5131 0.950 . S
H5109 C5133 0.950 . S
H5110 C5134 0.950 . S
H5111 C5135 0.951 . S
H5112 C5137 0.951 . S
H5113 C5139 0.950 . S
H5114 C5140 0.950 . S
H5115 C5142 0.950 . S
H5116 C5145 0.950 . S
H5117 C5146 0.950 . S
H5118 C5148 0.950 . S
H5119 C5149 0.950 . S
C5120 H5102 0.951 . S
C5120 C5121 1.366 . S
C5120 C5122 1.388 . S
C5121 C5120 1.366 . S
C5121 C5125 1.385 . S
C5122 H5103 0.951 . S
C5122 C5120 1.388 . S
C5122 C5123 1.366 . S
C5123 C5122 1.366 . S
C5123 C5124 1.414 . S
C5123 C5126 1.499 . S
C5124 H5104 0.950 . S
C5124 C5123 1.414 . S
C5124 C5125 1.374 . S
C5125 H5105 0.950 . S
C5125 C5121 1.385 . S
C5125 C5124 1.374 . S
C5126 C5123 1.499 . S
C5126 C5127 1.373 . S
C5126 C5128 1.389 . S
C5127 H5106 0.950 . S
C5127 C5126 1.373 . S
C5127 C5143 1.377 . S
C5128 C5126 1.389 . S
C5128 C5129 1.524 . S
C5128 C5142 1.377 . S
C5129 C5128 1.524 . S
C5129 C5130 1.397 . S
C5129 C5134 1.363 . S
C5130 H5107 0.950 . S
C5130 C5129 1.397 . S
C5130 C5131 1.334 . S
C5131 H5108 0.950 . S
C5131 C5130 1.334 . S
C5131 C5132 1.287 . S
C5132 C5131 1.287 . S
C5132 C5133 1.524 . S
C5132 H5151 0.913 . S
C5133 H5109 0.950 . S
C5133 C5132 1.524 . S
C5133 C5134 1.415 . S
C5134 H5110 0.950 . S
C5134 C5129 1.363 . S
C5134 C5133 1.415 . S
C5135 H5111 0.951 . S
C5135 C5136 1.366 . S
C5135 C5137 1.388 . S
C5136 C5135 1.366 . S
C5136 C5140 1.385 . S
C5137 H5112 0.951 . S
C5137 C5135 1.388 . S
C5137 C5138 1.366 . S
C5138 C5137 1.366 . S
C5138 C5139 1.414 . S
C5138 C5141 1.499 . S
C5139 H5113 0.950 . S
C5139 C5138 1.414 . S
C5139 C5140 1.374 . S
C5140 H5114 0.950 . S
C5140 C5136 1.385 . S
C5140 C5139 1.374 . S
C5141 C5138 1.499 . S
C5141 C5142 1.373 . S
C5141 C5143 1.389 . S
C5142 H5115 0.950 . S
C5142 C5128 1.377 . S
C5142 C5141 1.373 . S
C5143 C5127 1.377 . S
C5143 C5141 1.389 . S
C5143 C5144 1.524 . S
C5144 C5143 1.524 . S
C5144 C5145 1.397 . S
C5144 C5149 1.363 . S
C5145 H5116 0.950 . S
C5145 C5144 1.397 . S
C5145 C5146 1.334 . S
C5146 H5117 0.950 . S
C5146 C5145 1.334 . S
C5146 C5147 1.287 . S
C5147 C5146 1.287 . S
C5147 C5148 1.524 . S
C5147 H5150 0.999 . S
C5148 H5118 0.950 . S
C5148 C5147 1.524 . S
C5148 C5149 1.415 . S
C5149 H5119 0.950 . S
C5149 C5144 1.363 . S
C5149 C5148 1.415 . S
H5150 C5147 0.999 . S
H5151 C5132 0.913 . S
H5152 C5170 0.951 . S
H5153 C5172 0.951 . S
H5154 C5174 0.950 . S
H5155 C5175 0.950 . S
H5156 C5177 0.950 . S
H5157 C5180 0.950 . S
H5158 C5181 0.950 . S
H5159 C5183 0.950 . S
H5160 C5184 0.950 . S
H5161 C5185 0.951 . S
H5162 C5187 0.951 . S
H5163 C5189 0.950 . S
H5164 C5190 0.950 . S
H5165 C5192 0.950 . S
H5166 C5195 0.950 . S
H5167 C5196 0.950 . S
H5168 C5198 0.950 . S
H5169 C5199 0.950 . S
C5170 H5152 0.951 . S
C5170 C5171 1.366 . S
C5170 C5172 1.388 . S
C5171 C5170 1.366 . S
C5171 C5175 1.385 . S
C5172 H5153 0.951 . S
C5172 C5170 1.388 . S
C5172 C5173 1.366 . S
C5173 C5172 1.366 . S
C5173 C5174 1.414 . S
C5173 C5176 1.499 . S
C5174 H5154 0.950 . S
C5174 C5173 1.414 . S
C5174 C5175 1.374 . S
C5175 H5155 0.950 . S
C5175 C5171 1.385 . S
C5175 C5174 1.374 . S
C5176 C5173 1.499 . S
C5176 C5177 1.373 . S
C5176 C5178 1.389 . S
C5177 H5156 0.950 . S
C5177 C5176 1.373 . S
C5177 C5193 1.377 . S
C5178 C5176 1.389 . S
C5178 C5179 1.524 . S
C5178 C5192 1.377 . S
C5179 C5178 1.524 . S
C5179 C5180 1.397 . S
C5179 C5184 1.363 . S
C5180 H5157 0.950 . S
C5180 C5179 1.397 . S
C5180 C5181 1.334 . S
C5181 H5158 0.950 . S
C5181 C5180 1.334 . S
C5181 C5182 1.287 . S
C5182 C5181 1.287 . S
C5182 C5183 1.524 . S
C5182 H5201 0.913 . S
C5183 H5159 0.950 . S
C5183 C5182 1.524 . S
C5183 C5184 1.415 . S
C5184 H5160 0.950 . S
C5184 C5179 1.363 . S
C5184 C5183 1.415 . S
C5185 H5161 0.951 . S
C5185 C5186 1.366 . S
C5185 C5187 1.388 . S
C5186 C5185 1.366 . S
C5186 C5190 1.385 . S
C5187 H5162 0.951 . S
C5187 C5185 1.388 . S
C5187 C5188 1.366 . S
C5188 C5187 1.366 . S
C5188 C5189 1.414 . S
C5188 C5191 1.499 . S
C5189 H5163 0.950 . S
C5189 C5188 1.414 . S
C5189 C5190 1.374 . S
C5190 H5164 0.950 . S
C5190 C5186 1.385 . S
C5190 C5189 1.374 . S
C5191 C5188 1.499 . S
C5191 C5192 1.373 . S
C5191 C5193 1.389 . S
C5192 H5165 0.950 . S
C5192 C5178 1.377 . S
C5192 C5191 1.373 . S
C5193 C5177 1.377 . S
C5193 C5191 1.389 . S
C5193 C5194 1.524 . S
C5194 C5193 1.524 . S
C5194 C5195 1.397 . S
C5194 C5199 1.363 . S
C5195 H5166 0.950 . S
C5195 C5194 1.397 . S
C5195 C5196 1.334 . S
C5196 H5167 0.950 . S
C5196 C5195 1.334 . S
C5196 C5197 1.287 . S
C5197 C5196 1.287 . S
C5197 C5198 1.524 . S
C5197 H5200 0.999 . S
C5198 H5168 0.950 . S
C5198 C5197 1.524 . S
C5198 C5199 1.415 . S
C5199 H5169 0.950 . S
C5199 C5194 1.363 . S
C5199 C5198 1.415 . S
H5200 C5197 0.999 . S
H5201 C5182 0.913 . S
H5202 C5220 0.951 . S
H5203 C5222 0.951 . S
H5204 C5224 0.950 . S
H5205 C5225 0.950 . S
H5206 C5227 0.950 . S
H5207 C5230 0.950 . S
H5208 C5231 0.950 . S
H5209 C5233 0.950 . S
H5210 C5234 0.950 . S
H5211 C5235 0.951 . S
H5212 C5237 0.951 . S
H5213 C5239 0.950 . S
H5214 C5240 0.950 . S
H5215 C5242 0.950 . S
H5216 C5245 0.950 . S
H5217 C5246 0.950 . S
H5218 C5248 0.950 . S
H5219 C5249 0.950 . S
C5220 H5202 0.951 . S
C5220 C5221 1.366 . S
C5220 C5222 1.388 . S
C5221 C5220 1.366 . S
C5221 C5225 1.385 . S
C5222 H5203 0.951 . S
C5222 C5220 1.388 . S
C5222 C5223 1.366 . S
C5223 C5222 1.366 . S
C5223 C5224 1.414 . S
C5223 C5226 1.499 . S
C5224 H5204 0.950 . S
C5224 C5223 1.414 . S
C5224 C5225 1.374 . S
C5225 H5205 0.950 . S
C5225 C5221 1.385 . S
C5225 C5224 1.374 . S
C5226 C5223 1.499 . S
C5226 C5227 1.373 . S
C5226 C5228 1.389 . S
C5227 H5206 0.950 . S
C5227 C5226 1.373 . S
C5227 C5243 1.377 . S
C5228 C5226 1.389 . S
C5228 C5229 1.524 . S
C5228 C5242 1.377 . S
C5229 C5228 1.524 . S
C5229 C5230 1.397 . S
C5229 C5234 1.363 . S
C5230 H5207 0.950 . S
C5230 C5229 1.397 . S
C5230 C5231 1.334 . S
C5231 H5208 0.950 . S
C5231 C5230 1.334 . S
C5231 C5232 1.287 . S
C5232 C5231 1.287 . S
C5232 C5233 1.524 . S
C5232 H5251 0.913 . S
C5233 H5209 0.950 . S
C5233 C5232 1.524 . S
C5233 C5234 1.415 . S
C5234 H5210 0.950 . S
C5234 C5229 1.363 . S
C5234 C5233 1.415 . S
C5235 H5211 0.951 . S
C5235 C5236 1.366 . S
C5235 C5237 1.388 . S
C5236 C5235 1.366 . S
C5236 C5240 1.385 . S
C5237 H5212 0.951 . S
C5237 C5235 1.388 . S
C5237 C5238 1.366 . S
C5238 C5237 1.366 . S
C5238 C5239 1.414 . S
C5238 C5241 1.499 . S
C5239 H5213 0.950 . S
C5239 C5238 1.414 . S
C5239 C5240 1.374 . S
C5240 H5214 0.950 . S
C5240 C5236 1.385 . S
C5240 C5239 1.374 . S
C5241 C5238 1.499 . S
C5241 C5242 1.373 . S
C5241 C5243 1.389 . S
C5242 H5215 0.950 . S
C5242 C5228 1.377 . S
C5242 C5241 1.373 . S
C5243 C5227 1.377 . S
C5243 C5241 1.389 . S
C5243 C5244 1.524 . S
C5244 C5243 1.524 . S
C5244 C5245 1.397 . S
C5244 C5249 1.363 . S
C5245 H5216 0.950 . S
C5245 C5244 1.397 . S
C5245 C5246 1.334 . S
C5246 H5217 0.950 . S
C5246 C5245 1.334 . S
C5246 C5247 1.287 . S
C5247 C5246 1.287 . S
C5247 C5248 1.524 . S
C5247 H5250 0.999 . S
C5248 H5218 0.950 . S
C5248 C5247 1.524 . S
C5248 C5249 1.415 . S
C5249 H5219 0.950 . S
C5249 C5244 1.363 . S
C5249 C5248 1.415 . S
H5250 C5247 0.999 . S
H5251 C5232 0.913 . S
H5252 C5270 0.951 . S
H5253 C5272 0.951 . S
H5254 C5274 0.950 . S
H5255 C5275 0.950 . S
H5256 C5277 0.950 . S
H5257 C5280 0.950 . S
H5258 C5281 0.950 . S
H5259 C5283 0.950 . S
H5260 C5284 0.950 . S
H5261 C5285 0.951 . S
H5262 C5287 0.951 . S
H5263 C5289 0.950 . S
H5264 C5290 0.950 . S
H5265 C5292 0.950 . S
H5266 C5295 0.950 . S
H5267 C5296 0.950 . S
H5268 C5298 0.950 . S
H5269 C5299 0.950 . S
C5270 H5252 0.951 . S
C5270 C5271 1.366 . S
C5270 C5272 1.388 . S
C5271 C5270 1.366 . S
C5271 C5275 1.385 . S
C5272 H5253 0.951 . S
C5272 C5270 1.388 . S
C5272 C5273 1.366 . S
C5273 C5272 1.366 . S
C5273 C5274 1.414 . S
C5273 C5276 1.499 . S
C5274 H5254 0.950 . S
C5274 C5273 1.414 . S
C5274 C5275 1.374 . S
C5275 H5255 0.950 . S
C5275 C5271 1.385 . S
C5275 C5274 1.374 . S
C5276 C5273 1.499 . S
C5276 C5277 1.373 . S
C5276 C5278 1.389 . S
C5277 H5256 0.950 . S
C5277 C5276 1.373 . S
C5277 C5293 1.377 . S
C5278 C5276 1.389 . S
C5278 C5279 1.524 . S
C5278 C5292 1.377 . S
C5279 C5278 1.524 . S
C5279 C5280 1.397 . S
C5279 C5284 1.363 1_655 S
C5280 H5257 0.950 . S
C5280 C5279 1.397 . S
C5280 C5281 1.334 . S
C5281 H5258 0.950 . S
C5281 C5280 1.334 . S
C5281 C5282 1.287 . S
C5282 C5281 1.287 . S
C5282 C5283 1.524 1_655 S
C5282 H5301 0.913 . S
C5283 H5259 0.950 . S
C5283 C5282 1.524 1_455 S
C5283 C5284 1.415 . S
C5284 H5260 0.950 . S
C5284 C5279 1.363 1_455 S
C5284 C5283 1.415 . S
C5285 H5261 0.951 . S
C5285 C5286 1.366 . S
C5285 C5287 1.388 . S
C5286 C5285 1.366 . S
C5286 C5290 1.385 1_655 S
C5287 H5262 0.951 . S
C5287 C5285 1.388 . S
C5287 C5288 1.366 . S
C5288 C5287 1.366 . S
C5288 C5289 1.414 1_655 S
C5288 C5291 1.499 . S
C5289 H5263 0.950 . S
C5289 C5288 1.414 1_455 S
C5289 C5290 1.374 . S
C5290 H5264 0.950 . S
C5290 C5286 1.385 1_455 S
C5290 C5289 1.374 . S
C5291 C5288 1.499 . S
C5291 C5292 1.373 . S
C5291 C5293 1.389 . S
C5292 H5265 0.950 . S
C5292 C5278 1.377 . S
C5292 C5291 1.373 . S
C5293 C5277 1.377 . S
C5293 C5291 1.389 . S
C5293 C5294 1.524 . S
C5294 C5293 1.524 . S
C5294 C5295 1.397 . S
C5294 C5299 1.363 . S
C5295 H5266 0.950 . S
C5295 C5294 1.397 . S
C5295 C5296 1.334 . S
C5296 H5267 0.950 . S
C5296 C5295 1.334 . S
C5296 C5297 1.287 . S
C5297 C5296 1.287 . S
C5297 C5298 1.524 . S
C5297 H5300 0.999 . S
C5298 H5268 0.950 . S
C5298 C5297 1.524 . S
C5298 C5299 1.415 . S
C5299 H5269 0.950 . S
C5299 C5294 1.363 . S
C5299 C5298 1.415 . S
H5300 C5297 0.999 . S
H5301 C5282 0.913 . S
H5302 C5320 0.951 . S
H5303 C5322 0.951 . S
H5304 C5324 0.950 . S
H5305 C5325 0.950 . S
H5306 C5327 0.950 . S
H5307 C5330 0.950 . S
H5308 C5331 0.950 . S
H5309 C5333 0.950 . S
H5310 C5334 0.950 . S
H5311 C5335 0.951 . S
H5312 C5337 0.951 . S
H5313 C5339 0.950 . S
H5314 C5340 0.950 . S
H5315 C5342 0.950 . S
H5316 C5345 0.950 . S
H5317 C5346 0.950 . S
H5318 C5348 0.950 . S
H5319 C5349 0.950 . S
C5320 H5302 0.951 . S
C5320 C5321 1.366 . S
C5320 C5322 1.388 . S
C5321 C5320 1.366 . S
C5321 C5325 1.385 . S
C5322 H5303 0.951 . S
C5322 C5320 1.388 . S
C5322 C5323 1.366 . S
C5323 C5322 1.366 . S
C5323 C5324 1.414 . S
C5323 C5326 1.499 . S
C5324 H5304 0.950 . S
C5324 C5323 1.414 . S
C5324 C5325 1.374 . S
C5325 H5305 0.950 . S
C5325 C5321 1.385 . S
C5325 C5324 1.374 . S
C5326 C5323 1.499 . S
C5326 C5327 1.373 . S
C5326 C5328 1.389 . S
C5327 H5306 0.950 . S
C5327 C5326 1.373 . S
C5327 C5343 1.377 . S
C5328 C5326 1.389 . S
C5328 C5329 1.524 . S
C5328 C5342 1.377 . S
C5329 C5328 1.524 . S
C5329 C5330 1.397 . S
C5329 C5334 1.363 . S
C5330 H5307 0.950 . S
C5330 C5329 1.397 . S
C5330 C5331 1.334 . S
C5331 H5308 0.950 . S
C5331 C5330 1.334 . S
C5331 C5332 1.287 . S
C5332 C5331 1.287 . S
C5332 C5333 1.524 . S
C5332 H5351 0.913 . S
C5333 H5309 0.950 . S
C5333 C5332 1.524 . S
C5333 C5334 1.415 . S
C5334 H5310 0.950 . S
C5334 C5329 1.363 . S
C5334 C5333 1.415 . S
C5335 H5311 0.951 . S
C5335 C5336 1.366 . S
C5335 C5337 1.388 . S
C5336 C5335 1.366 . S
C5336 C5340 1.385 . S
C5337 H5312 0.951 . S
C5337 C5335 1.388 . S
C5337 C5338 1.366 . S
C5338 C5337 1.366 . S
C5338 C5339 1.414 . S
C5338 C5341 1.499 . S
C5339 H5313 0.950 . S
C5339 C5338 1.414 . S
C5339 C5340 1.374 . S
C5340 H5314 0.950 . S
C5340 C5336 1.385 . S
C5340 C5339 1.374 . S
C5341 C5338 1.499 . S
C5341 C5342 1.373 . S
C5341 C5343 1.389 . S
C5342 H5315 0.950 . S
C5342 C5328 1.377 . S
C5342 C5341 1.373 . S
C5343 C5327 1.377 . S
C5343 C5341 1.389 . S
C5343 C5344 1.524 . S
C5344 C5343 1.524 . S
C5344 C5345 1.397 . S
C5344 C5349 1.363 . S
C5345 H5316 0.950 . S
C5345 C5344 1.397 . S
C5345 C5346 1.334 . S
C5346 H5317 0.950 . S
C5346 C5345 1.334 . S
C5346 C5347 1.287 . S
C5347 C5346 1.287 . S
C5347 C5348 1.524 . S
C5347 H5350 0.999 . S
C5348 H5318 0.950 . S
C5348 C5347 1.524 . S
C5348 C5349 1.415 . S
C5349 H5319 0.950 . S
C5349 C5344 1.363 . S
C5349 C5348 1.415 . S
H5350 C5347 0.999 . S
H5351 C5332 0.913 . S
H5352 C5370 0.951 . S
H5353 C5372 0.951 . S
H5354 C5374 0.950 . S
H5355 C5375 0.950 . S
H5356 C5377 0.950 . S
H5357 C5380 0.950 . S
H5358 C5381 0.950 . S
H5359 C5383 0.950 . S
H5360 C5384 0.950 . S
H5361 C5385 0.951 . S
H5362 C5387 0.951 . S
H5363 C5389 0.950 . S
H5364 C5390 0.950 . S
H5365 C5392 0.950 . S
H5366 C5395 0.950 . S
H5367 C5396 0.950 . S
H5368 C5398 0.950 . S
H5369 C5399 0.950 . S
C5370 H5352 0.951 . S
C5370 C5371 1.366 . S
C5370 C5372 1.388 . S
C5371 C5370 1.366 . S
C5371 C5375 1.385 . S
C5372 H5353 0.951 . S
C5372 C5370 1.388 . S
C5372 C5373 1.366 . S
C5373 C5372 1.366 . S
C5373 C5374 1.414 . S
C5373 C5376 1.499 . S
C5374 H5354 0.950 . S
C5374 C5373 1.414 . S
C5374 C5375 1.374 . S
C5375 H5355 0.950 . S
C5375 C5371 1.385 . S
C5375 C5374 1.374 . S
C5376 C5373 1.499 . S
C5376 C5377 1.373 . S
C5376 C5378 1.389 . S
C5377 H5356 0.950 . S
C5377 C5376 1.373 . S
C5377 C5393 1.377 . S
C5378 C5376 1.389 . S
C5378 C5379 1.524 . S
C5378 C5392 1.377 . S
C5379 C5378 1.524 . S
C5379 C5380 1.397 . S
C5379 C5384 1.363 . S
C5380 H5357 0.950 . S
C5380 C5379 1.397 . S
C5380 C5381 1.334 . S
C5381 H5358 0.950 . S
C5381 C5380 1.334 . S
C5381 C5382 1.287 . S
C5382 C5381 1.287 . S
C5382 C5383 1.524 . S
C5382 H5401 0.913 . S
C5383 H5359 0.950 . S
C5383 C5382 1.524 . S
C5383 C5384 1.415 . S
C5384 H5360 0.950 . S
C5384 C5379 1.363 . S
C5384 C5383 1.415 . S
C5385 H5361 0.951 . S
C5385 C5386 1.366 . S
C5385 C5387 1.388 . S
C5386 C5385 1.366 . S
C5386 C5390 1.385 . S
C5387 H5362 0.951 . S
C5387 C5385 1.388 . S
C5387 C5388 1.366 . S
C5388 C5387 1.366 . S
C5388 C5389 1.414 . S
C5388 C5391 1.499 . S
C5389 H5363 0.950 . S
C5389 C5388 1.414 . S
C5389 C5390 1.374 . S
C5390 H5364 0.950 . S
C5390 C5386 1.385 . S
C5390 C5389 1.374 . S
C5391 C5388 1.499 . S
C5391 C5392 1.373 . S
C5391 C5393 1.389 . S
C5392 H5365 0.950 . S
C5392 C5378 1.377 . S
C5392 C5391 1.373 . S
C5393 C5377 1.377 . S
C5393 C5391 1.389 . S
C5393 C5394 1.524 . S
C5394 C5393 1.524 . S
C5394 C5395 1.397 . S
C5394 C5399 1.363 . S
C5395 H5366 0.950 . S
C5395 C5394 1.397 . S
C5395 C5396 1.334 . S
C5396 H5367 0.950 . S
C5396 C5395 1.334 . S
C5396 C5397 1.287 . S
C5397 C5396 1.287 . S
C5397 C5398 1.524 . S
C5397 H5400 0.999 . S
C5398 H5368 0.950 . S
C5398 C5397 1.524 . S
C5398 C5399 1.415 . S
C5399 H5369 0.950 . S
C5399 C5394 1.363 . S
C5399 C5398 1.415 . S
H5400 C5397 0.999 . S
H5401 C5382 0.913 . S
H5402 C5420 0.951 . S
H5403 C5422 0.951 . S
H5404 C5424 0.950 . S
H5405 C5425 0.950 . S
H5406 C5427 0.950 . S
H5407 C5430 0.950 . S
H5408 C5431 0.950 . S
H5409 C5433 0.950 . S
H5410 C5434 0.950 1_545 S
H5411 C5435 0.951 . S
H5412 C5437 0.951 . S
H5413 C5439 0.950 . S
H5414 C5440 0.950 . S
H5415 C5442 0.953 . S
H5416 C5445 0.950 . S
H5417 C5446 0.950 . S
H5418 C5448 0.950 . S
H5419 C5449 0.897 1_565 S
C5420 H5402 0.951 . S
C5420 C5421 1.366 . S
C5420 C5422 1.388 . S
C5421 C5420 1.366 . S
C5421 C5425 1.385 . S
C5422 H5403 0.951 . S
C5422 C5420 1.388 . S
C5422 C5423 1.366 . S
C5423 C5422 1.366 . S
C5423 C5424 1.414 . S
C5423 C5426 1.499 . S
C5424 H5404 0.950 . S
C5424 C5423 1.414 . S
C5424 C5425 1.374 . S
C5425 H5405 0.950 . S
C5425 C5421 1.385 . S
C5425 C5424 1.374 . S
C5426 C5423 1.499 . S
C5426 C5427 1.373 . S
C5426 C5428 1.389 . S
C5427 H5406 0.950 . S
C5427 C5426 1.373 . S
C5427 C5443 1.377 1_565 S
C5428 C5426 1.389 . S
C5428 C5429 1.524 . S
C5428 C5442 1.372 1_565 S
C5429 C5428 1.524 . S
C5429 C5430 1.397 . S
C5429 C5434 1.363 . S
C5430 H5407 0.950 . S
C5430 C5429 1.397 . S
C5430 C5431 1.334 . S
C5431 H5408 0.950 . S
C5431 C5430 1.334 . S
C5431 C5432 1.287 . S
C5432 C5431 1.287 . S
C5432 C5433 1.524 . S
C5432 H5451 0.913 . S
C5433 H5409 0.950 . S
C5433 C5432 1.524 . S
C5433 C5434 1.415 . S
C5434 H5410 0.950 1_565 S
C5434 C5429 1.363 . S
C5434 C5433 1.415 . S
C5435 H5411 0.951 . S
C5435 C5436 1.366 . S
C5435 C5437 1.388 . S
C5436 C5435 1.366 . S
C5436 C5440 1.385 . S
C5437 H5412 0.951 . S
C5437 C5435 1.388 . S
C5437 C5438 1.366 . S
C5438 C5437 1.366 . S
C5438 C5439 1.414 . S
C5438 C5441 1.499 . S
C5439 H5413 0.950 . S
C5439 C5438 1.414 . S
C5439 C5440 1.374 . S
C5440 H5414 0.950 . S
C5440 C5436 1.385 . S
C5440 C5439 1.374 . S
C5441 C5438 1.499 . S
C5441 C5442 1.375 . S
C5441 C5443 1.389 . S
C5442 H5415 0.953 . S
C5442 C5428 1.372 1_545 S
C5442 C5441 1.375 . S
C5443 C5427 1.377 1_545 S
C5443 C5441 1.389 . S
C5443 C5444 1.524 . S
C5444 C5443 1.524 . S
C5444 C5445 1.397 . S
C5444 C5449 1.403 . S
C5445 H5416 0.950 . S
C5445 C5444 1.397 . S
C5445 C5446 1.334 . S
C5446 H5417 0.950 . S
C5446 C5445 1.334 . S
C5446 C5447 1.287 . S
C5447 C5446 1.287 . S
C5447 C5448 1.524 . S
C5447 H5450 0.999 . S
C5448 H5418 0.950 . S
C5448 C5447 1.524 . S
C5448 C5449 1.429 . S
C5449 H5419 0.897 1_545 S
C5449 C5444 1.403 . S
C5449 C5448 1.429 . S
H5450 C5447 0.999 . S
H5451 C5432 0.913 . S
H5452 C5470 0.951 . S
H5453 C5472 0.951 . S
H5454 C5474 0.950 . S
H5455 C5475 0.950 . S
H5456 C5477 0.950 . S
H5457 C5480 0.950 . S
H5458 C5481 0.950 . S
H5459 C5483 0.950 . S
H5460 C5484 0.950 . S
H5461 C5485 0.951 . S
H5462 C5487 0.951 . S
H5463 C5489 0.950 . S
H5464 C5490 0.950 . S
H5465 C5492 0.950 . S
H5466 C5495 0.950 . S
H5467 C5496 0.950 . S
H5468 C5498 0.950 . S
H5469 C5499 0.950 . S
C5470 H5452 0.951 . S
C5470 C5471 1.366 . S
C5470 C5472 1.388 . S
C5471 C5470 1.366 . S
C5471 C5475 1.385 . S
C5472 H5453 0.951 . S
C5472 C5470 1.388 . S
C5472 C5473 1.366 . S
C5473 C5472 1.366 . S
C5473 C5474 1.414 . S
C5473 C5476 1.499 . S
C5474 H5454 0.950 . S
C5474 C5473 1.414 . S
C5474 C5475 1.374 . S
C5475 H5455 0.950 . S
C5475 C5471 1.385 . S
C5475 C5474 1.374 . S
C5476 C5473 1.499 . S
C5476 C5477 1.373 . S
C5476 C5478 1.389 . S
C5477 H5456 0.950 . S
C5477 C5476 1.373 . S
C5477 C5493 1.377 . S
C5478 C5476 1.389 . S
C5478 C5479 1.524 . S
C5478 C5492 1.377 . S
C5479 C5478 1.524 . S
C5479 C5480 1.397 . S
C5479 C5484 1.363 . S
C5480 H5457 0.950 . S
C5480 C5479 1.397 . S
C5480 C5481 1.334 . S
C5481 H5458 0.950 . S
C5481 C5480 1.334 . S
C5481 C5482 1.287 . S
C5482 C5481 1.287 . S
C5482 C5483 1.524 . S
C5482 H5501 0.913 . S
C5483 H5459 0.950 . S
C5483 C5482 1.524 . S
C5483 C5484 1.415 . S
C5484 H5460 0.950 . S
C5484 C5479 1.363 . S
C5484 C5483 1.415 . S
C5485 H5461 0.951 . S
C5485 C5486 1.366 . S
C5485 C5487 1.388 . S
C5486 C5485 1.366 . S
C5486 C5490 1.385 . S
C5487 H5462 0.951 . S
C5487 C5485 1.388 . S
C5487 C5488 1.366 . S
C5488 C5487 1.366 . S
C5488 C5489 1.414 . S
C5488 C5491 1.499 . S
C5489 H5463 0.950 . S
C5489 C5488 1.414 . S
C5489 C5490 1.374 . S
C5490 H5464 0.950 . S
C5490 C5486 1.385 . S
C5490 C5489 1.374 . S
C5491 C5488 1.499 . S
C5491 C5492 1.373 . S
C5491 C5493 1.389 . S
C5492 H5465 0.950 . S
C5492 C5478 1.377 . S
C5492 C5491 1.373 . S
C5493 C5477 1.377 . S
C5493 C5491 1.389 . S
C5493 C5494 1.524 . S
C5494 C5493 1.524 . S
C5494 C5495 1.397 . S
C5494 C5499 1.363 . S
C5495 H5466 0.950 . S
C5495 C5494 1.397 . S
C5495 C5496 1.334 . S
C5496 H5467 0.950 . S
C5496 C5495 1.334 . S
C5496 C5497 1.287 . S
C5497 C5496 1.287 . S
C5497 C5498 1.524 . S
C5497 H5500 0.999 . S
C5498 H5468 0.950 . S
C5498 C5497 1.524 . S
C5498 C5499 1.415 . S
C5499 H5469 0.950 . S
C5499 C5494 1.363 . S
C5499 C5498 1.415 . S
H5500 C5497 0.999 . S
H5501 C5482 0.913 . S
H5502 C5520 0.951 . S
H5503 C5522 0.951 . S
H5504 C5524 0.950 . S
H5505 C5525 0.950 . S
H5506 C5527 0.950 . S
H5507 C5530 0.950 . S
H5508 C5531 0.950 . S
H5509 C5533 0.950 . S
H5510 C5534 0.950 . S
H5511 C5535 0.951 . S
H5512 C5537 0.951 . S
H5513 C5539 0.950 . S
H5514 C5540 0.950 . S
H5515 C5542 0.950 . S
H5516 C5545 0.950 . S
H5517 C5546 0.950 . S
H5518 C5548 0.950 . S
H5519 C5549 0.950 . S
C5520 H5502 0.951 . S
C5520 C5521 1.366 . S
C5520 C5522 1.388 . S
C5521 C5520 1.366 . S
C5521 C5525 1.385 1_556 S
C5522 H5503 0.951 . S
C5522 C5520 1.388 . S
C5522 C5523 1.366 1_556 S
C5523 C5522 1.366 1_554 S
C5523 C5524 1.414 . S
C5523 C5526 1.499 . S
C5524 H5504 0.950 . S
C5524 C5523 1.414 . S
C5524 C5525 1.374 . S
C5525 H5505 0.950 . S
C5525 C5521 1.385 1_554 S
C5525 C5524 1.374 . S
C5526 C5523 1.499 . S
C5526 C5527 1.373 . S
C5526 C5528 1.389 1_554 S
C5527 H5506 0.950 . S
C5527 C5526 1.373 . S
C5527 C5543 1.377 . S
C5528 C5526 1.389 1_556 S
C5528 C5529 1.524 . S
C5528 C5542 1.377 . S
C5529 C5528 1.524 . S
C5529 C5530 1.397 . S
C5529 C5534 1.363 . S
C5530 H5507 0.950 . S
C5530 C5529 1.397 . S
C5530 C5531 1.334 . S
C5531 H5508 0.950 . S
C5531 C5530 1.334 . S
C5531 C5532 1.287 . S
C5532 C5531 1.287 . S
C5532 C5533 1.524 . S
C5532 H5551 0.913 . S
C5533 H5509 0.950 . S
C5533 C5532 1.524 . S
C5533 C5534 1.415 . S
C5534 H5510 0.950 . S
C5534 C5529 1.363 . S
C5534 C5533 1.415 . S
C5535 H5511 0.951 . S
C5535 C5536 1.366 . S
C5535 C5537 1.388 . S
C5536 C5535 1.366 . S
C5536 C5540 1.385 . S
C5537 H5512 0.951 . S
C5537 C5535 1.388 . S
C5537 C5538 1.366 . S
C5538 C5537 1.366 . S
C5538 C5539 1.414 . S
C5538 C5541 1.499 . S
C5539 H5513 0.950 . S
C5539 C5538 1.414 . S
C5539 C5540 1.374 . S
C5540 H5514 0.950 . S
C5540 C5536 1.385 . S
C5540 C5539 1.374 . S
C5541 C5538 1.499 . S
C5541 C5542 1.373 1_554 S
C5541 C5543 1.389 . S
C5542 H5515 0.950 . S
C5542 C5528 1.377 . S
C5542 C5541 1.373 1_556 S
C5543 C5527 1.377 . S
C5543 C5541 1.389 . S
C5543 C5544 1.524 . S
C5544 C5543 1.524 . S
C5544 C5545 1.397 . S
C5544 C5549 1.363 . S
C5545 H5516 0.950 . S
C5545 C5544 1.397 . S
C5545 C5546 1.334 . S
C5546 H5517 0.950 . S
C5546 C5545 1.334 . S
C5546 C5547 1.287 . S
C5547 C5546 1.287 . S
C5547 C5548 1.524 . S
C5547 H5550 0.999 . S
C5548 H5518 0.950 . S
C5548 C5547 1.524 . S
C5548 C5549 1.415 . S
C5549 H5519 0.950 . S
C5549 C5544 1.363 . S
C5549 C5548 1.415 . S
H5550 C5547 0.999 . S
H5551 C5532 0.913 . S
H5552 C5570 0.951 . S
H5553 C5572 0.951 . S
H5554 C5574 0.950 . S
H5555 C5575 0.950 . S
H5556 C5577 0.950 . S
H5557 C5580 0.950 . S
H5558 C5581 0.950 . S
H5559 C5583 0.950 . S
H5560 C5584 0.950 . S
H5561 C5585 0.951 . S
H5562 C5587 0.951 . S
H5563 C5589 0.950 . S
H5564 C5590 0.950 . S
H5565 C5592 0.950 . S
H5566 C5595 0.950 . S
H5567 C5596 0.950 . S
H5568 C5598 0.950 . S
H5569 C5599 0.950 . S
C5570 H5552 0.951 . S
C5570 C5571 1.366 . S
C5570 C5572 1.388 . S
C5571 C5570 1.366 . S
C5571 C5575 1.385 . S
C5572 H5553 0.951 . S
C5572 C5570 1.388 . S
C5572 C5573 1.366 . S
C5573 C5572 1.366 . S
C5573 C5574 1.414 . S
C5573 C5576 1.499 . S
C5574 H5554 0.950 . S
C5574 C5573 1.414 . S
C5574 C5575 1.374 . S
C5575 H5555 0.950 . S
C5575 C5571 1.385 . S
C5575 C5574 1.374 . S
C5576 C5573 1.499 . S
C5576 C5577 1.373 . S
C5576 C5578 1.389 . S
C5577 H5556 0.950 . S
C5577 C5576 1.373 . S
C5577 C5593 1.377 . S
C5578 C5576 1.389 . S
C5578 C5579 1.524 . S
C5578 C5592 1.377 . S
C5579 C5578 1.524 . S
C5579 C5580 1.397 . S
C5579 C5584 1.363 . S
C5580 H5557 0.950 . S
C5580 C5579 1.397 . S
C5580 C5581 1.334 . S
C5581 H5558 0.950 . S
C5581 C5580 1.334 . S
C5581 C5582 1.287 . S
C5582 C5581 1.287 . S
C5582 C5583 1.524 . S
C5582 H5601 0.913 . S
C5583 H5559 0.950 . S
C5583 C5582 1.524 . S
C5583 C5584 1.415 . S
C5584 H5560 0.950 . S
C5584 C5579 1.363 . S
C5584 C5583 1.415 . S
C5585 H5561 0.951 . S
C5585 C5586 1.366 . S
C5585 C5587 1.388 . S
C5586 C5585 1.366 . S
C5586 C5590 1.385 . S
C5587 H5562 0.951 . S
C5587 C5585 1.388 . S
C5587 C5588 1.366 . S
C5588 C5587 1.366 . S
C5588 C5589 1.414 . S
C5588 C5591 1.499 . S
C5589 H5563 0.950 . S
C5589 C5588 1.414 . S
C5589 C5590 1.374 . S
C5590 H5564 0.950 . S
C5590 C5586 1.385 . S
C5590 C5589 1.374 . S
C5591 C5588 1.499 . S
C5591 C5592 1.373 . S
C5591 C5593 1.389 . S
C5592 H5565 0.950 . S
C5592 C5578 1.377 . S
C5592 C5591 1.373 . S
C5593 C5577 1.377 . S
C5593 C5591 1.389 . S
C5593 C5594 1.524 . S
C5594 C5593 1.524 . S
C5594 C5595 1.397 . S
C5594 C5599 1.363 . S
C5595 H5566 0.950 . S
C5595 C5594 1.397 . S
C5595 C5596 1.334 . S
C5596 H5567 0.950 . S
C5596 C5595 1.334 . S
C5596 C5597 1.287 . S
C5597 C5596 1.287 . S
C5597 C5598 1.524 . S
C5597 H5600 0.999 . S
C5598 H5568 0.950 . S
C5598 C5597 1.524 . S
C5598 C5599 1.415 . S
C5599 H5569 0.950 . S
C5599 C5594 1.363 . S
C5599 C5598 1.415 . S
H5600 C5597 0.999 . S
H5601 C5582 0.913 . S
H5602 C5620 0.951 . S
H5603 C5622 0.951 1_556 S
H5604 C5624 0.950 . S
H5605 C5625 0.950 . S
H5606 C5627 0.950 . S
H5607 C5630 0.950 . S
H5608 C5631 0.950 . S
H5609 C5633 0.950 1_556 S
H5610 C5634 0.950 1_556 S
H5611 C5635 0.951 . S
H5612 C5637 0.951 . S
H5613 C5639 0.950 . S
H5614 C5640 0.950 . S
H5615 C5642 0.950 . S
H5616 C5645 0.950 . S
H5617 C5646 0.950 . S
H5618 C5648 0.950 . S
H5619 C5649 0.950 . S
C5620 H5602 0.951 . S
C5620 C5621 1.366 . S
C5620 C5622 1.388 . S
C5621 C5620 1.366 . S
C5621 C5625 1.385 . S
C5622 H5603 0.951 1_554 S
C5622 C5620 1.388 . S
C5622 C5623 1.366 . S
C5623 C5622 1.366 . S
C5623 C5624 1.414 . S
C5623 C5626 1.499 . S
C5624 H5604 0.950 . S
C5624 C5623 1.414 . S
C5624 C5625 1.374 . S
C5625 H5605 0.950 . S
C5625 C5621 1.385 . S
C5625 C5624 1.374 . S
C5626 C5623 1.499 . S
C5626 C5627 1.373 . S
C5626 C5628 1.389 . S
C5627 H5606 0.950 . S
C5627 C5626 1.373 . S
C5627 C5643 1.377 . S
C5628 C5626 1.389 . S
C5628 C5629 1.524 . S
C5628 C5642 1.377 . S
C5629 C5628 1.524 . S
C5629 C5630 1.397 . S
C5629 C5634 1.363 . S
C5630 H5607 0.950 . S
C5630 C5629 1.397 . S
C5630 C5631 1.334 . S
C5631 H5608 0.950 . S
C5631 C5630 1.334 . S
C5631 C5632 1.287 . S
C5632 C5631 1.287 . S
C5632 C5633 1.524 . S
C5632 H5651 0.913 . S
C5633 H5609 0.950 1_554 S
C5633 C5632 1.524 . S
C5633 C5634 1.415 . S
C5634 H5610 0.950 1_554 S
C5634 C5629 1.363 . S
C5634 C5633 1.415 . S
C5635 H5611 0.951 . S
C5635 C5636 1.366 1_554 S
C5635 C5637 1.388 . S
C5636 C5635 1.366 1_556 S
C5636 C5640 1.385 . S
C5637 H5612 0.951 . S
C5637 C5635 1.388 . S
C5637 C5638 1.366 . S
C5638 C5637 1.366 . S
C5638 C5639 1.414 1_554 S
C5638 C5641 1.499 . S
C5639 H5613 0.950 . S
C5639 C5638 1.414 1_556 S
C5639 C5640 1.374 . S
C5640 H5614 0.950 . S
C5640 C5636 1.385 . S
C5640 C5639 1.374 . S
C5641 C5638 1.499 . S
C5641 C5642 1.373 . S
C5641 C5643 1.389 . S
C5642 H5615 0.950 . S
C5642 C5628 1.377 . S
C5642 C5641 1.373 . S
C5643 C5627 1.377 . S
C5643 C5641 1.389 . S
C5643 C5644 1.524 . S
C5644 C5643 1.524 . S
C5644 C5645 1.397 1_554 S
C5644 C5649 1.363 . S
C5645 H5616 0.950 . S
C5645 C5644 1.397 1_556 S
C5645 C5646 1.334 . S
C5646 H5617 0.950 . S
C5646 C5645 1.334 . S
C5646 C5647 1.287 . S
C5647 C5646 1.287 . S
C5647 C5648 1.524 1_556 S
C5647 H5650 0.999 . S
C5648 H5618 0.950 . S
C5648 C5647 1.524 1_554 S
C5648 C5649 1.415 . S
C5649 H5619 0.950 . S
C5649 C5644 1.363 . S
C5649 C5648 1.415 . S
H5650 C5647 0.999 . S
H5651 C5632 0.913 . S
H5652 C5670 0.951 . S
H5653 C5672 0.951 . S
H5654 C5674 0.950 . S
H5655 C5675 0.926 1_545 S
H5656 C5677 0.950 . S
H5657 C5680 0.950 . S
H5658 C5681 0.950 . S
H5659 C5683 0.950 . S
H5660 C5684 0.950 . S
H5661 C5685 0.951 . S
H5662 C5687 0.951 . S
H5663 C5689 0.950 . S
H5664 C5690 0.950 . S
H5665 C5692 0.950 . S
H5666 C5695 0.950 . S
H5667 C5696 0.950 . S
H5668 C5698 0.950 . S
H5669 C5699 0.950 . S
C5670 H5652 0.951 . S
C5670 C5671 1.366 . S
C5670 C5672 1.388 . S
C5671 C5670 1.366 . S
C5671 C5675 1.385 . S
C5672 H5653 0.951 . S
C5672 C5670 1.388 . S
C5672 C5673 1.366 . S
C5673 C5672 1.366 . S
C5673 C5674 1.414 . S
C5673 C5676 1.499 . S
C5674 H5654 0.950 . S
C5674 C5673 1.414 . S
C5674 C5675 1.374 . S
C5675 H5655 0.926 1_565 S
C5675 C5671 1.385 . S
C5675 C5674 1.374 . S
C5676 C5673 1.499 . S
C5676 C5677 1.373 . S
C5676 C5678 1.389 . S
C5677 H5656 0.950 . S
C5677 C5676 1.373 . S
C5677 C5693 1.377 . S
C5678 C5676 1.389 . S
C5678 C5679 1.524 . S
C5678 C5692 1.377 . S
C5679 C5678 1.524 . S
C5679 C5680 1.397 . S
C5679 C5684 1.363 . S
C5680 H5657 0.950 . S
C5680 C5679 1.397 . S
C5680 C5681 1.334 . S
C5681 H5658 0.950 . S
C5681 C5680 1.334 . S
C5681 C5682 1.287 . S
C5682 C5681 1.287 . S
C5682 C5683 1.524 . S
C5682 H5701 0.913 . S
C5683 H5659 0.950 . S
C5683 C5682 1.524 . S
C5683 C5684 1.415 . S
C5684 H5660 0.950 . S
C5684 C5679 1.363 . S
C5684 C5683 1.415 . S
C5685 H5661 0.951 . S
C5685 C5686 1.366 . S
C5685 C5687 1.388 . S
C5686 C5685 1.366 . S
C5686 C5690 1.385 . S
C5687 H5662 0.951 . S
C5687 C5685 1.388 . S
C5687 C5688 1.366 . S
C5688 C5687 1.366 . S
C5688 C5689 1.414 . S
C5688 C5691 1.499 . S
C5689 H5663 0.950 . S
C5689 C5688 1.414 . S
C5689 C5690 1.374 . S
C5690 H5664 0.950 . S
C5690 C5686 1.385 . S
C5690 C5689 1.374 . S
C5691 C5688 1.499 . S
C5691 C5692 1.373 . S
C5691 C5693 1.389 . S
C5692 H5665 0.950 . S
C5692 C5678 1.377 . S
C5692 C5691 1.373 . S
C5693 C5677 1.377 . S
C5693 C5691 1.389 . S
C5693 C5694 1.524 . S
C5694 C5693 1.524 . S
C5694 C5695 1.397 . S
C5694 C5699 1.363 . S
C5695 H5666 0.950 . S
C5695 C5694 1.397 . S
C5695 C5696 1.334 . S
C5696 H5667 0.950 . S
C5696 C5695 1.334 . S
C5696 C5697 1.287 . S
C5697 C5696 1.287 . S
C5697 C5698 1.524 . S
C5697 H5700 0.999 . S
C5698 H5668 0.950 . S
C5698 C5697 1.524 . S
C5698 C5699 1.415 . S
C5699 H5669 0.950 . S
C5699 C5694 1.363 . S
C5699 C5698 1.415 . S
H5700 C5697 0.999 . S
H5701 C5682 0.913 . S
H5702 C5720 0.951 . S
H5703 C5722 0.951 . S
H5704 C5724 0.950 . S
H5705 C5725 0.950 . S
H5706 C5727 0.950 . S
H5707 C5730 0.950 . S
H5708 C5731 0.950 . S
H5709 C5733 0.950 . S
H5710 C5734 0.950 . S
H5711 C5735 0.951 . S
H5712 C5737 0.951 . S
H5713 C5739 0.950 . S
H5714 C5740 0.950 . S
H5715 C5742 0.950 . S
H5716 C5745 0.950 . S
H5717 C5746 0.950 . S
H5718 C5748 0.950 . S
H5719 C5749 0.950 . S
C5720 H5702 0.951 . S
C5720 C5721 1.366 . S
C5720 C5722 1.388 . S
C5721 C5720 1.366 . S
C5721 C5725 1.385 . S
C5722 H5703 0.951 . S
C5722 C5720 1.388 . S
C5722 C5723 1.366 . S
C5723 C5722 1.366 . S
C5723 C5724 1.414 . S
C5723 C5726 1.499 . S
C5724 H5704 0.950 . S
C5724 C5723 1.414 . S
C5724 C5725 1.374 . S
C5725 H5705 0.950 . S
C5725 C5721 1.385 . S
C5725 C5724 1.374 . S
C5726 C5723 1.499 . S
C5726 C5727 1.373 . S
C5726 C5728 1.389 . S
C5727 H5706 0.950 . S
C5727 C5726 1.373 . S
C5727 C5743 1.377 . S
C5728 C5726 1.389 . S
C5728 C5729 1.524 . S
C5728 C5742 1.377 . S
C5729 C5728 1.524 . S
C5729 C5730 1.397 . S
C5729 C5734 1.363 . S
C5730 H5707 0.950 . S
C5730 C5729 1.397 . S
C5730 C5731 1.334 . S
C5731 H5708 0.950 . S
C5731 C5730 1.334 . S
C5731 C5732 1.287 . S
C5732 C5731 1.287 . S
C5732 C5733 1.524 . S
C5732 H5751 0.913 . S
C5733 H5709 0.950 . S
C5733 C5732 1.524 . S
C5733 C5734 1.415 . S
C5734 H5710 0.950 . S
C5734 C5729 1.363 . S
C5734 C5733 1.415 . S
C5735 H5711 0.951 . S
C5735 C5736 1.366 . S
C5735 C5737 1.388 . S
C5736 C5735 1.366 . S
C5736 C5740 1.385 . S
C5737 H5712 0.951 . S
C5737 C5735 1.388 . S
C5737 C5738 1.366 . S
C5738 C5737 1.366 . S
C5738 C5739 1.414 . S
C5738 C5741 1.499 . S
C5739 H5713 0.950 . S
C5739 C5738 1.414 . S
C5739 C5740 1.374 . S
C5740 H5714 0.950 . S
C5740 C5736 1.385 . S
C5740 C5739 1.374 . S
C5741 C5738 1.499 . S
C5741 C5742 1.373 . S
C5741 C5743 1.389 . S
C5742 H5715 0.950 . S
C5742 C5728 1.377 . S
C5742 C5741 1.373 . S
C5743 C5727 1.377 . S
C5743 C5741 1.389 . S
C5743 C5744 1.524 . S
C5744 C5743 1.524 . S
C5744 C5745 1.397 . S
C5744 C5749 1.363 . S
C5745 H5716 0.950 . S
C5745 C5744 1.397 . S
C5745 C5746 1.334 . S
C5746 H5717 0.950 . S
C5746 C5745 1.334 . S
C5746 C5747 1.287 . S
C5747 C5746 1.287 . S
C5747 C5748 1.524 . S
C5747 H5750 0.999 . S
C5748 H5718 0.950 . S
C5748 C5747 1.524 . S
C5748 C5749 1.415 . S
C5749 H5719 0.950 . S
C5749 C5744 1.363 . S
C5749 C5748 1.415 . S
H5750 C5747 0.999 . S
H5751 C5732 0.913 . S
C971 C101 2.164 . S
C986 C322 2.118 . S
C1021 C57 1.720 . S
C1036 C361 1.726 . S
C1071 C73 1.263 . S
C1086 C402 1.306 . S
C1136 C447 1.377 . S
C1121 C78 1.349 . S
C1171 C21 2.131 . S
C1186 C491 2.115 . S
C1236 C522 1.188 . S
C1221 C31 1.196 . S
C1286 C570 1.976 . S
C1271 C49 1.990 . S
C1321 C0 1.471 . S
C1336 C598 1.487 . S
C1386 C330 1.291 . S
C1371 C218 1.286 . S
C1421 C229 1.288 . S
C1436 C371 1.274 . S
C1486 C410 1.410 . S
C1471 C257 1.415 . S
C1536 C442 1.327 . S
C1521 C164 1.274 . S
C1571 C216 0.386 . S
C1586 C478 0.149 . S
C1636 C530 2.259 . S
C1621 C231 2.284 . S
C1686 C567 0.663 . S
C1671 C255 0.691 1_565 S
C1736 C601 1.872 . S
C1721 C166 1.890 . S
C1786 C327 1.748 . S
C1771 C143 1.720 . S
C1821 C265 1.958 . S
C1836 C641 1.968 . S
C1886 C687 0.963 . S
C1871 C299 0.932 . S
C1936 C722 1.406 1_655 S
C1921 C291 1.418 . S
C1971 C104 1.671 . S
C1986 C611 1.652 . S
C2021 C117 1.279 . S
C2036 C407 1.306 . S
C2071 C304 1.188 . S
C2086 C770 1.226 . S
C2136 C798 0.236 . S
C2121 C278 0.313 . S
C2186 C331 2.049 1_565 S
C2171 C60 2.089 . S
C2236 C810 1.637 . S
C2221 C96 1.655 . S
C2271 C88 1.165 . S
C2286 C411 1.155 . S
C2321 C65 1.308 . S
C2336 C758 1.312 . S
C2386 C482 1.959 . S
C2371 C10 1.986 . S
C2421 C44 1.119 . S
C2436 C691 1.122 . S
C2486 C561 1.837 1_565 S
C2471 C34 1.847 . S
C2536 C847 1.481 . S
C2521 C13 1.501 . S
C2586 C321 1.244 . S
C2571 C138 1.239 . S
C2636 C802 1.103 . S
C2621 C296 1.133 . S
C2671 C112 1.213 . S
C2686 C401 1.303 . S
C2721 C270 1.188 . S
C2736 C771 1.179 . S
C2771 C140 0.192 . S
C2786 C487 0.216 . S
C2836 C681 2.164 . S
C2821 C294 2.122 . S
C2871 C114 0.626 . S
C2886 C558 0.636 . S
C2921 C268 1.797 . S
C2936 C850 1.812 . S
C2971 C169 1.778 1_556 S
C2986 C318 1.740 . S
C3021 C161 1.891 . S
C3036 C650 1.879 . S
C3071 C234 0.974 . S
C3086 C518 0.949 . S
C3121 C226 1.301 . S
C3136 C731 1.305 . S
C3186 C842 1.607 . S
C3171 C247 1.670 . S
C3221 C195 1.261 . S
C3236 C398 1.251 . S
C3286 C441 1.114 . S
C3271 C239 1.111 . S
C3336 C367 0.196 . S
C3321 C187 0.262 . S
C3371 C75 2.163 . S
C3386 C882 2.118 . S
C3436 C801 1.727 . S
C3421 C83 1.720 . S
C3471 C99 1.263 . S
C3486 C922 1.305 . S
C3521 C52 1.348 . S
C3536 C767 1.376 . S
C3571 C47 2.132 . S
C3586 C651 2.116 . S
C3636 C682 1.189 . S
C3621 C5 1.195 . S
C3686 C730 1.976 . S
C3671 C23 1.990 . S
C3736 C838 1.486 . S
C3721 C26 1.472 . S
C3786 C890 1.291 . S
C3771 C244 1.285 . S
C3821 C177 1.289 . S
C3836 C811 1.281 . S
C3886 C930 1.411 . S
C3871 C192 1.404 . S
C3936 C762 1.327 . S
C3921 C203 1.273 . S
C3986 C638 0.125 . S
C3971 C242 0.384 . S
C4021 C179 2.283 . S
C4036 C690 2.251 . S
C4086 C727 0.662 . S
C4071 C190 0.690 . S
C4121 C205 1.890 . S
C4136 C841 1.871 . S
C4186 C887 1.749 . S
C4171 C286 1.720 . S
C4221 C122 1.957 . S
C4236 C481 1.968 . S
C4286 C527 0.962 . S
C4271 C130 0.931 . S
C4336 C562 1.405 . S
C4321 C148 1.419 . S
C4386 C851 1.652 . S
C4371 C273 1.672 . S
C4421 C260 1.280 . S
C4436 C927 1.307 . S
C4486 C450 1.227 . S
C4471 C135 1.189 . S
C4536 C358 0.235 . S
C4521 C109 0.314 . S
C4571 C86 2.089 . S
C4586 C891 2.050 . S
C4636 C370 1.636 . S
C4621 C70 1.655 . S
C4671 C62 1.166 . S
C4686 C931 1.155 . S
C4721 C91 1.310 . S
C4736 C438 1.312 . S
C4771 C36 1.986 . S
C4786 C642 1.939 1_556 S
C4836 C531 1.122 . S
C4821 C18 1.118 . S
C4871 C8 1.846 . S
C4886 C721 1.881 . S
C4921 C39 1.501 . S
C4936 C607 1.481 . S
C4986 C881 1.245 . S
C4971 C307 1.239 . S
C5021 C153 1.133 . S
C5036 C362 1.104 . S
C5086 C921 1.303 . S
C5071 C281 1.212 . S
C5121 C127 1.188 . S
C5136 C451 1.179 . S
C5171 C309 0.192 . S
C5186 C647 0.215 . S
C5236 C521 2.164 . S
C5221 C151 2.122 1_556 S
C5271 C283 0.626 . S
C5286 C718 0.636 1_655 S
C5336 C610 1.812 . S
C5321 C125 1.797 . S
C5386 C878 1.739 . S
C5371 C221 1.776 . S
C5436 C490 1.879 1_655 S
C5421 C200 1.891 . S
C5471 C208 0.975 . S
C5486 C678 0.950 . S
C5536 C571 1.305 . S
C5521 C174 1.301 . S
C5571 C182 1.670 . S
C5586 C602 1.608 . S
C5621 C156 1.260 . S
C5636 C918 1.251 . S
C5686 C761 1.114 . S
C5671 C213 1.111 1_565 S
C5736 C807 0.194 . S
C5721 C252 0.264 . S
