# Generated by pormake.
# Topology iac, (4,6)-cn, num edge types: 1
# Building blocks:
#     Node 0, Type 0, BuildingBlock: GALJAG_clean_sbu_0, # of connection points: 4
#     Node 1, Type 0, BuildingBlock: GALJAG_clean_sbu_0, # of connection points: 4
#     Node 2, Type 0, BuildingBlock: GALJAG_clean_sbu_0, # of connection points: 4
#     Node 3, Type 0, BuildingBlock: GALJAG_clean_sbu_0, # of connection points: 4
#     Node 4, Type 0, BuildingBlock: GALJAG_clean_sbu_0, # of connection points: 4
#     Node 5, Type 0, BuildingBlock: GALJAG_clean_sbu_0, # of connection points: 4
#     Node 6, Type 0, BuildingBlock: GALJAG_clean_sbu_0, # of connection points: 4
#     Node 7, Type 0, BuildingBlock: GALJAG_clean_sbu_0, # of connection points: 4
#     Node 8, Type 0, BuildingBlock: GALJAG_clean_sbu_0, # of connection points: 4
#     Node 9, Type 0, BuildingBlock: GALJAG_clean_sbu_0, # of connection points: 4
#     Node 10, Type 0, BuildingBlock: GALJAG_clean_sbu_0, # of connection points: 4
#     Node 11, Type 0, BuildingBlock: GALJAG_clean_sbu_0, # of connection points: 4
#     Node 12, Type 0, BuildingBlock: GALJAG_clean_sbu_0, # of connection points: 4
#     Node 13, Type 0, BuildingBlock: GALJAG_clean_sbu_0, # of connection points: 4
#     Node 14, Type 0, BuildingBlock: GALJAG_clean_sbu_0, # of connection points: 4
#     Node 15, Type 0, BuildingBlock: GALJAG_clean_sbu_0, # of connection points: 4
#     Node 16, Type 0, BuildingBlock: GALJAG_clean_sbu_0, # of connection points: 4
#     Node 17, Type 0, BuildingBlock: GALJAG_clean_sbu_0, # of connection points: 4
#     Node 18, Type 0, BuildingBlock: GALJAG_clean_sbu_0, # of connection points: 4
#     Node 19, Type 0, BuildingBlock: GALJAG_clean_sbu_0, # of connection points: 4
#     Node 20, Type 0, BuildingBlock: GALJAG_clean_sbu_0, # of connection points: 4
#     Node 21, Type 0, BuildingBlock: GALJAG_clean_sbu_0, # of connection points: 4
#     Node 22, Type 0, BuildingBlock: GALJAG_clean_sbu_0, # of connection points: 4
#     Node 23, Type 0, BuildingBlock: GALJAG_clean_sbu_0, # of connection points: 4
#     Node 24, Type 1, BuildingBlock: CIFDUS_clean_sbu_1, # of connection points: 6
#     Node 25, Type 1, BuildingBlock: CIFDUS_clean_sbu_1, # of connection points: 6
#     Node 26, Type 1, BuildingBlock: CIFDUS_clean_sbu_1, # of connection points: 6
#     Node 27, Type 1, BuildingBlock: CIFDUS_clean_sbu_1, # of connection points: 6
#     Node 28, Type 1, BuildingBlock: CIFDUS_clean_sbu_1, # of connection points: 6
#     Node 29, Type 1, BuildingBlock: CIFDUS_clean_sbu_1, # of connection points: 6
#     Node 30, Type 1, BuildingBlock: CIFDUS_clean_sbu_1, # of connection points: 6
#     Node 31, Type 1, BuildingBlock: CIFDUS_clean_sbu_1, # of connection points: 6
#     Node 32, Type 1, BuildingBlock: CIFDUS_clean_sbu_1, # of connection points: 6
#     Node 33, Type 1, BuildingBlock: CIFDUS_clean_sbu_1, # of connection points: 6
#     Node 34, Type 1, BuildingBlock: CIFDUS_clean_sbu_1, # of connection points: 6
#     Node 35, Type 1, BuildingBlock: CIFDUS_clean_sbu_1, # of connection points: 6
#     Node 36, Type 1, BuildingBlock: CIFDUS_clean_sbu_1, # of connection points: 6
#     Node 37, Type 1, BuildingBlock: CIFDUS_clean_sbu_1, # of connection points: 6
#     Node 38, Type 1, BuildingBlock: CIFDUS_clean_sbu_1, # of connection points: 6
#     Node 39, Type 1, BuildingBlock: CIFDUS_clean_sbu_1, # of connection points: 6
#     Edge 40, Type (0, 1), BuildingBlock: TEMPAE_clean_linker_10, # of connection points: 2
#     Edge 41, Type (0, 1), BuildingBlock: TEMPAE_clean_linker_10, # of connection points: 2
#     Edge 42, Type (0, 1), BuildingBlock: TEMPAE_clean_linker_10, # of connection points: 2
#     Edge 43, Type (0, 1), BuildingBlock: TEMPAE_clean_linker_10, # of connection points: 2
#     Edge 44, Type (0, 1), BuildingBlock: TEMPAE_clean_linker_10, # of connection points: 2
#     Edge 45, Type (0, 1), BuildingBlock: TEMPAE_clean_linker_10, # of connection points: 2
#     Edge 46, Type (0, 1), BuildingBlock: TEMPAE_clean_linker_10, # of connection points: 2
#     Edge 47, Type (0, 1), BuildingBlock: TEMPAE_clean_linker_10, # of connection points: 2
#     Edge 48, Type (0, 1), BuildingBlock: TEMPAE_clean_linker_10, # of connection points: 2
#     Edge 49, Type (0, 1), BuildingBlock: TEMPAE_clean_linker_10, # of connection points: 2
#     Edge 50, Type (0, 1), BuildingBlock: TEMPAE_clean_linker_10, # of connection points: 2
#     Edge 51, Type (0, 1), BuildingBlock: TEMPAE_clean_linker_10, # of connection points: 2
#     Edge 52, Type (0, 1), BuildingBlock: TEMPAE_clean_linker_10, # of connection points: 2
#     Edge 53, Type (0, 1), BuildingBlock: TEMPAE_clean_linker_10, # of connection points: 2
#     Edge 54, Type (0, 1), BuildingBlock: TEMPAE_clean_linker_10, # of connection points: 2
#     Edge 55, Type (0, 1), BuildingBlock: TEMPAE_clean_linker_10, # of connection points: 2
#     Edge 56, Type (0, 1), BuildingBlock: TEMPAE_clean_linker_10, # of connection points: 2
#     Edge 57, Type (0, 1), BuildingBlock: TEMPAE_clean_linker_10, # of connection points: 2
#     Edge 58, Type (0, 1), BuildingBlock: TEMPAE_clean_linker_10, # of connection points: 2
#     Edge 59, Type (0, 1), BuildingBlock: TEMPAE_clean_linker_10, # of connection points: 2
#     Edge 60, Type (0, 1), BuildingBlock: TEMPAE_clean_linker_10, # of connection points: 2
#     Edge 61, Type (0, 1), BuildingBlock: TEMPAE_clean_linker_10, # of connection points: 2
#     Edge 62, Type (0, 1), BuildingBlock: TEMPAE_clean_linker_10, # of connection points: 2
#     Edge 63, Type (0, 1), BuildingBlock: TEMPAE_clean_linker_10, # of connection points: 2
#     Edge 64, Type (0, 1), BuildingBlock: TEMPAE_clean_linker_10, # of connection points: 2
#     Edge 65, Type (0, 1), BuildingBlock: TEMPAE_clean_linker_10, # of connection points: 2
#     Edge 66, Type (0, 1), BuildingBlock: TEMPAE_clean_linker_10, # of connection points: 2
#     Edge 67, Type (0, 1), BuildingBlock: TEMPAE_clean_linker_10, # of connection points: 2
#     Edge 68, Type (0, 1), BuildingBlock: TEMPAE_clean_linker_10, # of connection points: 2
#     Edge 69, Type (0, 1), BuildingBlock: TEMPAE_clean_linker_10, # of connection points: 2
#     Edge 70, Type (0, 1), BuildingBlock: TEMPAE_clean_linker_10, # of connection points: 2
#     Edge 71, Type (0, 1), BuildingBlock: TEMPAE_clean_linker_10, # of connection points: 2
#     Edge 72, Type (0, 1), BuildingBlock: TEMPAE_clean_linker_10, # of connection points: 2
#     Edge 73, Type (0, 1), BuildingBlock: TEMPAE_clean_linker_10, # of connection points: 2
#     Edge 74, Type (0, 1), BuildingBlock: TEMPAE_clean_linker_10, # of connection points: 2
#     Edge 75, Type (0, 1), BuildingBlock: TEMPAE_clean_linker_10, # of connection points: 2
#     Edge 76, Type (0, 1), BuildingBlock: TEMPAE_clean_linker_10, # of connection points: 2
#     Edge 77, Type (0, 1), BuildingBlock: TEMPAE_clean_linker_10, # of connection points: 2
#     Edge 78, Type (0, 1), BuildingBlock: TEMPAE_clean_linker_10, # of connection points: 2
#     Edge 79, Type (0, 1), BuildingBlock: TEMPAE_clean_linker_10, # of connection points: 2
#     Edge 80, Type (0, 1), BuildingBlock: TEMPAE_clean_linker_10, # of connection points: 2
#     Edge 81, Type (0, 1), BuildingBlock: TEMPAE_clean_linker_10, # of connection points: 2
#     Edge 82, Type (0, 1), BuildingBlock: TEMPAE_clean_linker_10, # of connection points: 2
#     Edge 83, Type (0, 1), BuildingBlock: TEMPAE_clean_linker_10, # of connection points: 2
#     Edge 84, Type (0, 1), BuildingBlock: TEMPAE_clean_linker_10, # of connection points: 2
#     Edge 85, Type (0, 1), BuildingBlock: TEMPAE_clean_linker_10, # of connection points: 2
#     Edge 86, Type (0, 1), BuildingBlock: TEMPAE_clean_linker_10, # of connection points: 2
#     Edge 87, Type (0, 1), BuildingBlock: TEMPAE_clean_linker_10, # of connection points: 2
#     Edge 88, Type (0, 1), BuildingBlock: TEMPAE_clean_linker_10, # of connection points: 2
#     Edge 89, Type (0, 1), BuildingBlock: TEMPAE_clean_linker_10, # of connection points: 2
#     Edge 90, Type (0, 1), BuildingBlock: TEMPAE_clean_linker_10, # of connection points: 2
#     Edge 91, Type (0, 1), BuildingBlock: TEMPAE_clean_linker_10, # of connection points: 2
#     Edge 92, Type (0, 1), BuildingBlock: TEMPAE_clean_linker_10, # of connection points: 2
#     Edge 93, Type (0, 1), BuildingBlock: TEMPAE_clean_linker_10, # of connection points: 2
#     Edge 94, Type (0, 1), BuildingBlock: TEMPAE_clean_linker_10, # of connection points: 2
#     Edge 95, Type (0, 1), BuildingBlock: TEMPAE_clean_linker_10, # of connection points: 2
#     Edge 96, Type (0, 1), BuildingBlock: TEMPAE_clean_linker_10, # of connection points: 2
#     Edge 97, Type (0, 1), BuildingBlock: TEMPAE_clean_linker_10, # of connection points: 2
#     Edge 98, Type (0, 1), BuildingBlock: TEMPAE_clean_linker_10, # of connection points: 2
#     Edge 99, Type (0, 1), BuildingBlock: TEMPAE_clean_linker_10, # of connection points: 2
#     Edge 100, Type (0, 1), BuildingBlock: TEMPAE_clean_linker_10, # of connection points: 2
#     Edge 101, Type (0, 1), BuildingBlock: TEMPAE_clean_linker_10, # of connection points: 2
#     Edge 102, Type (0, 1), BuildingBlock: TEMPAE_clean_linker_10, # of connection points: 2
#     Edge 103, Type (0, 1), BuildingBlock: TEMPAE_clean_linker_10, # of connection points: 2
#     Edge 104, Type (0, 1), BuildingBlock: TEMPAE_clean_linker_10, # of connection points: 2
#     Edge 105, Type (0, 1), BuildingBlock: TEMPAE_clean_linker_10, # of connection points: 2
#     Edge 106, Type (0, 1), BuildingBlock: TEMPAE_clean_linker_10, # of connection points: 2
#     Edge 107, Type (0, 1), BuildingBlock: TEMPAE_clean_linker_10, # of connection points: 2
#     Edge 108, Type (0, 1), BuildingBlock: TEMPAE_clean_linker_10, # of connection points: 2
#     Edge 109, Type (0, 1), BuildingBlock: TEMPAE_clean_linker_10, # of connection points: 2
#     Edge 110, Type (0, 1), BuildingBlock: TEMPAE_clean_linker_10, # of connection points: 2
#     Edge 111, Type (0, 1), BuildingBlock: TEMPAE_clean_linker_10, # of connection points: 2
#     Edge 112, Type (0, 1), BuildingBlock: TEMPAE_clean_linker_10, # of connection points: 2
#     Edge 113, Type (0, 1), BuildingBlock: TEMPAE_clean_linker_10, # of connection points: 2
#     Edge 114, Type (0, 1), BuildingBlock: TEMPAE_clean_linker_10, # of connection points: 2
#     Edge 115, Type (0, 1), BuildingBlock: TEMPAE_clean_linker_10, # of connection points: 2
#     Edge 116, Type (0, 1), BuildingBlock: TEMPAE_clean_linker_10, # of connection points: 2
#     Edge 117, Type (0, 1), BuildingBlock: TEMPAE_clean_linker_10, # of connection points: 2
#     Edge 118, Type (0, 1), BuildingBlock: TEMPAE_clean_linker_10, # of connection points: 2
#     Edge 119, Type (0, 1), BuildingBlock: TEMPAE_clean_linker_10, # of connection points: 2
#     Edge 120, Type (0, 1), BuildingBlock: TEMPAE_clean_linker_10, # of connection points: 2
#     Edge 121, Type (0, 1), BuildingBlock: TEMPAE_clean_linker_10, # of connection points: 2
#     Edge 122, Type (0, 1), BuildingBlock: TEMPAE_clean_linker_10, # of connection points: 2
#     Edge 123, Type (0, 1), BuildingBlock: TEMPAE_clean_linker_10, # of connection points: 2
#     Edge 124, Type (0, 1), BuildingBlock: TEMPAE_clean_linker_10, # of connection points: 2
#     Edge 125, Type (0, 1), BuildingBlock: TEMPAE_clean_linker_10, # of connection points: 2
#     Edge 126, Type (0, 1), BuildingBlock: TEMPAE_clean_linker_10, # of connection points: 2
#     Edge 127, Type (0, 1), BuildingBlock: TEMPAE_clean_linker_10, # of connection points: 2
#     Edge 128, Type (0, 1), BuildingBlock: TEMPAE_clean_linker_10, # of connection points: 2
#     Edge 129, Type (0, 1), BuildingBlock: TEMPAE_clean_linker_10, # of connection points: 2
#     Edge 130, Type (0, 1), BuildingBlock: TEMPAE_clean_linker_10, # of connection points: 2
#     Edge 131, Type (0, 1), BuildingBlock: TEMPAE_clean_linker_10, # of connection points: 2
#     Edge 132, Type (0, 1), BuildingBlock: TEMPAE_clean_linker_10, # of connection points: 2
#     Edge 133, Type (0, 1), BuildingBlock: TEMPAE_clean_linker_10, # of connection points: 2
#     Edge 134, Type (0, 1), BuildingBlock: TEMPAE_clean_linker_10, # of connection points: 2
#     Edge 135, Type (0, 1), BuildingBlock: TEMPAE_clean_linker_10, # of connection points: 2
# Relax obj value: 0.123
# Max RMSD: 0.166
# Mean RMSD: 0.133
data_MOF--net-iac--node1-GALJAG_clean_sbu_0--node2-CIFDUS_clean_sbu_1--edge1-TEMPAE_clean_linker_10
_symmetry_space_group_name_H-M    P1
_symmetry_Int_Tables_number       1
_symmetry_cell_setting            triclinic
loop_
_symmetry_equiv_pos_as_xyz
'x, y, z'
_cell_length_a     55.32137
_cell_length_b     55.114477
_cell_length_c     55.357554
_cell_angle_alpha  89.889396
_cell_angle_beta   89.948042
_cell_angle_gamma 89.934367
loop_
_atom_site_label
_atom_site_type_symbol
_atom_site_fract_x
_atom_site_fract_y
_atom_site_fract_z
_atom_type_partial_charge
In0 In -0.00295 0.2522 0.12252 0.0
O1 O 0.01267 0.22598 0.09415 0.0
O2 O 0.98438 0.21307 0.11679 0.0
C3 C -0.00374 0.29487 0.09744 0.0
C4 C 0.9536 0.25269 0.14485 0.0
C5 C 0.03732 0.25216 0.15074 0.0
O6 O -0.00598 0.27457 0.08707 0.0
O7 O 0.00017 0.29337 0.11976 0.0
O8 O 0.01969 0.26613 0.15449 0.0
O9 O 0.03472 0.23826 0.13295 0.0
C10 C -0.0006 0.2083 0.10026 0.0
O11 O 0.97276 0.24624 0.15551 0.0
O12 O 0.9563 0.25801 0.12284 0.0
In13 In 0.00136 0.74946 0.37377 0.0
O14 O 0.02344 0.75548 0.33958 0.0
O15 O 0.04188 0.74564 0.37202 0.0
C16 C 0.95663 0.74574 0.35598 0.0
C17 C 0.0024 0.70884 0.39963 0.0
C18 C 0.00171 0.79352 0.39319 0.0
O19 O 0.97491 0.74007 0.34345 0.0
O20 O 0.96116 0.75256 0.37715 0.0
O21 O 0.00834 0.77496 0.40482 0.0
O22 O -0.00406 0.7899 0.37148 0.0
C23 C 0.0433 0.75076 0.34986 0.0
O24 O -0.00432 0.72877 0.40853 0.0
O25 O 0.0084 0.70932 0.37765 0.0
In26 In 0.49876 0.75234 0.61853 0.0
O27 O 0.51184 0.77836 0.58836 0.0
O28 O 0.4854 0.79116 0.61293 0.0
C29 C 0.50058 0.70881 0.595 0.0
C30 C 0.53967 0.75277 0.6456 0.0
C31 C 0.45559 0.75397 0.6418 0.0
O32 O 0.4893 0.72689 0.58664 0.0
O33 O 0.51063 0.71259 0.615 0.0
O34 O 0.47525 0.75973 0.65191 0.0
O35 O 0.45791 0.74619 0.62048 0.0
C36 C 0.49832 0.79565 0.5948 0.0
O37 O 0.51947 0.74602 0.65391 0.0
O38 O 0.53903 0.76001 0.62395 0.0
In39 In 0.50135 0.24947 0.87157 0.0
O40 O 0.52156 0.2527 0.8361 0.0
O41 O 0.54086 0.24056 0.86729 0.0
C42 C 0.45731 0.24867 0.85257 0.0
C43 C 0.50223 0.20829 0.89675 0.0
C44 C 0.50015 0.29403 0.89047 0.0
O45 O 0.47584 0.24356 0.84015 0.0
O46 O 0.46124 0.25396 0.87434 0.0
O47 O 0.4933 0.27554 0.90201 0.0
O48 O 0.50914 0.28992 0.86998 0.0
C49 C 0.54134 0.2456 0.84505 0.0
O50 O 0.51413 0.22669 0.90328 0.0
O51 O 0.49016 0.21066 0.8776 0.0
In52 In 0.13052 -0.00195 0.2513 0.0
O53 O 0.1645 0.97374 0.25095 0.0
O54 O 0.13064 0.95716 0.25784 0.0
C55 C 0.15233 0.04229 0.24786 0.0
C56 C 0.10536 -0.00415 0.20916 0.0
C57 C 0.10948 -0.00165 0.29546 0.0
O58 O 0.16409 0.02264 0.24908 0.0
O59 O 0.12969 0.0396 0.24829 0.0
O60 O 0.09884 0.99091 0.27676 0.0
O61 O 0.13058 0.00625 0.29185 0.0
C62 C 0.15315 0.95444 0.25583 0.0
O63 O 0.096 0.00235 0.22889 0.0
O64 O 0.12752 0.99056 0.21057 0.0
In65 In 0.25363 0.87479 0.49551 0.0
O66 O 0.23195 0.90961 0.49539 0.0
O67 O 0.21305 0.87602 0.49898 0.0
C68 C 0.29679 0.89589 0.49368 0.0
C69 C 0.2529 0.84927 0.53668 0.0
C70 C 0.25524 0.85696 0.45075 0.0
O71 O 0.27818 0.90747 0.50031 0.0
O72 O 0.2935 0.87382 0.48882 0.0
O73 O 0.26329 0.84543 0.46873 0.0
O74 O 0.2452 0.87691 0.45547 0.0
C75 C 0.2119 0.89884 0.49755 0.0
O76 O 0.24318 0.84165 0.51754 0.0
O77 O 0.26309 0.86964 0.53502 0.0
In78 In 0.37595 0.00065 0.74923 0.0
O79 O 0.34056 0.02133 0.75262 0.0
O80 O 0.37253 0.04111 0.74407 0.0
C81 C 0.35883 0.95563 0.74774 0.0
C82 C 0.40115 -0.00122 0.70808 0.0
C83 C 0.39313 0.00317 0.79417 0.0
O84 O 0.34696 0.97337 0.73941 0.0
O85 O 0.37925 0.96061 0.75647 0.0
O86 O 0.40473 0.01172 0.7764 0.0
O87 O 0.37285 -0.00595 0.78927 0.0
C88 C 0.35006 0.04158 0.74778 0.0
O89 O 0.41129 -0.00303 0.72845 0.0
O90 O 0.37856 0.00158 0.70869 0.0
In91 In 0.25221 0.12468 -0.00199 0.0
O92 O 0.2776 0.0922 0.00243 0.0
O93 O 0.2932 0.12688 -0.00429 0.0
C94 C 0.20824 0.10354 -0.00659 0.0
C95 C 0.25089 0.14535 0.04228 0.0
C96 C 0.25594 0.14581 0.95435 0.0
O97 O 0.22701 0.09159 -0.00135 0.0
O98 O 0.21164 0.12593 0.99039 0.0
O99 O 0.25133 0.15774 0.97333 0.0
O100 O 0.25846 0.12321 0.95743 0.0
C101 C 0.2966 0.10458 -0.00051 0.0
O102 O 0.25136 0.15779 0.02311 0.0
O103 O 0.25074 0.12277 0.039 0.0
In104 In 0.75254 0.37309 -0.00342 0.0
O105 O 0.74438 0.33816 0.0172 0.0
O106 O 0.75644 0.36908 0.03688 0.0
C107 C 0.75413 0.35385 0.9521 0.0
C108 C 0.71229 0.39937 0.00182 0.0
C109 C 0.79541 0.39528 -0.00452 0.0
O110 O 0.76843 0.34745 0.96862 0.0
O111 O 0.73817 0.36883 0.95833 0.0
O112 O 0.77649 0.40521 0.98735 0.0
O113 O 0.79243 0.37462 0.00479 0.0
C114 C 0.74972 0.34724 0.03747 0.0
O115 O 0.73303 0.40902 0.00147 0.0
O116 O 0.71205 0.37657 -0.00033 0.0
In117 In 0.87838 0.50089 0.24763 0.0
O118 O 0.91213 0.49743 0.22519 0.0
O119 O 0.87863 0.50379 0.20694 0.0
C120 C 0.89802 0.50054 0.29172 0.0
C121 C 0.85461 0.54293 0.24704 0.0
C122 C 0.85919 0.45675 0.24677 0.0
O123 O 0.90989 0.50708 0.27336 0.0
O124 O 0.87654 0.49441 0.28768 0.0
O125 O 0.84728 0.47512 0.25335 0.0
O126 O 0.88057 0.46065 0.23998 0.0
C127 C 0.90118 0.50036 0.20536 0.0
O128 O 0.84386 0.52277 0.24674 0.0
O129 O 0.87737 0.5419 0.24713 0.0
In130 In 0.75198 0.62486 0.49999 0.0
O131 O 0.77567 0.59099 0.49921 0.0
O132 O 0.7925 0.62567 0.49596 0.0
C133 C 0.70778 0.60476 0.50006 0.0
C134 C 0.75346 0.64264 0.54519 0.0
C135 C 0.75288 0.64767 0.457 0.0
O136 O 0.72673 0.59233 0.49663 0.0
O137 O 0.71134 0.62703 0.50394 0.0
O138 O 0.76068 0.65764 0.476 0.0
O139 O 0.7443 0.62671 0.45987 0.0
C140 C 0.79509 0.60295 0.49695 0.0
O141 O 0.74462 0.65458 0.52779 0.0
O142 O 0.76157 0.62199 0.53982 0.0
In143 In 0.62967 0.49761 0.75001 0.0
O144 O 0.66023 0.47119 0.73928 0.0
O145 O 0.63249 0.45825 0.76244 0.0
C146 C 0.65118 0.54196 0.74835 0.0
C147 C 0.60428 0.49574 0.70837 0.0
C148 C 0.60798 0.49841 0.79364 0.0
O149 O 0.66161 0.52354 0.75715 0.0
O150 O 0.63034 0.5379 0.74022 0.0
O151 O 0.59665 0.49328 0.77448 0.0
O152 O 0.62996 0.50376 0.79059 0.0
C153 C 0.65173 0.45361 0.75125 0.0
O154 O 0.59464 0.50123 0.72834 0.0
O155 O 0.62651 0.49072 0.70957 0.0
In156 In 0.00391 0.75033 0.87219 0.0
O157 O 0.03172 0.7604 0.84329 0.0
O158 O 0.04348 0.7395 0.87361 0.0
C159 C 0.96487 0.75478 0.84292 0.0
C160 C 0.00189 0.70534 0.89197 0.0
C161 C 0.00218 0.79228 0.89789 0.0
O162 O 0.98433 0.74523 0.83579 0.0
O163 O 0.9651 0.76183 0.86448 0.0
O164 O 0.98773 0.77493 0.90151 0.0
O165 O 0.01837 0.78801 0.8824 0.0
C166 C 0.04882 0.74915 0.85362 0.0
O167 O 0.00253 0.72425 0.90483 0.0
O168 O 0.00126 0.70913 0.86957 0.0
In169 In 0.00226 0.24801 0.62309 0.0
O170 O 0.00122 0.26759 0.5871 0.0
O171 O 0.00735 0.28854 0.61897 0.0
C172 C 0.00282 0.20242 0.60672 0.0
C173 C 0.04603 0.24883 0.64224 0.0
C174 C 0.96077 0.2505 0.64811 0.0
O175 O 0.99139 0.219 0.59596 0.0
O176 O 0.01413 0.20882 0.62526 0.0
O177 O 0.98112 0.25236 0.65816 0.0
O178 O 0.96143 0.24828 0.62552 0.0
C179 C 0.00536 0.28811 0.59627 0.0
O180 O 0.02737 0.24432 0.65468 0.0
O181 O 0.04262 0.25331 0.62011 0.0
In182 In 0.50356 0.2514 0.3734 0.0
O183 O 0.52715 0.24871 0.33945 0.0
O184 O 0.54394 0.24395 0.37374 0.0
C185 C 0.46149 0.25435 0.34898 0.0
C186 C 0.50406 0.20731 0.39464 0.0
C187 C 0.50133 0.29498 0.39634 0.0
O188 O 0.48132 0.26102 0.33972 0.0
O189 O 0.46316 0.24586 0.37008 0.0
O190 O 0.48961 0.27669 0.40339 0.0
O191 O 0.51512 0.291 0.37866 0.0
C192 C 0.54628 0.24396 0.35107 0.0
O193 O 0.51144 0.22613 0.40543 0.0
O194 O 0.49572 0.211 0.37374 0.0
In195 In 0.5045 0.74924 0.12301 0.0
O196 O 0.49754 0.72516 0.09037 0.0
O197 O 0.50976 0.709 0.12316 0.0
C198 C 0.50601 0.79305 0.10342 0.0
C199 C 0.46285 0.74927 0.14715 0.0
C200 C 0.54945 0.74826 0.13978 0.0
O201 O 0.50982 0.77402 0.09129 0.0
O202 O 0.50056 0.78997 0.12539 0.0
O203 O 0.53175 0.74107 0.15232 0.0
O204 O 0.54442 0.75665 0.11925 0.0
C205 C 0.50369 0.70608 0.10148 0.0
O206 O 0.48305 0.74996 0.15777 0.0
O207 O 0.46373 0.74901 0.12436 0.0
In208 In 0.87859 -0.00186 0.74389 0.0
O209 O 0.90974 -0.00409 0.71691 0.0
O210 O 0.87411 -0.00037 0.70301 0.0
C211 C 0.90427 -0.00235 0.78556 0.0
C212 C 0.85633 0.04207 0.74414 0.0
C213 C 0.85879 0.95324 0.74507 0.0
O214 O 0.91288 0.00572 0.76602 0.0
O215 O 0.88262 0.9907 0.7843 0.0
O216 O 0.84605 0.97234 0.74486 0.0
O217 O 0.88129 0.95687 0.74395 0.0
C218 C 0.89643 -0.00168 0.69852 0.0
O219 O 0.84536 0.02281 0.74999 0.0
O220 O 0.87838 0.03917 0.7393 0.0
In221 In 0.75264 0.12624 0.49716 0.0
O222 O 0.77423 0.0915 0.49298 0.0
O223 O 0.79276 0.12382 0.50339 0.0
C224 C 0.70789 0.10765 0.49642 0.0
C225 C 0.75655 0.14212 0.54227 0.0
C226 C 0.75433 0.15396 0.45743 0.0
O227 O 0.72584 0.0959 0.48851 0.0
O228 O 0.7126 0.1286 0.5041 0.0
O229 O 0.74553 0.16157 0.477 0.0
O230 O 0.76212 0.1325 0.45795 0.0
C231 C 0.79393 0.10143 0.49899 0.0
O232 O 0.76095 0.15554 0.52424 0.0
O233 O 0.74998 0.12076 0.53741 0.0
In234 In 0.62664 0.00112 0.24668 0.0
O235 O 0.66085 0.98002 0.25398 0.0
O236 O 0.63273 0.96265 0.23409 0.0
C237 C 0.64684 0.04471 0.24916 0.0
C238 C 0.60556 0.00217 0.20358 0.0
C239 C 0.60263 0.0004 0.28858 0.0
O240 O 0.65922 0.02583 0.24531 0.0
O241 O 0.62442 0.04143 0.2515 0.0
O242 O 0.59265 0.0064 0.26901 0.0
O243 O 0.62416 0.99325 0.28668 0.0
C244 C 0.65368 0.9614 0.2429 0.0
O245 O 0.59744 0.98924 0.22063 0.0
O246 O 0.62418 0.01443 0.20835 0.0
In247 In 0.74553 0.87439 0.00445 0.0
O248 O 0.71996 0.90726 0.00312 0.0
O249 O 0.70515 0.87212 0.00953 0.0
C250 C 0.79077 0.89251 0.00496 0.0
C251 C 0.74417 0.85264 0.04788 0.0
C252 C 0.74456 0.85676 0.95922 0.0
O253 O 0.77268 0.90487 0.01179 0.0
O254 O 0.78594 0.87152 -0.00265 0.0
O255 O 0.75123 0.844 0.97707 0.0
O256 O 0.73816 0.87817 0.96424 0.0
C257 C 0.70126 0.89453 0.00711 0.0
O258 O 0.73761 0.84176 0.02887 0.0
O259 O 0.75226 0.87376 0.04473 0.0
In260 In 0.25283 0.62372 -0.00168 0.0
O261 O 0.26404 0.65153 0.02665 0.0
O262 O 0.24083 0.6224 0.03707 0.0
C263 C 0.25286 0.64891 0.95677 0.0
C264 C 0.29306 0.59697 0.00048 0.0
C265 C 0.20864 0.60465 -0.00257 0.0
O266 O 0.24779 0.65865 0.97678 0.0
O267 O 0.25917 0.62696 0.95801 0.0
O268 O 0.22726 0.59199 0.00157 0.0
O269 O 0.21245 0.62677 0.99304 0.0
C270 C 0.25238 0.641 0.04332 0.0
O271 O 0.27399 0.58931 0.99054 0.0
O272 O 0.29203 0.61835 0.00848 0.0
In273 In 0.12499 0.50078 0.74816 0.0
O274 O 0.1578 0.47916 0.76016 0.0
O275 O 0.13395 0.46352 0.73419 0.0
C276 C 0.14661 0.54398 0.75099 0.0
C277 C 0.10663 0.50118 0.70388 0.0
C278 C 0.09469 0.49883 0.78593 0.0
O279 O 0.15822 0.52489 0.74596 0.0
O280 O 0.12457 0.54089 0.75574 0.0
O281 O 0.09003 0.51083 0.76715 0.0
O282 O 0.11433 0.48722 0.7855 0.0
C283 C 0.15305 0.46147 0.74643 0.0
O284 O 0.09805 0.48784 0.72035 0.0
O285 O 0.12415 0.51438 0.70988 0.0
In286 In 0.24592 0.37516 0.50557 0.0
O287 O 0.23618 0.34475 0.5318 0.0
O288 O 0.25436 0.37584 0.54577 0.0
C289 C 0.24537 0.35479 0.46138 0.0
C290 C 0.2028 0.39719 0.50781 0.0
C291 C 0.29001 0.39521 0.50358 0.0
O292 O 0.25085 0.34269 0.48005 0.0
O293 O 0.2396 0.37653 0.46532 0.0
O294 O 0.27113 0.40776 0.50699 0.0
O295 O 0.28655 0.37265 0.50172 0.0
C296 C 0.24435 0.35574 0.55009 0.0
O297 O 0.22166 0.40839 0.50124 0.0
O298 O 0.20578 0.37517 0.51311 0.0
In299 In 0.37844 0.4974 0.24415 0.0
O300 O 0.41116 0.49562 0.21862 0.0
O301 O 0.37694 0.50442 0.20373 0.0
C302 C 0.40399 0.49602 0.28539 0.0
C303 C 0.35672 0.54151 0.24571 0.0
C304 C 0.35704 0.45308 0.24656 0.0
O305 O 0.41271 0.50442 0.26597 0.0
O306 O 0.38231 0.48891 0.28417 0.0
O307 O 0.34515 0.47259 0.24856 0.0
O308 O 0.3793 0.45597 0.24258 0.0
C309 C 0.39921 0.50166 0.20012 0.0
O310 O 0.34798 0.52387 0.23417 0.0
O311 O 0.37525 0.53646 0.25793 0.0
O312 O 0.03143 0.01721 0.99152 0.0
Mn313 Mn -0.00092 -0.00119 -0.00036 0.0
O314 O 0.06088 0.98917 0.9893 0.0
Mn315 Mn 0.04299 0.96491 0.00381 0.0
O316 O 0.96666 0.9797 0.00719 0.0
O317 O 0.98511 0.03232 0.00824 0.0
Mn318 Mn 0.95525 0.03107 -0.0028 0.0
O319 O 0.98769 0.0015 0.96338 0.0
O320 O 0.93827 0.00775 0.01348 0.0
O321 O 0.01029 -0.00417 0.03587 0.0
O322 O 0.03954 0.9674 0.03696 0.0
O323 O 0.95727 0.06119 0.00972 0.0
O324 O 0.95589 0.0268 0.96421 0.0
C325 C 0.01787 0.94416 0.98365 0.0
C326 C 0.05344 0.01094 0.9872 0.0
C327 C 0.9448 0.98573 0.01242 0.0
C328 C 0.97913 0.05436 0.01478 0.0
C329 C 0.97007 0.01261 0.95288 0.0
C330 C 0.02557 0.98248 0.04738 0.0
O331 O 0.01368 0.96605 0.99126 0.0
O332 O 0.03898 0.93557 0.98905 0.0
O333 O 0.28961 0.74706 0.23924 0.0
Mn334 Mn 0.25294 0.74644 0.24858 0.0
O335 O 0.29463 0.77762 0.21301 0.0
Mn336 Mn 0.26231 0.78006 0.20652 0.0
O337 O 0.21641 0.7458 0.25799 0.0
O338 O 0.25961 0.7128 0.263 0.0
Mn339 Mn 0.24304 0.7122 0.29024 0.0
O340 O 0.26037 0.76405 0.28107 0.0
O341 O 0.21077 0.71421 0.2828 0.0
O342 O 0.24522 0.72879 0.21632 0.0
O343 O 0.24965 0.7564 0.18685 0.0
O344 O 0.25751 0.68287 0.28956 0.0
O345 O 0.25428 0.7363 0.31017 0.0
C346 C 0.23941 0.80182 0.22707 0.0
C347 C 0.30302 0.76087 0.22626 0.0
C348 C 0.20268 0.73155 0.2701 0.0
C349 C 0.2657 0.69068 0.26901 0.0
C350 C 0.25953 0.75772 0.30338 0.0
C351 C 0.24432 0.73515 0.19405 0.0
O352 O 0.24595 0.78004 0.23395 0.0
O353 O 0.24843 0.80956 0.20684 0.0
O354 O 0.47189 0.98362 0.48757 0.0
Mn355 Mn 0.50164 0.00348 0.49816 0.0
O356 O 0.43995 0.00494 0.49995 0.0
Mn357 Mn 0.45646 0.03258 0.50852 0.0
O358 O 0.53271 0.0224 0.50811 0.0
O359 O 0.51787 0.97095 0.50324 0.0
Mn360 Mn 0.54728 0.97168 0.4915 0.0
O361 O 0.51308 0.00504 0.46246 0.0
O362 O 0.56319 -0.00474 0.50887 0.0
O363 O 0.49055 0.00218 0.53444 0.0
O364 O 0.46545 0.03376 0.5403 0.0
O365 O 0.54343 0.94079 0.50326 0.0
O366 O 0.54367 0.97809 0.45899 0.0
C367 C 0.47397 0.05258 0.4805 0.0
C368 C 0.44925 0.98631 0.49047 0.0
C369 C 0.5548 0.01651 0.5123 0.0
C370 C 0.52209 0.94854 0.50896 0.0
C371 C 0.52904 0.99357 0.45013 0.0
C372 C 0.47872 0.01669 0.54834 0.0
O373 O 0.48491 0.03654 0.49397 0.0
O374 O 0.45187 0.05683 0.48699 0.0
O375 O 0.28175 0.2575 0.7696 0.0
Mn376 Mn 0.24958 0.25175 0.75153 0.0
O377 O 0.31151 0.26083 0.74238 0.0
Mn378 Mn 0.29359 0.24624 0.71842 0.0
O379 O 0.21655 0.24629 0.73483 0.0
O380 O 0.2349 0.24345 0.78417 0.0
Mn381 Mn 0.21065 0.26346 0.78847 0.0
O382 O 0.24103 0.28864 0.75369 0.0
O383 O 0.18959 0.25783 0.7632 0.0
O384 O 0.25828 0.21521 0.74828 0.0
O385 O 0.28906 0.21321 0.7216 0.0
O386 O 0.21031 0.24447 0.81535 0.0
O387 O 0.22378 0.29389 0.78956 0.0
C388 C 0.26919 0.266 0.69679 0.0
C389 C 0.30364 0.26208 0.76389 0.0
C390 C 0.19483 0.25066 0.7419 0.0
C391 C 0.22888 0.23454 0.80507 0.0
C392 C 0.23221 0.30243 0.77006 0.0
C393 C 0.2736 0.20333 0.73552 0.0
O394 O 0.26442 0.25925 0.71877 0.0
O395 O 0.29046 0.26022 0.68883 0.0
O396 O 0.99314 0.96639 0.48214 0.0
Mn397 Mn 0.00143 -0.00218 0.49983 0.0
O398 O 0.00527 0.93639 0.50731 0.0
Mn399 Mn 0.01312 0.95519 0.53399 0.0
O400 O 0.00975 0.02937 0.51775 0.0
O401 O 0.00993 0.01297 0.46573 0.0
Mn402 Mn 0.98556 0.03357 0.46849 0.0
O403 O 0.96458 0.00763 0.50196 0.0
O404 O 0.989 0.05479 0.49422 0.0
O405 O 0.03794 0.98765 0.50018 0.0
O406 O 0.04399 0.96737 0.53469 0.0
O407 O -0.00187 0.04382 0.44129 0.0
O408 O 0.95759 0.01661 0.46475 0.0
C409 C 0.98415 0.97383 0.5511 0.0
C410 C -0.00349 0.94406 0.48737 0.0
C411 C 0.00145 0.05047 0.51305 0.0
C412 C 0.01224 0.02542 0.44534 0.0
C413 C 0.94942 0.01236 0.48534 0.0
C414 C 0.05199 0.97829 0.51614 0.0
O415 O -0.00544 0.98093 0.53142 0.0
O416 O 0.99352 0.95455 0.56068 0.0
O417 O 0.26659 0.78472 0.75574 0.0
Mn418 Mn 0.24883 0.75237 0.74782 0.0
O419 O 0.23768 0.81349 0.75851 0.0
Mn420 Mn 0.21261 0.79554 0.74589 0.0
O421 O 0.22892 0.72123 0.74 0.0
O422 O 0.28295 0.73786 0.73823 0.0
Mn423 Mn 0.27715 0.70898 0.75226 0.0
O424 O 0.25092 0.74228 0.78394 0.0
O425 O 0.25487 0.69106 0.73582 0.0
O426 O 0.24484 0.76443 0.71207 0.0
O427 O 0.21392 0.79123 0.71304 0.0
O428 O 0.30685 0.70482 0.74226 0.0
O429 O 0.27359 0.7091 0.78526 0.0
C430 C 0.19593 0.76817 0.76727 0.0
C431 C 0.25968 0.80665 0.75984 0.0
C432 C 0.23369 0.69932 0.73446 0.0
C433 C 0.30368 0.72653 0.73369 0.0
C434 C 0.26087 0.72502 0.79558 0.0
C435 C 0.23014 0.77936 0.70171 0.0
O436 O 0.21691 0.76648 0.75735 0.0
O437 O 0.18505 0.78857 0.76336 0.0
O438 O 0.48488 0.9904 0.96494 0.0
Mn439 Mn 0.50043 -0.00184 -0.00212 0.0
O440 O 0.51238 0.00254 0.93726 0.0
Mn441 Mn 0.53736 0.0107 0.95825 0.0
O442 O 0.51592 0.00612 0.03108 0.0
O443 O 0.46687 0.0034 0.01184 0.0
Mn444 Mn 0.46422 0.98451 0.03737 0.0
O445 O 0.50127 0.96181 0.00717 0.0
O446 O 0.48768 -0.00461 0.05859 0.0
O447 O 0.50042 0.03491 0.98811 0.0
O448 O 0.53658 0.0412 0.97132 0.0
O449 O 0.43523 0.00012 0.0356 0.0
O450 O 0.46741 0.95294 0.02709 0.0
C451 C 0.55396 0.98215 0.97781 0.0
C452 C 0.49171 0.99393 0.94305 0.0
C453 C 0.50842 0.00387 0.05297 0.0
C454 C 0.4451 0.01049 0.01705 0.0
C455 C 0.48686 0.94655 0.0168 0.0
C456 C 0.51668 0.0491 0.97953 0.0
O457 O 0.53337 0.99182 0.98337 0.0
O458 O 0.56465 0.99197 0.95944 0.0
O459 O 0.2857 0.2488 0.25976 0.0
Mn460 Mn 0.2491 0.25144 0.25155 0.0
O461 O 0.28613 0.23616 0.29789 0.0
Mn462 Mn 0.25442 0.22551 0.29876 0.0
O463 O 0.21227 0.25465 0.24145 0.0
O464 O 0.25909 0.28183 0.23327 0.0
Mn465 Mn 0.24254 0.28302 0.20627 0.0
O466 O 0.25441 0.22999 0.2209 0.0
O467 O 0.21064 0.28549 0.21499 0.0
O468 O 0.24329 0.27327 0.28253 0.0
O469 O 0.23442 0.24775 0.3129 0.0
O470 O 0.26208 0.30967 0.20522 0.0
O471 O 0.25023 0.25534 0.18906 0.0
C472 C 0.24198 0.19773 0.27471 0.0
C473 C 0.29672 0.24476 0.27956 0.0
C474 C 0.20038 0.26909 0.22745 0.0
C475 C 0.26953 0.30164 0.22592 0.0
C476 C 0.25408 0.23441 0.19809 0.0
C477 C 0.23546 0.26908 0.30415 0.0
O478 O 0.23912 0.22091 0.27063 0.0
O479 O 0.25173 0.19296 0.29543 0.0
O480 O 0.49492 0.46459 0.98213 0.0
Mn481 Mn 0.50203 0.49714 -0.00042 0.0
O482 O 0.50236 0.43572 0.0102 0.0
Mn483 Mn 0.51078 0.4554 0.03585 0.0
O484 O 0.50952 0.52877 0.0177 0.0
O485 O 0.51168 0.51257 0.96604 0.0
Mn486 Mn 0.48811 0.53461 0.96802 0.0
O487 O 0.465 0.50628 -0.00045 0.0
O488 O 0.49124 0.55571 -0.00621 0.0
O489 O 0.53857 0.48742 0.00212 0.0
O490 O 0.54241 0.46553 0.03616 0.0
O491 O 0.50216 0.5439 0.9412 0.0
O492 O 0.45874 0.52059 0.96346 0.0
C493 C 0.48374 0.4775 0.05205 0.0
C494 C 0.49659 0.44229 0.98881 0.0
C495 C 0.50213 0.55017 0.01317 0.0
C496 C 0.51533 0.52492 0.94579 0.0
C497 C 0.45037 0.51329 0.98319 0.0
C498 C 0.55152 0.47708 0.01846 0.0
O499 O 0.49403 0.48198 0.03161 0.0
O500 O 0.49129 0.45797 0.06265 0.0
O501 O 0.76821 0.28516 0.25338 0.0
Mn502 Mn 0.74846 0.25302 0.24847 0.0
O503 O 0.74021 0.31393 0.26001 0.0
Mn504 Mn 0.71469 0.29685 0.248 0.0
O505 O 0.72863 0.22126 0.24324 0.0
O506 O 0.77872 0.23608 0.23568 0.0
Mn507 Mn 0.77731 0.20645 0.24879 0.0
O508 O 0.75517 0.2437 0.2839 0.0
O509 O 0.75406 0.19284 0.22948 0.0
O510 O 0.74129 0.26342 0.21292 0.0
O511 O 0.7139 0.29347 0.21496 0.0
O512 O 0.80923 0.21299 0.24383 0.0
O513 O 0.76866 0.20566 0.28113 0.0
C514 C 0.69681 0.27284 0.27134 0.0
C515 C 0.76209 0.30708 0.25852 0.0
C516 C 0.73273 0.20067 0.23316 0.0
C517 C 0.80207 0.23415 0.23662 0.0
C518 C 0.7608 0.22341 0.29334 0.0
C519 C 0.72735 0.27916 0.20291 0.0
O520 O 0.71719 0.2679 0.2607 0.0
O521 O 0.68756 0.29384 0.26623 0.0
O522 O 0.98123 0.4909 0.46762 0.0
Mn523 Mn -0.00023 0.49819 0.49935 0.0
O524 O 0.00854 0.48901 0.43747 0.0
Mn525 Mn 0.03309 0.50387 0.45446 0.0
O526 O 0.01773 0.50548 0.5312 0.0
O527 O 0.96693 0.50669 0.51544 0.0
Mn528 Mn 0.96681 0.48397 0.53796 0.0
O529 O 0.0002 0.46127 0.50846 0.0
O530 O 0.99235 0.48947 0.55866 0.0
O531 O 0.00154 0.53451 0.48926 0.0
O532 O 0.02902 0.53675 0.45905 0.0
O533 O 0.93922 0.49917 0.54417 0.0
O534 O 0.96438 0.45425 0.52381 0.0
C535 C 0.05315 0.48294 0.47971 0.0
C536 C 0.98711 0.48683 0.44559 0.0
C537 C 0.01212 0.49983 0.55296 0.0
C538 C 0.94615 0.51198 0.52572 0.0
C539 C 0.9842 0.44642 0.51594 0.0
C540 C 0.01409 0.54641 0.47373 0.0
O541 O 0.03172 0.49132 0.48351 0.0
O542 O 0.06233 0.48862 0.45896 0.0
O543 O 0.78177 0.75947 0.27103 0.0
Mn544 Mn 0.75067 0.75165 0.25154 0.0
O545 O 0.81285 0.76049 0.24509 0.0
Mn546 Mn 0.79581 0.74595 0.22058 0.0
O547 O 0.71929 0.74361 0.23236 0.0
O548 O 0.73523 0.74367 0.28483 0.0
Mn549 Mn 0.70965 0.76262 0.28308 0.0
O550 O 0.74085 0.78828 0.2514 0.0
O551 O 0.68997 0.75487 0.25775 0.0
O552 O 0.76085 0.71541 0.25025 0.0
O553 O 0.79127 0.713 0.22333 0.0
O554 O 0.70435 0.74779 0.31094 0.0
O555 O 0.71959 0.79398 0.28474 0.0
C556 C 0.77294 0.76525 0.19734 0.0
C557 C 0.80408 0.7631 0.26612 0.0
C558 C 0.69691 0.7469 0.23743 0.0
C559 C 0.72541 0.73863 0.30593 0.0
C560 C 0.72992 0.80225 0.26619 0.0
C561 C 0.77607 0.70333 0.23761 0.0
O562 O 0.7667 0.75895 0.21916 0.0
O563 O 0.79477 0.7596 0.1909 0.0
O564 O 0.78756 0.24898 0.73876 0.0
Mn565 Mn 0.75138 0.24586 0.74816 0.0
O566 O 0.78917 0.27627 0.70835 0.0
Mn567 Mn 0.75622 0.27904 0.70358 0.0
O568 O 0.71496 0.24328 0.75701 0.0
O569 O 0.75933 0.21349 0.76345 0.0
Mn570 Mn 0.74186 0.21019 0.78979 0.0
O571 O 0.75771 0.26372 0.7806 0.0
O572 O 0.70998 0.21027 0.78012 0.0
O573 O 0.74536 0.22717 0.71635 0.0
O574 O 0.74227 0.25417 0.68613 0.0
O575 O 0.76023 0.18257 0.78816 0.0
O576 O 0.75096 0.23564 0.80951 0.0
C577 C 0.73559 0.29997 0.72818 0.0
C578 C 0.79922 0.26188 0.72336 0.0
C579 C 0.70154 0.22774 0.76774 0.0
C580 C 0.76851 0.19249 0.76862 0.0
C581 C 0.75676 0.25707 0.80286 0.0
C582 C 0.7412 0.23261 0.69428 0.0
O583 O 0.7434 0.27824 0.7327 0.0
O584 O 0.74113 0.30839 0.70705 0.0
O585 O 0.7863 0.75041 0.7615 0.0
Mn586 Mn 0.74966 0.75137 0.75081 0.0
O587 O 0.78899 0.72188 0.79047 0.0
Mn588 Mn 0.75625 0.71811 0.79476 0.0
O589 O 0.71268 0.75187 0.74072 0.0
O590 O 0.75753 0.78388 0.73478 0.0
Mn591 Mn 0.7383 0.78546 0.70939 0.0
O592 O 0.75763 0.73334 0.71854 0.0
O593 O 0.70668 0.78568 0.71946 0.0
O594 O 0.74161 0.77004 0.78311 0.0
O595 O 0.74203 0.74221 0.81286 0.0
O596 O 0.75539 0.81348 0.70812 0.0
O597 O 0.74719 0.76003 0.68944 0.0
C598 C 0.73484 0.6969 0.77151 0.0
C599 C 0.79847 0.73816 0.77718 0.0
C600 C 0.69852 0.76717 0.73029 0.0
C601 C 0.76589 0.80465 0.72713 0.0
C602 C 0.75516 0.73935 0.69618 0.0
C603 C 0.73874 0.76382 0.8054 0.0
O604 O 0.74245 0.71859 0.76618 0.0
O605 O 0.74176 0.68853 0.79225 0.0
O606 O 0.52927 0.5212 0.49197 0.0
Mn607 Mn 0.49889 0.49952 0.49877 0.0
O608 O 0.56115 0.4962 0.48818 0.0
Mn609 Mn 0.5458 0.46994 0.50188 0.0
O610 O 0.46861 0.47775 0.50545 0.0
O611 O 0.4815 0.53046 0.50801 0.0
Mn612 Mn 0.45117 0.5281 0.49892 0.0
O613 O 0.48683 0.50262 0.46298 0.0
O614 O 0.4382 0.50239 0.51584 0.0
O615 O 0.51019 0.49657 0.53475 0.0
O616 O 0.5424 0.47155 0.53511 0.0
O617 O 0.45381 0.55828 0.51267 0.0
O618 O 0.45174 0.52339 0.46577 0.0
C619 C 0.52244 0.44704 0.48198 0.0
C620 C 0.55176 0.51726 0.48768 0.0
C621 C 0.44703 0.4813 0.51319 0.0
C622 C 0.47607 0.55187 0.51601 0.0
C623 C 0.4674 0.51149 0.45359 0.0
C624 C 0.52691 0.4848 0.54586 0.0
O625 O 0.51644 0.4685 0.48961 0.0
O626 O 0.54447 0.44061 0.48672 0.0
O627 O 0.96869 0.48529 0.99216 0.0
Mn628 Mn 0.00156 0.50278 -0.00244 0.0
O629 O 0.94028 0.51448 -0.00298 0.0
Mn630 Mn 0.96032 0.53997 0.00523 0.0
O631 O 0.0341 0.52121 0.00375 0.0
O632 O 0.01708 0.47039 0.00774 0.0
Mn633 Mn 0.04604 0.47295 -0.00641 0.0
O634 O 0.00973 0.49946 0.96119 0.0
O635 O 0.0614 0.49335 0.01454 0.0
O636 O 0.99243 0.50666 0.03369 0.0
O637 O 0.96942 0.54003 0.0373 0.0
O638 O 0.03946 0.44082 -0.00555 0.0
O639 O 0.04716 0.48498 0.96256 0.0
C640 C 0.98357 0.55607 0.97899 0.0
C641 C 0.94659 0.49251 0.9932 0.0
C642 C 0.05475 0.51537 0.01269 0.0
C643 C 0.01915 0.44709 0.00427 0.0
C644 C 0.02998 0.49491 0.95122 0.0
C645 C 0.98107 0.52235 0.04645 0.0
O646 O 0.98692 0.53502 0.98872 0.0
O647 O 0.96416 0.56707 0.98609 0.0
C648 C 0.02364 0.17588 0.07938 0.0
C649 C 0.00174 0.18365 0.08963 0.0
C650 C 0.02594 0.15253 0.06925 0.0
C651 C 0.00563 0.13691 0.06848 0.0
C652 C 0.98367 0.1445 0.07945 0.0
C653 C 0.98215 0.16756 0.0902 0.0
C654 C 0.04993 0.14486 0.05873 0.0
C655 C 0.96134 0.12877 0.07872 0.0
C656 C -0.00483 0.09565 0.01493 0.0
C657 C -0.00469 0.0726 0.02567 0.0
C658 C -6e-05 0.11661 0.02838 0.0
C659 C 0.00592 0.11451 0.05315 0.0
C660 C 0.00893 0.09103 0.06341 0.0
C661 C 0.00329 0.07024 0.04957 0.0
C662 C -0.00427 0.14105 0.01667 0.0
C663 C 0.01647 0.08797 0.08941 0.0
H664 H 0.03903 0.18803 0.07938 0.0
H665 H 0.96527 0.17337 0.09831 0.0
H666 H 0.05433 0.12598 0.06419 0.0
H667 H 0.04896 0.14525 0.03873 0.0
H668 H 0.06485 0.157 0.06452 0.0
H669 H 0.94599 0.13688 0.08885 0.0
H670 H 0.95567 0.12605 0.05969 0.0
H671 H 0.96526 0.11062 0.08645 0.0
H672 H 0.98871 0.09749 -0.00348 0.0
H673 H 0.00306 0.0525 0.05804 0.0
H674 H 0.01143 0.15315 0.0196 0.0
H675 H 0.97974 0.14985 0.02507 0.0
H676 H 0.99247 0.13958 -0.00307 0.0
H677 H 0.03395 0.09732 0.09249 0.0
H678 H 0.01839 0.06857 0.09455 0.0
H679 H 0.00298 0.09651 0.10155 0.0
C680 C 0.06981 0.7642 0.31608 0.0
C681 C 0.0664 0.75017 0.33689 0.0
C682 C 0.09177 0.76338 0.30347 0.0
C683 C 0.11031 0.7477 0.31161 0.0
C684 C 0.10693 0.73352 0.33269 0.0
C685 C 0.08505 0.73517 0.34526 0.0
C686 C 0.0951 0.77911 0.28136 0.0
C687 C 0.12629 0.71646 0.34185 0.0
C688 C 0.15861 0.72435 0.26921 0.0
C689 C 0.17808 0.73911 0.27552 0.0
C690 C 0.13592 0.72785 0.27993 0.0
C691 C 0.13321 0.74587 0.29796 0.0
C692 C 0.15283 0.76116 0.30393 0.0
C693 C 0.175 0.75783 0.29226 0.0
C694 C 0.11526 0.7114 0.27301 0.0
C695 C 0.1509 0.77989 0.32373 0.0
H696 H 0.05539 0.77598 0.30982 0.0
H697 H 0.08229 0.72425 0.36135 0.0
H698 H 0.11124 0.79083 0.28357 0.0
H699 H 0.09834 0.76751 0.26532 0.0
H700 H 0.07916 0.79085 0.27782 0.0
H701 H 0.12059 0.70652 0.35838 0.0
H702 H 0.13092 0.703 0.3277 0.0
H703 H 0.143 0.72676 0.34596 0.0
H704 H 0.16141 0.70949 0.2567 0.0
H705 H 0.1905 0.76862 0.29761 0.0
H706 H 0.09899 0.7223 0.26856 0.0
H707 H 0.11052 0.69953 0.28851 0.0
H708 H 0.11979 0.69974 0.25729 0.0
H709 H 0.13573 0.79251 0.31997 0.0
H710 H 0.16778 0.79061 0.32578 0.0
H711 H 0.14695 0.77081 0.3412 0.0
C712 C 0.51864 0.83046 0.57424 0.0
C713 C 0.49742 0.81938 0.58241 0.0
C714 C 0.51799 0.85358 0.56347 0.0
C715 C 0.49545 0.86544 0.55996 0.0
C716 C 0.47395 0.85411 0.56797 0.0
C717 C 0.47525 0.8314 0.57953 0.0
C718 C 0.54145 0.8653 0.55581 0.0
C719 C 0.44956 0.8657 0.56382 0.0
C720 C 0.50243 0.93256 0.54578 0.0
C721 C 0.50516 0.93173 0.52067 0.0
C722 C 0.4971 0.91134 0.55895 0.0
C723 C 0.49456 0.88896 0.54656 0.0
C724 C 0.49453 0.88879 0.52099 0.0
C725 C 0.49986 0.91022 0.50837 0.0
C726 C 0.49694 0.91248 0.58617 0.0
C727 C 0.49162 0.86551 0.50696 0.0
H728 H 0.5358 0.82129 0.57681 0.0
H729 H 0.45882 0.82274 0.58584 0.0
H730 H 0.54169 0.86773 0.53592 0.0
H731 H 0.54304 0.88357 0.56406 0.0
H732 H 0.55747 0.85436 0.56112 0.0
H733 H 0.43462 0.85498 0.57194 0.0
H734 H 0.4492 0.88426 0.57152 0.0
H735 H 0.44621 0.8675 0.54413 0.0
H736 H 0.50704 0.94909 0.55531 0.0
H737 H 0.50238 0.90953 0.48895 0.0
H738 H 0.51441 0.90545 0.59314 0.0
H739 H 0.48236 0.90098 0.59379 0.0
H740 H 0.49453 0.93135 0.59278 0.0
H741 H 0.50849 0.85467 0.50837 0.0
H742 H 0.48797 0.86898 0.48752 0.0
H743 H 0.4767 0.85439 0.5145 0.0
C744 C 0.42908 0.24355 0.81818 0.0
C745 C 0.43288 0.2492 0.84248 0.0
C746 C 0.40604 0.24552 0.80806 0.0
C747 C 0.38657 0.25346 0.82267 0.0
C748 C 0.39015 0.25848 0.8474 0.0
C749 C 0.41337 0.25622 0.85707 0.0
C750 C 0.40266 0.23971 0.78161 0.0
C751 C 0.36968 0.26691 0.8634 0.0
C752 C 0.33753 0.28189 0.7851 0.0
C753 C 0.32153 0.26247 0.78303 0.0
C754 C 0.35797 0.27987 0.7998 0.0
C755 C 0.36274 0.25753 0.81158 0.0
C756 C 0.34597 0.23826 0.81031 0.0
C757 C 0.32522 0.24116 0.79627 0.0
C758 C 0.37531 0.30095 0.80135 0.0
C759 C 0.35092 0.21393 0.82196 0.0
H760 H 0.44417 0.23798 0.80697 0.0
H761 H 0.4163 0.26047 0.87595 0.0
H762 H 0.38782 0.22639 0.77929 0.0
H763 H 0.39746 0.2564 0.77164 0.0
H764 H 0.41933 0.23221 0.77326 0.0
H765 H 0.37547 0.26953 0.88242 0.0
H766 H 0.36234 0.28432 0.85646 0.0
H767 H 0.35471 0.25354 0.86306 0.0
H768 H 0.33452 0.29821 0.77453 0.0
H769 H 0.31287 0.22604 0.79406 0.0
H770 H 0.39197 0.29667 0.79102 0.0
H771 H 0.38069 0.30418 0.82038 0.0
H772 H 0.36736 0.31791 0.79392 0.0
H773 H 0.36672 0.20529 0.81307 0.0
H774 H 0.33527 0.2014 0.82049 0.0
H775 H 0.35551 0.21625 0.84131 0.0
C776 C 0.98672 0.83597 0.39259 0.0
C777 C -0.00096 0.81729 0.40462 0.0
C778 C 0.983 0.85838 0.40377 0.0
C779 C 0.99219 0.86208 0.42725 0.0
C780 C 0.00448 0.84321 0.43954 0.0
C781 C 0.00768 0.82093 0.42805 0.0
C782 C 0.96946 0.87811 0.39047 0.0
C783 C 0.01451 0.84666 0.46471 0.0
C784 C 0.00995 0.92312 0.45097 0.0
C785 C 0.99233 0.92634 0.46871 0.0
C786 C 0.00921 0.90286 0.43595 0.0
C787 C 0.99017 0.88597 0.4388 0.0
C788 C 0.9712 0.89043 0.45539 0.0
C789 C 0.97272 0.9106 0.47053 0.0
C790 C 0.02993 0.89843 0.41871 0.0
C791 C 0.95037 0.87303 0.45843 0.0
H792 H 0.97974 0.83299 0.37454 0.0
H793 H 0.01702 0.80638 0.43739 0.0
H794 H 0.95479 0.88552 0.40198 0.0
H795 H 0.98192 0.8933 0.38627 0.0
H796 H 0.96146 0.8715 0.3733 0.0
H797 H 0.02335 0.82999 0.47178 0.0
H798 H 0.02796 0.86158 0.46467 0.0
H799 H -0.00018 0.85191 0.47731 0.0
H800 H 0.02514 0.93554 0.45 0.0
H801 H 0.95923 0.9135 0.48447 0.0
H802 H 0.02308 0.8933 0.40061 0.0
H803 H 0.04106 0.88309 0.42547 0.0
H804 H 0.04177 0.9146 0.41679 0.0
H805 H 0.94286 0.86791 0.44058 0.0
H806 H 0.93565 0.88085 0.46965 0.0
H807 H 0.95685 0.85616 0.46728 0.0
C808 C 0.42994 0.76478 0.67764 0.0
C809 C 0.43164 0.75692 0.65361 0.0
C810 C 0.40747 0.76599 0.68949 0.0
C811 C 0.38615 0.75915 0.67706 0.0
C812 C 0.38761 0.75311 0.65223 0.0
C813 C 0.41031 0.75195 0.64085 0.0
C814 C 0.40686 0.77247 0.71596 0.0
C815 C 0.3654 0.74583 0.63818 0.0
C816 C 0.34304 0.72053 0.71323 0.0
C817 C 0.32381 0.73639 0.71867 0.0
C818 C 0.36305 0.72792 0.69983 0.0
C819 C 0.36425 0.75198 0.69118 0.0
C820 C 0.3449 0.76828 0.69616 0.0
C821 C 0.32481 0.76029 0.70996 0.0
C822 C 0.38303 0.70971 0.69507 0.0
C823 C 0.34557 0.79411 0.68719 0.0
H824 H 0.44628 0.7691 0.68751 0.0
H825 H 0.41139 0.74636 0.62211 0.0
H826 H 0.39128 0.78448 0.72001 0.0
H827 H 0.40466 0.75567 0.72682 0.0
H828 H 0.42376 0.78163 0.72178 0.0
H829 H 0.3687 0.74602 0.61838 0.0
H830 H 0.35996 0.7272 0.64351 0.0
H831 H 0.35005 0.75811 0.64233 0.0
H832 H 0.34267 0.7019 0.71949 0.0
H833 H 0.31012 0.77266 0.714 0.0
H834 H 0.4004 0.71651 0.70239 0.0
H835 H 0.38542 0.70712 0.67535 0.0
H836 H 0.37933 0.69171 0.70334 0.0
H837 H 0.36011 0.80414 0.69666 0.0
H838 H 0.32817 0.8037 0.69031 0.0
H839 H 0.34983 0.79457 0.6676 0.0
C840 C 0.4811 0.17199 0.91224 0.0
C841 C 0.50237 0.18556 0.91028 0.0
C842 C 0.4809 0.15002 0.9249 0.0
C843 C 0.5027 0.14125 0.93496 0.0
C844 C 0.52438 0.15468 0.93249 0.0
C845 C 0.52382 0.17706 0.92055 0.0
C846 C 0.45748 0.13616 0.92741 0.0
C847 C 0.54824 0.14503 0.94166 0.0
C848 C 0.50422 0.09255 0.98333 0.0
C849 C 0.50923 0.07223 0.9692 0.0
C850 C 0.50104 0.11528 0.97225 0.0
C851 C 0.50325 0.11728 0.94678 0.0
C852 C 0.5073 0.09644 0.93255 0.0
C853 C 0.50987 0.07411 0.94398 0.0
C854 C 0.4963 0.13729 0.98771 0.0
C855 C 0.51008 0.09778 0.90539 0.0
H856 H 0.46456 0.17876 0.90414 0.0
H857 H 0.54029 0.18753 0.91849 0.0
H858 H 0.45903 0.11824 0.91849 0.0
H859 H 0.4536 0.13273 0.94679 0.0
H860 H 0.44194 0.14605 0.91935 0.0
H861 H 0.56341 0.15776 0.93815 0.0
H862 H 0.54716 0.14154 0.96136 0.0
H863 H 0.55241 0.12748 0.93276 0.0
H864 H 0.50377 0.09084 0.00284 0.0
H865 H 0.51351 0.05808 0.93321 0.0
H866 H 0.48034 0.14735 0.9808 0.0
H867 H 0.512 0.14976 0.98673 0.0
H868 H 0.49312 0.13241 0.00693 0.0
H869 H 0.49298 0.10413 0.89707 0.0
H870 H 0.51485 0.07994 0.89734 0.0
H871 H 0.52435 0.11104 0.90048 0.0
C872 C 0.06823 0.27449 0.17472 0.0
C873 C 0.05963 0.25257 0.16535 0.0
C874 C 0.09047 0.2755 0.18692 0.0
C875 C 0.10392 0.25391 0.19064 0.0
C876 C 0.09476 0.23155 0.18202 0.0
C877 C 0.07291 0.23122 0.16908 0.0
C878 C 0.10017 0.29988 0.19467 0.0
C879 C 0.10837 0.2081 0.18588 0.0
C880 C 0.17158 0.26224 0.1944 0.0
C881 C 0.17572 0.2628 0.2194 0.0
C882 C 0.1485 0.25863 0.18492 0.0
C883 C 0.12881 0.25528 0.20084 0.0
C884 C 0.13294 0.25461 0.22618 0.0
C885 C 0.15652 0.25831 0.23526 0.0
C886 C 0.14516 0.25942 0.15782 0.0
C887 C 0.11234 0.25072 0.2436 0.0
H888 H 0.0581 0.29104 0.17154 0.0
H889 H 0.06618 0.21425 0.16187 0.0
H890 H 0.10489 0.29953 0.21413 0.0
H891 H 0.11699 0.30396 0.18451 0.0
H892 H 0.08704 0.3148 0.19144 0.0
H893 H 0.09799 0.19208 0.17957 0.0
H894 H 0.12583 0.20863 0.17604 0.0
H895 H 0.11259 0.20573 0.20534 0.0
H896 H 0.18657 0.26507 0.18205 0.0
H897 H 0.15974 0.25853 0.25456 0.0
H898 H 0.13342 0.27499 0.15288 0.0
H899 H 0.13608 0.2427 0.15145 0.0
H900 H 0.1626 0.26128 0.148 0.0
H901 H 0.09995 0.26655 0.24296 0.0
H902 H 0.11874 0.24833 0.26247 0.0
H903 H 0.10171 0.23452 0.23829 0.0
C904 C 0.10254 0.98682 0.16488 0.0
C905 C 0.09139 -0.00555 0.18632 0.0
C906 C 0.08949 0.98541 0.14314 0.0
C907 C 0.06465 0.9918 0.1428 0.0
C908 C 0.05328 -0.0006 0.16442 0.0
C909 C 0.06678 0.00066 0.1859 0.0
C910 C 0.10233 0.97721 0.12049 0.0
C911 C 0.02681 0.00604 0.16488 0.0
C912 C 0.03902 0.00872 0.08118 0.0
C913 C 0.02989 0.9864 0.07335 0.0
C914 C 0.04978 0.01096 0.10409 0.0
C915 C 0.05073 0.99056 0.11972 0.0
C916 C 0.03992 0.96845 0.11244 0.0
C917 C 0.03004 0.96652 0.08915 0.0
C918 C 0.06157 0.03467 0.1109 0.0
C919 C 0.04011 0.94637 0.12862 0.0
H920 H 0.12153 0.98194 0.16506 0.0
H921 H 0.05801 0.0065 0.20241 0.0
H922 H 0.09332 0.9609 0.11302 0.0
H923 H 0.10131 0.99163 0.10652 0.0
H924 H 0.12165 0.9728 0.1238 0.0
H925 H 0.02062 0.01154 0.18317 0.0
H926 H 0.02328 0.02118 0.15213 0.0
H927 H 0.01581 0.99037 0.15882 0.0
H928 H 0.03944 0.0239 0.06869 0.0
H929 H 0.02329 0.94917 0.0829 0.0
H930 H 0.08116 0.03177 0.11412 0.0
H931 H 0.05365 0.04161 0.12795 0.0
H932 H 0.05947 0.04872 0.09664 0.0
H933 H 0.05868 0.93878 0.1294 0.0
H934 H 0.02774 0.93199 0.12197 0.0
H935 H 0.03479 0.95128 0.14731 0.0
C936 C 0.24172 0.85409 0.40807 0.0
C937 C 0.25863 0.84842 0.42599 0.0
C938 C 0.24372 0.84391 0.38498 0.0
C939 C 0.26343 0.82835 0.37981 0.0
C940 C 0.28183 0.82474 0.39719 0.0
C941 C 0.27896 0.83448 0.4203 0.0
C942 C 0.22379 0.84817 0.36686 0.0
C943 C 0.30349 0.80887 0.39208 0.0
C944 C 0.25127 0.77122 0.34512 0.0
C945 C 0.26147 0.77627 0.32246 0.0
C946 C 0.25108 0.78847 0.36343 0.0
C947 C 0.26192 0.81131 0.35929 0.0
C948 C 0.2722 0.81677 0.33648 0.0
C949 C 0.27156 0.79919 0.3181 0.0
C950 C 0.23938 0.78206 0.38734 0.0
C951 C 0.2838 0.84103 0.33151 0.0
H952 H 0.22624 0.86532 0.41252 0.0
H953 H 0.29241 0.83079 0.43407 0.0
H954 H 0.23156 0.8547 0.34958 0.0
H955 H 0.21429 0.83085 0.3631 0.0
H956 H 0.21032 0.86165 0.37331 0.0
H957 H 0.31808 0.81154 0.40559 0.0
H958 H 0.29793 0.78953 0.39258 0.0
H959 H 0.31083 0.81267 0.3738 0.0
H960 H 0.24285 0.75379 0.34853 0.0
H961 H 0.2791 0.8033 0.30047 0.0
H962 H 0.22581 0.79601 0.39234 0.0
H963 H 0.25326 0.78163 0.40179 0.0
H964 H 0.23025 0.76413 0.38692 0.0
H965 H 0.26959 0.85518 0.3303 0.0
H966 H 0.29414 0.84104 0.31429 0.0
H967 H 0.29613 0.84616 0.34645 0.0
C968 C 0.43865 0.99066 0.6845 0.0
C969 C 0.41453 -0.00166 0.68518 0.0
C970 C 0.45168 0.99099 0.66279 0.0
C971 C 0.44032 -0.00049 0.64154 0.0
C972 C 0.4158 0.00685 0.64205 0.0
C973 C 0.40314 0.00603 0.6639 0.0
C974 C 0.47775 0.98289 0.66269 0.0
C975 C 0.40312 0.01618 0.61971 0.0
C976 C 0.47561 0.02871 0.59106 0.0
C977 C 0.47526 0.01036 0.57367 0.0
C978 C 0.46557 0.02484 0.61392 0.0
C979 C 0.45442 0.0023 0.61905 0.0
C980 C 0.4551 0.98331 0.60188 0.0
C981 C 0.46592 0.98749 0.5794 0.0
C982 C 0.46529 0.04544 0.63188 0.0
C983 C 0.44275 0.95932 0.60649 0.0
H984 H 0.44736 0.98451 0.70095 0.0
H985 H 0.38446 0.01197 0.66443 0.0
H986 H 0.48064 0.96891 0.64858 0.0
H987 H 0.48958 -0.00149 0.65817 0.0
H988 H 0.48346 0.97534 0.6804 0.0
H989 H 0.38376 0.0204 0.62309 0.0
H990 H 0.41215 0.03291 0.61314 0.0
H991 H 0.40427 0.00257 0.60502 0.0
H992 H 0.48258 0.04647 0.58628 0.0
H993 H 0.46515 0.97359 0.56557 0.0
H994 H 0.47155 0.03905 0.64983 0.0
H995 H 0.44653 0.05223 0.6341 0.0
H996 H 0.47689 0.06082 0.62603 0.0
H997 H 0.44911 0.95136 0.62377 0.0
H998 H 0.44604 0.94607 0.59174 0.0
H999 H 0.42296 0.96221 0.60816 0.0
C1000 C 0.24887 0.18089 0.9267 0.0
C1001 C 0.25758 0.15729 0.93025 0.0
C1002 C 0.24854 0.19137 0.90359 0.0
C1003 C 0.25758 0.17807 0.88361 0.0
C1004 C 0.26748 0.15469 0.8873 0.0
C1005 C 0.26716 0.14446 0.91057 0.0
C1006 C 0.23734 0.21619 0.90043 0.0
C1007 C 0.2776 0.14017 0.86651 0.0
C1008 C 0.22582 0.19577 0.82602 0.0
C1009 C 0.24082 0.2143 0.8174 0.0
C1010 C 0.23195 0.18249 0.84668 0.0
C1011 C 0.25391 0.18763 0.85872 0.0
C1012 C 0.27042 0.2044 0.84843 0.0
C1013 C 0.26361 0.21769 0.82777 0.0
C1014 C 0.21353 0.16519 0.85717 0.0
C1015 C 0.29417 0.20999 0.86055 0.0
H1016 H 0.24147 0.19087 0.94187 0.0
H1017 H 0.27416 0.12628 0.9133 0.0
H1018 H 0.24979 0.22835 0.89042 0.0
H1019 H 0.22053 0.21462 0.88962 0.0
H1020 H 0.23278 0.22481 0.91799 0.0
H1021 H 0.28664 0.12325 0.87269 0.0
H1022 H 0.26283 0.13522 0.85392 0.0
H1023 H 0.29078 0.15124 0.85617 0.0
H1024 H 0.20801 0.19351 0.81813 0.0
H1025 H 0.27493 0.23241 0.82137 0.0
H1026 H 0.20549 0.1733 0.87368 0.0
H1027 H 0.22216 0.14784 0.86252 0.0
H1028 H 0.19868 0.16124 0.84427 0.0
H1029 H 0.29084 0.21831 0.87848 0.0
H1030 H 0.3054 0.22267 0.84972 0.0
H1031 H 0.30446 0.19298 0.86364 0.0
C1032 C 0.10735 0.01218 0.33837 0.0
C1033 C 0.098 -0.00197 0.31957 0.0
C1034 C 0.09541 0.01362 0.36071 0.0
C1035 C 0.07384 0.00028 0.36443 0.0
C1036 C 0.06517 0.98481 0.34598 0.0
C1037 C 0.07725 0.98404 0.32368 0.0
C1038 C 0.10498 0.03065 0.37975 0.0
C1039 C 0.04229 0.97025 0.34921 0.0
C1040 C 0.04528 -0.00087 0.42739 0.0
C1041 C 0.0288 0.01834 0.42547 0.0
C1042 C 0.06011 0.99278 0.40761 0.0
C1043 C 0.05822 0.00588 0.3856 0.0
C1044 C 0.04135 0.02499 0.38357 0.0
C1045 C 0.02706 0.03101 0.40344 0.0
C1046 C 0.07782 0.97218 0.41024 0.0
C1047 C 0.03831 0.03923 0.36037 0.0
H1048 H 0.12344 0.02295 0.33528 0.0
H1049 H 0.07015 0.97281 0.30928 0.0
H1050 H 0.09255 0.04637 0.3816 0.0
H1051 H 0.10576 0.02141 0.39755 0.0
H1052 H 0.12327 0.03761 0.3752 0.0
H1053 H 0.04008 0.95638 0.33485 0.0
H1054 H 0.04215 0.96104 0.36705 0.0
H1055 H 0.02644 0.9826 0.34864 0.0
H1056 H 0.04656 0.98914 0.44421 0.0
H1057 H 0.01422 0.04574 0.40143 0.0
H1058 H 0.09653 0.9794 0.40979 0.0
H1059 H 0.07599 0.95926 0.39502 0.0
H1060 H 0.07508 0.9622 0.42741 0.0
H1061 H 0.05549 0.04848 0.35567 0.0
H1062 H 0.02383 0.05316 0.36164 0.0
H1063 H 0.03384 0.02682 0.34527 0.0
C1064 C 0.26926 0.83913 0.57723 0.0
C1065 C 0.25142 0.836 0.5596 0.0
C1066 C 0.26735 0.82755 0.59969 0.0
C1067 C 0.24681 0.81308 0.60463 0.0
C1068 C 0.2288 0.80982 0.5868 0.0
C1069 C 0.23152 0.82107 0.56428 0.0
C1070 C 0.28686 0.83141 0.61837 0.0
C1071 C 0.20607 0.79555 0.59195 0.0
C1072 C 0.24633 0.77196 0.65982 0.0
C1073 C 0.23394 0.78661 0.67636 0.0
C1074 C 0.25062 0.78026 0.63616 0.0
C1075 C 0.24269 0.80375 0.62933 0.0
C1076 C 0.23042 0.8186 0.64606 0.0
C1077 C 0.2261 0.8098 0.66923 0.0
C1078 C 0.26366 0.76407 0.61848 0.0
C1079 C 0.22212 0.844 0.63971 0.0
H1080 H 0.28464 0.85072 0.57347 0.0
H1081 H 0.21757 0.81904 0.5507 0.0
H1082 H 0.27924 0.84087 0.63433 0.0
H1083 H 0.2939 0.81365 0.62472 0.0
H1084 H 0.30217 0.84231 0.61124 0.0
H1085 H 0.19442 0.79371 0.57573 0.0
H1086 H 0.21073 0.77717 0.59872 0.0
H1087 H 0.19547 0.80473 0.60631 0.0
H1088 H 0.25256 0.75414 0.66533 0.0
H1089 H 0.21702 0.82157 0.68203 0.0
H1090 H 0.28031 0.77318 0.61195 0.0
H1091 H 0.25205 0.76078 0.60248 0.0
H1092 H 0.26868 0.74631 0.62658 0.0
H1093 H 0.23801 0.85556 0.6356 0.0
H1094 H 0.21174 0.85266 0.65458 0.0
H1095 H 0.2106 0.84368 0.62332 0.0
C1096 C 0.41788 0.01985 0.82761 0.0
C1097 C 0.40359 0.0012 0.81834 0.0
C1098 C 0.42933 0.01716 0.85001 0.0
C1099 C 0.42728 -0.00514 0.86261 0.0
C1100 C 0.4123 0.97623 0.85355 0.0
C1101 C 0.40025 0.97981 0.83162 0.0
C1102 C 0.44409 0.0379 0.85993 0.0
C1103 C 0.40974 0.95228 0.86658 0.0
C1104 C 0.48253 0.98325 0.90056 0.0
C1105 C 0.4743 0.98988 0.92352 0.0
C1106 C 0.4668 0.98314 0.88082 0.0
C1107 C 0.44249 0.99049 0.88411 0.0
C1108 C 0.43374 -0.00426 0.90756 0.0
C1109 C 0.44981 -0.0048 0.92708 0.0
C1110 C 0.4765 0.97633 0.85623 0.0
C1111 C 0.408 0.00345 0.91226 0.0
H1112 H 0.42009 0.03648 0.81734 0.0
H1113 H 0.38914 0.96541 0.82426 0.0
H1114 H 0.43881 0.04158 0.87893 0.0
H1115 H 0.46353 0.03292 0.85992 0.0
H1116 H 0.44178 0.0548 0.8492 0.0
H1117 H 0.39708 0.93979 0.85725 0.0
H1118 H 0.42767 0.94332 0.86796 0.0
H1119 H 0.40313 0.95537 0.88526 0.0
H1120 H 0.50145 0.97882 0.89792 0.0
H1121 H 0.44346 0.00042 0.94486 0.0
H1122 H 0.47756 0.99276 0.84466 0.0
H1123 H 0.46415 0.96332 0.84723 0.0
H1124 H 0.4948 0.96809 0.8573 0.0
H1125 H 0.40755 0.0233 0.91563 0.0
H1126 H 0.40116 -0.00571 0.92878 0.0
H1127 H 0.39556 -0.0007 0.89715 0.0
C1128 C 0.24961 0.18129 0.06975 0.0
C1129 C 0.25124 0.15612 0.06671 0.0
C1130 C 0.25036 0.19164 0.09288 0.0
C1131 C 0.25305 0.17644 0.1134 0.0
C1132 C 0.25467 0.15102 0.11043 0.0
C1133 C 0.25362 0.14115 0.08711 0.0
C1134 C 0.24829 0.21885 0.09537 0.0
C1135 C 0.25764 0.13431 0.13187 0.0
C1136 C 0.2766 0.20942 0.1686 0.0
C1137 C 0.25508 0.21442 0.18084 0.0
C1138 C 0.27642 0.19565 0.1473 0.0
C1139 C 0.25409 0.1873 0.13793 0.0
C1140 C 0.23248 0.19126 0.15107 0.0
C1141 C 0.23327 0.20479 0.17246 0.0
C1142 C 0.29988 0.19147 0.13401 0.0
C1143 C 0.20827 0.18296 0.1416 0.0
H1144 H 0.24773 0.19291 0.05404 0.0
H1145 H 0.25494 0.12166 0.08485 0.0
H1146 H 0.23288 0.22349 0.10735 0.0
H1147 H 0.26489 0.22619 0.10387 0.0
H1148 H 0.24563 0.22803 0.07768 0.0
H1149 H 0.25905 0.11496 0.12645 0.0
H1150 H 0.27412 0.1393 0.14213 0.0
H1151 H 0.24205 0.13634 0.14432 0.0
H1152 H 0.29332 0.21745 0.17493 0.0
H1153 H 0.21659 0.20929 0.18177 0.0
H1154 H 0.30011 0.20251 0.11723 0.0
H1155 H 0.30157 0.17215 0.12864 0.0
H1156 H 0.31583 0.19649 0.14509 0.0
H1157 H 0.20339 0.19388 0.12546 0.0
H1158 H 0.19369 0.185 0.15527 0.0
H1159 H 0.20912 0.1637 0.13591 0.0
C1160 C 0.16677 0.1024 0.9756 0.0
C1161 C 0.18408 0.09235 0.99118 0.0
C1162 C 0.14386 0.09171 0.97295 0.0
C1163 C 0.13787 0.07098 0.98686 0.0
C1164 C 0.15511 0.06122 0.00317 0.0
C1165 C 0.17816 0.07178 0.00481 0.0
C1166 C 0.1263 0.10223 0.95489 0.0
C1167 C 0.14929 0.03949 0.01877 0.0
C1168 C 0.0729 0.05054 -0.00296 0.0
C1169 C 0.07211 0.02958 0.98277 0.0
C1170 C 0.09386 0.06499 -0.00221 0.0
C1171 C 0.11418 0.05852 0.98353 0.0
C1172 C 0.11259 0.03852 0.96759 0.0
C1173 C 0.09169 0.02414 0.96763 0.0
C1174 C 0.09488 0.08595 0.01526 0.0
C1175 C 0.13355 0.03135 0.95161 0.0
H1176 H 0.17139 0.1183 0.96499 0.0
H1177 H 0.19144 0.06416 0.01706 0.0
H1178 H 0.12164 0.08833 0.94119 0.0
H1179 H 0.10926 0.10747 0.96407 0.0
H1180 H 0.13373 0.1184 0.94546 0.0
H1181 H 0.16392 0.03537 0.03189 0.0
H1182 H 0.13227 0.04268 0.02891 0.0
H1183 H 0.14646 0.02332 0.00722 0.0
H1184 H 0.05791 0.05457 0.00902 0.0
H1185 H 0.09108 0.00793 0.95657 0.0
H1186 H 0.10227 0.10237 0.00633 0.0
H1187 H 0.1072 0.08126 0.03038 0.0
H1188 H 0.07681 0.09036 0.02288 0.0
H1189 H 0.14054 0.04738 0.94168 0.0
H1190 H 0.12844 0.01718 0.93832 0.0
H1191 H 0.14852 0.02422 0.9629 0.0
C1192 C 0.66769 0.40168 0.00682 0.0
C1193 C 0.68988 0.41358 0.00396 0.0
C1194 C 0.64611 0.41484 0.00851 0.0
C1195 C 0.64681 0.44048 0.00708 0.0
C1196 C 0.66914 0.45258 0.00418 0.0
C1197 C 0.6905 0.43896 0.00275 0.0
C1198 C 0.6226 0.4013 0.01191 0.0
C1199 C 0.67043 0.4799 0.00268 0.0
C1200 C 0.58672 0.46946 0.99172 0.0
C1201 C 0.57764 0.47414 0.01486 0.0
C1202 C 0.60986 0.4595 0.98875 0.0
C1203 C 0.62414 0.45454 0.00941 0.0
C1204 C 0.61576 0.46113 0.03263 0.0
C1205 C 0.59254 0.47085 0.03506 0.0
C1206 C 0.61818 0.45248 0.96373 0.0
C1207 C 0.63042 0.45605 0.05509 0.0
H1208 H 0.66718 0.38204 0.00783 0.0
H1209 H 0.70765 0.44817 0.00048 0.0
H1210 H 0.6135 0.40743 0.0287 0.0
H1211 H 0.61021 0.40528 -0.00334 0.0
H1212 H 0.62529 0.38134 0.01301 0.0
H1213 H 0.68919 0.48651 -0.00017 0.0
H1214 H 0.65894 0.48654 0.98763 0.0
H1215 H 0.66327 0.488 0.01957 0.0
H1216 H 0.57507 0.4717 0.97612 0.0
H1217 H 0.58544 0.4745 0.05296 0.0
H1218 H 0.61805 0.43242 0.96203 0.0
H1219 H 0.63699 0.45866 0.96056 0.0
H1220 H 0.60634 0.4602 0.94943 0.0
H1221 H 0.63086 0.43621 0.0585 0.0
H1222 H 0.62271 0.4651 0.07129 0.0
H1223 H 0.64937 0.46217 0.05271 0.0
C1224 C 0.84081 0.42498 0.27184 0.0
C1225 C 0.84974 0.43233 0.24941 0.0
C1226 C 0.83097 0.40187 0.27483 0.0
C1227 C 0.82928 0.38634 0.25459 0.0
C1228 C 0.83906 0.39349 0.23201 0.0
C1229 C 0.84966 0.41644 0.22981 0.0
C1230 C 0.82089 0.39474 0.29919 0.0
C1231 C 0.83654 0.3778 0.20983 0.0
C1232 C 0.80475 0.32253 0.26297 0.0
C1233 C 0.78012 0.32668 0.25879 0.0
C1234 C 0.82133 0.34184 0.26161 0.0
C1235 C 0.81284 0.3654 0.2558 0.0
C1236 C 0.78804 0.36952 0.25157 0.0
C1237 C 0.77208 0.35021 0.25326 0.0
C1238 C 0.84774 0.33723 0.26659 0.0
C1239 C 0.77818 0.39436 0.24517 0.0
H1240 H 0.84139 0.43743 0.28699 0.0
H1241 H 0.85672 0.42245 0.21252 0.0
H1242 H 0.80085 0.39506 0.29853 0.0
H1243 H 0.82648 0.376 0.30395 0.0
H1244 H 0.82689 0.40724 0.31371 0.0
H1245 H 0.84744 0.38473 0.19443 0.0
H1246 H 0.8421 0.35888 0.21383 0.0
H1247 H 0.81728 0.37732 0.20421 0.0
H1248 H 0.81093 0.30444 0.26751 0.0
H1249 H 0.75313 0.35365 0.24963 0.0
H1250 H 0.85334 0.34741 0.28292 0.0
H1251 H 0.85894 0.34397 0.25136 0.0
H1252 H 0.85168 0.31766 0.26945 0.0
H1253 H 0.78111 0.40705 0.26041 0.0
H1254 H 0.75853 0.39401 0.24105 0.0
H1255 H 0.78782 0.40182 0.22923 0.0
C1256 C 0.84002 0.60611 0.49627 0.0
C1257 C 0.81922 0.59156 0.49708 0.0
C1258 C 0.86311 0.59586 0.49843 0.0
C1259 C 0.86539 0.57049 0.50144 0.0
C1260 C 0.84448 0.55564 0.50156 0.0
C1261 C 0.82161 0.56638 0.49934 0.0
C1262 C 0.88498 0.61223 0.49846 0.0
C1263 C 0.84619 0.52851 0.50515 0.0
C1264 C 0.92433 0.53585 0.49419 0.0
C1265 C 0.93043 0.53211 0.51838 0.0
C1266 C 0.90373 0.54959 0.48818 0.0
C1267 C 0.8893 0.55963 0.50685 0.0
C1268 C 0.89666 0.55742 0.53119 0.0
C1269 C 0.91729 0.54389 0.53659 0.0
C1270 C 0.89648 0.55204 0.46207 0.0
C1271 C 0.88173 0.56762 0.5517 0.0
H1272 H 0.83825 0.62562 0.49455 0.0
H1273 H 0.80558 0.55511 0.50001 0.0
H1274 H 0.89366 0.61183 0.51651 0.0
H1275 H 0.89855 0.60567 0.48522 0.0
H1276 H 0.88027 0.63134 0.49407 0.0
H1277 H 0.82841 0.5194 0.50306 0.0
H1278 H 0.85908 0.52052 0.49203 0.0
H1279 H 0.85318 0.52455 0.52353 0.0
H1280 H 0.93444 0.52655 0.48021 0.0
H1281 H 0.92221 0.54106 0.55535 0.0
H1282 H 0.89537 0.57151 0.45706 0.0
H1283 H 0.8783 0.54406 0.45921 0.0
H1284 H 0.90947 0.54287 0.44988 0.0
H1285 H 0.8788 0.58735 0.54908 0.0
H1286 H 0.89038 0.56473 0.56959 0.0
H1287 H 0.86368 0.55886 0.55197 0.0
C1288 C 0.15008 0.08781 0.24517 0.0
C1289 C 0.16407 0.06659 0.24694 0.0
C1290 C 0.16084 0.11096 0.24585 0.0
C1291 C 0.18624 0.11304 0.24853 0.0
C1292 C 0.20048 0.09164 0.24962 0.0
C1293 C 0.18926 0.06875 0.24869 0.0
C1294 C 0.14493 0.13319 0.24463 0.0
C1295 C 0.2275 0.09289 0.25319 0.0
C1296 C 0.22214 0.17233 0.2419 0.0
C1297 C 0.22447 0.17916 0.26616 0.0
C1298 C 0.20856 0.1515 0.23554 0.0
C1299 C 0.19758 0.13713 0.25391 0.0
C1300 C 0.19895 0.14486 0.27819 0.0
C1301 C 0.21194 0.16583 0.28386 0.0
C1302 C 0.20678 0.14428 0.20935 0.0
C1303 C 0.18777 0.13032 0.29854 0.0
H1304 H 0.1306 0.08635 0.24374 0.0
H1305 H 0.20023 0.05249 0.25009 0.0
H1306 H 0.14485 0.14249 0.26238 0.0
H1307 H 0.15211 0.14625 0.23114 0.0
H1308 H 0.12597 0.12864 0.23983 0.0
H1309 H 0.23624 0.07479 0.25176 0.0
H1310 H 0.23577 0.1052 0.23965 0.0
H1311 H 0.23147 0.10046 0.27133 0.0
H1312 H 0.23167 0.18255 0.22812 0.0
H1313 H 0.21318 0.17127 0.30264 0.0
H1314 H 0.18767 0.14058 0.20451 0.0
H1315 H 0.21711 0.1273 0.20632 0.0
H1316 H 0.21397 0.15853 0.1971 0.0
H1317 H 0.16792 0.12927 0.2961 0.0
H1318 H 0.19149 0.1383 0.31657 0.0
H1319 H 0.19486 0.11147 0.29838 0.0
C1320 C 0.33903 0.89456 0.47887 0.0
C1321 C 0.32061 0.90718 0.49091 0.0
C1322 C 0.36189 0.90487 0.47582 0.0
C1323 C 0.3664 0.92815 0.48538 0.0
C1324 C 0.3478 0.94109 0.49739 0.0
C1325 C 0.32497 0.93045 0.49989 0.0
C1326 C 0.38122 0.89084 0.46255 0.0
C1327 C 0.35208 0.96602 0.50785 0.0
C1328 C 0.42882 0.94895 0.50257 0.0
C1329 C 0.43289 0.96656 0.48487 0.0
C1330 C 0.4077 0.93506 0.50218 0.0
C1331 C 0.39072 0.93889 0.48342 0.0
C1332 C 0.39599 0.9551 0.46428 0.0
C1333 C 0.41703 0.96908 0.46543 0.0
C1334 C 0.4025 0.91817 0.52306 0.0
C1335 C 0.37849 0.95918 0.44375 0.0
H1336 H 0.33555 0.87662 0.47167 0.0
H1337 H 0.31066 0.9402 0.50911 0.0
H1338 H 0.3887 0.90196 0.44758 0.0
H1339 H 0.39637 0.88665 0.475 0.0
H1340 H 0.3743 0.87354 0.45497 0.0
H1341 H 0.3357 0.97353 0.51675 0.0
H1342 H 0.36692 0.96524 0.52131 0.0
H1343 H 0.3578 0.97873 0.49337 0.0
H1344 H 0.44107 0.94759 0.51782 0.0
H1345 H 0.42026 0.98312 0.45205 0.0
H1346 H 0.39603 0.90035 0.51644 0.0
H1347 H 0.38791 0.92604 0.53441 0.0
H1348 H 0.41866 0.91521 0.53461 0.0
H1349 H 0.37225 0.94159 0.43632 0.0
H1350 H 0.38666 0.97003 0.42891 0.0
H1351 H 0.36232 0.96897 0.4505 0.0
C1352 C 0.81869 0.56712 0.2584 0.0
C1353 C 0.84154 0.56596 0.24763 0.0
C1354 C 0.80589 0.58899 0.2591 0.0
C1355 C 0.81605 0.60981 0.24821 0.0
C1356 C 0.83925 0.60875 0.23743 0.0
C1357 C 0.85191 0.58677 0.23755 0.0
C1358 C 0.78139 0.58976 0.27113 0.0
C1359 C 0.85052 0.63066 0.22545 0.0
C1360 C 0.77675 0.66059 0.22494 0.0
C1361 C 0.78003 0.6779 0.24301 0.0
C1362 C 0.78731 0.63762 0.22711 0.0
C1363 C 0.80209 0.63257 0.24737 0.0
C1364 C 0.80467 0.64983 0.26606 0.0
C1365 C 0.79314 0.67227 0.26382 0.0
C1366 C 0.78401 0.6194 0.20703 0.0
C1367 C 0.82096 0.64534 0.28749 0.0
H1368 H 0.81093 0.55097 0.26649 0.0
H1369 H 0.86964 0.5857 0.22924 0.0
H1370 H 0.78086 0.6044 0.28485 0.0
H1371 H 0.76731 0.59398 0.25749 0.0
H1372 H 0.77675 0.57231 0.28006 0.0
H1373 H 0.869 0.62688 0.21856 0.0
H1374 H 0.8391 0.63668 0.21009 0.0
H1375 H 0.85148 0.64596 0.23841 0.0
H1376 H 0.767 0.66545 0.20864 0.0
H1377 H 0.79611 0.6862 0.27733 0.0
H1378 H 0.77843 0.60159 0.21455 0.0
H1379 H 0.80144 0.61662 0.19749 0.0
H1380 H 0.77029 0.62539 0.19364 0.0
H1381 H 0.81525 0.62867 0.29717 0.0
H1382 H 0.8209 0.66075 0.30041 0.0
H1383 H 0.83979 0.6424 0.28122 0.0
C1384 C 0.66182 0.41537 0.77325 0.0
C1385 C 0.66299 0.42931 0.75206 0.0
C1386 C 0.67234 0.39216 0.77441 0.0
C1387 C 0.68355 0.38237 0.75361 0.0
C1388 C 0.68408 0.39615 0.73192 0.0
C1389 C 0.67417 0.41964 0.73154 0.0
C1390 C 0.67194 0.37836 0.79798 0.0
C1391 C 0.69517 0.3861 0.70908 0.0
C1392 C 0.73382 0.3358 0.75404 0.0
C1393 C 0.72192 0.31546 0.74478 0.0
C1394 C 0.72112 0.35728 0.75902 0.0
C1395 C 0.69593 0.35831 0.7546 0.0
C1396 C 0.68346 0.33688 0.74791 0.0
C1397 C 0.69669 0.31564 0.74302 0.0
C1398 C 0.73515 0.37956 0.76632 0.0
C1399 C 0.65658 0.33704 0.74332 0.0
H1400 H 0.65313 0.42289 0.78914 0.0
H1401 H 0.6747 0.43028 0.71505 0.0
H1402 H 0.664 0.36009 0.79533 0.0
H1403 H 0.69071 0.37569 0.80453 0.0
H1404 H 0.66148 0.38798 0.81218 0.0
H1405 H 0.69284 0.39852 0.69342 0.0
H1406 H 0.71478 0.3829 0.71185 0.0
H1407 H 0.68683 0.36838 0.70459 0.0
H1408 H 0.75341 0.33579 0.75488 0.0
H1409 H 0.68759 0.30003 0.73534 0.0
H1410 H 0.72562 0.38954 0.78087 0.0
H1411 H 0.73672 0.39197 0.75058 0.0
H1412 H 0.75366 0.37495 0.77261 0.0
H1413 H 0.64689 0.34657 0.75806 0.0
H1414 H 0.64918 0.31839 0.74165 0.0
H1415 H 0.65282 0.34701 0.72629 0.0
C1416 C 0.97602 0.82581 0.91369 0.0
C1417 C -0.0008 0.81639 0.90932 0.0
C1418 C 0.97289 0.84914 0.92358 0.0
C1419 C 0.99341 0.86294 0.93019 0.0
C1420 C 0.01686 0.8535 0.92558 0.0
C1421 C 0.01944 0.83056 0.91478 0.0
C1422 C 0.94766 0.85906 0.9269 0.0
C1423 C 0.03932 0.8673 0.93273 0.0
C1424 C -0.00151 0.92976 0.94598 0.0
C1425 C 0.00066 0.92825 0.97113 0.0
C1426 C 0.99323 0.90893 0.9322 0.0
C1427 C 0.99081 0.88614 0.94396 0.0
C1428 C 0.99014 0.88531 0.96953 0.0
C1429 C -0.0052 0.90647 0.98276 0.0
C1430 C 0.99287 0.91099 0.90504 0.0
C1431 C 0.98777 0.86157 0.98299 0.0
H1432 H 0.96032 0.81512 0.90887 0.0
H1433 H 0.03734 0.8234 0.91119 0.0
H1434 H 0.94385 0.86187 0.94636 0.0
H1435 H 0.9461 0.87702 0.91792 0.0
H1436 H 0.93367 0.84678 0.91937 0.0
H1437 H 0.05617 0.85749 0.92783 0.0
H1438 H 0.03954 0.88532 0.92379 0.0
H1439 H 0.03929 0.87044 0.95253 0.0
H1440 H 0.00336 0.94651 0.9369 0.0
H1441 H -0.00322 0.90528 0.00223 0.0
H1442 H 0.97979 0.89807 0.897 0.0
H1443 H 0.01107 0.90664 0.89781 0.0
H1444 H 0.98813 0.92969 0.8992 0.0
H1445 H 0.97243 0.85082 0.97589 0.0
H1446 H 0.98505 0.86431 0.00269 0.0
H1447 H 0.00445 0.85068 0.98034 0.0
C1448 C 0.93809 0.24673 0.68676 0.0
C1449 C 0.93796 0.2499 0.66166 0.0
C1450 C 0.9164 0.24594 0.6998 0.0
C1451 C 0.89425 0.24873 0.68739 0.0
C1452 C 0.894 0.25135 0.66195 0.0
C1453 C 0.91593 0.25182 0.64936 0.0
C1454 C 0.91717 0.24278 0.72688 0.0
C1455 C 0.87067 0.25451 0.64811 0.0
C1456 C 0.83361 0.23445 0.7156 0.0
C1457 C 0.8251 0.25791 0.72023 0.0
C1458 C 0.85668 0.23091 0.70575 0.0
C1459 C 0.87147 0.25135 0.70109 0.0
C1460 C 0.86354 0.27488 0.70756 0.0
C1461 C 0.84024 0.27789 0.71682 0.0
C1462 C 0.86432 0.20562 0.69856 0.0
C1463 C 0.87894 0.29706 0.70306 0.0
H1464 H 0.95514 0.24486 0.69622 0.0
H1465 H 0.91582 0.25412 0.6299 0.0
H1466 H 0.91025 0.25943 0.73577 0.0
H1467 H 0.90526 0.22758 0.73245 0.0
H1468 H 0.93575 0.23912 0.73357 0.0
H1469 H 0.87351 0.25404 0.62824 0.0
H1470 H 0.85761 0.24008 0.65309 0.0
H1471 H 0.86231 0.27217 0.65287 0.0
H1472 H 0.82153 0.2191 0.71782 0.0
H1473 H 0.83337 0.296 0.72029 0.0
H1474 H 0.88317 0.20195 0.70434 0.0
H1475 H 0.86378 0.20401 0.67858 0.0
H1476 H 0.85228 0.19151 0.70638 0.0
H1477 H 0.89737 0.29432 0.71047 0.0
H1478 H 0.87105 0.31365 0.71129 0.0
H1479 H 0.88079 0.30011 0.68333 0.0
C1480 C 0.52146 0.17736 0.42397 0.0
C1481 C 0.50519 0.18274 0.4053 0.0
C1482 C 0.52203 0.15415 0.43455 0.0
C1483 C 0.50533 0.1363 0.42688 0.0
C1484 C 0.48973 0.14134 0.40722 0.0
C1485 C 0.49006 0.16441 0.39649 0.0
C1486 C 0.53984 0.14894 0.45453 0.0
C1487 C 0.4716 0.12286 0.39851 0.0
C1488 C 0.50289 0.07076 0.44991 0.0
C1489 C 0.48648 0.0733 0.46898 0.0
C1490 C 0.51027 0.09129 0.43643 0.0
C1491 C 0.50075 0.11455 0.4422 0.0
C1492 C 0.48492 0.11707 0.46207 0.0
C1493 C 0.47855 0.09662 0.47544 0.0
C1494 C 0.5279 0.08788 0.41596 0.0
C1495 C 0.47334 0.14114 0.46838 0.0
H1496 H 0.53366 0.19131 0.43037 0.0
H1497 H 0.4777 0.16841 0.38183 0.0
H1498 H 0.53019 0.14774 0.47207 0.0
H1499 H 0.54879 0.13117 0.45141 0.0
H1500 H 0.55388 0.16325 0.45595 0.0
H1501 H 0.46199 0.12895 0.38195 0.0
H1502 H 0.48074 0.10537 0.39464 0.0
H1503 H 0.45801 0.11947 0.41289 0.0
H1504 H 0.50901 0.05281 0.44485 0.0
H1505 H 0.46612 0.0988 0.49045 0.0
H1506 H 0.5465 0.08971 0.42319 0.0
H1507 H 0.52559 0.10157 0.40144 0.0
H1508 H 0.52604 0.06955 0.40791 0.0
H1509 H 0.48742 0.15465 0.47302 0.0
H1510 H 0.46063 0.1397 0.48387 0.0
H1511 H 0.46321 0.14828 0.45259 0.0
C1512 C 0.58229 0.72337 0.15665 0.0
C1513 C 0.5743 0.74573 0.14787 0.0
C1514 C 0.60565 0.72091 0.16588 0.0
C1515 C 0.62064 0.74163 0.16733 0.0
C1516 C 0.61305 0.76393 0.15704 0.0
C1517 C 0.58994 0.76557 0.14693 0.0
C1518 C 0.61338 0.6967 0.17608 0.0
C1519 C 0.62818 0.78664 0.15903 0.0
C1520 C 0.65376 0.74629 0.22614 0.0
C1521 C 0.67795 0.74309 0.21915 0.0
C1522 C 0.63518 0.74603 0.2093 0.0
C1523 C 0.64071 0.74157 0.1848 0.0
C1524 C 0.6649 0.73736 0.17752 0.0
C1525 C 0.68342 0.73838 0.19487 0.0
C1526 C 0.60964 0.75114 0.21781 0.0
C1527 C 0.67111 0.73197 0.15154 0.0
H1528 H 0.57012 0.70795 0.15667 0.0
H1529 H 0.58351 0.78274 0.13978 0.0
H1530 H 0.6327 0.69309 0.17202 0.0
H1531 H 0.61126 0.69689 0.19602 0.0
H1532 H 0.60228 0.68161 0.1688 0.0
H1533 H 0.62117 0.80153 0.14742 0.0
H1534 H 0.62812 0.79297 0.17805 0.0
H1535 H 0.64723 0.78293 0.15399 0.0
H1536 H 0.64922 0.74976 0.24487 0.0
H1537 H 0.70208 0.73595 0.18937 0.0
H1538 H 0.59799 0.73514 0.21451 0.0
H1539 H 0.60188 0.76662 0.20756 0.0
H1540 H 0.60877 0.75554 0.23737 0.0
H1541 H 0.66137 0.71544 0.14557 0.0
H1542 H 0.69082 0.72916 0.14884 0.0
H1543 H 0.66509 0.74707 0.13972 0.0
C1544 C 0.02623 0.16638 0.59485 0.0
C1545 C 0.0038 0.17763 0.59789 0.0
C1546 C 0.02776 0.14347 0.58417 0.0
C1547 C 0.00624 0.13148 0.57736 0.0
C1548 C 0.98344 0.14204 0.58239 0.0
C1549 C 0.98251 0.16541 0.59214 0.0
C1550 C 0.05237 0.13312 0.57836 0.0
C1551 C 0.96011 0.12932 0.57612 0.0
C1552 C 0.00557 0.09435 0.52055 0.0
C1553 C 0.00566 0.07066 0.5297 0.0
C1554 C 0.00669 0.11425 0.53597 0.0
C1555 C 0.00749 0.1103 0.5612 0.0
C1556 C 0.00835 0.08642 0.57061 0.0
C1557 C 0.00782 0.06674 0.5546 0.0
C1558 C 0.00608 0.13952 0.52525 0.0
C1559 C 0.00877 0.08171 0.59747 0.0
H1560 H 0.04261 0.1761 0.59953 0.0
H1561 H 0.96521 0.17421 0.59509 0.0
H1562 H 0.05334 0.11366 0.58336 0.0
H1563 H 0.05557 0.13442 0.5586 0.0
H1564 H 0.06709 0.14301 0.58777 0.0
H1565 H 0.94422 0.13813 0.58473 0.0
H1566 H 0.95748 0.12963 0.55626 0.0
H1567 H 0.96078 0.11003 0.58186 0.0
H1568 H 0.00424 0.09736 0.50122 0.0
H1569 H 0.00802 0.04837 0.56161 0.0
H1570 H 0.02114 0.15058 0.53252 0.0
H1571 H 0.98894 0.14866 0.53033 0.0
H1572 H 0.00741 0.13934 0.50523 0.0
H1573 H 0.0244 0.09104 0.60584 0.0
H1574 H 0.00983 0.06205 0.60179 0.0
H1575 H 0.99217 0.08926 0.60588 0.0
C1576 C 0.58831 0.22729 0.35194 0.0
C1577 C 0.56983 0.23931 0.33931 0.0
C1578 C 0.61155 0.22487 0.34196 0.0
C1579 C 0.6166 0.23552 0.31924 0.0
C1580 C 0.59755 0.24632 0.30579 0.0
C1581 C 0.5743 0.24776 0.31589 0.0
C1582 C 0.63101 0.21231 0.35643 0.0
C1583 C 0.6021 0.25827 0.28164 0.0
C1584 C 0.67474 0.26933 0.30912 0.0
C1585 C 0.68404 0.25742 0.28884 0.0
C1586 C 0.65354 0.26138 0.3203 0.0
C1587 C 0.64208 0.2401 0.31179 0.0
C1588 C 0.65351 0.22592 0.29368 0.0
C1589 C 0.67431 0.23502 0.28199 0.0
C1590 C 0.64186 0.2776 0.33899 0.0
C1591 C 0.64268 0.20225 0.28541 0.0
H1592 H 0.58476 0.22022 0.36988 0.0
H1593 H 0.55998 0.25683 0.30601 0.0
H1594 H 0.6432 0.20173 0.34449 0.0
H1595 H 0.64216 0.22604 0.36588 0.0
H1596 H 0.62319 0.19998 0.37027 0.0
H1597 H 0.58509 0.26422 0.27275 0.0
H1598 H 0.61383 0.2744 0.28418 0.0
H1599 H 0.61171 0.24569 0.26933 0.0
H1600 H 0.68238 0.28668 0.31433 0.0
H1601 H 0.68142 0.22587 0.2662 0.0
H1602 H 0.63712 0.26713 0.35541 0.0
H1603 H 0.62484 0.28527 0.33157 0.0
H1604 H 0.65374 0.2929 0.34436 0.0
H1605 H 0.63954 0.19022 0.3012 0.0
H1606 H 0.65449 0.19272 0.27226 0.0
H1607 H 0.62488 0.20553 0.2768 0.0
C1608 C 0.49303 0.83588 0.09961 0.0
C1609 C 0.50853 0.8171 0.09272 0.0
C1610 C 0.49355 0.85809 0.08736 0.0
C1611 C 0.5103 0.86139 0.06827 0.0
C1612 C 0.52744 0.8432 0.06284 0.0
C1613 C 0.52608 0.82098 0.07493 0.0
C1614 C 0.47518 0.87733 0.09377 0.0
C1615 C 0.54623 0.8467 0.04335 0.0
C1616 C 0.48547 0.90187 0.01944 0.0
C1617 C 0.49701 0.92364 0.02482 0.0
C1618 C 0.49107 0.88088 0.03252 0.0
C1619 C 0.50767 0.88234 0.05196 0.0
C1620 C 0.52016 0.90416 0.05667 0.0
C1621 C 0.51493 0.92456 0.04263 0.0
C1622 C 0.47804 0.85758 0.02659 0.0
C1623 C 0.53726 0.90673 0.07777 0.0
H1624 H 0.47968 0.83275 0.11364 0.0
H1625 H 0.53847 0.80649 0.07021 0.0
H1626 H 0.484 0.89531 0.09544 0.0
H1627 H 0.46156 0.87873 0.07913 0.0
H1628 H 0.4656 0.87316 0.11093 0.0
H1629 H 0.55998 0.83199 0.0434 0.0
H1630 H 0.53726 0.84704 0.02542 0.0
H1631 H 0.55558 0.86435 0.04564 0.0
H1632 H 0.47138 0.90156 0.00584 0.0
H1633 H 0.52331 0.9418 0.04704 0.0
H1634 H 0.46536 0.85295 0.04144 0.0
H1635 H 0.49115 0.84241 0.02495 0.0
H1636 H 0.46761 0.85895 0.0095 0.0
H1637 H 0.52659 0.9087 0.09464 0.0
H1638 H 0.54899 0.92298 0.07589 0.0
H1639 H 0.54887 0.89044 0.07982 0.0
C1640 C 0.92894 0.77736 0.82785 0.0
C1641 C 0.94286 0.75611 0.82812 0.0
C1642 C 0.90641 0.77802 0.81617 0.0
C1643 C 0.89719 0.75657 0.80556 0.0
C1644 C 0.91153 0.73521 0.80541 0.0
C1645 C 0.93445 0.7354 0.81629 0.0
C1646 C 0.89195 0.80128 0.81639 0.0
C1647 C 0.90194 0.71167 0.79536 0.0
C1648 C 0.83031 0.74352 0.80795 0.0
C1649 C 0.82348 0.74524 0.78358 0.0
C1650 C 0.8539 0.74843 0.8154 0.0
C1651 C 0.87139 0.75516 0.79804 0.0
C1652 C 0.86443 0.75829 0.77354 0.0
C1653 C 0.84036 0.75343 0.76655 0.0
C1654 C 0.86024 0.74525 0.84179 0.0
C1655 C 0.88257 0.76605 0.75473 0.0
H1656 H 0.93555 0.79335 0.83711 0.0
H1657 H 0.94512 0.7189 0.81692 0.0
H1658 H 0.88379 0.80473 0.7984 0.0
H1659 H 0.87696 0.79973 0.82961 0.0
H1660 H 0.90323 0.81713 0.82147 0.0
H1661 H 0.91583 0.69709 0.7953 0.0
H1662 H 0.88638 0.70546 0.80643 0.0
H1663 H 0.8953 0.71437 0.77665 0.0
H1664 H 0.81711 0.73802 0.82138 0.0
H1665 H 0.83503 0.75523 0.7478 0.0
H1666 H 0.86932 0.76171 0.8488 0.0
H1667 H 0.87304 0.72987 0.84387 0.0
H1668 H 0.84409 0.7416 0.85317 0.0
H1669 H 0.89186 0.78288 0.76059 0.0
H1670 H 0.87404 0.76931 0.73685 0.0
H1671 H 0.89663 0.75182 0.75269 0.0
C1672 C 0.91511 0.97657 0.82395 0.0
C1673 C 0.91832 -0.00379 0.80816 0.0
C1674 C 0.92722 0.97563 0.84624 0.0
C1675 C 0.94199 -0.00464 0.85331 0.0
C1676 C 0.94595 0.01479 0.83695 0.0
C1677 C 0.93439 0.01475 0.81436 0.0
C1678 C 0.92304 0.95418 0.86271 0.0
C1679 C 0.96094 0.03651 0.84402 0.0
C1680 C 0.94066 0.01402 0.91894 0.0
C1681 C 0.96379 0.00749 0.92724 0.0
C1682 C 0.93329 0.00941 0.89527 0.0
C1683 C 0.94944 -0.00196 0.87905 0.0
C1684 C 0.97263 0.9907 0.88728 0.0
C1685 C 0.97955 -0.00455 0.91138 0.0
C1686 C 0.90819 0.01711 0.88756 0.0
C1687 C 0.99007 0.97799 0.87059 0.0
H1688 H 0.90295 0.962 0.81894 0.0
H1689 H 0.93685 0.02992 0.80209 0.0
H1690 H 0.93995 0.94892 0.87215 0.0
H1691 H 0.90951 0.95908 0.87668 0.0
H1692 H 0.91611 0.93823 0.85262 0.0
H1693 H 0.96399 0.04908 0.82861 0.0
H1694 H 0.95157 0.04662 0.85861 0.0
H1695 H 0.97871 0.03061 0.8512 0.0
H1696 H 0.92796 0.02272 0.93108 0.0
H1697 H -0.00272 0.98998 0.91768 0.0
H1698 H 0.89786 0.00116 0.88112 0.0
H1699 H 0.90937 0.03018 0.87233 0.0
H1700 H 0.89783 0.02572 0.90246 0.0
H1701 H 0.98137 0.96172 0.86265 0.0
H1702 H 0.00688 0.97231 0.88001 0.0
H1703 H -0.00503 0.99019 0.8554 0.0
C1704 C 0.74778 0.13748 0.58604 0.0
C1705 C 0.75768 0.15115 0.56711 0.0
C1706 C 0.7459 0.14725 0.60927 0.0
C1707 C 0.75427 0.17108 0.61344 0.0
C1708 C 0.76589 0.18424 0.59479 0.0
C1709 C 0.76736 0.17411 0.57172 0.0
C1710 C 0.73362 0.13272 0.62889 0.0
C1711 C 0.77555 0.20955 0.59881 0.0
C1712 C 0.72417 0.21286 0.658 0.0
C1713 C 0.7412 0.21308 0.67658 0.0
C1714 C 0.72742 0.19777 0.63798 0.0
C1715 C 0.74862 0.18339 0.63637 0.0
C1716 C 0.76541 0.18294 0.65558 0.0
C1717 C 0.76125 0.19759 0.67573 0.0
C1718 C 0.7091 0.19853 0.61777 0.0
C1719 C 0.7886 0.16853 0.65401 0.0
H1720 H 0.74051 0.11958 0.58248 0.0
H1721 H 0.77542 0.18449 0.55714 0.0
H1722 H 0.74451 0.13298 0.6457 0.0
H1723 H 0.71584 0.14103 0.63312 0.0
H1724 H 0.73063 0.11355 0.62347 0.0
H1725 H 0.78614 0.21627 0.5831 0.0
H1726 H 0.76029 0.22222 0.602 0.0
H1727 H 0.78724 0.21002 0.61507 0.0
H1728 H 0.70889 0.22519 0.65871 0.0
H1729 H 0.77475 0.19849 0.6899 0.0
H1730 H 0.70398 0.17986 0.61233 0.0
H1731 H 0.71716 0.20754 0.60173 0.0
H1732 H 0.69248 0.20858 0.62295 0.0
H1733 H 0.78454 0.14911 0.65074 0.0
H1734 H 0.79968 0.17009 0.67067 0.0
H1735 H 0.79959 0.175 0.63852 0.0
C1736 C 0.60225 -0.00504 0.33306 0.0
C1737 C 0.5908 0.00334 0.3121 0.0
C1738 C 0.59119 -0.00253 0.35561 0.0
C1739 C 0.56818 0.00863 0.35705 0.0
C1740 C 0.55721 0.01842 0.33617 0.0
C1741 C 0.56861 0.01548 0.31379 0.0
C1742 C 0.6036 0.98708 0.37765 0.0
C1743 C 0.53304 0.03109 0.33735 0.0
C1744 C 0.52983 0.9831 0.4071 0.0
C1745 C 0.5333 0.00037 0.42515 0.0
C1746 C 0.54009 0.98635 0.38427 0.0
C1747 C 0.5544 0.00716 0.3798 0.0
C1748 C 0.5572 0.02512 0.39779 0.0
C1749 C 0.54635 0.02155 0.42036 0.0
C1750 C 0.53719 0.96663 0.36557 0.0
C1751 C 0.57282 0.04722 0.39373 0.0
H1752 H 0.61967 0.986 0.33181 0.0
H1753 H 0.56005 0.02253 0.29763 0.0
H1754 H 0.60265 -0.0001 0.39304 0.0
H1755 H 0.59427 0.97016 0.38323 0.0
H1756 H 0.62289 0.98274 0.37409 0.0
H1757 H 0.52839 0.04024 0.32007 0.0
H1758 H 0.51871 0.01766 0.34159 0.0
H1759 H 0.533 0.04478 0.35203 0.0
H1760 H 0.52025 0.96645 0.41131 0.0
H1761 H 0.54956 0.0344 0.43482 0.0
H1762 H 0.55493 0.95784 0.3622 0.0
H1763 H 0.53094 0.97448 0.3482 0.0
H1764 H 0.52414 0.95245 0.37136 0.0
H1765 H 0.59087 0.04191 0.38679 0.0
H1766 H 0.5754 0.05788 0.41054 0.0
H1767 H 0.56433 0.05906 0.3799 0.0
C1768 C 0.72251 0.82709 0.07823 0.0
C1769 C 0.7421 0.84199 0.07218 0.0
C1770 C 0.7206 0.81689 0.10143 0.0
C1771 C 0.73934 0.82074 0.11841 0.0
C1772 C 0.75866 0.83661 0.11257 0.0
C1773 C 0.7595 0.84743 0.08966 0.0
C1774 C 0.69912 0.80113 0.10748 0.0
C1775 C 0.77957 0.84055 0.12965 0.0
C1776 C 0.74412 0.79753 0.18309 0.0
C1777 C 0.75697 0.77602 0.17906 0.0
C1778 C 0.73604 0.81159 0.16333 0.0
C1779 C 0.74187 0.80415 0.13945 0.0
C1780 C 0.75321 0.78146 0.13562 0.0
C1781 C 0.7599 0.76744 0.15547 0.0
C1782 C 0.72282 0.83506 0.16811 0.0
C1783 C 0.76073 0.77302 0.1107 0.0
H1784 H 0.70868 0.8235 0.06485 0.0
H1785 H 0.77448 0.85922 0.08497 0.0
H1786 H 0.7047 0.78181 0.10819 0.0
H1787 H 0.6919 0.80591 0.12558 0.0
H1788 H 0.68445 0.80299 0.09391 0.0
H1789 H 0.79227 0.85468 0.12301 0.0
H1790 H 0.77292 0.84601 0.14772 0.0
H1791 H 0.78973 0.82332 0.1319 0.0
H1792 H 0.74195 0.80421 0.20137 0.0
H1793 H 0.76967 0.75062 0.15249 0.0
H1794 H 0.70849 0.83813 0.15442 0.0
H1795 H 0.73565 0.85046 0.16702 0.0
H1796 H 0.71455 0.83519 0.18641 0.0
H1797 H 0.74476 0.77152 0.09874 0.0
H1798 H 0.77 0.75513 0.11108 0.0
H1799 H 0.77321 0.78645 0.10244 0.0
C1800 C 0.93069 -0.00463 0.66932 0.0
C1801 C 0.90619 1e-05 0.67369 0.0
C1802 C 0.94001 -0.00418 0.64576 0.0
C1803 C 0.92451 0.0014 0.62612 0.0
C1804 C 0.90005 0.00739 0.63056 0.0
C1805 C 0.8911 0.00639 0.65431 0.0
C1806 C 0.96621 0.98907 0.64183 0.0
C1807 C 0.88318 0.01396 0.61015 0.0
C1808 C 0.96156 0.00825 0.56905 0.0
C1809 C 0.96211 0.98407 0.56165 0.0
C1810 C 0.9471 0.01517 0.58879 0.0
C1811 C 0.93322 -0.00268 0.60104 0.0
C1812 C 0.93119 0.97375 0.59114 0.0
C1813 C 0.9454 0.96758 0.57122 0.0
C1814 C 0.94901 0.04076 0.59813 0.0
C1815 C 0.91691 0.95397 0.60361 0.0
H1816 H 0.94246 0.99069 0.68427 0.0
H1817 H 0.8722 0.01038 0.65764 0.0
H1818 H 0.96732 0.97207 0.63117 0.0
H1819 H 0.97554 0.00345 0.63136 0.0
H1820 H 0.97607 0.98631 0.6591 0.0
H1821 H 0.86598 0.02191 0.61684 0.0
H1822 H 0.89194 0.02707 0.59768 0.0
H1823 H 0.87884 -0.00251 0.59952 0.0
H1824 H 0.97428 0.021 0.56131 0.0
H1825 H 0.94565 0.9489 0.56505 0.0
H1826 H 0.96249 0.04133 0.61295 0.0
H1827 H 0.93145 0.04711 0.60547 0.0
H1828 H 0.95508 0.05347 0.58373 0.0
H1829 H 0.92634 0.94859 0.62049 0.0
H1830 H 0.91494 0.93759 0.59211 0.0
H1831 H 0.89865 0.96049 0.60869 0.0
C1832 C 0.73902 0.18807 0.43218 0.0
C1833 C 0.7551 0.16869 0.43539 0.0
C1834 C 0.73836 0.20083 0.41026 0.0
C1835 C 0.75451 0.19422 0.39157 0.0
C1836 C 0.7715 0.17535 0.39523 0.0
C1837 C 0.77141 0.16263 0.41706 0.0
C1838 C 0.71966 0.22047 0.40668 0.0
C1839 C 0.78918 0.16795 0.37574 0.0
C1840 C 0.7409 0.20013 0.32547 0.0
C1841 C 0.75612 0.21926 0.31892 0.0
C1842 C 0.73854 0.19315 0.34958 0.0
C1843 C 0.75241 0.20522 0.36733 0.0
C1844 C 0.7668 0.22549 0.36094 0.0
C1845 C 0.76829 0.2325 0.33661 0.0
C1846 C 0.72266 0.17171 0.3557 0.0
C1847 C 0.78199 0.23851 0.37945 0.0
H1848 H 0.72633 0.19261 0.44641 0.0
H1849 H 0.78398 0.14775 0.41971 0.0
H1850 H 0.72821 0.2372 0.39953 0.0
H1851 H 0.70619 0.21444 0.39312 0.0
H1852 H 0.70998 0.22493 0.4237 0.0
H1853 H 0.80247 0.1543 0.38225 0.0
H1854 H 0.77923 0.1601 0.36023 0.0
H1855 H 0.79918 0.18404 0.36899 0.0
H1856 H 0.73144 0.19007 0.31158 0.0
H1857 H 0.78008 0.24727 0.33126 0.0
H1858 H 0.71186 0.17535 0.3722 0.0
H1859 H 0.73417 0.15562 0.35938 0.0
H1860 H 0.71013 0.16716 0.34071 0.0
H1861 H 0.77104 0.24298 0.39564 0.0
H1862 H 0.78997 0.25549 0.37212 0.0
H1863 H 0.79691 0.22644 0.38544 0.0
C1864 C 0.58147 0.98355 0.17076 0.0
C1865 C 0.59382 0.00358 0.18001 0.0
C1866 C 0.56971 0.98507 0.14844 0.0
C1867 C 0.56971 0.00742 0.13576 0.0
C1868 C 0.58242 0.02761 0.145 0.0
C1869 C 0.5947 0.0253 0.16693 0.0
C1870 C 0.55691 0.96297 0.13865 0.0
C1871 C 0.58216 0.05187 0.13229 0.0
C1872 C 0.54983 0.00591 0.07048 0.0
C1873 C 0.52488 0.00933 0.07305 0.0
C1874 C 0.56495 0.00582 0.09076 0.0
C1875 C 0.55483 0.01012 0.11383 0.0
C1876 C 0.52999 0.01565 0.11622 0.0
C1877 C 0.51524 0.01492 0.09578 0.0
C1878 C 0.59134 -0.0005 0.08767 0.0
C1879 C 0.51873 0.02105 0.14051 0.0
H1880 H 0.58115 0.96669 0.1809 0.0
H1881 H 0.60425 0.04077 0.17431 0.0
H1882 H 0.53714 0.96631 0.13812 0.0
H1883 H 0.56288 0.95933 0.11986 0.0
H1884 H 0.56032 0.94653 0.14979 0.0
H1885 H 0.59401 0.06537 0.14128 0.0
H1886 H 0.58809 0.04982 0.11326 0.0
H1887 H 0.56343 0.05911 0.13196 0.0
H1888 H 0.55732 0.00193 0.05289 0.0
H1889 H 0.49597 0.01797 0.09773 0.0
H1890 H 0.5946 0.98096 0.09482 0.0
H1891 H 0.60296 0.01208 0.09807 0.0
H1892 H 0.59699 -1e-05 0.06841 0.0
H1893 H 0.51848 0.0043 0.15165 0.0
H1894 H 0.49989 0.02784 0.13881 0.0
H1895 H 0.52958 0.03475 0.15036 0.0
C1896 C 0.72527 0.8541 0.91867 0.0
C1897 C 0.74399 0.84735 0.93433 0.0
C1898 C 0.72341 0.84383 0.89555 0.0
C1899 C 0.74116 0.82708 0.8877 0.0
C1900 C 0.76108 0.82163 0.90287 0.0
C1901 C 0.76197 0.83143 0.92625 0.0
C1902 C 0.70184 0.84993 0.88 0.0
C1903 C 0.78102 0.80482 0.8947 0.0
C1904 C 0.72452 0.77507 0.84645 0.0
C1905 C 0.73459 0.78233 0.82433 0.0
C1906 C 0.7257 0.78997 0.86686 0.0
C1907 C 0.73729 0.81279 0.86522 0.0
C1908 C 0.74608 0.82098 0.84257 0.0
C1909 C 0.74452 0.80564 0.82231 0.0
C1910 C 0.71574 0.78064 0.89054 0.0
C1911 C 0.75872 0.84508 0.83993 0.0
H1912 H 0.71145 0.86657 0.92493 0.0
H1913 H 0.77675 0.82668 0.93822 0.0
H1914 H 0.70783 0.85563 0.86172 0.0
H1915 H 0.69045 0.83352 0.87777 0.0
H1916 H 0.69058 0.86458 0.88794 0.0
H1917 H 0.79656 0.80473 0.90742 0.0
H1918 H 0.77395 0.78605 0.89323 0.0
H1919 H 0.7876 0.81028 0.87654 0.0
H1920 H 0.71668 0.75712 0.84813 0.0
H1921 H 0.75246 0.8113 0.80537 0.0
H1922 H 0.70375 0.79442 0.89892 0.0
H1923 H 0.73083 0.77718 0.90329 0.0
H1924 H 0.70539 0.76353 0.88831 0.0
H1925 H 0.75815 0.85166 0.82096 0.0
H1926 H 0.77795 0.8429 0.84522 0.0
H1927 H 0.75063 0.85911 0.85179 0.0
C1928 C 0.82343 0.91382 0.02734 0.0
C1929 C 0.81587 0.90133 0.00673 0.0
C1930 C 0.84718 0.92255 0.02926 0.0
C1931 C 0.8634 0.9197 0.00962 0.0
C1932 C 0.85606 0.90621 0.98912 0.0
C1933 C 0.83246 0.89677 0.98814 0.0
C1934 C 0.85448 0.93611 0.05175 0.0
C1935 C 0.87249 0.90321 0.96754 0.0
C1936 C 0.90252 0.97522 0.00247 0.0
C1937 C 0.92498 0.9676 0.01159 0.0
C1938 C 0.88297 0.95937 0.00064 0.0
C1939 C 0.8855 0.93514 0.00861 0.0
C1940 C 0.90834 0.92688 0.01707 0.0
C1941 C 0.928 0.94322 0.01821 0.0
C1942 C 0.85933 0.96887 0.99061 0.0
C1943 C 0.91179 0.90116 0.02573 0.0
H1944 H 0.81075 0.91677 0.04199 0.0
H1945 H 0.82661 0.88683 0.97231 0.0
H1946 H 0.87282 0.93048 0.05766 0.0
H1947 H 0.85508 0.95584 0.04781 0.0
H1948 H 0.84159 0.93305 0.06685 0.0
H1949 H 0.86519 0.89002 0.95427 0.0
H1950 H 0.87474 0.92098 0.95835 0.0
H1951 H 0.8907 0.89709 0.97331 0.0
H1952 H 0.90016 0.99379 -0.00359 0.0
H1953 H 0.94543 0.93711 0.02479 0.0
H1954 H 0.8455 0.96928 0.00513 0.0
H1955 H 0.85256 0.95672 0.97617 0.0
H1956 H 0.86107 0.98747 0.98305 0.0
H1957 H 0.90342 0.89916 0.04385 0.0
H1958 H 0.93123 0.89627 0.02713 0.0
H1959 H 0.90273 0.8881 0.01351 0.0
C1960 C 0.33149 0.58658 0.0213 0.0
C1961 C 0.31495 0.58213 0.00268 0.0
C1962 C 0.35304 0.5733 0.02293 0.0
C1963 C 0.35832 0.55581 0.005 0.0
C1964 C 0.34127 0.5508 0.9866 0.0
C1965 C 0.31958 0.56383 0.98587 0.0
C1966 C 0.37064 0.57905 0.04295 0.0
C1967 C 0.34667 0.53288 0.96668 0.0
C1968 C 0.42149 0.54717 0.98218 0.0
C1969 C 0.42701 0.52371 0.99038 0.0
C1970 C 0.39983 0.55843 0.98829 0.0
C1971 C 0.38299 0.54576 0.00273 0.0
C1972 C 0.38895 0.52265 0.01235 0.0
C1973 C 0.4112 0.51187 0.00621 0.0
C1974 C 0.39463 0.58349 0.97836 0.0
C1975 C 0.37156 0.50916 0.02848 0.0
H1976 H 0.32769 0.60061 0.03449 0.0
H1977 H 0.30675 0.56049 0.97146 0.0
H1978 H 0.38004 0.56247 0.04939 0.0
H1979 H 0.38458 0.59178 0.0361 0.0
H1980 H 0.36144 0.5878 0.05852 0.0
H1981 H 0.33073 0.52959 0.95494 0.0
H1982 H 0.36159 0.53993 0.95525 0.0
H1983 H 0.35272 0.51532 0.97443 0.0
H1984 H 0.43425 0.55691 0.97088 0.0
H1985 H 0.41592 0.4941 0.01319 0.0
H1986 H 0.38925 0.59594 0.99313 0.0
H1987 H 0.37934 0.58259 0.96543 0.0
H1988 H 0.41047 0.59145 0.96889 0.0
H1989 H 0.36551 0.52102 0.04349 0.0
H1990 H 0.37971 0.49242 0.03619 0.0
H1991 H 0.35524 0.50409 0.01799 0.0
C1992 C 0.18056 0.57123 0.73979 0.0
C1993 C 0.15705 0.56832 0.74865 0.0
C1994 C 0.19009 0.59441 0.73594 0.0
C1995 C 0.17572 0.61502 0.74117 0.0
C1996 C 0.15188 0.61219 0.74986 0.0
C1997 C 0.14281 0.5888 0.75355 0.0
C1998 C 0.21574 0.59682 0.72684 0.0
C1999 C 0.13613 0.63385 0.75557 0.0
C2000 C 0.21249 0.66935 0.75851 0.0
C2001 C 0.21456 0.68139 0.73638 0.0
C2002 C 0.19886 0.64825 0.76058 0.0
C2003 C 0.18668 0.63936 0.74 0.0
C2004 C 0.18717 0.65257 0.71799 0.0
C2005 C 0.20154 0.6735 0.71631 0.0
C2006 C 0.19916 0.63452 0.78425 0.0
C2007 C 0.17381 0.64378 0.69593 0.0
H2008 H 0.19147 0.5554 0.73573 0.0
H2009 H 0.1245 0.58655 0.76019 0.0
H2010 H 0.21628 0.60864 0.71061 0.0
H2011 H 0.22707 0.60553 0.74089 0.0
H2012 H 0.22389 0.57901 0.72217 0.0
H2013 H 0.11753 0.6285 0.76092 0.0
H2014 H 0.14424 0.64447 0.77051 0.0
H2015 H 0.13505 0.64605 0.73964 0.0
H2016 H 0.22294 0.67562 0.77386 0.0
H2017 H 0.20347 0.68294 0.69921 0.0
H2018 H 0.20902 0.61714 0.78189 0.0
H2019 H 0.1805 0.63004 0.79005 0.0
H2020 H 0.20808 0.64495 0.79892 0.0
H2021 H 0.18311 0.62759 0.68848 0.0
H2022 H 0.17297 0.65789 0.6816 0.0
H2023 H 0.15514 0.63825 0.70075 0.0
C2024 C 0.1619 0.40154 0.52591 0.0
C2025 C 0.17879 0.40847 0.50833 0.0
C2026 C 0.13866 0.41177 0.52627 0.0
C2027 C 0.13203 0.42841 0.50797 0.0
C2028 C 0.14895 0.43493 0.4898 0.0
C2029 C 0.17235 0.42529 0.49057 0.0
C2030 C 0.12138 0.40504 0.54632 0.0
C2031 C 0.14237 0.4521 0.46951 0.0
C2032 C 0.06797 0.44242 0.48942 0.0
C2033 C 0.06653 0.4669 0.49585 0.0
C2034 C 0.08857 0.4287 0.49502 0.0
C2035 C 0.10773 0.43977 0.50786 0.0
C2036 C 0.10499 0.46366 0.51681 0.0
C2037 C 0.08445 0.4771 0.51039 0.0
C2038 C 0.09118 0.40372 0.48417 0.0
C2039 C 0.12498 0.47585 0.53082 0.0
H2040 H 0.16703 0.38845 0.53963 0.0
H2041 H 0.18542 0.43031 0.47683 0.0
H2042 H 0.11498 0.42167 0.55562 0.0
H2043 H 0.10523 0.3959 0.53875 0.0
H2044 H 0.12981 0.39278 0.55986 0.0
H2045 H 0.15663 0.45297 0.45539 0.0
H2046 H 0.12517 0.44642 0.46092 0.0
H2047 H 0.13964 0.47064 0.47677 0.0
H2048 H 0.05436 0.43488 0.47751 0.0
H2049 H 0.08363 0.4963 0.51457 0.0
H2050 H 0.09892 0.39076 0.4974 0.0
H2051 H 0.1038 0.40465 0.46859 0.0
H2052 H 0.07362 0.39651 0.47765 0.0
H2053 H 0.12961 0.46478 0.54694 0.0
H2054 H 0.11995 0.49444 0.5366 0.0
H2055 H 0.14155 0.47719 0.51963 0.0
C2056 C 0.82364 0.92476 0.74296 0.0
C2057 C 0.84835 0.92852 0.74688 0.0
C2058 C 0.81373 0.90131 0.74362 0.0
C2059 C 0.82881 0.8811 0.74875 0.0
C2060 C 0.85359 0.88492 0.75381 0.0
C2061 C 0.86312 0.90855 0.75255 0.0
C2062 C 0.78724 0.89807 0.73789 0.0
C2063 C 0.87014 0.864 0.75995 0.0
C2064 C 0.78992 0.82538 0.75944 0.0
C2065 C 0.78798 0.81681 0.73578 0.0
C2066 C 0.80553 0.84487 0.76482 0.0
C2067 C 0.81891 0.85606 0.74594 0.0
C2068 C 0.81914 0.8453 0.72277 0.0
C2069 C 0.80384 0.82567 0.71809 0.0
C2070 C 0.80574 0.85489 0.79011 0.0
C2071 C 0.83307 0.85634 0.70199 0.0
H2072 H 0.81213 0.94011 0.73871 0.0
H2073 H 0.8822 0.91138 0.75595 0.0
H2074 H 0.78523 0.88696 0.72131 0.0
H2075 H 0.77811 0.88824 0.75282 0.0
H2076 H 0.77783 0.91566 0.73502 0.0
H2077 H 0.88795 0.87029 0.76672 0.0
H2078 H 0.8617 0.85215 0.77382 0.0
H2079 H 0.87321 0.85274 0.74365 0.0
H2080 H 0.77778 0.81847 0.77312 0.0
H2081 H 0.8025 0.81882 0.69977 0.0
H2082 H 0.79178 0.86927 0.79165 0.0
H2083 H 0.82351 0.86302 0.79464 0.0
H2084 H 0.80151 0.8405 0.80353 0.0
H2085 H 0.82378 0.87316 0.69595 0.0
H2086 H 0.83432 0.8438 0.68634 0.0
H2087 H 0.85161 0.8614 0.7076 0.0
C2088 C 0.67688 0.07696 0.48487 0.0
C2089 C 0.6835 0.0973 0.4984 0.0
C2090 C 0.654 0.06641 0.4878 0.0
C2091 C 0.63778 0.0762 0.50507 0.0
C2092 C 0.64429 0.09696 0.51847 0.0
C2093 C 0.66702 0.10743 0.51478 0.0
C2094 C 0.64739 0.04451 0.47283 0.0
C2095 C 0.62765 0.10752 0.53737 0.0
C2096 C 0.57254 0.05593 0.50081 0.0
C2097 C 0.57284 0.03558 0.51599 0.0
C2098 C 0.59342 0.06996 0.49758 0.0
C2099 C 0.61471 0.06367 0.51032 0.0
C2100 C 0.61439 0.04439 0.52724 0.0
C2101 C 0.59344 0.03043 0.52974 0.0
C2102 C 0.59321 0.09015 0.47911 0.0
C2103 C 0.63668 0.03734 0.54137 0.0
H2104 H 0.68961 0.06925 0.47209 0.0
H2105 H 0.67221 0.1231 0.52538 0.0
H2106 H 0.64452 0.02859 0.48477 0.0
H2107 H 0.63018 0.04788 0.4631 0.0
H2108 H 0.6616 0.03989 0.45941 0.0
H2109 H 0.63502 0.12439 0.54547 0.0
H2110 H 0.60972 0.1116 0.52938 0.0
H2111 H 0.62475 0.09404 0.55201 0.0
H2112 H 0.55674 0.05956 0.48977 0.0
H2113 H 0.59363 0.01452 0.5413 0.0
H2114 H 0.60447 0.08482 0.46338 0.0
H2115 H 0.60117 0.10692 0.48675 0.0
H2116 H 0.57467 0.09426 0.47256 0.0
H2117 H 0.65039 0.0296 0.52892 0.0
H2118 H 0.63268 0.02366 0.55558 0.0
H2119 H 0.64484 0.05352 0.55001 0.0
C2120 C 0.16467 0.4228 0.72652 0.0
C2121 C 0.16815 0.43962 0.74516 0.0
C2122 C 0.17747 0.40088 0.7262 0.0
C2123 C 0.1937 0.39568 0.74524 0.0
C2124 C 0.198 0.41308 0.76351 0.0
C2125 C 0.18528 0.43501 0.76312 0.0
C2126 C 0.1724 0.38281 0.70638 0.0
C2127 C 0.21467 0.40781 0.78448 0.0
C2128 C 0.19971 0.33271 0.76997 0.0
C2129 C 0.22325 0.32644 0.76296 0.0
C2130 C 0.18933 0.35455 0.76283 0.0
C2131 C 0.20303 0.37083 0.74867 0.0
C2132 C 0.22642 0.36424 0.74051 0.0
C2133 C 0.23628 0.34182 0.74761 0.0
C2134 C 0.16396 0.36046 0.7712 0.0
C2135 C 0.24112 0.38112 0.72486 0.0
H2136 H 0.15153 0.4265 0.71245 0.0
H2137 H 0.18793 0.44804 0.77752 0.0
H2138 H 0.18915 0.37333 0.70078 0.0
H2139 H 0.15954 0.36891 0.71307 0.0
H2140 H 0.16424 0.39167 0.69028 0.0
H2141 H 0.21755 0.42398 0.79607 0.0
H2142 H 0.20684 0.39314 0.7958 0.0
H2143 H 0.23247 0.40136 0.77782 0.0
H2144 H 0.18911 0.32029 0.78089 0.0
H2145 H 0.25417 0.33653 0.74158 0.0
H2146 H 0.15245 0.36549 0.75559 0.0
H2147 H 0.1644 0.37623 0.78362 0.0
H2148 H 0.15529 0.345 0.78077 0.0
H2149 H 0.23007 0.38782 0.7095 0.0
H2150 H 0.25761 0.37218 0.71764 0.0
H2151 H 0.24664 0.39717 0.73558 0.0
C2152 C 0.34952 0.58266 0.26302 0.0
C2153 C 0.34715 0.56647 0.24373 0.0
C2154 C 0.33924 0.60595 0.26193 0.0
C2155 C 0.327 0.61348 0.24066 0.0
C2156 C 0.32678 0.59803 0.22026 0.0
C2157 C 0.33633 0.57445 0.22222 0.0
C2158 C 0.3397 0.62155 0.28432 0.0
C2159 C 0.31547 0.60603 0.19675 0.0
C2160 C 0.27058 0.64953 0.25367 0.0
C2161 C 0.2792 0.6734 0.25386 0.0
C2162 C 0.28578 0.63003 0.24838 0.0
C2163 C 0.31009 0.63453 0.24182 0.0
C2164 C 0.31824 0.65884 0.23929 0.0
C2165 C 0.30269 0.67816 0.24571 0.0
C2166 C 0.27636 0.60455 0.2523 0.0
C2167 C 0.34362 0.6643 0.23099 0.0
H2168 H 0.35834 0.57665 0.27947 0.0
H2169 H 0.33531 0.56224 0.20693 0.0
H2170 H 0.34423 0.64061 0.27984 0.0
H2171 H 0.32147 0.62154 0.29273 0.0
H2172 H 0.35293 0.61481 0.29785 0.0
H2173 H 0.32063 0.59395 0.18155 0.0
H2174 H 0.29549 0.60588 0.19842 0.0
H2175 H 0.32096 0.62489 0.19234 0.0
H2176 H 0.25236 0.64592 0.25999 0.0
H2177 H 0.30944 0.69659 0.24617 0.0
H2178 H 0.28726 0.59527 0.2664 0.0
H2179 H 0.27803 0.59381 0.23548 0.0
H2180 H 0.25712 0.6043 0.25805 0.0
H2181 H 0.35706 0.65392 0.24167 0.0
H2182 H 0.34798 0.68391 0.23239 0.0
H2183 H 0.34568 0.6585 0.21191 0.0
C2184 C 0.48185 0.67611 0.56994 0.0
C2185 C 0.50177 0.68495 0.58274 0.0
C2186 C 0.48225 0.6528 0.55959 0.0
C2187 C 0.50345 0.63834 0.56129 0.0
C2188 C 0.52391 0.64758 0.57355 0.0
C2189 C 0.52265 0.67058 0.58453 0.0
C2190 C 0.45976 0.64344 0.54732 0.0
C2191 C 0.54709 0.6332 0.57503 0.0
C2192 C 0.49038 0.57123 0.55329 0.0
C2193 C 0.49257 0.56875 0.52822 0.0
C2194 C 0.49582 0.59331 0.56474 0.0
C2195 C 0.50369 0.61336 0.5507 0.0
C2196 C 0.50848 0.61001 0.52576 0.0
C2197 C 0.50266 0.58775 0.51477 0.0
C2198 C 0.49045 0.59589 0.59134 0.0
C2199 C 0.51739 0.63061 0.51016 0.0
H2200 H 0.46562 0.6871 0.56874 0.0
H2201 H 0.53816 0.6775 0.59429 0.0
H2202 H 0.46372 0.63907 0.52818 0.0
H2203 H 0.45371 0.62642 0.55622 0.0
H2204 H 0.44467 0.65674 0.54788 0.0
H2205 H 0.56154 0.64314 0.58481 0.0
H2206 H 0.54385 0.61567 0.58434 0.0
H2207 H 0.55363 0.62893 0.55656 0.0
H2208 H 0.48205 0.55672 0.5636 0.0
H2209 H 0.50383 0.58605 0.49529 0.0
H2210 H 0.47353 0.60647 0.59367 0.0
H2211 H 0.5051 0.6059 0.60064 0.0
H2212 H 0.48811 0.57798 0.6003 0.0
H2213 H 0.50218 0.64317 0.5063 0.0
H2214 H 0.52472 0.624 0.49267 0.0
H2215 H 0.53163 0.64112 0.51959 0.0
C2216 C 0.58193 0.22787 0.83843 0.0
C2217 C 0.56354 0.24353 0.83078 0.0
C2218 C 0.60352 0.22604 0.82544 0.0
C2219 C 0.60682 0.24062 0.80462 0.0
C2220 C 0.58828 0.25647 0.79681 0.0
C2221 C 0.56664 0.25755 0.8099 0.0
C2222 C 0.62294 0.20888 0.83426 0.0
C2223 C 0.59152 0.27255 0.77494 0.0
C2224 C 0.67195 0.25268 0.7889 0.0
C2225 C 0.67645 0.23412 0.77232 0.0
C2226 C 0.64903 0.25553 0.79907 0.0
C2227 C 0.63015 0.23993 0.7917 0.0
C2228 C 0.63427 0.22229 0.77358 0.0
C2229 C 0.6577 0.2192 0.76443 0.0
C2230 C 0.64558 0.27392 0.819 0.0
C2231 C 0.61433 0.20574 0.76502 0.0
H2232 H 0.57938 0.21696 0.85456 0.0
H2233 H 0.5524 0.26981 0.80418 0.0
H2234 H 0.62835 0.1963 0.81959 0.0
H2235 H 0.63924 0.21932 0.83949 0.0
H2236 H 0.61694 0.19796 0.85005 0.0
H2237 H 0.57515 0.28355 0.77101 0.0
H2238 H 0.60697 0.28504 0.77781 0.0
H2239 H 0.59586 0.26134 0.75888 0.0
H2240 H 0.68685 0.26374 0.79529 0.0
H2241 H 0.66155 0.20465 0.75184 0.0
H2242 H 0.64239 0.26432 0.83636 0.0
H2243 H 0.62949 0.28538 0.8154 0.0
H2244 H 0.66159 0.28588 0.82119 0.0
H2245 H 0.60968 0.19267 0.77955 0.0
H2246 H 0.61967 0.19536 0.74868 0.0
H2247 H 0.59778 0.21636 0.76089 0.0
C2248 C 0.99351 0.32026 0.05975 0.0
C2249 C 0.99362 0.31865 0.085 0.0
C2250 C 0.99255 0.34295 0.04805 0.0
C2251 C 0.9913 0.36456 0.06191 0.0
C2252 C 0.98971 0.36288 0.08738 0.0
C2253 C 0.99115 0.34001 0.09861 0.0
C2254 C -0.00538 0.34386 0.02088 0.0
C2255 C 0.98779 0.38534 0.10286 0.0
C2256 C 0.02742 0.41627 0.03549 0.0
C2257 C 0.01006 0.42938 0.02232 0.0
C2258 C 0.02131 0.39572 0.0489 0.0
C2259 C -0.00312 0.38839 0.05022 0.0
C2260 C 0.97877 0.40289 0.03896 0.0
C2261 C 0.98563 0.42316 0.02475 0.0
C2262 C 0.0414 0.381 0.06034 0.0
C2263 C 0.95238 0.39647 0.04105 0.0
H2264 H -0.00488 0.30384 0.04912 0.0
H2265 H 0.99071 0.33892 0.11816 0.0
H2266 H 0.98055 0.35595 0.01319 0.0
H2267 H 0.01248 0.35147 0.01578 0.0
H2268 H 0.99283 0.32562 0.01257 0.0
H2269 H 0.98307 0.38092 0.12188 0.0
H2270 H 0.00529 0.39514 0.10281 0.0
H2271 H 0.97395 0.3979 0.09545 0.0
H2272 H 0.04631 0.4214 0.03424 0.0
H2273 H 0.97211 0.43339 0.01487 0.0
H2274 H 0.04184 0.36256 0.05231 0.0
H2275 H 0.03817 0.37885 0.07998 0.0
H2276 H 0.05945 0.38943 0.05777 0.0
H2277 H 0.94827 0.38109 0.02884 0.0
H2278 H 0.94056 0.41199 0.03599 0.0
H2279 H 0.9479 0.39067 0.05974 0.0
C2280 C 0.92625 0.7357 0.32429 0.0
C2281 C 0.93194 0.74663 0.34634 0.0
C2282 C 0.90313 0.73833 0.31431 0.0
C2283 C 0.88568 0.75266 0.32649 0.0
C2284 C 0.89117 0.76314 0.34907 0.0
C2285 C 0.9142 0.75978 0.35886 0.0
C2286 C 0.89764 0.7265 0.29035 0.0
C2287 C 0.87311 0.77883 0.36232 0.0
C2288 C 0.84105 0.78085 0.28346 0.0
C2289 C 0.82143 0.7651 0.28585 0.0
C2290 C 0.86155 0.77798 0.29792 0.0
C2291 C 0.86253 0.75843 0.31452 0.0
C2292 C 0.84208 0.74344 0.3181 0.0
C2293 C 0.82152 0.7472 0.30383 0.0
C2294 C 0.88281 0.79473 0.29409 0.0
C2295 C 0.84264 0.72214 0.33529 0.0
H2296 H 0.93995 0.72541 0.31473 0.0
H2297 H 0.91861 0.76832 0.37592 0.0
H2298 H 0.88059 0.71597 0.29156 0.0
H2299 H 0.89502 0.74067 0.27632 0.0
H2300 H 0.91238 0.71418 0.28437 0.0
H2301 H 0.87999 0.78498 0.38013 0.0
H2302 H 0.86875 0.79505 0.35124 0.0
H2303 H 0.85601 0.76874 0.36517 0.0
H2304 H 0.84087 0.79452 0.26933 0.0
H2305 H 0.80642 0.73471 0.30522 0.0
H2306 H 0.89761 0.78472 0.28492 0.0
H2307 H 0.8899 0.8012 0.31167 0.0
H2308 H 0.87799 0.81073 0.28284 0.0
H2309 H 0.85425 0.70765 0.3276 0.0
H2310 H 0.82432 0.71449 0.33845 0.0
H2311 H 0.85055 0.72742 0.35291 0.0
C2312 C 0.5118 0.33745 0.89321 0.0
C2313 C 0.49605 0.31863 0.89943 0.0
C2314 C 0.50905 0.36048 0.90353 0.0
C2315 C 0.48979 0.3646 0.91988 0.0
C2316 C 0.47242 0.34627 0.92412 0.0
C2317 C 0.47603 0.32327 0.91416 0.0
C2318 C 0.52807 0.37953 0.89881 0.0
C2319 C 0.45122 0.35026 0.94084 0.0
C2320 C 0.50459 0.40029 0.97562 0.0
C2321 C 0.4939 0.42285 0.97081 0.0
C2322 C 0.50358 0.38149 0.95892 0.0
C2323 C 0.49119 0.38513 0.9369 0.0
C2324 C 0.48009 0.40774 0.93184 0.0
C2325 C 0.48185 0.42658 0.94884 0.0
C2326 C 0.51587 0.35769 0.96497 0.0
C2327 C 0.46651 0.41202 0.90859 0.0
H2328 H 0.52704 0.33381 0.88142 0.0
H2329 H 0.46341 0.30879 0.91827 0.0
H2330 H 0.51968 0.39761 0.89615 0.0
H2331 H 0.54019 0.38079 0.91473 0.0
H2332 H 0.53924 0.37512 0.88272 0.0
H2333 H 0.4371 0.33614 0.9385 0.0
H2334 H 0.45754 0.34966 0.95985 0.0
H2335 H 0.44298 0.36836 0.93769 0.0
H2336 H 0.51429 0.39734 0.99238 0.0
H2337 H 0.47365 0.44406 0.94506 0.0
H2338 H 0.52897 0.35281 0.95058 0.0
H2339 H 0.50226 0.34296 0.96601 0.0
H2340 H 0.52569 0.35834 0.98245 0.0
H2341 H 0.47945 0.41254 0.89328 0.0
H2342 H 0.45629 0.42938 0.90884 0.0
H2343 H 0.45372 0.39693 0.90511 0.0
C2344 C 0.92681 0.2447 0.18036 0.0
C2345 C 0.92989 0.25432 0.15713 0.0
C2346 C 0.90422 0.24555 0.19191 0.0
C2347 C 0.88432 0.25662 0.18009 0.0
C2348 C 0.88758 0.26719 0.15701 0.0
C2349 C 0.91028 0.26572 0.1457 0.0
C2350 C 0.90148 0.23384 0.21645 0.0
C2351 C 0.867 0.27979 0.1442 0.0
C2352 C 0.82392 0.23048 0.19837 0.0
C2353 C 0.81768 0.24516 0.21808 0.0
C2354 C 0.84507 0.23465 0.18513 0.0
C2355 C 0.85972 0.25484 0.19093 0.0
C2356 C 0.85191 0.27141 0.20893 0.0
C2357 C 0.83125 0.26598 0.22284 0.0
C2358 C 0.85294 0.21599 0.16674 0.0
C2359 C 0.86619 0.29388 0.21488 0.0
H2360 H 0.94195 0.23602 0.18932 0.0
H2361 H 0.91266 0.27351 0.12786 0.0
H2362 H 0.89445 0.24725 0.22962 0.0
H2363 H 0.88817 0.21882 0.21541 0.0
H2364 H 0.91883 0.22645 0.2234 0.0
H2365 H 0.87289 0.28857 0.1271 0.0
H2366 H 0.85254 0.26655 0.13996 0.0
H2367 H 0.85897 0.29378 0.15617 0.0
H2368 H 0.81352 0.21417 0.19491 0.0
H2369 H 0.82668 0.27711 0.23826 0.0
H2370 H 0.86937 0.20651 0.17338 0.0
H2371 H 0.85771 0.22483 0.14938 0.0
H2372 H 0.83874 0.2022 0.16328 0.0
H2373 H 0.87925 0.28965 0.2295 0.0
H2374 H 0.85404 0.30851 0.22142 0.0
H2375 H 0.87642 0.30073 0.19902 0.0
C2376 C 0.02281 0.67067 0.41085 0.0
C2377 C 0.00346 0.68665 0.41393 0.0
C2378 C 0.02392 0.64907 0.42405 0.0
C2379 C 0.00471 0.64314 0.4399 0.0
C2380 C 0.98521 0.65941 0.44319 0.0
C2381 C 0.98504 0.68132 0.43039 0.0
C2382 C 0.04522 0.63229 0.42041 0.0
C2383 C 0.96411 0.65319 0.45937 0.0
C2384 C -0.00422 0.57594 0.44669 0.0
C2385 C 0.00768 0.57143 0.46848 0.0
C2386 C -0.00622 0.59947 0.43768 0.0
C2387 C 0.0039 0.61882 0.45099 0.0
C2388 C 0.01477 0.61448 0.47376 0.0
C2389 C 0.01666 0.59056 0.48229 0.0
C2390 C 0.98227 0.60332 0.41321 0.0
C2391 C 0.02573 0.63484 0.48827 0.0
H2392 H 0.03713 0.67516 0.39821 0.0
H2393 H 0.97005 0.69385 0.43251 0.0
H2394 H 0.05293 0.62682 0.4381 0.0
H2395 H 0.03918 0.61553 0.41115 0.0
H2396 H 0.05973 0.6408 0.4094 0.0
H2397 H 0.95084 0.66827 0.46066 0.0
H2398 H 0.9547 0.63691 0.4523 0.0
H2399 H 0.97062 0.64865 0.47778 0.0
H2400 H 0.98914 0.56081 0.43607 0.0
H2401 H 0.02619 0.58672 0.49898 0.0
H2402 H -0.0037 0.60892 0.39999 0.0
H2403 H 0.96864 0.61806 0.41406 0.0
H2404 H 0.97339 0.58663 0.40635 0.0
H2405 H 0.04216 0.64162 0.47894 0.0
H2406 H 0.03085 0.6289 0.50676 0.0
H2407 H 0.01292 0.65027 0.48967 0.0
C2408 C 0.56214 0.74477 0.68421 0.0
C2409 C 0.56244 0.75169 0.65981 0.0
C2410 C 0.58352 0.74425 0.69797 0.0
C2411 C 0.60578 0.75073 0.68708 0.0
C2412 C 0.6063 0.75688 0.6622 0.0
C2413 C 0.58464 0.75736 0.64891 0.0
C2414 C 0.58218 0.73758 0.72438 0.0
C2415 C 0.62966 0.76356 0.64972 0.0
C2416 C 0.656 0.77996 0.72353 0.0
C2417 C 0.67293 0.76111 0.72542 0.0
C2418 C 0.63363 0.77641 0.71216 0.0
C2419 C 0.62807 0.75347 0.7021 0.0
C2420 C 0.64453 0.73393 0.70517 0.0
C2421 C 0.66671 0.73794 0.71704 0.0
C2422 C 0.61662 0.7977 0.7095 0.0
C2423 C 0.63949 0.70928 0.6945 0.0
H2424 H 0.5451 0.74012 0.69271 0.0
H2425 H 0.5851 0.7624 0.62998 0.0
H2426 H 0.59558 0.72322 0.72867 0.0
H2427 H 0.58676 0.75364 0.73552 0.0
H2428 H 0.56392 0.73109 0.72969 0.0
H2429 H 0.62721 0.76658 0.63002 0.0
H2430 H 0.63714 0.78036 0.6578 0.0
H2431 H 0.64327 0.74899 0.65237 0.0
H2432 H 0.66086 0.79794 0.7298 0.0
H2433 H 0.67994 0.72344 0.71802 0.0
H2434 H 0.59814 0.79261 0.7154 0.0
H2435 H 0.61553 0.80309 0.6902 0.0
H2436 H 0.62261 0.81367 0.72013 0.0
H2437 H 0.62137 0.70279 0.70012 0.0
H2438 H 0.65321 0.69559 0.69996 0.0
H2439 H 0.63943 0.71059 0.67449 0.0
C2440 C 0.56683 0.50397 0.68426 0.0
C2441 C 0.59083 0.4958 0.68524 0.0
C2442 C 0.55397 0.50417 0.66237 0.0
C2443 C 0.56534 0.49586 0.64101 0.0
C2444 C 0.5897 0.48793 0.64184 0.0
C2445 C 0.60214 0.48802 0.66394 0.0
C2446 C 0.52811 0.51291 0.66215 0.0
C2447 C 0.60258 0.47914 0.61942 0.0
C2448 C 0.53033 0.47005 0.58808 0.0
C2449 C 0.53119 0.48929 0.57161 0.0
C2450 C 0.54001 0.47253 0.61138 0.0
C2451 C 0.55161 0.49448 0.61791 0.0
C2452 C 0.55171 0.51427 0.60152 0.0
C2453 C 0.54117 0.51151 0.57862 0.0
C2454 C 0.53911 0.45117 0.62846 0.0
C2455 C 0.56447 0.53772 0.60743 0.0
H2456 H 0.55806 0.51022 0.70063 0.0
H2457 H 0.62074 0.48182 0.66453 0.0
H2458 H 0.5258 0.52748 0.64848 0.0
H2459 H 0.51598 0.49778 0.65694 0.0
H2460 H 0.52227 0.51996 0.68002 0.0
H2461 H 0.62173 0.47423 0.623 0.0
H2462 H 0.5932 0.46299 0.61206 0.0
H2463 H 0.60212 0.49339 0.60525 0.0
H2464 H 0.52294 0.45277 0.58238 0.0
H2465 H 0.54231 0.52615 0.56554 0.0
H2466 H 0.53262 0.457 0.64651 0.0
H2467 H 0.55757 0.44363 0.63083 0.0
H2468 H 0.52713 0.43651 0.62173 0.0
H2469 H 0.55872 0.54452 0.62538 0.0
H2470 H 0.56098 0.55203 0.59369 0.0
H2471 H 0.58425 0.53445 0.60829 0.0
C2472 C 0.73613 0.34255 0.91267 0.0
C2473 C 0.7566 0.34536 0.92718 0.0
C2474 C 0.73813 0.3324 0.88957 0.0
C2475 C 0.76124 0.3257 0.88076 0.0
C2476 C 0.78215 0.33084 0.8945 0.0
C2477 C 0.77954 0.34016 0.91786 0.0
C2478 C 0.71538 0.32687 0.8756 0.0
C2479 C 0.80713 0.32497 0.88519 0.0
C2480 C 0.7617 0.26704 0.84624 0.0
C2481 C 0.76107 0.275 0.82217 0.0
C2482 C 0.76233 0.28348 0.86531 0.0
C2483 C 0.76296 0.30863 0.86026 0.0
C2484 C 0.76385 0.31691 0.83604 0.0
C2485 C 0.76267 0.29993 0.81717 0.0
C2486 C 0.76118 0.27384 0.89091 0.0
C2487 C 0.76506 0.34359 0.82998 0.0
H2488 H 0.71845 0.34697 0.91989 0.0
H2489 H 0.79542 0.34312 0.92894 0.0
H2490 H 0.71722 0.33276 0.85653 0.0
H2491 H 0.71229 0.30697 0.87557 0.0
H2492 H 0.69923 0.33582 0.88355 0.0
H2493 H 0.82142 0.33416 0.89588 0.0
H2494 H 0.81022 0.3051 0.88624 0.0
H2495 H 0.80891 0.33043 0.86597 0.0
H2496 H 0.76085 0.24782 0.85034 0.0
H2497 H 0.76226 0.30623 0.79861 0.0
H2498 H 0.74492 0.28111 0.90018 0.0
H2499 H 0.77722 0.27989 0.90125 0.0
H2500 H 0.76045 0.25371 0.89161 0.0
H2501 H 0.74675 0.35165 0.83151 0.0
H2502 H 0.77159 0.34664 0.81123 0.0
H2503 H 0.7771 0.35336 0.84269 0.0
C2504 C 0.93844 0.49387 0.18121 0.0
C2505 C 0.91393 0.50018 0.18211 0.0
C2506 C 0.9513 0.49509 0.15949 0.0
C2507 C 0.93931 0.50292 0.13834 0.0
C2508 C 0.91431 0.50842 0.13894 0.0
C2509 C 0.90187 0.50693 0.16091 0.0
C2510 C 0.9779 0.4889 0.15934 0.0
C2511 C 0.90091 0.51659 0.11658 0.0
C2512 C 0.97368 0.53486 0.08875 0.0
C2513 C 0.97572 0.5164 0.07161 0.0
C2514 C 0.96285 0.53032 0.11115 0.0
C2515 C 0.95324 0.507 0.11597 0.0
C2516 C 0.95599 0.48808 0.09898 0.0
C2517 C 0.96764 0.49294 0.07708 0.0
C2518 C 0.96053 0.55079 0.12912 0.0
C2519 C 0.94531 0.46322 0.10323 0.0
H2520 H 0.94771 0.48835 0.19757 0.0
H2521 H 0.88284 0.51165 0.16159 0.0
H2522 H 0.98185 0.47534 0.14509 0.0
H2523 H 0.98856 0.5054 0.15505 0.0
H2524 H 0.98412 0.48157 0.17698 0.0
H2525 H 0.88124 0.51898 0.11992 0.0
H2526 H 0.9084 0.5341 0.11011 0.0
H2527 H 0.90337 0.50319 0.10185 0.0
H2528 H 0.97971 0.55304 0.08424 0.0
H2529 H 0.96869 0.47885 0.06346 0.0
H2530 H 0.96722 0.54493 0.1471 0.0
H2531 H 0.94122 0.55581 0.13124 0.0
H2532 H 0.97074 0.56718 0.12341 0.0
H2533 H 0.95185 0.45563 0.12061 0.0
H2534 H 0.94985 0.4503 0.08852 0.0
H2535 H 0.92534 0.46464 0.10452 0.0
C2536 C 0.73521 0.65466 0.41644 0.0
C2537 C 0.7536 0.65935 0.43312 0.0
C2538 C 0.73489 0.66628 0.39392 0.0
C2539 C 0.75394 0.68227 0.38765 0.0
C2540 C 0.77329 0.68596 0.40395 0.0
C2541 C 0.77265 0.67481 0.42677 0.0
C2542 C 0.71332 0.66269 0.37758 0.0
C2543 C 0.79409 0.70253 0.39768 0.0
C2544 C 0.75115 0.70472 0.32253 0.0
C2545 C 0.73793 0.7261 0.32576 0.0
C2546 C 0.758 0.69069 0.34275 0.0
C2547 C 0.75115 0.69834 0.36629 0.0
C2548 C 0.73922 0.72077 0.36944 0.0
C2549 C 0.73312 0.73445 0.34919 0.0
C2550 C 0.77133 0.66715 0.33889 0.0
C2551 C 0.73104 0.72953 0.39404 0.0
H2552 H 0.72049 0.64268 0.42145 0.0
H2553 H 0.78707 0.67809 0.43961 0.0
H2554 H 0.70306 0.67995 0.37611 0.0
H2555 H 0.71931 0.6577 0.35913 0.0
H2556 H 0.70089 0.64841 0.3844 0.0
H2557 H 0.80943 0.70041 0.41045 0.0
H2558 H 0.8006 0.69887 0.37907 0.0
H2559 H 0.78796 0.72169 0.39823 0.0
H2560 H 0.75486 0.69832 0.30439 0.0
H2561 H 0.72323 0.75127 0.3517 0.0
H2562 H 0.75908 0.65169 0.34274 0.0
H2563 H 0.78684 0.66575 0.35152 0.0
H2564 H 0.77806 0.66538 0.32007 0.0
H2565 H 0.71718 0.71696 0.40137 0.0
H2566 H 0.72312 0.74805 0.39337 0.0
H2567 H 0.74637 0.72968 0.40691 0.0
C2568 C 0.61005 0.50431 0.83834 0.0
C2569 C 0.59663 0.49786 0.81785 0.0
C2570 C 0.59927 0.50509 0.86129 0.0
C2571 C 0.57446 0.49934 0.86379 0.0
C2572 C 0.56113 0.4917 0.84332 0.0
C2573 C 0.57239 0.49106 0.82059 0.0
C2574 C 0.61406 0.51351 0.88259 0.0
C2575 C 0.53455 0.48575 0.84512 0.0
C2576 C 0.54342 0.49493 0.92544 0.0
C2577 C 0.53349 0.51826 0.92727 0.0
C2578 C 0.55759 0.48851 0.90519 0.0
C2579 C 0.5615 0.50575 0.88647 0.0
C2580 C 0.55228 0.52952 0.88887 0.0
C2581 C 0.53883 0.53551 0.9093 0.0
C2582 C 0.56769 0.46316 0.90341 0.0
C2583 C 0.55575 0.5485 0.86937 0.0
H2584 H 0.62888 0.50939 0.83638 0.0
H2585 H 0.56199 0.48584 0.80484 0.0
H2586 H 0.6083 0.53206 0.88784 0.0
H2587 H 0.61103 0.5015 0.89841 0.0
H2588 H 0.6337 0.51396 0.87843 0.0
H2589 H 0.52766 0.47693 0.82846 0.0
H2590 H 0.53104 0.47362 0.86073 0.0
H2591 H 0.52414 0.50272 0.8481 0.0
H2592 H 0.53942 0.48156 0.93926 0.0
H2593 H 0.53167 0.55378 0.9107 0.0
H2594 H 0.58744 0.46387 0.89995 0.0
H2595 H 0.55929 0.4536 0.88793 0.0
H2596 H 0.5644 0.45243 0.9201 0.0
H2597 H 0.57529 0.55169 0.86622 0.0
H2598 H 0.54714 0.56611 0.87403 0.0
H2599 H 0.54788 0.54205 0.85212 0.0
C2600 C 0.75816 0.34332 0.08134 0.0
C2601 C 0.74763 0.33384 0.06038 0.0
C2602 C 0.75519 0.33177 0.10367 0.0
C2603 C 0.7412 0.31033 0.10501 0.0
C2604 C 0.73087 0.30044 0.08384 0.0
C2605 C 0.73434 0.31227 0.06166 0.0
C2606 C 0.76641 0.34293 0.12592 0.0
C2607 C 0.71544 0.27788 0.0848 0.0
C2608 C 0.74805 0.27421 0.16294 0.0
C2609 C 0.72872 0.28334 0.17659 0.0
C2610 C 0.75182 0.28206 0.13909 0.0
C2611 C 0.73593 0.29942 0.12888 0.0
C2612 C 0.71573 0.30773 0.14215 0.0
C2613 C 0.71227 0.29942 0.16574 0.0
C2614 C 0.77349 0.27281 0.1253 0.0
C2615 C 0.69861 0.32661 0.13209 0.0
H2616 H 0.76853 0.35998 0.08035 0.0
H2617 H 0.72606 0.30503 0.04547 0.0
H2618 H 0.75204 0.34823 0.13887 0.0
H2619 H 0.77814 0.32947 0.13516 0.0
H2620 H 0.7774 0.35923 0.1216 0.0
H2621 H 0.70974 0.27181 0.06656 0.0
H2622 H 0.72547 0.26293 0.09375 0.0
H2623 H 0.69901 0.28144 0.09576 0.0
H2624 H 0.7609 0.26188 0.17122 0.0
H2625 H 0.69719 0.3065 0.17609 0.0
H2626 H 0.78652 0.28784 0.12244 0.0
H2627 H 0.76791 0.26625 0.10721 0.0
H2628 H 0.78289 0.25786 0.13498 0.0
H2629 H 0.70809 0.34429 0.13075 0.0
H2630 H 0.68236 0.32906 0.14365 0.0
H2631 H 0.69265 0.32161 0.11364 0.0
C2632 C 0.93172 0.50796 0.3204 0.0
C2633 C 0.90845 0.49916 0.316 0.0
C2634 C 0.94214 0.50562 0.34328 0.0
C2635 C 0.92901 0.49391 0.36191 0.0
C2636 C 0.90525 0.48563 0.35775 0.0
C2637 C 0.89518 0.48841 0.33478 0.0
C2638 C 0.96722 0.51554 0.34753 0.0
C2639 C 0.8907 0.47351 0.37744 0.0
C2640 C 0.96924 0.4671 0.40986 0.0
C2641 C 0.96804 0.48503 0.42761 0.0
C2642 C 0.95521 0.46899 0.38895 0.0
C2643 C 0.94056 0.4898 0.38554 0.0
C2644 C 0.93872 0.50755 0.40386 0.0
C2645 C 0.95211 0.50459 0.42506 0.0
C2646 C 0.95731 0.44963 0.3698 0.0
C2647 C 0.92376 0.53031 0.40069 0.0
H2648 H 0.94182 0.51654 0.30593 0.0
H2649 H 0.87707 0.48173 0.33141 0.0
H2650 H 0.96699 0.5283 0.36302 0.0
H2651 H 0.97974 0.50052 0.35223 0.0
H2652 H 0.97447 0.5252 0.33145 0.0
H2653 H 0.87247 0.46794 0.37116 0.0
H2654 H 0.90042 0.45721 0.38415 0.0
H2655 H 0.88857 0.48607 0.39294 0.0
H2656 H 0.98195 0.45224 0.41188 0.0
H2657 H 0.95177 0.51871 0.43869 0.0
H2658 H 0.96679 0.45712 0.35377 0.0
H2659 H 0.93909 0.44374 0.36384 0.0
H2660 H 0.96748 0.4335 0.37631 0.0
H2661 H 0.92394 0.53691 0.38175 0.0
H2662 H 0.93038 0.54523 0.4124 0.0
H2663 H 0.90474 0.52634 0.40567 0.0
C2664 C 0.73466 0.66319 0.58042 0.0
C2665 C 0.75487 0.65228 0.56984 0.0
C2666 C 0.73614 0.67341 0.60355 0.0
C2667 C 0.75866 0.67375 0.61572 0.0
C2668 C 0.77888 0.66185 0.60543 0.0
C2669 C 0.77661 0.65085 0.5827 0.0
C2670 C 0.71385 0.68466 0.61462 0.0
C2671 C 0.80311 0.6618 0.61791 0.0
C2672 C 0.76555 0.73019 0.65352 0.0
C2673 C 0.76035 0.72163 0.67683 0.0
C2674 C 0.76633 0.71445 0.63376 0.0
C2675 C 0.76168 0.68946 0.6373 0.0
C2676 C 0.75808 0.68039 0.66101 0.0
C2677 C 0.75747 0.69665 0.68057 0.0
C2678 C 0.77085 0.72485 0.60888 0.0
C2679 C 0.75347 0.65389 0.66596 0.0
H2680 H 0.71772 0.6637 0.57059 0.0
H2681 H 0.79215 0.64215 0.57446 0.0
H2682 H 0.71167 0.6784 0.63357 0.0
H2683 H 0.71582 0.70469 0.61496 0.0
H2684 H 0.69721 0.68008 0.60438 0.0
H2685 H 0.81655 0.65024 0.60842 0.0
H2686 H 0.81021 0.68061 0.61875 0.0
H2687 H 0.80114 0.65522 0.63677 0.0
H2688 H 0.7682 0.74945 0.65055 0.0
H2689 H 0.75345 0.68992 0.69853 0.0
H2690 H 0.75408 0.72365 0.59797 0.0
H2691 H 0.78502 0.71423 0.5994 0.0
H2692 H 0.77656 0.74415 0.60952 0.0
H2693 H 0.73385 0.65116 0.66918 0.0
H2694 H 0.76319 0.6482 0.68257 0.0
H2695 H 0.75921 0.64193 0.65092 0.0
C2696 C 0.67978 0.57037 0.49139 0.0
C2697 C 0.68319 0.59448 0.49853 0.0
C2698 C 0.65646 0.56066 0.48917 0.0
C2699 C 0.63611 0.57545 0.49423 0.0
C2700 C 0.63944 0.59982 0.50142 0.0
C2701 C 0.66297 0.60905 0.50349 0.0
C2702 C 0.65363 0.53448 0.48166 0.0
C2703 C 0.61818 0.61604 0.50714 0.0
C2704 C 0.57756 0.54963 0.46952 0.0
C2705 C 0.56896 0.53725 0.48981 0.0
C2706 C 0.59862 0.56383 0.4711 0.0
C2707 C 0.61147 0.56482 0.49326 0.0
C2708 C 0.60189 0.55339 0.51406 0.0
C2709 C 0.58059 0.53994 0.51209 0.0
C2710 C 0.60797 0.57639 0.44875 0.0
C2711 C 0.61518 0.5535 0.5379 0.0
H2712 H 0.69535 0.55909 0.48743 0.0
H2713 H 0.66553 0.62773 0.50903 0.0
H2714 H 0.64406 0.5242 0.49603 0.0
H2715 H 0.64247 0.53334 0.46507 0.0
H2716 H 0.67129 0.52553 0.47814 0.0
H2717 H 0.62379 0.63498 0.511 0.0
H2718 H 0.60528 0.61618 0.4918 0.0
H2719 H 0.60833 0.60888 0.52309 0.0
H2720 H 0.56863 0.54717 0.45228 0.0
H2721 H 0.57396 0.52993 0.52764 0.0
H2722 H 0.62422 0.56672 0.44201 0.0
H2723 H 0.61345 0.59527 0.45298 0.0
H2724 H 0.59426 0.57681 0.4341 0.0
H2725 H 0.63186 0.54241 0.53629 0.0
H2726 H 0.60404 0.54595 0.55284 0.0
H2727 H 0.62076 0.57217 0.54278 0.0
C2728 C 0.18764 0.93618 0.49077 0.0
C2729 C 0.18878 0.91187 0.49807 0.0
C2730 C 0.16574 0.94888 0.49143 0.0
C2731 C 0.1448 0.93707 0.50008 0.0
C2732 C 0.14572 0.91233 0.50689 0.0
C2733 C 0.16777 0.89995 0.50568 0.0
C2734 C 0.16498 0.97496 0.48309 0.0
C2735 C 0.12346 0.89902 0.51553 0.0
C2736 C 0.09466 0.97365 0.52849 0.0
C2737 C 0.0773 0.97355 0.51013 0.0
C2738 C 0.11716 0.96258 0.52504 0.0
C2739 C 0.12206 0.95082 0.50287 0.0
C2740 C 0.10482 0.95126 0.48402 0.0
C2741 C 0.08276 0.96316 0.48772 0.0
C2742 C 0.13505 0.96207 0.54564 0.0
C2743 C 0.10897 0.93839 0.4603 0.0
H2744 H 0.20384 0.94525 0.48445 0.0
H2745 H 0.16863 0.88104 0.51108 0.0
H2746 H 0.15106 0.97715 0.46882 0.0
H2747 H 0.15976 0.98686 0.49838 0.0
H2748 H 0.18266 0.98117 0.47585 0.0
H2749 H 0.12723 0.87968 0.51983 0.0
H2750 H 0.11613 0.90794 0.53194 0.0
H2751 H 0.1092 0.8998 0.50146 0.0
H2752 H 0.09013 0.98132 0.54596 0.0
H2753 H 0.06902 0.96249 0.47379 0.0
H2754 H 0.1529 0.96885 0.53948 0.0
H2755 H 0.13765 0.94309 0.55188 0.0
H2756 H 0.12898 0.97318 0.56124 0.0
H2757 H 0.11719 0.95132 0.44729 0.0
H2758 H 0.09165 0.93184 0.45257 0.0
H2759 H 0.12126 0.92258 0.46204 0.0
C2760 C 0.35084 0.91856 0.77134 0.0
C2761 C 0.34862 0.93132 0.7496 0.0
C2762 C 0.33895 0.89643 0.77463 0.0
C2763 C 0.32536 0.88664 0.75535 0.0
C2764 C 0.32432 0.89888 0.73284 0.0
C2765 C 0.33562 0.92146 0.73039 0.0
C2766 C 0.33972 0.8843 0.7991 0.0
C2767 C 0.3103 0.88872 0.71177 0.0
C2768 C 0.30211 0.82204 0.75674 0.0
C2769 C 0.27786 0.8259 0.7631 0.0
C2770 C 0.31822 0.84161 0.75498 0.0
C2771 C 0.30972 0.86538 0.75962 0.0
C2772 C 0.28565 0.86918 0.76729 0.0
C2773 C 0.27011 0.84937 0.76918 0.0
C2774 C 0.34389 0.83704 0.74689 0.0
C2775 C 0.27589 0.89434 0.77225 0.0
H2776 H 0.36081 0.92654 0.7862 0.0
H2777 H 0.33418 0.93148 0.71357 0.0
H2778 H 0.32139 0.8845 0.80727 0.0
H2779 H 0.34522 0.86504 0.79725 0.0
H2780 H 0.35236 0.8935 0.81169 0.0
H2781 H 0.31374 0.89895 0.6948 0.0
H2782 H 0.31508 0.8694 0.70882 0.0
H2783 H 0.29066 0.88951 0.71577 0.0
H2784 H 0.30821 0.80398 0.75195 0.0
H2785 H 0.25145 0.85251 0.77433 0.0
H2786 H 0.35678 0.84567 0.75957 0.0
H2787 H 0.34683 0.84537 0.72887 0.0
H2788 H 0.34812 0.81736 0.74569 0.0
H2789 H 0.28735 0.90371 0.78575 0.0
H2790 H 0.25698 0.894 0.77902 0.0
H2791 H 0.27636 0.90532 0.75543 0.0
C2792 C 0.33942 0.10328 0.98553 0.0
C2793 C 0.321 0.09388 0.0002 0.0
C2794 C 0.36251 0.09267 0.98529 0.0
C2795 C 0.36741 0.07276 0.0007 0.0
C2796 C 0.34907 0.06392 0.01633 0.0
C2797 C 0.32592 0.0743 0.01553 0.0
C2798 C 0.38142 0.10224 0.96807 0.0
C2799 C 0.35378 0.04322 0.03364 0.0
C2800 C 0.41423 0.02425 0.9884 0.0
C2801 C 0.43205 0.03026 0.00523 0.0
C2802 C 0.39379 0.03906 0.98537 0.0
C2803 C 0.39118 0.06017 -0.00029 0.0
C2804 C 0.41019 0.06734 0.01523 0.0
C2805 C 0.43054 0.0523 0.01766 0.0
C2806 C 0.37397 0.03102 0.96846 0.0
C2807 C 0.40791 0.08935 0.03127 0.0
H2808 H 0.33553 0.11845 0.97365 0.0
H2809 H 0.31173 0.06731 0.02713 0.0
H2810 H 0.39819 0.1069 0.97798 0.0
H2811 H 0.38619 0.08794 0.9548 0.0
H2812 H 0.37511 0.11855 0.95808 0.0
H2813 H 0.33813 0.03967 0.04572 0.0
H2814 H 0.35779 0.02642 0.02338 0.0
H2815 H 0.36983 0.04726 0.04496 0.0
H2816 H 0.41506 0.00679 0.97943 0.0
H2817 H 0.44401 0.05647 0.03126 0.0
H2818 H 0.37073 0.04525 0.95463 0.0
H2819 H 0.35682 0.02845 0.97854 0.0
H2820 H 0.37838 0.01373 0.95924 0.0
H2821 H 0.40213 0.1054 0.02063 0.0
H2822 H 0.42515 0.09369 0.04059 0.0
H2823 H 0.39382 0.086 0.04517 0.0
C2824 C 0.65459 0.58375 0.73096 0.0
C2825 C 0.66194 0.56655 0.74819 0.0
C2826 C 0.66435 0.60732 0.73072 0.0
C2827 C 0.68135 0.61405 0.74857 0.0
C2828 C 0.68837 0.59688 0.76639 0.0
C2829 C 0.67889 0.57322 0.76573 0.0
C2830 C 0.65673 0.62489 0.71121 0.0
C2831 C 0.70586 0.60351 0.78624 0.0
C2832 C 0.72797 0.66417 0.74212 0.0
C2833 C 0.7182 0.68212 0.75707 0.0
C2834 C 0.71526 0.64255 0.73759 0.0
C2835 C 0.69237 0.6388 0.74852 0.0
C2836 C 0.68158 0.65785 0.76189 0.0
C2837 C 0.6946 0.67936 0.76583 0.0
C2838 C 0.72721 0.62283 0.72295 0.0
C2839 C 0.65748 0.65455 0.77428 0.0
H2840 H 0.64145 0.57864 0.71738 0.0
H2841 H 0.68432 0.56009 0.77929 0.0
H2842 H 0.64929 0.64168 0.71937 0.0
H2843 H 0.67271 0.63023 0.70032 0.0
H2844 H 0.64291 0.61703 0.69897 0.0
H2845 H 0.70874 0.58839 0.79923 0.0
H2846 H 0.72358 0.6086 0.77834 0.0
H2847 H 0.69902 0.6195 0.79632 0.0
H2848 H 0.74651 0.66593 0.73601 0.0
H2849 H 0.68735 0.69296 0.77801 0.0
H2850 H 0.71563 0.61812 0.70729 0.0
H2851 H 0.72934 0.60617 0.73402 0.0
H2852 H 0.74532 0.62827 0.71628 0.0
H2853 H 0.64385 0.64747 0.76145 0.0
H2854 H 0.65062 0.67175 0.78217 0.0
H2855 H 0.65936 0.641 0.78903 0.0
C2856 C 0.82298 0.4264 0.97835 0.0
C2857 C 0.81939 0.4065 -0.00635 0.0
C2858 C 0.84566 0.43747 0.97666 0.0
C2859 C 0.86498 0.42859 0.99093 0.0
C2860 C 0.86164 0.40804 0.00588 0.0
C2861 C 0.83883 0.39711 0.00695 0.0
C2862 C 0.84865 0.45932 0.96043 0.0
C2863 C 0.88175 0.39842 0.02168 0.0
C2864 C 0.92709 0.45461 0.97762 0.0
C2865 C 0.92708 0.47455 0.99321 0.0
C2866 C 0.90716 0.43881 0.97704 0.0
C2867 C 0.88738 0.44302 0.99278 0.0
C2868 C 0.88812 0.46232 0.00951 0.0
C2869 C 0.90787 0.47794 0.00936 0.0
C2870 C 0.9068 0.41831 0.95903 0.0
C2871 C 0.86764 0.46709 0.027 0.0
H2872 H 0.80802 0.43343 0.96781 0.0
H2873 H 0.83605 0.38161 0.01872 0.0
H2874 H 0.85138 0.47578 0.9716 0.0
H2875 H 0.86487 0.45717 0.94883 0.0
H2876 H 0.83265 0.46231 0.94867 0.0
H2877 H 0.877 0.3808 0.03023 0.0
H2878 H 0.89858 0.39607 0.01103 0.0
H2879 H 0.88571 0.4117 0.03619 0.0
H2880 H 0.94214 0.45194 0.96536 0.0
H2881 H 0.90824 0.49304 0.0219 0.0
H2882 H 0.89234 0.4216 0.94553 0.0
H2883 H 0.90257 0.40092 0.96822 0.0
H2884 H 0.92431 0.4164 0.94936 0.0
H2885 H 0.85131 0.47285 0.01687 0.0
H2886 H 0.87216 0.48147 0.04029 0.0
H2887 H 0.86296 0.4503 0.03703 0.0
C2888 C 0.34609 0.0845 0.73478 0.0
C2889 C 0.33602 0.06413 0.7461 0.0
C2890 C 0.3331 0.10621 0.73308 0.0
C2891 C 0.30966 0.10755 0.74328 0.0
C2892 C 0.29933 0.08697 0.75453 0.0
C2893 C 0.31264 0.06537 0.75569 0.0
C2894 C 0.34461 0.12778 0.72073 0.0
C2895 C 0.27439 0.08793 0.76556 0.0
C2896 C 0.2896 0.17059 0.76058 0.0
C2897 C 0.27686 0.17753 0.73993 0.0
C2898 C 0.29984 0.14746 0.76224 0.0
C2899 C 0.29647 0.13085 0.74306 0.0
C2900 C 0.28207 0.13731 0.72291 0.0
C2901 C 0.27278 0.16091 0.72136 0.0
C2902 C 0.31581 0.14153 0.78358 0.0
C2903 C 0.27788 0.11993 0.70229 0.0
H2904 H 0.36412 0.08344 0.72715 0.0
H2905 H 0.30489 0.04958 0.76445 0.0
H2906 H 0.33271 0.13464 0.70612 0.0
H2907 H 0.34698 0.14274 0.7339 0.0
H2908 H 0.36253 0.12332 0.7128 0.0
H2909 H 0.26874 0.07015 0.77316 0.0
H2910 H 0.27393 0.10165 0.7802 0.0
H2911 H 0.26102 0.09364 0.75174 0.0
H2912 H 0.29322 0.18392 0.77452 0.0
H2913 H 0.26332 0.16673 0.7052 0.0
H2914 H 0.33478 0.13949 0.77738 0.0
H2915 H 0.31031 0.12405 0.79187 0.0
H2916 H 0.31524 0.15589 0.79764 0.0
H2917 H 0.29478 0.11794 0.69166 0.0
H2918 H 0.26337 0.12636 0.68997 0.0
H2919 H 0.27296 0.10168 0.70921 0.0
C2920 C 0.18981 0.92763 0.25445 0.0
C2921 C 0.16496 0.93039 0.25855 0.0
C2922 C 0.20069 0.90456 0.25492 0.0
C2923 C 0.1864 0.88373 0.25975 0.0
C2924 C 0.16164 0.88664 0.2655 0.0
C2925 C 0.15119 0.90989 0.26468 0.0
C2926 C 0.22714 0.90232 0.24855 0.0
C2927 C 0.14591 0.865 0.27122 0.0
C2928 C 0.20499 0.82918 0.2231 0.0
C2929 C 0.2209 0.8171 0.23869 0.0
C2930 C 0.19305 0.85034 0.23012 0.0
C2931 C 0.1961 0.85915 0.2539 0.0
C2932 C 0.20999 0.84545 0.27071 0.0
C2933 C 0.22267 0.82465 0.26277 0.0
C2934 C 0.17905 0.86442 0.21124 0.0
C2935 C 0.21283 0.85354 0.29654 0.0
H2936 H 0.20062 0.94341 0.24999 0.0
H2937 H 0.13201 0.91189 0.26823 0.0
H2938 H 0.23669 0.89125 0.2623 0.0
H2939 H 0.22904 0.89291 0.23095 0.0
H2940 H 0.23616 0.92028 0.24723 0.0
H2941 H 0.12786 0.87046 0.27816 0.0
H2942 H 0.14326 0.85396 0.2547 0.0
H2943 H 0.15488 0.85321 0.2848 0.0
H2944 H 0.20357 0.82323 0.20447 0.0
H2945 H 0.23513 0.81545 0.27482 0.0
H2946 H 0.18795 0.88217 0.208 0.0
H2947 H 0.16042 0.86814 0.2176 0.0
H2948 H 0.17795 0.85464 0.19375 0.0
H2949 H 0.22713 0.86758 0.29758 0.0
H2950 H 0.21821 0.83817 0.30841 0.0
H2951 H 0.19581 0.8616 0.30353 0.0
C2952 C 0.47666 0.32611 0.41832 0.0
C2953 C 0.49842 0.31939 0.40713 0.0
C2954 C 0.47377 0.34928 0.42862 0.0
C2955 C 0.49344 0.36571 0.42859 0.0
C2956 C 0.51518 0.3592 0.41659 0.0
C2957 C 0.51724 0.33629 0.40568 0.0
C2958 C 0.44992 0.35592 0.44012 0.0
C2959 C 0.53687 0.37583 0.41652 0.0
C2960 C 0.49607 0.43175 0.44855 0.0
C2961 C 0.50601 0.42884 0.47163 0.0
C2962 C 0.48922 0.41125 0.43489 0.0
C2963 C 0.49316 0.38761 0.44446 0.0
C2964 C 0.50084 0.38502 0.46871 0.0
C2965 C 0.50677 0.40569 0.48204 0.0
C2966 C 0.47984 0.4149 0.40958 0.0
C2967 C 0.50567 0.36037 0.47974 0.0
H2968 H 0.46182 0.31329 0.41891 0.0
H2969 H 0.53399 0.33123 0.39683 0.0
H2970 H 0.45175 0.35586 0.46006 0.0
H2971 H 0.44442 0.3745 0.43464 0.0
H2972 H 0.43535 0.34301 0.43513 0.0
H2973 H 0.55185 0.36875 0.40514 0.0
H2974 H 0.53177 0.39407 0.40977 0.0
H2975 H 0.54364 0.37803 0.43526 0.0
H2976 H 0.49562 0.44965 0.44041 0.0
H2977 H 0.51449 0.40354 0.49993 0.0
H2978 H 0.46566 0.40136 0.40524 0.0
H2979 H 0.49483 0.41247 0.39648 0.0
H2980 H 0.47231 0.43344 0.40708 0.0
H2981 H 0.48959 0.34854 0.47799 0.0
H2982 H 0.51055 0.36153 0.49917 0.0
H2983 H 0.52078 0.35144 0.46997 0.0
C2984 C 0.43935 0.74079 0.18442 0.0
C2985 C 0.43989 0.74858 0.16035 0.0
C2986 C 0.41757 0.74011 0.19727 0.0
C2987 C 0.3961 0.74798 0.18588 0.0
C2988 C 0.39651 0.75564 0.16144 0.0
C2989 C 0.41845 0.75559 0.14886 0.0
C2990 C 0.41753 0.73129 0.22311 0.0
C2991 C 0.37395 0.7645 0.14881 0.0
C2992 C 0.33431 0.73308 0.21109 0.0
C2993 C 0.32842 0.75497 0.22244 0.0
C2994 C 0.35669 0.7302 0.19956 0.0
C2995 C 0.37344 0.74958 0.1999 0.0
C2996 C 0.36797 0.77123 0.21247 0.0
C2997 C 0.3454 0.77368 0.22355 0.0
C2998 C 0.36182 0.70709 0.18583 0.0
C2999 C 0.38518 0.79249 0.21263 0.0
H3000 H 0.45594 0.73506 0.19316 0.0
H3001 H 0.41894 0.76161 0.1302 0.0
H3002 H 0.41177 0.74617 0.2353 0.0
H3003 H 0.40431 0.71631 0.22526 0.0
H3004 H 0.43561 0.72476 0.22897 0.0
H3005 H 0.37714 0.76842 0.12937 0.0
H3006 H 0.35933 0.75082 0.1503 0.0
H3007 H 0.36736 0.78131 0.15764 0.0
H3008 H 0.32067 0.71907 0.20941 0.0
H3009 H 0.34037 0.79081 0.23177 0.0
H3010 H 0.37692 0.69721 0.19464 0.0
H3011 H 0.36756 0.71119 0.16706 0.0
H3012 H 0.3458 0.69499 0.18504 0.0
H3013 H 0.40325 0.78669 0.21912 0.0
H3014 H 0.37863 0.80755 0.22425 0.0
H3015 H 0.38748 0.7995 0.19397 0.0
C3016 C 0.98532 0.67114 0.91627 0.0
C3017 C 0.00385 0.68065 0.902 0.0
C3018 C 0.9869 0.64747 0.9256 0.0
C3019 C 0.00794 0.63331 0.92123 0.0
C3020 C 0.02668 0.64291 0.90665 0.0
C3021 C 0.02422 0.66638 0.89687 0.0
C3022 C 0.96613 0.63772 0.94043 0.0
C3023 C 0.04946 0.62861 0.90181 0.0
C3024 C 0.01334 0.58802 0.97196 0.0
C3025 C 0.00018 0.56858 0.96249 0.0
C3026 C 0.01861 0.60844 0.95772 0.0
C3027 C 0.01053 0.60926 0.93345 0.0
C3028 C 0.00049 0.58811 0.92293 0.0
C3029 C -0.00475 0.56798 0.93771 0.0
C3030 C 0.02985 0.6303 0.96962 0.0
C3031 C 0.99232 0.58771 0.89695 0.0
H3032 H 0.96947 0.68215 0.91987 0.0
H3033 H 0.0385 0.67386 0.88568 0.0
H3034 H 0.96002 0.62006 0.93304 0.0
H3035 H 0.97215 0.63453 0.95928 0.0
H3036 H 0.95046 0.65035 0.94075 0.0
H3037 H 0.06217 0.6385 0.88978 0.0
H3038 H 0.05879 0.62458 0.9191 0.0
H3039 H 0.04494 0.61094 0.89339 0.0
H3040 H 0.01689 0.58857 0.99122 0.0
H3041 H 0.98483 0.55302 0.93044 0.0
H3042 H 0.01551 0.6438 0.97369 0.0
H3043 H 0.04313 0.63912 0.95743 0.0
H3044 H 0.03903 0.62543 0.98681 0.0
H3045 H 0.974 0.59584 0.89571 0.0
H3046 H 0.99137 0.56885 0.88995 0.0
H3047 H 0.00457 0.59843 0.88522 0.0
C3048 C 0.08671 0.26608 0.64899 0.0
C3049 C 0.07014 0.24731 0.65256 0.0
C3050 C 0.10901 0.26573 0.66092 0.0
C3051 C 0.11486 0.24566 0.67583 0.0
C3052 C 0.09874 0.22587 0.67796 0.0
C3053 C 0.07625 0.22718 0.66662 0.0
C3054 C 0.12548 0.28748 0.65897 0.0
C3055 C 0.1046 0.20399 0.69336 0.0
C3056 C 0.17812 0.23956 0.7013 0.0
C3057 C 0.17466 0.2487 0.72467 0.0
C3058 C 0.15878 0.23847 0.68496 0.0
C3059 C 0.13578 0.24703 0.69221 0.0
C3060 C 0.13228 0.25647 0.71565 0.0
C3061 C 0.15171 0.25706 0.7316 0.0
C3062 C 0.16285 0.22806 0.66009 0.0
C3063 C 0.10801 0.26604 0.72395 0.0
H3064 H 0.08167 0.28158 0.63798 0.0
H3065 H 0.06332 0.21257 0.66891 0.0
H3066 H 0.12663 0.29665 0.67677 0.0
H3067 H 0.14404 0.28172 0.65401 0.0
H3068 H 0.11898 0.30085 0.6454 0.0
H3069 H 0.0919 0.18875 0.69007 0.0
H3070 H 0.1233 0.19764 0.6898 0.0
H3071 H 0.10349 0.209 0.71274 0.0
H3072 H 0.19584 0.2332 0.69581 0.0
H3073 H 0.14883 0.2644 0.74952 0.0
H3074 H 0.15864 0.2419 0.64615 0.0
H3075 H 0.15046 0.21253 0.65709 0.0
H3076 H 0.18176 0.22178 0.65743 0.0
H3077 H 0.10167 0.28053 0.71153 0.0
H3078 H 0.10864 0.27352 0.74256 0.0
H3079 H 0.09438 0.2513 0.72355 0.0
C3080 C 0.4962 0.67886 0.06653 0.0
C3081 C 0.50439 0.68208 0.09018 0.0
C3082 C 0.49708 0.65597 0.05571 0.0
C3083 C 0.50643 0.63606 0.06896 0.0
C3084 C 0.51477 0.63924 0.09282 0.0
C3085 C 0.51364 0.66229 0.10319 0.0
C3086 C 0.48791 0.65304 0.03018 0.0
C3087 C 0.52494 0.61835 0.10734 0.0
C3088 C 0.48582 0.57545 0.04566 0.0
C3089 C 0.50533 0.56912 0.03098 0.0
C3090 C 0.48647 0.59672 0.05931 0.0
C3091 C 0.50706 0.61184 0.0578 0.0
C3092 C 0.52733 0.60478 0.04385 0.0
C3093 C 0.52619 0.58331 0.03048 0.0
C3094 C 0.46467 0.60367 0.07424 0.0
C3095 C 0.54945 0.62067 0.04171 0.0
H3096 H 0.48905 0.69419 0.05651 0.0
H3097 H 0.52011 0.66481 0.12149 0.0
H3098 H 0.50245 0.64562 0.01849 0.0
H3099 H 0.47275 0.63988 0.02988 0.0
H3100 H 0.48153 0.67045 0.02229 0.0
H3101 H 0.53013 0.62385 0.12592 0.0
H3102 H 0.51146 0.60351 0.10857 0.0
H3103 H 0.54112 0.61087 0.09813 0.0
H3104 H 0.46965 0.56431 0.04558 0.0
H3105 H 0.54102 0.57828 0.01866 0.0
H3106 H 0.4571 0.62112 0.06766 0.0
H3107 H 0.47007 0.60635 0.09335 0.0
H3108 H 0.45021 0.58971 0.07355 0.0
H3109 H 0.54484 0.63728 0.03133 0.0
H3110 H 0.56459 0.61128 0.03238 0.0
H3111 H 0.55568 0.62653 0.05982 0.0
C3112 C 0.08603 0.72482 0.84581 0.0
C3113 C 0.073 0.74646 0.84274 0.0
C3114 C 0.10871 0.72157 0.83481 0.0
C3115 C 0.11886 0.74075 0.82117 0.0
C3116 C 0.10588 0.76284 0.81848 0.0
C3117 C 0.0829 0.76524 0.82895 0.0
C3118 C 0.12166 0.69759 0.83751 0.0
C3119 C 0.11625 0.78399 0.80451 0.0
C3120 C 0.18439 0.75216 0.80684 0.0
C3121 C 0.18392 0.7495 0.78173 0.0
C3122 C 0.16396 0.74645 0.82081 0.0
C3123 C 0.1428 0.738 0.80914 0.0
C3124 C 0.14377 0.73171 0.78436 0.0
C3125 C 0.1645 0.73746 0.77093 0.0
C3126 C 0.16399 0.75283 0.8473 0.0
C3127 C 0.12184 0.72223 0.77124 0.0
H3128 H 0.07817 0.71019 0.85631 0.0
H3129 H 0.07281 0.78198 0.82671 0.0
H3130 H 0.1257 0.68988 0.81945 0.0
H3131 H 0.13921 0.70032 0.84677 0.0
H3132 H 0.11088 0.68418 0.84794 0.0
H3133 H 0.10416 0.8001 0.80477 0.0
H3134 H 0.13398 0.78926 0.81224 0.0
H3135 H 0.11937 0.77868 0.78544 0.0
H3136 H 0.19941 0.76164 0.81514 0.0
H3137 H 0.16416 0.73559 0.75142 0.0
H3138 H 0.15358 0.7394 0.858 0.0
H3139 H 0.15528 0.77081 0.84975 0.0
H3140 H 0.18268 0.75382 0.85458 0.0
H3141 H 0.11213 0.7086 0.78235 0.0
H3142 H 0.12677 0.71392 0.75364 0.0
H3143 H 0.10918 0.73747 0.76772 0.0
C3144 C 0.026 0.32656 0.58564 0.0
C3145 C 0.00723 0.31007 0.58164 0.0
C3146 C 0.02712 0.34832 0.57255 0.0
C3147 C 0.00835 0.35391 0.5561 0.0
C3148 C 0.98964 0.33695 0.55175 0.0
C3149 C 0.98961 0.31491 0.56427 0.0
C3150 C 0.04757 0.36579 0.57735 0.0
C3151 C 0.96868 0.3428 0.53523 0.0
C3152 C 0.9855 0.41746 0.5495 0.0
C3153 C 0.99209 0.42302 0.52568 0.0
C3154 C 0.99222 0.39564 0.56016 0.0
C3155 C 0.0057 0.37876 0.54652 0.0
C3156 C 0.01374 0.38477 0.52293 0.0
C3157 C 0.00698 0.40717 0.51274 0.0
C3158 C 0.98375 0.39026 0.5856 0.0
C3159 C 0.02876 0.36726 0.50835 0.0
H3160 H 0.0397 0.32249 0.59906 0.0
H3161 H 0.97507 0.30204 0.5615 0.0
H3162 H 0.0535 0.37488 0.56045 0.0
H3163 H 0.04137 0.38008 0.59 0.0
H3164 H 0.06335 0.35648 0.58563 0.0
H3165 H 0.95648 0.32702 0.53262 0.0
H3166 H 0.95796 0.35792 0.54302 0.0
H3167 H 0.97539 0.34886 0.51733 0.0
H3168 H 0.97492 0.43029 0.55995 0.0
H3169 H 0.01269 0.41195 0.49461 0.0
H3170 H -0.00086 0.38449 0.59706 0.0
H3171 H 0.97053 0.37513 0.5853 0.0
H3172 H 0.97501 0.40621 0.59424 0.0
H3173 H 0.04487 0.36156 0.51885 0.0
H3174 H 0.03479 0.37525 0.49093 0.0
H3175 H 0.01807 0.35069 0.50451 0.0
C3176 C 0.41772 0.24438 0.34592 0.0
C3177 C 0.43799 0.25628 0.33642 0.0
C3178 C 0.39525 0.24558 0.33431 0.0
C3179 C 0.3929 0.25919 0.31271 0.0
C3180 C 0.41309 0.27196 0.30346 0.0
C3181 C 0.43551 0.27018 0.31532 0.0
C3182 C 0.37407 0.232 0.34502 0.0
C3183 C 0.41095 0.28749 0.28109 0.0
C3184 C 0.34066 0.23681 0.27461 0.0
C3185 C 0.32205 0.25196 0.28255 0.0
C3186 C 0.36441 0.24015 0.28294 0.0
C3187 C 0.36944 0.25906 0.29956 0.0
C3188 C 0.3509 0.2756 0.30599 0.0
C3189 C 0.32735 0.27168 0.29753 0.0
C3190 C 0.38368 0.22222 0.27557 0.0
C3191 C 0.35518 0.29615 0.32345 0.0
H3192 H 0.41947 0.23377 0.36235 0.0
H3193 H 0.45105 0.27978 0.30817 0.0
H3194 H 0.35891 0.24472 0.34852 0.0
H3195 H 0.36752 0.2182 0.33201 0.0
H3196 H 0.37879 0.22272 0.36222 0.0
H3197 H 0.42812 0.29695 0.27666 0.0
H3198 H 0.40564 0.27609 0.26547 0.0
H3199 H 0.39653 0.30128 0.28363 0.0
H3200 H 0.33636 0.22141 0.26324 0.0
H3201 H 0.31276 0.28328 0.30376 0.0
H3202 H 0.38823 0.21044 0.2912 0.0
H3203 H 0.40043 0.23183 0.27013 0.0
H3204 H 0.37771 0.2105 0.2604 0.0
H3205 H 0.35194 0.28954 0.34213 0.0
H3206 H 0.34249 0.31141 0.32001 0.0
H3207 H 0.37396 0.30309 0.32243 0.0
C3208 C 0.41812 0.47418 0.32218 0.0
C3209 C 0.41767 0.49534 0.30814 0.0
C3210 C 0.4297 0.47382 0.34477 0.0
C3211 C 0.44 0.49548 0.35389 0.0
C3212 C 0.44002 0.51672 0.33939 0.0
C3213 C 0.42926 0.51624 0.31644 0.0
C3214 C 0.42997 0.45059 0.35926 0.0
C3215 C 0.44998 0.5404 0.34875 0.0
C3216 C 0.43681 0.50798 0.4209 0.0
C3217 C 0.46112 0.50622 0.42805 0.0
C3218 C 0.42971 0.50351 0.3971 0.0
C3219 C 0.44733 0.49715 0.37972 0.0
C3220 C 0.47179 0.49428 0.38688 0.0
C3221 C 0.47842 0.49876 0.41107 0.0
C3222 C 0.40334 0.50636 0.39046 0.0
C3223 C 0.49091 0.48682 0.36892 0.0
H3224 H 0.40928 0.45796 0.31553 0.0
H3225 H 0.4287 0.53259 0.30553 0.0
H3226 H 0.4482 0.44731 0.36695 0.0
H3227 H 0.41715 0.45208 0.37461 0.0
H3228 H 0.42473 0.43467 0.34817 0.0
H3229 H 0.44994 0.55486 0.33475 0.0
H3230 H 0.4389 0.54664 0.36428 0.0
H3231 H 0.46873 0.53786 0.35536 0.0
H3232 H 0.42309 0.51291 0.43399 0.0
H3233 H 0.49713 0.49685 0.41655 0.0
H3234 H 0.39648 0.48946 0.38209 0.0
H3235 H 0.40128 0.52112 0.37695 0.0
H3236 H 0.39183 0.51064 0.40634 0.0
H3237 H 0.48589 0.46928 0.36052 0.0
H3238 H 0.509 0.48491 0.37741 0.0
H3239 H 0.49209 0.50044 0.35419 0.0
C3240 C 0.23084 0.64571 0.08215 0.0
C3241 C 0.25158 0.64981 0.06823 0.0
C3242 C 0.22871 0.65555 0.1053 0.0
C3243 C 0.24805 0.66925 0.11481 0.0
C3244 C 0.26984 0.67171 0.10155 0.0
C3245 C 0.27119 0.66229 0.0781 0.0
C3246 C 0.20505 0.65298 0.11868 0.0
C3247 C 0.29114 0.68556 0.11152 0.0
C3248 C 0.23343 0.72428 0.15217 0.0
C3249 C 0.24032 0.71673 0.17533 0.0
C3250 C 0.23523 0.70862 0.13249 0.0
C3251 C 0.24389 0.68474 0.13615 0.0
C3252 C 0.24937 0.67643 0.15974 0.0
C3253 C 0.24735 0.69259 0.1792 0.0
C3254 C 0.22929 0.71818 0.10756 0.0
C3255 C 0.25856 0.65101 0.16421 0.0
H3256 H 0.21575 0.63585 0.07444 0.0
H3257 H 0.28743 0.66487 0.06743 0.0
H3258 H 0.20823 0.64819 0.13788 0.0
H3259 H 0.19532 0.67059 0.11835 0.0
H3260 H 0.19321 0.63899 0.11045 0.0
H3261 H 0.3078 0.68256 0.10069 0.0
H3262 H 0.28698 0.70526 0.11146 0.0
H3263 H 0.29474 0.68016 0.1305 0.0
H3264 H 0.22778 0.7429 0.14921 0.0
H3265 H 0.25279 0.68677 0.19712 0.0
H3266 H 0.21634 0.70594 0.09836 0.0
H3267 H 0.24597 0.71878 0.09642 0.0
H3268 H 0.22139 0.73672 0.10807 0.0
H3269 H 0.2451 0.63759 0.15782 0.0
H3270 H 0.26231 0.64754 0.18364 0.0
H3271 H 0.27543 0.6479 0.1538 0.0
C3272 C 0.06948 0.52253 0.81444 0.0
C3273 C 0.07968 0.50028 0.80765 0.0
C3274 C 0.05799 0.52509 0.83687 0.0
C3275 C 0.05612 0.50468 0.85228 0.0
C3276 C 0.06518 0.48184 0.84474 0.0
C3277 C 0.07726 0.48003 0.82262 0.0
C3278 C 0.04943 0.54988 0.84474 0.0
C3279 C 0.06328 0.4596 0.86062 0.0
C3280 C 0.05844 0.50849 0.91982 0.0
C3281 C 0.03477 0.50197 0.9261 0.0
C3282 C 0.06518 0.51136 0.89573 0.0
C3283 C 0.04776 0.50751 0.87748 0.0
C3284 C 0.02332 0.50309 0.88376 0.0
C3285 C 0.017 0.50047 0.90822 0.0
C3286 C 0.09138 0.51651 0.8899 0.0
C3287 C 0.0043 0.49935 0.86463 0.0
H3288 H 0.07174 0.53824 0.80284 0.0
H3289 H 0.08518 0.46288 0.81718 0.0
H3290 H 0.03089 0.54888 0.85229 0.0
H3291 H 0.06139 0.55675 0.85928 0.0
H3292 H 0.04963 0.56318 0.82964 0.0
H3293 H 0.06893 0.44282 0.85105 0.0
H3294 H 0.07494 0.46185 0.87676 0.0
H3295 H 0.04443 0.45725 0.86708 0.0
H3296 H 0.07205 0.51037 0.93379 0.0
H3297 H -0.00137 0.49579 0.9132 0.0
H3298 H 0.09289 0.53071 0.87576 0.0
H3299 H 0.10002 0.49981 0.88276 0.0
H3300 H 0.10168 0.52248 0.90605 0.0
H3301 H 0.0052 0.51401 0.8509 0.0
H3302 H 0.98579 0.49887 0.87239 0.0
H3303 H 0.00775 0.48195 0.85517 0.0
C3304 C 0.2606 0.34838 0.59128 0.0
C3305 C 0.24159 0.34631 0.5748 0.0
C3306 C 0.25903 0.33761 0.61421 0.0
C3307 C 0.23752 0.32536 0.62104 0.0
C3308 C 0.21739 0.32554 0.6053 0.0
C3309 C 0.21987 0.33545 0.58204 0.0
C3310 C 0.28105 0.33775 0.63032 0.0
C3311 C 0.19364 0.31429 0.61268 0.0
C3312 C 0.25189 0.26901 0.65649 0.0
C3313 C 0.25229 0.27787 0.68014 0.0
C3314 C 0.24541 0.28392 0.63716 0.0
C3315 C 0.23821 0.30814 0.64175 0.0
C3316 C 0.23543 0.31614 0.66596 0.0
C3317 C 0.24289 0.30091 0.68504 0.0
C3318 C 0.24916 0.27456 0.61175 0.0
C3319 C 0.22661 0.34132 0.67182 0.0
H3320 H 0.27721 0.35721 0.58571 0.0
H3321 H 0.20486 0.33466 0.56948 0.0
H3322 H 0.27631 0.34499 0.64837 0.0
H3323 H 0.28771 0.31891 0.63288 0.0
H3324 H 0.29598 0.34887 0.62271 0.0
H3325 H 0.17874 0.31953 0.60027 0.0
H3326 H 0.19524 0.29423 0.61264 0.0
H3327 H 0.18881 0.31987 0.63133 0.0
H3328 H 0.25917 0.25108 0.65285 0.0
H3329 H 0.24335 0.3078 0.70336 0.0
H3330 H 0.26371 0.28512 0.60276 0.0
H3331 H 0.2325 0.27688 0.6009 0.0
H3332 H 0.2543 0.25507 0.61142 0.0
H3333 H 0.24229 0.35375 0.67324 0.0
H3334 H 0.21713 0.34144 0.68951 0.0
H3335 H 0.21424 0.34841 0.6577 0.0
C3336 C 0.39737 0.51764 0.15789 0.0
C3337 C 0.41016 0.50531 0.17606 0.0
C3338 C 0.40695 0.52005 0.1345 0.0
C3339 C 0.42948 0.50923 0.12907 0.0
C3340 C 0.44293 0.49773 0.1477 0.0
C3341 C 0.4332 0.49617 0.17104 0.0
C3342 C 0.39252 0.53328 0.11544 0.0
C3343 C 0.46704 0.48581 0.14271 0.0
C3344 C 0.44373 0.47862 0.07032 0.0
C3345 C 0.4642 0.49159 0.06309 0.0
C3346 C 0.43047 0.48565 0.09065 0.0
C3347 C 0.43765 0.50656 0.1036 0.0
C3348 C 0.45604 0.52174 0.0941 0.0
C3349 C 0.46936 0.51392 0.07387 0.0
C3350 C 0.41124 0.46868 0.10018 0.0
C3351 C 0.46322 0.54484 0.10676 0.0
H3352 H 0.3797 0.5252 0.16186 0.0
H3353 H 0.44321 0.48689 0.18513 0.0
H3354 H 0.40447 0.54477 0.10409 0.0
H3355 H 0.38367 0.51996 0.10335 0.0
H3356 H 0.37822 0.54487 0.12354 0.0
H3357 H 0.47548 0.47832 0.15933 0.0
H3358 H 0.46463 0.47081 0.12959 0.0
H3359 H 0.47971 0.49906 0.13452 0.0
H3360 H 0.43992 0.46127 0.06191 0.0
H3361 H 0.48534 0.52383 0.06829 0.0
H3362 H 0.39484 0.47886 0.10559 0.0
H3363 H 0.41818 0.45919 0.11647 0.0
H3364 H 0.40601 0.45479 0.08665 0.0
H3365 H 0.44717 0.55674 0.10891 0.0
H3366 H 0.47746 0.55489 0.09676 0.0
H3367 H 0.47007 0.54071 0.12514 0.0
C3368 C 0.26033 0.65166 0.91255 0.0
C3369 C 0.2502 0.66161 0.9335 0.0
C3370 C 0.25813 0.66351 0.89027 0.0
C3371 C 0.24535 0.68575 0.88896 0.0
C3372 C 0.23395 0.6952 0.90979 0.0
C3373 C 0.23671 0.68311 0.93194 0.0
C3374 C 0.27024 0.65266 0.86832 0.0
C3375 C 0.21943 0.71838 0.90876 0.0
C3376 C 0.27026 0.72531 0.83921 0.0
C3377 C 0.254 0.72052 0.8206 0.0
C3378 C 0.26644 0.71561 0.8623 0.0
C3379 C 0.24633 0.70021 0.86639 0.0
C3380 C 0.22908 0.69656 0.84787 0.0
C3381 C 0.23309 0.707 0.82514 0.0
C3382 C 0.28492 0.72031 0.8818 0.0
C3383 C 0.20762 0.67998 0.8512 0.0
H3384 H 0.27044 0.63483 0.91365 0.0
H3385 H 0.2283 0.69047 0.94804 0.0
H3386 H 0.25735 0.65173 0.85301 0.0
H3387 H 0.2855 0.6644 0.8626 0.0
H3388 H 0.27736 0.63413 0.87187 0.0
H3389 H 0.20969 0.72197 0.92595 0.0
H3390 H 0.23165 0.73387 0.90495 0.0
H3391 H 0.20606 0.71758 0.89386 0.0
H3392 H 0.28651 0.73562 0.83539 0.0
H3393 H 0.22073 0.70318 0.81042 0.0
H3394 H 0.29528 0.70343 0.88542 0.0
H3395 H 0.27583 0.72561 0.89887 0.0
H3396 H 0.29785 0.73482 0.8766 0.0
H3397 H 0.21362 0.66088 0.84909 0.0
H3398 H 0.19334 0.6836 0.83755 0.0
H3399 H 0.19969 0.68185 0.86951 0.0
C3400 C 0.09823 0.523 0.66586 0.0
C3401 C 0.09677 0.50167 0.67952 0.0
C3402 C 0.08711 0.52446 0.64328 0.0
C3403 C 0.07487 0.50394 0.63425 0.0
C3404 C 0.07503 0.48179 0.64719 0.0
C3405 C 0.08565 0.48104 0.67005 0.0
C3406 C 0.08758 0.54813 0.62952 0.0
C3407 C 0.06342 0.45917 0.63715 0.0
C3408 C 0.01974 0.51035 0.59545 0.0
C3409 C 0.02899 0.50476 0.5726 0.0
C3410 C 0.03487 0.51134 0.61551 0.0
C3411 C 0.05973 0.5062 0.61257 0.0
C3412 C 0.0694 0.5017 0.58934 0.0
C3413 C 0.05381 0.50131 0.56945 0.0
C3414 C 0.02405 0.51674 0.64 0.0
C3415 C 0.09578 0.49622 0.58517 0.0
H3416 H 0.10717 0.53883 0.67326 0.0
H3417 H 0.0852 0.4644 0.68053 0.0
H3418 H 0.09486 0.5451 0.61108 0.0
H3419 H 0.06889 0.55521 0.62756 0.0
H3420 H 0.09876 0.5621 0.63866 0.0
H3421 H 0.06736 0.44288 0.64835 0.0
H3422 H 0.04354 0.46164 0.63627 0.0
H3423 H 0.06995 0.45584 0.61847 0.0
H3424 H 0.00047 0.51328 0.59773 0.0
H3425 H 0.06085 0.49692 0.55175 0.0
H3426 H 0.03459 0.53112 0.64923 0.0
H3427 H 0.02485 0.50024 0.65149 0.0
H3428 H 0.0049 0.52268 0.63875 0.0
H3429 H 0.10346 0.51026 0.57301 0.0
H3430 H 0.09747 0.47843 0.57595 0.0
H3431 H 0.10677 0.49567 0.60189 0.0
C3432 C 0.23789 0.35903 0.4172 0.0
C3433 C 0.24587 0.34476 0.43665 0.0
C3434 C 0.23732 0.34978 0.39365 0.0
C3435 C 0.24496 0.32569 0.38943 0.0
C3436 C 0.25416 0.31155 0.40879 0.0
C3437 C 0.25438 0.32123 0.43224 0.0
C3438 C 0.22756 0.36543 0.37347 0.0
C3439 C 0.26311 0.28597 0.40483 0.0
C3440 C 0.21646 0.28882 0.33941 0.0
C3441 C 0.23478 0.28871 0.32199 0.0
C3442 C 0.21917 0.30179 0.36097 0.0
C3443 C 0.24099 0.31444 0.36539 0.0
C3444 C 0.25917 0.31523 0.34736 0.0
C3445 C 0.25564 0.30262 0.32564 0.0
C3446 C 0.19931 0.30063 0.37969 0.0
C3447 C 0.28286 0.32814 0.35154 0.0
H3448 H 0.23156 0.37736 0.42044 0.0
H3449 H 0.26097 0.3103 0.44715 0.0
H3450 H 0.24025 0.3655 0.35794 0.0
H3451 H 0.21019 0.3578 0.36697 0.0
H3452 H 0.22443 0.38445 0.37929 0.0
H3453 H 0.27172 0.27824 0.42126 0.0
H3454 H 0.24777 0.27416 0.39959 0.0
H3455 H 0.27641 0.28555 0.38981 0.0
H3456 H 0.20059 0.2776 0.33673 0.0
H3457 H 0.27012 0.30186 0.31245 0.0
H3458 H 0.19445 0.31916 0.38581 0.0
H3459 H 0.20578 0.29041 0.39572 0.0
H3460 H 0.18279 0.2916 0.37272 0.0
H3461 H 0.27967 0.34797 0.35261 0.0
H3462 H 0.29615 0.3246 0.33689 0.0
H3463 H 0.29096 0.32237 0.36896 0.0
C3464 C 0.33447 0.39127 0.49686 0.0
C3465 C 0.31442 0.40593 0.50223 0.0
C3466 C 0.35794 0.4009 0.49665 0.0
C3467 C 0.36136 0.42571 0.50207 0.0
C3468 C 0.34109 0.44079 0.50659 0.0
C3469 C 0.31784 0.43069 0.50662 0.0
C3470 C 0.37908 0.38438 0.49137 0.0
C3471 C 0.344 0.46751 0.51189 0.0
C3472 C 0.41864 0.45062 0.53001 0.0
C3473 C 0.42925 0.46196 0.51011 0.0
C3474 C 0.39735 0.43707 0.52723 0.0
C3475 C 0.38611 0.43585 0.50423 0.0
C3476 C 0.39748 0.44648 0.48391 0.0
C3477 C 0.41917 0.45912 0.48709 0.0
C3478 C 0.386 0.42541 0.54917 0.0
C3479 C 0.38587 0.44616 0.45922 0.0
H3480 H 0.33188 0.37215 0.49313 0.0
H3481 H 0.30237 0.44213 0.51052 0.0
H3482 H 0.39063 0.39224 0.47697 0.0
H3483 H 0.39045 0.38256 0.50777 0.0
H3484 H 0.37321 0.366 0.48563 0.0
H3485 H 0.32635 0.47693 0.51382 0.0
H3486 H 0.35438 0.4699 0.52886 0.0
H3487 H 0.35441 0.47642 0.49721 0.0
H3488 H 0.42635 0.45327 0.54781 0.0
H3489 H 0.42731 0.46845 0.47183 0.0
H3490 H 0.38091 0.40637 0.54518 0.0
H3491 H 0.36921 0.4353 0.55403 0.0
H3492 H 0.39832 0.42556 0.565 0.0
H3493 H 0.38173 0.42728 0.45375 0.0
H3494 H 0.39755 0.45458 0.44517 0.0
H3495 H 0.36848 0.4562 0.45979 0.0
C3496 C 0.8196 0.06599 0.48887 0.0
C3497 C 0.81668 0.08796 0.50107 0.0
C3498 C 0.84159 0.05352 0.48982 0.0
C3499 C 0.86078 0.06304 0.50379 0.0
C3500 C 0.85767 0.08488 0.51678 0.0
C3501 C 0.83563 0.09726 0.51505 0.0
C3502 C 0.84469 0.03083 0.47485 0.0
C3503 C 0.8779 0.09578 0.53151 0.0
C3504 C 0.91298 0.01912 0.51179 0.0
C3505 C 0.92689 0.02515 0.49153 0.0
C3506 C 0.89175 0.03222 0.517 0.0
C3507 C 0.8849 0.05179 0.50179 0.0
C3508 C 0.89993 0.05896 0.48248 0.0
C3509 C 0.92051 0.04545 0.4775 0.0
C3510 C 0.87625 0.02474 0.53816 0.0
C3511 C 0.89375 0.08014 0.46617 0.0
H3512 H 0.80497 0.05899 0.4779 0.0
H3513 H 0.83327 0.11429 0.52455 0.0
H3514 H 0.85822 0.03414 0.4604 0.0
H3515 H 0.85161 0.01578 0.48626 0.0
H3516 H 0.82753 0.02499 0.46624 0.0
H3517 H 0.87131 0.11035 0.5437 0.0
H3518 H 0.88707 0.08166 0.54249 0.0
H3519 H 0.89165 0.10373 0.51922 0.0
H3520 H 0.91836 0.004 0.52314 0.0
H3521 H 0.93175 0.05105 0.46243 0.0
H3522 H 0.85889 0.01728 0.53145 0.0
H3523 H 0.87188 0.04074 0.5495 0.0
H3524 H 0.88522 0.01081 0.5496 0.0
H3525 H 0.87835 0.07513 0.45437 0.0
H3526 H 0.90919 0.08547 0.45445 0.0
H3527 H 0.88818 0.09618 0.47686 0.0
C3528 C 0.64229 0.0894 0.2492 0.0
C3529 C 0.65742 0.06901 0.24953 0.0
C3530 C 0.65198 0.11272 0.24748 0.0
C3531 C 0.67732 0.11551 0.2464 0.0
C3532 C 0.69272 0.09506 0.2481 0.0
C3533 C 0.68253 0.07191 0.24939 0.0
C3534 C 0.63518 0.13431 0.2463 0.0
C3535 C 0.7199 0.09762 0.24819 0.0
C3536 C 0.70802 0.16786 0.21526 0.0
C3537 C 0.71399 0.18232 0.23502 0.0
C3538 C 0.6943 0.1468 0.2186 0.0
C3539 C 0.68782 0.13968 0.24235 0.0
C3540 C 0.69311 0.15483 0.26222 0.0
C3541 C 0.70577 0.1763 0.25815 0.0
C3542 C 0.68787 0.13149 0.19694 0.0
C3543 C 0.68762 0.14764 0.288 0.0
H3544 H 0.62283 0.08712 0.24959 0.0
H3545 H 0.69419 0.05609 0.25004 0.0
H3546 H 0.6389 0.14674 0.26159 0.0
H3547 H 0.63843 0.14463 0.22937 0.0
H3548 H 0.61585 0.12893 0.24702 0.0
H3549 H 0.7292 0.08005 0.25153 0.0
H3550 H 0.72612 0.10488 0.23055 0.0
H3551 H 0.7255 0.11072 0.26232 0.0
H3552 H 0.71472 0.17261 0.19745 0.0
H3553 H 0.71093 0.18745 0.27341 0.0
H3554 H 0.66848 0.12638 0.19756 0.0
H3555 H 0.69858 0.11446 0.19722 0.0
H3556 H 0.69152 0.14108 0.17965 0.0
H3557 H 0.68469 0.16391 0.29947 0.0
H3558 H 0.7034 0.13765 0.29543 0.0
H3559 H 0.67157 0.13572 0.28948 0.0
C3560 C 0.67187 0.92859 0.00131 0.0
C3561 C 0.67644 0.90455 0.00806 0.0
C3562 C 0.64812 0.93755 0.00034 0.0
C3563 C 0.6285 0.92214 0.00649 0.0
C3564 C 0.63309 0.89815 0.01428 0.0
C3565 C 0.65701 0.88959 0.01486 0.0
C3566 C 0.64397 0.96326 0.99176 0.0
C3567 C 0.61271 0.88126 0.02114 0.0
C3568 C 0.57169 0.9597 0.01248 0.0
C3569 C 0.56433 0.96006 0.98838 0.0
C3570 C 0.59119 0.94497 0.0197 0.0
C3571 C 0.60334 0.93066 0.00221 0.0
C3572 C 0.5934 0.92833 0.9788 0.0
C3573 C 0.57387 0.94302 0.97223 0.0
C3574 C 0.60042 0.94707 0.0452 0.0
C3575 C 0.60535 0.91301 0.95958 0.0
H3576 H 0.68679 0.9402 -0.00392 0.0
H3577 H 0.66043 0.87099 0.02026 0.0
H3578 H 0.63363 0.96308 0.97458 0.0
H3579 H 0.63305 0.97337 0.00522 0.0
H3580 H 0.66116 0.9732 0.98869 0.0
H3581 H 0.6194 0.86438 0.02988 0.0
H3582 H 0.59991 0.89042 0.0336 0.0
H3583 H 0.60239 0.87618 0.00475 0.0
H3584 H 0.56409 0.9727 0.02494 0.0
H3585 H 0.56788 0.94318 0.95357 0.0
H3586 H 0.61452 0.96136 0.04588 0.0
H3587 H 0.60863 0.92982 0.05151 0.0
H3588 H 0.58565 0.95226 0.05779 0.0
H3589 H 0.62164 0.92256 0.95276 0.0
H3590 H 0.59308 0.90968 0.94405 0.0
H3591 H 0.61127 0.89528 0.967 0.0
C3592 C 0.32259 0.42427 0.24097 0.0
C3593 C 0.34608 0.42869 0.24918 0.0
C3594 C 0.31268 0.40078 0.24178 0.0
C3595 C 0.32622 0.3814 0.25199 0.0
C3596 C 0.34946 0.38613 0.26159 0.0
C3597 C 0.35932 0.4096 0.25957 0.0
C3598 C 0.28813 0.39652 0.23066 0.0
C3599 C 0.3642 0.36632 0.27338 0.0
C3600 C 0.28566 0.32627 0.26014 0.0
C3601 C 0.28942 0.31459 0.23802 0.0
C3602 C 0.29947 0.34686 0.2664 0.0
C3603 C 0.31693 0.35599 0.2499 0.0
C3604 C 0.32252 0.34243 0.22893 0.0
C3605 C 0.30887 0.32177 0.22345 0.0
C3606 C 0.29394 0.36007 0.28958 0.0
C3607 C 0.34065 0.35138 0.21054 0.0
H3608 H 0.31234 0.439 0.23294 0.0
H3609 H 0.3774 0.41307 0.26626 0.0
H3610 H 0.28976 0.38342 0.21554 0.0
H3611 H 0.2757 0.38846 0.2442 0.0
H3612 H 0.27986 0.4135 0.22364 0.0
H3613 H 0.37962 0.37377 0.28384 0.0
H3614 H 0.35275 0.35525 0.28564 0.0
H3615 H 0.37153 0.35399 0.25936 0.0
H3616 H 0.27047 0.32089 0.2713 0.0
H3617 H 0.3117 0.31274 0.20628 0.0
H3618 H 0.28631 0.37824 0.28552 0.0
H3619 H 0.31085 0.36289 0.29997 0.0
H3620 H 0.28082 0.35002 0.30101 0.0
H3621 H 0.33294 0.36721 0.20079 0.0
H3622 H 0.34527 0.3372 0.19705 0.0
H3623 H 0.35753 0.35745 0.21939 0.0
C3624 C 0.18037 0.57428 0.01413 0.0
C3625 C 0.18417 0.5949 -0.0001 0.0
C3626 C 0.15714 0.56497 0.01735 0.0
C3627 C 0.13743 0.57627 0.00554 0.0
C3628 C 0.14109 0.59738 0.99145 0.0
C3629 C 0.16453 0.60667 0.98901 0.0
C3630 C 0.15386 0.54247 0.03264 0.0
C3631 C 0.12045 0.60956 0.9783 0.0
C3632 C 0.09026 0.52992 0.99118 0.0
C3633 C 0.0741 0.53304 0.01034 0.0
C3634 C 0.11004 0.54522 0.98837 0.0
C3635 C 0.11385 0.56384 0.00546 0.0
C3636 C 0.09674 0.56801 0.02409 0.0
C3637 C 0.07674 0.55246 0.02626 0.0
C3638 C 0.1276 0.54043 0.96798 0.0
C3639 C 0.10031 0.58786 0.04246 0.0
H3640 H 0.19557 0.5655 0.02289 0.0
H3641 H 0.16758 0.62276 0.97814 0.0
H3642 H 0.13905 0.54518 0.04589 0.0
H3643 H 0.14873 0.52699 0.02094 0.0
H3644 H 0.17057 0.53751 0.04261 0.0
H3645 H 0.1262 0.62646 0.96897 0.0
H3646 H 0.11282 0.59697 0.96468 0.0
H3647 H 0.10571 0.61401 0.99114 0.0
H3648 H 0.08764 0.51507 0.97862 0.0
H3649 H 0.0638 0.5549 0.04078 0.0
H3650 H 0.14467 0.53295 0.97544 0.0
H3651 H 0.1321 0.55753 0.9584 0.0
H3652 H 0.12031 0.52729 0.95465 0.0
H3653 H 0.11506 0.5826 0.055 0.0
H3654 H 0.08368 0.59121 0.05322 0.0
H3655 H 0.1058 0.60501 0.03352 0.0
C3656 C 0.66628 0.92412 0.22133 0.0
C3657 C 0.66818 0.93936 0.24143 0.0
C3658 C 0.67892 0.90213 0.22059 0.0
C3659 C 0.69292 0.89518 0.24081 0.0
C3660 C 0.6952 0.91083 0.26093 0.0
C3661 C 0.68308 0.93303 0.26078 0.0
C3662 C 0.67644 0.88587 0.19879 0.0
C3663 C 0.70898 0.9034 0.28333 0.0
C3664 C 0.69653 0.8308 0.26113 0.0
C3665 C 0.72109 0.82566 0.25759 0.0
C3666 C 0.68669 0.8528 0.25392 0.0
C3667 C 0.70191 0.87018 0.243 0.0
C3668 C 0.72634 0.86452 0.23773 0.0
C3669 C 0.73574 0.84199 0.24501 0.0
C3670 C 0.6604 0.8579 0.25956 0.0
C3671 C 0.74267 0.88265 0.22547 0.0
H3672 H 0.65477 0.92931 0.20634 0.0
H3673 H 0.68419 0.94486 0.27638 0.0
H3674 H 0.69457 0.88052 0.19208 0.0
H3675 H 0.66682 0.86895 0.20383 0.0
H3676 H 0.66636 0.8948 0.18388 0.0
H3677 H 0.71011 0.91828 0.29679 0.0
H3678 H 0.69989 0.88767 0.29198 0.0
H3679 H 0.72757 0.89762 0.27851 0.0
H3680 H 0.6849 0.81758 0.26985 0.0
H3681 H 0.75452 0.83751 0.24162 0.0
H3682 H 0.65099 0.86541 0.24354 0.0
H3683 H 0.65922 0.87164 0.27415 0.0
H3684 H 0.65059 0.84137 0.26557 0.0
H3685 H 0.7338 0.89007 0.20908 0.0
H3686 H 0.76031 0.87454 0.22027 0.0
H3687 H 0.74607 0.89811 0.23783 0.0
C3688 C 0.85537 0.08481 0.7289 0.0
C3689 C 0.84446 0.06611 0.74231 0.0
C3690 C 0.8448 0.10797 0.72739 0.0
C3691 C 0.82319 0.11276 0.7402 0.0
C3692 C 0.81179 0.09374 0.75326 0.0
C3693 C 0.82241 0.07057 0.75389 0.0
C3694 C 0.85711 0.12746 0.71264 0.0
C3695 C 0.78883 0.09811 0.76742 0.0
C3696 C 0.80845 0.17371 0.7674 0.0
C3697 C 0.78734 0.17983 0.7549 0.0
C3698 C 0.82164 0.15285 0.76143 0.0
C3699 C 0.81364 0.13799 0.7422 0.0
C3700 C 0.79404 0.14581 0.72762 0.0
C3701 C 0.78092 0.16667 0.7343 0.0
C3702 C 0.84218 0.14516 0.77772 0.0
C3703 C 0.78553 0.1309 0.70646 0.0
H3704 H 0.87225 0.08135 0.71955 0.0
H3705 H 0.81386 0.05614 0.76411 0.0
H3706 H 0.84372 0.1375 0.70153 0.0
H3707 H 0.86578 0.14077 0.72487 0.0
H3708 H 0.87124 0.11985 0.70055 0.0
H3709 H 0.78204 0.08135 0.77628 0.0
H3710 H 0.79211 0.11199 0.78154 0.0
H3711 H 0.77449 0.10525 0.75535 0.0
H3712 H 0.8131 0.18372 0.7836 0.0
H3713 H 0.76426 0.17112 0.72499 0.0
H3714 H 0.85808 0.13944 0.76695 0.0
H3715 H 0.83639 0.12935 0.78874 0.0
H3716 H 0.8478 0.15991 0.79015 0.0
H3717 H 0.80086 0.12736 0.69401 0.0
H3718 H 0.77076 0.14001 0.69632 0.0
H3719 H 0.77884 0.11304 0.71283 0.0
loop_
_geom_bond_atom_site_label_1
_geom_bond_atom_site_label_2
_geom_bond_distance
_geom_bond_site_symmetry_2
_ccdc_geom_bond_type
In0 O1 2.293 . S
In0 O2 2.326 . S
In0 O6 2.266 . S
In0 O7 2.326 . S
In0 O8 2.266 . S
In0 O9 2.326 . S
In0 O11 2.294 1_455 S
In0 O12 2.326 1_455 S
O1 In0 2.293 . S
O1 C10 1.240 1_455 S
O2 In0 2.326 . S
O2 C10 1.252 1_455 S
C3 O6 1.252 . S
C3 O7 1.260 . S
C4 O11 1.240 . S
C4 O12 1.252 . S
C5 O8 1.252 . S
C5 O9 1.260 . S
O6 In0 2.266 . S
O6 C3 1.252 . S
O7 In0 2.326 . S
O7 C3 1.260 . S
O8 In0 2.266 . S
O8 C5 1.252 . S
O9 In0 2.326 . S
O9 C5 1.260 . S
C10 O1 1.240 1_655 S
C10 O2 1.252 1_655 S
O11 In0 2.294 1_655 S
O11 C4 1.240 . S
O12 In0 2.326 1_655 S
O12 C4 1.252 . S
In13 O14 2.294 . S
In13 O15 2.326 . S
In13 O19 2.266 1_455 S
In13 O20 2.326 1_455 S
In13 O21 2.266 . S
In13 O22 2.326 . S
In13 O24 2.294 . S
In13 O25 2.326 . S
O14 In13 2.294 . S
O14 C23 1.240 . S
O15 In13 2.326 . S
O15 C23 1.252 . S
C16 O19 1.252 . S
C16 O20 1.260 . S
C17 O24 1.240 . S
C17 O25 1.252 . S
C18 O21 1.252 . S
C18 O22 1.260 . S
O19 In13 2.266 1_655 S
O19 C16 1.252 . S
O20 In13 2.326 1_655 S
O20 C16 1.260 . S
O21 In13 2.266 . S
O21 C18 1.252 . S
O22 In13 2.326 . S
O22 C18 1.260 . S
C23 O14 1.240 . S
C23 O15 1.252 . S
O24 In13 2.294 . S
O24 C17 1.240 . S
O25 In13 2.326 . S
O25 C17 1.252 . S
In26 O27 2.294 . S
In26 O28 2.326 . S
In26 O32 2.266 . S
In26 O33 2.326 . S
In26 O34 2.266 . S
In26 O35 2.326 . S
In26 O37 2.294 . S
In26 O38 2.326 . S
O27 In26 2.294 . S
O27 C36 1.240 . S
O28 In26 2.326 . S
O28 C36 1.252 . S
C29 O32 1.252 . S
C29 O33 1.260 . S
C30 O37 1.240 . S
C30 O38 1.252 . S
C31 O34 1.252 . S
C31 O35 1.260 . S
O32 In26 2.266 . S
O32 C29 1.252 . S
O33 In26 2.326 . S
O33 C29 1.260 . S
O34 In26 2.266 . S
O34 C31 1.252 . S
O35 In26 2.326 . S
O35 C31 1.260 . S
C36 O27 1.240 . S
C36 O28 1.252 . S
O37 In26 2.294 . S
O37 C30 1.240 . S
O38 In26 2.326 . S
O38 C30 1.252 . S
In39 O40 2.294 . S
In39 O41 2.326 . S
In39 O45 2.266 . S
In39 O46 2.326 . S
In39 O47 2.266 . S
In39 O48 2.326 . S
In39 O50 2.294 . S
In39 O51 2.326 . S
O40 In39 2.294 . S
O40 C49 1.240 . S
O41 In39 2.326 . S
O41 C49 1.252 . S
C42 O45 1.252 . S
C42 O46 1.260 . S
C43 O50 1.240 . S
C43 O51 1.252 . S
C44 O47 1.252 . S
C44 O48 1.260 . S
O45 In39 2.266 . S
O45 C42 1.252 . S
O46 In39 2.326 . S
O46 C42 1.260 . S
O47 In39 2.266 . S
O47 C44 1.252 . S
O48 In39 2.326 . S
O48 C44 1.260 . S
C49 O40 1.240 . S
C49 O41 1.252 . S
O50 In39 2.294 . S
O50 C43 1.240 . S
O51 In39 2.326 . S
O51 C43 1.252 . S
In52 O53 2.294 1_545 S
In52 O54 2.326 1_545 S
In52 O58 2.266 . S
In52 O59 2.326 . S
In52 O60 2.266 . S
In52 O61 2.326 . S
In52 O63 2.294 1_545 S
In52 O64 2.326 1_545 S
O53 In52 2.294 1_565 S
O53 C62 1.240 . S
O54 In52 2.326 1_565 S
O54 C62 1.252 . S
C55 O58 1.252 . S
C55 O59 1.260 . S
C56 O63 1.240 . S
C56 O64 1.252 . S
C57 O60 1.252 . S
C57 O61 1.260 . S
O58 In52 2.266 . S
O58 C55 1.252 . S
O59 In52 2.326 . S
O59 C55 1.260 . S
O60 In52 2.266 . S
O60 C57 1.252 . S
O61 In52 2.326 . S
O61 C57 1.260 . S
C62 O53 1.240 . S
C62 O54 1.252 . S
O63 In52 2.294 1_565 S
O63 C56 1.240 . S
O64 In52 2.326 1_565 S
O64 C56 1.252 . S
In65 O66 2.294 . S
In65 O67 2.326 . S
In65 O71 2.266 . S
In65 O72 2.326 . S
In65 O73 2.266 . S
In65 O74 2.326 . S
In65 O76 2.294 . S
In65 O77 2.326 . S
O66 In65 2.294 . S
O66 C75 1.240 . S
O67 In65 2.326 . S
O67 C75 1.252 . S
C68 O71 1.252 . S
C68 O72 1.260 . S
C69 O76 1.240 . S
C69 O77 1.252 . S
C70 O73 1.252 . S
C70 O74 1.260 . S
O71 In65 2.266 . S
O71 C68 1.252 . S
O72 In65 2.326 . S
O72 C68 1.260 . S
O73 In65 2.266 . S
O73 C70 1.252 . S
O74 In65 2.326 . S
O74 C70 1.260 . S
C75 O66 1.240 . S
C75 O67 1.252 . S
O76 In65 2.294 . S
O76 C69 1.240 . S
O77 In65 2.326 . S
O77 C69 1.252 . S
In78 O79 2.294 . S
In78 O80 2.326 . S
In78 O84 2.266 1_545 S
In78 O85 2.326 1_545 S
In78 O86 2.266 . S
In78 O87 2.326 . S
In78 O89 2.294 . S
In78 O90 2.326 . S
O79 In78 2.294 . S
O79 C88 1.240 . S
O80 In78 2.326 . S
O80 C88 1.252 . S
C81 O84 1.252 . S
C81 O85 1.260 . S
C82 O89 1.240 . S
C82 O90 1.252 . S
C83 O86 1.252 . S
C83 O87 1.260 . S
O84 In78 2.266 1_565 S
O84 C81 1.252 . S
O85 In78 2.326 1_565 S
O85 C81 1.260 . S
O86 In78 2.266 . S
O86 C83 1.252 . S
O87 In78 2.326 . S
O87 C83 1.260 . S
C88 O79 1.240 . S
C88 O80 1.252 . S
O89 In78 2.294 . S
O89 C82 1.240 . S
O90 In78 2.326 . S
O90 C82 1.252 . S
In91 O92 2.294 . S
In91 O93 2.326 . S
In91 O97 2.266 . S
In91 O98 2.326 . S
In91 O99 2.266 1_554 S
In91 O100 2.326 1_554 S
In91 O102 2.294 . S
In91 O103 2.326 . S
O92 In91 2.294 . S
O92 C101 1.240 . S
O93 In91 2.326 . S
O93 C101 1.252 . S
C94 O97 1.252 . S
C94 O98 1.260 . S
C95 O102 1.240 . S
C95 O103 1.252 . S
C96 O99 1.252 . S
C96 O100 1.260 . S
O97 In91 2.266 . S
O97 C94 1.252 . S
O98 In91 2.326 . S
O98 C94 1.260 . S
O99 In91 2.266 1_556 S
O99 C96 1.252 . S
O100 In91 2.326 1_556 S
O100 C96 1.260 . S
C101 O92 1.240 . S
C101 O93 1.252 . S
O102 In91 2.294 . S
O102 C95 1.240 . S
O103 In91 2.326 . S
O103 C95 1.252 . S
In104 O105 2.294 . S
In104 O106 2.326 . S
In104 O110 2.266 1_554 S
In104 O111 2.326 1_554 S
In104 O112 2.266 1_554 S
In104 O113 2.326 . S
In104 O115 2.294 . S
In104 O116 2.326 . S
O105 In104 2.294 . S
O105 C114 1.240 . S
O106 In104 2.326 . S
O106 C114 1.252 . S
C107 O110 1.252 . S
C107 O111 1.260 . S
C108 O115 1.240 . S
C108 O116 1.252 . S
C109 O112 1.252 1_554 S
C109 O113 1.262 . S
O110 In104 2.266 1_556 S
O110 C107 1.252 . S
O111 In104 2.326 1_556 S
O111 C107 1.260 . S
O112 In104 2.266 1_556 S
O112 C109 1.252 1_556 S
O113 In104 2.326 . S
O113 C109 1.262 . S
C114 O105 1.240 . S
C114 O106 1.252 . S
O115 In104 2.294 . S
O115 C108 1.240 . S
O116 In104 2.326 . S
O116 C108 1.252 . S
In117 O118 2.294 . S
In117 O119 2.326 . S
In117 O123 2.266 . S
In117 O124 2.326 . S
In117 O125 2.266 . S
In117 O126 2.326 . S
In117 O128 2.294 . S
In117 O129 2.326 . S
O118 In117 2.294 . S
O118 C127 1.240 . S
O119 In117 2.326 . S
O119 C127 1.252 . S
C120 O123 1.252 . S
C120 O124 1.260 . S
C121 O128 1.240 . S
C121 O129 1.252 . S
C122 O125 1.252 . S
C122 O126 1.260 . S
O123 In117 2.266 . S
O123 C120 1.252 . S
O124 In117 2.326 . S
O124 C120 1.260 . S
O125 In117 2.266 . S
O125 C122 1.252 . S
O126 In117 2.326 . S
O126 C122 1.260 . S
C127 O118 1.240 . S
C127 O119 1.252 . S
O128 In117 2.294 . S
O128 C121 1.240 . S
O129 In117 2.326 . S
O129 C121 1.252 . S
In130 O131 2.294 . S
In130 O132 2.326 . S
In130 O136 2.266 . S
In130 O137 2.326 . S
In130 O138 2.266 . S
In130 O139 2.326 . S
In130 O141 2.294 . S
In130 O142 2.326 . S
O131 In130 2.294 . S
O131 C140 1.240 . S
O132 In130 2.326 . S
O132 C140 1.252 . S
C133 O136 1.252 . S
C133 O137 1.260 . S
C134 O141 1.240 . S
C134 O142 1.252 . S
C135 O138 1.252 . S
C135 O139 1.260 . S
O136 In130 2.266 . S
O136 C133 1.252 . S
O137 In130 2.326 . S
O137 C133 1.260 . S
O138 In130 2.266 . S
O138 C135 1.252 . S
O139 In130 2.326 . S
O139 C135 1.260 . S
C140 O131 1.240 . S
C140 O132 1.252 . S
O141 In130 2.294 . S
O141 C134 1.240 . S
O142 In130 2.326 . S
O142 C134 1.252 . S
In143 O144 2.294 . S
In143 O145 2.326 . S
In143 O149 2.266 . S
In143 O150 2.326 . S
In143 O151 2.266 . S
In143 O152 2.326 . S
In143 O154 2.294 . S
In143 O155 2.326 . S
O144 In143 2.294 . S
O144 C153 1.240 . S
O145 In143 2.326 . S
O145 C153 1.252 . S
C146 O149 1.252 . S
C146 O150 1.260 . S
C147 O154 1.240 . S
C147 O155 1.252 . S
C148 O151 1.252 . S
C148 O152 1.260 . S
O149 In143 2.266 . S
O149 C146 1.252 . S
O150 In143 2.326 . S
O150 C146 1.260 . S
O151 In143 2.266 . S
O151 C148 1.252 . S
O152 In143 2.326 . S
O152 C148 1.260 . S
C153 O144 1.240 . S
C153 O145 1.252 . S
O154 In143 2.294 . S
O154 C147 1.240 . S
O155 In143 2.326 . S
O155 C147 1.252 . S
In156 O157 2.294 . S
In156 O158 2.326 . S
In156 O162 2.266 1_455 S
In156 O163 2.326 1_455 S
In156 O164 2.266 . S
In156 O165 2.326 . S
In156 O167 2.294 . S
In156 O168 2.326 . S
O157 In156 2.294 . S
O157 C166 1.240 . S
O158 In156 2.326 . S
O158 C166 1.252 . S
C159 O162 1.252 . S
C159 O163 1.260 . S
C160 O167 1.240 . S
C160 O168 1.252 . S
C161 O164 1.252 . S
C161 O165 1.260 . S
O162 In156 2.266 1_655 S
O162 C159 1.252 . S
O163 In156 2.326 1_655 S
O163 C159 1.260 . S
O164 In156 2.266 . S
O164 C161 1.252 . S
O165 In156 2.326 . S
O165 C161 1.260 . S
C166 O157 1.240 . S
C166 O158 1.252 . S
O167 In156 2.294 . S
O167 C160 1.240 . S
O168 In156 2.326 . S
O168 C160 1.252 . S
In169 O170 2.294 . S
In169 O171 2.326 . S
In169 O175 2.266 . S
In169 O176 2.326 . S
In169 O177 2.266 1_455 S
In169 O178 2.326 1_455 S
In169 O180 2.294 . S
In169 O181 2.326 . S
O170 In169 2.294 . S
O170 C179 1.240 . S
O171 In169 2.326 . S
O171 C179 1.252 . S
C172 O175 1.252 . S
C172 O176 1.260 . S
C173 O180 1.240 . S
C173 O181 1.252 . S
C174 O177 1.252 . S
C174 O178 1.260 . S
O175 In169 2.266 . S
O175 C172 1.252 . S
O176 In169 2.326 . S
O176 C172 1.260 . S
O177 In169 2.266 1_655 S
O177 C174 1.252 . S
O178 In169 2.326 1_655 S
O178 C174 1.260 . S
C179 O170 1.240 . S
C179 O171 1.252 . S
O180 In169 2.294 . S
O180 C173 1.240 . S
O181 In169 2.326 . S
O181 C173 1.252 . S
In182 O183 2.294 . S
In182 O184 2.326 . S
In182 O188 2.266 . S
In182 O189 2.326 . S
In182 O190 2.266 . S
In182 O191 2.326 . S
In182 O193 2.294 . S
In182 O194 2.326 . S
O183 In182 2.294 . S
O183 C192 1.240 . S
O184 In182 2.326 . S
O184 C192 1.252 . S
C185 O188 1.252 . S
C185 O189 1.260 . S
C186 O193 1.240 . S
C186 O194 1.252 . S
C187 O190 1.252 . S
C187 O191 1.260 . S
O188 In182 2.266 . S
O188 C185 1.252 . S
O189 In182 2.326 . S
O189 C185 1.260 . S
O190 In182 2.266 . S
O190 C187 1.252 . S
O191 In182 2.326 . S
O191 C187 1.260 . S
C192 O183 1.240 . S
C192 O184 1.252 . S
O193 In182 2.294 . S
O193 C186 1.240 . S
O194 In182 2.326 . S
O194 C186 1.252 . S
In195 O196 2.294 . S
In195 O197 2.326 . S
In195 O201 2.266 . S
In195 O202 2.326 . S
In195 O203 2.266 . S
In195 O204 2.326 . S
In195 O206 2.294 . S
In195 O207 2.326 . S
O196 In195 2.294 . S
O196 C205 1.240 . S
O197 In195 2.326 . S
O197 C205 1.252 . S
C198 O201 1.252 . S
C198 O202 1.260 . S
C199 O206 1.240 . S
C199 O207 1.252 . S
C200 O203 1.252 . S
C200 O204 1.260 . S
O201 In195 2.266 . S
O201 C198 1.252 . S
O202 In195 2.326 . S
O202 C198 1.260 . S
O203 In195 2.266 . S
O203 C200 1.252 . S
O204 In195 2.326 . S
O204 C200 1.260 . S
C205 O196 1.240 . S
C205 O197 1.252 . S
O206 In195 2.294 . S
O206 C199 1.240 . S
O207 In195 2.326 . S
O207 C199 1.252 . S
In208 O209 2.294 . S
In208 O210 2.326 . S
In208 O214 2.266 1_545 S
In208 O215 2.327 . S
In208 O216 2.266 1_545 S
In208 O217 2.326 1_545 S
In208 O219 2.294 . S
In208 O220 2.326 . S
O209 In208 2.294 . S
O209 C218 1.240 . S
O210 In208 2.326 . S
O210 C218 1.252 . S
C211 O214 1.252 . S
C211 O215 1.258 1_565 S
C212 O219 1.240 . S
C212 O220 1.252 . S
C213 O216 1.252 . S
C213 O217 1.260 . S
O214 In208 2.266 1_565 S
O214 C211 1.252 . S
O215 In208 2.327 . S
O215 C211 1.258 1_545 S
O216 In208 2.266 1_565 S
O216 C213 1.252 . S
O217 In208 2.326 1_565 S
O217 C213 1.260 . S
C218 O209 1.240 . S
C218 O210 1.252 . S
O219 In208 2.294 . S
O219 C212 1.240 . S
O220 In208 2.326 . S
O220 C212 1.252 . S
In221 O222 2.294 . S
In221 O223 2.326 . S
In221 O227 2.266 . S
In221 O228 2.326 . S
In221 O229 2.266 . S
In221 O230 2.326 . S
In221 O232 2.294 . S
In221 O233 2.326 . S
O222 In221 2.294 . S
O222 C231 1.240 . S
O223 In221 2.326 . S
O223 C231 1.252 . S
C224 O227 1.252 . S
C224 O228 1.260 . S
C225 O232 1.240 . S
C225 O233 1.252 . S
C226 O229 1.252 . S
C226 O230 1.260 . S
O227 In221 2.266 . S
O227 C224 1.252 . S
O228 In221 2.326 . S
O228 C224 1.260 . S
O229 In221 2.266 . S
O229 C226 1.252 . S
O230 In221 2.326 . S
O230 C226 1.260 . S
C231 O222 1.240 . S
C231 O223 1.252 . S
O232 In221 2.294 . S
O232 C225 1.240 . S
O233 In221 2.326 . S
O233 C225 1.252 . S
In234 O235 2.294 1_545 S
In234 O236 2.326 1_545 S
In234 O240 2.266 . S
In234 O241 2.326 . S
In234 O242 2.266 . S
In234 O243 2.326 . S
In234 O245 2.297 . S
In234 O246 2.326 . S
O235 In234 2.294 1_565 S
O235 C244 1.240 . S
O236 In234 2.326 1_565 S
O236 C244 1.252 . S
C237 O240 1.252 . S
C237 O241 1.260 . S
C238 O245 1.240 . S
C238 O246 1.253 . S
C239 O242 1.252 . S
C239 O243 1.260 . S
O240 In234 2.266 . S
O240 C237 1.252 . S
O241 In234 2.326 . S
O241 C237 1.260 . S
O242 In234 2.266 . S
O242 C239 1.252 . S
O243 In234 2.326 . S
O243 C239 1.260 . S
C244 O235 1.240 . S
C244 O236 1.252 . S
O245 In234 2.297 . S
O245 C238 1.240 . S
O246 In234 2.326 . S
O246 C238 1.253 . S
In247 O248 2.294 . S
In247 O249 2.326 . S
In247 O253 2.266 . S
In247 O254 2.326 . S
In247 O255 2.266 1_554 S
In247 O256 2.326 1_554 S
In247 O258 2.294 . S
In247 O259 2.326 . S
O248 In247 2.294 . S
O248 C257 1.240 . S
O249 In247 2.326 . S
O249 C257 1.252 . S
C250 O253 1.252 . S
C250 O254 1.260 . S
C251 O258 1.240 . S
C251 O259 1.252 . S
C252 O255 1.252 . S
C252 O256 1.260 . S
O253 In247 2.266 . S
O253 C250 1.252 . S
O254 In247 2.326 . S
O254 C250 1.260 . S
O255 In247 2.266 1_556 S
O255 C252 1.252 . S
O256 In247 2.326 1_556 S
O256 C252 1.260 . S
C257 O248 1.240 . S
C257 O249 1.252 . S
O258 In247 2.294 . S
O258 C251 1.240 . S
O259 In247 2.326 . S
O259 C251 1.252 . S
In260 O261 2.294 . S
In260 O262 2.326 . S
In260 O266 2.266 1_554 S
In260 O267 2.326 1_554 S
In260 O268 2.266 1_554 S
In260 O269 2.329 . S
In260 O271 2.294 . S
In260 O272 2.326 . S
O261 In260 2.294 . S
O261 C270 1.240 . S
O262 In260 2.326 . S
O262 C270 1.252 . S
C263 O266 1.252 . S
C263 O267 1.260 . S
C264 O271 1.240 . S
C264 O272 1.252 . S
C265 O268 1.252 . S
C265 O269 1.256 1_556 S
O266 In260 2.266 1_556 S
O266 C263 1.252 . S
O267 In260 2.326 1_556 S
O267 C263 1.260 . S
O268 In260 2.266 1_556 S
O268 C265 1.252 . S
O269 In260 2.329 . S
O269 C265 1.256 1_554 S
C270 O261 1.240 . S
C270 O262 1.252 . S
O271 In260 2.294 . S
O271 C264 1.240 . S
O272 In260 2.326 . S
O272 C264 1.252 . S
In273 O274 2.294 . S
In273 O275 2.326 . S
In273 O279 2.266 . S
In273 O280 2.326 . S
In273 O281 2.266 . S
In273 O282 2.326 . S
In273 O284 2.294 . S
In273 O285 2.326 . S
O274 In273 2.294 . S
O274 C283 1.240 . S
O275 In273 2.326 . S
O275 C283 1.252 . S
C276 O279 1.252 . S
C276 O280 1.260 . S
C277 O284 1.240 . S
C277 O285 1.252 . S
C278 O281 1.252 . S
C278 O282 1.260 . S
O279 In273 2.266 . S
O279 C276 1.252 . S
O280 In273 2.326 . S
O280 C276 1.260 . S
O281 In273 2.266 . S
O281 C278 1.252 . S
O282 In273 2.326 . S
O282 C278 1.260 . S
C283 O274 1.240 . S
C283 O275 1.252 . S
O284 In273 2.294 . S
O284 C277 1.240 . S
O285 In273 2.326 . S
O285 C277 1.252 . S
In286 O287 2.294 . S
In286 O288 2.326 . S
In286 O292 2.266 . S
In286 O293 2.326 . S
In286 O294 2.266 . S
In286 O295 2.326 . S
In286 O297 2.294 . S
In286 O298 2.326 . S
O287 In286 2.294 . S
O287 C296 1.240 . S
O288 In286 2.326 . S
O288 C296 1.252 . S
C289 O292 1.252 . S
C289 O293 1.260 . S
C290 O297 1.240 . S
C290 O298 1.252 . S
C291 O294 1.252 . S
C291 O295 1.260 . S
O292 In286 2.266 . S
O292 C289 1.252 . S
O293 In286 2.326 . S
O293 C289 1.260 . S
O294 In286 2.266 . S
O294 C291 1.252 . S
O295 In286 2.326 . S
O295 C291 1.260 . S
C296 O287 1.240 . S
C296 O288 1.252 . S
O297 In286 2.294 . S
O297 C290 1.240 . S
O298 In286 2.326 . S
O298 C290 1.252 . S
In299 O300 2.294 . S
In299 O301 2.326 . S
In299 O305 2.266 . S
In299 O306 2.326 . S
In299 O307 2.266 . S
In299 O308 2.326 . S
In299 O310 2.294 . S
In299 O311 2.326 . S
O300 In299 2.294 . S
O300 C309 1.240 . S
O301 In299 2.326 . S
O301 C309 1.252 . S
C302 O305 1.252 . S
C302 O306 1.260 . S
C303 O310 1.240 . S
C303 O311 1.252 . S
C304 O307 1.252 . S
C304 O308 1.260 . S
O305 In299 2.266 . S
O305 C302 1.252 . S
O306 In299 2.326 . S
O306 C302 1.260 . S
O307 In299 2.266 . S
O307 C304 1.252 . S
O308 In299 2.326 . S
O308 C304 1.260 . S
C309 O300 1.240 . S
C309 O301 1.252 . S
O310 In299 2.294 . S
O310 C303 1.240 . S
O311 In299 2.326 . S
O311 C303 1.252 . S
O312 Mn313 2.167 1_556 S
O312 C326 1.244 . S
Mn313 O312 2.167 1_554 S
Mn313 O316 2.156 1_445 S
Mn313 O317 2.228 1_455 S
Mn313 O319 2.163 1_454 S
Mn313 O321 2.159 1_545 S
Mn313 O331 2.215 1_544 S
O314 Mn315 2.087 1_556 S
O314 C326 1.256 1_565 S
Mn315 O314 2.087 1_554 S
Mn315 O322 2.089 . S
Mn315 O331 2.290 1_554 S
Mn315 O332 2.251 1_554 S
O316 Mn313 2.156 1_665 S
O316 C327 1.239 . S
O317 Mn313 2.228 1_655 S
O317 Mn318 2.290 1_554 S
O317 C328 1.278 . S
Mn318 O317 2.290 1_556 S
Mn318 O320 2.088 1_556 S
Mn318 O323 2.251 1_556 S
Mn318 O324 2.087 . S
O319 Mn313 2.163 1_656 S
O319 C329 1.244 . S
O320 Mn318 2.088 1_554 S
O320 C327 1.259 1_545 S
O321 Mn313 2.159 1_565 S
O321 C330 1.239 . S
O322 Mn315 2.089 . S
O322 C330 1.256 . S
O323 Mn318 2.251 1_554 S
O323 C328 1.241 . S
O324 Mn318 2.087 . S
O324 C329 1.256 . S
C325 O331 1.278 . S
C325 O332 1.241 . S
C326 O312 1.244 . S
C326 O314 1.256 1_545 S
C327 O316 1.239 . S
C327 O320 1.259 1_565 S
C328 O317 1.278 . S
C328 O323 1.241 . S
C329 O319 1.244 . S
C329 O324 1.256 . S
C330 O321 1.239 . S
C330 O322 1.256 . S
O331 Mn313 2.215 1_566 S
O331 Mn315 2.290 1_556 S
O331 C325 1.278 . S
O332 Mn315 2.251 1_556 S
O332 C325 1.241 . S
O333 Mn334 2.163 . S
O333 C347 1.244 . S
Mn334 O333 2.163 . S
Mn334 O337 2.160 . S
Mn334 O338 2.221 . S
Mn334 O340 2.163 . S
Mn334 O342 2.160 . S
Mn334 O352 2.221 . S
O335 Mn336 2.087 . S
O335 C347 1.256 . S
Mn336 O335 2.087 . S
Mn336 O343 2.089 . S
Mn336 O352 2.290 . S
Mn336 O353 2.251 . S
O337 Mn334 2.160 . S
O337 C348 1.239 . S
O338 Mn334 2.221 . S
O338 Mn339 2.290 . S
O338 C349 1.278 . S
Mn339 O338 2.290 . S
Mn339 O341 2.089 . S
Mn339 O344 2.251 . S
Mn339 O345 2.087 . S
O340 Mn334 2.163 . S
O340 C350 1.244 . S
O341 Mn339 2.089 . S
O341 C348 1.256 . S
O342 Mn334 2.160 . S
O342 C351 1.239 . S
O343 Mn336 2.089 . S
O343 C351 1.256 . S
O344 Mn339 2.251 . S
O344 C349 1.241 . S
O345 Mn339 2.087 . S
O345 C350 1.256 . S
C346 O352 1.278 . S
C346 O353 1.241 . S
C347 O333 1.244 . S
C347 O335 1.256 . S
C348 O337 1.239 . S
C348 O341 1.256 . S
C349 O338 1.278 . S
C349 O344 1.241 . S
C350 O340 1.244 . S
C350 O345 1.256 . S
C351 O342 1.239 . S
C351 O343 1.256 . S
O352 Mn334 2.221 . S
O352 Mn336 2.290 . S
O352 C346 1.278 . S
O353 Mn336 2.251 . S
O353 C346 1.241 . S
O354 Mn355 2.163 1_565 S
O354 C368 1.244 . S
Mn355 O354 2.163 1_545 S
Mn355 O358 2.160 . S
Mn355 O359 2.221 1_545 S
Mn355 O361 2.163 . S
Mn355 O363 2.160 . S
Mn355 O373 2.221 . S
O356 Mn357 2.087 . S
O356 C368 1.256 1_545 S
Mn357 O356 2.087 . S
Mn357 O364 2.089 . S
Mn357 O373 2.290 . S
Mn357 O374 2.251 . S
O358 Mn355 2.160 . S
O358 C369 1.239 . S
O359 Mn355 2.221 1_565 S
O359 Mn360 2.290 . S
O359 C370 1.278 . S
Mn360 O359 2.290 . S
Mn360 O362 2.089 1_565 S
Mn360 O365 2.251 . S
Mn360 O366 2.087 . S
O361 Mn355 2.163 . S
O361 C371 1.234 1_545 S
O362 Mn360 2.089 1_545 S
O362 C369 1.256 . S
O363 Mn355 2.160 . S
O363 C372 1.239 . S
O364 Mn357 2.089 . S
O364 C372 1.256 . S
O365 Mn360 2.251 . S
O365 C370 1.241 . S
O366 Mn360 2.087 . S
O366 C371 1.270 . S
C367 O373 1.278 . S
C367 O374 1.241 . S
C368 O354 1.244 . S
C368 O356 1.256 1_565 S
C369 O358 1.239 . S
C369 O362 1.256 . S
C370 O359 1.278 . S
C370 O365 1.241 . S
C371 O361 1.234 1_565 S
C371 O366 1.270 . S
C372 O363 1.239 . S
C372 O364 1.256 . S
O373 Mn355 2.221 . S
O373 Mn357 2.290 . S
O373 C367 1.278 . S
O374 Mn357 2.251 . S
O374 C367 1.241 . S
O375 Mn376 2.163 . S
O375 C389 1.244 . S
Mn376 O375 2.163 . S
Mn376 O379 2.160 . S
Mn376 O380 2.221 . S
Mn376 O382 2.163 . S
Mn376 O384 2.160 . S
Mn376 O394 2.221 . S
O377 Mn378 2.087 . S
O377 C389 1.256 . S
Mn378 O377 2.087 . S
Mn378 O385 2.089 . S
Mn378 O394 2.290 . S
Mn378 O395 2.251 . S
O379 Mn376 2.160 . S
O379 C390 1.239 . S
O380 Mn376 2.221 . S
O380 Mn381 2.290 . S
O380 C391 1.278 . S
Mn381 O380 2.290 . S
Mn381 O383 2.089 . S
Mn381 O386 2.251 . S
Mn381 O387 2.087 . S
O382 Mn376 2.163 . S
O382 C392 1.244 . S
O383 Mn381 2.089 . S
O383 C390 1.256 . S
O384 Mn376 2.160 . S
O384 C393 1.239 . S
O385 Mn378 2.089 . S
O385 C393 1.256 . S
O386 Mn381 2.251 . S
O386 C391 1.241 . S
O387 Mn381 2.087 . S
O387 C392 1.256 . S
C388 O394 1.278 . S
C388 O395 1.241 . S
C389 O375 1.244 . S
C389 O377 1.256 . S
C390 O379 1.239 . S
C390 O383 1.256 . S
C391 O380 1.278 . S
C391 O386 1.241 . S
C392 O382 1.244 . S
C392 O387 1.256 . S
C393 O384 1.239 . S
C393 O385 1.256 . S
O394 Mn376 2.221 . S
O394 Mn378 2.290 . S
O394 C388 1.278 . S
O395 Mn378 2.251 . S
O395 C388 1.241 . S
O396 Mn397 2.163 1_565 S
O396 C410 1.244 1_455 S
Mn397 O396 2.163 1_545 S
Mn397 O400 2.160 . S
Mn397 O401 2.221 . S
Mn397 O403 2.163 1_455 S
Mn397 O405 2.149 1_545 S
Mn397 O415 2.217 1_445 S
O398 Mn399 2.087 1_655 S
O398 C410 1.256 . S
Mn399 O398 2.087 1_455 S
Mn399 O406 2.089 . S
Mn399 O415 2.283 1_455 S
Mn399 O416 2.251 1_455 S
O400 Mn397 2.160 . S
O400 C411 1.239 . S
O401 Mn397 2.221 . S
O401 Mn402 2.290 1_455 S
O401 C412 1.278 . S
Mn402 O401 2.290 1_655 S
Mn402 O404 2.089 1_655 S
Mn402 O407 2.251 1_655 S
Mn402 O408 2.087 . S
O403 Mn397 2.163 1_655 S
O403 C413 1.244 . S
O404 Mn402 2.089 1_455 S
O404 C411 1.256 . S
O405 Mn397 2.149 1_565 S
O405 C414 1.272 . S
O406 Mn399 2.089 . S
O406 C414 1.256 . S
O407 Mn402 2.251 1_455 S
O407 C412 1.241 . S
O408 Mn402 2.087 . S
O408 C413 1.256 . S
C409 O415 1.293 . S
C409 O416 1.241 . S
C410 O396 1.244 1_655 S
C410 O398 1.256 . S
C411 O400 1.239 . S
C411 O404 1.256 . S
C412 O401 1.278 . S
C412 O407 1.241 . S
C413 O403 1.244 . S
C413 O408 1.256 . S
C414 O405 1.272 . S
C414 O406 1.256 . S
O415 Mn397 2.217 1_665 S
O415 Mn399 2.283 1_655 S
O415 C409 1.293 . S
O416 Mn399 2.251 1_655 S
O416 C409 1.241 . S
O417 Mn418 2.163 . S
O417 C431 1.244 . S
Mn418 O417 2.163 . S
Mn418 O421 2.160 . S
Mn418 O422 2.221 . S
Mn418 O424 2.163 . S
Mn418 O426 2.160 . S
Mn418 O436 2.221 . S
O419 Mn420 2.087 . S
O419 C431 1.256 . S
Mn420 O419 2.087 . S
Mn420 O427 2.089 . S
Mn420 O436 2.290 . S
Mn420 O437 2.251 . S
O421 Mn418 2.160 . S
O421 C432 1.239 . S
O422 Mn418 2.221 . S
O422 Mn423 2.290 . S
O422 C433 1.278 . S
Mn423 O422 2.290 . S
Mn423 O425 2.089 . S
Mn423 O428 2.251 . S
Mn423 O429 2.087 . S
O424 Mn418 2.163 . S
O424 C434 1.244 . S
O425 Mn423 2.089 . S
O425 C432 1.256 . S
O426 Mn418 2.160 . S
O426 C435 1.239 . S
O427 Mn420 2.089 . S
O427 C435 1.256 . S
O428 Mn423 2.251 . S
O428 C433 1.241 . S
O429 Mn423 2.087 . S
O429 C434 1.256 . S
C430 O436 1.278 . S
C430 O437 1.241 . S
C431 O417 1.244 . S
C431 O419 1.256 . S
C432 O421 1.239 . S
C432 O425 1.256 . S
C433 O422 1.278 . S
C433 O428 1.241 . S
C434 O424 1.244 . S
C434 O429 1.256 . S
C435 O426 1.239 . S
C435 O427 1.256 . S
O436 Mn418 2.221 . S
O436 Mn420 2.290 . S
O436 C430 1.278 . S
O437 Mn420 2.251 . S
O437 C430 1.241 . S
O438 Mn439 2.163 1_566 S
O438 C452 1.244 . S
Mn439 O438 2.163 1_544 S
Mn439 O442 2.160 . S
Mn439 O443 2.221 . S
Mn439 O445 2.163 1_545 S
Mn439 O447 2.171 . S
Mn439 O457 2.221 1_544 S
O440 Mn441 2.087 1_565 S
O440 C452 1.256 . S
Mn441 O440 2.087 1_545 S
Mn441 O448 2.089 . S
Mn441 O457 2.290 1_545 S
Mn441 O458 2.251 1_545 S
O442 Mn439 2.160 . S
O442 C453 1.239 . S
O443 Mn439 2.221 . S
O443 Mn444 2.290 1_545 S
O443 C454 1.278 . S
Mn444 O443 2.290 1_565 S
Mn444 O446 2.092 . S
Mn444 O449 2.251 1_565 S
Mn444 O450 2.087 . S
O445 Mn439 2.163 1_565 S
O445 C455 1.244 . S
O446 Mn444 2.092 . S
O446 C453 1.246 1_565 S
O447 Mn439 2.171 . S
O447 C456 1.206 1_554 S
O448 Mn441 2.089 . S
O448 C456 1.256 . S
O449 Mn444 2.251 1_545 S
O449 C454 1.241 . S
O450 Mn444 2.087 . S
O450 C455 1.256 . S
C451 O457 1.278 . S
C451 O458 1.241 . S
C452 O438 1.244 . S
C452 O440 1.256 . S
C453 O442 1.239 . S
C453 O446 1.246 1_545 S
C454 O443 1.278 . S
C454 O449 1.241 . S
C455 O445 1.244 . S
C455 O450 1.256 . S
C456 O447 1.206 1_556 S
C456 O448 1.256 . S
O457 Mn439 2.221 1_566 S
O457 Mn441 2.290 1_565 S
O457 C451 1.278 . S
O458 Mn441 2.251 1_565 S
O458 C451 1.241 . S
O459 Mn460 2.163 . S
O459 C473 1.244 . S
Mn460 O459 2.163 . S
Mn460 O463 2.160 . S
Mn460 O464 2.221 . S
Mn460 O466 2.163 . S
Mn460 O468 2.160 . S
Mn460 O478 2.221 . S
O461 Mn462 2.087 . S
O461 C473 1.256 . S
Mn462 O461 2.087 . S
Mn462 O469 2.089 . S
Mn462 O478 2.290 . S
Mn462 O479 2.251 . S
O463 Mn460 2.160 . S
O463 C474 1.239 . S
O464 Mn460 2.221 . S
O464 Mn465 2.290 . S
O464 C475 1.278 . S
Mn465 O464 2.290 . S
Mn465 O467 2.089 . S
Mn465 O470 2.251 . S
Mn465 O471 2.087 . S
O466 Mn460 2.163 . S
O466 C476 1.244 . S
O467 Mn465 2.089 . S
O467 C474 1.256 . S
O468 Mn460 2.160 . S
O468 C477 1.239 . S
O469 Mn462 2.089 . S
O469 C477 1.256 . S
O470 Mn465 2.251 . S
O470 C475 1.241 . S
O471 Mn465 2.087 . S
O471 C476 1.256 . S
C472 O478 1.278 . S
C472 O479 1.241 . S
C473 O459 1.244 . S
C473 O461 1.256 . S
C474 O463 1.239 . S
C474 O467 1.256 . S
C475 O464 1.278 . S
C475 O470 1.241 . S
C476 O466 1.244 . S
C476 O471 1.256 . S
C477 O468 1.239 . S
C477 O469 1.256 . S
O478 Mn460 2.221 . S
O478 Mn462 2.290 . S
O478 C472 1.278 . S
O479 Mn462 2.251 . S
O479 C472 1.241 . S
O480 Mn481 2.163 1_556 S
O480 C494 1.244 . S
Mn481 O480 2.163 1_554 S
Mn481 O484 2.160 . S
Mn481 O485 2.221 1_554 S
Mn481 O487 2.163 . S
Mn481 O489 2.160 . S
Mn481 O499 2.221 . S
O482 Mn483 2.087 . S
O482 C494 1.256 1_554 S
Mn483 O482 2.087 . S
Mn483 O490 2.089 . S
Mn483 O499 2.290 . S
Mn483 O500 2.251 . S
O484 Mn481 2.160 . S
O484 C495 1.239 . S
O485 Mn481 2.221 1_556 S
O485 Mn486 2.290 . S
O485 C496 1.278 . S
Mn486 O485 2.290 . S
Mn486 O488 2.089 1_556 S
Mn486 O491 2.251 . S
Mn486 O492 2.087 . S
O487 Mn481 2.163 . S
O487 C497 1.244 1_554 S
O488 Mn486 2.089 1_554 S
O488 C495 1.256 . S
O489 Mn481 2.160 . S
O489 C498 1.239 . S
O490 Mn483 2.089 . S
O490 C498 1.256 . S
O491 Mn486 2.251 . S
O491 C496 1.241 . S
O492 Mn486 2.087 . S
O492 C497 1.256 . S
C493 O499 1.278 . S
C493 O500 1.241 . S
C494 O480 1.244 . S
C494 O482 1.256 1_556 S
C495 O484 1.239 . S
C495 O488 1.256 . S
C496 O485 1.278 . S
C496 O491 1.241 . S
C497 O487 1.244 1_556 S
C497 O492 1.256 . S
C498 O489 1.239 . S
C498 O490 1.256 . S
O499 Mn481 2.221 . S
O499 Mn483 2.290 . S
O499 C493 1.278 . S
O500 Mn483 2.251 . S
O500 C493 1.241 . S
O501 Mn502 2.163 . S
O501 C515 1.244 . S
Mn502 O501 2.163 . S
Mn502 O505 2.160 . S
Mn502 O506 2.221 . S
Mn502 O508 2.163 . S
Mn502 O510 2.160 . S
Mn502 O520 2.221 . S
O503 Mn504 2.087 . S
O503 C515 1.256 . S
Mn504 O503 2.087 . S
Mn504 O511 2.089 . S
Mn504 O520 2.290 . S
Mn504 O521 2.251 . S
O505 Mn502 2.160 . S
O505 C516 1.239 . S
O506 Mn502 2.221 . S
O506 Mn507 2.290 . S
O506 C517 1.278 . S
Mn507 O506 2.290 . S
Mn507 O509 2.089 . S
Mn507 O512 2.251 . S
Mn507 O513 2.087 . S
O508 Mn502 2.163 . S
O508 C518 1.244 . S
O509 Mn507 2.089 . S
O509 C516 1.256 . S
O510 Mn502 2.160 . S
O510 C519 1.239 . S
O511 Mn504 2.089 . S
O511 C519 1.256 . S
O512 Mn507 2.251 . S
O512 C517 1.241 . S
O513 Mn507 2.087 . S
O513 C518 1.256 . S
C514 O520 1.278 . S
C514 O521 1.241 . S
C515 O501 1.244 . S
C515 O503 1.256 . S
C516 O505 1.239 . S
C516 O509 1.256 . S
C517 O506 1.278 . S
C517 O512 1.241 . S
C518 O508 1.244 . S
C518 O513 1.256 . S
C519 O510 1.239 . S
C519 O511 1.256 . S
O520 Mn502 2.221 . S
O520 Mn504 2.290 . S
O520 C514 1.278 . S
O521 Mn504 2.251 . S
O521 C514 1.241 . S
O522 Mn523 2.163 1_655 S
O522 C536 1.244 . S
Mn523 O522 2.163 1_455 S
Mn523 O526 2.160 . S
Mn523 O527 2.221 1_455 S
Mn523 O529 2.163 . S
Mn523 O531 2.160 . S
Mn523 O541 2.221 . S
O524 Mn525 2.087 . S
O524 C536 1.256 1_455 S
Mn525 O524 2.087 . S
Mn525 O532 2.089 . S
Mn525 O541 2.290 . S
Mn525 O542 2.251 . S
O526 Mn523 2.160 . S
O526 C537 1.239 . S
O527 Mn523 2.221 1_655 S
O527 Mn528 2.290 . S
O527 C538 1.278 . S
Mn528 O527 2.290 . S
Mn528 O530 2.089 1_655 S
Mn528 O533 2.251 . S
Mn528 O534 2.087 . S
O529 Mn523 2.163 . S
O529 C539 1.244 1_455 S
O530 Mn528 2.089 1_455 S
O530 C537 1.256 . S
O531 Mn523 2.160 . S
O531 C540 1.239 . S
O532 Mn525 2.089 . S
O532 C540 1.256 . S
O533 Mn528 2.251 . S
O533 C538 1.241 . S
O534 Mn528 2.087 . S
O534 C539 1.256 . S
C535 O541 1.278 . S
C535 O542 1.241 . S
C536 O522 1.244 . S
C536 O524 1.256 1_655 S
C537 O526 1.239 . S
C537 O530 1.256 . S
C538 O527 1.278 . S
C538 O533 1.241 . S
C539 O529 1.244 1_655 S
C539 O534 1.256 . S
C540 O531 1.239 . S
C540 O532 1.256 . S
O541 Mn523 2.221 . S
O541 Mn525 2.290 . S
O541 C535 1.278 . S
O542 Mn525 2.251 . S
O542 C535 1.241 . S
O543 Mn544 2.163 . S
O543 C557 1.244 . S
Mn544 O543 2.163 . S
Mn544 O547 2.160 . S
Mn544 O548 2.221 . S
Mn544 O550 2.163 . S
Mn544 O552 2.160 . S
Mn544 O562 2.221 . S
O545 Mn546 2.087 . S
O545 C557 1.256 . S
Mn546 O545 2.087 . S
Mn546 O553 2.089 . S
Mn546 O562 2.290 . S
Mn546 O563 2.251 . S
O547 Mn544 2.160 . S
O547 C558 1.239 . S
O548 Mn544 2.221 . S
O548 Mn549 2.290 . S
O548 C559 1.278 . S
Mn549 O548 2.290 . S
Mn549 O551 2.089 . S
Mn549 O554 2.251 . S
Mn549 O555 2.087 . S
O550 Mn544 2.163 . S
O550 C560 1.244 . S
O551 Mn549 2.089 . S
O551 C558 1.256 . S
O552 Mn544 2.160 . S
O552 C561 1.239 . S
O553 Mn546 2.089 . S
O553 C561 1.256 . S
O554 Mn549 2.251 . S
O554 C559 1.241 . S
O555 Mn549 2.087 . S
O555 C560 1.256 . S
C556 O562 1.278 . S
C556 O563 1.241 . S
C557 O543 1.244 . S
C557 O545 1.256 . S
C558 O547 1.239 . S
C558 O551 1.256 . S
C559 O548 1.278 . S
C559 O554 1.241 . S
C560 O550 1.244 . S
C560 O555 1.256 . S
C561 O552 1.239 . S
C561 O553 1.256 . S
O562 Mn544 2.221 . S
O562 Mn546 2.290 . S
O562 C556 1.278 . S
O563 Mn546 2.251 . S
O563 C556 1.241 . S
O564 Mn565 2.163 . S
O564 C578 1.244 . S
Mn565 O564 2.163 . S
Mn565 O568 2.160 . S
Mn565 O569 2.221 . S
Mn565 O571 2.163 . S
Mn565 O573 2.160 . S
Mn565 O583 2.221 . S
O566 Mn567 2.087 . S
O566 C578 1.256 . S
Mn567 O566 2.087 . S
Mn567 O574 2.089 . S
Mn567 O583 2.290 . S
Mn567 O584 2.251 . S
O568 Mn565 2.160 . S
O568 C579 1.239 . S
O569 Mn565 2.221 . S
O569 Mn570 2.290 . S
O569 C580 1.278 . S
Mn570 O569 2.290 . S
Mn570 O572 2.089 . S
Mn570 O575 2.251 . S
Mn570 O576 2.087 . S
O571 Mn565 2.163 . S
O571 C581 1.244 . S
O572 Mn570 2.089 . S
O572 C579 1.256 . S
O573 Mn565 2.160 . S
O573 C582 1.239 . S
O574 Mn567 2.089 . S
O574 C582 1.256 . S
O575 Mn570 2.251 . S
O575 C580 1.241 . S
O576 Mn570 2.087 . S
O576 C581 1.256 . S
C577 O583 1.278 . S
C577 O584 1.241 . S
C578 O564 1.244 . S
C578 O566 1.256 . S
C579 O568 1.239 . S
C579 O572 1.256 . S
C580 O569 1.278 . S
C580 O575 1.241 . S
C581 O571 1.244 . S
C581 O576 1.256 . S
C582 O573 1.239 . S
C582 O574 1.256 . S
O583 Mn565 2.221 . S
O583 Mn567 2.290 . S
O583 C577 1.278 . S
O584 Mn567 2.251 . S
O584 C577 1.241 . S
O585 Mn586 2.163 . S
O585 C599 1.244 . S
Mn586 O585 2.163 . S
Mn586 O589 2.160 . S
Mn586 O590 2.221 . S
Mn586 O592 2.163 . S
Mn586 O594 2.160 . S
Mn586 O604 2.221 . S
O587 Mn588 2.087 . S
O587 C599 1.256 . S
Mn588 O587 2.087 . S
Mn588 O595 2.089 . S
Mn588 O604 2.290 . S
Mn588 O605 2.251 . S
O589 Mn586 2.160 . S
O589 C600 1.239 . S
O590 Mn586 2.221 . S
O590 Mn591 2.290 . S
O590 C601 1.278 . S
Mn591 O590 2.290 . S
Mn591 O593 2.089 . S
Mn591 O596 2.251 . S
Mn591 O597 2.087 . S
O592 Mn586 2.163 . S
O592 C602 1.244 . S
O593 Mn591 2.089 . S
O593 C600 1.256 . S
O594 Mn586 2.160 . S
O594 C603 1.239 . S
O595 Mn588 2.089 . S
O595 C603 1.256 . S
O596 Mn591 2.251 . S
O596 C601 1.241 . S
O597 Mn591 2.087 . S
O597 C602 1.256 . S
C598 O604 1.278 . S
C598 O605 1.241 . S
C599 O585 1.244 . S
C599 O587 1.256 . S
C600 O589 1.239 . S
C600 O593 1.256 . S
C601 O590 1.278 . S
C601 O596 1.241 . S
C602 O592 1.244 . S
C602 O597 1.256 . S
C603 O594 1.239 . S
C603 O595 1.256 . S
O604 Mn586 2.221 . S
O604 Mn588 2.290 . S
O604 C598 1.278 . S
O605 Mn588 2.251 . S
O605 C598 1.241 . S
O606 Mn607 2.163 . S
O606 C620 1.244 . S
Mn607 O606 2.163 . S
Mn607 O610 2.160 . S
Mn607 O611 2.221 . S
Mn607 O613 2.163 . S
Mn607 O615 2.160 . S
Mn607 O625 2.221 . S
O608 Mn609 2.087 . S
O608 C620 1.256 . S
Mn609 O608 2.087 . S
Mn609 O616 2.089 . S
Mn609 O625 2.290 . S
Mn609 O626 2.251 . S
O610 Mn607 2.160 . S
O610 C621 1.239 . S
O611 Mn607 2.221 . S
O611 Mn612 2.290 . S
O611 C622 1.278 . S
Mn612 O611 2.290 . S
Mn612 O614 2.089 . S
Mn612 O617 2.251 . S
Mn612 O618 2.087 . S
O613 Mn607 2.163 . S
O613 C623 1.244 . S
O614 Mn612 2.089 . S
O614 C621 1.256 . S
O615 Mn607 2.160 . S
O615 C624 1.239 . S
O616 Mn609 2.089 . S
O616 C624 1.256 . S
O617 Mn612 2.251 . S
O617 C622 1.241 . S
O618 Mn612 2.087 . S
O618 C623 1.256 . S
C619 O625 1.278 . S
C619 O626 1.241 . S
C620 O606 1.244 . S
C620 O608 1.256 . S
C621 O610 1.239 . S
C621 O614 1.256 . S
C622 O611 1.278 . S
C622 O617 1.241 . S
C623 O613 1.244 . S
C623 O618 1.256 . S
C624 O615 1.239 . S
C624 O616 1.256 . S
O625 Mn607 2.221 . S
O625 Mn609 2.290 . S
O625 C619 1.278 . S
O626 Mn609 2.251 . S
O626 C619 1.241 . S
O627 Mn628 2.163 1_656 S
O627 C641 1.244 . S
Mn628 O627 2.163 1_454 S
Mn628 O631 2.160 . S
Mn628 O632 2.221 . S
Mn628 O634 2.163 1_554 S
Mn628 O636 2.160 . S
Mn628 O646 2.221 1_454 S
O629 Mn630 2.087 1_556 S
O629 C641 1.256 . S
Mn630 O629 2.087 1_554 S
Mn630 O637 2.089 . S
Mn630 O646 2.290 1_554 S
Mn630 O647 2.251 1_554 S
O631 Mn628 2.160 . S
O631 C642 1.239 . S
O632 Mn628 2.221 . S
O632 Mn633 2.290 1_554 S
O632 C643 1.278 . S
Mn633 O632 2.290 1_556 S
Mn633 O635 2.089 . S
Mn633 O638 2.250 1_556 S
Mn633 O639 2.087 . S
O634 Mn628 2.163 1_556 S
O634 C644 1.244 . S
O635 Mn633 2.089 . S
O635 C642 1.256 1_556 S
O636 Mn628 2.160 . S
O636 C645 1.239 1_455 S
O637 Mn630 2.089 . S
O637 C645 1.256 . S
O638 Mn633 2.250 1_554 S
O638 C643 1.245 . S
O639 Mn633 2.087 . S
O639 C644 1.256 . S
C640 O646 1.278 . S
C640 O647 1.241 . S
C641 O627 1.244 . S
C641 O629 1.256 . S
C642 O631 1.239 . S
C642 O635 1.256 1_554 S
C643 O632 1.278 . S
C643 O638 1.245 . S
C644 O634 1.244 . S
C644 O639 1.256 . S
C645 O636 1.239 1_655 S
C645 O637 1.256 . S
O646 Mn628 2.221 1_656 S
O646 Mn630 2.290 1_556 S
O646 C640 1.278 . S
O647 Mn630 2.251 1_556 S
O647 C640 1.241 . S
C648 C649 1.378 1_455 S
C648 C650 1.394 . S
C648 H664 0.931 . S
C649 C648 1.378 1_655 S
C649 C653 1.389 . S
C650 C648 1.394 . S
C650 C651 1.366 . S
C650 C654 1.531 . S
C651 C650 1.366 . S
C651 C652 1.412 1_455 S
C651 C659 1.503 1_455 S
C652 C651 1.412 1_655 S
C652 C653 1.392 . S
C652 C655 1.511 . S
C653 C649 1.389 . S
C653 C652 1.392 . S
C653 H665 0.929 . S
C654 C650 1.531 . S
C654 H666 0.960 . S
C654 H667 0.962 . S
C654 H668 0.960 . S
C655 C652 1.511 . S
C655 H669 0.961 . S
C655 H670 0.961 . S
C655 H671 0.961 . S
C656 C657 1.370 . S
C656 C658 1.363 . S
C656 H672 0.931 . S
C657 C656 1.370 . S
C657 C661 1.408 1_655 S
C658 C656 1.363 . S
C658 C659 1.370 . S
C658 C662 1.524 . S
C659 C651 1.503 1_655 S
C659 C658 1.370 . S
C659 C660 1.403 1_655 S
C660 C659 1.403 1_455 S
C660 C661 1.404 . S
C660 C663 1.539 . S
C661 C657 1.408 1_455 S
C661 C660 1.404 . S
C661 H673 0.930 . S
C662 C658 1.524 . S
C662 H674 0.956 . S
C662 H675 0.961 . S
C662 H676 0.961 . S
C663 C660 1.539 . S
C663 H677 0.958 . S
C663 H678 0.961 . S
C663 H679 0.960 . S
H664 C648 0.931 . S
H665 C653 0.929 . S
H666 C654 0.960 . S
H667 C654 0.962 . S
H668 C654 0.960 . S
H669 C655 0.961 . S
H670 C655 0.961 . S
H671 C655 0.961 . S
H672 C656 0.931 . S
H673 C661 0.930 . S
H674 C662 0.956 . S
H675 C662 0.961 . S
H676 C662 0.961 . S
H677 C663 0.958 . S
H678 C663 0.961 . S
H679 C663 0.960 . S
C680 C681 1.391 . S
C680 C682 1.394 . S
C680 H696 0.931 . S
C681 C680 1.391 . S
C681 C685 1.376 . S
C682 C680 1.394 . S
C682 C683 1.369 . S
C682 C686 1.531 . S
C683 C682 1.369 . S
C683 C684 1.410 . S
C683 C691 1.503 . S
C684 C683 1.410 . S
C684 C685 1.392 . S
C684 C687 1.511 . S
C685 C681 1.376 . S
C685 C684 1.392 . S
C685 H697 0.929 . S
C686 C682 1.531 . S
C686 H698 0.960 . S
C686 H699 0.962 . S
C686 H700 0.960 . S
C687 C684 1.511 . S
C687 H701 0.961 . S
C687 H702 0.961 . S
C687 H703 0.961 . S
C688 C689 1.370 . S
C688 C690 1.363 . S
C688 H704 0.931 . S
C689 C688 1.370 . S
C689 C693 1.408 . S
C690 C688 1.363 . S
C690 C691 1.370 . S
C690 C694 1.524 . S
C691 C683 1.503 . S
C691 C690 1.370 . S
C691 C692 1.403 . S
C692 C691 1.403 . S
C692 C693 1.404 . S
C692 C695 1.539 . S
C693 C689 1.408 . S
C693 C692 1.404 . S
C693 H705 0.930 . S
C694 C690 1.524 . S
C694 H706 0.956 . S
C694 H707 0.961 . S
C694 H708 0.961 . S
C695 C692 1.539 . S
C695 H709 0.958 . S
C695 H710 0.961 . S
C695 H711 0.960 . S
H696 C680 0.931 . S
H697 C685 0.929 . S
H698 C686 0.960 . S
H699 C686 0.962 . S
H700 C686 0.960 . S
H701 C687 0.961 . S
H702 C687 0.961 . S
H703 C687 0.961 . S
H704 C688 0.931 . S
H705 C693 0.930 . S
H706 C694 0.956 . S
H707 C694 0.961 . S
H708 C694 0.961 . S
H709 C695 0.958 . S
H710 C695 0.961 . S
H711 C695 0.960 . S
C712 C713 1.391 . S
C712 C714 1.394 . S
C712 H728 0.931 . S
C713 C712 1.391 . S
C713 C717 1.376 . S
C714 C712 1.394 . S
C714 C715 1.369 . S
C714 C718 1.531 . S
C715 C714 1.369 . S
C715 C716 1.410 . S
C715 C723 1.503 . S
C716 C715 1.410 . S
C716 C717 1.392 . S
C716 C719 1.511 . S
C717 C713 1.376 . S
C717 C716 1.392 . S
C717 H729 0.929 . S
C718 C714 1.531 . S
C718 H730 0.960 . S
C718 H731 0.962 . S
C718 H732 0.960 . S
C719 C716 1.511 . S
C719 H733 0.961 . S
C719 H734 0.961 . S
C719 H735 0.961 . S
C720 C721 1.370 . S
C720 C722 1.363 . S
C720 H736 0.931 . S
C721 C720 1.370 . S
C721 C725 1.408 . S
C722 C720 1.363 . S
C722 C723 1.370 . S
C722 C726 1.524 . S
C723 C715 1.503 . S
C723 C722 1.370 . S
C723 C724 1.403 . S
C724 C723 1.403 . S
C724 C725 1.404 . S
C724 C727 1.539 . S
C725 C721 1.408 . S
C725 C724 1.404 . S
C725 H737 0.930 . S
C726 C722 1.524 . S
C726 H738 0.956 . S
C726 H739 0.961 . S
C726 H740 0.961 . S
C727 C724 1.539 . S
C727 H741 0.958 . S
C727 H742 0.961 . S
C727 H743 0.960 . S
H728 C712 0.931 . S
H729 C717 0.929 . S
H730 C718 0.960 . S
H731 C718 0.962 . S
H732 C718 0.960 . S
H733 C719 0.961 . S
H734 C719 0.961 . S
H735 C719 0.961 . S
H736 C720 0.931 . S
H737 C725 0.930 . S
H738 C726 0.956 . S
H739 C726 0.961 . S
H740 C726 0.961 . S
H741 C727 0.958 . S
H742 C727 0.961 . S
H743 C727 0.960 . S
C744 C745 1.391 . S
C744 C746 1.394 . S
C744 H760 0.931 . S
C745 C744 1.391 . S
C745 C749 1.376 . S
C746 C744 1.394 . S
C746 C747 1.369 . S
C746 C750 1.531 . S
C747 C746 1.369 . S
C747 C748 1.410 . S
C747 C755 1.503 . S
C748 C747 1.410 . S
C748 C749 1.392 . S
C748 C751 1.511 . S
C749 C745 1.376 . S
C749 C748 1.392 . S
C749 H761 0.929 . S
C750 C746 1.531 . S
C750 H762 0.960 . S
C750 H763 0.962 . S
C750 H764 0.960 . S
C751 C748 1.511 . S
C751 H765 0.961 . S
C751 H766 0.961 . S
C751 H767 0.961 . S
C752 C753 1.370 . S
C752 C754 1.363 . S
C752 H768 0.931 . S
C753 C752 1.370 . S
C753 C757 1.408 . S
C754 C752 1.363 . S
C754 C755 1.370 . S
C754 C758 1.524 . S
C755 C747 1.503 . S
C755 C754 1.370 . S
C755 C756 1.403 . S
C756 C755 1.403 . S
C756 C757 1.404 . S
C756 C759 1.539 . S
C757 C753 1.408 . S
C757 C756 1.404 . S
C757 H769 0.930 . S
C758 C754 1.524 . S
C758 H770 0.956 . S
C758 H771 0.961 . S
C758 H772 0.961 . S
C759 C756 1.539 . S
C759 H773 0.958 . S
C759 H774 0.961 . S
C759 H775 0.960 . S
H760 C744 0.931 . S
H761 C749 0.929 . S
H762 C750 0.960 . S
H763 C750 0.962 . S
H764 C750 0.960 . S
H765 C751 0.961 . S
H766 C751 0.961 . S
H767 C751 0.961 . S
H768 C752 0.931 . S
H769 C757 0.930 . S
H770 C758 0.956 . S
H771 C758 0.961 . S
H772 C758 0.961 . S
H773 C759 0.958 . S
H774 C759 0.961 . S
H775 C759 0.960 . S
C776 C777 1.391 . S
C776 C778 1.394 . S
C776 H792 0.931 . S
C777 C776 1.391 . S
C777 C781 1.376 1_655 S
C778 C776 1.394 . S
C778 C779 1.369 . S
C778 C782 1.531 . S
C779 C778 1.369 . S
C779 C780 1.410 1_655 S
C779 C787 1.503 . S
C780 C779 1.410 1_455 S
C780 C781 1.392 . S
C780 C783 1.511 . S
C781 C777 1.376 1_455 S
C781 C780 1.392 . S
C781 H793 0.929 . S
C782 C778 1.531 . S
C782 H794 0.960 . S
C782 H795 0.962 . S
C782 H796 0.960 . S
C783 C780 1.511 . S
C783 H797 0.961 . S
C783 H798 0.961 . S
C783 H799 0.961 . S
C784 C785 1.370 1_455 S
C784 C786 1.363 . S
C784 H800 0.931 . S
C785 C784 1.370 1_655 S
C785 C789 1.408 . S
C786 C784 1.363 . S
C786 C787 1.370 1_455 S
C786 C790 1.524 . S
C787 C779 1.503 . S
C787 C786 1.370 1_655 S
C787 C788 1.403 . S
C788 C787 1.403 . S
C788 C789 1.404 . S
C788 C791 1.539 . S
C789 C785 1.408 . S
C789 C788 1.404 . S
C789 H801 0.930 . S
C790 C786 1.524 . S
C790 H802 0.956 . S
C790 H803 0.961 . S
C790 H804 0.961 . S
C791 C788 1.539 . S
C791 H805 0.958 . S
C791 H806 0.961 . S
C791 H807 0.960 . S
H792 C776 0.931 . S
H793 C781 0.929 . S
H794 C782 0.960 . S
H795 C782 0.962 . S
H796 C782 0.960 . S
H797 C783 0.961 . S
H798 C783 0.961 . S
H799 C783 0.961 . S
H800 C784 0.931 . S
H801 C789 0.930 . S
H802 C790 0.956 . S
H803 C790 0.961 . S
H804 C790 0.961 . S
H805 C791 0.958 . S
H806 C791 0.961 . S
H807 C791 0.960 . S
C808 C809 1.391 . S
C808 C810 1.394 . S
C808 H824 0.931 . S
C809 C808 1.391 . S
C809 C813 1.376 . S
C810 C808 1.394 . S
C810 C811 1.369 . S
C810 C814 1.531 . S
C811 C810 1.369 . S
C811 C812 1.410 . S
C811 C819 1.503 . S
C812 C811 1.410 . S
C812 C813 1.392 . S
C812 C815 1.511 . S
C813 C809 1.376 . S
C813 C812 1.392 . S
C813 H825 0.929 . S
C814 C810 1.531 . S
C814 H826 0.960 . S
C814 H827 0.962 . S
C814 H828 0.960 . S
C815 C812 1.511 . S
C815 H829 0.961 . S
C815 H830 0.961 . S
C815 H831 0.961 . S
C816 C817 1.370 . S
C816 C818 1.363 . S
C816 H832 0.931 . S
C817 C816 1.370 . S
C817 C821 1.408 . S
C818 C816 1.363 . S
C818 C819 1.370 . S
C818 C822 1.524 . S
C819 C811 1.503 . S
C819 C818 1.370 . S
C819 C820 1.403 . S
C820 C819 1.403 . S
C820 C821 1.404 . S
C820 C823 1.539 . S
C821 C817 1.408 . S
C821 C820 1.404 . S
C821 H833 0.930 . S
C822 C818 1.524 . S
C822 H834 0.956 . S
C822 H835 0.961 . S
C822 H836 0.961 . S
C823 C820 1.539 . S
C823 H837 0.958 . S
C823 H838 0.961 . S
C823 H839 0.960 . S
H824 C808 0.931 . S
H825 C813 0.929 . S
H826 C814 0.960 . S
H827 C814 0.962 . S
H828 C814 0.960 . S
H829 C815 0.961 . S
H830 C815 0.961 . S
H831 C815 0.961 . S
H832 C816 0.931 . S
H833 C821 0.930 . S
H834 C822 0.956 . S
H835 C822 0.961 . S
H836 C822 0.961 . S
H837 C823 0.958 . S
H838 C823 0.961 . S
H839 C823 0.960 . S
C840 C841 1.391 . S
C840 C842 1.394 . S
C840 H856 0.931 . S
C841 C840 1.391 . S
C841 C845 1.376 . S
C842 C840 1.394 . S
C842 C843 1.369 . S
C842 C846 1.531 . S
C843 C842 1.369 . S
C843 C844 1.410 . S
C843 C851 1.503 . S
C844 C843 1.410 . S
C844 C845 1.392 . S
C844 C847 1.511 . S
C845 C841 1.376 . S
C845 C844 1.392 . S
C845 H857 0.929 . S
C846 C842 1.531 . S
C846 H858 0.960 . S
C846 H859 0.962 . S
C846 H860 0.960 . S
C847 C844 1.511 . S
C847 H861 0.961 . S
C847 H862 0.961 . S
C847 H863 0.961 . S
C848 C849 1.370 . S
C848 C850 1.363 . S
C848 H864 0.931 1_556 S
C849 C848 1.370 . S
C849 C853 1.408 . S
C850 C848 1.363 . S
C850 C851 1.370 . S
C850 C854 1.524 . S
C851 C843 1.503 . S
C851 C850 1.370 . S
C851 C852 1.403 . S
C852 C851 1.403 . S
C852 C853 1.404 . S
C852 C855 1.539 . S
C853 C849 1.408 . S
C853 C852 1.404 . S
C853 H865 0.930 . S
C854 C850 1.524 . S
C854 H866 0.956 . S
C854 H867 0.961 . S
C854 H868 0.928 1_556 S
C855 C852 1.539 . S
C855 H869 0.958 . S
C855 H870 0.961 . S
C855 H871 0.960 . S
H856 C840 0.931 . S
H857 C845 0.929 . S
H858 C846 0.960 . S
H859 C846 0.962 . S
H860 C846 0.960 . S
H861 C847 0.961 . S
H862 C847 0.961 . S
H863 C847 0.961 . S
H864 C848 0.931 1_554 S
H865 C853 0.930 . S
H866 C854 0.956 . S
H867 C854 0.961 . S
H868 C854 0.928 1_554 S
H869 C855 0.958 . S
H870 C855 0.961 . S
H871 C855 0.960 . S
C872 C873 1.391 . S
C872 C874 1.394 . S
C872 H888 0.931 . S
C873 C872 1.391 . S
C873 C877 1.376 . S
C874 C872 1.394 . S
C874 C875 1.369 . S
C874 C878 1.531 . S
C875 C874 1.369 . S
C875 C876 1.410 . S
C875 C883 1.503 . S
C876 C875 1.410 . S
C876 C877 1.392 . S
C876 C879 1.511 . S
C877 C873 1.376 . S
C877 C876 1.392 . S
C877 H889 0.929 . S
C878 C874 1.531 . S
C878 H890 0.960 . S
C878 H891 0.962 . S
C878 H892 0.960 . S
C879 C876 1.511 . S
C879 H893 0.961 . S
C879 H894 0.961 . S
C879 H895 0.961 . S
C880 C881 1.370 . S
C880 C882 1.363 . S
C880 H896 0.931 . S
C881 C880 1.370 . S
C881 C885 1.408 . S
C882 C880 1.363 . S
C882 C883 1.370 . S
C882 C886 1.524 . S
C883 C875 1.503 . S
C883 C882 1.370 . S
C883 C884 1.403 . S
C884 C883 1.403 . S
C884 C885 1.404 . S
C884 C887 1.539 . S
C885 C881 1.408 . S
C885 C884 1.404 . S
C885 H897 0.930 . S
C886 C882 1.524 . S
C886 H898 0.956 . S
C886 H899 0.961 . S
C886 H900 0.961 . S
C887 C884 1.539 . S
C887 H901 0.958 . S
C887 H902 0.961 . S
C887 H903 0.960 . S
H888 C872 0.931 . S
H889 C877 0.929 . S
H890 C878 0.960 . S
H891 C878 0.962 . S
H892 C878 0.960 . S
H893 C879 0.961 . S
H894 C879 0.961 . S
H895 C879 0.961 . S
H896 C880 0.931 . S
H897 C885 0.930 . S
H898 C886 0.956 . S
H899 C886 0.961 . S
H900 C886 0.961 . S
H901 C887 0.958 . S
H902 C887 0.961 . S
H903 C887 0.960 . S
C904 C905 1.391 . S
C904 C906 1.394 . S
C904 H920 0.931 . S
C905 C904 1.391 . S
C905 C909 1.376 1_565 S
C906 C904 1.394 . S
C906 C907 1.369 . S
C906 C910 1.531 . S
C907 C906 1.369 . S
C907 C908 1.410 . S
C907 C915 1.503 . S
C908 C907 1.410 . S
C908 C909 1.392 1_565 S
C908 C911 1.511 1_565 S
C909 C905 1.376 1_545 S
C909 C908 1.392 1_545 S
C909 H921 0.929 . S
C910 C906 1.531 . S
C910 H922 0.960 . S
C910 H923 0.962 . S
C910 H924 0.960 . S
C911 C908 1.511 1_545 S
C911 H925 0.961 . S
C911 H926 0.961 . S
C911 H927 0.961 1_545 S
C912 C913 1.370 1_545 S
C912 C914 1.363 . S
C912 H928 0.931 . S
C913 C912 1.370 1_565 S
C913 C917 1.408 . S
C914 C912 1.363 . S
C914 C915 1.370 1_545 S
C914 C918 1.524 . S
C915 C907 1.503 . S
C915 C914 1.370 1_565 S
C915 C916 1.403 . S
C916 C915 1.403 . S
C916 C917 1.404 . S
C916 C919 1.539 . S
C917 C913 1.408 . S
C917 C916 1.404 . S
C917 H929 0.930 . S
C918 C914 1.524 . S
C918 H930 0.956 . S
C918 H931 0.961 . S
C918 H932 0.961 . S
C919 C916 1.539 . S
C919 H933 0.958 . S
C919 H934 0.961 . S
C919 H935 0.960 . S
H920 C904 0.931 . S
H921 C909 0.929 . S
H922 C910 0.960 . S
H923 C910 0.962 . S
H924 C910 0.960 . S
H925 C911 0.961 . S
H926 C911 0.961 . S
H927 C911 0.961 1_565 S
H928 C912 0.931 . S
H929 C917 0.930 . S
H930 C918 0.956 . S
H931 C918 0.961 . S
H932 C918 0.961 . S
H933 C919 0.958 . S
H934 C919 0.961 . S
H935 C919 0.960 . S
C936 C937 1.391 . S
C936 C938 1.394 . S
C936 H952 0.931 . S
C937 C936 1.391 . S
C937 C941 1.376 . S
C938 C936 1.394 . S
C938 C939 1.369 . S
C938 C942 1.531 . S
C939 C938 1.369 . S
C939 C940 1.410 . S
C939 C947 1.503 . S
C940 C939 1.410 . S
C940 C941 1.392 . S
C940 C943 1.511 . S
C941 C937 1.376 . S
C941 C940 1.392 . S
C941 H953 0.929 . S
C942 C938 1.531 . S
C942 H954 0.960 . S
C942 H955 0.962 . S
C942 H956 0.960 . S
C943 C940 1.511 . S
C943 H957 0.961 . S
C943 H958 0.961 . S
C943 H959 0.961 . S
C944 C945 1.370 . S
C944 C946 1.363 . S
C944 H960 0.931 . S
C945 C944 1.370 . S
C945 C949 1.408 . S
C946 C944 1.363 . S
C946 C947 1.370 . S
C946 C950 1.524 . S
C947 C939 1.503 . S
C947 C946 1.370 . S
C947 C948 1.403 . S
C948 C947 1.403 . S
C948 C949 1.404 . S
C948 C951 1.539 . S
C949 C945 1.408 . S
C949 C948 1.404 . S
C949 H961 0.930 . S
C950 C946 1.524 . S
C950 H962 0.956 . S
C950 H963 0.961 . S
C950 H964 0.961 . S
C951 C948 1.539 . S
C951 H965 0.958 . S
C951 H966 0.961 . S
C951 H967 0.960 . S
H952 C936 0.931 . S
H953 C941 0.929 . S
H954 C942 0.960 . S
H955 C942 0.962 . S
H956 C942 0.960 . S
H957 C943 0.961 . S
H958 C943 0.961 . S
H959 C943 0.961 . S
H960 C944 0.931 . S
H961 C949 0.930 . S
H962 C950 0.956 . S
H963 C950 0.961 . S
H964 C950 0.961 . S
H965 C951 0.958 . S
H966 C951 0.961 . S
H967 C951 0.960 . S
C968 C969 1.391 . S
C968 C970 1.394 . S
C968 H984 0.931 1_545 S
C969 C968 1.391 . S
C969 C973 1.376 . S
C970 C968 1.394 . S
C970 C971 1.369 . S
C970 C974 1.531 1_545 S
C971 C970 1.369 . S
C971 C972 1.410 . S
C971 C979 1.503 . S
C972 C971 1.410 . S
C972 C973 1.392 . S
C972 C975 1.511 . S
C973 C969 1.376 . S
C973 C972 1.392 . S
C973 H985 0.929 . S
C974 C970 1.531 1_565 S
C974 H986 0.960 . S
C974 H987 0.962 1_565 S
C974 H988 0.960 . S
C975 C972 1.511 . S
C975 H989 0.961 . S
C975 H990 0.961 . S
C975 H991 0.961 . S
C976 C977 1.370 . S
C976 C978 1.363 . S
C976 H992 0.931 . S
C977 C976 1.370 . S
C977 C981 1.391 1_545 S
C978 C976 1.363 . S
C978 C979 1.370 . S
C978 C982 1.524 . S
C979 C971 1.503 . S
C979 C978 1.370 . S
C979 C980 1.403 1_545 S
C980 C979 1.403 1_565 S
C980 C981 1.406 . S
C980 C983 1.539 . S
C981 C977 1.391 1_565 S
C981 C980 1.406 . S
C981 H993 0.945 . S
C982 C978 1.524 . S
C982 H994 0.956 . S
C982 H995 0.961 . S
C982 H996 0.961 . S
C983 C980 1.539 . S
C983 H997 0.958 . S
C983 H998 0.961 . S
C983 H999 0.960 . S
H984 C968 0.931 1_565 S
H985 C973 0.929 . S
H986 C974 0.960 . S
H987 C974 0.962 1_545 S
H988 C974 0.960 . S
H989 C975 0.961 . S
H990 C975 0.961 . S
H991 C975 0.961 . S
H992 C976 0.931 . S
H993 C981 0.945 . S
H994 C982 0.956 . S
H995 C982 0.961 . S
H996 C982 0.961 . S
H997 C983 0.958 . S
H998 C983 0.961 . S
H999 C983 0.960 . S
C1000 C1001 1.391 . S
C1000 C1002 1.394 . S
C1000 H1016 0.931 . S
C1001 C1000 1.391 . S
C1001 C1005 1.376 . S
C1002 C1000 1.394 . S
C1002 C1003 1.369 . S
C1002 C1006 1.531 . S
C1003 C1002 1.369 . S
C1003 C1004 1.410 . S
C1003 C1011 1.503 . S
C1004 C1003 1.410 . S
C1004 C1005 1.392 . S
C1004 C1007 1.511 . S
C1005 C1001 1.376 . S
C1005 C1004 1.392 . S
C1005 H1017 0.929 . S
C1006 C1002 1.531 . S
C1006 H1018 0.960 . S
C1006 H1019 0.962 . S
C1006 H1020 0.960 . S
C1007 C1004 1.511 . S
C1007 H1021 0.961 . S
C1007 H1022 0.961 . S
C1007 H1023 0.961 . S
C1008 C1009 1.370 . S
C1008 C1010 1.363 . S
C1008 H1024 0.931 . S
C1009 C1008 1.370 . S
C1009 C1013 1.408 . S
C1010 C1008 1.363 . S
C1010 C1011 1.370 . S
C1010 C1014 1.524 . S
C1011 C1003 1.503 . S
C1011 C1010 1.370 . S
C1011 C1012 1.403 . S
C1012 C1011 1.403 . S
C1012 C1013 1.404 . S
C1012 C1015 1.539 . S
C1013 C1009 1.408 . S
C1013 C1012 1.404 . S
C1013 H1025 0.930 . S
C1014 C1010 1.524 . S
C1014 H1026 0.956 . S
C1014 H1027 0.961 . S
C1014 H1028 0.961 . S
C1015 C1012 1.539 . S
C1015 H1029 0.958 . S
C1015 H1030 0.961 . S
C1015 H1031 0.960 . S
H1016 C1000 0.931 . S
H1017 C1005 0.929 . S
H1018 C1006 0.960 . S
H1019 C1006 0.962 . S
H1020 C1006 0.960 . S
H1021 C1007 0.961 . S
H1022 C1007 0.961 . S
H1023 C1007 0.961 . S
H1024 C1008 0.931 . S
H1025 C1013 0.930 . S
H1026 C1014 0.956 . S
H1027 C1014 0.961 . S
H1028 C1014 0.961 . S
H1029 C1015 0.958 . S
H1030 C1015 0.961 . S
H1031 C1015 0.960 . S
C1032 C1033 1.391 . S
C1032 C1034 1.394 . S
C1032 H1048 0.931 . S
C1033 C1032 1.391 . S
C1033 C1037 1.376 1_545 S
C1034 C1032 1.394 . S
C1034 C1035 1.369 . S
C1034 C1038 1.531 . S
C1035 C1034 1.369 . S
C1035 C1036 1.412 1_545 S
C1035 C1043 1.503 . S
C1036 C1035 1.412 1_565 S
C1036 C1037 1.392 . S
C1036 C1039 1.509 . S
C1037 C1033 1.376 1_565 S
C1037 C1036 1.392 . S
C1037 H1049 0.929 . S
C1038 C1034 1.531 . S
C1038 H1050 0.960 . S
C1038 H1051 0.962 . S
C1038 H1052 0.960 . S
C1039 C1036 1.509 . S
C1039 H1053 0.961 . S
C1039 H1054 0.961 . S
C1039 H1055 0.961 . S
C1040 C1041 1.378 . S
C1040 C1042 1.363 . S
C1040 H1056 0.923 1_545 S
C1041 C1040 1.378 . S
C1041 C1045 1.408 . S
C1042 C1040 1.363 . S
C1042 C1043 1.377 . S
C1042 C1046 1.518 1_545 S
C1043 C1035 1.503 . S
C1043 C1042 1.377 . S
C1043 C1044 1.403 . S
C1044 C1043 1.403 . S
C1044 C1045 1.404 . S
C1044 C1047 1.539 . S
C1045 C1041 1.408 . S
C1045 C1044 1.404 . S
C1045 H1057 0.930 . S
C1046 C1042 1.518 1_565 S
C1046 H1058 0.956 . S
C1046 H1059 0.961 . S
C1046 H1060 0.961 . S
C1047 C1044 1.539 . S
C1047 H1061 0.958 . S
C1047 H1062 0.961 . S
C1047 H1063 0.960 . S
H1048 C1032 0.931 . S
H1049 C1037 0.929 . S
H1050 C1038 0.960 . S
H1051 C1038 0.962 . S
H1052 C1038 0.960 . S
H1053 C1039 0.961 . S
H1054 C1039 0.961 . S
H1055 C1039 0.961 . S
H1056 C1040 0.923 1_565 S
H1057 C1045 0.930 . S
H1058 C1046 0.956 . S
H1059 C1046 0.961 . S
H1060 C1046 0.961 . S
H1061 C1047 0.958 . S
H1062 C1047 0.961 . S
H1063 C1047 0.960 . S
C1064 C1065 1.391 . S
C1064 C1066 1.394 . S
C1064 H1080 0.931 . S
C1065 C1064 1.391 . S
C1065 C1069 1.376 . S
C1066 C1064 1.394 . S
C1066 C1067 1.369 . S
C1066 C1070 1.531 . S
C1067 C1066 1.369 . S
C1067 C1068 1.410 . S
C1067 C1075 1.503 . S
C1068 C1067 1.410 . S
C1068 C1069 1.392 . S
C1068 C1071 1.511 . S
C1069 C1065 1.376 . S
C1069 C1068 1.392 . S
C1069 H1081 0.929 . S
C1070 C1066 1.531 . S
C1070 H1082 0.960 . S
C1070 H1083 0.962 . S
C1070 H1084 0.960 . S
C1071 C1068 1.511 . S
C1071 H1085 0.961 . S
C1071 H1086 0.961 . S
C1071 H1087 0.961 . S
C1072 C1073 1.370 . S
C1072 C1074 1.363 . S
C1072 H1088 0.931 . S
C1073 C1072 1.370 . S
C1073 C1077 1.408 . S
C1074 C1072 1.363 . S
C1074 C1075 1.370 . S
C1074 C1078 1.524 . S
C1075 C1067 1.503 . S
C1075 C1074 1.370 . S
C1075 C1076 1.403 . S
C1076 C1075 1.403 . S
C1076 C1077 1.404 . S
C1076 C1079 1.539 . S
C1077 C1073 1.408 . S
C1077 C1076 1.404 . S
C1077 H1089 0.930 . S
C1078 C1074 1.524 . S
C1078 H1090 0.956 . S
C1078 H1091 0.961 . S
C1078 H1092 0.961 . S
C1079 C1076 1.539 . S
C1079 H1093 0.958 . S
C1079 H1094 0.961 . S
C1079 H1095 0.960 . S
H1080 C1064 0.931 . S
H1081 C1069 0.929 . S
H1082 C1070 0.960 . S
H1083 C1070 0.962 . S
H1084 C1070 0.960 . S
H1085 C1071 0.961 . S
H1086 C1071 0.961 . S
H1087 C1071 0.961 . S
H1088 C1072 0.931 . S
H1089 C1077 0.930 . S
H1090 C1078 0.956 . S
H1091 C1078 0.961 . S
H1092 C1078 0.961 . S
H1093 C1079 0.958 . S
H1094 C1079 0.961 . S
H1095 C1079 0.960 . S
C1096 C1097 1.431 . S
C1096 C1098 1.394 . S
C1096 H1112 0.931 . S
C1097 C1096 1.431 . S
C1097 C1101 1.336 1_545 S
C1098 C1096 1.394 . S
C1098 C1099 1.373 . S
C1098 C1102 1.531 . S
C1099 C1098 1.373 . S
C1099 C1100 1.406 1_545 S
C1099 C1107 1.503 1_545 S
C1100 C1099 1.406 1_565 S
C1100 C1101 1.392 . S
C1100 C1103 1.511 . S
C1101 C1097 1.336 1_565 S
C1101 C1100 1.392 . S
C1101 H1113 0.929 . S
C1102 C1098 1.531 . S
C1102 H1114 0.960 . S
C1102 H1115 0.962 . S
C1102 H1116 0.960 . S
C1103 C1100 1.511 . S
C1103 H1117 0.961 . S
C1103 H1118 0.961 . S
C1103 H1119 0.961 . S
C1104 C1105 1.370 . S
C1104 C1106 1.363 . S
C1104 H1120 0.931 . S
C1105 C1104 1.370 . S
C1105 C1109 1.408 1_565 S
C1106 C1104 1.363 . S
C1106 C1107 1.370 . S
C1106 C1110 1.524 . S
C1107 C1099 1.503 1_565 S
C1107 C1106 1.370 . S
C1107 C1108 1.403 1_565 S
C1108 C1107 1.403 1_545 S
C1108 C1109 1.404 . S
C1108 C1111 1.539 . S
C1109 C1105 1.408 1_545 S
C1109 C1108 1.404 . S
C1109 H1121 0.930 . S
C1110 C1106 1.524 . S
C1110 H1122 0.987 . S
C1110 H1123 0.961 . S
C1110 H1124 0.961 . S
C1111 C1108 1.539 . S
C1111 H1125 0.958 . S
C1111 H1126 0.961 . S
C1111 H1127 0.960 . S
H1112 C1096 0.931 . S
H1113 C1101 0.929 . S
H1114 C1102 0.960 . S
H1115 C1102 0.962 . S
H1116 C1102 0.960 . S
H1117 C1103 0.961 . S
H1118 C1103 0.961 . S
H1119 C1103 0.961 . S
H1120 C1104 0.931 . S
H1121 C1109 0.930 . S
H1122 C1110 0.987 . S
H1123 C1110 0.961 . S
H1124 C1110 0.961 . S
H1125 C1111 0.958 . S
H1126 C1111 0.961 . S
H1127 C1111 0.960 . S
C1128 C1129 1.391 . S
C1128 C1130 1.394 . S
C1128 H1144 0.931 . S
C1129 C1128 1.391 . S
C1129 C1133 1.376 . S
C1130 C1128 1.394 . S
C1130 C1131 1.369 . S
C1130 C1134 1.531 . S
C1131 C1130 1.369 . S
C1131 C1132 1.410 . S
C1131 C1139 1.503 . S
C1132 C1131 1.410 . S
C1132 C1133 1.392 . S
C1132 C1135 1.511 . S
C1133 C1129 1.376 . S
C1133 C1132 1.392 . S
C1133 H1145 0.929 . S
C1134 C1130 1.531 . S
C1134 H1146 0.960 . S
C1134 H1147 0.962 . S
C1134 H1148 0.960 . S
C1135 C1132 1.511 . S
C1135 H1149 0.961 . S
C1135 H1150 0.961 . S
C1135 H1151 0.961 . S
C1136 C1137 1.370 . S
C1136 C1138 1.363 . S
C1136 H1152 0.931 . S
C1137 C1136 1.370 . S
C1137 C1141 1.408 . S
C1138 C1136 1.363 . S
C1138 C1139 1.370 . S
C1138 C1142 1.524 . S
C1139 C1131 1.503 . S
C1139 C1138 1.370 . S
C1139 C1140 1.403 . S
C1140 C1139 1.403 . S
C1140 C1141 1.404 . S
C1140 C1143 1.539 . S
C1141 C1137 1.408 . S
C1141 C1140 1.404 . S
C1141 H1153 0.930 . S
C1142 C1138 1.524 . S
C1142 H1154 0.956 . S
C1142 H1155 0.961 . S
C1142 H1156 0.961 . S
C1143 C1140 1.539 . S
C1143 H1157 0.958 . S
C1143 H1158 0.961 . S
C1143 H1159 0.960 . S
H1144 C1128 0.931 . S
H1145 C1133 0.929 . S
H1146 C1134 0.960 . S
H1147 C1134 0.962 . S
H1148 C1134 0.960 . S
H1149 C1135 0.961 . S
H1150 C1135 0.961 . S
H1151 C1135 0.961 . S
H1152 C1136 0.931 . S
H1153 C1141 0.930 . S
H1154 C1142 0.956 . S
H1155 C1142 0.961 . S
H1156 C1142 0.961 . S
H1157 C1143 0.958 . S
H1158 C1143 0.961 . S
H1159 C1143 0.960 . S
C1160 C1161 1.391 . S
C1160 C1162 1.394 . S
C1160 H1176 0.931 . S
C1161 C1160 1.391 . S
C1161 C1165 1.376 1_556 S
C1162 C1160 1.394 . S
C1162 C1163 1.369 . S
C1162 C1166 1.531 . S
C1163 C1162 1.369 . S
C1163 C1164 1.410 1_556 S
C1163 C1171 1.503 . S
C1164 C1163 1.410 1_554 S
C1164 C1165 1.392 . S
C1164 C1167 1.511 . S
C1165 C1161 1.376 1_554 S
C1165 C1164 1.392 . S
C1165 H1177 0.929 . S
C1166 C1162 1.531 . S
C1166 H1178 0.960 . S
C1166 H1179 0.962 . S
C1166 H1180 0.960 . S
C1167 C1164 1.511 . S
C1167 H1181 0.961 . S
C1167 H1182 0.961 . S
C1167 H1183 0.961 . S
C1168 C1169 1.370 1_554 S
C1168 C1170 1.363 . S
C1168 H1184 0.931 . S
C1169 C1168 1.370 1_556 S
C1169 C1173 1.408 . S
C1170 C1168 1.363 . S
C1170 C1171 1.370 1_554 S
C1170 C1174 1.524 . S
C1171 C1163 1.503 . S
C1171 C1170 1.370 1_556 S
C1171 C1172 1.403 . S
C1172 C1171 1.403 . S
C1172 C1173 1.404 . S
C1172 C1175 1.539 . S
C1173 C1169 1.408 . S
C1173 C1172 1.404 . S
C1173 H1185 0.930 . S
C1174 C1170 1.524 . S
C1174 H1186 0.956 . S
C1174 H1187 0.961 . S
C1174 H1188 0.961 . S
C1175 C1172 1.539 . S
C1175 H1189 0.958 . S
C1175 H1190 0.961 . S
C1175 H1191 0.960 . S
H1176 C1160 0.931 . S
H1177 C1165 0.929 . S
H1178 C1166 0.960 . S
H1179 C1166 0.962 . S
H1180 C1166 0.960 . S
H1181 C1167 0.961 . S
H1182 C1167 0.961 . S
H1183 C1167 0.961 . S
H1184 C1168 0.931 . S
H1185 C1173 0.930 . S
H1186 C1174 0.956 . S
H1187 C1174 0.961 . S
H1188 C1174 0.961 . S
H1189 C1175 0.958 . S
H1190 C1175 0.961 . S
H1191 C1175 0.960 . S
C1192 C1193 1.391 . S
C1192 C1194 1.394 . S
C1192 H1208 0.931 . S
C1193 C1192 1.391 . S
C1193 C1197 1.376 . S
C1194 C1192 1.394 . S
C1194 C1195 1.369 . S
C1194 C1198 1.531 . S
C1195 C1194 1.369 . S
C1195 C1196 1.410 . S
C1195 C1203 1.503 . S
C1196 C1195 1.410 . S
C1196 C1197 1.392 . S
C1196 C1199 1.511 . S
C1197 C1193 1.376 . S
C1197 C1196 1.392 . S
C1197 H1209 0.929 . S
C1198 C1194 1.531 . S
C1198 H1210 0.960 . S
C1198 H1211 0.962 . S
C1198 H1212 0.960 . S
C1199 C1196 1.511 . S
C1199 H1213 0.961 . S
C1199 H1214 0.961 . S
C1199 H1215 0.961 . S
C1200 C1201 1.341 1_556 S
C1200 C1202 1.363 . S
C1200 H1216 0.961 . S
C1201 C1200 1.341 1_554 S
C1201 C1205 1.408 . S
C1202 C1200 1.363 . S
C1202 C1203 1.335 1_556 S
C1202 C1206 1.560 . S
C1203 C1195 1.503 . S
C1203 C1202 1.335 1_554 S
C1203 C1204 1.403 . S
C1204 C1203 1.403 . S
C1204 C1205 1.404 . S
C1204 C1207 1.539 . S
C1205 C1201 1.408 . S
C1205 C1204 1.404 . S
C1205 H1217 0.930 . S
C1206 C1202 1.560 . S
C1206 H1218 0.956 . S
C1206 H1219 0.961 . S
C1206 H1220 0.961 . S
C1207 C1204 1.539 . S
C1207 H1221 0.958 . S
C1207 H1222 0.961 . S
C1207 H1223 0.960 . S
H1208 C1192 0.931 . S
H1209 C1197 0.929 . S
H1210 C1198 0.960 . S
H1211 C1198 0.962 . S
H1212 C1198 0.960 . S
H1213 C1199 0.961 . S
H1214 C1199 0.961 . S
H1215 C1199 0.961 . S
H1216 C1200 0.961 . S
H1217 C1205 0.930 . S
H1218 C1206 0.956 . S
H1219 C1206 0.961 . S
H1220 C1206 0.961 . S
H1221 C1207 0.958 . S
H1222 C1207 0.961 . S
H1223 C1207 0.960 . S
C1224 C1225 1.391 . S
C1224 C1226 1.394 . S
C1224 H1240 0.931 . S
C1225 C1224 1.391 . S
C1225 C1229 1.376 . S
C1226 C1224 1.394 . S
C1226 C1227 1.369 . S
C1226 C1230 1.531 . S
C1227 C1226 1.369 . S
C1227 C1228 1.410 . S
C1227 C1235 1.503 . S
C1228 C1227 1.410 . S
C1228 C1229 1.392 . S
C1228 C1231 1.511 . S
C1229 C1225 1.376 . S
C1229 C1228 1.392 . S
C1229 H1241 0.929 . S
C1230 C1226 1.531 . S
C1230 H1242 0.960 . S
C1230 H1243 0.962 . S
C1230 H1244 0.960 . S
C1231 C1228 1.511 . S
C1231 H1245 0.961 . S
C1231 H1246 0.961 . S
C1231 H1247 0.961 . S
C1232 C1233 1.370 . S
C1232 C1234 1.363 . S
C1232 H1248 0.931 . S
C1233 C1232 1.370 . S
C1233 C1237 1.408 . S
C1234 C1232 1.363 . S
C1234 C1235 1.370 . S
C1234 C1238 1.524 . S
C1235 C1227 1.503 . S
C1235 C1234 1.370 . S
C1235 C1236 1.403 . S
C1236 C1235 1.403 . S
C1236 C1237 1.404 . S
C1236 C1239 1.539 . S
C1237 C1233 1.408 . S
C1237 C1236 1.404 . S
C1237 H1249 0.930 . S
C1238 C1234 1.524 . S
C1238 H1250 0.956 . S
C1238 H1251 0.961 . S
C1238 H1252 0.961 . S
C1239 C1236 1.539 . S
C1239 H1253 0.958 . S
C1239 H1254 0.961 . S
C1239 H1255 0.960 . S
H1240 C1224 0.931 . S
H1241 C1229 0.929 . S
H1242 C1230 0.960 . S
H1243 C1230 0.962 . S
H1244 C1230 0.960 . S
H1245 C1231 0.961 . S
H1246 C1231 0.961 . S
H1247 C1231 0.961 . S
H1248 C1232 0.931 . S
H1249 C1237 0.930 . S
H1250 C1238 0.956 . S
H1251 C1238 0.961 . S
H1252 C1238 0.961 . S
H1253 C1239 0.958 . S
H1254 C1239 0.961 . S
H1255 C1239 0.960 . S
C1256 C1257 1.391 . S
C1256 C1258 1.394 . S
C1256 H1272 0.931 . S
C1257 C1256 1.391 . S
C1257 C1261 1.376 . S
C1258 C1256 1.394 . S
C1258 C1259 1.369 . S
C1258 C1262 1.531 . S
C1259 C1258 1.369 . S
C1259 C1260 1.410 . S
C1259 C1267 1.503 . S
C1260 C1259 1.410 . S
C1260 C1261 1.392 . S
C1260 C1263 1.511 . S
C1261 C1257 1.376 . S
C1261 C1260 1.392 . S
C1261 H1273 0.929 . S
C1262 C1258 1.531 . S
C1262 H1274 0.960 . S
C1262 H1275 0.962 . S
C1262 H1276 0.960 . S
C1263 C1260 1.511 . S
C1263 H1277 0.961 . S
C1263 H1278 0.961 . S
C1263 H1279 0.961 . S
C1264 C1265 1.370 . S
C1264 C1266 1.363 . S
C1264 H1280 0.931 . S
C1265 C1264 1.370 . S
C1265 C1269 1.408 . S
C1266 C1264 1.363 . S
C1266 C1267 1.370 . S
C1266 C1270 1.524 . S
C1267 C1259 1.503 . S
C1267 C1266 1.370 . S
C1267 C1268 1.403 . S
C1268 C1267 1.403 . S
C1268 C1269 1.404 . S
C1268 C1271 1.539 . S
C1269 C1265 1.408 . S
C1269 C1268 1.404 . S
C1269 H1281 0.930 . S
C1270 C1266 1.524 . S
C1270 H1282 0.956 . S
C1270 H1283 0.961 . S
C1270 H1284 0.961 . S
C1271 C1268 1.539 . S
C1271 H1285 0.958 . S
C1271 H1286 0.961 . S
C1271 H1287 0.960 . S
H1272 C1256 0.931 . S
H1273 C1261 0.929 . S
H1274 C1262 0.960 . S
H1275 C1262 0.962 . S
H1276 C1262 0.960 . S
H1277 C1263 0.961 . S
H1278 C1263 0.961 . S
H1279 C1263 0.961 . S
H1280 C1264 0.931 . S
H1281 C1269 0.930 . S
H1282 C1270 0.956 . S
H1283 C1270 0.961 . S
H1284 C1270 0.961 . S
H1285 C1271 0.958 . S
H1286 C1271 0.961 . S
H1287 C1271 0.960 . S
C1288 C1289 1.391 . S
C1288 C1290 1.394 . S
C1288 H1304 0.931 . S
C1289 C1288 1.391 . S
C1289 C1293 1.376 . S
C1290 C1288 1.394 . S
C1290 C1291 1.369 . S
C1290 C1294 1.531 . S
C1291 C1290 1.369 . S
C1291 C1292 1.410 . S
C1291 C1299 1.503 . S
C1292 C1291 1.410 . S
C1292 C1293 1.392 . S
C1292 C1295 1.511 . S
C1293 C1289 1.376 . S
C1293 C1292 1.392 . S
C1293 H1305 0.929 . S
C1294 C1290 1.531 . S
C1294 H1306 0.960 . S
C1294 H1307 0.962 . S
C1294 H1308 0.960 . S
C1295 C1292 1.511 . S
C1295 H1309 0.961 . S
C1295 H1310 0.961 . S
C1295 H1311 0.961 . S
C1296 C1297 1.370 . S
C1296 C1298 1.363 . S
C1296 H1312 0.931 . S
C1297 C1296 1.370 . S
C1297 C1301 1.408 . S
C1298 C1296 1.363 . S
C1298 C1299 1.370 . S
C1298 C1302 1.524 . S
C1299 C1291 1.503 . S
C1299 C1298 1.370 . S
C1299 C1300 1.403 . S
C1300 C1299 1.403 . S
C1300 C1301 1.404 . S
C1300 C1303 1.539 . S
C1301 C1297 1.408 . S
C1301 C1300 1.404 . S
C1301 H1313 0.930 . S
C1302 C1298 1.524 . S
C1302 H1314 0.956 . S
C1302 H1315 0.961 . S
C1302 H1316 0.961 . S
C1303 C1300 1.539 . S
C1303 H1317 0.958 . S
C1303 H1318 0.961 . S
C1303 H1319 0.960 . S
H1304 C1288 0.931 . S
H1305 C1293 0.929 . S
H1306 C1294 0.960 . S
H1307 C1294 0.962 . S
H1308 C1294 0.960 . S
H1309 C1295 0.961 . S
H1310 C1295 0.961 . S
H1311 C1295 0.961 . S
H1312 C1296 0.931 . S
H1313 C1301 0.930 . S
H1314 C1302 0.956 . S
H1315 C1302 0.961 . S
H1316 C1302 0.961 . S
H1317 C1303 0.958 . S
H1318 C1303 0.961 . S
H1319 C1303 0.960 . S
C1320 C1321 1.391 . S
C1320 C1322 1.394 . S
C1320 H1336 0.931 . S
C1321 C1320 1.391 . S
C1321 C1325 1.376 . S
C1322 C1320 1.394 . S
C1322 C1323 1.369 . S
C1322 C1326 1.531 . S
C1323 C1322 1.369 . S
C1323 C1324 1.410 . S
C1323 C1331 1.503 . S
C1324 C1323 1.410 . S
C1324 C1325 1.392 . S
C1324 C1327 1.511 . S
C1325 C1321 1.376 . S
C1325 C1324 1.392 . S
C1325 H1337 0.929 . S
C1326 C1322 1.531 . S
C1326 H1338 0.960 . S
C1326 H1339 0.962 . S
C1326 H1340 0.960 . S
C1327 C1324 1.511 . S
C1327 H1341 0.961 . S
C1327 H1342 0.961 . S
C1327 H1343 0.961 . S
C1328 C1329 1.370 . S
C1328 C1330 1.363 . S
C1328 H1344 0.931 . S
C1329 C1328 1.370 . S
C1329 C1333 1.408 . S
C1330 C1328 1.363 . S
C1330 C1331 1.370 . S
C1330 C1334 1.524 . S
C1331 C1323 1.503 . S
C1331 C1330 1.370 . S
C1331 C1332 1.403 . S
C1332 C1331 1.403 . S
C1332 C1333 1.404 . S
C1332 C1335 1.539 . S
C1333 C1329 1.408 . S
C1333 C1332 1.404 . S
C1333 H1345 0.930 . S
C1334 C1330 1.524 . S
C1334 H1346 0.956 . S
C1334 H1347 0.961 . S
C1334 H1348 0.961 . S
C1335 C1332 1.539 . S
C1335 H1349 0.958 . S
C1335 H1350 0.961 . S
C1335 H1351 0.960 . S
H1336 C1320 0.931 . S
H1337 C1325 0.929 . S
H1338 C1326 0.960 . S
H1339 C1326 0.962 . S
H1340 C1326 0.960 . S
H1341 C1327 0.961 . S
H1342 C1327 0.961 . S
H1343 C1327 0.961 . S
H1344 C1328 0.931 . S
H1345 C1333 0.930 . S
H1346 C1334 0.956 . S
H1347 C1334 0.961 . S
H1348 C1334 0.961 . S
H1349 C1335 0.958 . S
H1350 C1335 0.961 . S
H1351 C1335 0.960 . S
C1352 C1353 1.391 . S
C1352 C1354 1.394 . S
C1352 H1368 0.931 . S
C1353 C1352 1.391 . S
C1353 C1357 1.376 . S
C1354 C1352 1.394 . S
C1354 C1355 1.369 . S
C1354 C1358 1.531 . S
C1355 C1354 1.369 . S
C1355 C1356 1.410 . S
C1355 C1363 1.503 . S
C1356 C1355 1.410 . S
C1356 C1357 1.392 . S
C1356 C1359 1.511 . S
C1357 C1353 1.376 . S
C1357 C1356 1.392 . S
C1357 H1369 0.929 . S
C1358 C1354 1.531 . S
C1358 H1370 0.960 . S
C1358 H1371 0.962 . S
C1358 H1372 0.960 . S
C1359 C1356 1.511 . S
C1359 H1373 0.961 . S
C1359 H1374 0.961 . S
C1359 H1375 0.961 . S
C1360 C1361 1.370 . S
C1360 C1362 1.363 . S
C1360 H1376 0.931 . S
C1361 C1360 1.370 . S
C1361 C1365 1.408 . S
C1362 C1360 1.363 . S
C1362 C1363 1.370 . S
C1362 C1366 1.524 . S
C1363 C1355 1.503 . S
C1363 C1362 1.370 . S
C1363 C1364 1.403 . S
C1364 C1363 1.403 . S
C1364 C1365 1.404 . S
C1364 C1367 1.539 . S
C1365 C1361 1.408 . S
C1365 C1364 1.404 . S
C1365 H1377 0.930 . S
C1366 C1362 1.524 . S
C1366 H1378 0.956 . S
C1366 H1379 0.961 . S
C1366 H1380 0.961 . S
C1367 C1364 1.539 . S
C1367 H1381 0.958 . S
C1367 H1382 0.961 . S
C1367 H1383 0.960 . S
H1368 C1352 0.931 . S
H1369 C1357 0.929 . S
H1370 C1358 0.960 . S
H1371 C1358 0.962 . S
H1372 C1358 0.960 . S
H1373 C1359 0.961 . S
H1374 C1359 0.961 . S
H1375 C1359 0.961 . S
H1376 C1360 0.931 . S
H1377 C1365 0.930 . S
H1378 C1366 0.956 . S
H1379 C1366 0.961 . S
H1380 C1366 0.961 . S
H1381 C1367 0.958 . S
H1382 C1367 0.961 . S
H1383 C1367 0.960 . S
C1384 C1385 1.391 . S
C1384 C1386 1.394 . S
C1384 H1400 0.931 . S
C1385 C1384 1.391 . S
C1385 C1389 1.376 . S
C1386 C1384 1.394 . S
C1386 C1387 1.369 . S
C1386 C1390 1.531 . S
C1387 C1386 1.369 . S
C1387 C1388 1.410 . S
C1387 C1395 1.503 . S
C1388 C1387 1.410 . S
C1388 C1389 1.392 . S
C1388 C1391 1.511 . S
C1389 C1385 1.376 . S
C1389 C1388 1.392 . S
C1389 H1401 0.929 . S
C1390 C1386 1.531 . S
C1390 H1402 0.960 . S
C1390 H1403 0.962 . S
C1390 H1404 0.960 . S
C1391 C1388 1.511 . S
C1391 H1405 0.961 . S
C1391 H1406 0.961 . S
C1391 H1407 0.961 . S
C1392 C1393 1.370 . S
C1392 C1394 1.363 . S
C1392 H1408 0.931 . S
C1393 C1392 1.370 . S
C1393 C1397 1.408 . S
C1394 C1392 1.363 . S
C1394 C1395 1.370 . S
C1394 C1398 1.524 . S
C1395 C1387 1.503 . S
C1395 C1394 1.370 . S
C1395 C1396 1.403 . S
C1396 C1395 1.403 . S
C1396 C1397 1.404 . S
C1396 C1399 1.539 . S
C1397 C1393 1.408 . S
C1397 C1396 1.404 . S
C1397 H1409 0.930 . S
C1398 C1394 1.524 . S
C1398 H1410 0.956 . S
C1398 H1411 0.961 . S
C1398 H1412 0.961 . S
C1399 C1396 1.539 . S
C1399 H1413 0.958 . S
C1399 H1414 0.961 . S
C1399 H1415 0.960 . S
H1400 C1384 0.931 . S
H1401 C1389 0.929 . S
H1402 C1390 0.960 . S
H1403 C1390 0.962 . S
H1404 C1390 0.960 . S
H1405 C1391 0.961 . S
H1406 C1391 0.961 . S
H1407 C1391 0.961 . S
H1408 C1392 0.931 . S
H1409 C1397 0.930 . S
H1410 C1398 0.956 . S
H1411 C1398 0.961 . S
H1412 C1398 0.961 . S
H1413 C1399 0.958 . S
H1414 C1399 0.961 . S
H1415 C1399 0.960 . S
C1416 C1417 1.391 1_655 S
C1416 C1418 1.394 . S
C1416 H1432 0.931 . S
C1417 C1416 1.391 1_455 S
C1417 C1421 1.376 . S
C1418 C1416 1.394 . S
C1418 C1419 1.369 1_655 S
C1418 C1422 1.531 . S
C1419 C1418 1.369 1_455 S
C1419 C1420 1.410 . S
C1419 C1427 1.503 . S
C1420 C1419 1.410 . S
C1420 C1421 1.392 . S
C1420 C1423 1.511 . S
C1421 C1417 1.376 . S
C1421 C1420 1.392 . S
C1421 H1433 0.929 . S
C1422 C1418 1.531 . S
C1422 H1434 0.960 . S
C1422 H1435 0.962 . S
C1422 H1436 0.960 . S
C1423 C1420 1.511 . S
C1423 H1437 0.961 . S
C1423 H1438 0.961 . S
C1423 H1439 0.961 . S
C1424 C1425 1.370 . S
C1424 C1426 1.363 . S
C1424 H1440 0.931 . S
C1425 C1424 1.370 . S
C1425 C1429 1.408 . S
C1426 C1424 1.363 . S
C1426 C1427 1.370 . S
C1426 C1430 1.524 . S
C1427 C1419 1.503 . S
C1427 C1426 1.370 . S
C1427 C1428 1.403 . S
C1428 C1427 1.403 . S
C1428 C1429 1.404 . S
C1428 C1431 1.539 . S
C1429 C1425 1.408 . S
C1429 C1428 1.404 . S
C1429 H1441 0.930 1_556 S
C1430 C1426 1.524 . S
C1430 H1442 0.956 1_455 S
C1430 H1443 0.961 . S
C1430 H1444 0.961 . S
C1431 C1428 1.539 . S
C1431 H1445 0.958 1_455 S
C1431 H1446 0.961 1_556 S
C1431 H1447 0.960 . S
H1432 C1416 0.931 . S
H1433 C1421 0.929 . S
H1434 C1422 0.960 . S
H1435 C1422 0.962 . S
H1436 C1422 0.960 . S
H1437 C1423 0.961 . S
H1438 C1423 0.961 . S
H1439 C1423 0.961 . S
H1440 C1424 0.931 . S
H1441 C1429 0.930 1_554 S
H1442 C1430 0.956 1_655 S
H1443 C1430 0.961 . S
H1444 C1430 0.961 . S
H1445 C1431 0.958 1_655 S
H1446 C1431 0.961 1_554 S
H1447 C1431 0.960 . S
C1448 C1449 1.391 . S
C1448 C1450 1.394 . S
C1448 H1464 0.931 . S
C1449 C1448 1.391 . S
C1449 C1453 1.376 . S
C1450 C1448 1.394 . S
C1450 C1451 1.369 . S
C1450 C1454 1.531 . S
C1451 C1450 1.369 . S
C1451 C1452 1.410 . S
C1451 C1459 1.503 . S
C1452 C1451 1.410 . S
C1452 C1453 1.392 . S
C1452 C1455 1.511 . S
C1453 C1449 1.376 . S
C1453 C1452 1.392 . S
C1453 H1465 0.929 . S
C1454 C1450 1.531 . S
C1454 H1466 0.960 . S
C1454 H1467 0.962 . S
C1454 H1468 0.960 . S
C1455 C1452 1.511 . S
C1455 H1469 0.961 . S
C1455 H1470 0.961 . S
C1455 H1471 0.961 . S
C1456 C1457 1.370 . S
C1456 C1458 1.363 . S
C1456 H1472 0.931 . S
C1457 C1456 1.370 . S
C1457 C1461 1.408 . S
C1458 C1456 1.363 . S
C1458 C1459 1.370 . S
C1458 C1462 1.524 . S
C1459 C1451 1.503 . S
C1459 C1458 1.370 . S
C1459 C1460 1.403 . S
C1460 C1459 1.403 . S
C1460 C1461 1.404 . S
C1460 C1463 1.539 . S
C1461 C1457 1.408 . S
C1461 C1460 1.404 . S
C1461 H1473 0.930 . S
C1462 C1458 1.524 . S
C1462 H1474 0.956 . S
C1462 H1475 0.961 . S
C1462 H1476 0.961 . S
C1463 C1460 1.539 . S
C1463 H1477 0.958 . S
C1463 H1478 0.961 . S
C1463 H1479 0.960 . S
H1464 C1448 0.931 . S
H1465 C1453 0.929 . S
H1466 C1454 0.960 . S
H1467 C1454 0.962 . S
H1468 C1454 0.960 . S
H1469 C1455 0.961 . S
H1470 C1455 0.961 . S
H1471 C1455 0.961 . S
H1472 C1456 0.931 . S
H1473 C1461 0.930 . S
H1474 C1462 0.956 . S
H1475 C1462 0.961 . S
H1476 C1462 0.961 . S
H1477 C1463 0.958 . S
H1478 C1463 0.961 . S
H1479 C1463 0.960 . S
C1480 C1481 1.391 . S
C1480 C1482 1.394 . S
C1480 H1496 0.931 . S
C1481 C1480 1.391 . S
C1481 C1485 1.376 . S
C1482 C1480 1.394 . S
C1482 C1483 1.369 . S
C1482 C1486 1.531 . S
C1483 C1482 1.369 . S
C1483 C1484 1.410 . S
C1483 C1491 1.503 . S
C1484 C1483 1.410 . S
C1484 C1485 1.392 . S
C1484 C1487 1.511 . S
C1485 C1481 1.376 . S
C1485 C1484 1.392 . S
C1485 H1497 0.929 . S
C1486 C1482 1.531 . S
C1486 H1498 0.960 . S
C1486 H1499 0.962 . S
C1486 H1500 0.960 . S
C1487 C1484 1.511 . S
C1487 H1501 0.961 . S
C1487 H1502 0.961 . S
C1487 H1503 0.961 . S
C1488 C1489 1.370 . S
C1488 C1490 1.363 . S
C1488 H1504 0.931 . S
C1489 C1488 1.370 . S
C1489 C1493 1.408 . S
C1490 C1488 1.363 . S
C1490 C1491 1.370 . S
C1490 C1494 1.524 . S
C1491 C1483 1.503 . S
C1491 C1490 1.370 . S
C1491 C1492 1.403 . S
C1492 C1491 1.403 . S
C1492 C1493 1.404 . S
C1492 C1495 1.539 . S
C1493 C1489 1.408 . S
C1493 C1492 1.404 . S
C1493 H1505 0.930 . S
C1494 C1490 1.524 . S
C1494 H1506 0.956 . S
C1494 H1507 0.961 . S
C1494 H1508 0.961 . S
C1495 C1492 1.539 . S
C1495 H1509 0.958 . S
C1495 H1510 0.961 . S
C1495 H1511 0.960 . S
H1496 C1480 0.931 . S
H1497 C1485 0.929 . S
H1498 C1486 0.960 . S
H1499 C1486 0.962 . S
H1500 C1486 0.960 . S
H1501 C1487 0.961 . S
H1502 C1487 0.961 . S
H1503 C1487 0.961 . S
H1504 C1488 0.931 . S
H1505 C1493 0.930 . S
H1506 C1494 0.956 . S
H1507 C1494 0.961 . S
H1508 C1494 0.961 . S
H1509 C1495 0.958 . S
H1510 C1495 0.961 . S
H1511 C1495 0.960 . S
C1512 C1513 1.391 . S
C1512 C1514 1.394 . S
C1512 H1528 0.931 . S
C1513 C1512 1.391 . S
C1513 C1517 1.376 . S
C1514 C1512 1.394 . S
C1514 C1515 1.369 . S
C1514 C1518 1.531 . S
C1515 C1514 1.369 . S
C1515 C1516 1.410 . S
C1515 C1523 1.503 . S
C1516 C1515 1.410 . S
C1516 C1517 1.392 . S
C1516 C1519 1.511 . S
C1517 C1513 1.376 . S
C1517 C1516 1.392 . S
C1517 H1529 0.929 . S
C1518 C1514 1.531 . S
C1518 H1530 0.960 . S
C1518 H1531 0.962 . S
C1518 H1532 0.960 . S
C1519 C1516 1.511 . S
C1519 H1533 0.961 . S
C1519 H1534 0.961 . S
C1519 H1535 0.961 . S
C1520 C1521 1.370 . S
C1520 C1522 1.363 . S
C1520 H1536 0.931 . S
C1521 C1520 1.370 . S
C1521 C1525 1.408 . S
C1522 C1520 1.363 . S
C1522 C1523 1.370 . S
C1522 C1526 1.524 . S
C1523 C1515 1.503 . S
C1523 C1522 1.370 . S
C1523 C1524 1.403 . S
C1524 C1523 1.403 . S
C1524 C1525 1.404 . S
C1524 C1527 1.539 . S
C1525 C1521 1.408 . S
C1525 C1524 1.404 . S
C1525 H1537 0.930 . S
C1526 C1522 1.524 . S
C1526 H1538 0.956 . S
C1526 H1539 0.961 . S
C1526 H1540 0.961 . S
C1527 C1524 1.539 . S
C1527 H1541 0.958 . S
C1527 H1542 0.961 . S
C1527 H1543 0.960 . S
H1528 C1512 0.931 . S
H1529 C1517 0.929 . S
H1530 C1518 0.960 . S
H1531 C1518 0.962 . S
H1532 C1518 0.960 . S
H1533 C1519 0.961 . S
H1534 C1519 0.961 . S
H1535 C1519 0.961 . S
H1536 C1520 0.931 . S
H1537 C1525 0.930 . S
H1538 C1526 0.956 . S
H1539 C1526 0.961 . S
H1540 C1526 0.961 . S
H1541 C1527 0.958 . S
H1542 C1527 0.961 . S
H1543 C1527 0.960 . S
C1544 C1545 1.391 . S
C1544 C1546 1.394 . S
C1544 H1560 0.931 . S
C1545 C1544 1.391 . S
C1545 C1549 1.376 1_455 S
C1546 C1544 1.394 . S
C1546 C1547 1.369 . S
C1546 C1550 1.531 . S
C1547 C1546 1.369 . S
C1547 C1548 1.410 1_455 S
C1547 C1555 1.503 . S
C1548 C1547 1.410 1_655 S
C1548 C1549 1.392 . S
C1548 C1551 1.511 . S
C1549 C1545 1.376 1_655 S
C1549 C1548 1.392 . S
C1549 H1561 0.929 . S
C1550 C1546 1.531 . S
C1550 H1562 0.960 . S
C1550 H1563 0.962 . S
C1550 H1564 0.960 . S
C1551 C1548 1.511 . S
C1551 H1565 0.961 . S
C1551 H1566 0.961 . S
C1551 H1567 0.961 . S
C1552 C1553 1.370 . S
C1552 C1554 1.363 . S
C1552 H1568 0.931 . S
C1553 C1552 1.370 . S
C1553 C1557 1.408 . S
C1554 C1552 1.363 . S
C1554 C1555 1.370 . S
C1554 C1558 1.524 . S
C1555 C1547 1.503 . S
C1555 C1554 1.370 . S
C1555 C1556 1.403 . S
C1556 C1555 1.403 . S
C1556 C1557 1.404 . S
C1556 C1559 1.539 . S
C1557 C1553 1.408 . S
C1557 C1556 1.404 . S
C1557 H1569 0.930 . S
C1558 C1554 1.524 . S
C1558 H1570 0.956 . S
C1558 H1571 0.961 1_455 S
C1558 H1572 0.961 . S
C1559 C1556 1.539 . S
C1559 H1573 0.958 . S
C1559 H1574 0.961 . S
C1559 H1575 0.960 . S
H1560 C1544 0.931 . S
H1561 C1549 0.929 . S
H1562 C1550 0.960 . S
H1563 C1550 0.962 . S
H1564 C1550 0.960 . S
H1565 C1551 0.961 . S
H1566 C1551 0.961 . S
H1567 C1551 0.961 . S
H1568 C1552 0.931 . S
H1569 C1557 0.930 . S
H1570 C1558 0.956 . S
H1571 C1558 0.961 1_655 S
H1572 C1558 0.961 . S
H1573 C1559 0.958 . S
H1574 C1559 0.961 . S
H1575 C1559 0.960 . S
C1576 C1577 1.391 . S
C1576 C1578 1.394 . S
C1576 H1592 0.931 . S
C1577 C1576 1.391 . S
C1577 C1581 1.376 . S
C1578 C1576 1.394 . S
C1578 C1579 1.369 . S
C1578 C1582 1.531 . S
C1579 C1578 1.369 . S
C1579 C1580 1.410 . S
C1579 C1587 1.503 . S
C1580 C1579 1.410 . S
C1580 C1581 1.392 . S
C1580 C1583 1.511 . S
C1581 C1577 1.376 . S
C1581 C1580 1.392 . S
C1581 H1593 0.929 . S
C1582 C1578 1.531 . S
C1582 H1594 0.960 . S
C1582 H1595 0.962 . S
C1582 H1596 0.960 . S
C1583 C1580 1.511 . S
C1583 H1597 0.961 . S
C1583 H1598 0.961 . S
C1583 H1599 0.961 . S
C1584 C1585 1.370 . S
C1584 C1586 1.363 . S
C1584 H1600 0.931 . S
C1585 C1584 1.370 . S
C1585 C1589 1.408 . S
C1586 C1584 1.363 . S
C1586 C1587 1.370 . S
C1586 C1590 1.524 . S
C1587 C1579 1.503 . S
C1587 C1586 1.370 . S
C1587 C1588 1.403 . S
C1588 C1587 1.403 . S
C1588 C1589 1.404 . S
C1588 C1591 1.539 . S
C1589 C1585 1.408 . S
C1589 C1588 1.404 . S
C1589 H1601 0.930 . S
C1590 C1586 1.524 . S
C1590 H1602 0.956 . S
C1590 H1603 0.961 . S
C1590 H1604 0.961 . S
C1591 C1588 1.539 . S
C1591 H1605 0.958 . S
C1591 H1606 0.961 . S
C1591 H1607 0.960 . S
H1592 C1576 0.931 . S
H1593 C1581 0.929 . S
H1594 C1582 0.960 . S
H1595 C1582 0.962 . S
H1596 C1582 0.960 . S
H1597 C1583 0.961 . S
H1598 C1583 0.961 . S
H1599 C1583 0.961 . S
H1600 C1584 0.931 . S
H1601 C1589 0.930 . S
H1602 C1590 0.956 . S
H1603 C1590 0.961 . S
H1604 C1590 0.961 . S
H1605 C1591 0.958 . S
H1606 C1591 0.961 . S
H1607 C1591 0.960 . S
C1608 C1609 1.391 . S
C1608 C1610 1.394 . S
C1608 H1624 0.931 . S
C1609 C1608 1.391 . S
C1609 C1613 1.376 . S
C1610 C1608 1.394 . S
C1610 C1611 1.369 . S
C1610 C1614 1.531 . S
C1611 C1610 1.369 . S
C1611 C1612 1.410 . S
C1611 C1619 1.503 . S
C1612 C1611 1.410 . S
C1612 C1613 1.392 . S
C1612 C1615 1.511 . S
C1613 C1609 1.376 . S
C1613 C1612 1.392 . S
C1613 H1625 0.929 . S
C1614 C1610 1.531 . S
C1614 H1626 0.960 . S
C1614 H1627 0.962 . S
C1614 H1628 0.960 . S
C1615 C1612 1.511 . S
C1615 H1629 0.961 . S
C1615 H1630 0.961 . S
C1615 H1631 0.961 . S
C1616 C1617 1.370 . S
C1616 C1618 1.363 . S
C1616 H1632 0.931 . S
C1617 C1616 1.370 . S
C1617 C1621 1.408 . S
C1618 C1616 1.363 . S
C1618 C1619 1.370 . S
C1618 C1622 1.524 . S
C1619 C1611 1.503 . S
C1619 C1618 1.370 . S
C1619 C1620 1.403 . S
C1620 C1619 1.403 . S
C1620 C1621 1.404 . S
C1620 C1623 1.539 . S
C1621 C1617 1.408 . S
C1621 C1620 1.404 . S
C1621 H1633 0.930 . S
C1622 C1618 1.524 . S
C1622 H1634 0.956 . S
C1622 H1635 0.961 . S
C1622 H1636 0.961 . S
C1623 C1620 1.539 . S
C1623 H1637 0.958 . S
C1623 H1638 0.961 . S
C1623 H1639 0.960 . S
H1624 C1608 0.931 . S
H1625 C1613 0.929 . S
H1626 C1614 0.960 . S
H1627 C1614 0.962 . S
H1628 C1614 0.960 . S
H1629 C1615 0.961 . S
H1630 C1615 0.961 . S
H1631 C1615 0.961 . S
H1632 C1616 0.931 . S
H1633 C1621 0.930 . S
H1634 C1622 0.956 . S
H1635 C1622 0.961 . S
H1636 C1622 0.961 . S
H1637 C1623 0.958 . S
H1638 C1623 0.961 . S
H1639 C1623 0.960 . S
C1640 C1641 1.391 . S
C1640 C1642 1.394 . S
C1640 H1656 0.931 . S
C1641 C1640 1.391 . S
C1641 C1645 1.376 . S
C1642 C1640 1.394 . S
C1642 C1643 1.369 . S
C1642 C1646 1.531 . S
C1643 C1642 1.369 . S
C1643 C1644 1.410 . S
C1643 C1651 1.503 . S
C1644 C1643 1.410 . S
C1644 C1645 1.392 . S
C1644 C1647 1.511 . S
C1645 C1641 1.376 . S
C1645 C1644 1.392 . S
C1645 H1657 0.929 . S
C1646 C1642 1.531 . S
C1646 H1658 0.960 . S
C1646 H1659 0.962 . S
C1646 H1660 0.960 . S
C1647 C1644 1.511 . S
C1647 H1661 0.961 . S
C1647 H1662 0.961 . S
C1647 H1663 0.961 . S
C1648 C1649 1.370 . S
C1648 C1650 1.363 . S
C1648 H1664 0.931 . S
C1649 C1648 1.370 . S
C1649 C1653 1.408 . S
C1650 C1648 1.363 . S
C1650 C1651 1.370 . S
C1650 C1654 1.524 . S
C1651 C1643 1.503 . S
C1651 C1650 1.370 . S
C1651 C1652 1.403 . S
C1652 C1651 1.403 . S
C1652 C1653 1.404 . S
C1652 C1655 1.539 . S
C1653 C1649 1.408 . S
C1653 C1652 1.404 . S
C1653 H1665 0.930 . S
C1654 C1650 1.524 . S
C1654 H1666 0.956 . S
C1654 H1667 0.961 . S
C1654 H1668 0.961 . S
C1655 C1652 1.539 . S
C1655 H1669 0.958 . S
C1655 H1670 0.961 . S
C1655 H1671 0.960 . S
H1656 C1640 0.931 . S
H1657 C1645 0.929 . S
H1658 C1646 0.960 . S
H1659 C1646 0.962 . S
H1660 C1646 0.960 . S
H1661 C1647 0.961 . S
H1662 C1647 0.961 . S
H1663 C1647 0.961 . S
H1664 C1648 0.931 . S
H1665 C1653 0.930 . S
H1666 C1654 0.956 . S
H1667 C1654 0.961 . S
H1668 C1654 0.961 . S
H1669 C1655 0.958 . S
H1670 C1655 0.961 . S
H1671 C1655 0.960 . S
C1672 C1673 1.391 . S
C1672 C1674 1.394 . S
C1672 H1688 0.931 . S
C1673 C1672 1.391 . S
C1673 C1677 1.376 1_565 S
C1674 C1672 1.394 . S
C1674 C1675 1.385 . S
C1674 C1678 1.531 . S
C1675 C1674 1.385 . S
C1675 C1676 1.394 1_565 S
C1675 C1683 1.501 1_565 S
C1676 C1675 1.394 1_545 S
C1676 C1677 1.392 . S
C1676 C1679 1.511 . S
C1677 C1673 1.376 1_545 S
C1677 C1676 1.392 . S
C1677 H1689 0.929 . S
C1678 C1674 1.531 . S
C1678 H1690 0.960 . S
C1678 H1691 0.962 . S
C1678 H1692 0.960 . S
C1679 C1676 1.511 . S
C1679 H1693 0.961 . S
C1679 H1694 0.961 . S
C1679 H1695 0.961 . S
C1680 C1681 1.370 . S
C1680 C1682 1.363 . S
C1680 H1696 0.931 . S
C1681 C1680 1.370 . S
C1681 C1685 1.408 1_545 S
C1682 C1680 1.363 . S
C1682 C1683 1.370 . S
C1682 C1686 1.524 . S
C1683 C1675 1.501 1_545 S
C1683 C1682 1.370 . S
C1683 C1684 1.403 1_545 S
C1684 C1683 1.403 1_565 S
C1684 C1685 1.404 . S
C1684 C1687 1.539 . S
C1685 C1681 1.408 1_565 S
C1685 C1684 1.404 . S
C1685 H1697 0.930 1_655 S
C1686 C1682 1.524 . S
C1686 H1698 0.956 . S
C1686 H1699 0.961 . S
C1686 H1700 0.961 . S
C1687 C1684 1.539 . S
C1687 H1701 0.958 . S
C1687 H1702 0.961 1_655 S
C1687 H1703 0.960 . S
H1688 C1672 0.931 . S
H1689 C1677 0.929 . S
H1690 C1678 0.960 . S
H1691 C1678 0.962 . S
H1692 C1678 0.960 . S
H1693 C1679 0.961 . S
H1694 C1679 0.961 . S
H1695 C1679 0.961 . S
H1696 C1680 0.931 . S
H1697 C1685 0.930 1_455 S
H1698 C1686 0.956 . S
H1699 C1686 0.961 . S
H1700 C1686 0.961 . S
H1701 C1687 0.958 . S
H1702 C1687 0.961 1_455 S
H1703 C1687 0.960 . S
C1704 C1705 1.391 . S
C1704 C1706 1.394 . S
C1704 H1720 0.931 . S
C1705 C1704 1.391 . S
C1705 C1709 1.376 . S
C1706 C1704 1.394 . S
C1706 C1707 1.369 . S
C1706 C1710 1.531 . S
C1707 C1706 1.369 . S
C1707 C1708 1.410 . S
C1707 C1715 1.503 . S
C1708 C1707 1.410 . S
C1708 C1709 1.392 . S
C1708 C1711 1.511 . S
C1709 C1705 1.376 . S
C1709 C1708 1.392 . S
C1709 H1721 0.929 . S
C1710 C1706 1.531 . S
C1710 H1722 0.960 . S
C1710 H1723 0.962 . S
C1710 H1724 0.960 . S
C1711 C1708 1.511 . S
C1711 H1725 0.961 . S
C1711 H1726 0.961 . S
C1711 H1727 0.961 . S
C1712 C1713 1.370 . S
C1712 C1714 1.363 . S
C1712 H1728 0.931 . S
C1713 C1712 1.370 . S
C1713 C1717 1.408 . S
C1714 C1712 1.363 . S
C1714 C1715 1.370 . S
C1714 C1718 1.524 . S
C1715 C1707 1.503 . S
C1715 C1714 1.370 . S
C1715 C1716 1.403 . S
C1716 C1715 1.403 . S
C1716 C1717 1.404 . S
C1716 C1719 1.539 . S
C1717 C1713 1.408 . S
C1717 C1716 1.404 . S
C1717 H1729 0.930 . S
C1718 C1714 1.524 . S
C1718 H1730 0.956 . S
C1718 H1731 0.961 . S
C1718 H1732 0.961 . S
C1719 C1716 1.539 . S
C1719 H1733 0.958 . S
C1719 H1734 0.961 . S
C1719 H1735 0.960 . S
H1720 C1704 0.931 . S
H1721 C1709 0.929 . S
H1722 C1710 0.960 . S
H1723 C1710 0.962 . S
H1724 C1710 0.960 . S
H1725 C1711 0.961 . S
H1726 C1711 0.961 . S
H1727 C1711 0.961 . S
H1728 C1712 0.931 . S
H1729 C1717 0.930 . S
H1730 C1718 0.956 . S
H1731 C1718 0.961 . S
H1732 C1718 0.961 . S
H1733 C1719 0.958 . S
H1734 C1719 0.961 . S
H1735 C1719 0.960 . S
C1736 C1737 1.391 . S
C1736 C1738 1.394 . S
C1736 H1752 0.932 1_545 S
C1737 C1736 1.391 . S
C1737 C1741 1.376 . S
C1738 C1736 1.394 . S
C1738 C1739 1.369 . S
C1738 C1742 1.531 1_545 S
C1739 C1738 1.369 . S
C1739 C1740 1.410 . S
C1739 C1747 1.503 . S
C1740 C1739 1.410 . S
C1740 C1741 1.392 . S
C1740 C1743 1.511 . S
C1741 C1737 1.376 . S
C1741 C1740 1.392 . S
C1741 H1753 0.929 . S
C1742 C1738 1.531 1_565 S
C1742 H1754 0.960 1_565 S
C1742 H1755 0.962 . S
C1742 H1756 0.960 . S
C1743 C1740 1.511 . S
C1743 H1757 0.961 . S
C1743 H1758 0.961 . S
C1743 H1759 0.961 . S
C1744 C1745 1.370 1_565 S
C1744 C1746 1.363 . S
C1744 H1760 0.931 . S
C1745 C1744 1.370 1_545 S
C1745 C1749 1.408 . S
C1746 C1744 1.363 . S
C1746 C1747 1.370 1_565 S
C1746 C1750 1.524 . S
C1747 C1739 1.503 . S
C1747 C1746 1.370 1_545 S
C1747 C1748 1.403 . S
C1748 C1747 1.403 . S
C1748 C1749 1.404 . S
C1748 C1751 1.539 . S
C1749 C1745 1.408 . S
C1749 C1748 1.404 . S
C1749 H1761 0.930 . S
C1750 C1746 1.524 . S
C1750 H1762 0.956 . S
C1750 H1763 0.961 . S
C1750 H1764 0.961 . S
C1751 C1748 1.539 . S
C1751 H1765 0.958 . S
C1751 H1766 0.961 . S
C1751 H1767 0.960 . S
H1752 C1736 0.932 1_565 S
H1753 C1741 0.929 . S
H1754 C1742 0.960 1_545 S
H1755 C1742 0.962 . S
H1756 C1742 0.960 . S
H1757 C1743 0.961 . S
H1758 C1743 0.961 . S
H1759 C1743 0.961 . S
H1760 C1744 0.931 . S
H1761 C1749 0.930 . S
H1762 C1750 0.956 . S
H1763 C1750 0.961 . S
H1764 C1750 0.961 . S
H1765 C1751 0.958 . S
H1766 C1751 0.961 . S
H1767 C1751 0.960 . S
C1768 C1769 1.391 . S
C1768 C1770 1.394 . S
C1768 H1784 0.931 . S
C1769 C1768 1.391 . S
C1769 C1773 1.376 . S
C1770 C1768 1.394 . S
C1770 C1771 1.369 . S
C1770 C1774 1.531 . S
C1771 C1770 1.369 . S
C1771 C1772 1.410 . S
C1771 C1779 1.503 . S
C1772 C1771 1.410 . S
C1772 C1773 1.392 . S
C1772 C1775 1.511 . S
C1773 C1769 1.376 . S
C1773 C1772 1.392 . S
C1773 H1785 0.929 . S
C1774 C1770 1.531 . S
C1774 H1786 0.960 . S
C1774 H1787 0.962 . S
C1774 H1788 0.960 . S
C1775 C1772 1.511 . S
C1775 H1789 0.961 . S
C1775 H1790 0.961 . S
C1775 H1791 0.961 . S
C1776 C1777 1.370 . S
C1776 C1778 1.363 . S
C1776 H1792 0.931 . S
C1777 C1776 1.370 . S
C1777 C1781 1.408 . S
C1778 C1776 1.363 . S
C1778 C1779 1.370 . S
C1778 C1782 1.524 . S
C1779 C1771 1.503 . S
C1779 C1778 1.370 . S
C1779 C1780 1.403 . S
C1780 C1779 1.403 . S
C1780 C1781 1.404 . S
C1780 C1783 1.539 . S
C1781 C1777 1.408 . S
C1781 C1780 1.404 . S
C1781 H1793 0.930 . S
C1782 C1778 1.524 . S
C1782 H1794 0.956 . S
C1782 H1795 0.961 . S
C1782 H1796 0.961 . S
C1783 C1780 1.539 . S
C1783 H1797 0.958 . S
C1783 H1798 0.961 . S
C1783 H1799 0.960 . S
H1784 C1768 0.931 . S
H1785 C1773 0.929 . S
H1786 C1774 0.960 . S
H1787 C1774 0.962 . S
H1788 C1774 0.960 . S
H1789 C1775 0.961 . S
H1790 C1775 0.961 . S
H1791 C1775 0.961 . S
H1792 C1776 0.931 . S
H1793 C1781 0.930 . S
H1794 C1782 0.956 . S
H1795 C1782 0.961 . S
H1796 C1782 0.961 . S
H1797 C1783 0.958 . S
H1798 C1783 0.961 . S
H1799 C1783 0.960 . S
C1800 C1801 1.391 . S
C1800 C1802 1.394 1_545 S
C1800 H1816 0.932 . S
C1801 C1800 1.391 . S
C1801 C1805 1.376 . S
C1802 C1800 1.394 1_565 S
C1802 C1803 1.369 . S
C1802 C1806 1.531 . S
C1803 C1802 1.369 . S
C1803 C1804 1.410 1_565 S
C1803 C1811 1.503 . S
C1804 C1803 1.410 1_545 S
C1804 C1805 1.392 . S
C1804 C1807 1.512 . S
C1805 C1801 1.376 . S
C1805 C1804 1.392 . S
C1805 H1817 0.929 . S
C1806 C1802 1.531 . S
C1806 H1818 0.960 . S
C1806 H1819 0.962 1_565 S
C1806 H1820 0.960 . S
C1807 C1804 1.512 . S
C1807 H1821 0.983 . S
C1807 H1822 0.976 . S
C1807 H1823 0.925 1_545 S
C1808 C1809 1.370 1_545 S
C1808 C1810 1.363 . S
C1808 H1824 0.931 . S
C1809 C1808 1.370 1_565 S
C1809 C1813 1.408 . S
C1810 C1808 1.363 . S
C1810 C1811 1.370 1_545 S
C1810 C1814 1.524 . S
C1811 C1803 1.503 . S
C1811 C1810 1.370 1_565 S
C1811 C1812 1.403 . S
C1812 C1811 1.403 . S
C1812 C1813 1.404 . S
C1812 C1815 1.539 . S
C1813 C1809 1.408 . S
C1813 C1812 1.404 . S
C1813 H1825 0.930 . S
C1814 C1810 1.524 . S
C1814 H1826 0.956 . S
C1814 H1827 0.961 . S
C1814 H1828 0.961 . S
C1815 C1812 1.539 . S
C1815 H1829 0.958 . S
C1815 H1830 0.961 . S
C1815 H1831 0.960 . S
H1816 C1800 0.932 . S
H1817 C1805 0.929 . S
H1818 C1806 0.960 . S
H1819 C1806 0.962 1_545 S
H1820 C1806 0.960 . S
H1821 C1807 0.983 . S
H1822 C1807 0.976 . S
H1823 C1807 0.925 1_565 S
H1824 C1808 0.931 . S
H1825 C1813 0.930 . S
H1826 C1814 0.956 . S
H1827 C1814 0.961 . S
H1828 C1814 0.961 . S
H1829 C1815 0.958 . S
H1830 C1815 0.961 . S
H1831 C1815 0.960 . S
C1832 C1833 1.391 . S
C1832 C1834 1.394 . S
C1832 H1848 0.931 . S
C1833 C1832 1.391 . S
C1833 C1837 1.376 . S
C1834 C1832 1.394 . S
C1834 C1835 1.369 . S
C1834 C1838 1.531 . S
C1835 C1834 1.369 . S
C1835 C1836 1.410 . S
C1835 C1843 1.503 . S
C1836 C1835 1.410 . S
C1836 C1837 1.392 . S
C1836 C1839 1.511 . S
C1837 C1833 1.376 . S
C1837 C1836 1.392 . S
C1837 H1849 0.929 . S
C1838 C1834 1.531 . S
C1838 H1850 0.960 . S
C1838 H1851 0.962 . S
C1838 H1852 0.960 . S
C1839 C1836 1.511 . S
C1839 H1853 0.961 . S
C1839 H1854 0.961 . S
C1839 H1855 0.961 . S
C1840 C1841 1.370 . S
C1840 C1842 1.363 . S
C1840 H1856 0.931 . S
C1841 C1840 1.370 . S
C1841 C1845 1.408 . S
C1842 C1840 1.363 . S
C1842 C1843 1.370 . S
C1842 C1846 1.524 . S
C1843 C1835 1.503 . S
C1843 C1842 1.370 . S
C1843 C1844 1.403 . S
C1844 C1843 1.403 . S
C1844 C1845 1.404 . S
C1844 C1847 1.539 . S
C1845 C1841 1.408 . S
C1845 C1844 1.404 . S
C1845 H1857 0.930 . S
C1846 C1842 1.524 . S
C1846 H1858 0.956 . S
C1846 H1859 0.961 . S
C1846 H1860 0.961 . S
C1847 C1844 1.539 . S
C1847 H1861 0.958 . S
C1847 H1862 0.961 . S
C1847 H1863 0.960 . S
H1848 C1832 0.931 . S
H1849 C1837 0.929 . S
H1850 C1838 0.960 . S
H1851 C1838 0.962 . S
H1852 C1838 0.960 . S
H1853 C1839 0.961 . S
H1854 C1839 0.961 . S
H1855 C1839 0.961 . S
H1856 C1840 0.931 . S
H1857 C1845 0.930 . S
H1858 C1846 0.956 . S
H1859 C1846 0.961 . S
H1860 C1846 0.961 . S
H1861 C1847 0.958 . S
H1862 C1847 0.961 . S
H1863 C1847 0.960 . S
C1864 C1865 1.360 1_565 S
C1864 C1866 1.394 . S
C1864 H1880 0.931 . S
C1865 C1864 1.360 1_545 S
C1865 C1869 1.411 . S
C1866 C1864 1.394 . S
C1866 C1867 1.369 1_565 S
C1866 C1870 1.531 . S
C1867 C1866 1.369 1_545 S
C1867 C1868 1.410 . S
C1867 C1875 1.503 . S
C1868 C1867 1.410 . S
C1868 C1869 1.392 . S
C1868 C1871 1.511 . S
C1869 C1865 1.411 . S
C1869 C1868 1.392 . S
C1869 H1881 0.929 . S
C1870 C1866 1.531 . S
C1870 H1882 0.960 . S
C1870 H1883 0.962 . S
C1870 H1884 0.960 . S
C1871 C1868 1.511 . S
C1871 H1885 0.961 . S
C1871 H1886 0.961 . S
C1871 H1887 0.961 . S
C1872 C1873 1.370 . S
C1872 C1874 1.363 . S
C1872 H1888 0.931 . S
C1873 C1872 1.370 . S
C1873 C1877 1.408 . S
C1874 C1872 1.363 . S
C1874 C1875 1.370 . S
C1874 C1878 1.516 1_545 S
C1875 C1867 1.503 . S
C1875 C1874 1.370 . S
C1875 C1876 1.403 . S
C1876 C1875 1.403 . S
C1876 C1877 1.404 . S
C1876 C1879 1.539 . S
C1877 C1873 1.408 . S
C1877 C1876 1.404 . S
C1877 H1889 0.930 . S
C1878 C1874 1.516 1_565 S
C1878 H1890 0.993 . S
C1878 H1891 0.933 1_565 S
C1878 H1892 0.961 . S
C1879 C1876 1.539 . S
C1879 H1893 0.958 . S
C1879 H1894 0.961 . S
C1879 H1895 0.960 . S
H1880 C1864 0.931 . S
H1881 C1869 0.929 . S
H1882 C1870 0.960 . S
H1883 C1870 0.962 . S
H1884 C1870 0.960 . S
H1885 C1871 0.961 . S
H1886 C1871 0.961 . S
H1887 C1871 0.961 . S
H1888 C1872 0.931 . S
H1889 C1877 0.930 . S
H1890 C1878 0.993 . S
H1891 C1878 0.933 1_545 S
H1892 C1878 0.961 . S
H1893 C1879 0.958 . S
H1894 C1879 0.961 . S
H1895 C1879 0.960 . S
C1896 C1897 1.391 . S
C1896 C1898 1.394 . S
C1896 H1912 0.931 . S
C1897 C1896 1.391 . S
C1897 C1901 1.376 . S
C1898 C1896 1.394 . S
C1898 C1899 1.369 . S
C1898 C1902 1.531 . S
C1899 C1898 1.369 . S
C1899 C1900 1.410 . S
C1899 C1907 1.503 . S
C1900 C1899 1.410 . S
C1900 C1901 1.392 . S
C1900 C1903 1.511 . S
C1901 C1897 1.376 . S
C1901 C1900 1.392 . S
C1901 H1913 0.929 . S
C1902 C1898 1.531 . S
C1902 H1914 0.960 . S
C1902 H1915 0.962 . S
C1902 H1916 0.960 . S
C1903 C1900 1.511 . S
C1903 H1917 0.961 . S
C1903 H1918 0.961 . S
C1903 H1919 0.961 . S
C1904 C1905 1.370 . S
C1904 C1906 1.363 . S
C1904 H1920 0.931 . S
C1905 C1904 1.370 . S
C1905 C1909 1.408 . S
C1906 C1904 1.363 . S
C1906 C1907 1.370 . S
C1906 C1910 1.524 . S
C1907 C1899 1.503 . S
C1907 C1906 1.370 . S
C1907 C1908 1.403 . S
C1908 C1907 1.403 . S
C1908 C1909 1.404 . S
C1908 C1911 1.539 . S
C1909 C1905 1.408 . S
C1909 C1908 1.404 . S
C1909 H1921 0.930 . S
C1910 C1906 1.524 . S
C1910 H1922 0.956 . S
C1910 H1923 0.961 . S
C1910 H1924 0.961 . S
C1911 C1908 1.539 . S
C1911 H1925 0.958 . S
C1911 H1926 0.961 . S
C1911 H1927 0.960 . S
H1912 C1896 0.931 . S
H1913 C1901 0.929 . S
H1914 C1902 0.960 . S
H1915 C1902 0.962 . S
H1916 C1902 0.960 . S
H1917 C1903 0.961 . S
H1918 C1903 0.961 . S
H1919 C1903 0.961 . S
H1920 C1904 0.931 . S
H1921 C1909 0.930 . S
H1922 C1910 0.956 . S
H1923 C1910 0.961 . S
H1924 C1910 0.961 . S
H1925 C1911 0.958 . S
H1926 C1911 0.961 . S
H1927 C1911 0.960 . S
C1928 C1929 1.391 . S
C1928 C1930 1.394 . S
C1928 H1944 0.931 . S
C1929 C1928 1.391 . S
C1929 C1933 1.376 1_554 S
C1930 C1928 1.394 . S
C1930 C1931 1.369 . S
C1930 C1934 1.531 . S
C1931 C1930 1.369 . S
C1931 C1932 1.410 1_554 S
C1931 C1939 1.503 . S
C1932 C1931 1.410 1_556 S
C1932 C1933 1.392 . S
C1932 C1935 1.511 . S
C1933 C1929 1.376 1_556 S
C1933 C1932 1.392 . S
C1933 H1945 0.929 . S
C1934 C1930 1.531 . S
C1934 H1946 0.960 . S
C1934 H1947 0.962 . S
C1934 H1948 0.960 . S
C1935 C1932 1.511 . S
C1935 H1949 0.961 . S
C1935 H1950 0.961 . S
C1935 H1951 0.961 . S
C1936 C1937 1.370 . S
C1936 C1938 1.363 . S
C1936 H1952 0.931 . S
C1937 C1936 1.370 . S
C1937 C1941 1.408 . S
C1938 C1936 1.363 . S
C1938 C1939 1.370 . S
C1938 C1942 1.524 1_554 S
C1939 C1931 1.503 . S
C1939 C1938 1.370 . S
C1939 C1940 1.403 . S
C1940 C1939 1.403 . S
C1940 C1941 1.404 . S
C1940 C1943 1.539 . S
C1941 C1937 1.408 . S
C1941 C1940 1.404 . S
C1941 H1953 0.930 . S
C1942 C1938 1.524 1_556 S
C1942 H1954 0.956 1_556 S
C1942 H1955 0.961 . S
C1942 H1956 0.961 . S
C1943 C1940 1.539 . S
C1943 H1957 0.958 . S
C1943 H1958 0.961 . S
C1943 H1959 0.960 . S
H1944 C1928 0.931 . S
H1945 C1933 0.929 . S
H1946 C1934 0.960 . S
H1947 C1934 0.962 . S
H1948 C1934 0.960 . S
H1949 C1935 0.961 . S
H1950 C1935 0.961 . S
H1951 C1935 0.961 . S
H1952 C1936 0.931 . S
H1953 C1941 0.930 . S
H1954 C1942 0.956 1_554 S
H1955 C1942 0.961 . S
H1956 C1942 0.961 . S
H1957 C1943 0.958 . S
H1958 C1943 0.961 . S
H1959 C1943 0.960 . S
C1960 C1961 1.391 . S
C1960 C1962 1.394 . S
C1960 H1976 0.931 . S
C1961 C1960 1.391 . S
C1961 C1965 1.376 1_554 S
C1962 C1960 1.394 . S
C1962 C1963 1.369 . S
C1962 C1966 1.531 . S
C1963 C1962 1.369 . S
C1963 C1964 1.410 1_554 S
C1963 C1971 1.503 . S
C1964 C1963 1.410 1_556 S
C1964 C1965 1.392 . S
C1964 C1967 1.511 . S
C1965 C1961 1.376 1_556 S
C1965 C1964 1.392 . S
C1965 H1977 0.929 . S
C1966 C1962 1.531 . S
C1966 H1978 0.960 . S
C1966 H1979 0.962 . S
C1966 H1980 0.960 . S
C1967 C1964 1.511 . S
C1967 H1981 0.961 . S
C1967 H1982 0.961 . S
C1967 H1983 0.961 . S
C1968 C1969 1.354 1_556 S
C1968 C1970 1.363 . S
C1968 H1984 0.931 . S
C1969 C1968 1.354 1_554 S
C1969 C1973 1.432 . S
C1970 C1968 1.363 . S
C1970 C1971 1.370 1_556 S
C1970 C1974 1.524 . S
C1971 C1963 1.503 . S
C1971 C1970 1.370 1_554 S
C1971 C1972 1.403 . S
C1972 C1971 1.403 . S
C1972 C1973 1.404 . S
C1972 C1975 1.539 . S
C1973 C1969 1.432 . S
C1973 C1972 1.404 . S
C1973 H1985 0.930 . S
C1974 C1970 1.524 . S
C1974 H1986 0.956 . S
C1974 H1987 0.961 . S
C1974 H1988 0.961 . S
C1975 C1972 1.539 . S
C1975 H1989 0.958 . S
C1975 H1990 0.961 . S
C1975 H1991 0.960 . S
H1976 C1960 0.931 . S
H1977 C1965 0.929 . S
H1978 C1966 0.960 . S
H1979 C1966 0.962 . S
H1980 C1966 0.960 . S
H1981 C1967 0.961 . S
H1982 C1967 0.961 . S
H1983 C1967 0.961 . S
H1984 C1968 0.931 . S
H1985 C1973 0.930 . S
H1986 C1974 0.956 . S
H1987 C1974 0.961 . S
H1988 C1974 0.961 . S
H1989 C1975 0.958 . S
H1990 C1975 0.961 . S
H1991 C1975 0.960 . S
C1992 C1993 1.391 . S
C1992 C1994 1.394 . S
C1992 H2008 0.931 . S
C1993 C1992 1.391 . S
C1993 C1997 1.376 . S
C1994 C1992 1.394 . S
C1994 C1995 1.369 . S
C1994 C1998 1.531 . S
C1995 C1994 1.369 . S
C1995 C1996 1.410 . S
C1995 C2003 1.503 . S
C1996 C1995 1.410 . S
C1996 C1997 1.392 . S
C1996 C1999 1.511 . S
C1997 C1993 1.376 . S
C1997 C1996 1.392 . S
C1997 H2009 0.929 . S
C1998 C1994 1.531 . S
C1998 H2010 0.960 . S
C1998 H2011 0.962 . S
C1998 H2012 0.960 . S
C1999 C1996 1.511 . S
C1999 H2013 0.961 . S
C1999 H2014 0.961 . S
C1999 H2015 0.961 . S
C2000 C2001 1.370 . S
C2000 C2002 1.363 . S
C2000 H2016 0.931 . S
C2001 C2000 1.370 . S
C2001 C2005 1.408 . S
C2002 C2000 1.363 . S
C2002 C2003 1.370 . S
C2002 C2006 1.524 . S
C2003 C1995 1.503 . S
C2003 C2002 1.370 . S
C2003 C2004 1.403 . S
C2004 C2003 1.403 . S
C2004 C2005 1.404 . S
C2004 C2007 1.539 . S
C2005 C2001 1.408 . S
C2005 C2004 1.404 . S
C2005 H2017 0.930 . S
C2006 C2002 1.524 . S
C2006 H2018 0.956 . S
C2006 H2019 0.961 . S
C2006 H2020 0.961 . S
C2007 C2004 1.539 . S
C2007 H2021 0.958 . S
C2007 H2022 0.961 . S
C2007 H2023 0.960 . S
H2008 C1992 0.931 . S
H2009 C1997 0.929 . S
H2010 C1998 0.960 . S
H2011 C1998 0.962 . S
H2012 C1998 0.960 . S
H2013 C1999 0.961 . S
H2014 C1999 0.961 . S
H2015 C1999 0.961 . S
H2016 C2000 0.931 . S
H2017 C2005 0.930 . S
H2018 C2006 0.956 . S
H2019 C2006 0.961 . S
H2020 C2006 0.961 . S
H2021 C2007 0.958 . S
H2022 C2007 0.961 . S
H2023 C2007 0.960 . S
C2024 C2025 1.391 . S
C2024 C2026 1.394 . S
C2024 H2040 0.931 . S
C2025 C2024 1.391 . S
C2025 C2029 1.376 . S
C2026 C2024 1.394 . S
C2026 C2027 1.369 . S
C2026 C2030 1.531 . S
C2027 C2026 1.369 . S
C2027 C2028 1.410 . S
C2027 C2035 1.503 . S
C2028 C2027 1.410 . S
C2028 C2029 1.392 . S
C2028 C2031 1.511 . S
C2029 C2025 1.376 . S
C2029 C2028 1.392 . S
C2029 H2041 0.929 . S
C2030 C2026 1.531 . S
C2030 H2042 0.960 . S
C2030 H2043 0.962 . S
C2030 H2044 0.960 . S
C2031 C2028 1.511 . S
C2031 H2045 0.961 . S
C2031 H2046 0.961 . S
C2031 H2047 0.961 . S
C2032 C2033 1.370 . S
C2032 C2034 1.363 . S
C2032 H2048 0.931 . S
C2033 C2032 1.370 . S
C2033 C2037 1.408 . S
C2034 C2032 1.363 . S
C2034 C2035 1.370 . S
C2034 C2038 1.524 . S
C2035 C2027 1.503 . S
C2035 C2034 1.370 . S
C2035 C2036 1.403 . S
C2036 C2035 1.403 . S
C2036 C2037 1.404 . S
C2036 C2039 1.539 . S
C2037 C2033 1.408 . S
C2037 C2036 1.404 . S
C2037 H2049 0.930 . S
C2038 C2034 1.524 . S
C2038 H2050 0.956 . S
C2038 H2051 0.961 . S
C2038 H2052 0.961 . S
C2039 C2036 1.539 . S
C2039 H2053 0.958 . S
C2039 H2054 0.961 . S
C2039 H2055 0.960 . S
H2040 C2024 0.931 . S
H2041 C2029 0.929 . S
H2042 C2030 0.960 . S
H2043 C2030 0.962 . S
H2044 C2030 0.960 . S
H2045 C2031 0.961 . S
H2046 C2031 0.961 . S
H2047 C2031 0.961 . S
H2048 C2032 0.931 . S
H2049 C2037 0.930 . S
H2050 C2038 0.956 . S
H2051 C2038 0.961 . S
H2052 C2038 0.961 . S
H2053 C2039 0.958 . S
H2054 C2039 0.961 . S
H2055 C2039 0.960 . S
C2056 C2057 1.391 . S
C2056 C2058 1.394 . S
C2056 H2072 0.931 . S
C2057 C2056 1.391 . S
C2057 C2061 1.376 . S
C2058 C2056 1.394 . S
C2058 C2059 1.369 . S
C2058 C2062 1.531 . S
C2059 C2058 1.369 . S
C2059 C2060 1.410 . S
C2059 C2067 1.503 . S
C2060 C2059 1.410 . S
C2060 C2061 1.392 . S
C2060 C2063 1.511 . S
C2061 C2057 1.376 . S
C2061 C2060 1.392 . S
C2061 H2073 0.929 . S
C2062 C2058 1.531 . S
C2062 H2074 0.960 . S
C2062 H2075 0.962 . S
C2062 H2076 0.960 . S
C2063 C2060 1.511 . S
C2063 H2077 0.961 . S
C2063 H2078 0.961 . S
C2063 H2079 0.961 . S
C2064 C2065 1.370 . S
C2064 C2066 1.363 . S
C2064 H2080 0.931 . S
C2065 C2064 1.370 . S
C2065 C2069 1.408 . S
C2066 C2064 1.363 . S
C2066 C2067 1.370 . S
C2066 C2070 1.524 . S
C2067 C2059 1.503 . S
C2067 C2066 1.370 . S
C2067 C2068 1.403 . S
C2068 C2067 1.403 . S
C2068 C2069 1.404 . S
C2068 C2071 1.539 . S
C2069 C2065 1.408 . S
C2069 C2068 1.404 . S
C2069 H2081 0.930 . S
C2070 C2066 1.524 . S
C2070 H2082 0.956 . S
C2070 H2083 0.961 . S
C2070 H2084 0.961 . S
C2071 C2068 1.539 . S
C2071 H2085 0.958 . S
C2071 H2086 0.961 . S
C2071 H2087 0.960 . S
H2072 C2056 0.931 . S
H2073 C2061 0.929 . S
H2074 C2062 0.960 . S
H2075 C2062 0.962 . S
H2076 C2062 0.960 . S
H2077 C2063 0.961 . S
H2078 C2063 0.961 . S
H2079 C2063 0.961 . S
H2080 C2064 0.931 . S
H2081 C2069 0.930 . S
H2082 C2070 0.956 . S
H2083 C2070 0.961 . S
H2084 C2070 0.961 . S
H2085 C2071 0.958 . S
H2086 C2071 0.961 . S
H2087 C2071 0.960 . S
C2088 C2089 1.391 . S
C2088 C2090 1.394 . S
C2088 H2104 0.931 . S
C2089 C2088 1.391 . S
C2089 C2093 1.376 . S
C2090 C2088 1.394 . S
C2090 C2091 1.369 . S
C2090 C2094 1.531 . S
C2091 C2090 1.369 . S
C2091 C2092 1.410 . S
C2091 C2099 1.503 . S
C2092 C2091 1.410 . S
C2092 C2093 1.392 . S
C2092 C2095 1.511 . S
C2093 C2089 1.376 . S
C2093 C2092 1.392 . S
C2093 H2105 0.929 . S
C2094 C2090 1.531 . S
C2094 H2106 0.960 . S
C2094 H2107 0.962 . S
C2094 H2108 0.960 . S
C2095 C2092 1.511 . S
C2095 H2109 0.961 . S
C2095 H2110 0.961 . S
C2095 H2111 0.961 . S
C2096 C2097 1.370 . S
C2096 C2098 1.363 . S
C2096 H2112 0.931 . S
C2097 C2096 1.370 . S
C2097 C2101 1.408 . S
C2098 C2096 1.363 . S
C2098 C2099 1.370 . S
C2098 C2102 1.524 . S
C2099 C2091 1.503 . S
C2099 C2098 1.370 . S
C2099 C2100 1.403 . S
C2100 C2099 1.403 . S
C2100 C2101 1.404 . S
C2100 C2103 1.539 . S
C2101 C2097 1.408 . S
C2101 C2100 1.404 . S
C2101 H2113 0.930 . S
C2102 C2098 1.524 . S
C2102 H2114 0.956 . S
C2102 H2115 0.961 . S
C2102 H2116 0.961 . S
C2103 C2100 1.539 . S
C2103 H2117 0.958 . S
C2103 H2118 0.961 . S
C2103 H2119 0.960 . S
H2104 C2088 0.931 . S
H2105 C2093 0.929 . S
H2106 C2094 0.960 . S
H2107 C2094 0.962 . S
H2108 C2094 0.960 . S
H2109 C2095 0.961 . S
H2110 C2095 0.961 . S
H2111 C2095 0.961 . S
H2112 C2096 0.931 . S
H2113 C2101 0.930 . S
H2114 C2102 0.956 . S
H2115 C2102 0.961 . S
H2116 C2102 0.961 . S
H2117 C2103 0.958 . S
H2118 C2103 0.961 . S
H2119 C2103 0.960 . S
C2120 C2121 1.391 . S
C2120 C2122 1.394 . S
C2120 H2136 0.931 . S
C2121 C2120 1.391 . S
C2121 C2125 1.376 . S
C2122 C2120 1.394 . S
C2122 C2123 1.369 . S
C2122 C2126 1.531 . S
C2123 C2122 1.369 . S
C2123 C2124 1.410 . S
C2123 C2131 1.503 . S
C2124 C2123 1.410 . S
C2124 C2125 1.392 . S
C2124 C2127 1.511 . S
C2125 C2121 1.376 . S
C2125 C2124 1.392 . S
C2125 H2137 0.929 . S
C2126 C2122 1.531 . S
C2126 H2138 0.960 . S
C2126 H2139 0.962 . S
C2126 H2140 0.960 . S
C2127 C2124 1.511 . S
C2127 H2141 0.961 . S
C2127 H2142 0.961 . S
C2127 H2143 0.961 . S
C2128 C2129 1.370 . S
C2128 C2130 1.363 . S
C2128 H2144 0.931 . S
C2129 C2128 1.370 . S
C2129 C2133 1.408 . S
C2130 C2128 1.363 . S
C2130 C2131 1.370 . S
C2130 C2134 1.524 . S
C2131 C2123 1.503 . S
C2131 C2130 1.370 . S
C2131 C2132 1.403 . S
C2132 C2131 1.403 . S
C2132 C2133 1.404 . S
C2132 C2135 1.539 . S
C2133 C2129 1.408 . S
C2133 C2132 1.404 . S
C2133 H2145 0.930 . S
C2134 C2130 1.524 . S
C2134 H2146 0.956 . S
C2134 H2147 0.961 . S
C2134 H2148 0.961 . S
C2135 C2132 1.539 . S
C2135 H2149 0.958 . S
C2135 H2150 0.961 . S
C2135 H2151 0.960 . S
H2136 C2120 0.931 . S
H2137 C2125 0.929 . S
H2138 C2126 0.960 . S
H2139 C2126 0.962 . S
H2140 C2126 0.960 . S
H2141 C2127 0.961 . S
H2142 C2127 0.961 . S
H2143 C2127 0.961 . S
H2144 C2128 0.931 . S
H2145 C2133 0.930 . S
H2146 C2134 0.956 . S
H2147 C2134 0.961 . S
H2148 C2134 0.961 . S
H2149 C2135 0.958 . S
H2150 C2135 0.961 . S
H2151 C2135 0.960 . S
C2152 C2153 1.391 . S
C2152 C2154 1.394 . S
C2152 H2168 0.931 . S
C2153 C2152 1.391 . S
C2153 C2157 1.376 . S
C2154 C2152 1.394 . S
C2154 C2155 1.369 . S
C2154 C2158 1.531 . S
C2155 C2154 1.369 . S
C2155 C2156 1.410 . S
C2155 C2163 1.503 . S
C2156 C2155 1.410 . S
C2156 C2157 1.392 . S
C2156 C2159 1.511 . S
C2157 C2153 1.376 . S
C2157 C2156 1.392 . S
C2157 H2169 0.929 . S
C2158 C2154 1.531 . S
C2158 H2170 0.960 . S
C2158 H2171 0.962 . S
C2158 H2172 0.960 . S
C2159 C2156 1.511 . S
C2159 H2173 0.961 . S
C2159 H2174 0.961 . S
C2159 H2175 0.961 . S
C2160 C2161 1.370 . S
C2160 C2162 1.363 . S
C2160 H2176 0.931 . S
C2161 C2160 1.370 . S
C2161 C2165 1.408 . S
C2162 C2160 1.363 . S
C2162 C2163 1.370 . S
C2162 C2166 1.524 . S
C2163 C2155 1.503 . S
C2163 C2162 1.370 . S
C2163 C2164 1.403 . S
C2164 C2163 1.403 . S
C2164 C2165 1.404 . S
C2164 C2167 1.539 . S
C2165 C2161 1.408 . S
C2165 C2164 1.404 . S
C2165 H2177 0.930 . S
C2166 C2162 1.524 . S
C2166 H2178 0.956 . S
C2166 H2179 0.961 . S
C2166 H2180 0.961 . S
C2167 C2164 1.539 . S
C2167 H2181 0.958 . S
C2167 H2182 0.961 . S
C2167 H2183 0.960 . S
H2168 C2152 0.931 . S
H2169 C2157 0.929 . S
H2170 C2158 0.960 . S
H2171 C2158 0.962 . S
H2172 C2158 0.960 . S
H2173 C2159 0.961 . S
H2174 C2159 0.961 . S
H2175 C2159 0.961 . S
H2176 C2160 0.931 . S
H2177 C2165 0.930 . S
H2178 C2166 0.956 . S
H2179 C2166 0.961 . S
H2180 C2166 0.961 . S
H2181 C2167 0.958 . S
H2182 C2167 0.961 . S
H2183 C2167 0.960 . S
C2184 C2185 1.391 . S
C2184 C2186 1.394 . S
C2184 H2200 0.931 . S
C2185 C2184 1.391 . S
C2185 C2189 1.376 . S
C2186 C2184 1.394 . S
C2186 C2187 1.369 . S
C2186 C2190 1.531 . S
C2187 C2186 1.369 . S
C2187 C2188 1.410 . S
C2187 C2195 1.503 . S
C2188 C2187 1.410 . S
C2188 C2189 1.392 . S
C2188 C2191 1.511 . S
C2189 C2185 1.376 . S
C2189 C2188 1.392 . S
C2189 H2201 0.929 . S
C2190 C2186 1.531 . S
C2190 H2202 0.960 . S
C2190 H2203 0.962 . S
C2190 H2204 0.960 . S
C2191 C2188 1.511 . S
C2191 H2205 0.961 . S
C2191 H2206 0.961 . S
C2191 H2207 0.961 . S
C2192 C2193 1.370 . S
C2192 C2194 1.363 . S
C2192 H2208 0.931 . S
C2193 C2192 1.370 . S
C2193 C2197 1.408 . S
C2194 C2192 1.363 . S
C2194 C2195 1.370 . S
C2194 C2198 1.524 . S
C2195 C2187 1.503 . S
C2195 C2194 1.370 . S
C2195 C2196 1.403 . S
C2196 C2195 1.403 . S
C2196 C2197 1.404 . S
C2196 C2199 1.539 . S
C2197 C2193 1.408 . S
C2197 C2196 1.404 . S
C2197 H2209 0.930 . S
C2198 C2194 1.524 . S
C2198 H2210 0.956 . S
C2198 H2211 0.961 . S
C2198 H2212 0.961 . S
C2199 C2196 1.539 . S
C2199 H2213 0.958 . S
C2199 H2214 0.961 . S
C2199 H2215 0.960 . S
H2200 C2184 0.931 . S
H2201 C2189 0.929 . S
H2202 C2190 0.960 . S
H2203 C2190 0.962 . S
H2204 C2190 0.960 . S
H2205 C2191 0.961 . S
H2206 C2191 0.961 . S
H2207 C2191 0.961 . S
H2208 C2192 0.931 . S
H2209 C2197 0.930 . S
H2210 C2198 0.956 . S
H2211 C2198 0.961 . S
H2212 C2198 0.961 . S
H2213 C2199 0.958 . S
H2214 C2199 0.961 . S
H2215 C2199 0.960 . S
C2216 C2217 1.391 . S
C2216 C2218 1.394 . S
C2216 H2232 0.931 . S
C2217 C2216 1.391 . S
C2217 C2221 1.376 . S
C2218 C2216 1.394 . S
C2218 C2219 1.369 . S
C2218 C2222 1.531 . S
C2219 C2218 1.369 . S
C2219 C2220 1.410 . S
C2219 C2227 1.503 . S
C2220 C2219 1.410 . S
C2220 C2221 1.392 . S
C2220 C2223 1.511 . S
C2221 C2217 1.376 . S
C2221 C2220 1.392 . S
C2221 H2233 0.929 . S
C2222 C2218 1.531 . S
C2222 H2234 0.960 . S
C2222 H2235 0.962 . S
C2222 H2236 0.960 . S
C2223 C2220 1.511 . S
C2223 H2237 0.961 . S
C2223 H2238 0.961 . S
C2223 H2239 0.961 . S
C2224 C2225 1.370 . S
C2224 C2226 1.363 . S
C2224 H2240 0.931 . S
C2225 C2224 1.370 . S
C2225 C2229 1.408 . S
C2226 C2224 1.363 . S
C2226 C2227 1.370 . S
C2226 C2230 1.524 . S
C2227 C2219 1.503 . S
C2227 C2226 1.370 . S
C2227 C2228 1.403 . S
C2228 C2227 1.403 . S
C2228 C2229 1.404 . S
C2228 C2231 1.539 . S
C2229 C2225 1.408 . S
C2229 C2228 1.404 . S
C2229 H2241 0.930 . S
C2230 C2226 1.524 . S
C2230 H2242 0.956 . S
C2230 H2243 0.961 . S
C2230 H2244 0.961 . S
C2231 C2228 1.539 . S
C2231 H2245 0.958 . S
C2231 H2246 0.961 . S
C2231 H2247 0.960 . S
H2232 C2216 0.931 . S
H2233 C2221 0.929 . S
H2234 C2222 0.960 . S
H2235 C2222 0.962 . S
H2236 C2222 0.960 . S
H2237 C2223 0.961 . S
H2238 C2223 0.961 . S
H2239 C2223 0.961 . S
H2240 C2224 0.931 . S
H2241 C2229 0.930 . S
H2242 C2230 0.956 . S
H2243 C2230 0.961 . S
H2244 C2230 0.961 . S
H2245 C2231 0.958 . S
H2246 C2231 0.961 . S
H2247 C2231 0.960 . S
C2248 C2249 1.391 . S
C2248 C2250 1.394 . S
C2248 H2264 0.931 . S
C2249 C2248 1.391 . S
C2249 C2253 1.376 . S
C2250 C2248 1.394 . S
C2250 C2251 1.369 . S
C2250 C2254 1.531 . S
C2251 C2250 1.369 . S
C2251 C2252 1.410 . S
C2251 C2259 1.503 . S
C2252 C2251 1.410 . S
C2252 C2253 1.392 . S
C2252 C2255 1.511 . S
C2253 C2249 1.376 . S
C2253 C2252 1.392 . S
C2253 H2265 0.929 . S
C2254 C2250 1.531 . S
C2254 H2266 0.960 1_455 S
C2254 H2267 0.962 . S
C2254 H2268 0.960 1_455 S
C2255 C2252 1.511 . S
C2255 H2269 0.961 . S
C2255 H2270 0.961 . S
C2255 H2271 0.961 1_455 S
C2256 C2257 1.370 . S
C2256 C2258 1.363 . S
C2256 H2272 0.931 . S
C2257 C2256 1.370 . S
C2257 C2261 1.408 1_455 S
C2258 C2256 1.363 . S
C2258 C2259 1.370 . S
C2258 C2262 1.524 . S
C2259 C2251 1.503 . S
C2259 C2258 1.370 . S
C2259 C2260 1.403 1_455 S
C2260 C2259 1.403 1_655 S
C2260 C2261 1.404 . S
C2260 C2263 1.539 . S
C2261 C2257 1.408 1_655 S
C2261 C2260 1.404 . S
C2261 H2273 0.930 . S
C2262 C2258 1.524 . S
C2262 H2274 0.956 . S
C2262 H2275 0.961 . S
C2262 H2276 0.961 . S
C2263 C2260 1.539 . S
C2263 H2277 0.958 . S
C2263 H2278 0.961 . S
C2263 H2279 0.960 . S
H2264 C2248 0.931 . S
H2265 C2253 0.929 . S
H2266 C2254 0.960 1_655 S
H2267 C2254 0.962 . S
H2268 C2254 0.960 1_655 S
H2269 C2255 0.961 . S
H2270 C2255 0.961 . S
H2271 C2255 0.961 1_655 S
H2272 C2256 0.931 . S
H2273 C2261 0.930 . S
H2274 C2262 0.956 . S
H2275 C2262 0.961 . S
H2276 C2262 0.961 . S
H2277 C2263 0.958 . S
H2278 C2263 0.961 . S
H2279 C2263 0.960 . S
C2280 C2281 1.391 . S
C2280 C2282 1.394 . S
C2280 H2296 0.931 . S
C2281 C2280 1.391 . S
C2281 C2285 1.376 . S
C2282 C2280 1.394 . S
C2282 C2283 1.369 . S
C2282 C2286 1.531 . S
C2283 C2282 1.369 . S
C2283 C2284 1.410 . S
C2283 C2291 1.503 . S
C2284 C2283 1.410 . S
C2284 C2285 1.392 . S
C2284 C2287 1.511 . S
C2285 C2281 1.376 . S
C2285 C2284 1.392 . S
C2285 H2297 0.929 . S
C2286 C2282 1.531 . S
C2286 H2298 0.960 . S
C2286 H2299 0.962 . S
C2286 H2300 0.960 . S
C2287 C2284 1.511 . S
C2287 H2301 0.961 . S
C2287 H2302 0.961 . S
C2287 H2303 0.961 . S
C2288 C2289 1.370 . S
C2288 C2290 1.363 . S
C2288 H2304 0.931 . S
C2289 C2288 1.370 . S
C2289 C2293 1.408 . S
C2290 C2288 1.363 . S
C2290 C2291 1.370 . S
C2290 C2294 1.524 . S
C2291 C2283 1.503 . S
C2291 C2290 1.370 . S
C2291 C2292 1.403 . S
C2292 C2291 1.403 . S
C2292 C2293 1.404 . S
C2292 C2295 1.539 . S
C2293 C2289 1.408 . S
C2293 C2292 1.404 . S
C2293 H2305 0.930 . S
C2294 C2290 1.524 . S
C2294 H2306 0.956 . S
C2294 H2307 0.961 . S
C2294 H2308 0.961 . S
C2295 C2292 1.539 . S
C2295 H2309 0.958 . S
C2295 H2310 0.961 . S
C2295 H2311 0.960 . S
H2296 C2280 0.931 . S
H2297 C2285 0.929 . S
H2298 C2286 0.960 . S
H2299 C2286 0.962 . S
H2300 C2286 0.960 . S
H2301 C2287 0.961 . S
H2302 C2287 0.961 . S
H2303 C2287 0.961 . S
H2304 C2288 0.931 . S
H2305 C2293 0.930 . S
H2306 C2294 0.956 . S
H2307 C2294 0.961 . S
H2308 C2294 0.961 . S
H2309 C2295 0.958 . S
H2310 C2295 0.961 . S
H2311 C2295 0.960 . S
C2312 C2313 1.391 . S
C2312 C2314 1.394 . S
C2312 H2328 0.931 . S
C2313 C2312 1.391 . S
C2313 C2317 1.376 . S
C2314 C2312 1.394 . S
C2314 C2315 1.369 . S
C2314 C2318 1.531 . S
C2315 C2314 1.369 . S
C2315 C2316 1.410 . S
C2315 C2323 1.503 . S
C2316 C2315 1.410 . S
C2316 C2317 1.392 . S
C2316 C2319 1.511 . S
C2317 C2313 1.376 . S
C2317 C2316 1.392 . S
C2317 H2329 0.929 . S
C2318 C2314 1.531 . S
C2318 H2330 0.960 . S
C2318 H2331 0.962 . S
C2318 H2332 0.960 . S
C2319 C2316 1.511 . S
C2319 H2333 0.961 . S
C2319 H2334 0.961 . S
C2319 H2335 0.961 . S
C2320 C2321 1.370 . S
C2320 C2322 1.363 . S
C2320 H2336 0.931 . S
C2321 C2320 1.370 . S
C2321 C2325 1.408 . S
C2322 C2320 1.363 . S
C2322 C2323 1.370 . S
C2322 C2326 1.524 . S
C2323 C2315 1.503 . S
C2323 C2322 1.370 . S
C2323 C2324 1.403 . S
C2324 C2323 1.403 . S
C2324 C2325 1.404 . S
C2324 C2327 1.539 . S
C2325 C2321 1.408 . S
C2325 C2324 1.404 . S
C2325 H2337 0.930 . S
C2326 C2322 1.524 . S
C2326 H2338 0.956 . S
C2326 H2339 0.961 . S
C2326 H2340 0.961 . S
C2327 C2324 1.539 . S
C2327 H2341 0.958 . S
C2327 H2342 0.961 . S
C2327 H2343 0.960 . S
H2328 C2312 0.931 . S
H2329 C2317 0.929 . S
H2330 C2318 0.960 . S
H2331 C2318 0.962 . S
H2332 C2318 0.960 . S
H2333 C2319 0.961 . S
H2334 C2319 0.961 . S
H2335 C2319 0.961 . S
H2336 C2320 0.931 . S
H2337 C2325 0.930 . S
H2338 C2326 0.956 . S
H2339 C2326 0.961 . S
H2340 C2326 0.961 . S
H2341 C2327 0.958 . S
H2342 C2327 0.961 . S
H2343 C2327 0.960 . S
C2344 C2345 1.391 . S
C2344 C2346 1.394 . S
C2344 H2360 0.931 . S
C2345 C2344 1.391 . S
C2345 C2349 1.376 . S
C2346 C2344 1.394 . S
C2346 C2347 1.369 . S
C2346 C2350 1.531 . S
C2347 C2346 1.369 . S
C2347 C2348 1.410 . S
C2347 C2355 1.503 . S
C2348 C2347 1.410 . S
C2348 C2349 1.392 . S
C2348 C2351 1.511 . S
C2349 C2345 1.376 . S
C2349 C2348 1.392 . S
C2349 H2361 0.929 . S
C2350 C2346 1.531 . S
C2350 H2362 0.960 . S
C2350 H2363 0.962 . S
C2350 H2364 0.960 . S
C2351 C2348 1.511 . S
C2351 H2365 0.961 . S
C2351 H2366 0.961 . S
C2351 H2367 0.961 . S
C2352 C2353 1.370 . S
C2352 C2354 1.363 . S
C2352 H2368 0.931 . S
C2353 C2352 1.370 . S
C2353 C2357 1.408 . S
C2354 C2352 1.363 . S
C2354 C2355 1.370 . S
C2354 C2358 1.524 . S
C2355 C2347 1.503 . S
C2355 C2354 1.370 . S
C2355 C2356 1.403 . S
C2356 C2355 1.403 . S
C2356 C2357 1.404 . S
C2356 C2359 1.539 . S
C2357 C2353 1.408 . S
C2357 C2356 1.404 . S
C2357 H2369 0.930 . S
C2358 C2354 1.524 . S
C2358 H2370 0.956 . S
C2358 H2371 0.961 . S
C2358 H2372 0.961 . S
C2359 C2356 1.539 . S
C2359 H2373 0.958 . S
C2359 H2374 0.961 . S
C2359 H2375 0.960 . S
H2360 C2344 0.931 . S
H2361 C2349 0.929 . S
H2362 C2350 0.960 . S
H2363 C2350 0.962 . S
H2364 C2350 0.960 . S
H2365 C2351 0.961 . S
H2366 C2351 0.961 . S
H2367 C2351 0.961 . S
H2368 C2352 0.931 . S
H2369 C2357 0.930 . S
H2370 C2358 0.956 . S
H2371 C2358 0.961 . S
H2372 C2358 0.961 . S
H2373 C2359 0.958 . S
H2374 C2359 0.961 . S
H2375 C2359 0.960 . S
C2376 C2377 1.391 . S
C2376 C2378 1.394 . S
C2376 H2392 0.931 . S
C2377 C2376 1.391 . S
C2377 C2381 1.376 1_455 S
C2378 C2376 1.394 . S
C2378 C2379 1.369 . S
C2378 C2382 1.531 . S
C2379 C2378 1.369 . S
C2379 C2380 1.410 1_455 S
C2379 C2387 1.503 . S
C2380 C2379 1.410 1_655 S
C2380 C2381 1.392 . S
C2380 C2383 1.511 . S
C2381 C2377 1.376 1_655 S
C2381 C2380 1.392 . S
C2381 H2393 0.929 . S
C2382 C2378 1.531 . S
C2382 H2394 0.960 . S
C2382 H2395 0.962 . S
C2382 H2396 0.960 . S
C2383 C2380 1.511 . S
C2383 H2397 0.961 . S
C2383 H2398 0.961 . S
C2383 H2399 0.961 . S
C2384 C2385 1.370 . S
C2384 C2386 1.363 . S
C2384 H2400 0.931 . S
C2385 C2384 1.370 . S
C2385 C2389 1.408 . S
C2386 C2384 1.363 . S
C2386 C2387 1.370 . S
C2386 C2390 1.524 . S
C2387 C2379 1.503 . S
C2387 C2386 1.370 . S
C2387 C2388 1.403 . S
C2388 C2387 1.403 . S
C2388 C2389 1.404 . S
C2388 C2391 1.539 . S
C2389 C2385 1.408 . S
C2389 C2388 1.404 . S
C2389 H2401 0.930 . S
C2390 C2386 1.524 . S
C2390 H2402 0.956 . S
C2390 H2403 0.961 1_455 S
C2390 H2404 0.961 1_455 S
C2391 C2388 1.539 . S
C2391 H2405 0.958 . S
C2391 H2406 0.961 . S
C2391 H2407 0.960 . S
H2392 C2376 0.931 . S
H2393 C2381 0.929 . S
H2394 C2382 0.960 . S
H2395 C2382 0.962 . S
H2396 C2382 0.960 . S
H2397 C2383 0.961 . S
H2398 C2383 0.961 . S
H2399 C2383 0.961 . S
H2400 C2384 0.931 . S
H2401 C2389 0.930 . S
H2402 C2390 0.956 . S
H2403 C2390 0.961 1_655 S
H2404 C2390 0.961 1_655 S
H2405 C2391 0.958 . S
H2406 C2391 0.961 . S
H2407 C2391 0.960 . S
C2408 C2409 1.391 . S
C2408 C2410 1.394 . S
C2408 H2424 0.931 . S
C2409 C2408 1.391 . S
C2409 C2413 1.376 . S
C2410 C2408 1.394 . S
C2410 C2411 1.369 . S
C2410 C2414 1.531 . S
C2411 C2410 1.369 . S
C2411 C2412 1.410 . S
C2411 C2419 1.503 . S
C2412 C2411 1.410 . S
C2412 C2413 1.392 . S
C2412 C2415 1.511 . S
C2413 C2409 1.376 . S
C2413 C2412 1.392 . S
C2413 H2425 0.929 . S
C2414 C2410 1.531 . S
C2414 H2426 0.960 . S
C2414 H2427 0.962 . S
C2414 H2428 0.960 . S
C2415 C2412 1.511 . S
C2415 H2429 0.961 . S
C2415 H2430 0.961 . S
C2415 H2431 0.961 . S
C2416 C2417 1.370 . S
C2416 C2418 1.363 . S
C2416 H2432 0.931 . S
C2417 C2416 1.370 . S
C2417 C2421 1.408 . S
C2418 C2416 1.363 . S
C2418 C2419 1.370 . S
C2418 C2422 1.524 . S
C2419 C2411 1.503 . S
C2419 C2418 1.370 . S
C2419 C2420 1.403 . S
C2420 C2419 1.403 . S
C2420 C2421 1.404 . S
C2420 C2423 1.539 . S
C2421 C2417 1.408 . S
C2421 C2420 1.404 . S
C2421 H2433 0.930 . S
C2422 C2418 1.524 . S
C2422 H2434 0.956 . S
C2422 H2435 0.961 . S
C2422 H2436 0.961 . S
C2423 C2420 1.539 . S
C2423 H2437 0.958 . S
C2423 H2438 0.961 . S
C2423 H2439 0.960 . S
H2424 C2408 0.931 . S
H2425 C2413 0.929 . S
H2426 C2414 0.960 . S
H2427 C2414 0.962 . S
H2428 C2414 0.960 . S
H2429 C2415 0.961 . S
H2430 C2415 0.961 . S
H2431 C2415 0.961 . S
H2432 C2416 0.931 . S
H2433 C2421 0.930 . S
H2434 C2422 0.956 . S
H2435 C2422 0.961 . S
H2436 C2422 0.961 . S
H2437 C2423 0.958 . S
H2438 C2423 0.961 . S
H2439 C2423 0.960 . S
C2440 C2441 1.391 . S
C2440 C2442 1.394 . S
C2440 H2456 0.931 . S
C2441 C2440 1.391 . S
C2441 C2445 1.376 . S
C2442 C2440 1.394 . S
C2442 C2443 1.369 . S
C2442 C2446 1.531 . S
C2443 C2442 1.369 . S
C2443 C2444 1.410 . S
C2443 C2451 1.503 . S
C2444 C2443 1.410 . S
C2444 C2445 1.392 . S
C2444 C2447 1.511 . S
C2445 C2441 1.376 . S
C2445 C2444 1.392 . S
C2445 H2457 0.929 . S
C2446 C2442 1.531 . S
C2446 H2458 0.960 . S
C2446 H2459 0.962 . S
C2446 H2460 0.960 . S
C2447 C2444 1.511 . S
C2447 H2461 0.961 . S
C2447 H2462 0.961 . S
C2447 H2463 0.961 . S
C2448 C2449 1.370 . S
C2448 C2450 1.363 . S
C2448 H2464 0.931 . S
C2449 C2448 1.370 . S
C2449 C2453 1.408 . S
C2450 C2448 1.363 . S
C2450 C2451 1.370 . S
C2450 C2454 1.524 . S
C2451 C2443 1.503 . S
C2451 C2450 1.370 . S
C2451 C2452 1.403 . S
C2452 C2451 1.403 . S
C2452 C2453 1.404 . S
C2452 C2455 1.539 . S
C2453 C2449 1.408 . S
C2453 C2452 1.404 . S
C2453 H2465 0.930 . S
C2454 C2450 1.524 . S
C2454 H2466 0.956 . S
C2454 H2467 0.961 . S
C2454 H2468 0.961 . S
C2455 C2452 1.539 . S
C2455 H2469 0.958 . S
C2455 H2470 0.961 . S
C2455 H2471 0.960 . S
H2456 C2440 0.931 . S
H2457 C2445 0.929 . S
H2458 C2446 0.960 . S
H2459 C2446 0.962 . S
H2460 C2446 0.960 . S
H2461 C2447 0.961 . S
H2462 C2447 0.961 . S
H2463 C2447 0.961 . S
H2464 C2448 0.931 . S
H2465 C2453 0.930 . S
H2466 C2454 0.956 . S
H2467 C2454 0.961 . S
H2468 C2454 0.961 . S
H2469 C2455 0.958 . S
H2470 C2455 0.961 . S
H2471 C2455 0.960 . S
C2472 C2473 1.391 . S
C2472 C2474 1.394 . S
C2472 H2488 0.931 . S
C2473 C2472 1.391 . S
C2473 C2477 1.376 . S
C2474 C2472 1.394 . S
C2474 C2475 1.369 . S
C2474 C2478 1.531 . S
C2475 C2474 1.369 . S
C2475 C2476 1.410 . S
C2475 C2483 1.503 . S
C2476 C2475 1.410 . S
C2476 C2477 1.392 . S
C2476 C2479 1.511 . S
C2477 C2473 1.376 . S
C2477 C2476 1.392 . S
C2477 H2489 0.929 . S
C2478 C2474 1.531 . S
C2478 H2490 0.960 . S
C2478 H2491 0.962 . S
C2478 H2492 0.960 . S
C2479 C2476 1.511 . S
C2479 H2493 0.961 . S
C2479 H2494 0.961 . S
C2479 H2495 0.961 . S
C2480 C2481 1.370 . S
C2480 C2482 1.363 . S
C2480 H2496 0.931 . S
C2481 C2480 1.370 . S
C2481 C2485 1.408 . S
C2482 C2480 1.363 . S
C2482 C2483 1.370 . S
C2482 C2486 1.524 . S
C2483 C2475 1.503 . S
C2483 C2482 1.370 . S
C2483 C2484 1.403 . S
C2484 C2483 1.403 . S
C2484 C2485 1.404 . S
C2484 C2487 1.539 . S
C2485 C2481 1.408 . S
C2485 C2484 1.404 . S
C2485 H2497 0.930 . S
C2486 C2482 1.524 . S
C2486 H2498 0.956 . S
C2486 H2499 0.961 . S
C2486 H2500 0.961 . S
C2487 C2484 1.539 . S
C2487 H2501 0.958 . S
C2487 H2502 0.961 . S
C2487 H2503 0.960 . S
H2488 C2472 0.931 . S
H2489 C2477 0.929 . S
H2490 C2478 0.960 . S
H2491 C2478 0.962 . S
H2492 C2478 0.960 . S
H2493 C2479 0.961 . S
H2494 C2479 0.961 . S
H2495 C2479 0.961 . S
H2496 C2480 0.931 . S
H2497 C2485 0.930 . S
H2498 C2486 0.956 . S
H2499 C2486 0.961 . S
H2500 C2486 0.961 . S
H2501 C2487 0.958 . S
H2502 C2487 0.961 . S
H2503 C2487 0.960 . S
C2504 C2505 1.391 . S
C2504 C2506 1.394 . S
C2504 H2520 0.931 . S
C2505 C2504 1.391 . S
C2505 C2509 1.376 . S
C2506 C2504 1.394 . S
C2506 C2507 1.369 . S
C2506 C2510 1.531 . S
C2507 C2506 1.369 . S
C2507 C2508 1.410 . S
C2507 C2515 1.503 . S
C2508 C2507 1.410 . S
C2508 C2509 1.392 . S
C2508 C2511 1.511 . S
C2509 C2505 1.376 . S
C2509 C2508 1.392 . S
C2509 H2521 0.929 . S
C2510 C2506 1.531 . S
C2510 H2522 0.960 . S
C2510 H2523 0.962 . S
C2510 H2524 0.960 . S
C2511 C2508 1.511 . S
C2511 H2525 0.961 . S
C2511 H2526 0.961 . S
C2511 H2527 0.961 . S
C2512 C2513 1.370 . S
C2512 C2514 1.363 . S
C2512 H2528 0.931 . S
C2513 C2512 1.370 . S
C2513 C2517 1.408 . S
C2514 C2512 1.363 . S
C2514 C2515 1.370 . S
C2514 C2518 1.524 . S
C2515 C2507 1.503 . S
C2515 C2514 1.370 . S
C2515 C2516 1.403 . S
C2516 C2515 1.403 . S
C2516 C2517 1.404 . S
C2516 C2519 1.539 . S
C2517 C2513 1.408 . S
C2517 C2516 1.404 . S
C2517 H2529 0.930 . S
C2518 C2514 1.524 . S
C2518 H2530 0.956 . S
C2518 H2531 0.961 . S
C2518 H2532 0.961 . S
C2519 C2516 1.539 . S
C2519 H2533 0.958 . S
C2519 H2534 0.961 . S
C2519 H2535 0.960 . S
H2520 C2504 0.931 . S
H2521 C2509 0.929 . S
H2522 C2510 0.960 . S
H2523 C2510 0.962 . S
H2524 C2510 0.960 . S
H2525 C2511 0.961 . S
H2526 C2511 0.961 . S
H2527 C2511 0.961 . S
H2528 C2512 0.931 . S
H2529 C2517 0.930 . S
H2530 C2518 0.956 . S
H2531 C2518 0.961 . S
H2532 C2518 0.961 . S
H2533 C2519 0.958 . S
H2534 C2519 0.961 . S
H2535 C2519 0.960 . S
C2536 C2537 1.391 . S
C2536 C2538 1.394 . S
C2536 H2552 0.931 . S
C2537 C2536 1.391 . S
C2537 C2541 1.376 . S
C2538 C2536 1.394 . S
C2538 C2539 1.369 . S
C2538 C2542 1.531 . S
C2539 C2538 1.369 . S
C2539 C2540 1.410 . S
C2539 C2547 1.503 . S
C2540 C2539 1.410 . S
C2540 C2541 1.392 . S
C2540 C2543 1.511 . S
C2541 C2537 1.376 . S
C2541 C2540 1.392 . S
C2541 H2553 0.929 . S
C2542 C2538 1.531 . S
C2542 H2554 0.960 . S
C2542 H2555 0.962 . S
C2542 H2556 0.960 . S
C2543 C2540 1.511 . S
C2543 H2557 0.961 . S
C2543 H2558 0.961 . S
C2543 H2559 0.961 . S
C2544 C2545 1.370 . S
C2544 C2546 1.363 . S
C2544 H2560 0.931 . S
C2545 C2544 1.370 . S
C2545 C2549 1.408 . S
C2546 C2544 1.363 . S
C2546 C2547 1.370 . S
C2546 C2550 1.524 . S
C2547 C2539 1.503 . S
C2547 C2546 1.370 . S
C2547 C2548 1.403 . S
C2548 C2547 1.403 . S
C2548 C2549 1.404 . S
C2548 C2551 1.539 . S
C2549 C2545 1.408 . S
C2549 C2548 1.404 . S
C2549 H2561 0.930 . S
C2550 C2546 1.524 . S
C2550 H2562 0.956 . S
C2550 H2563 0.961 . S
C2550 H2564 0.961 . S
C2551 C2548 1.539 . S
C2551 H2565 0.958 . S
C2551 H2566 0.961 . S
C2551 H2567 0.960 . S
H2552 C2536 0.931 . S
H2553 C2541 0.929 . S
H2554 C2542 0.960 . S
H2555 C2542 0.962 . S
H2556 C2542 0.960 . S
H2557 C2543 0.961 . S
H2558 C2543 0.961 . S
H2559 C2543 0.961 . S
H2560 C2544 0.931 . S
H2561 C2549 0.930 . S
H2562 C2550 0.956 . S
H2563 C2550 0.961 . S
H2564 C2550 0.961 . S
H2565 C2551 0.958 . S
H2566 C2551 0.961 . S
H2567 C2551 0.960 . S
C2568 C2569 1.391 . S
C2568 C2570 1.394 . S
C2568 H2584 0.931 . S
C2569 C2568 1.391 . S
C2569 C2573 1.376 . S
C2570 C2568 1.394 . S
C2570 C2571 1.369 . S
C2570 C2574 1.531 . S
C2571 C2570 1.369 . S
C2571 C2572 1.410 . S
C2571 C2579 1.503 . S
C2572 C2571 1.410 . S
C2572 C2573 1.392 . S
C2572 C2575 1.511 . S
C2573 C2569 1.376 . S
C2573 C2572 1.392 . S
C2573 H2585 0.929 . S
C2574 C2570 1.531 . S
C2574 H2586 0.960 . S
C2574 H2587 0.962 . S
C2574 H2588 0.960 . S
C2575 C2572 1.511 . S
C2575 H2589 0.961 . S
C2575 H2590 0.961 . S
C2575 H2591 0.961 . S
C2576 C2577 1.370 . S
C2576 C2578 1.363 . S
C2576 H2592 0.931 . S
C2577 C2576 1.370 . S
C2577 C2581 1.408 . S
C2578 C2576 1.363 . S
C2578 C2579 1.370 . S
C2578 C2582 1.524 . S
C2579 C2571 1.503 . S
C2579 C2578 1.370 . S
C2579 C2580 1.403 . S
C2580 C2579 1.403 . S
C2580 C2581 1.404 . S
C2580 C2583 1.539 . S
C2581 C2577 1.408 . S
C2581 C2580 1.404 . S
C2581 H2593 0.930 . S
C2582 C2578 1.524 . S
C2582 H2594 0.956 . S
C2582 H2595 0.961 . S
C2582 H2596 0.961 . S
C2583 C2580 1.539 . S
C2583 H2597 0.958 . S
C2583 H2598 0.961 . S
C2583 H2599 0.960 . S
H2584 C2568 0.931 . S
H2585 C2573 0.929 . S
H2586 C2574 0.960 . S
H2587 C2574 0.962 . S
H2588 C2574 0.960 . S
H2589 C2575 0.961 . S
H2590 C2575 0.961 . S
H2591 C2575 0.961 . S
H2592 C2576 0.931 . S
H2593 C2581 0.930 . S
H2594 C2582 0.956 . S
H2595 C2582 0.961 . S
H2596 C2582 0.961 . S
H2597 C2583 0.958 . S
H2598 C2583 0.961 . S
H2599 C2583 0.960 . S
C2600 C2601 1.391 . S
C2600 C2602 1.394 . S
C2600 H2616 0.931 . S
C2601 C2600 1.391 . S
C2601 C2605 1.376 . S
C2602 C2600 1.394 . S
C2602 C2603 1.369 . S
C2602 C2606 1.531 . S
C2603 C2602 1.369 . S
C2603 C2604 1.410 . S
C2603 C2611 1.503 . S
C2604 C2603 1.410 . S
C2604 C2605 1.392 . S
C2604 C2607 1.511 . S
C2605 C2601 1.376 . S
C2605 C2604 1.392 . S
C2605 H2617 0.929 . S
C2606 C2602 1.531 . S
C2606 H2618 0.960 . S
C2606 H2619 0.962 . S
C2606 H2620 0.960 . S
C2607 C2604 1.511 . S
C2607 H2621 0.961 . S
C2607 H2622 0.961 . S
C2607 H2623 0.961 . S
C2608 C2609 1.370 . S
C2608 C2610 1.363 . S
C2608 H2624 0.931 . S
C2609 C2608 1.370 . S
C2609 C2613 1.408 . S
C2610 C2608 1.363 . S
C2610 C2611 1.370 . S
C2610 C2614 1.524 . S
C2611 C2603 1.503 . S
C2611 C2610 1.370 . S
C2611 C2612 1.403 . S
C2612 C2611 1.403 . S
C2612 C2613 1.404 . S
C2612 C2615 1.539 . S
C2613 C2609 1.408 . S
C2613 C2612 1.404 . S
C2613 H2625 0.930 . S
C2614 C2610 1.524 . S
C2614 H2626 0.956 . S
C2614 H2627 0.961 . S
C2614 H2628 0.961 . S
C2615 C2612 1.539 . S
C2615 H2629 0.958 . S
C2615 H2630 0.961 . S
C2615 H2631 0.960 . S
H2616 C2600 0.931 . S
H2617 C2605 0.929 . S
H2618 C2606 0.960 . S
H2619 C2606 0.962 . S
H2620 C2606 0.960 . S
H2621 C2607 0.961 . S
H2622 C2607 0.961 . S
H2623 C2607 0.961 . S
H2624 C2608 0.931 . S
H2625 C2613 0.930 . S
H2626 C2614 0.956 . S
H2627 C2614 0.961 . S
H2628 C2614 0.961 . S
H2629 C2615 0.958 . S
H2630 C2615 0.961 . S
H2631 C2615 0.960 . S
C2632 C2633 1.391 . S
C2632 C2634 1.394 . S
C2632 H2648 0.931 . S
C2633 C2632 1.391 . S
C2633 C2637 1.376 . S
C2634 C2632 1.394 . S
C2634 C2635 1.369 . S
C2634 C2638 1.531 . S
C2635 C2634 1.369 . S
C2635 C2636 1.410 . S
C2635 C2643 1.503 . S
C2636 C2635 1.410 . S
C2636 C2637 1.392 . S
C2636 C2639 1.511 . S
C2637 C2633 1.376 . S
C2637 C2636 1.392 . S
C2637 H2649 0.929 . S
C2638 C2634 1.531 . S
C2638 H2650 0.960 . S
C2638 H2651 0.962 . S
C2638 H2652 0.960 . S
C2639 C2636 1.511 . S
C2639 H2653 0.961 . S
C2639 H2654 0.961 . S
C2639 H2655 0.961 . S
C2640 C2641 1.370 . S
C2640 C2642 1.363 . S
C2640 H2656 0.931 . S
C2641 C2640 1.370 . S
C2641 C2645 1.408 . S
C2642 C2640 1.363 . S
C2642 C2643 1.370 . S
C2642 C2646 1.524 . S
C2643 C2635 1.503 . S
C2643 C2642 1.370 . S
C2643 C2644 1.403 . S
C2644 C2643 1.403 . S
C2644 C2645 1.404 . S
C2644 C2647 1.539 . S
C2645 C2641 1.408 . S
C2645 C2644 1.404 . S
C2645 H2657 0.930 . S
C2646 C2642 1.524 . S
C2646 H2658 0.956 . S
C2646 H2659 0.961 . S
C2646 H2660 0.961 . S
C2647 C2644 1.539 . S
C2647 H2661 0.958 . S
C2647 H2662 0.961 . S
C2647 H2663 0.960 . S
H2648 C2632 0.931 . S
H2649 C2637 0.929 . S
H2650 C2638 0.960 . S
H2651 C2638 0.962 . S
H2652 C2638 0.960 . S
H2653 C2639 0.961 . S
H2654 C2639 0.961 . S
H2655 C2639 0.961 . S
H2656 C2640 0.931 . S
H2657 C2645 0.930 . S
H2658 C2646 0.956 . S
H2659 C2646 0.961 . S
H2660 C2646 0.961 . S
H2661 C2647 0.958 . S
H2662 C2647 0.961 . S
H2663 C2647 0.960 . S
C2664 C2665 1.391 . S
C2664 C2666 1.394 . S
C2664 H2680 0.931 . S
C2665 C2664 1.391 . S
C2665 C2669 1.376 . S
C2666 C2664 1.394 . S
C2666 C2667 1.369 . S
C2666 C2670 1.531 . S
C2667 C2666 1.369 . S
C2667 C2668 1.410 . S
C2667 C2675 1.503 . S
C2668 C2667 1.410 . S
C2668 C2669 1.392 . S
C2668 C2671 1.511 . S
C2669 C2665 1.376 . S
C2669 C2668 1.392 . S
C2669 H2681 0.929 . S
C2670 C2666 1.531 . S
C2670 H2682 0.960 . S
C2670 H2683 0.962 . S
C2670 H2684 0.960 . S
C2671 C2668 1.511 . S
C2671 H2685 0.961 . S
C2671 H2686 0.961 . S
C2671 H2687 0.961 . S
C2672 C2673 1.370 . S
C2672 C2674 1.363 . S
C2672 H2688 0.931 . S
C2673 C2672 1.370 . S
C2673 C2677 1.408 . S
C2674 C2672 1.363 . S
C2674 C2675 1.370 . S
C2674 C2678 1.524 . S
C2675 C2667 1.503 . S
C2675 C2674 1.370 . S
C2675 C2676 1.403 . S
C2676 C2675 1.403 . S
C2676 C2677 1.404 . S
C2676 C2679 1.539 . S
C2677 C2673 1.408 . S
C2677 C2676 1.404 . S
C2677 H2689 0.930 . S
C2678 C2674 1.524 . S
C2678 H2690 0.956 . S
C2678 H2691 0.961 . S
C2678 H2692 0.961 . S
C2679 C2676 1.539 . S
C2679 H2693 0.958 . S
C2679 H2694 0.961 . S
C2679 H2695 0.960 . S
H2680 C2664 0.931 . S
H2681 C2669 0.929 . S
H2682 C2670 0.960 . S
H2683 C2670 0.962 . S
H2684 C2670 0.960 . S
H2685 C2671 0.961 . S
H2686 C2671 0.961 . S
H2687 C2671 0.961 . S
H2688 C2672 0.931 . S
H2689 C2677 0.930 . S
H2690 C2678 0.956 . S
H2691 C2678 0.961 . S
H2692 C2678 0.961 . S
H2693 C2679 0.958 . S
H2694 C2679 0.961 . S
H2695 C2679 0.960 . S
C2696 C2697 1.391 . S
C2696 C2698 1.394 . S
C2696 H2712 0.931 . S
C2697 C2696 1.391 . S
C2697 C2701 1.376 . S
C2698 C2696 1.394 . S
C2698 C2699 1.369 . S
C2698 C2702 1.531 . S
C2699 C2698 1.369 . S
C2699 C2700 1.410 . S
C2699 C2707 1.503 . S
C2700 C2699 1.410 . S
C2700 C2701 1.392 . S
C2700 C2703 1.511 . S
C2701 C2697 1.376 . S
C2701 C2700 1.392 . S
C2701 H2713 0.929 . S
C2702 C2698 1.531 . S
C2702 H2714 0.960 . S
C2702 H2715 0.962 . S
C2702 H2716 0.960 . S
C2703 C2700 1.511 . S
C2703 H2717 0.961 . S
C2703 H2718 0.961 . S
C2703 H2719 0.961 . S
C2704 C2705 1.370 . S
C2704 C2706 1.363 . S
C2704 H2720 0.931 . S
C2705 C2704 1.370 . S
C2705 C2709 1.408 . S
C2706 C2704 1.363 . S
C2706 C2707 1.370 . S
C2706 C2710 1.524 . S
C2707 C2699 1.503 . S
C2707 C2706 1.370 . S
C2707 C2708 1.403 . S
C2708 C2707 1.403 . S
C2708 C2709 1.404 . S
C2708 C2711 1.539 . S
C2709 C2705 1.408 . S
C2709 C2708 1.404 . S
C2709 H2721 0.930 . S
C2710 C2706 1.524 . S
C2710 H2722 0.956 . S
C2710 H2723 0.961 . S
C2710 H2724 0.961 . S
C2711 C2708 1.539 . S
C2711 H2725 0.958 . S
C2711 H2726 0.961 . S
C2711 H2727 0.960 . S
H2712 C2696 0.931 . S
H2713 C2701 0.929 . S
H2714 C2702 0.960 . S
H2715 C2702 0.962 . S
H2716 C2702 0.960 . S
H2717 C2703 0.961 . S
H2718 C2703 0.961 . S
H2719 C2703 0.961 . S
H2720 C2704 0.931 . S
H2721 C2709 0.930 . S
H2722 C2710 0.956 . S
H2723 C2710 0.961 . S
H2724 C2710 0.961 . S
H2725 C2711 0.958 . S
H2726 C2711 0.961 . S
H2727 C2711 0.960 . S
C2728 C2729 1.391 . S
C2728 C2730 1.394 . S
C2728 H2744 0.931 . S
C2729 C2728 1.391 . S
C2729 C2733 1.376 . S
C2730 C2728 1.394 . S
C2730 C2731 1.369 . S
C2730 C2734 1.531 . S
C2731 C2730 1.369 . S
C2731 C2732 1.410 . S
C2731 C2739 1.503 . S
C2732 C2731 1.410 . S
C2732 C2733 1.392 . S
C2732 C2735 1.511 . S
C2733 C2729 1.376 . S
C2733 C2732 1.392 . S
C2733 H2745 0.929 . S
C2734 C2730 1.531 . S
C2734 H2746 0.960 . S
C2734 H2747 0.962 . S
C2734 H2748 0.960 . S
C2735 C2732 1.511 . S
C2735 H2749 0.961 . S
C2735 H2750 0.961 . S
C2735 H2751 0.961 . S
C2736 C2737 1.370 . S
C2736 C2738 1.363 . S
C2736 H2752 0.931 . S
C2737 C2736 1.370 . S
C2737 C2741 1.408 . S
C2738 C2736 1.363 . S
C2738 C2739 1.370 . S
C2738 C2742 1.524 . S
C2739 C2731 1.503 . S
C2739 C2738 1.370 . S
C2739 C2740 1.403 . S
C2740 C2739 1.403 . S
C2740 C2741 1.404 . S
C2740 C2743 1.539 . S
C2741 C2737 1.408 . S
C2741 C2740 1.404 . S
C2741 H2753 0.930 . S
C2742 C2738 1.524 . S
C2742 H2754 0.956 . S
C2742 H2755 0.961 . S
C2742 H2756 0.961 . S
C2743 C2740 1.539 . S
C2743 H2757 0.958 . S
C2743 H2758 0.961 . S
C2743 H2759 0.960 . S
H2744 C2728 0.931 . S
H2745 C2733 0.929 . S
H2746 C2734 0.960 . S
H2747 C2734 0.962 . S
H2748 C2734 0.960 . S
H2749 C2735 0.961 . S
H2750 C2735 0.961 . S
H2751 C2735 0.961 . S
H2752 C2736 0.931 . S
H2753 C2741 0.930 . S
H2754 C2742 0.956 . S
H2755 C2742 0.961 . S
H2756 C2742 0.961 . S
H2757 C2743 0.958 . S
H2758 C2743 0.961 . S
H2759 C2743 0.960 . S
C2760 C2761 1.391 . S
C2760 C2762 1.394 . S
C2760 H2776 0.931 . S
C2761 C2760 1.391 . S
C2761 C2765 1.376 . S
C2762 C2760 1.394 . S
C2762 C2763 1.369 . S
C2762 C2766 1.531 . S
C2763 C2762 1.369 . S
C2763 C2764 1.410 . S
C2763 C2771 1.503 . S
C2764 C2763 1.410 . S
C2764 C2765 1.392 . S
C2764 C2767 1.511 . S
C2765 C2761 1.376 . S
C2765 C2764 1.392 . S
C2765 H2777 0.929 . S
C2766 C2762 1.531 . S
C2766 H2778 0.960 . S
C2766 H2779 0.962 . S
C2766 H2780 0.960 . S
C2767 C2764 1.511 . S
C2767 H2781 0.961 . S
C2767 H2782 0.961 . S
C2767 H2783 0.961 . S
C2768 C2769 1.370 . S
C2768 C2770 1.363 . S
C2768 H2784 0.931 . S
C2769 C2768 1.370 . S
C2769 C2773 1.408 . S
C2770 C2768 1.363 . S
C2770 C2771 1.370 . S
C2770 C2774 1.524 . S
C2771 C2763 1.503 . S
C2771 C2770 1.370 . S
C2771 C2772 1.403 . S
C2772 C2771 1.403 . S
C2772 C2773 1.404 . S
C2772 C2775 1.539 . S
C2773 C2769 1.408 . S
C2773 C2772 1.404 . S
C2773 H2785 0.930 . S
C2774 C2770 1.524 . S
C2774 H2786 0.956 . S
C2774 H2787 0.961 . S
C2774 H2788 0.961 . S
C2775 C2772 1.539 . S
C2775 H2789 0.958 . S
C2775 H2790 0.961 . S
C2775 H2791 0.960 . S
H2776 C2760 0.931 . S
H2777 C2765 0.929 . S
H2778 C2766 0.960 . S
H2779 C2766 0.962 . S
H2780 C2766 0.960 . S
H2781 C2767 0.961 . S
H2782 C2767 0.961 . S
H2783 C2767 0.961 . S
H2784 C2768 0.931 . S
H2785 C2773 0.930 . S
H2786 C2774 0.956 . S
H2787 C2774 0.961 . S
H2788 C2774 0.961 . S
H2789 C2775 0.958 . S
H2790 C2775 0.961 . S
H2791 C2775 0.960 . S
C2792 C2793 1.368 1_556 S
C2792 C2794 1.391 1_556 S
C2792 H2808 0.957 . S
C2793 C2792 1.368 1_554 S
C2793 C2797 1.376 . S
C2794 C2792 1.391 1_554 S
C2794 C2795 1.369 . S
C2794 C2798 1.531 1_554 S
C2795 C2794 1.369 . S
C2795 C2796 1.410 . S
C2795 C2803 1.503 . S
C2796 C2795 1.410 . S
C2796 C2797 1.392 . S
C2796 C2799 1.511 . S
C2797 C2793 1.376 . S
C2797 C2796 1.392 . S
C2797 H2809 0.929 . S
C2798 C2794 1.531 1_556 S
C2798 H2810 0.960 . S
C2798 H2811 0.962 . S
C2798 H2812 0.960 . S
C2799 C2796 1.511 . S
C2799 H2813 0.961 . S
C2799 H2814 0.961 . S
C2799 H2815 0.961 . S
C2800 C2801 1.370 . S
C2800 C2802 1.363 . S
C2800 H2816 0.931 1_554 S
C2801 C2800 1.370 . S
C2801 C2805 1.408 . S
C2802 C2800 1.363 . S
C2802 C2803 1.370 . S
C2802 C2806 1.524 1_554 S
C2803 C2795 1.503 . S
C2803 C2802 1.370 . S
C2803 C2804 1.403 . S
C2804 C2803 1.403 . S
C2804 C2805 1.404 . S
C2804 C2807 1.539 . S
C2805 C2801 1.408 . S
C2805 C2804 1.404 . S
C2805 H2817 0.930 . S
C2806 C2802 1.524 1_556 S
C2806 H2818 0.956 . S
C2806 H2819 0.961 . S
C2806 H2820 0.961 . S
C2807 C2804 1.539 . S
C2807 H2821 0.958 . S
C2807 H2822 0.961 . S
C2807 H2823 0.960 . S
H2808 C2792 0.957 . S
H2809 C2797 0.929 . S
H2810 C2798 0.960 . S
H2811 C2798 0.962 . S
H2812 C2798 0.960 . S
H2813 C2799 0.961 . S
H2814 C2799 0.961 . S
H2815 C2799 0.961 . S
H2816 C2800 0.931 1_556 S
H2817 C2805 0.930 . S
H2818 C2806 0.956 . S
H2819 C2806 0.961 . S
H2820 C2806 0.961 . S
H2821 C2807 0.958 . S
H2822 C2807 0.961 . S
H2823 C2807 0.960 . S
C2824 C2825 1.391 . S
C2824 C2826 1.394 . S
C2824 H2840 0.931 . S
C2825 C2824 1.391 . S
C2825 C2829 1.376 . S
C2826 C2824 1.394 . S
C2826 C2827 1.369 . S
C2826 C2830 1.531 . S
C2827 C2826 1.369 . S
C2827 C2828 1.410 . S
C2827 C2835 1.503 . S
C2828 C2827 1.410 . S
C2828 C2829 1.392 . S
C2828 C2831 1.511 . S
C2829 C2825 1.376 . S
C2829 C2828 1.392 . S
C2829 H2841 0.929 . S
C2830 C2826 1.531 . S
C2830 H2842 0.960 . S
C2830 H2843 0.962 . S
C2830 H2844 0.960 . S
C2831 C2828 1.511 . S
C2831 H2845 0.961 . S
C2831 H2846 0.961 . S
C2831 H2847 0.961 . S
C2832 C2833 1.370 . S
C2832 C2834 1.363 . S
C2832 H2848 0.931 . S
C2833 C2832 1.370 . S
C2833 C2837 1.408 . S
C2834 C2832 1.363 . S
C2834 C2835 1.370 . S
C2834 C2838 1.524 . S
C2835 C2827 1.503 . S
C2835 C2834 1.370 . S
C2835 C2836 1.403 . S
C2836 C2835 1.403 . S
C2836 C2837 1.404 . S
C2836 C2839 1.539 . S
C2837 C2833 1.408 . S
C2837 C2836 1.404 . S
C2837 H2849 0.930 . S
C2838 C2834 1.524 . S
C2838 H2850 0.956 . S
C2838 H2851 0.961 . S
C2838 H2852 0.961 . S
C2839 C2836 1.539 . S
C2839 H2853 0.958 . S
C2839 H2854 0.961 . S
C2839 H2855 0.960 . S
H2840 C2824 0.931 . S
H2841 C2829 0.929 . S
H2842 C2830 0.960 . S
H2843 C2830 0.962 . S
H2844 C2830 0.960 . S
H2845 C2831 0.961 . S
H2846 C2831 0.961 . S
H2847 C2831 0.961 . S
H2848 C2832 0.931 . S
H2849 C2837 0.930 . S
H2850 C2838 0.956 . S
H2851 C2838 0.961 . S
H2852 C2838 0.961 . S
H2853 C2839 0.958 . S
H2854 C2839 0.961 . S
H2855 C2839 0.960 . S
C2856 C2857 1.385 1_556 S
C2856 C2858 1.394 . S
C2856 H2872 0.931 . S
C2857 C2856 1.385 1_554 S
C2857 C2861 1.382 . S
C2858 C2856 1.394 . S
C2858 C2859 1.348 1_556 S
C2858 C2862 1.531 . S
C2859 C2858 1.348 1_554 S
C2859 C2860 1.431 . S
C2859 C2867 1.501 1_554 S
C2860 C2859 1.431 . S
C2860 C2861 1.392 . S
C2860 C2863 1.511 . S
C2861 C2857 1.382 . S
C2861 C2860 1.392 . S
C2861 H2873 0.929 . S
C2862 C2858 1.531 . S
C2862 H2874 0.960 . S
C2862 H2875 0.962 . S
C2862 H2876 0.960 . S
C2863 C2860 1.511 . S
C2863 H2877 0.961 . S
C2863 H2878 0.961 . S
C2863 H2879 0.961 . S
C2864 C2865 1.370 . S
C2864 C2866 1.363 . S
C2864 H2880 0.931 . S
C2865 C2864 1.370 . S
C2865 C2869 1.408 1_556 S
C2866 C2864 1.363 . S
C2866 C2867 1.370 . S
C2866 C2870 1.524 . S
C2867 C2859 1.501 1_556 S
C2867 C2866 1.370 . S
C2867 C2868 1.403 1_556 S
C2868 C2867 1.403 1_554 S
C2868 C2869 1.404 . S
C2868 C2871 1.539 . S
C2869 C2865 1.408 1_554 S
C2869 C2868 1.404 . S
C2869 H2881 0.930 . S
C2870 C2866 1.524 . S
C2870 H2882 0.956 . S
C2870 H2883 0.961 . S
C2870 H2884 0.961 . S
C2871 C2868 1.539 . S
C2871 H2885 0.958 . S
C2871 H2886 0.961 . S
C2871 H2887 0.960 . S
H2872 C2856 0.931 . S
H2873 C2861 0.929 . S
H2874 C2862 0.960 . S
H2875 C2862 0.962 . S
H2876 C2862 0.960 . S
H2877 C2863 0.961 . S
H2878 C2863 0.961 . S
H2879 C2863 0.961 . S
H2880 C2864 0.931 . S
H2881 C2869 0.930 . S
H2882 C2870 0.956 . S
H2883 C2870 0.961 . S
H2884 C2870 0.961 . S
H2885 C2871 0.958 . S
H2886 C2871 0.961 . S
H2887 C2871 0.960 . S
C2888 C2889 1.391 . S
C2888 C2890 1.394 . S
C2888 H2904 0.931 . S
C2889 C2888 1.391 . S
C2889 C2893 1.376 . S
C2890 C2888 1.394 . S
C2890 C2891 1.369 . S
C2890 C2894 1.531 . S
C2891 C2890 1.369 . S
C2891 C2892 1.410 . S
C2891 C2899 1.503 . S
C2892 C2891 1.410 . S
C2892 C2893 1.392 . S
C2892 C2895 1.511 . S
C2893 C2889 1.376 . S
C2893 C2892 1.392 . S
C2893 H2905 0.929 . S
C2894 C2890 1.531 . S
C2894 H2906 0.960 . S
C2894 H2907 0.962 . S
C2894 H2908 0.960 . S
C2895 C2892 1.511 . S
C2895 H2909 0.961 . S
C2895 H2910 0.961 . S
C2895 H2911 0.961 . S
C2896 C2897 1.370 . S
C2896 C2898 1.363 . S
C2896 H2912 0.931 . S
C2897 C2896 1.370 . S
C2897 C2901 1.408 . S
C2898 C2896 1.363 . S
C2898 C2899 1.370 . S
C2898 C2902 1.524 . S
C2899 C2891 1.503 . S
C2899 C2898 1.370 . S
C2899 C2900 1.403 . S
C2900 C2899 1.403 . S
C2900 C2901 1.404 . S
C2900 C2903 1.539 . S
C2901 C2897 1.408 . S
C2901 C2900 1.404 . S
C2901 H2913 0.930 . S
C2902 C2898 1.524 . S
C2902 H2914 0.956 . S
C2902 H2915 0.961 . S
C2902 H2916 0.961 . S
C2903 C2900 1.539 . S
C2903 H2917 0.958 . S
C2903 H2918 0.961 . S
C2903 H2919 0.960 . S
H2904 C2888 0.931 . S
H2905 C2893 0.929 . S
H2906 C2894 0.960 . S
H2907 C2894 0.962 . S
H2908 C2894 0.960 . S
H2909 C2895 0.961 . S
H2910 C2895 0.961 . S
H2911 C2895 0.961 . S
H2912 C2896 0.931 . S
H2913 C2901 0.930 . S
H2914 C2902 0.956 . S
H2915 C2902 0.961 . S
H2916 C2902 0.961 . S
H2917 C2903 0.958 . S
H2918 C2903 0.961 . S
H2919 C2903 0.960 . S
C2920 C2921 1.391 . S
C2920 C2922 1.394 . S
C2920 H2936 0.931 . S
C2921 C2920 1.391 . S
C2921 C2925 1.376 . S
C2922 C2920 1.394 . S
C2922 C2923 1.369 . S
C2922 C2926 1.531 . S
C2923 C2922 1.369 . S
C2923 C2924 1.410 . S
C2923 C2931 1.503 . S
C2924 C2923 1.410 . S
C2924 C2925 1.392 . S
C2924 C2927 1.511 . S
C2925 C2921 1.376 . S
C2925 C2924 1.392 . S
C2925 H2937 0.929 . S
C2926 C2922 1.531 . S
C2926 H2938 0.960 . S
C2926 H2939 0.962 . S
C2926 H2940 0.960 . S
C2927 C2924 1.511 . S
C2927 H2941 0.961 . S
C2927 H2942 0.961 . S
C2927 H2943 0.961 . S
C2928 C2929 1.370 . S
C2928 C2930 1.363 . S
C2928 H2944 0.931 . S
C2929 C2928 1.370 . S
C2929 C2933 1.408 . S
C2930 C2928 1.363 . S
C2930 C2931 1.370 . S
C2930 C2934 1.524 . S
C2931 C2923 1.503 . S
C2931 C2930 1.370 . S
C2931 C2932 1.403 . S
C2932 C2931 1.403 . S
C2932 C2933 1.404 . S
C2932 C2935 1.539 . S
C2933 C2929 1.408 . S
C2933 C2932 1.404 . S
C2933 H2945 0.930 . S
C2934 C2930 1.524 . S
C2934 H2946 0.956 . S
C2934 H2947 0.961 . S
C2934 H2948 0.961 . S
C2935 C2932 1.539 . S
C2935 H2949 0.958 . S
C2935 H2950 0.961 . S
C2935 H2951 0.960 . S
H2936 C2920 0.931 . S
H2937 C2925 0.929 . S
H2938 C2926 0.960 . S
H2939 C2926 0.962 . S
H2940 C2926 0.960 . S
H2941 C2927 0.961 . S
H2942 C2927 0.961 . S
H2943 C2927 0.961 . S
H2944 C2928 0.931 . S
H2945 C2933 0.930 . S
H2946 C2934 0.956 . S
H2947 C2934 0.961 . S
H2948 C2934 0.961 . S
H2949 C2935 0.958 . S
H2950 C2935 0.961 . S
H2951 C2935 0.960 . S
C2952 C2953 1.391 . S
C2952 C2954 1.394 . S
C2952 H2968 0.931 . S
C2953 C2952 1.391 . S
C2953 C2957 1.376 . S
C2954 C2952 1.394 . S
C2954 C2955 1.369 . S
C2954 C2958 1.531 . S
C2955 C2954 1.369 . S
C2955 C2956 1.410 . S
C2955 C2963 1.503 . S
C2956 C2955 1.410 . S
C2956 C2957 1.392 . S
C2956 C2959 1.511 . S
C2957 C2953 1.376 . S
C2957 C2956 1.392 . S
C2957 H2969 0.929 . S
C2958 C2954 1.531 . S
C2958 H2970 0.960 . S
C2958 H2971 0.962 . S
C2958 H2972 0.960 . S
C2959 C2956 1.511 . S
C2959 H2973 0.961 . S
C2959 H2974 0.961 . S
C2959 H2975 0.961 . S
C2960 C2961 1.370 . S
C2960 C2962 1.363 . S
C2960 H2976 0.931 . S
C2961 C2960 1.370 . S
C2961 C2965 1.408 . S
C2962 C2960 1.363 . S
C2962 C2963 1.370 . S
C2962 C2966 1.524 . S
C2963 C2955 1.503 . S
C2963 C2962 1.370 . S
C2963 C2964 1.403 . S
C2964 C2963 1.403 . S
C2964 C2965 1.404 . S
C2964 C2967 1.539 . S
C2965 C2961 1.408 . S
C2965 C2964 1.404 . S
C2965 H2977 0.930 . S
C2966 C2962 1.524 . S
C2966 H2978 0.956 . S
C2966 H2979 0.961 . S
C2966 H2980 0.961 . S
C2967 C2964 1.539 . S
C2967 H2981 0.958 . S
C2967 H2982 0.961 . S
C2967 H2983 0.960 . S
H2968 C2952 0.931 . S
H2969 C2957 0.929 . S
H2970 C2958 0.960 . S
H2971 C2958 0.962 . S
H2972 C2958 0.960 . S
H2973 C2959 0.961 . S
H2974 C2959 0.961 . S
H2975 C2959 0.961 . S
H2976 C2960 0.931 . S
H2977 C2965 0.930 . S
H2978 C2966 0.956 . S
H2979 C2966 0.961 . S
H2980 C2966 0.961 . S
H2981 C2967 0.958 . S
H2982 C2967 0.961 . S
H2983 C2967 0.960 . S
C2984 C2985 1.391 . S
C2984 C2986 1.394 . S
C2984 H3000 0.931 . S
C2985 C2984 1.391 . S
C2985 C2989 1.376 . S
C2986 C2984 1.394 . S
C2986 C2987 1.369 . S
C2986 C2990 1.531 . S
C2987 C2986 1.369 . S
C2987 C2988 1.410 . S
C2987 C2995 1.503 . S
C2988 C2987 1.410 . S
C2988 C2989 1.392 . S
C2988 C2991 1.511 . S
C2989 C2985 1.376 . S
C2989 C2988 1.392 . S
C2989 H3001 0.929 . S
C2990 C2986 1.531 . S
C2990 H3002 0.960 . S
C2990 H3003 0.962 . S
C2990 H3004 0.960 . S
C2991 C2988 1.511 . S
C2991 H3005 0.961 . S
C2991 H3006 0.961 . S
C2991 H3007 0.961 . S
C2992 C2993 1.370 . S
C2992 C2994 1.363 . S
C2992 H3008 0.931 . S
C2993 C2992 1.370 . S
C2993 C2997 1.408 . S
C2994 C2992 1.363 . S
C2994 C2995 1.370 . S
C2994 C2998 1.524 . S
C2995 C2987 1.503 . S
C2995 C2994 1.370 . S
C2995 C2996 1.403 . S
C2996 C2995 1.403 . S
C2996 C2997 1.404 . S
C2996 C2999 1.539 . S
C2997 C2993 1.408 . S
C2997 C2996 1.404 . S
C2997 H3009 0.930 . S
C2998 C2994 1.524 . S
C2998 H3010 0.956 . S
C2998 H3011 0.961 . S
C2998 H3012 0.961 . S
C2999 C2996 1.539 . S
C2999 H3013 0.958 . S
C2999 H3014 0.961 . S
C2999 H3015 0.960 . S
H3000 C2984 0.931 . S
H3001 C2989 0.929 . S
H3002 C2990 0.960 . S
H3003 C2990 0.962 . S
H3004 C2990 0.960 . S
H3005 C2991 0.961 . S
H3006 C2991 0.961 . S
H3007 C2991 0.961 . S
H3008 C2992 0.931 . S
H3009 C2997 0.930 . S
H3010 C2998 0.956 . S
H3011 C2998 0.961 . S
H3012 C2998 0.961 . S
H3013 C2999 0.958 . S
H3014 C2999 0.961 . S
H3015 C2999 0.960 . S
C3016 C3017 1.391 1_655 S
C3016 C3018 1.394 . S
C3016 H3032 0.931 . S
C3017 C3016 1.391 1_455 S
C3017 C3021 1.376 . S
C3018 C3016 1.394 . S
C3018 C3019 1.369 1_655 S
C3018 C3022 1.531 . S
C3019 C3018 1.369 1_455 S
C3019 C3020 1.410 . S
C3019 C3027 1.503 . S
C3020 C3019 1.410 . S
C3020 C3021 1.392 . S
C3020 C3023 1.511 . S
C3021 C3017 1.376 . S
C3021 C3020 1.392 . S
C3021 H3033 0.929 . S
C3022 C3018 1.531 . S
C3022 H3034 0.960 . S
C3022 H3035 0.962 . S
C3022 H3036 0.960 . S
C3023 C3020 1.511 . S
C3023 H3037 0.961 . S
C3023 H3038 0.961 . S
C3023 H3039 0.961 . S
C3024 C3025 1.372 . S
C3024 C3026 1.363 . S
C3024 H3040 0.931 . S
C3025 C3024 1.372 . S
C3025 C3029 1.407 1_455 S
C3026 C3024 1.363 . S
C3026 C3027 1.370 . S
C3026 C3030 1.524 . S
C3027 C3019 1.503 . S
C3027 C3026 1.370 . S
C3027 C3028 1.403 1_455 S
C3028 C3027 1.403 1_655 S
C3028 C3029 1.404 . S
C3028 C3031 1.539 . S
C3029 C3025 1.407 1_655 S
C3029 C3028 1.404 . S
C3029 H3041 0.930 . S
C3030 C3026 1.524 . S
C3030 H3042 0.956 . S
C3030 H3043 0.961 . S
C3030 H3044 0.961 . S
C3031 C3028 1.539 . S
C3031 H3045 0.958 . S
C3031 H3046 0.961 . S
C3031 H3047 0.976 . S
H3032 C3016 0.931 . S
H3033 C3021 0.929 . S
H3034 C3022 0.960 . S
H3035 C3022 0.962 . S
H3036 C3022 0.960 . S
H3037 C3023 0.961 . S
H3038 C3023 0.961 . S
H3039 C3023 0.961 . S
H3040 C3024 0.931 . S
H3041 C3029 0.930 . S
H3042 C3030 0.956 . S
H3043 C3030 0.961 . S
H3044 C3030 0.961 . S
H3045 C3031 0.958 . S
H3046 C3031 0.961 . S
H3047 C3031 0.976 . S
C3048 C3049 1.391 . S
C3048 C3050 1.394 . S
C3048 H3064 0.931 . S
C3049 C3048 1.391 . S
C3049 C3053 1.376 . S
C3050 C3048 1.394 . S
C3050 C3051 1.369 . S
C3050 C3054 1.531 . S
C3051 C3050 1.369 . S
C3051 C3052 1.410 . S
C3051 C3059 1.503 . S
C3052 C3051 1.410 . S
C3052 C3053 1.392 . S
C3052 C3055 1.511 . S
C3053 C3049 1.376 . S
C3053 C3052 1.392 . S
C3053 H3065 0.929 . S
C3054 C3050 1.531 . S
C3054 H3066 0.960 . S
C3054 H3067 0.962 . S
C3054 H3068 0.960 . S
C3055 C3052 1.511 . S
C3055 H3069 0.961 . S
C3055 H3070 0.961 . S
C3055 H3071 0.961 . S
C3056 C3057 1.370 . S
C3056 C3058 1.363 . S
C3056 H3072 0.931 . S
C3057 C3056 1.370 . S
C3057 C3061 1.408 . S
C3058 C3056 1.363 . S
C3058 C3059 1.370 . S
C3058 C3062 1.524 . S
C3059 C3051 1.503 . S
C3059 C3058 1.370 . S
C3059 C3060 1.403 . S
C3060 C3059 1.403 . S
C3060 C3061 1.404 . S
C3060 C3063 1.539 . S
C3061 C3057 1.408 . S
C3061 C3060 1.404 . S
C3061 H3073 0.930 . S
C3062 C3058 1.524 . S
C3062 H3074 0.956 . S
C3062 H3075 0.961 . S
C3062 H3076 0.961 . S
C3063 C3060 1.539 . S
C3063 H3077 0.958 . S
C3063 H3078 0.961 . S
C3063 H3079 0.960 . S
H3064 C3048 0.931 . S
H3065 C3053 0.929 . S
H3066 C3054 0.960 . S
H3067 C3054 0.962 . S
H3068 C3054 0.960 . S
H3069 C3055 0.961 . S
H3070 C3055 0.961 . S
H3071 C3055 0.961 . S
H3072 C3056 0.931 . S
H3073 C3061 0.930 . S
H3074 C3062 0.956 . S
H3075 C3062 0.961 . S
H3076 C3062 0.961 . S
H3077 C3063 0.958 . S
H3078 C3063 0.961 . S
H3079 C3063 0.960 . S
C3080 C3081 1.391 . S
C3080 C3082 1.394 . S
C3080 H3096 0.931 . S
C3081 C3080 1.391 . S
C3081 C3085 1.376 . S
C3082 C3080 1.394 . S
C3082 C3083 1.369 . S
C3082 C3086 1.531 . S
C3083 C3082 1.369 . S
C3083 C3084 1.410 . S
C3083 C3091 1.503 . S
C3084 C3083 1.410 . S
C3084 C3085 1.392 . S
C3084 C3087 1.511 . S
C3085 C3081 1.376 . S
C3085 C3084 1.392 . S
C3085 H3097 0.929 . S
C3086 C3082 1.531 . S
C3086 H3098 0.960 . S
C3086 H3099 0.962 . S
C3086 H3100 0.960 . S
C3087 C3084 1.511 . S
C3087 H3101 0.961 . S
C3087 H3102 0.961 . S
C3087 H3103 0.961 . S
C3088 C3089 1.370 . S
C3088 C3090 1.363 . S
C3088 H3104 0.931 . S
C3089 C3088 1.370 . S
C3089 C3093 1.408 . S
C3090 C3088 1.363 . S
C3090 C3091 1.370 . S
C3090 C3094 1.524 . S
C3091 C3083 1.503 . S
C3091 C3090 1.370 . S
C3091 C3092 1.403 . S
C3092 C3091 1.403 . S
C3092 C3093 1.404 . S
C3092 C3095 1.539 . S
C3093 C3089 1.408 . S
C3093 C3092 1.404 . S
C3093 H3105 0.930 . S
C3094 C3090 1.524 . S
C3094 H3106 0.956 . S
C3094 H3107 0.961 . S
C3094 H3108 0.961 . S
C3095 C3092 1.539 . S
C3095 H3109 0.958 . S
C3095 H3110 0.961 . S
C3095 H3111 0.960 . S
H3096 C3080 0.931 . S
H3097 C3085 0.929 . S
H3098 C3086 0.960 . S
H3099 C3086 0.962 . S
H3100 C3086 0.960 . S
H3101 C3087 0.961 . S
H3102 C3087 0.961 . S
H3103 C3087 0.961 . S
H3104 C3088 0.931 . S
H3105 C3093 0.930 . S
H3106 C3094 0.956 . S
H3107 C3094 0.961 . S
H3108 C3094 0.961 . S
H3109 C3095 0.958 . S
H3110 C3095 0.961 . S
H3111 C3095 0.960 . S
C3112 C3113 1.391 . S
C3112 C3114 1.394 . S
C3112 H3128 0.931 . S
C3113 C3112 1.391 . S
C3113 C3117 1.376 . S
C3114 C3112 1.394 . S
C3114 C3115 1.369 . S
C3114 C3118 1.531 . S
C3115 C3114 1.369 . S
C3115 C3116 1.410 . S
C3115 C3123 1.503 . S
C3116 C3115 1.410 . S
C3116 C3117 1.392 . S
C3116 C3119 1.511 . S
C3117 C3113 1.376 . S
C3117 C3116 1.392 . S
C3117 H3129 0.929 . S
C3118 C3114 1.531 . S
C3118 H3130 0.960 . S
C3118 H3131 0.962 . S
C3118 H3132 0.960 . S
C3119 C3116 1.511 . S
C3119 H3133 0.961 . S
C3119 H3134 0.961 . S
C3119 H3135 0.961 . S
C3120 C3121 1.370 . S
C3120 C3122 1.363 . S
C3120 H3136 0.931 . S
C3121 C3120 1.370 . S
C3121 C3125 1.408 . S
C3122 C3120 1.363 . S
C3122 C3123 1.370 . S
C3122 C3126 1.524 . S
C3123 C3115 1.503 . S
C3123 C3122 1.370 . S
C3123 C3124 1.403 . S
C3124 C3123 1.403 . S
C3124 C3125 1.404 . S
C3124 C3127 1.539 . S
C3125 C3121 1.408 . S
C3125 C3124 1.404 . S
C3125 H3137 0.930 . S
C3126 C3122 1.524 . S
C3126 H3138 0.956 . S
C3126 H3139 0.961 . S
C3126 H3140 0.961 . S
C3127 C3124 1.539 . S
C3127 H3141 0.958 . S
C3127 H3142 0.961 . S
C3127 H3143 0.960 . S
H3128 C3112 0.931 . S
H3129 C3117 0.929 . S
H3130 C3118 0.960 . S
H3131 C3118 0.962 . S
H3132 C3118 0.960 . S
H3133 C3119 0.961 . S
H3134 C3119 0.961 . S
H3135 C3119 0.961 . S
H3136 C3120 0.931 . S
H3137 C3125 0.930 . S
H3138 C3126 0.956 . S
H3139 C3126 0.961 . S
H3140 C3126 0.961 . S
H3141 C3127 0.958 . S
H3142 C3127 0.961 . S
H3143 C3127 0.960 . S
C3144 C3145 1.391 . S
C3144 C3146 1.394 . S
C3144 H3160 0.931 . S
C3145 C3144 1.391 . S
C3145 C3149 1.376 1_455 S
C3146 C3144 1.394 . S
C3146 C3147 1.369 . S
C3146 C3150 1.531 . S
C3147 C3146 1.369 . S
C3147 C3148 1.410 1_455 S
C3147 C3155 1.503 . S
C3148 C3147 1.410 1_655 S
C3148 C3149 1.392 . S
C3148 C3151 1.511 . S
C3149 C3145 1.376 1_655 S
C3149 C3148 1.392 . S
C3149 H3161 0.929 . S
C3150 C3146 1.531 . S
C3150 H3162 0.960 . S
C3150 H3163 0.962 . S
C3150 H3164 0.960 . S
C3151 C3148 1.511 . S
C3151 H3165 0.961 . S
C3151 H3166 0.961 . S
C3151 H3167 0.961 . S
C3152 C3153 1.370 1_655 S
C3152 C3154 1.363 . S
C3152 H3168 0.931 . S
C3153 C3152 1.370 1_455 S
C3153 C3157 1.408 . S
C3154 C3152 1.363 . S
C3154 C3155 1.370 1_655 S
C3154 C3158 1.524 . S
C3155 C3147 1.503 . S
C3155 C3154 1.370 1_455 S
C3155 C3156 1.403 . S
C3156 C3155 1.403 . S
C3156 C3157 1.404 . S
C3156 C3159 1.539 . S
C3157 C3153 1.408 . S
C3157 C3156 1.404 . S
C3157 H3169 0.930 . S
C3158 C3154 1.524 . S
C3158 H3170 0.956 1_655 S
C3158 H3171 0.961 . S
C3158 H3172 0.961 . S
C3159 C3156 1.539 . S
C3159 H3173 0.958 . S
C3159 H3174 0.961 . S
C3159 H3175 0.960 . S
H3160 C3144 0.931 . S
H3161 C3149 0.929 . S
H3162 C3150 0.960 . S
H3163 C3150 0.962 . S
H3164 C3150 0.960 . S
H3165 C3151 0.961 . S
H3166 C3151 0.961 . S
H3167 C3151 0.961 . S
H3168 C3152 0.931 . S
H3169 C3157 0.930 . S
H3170 C3158 0.956 1_455 S
H3171 C3158 0.961 . S
H3172 C3158 0.961 . S
H3173 C3159 0.958 . S
H3174 C3159 0.961 . S
H3175 C3159 0.960 . S
C3176 C3177 1.391 . S
C3176 C3178 1.394 . S
C3176 H3192 0.931 . S
C3177 C3176 1.391 . S
C3177 C3181 1.376 . S
C3178 C3176 1.394 . S
C3178 C3179 1.369 . S
C3178 C3182 1.531 . S
C3179 C3178 1.369 . S
C3179 C3180 1.410 . S
C3179 C3187 1.503 . S
C3180 C3179 1.410 . S
C3180 C3181 1.392 . S
C3180 C3183 1.511 . S
C3181 C3177 1.376 . S
C3181 C3180 1.392 . S
C3181 H3193 0.929 . S
C3182 C3178 1.531 . S
C3182 H3194 0.960 . S
C3182 H3195 0.962 . S
C3182 H3196 0.960 . S
C3183 C3180 1.511 . S
C3183 H3197 0.961 . S
C3183 H3198 0.961 . S
C3183 H3199 0.961 . S
C3184 C3185 1.370 . S
C3184 C3186 1.363 . S
C3184 H3200 0.931 . S
C3185 C3184 1.370 . S
C3185 C3189 1.408 . S
C3186 C3184 1.363 . S
C3186 C3187 1.370 . S
C3186 C3190 1.524 . S
C3187 C3179 1.503 . S
C3187 C3186 1.370 . S
C3187 C3188 1.403 . S
C3188 C3187 1.403 . S
C3188 C3189 1.404 . S
C3188 C3191 1.539 . S
C3189 C3185 1.408 . S
C3189 C3188 1.404 . S
C3189 H3201 0.930 . S
C3190 C3186 1.524 . S
C3190 H3202 0.956 . S
C3190 H3203 0.961 . S
C3190 H3204 0.961 . S
C3191 C3188 1.539 . S
C3191 H3205 0.958 . S
C3191 H3206 0.961 . S
C3191 H3207 0.960 . S
H3192 C3176 0.931 . S
H3193 C3181 0.929 . S
H3194 C3182 0.960 . S
H3195 C3182 0.962 . S
H3196 C3182 0.960 . S
H3197 C3183 0.961 . S
H3198 C3183 0.961 . S
H3199 C3183 0.961 . S
H3200 C3184 0.931 . S
H3201 C3189 0.930 . S
H3202 C3190 0.956 . S
H3203 C3190 0.961 . S
H3204 C3190 0.961 . S
H3205 C3191 0.958 . S
H3206 C3191 0.961 . S
H3207 C3191 0.960 . S
C3208 C3209 1.391 . S
C3208 C3210 1.394 . S
C3208 H3224 0.931 . S
C3209 C3208 1.391 . S
C3209 C3213 1.376 . S
C3210 C3208 1.394 . S
C3210 C3211 1.369 . S
C3210 C3214 1.531 . S
C3211 C3210 1.369 . S
C3211 C3212 1.410 . S
C3211 C3219 1.503 . S
C3212 C3211 1.410 . S
C3212 C3213 1.392 . S
C3212 C3215 1.511 . S
C3213 C3209 1.376 . S
C3213 C3212 1.392 . S
C3213 H3225 0.929 . S
C3214 C3210 1.531 . S
C3214 H3226 0.960 . S
C3214 H3227 0.962 . S
C3214 H3228 0.960 . S
C3215 C3212 1.511 . S
C3215 H3229 0.961 . S
C3215 H3230 0.961 . S
C3215 H3231 0.961 . S
C3216 C3217 1.370 . S
C3216 C3218 1.363 . S
C3216 H3232 0.931 . S
C3217 C3216 1.370 . S
C3217 C3221 1.408 . S
C3218 C3216 1.363 . S
C3218 C3219 1.370 . S
C3218 C3222 1.524 . S
C3219 C3211 1.503 . S
C3219 C3218 1.370 . S
C3219 C3220 1.403 . S
C3220 C3219 1.403 . S
C3220 C3221 1.404 . S
C3220 C3223 1.539 . S
C3221 C3217 1.408 . S
C3221 C3220 1.404 . S
C3221 H3233 0.930 . S
C3222 C3218 1.524 . S
C3222 H3234 0.956 . S
C3222 H3235 0.961 . S
C3222 H3236 0.961 . S
C3223 C3220 1.539 . S
C3223 H3237 0.958 . S
C3223 H3238 0.961 . S
C3223 H3239 0.960 . S
H3224 C3208 0.931 . S
H3225 C3213 0.929 . S
H3226 C3214 0.960 . S
H3227 C3214 0.962 . S
H3228 C3214 0.960 . S
H3229 C3215 0.961 . S
H3230 C3215 0.961 . S
H3231 C3215 0.961 . S
H3232 C3216 0.931 . S
H3233 C3221 0.930 . S
H3234 C3222 0.956 . S
H3235 C3222 0.961 . S
H3236 C3222 0.961 . S
H3237 C3223 0.958 . S
H3238 C3223 0.961 . S
H3239 C3223 0.960 . S
C3240 C3241 1.391 . S
C3240 C3242 1.394 . S
C3240 H3256 0.931 . S
C3241 C3240 1.391 . S
C3241 C3245 1.376 . S
C3242 C3240 1.394 . S
C3242 C3243 1.369 . S
C3242 C3246 1.531 . S
C3243 C3242 1.369 . S
C3243 C3244 1.410 . S
C3243 C3251 1.503 . S
C3244 C3243 1.410 . S
C3244 C3245 1.392 . S
C3244 C3247 1.511 . S
C3245 C3241 1.376 . S
C3245 C3244 1.392 . S
C3245 H3257 0.929 . S
C3246 C3242 1.531 . S
C3246 H3258 0.960 . S
C3246 H3259 0.962 . S
C3246 H3260 0.960 . S
C3247 C3244 1.511 . S
C3247 H3261 0.961 . S
C3247 H3262 0.961 . S
C3247 H3263 0.961 . S
C3248 C3249 1.370 . S
C3248 C3250 1.363 . S
C3248 H3264 0.931 . S
C3249 C3248 1.370 . S
C3249 C3253 1.408 . S
C3250 C3248 1.363 . S
C3250 C3251 1.370 . S
C3250 C3254 1.524 . S
C3251 C3243 1.503 . S
C3251 C3250 1.370 . S
C3251 C3252 1.403 . S
C3252 C3251 1.403 . S
C3252 C3253 1.404 . S
C3252 C3255 1.539 . S
C3253 C3249 1.408 . S
C3253 C3252 1.404 . S
C3253 H3265 0.930 . S
C3254 C3250 1.524 . S
C3254 H3266 0.956 . S
C3254 H3267 0.961 . S
C3254 H3268 0.961 . S
C3255 C3252 1.539 . S
C3255 H3269 0.958 . S
C3255 H3270 0.961 . S
C3255 H3271 0.960 . S
H3256 C3240 0.931 . S
H3257 C3245 0.929 . S
H3258 C3246 0.960 . S
H3259 C3246 0.962 . S
H3260 C3246 0.960 . S
H3261 C3247 0.961 . S
H3262 C3247 0.961 . S
H3263 C3247 0.961 . S
H3264 C3248 0.931 . S
H3265 C3253 0.930 . S
H3266 C3254 0.956 . S
H3267 C3254 0.961 . S
H3268 C3254 0.961 . S
H3269 C3255 0.958 . S
H3270 C3255 0.961 . S
H3271 C3255 0.960 . S
C3272 C3273 1.391 . S
C3272 C3274 1.394 . S
C3272 H3288 0.931 . S
C3273 C3272 1.391 . S
C3273 C3277 1.376 . S
C3274 C3272 1.394 . S
C3274 C3275 1.369 . S
C3274 C3278 1.531 . S
C3275 C3274 1.369 . S
C3275 C3276 1.410 . S
C3275 C3283 1.503 . S
C3276 C3275 1.410 . S
C3276 C3277 1.392 . S
C3276 C3279 1.511 . S
C3277 C3273 1.376 . S
C3277 C3276 1.392 . S
C3277 H3289 0.929 . S
C3278 C3274 1.531 . S
C3278 H3290 0.960 . S
C3278 H3291 0.962 . S
C3278 H3292 0.960 . S
C3279 C3276 1.511 . S
C3279 H3293 0.961 . S
C3279 H3294 0.961 . S
C3279 H3295 0.961 . S
C3280 C3281 1.370 . S
C3280 C3282 1.363 . S
C3280 H3296 0.931 . S
C3281 C3280 1.370 . S
C3281 C3285 1.408 . S
C3282 C3280 1.363 . S
C3282 C3283 1.370 . S
C3282 C3286 1.524 . S
C3283 C3275 1.503 . S
C3283 C3282 1.370 . S
C3283 C3284 1.403 . S
C3284 C3283 1.403 . S
C3284 C3285 1.404 . S
C3284 C3287 1.539 . S
C3285 C3281 1.408 . S
C3285 C3284 1.404 . S
C3285 H3297 0.930 . S
C3286 C3282 1.524 . S
C3286 H3298 0.956 . S
C3286 H3299 0.961 . S
C3286 H3300 0.961 . S
C3287 C3284 1.539 . S
C3287 H3301 0.958 . S
C3287 H3302 0.961 . S
C3287 H3303 0.960 . S
H3288 C3272 0.931 . S
H3289 C3277 0.929 . S
H3290 C3278 0.960 . S
H3291 C3278 0.962 . S
H3292 C3278 0.960 . S
H3293 C3279 0.961 . S
H3294 C3279 0.961 . S
H3295 C3279 0.961 . S
H3296 C3280 0.931 . S
H3297 C3285 0.930 . S
H3298 C3286 0.956 . S
H3299 C3286 0.961 . S
H3300 C3286 0.961 . S
H3301 C3287 0.958 . S
H3302 C3287 0.961 . S
H3303 C3287 0.960 . S
C3304 C3305 1.391 . S
C3304 C3306 1.394 . S
C3304 H3320 0.931 . S
C3305 C3304 1.391 . S
C3305 C3309 1.376 . S
C3306 C3304 1.394 . S
C3306 C3307 1.369 . S
C3306 C3310 1.531 . S
C3307 C3306 1.369 . S
C3307 C3308 1.410 . S
C3307 C3315 1.503 . S
C3308 C3307 1.410 . S
C3308 C3309 1.392 . S
C3308 C3311 1.511 . S
C3309 C3305 1.376 . S
C3309 C3308 1.392 . S
C3309 H3321 0.929 . S
C3310 C3306 1.531 . S
C3310 H3322 0.960 . S
C3310 H3323 0.962 . S
C3310 H3324 0.960 . S
C3311 C3308 1.511 . S
C3311 H3325 0.961 . S
C3311 H3326 0.961 . S
C3311 H3327 0.961 . S
C3312 C3313 1.370 . S
C3312 C3314 1.363 . S
C3312 H3328 0.931 . S
C3313 C3312 1.370 . S
C3313 C3317 1.408 . S
C3314 C3312 1.363 . S
C3314 C3315 1.370 . S
C3314 C3318 1.524 . S
C3315 C3307 1.503 . S
C3315 C3314 1.370 . S
C3315 C3316 1.403 . S
C3316 C3315 1.403 . S
C3316 C3317 1.404 . S
C3316 C3319 1.539 . S
C3317 C3313 1.408 . S
C3317 C3316 1.404 . S
C3317 H3329 0.930 . S
C3318 C3314 1.524 . S
C3318 H3330 0.956 . S
C3318 H3331 0.961 . S
C3318 H3332 0.961 . S
C3319 C3316 1.539 . S
C3319 H3333 0.958 . S
C3319 H3334 0.961 . S
C3319 H3335 0.960 . S
H3320 C3304 0.931 . S
H3321 C3309 0.929 . S
H3322 C3310 0.960 . S
H3323 C3310 0.962 . S
H3324 C3310 0.960 . S
H3325 C3311 0.961 . S
H3326 C3311 0.961 . S
H3327 C3311 0.961 . S
H3328 C3312 0.931 . S
H3329 C3317 0.930 . S
H3330 C3318 0.956 . S
H3331 C3318 0.961 . S
H3332 C3318 0.961 . S
H3333 C3319 0.958 . S
H3334 C3319 0.961 . S
H3335 C3319 0.960 . S
C3336 C3337 1.391 . S
C3336 C3338 1.394 . S
C3336 H3352 0.931 . S
C3337 C3336 1.391 . S
C3337 C3341 1.376 . S
C3338 C3336 1.394 . S
C3338 C3339 1.369 . S
C3338 C3342 1.531 . S
C3339 C3338 1.369 . S
C3339 C3340 1.410 . S
C3339 C3347 1.503 . S
C3340 C3339 1.410 . S
C3340 C3341 1.392 . S
C3340 C3343 1.511 . S
C3341 C3337 1.376 . S
C3341 C3340 1.392 . S
C3341 H3353 0.929 . S
C3342 C3338 1.531 . S
C3342 H3354 0.960 . S
C3342 H3355 0.962 . S
C3342 H3356 0.960 . S
C3343 C3340 1.511 . S
C3343 H3357 0.961 . S
C3343 H3358 0.961 . S
C3343 H3359 0.961 . S
C3344 C3345 1.370 . S
C3344 C3346 1.363 . S
C3344 H3360 0.931 . S
C3345 C3344 1.370 . S
C3345 C3349 1.408 . S
C3346 C3344 1.363 . S
C3346 C3347 1.370 . S
C3346 C3350 1.524 . S
C3347 C3339 1.503 . S
C3347 C3346 1.370 . S
C3347 C3348 1.403 . S
C3348 C3347 1.403 . S
C3348 C3349 1.404 . S
C3348 C3351 1.539 . S
C3349 C3345 1.408 . S
C3349 C3348 1.404 . S
C3349 H3361 0.930 . S
C3350 C3346 1.524 . S
C3350 H3362 0.956 . S
C3350 H3363 0.961 . S
C3350 H3364 0.961 . S
C3351 C3348 1.539 . S
C3351 H3365 0.958 . S
C3351 H3366 0.961 . S
C3351 H3367 0.960 . S
H3352 C3336 0.931 . S
H3353 C3341 0.929 . S
H3354 C3342 0.960 . S
H3355 C3342 0.962 . S
H3356 C3342 0.960 . S
H3357 C3343 0.961 . S
H3358 C3343 0.961 . S
H3359 C3343 0.961 . S
H3360 C3344 0.931 . S
H3361 C3349 0.930 . S
H3362 C3350 0.956 . S
H3363 C3350 0.961 . S
H3364 C3350 0.961 . S
H3365 C3351 0.958 . S
H3366 C3351 0.961 . S
H3367 C3351 0.960 . S
C3368 C3369 1.391 . S
C3368 C3370 1.394 . S
C3368 H3384 0.931 . S
C3369 C3368 1.391 . S
C3369 C3373 1.376 . S
C3370 C3368 1.394 . S
C3370 C3371 1.369 . S
C3370 C3374 1.531 . S
C3371 C3370 1.369 . S
C3371 C3372 1.410 . S
C3371 C3379 1.503 . S
C3372 C3371 1.410 . S
C3372 C3373 1.392 . S
C3372 C3375 1.511 . S
C3373 C3369 1.376 . S
C3373 C3372 1.392 . S
C3373 H3385 0.929 . S
C3374 C3370 1.531 . S
C3374 H3386 0.960 . S
C3374 H3387 0.962 . S
C3374 H3388 0.960 . S
C3375 C3372 1.511 . S
C3375 H3389 0.961 . S
C3375 H3390 0.961 . S
C3375 H3391 0.961 . S
C3376 C3377 1.370 . S
C3376 C3378 1.363 . S
C3376 H3392 0.931 . S
C3377 C3376 1.370 . S
C3377 C3381 1.408 . S
C3378 C3376 1.363 . S
C3378 C3379 1.370 . S
C3378 C3382 1.524 . S
C3379 C3371 1.503 . S
C3379 C3378 1.370 . S
C3379 C3380 1.403 . S
C3380 C3379 1.403 . S
C3380 C3381 1.404 . S
C3380 C3383 1.539 . S
C3381 C3377 1.408 . S
C3381 C3380 1.404 . S
C3381 H3393 0.930 . S
C3382 C3378 1.524 . S
C3382 H3394 0.956 . S
C3382 H3395 0.961 . S
C3382 H3396 0.961 . S
C3383 C3380 1.539 . S
C3383 H3397 0.958 . S
C3383 H3398 0.961 . S
C3383 H3399 0.960 . S
H3384 C3368 0.931 . S
H3385 C3373 0.929 . S
H3386 C3374 0.960 . S
H3387 C3374 0.962 . S
H3388 C3374 0.960 . S
H3389 C3375 0.961 . S
H3390 C3375 0.961 . S
H3391 C3375 0.961 . S
H3392 C3376 0.931 . S
H3393 C3381 0.930 . S
H3394 C3382 0.956 . S
H3395 C3382 0.961 . S
H3396 C3382 0.961 . S
H3397 C3383 0.958 . S
H3398 C3383 0.961 . S
H3399 C3383 0.960 . S
C3400 C3401 1.391 . S
C3400 C3402 1.394 . S
C3400 H3416 0.931 . S
C3401 C3400 1.391 . S
C3401 C3405 1.376 . S
C3402 C3400 1.394 . S
C3402 C3403 1.369 . S
C3402 C3406 1.531 . S
C3403 C3402 1.369 . S
C3403 C3404 1.410 . S
C3403 C3411 1.503 . S
C3404 C3403 1.410 . S
C3404 C3405 1.392 . S
C3404 C3407 1.511 . S
C3405 C3401 1.376 . S
C3405 C3404 1.392 . S
C3405 H3417 0.929 . S
C3406 C3402 1.531 . S
C3406 H3418 0.960 . S
C3406 H3419 0.962 . S
C3406 H3420 0.960 . S
C3407 C3404 1.511 . S
C3407 H3421 0.961 . S
C3407 H3422 0.961 . S
C3407 H3423 0.961 . S
C3408 C3409 1.370 . S
C3408 C3410 1.363 . S
C3408 H3424 0.931 . S
C3409 C3408 1.370 . S
C3409 C3413 1.408 . S
C3410 C3408 1.363 . S
C3410 C3411 1.370 . S
C3410 C3414 1.524 . S
C3411 C3403 1.503 . S
C3411 C3410 1.370 . S
C3411 C3412 1.403 . S
C3412 C3411 1.403 . S
C3412 C3413 1.404 . S
C3412 C3415 1.539 . S
C3413 C3409 1.408 . S
C3413 C3412 1.404 . S
C3413 H3425 0.930 . S
C3414 C3410 1.524 . S
C3414 H3426 0.956 . S
C3414 H3427 0.961 . S
C3414 H3428 0.961 . S
C3415 C3412 1.539 . S
C3415 H3429 0.958 . S
C3415 H3430 0.961 . S
C3415 H3431 0.960 . S
H3416 C3400 0.931 . S
H3417 C3405 0.929 . S
H3418 C3406 0.960 . S
H3419 C3406 0.962 . S
H3420 C3406 0.960 . S
H3421 C3407 0.961 . S
H3422 C3407 0.961 . S
H3423 C3407 0.961 . S
H3424 C3408 0.931 . S
H3425 C3413 0.930 . S
H3426 C3414 0.956 . S
H3427 C3414 0.961 . S
H3428 C3414 0.961 . S
H3429 C3415 0.958 . S
H3430 C3415 0.961 . S
H3431 C3415 0.960 . S
C3432 C3433 1.391 . S
C3432 C3434 1.394 . S
C3432 H3448 0.931 . S
C3433 C3432 1.391 . S
C3433 C3437 1.376 . S
C3434 C3432 1.394 . S
C3434 C3435 1.369 . S
C3434 C3438 1.531 . S
C3435 C3434 1.369 . S
C3435 C3436 1.410 . S
C3435 C3443 1.503 . S
C3436 C3435 1.410 . S
C3436 C3437 1.392 . S
C3436 C3439 1.511 . S
C3437 C3433 1.376 . S
C3437 C3436 1.392 . S
C3437 H3449 0.929 . S
C3438 C3434 1.531 . S
C3438 H3450 0.960 . S
C3438 H3451 0.962 . S
C3438 H3452 0.960 . S
C3439 C3436 1.511 . S
C3439 H3453 0.961 . S
C3439 H3454 0.961 . S
C3439 H3455 0.961 . S
C3440 C3441 1.370 . S
C3440 C3442 1.363 . S
C3440 H3456 0.931 . S
C3441 C3440 1.370 . S
C3441 C3445 1.408 . S
C3442 C3440 1.363 . S
C3442 C3443 1.370 . S
C3442 C3446 1.524 . S
C3443 C3435 1.503 . S
C3443 C3442 1.370 . S
C3443 C3444 1.403 . S
C3444 C3443 1.403 . S
C3444 C3445 1.404 . S
C3444 C3447 1.539 . S
C3445 C3441 1.408 . S
C3445 C3444 1.404 . S
C3445 H3457 0.930 . S
C3446 C3442 1.524 . S
C3446 H3458 0.956 . S
C3446 H3459 0.961 . S
C3446 H3460 0.961 . S
C3447 C3444 1.539 . S
C3447 H3461 0.958 . S
C3447 H3462 0.961 . S
C3447 H3463 0.960 . S
H3448 C3432 0.931 . S
H3449 C3437 0.929 . S
H3450 C3438 0.960 . S
H3451 C3438 0.962 . S
H3452 C3438 0.960 . S
H3453 C3439 0.961 . S
H3454 C3439 0.961 . S
H3455 C3439 0.961 . S
H3456 C3440 0.931 . S
H3457 C3445 0.930 . S
H3458 C3446 0.956 . S
H3459 C3446 0.961 . S
H3460 C3446 0.961 . S
H3461 C3447 0.958 . S
H3462 C3447 0.961 . S
H3463 C3447 0.960 . S
C3464 C3465 1.391 . S
C3464 C3466 1.394 . S
C3464 H3480 0.931 . S
C3465 C3464 1.391 . S
C3465 C3469 1.376 . S
C3466 C3464 1.394 . S
C3466 C3467 1.369 . S
C3466 C3470 1.531 . S
C3467 C3466 1.369 . S
C3467 C3468 1.410 . S
C3467 C3475 1.503 . S
C3468 C3467 1.410 . S
C3468 C3469 1.392 . S
C3468 C3471 1.511 . S
C3469 C3465 1.376 . S
C3469 C3468 1.392 . S
C3469 H3481 0.929 . S
C3470 C3466 1.531 . S
C3470 H3482 0.960 . S
C3470 H3483 0.962 . S
C3470 H3484 0.960 . S
C3471 C3468 1.511 . S
C3471 H3485 0.961 . S
C3471 H3486 0.961 . S
C3471 H3487 0.961 . S
C3472 C3473 1.370 . S
C3472 C3474 1.363 . S
C3472 H3488 0.931 . S
C3473 C3472 1.370 . S
C3473 C3477 1.408 . S
C3474 C3472 1.363 . S
C3474 C3475 1.370 . S
C3474 C3478 1.524 . S
C3475 C3467 1.503 . S
C3475 C3474 1.370 . S
C3475 C3476 1.403 . S
C3476 C3475 1.403 . S
C3476 C3477 1.404 . S
C3476 C3479 1.539 . S
C3477 C3473 1.408 . S
C3477 C3476 1.404 . S
C3477 H3489 0.930 . S
C3478 C3474 1.524 . S
C3478 H3490 0.956 . S
C3478 H3491 0.961 . S
C3478 H3492 0.961 . S
C3479 C3476 1.539 . S
C3479 H3493 0.958 . S
C3479 H3494 0.961 . S
C3479 H3495 0.960 . S
H3480 C3464 0.931 . S
H3481 C3469 0.929 . S
H3482 C3470 0.960 . S
H3483 C3470 0.962 . S
H3484 C3470 0.960 . S
H3485 C3471 0.961 . S
H3486 C3471 0.961 . S
H3487 C3471 0.961 . S
H3488 C3472 0.931 . S
H3489 C3477 0.930 . S
H3490 C3478 0.956 . S
H3491 C3478 0.961 . S
H3492 C3478 0.961 . S
H3493 C3479 0.958 . S
H3494 C3479 0.961 . S
H3495 C3479 0.960 . S
C3496 C3497 1.391 . S
C3496 C3498 1.394 . S
C3496 H3512 0.931 . S
C3497 C3496 1.391 . S
C3497 C3501 1.376 . S
C3498 C3496 1.394 . S
C3498 C3499 1.369 . S
C3498 C3502 1.531 . S
C3499 C3498 1.369 . S
C3499 C3500 1.410 . S
C3499 C3507 1.503 . S
C3500 C3499 1.410 . S
C3500 C3501 1.392 . S
C3500 C3503 1.511 . S
C3501 C3497 1.376 . S
C3501 C3500 1.392 . S
C3501 H3513 0.929 . S
C3502 C3498 1.531 . S
C3502 H3514 0.960 . S
C3502 H3515 0.962 . S
C3502 H3516 0.960 . S
C3503 C3500 1.511 . S
C3503 H3517 0.961 . S
C3503 H3518 0.961 . S
C3503 H3519 0.961 . S
C3504 C3505 1.370 . S
C3504 C3506 1.363 . S
C3504 H3520 0.931 . S
C3505 C3504 1.370 . S
C3505 C3509 1.408 . S
C3506 C3504 1.363 . S
C3506 C3507 1.370 . S
C3506 C3510 1.524 . S
C3507 C3499 1.503 . S
C3507 C3506 1.370 . S
C3507 C3508 1.403 . S
C3508 C3507 1.403 . S
C3508 C3509 1.404 . S
C3508 C3511 1.539 . S
C3509 C3505 1.408 . S
C3509 C3508 1.404 . S
C3509 H3521 0.930 . S
C3510 C3506 1.524 . S
C3510 H3522 0.956 . S
C3510 H3523 0.961 . S
C3510 H3524 0.961 . S
C3511 C3508 1.539 . S
C3511 H3525 0.958 . S
C3511 H3526 0.961 . S
C3511 H3527 0.960 . S
H3512 C3496 0.931 . S
H3513 C3501 0.929 . S
H3514 C3502 0.960 . S
H3515 C3502 0.962 . S
H3516 C3502 0.960 . S
H3517 C3503 0.961 . S
H3518 C3503 0.961 . S
H3519 C3503 0.961 . S
H3520 C3504 0.931 . S
H3521 C3509 0.930 . S
H3522 C3510 0.956 . S
H3523 C3510 0.961 . S
H3524 C3510 0.961 . S
H3525 C3511 0.958 . S
H3526 C3511 0.961 . S
H3527 C3511 0.960 . S
C3528 C3529 1.391 . S
C3528 C3530 1.394 . S
C3528 H3544 0.931 . S
C3529 C3528 1.391 . S
C3529 C3533 1.376 . S
C3530 C3528 1.394 . S
C3530 C3531 1.369 . S
C3530 C3534 1.531 . S
C3531 C3530 1.369 . S
C3531 C3532 1.410 . S
C3531 C3539 1.503 . S
C3532 C3531 1.410 . S
C3532 C3533 1.392 . S
C3532 C3535 1.511 . S
C3533 C3529 1.376 . S
C3533 C3532 1.392 . S
C3533 H3545 0.929 . S
C3534 C3530 1.531 . S
C3534 H3546 0.960 . S
C3534 H3547 0.962 . S
C3534 H3548 0.960 . S
C3535 C3532 1.511 . S
C3535 H3549 0.961 . S
C3535 H3550 0.961 . S
C3535 H3551 0.961 . S
C3536 C3537 1.370 . S
C3536 C3538 1.363 . S
C3536 H3552 0.931 . S
C3537 C3536 1.370 . S
C3537 C3541 1.408 . S
C3538 C3536 1.363 . S
C3538 C3539 1.370 . S
C3538 C3542 1.524 . S
C3539 C3531 1.503 . S
C3539 C3538 1.370 . S
C3539 C3540 1.403 . S
C3540 C3539 1.403 . S
C3540 C3541 1.404 . S
C3540 C3543 1.539 . S
C3541 C3537 1.408 . S
C3541 C3540 1.404 . S
C3541 H3553 0.930 . S
C3542 C3538 1.524 . S
C3542 H3554 0.956 . S
C3542 H3555 0.961 . S
C3542 H3556 0.961 . S
C3543 C3540 1.539 . S
C3543 H3557 0.958 . S
C3543 H3558 0.961 . S
C3543 H3559 0.960 . S
H3544 C3528 0.931 . S
H3545 C3533 0.929 . S
H3546 C3534 0.960 . S
H3547 C3534 0.962 . S
H3548 C3534 0.960 . S
H3549 C3535 0.961 . S
H3550 C3535 0.961 . S
H3551 C3535 0.961 . S
H3552 C3536 0.931 . S
H3553 C3541 0.930 . S
H3554 C3542 0.956 . S
H3555 C3542 0.961 . S
H3556 C3542 0.961 . S
H3557 C3543 0.958 . S
H3558 C3543 0.961 . S
H3559 C3543 0.960 . S
C3560 C3561 1.391 . S
C3560 C3562 1.395 . S
C3560 H3576 0.931 . S
C3561 C3560 1.391 . S
C3561 C3565 1.376 . S
C3562 C3560 1.395 . S
C3562 C3563 1.369 . S
C3562 C3566 1.529 1_554 S
C3563 C3562 1.369 . S
C3563 C3564 1.410 . S
C3563 C3571 1.507 . S
C3564 C3563 1.410 . S
C3564 C3565 1.392 . S
C3564 C3567 1.511 . S
C3565 C3561 1.376 . S
C3565 C3564 1.392 . S
C3565 H3577 0.929 . S
C3566 C3562 1.529 1_556 S
C3566 H3578 0.960 . S
C3566 H3579 0.962 1_556 S
C3566 H3580 0.960 . S
C3567 C3564 1.511 . S
C3567 H3581 0.961 . S
C3567 H3582 0.961 . S
C3567 H3583 0.961 1_554 S
C3568 C3569 1.370 1_554 S
C3568 C3570 1.363 . S
C3568 H3584 0.931 . S
C3569 C3568 1.370 1_556 S
C3569 C3573 1.408 . S
C3570 C3568 1.363 . S
C3570 C3571 1.408 . S
C3570 C3574 1.524 . S
C3571 C3563 1.507 . S
C3571 C3570 1.408 . S
C3571 C3572 1.362 1_554 S
C3572 C3571 1.362 1_556 S
C3572 C3573 1.404 . S
C3572 C3575 1.539 . S
C3573 C3569 1.408 . S
C3573 C3572 1.404 . S
C3573 H3585 0.930 . S
C3574 C3570 1.524 . S
C3574 H3586 0.956 . S
C3574 H3587 0.961 . S
C3574 H3588 0.961 . S
C3575 C3572 1.539 . S
C3575 H3589 0.958 . S
C3575 H3590 0.961 . S
C3575 H3591 0.960 . S
H3576 C3560 0.931 . S
H3577 C3565 0.929 . S
H3578 C3566 0.960 . S
H3579 C3566 0.962 1_554 S
H3580 C3566 0.960 . S
H3581 C3567 0.961 . S
H3582 C3567 0.961 . S
H3583 C3567 0.961 1_556 S
H3584 C3568 0.931 . S
H3585 C3573 0.930 . S
H3586 C3574 0.956 . S
H3587 C3574 0.961 . S
H3588 C3574 0.961 . S
H3589 C3575 0.958 . S
H3590 C3575 0.961 . S
H3591 C3575 0.960 . S
C3592 C3593 1.391 . S
C3592 C3594 1.394 . S
C3592 H3608 0.931 . S
C3593 C3592 1.391 . S
C3593 C3597 1.376 . S
C3594 C3592 1.394 . S
C3594 C3595 1.369 . S
C3594 C3598 1.531 . S
C3595 C3594 1.369 . S
C3595 C3596 1.410 . S
C3595 C3603 1.503 . S
C3596 C3595 1.410 . S
C3596 C3597 1.392 . S
C3596 C3599 1.511 . S
C3597 C3593 1.376 . S
C3597 C3596 1.392 . S
C3597 H3609 0.929 . S
C3598 C3594 1.531 . S
C3598 H3610 0.960 . S
C3598 H3611 0.962 . S
C3598 H3612 0.960 . S
C3599 C3596 1.511 . S
C3599 H3613 0.961 . S
C3599 H3614 0.961 . S
C3599 H3615 0.961 . S
C3600 C3601 1.370 . S
C3600 C3602 1.363 . S
C3600 H3616 0.931 . S
C3601 C3600 1.370 . S
C3601 C3605 1.408 . S
C3602 C3600 1.363 . S
C3602 C3603 1.370 . S
C3602 C3606 1.524 . S
C3603 C3595 1.503 . S
C3603 C3602 1.370 . S
C3603 C3604 1.403 . S
C3604 C3603 1.403 . S
C3604 C3605 1.404 . S
C3604 C3607 1.539 . S
C3605 C3601 1.408 . S
C3605 C3604 1.404 . S
C3605 H3617 0.930 . S
C3606 C3602 1.524 . S
C3606 H3618 0.956 . S
C3606 H3619 0.961 . S
C3606 H3620 0.961 . S
C3607 C3604 1.539 . S
C3607 H3621 0.958 . S
C3607 H3622 0.961 . S
C3607 H3623 0.960 . S
H3608 C3592 0.931 . S
H3609 C3597 0.929 . S
H3610 C3598 0.960 . S
H3611 C3598 0.962 . S
H3612 C3598 0.960 . S
H3613 C3599 0.961 . S
H3614 C3599 0.961 . S
H3615 C3599 0.961 . S
H3616 C3600 0.931 . S
H3617 C3605 0.930 . S
H3618 C3606 0.956 . S
H3619 C3606 0.961 . S
H3620 C3606 0.961 . S
H3621 C3607 0.958 . S
H3622 C3607 0.961 . S
H3623 C3607 0.960 . S
C3624 C3625 1.383 1_554 S
C3624 C3626 1.394 . S
C3624 H3640 0.931 . S
C3625 C3624 1.383 1_556 S
C3625 C3629 1.381 . S
C3626 C3624 1.394 . S
C3626 C3627 1.369 . S
C3626 C3630 1.531 . S
C3627 C3626 1.369 . S
C3627 C3628 1.410 1_554 S
C3627 C3635 1.503 . S
C3628 C3627 1.410 1_556 S
C3628 C3629 1.392 . S
C3628 C3631 1.511 . S
C3629 C3625 1.381 . S
C3629 C3628 1.392 . S
C3629 H3641 0.929 . S
C3630 C3626 1.531 . S
C3630 H3642 0.960 . S
C3630 H3643 0.962 . S
C3630 H3644 0.960 . S
C3631 C3628 1.511 . S
C3631 H3645 0.961 . S
C3631 H3646 0.961 . S
C3631 H3647 0.961 . S
C3632 C3633 1.370 1_556 S
C3632 C3634 1.363 . S
C3632 H3648 0.931 . S
C3633 C3632 1.370 1_554 S
C3633 C3637 1.408 . S
C3634 C3632 1.363 . S
C3634 C3635 1.370 1_556 S
C3634 C3638 1.524 . S
C3635 C3627 1.503 . S
C3635 C3634 1.370 1_554 S
C3635 C3636 1.403 . S
C3636 C3635 1.403 . S
C3636 C3637 1.404 . S
C3636 C3639 1.539 . S
C3637 C3633 1.408 . S
C3637 C3636 1.404 . S
C3637 H3649 0.930 . S
C3638 C3634 1.524 . S
C3638 H3650 0.956 . S
C3638 H3651 0.961 . S
C3638 H3652 0.961 . S
C3639 C3636 1.539 . S
C3639 H3653 0.958 . S
C3639 H3654 0.961 . S
C3639 H3655 0.960 . S
H3640 C3624 0.931 . S
H3641 C3629 0.929 . S
H3642 C3630 0.960 . S
H3643 C3630 0.962 . S
H3644 C3630 0.960 . S
H3645 C3631 0.961 . S
H3646 C3631 0.961 . S
H3647 C3631 0.961 . S
H3648 C3632 0.931 . S
H3649 C3637 0.930 . S
H3650 C3638 0.956 . S
H3651 C3638 0.961 . S
H3652 C3638 0.961 . S
H3653 C3639 0.958 . S
H3654 C3639 0.961 . S
H3655 C3639 0.960 . S
C3656 C3657 1.391 . S
C3656 C3658 1.394 . S
C3656 H3672 0.931 . S
C3657 C3656 1.391 . S
C3657 C3661 1.376 . S
C3658 C3656 1.394 . S
C3658 C3659 1.369 . S
C3658 C3662 1.531 . S
C3659 C3658 1.369 . S
C3659 C3660 1.410 . S
C3659 C3667 1.503 . S
C3660 C3659 1.410 . S
C3660 C3661 1.392 . S
C3660 C3663 1.511 . S
C3661 C3657 1.376 . S
C3661 C3660 1.392 . S
C3661 H3673 0.929 . S
C3662 C3658 1.531 . S
C3662 H3674 0.960 . S
C3662 H3675 0.962 . S
C3662 H3676 0.960 . S
C3663 C3660 1.511 . S
C3663 H3677 0.961 . S
C3663 H3678 0.961 . S
C3663 H3679 0.961 . S
C3664 C3665 1.370 . S
C3664 C3666 1.363 . S
C3664 H3680 0.931 . S
C3665 C3664 1.370 . S
C3665 C3669 1.408 . S
C3666 C3664 1.363 . S
C3666 C3667 1.370 . S
C3666 C3670 1.524 . S
C3667 C3659 1.503 . S
C3667 C3666 1.370 . S
C3667 C3668 1.403 . S
C3668 C3667 1.403 . S
C3668 C3669 1.404 . S
C3668 C3671 1.539 . S
C3669 C3665 1.408 . S
C3669 C3668 1.404 . S
C3669 H3681 0.930 . S
C3670 C3666 1.524 . S
C3670 H3682 0.956 . S
C3670 H3683 0.961 . S
C3670 H3684 0.961 . S
C3671 C3668 1.539 . S
C3671 H3685 0.958 . S
C3671 H3686 0.961 . S
C3671 H3687 0.960 . S
H3672 C3656 0.931 . S
H3673 C3661 0.929 . S
H3674 C3662 0.960 . S
H3675 C3662 0.962 . S
H3676 C3662 0.960 . S
H3677 C3663 0.961 . S
H3678 C3663 0.961 . S
H3679 C3663 0.961 . S
H3680 C3664 0.931 . S
H3681 C3669 0.930 . S
H3682 C3670 0.956 . S
H3683 C3670 0.961 . S
H3684 C3670 0.961 . S
H3685 C3671 0.958 . S
H3686 C3671 0.961 . S
H3687 C3671 0.960 . S
C3688 C3689 1.391 . S
C3688 C3690 1.394 . S
C3688 H3704 0.931 . S
C3689 C3688 1.391 . S
C3689 C3693 1.376 . S
C3690 C3688 1.394 . S
C3690 C3691 1.369 . S
C3690 C3694 1.531 . S
C3691 C3690 1.369 . S
C3691 C3692 1.410 . S
C3691 C3699 1.503 . S
C3692 C3691 1.410 . S
C3692 C3693 1.392 . S
C3692 C3695 1.511 . S
C3693 C3689 1.376 . S
C3693 C3692 1.392 . S
C3693 H3705 0.929 . S
C3694 C3690 1.531 . S
C3694 H3706 0.960 . S
C3694 H3707 0.962 . S
C3694 H3708 0.960 . S
C3695 C3692 1.511 . S
C3695 H3709 0.961 . S
C3695 H3710 0.961 . S
C3695 H3711 0.961 . S
C3696 C3697 1.370 . S
C3696 C3698 1.363 . S
C3696 H3712 0.931 . S
C3697 C3696 1.370 . S
C3697 C3701 1.408 . S
C3698 C3696 1.363 . S
C3698 C3699 1.370 . S
C3698 C3702 1.524 . S
C3699 C3691 1.503 . S
C3699 C3698 1.370 . S
C3699 C3700 1.403 . S
C3700 C3699 1.403 . S
C3700 C3701 1.404 . S
C3700 C3703 1.539 . S
C3701 C3697 1.408 . S
C3701 C3700 1.404 . S
C3701 H3713 0.930 . S
C3702 C3698 1.524 . S
C3702 H3714 0.956 . S
C3702 H3715 0.961 . S
C3702 H3716 0.961 . S
C3703 C3700 1.539 . S
C3703 H3717 0.958 . S
C3703 H3718 0.961 . S
C3703 H3719 0.960 . S
H3704 C3688 0.931 . S
H3705 C3693 0.929 . S
H3706 C3694 0.960 . S
H3707 C3694 0.962 . S
H3708 C3694 0.960 . S
H3709 C3695 0.961 . S
H3710 C3695 0.961 . S
H3711 C3695 0.961 . S
H3712 C3696 0.931 . S
H3713 C3701 0.930 . S
H3714 C3702 0.956 . S
H3715 C3702 0.961 . S
H3716 C3702 0.961 . S
H3717 C3703 0.958 . S
H3718 C3703 0.961 . S
H3719 C3703 0.960 . S
C657 C328 1.401 . S
C649 C10 1.515 . S
C681 C23 1.383 . S
C689 C348 1.320 . S
C713 C36 1.480 . S
C721 C370 1.375 . S
C753 C389 1.486 . S
C745 C42 1.507 . S
C777 C18 1.488 1_655 S
C785 C410 1.465 . S
C817 C433 1.468 . S
C809 C31 1.561 . S
C849 C456 1.295 . S
C841 C43 1.366 . S
C873 C5 1.476 . S
C881 C474 1.445 . S
C905 C56 1.472 . S
C913 C330 1.429 . S
C937 C70 1.521 . S
C945 C350 1.504 . S
C977 C372 1.325 . S
C969 C82 1.381 . S
C1009 C391 1.452 . S
C1001 C96 1.547 . S
C1033 C57 1.555 . S
C1041 C412 1.436 . S
C1073 C435 1.286 . S
C1065 C69 1.350 . S
C1105 C452 1.494 . S
C1097 C83 1.516 . S
C1137 C476 1.457 . S
C1129 C95 1.477 . S
C1169 C326 1.454 . S
C1161 C94 1.478 1_556 S
C1201 C498 1.301 . S
C1193 C108 1.338 . S
C1225 C122 1.481 . S
C1233 C515 1.459 . S
C1265 C538 1.414 . S
C1257 C140 1.547 . S
C1289 C55 1.517 . S
C1297 C472 1.377 . S
C1329 C368 1.493 . S
C1321 C68 1.514 . S
C1353 C121 1.366 . S
C1361 C561 1.304 . S
C1393 C577 1.382 . S
C1385 C153 1.499 . S
C1417 C161 1.203 . S
C1425 C325 1.118 . S
C1457 C578 1.168 . S
C1449 C174 1.182 . S
C1481 C186 1.273 . S
C1489 C367 1.178 . S
C1513 C200 1.141 . S
C1521 C558 1.126 . S
C1553 C411 1.122 . S
C1545 C172 1.142 . S
C1585 C514 1.177 . S
C1577 C192 1.256 . S
C1617 C455 1.193 . S
C1609 C198 1.228 . S
C1649 C599 1.270 . S
C1641 C159 1.276 . S
C1681 C329 1.267 . S
C1673 C211 1.274 . S
C1705 C225 1.144 . S
C1713 C582 1.098 . S
C1745 C371 1.171 1_545 S
C1737 C239 1.205 . S
C1769 C251 1.211 . S
C1777 C556 1.128 . S
C1801 C218 1.245 . S
C1809 C409 1.151 . S
C1833 C226 1.215 . S
C1841 C518 1.207 . S
C1873 C453 1.096 . S
C1865 C238 1.113 . S
C1897 C252 1.196 . S
C1905 C603 1.163 . S
C1929 C250 1.191 . S
C1937 C327 1.175 . S
C1961 C264 1.218 . S
C1969 C497 1.203 1_554 S
C1993 C276 1.122 . S
C2001 C432 1.123 . S
C2025 C290 1.227 . S
C2033 C535 1.152 . S
C2065 C601 1.114 . S
C2057 C213 1.197 . S
C2097 C369 1.113 . S
C2089 C224 1.124 . S
C2129 C392 1.203 . S
C2121 C283 1.208 . S
C2161 C349 1.224 . S
C2153 C303 1.297 . S
C2185 C29 1.507 . S
C2193 C622 1.398 . S
C2225 C579 1.342 . S
C2217 C49 1.368 . S
C2257 C643 1.405 . S
C2249 C3 1.494 . S
C2281 C16 1.509 . S
C2289 C557 1.488 . S
C2313 C44 1.497 . S
C2321 C494 1.478 . S
C2353 C517 1.460 . S
C2345 C4 1.548 . S
C2385 C540 1.325 . S
C2377 C17 1.348 . S
C2417 C600 1.421 . S
C2409 C30 1.480 . S
C2449 C624 1.419 . S
C2441 C147 1.483 . S
C2473 C107 1.524 . S
C2481 C581 1.507 . S
C2505 C127 1.382 . S
C2513 C645 1.327 . S
C2545 C559 1.428 . S
C2537 C135 1.550 . S
C2577 C496 1.430 . S
C2569 C148 1.555 . S
C2601 C114 1.345 . S
C2609 C519 1.289 . S
C2641 C536 1.486 . S
C2633 C120 1.507 . S
C2665 C134 1.483 . S
C2673 C602 1.465 . S
C2705 C620 1.457 . S
C2697 C133 1.477 . S
C2737 C414 1.295 . S
C2729 C75 1.347 . S
C2769 C431 1.460 . S
C2761 C81 1.483 . S
C2793 C101 1.556 . S
C2801 C454 1.424 . S
C2833 C598 1.388 . S
C2825 C146 1.520 . S
C2857 C109 1.509 . S
C2865 C641 1.490 . S
C2897 C393 1.320 . S
C2889 C88 1.351 . S
C2929 C346 1.397 . S
C2921 C62 1.487 . S
C2953 C187 1.198 . S
C2961 C619 1.111 . S
C2993 C347 1.160 . S
C2985 C199 1.176 . S
C3025 C640 1.204 1_455 S
C3017 C160 1.285 . S
C3049 C173 1.123 . S
C3057 C390 1.091 . S
C3081 C205 1.113 . S
C3089 C495 1.109 . S
C3113 C166 1.247 . S
C3121 C430 1.155 . S
C3145 C179 1.205 . S
C3153 C539 1.201 1_455 S
C3177 C185 1.288 . S
C3185 C473 1.258 . S
C3217 C623 1.268 . S
C3209 C302 1.273 . S
C3241 C270 1.144 . S
C3249 C351 1.116 . S
C3281 C644 1.184 . S
C3273 C278 1.187 . S
C3305 C296 1.236 . S
C3313 C388 1.171 . S
C3337 C309 1.262 . S
C3345 C493 1.183 . S
C3377 C434 1.205 . S
C3369 C263 1.238 . S
C3401 C277 1.141 . S
C3409 C537 1.113 . S
C3441 C477 1.152 . S
C3433 C289 1.200 . S
C3473 C621 1.147 . S
C3465 C291 1.197 . S
C3505 C413 1.183 . S
C3497 C231 1.219 . S
C3529 C237 1.146 . S
C3537 C516 1.095 . S
C3569 C451 1.134 . S
C3561 C257 1.212 . S
C3601 C475 1.118 . S
C3593 C304 1.198 . S
C3625 C265 1.131 . S
C3633 C642 1.128 . S
C3665 C560 1.201 . S
C3657 C244 1.204 . S
C3697 C580 1.211 . S
C3689 C212 1.292 . S
