# Generated by pormake.
# Topology ibd, (4,6)-cn, num edge types: 1
# Building blocks:
#     Node 0, Type 0, BuildingBlock: CEKHIL_clean_sbu_0, # of connection points: 4
#     Node 1, Type 0, BuildingBlock: CEKHIL_clean_sbu_0, # of connection points: 4
#     Node 2, Type 0, BuildingBlock: CEKHIL_clean_sbu_0, # of connection points: 4
#     Node 3, Type 0, BuildingBlock: CEKHIL_clean_sbu_0, # of connection points: 4
#     Node 4, Type 0, BuildingBlock: CEKHIL_clean_sbu_0, # of connection points: 4
#     Node 5, Type 0, BuildingBlock: CEKHIL_clean_sbu_0, # of connection points: 4
#     Node 6, Type 0, BuildingBlock: CEKHIL_clean_sbu_0, # of connection points: 4
#     Node 7, Type 0, BuildingBlock: CEKHIL_clean_sbu_0, # of connection points: 4
#     Node 8, Type 0, BuildingBlock: CEKHIL_clean_sbu_0, # of connection points: 4
#     Node 9, Type 0, BuildingBlock: CEKHIL_clean_sbu_0, # of connection points: 4
#     Node 10, Type 0, BuildingBlock: CEKHIL_clean_sbu_0, # of connection points: 4
#     Node 11, Type 0, BuildingBlock: CEKHIL_clean_sbu_0, # of connection points: 4
#     Node 12, Type 0, BuildingBlock: CEKHIL_clean_sbu_0, # of connection points: 4
#     Node 13, Type 0, BuildingBlock: CEKHIL_clean_sbu_0, # of connection points: 4
#     Node 14, Type 0, BuildingBlock: CEKHIL_clean_sbu_0, # of connection points: 4
#     Node 15, Type 0, BuildingBlock: CEKHIL_clean_sbu_0, # of connection points: 4
#     Node 16, Type 0, BuildingBlock: CEKHIL_clean_sbu_0, # of connection points: 4
#     Node 17, Type 0, BuildingBlock: CEKHIL_clean_sbu_0, # of connection points: 4
#     Node 18, Type 0, BuildingBlock: CEKHIL_clean_sbu_0, # of connection points: 4
#     Node 19, Type 0, BuildingBlock: CEKHIL_clean_sbu_0, # of connection points: 4
#     Node 20, Type 0, BuildingBlock: CEKHIL_clean_sbu_0, # of connection points: 4
#     Node 21, Type 0, BuildingBlock: CEKHIL_clean_sbu_0, # of connection points: 4
#     Node 22, Type 0, BuildingBlock: CEKHIL_clean_sbu_0, # of connection points: 4
#     Node 23, Type 0, BuildingBlock: CEKHIL_clean_sbu_0, # of connection points: 4
#     Node 24, Type 1, BuildingBlock: LEVNOQ01_clean_sbu_1, # of connection points: 6
#     Node 25, Type 1, BuildingBlock: LEVNOQ01_clean_sbu_1, # of connection points: 6
#     Node 26, Type 1, BuildingBlock: LEVNOQ01_clean_sbu_1, # of connection points: 6
#     Node 27, Type 1, BuildingBlock: LEVNOQ01_clean_sbu_1, # of connection points: 6
#     Node 28, Type 1, BuildingBlock: LEVNOQ01_clean_sbu_1, # of connection points: 6
#     Node 29, Type 1, BuildingBlock: LEVNOQ01_clean_sbu_1, # of connection points: 6
#     Node 30, Type 1, BuildingBlock: LEVNOQ01_clean_sbu_1, # of connection points: 6
#     Node 31, Type 1, BuildingBlock: LEVNOQ01_clean_sbu_1, # of connection points: 6
#     Node 32, Type 1, BuildingBlock: LEVNOQ01_clean_sbu_1, # of connection points: 6
#     Node 33, Type 1, BuildingBlock: LEVNOQ01_clean_sbu_1, # of connection points: 6
#     Node 34, Type 1, BuildingBlock: LEVNOQ01_clean_sbu_1, # of connection points: 6
#     Node 35, Type 1, BuildingBlock: LEVNOQ01_clean_sbu_1, # of connection points: 6
#     Node 36, Type 1, BuildingBlock: LEVNOQ01_clean_sbu_1, # of connection points: 6
#     Node 37, Type 1, BuildingBlock: LEVNOQ01_clean_sbu_1, # of connection points: 6
#     Node 38, Type 1, BuildingBlock: LEVNOQ01_clean_sbu_1, # of connection points: 6
#     Node 39, Type 1, BuildingBlock: LEVNOQ01_clean_sbu_1, # of connection points: 6
#     Edge 40, Type (0, 1), BuildingBlock: UVAHIK_clean_linker_0, # of connection points: 2
#     Edge 41, Type (0, 1), BuildingBlock: UVAHIK_clean_linker_0, # of connection points: 2
#     Edge 42, Type (0, 1), BuildingBlock: UVAHIK_clean_linker_0, # of connection points: 2
#     Edge 43, Type (0, 1), BuildingBlock: UVAHIK_clean_linker_0, # of connection points: 2
#     Edge 44, Type (0, 1), BuildingBlock: UVAHIK_clean_linker_0, # of connection points: 2
#     Edge 45, Type (0, 1), BuildingBlock: UVAHIK_clean_linker_0, # of connection points: 2
#     Edge 46, Type (0, 1), BuildingBlock: UVAHIK_clean_linker_0, # of connection points: 2
#     Edge 47, Type (0, 1), BuildingBlock: UVAHIK_clean_linker_0, # of connection points: 2
#     Edge 48, Type (0, 1), BuildingBlock: UVAHIK_clean_linker_0, # of connection points: 2
#     Edge 49, Type (0, 1), BuildingBlock: UVAHIK_clean_linker_0, # of connection points: 2
#     Edge 50, Type (0, 1), BuildingBlock: UVAHIK_clean_linker_0, # of connection points: 2
#     Edge 51, Type (0, 1), BuildingBlock: UVAHIK_clean_linker_0, # of connection points: 2
#     Edge 52, Type (0, 1), BuildingBlock: UVAHIK_clean_linker_0, # of connection points: 2
#     Edge 53, Type (0, 1), BuildingBlock: UVAHIK_clean_linker_0, # of connection points: 2
#     Edge 54, Type (0, 1), BuildingBlock: UVAHIK_clean_linker_0, # of connection points: 2
#     Edge 55, Type (0, 1), BuildingBlock: UVAHIK_clean_linker_0, # of connection points: 2
#     Edge 56, Type (0, 1), BuildingBlock: UVAHIK_clean_linker_0, # of connection points: 2
#     Edge 57, Type (0, 1), BuildingBlock: UVAHIK_clean_linker_0, # of connection points: 2
#     Edge 58, Type (0, 1), BuildingBlock: UVAHIK_clean_linker_0, # of connection points: 2
#     Edge 59, Type (0, 1), BuildingBlock: UVAHIK_clean_linker_0, # of connection points: 2
#     Edge 60, Type (0, 1), BuildingBlock: UVAHIK_clean_linker_0, # of connection points: 2
#     Edge 61, Type (0, 1), BuildingBlock: UVAHIK_clean_linker_0, # of connection points: 2
#     Edge 62, Type (0, 1), BuildingBlock: UVAHIK_clean_linker_0, # of connection points: 2
#     Edge 63, Type (0, 1), BuildingBlock: UVAHIK_clean_linker_0, # of connection points: 2
#     Edge 64, Type (0, 1), BuildingBlock: UVAHIK_clean_linker_0, # of connection points: 2
#     Edge 65, Type (0, 1), BuildingBlock: UVAHIK_clean_linker_0, # of connection points: 2
#     Edge 66, Type (0, 1), BuildingBlock: UVAHIK_clean_linker_0, # of connection points: 2
#     Edge 67, Type (0, 1), BuildingBlock: UVAHIK_clean_linker_0, # of connection points: 2
#     Edge 68, Type (0, 1), BuildingBlock: UVAHIK_clean_linker_0, # of connection points: 2
#     Edge 69, Type (0, 1), BuildingBlock: UVAHIK_clean_linker_0, # of connection points: 2
#     Edge 70, Type (0, 1), BuildingBlock: UVAHIK_clean_linker_0, # of connection points: 2
#     Edge 71, Type (0, 1), BuildingBlock: UVAHIK_clean_linker_0, # of connection points: 2
#     Edge 72, Type (0, 1), BuildingBlock: UVAHIK_clean_linker_0, # of connection points: 2
#     Edge 73, Type (0, 1), BuildingBlock: UVAHIK_clean_linker_0, # of connection points: 2
#     Edge 74, Type (0, 1), BuildingBlock: UVAHIK_clean_linker_0, # of connection points: 2
#     Edge 75, Type (0, 1), BuildingBlock: UVAHIK_clean_linker_0, # of connection points: 2
#     Edge 76, Type (0, 1), BuildingBlock: UVAHIK_clean_linker_0, # of connection points: 2
#     Edge 77, Type (0, 1), BuildingBlock: UVAHIK_clean_linker_0, # of connection points: 2
#     Edge 78, Type (0, 1), BuildingBlock: UVAHIK_clean_linker_0, # of connection points: 2
#     Edge 79, Type (0, 1), BuildingBlock: UVAHIK_clean_linker_0, # of connection points: 2
#     Edge 80, Type (0, 1), BuildingBlock: UVAHIK_clean_linker_0, # of connection points: 2
#     Edge 81, Type (0, 1), BuildingBlock: UVAHIK_clean_linker_0, # of connection points: 2
#     Edge 82, Type (0, 1), BuildingBlock: UVAHIK_clean_linker_0, # of connection points: 2
#     Edge 83, Type (0, 1), BuildingBlock: UVAHIK_clean_linker_0, # of connection points: 2
#     Edge 84, Type (0, 1), BuildingBlock: UVAHIK_clean_linker_0, # of connection points: 2
#     Edge 85, Type (0, 1), BuildingBlock: UVAHIK_clean_linker_0, # of connection points: 2
#     Edge 86, Type (0, 1), BuildingBlock: UVAHIK_clean_linker_0, # of connection points: 2
#     Edge 87, Type (0, 1), BuildingBlock: UVAHIK_clean_linker_0, # of connection points: 2
#     Edge 88, Type (0, 1), BuildingBlock: UVAHIK_clean_linker_0, # of connection points: 2
#     Edge 89, Type (0, 1), BuildingBlock: UVAHIK_clean_linker_0, # of connection points: 2
#     Edge 90, Type (0, 1), BuildingBlock: UVAHIK_clean_linker_0, # of connection points: 2
#     Edge 91, Type (0, 1), BuildingBlock: UVAHIK_clean_linker_0, # of connection points: 2
#     Edge 92, Type (0, 1), BuildingBlock: UVAHIK_clean_linker_0, # of connection points: 2
#     Edge 93, Type (0, 1), BuildingBlock: UVAHIK_clean_linker_0, # of connection points: 2
#     Edge 94, Type (0, 1), BuildingBlock: UVAHIK_clean_linker_0, # of connection points: 2
#     Edge 95, Type (0, 1), BuildingBlock: UVAHIK_clean_linker_0, # of connection points: 2
#     Edge 96, Type (0, 1), BuildingBlock: UVAHIK_clean_linker_0, # of connection points: 2
#     Edge 97, Type (0, 1), BuildingBlock: UVAHIK_clean_linker_0, # of connection points: 2
#     Edge 98, Type (0, 1), BuildingBlock: UVAHIK_clean_linker_0, # of connection points: 2
#     Edge 99, Type (0, 1), BuildingBlock: UVAHIK_clean_linker_0, # of connection points: 2
#     Edge 100, Type (0, 1), BuildingBlock: UVAHIK_clean_linker_0, # of connection points: 2
#     Edge 101, Type (0, 1), BuildingBlock: UVAHIK_clean_linker_0, # of connection points: 2
#     Edge 102, Type (0, 1), BuildingBlock: UVAHIK_clean_linker_0, # of connection points: 2
#     Edge 103, Type (0, 1), BuildingBlock: UVAHIK_clean_linker_0, # of connection points: 2
#     Edge 104, Type (0, 1), BuildingBlock: UVAHIK_clean_linker_0, # of connection points: 2
#     Edge 105, Type (0, 1), BuildingBlock: UVAHIK_clean_linker_0, # of connection points: 2
#     Edge 106, Type (0, 1), BuildingBlock: UVAHIK_clean_linker_0, # of connection points: 2
#     Edge 107, Type (0, 1), BuildingBlock: UVAHIK_clean_linker_0, # of connection points: 2
#     Edge 108, Type (0, 1), BuildingBlock: UVAHIK_clean_linker_0, # of connection points: 2
#     Edge 109, Type (0, 1), BuildingBlock: UVAHIK_clean_linker_0, # of connection points: 2
#     Edge 110, Type (0, 1), BuildingBlock: UVAHIK_clean_linker_0, # of connection points: 2
#     Edge 111, Type (0, 1), BuildingBlock: UVAHIK_clean_linker_0, # of connection points: 2
#     Edge 112, Type (0, 1), BuildingBlock: UVAHIK_clean_linker_0, # of connection points: 2
#     Edge 113, Type (0, 1), BuildingBlock: UVAHIK_clean_linker_0, # of connection points: 2
#     Edge 114, Type (0, 1), BuildingBlock: UVAHIK_clean_linker_0, # of connection points: 2
#     Edge 115, Type (0, 1), BuildingBlock: UVAHIK_clean_linker_0, # of connection points: 2
#     Edge 116, Type (0, 1), BuildingBlock: UVAHIK_clean_linker_0, # of connection points: 2
#     Edge 117, Type (0, 1), BuildingBlock: UVAHIK_clean_linker_0, # of connection points: 2
#     Edge 118, Type (0, 1), BuildingBlock: UVAHIK_clean_linker_0, # of connection points: 2
#     Edge 119, Type (0, 1), BuildingBlock: UVAHIK_clean_linker_0, # of connection points: 2
#     Edge 120, Type (0, 1), BuildingBlock: UVAHIK_clean_linker_0, # of connection points: 2
#     Edge 121, Type (0, 1), BuildingBlock: UVAHIK_clean_linker_0, # of connection points: 2
#     Edge 122, Type (0, 1), BuildingBlock: UVAHIK_clean_linker_0, # of connection points: 2
#     Edge 123, Type (0, 1), BuildingBlock: UVAHIK_clean_linker_0, # of connection points: 2
#     Edge 124, Type (0, 1), BuildingBlock: UVAHIK_clean_linker_0, # of connection points: 2
#     Edge 125, Type (0, 1), BuildingBlock: UVAHIK_clean_linker_0, # of connection points: 2
#     Edge 126, Type (0, 1), BuildingBlock: UVAHIK_clean_linker_0, # of connection points: 2
#     Edge 127, Type (0, 1), BuildingBlock: UVAHIK_clean_linker_0, # of connection points: 2
#     Edge 128, Type (0, 1), BuildingBlock: UVAHIK_clean_linker_0, # of connection points: 2
#     Edge 129, Type (0, 1), BuildingBlock: UVAHIK_clean_linker_0, # of connection points: 2
#     Edge 130, Type (0, 1), BuildingBlock: UVAHIK_clean_linker_0, # of connection points: 2
#     Edge 131, Type (0, 1), BuildingBlock: UVAHIK_clean_linker_0, # of connection points: 2
#     Edge 132, Type (0, 1), BuildingBlock: UVAHIK_clean_linker_0, # of connection points: 2
#     Edge 133, Type (0, 1), BuildingBlock: UVAHIK_clean_linker_0, # of connection points: 2
#     Edge 134, Type (0, 1), BuildingBlock: UVAHIK_clean_linker_0, # of connection points: 2
#     Edge 135, Type (0, 1), BuildingBlock: UVAHIK_clean_linker_0, # of connection points: 2
# Relax obj value: 0.356
# Max RMSD: 0.308
# Mean RMSD: 0.280
data_MOF--net-ibd--node1-CEKHIL_clean_sbu_0--node2-LEVNOQ01_clean_sbu_1--edge1-UVAHIK_clean_linker_0
_symmetry_space_group_name_H-M    P1
_symmetry_Int_Tables_number       1
_symmetry_cell_setting            triclinic
loop_
_symmetry_equiv_pos_as_xyz
'x, y, z'
_cell_length_a     59.854129
_cell_length_b     60.732021
_cell_length_c     62.078304
_cell_angle_alpha  91.493118
_cell_angle_beta   89.181533
_cell_angle_gamma 94.364112
loop_
_atom_site_label
_atom_site_type_symbol
_atom_site_fract_x
_atom_site_fract_y
_atom_site_fract_z
_atom_type_partial_charge
Co0 Co 0.06928 0.33703 0.36351 0.0
O1 O 0.08066 0.34906 0.33671 0.0
O2 O 0.04797 0.35556 0.35184 0.0
C3 C 0.10026 0.34299 0.3836 0.0
O4 O 0.05229 0.32846 0.39123 0.0
Co5 Co 0.08838 0.2952 0.38153 0.0
O6 O 0.0722 0.30415 0.40801 0.0
C7 C 0.06085 0.29131 0.34278 0.0
C8 C 0.06186 0.35837 0.33568 0.0
C9 C 0.05675 0.31747 0.40792 0.0
O10 O 0.05486 0.3109 0.34678 0.0
O11 O 0.07557 0.28257 0.35384 0.0
O12 O 0.08757 0.35901 0.38027 0.0
O13 O 0.09559 0.32519 0.37214 0.0
Co14 Co 0.0113 0.78301 0.65749 0.0
O15 O 0.99766 0.8008 0.67918 0.0
O16 O 0.03378 0.80374 0.67016 0.0
C17 C 0.98597 0.78431 0.63147 0.0
O18 O 0.03073 0.76836 0.63488 0.0
Co19 Co 0.98806 0.73756 0.64479 0.0
O20 O 0.00919 0.74027 0.61987 0.0
C21 C 0.00951 0.74264 0.68648 0.0
C22 C 0.01759 0.81017 0.68245 0.0
C23 C 0.02664 0.7537 0.61975 0.0
O24 O 0.018 0.76142 0.68009 0.0
O25 O 0.99537 0.7305 0.67531 0.0
O26 O 0.00075 0.80083 0.63488 0.0
O27 O 0.98475 0.76937 0.64612 0.0
Co28 Co 0.56791 0.82694 0.86513 0.0
O29 O 0.58027 0.83722 0.83784 0.0
O30 O 0.55083 0.84982 0.85483 0.0
C31 C 0.59953 0.82602 0.88421 0.0
O32 O 0.55067 0.82183 0.8934 0.0
Co33 Co 0.57724 0.78119 0.88247 0.0
O34 O 0.56484 0.79338 0.90959 0.0
C35 C 0.54869 0.78346 0.84491 0.0
C36 C 0.56394 0.85022 0.83797 0.0
C37 C 0.55315 0.81005 0.91001 0.0
O38 O 0.54794 0.80429 0.84872 0.0
O39 O 0.56067 0.77126 0.85573 0.0
O40 O 0.59075 0.84466 0.88126 0.0
O41 O 0.59093 0.80943 0.8728 0.0
Co42 Co 0.51381 0.28355 0.16107 0.0
O43 O 0.49279 0.29054 0.18328 0.0
O44 O 0.52587 0.3088 0.17797 0.0
C45 C 0.49067 0.27876 0.13316 0.0
O46 O 0.53909 0.28138 0.13888 0.0
Co47 Co 0.51059 0.23616 0.14131 0.0
O48 O 0.53139 0.24989 0.11949 0.0
C49 C 0.52524 0.24296 0.1855 0.0
C50 C 0.50763 0.306 0.18958 0.0
C51 C 0.54222 0.26862 0.12233 0.0
O52 O 0.52755 0.26369 0.18176 0.0
O53 O 0.51721 0.22855 0.17177 0.0
O54 O 0.49774 0.29857 0.1397 0.0
O55 O 0.4948 0.26297 0.14588 0.0
Co56 Co 0.98986 0.79783 0.12983 0.0
O57 O 0.97089 0.81199 0.11076 0.0
O58 O 0.97098 0.77572 0.11427 0.0
C59 C 0.98609 0.81916 0.15942 0.0
O60 O 0.00633 0.77778 0.14903 0.0
Co61 Co 0.03382 0.8234 0.14456 0.0
O62 O 0.03353 0.79931 0.16559 0.0
C63 C 0.0315 0.80608 0.10056 0.0
C64 C 0.96336 0.79228 0.10452 0.0
C65 C 0.02141 0.78118 0.16364 0.0
O66 O 0.01276 0.79589 0.10594 0.0
O67 O 0.04249 0.8196 0.11334 0.0
O68 O 0.97055 0.80381 0.15435 0.0
O69 O 0.00118 0.82343 0.1446 0.0
Co70 Co 0.53977 0.78065 0.39837 0.0
O71 O 0.53048 0.76233 0.42236 0.0
O72 O 0.51876 0.79535 0.4162 0.0
C73 C 0.53689 0.75567 0.3712 0.0
O74 O 0.54457 0.80379 0.3751 0.0
Co75 Co 0.58458 0.77358 0.37459 0.0
O76 O 0.57576 0.79729 0.3559 0.0
C77 C 0.5843 0.78707 0.4198 0.0
C78 C 0.51855 0.77842 0.4286 0.0
C79 C 0.55837 0.8078 0.35932 0.0
O80 O 0.56505 0.79428 0.41655 0.0
O81 O 0.59462 0.77633 0.40529 0.0
O82 O 0.51909 0.76405 0.37919 0.0
O83 O 0.55502 0.75989 0.38222 0.0
Co84 Co 0.53491 0.31169 0.61862 0.0
O85 O 0.5276 0.33022 0.59566 0.0
O86 O 0.51307 0.2959 0.60016 0.0
C87 C 0.53297 0.33568 0.64642 0.0
O88 O 0.53784 0.2882 0.64108 0.0
Co89 Co 0.57954 0.32199 0.64254 0.0
O90 O 0.56535 0.3009 0.66351 0.0
C91 C 0.5809 0.30413 0.5986 0.0
C92 C 0.51453 0.31358 0.58867 0.0
C93 C 0.54861 0.28744 0.65887 0.0
O94 O 0.55954 0.30041 0.60002 0.0
O95 O 0.59256 0.31411 0.61352 0.0
O96 O 0.51479 0.3258 0.63842 0.0
O97 O 0.55111 0.3335 0.63512 0.0
Co98 Co 0.03518 0.27809 0.89864 0.0
O99 O 0.02148 0.27182 0.92642 0.0
O100 O 0.0308 0.30524 0.914 0.0
C101 C 0.0138 0.25508 0.87736 0.0
O102 O 0.04789 0.29134 0.87072 0.0
Co103 Co 0.06065 0.24305 0.87345 0.0
O104 O 0.05855 0.26348 0.84937 0.0
C105 C 0.08075 0.26393 0.91205 0.0
C106 C 0.02252 0.29314 0.92957 0.0
C107 C 0.05371 0.28342 0.85219 0.0
O108 O 0.06561 0.2778 0.91196 0.0
O109 O 0.08107 0.24753 0.89874 0.0
O110 O 0.00647 0.2735 0.88466 0.0
O111 O 0.03186 0.24944 0.8864 0.0
Co112 Co 0.3853 0.02967 0.25053 0.0
O113 O 0.405 0.03041 0.22595 0.0
O114 O 0.40087 0.00294 0.24887 0.0
C115 C 0.35519 0.04102 0.23443 0.0
O116 O 0.36543 0.02282 0.27683 0.0
Co117 Co 0.36902 0.07327 0.26953 0.0
O118 O 0.34718 0.05303 0.2851 0.0
C119 C 0.41594 0.06438 0.27405 0.0
C120 C 0.41084 0.01135 0.23187 0.0
C121 C 0.34979 0.03253 0.28691 0.0
O122 O 0.41043 0.04428 0.26821 0.0
O123 O 0.40209 0.07942 0.27444 0.0
O124 O 0.35984 0.02049 0.23253 0.0
O125 O 0.37026 0.05437 0.24368 0.0
Co126 Co 0.25139 0.14111 0.54709 0.0
O127 O 0.25075 0.11727 0.56707 0.0
O128 O 0.28006 0.12891 0.54702 0.0
C129 C 0.2354 0.16645 0.56773 0.0
O130 O 0.25863 0.16566 0.52575 0.0
Co131 Co 0.20689 0.15539 0.52936 0.0
O132 O 0.22641 0.18064 0.51843 0.0
C133 C 0.22265 0.11315 0.51476 0.0
C134 C 0.27138 0.11513 0.56108 0.0
C135 C 0.24772 0.18081 0.51751 0.0
O136 O 0.24141 0.11921 0.52367 0.0
O137 O 0.20556 0.12456 0.51645 0.0
O138 O 0.25634 0.16285 0.57012 0.0
O139 O 0.22399 0.1522 0.55545 0.0
Co140 Co 0.16074 0.06126 0.73334 0.0
O141 O 0.18322 0.06882 0.71179 0.0
O142 O 0.17073 0.03469 0.71983 0.0
C143 C 0.13583 0.0852 0.72496 0.0
O144 O 0.13693 0.04747 0.75389 0.0
Co145 Co 0.15143 0.0958 0.76927 0.0
O146 O 0.12452 0.07541 0.77411 0.0
C147 C 0.19222 0.07243 0.7713 0.0
C148 C 0.18449 0.04773 0.70869 0.0
C149 C 0.12271 0.05539 0.76725 0.0
O150 O 0.18511 0.06026 0.75524 0.0
O151 O 0.18188 0.08867 0.77884 0.0
O152 O 0.13671 0.06673 0.71403 0.0
O153 O 0.152 0.09001 0.73831 0.0
Co154 Co 0.30117 0.92444 0.02349 0.0
O155 O 0.32018 0.90543 0.03757 0.0
O156 O 0.32311 0.91439 0.00312 0.0
C157 C 0.30084 0.9513 0.04894 0.0
O158 O 0.28561 0.94472 0.00394 0.0
Co159 Co 0.2543 0.93245 0.04192 0.0
O160 O 0.25869 0.95922 0.02405 0.0
C161 C 0.26118 0.88971 0.02124 0.0
C162 C 0.33013 0.9033 0.01899 0.0
C163 C 0.27221 0.95997 0.00798 0.0
O164 O 0.28053 0.89799 0.01505 0.0
O165 O 0.24813 0.90034 0.03347 0.0
O166 O 0.31777 0.95044 0.03564 0.0
O167 O 0.28633 0.9343 0.04826 0.0
Co168 Co 0.3231 0.4368 0.01082 0.0
O169 O 0.34358 0.41494 0.01735 0.0
O170 O 0.32905 0.41939 0.98526 0.0
C171 C 0.34087 0.46634 0.02732 0.0
O172 O 0.30237 0.45805 -0.00223 0.0
Co173 Co 0.29611 0.45906 0.04721 0.0
O174 O 0.29284 0.48116 0.02473 0.0
C175 C 0.28231 0.41355 0.0334 0.0
C176 C 0.34174 0.40847 0.99729 0.0
C177 C 0.29456 0.47613 0.00476 0.0
O178 O 0.2972 0.41509 0.0183 0.0
O179 O 0.27964 0.42896 0.04745 0.0
O180 O 0.34756 0.45956 0.00844 0.0
O181 O 0.32595 0.45322 0.03678 0.0
Co182 Co 0.77901 0.16536 0.00229 0.0
O183 O 0.80006 0.14744 0.98818 0.0
O184 O 0.76432 0.14794 0.97929 0.0
C185 C 0.80084 0.1969 0.00423 0.0
O186 O 0.75299 0.18297 0.01251 0.0
Co187 Co 0.78831 0.1834 0.04854 0.0
O188 O 0.7654 0.20385 0.04093 0.0
C189 C 0.77587 0.13634 0.04192 0.0
C190 C 0.7836 0.13972 0.97612 0.0
C191 C 0.75148 0.19953 0.02575 0.0
O192 O 0.77066 0.14064 0.02255 0.0
O193 O 0.78487 0.15101 0.05493 0.0
O194 O 0.79048 0.19111 0.98644 0.0
O195 O 0.79991 0.18221 0.01903 0.0
Co196 Co 0.1738 0.55965 0.25811 0.0
O197 O 0.19616 0.5402 0.26528 0.0
O198 O 0.18957 0.57104 0.2835 0.0
C199 C 0.1452 0.53421 0.2524 0.0
O200 O 0.1515 0.58316 0.25586 0.0
Co201 Co 0.15445 0.558 0.21206 0.0
O202 O 0.13073 0.57457 0.22648 0.0
C203 C 0.20108 0.57468 0.21895 0.0
C204 C 0.20133 0.55397 0.2811 0.0
C205 C 0.13401 0.58503 0.24438 0.0
O206 O 0.19653 0.57619 0.2392 0.0
O207 O 0.18701 0.56607 0.20522 0.0
O208 O 0.15032 0.54082 0.27193 0.0
O209 O 0.15925 0.54098 0.23751 0.0
Co210 Co 0.83919 0.92002 0.52363 0.0
O211 O 0.85609 0.89505 0.52942 0.0
O212 O 0.84098 0.90175 0.49807 0.0
C213 C 0.86096 0.94744 0.53911 0.0
O214 O 0.82158 0.94407 0.51129 0.0
Co215 Co 0.81724 0.94557 0.56119 0.0
O216 O 0.81258 0.9671 0.53846 0.0
C217 C 0.79755 0.90179 0.54842 0.0
C218 C 0.85179 0.88865 0.50966 0.0
C219 C 0.81409 0.96224 0.51842 0.0
O220 O 0.81086 0.90221 0.53202 0.0
O221 O 0.79849 0.91685 0.56324 0.0
O222 O 0.86632 0.93944 0.52023 0.0
O223 O 0.84524 0.93601 0.54929 0.0
Co224 Co 0.90065 0.01166 0.24982 0.0
O225 O 0.92438 0.99407 0.23973 0.0
O226 O 0.91413 -0.00142 0.27393 0.0
C227 C 0.87395 -0.00017 0.22625 0.0
O228 O 0.87643 0.02757 0.26622 0.0
Co229 Co 0.88328 0.04747 0.22095 0.0
O230 O 0.85746 0.04472 0.24136 0.0
C231 C 0.92762 0.05514 0.24061 0.0
C232 C 0.92745 0.98996 0.25987 0.0
C233 C 0.85915 0.03713 0.26016 0.0
O234 O 0.92307 0.03813 0.25224 0.0
O235 O 0.91454 0.06086 0.22595 0.0
O236 O 0.87796 0.98805 0.24276 0.0
O237 O 0.88839 0.01637 0.22286 0.0
Co238 Co 0.27913 0.66709 0.50293 0.0
O239 O 0.29318 0.64649 0.48411 0.0
O240 O 0.2566 0.65004 0.48634 0.0
C241 C 0.3029 0.69666 0.49682 0.0
O242 O 0.25861 0.68706 0.51933 0.0
Co243 Co 0.30271 0.68833 0.54315 0.0
O244 O 0.2805 0.71077 0.53957 0.0
C245 C 0.28631 0.64156 0.54366 0.0
C246 C 0.27307 0.63979 0.47798 0.0
C247 C 0.2621 0.70539 0.53006 0.0
O248 O 0.2763 0.64423 0.52584 0.0
O249 O 0.29888 0.65687 0.55293 0.0
O250 O 0.28687 0.69113 0.48332 0.0
O251 O 0.30532 0.68297 0.51209 0.0
Co252 Co 0.40087 0.51482 0.76961 0.0
O253 O 0.42221 0.49874 0.7532 0.0
O254 O 0.41515 0.4953 0.78815 0.0
C255 C 0.37172 0.51109 0.74725 0.0
O256 O 0.37948 0.52767 0.79167 0.0
Co257 Co 0.38536 0.55856 0.75216 0.0
O258 O 0.36429 0.5566 0.77702 0.0
C259 C 0.43153 0.55667 0.76627 0.0
C260 C 0.42688 0.48991 0.77129 0.0
C261 C 0.36554 0.54283 0.79202 0.0
O262 O 0.42549 0.53857 0.77572 0.0
O263 O 0.41838 0.56646 0.7543 0.0
O264 O 0.37582 0.49505 0.75977 0.0
O265 O 0.38718 0.52712 0.74629 0.0
Co266 Co 0.67758 0.04276 0.76923 0.0
O267 O 0.69983 0.02337 0.77667 0.0
O268 O 0.69486 0.05549 0.79332 0.0
C269 C 0.64841 0.01754 0.76641 0.0
O270 O 0.65531 0.06637 0.76612 0.0
Co271 Co 0.65681 0.03737 0.72382 0.0
O272 O 0.63478 0.05688 0.73675 0.0
C273 C 0.70357 0.05441 0.72809 0.0
C274 C 0.70604 0.03796 0.79142 0.0
C275 C 0.63822 0.06835 0.75406 0.0
O276 O 0.69978 0.05747 0.74836 0.0
O277 O 0.68902 0.04473 0.71545 0.0
O278 O 0.65445 0.02558 0.78523 0.0
O279 O 0.66193 0.02273 0.75058 0.0
Co280 Co 0.76099 0.65086 0.04781 0.0
O281 O 0.74406 0.62783 0.06319 0.0
O282 O 0.78115 0.63319 0.06232 0.0
C283 C 0.74172 0.67971 0.05773 0.0
O284 O 0.78408 0.67321 0.03465 0.0
Co285 Co 0.73863 0.67408 0.01059 0.0
O286 O 0.76559 0.69498 0.01324 0.0
C287 C 0.75032 0.62835 0.00434 0.0
C288 C 0.76333 0.62154 0.06889 0.0
C289 C 0.78309 0.69043 0.02314 0.0
O290 O 0.76171 0.63044 0.02175 0.0
O291 O 0.73823 0.64333 -0.00211 0.0
O292 O 0.75617 0.67239 0.0707 0.0
O293 O 0.73687 0.66721 0.04098 0.0
Co294 Co 0.88616 0.52708 0.72477 0.0
O295 O 0.90804 0.51662 0.70491 0.0
O296 O 0.90009 0.50269 0.73708 0.0
C297 C 0.85843 0.53027 0.70138 0.0
O298 O 0.86365 0.53266 0.74888 0.0
Co299 Co 0.87021 0.57405 0.72126 0.0
O300 O 0.84473 0.56122 0.73896 0.0
C301 C 0.91472 0.56903 0.73855 0.0
C302 C 0.91206 0.50248 0.71943 0.0
C303 C 0.84657 0.54433 0.75039 0.0
O304 O 0.90994 0.54804 0.73831 0.0
O305 O 0.90157 0.58262 0.73121 0.0
O306 O 0.86189 0.51106 0.70897 0.0
O307 O 0.87354 0.54604 0.70593 0.0
Co308 Co 0.78601 0.41977 0.5231 0.0
O309 O 0.80547 0.40193 0.53806 0.0
O310 O 0.80634 0.40696 0.50272 0.0
C311 C 0.78835 0.44905 0.54583 0.0
O312 O 0.76972 0.43826 0.50238 0.0
Co313 Co 0.74089 0.43156 0.54315 0.0
O314 O 0.7448 0.45595 0.52228 0.0
C315 C 0.7454 0.38633 0.52747 0.0
C316 C 0.81433 0.39772 0.51933 0.0
C317 C 0.75717 0.45439 0.5055 0.0
O318 O 0.76414 0.39326 0.51873 0.0
O319 O 0.73374 0.39876 0.53935 0.0
O320 O 0.80412 0.44637 0.53158 0.0
O321 O 0.77326 0.43268 0.54754 0.0
Co322 Co 0.6431 0.56618 0.26322 0.0
O323 O 0.66641 0.56933 0.24162 0.0
O324 O 0.65034 0.53744 0.25271 0.0
C325 C 0.62132 0.59167 0.25193 0.0
O326 O 0.61793 0.5566 0.28415 0.0
Co327 Co 0.63634 0.60441 0.29592 0.0
O328 O 0.60753 0.58705 0.30177 0.0
C329 C 0.67566 0.57904 0.29957 0.0
C330 C 0.66553 0.54789 0.24079 0.0
C331 C 0.60414 0.56671 0.29626 0.0
O332 O 0.66669 0.56505 0.28581 0.0
O333 O 0.66704 0.59711 0.30481 0.0
O334 O 0.62029 0.57212 0.24277 0.0
O335 O 0.63743 0.59608 0.26542 0.0
O336 O 0.15713 0.12227 0.10011 0.0
Mg337 Mg 0.12477 0.13374 0.10709 0.0
O338 O 0.17935 0.14685 0.11891 0.0
Mg339 Mg 0.15798 0.1737 0.13429 0.0
O340 O 0.13245 0.16628 0.10963 0.0
O341 O 0.10989 0.15408 0.08415 0.0
O342 O 0.13586 0.19935 0.15065 0.0
O343 O 0.17479 0.20035 0.11157 0.0
Mg344 Mg 0.18916 0.21409 0.16205 0.0
O345 O 0.18471 0.1811 0.15815 0.0
O346 O 0.15665 0.22216 0.17249 0.0
O347 O 0.19742 0.22461 0.13028 0.0
O348 O 0.2114 0.19511 0.17908 0.0
C349 C 0.12291 0.13372 0.15679 0.0
C350 C 0.17645 0.12952 0.10676 0.0
C351 C 0.12189 0.17038 0.09267 0.0
C352 C 0.13774 0.21502 0.16484 0.0
C353 C 0.18894 0.21723 0.1126 0.0
C354 C 0.20131 0.17787 0.1701 0.0
O355 O 0.11384 0.12705 0.13911 0.0
O356 O 0.13934 0.14853 0.15758 0.0
O357 O 0.11868 0.8344 0.3455 0.0
Mg358 Mg 0.15075 0.84474 0.35753 0.0
O359 O 0.10103 0.85794 0.36626 0.0
Mg360 Mg 0.1248 0.87538 0.3922 0.0
O361 O 0.14853 0.84788 0.39026 0.0
O362 O 0.16936 0.82356 0.37445 0.0
O363 O 0.14827 0.89453 0.4174 0.0
O364 O 0.10588 0.8537 0.41816 0.0
Mg365 Mg 0.09561 0.90319 0.42686 0.0
O366 O 0.09986 0.9018 0.39418 0.0
O367 O 0.12721 0.91399 0.43954 0.0
O368 O 0.08162 0.87214 0.43738 0.0
O369 O 0.07729 0.92469 0.40974 0.0
C370 C 0.16059 0.89412 0.35243 0.0
C371 C 0.10091 0.84332 0.35106 0.0
C372 C 0.16171 0.83216 0.39202 0.0
C373 C 0.14623 0.90826 0.43318 0.0
C374 C 0.09043 0.85428 0.43252 0.0
C375 C 0.08581 0.91674 0.39228 0.0
O376 O 0.16563 0.87494 0.34649 0.0
O377 O 0.14581 0.89694 0.36716 0.0
O378 O 0.46912 0.95492 0.63498 0.0
Mg379 Mg 0.4586 0.94145 0.6045 0.0
O380 O 0.44385 0.936 0.65534 0.0
Mg381 Mg 0.4186 0.91513 0.63365 0.0
O382 O 0.42452 0.93911 0.60667 0.0
O383 O 0.4421 0.96039 0.58278 0.0
O384 O 0.39422 0.89354 0.61147 0.0
O385 O 0.38955 0.93608 0.64638 0.0
Mg386 Mg 0.38058 0.88274 0.66132 0.0
O387 O 0.41342 0.89241 0.66118 0.0
O388 O 0.3749 0.86768 0.63046 0.0
O389 O 0.36569 0.91331 0.66478 0.0
O390 O 0.39981 0.87062 0.68639 0.0
C391 C 0.4611 0.89202 0.60596 0.0
C392 C 0.46089 0.94985 0.65337 0.0
C393 C 0.42348 0.95352 0.59192 0.0
C394 C 0.38068 0.87626 0.61254 0.0
C395 C 0.37141 0.93231 0.65737 0.0
C396 C 0.41682 0.88209 0.67847 0.0
O397 O 0.46839 0.9095 0.59656 0.0
O398 O 0.44524 0.89217 0.61996 0.0
O399 O 0.46246 0.17575 0.9299 0.0
Mg400 Mg 0.45234 0.14342 0.9182 0.0
O401 O 0.43918 0.19396 0.91043 0.0
Mg402 Mg 0.42022 0.16933 0.88625 0.0
O403 O 0.44837 0.14626 0.88592 0.0
O404 O 0.47327 0.12512 0.89872 0.0
O405 O 0.40042 0.14235 0.86424 0.0
O406 O 0.43732 0.18617 0.85639 0.0
Mg407 Mg 0.38029 0.18741 0.85791 0.0
O408 O 0.39384 0.19434 0.88687 0.0
O409 O 0.36683 0.15476 0.86009 0.0
O410 O 0.40816 0.19344 0.83634 0.0
O411 O 0.36586 0.2126 0.87571 0.0
C412 C 0.40285 0.1364 0.92789 0.0
C413 C 0.45404 0.19353 0.92503 0.0
C414 C 0.46443 0.13356 0.88233 0.0
C415 C 0.37955 0.13904 0.8601 0.0
C416 C 0.42921 0.19271 0.83888 0.0
C417 C 0.38048 0.2098 0.89021 0.0
O418 O 0.42185 0.12926 0.93131 0.0
O419 O 0.40052 0.15121 0.91404 0.0
O420 O 0.63397 0.34839 0.84546 0.0
Mg421 Mg 0.6657 0.36019 0.85742 0.0
O422 O 0.61557 0.37331 0.86373 0.0
Mg423 Mg 0.63866 0.39246 0.88913 0.0
O424 O 0.66282 0.36516 0.89004 0.0
O425 O 0.68452 0.34053 0.87579 0.0
O426 O 0.66214 0.41249 0.91369 0.0
O427 O 0.61792 0.37337 0.91637 0.0
Mg428 Mg 0.61069 0.42486 0.9199 0.0
O429 O 0.61454 0.41978 0.8876 0.0
O430 O 0.64205 0.43556 0.93281 0.0
O431 O 0.59529 0.39584 0.93296 0.0
O432 O 0.59319 0.44514 0.90093 0.0
C433 C 0.67474 0.40867 0.84845 0.0
C434 C 0.61599 0.35756 0.8497 0.0
C435 C 0.67635 0.34985 0.89274 0.0
C436 C 0.66061 0.42774 0.92809 0.0
C437 C 0.60241 0.3768 0.93021 0.0
C438 C 0.60094 0.4349 0.8843 0.0
O439 O 0.68046 0.38943 0.84365 0.0
O440 O 0.66006 0.41184 0.86312 0.0
O441 O 0.93735 0.47522 0.14601 0.0
Mg442 Mg 0.92624 0.4625 0.11566 0.0
O443 O 0.92423 0.44648 0.16519 0.0
Mg444 Mg 0.89924 0.42352 0.14418 0.0
O445 O 0.89412 0.4504 0.12049 0.0
O446 O 0.90222 0.47753 0.09815 0.0
O447 O 0.87545 0.40063 0.12259 0.0
O448 O 0.86984 0.43682 0.16455 0.0
Mg449 Mg 0.87098 0.38458 0.17144 0.0
O450 O 0.90373 0.39618 0.16761 0.0
O451 O 0.85923 0.37272 0.141 0.0
O452 O 0.85346 0.41069 0.18506 0.0
O453 O 0.89422 0.3683 0.18874 0.0
C454 C 0.94185 0.4162 0.10843 0.0
C455 C 0.93573 0.46505 0.16366 0.0
C456 C 0.88722 0.4646 0.1075 0.0
C457 C 0.86276 0.38279 0.12346 0.0
C458 C 0.85517 0.43047 0.1787 0.0
C459 C 0.90976 0.38172 0.18082 0.0
O460 O 0.94353 0.43611 0.10242 0.0
O461 O 0.92793 0.40971 0.12318 0.0
O462 O 0.95228 0.66054 0.4372 0.0
Mg463 Mg 0.94431 0.62888 0.42237 0.0
O464 O 0.93401 0.68236 0.41619 0.0
Mg465 Mg 0.91726 0.66053 0.38834 0.0
O466 O 0.94323 0.63664 0.39119 0.0
O467 O 0.96824 0.61483 0.40135 0.0
O468 O 0.89961 0.63692 0.36259 0.0
O469 O 0.94151 0.67853 0.3632 0.0
Mg470 Mg 0.89053 0.68695 0.35317 0.0
O471 O 0.89107 0.68579 0.386 0.0
O472 O 0.87911 0.65547 0.34091 0.0
O473 O 0.92241 0.6999 0.34277 0.0
O474 O 0.86871 0.70688 0.36921 0.0
C475 C 0.89305 0.62434 0.42431 0.0
C476 C 0.94634 0.67954 0.43248 0.0
C477 C 0.96037 0.62605 0.3863 0.0
C478 C 0.88571 0.63738 0.34723 0.0
C479 C 0.94076 0.69277 0.34845 0.0
C480 C 0.87631 0.70029 0.38708 0.0
O481 O 0.91107 0.61574 0.42896 0.0
O482 O 0.89297 0.64094 0.41203 0.0
O483 O 0.87118 0.85479 0.89108 0.0
Mg484 Mg 0.8805 0.86928 0.86095 0.0
O485 O 0.88651 0.88035 0.91404 0.0
Mg486 Mg 0.90586 0.90806 0.89469 0.0
O487 O 0.88146 0.90195 0.86807 0.0
O488 O 0.85854 0.88806 0.84326 0.0
O489 O 0.92632 0.93454 0.87458 0.0
O490 O 0.88273 0.93417 0.90877 0.0
Mg491 Mg 0.93369 0.94639 0.92645 0.0
O492 O 0.92936 0.91319 0.92244 0.0
O493 O 0.94751 0.95703 0.89633 0.0
O494 O 0.90082 0.95655 0.93295 0.0
O495 O 0.95102 0.92739 0.94809 0.0
C496 C 0.9314 0.87086 0.86278 0.0
C497 C 0.87543 0.86185 0.91021 0.0
C498 C 0.86586 0.90492 0.85477 0.0
C499 C 0.94136 0.9504 0.87755 0.0
C500 C 0.88316 0.95011 0.92269 0.0
C501 C 0.94196 0.90996 0.93848 0.0
O502 O 0.91408 0.86439 0.85202 0.0
O503 O 0.93049 0.88421 0.879 0.0
O504 O 0.92423 0.23662 0.67049 0.0
Mg505 Mg 0.89371 0.22499 0.65532 0.0
O506 O 0.94796 0.21879 0.64962 0.0
Mg507 Mg 0.92991 0.20188 0.62002 0.0
O508 O 0.902 0.22359 0.62388 0.0
O509 O 0.877 0.24587 0.63479 0.0
O510 O 0.91157 0.18267 0.59164 0.0
O511 O 0.9471 0.22867 0.59754 0.0
Mg512 Mg 0.96667 0.18067 0.58456 0.0
O513 O 0.95928 0.18174 0.61635 0.0
O514 O 0.93655 0.16546 0.57162 0.0
O515 O 0.97372 0.2144 0.57715 0.0
O516 O 0.98844 0.16495 0.60493 0.0
C517 C 0.89446 0.17416 0.65507 0.0
C518 C 0.94387 0.23098 0.66608 0.0
C519 C 0.88921 0.23871 0.61928 0.0
C520 C 0.9164 0.16922 0.57635 0.0
C521 C 0.96306 0.23069 0.58363 0.0
C522 C 0.97644 0.17145 0.6209 0.0
O523 O 0.88476 0.19123 0.66123 0.0
O524 O 0.91106 0.17508 0.64173 0.0
O525 O 0.69999 0.19735 0.40575 0.0
Mg526 Mg 0.69198 0.18676 0.37367 0.0
O527 O 0.67638 0.17415 0.42379 0.0
Mg528 Mg 0.6577 0.14913 0.39973 0.0
O529 O 0.68581 0.15384 0.376 0.0
O530 O 0.7137 0.1669 0.35576 0.0
O531 O 0.63737 0.12541 0.3753 0.0
O532 O 0.67697 0.12101 0.41337 0.0
Mg533 Mg 0.6231 0.11125 0.42504 0.0
O534 O 0.63128 0.14416 0.42521 0.0
O535 O 0.61128 0.10489 0.3935 0.0
O536 O 0.65387 0.09716 0.43114 0.0
O537 O 0.60678 0.13053 0.44864 0.0
C538 C 0.6414 0.19075 0.36961 0.0
C539 C 0.69139 0.19031 0.42339 0.0
C540 C 0.70264 0.15001 0.36385 0.0
C541 C 0.62019 0.11145 0.37585 0.0
C542 C 0.6734 0.10355 0.42434 0.0
C543 C 0.61849 0.14755 0.44153 0.0
O544 O 0.66099 0.19631 0.36244 0.0
O545 O 0.63787 0.17615 0.38404 0.0
O546 O 0.61279 0.89252 0.07611 0.0
Mg547 Mg 0.62147 0.92559 0.08527 0.0
O548 O 0.63008 0.87773 0.10307 0.0
Mg549 Mg 0.64115 0.90603 0.12855 0.0
O550 O 0.61468 0.9285 0.11744 0.0
O551 O 0.59664 0.94634 0.09313 0.0
O552 O 0.6539 0.93427 0.15259 0.0
O553 O 0.61375 0.89084 0.15294 0.0
Mg554 Mg 0.66299 0.88622 0.17194 0.0
O555 O 0.66759 0.88418 0.13956 0.0
O556 O 0.6703 0.91989 0.18034 0.0
O557 O 0.63022 0.87269 0.1783 0.0
O558 O 0.68836 0.86659 0.16141 0.0
C559 C 0.67129 0.93443 0.08971 0.0
C560 C 0.61915 0.87577 0.08543 0.0
C561 C 0.59913 0.94131 0.11297 0.0
C562 C 0.6649 0.93652 0.17012 0.0
C563 C 0.61272 0.87839 0.16934 0.0
C564 C 0.68347 0.87127 0.14198 0.0
O565 O 0.65449 0.93866 0.07876 0.0
O566 O 0.66901 0.92255 0.10637 0.0
O567 O 0.43495 0.75184 0.17433 0.0
Mg568 Mg 0.40352 0.73857 0.16175 0.0
O569 O 0.45562 0.73074 0.15358 0.0
Mg570 Mg 0.43603 0.71347 0.1252 0.0
O571 O 0.40818 0.73542 0.12949 0.0
O572 O 0.38233 0.75598 0.14197 0.0
O573 O 0.41637 0.69407 0.09767 0.0
O574 O 0.45374 0.73966 0.10241 0.0
Mg575 Mg 0.47094 0.69033 0.08902 0.0
O576 O 0.46462 0.69251 0.12094 0.0
O577 O 0.44003 0.67558 0.07725 0.0
O578 O 0.47854 0.72387 0.08101 0.0
O579 O 0.49295 0.67467 0.10933 0.0
C580 C 0.40254 0.68753 0.16271 0.0
C581 C 0.45372 0.74444 0.16934 0.0
C582 C 0.39255 0.74797 0.1255 0.0
C583 C 0.42022 0.68012 0.0825 0.0
C584 C 0.46917 0.74084 0.08793 0.0
C585 C 0.48165 0.68201 0.12542 0.0
O586 O 0.3949 0.70523 0.17019 0.0
O587 O 0.41736 0.68763 0.14761 0.0
O588 O 0.08818 0.62003 0.90045 0.0
Mg589 Mg 0.10382 0.62964 0.93022 0.0
O590 O 0.11253 0.63766 0.87816 0.0
Mg591 Mg 0.14197 0.65591 0.89725 0.0
O592 O 0.13704 0.63122 0.92324 0.0
O593 O 0.1231 0.60771 0.9469 0.0
O594 O 0.17021 0.67547 0.91725 0.0
O595 O 0.16659 0.63207 0.88107 0.0
Mg596 Mg 0.17975 0.68186 0.86569 0.0
O597 O 0.1459 0.67989 0.86978 0.0
O598 O 0.19334 0.69477 0.89512 0.0
O599 O 0.1882 0.64961 0.85648 0.0
O600 O 0.16232 0.70131 0.8452 0.0
C601 C 0.1048 0.68 0.93081 0.0
C602 C 0.09441 0.62559 0.88153 0.0
C603 C 0.14025 0.6155 0.936 0.0
C604 C 0.18698 0.68939 0.91401 0.0
C605 C 0.18157 0.63206 0.86615 0.0
C606 C 0.14406 0.69329 0.85421 0.0
O607 O 0.09808 0.66237 0.94034 0.0
O608 O 0.11862 0.68 0.91488 0.0
O609 O 0.12719 0.40825 0.58159 0.0
Mg610 Mg 0.13219 0.44108 0.59395 0.0
O611 O 0.14141 0.39054 0.60872 0.0
Mg612 Mg 0.14964 0.41566 0.63721 0.0
O613 O 0.12446 0.43816 0.62555 0.0
O614 O 0.1048 0.45813 0.60505 0.0
O615 O 0.15997 0.44255 0.66369 0.0
O616 O 0.12051 0.39882 0.65801 0.0
Mg617 Mg 0.16965 0.39474 0.68092 0.0
O618 O 0.17377 0.39142 0.64856 0.0
O619 O 0.17857 0.4278 0.68974 0.0
O620 O 0.13575 0.38353 0.68611 0.0
O621 O 0.19324 0.37285 0.67083 0.0
C622 C 0.18206 0.44821 0.60341 0.0
C623 C 0.13287 0.39065 0.58995 0.0
C624 C 0.10745 0.44966 0.62357 0.0
C625 C 0.17159 0.4445 0.68084 0.0
C626 C 0.11883 0.38749 0.67512 0.0
C627 C 0.18756 0.37643 0.65135 0.0
O628 O 0.16578 0.45461 0.5929 0.0
O629 O 0.17917 0.43384 0.61809 0.0
O630 O 0.65315 0.62064 0.59893 0.0
Mg631 Mg 0.62057 0.63064 0.60709 0.0
O632 O 0.67403 0.64301 0.62107 0.0
Mg633 Mg 0.65094 0.66646 0.63936 0.0
O634 O 0.62693 0.66358 0.61191 0.0
O635 O 0.6037 0.65122 0.58657 0.0
O636 O 0.62679 0.68881 0.65744 0.0
O637 O 0.6698 0.69632 0.62236 0.0
Mg638 Mg 0.67781 0.70171 0.67447 0.0
O639 O 0.67497 0.66891 0.667 0.0
O640 O 0.64472 0.71014 0.68242 0.0
O641 O 0.69151 0.71607 0.64596 0.0
O642 O 0.69641 0.68151 0.69359 0.0
C643 C 0.61583 0.62289 0.6551 0.0
C644 C 0.6721 0.62751 0.60669 0.0
C645 C 0.61467 0.66776 0.59592 0.0
C646 C 0.62682 0.70322 0.67279 0.0
C647 C 0.68457 0.71204 0.6269 0.0
C648 C 0.68882 0.6649 0.68182 0.0
O649 O 0.60722 0.61834 0.63675 0.0
O650 O 0.63175 0.63792 0.65752 0.0
O651 O 0.34088 0.36397 0.39057 0.0
Mg652 Mg 0.35315 0.37962 0.36213 0.0
O653 O 0.35952 0.38511 0.41541 0.0
Mg654 Mg 0.37759 0.41604 0.39885 0.0
O655 O 0.35453 0.4117 0.37116 0.0
O656 O 0.33227 0.39998 0.34509 0.0
O657 O 0.39637 0.44596 0.38206 0.0
O658 O 0.35095 0.43753 0.4149 0.0
Mg659 Mg 0.39867 0.45327 0.4344 0.0
O660 O 0.40077 0.42065 0.42706 0.0
O661 O 0.4113 0.46992 0.40658 0.0
O662 O 0.36481 0.45755 0.44273 0.0
O663 O 0.42005 0.43673 0.45381 0.0
C664 C 0.40469 0.38184 0.36522 0.0
C665 C 0.34627 0.36835 0.41006 0.0
C666 C 0.3395 0.416 0.35775 0.0
C667 C 0.40808 0.4638 0.38705 0.0
C668 C 0.3484 0.45073 0.43096 0.0
C669 C 0.41478 0.41913 0.44238 0.0
O670 O 0.38727 0.37475 0.35488 0.0
O671 O 0.40388 0.39527 0.38139 0.0
C672 C 0.0597 0.25856 0.31746 0.0
C673 C 0.05233 0.27938 0.32306 0.0
C674 C 0.05622 0.2495 0.2968 0.0
C675 C 0.05238 0.27055 0.24262 0.0
H676 H 0.06 0.20904 0.22842 0.0
C677 C 0.09701 0.21074 0.17527 0.0
C678 C 0.1174 0.22383 0.17438 0.0
C679 C 0.07922 0.21749 0.18812 0.0
C680 C 0.05731 0.22623 0.23177 0.0
H681 H 0.03312 0.3058 0.3121 0.0
H682 H 0.02666 0.28972 0.27616 0.0
H683 H 0.04365 0.219 0.26304 0.0
H684 H 0.13448 0.25503 0.18455 0.0
H685 H 0.10386 0.26669 0.20686 0.0
H686 H 0.06658 0.27782 0.21159 0.0
C687 C 0.03571 0.28068 0.28757 0.0
C688 C 0.04819 0.23198 0.25181 0.0
C689 C 0.03932 0.28985 0.30825 0.0
C690 C 0.11904 0.24451 0.18507 0.0
C691 C 0.1013 0.2513 0.19771 0.0
C692 C 0.06119 0.26478 0.2225 0.0
C693 C 0.04513 0.26095 0.28124 0.0
C694 C 0.04714 0.25432 0.25806 0.0
C695 C 0.08148 0.23753 0.20007 0.0
C696 C 0.06526 0.24272 0.21749 0.0
H697 H 0.06953 0.24987 0.32851 0.0
H698 H 0.06391 0.23436 0.29263 0.0
H699 H 0.05175 0.28794 0.24668 0.0
H700 H 0.09528 0.19468 0.16719 0.0
H701 H 0.06411 0.20659 0.18947 0.0
C702 C 0.05668 0.77227 0.59646 0.0
C703 C 0.04078 0.75443 0.59992 0.0
C704 C 0.06612 0.77575 0.57598 0.0
C705 C 0.04947 0.76606 0.52009 0.0
H706 H 0.10727 0.79687 0.5082 0.0
C707 C 0.09978 0.81852 0.44817 0.0
C708 C 0.08445 0.83468 0.44565 0.0
C709 C 0.0961 0.80253 0.46393 0.0
C710 C 0.09121 0.78792 0.51114 0.0
H711 H 0.02403 0.72503 0.58497 0.0
H712 H 0.04066 0.73103 0.54943 0.0
H713 H 0.10027 0.77957 0.54303 0.0
H714 H 0.05233 0.84556 0.45629 0.0
H715 H 0.04559 0.81731 0.48323 0.0
H716 H 0.04001 0.77545 0.48867 0.0
C717 C 0.04548 0.74257 0.56243 0.0
C718 C 0.08714 0.7782 0.53114 0.0
C719 C 0.03604 0.7391 0.58288 0.0
C720 C 0.06453 0.83343 0.45794 0.0
C721 C 0.06062 0.81718 0.47331 0.0
C722 C 0.05343 0.77601 0.50024 0.0
C723 C 0.0599 0.76143 0.55853 0.0
C724 C 0.06595 0.76784 0.53612 0.0
C725 C 0.0767 0.80206 0.47696 0.0
C726 C 0.07408 0.78767 0.49587 0.0
H727 H 0.06074 0.78441 0.60917 0.0
H728 H 0.07705 0.79054 0.57353 0.0
H729 H 0.033 0.75817 0.52331 0.0
H730 H 0.11519 0.81896 0.43883 0.0
H731 H 0.1087 0.79097 0.46637 0.0
C732 C 0.54014 0.87591 0.81998 0.0
C733 C 0.55827 0.86256 0.8188 0.0
C734 C 0.53156 0.88422 0.80138 0.0
C735 C 0.52739 0.87051 0.74327 0.0
H736 H 0.4896 0.91948 0.74702 0.0
C737 C 0.45892 0.88836 0.68022 0.0
C738 C 0.43792 0.88523 0.69058 0.0
C739 C 0.47864 0.89028 0.6924 0.0
C740 C 0.50056 0.90617 0.74533 0.0
H741 H 0.58275 0.84882 0.7973 0.0
H742 H 0.56814 0.86395 0.76464 0.0
H743 H 0.51778 0.91616 0.77422 0.0
H744 H 0.42092 0.88264 0.72159 0.0
H745 H 0.45504 0.88674 0.74265 0.0
H746 H 0.50985 0.86073 0.7142 0.0
C747 C 0.56018 0.86753 0.77997 0.0
C748 C 0.51646 0.90397 0.76118 0.0
C749 C 0.5687 0.85903 0.79871 0.0
C750 C 0.43689 0.88484 0.71317 0.0
C751 C 0.45638 0.88735 0.72524 0.0
C752 C 0.51195 0.87319 0.72696 0.0
C753 C 0.54101 0.87965 0.78099 0.0
C754 C 0.5291 0.88534 0.76113 0.0
C755 C 0.47742 0.88982 0.71502 0.0
C756 C 0.4977 0.89048 0.72844 0.0
H757 H 0.53172 0.87899 0.8352 0.0
H758 H 0.51659 0.89308 0.80301 0.0
H759 H 0.53666 0.85588 0.74263 0.0
H760 H 0.46012 0.88876 0.66282 0.0
H761 H 0.49475 0.89214 0.68421 0.0
C762 C 0.47564 0.25327 0.10356 0.0
C763 C 0.48338 0.27456 0.11072 0.0
C764 C 0.47079 0.24908 0.0818 0.0
C765 C 0.45103 0.24817 0.03677 0.0
H766 H 0.49627 0.26823 0.99482 0.0
C767 C 0.44003 0.22332 0.94842 0.0
C768 C 0.45827 0.21266 0.93985 0.0
C769 C 0.44251 0.2368 0.96692 0.0
C770 C 0.48341 0.2627 0.00633 0.0
H771 H 0.49194 0.30821 0.10079 0.0
H772 H 0.48361 0.3008 0.06286 0.0
H773 H 0.50096 0.27891 0.03286 0.0
H774 H 0.49366 0.20859 0.94307 0.0
H775 H 0.4981 0.23207 0.97549 0.0
H776 H 0.43388 0.23127 0.01054 0.0
C777 C 0.48125 0.2874 0.07404 0.0
C778 C 0.48603 0.26888 0.02806 0.0
C779 C 0.48584 0.29164 0.0958 0.0
C780 C 0.47942 0.21691 0.94921 0.0
C781 C 0.48193 0.23039 0.96774 0.0
C782 C 0.44833 0.24214 0.01507 0.0
C783 C 0.47385 0.26605 0.06679 0.0
C784 C 0.47009 0.26126 0.04354 0.0
C785 C 0.46326 0.23961 0.97736 0.0
C786 C 0.4647 0.24896 -0.00034 0.0
H787 H 0.47373 0.23978 0.11467 0.0
H788 H 0.46533 0.2324 0.0766 0.0
H789 H 0.43838 0.24225 0.04833 0.0
H790 H 0.42339 0.21949 0.94216 0.0
H791 H 0.42785 0.24381 0.97388 0.0
C792 C 0.00768 0.84111 0.18799 0.0
C793 C 0.98957 0.82619 0.18217 0.0
C794 C 0.01331 0.84462 0.20966 0.0
C795 C 0.01727 0.85401 0.25819 0.0
H796 H 0.02403 0.79876 0.28657 0.0
C797 C 0.0624 0.85169 0.33942 0.0
C798 C 0.08062 0.83837 0.33785 0.0
C799 C 0.04561 0.84984 0.32385 0.0
C800 C 0.02197 0.81434 0.27898 0.0
H801 H 0.96226 0.80433 0.19457 0.0
H802 H 0.97218 0.81039 0.23231 0.0
H803 H 0.00526 0.79839 0.25194 0.0
H804 H 0.09408 0.81097 0.32009 0.0
H805 H 0.0647 0.80742 0.29345 0.0
H806 H 0.035 0.86983 0.28479 0.0
C807 C 0.9821 0.81925 0.22012 0.0
C808 C 0.0111 0.81416 0.25923 0.0
C809 C 0.97637 0.81589 0.1985 0.0
C810 C 0.0805 0.82174 0.32165 0.0
C811 C 0.06356 0.8196 0.3064 0.0
C812 C 0.02798 0.85421 0.27807 0.0
C813 C 0.00098 0.83317 0.22588 0.0
C814 C 0.00926 0.83392 0.24831 0.0
C815 C 0.04641 0.83416 0.30685 0.0
C816 C 0.0311 0.8343 0.2883 0.0
H817 H 0.01815 0.84927 0.17576 0.0
H818 H 0.02807 0.85531 0.21361 0.0
H819 H 0.0159 0.86949 0.2502 0.0
H820 H 0.06162 0.86423 0.35204 0.0
H821 H 0.0324 0.86108 0.32473 0.0
C822 C 0.4917 0.79429 0.45461 0.0
C823 C 0.50767 0.77901 0.45008 0.0
C824 C 0.48426 0.7979 0.47572 0.0
C825 C 0.50562 0.79796 0.52995 0.0
H826 H 0.44628 0.81576 0.54443 0.0
C827 C 0.45392 0.85155 0.59773 0.0
C828 C 0.46863 0.87074 0.59768 0.0
C829 C 0.4586 0.8331 0.58494 0.0
C830 C 0.46282 0.81039 0.54096 0.0
H831 H 0.52762 0.75471 0.46387 0.0
H832 H 0.51478 0.76125 0.50096 0.0
H833 H 0.4524 0.79558 0.5107 0.0
H834 H 0.50075 0.88486 0.58605 0.0
H835 H 0.50899 0.8528 0.56398 0.0
H836 H 0.51626 0.81373 0.55974 0.0
C837 C 0.50795 0.77034 0.48813 0.0
C838 C 0.46636 0.79901 0.52151 0.0
C839 C 0.51517 0.7665 0.4669 0.0
C840 C 0.48905 0.87035 0.58631 0.0
C841 C 0.49383 0.85187 0.57375 0.0
C842 C 0.50209 0.80941 0.54939 0.0
C843 C 0.49283 0.78648 0.49281 0.0
C844 C 0.48798 0.79355 0.51537 0.0
C845 C 0.47819 0.83344 0.57212 0.0
C846 C 0.48086 0.81659 0.55466 0.0
H847 H 0.48563 0.80417 0.44196 0.0
H848 H 0.47283 0.81065 0.47878 0.0
H849 H 0.5225 0.79405 0.52568 0.0
H850 H 0.438 0.85138 0.60628 0.0
H851 H 0.44634 0.81904 0.58417 0.0
C852 C 0.551 0.27123 0.69544 0.0
C853 C 0.53985 0.27205 0.67568 0.0
C854 C 0.54098 0.25969 0.71268 0.0
C855 C 0.48514 0.24419 0.7336 0.0
H856 H 0.5147 0.20789 0.77327 0.0
C857 C 0.43501 0.19912 0.79974 0.0
C858 C 0.44411 0.19904 0.82048 0.0
C859 C 0.44817 0.20605 0.78219 0.0
C860 C 0.50632 0.2182 0.76245 0.0
H861 H 0.50995 0.26021 0.65824 0.0
H862 H 0.49255 0.24003 0.68832 0.0
H863 H 0.53525 0.22274 0.74171 0.0
H864 H 0.47452 0.20535 0.83889 0.0
H865 H 0.49764 0.21813 0.80802 0.0
H866 H 0.45649 0.24034 0.75432 0.0
C867 C 0.50896 0.24856 0.69048 0.0
C868 C 0.51803 0.22658 0.74436 0.0
C869 C 0.51901 0.26 0.6732 0.0
C870 C 0.46702 0.20535 0.82312 0.0
C871 C 0.48025 0.21256 0.80544 0.0
C872 C 0.47356 0.23601 0.75166 0.0
C873 C 0.51956 0.24882 0.71056 0.0
C874 C 0.50744 0.23947 0.72965 0.0
C875 C 0.47079 0.2134 0.78485 0.0
C876 C 0.48386 0.22269 0.76619 0.0
H877 H 0.56709 0.28028 0.69795 0.0
H878 H 0.54948 0.26027 0.728 0.0
H879 H 0.47672 0.25457 0.72288 0.0
H880 H 0.41755 0.19387 0.79699 0.0
H881 H 0.44048 0.2058 0.76649 0.0
C882 C 0.09068 0.27546 0.9497 0.0
C883 C 0.09677 0.26555 0.93001 0.0
C884 C 0.10305 0.27282 0.96819 0.0
C885 C 0.13872 0.23139 0.98855 0.0
H886 H 0.13064 0.26494 0.04174 0.0
C887 C 0.14868 0.19151 0.0692 0.0
C888 C 0.12797 0.19002 0.0801 0.0
C889 C 0.15293 0.20691 0.05308 0.0
C890 C 0.13334 0.25559 0.02696 0.0
H891 H 0.12213 0.24753 0.91359 0.0
H892 H 0.14456 0.24398 0.94562 0.0
H893 H 0.12549 0.28219 0.0072 0.0
H894 H 0.09584 0.20375 0.08378 0.0
H895 H 0.10347 0.23136 0.05593 0.0
H896 H 0.14617 0.20474 0.00834 0.0
C897 C 0.12955 0.25282 0.9471 0.0
C898 C 0.13022 0.26534 0.00715 0.0
C899 C 0.11681 0.25497 0.92867 0.0
C900 C 0.11206 0.20498 0.07575 0.0
C901 C 0.11649 0.22075 0.05993 0.0
C902 C 0.14231 0.22188 0.00826 0.0
C903 C 0.12212 0.26059 0.96737 0.0
C904 C 0.1316 0.25292 0.98772 0.0
C905 C 0.13661 0.22123 0.04789 0.0
C906 C 0.13855 0.2335 0.02763 0.0
H907 H 0.07533 0.28377 0.95128 0.0
H908 H 0.0965 0.27895 0.98335 0.0
H909 H 0.13976 0.22104 0.97417 0.0
H910 H 0.16099 0.17976 0.07212 0.0
H911 H 0.16851 0.20693 0.04398 0.0
C912 C 0.32094 0.03527 0.21191 0.0
C913 C 0.3338 0.0483 0.22693 0.0
C914 C 0.30102 0.0425 0.20416 0.0
C915 C 0.27312 0.07469 0.17988 0.0
H916 H 0.22927 0.10022 0.21769 0.0
C917 C 0.23383 0.15527 0.16858 0.0
C918 C 0.21065 0.15632 0.17121 0.0
C919 C 0.24357 0.13551 0.17146 0.0
C920 C 0.24098 0.09262 0.20689 0.0
H921 H 0.33561 0.07861 0.24623 0.0
H922 H 0.30055 0.09105 0.233 0.0
H923 H 0.25704 0.07751 0.23275 0.0
H924 H 0.17919 0.13768 0.17808 0.0
H925 H 0.19664 0.10295 0.18453 0.0
H926 H 0.25851 0.09165 0.1544 0.0
C927 C 0.30594 0.07531 0.22719 0.0
C928 C 0.25694 0.07984 0.21551 0.0
C929 C 0.32607 0.06831 0.23459 0.0
C930 C 0.19713 0.13712 0.176 0.0
C931 C 0.20704 0.11737 0.1796 0.0
C932 C 0.25744 0.08783 0.17134 0.0
C933 C 0.29342 0.0626 0.21171 0.0
C934 C 0.27366 0.07155 0.20218 0.0
C935 C 0.23038 0.11659 0.17761 0.0
C936 C 0.24184 0.09757 0.18493 0.0
H937 H 0.32654 0.01974 0.20576 0.0
H938 H 0.29167 0.03253 0.19214 0.0
H939 H 0.28593 0.06854 0.16931 0.0
H940 H 0.24449 0.16989 0.1647 0.0
H941 H 0.26163 0.13534 0.17011 0.0
C942 C 0.20153 0.08442 0.49129 0.0
C943 C 0.22082 0.0915 0.50298 0.0
C944 C 0.1994 0.06329 0.48161 0.0
C945 C 0.21811 0.00797 0.488 0.0
H946 H 0.19126 0.99616 0.43202 0.0
C947 C 0.18167 0.93155 0.42732 0.0
C948 C 0.16597 0.92144 0.4417 0.0
C949 C 0.19515 0.9503 0.43393 0.0
C950 C 0.1992 -0.00084 0.4475 0.0
H951 H 0.25326 0.08196 0.51314 0.0
H952 H 0.24939 0.04524 0.4964 0.0
H953 H 0.20053 0.03429 0.44417 0.0
H954 H 0.15375 0.92128 0.47467 0.0
H955 H 0.17774 0.95339 0.48643 0.0
H956 H 0.21591 0.97286 0.49168 0.0
C957 C 0.23591 0.05601 0.49479 0.0
C958 C 0.20422 0.02101 0.45456 0.0
C959 C 0.23813 0.07714 0.50428 0.0
C960 C 0.16583 0.92873 0.46334 0.0
C961 C 0.17955 0.94716 0.47004 0.0
C962 C 0.21287 0.98613 0.48103 0.0
C963 C 0.21643 0.04874 0.48358 0.0
C964 C 0.21327 0.02564 0.47507 0.0
C965 C 0.19341 0.95887 0.45511 0.0
C966 C 0.20291 0.98151 0.4609 0.0
H967 H 0.18789 0.09503 0.48994 0.0
H968 H 0.18408 0.05807 0.47323 0.0
H969 H 0.22498 0.01102 0.50394 0.0
H970 H 0.18192 0.9264 0.41048 0.0
H971 H 0.20586 0.9589 0.42216 0.0
C972 C 0.20449 0.01636 0.69274 0.0
C973 C 0.20261 0.03918 0.69518 0.0
C974 C 0.22333 0.00834 0.68261 0.0
C975 C 0.28285 0.02395 0.67372 0.0
H976 H 0.27983 0.96837 0.6414 0.0
C977 C 0.3591 0.97075 0.65166 0.0
C978 C 0.35491 0.94931 0.65965 0.0
C979 C 0.34194 0.98534 0.6516 0.0
C980 C 0.28095 0.98409 0.65013 0.0
H981 H 0.21853 0.07151 0.68799 0.0
H982 H 0.25145 0.05745 0.67029 0.0
H983 H 0.24569 0.98716 0.64802 0.0
H984 H 0.32964 0.92698 0.67492 0.0
H985 H 0.30029 0.95211 0.67472 0.0
H986 H 0.31808 0.02017 0.67659 0.0
C987 C 0.23842 0.04579 0.67636 0.0
C988 C 0.26142 0.99476 0.65404 0.0
C989 C 0.21949 0.05381 0.68639 0.0
C990 C 0.33359 0.94321 0.66841 0.0
C991 C 0.31661 0.95755 0.66816 0.0
C992 C 0.30247 0.01326 0.66972 0.0
C993 C 0.24076 0.02297 0.67475 0.0
C994 C 0.26197 0.01429 0.66671 0.0
C995 C 0.3204 0.97852 0.65936 0.0
C996 C 0.30145 0.99274 0.65873 0.0
H997 H 0.19181 0.00467 0.69937 0.0
H998 H 0.22472 0.99066 0.6819 0.0
H999 H 0.28384 0.03896 0.68359 0.0
H1000 H 0.37537 0.97602 0.64493 0.0
H1001 H 0.34527 0.00157 0.64491 0.0
C1002 C 0.26739 0.00028 0.00457 0.0
C1003 C 0.27518 0.98064 0.99577 0.0
C1004 C 0.27447 0.02068 0.99594 0.0
C1005 C 0.30952 0.05839 0.98746 0.0
H1006 H 0.32159 0.06922 0.92696 0.0
C1007 C 0.38509 0.11219 0.95627 0.0
C1008 C 0.38278 0.12527 0.93822 0.0
C1009 C 0.36695 0.09871 0.96395 0.0
C1010 C 0.31799 0.06666 0.9439 0.0
H1011 H 0.29505 0.96695 0.96994 0.0
H1012 H 0.30726 0.00253 0.9548 0.0
H1013 H 0.29733 0.0369 0.93733 0.0
H1014 H 0.3593 0.13545 0.91483 0.0
H1015 H 0.32763 0.11137 0.928 0.0
H1016 H 0.33099 0.08756 0.99407 0.0
C1017 C 0.29569 0.00215 0.96838 0.0
C1018 C 0.30427 0.04807 0.94982 0.0
C1019 C 0.28876 0.98174 0.97712 0.0
C1020 C 0.36161 0.12548 0.92872 0.0
C1021 C 0.34351 0.11167 0.93619 0.0
C1022 C 0.32338 0.07684 0.98155 0.0
C1023 C 0.28932 0.02188 0.97821 0.0
C1024 C 0.30042 0.04341 0.97168 0.0
C1025 C 0.34617 0.0978 0.95359 0.0
C1026 C 0.32829 0.08079 0.95974 0.0
H1027 H 0.25699 9e-05 0.01901 0.0
H1028 H 0.26912 0.0356 0.00371 0.0
H1029 H 0.30705 0.05518 0.00445 0.0
H1030 H 0.40116 0.11174 0.964 0.0
H1031 H 0.36957 0.08807 0.97728 0.0
C1032 C 0.32901 0.99628 0.29486 0.0
C1033 C 0.33254 0.01908 0.29916 0.0
C1034 C 0.3102 0.98427 0.30331 0.0
C1035 C 0.25298 0.99257 0.32417 0.0
H1036 H 0.25312 0.93015 0.33558 0.0
C1037 C 0.17815 0.93293 0.35665 0.0
C1038 C 0.17507 0.9131 0.34443 0.0
C1039 C 0.19616 0.9483 0.352 0.0
C1040 C 0.25288 0.9476 0.33245 0.0
H1041 H 0.31992 0.04686 0.31694 0.0
H1042 H 0.28759 0.02574 0.33232 0.0
H1043 H 0.28843 0.95148 0.32842 0.0
H1044 H 0.187 0.89496 0.3165 0.0
H1045 H 0.21824 0.92163 0.30861 0.0
H1046 H 0.21722 0.98842 0.32859 0.0
C1047 C 0.29891 0.01726 0.32183 0.0
C1048 C 0.27308 0.95982 0.32824 0.0
C1049 C 0.31759 0.02933 0.31318 0.0
C1050 C 0.18906 0.90991 0.32641 0.0
C1051 C 0.20702 0.9251 0.32192 0.0
C1052 C 0.23275 0.98036 0.32874 0.0
C1053 C 0.29461 0.9947 0.3165 0.0
C1054 C 0.27338 0.98235 0.3235 0.0
C1055 C 0.21126 0.94395 0.33517 0.0
C1056 C 0.23253 0.95766 0.33238 0.0
H1057 H 0.34006 0.98791 0.28397 0.0
H1058 H 0.30738 0.96701 0.29857 0.0
H1059 H 0.25247 0.00982 0.32036 0.0
H1060 H 0.1677 0.93583 0.37068 0.0
H1061 H 0.1991 0.96283 0.36237 0.0
C1062 C 0.30718 0.09728 0.56474 0.0
C1063 C 0.28409 0.09713 0.56894 0.0
C1064 C 0.31917 0.07979 0.57102 0.0
C1065 C 0.31381 0.021 0.58102 0.0
H1066 H 0.37349 0.03377 0.60385 0.0
C1067 C 0.3822 0.95788 0.59754 0.0
C1068 C 0.40298 0.96491 0.58815 0.0
C1069 C 0.36422 0.97141 0.59711 0.0
C1070 C 0.35678 0.02994 0.59763 0.0
H1071 H 0.25537 0.0786 0.5831 0.0
H1072 H 0.27648 0.04771 0.59394 0.0
H1073 H 0.34853 0.06345 0.60136 0.0
H1074 H 0.42053 0.99058 0.56925 0.0
H1075 H 0.38957 0.01402 0.56889 0.0
H1076 H 0.32266 0.98749 0.57659 0.0
C1077 C 0.28522 0.06149 0.58585 0.0
C1078 C 0.34254 0.04689 0.59619 0.0
C1079 C 0.27322 0.07919 0.57976 0.0
C1080 C 0.4049 0.98477 0.57694 0.0
C1081 C 0.38721 -0.0017 0.57682 0.0
C1082 C 0.32816 0.00392 0.58251 0.0
C1083 C 0.30831 0.06165 0.58151 0.0
C1084 C 0.32129 0.04281 0.58702 0.0
C1085 C 0.36706 0.9922 0.58763 0.0
C1086 C 0.35008 0.00854 0.58996 0.0
H1087 H 0.31601 0.11083 0.55638 0.0
H1088 H 0.3369 0.08021 0.56716 0.0
H1089 H 0.29747 0.01743 0.57391 0.0
H1090 H 0.3801 0.94239 0.60582 0.0
H1091 H 0.34859 0.9662 0.60513 0.0
C1092 C 0.22957 0.05646 0.76887 0.0
C1093 C 0.2137 0.06766 0.781 0.0
C1094 C 0.25057 0.0534 0.7774 0.0
C1095 C 0.28268 0.05399 0.82758 0.0
H1096 H 0.33058 0.08472 0.79498 0.0
C1097 C 0.34954 0.10994 0.86632 0.0
C1098 C 0.3692 0.11686 0.85512 0.0
C1099 C 0.33499 0.09304 0.85793 0.0
C1100 C 0.31778 0.07534 0.80411 0.0
H1101 H 0.20696 0.08337 0.81192 0.0
H1102 H 0.24352 0.07772 0.82692 0.0
H1103 H 0.29456 0.0756 0.77824 0.0
H1104 H 0.39046 0.11027 0.82762 0.0
H1105 H 0.36495 0.0803 0.81274 0.0
H1106 H 0.30558 0.05443 0.85374 0.0
C1107 C 0.2397 0.07138 0.81081 0.0
C1108 C 0.29701 0.07024 0.79449 0.0
C1109 C 0.21888 0.07483 0.80215 0.0
C1110 C 0.37538 0.10506 0.83654 0.0
C1111 C 0.36065 0.0881 0.82797 0.0
C1112 C 0.30357 0.05872 0.83709 0.0
C1113 C 0.25588 0.06103 0.79837 0.0
C1114 C 0.27895 0.0607 0.80655 0.0
C1115 C 0.33966 0.08283 0.83794 0.0
C1116 C 0.32091 0.07079 0.82594 0.0
H1117 H 0.22608 0.05077 0.75249 0.0
H1118 H 0.26281 0.04546 0.76749 0.0
H1119 H 0.26907 0.04626 0.83706 0.0
H1120 H 0.34443 0.11894 0.88063 0.0
H1121 H 0.31903 0.08972 0.8661 0.0
C1122 C 0.27783 0.973 0.07449 0.0
C1123 C 0.2956 0.97238 0.05954 0.0
C1124 C 0.27069 0.99322 0.082 0.0
C1125 C 0.26397 0.03937 0.10087 0.0
H1126 H 0.25068 0.07728 0.05412 0.0
C1127 C 0.21486 0.11751 0.11387 0.0
C1128 C 0.19574 0.11667 0.10089 0.0
C1129 C 0.23179 0.10325 0.1095 0.0
C1130 C 0.25456 0.06702 0.06737 0.0
H1131 H 0.32042 0.99241 0.04135 0.0
H1132 H 0.30773 0.0277 0.05427 0.0
H1133 H 0.27204 0.0452 0.04673 0.0
H1134 H 0.17994 0.10118 0.07252 0.0
H1135 H 0.20946 0.07663 0.06482 0.0
H1136 H 0.24563 0.06078 0.12133 0.0
C1137 C 0.29941 0.01256 0.06025 0.0
C1138 C 0.26688 0.04874 0.06318 0.0
C1139 C 0.30674 0.99235 0.05296 0.0
C1140 C 0.19439 0.10213 0.0829 0.0
C1141 C 0.21138 0.08817 0.07839 0.0
C1142 C 0.25184 0.05784 0.10511 0.0
C1143 C 0.28102 0.01319 0.07449 0.0
C1144 C 0.27112 0.03435 0.07976 0.0
C1145 C 0.23001 0.08824 0.09188 0.0
C1146 C 0.2464 0.0714 0.08825 0.0
H1147 H 0.26892 0.95786 0.07976 0.0
H1148 H 0.25631 0.99321 0.09279 0.0
H1149 H 0.26716 0.02863 0.11396 0.0
H1150 H 0.21634 0.12854 0.12784 0.0
H1151 H 0.24609 0.10374 0.12001 0.0
C1152 C 0.27702 0.37259 0.02852 0.0
C1153 C 0.26828 0.39255 0.03499 0.0
C1154 C 0.26451 0.35248 0.03133 0.0
C1155 C 0.21593 0.32827 0.06322 0.0
H1156 H 0.22817 0.27564 0.02969 0.0
C1157 C 0.17643 0.24363 0.08652 0.0
C1158 C 0.19332 0.23089 0.09367 0.0
C1159 C 0.1818 0.2615 0.07317 0.0
C1160 C 0.22439 0.29028 0.03896 0.0
H1161 H 0.23915 0.4073 0.04832 0.0
H1162 H 0.21672 0.37238 0.0521 0.0
H1163 H 0.24398 0.31176 0.01809 0.0
H1164 H 0.22865 0.22576 0.09178 0.0
H1165 H 0.23803 0.25665 0.06783 0.0
H1166 H 0.19621 0.30665 0.08393 0.0
C1167 C 0.23363 0.37202 0.04576 0.0
C1168 C 0.23365 0.31098 0.03254 0.0
C1169 C 0.2464 0.39211 0.04348 0.0
C1170 C 0.21534 0.23516 0.08606 0.0
C1171 C 0.22066 0.25278 0.07241 0.0
C1172 C 0.20626 0.30769 0.06928 0.0
C1173 C 0.24268 0.35183 0.04019 0.0
C1174 C 0.23019 0.33022 0.04501 0.0
C1175 C 0.20412 0.2667 0.06669 0.0
C1176 C 0.21093 0.28847 0.05759 0.0
H1177 H 0.29392 0.37242 0.02205 0.0
H1178 H 0.27241 0.33745 0.02724 0.0
H1179 H 0.21307 0.34242 0.07356 0.0
H1180 H 0.15942 0.24085 0.09259 0.0
H1181 H 0.1688 0.27206 0.06899 0.0
C1182 C 0.72071 0.21322 0.00371 0.0
C1183 C 0.735 0.21594 0.02152 0.0
C1184 C 0.70894 0.23079 0.99692 0.0
C1185 C 0.6823 0.27066 0.98787 0.0
H1186 H 0.72557 0.32054 0.97884 0.0
C1187 C 0.66721 0.34366 0.93189 0.0
C1188 C 0.68198 0.34214 0.91422 0.0
C1189 C 0.67078 0.33231 0.9508 0.0
C1190 C 0.71312 0.307 0.98171 0.0
H1191 H 0.74642 0.23875 0.04733 0.0
H1192 H 0.72606 0.26928 0.03535 0.0
H1193 H 0.73489 0.29096 0.00215 0.0
H1194 H 0.71321 0.32954 0.90316 0.0
H1195 H 0.71999 0.31081 0.93631 0.0
H1196 H 0.66109 0.28634 0.9663 0.0
C1197 C 0.72412 0.25362 0.02655 0.0
C1198 C 0.7184 0.29007 0.99508 0.0
C1199 C 0.73575 0.23604 0.03343 0.0
C1200 C 0.70138 0.33081 0.91642 0.0
C1201 C 0.70532 0.32015 0.93542 0.0
C1202 C 0.67689 0.28782 0.97471 0.0
C1203 C 0.71132 0.25146 0.00774 0.0
C1204 C 0.70343 0.27128 -0.00242 0.0
C1205 C 0.68973 0.32017 0.9525 0.0
C1206 C 0.69267 0.30564 0.97082 0.0
H1207 H 0.71963 0.19798 0.9942 0.0
H1208 H 0.69931 0.22865 0.98228 0.0
H1209 H 0.67042 0.25644 0.98963 0.0
H1210 H 0.65243 0.35267 0.93069 0.0
H1211 H 0.65858 0.33259 0.96384 0.0
C1212 C 0.11792 0.51649 0.22604 0.0
C1213 C 0.12276 0.52386 0.24718 0.0
C1214 C 0.09606 0.50922 0.22039 0.0
C1215 C 0.03948 0.49158 0.24177 0.0
H1216 H 0.0213 0.51321 0.18703 0.0
C1217 C 0.95883 0.45963 0.19623 0.0
C1218 C 0.95017 0.47385 0.18151 0.0
C1219 C 0.97759 0.46672 0.20851 0.0
C1220 C 0.02586 0.50732 0.20256 0.0
H1221 H 0.10872 0.52863 0.27922 0.0
H1222 H 0.0704 0.51625 0.26924 0.0
H1223 H 0.05909 0.52228 0.1993 0.0
H1224 H 0.9518 0.50764 0.17082 0.0
H1225 H 0.98351 0.52034 0.19305 0.0
H1226 H 0.0059 0.47685 0.24502 0.0
C1227 C 0.08355 0.51581 0.2571 0.0
C1228 C 0.04776 0.51218 0.2094 0.0
C1229 C 0.10549 0.52296 0.2628 0.0
C1230 C 0.95853 0.49609 0.18156 0.0
C1231 C 0.97686 0.50331 0.19416 0.0
C1232 C 0.0174 0.48672 0.23491 0.0
C1233 C 0.07851 0.50937 0.23571 0.0
C1234 C 0.05495 0.50419 0.22894 0.0
C1235 C 0.98756 0.48834 0.20665 0.0
C1236 C 0.01036 0.49452 0.21516 0.0
H1237 H 0.13092 0.51684 0.21371 0.0
H1238 H 0.09283 0.50389 0.20387 0.0
H1239 H 0.04455 0.48514 0.2569 0.0
H1240 H 0.95229 0.44261 0.19703 0.0
H1241 H 0.98521 0.45479 0.21814 0.0
C1242 C 0.86895 0.85247 0.51352 0.0
C1243 C 0.85614 0.86625 0.50161 0.0
C1244 C 0.87078 0.83043 0.5069 0.0
C1245 C 0.88089 0.78937 0.47757 0.0
H1246 H 0.82537 0.75631 0.46139 0.0
C1247 C 0.88146 0.70881 0.42669 0.0
C1248 C 0.86958 0.71095 0.4076 0.0
C1249 C 0.87812 0.72296 0.44448 0.0
C1250 C 0.84101 0.7652 0.46605 0.0
H1251 H 0.83555 0.86785 0.47329 0.0
H1252 H 0.83855 0.82952 0.46198 0.0
H1253 H 0.82423 0.79215 0.47993 0.0
H1254 H 0.8429 0.72756 0.39309 0.0
H1255 H 0.83695 0.75176 0.42379 0.0
H1256 H 0.8977 0.76325 0.46216 0.0
C1257 C 0.84712 0.83571 0.47642 0.0
C1258 C 0.84035 0.78569 0.47662 0.0
C1259 C 0.84561 0.85772 0.48278 0.0
C1260 C 0.85265 0.72573 0.40742 0.0
C1261 C 0.8491 0.73955 0.42516 0.0
C1262 C 0.88157 0.76891 0.46676 0.0
C1263 C 0.85943 0.82178 0.48856 0.0
C1264 C 0.86028 0.79837 0.48162 0.0
C1265 C 0.86242 0.73901 0.44355 0.0
C1266 C 0.86164 0.75711 0.46002 0.0
H1267 H 0.87721 0.8586 0.52813 0.0
H1268 H 0.88048 0.82 0.51642 0.0
H1269 H 0.89648 0.79886 0.4813 0.0
H1270 H 0.89414 0.69709 0.42744 0.0
H1271 H 0.88836 0.72195 0.45861 0.0
C1272 C 0.95575 0.08587 0.2302 0.0
C1273 C 0.94974 0.06769 0.24318 0.0
C1274 C 0.97763 0.09566 0.23019 0.0
C1275 C 0.03455 0.08009 0.23884 0.0
H1276 H 0.04926 0.14058 0.22215 0.0
C1277 C 0.10888 0.14001 0.19447 0.0
C1278 C 0.11209 0.12557 0.17684 0.0
C1279 C 0.09355 0.13381 0.2109 0.0
C1280 C 0.0457 0.12377 0.22733 0.0
H1281 H 0.96176 0.04661 0.26756 0.0
H1282 H -0.00013 0.0639 0.26768 0.0
H1283 H 0.01208 0.12988 0.23651 0.0
H1284 H 0.10368 0.09273 0.16353 0.0
H1285 H 0.0773 0.08184 0.192 0.0
H1286 H 0.06795 0.07383 0.22904 0.0
C1287 C 0.98772 0.07032 0.25722 0.0
C1288 C 0.02424 0.11756 0.23529 0.0
C1289 C 0.96581 0.06047 0.25721 0.0
C1290 C 0.10143 0.10419 0.17692 0.0
C1291 C 0.08639 0.09792 0.19337 0.0
C1292 C 0.05604 0.08632 0.231 0.0
C1293 C 0.99407 0.08759 0.24322 0.0
C1294 C 0.01806 0.0954 0.24007 0.0
C1295 C 0.08148 0.11298 0.21005 0.0
C1296 C 0.06147 0.10795 0.22407 0.0
H1297 H 0.94385 0.09197 0.21926 0.0
H1298 H 0.9819 0.10873 0.21898 0.0
H1299 H 0.03046 0.06287 0.24236 0.0
H1300 H 0.11682 0.15666 0.1947 0.0
H1301 H 0.09027 0.1457 0.22364 0.0
C1302 C 0.33362 0.72303 0.51029 0.0
C1303 C 0.31451 0.71895 0.49756 0.0
C1304 C 0.34271 0.74456 0.51407 0.0
C1305 C 0.32348 0.79935 0.52036 0.0
H1306 H 0.38615 0.8142 0.53316 0.0
C1307 C 0.35227 0.85136 0.59321 0.0
C1308 C 0.37215 0.86517 0.59254 0.0
C1309 C 0.34522 0.83885 0.5751 0.0
C1310 C 0.36865 0.81065 0.52922 0.0
H1311 H 0.29055 0.73399 0.47782 0.0
H1312 H 0.3064 0.77186 0.48462 0.0
H1313 H 0.37544 0.78131 0.51119 0.0
H1314 H 0.39983 0.87744 0.57215 0.0
H1315 H 0.38761 0.85511 0.54037 0.0
H1316 H 0.3166 0.8281 0.53925 0.0
C1317 C 0.31436 0.75835 0.49162 0.0
C1318 C 0.3625 0.79169 0.51681 0.0
C1319 C 0.30537 0.73669 0.48765 0.0
C1320 C 0.38439 0.86695 0.57308 0.0
C1321 C 0.37746 0.85414 0.55495 0.0
C1322 C 0.32963 0.81829 0.53277 0.0
C1323 C 0.33277 0.76253 0.50535 0.0
C1324 C 0.33977 0.78527 0.51318 0.0
C1325 C 0.35799 0.83968 0.55593 0.0
C1326 C 0.35216 0.82349 0.53823 0.0
H1327 H 0.34101 0.70963 0.51809 0.0
H1328 H 0.35668 0.74718 0.52498 0.0
H1329 H 0.30582 0.79486 0.51792 0.0
H1330 H 0.34242 0.84976 0.60794 0.0
H1331 H 0.33035 0.82763 0.57651 0.0
C1332 C 0.09354 0.5922 0.24758 0.0
C1333 C 0.11589 0.59784 0.25344 0.0
C1334 C 0.07594 0.60141 0.25876 0.0
C1335 C 0.06479 0.62565 0.31252 0.0
H1336 H 0.00578 0.63147 0.28924 0.0
C1337 C 0.99254 0.64583 0.36834 0.0
C1338 C 0.97386 0.63053 0.36683 0.0
C1339 C 0.00859 0.64713 0.35184 0.0
C1340 C 0.0222 0.62996 0.2959 0.0
H1341 H 0.1374 0.61885 0.27441 0.0
H1342 H 0.10677 0.63568 0.29332 0.0
H1343 H 0.03722 0.62507 0.26477 0.0
H1344 H 0.95645 0.6053 0.34682 0.0
H1345 H 0.9846 0.60761 0.31758 0.0
H1346 H 0.04983 0.63021 0.34357 0.0
C1347 C 0.10274 0.62352 0.28062 0.0
C1348 C 0.04021 0.62623 0.28194 0.0
C1349 C 0.12033 0.61401 0.26969 0.0
C1350 C 0.97066 0.6174 0.34808 0.0
C1351 C 0.98673 0.61876 0.33143 0.0
C1352 C 0.04693 0.6296 0.32637 0.0
C1353 C 0.08028 0.6167 0.27587 0.0
C1354 C 0.06166 0.62357 0.29013 0.0
C1355 C 0.00626 0.63308 0.33355 0.0
C1356 C 0.02537 0.63139 0.31828 0.0
H1357 H 0.08953 0.57963 0.23524 0.0
H1358 H 0.05894 0.59551 0.25475 0.0
H1359 H 0.08082 0.62319 0.31957 0.0
H1360 H 0.99527 0.65601 0.3828 0.0
H1361 H 0.02331 0.65851 0.35378 0.0
C1362 C 0.46424 0.47895 0.75807 0.0
C1363 C 0.44661 0.47689 0.77329 0.0
C1364 C 0.48465 0.47004 0.76197 0.0
C1365 C 0.51315 0.43233 0.79669 0.0
H1366 H 0.56117 0.47893 0.79862 0.0
C1367 C 0.59327 0.42425 0.84547 0.0
C1368 C 0.59276 0.43971 0.86266 0.0
C1369 C 0.5804 0.42664 0.82705 0.0
C1370 C 0.54814 0.46556 0.79766 0.0
H1371 H 0.43594 0.46262 0.8037 0.0
H1372 H 0.47137 0.44671 0.81032 0.0
H1373 H 0.52657 0.48478 0.77994 0.0
H1374 H 0.58111 0.47137 0.87281 0.0
H1375 H 0.55963 0.47597 0.84061 0.0
H1376 H 0.53425 0.4137 0.81567 0.0
C1377 C 0.46948 0.45524 0.79542 0.0
C1378 C 0.52835 0.46887 0.78695 0.0
C1379 C 0.44923 0.46447 0.79171 0.0
C1380 C 0.5815 0.45891 0.86002 0.0
C1381 C 0.56927 0.46163 0.84149 0.0
C1382 C 0.5331 0.42891 0.80716 0.0
C1383 C 0.48765 0.45856 0.78095 0.0
C1384 C 0.51024 0.45271 0.78729 0.0
C1385 C 0.56772 0.44506 0.82529 0.0
C1386 C 0.55031 0.44593 0.80867 0.0
H1387 H 0.46275 0.48855 0.74377 0.0
H1388 H 0.49836 0.47283 0.75055 0.0
H1389 H 0.49951 0.41954 0.79704 0.0
H1390 H 0.60244 0.40971 0.84682 0.0
H1391 H 0.57966 0.41377 0.81462 0.0
C1392 C 0.04079 0.82359 0.71389 0.0
C1393 C 0.02172 0.82509 0.70124 0.0
C1394 C 0.04196 0.83359 0.73448 0.0
C1395 C 0.02414 0.83586 0.78115 0.0
H1396 H -0.00097 0.89125 0.79641 0.0
C1397 C 0.95524 0.84543 0.84265 0.0
C1398 C 0.95335 0.86553 0.85391 0.0
C1399 C 0.97368 0.84251 0.8292 0.0
C1400 C 0.00666 0.87597 0.79266 0.0
H1401 H 0.9899 0.83955 0.69915 0.0
H1402 H 0.9922 0.85755 0.73465 0.0
H1403 H 0.01365 0.88525 0.76004 0.0
H1404 H 0.97 0.8977 0.86143 0.0
H1405 H 0.0021 0.89281 0.83731 0.0
H1406 H 0.01537 0.82587 0.81323 0.0
C1407 C 0.00619 0.84862 0.72889 0.0
C1408 C 0.01489 0.87251 0.77177 0.0
C1409 C 0.00479 0.83823 0.70861 0.0
C1410 C 0.97114 0.88198 0.85298 0.0
C1411 C 0.98944 0.87924 0.83912 0.0
C1412 C 0.01571 0.83925 0.80199 0.0
C1413 C 0.02433 0.84565 0.74239 0.0
C1414 C 0.02256 0.85198 0.76552 0.0
C1415 C 0.99038 0.85981 0.82643 0.0
C1416 C 0.00577 0.85887 0.80756 0.0
H1417 H 0.05394 0.8133 0.70861 0.0
H1418 H 0.05607 0.831 0.74461 0.0
H1419 H 0.02988 0.81984 0.77677 0.0
H1420 H 0.94173 0.83251 0.84313 0.0
H1421 H 0.97378 0.82743 0.8195 0.0
C1422 C 0.05399 0.3166 0.44784 0.0
C1423 C 0.04382 0.32019 0.42812 0.0
C1424 C 0.04169 0.31693 0.46703 0.0
C1425 C 0.98513 0.30361 0.48636 0.0
H1426 H 0.01273 0.31942 0.54133 0.0
C1427 C 0.95152 0.26287 0.56362 0.0
C1428 C 0.96846 0.25188 0.57314 0.0
C1429 C 0.95702 0.2796 0.54894 0.0
C1430 C 0.00463 0.31516 0.52614 0.0
H1431 H 0.01311 0.32821 0.41311 0.0
H1432 H 0.99125 0.32838 0.44691 0.0
H1433 H 0.02952 0.33444 0.50825 0.0
H1434 H 0.00428 0.25065 0.57634 0.0
H1435 H 0.01399 0.28025 0.5514 0.0
H1436 H 0.96104 0.28326 0.50408 0.0
C1437 C 0.00883 0.32532 0.44739 0.0
C1438 C 0.01424 0.32372 0.5072 0.0
C1439 C 0.02131 0.32526 0.42809 0.0
C1440 C 0.99094 0.25904 0.56925 0.0
C1441 C 0.99645 0.27606 0.55503 0.0
C1442 C 0.97547 0.2951 0.50532 0.0
C1443 C 0.01882 0.32073 0.46701 0.0
C1444 C 0.0053 0.31705 0.48703 0.0
C1445 C 0.97957 0.28591 0.54403 0.0
C1446 C 0.98583 0.29984 0.52527 0.0
H1447 H 0.07143 0.31301 0.44842 0.0
H1448 H 0.04989 0.31303 0.48175 0.0
H1449 H 0.97786 0.29808 0.4711 0.0
H1450 H 0.93413 0.25728 0.56614 0.0
H1451 H 0.9437 0.28671 0.54054 0.0
C1452 C 0.54127 0.21636 0.21035 0.0
C1453 C 0.53122 0.23612 0.20717 0.0
C1454 C 0.54813 0.21112 0.23097 0.0
C1455 C 0.56208 0.23881 0.28383 0.0
H1456 H 0.56832 0.17876 0.3011 0.0
C1457 C 0.60182 0.18623 0.3565 0.0
C1458 C 0.62231 0.19905 0.35825 0.0
C1459 C 0.58594 0.19145 0.34144 0.0
C1460 C 0.56628 0.19565 0.29679 0.0
H1461 H 0.51888 0.26507 0.22308 0.0
H1462 H 0.5296 0.25546 0.25897 0.0
H1463 H 0.54887 0.18528 0.26795 0.0
H1464 H 0.64147 0.22832 0.34693 0.0
H1465 H 0.61418 0.23729 0.32084 0.0
H1466 H 0.57901 0.24921 0.3128 0.0
C1467 C 0.53335 0.24446 0.24563 0.0
C1468 C 0.55546 0.1994 0.27752 0.0
C1469 C 0.52707 0.24994 0.22503 0.0
C1470 C 0.62586 0.21808 0.34593 0.0
C1471 C 0.61007 0.2233 0.33099 0.0
C1472 C 0.57253 0.23507 0.30319 0.0
C1473 C 0.54456 0.2253 0.24886 0.0
C1474 C 0.55377 0.22105 0.27047 0.0
C1475 C 0.59023 0.20966 0.32801 0.0
C1476 C 0.57546 0.21347 0.30958 0.0
H1477 H 0.5446 0.20543 0.19681 0.0
H1478 H 0.55692 0.19635 0.23269 0.0
H1479 H 0.56142 0.25574 0.279 0.0
H1480 H 0.59866 0.17137 0.3657 0.0
H1481 H 0.57069 0.18078 0.33978 0.0
C1482 C 0.61846 0.841 0.91766 0.0
C1483 C 0.61232 0.82281 0.90401 0.0
C1484 C 0.62535 0.83782 0.93867 0.0
C1485 C 0.61081 0.80162 0.98139 0.0
H1486 H 0.65612 0.83825 0.01242 0.0
C1487 C 0.63489 0.84129 0.07125 0.0
C1488 C 0.61675 0.85458 0.07315 0.0
C1489 C 0.6369 0.82723 0.05319 0.0
C1490 C 0.64371 0.82741 0.00405 0.0
H1491 H 0.61102 0.78705 0.90093 0.0
H1492 H 0.6221 0.78155 0.93809 0.0
H1493 H 0.65853 0.83482 0.97318 0.0
H1494 H 0.58449 0.86062 0.06004 0.0
H1495 H 0.58731 0.83527 0.0293 0.0
H1496 H 0.59467 0.79618 0.01209 0.0
C1497 C 0.62158 0.79822 0.93242 0.0
C1498 C 0.64503 0.82559 0.98159 0.0
C1499 C 0.61524 0.80142 0.91117 0.0
C1500 C 0.59883 0.85076 0.05881 0.0
C1501 C 0.60046 0.83622 0.04119 0.0
C1502 C 0.60917 0.80388 0.00383 0.0
C1503 C 0.62599 0.8164 0.94654 0.0
C1504 C 0.62808 0.81346 0.97001 0.0
C1505 C 0.62023 0.8256 0.0374 0.0
C1506 C 0.62514 0.81753 0.01525 0.0
H1507 H 0.61662 0.85769 0.91259 0.0
H1508 H 0.62857 0.85215 0.94926 0.0
H1509 H 0.59754 0.7921 0.97286 0.0
H1510 H 0.64858 0.84351 0.08238 0.0
H1511 H 0.6522 0.81905 0.05068 0.0
C1512 C 0.01868 0.23019 0.84491 0.0
C1513 C 0.00748 0.24704 0.85543 0.0
C1514 C 0.01704 0.22692 0.82253 0.0
C1515 C 0.00725 0.25895 0.7751 0.0
H1516 H 0.99011 0.20352 0.74528 0.0
C1517 C 0.95944 0.25378 0.69699 0.0
C1518 C 0.96133 0.23599 0.68239 0.0
C1519 C 0.97227 0.25557 0.71559 0.0
C1520 C 0.99555 0.21905 0.75325 0.0
H1521 H 0.9839 0.27199 0.85109 0.0
H1522 H 0.98097 0.26614 0.81242 0.0
H1523 H 0.99705 0.20393 0.78403 0.0
H1524 H 0.97927 0.20704 0.67492 0.0
H1525 H 0.00185 0.21014 0.70755 0.0
H1526 H 0.0051 0.27425 0.74465 0.0
C1527 C 0.99152 0.25593 0.82129 0.0
C1528 C -0.00062 0.21925 0.77544 0.0
C1529 C 0.99301 0.25907 0.84351 0.0
C1530 C 0.97761 0.22099 0.68585 0.0
C1531 C 0.99035 0.22264 0.70463 0.0
C1532 C 0.00364 0.25874 0.75296 0.0
C1533 C 0.00418 0.24046 0.81048 0.0
C1534 C 0.00425 0.23935 0.78666 0.0
C1535 C 0.98718 0.2395 0.72008 0.0
C1536 C 0.99671 0.23894 0.74198 0.0
H1537 H 0.02984 0.22055 0.8537 0.0
H1538 H 0.02672 0.21468 0.81453 0.0
H1539 H 0.01143 0.27462 0.78336 0.0
H1540 H 0.94707 0.26561 0.6947 0.0
H1541 H 0.96922 0.26865 0.7272 0.0
C1542 C 0.57921 0.29052 0.56037 0.0
C1543 C 0.59206 0.29603 0.57879 0.0
C1544 C 0.58876 0.28086 0.54222 0.0
C1545 C 0.63199 0.24397 0.52949 0.0
H1546 H 0.60898 0.24837 0.47175 0.0
C1547 C 0.61381 0.16844 0.4759 0.0
C1548 C 0.61955 0.16868 0.45391 0.0
C1549 C 0.61609 0.18771 0.48853 0.0
C1550 C 0.61597 0.24717 0.48764 0.0
H1551 H 0.62546 0.29703 0.59202 0.0
H1552 H 0.64222 0.27979 0.56016 0.0
H1553 H 0.60405 0.27803 0.49841 0.0
H1554 H 0.63148 0.18945 0.42765 0.0
H1555 H 0.63484 0.22372 0.44988 0.0
H1556 H 0.64289 0.21268 0.51909 0.0
C1557 C 0.62465 0.28292 0.55994 0.0
C1558 C 0.61302 0.26406 0.50296 0.0
C1559 C 0.61507 0.29279 0.57816 0.0
C1560 C 0.62701 0.18883 0.4446 0.0
C1561 C 0.6289 0.20837 0.45727 0.0
C1562 C 0.63484 0.22711 0.51424 0.0
C1563 C 0.61143 0.27635 0.54196 0.0
C1564 C 0.61997 0.26207 0.52435 0.0
C1565 C 0.62391 0.20784 0.47948 0.0
C1566 C 0.62585 0.22802 0.49351 0.0
H1567 H 0.56149 0.2931 0.56015 0.0
H1568 H 0.57797 0.27577 0.52884 0.0
H1569 H 0.63756 0.24185 0.54577 0.0
H1570 H 0.60798 0.1532 0.48357 0.0
H1571 H 0.61152 0.18685 0.50545 0.0
C1572 C 0.5316 0.82135 0.33322 0.0
C1573 C 0.55288 0.82326 0.34267 0.0
C1574 C 0.52813 0.83161 0.31371 0.0
C1575 C 0.53604 0.8368 0.2649 0.0
H1576 H 0.5663 0.89316 0.25007 0.0
C1577 C 0.58671 0.85135 0.18808 0.0
C1578 C 0.59136 0.87287 0.18071 0.0
C1579 C 0.57164 0.8473 0.20516 0.0
C1580 C 0.55717 0.87762 0.25378 0.0
H1581 H 0.58669 0.83836 0.34013 0.0
H1582 H 0.58054 0.85683 0.30662 0.0
H1583 H 0.55955 0.88456 0.28769 0.0
H1584 H 0.58309 0.90676 0.1846 0.0
H1585 H 0.55598 0.89967 0.21373 0.0
H1586 H 0.53475 0.82937 0.23098 0.0
C1587 C 0.56652 0.84745 0.31408 0.0
C1588 C 0.55352 0.87263 0.27543 0.0
C1589 C 0.57009 0.83687 0.33325 0.0
C1590 C 0.57913 0.88991 0.18932 0.0
C1591 C 0.56398 0.88588 0.2064 0.0
C1592 C 0.53973 0.84178 0.24319 0.0
C1593 C 0.54577 0.84427 0.30366 0.0
C1594 C 0.54393 0.85177 0.28123 0.0
C1595 C 0.56111 0.86478 0.21537 0.0
C1596 C 0.55135 0.86183 0.23741 0.0
H1597 H 0.51819 0.81059 0.34 0.0
H1598 H 0.51199 0.82888 0.30602 0.0
H1599 H 0.52863 0.82056 0.26887 0.0
H1600 H 0.59622 0.83802 0.18192 0.0
H1601 H 0.57007 0.83088 0.21168 0.0
C1602 C 0.93615 0.80551 0.07902 0.0
C1603 C 0.9505 0.78939 0.08448 0.0
C1604 C 0.92972 0.8075 0.05768 0.0
C1605 C 0.91844 0.80906 0.01022 0.0
H1606 H 0.9762 0.82204 0.98238 0.0
C1607 C 0.93241 0.86878 0.93875 0.0
C1608 C 0.94444 0.88779 0.94718 0.0
C1609 C 0.93166 0.84884 0.94972 0.0
C1610 C 0.95987 0.81794 0.98958 0.0
H1611 H 0.9678 0.76142 0.0725 0.0
H1612 H 0.95708 0.76531 0.03493 0.0
H1613 H 0.97346 0.79859 0.01374 0.0
H1614 H 0.96734 0.90006 0.97231 0.0
H1615 H 0.96698 0.86518 0.99068 0.0
H1616 H 0.90539 0.83011 0.98709 0.0
C1617 C 0.95051 0.77617 0.0472 0.0
C1618 C 0.95823 0.80442 0.00747 0.0
C1619 C 0.95653 0.77387 0.0687 0.0
C1620 C 0.95759 0.88587 0.96551 0.0
C1621 C 0.95746 0.86586 0.97602 0.0
C1622 C 0.92007 0.82238 0.99214 0.0
C1623 C 0.93799 0.79371 0.04136 0.0
C1624 C 0.93776 0.80095 0.01874 0.0
C1625 C 0.94392 0.8474 0.96867 0.0
C1626 C 0.94101 0.8279 0.98246 0.0
H1627 H 0.93136 0.8177 0.09093 0.0
H1628 H 0.92022 0.8213 0.05372 0.0
H1629 H 0.90245 0.80659 0.01856 0.0
H1630 H 0.92312 0.86946 0.92408 0.0
H1631 H 0.92122 0.83472 0.94369 0.0
C1632 C 0.74573 0.03009 0.79348 0.0
C1633 C 0.72587 0.03483 0.80426 0.0
C1634 C 0.76359 0.02286 0.80484 0.0
C1635 C 0.77185 0.9882 0.84903 0.0
H1636 H 0.83486 0.00215 0.83622 0.0
C1637 C 0.83804 0.92869 0.87101 0.0
C1638 C 0.85414 0.92521 0.85492 0.0
C1639 C 0.82416 0.94607 0.86957 0.0
C1640 C 0.81733 -0.00201 0.83992 0.0
H1641 H 0.7091 0.03672 0.83527 0.0
H1642 H 0.74033 0.02324 0.85532 0.0
H1643 H 0.80732 0.02738 0.82559 0.0
H1644 H 0.86862 0.93671 0.82481 0.0
H1645 H 0.84479 0.96745 0.82235 0.0
H1646 H 0.78141 0.9581 0.86187 0.0
C1647 C 0.74219 0.02556 0.83813 0.0
C1648 C 0.80163 0.01256 0.83402 0.0
C1649 C 0.72443 0.03333 0.82674 0.0
C1650 C 0.8566 0.93951 0.83761 0.0
C1651 C 0.84297 0.95712 0.83631 0.0
C1652 C 0.7875 0.9735 0.85469 0.0
C1653 C 0.7617 0.01974 0.82714 0.0
C1654 C 0.77867 0.00741 0.83786 0.0
C1655 C 0.82636 0.96047 0.85213 0.0
C1656 C 0.81036 0.97781 0.84947 0.0
H1657 H 0.74708 0.03108 0.77609 0.0
H1658 H 0.77827 0.01824 0.7959 0.0
H1659 H 0.75423 0.9837 0.85197 0.0
H1660 H 0.83575 0.91755 0.88435 0.0
H1661 H 0.81174 0.94822 0.88215 0.0
C1662 C 0.85712 0.98042 0.56343 0.0
C1663 C 0.86603 0.97112 0.54452 0.0
C1664 C 0.85755 0.00334 0.56638 0.0
C1665 C 0.86287 0.05467 0.53501 0.0
H1666 H 0.87568 0.08316 0.59051 0.0
C1667 C 0.90278 0.14215 0.5479 0.0
C1668 C 0.89866 0.15359 0.56733 0.0
C1669 C 0.89127 0.12178 0.54328 0.0
C1670 C 0.87149 0.07546 0.575 0.0
H1671 H 0.88381 0.97854 0.51458 0.0
H1672 H 0.88532 0.01845 0.52009 0.0
H1673 H 0.87315 0.04307 0.58727 0.0
H1674 H 0.87706 0.15433 0.59563 0.0
H1675 H 0.85706 0.11855 0.58766 0.0
H1676 H 0.86236 0.08723 0.52259 0.0
C1677 C 0.87725 0.00807 0.5323 0.0
C1678 C 0.87017 0.05244 0.57312 0.0
C1679 C 0.87672 0.98517 0.5293 0.0
C1680 C 0.88072 0.14579 0.58061 0.0
C1681 C 0.86939 0.12521 0.57614 0.0
C1682 C 0.86433 0.07771 0.53687 0.0
C1683 C 0.8671 0.01743 0.55057 0.0
C1684 C 0.86646 0.04179 0.55299 0.0
C1685 C 0.87557 0.11244 0.55812 0.0
C1686 C 0.86923 0.08836 0.55678 0.0
H1687 H 0.84879 0.97002 0.57548 0.0
H1688 H 0.8496 0.00997 0.58066 0.0
H1689 H 0.85935 0.04694 0.51938 0.0
H1690 H 0.91641 0.1479 0.53728 0.0
H1691 H 0.89639 0.11239 0.52923 0.0
C1692 C 0.84288 0.04577 0.2966 0.0
C1693 C 0.83993 0.03896 0.27502 0.0
C1694 C 0.82428 0.05013 0.30956 0.0
C1695 C 0.7658 0.06498 0.30288 0.0
H1696 H 0.7656 0.06569 0.36533 0.0
C1697 C 0.70069 0.11134 0.34911 0.0
C1698 C 0.71155 0.12824 0.36174 0.0
C1699 C 0.71223 0.09309 0.3424 0.0
C1700 C 0.76528 0.06529 0.34788 0.0
H1701 H 0.81544 0.02939 0.25051 0.0
H1702 H 0.78307 0.03555 0.27329 0.0
H1703 H 0.79444 0.04697 0.3453 0.0
H1704 H 0.7418 0.13873 0.37901 0.0
H1705 H 0.76177 0.1068 0.36778 0.0
H1706 H 0.73708 0.08372 0.30542 0.0
C1707 C 0.79959 0.03874 0.28009 0.0
C1708 C 0.78193 0.05478 0.33637 0.0
C1709 C 0.81814 0.03502 0.26704 0.0
C1710 C 0.73317 0.12577 0.36926 0.0
C1711 C 0.74452 0.10743 0.36292 0.0
C1712 C 0.74906 0.07517 0.31433 0.0
C1713 C 0.80238 0.04723 0.30127 0.0
C1714 C 0.78286 0.05515 0.3137 0.0
C1715 C 0.73463 0.09149 0.3485 0.0
C1716 C 0.74905 0.07611 0.33694 0.0
H1717 H 0.85957 0.04888 0.30307 0.0
H1718 H 0.82723 0.05684 0.32568 0.0
H1719 H 0.76602 0.0661 0.2855 0.0
H1720 H 0.68403 0.11308 0.34308 0.0
H1721 H 0.70417 0.08095 0.33137 0.0
C1722 C 0.76341 0.09669 0.03424 0.0
C1723 C 0.77155 0.11324 0.04902 0.0
C1724 C 0.75959 0.07483 0.04047 0.0
C1725 C 0.74703 0.04113 0.08781 0.0
H1726 H 0.75601 0.99338 0.04661 0.0
C1727 C 0.70723 0.95394 0.10233 0.0
C1728 C 0.69289 0.94703 0.08529 0.0
C1729 C 0.72398 0.97102 0.09944 0.0
C1730 C 0.7536 0.0065 0.05838 0.0
H1731 H 0.78232 0.11954 0.08199 0.0
H1732 H 0.77553 0.08116 0.0929 0.0
H1733 H 0.77153 0.03075 0.03904 0.0
H1734 H 0.68642 0.95074 0.05139 0.0
H1735 H 0.71583 0.98005 0.0462 0.0
H1736 H 0.72833 0.01703 0.10674 0.0
C1737 C 0.77203 0.08528 0.07648 0.0
C1738 C 0.76237 0.02792 0.05401 0.0
C1739 C 0.77593 0.10726 0.07022 0.0
C1740 C 0.69715 0.95581 0.06482 0.0
C1741 C 0.71408 0.97257 0.06185 0.0
C1742 C 0.73834 0.01967 0.09223 0.0
C1743 C 0.76382 0.06882 0.06165 0.0
C1744 C 0.75835 0.04564 0.06824 0.0
C1745 C 0.72695 0.9811 0.07936 0.0
C1746 C 0.74074 0.00231 0.07713 0.0
H1747 H 0.75989 0.10057 0.01775 0.0
H1748 H 0.75281 0.0627 0.02873 0.0
H1749 H 0.74355 0.05439 0.09908 0.0
H1750 H 0.70436 0.94745 0.11831 0.0
H1751 H 0.7338 0.97713 0.11317 0.0
C1752 C 0.74205 0.07329 0.73254 0.0
C1753 C 0.72594 0.06199 0.71922 0.0
C1754 C 0.76337 0.07984 0.72447 0.0
C1755 C 0.79403 0.0919 0.6736 0.0
H1756 H 0.8456 0.09357 0.71089 0.0
C1757 C 0.87802 0.13573 0.6476 0.0
C1758 C 0.88439 0.15277 0.66249 0.0
C1759 C 0.86241 0.11851 0.6536 0.0
C1760 C 0.8314 0.093 0.70021 0.0
H1761 H 0.71986 0.04849 0.68693 0.0
H1762 H 0.75713 0.05975 0.67294 0.0
H1763 H 0.80986 0.07572 0.72296 0.0
H1764 H 0.88138 0.16423 0.69563 0.0
H1765 H 0.85485 0.13401 0.70629 0.0
H1766 H 0.81546 0.10974 0.65113 0.0
C1767 C 0.75314 0.06381 0.68957 0.0
C1768 C 0.81087 0.08295 0.70718 0.0
C1769 C 0.73175 0.05733 0.69762 0.0
C1770 C 0.87675 0.15121 0.6839 0.0
C1771 C 0.86157 0.13387 0.68999 0.0
C1772 C 0.81461 0.10181 0.66659 0.0
C1773 C 0.76923 0.07516 0.7029 0.0
C1774 C 0.79173 0.08296 0.69427 0.0
C1775 C 0.85339 0.11793 0.67467 0.0
C1776 C 0.83332 0.10313 0.68012 0.0
H1777 H 0.73824 0.07717 0.74926 0.0
H1778 H 0.77513 0.08895 0.73512 0.0
H1779 H 0.77966 0.09237 0.66328 0.0
H1780 H 0.8836 0.13668 0.63096 0.0
H1781 H 0.8565 0.10635 0.64151 0.0
C1782 C 0.802 -0.00049 0.51002 0.0
C1783 C 0.80651 0.97811 0.50292 0.0
C1784 C 0.79315 0.01405 0.496 0.0
C1785 C 0.7798 0.04491 0.4619 0.0
H1786 H 0.72813 0.01814 0.43144 0.0
C1787 C 0.71428 0.09642 0.42231 0.0
C1788 C 0.69215 0.0898 0.42863 0.0
C1789 C 0.73175 0.08306 0.42634 0.0
C1790 C 0.74264 0.02584 0.43968 0.0
H1791 H 0.80658 0.9557 0.47512 0.0
H1792 H 0.79101 0.9812 0.45057 0.0
H1793 H 0.75393 0.99466 0.44789 0.0
H1794 H 0.67106 0.06381 0.44386 0.0
H1795 H 0.70134 0.04084 0.45099 0.0
H1796 H 0.76754 0.07613 0.45483 0.0
C1797 C 0.79411 0.98656 0.46711 0.0
C1798 C 0.75757 0.0124 0.44892 0.0
C1799 C 0.80305 0.97199 0.48116 0.0
C1800 C 0.68787 0.06949 0.4388 0.0
C1801 C 0.70521 0.05616 0.44269 0.0
C1802 C 0.76483 0.05838 0.45263 0.0
C1803 C 0.7886 0.00757 0.47452 0.0
C1804 C 0.77581 0.02178 0.46089 0.0
C1805 C 0.72733 0.06278 0.43657 0.0
C1806 C 0.7456 0.04893 0.44223 0.0
H1807 H 0.80479 0.00492 0.5266 0.0
H1808 H 0.78887 0.03 0.50234 0.0
H1809 H 0.79392 0.05261 0.47073 0.0
H1810 H 0.71813 0.11194 0.41437 0.0
H1811 H 0.74866 0.08853 0.42144 0.0
C1812 C 0.84694 0.01126 0.19885 0.0
C1813 C 0.85133 -0.00125 0.21686 0.0
C1814 C 0.8249 0.01257 0.19194 0.0
C1815 C 0.7766 0.99673 0.17592 0.0
H1816 H 0.7325 0.01007 0.21982 0.0
C1817 C 0.68457 0.96149 0.19711 0.0
C1818 C 0.67659 0.95806 0.17606 0.0
C1819 C 0.70304 0.97633 0.2012 0.0
C1820 C 0.74456 0.00644 0.2073 0.0
H1821 H 0.83613 0.97757 0.24152 0.0
H1822 H 0.79785 0.98009 0.22961 0.0
H1823 H 0.77235 0.01471 0.22816 0.0
H1824 H 0.67931 0.96997 0.14343 0.0
H1825 H 0.71147 0.99618 0.15062 0.0
H1826 H 0.74904 0.9866 0.15559 0.0
C1827 C 0.81141 0.98885 0.22086 0.0
C1828 C 0.76735 0.00914 0.21209 0.0
C1829 C 0.83336 0.9872 0.2275 0.0
C1830 C 0.68524 0.97212 0.15981 0.0
C1831 C 0.70387 0.98695 0.16388 0.0
C1832 C 0.75377 0.99368 0.17121 0.0
C1833 C 0.80695 0.00179 0.20324 0.0
C1834 C 0.78348 0.00341 0.19673 0.0
C1835 C 0.71391 0.98807 0.1843 0.0
C1836 C 0.73744 0.99748 0.18719 0.0
H1837 H 0.86047 0.02041 0.19042 0.0
H1838 H 0.82182 0.0225 0.1782 0.0
H1839 H 0.78877 0.99223 0.16382 0.0
H1840 H 0.67807 0.95102 0.20998 0.0
H1841 H 0.71013 0.97666 0.21717 0.0
C1842 C 0.80791 0.11707 0.95336 0.0
C1843 C 0.78649 0.1206 0.96154 0.0
C1844 C 0.81211 0.09698 0.94334 0.0
C1845 C 0.79428 0.03919 0.9476 0.0
H1846 H 0.83783 0.0332 0.90141 0.0
C1847 C 0.85552 0.97214 0.90546 0.0
C1848 C 0.86409 0.96399 0.92431 0.0
C1849 C 0.8401 0.98829 0.90656 0.0
C1850 C 0.8253 0.03436 0.91406 0.0
H1851 H 0.75232 0.10644 0.96478 0.0
H1852 H 0.75977 0.0709 0.94744 0.0
H1853 H 0.82116 0.06819 0.90733 0.0
H1854 H 0.86354 0.96621 0.95913 0.0
H1855 H 0.83672 0.99466 0.96125 0.0
H1856 H 0.79907 0.00559 0.95485 0.0
C1857 C 0.77325 0.08381 0.94868 0.0
C1858 C 0.81588 0.0545 0.91753 0.0
C1859 C 0.76895 0.10416 0.95842 0.0
C1860 C 0.85673 0.97194 0.94438 0.0
C1861 C 0.8413 0.98812 0.94554 0.0
C1862 C 0.80376 0.01903 0.94417 0.0
C1863 C 0.79504 0.07985 0.94158 0.0
C1864 C 0.80092 0.05738 0.93483 0.0
C1865 C 0.83322 0.99687 0.92661 0.0
C1866 C 0.82 0.01664 0.92785 0.0
H1867 H 0.82172 0.12949 0.95561 0.0
H1868 H 0.82913 0.09438 0.93827 0.0
H1869 H 0.78287 0.04094 0.96114 0.0
H1870 H 0.86184 0.96703 0.88983 0.0
H1871 H 0.83425 0.99467 0.89169 0.0
C1872 C 0.80461 0.72464 0.03567 0.0
C1873 C 0.80263 0.7063 0.02145 0.0
C1874 C 0.81934 0.7429 0.03089 0.0
C1875 C 0.86367 0.76363 0.99177 0.0
H1876 H 0.83047 0.8161 0.99277 0.0
C1877 C 0.86725 0.82389 0.92376 0.0
C1878 C 0.86999 0.84674 0.92814 0.0
C1879 C 0.86412 0.80909 0.94044 0.0
C1880 C 0.84024 0.8018 0.99284 0.0
H1881 H 0.81479 0.69188 0.99178 0.0
H1882 H 0.84053 0.72359 0.98327 0.0
H1883 H 0.817 0.78447 0.01399 0.0
H1884 H 0.87137 0.87201 0.95353 0.0
H1885 H 0.86461 0.84581 0.98292 0.0
H1886 H 0.88589 0.78049 0.96923 0.0
C1887 C 0.83122 0.72393 -0.00165 0.0
C1888 C 0.83259 0.78365 0.00503 0.0
C1889 C 0.81647 0.70575 0.00313 0.0
C1890 C 0.86914 0.85449 0.94968 0.0
C1891 C 0.8654 0.83957 0.96645 0.0
C1892 C 0.87119 0.7817 0.97946 0.0
C1893 C 0.83216 0.74309 0.01171 0.0
C1894 C 0.84359 0.76396 0.00375 0.0
C1895 C 0.86326 0.81672 0.96192 0.0
C1896 C 0.8589 0.80048 0.97909 0.0
H1897 H 0.79372 0.72543 0.04972 0.0
H1898 H 0.81979 0.7573 0.04158 0.0
H1899 H 0.87281 0.7489 0.99083 0.0
H1900 H 0.86806 0.81732 0.9074 0.0
H1901 H 0.86208 0.79157 0.9365 0.0
C1902 C 0.36137 0.88307 0.03221 0.0
C1903 C 0.34635 0.88653 0.01577 0.0
C1904 C 0.37257 0.86378 0.03224 0.0
C1905 C 0.3568 0.8078 0.02192 0.0
H1906 H 0.41418 0.80064 0.04795 0.0
C1907 C 0.40107 0.74926 0.08575 0.0
C1908 C 0.38717 0.75416 0.10341 0.0
C1909 C 0.3981 0.75873 0.06577 0.0
C1910 C 0.39834 0.80202 0.04008 0.0
H1911 H 0.33222 0.87353 0.9857 0.0
H1912 H 0.35116 0.8391 0.98623 0.0
H1913 H 0.40908 0.83364 0.02743 0.0
H1914 H 0.35758 0.77051 0.11331 0.0
H1915 H 0.35202 0.78641 0.07847 0.0
H1916 H 0.34533 0.77746 0.03673 0.0
C1917 C 0.35473 0.8516 -0.00126 0.0
C1918 C 0.39541 0.82094 0.02842 0.0
C1919 C 0.34397 0.87126 -0.00158 0.0
C1920 C 0.36884 0.76672 0.10014 0.0
C1921 C 0.36551 0.77567 0.08011 0.0
C1922 C 0.35966 0.78907 0.03384 0.0
C1923 C 0.36841 0.84733 0.01613 0.0
C1924 C 0.37419 0.82462 0.02045 0.0
C1925 C 0.38064 0.77252 0.06301 0.0
C1926 C 0.38004 0.78677 0.04414 0.0
H1927 H 0.36335 0.89463 0.04577 0.0
H1928 H 0.38276 0.86083 0.046 0.0
H1929 H 0.34023 0.81025 0.01604 0.0
H1930 H 0.41489 0.73907 0.08762 0.0
H1931 H 0.40995 0.75607 0.05278 0.0
C1932 C 0.94056 0.60031 0.7532 0.0
C1933 C 0.93621 0.57765 0.74834 0.0
C1934 C 0.96016 0.60801 0.76389 0.0
C1935 C 0.99225 0.61475 0.80146 0.0
H1936 H 0.04975 0.59047 0.79155 0.0
C1937 C 0.05655 0.61243 0.86799 0.0
C1938 C 0.07891 0.61984 0.86348 0.0
C1939 C 0.041 0.60927 0.85151 0.0
C1940 C 0.03388 0.5976 0.79432 0.0
H1941 H 0.94966 0.54551 0.74995 0.0
H1942 H 0.98361 0.55894 0.76866 0.0
H1943 H 0.0194 0.58208 0.76583 0.0
H1944 H 0.10268 0.62872 0.83785 0.0
H1945 H 0.07528 0.62289 0.80883 0.0
H1946 H 0.00645 0.62972 0.83022 0.0
C1947 C 0.97196 0.57077 0.76414 0.0
C1948 C 0.01648 0.59268 0.77972 0.0
C1949 C 0.95234 0.56305 0.7536 0.0
C1950 C 0.08555 0.62316 0.84189 0.0
C1951 C 0.06992 0.61979 0.82528 0.0
C1952 C 0.00953 0.61949 0.81609 0.0
C1953 C 0.97589 0.59326 0.76978 0.0
C1954 C 0.99532 0.60081 0.78342 0.0
C1955 C 0.04741 0.61324 0.83005 0.0
C1956 C 0.03032 0.61051 0.81297 0.0
H1957 H 0.92857 0.61203 0.74928 0.0
H1958 H 0.96285 0.62548 0.76786 0.0
H1959 H 0.97613 0.62114 0.80487 0.0
H1960 H 0.05078 0.60966 0.88439 0.0
H1961 H 0.02385 0.60379 0.85559 0.0
C1962 C 0.2069 0.19504 0.56828 0.0
C1963 C 0.22715 0.18764 0.57542 0.0
C1964 C 0.20081 0.21627 0.57421 0.0
C1965 C 0.21357 0.26106 0.61492 0.0
H1966 H 0.19165 0.30013 0.57288 0.0
C1967 C 0.21472 0.35216 0.63474 0.0
C1968 C 0.19368 0.36081 0.63414 0.0
C1969 C 0.21845 0.33244 0.62375 0.0
C1970 C 0.1977 0.28932 0.58474 0.0
H1971 H 0.25666 0.19648 0.59461 0.0
H1972 H 0.24626 0.23305 0.60471 0.0
H1973 H 0.19717 0.26152 0.56256 0.0
H1974 H 0.16047 0.35636 0.62064 0.0
H1975 H 0.16713 0.32199 0.60094 0.0
H1976 H 0.21459 0.28868 0.63694 0.0
C1977 C 0.23485 0.2226 0.59479 0.0
C1978 C 0.20069 0.26722 0.57892 0.0
C1979 C 0.24089 0.20159 0.58889 0.0
C1980 C 0.17705 0.35044 0.6208 0.0
C1981 C 0.18078 0.33061 0.60974 0.0
C1982 C 0.21082 0.28301 0.6206 0.0
C1983 C 0.21481 0.23029 0.58752 0.0
C1984 C 0.2091 0.25299 0.59388 0.0
C1985 C 0.20113 0.32088 0.6121 0.0
C1986 C 0.2033 0.2975 0.60551 0.0
H1987 H 0.19605 0.18468 0.55776 0.0
H1988 H 0.18519 0.22169 0.56845 0.0
H1989 H 0.21947 0.25042 0.62701 0.0
H1990 H 0.22775 0.35978 0.64504 0.0
H1991 H 0.23441 0.32544 0.62556 0.0
C1992 C 0.09757 0.02 0.76569 0.0
C1993 C 0.10263 0.04145 0.7743 0.0
C1994 C 0.07755 0.00792 0.7715 0.0
C1995 C 0.02117 0.01626 0.79414 0.0
H1996 H 0.02153 0.95663 0.81488 0.0
C1997 C 0.96271 0.98204 0.86021 0.0
C1998 C 0.95373 0.96004 0.85892 0.0
C1999 C 0.97746 0.99039 0.84433 0.0
C2000 C 0.02103 0.97309 0.80867 0.0
H2001 H 0.09075 0.06669 0.79618 0.0
H2002 H 0.05645 0.04575 0.80625 0.0
H2003 H 0.05517 0.97392 0.7975 0.0
H2004 H 0.9525 0.92964 0.83973 0.0
H2005 H 0.97897 0.94419 0.81206 0.0
H2006 H 0.98754 0.01593 0.80638 0.0
C2007 C 0.0676 0.03837 0.79472 0.0
C2008 C 0.04028 0.98298 0.79874 0.0
C2009 C 0.08747 0.05031 0.78906 0.0
C2010 C 0.95907 0.94674 0.84098 0.0
C2011 C 0.97428 0.95498 0.82526 0.0
C2012 C 0.00204 0.00644 0.80411 0.0
C2013 C 0.06222 0.01718 0.78583 0.0
C2014 C 0.04081 0.00501 0.79223 0.0
C2015 C 0.98388 0.9768 0.82701 0.0
C2016 C 0.00208 0.9851 0.81224 0.0
H2017 H 0.10884 0.01271 0.75423 0.0
H2018 H 0.07386 0.99156 0.76448 0.0
H2019 H 0.02091 0.03308 0.7888 0.0
H2020 H 0.95888 0.99261 0.87389 0.0
H2021 H 0.98479 0.00718 0.84623 0.0
C2022 C 0.71716 0.35365 0.53245 0.0
C2023 C 0.73768 0.3627 0.52392 0.0
C2024 C 0.71059 0.33112 0.5293 0.0
C2025 C 0.73383 0.27787 0.51307 0.0
H2026 H 0.67495 0.26169 0.48972 0.0
C2027 C 0.7165 0.2182 0.44328 0.0
C2028 C 0.69781 0.20273 0.44349 0.0
C2029 C 0.72056 0.23291 0.4606 0.0
C2030 C 0.69124 0.26579 0.49678 0.0
H2031 H 0.76733 0.35498 0.50544 0.0
H2032 H 0.75581 0.31634 0.49975 0.0
H2033 H 0.68306 0.29848 0.50606 0.0
H2034 H 0.6702 0.18897 0.46313 0.0
H2035 H 0.67669 0.21581 0.49313 0.0
H2036 H 0.74258 0.24591 0.50203 0.0
C2037 C 0.74492 0.32638 0.50923 0.0
C2038 C 0.69591 0.28687 0.5061 0.0
C2039 C 0.75142 0.34873 0.51228 0.0
C2040 C 0.68427 0.20119 0.4622 0.0
C2041 C 0.68801 0.21641 0.47938 0.0
C2042 C 0.72925 0.25699 0.50357 0.0
C2043 C 0.72451 0.31723 0.51775 0.0
C2044 C 0.71766 0.29352 0.51322 0.0
C2045 C 0.70589 0.23271 0.47843 0.0
C2046 C 0.70829 0.25121 0.49436 0.0
H2047 H 0.7062 0.36392 0.54156 0.0
H2048 H 0.69473 0.32456 0.53601 0.0
H2049 H 0.75055 0.28227 0.51902 0.0
H2050 H 0.72753 0.21962 0.42932 0.0
H2051 H 0.73446 0.24537 0.45944 0.0
C2052 C 0.93653 0.48114 0.69556 0.0
C2053 C 0.93073 0.48824 0.71641 0.0
C2054 C 0.95602 0.47037 0.69193 0.0
C2055 C 0.01226 0.47136 0.71002 0.0
H2056 H 0.01508 0.42267 0.66866 0.0
C2057 C 0.09342 0.44973 0.66211 0.0
C2058 C 0.08935 0.45002 0.63988 0.0
C2059 C 0.07548 0.45012 0.67695 0.0
C2060 C 0.01461 0.43606 0.6805 0.0
H2061 H 0.94033 0.48935 0.74996 0.0
H2062 H 0.97517 0.47102 0.74344 0.0
H2063 H 0.97923 0.43013 0.68548 0.0
H2064 H 0.06358 0.45041 0.61571 0.0
H2065 H 0.03263 0.45018 0.64129 0.0
H2066 H 0.04741 0.47831 0.70365 0.0
C2067 C 0.96429 0.47343 0.73004 0.0
C2068 C 0.99414 0.4403 0.69011 0.0
C2069 C 0.94438 0.48377 0.73376 0.0
C2070 C 0.06725 0.45029 0.63275 0.0
C2071 C 0.04947 0.44993 0.6474 0.0
C2072 C 0.03282 0.46716 0.70029 0.0
C2073 C 0.97039 0.46691 0.70902 0.0
C2074 C 0.99257 0.45867 0.70408 0.0
C2075 C 0.05332 0.44974 0.66962 0.0
C2076 C 0.03386 0.45021 0.68456 0.0
H2077 H 0.92629 0.48448 0.68193 0.0
H2078 H 0.96047 0.4658 0.67552 0.0
H2079 H 0.01146 0.48568 0.7207 0.0
H2080 H 0.11037 0.44956 0.66796 0.0
H2081 H 0.07883 0.4504 0.69405 0.0
C2082 C 0.58081 0.59751 0.25323 0.0
C2083 C 0.60294 0.60606 0.24988 0.0
C2084 C 0.56301 0.61044 0.24958 0.0
C2085 C 0.54988 0.6669 0.23127 0.0
H2086 H 0.50187 0.63217 0.20204 0.0
C2087 C 0.51313 0.68427 0.15083 0.0
C2088 C 0.49001 0.68083 0.14743 0.0
C2089 C 0.52194 0.68108 0.17102 0.0
C2090 C 0.51475 0.64218 0.21067 0.0
H2091 H 0.62424 0.6348 0.24107 0.0
H2092 H 0.59336 0.65688 0.23271 0.0
H2093 H 0.52763 0.61384 0.22367 0.0
H2094 H 0.45772 0.67255 0.16246 0.0
H2095 H 0.47345 0.66549 0.19789 0.0
H2096 H 0.53833 0.69484 0.21554 0.0
C2097 C 0.58938 0.64066 0.23916 0.0
C2098 C 0.52967 0.63167 0.22321 0.0
C2099 C 0.60719 0.62795 0.24366 0.0
C2100 C 0.47562 0.6752 0.1648 0.0
C2101 C 0.48456 0.67132 0.18498 0.0
C2102 C 0.53531 0.6773 0.21815 0.0
C2103 C 0.56696 0.63187 0.2415 0.0
C2104 C 0.54816 0.64372 0.23283 0.0
C2105 C 0.50786 0.6738 0.18805 0.0
C2106 C 0.51823 0.66484 0.20704 0.0
H2107 H 0.57725 0.5807 0.25845 0.0
H2108 H 0.54615 0.60325 0.25239 0.0
H2109 H 0.5633 0.67694 0.23904 0.0
H2110 H 0.52449 0.68889 0.13768 0.0
H2111 H 0.53997 0.6828 0.1729 0.0
C2112 C 0.53161 0.7513 0.82332 0.0
C2113 C 0.53823 0.77392 0.82506 0.0
C2114 C 0.52741 0.74125 0.80311 0.0
C2115 C 0.53111 0.75313 0.74337 0.0
H2116 H 0.56152 0.69901 0.7425 0.0
C2117 C 0.60418 0.73205 0.68931 0.0
C2118 C 0.6054 0.71036 0.6813 0.0
C2119 C 0.58552 0.73778 0.70132 0.0
C2120 C 0.55247 0.7138 0.74235 0.0
H2121 H 0.54363 0.8042 0.80738 0.0
H2122 H 0.53794 0.78678 0.77235 0.0
H2123 H 0.54632 0.71255 0.77603 0.0
H2124 H 0.58774 0.67794 0.67837 0.0
H2125 H 0.55544 0.68778 0.70039 0.0
H2126 H 0.5401 0.75538 0.70984 0.0
C2127 C 0.5351 0.77657 0.78629 0.0
C2128 C 0.54357 0.72166 0.76169 0.0
C2129 C 0.53855 0.78669 0.80653 0.0
C2130 C 0.58706 0.69483 0.68427 0.0
C2131 C 0.56863 0.70042 0.69682 0.0
C2132 C 0.54062 0.74554 0.72411 0.0
C2133 C 0.53071 0.75347 0.78416 0.0
C2134 C 0.53385 0.7421 0.76277 0.0
C2135 C 0.56807 0.72177 0.70598 0.0
C2136 C 0.55226 0.72634 0.72373 0.0
H2137 H 0.53086 0.74116 0.83745 0.0
H2138 H 0.52306 0.72363 0.80233 0.0
H2139 H 0.52298 0.76844 0.74325 0.0
H2140 H 0.61813 0.74427 0.68718 0.0
H2141 H 0.58563 0.75426 0.70847 0.0
C2142 C 0.55641 0.29992 0.0995 0.0
C2143 C 0.55579 0.27732 0.10394 0.0
C2144 C 0.56353 0.30742 0.07927 0.0
C2145 C 0.59508 0.30076 0.031 0.0
H2146 H 0.54402 0.32058 0.00118 0.0
C2147 C 0.60433 0.33933 0.94658 0.0
C2148 C 0.59421 0.35942 0.94539 0.0
C2149 C 0.59923 0.32518 0.96378 0.0
C2150 C 0.55848 0.31518 0.00926 0.0
H2151 H 0.56393 0.24518 0.09141 0.0
H2152 H 0.57714 0.2586 0.05621 0.0
H2153 H 0.53897 0.3056 0.03714 0.0
H2154 H 0.56923 0.37929 0.96028 0.0
H2155 H 0.56051 0.35502 0.9898 0.0
H2156 H 0.6149 0.31147 0.00365 0.0
C2157 C 0.57181 0.27031 0.06833 0.0
C2158 C 0.55555 0.30659 0.0298 0.0
C2159 C 0.56429 0.2627 0.08844 0.0
C2160 C 0.57761 0.36412 0.96072 0.0
C2161 C 0.57245 0.35003 0.97769 0.0
C2162 C 0.59813 0.30971 0.0105 0.0
C2163 C 0.57059 0.29255 0.06336 0.0
C2164 C 0.57389 0.29983 0.041 0.0
C2165 C 0.58361 0.3307 0.97982 0.0
C2166 C 0.57994 0.31761 -0.00034 0.0
H2167 H 0.5497 0.31153 0.11096 0.0
H2168 H 0.56248 0.32467 0.07566 0.0
H2169 H 0.60939 0.29545 0.03941 0.0
H2170 H 0.61673 0.33489 0.93474 0.0
H2171 H 0.60785 0.3102 0.96475 0.0
C2172 C 0.03559 0.38025 0.31564 0.0
C2173 C 0.05519 0.36895 0.31582 0.0
C2174 C 0.02694 0.38671 0.2962 0.0
C2175 C 0.02339 0.36637 0.24116 0.0
H2176 H 0.98923 0.41736 0.23386 0.0
C2177 C 0.94964 0.39796 0.18345 0.0
C2178 C 0.93315 0.38094 0.18797 0.0
C2179 C 0.97045 0.39888 0.1937 0.0
C2180 C -0.00087 0.40329 0.23535 0.0
H2181 H 0.08193 0.35682 0.29592 0.0
H2182 H 0.06662 0.36788 0.2619 0.0
H2183 H 0.01582 0.41723 0.26345 0.0
H2184 H 0.9264 0.3502 0.20479 0.0
H2185 H 0.96263 0.35145 0.22197 0.0
H2186 H 0.00554 0.35183 0.21402 0.0
C2187 C 0.05798 0.37174 0.27682 0.0
C2188 C 0.01416 0.40312 0.25239 0.0
C2189 C 0.06677 0.3655 0.29631 0.0
C2190 C 0.93858 0.36376 0.20121 0.0
C2191 C 0.95943 0.36439 0.21098 0.0
C2192 C 0.00821 0.36646 0.2243 0.0
C2193 C 0.0376 0.3818 0.27652 0.0
C2194 C 0.02578 0.38429 0.25596 0.0
C2195 C 0.97526 0.38232 0.20796 0.0
C2196 C 0.9953 0.38456 0.22176 0.0
H2197 H 0.02632 0.38318 0.33043 0.0
H2198 H 0.01109 0.39422 0.29651 0.0
H2199 H 0.03195 0.35155 0.24356 0.0
H2200 H 0.94611 0.41106 0.17283 0.0
H2201 H 0.98251 0.41278 0.19099 0.0
C2202 C 0.98268 0.79486 0.59318 0.0
C2203 C 0.97619 0.78038 0.60985 0.0
C2204 C 0.97708 0.78939 0.57188 0.0
C2205 C 0.98104 0.76218 0.53039 0.0
H2206 H 0.92387 0.73589 0.51005 0.0
C2207 C 0.9689 0.69592 0.46323 0.0
C2208 C 0.95233 0.69813 0.44775 0.0
C2209 C 0.97195 0.71128 0.48021 0.0
C2210 C 0.93983 0.74354 0.51544 0.0
H2211 H 0.95735 0.74962 0.61746 0.0
H2212 H 0.94729 0.74016 0.58008 0.0
H2213 H 0.92651 0.7526 0.54644 0.0
H2214 H 0.92761 0.71948 0.43681 0.0
H2215 H 0.93221 0.74582 0.46735 0.0
H2216 H 0.99467 0.75188 0.49996 0.0
C2217 C 0.95679 0.7557 0.58359 0.0
C2218 C 0.94136 0.7529 0.53625 0.0
C2219 C 0.9626 0.76108 0.60496 0.0
C2220 C 0.94003 0.71696 0.44879 0.0
C2221 C 0.94269 0.73207 0.46617 0.0
C2222 C 0.97961 0.75245 0.50979 0.0
C2223 C 0.96463 0.76948 0.5668 0.0
C2224 C 0.96208 0.76193 0.54403 0.0
C2225 C 0.9583 0.72899 0.48227 0.0
C2226 C 0.95909 0.74267 0.50231 0.0
H2227 H 0.99309 0.80993 0.5964 0.0
H2228 H 0.98316 0.80038 0.55925 0.0
H2229 H 0.99721 0.76894 0.53608 0.0
H2230 H 0.97894 0.6818 0.46275 0.0
H2231 H 0.98412 0.70857 0.49244 0.0
C2232 C 0.55295 0.35406 0.67799 0.0
C2233 C 0.53358 0.34299 0.66928 0.0
C2234 C 0.55465 0.35781 0.70025 0.0
C2235 C 0.54897 0.3703 0.74838 0.0
H2236 H 0.54285 0.31512 0.77885 0.0
C2237 C 0.57845 0.36563 0.83546 0.0
C2238 C 0.59645 0.35203 0.83565 0.0
C2239 C 0.56346 0.36415 0.81829 0.0
C2240 C 0.54416 0.33072 0.77066 0.0
H2241 H 0.50041 0.32797 0.67693 0.0
H2242 H 0.50368 0.33408 0.71578 0.0
H2243 H 0.53104 0.31594 0.74134 0.0
H2244 H 0.6107 0.32395 0.81977 0.0
H2245 H 0.58425 0.32096 0.79038 0.0
H2246 H 0.56299 0.38487 0.77743 0.0
C2247 C 0.5174 0.34003 0.70537 0.0
C2248 C 0.5374 0.33121 0.74926 0.0
C2249 C 0.51555 0.33663 0.68313 0.0
C2250 C 0.59733 0.33502 0.81992 0.0
C2251 C 0.58209 0.33322 0.80309 0.0
C2252 C 0.55538 0.36989 0.76991 0.0
C2253 C 0.53713 0.35024 0.71415 0.0
C2254 C 0.54051 0.35083 0.73772 0.0
C2255 C 0.56577 0.34849 0.80152 0.0
C2256 C 0.55383 0.34991 0.78097 0.0
H2257 H 0.5671 0.35907 0.6677 0.0
H2258 H 0.57014 0.36553 0.70668 0.0
H2259 H 0.55141 0.38562 0.7398 0.0
H2260 H 0.57675 0.37832 0.84778 0.0
H2261 H 0.55075 0.37587 0.81758 0.0
C2262 C 0.02094 0.32593 0.95426 0.0
C2263 C 0.01532 0.30339 0.95009 0.0
C2264 C 0.01409 0.33601 0.97338 0.0
C2265 C 0.99238 0.32542 0.02869 0.0
H2266 H 0.97368 0.38479 0.02357 0.0
C2267 C 0.9467 0.37759 0.0946 0.0
C2268 C 0.95445 0.40004 0.09601 0.0
C2269 C 0.95575 0.36351 0.07907 0.0
C2270 C 0.97903 0.36828 0.02529 0.0
H2271 H -0.0015 0.27356 0.96286 0.0
H2272 H 0.98587 0.29142 0.99623 0.0
H2273 H 0.98512 0.36465 0.99154 0.0
H2274 H 0.97922 0.42475 0.08385 0.0
H2275 H 0.99493 0.40027 0.057 0.0
H2276 H 0.98561 0.32923 0.06266 0.0
C2277 C 0.9959 0.3012 0.98479 0.0
C2278 C 0.98565 0.35674 0.00694 0.0
C2279 C 0.00299 0.291 0.96564 0.0
C2280 C 0.97264 0.40764 0.08294 0.0
C2281 C 0.98162 0.39365 0.06753 0.0
C2282 C 0.98547 0.33699 0.04715 0.0
C2283 C 0.00116 0.3239 0.98874 0.0
C2284 C 0.99284 0.33534 0.0084 0.0
C2285 C 0.97263 0.37175 0.06482 0.0
C2286 C 0.97916 0.35869 0.0456 0.0
H2287 H 0.03073 0.33585 0.94275 0.0
H2288 H 0.01897 0.35339 0.97612 0.0
H2289 H -0.00213 0.30898 0.03037 0.0
H2290 H 0.93268 0.37126 0.10444 0.0
H2291 H 0.94856 0.34666 0.07728 0.0
C2292 C 0.0053 0.74872 0.18443 0.0
C2293 C 0.02298 0.76481 0.18074 0.0
C2294 C 0.00441 0.73669 0.20338 0.0
C2295 C 0.02251 0.7446 0.25922 0.0
H2296 H 0.99195 0.68646 0.26525 0.0
C2297 C 0.97436 0.68385 0.3267 0.0
C2298 C 0.96091 0.69968 0.3358 0.0
C2299 C 0.98973 0.68959 0.31019 0.0
C2300 C 0.001 0.70251 0.26395 0.0
H2301 H 0.05466 0.77935 0.19312 0.0
H2302 H 0.05321 0.75816 0.22589 0.0
H2303 H 0.00442 0.69873 0.22968 0.0
H2304 H 0.95381 0.73408 0.33598 0.0
H2305 H 0.98052 0.74424 0.30742 0.0
H2306 H 0.01846 0.74868 0.29335 0.0
C2307 C 0.03978 0.7552 0.21442 0.0
C2308 C 0.00788 0.70965 0.2435 0.0
C2309 C 0.04064 0.76727 0.19555 0.0
C2310 C 0.96417 0.72164 0.32931 0.0
C2311 C 0.97957 0.72743 0.31299 0.0
C2312 C 0.01567 0.73746 0.27964 0.0
C2313 C 0.02122 0.74042 0.21897 0.0
C2314 C 0.01793 0.73109 0.2408 0.0
C2315 C 0.99186 0.71131 0.30261 0.0
C2316 C 0.00399 0.7167 0.28213 0.0
H2317 H 0.99138 0.74645 0.17343 0.0
H2318 H 0.98975 0.72557 0.20642 0.0
H2319 H 0.03008 0.76128 0.25778 0.0
H2320 H 0.97163 0.66672 0.33106 0.0
H2321 H -0.00096 0.67682 0.30259 0.0
C2322 C 0.57808 0.78882 0.45961 0.0
C2323 C 0.59305 0.78806 0.44201 0.0
C2324 C 0.58482 0.78365 0.4802 0.0
C2325 C 0.62674 0.75004 0.50368 0.0
H2326 H 0.59493 0.76364 0.55664 0.0
C2327 C 0.63619 0.69921 0.57883 0.0
C2328 C 0.61557 0.68959 0.58622 0.0
C2329 C 0.63689 0.71702 0.56495 0.0
C2330 C 0.60407 0.75984 0.54199 0.0
H2331 H 0.62754 0.78413 0.43262 0.0
H2332 H 0.63974 0.77648 0.46876 0.0
H2333 H 0.5912 0.78635 0.52513 0.0
H2334 H 0.57962 0.69125 0.58581 0.0
H2335 H 0.58082 0.72307 0.56225 0.0
H2336 H 0.63929 0.72338 0.52042 0.0
C2337 C 0.62244 0.77986 0.46654 0.0
C2338 C 0.60188 0.77275 0.52389 0.0
C2339 C 0.61553 0.78449 0.44583 0.0
C2340 C 0.59573 0.69875 0.58059 0.0
C2341 C 0.59645 0.71693 0.56716 0.0
C2342 C 0.6292 0.73743 0.52182 0.0
C2343 C 0.60686 0.77809 0.48376 0.0
C2344 C 0.61255 0.76752 0.50423 0.0
C2345 C 0.61701 0.72576 0.55863 0.0
C2346 C 0.61733 0.74172 0.54094 0.0
H2347 H 0.56062 0.79156 0.45724 0.0
H2348 H 0.5722 0.7824 0.49287 0.0
H2349 H 0.63492 0.74507 0.48887 0.0
H2350 H 0.65165 0.69197 0.58246 0.0
H2351 H 0.65293 0.72339 0.55848 0.0
C2352 C 0.81686 0.52248 0.70021 0.0
C2353 C 0.83624 0.53517 0.69359 0.0
C2354 C 0.79563 0.5296 0.69636 0.0
C2355 C 0.76488 0.56846 0.66531 0.0
H2356 H 0.73185 0.57766 0.71859 0.0
C2357 C 0.71228 0.63983 0.70121 0.0
C2358 C 0.69724 0.64286 0.68456 0.0
C2359 C 0.72333 0.62049 0.70205 0.0
C2360 C 0.74064 0.57485 0.70352 0.0
H2361 H 0.84873 0.5644 0.67667 0.0
H2362 H 0.81169 0.57654 0.6694 0.0
H2363 H 0.76354 0.55454 0.71822 0.0
H2364 H 0.68025 0.62697 0.65711 0.0
H2365 H 0.70051 0.59342 0.65788 0.0
H2366 H 0.7428 0.58983 0.65098 0.0
C2367 C 0.81284 0.56117 0.67763 0.0
C2368 C 0.75869 0.56153 0.70326 0.0
C2369 C 0.83404 0.55429 0.68185 0.0
C2370 C 0.69225 0.62541 0.66969 0.0
C2371 C 0.70369 0.60615 0.67024 0.0
C2372 C 0.74668 0.58157 0.66553 0.0
C2373 C 0.79346 0.54927 0.68542 0.0
C2374 C 0.77155 0.55898 0.68436 0.0
C2375 C 0.71978 0.60379 0.68614 0.0
C2376 C 0.735 0.58565 0.68483 0.0
H2377 H 0.8181 0.50779 0.70953 0.0
H2378 H 0.78096 0.52016 0.70256 0.0
H2379 H 0.77445 0.56663 0.65051 0.0
H2380 H 0.71632 0.65282 0.71312 0.0
H2381 H 0.73574 0.61924 0.71441 0.0
C2382 C 0.73536 0.60289 0.97465 0.0
C2383 C 0.74973 0.60692 0.99227 0.0
C2384 C 0.73175 0.58163 0.96568 0.0
C2385 C 0.75007 0.52522 0.96197 0.0
H2386 H 0.68627 0.50851 0.96465 0.0
C2387 C 0.69838 0.44757 0.92441 0.0
C2388 C 0.68076 0.43908 0.93771 0.0
C2389 C 0.71292 0.46524 0.93186 0.0
C2390 C 0.70415 0.51289 0.96392 0.0
H2391 H 0.77309 0.59207 0.01298 0.0
H2392 H 0.76666 0.55493 0.99719 0.0
H2393 H 0.69987 0.54635 0.97333 0.0
H2394 H 0.66626 0.44003 0.96983 0.0
H2395 H 0.69184 0.47043 0.98291 0.0
H2396 H 0.75403 0.49141 0.95221 0.0
C2397 C 0.75822 0.56828 0.99043 0.0
C2398 C 0.7119 0.53461 0.96862 0.0
C2399 C 0.76176 0.58955 -0.00046 0.0
C2400 C 0.67969 0.4464 0.95929 0.0
C2401 C 0.69425 0.46382 0.96673 0.0
C2402 C 0.7422 0.50337 0.95684 0.0
C2403 C 0.74252 0.564 0.97401 0.0
C2404 C 0.7349 0.54102 0.96776 0.0
C2405 C 0.70995 0.47434 0.95265 0.0
C2406 C 0.71916 0.49704 0.95808 0.0
H2407 H 0.72599 0.61587 0.96847 0.0
H2408 H 0.71971 0.57875 0.95285 0.0
H2409 H 0.76791 0.52982 0.96126 0.0
H2410 H 0.69937 0.4423 0.90763 0.0
H2411 H 0.72489 0.47315 0.92071 0.0
C2412 C 0.68503 0.51363 0.23292 0.0
C2413 C 0.68321 0.53618 0.22952 0.0
C2414 C 0.70404 0.50347 0.22583 0.0
C2415 C 0.75364 0.50746 0.19019 0.0
H2416 H 0.77981 0.47509 0.23532 0.0
C2417 C 0.83834 0.46731 0.17904 0.0
C2418 C 0.8382 0.44554 0.18632 0.0
C2419 C 0.82058 0.48032 0.18427 0.0
C2420 C 0.77266 0.48391 0.22247 0.0
H2421 H 0.69912 0.56539 0.21464 0.0
H2422 H 0.73229 0.54747 0.20203 0.0
H2423 H 0.74531 0.49282 0.24253 0.0
H2424 H 0.81966 0.4208 0.20557 0.0
H2425 H 0.78905 0.44326 0.21458 0.0
H2426 H 0.78084 0.49805 0.16996 0.0
C2427 C 0.71905 0.53775 0.21031 0.0
C2428 C 0.75287 0.49403 0.2266 0.0
C2429 C 0.70007 0.54798 0.21756 0.0
C2430 C 0.82043 0.43747 0.19967 0.0
C2431 C 0.80283 0.45042 0.20493 0.0
C2432 C 0.77344 0.49712 0.18596 0.0
C2433 C 0.72154 0.5156 0.21506 0.0
C2434 C 0.74294 0.50557 0.21043 0.0
C2435 C 0.80251 0.47189 0.19711 0.0
C2436 C 0.78293 0.48489 0.20198 0.0
H2437 H 0.67231 0.50407 0.24202 0.0
H2438 H 0.70539 0.48625 0.22939 0.0
H2439 H 0.74635 0.51636 0.17747 0.0
H2440 H 0.85189 0.47416 0.16893 0.0
H2441 H 0.82095 0.4969 0.1782 0.0
C2442 C 0.77478 0.47313 0.47325 0.0
C2443 C 0.75996 0.47348 0.49102 0.0
C2444 C 0.78175 0.49265 0.46283 0.0
C2445 C 0.79205 0.53645 0.44067 0.0
H2446 H 0.81222 0.58102 0.48341 0.0
C2447 C 0.85244 0.61215 0.41926 0.0
C2448 C 0.87167 0.61347 0.43211 0.0
C2449 C 0.83338 0.59873 0.42526 0.0
C2450 C 0.80646 0.56887 0.47123 0.0
H2451 H 0.73926 0.49441 0.51044 0.0
H2452 H 0.75132 0.52831 0.49216 0.0
H2453 H 0.78751 0.54947 0.49428 0.0
H2454 H 0.8857 0.60291 0.46177 0.0
H2455 H 0.85247 0.58001 0.47245 0.0
H2456 H 0.81223 0.55534 0.4179 0.0
C2457 C 0.7578 0.51299 0.48651 0.0
C2458 C 0.79212 0.55087 0.4774 0.0
C2459 C 0.75078 0.49348 0.49688 0.0
C2460 C 0.8711 0.60218 0.45157 0.0
C2461 C 0.85202 0.58917 0.45774 0.0
C2462 C 0.80634 0.55457 0.43447 0.0
C2463 C 0.77408 0.51295 0.46997 0.0
C2464 C 0.7854 0.53403 0.46235 0.0
C2465 C 0.83314 0.58686 0.44443 0.0
C2466 C 0.81437 0.57049 0.44988 0.0
H2467 H 0.78214 0.45805 0.46823 0.0
H2468 H 0.7944 0.49202 0.45023 0.0
H2469 H 0.78697 0.52387 0.42866 0.0
H2470 H 0.85253 0.62053 0.40406 0.0
H2471 H 0.81906 0.59723 0.41471 0.0
C2472 C 0.82967 0.52059 0.7798 0.0
C2473 C 0.82736 0.53665 0.76427 0.0
C2474 C 0.81087 0.51126 0.79081 0.0
C2475 C 0.75134 0.4978 0.78257 0.0
H2476 H 0.75051 0.48292 0.84298 0.0
C2477 C 0.69029 0.44819 0.84913 0.0
C2478 C 0.68695 0.42772 0.83809 0.0
C2479 C 0.70478 0.46507 0.84063 0.0
C2480 C 0.75035 0.48725 0.82617 0.0
H2481 H 0.8035 0.55597 0.74856 0.0
H2482 H 0.77077 0.53956 0.76767 0.0
H2483 H 0.78185 0.50646 0.8284 0.0
H2484 H 0.69507 0.40929 0.80901 0.0
H2485 H 0.71988 0.43886 0.79399 0.0
H2486 H 0.7203 0.47791 0.78014 0.0
C2487 C 0.78713 0.53425 0.77137 0.0
C2488 C 0.76836 0.50053 0.8178 0.0
C2489 C 0.80594 0.54376 0.76055 0.0
C2490 C 0.69736 0.42488 0.81789 0.0
C2491 C 0.71148 0.44184 0.80925 0.0
C2492 C 0.73349 0.48431 0.79087 0.0
C2493 C 0.78935 0.51762 0.78631 0.0
C2494 C 0.76922 0.50562 0.79584 0.0
C2495 C 0.71578 0.46189 0.82076 0.0
C2496 C 0.73302 0.47857 0.81265 0.0
H2497 H 0.84592 0.51474 0.78301 0.0
H2498 H 0.81306 0.49833 0.80211 0.0
H2499 H 0.75162 0.50129 0.76554 0.0
H2500 H 0.6826 0.45078 0.86481 0.0
H2501 H 0.70774 0.48042 0.84977 0.0
C2502 C 0.78479 0.59753 0.09157 0.0
C2503 C 0.76513 0.6009 0.08051 0.0
C2504 C 0.78802 0.57688 0.09984 0.0
C2505 C 0.77679 0.5204 0.08453 0.0
H2506 H 0.81043 0.51134 0.13607 0.0
C2507 C 0.8472 0.46261 0.12037 0.0
C2508 C 0.86327 0.4676 0.1042 0.0
C2509 C 0.82616 0.47122 0.11975 0.0
C2510 C 0.80048 0.51322 0.12188 0.0
H2511 H 0.73292 0.58575 0.07026 0.0
H2512 H 0.73897 0.54927 0.08414 0.0
H2513 H 0.78951 0.54414 0.13364 0.0
H2514 H 0.86895 0.48266 0.07313 0.0
H2515 H 0.83228 0.49699 0.07161 0.0
H2516 H 0.78951 0.49057 0.07196 0.0
C2517 C 0.75165 0.56275 0.08671 0.0
C2518 C 0.78867 0.53209 0.12044 0.0
C2519 C 0.74822 0.58358 0.07881 0.0
C2520 C 0.85701 0.47885 0.08604 0.0
C2521 C 0.8359 0.48692 0.0851 0.0
C2522 C 0.78881 0.50166 0.08587 0.0
C2523 C 0.77182 0.5591 0.09687 0.0
C2524 C 0.77782 0.53645 0.10127 0.0
C2525 C 0.82073 0.48424 0.10247 0.0
C2526 C 0.80186 0.49863 0.10404 0.0
H2527 H 0.79805 0.61062 0.09314 0.0
H2528 H 0.80387 0.57448 0.10731 0.0
H2529 H 0.76859 0.52335 0.06955 0.0
H2530 H 0.85143 0.45356 0.13424 0.0
H2531 H 0.81469 0.46881 0.13328 0.0
C2532 C 0.70876 0.55616 0.3009 0.0
C2533 C 0.69765 0.57452 0.30852 0.0
C2534 C 0.73069 0.55335 0.30712 0.0
C2535 C 0.78113 0.56407 0.30798 0.0
H2536 H 0.80435 0.58374 0.36376 0.0
C2537 C 0.86227 0.61626 0.31994 0.0
C2538 C 0.87307 0.61684 0.33987 0.0
C2539 C 0.84407 0.60107 0.31593 0.0
C2540 C 0.79825 0.5776 0.34822 0.0
H2541 H 0.70052 0.60358 0.32965 0.0
H2542 H 0.73875 0.59879 0.34034 0.0
H2543 H 0.76414 0.57641 0.35925 0.0
H2544 H 0.8752 0.60024 0.37021 0.0
H2545 H 0.84328 0.57364 0.36322 0.0
H2546 H 0.8152 0.56621 0.29673 0.0
C2547 C 0.73045 0.58645 0.32968 0.0
C2548 C 0.77514 0.57371 0.34559 0.0
C2549 C 0.70856 0.58931 0.32342 0.0
C2550 C 0.86717 0.60018 0.35467 0.0
C2551 C 0.84875 0.58508 0.35076 0.0
C2552 C 0.80426 0.56797 0.31061 0.0
C2553 C 0.74197 0.56875 0.32118 0.0
C2554 C 0.76629 0.56793 0.3252 0.0
C2555 C 0.8362 0.58627 0.33189 0.0
C2556 C 0.81299 0.57583 0.3305 0.0
H2557 H 0.70088 0.54434 0.28946 0.0
H2558 H 0.73902 0.53944 0.30046 0.0
H2559 H 0.77488 0.55962 0.29204 0.0
H2560 H 0.86658 0.62886 0.30821 0.0
H2561 H 0.83482 0.60253 0.30123 0.0
C2562 C 0.79734 0.48987 0.54794 0.0
C2563 C 0.78527 0.47093 0.5558 0.0
C2564 C 0.79222 0.51088 0.5552 0.0
C2565 C 0.76286 0.54961 0.55927 0.0
H2566 H 0.74433 0.5633 0.6179 0.0
C2567 C 0.69073 0.60202 0.58127 0.0
C2568 C 0.69204 0.61621 0.59953 0.0
C2569 C 0.7083 0.58908 0.57582 0.0
C2570 C 0.74994 0.56001 0.60156 0.0
H2571 H 0.75929 0.45898 0.57817 0.0
H2572 H 0.75042 0.49566 0.59096 0.0
H2573 H 0.76467 0.53052 0.61037 0.0
H2574 H 0.71352 0.62907 0.62554 0.0
H2575 H 0.7443 0.60608 0.61599 0.0
H2576 H 0.74709 0.57845 0.55032 0.0
C2577 C 0.76389 0.4943 0.57927 0.0
C2578 C 0.76134 0.54113 0.59721 0.0
C2579 C 0.76885 0.47331 0.57186 0.0
C2580 C 0.71189 0.61811 0.61152 0.0
C2581 C 0.72945 0.60494 0.60615 0.0
C2582 C 0.75134 0.56839 0.5636 0.0
C2583 C 0.77513 0.51331 0.57061 0.0
C2584 C 0.76719 0.53534 0.57592 0.0
C2585 C 0.72754 0.58993 0.58855 0.0
C2586 C 0.74408 0.57332 0.58467 0.0
H2587 H 0.81006 0.48854 0.53549 0.0
H2588 H 0.80118 0.52525 0.54831 0.0
H2589 H 0.76702 0.54549 0.54267 0.0
H2590 H 0.6758 0.60033 0.57152 0.0
H2591 H 0.70628 0.57753 0.56226 0.0
C2592 C 0.77919 0.86612 0.53393 0.0
C2593 C 0.78094 0.88258 0.55034 0.0
C2594 C 0.76494 0.84706 0.53642 0.0
C2595 C 0.71834 0.82199 0.56998 0.0
H2596 H 0.74641 0.76754 0.55739 0.0
C2597 C 0.67813 0.73894 0.59864 0.0
C2598 C 0.69302 0.72708 0.61009 0.0
C2599 C 0.68625 0.75609 0.58539 0.0
C2600 C 0.73826 0.78259 0.56082 0.0
H2601 H 0.76831 0.89225 0.58186 0.0
H2602 H 0.74377 0.85884 0.58635 0.0
H2603 H 0.76484 0.80253 0.54606 0.0
H2604 H 0.72787 0.72322 0.61668 0.0
H2605 H 0.74221 0.75319 0.5937 0.0
H2606 H 0.69247 0.80216 0.58597 0.0
C2607 C 0.7532 0.86082 0.57142 0.0
C2608 C 0.74871 0.80264 0.55417 0.0
C2609 C 0.76742 0.87992 0.56892 0.0
C2610 C 0.71614 0.73201 0.60766 0.0
C2611 C 0.72429 0.74906 0.59441 0.0
C2612 C 0.7079 0.80194 0.57666 0.0
C2613 C 0.75213 0.84399 0.55537 0.0
C2614 C 0.73922 0.82262 0.55931 0.0
C2615 C 0.70942 0.76168 0.58358 0.0
C2616 C 0.71815 0.78211 0.57279 0.0
H2617 H 0.7892 0.86768 0.5193 0.0
H2618 H 0.76425 0.83454 0.52365 0.0
H2619 H 0.71044 0.83709 0.57386 0.0
H2620 H 0.66022 0.7359 0.60104 0.0
H2621 H 0.67439 0.76551 0.57725 0.0
C2622 C 0.2523 0.74407 0.52555 0.0
C2623 C 0.24527 0.72181 0.52875 0.0
C2624 C 0.23707 0.75877 0.51887 0.0
C2625 C 0.18458 0.75505 0.4882 0.0
H2626 H 0.19706 0.81864 0.48776 0.0
C2627 C 0.16112 0.83254 0.4328 0.0
C2628 C 0.16657 0.8225 0.41291 0.0
C2629 C 0.1654 0.82228 0.45221 0.0
C2630 C 0.19296 0.80097 0.48808 0.0
H2631 H 0.21656 0.69796 0.52996 0.0
H2632 H 0.18963 0.72389 0.51978 0.0
H2633 H 0.21362 0.79725 0.51545 0.0
H2634 H 0.18099 0.79407 0.39786 0.0
H2635 H 0.18835 0.77655 0.4312 0.0
H2636 H 0.16436 0.75873 0.46064 0.0
C2637 C 0.20705 0.72987 0.52127 0.0
C2638 C 0.20269 0.78863 0.50375 0.0
C2639 C 0.22241 0.71501 0.52732 0.0
C2640 C 0.1765 0.80229 0.41282 0.0
C2641 C 0.18053 0.79208 0.43198 0.0
C2642 C 0.17473 0.76737 0.47282 0.0
C2643 C 0.21437 0.75162 0.51568 0.0
C2644 C 0.19962 0.76535 0.50325 0.0
C2645 C 0.17487 0.80177 0.45188 0.0
C2646 C 0.17986 0.79025 0.47181 0.0
H2647 H 0.26989 0.7497 0.52639 0.0
H2648 H 0.24358 0.77522 0.5146 0.0
H2649 H 0.18172 0.73726 0.48699 0.0
H2650 H 0.15349 0.84816 0.43334 0.0
H2651 H 0.16102 0.83015 0.46739 0.0
C2652 C 0.60795 0.012 0.77664 0.0
C2653 C 0.62575 0.00711 0.76274 0.0
C2654 C 0.58596 0.0044 0.77165 0.0
C2655 C 0.54414 0.00256 0.74254 0.0
H2656 H 0.52683 0.94256 0.72304 0.0
C2657 C 0.4887 0.97701 0.67091 0.0
C2658 C 0.47253 0.95911 0.67277 0.0
C2659 C 0.50232 0.98368 0.68826 0.0
C2660 C 0.53117 0.95926 0.72895 0.0
H2661 H 0.63483 0.98971 0.7334 0.0
H2662 H 0.59642 0.9758 0.72502 0.0
H2663 H 0.56209 0.95056 0.74223 0.0
H2664 H 0.45663 0.93543 0.69486 0.0
H2665 H 0.48093 0.947 0.72512 0.0
H2666 H 0.51416 0.01154 0.72759 0.0
C2667 C 0.59948 0.98561 0.73966 0.0
C2668 C 0.55137 0.96384 0.73974 0.0
C2669 C 0.62138 0.99364 0.74437 0.0
C2670 C 0.46919 0.94904 0.69282 0.0
C2671 C 0.48308 0.95556 0.71011 0.0
C2672 C 0.52413 -0.00197 0.73142 0.0
C2673 C 0.58156 0.99133 0.753 0.0
C2674 C 0.55834 0.98564 0.74595 0.0
C2675 C 0.50019 0.97246 0.70772 0.0
C2676 C 0.51788 0.97647 0.72395 0.0
H2677 H 0.61088 0.02256 0.7908 0.0
H2678 H 0.57235 0.00912 0.78205 0.0
H2679 H 0.54928 0.01952 0.74706 0.0
H2680 H 0.49149 0.98533 0.65577 0.0
H2681 H 0.51548 0.99672 0.686 0.0
C2682 C 0.35159 0.38303 0.96686 0.0
C2683 C 0.35232 0.38869 0.98892 0.0
C2684 C 0.35997 0.36342 0.95916 0.0
C2685 C 0.3692 0.30782 0.97628 0.0
H2686 H 0.40017 0.30401 0.92117 0.0
C2687 C 0.3644 0.23057 0.9208 0.0
C2688 C 0.38314 0.22585 0.90823 0.0
C2689 C 0.36523 0.24913 0.9346 0.0
C2690 C 0.39191 0.30478 0.93678 0.0
H2691 H 0.36291 0.37851 0.02018 0.0
H2692 H 0.37743 0.34413 0.0067 0.0
H2693 H 0.3936 0.34014 0.93706 0.0
H2694 H 0.41751 0.23638 0.90018 0.0
H2695 H 0.41904 0.26908 0.92433 0.0
H2696 H 0.36686 0.2724 0.97563 0.0
C2697 C 0.37033 0.35487 0.99539 0.0
C2698 C 0.38792 0.32548 0.94575 0.0
C2699 C 0.36212 0.37461 0.00307 0.0
C2700 C 0.403 0.23952 0.91011 0.0
C2701 C 0.40378 0.2583 0.92373 0.0
C2702 C 0.37305 0.28709 0.96722 0.0
C2703 C 0.36912 0.34896 0.97338 0.0
C2704 C 0.37602 0.32721 0.96532 0.0
C2705 C 0.38469 0.26361 0.93569 0.0
C2706 C 0.38394 0.28535 0.94711 0.0
H2707 H 0.34413 0.39352 0.95556 0.0
H2708 H 0.35854 0.3592 0.94215 0.0
H2709 H 0.3599 0.3086 0.99134 0.0
H2710 H 0.34877 0.22046 0.91919 0.0
H2711 H 0.35013 0.25293 0.94331 0.0
C2712 C 0.47168 0.55191 0.77482 0.0
C2713 C 0.45532 0.56526 0.76741 0.0
C2714 C 0.49446 0.55803 0.77166 0.0
C2715 C 0.53562 0.56458 0.74292 0.0
H2716 H 0.56026 0.62514 0.73782 0.0
C2717 C 0.58949 0.59425 0.67199 0.0
C2718 C 0.60545 0.6123 0.67436 0.0
C2719 C 0.57697 0.58646 0.6897 0.0
C2720 C 0.55399 0.60807 0.73955 0.0
H2721 H 0.45012 0.5965 0.7528 0.0
H2722 H 0.4896 0.607 0.74707 0.0
H2723 H 0.52692 0.61709 0.76002 0.0
H2724 H 0.62193 0.63532 0.6975 0.0
H2725 H 0.5999 0.62167 0.72847 0.0
H2726 H 0.5622 0.55566 0.7218 0.0
C2727 C 0.48498 0.59186 0.75541 0.0
C2728 C 0.53473 0.60349 0.75211 0.0
C2729 C 0.46226 0.58573 0.75851 0.0
C2730 C 0.60967 0.62144 0.6951 0.0
C2731 C 0.597 0.6137 0.71284 0.0
C2732 C 0.55491 0.56915 0.73043 0.0
C2733 C 0.50131 0.57766 0.76112 0.0
C2734 C 0.52468 0.58184 0.75302 0.0
C2735 C 0.58006 0.59656 0.71019 0.0
C2736 C 0.56362 0.59106 0.72772 0.0
H2737 H 0.46693 0.53606 0.78186 0.0
H2738 H 0.50665 0.54689 0.7765 0.0
H2739 H 0.52835 0.5477 0.74321 0.0
H2740 H 0.58595 0.58674 0.65627 0.0
H2741 H 0.56388 0.57339 0.68701 0.0
C2742 C 0.82468 0.22463 0.02554 0.0
C2743 C 0.80964 0.21984 0.00865 0.0
C2744 C 0.8315 0.24649 0.03109 0.0
C2745 C 0.81083 0.30053 0.03291 0.0
H2746 H 0.87171 0.31905 0.04965 0.0
C2747 C 0.86593 0.37399 0.084 0.0
C2748 C 0.85373 0.37218 0.10347 0.0
C2749 C 0.85974 0.36028 0.06628 0.0
C2750 C 0.85472 0.3144 0.0446 0.0
H2751 H 0.79008 0.234 0.9841 0.0
H2752 H 0.80164 0.2724 0.99425 0.0
H2753 H 0.86411 0.28431 0.02948 0.0
H2754 H 0.82446 0.35623 0.11914 0.0
H2755 H 0.81346 0.33264 0.0882 0.0
H2756 H 0.80126 0.32995 0.04925 0.0
C2757 C 0.80838 0.25919 0.00291 0.0
C2758 C 0.85036 0.29443 0.03325 0.0
C2759 C 0.80187 0.23727 0.99708 0.0
C2760 C 0.83423 0.35784 0.10435 0.0
C2761 C 0.82784 0.34446 0.08658 0.0
C2762 C 0.81516 0.3204 0.04449 0.0
C2763 C 0.82311 0.26397 0.02009 0.0
C2764 C 0.82829 0.28695 0.028 0.0
C2765 C 0.84102 0.34491 0.06767 0.0
C2766 C 0.83703 0.3271 0.05112 0.0
H2767 H 0.83085 0.21148 0.03473 0.0
H2768 H 0.84261 0.24973 0.04462 0.0
H2769 H 0.79365 0.29509 0.02911 0.0
H2770 H 0.88109 0.38488 0.08293 0.0
H2771 H 0.87014 0.36096 0.05185 0.0
C2772 C 0.62082 0.09261 0.78216 0.0
C2773 C 0.62051 0.08282 0.76138 0.0
C2774 C 0.6022 0.10298 0.79021 0.0
C2775 C 0.54146 0.09846 0.78438 0.0
H2776 H 0.54372 0.14921 0.8237 0.0
C2777 C 0.48118 0.14795 0.84793 0.0
C2778 C 0.47427 0.12996 0.8608 0.0
C2779 C 0.4961 0.1452 0.83061 0.0
C2780 C 0.54273 0.13528 0.81241 0.0
H2781 H 0.60088 0.07775 0.73223 0.0
H2782 H 0.56863 0.09576 0.7463 0.0
H2783 H 0.57751 0.14032 0.80362 0.0
H2784 H 0.47597 0.09488 0.86496 0.0
H2785 H 0.50122 0.08986 0.83441 0.0
H2786 H 0.50701 0.09278 0.79394 0.0
C2787 C 0.58312 0.09516 0.75646 0.0
C2788 C 0.56212 0.13005 0.80112 0.0
C2789 C 0.6017 0.08489 0.74839 0.0
C2790 C 0.48094 0.10894 0.85511 0.0
C2791 C 0.49539 0.10609 0.83762 0.0
C2792 C 0.52218 0.10355 0.79581 0.0
C2793 C 0.58287 0.10373 0.77767 0.0
C2794 C 0.56183 0.11125 0.7874 0.0
C2795 C 0.50387 0.12432 0.82574 0.0
C2796 C 0.52276 0.12165 0.81038 0.0
H2797 H 0.63496 0.09133 0.79262 0.0
H2798 H 0.60247 0.10931 0.80669 0.0
H2799 H 0.54069 0.08376 0.77407 0.0
H2800 H 0.47656 0.16439 0.8523 0.0
H2801 H 0.50234 0.15952 0.82166 0.0
C2802 C 0.96559 0.97659 0.2537 0.0
C2803 C 0.94618 0.97736 0.26664 0.0
C2804 C 0.98431 0.96674 0.26118 0.0
C2805 C 0.00369 0.92805 0.29978 0.0
H2806 H 0.05503 0.97009 0.30873 0.0
C2807 C 0.06712 0.94335 0.3702 0.0
C2808 C 0.07816 0.92381 0.37118 0.0
C2809 C 0.05611 0.94844 0.35155 0.0
C2810 C 0.04107 0.958 0.30583 0.0
H2811 H 0.93066 0.96753 0.29698 0.0
H2812 H 0.96314 0.94973 0.30977 0.0
H2813 H 0.02404 0.97997 0.28645 0.0
H2814 H 0.08819 0.89542 0.35275 0.0
H2815 H 0.06738 0.90353 0.32034 0.0
H2816 H 0.02035 0.90644 0.31995 0.0
C2817 C 0.96392 0.95689 0.29395 0.0
C2818 C 0.02338 0.96362 0.29313 0.0
C2819 C 0.94542 0.96719 0.28671 0.0
C2820 C 0.0793 0.91024 0.35258 0.0
C2821 C 0.06757 0.91494 0.33405 0.0
C2822 C 0.02163 0.92223 0.3121 0.0
C2823 C 0.98369 0.957 0.28146 0.0
C2824 C 0.00414 0.94906 0.29076 0.0
C2825 C 0.05551 0.93388 0.33363 0.0
C2826 C 0.04001 0.93754 0.31597 0.0
H2827 H 0.96666 0.98442 0.23819 0.0
H2828 H -0.00058 0.96711 0.25133 0.0
H2829 H 0.98903 0.91655 0.29811 0.0
H2830 H 0.06619 0.95433 0.38417 0.0
H2831 H 0.04685 0.9631 0.35164 0.0
C2832 C 0.48925 0.30859 0.22553 0.0
C2833 C 0.50492 0.31762 0.21053 0.0
C2834 C 0.48753 0.31803 0.24608 0.0
C2835 C 0.49156 0.36846 0.27621 0.0
H2836 H 0.48729 0.32922 0.32469 0.0
C2837 C 0.44417 0.39172 0.35336 0.0
C2838 C 0.42643 0.37561 0.35672 0.0
C2839 C 0.4625 0.38679 0.34028 0.0
C2840 C 0.48878 0.34053 0.31144 0.0
H2841 H 0.5309 0.34383 0.20517 0.0
H2842 H 0.5271 0.3611 0.24128 0.0
H2843 H 0.50312 0.31674 0.29044 0.0
H2844 H 0.41465 0.34145 0.35084 0.0
H2845 H 0.44661 0.33266 0.32859 0.0
H2846 H 0.47536 0.39153 0.29658 0.0
C2847 C 0.51655 0.3464 0.23701 0.0
C2848 C 0.49784 0.33339 0.29188 0.0
C2849 C 0.51862 0.33661 0.21642 0.0
C2850 C 0.42817 0.3541 0.34848 0.0
C2851 C 0.44658 0.34908 0.33583 0.0
C2852 C 0.48232 0.37557 0.29578 0.0
C2853 C 0.50119 0.33692 0.25208 0.0
C2854 C 0.49816 0.34684 0.27381 0.0
C2855 C 0.46349 0.36558 0.33082 0.0
C2856 C 0.47965 0.36115 0.31318 0.0
H2857 H 0.47857 0.29387 0.22159 0.0
H2858 H 0.47527 0.31065 0.25728 0.0
H2859 H 0.49161 0.37909 0.26246 0.0
H2860 H 0.44304 0.4085 0.35942 0.0
H2861 H 0.47531 0.3998 0.3367 0.0
C2862 C 0.55371 0.81137 0.94992 0.0
C2863 C 0.54306 0.81637 0.93087 0.0
C2864 C 0.54405 0.81579 0.96992 0.0
C2865 C 0.52373 0.8309 0.01151 0.0
H2866 H 0.4643 0.80095 0.015 0.0
C2867 C 0.46067 0.77753 0.07357 0.0
C2868 C 0.47623 0.76213 0.0781 0.0
C2869 C 0.46673 0.79515 0.06 0.0
C2870 C 0.48058 0.81006 0.01443 0.0
H2871 H 0.51452 0.83108 0.91771 0.0
H2872 H 0.49704 0.83831 0.95303 0.0
H2873 H 0.47948 0.81248 0.98017 0.0
H2874 H 0.51082 0.75439 0.07421 0.0
H2875 H 0.52148 0.78511 0.05109 0.0
H2876 H 0.5256 0.82647 0.04552 0.0
C2877 C 0.51301 0.83105 0.95236 0.0
C2878 C 0.48931 0.81666 0.99441 0.0
C2879 C 0.52296 0.82689 0.9322 0.0
C2880 C 0.49842 0.76587 0.07073 0.0
C2881 C 0.50457 0.78363 0.05765 0.0
C2882 C 0.51505 0.8242 0.03148 0.0
C2883 C 0.52332 0.82519 0.97141 0.0
C2884 C 0.51155 0.82573 0.9926 0.0
C2885 C 0.48857 0.79786 0.05133 0.0
C2886 C 0.494 0.81236 0.03286 0.0
H2887 H 0.56942 0.80363 0.94935 0.0
H2888 H 0.55233 0.81072 0.98418 0.0
H2889 H 0.54074 0.83835 0.01065 0.0
H2890 H 0.44352 0.77513 0.07927 0.0
H2891 H 0.45416 0.80599 0.05543 0.0
C2892 C 0.00996 0.71427 0.71561 0.0
C2893 C 0.01658 0.73537 0.70784 0.0
C2894 C 0.01716 0.70792 0.73581 0.0
C2895 C 0.04274 0.73148 0.78673 0.0
H2896 H 0.06918 0.67535 0.78986 0.0
C2897 C 0.12075 0.71804 0.83442 0.0
C2898 C 0.12225 0.69836 0.84548 0.0
C2899 C 0.10171 0.72141 0.82261 0.0
C2900 C 0.0614 0.69087 0.78944 0.0
H2901 H 0.03565 0.76643 0.71556 0.0
H2902 H 0.0483 0.75533 0.75004 0.0
H2903 H 0.04689 0.68294 0.75859 0.0
H2904 H 0.10459 0.66737 0.85373 0.0
H2905 H 0.07138 0.67281 0.83237 0.0
H2906 H 0.05868 0.74001 0.8168 0.0
C2907 C 0.03729 0.74372 0.74088 0.0
C2908 C 0.04862 0.69523 0.77153 0.0
C2909 C 0.03022 0.75 0.72085 0.0
C2910 C 0.10382 0.68261 0.84542 0.0
C2911 C 0.0849 0.68571 0.83313 0.0
C2912 C 0.05569 0.72723 0.80445 0.0
C2913 C 0.03093 0.72263 0.74867 0.0
C2914 C 0.04002 0.71599 0.76953 0.0
C2915 C 0.08393 0.70497 0.82125 0.0
C2916 C 0.06591 0.70726 0.80553 0.0
H2917 H -0.00059 0.70262 0.70605 0.0
H2918 H 0.01194 0.69155 0.74137 0.0
H2919 H 0.0358 0.7474 0.78599 0.0
H2920 H 0.13469 0.73052 0.8342 0.0
H2921 H 0.10151 0.73634 0.81346 0.0
C2922 C 0.11625 0.36174 0.41684 0.0
C2923 C 0.11377 0.34281 0.40335 0.0
C2924 C 0.1248 0.36046 0.43755 0.0
C2925 C 0.12172 0.3238 0.48104 0.0
H2926 H 0.16486 0.3663 0.50809 0.0
C2927 C 0.15319 0.363 0.56915 0.0
C2928 C 0.1327 0.37102 0.57565 0.0
C2929 C 0.15473 0.35096 0.54973 0.0
C2930 C 0.15316 0.3539 0.50078 0.0
H2931 H 0.1202 0.30816 0.4003 0.0
H2932 H 0.13418 0.30579 0.43693 0.0
H2933 H 0.16246 0.36404 0.46884 0.0
H2934 H 0.09745 0.37098 0.56851 0.0
H2935 H 0.09991 0.34937 0.53503 0.0
H2936 H 0.11107 0.31503 0.51305 0.0
C2937 C 0.12958 0.32156 0.43134 0.0
C2938 C 0.15171 0.35276 0.47834 0.0
C2939 C 0.12157 0.32297 0.41041 0.0
C2940 C 0.11334 0.36468 0.5639 0.0
C2941 C 0.1148 0.35233 0.54473 0.0
C2942 C 0.1229 0.32522 0.50352 0.0
C2943 C 0.13071 0.34017 0.44523 0.0
C2944 C 0.13551 0.3382 0.46834 0.0
C2945 C 0.13574 0.3466 0.53679 0.0
C2946 C 0.13815 0.34079 0.5136 0.0
H2947 H 0.11054 0.3773 0.41183 0.0
H2948 H 0.12545 0.37503 0.44804 0.0
H2949 H 0.10896 0.31257 0.47365 0.0
H2950 H 0.16841 0.36812 0.57772 0.0
H2951 H 0.17105 0.34668 0.54397 0.0
C2952 C 0.51659 0.74036 0.3389 0.0
C2953 C 0.53699 0.74759 0.34858 0.0
C2954 C 0.51531 0.73743 0.3166 0.0
C2955 C 0.53421 0.76386 0.27014 0.0
H2956 H 0.50707 0.71269 0.23899 0.0
C2957 C 0.49108 0.73582 0.18313 0.0
C2958 C 0.47283 0.74912 0.18408 0.0
C2959 C 0.50635 0.73643 0.19998 0.0
C2960 C 0.51518 0.72699 0.24728 0.0
H2961 H 0.57245 0.7556 0.34268 0.0
H2962 H 0.56986 0.7517 0.30335 0.0
H2963 H 0.5201 0.70882 0.27577 0.0
H2964 H 0.45784 0.77534 0.20225 0.0
H2965 H 0.48479 0.77671 0.23144 0.0
H2966 H 0.52748 0.78243 0.24231 0.0
C2967 C 0.55501 0.74807 0.3132 0.0
C2968 C 0.52252 0.72476 0.2683 0.0
C2969 C 0.55644 0.75032 0.33566 0.0
C2970 C 0.47155 0.7647 0.20113 0.0
C2971 C 0.48705 0.76557 0.2178 0.0
C2972 C 0.52649 0.76618 0.24922 0.0
C2973 C 0.53431 0.74212 0.30355 0.0
C2974 C 0.5315 0.74329 0.28007 0.0
C2975 C 0.50393 0.75072 0.21784 0.0
C2976 C 0.51636 0.74785 0.23786 0.0
H2977 H 0.50136 0.73802 0.34849 0.0
H2978 H 0.49915 0.7329 0.30943 0.0
H2979 H 0.54082 0.77842 0.2791 0.0
H2980 H 0.49275 0.72388 0.17009 0.0
H2981 H 0.51938 0.72501 0.19956 0.0
C2982 C 0.06263 0.80829 0.07262 0.0
C2983 C 0.04055 0.80128 0.07869 0.0
C2984 C 0.07121 0.80219 0.05236 0.0
C2985 C 0.05382 0.77736 -0.00124 0.0
H2986 H 0.11167 0.75269 -0.00068 0.0
C2987 C 0.07622 0.70179 0.94908 0.0
C2988 C 0.09774 0.70106 0.93994 0.0
C2989 C 0.07055 0.72021 0.96125 0.0
C2990 C 0.09572 0.75998 -0.00129 0.0
H2991 H 0.00989 0.78321 0.06774 0.0
H2992 H 0.02482 0.77235 0.03307 0.0
H2993 H 0.09942 0.77403 0.03054 0.0
H2994 H 0.12995 0.71929 0.93553 0.0
H2995 H 0.12022 0.75144 0.95761 0.0
H2996 H 0.04952 0.76182 0.96755 0.0
C2997 C 0.03555 0.78276 0.04366 0.0
C2998 C 0.08868 0.77224 0.01661 0.0
C2999 C 0.02704 0.78879 0.06377 0.0
C3000 C 0.11319 0.71955 0.94231 0.0
C3001 C 0.10768 0.73784 0.95498 0.0
C3002 C 0.06075 0.7649 0.98101 0.0
C3003 C 0.05783 0.78908 0.03775 0.0
C3004 C 0.06725 0.78029 0.01721 0.0
C3005 C 0.08644 0.7381 0.96492 0.0
C3006 C 0.08141 0.75541 0.98116 0.0
H3007 H 0.07345 0.81803 0.08367 0.0
H3008 H 0.08839 0.80751 0.04825 0.0
H3009 H 0.03746 0.78382 -0.00157 0.0
H3010 H 0.06404 0.68773 0.94749 0.0
H3011 H 0.05415 0.71985 0.9689 0.0
C3012 C 0.04709 0.31916 0.83448 0.0
C3013 C 0.05295 0.29718 0.83289 0.0
C3014 C 0.045 0.33139 0.81589 0.0
C3015 C 0.03928 0.32512 0.75633 0.0
H3016 H 0.07249 0.38237 0.75542 0.0
C3017 C 0.09161 0.35713 0.68582 0.0
C3018 C 0.09688 0.37987 0.68396 0.0
C3019 C 0.07598 0.34931 0.70123 0.0
C3020 C 0.06251 0.36673 0.7554 0.0
H3021 H 0.06082 0.27077 0.81037 0.0
H3022 H 0.05773 0.29212 0.77834 0.0
H3023 H 0.06565 0.36421 0.78948 0.0
H3024 H 0.08923 0.41227 0.69549 0.0
H3025 H 0.06133 0.39878 0.7221 0.0
H3026 H 0.03743 0.32707 0.722 0.0
C3027 C 0.0544 0.29987 0.79385 0.0
C3028 C 0.05866 0.35626 0.775 0.0
C3029 C 0.05652 0.28771 0.81232 0.0
C3030 C 0.08479 0.39472 0.69619 0.0
C3031 C 0.06915 0.38694 0.71167 0.0
C3032 C 0.04314 0.33558 0.73669 0.0
C3033 C 0.04856 0.32182 0.79537 0.0
C3034 C 0.04798 0.33489 0.77554 0.0
C3035 C 0.06566 0.36415 0.71526 0.0
C3036 C 0.05575 0.35603 0.73591 0.0
H3037 H 0.04396 0.32689 0.85004 0.0
H3038 H 0.04047 0.34829 0.81756 0.0
H3039 H 0.03049 0.30885 0.75633 0.0
H3040 H 0.10113 0.34543 0.67681 0.0
H3041 H 0.07389 0.33167 0.70364 0.0
C3042 C 0.51078 0.33076 0.55322 0.0
C3043 C 0.50328 0.31444 0.56776 0.0
C3044 C 0.50061 0.33195 0.53332 0.0
C3045 C 0.48286 0.326 0.4885 0.0
H3046 H 0.42003 0.33714 0.49302 0.0
C3047 C 0.4136 0.37777 0.44315 0.0
C3048 C 0.42511 0.39852 0.44679 0.0
C3049 C 0.42214 0.3587 0.45103 0.0
C3050 C 0.43735 0.33331 0.49115 0.0
H3051 H 0.47948 0.28627 0.57281 0.0
H3052 H 0.46099 0.28887 0.53791 0.0
H3053 H 0.43751 0.31862 0.52215 0.0
H3054 H 0.4555 0.41556 0.45931 0.0
H3055 H 0.47079 0.38247 0.47214 0.0
H3056 H 0.48324 0.34281 0.4586 0.0
C3057 C 0.47501 0.3005 0.54196 0.0
C3058 C 0.44738 0.32277 0.50786 0.0
C3059 C 0.48551 0.29908 0.56189 0.0
C3060 C 0.44615 0.39977 0.45656 0.0
C3061 C 0.45498 0.3808 0.46373 0.0
C3062 C 0.47288 0.33661 0.4719 0.0
C3063 C 0.48254 0.31697 0.5275 0.0
C3064 C 0.47056 0.32045 0.5073 0.0
C3065 C 0.44275 0.36022 0.46172 0.0
C3066 C 0.45043 0.34166 0.47381 0.0
H3067 H 0.52455 0.34273 0.55719 0.0
H3068 H 0.50648 0.34514 0.52274 0.0
H3069 H 0.50068 0.32401 0.48752 0.0
H3070 H 0.39754 0.3765 0.43531 0.0
H3071 H 0.41239 0.34298 0.4494 0.0
C3072 C 0.23819 0.53918 0.28671 0.0
C3073 C 0.22026 0.55041 0.29512 0.0
C3074 C 0.25533 0.53375 0.30004 0.0
C3075 C 0.26141 0.5151 0.35294 0.0
H3076 H 0.3231 0.51178 0.33386 0.0
C3077 C 0.34069 0.4572 0.36381 0.0
C3078 C 0.32879 0.43706 0.35828 0.0
C3079 C 0.33015 0.47703 0.36323 0.0
C3080 C 0.30614 0.51299 0.33986 0.0
H3081 H 0.20656 0.56573 0.32377 0.0
H3082 H 0.2363 0.55521 0.34757 0.0
H3083 H 0.30028 0.53896 0.31839 0.0
H3084 H 0.29645 0.4216 0.34888 0.0
H3085 H 0.27808 0.45586 0.34819 0.0
H3086 H 0.26648 0.48766 0.37268 0.0
C3087 C 0.23721 0.55108 0.33052 0.0
C3088 C 0.29307 0.52847 0.33094 0.0
C3089 C 0.22023 0.55701 0.31697 0.0
C3090 C 0.30608 0.43692 0.35302 0.0
C3091 C 0.29547 0.45652 0.35292 0.0
C3092 C 0.27436 0.49943 0.3616 0.0
C3093 C 0.2547 0.53905 0.32219 0.0
C3094 C 0.27025 0.52876 0.33651 0.0
C3095 C 0.30743 0.47681 0.3577 0.0
C3096 C 0.29645 0.49744 0.35423 0.0
H3097 H 0.2387 0.53413 0.26985 0.0
H3098 H 0.26837 0.52417 0.29323 0.0
H3099 H 0.24385 0.51491 0.35748 0.0
H3100 H 0.35821 0.4577 0.36794 0.0
H3101 H 0.33974 0.4925 0.36685 0.0
C3102 C 0.33562 0.49789 0.0534 0.0
C3103 C 0.34546 0.48966 0.03444 0.0
C3104 C 0.33788 0.52052 0.05861 0.0
C3105 C 0.35168 0.57481 0.03363 0.0
H3106 H 0.36739 0.59496 0.09159 0.0
C3107 C 0.40442 0.65458 0.05366 0.0
C3108 C 0.40157 0.66551 0.0736 0.0
C3109 C 0.39056 0.63589 0.04798 0.0
C3110 C 0.36245 0.58969 0.07543 0.0
H3111 H 0.36597 0.49859 0.00646 0.0
H3112 H 0.3703 0.53778 0.01574 0.0
H3113 H 0.35794 0.55578 0.08424 0.0
H3114 H 0.38059 0.66682 0.1023 0.0
H3115 H 0.35644 0.63389 0.09246 0.0
H3116 H 0.35723 0.60861 0.02465 0.0
C3117 C 0.36037 0.52692 0.02634 0.0
C3118 C 0.35712 0.56719 0.0712 0.0
C3119 C 0.35814 0.50438 0.02116 0.0
C3120 C 0.38319 0.65871 0.08682 0.0
C3121 C 0.36948 0.63975 0.08128 0.0
C3122 C 0.35706 0.59727 0.03785 0.0
C3123 C 0.35001 0.53532 0.04494 0.0
C3124 C 0.35245 0.55942 0.05011 0.0
C3125 C 0.37371 0.6276 0.06225 0.0
C3126 C 0.36324 0.60487 0.05865 0.0
H3127 H 0.32568 0.48695 0.06392 0.0
H3128 H 0.3297 0.52647 0.07306 0.0
H3129 H 0.34757 0.56939 0.01731 0.0
H3130 H 0.41841 0.65952 0.04313 0.0
H3131 H 0.39434 0.62689 0.03325 0.0
C3132 C 0.33392 0.52449 0.81292 0.0
C3133 C 0.34849 0.54329 0.80926 0.0
C3134 C 0.31408 0.52633 0.82485 0.0
C3135 C 0.28318 0.56252 0.86135 0.0
H3136 H 0.23311 0.54986 0.82281 0.0
C3137 C 0.20374 0.60918 0.84116 0.0
C3138 C 0.19352 0.61206 0.86144 0.0
C3139 C 0.21895 0.59309 0.83784 0.0
C3140 C 0.2468 0.55303 0.83397 0.0
H3141 H 0.35481 0.57827 0.81625 0.0
H3142 H 0.3207 0.58136 0.83783 0.0
H3143 H 0.26934 0.53565 0.81392 0.0
H3144 H 0.18996 0.59936 0.89364 0.0
H3145 H 0.21756 0.57184 0.88812 0.0
H3146 H 0.26094 0.58094 0.88079 0.0
C3147 C 0.32443 0.56526 0.83144 0.0
C3148 C 0.26749 0.54482 0.82896 0.0
C3149 C 0.34391 0.56353 0.81909 0.0
C3150 C 0.19768 0.59754 0.87792 0.0
C3151 C 0.21343 0.58182 0.87478 0.0
C3152 C 0.26237 0.5704 0.86656 0.0
C3153 C 0.30889 0.5469 0.83368 0.0
C3154 C 0.28611 0.55036 0.84209 0.0
C3155 C 0.22462 0.57986 0.85486 0.0
C3156 C 0.24431 0.5666 0.85238 0.0
H3157 H 0.33697 0.5088 0.80514 0.0
H3158 H 0.30229 0.51199 0.82626 0.0
H3159 H 0.2973 0.567 0.87171 0.0
H3160 H 0.20076 0.62007 0.82813 0.0
H3161 H 0.22747 0.59208 0.82236 0.0
C3162 C 0.27518 0.60117 0.54061 0.0
C3163 C 0.28358 0.6194 0.55325 0.0
C3164 C 0.2726 0.58015 0.54918 0.0
C3165 C 0.26152 0.55192 0.59928 0.0
H3166 H 0.27195 0.50062 0.56304 0.0
C3167 C 0.21761 0.46712 0.61762 0.0
C3168 C 0.20424 0.45993 0.6 0.0
C3169 C 0.23534 0.48331 0.61492 0.0
C3170 C 0.26922 0.51473 0.57351 0.0
H3171 H 0.29608 0.62973 0.58485 0.0
H3172 H 0.29106 0.59275 0.60004 0.0
H3173 H 0.28792 0.53705 0.55269 0.0
H3174 H 0.20013 0.46213 0.56556 0.0
H3175 H 0.23125 0.48968 0.56068 0.0
H3176 H 0.24162 0.52979 0.61937 0.0
C3177 C 0.28667 0.59491 0.5834 0.0
C3178 C 0.27828 0.53558 0.56756 0.0
C3179 C 0.28952 0.61603 0.57471 0.0
C3180 C 0.21019 0.46745 0.57939 0.0
C3181 C 0.2281 0.48318 0.57661 0.0
C3182 C 0.25243 0.53102 0.60524 0.0
C3183 C 0.27821 0.57676 0.57067 0.0
C3184 C 0.27354 0.55451 0.57978 0.0
C3185 C 0.24024 0.49202 0.59446 0.0
C3186 C 0.25522 0.51241 0.59179 0.0
H3187 H 0.27057 0.60307 0.52398 0.0
H3188 H 0.26563 0.5666 0.53906 0.0
H3189 H 0.25758 0.56621 0.60901 0.0
H3190 H 0.21331 0.46157 0.6337 0.0
H3191 H 0.24448 0.48977 0.62894 0.0
C3192 C 0.23144 0.57781 0.19046 0.0
C3193 C 0.22399 0.58238 0.21159 0.0
C3194 C 0.25361 0.58371 0.18419 0.0
C3195 C 0.30992 0.59991 0.20698 0.0
H3196 H 0.32161 0.62717 0.15179 0.0
C3197 C 0.38129 0.66512 0.19014 0.0
C3198 C 0.39088 0.66652 0.16941 0.0
C3199 C 0.36473 0.64846 0.19482 0.0
C3200 C 0.31876 0.6191 0.16704 0.0
H3201 H 0.23402 0.59713 0.24255 0.0
H3202 H 0.27222 0.60789 0.23147 0.0
H3203 H 0.28401 0.61146 0.16046 0.0
H3204 H 0.39216 0.65053 0.13785 0.0
H3205 H 0.36281 0.62147 0.14594 0.0
H3206 H 0.34446 0.60871 0.21397 0.0
C3207 C 0.26119 0.59923 0.21987 0.0
C3208 C 0.29716 0.61014 0.17205 0.0
C3209 C 0.23913 0.59327 0.22616 0.0
C3210 C 0.38508 0.64978 0.15399 0.0
C3211 C 0.36817 0.63328 0.15856 0.0
C3212 C 0.33147 0.60901 0.20202 0.0
C3213 C 0.2688 0.59436 0.19888 0.0
C3214 C 0.29231 0.60108 0.19236 0.0
C3215 C 0.35719 0.63305 0.17875 0.0
C3216 C 0.33595 0.61929 0.18226 0.0
H3217 H 0.2203 0.56929 0.17886 0.0
H3218 H 0.25894 0.5796 0.16793 0.0
H3219 H 0.30692 0.59252 0.22255 0.0
H3220 H 0.38547 0.67783 0.20231 0.0
H3221 H 0.35655 0.64882 0.21049 0.0
C3222 C 0.29372 0.51426 0.99168 0.0
C3223 C 0.28661 0.49178 0.9895 0.0
C3224 C 0.2836 0.52994 0.97987 0.0
C3225 C 0.24023 0.53618 0.93749 0.0
H3226 H 0.22963 0.58878 0.97174 0.0
C3227 C 0.15985 0.58111 0.93593 0.0
C3228 C 0.16117 0.60427 0.93596 0.0
C3229 C 0.17918 0.56985 0.93717 0.0
C3230 C 0.2328 0.57443 0.96175 0.0
H3231 H 0.26417 0.46775 0.97285 0.0
H3232 H 0.24545 0.49504 0.95307 0.0
H3233 H 0.25655 0.56401 0.9838 0.0
H3234 H 0.18359 0.63397 0.93686 0.0
H3235 H 0.21777 0.61408 0.94014 0.0
H3236 H 0.2146 0.54572 0.91669 0.0
C3237 C 0.25939 0.50077 0.96319 0.0
C3238 C 0.24835 0.56015 0.9686 0.0
C3239 C 0.27 0.48503 0.97459 0.0
C3240 C 0.18224 0.61608 0.93684 0.0
C3241 C 0.20168 0.60475 0.93871 0.0
C3242 C 0.22427 0.55019 0.93096 0.0
C3243 C 0.26559 0.52354 0.96615 0.0
C3244 C 0.25183 0.54045 0.95691 0.0
C3245 C 0.20024 0.5815 0.93899 0.0
C3246 C 0.22003 0.56916 0.94332 0.0
H3247 H 0.30672 0.51975 0.00302 0.0
H3248 H 0.28941 0.54715 0.98213 0.0
H3249 H 0.2428 0.52156 0.92769 0.0
H3250 H 0.14376 0.57167 0.93514 0.0
H3251 H 0.17755 0.55197 0.93765 0.0
C3252 C 0.33052 0.50185 0.74886 0.0
C3253 C 0.34904 0.51322 0.73896 0.0
C3254 C 0.30885 0.50465 0.74203 0.0
C3255 C 0.27719 0.51399 0.69545 0.0
H3256 H 0.2292 0.52119 0.7371 0.0
C3257 C 0.1892 0.48208 0.67319 0.0
C3258 C 0.18132 0.46637 0.68827 0.0
C3259 C 0.20604 0.49841 0.67888 0.0
C3260 C 0.24237 0.51936 0.72518 0.0
H3261 H 0.35952 0.53647 0.71423 0.0
H3262 H 0.32134 0.54053 0.7015 0.0
H3263 H 0.26813 0.52835 0.7481 0.0
H3264 H 0.1821 0.45741 0.72174 0.0
H3265 H 0.21097 0.48566 0.73176 0.0
H3266 H 0.25177 0.50297 0.67304 0.0
C3267 C 0.32374 0.52982 0.71482 0.0
C3268 C 0.26463 0.52351 0.73149 0.0
C3269 C 0.34549 0.52741 0.72201 0.0
C3270 C 0.18806 0.46921 0.70977 0.0
C3271 C 0.20465 0.48556 0.7155 0.0
C3272 C 0.25492 0.50951 0.6892 0.0
C3273 C 0.30524 0.51856 0.72491 0.0
C3274 C 0.28221 0.51981 0.71695 0.0
C3275 C 0.21495 0.49937 0.69979 0.0
C3276 C 0.23729 0.51096 0.70434 0.0
H3277 H 0.33272 0.49103 0.76214 0.0
H3278 H 0.29488 0.49553 0.74987 0.0
H3279 H 0.29048 0.51103 0.68395 0.0
H3280 H 0.18417 0.48034 0.6565 0.0
H3281 H 0.21328 0.50909 0.6665 0.0
C3282 C 0.2489 0.60646 0.46598 0.0
C3283 C 0.2692 0.61961 0.46441 0.0
C3284 C 0.24704 0.58508 0.45686 0.0
C3285 C 0.26009 0.53737 0.45652 0.0
H3286 H 0.29157 0.51951 0.4047 0.0
C3287 C 0.32326 0.47327 0.4533 0.0
C3288 C 0.32691 0.46092 0.4343 0.0
C3289 C 0.30608 0.48752 0.45454 0.0
C3290 C 0.28212 0.52399 0.41895 0.0
H3291 H 0.30267 0.62163 0.45053 0.0
H3292 H 0.29936 0.58461 0.43439 0.0
H3293 H 0.27996 0.55708 0.40843 0.0
H3294 H 0.31362 0.45169 0.40276 0.0
H3295 H 0.28393 0.47723 0.40472 0.0
H3296 H 0.26384 0.50482 0.46775 0.0
C3297 C 0.28489 0.59064 0.44266 0.0
C3298 C 0.27565 0.54557 0.42115 0.0
C3299 C 0.28687 0.6118 0.45205 0.0
C3300 C 0.31155 0.46137 0.41742 0.0
C3301 C 0.29454 0.47596 0.41852 0.0
C3302 C 0.26669 0.51584 0.45438 0.0
C3303 C 0.2653 0.57672 0.44571 0.0
C3304 C 0.2657 0.5528 0.44045 0.0
C3305 C 0.2923 0.48987 0.43673 0.0
C3306 C 0.27888 0.50936 0.43609 0.0
H3307 H 0.23502 0.61206 0.47548 0.0
H3308 H 0.23174 0.57471 0.45942 0.0
H3309 H 0.2525 0.54245 0.47161 0.0
H3310 H 0.33459 0.47305 0.46674 0.0
H3311 H 0.30487 0.49807 0.46879 0.0
C3312 C 0.249 0.2139 0.49439 0.0
C3313 C 0.26019 0.20007 0.50768 0.0
C3314 C 0.25979 0.23343 0.48693 0.0
C3315 C 0.31534 0.26305 0.47839 0.0
H3316 H 0.27917 0.31311 0.47419 0.0
C3317 C 0.34917 0.34782 0.44446 0.0
C3318 C 0.33672 0.35318 0.42656 0.0
C3319 C 0.34091 0.331 0.45814 0.0
C3320 C 0.2895 0.29932 0.47546 0.0
H3321 H 0.29175 0.19568 0.52317 0.0
H3322 H 0.3106 0.23008 0.51029 0.0
H3323 H 0.26315 0.27927 0.49042 0.0
H3324 H 0.30538 0.34624 0.40971 0.0
H3325 H 0.29076 0.31754 0.43388 0.0
H3326 H 0.34163 0.28331 0.46317 0.0
C3327 C 0.2935 0.22564 0.50547 0.0
C3328 C 0.28031 0.27987 0.48455 0.0
C3329 C 0.28271 0.20592 0.51282 0.0
C3330 C 0.3154 0.34237 0.42331 0.0
C3331 C 0.30698 0.32602 0.43719 0.0
C3332 C 0.32463 0.28267 0.46948 0.0
C3333 C 0.282 0.23981 0.49274 0.0
C3334 C 0.29285 0.26124 0.48547 0.0
C3335 C 0.31983 0.31983 0.45444 0.0
C3336 C 0.31155 0.30072 0.46737 0.0
H3337 H 0.23172 0.20979 0.48994 0.0
H3338 H 0.25062 0.24358 0.47663 0.0
H3339 H 0.32545 0.24902 0.47879 0.0
H3340 H 0.36562 0.35585 0.44734 0.0
H3341 H 0.35108 0.32651 0.4714 0.0
C3342 C 0.83138 0.36619 0.5003 0.0
C3343 C 0.83171 0.38196 0.51727 0.0
C3344 C 0.84519 0.34859 0.50089 0.0
C3345 C 0.89296 0.32789 0.52977 0.0
H3346 H 0.85468 0.2739 0.5357 0.0
C3347 C 0.89673 0.27368 0.60056 0.0
C3348 C 0.89158 0.25083 0.59918 0.0
C3349 C 0.89656 0.28636 0.58226 0.0
C3350 C 0.86593 0.28852 0.53346 0.0
H3351 H 0.8476 0.39291 0.54717 0.0
H3352 H 0.87202 0.36276 0.54798 0.0
H3353 H 0.8412 0.30464 0.51646 0.0
H3354 H 0.88305 0.22289 0.57775 0.0
H3355 H 0.88185 0.24543 0.54532 0.0
H3356 H 0.91673 0.31271 0.54868 0.0
C3357 C 0.86119 0.36373 0.53425 0.0
C3358 C 0.85819 0.30616 0.52241 0.0
C3359 C 0.8471 0.38091 0.53392 0.0
C3360 C 0.88708 0.24056 0.57903 0.0
C3361 C 0.88638 0.25341 0.56061 0.0
C3362 C 0.90065 0.31033 0.54085 0.0
C3363 C 0.85985 0.34697 0.51818 0.0
C3364 C 0.87104 0.3265 0.52184 0.0
C3365 C 0.89082 0.27651 0.56216 0.0
C3366 C 0.88657 0.29106 0.54408 0.0
H3367 H 0.81945 0.36663 0.48739 0.0
H3368 H 0.84375 0.33579 0.4884 0.0
H3369 H 0.90331 0.34331 0.52927 0.0
H3370 H 0.90029 0.28186 0.61599 0.0
H3371 H 0.89963 0.30411 0.58416 0.0
C3372 C 0.45653 0.05833 0.26986 0.0
C3373 C 0.43966 0.07028 0.27948 0.0
C3374 C 0.47905 0.06379 0.27448 0.0
C3375 C 0.51796 0.10707 0.30144 0.0
H3376 H 0.55515 0.05794 0.30616 0.0
C3377 C 0.60494 0.1201 0.33994 0.0
C3378 C 0.60798 0.10475 0.35598 0.0
C3379 C 0.58801 0.11583 0.32465 0.0
C3380 C 0.54504 0.07189 0.30492 0.0
H3381 H 0.43315 0.09747 0.30133 0.0
H3382 H 0.47239 0.10628 0.31047 0.0
H3383 H 0.51742 0.05133 0.29277 0.0
H3384 H 0.59737 0.0722 0.36745 0.0
H3385 H 0.56817 0.06473 0.34117 0.0
H3386 H 0.5451 0.12728 0.31536 0.0
C3387 C 0.46837 0.09314 0.29873 0.0
C3388 C 0.52337 0.06815 0.29693 0.0
C3389 C 0.44581 0.08797 0.29371 0.0
C3390 C 0.59536 0.08432 0.35525 0.0
C3391 C 0.57862 0.08002 0.34004 0.0
C3392 C 0.53956 0.11075 0.3098 0.0
C3393 C 0.48533 0.08104 0.28926 0.0
C3394 C 0.50926 0.08558 0.29559 0.0
C3395 C 0.57404 0.09608 0.32512 0.0
C3396 C 0.55312 0.09306 0.31227 0.0
H3397 H 0.45235 0.04488 0.25845 0.0
H3398 H 0.49152 0.05443 0.26638 0.0
H3399 H 0.50789 0.12103 0.30013 0.0
H3400 H 0.61434 0.13607 0.34025 0.0
H3401 H 0.58518 0.12842 0.31318 0.0
C3402 C 0.7219 0.71158 0.04431 0.0
C3403 C 0.73623 0.70299 0.05919 0.0
C3404 C 0.71841 0.73415 0.04486 0.0
C3405 C 0.74322 0.78804 0.06603 0.0
H3406 H 0.68195 0.80401 0.0721 0.0
C3407 C 0.71314 0.84822 0.12772 0.0
C3408 C 0.69517 0.86103 0.12363 0.0
C3409 C 0.72159 0.83481 0.11153 0.0
C3410 C 0.69917 0.80007 0.06964 0.0
H3411 H 0.75806 0.71123 0.0863 0.0
H3412 H 0.75186 0.75023 0.08735 0.0
H3413 H 0.68926 0.76692 0.05921 0.0
H3414 H 0.67406 0.87222 0.09874 0.0
H3415 H 0.68841 0.84782 0.07032 0.0
H3416 H 0.753 0.82061 0.0782 0.0
C3417 C 0.74357 0.73973 0.07505 0.0
C3418 C 0.70335 0.77877 0.06239 0.0
C3419 C 0.74686 0.71728 0.07465 0.0
C3420 C 0.6874 0.86193 0.10245 0.0
C3421 C 0.69566 0.84813 0.08622 0.0
C3422 C 0.73903 0.80928 0.0733 0.0
C3423 C 0.72944 0.74846 0.06011 0.0
C3424 C 0.72535 0.77221 0.06175 0.0
C3425 C 0.71217 0.83378 0.09094 0.0
C3426 C 0.71692 0.81506 0.07632 0.0
H3427 H 0.71359 0.70094 0.03214 0.0
H3428 H 0.70732 0.74044 0.03324 0.0
H3429 H 0.76038 0.78353 0.06519 0.0
H3430 H 0.71988 0.84752 0.14376 0.0
H3431 H 0.7343 0.8239 0.11568 0.0
C3432 C 0.56803 0.56508 0.31717 0.0
C3433 C 0.58267 0.55486 0.30282 0.0
C3434 C 0.5469 0.55498 0.32193 0.0
C3435 C 0.51403 0.50125 0.32143 0.0
H3436 H 0.46421 0.53812 0.32919 0.0
C3437 C 0.42825 0.46484 0.35148 0.0
C3438 C 0.42111 0.47597 0.37018 0.0
C3439 C 0.44499 0.47477 0.33821 0.0
C3440 C 0.47793 0.5276 0.32696 0.0
H3441 H 0.58653 0.52581 0.28239 0.0
H3442 H 0.54951 0.50818 0.29072 0.0
H3443 H 0.50035 0.55436 0.31636 0.0
H3444 H 0.42431 0.50686 0.38856 0.0
H3445 H 0.45319 0.52425 0.36533 0.0
H3446 H 0.49173 0.47462 0.33256 0.0
C3447 C 0.55454 0.52397 0.2984 0.0
C3448 C 0.49866 0.53691 0.31975 0.0
C3449 C 0.57577 0.53407 0.29366 0.0
C3450 C 0.42956 0.49786 0.37431 0.0
C3451 C 0.44605 0.50785 0.36092 0.0
C3452 C 0.49325 0.49193 0.32856 0.0
C3453 C 0.53977 0.53444 0.31241 0.0
C3454 C 0.51713 0.52398 0.31752 0.0
C3455 C 0.4546 0.49609 0.34325 0.0
C3456 C 0.47517 0.50514 0.33198 0.0
H3457 H 0.57278 0.58105 0.3246 0.0
H3458 H 0.53616 0.56327 0.33319 0.0
H3459 H 0.52792 0.49086 0.32002 0.0
H3460 H 0.42209 0.44791 0.34793 0.0
H3461 H 0.45112 0.46542 0.32455 0.0
C3462 C 0.23252 0.85705 0.01833 0.0
C3463 C 0.25409 0.86683 0.01376 0.0
C3464 C 0.22607 0.83558 0.01074 0.0
C3465 C 0.24001 0.79624 0.96749 0.0
H3466 H 0.20526 0.75247 0.00098 0.0
C3467 C 0.21966 0.71082 0.93057 0.0
C3468 C 0.1972 0.70252 0.93217 0.0
C3469 C 0.22793 0.72812 0.94415 0.0
C3470 C 0.21488 0.76455 0.99141 0.0
H3471 H 0.28605 0.86119 -0.0017 0.0
H3472 H 0.27483 0.82407 0.98527 0.0
H3473 H 0.21644 0.78877 0.01731 0.0
H3474 H 0.16621 0.7045 0.95033 0.0
H3475 H 0.18044 0.73525 0.97373 0.0
H3476 H 0.23814 0.77263 0.94147 0.0
C3477 C 0.26275 0.83308 0.99437 0.0
C3478 C 0.22124 0.78534 0.00074 0.0
C3479 C 0.26918 0.85442 0.0019 0.0
C3480 C 0.18366 0.71053 0.94884 0.0
C3481 C 0.19183 0.72819 0.96223 0.0
C3482 C 0.23364 0.77563 0.95819 0.0
C3483 C 0.24104 0.82349 -0.00158 0.0
C3484 C 0.23397 0.80137 0.98887 0.0
C3485 C 0.21376 0.73788 0.95931 0.0
C3486 C 0.2211 0.75943 0.97001 0.0
H3487 H 0.22051 0.86606 0.0275 0.0
H3488 H 0.20918 0.82868 0.01402 0.0
H3489 H 0.24936 0.80837 0.95772 0.0
H3490 H 0.2305 0.70479 0.91797 0.0
H3491 H 0.24512 0.73467 0.94193 0.0
C3492 C 0.43827 0.98208 0.22868 0.0
C3493 C 0.42905 0.00068 0.22041 0.0
C3494 C 0.45667 0.97325 0.21837 0.0
C3495 C 0.48689 0.9728 0.16609 0.0
H3496 H 0.53866 0.96026 0.19932 0.0
C3497 C 0.57174 0.96771 0.12539 0.0
C3498 C 0.58328 0.94899 0.12935 0.0
C3499 C 0.55368 0.9729 0.13843 0.0
C3500 C 0.52422 0.9635 0.1899 0.0
H3501 H 0.43162 0.0244 0.19478 0.0
H3502 H 0.4635 0.00915 0.17698 0.0
H3503 H 0.50424 0.97003 0.21798 0.0
H3504 H 0.58573 0.92163 0.15044 0.0
H3505 H 0.55386 0.93074 0.17361 0.0
H3506 H 0.50684 0.96681 0.13806 0.0
C3507 C 0.45649 0.00118 0.19123 0.0
C3508 C 0.50453 0.96898 0.20054 0.0
C3509 C 0.43826 0.01 0.20151 0.0
C3510 C 0.57727 0.93629 0.14738 0.0
C3511 C 0.55904 0.94144 0.16048 0.0
C3512 C 0.50649 0.96745 0.15552 0.0
C3513 C 0.46598 0.98279 0.19956 0.0
C3514 C 0.48587 0.97422 0.18869 0.0
C3515 C 0.54665 0.95938 0.15564 0.0
C3516 C 0.52552 0.9633 0.16729 0.0
H3517 H 0.43155 0.97462 0.24329 0.0
H3518 H 0.46359 0.95899 0.22507 0.0
H3519 H 0.47262 0.97623 0.15652 0.0
H3520 H 0.57614 0.97791 0.11168 0.0
H3521 H 0.54472 0.98711 0.13462 0.0
C3522 C 0.09447 0.08483 0.72758 0.0
C3523 C 0.11524 0.0969 0.72546 0.0
C3524 C 0.07461 0.09534 0.72648 0.0
C3525 C 0.05184 0.151 0.71966 0.0
H3526 H 0.00812 0.11565 0.68547 0.0
C3527 C 0.00619 0.17906 0.64761 0.0
C3528 C 0.98453 0.17002 0.64292 0.0
C3529 C 0.0164 0.17407 0.6667 0.0
C3530 C 0.01974 0.12566 0.69557 0.0
H3531 H 0.13193 0.12938 0.72153 0.0
H3532 H 0.09733 0.14767 0.71769 0.0
H3533 H 0.03827 0.09811 0.7017 0.0
H3534 H 0.95572 0.15006 0.65477 0.0
H3535 H 0.9741 0.14028 0.68807 0.0
H3536 H 0.03416 0.17895 0.71121 0.0
C3537 C 0.09608 0.13025 0.72117 0.0
C3538 C 0.0372 0.11559 0.70497 0.0
C3539 C 0.11599 0.1198 0.72309 0.0
C3540 C 0.97247 0.15719 0.65822 0.0
C3541 C 0.98293 0.15169 0.67719 0.0
C3542 C 0.03454 0.16116 0.70983 0.0
C3543 C 0.07507 0.11804 0.72226 0.0
C3544 C 0.0541 0.12822 0.71637 0.0
C3545 C 0.00532 0.1594 0.68114 0.0
C3546 C 0.0189 0.14866 0.69695 0.0
H3547 H 0.09357 0.06715 0.72989 0.0
H3548 H 0.05892 0.08543 0.72824 0.0
H3549 H 0.06405 0.16122 0.72888 0.0
H3550 H 0.01569 0.18906 0.63595 0.0
H3551 H 0.03372 0.18005 0.66917 0.0
loop_
_geom_bond_atom_site_label_1
_geom_bond_atom_site_label_2
_geom_bond_distance
_geom_bond_site_symmetry_2
_ccdc_geom_bond_type
Co0 O1 2.216 . S
Co0 O2 2.091 . S
Co0 O4 2.004 . S
Co0 O10 2.021 . S
Co0 O12 2.137 . S
Co0 O13 2.244 . S
O1 Co0 2.216 . S
O1 C8 1.247 . S
O2 Co0 2.091 . S
O2 C8 1.261 . S
C3 O12 1.247 . S
C3 O13 1.272 . S
O4 Co0 2.004 . S
O4 C9 1.259 . S
Co5 O6 2.061 . S
Co5 O11 2.052 . S
Co5 O13 2.135 . S
O6 Co5 2.061 . S
O6 C9 1.235 . S
C7 O10 1.238 . S
C7 O11 1.241 . S
C8 O1 1.247 . S
C8 O2 1.261 . S
C9 O4 1.259 . S
C9 O6 1.235 . S
O10 Co0 2.021 . S
O10 C7 1.238 . S
O11 Co5 2.052 . S
O11 C7 1.241 . S
O12 Co0 2.137 . S
O12 C3 1.247 . S
O13 Co0 2.244 . S
O13 C3 1.272 . S
O13 Co5 2.135 . S
Co14 O15 2.216 1_455 S
Co14 O16 2.091 1_455 S
Co14 O18 2.004 . S
Co14 O24 2.021 . S
Co14 O26 2.137 1_455 S
Co14 O27 2.244 . S
O15 Co14 2.216 1_655 S
O15 C22 1.247 . S
O16 Co14 2.091 1_655 S
O16 C22 1.261 . S
C17 O26 1.247 . S
C17 O27 1.273 1_655 S
O18 Co14 2.004 . S
O18 C23 1.259 . S
Co19 O20 2.061 . S
Co19 O25 2.052 . S
Co19 O27 2.133 . S
O20 Co19 2.061 . S
O20 C23 1.235 . S
C21 O24 1.238 . S
C21 O25 1.241 . S
C22 O15 1.247 . S
C22 O16 1.261 . S
C23 O18 1.259 . S
C23 O20 1.235 . S
O24 Co14 2.021 . S
O24 C21 1.238 . S
O25 Co19 2.052 . S
O25 C21 1.241 . S
O26 Co14 2.137 1_655 S
O26 C17 1.247 . S
O27 Co14 2.244 . S
O27 C17 1.273 1_455 S
O27 Co19 2.133 . S
Co28 O29 2.216 . S
Co28 O30 2.091 . S
Co28 O32 2.004 . S
Co28 O38 2.021 . S
Co28 O40 2.137 . S
Co28 O41 2.244 . S
O29 Co28 2.216 . S
O29 C36 1.247 . S
O30 Co28 2.091 . S
O30 C36 1.261 . S
C31 O40 1.247 . S
C31 O41 1.272 . S
O32 Co28 2.004 . S
O32 C37 1.259 . S
Co33 O34 2.061 . S
Co33 O39 2.052 . S
Co33 O41 2.135 . S
O34 Co33 2.061 . S
O34 C37 1.235 . S
C35 O38 1.238 . S
C35 O39 1.241 . S
C36 O29 1.247 . S
C36 O30 1.261 . S
C37 O32 1.259 . S
C37 O34 1.235 . S
O38 Co28 2.021 . S
O38 C35 1.238 . S
O39 Co33 2.052 . S
O39 C35 1.241 . S
O40 Co28 2.137 . S
O40 C31 1.247 . S
O41 Co28 2.244 . S
O41 C31 1.272 . S
O41 Co33 2.135 . S
Co42 O43 2.216 . S
Co42 O44 2.091 . S
Co42 O46 2.004 . S
Co42 O52 2.021 . S
Co42 O54 2.137 . S
Co42 O55 2.244 . S
O43 Co42 2.216 . S
O43 C50 1.247 . S
O44 Co42 2.091 . S
O44 C50 1.261 . S
C45 O54 1.247 . S
C45 O55 1.272 . S
O46 Co42 2.004 . S
O46 C51 1.259 . S
Co47 O48 2.061 . S
Co47 O53 2.052 . S
Co47 O55 2.135 . S
O48 Co47 2.061 . S
O48 C51 1.235 . S
C49 O52 1.238 . S
C49 O53 1.241 . S
C50 O43 1.247 . S
C50 O44 1.261 . S
C51 O46 1.259 . S
C51 O48 1.235 . S
O52 Co42 2.021 . S
O52 C49 1.238 . S
O53 Co47 2.052 . S
O53 C49 1.241 . S
O54 Co42 2.137 . S
O54 C45 1.247 . S
O55 Co42 2.244 . S
O55 C45 1.272 . S
O55 Co47 2.135 . S
Co56 O57 2.216 1_655 S
Co56 O58 2.091 . S
Co56 O60 2.004 . S
Co56 O66 2.021 1_655 S
Co56 O68 2.137 . S
Co56 O69 2.244 1_655 S
O57 Co56 2.216 1_455 S
O57 C64 1.247 1_455 S
O58 Co56 2.091 . S
O58 C64 1.261 . S
C59 O68 1.247 1_455 S
C59 O69 1.272 . S
O60 Co56 2.004 . S
O60 C65 1.259 . S
Co61 O62 2.061 . S
Co61 O67 2.052 . S
Co61 O69 2.135 . S
O62 Co61 2.061 . S
O62 C65 1.235 1_455 S
C63 O66 1.238 . S
C63 O67 1.241 . S
C64 O57 1.247 1_655 S
C64 O58 1.261 . S
C65 O60 1.259 . S
C65 O62 1.235 1_655 S
O66 Co56 2.021 1_455 S
O66 C63 1.238 . S
O67 Co61 2.052 . S
O67 C63 1.241 . S
O68 Co56 2.137 . S
O68 C59 1.247 1_655 S
O69 Co56 2.244 1_455 S
O69 C59 1.272 . S
O69 Co61 2.135 . S
Co70 O71 2.216 . S
Co70 O72 2.091 . S
Co70 O74 2.004 . S
Co70 O80 2.021 . S
Co70 O82 2.137 . S
Co70 O83 2.244 . S
O71 Co70 2.216 . S
O71 C78 1.247 . S
O72 Co70 2.091 . S
O72 C78 1.261 . S
C73 O82 1.247 . S
C73 O83 1.272 . S
O74 Co70 2.004 . S
O74 C79 1.259 . S
Co75 O76 2.061 . S
Co75 O81 2.052 . S
Co75 O83 2.135 . S
O76 Co75 2.061 . S
O76 C79 1.235 . S
C77 O80 1.238 . S
C77 O81 1.241 . S
C78 O71 1.247 . S
C78 O72 1.261 . S
C79 O74 1.259 . S
C79 O76 1.235 . S
O80 Co70 2.021 . S
O80 C77 1.238 . S
O81 Co75 2.052 . S
O81 C77 1.241 . S
O82 Co70 2.137 . S
O82 C73 1.247 . S
O83 Co70 2.244 . S
O83 C73 1.272 . S
O83 Co75 2.135 . S
Co84 O85 2.216 . S
Co84 O86 2.091 . S
Co84 O88 2.004 . S
Co84 O94 2.021 . S
Co84 O96 2.137 . S
Co84 O97 2.244 . S
O85 Co84 2.216 . S
O85 C92 1.247 . S
O86 Co84 2.091 . S
O86 C92 1.261 . S
C87 O96 1.247 . S
C87 O97 1.272 . S
O88 Co84 2.004 . S
O88 C93 1.259 . S
Co89 O90 2.061 . S
Co89 O95 2.052 . S
Co89 O97 2.135 . S
O90 Co89 2.061 . S
O90 C93 1.235 . S
C91 O94 1.238 . S
C91 O95 1.241 . S
C92 O85 1.247 . S
C92 O86 1.261 . S
C93 O88 1.259 . S
C93 O90 1.235 . S
O94 Co84 2.021 . S
O94 C91 1.238 . S
O95 Co89 2.052 . S
O95 C91 1.241 . S
O96 Co84 2.137 . S
O96 C87 1.247 . S
O97 Co84 2.244 . S
O97 C87 1.272 . S
O97 Co89 2.135 . S
Co98 O99 2.216 . S
Co98 O100 2.091 . S
Co98 O102 2.004 . S
Co98 O108 2.021 . S
Co98 O110 2.137 . S
Co98 O111 2.244 . S
O99 Co98 2.216 . S
O99 C106 1.247 . S
O100 Co98 2.091 . S
O100 C106 1.261 . S
C101 O110 1.247 . S
C101 O111 1.272 . S
O102 Co98 2.004 . S
O102 C107 1.259 . S
Co103 O104 2.061 . S
Co103 O109 2.052 . S
Co103 O111 2.135 . S
O104 Co103 2.061 . S
O104 C107 1.235 . S
C105 O108 1.238 . S
C105 O109 1.241 . S
C106 O99 1.247 . S
C106 O100 1.261 . S
C107 O102 1.259 . S
C107 O104 1.235 . S
O108 Co98 2.021 . S
O108 C105 1.238 . S
O109 Co103 2.052 . S
O109 C105 1.241 . S
O110 Co98 2.137 . S
O110 C101 1.247 . S
O111 Co98 2.244 . S
O111 C101 1.272 . S
O111 Co103 2.135 . S
Co112 O113 2.216 1_565 S
Co112 O114 2.091 . S
Co112 O116 2.004 . S
Co112 O122 2.021 1_565 S
Co112 O124 2.137 . S
Co112 O125 2.244 1_565 S
O113 Co112 2.216 1_545 S
O113 C120 1.247 1_545 S
O114 Co112 2.091 . S
O114 C120 1.261 . S
C115 O124 1.252 1_545 S
C115 O125 1.272 . S
O116 Co112 2.004 . S
O116 C121 1.259 . S
Co117 O118 2.061 . S
Co117 O123 2.052 . S
Co117 O125 2.135 . S
O118 Co117 2.061 . S
O118 C121 1.235 1_545 S
C119 O122 1.238 . S
C119 O123 1.241 . S
C120 O113 1.247 1_565 S
C120 O114 1.261 . S
C121 O116 1.259 . S
C121 O118 1.235 1_565 S
O122 Co112 2.021 1_545 S
O122 C119 1.238 . S
O123 Co117 2.052 . S
O123 C119 1.241 . S
O124 Co112 2.137 . S
O124 C115 1.252 1_565 S
O125 Co112 2.244 1_545 S
O125 C115 1.272 . S
O125 Co117 2.135 . S
Co126 O127 2.216 . S
Co126 O128 2.091 . S
Co126 O130 2.004 . S
Co126 O136 2.021 . S
Co126 O138 2.137 . S
Co126 O139 2.244 . S
O127 Co126 2.216 . S
O127 C134 1.247 . S
O128 Co126 2.091 . S
O128 C134 1.261 . S
C129 O138 1.247 . S
C129 O139 1.272 . S
O130 Co126 2.004 . S
O130 C135 1.259 . S
Co131 O132 2.061 . S
Co131 O137 2.052 . S
Co131 O139 2.135 . S
O132 Co131 2.061 . S
O132 C135 1.235 . S
C133 O136 1.238 . S
C133 O137 1.241 . S
C134 O127 1.247 . S
C134 O128 1.261 . S
C135 O130 1.259 . S
C135 O132 1.235 . S
O136 Co126 2.021 . S
O136 C133 1.238 . S
O137 Co131 2.052 . S
O137 C133 1.241 . S
O138 Co126 2.137 . S
O138 C129 1.247 . S
O139 Co126 2.244 . S
O139 C129 1.272 . S
O139 Co131 2.135 . S
Co140 O141 2.216 . S
Co140 O142 2.091 . S
Co140 O144 2.004 . S
Co140 O150 2.021 . S
Co140 O152 2.137 . S
Co140 O153 2.244 . S
O141 Co140 2.216 . S
O141 C148 1.247 . S
O142 Co140 2.091 . S
O142 C148 1.261 . S
C143 O152 1.247 . S
C143 O153 1.272 . S
O144 Co140 2.004 . S
O144 C149 1.259 . S
Co145 O146 2.061 . S
Co145 O151 2.052 . S
Co145 O153 2.135 . S
O146 Co145 2.061 . S
O146 C149 1.235 . S
C147 O150 1.238 . S
C147 O151 1.241 . S
C148 O141 1.247 . S
C148 O142 1.261 . S
C149 O144 1.259 . S
C149 O146 1.235 . S
O150 Co140 2.021 . S
O150 C147 1.238 . S
O151 Co145 2.052 . S
O151 C147 1.241 . S
O152 Co140 2.137 . S
O152 C143 1.247 . S
O153 Co140 2.244 . S
O153 C143 1.272 . S
O153 Co145 2.135 . S
Co154 O155 2.216 . S
Co154 O156 2.091 . S
Co154 O158 2.004 . S
Co154 O164 2.021 . S
Co154 O166 2.137 . S
Co154 O167 2.244 . S
O155 Co154 2.216 . S
O155 C162 1.247 . S
O156 Co154 2.091 . S
O156 C162 1.261 . S
C157 O166 1.247 . S
C157 O167 1.272 . S
O158 Co154 2.004 . S
O158 C163 1.259 . S
Co159 O160 2.051 1_554 S
Co159 O165 2.052 . S
Co159 O167 2.135 . S
O160 Co159 2.051 1_556 S
O160 C163 1.229 1_556 S
C161 O164 1.238 . S
C161 O165 1.241 . S
C162 O155 1.247 . S
C162 O156 1.261 . S
C163 O158 1.259 . S
C163 O160 1.229 1_554 S
O164 Co154 2.021 . S
O164 C161 1.238 . S
O165 Co159 2.052 . S
O165 C161 1.241 . S
O166 Co154 2.137 . S
O166 C157 1.247 . S
O167 Co154 2.244 . S
O167 C157 1.272 . S
O167 Co159 2.135 . S
Co168 O169 2.216 . S
Co168 O170 2.091 1_554 S
Co168 O172 2.004 1_554 S
Co168 O178 2.021 . S
Co168 O180 2.137 . S
Co168 O181 2.244 . S
O169 Co168 2.216 . S
O169 C176 1.247 1_554 S
O170 Co168 2.091 1_556 S
O170 C176 1.261 . S
C171 O180 1.247 . S
C171 O181 1.272 . S
O172 Co168 2.004 1_556 S
O172 C177 1.241 1_556 S
Co173 O174 2.061 . S
Co173 O179 2.052 . S
Co173 O181 2.135 . S
O174 Co173 2.061 . S
O174 C177 1.280 . S
C175 O178 1.238 . S
C175 O179 1.241 . S
C176 O169 1.247 1_556 S
C176 O170 1.261 . S
C177 O172 1.241 1_554 S
C177 O174 1.280 . S
O178 Co168 2.021 . S
O178 C175 1.238 . S
O179 Co173 2.052 . S
O179 C175 1.241 . S
O180 Co168 2.137 . S
O180 C171 1.247 . S
O181 Co168 2.244 . S
O181 C171 1.272 . S
O181 Co173 2.135 . S
Co182 O183 2.210 1_556 S
Co182 O184 2.091 . S
Co182 O186 2.004 . S
Co182 O192 2.021 1_556 S
Co182 O194 2.137 . S
Co182 O195 2.244 1_556 S
O183 Co182 2.210 1_554 S
O183 C190 1.215 1_554 S
O184 Co182 2.091 . S
O184 C190 1.261 . S
C185 O194 1.247 1_554 S
C185 O195 1.272 . S
O186 Co182 2.004 . S
O186 C191 1.259 . S
Co187 O188 2.061 . S
Co187 O193 2.052 . S
Co187 O195 2.135 . S
O188 Co187 2.061 . S
O188 C191 1.235 1_554 S
C189 O192 1.238 . S
C189 O193 1.241 . S
C190 O183 1.215 1_556 S
C190 O184 1.261 . S
C191 O186 1.259 . S
C191 O188 1.235 1_556 S
O192 Co182 2.021 1_554 S
O192 C189 1.238 . S
O193 Co187 2.052 . S
O193 C189 1.241 . S
O194 Co182 2.137 . S
O194 C185 1.247 1_556 S
O195 Co182 2.244 1_554 S
O195 C185 1.272 . S
O195 Co187 2.135 . S
Co196 O197 2.216 . S
Co196 O198 2.091 . S
Co196 O200 2.004 . S
Co196 O206 2.021 . S
Co196 O208 2.137 . S
Co196 O209 2.244 . S
O197 Co196 2.216 . S
O197 C204 1.247 . S
O198 Co196 2.091 . S
O198 C204 1.261 . S
C199 O208 1.247 . S
C199 O209 1.272 . S
O200 Co196 2.004 . S
O200 C205 1.259 . S
Co201 O202 2.061 . S
Co201 O207 2.052 . S
Co201 O209 2.135 . S
O202 Co201 2.061 . S
O202 C205 1.235 . S
C203 O206 1.238 . S
C203 O207 1.241 . S
C204 O197 1.247 . S
C204 O198 1.261 . S
C205 O200 1.259 . S
C205 O202 1.235 . S
O206 Co196 2.021 . S
O206 C203 1.238 . S
O207 Co201 2.052 . S
O207 C203 1.241 . S
O208 Co196 2.137 . S
O208 C199 1.247 . S
O209 Co196 2.244 . S
O209 C199 1.272 . S
O209 Co201 2.135 . S
Co210 O211 2.216 . S
Co210 O212 2.091 . S
Co210 O214 2.004 . S
Co210 O220 2.021 . S
Co210 O222 2.137 . S
Co210 O223 2.244 . S
O211 Co210 2.216 . S
O211 C218 1.247 . S
O212 Co210 2.091 . S
O212 C218 1.261 . S
C213 O222 1.247 . S
C213 O223 1.272 . S
O214 Co210 2.004 . S
O214 C219 1.259 . S
Co215 O216 2.061 . S
Co215 O221 2.052 . S
Co215 O223 2.135 . S
O216 Co215 2.061 . S
O216 C219 1.235 . S
C217 O220 1.238 . S
C217 O221 1.241 . S
C218 O211 1.247 . S
C218 O212 1.261 . S
C219 O214 1.259 . S
C219 O216 1.235 . S
O220 Co210 2.021 . S
O220 C217 1.238 . S
O221 Co215 2.052 . S
O221 C217 1.241 . S
O222 Co210 2.137 . S
O222 C213 1.247 . S
O223 Co210 2.244 . S
O223 C213 1.272 . S
O223 Co215 2.135 . S
Co224 O225 2.216 1_545 S
Co224 O226 2.091 1_545 S
Co224 O228 2.004 . S
Co224 O234 2.021 . S
Co224 O236 2.137 1_545 S
Co224 O237 2.244 . S
O225 Co224 2.216 1_565 S
O225 C232 1.247 . S
O226 Co224 2.091 1_565 S
O226 C232 1.261 . S
C227 O236 1.247 . S
C227 O237 1.272 1_565 S
O228 Co224 2.004 . S
O228 C233 1.259 . S
Co229 O230 2.061 . S
Co229 O235 2.052 . S
Co229 O237 2.135 . S
O230 Co229 2.061 . S
O230 C233 1.235 . S
C231 O234 1.238 . S
C231 O235 1.241 . S
C232 O225 1.247 . S
C232 O226 1.261 . S
C233 O228 1.259 . S
C233 O230 1.235 . S
O234 Co224 2.021 . S
O234 C231 1.238 . S
O235 Co229 2.052 . S
O235 C231 1.241 . S
O236 Co224 2.137 1_565 S
O236 C227 1.247 . S
O237 Co224 2.244 . S
O237 C227 1.272 1_545 S
O237 Co229 2.135 . S
Co238 O239 2.216 . S
Co238 O240 2.091 . S
Co238 O242 2.004 . S
Co238 O248 2.021 . S
Co238 O250 2.137 . S
Co238 O251 2.244 . S
O239 Co238 2.216 . S
O239 C246 1.247 . S
O240 Co238 2.091 . S
O240 C246 1.261 . S
C241 O250 1.247 . S
C241 O251 1.272 . S
O242 Co238 2.004 . S
O242 C247 1.259 . S
Co243 O244 2.061 . S
Co243 O249 2.052 . S
Co243 O251 2.135 . S
O244 Co243 2.061 . S
O244 C247 1.235 . S
C245 O248 1.238 . S
C245 O249 1.241 . S
C246 O239 1.247 . S
C246 O240 1.261 . S
C247 O242 1.259 . S
C247 O244 1.235 . S
O248 Co238 2.021 . S
O248 C245 1.238 . S
O249 Co243 2.052 . S
O249 C245 1.241 . S
O250 Co238 2.137 . S
O250 C241 1.247 . S
O251 Co238 2.244 . S
O251 C241 1.272 . S
O251 Co243 2.135 . S
Co252 O253 2.216 . S
Co252 O254 2.091 . S
Co252 O256 2.004 . S
Co252 O262 2.021 . S
Co252 O264 2.137 . S
Co252 O265 2.244 . S
O253 Co252 2.216 . S
O253 C260 1.247 . S
O254 Co252 2.091 . S
O254 C260 1.261 . S
C255 O264 1.247 . S
C255 O265 1.272 . S
O256 Co252 2.004 . S
O256 C261 1.259 . S
Co257 O258 2.061 . S
Co257 O263 2.052 . S
Co257 O265 2.135 . S
O258 Co257 2.061 . S
O258 C261 1.235 . S
C259 O262 1.238 . S
C259 O263 1.241 . S
C260 O253 1.247 . S
C260 O254 1.261 . S
C261 O256 1.259 . S
C261 O258 1.235 . S
O262 Co252 2.021 . S
O262 C259 1.238 . S
O263 Co257 2.052 . S
O263 C259 1.241 . S
O264 Co252 2.137 . S
O264 C255 1.247 . S
O265 Co252 2.244 . S
O265 C255 1.272 . S
O265 Co257 2.135 . S
Co266 O267 2.216 . S
Co266 O268 2.091 . S
Co266 O270 2.004 . S
Co266 O276 2.021 . S
Co266 O278 2.137 . S
Co266 O279 2.244 . S
O267 Co266 2.216 . S
O267 C274 1.247 . S
O268 Co266 2.091 . S
O268 C274 1.261 . S
C269 O278 1.247 . S
C269 O279 1.272 . S
O270 Co266 2.004 . S
O270 C275 1.259 . S
Co271 O272 2.061 . S
Co271 O277 2.052 . S
Co271 O279 2.135 . S
O272 Co271 2.061 . S
O272 C275 1.235 . S
C273 O276 1.238 . S
C273 O277 1.241 . S
C274 O267 1.247 . S
C274 O268 1.261 . S
C275 O270 1.259 . S
C275 O272 1.235 . S
O276 Co266 2.021 . S
O276 C273 1.238 . S
O277 Co271 2.052 . S
O277 C273 1.241 . S
O278 Co266 2.137 . S
O278 C269 1.247 . S
O279 Co266 2.244 . S
O279 C269 1.272 . S
O279 Co271 2.135 . S
Co280 O281 2.216 . S
Co280 O282 2.091 . S
Co280 O284 2.004 . S
Co280 O290 2.020 1_554 S
Co280 O292 2.137 . S
Co280 O293 2.244 . S
O281 Co280 2.216 . S
O281 C288 1.247 . S
O282 Co280 2.091 . S
O282 C288 1.261 . S
C283 O292 1.247 . S
C283 O293 1.272 . S
O284 Co280 2.004 . S
O284 C289 1.259 1_554 S
Co285 O286 2.061 . S
Co285 O291 2.052 . S
Co285 O293 2.135 1_556 S
O286 Co285 2.061 . S
O286 C289 1.235 . S
C287 O290 1.238 . S
C287 O291 1.241 . S
C288 O281 1.247 . S
C288 O282 1.261 . S
C289 O284 1.259 1_556 S
C289 O286 1.235 . S
O290 Co280 2.020 1_556 S
O290 C287 1.238 . S
O291 Co285 2.052 . S
O291 C287 1.241 . S
O292 Co280 2.137 . S
O292 C283 1.247 . S
O293 Co280 2.244 . S
O293 C283 1.272 . S
O293 Co285 2.135 1_554 S
Co294 O295 2.216 . S
Co294 O296 2.091 . S
Co294 O298 2.004 . S
Co294 O304 2.021 . S
Co294 O306 2.137 . S
Co294 O307 2.244 . S
O295 Co294 2.216 . S
O295 C302 1.247 . S
O296 Co294 2.091 . S
O296 C302 1.261 . S
C297 O306 1.247 . S
C297 O307 1.272 . S
O298 Co294 2.004 . S
O298 C303 1.259 . S
Co299 O300 2.061 . S
Co299 O305 2.052 . S
Co299 O307 2.135 . S
O300 Co299 2.061 . S
O300 C303 1.235 . S
C301 O304 1.238 . S
C301 O305 1.241 . S
C302 O295 1.247 . S
C302 O296 1.261 . S
C303 O298 1.259 . S
C303 O300 1.235 . S
O304 Co294 2.021 . S
O304 C301 1.238 . S
O305 Co299 2.052 . S
O305 C301 1.241 . S
O306 Co294 2.137 . S
O306 C297 1.247 . S
O307 Co294 2.244 . S
O307 C297 1.272 . S
O307 Co299 2.135 . S
Co308 O309 2.216 . S
Co308 O310 2.091 . S
Co308 O312 2.004 . S
Co308 O318 2.021 . S
Co308 O320 2.137 . S
Co308 O321 2.244 . S
O309 Co308 2.216 . S
O309 C316 1.247 . S
O310 Co308 2.091 . S
O310 C316 1.261 . S
C311 O320 1.247 . S
C311 O321 1.272 . S
O312 Co308 2.004 . S
O312 C317 1.259 . S
Co313 O314 2.061 . S
Co313 O319 2.052 . S
Co313 O321 2.135 . S
O314 Co313 2.061 . S
O314 C317 1.235 . S
C315 O318 1.238 . S
C315 O319 1.241 . S
C316 O309 1.247 . S
C316 O310 1.261 . S
C317 O312 1.259 . S
C317 O314 1.235 . S
O318 Co308 2.021 . S
O318 C315 1.238 . S
O319 Co313 2.052 . S
O319 C315 1.241 . S
O320 Co308 2.137 . S
O320 C311 1.247 . S
O321 Co308 2.244 . S
O321 C311 1.272 . S
O321 Co313 2.135 . S
Co322 O323 2.216 . S
Co322 O324 2.091 . S
Co322 O326 2.004 . S
Co322 O332 2.021 . S
Co322 O334 2.137 . S
Co322 O335 2.244 . S
O323 Co322 2.216 . S
O323 C330 1.247 . S
O324 Co322 2.091 . S
O324 C330 1.261 . S
C325 O334 1.247 . S
C325 O335 1.272 . S
O326 Co322 2.004 . S
O326 C331 1.259 . S
Co327 O328 2.061 . S
Co327 O333 2.052 . S
Co327 O335 2.135 . S
O328 Co327 2.061 . S
O328 C331 1.235 . S
C329 O332 1.238 . S
C329 O333 1.241 . S
C330 O323 1.247 . S
C330 O324 1.261 . S
C331 O326 1.259 . S
C331 O328 1.235 . S
O332 Co322 2.021 . S
O332 C329 1.238 . S
O333 Co327 2.052 . S
O333 C329 1.241 . S
O334 Co322 2.137 . S
O334 C325 1.247 . S
O335 Co322 2.244 . S
O335 C325 1.272 . S
O335 Co327 2.135 . S
O336 Mg337 1.990 . S
O336 C350 1.253 . S
Mg337 O336 1.990 . S
Mg337 O340 2.180 . S
Mg337 O341 2.117 . S
Mg337 O355 2.030 . S
O338 Mg339 2.072 . S
O338 C350 1.260 . S
Mg339 O338 2.072 . S
Mg339 O340 2.099 . S
Mg339 O342 2.079 . S
Mg339 O343 2.072 . S
Mg339 O345 2.099 . S
Mg339 O356 2.079 . S
O340 Mg337 2.180 . S
O340 Mg339 2.099 . S
O340 C351 1.279 . S
O341 Mg337 2.117 . S
O341 C351 1.250 . S
O342 Mg339 2.079 . S
O342 C352 1.264 . S
O343 Mg339 2.072 . S
O343 C353 1.260 . S
Mg344 O345 2.180 . S
Mg344 O346 2.030 . S
Mg344 O347 1.990 . S
Mg344 O348 2.117 . S
O345 Mg339 2.099 . S
O345 Mg344 2.180 . S
O345 C354 1.279 . S
O346 Mg344 2.030 . S
O346 C352 1.248 . S
O347 Mg344 1.990 . S
O347 C353 1.253 . S
O348 Mg344 2.117 . S
O348 C354 1.250 . S
C349 O355 1.248 . S
C349 O356 1.264 . S
C350 O336 1.253 . S
C350 O338 1.260 . S
C351 O340 1.279 . S
C351 O341 1.250 . S
C352 O342 1.264 . S
C352 O346 1.248 . S
C353 O343 1.260 . S
C353 O347 1.253 . S
C354 O345 1.279 . S
C354 O348 1.250 . S
O355 Mg337 2.030 . S
O355 C349 1.248 . S
O356 Mg339 2.079 . S
O356 C349 1.264 . S
O357 Mg358 1.990 . S
O357 C371 1.253 . S
Mg358 O357 1.990 . S
Mg358 O361 2.180 . S
Mg358 O362 2.117 . S
Mg358 O376 2.030 . S
O359 Mg360 2.072 . S
O359 C371 1.260 . S
Mg360 O359 2.072 . S
Mg360 O361 2.099 . S
Mg360 O363 2.079 . S
Mg360 O364 2.072 . S
Mg360 O366 2.099 . S
Mg360 O377 2.079 . S
O361 Mg358 2.180 . S
O361 Mg360 2.099 . S
O361 C372 1.279 . S
O362 Mg358 2.117 . S
O362 C372 1.250 . S
O363 Mg360 2.079 . S
O363 C373 1.264 . S
O364 Mg360 2.072 . S
O364 C374 1.260 . S
Mg365 O366 2.180 . S
Mg365 O367 2.030 . S
Mg365 O368 1.990 . S
Mg365 O369 2.117 . S
O366 Mg360 2.099 . S
O366 Mg365 2.180 . S
O366 C375 1.279 . S
O367 Mg365 2.030 . S
O367 C373 1.248 . S
O368 Mg365 1.990 . S
O368 C374 1.253 . S
O369 Mg365 2.117 . S
O369 C375 1.250 . S
C370 O376 1.248 . S
C370 O377 1.264 . S
C371 O357 1.253 . S
C371 O359 1.260 . S
C372 O361 1.279 . S
C372 O362 1.250 . S
C373 O363 1.264 . S
C373 O367 1.248 . S
C374 O364 1.260 . S
C374 O368 1.253 . S
C375 O366 1.279 . S
C375 O369 1.250 . S
O376 Mg358 2.030 . S
O376 C370 1.248 . S
O377 Mg360 2.079 . S
O377 C370 1.264 . S
O378 Mg379 1.990 . S
O378 C392 1.253 . S
Mg379 O378 1.990 . S
Mg379 O382 2.180 . S
Mg379 O383 2.117 . S
Mg379 O397 2.030 . S
O380 Mg381 2.072 . S
O380 C392 1.260 . S
Mg381 O380 2.072 . S
Mg381 O382 2.099 . S
Mg381 O384 2.079 . S
Mg381 O385 2.072 . S
Mg381 O387 2.099 . S
Mg381 O398 2.079 . S
O382 Mg379 2.180 . S
O382 Mg381 2.099 . S
O382 C393 1.279 . S
O383 Mg379 2.117 . S
O383 C393 1.250 . S
O384 Mg381 2.079 . S
O384 C394 1.264 . S
O385 Mg381 2.072 . S
O385 C395 1.260 . S
Mg386 O387 2.180 . S
Mg386 O388 2.030 . S
Mg386 O389 1.990 . S
Mg386 O390 2.117 . S
O387 Mg381 2.099 . S
O387 Mg386 2.180 . S
O387 C396 1.279 . S
O388 Mg386 2.030 . S
O388 C394 1.248 . S
O389 Mg386 1.990 . S
O389 C395 1.253 . S
O390 Mg386 2.117 . S
O390 C396 1.250 . S
C391 O397 1.248 . S
C391 O398 1.264 . S
C392 O378 1.253 . S
C392 O380 1.260 . S
C393 O382 1.279 . S
C393 O383 1.250 . S
C394 O384 1.264 . S
C394 O388 1.248 . S
C395 O385 1.260 . S
C395 O389 1.253 . S
C396 O387 1.279 . S
C396 O390 1.250 . S
O397 Mg379 2.030 . S
O397 C391 1.248 . S
O398 Mg381 2.079 . S
O398 C391 1.264 . S
O399 Mg400 1.990 . S
O399 C413 1.253 . S
Mg400 O399 1.990 . S
Mg400 O403 2.180 . S
Mg400 O404 2.117 . S
Mg400 O418 2.030 . S
O401 Mg402 2.072 . S
O401 C413 1.260 . S
Mg402 O401 2.072 . S
Mg402 O403 2.099 . S
Mg402 O405 2.079 . S
Mg402 O406 2.072 . S
Mg402 O408 2.099 . S
Mg402 O419 2.079 . S
O403 Mg400 2.180 . S
O403 Mg402 2.099 . S
O403 C414 1.279 . S
O404 Mg400 2.117 . S
O404 C414 1.250 . S
O405 Mg402 2.079 . S
O405 C415 1.264 . S
O406 Mg402 2.072 . S
O406 C416 1.260 . S
Mg407 O408 2.180 . S
Mg407 O409 2.030 . S
Mg407 O410 1.990 . S
Mg407 O411 2.117 . S
O408 Mg402 2.099 . S
O408 Mg407 2.180 . S
O408 C417 1.279 . S
O409 Mg407 2.030 . S
O409 C415 1.248 . S
O410 Mg407 1.990 . S
O410 C416 1.253 . S
O411 Mg407 2.117 . S
O411 C417 1.250 . S
C412 O418 1.248 . S
C412 O419 1.264 . S
C413 O399 1.253 . S
C413 O401 1.260 . S
C414 O403 1.279 . S
C414 O404 1.250 . S
C415 O405 1.264 . S
C415 O409 1.248 . S
C416 O406 1.260 . S
C416 O410 1.253 . S
C417 O408 1.279 . S
C417 O411 1.250 . S
O418 Mg400 2.030 . S
O418 C412 1.248 . S
O419 Mg402 2.079 . S
O419 C412 1.264 . S
O420 Mg421 1.990 . S
O420 C434 1.253 . S
Mg421 O420 1.990 . S
Mg421 O424 2.180 . S
Mg421 O425 2.117 . S
Mg421 O439 2.030 . S
O422 Mg423 2.072 . S
O422 C434 1.260 . S
Mg423 O422 2.072 . S
Mg423 O424 2.099 . S
Mg423 O426 2.079 . S
Mg423 O427 2.072 . S
Mg423 O429 2.099 . S
Mg423 O440 2.079 . S
O424 Mg421 2.180 . S
O424 Mg423 2.099 . S
O424 C435 1.279 . S
O425 Mg421 2.117 . S
O425 C435 1.250 . S
O426 Mg423 2.079 . S
O426 C436 1.264 . S
O427 Mg423 2.072 . S
O427 C437 1.260 . S
Mg428 O429 2.180 . S
Mg428 O430 2.030 . S
Mg428 O431 1.990 . S
Mg428 O432 2.117 . S
O429 Mg423 2.099 . S
O429 Mg428 2.180 . S
O429 C438 1.279 . S
O430 Mg428 2.030 . S
O430 C436 1.248 . S
O431 Mg428 1.990 . S
O431 C437 1.253 . S
O432 Mg428 2.117 . S
O432 C438 1.250 . S
C433 O439 1.248 . S
C433 O440 1.264 . S
C434 O420 1.253 . S
C434 O422 1.260 . S
C435 O424 1.279 . S
C435 O425 1.250 . S
C436 O426 1.264 . S
C436 O430 1.248 . S
C437 O427 1.260 . S
C437 O431 1.253 . S
C438 O429 1.279 . S
C438 O432 1.250 . S
O439 Mg421 2.030 . S
O439 C433 1.248 . S
O440 Mg423 2.079 . S
O440 C433 1.264 . S
O441 Mg442 1.990 . S
O441 C455 1.253 . S
Mg442 O441 1.990 . S
Mg442 O445 2.180 . S
Mg442 O446 2.117 . S
Mg442 O460 2.030 . S
O443 Mg444 2.072 . S
O443 C455 1.260 . S
Mg444 O443 2.072 . S
Mg444 O445 2.099 . S
Mg444 O447 2.079 . S
Mg444 O448 2.072 . S
Mg444 O450 2.099 . S
Mg444 O461 2.079 . S
O445 Mg442 2.180 . S
O445 Mg444 2.099 . S
O445 C456 1.279 . S
O446 Mg442 2.117 . S
O446 C456 1.250 . S
O447 Mg444 2.079 . S
O447 C457 1.264 . S
O448 Mg444 2.072 . S
O448 C458 1.260 . S
Mg449 O450 2.180 . S
Mg449 O451 2.030 . S
Mg449 O452 1.990 . S
Mg449 O453 2.117 . S
O450 Mg444 2.099 . S
O450 Mg449 2.180 . S
O450 C459 1.279 . S
O451 Mg449 2.030 . S
O451 C457 1.248 . S
O452 Mg449 1.990 . S
O452 C458 1.253 . S
O453 Mg449 2.117 . S
O453 C459 1.250 . S
C454 O460 1.248 . S
C454 O461 1.264 . S
C455 O441 1.253 . S
C455 O443 1.260 . S
C456 O445 1.279 . S
C456 O446 1.250 . S
C457 O447 1.264 . S
C457 O451 1.248 . S
C458 O448 1.260 . S
C458 O452 1.253 . S
C459 O450 1.279 . S
C459 O453 1.250 . S
O460 Mg442 2.030 . S
O460 C454 1.248 . S
O461 Mg444 2.079 . S
O461 C454 1.264 . S
O462 Mg463 1.990 . S
O462 C476 1.253 . S
Mg463 O462 1.990 . S
Mg463 O466 2.180 . S
Mg463 O467 2.117 . S
Mg463 O481 2.030 . S
O464 Mg465 2.072 . S
O464 C476 1.260 . S
Mg465 O464 2.072 . S
Mg465 O466 2.099 . S
Mg465 O468 2.079 . S
Mg465 O469 2.072 . S
Mg465 O471 2.099 . S
Mg465 O482 2.079 . S
O466 Mg463 2.180 . S
O466 Mg465 2.099 . S
O466 C477 1.279 . S
O467 Mg463 2.117 . S
O467 C477 1.250 . S
O468 Mg465 2.079 . S
O468 C478 1.264 . S
O469 Mg465 2.072 . S
O469 C479 1.260 . S
Mg470 O471 2.180 . S
Mg470 O472 2.030 . S
Mg470 O473 1.990 . S
Mg470 O474 2.117 . S
O471 Mg465 2.099 . S
O471 Mg470 2.180 . S
O471 C480 1.279 . S
O472 Mg470 2.030 . S
O472 C478 1.248 . S
O473 Mg470 1.990 . S
O473 C479 1.253 . S
O474 Mg470 2.117 . S
O474 C480 1.250 . S
C475 O481 1.248 . S
C475 O482 1.264 . S
C476 O462 1.253 . S
C476 O464 1.260 . S
C477 O466 1.279 . S
C477 O467 1.250 . S
C478 O468 1.264 . S
C478 O472 1.248 . S
C479 O469 1.260 . S
C479 O473 1.253 . S
C480 O471 1.279 . S
C480 O474 1.250 . S
O481 Mg463 2.030 . S
O481 C475 1.248 . S
O482 Mg465 2.079 . S
O482 C475 1.264 . S
O483 Mg484 1.990 . S
O483 C497 1.253 . S
Mg484 O483 1.990 . S
Mg484 O487 2.180 . S
Mg484 O488 2.117 . S
Mg484 O502 2.030 . S
O485 Mg486 2.072 . S
O485 C497 1.260 . S
Mg486 O485 2.072 . S
Mg486 O487 2.099 . S
Mg486 O489 2.079 . S
Mg486 O490 2.072 . S
Mg486 O492 2.099 . S
Mg486 O503 2.079 . S
O487 Mg484 2.180 . S
O487 Mg486 2.099 . S
O487 C498 1.279 . S
O488 Mg484 2.117 . S
O488 C498 1.250 . S
O489 Mg486 2.079 . S
O489 C499 1.264 . S
O490 Mg486 2.072 . S
O490 C500 1.260 . S
Mg491 O492 2.180 . S
Mg491 O493 2.030 . S
Mg491 O494 1.990 . S
Mg491 O495 2.117 . S
O492 Mg486 2.099 . S
O492 Mg491 2.180 . S
O492 C501 1.279 . S
O493 Mg491 2.030 . S
O493 C499 1.248 . S
O494 Mg491 1.990 . S
O494 C500 1.253 . S
O495 Mg491 2.117 . S
O495 C501 1.250 . S
C496 O502 1.248 . S
C496 O503 1.264 . S
C497 O483 1.253 . S
C497 O485 1.260 . S
C498 O487 1.279 . S
C498 O488 1.250 . S
C499 O489 1.264 . S
C499 O493 1.248 . S
C500 O490 1.260 . S
C500 O494 1.253 . S
C501 O492 1.279 . S
C501 O495 1.250 . S
O502 Mg484 2.030 . S
O502 C496 1.248 . S
O503 Mg486 2.079 . S
O503 C496 1.264 . S
O504 Mg505 1.990 . S
O504 C518 1.253 . S
Mg505 O504 1.990 . S
Mg505 O508 2.180 . S
Mg505 O509 2.117 . S
Mg505 O523 2.030 . S
O506 Mg507 2.072 . S
O506 C518 1.260 . S
Mg507 O506 2.072 . S
Mg507 O508 2.099 . S
Mg507 O510 2.079 . S
Mg507 O511 2.072 . S
Mg507 O513 2.099 . S
Mg507 O524 2.079 . S
O508 Mg505 2.180 . S
O508 Mg507 2.099 . S
O508 C519 1.279 . S
O509 Mg505 2.117 . S
O509 C519 1.250 . S
O510 Mg507 2.079 . S
O510 C520 1.264 . S
O511 Mg507 2.072 . S
O511 C521 1.260 . S
Mg512 O513 2.180 . S
Mg512 O514 2.030 . S
Mg512 O515 1.990 . S
Mg512 O516 2.117 . S
O513 Mg507 2.099 . S
O513 Mg512 2.180 . S
O513 C522 1.279 . S
O514 Mg512 2.030 . S
O514 C520 1.248 . S
O515 Mg512 1.990 . S
O515 C521 1.253 . S
O516 Mg512 2.117 . S
O516 C522 1.250 . S
C517 O523 1.248 . S
C517 O524 1.264 . S
C518 O504 1.253 . S
C518 O506 1.260 . S
C519 O508 1.279 . S
C519 O509 1.250 . S
C520 O510 1.264 . S
C520 O514 1.248 . S
C521 O511 1.260 . S
C521 O515 1.253 . S
C522 O513 1.279 . S
C522 O516 1.250 . S
O523 Mg505 2.030 . S
O523 C517 1.248 . S
O524 Mg507 2.079 . S
O524 C517 1.264 . S
O525 Mg526 1.990 . S
O525 C539 1.253 . S
Mg526 O525 1.990 . S
Mg526 O529 2.180 . S
Mg526 O530 2.117 . S
Mg526 O544 2.030 . S
O527 Mg528 2.072 . S
O527 C539 1.260 . S
Mg528 O527 2.072 . S
Mg528 O529 2.099 . S
Mg528 O531 2.079 . S
Mg528 O532 2.072 . S
Mg528 O534 2.099 . S
Mg528 O545 2.079 . S
O529 Mg526 2.180 . S
O529 Mg528 2.099 . S
O529 C540 1.279 . S
O530 Mg526 2.117 . S
O530 C540 1.250 . S
O531 Mg528 2.079 . S
O531 C541 1.264 . S
O532 Mg528 2.072 . S
O532 C542 1.260 . S
Mg533 O534 2.180 . S
Mg533 O535 2.030 . S
Mg533 O536 1.990 . S
Mg533 O537 2.117 . S
O534 Mg528 2.099 . S
O534 Mg533 2.180 . S
O534 C543 1.279 . S
O535 Mg533 2.030 . S
O535 C541 1.248 . S
O536 Mg533 1.990 . S
O536 C542 1.253 . S
O537 Mg533 2.117 . S
O537 C543 1.250 . S
C538 O544 1.248 . S
C538 O545 1.264 . S
C539 O525 1.253 . S
C539 O527 1.260 . S
C540 O529 1.279 . S
C540 O530 1.250 . S
C541 O531 1.264 . S
C541 O535 1.248 . S
C542 O532 1.260 . S
C542 O536 1.253 . S
C543 O534 1.279 . S
C543 O537 1.250 . S
O544 Mg526 2.030 . S
O544 C538 1.248 . S
O545 Mg528 2.079 . S
O545 C538 1.264 . S
O546 Mg547 1.990 . S
O546 C560 1.253 . S
Mg547 O546 1.990 . S
Mg547 O550 2.180 . S
Mg547 O551 2.117 . S
Mg547 O565 2.030 . S
O548 Mg549 2.072 . S
O548 C560 1.260 . S
Mg549 O548 2.072 . S
Mg549 O550 2.099 . S
Mg549 O552 2.079 . S
Mg549 O553 2.072 . S
Mg549 O555 2.099 . S
Mg549 O566 2.079 . S
O550 Mg547 2.180 . S
O550 Mg549 2.099 . S
O550 C561 1.279 . S
O551 Mg547 2.117 . S
O551 C561 1.250 . S
O552 Mg549 2.079 . S
O552 C562 1.264 . S
O553 Mg549 2.072 . S
O553 C563 1.260 . S
Mg554 O555 2.180 . S
Mg554 O556 2.030 . S
Mg554 O557 1.990 . S
Mg554 O558 2.117 . S
O555 Mg549 2.099 . S
O555 Mg554 2.180 . S
O555 C564 1.279 . S
O556 Mg554 2.030 . S
O556 C562 1.248 . S
O557 Mg554 1.990 . S
O557 C563 1.253 . S
O558 Mg554 2.117 . S
O558 C564 1.250 . S
C559 O565 1.248 . S
C559 O566 1.264 . S
C560 O546 1.253 . S
C560 O548 1.260 . S
C561 O550 1.279 . S
C561 O551 1.250 . S
C562 O552 1.264 . S
C562 O556 1.248 . S
C563 O553 1.260 . S
C563 O557 1.253 . S
C564 O555 1.279 . S
C564 O558 1.250 . S
O565 Mg547 2.030 . S
O565 C559 1.248 . S
O566 Mg549 2.079 . S
O566 C559 1.264 . S
O567 Mg568 1.990 . S
O567 C581 1.253 . S
Mg568 O567 1.990 . S
Mg568 O571 2.180 . S
Mg568 O572 2.117 . S
Mg568 O586 2.030 . S
O569 Mg570 2.072 . S
O569 C581 1.260 . S
Mg570 O569 2.072 . S
Mg570 O571 2.099 . S
Mg570 O573 2.079 . S
Mg570 O574 2.072 . S
Mg570 O576 2.099 . S
Mg570 O587 2.079 . S
O571 Mg568 2.180 . S
O571 Mg570 2.099 . S
O571 C582 1.279 . S
O572 Mg568 2.117 . S
O572 C582 1.250 . S
O573 Mg570 2.079 . S
O573 C583 1.264 . S
O574 Mg570 2.072 . S
O574 C584 1.260 . S
Mg575 O576 2.180 . S
Mg575 O577 2.030 . S
Mg575 O578 1.990 . S
Mg575 O579 2.117 . S
O576 Mg570 2.099 . S
O576 Mg575 2.180 . S
O576 C585 1.279 . S
O577 Mg575 2.030 . S
O577 C583 1.248 . S
O578 Mg575 1.990 . S
O578 C584 1.253 . S
O579 Mg575 2.117 . S
O579 C585 1.250 . S
C580 O586 1.248 . S
C580 O587 1.264 . S
C581 O567 1.253 . S
C581 O569 1.260 . S
C582 O571 1.279 . S
C582 O572 1.250 . S
C583 O573 1.264 . S
C583 O577 1.248 . S
C584 O574 1.260 . S
C584 O578 1.253 . S
C585 O576 1.279 . S
C585 O579 1.250 . S
O586 Mg568 2.030 . S
O586 C580 1.248 . S
O587 Mg570 2.079 . S
O587 C580 1.264 . S
O588 Mg589 1.990 . S
O588 C602 1.253 . S
Mg589 O588 1.990 . S
Mg589 O592 2.180 . S
Mg589 O593 2.117 . S
Mg589 O607 2.030 . S
O590 Mg591 2.072 . S
O590 C602 1.260 . S
Mg591 O590 2.072 . S
Mg591 O592 2.099 . S
Mg591 O594 2.079 . S
Mg591 O595 2.072 . S
Mg591 O597 2.099 . S
Mg591 O608 2.079 . S
O592 Mg589 2.180 . S
O592 Mg591 2.099 . S
O592 C603 1.279 . S
O593 Mg589 2.117 . S
O593 C603 1.250 . S
O594 Mg591 2.079 . S
O594 C604 1.264 . S
O595 Mg591 2.072 . S
O595 C605 1.260 . S
Mg596 O597 2.180 . S
Mg596 O598 2.030 . S
Mg596 O599 1.990 . S
Mg596 O600 2.117 . S
O597 Mg591 2.099 . S
O597 Mg596 2.180 . S
O597 C606 1.279 . S
O598 Mg596 2.030 . S
O598 C604 1.248 . S
O599 Mg596 1.990 . S
O599 C605 1.253 . S
O600 Mg596 2.117 . S
O600 C606 1.250 . S
C601 O607 1.248 . S
C601 O608 1.264 . S
C602 O588 1.253 . S
C602 O590 1.260 . S
C603 O592 1.279 . S
C603 O593 1.250 . S
C604 O594 1.264 . S
C604 O598 1.248 . S
C605 O595 1.260 . S
C605 O599 1.253 . S
C606 O597 1.279 . S
C606 O600 1.250 . S
O607 Mg589 2.030 . S
O607 C601 1.248 . S
O608 Mg591 2.079 . S
O608 C601 1.264 . S
O609 Mg610 1.990 . S
O609 C623 1.253 . S
Mg610 O609 1.990 . S
Mg610 O613 2.180 . S
Mg610 O614 2.117 . S
Mg610 O628 2.030 . S
O611 Mg612 2.072 . S
O611 C623 1.260 . S
Mg612 O611 2.072 . S
Mg612 O613 2.099 . S
Mg612 O615 2.079 . S
Mg612 O616 2.072 . S
Mg612 O618 2.099 . S
Mg612 O629 2.079 . S
O613 Mg610 2.180 . S
O613 Mg612 2.099 . S
O613 C624 1.279 . S
O614 Mg610 2.117 . S
O614 C624 1.250 . S
O615 Mg612 2.079 . S
O615 C625 1.264 . S
O616 Mg612 2.072 . S
O616 C626 1.260 . S
Mg617 O618 2.180 . S
Mg617 O619 2.030 . S
Mg617 O620 1.990 . S
Mg617 O621 2.117 . S
O618 Mg612 2.099 . S
O618 Mg617 2.180 . S
O618 C627 1.279 . S
O619 Mg617 2.030 . S
O619 C625 1.248 . S
O620 Mg617 1.990 . S
O620 C626 1.253 . S
O621 Mg617 2.117 . S
O621 C627 1.250 . S
C622 O628 1.248 . S
C622 O629 1.264 . S
C623 O609 1.253 . S
C623 O611 1.260 . S
C624 O613 1.279 . S
C624 O614 1.250 . S
C625 O615 1.264 . S
C625 O619 1.248 . S
C626 O616 1.260 . S
C626 O620 1.253 . S
C627 O618 1.279 . S
C627 O621 1.250 . S
O628 Mg610 2.030 . S
O628 C622 1.248 . S
O629 Mg612 2.079 . S
O629 C622 1.264 . S
O630 Mg631 1.990 . S
O630 C644 1.253 . S
Mg631 O630 1.990 . S
Mg631 O634 2.180 . S
Mg631 O635 2.117 . S
Mg631 O649 2.030 . S
O632 Mg633 2.072 . S
O632 C644 1.260 . S
Mg633 O632 2.072 . S
Mg633 O634 2.099 . S
Mg633 O636 2.079 . S
Mg633 O637 2.072 . S
Mg633 O639 2.099 . S
Mg633 O650 2.079 . S
O634 Mg631 2.180 . S
O634 Mg633 2.099 . S
O634 C645 1.279 . S
O635 Mg631 2.117 . S
O635 C645 1.250 . S
O636 Mg633 2.079 . S
O636 C646 1.264 . S
O637 Mg633 2.072 . S
O637 C647 1.260 . S
Mg638 O639 2.180 . S
Mg638 O640 2.030 . S
Mg638 O641 1.990 . S
Mg638 O642 2.117 . S
O639 Mg633 2.099 . S
O639 Mg638 2.180 . S
O639 C648 1.279 . S
O640 Mg638 2.030 . S
O640 C646 1.248 . S
O641 Mg638 1.990 . S
O641 C647 1.253 . S
O642 Mg638 2.117 . S
O642 C648 1.250 . S
C643 O649 1.248 . S
C643 O650 1.264 . S
C644 O630 1.253 . S
C644 O632 1.260 . S
C645 O634 1.279 . S
C645 O635 1.250 . S
C646 O636 1.264 . S
C646 O640 1.248 . S
C647 O637 1.260 . S
C647 O641 1.253 . S
C648 O639 1.279 . S
C648 O642 1.250 . S
O649 Mg631 2.030 . S
O649 C643 1.248 . S
O650 Mg633 2.079 . S
O650 C643 1.264 . S
O651 Mg652 1.990 . S
O651 C665 1.253 . S
Mg652 O651 1.990 . S
Mg652 O655 2.180 . S
Mg652 O656 2.117 . S
Mg652 O670 2.030 . S
O653 Mg654 2.072 . S
O653 C665 1.260 . S
Mg654 O653 2.072 . S
Mg654 O655 2.099 . S
Mg654 O657 2.079 . S
Mg654 O658 2.072 . S
Mg654 O660 2.099 . S
Mg654 O671 2.079 . S
O655 Mg652 2.180 . S
O655 Mg654 2.099 . S
O655 C666 1.279 . S
O656 Mg652 2.117 . S
O656 C666 1.250 . S
O657 Mg654 2.079 . S
O657 C667 1.264 . S
O658 Mg654 2.072 . S
O658 C668 1.260 . S
Mg659 O660 2.180 . S
Mg659 O661 2.030 . S
Mg659 O662 1.990 . S
Mg659 O663 2.117 . S
O660 Mg654 2.099 . S
O660 Mg659 2.180 . S
O660 C669 1.279 . S
O661 Mg659 2.030 . S
O661 C667 1.248 . S
O662 Mg659 1.990 . S
O662 C668 1.253 . S
O663 Mg659 2.117 . S
O663 C669 1.250 . S
C664 O670 1.248 . S
C664 O671 1.264 . S
C665 O651 1.253 . S
C665 O653 1.260 . S
C666 O655 1.279 . S
C666 O656 1.250 . S
C667 O657 1.264 . S
C667 O661 1.248 . S
C668 O658 1.260 . S
C668 O662 1.253 . S
C669 O660 1.279 . S
C669 O663 1.250 . S
O670 Mg652 2.030 . S
O670 C664 1.248 . S
O671 Mg654 2.079 . S
O671 C664 1.264 . S
C672 C673 1.349 . S
C672 C674 1.327 . S
C672 H697 0.950 . S
C673 C672 1.349 . S
C673 C689 1.349 . S
C674 C672 1.327 . S
C674 C693 1.429 . S
C674 H698 0.950 . S
C675 C692 1.574 . S
C675 C694 1.368 . S
C675 H699 0.949 . S
H676 C680 0.949 . S
C677 C678 1.349 . S
C677 C679 1.327 . S
C677 H700 0.950 . S
C678 C677 1.349 . S
C678 C690 1.349 . S
C679 C677 1.327 . S
C679 C695 1.429 . S
C679 H701 0.950 . S
C680 H676 0.949 . S
C680 C688 1.574 . S
C680 C696 1.368 . S
H681 C689 0.950 . S
H682 C687 0.950 . S
H683 C688 0.949 . S
H684 C690 0.950 . S
H685 C691 0.950 . S
H686 C692 0.949 . S
C687 H682 0.950 . S
C687 C689 1.327 . S
C687 C693 1.429 . S
C688 C680 1.574 . S
C688 H683 0.949 . S
C688 C694 1.368 . S
C689 C673 1.349 . S
C689 H681 0.950 . S
C689 C687 1.327 . S
C690 C678 1.349 . S
C690 H684 0.950 . S
C690 C691 1.327 . S
C691 H685 0.950 . S
C691 C690 1.327 . S
C691 C695 1.429 . S
C692 C675 1.574 . S
C692 H686 0.949 . S
C692 C696 1.368 . S
C693 C674 1.429 . S
C693 C687 1.429 . S
C693 C694 1.523 . S
C694 C675 1.368 . S
C694 C688 1.368 . S
C694 C693 1.523 . S
C695 C679 1.429 . S
C695 C691 1.429 . S
C695 C696 1.523 . S
C696 C680 1.368 . S
C696 C692 1.368 . S
C696 C695 1.523 . S
H697 C672 0.950 . S
H698 C674 0.950 . S
H699 C675 0.949 . S
H700 C677 0.950 . S
H701 C679 0.950 . S
C702 C703 1.349 . S
C702 C704 1.327 . S
C702 H727 0.950 . S
C703 C702 1.349 . S
C703 C719 1.349 . S
C704 C702 1.327 . S
C704 C723 1.429 . S
C704 H728 0.950 . S
C705 C722 1.574 . S
C705 C724 1.368 . S
C705 H729 0.949 . S
H706 C710 0.949 . S
C707 C708 1.349 . S
C707 C709 1.327 . S
C707 H730 0.950 . S
C708 C707 1.349 . S
C708 C720 1.349 . S
C709 C707 1.327 . S
C709 C725 1.429 . S
C709 H731 0.950 . S
C710 H706 0.949 . S
C710 C718 1.574 . S
C710 C726 1.368 . S
H711 C719 0.950 . S
H712 C717 0.950 . S
H713 C718 0.949 . S
H714 C720 0.950 . S
H715 C721 0.950 . S
H716 C722 0.949 . S
C717 H712 0.950 . S
C717 C719 1.327 . S
C717 C723 1.429 . S
C718 C710 1.574 . S
C718 H713 0.949 . S
C718 C724 1.368 . S
C719 C703 1.349 . S
C719 H711 0.950 . S
C719 C717 1.327 . S
C720 C708 1.349 . S
C720 H714 0.950 . S
C720 C721 1.327 . S
C721 H715 0.950 . S
C721 C720 1.327 . S
C721 C725 1.429 . S
C722 C705 1.574 . S
C722 H716 0.949 . S
C722 C726 1.368 . S
C723 C704 1.429 . S
C723 C717 1.429 . S
C723 C724 1.523 . S
C724 C705 1.368 . S
C724 C718 1.368 . S
C724 C723 1.523 . S
C725 C709 1.429 . S
C725 C721 1.429 . S
C725 C726 1.523 . S
C726 C710 1.368 . S
C726 C722 1.368 . S
C726 C725 1.523 . S
H727 C702 0.950 . S
H728 C704 0.950 . S
H729 C705 0.949 . S
H730 C707 0.950 . S
H731 C709 0.950 . S
C732 C733 1.349 . S
C732 C734 1.327 . S
C732 H757 0.950 . S
C733 C732 1.349 . S
C733 C749 1.349 . S
C734 C732 1.327 . S
C734 C753 1.429 . S
C734 H758 0.950 . S
C735 C752 1.574 . S
C735 C754 1.368 . S
C735 H759 0.949 . S
H736 C740 0.949 . S
C737 C738 1.349 . S
C737 C739 1.327 . S
C737 H760 0.950 . S
C738 C737 1.349 . S
C738 C750 1.349 . S
C739 C737 1.327 . S
C739 C755 1.429 . S
C739 H761 0.950 . S
C740 H736 0.949 . S
C740 C748 1.574 . S
C740 C756 1.368 . S
H741 C749 0.950 . S
H742 C747 0.950 . S
H743 C748 0.949 . S
H744 C750 0.950 . S
H745 C751 0.950 . S
H746 C752 0.949 . S
C747 H742 0.950 . S
C747 C749 1.327 . S
C747 C753 1.429 . S
C748 C740 1.574 . S
C748 H743 0.949 . S
C748 C754 1.368 . S
C749 C733 1.349 . S
C749 H741 0.950 . S
C749 C747 1.327 . S
C750 C738 1.349 . S
C750 H744 0.950 . S
C750 C751 1.327 . S
C751 H745 0.950 . S
C751 C750 1.327 . S
C751 C755 1.429 . S
C752 C735 1.574 . S
C752 H746 0.949 . S
C752 C756 1.368 . S
C753 C734 1.429 . S
C753 C747 1.429 . S
C753 C754 1.523 . S
C754 C735 1.368 . S
C754 C748 1.368 . S
C754 C753 1.523 . S
C755 C739 1.429 . S
C755 C751 1.429 . S
C755 C756 1.523 . S
C756 C740 1.368 . S
C756 C752 1.368 . S
C756 C755 1.523 . S
H757 C732 0.950 . S
H758 C734 0.950 . S
H759 C735 0.949 . S
H760 C737 0.950 . S
H761 C739 0.950 . S
C762 C763 1.349 . S
C762 C764 1.327 . S
C762 H787 0.950 . S
C763 C762 1.349 . S
C763 C779 1.349 . S
C764 C762 1.327 . S
C764 C783 1.429 . S
C764 H788 0.950 . S
C765 C782 1.574 . S
C765 C784 1.368 . S
C765 H789 0.949 . S
H766 C770 0.967 . S
C767 C768 1.349 . S
C767 C769 1.327 . S
C767 H790 0.950 . S
C768 C767 1.349 . S
C768 C780 1.349 . S
C769 C767 1.327 . S
C769 C785 1.429 . S
C769 H791 0.950 . S
C770 H766 0.967 . S
C770 C778 1.574 . S
C770 C786 1.368 . S
H771 C779 0.950 . S
H772 C777 0.950 . S
H773 C778 0.949 . S
H774 C780 0.950 . S
H775 C781 0.950 . S
H776 C782 0.949 . S
C777 H772 0.950 . S
C777 C779 1.327 . S
C777 C783 1.429 . S
C778 C770 1.574 . S
C778 H773 0.949 . S
C778 C784 1.368 . S
C779 C763 1.349 . S
C779 H771 0.950 . S
C779 C777 1.327 . S
C780 C768 1.349 . S
C780 H774 0.950 . S
C780 C781 1.327 . S
C781 H775 0.950 . S
C781 C780 1.327 . S
C781 C785 1.429 . S
C782 C765 1.574 . S
C782 H776 0.949 . S
C782 C786 1.368 . S
C783 C764 1.429 . S
C783 C777 1.429 . S
C783 C784 1.523 . S
C784 C765 1.368 . S
C784 C778 1.368 . S
C784 C783 1.523 . S
C785 C769 1.429 . S
C785 C781 1.429 . S
C785 C786 1.523 1_556 S
C786 C770 1.368 . S
C786 C782 1.368 . S
C786 C785 1.523 1_554 S
H787 C762 0.950 . S
H788 C764 0.950 . S
H789 C765 0.949 . S
H790 C767 0.950 . S
H791 C769 0.950 . S
C792 C793 1.349 . S
C792 C794 1.327 . S
C792 H817 0.950 . S
C793 C792 1.349 . S
C793 C809 1.349 . S
C794 C792 1.327 . S
C794 C813 1.429 . S
C794 H818 0.950 . S
C795 C812 1.574 . S
C795 C814 1.368 . S
C795 H819 0.949 . S
H796 C800 0.949 . S
C797 C798 1.349 . S
C797 C799 1.327 . S
C797 H820 0.950 . S
C798 C797 1.349 . S
C798 C810 1.349 . S
C799 C797 1.327 . S
C799 C815 1.429 . S
C799 H821 0.950 . S
C800 H796 0.949 . S
C800 C808 1.574 . S
C800 C816 1.368 . S
H801 C809 0.950 . S
H802 C807 0.950 . S
H803 C808 0.949 . S
H804 C810 0.950 . S
H805 C811 0.950 . S
H806 C812 0.949 . S
C807 H802 0.950 . S
C807 C809 1.327 . S
C807 C813 1.429 . S
C808 C800 1.574 . S
C808 H803 0.949 . S
C808 C814 1.368 . S
C809 C793 1.349 . S
C809 H801 0.950 . S
C809 C807 1.327 . S
C810 C798 1.349 . S
C810 H804 0.950 . S
C810 C811 1.327 . S
C811 H805 0.950 . S
C811 C810 1.327 . S
C811 C815 1.429 . S
C812 C795 1.574 . S
C812 H806 0.949 . S
C812 C816 1.368 . S
C813 C794 1.429 . S
C813 C807 1.429 . S
C813 C814 1.523 . S
C814 C795 1.368 . S
C814 C808 1.368 . S
C814 C813 1.523 . S
C815 C799 1.429 . S
C815 C811 1.429 . S
C815 C816 1.523 . S
C816 C800 1.368 . S
C816 C812 1.368 . S
C816 C815 1.523 . S
H817 C792 0.950 . S
H818 C794 0.950 . S
H819 C795 0.949 . S
H820 C797 0.950 . S
H821 C799 0.950 . S
C822 C823 1.349 . S
C822 C824 1.327 . S
C822 H847 0.950 . S
C823 C822 1.349 . S
C823 C839 1.349 . S
C824 C822 1.327 . S
C824 C843 1.429 . S
C824 H848 0.950 . S
C825 C842 1.574 . S
C825 C844 1.368 . S
C825 H849 0.949 . S
H826 C830 0.949 . S
C827 C828 1.349 . S
C827 C829 1.327 . S
C827 H850 0.950 . S
C828 C827 1.349 . S
C828 C840 1.349 . S
C829 C827 1.327 . S
C829 C845 1.429 . S
C829 H851 0.950 . S
C830 H826 0.949 . S
C830 C838 1.574 . S
C830 C846 1.368 . S
H831 C839 0.950 . S
H832 C837 0.950 . S
H833 C838 0.949 . S
H834 C840 0.950 . S
H835 C841 0.950 . S
H836 C842 0.949 . S
C837 H832 0.950 . S
C837 C839 1.327 . S
C837 C843 1.429 . S
C838 C830 1.574 . S
C838 H833 0.949 . S
C838 C844 1.368 . S
C839 C823 1.349 . S
C839 H831 0.950 . S
C839 C837 1.327 . S
C840 C828 1.349 . S
C840 H834 0.950 . S
C840 C841 1.327 . S
C841 H835 0.950 . S
C841 C840 1.327 . S
C841 C845 1.429 . S
C842 C825 1.574 . S
C842 H836 0.949 . S
C842 C846 1.368 . S
C843 C824 1.429 . S
C843 C837 1.429 . S
C843 C844 1.523 . S
C844 C825 1.368 . S
C844 C838 1.368 . S
C844 C843 1.523 . S
C845 C829 1.429 . S
C845 C841 1.429 . S
C845 C846 1.523 . S
C846 C830 1.368 . S
C846 C842 1.368 . S
C846 C845 1.523 . S
H847 C822 0.950 . S
H848 C824 0.950 . S
H849 C825 0.949 . S
H850 C827 0.950 . S
H851 C829 0.950 . S
C852 C853 1.349 . S
C852 C854 1.327 . S
C852 H877 0.950 . S
C853 C852 1.349 . S
C853 C869 1.349 . S
C854 C852 1.327 . S
C854 C873 1.429 . S
C854 H878 0.950 . S
C855 C872 1.574 . S
C855 C874 1.368 . S
C855 H879 0.949 . S
H856 C860 0.949 . S
C857 C858 1.349 . S
C857 C859 1.327 . S
C857 H880 0.950 . S
C858 C857 1.349 . S
C858 C870 1.349 . S
C859 C857 1.327 . S
C859 C875 1.429 . S
C859 H881 0.950 . S
C860 H856 0.949 . S
C860 C868 1.574 . S
C860 C876 1.368 . S
H861 C869 0.950 . S
H862 C867 0.950 . S
H863 C868 0.949 . S
H864 C870 0.950 . S
H865 C871 0.950 . S
H866 C872 0.949 . S
C867 H862 0.950 . S
C867 C869 1.327 . S
C867 C873 1.429 . S
C868 C860 1.574 . S
C868 H863 0.949 . S
C868 C874 1.368 . S
C869 C853 1.349 . S
C869 H861 0.950 . S
C869 C867 1.327 . S
C870 C858 1.349 . S
C870 H864 0.950 . S
C870 C871 1.327 . S
C871 H865 0.950 . S
C871 C870 1.327 . S
C871 C875 1.429 . S
C872 C855 1.574 . S
C872 H866 0.949 . S
C872 C876 1.368 . S
C873 C854 1.429 . S
C873 C867 1.429 . S
C873 C874 1.523 . S
C874 C855 1.368 . S
C874 C868 1.368 . S
C874 C873 1.523 . S
C875 C859 1.429 . S
C875 C871 1.429 . S
C875 C876 1.523 . S
C876 C860 1.368 . S
C876 C872 1.368 . S
C876 C875 1.523 . S
H877 C852 0.950 . S
H878 C854 0.950 . S
H879 C855 0.949 . S
H880 C857 0.950 . S
H881 C859 0.950 . S
C882 C883 1.349 . S
C882 C884 1.327 . S
C882 H907 0.950 . S
C883 C882 1.349 . S
C883 C899 1.349 . S
C884 C882 1.327 . S
C884 C903 1.429 . S
C884 H908 0.950 . S
C885 C902 1.574 1_556 S
C885 C904 1.368 1_556 S
C885 H909 0.949 . S
H886 C890 0.949 . S
C887 C888 1.349 . S
C887 C889 1.327 . S
C887 H910 0.950 . S
C888 C887 1.349 . S
C888 C900 1.349 . S
C889 C887 1.327 . S
C889 C905 1.429 . S
C889 H911 0.950 . S
C890 H886 0.949 . S
C890 C898 1.574 . S
C890 C906 1.368 . S
H891 C899 0.950 . S
H892 C897 0.950 . S
H893 C898 0.949 . S
H894 C900 0.950 . S
H895 C901 0.950 . S
H896 C902 0.949 . S
C897 H892 0.950 . S
C897 C899 1.327 . S
C897 C903 1.429 . S
C898 C890 1.574 . S
C898 H893 0.949 . S
C898 C904 1.368 . S
C899 C883 1.349 . S
C899 H891 0.950 . S
C899 C897 1.327 . S
C900 C888 1.349 . S
C900 H894 0.950 . S
C900 C901 1.327 . S
C901 H895 0.950 . S
C901 C900 1.327 . S
C901 C905 1.429 . S
C902 C885 1.574 1_554 S
C902 H896 0.949 . S
C902 C906 1.368 . S
C903 C884 1.429 . S
C903 C897 1.429 . S
C903 C904 1.523 1_556 S
C904 C885 1.368 1_554 S
C904 C898 1.368 . S
C904 C903 1.523 1_554 S
C905 C889 1.429 . S
C905 C901 1.429 . S
C905 C906 1.523 . S
C906 C890 1.368 . S
C906 C902 1.368 . S
C906 C905 1.523 . S
H907 C882 0.950 . S
H908 C884 0.950 . S
H909 C885 0.949 . S
H910 C887 0.950 . S
H911 C889 0.950 . S
C912 C913 1.349 . S
C912 C914 1.327 . S
C912 H937 0.950 . S
C913 C912 1.349 . S
C913 C929 1.349 . S
C914 C912 1.327 . S
C914 C933 1.429 . S
C914 H938 0.950 . S
C915 C932 1.574 . S
C915 C934 1.368 . S
C915 H939 0.949 . S
H916 C920 0.949 . S
C917 C918 1.349 . S
C917 C919 1.327 . S
C917 H940 0.950 . S
C918 C917 1.349 . S
C918 C930 1.349 . S
C919 C917 1.327 . S
C919 C935 1.429 . S
C919 H941 0.950 . S
C920 H916 0.949 . S
C920 C928 1.574 . S
C920 C936 1.368 . S
H921 C929 0.950 . S
H922 C927 0.950 . S
H923 C928 0.949 . S
H924 C930 0.950 . S
H925 C931 0.950 . S
H926 C932 0.949 . S
C927 H922 0.950 . S
C927 C929 1.327 . S
C927 C933 1.429 . S
C928 C920 1.574 . S
C928 H923 0.949 . S
C928 C934 1.368 . S
C929 C913 1.349 . S
C929 H921 0.950 . S
C929 C927 1.327 . S
C930 C918 1.349 . S
C930 H924 0.950 . S
C930 C931 1.327 . S
C931 H925 0.950 . S
C931 C930 1.327 . S
C931 C935 1.429 . S
C932 C915 1.574 . S
C932 H926 0.949 . S
C932 C936 1.368 . S
C933 C914 1.429 . S
C933 C927 1.429 . S
C933 C934 1.523 . S
C934 C915 1.368 . S
C934 C928 1.368 . S
C934 C933 1.523 . S
C935 C919 1.429 . S
C935 C931 1.429 . S
C935 C936 1.523 . S
C936 C920 1.368 . S
C936 C932 1.368 . S
C936 C935 1.523 . S
H937 C912 0.950 . S
H938 C914 0.950 . S
H939 C915 0.949 . S
H940 C917 0.950 . S
H941 C919 0.950 . S
C942 C943 1.349 . S
C942 C944 1.327 . S
C942 H967 0.950 . S
C943 C942 1.349 . S
C943 C959 1.349 . S
C944 C942 1.327 . S
C944 C963 1.429 . S
C944 H968 0.950 . S
C945 C962 1.574 . S
C945 C964 1.368 . S
C945 H969 0.949 . S
H946 C950 0.949 . S
C947 C948 1.349 . S
C947 C949 1.327 . S
C947 H970 0.950 . S
C948 C947 1.349 . S
C948 C960 1.349 . S
C949 C947 1.327 . S
C949 C965 1.429 . S
C949 H971 0.950 . S
C950 H946 0.949 . S
C950 C958 1.574 . S
C950 C966 1.368 . S
H951 C959 0.950 . S
H952 C957 0.950 . S
H953 C958 0.949 . S
H954 C960 0.950 . S
H955 C961 0.950 . S
H956 C962 0.949 . S
C957 H952 0.950 . S
C957 C959 1.327 . S
C957 C963 1.429 . S
C958 C950 1.574 . S
C958 H953 0.949 . S
C958 C964 1.368 . S
C959 C943 1.349 . S
C959 H951 0.950 . S
C959 C957 1.327 . S
C960 C948 1.349 . S
C960 H954 0.950 . S
C960 C961 1.327 . S
C961 H955 0.950 . S
C961 C960 1.327 . S
C961 C965 1.429 . S
C962 C945 1.574 . S
C962 H956 0.949 . S
C962 C966 1.368 . S
C963 C944 1.429 . S
C963 C957 1.429 . S
C963 C964 1.523 . S
C964 C945 1.368 . S
C964 C958 1.368 . S
C964 C963 1.523 . S
C965 C949 1.429 . S
C965 C961 1.429 . S
C965 C966 1.523 1_565 S
C966 C950 1.368 . S
C966 C962 1.368 . S
C966 C965 1.523 1_545 S
H967 C942 0.950 . S
H968 C944 0.950 . S
H969 C945 0.949 . S
H970 C947 0.950 . S
H971 C949 0.950 . S
C972 C973 1.349 . S
C972 C974 1.327 . S
C972 H997 0.950 . S
C973 C972 1.349 . S
C973 C989 1.349 . S
C974 C972 1.327 . S
C974 C993 1.429 . S
C974 H998 0.950 . S
C975 C992 1.574 1_545 S
C975 C994 1.368 . S
C975 H999 0.949 . S
H976 C980 0.949 . S
C977 C978 1.349 . S
C977 C979 1.327 . S
C977 H1000 0.950 . S
C978 C977 1.349 . S
C978 C990 1.349 . S
C979 C977 1.327 . S
C979 C995 1.429 . S
C979 H1001 0.950 . S
C980 H976 0.949 . S
C980 C988 1.575 1_565 S
C980 C996 1.368 . S
H981 C989 0.950 . S
H982 C987 0.950 . S
H983 C988 0.949 . S
H984 C990 0.950 . S
H985 C991 0.950 . S
H986 C992 0.949 . S
C987 H982 0.950 . S
C987 C989 1.327 . S
C987 C993 1.429 . S
C988 C980 1.575 1_545 S
C988 H983 0.949 . S
C988 C994 1.368 . S
C989 C973 1.349 . S
C989 H981 0.950 . S
C989 C987 1.327 . S
C990 C978 1.349 . S
C990 H984 0.950 . S
C990 C991 1.327 . S
C991 H985 0.950 . S
C991 C990 1.327 . S
C991 C995 1.429 . S
C992 C975 1.574 1_565 S
C992 H986 0.949 . S
C992 C996 1.368 . S
C993 C974 1.429 . S
C993 C987 1.429 . S
C993 C994 1.523 . S
C994 C975 1.368 . S
C994 C988 1.368 . S
C994 C993 1.523 . S
C995 C979 1.429 . S
C995 C991 1.429 . S
C995 C996 1.523 . S
C996 C980 1.368 . S
C996 C992 1.368 . S
C996 C995 1.523 . S
H997 C972 0.950 . S
H998 C974 0.950 . S
H999 C975 0.949 . S
H1000 C977 0.950 . S
H1001 C979 0.950 . S
C1002 C1003 1.349 . S
C1002 C1004 1.327 . S
C1002 H1027 0.950 . S
C1003 C1002 1.349 . S
C1003 C1019 1.349 1_556 S
C1004 C1002 1.327 . S
C1004 C1023 1.429 1_565 S
C1004 H1028 0.950 . S
C1005 C1022 1.574 . S
C1005 C1024 1.368 . S
C1005 H1029 0.902 1_556 S
H1006 C1010 0.949 . S
C1007 C1008 1.349 . S
C1007 C1009 1.327 . S
C1007 H1030 0.950 . S
C1008 C1007 1.349 . S
C1008 C1020 1.349 . S
C1009 C1007 1.327 . S
C1009 C1025 1.429 . S
C1009 H1031 0.950 . S
C1010 H1006 0.949 . S
C1010 C1018 1.574 . S
C1010 C1026 1.368 . S
H1011 C1019 0.950 . S
H1012 C1017 0.964 1_545 S
H1013 C1018 0.949 . S
H1014 C1020 0.950 . S
H1015 C1021 0.950 . S
H1016 C1022 0.949 . S
C1017 H1012 0.964 1_565 S
C1017 C1019 1.334 . S
C1017 C1023 1.408 1_564 S
C1018 C1010 1.574 . S
C1018 H1013 0.949 . S
C1018 C1024 1.368 . S
C1019 C1003 1.349 1_554 S
C1019 H1011 0.950 . S
C1019 C1017 1.334 . S
C1020 C1008 1.349 . S
C1020 H1014 0.950 . S
C1020 C1021 1.327 . S
C1021 H1015 0.950 . S
C1021 C1020 1.327 . S
C1021 C1025 1.429 . S
C1022 C1005 1.574 . S
C1022 H1016 0.949 . S
C1022 C1026 1.368 . S
C1023 C1004 1.429 1_545 S
C1023 C1017 1.408 1_546 S
C1023 C1024 1.523 . S
C1024 C1005 1.368 . S
C1024 C1018 1.368 . S
C1024 C1023 1.523 . S
C1025 C1009 1.429 . S
C1025 C1021 1.429 . S
C1025 C1026 1.523 . S
C1026 C1010 1.368 . S
C1026 C1022 1.368 . S
C1026 C1025 1.523 . S
H1027 C1002 0.950 . S
H1028 C1004 0.950 . S
H1029 C1005 0.902 1_554 S
H1030 C1007 0.950 . S
H1031 C1009 0.950 . S
C1032 C1033 1.349 . S
C1032 C1034 1.327 . S
C1032 H1057 0.950 . S
C1033 C1032 1.349 . S
C1033 C1049 1.349 . S
C1034 C1032 1.327 . S
C1034 C1053 1.429 . S
C1034 H1058 0.950 . S
C1035 C1052 1.574 . S
C1035 C1054 1.368 . S
C1035 H1059 0.949 . S
H1036 C1040 0.949 . S
C1037 C1038 1.349 . S
C1037 C1039 1.327 . S
C1037 H1060 0.950 . S
C1038 C1037 1.349 . S
C1038 C1050 1.349 . S
C1039 C1037 1.327 . S
C1039 C1055 1.429 . S
C1039 H1061 0.950 . S
C1040 H1036 0.949 . S
C1040 C1048 1.574 . S
C1040 C1056 1.368 . S
H1041 C1049 0.950 1_545 S
H1042 C1047 0.950 . S
H1043 C1048 0.949 . S
H1044 C1050 0.950 . S
H1045 C1051 0.950 . S
H1046 C1052 0.949 . S
C1047 H1042 0.950 . S
C1047 C1049 1.327 . S
C1047 C1053 1.429 . S
C1048 C1040 1.574 . S
C1048 H1043 0.949 . S
C1048 C1054 1.368 . S
C1049 C1033 1.349 . S
C1049 H1041 0.950 1_565 S
C1049 C1047 1.327 . S
C1050 C1038 1.349 . S
C1050 H1044 0.950 . S
C1050 C1051 1.327 . S
C1051 H1045 0.950 . S
C1051 C1050 1.327 . S
C1051 C1055 1.429 . S
C1052 C1035 1.574 . S
C1052 H1046 0.949 . S
C1052 C1056 1.368 . S
C1053 C1034 1.429 . S
C1053 C1047 1.429 . S
C1053 C1054 1.523 . S
C1054 C1035 1.368 . S
C1054 C1048 1.368 . S
C1054 C1053 1.523 . S
C1055 C1039 1.429 . S
C1055 C1051 1.429 . S
C1055 C1056 1.523 . S
C1056 C1040 1.368 . S
C1056 C1052 1.368 . S
C1056 C1055 1.523 . S
H1057 C1032 0.950 . S
H1058 C1034 0.950 . S
H1059 C1035 0.949 . S
H1060 C1037 0.950 . S
H1061 C1039 0.950 . S
C1062 C1063 1.349 . S
C1062 C1064 1.327 . S
C1062 H1087 0.950 . S
C1063 C1062 1.349 . S
C1063 C1079 1.349 . S
C1064 C1062 1.327 . S
C1064 C1083 1.429 . S
C1064 H1088 0.950 . S
C1065 C1082 1.574 . S
C1065 C1084 1.368 . S
C1065 H1089 0.949 . S
H1066 C1070 0.949 . S
C1067 C1068 1.349 . S
C1067 C1069 1.327 . S
C1067 H1090 0.950 . S
C1068 C1067 1.349 . S
C1068 C1080 1.349 . S
C1069 C1067 1.327 . S
C1069 C1085 1.429 1_565 S
C1069 H1091 0.950 1_565 S
C1070 H1066 0.949 . S
C1070 C1078 1.574 . S
C1070 C1086 1.368 . S
H1071 C1079 0.950 . S
H1072 C1077 0.950 . S
H1073 C1078 0.949 . S
H1074 C1080 0.950 . S
H1075 C1081 0.929 1_545 S
H1076 C1082 0.949 . S
C1077 H1072 0.950 . S
C1077 C1079 1.327 . S
C1077 C1083 1.429 . S
C1078 C1070 1.574 . S
C1078 H1073 0.949 . S
C1078 C1084 1.368 . S
C1079 C1063 1.349 . S
C1079 H1071 0.950 . S
C1079 C1077 1.327 . S
C1080 C1068 1.349 . S
C1080 H1074 0.950 . S
C1080 C1081 1.373 . S
C1081 H1075 0.929 1_565 S
C1081 C1080 1.373 . S
C1081 C1085 1.405 1_565 S
C1082 C1065 1.574 . S
C1082 H1076 0.949 . S
C1082 C1086 1.368 . S
C1083 C1064 1.429 . S
C1083 C1077 1.429 . S
C1083 C1084 1.523 . S
C1084 C1065 1.368 . S
C1084 C1078 1.368 . S
C1084 C1083 1.523 . S
C1085 C1069 1.429 1_545 S
C1085 C1081 1.405 1_545 S
C1085 C1086 1.523 . S
C1086 C1070 1.368 . S
C1086 C1082 1.368 . S
C1086 C1085 1.523 . S
H1087 C1062 0.950 . S
H1088 C1064 0.950 . S
H1089 C1065 0.949 . S
H1090 C1067 0.950 . S
H1091 C1069 0.950 1_545 S
C1092 C1093 1.349 . S
C1092 C1094 1.327 . S
C1092 H1117 0.950 . S
C1093 C1092 1.349 . S
C1093 C1109 1.349 . S
C1094 C1092 1.327 . S
C1094 C1113 1.429 . S
C1094 H1118 0.950 . S
C1095 C1112 1.574 . S
C1095 C1114 1.368 . S
C1095 H1119 0.949 . S
H1096 C1100 0.949 . S
C1097 C1098 1.349 . S
C1097 C1099 1.327 . S
C1097 H1120 0.950 . S
C1098 C1097 1.349 . S
C1098 C1110 1.349 . S
C1099 C1097 1.327 . S
C1099 C1115 1.429 . S
C1099 H1121 0.950 . S
C1100 H1096 0.949 . S
C1100 C1108 1.574 . S
C1100 C1116 1.368 . S
H1101 C1109 0.950 . S
H1102 C1107 0.950 . S
H1103 C1108 0.949 . S
H1104 C1110 0.950 . S
H1105 C1111 0.950 . S
H1106 C1112 0.949 . S
C1107 H1102 0.950 . S
C1107 C1109 1.327 . S
C1107 C1113 1.429 . S
C1108 C1100 1.574 . S
C1108 H1103 0.949 . S
C1108 C1114 1.368 . S
C1109 C1093 1.349 . S
C1109 H1101 0.950 . S
C1109 C1107 1.327 . S
C1110 C1098 1.349 . S
C1110 H1104 0.950 . S
C1110 C1111 1.327 . S
C1111 H1105 0.950 . S
C1111 C1110 1.327 . S
C1111 C1115 1.429 . S
C1112 C1095 1.574 . S
C1112 H1106 0.949 . S
C1112 C1116 1.368 . S
C1113 C1094 1.429 . S
C1113 C1107 1.429 . S
C1113 C1114 1.523 . S
C1114 C1095 1.368 . S
C1114 C1108 1.368 . S
C1114 C1113 1.523 . S
C1115 C1099 1.429 . S
C1115 C1111 1.429 . S
C1115 C1116 1.523 . S
C1116 C1100 1.368 . S
C1116 C1112 1.368 . S
C1116 C1115 1.523 . S
H1117 C1092 0.950 . S
H1118 C1094 0.950 . S
H1119 C1095 0.949 . S
H1120 C1097 0.950 . S
H1121 C1099 0.950 . S
C1122 C1123 1.349 . S
C1122 C1124 1.327 . S
C1122 H1147 0.950 . S
C1123 C1122 1.349 . S
C1123 C1139 1.349 . S
C1124 C1122 1.327 . S
C1124 C1143 1.429 . S
C1124 H1148 0.950 . S
C1125 C1142 1.574 . S
C1125 C1144 1.368 . S
C1125 H1149 0.949 . S
H1126 C1130 0.949 . S
C1127 C1128 1.349 . S
C1127 C1129 1.327 . S
C1127 H1150 0.950 . S
C1128 C1127 1.349 . S
C1128 C1140 1.349 . S
C1129 C1127 1.327 . S
C1129 C1145 1.429 . S
C1129 H1151 0.950 . S
C1130 H1126 0.949 . S
C1130 C1138 1.574 . S
C1130 C1146 1.368 . S
H1131 C1139 0.950 . S
H1132 C1137 0.950 . S
H1133 C1138 0.949 . S
H1134 C1140 0.950 . S
H1135 C1141 0.950 . S
H1136 C1142 0.949 . S
C1137 H1132 0.950 . S
C1137 C1139 1.327 . S
C1137 C1143 1.429 . S
C1138 C1130 1.574 . S
C1138 H1133 0.949 . S
C1138 C1144 1.368 . S
C1139 C1123 1.349 . S
C1139 H1131 0.950 . S
C1139 C1137 1.327 . S
C1140 C1128 1.349 . S
C1140 H1134 0.950 . S
C1140 C1141 1.327 . S
C1141 H1135 0.950 . S
C1141 C1140 1.327 . S
C1141 C1145 1.429 . S
C1142 C1125 1.574 . S
C1142 H1136 0.949 . S
C1142 C1146 1.368 . S
C1143 C1124 1.429 . S
C1143 C1137 1.429 . S
C1143 C1144 1.523 1_565 S
C1144 C1125 1.368 . S
C1144 C1138 1.368 . S
C1144 C1143 1.523 1_545 S
C1145 C1129 1.429 . S
C1145 C1141 1.429 . S
C1145 C1146 1.523 . S
C1146 C1130 1.368 . S
C1146 C1142 1.368 . S
C1146 C1145 1.523 . S
H1147 C1122 0.950 . S
H1148 C1124 0.950 . S
H1149 C1125 0.949 . S
H1150 C1127 0.950 . S
H1151 C1129 0.950 . S
C1152 C1153 1.349 . S
C1152 C1154 1.327 . S
C1152 H1177 0.950 . S
C1153 C1152 1.349 . S
C1153 C1169 1.349 . S
C1154 C1152 1.327 . S
C1154 C1173 1.429 . S
C1154 H1178 0.950 . S
C1155 C1172 1.574 . S
C1155 C1174 1.368 . S
C1155 H1179 0.949 . S
H1156 C1160 0.949 . S
C1157 C1158 1.349 . S
C1157 C1159 1.327 . S
C1157 H1180 0.950 . S
C1158 C1157 1.349 . S
C1158 C1170 1.349 . S
C1159 C1157 1.327 . S
C1159 C1175 1.429 . S
C1159 H1181 0.950 . S
C1160 H1156 0.949 . S
C1160 C1168 1.574 . S
C1160 C1176 1.368 . S
H1161 C1169 0.950 . S
H1162 C1167 0.950 . S
H1163 C1168 0.949 . S
H1164 C1170 0.950 . S
H1165 C1171 0.950 . S
H1166 C1172 0.949 . S
C1167 H1162 0.950 . S
C1167 C1169 1.327 . S
C1167 C1173 1.429 . S
C1168 C1160 1.574 . S
C1168 H1163 0.949 . S
C1168 C1174 1.368 . S
C1169 C1153 1.349 . S
C1169 H1161 0.950 . S
C1169 C1167 1.327 . S
C1170 C1158 1.349 . S
C1170 H1164 0.950 . S
C1170 C1171 1.327 . S
C1171 H1165 0.950 . S
C1171 C1170 1.327 . S
C1171 C1175 1.429 . S
C1172 C1155 1.574 . S
C1172 H1166 0.949 . S
C1172 C1176 1.368 . S
C1173 C1154 1.429 . S
C1173 C1167 1.429 . S
C1173 C1174 1.523 . S
C1174 C1155 1.368 . S
C1174 C1168 1.368 . S
C1174 C1173 1.523 . S
C1175 C1159 1.429 . S
C1175 C1171 1.429 . S
C1175 C1176 1.523 . S
C1176 C1160 1.368 . S
C1176 C1172 1.368 . S
C1176 C1175 1.523 . S
H1177 C1152 0.950 . S
H1178 C1154 0.950 . S
H1179 C1155 0.949 . S
H1180 C1157 0.950 . S
H1181 C1159 0.950 . S
C1182 C1183 1.349 . S
C1182 C1184 1.327 . S
C1182 H1207 0.950 . S
C1183 C1182 1.349 . S
C1183 C1199 1.349 . S
C1184 C1182 1.327 . S
C1184 C1203 1.429 . S
C1184 H1208 0.950 . S
C1185 C1202 1.574 . S
C1185 C1204 1.368 . S
C1185 H1209 0.949 . S
H1186 C1190 0.949 . S
C1187 C1188 1.349 . S
C1187 C1189 1.327 . S
C1187 H1210 0.950 . S
C1188 C1187 1.349 . S
C1188 C1200 1.349 . S
C1189 C1187 1.327 . S
C1189 C1205 1.429 . S
C1189 H1211 0.950 . S
C1190 H1186 0.949 . S
C1190 C1198 1.574 . S
C1190 C1206 1.368 . S
H1191 C1199 0.950 . S
H1192 C1197 0.950 . S
H1193 C1198 0.949 . S
H1194 C1200 0.950 . S
H1195 C1201 0.950 . S
H1196 C1202 0.949 . S
C1197 H1192 0.950 . S
C1197 C1199 1.327 . S
C1197 C1203 1.429 . S
C1198 C1190 1.574 . S
C1198 H1193 0.949 . S
C1198 C1204 1.368 . S
C1199 C1183 1.349 . S
C1199 H1191 0.950 . S
C1199 C1197 1.327 . S
C1200 C1188 1.349 . S
C1200 H1194 0.950 . S
C1200 C1201 1.327 . S
C1201 H1195 0.950 . S
C1201 C1200 1.327 . S
C1201 C1205 1.429 . S
C1202 C1185 1.574 . S
C1202 H1196 0.949 . S
C1202 C1206 1.368 . S
C1203 C1184 1.429 . S
C1203 C1197 1.429 . S
C1203 C1204 1.523 . S
C1204 C1185 1.368 . S
C1204 C1198 1.368 . S
C1204 C1203 1.523 . S
C1205 C1189 1.429 . S
C1205 C1201 1.429 . S
C1205 C1206 1.523 . S
C1206 C1190 1.368 . S
C1206 C1202 1.368 . S
C1206 C1205 1.523 . S
H1207 C1182 0.950 . S
H1208 C1184 0.950 . S
H1209 C1185 0.949 . S
H1210 C1187 0.950 . S
H1211 C1189 0.950 . S
C1212 C1213 1.349 . S
C1212 C1214 1.327 . S
C1212 H1237 0.950 . S
C1213 C1212 1.349 . S
C1213 C1229 1.349 . S
C1214 C1212 1.327 . S
C1214 C1233 1.429 . S
C1214 H1238 0.950 . S
C1215 C1232 1.574 . S
C1215 C1234 1.368 . S
C1215 H1239 0.949 . S
H1216 C1220 0.949 . S
C1217 C1218 1.349 . S
C1217 C1219 1.327 . S
C1217 H1240 0.950 . S
C1218 C1217 1.349 . S
C1218 C1230 1.349 . S
C1219 C1217 1.327 . S
C1219 C1235 1.429 1_655 S
C1219 H1241 0.958 . S
C1220 H1216 0.949 . S
C1220 C1228 1.574 . S
C1220 C1236 1.368 . S
H1221 C1229 0.950 . S
H1222 C1227 0.950 . S
H1223 C1228 0.949 . S
H1224 C1230 0.950 . S
H1225 C1231 0.950 1_455 S
H1226 C1232 0.949 . S
C1227 H1222 0.950 . S
C1227 C1229 1.327 . S
C1227 C1233 1.429 . S
C1228 C1220 1.574 . S
C1228 H1223 0.949 . S
C1228 C1234 1.368 . S
C1229 C1213 1.349 . S
C1229 H1221 0.950 . S
C1229 C1227 1.327 . S
C1230 C1218 1.349 . S
C1230 H1224 0.950 . S
C1230 C1231 1.327 . S
C1231 H1225 0.950 1_655 S
C1231 C1230 1.327 . S
C1231 C1235 1.429 1_655 S
C1232 C1215 1.574 . S
C1232 H1226 0.949 . S
C1232 C1236 1.368 . S
C1233 C1214 1.429 . S
C1233 C1227 1.429 . S
C1233 C1234 1.523 . S
C1234 C1215 1.368 . S
C1234 C1228 1.368 . S
C1234 C1233 1.523 . S
C1235 C1219 1.429 1_455 S
C1235 C1231 1.429 1_455 S
C1235 C1236 1.523 . S
C1236 C1220 1.368 . S
C1236 C1232 1.368 . S
C1236 C1235 1.523 . S
H1237 C1212 0.950 . S
H1238 C1214 0.950 . S
H1239 C1215 0.949 . S
H1240 C1217 0.950 . S
H1241 C1219 0.958 . S
C1242 C1243 1.349 . S
C1242 C1244 1.327 . S
C1242 H1267 0.950 . S
C1243 C1242 1.349 . S
C1243 C1259 1.349 . S
C1244 C1242 1.327 . S
C1244 C1263 1.429 . S
C1244 H1268 0.950 . S
C1245 C1262 1.574 . S
C1245 C1264 1.368 . S
C1245 H1269 0.949 . S
H1246 C1250 0.949 . S
C1247 C1248 1.349 . S
C1247 C1249 1.327 . S
C1247 H1270 0.950 . S
C1248 C1247 1.349 . S
C1248 C1260 1.349 . S
C1249 C1247 1.327 . S
C1249 C1265 1.429 . S
C1249 H1271 0.950 . S
C1250 H1246 0.949 . S
C1250 C1258 1.574 . S
C1250 C1266 1.368 . S
H1251 C1259 0.950 . S
H1252 C1257 0.950 . S
H1253 C1258 0.949 . S
H1254 C1260 0.950 . S
H1255 C1261 0.950 . S
H1256 C1262 0.949 . S
C1257 H1252 0.950 . S
C1257 C1259 1.327 . S
C1257 C1263 1.429 . S
C1258 C1250 1.574 . S
C1258 H1253 0.949 . S
C1258 C1264 1.368 . S
C1259 C1243 1.349 . S
C1259 H1251 0.950 . S
C1259 C1257 1.327 . S
C1260 C1248 1.349 . S
C1260 H1254 0.950 . S
C1260 C1261 1.327 . S
C1261 H1255 0.950 . S
C1261 C1260 1.327 . S
C1261 C1265 1.429 . S
C1262 C1245 1.574 . S
C1262 H1256 0.949 . S
C1262 C1266 1.368 . S
C1263 C1244 1.429 . S
C1263 C1257 1.429 . S
C1263 C1264 1.523 . S
C1264 C1245 1.368 . S
C1264 C1258 1.368 . S
C1264 C1263 1.523 . S
C1265 C1249 1.429 . S
C1265 C1261 1.429 . S
C1265 C1266 1.523 . S
C1266 C1250 1.368 . S
C1266 C1262 1.368 . S
C1266 C1265 1.523 . S
H1267 C1242 0.950 . S
H1268 C1244 0.950 . S
H1269 C1245 0.949 . S
H1270 C1247 0.950 . S
H1271 C1249 0.950 . S
C1272 C1273 1.349 . S
C1272 C1274 1.327 . S
C1272 H1297 0.950 . S
C1273 C1272 1.349 . S
C1273 C1289 1.349 . S
C1274 C1272 1.327 . S
C1274 C1293 1.429 . S
C1274 H1298 0.950 . S
C1275 C1292 1.574 . S
C1275 C1294 1.368 . S
C1275 H1299 0.949 . S
H1276 C1280 0.949 . S
C1277 C1278 1.349 . S
C1277 C1279 1.327 . S
C1277 H1300 0.950 . S
C1278 C1277 1.349 . S
C1278 C1290 1.349 . S
C1279 C1277 1.327 . S
C1279 C1295 1.429 . S
C1279 H1301 0.950 . S
C1280 H1276 0.949 . S
C1280 C1288 1.574 . S
C1280 C1296 1.368 . S
H1281 C1289 0.950 . S
H1282 C1287 0.931 1_455 S
H1283 C1288 0.949 . S
H1284 C1290 0.950 . S
H1285 C1291 0.950 . S
H1286 C1292 0.949 . S
C1287 H1282 0.931 1_655 S
C1287 C1289 1.327 . S
C1287 C1293 1.429 . S
C1288 C1280 1.574 . S
C1288 H1283 0.949 . S
C1288 C1294 1.368 . S
C1289 C1273 1.349 . S
C1289 H1281 0.950 . S
C1289 C1287 1.327 . S
C1290 C1278 1.349 . S
C1290 H1284 0.950 . S
C1290 C1291 1.327 . S
C1291 H1285 0.950 . S
C1291 C1290 1.327 . S
C1291 C1295 1.429 . S
C1292 C1275 1.574 . S
C1292 H1286 0.949 . S
C1292 C1296 1.368 . S
C1293 C1274 1.429 . S
C1293 C1287 1.429 . S
C1293 C1294 1.523 1_655 S
C1294 C1275 1.368 . S
C1294 C1288 1.368 . S
C1294 C1293 1.523 1_455 S
C1295 C1279 1.429 . S
C1295 C1291 1.429 . S
C1295 C1296 1.523 . S
C1296 C1280 1.368 . S
C1296 C1292 1.368 . S
C1296 C1295 1.523 . S
H1297 C1272 0.950 . S
H1298 C1274 0.950 . S
H1299 C1275 0.949 . S
H1300 C1277 0.950 . S
H1301 C1279 0.950 . S
C1302 C1303 1.349 . S
C1302 C1304 1.327 . S
C1302 H1327 0.950 . S
C1303 C1302 1.349 . S
C1303 C1319 1.349 . S
C1304 C1302 1.327 . S
C1304 C1323 1.429 . S
C1304 H1328 0.950 . S
C1305 C1322 1.574 . S
C1305 C1324 1.368 . S
C1305 H1329 0.949 . S
H1306 C1310 0.949 . S
C1307 C1308 1.349 . S
C1307 C1309 1.327 . S
C1307 H1330 0.950 . S
C1308 C1307 1.349 . S
C1308 C1320 1.349 . S
C1309 C1307 1.327 . S
C1309 C1325 1.429 . S
C1309 H1331 0.950 . S
C1310 H1306 0.949 . S
C1310 C1318 1.574 . S
C1310 C1326 1.368 . S
H1311 C1319 0.950 . S
H1312 C1317 0.950 . S
H1313 C1318 0.949 . S
H1314 C1320 0.950 . S
H1315 C1321 0.950 . S
H1316 C1322 0.949 . S
C1317 H1312 0.950 . S
C1317 C1319 1.327 . S
C1317 C1323 1.429 . S
C1318 C1310 1.574 . S
C1318 H1313 0.949 . S
C1318 C1324 1.368 . S
C1319 C1303 1.349 . S
C1319 H1311 0.950 . S
C1319 C1317 1.327 . S
C1320 C1308 1.349 . S
C1320 H1314 0.950 . S
C1320 C1321 1.327 . S
C1321 H1315 0.950 . S
C1321 C1320 1.327 . S
C1321 C1325 1.429 . S
C1322 C1305 1.574 . S
C1322 H1316 0.949 . S
C1322 C1326 1.368 . S
C1323 C1304 1.429 . S
C1323 C1317 1.429 . S
C1323 C1324 1.523 . S
C1324 C1305 1.368 . S
C1324 C1318 1.368 . S
C1324 C1323 1.523 . S
C1325 C1309 1.429 . S
C1325 C1321 1.429 . S
C1325 C1326 1.523 . S
C1326 C1310 1.368 . S
C1326 C1322 1.368 . S
C1326 C1325 1.523 . S
H1327 C1302 0.950 . S
H1328 C1304 0.950 . S
H1329 C1305 0.949 . S
H1330 C1307 0.950 . S
H1331 C1309 0.950 . S
C1332 C1333 1.349 . S
C1332 C1334 1.327 . S
C1332 H1357 0.950 . S
C1333 C1332 1.349 . S
C1333 C1349 1.349 . S
C1334 C1332 1.327 . S
C1334 C1353 1.429 . S
C1334 H1358 0.950 . S
C1335 C1352 1.574 . S
C1335 C1354 1.368 . S
C1335 H1359 0.949 . S
H1336 C1340 0.949 . S
C1337 C1338 1.349 . S
C1337 C1339 1.327 . S
C1337 H1360 0.950 . S
C1338 C1337 1.349 . S
C1338 C1350 1.349 . S
C1339 C1337 1.327 . S
C1339 C1355 1.429 . S
C1339 H1361 0.950 1_655 S
C1340 H1336 0.949 . S
C1340 C1348 1.574 . S
C1340 C1356 1.368 . S
H1341 C1349 0.950 . S
H1342 C1347 0.950 . S
H1343 C1348 0.949 . S
H1344 C1350 0.950 . S
H1345 C1351 0.950 . S
H1346 C1352 0.949 . S
C1347 H1342 0.950 . S
C1347 C1349 1.327 . S
C1347 C1353 1.429 . S
C1348 C1340 1.574 . S
C1348 H1343 0.949 . S
C1348 C1354 1.368 . S
C1349 C1333 1.349 . S
C1349 H1341 0.950 . S
C1349 C1347 1.327 . S
C1350 C1338 1.349 . S
C1350 H1344 0.950 . S
C1350 C1351 1.327 . S
C1351 H1345 0.950 . S
C1351 C1350 1.327 . S
C1351 C1355 1.429 . S
C1352 C1335 1.574 . S
C1352 H1346 0.949 . S
C1352 C1356 1.368 . S
C1353 C1334 1.429 . S
C1353 C1347 1.429 . S
C1353 C1354 1.523 . S
C1354 C1335 1.368 . S
C1354 C1348 1.368 . S
C1354 C1353 1.523 . S
C1355 C1339 1.429 . S
C1355 C1351 1.429 . S
C1355 C1356 1.523 1_655 S
C1356 C1340 1.368 . S
C1356 C1352 1.368 . S
C1356 C1355 1.523 1_455 S
H1357 C1332 0.950 . S
H1358 C1334 0.950 . S
H1359 C1335 0.949 . S
H1360 C1337 0.950 . S
H1361 C1339 0.950 1_455 S
C1362 C1363 1.349 . S
C1362 C1364 1.327 . S
C1362 H1387 0.950 . S
C1363 C1362 1.349 . S
C1363 C1379 1.349 . S
C1364 C1362 1.327 . S
C1364 C1383 1.429 . S
C1364 H1388 0.950 . S
C1365 C1382 1.574 . S
C1365 C1384 1.368 . S
C1365 H1389 0.949 . S
H1366 C1370 0.949 . S
C1367 C1368 1.349 . S
C1367 C1369 1.327 . S
C1367 H1390 0.950 . S
C1368 C1367 1.349 . S
C1368 C1380 1.349 . S
C1369 C1367 1.327 . S
C1369 C1385 1.429 . S
C1369 H1391 0.950 . S
C1370 H1366 0.949 . S
C1370 C1378 1.574 . S
C1370 C1386 1.368 . S
H1371 C1379 0.950 . S
H1372 C1377 0.950 . S
H1373 C1378 0.949 . S
H1374 C1380 0.950 . S
H1375 C1381 0.950 . S
H1376 C1382 0.949 . S
C1377 H1372 0.950 . S
C1377 C1379 1.327 . S
C1377 C1383 1.429 . S
C1378 C1370 1.574 . S
C1378 H1373 0.949 . S
C1378 C1384 1.368 . S
C1379 C1363 1.349 . S
C1379 H1371 0.950 . S
C1379 C1377 1.327 . S
C1380 C1368 1.349 . S
C1380 H1374 0.950 . S
C1380 C1381 1.327 . S
C1381 H1375 0.950 . S
C1381 C1380 1.327 . S
C1381 C1385 1.429 . S
C1382 C1365 1.574 . S
C1382 H1376 0.949 . S
C1382 C1386 1.368 . S
C1383 C1364 1.429 . S
C1383 C1377 1.429 . S
C1383 C1384 1.523 . S
C1384 C1365 1.368 . S
C1384 C1378 1.368 . S
C1384 C1383 1.523 . S
C1385 C1369 1.429 . S
C1385 C1381 1.429 . S
C1385 C1386 1.523 . S
C1386 C1370 1.368 . S
C1386 C1382 1.368 . S
C1386 C1385 1.523 . S
H1387 C1362 0.950 . S
H1388 C1364 0.950 . S
H1389 C1365 0.949 . S
H1390 C1367 0.950 . S
H1391 C1369 0.950 . S
C1392 C1393 1.349 . S
C1392 C1394 1.327 . S
C1392 H1417 0.949 1_655 S
C1393 C1392 1.349 . S
C1393 C1409 1.349 . S
C1394 C1392 1.327 . S
C1394 C1413 1.429 . S
C1394 H1418 0.950 . S
C1395 C1412 1.574 . S
C1395 C1414 1.368 . S
C1395 H1419 0.949 . S
H1396 C1400 0.949 . S
C1397 C1398 1.349 . S
C1397 C1399 1.327 . S
C1397 H1420 0.950 . S
C1398 C1397 1.349 . S
C1398 C1410 1.349 . S
C1399 C1397 1.327 . S
C1399 C1415 1.429 . S
C1399 H1421 0.950 . S
C1400 H1396 0.949 . S
C1400 C1408 1.574 . S
C1400 C1416 1.368 . S
H1401 C1409 0.950 . S
H1402 C1407 0.950 . S
H1403 C1408 0.949 . S
H1404 C1410 0.950 . S
H1405 C1411 0.950 . S
H1406 C1412 0.949 . S
C1407 H1402 0.950 . S
C1407 C1409 1.327 . S
C1407 C1413 1.429 . S
C1408 C1400 1.574 . S
C1408 H1403 0.949 . S
C1408 C1414 1.368 . S
C1409 C1393 1.349 . S
C1409 H1401 0.950 . S
C1409 C1407 1.327 . S
C1410 C1398 1.349 . S
C1410 H1404 0.950 . S
C1410 C1411 1.327 . S
C1411 H1405 0.950 . S
C1411 C1410 1.327 . S
C1411 C1415 1.429 . S
C1412 C1395 1.574 . S
C1412 H1406 0.949 . S
C1412 C1416 1.368 . S
C1413 C1394 1.429 . S
C1413 C1407 1.429 . S
C1413 C1414 1.523 . S
C1414 C1395 1.368 . S
C1414 C1408 1.368 . S
C1414 C1413 1.523 . S
C1415 C1399 1.429 . S
C1415 C1411 1.429 . S
C1415 C1416 1.523 . S
C1416 C1400 1.368 . S
C1416 C1412 1.368 . S
C1416 C1415 1.523 . S
H1417 C1392 0.949 1_455 S
H1418 C1394 0.950 . S
H1419 C1395 0.949 . S
H1420 C1397 0.950 . S
H1421 C1399 0.950 . S
C1422 C1423 1.349 . S
C1422 C1424 1.327 . S
C1422 H1447 0.950 . S
C1423 C1422 1.349 . S
C1423 C1439 1.349 . S
C1424 C1422 1.327 . S
C1424 C1443 1.429 . S
C1424 H1448 0.950 . S
C1425 C1442 1.574 . S
C1425 C1444 1.368 . S
C1425 H1449 0.949 . S
H1426 C1430 0.931 1_455 S
C1427 C1428 1.349 . S
C1427 C1429 1.327 . S
C1427 H1450 0.950 . S
C1428 C1427 1.349 . S
C1428 C1440 1.349 . S
C1429 C1427 1.327 . S
C1429 C1445 1.429 . S
C1429 H1451 0.950 . S
C1430 H1426 0.931 1_655 S
C1430 C1438 1.561 1_655 S
C1430 C1446 1.403 . S
H1431 C1439 0.949 1_655 S
H1432 C1437 0.950 . S
H1433 C1438 0.949 . S
H1434 C1440 0.950 . S
H1435 C1441 0.950 . S
H1436 C1442 0.949 . S
C1437 H1432 0.950 . S
C1437 C1439 1.327 1_655 S
C1437 C1443 1.429 1_655 S
C1438 C1430 1.561 1_455 S
C1438 H1433 0.949 . S
C1438 C1444 1.368 1_455 S
C1439 C1423 1.349 . S
C1439 H1431 0.949 1_455 S
C1439 C1437 1.327 1_455 S
C1440 C1428 1.349 . S
C1440 H1434 0.950 . S
C1440 C1441 1.327 . S
C1441 H1435 0.950 . S
C1441 C1440 1.327 . S
C1441 C1445 1.429 . S
C1442 C1425 1.574 . S
C1442 H1436 0.949 . S
C1442 C1446 1.368 . S
C1443 C1424 1.429 . S
C1443 C1437 1.429 1_455 S
C1443 C1444 1.523 1_455 S
C1444 C1425 1.368 . S
C1444 C1438 1.368 1_655 S
C1444 C1443 1.523 1_655 S
C1445 C1429 1.429 . S
C1445 C1441 1.429 . S
C1445 C1446 1.523 . S
C1446 C1430 1.403 . S
C1446 C1442 1.368 . S
C1446 C1445 1.523 . S
H1447 C1422 0.950 . S
H1448 C1424 0.950 . S
H1449 C1425 0.949 . S
H1450 C1427 0.950 . S
H1451 C1429 0.950 . S
C1452 C1453 1.349 . S
C1452 C1454 1.327 . S
C1452 H1477 0.950 . S
C1453 C1452 1.349 . S
C1453 C1469 1.349 . S
C1454 C1452 1.327 . S
C1454 C1473 1.429 . S
C1454 H1478 0.950 . S
C1455 C1472 1.574 . S
C1455 C1474 1.368 . S
C1455 H1479 0.949 . S
H1456 C1460 0.949 . S
C1457 C1458 1.349 . S
C1457 C1459 1.327 . S
C1457 H1480 0.950 . S
C1458 C1457 1.349 . S
C1458 C1470 1.349 . S
C1459 C1457 1.327 . S
C1459 C1475 1.429 . S
C1459 H1481 0.950 . S
C1460 H1456 0.949 . S
C1460 C1468 1.574 . S
C1460 C1476 1.368 . S
H1461 C1469 0.950 . S
H1462 C1467 0.950 . S
H1463 C1468 0.949 . S
H1464 C1470 0.950 . S
H1465 C1471 0.950 . S
H1466 C1472 0.949 . S
C1467 H1462 0.950 . S
C1467 C1469 1.327 . S
C1467 C1473 1.429 . S
C1468 C1460 1.574 . S
C1468 H1463 0.949 . S
C1468 C1474 1.368 . S
C1469 C1453 1.349 . S
C1469 H1461 0.950 . S
C1469 C1467 1.327 . S
C1470 C1458 1.349 . S
C1470 H1464 0.950 . S
C1470 C1471 1.327 . S
C1471 H1465 0.950 . S
C1471 C1470 1.327 . S
C1471 C1475 1.429 . S
C1472 C1455 1.574 . S
C1472 H1466 0.949 . S
C1472 C1476 1.368 . S
C1473 C1454 1.429 . S
C1473 C1467 1.429 . S
C1473 C1474 1.523 . S
C1474 C1455 1.368 . S
C1474 C1468 1.368 . S
C1474 C1473 1.523 . S
C1475 C1459 1.429 . S
C1475 C1471 1.429 . S
C1475 C1476 1.523 . S
C1476 C1460 1.368 . S
C1476 C1472 1.368 . S
C1476 C1475 1.523 . S
H1477 C1452 0.950 . S
H1478 C1454 0.950 . S
H1479 C1455 0.949 . S
H1480 C1457 0.950 . S
H1481 C1459 0.950 . S
C1482 C1483 1.349 . S
C1482 C1484 1.327 . S
C1482 H1507 0.950 . S
C1483 C1482 1.349 . S
C1483 C1499 1.349 . S
C1484 C1482 1.327 . S
C1484 C1503 1.429 . S
C1484 H1508 0.950 . S
C1485 C1502 1.574 1_556 S
C1485 C1504 1.368 . S
C1485 H1509 0.949 . S
H1486 C1490 0.949 . S
C1487 C1488 1.349 . S
C1487 C1489 1.327 . S
C1487 H1510 0.950 . S
C1488 C1487 1.349 . S
C1488 C1500 1.349 . S
C1489 C1487 1.327 . S
C1489 C1505 1.429 . S
C1489 H1511 0.950 . S
C1490 H1486 0.949 . S
C1490 C1498 1.574 1_554 S
C1490 C1506 1.368 . S
H1491 C1499 0.950 . S
H1492 C1497 0.950 . S
H1493 C1498 0.949 . S
H1494 C1500 0.950 . S
H1495 C1501 0.950 . S
H1496 C1502 0.949 . S
C1497 H1492 0.950 . S
C1497 C1499 1.327 . S
C1497 C1503 1.429 . S
C1498 C1490 1.574 1_556 S
C1498 H1493 0.949 . S
C1498 C1504 1.368 . S
C1499 C1483 1.349 . S
C1499 H1491 0.950 . S
C1499 C1497 1.327 . S
C1500 C1488 1.349 . S
C1500 H1494 0.950 . S
C1500 C1501 1.327 . S
C1501 H1495 0.950 . S
C1501 C1500 1.327 . S
C1501 C1505 1.429 . S
C1502 C1485 1.574 1_554 S
C1502 H1496 0.949 . S
C1502 C1506 1.368 . S
C1503 C1484 1.429 . S
C1503 C1497 1.429 . S
C1503 C1504 1.523 . S
C1504 C1485 1.368 . S
C1504 C1498 1.368 . S
C1504 C1503 1.523 . S
C1505 C1489 1.429 . S
C1505 C1501 1.429 . S
C1505 C1506 1.523 . S
C1506 C1490 1.368 . S
C1506 C1502 1.368 . S
C1506 C1505 1.523 . S
H1507 C1482 0.950 . S
H1508 C1484 0.950 . S
H1509 C1485 0.949 . S
H1510 C1487 0.950 . S
H1511 C1489 0.950 . S
C1512 C1513 1.349 . S
C1512 C1514 1.327 1_455 S
C1512 H1537 0.950 1_455 S
C1513 C1512 1.349 . S
C1513 C1529 1.349 . S
C1514 C1512 1.327 1_655 S
C1514 C1533 1.429 1_655 S
C1514 H1538 0.950 . S
C1515 C1532 1.574 1_455 S
C1515 C1534 1.368 1_455 S
C1515 H1539 0.949 . S
H1516 C1520 0.949 . S
C1517 C1518 1.349 . S
C1517 C1519 1.327 . S
C1517 H1540 0.950 . S
C1518 C1517 1.349 . S
C1518 C1530 1.349 . S
C1519 C1517 1.327 . S
C1519 C1535 1.429 . S
C1519 H1541 0.950 . S
C1520 H1516 0.949 . S
C1520 C1528 1.574 . S
C1520 C1536 1.368 . S
H1521 C1529 0.950 . S
H1522 C1527 0.950 . S
H1523 C1528 0.949 . S
H1524 C1530 0.950 . S
H1525 C1531 0.950 . S
H1526 C1532 0.949 1_455 S
C1527 H1522 0.950 . S
C1527 C1529 1.327 . S
C1527 C1533 1.429 . S
C1528 C1520 1.574 . S
C1528 H1523 0.949 . S
C1528 C1534 1.368 . S
C1529 C1513 1.349 . S
C1529 H1521 0.950 . S
C1529 C1527 1.327 . S
C1530 C1518 1.349 . S
C1530 H1524 0.950 . S
C1530 C1531 1.327 . S
C1531 H1525 0.950 . S
C1531 C1530 1.327 . S
C1531 C1535 1.429 . S
C1532 C1515 1.574 1_655 S
C1532 H1526 0.949 1_655 S
C1532 C1536 1.368 . S
C1533 C1514 1.429 1_455 S
C1533 C1527 1.429 . S
C1533 C1534 1.523 1_455 S
C1534 C1515 1.368 1_655 S
C1534 C1528 1.368 . S
C1534 C1533 1.523 1_655 S
C1535 C1519 1.429 . S
C1535 C1531 1.429 . S
C1535 C1536 1.523 . S
C1536 C1520 1.368 . S
C1536 C1532 1.368 . S
C1536 C1535 1.523 . S
H1537 C1512 0.950 1_655 S
H1538 C1514 0.950 . S
H1539 C1515 0.949 . S
H1540 C1517 0.950 . S
H1541 C1519 0.950 . S
C1542 C1543 1.349 . S
C1542 C1544 1.327 . S
C1542 H1567 0.950 . S
C1543 C1542 1.349 . S
C1543 C1559 1.349 . S
C1544 C1542 1.327 . S
C1544 C1563 1.429 . S
C1544 H1568 0.950 . S
C1545 C1562 1.574 . S
C1545 C1564 1.368 . S
C1545 H1569 0.949 . S
H1546 C1550 0.949 . S
C1547 C1548 1.349 . S
C1547 C1549 1.327 . S
C1547 H1570 0.950 . S
C1548 C1547 1.349 . S
C1548 C1560 1.349 . S
C1549 C1547 1.327 . S
C1549 C1565 1.429 . S
C1549 H1571 0.950 . S
C1550 H1546 0.949 . S
C1550 C1558 1.574 . S
C1550 C1566 1.368 . S
H1551 C1559 0.950 . S
H1552 C1557 0.950 . S
H1553 C1558 0.949 . S
H1554 C1560 0.950 . S
H1555 C1561 0.950 . S
H1556 C1562 0.949 . S
C1557 H1552 0.950 . S
C1557 C1559 1.327 . S
C1557 C1563 1.429 . S
C1558 C1550 1.574 . S
C1558 H1553 0.949 . S
C1558 C1564 1.368 . S
C1559 C1543 1.349 . S
C1559 H1551 0.950 . S
C1559 C1557 1.327 . S
C1560 C1548 1.349 . S
C1560 H1554 0.950 . S
C1560 C1561 1.327 . S
C1561 H1555 0.950 . S
C1561 C1560 1.327 . S
C1561 C1565 1.429 . S
C1562 C1545 1.574 . S
C1562 H1556 0.949 . S
C1562 C1566 1.368 . S
C1563 C1544 1.429 . S
C1563 C1557 1.429 . S
C1563 C1564 1.523 . S
C1564 C1545 1.368 . S
C1564 C1558 1.368 . S
C1564 C1563 1.523 . S
C1565 C1549 1.429 . S
C1565 C1561 1.429 . S
C1565 C1566 1.523 . S
C1566 C1550 1.368 . S
C1566 C1562 1.368 . S
C1566 C1565 1.523 . S
H1567 C1542 0.950 . S
H1568 C1544 0.950 . S
H1569 C1545 0.949 . S
H1570 C1547 0.950 . S
H1571 C1549 0.950 . S
C1572 C1573 1.349 . S
C1572 C1574 1.327 . S
C1572 H1597 0.950 . S
C1573 C1572 1.349 . S
C1573 C1589 1.349 . S
C1574 C1572 1.327 . S
C1574 C1593 1.429 . S
C1574 H1598 0.950 . S
C1575 C1592 1.574 . S
C1575 C1594 1.368 . S
C1575 H1599 0.949 . S
H1576 C1580 0.949 . S
C1577 C1578 1.349 . S
C1577 C1579 1.327 . S
C1577 H1600 0.950 . S
C1578 C1577 1.349 . S
C1578 C1590 1.349 . S
C1579 C1577 1.327 . S
C1579 C1595 1.429 . S
C1579 H1601 0.950 . S
C1580 H1576 0.949 . S
C1580 C1588 1.574 . S
C1580 C1596 1.368 . S
H1581 C1589 0.950 . S
H1582 C1587 0.950 . S
H1583 C1588 0.949 . S
H1584 C1590 0.950 . S
H1585 C1591 0.950 . S
H1586 C1592 0.949 . S
C1587 H1582 0.950 . S
C1587 C1589 1.327 . S
C1587 C1593 1.429 . S
C1588 C1580 1.574 . S
C1588 H1583 0.949 . S
C1588 C1594 1.368 . S
C1589 C1573 1.349 . S
C1589 H1581 0.950 . S
C1589 C1587 1.327 . S
C1590 C1578 1.349 . S
C1590 H1584 0.950 . S
C1590 C1591 1.327 . S
C1591 H1585 0.950 . S
C1591 C1590 1.327 . S
C1591 C1595 1.429 . S
C1592 C1575 1.574 . S
C1592 H1586 0.949 . S
C1592 C1596 1.368 . S
C1593 C1574 1.429 . S
C1593 C1587 1.429 . S
C1593 C1594 1.523 . S
C1594 C1575 1.368 . S
C1594 C1588 1.368 . S
C1594 C1593 1.523 . S
C1595 C1579 1.429 . S
C1595 C1591 1.429 . S
C1595 C1596 1.523 . S
C1596 C1580 1.368 . S
C1596 C1592 1.368 . S
C1596 C1595 1.523 . S
H1597 C1572 0.950 . S
H1598 C1574 0.950 . S
H1599 C1575 0.949 . S
H1600 C1577 0.950 . S
H1601 C1579 0.950 . S
C1602 C1603 1.349 . S
C1602 C1604 1.327 . S
C1602 H1627 0.950 . S
C1603 C1602 1.349 . S
C1603 C1619 1.349 . S
C1604 C1602 1.327 . S
C1604 C1623 1.429 . S
C1604 H1628 0.950 . S
C1605 C1622 1.574 . S
C1605 C1624 1.368 . S
C1605 H1629 0.949 . S
H1606 C1610 0.949 . S
C1607 C1608 1.349 . S
C1607 C1609 1.327 . S
C1607 H1630 0.950 . S
C1608 C1607 1.349 . S
C1608 C1620 1.349 . S
C1609 C1607 1.327 . S
C1609 C1625 1.429 . S
C1609 H1631 0.950 . S
C1610 H1606 0.949 . S
C1610 C1618 1.574 1_556 S
C1610 C1626 1.368 . S
H1611 C1619 0.950 . S
H1612 C1617 0.950 . S
H1613 C1618 0.949 . S
H1614 C1620 0.950 . S
H1615 C1621 0.950 . S
H1616 C1622 0.949 . S
C1617 H1612 0.950 . S
C1617 C1619 1.327 . S
C1617 C1623 1.429 . S
C1618 C1610 1.574 1_554 S
C1618 H1613 0.949 . S
C1618 C1624 1.368 . S
C1619 C1603 1.349 . S
C1619 H1611 0.950 . S
C1619 C1617 1.327 . S
C1620 C1608 1.349 . S
C1620 H1614 0.950 . S
C1620 C1621 1.327 . S
C1621 H1615 0.950 . S
C1621 C1620 1.327 . S
C1621 C1625 1.429 . S
C1622 C1605 1.574 . S
C1622 H1616 0.949 . S
C1622 C1626 1.368 1_554 S
C1623 C1604 1.429 . S
C1623 C1617 1.429 . S
C1623 C1624 1.523 . S
C1624 C1605 1.368 . S
C1624 C1618 1.368 . S
C1624 C1623 1.523 . S
C1625 C1609 1.429 . S
C1625 C1621 1.429 . S
C1625 C1626 1.523 . S
C1626 C1610 1.368 . S
C1626 C1622 1.368 1_556 S
C1626 C1625 1.523 . S
H1627 C1602 0.950 . S
H1628 C1604 0.950 . S
H1629 C1605 0.949 . S
H1630 C1607 0.950 . S
H1631 C1609 0.950 . S
C1632 C1633 1.349 . S
C1632 C1634 1.327 . S
C1632 H1657 0.950 . S
C1633 C1632 1.349 . S
C1633 C1649 1.349 . S
C1634 C1632 1.327 . S
C1634 C1653 1.429 . S
C1634 H1658 0.950 . S
C1635 C1652 1.574 . S
C1635 C1654 1.368 . S
C1635 H1659 0.949 . S
H1636 C1640 0.949 . S
C1637 C1638 1.349 . S
C1637 C1639 1.327 . S
C1637 H1660 0.950 . S
C1638 C1637 1.349 . S
C1638 C1650 1.349 . S
C1639 C1637 1.327 . S
C1639 C1655 1.429 . S
C1639 H1661 0.950 . S
C1640 H1636 0.949 . S
C1640 C1648 1.574 . S
C1640 C1656 1.368 . S
H1641 C1649 0.950 . S
H1642 C1647 0.950 1_565 S
H1643 C1648 0.949 1_545 S
H1644 C1650 0.950 . S
H1645 C1651 0.950 . S
H1646 C1652 0.949 . S
C1647 H1642 0.950 1_545 S
C1647 C1649 1.327 . S
C1647 C1653 1.429 . S
C1648 C1640 1.574 . S
C1648 H1643 0.949 1_565 S
C1648 C1654 1.368 . S
C1649 C1633 1.349 . S
C1649 H1641 0.950 . S
C1649 C1647 1.327 . S
C1650 C1638 1.349 . S
C1650 H1644 0.950 . S
C1650 C1651 1.327 . S
C1651 H1645 0.950 . S
C1651 C1650 1.327 . S
C1651 C1655 1.429 . S
C1652 C1635 1.574 . S
C1652 H1646 0.949 . S
C1652 C1656 1.368 . S
C1653 C1634 1.429 . S
C1653 C1647 1.429 . S
C1653 C1654 1.523 1_545 S
C1654 C1635 1.368 . S
C1654 C1648 1.368 . S
C1654 C1653 1.523 1_565 S
C1655 C1639 1.429 . S
C1655 C1651 1.429 . S
C1655 C1656 1.523 . S
C1656 C1640 1.368 . S
C1656 C1652 1.368 . S
C1656 C1655 1.523 . S
H1657 C1632 0.950 . S
H1658 C1634 0.950 . S
H1659 C1635 0.949 . S
H1660 C1637 0.950 . S
H1661 C1639 0.950 . S
C1662 C1663 1.349 . S
C1662 C1664 1.327 . S
C1662 H1687 0.950 . S
C1663 C1662 1.349 . S
C1663 C1679 1.349 . S
C1664 C1662 1.327 . S
C1664 C1683 1.429 1_565 S
C1664 H1688 0.950 . S
C1665 C1682 1.574 . S
C1665 C1684 1.368 . S
C1665 H1689 0.949 . S
H1666 C1670 0.949 . S
C1667 C1668 1.349 . S
C1667 C1669 1.327 . S
C1667 H1690 0.950 . S
C1668 C1667 1.349 . S
C1668 C1680 1.349 . S
C1669 C1667 1.327 . S
C1669 C1685 1.429 . S
C1669 H1691 0.950 . S
C1670 H1666 0.949 . S
C1670 C1678 1.574 . S
C1670 C1686 1.368 . S
H1671 C1679 0.950 . S
H1672 C1677 0.950 . S
H1673 C1678 0.949 . S
H1674 C1680 0.950 . S
H1675 C1681 0.950 . S
H1676 C1682 0.949 . S
C1677 H1672 0.950 . S
C1677 C1679 1.327 1_545 S
C1677 C1683 1.429 . S
C1678 C1670 1.574 . S
C1678 H1673 0.949 . S
C1678 C1684 1.368 . S
C1679 C1663 1.349 . S
C1679 H1671 0.950 . S
C1679 C1677 1.327 1_565 S
C1680 C1668 1.349 . S
C1680 H1674 0.950 . S
C1680 C1681 1.327 . S
C1681 H1675 0.950 . S
C1681 C1680 1.327 . S
C1681 C1685 1.429 . S
C1682 C1665 1.574 . S
C1682 H1676 0.949 . S
C1682 C1686 1.368 . S
C1683 C1664 1.429 1_545 S
C1683 C1677 1.429 . S
C1683 C1684 1.523 . S
C1684 C1665 1.368 . S
C1684 C1678 1.368 . S
C1684 C1683 1.523 . S
C1685 C1669 1.429 . S
C1685 C1681 1.429 . S
C1685 C1686 1.523 . S
C1686 C1670 1.368 . S
C1686 C1682 1.368 . S
C1686 C1685 1.523 . S
H1687 C1662 0.950 . S
H1688 C1664 0.950 . S
H1689 C1665 0.949 . S
H1690 C1667 0.950 . S
H1691 C1669 0.950 . S
C1692 C1693 1.349 . S
C1692 C1694 1.327 . S
C1692 H1717 0.950 . S
C1693 C1692 1.349 . S
C1693 C1709 1.349 . S
C1694 C1692 1.327 . S
C1694 C1713 1.429 . S
C1694 H1718 0.950 . S
C1695 C1712 1.574 . S
C1695 C1714 1.368 . S
C1695 H1719 0.949 . S
H1696 C1700 0.949 . S
C1697 C1698 1.349 . S
C1697 C1699 1.327 . S
C1697 H1720 0.950 . S
C1698 C1697 1.349 . S
C1698 C1710 1.349 . S
C1699 C1697 1.327 . S
C1699 C1715 1.429 . S
C1699 H1721 0.950 . S
C1700 H1696 0.949 . S
C1700 C1708 1.574 . S
C1700 C1716 1.368 . S
H1701 C1709 0.950 . S
H1702 C1707 0.950 . S
H1703 C1708 0.949 . S
H1704 C1710 0.950 . S
H1705 C1711 0.950 . S
H1706 C1712 0.949 . S
C1707 H1702 0.950 . S
C1707 C1709 1.327 . S
C1707 C1713 1.429 . S
C1708 C1700 1.574 . S
C1708 H1703 0.949 . S
C1708 C1714 1.368 . S
C1709 C1693 1.349 . S
C1709 H1701 0.950 . S
C1709 C1707 1.327 . S
C1710 C1698 1.349 . S
C1710 H1704 0.950 . S
C1710 C1711 1.327 . S
C1711 H1705 0.950 . S
C1711 C1710 1.327 . S
C1711 C1715 1.429 . S
C1712 C1695 1.574 . S
C1712 H1706 0.949 . S
C1712 C1716 1.368 . S
C1713 C1694 1.429 . S
C1713 C1707 1.429 . S
C1713 C1714 1.523 . S
C1714 C1695 1.368 . S
C1714 C1708 1.368 . S
C1714 C1713 1.523 . S
C1715 C1699 1.429 . S
C1715 C1711 1.429 . S
C1715 C1716 1.523 . S
C1716 C1700 1.368 . S
C1716 C1712 1.368 . S
C1716 C1715 1.523 . S
H1717 C1692 0.950 . S
H1718 C1694 0.950 . S
H1719 C1695 0.949 . S
H1720 C1697 0.950 . S
H1721 C1699 0.950 . S
C1722 C1723 1.349 . S
C1722 C1724 1.327 . S
C1722 H1747 0.950 1_554 S
C1723 C1722 1.349 . S
C1723 C1739 1.349 . S
C1724 C1722 1.327 . S
C1724 C1743 1.429 . S
C1724 H1748 0.950 . S
C1725 C1742 1.574 . S
C1725 C1744 1.368 . S
C1725 H1749 0.949 . S
H1726 C1730 0.949 . S
C1727 C1728 1.349 . S
C1727 C1729 1.327 . S
C1727 H1750 0.950 . S
C1728 C1727 1.349 . S
C1728 C1740 1.349 . S
C1729 C1727 1.327 . S
C1729 C1745 1.429 1_565 S
C1729 H1751 0.950 1_565 S
C1730 H1726 0.949 . S
C1730 C1738 1.574 . S
C1730 C1746 1.368 . S
H1731 C1739 0.950 . S
H1732 C1737 0.950 . S
H1733 C1738 0.949 . S
H1734 C1740 0.950 . S
H1735 C1741 0.950 . S
H1736 C1742 0.949 . S
C1737 H1732 0.950 . S
C1737 C1739 1.327 . S
C1737 C1743 1.429 . S
C1738 C1730 1.574 . S
C1738 H1733 0.949 . S
C1738 C1744 1.368 . S
C1739 C1723 1.349 . S
C1739 H1731 0.950 . S
C1739 C1737 1.327 . S
C1740 C1728 1.349 . S
C1740 H1734 0.950 . S
C1740 C1741 1.327 . S
C1741 H1735 0.950 . S
C1741 C1740 1.327 . S
C1741 C1745 1.429 1_565 S
C1742 C1725 1.574 . S
C1742 H1736 0.949 . S
C1742 C1746 1.368 . S
C1743 C1724 1.429 . S
C1743 C1737 1.429 . S
C1743 C1744 1.523 . S
C1744 C1725 1.368 . S
C1744 C1738 1.368 . S
C1744 C1743 1.523 . S
C1745 C1729 1.429 1_545 S
C1745 C1741 1.429 1_545 S
C1745 C1746 1.523 . S
C1746 C1730 1.368 . S
C1746 C1742 1.368 . S
C1746 C1745 1.523 . S
H1747 C1722 0.950 1_556 S
H1748 C1724 0.950 . S
H1749 C1725 0.949 . S
H1750 C1727 0.950 . S
H1751 C1729 0.950 1_545 S
C1752 C1753 1.349 . S
C1752 C1754 1.327 . S
C1752 H1777 0.950 . S
C1753 C1752 1.349 . S
C1753 C1769 1.349 . S
C1754 C1752 1.327 . S
C1754 C1773 1.429 . S
C1754 H1778 0.950 . S
C1755 C1772 1.574 . S
C1755 C1774 1.368 . S
C1755 H1779 0.949 . S
H1756 C1760 0.949 . S
C1757 C1758 1.349 . S
C1757 C1759 1.327 . S
C1757 H1780 0.950 . S
C1758 C1757 1.349 . S
C1758 C1770 1.349 . S
C1759 C1757 1.327 . S
C1759 C1775 1.429 . S
C1759 H1781 0.950 . S
C1760 H1756 0.949 . S
C1760 C1768 1.574 . S
C1760 C1776 1.368 . S
H1761 C1769 0.950 . S
H1762 C1767 0.950 . S
H1763 C1768 0.949 . S
H1764 C1770 0.950 . S
H1765 C1771 0.950 . S
H1766 C1772 0.949 . S
C1767 H1762 0.950 . S
C1767 C1769 1.327 . S
C1767 C1773 1.429 . S
C1768 C1760 1.574 . S
C1768 H1763 0.949 . S
C1768 C1774 1.368 . S
C1769 C1753 1.349 . S
C1769 H1761 0.950 . S
C1769 C1767 1.327 . S
C1770 C1758 1.349 . S
C1770 H1764 0.950 . S
C1770 C1771 1.327 . S
C1771 H1765 0.950 . S
C1771 C1770 1.327 . S
C1771 C1775 1.429 . S
C1772 C1755 1.574 . S
C1772 H1766 0.949 . S
C1772 C1776 1.368 . S
C1773 C1754 1.429 . S
C1773 C1767 1.429 . S
C1773 C1774 1.523 . S
C1774 C1755 1.368 . S
C1774 C1768 1.368 . S
C1774 C1773 1.523 . S
C1775 C1759 1.429 . S
C1775 C1771 1.429 . S
C1775 C1776 1.523 . S
C1776 C1760 1.368 . S
C1776 C1772 1.368 . S
C1776 C1775 1.523 . S
H1777 C1752 0.950 . S
H1778 C1754 0.950 . S
H1779 C1755 0.949 . S
H1780 C1757 0.950 . S
H1781 C1759 0.950 . S
C1782 C1783 1.349 . S
C1782 C1784 1.327 . S
C1782 H1807 0.950 . S
C1783 C1782 1.349 . S
C1783 C1799 1.349 . S
C1784 C1782 1.327 . S
C1784 C1803 1.429 . S
C1784 H1808 0.950 1_565 S
C1785 C1802 1.574 . S
C1785 C1804 1.368 . S
C1785 H1809 0.949 1_545 S
H1786 C1790 0.949 . S
C1787 C1788 1.349 . S
C1787 C1789 1.327 . S
C1787 H1810 0.950 . S
C1788 C1787 1.349 . S
C1788 C1800 1.349 . S
C1789 C1787 1.327 . S
C1789 C1805 1.429 . S
C1789 H1811 0.950 . S
C1790 H1786 0.949 . S
C1790 C1798 1.574 . S
C1790 C1806 1.368 . S
H1791 C1799 0.950 . S
H1792 C1797 0.950 . S
H1793 C1798 0.949 . S
H1794 C1800 0.950 . S
H1795 C1801 0.950 . S
H1796 C1802 0.949 . S
C1797 H1792 0.950 . S
C1797 C1799 1.327 . S
C1797 C1803 1.429 . S
C1798 C1790 1.574 . S
C1798 H1793 0.949 . S
C1798 C1804 1.368 . S
C1799 C1783 1.349 . S
C1799 H1791 0.950 . S
C1799 C1797 1.327 . S
C1800 C1788 1.349 . S
C1800 H1794 0.950 . S
C1800 C1801 1.327 . S
C1801 H1795 0.950 . S
C1801 C1800 1.327 . S
C1801 C1805 1.429 . S
C1802 C1785 1.574 . S
C1802 H1796 0.949 . S
C1802 C1806 1.368 . S
C1803 C1784 1.429 . S
C1803 C1797 1.429 . S
C1803 C1804 1.523 1_565 S
C1804 C1785 1.368 . S
C1804 C1798 1.368 . S
C1804 C1803 1.523 1_545 S
C1805 C1789 1.429 . S
C1805 C1801 1.429 . S
C1805 C1806 1.523 . S
C1806 C1790 1.368 . S
C1806 C1802 1.368 . S
C1806 C1805 1.523 . S
H1807 C1782 0.950 . S
H1808 C1784 0.950 1_545 S
H1809 C1785 0.949 1_565 S
H1810 C1787 0.950 . S
H1811 C1789 0.950 . S
C1812 C1813 1.349 . S
C1812 C1814 1.327 . S
C1812 H1837 0.950 1_565 S
C1813 C1812 1.349 . S
C1813 C1829 1.349 . S
C1814 C1812 1.327 . S
C1814 C1833 1.429 . S
C1814 H1838 0.950 1_565 S
C1815 C1832 1.574 . S
C1815 C1834 1.368 . S
C1815 H1839 0.949 . S
H1816 C1820 0.949 . S
C1817 C1818 1.349 . S
C1817 C1819 1.327 . S
C1817 H1840 0.950 . S
C1818 C1817 1.349 . S
C1818 C1830 1.349 . S
C1819 C1817 1.327 . S
C1819 C1835 1.429 . S
C1819 H1841 0.950 . S
C1820 H1816 0.949 . S
C1820 C1828 1.574 . S
C1820 C1836 1.368 . S
H1821 C1829 0.950 . S
H1822 C1827 0.950 . S
H1823 C1828 0.949 . S
H1824 C1830 0.950 . S
H1825 C1831 0.950 . S
H1826 C1832 0.949 . S
C1827 H1822 0.950 . S
C1827 C1829 1.327 . S
C1827 C1833 1.429 . S
C1828 C1820 1.574 . S
C1828 H1823 0.949 . S
C1828 C1834 1.368 . S
C1829 C1813 1.349 . S
C1829 H1821 0.950 . S
C1829 C1827 1.327 . S
C1830 C1818 1.349 . S
C1830 H1824 0.950 . S
C1830 C1831 1.327 . S
C1831 H1825 0.950 . S
C1831 C1830 1.327 . S
C1831 C1835 1.429 . S
C1832 C1815 1.574 . S
C1832 H1826 0.949 . S
C1832 C1836 1.368 . S
C1833 C1814 1.429 . S
C1833 C1827 1.429 . S
C1833 C1834 1.523 . S
C1834 C1815 1.368 . S
C1834 C1828 1.368 . S
C1834 C1833 1.523 . S
C1835 C1819 1.429 . S
C1835 C1831 1.429 . S
C1835 C1836 1.523 . S
C1836 C1820 1.368 . S
C1836 C1832 1.368 . S
C1836 C1835 1.523 . S
H1837 C1812 0.950 1_545 S
H1838 C1814 0.950 1_545 S
H1839 C1815 0.949 . S
H1840 C1817 0.950 . S
H1841 C1819 0.950 . S
C1842 C1843 1.349 . S
C1842 C1844 1.327 . S
C1842 H1867 0.950 1_556 S
C1843 C1842 1.349 . S
C1843 C1859 1.349 . S
C1844 C1842 1.327 . S
C1844 C1863 1.429 . S
C1844 H1868 0.950 . S
C1845 C1862 1.574 . S
C1845 C1864 1.368 . S
C1845 H1869 0.949 . S
H1846 C1850 0.949 . S
C1847 C1848 1.349 . S
C1847 C1849 1.327 1_565 S
C1847 H1870 0.950 . S
C1848 C1847 1.349 . S
C1848 C1860 1.349 . S
C1849 C1847 1.327 1_545 S
C1849 C1865 1.429 . S
C1849 H1871 0.950 . S
C1850 H1846 0.949 . S
C1850 C1858 1.574 . S
C1850 C1866 1.368 . S
H1851 C1859 0.950 . S
H1852 C1857 0.950 . S
H1853 C1858 0.949 . S
H1854 C1860 0.950 . S
H1855 C1861 0.950 . S
H1856 C1862 0.949 . S
C1857 H1852 0.950 . S
C1857 C1859 1.327 . S
C1857 C1863 1.429 . S
C1858 C1850 1.574 . S
C1858 H1853 0.949 . S
C1858 C1864 1.368 . S
C1859 C1843 1.349 . S
C1859 H1851 0.950 . S
C1859 C1857 1.327 . S
C1860 C1848 1.349 . S
C1860 H1854 0.950 . S
C1860 C1861 1.327 . S
C1861 H1855 0.950 . S
C1861 C1860 1.327 . S
C1861 C1865 1.429 1_565 S
C1862 C1845 1.574 . S
C1862 H1856 0.949 . S
C1862 C1866 1.368 . S
C1863 C1844 1.429 . S
C1863 C1857 1.429 . S
C1863 C1864 1.523 . S
C1864 C1845 1.368 . S
C1864 C1858 1.368 . S
C1864 C1863 1.523 . S
C1865 C1849 1.429 . S
C1865 C1861 1.429 1_545 S
C1865 C1866 1.523 . S
C1866 C1850 1.368 . S
C1866 C1862 1.368 . S
C1866 C1865 1.523 . S
H1867 C1842 0.950 1_554 S
H1868 C1844 0.950 . S
H1869 C1845 0.949 . S
H1870 C1847 0.950 . S
H1871 C1849 0.950 . S
C1872 C1873 1.349 . S
C1872 C1874 1.327 . S
C1872 H1897 0.950 1_556 S
C1873 C1872 1.349 . S
C1873 C1889 1.349 . S
C1874 C1872 1.327 . S
C1874 C1893 1.429 . S
C1874 H1898 0.950 . S
C1875 C1892 1.574 . S
C1875 C1894 1.368 . S
C1875 H1899 0.949 . S
H1876 C1880 0.949 . S
C1877 C1878 1.349 . S
C1877 C1879 1.327 . S
C1877 H1900 0.950 . S
C1878 C1877 1.349 . S
C1878 C1890 1.349 . S
C1879 C1877 1.327 . S
C1879 C1895 1.429 . S
C1879 H1901 0.950 . S
C1880 H1876 0.949 . S
C1880 C1888 1.574 . S
C1880 C1896 1.368 . S
H1881 C1889 0.950 . S
H1882 C1887 0.950 . S
H1883 C1888 0.949 . S
H1884 C1890 0.950 . S
H1885 C1891 0.950 . S
H1886 C1892 0.949 . S
C1887 H1882 0.950 . S
C1887 C1889 1.327 . S
C1887 C1893 1.429 . S
C1888 C1880 1.574 . S
C1888 H1883 0.949 . S
C1888 C1894 1.368 . S
C1889 C1873 1.349 . S
C1889 H1881 0.950 . S
C1889 C1887 1.327 . S
C1890 C1878 1.349 . S
C1890 H1884 0.950 . S
C1890 C1891 1.327 . S
C1891 H1885 0.950 . S
C1891 C1890 1.327 . S
C1891 C1895 1.429 . S
C1892 C1875 1.574 . S
C1892 H1886 0.949 . S
C1892 C1896 1.368 . S
C1893 C1874 1.429 . S
C1893 C1887 1.429 . S
C1893 C1894 1.523 . S
C1894 C1875 1.368 . S
C1894 C1888 1.368 . S
C1894 C1893 1.523 . S
C1895 C1879 1.429 . S
C1895 C1891 1.429 . S
C1895 C1896 1.523 . S
C1896 C1880 1.368 . S
C1896 C1892 1.368 . S
C1896 C1895 1.523 . S
H1897 C1872 0.950 1_554 S
H1898 C1874 0.950 . S
H1899 C1875 0.949 . S
H1900 C1877 0.950 . S
H1901 C1879 0.950 . S
C1902 C1903 1.349 . S
C1902 C1904 1.327 . S
C1902 H1927 0.950 . S
C1903 C1902 1.349 . S
C1903 C1919 1.349 . S
C1904 C1902 1.327 . S
C1904 C1923 1.429 . S
C1904 H1928 0.950 . S
C1905 C1922 1.574 . S
C1905 C1924 1.368 . S
C1905 H1929 0.949 . S
H1906 C1910 0.949 . S
C1907 C1908 1.349 . S
C1907 C1909 1.327 . S
C1907 H1930 0.950 . S
C1908 C1907 1.349 . S
C1908 C1920 1.349 . S
C1909 C1907 1.327 . S
C1909 C1925 1.429 . S
C1909 H1931 0.950 . S
C1910 H1906 0.949 . S
C1910 C1918 1.574 . S
C1910 C1926 1.368 . S
H1911 C1919 0.950 . S
H1912 C1917 0.950 . S
H1913 C1918 0.949 . S
H1914 C1920 0.950 . S
H1915 C1921 0.950 . S
H1916 C1922 0.949 . S
C1917 H1912 0.950 . S
C1917 C1919 1.327 . S
C1917 C1923 1.429 . S
C1918 C1910 1.574 . S
C1918 H1913 0.949 . S
C1918 C1924 1.368 . S
C1919 C1903 1.349 . S
C1919 H1911 0.950 . S
C1919 C1917 1.327 . S
C1920 C1908 1.349 . S
C1920 H1914 0.950 . S
C1920 C1921 1.327 . S
C1921 H1915 0.950 . S
C1921 C1920 1.327 . S
C1921 C1925 1.429 . S
C1922 C1905 1.574 . S
C1922 H1916 0.949 . S
C1922 C1926 1.368 . S
C1923 C1904 1.429 . S
C1923 C1917 1.429 . S
C1923 C1924 1.523 . S
C1924 C1905 1.368 . S
C1924 C1918 1.368 . S
C1924 C1923 1.523 . S
C1925 C1909 1.429 . S
C1925 C1921 1.429 . S
C1925 C1926 1.523 . S
C1926 C1910 1.368 . S
C1926 C1922 1.368 . S
C1926 C1925 1.523 . S
H1927 C1902 0.950 . S
H1928 C1904 0.950 . S
H1929 C1905 0.949 . S
H1930 C1907 0.950 . S
H1931 C1909 0.950 . S
C1932 C1933 1.349 . S
C1932 C1934 1.327 . S
C1932 H1957 0.950 . S
C1933 C1932 1.349 . S
C1933 C1949 1.349 . S
C1934 C1932 1.327 . S
C1934 C1953 1.429 . S
C1934 H1958 0.950 . S
C1935 C1952 1.574 . S
C1935 C1954 1.402 . S
C1935 H1959 0.949 . S
H1936 C1940 0.949 . S
C1937 C1938 1.349 . S
C1937 C1939 1.327 . S
C1937 H1960 0.950 . S
C1938 C1937 1.349 . S
C1938 C1950 1.349 . S
C1939 C1937 1.327 . S
C1939 C1955 1.429 . S
C1939 H1961 0.950 . S
C1940 H1936 0.949 . S
C1940 C1948 1.574 . S
C1940 C1956 1.368 . S
H1941 C1949 0.950 . S
H1942 C1947 0.950 . S
H1943 C1948 0.949 1_655 S
H1944 C1950 0.950 . S
H1945 C1951 0.950 . S
H1946 C1952 0.949 . S
C1947 H1942 0.950 . S
C1947 C1949 1.327 . S
C1947 C1953 1.429 . S
C1948 C1940 1.574 . S
C1948 H1943 0.949 1_455 S
C1948 C1954 1.367 . S
C1949 C1933 1.349 . S
C1949 H1941 0.950 . S
C1949 C1947 1.327 . S
C1950 C1938 1.349 . S
C1950 H1944 0.950 . S
C1950 C1951 1.327 . S
C1951 H1945 0.950 . S
C1951 C1950 1.327 . S
C1951 C1955 1.429 . S
C1952 C1935 1.574 . S
C1952 H1946 0.949 . S
C1952 C1956 1.368 . S
C1953 C1934 1.429 . S
C1953 C1947 1.429 . S
C1953 C1954 1.483 1_655 S
C1954 C1935 1.402 . S
C1954 C1948 1.367 . S
C1954 C1953 1.483 1_455 S
C1955 C1939 1.429 . S
C1955 C1951 1.429 . S
C1955 C1956 1.523 . S
C1956 C1940 1.368 . S
C1956 C1952 1.368 . S
C1956 C1955 1.523 . S
H1957 C1932 0.950 . S
H1958 C1934 0.950 . S
H1959 C1935 0.949 . S
H1960 C1937 0.950 . S
H1961 C1939 0.950 . S
C1962 C1963 1.349 . S
C1962 C1964 1.327 . S
C1962 H1987 0.950 . S
C1963 C1962 1.349 . S
C1963 C1979 1.349 . S
C1964 C1962 1.327 . S
C1964 C1983 1.429 . S
C1964 H1988 0.950 . S
C1965 C1982 1.574 . S
C1965 C1984 1.368 . S
C1965 H1989 0.949 . S
H1966 C1970 0.949 . S
C1967 C1968 1.349 . S
C1967 C1969 1.327 . S
C1967 H1990 0.950 . S
C1968 C1967 1.349 . S
C1968 C1980 1.349 . S
C1969 C1967 1.327 . S
C1969 C1985 1.429 . S
C1969 H1991 0.950 . S
C1970 H1966 0.949 . S
C1970 C1978 1.574 . S
C1970 C1986 1.368 . S
H1971 C1979 0.950 . S
H1972 C1977 0.950 . S
H1973 C1978 0.949 . S
H1974 C1980 0.950 . S
H1975 C1981 0.950 . S
H1976 C1982 0.949 . S
C1977 H1972 0.950 . S
C1977 C1979 1.327 . S
C1977 C1983 1.429 . S
C1978 C1970 1.574 . S
C1978 H1973 0.949 . S
C1978 C1984 1.368 . S
C1979 C1963 1.349 . S
C1979 H1971 0.950 . S
C1979 C1977 1.327 . S
C1980 C1968 1.349 . S
C1980 H1974 0.950 . S
C1980 C1981 1.327 . S
C1981 H1975 0.950 . S
C1981 C1980 1.327 . S
C1981 C1985 1.429 . S
C1982 C1965 1.574 . S
C1982 H1976 0.949 . S
C1982 C1986 1.368 . S
C1983 C1964 1.429 . S
C1983 C1977 1.429 . S
C1983 C1984 1.523 . S
C1984 C1965 1.368 . S
C1984 C1978 1.368 . S
C1984 C1983 1.523 . S
C1985 C1969 1.429 . S
C1985 C1981 1.429 . S
C1985 C1986 1.523 . S
C1986 C1970 1.368 . S
C1986 C1982 1.368 . S
C1986 C1985 1.523 . S
H1987 C1962 0.950 . S
H1988 C1964 0.950 . S
H1989 C1965 0.949 . S
H1990 C1967 0.950 . S
H1991 C1969 0.950 . S
C1992 C1993 1.349 . S
C1992 C1994 1.327 . S
C1992 H2017 0.950 . S
C1993 C1992 1.349 . S
C1993 C2009 1.349 . S
C1994 C1992 1.327 . S
C1994 C2013 1.429 . S
C1994 H2018 0.950 1_545 S
C1995 C2012 1.574 . S
C1995 C2014 1.368 . S
C1995 H2019 0.949 . S
H1996 C2000 0.949 . S
C1997 C1998 1.349 . S
C1997 C1999 1.327 1_565 S
C1997 H2020 0.950 1_565 S
C1998 C1997 1.349 . S
C1998 C2010 1.349 . S
C1999 C1997 1.327 1_545 S
C1999 C2015 1.429 1_545 S
C1999 H2021 0.950 . S
C2000 H1996 0.949 . S
C2000 C2008 1.574 . S
C2000 C2016 1.368 . S
H2001 C2009 0.950 . S
H2002 C2007 0.950 . S
H2003 C2008 0.949 . S
H2004 C2010 0.950 . S
H2005 C2011 0.950 . S
H2006 C2012 0.949 . S
C2007 H2002 0.950 . S
C2007 C2009 1.327 . S
C2007 C2013 1.429 . S
C2008 C2000 1.574 . S
C2008 H2003 0.949 . S
C2008 C2014 1.368 1_565 S
C2009 C1993 1.349 . S
C2009 H2001 0.950 . S
C2009 C2007 1.327 . S
C2010 C1998 1.349 . S
C2010 H2004 0.950 . S
C2010 C2011 1.327 . S
C2011 H2005 0.950 . S
C2011 C2010 1.327 . S
C2011 C2015 1.429 . S
C2012 C1995 1.574 . S
C2012 H2006 0.949 . S
C2012 C2016 1.368 1_545 S
C2013 C1994 1.429 . S
C2013 C2007 1.429 . S
C2013 C2014 1.523 . S
C2014 C1995 1.368 . S
C2014 C2008 1.368 1_545 S
C2014 C2013 1.523 . S
C2015 C1999 1.429 1_565 S
C2015 C2011 1.429 . S
C2015 C2016 1.523 1_655 S
C2016 C2000 1.368 . S
C2016 C2012 1.368 1_565 S
C2016 C2015 1.523 1_455 S
H2017 C1992 0.950 . S
H2018 C1994 0.950 1_565 S
H2019 C1995 0.949 . S
H2020 C1997 0.950 1_545 S
H2021 C1999 0.950 . S
C2022 C2023 1.349 . S
C2022 C2024 1.327 . S
C2022 H2047 0.950 . S
C2023 C2022 1.349 . S
C2023 C2039 1.349 . S
C2024 C2022 1.327 . S
C2024 C2043 1.429 . S
C2024 H2048 0.950 . S
C2025 C2042 1.574 . S
C2025 C2044 1.368 . S
C2025 H2049 0.949 . S
H2026 C2030 0.949 . S
C2027 C2028 1.349 . S
C2027 C2029 1.327 . S
C2027 H2050 0.950 . S
C2028 C2027 1.349 . S
C2028 C2040 1.349 . S
C2029 C2027 1.327 . S
C2029 C2045 1.429 . S
C2029 H2051 0.950 . S
C2030 H2026 0.949 . S
C2030 C2038 1.574 . S
C2030 C2046 1.368 . S
H2031 C2039 0.950 . S
H2032 C2037 0.950 . S
H2033 C2038 0.949 . S
H2034 C2040 0.950 . S
H2035 C2041 0.950 . S
H2036 C2042 0.949 . S
C2037 H2032 0.950 . S
C2037 C2039 1.327 . S
C2037 C2043 1.429 . S
C2038 C2030 1.574 . S
C2038 H2033 0.949 . S
C2038 C2044 1.368 . S
C2039 C2023 1.349 . S
C2039 H2031 0.950 . S
C2039 C2037 1.327 . S
C2040 C2028 1.349 . S
C2040 H2034 0.950 . S
C2040 C2041 1.327 . S
C2041 H2035 0.950 . S
C2041 C2040 1.327 . S
C2041 C2045 1.429 . S
C2042 C2025 1.574 . S
C2042 H2036 0.949 . S
C2042 C2046 1.368 . S
C2043 C2024 1.429 . S
C2043 C2037 1.429 . S
C2043 C2044 1.523 . S
C2044 C2025 1.368 . S
C2044 C2038 1.368 . S
C2044 C2043 1.523 . S
C2045 C2029 1.429 . S
C2045 C2041 1.429 . S
C2045 C2046 1.523 . S
C2046 C2030 1.368 . S
C2046 C2042 1.368 . S
C2046 C2045 1.523 . S
H2047 C2022 0.950 . S
H2048 C2024 0.950 . S
H2049 C2025 0.949 . S
H2050 C2027 0.950 . S
H2051 C2029 0.950 . S
C2052 C2053 1.349 . S
C2052 C2054 1.327 . S
C2052 H2077 0.950 . S
C2053 C2052 1.349 . S
C2053 C2069 1.349 . S
C2054 C2052 1.327 . S
C2054 C2073 1.429 . S
C2054 H2078 0.950 . S
C2055 C2072 1.574 . S
C2055 C2074 1.368 . S
C2055 H2079 0.949 . S
H2056 C2060 0.949 . S
C2057 C2058 1.349 . S
C2057 C2059 1.327 . S
C2057 H2080 0.950 . S
C2058 C2057 1.349 . S
C2058 C2070 1.349 . S
C2059 C2057 1.327 . S
C2059 C2075 1.429 . S
C2059 H2081 0.950 . S
C2060 H2056 0.949 . S
C2060 C2068 1.574 . S
C2060 C2076 1.368 . S
H2061 C2069 0.950 . S
H2062 C2067 0.950 . S
H2063 C2068 0.949 . S
H2064 C2070 0.950 . S
H2065 C2071 0.950 . S
H2066 C2072 0.949 . S
C2067 H2062 0.950 . S
C2067 C2069 1.327 . S
C2067 C2073 1.429 . S
C2068 C2060 1.574 . S
C2068 H2063 0.949 . S
C2068 C2074 1.368 . S
C2069 C2053 1.349 . S
C2069 H2061 0.950 . S
C2069 C2067 1.327 . S
C2070 C2058 1.349 . S
C2070 H2064 0.950 . S
C2070 C2071 1.327 . S
C2071 H2065 0.950 . S
C2071 C2070 1.327 . S
C2071 C2075 1.429 . S
C2072 C2055 1.574 . S
C2072 H2066 0.949 . S
C2072 C2076 1.368 . S
C2073 C2054 1.429 . S
C2073 C2067 1.429 . S
C2073 C2074 1.523 1_655 S
C2074 C2055 1.368 . S
C2074 C2068 1.368 . S
C2074 C2073 1.523 1_455 S
C2075 C2059 1.429 . S
C2075 C2071 1.429 . S
C2075 C2076 1.523 . S
C2076 C2060 1.368 . S
C2076 C2072 1.368 . S
C2076 C2075 1.523 . S
H2077 C2052 0.950 . S
H2078 C2054 0.950 . S
H2079 C2055 0.949 . S
H2080 C2057 0.950 . S
H2081 C2059 0.950 . S
C2082 C2083 1.349 . S
C2082 C2084 1.327 . S
C2082 H2107 0.950 . S
C2083 C2082 1.349 . S
C2083 C2099 1.349 . S
C2084 C2082 1.327 . S
C2084 C2103 1.429 . S
C2084 H2108 0.950 . S
C2085 C2102 1.574 . S
C2085 C2104 1.368 . S
C2085 H2109 0.949 . S
H2086 C2090 0.949 . S
C2087 C2088 1.349 . S
C2087 C2089 1.327 . S
C2087 H2110 0.950 . S
C2088 C2087 1.349 . S
C2088 C2100 1.349 . S
C2089 C2087 1.327 . S
C2089 C2105 1.429 . S
C2089 H2111 0.950 . S
C2090 H2086 0.949 . S
C2090 C2098 1.574 . S
C2090 C2106 1.368 . S
H2091 C2099 0.950 . S
H2092 C2097 0.950 . S
H2093 C2098 0.949 . S
H2094 C2100 0.950 . S
H2095 C2101 0.950 . S
H2096 C2102 0.949 . S
C2097 H2092 0.950 . S
C2097 C2099 1.327 . S
C2097 C2103 1.429 . S
C2098 C2090 1.574 . S
C2098 H2093 0.949 . S
C2098 C2104 1.368 . S
C2099 C2083 1.349 . S
C2099 H2091 0.950 . S
C2099 C2097 1.327 . S
C2100 C2088 1.349 . S
C2100 H2094 0.950 . S
C2100 C2101 1.327 . S
C2101 H2095 0.950 . S
C2101 C2100 1.327 . S
C2101 C2105 1.429 . S
C2102 C2085 1.574 . S
C2102 H2096 0.949 . S
C2102 C2106 1.368 . S
C2103 C2084 1.429 . S
C2103 C2097 1.429 . S
C2103 C2104 1.523 . S
C2104 C2085 1.368 . S
C2104 C2098 1.368 . S
C2104 C2103 1.523 . S
C2105 C2089 1.429 . S
C2105 C2101 1.429 . S
C2105 C2106 1.523 . S
C2106 C2090 1.368 . S
C2106 C2102 1.368 . S
C2106 C2105 1.523 . S
H2107 C2082 0.950 . S
H2108 C2084 0.950 . S
H2109 C2085 0.949 . S
H2110 C2087 0.950 . S
H2111 C2089 0.950 . S
C2112 C2113 1.349 . S
C2112 C2114 1.327 . S
C2112 H2137 0.950 . S
C2113 C2112 1.349 . S
C2113 C2129 1.349 . S
C2114 C2112 1.327 . S
C2114 C2133 1.429 . S
C2114 H2138 0.950 . S
C2115 C2132 1.574 . S
C2115 C2134 1.368 . S
C2115 H2139 0.949 . S
H2116 C2120 0.949 . S
C2117 C2118 1.349 . S
C2117 C2119 1.327 . S
C2117 H2140 0.950 . S
C2118 C2117 1.349 . S
C2118 C2130 1.349 . S
C2119 C2117 1.327 . S
C2119 C2135 1.429 . S
C2119 H2141 0.950 . S
C2120 H2116 0.949 . S
C2120 C2128 1.574 . S
C2120 C2136 1.368 . S
H2121 C2129 0.950 . S
H2122 C2127 0.950 . S
H2123 C2128 0.949 . S
H2124 C2130 0.950 . S
H2125 C2131 0.950 . S
H2126 C2132 0.949 . S
C2127 H2122 0.950 . S
C2127 C2129 1.327 . S
C2127 C2133 1.429 . S
C2128 C2120 1.574 . S
C2128 H2123 0.949 . S
C2128 C2134 1.368 . S
C2129 C2113 1.349 . S
C2129 H2121 0.950 . S
C2129 C2127 1.327 . S
C2130 C2118 1.349 . S
C2130 H2124 0.950 . S
C2130 C2131 1.327 . S
C2131 H2125 0.950 . S
C2131 C2130 1.327 . S
C2131 C2135 1.429 . S
C2132 C2115 1.574 . S
C2132 H2126 0.949 . S
C2132 C2136 1.368 . S
C2133 C2114 1.429 . S
C2133 C2127 1.429 . S
C2133 C2134 1.523 . S
C2134 C2115 1.368 . S
C2134 C2128 1.368 . S
C2134 C2133 1.523 . S
C2135 C2119 1.429 . S
C2135 C2131 1.429 . S
C2135 C2136 1.523 . S
C2136 C2120 1.368 . S
C2136 C2132 1.368 . S
C2136 C2135 1.523 . S
H2137 C2112 0.950 . S
H2138 C2114 0.950 . S
H2139 C2115 0.949 . S
H2140 C2117 0.950 . S
H2141 C2119 0.950 . S
C2142 C2143 1.349 . S
C2142 C2144 1.327 . S
C2142 H2167 0.950 . S
C2143 C2142 1.349 . S
C2143 C2159 1.349 . S
C2144 C2142 1.327 . S
C2144 C2163 1.429 . S
C2144 H2168 0.950 . S
C2145 C2162 1.574 . S
C2145 C2164 1.368 . S
C2145 H2169 0.949 . S
H2146 C2150 0.949 . S
C2147 C2148 1.349 . S
C2147 C2149 1.327 . S
C2147 H2170 0.950 . S
C2148 C2147 1.349 . S
C2148 C2160 1.349 . S
C2149 C2147 1.327 . S
C2149 C2165 1.429 . S
C2149 H2171 0.950 . S
C2150 H2146 0.949 . S
C2150 C2158 1.574 . S
C2150 C2166 1.368 . S
H2151 C2159 0.950 . S
H2152 C2157 0.950 . S
H2153 C2158 0.949 . S
H2154 C2160 0.950 . S
H2155 C2161 0.950 . S
H2156 C2162 0.949 . S
C2157 H2152 0.950 . S
C2157 C2159 1.327 . S
C2157 C2163 1.429 . S
C2158 C2150 1.574 . S
C2158 H2153 0.949 . S
C2158 C2164 1.368 . S
C2159 C2143 1.349 . S
C2159 H2151 0.950 . S
C2159 C2157 1.327 . S
C2160 C2148 1.349 . S
C2160 H2154 0.950 . S
C2160 C2161 1.327 . S
C2161 H2155 0.950 . S
C2161 C2160 1.327 . S
C2161 C2165 1.429 . S
C2162 C2145 1.574 . S
C2162 H2156 0.949 . S
C2162 C2166 1.368 . S
C2163 C2144 1.429 . S
C2163 C2157 1.429 . S
C2163 C2164 1.523 . S
C2164 C2145 1.368 . S
C2164 C2158 1.368 . S
C2164 C2163 1.523 . S
C2165 C2149 1.429 . S
C2165 C2161 1.429 . S
C2165 C2166 1.523 1_556 S
C2166 C2150 1.368 . S
C2166 C2162 1.368 . S
C2166 C2165 1.523 1_554 S
H2167 C2142 0.950 . S
H2168 C2144 0.950 . S
H2169 C2145 0.949 . S
H2170 C2147 0.950 . S
H2171 C2149 0.950 . S
C2172 C2173 1.349 . S
C2172 C2174 1.327 . S
C2172 H2197 0.950 . S
C2173 C2172 1.349 . S
C2173 C2189 1.349 . S
C2174 C2172 1.327 . S
C2174 C2193 1.429 . S
C2174 H2198 0.950 1_455 S
C2175 C2192 1.574 . S
C2175 C2194 1.368 . S
C2175 H2199 0.949 1_655 S
H2176 C2180 0.949 . S
C2177 C2178 1.349 . S
C2177 C2179 1.327 . S
C2177 H2200 0.950 . S
C2178 C2177 1.349 . S
C2178 C2190 1.349 . S
C2179 C2177 1.327 . S
C2179 C2195 1.429 . S
C2179 H2201 0.950 . S
C2180 H2176 0.949 . S
C2180 C2188 1.574 . S
C2180 C2196 1.368 . S
H2181 C2189 0.950 . S
H2182 C2187 0.950 . S
H2183 C2188 0.949 . S
H2184 C2190 0.950 . S
H2185 C2191 0.950 . S
H2186 C2192 0.949 . S
C2187 H2182 0.950 . S
C2187 C2189 1.327 . S
C2187 C2193 1.429 . S
C2188 C2180 1.574 . S
C2188 H2183 0.949 . S
C2188 C2194 1.368 . S
C2189 C2173 1.349 . S
C2189 H2181 0.950 . S
C2189 C2187 1.327 . S
C2190 C2178 1.349 . S
C2190 H2184 0.950 . S
C2190 C2191 1.327 . S
C2191 H2185 0.950 . S
C2191 C2190 1.327 . S
C2191 C2195 1.429 . S
C2192 C2175 1.574 . S
C2192 H2186 0.949 . S
C2192 C2196 1.368 . S
C2193 C2174 1.429 . S
C2193 C2187 1.429 . S
C2193 C2194 1.523 1_455 S
C2194 C2175 1.368 . S
C2194 C2188 1.368 . S
C2194 C2193 1.523 1_655 S
C2195 C2179 1.429 . S
C2195 C2191 1.429 . S
C2195 C2196 1.523 . S
C2196 C2180 1.368 . S
C2196 C2192 1.368 . S
C2196 C2195 1.523 . S
H2197 C2172 0.950 . S
H2198 C2174 0.950 1_655 S
H2199 C2175 0.949 1_455 S
H2200 C2177 0.950 . S
H2201 C2179 0.950 . S
C2202 C2203 1.349 . S
C2202 C2204 1.327 . S
C2202 H2227 0.950 . S
C2203 C2202 1.349 . S
C2203 C2219 1.349 . S
C2204 C2202 1.327 . S
C2204 C2223 1.429 . S
C2204 H2228 0.950 . S
C2205 C2222 1.574 . S
C2205 C2224 1.368 . S
C2205 H2229 0.949 . S
H2206 C2210 0.949 . S
C2207 C2208 1.349 . S
C2207 C2209 1.327 . S
C2207 H2230 0.950 . S
C2208 C2207 1.349 . S
C2208 C2220 1.349 . S
C2209 C2207 1.327 . S
C2209 C2225 1.429 . S
C2209 H2231 0.950 . S
C2210 H2206 0.949 . S
C2210 C2218 1.574 . S
C2210 C2226 1.368 . S
H2211 C2219 0.952 1_455 S
H2212 C2217 0.950 . S
H2213 C2218 0.949 . S
H2214 C2220 0.950 . S
H2215 C2221 0.950 . S
H2216 C2222 0.949 . S
C2217 H2212 0.950 . S
C2217 C2219 1.327 . S
C2217 C2223 1.429 . S
C2218 C2210 1.574 . S
C2218 H2213 0.949 . S
C2218 C2224 1.368 . S
C2219 C2203 1.349 . S
C2219 H2211 0.952 1_655 S
C2219 C2217 1.327 . S
C2220 C2208 1.349 . S
C2220 H2214 0.950 . S
C2220 C2221 1.327 . S
C2221 H2215 0.950 . S
C2221 C2220 1.327 . S
C2221 C2225 1.429 . S
C2222 C2205 1.574 . S
C2222 H2216 0.949 . S
C2222 C2226 1.368 . S
C2223 C2204 1.429 . S
C2223 C2217 1.429 . S
C2223 C2224 1.523 . S
C2224 C2205 1.368 . S
C2224 C2218 1.368 . S
C2224 C2223 1.523 . S
C2225 C2209 1.429 . S
C2225 C2221 1.429 . S
C2225 C2226 1.523 . S
C2226 C2210 1.368 . S
C2226 C2222 1.368 . S
C2226 C2225 1.523 . S
H2227 C2202 0.950 . S
H2228 C2204 0.950 . S
H2229 C2205 0.949 . S
H2230 C2207 0.950 . S
H2231 C2209 0.950 . S
C2232 C2233 1.349 . S
C2232 C2234 1.327 . S
C2232 H2257 0.950 . S
C2233 C2232 1.349 . S
C2233 C2249 1.349 . S
C2234 C2232 1.327 . S
C2234 C2253 1.429 . S
C2234 H2258 0.950 . S
C2235 C2252 1.574 . S
C2235 C2254 1.368 . S
C2235 H2259 0.949 . S
H2236 C2240 0.949 . S
C2237 C2238 1.349 . S
C2237 C2239 1.327 . S
C2237 H2260 0.950 . S
C2238 C2237 1.349 . S
C2238 C2250 1.349 . S
C2239 C2237 1.327 . S
C2239 C2255 1.429 . S
C2239 H2261 0.950 . S
C2240 H2236 0.949 . S
C2240 C2248 1.574 . S
C2240 C2256 1.368 . S
H2241 C2249 0.950 . S
H2242 C2247 0.950 . S
H2243 C2248 0.949 . S
H2244 C2250 0.950 . S
H2245 C2251 0.950 . S
H2246 C2252 0.949 . S
C2247 H2242 0.950 . S
C2247 C2249 1.327 . S
C2247 C2253 1.429 . S
C2248 C2240 1.574 . S
C2248 H2243 0.949 . S
C2248 C2254 1.368 . S
C2249 C2233 1.349 . S
C2249 H2241 0.950 . S
C2249 C2247 1.327 . S
C2250 C2238 1.349 . S
C2250 H2244 0.950 . S
C2250 C2251 1.327 . S
C2251 H2245 0.950 . S
C2251 C2250 1.327 . S
C2251 C2255 1.429 . S
C2252 C2235 1.574 . S
C2252 H2246 0.949 . S
C2252 C2256 1.368 . S
C2253 C2234 1.429 . S
C2253 C2247 1.429 . S
C2253 C2254 1.523 . S
C2254 C2235 1.368 . S
C2254 C2248 1.368 . S
C2254 C2253 1.523 . S
C2255 C2239 1.429 . S
C2255 C2251 1.429 . S
C2255 C2256 1.523 . S
C2256 C2240 1.368 . S
C2256 C2252 1.368 . S
C2256 C2255 1.523 . S
H2257 C2232 0.950 . S
H2258 C2234 0.950 . S
H2259 C2235 0.949 . S
H2260 C2237 0.950 . S
H2261 C2239 0.950 . S
C2262 C2263 1.349 . S
C2262 C2264 1.327 . S
C2262 H2287 0.950 . S
C2263 C2262 1.349 . S
C2263 C2279 1.349 . S
C2264 C2262 1.327 . S
C2264 C2283 1.429 . S
C2264 H2288 0.950 . S
C2265 C2282 1.574 . S
C2265 C2284 1.368 1_655 S
C2265 H2289 0.949 . S
H2266 C2270 0.949 . S
C2267 C2268 1.349 . S
C2267 C2269 1.327 . S
C2267 H2290 0.950 . S
C2268 C2267 1.349 . S
C2268 C2280 1.349 . S
C2269 C2267 1.327 . S
C2269 C2285 1.429 . S
C2269 H2291 0.950 . S
C2270 H2266 0.949 . S
C2270 C2278 1.574 . S
C2270 C2286 1.368 1_455 S
H2271 C2279 0.950 . S
H2272 C2277 0.950 1_655 S
H2273 C2278 0.949 1_556 S
H2274 C2280 0.950 . S
H2275 C2281 0.950 . S
H2276 C2282 0.949 . S
C2277 H2272 0.950 1_455 S
C2277 C2279 1.327 . S
C2277 C2283 1.429 . S
C2278 C2270 1.574 . S
C2278 H2273 0.949 1_554 S
C2278 C2284 1.368 . S
C2279 C2263 1.349 . S
C2279 H2271 0.950 . S
C2279 C2277 1.327 . S
C2280 C2268 1.349 . S
C2280 H2274 0.950 . S
C2280 C2281 1.327 . S
C2281 H2275 0.950 . S
C2281 C2280 1.327 . S
C2281 C2285 1.429 . S
C2282 C2265 1.574 . S
C2282 H2276 0.949 . S
C2282 C2286 1.368 . S
C2283 C2264 1.429 . S
C2283 C2277 1.429 . S
C2283 C2284 1.523 1_556 S
C2284 C2265 1.368 1_455 S
C2284 C2278 1.368 . S
C2284 C2283 1.523 1_554 S
C2285 C2269 1.429 . S
C2285 C2281 1.429 . S
C2285 C2286 1.523 . S
C2286 C2270 1.368 1_655 S
C2286 C2282 1.368 . S
C2286 C2285 1.523 . S
H2287 C2262 0.950 . S
H2288 C2264 0.950 . S
H2289 C2265 0.949 . S
H2290 C2267 0.950 . S
H2291 C2269 0.950 . S
C2292 C2293 1.349 . S
C2292 C2294 1.327 . S
C2292 H2317 0.950 . S
C2293 C2292 1.349 . S
C2293 C2309 1.349 . S
C2294 C2292 1.327 . S
C2294 C2313 1.429 . S
C2294 H2318 0.950 . S
C2295 C2312 1.574 . S
C2295 C2314 1.368 . S
C2295 H2319 0.949 . S
H2296 C2300 0.949 . S
C2297 C2298 1.349 . S
C2297 C2299 1.327 . S
C2297 H2320 0.950 . S
C2298 C2297 1.349 . S
C2298 C2310 1.349 . S
C2299 C2297 1.327 . S
C2299 C2315 1.429 . S
C2299 H2321 0.950 . S
C2300 H2296 0.949 . S
C2300 C2308 1.574 . S
C2300 C2316 1.368 . S
H2301 C2309 0.950 . S
H2302 C2307 0.950 . S
H2303 C2308 0.949 . S
H2304 C2310 0.950 . S
H2305 C2311 0.950 . S
H2306 C2312 0.949 . S
C2307 H2302 0.950 . S
C2307 C2309 1.327 . S
C2307 C2313 1.429 . S
C2308 C2300 1.574 . S
C2308 H2303 0.949 . S
C2308 C2314 1.368 . S
C2309 C2293 1.349 . S
C2309 H2301 0.950 . S
C2309 C2307 1.327 . S
C2310 C2298 1.349 . S
C2310 H2304 0.950 . S
C2310 C2311 1.327 . S
C2311 H2305 0.950 . S
C2311 C2310 1.327 . S
C2311 C2315 1.429 . S
C2312 C2295 1.574 . S
C2312 H2306 0.949 . S
C2312 C2316 1.368 . S
C2313 C2294 1.429 . S
C2313 C2307 1.429 . S
C2313 C2314 1.523 . S
C2314 C2295 1.368 . S
C2314 C2308 1.368 . S
C2314 C2313 1.523 . S
C2315 C2299 1.429 . S
C2315 C2311 1.429 . S
C2315 C2316 1.523 . S
C2316 C2300 1.368 . S
C2316 C2312 1.368 . S
C2316 C2315 1.523 . S
H2317 C2292 0.950 . S
H2318 C2294 0.950 . S
H2319 C2295 0.949 . S
H2320 C2297 0.950 . S
H2321 C2299 0.950 . S
C2322 C2323 1.349 . S
C2322 C2324 1.327 . S
C2322 H2347 0.950 . S
C2323 C2322 1.349 . S
C2323 C2339 1.349 . S
C2324 C2322 1.327 . S
C2324 C2343 1.429 . S
C2324 H2348 0.950 . S
C2325 C2342 1.574 . S
C2325 C2344 1.368 . S
C2325 H2349 0.949 . S
H2326 C2330 0.949 . S
C2327 C2328 1.349 . S
C2327 C2329 1.327 . S
C2327 H2350 0.950 . S
C2328 C2327 1.349 . S
C2328 C2340 1.349 . S
C2329 C2327 1.327 . S
C2329 C2345 1.429 . S
C2329 H2351 0.950 . S
C2330 H2326 0.949 . S
C2330 C2338 1.574 . S
C2330 C2346 1.368 . S
H2331 C2339 0.950 . S
H2332 C2337 0.950 . S
H2333 C2338 0.949 . S
H2334 C2340 0.950 . S
H2335 C2341 0.950 . S
H2336 C2342 0.949 . S
C2337 H2332 0.950 . S
C2337 C2339 1.327 . S
C2337 C2343 1.429 . S
C2338 C2330 1.574 . S
C2338 H2333 0.949 . S
C2338 C2344 1.368 . S
C2339 C2323 1.349 . S
C2339 H2331 0.950 . S
C2339 C2337 1.327 . S
C2340 C2328 1.349 . S
C2340 H2334 0.950 . S
C2340 C2341 1.327 . S
C2341 H2335 0.950 . S
C2341 C2340 1.327 . S
C2341 C2345 1.429 . S
C2342 C2325 1.574 . S
C2342 H2336 0.949 . S
C2342 C2346 1.368 . S
C2343 C2324 1.429 . S
C2343 C2337 1.429 . S
C2343 C2344 1.523 . S
C2344 C2325 1.368 . S
C2344 C2338 1.368 . S
C2344 C2343 1.523 . S
C2345 C2329 1.429 . S
C2345 C2341 1.429 . S
C2345 C2346 1.523 . S
C2346 C2330 1.368 . S
C2346 C2342 1.368 . S
C2346 C2345 1.523 . S
H2347 C2322 0.950 . S
H2348 C2324 0.950 . S
H2349 C2325 0.949 . S
H2350 C2327 0.950 . S
H2351 C2329 0.950 . S
C2352 C2353 1.349 . S
C2352 C2354 1.327 . S
C2352 H2377 0.950 . S
C2353 C2352 1.349 . S
C2353 C2369 1.349 . S
C2354 C2352 1.327 . S
C2354 C2373 1.429 . S
C2354 H2378 0.950 . S
C2355 C2372 1.574 . S
C2355 C2374 1.368 . S
C2355 H2379 0.949 . S
H2356 C2360 0.949 . S
C2357 C2358 1.349 . S
C2357 C2359 1.327 . S
C2357 H2380 0.950 . S
C2358 C2357 1.349 . S
C2358 C2370 1.349 . S
C2359 C2357 1.327 . S
C2359 C2375 1.429 . S
C2359 H2381 0.950 . S
C2360 H2356 0.949 . S
C2360 C2368 1.574 . S
C2360 C2376 1.368 . S
H2361 C2369 0.950 . S
H2362 C2367 0.950 . S
H2363 C2368 0.949 . S
H2364 C2370 0.950 . S
H2365 C2371 0.950 . S
H2366 C2372 0.949 . S
C2367 H2362 0.950 . S
C2367 C2369 1.327 . S
C2367 C2373 1.429 . S
C2368 C2360 1.574 . S
C2368 H2363 0.949 . S
C2368 C2374 1.368 . S
C2369 C2353 1.349 . S
C2369 H2361 0.950 . S
C2369 C2367 1.327 . S
C2370 C2358 1.349 . S
C2370 H2364 0.950 . S
C2370 C2371 1.327 . S
C2371 H2365 0.950 . S
C2371 C2370 1.327 . S
C2371 C2375 1.429 . S
C2372 C2355 1.574 . S
C2372 H2366 0.949 . S
C2372 C2376 1.368 . S
C2373 C2354 1.429 . S
C2373 C2367 1.429 . S
C2373 C2374 1.523 . S
C2374 C2355 1.368 . S
C2374 C2368 1.368 . S
C2374 C2373 1.523 . S
C2375 C2359 1.429 . S
C2375 C2371 1.429 . S
C2375 C2376 1.523 . S
C2376 C2360 1.368 . S
C2376 C2372 1.368 . S
C2376 C2375 1.523 . S
H2377 C2352 0.950 . S
H2378 C2354 0.950 . S
H2379 C2355 0.949 . S
H2380 C2357 0.950 . S
H2381 C2359 0.950 . S
C2382 C2383 1.349 . S
C2382 C2384 1.327 . S
C2382 H2407 0.950 . S
C2383 C2382 1.349 . S
C2383 C2399 1.349 . S
C2384 C2382 1.327 . S
C2384 C2403 1.429 . S
C2384 H2408 0.950 . S
C2385 C2402 1.574 . S
C2385 C2404 1.368 . S
C2385 H2409 0.949 . S
H2386 C2390 0.949 . S
C2387 C2388 1.349 . S
C2387 C2389 1.327 . S
C2387 H2410 0.950 . S
C2388 C2387 1.349 . S
C2388 C2400 1.349 . S
C2389 C2387 1.327 . S
C2389 C2405 1.429 . S
C2389 H2411 0.950 . S
C2390 H2386 0.949 . S
C2390 C2398 1.574 . S
C2390 C2406 1.368 . S
H2391 C2399 0.950 . S
H2392 C2397 0.950 . S
H2393 C2398 0.949 . S
H2394 C2400 0.950 . S
H2395 C2401 0.950 . S
H2396 C2402 0.949 . S
C2397 H2392 0.950 . S
C2397 C2399 1.327 . S
C2397 C2403 1.429 . S
C2398 C2390 1.574 . S
C2398 H2393 0.949 . S
C2398 C2404 1.368 . S
C2399 C2383 1.349 . S
C2399 H2391 0.950 . S
C2399 C2397 1.327 . S
C2400 C2388 1.349 . S
C2400 H2394 0.950 . S
C2400 C2401 1.327 . S
C2401 H2395 0.950 . S
C2401 C2400 1.327 . S
C2401 C2405 1.429 . S
C2402 C2385 1.574 . S
C2402 H2396 0.949 . S
C2402 C2406 1.368 . S
C2403 C2384 1.429 . S
C2403 C2397 1.429 . S
C2403 C2404 1.523 . S
C2404 C2385 1.368 . S
C2404 C2398 1.368 . S
C2404 C2403 1.523 . S
C2405 C2389 1.429 . S
C2405 C2401 1.429 . S
C2405 C2406 1.523 . S
C2406 C2390 1.368 . S
C2406 C2402 1.368 . S
C2406 C2405 1.523 . S
H2407 C2382 0.950 . S
H2408 C2384 0.950 . S
H2409 C2385 0.949 . S
H2410 C2387 0.950 . S
H2411 C2389 0.950 . S
C2412 C2413 1.349 . S
C2412 C2414 1.327 . S
C2412 H2437 0.950 . S
C2413 C2412 1.349 . S
C2413 C2429 1.349 . S
C2414 C2412 1.327 . S
C2414 C2433 1.429 . S
C2414 H2438 0.950 . S
C2415 C2432 1.574 . S
C2415 C2434 1.368 . S
C2415 H2439 0.949 . S
H2416 C2420 0.949 . S
C2417 C2418 1.349 . S
C2417 C2419 1.327 . S
C2417 H2440 0.950 . S
C2418 C2417 1.349 . S
C2418 C2430 1.349 . S
C2419 C2417 1.327 . S
C2419 C2435 1.429 . S
C2419 H2441 0.950 . S
C2420 H2416 0.949 . S
C2420 C2428 1.574 . S
C2420 C2436 1.368 . S
H2421 C2429 0.950 . S
H2422 C2427 0.950 . S
H2423 C2428 0.949 . S
H2424 C2430 0.950 . S
H2425 C2431 0.950 . S
H2426 C2432 0.949 . S
C2427 H2422 0.950 . S
C2427 C2429 1.327 . S
C2427 C2433 1.429 . S
C2428 C2420 1.574 . S
C2428 H2423 0.949 . S
C2428 C2434 1.368 . S
C2429 C2413 1.349 . S
C2429 H2421 0.950 . S
C2429 C2427 1.327 . S
C2430 C2418 1.349 . S
C2430 H2424 0.950 . S
C2430 C2431 1.327 . S
C2431 H2425 0.950 . S
C2431 C2430 1.327 . S
C2431 C2435 1.429 . S
C2432 C2415 1.574 . S
C2432 H2426 0.949 . S
C2432 C2436 1.368 . S
C2433 C2414 1.429 . S
C2433 C2427 1.429 . S
C2433 C2434 1.523 . S
C2434 C2415 1.368 . S
C2434 C2428 1.368 . S
C2434 C2433 1.523 . S
C2435 C2419 1.429 . S
C2435 C2431 1.429 . S
C2435 C2436 1.523 . S
C2436 C2420 1.368 . S
C2436 C2432 1.368 . S
C2436 C2435 1.523 . S
H2437 C2412 0.950 . S
H2438 C2414 0.950 . S
H2439 C2415 0.949 . S
H2440 C2417 0.950 . S
H2441 C2419 0.950 . S
C2442 C2443 1.349 . S
C2442 C2444 1.327 . S
C2442 H2467 0.950 . S
C2443 C2442 1.349 . S
C2443 C2459 1.349 . S
C2444 C2442 1.327 . S
C2444 C2463 1.429 . S
C2444 H2468 0.950 . S
C2445 C2462 1.574 . S
C2445 C2464 1.368 . S
C2445 H2469 0.949 . S
H2446 C2450 0.949 . S
C2447 C2448 1.349 . S
C2447 C2449 1.327 . S
C2447 H2470 0.950 . S
C2448 C2447 1.349 . S
C2448 C2460 1.349 . S
C2449 C2447 1.327 . S
C2449 C2465 1.429 . S
C2449 H2471 0.950 . S
C2450 H2446 0.949 . S
C2450 C2458 1.574 . S
C2450 C2466 1.368 . S
H2451 C2459 0.950 . S
H2452 C2457 0.950 . S
H2453 C2458 0.949 . S
H2454 C2460 0.950 . S
H2455 C2461 0.950 . S
H2456 C2462 0.949 . S
C2457 H2452 0.950 . S
C2457 C2459 1.327 . S
C2457 C2463 1.429 . S
C2458 C2450 1.574 . S
C2458 H2453 0.949 . S
C2458 C2464 1.368 . S
C2459 C2443 1.349 . S
C2459 H2451 0.950 . S
C2459 C2457 1.327 . S
C2460 C2448 1.349 . S
C2460 H2454 0.950 . S
C2460 C2461 1.327 . S
C2461 H2455 0.950 . S
C2461 C2460 1.327 . S
C2461 C2465 1.429 . S
C2462 C2445 1.574 . S
C2462 H2456 0.949 . S
C2462 C2466 1.368 . S
C2463 C2444 1.429 . S
C2463 C2457 1.429 . S
C2463 C2464 1.523 . S
C2464 C2445 1.368 . S
C2464 C2458 1.368 . S
C2464 C2463 1.523 . S
C2465 C2449 1.429 . S
C2465 C2461 1.429 . S
C2465 C2466 1.523 . S
C2466 C2450 1.368 . S
C2466 C2462 1.368 . S
C2466 C2465 1.523 . S
H2467 C2442 0.950 . S
H2468 C2444 0.950 . S
H2469 C2445 0.949 . S
H2470 C2447 0.950 . S
H2471 C2449 0.950 . S
C2472 C2473 1.349 . S
C2472 C2474 1.327 . S
C2472 H2497 0.950 . S
C2473 C2472 1.349 . S
C2473 C2489 1.349 . S
C2474 C2472 1.327 . S
C2474 C2493 1.429 . S
C2474 H2498 0.950 . S
C2475 C2492 1.574 . S
C2475 C2494 1.368 . S
C2475 H2499 0.949 . S
H2476 C2480 0.949 . S
C2477 C2478 1.349 . S
C2477 C2479 1.327 . S
C2477 H2500 0.950 . S
C2478 C2477 1.349 . S
C2478 C2490 1.349 . S
C2479 C2477 1.327 . S
C2479 C2495 1.429 . S
C2479 H2501 0.950 . S
C2480 H2476 0.949 . S
C2480 C2488 1.574 . S
C2480 C2496 1.368 . S
H2481 C2489 0.950 . S
H2482 C2487 0.950 . S
H2483 C2488 0.949 . S
H2484 C2490 0.950 . S
H2485 C2491 0.950 . S
H2486 C2492 0.949 . S
C2487 H2482 0.950 . S
C2487 C2489 1.327 . S
C2487 C2493 1.429 . S
C2488 C2480 1.574 . S
C2488 H2483 0.949 . S
C2488 C2494 1.368 . S
C2489 C2473 1.349 . S
C2489 H2481 0.950 . S
C2489 C2487 1.327 . S
C2490 C2478 1.349 . S
C2490 H2484 0.950 . S
C2490 C2491 1.327 . S
C2491 H2485 0.950 . S
C2491 C2490 1.327 . S
C2491 C2495 1.429 . S
C2492 C2475 1.574 . S
C2492 H2486 0.949 . S
C2492 C2496 1.368 . S
C2493 C2474 1.429 . S
C2493 C2487 1.429 . S
C2493 C2494 1.523 . S
C2494 C2475 1.368 . S
C2494 C2488 1.368 . S
C2494 C2493 1.523 . S
C2495 C2479 1.429 . S
C2495 C2491 1.429 . S
C2495 C2496 1.523 . S
C2496 C2480 1.368 . S
C2496 C2492 1.368 . S
C2496 C2495 1.523 . S
H2497 C2472 0.950 . S
H2498 C2474 0.950 . S
H2499 C2475 0.949 . S
H2500 C2477 0.950 . S
H2501 C2479 0.950 . S
C2502 C2503 1.349 . S
C2502 C2504 1.327 . S
C2502 H2527 0.950 . S
C2503 C2502 1.349 . S
C2503 C2519 1.349 . S
C2504 C2502 1.327 . S
C2504 C2523 1.429 . S
C2504 H2528 0.950 . S
C2505 C2522 1.574 . S
C2505 C2524 1.368 . S
C2505 H2529 0.949 . S
H2506 C2510 0.949 . S
C2507 C2508 1.349 . S
C2507 C2509 1.327 . S
C2507 H2530 0.950 . S
C2508 C2507 1.349 . S
C2508 C2520 1.349 . S
C2509 C2507 1.327 . S
C2509 C2525 1.429 . S
C2509 H2531 0.950 . S
C2510 H2506 0.949 . S
C2510 C2518 1.574 . S
C2510 C2526 1.368 . S
H2511 C2519 0.950 . S
H2512 C2517 0.950 . S
H2513 C2518 0.949 . S
H2514 C2520 0.950 . S
H2515 C2521 0.950 . S
H2516 C2522 0.949 . S
C2517 H2512 0.950 . S
C2517 C2519 1.327 . S
C2517 C2523 1.429 . S
C2518 C2510 1.574 . S
C2518 H2513 0.949 . S
C2518 C2524 1.368 . S
C2519 C2503 1.349 . S
C2519 H2511 0.950 . S
C2519 C2517 1.327 . S
C2520 C2508 1.349 . S
C2520 H2514 0.950 . S
C2520 C2521 1.327 . S
C2521 H2515 0.950 . S
C2521 C2520 1.327 . S
C2521 C2525 1.429 . S
C2522 C2505 1.574 . S
C2522 H2516 0.949 . S
C2522 C2526 1.368 . S
C2523 C2504 1.429 . S
C2523 C2517 1.429 . S
C2523 C2524 1.523 . S
C2524 C2505 1.368 . S
C2524 C2518 1.368 . S
C2524 C2523 1.523 . S
C2525 C2509 1.429 . S
C2525 C2521 1.429 . S
C2525 C2526 1.523 . S
C2526 C2510 1.368 . S
C2526 C2522 1.368 . S
C2526 C2525 1.523 . S
H2527 C2502 0.950 . S
H2528 C2504 0.950 . S
H2529 C2505 0.949 . S
H2530 C2507 0.950 . S
H2531 C2509 0.950 . S
C2532 C2533 1.349 . S
C2532 C2534 1.327 . S
C2532 H2557 0.950 . S
C2533 C2532 1.349 . S
C2533 C2549 1.349 . S
C2534 C2532 1.327 . S
C2534 C2553 1.429 . S
C2534 H2558 0.950 . S
C2535 C2552 1.574 . S
C2535 C2554 1.368 . S
C2535 H2559 0.949 . S
H2536 C2540 0.949 . S
C2537 C2538 1.349 . S
C2537 C2539 1.327 . S
C2537 H2560 0.950 . S
C2538 C2537 1.349 . S
C2538 C2550 1.349 . S
C2539 C2537 1.327 . S
C2539 C2555 1.429 . S
C2539 H2561 0.950 . S
C2540 H2536 0.949 . S
C2540 C2548 1.574 . S
C2540 C2556 1.368 . S
H2541 C2549 0.950 . S
H2542 C2547 0.950 . S
H2543 C2548 0.949 . S
H2544 C2550 0.950 . S
H2545 C2551 0.950 . S
H2546 C2552 0.949 . S
C2547 H2542 0.950 . S
C2547 C2549 1.327 . S
C2547 C2553 1.429 . S
C2548 C2540 1.574 . S
C2548 H2543 0.949 . S
C2548 C2554 1.368 . S
C2549 C2533 1.349 . S
C2549 H2541 0.950 . S
C2549 C2547 1.327 . S
C2550 C2538 1.349 . S
C2550 H2544 0.950 . S
C2550 C2551 1.327 . S
C2551 H2545 0.950 . S
C2551 C2550 1.327 . S
C2551 C2555 1.429 . S
C2552 C2535 1.574 . S
C2552 H2546 0.949 . S
C2552 C2556 1.368 . S
C2553 C2534 1.429 . S
C2553 C2547 1.429 . S
C2553 C2554 1.523 . S
C2554 C2535 1.368 . S
C2554 C2548 1.368 . S
C2554 C2553 1.523 . S
C2555 C2539 1.429 . S
C2555 C2551 1.429 . S
C2555 C2556 1.523 . S
C2556 C2540 1.368 . S
C2556 C2552 1.368 . S
C2556 C2555 1.523 . S
H2557 C2532 0.950 . S
H2558 C2534 0.950 . S
H2559 C2535 0.949 . S
H2560 C2537 0.950 . S
H2561 C2539 0.950 . S
C2562 C2563 1.349 . S
C2562 C2564 1.327 . S
C2562 H2587 0.950 . S
C2563 C2562 1.349 . S
C2563 C2579 1.349 . S
C2564 C2562 1.327 . S
C2564 C2583 1.429 . S
C2564 H2588 0.950 . S
C2565 C2582 1.574 . S
C2565 C2584 1.368 . S
C2565 H2589 0.949 . S
H2566 C2570 0.949 . S
C2567 C2568 1.349 . S
C2567 C2569 1.327 . S
C2567 H2590 0.950 . S
C2568 C2567 1.349 . S
C2568 C2580 1.349 . S
C2569 C2567 1.327 . S
C2569 C2585 1.429 . S
C2569 H2591 0.950 . S
C2570 H2566 0.949 . S
C2570 C2578 1.574 . S
C2570 C2586 1.368 . S
H2571 C2579 0.950 . S
H2572 C2577 0.950 . S
H2573 C2578 0.949 . S
H2574 C2580 0.950 . S
H2575 C2581 0.950 . S
H2576 C2582 0.949 . S
C2577 H2572 0.950 . S
C2577 C2579 1.327 . S
C2577 C2583 1.429 . S
C2578 C2570 1.574 . S
C2578 H2573 0.949 . S
C2578 C2584 1.368 . S
C2579 C2563 1.349 . S
C2579 H2571 0.950 . S
C2579 C2577 1.327 . S
C2580 C2568 1.349 . S
C2580 H2574 0.950 . S
C2580 C2581 1.327 . S
C2581 H2575 0.950 . S
C2581 C2580 1.327 . S
C2581 C2585 1.429 . S
C2582 C2565 1.574 . S
C2582 H2576 0.949 . S
C2582 C2586 1.368 . S
C2583 C2564 1.429 . S
C2583 C2577 1.429 . S
C2583 C2584 1.523 . S
C2584 C2565 1.368 . S
C2584 C2578 1.368 . S
C2584 C2583 1.523 . S
C2585 C2569 1.429 . S
C2585 C2581 1.429 . S
C2585 C2586 1.523 . S
C2586 C2570 1.368 . S
C2586 C2582 1.368 . S
C2586 C2585 1.523 . S
H2587 C2562 0.950 . S
H2588 C2564 0.950 . S
H2589 C2565 0.949 . S
H2590 C2567 0.950 . S
H2591 C2569 0.950 . S
C2592 C2593 1.349 . S
C2592 C2594 1.327 . S
C2592 H2617 0.950 . S
C2593 C2592 1.349 . S
C2593 C2609 1.349 . S
C2594 C2592 1.327 . S
C2594 C2613 1.429 . S
C2594 H2618 0.950 . S
C2595 C2612 1.574 . S
C2595 C2614 1.368 . S
C2595 H2619 0.949 . S
H2596 C2600 0.949 . S
C2597 C2598 1.349 . S
C2597 C2599 1.327 . S
C2597 H2620 0.950 . S
C2598 C2597 1.349 . S
C2598 C2610 1.349 . S
C2599 C2597 1.327 . S
C2599 C2615 1.429 . S
C2599 H2621 0.950 . S
C2600 H2596 0.949 . S
C2600 C2608 1.574 . S
C2600 C2616 1.368 . S
H2601 C2609 0.950 . S
H2602 C2607 0.950 . S
H2603 C2608 0.949 . S
H2604 C2610 0.950 . S
H2605 C2611 0.950 . S
H2606 C2612 0.949 . S
C2607 H2602 0.950 . S
C2607 C2609 1.327 . S
C2607 C2613 1.429 . S
C2608 C2600 1.574 . S
C2608 H2603 0.949 . S
C2608 C2614 1.368 . S
C2609 C2593 1.349 . S
C2609 H2601 0.950 . S
C2609 C2607 1.327 . S
C2610 C2598 1.349 . S
C2610 H2604 0.950 . S
C2610 C2611 1.327 . S
C2611 H2605 0.950 . S
C2611 C2610 1.327 . S
C2611 C2615 1.429 . S
C2612 C2595 1.574 . S
C2612 H2606 0.949 . S
C2612 C2616 1.368 . S
C2613 C2594 1.429 . S
C2613 C2607 1.429 . S
C2613 C2614 1.523 . S
C2614 C2595 1.368 . S
C2614 C2608 1.368 . S
C2614 C2613 1.523 . S
C2615 C2599 1.429 . S
C2615 C2611 1.429 . S
C2615 C2616 1.523 . S
C2616 C2600 1.368 . S
C2616 C2612 1.368 . S
C2616 C2615 1.523 . S
H2617 C2592 0.950 . S
H2618 C2594 0.950 . S
H2619 C2595 0.949 . S
H2620 C2597 0.950 . S
H2621 C2599 0.950 . S
C2622 C2623 1.349 . S
C2622 C2624 1.327 . S
C2622 H2647 0.950 . S
C2623 C2622 1.349 . S
C2623 C2639 1.349 . S
C2624 C2622 1.327 . S
C2624 C2643 1.429 . S
C2624 H2648 0.950 . S
C2625 C2642 1.574 . S
C2625 C2644 1.368 . S
C2625 H2649 0.949 . S
H2626 C2630 0.949 . S
C2627 C2628 1.349 . S
C2627 C2629 1.327 . S
C2627 H2650 0.950 . S
C2628 C2627 1.349 . S
C2628 C2640 1.349 . S
C2629 C2627 1.327 . S
C2629 C2645 1.429 . S
C2629 H2651 0.950 . S
C2630 H2626 0.949 . S
C2630 C2638 1.574 . S
C2630 C2646 1.368 . S
H2631 C2639 0.950 . S
H2632 C2637 0.950 . S
H2633 C2638 0.949 . S
H2634 C2640 0.950 . S
H2635 C2641 0.950 . S
H2636 C2642 0.949 . S
C2637 H2632 0.950 . S
C2637 C2639 1.327 . S
C2637 C2643 1.429 . S
C2638 C2630 1.574 . S
C2638 H2633 0.949 . S
C2638 C2644 1.368 . S
C2639 C2623 1.349 . S
C2639 H2631 0.950 . S
C2639 C2637 1.327 . S
C2640 C2628 1.349 . S
C2640 H2634 0.950 . S
C2640 C2641 1.327 . S
C2641 H2635 0.950 . S
C2641 C2640 1.327 . S
C2641 C2645 1.429 . S
C2642 C2625 1.574 . S
C2642 H2636 0.949 . S
C2642 C2646 1.368 . S
C2643 C2624 1.429 . S
C2643 C2637 1.429 . S
C2643 C2644 1.523 . S
C2644 C2625 1.368 . S
C2644 C2638 1.368 . S
C2644 C2643 1.523 . S
C2645 C2629 1.429 . S
C2645 C2641 1.429 . S
C2645 C2646 1.523 . S
C2646 C2630 1.368 . S
C2646 C2642 1.368 . S
C2646 C2645 1.523 . S
H2647 C2622 0.950 . S
H2648 C2624 0.950 . S
H2649 C2625 0.949 . S
H2650 C2627 0.950 . S
H2651 C2629 0.950 . S
C2652 C2653 1.349 . S
C2652 C2654 1.331 . S
C2652 H2677 0.936 1_545 S
C2653 C2652 1.349 . S
C2653 C2669 1.349 . S
C2654 C2652 1.331 . S
C2654 C2673 1.436 . S
C2654 H2678 0.938 1_545 S
C2655 C2672 1.574 . S
C2655 C2674 1.368 . S
C2655 H2679 0.949 . S
H2656 C2660 0.949 . S
C2657 C2658 1.349 . S
C2657 C2659 1.327 . S
C2657 H2680 0.950 . S
C2658 C2657 1.349 . S
C2658 C2670 1.349 . S
C2659 C2657 1.327 . S
C2659 C2675 1.429 . S
C2659 H2681 0.950 1_565 S
C2660 H2656 0.949 . S
C2660 C2668 1.574 . S
C2660 C2676 1.368 . S
H2661 C2669 0.950 . S
H2662 C2667 0.950 . S
H2663 C2668 0.949 . S
H2664 C2670 0.950 . S
H2665 C2671 0.950 . S
H2666 C2672 0.949 . S
C2667 H2662 0.950 . S
C2667 C2669 1.327 . S
C2667 C2673 1.429 . S
C2668 C2660 1.574 . S
C2668 H2663 0.949 . S
C2668 C2674 1.368 1_565 S
C2669 C2653 1.349 . S
C2669 H2661 0.950 . S
C2669 C2667 1.327 . S
C2670 C2658 1.349 . S
C2670 H2664 0.950 . S
C2670 C2671 1.327 . S
C2671 H2665 0.950 . S
C2671 C2670 1.327 . S
C2671 C2675 1.429 . S
C2672 C2655 1.574 . S
C2672 H2666 0.949 . S
C2672 C2676 1.368 1_545 S
C2673 C2654 1.436 . S
C2673 C2667 1.429 . S
C2673 C2674 1.523 . S
C2674 C2655 1.368 . S
C2674 C2668 1.368 1_545 S
C2674 C2673 1.523 . S
C2675 C2659 1.429 . S
C2675 C2671 1.429 . S
C2675 C2676 1.523 . S
C2676 C2660 1.368 . S
C2676 C2672 1.368 1_565 S
C2676 C2675 1.523 . S
H2677 C2652 0.936 1_565 S
H2678 C2654 0.938 1_565 S
H2679 C2655 0.949 . S
H2680 C2657 0.950 . S
H2681 C2659 0.950 1_545 S
C2682 C2683 1.349 . S
C2682 C2684 1.327 . S
C2682 H2707 0.950 . S
C2683 C2682 1.349 . S
C2683 C2699 1.349 . S
C2684 C2682 1.327 . S
C2684 C2703 1.429 . S
C2684 H2708 0.950 . S
C2685 C2702 1.574 . S
C2685 C2704 1.368 . S
C2685 H2709 0.949 . S
H2686 C2690 0.949 . S
C2687 C2688 1.349 . S
C2687 C2689 1.327 . S
C2687 H2710 0.950 . S
C2688 C2687 1.349 . S
C2688 C2700 1.349 . S
C2689 C2687 1.327 . S
C2689 C2705 1.429 . S
C2689 H2711 0.950 . S
C2690 H2686 0.949 . S
C2690 C2698 1.574 . S
C2690 C2706 1.368 . S
H2691 C2699 0.950 1_554 S
H2692 C2697 0.950 . S
H2693 C2698 0.949 . S
H2694 C2700 0.950 . S
H2695 C2701 0.950 . S
H2696 C2702 0.949 . S
C2697 H2692 0.950 . S
C2697 C2699 1.327 . S
C2697 C2703 1.429 . S
C2698 C2690 1.574 . S
C2698 H2693 0.949 . S
C2698 C2704 1.368 . S
C2699 C2683 1.349 . S
C2699 H2691 0.950 1_556 S
C2699 C2697 1.327 . S
C2700 C2688 1.349 . S
C2700 H2694 0.950 . S
C2700 C2701 1.327 . S
C2701 H2695 0.950 . S
C2701 C2700 1.327 . S
C2701 C2705 1.429 . S
C2702 C2685 1.574 . S
C2702 H2696 0.949 . S
C2702 C2706 1.368 . S
C2703 C2684 1.429 . S
C2703 C2697 1.429 . S
C2703 C2704 1.523 . S
C2704 C2685 1.368 . S
C2704 C2698 1.368 . S
C2704 C2703 1.523 . S
C2705 C2689 1.429 . S
C2705 C2701 1.429 . S
C2705 C2706 1.523 . S
C2706 C2690 1.368 . S
C2706 C2702 1.368 . S
C2706 C2705 1.523 . S
H2707 C2682 0.950 . S
H2708 C2684 0.950 . S
H2709 C2685 0.949 . S
H2710 C2687 0.950 . S
H2711 C2689 0.950 . S
C2712 C2713 1.349 . S
C2712 C2714 1.327 . S
C2712 H2737 0.950 . S
C2713 C2712 1.349 . S
C2713 C2729 1.349 . S
C2714 C2712 1.327 . S
C2714 C2733 1.429 . S
C2714 H2738 0.950 . S
C2715 C2732 1.574 . S
C2715 C2734 1.368 . S
C2715 H2739 0.949 . S
H2716 C2720 0.949 . S
C2717 C2718 1.349 . S
C2717 C2719 1.327 . S
C2717 H2740 0.950 . S
C2718 C2717 1.349 . S
C2718 C2730 1.349 . S
C2719 C2717 1.327 . S
C2719 C2735 1.429 . S
C2719 H2741 0.950 . S
C2720 H2716 0.949 . S
C2720 C2728 1.574 . S
C2720 C2736 1.368 . S
H2721 C2729 0.950 . S
H2722 C2727 0.950 . S
H2723 C2728 0.949 . S
H2724 C2730 0.950 . S
H2725 C2731 0.950 . S
H2726 C2732 0.949 . S
C2727 H2722 0.950 . S
C2727 C2729 1.327 . S
C2727 C2733 1.429 . S
C2728 C2720 1.574 . S
C2728 H2723 0.949 . S
C2728 C2734 1.368 . S
C2729 C2713 1.349 . S
C2729 H2721 0.950 . S
C2729 C2727 1.327 . S
C2730 C2718 1.349 . S
C2730 H2724 0.950 . S
C2730 C2731 1.327 . S
C2731 H2725 0.950 . S
C2731 C2730 1.327 . S
C2731 C2735 1.429 . S
C2732 C2715 1.574 . S
C2732 H2726 0.949 . S
C2732 C2736 1.368 . S
C2733 C2714 1.429 . S
C2733 C2727 1.429 . S
C2733 C2734 1.523 . S
C2734 C2715 1.368 . S
C2734 C2728 1.368 . S
C2734 C2733 1.523 . S
C2735 C2719 1.429 . S
C2735 C2731 1.429 . S
C2735 C2736 1.523 . S
C2736 C2720 1.368 . S
C2736 C2732 1.368 . S
C2736 C2735 1.523 . S
H2737 C2712 0.950 . S
H2738 C2714 0.950 . S
H2739 C2715 0.949 . S
H2740 C2717 0.950 . S
H2741 C2719 0.950 . S
C2742 C2743 1.349 . S
C2742 C2744 1.327 . S
C2742 H2767 0.950 . S
C2743 C2742 1.349 . S
C2743 C2759 1.349 . S
C2744 C2742 1.327 . S
C2744 C2763 1.429 . S
C2744 H2768 0.950 . S
C2745 C2762 1.574 . S
C2745 C2764 1.368 . S
C2745 H2769 0.949 . S
H2746 C2750 0.949 . S
C2747 C2748 1.349 . S
C2747 C2749 1.327 . S
C2747 H2770 0.950 . S
C2748 C2747 1.349 . S
C2748 C2760 1.349 . S
C2749 C2747 1.327 . S
C2749 C2765 1.429 . S
C2749 H2771 0.950 . S
C2750 H2746 0.949 . S
C2750 C2758 1.574 . S
C2750 C2766 1.368 . S
H2751 C2759 0.976 . S
H2752 C2757 0.950 . S
H2753 C2758 0.949 . S
H2754 C2760 0.950 . S
H2755 C2761 0.950 . S
H2756 C2762 0.949 . S
C2757 H2752 0.950 . S
C2757 C2759 1.327 . S
C2757 C2763 1.429 . S
C2758 C2750 1.574 . S
C2758 H2753 0.949 . S
C2758 C2764 1.368 . S
C2759 C2743 1.349 . S
C2759 H2751 0.976 . S
C2759 C2757 1.327 . S
C2760 C2748 1.349 . S
C2760 H2754 0.950 . S
C2760 C2761 1.327 . S
C2761 H2755 0.950 . S
C2761 C2760 1.327 . S
C2761 C2765 1.429 . S
C2762 C2745 1.574 . S
C2762 H2756 0.949 . S
C2762 C2766 1.368 . S
C2763 C2744 1.429 . S
C2763 C2757 1.429 . S
C2763 C2764 1.523 . S
C2764 C2745 1.368 . S
C2764 C2758 1.368 . S
C2764 C2763 1.523 . S
C2765 C2749 1.429 . S
C2765 C2761 1.429 . S
C2765 C2766 1.523 . S
C2766 C2750 1.368 . S
C2766 C2762 1.368 . S
C2766 C2765 1.523 . S
H2767 C2742 0.950 . S
H2768 C2744 0.950 . S
H2769 C2745 0.949 . S
H2770 C2747 0.950 . S
H2771 C2749 0.950 . S
C2772 C2773 1.349 . S
C2772 C2774 1.327 . S
C2772 H2797 0.950 . S
C2773 C2772 1.349 . S
C2773 C2789 1.349 . S
C2774 C2772 1.327 . S
C2774 C2793 1.429 . S
C2774 H2798 0.950 . S
C2775 C2792 1.574 . S
C2775 C2794 1.368 . S
C2775 H2799 0.949 . S
H2776 C2780 0.949 . S
C2777 C2778 1.349 . S
C2777 C2779 1.327 . S
C2777 H2800 0.950 . S
C2778 C2777 1.349 . S
C2778 C2790 1.349 . S
C2779 C2777 1.327 . S
C2779 C2795 1.429 . S
C2779 H2801 0.950 . S
C2780 H2776 0.949 . S
C2780 C2788 1.574 . S
C2780 C2796 1.368 . S
H2781 C2789 0.950 . S
H2782 C2787 0.950 . S
H2783 C2788 0.949 . S
H2784 C2790 0.950 . S
H2785 C2791 0.950 . S
H2786 C2792 0.949 . S
C2787 H2782 0.950 . S
C2787 C2789 1.327 . S
C2787 C2793 1.429 . S
C2788 C2780 1.574 . S
C2788 H2783 0.949 . S
C2788 C2794 1.368 . S
C2789 C2773 1.349 . S
C2789 H2781 0.950 . S
C2789 C2787 1.327 . S
C2790 C2778 1.349 . S
C2790 H2784 0.950 . S
C2790 C2791 1.327 . S
C2791 H2785 0.950 . S
C2791 C2790 1.327 . S
C2791 C2795 1.429 . S
C2792 C2775 1.574 . S
C2792 H2786 0.949 . S
C2792 C2796 1.368 . S
C2793 C2774 1.429 . S
C2793 C2787 1.429 . S
C2793 C2794 1.523 . S
C2794 C2775 1.368 . S
C2794 C2788 1.368 . S
C2794 C2793 1.523 . S
C2795 C2779 1.429 . S
C2795 C2791 1.429 . S
C2795 C2796 1.523 . S
C2796 C2780 1.368 . S
C2796 C2792 1.368 . S
C2796 C2795 1.523 . S
H2797 C2772 0.950 . S
H2798 C2774 0.950 . S
H2799 C2775 0.949 . S
H2800 C2777 0.950 . S
H2801 C2779 0.950 . S
C2802 C2803 1.349 . S
C2802 C2804 1.327 . S
C2802 H2827 0.950 . S
C2803 C2802 1.349 . S
C2803 C2819 1.349 . S
C2804 C2802 1.327 . S
C2804 C2823 1.429 . S
C2804 H2828 0.950 . S
C2805 C2822 1.574 . S
C2805 C2824 1.372 . S
C2805 H2829 0.949 1_455 S
H2806 C2810 0.949 . S
C2807 C2808 1.349 . S
C2807 C2809 1.327 . S
C2807 H2830 0.950 . S
C2808 C2807 1.349 . S
C2808 C2820 1.349 . S
C2809 C2807 1.327 . S
C2809 C2825 1.429 . S
C2809 H2831 0.950 . S
C2810 H2806 0.949 . S
C2810 C2818 1.574 . S
C2810 C2826 1.368 . S
H2811 C2819 0.950 . S
H2812 C2817 0.950 . S
H2813 C2818 0.949 . S
H2814 C2820 0.950 . S
H2815 C2821 0.950 . S
H2816 C2822 0.949 . S
C2817 H2812 0.950 . S
C2817 C2819 1.327 . S
C2817 C2823 1.429 . S
C2818 C2810 1.574 . S
C2818 H2813 0.949 . S
C2818 C2824 1.388 . S
C2819 C2803 1.349 . S
C2819 H2811 0.950 . S
C2819 C2817 1.327 . S
C2820 C2808 1.349 . S
C2820 H2814 0.950 . S
C2820 C2821 1.327 . S
C2821 H2815 0.950 . S
C2821 C2820 1.327 . S
C2821 C2825 1.429 . S
C2822 C2805 1.574 . S
C2822 H2816 0.949 . S
C2822 C2826 1.368 . S
C2823 C2804 1.429 . S
C2823 C2817 1.429 . S
C2823 C2824 1.494 1_655 S
C2824 C2805 1.372 . S
C2824 C2818 1.388 . S
C2824 C2823 1.494 1_455 S
C2825 C2809 1.429 . S
C2825 C2821 1.429 . S
C2825 C2826 1.523 . S
C2826 C2810 1.368 . S
C2826 C2822 1.368 . S
C2826 C2825 1.523 . S
H2827 C2802 0.950 . S
H2828 C2804 0.950 . S
H2829 C2805 0.949 1_655 S
H2830 C2807 0.950 . S
H2831 C2809 0.950 . S
C2832 C2833 1.349 . S
C2832 C2834 1.327 . S
C2832 H2857 0.950 . S
C2833 C2832 1.349 . S
C2833 C2849 1.349 . S
C2834 C2832 1.327 . S
C2834 C2853 1.429 . S
C2834 H2858 0.950 . S
C2835 C2852 1.574 . S
C2835 C2854 1.368 . S
C2835 H2859 0.949 . S
H2836 C2840 0.949 . S
C2837 C2838 1.349 . S
C2837 C2839 1.327 . S
C2837 H2860 0.950 . S
C2838 C2837 1.349 . S
C2838 C2850 1.349 . S
C2839 C2837 1.327 . S
C2839 C2855 1.429 . S
C2839 H2861 0.950 . S
C2840 H2836 0.949 . S
C2840 C2848 1.574 . S
C2840 C2856 1.368 . S
H2841 C2849 0.950 . S
H2842 C2847 0.950 . S
H2843 C2848 0.949 . S
H2844 C2850 0.950 . S
H2845 C2851 0.950 . S
H2846 C2852 0.949 . S
C2847 H2842 0.950 . S
C2847 C2849 1.327 . S
C2847 C2853 1.429 . S
C2848 C2840 1.574 . S
C2848 H2843 0.949 . S
C2848 C2854 1.368 . S
C2849 C2833 1.349 . S
C2849 H2841 0.950 . S
C2849 C2847 1.327 . S
C2850 C2838 1.349 . S
C2850 H2844 0.950 . S
C2850 C2851 1.327 . S
C2851 H2845 0.950 . S
C2851 C2850 1.327 . S
C2851 C2855 1.429 . S
C2852 C2835 1.574 . S
C2852 H2846 0.949 . S
C2852 C2856 1.368 . S
C2853 C2834 1.429 . S
C2853 C2847 1.429 . S
C2853 C2854 1.523 . S
C2854 C2835 1.368 . S
C2854 C2848 1.368 . S
C2854 C2853 1.523 . S
C2855 C2839 1.429 . S
C2855 C2851 1.429 . S
C2855 C2856 1.523 . S
C2856 C2840 1.368 . S
C2856 C2852 1.368 . S
C2856 C2855 1.523 . S
H2857 C2832 0.950 . S
H2858 C2834 0.950 . S
H2859 C2835 0.949 . S
H2860 C2837 0.950 . S
H2861 C2839 0.950 . S
C2862 C2863 1.349 . S
C2862 C2864 1.327 . S
C2862 H2887 0.950 . S
C2863 C2862 1.349 . S
C2863 C2879 1.349 . S
C2864 C2862 1.327 . S
C2864 C2883 1.429 . S
C2864 H2888 0.950 . S
C2865 C2882 1.574 . S
C2865 C2884 1.368 1_554 S
C2865 H2889 0.949 1_554 S
H2866 C2870 0.949 . S
C2867 C2868 1.349 . S
C2867 C2869 1.327 . S
C2867 H2890 0.950 . S
C2868 C2867 1.349 . S
C2868 C2880 1.349 . S
C2869 C2867 1.327 . S
C2869 C2885 1.429 . S
C2869 H2891 0.950 . S
C2870 H2866 0.949 . S
C2870 C2878 1.574 1_554 S
C2870 C2886 1.368 . S
H2871 C2879 0.950 . S
H2872 C2877 0.950 . S
H2873 C2878 0.949 . S
H2874 C2880 0.950 . S
H2875 C2881 0.950 . S
H2876 C2882 0.949 . S
C2877 H2872 0.950 . S
C2877 C2879 1.327 . S
C2877 C2883 1.429 . S
C2878 C2870 1.574 1_556 S
C2878 H2873 0.949 . S
C2878 C2884 1.368 . S
C2879 C2863 1.349 . S
C2879 H2871 0.950 . S
C2879 C2877 1.327 . S
C2880 C2868 1.349 . S
C2880 H2874 0.950 . S
C2880 C2881 1.327 . S
C2881 H2875 0.950 . S
C2881 C2880 1.327 . S
C2881 C2885 1.429 . S
C2882 C2865 1.574 . S
C2882 H2876 0.949 . S
C2882 C2886 1.368 . S
C2883 C2864 1.429 . S
C2883 C2877 1.429 . S
C2883 C2884 1.523 . S
C2884 C2865 1.368 1_556 S
C2884 C2878 1.368 . S
C2884 C2883 1.523 . S
C2885 C2869 1.429 . S
C2885 C2881 1.429 . S
C2885 C2886 1.523 . S
C2886 C2870 1.368 . S
C2886 C2882 1.368 . S
C2886 C2885 1.523 . S
H2887 C2862 0.950 . S
H2888 C2864 0.950 . S
H2889 C2865 0.949 1_556 S
H2890 C2867 0.950 . S
H2891 C2869 0.950 . S
C2892 C2893 1.349 . S
C2892 C2894 1.327 . S
C2892 H2917 0.950 . S
C2893 C2892 1.349 . S
C2893 C2909 1.349 . S
C2894 C2892 1.327 . S
C2894 C2913 1.429 . S
C2894 H2918 0.950 . S
C2895 C2912 1.574 . S
C2895 C2914 1.368 . S
C2895 H2919 0.949 . S
H2896 C2900 0.949 . S
C2897 C2898 1.349 . S
C2897 C2899 1.327 . S
C2897 H2920 0.950 . S
C2898 C2897 1.349 . S
C2898 C2910 1.349 . S
C2899 C2897 1.327 . S
C2899 C2915 1.429 . S
C2899 H2921 0.950 . S
C2900 H2896 0.949 . S
C2900 C2908 1.574 . S
C2900 C2916 1.368 . S
H2901 C2909 0.950 . S
H2902 C2907 0.950 . S
H2903 C2908 0.949 . S
H2904 C2910 0.950 . S
H2905 C2911 0.950 . S
H2906 C2912 0.949 . S
C2907 H2902 0.950 . S
C2907 C2909 1.327 . S
C2907 C2913 1.429 . S
C2908 C2900 1.574 . S
C2908 H2903 0.949 . S
C2908 C2914 1.368 . S
C2909 C2893 1.349 . S
C2909 H2901 0.950 . S
C2909 C2907 1.327 . S
C2910 C2898 1.349 . S
C2910 H2904 0.950 . S
C2910 C2911 1.327 . S
C2911 H2905 0.950 . S
C2911 C2910 1.327 . S
C2911 C2915 1.429 . S
C2912 C2895 1.574 . S
C2912 H2906 0.949 . S
C2912 C2916 1.368 . S
C2913 C2894 1.429 . S
C2913 C2907 1.429 . S
C2913 C2914 1.523 . S
C2914 C2895 1.368 . S
C2914 C2908 1.368 . S
C2914 C2913 1.523 . S
C2915 C2899 1.429 . S
C2915 C2911 1.429 . S
C2915 C2916 1.523 . S
C2916 C2900 1.368 . S
C2916 C2912 1.368 . S
C2916 C2915 1.523 . S
H2917 C2892 0.950 . S
H2918 C2894 0.950 . S
H2919 C2895 0.949 . S
H2920 C2897 0.950 . S
H2921 C2899 0.950 . S
C2922 C2923 1.349 . S
C2922 C2924 1.327 . S
C2922 H2947 0.950 . S
C2923 C2922 1.349 . S
C2923 C2939 1.349 . S
C2924 C2922 1.327 . S
C2924 C2943 1.429 . S
C2924 H2948 0.950 . S
C2925 C2942 1.574 . S
C2925 C2944 1.368 . S
C2925 H2949 0.949 . S
H2926 C2930 0.949 . S
C2927 C2928 1.349 . S
C2927 C2929 1.327 . S
C2927 H2950 0.950 . S
C2928 C2927 1.349 . S
C2928 C2940 1.349 . S
C2929 C2927 1.327 . S
C2929 C2945 1.429 . S
C2929 H2951 0.950 . S
C2930 H2926 0.949 . S
C2930 C2938 1.574 . S
C2930 C2946 1.368 . S
H2931 C2939 0.950 . S
H2932 C2937 0.950 . S
H2933 C2938 0.949 . S
H2934 C2940 0.950 . S
H2935 C2941 0.950 . S
H2936 C2942 0.949 . S
C2937 H2932 0.950 . S
C2937 C2939 1.327 . S
C2937 C2943 1.429 . S
C2938 C2930 1.574 . S
C2938 H2933 0.949 . S
C2938 C2944 1.368 . S
C2939 C2923 1.349 . S
C2939 H2931 0.950 . S
C2939 C2937 1.327 . S
C2940 C2928 1.349 . S
C2940 H2934 0.950 . S
C2940 C2941 1.327 . S
C2941 H2935 0.950 . S
C2941 C2940 1.327 . S
C2941 C2945 1.429 . S
C2942 C2925 1.574 . S
C2942 H2936 0.949 . S
C2942 C2946 1.368 . S
C2943 C2924 1.429 . S
C2943 C2937 1.429 . S
C2943 C2944 1.523 . S
C2944 C2925 1.368 . S
C2944 C2938 1.368 . S
C2944 C2943 1.523 . S
C2945 C2929 1.429 . S
C2945 C2941 1.429 . S
C2945 C2946 1.523 . S
C2946 C2930 1.368 . S
C2946 C2942 1.368 . S
C2946 C2945 1.523 . S
H2947 C2922 0.950 . S
H2948 C2924 0.950 . S
H2949 C2925 0.949 . S
H2950 C2927 0.950 . S
H2951 C2929 0.950 . S
C2952 C2953 1.349 . S
C2952 C2954 1.327 . S
C2952 H2977 0.950 . S
C2953 C2952 1.349 . S
C2953 C2969 1.349 . S
C2954 C2952 1.327 . S
C2954 C2973 1.429 . S
C2954 H2978 0.950 . S
C2955 C2972 1.574 . S
C2955 C2974 1.368 . S
C2955 H2979 0.949 . S
H2956 C2960 0.949 . S
C2957 C2958 1.349 . S
C2957 C2959 1.327 . S
C2957 H2980 0.950 . S
C2958 C2957 1.349 . S
C2958 C2970 1.349 . S
C2959 C2957 1.327 . S
C2959 C2975 1.429 . S
C2959 H2981 0.950 . S
C2960 H2956 0.949 . S
C2960 C2968 1.574 . S
C2960 C2976 1.368 . S
H2961 C2969 0.950 . S
H2962 C2967 0.950 . S
H2963 C2968 0.949 . S
H2964 C2970 0.950 . S
H2965 C2971 0.950 . S
H2966 C2972 0.949 . S
C2967 H2962 0.950 . S
C2967 C2969 1.327 . S
C2967 C2973 1.429 . S
C2968 C2960 1.574 . S
C2968 H2963 0.949 . S
C2968 C2974 1.368 . S
C2969 C2953 1.349 . S
C2969 H2961 0.950 . S
C2969 C2967 1.327 . S
C2970 C2958 1.349 . S
C2970 H2964 0.950 . S
C2970 C2971 1.327 . S
C2971 H2965 0.950 . S
C2971 C2970 1.327 . S
C2971 C2975 1.429 . S
C2972 C2955 1.574 . S
C2972 H2966 0.949 . S
C2972 C2976 1.368 . S
C2973 C2954 1.429 . S
C2973 C2967 1.429 . S
C2973 C2974 1.523 . S
C2974 C2955 1.368 . S
C2974 C2968 1.368 . S
C2974 C2973 1.523 . S
C2975 C2959 1.429 . S
C2975 C2971 1.429 . S
C2975 C2976 1.523 . S
C2976 C2960 1.368 . S
C2976 C2972 1.368 . S
C2976 C2975 1.523 . S
H2977 C2952 0.950 . S
H2978 C2954 0.950 . S
H2979 C2955 0.949 . S
H2980 C2957 0.950 . S
H2981 C2959 0.950 . S
C2982 C2983 1.349 . S
C2982 C2984 1.327 . S
C2982 H3007 0.950 . S
C2983 C2982 1.349 . S
C2983 C2999 1.349 . S
C2984 C2982 1.327 . S
C2984 C3003 1.429 . S
C2984 H3008 0.950 . S
C2985 C3002 1.574 1_554 S
C2985 C3004 1.368 . S
C2985 H3009 0.949 . S
H2986 C2990 0.965 . S
C2987 C2988 1.349 . S
C2987 C2989 1.327 . S
C2987 H3010 0.950 . S
C2988 C2987 1.349 . S
C2988 C3000 1.349 . S
C2989 C2987 1.327 . S
C2989 C3005 1.429 . S
C2989 H3011 0.950 . S
C2990 H2986 0.965 . S
C2990 C2998 1.574 . S
C2990 C3006 1.368 1_554 S
H2991 C2999 0.950 1_655 S
H2992 C2997 0.950 . S
H2993 C2998 0.949 . S
H2994 C3000 0.950 . S
H2995 C3001 0.950 . S
H2996 C3002 0.949 . S
C2997 H2992 0.950 . S
C2997 C2999 1.327 . S
C2997 C3003 1.429 . S
C2998 C2990 1.574 . S
C2998 H2993 0.949 . S
C2998 C3004 1.368 . S
C2999 C2983 1.349 . S
C2999 H2991 0.950 1_455 S
C2999 C2997 1.327 . S
C3000 C2988 1.349 . S
C3000 H2994 0.950 . S
C3000 C3001 1.327 . S
C3001 H2995 0.950 . S
C3001 C3000 1.327 . S
C3001 C3005 1.429 . S
C3002 C2985 1.574 1_556 S
C3002 H2996 0.949 . S
C3002 C3006 1.368 . S
C3003 C2984 1.429 . S
C3003 C2997 1.429 . S
C3003 C3004 1.523 . S
C3004 C2985 1.368 . S
C3004 C2998 1.368 . S
C3004 C3003 1.523 . S
C3005 C2989 1.429 . S
C3005 C3001 1.429 . S
C3005 C3006 1.523 . S
C3006 C2990 1.368 1_556 S
C3006 C3002 1.368 . S
C3006 C3005 1.523 . S
H3007 C2982 0.950 . S
H3008 C2984 0.950 . S
H3009 C2985 0.949 . S
H3010 C2987 0.950 . S
H3011 C2989 0.950 . S
C3012 C3013 1.349 . S
C3012 C3014 1.327 . S
C3012 H3037 0.950 . S
C3013 C3012 1.349 . S
C3013 C3029 1.349 . S
C3014 C3012 1.327 . S
C3014 C3033 1.429 . S
C3014 H3038 0.950 . S
C3015 C3032 1.574 . S
C3015 C3034 1.368 . S
C3015 H3039 0.949 . S
H3016 C3020 0.949 . S
C3017 C3018 1.349 . S
C3017 C3019 1.327 . S
C3017 H3040 0.950 . S
C3018 C3017 1.349 . S
C3018 C3030 1.349 . S
C3019 C3017 1.327 . S
C3019 C3035 1.429 . S
C3019 H3041 0.950 . S
C3020 H3016 0.949 . S
C3020 C3028 1.574 . S
C3020 C3036 1.368 . S
H3021 C3029 0.950 . S
H3022 C3027 0.950 . S
H3023 C3028 0.949 . S
H3024 C3030 0.950 . S
H3025 C3031 0.950 . S
H3026 C3032 0.949 . S
C3027 H3022 0.950 . S
C3027 C3029 1.327 . S
C3027 C3033 1.429 . S
C3028 C3020 1.574 . S
C3028 H3023 0.949 . S
C3028 C3034 1.368 . S
C3029 C3013 1.349 . S
C3029 H3021 0.950 . S
C3029 C3027 1.327 . S
C3030 C3018 1.349 . S
C3030 H3024 0.950 . S
C3030 C3031 1.327 . S
C3031 H3025 0.950 . S
C3031 C3030 1.327 . S
C3031 C3035 1.429 . S
C3032 C3015 1.574 . S
C3032 H3026 0.949 . S
C3032 C3036 1.368 . S
C3033 C3014 1.429 . S
C3033 C3027 1.429 . S
C3033 C3034 1.523 . S
C3034 C3015 1.368 . S
C3034 C3028 1.368 . S
C3034 C3033 1.523 . S
C3035 C3019 1.429 . S
C3035 C3031 1.429 . S
C3035 C3036 1.523 . S
C3036 C3020 1.368 . S
C3036 C3032 1.368 . S
C3036 C3035 1.523 . S
H3037 C3012 0.950 . S
H3038 C3014 0.950 . S
H3039 C3015 0.949 . S
H3040 C3017 0.950 . S
H3041 C3019 0.950 . S
C3042 C3043 1.349 . S
C3042 C3044 1.327 . S
C3042 H3067 0.950 . S
C3043 C3042 1.349 . S
C3043 C3059 1.349 . S
C3044 C3042 1.327 . S
C3044 C3063 1.429 . S
C3044 H3068 0.950 . S
C3045 C3062 1.574 . S
C3045 C3064 1.368 . S
C3045 H3069 0.949 . S
H3046 C3050 0.949 . S
C3047 C3048 1.349 . S
C3047 C3049 1.327 . S
C3047 H3070 0.950 . S
C3048 C3047 1.349 . S
C3048 C3060 1.349 . S
C3049 C3047 1.327 . S
C3049 C3065 1.429 . S
C3049 H3071 0.950 . S
C3050 H3046 0.949 . S
C3050 C3058 1.574 . S
C3050 C3066 1.368 . S
H3051 C3059 0.950 . S
H3052 C3057 0.950 . S
H3053 C3058 0.949 . S
H3054 C3060 0.950 . S
H3055 C3061 0.950 . S
H3056 C3062 0.949 . S
C3057 H3052 0.950 . S
C3057 C3059 1.327 . S
C3057 C3063 1.429 . S
C3058 C3050 1.574 . S
C3058 H3053 0.949 . S
C3058 C3064 1.368 . S
C3059 C3043 1.349 . S
C3059 H3051 0.950 . S
C3059 C3057 1.327 . S
C3060 C3048 1.349 . S
C3060 H3054 0.950 . S
C3060 C3061 1.327 . S
C3061 H3055 0.950 . S
C3061 C3060 1.327 . S
C3061 C3065 1.429 . S
C3062 C3045 1.574 . S
C3062 H3056 0.949 . S
C3062 C3066 1.368 . S
C3063 C3044 1.429 . S
C3063 C3057 1.429 . S
C3063 C3064 1.523 . S
C3064 C3045 1.368 . S
C3064 C3058 1.368 . S
C3064 C3063 1.523 . S
C3065 C3049 1.429 . S
C3065 C3061 1.429 . S
C3065 C3066 1.523 . S
C3066 C3050 1.368 . S
C3066 C3062 1.368 . S
C3066 C3065 1.523 . S
H3067 C3042 0.950 . S
H3068 C3044 0.950 . S
H3069 C3045 0.949 . S
H3070 C3047 0.950 . S
H3071 C3049 0.950 . S
C3072 C3073 1.349 . S
C3072 C3074 1.327 . S
C3072 H3097 0.950 . S
C3073 C3072 1.349 . S
C3073 C3089 1.349 . S
C3074 C3072 1.327 . S
C3074 C3093 1.429 . S
C3074 H3098 0.950 . S
C3075 C3092 1.574 . S
C3075 C3094 1.368 . S
C3075 H3099 0.949 . S
H3076 C3080 0.949 . S
C3077 C3078 1.349 . S
C3077 C3079 1.327 . S
C3077 H3100 0.950 . S
C3078 C3077 1.349 . S
C3078 C3090 1.349 . S
C3079 C3077 1.327 . S
C3079 C3095 1.429 . S
C3079 H3101 0.950 . S
C3080 H3076 0.949 . S
C3080 C3088 1.574 . S
C3080 C3096 1.368 . S
H3081 C3089 0.950 . S
H3082 C3087 0.950 . S
H3083 C3088 0.949 . S
H3084 C3090 0.950 . S
H3085 C3091 0.950 . S
H3086 C3092 0.949 . S
C3087 H3082 0.950 . S
C3087 C3089 1.327 . S
C3087 C3093 1.429 . S
C3088 C3080 1.574 . S
C3088 H3083 0.949 . S
C3088 C3094 1.368 . S
C3089 C3073 1.349 . S
C3089 H3081 0.950 . S
C3089 C3087 1.327 . S
C3090 C3078 1.349 . S
C3090 H3084 0.950 . S
C3090 C3091 1.327 . S
C3091 H3085 0.950 . S
C3091 C3090 1.327 . S
C3091 C3095 1.429 . S
C3092 C3075 1.574 . S
C3092 H3086 0.949 . S
C3092 C3096 1.368 . S
C3093 C3074 1.429 . S
C3093 C3087 1.429 . S
C3093 C3094 1.523 . S
C3094 C3075 1.368 . S
C3094 C3088 1.368 . S
C3094 C3093 1.523 . S
C3095 C3079 1.429 . S
C3095 C3091 1.429 . S
C3095 C3096 1.523 . S
C3096 C3080 1.368 . S
C3096 C3092 1.368 . S
C3096 C3095 1.523 . S
H3097 C3072 0.950 . S
H3098 C3074 0.950 . S
H3099 C3075 0.949 . S
H3100 C3077 0.950 . S
H3101 C3079 0.950 . S
C3102 C3103 1.349 . S
C3102 C3104 1.327 . S
C3102 H3127 0.950 . S
C3103 C3102 1.349 . S
C3103 C3119 1.349 . S
C3104 C3102 1.327 . S
C3104 C3123 1.429 . S
C3104 H3128 0.950 . S
C3105 C3122 1.574 . S
C3105 C3124 1.368 . S
C3105 H3129 0.949 . S
H3106 C3110 0.949 . S
C3107 C3108 1.349 . S
C3107 C3109 1.327 . S
C3107 H3130 0.950 . S
C3108 C3107 1.349 . S
C3108 C3120 1.349 . S
C3109 C3107 1.327 . S
C3109 C3125 1.429 . S
C3109 H3131 0.950 . S
C3110 H3106 0.949 . S
C3110 C3118 1.574 . S
C3110 C3126 1.368 . S
H3111 C3119 0.950 . S
H3112 C3117 0.950 . S
H3113 C3118 0.949 . S
H3114 C3120 0.950 . S
H3115 C3121 0.950 . S
H3116 C3122 0.949 . S
C3117 H3112 0.950 . S
C3117 C3119 1.327 . S
C3117 C3123 1.429 . S
C3118 C3110 1.574 . S
C3118 H3113 0.949 . S
C3118 C3124 1.368 . S
C3119 C3103 1.349 . S
C3119 H3111 0.950 . S
C3119 C3117 1.327 . S
C3120 C3108 1.349 . S
C3120 H3114 0.950 . S
C3120 C3121 1.327 . S
C3121 H3115 0.950 . S
C3121 C3120 1.327 . S
C3121 C3125 1.429 . S
C3122 C3105 1.574 . S
C3122 H3116 0.949 . S
C3122 C3126 1.368 . S
C3123 C3104 1.429 . S
C3123 C3117 1.429 . S
C3123 C3124 1.523 . S
C3124 C3105 1.368 . S
C3124 C3118 1.368 . S
C3124 C3123 1.523 . S
C3125 C3109 1.429 . S
C3125 C3121 1.429 . S
C3125 C3126 1.523 . S
C3126 C3110 1.368 . S
C3126 C3122 1.368 . S
C3126 C3125 1.523 . S
H3127 C3102 0.950 . S
H3128 C3104 0.950 . S
H3129 C3105 0.949 . S
H3130 C3107 0.950 . S
H3131 C3109 0.950 . S
C3132 C3133 1.349 . S
C3132 C3134 1.327 . S
C3132 H3157 0.950 . S
C3133 C3132 1.349 . S
C3133 C3149 1.349 . S
C3134 C3132 1.327 . S
C3134 C3153 1.429 . S
C3134 H3158 0.950 . S
C3135 C3152 1.574 . S
C3135 C3154 1.368 . S
C3135 H3159 0.949 . S
H3136 C3140 0.949 . S
C3137 C3138 1.349 . S
C3137 C3139 1.327 . S
C3137 H3160 0.950 . S
C3138 C3137 1.349 . S
C3138 C3150 1.349 . S
C3139 C3137 1.327 . S
C3139 C3155 1.429 . S
C3139 H3161 0.950 . S
C3140 H3136 0.949 . S
C3140 C3148 1.574 . S
C3140 C3156 1.368 . S
H3141 C3149 0.950 . S
H3142 C3147 0.950 . S
H3143 C3148 0.949 . S
H3144 C3150 0.950 . S
H3145 C3151 0.950 . S
H3146 C3152 0.949 . S
C3147 H3142 0.950 . S
C3147 C3149 1.327 . S
C3147 C3153 1.429 . S
C3148 C3140 1.574 . S
C3148 H3143 0.949 . S
C3148 C3154 1.368 . S
C3149 C3133 1.349 . S
C3149 H3141 0.950 . S
C3149 C3147 1.327 . S
C3150 C3138 1.349 . S
C3150 H3144 0.950 . S
C3150 C3151 1.327 . S
C3151 H3145 0.950 . S
C3151 C3150 1.327 . S
C3151 C3155 1.429 . S
C3152 C3135 1.574 . S
C3152 H3146 0.949 . S
C3152 C3156 1.368 . S
C3153 C3134 1.429 . S
C3153 C3147 1.429 . S
C3153 C3154 1.523 . S
C3154 C3135 1.368 . S
C3154 C3148 1.368 . S
C3154 C3153 1.523 . S
C3155 C3139 1.429 . S
C3155 C3151 1.429 . S
C3155 C3156 1.523 . S
C3156 C3140 1.368 . S
C3156 C3152 1.368 . S
C3156 C3155 1.523 . S
H3157 C3132 0.950 . S
H3158 C3134 0.950 . S
H3159 C3135 0.949 . S
H3160 C3137 0.950 . S
H3161 C3139 0.950 . S
C3162 C3163 1.349 . S
C3162 C3164 1.327 . S
C3162 H3187 0.950 . S
C3163 C3162 1.349 . S
C3163 C3179 1.349 . S
C3164 C3162 1.327 . S
C3164 C3183 1.429 . S
C3164 H3188 0.950 . S
C3165 C3182 1.574 . S
C3165 C3184 1.368 . S
C3165 H3189 0.949 . S
H3166 C3170 0.949 . S
C3167 C3168 1.349 . S
C3167 C3169 1.327 . S
C3167 H3190 0.950 . S
C3168 C3167 1.349 . S
C3168 C3180 1.349 . S
C3169 C3167 1.327 . S
C3169 C3185 1.429 . S
C3169 H3191 0.950 . S
C3170 H3166 0.949 . S
C3170 C3178 1.574 . S
C3170 C3186 1.368 . S
H3171 C3179 0.950 . S
H3172 C3177 0.950 . S
H3173 C3178 0.949 . S
H3174 C3180 0.950 . S
H3175 C3181 0.950 . S
H3176 C3182 0.949 . S
C3177 H3172 0.950 . S
C3177 C3179 1.327 . S
C3177 C3183 1.429 . S
C3178 C3170 1.574 . S
C3178 H3173 0.949 . S
C3178 C3184 1.368 . S
C3179 C3163 1.349 . S
C3179 H3171 0.950 . S
C3179 C3177 1.327 . S
C3180 C3168 1.349 . S
C3180 H3174 0.950 . S
C3180 C3181 1.327 . S
C3181 H3175 0.950 . S
C3181 C3180 1.327 . S
C3181 C3185 1.429 . S
C3182 C3165 1.574 . S
C3182 H3176 0.949 . S
C3182 C3186 1.368 . S
C3183 C3164 1.429 . S
C3183 C3177 1.429 . S
C3183 C3184 1.523 . S
C3184 C3165 1.368 . S
C3184 C3178 1.368 . S
C3184 C3183 1.523 . S
C3185 C3169 1.429 . S
C3185 C3181 1.429 . S
C3185 C3186 1.523 . S
C3186 C3170 1.368 . S
C3186 C3182 1.368 . S
C3186 C3185 1.523 . S
H3187 C3162 0.950 . S
H3188 C3164 0.950 . S
H3189 C3165 0.949 . S
H3190 C3167 0.950 . S
H3191 C3169 0.950 . S
C3192 C3193 1.349 . S
C3192 C3194 1.327 . S
C3192 H3217 0.950 . S
C3193 C3192 1.349 . S
C3193 C3209 1.349 . S
C3194 C3192 1.327 . S
C3194 C3213 1.429 . S
C3194 H3218 0.950 . S
C3195 C3212 1.574 . S
C3195 C3214 1.368 . S
C3195 H3219 0.949 . S
H3196 C3200 0.949 . S
C3197 C3198 1.349 . S
C3197 C3199 1.327 . S
C3197 H3220 0.950 . S
C3198 C3197 1.349 . S
C3198 C3210 1.349 . S
C3199 C3197 1.327 . S
C3199 C3215 1.429 . S
C3199 H3221 0.950 . S
C3200 H3196 0.949 . S
C3200 C3208 1.574 . S
C3200 C3216 1.368 . S
H3201 C3209 0.950 . S
H3202 C3207 0.950 . S
H3203 C3208 0.949 . S
H3204 C3210 0.950 . S
H3205 C3211 0.950 . S
H3206 C3212 0.949 . S
C3207 H3202 0.950 . S
C3207 C3209 1.327 . S
C3207 C3213 1.429 . S
C3208 C3200 1.574 . S
C3208 H3203 0.949 . S
C3208 C3214 1.368 . S
C3209 C3193 1.349 . S
C3209 H3201 0.950 . S
C3209 C3207 1.327 . S
C3210 C3198 1.349 . S
C3210 H3204 0.950 . S
C3210 C3211 1.327 . S
C3211 H3205 0.950 . S
C3211 C3210 1.327 . S
C3211 C3215 1.429 . S
C3212 C3195 1.574 . S
C3212 H3206 0.949 . S
C3212 C3216 1.368 . S
C3213 C3194 1.429 . S
C3213 C3207 1.429 . S
C3213 C3214 1.523 . S
C3214 C3195 1.368 . S
C3214 C3208 1.368 . S
C3214 C3213 1.523 . S
C3215 C3199 1.429 . S
C3215 C3211 1.429 . S
C3215 C3216 1.523 . S
C3216 C3200 1.368 . S
C3216 C3212 1.368 . S
C3216 C3215 1.523 . S
H3217 C3192 0.950 . S
H3218 C3194 0.950 . S
H3219 C3195 0.949 . S
H3220 C3197 0.950 . S
H3221 C3199 0.950 . S
C3222 C3223 1.349 1_554 S
C3222 C3224 1.327 1_554 S
C3222 H3247 0.950 . S
C3223 C3222 1.349 1_556 S
C3223 C3239 1.349 . S
C3224 C3222 1.327 1_556 S
C3224 C3243 1.429 . S
C3224 H3248 0.950 1_556 S
C3225 C3242 1.574 . S
C3225 C3244 1.368 . S
C3225 H3249 0.949 . S
H3226 C3230 0.949 . S
C3227 C3228 1.349 . S
C3227 C3229 1.327 . S
C3227 H3250 0.950 . S
C3228 C3227 1.349 . S
C3228 C3240 1.349 . S
C3229 C3227 1.327 . S
C3229 C3245 1.429 . S
C3229 H3251 0.950 . S
C3230 H3226 0.949 . S
C3230 C3238 1.574 . S
C3230 C3246 1.368 . S
H3231 C3239 0.950 . S
H3232 C3237 0.950 . S
H3233 C3238 0.949 . S
H3234 C3240 0.950 . S
H3235 C3241 0.950 . S
H3236 C3242 0.949 . S
C3237 H3232 0.950 . S
C3237 C3239 1.327 . S
C3237 C3243 1.429 . S
C3238 C3230 1.574 . S
C3238 H3233 0.949 . S
C3238 C3244 1.368 . S
C3239 C3223 1.349 . S
C3239 H3231 0.950 . S
C3239 C3237 1.327 . S
C3240 C3228 1.349 . S
C3240 H3234 0.950 . S
C3240 C3241 1.327 . S
C3241 H3235 0.950 . S
C3241 C3240 1.327 . S
C3241 C3245 1.429 . S
C3242 C3225 1.574 . S
C3242 H3236 0.949 . S
C3242 C3246 1.368 . S
C3243 C3224 1.429 . S
C3243 C3237 1.429 . S
C3243 C3244 1.523 . S
C3244 C3225 1.368 . S
C3244 C3238 1.368 . S
C3244 C3243 1.523 . S
C3245 C3229 1.429 . S
C3245 C3241 1.429 . S
C3245 C3246 1.523 . S
C3246 C3230 1.368 . S
C3246 C3242 1.368 . S
C3246 C3245 1.523 . S
H3247 C3222 0.950 . S
H3248 C3224 0.950 1_554 S
H3249 C3225 0.949 . S
H3250 C3227 0.950 . S
H3251 C3229 0.950 . S
C3252 C3253 1.349 . S
C3252 C3254 1.327 . S
C3252 H3277 0.950 . S
C3253 C3252 1.349 . S
C3253 C3269 1.349 . S
C3254 C3252 1.327 . S
C3254 C3273 1.429 . S
C3254 H3278 0.950 . S
C3255 C3272 1.574 . S
C3255 C3274 1.368 . S
C3255 H3279 0.949 . S
H3256 C3260 0.949 . S
C3257 C3258 1.349 . S
C3257 C3259 1.327 . S
C3257 H3280 0.950 . S
C3258 C3257 1.349 . S
C3258 C3270 1.349 . S
C3259 C3257 1.327 . S
C3259 C3275 1.429 . S
C3259 H3281 0.950 . S
C3260 H3256 0.949 . S
C3260 C3268 1.574 . S
C3260 C3276 1.368 . S
H3261 C3269 0.950 . S
H3262 C3267 0.950 . S
H3263 C3268 0.949 . S
H3264 C3270 0.950 . S
H3265 C3271 0.950 . S
H3266 C3272 0.949 . S
C3267 H3262 0.950 . S
C3267 C3269 1.327 . S
C3267 C3273 1.429 . S
C3268 C3260 1.574 . S
C3268 H3263 0.949 . S
C3268 C3274 1.368 . S
C3269 C3253 1.349 . S
C3269 H3261 0.950 . S
C3269 C3267 1.327 . S
C3270 C3258 1.349 . S
C3270 H3264 0.950 . S
C3270 C3271 1.327 . S
C3271 H3265 0.950 . S
C3271 C3270 1.327 . S
C3271 C3275 1.429 . S
C3272 C3255 1.574 . S
C3272 H3266 0.949 . S
C3272 C3276 1.368 . S
C3273 C3254 1.429 . S
C3273 C3267 1.429 . S
C3273 C3274 1.523 . S
C3274 C3255 1.368 . S
C3274 C3268 1.368 . S
C3274 C3273 1.523 . S
C3275 C3259 1.429 . S
C3275 C3271 1.429 . S
C3275 C3276 1.523 . S
C3276 C3260 1.368 . S
C3276 C3272 1.368 . S
C3276 C3275 1.523 . S
H3277 C3252 0.950 . S
H3278 C3254 0.950 . S
H3279 C3255 0.949 . S
H3280 C3257 0.950 . S
H3281 C3259 0.950 . S
C3282 C3283 1.349 . S
C3282 C3284 1.327 . S
C3282 H3307 0.950 . S
C3283 C3282 1.349 . S
C3283 C3299 1.349 . S
C3284 C3282 1.327 . S
C3284 C3303 1.429 . S
C3284 H3308 0.950 . S
C3285 C3302 1.574 . S
C3285 C3304 1.368 . S
C3285 H3309 0.949 . S
H3286 C3290 0.949 . S
C3287 C3288 1.349 . S
C3287 C3289 1.327 . S
C3287 H3310 0.950 . S
C3288 C3287 1.349 . S
C3288 C3300 1.349 . S
C3289 C3287 1.327 . S
C3289 C3305 1.429 . S
C3289 H3311 0.950 . S
C3290 H3286 0.949 . S
C3290 C3298 1.574 . S
C3290 C3306 1.368 . S
H3291 C3299 0.950 . S
H3292 C3297 0.950 . S
H3293 C3298 0.949 . S
H3294 C3300 0.950 . S
H3295 C3301 0.950 . S
H3296 C3302 0.949 . S
C3297 H3292 0.950 . S
C3297 C3299 1.327 . S
C3297 C3303 1.429 . S
C3298 C3290 1.574 . S
C3298 H3293 0.949 . S
C3298 C3304 1.368 . S
C3299 C3283 1.349 . S
C3299 H3291 0.950 . S
C3299 C3297 1.327 . S
C3300 C3288 1.349 . S
C3300 H3294 0.950 . S
C3300 C3301 1.327 . S
C3301 H3295 0.950 . S
C3301 C3300 1.327 . S
C3301 C3305 1.429 . S
C3302 C3285 1.574 . S
C3302 H3296 0.949 . S
C3302 C3306 1.368 . S
C3303 C3284 1.429 . S
C3303 C3297 1.429 . S
C3303 C3304 1.523 . S
C3304 C3285 1.368 . S
C3304 C3298 1.368 . S
C3304 C3303 1.523 . S
C3305 C3289 1.429 . S
C3305 C3301 1.429 . S
C3305 C3306 1.523 . S
C3306 C3290 1.368 . S
C3306 C3302 1.368 . S
C3306 C3305 1.523 . S
H3307 C3282 0.950 . S
H3308 C3284 0.950 . S
H3309 C3285 0.949 . S
H3310 C3287 0.950 . S
H3311 C3289 0.950 . S
C3312 C3313 1.349 . S
C3312 C3314 1.327 . S
C3312 H3337 0.950 . S
C3313 C3312 1.349 . S
C3313 C3329 1.349 . S
C3314 C3312 1.327 . S
C3314 C3333 1.429 . S
C3314 H3338 0.950 . S
C3315 C3332 1.574 . S
C3315 C3334 1.368 . S
C3315 H3339 0.949 . S
H3316 C3320 0.949 . S
C3317 C3318 1.349 . S
C3317 C3319 1.327 . S
C3317 H3340 0.950 . S
C3318 C3317 1.349 . S
C3318 C3330 1.349 . S
C3319 C3317 1.327 . S
C3319 C3335 1.429 . S
C3319 H3341 0.950 . S
C3320 H3316 0.949 . S
C3320 C3328 1.574 . S
C3320 C3336 1.368 . S
H3321 C3329 0.950 . S
H3322 C3327 0.950 . S
H3323 C3328 0.949 . S
H3324 C3330 0.950 . S
H3325 C3331 0.950 . S
H3326 C3332 0.949 . S
C3327 H3322 0.950 . S
C3327 C3329 1.327 . S
C3327 C3333 1.429 . S
C3328 C3320 1.574 . S
C3328 H3323 0.949 . S
C3328 C3334 1.368 . S
C3329 C3313 1.349 . S
C3329 H3321 0.950 . S
C3329 C3327 1.327 . S
C3330 C3318 1.349 . S
C3330 H3324 0.950 . S
C3330 C3331 1.327 . S
C3331 H3325 0.950 . S
C3331 C3330 1.327 . S
C3331 C3335 1.429 . S
C3332 C3315 1.574 . S
C3332 H3326 0.949 . S
C3332 C3336 1.368 . S
C3333 C3314 1.429 . S
C3333 C3327 1.429 . S
C3333 C3334 1.523 . S
C3334 C3315 1.368 . S
C3334 C3328 1.368 . S
C3334 C3333 1.523 . S
C3335 C3319 1.429 . S
C3335 C3331 1.429 . S
C3335 C3336 1.523 . S
C3336 C3320 1.368 . S
C3336 C3332 1.368 . S
C3336 C3335 1.523 . S
H3337 C3312 0.950 . S
H3338 C3314 0.950 . S
H3339 C3315 0.949 . S
H3340 C3317 0.950 . S
H3341 C3319 0.950 . S
C3342 C3343 1.349 . S
C3342 C3344 1.327 . S
C3342 H3367 0.950 . S
C3343 C3342 1.349 . S
C3343 C3359 1.349 . S
C3344 C3342 1.327 . S
C3344 C3363 1.429 . S
C3344 H3368 0.950 . S
C3345 C3362 1.574 . S
C3345 C3364 1.368 . S
C3345 H3369 0.949 . S
H3346 C3350 0.949 . S
C3347 C3348 1.349 . S
C3347 C3349 1.327 . S
C3347 H3370 0.950 . S
C3348 C3347 1.349 . S
C3348 C3360 1.349 . S
C3349 C3347 1.327 . S
C3349 C3365 1.429 . S
C3349 H3371 0.950 . S
C3350 H3346 0.949 . S
C3350 C3358 1.574 . S
C3350 C3366 1.368 . S
H3351 C3359 0.950 . S
H3352 C3357 0.950 . S
H3353 C3358 0.949 . S
H3354 C3360 0.950 . S
H3355 C3361 0.950 . S
H3356 C3362 0.949 . S
C3357 H3352 0.950 . S
C3357 C3359 1.327 . S
C3357 C3363 1.429 . S
C3358 C3350 1.574 . S
C3358 H3353 0.949 . S
C3358 C3364 1.368 . S
C3359 C3343 1.349 . S
C3359 H3351 0.950 . S
C3359 C3357 1.327 . S
C3360 C3348 1.349 . S
C3360 H3354 0.950 . S
C3360 C3361 1.327 . S
C3361 H3355 0.950 . S
C3361 C3360 1.327 . S
C3361 C3365 1.429 . S
C3362 C3345 1.574 . S
C3362 H3356 0.949 . S
C3362 C3366 1.368 . S
C3363 C3344 1.429 . S
C3363 C3357 1.429 . S
C3363 C3364 1.523 . S
C3364 C3345 1.368 . S
C3364 C3358 1.368 . S
C3364 C3363 1.523 . S
C3365 C3349 1.429 . S
C3365 C3361 1.429 . S
C3365 C3366 1.523 . S
C3366 C3350 1.368 . S
C3366 C3362 1.368 . S
C3366 C3365 1.523 . S
H3367 C3342 0.950 . S
H3368 C3344 0.950 . S
H3369 C3345 0.949 . S
H3370 C3347 0.950 . S
H3371 C3349 0.950 . S
C3372 C3373 1.349 . S
C3372 C3374 1.327 . S
C3372 H3397 0.950 . S
C3373 C3372 1.349 . S
C3373 C3389 1.349 . S
C3374 C3372 1.327 . S
C3374 C3393 1.429 . S
C3374 H3398 0.950 . S
C3375 C3392 1.574 . S
C3375 C3394 1.368 . S
C3375 H3399 0.949 . S
H3376 C3380 0.949 . S
C3377 C3378 1.349 . S
C3377 C3379 1.327 . S
C3377 H3400 0.950 . S
C3378 C3377 1.349 . S
C3378 C3390 1.349 . S
C3379 C3377 1.327 . S
C3379 C3395 1.429 . S
C3379 H3401 0.950 . S
C3380 H3376 0.949 . S
C3380 C3388 1.574 . S
C3380 C3396 1.368 . S
H3381 C3389 0.950 . S
H3382 C3387 0.950 . S
H3383 C3388 0.949 . S
H3384 C3390 0.950 . S
H3385 C3391 0.950 . S
H3386 C3392 0.949 . S
C3387 H3382 0.950 . S
C3387 C3389 1.327 . S
C3387 C3393 1.429 . S
C3388 C3380 1.574 . S
C3388 H3383 0.949 . S
C3388 C3394 1.368 . S
C3389 C3373 1.349 . S
C3389 H3381 0.950 . S
C3389 C3387 1.327 . S
C3390 C3378 1.349 . S
C3390 H3384 0.950 . S
C3390 C3391 1.327 . S
C3391 H3385 0.950 . S
C3391 C3390 1.327 . S
C3391 C3395 1.429 . S
C3392 C3375 1.574 . S
C3392 H3386 0.949 . S
C3392 C3396 1.368 . S
C3393 C3374 1.429 . S
C3393 C3387 1.429 . S
C3393 C3394 1.523 . S
C3394 C3375 1.368 . S
C3394 C3388 1.368 . S
C3394 C3393 1.523 . S
C3395 C3379 1.429 . S
C3395 C3391 1.429 . S
C3395 C3396 1.523 . S
C3396 C3380 1.368 . S
C3396 C3392 1.368 . S
C3396 C3395 1.523 . S
H3397 C3372 0.950 . S
H3398 C3374 0.950 . S
H3399 C3375 0.949 . S
H3400 C3377 0.950 . S
H3401 C3379 0.950 . S
C3402 C3403 1.349 . S
C3402 C3404 1.327 . S
C3402 H3427 0.950 . S
C3403 C3402 1.349 . S
C3403 C3419 1.349 . S
C3404 C3402 1.327 . S
C3404 C3423 1.429 . S
C3404 H3428 0.950 . S
C3405 C3422 1.574 . S
C3405 C3424 1.368 . S
C3405 H3429 0.949 . S
H3406 C3410 0.949 . S
C3407 C3408 1.349 . S
C3407 C3409 1.327 . S
C3407 H3430 0.950 . S
C3408 C3407 1.349 . S
C3408 C3420 1.349 . S
C3409 C3407 1.327 . S
C3409 C3425 1.429 . S
C3409 H3431 0.950 . S
C3410 H3406 0.949 . S
C3410 C3418 1.574 . S
C3410 C3426 1.368 . S
H3411 C3419 0.950 . S
H3412 C3417 0.950 . S
H3413 C3418 0.949 . S
H3414 C3420 0.950 . S
H3415 C3421 0.950 . S
H3416 C3422 0.949 . S
C3417 H3412 0.950 . S
C3417 C3419 1.327 . S
C3417 C3423 1.429 . S
C3418 C3410 1.574 . S
C3418 H3413 0.949 . S
C3418 C3424 1.368 . S
C3419 C3403 1.349 . S
C3419 H3411 0.950 . S
C3419 C3417 1.327 . S
C3420 C3408 1.349 . S
C3420 H3414 0.950 . S
C3420 C3421 1.327 . S
C3421 H3415 0.950 . S
C3421 C3420 1.327 . S
C3421 C3425 1.429 . S
C3422 C3405 1.574 . S
C3422 H3416 0.949 . S
C3422 C3426 1.368 . S
C3423 C3404 1.429 . S
C3423 C3417 1.429 . S
C3423 C3424 1.523 . S
C3424 C3405 1.368 . S
C3424 C3418 1.368 . S
C3424 C3423 1.523 . S
C3425 C3409 1.429 . S
C3425 C3421 1.429 . S
C3425 C3426 1.523 . S
C3426 C3410 1.368 . S
C3426 C3422 1.368 . S
C3426 C3425 1.523 . S
H3427 C3402 0.950 . S
H3428 C3404 0.950 . S
H3429 C3405 0.949 . S
H3430 C3407 0.950 . S
H3431 C3409 0.950 . S
C3432 C3433 1.349 . S
C3432 C3434 1.327 . S
C3432 H3457 0.950 . S
C3433 C3432 1.349 . S
C3433 C3449 1.349 . S
C3434 C3432 1.327 . S
C3434 C3453 1.429 . S
C3434 H3458 0.950 . S
C3435 C3452 1.574 . S
C3435 C3454 1.368 . S
C3435 H3459 0.949 . S
H3436 C3440 0.949 . S
C3437 C3438 1.349 . S
C3437 C3439 1.327 . S
C3437 H3460 0.950 . S
C3438 C3437 1.349 . S
C3438 C3450 1.349 . S
C3439 C3437 1.327 . S
C3439 C3455 1.429 . S
C3439 H3461 0.950 . S
C3440 H3436 0.949 . S
C3440 C3448 1.574 . S
C3440 C3456 1.368 . S
H3441 C3449 0.950 . S
H3442 C3447 0.950 . S
H3443 C3448 0.949 . S
H3444 C3450 0.950 . S
H3445 C3451 0.950 . S
H3446 C3452 0.949 . S
C3447 H3442 0.950 . S
C3447 C3449 1.327 . S
C3447 C3453 1.429 . S
C3448 C3440 1.574 . S
C3448 H3443 0.949 . S
C3448 C3454 1.368 . S
C3449 C3433 1.349 . S
C3449 H3441 0.950 . S
C3449 C3447 1.327 . S
C3450 C3438 1.349 . S
C3450 H3444 0.950 . S
C3450 C3451 1.327 . S
C3451 H3445 0.950 . S
C3451 C3450 1.327 . S
C3451 C3455 1.429 . S
C3452 C3435 1.574 . S
C3452 H3446 0.949 . S
C3452 C3456 1.368 . S
C3453 C3434 1.429 . S
C3453 C3447 1.429 . S
C3453 C3454 1.523 . S
C3454 C3435 1.368 . S
C3454 C3448 1.368 . S
C3454 C3453 1.523 . S
C3455 C3439 1.429 . S
C3455 C3451 1.429 . S
C3455 C3456 1.523 . S
C3456 C3440 1.368 . S
C3456 C3452 1.368 . S
C3456 C3455 1.523 . S
H3457 C3432 0.950 . S
H3458 C3434 0.950 . S
H3459 C3435 0.949 . S
H3460 C3437 0.950 . S
H3461 C3439 0.950 . S
C3462 C3463 1.349 1_554 S
C3462 C3464 1.316 1_554 S
C3462 H3487 0.950 . S
C3463 C3462 1.349 1_556 S
C3463 C3479 1.349 . S
C3464 C3462 1.316 1_556 S
C3464 C3483 1.457 . S
C3464 H3488 0.932 1_556 S
C3465 C3482 1.574 . S
C3465 C3484 1.368 . S
C3465 H3489 0.949 . S
H3466 C3470 0.949 . S
C3467 C3468 1.349 . S
C3467 C3469 1.327 . S
C3467 H3490 0.950 . S
C3468 C3467 1.349 . S
C3468 C3480 1.349 . S
C3469 C3467 1.327 . S
C3469 C3485 1.429 . S
C3469 H3491 0.950 . S
C3470 H3466 0.949 . S
C3470 C3478 1.574 . S
C3470 C3486 1.368 . S
H3471 C3479 0.950 . S
H3472 C3477 0.950 . S
H3473 C3478 0.949 . S
H3474 C3480 0.950 . S
H3475 C3481 0.950 . S
H3476 C3482 0.949 . S
C3477 H3472 0.950 . S
C3477 C3479 1.327 . S
C3477 C3483 1.429 . S
C3478 C3470 1.574 . S
C3478 H3473 0.949 . S
C3478 C3484 1.368 . S
C3479 C3463 1.349 . S
C3479 H3471 0.950 . S
C3479 C3477 1.327 . S
C3480 C3468 1.349 . S
C3480 H3474 0.950 . S
C3480 C3481 1.327 . S
C3481 H3475 0.950 . S
C3481 C3480 1.327 . S
C3481 C3485 1.429 . S
C3482 C3465 1.574 . S
C3482 H3476 0.949 . S
C3482 C3486 1.368 . S
C3483 C3464 1.457 . S
C3483 C3477 1.429 . S
C3483 C3484 1.523 . S
C3484 C3465 1.368 . S
C3484 C3478 1.368 . S
C3484 C3483 1.523 . S
C3485 C3469 1.429 . S
C3485 C3481 1.429 . S
C3485 C3486 1.523 . S
C3486 C3470 1.368 . S
C3486 C3482 1.368 . S
C3486 C3485 1.523 . S
H3487 C3462 0.950 . S
H3488 C3464 0.932 1_554 S
H3489 C3465 0.949 . S
H3490 C3467 0.950 . S
H3491 C3469 0.950 . S
C3492 C3493 1.349 . S
C3492 C3494 1.327 . S
C3492 H3517 0.950 . S
C3493 C3492 1.349 . S
C3493 C3509 1.349 . S
C3494 C3492 1.327 . S
C3494 C3513 1.429 . S
C3494 H3518 0.950 . S
C3495 C3512 1.574 . S
C3495 C3514 1.368 . S
C3495 H3519 0.949 . S
H3496 C3500 0.949 . S
C3497 C3498 1.349 . S
C3497 C3499 1.327 . S
C3497 H3520 0.950 . S
C3498 C3497 1.349 . S
C3498 C3510 1.349 . S
C3499 C3497 1.327 . S
C3499 C3515 1.429 . S
C3499 H3521 0.950 . S
C3500 H3496 0.949 . S
C3500 C3508 1.574 . S
C3500 C3516 1.368 . S
H3501 C3509 0.950 1_545 S
H3502 C3507 0.950 1_545 S
H3503 C3508 0.949 . S
H3504 C3510 0.950 . S
H3505 C3511 0.950 . S
H3506 C3512 0.949 . S
C3507 H3502 0.950 1_565 S
C3507 C3509 1.327 . S
C3507 C3513 1.429 . S
C3508 C3500 1.574 . S
C3508 H3503 0.949 . S
C3508 C3514 1.368 . S
C3509 C3493 1.349 . S
C3509 H3501 0.950 1_565 S
C3509 C3507 1.327 . S
C3510 C3498 1.349 . S
C3510 H3504 0.950 . S
C3510 C3511 1.327 . S
C3511 H3505 0.950 . S
C3511 C3510 1.327 . S
C3511 C3515 1.429 . S
C3512 C3495 1.574 . S
C3512 H3506 0.949 . S
C3512 C3516 1.368 . S
C3513 C3494 1.429 . S
C3513 C3507 1.429 . S
C3513 C3514 1.523 . S
C3514 C3495 1.368 . S
C3514 C3508 1.368 . S
C3514 C3513 1.523 . S
C3515 C3499 1.429 . S
C3515 C3511 1.429 . S
C3515 C3516 1.523 . S
C3516 C3500 1.368 . S
C3516 C3512 1.368 . S
C3516 C3515 1.523 . S
H3517 C3492 0.950 . S
H3518 C3494 0.950 . S
H3519 C3495 0.949 . S
H3520 C3497 0.950 . S
H3521 C3499 0.950 . S
C3522 C3523 1.349 . S
C3522 C3524 1.327 . S
C3522 H3547 0.950 . S
C3523 C3522 1.349 . S
C3523 C3539 1.349 . S
C3524 C3522 1.327 . S
C3524 C3543 1.429 . S
C3524 H3548 0.950 . S
C3525 C3542 1.574 . S
C3525 C3544 1.368 . S
C3525 H3549 0.949 . S
H3526 C3530 0.949 . S
C3527 C3528 1.349 . S
C3527 C3529 1.289 1_655 S
C3527 H3550 0.950 . S
C3528 C3527 1.349 . S
C3528 C3540 1.349 . S
C3529 C3527 1.289 1_455 S
C3529 C3545 1.436 . S
C3529 H3551 0.982 . S
C3530 H3526 0.949 . S
C3530 C3538 1.574 . S
C3530 C3546 1.368 . S
H3531 C3539 0.950 . S
H3532 C3537 0.950 . S
H3533 C3538 0.949 . S
H3534 C3540 0.950 . S
H3535 C3541 0.950 . S
H3536 C3542 0.949 . S
C3537 H3532 0.950 . S
C3537 C3539 1.327 . S
C3537 C3543 1.429 . S
C3538 C3530 1.574 . S
C3538 H3533 0.949 . S
C3538 C3544 1.368 . S
C3539 C3523 1.349 . S
C3539 H3531 0.950 . S
C3539 C3537 1.327 . S
C3540 C3528 1.349 . S
C3540 H3534 0.950 . S
C3540 C3541 1.327 . S
C3541 H3535 0.950 . S
C3541 C3540 1.327 . S
C3541 C3545 1.429 1_655 S
C3542 C3525 1.574 . S
C3542 H3536 0.949 . S
C3542 C3546 1.368 . S
C3543 C3524 1.429 . S
C3543 C3537 1.429 . S
C3543 C3544 1.523 . S
C3544 C3525 1.368 . S
C3544 C3538 1.368 . S
C3544 C3543 1.523 . S
C3545 C3529 1.436 . S
C3545 C3541 1.429 1_455 S
C3545 C3546 1.523 . S
C3546 C3530 1.368 . S
C3546 C3542 1.368 . S
C3546 C3545 1.523 . S
H3547 C3522 0.950 . S
H3548 C3524 0.950 . S
H3549 C3525 0.949 . S
H3550 C3527 0.950 . S
H3551 C3529 0.982 . S
C678 C352 0.990 . S
C673 C7 1.029 . S
C703 C23 1.576 . S
C708 C374 1.615 . S
C738 C396 0.941 . S
C733 C36 1.018 . S
C768 C413 1.328 . S
C763 C45 1.318 . S
C798 C371 1.595 . S
C793 C59 1.581 . S
C823 C78 0.896 . S
C828 C391 0.873 . S
C858 C416 1.203 . S
C853 C93 1.175 . S
C883 C105 1.230 . S
C888 C351 1.107 . S
C913 C115 1.433 . S
C918 C354 1.314 . S
C948 C373 1.161 . S
C943 C133 1.235 . S
C978 C395 1.207 . S
C973 C148 1.184 . S
C1008 C412 1.090 . S
C1003 C163 1.126 1_556 S
C1038 C370 0.910 . S
C1033 C121 0.936 . S
C1068 C393 0.880 . S
C1063 C134 0.937 . S
C1093 C147 1.115 . S
C1098 C415 1.048 . S
C1128 C350 1.165 . S
C1123 C157 1.147 . S
C1153 C175 1.431 . S
C1158 C353 1.430 . S
C1183 C191 0.759 . S
C1188 C435 0.755 . S
C1218 C455 1.181 . S
C1213 C199 1.175 . S
C1248 C480 1.009 . S
C1243 C218 1.165 . S
C1273 C231 1.499 . S
C1278 C349 1.445 . S
C1303 C241 1.382 . S
C1308 C394 1.328 . S
C1338 C477 1.156 . S
C1333 C205 1.303 . S
C1368 C438 0.744 . S
C1363 C260 0.737 . S
C1398 C496 0.842 . S
C1393 C22 0.860 . S
C1428 C521 1.535 . S
C1423 C9 1.516 . S
C1453 C49 0.982 . S
C1458 C538 0.943 . S
C1483 C31 0.926 . S
C1488 C560 0.927 . S
C1513 C101 1.602 . S
C1518 C518 1.601 . S
C1543 C91 1.083 . S
C1548 C543 0.960 . S
C1578 C563 1.172 . S
C1573 C79 1.141 . S
C1603 C64 1.004 . S
C1608 C501 0.918 . S
C1633 C274 0.830 . S
C1638 C498 0.796 . S
C1668 C520 1.286 . S
C1663 C213 1.354 . S
C1698 C540 1.248 . S
C1693 C233 1.383 . S
C1728 C559 1.123 . S
C1723 C189 1.205 . S
C1758 C517 0.868 . S
C1753 C273 0.903 . S
C1788 C542 0.828 . S
C1783 C219 0.824 . S
C1818 C562 0.682 . S
C1813 C227 0.656 . S
C1843 C190 1.116 . S
C1848 C500 1.114 . S
C1878 C497 1.134 . S
C1873 C289 1.118 . S
C1903 C162 0.713 . S
C1908 C582 0.734 . S
C1938 C602 1.133 . S
C1933 C301 1.144 . S
C1963 C129 1.277 . S
C1968 C627 1.087 . S
C1998 C499 1.216 . S
C1993 C149 1.246 . S
C2028 C539 1.225 . S
C2023 C315 1.238 . S
C2058 C624 1.029 . S
C2053 C302 1.218 . S
C2083 C325 0.652 . S
C2088 C585 0.713 . S
C2113 C35 0.949 . S
C2118 C646 0.918 . S
C2143 C51 1.363 . S
C2148 C437 1.409 . S
C2178 C459 0.958 . S
C2173 C8 1.037 . S
C2203 C17 1.076 . S
C2208 C476 1.086 . S
C2233 C87 1.278 . S
C2238 C434 1.290 . S
C2263 C106 0.914 . S
C2268 C454 0.889 . S
C2298 C479 1.068 . S
C2293 C65 1.040 . S
C2328 C645 1.049 . S
C2323 C77 1.151 . S
C2358 C648 1.051 . S
C2353 C297 1.162 . S
C2388 C436 0.925 . S
C2383 C287 0.969 . S
C2418 C458 1.242 . S
C2413 C330 1.218 . S
C2443 C317 1.093 . S
C2448 C475 1.065 . S
C2478 C433 0.823 . S
C2473 C303 0.835 . S
C2503 C288 0.958 . S
C2508 C456 0.892 . S
C2538 C478 0.842 . S
C2533 C329 0.871 . S
C2563 C311 0.960 . S
C2568 C644 0.970 . S
C2598 C647 1.155 . S
C2593 C217 1.150 . S
C2623 C247 0.637 . S
C2628 C372 0.697 . S
C2658 C392 1.255 . S
C2653 C269 1.249 . S
C2683 C176 1.112 . S
C2688 C417 0.977 . S
C2718 C643 1.198 . S
C2713 C259 1.237 . S
C2748 C457 1.264 . S
C2743 C185 1.315 . S
C2778 C414 1.041 . S
C2773 C275 1.169 . S
C2808 C375 0.712 . S
C2803 C232 0.673 . S
C2833 C50 0.730 . S
C2838 C664 0.734 . S
C2863 C37 1.581 . S
C2868 C584 1.608 . S
C2893 C21 1.121 . S
C2898 C606 0.997 . S
C2928 C623 1.029 . S
C2923 C3 1.027 . S
C2958 C581 1.510 . S
C2953 C73 1.513 . S
C2983 C63 0.987 . S
C2988 C601 0.945 . S
C3018 C626 1.110 . S
C3013 C107 1.087 . S
C3043 C92 1.062 . S
C3048 C669 0.945 . S
C3078 C666 0.810 . S
C3073 C204 0.850 . S
C3103 C171 1.064 . S
C3108 C583 1.013 . S
C3133 C261 1.144 . S
C3138 C605 1.169 . S
C3168 C622 1.030 . S
C3163 C245 1.102 . S
C3198 C580 1.008 . S
C3193 C203 1.068 . S
C3223 C177 1.047 1_556 S
C3228 C603 0.974 . S
C3258 C625 0.917 . S
C3253 C255 0.951 . S
C3288 C668 1.067 . S
C3283 C246 1.071 . S
C3318 C665 1.237 . S
C3313 C135 1.223 . S
C3348 C519 0.965 . S
C3343 C316 1.108 . S
C3373 C119 1.332 . S
C3378 C541 1.268 . S
C3403 C283 1.174 . S
C3408 C564 0.998 . S
C3438 C667 1.160 . S
C3433 C331 1.191 . S
C3468 C604 1.304 . S
C3463 C161 1.372 1_556 S
C3498 C561 0.843 . S
C3493 C120 0.940 . S
C3528 C522 0.765 . S
C3523 C143 0.781 . S
