# Generated by pormake.
# Topology pth, (4,4)-cn, num edge types: 1
# Building blocks:
#     Node 0, Type 0, BuildingBlock: QUQFOY_clean_sbu_3, # of connection points: 4
#     Node 1, Type 0, BuildingBlock: QUQFOY_clean_sbu_3, # of connection points: 4
#     Node 2, Type 0, BuildingBlock: QUQFOY_clean_sbu_3, # of connection points: 4
#     Node 3, Type 1, BuildingBlock: NAWXER_clean_sbu_0, # of connection points: 4
#     Node 4, Type 1, BuildingBlock: NAWXER_clean_sbu_0, # of connection points: 4
#     Node 5, Type 1, BuildingBlock: NAWXER_clean_sbu_0, # of connection points: 4
#     Edge 6, Type (0, 1), BuildingBlock: ZUJKAS_clean_linker_0, # of connection points: 2
#     Edge 7, Type (0, 1), BuildingBlock: ZUJKAS_clean_linker_0, # of connection points: 2
#     Edge 8, Type (0, 1), BuildingBlock: ZUJKAS_clean_linker_0, # of connection points: 2
#     Edge 9, Type (0, 1), BuildingBlock: ZUJKAS_clean_linker_0, # of connection points: 2
#     Edge 10, Type (0, 1), BuildingBlock: ZUJKAS_clean_linker_0, # of connection points: 2
#     Edge 11, Type (0, 1), BuildingBlock: ZUJKAS_clean_linker_0, # of connection points: 2
#     Edge 12, Type (0, 1), BuildingBlock: ZUJKAS_clean_linker_0, # of connection points: 2
#     Edge 13, Type (0, 1), BuildingBlock: ZUJKAS_clean_linker_0, # of connection points: 2
#     Edge 14, Type (0, 1), BuildingBlock: ZUJKAS_clean_linker_0, # of connection points: 2
#     Edge 15, Type (0, 1), BuildingBlock: ZUJKAS_clean_linker_0, # of connection points: 2
#     Edge 16, Type (0, 1), BuildingBlock: ZUJKAS_clean_linker_0, # of connection points: 2
#     Edge 17, Type (0, 1), BuildingBlock: ZUJKAS_clean_linker_0, # of connection points: 2
# Relax obj value: 0.004
# Max RMSD: 0.054
# Mean RMSD: 0.030
data_MOF--net-pth--node1-QUQFOY_clean_sbu_3--node2-NAWXER_clean_sbu_0--edge1-ZUJKAS_clean_linker_0
_symmetry_space_group_name_H-M    P1
_symmetry_Int_Tables_number       1
_symmetry_cell_setting            triclinic
loop_
_symmetry_equiv_pos_as_xyz
'x, y, z'
_cell_length_a     30.01419
_cell_length_b     29.81994
_cell_length_c     76.867873
_cell_angle_alpha  89.974448
_cell_angle_beta   90.773114
_cell_angle_gamma 120.74514
loop_
_atom_site_label
_atom_site_type_symbol
_atom_site_fract_x
_atom_site_fract_y
_atom_site_fract_z
_atom_type_partial_charge
C0 C 0.97825 0.13817 0.09644 0.0
O1 O 0.94732 0.12482 0.08348 0.0
Cd2 Cd 0.95643 0.08256 0.05854 0.0
O3 O 0.01264 0.12516 0.09714 0.0
Cd4 Cd 0.03977 0.07223 0.07997 0.0
C5 C 0.08589 0.16653 0.04975 0.0
O6 O 0.95589 0.00551 0.06784 0.0
O7 O 0.02344 0.01419 0.05509 0.0
O8 O 0.0371 0.02857 0.10694 0.0
C9 C 0.97464 0.98845 0.05676 0.0
O10 O 0.03838 0.14795 0.04556 0.0
C11 C 0.08094 0.03238 0.10544 0.0
O12 O 0.09851 0.14794 0.06256 0.0
O13 O 0.10715 0.05651 0.09218 0.0
C14 C 0.14289 0.11582 0.42672 0.0
O15 O 0.16404 0.14085 0.41295 0.0
Cd16 Cd 0.11898 0.15053 0.38874 0.0
O17 O 0.09394 0.09379 0.4286 0.0
Cd18 Cd 0.01763 0.08426 0.41174 0.0
C19 C 0.03604 0.02126 0.37831 0.0
O20 O 0.06082 0.17363 0.40107 0.0
O21 O 0.98611 0.12134 0.38946 0.0
O22 O 0.98078 0.09151 0.43906 0.0
C23 C 0.02463 0.16736 0.39085 0.0
O24 O 0.07396 0.06563 0.37407 0.0
C25 C 0.93653 0.05099 0.4366 0.0
O26 O 0.01074 0.01618 0.39208 0.0
O27 O 0.93017 0.02535 0.42268 0.0
C28 C 0.97489 0.12863 0.72537 0.0
O29 O 0.98393 0.15565 0.73914 0.0
Cd30 Cd 0.03194 0.15212 0.76369 0.0
O31 O 0.9926 0.09807 0.72369 0.0
Cd32 Cd 0.04583 0.07036 0.74064 0.0
C33 C 0.95427 0.02074 0.77185 0.0
O34 O 0.10836 0.15593 0.75307 0.0
O35 O 0.11078 0.08999 0.76342 0.0
O36 O 0.08163 0.06997 0.71236 0.0
C37 C 0.13028 0.13898 0.7631 0.0
O38 O 0.97164 0.06798 0.77639 0.0
C39 C 0.0836 0.029 0.71499 0.0
O40 O 0.97238 0.00976 0.75866 0.0
O41 O 0.06617 0.00583 0.72934 0.0
C42 C 0.0 0.6305 0.26298 0.0
C43 C 0.00172 0.51135 0.21984 0.0
O44 O 0.0457 0.63904 0.26008 0.0
Zn45 Zn 0.08197 0.60851 0.24387 0.0
O46 O 0.96147 0.59438 0.25463 0.0
Zn47 Zn 3e-05 0.57139 0.24107 0.0
O48 O 0.02738 0.53936 0.26067 0.0
O49 O 0.11297 0.58428 0.2608 0.0
O50 O 0.96284 0.51348 0.22507 0.0
O51 O 0.04713 0.54431 0.22578 0.0
O52 O 0.12663 0.66777 0.2295 0.0
O53 O 0.04343 0.63625 0.22414 0.0
C54 C 0.07083 0.54753 0.26688 0.0
C55 C 0.09102 0.66969 0.22101 0.0
C56 C 0.59476 0.08574 0.60013 0.0
C57 C 0.47302 0.07832 0.55605 0.0
O58 O 0.56002 0.03866 0.59611 0.0
Zn59 Zn 0.49525 -0.00018 0.57808 0.0
O60 O 0.59475 0.12362 0.59257 0.0
Zn61 Zn 0.53462 0.08253 0.578 0.0
O62 O 0.47288 0.04509 0.59643 0.0
O63 O 0.43706 0.95979 0.59314 0.0
O64 O 0.5111 0.11851 0.56303 0.0
O65 O 0.46372 0.03288 0.56047 0.0
O66 O 0.51701 0.96317 0.56271 0.0
O67 O 0.56317 0.04866 0.56001 0.0
C68 C 0.43863 -0.00154 0.60072 0.0
C69 C 0.55362 0.00318 0.55548 0.0
C70 C 0.46805 0.53813 0.93469 0.0
C71 C 0.57933 0.64331 0.88728 0.0
O72 O 0.46713 0.5752 0.92686 0.0
Zn73 Zn 0.52319 0.59191 0.91092 0.0
O74 O 0.50077 0.52499 0.93017 0.0
Zn75 Zn 0.56081 0.54734 0.91169 0.0
O76 O 0.62112 0.56918 0.92665 0.0
O77 O 0.59048 0.62259 0.92745 0.0
O78 O 0.58861 0.60794 0.89248 0.0
O79 O 0.54419 0.6482 0.89455 0.0
O80 O 0.49046 0.52517 0.89407 0.0
O81 O 0.53468 0.48506 0.8974 0.0
C82 C 0.62412 0.61068 0.93234 0.0
C83 C 0.49794 0.48783 0.89005 0.0
H84 H 0.90379 0.16398 0.10105 0.0
H85 H 0.90351 0.22402 0.12269 0.0
H86 H 0.04681 0.2478 0.14478 0.0
H87 H 0.04748 0.1876 0.12328 0.0
H88 H 0.91529 0.2215 0.16282 0.0
H89 H 0.06896 0.39626 0.12879 0.0
H90 H 0.02865 0.33453 0.11779 0.0
H91 H 0.07982 0.34283 0.13222 0.0
C92 C 0.93508 0.1816 0.11059 0.0
C93 C 0.97585 0.17121 0.11036 0.0
C94 C 0.93473 0.21578 0.12295 0.0
C95 C 0.97531 0.24047 0.13518 0.0
C96 C 0.01532 0.22921 0.13534 0.0
H97 H 0.07494 0.48866 0.21007 0.0
H98 H 0.06515 0.42121 0.18984 0.0
C99 C 0.01554 0.19474 0.12307 0.0
C100 C 0.97698 0.27966 0.14734 0.0
H101 H 0.04102 0.41052 0.15562 0.0
C102 C 0.94257 0.26288 0.16128 0.0
C103 C 0.01263 0.33342 0.14519 0.0
C104 C 0.04953 0.35322 0.13015 0.0
C105 C 0.94386 0.29864 0.17348 0.0
C106 C 0.97967 0.35259 0.17135 0.0
C107 C 0.01359 0.3692 0.15724 0.0
C108 C 0.98424 0.39252 0.18393 0.0
C109 C 0.90809 0.27819 0.1888 0.0
C110 C 0.94204 0.39915 0.18726 0.0
C111 C 0.9474 0.43763 0.19897 0.0
C112 C 0.99529 0.47058 0.20735 0.0
C113 C 0.03753 0.4641 0.20382 0.0
C114 C 0.03202 0.42549 0.19225 0.0
H115 H 0.89319 0.23603 0.19096 0.0
H116 H 0.92809 0.30002 0.20089 0.0
H117 H 0.87433 0.28308 0.18631 0.0
H118 H 0.90513 0.37497 0.18067 0.0
H119 H 0.91423 0.44184 0.20134 0.0
H120 H 0.83633 0.96961 0.43377 0.0
H121 H 0.76474 0.9483 0.45347 0.0
H122 H 0.8684 0.07662 0.48701 0.0
H123 H 0.94019 0.09798 0.46751 0.0
H124 H 0.79956 0.98174 0.5048 0.0
H125 H 0.69745 0.03959 0.45694 0.0
H126 H 0.7132 0.99217 0.4496 0.0
H127 H 0.76429 0.05752 0.45453 0.0
C128 C 0.84397 0.99308 0.4454 0.0
C129 C 0.89388 0.03573 0.44902 0.0
C130 C 0.80298 0.98094 0.4566 0.0
C131 C 0.81119 0.01129 0.47157 0.0
C132 C 0.86127 0.05279 0.4755 0.0
H133 H 0.62674 0.08061 0.53553 0.0
H134 H 0.68456 0.07511 0.51484 0.0
C135 C 0.90221 0.06501 0.46431 0.0
C136 C 0.76753 0.00133 0.48289 0.0
H137 H 0.6589 0.01072 0.48424 0.0
C138 C 0.76842 0.98745 0.50029 0.0
C139 C 0.72727 0.00925 0.47695 0.0
C140 C 0.72537 0.02582 0.45853 0.0
C141 C 0.73063 0.98233 0.51203 0.0
C142 C 0.69081 0.99097 0.50613 0.0
C143 C 0.68927 0.00369 0.48865 0.0
C144 C 0.65368 0.99244 0.51829 0.0
C145 C 0.7348 0.97003 0.53081 0.0
C146 C 0.61652 0.94748 0.52692 0.0
C147 C 0.58307 0.95042 0.53881 0.0
C148 C 0.58647 -0.00157 0.54225 0.0
C149 C 0.62315 0.04304 0.53328 0.0
C150 C 0.65622 0.04 0.5214 0.0
H151 H 0.77214 0.97211 0.53379 0.0
H152 H 0.73105 0.9975 0.53956 0.0
H153 H 0.70276 0.93 0.53372 0.0
H154 H 0.61358 0.91027 0.52452 0.0
H155 H 0.5552 0.91535 0.54548 0.0
H156 H 0.89702 0.03111 0.79708 0.0
H157 H 0.8285 0.96252 0.81439 0.0
H158 H 0.84666 0.84655 0.78725 0.0
H159 H 0.91549 0.91509 0.76967 0.0
H160 H 0.7313 0.8649 0.80097 0.0
H161 H 0.8666 0.83173 0.84175 0.0
H162 H 0.88789 0.89169 0.83003 0.0
H163 H 0.87382 0.83353 0.81849 0.0
C164 C 0.88656 0.99106 0.79472 0.0
C165 C 0.91203 0.97863 0.78204 0.0
C166 C 0.8472 0.95194 0.8046 0.0
C167 C 0.83284 0.89972 0.80212 0.0
C168 C 0.85754 0.88683 0.78936 0.0
H169 H 0.63758 0.62761 0.86404 0.0
H170 H 0.69466 0.68765 0.84202 0.0
C171 C 0.89677 0.92598 0.77935 0.0
C172 C 0.79295 0.85912 0.8133 0.0
H173 H 0.77784 0.78077 0.84773 0.0
C174 C 0.74122 0.84618 0.81116 0.0
C175 C 0.80632 0.83507 0.82653 0.0
C176 C 0.86166 0.84867 0.82951 0.0
C177 C 0.70215 0.80923 0.8219 0.0
C178 C 0.71565 0.78583 0.8354 0.0
C179 C 0.76749 0.79868 0.83739 0.0
C180 C 0.67703 0.74795 0.84769 0.0
C181 C 0.64682 0.79504 0.81847 0.0
C182 C 0.6476 0.76161 0.85813 0.0
C183 C 0.61431 0.72696 0.87064 0.0
C184 C 0.61074 0.67854 0.87315 0.0
C185 C 0.63969 0.66476 0.86251 0.0
C186 C 0.67234 0.69903 0.8499 0.0
H187 H 0.64101 0.80379 0.80486 0.0
H188 H 0.61938 0.75303 0.82095 0.0
H189 H 0.63719 0.81833 0.82724 0.0
H190 H 0.65152 0.79964 0.85697 0.0
H191 H 0.59281 0.7388 0.87875 0.0
H192 H 0.1649 0.01938 0.10313 0.0
H193 H 0.18678 0.96745 0.12239 0.0
H194 H 0.05781 0.93452 0.15496 0.0
H195 H 0.03596 0.9863 0.13598 0.0
H196 H 0.15123 0.95847 0.17355 0.0
H197 H 0.09417 0.80559 0.12235 0.0
H198 H 0.14229 0.87141 0.11682 0.0
H199 H 0.07699 0.8553 0.12082 0.0
C200 C 0.14169 0.00166 0.11454 0.0
C201 C 0.09843 0.00657 0.11795 0.0
C202 C 0.1541 0.97185 0.12547 0.0
C203 C 0.12348 0.94665 0.13996 0.0
C204 C 0.08186 0.95358 0.14382 0.0
H205 H 0.02394 0.67678 0.1986 0.0
H206 H 0.04202 0.74703 0.17848 0.0
C207 C 0.06935 0.9831 0.13292 0.0
C208 C 0.1321 0.91028 0.15064 0.0
H209 H 0.11383 0.78746 0.15013 0.0
C210 C 0.14408 0.92146 0.16841 0.0
C211 C 0.12225 0.86189 0.14386 0.0
C212 C 0.10788 0.84735 0.12495 0.0
C213 C 0.14444 0.88464 0.17973 0.0
C214 C 0.13285 0.8356 0.17304 0.0
C215 C 0.12302 0.82528 0.15515 0.0
C216 C 0.12401 0.79223 0.18466 0.0
C217 C 0.1542 0.8972 0.19891 0.0
C218 C 0.16442 0.79396 0.19463 0.0
C219 C 0.15422 0.75357 0.20621 0.0
C220 C 0.10341 0.71101 0.208 0.0
C221 C 0.06346 0.70903 0.19764 0.0
C222 C 0.07371 0.74911 0.18607 0.0
H223 H 0.15614 0.9344 0.20227 0.0
H224 H 0.12313 0.86531 0.20663 0.0
H225 H 0.19155 0.9006 0.20281 0.0
H226 H 0.20364 0.8267 0.19357 0.0
H227 H 0.18585 0.7562 0.21398 0.0
H228 H 0.24796 0.15832 0.42681 0.0
H229 H 0.30232 0.15182 0.44934 0.0
H230 H 0.16759 0.05904 0.48057 0.0
H231 H 0.11254 0.06569 0.4581 0.0
H232 H 0.25403 0.13973 0.49922 0.0
H233 H 0.30843 0.01966 0.45975 0.0
H234 H 0.32015 0.07859 0.44935 0.0
H235 H 0.25481 0.02824 0.45391 0.0
C236 C 0.22968 0.13643 0.43844 0.0
C237 C 0.17574 0.11222 0.44058 0.0
C238 C 0.26088 0.13262 0.45128 0.0
C239 C 0.23885 0.10431 0.46648 0.0
C240 C 0.18523 0.08085 0.46886 0.0
H241 H 0.38759 -0.00038 0.53962 0.0
H242 H 0.3302 0.00691 0.51853 0.0
C243 C 0.15387 0.08461 0.456 0.0
C244 C 0.27203 0.09944 0.47987 0.0
H245 H 0.35479 0.0541 0.48636 0.0
C246 C 0.27594 0.12085 0.49647 0.0
C247 C 0.30008 0.0743 0.47625 0.0
C248 C 0.29542 0.04843 0.45891 0.0
C249 C 0.308 0.11858 0.50949 0.0
C250 C 0.33733 0.09491 0.50569 0.0
C251 C 0.33268 0.07274 0.48917 0.0
C252 C 0.37205 0.0913 0.51877 0.0
C253 C 0.30959 0.14078 0.52728 0.0
C254 C 0.41499 0.13643 0.52579 0.0
C255 C 0.44801 0.13245 0.53791 0.0
C256 C 0.43877 0.08321 0.54311 0.0
C257 C 0.3959 0.03817 0.53592 0.0
C258 C 0.36299 0.04221 0.52386 0.0
H259 H 0.27576 0.14573 0.52931 0.0
H260 H 0.31037 0.11529 0.53766 0.0
H261 H 0.34531 0.17968 0.52862 0.0
H262 H 0.42326 0.17472 0.52177 0.0
H263 H 0.48078 0.16789 0.54314 0.0
H264 H 0.18797 0.1137 0.78419 0.0
H265 H 0.25473 0.16992 0.80557 0.0
H266 H 0.23498 0.29835 0.79099 0.0
H267 H 0.16838 0.24264 0.76947 0.0
H268 H 0.35251 0.28357 0.79867 0.0
H269 H 0.20632 0.2646 0.84657 0.0
H270 H 0.19176 0.21555 0.8301 0.0
H271 H 0.19686 0.27615 0.82419 0.0
C272 C 0.19809 0.15402 0.78543 0.0
C273 C 0.17276 0.17373 0.77522 0.0
C274 C 0.23628 0.18601 0.79761 0.0
C275 C 0.24939 0.23799 0.79983 0.0
C276 C 0.22511 0.25818 0.78942 0.0
H277 H 0.42352 0.49037 0.87027 0.0
H278 H 0.36611 0.42728 0.84853 0.0
C279 C 0.18717 0.22634 0.77715 0.0
C280 C 0.28687 0.2707 0.81355 0.0
H281 H 0.29417 0.32392 0.85348 0.0
C282 C 0.34002 0.29225 0.81073 0.0
C283 C 0.27003 0.28151 0.82921 0.0
C284 C 0.21315 0.25815 0.83287 0.0
C285 C 0.37713 0.32617 0.82301 0.0
C286 C 0.36028 0.33772 0.83859 0.0
C287 C 0.30696 0.31496 0.84153 0.0
C288 C 0.39698 0.37612 0.85152 0.0
C289 C 0.4339 0.35094 0.81892 0.0
C290 C 0.43351 0.36826 0.86049 0.0
C291 C 0.46686 0.40463 0.87298 0.0
C292 C 0.46374 0.44908 0.87677 0.0
C293 C 0.42698 0.45655 0.86774 0.0
C294 C 0.39404 0.42049 0.85528 0.0
H295 H 0.4401 0.34679 0.80494 0.0
H296 H 0.45522 0.39306 0.82241 0.0
H297 H 0.45082 0.33171 0.82667 0.0
H298 H 0.43576 0.33373 0.85801 0.0
H299 H 0.4946 0.39768 0.87976 0.0
H300 H 0.90123 0.15523 0.72909 0.0
H301 H 0.83997 0.1514 0.70709 0.0
H302 H 0.91194 0.10502 0.66846 0.0
H303 H 0.97153 0.10589 0.69072 0.0
H304 H 0.84741 0.20016 0.67858 0.0
H305 H 0.76602 0.99164 0.66182 0.0
H306 H 0.81039 0.0225 0.67987 0.0
H307 H 0.8343 0.02982 0.65804 0.0
C308 C 0.90405 0.14426 0.7159 0.0
C309 C 0.9408 0.13031 0.71165 0.0
C310 C 0.86901 0.14212 0.70332 0.0
C311 C 0.87043 0.12673 0.68617 0.0
C312 C 0.9088 0.11522 0.68171 0.0
H313 H 0.69393 0.16858 0.60228 0.0
H314 H 0.76241 0.18052 0.62275 0.0
C315 C 0.94313 0.11615 0.6944 0.0
C316 C 0.83129 0.12234 0.67313 0.0
H317 H 0.73948 0.03879 0.64396 0.0
C318 C 0.82365 0.16477 0.67105 0.0
C319 C 0.79965 0.07589 0.6635 0.0
C320 C 0.80256 0.02722 0.66604 0.0
C321 C 0.78518 0.16201 0.65973 0.0
C322 C 0.75489 0.11626 0.64962 0.0
C323 C 0.76286 0.07402 0.6516 0.0
C324 C 0.71345 0.11027 0.63732 0.0
C325 C 0.77633 0.20749 0.65927 0.0
C326 C 0.66347 0.06606 0.63829 0.0
C327 C 0.62486 0.05841 0.62628 0.0
C328 C 0.63514 0.09527 0.61322 0.0
C329 C 0.6848 0.13995 0.61239 0.0
C330 C 0.72386 0.14696 0.62416 0.0
H331 H 0.79038 0.23104 0.67145 0.0
H332 H 0.79821 0.23344 0.64834 0.0
H333 H 0.73462 0.19417 0.6574 0.0
H334 H 0.65436 0.03715 0.6483 0.0
H335 H 0.58686 0.02366 0.62723 0.0
H336 H 0.99808 0.96766 0.02473 0.0
H337 H 0.94008 0.8988 0.00432 0.0
H338 H 0.81837 0.83957 0.0422 0.0
H339 H 0.87538 0.91021 0.06226 0.0
H340 H 0.89054 0.79672 0.00405 0.0
H341 H 0.74513 0.85861 0.00211 0.0
H342 H 0.80721 0.89682 0.01287 0.0
H343 H 0.75484 0.84169 0.02362 0.0
C344 C 0.95892 0.93993 0.02869 0.0
C345 C 0.94089 0.94467 0.04496 0.0
C346 C 0.92584 0.90051 0.01704 0.0
C347 C 0.8744 0.86467 0.02155 0.0
C348 C 0.85727 0.86778 0.03818 0.0
H349 H 0.67138 0.58558 0.95815 0.0
H350 H 0.73373 0.64503 0.98015 0.0
C351 C 0.88995 0.90793 0.04968 0.0
C352 C 0.83854 0.8251 0.00865 0.0
H353 H 0.72171 0.77895 0.98797 0.0
C354 C 0.85366 0.79291 0.00047 0.0
C355 C 0.79076 0.82064 0.00378 0.0
C356 C 0.77375 0.85664 0.01092 0.0
C357 C 0.82251 0.75664 0.98752 0.0
C358 C 0.77402 0.75111 0.98308 0.0
C359 C 0.75874 0.78292 0.99142 0.0
C360 C 0.73922 0.71473 0.96925 0.0
C361 C 0.84282 0.7261 0.97835 0.0
C362 C 0.72095 0.73379 0.95596 0.0
C363 C 0.6844 0.69983 0.9438 0.0
C364 C 0.66596 0.6461 0.94444 0.0
C365 C 0.68549 0.62697 0.9573 0.0
C366 C 0.72133 0.66097 0.96979 0.0
H367 H 0.88571 0.74572 0.97952 0.0
H368 H 0.82615 0.68706 0.98438 0.0
H369 H 0.83183 0.72071 0.96433 0.0
H370 H 0.73424 0.77504 0.95519 0.0
H371 H 0.67018 0.71562 0.93394 0.0
H372 H 0.96013 0.9191 0.38354 0.0
H373 H 0.93886 0.84344 0.3651 0.0
H374 H 0.05846 0.94352 0.32949 0.0
H375 H 0.07969 0.01914 0.34762 0.0
H376 H 0.96249 0.87015 0.31323 0.0
H377 H 0.03165 0.77832 0.36125 0.0
H378 H 0.98442 0.79377 0.36864 0.0
H379 H 0.04818 0.84545 0.36315 0.0
C380 C 0.98184 0.92503 0.37176 0.0
C381 C 0.02186 0.97522 0.36712 0.0
C382 C 0.96971 0.88173 0.36129 0.0
C383 C 0.99744 0.88791 0.34604 0.0
C384 C 0.03663 0.93796 0.34123 0.0
H385 H 0.07473 0.70762 0.28336 0.0
H386 H 0.06527 0.76393 0.30403 0.0
C387 C 0.04882 0.98115 0.35165 0.0
C388 C 0.98689 0.84251 0.33512 0.0
H389 H 0.00283 0.73711 0.33399 0.0
C390 C 0.97054 0.84055 0.3178 0.0
C391 C 0.99779 0.80427 0.34116 0.0
C392 C 0.01682 0.80541 0.35952 0.0
C393 C 0.96654 0.80237 0.30615 0.0
C394 C 0.9787 0.76492 0.31207 0.0
C395 C 0.99323 0.76575 0.32956 0.0
C396 C 0.98256 0.72858 0.29991 0.0
C397 C 0.95201 0.80402 0.28738 0.0
C398 C 0.93895 0.68955 0.29085 0.0
C399 C 0.94421 0.65712 0.27891 0.0
C400 C 0.99318 0.66327 0.2759 0.0
C401 C 0.03646 0.70186 0.28528 0.0
C402 C 0.03114 0.73404 0.29716 0.0
H403 H 0.95173 0.84031 0.28435 0.0
H404 H 0.97947 0.80116 0.27856 0.0
H405 H 0.91268 0.77025 0.28461 0.0
H406 H 0.90098 0.68431 0.29297 0.0
H407 H 0.91009 0.62761 0.27196 0.0
H408 H 0.13345 0.97602 0.72211 0.0
H409 H 0.18899 0.96195 0.70257 0.0
H410 H 0.1459 0.02795 0.66023 0.0
H411 H 0.09296 0.04506 0.68 0.0
H412 H 0.18084 0.91109 0.67393 0.0
H413 H 0.29838 0.12229 0.65998 0.0
H414 H 0.2487 0.09668 0.67618 0.0
H415 H 0.23195 0.09557 0.6535 0.0
C416 C 0.13545 0.98699 0.70858 0.0
C417 C 0.10959 0.01233 0.7026 0.0
C418 C 0.16721 0.97896 0.69742 0.0
C419 C 0.17299 0.99539 0.68003 0.0
C420 C 0.14372 0.01679 0.67373 0.0
H421 H 0.33629 0.92243 0.60156 0.0
H422 H 0.27059 0.91792 0.62124 0.0
C423 C 0.11308 0.0261 0.68499 0.0
C424 C 0.2116 0.9927 0.66882 0.0
H425 H 0.31522 0.06662 0.64296 0.0
C426 C 0.21042 0.94514 0.66722 0.0
C427 C 0.25102 0.03739 0.66035 0.0
C428 C 0.25802 0.09093 0.66273 0.0
C429 C 0.24722 0.94097 0.65729 0.0
C430 C 0.28508 0.98514 0.64818 0.0
C431 C 0.28614 0.03259 0.64983 0.0
C432 C 0.32491 0.98411 0.63711 0.0
C433 C 0.24593 0.88973 0.65718 0.0
C434 C 0.37732 0.02315 0.63922 0.0
C435 C 0.41442 0.02677 0.62765 0.0
C436 C 0.40019 0.99072 0.61393 0.0
C437 C 0.34831 0.95025 0.6122 0.0
C438 C 0.3108 0.94747 0.62353 0.0
H439 H 0.22698 0.86655 0.66897 0.0
H440 H 0.22311 0.86637 0.64569 0.0
H441 H 0.28556 0.89576 0.65648 0.0
H442 H 0.38938 0.05182 0.64959 0.0
H443 H 0.45423 0.05826 0.62928 0.0
H444 H 0.07276 0.22431 0.02479 0.0
H445 H 0.13923 0.29327 0.00688 0.0
H446 H 0.25717 0.27593 0.03322 0.0
H447 H 0.19102 0.20692 0.05132 0.0
H448 H 0.23914 0.39206 0.01908 0.0
H449 H 0.26439 0.25192 0.97865 0.0
H450 H 0.20653 0.23228 0.99099 0.0
H451 H 0.26514 0.24512 0.00191 0.0
C452 C 0.11284 0.23521 0.02685 0.0
C453 C 0.12652 0.2098 0.03942 0.0
C454 C 0.15073 0.27479 0.01665 0.0
C455 C 0.20287 0.28935 0.01871 0.0
C456 C 0.21696 0.26493 0.03143 0.0
H457 H 0.47721 0.47745 0.95912 0.0
H458 H 0.41356 0.42173 0.98045 0.0
C459 C 0.17913 0.22557 0.04175 0.0
C460 C 0.24226 0.32863 0.00704 0.0
H461 H 0.31925 0.34123 0.97296 0.0
C462 C 0.25679 0.38119 0.00898 0.0
C463 C 0.26485 0.314 0.9939 0.0
C464 C 0.24941 0.25776 0.99106 0.0
C465 C 0.29449 0.41992 -0.00172 0.0
C466 C 0.31712 0.40527 0.98508 0.0
C467 C 0.30202 0.35249 0.98311 0.0
C468 C 0.35734 0.44369 0.9733 0.0
C469 C 0.31067 0.47616 0.00153 0.0
C470 C 0.34733 0.47536 0.96232 0.0
C471 C 0.38413 0.50792 0.95017 0.0
C472 C 0.43103 0.50851 0.94862 0.0
C473 C 0.44129 0.47763 0.9599 0.0
C474 C 0.40494 0.44574 0.97212 0.0
H475 H 0.30069 0.48218 0.01486 0.0
H476 H 0.35301 0.50229 -0.00025 0.0
H477 H 0.29005 0.48774 0.99212 0.0
H478 H 0.31044 0.47362 0.96272 0.0
H479 H 0.37501 0.53099 0.94156 0.0
H480 H 0.10228 0.26955 0.39157 0.0
H481 H 0.11457 0.3388 0.37157 0.0
H482 H 0.97381 0.23049 0.344 0.0
H483 H 0.96104 0.16094 0.36395 0.0
H484 H 0.0679 0.29311 0.32291 0.0
H485 H 0.02445 0.41046 0.36848 0.0
H486 H 0.06905 0.39102 0.37607 0.0
H487 H 0.00238 0.3424 0.37211 0.0
C488 C 0.07372 0.26054 0.38133 0.0
C489 C 0.03064 0.20979 0.37934 0.0
C490 C 0.08077 0.30016 0.36995 0.0
C491 C 0.04494 0.28969 0.35641 0.0
C492 C 0.0018 0.23923 0.35442 0.0
H493 H 0.98851 0.47673 0.28569 0.0
H494 H 0.98693 0.41723 0.3078 0.0
C495 C 0.99451 0.19964 0.36585 0.0
C496 C 0.0531 0.33098 0.34399 0.0
H497 H 0.05095 0.44394 0.34024 0.0
C498 C 0.0645 0.32627 0.32668 0.0
C499 C 0.04842 0.37395 0.34902 0.0
C500 C 0.03508 0.37994 0.36739 0.0
C501 C 0.07106 0.36343 0.31419 0.0
C502 C 0.06623 0.40632 0.31921 0.0
C503 C 0.05509 0.41118 0.33653 0.0
C504 C 0.06874 0.44436 0.30633 0.0
C505 C 0.08163 0.35592 0.29561 0.0
C506 C 0.11556 0.47982 0.29838 0.0
C507 C 0.11673 0.51423 0.28574 0.0
C508 C 0.07098 0.51336 0.28082 0.0
C509 C 0.02441 0.47826 0.28908 0.0
C510 C 0.02338 0.4443 0.30176 0.0
H511 H 0.07722 0.31702 0.29339 0.0
H512 H 0.05496 0.36035 0.28658 0.0
H513 H 0.12187 0.38631 0.29234 0.0
H514 H 0.15104 0.4806 0.30188 0.0
H515 H 0.1532 0.54081 0.27963 0.0
loop_
_geom_bond_atom_site_label_1
_geom_bond_atom_site_label_2
_geom_bond_distance
_geom_bond_site_symmetry_2
_ccdc_geom_bond_type
C0 O1 1.306 . S
C0 O3 1.160 . S
O1 C0 1.306 . S
O1 Cd2 2.228 1_455 S
Cd2 O1 2.228 1_655 S
Cd2 O6 2.273 . S
Cd2 O10 2.277 1_655 S
O3 C0 1.160 . S
O3 Cd4 2.203 . S
Cd4 O3 2.203 . S
Cd4 O6 2.411 1_455 S
Cd4 O7 2.333 . S
Cd4 O8 2.352 . S
Cd4 O12 2.277 . S
Cd4 O13 2.356 . S
C5 O10 1.209 . S
C5 O12 1.226 . S
O6 Cd2 2.273 . S
O6 Cd4 2.411 1_655 S
O6 C9 1.320 . S
O7 Cd4 2.333 . S
O7 C9 1.214 1_455 S
O8 Cd4 2.352 . S
O8 C11 1.258 1_545 S
C9 O6 1.320 . S
C9 O7 1.214 1_655 S
O10 Cd2 2.277 1_455 S
O10 C5 1.209 . S
C11 O8 1.258 1_565 S
C11 O13 1.282 1_565 S
O12 Cd4 2.277 . S
O12 C5 1.226 . S
O13 Cd4 2.356 . S
O13 C11 1.282 1_545 S
C14 O15 1.306 . S
C14 O17 1.160 . S
O15 C14 1.306 . S
O15 Cd16 2.228 . S
Cd16 O15 2.228 . S
Cd16 O20 2.273 . S
Cd16 O24 2.277 . S
O17 C14 1.160 . S
O17 Cd18 2.203 . S
Cd18 O17 2.203 . S
Cd18 O20 2.411 . S
Cd18 O21 2.333 1_455 S
Cd18 O22 2.352 1_455 S
Cd18 O26 2.277 1_445 S
Cd18 O27 2.356 1_455 S
C19 O24 1.209 1_565 S
C19 O26 1.226 1_455 S
O20 Cd16 2.273 . S
O20 Cd18 2.411 . S
O20 C23 1.320 . S
O21 Cd18 2.333 1_655 S
O21 C23 1.214 1_655 S
O22 Cd18 2.352 1_655 S
O22 C25 1.258 . S
C23 O20 1.320 . S
C23 O21 1.214 1_455 S
O24 Cd16 2.277 . S
O24 C19 1.209 1_545 S
C25 O22 1.258 . S
C25 O27 1.282 . S
O26 Cd18 2.277 1_665 S
O26 C19 1.226 1_655 S
O27 Cd18 2.356 1_655 S
O27 C25 1.282 . S
C28 O29 1.306 . S
C28 O31 1.160 . S
O29 C28 1.306 . S
O29 Cd30 2.228 . S
Cd30 O29 2.228 . S
Cd30 O34 2.273 1_655 S
Cd30 O38 2.277 . S
O31 C28 1.160 . S
O31 Cd32 2.203 1_655 S
Cd32 O31 2.203 1_455 S
Cd32 O34 2.411 . S
Cd32 O35 2.333 . S
Cd32 O36 2.352 . S
Cd32 O40 2.277 1_445 S
Cd32 O41 2.356 . S
C33 O38 1.209 . S
C33 O40 1.226 1_545 S
O34 Cd30 2.273 1_455 S
O34 Cd32 2.411 . S
O34 C37 1.320 . S
O35 Cd32 2.333 . S
O35 C37 1.214 . S
O36 Cd32 2.352 . S
O36 C39 1.258 . S
C37 O34 1.320 . S
C37 O35 1.214 . S
O38 Cd30 2.277 . S
O38 C33 1.209 . S
C39 O36 1.258 . S
C39 O41 1.282 . S
O40 Cd32 2.277 1_665 S
O40 C33 1.226 1_565 S
O41 Cd32 2.356 . S
O41 C39 1.282 . S
C42 O44 1.247 . S
C42 O46 1.258 . S
C43 O50 1.247 . S
C43 O51 1.258 . S
O44 C42 1.247 . S
O44 Zn45 2.028 . S
Zn45 O44 2.028 . S
Zn45 O49 2.035 . S
Zn45 O51 2.035 . S
Zn45 O52 2.028 . S
O46 C42 1.258 . S
O46 Zn47 2.035 1_455 S
Zn47 O46 2.035 1_655 S
Zn47 O48 2.028 1_655 S
Zn47 O50 2.028 1_655 S
Zn47 O53 2.035 1_655 S
O48 Zn47 2.028 1_455 S
O48 C54 1.247 . S
O49 Zn45 2.035 . S
O49 C54 1.258 . S
O50 C43 1.247 . S
O50 Zn47 2.028 1_455 S
O51 C43 1.258 . S
O51 Zn45 2.035 . S
O52 Zn45 2.028 . S
O52 C55 1.247 . S
O53 Zn47 2.035 1_455 S
O53 C55 1.258 . S
C54 O48 1.247 . S
C54 O49 1.258 . S
C55 O52 1.247 . S
C55 O53 1.258 . S
C56 O58 1.247 . S
C56 O60 1.258 . S
C57 O64 1.247 . S
C57 O65 1.258 . S
O58 C56 1.247 . S
O58 Zn59 2.028 . S
Zn59 O58 2.028 . S
Zn59 O63 2.035 . S
Zn59 O65 2.035 . S
Zn59 O66 2.028 . S
O60 C56 1.258 . S
O60 Zn61 2.035 . S
Zn61 O60 2.035 . S
Zn61 O62 2.028 . S
Zn61 O64 2.028 . S
Zn61 O67 2.035 . S
O62 Zn61 2.028 . S
O62 C68 1.247 . S
O63 Zn59 2.035 . S
O63 C68 1.258 . S
O64 C57 1.247 . S
O64 Zn61 2.028 . S
O65 C57 1.258 . S
O65 Zn59 2.035 . S
O66 Zn59 2.028 . S
O66 C69 1.247 . S
O67 Zn61 2.035 . S
O67 C69 1.258 . S
C68 O62 1.247 . S
C68 O63 1.258 . S
C69 O66 1.247 . S
C69 O67 1.258 . S
C70 O72 1.247 . S
C70 O74 1.258 . S
C71 O78 1.247 . S
C71 O79 1.258 . S
O72 C70 1.247 . S
O72 Zn73 2.028 . S
Zn73 O72 2.028 . S
Zn73 O77 2.035 . S
Zn73 O79 2.035 . S
Zn73 O80 2.028 . S
O74 C70 1.258 . S
O74 Zn75 2.035 . S
Zn75 O74 2.035 . S
Zn75 O76 2.028 . S
Zn75 O78 2.028 . S
Zn75 O81 2.035 . S
O76 Zn75 2.028 . S
O76 C82 1.247 . S
O77 Zn73 2.035 . S
O77 C82 1.258 . S
O78 C71 1.247 . S
O78 Zn75 2.028 . S
O79 C71 1.258 . S
O79 Zn73 2.035 . S
O80 Zn73 2.028 . S
O80 C83 1.247 . S
O81 Zn75 2.035 . S
O81 C83 1.258 . S
C82 O76 1.247 . S
C82 O77 1.258 . S
C83 O80 1.247 . S
C83 O81 1.258 . S
H84 C92 0.929 1_655 S
H85 C94 0.930 1_655 S
H86 C96 0.930 . S
H87 C99 0.929 . S
H88 C102 0.930 . S
H89 C104 0.960 . S
H90 C104 0.960 . S
H91 C104 0.960 . S
C92 H84 0.929 1_455 S
C92 C93 1.377 . S
C92 C94 1.384 . S
C93 C92 1.377 . S
C93 C99 1.390 . S
C94 H85 0.930 1_455 S
C94 C92 1.384 . S
C94 C95 1.372 . S
C95 C94 1.372 . S
C95 C96 1.400 . S
C95 C100 1.490 . S
C96 H86 0.930 . S
C96 C95 1.400 . S
C96 C99 1.386 . S
H97 C113 0.930 . S
H98 C114 0.931 . S
C99 H87 0.929 . S
C99 C93 1.390 . S
C99 C96 1.386 . S
C100 C95 1.490 . S
C100 C102 1.395 1_455 S
C100 C103 1.403 . S
H101 C107 0.930 . S
C102 H88 0.930 . S
C102 C100 1.395 1_655 S
C102 C105 1.403 . S
C103 C100 1.403 . S
C103 C104 1.524 . S
C103 C107 1.400 . S
C104 H89 0.960 . S
C104 H90 0.960 . S
C104 H91 0.960 . S
C104 C103 1.524 . S
C105 C102 1.403 . S
C105 C106 1.392 1_655 S
C105 C109 1.495 . S
C106 C105 1.392 1_455 S
C106 C107 1.385 . S
C106 C108 1.478 . S
C107 H101 0.930 . S
C107 C103 1.400 . S
C107 C106 1.385 . S
C108 C106 1.478 . S
C108 C110 1.381 . S
C108 C114 1.383 . S
C109 C105 1.495 . S
C109 H115 0.959 . S
C109 H116 0.961 . S
C109 H117 0.960 . S
C110 C108 1.381 . S
C110 C111 1.394 . S
C110 H118 0.930 1_455 S
C111 C110 1.394 . S
C111 C112 1.383 . S
C111 H119 0.929 . S
C112 C111 1.383 . S
C112 C113 1.377 . S
C113 H97 0.930 . S
C113 C112 1.377 . S
C113 C114 1.379 . S
C114 H98 0.931 . S
C114 C108 1.383 . S
C114 C113 1.379 . S
H115 C109 0.959 . S
H116 C109 0.961 . S
H117 C109 0.960 . S
H118 C110 0.930 1_655 S
H119 C111 0.929 . S
H120 C128 0.929 1_565 S
H121 C130 0.930 1_565 S
H122 C132 0.930 . S
H123 C135 0.929 . S
H124 C138 0.930 . S
H125 C140 0.960 . S
H126 C140 0.960 . S
H127 C140 0.960 . S
C128 H120 0.929 1_545 S
C128 C129 1.377 . S
C128 C130 1.384 . S
C129 C128 1.377 . S
C129 C135 1.390 . S
C130 H121 0.930 1_545 S
C130 C128 1.384 . S
C130 C131 1.372 . S
C131 C130 1.372 . S
C131 C132 1.400 . S
C131 C136 1.490 . S
C132 H122 0.930 . S
C132 C131 1.400 . S
C132 C135 1.386 . S
H133 C149 0.930 . S
H134 C150 0.931 . S
C135 H123 0.929 . S
C135 C129 1.390 . S
C135 C132 1.386 . S
C136 C131 1.490 . S
C136 C138 1.395 . S
C136 C139 1.403 . S
H137 C143 0.930 . S
C138 H124 0.930 . S
C138 C136 1.395 . S
C138 C141 1.403 . S
C139 C136 1.403 . S
C139 C140 1.524 . S
C139 C143 1.400 . S
C140 H125 0.960 . S
C140 H126 0.960 . S
C140 H127 0.960 . S
C140 C139 1.524 . S
C141 C138 1.403 . S
C141 C142 1.392 . S
C141 C145 1.495 . S
C142 C141 1.392 . S
C142 C143 1.385 . S
C142 C144 1.478 . S
C143 H137 0.930 . S
C143 C139 1.400 . S
C143 C142 1.385 . S
C144 C142 1.478 . S
C144 C146 1.381 . S
C144 C150 1.383 . S
C145 C141 1.495 . S
C145 H151 0.959 . S
C145 H152 0.961 . S
C145 H153 0.960 . S
C146 C144 1.381 . S
C146 C147 1.394 . S
C146 H154 0.930 . S
C147 C146 1.394 . S
C147 C148 1.383 . S
C147 H155 0.929 . S
C148 C147 1.383 . S
C148 C149 1.377 . S
C149 H133 0.930 . S
C149 C148 1.377 . S
C149 C150 1.379 . S
C150 H134 0.931 . S
C150 C144 1.383 . S
C150 C149 1.379 . S
H151 C145 0.959 . S
H152 C145 0.961 . S
H153 C145 0.960 . S
H154 C146 0.930 . S
H155 C147 0.929 . S
H156 C164 0.929 1_545 S
H157 C166 0.930 . S
H158 C168 0.930 . S
H159 C171 0.929 . S
H160 C174 0.930 . S
H161 C176 0.960 . S
H162 C176 0.960 . S
H163 C176 0.960 . S
C164 H156 0.929 1_565 S
C164 C165 1.377 . S
C164 C166 1.384 . S
C165 C164 1.377 . S
C165 C171 1.390 . S
C166 H157 0.930 . S
C166 C164 1.384 . S
C166 C167 1.372 . S
C167 C166 1.372 . S
C167 C168 1.400 . S
C167 C172 1.490 . S
C168 H158 0.930 . S
C168 C167 1.400 . S
C168 C171 1.386 . S
H169 C185 0.930 . S
H170 C186 0.931 . S
C171 H159 0.929 . S
C171 C165 1.390 . S
C171 C168 1.386 . S
C172 C167 1.490 . S
C172 C174 1.395 . S
C172 C175 1.403 . S
H173 C179 0.930 . S
C174 H160 0.930 . S
C174 C172 1.395 . S
C174 C177 1.403 . S
C175 C172 1.403 . S
C175 C176 1.524 . S
C175 C179 1.400 . S
C176 H161 0.960 . S
C176 H162 0.960 . S
C176 H163 0.960 . S
C176 C175 1.524 . S
C177 C174 1.403 . S
C177 C178 1.392 . S
C177 C181 1.495 . S
C178 C177 1.392 . S
C178 C179 1.385 . S
C178 C180 1.478 . S
C179 H173 0.930 . S
C179 C175 1.400 . S
C179 C178 1.385 . S
C180 C178 1.478 . S
C180 C182 1.381 . S
C180 C186 1.383 . S
C181 C177 1.495 . S
C181 H187 0.959 . S
C181 H188 0.961 . S
C181 H189 0.960 . S
C182 C180 1.381 . S
C182 C183 1.394 . S
C182 H190 0.930 . S
C183 C182 1.394 . S
C183 C184 1.383 . S
C183 H191 0.929 . S
C184 C183 1.383 . S
C184 C185 1.377 . S
C185 H169 0.930 . S
C185 C184 1.377 . S
C185 C186 1.379 . S
C186 H170 0.931 . S
C186 C180 1.383 . S
C186 C185 1.379 . S
H187 C181 0.959 . S
H188 C181 0.961 . S
H189 C181 0.960 . S
H190 C182 0.930 . S
H191 C183 0.929 . S
H192 C200 0.929 . S
H193 C202 0.930 . S
H194 C204 0.930 1_655 S
H195 C207 0.929 1_655 S
H196 C210 0.930 . S
H197 C212 0.960 . S
H198 C212 0.960 . S
H199 C212 0.960 . S
C200 H192 0.929 . S
C200 C201 1.377 . S
C200 C202 1.384 . S
C201 C200 1.377 . S
C201 C207 1.390 . S
C202 H193 0.930 . S
C202 C200 1.384 . S
C202 C203 1.372 . S
C203 C202 1.372 . S
C203 C204 1.400 . S
C203 C208 1.490 . S
C204 H194 0.930 1_455 S
C204 C203 1.400 . S
C204 C207 1.386 . S
H205 C221 0.930 1_655 S
H206 C222 0.931 1_655 S
C207 H195 0.929 1_455 S
C207 C201 1.390 . S
C207 C204 1.386 . S
C208 C203 1.490 . S
C208 C210 1.395 . S
C208 C211 1.403 . S
H209 C215 0.930 1_655 S
C210 H196 0.930 . S
C210 C208 1.395 . S
C210 C213 1.403 . S
C211 C208 1.403 . S
C211 C212 1.524 1_455 S
C211 C215 1.400 . S
C212 H197 0.960 . S
C212 H198 0.960 . S
C212 H199 0.960 . S
C212 C211 1.524 1_655 S
C213 C210 1.403 . S
C213 C214 1.392 . S
C213 C217 1.495 . S
C214 C213 1.392 . S
C214 C215 1.385 . S
C214 C216 1.478 . S
C215 H209 0.930 1_455 S
C215 C211 1.400 . S
C215 C214 1.385 . S
C216 C214 1.478 . S
C216 C218 1.381 . S
C216 C222 1.383 . S
C217 C213 1.495 . S
C217 H223 0.959 . S
C217 H224 0.961 . S
C217 H225 0.960 . S
C218 C216 1.381 . S
C218 C219 1.394 . S
C218 H226 0.930 . S
C219 C218 1.394 . S
C219 C220 1.383 . S
C219 H227 0.929 . S
C220 C219 1.383 . S
C220 C221 1.377 . S
C221 H205 0.930 1_455 S
C221 C220 1.377 . S
C221 C222 1.379 . S
C222 H206 0.931 1_455 S
C222 C216 1.383 . S
C222 C221 1.379 . S
H223 C217 0.959 . S
H224 C217 0.961 . S
H225 C217 0.960 . S
H226 C218 0.930 . S
H227 C219 0.929 . S
H228 C236 0.929 . S
H229 C238 0.930 . S
H230 C240 0.930 1_565 S
H231 C243 0.929 1_565 S
H232 C246 0.930 . S
H233 C248 0.960 1_565 S
H234 C248 0.960 . S
H235 C248 0.960 1_565 S
C236 H228 0.929 . S
C236 C237 1.377 . S
C236 C238 1.384 . S
C237 C236 1.377 . S
C237 C243 1.390 . S
C238 H229 0.930 . S
C238 C236 1.384 . S
C238 C239 1.372 . S
C239 C238 1.372 . S
C239 C240 1.400 . S
C239 C244 1.490 . S
C240 H230 0.930 1_545 S
C240 C239 1.400 . S
C240 C243 1.386 . S
H241 C257 0.930 1_565 S
H242 C258 0.931 . S
C243 H231 0.929 1_545 S
C243 C237 1.390 . S
C243 C240 1.386 . S
C244 C239 1.490 . S
C244 C246 1.395 . S
C244 C247 1.403 . S
H245 C251 0.930 . S
C246 H232 0.930 . S
C246 C244 1.395 . S
C246 C249 1.403 . S
C247 C244 1.403 . S
C247 C248 1.524 . S
C247 C251 1.400 . S
C248 H233 0.960 1_545 S
C248 H234 0.960 . S
C248 H235 0.960 1_545 S
C248 C247 1.524 . S
C249 C246 1.403 . S
C249 C250 1.392 . S
C249 C253 1.495 . S
C250 C249 1.392 . S
C250 C251 1.385 . S
C250 C252 1.478 . S
C251 H245 0.930 . S
C251 C247 1.400 . S
C251 C250 1.385 . S
C252 C250 1.478 . S
C252 C254 1.381 . S
C252 C258 1.383 . S
C253 C249 1.495 . S
C253 H259 0.959 . S
C253 H260 0.961 . S
C253 H261 0.960 . S
C254 C252 1.381 . S
C254 C255 1.394 . S
C254 H262 0.930 . S
C255 C254 1.394 . S
C255 C256 1.383 . S
C255 H263 0.929 . S
C256 C255 1.383 . S
C256 C257 1.377 . S
C257 H241 0.930 1_545 S
C257 C256 1.377 . S
C257 C258 1.379 . S
C258 H242 0.931 . S
C258 C252 1.383 . S
C258 C257 1.379 . S
H259 C253 0.959 . S
H260 C253 0.961 . S
H261 C253 0.960 . S
H262 C254 0.930 . S
H263 C255 0.929 . S
H264 C272 0.929 . S
H265 C274 0.930 . S
H266 C276 0.930 . S
H267 C279 0.929 . S
H268 C282 0.930 . S
H269 C284 0.960 . S
H270 C284 0.960 . S
H271 C284 0.960 . S
C272 H264 0.929 . S
C272 C273 1.377 . S
C272 C274 1.384 . S
C273 C272 1.377 . S
C273 C279 1.390 . S
C274 H265 0.930 . S
C274 C272 1.384 . S
C274 C275 1.372 . S
C275 C274 1.372 . S
C275 C276 1.400 . S
C275 C280 1.490 . S
C276 H266 0.930 . S
C276 C275 1.400 . S
C276 C279 1.386 . S
H277 C293 0.930 . S
H278 C294 0.931 . S
C279 H267 0.929 . S
C279 C273 1.390 . S
C279 C276 1.386 . S
C280 C275 1.490 . S
C280 C282 1.395 . S
C280 C283 1.403 . S
H281 C287 0.930 . S
C282 H268 0.930 . S
C282 C280 1.395 . S
C282 C285 1.403 . S
C283 C280 1.403 . S
C283 C284 1.524 . S
C283 C287 1.400 . S
C284 H269 0.960 . S
C284 H270 0.960 . S
C284 H271 0.960 . S
C284 C283 1.524 . S
C285 C282 1.403 . S
C285 C286 1.392 . S
C285 C289 1.495 . S
C286 C285 1.392 . S
C286 C287 1.385 . S
C286 C288 1.478 . S
C287 H281 0.930 . S
C287 C283 1.400 . S
C287 C286 1.385 . S
C288 C286 1.478 . S
C288 C290 1.381 . S
C288 C294 1.383 . S
C289 C285 1.495 . S
C289 H295 0.959 . S
C289 H296 0.961 . S
C289 H297 0.960 . S
C290 C288 1.381 . S
C290 C291 1.394 . S
C290 H298 0.930 . S
C291 C290 1.394 . S
C291 C292 1.383 . S
C291 H299 0.929 . S
C292 C291 1.383 . S
C292 C293 1.377 . S
C293 H277 0.930 . S
C293 C292 1.377 . S
C293 C294 1.379 . S
C294 H278 0.931 . S
C294 C288 1.383 . S
C294 C293 1.379 . S
H295 C289 0.959 . S
H296 C289 0.961 . S
H297 C289 0.960 . S
H298 C290 0.930 . S
H299 C291 0.929 . S
H300 C308 0.929 . S
H301 C310 0.930 . S
H302 C312 0.930 . S
H303 C315 0.929 . S
H304 C318 0.930 . S
H305 C320 0.960 . S
H306 C320 0.960 . S
H307 C320 0.961 1_545 S
C308 H300 0.929 . S
C308 C309 1.377 . S
C308 C310 1.384 . S
C309 C308 1.377 . S
C309 C315 1.390 . S
C310 H301 0.930 . S
C310 C308 1.384 . S
C310 C311 1.372 . S
C311 C310 1.372 . S
C311 C312 1.400 . S
C311 C316 1.490 . S
C312 H302 0.930 . S
C312 C311 1.400 . S
C312 C315 1.386 . S
H313 C329 0.930 . S
H314 C330 0.931 . S
C315 H303 0.929 . S
C315 C309 1.390 . S
C315 C312 1.386 . S
C316 C311 1.490 . S
C316 C318 1.395 . S
C316 C319 1.403 . S
H317 C323 0.930 . S
C318 H304 0.930 . S
C318 C316 1.395 . S
C318 C321 1.403 . S
C319 C316 1.403 . S
C319 C320 1.524 1_545 S
C319 C323 1.400 . S
C320 H305 0.960 . S
C320 H306 0.960 . S
C320 H307 0.961 1_565 S
C320 C319 1.524 1_565 S
C321 C318 1.403 . S
C321 C322 1.392 . S
C321 C325 1.495 . S
C322 C321 1.392 . S
C322 C323 1.385 . S
C322 C324 1.478 . S
C323 H317 0.930 . S
C323 C319 1.400 . S
C323 C322 1.385 . S
C324 C322 1.478 . S
C324 C326 1.381 . S
C324 C330 1.383 . S
C325 C321 1.495 . S
C325 H331 0.959 . S
C325 H332 0.961 . S
C325 H333 0.960 . S
C326 C324 1.381 . S
C326 C327 1.394 . S
C326 H334 0.930 . S
C327 C326 1.394 . S
C327 C328 1.383 . S
C327 H335 0.929 . S
C328 C327 1.383 . S
C328 C329 1.377 . S
C329 H313 0.930 . S
C329 C328 1.377 . S
C329 C330 1.379 . S
C330 H314 0.931 . S
C330 C324 1.383 . S
C330 C329 1.379 . S
H331 C325 0.959 . S
H332 C325 0.961 . S
H333 C325 0.960 . S
H334 C326 0.930 . S
H335 C327 0.929 . S
H336 C344 0.929 1_545 S
H337 C346 0.930 . S
H338 C348 0.930 . S
H339 C351 0.929 . S
H340 C354 0.930 . S
H341 C356 0.960 . S
H342 C356 0.960 . S
H343 C356 0.960 . S
C344 H336 0.929 1_565 S
C344 C345 1.377 . S
C344 C346 1.384 . S
C345 C344 1.377 . S
C345 C351 1.390 . S
C346 H337 0.930 . S
C346 C344 1.384 . S
C346 C347 1.372 . S
C347 C346 1.372 . S
C347 C348 1.400 . S
C347 C352 1.490 . S
C348 H338 0.930 . S
C348 C347 1.400 . S
C348 C351 1.386 . S
H349 C365 0.930 . S
H350 C366 0.931 . S
C351 H339 0.929 . S
C351 C345 1.390 . S
C351 C348 1.386 . S
C352 C347 1.490 . S
C352 C354 1.395 1_554 S
C352 C355 1.403 . S
H353 C359 0.925 1_554 S
C354 H340 0.930 . S
C354 C352 1.395 1_556 S
C354 C357 1.403 . S
C355 C352 1.403 . S
C355 C356 1.524 . S
C355 C359 1.400 1_554 S
C356 H341 0.960 . S
C356 H342 0.960 . S
C356 H343 0.960 . S
C356 C355 1.524 . S
C357 C354 1.403 . S
C357 C358 1.392 . S
C357 C361 1.495 . S
C358 C357 1.392 . S
C358 C359 1.385 . S
C358 C360 1.478 . S
C359 H353 0.925 1_556 S
C359 C355 1.400 1_556 S
C359 C358 1.385 . S
C360 C358 1.478 . S
C360 C362 1.381 . S
C360 C366 1.383 . S
C361 C357 1.495 . S
C361 H367 0.959 . S
C361 H368 0.961 . S
C361 H369 0.960 . S
C362 C360 1.381 . S
C362 C363 1.394 . S
C362 H370 0.930 . S
C363 C362 1.394 . S
C363 C364 1.383 . S
C363 H371 0.929 . S
C364 C363 1.383 . S
C364 C365 1.377 . S
C365 H349 0.930 . S
C365 C364 1.377 . S
C365 C366 1.379 . S
C366 H350 0.931 . S
C366 C360 1.383 . S
C366 C365 1.379 . S
H367 C361 0.959 . S
H368 C361 0.961 . S
H369 C361 0.960 . S
H370 C362 0.930 . S
H371 C363 0.929 . S
H372 C380 0.929 . S
H373 C382 0.930 . S
H374 C384 0.930 . S
H375 C387 0.929 1_545 S
H376 C390 0.930 . S
H377 C392 0.960 . S
H378 C392 0.960 . S
H379 C392 0.960 . S
C380 H372 0.929 . S
C380 C381 1.377 1_655 S
C380 C382 1.384 . S
C381 C380 1.377 1_455 S
C381 C387 1.390 . S
C382 H373 0.930 . S
C382 C380 1.384 . S
C382 C383 1.372 1_655 S
C383 C382 1.372 1_455 S
C383 C384 1.400 . S
C383 C388 1.490 . S
C384 H374 0.930 . S
C384 C383 1.400 . S
C384 C387 1.386 . S
H385 C401 0.930 . S
H386 C402 0.931 . S
C387 H375 0.929 1_565 S
C387 C381 1.390 . S
C387 C384 1.386 . S
C388 C383 1.490 . S
C388 C390 1.395 1_455 S
C388 C391 1.403 . S
H389 C395 0.930 . S
C390 H376 0.930 . S
C390 C388 1.395 1_655 S
C390 C393 1.403 . S
C391 C388 1.403 . S
C391 C392 1.524 . S
C391 C395 1.400 . S
C392 H377 0.960 . S
C392 H378 0.960 . S
C392 H379 0.960 . S
C392 C391 1.524 . S
C393 C390 1.403 . S
C393 C394 1.392 1_655 S
C393 C397 1.495 . S
C394 C393 1.392 1_455 S
C394 C395 1.385 . S
C394 C396 1.478 . S
C395 H389 0.930 . S
C395 C391 1.400 . S
C395 C394 1.385 . S
C396 C394 1.478 . S
C396 C398 1.382 . S
C396 C402 1.383 . S
C397 C393 1.495 . S
C397 H403 0.959 . S
C397 H404 0.961 . S
C397 H405 0.960 . S
C398 C396 1.382 . S
C398 C399 1.401 . S
C398 H406 0.922 1_455 S
C399 C398 1.401 . S
C399 C400 1.383 . S
C399 H407 0.929 1_455 S
C400 C399 1.383 . S
C400 C401 1.377 . S
C401 H385 0.930 . S
C401 C400 1.377 . S
C401 C402 1.379 . S
C402 H386 0.931 . S
C402 C396 1.383 . S
C402 C401 1.379 . S
H403 C397 0.959 . S
H404 C397 0.961 . S
H405 C397 0.960 . S
H406 C398 0.922 1_655 S
H407 C399 0.929 1_655 S
H408 C416 0.929 . S
H409 C418 0.930 . S
H410 C420 0.930 . S
H411 C423 0.929 . S
H412 C426 0.930 . S
H413 C428 0.960 . S
H414 C428 0.960 . S
H415 C428 0.960 . S
C416 H408 0.929 . S
C416 C417 1.377 . S
C416 C418 1.384 . S
C417 C416 1.377 . S
C417 C423 1.390 . S
C418 H409 0.930 . S
C418 C416 1.384 . S
C418 C419 1.372 . S
C419 C418 1.372 . S
C419 C420 1.400 . S
C419 C424 1.490 . S
C420 H410 0.930 . S
C420 C419 1.400 . S
C420 C423 1.386 . S
H421 C437 0.930 . S
H422 C438 0.931 . S
C423 H411 0.929 . S
C423 C417 1.390 . S
C423 C420 1.386 . S
C424 C419 1.490 . S
C424 C426 1.395 . S
C424 C427 1.403 . S
H425 C431 0.930 . S
C426 H412 0.930 . S
C426 C424 1.395 . S
C426 C429 1.403 . S
C427 C424 1.403 . S
C427 C428 1.524 . S
C427 C431 1.400 . S
C428 H413 0.960 . S
C428 H414 0.960 . S
C428 H415 0.960 . S
C428 C427 1.524 . S
C429 C426 1.403 . S
C429 C430 1.392 . S
C429 C433 1.495 1_545 S
C430 C429 1.392 . S
C430 C431 1.385 . S
C430 C432 1.478 . S
C431 H425 0.930 . S
C431 C427 1.400 . S
C431 C430 1.385 . S
C432 C430 1.478 . S
C432 C434 1.381 . S
C432 C438 1.383 . S
C433 C429 1.495 1_565 S
C433 H439 0.959 . S
C433 H440 0.961 . S
C433 H441 0.960 . S
C434 C432 1.381 . S
C434 C435 1.394 . S
C434 H442 0.930 . S
C435 C434 1.394 . S
C435 C436 1.383 . S
C435 H443 0.929 . S
C436 C435 1.383 . S
C436 C437 1.377 . S
C437 H421 0.930 . S
C437 C436 1.377 . S
C437 C438 1.379 . S
C438 H422 0.931 . S
C438 C432 1.383 . S
C438 C437 1.379 . S
H439 C433 0.959 . S
H440 C433 0.961 . S
H441 C433 0.960 . S
H442 C434 0.930 . S
H443 C435 0.929 . S
H444 C452 0.929 . S
H445 C454 0.930 . S
H446 C456 0.930 . S
H447 C459 0.929 . S
H448 C462 0.930 . S
H449 C464 0.960 . S
H450 C464 0.960 . S
H451 C464 0.960 . S
C452 H444 0.929 . S
C452 C453 1.377 . S
C452 C454 1.384 . S
C453 C452 1.377 . S
C453 C459 1.390 . S
C454 H445 0.930 . S
C454 C452 1.384 . S
C454 C455 1.372 . S
C455 C454 1.372 . S
C455 C456 1.400 . S
C455 C460 1.490 . S
C456 H446 0.930 . S
C456 C455 1.400 . S
C456 C459 1.386 . S
H457 C473 0.930 . S
H458 C474 0.931 . S
C459 H447 0.929 . S
C459 C453 1.390 . S
C459 C456 1.386 . S
C460 C455 1.490 . S
C460 C462 1.395 . S
C460 C463 1.403 1_554 S
H461 C467 0.930 . S
C462 H448 0.930 . S
C462 C460 1.395 . S
C462 C465 1.402 . S
C463 C460 1.403 1_556 S
C463 C464 1.524 . S
C463 C467 1.400 . S
C464 H449 0.960 . S
C464 H450 0.960 . S
C464 H451 0.960 . S
C464 C463 1.524 . S
C465 C462 1.402 . S
C465 C466 1.395 1_554 S
C465 C469 1.495 . S
C466 C465 1.395 1_556 S
C466 C467 1.385 . S
C466 C468 1.478 . S
C467 H461 0.930 . S
C467 C463 1.400 . S
C467 C466 1.385 . S
C468 C466 1.478 . S
C468 C470 1.381 . S
C468 C474 1.383 . S
C469 C465 1.495 . S
C469 H475 0.959 . S
C469 H476 0.961 . S
C469 H477 0.960 1_554 S
C470 C468 1.381 . S
C470 C471 1.394 . S
C470 H478 0.930 . S
C471 C470 1.394 . S
C471 C472 1.383 . S
C471 H479 0.929 . S
C472 C471 1.383 . S
C472 C473 1.377 . S
C473 H457 0.930 . S
C473 C472 1.377 . S
C473 C474 1.379 . S
C474 H458 0.931 . S
C474 C468 1.383 . S
C474 C473 1.379 . S
H475 C469 0.959 . S
H476 C469 0.961 . S
H477 C469 0.960 1_556 S
H478 C470 0.930 . S
H479 C471 0.929 . S
H480 C488 0.929 . S
H481 C490 0.930 . S
H482 C492 0.930 . S
H483 C495 0.929 . S
H484 C498 0.930 . S
H485 C500 0.960 . S
H486 C500 0.960 . S
H487 C500 0.960 1_655 S
C488 H480 0.929 . S
C488 C489 1.377 . S
C488 C490 1.384 . S
C489 C488 1.377 . S
C489 C495 1.390 1_455 S
C490 H481 0.930 . S
C490 C488 1.384 . S
C490 C491 1.372 . S
C491 C490 1.372 . S
C491 C492 1.400 1_455 S
C491 C496 1.490 . S
C492 H482 0.930 . S
C492 C491 1.400 1_655 S
C492 C495 1.386 . S
H493 C509 0.930 1_655 S
H494 C510 0.931 1_655 S
C495 H483 0.929 . S
C495 C489 1.390 1_655 S
C495 C492 1.386 . S
C496 C491 1.490 . S
C496 C498 1.395 . S
C496 C499 1.403 . S
H497 C503 0.930 . S
C498 H484 0.930 . S
C498 C496 1.395 . S
C498 C501 1.403 . S
C499 C496 1.403 . S
C499 C500 1.524 . S
C499 C503 1.400 . S
C500 H485 0.960 . S
C500 H486 0.960 . S
C500 H487 0.960 1_455 S
C500 C499 1.524 . S
C501 C498 1.403 . S
C501 C502 1.392 . S
C501 C505 1.495 . S
C502 C501 1.392 . S
C502 C503 1.385 . S
C502 C504 1.478 . S
C503 H497 0.930 . S
C503 C499 1.400 . S
C503 C502 1.385 . S
C504 C502 1.478 . S
C504 C506 1.381 . S
C504 C510 1.383 . S
C505 C501 1.495 . S
C505 H511 0.959 . S
C505 H512 0.961 . S
C505 H513 0.960 . S
C506 C504 1.381 . S
C506 C507 1.394 . S
C506 H514 0.930 . S
C507 C506 1.394 . S
C507 C508 1.383 . S
C507 H515 0.929 . S
C508 C507 1.383 . S
C508 C509 1.377 . S
C509 H493 0.930 1_455 S
C509 C508 1.377 . S
C509 C510 1.379 . S
C510 H494 0.931 1_455 S
C510 C504 1.383 . S
C510 C509 1.379 . S
H511 C505 0.959 . S
H512 C505 0.961 . S
H513 C505 0.960 . S
H514 C506 0.930 . S
H515 C507 0.929 . S
C112 C43 1.423 . S
C93 C0 1.424 . S
C129 C25 1.456 . S
C148 C69 1.456 . S
C165 C33 1.476 1_565 S
C184 C71 1.476 . S
C201 C11 1.403 . S
C220 C55 1.402 . S
C256 C57 1.456 . S
C237 C14 1.453 . S
C273 C37 1.468 . S
C292 C83 1.466 . S
C328 C56 1.450 . S
C309 C28 1.452 . S
C345 C9 1.470 1_565 S
C364 C82 1.472 . S
C400 C42 1.501 . S
C381 C19 1.503 . S
C436 C68 1.447 . S
C417 C39 1.454 . S
C472 C70 1.471 . S
C453 C5 1.474 . S
C489 C23 1.518 . S
C508 C54 1.524 . S
