# Generated by pormake.
# Topology gar, (4,6)-cn, num edge types: 1
# Building blocks:
#     Node 0, Type 0, BuildingBlock: AZAVOO_clean_sbu_0, # of connection points: 4
#     Node 1, Type 0, BuildingBlock: AZAVOO_clean_sbu_0, # of connection points: 4
#     Node 2, Type 0, BuildingBlock: AZAVOO_clean_sbu_0, # of connection points: 4
#     Node 3, Type 0, BuildingBlock: AZAVOO_clean_sbu_0, # of connection points: 4
#     Node 4, Type 0, BuildingBlock: AZAVOO_clean_sbu_0, # of connection points: 4
#     Node 5, Type 0, BuildingBlock: AZAVOO_clean_sbu_0, # of connection points: 4
#     Node 6, Type 0, BuildingBlock: AZAVOO_clean_sbu_0, # of connection points: 4
#     Node 7, Type 0, BuildingBlock: AZAVOO_clean_sbu_0, # of connection points: 4
#     Node 8, Type 0, BuildingBlock: AZAVOO_clean_sbu_0, # of connection points: 4
#     Node 9, Type 0, BuildingBlock: AZAVOO_clean_sbu_0, # of connection points: 4
#     Node 10, Type 0, BuildingBlock: AZAVOO_clean_sbu_0, # of connection points: 4
#     Node 11, Type 0, BuildingBlock: AZAVOO_clean_sbu_0, # of connection points: 4
#     Node 12, Type 0, BuildingBlock: AZAVOO_clean_sbu_0, # of connection points: 4
#     Node 13, Type 0, BuildingBlock: AZAVOO_clean_sbu_0, # of connection points: 4
#     Node 14, Type 0, BuildingBlock: AZAVOO_clean_sbu_0, # of connection points: 4
#     Node 15, Type 0, BuildingBlock: AZAVOO_clean_sbu_0, # of connection points: 4
#     Node 16, Type 0, BuildingBlock: AZAVOO_clean_sbu_0, # of connection points: 4
#     Node 17, Type 0, BuildingBlock: AZAVOO_clean_sbu_0, # of connection points: 4
#     Node 18, Type 0, BuildingBlock: AZAVOO_clean_sbu_0, # of connection points: 4
#     Node 19, Type 0, BuildingBlock: AZAVOO_clean_sbu_0, # of connection points: 4
#     Node 20, Type 0, BuildingBlock: AZAVOO_clean_sbu_0, # of connection points: 4
#     Node 21, Type 0, BuildingBlock: AZAVOO_clean_sbu_0, # of connection points: 4
#     Node 22, Type 0, BuildingBlock: AZAVOO_clean_sbu_0, # of connection points: 4
#     Node 23, Type 0, BuildingBlock: AZAVOO_clean_sbu_0, # of connection points: 4
#     Node 24, Type 1, BuildingBlock: BETDEL_clean_sbu_0, # of connection points: 6
#     Node 25, Type 1, BuildingBlock: BETDEL_clean_sbu_0, # of connection points: 6
#     Node 26, Type 1, BuildingBlock: BETDEL_clean_sbu_0, # of connection points: 6
#     Node 27, Type 1, BuildingBlock: BETDEL_clean_sbu_0, # of connection points: 6
#     Node 28, Type 1, BuildingBlock: BETDEL_clean_sbu_0, # of connection points: 6
#     Node 29, Type 1, BuildingBlock: BETDEL_clean_sbu_0, # of connection points: 6
#     Node 30, Type 1, BuildingBlock: BETDEL_clean_sbu_0, # of connection points: 6
#     Node 31, Type 1, BuildingBlock: BETDEL_clean_sbu_0, # of connection points: 6
#     Node 32, Type 1, BuildingBlock: BETDEL_clean_sbu_0, # of connection points: 6
#     Node 33, Type 1, BuildingBlock: BETDEL_clean_sbu_0, # of connection points: 6
#     Node 34, Type 1, BuildingBlock: BETDEL_clean_sbu_0, # of connection points: 6
#     Node 35, Type 1, BuildingBlock: BETDEL_clean_sbu_0, # of connection points: 6
#     Node 36, Type 1, BuildingBlock: BETDEL_clean_sbu_0, # of connection points: 6
#     Node 37, Type 1, BuildingBlock: BETDEL_clean_sbu_0, # of connection points: 6
#     Node 38, Type 1, BuildingBlock: BETDEL_clean_sbu_0, # of connection points: 6
#     Node 39, Type 1, BuildingBlock: BETDEL_clean_sbu_0, # of connection points: 6
#     Edge 40, Type (0, 1), BuildingBlock: ZUJKAS_clean_linker_0, # of connection points: 2
#     Edge 41, Type (0, 1), BuildingBlock: ZUJKAS_clean_linker_0, # of connection points: 2
#     Edge 42, Type (0, 1), BuildingBlock: ZUJKAS_clean_linker_0, # of connection points: 2
#     Edge 43, Type (0, 1), BuildingBlock: ZUJKAS_clean_linker_0, # of connection points: 2
#     Edge 44, Type (0, 1), BuildingBlock: ZUJKAS_clean_linker_0, # of connection points: 2
#     Edge 45, Type (0, 1), BuildingBlock: ZUJKAS_clean_linker_0, # of connection points: 2
#     Edge 46, Type (0, 1), BuildingBlock: ZUJKAS_clean_linker_0, # of connection points: 2
#     Edge 47, Type (0, 1), BuildingBlock: ZUJKAS_clean_linker_0, # of connection points: 2
#     Edge 48, Type (0, 1), BuildingBlock: ZUJKAS_clean_linker_0, # of connection points: 2
#     Edge 49, Type (0, 1), BuildingBlock: ZUJKAS_clean_linker_0, # of connection points: 2
#     Edge 50, Type (0, 1), BuildingBlock: ZUJKAS_clean_linker_0, # of connection points: 2
#     Edge 51, Type (0, 1), BuildingBlock: ZUJKAS_clean_linker_0, # of connection points: 2
#     Edge 52, Type (0, 1), BuildingBlock: ZUJKAS_clean_linker_0, # of connection points: 2
#     Edge 53, Type (0, 1), BuildingBlock: ZUJKAS_clean_linker_0, # of connection points: 2
#     Edge 54, Type (0, 1), BuildingBlock: ZUJKAS_clean_linker_0, # of connection points: 2
#     Edge 55, Type (0, 1), BuildingBlock: ZUJKAS_clean_linker_0, # of connection points: 2
#     Edge 56, Type (0, 1), BuildingBlock: ZUJKAS_clean_linker_0, # of connection points: 2
#     Edge 57, Type (0, 1), BuildingBlock: ZUJKAS_clean_linker_0, # of connection points: 2
#     Edge 58, Type (0, 1), BuildingBlock: ZUJKAS_clean_linker_0, # of connection points: 2
#     Edge 59, Type (0, 1), BuildingBlock: ZUJKAS_clean_linker_0, # of connection points: 2
#     Edge 60, Type (0, 1), BuildingBlock: ZUJKAS_clean_linker_0, # of connection points: 2
#     Edge 61, Type (0, 1), BuildingBlock: ZUJKAS_clean_linker_0, # of connection points: 2
#     Edge 62, Type (0, 1), BuildingBlock: ZUJKAS_clean_linker_0, # of connection points: 2
#     Edge 63, Type (0, 1), BuildingBlock: ZUJKAS_clean_linker_0, # of connection points: 2
#     Edge 64, Type (0, 1), BuildingBlock: ZUJKAS_clean_linker_0, # of connection points: 2
#     Edge 65, Type (0, 1), BuildingBlock: ZUJKAS_clean_linker_0, # of connection points: 2
#     Edge 66, Type (0, 1), BuildingBlock: ZUJKAS_clean_linker_0, # of connection points: 2
#     Edge 67, Type (0, 1), BuildingBlock: ZUJKAS_clean_linker_0, # of connection points: 2
#     Edge 68, Type (0, 1), BuildingBlock: ZUJKAS_clean_linker_0, # of connection points: 2
#     Edge 69, Type (0, 1), BuildingBlock: ZUJKAS_clean_linker_0, # of connection points: 2
#     Edge 70, Type (0, 1), BuildingBlock: ZUJKAS_clean_linker_0, # of connection points: 2
#     Edge 71, Type (0, 1), BuildingBlock: ZUJKAS_clean_linker_0, # of connection points: 2
#     Edge 72, Type (0, 1), BuildingBlock: ZUJKAS_clean_linker_0, # of connection points: 2
#     Edge 73, Type (0, 1), BuildingBlock: ZUJKAS_clean_linker_0, # of connection points: 2
#     Edge 74, Type (0, 1), BuildingBlock: ZUJKAS_clean_linker_0, # of connection points: 2
#     Edge 75, Type (0, 1), BuildingBlock: ZUJKAS_clean_linker_0, # of connection points: 2
#     Edge 76, Type (0, 1), BuildingBlock: ZUJKAS_clean_linker_0, # of connection points: 2
#     Edge 77, Type (0, 1), BuildingBlock: ZUJKAS_clean_linker_0, # of connection points: 2
#     Edge 78, Type (0, 1), BuildingBlock: ZUJKAS_clean_linker_0, # of connection points: 2
#     Edge 79, Type (0, 1), BuildingBlock: ZUJKAS_clean_linker_0, # of connection points: 2
#     Edge 80, Type (0, 1), BuildingBlock: ZUJKAS_clean_linker_0, # of connection points: 2
#     Edge 81, Type (0, 1), BuildingBlock: ZUJKAS_clean_linker_0, # of connection points: 2
#     Edge 82, Type (0, 1), BuildingBlock: ZUJKAS_clean_linker_0, # of connection points: 2
#     Edge 83, Type (0, 1), BuildingBlock: ZUJKAS_clean_linker_0, # of connection points: 2
#     Edge 84, Type (0, 1), BuildingBlock: ZUJKAS_clean_linker_0, # of connection points: 2
#     Edge 85, Type (0, 1), BuildingBlock: ZUJKAS_clean_linker_0, # of connection points: 2
#     Edge 86, Type (0, 1), BuildingBlock: ZUJKAS_clean_linker_0, # of connection points: 2
#     Edge 87, Type (0, 1), BuildingBlock: ZUJKAS_clean_linker_0, # of connection points: 2
#     Edge 88, Type (0, 1), BuildingBlock: ZUJKAS_clean_linker_0, # of connection points: 2
#     Edge 89, Type (0, 1), BuildingBlock: ZUJKAS_clean_linker_0, # of connection points: 2
#     Edge 90, Type (0, 1), BuildingBlock: ZUJKAS_clean_linker_0, # of connection points: 2
#     Edge 91, Type (0, 1), BuildingBlock: ZUJKAS_clean_linker_0, # of connection points: 2
#     Edge 92, Type (0, 1), BuildingBlock: ZUJKAS_clean_linker_0, # of connection points: 2
#     Edge 93, Type (0, 1), BuildingBlock: ZUJKAS_clean_linker_0, # of connection points: 2
#     Edge 94, Type (0, 1), BuildingBlock: ZUJKAS_clean_linker_0, # of connection points: 2
#     Edge 95, Type (0, 1), BuildingBlock: ZUJKAS_clean_linker_0, # of connection points: 2
#     Edge 96, Type (0, 1), BuildingBlock: ZUJKAS_clean_linker_0, # of connection points: 2
#     Edge 97, Type (0, 1), BuildingBlock: ZUJKAS_clean_linker_0, # of connection points: 2
#     Edge 98, Type (0, 1), BuildingBlock: ZUJKAS_clean_linker_0, # of connection points: 2
#     Edge 99, Type (0, 1), BuildingBlock: ZUJKAS_clean_linker_0, # of connection points: 2
#     Edge 100, Type (0, 1), BuildingBlock: ZUJKAS_clean_linker_0, # of connection points: 2
#     Edge 101, Type (0, 1), BuildingBlock: ZUJKAS_clean_linker_0, # of connection points: 2
#     Edge 102, Type (0, 1), BuildingBlock: ZUJKAS_clean_linker_0, # of connection points: 2
#     Edge 103, Type (0, 1), BuildingBlock: ZUJKAS_clean_linker_0, # of connection points: 2
#     Edge 104, Type (0, 1), BuildingBlock: ZUJKAS_clean_linker_0, # of connection points: 2
#     Edge 105, Type (0, 1), BuildingBlock: ZUJKAS_clean_linker_0, # of connection points: 2
#     Edge 106, Type (0, 1), BuildingBlock: ZUJKAS_clean_linker_0, # of connection points: 2
#     Edge 107, Type (0, 1), BuildingBlock: ZUJKAS_clean_linker_0, # of connection points: 2
#     Edge 108, Type (0, 1), BuildingBlock: ZUJKAS_clean_linker_0, # of connection points: 2
#     Edge 109, Type (0, 1), BuildingBlock: ZUJKAS_clean_linker_0, # of connection points: 2
#     Edge 110, Type (0, 1), BuildingBlock: ZUJKAS_clean_linker_0, # of connection points: 2
#     Edge 111, Type (0, 1), BuildingBlock: ZUJKAS_clean_linker_0, # of connection points: 2
#     Edge 112, Type (0, 1), BuildingBlock: ZUJKAS_clean_linker_0, # of connection points: 2
#     Edge 113, Type (0, 1), BuildingBlock: ZUJKAS_clean_linker_0, # of connection points: 2
#     Edge 114, Type (0, 1), BuildingBlock: ZUJKAS_clean_linker_0, # of connection points: 2
#     Edge 115, Type (0, 1), BuildingBlock: ZUJKAS_clean_linker_0, # of connection points: 2
#     Edge 116, Type (0, 1), BuildingBlock: ZUJKAS_clean_linker_0, # of connection points: 2
#     Edge 117, Type (0, 1), BuildingBlock: ZUJKAS_clean_linker_0, # of connection points: 2
#     Edge 118, Type (0, 1), BuildingBlock: ZUJKAS_clean_linker_0, # of connection points: 2
#     Edge 119, Type (0, 1), BuildingBlock: ZUJKAS_clean_linker_0, # of connection points: 2
#     Edge 120, Type (0, 1), BuildingBlock: ZUJKAS_clean_linker_0, # of connection points: 2
#     Edge 121, Type (0, 1), BuildingBlock: ZUJKAS_clean_linker_0, # of connection points: 2
#     Edge 122, Type (0, 1), BuildingBlock: ZUJKAS_clean_linker_0, # of connection points: 2
#     Edge 123, Type (0, 1), BuildingBlock: ZUJKAS_clean_linker_0, # of connection points: 2
#     Edge 124, Type (0, 1), BuildingBlock: ZUJKAS_clean_linker_0, # of connection points: 2
#     Edge 125, Type (0, 1), BuildingBlock: ZUJKAS_clean_linker_0, # of connection points: 2
#     Edge 126, Type (0, 1), BuildingBlock: ZUJKAS_clean_linker_0, # of connection points: 2
#     Edge 127, Type (0, 1), BuildingBlock: ZUJKAS_clean_linker_0, # of connection points: 2
#     Edge 128, Type (0, 1), BuildingBlock: ZUJKAS_clean_linker_0, # of connection points: 2
#     Edge 129, Type (0, 1), BuildingBlock: ZUJKAS_clean_linker_0, # of connection points: 2
#     Edge 130, Type (0, 1), BuildingBlock: ZUJKAS_clean_linker_0, # of connection points: 2
#     Edge 131, Type (0, 1), BuildingBlock: ZUJKAS_clean_linker_0, # of connection points: 2
#     Edge 132, Type (0, 1), BuildingBlock: ZUJKAS_clean_linker_0, # of connection points: 2
#     Edge 133, Type (0, 1), BuildingBlock: ZUJKAS_clean_linker_0, # of connection points: 2
#     Edge 134, Type (0, 1), BuildingBlock: ZUJKAS_clean_linker_0, # of connection points: 2
#     Edge 135, Type (0, 1), BuildingBlock: ZUJKAS_clean_linker_0, # of connection points: 2
# Relax obj value: 0.164
# Max RMSD: 0.264
# Mean RMSD: 0.189
data_MOF--net-gar--node1-AZAVOO_clean_sbu_0--node2-BETDEL_clean_sbu_0--edge1-ZUJKAS_clean_linker_0
_symmetry_space_group_name_H-M    P1
_symmetry_Int_Tables_number       1
_symmetry_cell_setting            triclinic
loop_
_symmetry_equiv_pos_as_xyz
'x, y, z'
_cell_length_a     72.556559
_cell_length_b     67.184178
_cell_length_c     69.838846
_cell_angle_alpha  97.464889
_cell_angle_beta   92.366539
_cell_angle_gamma 101.34853
loop_
_atom_site_label
_atom_site_type_symbol
_atom_site_fract_x
_atom_site_fract_y
_atom_site_fract_z
_atom_type_partial_charge
Mg0 Mg 0.00345 0.27152 0.39078 0.0
O1 O 0.00978 0.2987 0.41537 0.0
O2 O 0.98335 0.2977 0.43092 0.0
Mg3 Mg 0.96107 0.26998 0.41731 0.0
C4 C 0.00037 0.30604 0.42863 0.0
C5 C 0.03592 0.2639 0.3687 0.0
O6 O 0.02068 0.25217 0.35944 0.0
O7 O 0.00621 0.24956 0.41228 0.0
O8 O 0.97947 0.24825 0.42726 0.0
O9 O 0.99286 0.29138 0.37186 0.0
O10 O 0.9749 0.27203 0.39009 0.0
C11 C 0.99513 0.24259 0.42466 0.0
C12 C 0.97659 0.28575 0.37861 0.0
O13 O 0.03421 0.27501 0.38443 0.0
Mg14 Mg 0.98699 0.79588 0.6511 0.0
O15 O 0.98364 0.76313 0.63642 0.0
O16 O 0.95573 0.75201 0.62009 0.0
Mg17 Mg 0.94068 0.77916 0.62501 0.0
C18 C 0.97186 0.74919 0.6257 0.0
C19 C 0.02176 0.7821 0.66536 0.0
O20 O 0.00789 0.77065 0.67289 0.0
O21 O 0.99107 0.80736 0.62222 0.0
O22 O 0.96214 0.79835 0.60745 0.0
O23 O 0.97447 0.78527 0.67732 0.0
O24 O 0.95784 0.792 0.65256 0.0
C25 C 0.9795 0.80717 0.6079 0.0
C26 C 0.9582 0.78557 0.66916 0.0
O27 O 0.01812 0.79576 0.65564 0.0
Mg28 Mg 0.50281 0.7692 0.88349 0.0
O29 O 0.50741 0.79734 0.90719 0.0
O30 O 0.48054 0.79532 0.92207 0.0
Mg31 Mg 0.45936 0.76667 0.90856 0.0
C32 C 0.49737 0.80444 0.91998 0.0
C33 C 0.54225 0.79019 0.87229 0.0
O34 O 0.53289 0.80477 0.87041 0.0
O35 O 0.50558 0.74812 0.9059 0.0
O36 O 0.47819 0.74607 0.91977 0.0
O37 O 0.49158 0.78706 0.86284 0.0
O38 O 0.47398 0.76835 0.88171 0.0
C39 C 0.49416 0.74097 0.91793 0.0
C40 C 0.47523 0.78108 0.86929 0.0
O41 O 0.53406 0.77409 0.87866 0.0
Mg42 Mg 0.48974 0.29544 0.15448 0.0
O43 O 0.48038 0.26372 0.137 0.0
O44 O 0.45172 0.2609 0.12273 0.0
Mg45 Mg 0.44223 0.29107 0.13229 0.0
C46 C 0.46624 0.25349 0.12611 0.0
C47 C 0.52589 0.28608 0.17286 0.0
O48 O 0.51533 0.2868 0.18766 0.0
O49 O 0.49475 0.30942 0.1266 0.0
O50 O 0.4652 0.3084 0.11533 0.0
O51 O 0.47649 0.28393 0.18028 0.0
O52 O 0.46169 0.29719 0.15842 0.0
C53 C 0.48302 0.31353 0.11429 0.0
C54 C 0.46109 0.28846 0.1738 0.0
O55 O 0.5196 0.28966 0.15668 0.0
Mg56 Mg 0.01817 0.7921 0.15112 0.0
O57 O 0.01662 0.76058 0.13324 0.0
O58 O 0.9888 0.75202 0.11627 0.0
Mg59 Mg 0.97191 0.77687 0.12477 0.0
C60 C 0.00489 0.74834 0.12083 0.0
C61 C 0.05923 0.81269 0.16491 0.0
O62 O 0.05079 0.82832 0.16783 0.0
O63 O 0.022 0.80722 0.12384 0.0
O64 O 0.99275 0.79924 0.10971 0.0
O65 O 0.00533 0.77835 0.17619 0.0
O66 O 0.98913 0.78698 0.15227 0.0
C67 C 0.01 0.8085 0.11038 0.0
C68 C 0.98917 0.77959 0.16836 0.0
O69 O 0.04966 0.79536 0.15725 0.0
Mg70 Mg 0.48209 0.7272 0.36086 0.0
O71 O 0.48236 0.75899 0.3781 0.0
O72 O 0.45588 0.75572 0.39383 0.0
Mg73 Mg 0.43821 0.72345 0.38549 0.0
C74 C 0.47145 0.76637 0.38974 0.0
C75 C 0.51975 0.75107 0.34729 0.0
O76 O 0.50836 0.76297 0.34273 0.0
O77 O 0.48845 0.71496 0.38886 0.0
O78 O 0.46058 0.71096 0.4019 0.0
O79 O 0.46762 0.73566 0.33532 0.0
O80 O 0.45271 0.72123 0.35851 0.0
C81 C 0.4778 0.70921 0.40208 0.0
C82 C 0.45189 0.72941 0.34287 0.0
O83 O 0.51336 0.73577 0.35577 0.0
Mg84 Mg 0.50917 0.28676 0.64705 0.0
O85 O 0.50927 0.25511 0.63023 0.0
O86 O 0.48059 0.24286 0.6156 0.0
Mg87 Mg 0.46206 0.26615 0.62366 0.0
C88 C 0.49757 0.2412 0.61925 0.0
C89 C 0.54868 0.30917 0.66302 0.0
O90 O 0.53809 0.32183 0.66991 0.0
O91 O 0.50985 0.30024 0.61882 0.0
O92 O 0.48018 0.28869 0.60634 0.0
O93 O 0.49931 0.27333 0.67332 0.0
O94 O 0.48043 0.27904 0.64994 0.0
C95 C 0.49676 0.29939 0.60575 0.0
C96 C 0.48234 0.27241 0.66624 0.0
O97 O 0.541 0.29305 0.65168 0.0
Mg98 Mg 0.97792 0.23283 0.86013 0.0
O99 O 0.97901 0.26424 0.87858 0.0
O100 O 0.953 0.2605 0.89508 0.0
Mg101 Mg 0.93474 0.22861 0.88592 0.0
C102 C 0.96851 0.27125 0.89094 0.0
C103 C 0.01447 0.25092 0.84089 0.0
O104 O 0.00197 0.25815 0.83119 0.0
O105 O 0.9846 0.21937 0.88725 0.0
O106 O 0.95717 0.21494 0.90114 0.0
O107 O 0.96316 0.24243 0.83546 0.0
O108 O 0.94851 0.22737 0.85843 0.0
C109 C 0.97435 0.21309 0.90056 0.0
C110 C 0.94753 0.23609 0.84313 0.0
O111 O 0.00918 0.24081 0.85457 0.0
Mg112 Mg 0.39311 0.05637 0.2652 0.0
O113 O 0.37831 0.02771 0.27629 0.0
O114 O 0.37715 0.0324 0.30835 0.0
Mg115 Mg 0.39219 0.06589 0.31796 0.0
C116 C 0.37339 0.02109 0.29196 0.0
C117 C 0.38245 0.03572 0.21854 0.0
O118 O 0.36824 0.02723 0.20593 0.0
O119 O 0.36737 0.07001 0.27069 0.0
O120 O 0.36758 0.07632 0.30293 0.0
O121 O 0.42082 0.04673 0.26983 0.0
O122 O 0.40849 0.06605 0.29169 0.0
C123 C 0.36022 0.07656 0.28604 0.0
C124 C 0.42158 0.05619 0.28733 0.0
O125 O 0.37872 0.04178 0.23566 0.0
Mg126 Mg 0.27918 0.14873 0.4884 0.0
O127 O 0.27988 0.16689 0.51867 0.0
O128 O 0.30824 0.18723 0.52532 0.0
Mg129 Mg 0.32608 0.18101 0.49954 0.0
C130 C 0.29156 0.18047 0.52998 0.0
C131 C 0.2402 0.12967 0.50148 0.0
O132 O 0.25161 0.12571 0.51494 0.0
O133 O 0.27787 0.17708 0.47395 0.0
O134 O 0.30753 0.19482 0.47928 0.0
O135 O 0.28994 0.12367 0.50055 0.0
O136 O 0.30823 0.15023 0.49081 0.0
C137 C 0.2908 0.19229 0.47151 0.0
C138 C 0.30676 0.13339 0.4981 0.0
O139 O 0.24719 0.13958 0.48827 0.0
Mg140 Mg 0.11788 0.99548 0.77478 0.0
O141 O 0.1378 0.02619 0.78479 0.0
O142 O 0.15276 0.02534 0.81312 0.0
Mg143 Mg 0.14227 0.99321 0.82111 0.0
C144 C 0.14947 0.03475 0.79901 0.0
C145 C 0.12802 0.01373 0.73615 0.0
O146 O 0.14532 0.01633 0.74381 0.0
O147 O 0.1425 0.98069 0.76622 0.0
O148 O 0.1562 0.97898 0.79507 0.0
O149 O 0.09548 0.00659 0.79128 0.0
O150 O 0.11572 0.98997 0.80332 0.0
C151 C 0.15524 0.97556 0.77657 0.0
C152 C 0.10214 -0.0004 0.80595 0.0
O153 O 0.11434 0.00533 0.74511 0.0
Mg154 Mg 0.24738 0.88939 0.01431 0.0
O155 O 0.24717 0.8702 0.98437 0.0
O156 O 0.27131 0.85414 0.98605 0.0
Mg157 Mg 0.28593 0.8618 0.01627 0.0
C158 C 0.2574 0.85827 0.97666 0.0
C159 C 0.21223 0.90463 0.02244 0.0
O160 O 0.22117 0.90541 0.03936 0.0
O161 O 0.23464 0.86103 0.02728 0.0
O162 O 0.25907 0.84533 0.02873 0.0
O163 O 0.26721 0.91531 0.00514 0.0
O164 O 0.27599 0.89077 0.01933 0.0
C165 C 0.24198 0.84632 0.03166 0.0
C166 C 0.28062 0.90711 0.01133 0.0
O167 O 0.21888 0.89667 0.00744 0.0
Mg168 Mg 0.26593 0.40072 0.04061 0.0
O169 O 0.26522 0.3785 0.01242 0.0
O170 O 0.29098 0.36506 0.01377 0.0
Mg171 Mg 0.30777 0.37812 0.04263 0.0
C172 C 0.27577 0.36685 0.00492 0.0
C173 C 0.22693 0.41118 0.0473 0.0
O174 O 0.23499 0.41516 0.06495 0.0
O175 O 0.25727 0.37427 0.05822 0.0
O176 O 0.28392 0.36237 0.05963 0.0
O177 O 0.28274 0.42553 0.0265 0.0
O178 O 0.2952 0.4054 0.04366 0.0
C179 C 0.26695 0.36199 0.0641 0.0
C180 C 0.29756 0.41975 0.0329 0.0
O181 O 0.23567 0.40353 0.03372 0.0
Mg182 Mg 0.78576 0.14078 0.00102 0.0
O183 O 0.78971 0.16363 0.02868 0.0
O184 O 0.81966 0.18051 0.03273 0.0
Mg185 Mg 0.83471 0.16846 0.00681 0.0
C186 C 0.80292 0.17699 0.03829 0.0
C187 C 0.7462 0.11794 0.00565 0.0
O188 O 0.7564 0.10386 0.00607 0.0
O189 O 0.78607 0.16676 0.98351 0.0
O190 O 0.8164 0.18258 0.98653 0.0
O191 O 0.79384 0.11763 0.01751 0.0
O192 O 0.81411 0.13909 0.0032 0.0
C193 C 0.79942 0.1808 0.97969 0.0
C194 C 0.81107 0.12477 0.01403 0.0
O195 O 0.75416 0.13587 0.003 0.0
Mg196 Mg 0.10268 0.48598 0.25435 0.0
O197 O 0.1197 0.51898 0.26165 0.0
O198 O 0.13414 0.52224 0.29112 0.0
Mg199 Mg 0.12685 0.49152 0.3025 0.0
C200 C 0.13049 0.52965 0.2758 0.0
C201 C 0.08784 0.47534 0.21183 0.0
O202 O 0.08173 0.45822 0.21887 0.0
O203 O 0.13005 0.47515 0.24815 0.0
O204 O 0.14303 0.47818 0.27826 0.0
O205 O 0.0781 0.49486 0.26949 0.0
O206 O 0.10101 0.48347 0.2835 0.0
C207 C 0.14333 0.47332 0.25999 0.0
C208 C 0.08592 0.49067 0.28507 0.0
O209 O 0.09767 0.4905 0.22298 0.0
Mg210 Mg 0.76597 0.90258 0.54421 0.0
O211 O 0.76478 0.88117 0.51531 0.0
O212 O 0.78874 0.86495 0.51718 0.0
Mg213 Mg 0.80515 0.87576 0.54659 0.0
C214 C 0.77447 0.86851 0.50791 0.0
C215 C 0.73388 0.91717 0.52262 0.0
O216 O 0.7478 0.92148 0.5114 0.0
O217 O 0.75459 0.8756 0.56039 0.0
O218 O 0.77982 0.86136 0.56259 0.0
O219 O 0.7852 0.92728 0.53195 0.0
O220 O 0.79508 0.90465 0.54789 0.0
C221 C 0.76288 0.86223 0.56641 0.0
C222 C 0.79906 0.91973 0.53809 0.0
O223 O 0.73648 0.90817 0.53714 0.0
Mg224 Mg 0.89353 0.05249 0.25423 0.0
O225 O 0.87159 0.0218 0.25008 0.0
O226 O 0.85909 0.01983 0.2787 0.0
Mg227 Mg 0.87172 0.04796 0.3003 0.0
C228 C 0.86035 0.01237 0.26115 0.0
C229 C 0.90348 0.03592 0.21352 0.0
O230 O 0.90477 0.02067 0.22319 0.0
O231 O 0.87021 0.07083 0.25299 0.0
O232 O 0.85838 0.06796 0.2818 0.0
O233 O 0.91516 0.03619 0.2643 0.0
O234 O 0.89685 0.05076 0.28373 0.0
C235 C 0.85868 0.07485 0.26558 0.0
C236 C 0.90923 0.03944 0.28142 0.0
O237 O 0.89737 0.05107 0.22184 0.0
Mg238 Mg 0.27561 0.63298 0.48925 0.0
O239 O 0.27702 0.65132 0.5197 0.0
O240 O 0.30772 0.66365 0.52797 0.0
Mg241 Mg 0.3255 0.65151 0.50473 0.0
C242 C 0.29038 0.66205 0.53145 0.0
C243 C 0.22891 0.6275 0.48584 0.0
O244 O 0.21443 0.63217 0.47682 0.0
O245 O 0.28468 0.66272 0.47756 0.0
O246 O 0.31555 0.67314 0.48524 0.0
O247 O 0.27622 0.60366 0.50139 0.0
O248 O 0.30125 0.62603 0.49559 0.0
C249 C 0.30014 0.67541 0.47712 0.0
C250 C 0.29442 0.60922 0.50201 0.0
O251 O 0.24537 0.63558 0.48187 0.0
Mg252 Mg 0.38767 0.54424 0.75056 0.0
O253 O 0.36651 0.5141 0.75216 0.0
O254 O 0.35834 0.51572 0.78279 0.0
Mg255 Mg 0.37319 0.5462 0.80014 0.0
C256 C 0.35735 0.50626 0.76557 0.0
C257 C 0.39234 0.55477 0.71012 0.0
O258 O 0.3955 0.57258 0.72129 0.0
O259 O 0.36393 0.56194 0.75064 0.0
O260 O 0.35665 0.56351 0.78149 0.0
O261 O 0.41047 0.52887 0.75918 0.0
O262 O 0.39545 0.54684 0.77984 0.0
C263 C 0.35434 0.56787 0.76439 0.0
C264 C 0.40727 0.53496 0.77685 0.0
O265 O 0.38668 0.53865 0.71772 0.0
Mg266 Mg 0.60304 0.98871 0.74759 0.0
O267 O 0.61955 0.02203 0.75305 0.0
O268 O 0.63237 0.02835 0.78342 0.0
Mg269 Mg 0.62417 -0.00077 0.79734 0.0
C270 C 0.62956 0.03403 0.76699 0.0
C271 C 0.59362 0.00495 0.70984 0.0
O272 O 0.59059 0.01963 0.72295 0.0
O273 O 0.63089 0.97819 0.74507 0.0
O274 O 0.64216 0.9839 0.77602 0.0
O275 O 0.57731 0.99815 0.7589 0.0
O276 O 0.59929 0.98928 0.77689 0.0
C277 C 0.6435 0.97754 0.75816 0.0
C278 C 0.5839 0.99601 0.77585 0.0
O279 O 0.59974 0.99 0.71533 0.0
Mg280 Mg 0.78106 0.65187 0.99083 0.0
O281 O 0.78164 0.67064 0.02072 0.0
O282 O 0.80971 0.69166 0.02682 0.0
Mg283 Mg 0.82747 0.68501 0.00103 0.0
C284 C 0.79316 0.68467 0.03171 0.0
C285 C 0.74239 0.6235 0.98945 0.0
O286 O 0.75377 0.61054 0.98693 0.0
O287 O 0.77909 0.67936 0.97561 0.0
O288 O 0.80856 0.69766 0.97999 0.0
O289 O 0.79182 0.62754 0.00376 0.0
O290 O 0.81019 0.65367 0.99333 0.0
C291 C 0.79169 0.69449 0.9724 0.0
C292 C 0.80864 0.63713 0.00119 0.0
O293 O 0.74927 0.6426 0.99115 0.0
Mg294 Mg 0.89868 0.56276 0.77536 0.0
O295 O 0.88252 0.53212 0.78211 0.0
O296 O 0.88083 0.53265 0.81401 0.0
Mg297 Mg 0.89698 0.56447 0.82797 0.0
C298 C 0.87703 0.52349 0.79668 0.0
C299 C 0.89025 0.5478 0.72807 0.0
O300 O 0.87741 0.54221 0.71351 0.0
O301 O 0.87358 0.57684 0.78322 0.0
O302 O 0.87346 0.57852 0.81536 0.0
O303 O 0.92596 0.55164 0.77752 0.0
O304 O 0.91349 0.56717 0.80211 0.0
C305 C 0.86651 0.58165 0.79917 0.0
C306 C 0.92629 0.55764 0.79595 0.0
O307 O 0.88504 0.55371 0.74462 0.0
Mg308 Mg 0.76792 0.42338 0.51677 0.0
O309 O 0.76758 0.40266 0.48753 0.0
O310 O 0.791 0.3858 0.49077 0.0
Mg311 Mg 0.80694 0.39629 0.52028 0.0
C312 C 0.77719 0.38955 0.48088 0.0
C313 C 0.73718 0.44585 0.50327 0.0
O314 O 0.75257 0.45791 0.49902 0.0
O315 O 0.75568 0.39538 0.53106 0.0
O316 O 0.78081 0.38116 0.53431 0.0
O317 O 0.78803 0.4493 0.50689 0.0
O318 O 0.79675 0.42498 0.52124 0.0
C319 C 0.76358 0.38168 0.53696 0.0
C320 C 0.80146 0.44117 0.5131 0.0
O321 O 0.73854 0.4294 0.50991 0.0
Mg322 Mg 0.62613 0.50496 0.28367 0.0
O323 O 0.64572 0.53618 0.29136 0.0
O324 O 0.66301 0.53709 0.31871 0.0
Mg325 Mg 0.65392 0.50557 0.32865 0.0
C326 C 0.65833 0.54558 0.30444 0.0
C327 C 0.60497 0.518 0.24943 0.0
O328 O 0.59223 0.51761 0.26228 0.0
O329 O 0.65065 0.4908 0.27389 0.0
O330 O 0.66645 0.49046 0.302 0.0
O331 O 0.60438 0.51574 0.30144 0.0
O332 O 0.6261 0.50045 0.31262 0.0
C333 C 0.66424 0.48635 0.28354 0.0
C334 C 0.61203 0.50919 0.31583 0.0
O335 O 0.62055 0.51318 0.25372 0.0
Dy336 Dy -0.00157 0.02427 0.01895 0.0
C337 C 0.07883 0.03303 0.02062 0.0
C338 C 0.96186 0.02491 0.02536 0.0
Dy339 Dy 0.04206 0.03513 0.02481 0.0
O340 O 0.96788 0.01931 0.00862 0.0
O341 O 0.97577 0.02993 0.03845 0.0
O342 O 7e-05 0.00668 0.98968 0.0
O343 O 0.02137 0.03226 0.00075 0.0
C344 C 0.01656 0.01754 0.98722 0.0
C345 C 0.02314 0.0407 0.05644 0.0
O346 O 0.03789 0.06469 0.01593 0.0
O347 O 0.0055 0.05867 0.0192 0.0
O348 O 0.07194 0.03868 0.03687 0.0
O349 O 0.06573 0.02931 0.00665 0.0
O350 O 0.03924 0.05251 0.05426 0.0
O351 O 0.01911 0.02637 0.04258 0.0
O352 O 0.00284 0.99431 0.02647 0.0
O353 O 0.03511 0.00057 0.02279 0.0
C354 C 0.02164 0.07094 0.01629 0.0
C355 C 0.01902 0.98803 0.02522 0.0
Dy356 Dy 0.24694 0.77297 0.24504 0.0
C357 C 0.26118 0.77736 0.32771 0.0
C358 C 0.23858 0.77564 0.20724 0.0
Dy359 Dy 0.24994 0.77764 0.29016 0.0
O360 O 0.255 0.7824 0.2164 0.0
O361 O 0.22668 0.76719 0.21865 0.0
O362 O 0.26981 0.75478 0.24357 0.0
O363 O 0.26961 0.77731 0.26742 0.0
C364 C 0.27748 0.76304 0.26065 0.0
C365 C 0.21955 0.78738 0.27384 0.0
O366 O 0.26393 0.809 0.28624 0.0
O367 O 0.25359 0.80737 0.25395 0.0
O368 O 0.2437 0.7728 0.32077 0.0
O369 O 0.27228 0.78183 0.31416 0.0
O370 O 0.22697 0.79615 0.2909 0.0
O371 O 0.22765 0.7732 0.26772 0.0
O372 O 0.232 0.74167 0.24928 0.0
O373 O 0.24222 0.74343 0.28166 0.0
C374 C 0.26174 0.81778 0.27066 0.0
C375 C 0.23371 0.73301 0.26512 0.0
Dy376 Dy 0.53926 0.01972 0.48995 0.0
C377 C 0.46241 0.03166 0.48484 0.0
C378 C 0.57254 0.0085 0.49842 0.0
Dy379 Dy 0.49659 0.02091 0.48937 0.0
O380 O 0.56976 0.01948 0.48495 0.0
O381 O 0.55727 0.00399 0.50735 0.0
O382 O 0.54252 0.03602 0.46372 0.0
O383 O 0.51667 0.01705 0.46766 0.0
C384 C 0.52488 0.02984 0.45754 0.0
C385 C 0.51171 0.0111 0.52163 0.0
O386 O 0.49457 0.98987 0.4724 0.0
O387 O 0.52465 0.98645 0.48243 0.0
O388 O 0.46591 0.01785 0.4951 0.0
O389 O 0.47746 0.03912 0.47659 0.0
O390 O 0.49417 0.00419 0.51556 0.0
O391 O 0.51924 0.02398 0.51137 0.0
O392 O 0.54134 0.05133 0.50601 0.0
O393 O 0.51089 0.05421 0.49679 0.0
C394 C 0.50742 0.97853 0.47432 0.0
C395 C 0.52815 0.06238 0.50466 0.0
Dy396 Dy 0.23343 0.26385 0.76246 0.0
C397 C 0.31521 0.26615 0.76333 0.0
C398 C 0.19614 0.25152 0.76754 0.0
Dy399 Dy 0.27793 0.26524 0.76742 0.0
O400 O 0.20278 0.26136 0.75359 0.0
O401 O 0.20988 0.24807 0.77832 0.0
O402 O 0.23538 0.29663 0.75645 0.0
O403 O 0.25927 0.28507 0.76132 0.0
C404 C 0.25373 0.3008 0.75767 0.0
C405 C 0.2545 0.23349 0.77858 0.0
O406 O 0.27439 0.28443 0.79498 0.0
O407 O 0.24156 0.2744 0.79429 0.0
O408 O 0.30228 0.2497 0.76283 0.0
O409 O 0.30783 0.28237 0.76624 0.0
O410 O 0.27109 0.24126 0.7871 0.0
O411 O 0.25187 0.24215 0.76407 0.0
O412 O 0.23833 0.24921 0.7328 0.0
O413 O 0.27125 0.25894 0.73526 0.0
C414 C 0.25819 0.28352 0.80335 0.0
C415 C 0.25495 0.25122 0.72503 0.0
Dy416 Dy 0.00866 0.01275 0.48589 0.0
C417 C 0.05387 0.04525 0.55761 0.0
C418 C 0.98521 0.99594 0.45396 0.0
Dy419 Dy 0.02947 0.02871 0.52625 0.0
O420 O 0.00254 0.99389 0.45646 0.0
O421 O 0.98065 0.00691 0.46905 0.0
O422 O 0.03331 0.02953 0.47204 0.0
O423 O 0.03769 0.01778 0.49791 0.0
C424 C 0.04548 0.0285 0.48583 0.0
C425 C 0.9926 0.01311 0.52638 0.0
O426 O 0.02824 0.05812 0.5143 0.0
O427 O 0.00508 0.04509 0.4893 0.0
O428 O 0.03586 0.04474 0.55682 0.0
O429 O 0.05856 0.037 0.54116 0.0
O430 O 0.00474 0.01225 0.5403 0.0
O431 O 0.00047 0.02369 0.51425 0.0
O432 O 0.00825 0.98367 0.49853 0.0
O433 O 0.03179 0.99578 0.52329 0.0
C434 C 0.01616 0.06069 0.50044 0.0
C435 C 0.01998 0.98054 0.51239 0.0
Dy436 Dy 0.2718 0.78257 0.75439 0.0
C437 C 0.20044 0.74645 0.71346 0.0
C438 C 0.30351 0.79741 0.77825 0.0
Dy439 Dy 0.23207 0.76011 0.73764 0.0
O440 O 0.30144 0.80077 0.76046 0.0
O441 O 0.28823 0.78605 0.78301 0.0
O442 O 0.28086 0.7862 0.72427 0.0
O443 O 0.26036 0.76104 0.72882 0.0
C444 C 0.26847 0.77037 0.71609 0.0
C445 C 0.23532 0.77183 0.77594 0.0
O446 O 0.24503 0.73283 0.73987 0.0
O447 O 0.27075 0.75019 0.76052 0.0
O448 O 0.20202 0.74321 0.73135 0.0
O449 O 0.21622 0.75686 0.70877 0.0
O450 O 0.2231 0.75593 0.76759 0.0
O451 O 0.24342 0.78153 0.76338 0.0
O452 O 0.2588 0.80974 0.75215 0.0
O453 O 0.23332 0.79244 0.73124 0.0
C454 C 0.25976 0.73287 0.75182 0.0
C455 C 0.24429 0.80972 0.73996 0.0
Dy456 Dy 0.51206 0.03726 0.04351 0.0
C457 C 0.51159 0.03009 0.96024 0.0
C458 C 0.50662 0.04644 0.08176 0.0
Dy459 Dy 0.50809 0.03613 -0.00091 0.0
O460 O 0.51841 0.03541 0.07508 0.0
O461 O 0.49793 0.05233 0.06759 0.0
O462 O 0.52852 0.01198 0.04034 0.0
O463 O 0.50824 0.01354 0.01863 0.0
C464 C 0.52123 0.00463 0.0229 0.0
C465 C 0.49777 0.06762 0.02015 0.0
O466 O 0.48002 0.01732 0.00255 0.0
O467 O 0.48104 0.02381 0.03623 0.0
O468 O 0.50851 0.04682 0.96992 0.0
O469 O 0.5127 0.01662 0.97177 0.0
O470 O 0.4897 0.05934 0.00325 0.0
O471 O 0.51166 0.05983 0.02408 0.0
O472 O 0.53988 0.05662 0.03922 0.0
O473 O 0.53922 0.04611 0.00609 0.0
C474 C 0.47186 0.01628 0.01911 0.0
C475 C 0.54828 0.05536 0.02274 0.0
Dy476 Dy 0.25138 0.29631 0.26917 0.0
C477 C 0.24138 0.20971 0.27489 0.0
C478 C 0.25094 0.33425 0.25993 0.0
Dy479 Dy 0.24501 0.24874 0.26693 0.0
O480 O 0.24838 0.32899 0.27709 0.0
O481 O 0.25387 0.31886 0.24802 0.0
O482 O 0.27125 0.30017 0.29584 0.0
O483 O 0.24904 0.27464 0.28976 0.0
C484 C 0.26341 0.2826 0.30085 0.0
C485 C 0.24405 0.26327 0.23296 0.0
O486 O 0.21688 0.25359 0.27616 0.0
O487 O 0.22087 0.28892 0.2754 0.0
O488 O 0.23254 0.21495 0.26033 0.0
O489 O 0.25193 0.22579 0.28504 0.0
O490 O 0.24998 0.24661 0.23507 0.0
O491 O 0.23783 0.2701 0.24846 0.0
O492 O 0.2776 0.28946 0.25651 0.0
O493 O 0.27634 0.25795 0.26715 0.0
C494 C 0.21054 0.27098 0.27822 0.0
C495 C 0.28551 0.27395 0.25979 0.0
Dy496 Dy 0.51212 0.50848 0.98167 0.0
C497 C 0.54376 0.5438 0.06073 0.0
C498 C 0.48967 0.49211 0.94916 0.0
Dy499 Dy 0.52518 0.53069 0.02527 0.0
O500 O 0.50683 0.48963 0.95227 0.0
O501 O 0.48477 0.50338 0.96387 0.0
O502 O 0.54074 0.51662 0.96928 0.0
O503 O 0.53674 0.52592 0.99785 0.0
C504 C 0.54881 0.52693 0.98554 0.0
C505 C 0.48813 0.51826 0.01621 0.0
O506 O 0.52591 0.55791 0.00998 0.0
O507 O 0.5076 0.54079 0.98206 0.0
O508 O 0.52566 0.54105 0.05718 0.0
O509 O 0.55179 0.53968 0.04482 0.0
O510 O 0.49532 0.53398 0.0291 0.0
O511 O 0.50089 0.50927 0.01017 0.0
O512 O 0.51592 0.48124 0.99565 0.0
O513 O 0.52865 0.4983 0.02625 0.0
C514 C 0.51607 0.55788 0.9935 0.0
C515 C 0.5235 0.48142 0.01337 0.0
Dy516 Dy 0.78097 0.29508 0.2597 0.0
C517 C 0.70647 0.2569 0.22727 0.0
C518 C 0.81491 0.31078 0.27956 0.0
Dy519 Dy 0.74047 0.27203 0.24733 0.0
O520 O 0.81256 0.30128 0.26196 0.0
O521 O 0.79869 0.31197 0.28629 0.0
O522 O 0.78587 0.29927 0.22889 0.0
O523 O 0.76762 0.27281 0.23518 0.0
C524 C 0.77394 0.28255 0.22179 0.0
C525 C 0.74748 0.28584 0.28521 0.0
O526 O 0.75382 0.24514 0.24931 0.0
O527 O 0.78003 0.26373 0.26847 0.0
O528 O 0.70971 0.2573 0.24576 0.0
O529 O 0.72191 0.26444 0.2197 0.0
O530 O 0.73532 0.26916 0.27863 0.0
O531 O 0.75377 0.29469 0.27137 0.0
O532 O 0.76878 0.3222 0.25544 0.0
O533 O 0.74056 0.30366 0.23956 0.0
C534 C 0.76921 0.24599 0.26056 0.0
C535 C 0.75264 0.32124 0.24543 0.0
Dy536 Dy 0.03676 0.53347 0.56694 0.0
C537 C 0.04324 0.52774 0.48251 0.0
C538 C 0.02818 0.53814 0.60463 0.0
Dy539 Dy 0.04022 0.53644 0.5212 0.0
O540 O 0.03793 0.55251 0.59617 0.0
O541 O 0.02338 0.52126 0.59255 0.0
O542 O 0.04867 0.50475 0.56275 0.0
O543 O 0.03336 0.51277 0.53981 0.0
C544 C 0.04327 0.5005 0.5444 0.0
C545 C 0.03876 0.57272 0.54227 0.0
O546 O 0.00968 0.52321 0.52238 0.0
O547 O 0.00684 0.53162 0.55554 0.0
O548 O 0.03129 0.53785 0.49039 0.0
O549 O 0.05359 0.52232 0.4958 0.0
O550 O 0.04037 0.57072 0.52368 0.0
O551 O 0.03898 0.55571 0.54753 0.0
O552 O 0.06762 0.54636 0.56616 0.0
O553 O 0.06998 0.539 0.53268 0.0
C554 C -0.00062 0.52537 0.5375 0.0
C555 C 0.07764 0.54469 0.5507 0.0
Dy556 Dy 0.7387 0.77599 0.26292 0.0
C557 C 0.82088 0.79026 0.26241 0.0
C558 C 0.70121 0.77136 0.26859 0.0
Dy559 Dy 0.78351 0.77882 0.26751 0.0
O560 O 0.71317 0.78875 0.27052 0.0
O561 O 0.70965 0.75641 0.26307 0.0
O562 O 0.744 0.80049 0.24361 0.0
O563 O 0.76429 0.79982 0.26579 0.0
C564 C 0.76087 0.80844 0.25143 0.0
C565 C 0.76398 0.74169 0.27313 0.0
O566 O 0.7789 0.79447 0.29661 0.0
O567 O 0.74615 0.78329 0.29513 0.0
O568 O 0.81404 0.78123 0.27674 0.0
O569 O 0.80728 0.79365 0.25137 0.0
O570 O 0.78229 0.74631 0.27421 0.0
O571 O 0.7581 0.75704 0.269 0.0
O572 O 0.7429 0.75811 0.23456 0.0
O573 O 0.77565 0.76906 0.23578 0.0
C574 C 0.76255 0.79205 0.30484 0.0
C575 C 0.75928 0.75984 0.22636 0.0
Dy576 Dy 0.74582 0.27744 0.73599 0.0
C577 C 0.75399 0.27439 0.81824 0.0
C578 C 0.73696 0.28409 0.6994 0.0
Dy579 Dy 0.74635 0.27929 0.78086 0.0
O580 O 0.74935 0.27355 0.70389 0.0
O581 O 0.72956 0.29095 0.71485 0.0
O582 O 0.76997 0.26083 0.73497 0.0
O583 O 0.76724 0.28151 0.75946 0.0
C584 C 0.77626 0.2683 0.7527 0.0
C585 C 0.71639 0.28894 0.76376 0.0
O586 O 0.76071 0.31148 0.77975 0.0
O587 O 0.75649 0.31125 0.7464 0.0
O588 O 0.73719 0.27059 0.80962 0.0
O589 O 0.76644 0.2809 0.8065 0.0
O590 O 0.72293 0.29694 0.7813 0.0
O591 O 0.72501 0.27524 0.75735 0.0
O592 O 0.72931 0.24618 0.73828 0.0
O593 O 0.74037 0.24549 0.76985 0.0
C594 C 0.76202 0.32092 0.7642 0.0
C595 C 0.73155 0.23613 0.75308 0.0
Dy596 Dy 0.75315 0.79925 0.76911 0.0
C597 C 0.74333 0.71304 0.77451 0.0
C598 C 0.75393 0.83742 0.75964 0.0
Dy599 Dy 0.74314 0.75172 0.76673 0.0
O600 O 0.75655 0.83343 0.77717 0.0
O601 O 0.75094 0.82063 0.7475 0.0
O602 O 0.77032 0.80179 0.7972 0.0
O603 O 0.74673 0.77768 0.78954 0.0
C604 C 0.76062 0.7847 0.80163 0.0
C605 C 0.73645 0.76674 0.7341 0.0
O606 O 0.71598 0.75839 0.77663 0.0
O607 O 0.72168 0.79274 0.77187 0.0
O608 O 0.74213 0.71815 0.75724 0.0
O609 O 0.74401 0.72897 0.78738 0.0
O610 O 0.72619 0.7499 0.73843 0.0
O611 O 0.75011 0.7733 0.74649 0.0
O612 O 0.78062 0.79264 0.76031 0.0
O613 O 0.77475 0.75838 0.76537 0.0
C614 C 0.7104 0.77598 0.77616 0.0
C615 C 0.78619 0.77518 0.76148 0.0
Dy616 Dy 0.4856 0.51577 0.51365 0.0
C617 C 0.56625 0.5218 0.52109 0.0
C618 C 0.44818 0.51622 0.51489 0.0
Dy619 Dy 0.52927 0.52412 0.5233 0.0
O620 O 0.4576 0.51732 0.4995 0.0
O621 O 0.45918 0.51471 0.52953 0.0
O622 O 0.48943 0.49886 0.4845 0.0
O623 O 0.51054 0.52326 0.49814 0.0
C624 C 0.50652 0.50928 0.48394 0.0
C625 C 0.50824 0.53084 0.55294 0.0
O626 O 0.52704 0.55479 0.51585 0.0
O627 O 0.49445 0.55038 0.51746 0.0
O628 O 0.55764 0.52299 0.53704 0.0
O629 O 0.55478 0.52244 0.50653 0.0
O630 O 0.52529 0.54137 0.55227 0.0
O631 O 0.5043 0.51668 0.53885 0.0
O632 O 0.48791 0.48466 0.51972 0.0
O633 O 0.5206 0.48963 0.51917 0.0
C634 C 0.5113 0.56205 0.51592 0.0
C635 C 0.50375 0.47763 0.51966 0.0
Dy636 Dy 0.04167 0.52186 0.99801 0.0
C637 C 0.96567 0.53619 -0.00116 0.0
C638 C 0.07488 0.51058 0.00665 0.0
Dy639 Dy -0.00061 0.52398 -0.00158 0.0
O640 O 0.06973 0.5148 0.98983 0.0
O641 O 0.0621 0.51295 0.01868 0.0
O642 O 0.04522 0.53966 0.9728 0.0
O643 O 0.01913 0.52067 0.97617 0.0
C644 C 0.02756 0.53383 0.96648 0.0
C645 C 0.01429 0.51134 0.02914 0.0
O646 O 0.99571 0.49234 0.98256 0.0
O647 O 0.02634 0.48877 0.99052 0.0
O648 O 0.97712 0.53709 0.0138 0.0
O649 O 0.97239 0.52807 0.98338 0.0
O650 O -0.00303 0.50426 0.02233 0.0
O651 O 0.02202 0.52532 0.02003 0.0
O652 O 0.0444 0.55397 0.01284 0.0
O653 O 0.01466 0.55688 0.0015 0.0
C654 C 0.00874 0.48103 0.98327 0.0
C655 C 0.03154 0.5651 0.01022 0.0
H656 H 0.01097 0.2089 0.90639 0.0
H657 H 0.02355 0.19007 0.92984 0.0
H658 H 0.96856 0.17483 0.95169 0.0
H659 H 0.95593 0.19394 0.92866 0.0
H660 H -0.00263 0.18573 0.98094 0.0
H661 H 0.01314 0.12767 0.92297 0.0
H662 H 0.02422 0.15372 0.9214 0.0
H663 H -0.001 0.14599 0.91821 0.0
C664 C 0.00155 0.20164 0.91625 0.0
C665 C 0.98237 0.20276 0.91547 0.0
C666 C 0.00877 0.19082 0.9296 0.0
C667 C -0.00309 0.18075 0.94227 0.0
C668 C 0.97794 0.18244 0.942 0.0
H669 H 0.99157 0.08995 0.01682 0.0
H670 H 0.98827 0.11969 0.00137 0.0
C671 C 0.97074 0.19334 0.92876 0.0
C672 C 0.00392 0.16769 0.95527 0.0
H673 H 0.02052 0.12353 0.95506 0.0
C674 C 0.00258 0.17221 0.97531 0.0
C675 C 0.01071 0.15006 0.94789 0.0
C676 C 0.01174 0.1439 0.92644 0.0
C677 C 0.00759 0.1594 0.98815 0.0
C678 C 0.01388 0.1415 0.9807 0.0
C679 C 0.01579 0.13734 0.96074 0.0
C680 C 0.01698 0.12584 0.99292 0.0
C681 C 0.00598 0.16504 0.00954 0.0
C682 C 0.03429 0.11953 0.99351 0.0
C683 C 0.03622 0.10243 0.00229 0.0
C684 C 0.02078 0.09117 0.01042 0.0
C685 C 0.00375 0.09821 0.01069 0.0
C686 C 0.00187 0.11534 0.00197 0.0
H687 H 0.00673 0.18176 0.01342 0.0
H688 H 0.99217 0.15688 0.01358 0.0
H689 H 0.01727 0.16052 0.0182 0.0
H690 H 0.0461 0.12737 0.98651 0.0
H691 H 0.04953 0.09743 0.00178 0.0
H692 H 0.08018 0.78291 0.16282 0.0
H693 H 0.11069 0.78464 0.17983 0.0
H694 H 0.1132 0.84816 0.20194 0.0
H695 H 0.08256 0.84657 0.18512 0.0
H696 H 0.14737 0.8114 0.17994 0.0
H697 H 0.1148 0.81903 0.25071 0.0
H698 H 0.10086 0.81113 0.22801 0.0
H699 H 0.11202 0.83756 0.23499 0.0
C700 C 0.08731 0.79734 0.17108 0.0
C701 C 0.07881 0.81453 0.17284 0.0
C702 C 0.10476 0.79831 0.18075 0.0
C703 C 0.114 0.81643 0.19236 0.0
C704 C 0.10611 0.83395 0.19327 0.0
H705 H 0.20739 0.82367 0.27915 0.0
H706 H 0.18354 0.83404 0.25865 0.0
C707 C 0.08864 0.83301 0.18359 0.0
C708 C 0.13111 0.81635 0.20458 0.0
H709 H 0.14653 0.81641 0.25141 0.0
C710 C 0.1473 0.81273 0.19559 0.0
C711 C 0.13095 0.81818 0.22498 0.0
C712 C 0.11373 0.82155 0.23533 0.0
C713 C 0.16325 0.81038 0.20646 0.0
C714 C 0.16275 0.81127 0.2268 0.0
C715 C 0.14686 0.81576 0.23583 0.0
C716 C 0.17774 0.80565 0.23877 0.0
C717 C 0.18037 0.80679 0.19602 0.0
C718 C 0.182 0.78613 0.23465 0.0
C719 C 0.19545 0.78024 0.24629 0.0
C720 C 0.2048 0.79368 0.26237 0.0
C721 C 0.20032 0.81307 0.26681 0.0
C722 C 0.18684 0.81902 0.25507 0.0
H723 H 0.18112 0.81364 0.18235 0.0
H724 H 0.19359 0.81332 0.20519 0.0
H725 H 0.17945 0.79005 0.19218 0.0
H726 H 0.17469 0.77529 0.22259 0.0
H727 H 0.1984 0.76504 0.2428 0.0
H728 H 0.49305 0.79856 0.37538 0.0
H729 H 0.49948 0.83479 0.38944 0.0
H730 H 0.4686 0.81905 0.43872 0.0
H731 H 0.46134 0.78311 0.42427 0.0
H732 H 0.45848 0.85033 0.42702 0.0
H733 H 0.53645 0.8654 0.43173 0.0
H734 H 0.52663 0.85644 0.40745 0.0
H735 H 0.52232 0.83989 0.42582 0.0
C736 C 0.48781 0.80286 0.3893 0.0
C737 C 0.4767 0.78804 0.39874 0.0
C738 C 0.49159 0.82355 0.39739 0.0
C739 C 0.48479 0.82968 0.41533 0.0
C740 C 0.47399 0.81476 0.42488 0.0
H741 H 0.52337 0.94809 0.48547 0.0
H742 H 0.51702 0.912 0.47132 0.0
C743 C 0.46988 0.7942 0.41662 0.0
C744 C 0.4881 0.85165 0.42384 0.0
H745 H 0.52233 0.89458 0.43727 0.0
C746 C 0.47247 0.85996 0.42936 0.0
C747 C 0.50636 0.8642 0.42714 0.0
C748 C 0.5239 0.85598 0.42291 0.0
C749 C 0.47455 0.88037 0.43811 0.0
C750 C 0.49273 0.89316 0.44067 0.0
C751 C 0.50837 0.88486 0.43515 0.0
C752 C 0.49598 0.91501 0.44955 0.0
C753 C 0.45729 0.88773 0.44504 0.0
C754 C 0.48628 0.92878 0.44207 0.0
C755 C 0.48959 0.94935 0.45045 0.0
C756 C 0.50306 0.95662 0.46609 0.0
C757 C 0.51292 0.94291 0.4734 0.0
C758 C 0.50933 0.92229 0.46529 0.0
H759 H 0.44602 0.87475 0.44765 0.0
H760 H 0.46067 0.89871 0.45862 0.0
H761 H 0.45157 0.89551 0.43376 0.0
H762 H 0.47635 0.92373 0.42957 0.0
H763 H 0.482 0.95966 0.44433 0.0
H764 H 0.48178 0.25982 0.702 0.0
H765 H 0.45475 0.25413 0.72198 0.0
H766 H 0.41881 0.26575 0.67574 0.0
H767 H 0.4455 0.27115 0.6557 0.0
H768 H 0.43414 0.28292 0.734 0.0
H769 H 0.38741 0.21485 0.69217 0.0
H770 H 0.41206 0.22222 0.688 0.0
H771 H 0.39496 0.23437 0.67731 0.0
C772 C 0.46802 0.26067 0.69594 0.0
C773 C 0.46577 0.26586 0.67723 0.0
C774 C 0.45263 0.2575 0.7074 0.0
C775 C 0.43475 0.2593 0.70027 0.0
C776 C 0.43239 0.26382 0.68138 0.0
H777 H 0.3417 0.2977 0.75411 0.0
H778 H 0.37241 0.29541 0.74166 0.0
C779 C 0.44771 0.26697 0.66994 0.0
C780 C 0.41884 0.25827 0.71295 0.0
H781 H 0.37246 0.23631 0.71423 0.0
C782 C 0.42073 0.2725 0.72988 0.0
C783 C 0.40145 0.24449 0.70771 0.0
C784 C 0.39889 0.22798 0.69041 0.0
C785 C 0.40538 0.274 0.7412 0.0
C786 C 0.38763 0.26121 0.73516 0.0
C787 C 0.38602 0.2463 0.71876 0.0
C788 C 0.3703 0.26344 0.74503 0.0
C789 C 0.40832 0.28934 0.75941 0.0
C790 C 0.35891 0.24627 0.75102 0.0
C791 C 0.34129 0.24749 0.7578 0.0
C792 C 0.33479 0.26592 0.75879 0.0
C793 C 0.34649 0.28337 0.75364 0.0
C794 C 0.36408 0.28209 0.74664 0.0
H795 H 0.42324 0.29273 0.76532 0.0
H796 H 0.40485 0.30391 0.75602 0.0
H797 H 0.39916 0.28373 0.77074 0.0
H798 H 0.3634 0.23173 0.74987 0.0
H799 H 0.33251 0.23381 0.76171 0.0
H800 H 0.9599 0.80959 0.57414 0.0
H801 H 0.96868 0.83406 0.55143 0.0
H802 H 0.02191 0.85769 0.58427 0.0
H803 H 0.01353 0.83302 0.60668 0.0
H804 H 0.97411 0.87438 0.56226 0.0
H805 H 0.03854 0.85718 0.53011 0.0
H806 H 0.0234 0.83923 0.54266 0.0
H807 H 0.04075 0.85978 0.55602 0.0
C808 C 0.97368 0.81964 0.57627 0.0
C809 C 0.98594 0.81943 0.59235 0.0
C810 C 0.97868 0.83361 0.56325 0.0
C811 C 0.99602 0.84761 0.56604 0.0
C812 C 0.00865 0.84674 0.58153 0.0
H813 H 0.0406 0.96755 0.5403 0.0
H814 H 0.03514 0.93356 0.55059 0.0
C815 C 0.00374 0.83269 0.59446 0.0
C816 C -0.00019 0.86485 0.55453 0.0
H817 H 0.0332 0.89148 0.52917 0.0
C818 C 0.98685 0.87788 0.5547 0.0
C819 C 0.01651 0.86949 0.54478 0.0
C820 C 0.03049 0.85555 0.5432 0.0
C821 C 0.99049 0.89585 0.54611 0.0
C822 C 0.00746 0.90081 0.53693 0.0
C823 C 0.02023 0.88759 0.53628 0.0
C824 C 0.01244 0.92029 0.52886 0.0
C825 C 0.97652 0.90984 0.54762 0.0
C826 C 0.00184 0.9238 0.51286 0.0
C827 C 0.00488 0.94319 0.50695 0.0
C828 C 0.01859 0.9594 0.51695 0.0
C829 C 0.02987 0.95547 0.53233 0.0
C830 C 0.02682 0.93604 0.53821 0.0
H831 H 0.96577 0.90557 0.55805 0.0
H832 H 0.98386 0.92601 0.55219 0.0
H833 H 0.96911 0.90896 0.53322 0.0
H834 H 0.99079 0.91173 0.50538 0.0
H835 H 0.996 0.94561 0.49498 0.0
H836 H 0.43871 0.76943 0.87826 0.0
H837 H 0.41095 0.77964 0.86475 0.0
H838 H 0.44629 0.81983 0.83167 0.0
H839 H 0.4742 0.80969 0.84506 0.0
H840 H 0.4014 0.82002 0.86353 0.0
H841 H 0.40951 0.77804 0.79116 0.0
H842 H 0.42162 0.77401 0.81297 0.0
H843 H 0.42968 0.79667 0.80211 0.0
C844 C 0.44064 0.78066 0.86833 0.0
C845 C 0.45864 0.78864 0.86261 0.0
C846 C 0.42476 0.78649 0.86066 0.0
C847 C 0.42662 0.8003 0.8471 0.0
C848 C 0.44461 0.80897 0.84197 0.0
H849 H 0.33676 0.81999 0.76952 0.0
H850 H 0.36739 0.82537 0.78762 0.0
C851 C 0.46051 0.80316 0.84964 0.0
C852 C 0.40959 0.8044 0.83734 0.0
H853 H 0.3836 0.79395 0.79413 0.0
C854 C 0.39754 0.81451 0.84831 0.0
C855 C 0.4047 0.79722 0.8175 0.0
C856 C 0.41694 0.78575 0.8052 0.0
C857 C 0.38049 0.8174 0.83996 0.0
C858 C 0.37529 0.80957 0.82027 0.0
C859 C 0.38766 0.80002 0.8092 0.0
C860 C 0.3565 0.80948 0.81112 0.0
C861 C 0.36822 0.82873 0.8523 0.0
C862 C 0.34021 0.79908 0.8185 0.0
C863 C 0.32273 0.79609 0.80824 0.0
C864 C 0.32134 0.80322 0.79033 0.0
C865 C 0.33749 0.81434 0.78331 0.0
C866 C 0.35496 0.81743 0.79363 0.0
H867 H 0.37669 0.83947 0.86439 0.0
H868 H 0.36042 0.83752 0.84362 0.0
H869 H 0.35782 0.81751 0.85873 0.0
H870 H 0.34112 0.79236 0.8317 0.0
H871 H 0.31048 0.78738 0.81391 0.0
H872 H 0.44132 0.22838 0.09837 0.0
H873 H 0.44394 0.19475 0.08173 0.0
H874 H 0.49568 0.19793 0.11571 0.0
H875 H 0.49321 0.23139 0.13247 0.0
H876 H 0.47505 0.18743 0.06014 0.0
H877 H 0.46478 0.14018 0.11991 0.0
H878 H 0.45762 0.16455 0.12078 0.0
H879 H 0.48195 0.1637 0.12562 0.0
C880 C 0.45315 0.22183 0.10247 0.0
C881 C 0.46707 0.23262 0.11675 0.0
C882 C 0.45461 0.20263 0.09295 0.0
C883 C 0.46987 0.19379 0.09769 0.0
C884 C 0.48361 0.20433 0.11211 0.0
H885 H 0.51649 0.09 0.05308 0.0
H886 H 0.50854 0.12014 0.072 0.0
C887 C 0.48223 0.22354 0.12157 0.0
C888 C 0.47223 0.17425 0.08661 0.0
H889 H 0.47651 0.12538 0.09126 0.0
C890 C 0.47517 0.17377 0.06685 0.0
C891 C 0.47252 0.15658 0.09552 0.0
C892 C 0.46889 0.15613 0.11659 0.0
C893 C 0.47894 0.15622 0.05583 0.0
C894 C 0.47933 0.13855 0.06475 0.0
C895 C 0.47617 0.13895 0.08448 0.0
C896 C 0.48347 0.11968 0.0539 0.0
C897 C 0.48313 0.15703 0.03492 0.0
C898 C 0.47177 0.1092 0.03774 0.0
C899 C 0.47633 0.0921 0.02688 0.0
C900 C 0.49256 0.08509 0.03214 0.0
C901 C 0.50393 0.09516 0.04869 0.0
C902 C 0.49939 0.11232 0.05951 0.0
H903 H 0.48699 0.17305 0.03175 0.0
H904 H 0.4948 0.1491 0.03105 0.0
H905 H 0.47041 0.1492 0.02549 0.0
H906 H 0.45919 0.11437 0.03344 0.0
H907 H 0.46724 0.08446 0.01429 0.0
H908 H 0.04331 0.24186 0.33542 0.0
H909 H 0.07325 0.24412 0.32039 0.0
H910 H 0.10011 0.29039 0.36719 0.0
H911 H 0.07011 0.28812 0.38255 0.0
H912 H 0.09515 0.27932 0.30832 0.0
H913 H 0.13422 0.2476 0.36334 0.0
H914 H 0.10889 0.24454 0.36204 0.0
H915 H 0.12354 0.26859 0.37248 0.0
C916 C 0.05558 0.25244 0.34264 0.0
C917 C 0.05434 0.26479 0.36021 0.0
C918 C 0.07267 0.25374 0.33398 0.0
C919 C 0.08887 0.26731 0.34275 0.0
C920 C 0.08778 0.27961 0.36035 0.0
H921 H 0.19304 0.30336 0.2868 0.0
H922 H 0.16321 0.30303 0.30189 0.0
C923 C 0.07064 0.27833 0.36906 0.0
C924 C 0.10674 0.26876 0.3331 0.0
H925 H 0.15121 0.2596 0.33756 0.0
C926 C 0.10745 0.27508 0.31471 0.0
C927 C 0.12263 0.263 0.34144 0.0
C928 C 0.12235 0.25538 0.36084 0.0
C929 C 0.12368 0.27575 0.30437 0.0
C930 C 0.13963 0.27019 0.3128 0.0
C931 C 0.13893 0.26392 0.3312 0.0
C932 C 0.1571 0.2703 0.3026 0.0
C933 C 0.12347 0.28191 0.28435 0.0
C934 C 0.16351 0.25201 0.29805 0.0
C935 C 0.18056 0.25212 0.28948 0.0
C936 C 0.19159 0.27058 0.28542 0.0
C937 C 0.18489 0.28884 0.28963 0.0
C938 C 0.16781 0.2887 0.29821 0.0
H939 H 0.10891 0.28112 0.27828 0.0
H940 H 0.13137 0.29794 0.28506 0.0
H941 H 0.13041 0.27194 0.27432 0.0
H942 H 0.15541 0.23766 0.30135 0.0
H943 H 0.18527 0.23777 0.28647 0.0
H944 H 0.90748 0.06741 0.19157 0.0
H945 H 0.92667 0.07137 0.1637 0.0
H946 H 0.9392 0.01155 0.16574 0.0
H947 H 0.92015 0.00741 0.1935 0.0
H948 H 0.9715 0.04579 0.16718 0.0
H949 H 0.91835 0.04158 0.10609 0.0
H950 H 0.91655 0.05796 0.1282 0.0
H951 H 0.9123 0.03071 0.12791 0.0
C952 C 0.914 0.05492 0.18585 0.0
C953 C 0.91236 0.03713 0.19485 0.0
C954 C 0.92495 0.05722 0.16991 0.0
C955 C 0.93434 0.04176 0.16272 0.0
C956 C 0.93207 0.02366 0.17113 0.0
H957 H 0.9944 0.01205 0.06551 0.0
H958 H 0.97327 0.01534 0.09147 0.0
C959 C 0.92112 0.02132 0.18698 0.0
C960 C 0.9477 0.04489 0.1474 0.0
H961 H 0.95025 0.04679 0.09895 0.0
C962 C 0.96691 0.04623 0.15229 0.0
C963 C 0.9416 0.04545 0.12804 0.0
C964 C 0.92108 0.04375 0.12208 0.0
C965 C 0.98017 0.04758 0.1382 0.0
C966 C 0.97404 0.04772 0.11877 0.0
C967 C 0.95488 0.04686 0.11393 0.0
C968 C 0.98692 0.04643 0.10298 0.0
C969 C 0.00052 0.04797 0.144 0.0
C970 C 0.00169 0.06286 0.10093 0.0
C971 C 0.01381 0.06106 0.08595 0.0
C972 C 0.01123 0.04283 0.07289 0.0
C973 C 0.9966 0.02638 0.07524 0.0
C974 C 0.98449 0.02822 0.09003 0.0
H975 H 0.00255 0.04527 0.15924 0.0
H976 H 0.00581 0.03614 0.13437 0.0
H977 H 0.0092 0.06315 0.1424 0.0
H978 H 0.00373 0.07706 0.1108 0.0
H979 H 0.02499 0.07395 0.08442 0.0
H980 H 0.2696 0.68603 0.46038 0.0
H981 H 0.26915 0.71328 0.4408 0.0
H982 H 0.32947 0.7327 0.45056 0.0
H983 H 0.33019 0.70502 0.47014 0.0
H984 H 0.28202 0.75664 0.4479 0.0
H985 H 0.32032 0.71803 0.39131 0.0
H986 H 0.31043 0.70522 0.4108 0.0
H987 H 0.33145 0.72481 0.41539 0.0
C988 C 0.28282 0.6961 0.45852 0.0
C989 C 0.29999 0.6931 0.46657 0.0
C990 C 0.2825 0.7118 0.44743 0.0
C991 C 0.29928 0.72484 0.44411 0.0
C992 C 0.3164 0.72259 0.45281 0.0
H993 H 0.29707 0.78875 0.34349 0.0
H994 H 0.30908 0.78235 0.37485 0.0
C995 C 0.31676 0.70679 0.46397 0.0
C996 C 0.29859 0.73935 0.43008 0.0
H997 H 0.3062 0.74425 0.38297 0.0
C998 C 0.28765 0.7543 0.43382 0.0
C999 C 0.30604 0.73627 0.4118 0.0
C1000 C 0.31765 0.72017 0.40692 0.0
C1001 C 0.28301 0.76544 0.41932 0.0
C1002 C 0.28926 0.76121 0.40061 0.0
C1003 C 0.30137 0.74739 0.39733 0.0
C1004 C 0.2817 0.76882 0.38362 0.0
C1005 C 0.27101 0.78114 0.424 0.0
C1006 C 0.26227 0.76366 0.37832 0.0
C1007 C 0.25537 0.76736 0.36044 0.0
C1008 C 0.26785 0.77601 0.34755 0.0
C1009 C 0.28716 0.78199 0.3532 0.0
C1010 C 0.29404 0.77842 0.3711 0.0
H1011 H 0.27322 0.78783 0.43953 0.0
H1012 H 0.2741 0.79372 0.41502 0.0
H1013 H 0.25593 0.77359 0.42115 0.0
H1014 H 0.25255 0.75573 0.38753 0.0
H1015 H 0.24043 0.76255 0.35634 0.0
H1016 H 0.5903 0.97322 0.68023 0.0
H1017 H 0.57736 0.97179 0.64708 0.0
H1018 H 0.57114 0.03461 0.65974 0.0
H1019 H 0.58361 0.03601 0.69301 0.0
H1020 H 0.53908 0.00941 0.64303 0.0
H1021 H 0.6 0.99622 0.60112 0.0
H1022 H 0.59311 0.97797 0.61746 0.0
H1023 H 0.60224 0.00444 0.62691 0.0
C1024 C 0.58645 0.98683 0.67587 0.0
C1025 C 0.58793 0.00472 0.68925 0.0
C1026 C 0.57913 0.986 0.65689 0.0
C1027 C 0.57344 0.00314 0.65091 0.0
C1028 C 0.57544 0.0212 0.66408 0.0
H1029 H 0.54586 0.03079 0.53855 0.0
H1030 H 0.56029 0.02662 0.56954 0.0
C1031 C 0.5826 0.02199 0.68308 0.0
C1032 C 0.56428 0.00198 0.63134 0.0
H1033 H 0.57104 0.99389 0.58311 0.0
C1034 C 0.54605 0.00601 0.62991 0.0
C1035 C 0.57346 0.99759 0.61429 0.0
C1036 C 0.59335 0.99399 0.61494 0.0
C1037 C 0.53682 0.00608 0.61191 0.0
C1038 C 0.5459 0.00147 0.59484 0.0
C1039 C 0.56405 0.99719 0.59624 0.0
C1040 C 0.53744 0.0027 0.57549 0.0
C1041 C 0.51773 0.01185 0.61138 0.0
C1042 C 0.51994 0.99034 0.56837 0.0
C1043 C 0.51156 0.99281 0.55066 0.0
C1044 C 0.5207 0.00751 0.53978 0.0
C1045 C 0.53848 0.01934 0.54665 0.0
C1046 C 0.54677 0.01695 0.56433 0.0
H1047 H 0.51475 0.01948 0.62567 0.0
H1048 H 0.51668 0.02226 0.60045 0.0
H1049 H 0.50666 0.99778 0.60735 0.0
H1050 H 0.51269 0.97896 0.5766 0.0
H1051 H 0.49791 0.9834 0.54557 0.0
H1052 H 0.24812 0.37154 0.97882 0.0
H1053 H 0.2425 0.35644 0.94472 0.0
H1054 H 0.28731 0.32363 0.9511 0.0
H1055 H 0.29301 0.3385 0.98514 0.0
H1056 H 0.26949 0.36112 0.91645 0.0
H1057 H 0.24333 0.27923 0.92356 0.0
H1058 H 0.24374 0.29972 0.94318 0.0
H1059 H 0.26497 0.29085 0.93761 0.0
C1060 C 0.25661 0.36087 0.97307 0.0
C1061 C 0.27103 0.35625 0.98478 0.0
C1062 C 0.2534 0.35231 0.95356 0.0
C1063 C 0.26437 0.33878 0.94544 0.0
C1064 C 0.27848 0.33378 0.95715 0.0
H1065 H 0.28847 0.30618 0.82662 0.0
H1066 H 0.28912 0.32009 0.86085 0.0
C1067 C 0.28176 0.34239 0.97661 0.0
C1068 C 0.26189 0.33083 0.92446 0.0
H1069 H 0.252 0.28665 0.89231 0.0
C1070 C 0.26553 0.34485 0.91115 0.0
C1071 C 0.25658 0.30962 0.91759 0.0
C1072 C 0.25175 0.29396 0.93119 0.0
C1073 C 0.26449 0.33818 0.89115 0.0
C1074 C 0.25988 0.31692 0.88432 0.0
C1075 C 0.25572 0.30293 0.8976 0.0
C1076 C 0.2594 0.30887 0.86346 0.0
C1077 C 0.26827 0.35391 0.87747 0.0
C1078 C 0.24252 0.29771 0.85365 0.0
C1079 C 0.24209 0.28972 0.83408 0.0
C1080 C 0.25859 0.29256 0.82397 0.0
C1081 C 0.27549 0.30373 0.8339 0.0
C1082 C 0.27588 0.31179 0.85345 0.0
H1083 H 0.26704 0.36938 0.88447 0.0
H1084 H 0.2828 0.35491 0.87275 0.0
H1085 H 0.25834 0.34948 0.86438 0.0
H1086 H 0.22967 0.29521 0.86114 0.0
H1087 H 0.22883 0.28113 0.82697 0.0
H1088 H 0.93246 0.01188 0.27981 0.0
H1089 H 0.94314 0.99559 0.30643 0.0
H1090 H 0.91081 0.02772 0.34548 0.0
H1091 H 0.90027 0.04423 0.31914 0.0
H1092 H 0.96323 0.01788 0.34103 0.0
H1093 H 0.89696 0.9675 0.35649 0.0
H1094 H 0.90019 0.97735 0.3337 0.0
H1095 H 0.89475 0.99334 0.35452 0.0
C1096 C 0.92751 0.01536 0.29404 0.0
C1097 C 0.9154 0.02925 0.29734 0.0
C1098 C 0.93355 0.00596 0.30917 0.0
C1099 C 0.92743 0.01013 0.32777 0.0
C1100 C 0.91528 0.02389 0.33109 0.0
H1101 H 0.95188 0.0063 0.44511 0.0
H1102 H 0.93711 0.00468 0.41272 0.0
C1103 C 0.90933 0.03338 0.31602 0.0
C1104 C 0.93508 0.00177 0.34421 0.0
H1105 H 0.92195 0.97527 0.3816 0.0
C1106 C 0.95433 0.00821 0.34972 0.0
C1107 C 0.92334 0.98921 0.35544 0.0
C1108 C 0.90268 0.98127 0.34967 0.0
C1109 C 0.96201 0.00354 0.36693 0.0
C1110 C 0.95013 0.99161 0.37861 0.0
C1111 C 0.93102 0.98434 0.37258 0.0
C1112 C 0.95688 0.98871 0.39814 0.0
C1113 C 0.98248 0.01259 0.37303 0.0
C1114 C 0.97227 0.9793 0.40073 0.0
C1115 C 0.98087 0.98044 0.41923 0.0
C1116 C 0.97398 0.99071 0.43533 0.0
C1117 C 0.95753 0.99839 0.4329 0.0
C1118 C 0.94907 0.99745 0.41441 0.0
H1119 H 0.98855 0.02473 0.36435 0.0
H1120 H 0.98421 0.01928 0.38855 0.0
H1121 H 0.99076 0.00033 0.37099 0.0
H1122 H 0.97821 0.97204 0.38838 0.0
H1123 H 0.99346 0.97422 0.42079 0.0
H1124 H 0.25851 0.65415 0.55133 0.0
H1125 H 0.25151 0.67358 0.58143 0.0
H1126 H 0.30495 0.71542 0.58239 0.0
H1127 H 0.31207 0.69619 0.55242 0.0
H1128 H 0.27788 0.68239 0.61787 0.0
H1129 H 0.26289 0.75164 0.58956 0.0
H1130 H 0.26023 0.72708 0.57454 0.0
H1131 H 0.28329 0.74253 0.58119 0.0
C1132 C 0.26865 0.66762 0.55781 0.0
C1133 C 0.2858 0.67367 0.54946 0.0
C1134 C 0.26466 0.67864 0.57501 0.0
C1135 C 0.27763 0.69603 0.58389 0.0
C1136 C 0.29468 0.70218 0.57556 0.0
H1137 H 0.29141 0.78313 0.68807 0.0
H1138 H 0.29224 0.76502 0.65534 0.0
C1139 C 0.29877 0.69107 0.55853 0.0
C1140 C 0.274 0.70717 0.60252 0.0
H1141 H 0.2664 0.75329 0.62368 0.0
C1142 C 0.27515 0.6978 0.61919 0.0
C1143 C 0.27068 0.72731 0.60405 0.0
C1144 C 0.26906 0.73778 0.5864 0.0
C1145 C 0.27361 0.70832 0.63756 0.0
C1146 C 0.2703 0.72854 0.63915 0.0
C1147 C 0.26889 0.73779 0.6224 0.0
C1148 C 0.2687 0.74043 0.65818 0.0
C1149 C 0.27628 0.69795 0.65511 0.0
C1150 C 0.25482 0.73295 0.6703 0.0
C1151 C 0.25449 0.74308 0.68898 0.0
C1152 C 0.2678 0.7611 0.69572 0.0
C1153 C 0.28104 0.76923 0.68322 0.0
C1154 C 0.2815 0.75893 0.66456 0.0
H1155 H 0.2837 0.68506 0.6518 0.0
H1156 H 0.28442 0.70898 0.66717 0.0
H1157 H 0.26228 0.69159 0.66008 0.0
H1158 H 0.24452 0.71898 0.66549 0.0
H1159 H 0.24408 0.73651 0.69829 0.0
H1160 H 0.59336 0.9906 0.81268 0.0
H1161 H 0.57768 -0.00082 0.84189 0.0
H1162 H 0.53727 0.02222 0.80849 0.0
H1163 H 0.55302 0.01377 0.77897 0.0
H1164 H 0.57071 0.03924 0.85724 0.0
H1165 H 0.50563 0.9787 0.83894 0.0
H1166 H 0.52716 0.9776 0.82712 0.0
H1167 H 0.51297 0.99526 0.82116 0.0
C1168 C 0.58127 0.99768 0.81149 0.0
C1169 C 0.57451 0.00163 0.79351 0.0
C1170 C 0.57229 0.0025 0.82821 0.0
C1171 C 0.55631 0.0112 0.82726 0.0
C1172 C 0.54951 0.01531 0.80941 0.0
H1173 H 0.51187 0.05803 0.93526 0.0
H1174 H 0.5205 0.05466 0.90158 0.0
C1175 C 0.55855 0.01054 0.79262 0.0
C1176 C 0.54693 0.01584 0.84517 0.0
H1177 H 0.50842 -0.00116 0.86952 0.0
C1178 C 0.55698 0.03065 0.85988 0.0
C1179 C 0.52911 0.0044 0.84848 0.0
C1180 C 0.51804 0.98799 0.83319 0.0
C1181 C 0.54988 0.03397 0.87812 0.0
C1182 C 0.5322 0.02229 0.88157 0.0
C1183 C 0.52192 0.00783 0.86669 0.0
C1184 C 0.52498 0.0237 0.90104 0.0
C1185 C 0.56172 0.04926 0.89383 0.0
C1186 C 0.52408 0.00715 0.91155 0.0
C1187 C 0.51916 0.00902 0.93071 0.0
C1188 C 0.51499 0.02744 0.93955 0.0
C1189 C 0.51512 0.0437 0.92875 0.0
C1190 C 0.52007 0.04183 0.90959 0.0
H1191 H 0.57635 0.05443 0.88974 0.0
H1192 H 0.55526 0.06292 0.89667 0.0
H1193 H 0.5623 0.04254 0.9075 0.0
H1194 H 0.52782 0.99304 0.90513 0.0
H1195 H 0.5191 0.99625 0.93874 0.0
H1196 H 0.27977 0.3288 0.07375 0.0
H1197 H 0.2711 0.31007 0.10078 0.0
H1198 H 0.22875 0.34569 0.11408 0.0
H1199 H 0.23738 0.36467 0.08696 0.0
H1200 H 0.25522 0.34612 0.1453 0.0
H1201 H 0.2253 0.26661 0.11079 0.0
H1202 H 0.24731 0.27768 0.10186 0.0
H1203 H 0.22691 0.28845 0.09787 0.0
C1204 C 0.26832 0.3324 0.08214 0.0
C1205 C 0.25932 0.34832 0.07822 0.0
C1206 C 0.26331 0.32156 0.09754 0.0
C1207 C 0.24919 0.32637 0.10936 0.0
C1208 C 0.23961 0.34166 0.10504 0.0
H1209 H 0.2247 0.2922 0.22423 0.0
H1210 H 0.22455 0.3076 0.19433 0.0
C1211 C 0.24452 0.35243 0.08949 0.0
C1212 C 0.24602 0.31699 0.12735 0.0
H1213 H 0.23498 0.27105 0.14445 0.0
C1214 C 0.25055 0.32974 0.14516 0.0
C1215 C 0.24008 0.29561 0.12709 0.0
C1216 C 0.23445 0.28128 0.10839 0.0
C1217 C 0.25004 0.32163 0.16272 0.0
C1218 C 0.24436 0.30017 0.1625 0.0
C1219 C 0.2394 0.28747 0.14466 0.0
C1220 C 0.24398 0.29053 0.18054 0.0
C1221 C 0.25624 0.33614 0.18124 0.0
C1222 C 0.25446 0.27532 0.18256 0.0
C1223 C 0.25439 0.26635 0.19956 0.0
C1224 C 0.24387 0.27246 0.21487 0.0
C1225 C 0.23315 0.28743 0.21275 0.0
C1226 C 0.23311 0.29629 0.19569 0.0
H1227 H 0.26545 0.35065 0.17853 0.0
H1228 H 0.24359 0.3401 0.18792 0.0
H1229 H 0.26396 0.32909 0.19171 0.0
H1230 H 0.26289 0.27056 0.17105 0.0
H1231 H 0.26274 0.25481 0.20082 0.0
H1232 H 0.19576 0.92368 0.05186 0.0
H1233 H 0.1734 0.94609 0.04945 0.0
H1234 H 0.17134 0.93374 0.98715 0.0
H1235 H 0.19408 0.91142 0.9894 0.0
H1236 H 0.17783 0.97535 0.00131 0.0
H1237 H 0.11714 0.93276 0.03481 0.0
H1238 H 0.13872 0.93698 0.04962 0.0
H1239 H 0.13629 0.92114 0.02644 0.0
C1240 C 0.19035 0.92543 0.03762 0.0
C1241 C 0.19672 0.91577 0.02081 0.0
C1242 C 0.1775 0.9382 0.03628 0.0
C1243 C 0.17059 0.94141 0.01813 0.0
C1244 C 0.17648 0.93138 0.0013 0.0
H1245 H 0.09315 0.01736 0.98795 0.0
H1246 H 0.11775 0.99708 0.98642 0.0
C1247 C 0.18939 0.91857 0.00261 0.0
C1248 C 0.15814 0.95625 0.01691 0.0
H1249 H 0.11701 0.96787 0.03228 0.0
C1250 C 0.16443 0.97364 0.00788 0.0
C1251 C 0.14068 0.95395 0.02551 0.0
C1252 C 0.13271 0.93509 0.03447 0.0
C1253 C 0.15396 0.98913 0.0078 0.0
C1254 C 0.13681 0.98705 0.01689 0.0
C1255 C 0.13035 0.96951 0.02557 0.0
C1256 C 0.12493 0.00258 0.01729 0.0
C1257 C 0.16148 0.00782 -0.00156 0.0
C1258 C 0.12129 0.01287 0.03509 0.0
C1259 C 0.10731 0.02451 0.036 0.0
C1260 C 0.09664 0.02578 0.01913 0.0
C1261 C 0.10123 0.01668 0.00116 0.0
C1262 C 0.11528 0.00511 0.00026 0.0
H1263 H 0.17652 0.00893 0.99536 0.0
H1264 H 0.15317 0.00701 0.98456 0.0
H1265 H 0.16001 0.02199 0.00786 0.0
H1266 H 0.1286 0.01102 0.04838 0.0
H1267 H 0.10399 0.0313 0.05004 0.0
H1268 H 0.71485 0.64598 0.99478 0.0
H1269 H 0.68121 0.633 0.99768 0.0
H1270 H 0.69037 0.57103 0.99027 0.0
H1271 H 0.72389 0.58377 0.98752 0.0
H1272 H 0.65574 0.60604 0.97046 0.0
H1273 H 0.66089 0.57382 0.03911 0.0
H1274 H 0.68 0.59186 0.03129 0.0
H1275 H 0.676 0.5651 0.02157 0.0
C1276 C 0.7097 0.62959 0.99384 0.0
C1277 C 0.72204 0.61589 0.99097 0.0
C1278 C 0.69051 0.62223 0.99554 0.0
C1279 C 0.68342 0.60111 0.99456 0.0
C1280 C 0.69566 0.58742 0.99153 0.0
H1281 H 0.57641 0.52469 0.96098 0.0
H1282 H 0.60861 0.5449 0.9645 0.0
C1283 C 0.7148 0.59474 0.9898 0.0
C1284 C 0.66307 0.59312 0.99569 0.0
H1285 H 0.63185 0.56186 0.01947 0.0
C1286 C 0.65046 0.59662 0.98133 0.0
C1287 C 0.6562 0.58113 0.01008 0.0
C1288 C 0.66895 0.57791 0.02651 0.0
C1289 C 0.63127 0.58749 0.98036 0.0
C1290 C 0.62466 0.57433 0.99394 0.0
C1291 C 0.63705 0.57175 0.00894 0.0
C1292 C 0.60521 0.56215 0.99208 0.0
C1293 C 0.61828 0.59174 0.96465 0.0
C1294 C 0.59284 0.56482 0.00668 0.0
C1295 C 0.57445 0.5532 0.00472 0.0
C1296 C 0.56833 0.53863 0.98827 0.0
C1297 C 0.58081 0.53584 0.97382 0.0
C1298 C 0.59914 0.54744 0.97575 0.0
H1299 H 0.62416 0.60632 0.95916 0.0
H1300 H 0.61645 0.57914 0.95233 0.0
H1301 H 0.60419 0.59256 0.96994 0.0
H1302 H 0.59733 0.57609 0.01941 0.0
H1303 H 0.56494 0.55595 0.01582 0.0
H1304 H 0.69797 0.47962 0.2973 0.0
H1305 H 0.71569 0.45492 0.28266 0.0
H1306 H 0.67644 0.44044 0.23237 0.0
H1307 H 0.65861 0.46523 0.24683 0.0
H1308 H 0.68055 0.40704 0.25365 0.0
H1309 H 0.7494 0.45042 0.2356 0.0
H1310 H 0.74193 0.45898 0.25894 0.0
H1311 H 0.72861 0.46144 0.23743 0.0
C1312 C 0.69333 0.47156 0.28293 0.0
C1313 C 0.67677 0.47425 0.27332 0.0
C1314 C 0.70358 0.45757 0.27452 0.0
C1315 C 0.69743 0.44602 0.25639 0.0
C1316 C 0.68148 0.44939 0.2463 0.0
H1317 H 0.72619 0.32678 0.21871 0.0
H1318 H 0.71357 0.35777 0.21703 0.0
C1319 C 0.67131 0.46355 0.25461 0.0
C1320 C 0.7059 0.42833 0.24959 0.0
H1321 H 0.74749 0.41492 0.2382 0.0
C1322 C 0.69507 0.40866 0.24987 0.0
C1323 C 0.72487 0.43066 0.24491 0.0
C1324 C 0.73689 0.4515 0.24402 0.0
C1325 C 0.703 0.39122 0.24668 0.0
C1326 C 0.72217 0.39351 0.24244 0.0
C1327 C 0.7328 0.41318 0.24137 0.0
C1328 C 0.73181 0.37592 0.24097 0.0
C1329 C 0.69107 0.37071 0.24916 0.0
C1330 C 0.74707 0.37629 0.25412 0.0
C1331 C 0.75457 0.35878 0.25483 0.0
C1332 C 0.74679 0.34053 0.24252 0.0
C1333 C 0.73226 0.34055 0.22858 0.0
C1334 C 0.72499 0.3582 0.22766 0.0
H1335 H 0.67826 0.3724 0.25689 0.0
H1336 H 0.6864 0.36174 0.2347 0.0
H1337 H 0.69921 0.3618 0.25733 0.0
H1338 H 0.75261 0.38984 0.26447 0.0
H1339 H 0.76578 0.35926 0.26572 0.0
H1340 H 0.81637 0.48122 0.51081 0.0
H1341 H 0.84977 0.49774 0.51334 0.0
H1342 H 0.86494 0.43894 0.51463 0.0
H1343 H 0.83172 0.42254 0.51274 0.0
H1344 H 0.88275 0.4661 0.54357 0.0
H1345 H 0.8902 0.50061 0.47565 0.0
H1346 H 0.87213 0.50836 0.48987 0.0
H1347 H 0.86969 0.48192 0.47959 0.0
C1348 C 0.82685 0.47179 0.51127 0.0
C1349 C 0.82143 0.4506 0.51174 0.0
C1350 C 0.84593 0.48124 0.51264 0.0
C1351 C 0.85987 0.46956 0.51404 0.0
C1352 C 0.85442 0.44827 0.51365 0.0
H1353 H 0.97934 0.50343 0.50506 0.0
H1354 H 0.94533 0.49146 0.50003 0.0
C1355 C 0.8354 0.4389 0.51259 0.0
C1356 C 0.88008 0.47953 0.51747 0.0
H1357 H 0.91614 0.51063 0.49922 0.0
C1358 C 0.89007 0.4758 0.53383 0.0
C1359 C 0.8896 0.4921 0.50471 0.0
C1360 C 0.87991 0.49585 0.48637 0.0
C1361 C 0.90935 0.48405 0.5377 0.0
C1362 C 0.9188 0.49701 0.52521 0.0
C1363 C 0.9088 0.50089 0.5089 0.0
C1364 C 0.93931 0.50555 0.5281 0.0
C1365 C 0.91951 0.47819 0.55475 0.0
C1366 C 0.94723 0.51782 0.54544 0.0
C1367 C 0.96677 0.52449 0.54851 0.0
C1368 C 0.97866 0.5193 0.53412 0.0
C1369 C 0.9706 0.50771 0.51648 0.0
C1370 C 0.95114 0.50086 0.51353 0.0
H1371 H 0.91147 0.46412 0.55965 0.0
H1372 H 0.93367 0.47553 0.55113 0.0
H1373 H 0.92133 0.49082 0.56704 0.0
H1374 H 0.93832 0.52205 0.55669 0.0
H1375 H 0.97253 0.53363 0.56215 0.0
H1376 H 0.33492 0.06978 0.25465 0.0
H1377 H 0.3066 0.08396 0.25125 0.0
H1378 H 0.31786 0.11576 0.30959 0.0
H1379 H 0.34583 0.10107 0.31336 0.0
H1380 H 0.28015 0.09956 0.301 0.0
H1381 H 0.3103 0.14284 0.2429 0.0
H1382 H 0.3079 0.11555 0.23782 0.0
H1383 H 0.32411 0.12991 0.25723 0.0
C1384 C 0.33134 0.07976 0.26677 0.0
C1385 C 0.34276 0.08456 0.28419 0.0
C1386 C 0.31516 0.08784 0.26479 0.0
C1387 C 0.31035 0.10122 0.28003 0.0
C1388 C 0.32136 0.10549 0.29764 0.0
H1389 H 0.25631 0.19714 0.30621 0.0
H1390 H 0.26725 0.16516 0.30684 0.0
C1391 C 0.33738 0.09717 0.29974 0.0
C1392 C 0.29457 0.11183 0.27739 0.0
H1393 H 0.2809 0.14765 0.25271 0.0
C1394 C 0.28016 0.10989 0.29028 0.0
C1395 C 0.29458 0.12523 0.26334 0.0
C1396 C 0.3101 0.1287 0.24963 0.0
C1397 C 0.26617 0.12163 0.28997 0.0
C1398 C 0.2667 0.13564 0.27648 0.0
C1399 C 0.28045 0.13671 0.26291 0.0
C1400 C 0.25535 0.15172 0.27802 0.0
C1401 C 0.25127 0.11938 0.3044 0.0
C1402 C 0.24448 0.15451 0.26185 0.0
C1403 C 0.23818 0.17285 0.26148 0.0
C1404 C 0.24299 0.18867 0.27716 0.0
C1405 C 0.25245 0.18515 0.29394 0.0
C1406 C 0.25859 0.1668 0.29436 0.0
H1407 H 0.24884 0.10389 0.30896 0.0
H1408 H 0.25604 0.1308 0.31748 0.0
H1409 H 0.23773 0.12209 0.29834 0.0
H1410 H 0.242 0.14311 0.24904 0.0
H1411 H 0.23095 0.17526 0.24836 0.0
H1412 H 0.30821 0.09809 0.51325 0.0
H1413 H 0.33477 0.0806 0.5139 0.0
H1414 H 0.3692 0.13005 0.48994 0.0
H1415 H 0.34295 0.1478 0.48967 0.0
H1416 H 0.35136 0.06666 0.48252 0.0
H1417 H 0.40518 0.12138 0.53192 0.0
H1418 H 0.38073 0.12337 0.5305 0.0
H1419 H 0.39627 0.13326 0.51296 0.0
C1420 C 0.32158 0.10547 0.50856 0.0
C1421 C 0.32347 0.12437 0.50145 0.0
C1422 C 0.33672 0.09541 0.50887 0.0
C1423 C 0.35405 0.10407 0.50214 0.0
C1424 C 0.35614 0.12326 0.49564 0.0
H1425 H 0.45577 0.06464 0.46882 0.0
H1426 H 0.42866 0.08117 0.47289 0.0
C1427 C 0.34105 0.13337 0.49542 0.0
C1428 C 0.36939 0.09232 0.50028 0.0
H1429 H 0.41632 0.09557 0.51116 0.0
C1430 C 0.36551 0.07287 0.48899 0.0
C1431 C 0.38786 0.10044 0.50869 0.0
C1432 C 0.39273 0.12067 0.52185 0.0
C1433 C 0.37971 0.06164 0.48541 0.0
C1434 C 0.39825 0.07002 0.49339 0.0
C1435 C 0.4021 0.08928 0.50492 0.0
C1436 C 0.41392 0.05912 0.48986 0.0
C1437 C 0.37496 0.04114 0.47268 0.0
C1438 C 0.41448 0.04113 0.49788 0.0
C1439 C 0.42996 0.03169 0.4956 0.0
C1440 C 0.44509 0.04008 0.48524 0.0
C1441 C 0.44425 0.05777 0.47677 0.0
C1442 C 0.42884 0.06728 0.47916 0.0
H1443 H 0.36086 0.0385 0.46485 0.0
H1444 H 0.38569 0.03998 0.46192 0.0
H1445 H 0.37499 0.02876 0.48175 0.0
H1446 H 0.4032 0.03473 0.50635 0.0
H1447 H 0.43032 0.01815 0.50239 0.0
H1448 H 0.68705 0.57064 0.32827 0.0
H1449 H 0.70412 0.60479 0.32382 0.0
H1450 H 0.66897 0.60248 0.27194 0.0
H1451 H 0.65197 0.56837 0.27608 0.0
H1452 H 0.70727 0.61372 0.26711 0.0
H1453 H 0.68688 0.65991 0.33163 0.0
H1454 H 0.69647 0.63831 0.33676 0.0
H1455 H 0.67441 0.63414 0.32268 0.0
C1456 C 0.68283 0.57746 0.316 0.0
C1457 C 0.66813 0.56672 0.30253 0.0
C1458 C 0.69254 0.59702 0.31355 0.0
C1459 C 0.68766 0.60623 0.29766 0.0
C1460 C 0.67291 0.59566 0.28433 0.0
H1461 H 0.72619 0.73236 0.27755 0.0
H1462 H 0.70735 0.69933 0.28307 0.0
C1463 C 0.6632 0.57614 0.28675 0.0
C1464 C 0.6985 0.62643 0.29432 0.0
H1465 H 0.71078 0.67693 0.31373 0.0
C1466 C 0.70801 0.62756 0.27728 0.0
C1467 C 0.69923 0.64447 0.3075 0.0
C1468 C 0.68858 0.64429 0.3256 0.0
C1469 C 0.71847 0.64622 0.27316 0.0
C1470 C 0.71968 0.66415 0.28662 0.0
C1471 C 0.70993 0.66311 0.30353 0.0
C1472 C 0.73103 0.68414 0.28336 0.0
C1473 C 0.72789 0.64661 0.2543 0.0
C1474 C 0.75056 0.68661 0.28196 0.0
C1475 C 0.76122 0.70537 0.2786 0.0
C1476 C 0.75254 0.722 0.27667 0.0
C1477 C 0.73308 0.71965 0.27848 0.0
C1478 C 0.72238 0.70087 0.28182 0.0
H1479 H 0.72157 0.63304 0.24354 0.0
H1480 H 0.72687 0.66071 0.24797 0.0
H1481 H 0.74303 0.64642 0.257 0.0
H1482 H 0.75757 0.67403 0.28352 0.0
H1483 H 0.77626 0.70685 0.27747 0.0
H1484 H 0.86182 0.49962 0.82346 0.0
H1485 H 0.84162 0.46536 0.81718 0.0
H1486 H 0.84516 0.4658 0.75575 0.0
H1487 H 0.86549 0.49979 0.76179 0.0
H1488 H 0.80659 0.45364 0.79565 0.0
H1489 H 0.85897 0.41117 0.76385 0.0
H1490 H 0.86565 0.43656 0.77741 0.0
H1491 H 0.85656 0.43317 0.75261 0.0
C1492 C 0.85844 0.49238 0.80862 0.0
C1493 C 0.86536 0.50246 0.79314 0.0
C1494 C 0.84686 0.47283 0.80506 0.0
C1495 C 0.84211 0.46298 0.78602 0.0
C1496 C 0.84897 0.47298 0.77057 0.0
H1497 H 0.77332 0.34483 0.7361 0.0
H1498 H 0.7914 0.38016 0.74086 0.0
C1499 C 0.86053 0.49247 0.77408 0.0
C1500 C 0.8295 0.44251 0.78223 0.0
H1501 H 0.82723 0.39308 0.76165 0.0
C1502 C 0.8111 0.44037 0.78828 0.0
C1503 C 0.83544 0.42529 0.77252 0.0
C1504 C 0.85528 0.42654 0.76636 0.0
C1505 C 0.79837 0.42144 0.78471 0.0
C1506 C 0.80434 0.40421 0.77508 0.0
C1507 C 0.82269 0.40639 0.76891 0.0
C1508 C 0.7921 0.38353 0.77213 0.0
C1509 C 0.77859 0.42007 0.79105 0.0
C1510 C 0.78648 0.37384 0.78814 0.0
C1511 C 0.77621 0.35371 0.7855 0.0
C1512 C 0.77142 0.34283 0.76677 0.0
C1513 C 0.77671 0.35277 0.75071 0.0
C1514 C 0.78708 0.37292 0.75339 0.0
H1515 H 0.77475 0.43538 0.79339 0.0
H1516 H 0.76819 0.40978 0.78019 0.0
H1517 H 0.77754 0.41367 0.80493 0.0
H1518 H 0.79051 0.38165 0.80272 0.0
H1519 H 0.77238 0.34657 0.7982 0.0
H1520 H 0.0428 0.83711 0.11112 0.0
H1521 H 0.04879 0.86533 0.09182 0.0
H1522 H 0.99573 0.84119 0.05891 0.0
H1523 H 0.9896 0.81289 0.07795 0.0
H1524 H 0.02781 0.86001 0.03708 0.0
H1525 H 0.01383 0.90808 0.10402 0.0
H1526 H 0.03187 0.89343 0.10622 0.0
H1527 H 0.00776 0.88044 0.1009 0.0
C1528 C 0.03261 0.83748 0.09946 0.0
C1529 C 0.01554 0.82295 0.09633 0.0
C1530 C 0.03607 0.85363 0.08846 0.0
C1531 C 0.02256 0.85541 0.07417 0.0
C1532 C 0.00628 0.84004 0.06993 0.0
H1533 H 0.99012 0.95898 0.0346 0.0
H1534 H 0.99206 0.92575 0.04419 0.0
C1535 C 0.00278 0.82394 0.08092 0.0
C1536 C 0.02399 0.87455 0.06556 0.0
H1537 H 0.01922 0.92419 0.07636 0.0
C1538 C 0.02615 0.87414 0.04564 0.0
C1539 C 0.02152 0.89279 0.07681 0.0
C1540 C 0.01848 0.89384 0.09815 0.0
C1541 C 0.0258 0.89161 0.03664 0.0
C1542 C 0.02317 0.90975 0.04791 0.0
C1543 C 0.02124 0.91019 0.06783 0.0
C1544 C 0.02164 0.92839 0.03939 0.0
C1545 C 0.02767 0.89051 0.01513 0.0
C1546 C 0.03761 0.94065 0.03323 0.0
C1547 C 0.0366 0.95974 0.02781 0.0
C1548 C 0.01959 0.96685 0.02854 0.0
C1549 C 0.00344 0.95404 0.03391 0.0
C1550 C 0.0045 0.93503 0.03938 0.0
H1551 H 0.02722 0.8746 0.00807 0.0
H1552 H 0.01622 0.89655 0.00829 0.0
H1553 H 0.04128 0.90024 0.01243 0.0
H1554 H 0.05101 0.93584 0.03338 0.0
H1555 H 0.0493 0.96918 0.0237 0.0
H1556 H 0.94144 0.25082 0.80942 0.0
H1557 H 0.91173 0.25578 0.79514 0.0
H1558 H 0.88301 0.23413 0.84365 0.0
H1559 H 0.91262 0.22835 0.85769 0.0
H1560 H 0.86324 0.21775 0.81018 0.0
H1561 H 0.88504 0.30158 0.81109 0.0
H1562 H 0.90063 0.28787 0.79823 0.0
H1563 H 0.89878 0.28713 0.82378 0.0
C1564 C 0.92884 0.2472 0.81713 0.0
C1565 C 0.92946 0.23942 0.83483 0.0
C1566 C 0.91186 0.25018 0.80899 0.0
C1567 C 0.89521 0.24579 0.81854 0.0
C1568 C 0.89573 0.23779 0.83611 0.0
H1569 H 0.79493 0.28923 0.78605 0.0
H1570 H 0.82263 0.28244 0.80301 0.0
C1571 C 0.91269 0.23458 0.84417 0.0
C1572 C 0.87722 0.24912 0.80991 0.0
H1573 H 0.85699 0.28506 0.79168 0.0
C1574 C 0.86181 0.23251 0.80627 0.0
C1575 C 0.87526 0.26846 0.80511 0.0
C1576 C 0.89075 0.28732 0.80994 0.0
C1577 C 0.84463 0.23459 0.79753 0.0
C1578 C 0.84302 0.25365 0.7918 0.0
C1579 C 0.8583 0.27036 0.79583 0.0
C1580 C 0.82555 0.25683 0.78189 0.0
C1581 C 0.82831 0.21644 0.79488 0.0
C1582 C 0.81796 0.24476 0.76432 0.0
C1583 C 0.80181 0.24834 0.75483 0.0
C1584 C 0.79316 0.26422 0.76265 0.0
C1585 C 0.80097 0.2765 0.78001 0.0
C1586 C 0.81693 0.27277 0.7896 0.0
H1587 H 0.82998 0.20542 0.80507 0.0
H1588 H 0.81473 0.22138 0.79709 0.0
H1589 H 0.82768 0.20824 0.77994 0.0
H1590 H 0.82468 0.23276 0.7578 0.0
H1591 H 0.79618 0.2388 0.74135 0.0
H1592 H 0.53388 0.23537 0.61722 0.0
H1593 H 0.54458 0.20651 0.59905 0.0
H1594 H 0.48698 0.17741 0.58112 0.0
H1595 H 0.47609 0.2061 0.59911 0.0
H1596 H 0.51248 0.15156 0.59615 0.0
H1597 H 0.53989 0.19534 0.5372 0.0
H1598 H 0.54656 0.20675 0.56194 0.0
H1599 H 0.52253 0.20316 0.55272 0.0
C1600 C 0.52346 0.22276 0.60955 0.0
C1601 C 0.50411 0.22311 0.60956 0.0
C1602 C 0.52963 0.20635 0.59912 0.0
C1603 C 0.51656 0.18999 0.58865 0.0
C1604 C 0.49726 0.18997 0.58909 0.0
H1605 H 0.5087 0.092 0.49858 0.0
H1606 H 0.50968 0.12438 0.51941 0.0
C1607 C 0.49108 0.2064 0.59937 0.0
C1608 C 0.52284 0.17298 0.57681 0.0
H1609 H 0.54081 0.16025 0.53351 0.0
C1610 C 0.51896 0.15346 0.58261 0.0
C1611 C 0.53115 0.17561 0.55912 0.0
C1612 C 0.53526 0.19629 0.5522 0.0
C1613 C 0.52272 0.13631 0.57087 0.0
C1614 C 0.53062 0.13884 0.55295 0.0
C1615 C 0.53494 0.15846 0.54737 0.0
C1616 C 0.53239 0.12092 0.53893 0.0
C1617 C 0.51741 0.11544 0.57726 0.0
C1618 C 0.54536 0.10866 0.54262 0.0
C1619 C 0.54493 0.09015 0.53063 0.0
C1620 C 0.5314 0.0836 0.5149 0.0
C1621 C 0.51922 0.09656 0.51064 0.0
C1622 C 0.51977 0.11508 0.52251 0.0
H1623 H 0.50937 0.1158 0.59046 0.0
H1624 H 0.50878 0.10437 0.56552 0.0
H1625 H 0.53038 0.1097 0.58043 0.0
H1626 H 0.55529 0.11303 0.55519 0.0
H1627 H 0.55445 0.08046 0.53434 0.0
H1628 H 0.53825 0.78288 0.33005 0.0
H1629 H 0.56925 0.7863 0.3167 0.0
H1630 H 0.57598 0.72955 0.33583 0.0
H1631 H 0.54507 0.72598 0.34936 0.0
H1632 H 0.60801 0.77978 0.34071 0.0
H1633 H 0.58026 0.72948 0.27153 0.0
H1634 H 0.56594 0.74482 0.28491 0.0
H1635 H 0.57137 0.72283 0.29412 0.0
C1636 C 0.54638 0.77121 0.33159 0.0
C1637 C 0.53915 0.75412 0.34072 0.0
C1638 C 0.56406 0.7732 0.32395 0.0
C1639 C 0.57474 0.7581 0.32521 0.0
C1640 C 0.56784 0.7413 0.3347 0.0
H1641 H 0.67681 0.7359 0.27279 0.0
H1642 H 0.64591 0.73265 0.28646 0.0
C1643 C 0.55021 0.73934 0.34245 0.0
C1644 C 0.59294 0.75964 0.31619 0.0
H1645 H 0.61288 0.7431 0.27525 0.0
C1646 C 0.60914 0.77182 0.3264 0.0
C1647 C 0.59426 0.74904 0.29763 0.0
C1648 C 0.57709 0.73579 0.28625 0.0
C1649 C 0.62679 0.77363 0.31851 0.0
C1650 C 0.62811 0.76337 0.29971 0.0
C1651 C 0.61185 0.75103 0.2896 0.0
C1652 C 0.64626 0.76522 0.29034 0.0
C1653 C 0.64391 0.78612 0.3306 0.0
C1654 C 0.65641 0.78451 0.2874 0.0
C1655 C 0.67404 0.7864 0.27972 0.0
C1656 C 0.68171 0.76898 0.27455 0.0
C1657 C 0.67118 0.74956 0.27663 0.0
C1658 C 0.65358 0.7477 0.28447 0.0
H1659 H 0.64143 0.7879 0.34626 0.0
H1660 H 0.65636 0.77898 0.32844 0.0
H1661 H 0.64723 0.80168 0.32626 0.0
H1662 H 0.65081 0.79818 0.29131 0.0
H1663 H 0.68182 0.80154 0.27816 0.0
H1664 H 0.02801 0.22829 0.42507 0.0
H1665 H 0.03515 0.20038 0.44143 0.0
H1666 H 0.98084 0.19308 0.46549 0.0
H1667 H 0.97367 0.22117 0.44952 0.0
H1668 H 0.01009 0.18968 0.49184 0.0
H1669 H 0.01014 0.14085 0.42113 0.0
H1670 H 0.02641 0.16509 0.42417 0.0
H1671 H 0.0015 0.16438 0.42325 0.0
C1672 C 0.01762 0.22087 0.43396 0.0
C1673 C 0.00016 0.22683 0.43577 0.0
C1674 C 0.02173 0.20489 0.44327 0.0
C1675 C 0.00839 0.19446 0.45439 0.0
C1676 C 0.9913 0.20091 0.45691 0.0
H1677 H 0.98889 0.07188 0.47879 0.0
H1678 H 0.98849 0.1055 0.46958 0.0
C1679 C 0.98721 0.21694 0.4477 0.0
C1680 C 0.01165 0.17602 0.46246 0.0
H1681 H 0.01641 0.12669 0.44916 0.0
C1682 C 0.01163 0.17593 0.48256 0.0
C1683 C 0.01345 0.15807 0.45026 0.0
C1684 C 0.01273 0.15693 0.42849 0.0
C1685 C 0.01308 0.15823 0.49077 0.0
C1686 C 0.01478 0.14029 0.47853 0.0
C1687 C 0.01519 0.14054 0.45849 0.0
C1688 C 0.01464 0.12054 0.48584 0.0
C1689 C 0.01205 0.15856 0.51233 0.0
C1690 C 0.02938 0.1179 0.4983 0.0
C1691 C 0.02964 0.09857 0.50371 0.0
C1692 C 0.01524 0.08162 0.49655 0.0
C1693 C 0.00029 0.08454 0.48448 0.0
C1694 C 1e-05 0.10377 0.47919 0.0
H1695 H 0.00734 0.17239 0.51925 0.0
H1696 H 0.00223 0.14469 0.51557 0.0
H1697 H 0.02621 0.15855 0.51896 0.0
H1698 H 0.04095 0.1306 0.50337 0.0
H1699 H 0.04141 0.09678 0.51292 0.0
H1700 H 0.54258 0.27683 0.20532 0.0
H1701 H 0.5731 0.26714 0.20894 0.0
H1702 H 0.58174 0.27231 0.14892 0.0
H1703 H 0.55116 0.2822 0.14513 0.0
H1704 H 0.58614 0.2333 0.18738 0.0
H1705 H 0.62905 0.3099 0.17946 0.0
H1706 H 0.60453 0.30636 0.18461 0.0
H1707 H 0.61093 0.29843 0.16069 0.0
C1708 C 0.55095 0.27597 0.19287 0.0
C1709 C 0.54449 0.28042 0.17496 0.0
C1710 C 0.56835 0.27034 0.19496 0.0
C1711 C 0.57967 0.26914 0.17924 0.0
C1712 C 0.57325 0.27337 0.16127 0.0
H1713 H 0.69762 0.25829 0.18925 0.0
H1714 H 0.66627 0.25708 0.1741 0.0
C1715 C 0.5558 0.27901 0.15915 0.0
C1716 C 0.59832 0.2638 0.18198 0.0
H1717 H 0.64536 0.28454 0.18625 0.0
C1718 C 0.59913 0.24439 0.18693 0.0
C1719 C 0.61518 0.27827 0.18122 0.0
C1720 C 0.61503 0.29948 0.17633 0.0
C1721 C 0.61642 0.23925 0.19168 0.0
C1722 C 0.63324 0.25408 0.19186 0.0
C1723 C 0.63245 0.27317 0.18608 0.0
C1724 C 0.6516 0.25107 0.19977 0.0
C1725 C 0.61647 0.21807 0.19665 0.0
C1726 C 0.65369 0.24763 0.21907 0.0
C1727 C 0.67153 0.2482 0.22769 0.0
C1728 C 0.68759 0.25248 0.21721 0.0
C1729 C 0.68543 0.25493 0.19763 0.0
C1730 C 0.66756 0.25427 0.18898 0.0
H1731 H 0.60411 0.20674 0.18938 0.0
H1732 H 0.62953 0.21286 0.19245 0.0
H1733 H 0.6156 0.21829 0.2125 0.0
H1734 H 0.64166 0.24563 0.22783 0.0
H1735 H 0.67283 0.24639 0.24284 0.0
H1736 H 0.4793 0.82488 0.94715 0.0
H1737 H 0.49012 0.85909 0.96492 0.0
H1738 H 0.54324 0.86393 0.93854 0.0
H1739 H 0.53231 0.82963 0.92016 0.0
H1740 H 0.51985 0.87578 0.99097 0.0
H1741 H 0.52537 0.91443 0.925 0.0
H1742 H 0.5141 0.88787 0.92424 0.0
H1743 H 0.53935 0.89529 0.92631 0.0
C1744 C 0.49334 0.83309 0.94512 0.0
C1745 C 0.50486 0.82452 0.93204 0.0
C1746 C 0.49953 0.85268 0.95536 0.0
C1747 C 0.51737 0.86421 0.95285 0.0
C1748 C 0.52926 0.85547 0.9404 0.0
H1749 H 0.54829 0.98282 0.02993 0.0
H1750 H 0.55129 0.94943 0.01273 0.0
C1751 C 0.52303 0.83581 0.93 0.0
C1752 C 0.52293 0.88555 0.96293 0.0
H1753 H 0.53097 0.93554 0.95502 0.0
C1754 C 0.52255 0.88888 0.98316 0.0
C1755 C 0.52629 0.90259 0.95265 0.0
C1756 C 0.52619 0.89999 0.93085 0.0
C1757 C 0.52457 0.90872 0.99334 0.0
C1758 C 0.52755 0.92574 0.98302 0.0
C1759 C 0.52878 0.92247 0.96288 0.0
C1760 C 0.52722 0.94676 0.99248 0.0
C1761 C 0.52236 0.91113 0.01487 0.0
C1762 C 0.51321 0.9567 0.98631 0.0
C1763 C 0.51164 0.97577 0.99591 0.0
C1764 C 0.52402 0.98528 0.01192 0.0
C1765 C 0.53846 0.9757 0.01773 0.0
C1766 C 0.54012 0.95662 0.00799 0.0
H1767 H 0.51626 0.89633 0.01983 0.0
H1768 H 0.53638 0.91712 0.02268 0.0
H1769 H 0.51318 0.92218 0.01898 0.0
H1770 H 0.50311 0.9494 0.97437 0.0
H1771 H 0.50035 0.98277 0.99113 0.0
H1772 H 0.92175 0.77658 0.65365 0.0
H1773 H 0.89313 0.77118 0.67112 0.0
H1774 H 0.92669 0.77746 0.72484 0.0
H1775 H 0.95535 0.7819 0.70733 0.0
H1776 H 0.89537 0.74891 0.7245 0.0
H1777 H 0.87719 0.81897 0.70153 0.0
H1778 H 0.87886 0.80013 0.68136 0.0
H1779 H 0.89947 0.81184 0.69713 0.0
C1780 C 0.92304 0.77653 0.66913 0.0
C1781 C 0.94081 0.77991 0.67914 0.0
C1782 C 0.90667 0.77358 0.67912 0.0
C1783 C 0.90782 0.77455 0.69935 0.0
C1784 C 0.92549 0.77683 0.70924 0.0
H1785 H 0.81713 0.80612 0.76586 0.0
H1786 H 0.848 0.80504 0.75351 0.0
C1787 C 0.94185 0.77938 0.69921 0.0
C1788 C 0.89075 0.7743 0.7103 0.0
H1789 H 0.85395 0.79845 0.71744 0.0
C1790 C 0.88633 0.75979 0.72306 0.0
C1791 C 0.87925 0.78884 0.70876 0.0
C1792 C 0.88402 0.80596 0.69662 0.0
C1793 C 0.8705 0.75919 0.73406 0.0
C1794 C 0.85849 0.77308 0.73175 0.0
C1795 C 0.86309 0.78773 0.71917 0.0
C1796 C 0.84091 0.77276 0.7419 0.0
C1797 C 0.8671 0.74399 0.74829 0.0
C1798 C 0.82682 0.75486 0.73998 0.0
C1799 C 0.80931 0.75536 0.74743 0.0
C1800 C 0.80546 0.77391 0.75643 0.0
C1801 C 0.81973 0.79165 0.75888 0.0
C1802 C 0.83734 0.79104 0.75182 0.0
H1803 H 0.88043 0.73975 0.75307 0.0
H1804 H 0.86057 0.75018 0.76126 0.0
H1805 H 0.85748 0.72977 0.74119 0.0
H1806 H 0.829 0.74071 0.73193 0.0
H1807 H 0.79847 0.74151 0.74515 0.0
H1808 H 0.07987 0.02641 0.81841 0.0
H1809 H 0.06699 0.03106 0.85014 0.0
H1810 H 0.09413 0.98428 0.86827 0.0
H1811 H 0.1076 0.98013 0.83691 0.0
H1812 H 0.04318 0.00468 0.86657 0.0
H1813 H 0.10916 0.02818 0.91368 0.0
H1814 H 0.10888 0.0271 0.88772 0.0
H1815 H 0.10812 0.00415 0.8987 0.0
C1816 C 0.08326 0.0173 0.82925 0.0
C1817 C 0.09483 0.003 0.82524 0.0
C1818 C 0.07589 0.01996 0.84736 0.0
C1819 C 0.07986 0.00827 0.86171 0.0
C1820 C 0.09133 0.99391 0.85766 0.0
H1821 H 0.01029 0.98531 0.95813 0.0
H1822 H 0.02604 0.98278 0.92779 0.0
C1823 C 0.09892 0.99146 0.83967 0.0
C1824 C 0.07113 0.01027 0.8805 0.0
H1825 H 0.0809 0.01773 0.92943 0.0
C1826 C 0.05144 0.0077 0.88032 0.0
C1827 C 0.08193 0.01447 0.89844 0.0
C1828 C 0.1032 0.01885 0.89968 0.0
C1829 C 0.04223 0.0089 0.89756 0.0
C1830 C 0.05296 0.01205 0.91548 0.0
C1831 C 0.07267 0.01498 0.91568 0.0
C1832 C 0.04406 0.01297 0.9342 0.0
C1833 C 0.02114 0.0072 0.89635 0.0
C1834 C 0.04957 0.03034 0.94823 0.0
C1835 C 0.04087 0.03162 0.96567 0.0
C1836 C 0.02645 0.01557 0.96932 0.0
C1837 C 0.02124 0.99797 0.95552 0.0
C1838 C 0.03012 0.99659 0.93816 0.0
H1839 H 0.01601 0.01101 0.88233 0.0
H1840 H 0.01413 0.9912 0.89748 0.0
H1841 H 0.01678 0.01753 0.90826 0.0
H1842 H 0.06037 0.0431 0.94553 0.0
H1843 H 0.04516 0.04536 0.9761 0.0
H1844 H 0.72952 0.38195 0.5528 0.0
H1845 H 0.71572 0.36088 0.5768 0.0
H1846 H 0.76069 0.32742 0.57205 0.0
H1847 H 0.77434 0.34796 0.54796 0.0
H1848 H 0.72515 0.30269 0.57691 0.0
H1849 H 0.74324 0.37346 0.63106 0.0
H1850 H 0.72775 0.37417 0.61051 0.0
H1851 H 0.75182 0.3724 0.60716 0.0
C1852 C 0.73624 0.36981 0.55656 0.0
C1853 C 0.75324 0.36691 0.54874 0.0
C1854 C 0.72837 0.35785 0.57032 0.0
C1855 C 0.73742 0.3429 0.57645 0.0
C1856 C 0.75355 0.33896 0.56758 0.0
H1857 H 0.75408 0.27458 0.66634 0.0
H1858 H 0.74972 0.28667 0.63519 0.0
C1859 C 0.76139 0.35083 0.55388 0.0
C1860 C 0.73161 0.33285 0.5935 0.0
H1861 H 0.73312 0.34245 0.64276 0.0
C1862 C 0.72656 0.31136 0.59131 0.0
C1863 C 0.73351 0.34423 0.61224 0.0
C1864 C 0.73949 0.36732 0.61554 0.0
C1865 C 0.72396 0.30091 0.60746 0.0
C1866 C 0.72684 0.31227 0.62623 0.0
C1867 C 0.73093 0.33378 0.62834 0.0
C1868 C 0.72743 0.30242 0.64397 0.0
C1869 C 0.71846 0.27782 0.60427 0.0
C1870 C 0.71647 0.30735 0.65929 0.0
C1871 C 0.71918 0.30073 0.67714 0.0
C1872 C 0.73288 0.28908 0.67997 0.0
C1873 C 0.74336 0.28347 0.66446 0.0
C1874 C 0.74074 0.2902 0.64662 0.0
H1875 H 0.71062 0.27212 0.58998 0.0
H1876 H 0.73139 0.27135 0.60446 0.0
H1877 H 0.70962 0.27204 0.61578 0.0
H1878 H 0.70624 0.31689 0.65763 0.0
H1879 H 0.71099 0.30528 0.68893 0.0
H1880 H 0.44866 0.03259 0.28479 0.0
H1881 H 0.47066 0.02854 0.31101 0.0
H1882 H 0.44792 0.07106 0.35033 0.0
H1883 H 0.42689 0.076 0.32424 0.0
H1884 H 0.4848 0.07802 0.35616 0.0
H1885 H 0.4561 0.99454 0.3533 0.0
H1886 H 0.46557 0.00191 0.33133 0.0
H1887 H 0.44497 0.01052 0.33971 0.0
C1888 C 0.44848 0.04115 0.29901 0.0
C1889 C 0.43572 0.05427 0.30252 0.0
C1890 C 0.46094 0.0387 0.31401 0.0
C1891 C 0.46063 0.04911 0.33278 0.0
C1892 C 0.44835 0.06273 0.33604 0.0
H1893 H 0.48827 0.0185 0.44369 0.0
H1894 H 0.47453 0.02381 0.41271 0.0
C1895 C 0.43615 0.06537 0.3211 0.0
C1896 C 0.47264 0.04579 0.34935 0.0
H1897 H 0.48053 0.00958 0.37701 0.0
C1898 C 0.48398 0.06303 0.36066 0.0
C1899 C 0.4714 0.02625 0.35531 0.0
C1900 C 0.45875 0.00726 0.34441 0.0
C1901 C 0.49353 0.06141 0.37811 0.0
C1902 C 0.49228 0.04187 0.38408 0.0
C1903 C 0.4815 0.02454 0.3724 0.0
C1904 C 0.50089 0.03915 0.40299 0.0
C1905 C 0.50402 0.0808 0.39041 0.0
C1906 C 0.52028 0.04601 0.4079 0.0
C1907 C 0.52808 0.04341 0.42585 0.0
C1908 C 0.51668 0.03349 0.43897 0.0
C1909 C 0.49735 0.02637 0.43393 0.0
C1910 C 0.48952 0.02927 0.41617 0.0
H1911 H 0.49939 0.09461 0.38639 0.0
H1912 H 0.50198 0.08019 0.40601 0.0
H1913 H 0.51929 0.08266 0.38828 0.0
H1914 H 0.52943 0.05319 0.3978 0.0
H1915 H 0.54307 0.04883 0.42931 0.0
H1916 H 0.81416 0.71291 0.06031 0.0
H1917 H 0.80471 0.72491 0.09227 0.0
H1918 H 0.74935 0.68687 0.07856 0.0
H1919 H 0.75872 0.67451 0.04668 0.0
H1920 H 0.77586 0.74519 0.10243 0.0
H1921 H 0.7651 0.66993 0.12982 0.0
H1922 H 0.77721 0.6745 0.10826 0.0
H1923 H 0.75193 0.67011 0.10751 0.0
C1924 C 0.79997 0.70706 0.06405 0.0
C1925 C 0.78727 0.69262 0.0509 0.0
C1926 C 0.79458 0.71396 0.08235 0.0
C1927 C 0.77642 0.70654 0.08795 0.0
C1928 C 0.76357 0.69247 0.07474 0.0
H1929 H 0.73056 0.7358 0.20132 0.0
H1930 H 0.73237 0.72282 0.16697 0.0
C1931 C 0.76895 0.68552 0.05645 0.0
C1932 C 0.771 0.71372 0.10757 0.0
H1933 H 0.75817 0.69776 0.15055 0.0
C1934 C 0.7719 0.73479 0.1129 0.0
C1935 C 0.7657 0.70013 0.12121 0.0
C1936 C 0.76505 0.67742 0.11654 0.0
C1937 C 0.76797 0.74267 0.13158 0.0
C1938 C 0.76325 0.72918 0.14539 0.0
C1939 C 0.76172 0.70804 0.1399 0.0
C1940 C 0.76174 0.73698 0.16603 0.0
C1941 C 0.76909 0.76544 0.13645 0.0
C1942 C 0.77768 0.74893 0.17689 0.0
C1943 C 0.77674 0.75623 0.19637 0.0
C1944 C 0.75979 0.75174 0.20558 0.0
C1945 C 0.74379 0.73962 0.1947 0.0
C1946 C 0.7448 0.73218 0.17509 0.0
H1947 H 0.76747 0.7727 0.12323 0.0
H1948 H 0.75808 0.76869 0.1463 0.0
H1949 H 0.78307 0.77269 0.14387 0.0
H1950 H 0.79097 0.75251 0.1703 0.0
H1951 H 0.7894 0.76547 0.20417 0.0
H1952 H 0.0939 0.01485 0.71887 0.0
H1953 H 0.08764 0.02676 0.68813 0.0
H1954 H 0.1472 0.04108 0.68049 0.0
H1955 H 0.15373 0.02929 0.71143 0.0
H1956 H 0.10784 0.07019 0.67606 0.0
H1957 H 0.1164 0.99792 0.63129 0.0
H1958 H 0.10924 0.99782 0.65574 0.0
H1959 H 0.13288 0.00948 0.65162 0.0
C1960 C 0.10571 0.02055 0.71072 0.0
C1961 C 0.12432 0.02103 0.71755 0.0
C1962 C 0.10209 0.02743 0.69322 0.0
C1963 C 0.11697 0.03478 0.68218 0.0
C1964 C 0.13557 0.03546 0.68892 0.0
H1965 H 0.09159 0.04632 0.56134 0.0
H1966 H 0.11086 0.04885 0.59156 0.0
C1967 C 0.13925 0.02868 0.70654 0.0
C1968 C 0.11269 0.04092 0.66324 0.0
H1969 H 0.10388 0.02151 0.61549 0.0
C1970 C 0.10726 0.05976 0.66271 0.0
C1971 C 0.11218 0.02733 0.64595 0.0
C1972 C 0.11795 0.00695 0.64597 0.0
C1973 C 0.10057 0.06503 0.6453 0.0
C1974 C 0.0988 0.0508 0.62817 0.0
C1975 C 0.10522 0.03243 0.6286 0.0
C1976 C 0.08848 0.0534 0.61018 0.0
C1977 C 0.09523 0.08565 0.64552 0.0
C1978 C 0.06965 0.05565 0.6106 0.0
C1979 C 0.05872 0.05442 0.5934 0.0
C1980 C 0.06633 0.05055 0.57548 0.0
C1981 C 0.08541 0.04931 0.57501 0.0
C1982 C 0.0964 0.05073 0.59224 0.0
H1983 H 0.10386 0.09719 0.65692 0.0
H1984 H 0.09702 0.09131 0.63134 0.0
H1985 H 0.08026 0.08429 0.64889 0.0
H1986 H 0.06304 0.05715 0.62419 0.0
H1987 H 0.04401 0.05528 0.59416 0.0
H1988 H 0.78913 0.35538 0.46517 0.0
H1989 H 0.78277 0.33745 0.43223 0.0
H1990 H 0.74853 0.38001 0.41841 0.0
H1991 H 0.75447 0.39791 0.45169 0.0
H1992 H 0.73261 0.33999 0.40334 0.0
H1993 H 0.80728 0.35883 0.38585 0.0
H1994 H 0.80414 0.34594 0.40677 0.0
H1995 H 0.79871 0.371 0.40727 0.0
C1996 C 0.78023 0.361 0.45517 0.0
C1997 C 0.77249 0.37827 0.46103 0.0
C1998 C 0.77668 0.35075 0.4363 0.0
C1999 C 0.76556 0.35768 0.42274 0.0
C2000 C 0.75729 0.37451 0.42863 0.0
H2001 H 0.76532 0.32485 0.29881 0.0
H2002 H 0.7688 0.34197 0.33217 0.0
C2003 C 0.76071 0.38473 0.44764 0.0
C2004 C 0.76277 0.3474 0.40241 0.0
H2005 H 0.78669 0.33381 0.36336 0.0
C2006 C 0.7444 0.33871 0.39454 0.0
C2007 C 0.77818 0.34599 0.39088 0.0
C2008 C 0.79817 0.35611 0.39804 0.0
C2009 C 0.74103 0.32834 0.37552 0.0
C2010 C 0.75651 0.32624 0.36426 0.0
C2011 C 0.77485 0.3352 0.37207 0.0
C2012 C 0.75407 0.31557 0.34405 0.0
C2013 C 0.72094 0.32014 0.36755 0.0
C2014 C 0.74484 0.29491 0.33963 0.0
C2015 C 0.74273 0.28509 0.32048 0.0
C2016 C 0.75006 0.29572 0.30554 0.0
C2017 C 0.75959 0.31624 0.31005 0.0
C2018 C 0.76155 0.32607 0.3291 0.0
H2019 H 0.71092 0.3278 0.37587 0.0
H2020 H 0.71914 0.32222 0.35211 0.0
H2021 H 0.71714 0.3035 0.36855 0.0
H2022 H 0.73938 0.28634 0.35099 0.0
H2023 H 0.73543 0.26921 0.31737 0.0
H2024 H 0.41525 0.0602 0.23663 0.0
H2025 H 0.4468 0.06483 0.22418 0.0
H2026 H 0.4243 0.0219 0.17326 0.0
H2027 H 0.39346 0.0164 0.186 0.0
H2028 H 0.45828 0.01653 0.18546 0.0
H2029 H 0.46061 0.09945 0.18196 0.0
H2030 H 0.45932 0.09084 0.20526 0.0
H2031 H 0.43956 0.08276 0.18772 0.0
C2032 C 0.41724 0.05138 0.22306 0.0
C2033 C 0.40189 0.0379 0.21234 0.0
C2034 C 0.43519 0.05425 0.21583 0.0
C2035 C 0.43789 0.04391 0.19765 0.0
C2036 C 0.42265 0.03 0.18734 0.0
H2037 H 0.47775 0.06276 0.09537 0.0
H2038 H 0.46725 0.06469 0.12805 0.0
C2039 C 0.40492 0.02699 0.1946 0.0
C2040 C 0.45588 0.04815 0.18812 0.0
H2041 H 0.48054 0.08353 0.16287 0.0
C2042 C 0.46355 0.03129 0.18084 0.0
C2043 C 0.46284 0.0675 0.18235 0.0
C2044 C 0.45518 0.08621 0.1896 0.0
C2045 C 0.4761 0.03256 0.16607 0.0
C2046 C 0.48177 0.05153 0.15905 0.0
C2047 C 0.47598 0.06897 0.16814 0.0
C2048 C 0.49015 0.05271 0.14007 0.0
C2049 C 0.48152 0.0131 0.15687 0.0
C2050 C 0.50686 0.04586 0.13594 0.0
C2051 C 0.51264 0.04425 0.117 0.0
C2052 C 0.50205 0.04998 0.10211 0.0
C2053 C 0.48612 0.05812 0.10655 0.0
C2054 C 0.48017 0.05934 0.12529 0.0
H2055 H 0.47349 -0.00075 0.16214 0.0
H2056 H 0.47902 0.01118 0.14089 0.0
H2057 H 0.49672 0.0139 0.16039 0.0
H2058 H 0.5151 0.0412 0.14719 0.0
H2059 H 0.52513 0.03817 0.11393 0.0
H2060 H 0.81498 0.72712 0.9602 0.0
H2061 H 0.80927 0.74417 0.93234 0.0
H2062 H 0.75303 0.70741 0.92265 0.0
H2063 H 0.75858 0.69014 0.9504 0.0
H2064 H 0.77467 0.70638 0.88983 0.0
H2065 H 0.77662 0.78634 0.92378 0.0
H2066 H 0.79625 0.77567 0.93093 0.0
H2067 H 0.77304 0.76493 0.93736 0.0
C2068 C 0.80125 0.72291 0.95242 0.0
C2069 C 0.78727 0.70717 0.95757 0.0
C2070 C 0.798 0.73273 0.93649 0.0
C2071 C 0.7807 0.72711 0.92547 0.0
C2072 C 0.76648 0.71198 0.93098 0.0
H2073 H 0.73659 0.75553 0.81711 0.0
H2074 H 0.74188 0.74126 0.84686 0.0
C2075 C 0.76968 0.70218 0.94692 0.0
C2076 C 0.77793 0.73585 0.90737 0.0
H2077 H 0.77644 0.78053 0.88953 0.0
C2078 C 0.77495 0.72257 0.88976 0.0
C2079 C 0.77849 0.757 0.90731 0.0
C2080 C 0.78112 0.77184 0.92585 0.0
C2081 C 0.77271 0.72991 0.87204 0.0
C2082 C 0.77309 0.75104 0.872 0.0
C2083 C 0.77617 0.76434 0.88961 0.0
C2084 C 0.76998 0.7596 0.85386 0.0
C2085 C 0.77036 0.71501 0.85352 0.0
C2086 C 0.78383 0.77501 0.84814 0.0
C2087 C 0.78082 0.78319 0.83111 0.0
C2088 C 0.76389 0.77613 0.81959 0.0
C2089 C 0.74994 0.76093 0.82549 0.0
C2090 C 0.75295 0.75276 0.84248 0.0
H2091 H 0.77571 0.70098 0.85555 0.0
H2092 H 0.75516 0.71026 0.84878 0.0
H2093 H 0.77782 0.72216 0.84178 0.0
H2094 H 0.79703 0.78059 0.85678 0.0
H2095 H 0.79176 0.79496 0.82692 0.0
H2096 H 0.84741 0.13078 0.00379 0.0
H2097 H 0.87134 0.11181 0.0123 0.0
H2098 H 0.83361 0.08008 0.04972 0.0
H2099 H 0.80943 0.09863 0.04094 0.0
H2100 H 0.88918 0.10687 0.04674 0.0
H2101 H 0.84427 0.03352 0.01085 0.0
H2102 H 0.83888 0.05815 0.00823 0.0
H2103 H 0.83401 0.04715 0.03006 0.0
C2104 C 0.84431 0.11999 0.01405 0.0
C2105 C 0.82649 0.11595 0.02148 0.0
C2106 C 0.85798 0.10917 0.01889 0.0
C2107 C 0.85404 0.09425 0.03129 0.0
C2108 C 0.83672 0.09119 0.03977 0.0
H2109 H 0.94771 0.03564 0.05973 0.0
H2110 H 0.91927 0.04972 0.06443 0.0
C2111 C 0.82298 0.10188 0.0348 0.0
C2112 C 0.86768 0.08109 0.03424 0.0
H2113 H 0.87435 0.03208 0.02363 0.0
C2114 C 0.88593 0.09047 0.04194 0.0
C2115 C 0.86332 0.05974 0.02777 0.0
C2116 C 0.84412 0.049 0.01861 0.0
C2117 C 0.9002 0.07919 0.0427 0.0
C2118 C 0.8959 0.05788 0.03597 0.0
C2119 C 0.87748 0.04837 0.02894 0.0
C2120 C 0.91084 0.04584 0.03385 0.0
C2121 C 0.91996 0.09042 0.04964 0.0
C2122 C 0.91471 0.03774 0.01524 0.0
C2123 C 0.93072 0.02942 0.01255 0.0
C2124 C 0.94308 0.02921 0.02845 0.0
C2125 C 0.93843 0.03584 0.04722 0.0
C2126 C 0.9223 0.04398 0.04992 0.0
H2127 H 0.92151 0.10732 0.05073 0.0
H2128 H 0.92347 0.08672 0.0642 0.0
H2129 H 0.93034 0.0856 0.03972 0.0
H2130 H 0.90593 0.03894 0.00267 0.0
H2131 H 0.93401 0.02435 0.99796 0.0
H2132 H 0.33067 0.42173 0.05321 0.0
H2133 H 0.36209 0.43863 0.04615 0.0
H2134 H 0.33898 0.45435 0.9935 0.0
H2135 H 0.30726 0.43851 0.00122 0.0
H2136 H 0.38349 0.43178 0.01896 0.0
H2137 H 0.36827 0.50907 0.01584 0.0
H2138 H 0.35155 0.48874 0.02377 0.0
H2139 H 0.35407 0.48965 0.99833 0.0
C2140 C 0.33229 0.42885 0.04016 0.0
C2141 C 0.31656 0.42901 0.02785 0.0
C2142 C 0.35026 0.43849 0.03611 0.0
C2143 C 0.35292 0.44816 0.01947 0.0
C2144 C 0.33725 0.44763 0.00675 0.0
H2145 H 0.47091 0.48403 0.99166 0.0
H2146 H 0.43755 0.46753 0.98888 0.0
C2147 C 0.31916 0.43843 0.01108 0.0
C2148 C 0.37219 0.45856 0.01564 0.0
H2149 H 0.3986 0.50442 0.00782 0.0
C2150 C 0.38679 0.44768 0.01654 0.0
C2151 C 0.37653 0.47937 0.01261 0.0
C2152 C 0.36182 0.49245 0.01277 0.0
C2153 C 0.40564 0.45712 0.01517 0.0
C2154 C 0.40995 0.47782 0.01176 0.0
C2155 C 0.39528 0.48853 0.01026 0.0
C2156 C 0.42968 0.48912 0.01132 0.0
C2157 C 0.42071 0.44506 0.01845 0.0
C2158 C 0.43614 0.50756 0.02383 0.0
C2159 C 0.45502 0.51751 0.02477 0.0
C2160 C 0.46785 0.50905 0.01343 0.0
C2161 C 0.46129 0.49099 0.00045 0.0
C2162 C 0.44228 0.48135 -0.0009 0.0
H2163 H 0.41551 0.43191 0.0263 0.0
H2164 H 0.42507 0.43876 0.00426 0.0
H2165 H 0.43328 0.45487 0.0269 0.0
H2166 H 0.42671 0.51395 0.03335 0.0
H2167 H 0.4597 0.53143 0.03492 0.0
H2168 H 0.33261 0.58462 0.79048 0.0
H2169 H 0.31274 0.60904 0.78559 0.0
H2170 H 0.32524 0.60568 0.72556 0.0
H2171 H 0.34557 0.58144 0.73038 0.0
H2172 H 0.33106 0.6447 0.7434 0.0
H2173 H 0.26087 0.60343 0.75942 0.0
H2174 H 0.2785 0.60408 0.7784 0.0
H2175 H 0.28024 0.59063 0.75471 0.0
C2176 C 0.33097 0.5888 0.77613 0.0
C2177 C 0.34078 0.58109 0.76083 0.0
C2178 C 0.31943 0.60266 0.77334 0.0
C2179 C 0.31725 0.60895 0.75515 0.0
C2180 C 0.32662 0.60091 0.7397 0.0
H2181 H 0.24539 0.69489 0.73132 0.0
H2182 H 0.25825 0.66381 0.73135 0.0
C2183 C 0.33824 0.58706 0.74248 0.0
C2184 C 0.30676 0.62542 0.75286 0.0
H2185 H 0.265 0.64014 0.7612 0.0
C2186 C 0.31653 0.64358 0.74704 0.0
C2187 C 0.28775 0.62389 0.75742 0.0
C2188 C 0.27617 0.60437 0.76264 0.0
C2189 C 0.30807 0.66054 0.74642 0.0
C2190 C 0.28947 0.65945 0.75215 0.0
C2191 C 0.27938 0.64102 0.75714 0.0
C2192 C 0.28055 0.67753 0.7534 0.0
C2193 C 0.31918 0.67956 0.73975 0.0
C2194 C 0.28843 0.69525 0.76629 0.0
C2195 C 0.28117 0.713 0.76633 0.0
C2196 C 0.26578 0.71333 0.75353 0.0
C2197 C 0.25728 0.69519 0.74134 0.0
C2198 C 0.26461 0.67742 0.7413 0.0
H2199 H 0.33092 0.67609 0.73103 0.0
H2200 H 0.30999 0.68684 0.73096 0.0
H2201 H 0.32535 0.69079 0.75258 0.0
H2202 H 0.30051 0.69549 0.77604 0.0
H2203 H 0.28795 0.72661 0.77605 0.0
H2204 H 0.23998 0.63525 0.52406 0.0
H2205 H 0.22471 0.61678 0.54922 0.0
H2206 H 0.19302 0.57069 0.50474 0.0
H2207 H 0.20822 0.58911 0.47997 0.0
H2208 H 0.1874 0.61477 0.54955 0.0
H2209 H 0.19871 0.53609 0.54675 0.0
H2210 H 0.21538 0.556 0.53792 0.0
H2211 H 0.19538 0.54144 0.52253 0.0
C2212 C 0.23061 0.62054 0.51986 0.0
C2213 C 0.22537 0.6134 0.50024 0.0
C2214 C 0.22179 0.61006 0.53417 0.0
C2215 C 0.20783 0.5922 0.52892 0.0
C2216 C 0.20407 0.58409 0.50925 0.0
H2217 H 0.1023 0.53776 0.52351 0.0
H2218 H 0.13634 0.54833 0.52625 0.0
C2219 C 0.21267 0.59468 0.49504 0.0
C2220 C 0.19395 0.58485 0.54275 0.0
H2221 H 0.16558 0.54026 0.55062 0.0
C2222 C 0.18301 0.59858 0.55059 0.0
C2223 C 0.18834 0.5638 0.54431 0.0
C2224 C 0.20025 0.54857 0.53758 0.0
C2225 C 0.16528 0.59146 0.5573 0.0
C2226 C 0.15857 0.57009 0.55642 0.0
C2227 C 0.17063 0.55663 0.55103 0.0
C2228 C 0.13815 0.56145 0.55642 0.0
C2229 C 0.15303 0.60667 0.56314 0.0
C2230 C 0.12779 0.56494 0.57264 0.0
C2231 C 0.10807 0.55903 0.57107 0.0
C2232 C 0.0985 0.54956 0.55326 0.0
C2233 C 0.10909 0.54526 0.53739 0.0
C2234 C 0.12865 0.55113 0.53897 0.0
H2235 H 0.15998 0.62264 0.56172 0.0
H2236 H 0.13954 0.60266 0.55406 0.0
H2237 H 0.14968 0.60612 0.57844 0.0
H2238 H 0.13489 0.57268 0.58631 0.0
H2239 H 0.10035 0.5624 0.58362 0.0
H2240 H 0.65303 0.96385 0.72178 0.0
H2241 H 0.6787 0.94602 0.71373 0.0
H2242 H 0.69635 0.95263 0.77436 0.0
H2243 H 0.67127 0.9708 0.7825 0.0
H2244 H 0.72659 0.95793 0.75095 0.0
H2245 H 0.67315 0.88693 0.72392 0.0
H2246 H 0.67251 0.909 0.7121 0.0
H2247 H 0.66671 0.90927 0.73688 0.0
C2248 C 0.66252 0.9617 0.73338 0.0
C2249 C 0.65989 0.96845 0.75282 0.0
C2250 C 0.67715 0.95151 0.72874 0.0
C2251 C 0.6892 0.94773 0.74349 0.0
C2252 C 0.68719 0.95539 0.76276 0.0
H2253 H 0.75343 0.87243 0.78397 0.0
H2254 H 0.74227 0.90241 0.77552 0.0
C2255 C 0.67273 0.96567 0.76739 0.0
C2256 C 0.70277 0.93418 0.73946 0.0
H2257 H 0.70428 0.88365 0.72835 0.0
C2258 C 0.72183 0.94175 0.74562 0.0
C2259 C 0.69651 0.9131 0.73241 0.0
C2260 C 0.67611 0.90396 0.72604 0.0
C2261 C 0.73456 0.92854 0.74603 0.0
C2262 C 0.72796 0.90729 0.74032 0.0
C2263 C 0.70929 0.89998 0.73273 0.0
C2264 C 0.73903 0.89194 0.74465 0.0
C2265 C 0.75477 0.93736 0.75322 0.0
C2266 C 0.74122 0.87628 0.73009 0.0
C2267 C 0.7474 0.85906 0.73495 0.0
C2268 C 0.75136 0.85723 0.75442 0.0
C2269 C 0.7505 0.87354 0.76885 0.0
C2270 C 0.74428 0.89075 0.764 0.0
H2271 H 0.75914 0.9534 0.75022 0.0
H2272 H 0.75623 0.93758 0.76913 0.0
H2273 H 0.76446 0.92805 0.74642 0.0
H2274 H 0.73711 0.87683 0.71511 0.0
H2275 H 0.74804 0.84667 0.72358 0.0
H2276 H 0.72503 0.93871 0.49417 0.0
H2277 H 0.69733 0.95388 0.4907 0.0
H2278 H 0.67502 0.92791 0.54031 0.0
H2279 H 0.70288 0.91292 0.54412 0.0
H2280 H 0.6593 0.93627 0.48508 0.0
H2281 H 0.67462 0.98873 0.55469 0.0
H2282 H 0.69173 0.97524 0.54408 0.0
H2283 H 0.67313 0.96213 0.55687 0.0
C2284 C 0.71421 0.93612 0.50432 0.0
C2285 C 0.71626 0.92473 0.51953 0.0
C2286 C 0.69838 0.94482 0.5023 0.0
C2287 C 0.6843 0.94238 0.51547 0.0
C2288 C 0.68594 0.9304 0.53026 0.0
H2289 H 0.57947 0.98563 0.52627 0.0
H2290 H 0.60677 0.9698 0.53042 0.0
C2291 C 0.7018 0.9217 0.53232 0.0
C2292 C 0.66798 0.95248 0.51368 0.0
H2293 H 0.64567 0.9878 0.53728 0.0
C2294 C 0.65634 0.94757 0.49646 0.0
C2295 C 0.66416 0.96726 0.52856 0.0
C2296 C 0.67664 0.97383 0.54703 0.0
C2297 C 0.64085 0.95683 0.49381 0.0
C2298 C 0.63708 0.97164 0.50866 0.0
C2299 C 0.64864 0.97648 0.52592 0.0
C2300 C 0.62105 0.98208 0.50662 0.0
C2301 C 0.62842 0.9504 0.4753 0.0
C2302 C 0.62026 0.99467 0.49216 0.0
C2303 C 0.6047 0.00378 0.48979 0.0
C2304 C 0.58972 0.00047 0.50188 0.0
C2305 C 0.59081 0.98839 0.51671 0.0
C2306 C 0.60638 0.97934 0.5191 0.0
H2307 H 0.6305 0.93558 0.46751 0.0
H2308 H 0.61332 0.94892 0.47825 0.0
H2309 H 0.63191 0.96225 0.4656 0.0
H2310 H 0.63161 0.99731 0.48261 0.0
H2311 H 0.60423 0.01307 0.47828 0.0
H2312 H 0.33257 0.48658 0.78871 0.0
H2313 H 0.31672 0.45063 0.78397 0.0
H2314 H 0.34129 0.4413 0.72919 0.0
H2315 H 0.35712 0.47753 0.73365 0.0
H2316 H 0.30355 0.42201 0.72797 0.0
H2317 H 0.34368 0.40375 0.79023 0.0
H2318 H 0.33224 0.42476 0.79683 0.0
H2319 H 0.35049 0.42729 0.7801 0.0
C2320 C 0.33458 0.47698 0.77557 0.0
C2321 C 0.34629 0.48494 0.76163 0.0
C2322 C 0.32558 0.45637 0.77296 0.0
C2323 C 0.32823 0.4432 0.75648 0.0
C2324 C 0.33924 0.4512 0.74212 0.0
H2325 H 0.29197 0.31051 0.75588 0.0
H2326 H 0.31135 0.34423 0.75316 0.0
C2327 C 0.34822 0.47191 0.74467 0.0
C2328 C 0.31947 0.42109 0.75444 0.0
H2329 H 0.31573 0.37918 0.778 0.0
C2330 C 0.30636 0.41255 0.73877 0.0
C2331 C 0.32346 0.40864 0.7683 0.0
C2332 C 0.33839 0.4165 0.7847 0.0
C2333 C 0.29642 0.39216 0.73713 0.0
C2334 C 0.29943 0.38019 0.75178 0.0
C2335 C 0.31324 0.38843 0.7669 0.0
C2336 C 0.28775 0.35951 0.7523 0.0
C2337 C 0.28277 0.3837 0.71976 0.0
C2338 C 0.26812 0.35694 0.75291 0.0
C2339 C 0.25712 0.33775 0.75442 0.0
C2340 C 0.26556 0.32082 0.75565 0.0
C2341 C 0.28518 0.32335 0.75509 0.0
C2342 C 0.29622 0.34256 0.75346 0.0
H2343 H 0.28668 0.39187 0.70721 0.0
H2344 H 0.28215 0.36708 0.71542 0.0
H2345 H 0.26848 0.38587 0.72338 0.0
H2346 H 0.26132 0.36988 0.75261 0.0
H2347 H 0.24202 0.33625 0.75495 0.0
H2348 H 0.12908 0.55022 0.24444 0.0
H2349 H 0.14624 0.5847 0.24122 0.0
H2350 H 0.17049 0.59165 0.29971 0.0
H2351 H 0.15332 0.55739 0.30321 0.0
H2352 H 0.15636 0.62582 0.29039 0.0
H2353 H 0.20356 0.60037 0.23568 0.0
H2354 H 0.17875 0.59103 0.22977 0.0
H2355 H 0.19 0.58302 0.25 0.0
C2356 C 0.13799 0.5591 0.25667 0.0
C2357 C 0.13989 0.55096 0.27406 0.0
C2358 C 0.14788 0.57874 0.25474 0.0
C2359 C 0.15986 0.59053 0.27012 0.0
C2360 C 0.1614 0.5827 0.28763 0.0
H2361 H 0.23387 0.70965 0.29443 0.0
H2362 H 0.21611 0.67487 0.29494 0.0
C2363 C 0.15156 0.5631 0.28958 0.0
C2364 C 0.17079 0.61112 0.26812 0.0
H2365 H 0.20631 0.63612 0.2441 0.0
C2366 C 0.16728 0.6281 0.28028 0.0
C2367 C 0.18498 0.61398 0.25487 0.0
C2368 C 0.18972 0.59616 0.24191 0.0
C2369 C 0.17756 0.64793 0.27951 0.0
C2370 C 0.19196 0.65076 0.26648 0.0
C2371 C 0.1953 0.63384 0.25411 0.0
C2372 C 0.20378 0.67122 0.26563 0.0
C2373 C 0.17276 0.66572 0.29247 0.0
C2374 C 0.20334 0.68032 0.2487 0.0
C2375 C 0.21357 0.70018 0.24829 0.0
C2376 C 0.22449 0.71124 0.26482 0.0
C2377 C 0.2255 0.70168 0.28149 0.0
C2378 C 0.21527 0.68183 0.28186 0.0
H2379 H 0.15847 0.66173 0.2978 0.0
H2380 H 0.18307 0.67005 0.30523 0.0
H2381 H 0.17347 0.67928 0.28476 0.0
H2382 H 0.19465 0.67228 0.23597 0.0
H2383 H 0.21251 0.70702 0.23518 0.0
H2384 H 0.51429 0.70539 0.40994 0.0
H2385 H 0.5257 0.68674 0.43431 0.0
H2386 H 0.46956 0.67177 0.45354 0.0
H2387 H 0.45815 0.69073 0.42973 0.0
H2388 H 0.49657 0.68167 0.48396 0.0
H2389 H 0.51508 0.62457 0.42669 0.0
H2390 H 0.52671 0.65069 0.42632 0.0
H2391 H 0.50162 0.64326 0.42126 0.0
C2392 C 0.5044 0.69826 0.41946 0.0
C2393 C 0.48525 0.69935 0.41769 0.0
C2394 C 0.51094 0.68756 0.43334 0.0
C2395 C 0.4984 0.67754 0.44548 0.0
C2396 C 0.47948 0.67934 0.44428 0.0
H2397 H 0.4825 0.58291 0.51494 0.0
H2398 H 0.48251 0.61443 0.5011 0.0
C2399 C 0.47297 0.69015 0.43057 0.0
C2400 C 0.50448 0.66412 0.45869 0.0
H2401 H 0.51926 0.61895 0.45881 0.0
C2402 C 0.50175 0.66807 0.47851 0.0
C2403 C 0.51122 0.64637 0.45154 0.0
C2404 C 0.51371 0.6408 0.43029 0.0
C2405 C 0.50508 0.65446 0.49129 0.0
C2406 C 0.51115 0.63639 0.48399 0.0
C2407 C 0.51468 0.6329 0.46436 0.0
C2408 C 0.51214 0.6198 0.4958 0.0
C2409 C 0.5018 0.65935 0.51241 0.0
C2410 C 0.52887 0.61253 0.49771 0.0
C2411 C 0.52891 0.59444 0.50556 0.0
C2412 C 0.51214 0.58315 0.5114 0.0
C2413 C 0.49566 0.59116 0.51054 0.0
C2414 C 0.49566 0.6093 0.50276 0.0
H2415 H 0.50293 0.67608 0.51673 0.0
H2416 H 0.48738 0.65147 0.51504 0.0
H2417 H 0.51202 0.65396 0.52175 0.0
H2418 H 0.54171 0.62037 0.49233 0.0
H2419 H 0.54187 0.58875 0.50602 0.0
H2420 H 0.5735 0.28402 0.65437 0.0
H2421 H 0.60435 0.28604 0.67081 0.0
H2422 H 0.59952 0.3425 0.70551 0.0
H2423 H 0.56856 0.34056 0.68929 0.0
H2424 H 0.63846 0.3173 0.67673 0.0
H2425 H 0.60474 0.30269 0.74514 0.0
H2426 H 0.59141 0.29852 0.72207 0.0
H2427 H 0.59958 0.32409 0.73447 0.0
C2428 C 0.5791 0.29703 0.6653 0.0
C2429 C 0.56846 0.31198 0.67072 0.0
C2430 C 0.59673 0.29816 0.67466 0.0
C2431 C 0.604 0.31421 0.68959 0.0
C2432 C 0.59396 0.32981 0.69424 0.0
H2433 H 0.69935 0.32132 0.77326 0.0
H2434 H 0.67326 0.3303 0.75493 0.0
C2435 C 0.57631 0.3287 0.6849 0.0
C2436 C 0.62146 0.31378 0.70107 0.0
H2437 H 0.63761 0.3062 0.7456 0.0
C2438 C 0.63835 0.31503 0.69183 0.0
C2439 C 0.6212 0.31087 0.72077 0.0
C2440 C 0.60327 0.3088 0.73124 0.0
C2441 C 0.65502 0.31319 0.70173 0.0
C2442 C 0.65463 0.30959 0.72125 0.0
C2443 C 0.63785 0.30898 0.73064 0.0
C2444 C 0.67104 0.30498 0.7318 0.0
C2445 C 0.67288 0.31506 0.69122 0.0
C2446 C 0.67818 0.28762 0.72501 0.0
C2447 C 0.69291 0.28243 0.73547 0.0
C2448 C 0.70076 0.29451 0.75292 0.0
C2449 C 0.69355 0.31181 0.75981 0.0
C2450 C 0.67874 0.31697 0.74934 0.0
H2451 H 0.67224 0.32378 0.67881 0.0
H2452 H 0.68532 0.32278 0.70112 0.0
H2453 H 0.67486 0.2995 0.68542 0.0
H2454 H 0.6721 0.27783 0.7118 0.0
H2455 H 0.69803 0.26884 0.72997 0.0
H2456 H 0.98977 0.30432 0.87751 0.0
H2457 H -0.003 0.33998 0.89331 0.0
H2458 H 0.96786 0.32164 0.94283 0.0
H2459 H 0.9598 0.28632 0.92669 0.0
H2460 H 0.95769 0.35388 0.93389 0.0
H2461 H 0.03552 0.3683 0.935 0.0
H2462 H 0.02479 0.36074 0.9109 0.0
H2463 H 0.0211 0.34303 0.92833 0.0
C2464 C 0.98509 0.30792 0.89185 0.0
C2465 C 0.97422 0.29256 0.90087 0.0
C2466 C 0.98933 0.32829 0.90093 0.0
C2467 C 0.98326 0.33353 0.91945 0.0
C2468 C 0.97271 0.31806 0.92857 0.0
H2469 H 0.02524 0.45011 0.99253 0.0
H2470 H 0.01825 0.41423 0.97756 0.0
C2471 C 0.96812 0.29784 0.91933 0.0
C2472 C 0.98703 0.35519 0.92905 0.0
H2473 H 0.02183 0.39757 0.94276 0.0
C2474 C 0.97176 0.36337 0.93594 0.0
C2475 C 0.00539 0.36756 0.932 0.0
C2476 C 0.02265 0.35939 0.92636 0.0
C2477 C 0.97429 0.38348 0.94561 0.0
C2478 C 0.99252 0.39615 0.94775 0.0
C2479 C 0.00781 0.38796 0.94095 0.0
C2480 C 0.99615 0.41783 0.95727 0.0
C2481 C 0.95742 0.39062 0.95389 0.0
C2482 C 0.98607 0.43187 0.95091 0.0
C2483 C 0.98974 0.45228 0.95978 0.0
C2484 C 0.00395 0.45918 0.97479 0.0
C2485 C 0.01419 0.44521 0.98099 0.0
C2486 C 0.01024 0.42472 0.9724 0.0
H2487 H 0.94641 0.37749 0.95667 0.0
H2488 H 0.96144 0.40121 0.96766 0.0
H2489 H 0.95109 0.39877 0.94333 0.0
H2490 H 0.97556 0.42716 0.93887 0.0
H2491 H 0.98185 0.46279 0.95447 0.0
H2492 H 0.95389 0.78302 0.15615 0.0
H2493 H 0.92652 0.78232 0.17531 0.0
H2494 H 0.95728 0.76611 0.22311 0.0
H2495 H 0.985 0.76711 0.20407 0.0
H2496 H 0.90492 0.75289 0.19387 0.0
H2497 H 0.94241 0.81927 0.24662 0.0
H2498 H 0.95174 0.81161 0.22389 0.0
H2499 H 0.95329 0.79733 0.24373 0.0
C2500 C 0.95479 0.77895 0.17061 0.0
C2501 C 0.9717 0.77529 0.17863 0.0
C2502 C 0.93912 0.77861 0.18157 0.0
C2503 C 0.94002 0.77464 0.20078 0.0
C2504 C 0.95646 0.76969 0.20846 0.0
H2505 H 0.84987 0.77798 0.28072 0.0
H2506 H 0.88008 0.77427 0.26752 0.0
C2507 C 0.97221 0.77007 0.19749 0.0
C2508 C 0.92394 0.77665 0.21279 0.0
H2509 H 0.91061 0.80613 0.25138 0.0
C2510 C 0.9062 0.7644 0.20654 0.0
C2511 C 0.92566 0.79175 0.22931 0.0
C2512 C 0.94424 0.80589 0.23627 0.0
C2513 C 0.89007 0.76709 0.21612 0.0
C2514 C 0.89173 0.78253 0.23226 0.0
C2515 C 0.9095 0.79433 0.23897 0.0
C2516 C 0.87487 0.78725 0.24155 0.0
C2517 C 0.87128 0.75363 0.20876 0.0
C2518 C 0.86242 0.79653 0.23164 0.0
C2519 C 0.84532 0.79879 0.23917 0.0
C2520 C 0.84038 0.79175 0.2567 0.0
C2521 C 0.85336 0.78358 0.26719 0.0
C2522 C 0.87055 0.78138 0.25966 0.0
H2523 H 0.8729 0.73991 0.19874 0.0
H2524 H 0.86317 0.74852 0.22099 0.0
H2525 H 0.86295 0.76255 0.20083 0.0
H2526 H 0.86565 0.80132 0.21772 0.0
H2527 H 0.83558 0.80515 0.23078 0.0
H2528 H 0.51762 0.3181 0.09886 0.0
H2529 H 0.52953 0.34108 0.07556 0.0
H2530 H 0.47658 0.36113 0.07362 0.0
H2531 H 0.46435 0.33752 0.09578 0.0
H2532 H 0.48859 0.35799 0.03924 0.0
H2533 H 0.54833 0.40081 0.09038 0.0
H2534 H 0.54868 0.3743 0.08308 0.0
H2535 H 0.53026 0.3812 0.09744 0.0
C2536 C 0.50851 0.32729 0.09326 0.0
C2537 C 0.4901 0.32611 0.09925 0.0
C2538 C 0.51537 0.34053 0.08007 0.0
C2539 C 0.50413 0.35325 0.07316 0.0
C2540 C 0.48556 0.35152 0.07869 0.0
H2541 H 0.52403 0.4734 0.05046 0.0
H2542 H 0.52222 0.44044 0.06175 0.0
C2543 C 0.47858 0.33801 0.09144 0.0
C2544 C 0.51155 0.36915 0.06091 0.0
H2545 H 0.54366 0.41386 0.0616 0.0
C2546 C 0.50075 0.37013 0.04401 0.0
C2547 C 0.52748 0.38495 0.06712 0.0
C2548 C 0.5393 0.38544 0.08556 0.0
C2549 C 0.50445 0.3872 0.03407 0.0
C2550 C 0.52001 0.40332 0.04066 0.0
C2551 C 0.53172 0.40152 0.0566 0.0
C2552 C 0.52274 0.42341 0.03328 0.0
C2553 C 0.49077 0.38839 0.01756 0.0
C2554 C 0.52402 0.42504 0.01349 0.0
C2555 C 0.52459 0.44397 0.00688 0.0
C2556 C 0.52447 0.46164 0.02005 0.0
C2557 C 0.52422 0.46012 0.03992 0.0
C2558 C 0.52322 0.44123 0.04642 0.0
H2559 H 0.47744 0.37684 0.01715 0.0
H2560 H 0.48724 0.40383 0.01868 0.0
H2561 H 0.49726 0.38543 0.00364 0.0
H2562 H 0.52426 0.41166 0.00311 0.0
H2563 H 0.525 0.44474 0.99151 0.0
H2564 H 0.9778 0.32392 0.36888 0.0
H2565 H 0.95132 0.338 0.35762 0.0
H2566 H 0.91322 0.2814 0.36367 0.0
H2567 H 0.93945 0.26799 0.3762 0.0
H2568 H 0.93111 0.32735 0.32705 0.0
H2569 H 0.88179 0.31904 0.38431 0.0
H2570 H 0.90577 0.31596 0.38798 0.0
H2571 H 0.88752 0.29454 0.37734 0.0
C2572 C 0.96368 0.31473 0.36819 0.0
C2573 C 0.96059 0.29491 0.37342 0.0
C2574 C 0.94855 0.32276 0.36177 0.0
C2575 C 0.93013 0.31095 0.36007 0.0
C2576 C 0.9271 0.29119 0.36552 0.0
H2577 H 0.84726 0.29868 0.2706 0.0
H2578 H 0.8761 0.30387 0.29124 0.0
C2579 C 0.94214 0.28341 0.37248 0.0
C2580 C 0.91445 0.31815 0.35053 0.0
H2581 H 0.8672 0.31624 0.35139 0.0
C2582 C 0.91725 0.32539 0.33266 0.0
C2583 C 0.89642 0.31637 0.35797 0.0
C2584 C 0.89282 0.3113 0.37808 0.0
C2585 C 0.90225 0.32922 0.32138 0.0
C2586 C 0.88378 0.32471 0.32766 0.0
C2587 C 0.88124 0.31919 0.34624 0.0
C2588 C 0.86685 0.32345 0.31451 0.0
C2589 C 0.90642 0.33777 0.30272 0.0
C2590 C 0.85169 0.3322 0.32084 0.0
C2591 C 0.83487 0.32864 0.30922 0.0
C2592 C 0.83307 0.31651 0.29103 0.0
C2593 C 0.8484 0.30834 0.28445 0.0
C2594 C 0.865 0.3115 0.2962 0.0
H2595 H 0.92043 0.34832 0.30417 0.0
H2596 H 0.90694 0.32501 0.29107 0.0
H2597 H 0.89561 0.34621 0.29831 0.0
H2598 H 0.8527 0.34133 0.33495 0.0
H2599 H 0.82316 0.33502 0.31461 0.0
H2600 H 0.00708 0.74096 0.62918 0.0
H2601 H 0.01735 0.70967 0.61684 0.0
H2602 H 0.96029 0.68138 0.59562 0.0
H2603 H 0.9499 0.71308 0.60739 0.0
H2604 H 0.00877 0.67118 0.62438 0.0
H2605 H 0.98796 0.67347 0.54742 0.0
H2606 H 0.9879 0.69457 0.5662 0.0
H2607 H 0.96879 0.67257 0.56293 0.0
C2608 C 0.99664 0.72812 0.62191 0.0
C2609 C 0.97766 0.72963 0.61908 0.0
C2610 C 0.00256 0.71019 0.61489 0.0
C2611 C 0.98967 0.6933 0.60501 0.0
C2612 C 0.97057 0.69442 0.60277 0.0
H2613 H 0.01936 0.57329 0.57486 0.0
H2614 H 0.00751 0.60218 0.59135 0.0
C2615 C 0.96464 0.71251 0.60959 0.0
C2616 C 0.99649 0.6748 0.59675 0.0
H2617 H -0.00032 0.64462 0.55429 0.0
C2618 C 0.00677 0.66533 0.60905 0.0
C2619 C 0.99411 0.66739 0.57671 0.0
C2620 C 0.98426 0.67762 0.5625 0.0
C2621 C 0.0149 0.64879 0.60184 0.0
C2622 C 0.0122 0.64114 0.58185 0.0
C2623 C 0.00171 0.65046 0.56962 0.0
C2624 C 0.02052 0.62391 0.57305 0.0
C2625 C 0.02681 0.64019 0.61561 0.0
C2626 C 0.0316 0.62639 0.55717 0.0
C2627 C 0.03808 0.60982 0.54757 0.0
C2628 C 0.03383 0.59056 0.55386 0.0
C2629 C 0.02324 0.58815 0.57008 0.0
C2630 C 0.01646 0.60466 0.5795 0.0
H2631 H 0.03199 0.65139 0.6288 0.0
H2632 H 0.01818 0.62634 0.62028 0.0
H2633 H 0.03914 0.63577 0.60858 0.0
H2634 H 0.03489 0.64108 0.55191 0.0
H2635 H 0.04613 0.61198 0.53501 0.0
H2636 H 0.56344 0.76062 0.86996 0.0
H2637 H 0.59216 0.76023 0.85295 0.0
H2638 H 0.5918 0.8208 0.83898 0.0
H2639 H 0.56306 0.82142 0.85601 0.0
H2640 H 0.59409 0.76503 0.81229 0.0
H2641 H 0.64697 0.82354 0.86027 0.0
H2642 H 0.62504 0.81097 0.86866 0.0
H2643 H 0.62524 0.83087 0.85379 0.0
C2644 C 0.56961 0.77402 0.86356 0.0
C2645 C 0.56092 0.79104 0.86429 0.0
C2646 C 0.58599 0.77372 0.8538 0.0
C2647 C 0.59408 0.79049 0.84479 0.0
C2648 C 0.58586 0.8078 0.84604 0.0
H2649 H 0.6938 0.80946 0.77845 0.0
H2650 H 0.66442 0.81322 0.79311 0.0
C2651 C 0.56942 0.8081 0.85575 0.0
C2652 C 0.6104 0.78926 0.83303 0.0
H2653 H 0.65714 0.80929 0.83088 0.0
C2654 C 0.60789 0.7747 0.81631 0.0
C2655 C 0.62826 0.80206 0.83826 0.0
C2656 C 0.6317 0.81768 0.85629 0.0
C2657 C 0.62286 0.77252 0.80467 0.0
C2658 C 0.64089 0.78495 0.81017 0.0
C2659 C 0.64329 0.7998 0.82669 0.0
C2660 C 0.65767 0.78209 0.7996 0.0
C2661 C 0.61919 0.75707 0.78652 0.0
C2662 C 0.66349 0.76328 0.79821 0.0
C2663 C 0.6802 0.76102 0.78977 0.0
C2664 C 0.69155 0.77764 0.78274 0.0
C2665 C 0.68541 0.79633 0.78369 0.0
C2666 C 0.66865 0.79854 0.79211 0.0
H2667 H 0.60409 0.75366 0.78123 0.0
H2668 H 0.62784 0.7626 0.77478 0.0
H2669 H 0.62288 0.74252 0.7897 0.0
H2670 H 0.65545 0.75051 0.80426 0.0
H2671 H 0.68451 0.74644 0.7894 0.0
H2672 H 0.39277 0.52012 0.68473 0.0
H2673 H 0.4099 0.51809 0.65525 0.0
H2674 H 0.42501 0.58404 0.66174 0.0
H2675 H 0.40791 0.58632 0.6911 0.0
H2676 H 0.40929 0.54215 0.61851 0.0
H2677 H 0.47522 0.55784 0.66671 0.0
H2678 H 0.45256 0.54708 0.67485 0.0
H2679 H 0.45811 0.57362 0.67176 0.0
C2680 C 0.39934 0.53421 0.67964 0.0
C2681 C 0.39919 0.55338 0.69041 0.0
C2682 C 0.40911 0.533 0.66281 0.0
C2683 C 0.41883 0.55092 0.65655 0.0
C2684 C 0.41764 0.57007 0.66647 0.0
H2685 H 0.50985 0.56576 0.57834 0.0
H2686 H 0.48727 0.5721 0.60253 0.0
C2687 C 0.40785 0.57131 0.68324 0.0
C2688 C 0.43178 0.54957 0.6409 0.0
H2689 H 0.47835 0.55291 0.63323 0.0
C2690 C 0.4244 0.54456 0.62164 0.0
C2691 C 0.45145 0.55287 0.64514 0.0
C2692 C 0.45994 0.55807 0.66572 0.0
C2693 C 0.43627 0.54273 0.60639 0.0
C2694 C 0.45595 0.54548 0.61066 0.0
C2695 C 0.46329 0.55083 0.62996 0.0
C2696 C 0.46915 0.54203 0.5955 0.0
C2697 C 0.42758 0.53804 0.5859 0.0
C2698 C 0.46666 0.52295 0.5838 0.0
C2699 C 0.47948 0.51936 0.57005 0.0
C2700 C 0.49512 0.53472 0.56785 0.0
C2701 C 0.49786 0.55369 0.57977 0.0
C2702 C 0.48495 0.55733 0.59349 0.0
H2703 H 0.414 0.54321 0.58476 0.0
H2704 H 0.43715 0.54543 0.5757 0.0
H2705 H 0.42463 0.52121 0.58139 0.0
H2706 H 0.45495 0.51068 0.5855 0.0
H2707 H 0.47724 0.50446 0.56126 0.0
H2708 H 0.82428 0.21041 0.9651 0.0
H2709 H 0.81732 0.23173 0.941 0.0
H2710 H 0.75822 0.20439 0.93972 0.0
H2711 H 0.76493 0.18316 0.96387 0.0
H2712 H 0.80044 0.21509 0.90403 0.0
H2713 H 0.7583 0.26596 0.94285 0.0
H2714 H 0.77314 0.25236 0.95528 0.0
H2715 H 0.75031 0.23924 0.94459 0.0
C2716 C 0.80976 0.20913 0.95993 0.0
C2717 C 0.79518 0.19498 0.96636 0.0
C2718 C 0.80582 0.22135 0.94618 0.0
C2719 C 0.78725 0.21979 0.9388 0.0
C2720 C 0.77261 0.20612 0.94555 0.0
H2721 H 0.73028 0.25462 0.84221 0.0
H2722 H 0.73915 0.24343 0.87274 0.0
C2723 C 0.77652 0.19386 0.95924 0.0
C2724 C 0.78334 0.23083 0.9226 0.0
H2725 H 0.75727 0.2641 0.90838 0.0
C2726 C 0.79121 0.22603 0.90502 0.0
C2727 C 0.77118 0.24492 0.92398 0.0
C2728 C 0.76286 0.2511 0.94274 0.0
C2729 C 0.78674 0.23442 0.88852 0.0
C2730 C 0.77438 0.24835 0.88981 0.0
C2731 C 0.76675 0.25344 0.90749 0.0
C2732 C 0.76876 0.25714 0.87269 0.0
C2733 C 0.79469 0.22764 0.86968 0.0
C2734 C 0.78238 0.26911 0.86298 0.0
C2735 C 0.77738 0.27532 0.84553 0.0
C2736 C 0.75865 0.2699 0.83769 0.0
C2737 C 0.74483 0.25894 0.84797 0.0
C2738 C 0.74986 0.25258 0.86537 0.0
H2739 H 0.80005 0.21329 0.8701 0.0
H2740 H 0.78388 0.22509 0.8574 0.0
H2741 H 0.80663 0.23977 0.86686 0.0
H2742 H 0.79696 0.27314 0.86862 0.0
H2743 H 0.78828 0.2839 0.83793 0.0
H2744 H 0.09861 0.50815 0.19232 0.0
H2745 H 0.08746 0.51193 0.15963 0.0
H2746 H 0.0534 0.45086 0.15304 0.0
H2747 H 0.06442 0.44686 0.18561 0.0
H2748 H 0.08767 0.48386 0.12161 0.0
H2749 H 0.01678 0.49176 0.14529 0.0
H2750 H 0.03723 0.49614 0.16211 0.0
H2751 H 0.02588 0.47046 0.15218 0.0
C2752 C 0.08886 0.49546 0.18387 0.0
C2753 C 0.08228 0.47726 0.19163 0.0
C2754 C 0.08256 0.49764 0.1652 0.0
C2755 C 0.06952 0.48173 0.15408 0.0
C2756 C 0.06337 0.46335 0.16152 0.0
H2757 H 0.00186 0.47817 0.0473 0.0
H2758 H 0.01619 0.46934 0.07667 0.0
C2759 C 0.06971 0.46111 0.18012 0.0
C2760 C 0.06163 0.4847 0.13506 0.0
H2761 H 0.02146 0.49178 0.11217 0.0
C2762 C 0.0732 0.48558 0.11947 0.0
C2763 C 0.04273 0.48681 0.1324 0.0
C2764 C 0.02988 0.4864 0.14886 0.0
C2765 C 0.06629 0.4884 0.10114 0.0
C2766 C 0.04745 0.49089 0.09856 0.0
C2767 C 0.03587 0.48981 0.11416 0.0
C2768 C 0.03957 0.4954 0.08006 0.0
C2769 C 0.07911 0.48835 0.08466 0.0
C2770 C 0.04789 0.51302 0.07234 0.0
C2771 C 0.03977 0.51802 0.05561 0.0
C2772 C 0.02309 0.50559 0.04641 0.0
C2773 C 0.01474 0.48797 0.05413 0.0
C2774 C 0.02292 0.48291 0.07084 0.0
H2775 H 0.0906 0.48008 0.08732 0.0
H2776 H 0.07116 0.48113 0.07075 0.0
H2777 H 0.08573 0.50439 0.0832 0.0
H2778 H 0.06041 0.5232 0.07951 0.0
H2779 H 0.04633 0.53187 0.05011 0.0
H2780 H 0.74913 0.87648 0.48102 0.0
H2781 H 0.74412 0.86239 0.44661 0.0
H2782 H 0.78501 0.82486 0.45399 0.0
H2783 H 0.79001 0.83861 0.48829 0.0
H2784 H 0.77171 0.86544 0.41957 0.0
H2785 H 0.74051 0.78407 0.42396 0.0
H2786 H 0.74164 0.80422 0.44405 0.0
H2787 H 0.76207 0.79362 0.43875 0.0
C2788 C 0.75684 0.86498 0.47541 0.0
C2789 C 0.76997 0.85869 0.48749 0.0
C2790 C 0.754 0.857 0.45572 0.0
C2791 C 0.76405 0.84242 0.44778 0.0
C2792 C 0.77685 0.83581 0.45986 0.0
H2793 H 0.79243 0.81247 0.32992 0.0
H2794 H 0.79196 0.82497 0.36435 0.0
C2795 C 0.77976 0.84381 0.47949 0.0
C2796 C 0.76211 0.83503 0.42667 0.0
H2797 H 0.75174 0.79163 0.39349 0.0
C2798 C 0.76718 0.84932 0.41385 0.0
C2799 C 0.75605 0.81402 0.4192 0.0
C2800 C 0.74958 0.7981 0.43217 0.0
C2801 C 0.7669 0.84311 0.39382 0.0
C2802 C 0.76163 0.82201 0.38644 0.0
C2803 C 0.75599 0.80778 0.39919 0.0
C2804 C 0.76193 0.81438 0.36555 0.0
C2805 C 0.77214 0.8592 0.3807 0.0
C2806 C 0.74528 0.80386 0.35488 0.0
C2807 C 0.74549 0.79662 0.3352 0.0
C2808 C 0.76241 0.79961 0.32579 0.0
C2809 C 0.77913 0.80995 0.33662 0.0
C2810 C 0.77888 0.81723 0.3563 0.0
H2811 H 0.77102 0.87466 0.3878 0.0
H2812 H 0.78695 0.85986 0.37698 0.0
H2813 H 0.76301 0.85541 0.36704 0.0
H2814 H 0.73206 0.8014 0.36176 0.0
H2815 H 0.73234 0.78868 0.32739 0.0
H2816 H 0.42724 0.55687 0.80875 0.0
H2817 H 0.44002 0.54367 0.83634 0.0
H2818 H 0.41607 0.48172 0.8097 0.0
H2819 H 0.4047 0.49505 0.78136 0.0
H2820 H 0.42344 0.52482 0.86137 0.0
H2821 H 0.46621 0.47316 0.8251 0.0
H2822 H 0.45599 0.49052 0.81246 0.0
H2823 H 0.44193 0.46627 0.81631 0.0
C2824 C 0.42507 0.54044 0.80873 0.0
C2825 C 0.41532 0.52689 0.79302 0.0
C2826 C 0.43227 0.53288 0.82448 0.0
C2827 C 0.4293 0.51163 0.82505 0.0
C2828 C 0.41918 0.4981 0.80937 0.0
H2829 H 0.45163 0.48319 0.94181 0.0
H2830 H 0.4345 0.48252 0.91064 0.0
C2831 C 0.41256 0.50568 0.79328 0.0
C2832 C 0.43604 0.50401 0.84256 0.0
H2833 H 0.46211 0.47148 0.8584 0.0
C2834 C 0.43199 0.51321 0.86069 0.0
C2835 C 0.44719 0.48886 0.84172 0.0
C2836 C 0.45325 0.47929 0.82286 0.0
C2837 C 0.43941 0.50847 0.87795 0.0
C2838 C 0.45019 0.49296 0.87716 0.0
C2839 C 0.45366 0.48316 0.85903 0.0
C2840 C 0.45966 0.48835 0.89484 0.0
C2841 C 0.43651 0.52113 0.8967 0.0
C2842 C 0.47926 0.48965 0.89587 0.0
C2843 C 0.48889 0.48895 0.9134 0.0
C2844 C 0.47912 0.48746 0.93022 0.0
C2845 C 0.45942 0.48459 0.92897 0.0
C2846 C 0.44969 0.48448 0.91126 0.0
H2847 H 0.43267 0.53585 0.89421 0.0
H2848 H 0.4248 0.51249 0.90392 0.0
H2849 H 0.44942 0.52472 0.90666 0.0
H2850 H 0.48729 0.49245 0.88341 0.0
H2851 H 0.50412 0.49124 0.91408 0.0
H2852 H 0.82764 0.20341 0.06526 0.0
H2853 H 0.82028 0.22198 0.09556 0.0
H2854 H 0.76122 0.19571 0.08272 0.0
H2855 H 0.76832 0.17707 0.05241 0.0
H2856 H 0.77129 0.24041 0.09606 0.0
H2857 H 0.80183 0.19273 0.14322 0.0
H2858 H 0.81667 0.20282 0.12526 0.0
H2859 H 0.79532 0.18432 0.11778 0.0
C2860 C 0.81308 0.20159 0.06883 0.0
C2861 C 0.79859 0.18864 0.05644 0.0
C2862 C 0.80892 0.21218 0.08616 0.0
C2863 C 0.79025 0.21003 0.09136 0.0
C2864 C 0.77572 0.19749 0.07891 0.0
H2865 H 0.75516 0.24437 0.20608 0.0
H2866 H 0.75689 0.22706 0.17332 0.0
C2867 C 0.77985 0.18681 0.06164 0.0
C2868 C 0.78588 0.22063 0.10997 0.0
H2869 H 0.79204 0.22193 0.15881 0.0
C2870 C 0.77576 0.23638 0.1098 0.0
C2871 C 0.79154 0.21507 0.12778 0.0
C2872 C 0.80182 0.19771 0.12866 0.0
C2873 C 0.77152 0.24711 0.12714 0.0
C2874 C 0.77766 0.24194 0.14496 0.0
C2875 C 0.78742 0.22587 0.14508 0.0
C2876 C 0.7746 0.25325 0.16376 0.0
C2877 C 0.76042 0.26378 0.1263 0.0
C2878 C 0.78375 0.27379 0.16905 0.0
C2879 C 0.78285 0.28369 0.18775 0.0
C2880 C 0.77283 0.27313 0.20142 0.0
C2881 C 0.76301 0.25285 0.19583 0.0
C2882 C 0.76399 0.24295 0.17716 0.0
H2883 H 0.75302 0.26263 0.11183 0.0
H2884 H 0.74988 0.26314 0.13742 0.0
H2885 H 0.77018 0.27895 0.12932 0.0
H2886 H 0.79224 0.28189 0.15897 0.0
H2887 H 0.79054 0.29933 0.19172 0.0
H2888 H 0.05885 0.51284 0.29533 0.0
H2889 H 0.04876 0.52131 0.32811 0.0
H2890 H 0.08688 0.48696 0.35078 0.0
H2891 H 0.09681 0.47831 0.31844 0.0
H2892 H 0.03417 0.49223 0.35611 0.0
H2893 H 0.10126 0.54643 0.38197 0.0
H2894 H 0.09372 0.53924 0.3566 0.0
H2895 H 0.1041 0.52222 0.36945 0.0
C2896 C 0.06499 0.50706 0.30732 0.0
C2897 C 0.07886 0.49522 0.30436 0.0
C2898 C 0.05923 0.51191 0.32598 0.0
C2899 C 0.06736 0.50503 0.34181 0.0
C2900 C 0.08073 0.49272 0.33876 0.0
H2901 H 0.06803 0.5076 0.4641 0.0
H2902 H 0.07225 0.5026 0.42929 0.0
C2903 C 0.08642 0.48785 0.32025 0.0
C2904 C 0.06218 0.5106 0.36173 0.0
H2905 H 0.08139 0.53448 0.40621 0.0
C2906 C 0.04432 0.50174 0.36706 0.0
C2907 C 0.07554 0.52297 0.37588 0.0
C2908 C 0.09469 0.53343 0.37072 0.0
C2909 C 0.03979 0.50412 0.38648 0.0
C2910 C 0.05343 0.51587 0.40074 0.0
C2911 C 0.07103 0.52533 0.39524 0.0
C2912 C 0.05007 0.51805 0.42158 0.0
C2913 C 0.02079 0.49333 0.39172 0.0
C2914 C 0.03621 0.52837 0.42871 0.0
C2915 C 0.03378 0.53121 0.44855 0.0
C2916 C 0.04525 0.52387 0.46154 0.0
C2917 C 0.059 0.51339 0.45437 0.0
C2918 C 0.06142 0.51055 0.43454 0.0
H2919 H 0.01347 0.48157 0.37973 0.0
H2920 H 0.02226 0.48583 0.40481 0.0
H2921 H 0.0118 0.50475 0.39502 0.0
H2922 H 0.02753 0.53457 0.41898 0.0
H2923 H 0.02312 0.53943 0.45374 0.0
H2924 H 0.77487 0.82995 0.57935 0.0
H2925 H 0.76282 0.8113 0.60532 0.0
H2926 H 0.71792 0.84484 0.61046 0.0
H2927 H 0.73013 0.86398 0.58453 0.0
H2928 H 0.73693 0.84653 0.64484 0.0
H2929 H 0.71872 0.7658 0.61052 0.0
H2930 H 0.7421 0.77756 0.60558 0.0
H2931 H 0.72226 0.78691 0.59658 0.0
C2932 C 0.7622 0.83314 0.58568 0.0
C2933 C 0.75355 0.84859 0.57986 0.0
C2934 C 0.75521 0.82228 0.60048 0.0
C2935 C 0.73931 0.82644 0.60973 0.0
C2936 C 0.73014 0.84126 0.60345 0.0
H2937 H 0.70645 0.75741 0.70697 0.0
H2938 H 0.70371 0.77204 0.67667 0.0
C2939 C 0.73712 0.85215 0.58858 0.0
C2940 C 0.7338 0.81703 0.62733 0.0
H2941 H 0.72633 0.77136 0.64527 0.0
C2942 C 0.73421 0.83006 0.64485 0.0
C2943 C 0.72999 0.79554 0.6274 0.0
C2944 C 0.72803 0.78066 0.60895 0.0
C2945 C 0.73219 0.82228 0.66252 0.0
C2946 C 0.73002 0.80091 0.66276 0.0
C2947 C 0.72829 0.78776 0.64514 0.0
C2948 C 0.73121 0.79218 0.68115 0.0
C2949 C 0.73292 0.83712 0.68084 0.0
C2950 C 0.74767 0.79833 0.69348 0.0
C2951 C 0.74928 0.78997 0.7106 0.0
C2952 C 0.73444 0.77528 0.71582 0.0
C2953 C 0.71804 0.76883 0.70335 0.0
C2954 C 0.71646 0.77718 0.68609 0.0
H2955 H 0.72802 0.85116 0.67789 0.0
H2956 H 0.72417 0.83006 0.69183 0.0
H2957 H 0.74772 0.84189 0.68699 0.0
H2958 H 0.75944 0.80944 0.68973 0.0
H2959 H 0.76228 0.79488 0.71967 0.0
H2960 H 0.7301 0.48061 0.49071 0.0
H2961 H 0.70115 0.49391 0.49285 0.0
H2962 H 0.67425 0.44047 0.51686 0.0
H2963 H 0.70317 0.42688 0.51463 0.0
H2964 H 0.65132 0.45254 0.48855 0.0
H2965 H 0.68364 0.5178 0.54471 0.0
H2966 H 0.69623 0.51594 0.52315 0.0
H2967 H 0.69446 0.49607 0.5383 0.0
C2968 C 0.718 0.47156 0.49631 0.0
C2969 C 0.71901 0.45275 0.50266 0.0
C2970 C 0.7015 0.47927 0.49762 0.0
C2971 C 0.68571 0.46838 0.50538 0.0
C2972 C 0.68636 0.44919 0.51097 0.0
H2973 H 0.58969 0.51407 0.54949 0.0
H2974 H 0.61899 0.50149 0.54539 0.0
C2975 C 0.70288 0.44144 0.50966 0.0
C2976 C 0.66866 0.47722 0.508 0.0
H2977 H 0.65298 0.51784 0.53159 0.0
C2978 C 0.65164 0.4668 0.49796 0.0
C2979 C 0.66911 0.49568 0.52052 0.0
C2980 C 0.68678 0.50696 0.53244 0.0
C2981 C 0.63508 0.47452 0.49987 0.0
C2982 C 0.63566 0.49333 0.51192 0.0
C2983 C 0.65263 0.50357 0.52218 0.0
C2984 C 0.61867 0.5023 0.5145 0.0
C2985 C 0.61702 0.46225 0.48929 0.0
C2986 C 0.60913 0.50756 0.4986 0.0
C2987 C 0.59242 0.51471 0.50091 0.0
C2988 C 0.58507 0.5169 0.5192 0.0
C2989 C 0.59507 0.51254 0.53525 0.0
C2990 C 0.61176 0.50532 0.53292 0.0
H2991 H 0.61791 0.446 0.48484 0.0
H2992 H 0.6049 0.46264 0.49844 0.0
H2993 H 0.61421 0.46895 0.47603 0.0
H2994 H 0.61445 0.50582 0.48434 0.0
H2995 H 0.585 0.51804 0.48831 0.0
H2996 H 0.21252 0.13518 0.47599 0.0
H2997 H 0.17886 0.11988 0.47433 0.0
H2998 H 0.18792 0.08984 0.52383 0.0
H2999 H 0.22143 0.10534 0.52584 0.0
H3000 H 0.16296 0.07899 0.46833 0.0
H3001 H 0.143 0.11463 0.53846 0.0
H3002 H 0.16495 0.12413 0.5283 0.0
H3003 H 0.16251 0.10216 0.54094 0.0
C3004 C 0.20731 0.12552 0.48667 0.0
C3005 C 0.21966 0.1215 0.50106 0.0
C3006 C 0.18808 0.11678 0.48569 0.0
C3007 C 0.18083 0.10394 0.49912 0.0
C3008 C 0.19311 0.10007 0.5136 0.0
H3009 H 0.07402 0.02308 0.51006 0.0
H3010 H 0.10686 0.04189 0.51333 0.0
C3011 C 0.21231 0.10885 0.51464 0.0
C3012 C 0.16069 0.09356 0.49724 0.0
H3013 H 0.12065 0.08615 0.52171 0.0
C3014 C 0.15366 0.0807 0.47993 0.0
C3015 C 0.14861 0.09575 0.51243 0.0
C3016 C 0.15508 0.11007 0.53101 0.0
C3017 C 0.13499 0.06965 0.47755 0.0
C3018 C 0.12299 0.07169 0.4928 0.0
C3019 C 0.12995 0.08459 0.51008 0.0
C3020 C 0.10312 0.06058 0.49103 0.0
C3021 C 0.12835 0.05551 0.4589 0.0
C3022 C 0.09017 0.06504 0.47756 0.0
C3023 C 0.07143 0.05447 0.47581 0.0
C3024 C 0.06534 0.03935 0.48758 0.0
C3025 C 0.07831 0.0349 0.50106 0.0
C3026 C 0.09705 0.04555 0.50286 0.0
H3027 H 0.14031 0.05222 0.45045 0.0
H3028 H 0.1197 0.04078 0.46181 0.0
H3029 H 0.11943 0.06283 0.44985 0.0
H3030 H 0.09454 0.07679 0.46849 0.0
H3031 H 0.06168 0.05826 0.46537 0.0
H3032 H 0.1877 0.96783 0.79242 0.0
H3033 H 0.20594 0.94319 0.7788 0.0
H3034 H 0.17023 0.93076 0.72596 0.0
H3035 H 0.15184 0.95549 0.73944 0.0
H3036 H 0.17219 0.89626 0.74557 0.0
H3037 H 0.24335 0.94031 0.73552 0.0
H3038 H 0.23434 0.94754 0.75842 0.0
H3039 H 0.22274 0.95169 0.73648 0.0
C3040 C 0.18396 0.96022 0.77773 0.0
C3041 C 0.1682 0.96348 0.76709 0.0
C3042 C 0.19451 0.94626 0.76991 0.0
C3043 C 0.18951 0.9353 0.75133 0.0
C3044 C 0.17438 0.93923 0.74028 0.0
H3045 H 0.22036 0.81741 0.71182 0.0
H3046 H 0.2081 0.84869 0.71075 0.0
C3047 C 0.16391 0.95336 0.74802 0.0
C3048 C 0.1983 0.91774 0.74482 0.0
H3049 H 0.24071 0.90445 0.73722 0.0
C3050 C 0.1871 0.89799 0.74334 0.0
C3051 C 0.21776 0.92015 0.74213 0.0
C3052 C 0.23026 0.94107 0.74304 0.0
C3053 C 0.19502 0.8805 0.74034 0.0
C3054 C 0.21463 0.88287 0.73816 0.0
C3055 C 0.2257 0.90265 0.73885 0.0
C3056 C 0.22405 0.86511 0.73688 0.0
C3057 C 0.18247 0.85978 0.74077 0.0
C3058 C 0.23794 0.86441 0.75124 0.0
C3059 C 0.24523 0.84672 0.75168 0.0
C3060 C 0.23864 0.82933 0.73785 0.0
C3061 C 0.2255 0.83045 0.72286 0.0
C3062 C 0.21842 0.84828 0.72227 0.0
H3063 H 0.16891 0.86112 0.74715 0.0
H3064 H 0.17917 0.85169 0.72576 0.0
H3065 H 0.18957 0.8502 0.74923 0.0
H3066 H 0.24255 0.87726 0.76261 0.0
H3067 H 0.25536 0.84637 0.7634 0.0
H3068 H 0.29446 0.94011 0.99343 0.0
H3069 H 0.32734 0.95776 0.99364 0.0
H3070 H 0.34455 0.91369 0.02656 0.0
H3071 H 0.31176 0.89581 0.02627 0.0
H3072 H 0.35039 0.97536 0.02688 0.0
H3073 H 0.38081 0.91629 0.98304 0.0
H3074 H 0.35576 0.91531 0.98306 0.0
H3075 H 0.36792 0.90731 0.00272 0.0
C3076 C 0.30526 0.93399 0.00047 0.0
C3077 C 0.30054 0.91654 0.00979 0.0
C3078 C 0.32401 0.94411 0.0006 0.0
C3079 C 0.33832 0.9369 0.00997 0.0
C3080 C 0.33371 0.91925 0.01895 0.0
H3081 H 0.4505 0.00712 0.04952 0.0
H3082 H 0.41793 0.98798 0.04779 0.0
C3083 C 0.31497 0.90909 0.0188 0.0
C3084 C 0.35792 0.94858 0.01135 0.0
H3085 H 0.40246 0.94517 -0.00035 0.0
C3086 C 0.36179 0.96882 0.02088 0.0
C3087 C 0.37266 0.93997 0.0034 0.0
C3088 C 0.36912 0.91859 0.99232 0.0
C3089 C 0.38012 0.9807 0.02279 0.0
C3090 C 0.39493 0.97192 0.01523 0.0
C3091 C 0.39104 0.95173 0.00558 0.0
C3092 C 0.4145 0.98369 0.01649 0.0
C3093 C 0.38342 0.00263 0.03251 0.0
C3094 C 0.42335 0.98728 -0.00053 0.0
C3095 C 0.44192 0.99804 0.00038 0.0
C3096 C 0.45202 0.00537 0.01837 0.0
C3097 C 0.44309 0.00178 0.03545 0.0
C3098 C 0.42447 0.99093 0.0345 0.0
H3099 H 0.37009 0.0084 0.03339 0.0
H3100 H 0.38963 0.0036 0.04747 0.0
H3101 H 0.39342 0.01283 0.02465 0.0
H3102 H 0.41586 0.98177 0.98545 0.0
H3103 H 0.44834 0.00054 0.98694 0.0
H3104 H 0.84877 0.59662 0.83014 0.0
H3105 H 0.82192 0.61362 0.82947 0.0
H3106 H 0.81966 0.60549 0.76709 0.0
H3107 H 0.84632 0.58837 0.76753 0.0
H3108 H 0.82201 0.6494 0.81343 0.0
H3109 H 0.76429 0.58713 0.77828 0.0
H3110 H 0.78577 0.58229 0.78904 0.0
H3111 H 0.78524 0.58971 0.76522 0.0
C3112 C 0.84244 0.59823 0.81626 0.0
C3113 C 0.84977 0.59118 0.79888 0.0
C3114 C 0.82707 0.60789 0.81592 0.0
C3115 C 0.81862 0.61048 0.79823 0.0
C3116 C 0.82569 0.6032 0.78088 0.0
H3117 H 0.75178 0.68226 0.74926 0.0
H3118 H 0.76704 0.65485 0.75756 0.0
C3119 C 0.84108 0.5936 0.78119 0.0
C3120 C 0.80369 0.62259 0.79783 0.0
H3121 H 0.75969 0.62159 0.77795 0.0
C3122 C 0.80822 0.64327 0.80602 0.0
C3123 C 0.78578 0.61448 0.78811 0.0
C3124 C 0.77988 0.59212 0.77982 0.0
C3125 C 0.79576 0.65644 0.80375 0.0
C3126 C 0.77809 0.64851 0.79338 0.0
C3127 C 0.77322 0.6276 0.78591 0.0
C3128 C 0.76546 0.6622 0.78849 0.0
C3129 C 0.80215 0.67894 0.81147 0.0
C3130 C 0.7586 0.67467 0.80307 0.0
C3131 C 0.75007 0.69047 0.79836 0.0
C3132 C 0.74802 0.69376 0.779 0.0
C3133 C 0.75324 0.68005 0.7643 0.0
C3134 C 0.76195 0.6644 0.76903 0.0
H3135 H 0.81755 0.68315 0.81543 0.0
H3136 H 0.79874 0.68862 0.80063 0.0
H3137 H 0.79476 0.68263 0.82466 0.0
H3138 H 0.76077 0.6729 0.81814 0.0
H3139 H 0.74603 0.70078 0.80994 0.0
H3140 H 0.80851 0.59819 0.00812 0.0
H3141 H 0.83523 0.5813 0.00906 0.0
H3142 H 0.87297 0.63824 0.00361 0.0
H3143 H 0.84606 0.65506 0.00171 0.0
H3144 H 0.88071 0.60874 0.97922 0.0
H3145 H 0.87435 0.58107 0.05025 0.0
H3146 H 0.85298 0.57202 0.0352 0.0
H3147 H 0.86101 0.59913 0.04295 0.0
C3148 C 0.82252 0.60726 0.0075 0.0
C3149 C 0.82517 0.62801 0.00491 0.0
C3150 C 0.83784 0.59756 0.00814 0.0
C3151 C 0.8562 0.60853 0.00672 0.0
C3152 C 0.85895 0.62945 0.00478 0.0
H3153 H 0.95614 0.56096 0.0288 0.0
H3154 H 0.92971 0.57839 0.02989 0.0
C3155 C 0.84357 0.63909 0.0038 0.0
C3156 C 0.87229 0.59781 0.00585 0.0
H3157 H 0.8937 0.56545 0.02844 0.0
C3158 C 0.88367 0.59943 0.99009 0.0
C3159 C 0.87629 0.58579 0.0201 0.0
C3160 C 0.86562 0.58458 0.03816 0.0
C3161 C 0.89879 0.58927 0.9881 0.0
C3162 C 0.90222 0.57647 0.00187 0.0
C3163 C 0.89092 0.57499 0.0177 0.0
C3164 C 0.9181 0.56544 0.00086 0.0
C3165 C 0.91121 0.59286 0.97155 0.0
C3166 C 0.92034 0.55208 0.98424 0.0
C3167 C 0.93575 0.54234 0.98345 0.0
C3168 C 0.94884 0.54542 -0.00054 0.0
C3169 C 0.94623 0.55824 0.01625 0.0
C3170 C 0.9311 0.56823 0.0169 0.0
H3171 H 0.91013 0.60736 0.96595 0.0
H3172 H 0.9262 0.59351 0.97602 0.0
H3173 H 0.90667 0.58011 0.95949 0.0
H3174 H 0.91021 0.5492 0.97187 0.0
H3175 H 0.93742 0.53242 0.97039 0.0
H3176 H 0.14594 0.05963 0.7716 0.0
H3177 H 0.16282 0.09478 0.77121 0.0
H3178 H 0.19228 0.09395 0.82589 0.0
H3179 H 0.17556 0.05866 0.82643 0.0
H3180 H 0.16457 0.13063 0.79928 0.0
H3181 H 0.23451 0.11002 0.78926 0.0
H3182 H 0.21272 0.09123 0.78511 0.0
H3183 H 0.2224 0.10094 0.80937 0.0
C3184 C 0.15599 0.06687 0.78359 0.0
C3185 C 0.15947 0.05623 0.79901 0.0
C3186 C 0.16557 0.08699 0.78334 0.0
C3187 C 0.17889 0.09684 0.79842 0.0
C3188 C 0.18221 0.08647 0.81399 0.0
H3189 H 0.25841 0.21368 0.80959 0.0
H3190 H 0.23879 0.18162 0.81635 0.0
C3191 C 0.17261 0.06632 0.81428 0.0
C3192 C 0.18954 0.11785 0.79757 0.0
H3193 H 0.23356 0.14512 0.79262 0.0
C3194 C 0.17967 0.13387 0.79789 0.0
C3195 C 0.20921 0.12194 0.79577 0.0
C3196 C 0.22038 0.10514 0.79469 0.0
C3197 C 0.189 0.15397 0.79649 0.0
C3198 C 0.20863 0.15799 0.79436 0.0
C3199 C 0.21851 0.142 0.79432 0.0
C3200 C 0.21921 0.17845 0.79138 0.0
C3201 C 0.1778 0.17074 0.7975 0.0
C3202 C 0.21461 0.18735 0.77518 0.0
C3203 C 0.22576 0.20565 0.77133 0.0
C3204 C 0.24178 0.21523 0.78353 0.0
C3205 C 0.24613 0.20657 0.79996 0.0
C3206 C 0.23495 0.1883 0.80383 0.0
H3207 H 0.16459 0.16658 0.80488 0.0
H3208 H 0.18616 0.18542 0.80525 0.0
H3209 H 0.17385 0.17317 0.78259 0.0
H3210 H 0.20278 0.17978 0.76514 0.0
H3211 H 0.22217 0.21197 0.7585 0.0
H3212 H 0.35737 0.00136 0.32119 0.0
H3213 H 0.33695 0.96721 0.31795 0.0
H3214 H 0.34328 0.95914 0.25649 0.0
H3215 H 0.36351 0.99306 0.25945 0.0
H3216 H 0.30524 0.95004 0.26721 0.0
H3217 H 0.35285 0.91101 0.30641 0.0
H3218 H 0.34876 0.93464 0.31908 0.0
H3219 H 0.36118 0.93495 0.29738 0.0
C3220 C 0.35457 0.99225 0.30702 0.0
C3221 C 0.3621 -2e-05 0.2906 0.0
C3222 C 0.34292 0.97275 0.30521 0.0
C3223 C 0.33872 0.9607 0.28699 0.0
C3224 C 0.34636 0.96826 0.27066 0.0
H3225 H 0.27219 0.84027 0.24135 0.0
H3226 H 0.28953 0.87593 0.2449 0.0
C3227 C 0.35798 0.98765 0.27243 0.0
C3228 C 0.32603 0.94033 0.28472 0.0
H3229 H 0.32233 0.89198 0.29618 0.0
C3230 C 0.30892 0.93731 0.27353 0.0
C3231 C 0.33098 0.92383 0.29296 0.0
C3232 C 0.3495 0.92611 0.30451 0.0
C3233 C 0.29644 0.91819 0.27058 0.0
C3234 C 0.30143 0.90166 0.27876 0.0
C3235 C 0.31854 0.90473 0.28996 0.0
C3236 C 0.28913 0.88101 0.27614 0.0
C3237 C 0.27792 0.91597 0.25906 0.0
C3238 C 0.2831 0.87214 0.29247 0.0
C3239 C 0.27344 0.85184 0.2905 0.0
C3240 C 0.26959 0.83996 0.27213 0.0
C3241 C 0.27485 0.8491 0.25566 0.0
C3242 C 0.28471 0.86947 0.25767 0.0
H3243 H 0.27414 0.93107 0.25816 0.0
H3244 H 0.27905 0.9086 0.2441 0.0
H3245 H 0.26636 0.90616 0.26552 0.0
H3246 H 0.28634 0.8808 0.30683 0.0
H3247 H 0.26941 0.84529 0.30346 0.0
H3248 H 0.5275 0.32982 0.60328 0.0
H3249 H 0.52985 0.3565 0.58226 0.0
H3250 H 0.47603 0.32681 0.55326 0.0
H3251 H 0.47342 0.30004 0.57414 0.0
H3252 H 0.51371 0.34979 0.53086 0.0
H3253 H 0.48274 0.39148 0.59175 0.0
H3254 H 0.50056 0.37731 0.59704 0.0
H3255 H 0.47773 0.36383 0.58693 0.0
C3256 C 0.51638 0.3286 0.5921 0.0
C3257 C 0.50012 0.31296 0.59062 0.0
C3258 C 0.5178 0.34384 0.58008 0.0
C3259 C 0.50308 0.34354 0.56634 0.0
C3260 C 0.48753 0.32716 0.56378 0.0
H3261 H 0.47251 0.44836 0.52332 0.0
H3262 H 0.47172 0.41388 0.53127 0.0
C3263 C 0.48605 0.31196 0.57581 0.0
C3264 C 0.5025 0.36181 0.55694 0.0
H3265 H 0.49033 0.40849 0.56501 0.0
C3266 C 0.5086 0.36266 0.53822 0.0
C3267 C 0.4956 0.37834 0.56662 0.0
C3268 C 0.4887 0.37786 0.58669 0.0
C3269 C 0.50817 0.37996 0.52897 0.0
C3270 C 0.50162 0.39669 0.53885 0.0
C3271 C 0.49527 0.39559 0.55746 0.0
C3272 C 0.50183 0.41597 0.53072 0.0
C3273 C 0.51456 0.38016 0.50871 0.0
C3274 C 0.519 0.42839 0.52743 0.0
C3275 C 0.51952 0.44813 0.52292 0.0
C3276 C 0.50289 0.45584 0.52177 0.0
C3277 C 0.4856 0.44296 0.52417 0.0
C3278 C 0.4851 0.42323 0.52867 0.0
H3279 H 0.51428 0.36441 0.50133 0.0
H3280 H 0.50556 0.38762 0.49989 0.0
H3281 H 0.52925 0.38901 0.50939 0.0
H3282 H 0.5321 0.42322 0.52931 0.0
H3283 H 0.53308 0.4576 0.52112 0.0
H3284 H 0.41707 0.72248 0.35756 0.0
H3285 H 0.38755 0.72791 0.34331 0.0
H3286 H 0.41596 0.74741 0.29382 0.0
H3287 H 0.44579 0.74297 0.30846 0.0
H3288 H 0.39341 0.7721 0.30535 0.0
H3289 H 0.35378 0.6921 0.30048 0.0
H3290 H 0.36263 0.70262 0.32478 0.0
H3291 H 0.37885 0.69914 0.30638 0.0
C3292 C 0.41711 0.72801 0.34371 0.0
C3293 C 0.43384 0.73237 0.33421 0.0
C3294 C 0.40013 0.73087 0.33544 0.0
C3295 C 0.39943 0.73765 0.3173 0.0
C3296 C 0.41613 0.74207 0.3078 0.0
H3297 H 0.29559 0.73248 0.24804 0.0
H3298 H 0.32552 0.72659 0.26135 0.0
C3299 C 0.43317 0.73951 0.31619 0.0
C3300 C 0.38145 0.74079 0.30847 0.0
H3301 H 0.33569 0.7173 0.29545 0.0
C3302 C 0.38082 0.76007 0.30307 0.0
C3303 C 0.3651 0.72499 0.3052 0.0
C3304 C 0.36515 0.7035 0.30932 0.0
C3305 C 0.36424 0.7641 0.29477 0.0
C3306 C 0.34764 0.74863 0.29241 0.0
C3307 C 0.34835 0.72924 0.29751 0.0
C3308 C 0.32945 0.75216 0.2845 0.0
C3309 C 0.36485 0.78477 0.28824 0.0
C3310 C 0.3216 0.7683 0.29321 0.0
C3311 C 0.30473 0.77188 0.28541 0.0
C3312 C 0.29511 0.75904 0.2691 0.0
C3313 C 0.30273 0.74261 0.26064 0.0
C3314 C 0.31977 0.7392 0.26826 0.0
H3315 H 0.3794 0.7921 0.28539 0.0
H3316 H 0.35558 0.78348 0.27491 0.0
H3317 H 0.36001 0.79505 0.29984 0.0
H3318 H 0.32857 0.77821 0.306 0.0
H3319 H 0.29939 0.78491 0.29197 0.0
H3320 H 0.98533 0.72086 0.09099 0.0
H3321 H 0.99544 0.69187 0.07268 0.0
H3322 H 0.04737 0.70512 0.10851 0.0
H3323 H 0.03742 0.73426 0.12703 0.0
H3324 H 0.03082 0.69454 0.05248 0.0
H3325 H 0.02457 0.64247 0.10889 0.0
H3326 H 0.01226 0.66343 0.10966 0.0
H3327 H 0.03716 0.66852 0.11569 0.0
C3328 C -0.00116 0.71757 0.09514 0.0
C3329 C 0.01054 0.72993 0.11055 0.0
C3330 C 0.00462 0.70102 0.08459 0.0
C3331 C 0.0221 0.69634 0.0893 0.0
C3332 C 0.03374 0.7084 0.10478 0.0
H3333 H 0.05946 0.58592 0.03746 0.0
H3334 H 0.06115 0.61995 0.05595 0.0
C3335 C 0.02803 0.72506 0.11532 0.0
C3336 C 0.02814 0.67902 0.07763 0.0
H3337 H 0.03357 0.62984 0.07851 0.0
C3338 C 0.03162 0.68045 0.05819 0.0
C3339 C 0.02938 0.6608 0.08522 0.0
C3340 C 0.02557 0.65851 0.10597 0.0
C3341 C 0.03579 0.66386 0.04595 0.0
C3342 C 0.03604 0.64522 0.05324 0.0
C3343 C 0.03338 0.64413 0.07292 0.0
C3344 C 0.03694 0.62608 0.04036 0.0
C3345 C 0.03971 0.66644 0.02527 0.0
C3346 C 0.02299 0.61839 0.02526 0.0
C3347 C 0.02204 0.59908 0.01467 0.0
C3348 C 0.03491 0.5869 0.01905 0.0
C3349 C 0.04941 0.59497 0.03362 0.0
C3350 C 0.05034 0.61436 0.04427 0.0
H3351 H 0.04563 0.68271 0.02392 0.0
H3352 H 0.04968 0.65688 0.0196 0.0
H3353 H 0.0263 0.66172 0.01609 0.0
H3354 H 0.01224 0.62689 0.02225 0.0
H3355 H 0.01067 0.59337 0.00358 0.0
H3356 H 0.04318 0.2352 0.85585 0.0
H3357 H 0.0741 0.23509 0.84311 0.0
H3358 H 0.0602 0.26909 0.79817 0.0
H3359 H 0.02944 0.26956 0.81092 0.0
H3360 H 0.08093 0.21802 0.8062 0.0
H3361 H 0.11221 0.30128 0.81944 0.0
H3362 H 0.0916 0.29009 0.83094 0.0
H3363 H 0.08953 0.29518 0.80637 0.0
C3364 C 0.0468 0.24292 0.84343 0.0
C3365 C 0.03384 0.25243 0.83443 0.0
C3366 C 0.06445 0.24278 0.83613 0.0
C3367 C 0.06952 0.25224 0.81981 0.0
C3368 C 0.05673 0.26202 0.811 0.0
H3369 H 0.16683 0.26431 0.75054 0.0
H3370 H 0.13519 0.26273 0.76213 0.0
C3371 C 0.03911 0.2622 0.81828 0.0
C3372 C 0.08777 0.25103 0.8114 0.0
H3373 H 0.12851 0.28025 0.79933 0.0
C3374 C 0.09139 0.23161 0.80479 0.0
C3375 C 0.10135 0.26879 0.80951 0.0
C3376 C 0.0986 0.29001 0.81709 0.0
C3377 C 0.10812 0.22949 0.79604 0.0
C3378 C 0.12165 0.24725 0.79409 0.0
C3379 C 0.11803 0.26666 0.80071 0.0
C3380 C 0.13997 0.24614 0.78581 0.0
C3381 C 0.11102 0.20828 0.78863 0.0
C3382 C 0.15301 0.23705 0.79512 0.0
C3383 C 0.17103 0.23791 0.78852 0.0
C3384 C 0.17633 0.24795 0.77256 0.0
C3385 C 0.16306 0.25638 0.76281 0.0
C3386 C 0.14504 0.25557 0.76946 0.0
H3387 H 0.0975 0.19687 0.78652 0.0
H3388 H 0.11788 0.20813 0.77471 0.0
H3389 H 0.12032 0.2034 0.79934 0.0
H3390 H 0.14951 0.23 0.80794 0.0
H3391 H 0.18103 0.23136 0.79634 0.0
H3392 H 0.52148 0.71848 0.9114 0.0
H3393 H 0.52619 0.68906 0.92681 0.0
H3394 H 0.48249 0.6981 0.96509 0.0
H3395 H 0.47727 0.72716 0.94938 0.0
H3396 H 0.53546 0.68299 0.96334 0.0
H3397 H 0.46308 0.63986 0.93941 0.0
H3398 H 0.47325 0.66347 0.93076 0.0
H3399 H 0.46367 0.66396 0.95414 0.0
C3400 C 0.51298 0.71436 0.92323 0.0
C3401 C 0.4988 0.72499 0.92896 0.0
C3402 C 0.5157 0.69752 0.93202 0.0
C3403 C 0.50437 0.69108 0.94678 0.0
C3404 C 0.49102 0.70244 0.95335 0.0
H3405 H 0.5248 0.59602 0.01507 0.0
H3406 H 0.52223 0.62878 0.00461 0.0
C3407 C 0.48813 0.71913 0.94442 0.0
C3408 C 0.50601 0.67198 0.95463 0.0
H3409 H 0.48114 0.62452 0.95988 0.0
C3410 C 0.52359 0.6702 0.96262 0.0
C3411 C 0.49058 0.65518 0.95336 0.0
C3412 C 0.47163 0.65557 0.94379 0.0
C3413 C 0.52616 0.65207 0.96941 0.0
C3414 C 0.51058 0.63549 0.9686 0.0
C3415 C 0.49302 0.63731 0.96064 0.0
C3416 C 0.51227 0.61573 0.97513 0.0
C3417 C 0.54564 0.65066 0.97679 0.0
C3418 C 0.50699 0.59742 0.96223 0.0
C3419 C 0.50812 0.57866 0.96824 0.0
C3420 C 0.51464 0.5778 0.98729 0.0
C3421 C 0.51988 0.59615 0.00024 0.0
C3422 C 0.51855 0.61493 0.99425 0.0
H3423 H 0.55671 0.66221 0.97155 0.0
H3424 H 0.54672 0.6536 0.99285 0.0
H3425 H 0.54853 0.63518 0.97224 0.0
H3426 H 0.50205 0.59766 0.94742 0.0
H3427 H 0.50403 0.56485 0.95786 0.0
H3428 H 0.03475 0.75851 0.68946 0.0
H3429 H 0.06585 0.74992 0.69126 0.0
H3430 H 0.0828 0.78631 0.64603 0.0
H3431 H 0.05176 0.79547 0.64448 0.0
H3432 H 0.08379 0.72988 0.66329 0.0
H3433 H 0.12456 0.80896 0.68812 0.0
H3434 H 0.09923 0.80244 0.688 0.0
H3435 H 0.1104 0.80588 0.66583 0.0
C3436 C 0.04513 0.76484 0.67999 0.0
C3437 C 0.04089 0.77782 0.66695 0.0
C3438 C 0.06286 0.75982 0.68097 0.0
C3439 C 0.07665 0.7676 0.66889 0.0
C3440 C 0.07245 0.78045 0.65573 0.0
H3441 H 0.19467 0.75802 0.6782 0.0
H3442 H 0.16432 0.75984 0.66259 0.0
C3443 C 0.05473 0.78566 0.65486 0.0
C3444 C 0.09542 0.76224 0.67038 0.0
H3445 H 0.14166 0.78266 0.68387 0.0
C3446 C 0.09649 0.74142 0.66761 0.0
C3447 C 0.11194 0.77735 0.67594 0.0
C3448 C 0.11156 0.7999 0.67981 0.0
C3449 C 0.1136 0.73527 0.67085 0.0
C3450 C 0.12995 0.75034 0.67707 0.0
C3451 C 0.12905 0.77117 0.67898 0.0
C3452 C 0.14772 0.74504 0.68375 0.0
C3453 C 0.11401 0.71272 0.66792 0.0
C3454 C 0.14832 0.73555 0.70045 0.0
C3455 C 0.16561 0.73456 0.70942 0.0
C3456 C 0.18248 0.74315 0.70182 0.0
C3457 C 0.18182 0.7513 0.68434 0.0
C3458 C 0.16454 0.75235 0.67542 0.0
H3459 H 0.10214 0.70379 0.65783 0.0
H3460 H 0.12749 0.71002 0.66219 0.0
H3461 H 0.11266 0.70685 0.68204 0.0
H3462 H 0.13551 0.73015 0.7073 0.0
H3463 H 0.16576 0.72825 0.72292 0.0
H3464 H 0.98283 0.32963 0.45361 0.0
H3465 H 0.99636 0.36231 0.47317 0.0
H3466 H 0.05104 0.35902 0.45248 0.0
H3467 H 0.03744 0.32636 0.43227 0.0
H3468 H 0.02348 0.37222 0.50217 0.0
H3469 H 0.04517 0.41512 0.4411 0.0
H3470 H 0.03014 0.38996 0.43743 0.0
H3471 H 0.05508 0.39282 0.44249 0.0
C3472 C -0.00224 0.33576 0.45319 0.0
C3473 C 0.00903 0.32538 0.44126 0.0
C3474 C 0.00548 0.35448 0.46442 0.0
C3475 C 0.02465 0.36326 0.4641 0.0
C3476 C 0.03611 0.35275 0.45262 0.0
H3477 H 0.06392 0.47214 0.55182 0.0
H3478 H 0.06367 0.43905 0.5321 0.0
C3479 C 0.02834 0.33403 0.44118 0.0
C3480 C 0.03228 0.38347 0.47584 0.0
H3481 H 0.05077 0.43362 0.47246 0.0
C3482 C 0.02964 0.38564 0.49574 0.0
C3483 C 0.04021 0.40093 0.46734 0.0
C3484 C 0.04271 0.39974 0.4459 0.0
C3485 C 0.03387 0.40489 0.50724 0.0
C3486 C 0.04158 0.42242 0.49871 0.0
C3487 C 0.04499 0.42014 0.47897 0.0
C3488 C 0.04414 0.44343 0.50947 0.0
C3489 C 0.02894 0.40637 0.52811 0.0
C3490 C 0.03414 0.45733 0.50276 0.0
C3491 C 0.03455 0.4763 0.51378 0.0
C3492 C 0.04486 0.48164 0.53181 0.0
C3493 C 0.05567 0.46822 0.53808 0.0
C3494 C 0.05544 0.44931 0.52689 0.0
H3495 H 0.01928 0.39226 0.53109 0.0
H3496 H 0.042 0.40853 0.53763 0.0
H3497 H 0.02215 0.41963 0.53205 0.0
H3498 H 0.02541 0.45319 0.48931 0.0
H3499 H 0.02619 0.48642 0.50853 0.0
H3500 H 0.45559 0.27057 0.2067 0.0
H3501 H 0.42656 0.26429 0.22369 0.0
H3502 H 0.39781 0.28927 0.18017 0.0
H3503 H 0.42665 0.29583 0.16327 0.0
H3504 H 0.40584 0.29598 0.2376 0.0
H3505 H 0.363 0.23283 0.18535 0.0
H3506 H 0.38843 0.23932 0.186 0.0
H3507 H 0.37455 0.25452 0.1747 0.0
C3508 C 0.44304 0.27454 0.20064 0.0
C3509 C 0.44339 0.28355 0.18353 0.0
C3510 C 0.4265 0.27095 0.21038 0.0
C3511 C 0.41005 0.27608 0.20301 0.0
C3512 C 0.41031 0.28487 0.18587 0.0
H3513 H 0.31023 0.30538 0.24779 0.0
H3514 H 0.34147 0.30467 0.23632 0.0
C3515 C 0.42683 0.28862 0.17623 0.0
C3516 C 0.39279 0.27338 0.21368 0.0
H3517 H 0.34639 0.24976 0.20906 0.0
C3518 C 0.39288 0.28568 0.23154 0.0
C3519 C 0.37603 0.2598 0.20575 0.0
C3520 C 0.37544 0.2457 0.18697 0.0
C3521 C 0.37633 0.28544 0.24127 0.0
C3522 C 0.35934 0.27267 0.23281 0.0
C3523 C 0.35945 0.25965 0.21542 0.0
C3524 C 0.34107 0.27343 0.24115 0.0
C3525 C 0.37704 0.29906 0.26035 0.0
C3526 C 0.33051 0.25604 0.24756 0.0
C3527 C 0.31264 0.25638 0.25415 0.0
C3528 C 0.30495 0.27405 0.25419 0.0
C3529 C 0.31572 0.29153 0.24797 0.0
C3530 C 0.33363 0.29121 0.24151 0.0
H3531 H 0.39162 0.3038 0.2672 0.0
H3532 H 0.37196 0.31311 0.25789 0.0
H3533 H 0.36781 0.29118 0.27054 0.0
H3534 H 0.33602 0.24215 0.24724 0.0
H3535 H 0.3047 0.24263 0.25877 0.0
H3536 H 0.61849 0.48813 0.3454 0.0
H3537 H 0.60182 0.48633 0.37503 0.0
H3538 H 0.57145 0.53164 0.35938 0.0
H3539 H 0.5875 0.53287 0.32932 0.0
H3540 H 0.5985 0.51235 0.40598 0.0
H3541 H 0.52876 0.48564 0.36591 0.0
H3542 H 0.55049 0.48749 0.35401 0.0
H3543 H 0.54054 0.50988 0.35997 0.0
C3544 C 0.60838 0.49785 0.34836 0.0
C3545 C 0.60409 0.51044 0.33494 0.0
C3546 C 0.59885 0.49678 0.36528 0.0
C3547 C 0.585 0.5084 0.36913 0.0
C3548 C 0.58162 0.522 0.35637 0.0
H3549 H 0.53652 0.5373 0.4762 0.0
H3550 H 0.55626 0.53489 0.44896 0.0
C3551 C 0.59092 0.52284 0.33929 0.0
C3552 C 0.57377 0.50594 0.38624 0.0
H3553 H 0.52861 0.49661 0.39984 0.0
C3554 C 0.58322 0.50874 0.40464 0.0
C3555 C 0.55384 0.5006 0.38443 0.0
C3556 C 0.54283 0.4955 0.365 0.0
C3557 C 0.57325 0.5072 0.42136 0.0
C3558 C 0.55332 0.5034 0.41963 0.0
C3559 C 0.54389 0.49978 0.40118 0.0
C3560 C 0.54193 0.50419 0.43673 0.0
C3561 C 0.5842 0.50947 0.44065 0.0
C3562 C 0.52688 0.48798 0.43862 0.0
C3563 C 0.51529 0.4895 0.45405 0.0
C3564 C 0.5187 0.5072 0.4678 0.0
C3565 C 0.53378 0.52334 0.46593 0.0
C3566 C 0.54518 0.52191 0.45046 0.0
H3567 H 0.59804 0.50496 0.43891 0.0
H3568 H 0.587 0.52578 0.44734 0.0
H3569 H 0.57627 0.50002 0.45071 0.0
H3570 H 0.52401 0.47423 0.42808 0.0
H3571 H 0.50372 0.47688 0.45521 0.0
H3572 H 0.22247 0.85586 0.06242 0.0
H3573 H 0.21426 0.83497 0.08802 0.0
H3574 H 0.22919 0.78323 0.0533 0.0
H3575 H 0.23915 0.80487 0.02835 0.0
H3576 H 0.19376 0.80213 0.09668 0.0
H3577 H 0.26766 0.79057 0.09622 0.0
H3578 H 0.25894 0.80653 0.08077 0.0
H3579 H 0.25332 0.779 0.07465 0.0
C3580 C 0.22356 0.83989 0.06007 0.0
C3581 C 0.23176 0.83201 0.04368 0.0
C3582 C 0.21885 0.82791 0.07471 0.0
C3583 C 0.22184 0.80772 0.07296 0.0
C3584 C 0.22759 0.79903 0.05537 0.0
H3585 H 0.20783 0.7556 0.18345 0.0
H3586 H 0.20133 0.75927 0.14942 0.0
C3587 C 0.23305 0.81128 0.04103 0.0
C3588 C 0.2215 0.79728 0.09048 0.0
H3589 H 0.25013 0.77937 0.1212 0.0
C3590 C 0.20602 0.79697 0.10199 0.0
C3591 C 0.23758 0.79063 0.09747 0.0
C3592 C 0.25537 0.79183 0.08675 0.0
C3593 C 0.20667 0.79161 0.12076 0.0
C3594 C 0.22293 0.78548 0.12783 0.0
C3595 C 0.23774 0.78421 0.11575 0.0
C3596 C 0.22621 0.78289 0.14838 0.0
C3597 C 0.19051 0.79393 0.13325 0.0
C3598 C 0.24253 0.79455 0.15896 0.0
C3599 C 0.24652 0.79201 0.17804 0.0
C3600 C 0.2341 0.77802 0.18708 0.0
C3601 C 0.21758 0.76654 0.17672 0.0
C3602 C 0.21378 0.76875 0.15738 0.0
H3603 H 0.18114 0.80312 0.12716 0.0
H3604 H 0.18193 0.77855 0.13426 0.0
H3605 H 0.19578 0.8014 0.14812 0.0
H3606 H 0.25229 0.80563 0.15239 0.0
H3607 H 0.25927 0.80115 0.18578 0.0
H3608 H 0.96459 0.56319 0.79517 0.0
H3609 H 0.98681 0.55835 0.82106 0.0
H3610 H 0.94002 0.53529 0.85366 0.0
H3611 H 0.91803 0.54016 0.82812 0.0
H3612 H 0.98511 0.57798 0.86323 0.0
H3613 H 0.97709 0.49329 0.85271 0.0
H3614 H 0.9726 0.50744 0.83329 0.0
H3615 H 0.95552 0.50252 0.85087 0.0
C3616 C 0.95915 0.55678 0.80775 0.0
C3617 C 0.93966 0.55227 0.80985 0.0
C3618 C 0.97179 0.55411 0.8225 0.0
C3619 C 0.96499 0.54643 0.8392 0.0
C3620 C 0.94552 0.54114 0.84084 0.0
H3621 H 0.99172 0.5203 0.95078 0.0
H3622 H 0.97893 0.52459 0.91904 0.0
C3623 C 0.93297 0.54409 0.82633 0.0
C3624 C 0.97791 0.54518 0.85574 0.0
H3625 H 0.99004 0.51108 0.88361 0.0
C3626 C 0.98659 0.5634 0.86756 0.0
C3627 C 0.9796 0.52613 0.86131 0.0
C3628 C 0.97084 0.50619 0.84884 0.0
C3629 C 0.99601 0.56304 0.88547 0.0
C3630 C -0.00293 0.54391 0.89143 0.0
C3631 C 0.98915 0.52573 0.87909 0.0
C3632 C 0.00501 0.54226 0.91096 0.0
C3633 C 0.00374 0.58306 0.89833 0.0
C3634 C 0.02391 0.5509 0.91707 0.0
C3635 C 0.0312 0.54869 0.93538 0.0
C3636 C 0.01974 0.53757 0.94774 0.0
C3637 C 0.00084 0.52905 0.94162 0.0
C3638 C 0.99355 0.53139 0.92343 0.0
H3639 H -0.00189 0.59596 0.89352 0.0
H3640 H 0.00034 0.58194 0.91356 0.0
H3641 H 0.0193 0.58675 0.89794 0.0
H3642 H 0.03311 0.55903 0.90755 0.0
H3643 H 0.04587 0.55528 0.93969 0.0
H3644 H 0.25704 0.17034 0.54485 0.0
H3645 H 0.24751 0.18298 0.57659 0.0
H3646 H 0.30303 0.22056 0.59057 0.0
H3647 H 0.31263 0.20831 0.55881 0.0
H3648 H 0.26187 0.17961 0.61269 0.0
H3649 H 0.26968 0.26154 0.60409 0.0
H3650 H 0.26945 0.24178 0.58386 0.0
H3651 H 0.29065 0.25195 0.59919 0.0
C3652 C 0.26722 0.18141 0.5546 0.0
C3653 C 0.28561 0.18837 0.54916 0.0
C3654 C 0.26172 0.18861 0.57277 0.0
C3655 C 0.27443 0.20299 0.58586 0.0
C3656 C 0.29282 0.20985 0.58055 0.0
H3657 H 0.28564 0.25771 0.70362 0.0
H3658 H 0.2879 0.24567 0.66958 0.0
C3659 C 0.29833 0.20271 0.56239 0.0
C3660 C 0.26877 0.21024 0.60537 0.0
H3661 H 0.26739 0.25354 0.63646 0.0
C3662 C 0.26281 0.19575 0.61781 0.0
C3663 C 0.26989 0.23129 0.61201 0.0
C3664 C 0.27508 0.24752 0.59902 0.0
C3665 C 0.25884 0.20182 0.63699 0.0
C3666 C 0.26066 0.22293 0.64382 0.0
C3667 C 0.26603 0.23736 0.6312 0.0
C3668 C 0.25862 0.23047 0.66443 0.0
C3669 C 0.25354 0.18571 0.65006 0.0
C3670 C 0.24128 0.22614 0.67286 0.0
C3671 C 0.23988 0.23307 0.69249 0.0
C3672 C 0.25582 0.2444 0.70401 0.0
C3673 C 0.27305 0.24892 0.69533 0.0
C3674 C 0.2744 0.2421 0.67579 0.0
H3675 H 0.25577 0.17045 0.64353 0.0
H3676 H 0.26189 0.19022 0.66419 0.0
H3677 H 0.23843 0.18423 0.6529 0.0
H3678 H 0.22885 0.21741 0.66427 0.0
H3679 H 0.22639 0.22935 0.69867 0.0
H3680 H 0.62887 0.5223 0.22024 0.0
H3681 H 0.62237 0.53205 0.18846 0.0
H3682 H 0.56619 0.53687 0.20345 0.0
H3683 H 0.57261 0.52745 0.23529 0.0
H3684 H 0.59474 0.51127 0.16072 0.0
H3685 H 0.58451 0.59047 0.18217 0.0
H3686 H 0.59555 0.57678 0.19841 0.0
H3687 H 0.57029 0.57202 0.1947 0.0
C3688 C 0.61517 0.52558 0.21683 0.0
C3689 C 0.60125 0.52413 0.23029 0.0
C3690 C 0.61152 0.5312 0.19869 0.0
C3691 C 0.59394 0.53555 0.19376 0.0
C3692 C 0.58002 0.53409 0.20716 0.0
H3693 H 0.52761 0.54823 0.09499 0.0
H3694 H 0.54232 0.54883 0.12725 0.0
C3695 C 0.58366 0.52853 0.22529 0.0
C3696 C 0.58961 0.54019 0.17414 0.0
H3697 H 0.57309 0.57478 0.14991 0.0
C3698 C 0.5903 0.5253 0.15828 0.0
C3699 C 0.58382 0.5585 0.17108 0.0
C3700 C 0.58366 0.57545 0.18748 0.0
C3701 C 0.58446 0.52775 0.1395 0.0
C3702 C 0.57812 0.5458 0.13651 0.0
C3703 C 0.57799 0.561 0.15228 0.0
C3704 C 0.57012 0.54831 0.11736 0.0
C3705 C 0.58425 0.51057 0.1232 0.0
C3706 C 0.58107 0.54861 0.10125 0.0
C3707 C 0.57267 0.54816 0.08279 0.0
C3708 C 0.55326 0.54758 0.08026 0.0
C3709 C 0.5426 0.5486 0.09655 0.0
C3710 C 0.55098 0.54897 0.11497 0.0
H3711 H 0.58591 0.49614 0.12861 0.0
H3712 H 0.57088 0.50748 0.11396 0.0
H3713 H 0.59605 0.51505 0.11401 0.0
H3714 H 0.59596 0.54849 0.10289 0.0
H3715 H 0.5812 0.54749 0.07044 0.0
H3716 H 0.28037 0.83978 0.95367 0.0
H3717 H 0.27442 0.82499 0.91976 0.0
H3718 H 0.2195 0.84054 0.91901 0.0
H3719 H 0.22558 0.85605 0.95302 0.0
H3720 H 0.24803 0.79346 0.90265 0.0
H3721 H 0.24085 0.86426 0.87243 0.0
H3722 H 0.24963 0.86471 0.89706 0.0
H3723 H 0.22473 0.85768 0.89052 0.0
C3724 C 0.26701 0.84014 0.94635 0.0
C3725 C 0.25346 0.84917 0.95607 0.0
C3726 C 0.26364 0.83164 0.92693 0.0
C3727 C 0.24662 0.83187 0.91677 0.0
C3728 C 0.23291 0.84061 0.92645 0.0
H3729 H 0.21423 0.75612 0.80395 0.0
H3730 H 0.21579 0.77026 0.83827 0.0
C3731 C 0.23636 0.84936 0.94591 0.0
C3732 C 0.24339 0.82263 0.89614 0.0
H3733 H 0.23519 0.83344 0.85051 0.0
C3734 C 0.24517 0.80218 0.89124 0.0
C3735 C 0.2399 0.83412 0.88127 0.0
C3736 C 0.23883 0.85646 0.8855 0.0
C3737 C 0.2438 0.79297 0.87189 0.0
C3738 C 0.23999 0.80434 0.85704 0.0
C3739 C 0.23799 0.82471 0.86194 0.0
C3740 C 0.23881 0.79571 0.83628 0.0
C3741 C 0.24715 0.77141 0.86754 0.0
C3742 C 0.25089 0.80561 0.82368 0.0
C3743 C 0.24981 0.79775 0.80406 0.0
C3744 C 0.23669 0.77979 0.79672 0.0
C3745 C 0.22459 0.76989 0.8093 0.0
C3746 C 0.22554 0.77788 0.82891 0.0
H3747 H 0.25487 0.76704 0.87989 0.0
H3748 H 0.23339 0.76051 0.86471 0.0
H3749 H 0.25531 0.76967 0.85453 0.0
H3750 H 0.2612 0.81942 0.82904 0.0
H3751 H 0.2592 0.80578 0.79464 0.0
H3752 H 0.92222 0.57431 0.74482 0.0
H3753 H 0.95422 0.57678 0.73349 0.0
H3754 H 0.93438 0.52273 0.69179 0.0
H3755 H 0.90263 0.52035 0.70277 0.0
H3756 H 0.97412 0.5289 0.71422 0.0
H3757 H 0.95911 0.59175 0.67487 0.0
H3758 H 0.95487 0.59203 0.70015 0.0
H3759 H 0.94007 0.57343 0.68239 0.0
C3760 C 0.92489 0.56266 0.73365 0.0
C3761 C 0.91002 0.5472 0.72457 0.0
C3762 C 0.9431 0.56411 0.72717 0.0
C3763 C 0.94655 0.54996 0.71178 0.0
C3764 C 0.93197 0.53374 0.70372 0.0
H3765 H 0.00611 0.50967 0.62243 0.0
H3766 H 0.9911 0.51526 0.65266 0.0
C3767 C 0.91385 0.53245 0.70996 0.0
C3768 C 0.96439 0.55312 0.70206 0.0
H3769 H 0.98342 0.57562 0.66442 0.0
C3770 C 0.97655 0.5395 0.70369 0.0
C3771 C 0.96753 0.56705 0.68845 0.0
C3772 C 0.95477 0.58196 0.68621 0.0
C3773 C 0.99111 0.53858 0.69117 0.0
C3774 C 0.99309 0.55115 0.67629 0.0
C3775 C 0.98187 0.5659 0.67573 0.0
C3776 C 0.00457 0.54734 0.65958 0.0
C3777 C 0.00379 0.52367 0.69363 0.0
C3778 C 0.01703 0.56355 0.65316 0.0
C3779 C 0.02543 0.56042 0.63562 0.0
C3780 C 0.02143 0.54106 0.62422 0.0
C3781 C 0.00954 0.52472 0.63099 0.0
C3782 C 0.0011 0.52786 0.64842 0.0
H3783 H 0.00579 0.52184 0.70911 0.0
H3784 H -0.00289 0.5084 0.68564 0.0
H3785 H 0.01781 0.5287 0.68804 0.0
H3786 H 0.01976 0.57876 0.6614 0.0
H3787 H 0.03449 0.5733 0.63066 0.0
H3788 H 0.31432 0.22679 0.46303 0.0
H3789 H 0.31009 0.24618 0.43648 0.0
H3790 H 0.25513 0.20788 0.42079 0.0
H3791 H 0.25905 0.18862 0.44748 0.0
H3792 H 0.30585 0.23013 0.39839 0.0
H3793 H 0.24448 0.26432 0.41774 0.0
H3794 H 0.25758 0.25371 0.435 0.0
H3795 H 0.23995 0.23715 0.41811 0.0
C3796 C 0.30114 0.22273 0.45421 0.0
C3797 C 0.28704 0.20606 0.45742 0.0
C3798 C 0.29878 0.23382 0.43899 0.0
C3799 C 0.28225 0.22861 0.42671 0.0
C3800 C 0.26786 0.21249 0.4303 0.0
H3801 H 0.2427 0.25094 0.31603 0.0
H3802 H 0.24867 0.23923 0.34693 0.0
C3803 C 0.27017 0.20141 0.44556 0.0
C3804 C 0.28073 0.23875 0.40918 0.0
H3805 H 0.2524 0.26335 0.38467 0.0
C3806 C 0.29431 0.23767 0.39552 0.0
C3807 C 0.26567 0.24857 0.40543 0.0
C3808 C 0.2512 0.25121 0.41994 0.0
C3809 C 0.29284 0.24539 0.37788 0.0
C3810 C 0.27748 0.25465 0.37391 0.0
C3811 C 0.26415 0.25619 0.38775 0.0
C3812 C 0.2744 0.26178 0.35503 0.0
C3813 C 0.30728 0.24287 0.3633 0.0
C3814 C 0.28693 0.27837 0.3493 0.0
C3815 C 0.28358 0.28508 0.33153 0.0
C3816 C 0.26765 0.27528 0.31927 0.0
C3817 C 0.25521 0.25866 0.32506 0.0
C3818 C 0.25853 0.25202 0.34277 0.0
H3819 H 0.3163 0.2322 0.36714 0.0
H3820 H 0.30027 0.23705 0.34865 0.0
H3821 H 0.3165 0.25801 0.36264 0.0
H3822 H 0.29915 0.28626 0.35867 0.0
H3823 H 0.29333 0.29799 0.32746 0.0
H3824 H 0.33267 0.61708 0.50317 0.0
H3825 H 0.35374 0.59519 0.51151 0.0
H3826 H 0.30646 0.55047 0.52488 0.0
H3827 H 0.28495 0.57254 0.51636 0.0
H3828 H 0.36011 0.57881 0.54552 0.0
H3829 H 0.33217 0.51833 0.48304 0.0
H3830 H 0.32657 0.54348 0.48495 0.0
H3831 H 0.31586 0.52544 0.50008 0.0
C3832 C 0.32665 0.6028 0.50818 0.0
C3833 C 0.30709 0.59659 0.5091 0.0
C3834 C 0.33877 0.59025 0.51293 0.0
C3835 C 0.33166 0.57114 0.51864 0.0
C3836 C 0.31219 0.56508 0.52027 0.0
H3837 H 0.42642 0.51222 0.54556 0.0
H3838 H 0.39536 0.5211 0.549 0.0
C3839 C 0.29996 0.57773 0.5155 0.0
C3840 C 0.34495 0.55755 0.52174 0.0
H3841 H 0.36041 0.51625 0.49933 0.0
C3842 C 0.36002 0.56485 0.53574 0.0
C3843 C 0.34475 0.53943 0.50885 0.0
C3844 C 0.32907 0.53115 0.49328 0.0
C3845 C 0.37559 0.55539 0.53631 0.0
C3846 C 0.37583 0.53782 0.52279 0.0
C3847 C 0.36015 0.5297 0.50967 0.0
C3848 C 0.39319 0.52953 0.52022 0.0
C3849 C 0.39219 0.5652 0.55046 0.0
C3850 C 0.4018 0.53034 0.50262 0.0
C3851 C 0.41935 0.52508 0.50059 0.0
C3852 C 0.42862 0.51899 0.51616 0.0
C3853 C 0.4196 0.51713 0.53344 0.0
C3854 C 0.40193 0.52225 0.53543 0.0
H3855 H 0.39119 0.58085 0.55717 0.0
H3856 H 0.39268 0.55567 0.56222 0.0
H3857 H 0.40563 0.56624 0.54323 0.0
H3858 H 0.39529 0.53589 0.49068 0.0
H3859 H 0.426 0.52659 0.48709 0.0
H3860 H 0.81126 0.94818 0.5143 0.0
H3861 H 0.84385 0.96286 0.5085 0.0
H3862 H 0.86373 0.92505 0.54687 0.0
H3863 H 0.83126 0.91007 0.55245 0.0
H3864 H 0.87121 0.98477 0.53488 0.0
H3865 H 0.89427 0.91553 0.50072 0.0
H3866 H 0.86978 0.91621 0.50356 0.0
H3867 H 0.88444 0.9121 0.5235 0.0
C3868 C 0.82257 0.94281 0.52131 0.0
C3869 C 0.81867 0.92786 0.53374 0.0
C3870 C 0.84118 0.95122 0.51798 0.0
C3871 C 0.85623 0.94481 0.52698 0.0
C3872 C 0.85235 0.92984 0.53934 0.0
H3873 H 0.97582 0.98459 0.54779 0.0
H3874 H 0.94241 0.96816 0.54626 0.0
C3875 C 0.83376 0.92135 0.5426 0.0
C3876 C 0.87598 0.95471 0.5245 0.0
H3877 H 0.91876 0.94458 0.5127 0.0
C3878 C 0.88155 0.97603 0.52977 0.0
C3879 C 0.88946 0.94328 0.51782 0.0
C3880 C 0.88416 0.92055 0.51089 0.0
C3881 C 0.90037 0.9861 0.52925 0.0
C3882 C 0.91391 0.97457 0.52313 0.0
C3883 C 0.90831 0.95334 0.51745 0.0
C3884 C 0.93414 0.98415 0.52341 0.0
C3885 C 0.90578 0.00889 0.53591 0.0
C3886 C 0.94054 0.99837 0.51088 0.0
C3887 C 0.95962 0.00776 0.51172 0.0
C3888 C 0.97253 0.00304 0.5251 0.0
C3889 C 0.96612 0.9886 0.53743 0.0
C3890 C 0.94709 0.97916 0.53653 0.0
H3891 H 0.89434 0.01488 0.54335 0.0
H3892 H 0.91867 0.01259 0.5459 0.0
H3893 H 0.9089 0.01699 0.52318 0.0
H3894 H 0.93076 0.00225 0.50053 0.0
H3895 H 0.96421 0.0189 0.50211 0.0
H3896 H 0.86314 0.10408 0.24127 0.0
H3897 H 0.84506 0.13111 0.23985 0.0
H3898 H 0.80768 0.1047 0.28048 0.0
H3899 H 0.82601 0.07811 0.28248 0.0
H3900 H 0.8087 0.13262 0.23057 0.0
H3901 H 0.82708 0.16192 0.30837 0.0
H3902 H 0.83796 0.14281 0.29538 0.0
H3903 H 0.81493 0.13562 0.30411 0.0
C3904 C 0.85093 0.10389 0.24971 0.0
C3905 C 0.84618 0.08917 0.26222 0.0
C3906 C 0.84062 0.11935 0.24891 0.0
C3907 C 0.82534 0.12023 0.26048 0.0
C3908 C 0.81978 0.10469 0.2719 0.0
H3909 H 0.75019 0.20638 0.24934 0.0
H3910 H 0.7625 0.17503 0.24978 0.0
C3911 C 0.83021 0.08943 0.27293 0.0
C3912 C 0.81579 0.13791 0.26128 0.0
H3913 H 0.8054 0.17723 0.29226 0.0
C3914 C 0.80794 0.14238 0.24404 0.0
C3915 C 0.8151 0.15081 0.27886 0.0
C3916 C 0.82438 0.14771 0.2977 0.0
C3917 C 0.7994 0.1594 0.24388 0.0
C3918 C 0.79826 0.17197 0.26155 0.0
C3919 C 0.80608 0.16744 0.27877 0.0
C3920 C 0.79014 0.19067 0.26237 0.0
C3921 C 0.7923 0.16415 0.22471 0.0
C3922 C 0.80125 0.20976 0.27021 0.0
C3923 C 0.79415 0.22764 0.27034 0.0
C3924 C 0.7758 0.2268 0.26253 0.0
C3925 C 0.76444 0.20758 0.25532 0.0
C3926 C 0.77151 0.18965 0.25538 0.0
H3927 H 0.79861 0.15639 0.21237 0.0
H3928 H 0.77679 0.15865 0.22279 0.0
H3929 H 0.79547 0.18091 0.22414 0.0
H3930 H 0.81563 0.21092 0.27581 0.0
H3931 H 0.80332 0.24216 0.276 0.0
H3932 H 0.71959 0.14077 -2e-05 0.0
H3933 H 0.68594 0.13183 0.00505 0.0
H3934 H 0.69382 0.07547 0.02444 0.0
H3935 H 0.72722 0.08393 0.01886 0.0
H3936 H 0.66487 0.06894 -0.00164 0.0
H3937 H 0.65911 0.13327 0.05464 0.0
H3938 H 0.66901 0.14166 0.03321 0.0
H3939 H 0.6815 0.12775 0.0478 0.0
C3940 C 0.71414 0.12653 0.00541 0.0
C3941 C 0.726 0.11302 0.00897 0.0
C3942 C 0.69496 0.12154 0.00846 0.0
C3943 C 0.68748 0.10316 0.01543 0.0
C3944 C 0.69935 0.08976 0.01913 0.0
H3945 H 0.57455 0.06602 0.05353 0.0
H3946 H 0.60859 0.07827 0.05243 0.0
C3947 C 0.71842 0.09461 0.01588 0.0
C3948 C 0.66707 0.09714 0.01774 0.0
H3949 H 0.63016 0.11245 0.03996 0.0
C3950 C 0.65731 0.0784 0.00755 0.0
C3951 C 0.65732 0.10938 0.02996 0.0
C3952 C 0.6673 0.12903 0.04219 0.0
C3953 C 0.63798 0.07169 0.00898 0.0
C3954 C 0.62804 0.08438 0.02045 0.0
C3955 C 0.63783 0.10292 0.03098 0.0
C3956 C 0.60744 0.07861 0.02145 0.0
C3957 C 0.62845 0.05092 -0.00161 0.0
C3958 C 0.59559 0.0754 0.00451 0.0
C3959 C 0.57629 0.06822 0.00505 0.0
C3960 C 0.56846 0.06448 0.02263 0.0
C3961 C 0.58022 0.06872 0.03978 0.0
C3962 C 0.59962 0.07571 0.03918 0.0
H3963 H 0.63871 0.04085 0.99519 0.0
H3964 H 0.61738 0.04307 0.00693 0.0
H3965 H 0.62171 0.0529 0.9844 0.0
H3966 H 0.60132 0.07808 0.99078 0.0
H3967 H 0.56755 0.06542 0.99164 0.0
H3968 H 0.15029 0.4607 0.22224 0.0
H3969 H 0.1755 0.4432 0.21139 0.0
H3970 H 0.19722 0.44829 0.27066 0.0
H3971 H 0.17283 0.46617 0.28147 0.0
H3972 H 0.22554 0.45411 0.24623 0.0
H3973 H 0.17147 0.38376 0.21838 0.0
H3974 H 0.17086 0.40657 0.20771 0.0
H3975 H 0.16521 0.4056 0.23243 0.0
C3976 C 0.1606 0.4583 0.2329 0.0
C3977 C 0.15932 0.46452 0.25276 0.0
C3978 C 0.17495 0.44826 0.22668 0.0
C3979 C 0.18803 0.44413 0.24026 0.0
C3980 C 0.1873 0.45131 0.25991 0.0
H3981 H 0.24628 0.36846 0.28313 0.0
H3982 H 0.23588 0.39812 0.27281 0.0
C3983 C 0.17319 0.46143 0.26609 0.0
C3984 C 0.20141 0.43067 0.23486 0.0
H3985 H 0.20224 0.37988 0.2241 0.0
C3986 C 0.22056 0.43796 0.24086 0.0
C3987 C 0.19494 0.40962 0.2277 0.0
C3988 C 0.17451 0.40079 0.22125 0.0
C3989 C 0.23295 0.42445 0.2417 0.0
C3990 C 0.22599 0.40324 0.23634 0.0
C3991 C 0.20744 0.39622 0.22831 0.0
C3992 C 0.23626 0.38782 0.24214 0.0
C3993 C 0.25308 0.43281 0.24943 0.0
C3994 C 0.24014 0.37238 0.22832 0.0
C3995 C 0.24613 0.35547 0.23423 0.0
C3996 C 0.24797 0.35364 0.254 0.0
C3997 C 0.24499 0.36957 0.26782 0.0
C3998 C 0.23921 0.38658 0.26192 0.0
H3999 H 0.25782 0.44895 0.24687 0.0
H4000 H 0.25414 0.43253 0.26529 0.0
H4001 H 0.26269 0.4234 0.24265 0.0
H4002 H 0.2377 0.37296 0.21301 0.0
H4003 H 0.24829 0.34329 0.22335 0.0
H4004 H 0.20399 0.42633 0.07298 0.0
H4005 H 0.17719 0.44187 0.06583 0.0
H4006 H 0.18395 0.4288 0.0047 0.0
H4007 H 0.21045 0.41278 0.0117 0.0
H4008 H 0.17841 0.47539 0.04799 0.0
H4009 H 0.12781 0.40993 0.00633 0.0
H4010 H 0.14817 0.40658 0.02032 0.0
H4011 H 0.15054 0.41418 0.99662 0.0
C4012 C 0.19956 0.42641 0.058 0.0
C4013 C 0.20936 0.4183 0.04291 0.0
C4014 C 0.18427 0.43536 0.05394 0.0
C4015 C 0.17844 0.43635 0.03473 0.0
C4016 C 0.18791 0.42782 0.01962 0.0
H4017 H 0.09991 0.49894 0.98153 0.0
H4018 H 0.12575 0.48163 0.9885 0.0
C4019 C 0.20313 0.41873 0.02366 0.0
C4020 C 0.16339 0.44762 0.03061 0.0
H4021 H 0.12102 0.44314 0.00548 0.0
C4022 C 0.1658 0.46828 0.03881 0.0
C4023 C 0.14697 0.43836 0.01856 0.0
C4024 C 0.14309 0.41599 0.0101 0.0
C4025 C 0.15238 0.48 0.03508 0.0
C4026 C 0.13608 0.47078 0.02293 0.0
C4027 C 0.13363 0.45016 0.0147 0.0
C4028 C 0.12116 0.48216 0.01895 0.0
C4029 C 0.15584 0.50224 0.04392 0.0
C4030 C 0.11014 0.48822 0.03381 0.0
C4031 C 0.09542 0.49803 0.02986 0.0
C4032 C 0.0915 0.50195 0.011 0.0
C4033 C 0.10274 0.49622 0.99621 0.0
C4034 C 0.11741 0.48627 0.00014 0.0
H4035 H 0.17073 0.50813 0.04951 0.0
H4036 H 0.15218 0.51188 0.03315 0.0
H4037 H 0.14674 0.5039 0.05617 0.0
H4038 H 0.11266 0.48494 0.04836 0.0
H4039 H 0.08687 0.50219 0.04151 0.0
H4040 H 0.83339 0.98978 0.27991 0.0
H4041 H 0.81725 0.9544 0.27065 0.0
H4042 H 0.84518 0.95184 0.21733 0.0
H4043 H 0.86198 0.98752 0.22675 0.0
H4044 H 0.79328 0.93553 0.23965 0.0
H4045 H 0.85843 0.9035 0.24117 0.0
H4046 H 0.85835 0.92973 0.25081 0.0
H4047 H 0.85736 0.92216 0.22511 0.0
C4048 C 0.83614 0.98185 0.26614 0.0
C4049 C 0.84917 0.99151 0.25416 0.0
C4050 C 0.82681 0.96156 0.26085 0.0
C4051 C 0.83021 0.95036 0.24345 0.0
C4052 C 0.84263 0.96009 0.23101 0.0
H4053 H 0.75614 0.82775 0.22016 0.0
H4054 H 0.77391 0.86101 0.21392 0.0
C4055 C 0.85209 0.98053 0.23634 0.0
C4056 C 0.82089 0.9284 0.23903 0.0
H4057 H 0.82953 0.87999 0.23668 0.0
C4058 C 0.80116 0.92333 0.23868 0.0
C4059 C 0.83127 0.91257 0.23796 0.0
C4060 C 0.85253 0.91714 0.2389 0.0
C4061 C 0.79154 0.903 0.23831 0.0
C4062 C 0.80193 0.88718 0.23767 0.0
C4063 C 0.82162 0.89213 0.23709 0.0
C4064 C 0.79281 0.8658 0.23965 0.0
C4065 C 0.77047 0.89889 0.23988 0.0
C4066 C 0.79823 0.85692 0.25556 0.0
C4067 C 0.78832 0.83781 0.25896 0.0
C4068 C 0.77274 0.82732 0.24656 0.0
C4069 C 0.76794 0.83569 0.23008 0.0
C4070 C 0.77801 0.85471 0.22656 0.0
H4071 H 0.76534 0.91315 0.24462 0.0
H4072 H 0.76332 0.89206 0.22551 0.0
H4073 H 0.76623 0.88793 0.25029 0.0
H4074 H 0.80968 0.86515 0.2658 0.0
H4075 H 0.7924 0.83163 0.2717 0.0
H4076 H 0.653 0.06332 0.79257 0.0
H4077 H 0.67017 0.09675 0.78668 0.0
H4078 H 0.64533 0.08538 0.72813 0.0
H4079 H 0.62791 0.05183 0.73386 0.0
H4080 H 0.69629 0.1037 0.7572 0.0
H4081 H 0.63598 0.14283 0.74991 0.0
H4082 H 0.63417 0.11981 0.76111 0.0
H4083 H 0.63406 0.11833 0.73526 0.0
C4084 C 0.65101 0.06792 0.77849 0.0
C4085 C 0.63903 0.05484 0.76371 0.0
C4086 C 0.66088 0.08704 0.77513 0.0
C4087 C 0.65891 0.09355 0.75702 0.0
C4088 C 0.64684 0.08071 0.74228 0.0
H4089 H 0.70965 0.21186 0.72255 0.0
H4090 H 0.69305 0.17622 0.72127 0.0
C4091 C 0.63695 0.06153 0.74561 0.0
C4092 C 0.67001 0.11354 0.75354 0.0
H4093 H 0.66619 0.16176 0.74592 0.0
C4094 C 0.68973 0.11639 0.75463 0.0
C4095 C 0.66137 0.12995 0.75003 0.0
C4096 C 0.64024 0.12775 0.74912 0.0
C4097 C 0.70109 0.13536 0.75259 0.0
C4098 C 0.69248 0.15199 0.74979 0.0
C4099 C 0.67274 0.14896 0.74809 0.0
C4100 C 0.70365 0.17298 0.74987 0.0
C4101 C 0.72221 0.1374 0.75347 0.0
C4102 C 0.71513 0.18293 0.76636 0.0
C4103 C 0.72464 0.20324 0.76713 0.0
C4104 C 0.72274 0.21408 0.75149 0.0
C4105 C 0.71147 0.20396 0.73484 0.0
C4106 C 0.70194 0.18361 0.73408 0.0
H4107 H 0.72618 0.12231 0.74954 0.0
H4108 H 0.72879 0.14806 0.74364 0.0
H4109 H 0.72809 0.14355 0.76847 0.0
H4110 H 0.71632 0.17517 0.77887 0.0
H4111 H 0.73313 0.21054 0.78022 0.0
loop_
_geom_bond_atom_site_label_1
_geom_bond_atom_site_label_2
_geom_bond_distance
_geom_bond_site_symmetry_2
_ccdc_geom_bond_type
Mg0 O1 2.028 . S
Mg0 O7 1.986 . S
Mg0 O9 2.114 1_455 S
Mg0 O10 2.251 1_455 S
Mg0 O13 2.010 . S
O1 Mg0 2.028 . S
O1 C4 1.250 . S
O2 Mg3 2.028 . S
O2 C4 1.248 1_655 S
Mg3 O2 2.028 . S
Mg3 O8 2.032 . S
Mg3 O10 2.079 . S
C4 O1 1.250 . S
C4 O2 1.248 1_455 S
C5 O6 1.264 . S
C5 O13 1.249 . S
O6 C5 1.264 . S
O7 Mg0 1.986 . S
O7 C11 1.246 . S
O8 Mg3 2.032 . S
O8 C11 1.259 1_655 S
O9 Mg0 2.114 1_655 S
O9 C12 1.252 . S
O10 Mg0 2.251 1_655 S
O10 Mg3 2.079 . S
O10 C12 1.273 . S
C11 O7 1.246 . S
C11 O8 1.259 1_455 S
C12 O9 1.252 . S
C12 O10 1.273 . S
O13 Mg0 2.010 . S
O13 C5 1.249 . S
Mg14 O15 2.028 . S
Mg14 O21 1.986 . S
Mg14 O23 2.114 1_455 S
Mg14 O24 2.251 1_455 S
Mg14 O27 2.010 . S
O15 Mg14 2.028 . S
O15 C18 1.250 . S
O16 Mg17 2.028 . S
O16 C18 1.248 1_655 S
Mg17 O16 2.028 . S
Mg17 O22 2.032 . S
Mg17 O24 2.079 . S
C18 O15 1.250 . S
C18 O16 1.248 1_455 S
C19 O20 1.264 . S
C19 O27 1.249 . S
O20 C19 1.264 . S
O21 Mg14 1.986 . S
O21 C25 1.246 . S
O22 Mg17 2.032 . S
O22 C25 1.259 1_655 S
O23 Mg14 2.114 1_655 S
O23 C26 1.252 . S
O24 Mg14 2.251 1_655 S
O24 Mg17 2.079 . S
O24 C26 1.273 . S
C25 O21 1.246 . S
C25 O22 1.259 1_455 S
C26 O23 1.252 . S
C26 O24 1.273 . S
O27 Mg14 2.010 . S
O27 C19 1.249 . S
Mg28 O29 2.028 . S
Mg28 O35 1.986 . S
Mg28 O37 2.114 . S
Mg28 O38 2.251 . S
Mg28 O41 2.010 . S
O29 Mg28 2.028 . S
O29 C32 1.250 . S
O30 Mg31 2.028 . S
O30 C32 1.248 . S
Mg31 O30 2.028 . S
Mg31 O36 2.032 . S
Mg31 O38 2.079 . S
C32 O29 1.250 . S
C32 O30 1.248 . S
C33 O34 1.264 . S
C33 O41 1.249 . S
O34 C33 1.264 . S
O35 Mg28 1.986 . S
O35 C39 1.246 . S
O36 Mg31 2.032 . S
O36 C39 1.259 . S
O37 Mg28 2.114 . S
O37 C40 1.252 . S
O38 Mg28 2.251 . S
O38 Mg31 2.079 . S
O38 C40 1.273 . S
C39 O35 1.246 . S
C39 O36 1.259 . S
C40 O37 1.252 . S
C40 O38 1.273 . S
O41 Mg28 2.010 . S
O41 C33 1.249 . S
Mg42 O43 2.028 . S
Mg42 O49 1.986 . S
Mg42 O51 2.114 . S
Mg42 O52 2.251 . S
Mg42 O55 2.010 . S
O43 Mg42 2.028 . S
O43 C46 1.250 . S
O44 Mg45 2.028 . S
O44 C46 1.248 . S
Mg45 O44 2.028 . S
Mg45 O50 2.032 . S
Mg45 O52 2.079 . S
C46 O43 1.250 . S
C46 O44 1.248 . S
C47 O48 1.264 . S
C47 O55 1.249 . S
O48 C47 1.264 . S
O49 Mg42 1.986 . S
O49 C53 1.246 . S
O50 Mg45 2.032 . S
O50 C53 1.259 . S
O51 Mg42 2.114 . S
O51 C54 1.252 . S
O52 Mg42 2.251 . S
O52 Mg45 2.079 . S
O52 C54 1.273 . S
C53 O49 1.246 . S
C53 O50 1.259 . S
C54 O51 1.252 . S
C54 O52 1.273 . S
O55 Mg42 2.010 . S
O55 C47 1.249 . S
Mg56 O57 2.028 . S
Mg56 O63 1.986 . S
Mg56 O65 2.114 . S
Mg56 O66 2.251 1_455 S
Mg56 O69 2.010 . S
O57 Mg56 2.028 . S
O57 C60 1.250 . S
O58 Mg59 2.001 1_455 S
O58 C60 1.284 . S
Mg59 O58 2.001 1_655 S
Mg59 O64 2.032 1_655 S
Mg59 O66 2.079 . S
C60 O57 1.250 . S
C60 O58 1.284 . S
C61 O62 1.264 . S
C61 O69 1.249 . S
O62 C61 1.264 . S
O63 Mg56 1.986 . S
O63 C67 1.246 . S
O64 Mg59 2.032 1_455 S
O64 C67 1.259 . S
O65 Mg56 2.114 . S
O65 C68 1.252 1_455 S
O66 Mg56 2.251 1_655 S
O66 Mg59 2.079 . S
O66 C68 1.273 . S
C67 O63 1.246 . S
C67 O64 1.259 . S
C68 O65 1.252 1_655 S
C68 O66 1.273 . S
O69 Mg56 2.010 . S
O69 C61 1.249 . S
Mg70 O71 2.028 . S
Mg70 O77 1.986 . S
Mg70 O79 2.114 . S
Mg70 O80 2.251 . S
Mg70 O83 2.010 . S
O71 Mg70 2.028 . S
O71 C74 1.250 . S
O72 Mg73 2.028 . S
O72 C74 1.248 . S
Mg73 O72 2.028 . S
Mg73 O78 2.032 . S
Mg73 O80 2.079 . S
C74 O71 1.250 . S
C74 O72 1.248 . S
C75 O76 1.264 . S
C75 O83 1.249 . S
O76 C75 1.264 . S
O77 Mg70 1.986 . S
O77 C81 1.246 . S
O78 Mg73 2.032 . S
O78 C81 1.259 . S
O79 Mg70 2.114 . S
O79 C82 1.252 . S
O80 Mg70 2.251 . S
O80 Mg73 2.079 . S
O80 C82 1.273 . S
C81 O77 1.246 . S
C81 O78 1.259 . S
C82 O79 1.252 . S
C82 O80 1.273 . S
O83 Mg70 2.010 . S
O83 C75 1.249 . S
Mg84 O85 2.028 . S
Mg84 O91 1.986 . S
Mg84 O93 2.114 . S
Mg84 O94 2.251 . S
Mg84 O97 2.010 . S
O85 Mg84 2.028 . S
O85 C88 1.250 . S
O86 Mg87 2.028 . S
O86 C88 1.248 . S
Mg87 O86 2.028 . S
Mg87 O92 2.032 . S
Mg87 O94 2.079 . S
C88 O85 1.250 . S
C88 O86 1.248 . S
C89 O90 1.264 . S
C89 O97 1.249 . S
O90 C89 1.264 . S
O91 Mg84 1.986 . S
O91 C95 1.246 . S
O92 Mg87 2.032 . S
O92 C95 1.259 . S
O93 Mg84 2.114 . S
O93 C96 1.252 . S
O94 Mg84 2.251 . S
O94 Mg87 2.079 . S
O94 C96 1.273 . S
C95 O91 1.246 . S
C95 O92 1.259 . S
C96 O93 1.252 . S
C96 O94 1.273 . S
O97 Mg84 2.010 . S
O97 C89 1.249 . S
Mg98 O99 2.028 . S
Mg98 O105 1.986 . S
Mg98 O107 2.114 1_455 S
Mg98 O108 2.251 1_455 S
Mg98 O111 2.010 . S
O99 Mg98 2.028 . S
O99 C102 1.250 . S
O100 Mg101 2.028 . S
O100 C102 1.248 1_655 S
Mg101 O100 2.028 . S
Mg101 O106 2.032 . S
Mg101 O108 2.079 . S
C102 O99 1.250 . S
C102 O100 1.248 1_455 S
C103 O104 1.264 . S
C103 O111 1.249 . S
O104 C103 1.264 . S
O105 Mg98 1.986 . S
O105 C109 1.246 1_455 S
O106 Mg101 2.032 . S
O106 C109 1.259 . S
O107 Mg98 2.114 1_655 S
O107 C110 1.252 . S
O108 Mg98 2.251 1_655 S
O108 Mg101 2.079 . S
O108 C110 1.273 . S
C109 O105 1.246 1_655 S
C109 O106 1.259 . S
C110 O107 1.252 . S
C110 O108 1.273 . S
O111 Mg98 2.010 . S
O111 C103 1.249 . S
Mg112 O113 2.028 . S
Mg112 O119 1.986 . S
Mg112 O121 2.114 . S
Mg112 O122 2.251 . S
Mg112 O125 2.010 . S
O113 Mg112 2.028 . S
O113 C116 1.250 1_545 S
O114 Mg115 2.028 . S
O114 C116 1.248 1_545 S
Mg115 O114 2.028 . S
Mg115 O120 2.032 . S
Mg115 O122 2.079 . S
C116 O113 1.250 1_565 S
C116 O114 1.248 1_565 S
C117 O118 1.264 . S
C117 O125 1.249 . S
O118 C117 1.264 . S
O119 Mg112 1.986 . S
O119 C123 1.246 . S
O120 Mg115 2.032 . S
O120 C123 1.259 . S
O121 Mg112 2.114 . S
O121 C124 1.252 . S
O122 Mg112 2.251 . S
O122 Mg115 2.079 . S
O122 C124 1.273 . S
C123 O119 1.246 . S
C123 O120 1.259 . S
C124 O121 1.252 . S
C124 O122 1.273 . S
O125 Mg112 2.010 . S
O125 C117 1.249 . S
Mg126 O127 2.028 . S
Mg126 O133 1.986 . S
Mg126 O135 2.114 . S
Mg126 O136 2.251 . S
Mg126 O139 2.010 . S
O127 Mg126 2.028 . S
O127 C130 1.250 . S
O128 Mg129 2.028 . S
O128 C130 1.248 . S
Mg129 O128 2.028 . S
Mg129 O134 2.032 . S
Mg129 O136 2.079 . S
C130 O127 1.250 . S
C130 O128 1.248 . S
C131 O132 1.264 . S
C131 O139 1.249 . S
O132 C131 1.264 . S
O133 Mg126 1.986 . S
O133 C137 1.246 . S
O134 Mg129 2.032 . S
O134 C137 1.259 . S
O135 Mg126 2.114 . S
O135 C138 1.252 . S
O136 Mg126 2.251 . S
O136 Mg129 2.079 . S
O136 C138 1.273 . S
C137 O133 1.246 . S
C137 O134 1.259 . S
C138 O135 1.252 . S
C138 O136 1.273 . S
O139 Mg126 2.010 . S
O139 C131 1.249 . S
Mg140 O141 2.028 1_565 S
Mg140 O147 1.986 . S
Mg140 O149 2.114 1_565 S
Mg140 O150 2.251 . S
Mg140 O153 2.010 . S
O141 Mg140 2.028 1_545 S
O141 C144 1.250 . S
O142 Mg143 2.028 . S
O142 C144 1.248 . S
Mg143 O142 2.028 . S
Mg143 O148 2.032 1_545 S
Mg143 O150 2.079 1_545 S
C144 O141 1.250 . S
C144 O142 1.248 . S
C145 O146 1.264 . S
C145 O153 1.249 . S
O146 C145 1.264 . S
O147 Mg140 1.986 . S
O147 C151 1.246 . S
O148 Mg143 2.032 1_565 S
O148 C151 1.259 . S
O149 Mg140 2.114 1_545 S
O149 C152 1.252 . S
O150 Mg140 2.251 . S
O150 Mg143 2.079 1_565 S
O150 C152 1.273 1_565 S
C151 O147 1.246 . S
C151 O148 1.259 . S
C152 O149 1.252 . S
C152 O150 1.273 1_545 S
O153 Mg140 2.010 . S
O153 C145 1.249 . S
Mg154 O155 2.028 . S
Mg154 O161 1.986 . S
Mg154 O163 2.114 . S
Mg154 O164 2.251 . S
Mg154 O167 2.010 . S
O155 Mg154 2.028 . S
O155 C158 1.250 . S
O156 Mg157 2.028 . S
O156 C158 1.248 . S
Mg157 O156 2.028 . S
Mg157 O162 2.032 . S
Mg157 O164 2.079 . S
C158 O155 1.250 . S
C158 O156 1.248 . S
C159 O160 1.264 . S
C159 O167 1.249 . S
O160 C159 1.264 . S
O161 Mg154 1.986 . S
O161 C165 1.246 . S
O162 Mg157 2.032 . S
O162 C165 1.259 . S
O163 Mg154 2.114 . S
O163 C166 1.252 . S
O164 Mg154 2.251 . S
O164 Mg157 2.079 . S
O164 C166 1.273 . S
C165 O161 1.246 . S
C165 O162 1.259 . S
C166 O163 1.252 . S
C166 O164 1.273 . S
O167 Mg154 2.010 . S
O167 C159 1.249 . S
Mg168 O169 2.028 1_554 S
Mg168 O175 1.986 . S
Mg168 O177 2.114 . S
Mg168 O178 2.251 . S
Mg168 O181 2.010 . S
O169 Mg168 2.028 1_556 S
O169 C172 1.250 . S
O170 Mg171 2.028 1_556 S
O170 C172 1.248 . S
Mg171 O170 2.028 1_554 S
Mg171 O176 2.032 . S
Mg171 O178 2.079 . S
C172 O169 1.250 . S
C172 O170 1.248 . S
C173 O174 1.264 . S
C173 O181 1.249 . S
O174 C173 1.264 . S
O175 Mg168 1.986 . S
O175 C179 1.246 . S
O176 Mg171 2.032 . S
O176 C179 1.259 . S
O177 Mg168 2.114 . S
O177 C180 1.252 . S
O178 Mg168 2.251 . S
O178 Mg171 2.079 . S
O178 C180 1.273 . S
C179 O175 1.246 . S
C179 O176 1.259 . S
C180 O177 1.252 . S
C180 O178 1.273 . S
O181 Mg168 2.010 . S
O181 C173 1.249 . S
Mg182 O183 2.028 1_556 S
Mg182 O189 1.986 . S
Mg182 O191 2.114 1_556 S
Mg182 O192 2.251 . S
Mg182 O195 2.010 . S
O183 Mg182 2.028 1_554 S
O183 C186 1.250 . S
O184 Mg185 2.028 . S
O184 C186 1.248 . S
Mg185 O184 2.028 . S
Mg185 O190 2.032 1_554 S
Mg185 O192 2.079 1_554 S
C186 O183 1.250 . S
C186 O184 1.248 . S
C187 O188 1.264 . S
C187 O195 1.249 . S
O188 C187 1.264 . S
O189 Mg182 1.986 . S
O189 C193 1.246 . S
O190 Mg185 2.032 1_556 S
O190 C193 1.259 . S
O191 Mg182 2.114 1_554 S
O191 C194 1.269 . S
O192 Mg182 2.251 . S
O192 Mg185 2.079 1_556 S
O192 C194 1.251 1_556 S
C193 O189 1.246 . S
C193 O190 1.259 . S
C194 O191 1.269 . S
C194 O192 1.251 1_554 S
O195 Mg182 2.010 . S
O195 C187 1.249 . S
Mg196 O197 2.028 . S
Mg196 O203 1.986 . S
Mg196 O205 2.114 . S
Mg196 O206 2.251 . S
Mg196 O209 2.010 . S
O197 Mg196 2.028 . S
O197 C200 1.250 . S
O198 Mg199 2.028 . S
O198 C200 1.248 . S
Mg199 O198 2.028 . S
Mg199 O204 2.032 . S
Mg199 O206 2.079 . S
C200 O197 1.250 . S
C200 O198 1.248 . S
C201 O202 1.264 . S
C201 O209 1.249 . S
O202 C201 1.264 . S
O203 Mg196 1.986 . S
O203 C207 1.246 . S
O204 Mg199 2.032 . S
O204 C207 1.259 . S
O205 Mg196 2.114 . S
O205 C208 1.252 . S
O206 Mg196 2.251 . S
O206 Mg199 2.079 . S
O206 C208 1.273 . S
C207 O203 1.246 . S
C207 O204 1.259 . S
C208 O205 1.252 . S
C208 O206 1.273 . S
O209 Mg196 2.010 . S
O209 C201 1.249 . S
Mg210 O211 2.028 . S
Mg210 O217 1.986 . S
Mg210 O219 2.114 . S
Mg210 O220 2.251 . S
Mg210 O223 2.010 . S
O211 Mg210 2.028 . S
O211 C214 1.250 . S
O212 Mg213 2.028 . S
O212 C214 1.248 . S
Mg213 O212 2.028 . S
Mg213 O218 2.032 . S
Mg213 O220 2.079 . S
C214 O211 1.250 . S
C214 O212 1.248 . S
C215 O216 1.264 . S
C215 O223 1.249 . S
O216 C215 1.264 . S
O217 Mg210 1.986 . S
O217 C221 1.246 . S
O218 Mg213 2.032 . S
O218 C221 1.259 . S
O219 Mg210 2.114 . S
O219 C222 1.252 . S
O220 Mg210 2.251 . S
O220 Mg213 2.079 . S
O220 C222 1.273 . S
C221 O217 1.246 . S
C221 O218 1.259 . S
C222 O219 1.252 . S
C222 O220 1.273 . S
O223 Mg210 2.010 . S
O223 C215 1.249 . S
Mg224 O225 2.028 . S
Mg224 O231 1.986 . S
Mg224 O233 2.114 . S
Mg224 O234 2.251 . S
Mg224 O237 2.010 . S
O225 Mg224 2.028 . S
O225 C228 1.250 . S
O226 Mg227 2.028 . S
O226 C228 1.248 . S
Mg227 O226 2.028 . S
Mg227 O232 2.032 . S
Mg227 O234 2.079 . S
C228 O225 1.250 . S
C228 O226 1.248 . S
C229 O230 1.264 . S
C229 O237 1.249 . S
O230 C229 1.264 . S
O231 Mg224 1.986 . S
O231 C235 1.246 . S
O232 Mg227 2.032 . S
O232 C235 1.259 . S
O233 Mg224 2.114 . S
O233 C236 1.252 . S
O234 Mg224 2.251 . S
O234 Mg227 2.079 . S
O234 C236 1.273 . S
C235 O231 1.246 . S
C235 O232 1.259 . S
C236 O233 1.252 . S
C236 O234 1.273 . S
O237 Mg224 2.010 . S
O237 C229 1.249 . S
Mg238 O239 2.028 . S
Mg238 O245 1.986 . S
Mg238 O247 2.114 . S
Mg238 O248 2.251 . S
Mg238 O251 2.010 . S
O239 Mg238 2.028 . S
O239 C242 1.250 . S
O240 Mg241 2.028 . S
O240 C242 1.248 . S
Mg241 O240 2.028 . S
Mg241 O246 2.032 . S
Mg241 O248 2.079 . S
C242 O239 1.250 . S
C242 O240 1.248 . S
C243 O244 1.264 . S
C243 O251 1.249 . S
O244 C243 1.264 . S
O245 Mg238 1.986 . S
O245 C249 1.246 . S
O246 Mg241 2.032 . S
O246 C249 1.259 . S
O247 Mg238 2.114 . S
O247 C250 1.252 . S
O248 Mg238 2.251 . S
O248 Mg241 2.079 . S
O248 C250 1.273 . S
C249 O245 1.246 . S
C249 O246 1.259 . S
C250 O247 1.252 . S
C250 O248 1.273 . S
O251 Mg238 2.010 . S
O251 C243 1.249 . S
Mg252 O253 2.028 . S
Mg252 O259 1.986 . S
Mg252 O261 2.114 . S
Mg252 O262 2.251 . S
Mg252 O265 2.010 . S
O253 Mg252 2.028 . S
O253 C256 1.250 . S
O254 Mg255 2.028 . S
O254 C256 1.248 . S
Mg255 O254 2.028 . S
Mg255 O260 2.032 . S
Mg255 O262 2.079 . S
C256 O253 1.250 . S
C256 O254 1.248 . S
C257 O258 1.264 . S
C257 O265 1.249 . S
O258 C257 1.264 . S
O259 Mg252 1.986 . S
O259 C263 1.246 . S
O260 Mg255 2.032 . S
O260 C263 1.259 . S
O261 Mg252 2.114 . S
O261 C264 1.252 . S
O262 Mg252 2.251 . S
O262 Mg255 2.079 . S
O262 C264 1.273 . S
C263 O259 1.246 . S
C263 O260 1.259 . S
C264 O261 1.252 . S
C264 O262 1.273 . S
O265 Mg252 2.010 . S
O265 C257 1.249 . S
Mg266 O267 2.028 . S
Mg266 O273 1.987 1_545 S
Mg266 O275 2.114 . S
Mg266 O276 2.251 . S
Mg266 O279 2.010 . S
O267 Mg266 2.028 . S
O267 C270 1.250 . S
O268 Mg269 2.028 . S
O268 C270 1.248 . S
Mg269 O268 2.028 . S
Mg269 O274 2.032 . S
Mg269 O276 2.079 . S
C270 O267 1.250 . S
C270 O268 1.248 . S
C271 O272 1.273 . S
C271 O279 1.249 . S
O272 C271 1.273 . S
O273 Mg266 1.987 1_565 S
O273 C277 1.245 . S
O274 Mg269 2.032 . S
O274 C277 1.259 1_545 S
O275 Mg266 2.114 . S
O275 C278 1.252 . S
O276 Mg266 2.251 . S
O276 Mg269 2.079 . S
O276 C278 1.273 . S
C277 O273 1.245 . S
C277 O274 1.259 1_565 S
C278 O275 1.252 . S
C278 O276 1.273 . S
O279 Mg266 2.010 . S
O279 C271 1.249 . S
Mg280 O281 2.028 . S
Mg280 O287 1.986 1_554 S
Mg280 O289 2.114 . S
Mg280 O290 2.251 . S
Mg280 O293 2.010 . S
O281 Mg280 2.028 . S
O281 C284 1.250 . S
O282 Mg283 2.028 . S
O282 C284 1.248 . S
Mg283 O282 2.028 . S
Mg283 O288 2.032 1_554 S
Mg283 O290 2.079 . S
C284 O281 1.250 . S
C284 O282 1.248 . S
C285 O286 1.264 1_554 S
C285 O293 1.249 . S
O286 C285 1.264 1_556 S
O287 Mg280 1.986 1_556 S
O287 C291 1.246 . S
O288 Mg283 2.032 1_556 S
O288 C291 1.259 . S
O289 Mg280 2.114 . S
O289 C292 1.252 . S
O290 Mg280 2.251 . S
O290 Mg283 2.079 . S
O290 C292 1.273 . S
C291 O287 1.246 . S
C291 O288 1.259 . S
C292 O289 1.252 . S
C292 O290 1.273 . S
O293 Mg280 2.010 . S
O293 C285 1.249 . S
Mg294 O295 2.028 . S
Mg294 O301 1.986 . S
Mg294 O303 2.114 . S
Mg294 O304 2.251 . S
Mg294 O307 2.010 . S
O295 Mg294 2.028 . S
O295 C298 1.250 . S
O296 Mg297 2.028 . S
O296 C298 1.248 . S
Mg297 O296 2.028 . S
Mg297 O302 2.032 . S
Mg297 O304 2.079 . S
C298 O295 1.250 . S
C298 O296 1.248 . S
C299 O300 1.264 . S
C299 O307 1.249 . S
O300 C299 1.264 . S
O301 Mg294 1.986 . S
O301 C305 1.246 . S
O302 Mg297 2.032 . S
O302 C305 1.259 . S
O303 Mg294 2.114 . S
O303 C306 1.252 . S
O304 Mg294 2.251 . S
O304 Mg297 2.079 . S
O304 C306 1.273 . S
C305 O301 1.246 . S
C305 O302 1.259 . S
C306 O303 1.252 . S
C306 O304 1.273 . S
O307 Mg294 2.010 . S
O307 C299 1.249 . S
Mg308 O309 2.028 . S
Mg308 O315 1.986 . S
Mg308 O317 2.114 . S
Mg308 O318 2.251 . S
Mg308 O321 2.010 . S
O309 Mg308 2.028 . S
O309 C312 1.250 . S
O310 Mg311 2.028 . S
O310 C312 1.248 . S
Mg311 O310 2.028 . S
Mg311 O316 2.032 . S
Mg311 O318 2.079 . S
C312 O309 1.250 . S
C312 O310 1.248 . S
C313 O314 1.264 . S
C313 O321 1.249 . S
O314 C313 1.264 . S
O315 Mg308 1.986 . S
O315 C319 1.246 . S
O316 Mg311 2.032 . S
O316 C319 1.259 . S
O317 Mg308 2.114 . S
O317 C320 1.252 . S
O318 Mg308 2.251 . S
O318 Mg311 2.079 . S
O318 C320 1.273 . S
C319 O315 1.246 . S
C319 O316 1.259 . S
C320 O317 1.252 . S
C320 O318 1.273 . S
O321 Mg308 2.010 . S
O321 C313 1.249 . S
Mg322 O323 2.028 . S
Mg322 O329 1.986 . S
Mg322 O331 2.114 . S
Mg322 O332 2.251 . S
Mg322 O335 2.010 . S
O323 Mg322 2.028 . S
O323 C326 1.250 . S
O324 Mg325 2.028 . S
O324 C326 1.248 . S
Mg325 O324 2.028 . S
Mg325 O330 2.032 . S
Mg325 O332 2.079 . S
C326 O323 1.250 . S
C326 O324 1.248 . S
C327 O328 1.264 . S
C327 O335 1.249 . S
O328 C327 1.264 . S
O329 Mg322 1.986 . S
O329 C333 1.246 . S
O330 Mg325 2.032 . S
O330 C333 1.259 . S
O331 Mg322 2.114 . S
O331 C334 1.252 . S
O332 Mg322 2.251 . S
O332 Mg325 2.079 . S
O332 C334 1.273 . S
C333 O329 1.246 . S
C333 O330 1.259 . S
C334 O331 1.252 . S
C334 O332 1.273 . S
O335 Mg322 2.010 . S
O335 C327 1.249 . S
Dy336 O340 2.369 1_554 S
Dy336 O341 2.502 . S
Dy336 O342 2.359 1_554 S
Dy336 O343 2.653 1_654 S
Dy336 O347 2.310 1_554 S
Dy336 O351 2.345 1_655 S
Dy336 O352 2.371 1_545 S
C337 O348 1.185 . S
C337 O349 1.355 . S
C338 O340 1.185 . S
C338 O341 1.355 1_556 S
Dy339 O343 2.310 1_554 S
Dy339 O346 2.351 . S
Dy339 O348 2.398 . S
Dy339 O349 2.491 . S
Dy339 O350 2.403 . S
Dy339 O351 2.672 . S
Dy339 O353 2.322 1_545 S
O340 Dy336 2.369 1_556 S
O340 C338 1.185 . S
O341 Dy336 2.502 . S
O341 C338 1.355 1_554 S
O342 Dy336 2.359 1_556 S
O342 C344 1.254 1_655 S
O343 Dy336 2.653 1_456 S
O343 Dy339 2.310 1_556 S
O343 C344 1.268 . S
C344 O342 1.254 1_455 S
C344 O343 1.268 . S
C345 O350 1.254 . S
C345 O351 1.270 . S
O346 Dy339 2.351 . S
O346 C354 1.249 . S
O347 Dy336 2.310 1_556 S
O347 C354 1.267 1_656 S
O348 C337 1.185 . S
O348 Dy339 2.398 . S
O349 C337 1.355 . S
O349 Dy339 2.491 . S
O350 Dy339 2.403 . S
O350 C345 1.254 . S
O351 Dy336 2.345 1_455 S
O351 Dy339 2.672 . S
O351 C345 1.270 . S
O352 Dy336 2.371 1_565 S
O352 C355 1.249 1_655 S
O353 Dy339 2.322 1_565 S
O353 C355 1.270 . S
C354 O346 1.249 . S
C354 O347 1.267 1_454 S
C355 O352 1.249 1_455 S
C355 O353 1.270 . S
Dy356 O360 2.398 . S
Dy356 O361 2.491 . S
Dy356 O362 2.403 . S
Dy356 O363 2.664 . S
Dy356 O367 2.326 . S
Dy356 O371 2.310 . S
Dy356 O372 2.351 . S
C357 O368 1.185 . S
C357 O369 1.355 . S
C358 O360 1.185 . S
C358 O361 1.355 . S
Dy359 O363 2.310 . S
Dy359 O366 2.351 . S
Dy359 O368 2.398 . S
Dy359 O369 2.491 . S
Dy359 O370 2.403 . S
Dy359 O371 2.664 . S
Dy359 O373 2.326 . S
O360 Dy356 2.398 . S
O360 C358 1.185 . S
O361 Dy356 2.491 . S
O361 C358 1.355 . S
O362 Dy356 2.403 . S
O362 C364 1.254 . S
O363 Dy356 2.664 . S
O363 Dy359 2.310 . S
O363 C364 1.268 . S
C364 O362 1.254 . S
C364 O363 1.268 . S
C365 O370 1.254 . S
C365 O371 1.268 . S
O366 Dy359 2.351 . S
O366 C374 1.249 . S
O367 Dy356 2.326 . S
O367 C374 1.267 . S
O368 C357 1.185 . S
O368 Dy359 2.398 . S
O369 C357 1.355 . S
O369 Dy359 2.491 . S
O370 Dy359 2.403 . S
O370 C365 1.254 . S
O371 Dy356 2.310 . S
O371 Dy359 2.664 . S
O371 C365 1.268 . S
O372 Dy356 2.351 . S
O372 C375 1.249 . S
O373 Dy359 2.326 . S
O373 C375 1.267 . S
C374 O366 1.249 . S
C374 O367 1.267 . S
C375 O372 1.249 . S
C375 O373 1.267 . S
Dy376 O380 2.398 . S
Dy376 O381 2.491 . S
Dy376 O382 2.403 . S
Dy376 O383 2.664 . S
Dy376 O387 2.326 1_545 S
Dy376 O391 2.310 . S
Dy376 O392 2.351 . S
C377 O388 1.185 . S
C377 O389 1.355 . S
C378 O380 1.185 . S
C378 O381 1.355 . S
Dy379 O383 2.310 . S
Dy379 O386 2.351 1_545 S
Dy379 O388 2.398 . S
Dy379 O389 2.491 . S
Dy379 O390 2.403 . S
Dy379 O391 2.664 . S
Dy379 O393 2.326 . S
O380 Dy376 2.398 . S
O380 C378 1.185 . S
O381 Dy376 2.491 . S
O381 C378 1.355 . S
O382 Dy376 2.403 . S
O382 C384 1.254 . S
O383 Dy376 2.664 . S
O383 Dy379 2.310 . S
O383 C384 1.268 . S
C384 O382 1.254 . S
C384 O383 1.268 . S
C385 O390 1.254 . S
C385 O391 1.268 . S
O386 Dy379 2.351 1_565 S
O386 C394 1.249 . S
O387 Dy376 2.326 1_565 S
O387 C394 1.267 . S
O388 C377 1.185 . S
O388 Dy379 2.398 . S
O389 C377 1.355 . S
O389 Dy379 2.491 . S
O390 Dy379 2.403 . S
O390 C385 1.254 . S
O391 Dy376 2.310 . S
O391 Dy379 2.664 . S
O391 C385 1.268 . S
O392 Dy376 2.351 . S
O392 C395 1.249 . S
O393 Dy379 2.326 . S
O393 C395 1.267 . S
C394 O386 1.249 . S
C394 O387 1.267 . S
C395 O392 1.249 . S
C395 O393 1.267 . S
Dy396 O400 2.398 . S
Dy396 O401 2.491 . S
Dy396 O402 2.403 . S
Dy396 O403 2.664 . S
Dy396 O407 2.326 . S
Dy396 O411 2.310 . S
Dy396 O412 2.351 . S
C397 O408 1.185 . S
C397 O409 1.355 . S
C398 O400 1.185 . S
C398 O401 1.355 . S
Dy399 O403 2.310 . S
Dy399 O406 2.351 . S
Dy399 O408 2.398 . S
Dy399 O409 2.491 . S
Dy399 O410 2.403 . S
Dy399 O411 2.664 . S
Dy399 O413 2.326 . S
O400 Dy396 2.398 . S
O400 C398 1.185 . S
O401 Dy396 2.491 . S
O401 C398 1.355 . S
O402 Dy396 2.403 . S
O402 C404 1.254 . S
O403 Dy396 2.664 . S
O403 Dy399 2.310 . S
O403 C404 1.268 . S
C404 O402 1.254 . S
C404 O403 1.268 . S
C405 O410 1.254 . S
C405 O411 1.268 . S
O406 Dy399 2.351 . S
O406 C414 1.249 . S
O407 Dy396 2.326 . S
O407 C414 1.267 . S
O408 C397 1.185 . S
O408 Dy399 2.398 . S
O409 C397 1.355 . S
O409 Dy399 2.491 . S
O410 Dy399 2.403 . S
O410 C405 1.254 . S
O411 Dy396 2.310 . S
O411 Dy399 2.664 . S
O411 C405 1.268 . S
O412 Dy396 2.351 . S
O412 C415 1.249 . S
O413 Dy399 2.326 . S
O413 C415 1.267 . S
C414 O406 1.249 . S
C414 O407 1.267 . S
C415 O412 1.249 . S
C415 O413 1.267 . S
Dy416 O420 2.398 . S
Dy416 O421 2.491 1_455 S
Dy416 O422 2.403 . S
Dy416 O423 2.664 . S
Dy416 O427 2.326 . S
Dy416 O431 2.310 1_455 S
Dy416 O432 2.351 1_545 S
C417 O428 1.185 . S
C417 O429 1.355 . S
C418 O420 1.185 1_655 S
C418 O421 1.355 . S
Dy419 O423 2.310 . S
Dy419 O426 2.351 . S
Dy419 O428 2.398 . S
Dy419 O429 2.491 . S
Dy419 O430 2.403 1_455 S
Dy419 O431 2.664 1_455 S
Dy419 O433 2.326 . S
O420 Dy416 2.398 . S
O420 C418 1.185 1_455 S
O421 Dy416 2.491 1_655 S
O421 C418 1.355 . S
O422 Dy416 2.403 . S
O422 C424 1.254 . S
O423 Dy416 2.664 . S
O423 Dy419 2.310 . S
O423 C424 1.268 . S
C424 O422 1.254 . S
C424 O423 1.268 . S
C425 O430 1.254 . S
C425 O431 1.268 . S
O426 Dy419 2.351 . S
O426 C434 1.249 . S
O427 Dy416 2.326 . S
O427 C434 1.267 . S
O428 C417 1.185 . S
O428 Dy419 2.398 . S
O429 C417 1.355 . S
O429 Dy419 2.491 . S
O430 Dy419 2.403 1_655 S
O430 C425 1.254 . S
O431 Dy416 2.310 1_655 S
O431 Dy419 2.664 1_655 S
O431 C425 1.268 . S
O432 Dy416 2.351 1_565 S
O432 C435 1.249 . S
O433 Dy419 2.326 . S
O433 C435 1.267 1_545 S
C434 O426 1.249 . S
C434 O427 1.267 . S
C435 O432 1.249 . S
C435 O433 1.267 1_565 S
Dy436 O440 2.398 . S
Dy436 O441 2.491 . S
Dy436 O442 2.403 . S
Dy436 O443 2.664 . S
Dy436 O447 2.326 . S
Dy436 O451 2.310 . S
Dy436 O452 2.351 . S
C437 O448 1.185 . S
C437 O449 1.355 . S
C438 O440 1.185 . S
C438 O441 1.355 . S
Dy439 O443 2.310 . S
Dy439 O446 2.351 . S
Dy439 O448 2.398 . S
Dy439 O449 2.491 . S
Dy439 O450 2.403 . S
Dy439 O451 2.664 . S
Dy439 O453 2.326 . S
O440 Dy436 2.398 . S
O440 C438 1.185 . S
O441 Dy436 2.491 . S
O441 C438 1.355 . S
O442 Dy436 2.403 . S
O442 C444 1.254 . S
O443 Dy436 2.664 . S
O443 Dy439 2.310 . S
O443 C444 1.268 . S
C444 O442 1.254 . S
C444 O443 1.268 . S
C445 O450 1.254 . S
C445 O451 1.268 . S
O446 Dy439 2.351 . S
O446 C454 1.249 . S
O447 Dy436 2.326 . S
O447 C454 1.267 . S
O448 C437 1.185 . S
O448 Dy439 2.398 . S
O449 C437 1.355 . S
O449 Dy439 2.491 . S
O450 Dy439 2.403 . S
O450 C445 1.254 . S
O451 Dy436 2.310 . S
O451 Dy439 2.664 . S
O451 C445 1.268 . S
O452 Dy436 2.351 . S
O452 C455 1.249 . S
O453 Dy439 2.326 . S
O453 C455 1.267 . S
C454 O446 1.249 . S
C454 O447 1.267 . S
C455 O452 1.249 . S
C455 O453 1.267 . S
Dy456 O460 2.398 1_545 S
Dy456 O461 2.491 . S
Dy456 O462 2.403 1_545 S
Dy456 O463 2.664 . S
Dy456 O467 2.326 . S
Dy456 O471 2.310 . S
Dy456 O472 2.351 . S
C457 O468 1.185 . S
C457 O469 1.355 . S
C458 O460 1.185 1_545 S
C458 O461 1.355 . S
Dy459 O463 2.310 1_556 S
Dy459 O466 2.351 . S
Dy459 O468 2.398 . S
Dy459 O469 2.491 . S
Dy459 O470 2.403 1_556 S
Dy459 O471 2.664 1_556 S
Dy459 O473 2.320 1_556 S
O460 Dy456 2.398 1_565 S
O460 C458 1.185 1_565 S
O461 Dy456 2.491 . S
O461 C458 1.355 . S
O462 Dy456 2.403 1_565 S
O462 C464 1.254 . S
O463 Dy456 2.664 . S
O463 Dy459 2.310 1_554 S
O463 C464 1.268 1_545 S
C464 O462 1.254 . S
C464 O463 1.268 1_565 S
C465 O470 1.254 . S
C465 O471 1.268 . S
O466 Dy459 2.351 . S
O466 C474 1.249 1_556 S
O467 Dy456 2.326 . S
O467 C474 1.267 . S
O468 C457 1.185 . S
O468 Dy459 2.398 . S
O469 C457 1.355 . S
O469 Dy459 2.491 . S
O470 Dy459 2.403 1_554 S
O470 C465 1.254 . S
O471 Dy456 2.310 . S
O471 Dy459 2.664 1_554 S
O471 C465 1.268 . S
O472 Dy456 2.351 . S
O472 C475 1.249 . S
O473 Dy459 2.320 1_554 S
O473 C475 1.280 . S
C474 O466 1.249 1_554 S
C474 O467 1.267 . S
C475 O472 1.249 . S
C475 O473 1.280 . S
Dy476 O480 2.398 . S
Dy476 O481 2.491 . S
Dy476 O482 2.403 . S
Dy476 O483 2.664 . S
Dy476 O487 2.326 . S
Dy476 O491 2.310 . S
Dy476 O492 2.351 . S
C477 O488 1.185 . S
C477 O489 1.355 . S
C478 O480 1.185 . S
C478 O481 1.355 . S
Dy479 O483 2.310 . S
Dy479 O486 2.351 . S
Dy479 O488 2.398 . S
Dy479 O489 2.491 . S
Dy479 O490 2.403 . S
Dy479 O491 2.664 . S
Dy479 O493 2.326 . S
O480 Dy476 2.398 . S
O480 C478 1.185 . S
O481 Dy476 2.491 . S
O481 C478 1.355 . S
O482 Dy476 2.403 . S
O482 C484 1.254 . S
O483 Dy476 2.664 . S
O483 Dy479 2.310 . S
O483 C484 1.268 . S
C484 O482 1.254 . S
C484 O483 1.268 . S
C485 O490 1.254 . S
C485 O491 1.268 . S
O486 Dy479 2.351 . S
O486 C494 1.249 . S
O487 Dy476 2.326 . S
O487 C494 1.267 . S
O488 C477 1.185 . S
O488 Dy479 2.398 . S
O489 C477 1.355 . S
O489 Dy479 2.491 . S
O490 Dy479 2.403 . S
O490 C485 1.254 . S
O491 Dy476 2.310 . S
O491 Dy479 2.664 . S
O491 C485 1.268 . S
O492 Dy476 2.351 . S
O492 C495 1.249 . S
O493 Dy479 2.326 . S
O493 C495 1.267 . S
C494 O486 1.249 . S
C494 O487 1.267 . S
C495 O492 1.249 . S
C495 O493 1.267 . S
Dy496 O500 2.398 . S
Dy496 O501 2.491 . S
Dy496 O502 2.403 . S
Dy496 O503 2.664 1_556 S
Dy496 O507 2.326 . S
Dy496 O511 2.310 1_556 S
Dy496 O512 2.351 1_556 S
C497 O508 1.185 . S
C497 O509 1.355 . S
C498 O500 1.185 . S
C498 O501 1.355 . S
Dy499 O503 2.310 . S
Dy499 O506 2.351 . S
Dy499 O508 2.398 . S
Dy499 O509 2.491 . S
Dy499 O510 2.403 . S
Dy499 O511 2.664 . S
Dy499 O513 2.326 . S
O500 Dy496 2.398 . S
O500 C498 1.185 . S
O501 Dy496 2.491 . S
O501 C498 1.355 . S
O502 Dy496 2.403 . S
O502 C504 1.254 1_556 S
O503 Dy496 2.664 1_554 S
O503 Dy499 2.310 . S
O503 C504 1.268 . S
C504 O502 1.254 1_554 S
C504 O503 1.268 . S
C505 O510 1.254 . S
C505 O511 1.268 . S
O506 Dy499 2.351 . S
O506 C514 1.249 . S
O507 Dy496 2.326 . S
O507 C514 1.267 1_556 S
O508 C497 1.185 . S
O508 Dy499 2.398 . S
O509 C497 1.355 . S
O509 Dy499 2.491 . S
O510 Dy499 2.403 . S
O510 C505 1.254 . S
O511 Dy496 2.310 1_554 S
O511 Dy499 2.664 . S
O511 C505 1.268 . S
O512 Dy496 2.351 1_554 S
O512 C515 1.249 . S
O513 Dy499 2.326 . S
O513 C515 1.267 . S
C514 O506 1.249 . S
C514 O507 1.267 1_554 S
C515 O512 1.249 . S
C515 O513 1.267 . S
Dy516 O520 2.398 . S
Dy516 O521 2.491 . S
Dy516 O522 2.403 . S
Dy516 O523 2.664 . S
Dy516 O527 2.326 . S
Dy516 O531 2.310 . S
Dy516 O532 2.351 . S
C517 O528 1.185 . S
C517 O529 1.355 . S
C518 O520 1.185 . S
C518 O521 1.355 . S
Dy519 O523 2.310 . S
Dy519 O526 2.351 . S
Dy519 O528 2.398 . S
Dy519 O529 2.491 . S
Dy519 O530 2.403 . S
Dy519 O531 2.664 . S
Dy519 O533 2.326 . S
O520 Dy516 2.398 . S
O520 C518 1.185 . S
O521 Dy516 2.491 . S
O521 C518 1.355 . S
O522 Dy516 2.403 . S
O522 C524 1.254 . S
O523 Dy516 2.664 . S
O523 Dy519 2.310 . S
O523 C524 1.268 . S
C524 O522 1.254 . S
C524 O523 1.268 . S
C525 O530 1.254 . S
C525 O531 1.268 . S
O526 Dy519 2.351 . S
O526 C534 1.249 . S
O527 Dy516 2.326 . S
O527 C534 1.267 . S
O528 C517 1.185 . S
O528 Dy519 2.398 . S
O529 C517 1.355 . S
O529 Dy519 2.491 . S
O530 Dy519 2.403 . S
O530 C525 1.254 . S
O531 Dy516 2.310 . S
O531 Dy519 2.664 . S
O531 C525 1.268 . S
O532 Dy516 2.351 . S
O532 C535 1.249 . S
O533 Dy519 2.326 . S
O533 C535 1.267 . S
C534 O526 1.249 . S
C534 O527 1.267 . S
C535 O532 1.249 . S
C535 O533 1.267 . S
Dy536 O540 2.403 . S
Dy536 O541 2.491 1_455 S
Dy536 O542 2.403 . S
Dy536 O543 2.664 . S
Dy536 O547 2.326 1_455 S
Dy536 O551 2.310 . S
Dy536 O552 2.351 . S
C537 O548 1.185 . S
C537 O549 1.355 . S
C538 O540 1.174 1_655 S
C538 O541 1.355 . S
Dy539 O543 2.310 . S
Dy539 O546 2.351 1_455 S
Dy539 O548 2.398 . S
Dy539 O549 2.491 . S
Dy539 O550 2.403 . S
Dy539 O551 2.664 . S
Dy539 O553 2.326 . S
O540 Dy536 2.403 . S
O540 C538 1.174 1_455 S
O541 Dy536 2.491 1_655 S
O541 C538 1.355 . S
O542 Dy536 2.403 . S
O542 C544 1.254 . S
O543 Dy536 2.664 . S
O543 Dy539 2.310 . S
O543 C544 1.268 . S
C544 O542 1.254 . S
C544 O543 1.268 . S
C545 O550 1.254 . S
C545 O551 1.268 . S
O546 Dy539 2.351 1_655 S
O546 C554 1.249 . S
O547 Dy536 2.326 1_655 S
O547 C554 1.267 . S
O548 C537 1.185 . S
O548 Dy539 2.398 . S
O549 C537 1.355 . S
O549 Dy539 2.491 . S
O550 Dy539 2.403 . S
O550 C545 1.254 . S
O551 Dy536 2.310 . S
O551 Dy539 2.664 . S
O551 C545 1.268 . S
O552 Dy536 2.351 . S
O552 C555 1.249 . S
O553 Dy539 2.326 . S
O553 C555 1.267 . S
C554 O546 1.249 . S
C554 O547 1.267 . S
C555 O552 1.249 . S
C555 O553 1.267 . S
Dy556 O560 2.398 . S
Dy556 O561 2.491 . S
Dy556 O562 2.403 . S
Dy556 O563 2.664 . S
Dy556 O567 2.326 . S
Dy556 O571 2.310 . S
Dy556 O572 2.351 . S
C557 O568 1.185 . S
C557 O569 1.355 . S
C558 O560 1.185 . S
C558 O561 1.355 . S
Dy559 O563 2.310 . S
Dy559 O566 2.351 . S
Dy559 O568 2.398 . S
Dy559 O569 2.491 . S
Dy559 O570 2.403 . S
Dy559 O571 2.664 . S
Dy559 O573 2.326 . S
O560 Dy556 2.398 . S
O560 C558 1.185 . S
O561 Dy556 2.491 . S
O561 C558 1.355 . S
O562 Dy556 2.403 . S
O562 C564 1.254 . S
O563 Dy556 2.664 . S
O563 Dy559 2.310 . S
O563 C564 1.268 . S
C564 O562 1.254 . S
C564 O563 1.268 . S
C565 O570 1.254 . S
C565 O571 1.268 . S
O566 Dy559 2.351 . S
O566 C574 1.249 . S
O567 Dy556 2.326 . S
O567 C574 1.267 . S
O568 C557 1.185 . S
O568 Dy559 2.398 . S
O569 C557 1.355 . S
O569 Dy559 2.491 . S
O570 Dy559 2.403 . S
O570 C565 1.254 . S
O571 Dy556 2.310 . S
O571 Dy559 2.664 . S
O571 C565 1.268 . S
O572 Dy556 2.351 . S
O572 C575 1.249 . S
O573 Dy559 2.326 . S
O573 C575 1.267 . S
C574 O566 1.249 . S
C574 O567 1.267 . S
C575 O572 1.249 . S
C575 O573 1.267 . S
Dy576 O580 2.398 . S
Dy576 O581 2.491 . S
Dy576 O582 2.403 . S
Dy576 O583 2.664 . S
Dy576 O587 2.326 . S
Dy576 O591 2.310 . S
Dy576 O592 2.351 . S
C577 O588 1.185 . S
C577 O589 1.355 . S
C578 O580 1.185 . S
C578 O581 1.355 . S
Dy579 O583 2.310 . S
Dy579 O586 2.351 . S
Dy579 O588 2.398 . S
Dy579 O589 2.491 . S
Dy579 O590 2.403 . S
Dy579 O591 2.664 . S
Dy579 O593 2.326 . S
O580 Dy576 2.398 . S
O580 C578 1.185 . S
O581 Dy576 2.491 . S
O581 C578 1.355 . S
O582 Dy576 2.403 . S
O582 C584 1.254 . S
O583 Dy576 2.664 . S
O583 Dy579 2.310 . S
O583 C584 1.268 . S
C584 O582 1.254 . S
C584 O583 1.268 . S
C585 O590 1.254 . S
C585 O591 1.268 . S
O586 Dy579 2.351 . S
O586 C594 1.249 . S
O587 Dy576 2.326 . S
O587 C594 1.267 . S
O588 C577 1.185 . S
O588 Dy579 2.398 . S
O589 C577 1.355 . S
O589 Dy579 2.491 . S
O590 Dy579 2.403 . S
O590 C585 1.254 . S
O591 Dy576 2.310 . S
O591 Dy579 2.664 . S
O591 C585 1.268 . S
O592 Dy576 2.351 . S
O592 C595 1.249 . S
O593 Dy579 2.326 . S
O593 C595 1.267 . S
C594 O586 1.249 . S
C594 O587 1.267 . S
C595 O592 1.249 . S
C595 O593 1.267 . S
Dy596 O600 2.398 . S
Dy596 O601 2.491 . S
Dy596 O602 2.403 . S
Dy596 O603 2.664 . S
Dy596 O607 2.326 . S
Dy596 O611 2.310 . S
Dy596 O612 2.351 . S
C597 O608 1.185 . S
C597 O609 1.355 . S
C598 O600 1.185 . S
C598 O601 1.355 . S
Dy599 O603 2.310 . S
Dy599 O606 2.351 . S
Dy599 O608 2.398 . S
Dy599 O609 2.491 . S
Dy599 O610 2.403 . S
Dy599 O611 2.664 . S
Dy599 O613 2.326 . S
O600 Dy596 2.398 . S
O600 C598 1.185 . S
O601 Dy596 2.491 . S
O601 C598 1.355 . S
O602 Dy596 2.403 . S
O602 C604 1.254 . S
O603 Dy596 2.664 . S
O603 Dy599 2.310 . S
O603 C604 1.268 . S
C604 O602 1.254 . S
C604 O603 1.268 . S
C605 O610 1.254 . S
C605 O611 1.268 . S
O606 Dy599 2.351 . S
O606 C614 1.249 . S
O607 Dy596 2.326 . S
O607 C614 1.267 . S
O608 C597 1.185 . S
O608 Dy599 2.398 . S
O609 C597 1.355 . S
O609 Dy599 2.491 . S
O610 Dy599 2.403 . S
O610 C605 1.254 . S
O611 Dy596 2.310 . S
O611 Dy599 2.664 . S
O611 C605 1.268 . S
O612 Dy596 2.351 . S
O612 C615 1.249 . S
O613 Dy599 2.326 . S
O613 C615 1.267 . S
C614 O606 1.249 . S
C614 O607 1.267 . S
C615 O612 1.249 . S
C615 O613 1.267 . S
Dy616 O620 2.398 . S
Dy616 O621 2.491 . S
Dy616 O622 2.403 . S
Dy616 O623 2.664 . S
Dy616 O627 2.326 . S
Dy616 O631 2.310 . S
Dy616 O632 2.351 . S
C617 O628 1.185 . S
C617 O629 1.355 . S
C618 O620 1.185 . S
C618 O621 1.355 . S
Dy619 O623 2.310 . S
Dy619 O626 2.351 . S
Dy619 O628 2.398 . S
Dy619 O629 2.491 . S
Dy619 O630 2.403 . S
Dy619 O631 2.664 . S
Dy619 O633 2.326 . S
O620 Dy616 2.398 . S
O620 C618 1.185 . S
O621 Dy616 2.491 . S
O621 C618 1.355 . S
O622 Dy616 2.403 . S
O622 C624 1.254 . S
O623 Dy616 2.664 . S
O623 Dy619 2.310 . S
O623 C624 1.268 . S
C624 O622 1.254 . S
C624 O623 1.268 . S
C625 O630 1.254 . S
C625 O631 1.268 . S
O626 Dy619 2.351 . S
O626 C634 1.249 . S
O627 Dy616 2.326 . S
O627 C634 1.267 . S
O628 C617 1.185 . S
O628 Dy619 2.398 . S
O629 C617 1.355 . S
O629 Dy619 2.491 . S
O630 Dy619 2.403 . S
O630 C625 1.254 . S
O631 Dy616 2.310 . S
O631 Dy619 2.664 . S
O631 C625 1.268 . S
O632 Dy616 2.351 . S
O632 C635 1.249 . S
O633 Dy619 2.326 . S
O633 C635 1.267 . S
C634 O626 1.249 . S
C634 O627 1.267 . S
C635 O632 1.249 . S
C635 O633 1.267 . S
Dy636 O640 2.398 1_554 S
Dy636 O641 2.491 . S
Dy636 O642 2.403 1_554 S
Dy636 O643 2.698 1_554 S
Dy636 O647 2.326 1_554 S
Dy636 O651 2.310 . S
Dy636 O652 2.351 . S
C637 O648 1.185 . S
C637 O649 1.355 . S
C638 O640 1.185 . S
C638 O641 1.355 1_556 S
Dy639 O643 2.291 1_654 S
Dy639 O646 2.351 . S
Dy639 O648 2.398 . S
Dy639 O649 2.491 . S
Dy639 O650 2.403 . S
Dy639 O651 2.664 1_655 S
Dy639 O653 2.332 . S
O640 Dy636 2.398 1_556 S
O640 C638 1.185 . S
O641 Dy636 2.491 . S
O641 C638 1.355 1_554 S
O642 Dy636 2.403 1_556 S
O642 C644 1.254 . S
O643 Dy636 2.698 1_556 S
O643 Dy639 2.291 1_456 S
O643 C644 1.280 . S
C644 O642 1.254 . S
C644 O643 1.280 . S
C645 O650 1.254 1_455 S
C645 O651 1.268 . S
O646 Dy639 2.351 . S
O646 C654 1.249 1_655 S
O647 Dy636 2.326 1_556 S
O647 C654 1.267 1_556 S
O648 C637 1.185 . S
O648 Dy639 2.398 . S
O649 C637 1.355 . S
O649 Dy639 2.491 . S
O650 Dy639 2.403 . S
O650 C645 1.254 1_655 S
O651 Dy636 2.310 . S
O651 Dy639 2.664 1_455 S
O651 C645 1.268 . S
O652 Dy636 2.351 . S
O652 C655 1.249 . S
O653 Dy639 2.332 . S
O653 C655 1.255 1_655 S
C654 O646 1.249 1_455 S
C654 O647 1.267 1_554 S
C655 O652 1.249 . S
C655 O653 1.255 1_455 S
H656 C664 0.929 . S
H657 C666 0.930 . S
H658 C668 0.930 . S
H659 C671 0.929 . S
H660 C674 0.932 1_655 S
H661 C676 0.960 . S
H662 C676 0.960 . S
H663 C676 0.940 1_655 S
C664 H656 0.929 . S
C664 C665 1.374 . S
C664 C666 1.384 . S
C665 C664 1.374 . S
C665 C671 1.392 1_455 S
C666 H657 0.930 . S
C666 C664 1.384 . S
C666 C667 1.372 . S
C667 C666 1.372 . S
C667 C668 1.400 1_455 S
C667 C672 1.490 . S
C668 H658 0.930 . S
C668 C667 1.400 1_655 S
C668 C671 1.386 . S
H669 C685 0.930 . S
H670 C686 0.931 . S
C671 H659 0.929 . S
C671 C665 1.392 1_655 S
C671 C668 1.386 . S
C672 C667 1.490 . S
C672 C674 1.395 . S
C672 C675 1.403 . S
H673 C679 0.930 . S
C674 H660 0.932 1_455 S
C674 C672 1.395 . S
C674 C677 1.403 . S
C675 C672 1.403 . S
C675 C676 1.524 . S
C675 C679 1.400 . S
C676 H661 0.960 . S
C676 H662 0.960 . S
C676 H663 0.940 1_455 S
C676 C675 1.524 . S
C677 C674 1.403 . S
C677 C678 1.392 . S
C677 C681 1.492 1_456 S
C678 C677 1.392 . S
C678 C679 1.385 . S
C678 C680 1.478 . S
C679 H673 0.930 . S
C679 C675 1.400 . S
C679 C678 1.385 . S
C680 C678 1.478 . S
C680 C682 1.392 . S
C680 C686 1.383 1_455 S
C681 C677 1.492 1_654 S
C681 H687 0.965 . S
C681 H688 0.973 . S
C681 H689 0.945 1_655 S
C682 C680 1.392 . S
C682 C683 1.386 1_556 S
C682 H690 0.927 1_556 S
C683 C682 1.386 1_554 S
C683 C684 1.393 . S
C683 H691 0.929 . S
C684 C683 1.393 . S
C684 C685 1.343 1_454 S
C685 H669 0.930 . S
C685 C684 1.343 1_656 S
C685 C686 1.379 . S
C686 H670 0.931 . S
C686 C680 1.383 1_655 S
C686 C685 1.379 . S
H687 C681 0.965 . S
H688 C681 0.973 . S
H689 C681 0.945 1_455 S
H690 C682 0.927 1_554 S
H691 C683 0.929 . S
H692 C700 0.929 . S
H693 C702 0.930 . S
H694 C704 0.930 . S
H695 C707 0.929 . S
H696 C710 0.930 . S
H697 C712 0.960 . S
H698 C712 0.960 . S
H699 C712 0.960 . S
C700 H692 0.929 . S
C700 C701 1.377 . S
C700 C702 1.384 . S
C701 C700 1.377 . S
C701 C707 1.390 . S
C702 H693 0.930 . S
C702 C700 1.384 . S
C702 C703 1.372 . S
C703 C702 1.372 . S
C703 C704 1.400 . S
C703 C708 1.490 . S
C704 H694 0.930 . S
C704 C703 1.400 . S
C704 C707 1.386 . S
H705 C721 0.930 . S
H706 C722 0.931 . S
C707 H695 0.929 . S
C707 C701 1.390 . S
C707 C704 1.386 . S
C708 C703 1.490 . S
C708 C710 1.395 . S
C708 C711 1.403 . S
H709 C715 0.930 . S
C710 H696 0.930 . S
C710 C708 1.395 . S
C710 C713 1.403 . S
C711 C708 1.403 . S
C711 C712 1.524 . S
C711 C715 1.400 . S
C712 H697 0.960 . S
C712 H698 0.960 . S
C712 H699 0.960 . S
C712 C711 1.524 . S
C713 C710 1.403 . S
C713 C714 1.392 . S
C713 C717 1.495 . S
C714 C713 1.392 . S
C714 C715 1.385 . S
C714 C716 1.478 . S
C715 H709 0.930 . S
C715 C711 1.400 . S
C715 C714 1.385 . S
C716 C714 1.478 . S
C716 C718 1.381 . S
C716 C722 1.383 . S
C717 C713 1.495 . S
C717 H723 0.959 . S
C717 H724 0.961 . S
C717 H725 0.960 . S
C718 C716 1.381 . S
C718 C719 1.394 . S
C718 H726 0.930 . S
C719 C718 1.394 . S
C719 C720 1.383 . S
C719 H727 0.929 . S
C720 C719 1.383 . S
C720 C721 1.377 . S
C721 H705 0.930 . S
C721 C720 1.377 . S
C721 C722 1.379 . S
C722 H706 0.931 . S
C722 C716 1.383 . S
C722 C721 1.379 . S
H723 C717 0.959 . S
H724 C717 0.961 . S
H725 C717 0.960 . S
H726 C718 0.930 . S
H727 C719 0.929 . S
H728 C736 0.929 . S
H729 C738 0.930 . S
H730 C740 0.930 . S
H731 C743 0.929 . S
H732 C746 0.930 . S
H733 C748 0.960 . S
H734 C748 0.960 . S
H735 C748 0.960 . S
C736 H728 0.929 . S
C736 C737 1.377 . S
C736 C738 1.384 . S
C737 C736 1.377 . S
C737 C743 1.390 . S
C738 H729 0.930 . S
C738 C736 1.384 . S
C738 C739 1.372 . S
C739 C738 1.372 . S
C739 C740 1.400 . S
C739 C744 1.490 . S
C740 H730 0.930 . S
C740 C739 1.400 . S
C740 C743 1.386 . S
H741 C757 0.930 . S
H742 C758 0.931 . S
C743 H731 0.929 . S
C743 C737 1.390 . S
C743 C740 1.386 . S
C744 C739 1.490 . S
C744 C746 1.395 . S
C744 C747 1.403 . S
H745 C751 0.930 . S
C746 H732 0.930 . S
C746 C744 1.395 . S
C746 C749 1.403 . S
C747 C744 1.403 . S
C747 C748 1.524 . S
C747 C751 1.400 . S
C748 H733 0.960 . S
C748 H734 0.960 . S
C748 H735 0.960 . S
C748 C747 1.524 . S
C749 C746 1.403 . S
C749 C750 1.392 . S
C749 C753 1.495 . S
C750 C749 1.392 . S
C750 C751 1.385 . S
C750 C752 1.478 . S
C751 H745 0.930 . S
C751 C747 1.400 . S
C751 C750 1.385 . S
C752 C750 1.478 . S
C752 C754 1.381 . S
C752 C758 1.383 . S
C753 C749 1.495 . S
C753 H759 0.959 . S
C753 H760 0.961 . S
C753 H761 0.960 . S
C754 C752 1.381 . S
C754 C755 1.394 . S
C754 H762 0.930 . S
C755 C754 1.394 . S
C755 C756 1.383 . S
C755 H763 0.929 . S
C756 C755 1.383 . S
C756 C757 1.377 . S
C757 H741 0.930 . S
C757 C756 1.377 . S
C757 C758 1.379 . S
C758 H742 0.931 . S
C758 C752 1.383 . S
C758 C757 1.379 . S
H759 C753 0.959 . S
H760 C753 0.961 . S
H761 C753 0.960 . S
H762 C754 0.930 . S
H763 C755 0.929 . S
H764 C772 0.929 . S
H765 C774 0.930 . S
H766 C776 0.930 . S
H767 C779 0.929 . S
H768 C782 0.930 . S
H769 C784 0.960 . S
H770 C784 0.960 . S
H771 C784 0.960 . S
C772 H764 0.929 . S
C772 C773 1.377 . S
C772 C774 1.384 . S
C773 C772 1.377 . S
C773 C779 1.390 . S
C774 H765 0.930 . S
C774 C772 1.384 . S
C774 C775 1.372 . S
C775 C774 1.372 . S
C775 C776 1.400 . S
C775 C780 1.490 . S
C776 H766 0.930 . S
C776 C775 1.400 . S
C776 C779 1.386 . S
H777 C793 0.930 . S
H778 C794 0.931 . S
C779 H767 0.929 . S
C779 C773 1.390 . S
C779 C776 1.386 . S
C780 C775 1.490 . S
C780 C782 1.395 . S
C780 C783 1.403 . S
H781 C787 0.930 . S
C782 H768 0.930 . S
C782 C780 1.395 . S
C782 C785 1.403 . S
C783 C780 1.403 . S
C783 C784 1.524 . S
C783 C787 1.400 . S
C784 H769 0.960 . S
C784 H770 0.960 . S
C784 H771 0.960 . S
C784 C783 1.524 . S
C785 C782 1.403 . S
C785 C786 1.392 . S
C785 C789 1.495 . S
C786 C785 1.392 . S
C786 C787 1.385 . S
C786 C788 1.478 . S
C787 H781 0.930 . S
C787 C783 1.400 . S
C787 C786 1.385 . S
C788 C786 1.478 . S
C788 C790 1.381 . S
C788 C794 1.383 . S
C789 C785 1.495 . S
C789 H795 0.959 . S
C789 H796 0.961 . S
C789 H797 0.960 . S
C790 C788 1.381 . S
C790 C791 1.394 . S
C790 H798 0.930 . S
C791 C790 1.394 . S
C791 C792 1.383 . S
C791 H799 0.929 . S
C792 C791 1.383 . S
C792 C793 1.377 . S
C793 H777 0.930 . S
C793 C792 1.377 . S
C793 C794 1.379 . S
C794 H778 0.931 . S
C794 C788 1.383 . S
C794 C793 1.379 . S
H795 C789 0.959 . S
H796 C789 0.961 . S
H797 C789 0.960 . S
H798 C790 0.930 . S
H799 C791 0.929 . S
H800 C808 0.929 . S
H801 C810 0.930 . S
H802 C812 0.930 . S
H803 C815 0.929 . S
H804 C818 0.930 . S
H805 C820 0.960 . S
H806 C820 0.960 . S
H807 C820 0.960 . S
C808 H800 0.929 . S
C808 C809 1.377 1_655 S
C808 C810 1.384 . S
C809 C808 1.377 1_455 S
C809 C815 1.390 . S
C810 H801 0.930 . S
C810 C808 1.384 . S
C810 C811 1.372 1_655 S
C811 C810 1.372 1_455 S
C811 C812 1.400 . S
C811 C816 1.490 . S
C812 H802 0.930 . S
C812 C811 1.400 . S
C812 C815 1.386 . S
H813 C829 0.930 . S
H814 C830 0.931 . S
C815 H803 0.929 . S
C815 C809 1.390 . S
C815 C812 1.386 . S
C816 C811 1.490 . S
C816 C818 1.395 1_455 S
C816 C819 1.403 . S
H817 C823 0.930 . S
C818 H804 0.930 . S
C818 C816 1.395 1_655 S
C818 C821 1.403 . S
C819 C816 1.403 . S
C819 C820 1.524 . S
C819 C823 1.400 . S
C820 H805 0.960 . S
C820 H806 0.960 . S
C820 H807 0.960 . S
C820 C819 1.524 . S
C821 C818 1.403 . S
C821 C822 1.392 1_655 S
C821 C825 1.495 . S
C822 C821 1.392 1_455 S
C822 C823 1.385 . S
C822 C824 1.478 . S
C823 H817 0.930 . S
C823 C819 1.400 . S
C823 C822 1.385 . S
C824 C822 1.478 . S
C824 C826 1.399 . S
C824 C830 1.383 . S
C825 C821 1.495 . S
C825 H831 0.959 . S
C825 H832 0.961 . S
C825 H833 0.960 . S
C826 C824 1.399 . S
C826 C827 1.393 . S
C826 H834 0.914 1_455 S
C827 C826 1.393 . S
C827 C828 1.383 . S
C827 H835 0.929 1_455 S
C828 C827 1.383 . S
C828 C829 1.377 . S
C829 H813 0.930 . S
C829 C828 1.377 . S
C829 C830 1.379 . S
C830 H814 0.931 . S
C830 C824 1.383 . S
C830 C829 1.379 . S
H831 C825 0.959 . S
H832 C825 0.961 . S
H833 C825 0.960 . S
H834 C826 0.914 1_655 S
H835 C827 0.929 1_655 S
H836 C844 0.929 . S
H837 C846 0.930 . S
H838 C848 0.930 . S
H839 C851 0.929 . S
H840 C854 0.930 . S
H841 C856 0.960 . S
H842 C856 0.960 . S
H843 C856 0.960 . S
C844 H836 0.929 . S
C844 C845 1.377 . S
C844 C846 1.384 . S
C845 C844 1.377 . S
C845 C851 1.390 . S
C846 H837 0.930 . S
C846 C844 1.384 . S
C846 C847 1.372 . S
C847 C846 1.372 . S
C847 C848 1.400 . S
C847 C852 1.490 . S
C848 H838 0.930 . S
C848 C847 1.400 . S
C848 C851 1.386 . S
H849 C865 0.930 . S
H850 C866 0.931 . S
C851 H839 0.929 . S
C851 C845 1.390 . S
C851 C848 1.386 . S
C852 C847 1.490 . S
C852 C854 1.395 . S
C852 C855 1.403 . S
H853 C859 0.930 . S
C854 H840 0.930 . S
C854 C852 1.395 . S
C854 C857 1.403 . S
C855 C852 1.403 . S
C855 C856 1.524 . S
C855 C859 1.400 . S
C856 H841 0.960 . S
C856 H842 0.960 . S
C856 H843 0.960 . S
C856 C855 1.524 . S
C857 C854 1.403 . S
C857 C858 1.392 . S
C857 C861 1.495 . S
C858 C857 1.392 . S
C858 C859 1.385 . S
C858 C860 1.478 . S
C859 H853 0.930 . S
C859 C855 1.400 . S
C859 C858 1.385 . S
C860 C858 1.478 . S
C860 C862 1.381 . S
C860 C866 1.383 . S
C861 C857 1.495 . S
C861 H867 0.959 . S
C861 H868 0.961 . S
C861 H869 0.960 . S
C862 C860 1.381 . S
C862 C863 1.394 . S
C862 H870 0.930 . S
C863 C862 1.394 . S
C863 C864 1.383 . S
C863 H871 0.929 . S
C864 C863 1.383 . S
C864 C865 1.377 . S
C865 H849 0.930 . S
C865 C864 1.377 . S
C865 C866 1.379 . S
C866 H850 0.931 . S
C866 C860 1.383 . S
C866 C865 1.379 . S
H867 C861 0.959 . S
H868 C861 0.961 . S
H869 C861 0.960 . S
H870 C862 0.930 . S
H871 C863 0.929 . S
H872 C880 0.929 . S
H873 C882 0.930 . S
H874 C884 0.930 . S
H875 C887 0.929 . S
H876 C890 0.930 . S
H877 C892 0.960 . S
H878 C892 0.960 . S
H879 C892 0.960 . S
C880 H872 0.929 . S
C880 C881 1.377 . S
C880 C882 1.384 . S
C881 C880 1.377 . S
C881 C887 1.390 . S
C882 H873 0.930 . S
C882 C880 1.384 . S
C882 C883 1.372 . S
C883 C882 1.372 . S
C883 C884 1.400 . S
C883 C888 1.490 . S
C884 H874 0.930 . S
C884 C883 1.400 . S
C884 C887 1.386 . S
H885 C901 0.930 . S
H886 C902 0.931 . S
C887 H875 0.929 . S
C887 C881 1.390 . S
C887 C884 1.386 . S
C888 C883 1.490 . S
C888 C890 1.395 . S
C888 C891 1.403 . S
H889 C895 0.930 . S
C890 H876 0.930 . S
C890 C888 1.395 . S
C890 C893 1.403 . S
C891 C888 1.403 . S
C891 C892 1.524 . S
C891 C895 1.400 . S
C892 H877 0.960 . S
C892 H878 0.960 . S
C892 H879 0.960 . S
C892 C891 1.524 . S
C893 C890 1.403 . S
C893 C894 1.392 . S
C893 C897 1.495 . S
C894 C893 1.392 . S
C894 C895 1.385 . S
C894 C896 1.478 . S
C895 H889 0.930 . S
C895 C891 1.400 . S
C895 C894 1.385 . S
C896 C894 1.478 . S
C896 C898 1.381 . S
C896 C902 1.383 . S
C897 C893 1.495 . S
C897 H903 0.959 . S
C897 H904 0.961 . S
C897 H905 0.960 . S
C898 C896 1.381 . S
C898 C899 1.394 . S
C898 H906 0.930 . S
C899 C898 1.394 . S
C899 C900 1.383 . S
C899 H907 0.929 . S
C900 C899 1.383 . S
C900 C901 1.377 . S
C901 H885 0.930 . S
C901 C900 1.377 . S
C901 C902 1.379 . S
C902 H886 0.931 . S
C902 C896 1.383 . S
C902 C901 1.379 . S
H903 C897 0.959 . S
H904 C897 0.961 . S
H905 C897 0.960 . S
H906 C898 0.930 . S
H907 C899 0.929 . S
H908 C916 0.929 . S
H909 C918 0.930 . S
H910 C920 0.930 . S
H911 C923 0.929 . S
H912 C926 0.930 . S
H913 C928 0.960 . S
H914 C928 0.960 . S
H915 C928 0.960 . S
C916 H908 0.929 . S
C916 C917 1.377 . S
C916 C918 1.384 . S
C917 C916 1.377 . S
C917 C923 1.390 . S
C918 H909 0.930 . S
C918 C916 1.384 . S
C918 C919 1.372 . S
C919 C918 1.372 . S
C919 C920 1.400 . S
C919 C924 1.490 . S
C920 H910 0.930 . S
C920 C919 1.400 . S
C920 C923 1.386 . S
H921 C937 0.930 . S
H922 C938 0.931 . S
C923 H911 0.929 . S
C923 C917 1.390 . S
C923 C920 1.386 . S
C924 C919 1.490 . S
C924 C926 1.395 . S
C924 C927 1.403 . S
H925 C931 0.930 . S
C926 H912 0.930 . S
C926 C924 1.395 . S
C926 C929 1.403 . S
C927 C924 1.403 . S
C927 C928 1.524 . S
C927 C931 1.400 . S
C928 H913 0.960 . S
C928 H914 0.960 . S
C928 H915 0.960 . S
C928 C927 1.524 . S
C929 C926 1.403 . S
C929 C930 1.392 . S
C929 C933 1.495 . S
C930 C929 1.392 . S
C930 C931 1.385 . S
C930 C932 1.478 . S
C931 H925 0.930 . S
C931 C927 1.400 . S
C931 C930 1.385 . S
C932 C930 1.478 . S
C932 C934 1.381 . S
C932 C938 1.383 . S
C933 C929 1.495 . S
C933 H939 0.959 . S
C933 H940 0.961 . S
C933 H941 0.960 . S
C934 C932 1.381 . S
C934 C935 1.394 . S
C934 H942 0.930 . S
C935 C934 1.394 . S
C935 C936 1.383 . S
C935 H943 0.929 . S
C936 C935 1.383 . S
C936 C937 1.377 . S
C937 H921 0.930 . S
C937 C936 1.377 . S
C937 C938 1.379 . S
C938 H922 0.931 . S
C938 C932 1.383 . S
C938 C937 1.379 . S
H939 C933 0.959 . S
H940 C933 0.961 . S
H941 C933 0.960 . S
H942 C934 0.930 . S
H943 C935 0.929 . S
H944 C952 0.929 . S
H945 C954 0.930 . S
H946 C956 0.930 . S
H947 C959 0.929 . S
H948 C962 0.930 . S
H949 C964 0.960 . S
H950 C964 0.960 . S
H951 C964 0.960 . S
C952 H944 0.929 . S
C952 C953 1.377 . S
C952 C954 1.384 . S
C953 C952 1.377 . S
C953 C959 1.390 . S
C954 H945 0.930 . S
C954 C952 1.384 . S
C954 C955 1.372 . S
C955 C954 1.372 . S
C955 C956 1.400 . S
C955 C960 1.490 . S
C956 H946 0.930 . S
C956 C955 1.400 . S
C956 C959 1.386 . S
H957 C973 0.930 1_455 S
H958 C974 0.931 . S
C959 H947 0.929 . S
C959 C953 1.390 . S
C959 C956 1.386 . S
C960 C955 1.490 . S
C960 C962 1.395 . S
C960 C963 1.403 . S
H961 C967 0.930 . S
C962 H948 0.930 . S
C962 C960 1.395 . S
C962 C965 1.403 . S
C963 C960 1.403 . S
C963 C964 1.524 . S
C963 C967 1.400 . S
C964 H949 0.960 . S
C964 H950 0.960 . S
C964 H951 0.960 . S
C964 C963 1.524 . S
C965 C962 1.403 . S
C965 C966 1.392 . S
C965 C969 1.495 . S
C966 C965 1.392 . S
C966 C967 1.385 . S
C966 C968 1.478 . S
C967 H961 0.930 . S
C967 C963 1.400 . S
C967 C966 1.385 . S
C968 C966 1.478 . S
C968 C970 1.381 . S
C968 C974 1.383 . S
C969 C965 1.495 . S
C969 H975 0.959 . S
C969 H976 0.961 1_655 S
C969 H977 0.960 . S
C970 C968 1.381 . S
C970 C971 1.394 . S
C970 H978 0.930 . S
C971 C970 1.394 . S
C971 C972 1.383 . S
C971 H979 0.929 . S
C972 C971 1.383 . S
C972 C973 1.377 . S
C973 H957 0.930 1_655 S
C973 C972 1.377 . S
C973 C974 1.379 . S
C974 H958 0.931 . S
C974 C968 1.383 . S
C974 C973 1.379 . S
H975 C969 0.959 . S
H976 C969 0.961 1_455 S
H977 C969 0.960 . S
H978 C970 0.930 . S
H979 C971 0.929 . S
H980 C988 0.929 . S
H981 C990 0.930 . S
H982 C992 0.930 . S
H983 C995 0.929 . S
H984 C998 0.930 . S
H985 C1000 0.960 . S
H986 C1000 0.960 . S
H987 C1000 0.960 . S
C988 H980 0.929 . S
C988 C989 1.377 . S
C988 C990 1.384 . S
C989 C988 1.377 . S
C989 C995 1.390 . S
C990 H981 0.930 . S
C990 C988 1.384 . S
C990 C991 1.372 . S
C991 C990 1.372 . S
C991 C992 1.400 . S
C991 C996 1.490 . S
C992 H982 0.930 . S
C992 C991 1.400 . S
C992 C995 1.386 . S
H993 C1009 0.930 . S
H994 C1010 0.931 . S
C995 H983 0.929 . S
C995 C989 1.390 . S
C995 C992 1.386 . S
C996 C991 1.490 . S
C996 C998 1.395 . S
C996 C999 1.403 . S
H997 C1003 0.930 . S
C998 H984 0.930 . S
C998 C996 1.395 . S
C998 C1001 1.403 . S
C999 C996 1.403 . S
C999 C1000 1.524 . S
C999 C1003 1.400 . S
C1000 H985 0.960 . S
C1000 H986 0.960 . S
C1000 H987 0.960 . S
C1000 C999 1.524 . S
C1001 C998 1.403 . S
C1001 C1002 1.392 . S
C1001 C1005 1.495 . S
C1002 C1001 1.392 . S
C1002 C1003 1.385 . S
C1002 C1004 1.478 . S
C1003 H997 0.930 . S
C1003 C999 1.400 . S
C1003 C1002 1.385 . S
C1004 C1002 1.478 . S
C1004 C1006 1.381 . S
C1004 C1010 1.383 . S
C1005 C1001 1.495 . S
C1005 H1011 0.959 . S
C1005 H1012 0.961 . S
C1005 H1013 0.960 . S
C1006 C1004 1.381 . S
C1006 C1007 1.394 . S
C1006 H1014 0.930 . S
C1007 C1006 1.394 . S
C1007 C1008 1.383 . S
C1007 H1015 0.929 . S
C1008 C1007 1.383 . S
C1008 C1009 1.377 . S
C1009 H993 0.930 . S
C1009 C1008 1.377 . S
C1009 C1010 1.379 . S
C1010 H994 0.931 . S
C1010 C1004 1.383 . S
C1010 C1009 1.379 . S
H1011 C1005 0.959 . S
H1012 C1005 0.961 . S
H1013 C1005 0.960 . S
H1014 C1006 0.930 . S
H1015 C1007 0.929 . S
H1016 C1024 0.929 1_565 S
H1017 C1026 0.930 1_565 S
H1018 C1028 0.930 . S
H1019 C1031 0.929 . S
H1020 C1034 0.930 1_565 S
H1021 C1036 0.960 . S
H1022 C1036 0.960 . S
H1023 C1036 0.960 . S
C1024 H1016 0.929 1_545 S
C1024 C1025 1.377 . S
C1024 C1026 1.384 . S
C1025 C1024 1.377 . S
C1025 C1031 1.390 . S
C1026 H1017 0.930 1_545 S
C1026 C1024 1.384 . S
C1026 C1027 1.372 . S
C1027 C1026 1.372 . S
C1027 C1028 1.400 . S
C1027 C1032 1.490 . S
C1028 H1018 0.930 . S
C1028 C1027 1.400 . S
C1028 C1031 1.386 . S
H1029 C1045 0.930 . S
H1030 C1046 0.931 . S
C1031 H1019 0.929 . S
C1031 C1025 1.390 . S
C1031 C1028 1.386 . S
C1032 C1027 1.490 . S
C1032 C1034 1.395 . S
C1032 C1035 1.403 . S
H1033 C1039 0.930 . S
C1034 H1020 0.930 1_545 S
C1034 C1032 1.395 . S
C1034 C1037 1.403 . S
C1035 C1032 1.403 . S
C1035 C1036 1.524 . S
C1035 C1039 1.400 . S
C1036 H1021 0.960 . S
C1036 H1022 0.960 . S
C1036 H1023 0.960 . S
C1036 C1035 1.524 . S
C1037 C1034 1.403 . S
C1037 C1038 1.392 . S
C1037 C1041 1.495 1_545 S
C1038 C1037 1.392 . S
C1038 C1039 1.385 . S
C1038 C1040 1.478 . S
C1039 H1033 0.930 . S
C1039 C1035 1.400 . S
C1039 C1038 1.385 . S
C1040 C1038 1.478 . S
C1040 C1042 1.381 . S
C1040 C1046 1.383 . S
C1041 C1037 1.495 1_565 S
C1041 H1047 0.959 . S
C1041 H1048 0.961 . S
C1041 H1049 0.960 . S
C1042 C1040 1.381 . S
C1042 C1043 1.394 . S
C1042 H1050 0.930 1_545 S
C1043 C1042 1.394 . S
C1043 C1044 1.383 . S
C1043 H1051 0.929 1_545 S
C1044 C1043 1.383 . S
C1044 C1045 1.377 . S
C1045 H1029 0.930 . S
C1045 C1044 1.377 . S
C1045 C1046 1.379 . S
C1046 H1030 0.931 . S
C1046 C1040 1.383 . S
C1046 C1045 1.379 . S
H1047 C1041 0.959 . S
H1048 C1041 0.961 . S
H1049 C1041 0.960 . S
H1050 C1042 0.930 1_565 S
H1051 C1043 0.929 1_565 S
H1052 C1060 0.929 . S
H1053 C1062 0.930 . S
H1054 C1064 0.930 . S
H1055 C1067 0.929 . S
H1056 C1070 0.930 . S
H1057 C1072 0.960 . S
H1058 C1072 0.960 . S
H1059 C1072 0.960 . S
C1060 H1052 0.929 . S
C1060 C1061 1.377 . S
C1060 C1062 1.384 . S
C1061 C1060 1.377 . S
C1061 C1067 1.390 . S
C1062 H1053 0.930 . S
C1062 C1060 1.384 . S
C1062 C1063 1.372 . S
C1063 C1062 1.372 . S
C1063 C1064 1.400 . S
C1063 C1068 1.490 . S
C1064 H1054 0.930 . S
C1064 C1063 1.400 . S
C1064 C1067 1.386 . S
H1065 C1081 0.930 . S
H1066 C1082 0.931 . S
C1067 H1055 0.929 . S
C1067 C1061 1.390 . S
C1067 C1064 1.386 . S
C1068 C1063 1.490 . S
C1068 C1070 1.395 . S
C1068 C1071 1.403 . S
H1069 C1075 0.930 . S
C1070 H1056 0.930 . S
C1070 C1068 1.395 . S
C1070 C1073 1.403 . S
C1071 C1068 1.403 . S
C1071 C1072 1.524 . S
C1071 C1075 1.400 . S
C1072 H1057 0.960 . S
C1072 H1058 0.960 . S
C1072 H1059 0.960 . S
C1072 C1071 1.524 . S
C1073 C1070 1.403 . S
C1073 C1074 1.392 . S
C1073 C1077 1.495 . S
C1074 C1073 1.392 . S
C1074 C1075 1.385 . S
C1074 C1076 1.478 . S
C1075 H1069 0.930 . S
C1075 C1071 1.400 . S
C1075 C1074 1.385 . S
C1076 C1074 1.478 . S
C1076 C1078 1.381 . S
C1076 C1082 1.383 . S
C1077 C1073 1.495 . S
C1077 H1083 0.959 . S
C1077 H1084 0.961 . S
C1077 H1085 0.960 . S
C1078 C1076 1.381 . S
C1078 C1079 1.394 . S
C1078 H1086 0.930 . S
C1079 C1078 1.394 . S
C1079 C1080 1.383 . S
C1079 H1087 0.929 . S
C1080 C1079 1.383 . S
C1080 C1081 1.377 . S
C1081 H1065 0.930 . S
C1081 C1080 1.377 . S
C1081 C1082 1.379 . S
C1082 H1066 0.931 . S
C1082 C1076 1.383 . S
C1082 C1081 1.379 . S
H1083 C1077 0.959 . S
H1084 C1077 0.961 . S
H1085 C1077 0.960 . S
H1086 C1078 0.930 . S
H1087 C1079 0.929 . S
H1088 C1096 0.929 . S
H1089 C1098 0.930 . S
H1090 C1100 0.930 . S
H1091 C1103 0.929 . S
H1092 C1106 0.930 . S
H1093 C1108 0.960 . S
H1094 C1108 0.960 . S
H1095 C1108 0.960 . S
C1096 H1088 0.929 . S
C1096 C1097 1.377 . S
C1096 C1098 1.384 . S
C1097 C1096 1.377 . S
C1097 C1103 1.390 . S
C1098 H1089 0.930 . S
C1098 C1096 1.384 . S
C1098 C1099 1.372 . S
C1099 C1098 1.372 . S
C1099 C1100 1.400 . S
C1099 C1104 1.490 . S
C1100 H1090 0.930 . S
C1100 C1099 1.400 . S
C1100 C1103 1.386 . S
H1101 C1117 0.930 . S
H1102 C1118 0.931 . S
C1103 H1091 0.929 . S
C1103 C1097 1.390 . S
C1103 C1100 1.386 . S
C1104 C1099 1.490 . S
C1104 C1106 1.395 . S
C1104 C1107 1.403 . S
H1105 C1111 0.930 . S
C1106 H1092 0.930 . S
C1106 C1104 1.395 . S
C1106 C1109 1.403 . S
C1107 C1104 1.403 . S
C1107 C1108 1.524 . S
C1107 C1111 1.400 . S
C1108 H1093 0.960 . S
C1108 H1094 0.960 . S
C1108 H1095 0.960 . S
C1108 C1107 1.524 . S
C1109 C1106 1.403 . S
C1109 C1110 1.392 . S
C1109 C1113 1.495 . S
C1110 C1109 1.392 . S
C1110 C1111 1.385 . S
C1110 C1112 1.478 . S
C1111 H1105 0.930 . S
C1111 C1107 1.400 . S
C1111 C1110 1.385 . S
C1112 C1110 1.478 . S
C1112 C1114 1.381 . S
C1112 C1118 1.383 . S
C1113 C1109 1.495 . S
C1113 H1119 0.959 . S
C1113 H1120 0.961 1_655 S
C1113 H1121 0.960 . S
C1114 C1112 1.381 . S
C1114 C1115 1.394 . S
C1114 H1122 0.930 . S
C1115 C1114 1.394 . S
C1115 C1116 1.383 . S
C1115 H1123 0.929 1_545 S
C1116 C1115 1.383 . S
C1116 C1117 1.377 . S
C1117 H1101 0.930 . S
C1117 C1116 1.377 . S
C1117 C1118 1.379 . S
C1118 H1102 0.931 . S
C1118 C1112 1.383 . S
C1118 C1117 1.379 . S
H1119 C1113 0.959 . S
H1120 C1113 0.961 1_455 S
H1121 C1113 0.960 . S
H1122 C1114 0.930 . S
H1123 C1115 0.929 1_565 S
H1124 C1132 0.929 . S
H1125 C1134 0.930 . S
H1126 C1136 0.930 . S
H1127 C1139 0.929 . S
H1128 C1142 0.930 . S
H1129 C1144 0.960 . S
H1130 C1144 0.960 . S
H1131 C1144 0.960 . S
C1132 H1124 0.929 . S
C1132 C1133 1.377 . S
C1132 C1134 1.384 . S
C1133 C1132 1.377 . S
C1133 C1139 1.390 . S
C1134 H1125 0.930 . S
C1134 C1132 1.384 . S
C1134 C1135 1.372 . S
C1135 C1134 1.372 . S
C1135 C1136 1.400 . S
C1135 C1140 1.490 . S
C1136 H1126 0.930 . S
C1136 C1135 1.400 . S
C1136 C1139 1.386 . S
H1137 C1153 0.930 . S
H1138 C1154 0.931 . S
C1139 H1127 0.929 . S
C1139 C1133 1.390 . S
C1139 C1136 1.386 . S
C1140 C1135 1.490 . S
C1140 C1142 1.395 . S
C1140 C1143 1.403 . S
H1141 C1147 0.930 . S
C1142 H1128 0.930 . S
C1142 C1140 1.395 . S
C1142 C1145 1.403 . S
C1143 C1140 1.403 . S
C1143 C1144 1.524 . S
C1143 C1147 1.400 . S
C1144 H1129 0.960 . S
C1144 H1130 0.960 . S
C1144 H1131 0.960 . S
C1144 C1143 1.524 . S
C1145 C1142 1.403 . S
C1145 C1146 1.392 . S
C1145 C1149 1.495 . S
C1146 C1145 1.392 . S
C1146 C1147 1.385 . S
C1146 C1148 1.478 . S
C1147 H1141 0.930 . S
C1147 C1143 1.400 . S
C1147 C1146 1.385 . S
C1148 C1146 1.478 . S
C1148 C1150 1.381 . S
C1148 C1154 1.383 . S
C1149 C1145 1.495 . S
C1149 H1155 0.959 . S
C1149 H1156 0.961 . S
C1149 H1157 0.960 . S
C1150 C1148 1.381 . S
C1150 C1151 1.394 . S
C1150 H1158 0.930 . S
C1151 C1150 1.394 . S
C1151 C1152 1.383 . S
C1151 H1159 0.929 . S
C1152 C1151 1.383 . S
C1152 C1153 1.377 . S
C1153 H1137 0.930 . S
C1153 C1152 1.377 . S
C1153 C1154 1.379 . S
C1154 H1138 0.931 . S
C1154 C1148 1.383 . S
C1154 C1153 1.379 . S
H1155 C1149 0.959 . S
H1156 C1149 0.961 . S
H1157 C1149 0.960 . S
H1158 C1150 0.930 . S
H1159 C1151 0.929 . S
H1160 C1168 0.929 . S
H1161 C1170 0.930 . S
H1162 C1172 0.930 . S
H1163 C1175 0.929 . S
H1164 C1178 0.930 . S
H1165 C1180 0.960 . S
H1166 C1180 0.960 . S
H1167 C1180 0.960 . S
C1168 H1160 0.929 . S
C1168 C1169 1.377 . S
C1168 C1170 1.384 . S
C1169 C1168 1.377 . S
C1169 C1175 1.390 . S
C1170 H1161 0.930 . S
C1170 C1168 1.384 . S
C1170 C1171 1.372 . S
C1171 C1170 1.372 . S
C1171 C1172 1.400 . S
C1171 C1176 1.490 . S
C1172 H1162 0.930 . S
C1172 C1171 1.400 . S
C1172 C1175 1.386 . S
H1173 C1189 0.930 . S
H1174 C1190 0.931 . S
C1175 H1163 0.929 . S
C1175 C1169 1.390 . S
C1175 C1172 1.386 . S
C1176 C1171 1.490 . S
C1176 C1178 1.395 . S
C1176 C1179 1.403 . S
H1177 C1183 0.930 . S
C1178 H1164 0.930 . S
C1178 C1176 1.395 . S
C1178 C1181 1.403 . S
C1179 C1176 1.403 . S
C1179 C1180 1.524 1_545 S
C1179 C1183 1.400 . S
C1180 H1165 0.960 . S
C1180 H1166 0.960 . S
C1180 H1167 0.960 . S
C1180 C1179 1.524 1_565 S
C1181 C1178 1.403 . S
C1181 C1182 1.392 . S
C1181 C1185 1.495 . S
C1182 C1181 1.392 . S
C1182 C1183 1.385 . S
C1182 C1184 1.478 . S
C1183 H1177 0.930 . S
C1183 C1179 1.400 . S
C1183 C1182 1.385 . S
C1184 C1182 1.478 . S
C1184 C1186 1.381 . S
C1184 C1190 1.383 . S
C1185 C1181 1.495 . S
C1185 H1191 0.959 . S
C1185 H1192 0.961 . S
C1185 H1193 0.960 . S
C1186 C1184 1.381 . S
C1186 C1187 1.394 . S
C1186 H1194 0.930 . S
C1187 C1186 1.394 . S
C1187 C1188 1.383 . S
C1187 H1195 0.929 . S
C1188 C1187 1.383 . S
C1188 C1189 1.377 . S
C1189 H1173 0.930 . S
C1189 C1188 1.377 . S
C1189 C1190 1.379 . S
C1190 H1174 0.931 . S
C1190 C1184 1.383 . S
C1190 C1189 1.379 . S
H1191 C1185 0.959 . S
H1192 C1185 0.961 . S
H1193 C1185 0.960 . S
H1194 C1186 0.930 . S
H1195 C1187 0.929 . S
H1196 C1204 0.929 . S
H1197 C1206 0.930 . S
H1198 C1208 0.930 . S
H1199 C1211 0.929 . S
H1200 C1214 0.930 . S
H1201 C1216 0.960 . S
H1202 C1216 0.960 . S
H1203 C1216 0.960 . S
C1204 H1196 0.929 . S
C1204 C1205 1.377 . S
C1204 C1206 1.384 . S
C1205 C1204 1.377 . S
C1205 C1211 1.390 . S
C1206 H1197 0.930 . S
C1206 C1204 1.384 . S
C1206 C1207 1.372 . S
C1207 C1206 1.372 . S
C1207 C1208 1.400 . S
C1207 C1212 1.490 . S
C1208 H1198 0.930 . S
C1208 C1207 1.400 . S
C1208 C1211 1.386 . S
H1209 C1225 0.930 . S
H1210 C1226 0.931 . S
C1211 H1199 0.929 . S
C1211 C1205 1.390 . S
C1211 C1208 1.386 . S
C1212 C1207 1.490 . S
C1212 C1214 1.395 . S
C1212 C1215 1.403 . S
H1213 C1219 0.930 . S
C1214 H1200 0.930 . S
C1214 C1212 1.395 . S
C1214 C1217 1.403 . S
C1215 C1212 1.403 . S
C1215 C1216 1.524 . S
C1215 C1219 1.400 . S
C1216 H1201 0.960 . S
C1216 H1202 0.960 . S
C1216 H1203 0.960 . S
C1216 C1215 1.524 . S
C1217 C1214 1.403 . S
C1217 C1218 1.392 . S
C1217 C1221 1.495 . S
C1218 C1217 1.392 . S
C1218 C1219 1.385 . S
C1218 C1220 1.478 . S
C1219 H1213 0.930 . S
C1219 C1215 1.400 . S
C1219 C1218 1.385 . S
C1220 C1218 1.478 . S
C1220 C1222 1.381 . S
C1220 C1226 1.383 . S
C1221 C1217 1.495 . S
C1221 H1227 0.959 . S
C1221 H1228 0.961 . S
C1221 H1229 0.960 . S
C1222 C1220 1.381 . S
C1222 C1223 1.394 . S
C1222 H1230 0.930 . S
C1223 C1222 1.394 . S
C1223 C1224 1.383 . S
C1223 H1231 0.929 . S
C1224 C1223 1.383 . S
C1224 C1225 1.377 . S
C1225 H1209 0.930 . S
C1225 C1224 1.377 . S
C1225 C1226 1.379 . S
C1226 H1210 0.931 . S
C1226 C1220 1.383 . S
C1226 C1225 1.379 . S
H1227 C1221 0.959 . S
H1228 C1221 0.961 . S
H1229 C1221 0.960 . S
H1230 C1222 0.930 . S
H1231 C1223 0.929 . S
H1232 C1240 0.929 . S
H1233 C1242 0.930 . S
H1234 C1244 0.930 . S
H1235 C1247 0.929 . S
H1236 C1250 0.930 . S
H1237 C1252 0.960 . S
H1238 C1252 0.960 . S
H1239 C1252 0.960 . S
C1240 H1232 0.929 . S
C1240 C1241 1.377 . S
C1240 C1242 1.384 . S
C1241 C1240 1.377 . S
C1241 C1247 1.390 . S
C1242 H1233 0.930 . S
C1242 C1240 1.384 . S
C1242 C1243 1.372 . S
C1243 C1242 1.372 . S
C1243 C1244 1.400 . S
C1243 C1248 1.490 . S
C1244 H1234 0.930 . S
C1244 C1243 1.400 . S
C1244 C1247 1.386 . S
H1245 C1261 0.930 . S
H1246 C1262 0.931 . S
C1247 H1235 0.929 . S
C1247 C1241 1.390 . S
C1247 C1244 1.386 . S
C1248 C1243 1.490 . S
C1248 C1250 1.395 . S
C1248 C1251 1.403 . S
H1249 C1255 0.930 . S
C1250 H1236 0.930 . S
C1250 C1248 1.395 . S
C1250 C1253 1.403 . S
C1251 C1248 1.403 . S
C1251 C1252 1.524 . S
C1251 C1255 1.400 . S
C1252 H1237 0.960 . S
C1252 H1238 0.960 . S
C1252 H1239 0.960 . S
C1252 C1251 1.524 . S
C1253 C1250 1.403 . S
C1253 C1254 1.392 . S
C1253 C1257 1.495 1_554 S
C1254 C1253 1.392 . S
C1254 C1255 1.385 . S
C1254 C1256 1.478 . S
C1255 H1249 0.930 . S
C1255 C1251 1.400 . S
C1255 C1254 1.385 . S
C1256 C1254 1.478 . S
C1256 C1258 1.381 1_565 S
C1256 C1262 1.383 . S
C1257 C1253 1.495 1_556 S
C1257 H1263 0.959 . S
C1257 H1264 0.961 . S
C1257 H1265 0.960 1_566 S
C1258 C1256 1.381 1_545 S
C1258 C1259 1.394 . S
C1258 H1266 0.930 . S
C1259 C1258 1.394 . S
C1259 C1260 1.383 . S
C1259 H1267 0.929 . S
C1260 C1259 1.383 . S
C1260 C1261 1.377 1_545 S
C1261 H1245 0.930 . S
C1261 C1260 1.377 1_565 S
C1261 C1262 1.379 . S
C1262 H1246 0.931 . S
C1262 C1256 1.383 . S
C1262 C1261 1.379 . S
H1263 C1257 0.959 . S
H1264 C1257 0.961 . S
H1265 C1257 0.960 1_544 S
H1266 C1258 0.930 . S
H1267 C1259 0.929 . S
H1268 C1276 0.929 . S
H1269 C1278 0.930 . S
H1270 C1280 0.930 . S
H1271 C1283 0.929 . S
H1272 C1286 0.930 . S
H1273 C1288 0.960 . S
H1274 C1288 0.960 . S
H1275 C1288 0.960 1_556 S
C1276 H1268 0.929 . S
C1276 C1277 1.377 . S
C1276 C1278 1.384 . S
C1277 C1276 1.377 . S
C1277 C1283 1.390 1_554 S
C1278 H1269 0.930 . S
C1278 C1276 1.384 . S
C1278 C1279 1.372 . S
C1279 C1278 1.372 . S
C1279 C1280 1.400 1_554 S
C1279 C1284 1.490 . S
C1280 H1270 0.930 . S
C1280 C1279 1.400 1_556 S
C1280 C1283 1.386 . S
H1281 C1297 0.930 . S
H1282 C1298 0.931 . S
C1283 H1271 0.929 . S
C1283 C1277 1.390 1_556 S
C1283 C1280 1.386 . S
C1284 C1279 1.490 . S
C1284 C1286 1.395 . S
C1284 C1287 1.403 . S
H1285 C1291 0.930 . S
C1286 H1272 0.930 . S
C1286 C1284 1.395 . S
C1286 C1289 1.403 . S
C1287 C1284 1.403 . S
C1287 C1288 1.524 . S
C1287 C1291 1.400 . S
C1288 H1273 0.960 . S
C1288 H1274 0.960 . S
C1288 H1275 0.960 1_554 S
C1288 C1287 1.524 . S
C1289 C1286 1.403 . S
C1289 C1290 1.392 . S
C1289 C1293 1.495 . S
C1290 C1289 1.392 . S
C1290 C1291 1.385 . S
C1290 C1292 1.478 . S
C1291 H1285 0.930 . S
C1291 C1287 1.400 . S
C1291 C1290 1.385 . S
C1292 C1290 1.478 . S
C1292 C1294 1.381 . S
C1292 C1298 1.383 1_554 S
C1293 C1289 1.495 . S
C1293 H1299 0.959 . S
C1293 H1300 0.961 . S
C1293 H1301 0.960 . S
C1294 C1292 1.381 . S
C1294 C1295 1.394 . S
C1294 H1302 0.930 . S
C1295 C1294 1.394 . S
C1295 C1296 1.383 . S
C1295 H1303 0.929 . S
C1296 C1295 1.383 . S
C1296 C1297 1.377 1_554 S
C1297 H1281 0.930 . S
C1297 C1296 1.377 1_556 S
C1297 C1298 1.379 . S
C1298 H1282 0.931 . S
C1298 C1292 1.383 1_556 S
C1298 C1297 1.379 . S
H1299 C1293 0.959 . S
H1300 C1293 0.961 . S
H1301 C1293 0.960 . S
H1302 C1294 0.930 . S
H1303 C1295 0.929 . S
H1304 C1312 0.929 . S
H1305 C1314 0.930 . S
H1306 C1316 0.930 . S
H1307 C1319 0.929 . S
H1308 C1322 0.930 . S
H1309 C1324 0.960 . S
H1310 C1324 0.960 . S
H1311 C1324 0.960 . S
C1312 H1304 0.929 . S
C1312 C1313 1.377 . S
C1312 C1314 1.384 . S
C1313 C1312 1.377 . S
C1313 C1319 1.390 . S
C1314 H1305 0.930 . S
C1314 C1312 1.384 . S
C1314 C1315 1.372 . S
C1315 C1314 1.372 . S
C1315 C1316 1.400 . S
C1315 C1320 1.490 . S
C1316 H1306 0.930 . S
C1316 C1315 1.400 . S
C1316 C1319 1.386 . S
H1317 C1333 0.930 . S
H1318 C1334 0.931 . S
C1319 H1307 0.929 . S
C1319 C1313 1.390 . S
C1319 C1316 1.386 . S
C1320 C1315 1.490 . S
C1320 C1322 1.395 . S
C1320 C1323 1.403 . S
H1321 C1327 0.930 . S
C1322 H1308 0.930 . S
C1322 C1320 1.395 . S
C1322 C1325 1.403 . S
C1323 C1320 1.403 . S
C1323 C1324 1.524 . S
C1323 C1327 1.400 . S
C1324 H1309 0.960 . S
C1324 H1310 0.960 . S
C1324 H1311 0.960 . S
C1324 C1323 1.524 . S
C1325 C1322 1.403 . S
C1325 C1326 1.392 . S
C1325 C1329 1.495 . S
C1326 C1325 1.392 . S
C1326 C1327 1.385 . S
C1326 C1328 1.478 . S
C1327 H1321 0.930 . S
C1327 C1323 1.400 . S
C1327 C1326 1.385 . S
C1328 C1326 1.478 . S
C1328 C1330 1.381 . S
C1328 C1334 1.383 . S
C1329 C1325 1.495 . S
C1329 H1335 0.959 . S
C1329 H1336 0.961 . S
C1329 H1337 0.960 . S
C1330 C1328 1.381 . S
C1330 C1331 1.394 . S
C1330 H1338 0.930 . S
C1331 C1330 1.394 . S
C1331 C1332 1.383 . S
C1331 H1339 0.929 . S
C1332 C1331 1.383 . S
C1332 C1333 1.377 . S
C1333 H1317 0.930 . S
C1333 C1332 1.377 . S
C1333 C1334 1.379 . S
C1334 H1318 0.931 . S
C1334 C1328 1.383 . S
C1334 C1333 1.379 . S
H1335 C1329 0.959 . S
H1336 C1329 0.961 . S
H1337 C1329 0.960 . S
H1338 C1330 0.930 . S
H1339 C1331 0.929 . S
H1340 C1348 0.929 . S
H1341 C1350 0.930 . S
H1342 C1352 0.930 . S
H1343 C1355 0.929 . S
H1344 C1358 0.930 . S
H1345 C1360 0.960 . S
H1346 C1360 0.960 . S
H1347 C1360 0.960 . S
C1348 H1340 0.929 . S
C1348 C1349 1.377 . S
C1348 C1350 1.384 . S
C1349 C1348 1.377 . S
C1349 C1355 1.390 . S
C1350 H1341 0.930 . S
C1350 C1348 1.384 . S
C1350 C1351 1.372 . S
C1351 C1350 1.372 . S
C1351 C1352 1.400 . S
C1351 C1356 1.490 . S
C1352 H1342 0.930 . S
C1352 C1351 1.400 . S
C1352 C1355 1.386 . S
H1353 C1369 0.930 . S
H1354 C1370 0.931 . S
C1355 H1343 0.929 . S
C1355 C1349 1.390 . S
C1355 C1352 1.386 . S
C1356 C1351 1.490 . S
C1356 C1358 1.395 . S
C1356 C1359 1.403 . S
H1357 C1363 0.930 . S
C1358 H1344 0.930 . S
C1358 C1356 1.395 . S
C1358 C1361 1.403 . S
C1359 C1356 1.403 . S
C1359 C1360 1.524 . S
C1359 C1363 1.400 . S
C1360 H1345 0.960 . S
C1360 H1346 0.960 . S
C1360 H1347 0.960 . S
C1360 C1359 1.524 . S
C1361 C1358 1.403 . S
C1361 C1362 1.392 . S
C1361 C1365 1.495 . S
C1362 C1361 1.392 . S
C1362 C1363 1.385 . S
C1362 C1364 1.478 . S
C1363 H1357 0.930 . S
C1363 C1359 1.400 . S
C1363 C1362 1.385 . S
C1364 C1362 1.478 . S
C1364 C1366 1.381 . S
C1364 C1370 1.383 . S
C1365 C1361 1.495 . S
C1365 H1371 0.959 . S
C1365 H1372 0.961 . S
C1365 H1373 0.960 . S
C1366 C1364 1.381 . S
C1366 C1367 1.394 . S
C1366 H1374 0.930 . S
C1367 C1366 1.394 . S
C1367 C1368 1.383 . S
C1367 H1375 0.929 . S
C1368 C1367 1.383 . S
C1368 C1369 1.377 . S
C1369 H1353 0.930 . S
C1369 C1368 1.377 . S
C1369 C1370 1.379 . S
C1370 H1354 0.931 . S
C1370 C1364 1.383 . S
C1370 C1369 1.379 . S
H1371 C1365 0.959 . S
H1372 C1365 0.961 . S
H1373 C1365 0.960 . S
H1374 C1366 0.930 . S
H1375 C1367 0.929 . S
H1376 C1384 0.929 . S
H1377 C1386 0.930 . S
H1378 C1388 0.930 . S
H1379 C1391 0.929 . S
H1380 C1394 0.930 . S
H1381 C1396 0.960 . S
H1382 C1396 0.960 . S
H1383 C1396 0.960 . S
C1384 H1376 0.929 . S
C1384 C1385 1.377 . S
C1384 C1386 1.384 . S
C1385 C1384 1.377 . S
C1385 C1391 1.390 . S
C1386 H1377 0.930 . S
C1386 C1384 1.384 . S
C1386 C1387 1.372 . S
C1387 C1386 1.372 . S
C1387 C1388 1.400 . S
C1387 C1392 1.490 . S
C1388 H1378 0.930 . S
C1388 C1387 1.400 . S
C1388 C1391 1.386 . S
H1389 C1405 0.930 . S
H1390 C1406 0.931 . S
C1391 H1379 0.929 . S
C1391 C1385 1.390 . S
C1391 C1388 1.386 . S
C1392 C1387 1.490 . S
C1392 C1394 1.395 . S
C1392 C1395 1.403 . S
H1393 C1399 0.930 . S
C1394 H1380 0.930 . S
C1394 C1392 1.395 . S
C1394 C1397 1.403 . S
C1395 C1392 1.403 . S
C1395 C1396 1.524 . S
C1395 C1399 1.400 . S
C1396 H1381 0.960 . S
C1396 H1382 0.960 . S
C1396 H1383 0.960 . S
C1396 C1395 1.524 . S
C1397 C1394 1.403 . S
C1397 C1398 1.392 . S
C1397 C1401 1.495 . S
C1398 C1397 1.392 . S
C1398 C1399 1.385 . S
C1398 C1400 1.478 . S
C1399 H1393 0.930 . S
C1399 C1395 1.400 . S
C1399 C1398 1.385 . S
C1400 C1398 1.478 . S
C1400 C1402 1.381 . S
C1400 C1406 1.383 . S
C1401 C1397 1.495 . S
C1401 H1407 0.959 . S
C1401 H1408 0.961 . S
C1401 H1409 0.960 . S
C1402 C1400 1.381 . S
C1402 C1403 1.394 . S
C1402 H1410 0.930 . S
C1403 C1402 1.394 . S
C1403 C1404 1.383 . S
C1403 H1411 0.929 . S
C1404 C1403 1.383 . S
C1404 C1405 1.377 . S
C1405 H1389 0.930 . S
C1405 C1404 1.377 . S
C1405 C1406 1.379 . S
C1406 H1390 0.931 . S
C1406 C1400 1.383 . S
C1406 C1405 1.379 . S
H1407 C1401 0.959 . S
H1408 C1401 0.961 . S
H1409 C1401 0.960 . S
H1410 C1402 0.930 . S
H1411 C1403 0.929 . S
H1412 C1420 0.929 . S
H1413 C1422 0.930 . S
H1414 C1424 0.930 . S
H1415 C1427 0.929 . S
H1416 C1430 0.930 . S
H1417 C1432 0.960 . S
H1418 C1432 0.960 . S
H1419 C1432 0.960 . S
C1420 H1412 0.929 . S
C1420 C1421 1.377 . S
C1420 C1422 1.384 . S
C1421 C1420 1.377 . S
C1421 C1427 1.390 . S
C1422 H1413 0.930 . S
C1422 C1420 1.384 . S
C1422 C1423 1.372 . S
C1423 C1422 1.372 . S
C1423 C1424 1.400 . S
C1423 C1428 1.490 . S
C1424 H1414 0.930 . S
C1424 C1423 1.400 . S
C1424 C1427 1.386 . S
H1425 C1441 0.930 . S
H1426 C1442 0.931 . S
C1427 H1415 0.929 . S
C1427 C1421 1.390 . S
C1427 C1424 1.386 . S
C1428 C1423 1.490 . S
C1428 C1430 1.395 . S
C1428 C1431 1.403 . S
H1429 C1435 0.930 . S
C1430 H1416 0.930 . S
C1430 C1428 1.395 . S
C1430 C1433 1.403 . S
C1431 C1428 1.403 . S
C1431 C1432 1.524 . S
C1431 C1435 1.400 . S
C1432 H1417 0.960 . S
C1432 H1418 0.960 . S
C1432 H1419 0.960 . S
C1432 C1431 1.524 . S
C1433 C1430 1.403 . S
C1433 C1434 1.392 . S
C1433 C1437 1.495 . S
C1434 C1433 1.392 . S
C1434 C1435 1.385 . S
C1434 C1436 1.478 . S
C1435 H1429 0.930 . S
C1435 C1431 1.400 . S
C1435 C1434 1.385 . S
C1436 C1434 1.478 . S
C1436 C1438 1.381 . S
C1436 C1442 1.383 . S
C1437 C1433 1.495 . S
C1437 H1443 0.959 . S
C1437 H1444 0.961 . S
C1437 H1445 0.960 . S
C1438 C1436 1.381 . S
C1438 C1439 1.394 . S
C1438 H1446 0.930 . S
C1439 C1438 1.394 . S
C1439 C1440 1.383 . S
C1439 H1447 0.929 . S
C1440 C1439 1.383 . S
C1440 C1441 1.377 . S
C1441 H1425 0.930 . S
C1441 C1440 1.377 . S
C1441 C1442 1.379 . S
C1442 H1426 0.931 . S
C1442 C1436 1.383 . S
C1442 C1441 1.379 . S
H1443 C1437 0.959 . S
H1444 C1437 0.961 . S
H1445 C1437 0.960 . S
H1446 C1438 0.930 . S
H1447 C1439 0.929 . S
H1448 C1456 0.929 . S
H1449 C1458 0.930 . S
H1450 C1460 0.930 . S
H1451 C1463 0.929 . S
H1452 C1466 0.930 . S
H1453 C1468 0.960 . S
H1454 C1468 0.960 . S
H1455 C1468 0.960 . S
C1456 H1448 0.929 . S
C1456 C1457 1.377 . S
C1456 C1458 1.384 . S
C1457 C1456 1.377 . S
C1457 C1463 1.390 . S
C1458 H1449 0.930 . S
C1458 C1456 1.384 . S
C1458 C1459 1.372 . S
C1459 C1458 1.372 . S
C1459 C1460 1.400 . S
C1459 C1464 1.490 . S
C1460 H1450 0.930 . S
C1460 C1459 1.400 . S
C1460 C1463 1.386 . S
H1461 C1477 0.930 . S
H1462 C1478 0.931 . S
C1463 H1451 0.929 . S
C1463 C1457 1.390 . S
C1463 C1460 1.386 . S
C1464 C1459 1.490 . S
C1464 C1466 1.395 . S
C1464 C1467 1.403 . S
H1465 C1471 0.930 . S
C1466 H1452 0.930 . S
C1466 C1464 1.395 . S
C1466 C1469 1.403 . S
C1467 C1464 1.403 . S
C1467 C1468 1.524 . S
C1467 C1471 1.400 . S
C1468 H1453 0.960 . S
C1468 H1454 0.960 . S
C1468 H1455 0.960 . S
C1468 C1467 1.524 . S
C1469 C1466 1.403 . S
C1469 C1470 1.392 . S
C1469 C1473 1.495 . S
C1470 C1469 1.392 . S
C1470 C1471 1.385 . S
C1470 C1472 1.478 . S
C1471 H1465 0.930 . S
C1471 C1467 1.400 . S
C1471 C1470 1.385 . S
C1472 C1470 1.478 . S
C1472 C1474 1.381 . S
C1472 C1478 1.383 . S
C1473 C1469 1.495 . S
C1473 H1479 0.959 . S
C1473 H1480 0.961 . S
C1473 H1481 0.960 . S
C1474 C1472 1.381 . S
C1474 C1475 1.394 . S
C1474 H1482 0.930 . S
C1475 C1474 1.394 . S
C1475 C1476 1.383 . S
C1475 H1483 0.929 . S
C1476 C1475 1.383 . S
C1476 C1477 1.377 . S
C1477 H1461 0.930 . S
C1477 C1476 1.377 . S
C1477 C1478 1.379 . S
C1478 H1462 0.931 . S
C1478 C1472 1.383 . S
C1478 C1477 1.379 . S
H1479 C1473 0.959 . S
H1480 C1473 0.961 . S
H1481 C1473 0.960 . S
H1482 C1474 0.930 . S
H1483 C1475 0.929 . S
H1484 C1492 0.929 . S
H1485 C1494 0.930 . S
H1486 C1496 0.930 . S
H1487 C1499 0.929 . S
H1488 C1502 0.930 . S
H1489 C1504 0.960 . S
H1490 C1504 0.960 . S
H1491 C1504 0.960 . S
C1492 H1484 0.929 . S
C1492 C1493 1.377 . S
C1492 C1494 1.384 . S
C1493 C1492 1.377 . S
C1493 C1499 1.390 . S
C1494 H1485 0.930 . S
C1494 C1492 1.384 . S
C1494 C1495 1.372 . S
C1495 C1494 1.372 . S
C1495 C1496 1.400 . S
C1495 C1500 1.490 . S
C1496 H1486 0.930 . S
C1496 C1495 1.400 . S
C1496 C1499 1.386 . S
H1497 C1513 0.930 . S
H1498 C1514 0.931 . S
C1499 H1487 0.929 . S
C1499 C1493 1.390 . S
C1499 C1496 1.386 . S
C1500 C1495 1.490 . S
C1500 C1502 1.395 . S
C1500 C1503 1.403 . S
H1501 C1507 0.930 . S
C1502 H1488 0.930 . S
C1502 C1500 1.395 . S
C1502 C1505 1.403 . S
C1503 C1500 1.403 . S
C1503 C1504 1.524 . S
C1503 C1507 1.400 . S
C1504 H1489 0.960 . S
C1504 H1490 0.960 . S
C1504 H1491 0.960 . S
C1504 C1503 1.524 . S
C1505 C1502 1.403 . S
C1505 C1506 1.392 . S
C1505 C1509 1.495 . S
C1506 C1505 1.392 . S
C1506 C1507 1.385 . S
C1506 C1508 1.478 . S
C1507 H1501 0.930 . S
C1507 C1503 1.400 . S
C1507 C1506 1.385 . S
C1508 C1506 1.478 . S
C1508 C1510 1.381 . S
C1508 C1514 1.383 . S
C1509 C1505 1.495 . S
C1509 H1515 0.959 . S
C1509 H1516 0.961 . S
C1509 H1517 0.960 . S
C1510 C1508 1.381 . S
C1510 C1511 1.394 . S
C1510 H1518 0.930 . S
C1511 C1510 1.394 . S
C1511 C1512 1.383 . S
C1511 H1519 0.929 . S
C1512 C1511 1.383 . S
C1512 C1513 1.377 . S
C1513 H1497 0.930 . S
C1513 C1512 1.377 . S
C1513 C1514 1.379 . S
C1514 H1498 0.931 . S
C1514 C1508 1.383 . S
C1514 C1513 1.379 . S
H1515 C1509 0.959 . S
H1516 C1509 0.961 . S
H1517 C1509 0.960 . S
H1518 C1510 0.930 . S
H1519 C1511 0.929 . S
H1520 C1528 0.929 . S
H1521 C1530 0.930 . S
H1522 C1532 0.930 1_655 S
H1523 C1535 0.929 1_655 S
H1524 C1538 0.930 . S
H1525 C1540 0.960 . S
H1526 C1540 0.960 1_455 S
H1527 C1540 0.960 . S
C1528 H1520 0.929 . S
C1528 C1529 1.377 . S
C1528 C1530 1.384 . S
C1529 C1528 1.377 . S
C1529 C1535 1.390 . S
C1530 H1521 0.930 . S
C1530 C1528 1.384 . S
C1530 C1531 1.372 . S
C1531 C1530 1.372 . S
C1531 C1532 1.400 . S
C1531 C1536 1.490 . S
C1532 H1522 0.930 1_455 S
C1532 C1531 1.400 . S
C1532 C1535 1.386 . S
H1533 C1549 0.930 . S
H1534 C1550 0.941 . S
C1535 H1523 0.929 1_455 S
C1535 C1529 1.390 . S
C1535 C1532 1.386 . S
C1536 C1531 1.490 . S
C1536 C1538 1.395 . S
C1536 C1539 1.403 . S
H1537 C1543 0.971 . S
C1538 H1524 0.930 . S
C1538 C1536 1.395 . S
C1538 C1541 1.403 . S
C1539 C1536 1.403 . S
C1539 C1540 1.524 1_455 S
C1539 C1543 1.400 . S
C1540 H1525 0.960 . S
C1540 H1526 0.960 1_655 S
C1540 H1527 0.960 . S
C1540 C1539 1.524 1_655 S
C1541 C1538 1.403 . S
C1541 C1542 1.392 . S
C1541 C1545 1.495 . S
C1542 C1541 1.392 . S
C1542 C1543 1.385 . S
C1542 C1544 1.478 . S
C1543 H1537 0.971 . S
C1543 C1539 1.400 . S
C1543 C1542 1.385 . S
C1544 C1542 1.478 . S
C1544 C1546 1.381 . S
C1544 C1550 1.368 1_455 S
C1545 C1541 1.495 . S
C1545 H1551 0.959 . S
C1545 H1552 0.961 . S
C1545 H1553 0.960 . S
C1546 C1544 1.381 . S
C1546 C1547 1.394 . S
C1546 H1554 0.930 . S
C1547 C1546 1.394 . S
C1547 C1548 1.383 . S
C1547 H1555 0.929 . S
C1548 C1547 1.383 . S
C1548 C1549 1.377 1_455 S
C1549 H1533 0.930 . S
C1549 C1548 1.377 1_655 S
C1549 C1550 1.384 . S
C1550 H1534 0.941 . S
C1550 C1544 1.368 1_655 S
C1550 C1549 1.384 . S
H1551 C1545 0.959 . S
H1552 C1545 0.961 . S
H1553 C1545 0.960 . S
H1554 C1546 0.930 . S
H1555 C1547 0.929 . S
H1556 C1564 0.929 . S
H1557 C1566 0.930 . S
H1558 C1568 0.930 . S
H1559 C1571 0.929 . S
H1560 C1574 0.930 . S
H1561 C1576 0.960 . S
H1562 C1576 0.960 . S
H1563 C1576 0.960 . S
C1564 H1556 0.929 . S
C1564 C1565 1.377 . S
C1564 C1566 1.384 . S
C1565 C1564 1.377 . S
C1565 C1571 1.390 . S
C1566 H1557 0.930 . S
C1566 C1564 1.384 . S
C1566 C1567 1.372 . S
C1567 C1566 1.372 . S
C1567 C1568 1.400 . S
C1567 C1572 1.490 . S
C1568 H1558 0.930 . S
C1568 C1567 1.400 . S
C1568 C1571 1.386 . S
H1569 C1585 0.930 . S
H1570 C1586 0.931 . S
C1571 H1559 0.929 . S
C1571 C1565 1.390 . S
C1571 C1568 1.386 . S
C1572 C1567 1.490 . S
C1572 C1574 1.395 . S
C1572 C1575 1.403 . S
H1573 C1579 0.930 . S
C1574 H1560 0.930 . S
C1574 C1572 1.395 . S
C1574 C1577 1.403 . S
C1575 C1572 1.403 . S
C1575 C1576 1.524 . S
C1575 C1579 1.400 . S
C1576 H1561 0.960 . S
C1576 H1562 0.960 . S
C1576 H1563 0.960 . S
C1576 C1575 1.524 . S
C1577 C1574 1.403 . S
C1577 C1578 1.392 . S
C1577 C1581 1.495 . S
C1578 C1577 1.392 . S
C1578 C1579 1.385 . S
C1578 C1580 1.478 . S
C1579 H1573 0.930 . S
C1579 C1575 1.400 . S
C1579 C1578 1.385 . S
C1580 C1578 1.478 . S
C1580 C1582 1.381 . S
C1580 C1586 1.383 . S
C1581 C1577 1.495 . S
C1581 H1587 0.959 . S
C1581 H1588 0.961 . S
C1581 H1589 0.960 . S
C1582 C1580 1.381 . S
C1582 C1583 1.394 . S
C1582 H1590 0.930 . S
C1583 C1582 1.394 . S
C1583 C1584 1.383 . S
C1583 H1591 0.929 . S
C1584 C1583 1.383 . S
C1584 C1585 1.377 . S
C1585 H1569 0.930 . S
C1585 C1584 1.377 . S
C1585 C1586 1.379 . S
C1586 H1570 0.931 . S
C1586 C1580 1.383 . S
C1586 C1585 1.379 . S
H1587 C1581 0.959 . S
H1588 C1581 0.961 . S
H1589 C1581 0.960 . S
H1590 C1582 0.930 . S
H1591 C1583 0.929 . S
H1592 C1600 0.929 . S
H1593 C1602 0.930 . S
H1594 C1604 0.930 . S
H1595 C1607 0.929 . S
H1596 C1610 0.930 . S
H1597 C1612 0.960 . S
H1598 C1612 0.960 . S
H1599 C1612 0.960 . S
C1600 H1592 0.929 . S
C1600 C1601 1.377 . S
C1600 C1602 1.384 . S
C1601 C1600 1.377 . S
C1601 C1607 1.390 . S
C1602 H1593 0.930 . S
C1602 C1600 1.384 . S
C1602 C1603 1.372 . S
C1603 C1602 1.372 . S
C1603 C1604 1.400 . S
C1603 C1608 1.490 . S
C1604 H1594 0.930 . S
C1604 C1603 1.400 . S
C1604 C1607 1.386 . S
H1605 C1621 0.930 . S
H1606 C1622 0.931 . S
C1607 H1595 0.929 . S
C1607 C1601 1.390 . S
C1607 C1604 1.386 . S
C1608 C1603 1.490 . S
C1608 C1610 1.395 . S
C1608 C1611 1.403 . S
H1609 C1615 0.930 . S
C1610 H1596 0.930 . S
C1610 C1608 1.395 . S
C1610 C1613 1.403 . S
C1611 C1608 1.403 . S
C1611 C1612 1.524 . S
C1611 C1615 1.400 . S
C1612 H1597 0.960 . S
C1612 H1598 0.960 . S
C1612 H1599 0.960 . S
C1612 C1611 1.524 . S
C1613 C1610 1.403 . S
C1613 C1614 1.392 . S
C1613 C1617 1.495 . S
C1614 C1613 1.392 . S
C1614 C1615 1.385 . S
C1614 C1616 1.478 . S
C1615 H1609 0.930 . S
C1615 C1611 1.400 . S
C1615 C1614 1.385 . S
C1616 C1614 1.478 . S
C1616 C1618 1.381 . S
C1616 C1622 1.383 . S
C1617 C1613 1.495 . S
C1617 H1623 0.959 . S
C1617 H1624 0.961 . S
C1617 H1625 0.960 . S
C1618 C1616 1.381 . S
C1618 C1619 1.394 . S
C1618 H1626 0.930 . S
C1619 C1618 1.394 . S
C1619 C1620 1.383 . S
C1619 H1627 0.929 . S
C1620 C1619 1.383 . S
C1620 C1621 1.377 . S
C1621 H1605 0.930 . S
C1621 C1620 1.377 . S
C1621 C1622 1.379 . S
C1622 H1606 0.931 . S
C1622 C1616 1.383 . S
C1622 C1621 1.379 . S
H1623 C1617 0.959 . S
H1624 C1617 0.961 . S
H1625 C1617 0.960 . S
H1626 C1618 0.930 . S
H1627 C1619 0.929 . S
H1628 C1636 0.929 . S
H1629 C1638 0.930 . S
H1630 C1640 0.930 . S
H1631 C1643 0.929 . S
H1632 C1646 0.930 . S
H1633 C1648 0.960 . S
H1634 C1648 0.960 . S
H1635 C1648 0.960 . S
C1636 H1628 0.929 . S
C1636 C1637 1.377 . S
C1636 C1638 1.384 . S
C1637 C1636 1.377 . S
C1637 C1643 1.390 . S
C1638 H1629 0.930 . S
C1638 C1636 1.384 . S
C1638 C1639 1.372 . S
C1639 C1638 1.372 . S
C1639 C1640 1.400 . S
C1639 C1644 1.490 . S
C1640 H1630 0.930 . S
C1640 C1639 1.400 . S
C1640 C1643 1.386 . S
H1641 C1657 0.930 . S
H1642 C1658 0.931 . S
C1643 H1631 0.929 . S
C1643 C1637 1.390 . S
C1643 C1640 1.386 . S
C1644 C1639 1.490 . S
C1644 C1646 1.395 . S
C1644 C1647 1.403 . S
H1645 C1651 0.930 . S
C1646 H1632 0.930 . S
C1646 C1644 1.395 . S
C1646 C1649 1.403 . S
C1647 C1644 1.403 . S
C1647 C1648 1.524 . S
C1647 C1651 1.400 . S
C1648 H1633 0.960 . S
C1648 H1634 0.960 . S
C1648 H1635 0.960 . S
C1648 C1647 1.524 . S
C1649 C1646 1.403 . S
C1649 C1650 1.392 . S
C1649 C1653 1.495 . S
C1650 C1649 1.392 . S
C1650 C1651 1.385 . S
C1650 C1652 1.478 . S
C1651 H1645 0.930 . S
C1651 C1647 1.400 . S
C1651 C1650 1.385 . S
C1652 C1650 1.478 . S
C1652 C1654 1.381 . S
C1652 C1658 1.383 . S
C1653 C1649 1.495 . S
C1653 H1659 0.959 . S
C1653 H1660 0.961 . S
C1653 H1661 0.960 . S
C1654 C1652 1.381 . S
C1654 C1655 1.394 . S
C1654 H1662 0.930 . S
C1655 C1654 1.394 . S
C1655 C1656 1.383 . S
C1655 H1663 0.929 . S
C1656 C1655 1.383 . S
C1656 C1657 1.377 . S
C1657 H1641 0.930 . S
C1657 C1656 1.377 . S
C1657 C1658 1.379 . S
C1658 H1642 0.931 . S
C1658 C1652 1.383 . S
C1658 C1657 1.379 . S
H1659 C1653 0.959 . S
H1660 C1653 0.961 . S
H1661 C1653 0.960 . S
H1662 C1654 0.930 . S
H1663 C1655 0.929 . S
H1664 C1672 0.929 . S
H1665 C1674 0.930 . S
H1666 C1676 0.931 . S
H1667 C1679 0.929 1_655 S
H1668 C1682 0.930 . S
H1669 C1684 0.960 . S
H1670 C1684 0.960 . S
H1671 C1684 0.960 . S
C1672 H1664 0.929 . S
C1672 C1673 1.377 . S
C1672 C1674 1.384 . S
C1673 C1672 1.377 . S
C1673 C1679 1.390 . S
C1674 H1665 0.930 . S
C1674 C1672 1.384 . S
C1674 C1675 1.372 . S
C1675 C1674 1.372 . S
C1675 C1676 1.398 1_455 S
C1675 C1680 1.490 . S
C1676 H1666 0.931 . S
C1676 C1675 1.398 1_655 S
C1676 C1679 1.386 1_655 S
H1677 C1693 0.930 . S
H1678 C1694 0.931 . S
C1679 H1667 0.929 1_455 S
C1679 C1673 1.390 . S
C1679 C1676 1.386 1_455 S
C1680 C1675 1.490 . S
C1680 C1682 1.395 1_455 S
C1680 C1683 1.403 . S
H1681 C1687 0.930 . S
C1682 H1668 0.930 . S
C1682 C1680 1.395 1_655 S
C1682 C1685 1.403 . S
C1683 C1680 1.403 . S
C1683 C1684 1.524 . S
C1683 C1687 1.400 . S
C1684 H1669 0.960 . S
C1684 H1670 0.960 . S
C1684 H1671 0.960 . S
C1684 C1683 1.524 . S
C1685 C1682 1.403 . S
C1685 C1686 1.368 1_655 S
C1685 C1689 1.495 . S
C1686 C1685 1.368 1_455 S
C1686 C1687 1.410 . S
C1686 C1688 1.480 1_455 S
C1687 H1681 0.930 . S
C1687 C1683 1.400 . S
C1687 C1686 1.410 . S
C1688 C1686 1.480 1_655 S
C1688 C1690 1.381 1_655 S
C1688 C1694 1.383 . S
C1689 C1685 1.495 . S
C1689 H1695 0.959 . S
C1689 H1696 0.961 . S
C1689 H1697 0.960 . S
C1690 C1688 1.381 1_455 S
C1690 C1691 1.394 . S
C1690 H1698 0.930 . S
C1691 C1690 1.394 . S
C1691 C1692 1.383 1_455 S
C1691 H1699 0.929 . S
C1692 C1691 1.383 1_655 S
C1692 C1693 1.377 . S
C1693 H1677 0.930 . S
C1693 C1692 1.377 . S
C1693 C1694 1.379 . S
C1694 H1678 0.931 . S
C1694 C1688 1.383 . S
C1694 C1693 1.379 . S
H1695 C1689 0.959 . S
H1696 C1689 0.961 . S
H1697 C1689 0.960 . S
H1698 C1690 0.930 . S
H1699 C1691 0.929 . S
H1700 C1708 0.929 . S
H1701 C1710 0.930 . S
H1702 C1712 0.930 . S
H1703 C1715 0.929 . S
H1704 C1718 0.930 . S
H1705 C1720 0.960 . S
H1706 C1720 0.960 . S
H1707 C1720 0.960 . S
C1708 H1700 0.929 . S
C1708 C1709 1.377 . S
C1708 C1710 1.384 . S
C1709 C1708 1.377 . S
C1709 C1715 1.390 . S
C1710 H1701 0.930 . S
C1710 C1708 1.384 . S
C1710 C1711 1.372 . S
C1711 C1710 1.372 . S
C1711 C1712 1.400 . S
C1711 C1716 1.490 . S
C1712 H1702 0.930 . S
C1712 C1711 1.400 . S
C1712 C1715 1.386 . S
H1713 C1729 0.930 . S
H1714 C1730 0.931 . S
C1715 H1703 0.929 . S
C1715 C1709 1.390 . S
C1715 C1712 1.386 . S
C1716 C1711 1.490 . S
C1716 C1718 1.395 . S
C1716 C1719 1.403 . S
H1717 C1723 0.930 . S
C1718 H1704 0.930 . S
C1718 C1716 1.395 . S
C1718 C1721 1.403 . S
C1719 C1716 1.403 . S
C1719 C1720 1.524 . S
C1719 C1723 1.400 . S
C1720 H1705 0.960 . S
C1720 H1706 0.960 . S
C1720 H1707 0.960 . S
C1720 C1719 1.524 . S
C1721 C1718 1.403 . S
C1721 C1722 1.392 . S
C1721 C1725 1.495 . S
C1722 C1721 1.392 . S
C1722 C1723 1.385 . S
C1722 C1724 1.478 . S
C1723 H1717 0.930 . S
C1723 C1719 1.400 . S
C1723 C1722 1.385 . S
C1724 C1722 1.478 . S
C1724 C1726 1.381 . S
C1724 C1730 1.383 . S
C1725 C1721 1.495 . S
C1725 H1731 0.959 . S
C1725 H1732 0.961 . S
C1725 H1733 0.960 . S
C1726 C1724 1.381 . S
C1726 C1727 1.394 . S
C1726 H1734 0.930 . S
C1727 C1726 1.394 . S
C1727 C1728 1.383 . S
C1727 H1735 0.929 . S
C1728 C1727 1.383 . S
C1728 C1729 1.377 . S
C1729 H1713 0.930 . S
C1729 C1728 1.377 . S
C1729 C1730 1.379 . S
C1730 H1714 0.931 . S
C1730 C1724 1.383 . S
C1730 C1729 1.379 . S
H1731 C1725 0.959 . S
H1732 C1725 0.961 . S
H1733 C1725 0.960 . S
H1734 C1726 0.930 . S
H1735 C1727 0.929 . S
H1736 C1744 0.929 . S
H1737 C1746 0.930 . S
H1738 C1748 0.930 . S
H1739 C1751 0.929 . S
H1740 C1754 0.930 . S
H1741 C1756 0.960 . S
H1742 C1756 0.960 . S
H1743 C1756 0.960 . S
C1744 H1736 0.929 . S
C1744 C1745 1.377 . S
C1744 C1746 1.384 . S
C1745 C1744 1.377 . S
C1745 C1751 1.390 . S
C1746 H1737 0.930 . S
C1746 C1744 1.384 . S
C1746 C1747 1.372 . S
C1747 C1746 1.372 . S
C1747 C1748 1.400 . S
C1747 C1752 1.490 . S
C1748 H1738 0.930 . S
C1748 C1747 1.400 . S
C1748 C1751 1.386 . S
H1749 C1765 0.920 1_554 S
H1750 C1766 0.931 . S
C1751 H1739 0.929 . S
C1751 C1745 1.390 . S
C1751 C1748 1.386 . S
C1752 C1747 1.490 . S
C1752 C1754 1.395 . S
C1752 C1755 1.403 . S
H1753 C1759 0.930 . S
C1754 H1740 0.930 . S
C1754 C1752 1.395 . S
C1754 C1757 1.403 . S
C1755 C1752 1.403 . S
C1755 C1756 1.524 . S
C1755 C1759 1.400 . S
C1756 H1741 0.960 . S
C1756 H1742 0.960 . S
C1756 H1743 0.960 . S
C1756 C1755 1.524 . S
C1757 C1754 1.403 . S
C1757 C1758 1.392 . S
C1757 C1761 1.495 . S
C1758 C1757 1.392 . S
C1758 C1759 1.385 . S
C1758 C1760 1.478 . S
C1759 H1753 0.930 . S
C1759 C1755 1.400 . S
C1759 C1758 1.385 . S
C1760 C1758 1.478 . S
C1760 C1762 1.381 . S
C1760 C1766 1.383 . S
C1761 C1757 1.495 . S
C1761 H1767 0.959 . S
C1761 H1768 0.961 . S
C1761 H1769 0.960 . S
C1762 C1760 1.381 . S
C1762 C1763 1.394 . S
C1762 H1770 0.930 . S
C1763 C1762 1.394 . S
C1763 C1764 1.383 . S
C1763 H1771 0.929 . S
C1764 C1763 1.383 . S
C1764 C1765 1.381 . S
C1765 H1749 0.920 1_556 S
C1765 C1764 1.381 . S
C1765 C1766 1.385 . S
C1766 H1750 0.931 . S
C1766 C1760 1.383 . S
C1766 C1765 1.385 . S
H1767 C1761 0.959 . S
H1768 C1761 0.961 . S
H1769 C1761 0.960 . S
H1770 C1762 0.930 . S
H1771 C1763 0.929 . S
H1772 C1780 0.929 . S
H1773 C1782 0.930 . S
H1774 C1784 0.930 . S
H1775 C1787 0.929 . S
H1776 C1790 0.930 . S
H1777 C1792 0.960 . S
H1778 C1792 0.960 . S
H1779 C1792 0.960 . S
C1780 H1772 0.929 . S
C1780 C1781 1.377 . S
C1780 C1782 1.384 . S
C1781 C1780 1.377 . S
C1781 C1787 1.390 . S
C1782 H1773 0.930 . S
C1782 C1780 1.384 . S
C1782 C1783 1.372 . S
C1783 C1782 1.372 . S
C1783 C1784 1.400 . S
C1783 C1788 1.490 . S
C1784 H1774 0.930 . S
C1784 C1783 1.400 . S
C1784 C1787 1.386 . S
H1785 C1801 0.930 . S
H1786 C1802 0.931 . S
C1787 H1775 0.929 . S
C1787 C1781 1.390 . S
C1787 C1784 1.386 . S
C1788 C1783 1.490 . S
C1788 C1790 1.395 . S
C1788 C1791 1.403 . S
H1789 C1795 0.930 . S
C1790 H1776 0.930 . S
C1790 C1788 1.395 . S
C1790 C1793 1.403 . S
C1791 C1788 1.403 . S
C1791 C1792 1.524 . S
C1791 C1795 1.400 . S
C1792 H1777 0.960 . S
C1792 H1778 0.960 . S
C1792 H1779 0.960 . S
C1792 C1791 1.524 . S
C1793 C1790 1.403 . S
C1793 C1794 1.392 . S
C1793 C1797 1.495 . S
C1794 C1793 1.392 . S
C1794 C1795 1.385 . S
C1794 C1796 1.478 . S
C1795 H1789 0.930 . S
C1795 C1791 1.400 . S
C1795 C1794 1.385 . S
C1796 C1794 1.478 . S
C1796 C1798 1.381 . S
C1796 C1802 1.383 . S
C1797 C1793 1.495 . S
C1797 H1803 0.959 . S
C1797 H1804 0.961 . S
C1797 H1805 0.960 . S
C1798 C1796 1.381 . S
C1798 C1799 1.394 . S
C1798 H1806 0.930 . S
C1799 C1798 1.394 . S
C1799 C1800 1.383 . S
C1799 H1807 0.929 . S
C1800 C1799 1.383 . S
C1800 C1801 1.377 . S
C1801 H1785 0.930 . S
C1801 C1800 1.377 . S
C1801 C1802 1.379 . S
C1802 H1786 0.931 . S
C1802 C1796 1.383 . S
C1802 C1801 1.379 . S
H1803 C1797 0.959 . S
H1804 C1797 0.961 . S
H1805 C1797 0.960 . S
H1806 C1798 0.930 . S
H1807 C1799 0.929 . S
H1808 C1816 0.929 . S
H1809 C1818 0.930 . S
H1810 C1820 0.930 . S
H1811 C1823 0.929 . S
H1812 C1826 0.931 1_565 S
H1813 C1828 0.960 . S
H1814 C1828 0.960 . S
H1815 C1828 0.960 . S
C1816 H1808 0.929 . S
C1816 C1817 1.377 . S
C1816 C1818 1.384 . S
C1817 C1816 1.377 . S
C1817 C1823 1.390 1_545 S
C1818 H1809 0.930 . S
C1818 C1816 1.384 . S
C1818 C1819 1.372 . S
C1819 C1818 1.372 . S
C1819 C1820 1.400 1_545 S
C1819 C1824 1.490 . S
C1820 H1810 0.930 . S
C1820 C1819 1.400 1_565 S
C1820 C1823 1.386 . S
H1821 C1837 0.930 . S
H1822 C1838 0.931 . S
C1823 H1811 0.929 . S
C1823 C1817 1.390 1_565 S
C1823 C1820 1.386 . S
C1824 C1819 1.490 . S
C1824 C1826 1.395 . S
C1824 C1827 1.403 . S
H1825 C1831 0.930 . S
C1826 H1812 0.931 1_545 S
C1826 C1824 1.395 . S
C1826 C1829 1.403 . S
C1827 C1824 1.403 . S
C1827 C1828 1.524 . S
C1827 C1831 1.400 . S
C1828 H1813 0.960 . S
C1828 H1814 0.960 . S
C1828 H1815 0.960 . S
C1828 C1827 1.524 . S
C1829 C1826 1.403 . S
C1829 C1830 1.392 . S
C1829 C1833 1.495 1_545 S
C1830 C1829 1.392 . S
C1830 C1831 1.385 . S
C1830 C1832 1.478 . S
C1831 H1825 0.930 . S
C1831 C1827 1.400 . S
C1831 C1830 1.385 . S
C1832 C1830 1.478 . S
C1832 C1834 1.381 . S
C1832 C1838 1.383 1_545 S
C1833 C1829 1.495 1_565 S
C1833 H1839 0.959 . S
C1833 H1840 0.961 . S
C1833 H1841 0.960 1_565 S
C1834 C1832 1.381 . S
C1834 C1835 1.394 . S
C1834 H1842 0.930 . S
C1835 C1834 1.394 . S
C1835 C1836 1.383 . S
C1835 H1843 0.929 . S
C1836 C1835 1.383 . S
C1836 C1837 1.377 1_545 S
C1837 H1821 0.930 . S
C1837 C1836 1.377 1_565 S
C1837 C1838 1.379 . S
C1838 H1822 0.931 . S
C1838 C1832 1.383 1_565 S
C1838 C1837 1.379 . S
H1839 C1833 0.959 . S
H1840 C1833 0.961 . S
H1841 C1833 0.960 1_545 S
H1842 C1834 0.930 . S
H1843 C1835 0.929 . S
H1844 C1852 0.929 . S
H1845 C1854 0.930 . S
H1846 C1856 0.930 . S
H1847 C1859 0.929 . S
H1848 C1862 0.930 . S
H1849 C1864 0.960 . S
H1850 C1864 0.960 . S
H1851 C1864 0.960 . S
C1852 H1844 0.929 . S
C1852 C1853 1.377 . S
C1852 C1854 1.384 . S
C1853 C1852 1.377 . S
C1853 C1859 1.390 . S
C1854 H1845 0.930 . S
C1854 C1852 1.384 . S
C1854 C1855 1.372 . S
C1855 C1854 1.372 . S
C1855 C1856 1.400 . S
C1855 C1860 1.490 . S
C1856 H1846 0.930 . S
C1856 C1855 1.400 . S
C1856 C1859 1.386 . S
H1857 C1873 0.930 . S
H1858 C1874 0.931 . S
C1859 H1847 0.929 . S
C1859 C1853 1.390 . S
C1859 C1856 1.386 . S
C1860 C1855 1.490 . S
C1860 C1862 1.395 . S
C1860 C1863 1.403 . S
H1861 C1867 0.930 . S
C1862 H1848 0.930 . S
C1862 C1860 1.395 . S
C1862 C1865 1.403 . S
C1863 C1860 1.403 . S
C1863 C1864 1.524 . S
C1863 C1867 1.400 . S
C1864 H1849 0.960 . S
C1864 H1850 0.960 . S
C1864 H1851 0.960 . S
C1864 C1863 1.524 . S
C1865 C1862 1.403 . S
C1865 C1866 1.392 . S
C1865 C1869 1.495 . S
C1866 C1865 1.392 . S
C1866 C1867 1.385 . S
C1866 C1868 1.478 . S
C1867 H1861 0.930 . S
C1867 C1863 1.400 . S
C1867 C1866 1.385 . S
C1868 C1866 1.478 . S
C1868 C1870 1.381 . S
C1868 C1874 1.383 . S
C1869 C1865 1.495 . S
C1869 H1875 0.959 . S
C1869 H1876 0.961 . S
C1869 H1877 0.960 . S
C1870 C1868 1.381 . S
C1870 C1871 1.394 . S
C1870 H1878 0.930 . S
C1871 C1870 1.394 . S
C1871 C1872 1.383 . S
C1871 H1879 0.929 . S
C1872 C1871 1.383 . S
C1872 C1873 1.377 . S
C1873 H1857 0.930 . S
C1873 C1872 1.377 . S
C1873 C1874 1.379 . S
C1874 H1858 0.931 . S
C1874 C1868 1.383 . S
C1874 C1873 1.379 . S
H1875 C1869 0.959 . S
H1876 C1869 0.961 . S
H1877 C1869 0.960 . S
H1878 C1870 0.930 . S
H1879 C1871 0.929 . S
H1880 C1888 0.929 . S
H1881 C1890 0.930 . S
H1882 C1892 0.930 . S
H1883 C1895 0.929 . S
H1884 C1898 0.930 . S
H1885 C1900 0.960 . S
H1886 C1900 0.960 . S
H1887 C1900 0.960 . S
C1888 H1880 0.929 . S
C1888 C1889 1.377 . S
C1888 C1890 1.384 . S
C1889 C1888 1.377 . S
C1889 C1895 1.390 . S
C1890 H1881 0.930 . S
C1890 C1888 1.384 . S
C1890 C1891 1.372 . S
C1891 C1890 1.372 . S
C1891 C1892 1.400 . S
C1891 C1896 1.490 . S
C1892 H1882 0.930 . S
C1892 C1891 1.400 . S
C1892 C1895 1.386 . S
H1893 C1909 0.930 . S
H1894 C1910 0.931 . S
C1895 H1883 0.929 . S
C1895 C1889 1.390 . S
C1895 C1892 1.386 . S
C1896 C1891 1.490 . S
C1896 C1898 1.395 . S
C1896 C1899 1.403 . S
H1897 C1903 0.930 . S
C1898 H1884 0.930 . S
C1898 C1896 1.395 . S
C1898 C1901 1.403 . S
C1899 C1896 1.403 . S
C1899 C1900 1.524 . S
C1899 C1903 1.400 . S
C1900 H1885 0.960 . S
C1900 H1886 0.960 . S
C1900 H1887 0.960 . S
C1900 C1899 1.524 . S
C1901 C1898 1.403 . S
C1901 C1902 1.392 . S
C1901 C1905 1.495 . S
C1902 C1901 1.392 . S
C1902 C1903 1.385 . S
C1902 C1904 1.478 . S
C1903 H1897 0.930 . S
C1903 C1899 1.400 . S
C1903 C1902 1.385 . S
C1904 C1902 1.478 . S
C1904 C1906 1.381 . S
C1904 C1910 1.383 . S
C1905 C1901 1.495 . S
C1905 H1911 0.959 . S
C1905 H1912 0.961 . S
C1905 H1913 0.960 . S
C1906 C1904 1.381 . S
C1906 C1907 1.394 . S
C1906 H1914 0.930 . S
C1907 C1906 1.394 . S
C1907 C1908 1.383 . S
C1907 H1915 0.929 . S
C1908 C1907 1.383 . S
C1908 C1909 1.377 . S
C1909 H1893 0.930 . S
C1909 C1908 1.377 . S
C1909 C1910 1.379 . S
C1910 H1894 0.931 . S
C1910 C1904 1.383 . S
C1910 C1909 1.379 . S
H1911 C1905 0.959 . S
H1912 C1905 0.961 . S
H1913 C1905 0.960 . S
H1914 C1906 0.930 . S
H1915 C1907 0.929 . S
H1916 C1924 0.929 . S
H1917 C1926 0.930 . S
H1918 C1928 0.930 . S
H1919 C1931 0.929 . S
H1920 C1934 0.930 . S
H1921 C1936 0.960 . S
H1922 C1936 0.960 . S
H1923 C1936 0.960 . S
C1924 H1916 0.929 . S
C1924 C1925 1.377 . S
C1924 C1926 1.384 . S
C1925 C1924 1.377 . S
C1925 C1931 1.390 . S
C1926 H1917 0.930 . S
C1926 C1924 1.384 . S
C1926 C1927 1.372 . S
C1927 C1926 1.372 . S
C1927 C1928 1.400 . S
C1927 C1932 1.490 . S
C1928 H1918 0.930 . S
C1928 C1927 1.400 . S
C1928 C1931 1.386 . S
H1929 C1945 0.930 . S
H1930 C1946 0.931 . S
C1931 H1919 0.929 . S
C1931 C1925 1.390 . S
C1931 C1928 1.386 . S
C1932 C1927 1.490 . S
C1932 C1934 1.395 . S
C1932 C1935 1.403 . S
H1933 C1939 0.930 . S
C1934 H1920 0.930 . S
C1934 C1932 1.395 . S
C1934 C1937 1.403 . S
C1935 C1932 1.403 . S
C1935 C1936 1.524 . S
C1935 C1939 1.400 . S
C1936 H1921 0.960 . S
C1936 H1922 0.960 . S
C1936 H1923 0.960 . S
C1936 C1935 1.524 . S
C1937 C1934 1.403 . S
C1937 C1938 1.392 . S
C1937 C1941 1.495 . S
C1938 C1937 1.392 . S
C1938 C1939 1.385 . S
C1938 C1940 1.478 . S
C1939 H1933 0.930 . S
C1939 C1935 1.400 . S
C1939 C1938 1.385 . S
C1940 C1938 1.478 . S
C1940 C1942 1.381 . S
C1940 C1946 1.383 . S
C1941 C1937 1.495 . S
C1941 H1947 0.959 . S
C1941 H1948 0.961 . S
C1941 H1949 0.960 . S
C1942 C1940 1.381 . S
C1942 C1943 1.394 . S
C1942 H1950 0.930 . S
C1943 C1942 1.394 . S
C1943 C1944 1.383 . S
C1943 H1951 0.929 . S
C1944 C1943 1.383 . S
C1944 C1945 1.377 . S
C1945 H1929 0.930 . S
C1945 C1944 1.377 . S
C1945 C1946 1.379 . S
C1946 H1930 0.931 . S
C1946 C1940 1.383 . S
C1946 C1945 1.379 . S
H1947 C1941 0.959 . S
H1948 C1941 0.961 . S
H1949 C1941 0.960 . S
H1950 C1942 0.930 . S
H1951 C1943 0.929 . S
H1952 C1960 0.935 . S
H1953 C1962 0.930 . S
H1954 C1964 0.930 . S
H1955 C1967 0.929 . S
H1956 C1970 0.930 . S
H1957 C1972 0.960 . S
H1958 C1972 0.960 . S
H1959 C1972 0.960 . S
C1960 H1952 0.935 . S
C1960 C1961 1.392 . S
C1960 C1962 1.366 1_565 S
C1961 C1960 1.392 . S
C1961 C1967 1.390 . S
C1962 H1953 0.930 . S
C1962 C1960 1.366 1_545 S
C1962 C1963 1.372 . S
C1963 C1962 1.372 . S
C1963 C1964 1.400 . S
C1963 C1968 1.490 . S
C1964 H1954 0.930 . S
C1964 C1963 1.400 . S
C1964 C1967 1.386 1_545 S
H1965 C1981 0.930 . S
H1966 C1982 0.931 . S
C1967 H1955 0.929 . S
C1967 C1961 1.390 . S
C1967 C1964 1.386 1_565 S
C1968 C1963 1.490 . S
C1968 C1970 1.395 . S
C1968 C1971 1.403 1_545 S
H1969 C1975 0.930 1_565 S
C1970 H1956 0.930 . S
C1970 C1968 1.395 . S
C1970 C1973 1.403 . S
C1971 C1968 1.403 1_565 S
C1971 C1972 1.524 . S
C1971 C1975 1.400 1_565 S
C1972 H1957 0.960 . S
C1972 H1958 0.960 . S
C1972 H1959 0.960 . S
C1972 C1971 1.524 . S
C1973 C1970 1.403 . S
C1973 C1974 1.392 . S
C1973 C1977 1.495 . S
C1974 C1973 1.392 . S
C1974 C1975 1.385 . S
C1974 C1976 1.478 . S
C1975 H1969 0.930 1_545 S
C1975 C1971 1.400 1_545 S
C1975 C1974 1.385 . S
C1976 C1974 1.478 . S
C1976 C1978 1.381 . S
C1976 C1982 1.383 . S
C1977 C1973 1.495 . S
C1977 H1983 0.959 . S
C1977 H1984 0.961 . S
C1977 H1985 0.960 . S
C1978 C1976 1.381 . S
C1978 C1979 1.394 . S
C1978 H1986 0.930 . S
C1979 C1978 1.394 . S
C1979 C1980 1.383 . S
C1979 H1987 0.929 . S
C1980 C1979 1.383 . S
C1980 C1981 1.377 . S
C1981 H1965 0.930 . S
C1981 C1980 1.377 . S
C1981 C1982 1.379 . S
C1982 H1966 0.931 . S
C1982 C1976 1.383 . S
C1982 C1981 1.379 . S
H1983 C1977 0.959 . S
H1984 C1977 0.961 . S
H1985 C1977 0.960 . S
H1986 C1978 0.930 . S
H1987 C1979 0.929 . S
H1988 C1996 0.929 . S
H1989 C1998 0.930 . S
H1990 C2000 0.930 . S
H1991 C2003 0.929 . S
H1992 C2006 0.930 . S
H1993 C2008 0.960 . S
H1994 C2008 0.960 . S
H1995 C2008 0.960 . S
C1996 H1988 0.929 . S
C1996 C1997 1.377 . S
C1996 C1998 1.384 . S
C1997 C1996 1.377 . S
C1997 C2003 1.390 . S
C1998 H1989 0.930 . S
C1998 C1996 1.384 . S
C1998 C1999 1.372 . S
C1999 C1998 1.372 . S
C1999 C2000 1.400 . S
C1999 C2004 1.490 . S
C2000 H1990 0.930 . S
C2000 C1999 1.400 . S
C2000 C2003 1.386 . S
H2001 C2017 0.930 . S
H2002 C2018 0.931 . S
C2003 H1991 0.929 . S
C2003 C1997 1.390 . S
C2003 C2000 1.386 . S
C2004 C1999 1.490 . S
C2004 C2006 1.395 . S
C2004 C2007 1.403 . S
H2005 C2011 0.930 . S
C2006 H1992 0.930 . S
C2006 C2004 1.395 . S
C2006 C2009 1.403 . S
C2007 C2004 1.403 . S
C2007 C2008 1.524 . S
C2007 C2011 1.400 . S
C2008 H1993 0.960 . S
C2008 H1994 0.960 . S
C2008 H1995 0.960 . S
C2008 C2007 1.524 . S
C2009 C2006 1.403 . S
C2009 C2010 1.392 . S
C2009 C2013 1.495 . S
C2010 C2009 1.392 . S
C2010 C2011 1.385 . S
C2010 C2012 1.478 . S
C2011 H2005 0.930 . S
C2011 C2007 1.400 . S
C2011 C2010 1.385 . S
C2012 C2010 1.478 . S
C2012 C2014 1.381 . S
C2012 C2018 1.383 . S
C2013 C2009 1.495 . S
C2013 H2019 0.959 . S
C2013 H2020 0.961 . S
C2013 H2021 0.960 . S
C2014 C2012 1.381 . S
C2014 C2015 1.394 . S
C2014 H2022 0.930 . S
C2015 C2014 1.394 . S
C2015 C2016 1.383 . S
C2015 H2023 0.929 . S
C2016 C2015 1.383 . S
C2016 C2017 1.377 . S
C2017 H2001 0.930 . S
C2017 C2016 1.377 . S
C2017 C2018 1.379 . S
C2018 H2002 0.931 . S
C2018 C2012 1.383 . S
C2018 C2017 1.379 . S
H2019 C2013 0.959 . S
H2020 C2013 0.961 . S
H2021 C2013 0.960 . S
H2022 C2014 0.930 . S
H2023 C2015 0.929 . S
H2024 C2032 0.929 . S
H2025 C2034 0.930 . S
H2026 C2036 0.930 . S
H2027 C2039 0.929 . S
H2028 C2042 0.930 . S
H2029 C2044 0.960 . S
H2030 C2044 0.960 . S
H2031 C2044 0.960 . S
C2032 H2024 0.929 . S
C2032 C2033 1.377 . S
C2032 C2034 1.384 . S
C2033 C2032 1.377 . S
C2033 C2039 1.390 . S
C2034 H2025 0.930 . S
C2034 C2032 1.384 . S
C2034 C2035 1.372 . S
C2035 C2034 1.372 . S
C2035 C2036 1.400 . S
C2035 C2040 1.490 . S
C2036 H2026 0.930 . S
C2036 C2035 1.400 . S
C2036 C2039 1.386 . S
H2037 C2053 0.930 . S
H2038 C2054 0.931 . S
C2039 H2027 0.929 . S
C2039 C2033 1.390 . S
C2039 C2036 1.386 . S
C2040 C2035 1.490 . S
C2040 C2042 1.395 1_545 S
C2040 C2043 1.403 . S
H2041 C2047 0.930 . S
C2042 H2028 0.930 . S
C2042 C2040 1.395 1_565 S
C2042 C2045 1.403 . S
C2043 C2040 1.403 . S
C2043 C2044 1.524 . S
C2043 C2047 1.400 . S
C2044 H2029 0.960 . S
C2044 H2030 0.960 . S
C2044 H2031 0.960 . S
C2044 C2043 1.524 . S
C2045 C2042 1.403 . S
C2045 C2046 1.392 1_565 S
C2045 C2049 1.495 . S
C2046 C2045 1.392 1_545 S
C2046 C2047 1.385 . S
C2046 C2048 1.478 . S
C2047 H2041 0.930 . S
C2047 C2043 1.400 . S
C2047 C2046 1.385 . S
C2048 C2046 1.478 . S
C2048 C2050 1.378 . S
C2048 C2054 1.383 . S
C2049 C2045 1.495 . S
C2049 H2055 0.959 . S
C2049 H2056 0.961 . S
C2049 H2057 0.960 . S
C2050 C2048 1.378 . S
C2050 C2051 1.394 1_545 S
C2050 H2058 0.933 1_545 S
C2051 C2050 1.394 1_565 S
C2051 C2052 1.364 1_565 S
C2051 H2059 0.950 . S
C2052 C2051 1.364 1_545 S
C2052 C2053 1.377 . S
C2053 H2037 0.930 . S
C2053 C2052 1.377 . S
C2053 C2054 1.379 . S
C2054 H2038 0.931 . S
C2054 C2048 1.383 . S
C2054 C2053 1.379 . S
H2055 C2049 0.959 . S
H2056 C2049 0.961 . S
H2057 C2049 0.960 . S
H2058 C2050 0.933 1_565 S
H2059 C2051 0.950 . S
H2060 C2068 0.929 . S
H2061 C2070 0.930 . S
H2062 C2072 0.930 . S
H2063 C2075 0.929 . S
H2064 C2078 0.930 . S
H2065 C2080 0.960 . S
H2066 C2080 0.960 . S
H2067 C2080 0.960 . S
C2068 H2060 0.929 . S
C2068 C2069 1.377 . S
C2068 C2070 1.384 . S
C2069 C2068 1.377 . S
C2069 C2075 1.390 . S
C2070 H2061 0.930 . S
C2070 C2068 1.384 . S
C2070 C2071 1.372 . S
C2071 C2070 1.372 . S
C2071 C2072 1.400 . S
C2071 C2076 1.490 . S
C2072 H2062 0.930 . S
C2072 C2071 1.400 . S
C2072 C2075 1.386 . S
H2073 C2089 0.930 . S
H2074 C2090 0.931 . S
C2075 H2063 0.929 . S
C2075 C2069 1.390 . S
C2075 C2072 1.386 . S
C2076 C2071 1.490 . S
C2076 C2078 1.395 . S
C2076 C2079 1.403 . S
H2077 C2083 0.930 . S
C2078 H2064 0.930 . S
C2078 C2076 1.395 . S
C2078 C2081 1.403 . S
C2079 C2076 1.403 . S
C2079 C2080 1.524 . S
C2079 C2083 1.400 . S
C2080 H2065 0.960 . S
C2080 H2066 0.960 . S
C2080 H2067 0.960 . S
C2080 C2079 1.524 . S
C2081 C2078 1.403 . S
C2081 C2082 1.392 . S
C2081 C2085 1.495 . S
C2082 C2081 1.392 . S
C2082 C2083 1.385 . S
C2082 C2084 1.478 . S
C2083 H2077 0.930 . S
C2083 C2079 1.400 . S
C2083 C2082 1.385 . S
C2084 C2082 1.478 . S
C2084 C2086 1.381 . S
C2084 C2090 1.383 . S
C2085 C2081 1.495 . S
C2085 H2091 0.959 . S
C2085 H2092 0.961 . S
C2085 H2093 0.960 . S
C2086 C2084 1.381 . S
C2086 C2087 1.394 . S
C2086 H2094 0.930 . S
C2087 C2086 1.394 . S
C2087 C2088 1.383 . S
C2087 H2095 0.929 . S
C2088 C2087 1.383 . S
C2088 C2089 1.377 . S
C2089 H2073 0.930 . S
C2089 C2088 1.377 . S
C2089 C2090 1.379 . S
C2090 H2074 0.931 . S
C2090 C2084 1.383 . S
C2090 C2089 1.379 . S
H2091 C2085 0.959 . S
H2092 C2085 0.961 . S
H2093 C2085 0.960 . S
H2094 C2086 0.930 . S
H2095 C2087 0.929 . S
H2096 C2104 0.929 . S
H2097 C2106 0.930 . S
H2098 C2108 0.930 . S
H2099 C2111 0.929 . S
H2100 C2114 0.930 . S
H2101 C2116 0.960 . S
H2102 C2116 0.960 . S
H2103 C2116 0.960 . S
C2104 H2096 0.929 . S
C2104 C2105 1.362 1_556 S
C2104 C2106 1.384 . S
C2105 C2104 1.362 1_554 S
C2105 C2111 1.404 . S
C2106 H2097 0.930 . S
C2106 C2104 1.384 . S
C2106 C2107 1.372 . S
C2107 C2106 1.372 . S
C2107 C2108 1.400 1_556 S
C2107 C2112 1.490 . S
C2108 H2098 0.930 . S
C2108 C2107 1.400 1_554 S
C2108 C2111 1.386 . S
H2109 C2125 0.930 . S
H2110 C2126 0.931 . S
C2111 H2099 0.929 . S
C2111 C2105 1.404 . S
C2111 C2108 1.386 . S
C2112 C2107 1.490 . S
C2112 C2114 1.395 . S
C2112 C2115 1.403 1_556 S
H2113 C2119 0.930 . S
C2114 H2100 0.930 . S
C2114 C2112 1.395 . S
C2114 C2117 1.403 . S
C2115 C2112 1.403 1_554 S
C2115 C2116 1.524 . S
C2115 C2119 1.400 . S
C2116 H2101 0.960 . S
C2116 H2102 0.960 . S
C2116 H2103 0.960 . S
C2116 C2115 1.524 . S
C2117 C2114 1.403 . S
C2117 C2118 1.392 . S
C2117 C2121 1.495 . S
C2118 C2117 1.392 . S
C2118 C2119 1.385 1_556 S
C2118 C2120 1.478 . S
C2119 H2113 0.930 . S
C2119 C2115 1.400 . S
C2119 C2118 1.385 1_554 S
C2120 C2118 1.478 . S
C2120 C2122 1.381 . S
C2120 C2126 1.383 1_556 S
C2121 C2117 1.495 . S
C2121 H2127 0.959 . S
C2121 H2128 0.961 . S
C2121 H2129 0.960 . S
C2122 C2120 1.381 . S
C2122 C2123 1.394 . S
C2122 H2130 0.930 . S
C2123 C2122 1.394 . S
C2123 C2124 1.383 . S
C2123 H2131 0.929 . S
C2124 C2123 1.383 . S
C2124 C2125 1.377 1_556 S
C2125 H2109 0.930 . S
C2125 C2124 1.377 1_554 S
C2125 C2126 1.379 . S
C2126 H2110 0.931 . S
C2126 C2120 1.383 1_554 S
C2126 C2125 1.379 . S
H2127 C2121 0.959 . S
H2128 C2121 0.961 . S
H2129 C2121 0.960 . S
H2130 C2122 0.930 . S
H2131 C2123 0.929 . S
H2132 C2140 0.929 . S
H2133 C2142 0.930 . S
H2134 C2144 0.930 1_556 S
H2135 C2147 0.929 1_556 S
H2136 C2150 0.930 . S
H2137 C2152 0.960 . S
H2138 C2152 0.960 . S
H2139 C2152 0.960 . S
C2140 H2132 0.929 . S
C2140 C2141 1.377 . S
C2140 C2142 1.384 . S
C2141 C2140 1.377 . S
C2141 C2147 1.390 . S
C2142 H2133 0.930 . S
C2142 C2140 1.384 . S
C2142 C2143 1.372 . S
C2143 C2142 1.372 . S
C2143 C2144 1.400 . S
C2143 C2148 1.490 . S
C2144 H2134 0.930 1_554 S
C2144 C2143 1.400 . S
C2144 C2147 1.386 . S
H2145 C2161 0.930 1_556 S
H2146 C2162 0.931 1_556 S
C2147 H2135 0.929 1_554 S
C2147 C2141 1.390 . S
C2147 C2144 1.386 . S
C2148 C2143 1.490 . S
C2148 C2150 1.395 . S
C2148 C2151 1.403 . S
H2149 C2155 0.930 1_556 S
C2150 H2136 0.930 . S
C2150 C2148 1.395 . S
C2150 C2153 1.403 . S
C2151 C2148 1.403 . S
C2151 C2152 1.524 1_554 S
C2151 C2155 1.400 . S
C2152 H2137 0.960 . S
C2152 H2138 0.960 . S
C2152 H2139 0.960 . S
C2152 C2151 1.524 1_556 S
C2153 C2150 1.403 . S
C2153 C2154 1.392 . S
C2153 C2157 1.495 . S
C2154 C2153 1.392 . S
C2154 C2155 1.385 . S
C2154 C2156 1.478 . S
C2155 H2149 0.930 1_554 S
C2155 C2151 1.400 . S
C2155 C2154 1.385 . S
C2156 C2154 1.478 . S
C2156 C2158 1.381 . S
C2156 C2162 1.383 . S
C2157 C2153 1.495 . S
C2157 H2163 0.959 . S
C2157 H2164 0.961 . S
C2157 H2165 0.960 . S
C2158 C2156 1.381 . S
C2158 C2159 1.394 . S
C2158 H2166 0.930 . S
C2159 C2158 1.394 . S
C2159 C2160 1.383 . S
C2159 H2167 0.929 . S
C2160 C2159 1.383 . S
C2160 C2161 1.377 . S
C2161 H2145 0.930 1_554 S
C2161 C2160 1.377 . S
C2161 C2162 1.379 . S
C2162 H2146 0.931 1_554 S
C2162 C2156 1.383 . S
C2162 C2161 1.379 . S
H2163 C2157 0.959 . S
H2164 C2157 0.961 . S
H2165 C2157 0.960 . S
H2166 C2158 0.930 . S
H2167 C2159 0.929 . S
H2168 C2176 0.929 . S
H2169 C2178 0.930 . S
H2170 C2180 0.930 . S
H2171 C2183 0.929 . S
H2172 C2186 0.930 . S
H2173 C2188 0.960 . S
H2174 C2188 0.960 . S
H2175 C2188 0.960 . S
C2176 H2168 0.929 . S
C2176 C2177 1.377 . S
C2176 C2178 1.384 . S
C2177 C2176 1.377 . S
C2177 C2183 1.390 . S
C2178 H2169 0.930 . S
C2178 C2176 1.384 . S
C2178 C2179 1.372 . S
C2179 C2178 1.372 . S
C2179 C2180 1.400 . S
C2179 C2184 1.490 . S
C2180 H2170 0.930 . S
C2180 C2179 1.400 . S
C2180 C2183 1.386 . S
H2181 C2197 0.930 . S
H2182 C2198 0.931 . S
C2183 H2171 0.929 . S
C2183 C2177 1.390 . S
C2183 C2180 1.386 . S
C2184 C2179 1.490 . S
C2184 C2186 1.395 . S
C2184 C2187 1.403 . S
H2185 C2191 0.930 . S
C2186 H2172 0.930 . S
C2186 C2184 1.395 . S
C2186 C2189 1.403 . S
C2187 C2184 1.403 . S
C2187 C2188 1.524 . S
C2187 C2191 1.400 . S
C2188 H2173 0.960 . S
C2188 H2174 0.960 . S
C2188 H2175 0.960 . S
C2188 C2187 1.524 . S
C2189 C2186 1.403 . S
C2189 C2190 1.392 . S
C2189 C2193 1.495 . S
C2190 C2189 1.392 . S
C2190 C2191 1.385 . S
C2190 C2192 1.478 . S
C2191 H2185 0.930 . S
C2191 C2187 1.400 . S
C2191 C2190 1.385 . S
C2192 C2190 1.478 . S
C2192 C2194 1.381 . S
C2192 C2198 1.383 . S
C2193 C2189 1.495 . S
C2193 H2199 0.959 . S
C2193 H2200 0.961 . S
C2193 H2201 0.960 . S
C2194 C2192 1.381 . S
C2194 C2195 1.394 . S
C2194 H2202 0.930 . S
C2195 C2194 1.394 . S
C2195 C2196 1.383 . S
C2195 H2203 0.929 . S
C2196 C2195 1.383 . S
C2196 C2197 1.377 . S
C2197 H2181 0.930 . S
C2197 C2196 1.377 . S
C2197 C2198 1.379 . S
C2198 H2182 0.931 . S
C2198 C2192 1.383 . S
C2198 C2197 1.379 . S
H2199 C2193 0.959 . S
H2200 C2193 0.961 . S
H2201 C2193 0.960 . S
H2202 C2194 0.930 . S
H2203 C2195 0.929 . S
H2204 C2212 0.929 . S
H2205 C2214 0.930 . S
H2206 C2216 0.930 . S
H2207 C2219 0.929 . S
H2208 C2222 0.930 . S
H2209 C2224 0.960 . S
H2210 C2224 0.960 . S
H2211 C2224 0.960 . S
C2212 H2204 0.929 . S
C2212 C2213 1.377 . S
C2212 C2214 1.384 . S
C2213 C2212 1.377 . S
C2213 C2219 1.390 . S
C2214 H2205 0.930 . S
C2214 C2212 1.384 . S
C2214 C2215 1.372 . S
C2215 C2214 1.372 . S
C2215 C2216 1.400 . S
C2215 C2220 1.490 . S
C2216 H2206 0.930 . S
C2216 C2215 1.400 . S
C2216 C2219 1.386 . S
H2217 C2233 0.930 . S
H2218 C2234 0.931 . S
C2219 H2207 0.929 . S
C2219 C2213 1.390 . S
C2219 C2216 1.386 . S
C2220 C2215 1.490 . S
C2220 C2222 1.395 . S
C2220 C2223 1.403 . S
H2221 C2227 0.930 . S
C2222 H2208 0.930 . S
C2222 C2220 1.395 . S
C2222 C2225 1.403 . S
C2223 C2220 1.403 . S
C2223 C2224 1.524 . S
C2223 C2227 1.400 . S
C2224 H2209 0.960 . S
C2224 H2210 0.960 . S
C2224 H2211 0.960 . S
C2224 C2223 1.524 . S
C2225 C2222 1.403 . S
C2225 C2226 1.392 . S
C2225 C2229 1.495 . S
C2226 C2225 1.392 . S
C2226 C2227 1.385 . S
C2226 C2228 1.478 . S
C2227 H2221 0.930 . S
C2227 C2223 1.400 . S
C2227 C2226 1.385 . S
C2228 C2226 1.478 . S
C2228 C2230 1.381 . S
C2228 C2234 1.383 . S
C2229 C2225 1.495 . S
C2229 H2235 0.959 . S
C2229 H2236 0.961 . S
C2229 H2237 0.960 . S
C2230 C2228 1.381 . S
C2230 C2231 1.394 . S
C2230 H2238 0.930 . S
C2231 C2230 1.394 . S
C2231 C2232 1.383 . S
C2231 H2239 0.929 . S
C2232 C2231 1.383 . S
C2232 C2233 1.377 . S
C2233 H2217 0.930 . S
C2233 C2232 1.377 . S
C2233 C2234 1.379 . S
C2234 H2218 0.931 . S
C2234 C2228 1.383 . S
C2234 C2233 1.379 . S
H2235 C2229 0.959 . S
H2236 C2229 0.961 . S
H2237 C2229 0.960 . S
H2238 C2230 0.930 . S
H2239 C2231 0.929 . S
H2240 C2248 0.929 . S
H2241 C2250 0.930 . S
H2242 C2252 0.930 . S
H2243 C2255 0.929 . S
H2244 C2258 0.930 . S
H2245 C2260 0.960 . S
H2246 C2260 0.960 . S
H2247 C2260 0.960 . S
C2248 H2240 0.929 . S
C2248 C2249 1.377 . S
C2248 C2250 1.384 . S
C2249 C2248 1.377 . S
C2249 C2255 1.390 . S
C2250 H2241 0.930 . S
C2250 C2248 1.384 . S
C2250 C2251 1.372 . S
C2251 C2250 1.372 . S
C2251 C2252 1.400 . S
C2251 C2256 1.490 . S
C2252 H2242 0.930 . S
C2252 C2251 1.400 . S
C2252 C2255 1.386 . S
H2253 C2269 0.930 . S
H2254 C2270 0.931 . S
C2255 H2243 0.929 . S
C2255 C2249 1.390 . S
C2255 C2252 1.386 . S
C2256 C2251 1.490 . S
C2256 C2258 1.395 . S
C2256 C2259 1.403 . S
H2257 C2263 0.930 . S
C2258 H2244 0.930 . S
C2258 C2256 1.395 . S
C2258 C2261 1.403 . S
C2259 C2256 1.403 . S
C2259 C2260 1.524 . S
C2259 C2263 1.400 . S
C2260 H2245 0.960 . S
C2260 H2246 0.960 . S
C2260 H2247 0.960 . S
C2260 C2259 1.524 . S
C2261 C2258 1.403 . S
C2261 C2262 1.392 . S
C2261 C2265 1.495 . S
C2262 C2261 1.392 . S
C2262 C2263 1.385 . S
C2262 C2264 1.478 . S
C2263 H2257 0.930 . S
C2263 C2259 1.400 . S
C2263 C2262 1.385 . S
C2264 C2262 1.478 . S
C2264 C2266 1.381 . S
C2264 C2270 1.383 . S
C2265 C2261 1.495 . S
C2265 H2271 0.959 . S
C2265 H2272 0.961 . S
C2265 H2273 0.960 . S
C2266 C2264 1.381 . S
C2266 C2267 1.394 . S
C2266 H2274 0.930 . S
C2267 C2266 1.394 . S
C2267 C2268 1.383 . S
C2267 H2275 0.929 . S
C2268 C2267 1.383 . S
C2268 C2269 1.377 . S
C2269 H2253 0.930 . S
C2269 C2268 1.377 . S
C2269 C2270 1.379 . S
C2270 H2254 0.931 . S
C2270 C2264 1.383 . S
C2270 C2269 1.379 . S
H2271 C2265 0.959 . S
H2272 C2265 0.961 . S
H2273 C2265 0.960 . S
H2274 C2266 0.930 . S
H2275 C2267 0.929 . S
H2276 C2284 0.929 . S
H2277 C2286 0.930 . S
H2278 C2288 0.930 . S
H2279 C2291 0.929 . S
H2280 C2294 0.930 . S
H2281 C2296 0.960 . S
H2282 C2296 0.960 . S
H2283 C2296 0.960 . S
C2284 H2276 0.929 . S
C2284 C2285 1.377 . S
C2284 C2286 1.384 . S
C2285 C2284 1.377 . S
C2285 C2291 1.390 . S
C2286 H2277 0.930 . S
C2286 C2284 1.384 . S
C2286 C2287 1.372 . S
C2287 C2286 1.372 . S
C2287 C2288 1.400 . S
C2287 C2292 1.490 . S
C2288 H2278 0.930 . S
C2288 C2287 1.400 . S
C2288 C2291 1.386 . S
H2289 C2305 0.930 . S
H2290 C2306 0.931 . S
C2291 H2279 0.929 . S
C2291 C2285 1.390 . S
C2291 C2288 1.386 . S
C2292 C2287 1.490 . S
C2292 C2294 1.395 . S
C2292 C2295 1.403 . S
H2293 C2299 0.930 . S
C2294 H2280 0.930 . S
C2294 C2292 1.395 . S
C2294 C2297 1.403 . S
C2295 C2292 1.403 . S
C2295 C2296 1.524 . S
C2295 C2299 1.400 . S
C2296 H2281 0.960 . S
C2296 H2282 0.960 . S
C2296 H2283 0.960 . S
C2296 C2295 1.524 . S
C2297 C2294 1.403 . S
C2297 C2298 1.392 . S
C2297 C2301 1.495 . S
C2298 C2297 1.392 . S
C2298 C2299 1.385 . S
C2298 C2300 1.478 . S
C2299 H2293 0.930 . S
C2299 C2295 1.400 . S
C2299 C2298 1.385 . S
C2300 C2298 1.478 . S
C2300 C2302 1.381 . S
C2300 C2306 1.383 . S
C2301 C2297 1.495 . S
C2301 H2307 0.959 . S
C2301 H2308 0.961 . S
C2301 H2309 0.960 . S
C2302 C2300 1.381 . S
C2302 C2303 1.394 1_565 S
C2302 H2310 0.930 . S
C2303 C2302 1.394 1_545 S
C2303 C2304 1.383 1_545 S
C2303 H2311 0.929 . S
C2304 C2303 1.383 1_565 S
C2304 C2305 1.377 . S
C2305 H2289 0.930 . S
C2305 C2304 1.377 . S
C2305 C2306 1.379 . S
C2306 H2290 0.931 . S
C2306 C2300 1.383 . S
C2306 C2305 1.379 . S
H2307 C2301 0.959 . S
H2308 C2301 0.961 . S
H2309 C2301 0.960 . S
H2310 C2302 0.930 . S
H2311 C2303 0.929 . S
H2312 C2320 0.929 . S
H2313 C2322 0.930 . S
H2314 C2324 0.930 . S
H2315 C2327 0.929 . S
H2316 C2330 0.930 . S
H2317 C2332 0.960 . S
H2318 C2332 0.960 . S
H2319 C2332 0.960 . S
C2320 H2312 0.929 . S
C2320 C2321 1.377 . S
C2320 C2322 1.384 . S
C2321 C2320 1.377 . S
C2321 C2327 1.390 . S
C2322 H2313 0.930 . S
C2322 C2320 1.384 . S
C2322 C2323 1.372 . S
C2323 C2322 1.372 . S
C2323 C2324 1.400 . S
C2323 C2328 1.490 . S
C2324 H2314 0.930 . S
C2324 C2323 1.400 . S
C2324 C2327 1.386 . S
H2325 C2341 0.930 . S
H2326 C2342 0.931 . S
C2327 H2315 0.929 . S
C2327 C2321 1.390 . S
C2327 C2324 1.386 . S
C2328 C2323 1.490 . S
C2328 C2330 1.395 . S
C2328 C2331 1.403 . S
H2329 C2335 0.930 . S
C2330 H2316 0.930 . S
C2330 C2328 1.395 . S
C2330 C2333 1.403 . S
C2331 C2328 1.403 . S
C2331 C2332 1.524 . S
C2331 C2335 1.400 . S
C2332 H2317 0.960 . S
C2332 H2318 0.960 . S
C2332 H2319 0.960 . S
C2332 C2331 1.524 . S
C2333 C2330 1.403 . S
C2333 C2334 1.392 . S
C2333 C2337 1.495 . S
C2334 C2333 1.392 . S
C2334 C2335 1.385 . S
C2334 C2336 1.478 . S
C2335 H2329 0.930 . S
C2335 C2331 1.400 . S
C2335 C2334 1.385 . S
C2336 C2334 1.478 . S
C2336 C2338 1.381 . S
C2336 C2342 1.383 . S
C2337 C2333 1.495 . S
C2337 H2343 0.959 . S
C2337 H2344 0.961 . S
C2337 H2345 0.960 . S
C2338 C2336 1.381 . S
C2338 C2339 1.394 . S
C2338 H2346 0.930 . S
C2339 C2338 1.394 . S
C2339 C2340 1.383 . S
C2339 H2347 0.929 . S
C2340 C2339 1.383 . S
C2340 C2341 1.377 . S
C2341 H2325 0.930 . S
C2341 C2340 1.377 . S
C2341 C2342 1.379 . S
C2342 H2326 0.931 . S
C2342 C2336 1.383 . S
C2342 C2341 1.379 . S
H2343 C2337 0.959 . S
H2344 C2337 0.961 . S
H2345 C2337 0.960 . S
H2346 C2338 0.930 . S
H2347 C2339 0.929 . S
H2348 C2356 0.929 . S
H2349 C2358 0.930 . S
H2350 C2360 0.930 . S
H2351 C2363 0.929 . S
H2352 C2366 0.930 . S
H2353 C2368 0.960 . S
H2354 C2368 0.960 . S
H2355 C2368 0.960 . S
C2356 H2348 0.929 . S
C2356 C2357 1.377 . S
C2356 C2358 1.384 . S
C2357 C2356 1.377 . S
C2357 C2363 1.390 . S
C2358 H2349 0.930 . S
C2358 C2356 1.384 . S
C2358 C2359 1.372 . S
C2359 C2358 1.372 . S
C2359 C2360 1.400 . S
C2359 C2364 1.490 . S
C2360 H2350 0.930 . S
C2360 C2359 1.400 . S
C2360 C2363 1.386 . S
H2361 C2377 0.930 . S
H2362 C2378 0.931 . S
C2363 H2351 0.929 . S
C2363 C2357 1.390 . S
C2363 C2360 1.386 . S
C2364 C2359 1.490 . S
C2364 C2366 1.395 . S
C2364 C2367 1.403 . S
H2365 C2371 0.930 . S
C2366 H2352 0.930 . S
C2366 C2364 1.395 . S
C2366 C2369 1.403 . S
C2367 C2364 1.403 . S
C2367 C2368 1.524 . S
C2367 C2371 1.400 . S
C2368 H2353 0.960 . S
C2368 H2354 0.960 . S
C2368 H2355 0.960 . S
C2368 C2367 1.524 . S
C2369 C2366 1.403 . S
C2369 C2370 1.392 . S
C2369 C2373 1.495 . S
C2370 C2369 1.392 . S
C2370 C2371 1.385 . S
C2370 C2372 1.478 . S
C2371 H2365 0.930 . S
C2371 C2367 1.400 . S
C2371 C2370 1.385 . S
C2372 C2370 1.478 . S
C2372 C2374 1.381 . S
C2372 C2378 1.383 . S
C2373 C2369 1.495 . S
C2373 H2379 0.959 . S
C2373 H2380 0.961 . S
C2373 H2381 0.960 . S
C2374 C2372 1.381 . S
C2374 C2375 1.394 . S
C2374 H2382 0.930 . S
C2375 C2374 1.394 . S
C2375 C2376 1.383 . S
C2375 H2383 0.929 . S
C2376 C2375 1.383 . S
C2376 C2377 1.377 . S
C2377 H2361 0.930 . S
C2377 C2376 1.377 . S
C2377 C2378 1.379 . S
C2378 H2362 0.931 . S
C2378 C2372 1.383 . S
C2378 C2377 1.379 . S
H2379 C2373 0.959 . S
H2380 C2373 0.961 . S
H2381 C2373 0.960 . S
H2382 C2374 0.930 . S
H2383 C2375 0.929 . S
H2384 C2392 0.929 . S
H2385 C2394 0.930 . S
H2386 C2396 0.930 . S
H2387 C2399 0.929 . S
H2388 C2402 0.930 . S
H2389 C2404 0.960 . S
H2390 C2404 0.960 . S
H2391 C2404 0.960 . S
C2392 H2384 0.929 . S
C2392 C2393 1.377 . S
C2392 C2394 1.384 . S
C2393 C2392 1.377 . S
C2393 C2399 1.390 . S
C2394 H2385 0.930 . S
C2394 C2392 1.384 . S
C2394 C2395 1.372 . S
C2395 C2394 1.372 . S
C2395 C2396 1.400 . S
C2395 C2400 1.490 . S
C2396 H2386 0.930 . S
C2396 C2395 1.400 . S
C2396 C2399 1.386 . S
H2397 C2413 0.930 . S
H2398 C2414 0.931 . S
C2399 H2387 0.929 . S
C2399 C2393 1.390 . S
C2399 C2396 1.386 . S
C2400 C2395 1.490 . S
C2400 C2402 1.395 . S
C2400 C2403 1.403 . S
H2401 C2407 0.930 . S
C2402 H2388 0.930 . S
C2402 C2400 1.395 . S
C2402 C2405 1.403 . S
C2403 C2400 1.403 . S
C2403 C2404 1.524 . S
C2403 C2407 1.400 . S
C2404 H2389 0.960 . S
C2404 H2390 0.960 . S
C2404 H2391 0.960 . S
C2404 C2403 1.524 . S
C2405 C2402 1.403 . S
C2405 C2406 1.392 . S
C2405 C2409 1.495 . S
C2406 C2405 1.392 . S
C2406 C2407 1.385 . S
C2406 C2408 1.478 . S
C2407 H2401 0.930 . S
C2407 C2403 1.400 . S
C2407 C2406 1.385 . S
C2408 C2406 1.478 . S
C2408 C2410 1.381 . S
C2408 C2414 1.383 . S
C2409 C2405 1.495 . S
C2409 H2415 0.959 . S
C2409 H2416 0.961 . S
C2409 H2417 0.960 . S
C2410 C2408 1.381 . S
C2410 C2411 1.394 . S
C2410 H2418 0.930 . S
C2411 C2410 1.394 . S
C2411 C2412 1.383 . S
C2411 H2419 0.929 . S
C2412 C2411 1.383 . S
C2412 C2413 1.377 . S
C2413 H2397 0.930 . S
C2413 C2412 1.377 . S
C2413 C2414 1.379 . S
C2414 H2398 0.931 . S
C2414 C2408 1.383 . S
C2414 C2413 1.379 . S
H2415 C2409 0.959 . S
H2416 C2409 0.961 . S
H2417 C2409 0.960 . S
H2418 C2410 0.930 . S
H2419 C2411 0.929 . S
H2420 C2428 0.929 . S
H2421 C2430 0.930 . S
H2422 C2432 0.930 . S
H2423 C2435 0.929 . S
H2424 C2438 0.930 . S
H2425 C2440 0.960 . S
H2426 C2440 0.960 . S
H2427 C2440 0.960 . S
C2428 H2420 0.929 . S
C2428 C2429 1.377 . S
C2428 C2430 1.384 . S
C2429 C2428 1.377 . S
C2429 C2435 1.390 . S
C2430 H2421 0.930 . S
C2430 C2428 1.384 . S
C2430 C2431 1.372 . S
C2431 C2430 1.372 . S
C2431 C2432 1.400 . S
C2431 C2436 1.490 . S
C2432 H2422 0.930 . S
C2432 C2431 1.400 . S
C2432 C2435 1.386 . S
H2433 C2449 0.930 . S
H2434 C2450 0.931 . S
C2435 H2423 0.929 . S
C2435 C2429 1.390 . S
C2435 C2432 1.386 . S
C2436 C2431 1.490 . S
C2436 C2438 1.395 . S
C2436 C2439 1.403 . S
H2437 C2443 0.930 . S
C2438 H2424 0.930 . S
C2438 C2436 1.395 . S
C2438 C2441 1.403 . S
C2439 C2436 1.403 . S
C2439 C2440 1.524 . S
C2439 C2443 1.400 . S
C2440 H2425 0.960 . S
C2440 H2426 0.960 . S
C2440 H2427 0.960 . S
C2440 C2439 1.524 . S
C2441 C2438 1.403 . S
C2441 C2442 1.392 . S
C2441 C2445 1.495 . S
C2442 C2441 1.392 . S
C2442 C2443 1.385 . S
C2442 C2444 1.478 . S
C2443 H2437 0.930 . S
C2443 C2439 1.400 . S
C2443 C2442 1.385 . S
C2444 C2442 1.478 . S
C2444 C2446 1.381 . S
C2444 C2450 1.383 . S
C2445 C2441 1.495 . S
C2445 H2451 0.959 . S
C2445 H2452 0.961 . S
C2445 H2453 0.960 . S
C2446 C2444 1.381 . S
C2446 C2447 1.394 . S
C2446 H2454 0.930 . S
C2447 C2446 1.394 . S
C2447 C2448 1.383 . S
C2447 H2455 0.929 . S
C2448 C2447 1.383 . S
C2448 C2449 1.377 . S
C2449 H2433 0.930 . S
C2449 C2448 1.377 . S
C2449 C2450 1.379 . S
C2450 H2434 0.931 . S
C2450 C2444 1.383 . S
C2450 C2449 1.379 . S
H2451 C2445 0.959 . S
H2452 C2445 0.961 . S
H2453 C2445 0.960 . S
H2454 C2446 0.930 . S
H2455 C2447 0.929 . S
H2456 C2464 0.929 . S
H2457 C2466 0.930 . S
H2458 C2468 0.930 . S
H2459 C2471 0.929 . S
H2460 C2474 0.930 . S
H2461 C2476 0.960 . S
H2462 C2476 0.960 . S
H2463 C2476 0.960 . S
C2464 H2456 0.929 . S
C2464 C2465 1.377 1_655 S
C2464 C2466 1.384 . S
C2465 C2464 1.377 1_455 S
C2465 C2471 1.390 . S
C2466 H2457 0.930 . S
C2466 C2464 1.384 . S
C2466 C2467 1.372 1_655 S
C2467 C2466 1.372 1_455 S
C2467 C2468 1.400 . S
C2467 C2472 1.490 . S
C2468 H2458 0.930 . S
C2468 C2467 1.400 . S
C2468 C2471 1.386 . S
H2469 C2485 0.930 . S
H2470 C2486 0.958 . S
C2471 H2459 0.929 . S
C2471 C2465 1.390 . S
C2471 C2468 1.386 . S
C2472 C2467 1.490 . S
C2472 C2474 1.395 1_455 S
C2472 C2475 1.403 . S
H2473 C2479 0.930 . S
C2474 H2460 0.930 . S
C2474 C2472 1.395 1_655 S
C2474 C2477 1.403 . S
C2475 C2472 1.403 . S
C2475 C2476 1.524 . S
C2475 C2479 1.400 . S
C2476 H2461 0.960 . S
C2476 H2462 0.960 . S
C2476 H2463 0.960 . S
C2476 C2475 1.524 . S
C2477 C2474 1.403 . S
C2477 C2478 1.392 1_655 S
C2477 C2481 1.495 . S
C2478 C2477 1.392 1_455 S
C2478 C2479 1.385 . S
C2478 C2480 1.478 . S
C2479 H2473 0.930 . S
C2479 C2475 1.400 . S
C2479 C2478 1.385 . S
C2480 C2478 1.478 . S
C2480 C2482 1.381 1_455 S
C2480 C2486 1.342 1_556 S
C2481 C2477 1.495 . S
C2481 H2487 0.959 . S
C2481 H2488 0.961 . S
C2481 H2489 0.960 . S
C2482 C2480 1.381 1_655 S
C2482 C2483 1.394 . S
C2482 H2490 0.930 . S
C2483 C2482 1.394 . S
C2483 C2484 1.363 1_656 S
C2483 H2491 0.929 . S
C2484 C2483 1.363 1_454 S
C2484 C2485 1.389 . S
C2485 H2469 0.930 . S
C2485 C2484 1.389 . S
C2485 C2486 1.395 . S
C2486 H2470 0.958 . S
C2486 C2480 1.342 1_554 S
C2486 C2485 1.395 . S
H2487 C2481 0.959 . S
H2488 C2481 0.961 . S
H2489 C2481 0.960 . S
H2490 C2482 0.930 . S
H2491 C2483 0.929 . S
H2492 C2500 0.929 . S
H2493 C2502 0.930 . S
H2494 C2504 0.930 . S
H2495 C2507 0.929 . S
H2496 C2510 0.930 . S
H2497 C2512 0.960 . S
H2498 C2512 0.960 . S
H2499 C2512 0.960 . S
C2500 H2492 0.929 . S
C2500 C2501 1.377 . S
C2500 C2502 1.384 . S
C2501 C2500 1.377 . S
C2501 C2507 1.390 . S
C2502 H2493 0.930 . S
C2502 C2500 1.384 . S
C2502 C2503 1.372 . S
C2503 C2502 1.372 . S
C2503 C2504 1.400 . S
C2503 C2508 1.490 . S
C2504 H2494 0.930 . S
C2504 C2503 1.400 . S
C2504 C2507 1.386 . S
H2505 C2521 0.930 . S
H2506 C2522 0.931 . S
C2507 H2495 0.929 . S
C2507 C2501 1.390 . S
C2507 C2504 1.386 . S
C2508 C2503 1.490 . S
C2508 C2510 1.395 . S
C2508 C2511 1.403 . S
H2509 C2515 0.930 . S
C2510 H2496 0.930 . S
C2510 C2508 1.395 . S
C2510 C2513 1.403 . S
C2511 C2508 1.403 . S
C2511 C2512 1.524 . S
C2511 C2515 1.400 . S
C2512 H2497 0.960 . S
C2512 H2498 0.960 . S
C2512 H2499 0.960 . S
C2512 C2511 1.524 . S
C2513 C2510 1.403 . S
C2513 C2514 1.392 . S
C2513 C2517 1.495 . S
C2514 C2513 1.392 . S
C2514 C2515 1.385 . S
C2514 C2516 1.478 . S
C2515 H2509 0.930 . S
C2515 C2511 1.400 . S
C2515 C2514 1.385 . S
C2516 C2514 1.478 . S
C2516 C2518 1.381 . S
C2516 C2522 1.383 . S
C2517 C2513 1.495 . S
C2517 H2523 0.959 . S
C2517 H2524 0.961 . S
C2517 H2525 0.960 . S
C2518 C2516 1.381 . S
C2518 C2519 1.394 . S
C2518 H2526 0.930 . S
C2519 C2518 1.394 . S
C2519 C2520 1.383 . S
C2519 H2527 0.929 . S
C2520 C2519 1.383 . S
C2520 C2521 1.377 . S
C2521 H2505 0.930 . S
C2521 C2520 1.377 . S
C2521 C2522 1.379 . S
C2522 H2506 0.931 . S
C2522 C2516 1.383 . S
C2522 C2521 1.379 . S
H2523 C2517 0.959 . S
H2524 C2517 0.961 . S
H2525 C2517 0.960 . S
H2526 C2518 0.930 . S
H2527 C2519 0.929 . S
H2528 C2536 0.929 . S
H2529 C2538 0.930 . S
H2530 C2540 0.930 . S
H2531 C2543 0.929 . S
H2532 C2546 0.930 . S
H2533 C2548 0.960 . S
H2534 C2548 0.960 . S
H2535 C2548 0.960 . S
C2536 H2528 0.929 . S
C2536 C2537 1.377 . S
C2536 C2538 1.384 . S
C2537 C2536 1.377 . S
C2537 C2543 1.390 . S
C2538 H2529 0.930 . S
C2538 C2536 1.384 . S
C2538 C2539 1.372 . S
C2539 C2538 1.372 . S
C2539 C2540 1.400 . S
C2539 C2544 1.490 . S
C2540 H2530 0.930 . S
C2540 C2539 1.400 . S
C2540 C2543 1.386 . S
H2541 C2557 0.930 . S
H2542 C2558 0.931 . S
C2543 H2531 0.929 . S
C2543 C2537 1.390 . S
C2543 C2540 1.386 . S
C2544 C2539 1.490 . S
C2544 C2546 1.395 . S
C2544 C2547 1.403 . S
H2545 C2551 0.930 . S
C2546 H2532 0.930 . S
C2546 C2544 1.395 . S
C2546 C2549 1.403 . S
C2547 C2544 1.403 . S
C2547 C2548 1.524 . S
C2547 C2551 1.400 . S
C2548 H2533 0.960 . S
C2548 H2534 0.960 . S
C2548 H2535 0.960 . S
C2548 C2547 1.524 . S
C2549 C2546 1.403 . S
C2549 C2550 1.392 . S
C2549 C2553 1.495 . S
C2550 C2549 1.392 . S
C2550 C2551 1.385 . S
C2550 C2552 1.478 . S
C2551 H2545 0.930 . S
C2551 C2547 1.400 . S
C2551 C2550 1.385 . S
C2552 C2550 1.478 . S
C2552 C2554 1.381 . S
C2552 C2558 1.383 . S
C2553 C2549 1.495 . S
C2553 H2559 0.959 . S
C2553 H2560 0.961 . S
C2553 H2561 0.960 . S
C2554 C2552 1.381 . S
C2554 C2555 1.394 . S
C2554 H2562 0.930 . S
C2555 C2554 1.394 . S
C2555 C2556 1.383 . S
C2555 H2563 0.929 . S
C2556 C2555 1.383 . S
C2556 C2557 1.377 . S
C2557 H2541 0.930 . S
C2557 C2556 1.377 . S
C2557 C2558 1.379 . S
C2558 H2542 0.931 . S
C2558 C2552 1.383 . S
C2558 C2557 1.379 . S
H2559 C2553 0.959 . S
H2560 C2553 0.961 . S
H2561 C2553 0.960 . S
H2562 C2554 0.930 . S
H2563 C2555 0.929 . S
H2564 C2572 0.929 . S
H2565 C2574 0.930 . S
H2566 C2576 0.930 . S
H2567 C2579 0.929 . S
H2568 C2582 0.930 . S
H2569 C2584 0.960 . S
H2570 C2584 0.960 . S
H2571 C2584 0.960 . S
C2572 H2564 0.929 . S
C2572 C2573 1.377 . S
C2572 C2574 1.384 . S
C2573 C2572 1.377 . S
C2573 C2579 1.390 . S
C2574 H2565 0.930 . S
C2574 C2572 1.384 . S
C2574 C2575 1.372 . S
C2575 C2574 1.372 . S
C2575 C2576 1.400 . S
C2575 C2580 1.490 . S
C2576 H2566 0.930 . S
C2576 C2575 1.400 . S
C2576 C2579 1.386 . S
H2577 C2593 0.930 . S
H2578 C2594 0.931 . S
C2579 H2567 0.929 . S
C2579 C2573 1.390 . S
C2579 C2576 1.386 . S
C2580 C2575 1.490 . S
C2580 C2582 1.395 . S
C2580 C2583 1.403 . S
H2581 C2587 0.930 . S
C2582 H2568 0.930 . S
C2582 C2580 1.395 . S
C2582 C2585 1.403 . S
C2583 C2580 1.403 . S
C2583 C2584 1.524 . S
C2583 C2587 1.400 . S
C2584 H2569 0.960 . S
C2584 H2570 0.960 . S
C2584 H2571 0.960 . S
C2584 C2583 1.524 . S
C2585 C2582 1.403 . S
C2585 C2586 1.392 . S
C2585 C2589 1.495 . S
C2586 C2585 1.392 . S
C2586 C2587 1.385 . S
C2586 C2588 1.478 . S
C2587 H2581 0.930 . S
C2587 C2583 1.400 . S
C2587 C2586 1.385 . S
C2588 C2586 1.478 . S
C2588 C2590 1.381 . S
C2588 C2594 1.383 . S
C2589 C2585 1.495 . S
C2589 H2595 0.959 . S
C2589 H2596 0.961 . S
C2589 H2597 0.960 . S
C2590 C2588 1.381 . S
C2590 C2591 1.394 . S
C2590 H2598 0.930 . S
C2591 C2590 1.394 . S
C2591 C2592 1.383 . S
C2591 H2599 0.929 . S
C2592 C2591 1.383 . S
C2592 C2593 1.377 . S
C2593 H2577 0.930 . S
C2593 C2592 1.377 . S
C2593 C2594 1.379 . S
C2594 H2578 0.931 . S
C2594 C2588 1.383 . S
C2594 C2593 1.379 . S
H2595 C2589 0.959 . S
H2596 C2589 0.961 . S
H2597 C2589 0.960 . S
H2598 C2590 0.930 . S
H2599 C2591 0.929 . S
H2600 C2608 0.929 . S
H2601 C2610 0.930 . S
H2602 C2612 0.930 . S
H2603 C2615 0.929 . S
H2604 C2618 0.930 . S
H2605 C2620 0.960 . S
H2606 C2620 0.960 . S
H2607 C2620 0.960 . S
C2608 H2600 0.929 . S
C2608 C2609 1.377 . S
C2608 C2610 1.384 . S
C2609 C2608 1.377 . S
C2609 C2615 1.390 1_455 S
C2610 H2601 0.930 . S
C2610 C2608 1.384 . S
C2610 C2611 1.372 . S
C2611 C2610 1.372 . S
C2611 C2612 1.400 1_455 S
C2611 C2616 1.490 . S
C2612 H2602 0.930 . S
C2612 C2611 1.400 1_655 S
C2612 C2615 1.386 . S
H2613 C2629 0.930 . S
H2614 C2630 0.935 . S
C2615 H2603 0.929 . S
C2615 C2609 1.390 1_655 S
C2615 C2612 1.386 . S
C2616 C2611 1.490 . S
C2616 C2618 1.395 . S
C2616 C2619 1.403 1_455 S
H2617 C2623 0.930 . S
C2618 H2604 0.930 . S
C2618 C2616 1.395 . S
C2618 C2621 1.403 . S
C2619 C2616 1.403 1_655 S
C2619 C2620 1.524 . S
C2619 C2623 1.400 . S
C2620 H2605 0.960 . S
C2620 H2606 0.960 . S
C2620 H2607 0.960 . S
C2620 C2619 1.524 . S
C2621 C2618 1.403 . S
C2621 C2622 1.392 . S
C2621 C2625 1.495 . S
C2622 C2621 1.392 . S
C2622 C2623 1.385 1_455 S
C2622 C2624 1.478 . S
C2623 H2617 0.930 . S
C2623 C2619 1.400 . S
C2623 C2622 1.385 1_655 S
C2624 C2622 1.478 . S
C2624 C2626 1.381 . S
C2624 C2630 1.380 1_455 S
C2625 C2621 1.495 . S
C2625 H2631 0.959 . S
C2625 H2632 0.961 . S
C2625 H2633 0.960 . S
C2626 C2624 1.381 . S
C2626 C2627 1.394 . S
C2626 H2634 0.930 . S
C2627 C2626 1.394 . S
C2627 C2628 1.383 . S
C2627 H2635 0.929 . S
C2628 C2627 1.383 . S
C2628 C2629 1.377 1_455 S
C2629 H2613 0.930 . S
C2629 C2628 1.377 1_655 S
C2629 C2630 1.378 . S
C2630 H2614 0.935 . S
C2630 C2624 1.380 1_655 S
C2630 C2629 1.378 . S
H2631 C2625 0.959 . S
H2632 C2625 0.961 . S
H2633 C2625 0.960 . S
H2634 C2626 0.930 . S
H2635 C2627 0.929 . S
H2636 C2644 0.929 . S
H2637 C2646 0.930 . S
H2638 C2648 0.930 . S
H2639 C2651 0.929 . S
H2640 C2654 0.930 . S
H2641 C2656 0.960 . S
H2642 C2656 0.960 . S
H2643 C2656 0.960 . S
C2644 H2636 0.929 . S
C2644 C2645 1.377 . S
C2644 C2646 1.384 . S
C2645 C2644 1.377 . S
C2645 C2651 1.390 . S
C2646 H2637 0.930 . S
C2646 C2644 1.384 . S
C2646 C2647 1.372 . S
C2647 C2646 1.372 . S
C2647 C2648 1.400 . S
C2647 C2652 1.490 . S
C2648 H2638 0.930 . S
C2648 C2647 1.400 . S
C2648 C2651 1.386 . S
H2649 C2665 0.930 . S
H2650 C2666 0.931 . S
C2651 H2639 0.929 . S
C2651 C2645 1.390 . S
C2651 C2648 1.386 . S
C2652 C2647 1.490 . S
C2652 C2654 1.395 . S
C2652 C2655 1.403 . S
H2653 C2659 0.930 . S
C2654 H2640 0.930 . S
C2654 C2652 1.395 . S
C2654 C2657 1.403 . S
C2655 C2652 1.403 . S
C2655 C2656 1.524 . S
C2655 C2659 1.400 . S
C2656 H2641 0.960 . S
C2656 H2642 0.960 . S
C2656 H2643 0.960 . S
C2656 C2655 1.524 . S
C2657 C2654 1.403 . S
C2657 C2658 1.392 . S
C2657 C2661 1.495 . S
C2658 C2657 1.392 . S
C2658 C2659 1.385 . S
C2658 C2660 1.478 . S
C2659 H2653 0.930 . S
C2659 C2655 1.400 . S
C2659 C2658 1.385 . S
C2660 C2658 1.478 . S
C2660 C2662 1.381 . S
C2660 C2666 1.383 . S
C2661 C2657 1.495 . S
C2661 H2667 0.959 . S
C2661 H2668 0.961 . S
C2661 H2669 0.960 . S
C2662 C2660 1.381 . S
C2662 C2663 1.394 . S
C2662 H2670 0.930 . S
C2663 C2662 1.394 . S
C2663 C2664 1.383 . S
C2663 H2671 0.929 . S
C2664 C2663 1.383 . S
C2664 C2665 1.377 . S
C2665 H2649 0.930 . S
C2665 C2664 1.377 . S
C2665 C2666 1.379 . S
C2666 H2650 0.931 . S
C2666 C2660 1.383 . S
C2666 C2665 1.379 . S
H2667 C2661 0.959 . S
H2668 C2661 0.961 . S
H2669 C2661 0.960 . S
H2670 C2662 0.930 . S
H2671 C2663 0.929 . S
H2672 C2680 0.929 . S
H2673 C2682 0.930 . S
H2674 C2684 0.930 . S
H2675 C2687 0.929 . S
H2676 C2690 0.930 . S
H2677 C2692 0.960 . S
H2678 C2692 0.960 . S
H2679 C2692 0.960 . S
C2680 H2672 0.929 . S
C2680 C2681 1.377 . S
C2680 C2682 1.384 . S
C2681 C2680 1.377 . S
C2681 C2687 1.390 . S
C2682 H2673 0.930 . S
C2682 C2680 1.384 . S
C2682 C2683 1.372 . S
C2683 C2682 1.372 . S
C2683 C2684 1.400 . S
C2683 C2688 1.490 . S
C2684 H2674 0.930 . S
C2684 C2683 1.400 . S
C2684 C2687 1.386 . S
H2685 C2701 0.930 . S
H2686 C2702 0.931 . S
C2687 H2675 0.929 . S
C2687 C2681 1.390 . S
C2687 C2684 1.386 . S
C2688 C2683 1.490 . S
C2688 C2690 1.395 . S
C2688 C2691 1.403 . S
H2689 C2695 0.930 . S
C2690 H2676 0.930 . S
C2690 C2688 1.395 . S
C2690 C2693 1.403 . S
C2691 C2688 1.403 . S
C2691 C2692 1.524 . S
C2691 C2695 1.400 . S
C2692 H2677 0.960 . S
C2692 H2678 0.960 . S
C2692 H2679 0.960 . S
C2692 C2691 1.524 . S
C2693 C2690 1.403 . S
C2693 C2694 1.392 . S
C2693 C2697 1.495 . S
C2694 C2693 1.392 . S
C2694 C2695 1.385 . S
C2694 C2696 1.478 . S
C2695 H2689 0.930 . S
C2695 C2691 1.400 . S
C2695 C2694 1.385 . S
C2696 C2694 1.478 . S
C2696 C2698 1.381 . S
C2696 C2702 1.383 . S
C2697 C2693 1.495 . S
C2697 H2703 0.959 . S
C2697 H2704 0.961 . S
C2697 H2705 0.960 . S
C2698 C2696 1.381 . S
C2698 C2699 1.394 . S
C2698 H2706 0.930 . S
C2699 C2698 1.394 . S
C2699 C2700 1.383 . S
C2699 H2707 0.929 . S
C2700 C2699 1.383 . S
C2700 C2701 1.377 . S
C2701 H2685 0.930 . S
C2701 C2700 1.377 . S
C2701 C2702 1.379 . S
C2702 H2686 0.931 . S
C2702 C2696 1.383 . S
C2702 C2701 1.379 . S
H2703 C2697 0.959 . S
H2704 C2697 0.961 . S
H2705 C2697 0.960 . S
H2706 C2698 0.930 . S
H2707 C2699 0.929 . S
H2708 C2716 0.929 . S
H2709 C2718 0.930 . S
H2710 C2720 0.930 . S
H2711 C2723 0.929 . S
H2712 C2726 0.930 . S
H2713 C2728 0.960 . S
H2714 C2728 0.960 . S
H2715 C2728 0.960 . S
C2716 H2708 0.929 . S
C2716 C2717 1.377 . S
C2716 C2718 1.384 . S
C2717 C2716 1.377 . S
C2717 C2723 1.390 . S
C2718 H2709 0.930 . S
C2718 C2716 1.384 . S
C2718 C2719 1.372 . S
C2719 C2718 1.372 . S
C2719 C2720 1.400 . S
C2719 C2724 1.490 . S
C2720 H2710 0.930 . S
C2720 C2719 1.400 . S
C2720 C2723 1.386 . S
H2721 C2737 0.930 . S
H2722 C2738 0.931 . S
C2723 H2711 0.929 . S
C2723 C2717 1.390 . S
C2723 C2720 1.386 . S
C2724 C2719 1.490 . S
C2724 C2726 1.395 . S
C2724 C2727 1.403 . S
H2725 C2731 0.930 . S
C2726 H2712 0.930 . S
C2726 C2724 1.395 . S
C2726 C2729 1.403 . S
C2727 C2724 1.403 . S
C2727 C2728 1.524 . S
C2727 C2731 1.400 . S
C2728 H2713 0.960 . S
C2728 H2714 0.960 . S
C2728 H2715 0.960 . S
C2728 C2727 1.524 . S
C2729 C2726 1.403 . S
C2729 C2730 1.392 . S
C2729 C2733 1.495 . S
C2730 C2729 1.392 . S
C2730 C2731 1.385 . S
C2730 C2732 1.478 . S
C2731 H2725 0.930 . S
C2731 C2727 1.400 . S
C2731 C2730 1.385 . S
C2732 C2730 1.478 . S
C2732 C2734 1.381 . S
C2732 C2738 1.383 . S
C2733 C2729 1.495 . S
C2733 H2739 0.959 . S
C2733 H2740 0.961 . S
C2733 H2741 0.960 . S
C2734 C2732 1.381 . S
C2734 C2735 1.394 . S
C2734 H2742 0.930 . S
C2735 C2734 1.394 . S
C2735 C2736 1.383 . S
C2735 H2743 0.929 . S
C2736 C2735 1.383 . S
C2736 C2737 1.377 . S
C2737 H2721 0.930 . S
C2737 C2736 1.377 . S
C2737 C2738 1.379 . S
C2738 H2722 0.931 . S
C2738 C2732 1.383 . S
C2738 C2737 1.379 . S
H2739 C2733 0.959 . S
H2740 C2733 0.961 . S
H2741 C2733 0.960 . S
H2742 C2734 0.930 . S
H2743 C2735 0.929 . S
H2744 C2752 0.929 . S
H2745 C2754 0.930 . S
H2746 C2756 0.930 . S
H2747 C2759 0.929 . S
H2748 C2762 0.930 . S
H2749 C2764 0.960 . S
H2750 C2764 0.960 . S
H2751 C2764 0.960 . S
C2752 H2744 0.929 . S
C2752 C2753 1.377 . S
C2752 C2754 1.384 . S
C2753 C2752 1.377 . S
C2753 C2759 1.390 . S
C2754 H2745 0.930 . S
C2754 C2752 1.384 . S
C2754 C2755 1.372 . S
C2755 C2754 1.372 . S
C2755 C2756 1.400 . S
C2755 C2760 1.490 . S
C2756 H2746 0.930 . S
C2756 C2755 1.400 . S
C2756 C2759 1.386 . S
H2757 C2773 0.930 . S
H2758 C2774 0.931 . S
C2759 H2747 0.929 . S
C2759 C2753 1.390 . S
C2759 C2756 1.386 . S
C2760 C2755 1.490 . S
C2760 C2762 1.395 . S
C2760 C2763 1.403 . S
H2761 C2767 0.930 . S
C2762 H2748 0.930 . S
C2762 C2760 1.395 . S
C2762 C2765 1.403 . S
C2763 C2760 1.403 . S
C2763 C2764 1.524 . S
C2763 C2767 1.400 . S
C2764 H2749 0.960 . S
C2764 H2750 0.960 . S
C2764 H2751 0.960 . S
C2764 C2763 1.524 . S
C2765 C2762 1.403 . S
C2765 C2766 1.392 . S
C2765 C2769 1.495 . S
C2766 C2765 1.392 . S
C2766 C2767 1.385 . S
C2766 C2768 1.478 . S
C2767 H2761 0.930 . S
C2767 C2763 1.400 . S
C2767 C2766 1.385 . S
C2768 C2766 1.478 . S
C2768 C2770 1.381 . S
C2768 C2774 1.383 . S
C2769 C2765 1.495 . S
C2769 H2775 0.959 . S
C2769 H2776 0.961 . S
C2769 H2777 0.960 . S
C2770 C2768 1.381 . S
C2770 C2771 1.394 . S
C2770 H2778 0.930 . S
C2771 C2770 1.394 . S
C2771 C2772 1.383 . S
C2771 H2779 0.929 . S
C2772 C2771 1.383 . S
C2772 C2773 1.377 . S
C2773 H2757 0.930 . S
C2773 C2772 1.377 . S
C2773 C2774 1.379 . S
C2774 H2758 0.931 . S
C2774 C2768 1.383 . S
C2774 C2773 1.379 . S
H2775 C2769 0.959 . S
H2776 C2769 0.961 . S
H2777 C2769 0.960 . S
H2778 C2770 0.930 . S
H2779 C2771 0.929 . S
H2780 C2788 0.929 . S
H2781 C2790 0.930 . S
H2782 C2792 0.930 . S
H2783 C2795 0.929 . S
H2784 C2798 0.930 . S
H2785 C2800 0.960 . S
H2786 C2800 0.960 . S
H2787 C2800 0.960 . S
C2788 H2780 0.929 . S
C2788 C2789 1.377 . S
C2788 C2790 1.384 . S
C2789 C2788 1.377 . S
C2789 C2795 1.390 . S
C2790 H2781 0.930 . S
C2790 C2788 1.384 . S
C2790 C2791 1.372 . S
C2791 C2790 1.372 . S
C2791 C2792 1.400 . S
C2791 C2796 1.490 . S
C2792 H2782 0.930 . S
C2792 C2791 1.400 . S
C2792 C2795 1.386 . S
H2793 C2809 0.930 . S
H2794 C2810 0.931 . S
C2795 H2783 0.929 . S
C2795 C2789 1.390 . S
C2795 C2792 1.386 . S
C2796 C2791 1.490 . S
C2796 C2798 1.395 . S
C2796 C2799 1.403 . S
H2797 C2803 0.930 . S
C2798 H2784 0.930 . S
C2798 C2796 1.395 . S
C2798 C2801 1.403 . S
C2799 C2796 1.403 . S
C2799 C2800 1.524 . S
C2799 C2803 1.400 . S
C2800 H2785 0.960 . S
C2800 H2786 0.960 . S
C2800 H2787 0.960 . S
C2800 C2799 1.524 . S
C2801 C2798 1.403 . S
C2801 C2802 1.392 . S
C2801 C2805 1.495 . S
C2802 C2801 1.392 . S
C2802 C2803 1.385 . S
C2802 C2804 1.478 . S
C2803 H2797 0.930 . S
C2803 C2799 1.400 . S
C2803 C2802 1.385 . S
C2804 C2802 1.478 . S
C2804 C2806 1.381 . S
C2804 C2810 1.383 . S
C2805 C2801 1.495 . S
C2805 H2811 0.959 . S
C2805 H2812 0.961 . S
C2805 H2813 0.960 . S
C2806 C2804 1.381 . S
C2806 C2807 1.394 . S
C2806 H2814 0.930 . S
C2807 C2806 1.394 . S
C2807 C2808 1.383 . S
C2807 H2815 0.929 . S
C2808 C2807 1.383 . S
C2808 C2809 1.377 . S
C2809 H2793 0.930 . S
C2809 C2808 1.377 . S
C2809 C2810 1.379 . S
C2810 H2794 0.931 . S
C2810 C2804 1.383 . S
C2810 C2809 1.379 . S
H2811 C2805 0.959 . S
H2812 C2805 0.961 . S
H2813 C2805 0.960 . S
H2814 C2806 0.930 . S
H2815 C2807 0.929 . S
H2816 C2824 0.929 . S
H2817 C2826 0.930 . S
H2818 C2828 0.930 . S
H2819 C2831 0.929 . S
H2820 C2834 0.930 . S
H2821 C2836 0.960 . S
H2822 C2836 0.960 . S
H2823 C2836 0.960 . S
C2824 H2816 0.929 . S
C2824 C2825 1.377 . S
C2824 C2826 1.384 . S
C2825 C2824 1.377 . S
C2825 C2831 1.390 . S
C2826 H2817 0.930 . S
C2826 C2824 1.384 . S
C2826 C2827 1.372 . S
C2827 C2826 1.372 . S
C2827 C2828 1.400 . S
C2827 C2832 1.490 . S
C2828 H2818 0.930 . S
C2828 C2827 1.400 . S
C2828 C2831 1.386 . S
H2829 C2845 0.930 . S
H2830 C2846 0.931 . S
C2831 H2819 0.929 . S
C2831 C2825 1.390 . S
C2831 C2828 1.386 . S
C2832 C2827 1.490 . S
C2832 C2834 1.395 . S
C2832 C2835 1.403 . S
H2833 C2839 0.930 . S
C2834 H2820 0.930 . S
C2834 C2832 1.395 . S
C2834 C2837 1.403 . S
C2835 C2832 1.403 . S
C2835 C2836 1.524 . S
C2835 C2839 1.400 . S
C2836 H2821 0.960 . S
C2836 H2822 0.960 . S
C2836 H2823 0.960 . S
C2836 C2835 1.524 . S
C2837 C2834 1.403 . S
C2837 C2838 1.392 . S
C2837 C2841 1.495 . S
C2838 C2837 1.392 . S
C2838 C2839 1.385 . S
C2838 C2840 1.478 . S
C2839 H2833 0.930 . S
C2839 C2835 1.400 . S
C2839 C2838 1.385 . S
C2840 C2838 1.478 . S
C2840 C2842 1.381 . S
C2840 C2846 1.383 . S
C2841 C2837 1.495 . S
C2841 H2847 0.959 . S
C2841 H2848 0.961 . S
C2841 H2849 0.960 . S
C2842 C2840 1.381 . S
C2842 C2843 1.394 . S
C2842 H2850 0.930 . S
C2843 C2842 1.394 . S
C2843 C2844 1.383 . S
C2843 H2851 0.929 . S
C2844 C2843 1.383 . S
C2844 C2845 1.377 . S
C2845 H2829 0.930 . S
C2845 C2844 1.377 . S
C2845 C2846 1.379 . S
C2846 H2830 0.931 . S
C2846 C2840 1.383 . S
C2846 C2845 1.379 . S
H2847 C2841 0.959 . S
H2848 C2841 0.961 . S
H2849 C2841 0.960 . S
H2850 C2842 0.930 . S
H2851 C2843 0.929 . S
H2852 C2860 0.929 . S
H2853 C2862 0.930 . S
H2854 C2864 0.930 . S
H2855 C2867 0.929 . S
H2856 C2870 0.930 . S
H2857 C2872 0.960 . S
H2858 C2872 0.960 . S
H2859 C2872 0.960 . S
C2860 H2852 0.929 . S
C2860 C2861 1.377 . S
C2860 C2862 1.384 . S
C2861 C2860 1.377 . S
C2861 C2867 1.390 . S
C2862 H2853 0.930 . S
C2862 C2860 1.384 . S
C2862 C2863 1.372 . S
C2863 C2862 1.372 . S
C2863 C2864 1.400 . S
C2863 C2868 1.490 . S
C2864 H2854 0.930 . S
C2864 C2863 1.400 . S
C2864 C2867 1.386 . S
H2865 C2881 0.930 . S
H2866 C2882 0.931 . S
C2867 H2855 0.929 . S
C2867 C2861 1.390 . S
C2867 C2864 1.386 . S
C2868 C2863 1.490 . S
C2868 C2870 1.395 . S
C2868 C2871 1.403 . S
H2869 C2875 0.930 . S
C2870 H2856 0.930 . S
C2870 C2868 1.395 . S
C2870 C2873 1.403 . S
C2871 C2868 1.403 . S
C2871 C2872 1.524 . S
C2871 C2875 1.400 . S
C2872 H2857 0.960 . S
C2872 H2858 0.960 . S
C2872 H2859 0.960 . S
C2872 C2871 1.524 . S
C2873 C2870 1.403 . S
C2873 C2874 1.392 . S
C2873 C2877 1.495 . S
C2874 C2873 1.392 . S
C2874 C2875 1.385 . S
C2874 C2876 1.478 . S
C2875 H2869 0.930 . S
C2875 C2871 1.400 . S
C2875 C2874 1.385 . S
C2876 C2874 1.478 . S
C2876 C2878 1.381 . S
C2876 C2882 1.383 . S
C2877 C2873 1.495 . S
C2877 H2883 0.959 . S
C2877 H2884 0.961 . S
C2877 H2885 0.960 . S
C2878 C2876 1.381 . S
C2878 C2879 1.394 . S
C2878 H2886 0.930 . S
C2879 C2878 1.394 . S
C2879 C2880 1.383 . S
C2879 H2887 0.929 . S
C2880 C2879 1.383 . S
C2880 C2881 1.377 . S
C2881 H2865 0.930 . S
C2881 C2880 1.377 . S
C2881 C2882 1.379 . S
C2882 H2866 0.931 . S
C2882 C2876 1.383 . S
C2882 C2881 1.379 . S
H2883 C2877 0.959 . S
H2884 C2877 0.961 . S
H2885 C2877 0.960 . S
H2886 C2878 0.930 . S
H2887 C2879 0.929 . S
H2888 C2896 0.929 . S
H2889 C2898 0.930 . S
H2890 C2900 0.930 . S
H2891 C2903 0.929 . S
H2892 C2906 0.930 . S
H2893 C2908 0.960 . S
H2894 C2908 0.960 . S
H2895 C2908 0.960 . S
C2896 H2888 0.929 . S
C2896 C2897 1.377 . S
C2896 C2898 1.384 . S
C2897 C2896 1.377 . S
C2897 C2903 1.390 . S
C2898 H2889 0.930 . S
C2898 C2896 1.384 . S
C2898 C2899 1.372 . S
C2899 C2898 1.372 . S
C2899 C2900 1.400 . S
C2899 C2904 1.490 . S
C2900 H2890 0.930 . S
C2900 C2899 1.400 . S
C2900 C2903 1.386 . S
H2901 C2917 0.930 . S
H2902 C2918 0.931 . S
C2903 H2891 0.929 . S
C2903 C2897 1.390 . S
C2903 C2900 1.386 . S
C2904 C2899 1.490 . S
C2904 C2906 1.395 . S
C2904 C2907 1.403 . S
H2905 C2911 0.930 . S
C2906 H2892 0.930 . S
C2906 C2904 1.395 . S
C2906 C2909 1.403 . S
C2907 C2904 1.403 . S
C2907 C2908 1.524 . S
C2907 C2911 1.400 . S
C2908 H2893 0.960 . S
C2908 H2894 0.960 . S
C2908 H2895 0.960 . S
C2908 C2907 1.524 . S
C2909 C2906 1.403 . S
C2909 C2910 1.392 . S
C2909 C2913 1.495 . S
C2910 C2909 1.392 . S
C2910 C2911 1.385 . S
C2910 C2912 1.478 . S
C2911 H2905 0.930 . S
C2911 C2907 1.400 . S
C2911 C2910 1.385 . S
C2912 C2910 1.478 . S
C2912 C2914 1.381 . S
C2912 C2918 1.383 . S
C2913 C2909 1.495 . S
C2913 H2919 0.959 . S
C2913 H2920 0.961 . S
C2913 H2921 0.960 . S
C2914 C2912 1.381 . S
C2914 C2915 1.394 . S
C2914 H2922 0.930 . S
C2915 C2914 1.394 . S
C2915 C2916 1.383 . S
C2915 H2923 0.929 . S
C2916 C2915 1.383 . S
C2916 C2917 1.377 . S
C2917 H2901 0.930 . S
C2917 C2916 1.377 . S
C2917 C2918 1.379 . S
C2918 H2902 0.931 . S
C2918 C2912 1.383 . S
C2918 C2917 1.379 . S
H2919 C2913 0.959 . S
H2920 C2913 0.961 . S
H2921 C2913 0.960 . S
H2922 C2914 0.930 . S
H2923 C2915 0.929 . S
H2924 C2932 0.929 . S
H2925 C2934 0.930 . S
H2926 C2936 0.930 . S
H2927 C2939 0.929 . S
H2928 C2942 0.930 . S
H2929 C2944 0.960 . S
H2930 C2944 0.960 . S
H2931 C2944 0.960 . S
C2932 H2924 0.929 . S
C2932 C2933 1.377 . S
C2932 C2934 1.384 . S
C2933 C2932 1.377 . S
C2933 C2939 1.390 . S
C2934 H2925 0.930 . S
C2934 C2932 1.384 . S
C2934 C2935 1.372 . S
C2935 C2934 1.372 . S
C2935 C2936 1.400 . S
C2935 C2940 1.490 . S
C2936 H2926 0.930 . S
C2936 C2935 1.400 . S
C2936 C2939 1.386 . S
H2937 C2953 0.930 . S
H2938 C2954 0.931 . S
C2939 H2927 0.929 . S
C2939 C2933 1.390 . S
C2939 C2936 1.386 . S
C2940 C2935 1.490 . S
C2940 C2942 1.395 . S
C2940 C2943 1.403 . S
H2941 C2947 0.930 . S
C2942 H2928 0.930 . S
C2942 C2940 1.395 . S
C2942 C2945 1.403 . S
C2943 C2940 1.403 . S
C2943 C2944 1.524 . S
C2943 C2947 1.400 . S
C2944 H2929 0.960 . S
C2944 H2930 0.960 . S
C2944 H2931 0.960 . S
C2944 C2943 1.524 . S
C2945 C2942 1.403 . S
C2945 C2946 1.392 . S
C2945 C2949 1.495 . S
C2946 C2945 1.392 . S
C2946 C2947 1.385 . S
C2946 C2948 1.478 . S
C2947 H2941 0.930 . S
C2947 C2943 1.400 . S
C2947 C2946 1.385 . S
C2948 C2946 1.478 . S
C2948 C2950 1.381 . S
C2948 C2954 1.383 . S
C2949 C2945 1.495 . S
C2949 H2955 0.959 . S
C2949 H2956 0.961 . S
C2949 H2957 0.960 . S
C2950 C2948 1.381 . S
C2950 C2951 1.394 . S
C2950 H2958 0.930 . S
C2951 C2950 1.394 . S
C2951 C2952 1.383 . S
C2951 H2959 0.929 . S
C2952 C2951 1.383 . S
C2952 C2953 1.377 . S
C2953 H2937 0.930 . S
C2953 C2952 1.377 . S
C2953 C2954 1.379 . S
C2954 H2938 0.931 . S
C2954 C2948 1.383 . S
C2954 C2953 1.379 . S
H2955 C2949 0.959 . S
H2956 C2949 0.961 . S
H2957 C2949 0.960 . S
H2958 C2950 0.930 . S
H2959 C2951 0.929 . S
H2960 C2968 0.929 . S
H2961 C2970 0.930 . S
H2962 C2972 0.930 . S
H2963 C2975 0.929 . S
H2964 C2978 0.930 . S
H2965 C2980 0.960 . S
H2966 C2980 0.960 . S
H2967 C2980 0.960 . S
C2968 H2960 0.929 . S
C2968 C2969 1.377 . S
C2968 C2970 1.384 . S
C2969 C2968 1.377 . S
C2969 C2975 1.390 . S
C2970 H2961 0.930 . S
C2970 C2968 1.384 . S
C2970 C2971 1.372 . S
C2971 C2970 1.372 . S
C2971 C2972 1.400 . S
C2971 C2976 1.490 . S
C2972 H2962 0.930 . S
C2972 C2971 1.400 . S
C2972 C2975 1.386 . S
H2973 C2989 0.930 . S
H2974 C2990 0.931 . S
C2975 H2963 0.929 . S
C2975 C2969 1.390 . S
C2975 C2972 1.386 . S
C2976 C2971 1.490 . S
C2976 C2978 1.395 . S
C2976 C2979 1.403 . S
H2977 C2983 0.930 . S
C2978 H2964 0.930 . S
C2978 C2976 1.395 . S
C2978 C2981 1.403 . S
C2979 C2976 1.403 . S
C2979 C2980 1.524 . S
C2979 C2983 1.400 . S
C2980 H2965 0.960 . S
C2980 H2966 0.960 . S
C2980 H2967 0.960 . S
C2980 C2979 1.524 . S
C2981 C2978 1.403 . S
C2981 C2982 1.392 . S
C2981 C2985 1.495 . S
C2982 C2981 1.392 . S
C2982 C2983 1.385 . S
C2982 C2984 1.478 . S
C2983 H2977 0.930 . S
C2983 C2979 1.400 . S
C2983 C2982 1.385 . S
C2984 C2982 1.478 . S
C2984 C2986 1.381 . S
C2984 C2990 1.383 . S
C2985 C2981 1.495 . S
C2985 H2991 0.959 . S
C2985 H2992 0.961 . S
C2985 H2993 0.960 . S
C2986 C2984 1.381 . S
C2986 C2987 1.394 . S
C2986 H2994 0.930 . S
C2987 C2986 1.394 . S
C2987 C2988 1.383 . S
C2987 H2995 0.929 . S
C2988 C2987 1.383 . S
C2988 C2989 1.377 . S
C2989 H2973 0.930 . S
C2989 C2988 1.377 . S
C2989 C2990 1.379 . S
C2990 H2974 0.931 . S
C2990 C2984 1.383 . S
C2990 C2989 1.379 . S
H2991 C2985 0.959 . S
H2992 C2985 0.961 . S
H2993 C2985 0.960 . S
H2994 C2986 0.930 . S
H2995 C2987 0.929 . S
H2996 C3004 0.929 . S
H2997 C3006 0.930 . S
H2998 C3008 0.930 . S
H2999 C3011 0.929 . S
H3000 C3014 0.930 . S
H3001 C3016 0.960 . S
H3002 C3016 0.960 . S
H3003 C3016 0.960 . S
C3004 H2996 0.929 . S
C3004 C3005 1.377 . S
C3004 C3006 1.384 . S
C3005 C3004 1.377 . S
C3005 C3011 1.390 . S
C3006 H2997 0.930 . S
C3006 C3004 1.384 . S
C3006 C3007 1.372 . S
C3007 C3006 1.372 . S
C3007 C3008 1.400 . S
C3007 C3012 1.490 . S
C3008 H2998 0.930 . S
C3008 C3007 1.400 . S
C3008 C3011 1.386 . S
H3009 C3025 0.930 . S
H3010 C3026 0.931 . S
C3011 H2999 0.929 . S
C3011 C3005 1.390 . S
C3011 C3008 1.386 . S
C3012 C3007 1.490 . S
C3012 C3014 1.395 . S
C3012 C3015 1.403 . S
H3013 C3019 0.930 . S
C3014 H3000 0.930 . S
C3014 C3012 1.395 . S
C3014 C3017 1.403 . S
C3015 C3012 1.403 . S
C3015 C3016 1.524 . S
C3015 C3019 1.400 . S
C3016 H3001 0.960 . S
C3016 H3002 0.960 . S
C3016 H3003 0.960 . S
C3016 C3015 1.524 . S
C3017 C3014 1.403 . S
C3017 C3018 1.392 . S
C3017 C3021 1.495 . S
C3018 C3017 1.392 . S
C3018 C3019 1.385 . S
C3018 C3020 1.478 . S
C3019 H3013 0.930 . S
C3019 C3015 1.400 . S
C3019 C3018 1.385 . S
C3020 C3018 1.478 . S
C3020 C3022 1.381 . S
C3020 C3026 1.383 . S
C3021 C3017 1.495 . S
C3021 H3027 0.959 . S
C3021 H3028 0.961 . S
C3021 H3029 0.960 . S
C3022 C3020 1.381 . S
C3022 C3023 1.394 . S
C3022 H3030 0.930 . S
C3023 C3022 1.394 . S
C3023 C3024 1.383 . S
C3023 H3031 0.929 . S
C3024 C3023 1.383 . S
C3024 C3025 1.377 . S
C3025 H3009 0.930 . S
C3025 C3024 1.377 . S
C3025 C3026 1.379 . S
C3026 H3010 0.931 . S
C3026 C3020 1.383 . S
C3026 C3025 1.379 . S
H3027 C3021 0.959 . S
H3028 C3021 0.961 . S
H3029 C3021 0.960 . S
H3030 C3022 0.930 . S
H3031 C3023 0.929 . S
H3032 C3040 0.929 . S
H3033 C3042 0.930 . S
H3034 C3044 0.930 . S
H3035 C3047 0.929 . S
H3036 C3050 0.930 . S
H3037 C3052 0.960 . S
H3038 C3052 0.960 . S
H3039 C3052 0.960 . S
C3040 H3032 0.929 . S
C3040 C3041 1.377 . S
C3040 C3042 1.384 . S
C3041 C3040 1.377 . S
C3041 C3047 1.390 . S
C3042 H3033 0.930 . S
C3042 C3040 1.384 . S
C3042 C3043 1.372 . S
C3043 C3042 1.372 . S
C3043 C3044 1.400 . S
C3043 C3048 1.490 . S
C3044 H3034 0.930 . S
C3044 C3043 1.400 . S
C3044 C3047 1.386 . S
H3045 C3061 0.930 . S
H3046 C3062 0.931 . S
C3047 H3035 0.929 . S
C3047 C3041 1.390 . S
C3047 C3044 1.386 . S
C3048 C3043 1.490 . S
C3048 C3050 1.395 . S
C3048 C3051 1.403 . S
H3049 C3055 0.930 . S
C3050 H3036 0.930 . S
C3050 C3048 1.395 . S
C3050 C3053 1.403 . S
C3051 C3048 1.403 . S
C3051 C3052 1.524 . S
C3051 C3055 1.400 . S
C3052 H3037 0.960 . S
C3052 H3038 0.960 . S
C3052 H3039 0.960 . S
C3052 C3051 1.524 . S
C3053 C3050 1.403 . S
C3053 C3054 1.392 . S
C3053 C3057 1.495 . S
C3054 C3053 1.392 . S
C3054 C3055 1.385 . S
C3054 C3056 1.478 . S
C3055 H3049 0.930 . S
C3055 C3051 1.400 . S
C3055 C3054 1.385 . S
C3056 C3054 1.478 . S
C3056 C3058 1.381 . S
C3056 C3062 1.383 . S
C3057 C3053 1.495 . S
C3057 H3063 0.959 . S
C3057 H3064 0.961 . S
C3057 H3065 0.960 . S
C3058 C3056 1.381 . S
C3058 C3059 1.394 . S
C3058 H3066 0.930 . S
C3059 C3058 1.394 . S
C3059 C3060 1.383 . S
C3059 H3067 0.929 . S
C3060 C3059 1.383 . S
C3060 C3061 1.377 . S
C3061 H3045 0.930 . S
C3061 C3060 1.377 . S
C3061 C3062 1.379 . S
C3062 H3046 0.931 . S
C3062 C3056 1.383 . S
C3062 C3061 1.379 . S
H3063 C3057 0.959 . S
H3064 C3057 0.961 . S
H3065 C3057 0.960 . S
H3066 C3058 0.930 . S
H3067 C3059 0.929 . S
H3068 C3076 0.929 . S
H3069 C3078 0.930 1_556 S
H3070 C3080 0.930 . S
H3071 C3083 0.929 . S
H3072 C3086 0.930 . S
H3073 C3088 0.960 . S
H3074 C3088 0.960 . S
H3075 C3088 0.960 . S
C3076 H3068 0.929 . S
C3076 C3077 1.377 . S
C3076 C3078 1.384 . S
C3077 C3076 1.377 . S
C3077 C3083 1.390 . S
C3078 H3069 0.930 1_554 S
C3078 C3076 1.384 . S
C3078 C3079 1.372 . S
C3079 C3078 1.372 . S
C3079 C3080 1.400 . S
C3079 C3084 1.490 . S
C3080 H3070 0.930 . S
C3080 C3079 1.400 . S
C3080 C3083 1.386 . S
H3081 C3097 0.930 . S
H3082 C3098 0.931 . S
C3083 H3071 0.929 . S
C3083 C3077 1.390 . S
C3083 C3080 1.386 . S
C3084 C3079 1.490 . S
C3084 C3086 1.395 . S
C3084 C3087 1.403 . S
H3085 C3091 0.930 . S
C3086 H3072 0.930 . S
C3086 C3084 1.395 . S
C3086 C3089 1.403 . S
C3087 C3084 1.403 . S
C3087 C3088 1.524 . S
C3087 C3091 1.400 . S
C3088 H3073 0.960 . S
C3088 H3074 0.960 . S
C3088 H3075 0.960 . S
C3088 C3087 1.524 . S
C3089 C3086 1.403 . S
C3089 C3090 1.392 . S
C3089 C3093 1.495 1_565 S
C3090 C3089 1.392 . S
C3090 C3091 1.385 . S
C3090 C3092 1.478 . S
C3091 H3085 0.930 . S
C3091 C3087 1.400 . S
C3091 C3090 1.385 . S
C3092 C3090 1.478 . S
C3092 C3094 1.400 . S
C3092 C3098 1.383 1_565 S
C3093 C3089 1.495 1_545 S
C3093 H3099 0.959 . S
C3093 H3100 0.961 . S
C3093 H3101 0.960 1_554 S
C3094 C3092 1.400 . S
C3094 C3095 1.391 1_564 S
C3094 H3102 0.914 1_554 S
C3095 C3094 1.391 1_546 S
C3095 C3096 1.383 1_556 S
C3095 H3103 0.929 . S
C3096 C3095 1.383 1_554 S
C3096 C3097 1.377 . S
C3097 H3081 0.930 . S
C3097 C3096 1.377 . S
C3097 C3098 1.379 . S
C3098 H3082 0.931 . S
C3098 C3092 1.383 1_545 S
C3098 C3097 1.379 . S
H3099 C3093 0.959 . S
H3100 C3093 0.961 . S
H3101 C3093 0.960 1_556 S
H3102 C3094 0.914 1_556 S
H3103 C3095 0.929 . S
H3104 C3112 0.929 . S
H3105 C3114 0.930 . S
H3106 C3116 0.930 . S
H3107 C3119 0.929 . S
H3108 C3122 0.930 . S
H3109 C3124 0.960 . S
H3110 C3124 0.960 . S
H3111 C3124 0.960 . S
C3112 H3104 0.929 . S
C3112 C3113 1.377 . S
C3112 C3114 1.384 . S
C3113 C3112 1.377 . S
C3113 C3119 1.390 . S
C3114 H3105 0.930 . S
C3114 C3112 1.384 . S
C3114 C3115 1.372 . S
C3115 C3114 1.372 . S
C3115 C3116 1.400 . S
C3115 C3120 1.490 . S
C3116 H3106 0.930 . S
C3116 C3115 1.400 . S
C3116 C3119 1.386 . S
H3117 C3133 0.930 . S
H3118 C3134 0.931 . S
C3119 H3107 0.929 . S
C3119 C3113 1.390 . S
C3119 C3116 1.386 . S
C3120 C3115 1.490 . S
C3120 C3122 1.395 . S
C3120 C3123 1.403 . S
H3121 C3127 0.930 . S
C3122 H3108 0.930 . S
C3122 C3120 1.395 . S
C3122 C3125 1.403 . S
C3123 C3120 1.403 . S
C3123 C3124 1.524 . S
C3123 C3127 1.400 . S
C3124 H3109 0.960 . S
C3124 H3110 0.960 . S
C3124 H3111 0.960 . S
C3124 C3123 1.524 . S
C3125 C3122 1.403 . S
C3125 C3126 1.392 . S
C3125 C3129 1.495 . S
C3126 C3125 1.392 . S
C3126 C3127 1.385 . S
C3126 C3128 1.478 . S
C3127 H3121 0.930 . S
C3127 C3123 1.400 . S
C3127 C3126 1.385 . S
C3128 C3126 1.478 . S
C3128 C3130 1.381 . S
C3128 C3134 1.383 . S
C3129 C3125 1.495 . S
C3129 H3135 0.959 . S
C3129 H3136 0.961 . S
C3129 H3137 0.960 . S
C3130 C3128 1.381 . S
C3130 C3131 1.394 . S
C3130 H3138 0.930 . S
C3131 C3130 1.394 . S
C3131 C3132 1.383 . S
C3131 H3139 0.929 . S
C3132 C3131 1.383 . S
C3132 C3133 1.377 . S
C3133 H3117 0.930 . S
C3133 C3132 1.377 . S
C3133 C3134 1.379 . S
C3134 H3118 0.931 . S
C3134 C3128 1.383 . S
C3134 C3133 1.379 . S
H3135 C3129 0.959 . S
H3136 C3129 0.961 . S
H3137 C3129 0.960 . S
H3138 C3130 0.930 . S
H3139 C3131 0.929 . S
H3140 C3148 0.929 1_556 S
H3141 C3150 0.912 1_556 S
H3142 C3152 0.930 . S
H3143 C3155 0.929 . S
H3144 C3158 0.930 1_556 S
H3145 C3160 0.960 . S
H3146 C3160 0.960 . S
H3147 C3160 0.960 . S
C3148 H3140 0.929 1_554 S
C3148 C3149 1.377 . S
C3148 C3150 1.384 . S
C3149 C3148 1.377 . S
C3149 C3155 1.390 . S
C3150 H3141 0.912 1_554 S
C3150 C3148 1.384 . S
C3150 C3151 1.372 . S
C3151 C3150 1.372 . S
C3151 C3152 1.400 . S
C3151 C3156 1.490 . S
C3152 H3142 0.930 . S
C3152 C3151 1.400 . S
C3152 C3155 1.386 . S
H3153 C3169 0.930 . S
H3154 C3170 0.931 . S
C3155 H3143 0.929 . S
C3155 C3149 1.390 . S
C3155 C3152 1.386 . S
C3156 C3151 1.490 . S
C3156 C3158 1.395 . S
C3156 C3159 1.403 . S
H3157 C3163 0.930 . S
C3158 H3144 0.930 1_554 S
C3158 C3156 1.395 . S
C3158 C3161 1.403 . S
C3159 C3156 1.403 . S
C3159 C3160 1.524 . S
C3159 C3163 1.400 . S
C3160 H3145 0.960 . S
C3160 H3146 0.960 . S
C3160 H3147 0.960 . S
C3160 C3159 1.524 . S
C3161 C3158 1.403 . S
C3161 C3162 1.392 . S
C3161 C3165 1.495 1_554 S
C3162 C3161 1.392 . S
C3162 C3163 1.385 . S
C3162 C3164 1.478 . S
C3163 H3157 0.930 . S
C3163 C3159 1.400 . S
C3163 C3162 1.385 . S
C3164 C3162 1.478 . S
C3164 C3166 1.381 . S
C3164 C3170 1.383 . S
C3165 C3161 1.495 1_556 S
C3165 H3171 0.959 . S
C3165 H3172 0.961 . S
C3165 H3173 0.960 . S
C3166 C3164 1.381 . S
C3166 C3167 1.394 . S
C3166 H3174 0.930 . S
C3167 C3166 1.394 . S
C3167 C3168 1.383 . S
C3167 H3175 0.929 . S
C3168 C3167 1.383 . S
C3168 C3169 1.377 . S
C3169 H3153 0.930 . S
C3169 C3168 1.377 . S
C3169 C3170 1.379 . S
C3170 H3154 0.931 . S
C3170 C3164 1.383 . S
C3170 C3169 1.379 . S
H3171 C3165 0.959 . S
H3172 C3165 0.961 . S
H3173 C3165 0.960 . S
H3174 C3166 0.930 . S
H3175 C3167 0.929 . S
H3176 C3184 0.929 . S
H3177 C3186 0.930 . S
H3178 C3188 0.930 . S
H3179 C3191 0.929 . S
H3180 C3194 0.930 . S
H3181 C3196 0.960 . S
H3182 C3196 0.960 . S
H3183 C3196 0.960 . S
C3184 H3176 0.929 . S
C3184 C3185 1.377 . S
C3184 C3186 1.384 . S
C3185 C3184 1.377 . S
C3185 C3191 1.390 . S
C3186 H3177 0.930 . S
C3186 C3184 1.384 . S
C3186 C3187 1.372 . S
C3187 C3186 1.372 . S
C3187 C3188 1.400 . S
C3187 C3192 1.490 . S
C3188 H3178 0.930 . S
C3188 C3187 1.400 . S
C3188 C3191 1.386 . S
H3189 C3205 0.930 . S
H3190 C3206 0.931 . S
C3191 H3179 0.929 . S
C3191 C3185 1.390 . S
C3191 C3188 1.386 . S
C3192 C3187 1.490 . S
C3192 C3194 1.395 . S
C3192 C3195 1.403 . S
H3193 C3199 0.930 . S
C3194 H3180 0.930 . S
C3194 C3192 1.395 . S
C3194 C3197 1.403 . S
C3195 C3192 1.403 . S
C3195 C3196 1.524 . S
C3195 C3199 1.400 . S
C3196 H3181 0.960 . S
C3196 H3182 0.960 . S
C3196 H3183 0.960 . S
C3196 C3195 1.524 . S
C3197 C3194 1.403 . S
C3197 C3198 1.392 . S
C3197 C3201 1.495 . S
C3198 C3197 1.392 . S
C3198 C3199 1.385 . S
C3198 C3200 1.478 . S
C3199 H3193 0.930 . S
C3199 C3195 1.400 . S
C3199 C3198 1.385 . S
C3200 C3198 1.478 . S
C3200 C3202 1.381 . S
C3200 C3206 1.383 . S
C3201 C3197 1.495 . S
C3201 H3207 0.959 . S
C3201 H3208 0.961 . S
C3201 H3209 0.960 . S
C3202 C3200 1.381 . S
C3202 C3203 1.394 . S
C3202 H3210 0.930 . S
C3203 C3202 1.394 . S
C3203 C3204 1.383 . S
C3203 H3211 0.929 . S
C3204 C3203 1.383 . S
C3204 C3205 1.377 . S
C3205 H3189 0.930 . S
C3205 C3204 1.377 . S
C3205 C3206 1.379 . S
C3206 H3190 0.931 . S
C3206 C3200 1.383 . S
C3206 C3205 1.379 . S
H3207 C3201 0.959 . S
H3208 C3201 0.961 . S
H3209 C3201 0.960 . S
H3210 C3202 0.930 . S
H3211 C3203 0.929 . S
H3212 C3220 0.929 . S
H3213 C3222 0.930 . S
H3214 C3224 0.930 . S
H3215 C3227 0.929 . S
H3216 C3230 0.930 . S
H3217 C3232 0.960 . S
H3218 C3232 0.960 . S
H3219 C3232 0.960 . S
C3220 H3212 0.929 . S
C3220 C3221 1.377 . S
C3220 C3222 1.384 . S
C3221 C3220 1.377 . S
C3221 C3227 1.390 . S
C3222 H3213 0.930 . S
C3222 C3220 1.384 . S
C3222 C3223 1.372 . S
C3223 C3222 1.372 . S
C3223 C3224 1.400 . S
C3223 C3228 1.490 . S
C3224 H3214 0.930 . S
C3224 C3223 1.400 . S
C3224 C3227 1.386 . S
H3225 C3241 0.930 . S
H3226 C3242 0.931 . S
C3227 H3215 0.929 . S
C3227 C3221 1.390 . S
C3227 C3224 1.386 . S
C3228 C3223 1.490 . S
C3228 C3230 1.395 . S
C3228 C3231 1.403 . S
H3229 C3235 0.930 . S
C3230 H3216 0.930 . S
C3230 C3228 1.395 . S
C3230 C3233 1.403 . S
C3231 C3228 1.403 . S
C3231 C3232 1.524 . S
C3231 C3235 1.400 . S
C3232 H3217 0.960 . S
C3232 H3218 0.960 . S
C3232 H3219 0.960 . S
C3232 C3231 1.524 . S
C3233 C3230 1.403 . S
C3233 C3234 1.392 . S
C3233 C3237 1.495 . S
C3234 C3233 1.392 . S
C3234 C3235 1.385 . S
C3234 C3236 1.478 . S
C3235 H3229 0.930 . S
C3235 C3231 1.400 . S
C3235 C3234 1.385 . S
C3236 C3234 1.478 . S
C3236 C3238 1.381 . S
C3236 C3242 1.383 . S
C3237 C3233 1.495 . S
C3237 H3243 0.959 . S
C3237 H3244 0.961 . S
C3237 H3245 0.960 . S
C3238 C3236 1.381 . S
C3238 C3239 1.394 . S
C3238 H3246 0.930 . S
C3239 C3238 1.394 . S
C3239 C3240 1.383 . S
C3239 H3247 0.929 . S
C3240 C3239 1.383 . S
C3240 C3241 1.377 . S
C3241 H3225 0.930 . S
C3241 C3240 1.377 . S
C3241 C3242 1.379 . S
C3242 H3226 0.931 . S
C3242 C3236 1.383 . S
C3242 C3241 1.379 . S
H3243 C3237 0.959 . S
H3244 C3237 0.961 . S
H3245 C3237 0.960 . S
H3246 C3238 0.930 . S
H3247 C3239 0.929 . S
H3248 C3256 0.929 . S
H3249 C3258 0.930 . S
H3250 C3260 0.930 . S
H3251 C3263 0.929 . S
H3252 C3266 0.930 . S
H3253 C3268 0.960 . S
H3254 C3268 0.960 . S
H3255 C3268 0.960 . S
C3256 H3248 0.929 . S
C3256 C3257 1.377 . S
C3256 C3258 1.384 . S
C3257 C3256 1.377 . S
C3257 C3263 1.390 . S
C3258 H3249 0.930 . S
C3258 C3256 1.384 . S
C3258 C3259 1.372 . S
C3259 C3258 1.372 . S
C3259 C3260 1.400 . S
C3259 C3264 1.490 . S
C3260 H3250 0.930 . S
C3260 C3259 1.400 . S
C3260 C3263 1.386 . S
H3261 C3277 0.930 . S
H3262 C3278 0.931 . S
C3263 H3251 0.929 . S
C3263 C3257 1.390 . S
C3263 C3260 1.386 . S
C3264 C3259 1.490 . S
C3264 C3266 1.395 . S
C3264 C3267 1.403 . S
H3265 C3271 0.930 . S
C3266 H3252 0.930 . S
C3266 C3264 1.395 . S
C3266 C3269 1.403 . S
C3267 C3264 1.403 . S
C3267 C3268 1.524 . S
C3267 C3271 1.400 . S
C3268 H3253 0.960 . S
C3268 H3254 0.960 . S
C3268 H3255 0.960 . S
C3268 C3267 1.524 . S
C3269 C3266 1.403 . S
C3269 C3270 1.392 . S
C3269 C3273 1.495 . S
C3270 C3269 1.392 . S
C3270 C3271 1.385 . S
C3270 C3272 1.478 . S
C3271 H3265 0.930 . S
C3271 C3267 1.400 . S
C3271 C3270 1.385 . S
C3272 C3270 1.478 . S
C3272 C3274 1.381 . S
C3272 C3278 1.383 . S
C3273 C3269 1.495 . S
C3273 H3279 0.959 . S
C3273 H3280 0.961 . S
C3273 H3281 0.960 . S
C3274 C3272 1.381 . S
C3274 C3275 1.394 . S
C3274 H3282 0.930 . S
C3275 C3274 1.394 . S
C3275 C3276 1.383 . S
C3275 H3283 0.929 . S
C3276 C3275 1.383 . S
C3276 C3277 1.377 . S
C3277 H3261 0.930 . S
C3277 C3276 1.377 . S
C3277 C3278 1.379 . S
C3278 H3262 0.931 . S
C3278 C3272 1.383 . S
C3278 C3277 1.379 . S
H3279 C3273 0.959 . S
H3280 C3273 0.961 . S
H3281 C3273 0.960 . S
H3282 C3274 0.930 . S
H3283 C3275 0.929 . S
H3284 C3292 0.929 . S
H3285 C3294 0.930 . S
H3286 C3296 0.930 . S
H3287 C3299 0.929 . S
H3288 C3302 0.930 . S
H3289 C3304 0.960 . S
H3290 C3304 0.960 . S
H3291 C3304 0.960 . S
C3292 H3284 0.929 . S
C3292 C3293 1.377 . S
C3292 C3294 1.384 . S
C3293 C3292 1.377 . S
C3293 C3299 1.390 . S
C3294 H3285 0.930 . S
C3294 C3292 1.384 . S
C3294 C3295 1.372 . S
C3295 C3294 1.372 . S
C3295 C3296 1.400 . S
C3295 C3300 1.490 . S
C3296 H3286 0.930 . S
C3296 C3295 1.400 . S
C3296 C3299 1.386 . S
H3297 C3313 0.930 . S
H3298 C3314 0.931 . S
C3299 H3287 0.929 . S
C3299 C3293 1.390 . S
C3299 C3296 1.386 . S
C3300 C3295 1.490 . S
C3300 C3302 1.395 . S
C3300 C3303 1.403 . S
H3301 C3307 0.930 . S
C3302 H3288 0.930 . S
C3302 C3300 1.395 . S
C3302 C3305 1.403 . S
C3303 C3300 1.403 . S
C3303 C3304 1.524 . S
C3303 C3307 1.400 . S
C3304 H3289 0.960 . S
C3304 H3290 0.960 . S
C3304 H3291 0.960 . S
C3304 C3303 1.524 . S
C3305 C3302 1.403 . S
C3305 C3306 1.392 . S
C3305 C3309 1.495 . S
C3306 C3305 1.392 . S
C3306 C3307 1.385 . S
C3306 C3308 1.478 . S
C3307 H3301 0.930 . S
C3307 C3303 1.400 . S
C3307 C3306 1.385 . S
C3308 C3306 1.478 . S
C3308 C3310 1.381 . S
C3308 C3314 1.383 . S
C3309 C3305 1.495 . S
C3309 H3315 0.959 . S
C3309 H3316 0.961 . S
C3309 H3317 0.960 . S
C3310 C3308 1.381 . S
C3310 C3311 1.394 . S
C3310 H3318 0.930 . S
C3311 C3310 1.394 . S
C3311 C3312 1.383 . S
C3311 H3319 0.929 . S
C3312 C3311 1.383 . S
C3312 C3313 1.377 . S
C3313 H3297 0.930 . S
C3313 C3312 1.377 . S
C3313 C3314 1.379 . S
C3314 H3298 0.931 . S
C3314 C3308 1.383 . S
C3314 C3313 1.379 . S
H3315 C3309 0.959 . S
H3316 C3309 0.961 . S
H3317 C3309 0.960 . S
H3318 C3310 0.930 . S
H3319 C3311 0.929 . S
H3320 C3328 0.932 . S
H3321 C3330 0.930 1_655 S
H3322 C3332 0.930 . S
H3323 C3335 0.929 . S
H3324 C3338 0.930 . S
H3325 C3340 0.960 1_655 S
H3326 C3340 0.960 1_655 S
H3327 C3340 0.960 . S
C3328 H3320 0.932 . S
C3328 C3329 1.377 . S
C3328 C3330 1.384 . S
C3329 C3328 1.377 . S
C3329 C3335 1.390 . S
C3330 H3321 0.930 1_455 S
C3330 C3328 1.384 . S
C3330 C3331 1.372 . S
C3331 C3330 1.372 . S
C3331 C3332 1.400 . S
C3331 C3336 1.490 . S
C3332 H3322 0.930 . S
C3332 C3331 1.400 . S
C3332 C3335 1.386 . S
H3333 C3349 0.930 . S
H3334 C3350 0.931 . S
C3335 H3323 0.929 . S
C3335 C3329 1.390 . S
C3335 C3332 1.386 . S
C3336 C3331 1.490 . S
C3336 C3338 1.395 . S
C3336 C3339 1.403 . S
H3337 C3343 0.930 . S
C3338 H3324 0.930 . S
C3338 C3336 1.395 . S
C3338 C3341 1.403 . S
C3339 C3336 1.403 . S
C3339 C3340 1.524 . S
C3339 C3343 1.400 . S
C3340 H3325 0.960 1_455 S
C3340 H3326 0.960 1_455 S
C3340 H3327 0.960 . S
C3340 C3339 1.524 . S
C3341 C3338 1.403 . S
C3341 C3342 1.392 . S
C3341 C3345 1.495 . S
C3342 C3341 1.392 . S
C3342 C3343 1.385 . S
C3342 C3344 1.478 . S
C3343 H3337 0.930 . S
C3343 C3339 1.400 . S
C3343 C3342 1.385 . S
C3344 C3342 1.478 . S
C3344 C3346 1.381 . S
C3344 C3350 1.383 . S
C3345 C3341 1.495 . S
C3345 H3351 0.959 . S
C3345 H3352 0.961 . S
C3345 H3353 0.960 . S
C3346 C3344 1.381 . S
C3346 C3347 1.394 . S
C3346 H3354 0.930 1_455 S
C3347 C3346 1.394 . S
C3347 C3348 1.383 . S
C3347 H3355 0.929 1_455 S
C3348 C3347 1.383 . S
C3348 C3349 1.377 . S
C3349 H3333 0.930 . S
C3349 C3348 1.377 . S
C3349 C3350 1.379 . S
C3350 H3334 0.931 . S
C3350 C3344 1.383 . S
C3350 C3349 1.379 . S
H3351 C3345 0.959 . S
H3352 C3345 0.961 . S
H3353 C3345 0.960 . S
H3354 C3346 0.930 1_655 S
H3355 C3347 0.929 1_655 S
H3356 C3364 0.929 . S
H3357 C3366 0.930 . S
H3358 C3368 0.930 . S
H3359 C3371 0.929 . S
H3360 C3374 0.930 . S
H3361 C3376 0.960 . S
H3362 C3376 0.960 . S
H3363 C3376 0.960 . S
C3364 H3356 0.929 . S
C3364 C3365 1.377 . S
C3364 C3366 1.384 . S
C3365 C3364 1.377 . S
C3365 C3371 1.390 . S
C3366 H3357 0.930 . S
C3366 C3364 1.384 . S
C3366 C3367 1.372 . S
C3367 C3366 1.372 . S
C3367 C3368 1.400 . S
C3367 C3372 1.490 . S
C3368 H3358 0.930 . S
C3368 C3367 1.400 . S
C3368 C3371 1.386 . S
H3369 C3385 0.930 . S
H3370 C3386 0.931 . S
C3371 H3359 0.929 . S
C3371 C3365 1.390 . S
C3371 C3368 1.386 . S
C3372 C3367 1.490 . S
C3372 C3374 1.395 . S
C3372 C3375 1.403 . S
H3373 C3379 0.930 . S
C3374 H3360 0.930 . S
C3374 C3372 1.395 . S
C3374 C3377 1.403 . S
C3375 C3372 1.403 . S
C3375 C3376 1.524 . S
C3375 C3379 1.400 . S
C3376 H3361 0.960 . S
C3376 H3362 0.960 . S
C3376 H3363 0.960 . S
C3376 C3375 1.524 . S
C3377 C3374 1.403 . S
C3377 C3378 1.392 . S
C3377 C3381 1.495 . S
C3378 C3377 1.392 . S
C3378 C3379 1.385 . S
C3378 C3380 1.478 . S
C3379 H3373 0.930 . S
C3379 C3375 1.400 . S
C3379 C3378 1.385 . S
C3380 C3378 1.478 . S
C3380 C3382 1.381 . S
C3380 C3386 1.383 . S
C3381 C3377 1.495 . S
C3381 H3387 0.959 . S
C3381 H3388 0.961 . S
C3381 H3389 0.960 . S
C3382 C3380 1.381 . S
C3382 C3383 1.394 . S
C3382 H3390 0.930 . S
C3383 C3382 1.394 . S
C3383 C3384 1.383 . S
C3383 H3391 0.929 . S
C3384 C3383 1.383 . S
C3384 C3385 1.377 . S
C3385 H3369 0.930 . S
C3385 C3384 1.377 . S
C3385 C3386 1.379 . S
C3386 H3370 0.931 . S
C3386 C3380 1.383 . S
C3386 C3385 1.379 . S
H3387 C3381 0.959 . S
H3388 C3381 0.961 . S
H3389 C3381 0.960 . S
H3390 C3382 0.930 . S
H3391 C3383 0.929 . S
H3392 C3400 0.929 . S
H3393 C3402 0.930 . S
H3394 C3404 0.930 . S
H3395 C3407 0.929 . S
H3396 C3410 0.930 . S
H3397 C3412 0.960 . S
H3398 C3412 0.960 . S
H3399 C3412 0.960 . S
C3400 H3392 0.929 . S
C3400 C3401 1.377 . S
C3400 C3402 1.384 . S
C3401 C3400 1.377 . S
C3401 C3407 1.390 . S
C3402 H3393 0.930 . S
C3402 C3400 1.384 . S
C3402 C3403 1.372 . S
C3403 C3402 1.372 . S
C3403 C3404 1.400 . S
C3403 C3408 1.490 . S
C3404 H3394 0.930 . S
C3404 C3403 1.400 . S
C3404 C3407 1.386 . S
H3405 C3421 0.930 . S
H3406 C3422 0.915 1_554 S
C3407 H3395 0.929 . S
C3407 C3401 1.390 . S
C3407 C3404 1.386 . S
C3408 C3403 1.490 . S
C3408 C3410 1.395 . S
C3408 C3411 1.403 . S
H3409 C3415 0.930 . S
C3410 H3396 0.930 . S
C3410 C3408 1.395 . S
C3410 C3413 1.403 . S
C3411 C3408 1.403 . S
C3411 C3412 1.524 . S
C3411 C3415 1.400 . S
C3412 H3397 0.960 . S
C3412 H3398 0.960 . S
C3412 H3399 0.960 . S
C3412 C3411 1.524 . S
C3413 C3410 1.403 . S
C3413 C3414 1.392 . S
C3413 C3417 1.495 . S
C3414 C3413 1.392 . S
C3414 C3415 1.385 . S
C3414 C3416 1.478 . S
C3415 H3409 0.930 . S
C3415 C3411 1.400 . S
C3415 C3414 1.385 . S
C3416 C3414 1.478 . S
C3416 C3418 1.381 . S
C3416 C3422 1.383 . S
C3417 C3413 1.495 . S
C3417 H3423 0.959 . S
C3417 H3424 0.961 . S
C3417 H3425 0.960 . S
C3418 C3416 1.381 . S
C3418 C3419 1.394 . S
C3418 H3426 0.930 . S
C3419 C3418 1.394 . S
C3419 C3420 1.383 . S
C3419 H3427 0.929 . S
C3420 C3419 1.383 . S
C3420 C3421 1.377 1_556 S
C3421 H3405 0.930 . S
C3421 C3420 1.377 1_554 S
C3421 C3422 1.379 1_554 S
C3422 H3406 0.915 1_556 S
C3422 C3416 1.383 . S
C3422 C3421 1.379 1_556 S
H3423 C3417 0.959 . S
H3424 C3417 0.961 . S
H3425 C3417 0.960 . S
H3426 C3418 0.930 . S
H3427 C3419 0.929 . S
H3428 C3436 0.929 . S
H3429 C3438 0.930 . S
H3430 C3440 0.930 . S
H3431 C3443 0.929 . S
H3432 C3446 0.930 . S
H3433 C3448 0.960 . S
H3434 C3448 0.960 . S
H3435 C3448 0.960 . S
C3436 H3428 0.929 . S
C3436 C3437 1.377 . S
C3436 C3438 1.384 . S
C3437 C3436 1.377 . S
C3437 C3443 1.390 . S
C3438 H3429 0.930 . S
C3438 C3436 1.384 . S
C3438 C3439 1.372 . S
C3439 C3438 1.372 . S
C3439 C3440 1.400 . S
C3439 C3444 1.490 . S
C3440 H3430 0.930 . S
C3440 C3439 1.400 . S
C3440 C3443 1.386 . S
H3441 C3457 0.930 . S
H3442 C3458 0.931 . S
C3443 H3431 0.929 . S
C3443 C3437 1.390 . S
C3443 C3440 1.386 . S
C3444 C3439 1.490 . S
C3444 C3446 1.395 . S
C3444 C3447 1.403 . S
H3445 C3451 0.930 . S
C3446 H3432 0.930 . S
C3446 C3444 1.395 . S
C3446 C3449 1.403 . S
C3447 C3444 1.403 . S
C3447 C3448 1.524 . S
C3447 C3451 1.400 . S
C3448 H3433 0.960 . S
C3448 H3434 0.960 . S
C3448 H3435 0.960 . S
C3448 C3447 1.524 . S
C3449 C3446 1.403 . S
C3449 C3450 1.392 . S
C3449 C3453 1.495 . S
C3450 C3449 1.392 . S
C3450 C3451 1.385 . S
C3450 C3452 1.478 . S
C3451 H3445 0.930 . S
C3451 C3447 1.400 . S
C3451 C3450 1.385 . S
C3452 C3450 1.478 . S
C3452 C3454 1.381 . S
C3452 C3458 1.383 . S
C3453 C3449 1.495 . S
C3453 H3459 0.959 . S
C3453 H3460 0.961 . S
C3453 H3461 0.960 . S
C3454 C3452 1.381 . S
C3454 C3455 1.394 . S
C3454 H3462 0.930 . S
C3455 C3454 1.394 . S
C3455 C3456 1.383 . S
C3455 H3463 0.929 . S
C3456 C3455 1.383 . S
C3456 C3457 1.377 . S
C3457 H3441 0.930 . S
C3457 C3456 1.377 . S
C3457 C3458 1.379 . S
C3458 H3442 0.931 . S
C3458 C3452 1.383 . S
C3458 C3457 1.379 . S
H3459 C3453 0.959 . S
H3460 C3453 0.961 . S
H3461 C3453 0.960 . S
H3462 C3454 0.930 . S
H3463 C3455 0.929 . S
H3464 C3472 0.929 1_655 S
H3465 C3474 0.930 1_655 S
H3466 C3476 0.930 . S
H3467 C3479 0.929 . S
H3468 C3482 0.915 1_655 S
H3469 C3484 0.960 . S
H3470 C3484 0.960 . S
H3471 C3484 0.960 . S
C3472 H3464 0.929 1_455 S
C3472 C3473 1.377 . S
C3472 C3474 1.384 . S
C3473 C3472 1.377 . S
C3473 C3479 1.390 . S
C3474 H3465 0.930 1_455 S
C3474 C3472 1.384 . S
C3474 C3475 1.372 . S
C3475 C3474 1.372 . S
C3475 C3476 1.400 . S
C3475 C3480 1.490 . S
C3476 H3466 0.930 . S
C3476 C3475 1.400 . S
C3476 C3479 1.386 . S
H3477 C3493 0.930 . S
H3478 C3494 0.931 . S
C3479 H3467 0.929 . S
C3479 C3473 1.390 . S
C3479 C3476 1.386 . S
C3480 C3475 1.490 . S
C3480 C3482 1.417 . S
C3480 C3483 1.403 . S
H3481 C3487 0.930 . S
C3482 H3468 0.915 1_455 S
C3482 C3480 1.417 . S
C3482 C3485 1.396 1_455 S
C3483 C3480 1.403 . S
C3483 C3484 1.524 . S
C3483 C3487 1.400 . S
C3484 H3469 0.960 . S
C3484 H3470 0.960 . S
C3484 H3471 0.960 . S
C3484 C3483 1.524 . S
C3485 C3482 1.396 1_655 S
C3485 C3486 1.392 1_655 S
C3485 C3489 1.495 . S
C3486 C3485 1.392 1_455 S
C3486 C3487 1.385 . S
C3486 C3488 1.478 . S
C3487 H3481 0.930 . S
C3487 C3483 1.400 . S
C3487 C3486 1.385 . S
C3488 C3486 1.478 . S
C3488 C3490 1.381 . S
C3488 C3494 1.383 . S
C3489 C3485 1.495 . S
C3489 H3495 0.959 . S
C3489 H3496 0.961 . S
C3489 H3497 0.960 . S
C3490 C3488 1.381 . S
C3490 C3491 1.394 . S
C3490 H3498 0.930 1_455 S
C3491 C3490 1.394 . S
C3491 C3492 1.383 . S
C3491 H3499 0.929 1_455 S
C3492 C3491 1.383 . S
C3492 C3493 1.377 . S
C3493 H3477 0.930 . S
C3493 C3492 1.377 . S
C3493 C3494 1.379 . S
C3494 H3478 0.931 . S
C3494 C3488 1.383 . S
C3494 C3493 1.379 . S
H3495 C3489 0.959 . S
H3496 C3489 0.961 . S
H3497 C3489 0.960 . S
H3498 C3490 0.930 1_655 S
H3499 C3491 0.929 1_655 S
H3500 C3508 0.929 . S
H3501 C3510 0.930 . S
H3502 C3512 0.930 . S
H3503 C3515 0.929 . S
H3504 C3518 0.930 . S
H3505 C3520 0.960 . S
H3506 C3520 0.960 . S
H3507 C3520 0.960 . S
C3508 H3500 0.929 . S
C3508 C3509 1.377 . S
C3508 C3510 1.384 . S
C3509 C3508 1.377 . S
C3509 C3515 1.390 . S
C3510 H3501 0.930 . S
C3510 C3508 1.384 . S
C3510 C3511 1.372 . S
C3511 C3510 1.372 . S
C3511 C3512 1.400 . S
C3511 C3516 1.490 . S
C3512 H3502 0.930 . S
C3512 C3511 1.400 . S
C3512 C3515 1.386 . S
H3513 C3529 0.930 . S
H3514 C3530 0.931 . S
C3515 H3503 0.929 . S
C3515 C3509 1.390 . S
C3515 C3512 1.386 . S
C3516 C3511 1.490 . S
C3516 C3518 1.395 . S
C3516 C3519 1.403 . S
H3517 C3523 0.930 . S
C3518 H3504 0.930 . S
C3518 C3516 1.395 . S
C3518 C3521 1.403 . S
C3519 C3516 1.403 . S
C3519 C3520 1.524 . S
C3519 C3523 1.400 . S
C3520 H3505 0.960 . S
C3520 H3506 0.960 . S
C3520 H3507 0.960 . S
C3520 C3519 1.524 . S
C3521 C3518 1.403 . S
C3521 C3522 1.392 . S
C3521 C3525 1.495 . S
C3522 C3521 1.392 . S
C3522 C3523 1.385 . S
C3522 C3524 1.478 . S
C3523 H3517 0.930 . S
C3523 C3519 1.400 . S
C3523 C3522 1.385 . S
C3524 C3522 1.478 . S
C3524 C3526 1.381 . S
C3524 C3530 1.383 . S
C3525 C3521 1.495 . S
C3525 H3531 0.959 . S
C3525 H3532 0.961 . S
C3525 H3533 0.960 . S
C3526 C3524 1.381 . S
C3526 C3527 1.394 . S
C3526 H3534 0.930 . S
C3527 C3526 1.394 . S
C3527 C3528 1.383 . S
C3527 H3535 0.929 . S
C3528 C3527 1.383 . S
C3528 C3529 1.377 . S
C3529 H3513 0.930 . S
C3529 C3528 1.377 . S
C3529 C3530 1.379 . S
C3530 H3514 0.931 . S
C3530 C3524 1.383 . S
C3530 C3529 1.379 . S
H3531 C3525 0.959 . S
H3532 C3525 0.961 . S
H3533 C3525 0.960 . S
H3534 C3526 0.930 . S
H3535 C3527 0.929 . S
H3536 C3544 0.929 . S
H3537 C3546 0.930 . S
H3538 C3548 0.930 . S
H3539 C3551 0.929 . S
H3540 C3554 0.930 . S
H3541 C3556 0.960 . S
H3542 C3556 0.960 . S
H3543 C3556 0.960 . S
C3544 H3536 0.929 . S
C3544 C3545 1.377 . S
C3544 C3546 1.384 . S
C3545 C3544 1.377 . S
C3545 C3551 1.390 . S
C3546 H3537 0.930 . S
C3546 C3544 1.384 . S
C3546 C3547 1.372 . S
C3547 C3546 1.372 . S
C3547 C3548 1.400 . S
C3547 C3552 1.490 . S
C3548 H3538 0.930 . S
C3548 C3547 1.400 . S
C3548 C3551 1.386 . S
H3549 C3565 0.930 . S
H3550 C3566 0.931 . S
C3551 H3539 0.929 . S
C3551 C3545 1.390 . S
C3551 C3548 1.386 . S
C3552 C3547 1.490 . S
C3552 C3554 1.395 . S
C3552 C3555 1.403 . S
H3553 C3559 0.930 . S
C3554 H3540 0.930 . S
C3554 C3552 1.395 . S
C3554 C3557 1.403 . S
C3555 C3552 1.403 . S
C3555 C3556 1.524 . S
C3555 C3559 1.400 . S
C3556 H3541 0.960 . S
C3556 H3542 0.960 . S
C3556 H3543 0.960 . S
C3556 C3555 1.524 . S
C3557 C3554 1.403 . S
C3557 C3558 1.392 . S
C3557 C3561 1.495 . S
C3558 C3557 1.392 . S
C3558 C3559 1.385 . S
C3558 C3560 1.478 . S
C3559 H3553 0.930 . S
C3559 C3555 1.400 . S
C3559 C3558 1.385 . S
C3560 C3558 1.478 . S
C3560 C3562 1.381 . S
C3560 C3566 1.383 . S
C3561 C3557 1.495 . S
C3561 H3567 0.959 . S
C3561 H3568 0.961 . S
C3561 H3569 0.960 . S
C3562 C3560 1.381 . S
C3562 C3563 1.394 . S
C3562 H3570 0.930 . S
C3563 C3562 1.394 . S
C3563 C3564 1.383 . S
C3563 H3571 0.929 . S
C3564 C3563 1.383 . S
C3564 C3565 1.377 . S
C3565 H3549 0.930 . S
C3565 C3564 1.377 . S
C3565 C3566 1.379 . S
C3566 H3550 0.931 . S
C3566 C3560 1.383 . S
C3566 C3565 1.379 . S
H3567 C3561 0.959 . S
H3568 C3561 0.961 . S
H3569 C3561 0.960 . S
H3570 C3562 0.930 . S
H3571 C3563 0.929 . S
H3572 C3580 0.929 . S
H3573 C3582 0.930 . S
H3574 C3584 0.930 . S
H3575 C3587 0.929 . S
H3576 C3590 0.930 . S
H3577 C3592 0.960 . S
H3578 C3592 0.960 . S
H3579 C3592 0.960 . S
C3580 H3572 0.929 . S
C3580 C3581 1.377 . S
C3580 C3582 1.384 . S
C3581 C3580 1.377 . S
C3581 C3587 1.390 . S
C3582 H3573 0.930 . S
C3582 C3580 1.384 . S
C3582 C3583 1.372 . S
C3583 C3582 1.372 . S
C3583 C3584 1.400 . S
C3583 C3588 1.490 . S
C3584 H3574 0.930 . S
C3584 C3583 1.400 . S
C3584 C3587 1.386 . S
H3585 C3601 0.930 . S
H3586 C3602 0.931 . S
C3587 H3575 0.929 . S
C3587 C3581 1.390 . S
C3587 C3584 1.386 . S
C3588 C3583 1.490 . S
C3588 C3590 1.395 . S
C3588 C3591 1.403 . S
H3589 C3595 0.930 . S
C3590 H3576 0.930 . S
C3590 C3588 1.395 . S
C3590 C3593 1.403 . S
C3591 C3588 1.403 . S
C3591 C3592 1.524 . S
C3591 C3595 1.400 . S
C3592 H3577 0.960 . S
C3592 H3578 0.960 . S
C3592 H3579 0.960 . S
C3592 C3591 1.524 . S
C3593 C3590 1.403 . S
C3593 C3594 1.392 . S
C3593 C3597 1.495 . S
C3594 C3593 1.392 . S
C3594 C3595 1.385 . S
C3594 C3596 1.478 . S
C3595 H3589 0.930 . S
C3595 C3591 1.400 . S
C3595 C3594 1.385 . S
C3596 C3594 1.478 . S
C3596 C3598 1.381 . S
C3596 C3602 1.383 . S
C3597 C3593 1.495 . S
C3597 H3603 0.959 . S
C3597 H3604 0.961 . S
C3597 H3605 0.960 . S
C3598 C3596 1.381 . S
C3598 C3599 1.394 . S
C3598 H3606 0.930 . S
C3599 C3598 1.394 . S
C3599 C3600 1.383 . S
C3599 H3607 0.929 . S
C3600 C3599 1.383 . S
C3600 C3601 1.377 . S
C3601 H3585 0.930 . S
C3601 C3600 1.377 . S
C3601 C3602 1.379 . S
C3602 H3586 0.931 . S
C3602 C3596 1.383 . S
C3602 C3601 1.379 . S
H3603 C3597 0.959 . S
H3604 C3597 0.961 . S
H3605 C3597 0.960 . S
H3606 C3598 0.930 . S
H3607 C3599 0.929 . S
H3608 C3616 0.929 . S
H3609 C3618 0.930 . S
H3610 C3620 0.930 . S
H3611 C3623 0.929 . S
H3612 C3626 0.930 . S
H3613 C3628 0.960 . S
H3614 C3628 0.960 . S
H3615 C3628 0.960 . S
C3616 H3608 0.929 . S
C3616 C3617 1.377 . S
C3616 C3618 1.384 . S
C3617 C3616 1.377 . S
C3617 C3623 1.390 . S
C3618 H3609 0.930 . S
C3618 C3616 1.384 . S
C3618 C3619 1.372 . S
C3619 C3618 1.372 . S
C3619 C3620 1.400 . S
C3619 C3624 1.490 . S
C3620 H3610 0.930 . S
C3620 C3619 1.400 . S
C3620 C3623 1.386 . S
H3621 C3637 0.930 . S
H3622 C3638 0.931 . S
C3623 H3611 0.929 . S
C3623 C3617 1.390 . S
C3623 C3620 1.386 . S
C3624 C3619 1.490 . S
C3624 C3626 1.395 . S
C3624 C3627 1.403 . S
H3625 C3631 0.930 . S
C3626 H3612 0.930 . S
C3626 C3624 1.395 . S
C3626 C3629 1.403 . S
C3627 C3624 1.403 . S
C3627 C3628 1.524 . S
C3627 C3631 1.400 . S
C3628 H3613 0.960 . S
C3628 H3614 0.960 . S
C3628 H3615 0.960 . S
C3628 C3627 1.524 . S
C3629 C3626 1.403 . S
C3629 C3630 1.392 . S
C3629 C3633 1.495 . S
C3630 C3629 1.392 . S
C3630 C3631 1.385 . S
C3630 C3632 1.478 . S
C3631 H3625 0.930 . S
C3631 C3627 1.400 . S
C3631 C3630 1.385 . S
C3632 C3630 1.478 . S
C3632 C3634 1.412 . S
C3632 C3638 1.383 . S
C3633 C3629 1.495 . S
C3633 H3639 0.959 . S
C3633 H3640 0.961 . S
C3633 H3641 0.960 . S
C3634 C3632 1.412 . S
C3634 C3635 1.383 1_655 S
C3634 H3642 0.911 1_655 S
C3635 C3634 1.383 1_455 S
C3635 C3636 1.383 1_455 S
C3635 H3643 0.929 . S
C3636 C3635 1.383 1_655 S
C3636 C3637 1.377 . S
C3637 H3621 0.930 . S
C3637 C3636 1.377 . S
C3637 C3638 1.379 . S
C3638 H3622 0.931 . S
C3638 C3632 1.383 . S
C3638 C3637 1.379 . S
H3639 C3633 0.959 . S
H3640 C3633 0.961 . S
H3641 C3633 0.960 . S
H3642 C3634 0.911 1_455 S
H3643 C3635 0.929 . S
H3644 C3652 0.929 . S
H3645 C3654 0.930 . S
H3646 C3656 0.930 . S
H3647 C3659 0.929 . S
H3648 C3662 0.930 . S
H3649 C3664 0.960 . S
H3650 C3664 0.960 . S
H3651 C3664 0.960 . S
C3652 H3644 0.929 . S
C3652 C3653 1.377 . S
C3652 C3654 1.384 . S
C3653 C3652 1.377 . S
C3653 C3659 1.390 . S
C3654 H3645 0.930 . S
C3654 C3652 1.384 . S
C3654 C3655 1.372 . S
C3655 C3654 1.372 . S
C3655 C3656 1.400 . S
C3655 C3660 1.490 . S
C3656 H3646 0.930 . S
C3656 C3655 1.400 . S
C3656 C3659 1.386 . S
H3657 C3673 0.930 . S
H3658 C3674 0.931 . S
C3659 H3647 0.929 . S
C3659 C3653 1.390 . S
C3659 C3656 1.386 . S
C3660 C3655 1.490 . S
C3660 C3662 1.395 . S
C3660 C3663 1.403 . S
H3661 C3667 0.930 . S
C3662 H3648 0.930 . S
C3662 C3660 1.395 . S
C3662 C3665 1.403 . S
C3663 C3660 1.403 . S
C3663 C3664 1.524 . S
C3663 C3667 1.400 . S
C3664 H3649 0.960 . S
C3664 H3650 0.960 . S
C3664 H3651 0.960 . S
C3664 C3663 1.524 . S
C3665 C3662 1.403 . S
C3665 C3666 1.392 . S
C3665 C3669 1.495 . S
C3666 C3665 1.392 . S
C3666 C3667 1.385 . S
C3666 C3668 1.478 . S
C3667 H3661 0.930 . S
C3667 C3663 1.400 . S
C3667 C3666 1.385 . S
C3668 C3666 1.478 . S
C3668 C3670 1.381 . S
C3668 C3674 1.383 . S
C3669 C3665 1.495 . S
C3669 H3675 0.959 . S
C3669 H3676 0.961 . S
C3669 H3677 0.960 . S
C3670 C3668 1.381 . S
C3670 C3671 1.394 . S
C3670 H3678 0.930 . S
C3671 C3670 1.394 . S
C3671 C3672 1.383 . S
C3671 H3679 0.929 . S
C3672 C3671 1.383 . S
C3672 C3673 1.377 . S
C3673 H3657 0.930 . S
C3673 C3672 1.377 . S
C3673 C3674 1.379 . S
C3674 H3658 0.931 . S
C3674 C3668 1.383 . S
C3674 C3673 1.379 . S
H3675 C3669 0.959 . S
H3676 C3669 0.961 . S
H3677 C3669 0.960 . S
H3678 C3670 0.930 . S
H3679 C3671 0.929 . S
H3680 C3688 0.929 . S
H3681 C3690 0.930 . S
H3682 C3692 0.930 . S
H3683 C3695 0.929 . S
H3684 C3698 0.930 . S
H3685 C3700 0.960 . S
H3686 C3700 0.960 . S
H3687 C3700 0.960 . S
C3688 H3680 0.929 . S
C3688 C3689 1.377 . S
C3688 C3690 1.384 . S
C3689 C3688 1.377 . S
C3689 C3695 1.390 . S
C3690 H3681 0.930 . S
C3690 C3688 1.384 . S
C3690 C3691 1.372 . S
C3691 C3690 1.372 . S
C3691 C3692 1.400 . S
C3691 C3696 1.490 . S
C3692 H3682 0.930 . S
C3692 C3691 1.400 . S
C3692 C3695 1.386 . S
H3693 C3709 0.930 . S
H3694 C3710 0.931 . S
C3695 H3683 0.929 . S
C3695 C3689 1.390 . S
C3695 C3692 1.386 . S
C3696 C3691 1.490 . S
C3696 C3698 1.395 . S
C3696 C3699 1.403 . S
H3697 C3703 0.930 . S
C3698 H3684 0.930 . S
C3698 C3696 1.395 . S
C3698 C3701 1.403 . S
C3699 C3696 1.403 . S
C3699 C3700 1.524 . S
C3699 C3703 1.400 . S
C3700 H3685 0.960 . S
C3700 H3686 0.960 . S
C3700 H3687 0.960 . S
C3700 C3699 1.524 . S
C3701 C3698 1.403 . S
C3701 C3702 1.392 . S
C3701 C3705 1.495 . S
C3702 C3701 1.392 . S
C3702 C3703 1.385 . S
C3702 C3704 1.478 . S
C3703 H3697 0.930 . S
C3703 C3699 1.400 . S
C3703 C3702 1.385 . S
C3704 C3702 1.478 . S
C3704 C3706 1.381 . S
C3704 C3710 1.383 . S
C3705 C3701 1.495 . S
C3705 H3711 0.959 . S
C3705 H3712 0.961 . S
C3705 H3713 0.960 . S
C3706 C3704 1.381 . S
C3706 C3707 1.394 . S
C3706 H3714 0.930 . S
C3707 C3706 1.394 . S
C3707 C3708 1.383 . S
C3707 H3715 0.929 . S
C3708 C3707 1.383 . S
C3708 C3709 1.377 . S
C3709 H3693 0.930 . S
C3709 C3708 1.377 . S
C3709 C3710 1.379 . S
C3710 H3694 0.931 . S
C3710 C3704 1.383 . S
C3710 C3709 1.379 . S
H3711 C3705 0.959 . S
H3712 C3705 0.961 . S
H3713 C3705 0.960 . S
H3714 C3706 0.930 . S
H3715 C3707 0.929 . S
H3716 C3724 0.929 . S
H3717 C3726 0.930 . S
H3718 C3728 0.930 . S
H3719 C3731 0.929 . S
H3720 C3734 0.930 . S
H3721 C3736 0.960 . S
H3722 C3736 0.960 . S
H3723 C3736 0.960 . S
C3724 H3716 0.929 . S
C3724 C3725 1.377 . S
C3724 C3726 1.384 . S
C3725 C3724 1.377 . S
C3725 C3731 1.390 . S
C3726 H3717 0.930 . S
C3726 C3724 1.384 . S
C3726 C3727 1.372 . S
C3727 C3726 1.372 . S
C3727 C3728 1.400 . S
C3727 C3732 1.490 . S
C3728 H3718 0.930 . S
C3728 C3727 1.400 . S
C3728 C3731 1.386 . S
H3729 C3745 0.930 . S
H3730 C3746 0.931 . S
C3731 H3719 0.929 . S
C3731 C3725 1.390 . S
C3731 C3728 1.386 . S
C3732 C3727 1.490 . S
C3732 C3734 1.395 . S
C3732 C3735 1.403 . S
H3733 C3739 0.930 . S
C3734 H3720 0.930 . S
C3734 C3732 1.395 . S
C3734 C3737 1.403 . S
C3735 C3732 1.403 . S
C3735 C3736 1.524 . S
C3735 C3739 1.400 . S
C3736 H3721 0.960 . S
C3736 H3722 0.960 . S
C3736 H3723 0.960 . S
C3736 C3735 1.524 . S
C3737 C3734 1.403 . S
C3737 C3738 1.392 . S
C3737 C3741 1.495 . S
C3738 C3737 1.392 . S
C3738 C3739 1.385 . S
C3738 C3740 1.478 . S
C3739 H3733 0.930 . S
C3739 C3735 1.400 . S
C3739 C3738 1.385 . S
C3740 C3738 1.478 . S
C3740 C3742 1.381 . S
C3740 C3746 1.383 . S
C3741 C3737 1.495 . S
C3741 H3747 0.959 . S
C3741 H3748 0.961 . S
C3741 H3749 0.960 . S
C3742 C3740 1.381 . S
C3742 C3743 1.394 . S
C3742 H3750 0.930 . S
C3743 C3742 1.394 . S
C3743 C3744 1.383 . S
C3743 H3751 0.929 . S
C3744 C3743 1.383 . S
C3744 C3745 1.377 . S
C3745 H3729 0.930 . S
C3745 C3744 1.377 . S
C3745 C3746 1.379 . S
C3746 H3730 0.931 . S
C3746 C3740 1.383 . S
C3746 C3745 1.379 . S
H3747 C3741 0.959 . S
H3748 C3741 0.961 . S
H3749 C3741 0.960 . S
H3750 C3742 0.930 . S
H3751 C3743 0.929 . S
H3752 C3760 0.929 . S
H3753 C3762 0.930 . S
H3754 C3764 0.930 . S
H3755 C3767 0.929 . S
H3756 C3770 0.930 . S
H3757 C3772 0.960 . S
H3758 C3772 0.960 . S
H3759 C3772 0.960 . S
C3760 H3752 0.929 . S
C3760 C3761 1.377 . S
C3760 C3762 1.384 . S
C3761 C3760 1.377 . S
C3761 C3767 1.390 . S
C3762 H3753 0.930 . S
C3762 C3760 1.384 . S
C3762 C3763 1.372 . S
C3763 C3762 1.372 . S
C3763 C3764 1.400 . S
C3763 C3768 1.490 . S
C3764 H3754 0.930 . S
C3764 C3763 1.400 . S
C3764 C3767 1.386 . S
H3765 C3781 0.930 . S
H3766 C3782 0.931 . S
C3767 H3755 0.929 . S
C3767 C3761 1.390 . S
C3767 C3764 1.386 . S
C3768 C3763 1.490 . S
C3768 C3770 1.395 . S
C3768 C3771 1.403 . S
H3769 C3775 0.930 . S
C3770 H3756 0.930 . S
C3770 C3768 1.395 . S
C3770 C3773 1.403 . S
C3771 C3768 1.403 . S
C3771 C3772 1.524 . S
C3771 C3775 1.400 . S
C3772 H3757 0.960 . S
C3772 H3758 0.960 . S
C3772 H3759 0.960 . S
C3772 C3771 1.524 . S
C3773 C3770 1.403 . S
C3773 C3774 1.392 . S
C3773 C3777 1.495 . S
C3774 C3773 1.392 . S
C3774 C3775 1.385 . S
C3774 C3776 1.478 . S
C3775 H3769 0.930 . S
C3775 C3771 1.400 . S
C3775 C3774 1.385 . S
C3776 C3774 1.478 . S
C3776 C3778 1.381 . S
C3776 C3782 1.383 . S
C3777 C3773 1.495 . S
C3777 H3783 0.959 . S
C3777 H3784 0.961 . S
C3777 H3785 0.960 1_655 S
C3778 C3776 1.381 . S
C3778 C3779 1.394 . S
C3778 H3786 0.930 . S
C3779 C3778 1.394 . S
C3779 C3780 1.383 . S
C3779 H3787 0.929 1_655 S
C3780 C3779 1.383 . S
C3780 C3781 1.377 . S
C3781 H3765 0.930 . S
C3781 C3780 1.377 . S
C3781 C3782 1.379 . S
C3782 H3766 0.931 . S
C3782 C3776 1.383 . S
C3782 C3781 1.379 . S
H3783 C3777 0.959 . S
H3784 C3777 0.961 . S
H3785 C3777 0.960 1_455 S
H3786 C3778 0.930 . S
H3787 C3779 0.929 1_455 S
H3788 C3796 0.929 . S
H3789 C3798 0.930 . S
H3790 C3800 0.930 . S
H3791 C3803 0.929 . S
H3792 C3806 0.930 . S
H3793 C3808 0.960 . S
H3794 C3808 0.960 . S
H3795 C3808 0.960 . S
C3796 H3788 0.929 . S
C3796 C3797 1.377 . S
C3796 C3798 1.384 . S
C3797 C3796 1.377 . S
C3797 C3803 1.390 . S
C3798 H3789 0.930 . S
C3798 C3796 1.384 . S
C3798 C3799 1.372 . S
C3799 C3798 1.372 . S
C3799 C3800 1.400 . S
C3799 C3804 1.490 . S
C3800 H3790 0.930 . S
C3800 C3799 1.400 . S
C3800 C3803 1.386 . S
H3801 C3817 0.930 . S
H3802 C3818 0.931 . S
C3803 H3791 0.929 . S
C3803 C3797 1.390 . S
C3803 C3800 1.386 . S
C3804 C3799 1.490 . S
C3804 C3806 1.395 . S
C3804 C3807 1.403 . S
H3805 C3811 0.930 . S
C3806 H3792 0.930 . S
C3806 C3804 1.395 . S
C3806 C3809 1.403 . S
C3807 C3804 1.403 . S
C3807 C3808 1.524 . S
C3807 C3811 1.400 . S
C3808 H3793 0.960 . S
C3808 H3794 0.960 . S
C3808 H3795 0.960 . S
C3808 C3807 1.524 . S
C3809 C3806 1.403 . S
C3809 C3810 1.392 . S
C3809 C3813 1.495 . S
C3810 C3809 1.392 . S
C3810 C3811 1.385 . S
C3810 C3812 1.478 . S
C3811 H3805 0.930 . S
C3811 C3807 1.400 . S
C3811 C3810 1.385 . S
C3812 C3810 1.478 . S
C3812 C3814 1.381 . S
C3812 C3818 1.383 . S
C3813 C3809 1.495 . S
C3813 H3819 0.959 . S
C3813 H3820 0.961 . S
C3813 H3821 0.960 . S
C3814 C3812 1.381 . S
C3814 C3815 1.394 . S
C3814 H3822 0.930 . S
C3815 C3814 1.394 . S
C3815 C3816 1.383 . S
C3815 H3823 0.929 . S
C3816 C3815 1.383 . S
C3816 C3817 1.377 . S
C3817 H3801 0.930 . S
C3817 C3816 1.377 . S
C3817 C3818 1.379 . S
C3818 H3802 0.931 . S
C3818 C3812 1.383 . S
C3818 C3817 1.379 . S
H3819 C3813 0.959 . S
H3820 C3813 0.961 . S
H3821 C3813 0.960 . S
H3822 C3814 0.930 . S
H3823 C3815 0.929 . S
H3824 C3832 0.929 . S
H3825 C3834 0.930 . S
H3826 C3836 0.930 . S
H3827 C3839 0.929 . S
H3828 C3842 0.930 . S
H3829 C3844 0.960 . S
H3830 C3844 0.960 . S
H3831 C3844 0.960 . S
C3832 H3824 0.929 . S
C3832 C3833 1.377 . S
C3832 C3834 1.384 . S
C3833 C3832 1.377 . S
C3833 C3839 1.390 . S
C3834 H3825 0.930 . S
C3834 C3832 1.384 . S
C3834 C3835 1.372 . S
C3835 C3834 1.372 . S
C3835 C3836 1.400 . S
C3835 C3840 1.490 . S
C3836 H3826 0.930 . S
C3836 C3835 1.400 . S
C3836 C3839 1.386 . S
H3837 C3853 0.930 . S
H3838 C3854 0.931 . S
C3839 H3827 0.929 . S
C3839 C3833 1.390 . S
C3839 C3836 1.386 . S
C3840 C3835 1.490 . S
C3840 C3842 1.395 . S
C3840 C3843 1.403 . S
H3841 C3847 0.930 . S
C3842 H3828 0.930 . S
C3842 C3840 1.395 . S
C3842 C3845 1.403 . S
C3843 C3840 1.403 . S
C3843 C3844 1.524 . S
C3843 C3847 1.400 . S
C3844 H3829 0.960 . S
C3844 H3830 0.960 . S
C3844 H3831 0.960 . S
C3844 C3843 1.524 . S
C3845 C3842 1.403 . S
C3845 C3846 1.392 . S
C3845 C3849 1.495 . S
C3846 C3845 1.392 . S
C3846 C3847 1.385 . S
C3846 C3848 1.478 . S
C3847 H3841 0.930 . S
C3847 C3843 1.400 . S
C3847 C3846 1.385 . S
C3848 C3846 1.478 . S
C3848 C3850 1.381 . S
C3848 C3854 1.383 . S
C3849 C3845 1.495 . S
C3849 H3855 0.959 . S
C3849 H3856 0.961 . S
C3849 H3857 0.960 . S
C3850 C3848 1.381 . S
C3850 C3851 1.394 . S
C3850 H3858 0.930 . S
C3851 C3850 1.394 . S
C3851 C3852 1.383 . S
C3851 H3859 0.929 . S
C3852 C3851 1.383 . S
C3852 C3853 1.377 . S
C3853 H3837 0.930 . S
C3853 C3852 1.377 . S
C3853 C3854 1.379 . S
C3854 H3838 0.931 . S
C3854 C3848 1.383 . S
C3854 C3853 1.379 . S
H3855 C3849 0.959 . S
H3856 C3849 0.961 . S
H3857 C3849 0.960 . S
H3858 C3850 0.930 . S
H3859 C3851 0.929 . S
H3860 C3868 0.929 . S
H3861 C3870 0.930 . S
H3862 C3872 0.930 . S
H3863 C3875 0.929 . S
H3864 C3878 0.930 . S
H3865 C3880 0.960 . S
H3866 C3880 0.960 . S
H3867 C3880 0.960 . S
C3868 H3860 0.929 . S
C3868 C3869 1.377 . S
C3868 C3870 1.384 . S
C3869 C3868 1.377 . S
C3869 C3875 1.390 . S
C3870 H3861 0.930 . S
C3870 C3868 1.384 . S
C3870 C3871 1.372 . S
C3871 C3870 1.372 . S
C3871 C3872 1.400 . S
C3871 C3876 1.490 . S
C3872 H3862 0.930 . S
C3872 C3871 1.400 . S
C3872 C3875 1.386 . S
H3873 C3889 0.930 . S
H3874 C3890 0.931 . S
C3875 H3863 0.929 . S
C3875 C3869 1.390 . S
C3875 C3872 1.386 . S
C3876 C3871 1.490 . S
C3876 C3878 1.395 . S
C3876 C3879 1.403 . S
H3877 C3883 0.930 . S
C3878 H3864 0.930 . S
C3878 C3876 1.395 . S
C3878 C3881 1.403 . S
C3879 C3876 1.403 . S
C3879 C3880 1.524 . S
C3879 C3883 1.400 . S
C3880 H3865 0.960 . S
C3880 H3866 0.960 . S
C3880 H3867 0.960 . S
C3880 C3879 1.524 . S
C3881 C3878 1.403 . S
C3881 C3882 1.392 . S
C3881 C3885 1.495 1_565 S
C3882 C3881 1.392 . S
C3882 C3883 1.385 . S
C3882 C3884 1.478 . S
C3883 H3877 0.930 . S
C3883 C3879 1.400 . S
C3883 C3882 1.385 . S
C3884 C3882 1.478 . S
C3884 C3886 1.381 1_565 S
C3884 C3890 1.383 . S
C3885 C3881 1.495 1_545 S
C3885 H3891 0.959 . S
C3885 H3892 0.961 . S
C3885 H3893 0.960 . S
C3886 C3884 1.381 1_545 S
C3886 C3887 1.394 . S
C3886 H3894 0.930 . S
C3887 C3886 1.394 . S
C3887 C3888 1.383 . S
C3887 H3895 0.929 . S
C3888 C3887 1.383 . S
C3888 C3889 1.377 1_545 S
C3889 H3873 0.930 . S
C3889 C3888 1.377 1_565 S
C3889 C3890 1.379 . S
C3890 H3874 0.931 . S
C3890 C3884 1.383 . S
C3890 C3889 1.379 . S
H3891 C3885 0.959 . S
H3892 C3885 0.961 . S
H3893 C3885 0.960 . S
H3894 C3886 0.930 . S
H3895 C3887 0.929 . S
H3896 C3904 0.929 . S
H3897 C3906 0.930 . S
H3898 C3908 0.930 . S
H3899 C3911 0.929 . S
H3900 C3914 0.930 . S
H3901 C3916 0.960 . S
H3902 C3916 0.960 . S
H3903 C3916 0.960 . S
C3904 H3896 0.929 . S
C3904 C3905 1.377 . S
C3904 C3906 1.384 . S
C3905 C3904 1.377 . S
C3905 C3911 1.390 . S
C3906 H3897 0.930 . S
C3906 C3904 1.384 . S
C3906 C3907 1.372 . S
C3907 C3906 1.372 . S
C3907 C3908 1.400 . S
C3907 C3912 1.490 . S
C3908 H3898 0.930 . S
C3908 C3907 1.400 . S
C3908 C3911 1.386 . S
H3909 C3925 0.930 . S
H3910 C3926 0.931 . S
C3911 H3899 0.929 . S
C3911 C3905 1.390 . S
C3911 C3908 1.386 . S
C3912 C3907 1.490 . S
C3912 C3914 1.395 . S
C3912 C3915 1.403 . S
H3913 C3919 0.930 . S
C3914 H3900 0.930 . S
C3914 C3912 1.395 . S
C3914 C3917 1.403 . S
C3915 C3912 1.403 . S
C3915 C3916 1.524 . S
C3915 C3919 1.400 . S
C3916 H3901 0.960 . S
C3916 H3902 0.960 . S
C3916 H3903 0.960 . S
C3916 C3915 1.524 . S
C3917 C3914 1.403 . S
C3917 C3918 1.392 . S
C3917 C3921 1.495 . S
C3918 C3917 1.392 . S
C3918 C3919 1.385 . S
C3918 C3920 1.478 . S
C3919 H3913 0.930 . S
C3919 C3915 1.400 . S
C3919 C3918 1.385 . S
C3920 C3918 1.478 . S
C3920 C3922 1.381 . S
C3920 C3926 1.383 . S
C3921 C3917 1.495 . S
C3921 H3927 0.959 . S
C3921 H3928 0.961 . S
C3921 H3929 0.960 . S
C3922 C3920 1.381 . S
C3922 C3923 1.394 . S
C3922 H3930 0.930 . S
C3923 C3922 1.394 . S
C3923 C3924 1.383 . S
C3923 H3931 0.929 . S
C3924 C3923 1.383 . S
C3924 C3925 1.377 . S
C3925 H3909 0.930 . S
C3925 C3924 1.377 . S
C3925 C3926 1.379 . S
C3926 H3910 0.931 . S
C3926 C3920 1.383 . S
C3926 C3925 1.379 . S
H3927 C3921 0.959 . S
H3928 C3921 0.961 . S
H3929 C3921 0.960 . S
H3930 C3922 0.930 . S
H3931 C3923 0.929 . S
H3932 C3940 0.929 . S
H3933 C3942 0.930 . S
H3934 C3944 0.930 . S
H3935 C3947 0.929 . S
H3936 C3950 0.930 . S
H3937 C3952 0.960 . S
H3938 C3952 0.960 . S
H3939 C3952 0.960 . S
C3940 H3932 0.929 . S
C3940 C3941 1.386 . S
C3940 C3942 1.384 . S
C3941 C3940 1.386 . S
C3941 C3947 1.380 1_556 S
C3942 H3933 0.930 . S
C3942 C3940 1.384 . S
C3942 C3943 1.372 1_556 S
C3943 C3942 1.372 1_554 S
C3943 C3944 1.400 . S
C3943 C3948 1.490 . S
C3944 H3934 0.930 . S
C3944 C3943 1.400 . S
C3944 C3947 1.386 . S
H3945 C3961 0.930 . S
H3946 C3962 0.931 . S
C3947 H3935 0.929 . S
C3947 C3941 1.380 1_554 S
C3947 C3944 1.386 . S
C3948 C3943 1.490 . S
C3948 C3950 1.395 1_554 S
C3948 C3951 1.403 . S
H3949 C3955 0.930 . S
C3950 H3936 0.930 . S
C3950 C3948 1.395 1_556 S
C3950 C3953 1.403 . S
C3951 C3948 1.403 . S
C3951 C3952 1.524 . S
C3951 C3955 1.400 . S
C3952 H3937 0.960 . S
C3952 H3938 0.960 . S
C3952 H3939 0.960 . S
C3952 C3951 1.524 . S
C3953 C3950 1.403 . S
C3953 C3954 1.392 1_556 S
C3953 C3957 1.495 . S
C3954 C3953 1.392 1_554 S
C3954 C3955 1.385 . S
C3954 C3956 1.478 . S
C3955 H3949 0.930 . S
C3955 C3951 1.400 . S
C3955 C3954 1.385 . S
C3956 C3954 1.478 . S
C3956 C3958 1.381 1_554 S
C3956 C3962 1.383 . S
C3957 C3953 1.495 . S
C3957 H3963 0.959 . S
C3957 H3964 0.961 . S
C3957 H3965 0.960 . S
C3958 C3956 1.381 1_556 S
C3958 C3959 1.394 . S
C3958 H3966 0.930 . S
C3959 C3958 1.394 . S
C3959 C3960 1.383 1_556 S
C3959 H3967 0.929 . S
C3960 C3959 1.383 1_554 S
C3960 C3961 1.377 . S
C3961 H3945 0.930 . S
C3961 C3960 1.377 . S
C3961 C3962 1.379 . S
C3962 H3946 0.931 . S
C3962 C3956 1.383 . S
C3962 C3961 1.379 . S
H3963 C3957 0.959 . S
H3964 C3957 0.961 . S
H3965 C3957 0.960 . S
H3966 C3958 0.930 . S
H3967 C3959 0.929 . S
H3968 C3976 0.929 . S
H3969 C3978 0.930 . S
H3970 C3980 0.930 . S
H3971 C3983 0.929 . S
H3972 C3986 0.930 . S
H3973 C3988 0.960 . S
H3974 C3988 0.960 . S
H3975 C3988 0.960 . S
C3976 H3968 0.929 . S
C3976 C3977 1.377 . S
C3976 C3978 1.384 . S
C3977 C3976 1.377 . S
C3977 C3983 1.390 . S
C3978 H3969 0.930 . S
C3978 C3976 1.384 . S
C3978 C3979 1.372 . S
C3979 C3978 1.372 . S
C3979 C3980 1.400 . S
C3979 C3984 1.490 . S
C3980 H3970 0.930 . S
C3980 C3979 1.400 . S
C3980 C3983 1.386 . S
H3981 C3997 0.930 . S
H3982 C3998 0.931 . S
C3983 H3971 0.929 . S
C3983 C3977 1.390 . S
C3983 C3980 1.386 . S
C3984 C3979 1.490 . S
C3984 C3986 1.395 . S
C3984 C3987 1.403 . S
H3985 C3991 0.930 . S
C3986 H3972 0.930 . S
C3986 C3984 1.395 . S
C3986 C3989 1.403 . S
C3987 C3984 1.403 . S
C3987 C3988 1.524 . S
C3987 C3991 1.400 . S
C3988 H3973 0.960 . S
C3988 H3974 0.960 . S
C3988 H3975 0.960 . S
C3988 C3987 1.524 . S
C3989 C3986 1.403 . S
C3989 C3990 1.392 . S
C3989 C3993 1.495 . S
C3990 C3989 1.392 . S
C3990 C3991 1.385 . S
C3990 C3992 1.478 . S
C3991 H3985 0.930 . S
C3991 C3987 1.400 . S
C3991 C3990 1.385 . S
C3992 C3990 1.478 . S
C3992 C3994 1.381 . S
C3992 C3998 1.383 . S
C3993 C3989 1.495 . S
C3993 H3999 0.959 . S
C3993 H4000 0.961 . S
C3993 H4001 0.960 . S
C3994 C3992 1.381 . S
C3994 C3995 1.394 . S
C3994 H4002 0.930 . S
C3995 C3994 1.394 . S
C3995 C3996 1.383 . S
C3995 H4003 0.929 . S
C3996 C3995 1.383 . S
C3996 C3997 1.377 . S
C3997 H3981 0.930 . S
C3997 C3996 1.377 . S
C3997 C3998 1.379 . S
C3998 H3982 0.931 . S
C3998 C3992 1.383 . S
C3998 C3997 1.379 . S
H3999 C3993 0.959 . S
H4000 C3993 0.961 . S
H4001 C3993 0.960 . S
H4002 C3994 0.930 . S
H4003 C3995 0.929 . S
H4004 C4012 0.929 . S
H4005 C4014 0.930 . S
H4006 C4016 0.930 . S
H4007 C4019 0.929 . S
H4008 C4022 0.930 . S
H4009 C4024 0.960 . S
H4010 C4024 0.960 . S
H4011 C4024 0.960 1_556 S
C4012 H4004 0.929 . S
C4012 C4013 1.377 . S
C4012 C4014 1.384 . S
C4013 C4012 1.377 . S
C4013 C4019 1.390 1_554 S
C4014 H4005 0.930 . S
C4014 C4012 1.384 . S
C4014 C4015 1.372 . S
C4015 C4014 1.372 . S
C4015 C4016 1.400 1_554 S
C4015 C4020 1.490 . S
C4016 H4006 0.930 . S
C4016 C4015 1.400 1_556 S
C4016 C4019 1.386 . S
H4017 C4033 0.930 . S
H4018 C4034 0.931 . S
C4019 H4007 0.929 . S
C4019 C4013 1.390 1_556 S
C4019 C4016 1.386 . S
C4020 C4015 1.490 . S
C4020 C4022 1.395 . S
C4020 C4023 1.403 . S
H4021 C4027 0.930 . S
C4022 H4008 0.930 . S
C4022 C4020 1.395 . S
C4022 C4025 1.403 . S
C4023 C4020 1.403 . S
C4023 C4024 1.524 . S
C4023 C4027 1.400 . S
C4024 H4009 0.960 . S
C4024 H4010 0.960 . S
C4024 H4011 0.960 1_554 S
C4024 C4023 1.524 . S
C4025 C4022 1.403 . S
C4025 C4026 1.392 . S
C4025 C4029 1.495 . S
C4026 C4025 1.392 . S
C4026 C4027 1.385 . S
C4026 C4028 1.480 . S
C4027 H4021 0.930 . S
C4027 C4023 1.400 . S
C4027 C4026 1.385 . S
C4028 C4026 1.480 . S
C4028 C4030 1.393 . S
C4028 C4034 1.368 1_554 S
C4029 C4025 1.495 . S
C4029 H4035 0.959 . S
C4029 H4036 0.961 1_554 S
C4029 H4037 0.960 . S
C4030 C4028 1.393 . S
C4030 C4031 1.394 . S
C4030 H4038 0.930 . S
C4031 C4030 1.394 . S
C4031 C4032 1.383 1_554 S
C4031 H4039 0.929 . S
C4032 C4031 1.383 1_556 S
C4032 C4033 1.377 . S
C4033 H4017 0.930 . S
C4033 C4032 1.377 . S
C4033 C4034 1.379 . S
C4034 H4018 0.931 . S
C4034 C4028 1.368 1_556 S
C4034 C4033 1.379 . S
H4035 C4029 0.959 . S
H4036 C4029 0.961 1_556 S
H4037 C4029 0.960 . S
H4038 C4030 0.930 . S
H4039 C4031 0.929 . S
H4040 C4048 0.929 . S
H4041 C4050 0.930 . S
H4042 C4052 0.930 . S
H4043 C4055 0.929 . S
H4044 C4058 0.930 . S
H4045 C4060 0.960 . S
H4046 C4060 0.960 . S
H4047 C4060 0.960 . S
C4048 H4040 0.929 . S
C4048 C4049 1.377 . S
C4048 C4050 1.384 . S
C4049 C4048 1.377 . S
C4049 C4055 1.390 . S
C4050 H4041 0.930 . S
C4050 C4048 1.384 . S
C4050 C4051 1.372 . S
C4051 C4050 1.372 . S
C4051 C4052 1.400 . S
C4051 C4056 1.490 . S
C4052 H4042 0.930 . S
C4052 C4051 1.400 . S
C4052 C4055 1.386 . S
H4053 C4069 0.930 . S
H4054 C4070 0.931 . S
C4055 H4043 0.929 . S
C4055 C4049 1.390 . S
C4055 C4052 1.386 . S
C4056 C4051 1.490 . S
C4056 C4058 1.395 . S
C4056 C4059 1.403 . S
H4057 C4063 0.930 . S
C4058 H4044 0.930 . S
C4058 C4056 1.395 . S
C4058 C4061 1.403 . S
C4059 C4056 1.403 . S
C4059 C4060 1.524 . S
C4059 C4063 1.400 . S
C4060 H4045 0.960 . S
C4060 H4046 0.960 . S
C4060 H4047 0.960 . S
C4060 C4059 1.524 . S
C4061 C4058 1.403 . S
C4061 C4062 1.392 . S
C4061 C4065 1.495 . S
C4062 C4061 1.392 . S
C4062 C4063 1.385 . S
C4062 C4064 1.478 . S
C4063 H4057 0.930 . S
C4063 C4059 1.400 . S
C4063 C4062 1.385 . S
C4064 C4062 1.478 . S
C4064 C4066 1.381 . S
C4064 C4070 1.383 . S
C4065 C4061 1.495 . S
C4065 H4071 0.959 . S
C4065 H4072 0.961 . S
C4065 H4073 0.960 . S
C4066 C4064 1.381 . S
C4066 C4067 1.394 . S
C4066 H4074 0.930 . S
C4067 C4066 1.394 . S
C4067 C4068 1.383 . S
C4067 H4075 0.929 . S
C4068 C4067 1.383 . S
C4068 C4069 1.377 . S
C4069 H4053 0.930 . S
C4069 C4068 1.377 . S
C4069 C4070 1.379 . S
C4070 H4054 0.931 . S
C4070 C4064 1.383 . S
C4070 C4069 1.379 . S
H4071 C4065 0.959 . S
H4072 C4065 0.961 . S
H4073 C4065 0.960 . S
H4074 C4066 0.930 . S
H4075 C4067 0.929 . S
H4076 C4084 0.929 . S
H4077 C4086 0.930 . S
H4078 C4088 0.930 . S
H4079 C4091 0.929 . S
H4080 C4094 0.930 . S
H4081 C4096 0.960 . S
H4082 C4096 0.960 . S
H4083 C4096 0.960 . S
C4084 H4076 0.929 . S
C4084 C4085 1.377 . S
C4084 C4086 1.384 . S
C4085 C4084 1.377 . S
C4085 C4091 1.390 . S
C4086 H4077 0.930 . S
C4086 C4084 1.384 . S
C4086 C4087 1.372 . S
C4087 C4086 1.372 . S
C4087 C4088 1.400 . S
C4087 C4092 1.490 . S
C4088 H4078 0.930 . S
C4088 C4087 1.400 . S
C4088 C4091 1.386 . S
H4089 C4105 0.930 . S
H4090 C4106 0.931 . S
C4091 H4079 0.929 . S
C4091 C4085 1.390 . S
C4091 C4088 1.386 . S
C4092 C4087 1.490 . S
C4092 C4094 1.395 . S
C4092 C4095 1.403 . S
H4093 C4099 0.930 . S
C4094 H4080 0.930 . S
C4094 C4092 1.395 . S
C4094 C4097 1.403 . S
C4095 C4092 1.403 . S
C4095 C4096 1.524 . S
C4095 C4099 1.400 . S
C4096 H4081 0.960 . S
C4096 H4082 0.960 . S
C4096 H4083 0.960 . S
C4096 C4095 1.524 . S
C4097 C4094 1.403 . S
C4097 C4098 1.392 . S
C4097 C4101 1.495 . S
C4098 C4097 1.392 . S
C4098 C4099 1.385 . S
C4098 C4100 1.478 . S
C4099 H4093 0.930 . S
C4099 C4095 1.400 . S
C4099 C4098 1.385 . S
C4100 C4098 1.478 . S
C4100 C4102 1.381 . S
C4100 C4106 1.383 . S
C4101 C4097 1.495 . S
C4101 H4107 0.959 . S
C4101 H4108 0.961 . S
C4101 H4109 0.960 . S
C4102 C4100 1.381 . S
C4102 C4103 1.394 . S
C4102 H4110 0.930 . S
C4103 C4102 1.394 . S
C4103 C4104 1.383 . S
C4103 H4111 0.929 . S
C4104 C4103 1.383 . S
C4104 C4105 1.377 . S
C4105 H4089 0.930 . S
C4105 C4104 1.377 . S
C4105 C4106 1.379 . S
C4106 H4090 0.931 . S
C4106 C4100 1.383 . S
C4106 C4105 1.379 . S
H4107 C4101 0.959 . S
H4108 C4101 0.961 . S
H4109 C4101 0.960 . S
H4110 C4102 0.930 . S
H4111 C4103 0.929 . S
C665 C109 1.382 1_455 S
C684 C354 1.384 . S
C701 C61 1.287 . S
C720 C365 1.482 . S
C737 C74 0.798 . S
C756 C394 0.794 . S
C792 C397 1.428 . S
C773 C96 1.456 . S
C809 C25 1.450 . S
C828 C435 1.400 . S
C864 C438 0.718 . S
C845 C40 0.730 . S
C900 C465 1.426 . S
C881 C46 1.432 . S
C917 C5 1.304 . S
C936 C494 1.543 . S
C972 C345 1.311 1_655 S
C953 C229 1.146 . S
C989 C249 0.616 . S
C1008 C357 0.669 . S
C1044 C385 1.426 . S
C1025 C271 1.260 . S
C1080 C414 0.998 . S
C1061 C172 1.006 . S
C1097 C236 0.780 . S
C1116 C418 0.790 . S
C1152 C444 1.771 . S
C1133 C242 1.795 . S
C1188 C457 0.544 . S
C1169 C278 0.487 . S
C1224 C485 1.552 . S
C1205 C179 1.561 . S
C1260 C337 1.438 . S
C1241 C159 1.231 . S
C1277 C285 1.423 . S
C1296 C504 1.630 . S
C1332 C535 1.289 . S
C1313 C333 1.329 . S
C1368 C554 0.758 . S
C1349 C320 0.757 . S
C1385 C123 1.217 . S
C1404 C477 1.182 . S
C1421 C138 1.424 . S
C1440 C377 1.391 . S
C1457 C326 1.643 . S
C1476 C565 1.640 . S
C1512 C594 0.841 . S
C1493 C298 0.797 . S
C1548 C355 1.354 . S
C1529 C67 1.344 . S
C1584 C584 1.424 . S
C1565 C110 1.432 . S
C1601 C88 0.801 . S
C1620 C395 0.787 . S
C1637 C75 1.140 . S
C1656 C558 1.361 . S
C1692 C434 1.383 1_655 S
C1673 C11 1.400 . S
C1709 C47 0.724 . S
C1728 C517 0.725 . S
C1764 C464 1.324 1_556 S
C1745 C32 1.300 . S
C1800 C615 1.559 . S
C1781 C26 1.593 . S
C1836 C344 1.424 . S
C1817 C152 1.448 . S
C1872 C578 0.624 . S
C1853 C319 0.653 . S
C1889 C124 1.433 . S
C1908 C384 1.406 . S
C1925 C284 1.024 . S
C1944 C575 1.037 . S
C1961 C145 0.735 . S
C1980 C417 0.748 . S
C2016 C525 1.668 . S
C1997 C312 1.661 . S
C2033 C117 0.637 . S
C2052 C458 0.438 . S
C2069 C291 1.471 . S
C2088 C604 1.477 . S
C2105 C194 1.506 . S
C2124 C338 1.499 . S
C2141 C180 1.627 . S
C2160 C505 1.587 . S
C2177 C263 1.211 . S
C2196 C454 1.181 . S
C2213 C243 0.722 . S
C2232 C555 0.652 . S
C2268 C598 1.206 . S
C2249 C277 1.217 . S
C2285 C215 1.174 . S
C2304 C378 1.389 1_565 S
C2340 C404 1.525 . S
C2321 C256 1.511 . S
C2376 C375 0.825 . S
C2357 C200 0.867 . S
C2393 C81 1.380 . S
C2412 C634 1.368 . S
C2448 C585 1.482 . S
C2429 C89 1.285 . S
C2465 C102 0.797 . S
C2484 C654 0.797 . S
C2501 C68 1.456 . S
C2520 C557 1.450 . S
C2537 C53 1.454 . S
C2556 C515 1.414 . S
C2592 C518 0.728 . S
C2573 C12 0.722 . S
C2628 C545 1.440 . S
C2609 C18 1.434 . S
C2664 C614 1.524 . S
C2645 C33 1.324 . S
C2700 C625 1.332 . S
C2681 C257 1.145 . S
C2717 C193 0.616 . S
C2736 C577 0.622 . S
C2772 C645 1.445 . S
C2753 C201 1.269 . S
C2808 C574 0.998 . S
C2789 C214 1.007 . S
C2844 C498 0.785 . S
C2825 C264 0.788 . S
C2861 C186 1.790 . S
C2880 C524 1.788 . S
C2916 C537 0.493 . S
C2897 C208 0.486 . S
C2933 C221 1.554 . S
C2952 C605 1.577 . S
C2988 C617 1.446 . S
C2969 C313 1.236 . S
C3005 C131 1.420 . S
C3024 C424 1.616 . S
C3060 C455 1.292 . S
C3041 C151 1.336 . S
C3096 C474 0.782 . S
C3077 C166 0.751 . S
C3132 C597 1.198 . S
C3113 C305 1.213 . S
C3149 C292 1.424 . S
C3168 C637 1.395 . S
C3204 C405 1.647 . S
C3185 C144 1.642 . S
C3240 C374 0.843 . S
C3221 C116 0.794 . S
C3257 C95 1.342 . S
C3276 C635 1.349 . S
C3312 C364 1.415 . S
C3293 C82 1.432 . S
C3329 C60 0.790 . S
C3348 C655 0.826 . S
C3365 C103 1.161 . S
C3384 C398 1.349 . S
C3401 C39 1.396 . S
C3420 C514 1.334 1_556 S
C3456 C437 0.725 . S
C3437 C19 0.724 . S
C3473 C4 1.301 . S
C3492 C544 1.326 . S
C3509 C54 1.593 . S
C3528 C495 1.563 . S
C3564 C624 1.446 . S
C3545 C334 1.448 . S
C3581 C165 0.638 . S
C3600 C358 0.603 . S
C3636 C644 1.419 1_655 S
C3617 C306 1.435 . S
C3653 C130 1.029 . S
C3672 C415 1.003 . S
C3689 C327 0.760 . S
C3708 C497 0.740 . S
C3744 C445 1.672 . S
C3725 C158 1.661 1_556 S
C3761 C299 0.635 . S
C3780 C538 0.366 . S
C3816 C484 1.479 . S
C3797 C137 1.473 . S
C3852 C618 1.490 . S
C3833 C250 1.505 . S
C3888 C425 1.595 . S
C3869 C222 1.626 . S
C3905 C235 1.212 . S
C3924 C534 1.163 . S
C3960 C475 0.696 . S
C3941 C187 0.723 . S
C3977 C207 1.216 . S
C3996 C478 1.221 . S
C4013 C173 1.177 . S
C4032 C638 1.369 . S
C4068 C564 1.535 . S
C4049 C228 1.517 1_565 S
C4104 C595 0.893 . S
C4085 C270 0.863 . S
