# Generated by pormake.
# Topology ssa, (4,4)-cn, num edge types: 1
# Building blocks:
#     Node 0, Type 0, BuildingBlock: KOZSID_clean_sbu_0, # of connection points: 4
#     Node 1, Type 0, BuildingBlock: KOZSID_clean_sbu_0, # of connection points: 4
#     Node 2, Type 0, BuildingBlock: KOZSID_clean_sbu_0, # of connection points: 4
#     Node 3, Type 0, BuildingBlock: KOZSID_clean_sbu_0, # of connection points: 4
#     Node 4, Type 0, BuildingBlock: KOZSID_clean_sbu_0, # of connection points: 4
#     Node 5, Type 0, BuildingBlock: KOZSID_clean_sbu_0, # of connection points: 4
#     Node 6, Type 1, BuildingBlock: ESEHIV_clean_sbu_0, # of connection points: 4
#     Node 7, Type 1, BuildingBlock: ESEHIV_clean_sbu_0, # of connection points: 4
#     Node 8, Type 1, BuildingBlock: ESEHIV_clean_sbu_0, # of connection points: 4
#     Node 9, Type 1, BuildingBlock: ESEHIV_clean_sbu_0, # of connection points: 4
#     Node 10, Type 1, BuildingBlock: ESEHIV_clean_sbu_0, # of connection points: 4
#     Node 11, Type 1, BuildingBlock: ESEHIV_clean_sbu_0, # of connection points: 4
#     Edge 12, Type (0, 1), BuildingBlock: TEMPAE_clean_linker_10, # of connection points: 2
#     Edge 13, Type (0, 1), BuildingBlock: TEMPAE_clean_linker_10, # of connection points: 2
#     Edge 14, Type (0, 1), BuildingBlock: TEMPAE_clean_linker_10, # of connection points: 2
#     Edge 15, Type (0, 1), BuildingBlock: TEMPAE_clean_linker_10, # of connection points: 2
#     Edge 16, Type (0, 1), BuildingBlock: TEMPAE_clean_linker_10, # of connection points: 2
#     Edge 17, Type (0, 1), BuildingBlock: TEMPAE_clean_linker_10, # of connection points: 2
#     Edge 18, Type (0, 1), BuildingBlock: TEMPAE_clean_linker_10, # of connection points: 2
#     Edge 19, Type (0, 1), BuildingBlock: TEMPAE_clean_linker_10, # of connection points: 2
#     Edge 20, Type (0, 1), BuildingBlock: TEMPAE_clean_linker_10, # of connection points: 2
#     Edge 21, Type (0, 1), BuildingBlock: TEMPAE_clean_linker_10, # of connection points: 2
#     Edge 22, Type (0, 1), BuildingBlock: TEMPAE_clean_linker_10, # of connection points: 2
#     Edge 23, Type (0, 1), BuildingBlock: TEMPAE_clean_linker_10, # of connection points: 2
#     Edge 24, Type (0, 1), BuildingBlock: TEMPAE_clean_linker_10, # of connection points: 2
#     Edge 25, Type (0, 1), BuildingBlock: TEMPAE_clean_linker_10, # of connection points: 2
#     Edge 26, Type (0, 1), BuildingBlock: TEMPAE_clean_linker_10, # of connection points: 2
#     Edge 27, Type (0, 1), BuildingBlock: TEMPAE_clean_linker_10, # of connection points: 2
#     Edge 28, Type (0, 1), BuildingBlock: TEMPAE_clean_linker_10, # of connection points: 2
#     Edge 29, Type (0, 1), BuildingBlock: TEMPAE_clean_linker_10, # of connection points: 2
#     Edge 30, Type (0, 1), BuildingBlock: TEMPAE_clean_linker_10, # of connection points: 2
#     Edge 31, Type (0, 1), BuildingBlock: TEMPAE_clean_linker_10, # of connection points: 2
#     Edge 32, Type (0, 1), BuildingBlock: TEMPAE_clean_linker_10, # of connection points: 2
#     Edge 33, Type (0, 1), BuildingBlock: TEMPAE_clean_linker_10, # of connection points: 2
#     Edge 34, Type (0, 1), BuildingBlock: TEMPAE_clean_linker_10, # of connection points: 2
#     Edge 35, Type (0, 1), BuildingBlock: TEMPAE_clean_linker_10, # of connection points: 2
# Relax obj value: 0.019
# Max RMSD: 0.096
# Mean RMSD: 0.055
data_MOF--net-ssa--node1-KOZSID_clean_sbu_0--node2-ESEHIV_clean_sbu_0--edge1-TEMPAE_clean_linker_10
_symmetry_space_group_name_H-M    P1
_symmetry_Int_Tables_number       1
_symmetry_cell_setting            triclinic
loop_
_symmetry_equiv_pos_as_xyz
'x, y, z'
_cell_length_a     54.456985
_cell_length_b     55.770745
_cell_length_c     41.005497
_cell_angle_alpha  87.399732
_cell_angle_beta   90.042659
_cell_angle_gamma 122.36032
loop_
_atom_site_label
_atom_site_type_symbol
_atom_site_fract_x
_atom_site_fract_y
_atom_site_fract_z
_atom_type_partial_charge
C0 C 0.9551 0.50391 0.9952 0.0
C1 C 0.92806 0.49382 0.00981 0.0
C2 C 0.92858 0.48367 0.04055 0.0
C3 C 0.95586 0.48831 0.04323 0.0
N4 N 0.97304 0.50117 0.01619 0.0
Co5 Co 0.01436 0.51144 0.0102 0.0
N6 N 0.01416 0.49405 0.05442 0.0
C7 C 0.99136 0.48044 0.07597 0.0
C8 C 0.99741 0.47095 0.10441 0.0
C9 C 0.02587 0.47922 0.10108 0.0
C10 C 0.03575 0.49355 0.07074 0.0
N11 N 0.05583 0.52206 1.0044 0.0
C12 C 0.07376 0.51936 0.02543 0.0
C13 C 0.1015 0.5314 0.01178 0.0
C14 C 0.10118 0.54206 0.98127 0.0
C15 C 0.07346 0.53616 0.97799 0.0
N16 N 0.01437 0.52844 0.96575 0.0
C17 C 0.03685 0.54111 0.94375 0.0
C18 C 0.03027 0.54881 0.91444 0.0
C19 C 1.00175 0.54031 0.91762 0.0
C20 C 0.99246 0.52804 0.94899 0.0
N21 N 0.02883 0.5484 0.0301 0.0
C22 C 0.05628 0.59894 0.0639 0.0
C23 C 0.06549 0.59849 0.03226 0.0
C24 C 0.05142 0.57325 0.01584 0.0
C25 C 0.03171 0.57421 0.07727 0.0
C26 C 0.01831 0.54947 0.05999 0.0
N27 N 0.99996 0.47451 0.99037 0.0
C28 C 1.00025 0.44822 0.94523 0.0
C29 C 0.97403 0.42406 0.95649 0.0
C30 C 0.96217 0.42503 0.98624 0.0
C31 C 0.97552 0.45017 1.00275 0.0
C32 C 0.01282 0.47297 0.9625 0.0
H33 H 0.96506 0.44962 0.02492 0.0
H34 H 0.03248 0.49078 0.95232 0.0
H35 H 0.05974 0.57419 0.99202 0.0
H36 H 1.0001 0.53126 0.07186 0.0
C37 C 0.96525 0.47882 0.06974 0.0
C38 C 0.96233 0.51536 0.96114 0.0
C39 C 0.06597 0.5066 0.0589 0.0
C40 C 0.0635 0.54421 0.9508 0.0
H41 H 0.90965 0.49338 0.99916 0.0
H42 H 0.91088 0.47342 0.05852 0.0
H43 H 0.98303 0.45994 0.12543 0.0
H44 H 0.0381 0.47549 0.11918 0.0
H45 H 0.12024 0.53285 0.0229 0.0
H46 H 0.11921 0.55331 0.9638 0.0
H47 H 0.04432 0.55871 0.89294 0.0
H48 H 0.98913 0.54233 0.89858 0.0
H49 H 0.08389 0.61738 0.02043 0.0
H50 H 0.02356 0.57346 0.10163 0.0
H51 H 0.01075 0.44829 0.92277 0.0
H52 H 0.9419 0.4069 0.99611 0.0
C53 C 0.55922 0.01498 0.56438 0.0
C54 C 0.56132 1.00296 0.59383 0.0
C55 C 0.53422 0.98002 0.60159 0.0
C56 C 0.51716 0.97945 0.57671 0.0
N57 N 0.53182 1.00017 0.55303 0.0
Co58 Co 0.51483 0.00931 0.5146 0.0
N59 N 0.4743 0.97794 0.5283 0.0
C60 C 0.46639 0.95963 0.55469 0.0
C61 C 0.4375 0.93857 0.55606 0.0
C62 C 0.42634 0.94322 0.52846 0.0
C63 C 0.44915 0.96715 0.5119 0.0
N64 N 0.4979 0.01906 0.47678 0.0
C65 C 0.47025 0.00523 0.46627 0.0
C66 C 0.4676 0.01901 0.43874 0.0
C67 C 0.49481 0.04184 0.4309 0.0
C68 C 0.51237 0.04081 0.45416 0.0
N69 N 0.55529 0.04008 0.50032 0.0
C70 C 0.56348 0.05714 0.47278 0.0
C71 C 0.59284 0.07673 0.47015 0.0
C72 C 0.60395 0.07231 0.498 0.0
C73 C 0.58058 0.05031 0.51611 0.0
N74 N 0.518 0.98175 0.48756 0.0
C75 C 0.51993 0.94156 0.44834 0.0
C76 C 0.52615 0.96794 0.43507 0.0
C77 C 0.52521 0.98746 0.45481 0.0
C78 C 0.51288 0.93598 0.4819 0.0
C79 C 0.51199 0.95601 0.50074 0.0
N80 N 0.51174 0.03692 0.5416 0.0
C81 C 0.52305 0.08479 0.54973 0.0
C82 C 0.51052 0.07714 0.58134 0.0
C83 C 0.49836 0.0487 0.59237 0.0
C84 C 0.49912 0.0292 0.57237 0.0
C85 C 0.52342 0.06467 0.53057 0.0
H86 H 0.48947 0.00798 0.58244 0.0
H87 H 0.53362 0.0722 0.50695 0.0
H88 H 0.53017 0.00699 0.44286 0.0
H89 H 0.50624 0.9501 0.52598 0.0
C90 C 0.48701 0.9613 0.57624 0.0
C91 C 0.58304 0.0417 0.5494 0.0
C92 C 0.4466 0.97767 0.47958 0.0
C93 C 0.54276 0.05722 0.45275 0.0
H94 H 0.5801 0.01049 0.60891 0.0
H95 H 0.52748 0.96622 0.62353 0.0
H96 H 0.42619 0.9211 0.57415 0.0
H97 H 0.40415 0.92973 0.521 0.0
H98 H 0.44824 0.01241 0.4249 0.0
H99 H 0.50127 0.05646 0.40973 0.0
H100 H 0.60452 0.09338 0.45123 0.0
H101 H 0.62644 0.08472 0.50501 0.0
H102 H 0.53134 0.97356 0.40929 0.0
H103 H 0.50835 0.91628 0.49393 0.0
H104 H 0.5331 0.10646 0.53982 0.0
H105 H 0.48787 0.04125 0.61631 0.0
C106 C 0.55846 0.55045 0.96302 0.0
C107 C 0.56278 0.56705 0.93474 0.0
C108 C 0.5364 0.5629 0.92728 0.0
C109 C 0.51754 0.54402 0.95122 0.0
N110 N 0.53042 0.53638 0.97403 0.0
Co111 Co 0.51082 0.50744 0.0114 0.0
N112 N 0.47152 0.49819 0.99768 0.0
C113 C 0.46522 0.50904 0.97117 0.0
C114 C 0.43628 0.49951 0.96916 0.0
C115 C 0.42345 0.48215 0.99652 0.0
C116 C 0.44547 0.48226 0.01369 0.0
N117 N 0.49116 0.47845 0.04873 0.0
C118 C 0.46323 0.46485 0.06013 0.0
C119 C 0.45896 0.44829 0.08843 0.0
C120 C 0.4852 0.45191 0.09543 0.0
C121 C 0.50399 0.47051 0.07126 0.0
N122 N 0.55013 0.51678 0.02521 0.0
C123 C 0.55639 0.50586 0.0517 0.0
C124 C 0.58535 0.51548 0.0538 0.0
C125 C 0.59824 0.53304 0.02658 0.0
C126 C 0.57625 0.53299 0.00942 0.0
N127 N 0.5136 0.53732 0.03974 0.0
C128 C 0.51505 0.57799 0.08115 0.0
C129 C 0.52212 0.55837 0.09256 0.0
C130 C 0.52144 0.53866 0.07175 0.0
C131 C 0.5073 0.57668 0.0483 0.0
C132 C 0.50664 0.55644 0.02835 0.0
N133 N 0.50812 0.47757 0.98305 0.0
C134 C 0.51669 0.43972 0.97395 0.0
C135 C 0.5084 0.43795 0.9413 0.0
C136 C 0.49953 0.45629 0.93032 0.0
C137 C 0.49949 0.47559 0.95128 0.0
C138 C 0.51636 0.45934 0.99409 0.0
H139 H 0.49278 0.48901 0.94102 0.0
H140 H 0.52314 0.45951 0.01851 0.0
H141 H 0.52706 0.52448 0.08231 0.0
H142 H 0.50029 0.55658 1.00376 0.0
C143 C 0.48732 0.5305 0.95076 0.0
C144 C 0.58078 0.54649 0.97686 0.0
C145 C 0.44112 0.46932 0.04656 0.0
C146 C 0.53424 0.48416 0.07186 0.0
H147 H 0.58259 0.57985 0.92016 0.0
H148 H 0.53128 0.57139 0.90593 0.0
H149 H 0.42599 0.50565 0.95092 0.0
H150 H 0.40075 0.47168 1.00389 0.0
H151 H 0.43937 0.43592 0.10344 0.0
H152 H 0.49037 0.44346 0.11679 0.0
H153 H 0.59561 0.50929 0.072 0.0
H154 H 0.62099 0.54369 0.01935 0.0
H155 H 0.52781 0.55775 0.11774 0.0
H156 H 0.50204 0.59146 0.03765 0.0
H157 H 0.52326 0.42583 0.98422 0.0
H158 H 0.49316 0.45631 0.90531 0.0
C159 C 0.95309 0.46232 0.53128 0.0
C160 C 0.92532 0.44664 0.51906 0.0
C161 C 0.92646 0.45862 0.48889 0.0
C162 C 0.95473 0.48086 0.48433 0.0
N163 N 0.97193 0.48366 0.50955 0.0
Co164 Co 0.01413 0.51451 0.51333 0.0
N165 N 0.01541 0.53311 0.46953 0.0
C166 C 0.99317 0.5237 0.44868 0.0
C167 C 1.00059 0.53913 0.41946 0.0
C168 C 0.02938 0.55955 0.4215 0.0
C169 C 0.03797 0.55567 0.45218 0.0
N170 N 0.05615 0.54571 0.51744 0.0
C171 C 0.07475 0.56777 0.49627 0.0
C172 C 0.10187 0.58465 0.50971 0.0
C173 C 0.10065 0.57255 0.53985 0.0
C174 C 0.07291 0.54919 0.54339 0.0
N175 N 0.01303 0.49553 0.5568 0.0
C176 C 0.03559 0.50404 0.57698 0.0
C177 C 0.0285 0.48742 0.60534 0.0
C178 C 0.9996 0.46717 0.60335 0.0
C179 C 0.99061 0.47257 0.57377 0.0
N180 N 0.02639 0.49134 0.49146 0.0
C181 C 0.04893 0.46497 0.45573 0.0
C182 C 0.06133 0.47767 0.48487 0.0
C183 C 0.04974 0.49048 0.50225 0.0
C184 C 0.02399 0.46423 0.4458 0.0
C185 C 0.01304 0.47726 0.46402 0.0
N186 N 1.00188 0.53763 0.53527 0.0
C187 C 1.00044 0.56016 0.58361 0.0
C188 C 0.97788 0.56255 0.57127 0.0
C189 C 0.969 0.55406 0.53957 0.0
C190 C 0.98122 0.54179 0.52214 0.0
C191 C 0.01222 0.54805 0.56522 0.0
H192 H 0.97304 0.53516 0.49845 0.0
H193 H 0.02901 0.54653 0.5763 0.0
H194 H 0.06062 0.50027 0.52384 0.0
H195 H 0.99417 0.47619 0.45501 0.0
C196 C 0.96573 0.49976 0.45692 0.0
C197 C 0.96027 0.45604 0.56372 0.0
C198 C 0.068 0.57352 0.46318 0.0
C199 C 0.06249 0.52914 0.56983 0.0
H200 H 0.90617 0.42853 0.53089 0.0
H201 H 0.90868 0.45211 0.47239 0.0
H202 H 0.98684 0.53557 0.39882 0.0
H203 H 0.04261 0.57516 0.40222 0.0
H204 H 0.12074 0.60362 0.49879 0.0
H205 H 0.11811 0.57966 0.55691 0.0
H206 H 0.04245 0.49025 0.62554 0.0
H207 H 0.98645 0.45071 0.62196 0.0
H208 H 0.08072 0.47888 0.49362 0.0
H209 H 0.0132 0.45405 0.42375 0.0
H210 H 0.00822 0.56639 0.60799 0.0
H211 H 0.95223 0.55627 0.52843 0.0
C212 C 0.48801 0.98573 0.08021 0.0
C213 C 0.49463 0.99176 0.11271 0.0
C214 C 0.51482 0.02017 0.11342 0.0
C215 C 0.52104 0.02968 0.08134 0.0
N216 N 0.5066 0.00886 0.06023 0.0
Co217 Co 0.51772 0.01137 0.01279 0.0
N218 N 0.54895 0.05295 0.01362 0.0
C219 C 0.55622 0.06911 0.03981 0.0
C220 C 0.57799 0.09694 0.03336 0.0
C221 C 0.58506 0.0988 1.00102 0.0
C222 C 0.5671 0.07189 0.98947 0.0
N223 N 0.52885 0.01381 0.96534 0.0
C224 C 0.54897 0.03624 0.94563 0.0
C225 C 0.54863 0.02832 0.91395 0.0
C226 C 0.52783 1.00002 0.91359 0.0
C227 C 0.51654 0.99225 0.94488 0.0
N228 N 0.48648 0.96981 0.01205 0.0
C229 C 0.48163 0.95311 0.98685 0.0
C230 C 0.4655 0.92468 0.99554 0.0
C231 C 0.459 0.92315 0.02798 0.0
C232 C 0.4698 0.95072 0.03696 0.0
N233 N 0.4895 0.02178 1.00007 0.0
C234 C 0.45999 0.04607 0.97262 0.0
C235 C 0.45786 0.02238 0.95931 0.0
C236 C 0.47238 0.01037 0.97366 0.0
C237 C 0.47444 0.05523 1.00201 0.0
C238 C 0.48878 0.0427 0.01538 0.0
N239 N 0.5462 1.00082 0.02569 0.0
C240 C 0.55999 0.96623 0.02499 0.0
C241 C 0.57316 0.97448 0.05514 0.0
C242 C 0.57618 0.99873 0.06782 0.0
C243 C 0.5632 0.01186 0.05233 0.0
C244 C 0.54714 0.9799 0.01057 0.0
H245 H 0.56647 0.03028 0.06306 0.0
H246 H 0.53741 0.97253 0.98774 0.0
H247 H 0.47058 0.99268 0.96223 0.0
H248 H 0.50015 0.05097 0.03737 0.0
C249 C 0.54291 0.0572 0.07042 0.0
C250 C 0.46379 0.95811 0.06911 0.0
C251 C 0.56869 0.0654 0.95553 0.0
C252 C 0.49519 0.96469 0.95624 0.0
H253 H 0.4863 0.97711 0.13392 0.0
H254 H 0.52495 0.03213 0.13473 0.0
H255 H 0.58779 0.11381 0.05026 0.0
H256 H 0.60176 0.1178 0.98755 0.0
H257 H 0.56204 0.04165 0.89321 0.0
H258 H 0.52179 0.98665 0.89299 0.0
H259 H 0.46045 0.90721 0.98053 0.0
H260 H 0.44832 0.90379 0.04337 0.0
H261 H 0.44651 0.01412 0.93688 0.0
H262 H 0.47565 0.07273 0.01401 0.0
H263 H 0.55866 0.94864 0.01308 0.0
H264 H 0.58707 0.00672 0.09054 0.0
C265 C 0.53607 0.57149 0.51693 0.0
C266 C 0.53401 0.59181 0.53289 0.0
C267 C 0.51569 0.57808 0.55925 0.0
C268 C 0.50746 0.55027 0.55778 0.0
N269 N 0.52004 0.54548 0.53261 0.0
Co270 Co 0.51134 0.50768 0.51885 0.0
N271 N 0.48089 0.48686 0.55451 0.0
C272 C 0.47277 0.49845 0.57704 0.0
C273 C 0.45341 0.47918 0.60033 0.0
C274 C 0.44945 0.45381 0.59277 0.0
C275 C 0.46654 0.45906 0.56497 0.0
N276 N 0.50223 0.47001 0.50448 0.0
C277 C 0.48481 0.44372 0.51888 0.0
C278 C 0.48471 0.42304 0.50119 0.0
C279 C 0.50356 0.43693 0.47521 0.0
C280 C 0.51387 0.46514 0.47843 0.0
N281 N 0.54219 0.52842 0.48374 0.0
C282 C 0.55163 0.51708 0.46243 0.0
C283 C 0.57253 0.53678 0.44054 0.0
C284 C 0.57609 0.56209 0.44782 0.0
C285 C 0.55696 0.55624 0.47369 0.0
N286 N 0.54112 0.50917 0.54948 0.0
C287 C 0.58106 0.50814 0.59425 0.0
C288 C 0.57853 0.49904 0.56237 0.0
C289 C 0.55879 0.49977 0.54072 0.0
C290 C 0.56322 0.51808 0.60291 0.0
C291 C 0.54373 0.51842 0.58052 0.0
N292 N 0.48159 0.50616 0.48822 0.0
C293 C 0.46245 0.50164 0.43353 0.0
C294 C 0.44106 0.50657 0.44397 0.0
C295 C 0.44046 0.51113 0.47727 0.0
C296 C 0.46063 0.51089 0.49864 0.0
C297 C 0.48212 0.50144 0.45571 0.0
H298 H 0.45902 0.51487 0.52351 0.0
H299 H 0.49772 0.49753 0.44589 0.0
H300 H 0.5581 0.49238 0.51699 0.0
H301 H 0.5307 0.52596 0.58908 0.0
C302 C 0.48574 0.52781 0.57747 0.0
C303 C 0.55126 0.57707 0.48551 0.0
C304 C 0.47051 0.43773 0.55087 0.0
C305 C 0.53725 0.48764 0.46032 0.0
H306 H 0.54362 0.61401 0.52567 0.0
H307 H 0.50803 0.58702 0.57639 0.0
H308 H 0.4444 0.48332 0.62127 0.0
H309 H 0.43635 0.43406 0.60706 0.0
H310 H 0.47327 0.40044 0.5074 0.0
H311 H 0.5102 0.42773 0.45722 0.0
H312 H 0.58259 0.53294 0.42038 0.0
H313 H 0.59 0.58232 0.43456 0.0
H314 H 0.59196 0.49156 0.55382 0.0
H315 H 0.56374 0.5251 0.62723 0.0
H316 H 0.46387 0.49748 0.40829 0.0
H317 H 0.42474 0.51539 0.48692 0.0
Cu318 Cu 0.24103 0.47394 0.24413 0.0
N319 N 0.2482 0.45445 0.21339 0.0
N320 N 0.27287 0.44494 0.17834 0.0
C321 C 0.27466 0.46154 0.2023 0.0
C322 C 0.24421 0.42671 0.17405 0.0
C323 C 0.22902 0.43255 0.19584 0.0
O324 O 0.27684 0.49386 0.27088 0.0
C325 C 0.19846 0.47839 0.21016 0.0
O326 O 0.18465 0.4511 0.21834 0.0
H327 H 0.29485 0.47914 0.21089 0.0
H328 H 0.20565 0.42183 0.19828 0.0
N329 N 0.21153 0.44853 0.27386 0.0
N330 N 0.17647 0.43361 0.31211 0.0
C331 C 0.19846 0.4562 0.29502 0.0
C332 C 0.19751 0.42003 0.27768 0.0
C333 C 0.17573 0.41073 0.30127 0.0
C334 C 0.28363 0.477 0.28446 0.0
O335 O 0.2668 0.4498 0.2793 0.0
H336 H 0.20426 0.47793 0.29676 0.0
H337 H 0.20237 0.40695 0.26384 0.0
O338 O 0.22493 0.49428 0.21917 0.0
H339 H 0.23495 0.41044 0.15638 0.0
H340 H 0.16044 0.38887 0.30958 0.0
Cu341 Cu 0.77418 0.24153 0.7531 0.0
N342 N 0.76854 0.21554 0.72236 0.0
N343 N 0.74595 0.18215 0.68614 0.0
C344 C 0.74273 0.19548 0.71089 0.0
C345 C 0.77488 0.19422 0.68194 0.0
C346 C 0.78877 0.21477 0.70443 0.0
O347 O 0.73623 0.22332 0.7782 0.0
C348 C 0.81808 0.29207 0.71906 0.0
O349 O 0.83308 0.28083 0.728 0.0
H350 H 0.72207 0.19166 0.71948 0.0
H351 H 0.812 0.22868 0.70689 0.0
N352 N 0.80235 0.24531 0.78213 0.0
N353 N 0.83762 0.2651 0.81827 0.0
C354 C 0.8182 0.26768 0.80059 0.0
C355 C 0.81209 0.22792 0.78819 0.0
C356 C 0.83401 0.24018 0.81048 0.0
C357 C 0.7342 0.22223 0.80948 0.0
O358 O 0.75781 0.23829 0.82577 0.0
H359 H 0.8159 0.2858 0.80046 0.0
H360 H 0.80402 0.20793 0.77696 0.0
O361 O 0.79104 0.27896 0.72784 0.0
H362 H 0.78522 0.18883 0.66365 0.0
H363 H 0.84619 0.2314 0.8203 0.0
Cu364 Cu 0.55595 0.77557 0.27026 0.0
N365 N 0.58208 0.80634 0.24216 0.0
N366 N 0.59835 0.84369 0.20666 0.0
C367 C 0.57632 0.82464 0.22704 0.0
C368 C 0.61883 0.83716 0.2091 0.0
C369 C 0.60877 0.81416 0.23104 0.0
O370 O 0.53567 0.78981 0.29611 0.0
C371 C 0.54858 0.73571 0.22575 0.0
O372 O 0.57696 0.75118 0.22791 0.0
H373 H 0.55586 0.8233 0.23007 0.0
H374 H 0.61993 0.80351 0.23761 0.0
N375 N 0.57597 0.76567 0.29936 0.0
N376 N 0.58423 0.73928 0.33464 0.0
C377 C 0.56405 0.74114 0.31765 0.0
C378 C 0.60462 0.77992 0.30538 0.0
C379 C 0.60981 0.76355 0.32697 0.0
C380 C 0.55157 0.80902 0.31603 0.0
O381 O 0.57889 0.81673 0.31826 0.0
H382 H 0.54115 0.72465 0.31785 0.0
H383 H 0.62066 0.80077 0.29494 0.0
O384 O 0.5333 0.74211 0.24282 0.0
H385 H 0.63947 0.84802 0.19576 0.0
H386 H 0.63065 0.76908 0.33652 0.0
Cu387 Cu 0.78305 0.54239 0.78489 0.0
N388 N 0.81309 0.56964 0.75687 0.0
N389 N 0.85194 0.58929 0.72273 0.0
C390 C 0.83934 0.57357 0.75084 0.0
C391 C 0.83319 0.5964 0.71153 0.0
C392 C 0.80939 0.5843 0.73257 0.0
O393 O 0.79816 0.52273 0.81257 0.0
C394 C 0.72223 0.50774 0.76063 0.0
O395 O 0.71255 0.49789 0.79066 0.0
H396 H 0.84828 0.56384 0.76582 0.0
H397 H 0.78959 0.58406 0.72886 0.0
N398 N 0.77518 0.56208 0.81447 0.0
N399 N 0.75167 0.57396 0.8483 0.0
C400 C 0.74977 0.55962 0.82177 0.0
C401 C 0.79388 0.57901 0.83674 0.0
C402 C 0.77946 0.58632 0.85768 0.0
C403 C 0.8143 0.51367 0.80406 0.0
O404 O 0.81716 0.51085 0.7729 0.0
H405 H 0.72988 0.54646 0.8091 0.0
H406 H 0.81611 0.58449 0.83851 0.0
O407 O 0.74972 0.5228 0.75481 0.0
H408 H 0.83506 0.60727 0.68826 0.0
H409 H 0.78847 0.59897 0.87879 0.0
Cu410 Cu 0.24715 0.78832 0.2709 0.0
N411 N 0.21578 0.78115 0.24512 0.0
N412 N 0.17903 0.75722 0.21141 0.0
C413 C 0.19822 0.75624 0.23139 0.0
C414 C 0.1847 0.78385 0.21269 0.0
C415 C 0.20737 0.79857 0.23349 0.0
O416 O 0.23214 0.75166 0.29722 0.0
C417 C 0.28836 0.82737 0.2245 0.0
O418 O 0.27305 0.83851 0.231 0.0
H419 H 0.20049 0.73816 0.23482 0.0
H420 H 0.21758 0.82071 0.23864 0.0
N421 N 0.25693 0.81733 0.29938 0.0
N422 N 0.28316 0.85107 0.33415 0.0
C423 C 0.28089 0.82969 0.31754 0.0
C424 C 0.24345 0.8312 0.30507 0.0
C425 C 0.25978 0.85224 0.32634 0.0
C426 C 0.21964 0.74788 0.32525 0.0
O427 O 0.22005 0.76939 0.33756 0.0
H428 H 0.2967 0.82357 0.31794 0.0
H429 H 0.22321 0.82642 0.29462 0.0
O430 O 0.28148 0.80393 0.24002 0.0
H431 H 0.17365 0.79229 0.19912 0.0
H432 H 0.25478 0.86708 0.33557 0.0
Cu433 Cu 0.46992 0.23996 0.76054 0.0
N434 N 0.44911 0.24826 0.73055 0.0
N435 N 0.4385 0.27199 0.6939 0.0
C436 C 0.45784 0.27373 0.71568 0.0
C437 C 0.41664 0.24449 0.69494 0.0
C438 C 0.4231 0.22992 0.71785 0.0
O439 O 0.48923 0.27172 0.79073 0.0
C440 C 0.47391 0.20198 0.7224 0.0
O441 O 0.44581 0.19063 0.72627 0.0
H442 H 0.47829 0.29307 0.71985 0.0
H443 H 0.40982 0.20744 0.72452 0.0
N444 N 0.44352 0.20936 0.78829 0.0
N445 N 0.4265 0.17197 0.82378 0.0
C446 C 0.44865 0.19061 0.80333 0.0
C447 C 0.41726 0.20255 0.79967 0.0
C448 C 0.40668 0.17943 0.82168 0.0
C449 C 0.50688 0.29849 0.78519 0.0
O450 O 0.51963 0.30805 0.75624 0.0
H451 H 0.46878 0.19134 0.80017 0.0
H452 H 0.40688 0.21397 0.793 0.0
O453 O 0.49093 0.22568 0.73567 0.0
H454 H 0.39744 0.23568 0.68028 0.0
H455 H 0.38618 0.16912 0.83526 0.0
C456 C 0.10013 0.49007 0.07334 0.0
C457 C 0.08839 0.50638 0.08057 0.0
C458 C 0.12033 0.48887 0.09396 0.0
C459 C 0.12918 0.50427 0.12285 0.0
C460 C 0.11777 0.52126 0.12984 0.0
C461 C 0.09759 0.52206 0.10875 0.0
C462 C 0.13156 0.47036 0.08529 0.0
C463 C 0.12628 0.53801 0.16016 0.0
C464 C 0.1515 0.4723 0.19255 0.0
C465 C 0.18212 0.48859 0.19042 0.0
C466 C 0.13437 0.47777 0.17153 0.0
C467 C 0.14783 0.5002 0.14717 0.0
C468 C 0.17879 0.51754 0.14557 0.0
C469 C 0.19556 0.51162 0.16721 0.0
C470 C 0.10165 0.45873 0.17477 0.0
C471 C 0.19421 0.54176 0.12019 0.0
H472 H 0.0931 0.47784 0.05168 0.0
H473 H 0.08869 0.53476 0.11448 0.0
H474 H 0.15568 0.48273 0.08543 0.0
H475 H 0.12364 0.45249 0.10388 0.0
H476 H 0.12443 0.46144 0.06093 0.0
H477 H 0.11762 0.55207 0.16079 0.0
H478 H 0.11785 0.52321 0.18213 0.0
H479 H 0.1503 0.55122 0.16171 0.0
H480 H 0.14067 0.45457 0.21045 0.0
H481 H 0.21909 0.52423 0.16501 0.0
H482 H 0.09292 0.4469 0.15227 0.0
H483 H 0.09191 0.47166 0.17754 0.0
H484 H 0.09445 0.44312 0.19597 0.0
H485 H 0.19008 0.53322 0.0955 0.0
H486 H 0.21808 0.55468 0.12359 0.0
H487 H 0.18559 0.5558 0.12106 0.0
C488 C 0.61051 0.08773 0.57654 0.0
C489 C 0.60767 0.06209 0.56927 0.0
C490 C 0.63348 0.10738 0.59534 0.0
C491 C 0.65383 0.101 0.60746 0.0
C492 C 0.65105 0.07511 0.6 0.0
C493 C 0.62818 0.05611 0.58056 0.0
C494 C 0.63595 0.13496 0.60222 0.0
C495 C 0.67207 0.06737 0.61282 0.0
C496 C 0.72757 0.16183 0.63281 0.0
C497 C 0.72325 0.1612 0.66661 0.0
C498 C 0.70516 0.14237 0.61324 0.0
C499 C 0.67798 0.12143 0.62796 0.0
C500 C 0.6737 0.12036 0.66219 0.0
C501 C 0.69632 0.14047 0.68106 0.0
C502 C 0.71036 0.14459 0.57675 0.0
C503 C 0.64522 0.09804 0.67886 0.0
H504 H 0.59463 0.09231 0.56752 0.0
H505 H 0.62611 0.03641 0.57441 0.0
H506 H 0.63428 0.13645 0.62892 0.0
H507 H 0.65754 0.15322 0.59356 0.0
H508 H 0.61879 0.13698 0.59023 0.0
H509 H 0.66652 0.04616 0.60534 0.0
H510 H 0.69447 0.0835 0.6038 0.0
H511 H 0.67213 0.0673 0.63989 0.0
H512 H 0.74825 0.17811 0.62158 0.0
H513 H 0.69309 0.13985 0.70723 0.0
H514 H 0.69463 0.14839 0.56409 0.0
H515 H 0.7067 0.12431 0.5684 0.0
H516 H 0.73275 0.16204 0.56915 0.0
H517 H 0.62743 0.1004 0.66966 0.0
H518 H 0.64579 0.09945 0.70582 0.0
H519 H 0.6398 0.07652 0.67305 0.0
C520 C 0.49695 0.60924 0.09932 0.0
C521 C 0.51613 0.59967 0.10312 0.0
C522 C 0.49842 0.6301 0.11912 0.0
C523 C 0.51935 0.64175 0.14384 0.0
C524 C 0.53825 0.63173 0.14836 0.0
C525 C 0.53658 0.61117 0.12799 0.0
C526 C 0.47793 0.64014 0.11306 0.0
C527 C 0.56087 0.64326 0.17436 0.0
C528 C 0.55007 0.71684 0.17234 0.0
C529 C 0.53621 0.71195 0.20299 0.0
C530 C 0.54362 0.69441 0.15231 0.0
C531 C 0.52318 0.66592 0.16328 0.0
C532 C 0.50822 0.66084 0.19375 0.0
C533 C 0.51475 0.68391 0.21313 0.0
C534 C 0.55982 0.70123 0.11995 0.0
C535 C 0.48651 0.63093 0.20675 0.0
H536 H 0.48061 0.60039 0.08084 0.0
H537 H 0.55194 0.60463 0.13119 0.0
H538 H 0.46592 0.63794 0.13598 0.0
H539 H 0.49054 0.66302 0.10511 0.0
H540 H 0.46195 0.62812 0.09408 0.0
H541 H 0.57238 0.63179 0.17663 0.0
H542 H 0.57718 0.6661 0.16847 0.0
H543 H 0.55058 0.64168 0.19837 0.0
H544 H 0.56683 0.73841 0.16438 0.0
H545 H 0.50437 0.67983 0.23703 0.0
H546 H 0.54436 0.69038 0.10018 0.0
H547 H 0.57467 0.69331 0.12095 0.0
H548 H 0.57291 0.72443 0.11349 0.0
H549 H 0.47056 0.61873 0.18788 0.0
H550 H 0.47457 0.6305 0.22895 0.0
H551 H 0.49802 0.61993 0.21295 0.0
C552 C 0.93205 0.55809 0.59122 0.0
C553 C 0.96241 0.57181 0.59223 0.0
C554 C 0.91667 0.56448 0.61287 0.0
C555 C 0.93192 0.58483 0.63647 0.0
C556 C 0.9626 0.59937 0.6371 0.0
C557 C 0.9775 0.5928 0.61485 0.0
C558 C 0.88393 0.54863 0.61122 0.0
C559 C 0.97959 0.62109 0.66202 0.0
C560 C 0.88838 0.61086 0.67703 0.0
C561 C 0.87586 0.59159 0.70428 0.0
C562 C 0.90779 0.60986 0.65545 0.0
C563 C 0.91533 0.58945 0.66154 0.0
C564 C 0.90463 0.57146 0.69026 0.0
C565 C 0.88495 0.57262 0.71114 0.0
C566 C 0.91878 0.62946 0.6251 0.0
C567 C 0.91254 0.54969 0.69797 0.0
H568 H 0.92006 0.54151 0.5743 0.0
H569 H 1.00099 0.60385 0.61552 0.0
H570 H 0.87391 0.53499 0.63387 0.0
H571 H 0.87671 0.56385 0.60957 0.0
H572 H 0.87557 0.53497 0.58998 0.0
H573 H 1.00345 0.63199 0.65779 0.0
H574 H 0.97371 0.63732 0.66159 0.0
H575 H 0.97395 0.61051 0.68685 0.0
H576 H 0.88224 0.62614 0.67184 0.0
H577 H 0.8757 0.55754 0.7319 0.0
H578 H 0.90861 0.61691 0.60337 0.0
H579 H 0.94265 0.63981 0.62188 0.0
H580 H 0.91365 0.64622 0.62576 0.0
H581 H 0.90221 0.53269 0.6803 0.0
H582 H 0.90527 0.53974 0.72303 0.0
H583 H 0.9364 0.5596 0.6955 0.0
C584 C 0.4297 0.94624 0.12003 0.0
C585 C 0.43523 0.93846 0.08978 0.0
C586 C 0.40659 0.92678 0.14168 0.0
C587 C 0.38608 0.89898 0.13222 0.0
C588 C 0.38872 0.892 0.1002 0.0
C589 C 0.41225 0.91199 0.07927 0.0
C590 C 0.40402 0.93627 0.17474 0.0
C591 C 0.36632 0.86347 0.08766 0.0
C592 C 0.33744 0.84123 0.19896 0.0
C593 C 0.31259 0.84287 0.19919 0.0
C594 C 0.3613 0.85894 0.17701 0.0
C595 C 0.36027 0.87853 0.15443 0.0
C596 C 0.3347 0.87932 0.15384 0.0
C597 C 0.31153 0.86178 0.17613 0.0
C598 C 0.38803 0.85732 0.17858 0.0
C599 C 0.33197 0.89932 0.13022 0.0
H600 H 0.44242 0.9679 0.12696 0.0
H601 H 0.41129 0.90675 0.05423 0.0
H602 H 0.38454 0.93775 0.17583 0.0
H603 H 0.40124 0.92045 0.19422 0.0
H604 H 0.42339 0.95729 0.18007 0.0
H605 H 0.37281 0.86001 0.06351 0.0
H606 H 0.36281 0.84611 0.10523 0.0
H607 H 0.3452 0.86187 0.0853 0.0
H608 H 0.33871 0.82693 0.21666 0.0
H609 H 0.29244 0.8632 0.17571 0.0
H610 H 0.4069 0.87806 0.18553 0.0
H611 H 0.39324 0.85311 0.15415 0.0
H612 H 0.38529 0.84044 0.19649 0.0
H613 H 0.34728 0.92159 0.13671 0.0
H614 H 0.30964 0.89523 0.13042 0.0
H615 H 0.33781 0.89742 0.10499 0.0
C616 C 0.48787 0.4093 0.57943 0.0
C617 C 0.46468 0.41224 0.57091 0.0
C618 C 0.48314 0.38562 0.59854 0.0
C619 C 0.4546 0.36482 0.61007 0.0
C620 C 0.43107 0.36764 0.6013 0.0
C621 C 0.43634 0.39107 0.58118 0.0
C622 C 0.5087 0.38298 0.60651 0.0
C623 C 0.40045 0.34628 0.61373 0.0
C624 C 0.43738 0.29163 0.63945 0.0
C625 C 0.44144 0.29479 0.67304 0.0
C626 C 0.44181 0.31433 0.61853 0.0
C627 C 0.44951 0.34041 0.63184 0.0
C628 C 0.45286 0.34337 0.66596 0.0
C629 C 0.44927 0.32063 0.6861 0.0
C630 C 0.43901 0.31067 0.58219 0.0
C631 C 0.46024 0.37053 0.6812 0.0
H632 H 0.50977 0.42564 0.57114 0.0
H633 H 0.41839 0.39312 0.57388 0.0
H634 H 0.51201 0.38387 0.63322 0.0
H635 H 0.50429 0.36211 0.59927 0.0
H636 H 0.52916 0.4001 0.59398 0.0
H637 H 0.3847 0.35189 0.60515 0.0
H638 H 0.39334 0.32486 0.60558 0.0
H639 H 0.39978 0.34493 0.64084 0.0
H640 H 0.43165 0.27164 0.62951 0.0
H641 H 0.45223 0.32282 0.71217 0.0
H642 H 0.45985 0.32667 0.56945 0.0
H643 H 0.42215 0.31438 0.5728 0.0
H644 H 0.4332 0.28913 0.57577 0.0
H645 H 0.48194 0.38826 0.67212 0.0
H646 H 0.46042 0.36878 0.70829 0.0
H647 H 0.44423 0.37619 0.67402 0.0
C648 C 0.5413 0.92947 0.40128 0.0
C649 C 0.5211 0.92034 0.42758 0.0
C650 C 0.54321 0.90998 0.38226 0.0
C651 C 0.52471 0.8803 0.38955 0.0
C652 C 0.50393 0.87085 0.41562 0.0
C653 C 0.5023 0.89082 0.4341 0.0
C654 C 0.5657 0.92128 0.35479 0.0
C655 C 0.4838 0.83956 0.42458 0.0
C656 C 0.51999 0.82931 0.32553 0.0
C657 C 0.54118 0.82389 0.33618 0.0
C658 C 0.51388 0.84709 0.34286 0.0
C659 C 0.52898 0.8595 0.3718 0.0
C660 C 0.54941 0.85299 0.38324 0.0
C661 C 0.55533 0.8356 0.36532 0.0
C662 C 0.49208 0.85351 0.32951 0.0
C663 C 0.56581 0.86511 0.41406 0.0
H664 H 0.55632 0.95202 0.39596 0.0
H665 H 0.48614 0.88315 0.45374 0.0
H666 H 0.58237 0.9162 0.36068 0.0
H667 H 0.55543 0.91088 0.3319 0.0
H668 H 0.57678 0.94466 0.35034 0.0
H669 H 0.46769 0.83544 0.44413 0.0
H670 H 0.47196 0.82809 0.40282 0.0
H671 H 0.4967 0.83053 0.4331 0.0
H672 H 0.50913 0.82071 0.30292 0.0
H673 H 0.57165 0.83152 0.37398 0.0
H674 H 0.50335 0.87638 0.32172 0.0
H675 H 0.47573 0.84929 0.34875 0.0
H676 H 0.48061 0.84073 0.30828 0.0
H677 H 0.57992 0.88859 0.41073 0.0
H678 H 0.57964 0.85667 0.42084 0.0
H679 H 0.55036 0.8602 0.43469 0.0
C680 C 0.6069 0.52875 0.94628 0.0
C681 C 0.60576 0.5518 0.95624 0.0
C682 C 0.63069 0.53307 0.9277 0.0
C683 C 0.65374 0.56117 0.91878 0.0
C684 C 0.65244 0.58453 0.92853 0.0
C685 C 0.62851 0.57954 0.94746 0.0
C686 C 0.63135 0.5076 0.91812 0.0
C687 C 0.67646 0.61475 0.91927 0.0
C688 C 0.72754 0.57237 0.89995 0.0
C689 C 0.72792 0.57256 0.86574 0.0
C690 C 0.70367 0.56899 0.91747 0.0
C691 C 0.6797 0.56604 0.90034 0.0
C692 C 0.68022 0.56688 0.86577 0.0
C693 C 0.70426 0.56995 0.84888 0.0
C694 C 0.70377 0.56779 0.95434 0.0
C695 C 0.65522 0.56417 0.84665 0.0
H696 H 0.58921 0.50731 0.95331 0.0
H697 H 0.62759 0.59729 0.95558 0.0
H698 H 0.63379 0.50802 0.89121 0.0
H699 H 0.65043 0.50834 0.92889 0.0
H700 H 0.61136 0.48718 0.92637 0.0
H701 H 0.67142 0.63044 0.92734 0.0
H702 H 0.69703 0.61941 0.93045 0.0
H703 H 0.68026 0.61762 0.8924 0.0
H704 H 0.74552 0.57389 0.91313 0.0
H705 H 0.70461 0.57032 0.82245 0.0
H706 H 0.68545 0.54685 0.96412 0.0
H707 H 0.70056 0.58427 0.96379 0.0
H708 H 0.72437 0.57103 0.96393 0.0
H709 H 0.6352 0.5431 0.85255 0.0
H710 H 0.65955 0.5665 0.81986 0.0
H711 H 0.65082 0.58053 0.85367 0.0
C712 C 0.11625 0.59803 0.43136 0.0
C713 C 0.09131 0.59764 0.44118 0.0
C714 C 0.13842 0.62071 0.41132 0.0
C715 C 0.13557 0.64357 0.40013 0.0
C716 C 0.11013 0.64296 0.40956 0.0
C717 C 0.08864 0.62034 0.43016 0.0
C718 C 0.1652 0.62048 0.40266 0.0
C719 C 0.1057 0.66646 0.39814 0.0
C720 C 0.20145 0.71817 0.3777 0.0
C721 C 0.20192 0.71947 0.34337 0.0
C722 C 0.18106 0.69329 0.39622 0.0
C723 C 0.15974 0.66893 0.38029 0.0
C724 C 0.16069 0.66975 0.34555 0.0
C725 C 0.18188 0.69486 0.32754 0.0
C726 C 0.18164 0.69356 0.43302 0.0
C727 C 0.13829 0.64462 0.32732 0.0
H728 H 0.11853 0.5806 0.43968 0.0
H729 H 0.0696 0.62038 0.43775 0.0
H730 H 0.1684 0.6221 0.37576 0.0
H731 H 0.18468 0.63924 0.4125 0.0
H732 H 0.16392 0.60095 0.41253 0.0
H733 H 0.08396 0.66197 0.40561 0.0
H734 H 0.12258 0.68674 0.40839 0.0
H735 H 0.10809 0.66955 0.37114 0.0
H736 H 0.21668 0.73708 0.39021 0.0
H737 H 0.18158 0.69576 0.30109 0.0
H738 H 0.18112 0.67461 0.44357 0.0
H739 H 0.16205 0.69259 0.44255 0.0
H740 H 0.20123 0.71295 0.44172 0.0
H741 H 0.13711 0.625 0.33649 0.0
H742 H 0.14309 0.64765 0.30059 0.0
H743 H 0.11653 0.64129 0.33167 0.0
C744 C 0.42423 0.04928 0.93665 0.0
C745 C 0.44993 0.06277 0.95431 0.0
C746 C 0.41664 0.06511 0.91621 0.0
C747 C 0.4352 0.0951 0.9134 0.0
C748 C 0.46053 0.10887 0.93217 0.0
C749 C 0.4676 0.09257 0.9523 0.0
C750 C 0.38939 0.04971 0.89667 0.0
C751 C 0.48095 0.14081 0.92984 0.0
C752 C 0.44029 0.13711 0.83572 0.0
C753 C 0.42572 0.15028 0.84505 0.0
C754 C 0.4424 0.11811 0.85728 0.0
C755 C 0.42964 0.11212 0.88904 0.0
C756 C 0.41377 0.12434 0.89815 0.0
C757 C 0.41195 0.14327 0.87599 0.0
C758 C 0.45934 0.10537 0.8465 0.0
C759 C 0.3999 0.11848 0.93181 0.0
H760 H 0.4103 0.0263 0.93835 0.0
H761 H 0.48776 0.1032 0.96535 0.0
H762 H 0.37603 0.05906 0.89985 0.0
H763 H 0.39535 0.05221 0.87032 0.0
H764 H 0.37595 0.02665 0.90382 0.0
H765 H 0.4985 0.14835 0.94788 0.0
H766 H 0.49114 0.14777 0.90498 0.0
H767 H 0.46878 0.15128 0.93382 0.0
H768 H 0.45046 0.14205 0.8116 0.0
H769 H 0.40082 0.15351 0.8834 0.0
H770 H 0.44613 0.08192 0.85075 0.0
H771 H 0.47915 0.11352 0.86117 0.0
H772 H 0.46606 0.11052 0.82025 0.0
H773 H 0.38666 0.09528 0.93801 0.0
H774 H 0.38582 0.12719 0.93392 0.0
H775 H 0.41711 0.12823 0.95016 0.0
C776 C 0.39034 0.49516 0.43033 0.0
C777 C 0.41948 0.50651 0.42051 0.0
C778 C 0.36961 0.49368 0.40828 0.0
C779 C 0.37785 0.50378 0.37522 0.0
C780 C 0.40739 0.51608 0.36537 0.0
C781 C 0.42768 0.51727 0.38793 0.0
C782 C 0.33851 0.48025 0.42016 0.0
C783 C 0.41747 0.52726 0.3306 0.0
C784 C 0.31847 0.46696 0.31235 0.0
C785 C 0.3095 0.48613 0.30576 0.0
C786 C 0.34078 0.47276 0.33416 0.0
C787 C 0.35503 0.49855 0.35039 0.0
C788 C 0.34674 0.51848 0.34334 0.0
C789 C 0.32418 0.51211 0.32111 0.0
C790 C 0.34867 0.45081 0.34031 0.0
C791 C 0.36127 0.54629 0.35987 0.0
H792 H 0.38336 0.48648 0.45515 0.0
H793 H 0.4501 0.52665 0.3799 0.0
H794 H 0.33051 0.49435 0.41348 0.0
H795 H 0.32448 0.45998 0.40811 0.0
H796 H 0.33597 0.47575 0.44703 0.0
H797 H 0.44148 0.53859 0.32739 0.0
H798 H 0.40732 0.50934 0.31411 0.0
H799 H 0.41048 0.54198 0.32283 0.0
H800 H 0.30773 0.44691 0.30057 0.0
H801 H 0.31756 0.52711 0.31646 0.0
H802 H 0.34442 0.44324 0.3664 0.0
H803 H 0.37221 0.46041 0.33509 0.0
H804 H 0.33618 0.43215 0.32511 0.0
H805 H 0.35664 0.54216 0.38657 0.0
H806 H 0.35373 0.56025 0.35059 0.0
H807 H 0.38522 0.55776 0.35615 0.0
C808 C 0.9425 0.37126 0.95089 0.0
C809 C 0.95792 0.3989 0.93629 0.0
C810 C 0.92431 0.3477 0.93251 0.0
C811 C 0.92158 0.35188 0.89873 0.0
C812 C 0.93817 0.37952 0.88355 0.0
C813 C 0.95605 0.40269 0.90252 0.0
C814 C 0.907 0.31853 0.94954 0.0
C815 C 0.9359 0.38485 0.84755 0.0
C816 C 0.8859 0.28973 0.84321 0.0
C817 C 0.85815 0.28535 0.84019 0.0
C818 C 0.90671 0.31095 0.86275 0.0
C819 C 0.89942 0.32792 0.8798 0.0
C820 C 0.87111 0.32292 0.87763 0.0
C821 C 0.85088 0.30176 0.8578 0.0
C822 C 0.93673 0.31581 0.86431 0.0
C823 C 0.86236 0.34035 0.89569 0.0
H824 H 0.94417 0.36811 0.97688 0.0
H825 H 0.96754 0.42396 0.89106 0.0
H826 H 0.88354 0.31093 0.94971 0.0
H827 H 0.9096 0.30313 0.9362 0.0
H828 H 0.91361 0.31848 0.97517 0.0
H829 H 0.95232 0.40706 0.83889 0.0
H830 H 0.93876 0.37017 0.83302 0.0
H831 H 0.91393 0.38068 0.84266 0.0
H832 H 0.89162 0.27722 0.82942 0.0
H833 H 0.82928 0.29807 0.85595 0.0
H834 H 0.94274 0.31541 0.8901 0.0
H835 H 0.9529 0.33715 0.85313 0.0
H836 H 0.93836 0.29963 0.85135 0.0
H837 H 0.8663 0.3395 0.92214 0.0
H838 H 0.83909 0.33287 0.8926 0.0
H839 H 0.87583 0.36294 0.88669 0.0
C840 C 0.91467 0.48801 0.93142 0.0
C841 C 0.93927 0.51419 0.9392 0.0
C842 C 0.89311 0.48655 0.91073 0.0
C843 C 0.89615 0.51186 0.89688 0.0
C844 C 0.92092 0.53836 0.90487 0.0
C845 C 0.94188 0.53919 0.92605 0.0
C846 C 0.8671 0.4578 0.90353 0.0
C847 C 0.92555 0.56595 0.89064 0.0
C848 C 0.85694 0.50886 0.81751 0.0
C849 C 0.8336 0.51086 0.82838 0.0
C850 C 0.8771 0.50895 0.83938 0.0
C851 C 0.87398 0.51069 0.8734 0.0
C852 C 0.85005 0.51199 0.88467 0.0
C853 C 0.83043 0.51231 0.86216 0.0
C854 C 0.90227 0.50792 0.82585 0.0
C855 C 0.84538 0.51343 0.92061 0.0
H856 H 0.91237 0.46858 0.94148 0.0
H857 H 0.9606 0.55951 0.93214 0.0
H858 H 0.84675 0.45679 0.90985 0.0
H859 H 0.86682 0.45446 0.87704 0.0
H860 H 0.86714 0.44019 0.91727 0.0
H861 H 0.94581 0.58477 0.89913 0.0
H862 H 0.92668 0.56636 0.86358 0.0
H863 H 0.90687 0.5677 0.89742 0.0
H864 H 0.86004 0.50802 0.79158 0.0
H865 H 0.81268 0.51397 0.87107 0.0
H866 H 0.90211 0.48938 0.83714 0.0
H867 H 0.9231 0.52728 0.83207 0.0
H868 H 0.90166 0.50643 0.7989 0.0
H869 H 0.84454 0.49547 0.93454 0.0
H870 H 0.82499 0.51275 0.92579 0.0
H871 H 0.86393 0.53335 0.92973 0.0
C872 C 0.39351 0.95068 0.46667 0.0
C873 C 0.42206 0.95909 0.45835 0.0
C874 C 0.37033 0.93269 0.44692 0.0
C875 C 0.37608 0.92392 0.41752 0.0
C876 C 0.40507 0.93317 0.40855 0.0
C877 C 0.42769 0.95038 0.4293 0.0
C878 C 0.33968 0.92282 0.45768 0.0
C879 C 0.41224 0.92498 0.377 0.0
C880 C 0.31626 0.85767 0.37858 0.0
C881 C 0.30617 0.86927 0.35523 0.0
C882 C 0.33862 0.87517 0.39948 0.0
C883 C 0.35178 0.90504 0.39616 0.0
C884 C 0.34188 0.91684 0.37223 0.0
C885 C 0.31884 0.89874 0.35239 0.0
C886 C 0.34801 0.86171 0.42525 0.0
C887 C 0.35592 0.94859 0.36724 0.0
H888 H 0.38934 0.95797 0.48883 0.0
H889 H 0.44988 0.95718 0.42281 0.0
H890 H 0.32984 0.93023 0.43937 0.0
H891 H 0.32608 0.89924 0.45934 0.0
H892 H 0.33883 0.93076 0.48176 0.0
H893 H 0.43602 0.93495 0.37298 0.0
H894 H 0.40157 0.90157 0.37709 0.0
H895 H 0.4037 0.93143 0.35608 0.0
H896 H 0.30619 0.83483 0.38082 0.0
H897 H 0.31113 0.90759 0.33404 0.0
H898 H 0.34619 0.86842 0.44973 0.0
H899 H 0.37116 0.86903 0.42096 0.0
H900 H 0.33476 0.83812 0.42549 0.0
H901 H 0.35377 0.95747 0.38994 0.0
H902 H 0.34612 0.95437 0.34703 0.0
H903 H 0.37952 0.95887 0.3617 0.0
C904 C 0.53075 0.41091 0.92149 0.0
C905 C 0.50906 0.41735 0.91902 0.0
C906 C 0.53162 0.39173 0.90081 0.0
C907 C 0.51041 0.37848 0.87663 0.0
C908 C 0.48852 0.38491 0.87391 0.0
C909 C 0.48807 0.40405 0.89501 0.0
C910 C 0.55542 0.38572 0.90478 0.0
C911 C 0.46544 0.3715 0.8486 0.0
C912 C 0.52596 0.34853 0.8022 0.0
C913 C 0.50989 0.31905 0.80991 0.0
C914 C 0.5267 0.368 0.82375 0.0
C915 C 0.51108 0.35804 0.85411 0.0
C916 C 0.49544 0.32839 0.86243 0.0
C917 C 0.49497 0.30937 0.84035 0.0
C918 C 0.54367 0.39927 0.81358 0.0
C919 C 0.47862 0.31663 0.89449 0.0
H920 H 0.54747 0.42122 0.93937 0.0
H921 H 0.47089 0.40828 0.89289 0.0
H922 H 0.54576 0.36259 0.90967 0.0
H923 H 0.56866 0.39198 0.88181 0.0
H924 H 0.57003 0.39727 0.92499 0.0
H925 H 0.45004 0.37878 0.84929 0.0
H926 H 0.47577 0.37669 0.82384 0.0
H927 H 0.45293 0.34802 0.85255 0.0
H928 H 0.53751 0.35648 0.77884 0.0
H929 H 0.48239 0.28676 0.84677 0.0
H930 H 0.5595 0.41162 0.83249 0.0
H931 H 0.52865 0.40693 0.81134 0.0
H932 H 0.55565 0.40385 0.78989 0.0
H933 H 0.49315 0.32722 0.91507 0.0
H934 H 0.46863 0.29332 0.89811 0.0
H935 H 0.46112 0.32115 0.89548 0.0
C936 C 0.07562 0.4401 0.44882 0.0
C937 C 0.06327 0.45457 0.43485 0.0
C938 C 0.09229 0.43332 0.42979 0.0
C939 C 0.09674 0.44125 0.396 0.0
C940 C 0.08323 0.45467 0.3815 0.0
C941 C 0.06667 0.46117 0.40109 0.0
C942 C 0.10617 0.41881 0.44609 0.0
C943 C 0.0875 0.46353 0.34556 0.0
C944 C 0.16644 0.45818 0.35346 0.0
C945 C 0.15686 0.43421 0.33518 0.0
C946 C 0.14722 0.46036 0.37396 0.0
C947 C 0.11761 0.43795 0.37635 0.0
C948 C 0.10794 0.41323 0.35884 0.0
C949 C 0.12771 0.41164 0.33845 0.0
C950 C 0.15848 0.48702 0.39238 0.0
C951 C 0.07653 0.38891 0.36082 0.0
H952 H 0.07272 0.43458 0.47483 0.0
H953 H 0.05751 0.47265 0.39016 0.0
H954 H 0.10169 0.40021 0.43243 0.0
H955 H 0.13012 0.43374 0.44594 0.0
H956 H 0.09829 0.41156 0.47179 0.0
H957 H 0.07348 0.47146 0.33753 0.0
H958 H 0.11054 0.48064 0.34034 0.0
H959 H 0.08267 0.4454 0.33075 0.0
H960 H 0.18905 0.47544 0.35151 0.0
H961 H 0.12011 0.39316 0.3242 0.0
H962 H 0.15341 0.48151 0.41888 0.0
H963 H 0.14751 0.4981 0.38408 0.0
H964 H 0.18234 0.50199 0.38886 0.0
H965 H 0.06925 0.38201 0.38669 0.0
H966 H 0.07294 0.37035 0.34767 0.0
H967 H 0.06263 0.39603 0.35006 0.0
C968 C 0.58825 0.11033 0.91922 0.0
C969 C 0.59104 0.08804 0.93161 0.0
C970 C 0.60947 0.13204 0.89745 0.0
C971 C 0.63436 0.13172 0.88783 0.0
C972 C 0.63695 0.10893 0.90001 0.0
C973 C 0.61533 0.08744 0.92159 0.0
C974 C 0.60549 0.15562 0.8852 0.0
C975 C 0.66298 0.10755 0.89083 0.0
C976 C 0.68323 0.17742 0.81348 0.0
C977 C 0.70679 0.20054 0.82834 0.0
C978 C 0.65923 0.15527 0.83228 0.0
C979 C 0.65857 0.15603 0.86688 0.0
C980 C 0.68186 0.17977 0.88178 0.0
C981 C 0.70544 0.20152 0.86251 0.0
C982 C 0.63494 0.1306 0.81515 0.0
C983 C 0.68238 0.18184 0.9184 0.0
H984 H 0.56948 0.11084 0.92679 0.0
H985 H 0.6176 0.07028 0.93107 0.0
H986 H 0.62307 0.17613 0.89431 0.0
H987 H 0.6071 0.15772 0.85813 0.0
H988 H 0.5842 0.15196 0.8932 0.0
H989 H 0.66124 0.0879 0.90109 0.0
H990 H 0.66545 0.10845 0.86387 0.0
H991 H 0.68302 0.12621 0.89989 0.0
H992 H 0.68392 0.17615 0.78723 0.0
H993 H 0.72331 0.21914 0.87452 0.0
H994 H 0.6137 0.12732 0.82248 0.0
H995 H 0.63422 0.11084 0.82255 0.0
H996 H 0.63762 0.13384 0.78814 0.0
H997 H 0.6622 0.17999 0.92742 0.0
H998 H 0.70136 0.20216 0.92623 0.0
H999 H 0.68316 0.164 0.93028 0.0
C1000 C 0.54168 0.59568 0.43385 0.0
C1001 C 0.55655 0.6012 0.46317 0.0
C1002 C 0.54631 0.61799 0.41216 0.0
C1003 C 0.56585 0.64646 0.42038 0.0
C1004 C 0.58096 0.65208 0.45001 0.0
C1005 C 0.57652 0.62931 0.47078 0.0
C1006 C 0.53036 0.61108 0.38043 0.0
C1007 C 0.60153 0.68212 0.45993 0.0
C1008 C 0.59811 0.70589 0.35401 0.0
C1009 C 0.57953 0.71598 0.35597 0.0
C1010 C 0.5936 0.68291 0.37443 0.0
C1011 C 0.57048 0.67037 0.39801 0.0
C1012 C 0.55187 0.68076 0.4003 0.0
C1013 C 0.55637 0.7032 0.37886 0.0
C1014 C 0.61336 0.67188 0.37056 0.0
C1015 C 0.52746 0.66845 0.42566 0.0
H1016 H 0.52642 0.57382 0.42795 0.0
H1017 H 0.58844 0.63343 0.49316 0.0
H1018 H 0.51628 0.61986 0.3794 0.0
H1019 H 0.54619 0.62117 0.35955 0.0
H1020 H 0.5166 0.58782 0.37732 0.0
H1021 H 0.61078 0.68281 0.48429 0.0
H1022 H 0.61969 0.6938 0.44168 0.0
H1023 H 0.59 0.69354 0.46058 0.0
H1024 H 0.61581 0.71568 0.33599 0.0
H1025 H 0.54222 0.71127 0.38041 0.0
H1026 H 0.60028 0.6489 0.36584 0.0
H1027 H 0.62507 0.67408 0.39348 0.0
H1028 H 0.62965 0.68334 0.35026 0.0
H1029 H 0.51188 0.64556 0.42201 0.0
H1030 H 0.51543 0.67944 0.42476 0.0
H1031 H 0.5363 0.67007 0.45042 0.0
C1032 C 0.51311 0.09769 0.63637 0.0
C1033 C 0.50981 0.09841 0.60234 0.0
C1034 C 0.51116 0.11662 0.65644 0.0
C1035 C 0.50565 0.137 0.64247 0.0
C1036 C 0.50322 0.13846 0.60806 0.0
C1037 C 0.50533 0.11932 0.58857 0.0
C1038 C 0.51401 0.11413 0.69285 0.0
C1039 C 0.49714 0.15953 0.59186 0.0
C1040 C 0.46258 0.15855 0.69375 0.0
C1041 C 0.48374 0.18605 0.7031 0.0
C1042 C 0.46958 0.14264 0.67455 0.0
C1043 C 0.49869 0.15411 0.66397 0.0
C1044 C 0.52044 0.18169 0.67361 0.0
C1045 C 0.51276 0.19733 0.69305 0.0
C1046 C 0.44548 0.11346 0.66526 0.0
C1047 C 0.55178 0.1948 0.66305 0.0
H1048 H 0.51716 0.08217 0.64748 0.0
H1049 H 0.50243 0.12016 0.56249 0.0
H1050 H 0.52978 0.13528 0.70215 0.0
H1051 H 0.49273 0.10623 0.70528 0.0
H1052 H 0.5212 0.09936 0.69969 0.0
H1053 H 0.49878 0.1601 0.5648 0.0
H1054 H 0.47489 0.15377 0.59898 0.0
H1055 H 0.51256 0.18118 0.60017 0.0
H1056 H 0.44006 0.14919 0.70133 0.0
H1057 H 0.52936 0.21843 0.69997 0.0
H1058 H 0.45029 0.09728 0.67384 0.0
H1059 H 0.44401 0.11282 0.63829 0.0
H1060 H 0.42396 0.10736 0.67572 0.0
H1061 H 0.5593 0.1805 0.67081 0.0
H1062 H 0.5663 0.21587 0.67335 0.0
H1063 H 0.55386 0.19742 0.63602 0.0
C1064 C 0.41517 0.4885 0.07481 0.0
C1065 C 0.41659 0.46501 0.06737 0.0
C1066 C 0.39168 0.48507 0.09319 0.0
C1067 C 0.36933 0.45748 0.10486 0.0
C1068 C 0.37088 0.4337 0.09768 0.0
C1069 C 0.3943 0.43772 0.07851 0.0
C1070 C 0.39057 0.51092 0.09968 0.0
C1071 C 0.34778 0.40403 0.11016 0.0
C1072 C 0.32197 0.45305 0.1759 0.0
C1073 C 0.29669 0.4473 0.16009 0.0
C1074 C 0.34557 0.45583 0.15834 0.0
C1075 C 0.34408 0.4535 0.12404 0.0
C1076 C 0.31861 0.44783 0.10796 0.0
C1077 C 0.29507 0.44444 0.12627 0.0
C1078 C 0.37206 0.46121 0.17648 0.0
C1079 C 0.31644 0.44591 0.07134 0.0
H1080 H 0.4324 0.50958 0.06588 0.0
H1081 H 0.39518 0.41954 0.07212 0.0
H1082 H 0.37047 0.50843 0.08958 0.0
H1083 H 0.3898 0.51306 0.12636 0.0
H1084 H 0.40964 0.53084 0.08872 0.0
H1085 H 0.35301 0.38804 0.10388 0.0
H1086 H 0.3452 0.40333 0.13709 0.0
H1087 H 0.32654 0.39791 0.09965 0.0
H1088 H 0.32305 0.455 0.20211 0.0
H1089 H 0.27563 0.44033 0.11405 0.0
H1090 H 0.39134 0.48199 0.16789 0.0
H1091 H 0.37672 0.44464 0.17135 0.0
H1092 H 0.36929 0.4613 0.2033 0.0
H1093 H 0.33412 0.46609 0.05918 0.0
H1094 H 0.29523 0.44167 0.06257 0.0
H1095 H 0.3193 0.42873 0.06363 0.0
C1096 C 0.93422 0.40621 0.58995 0.0
C1097 C 0.93692 0.43263 0.5861 0.0
C1098 C 0.91268 0.38417 0.6111 0.0
C1099 C 0.89328 0.38854 0.62923 0.0
C1100 C 0.89582 0.41522 0.62508 0.0
C1101 C 0.91745 0.43682 0.60353 0.0
C1102 C 0.91094 0.35624 0.61435 0.0
C1103 C 0.87605 0.42118 0.64392 0.0
C1104 C 0.82448 0.32161 0.66721 0.0
C1105 C 0.83375 0.31928 0.6985 0.0
C1106 C 0.84314 0.34446 0.64473 0.0
C1107 C 0.87167 0.36578 0.65379 0.0
C1108 C 0.88031 0.36423 0.68605 0.0
C1109 C 0.86152 0.34098 0.70766 0.0
C1110 C 0.83293 0.34487 0.61064 0.0
C1111 C 0.91006 0.38647 0.69737 0.0
H1112 H 0.94913 0.40283 0.57643 0.0
H1113 H 0.91942 0.4572 0.60059 0.0
H1114 H 0.91581 0.3526 0.63971 0.0
H1115 H 0.88858 0.33848 0.60945 0.0
H1116 H 0.92642 0.35556 0.59736 0.0
H1117 H 0.87994 0.44248 0.63711 0.0
H1118 H 0.85297 0.40482 0.63957 0.0
H1119 H 0.87946 0.42 0.67048 0.0
H1120 H 0.80341 0.30463 0.65957 0.0
H1121 H 0.86904 0.33919 0.73162 0.0
H1122 H 0.84566 0.34085 0.59307 0.0
H1123 H 0.83674 0.36609 0.6037 0.0
H1124 H 0.80948 0.32853 0.60818 0.0
H1125 H 0.92692 0.38509 0.68397 0.0
H1126 H 0.91247 0.38384 0.72397 0.0
H1127 H 0.91435 0.40808 0.69193 0.0
C1128 C 0.60583 0.96889 0.09398 0.0
C1129 C 0.58122 0.95659 0.07447 0.0
C1130 C 0.61145 0.95197 0.11518 0.0
C1131 C 0.59207 0.92207 0.11677 0.0
C1132 C 0.56784 0.90949 0.09626 0.0
C1133 C 0.56266 0.92688 0.0755 0.0
C1134 C 0.63755 0.96611 0.13665 0.0
C1135 C 0.54669 0.87767 0.09717 0.0
C1136 C 0.61338 0.87256 0.15462 0.0
C1137 C 0.59873 0.86501 0.18508 0.0
C1138 C 0.61218 0.89182 0.13244 0.0
C1139 C 0.59605 0.90388 0.14104 0.0
C1140 C 0.58204 0.89707 0.17219 0.0
C1141 C 0.5835 0.87767 0.19378 0.0
C1142 C 0.62723 0.89841 0.09938 0.0
C1143 C 0.56481 0.90968 0.18237 0.0
H1144 H 0.62049 0.99179 0.09306 0.0
H1145 H 0.5433 0.91715 0.06102 0.0
H1146 H 0.63021 0.96238 0.16265 0.0
H1147 H 0.65088 0.9567 0.13374 0.0
H1148 H 0.65149 0.9894 0.13104 0.0
H1149 H 0.53007 0.87114 0.0781 0.0
H1150 H 0.55848 0.86675 0.0937 0.0
H1151 H 0.53536 0.87021 0.12142 0.0
H1152 H 0.62495 0.86264 0.14763 0.0
H1153 H 0.57256 0.87225 0.2175 0.0
H1154 H 0.64137 0.92173 0.09439 0.0
H1155 H 0.61076 0.88996 0.08011 0.0
H1156 H 0.64068 0.88899 0.0974 0.0
H1157 H 0.5784 0.93321 0.17938 0.0
H1158 H 0.55672 0.90355 0.20814 0.0
H1159 H 0.54587 0.90241 0.16642 0.0
C1160 C 0.60745 0.48525 0.61832 0.0
C1161 C 0.60193 0.50724 0.6181 0.0
C1162 C 0.62683 0.48414 0.64048 0.0
C1163 C 0.64132 0.50545 0.66342 0.0
C1164 C 0.63587 0.52767 0.66338 0.0
C1165 C 0.61645 0.52831 0.6409 0.0
C1166 C 0.63167 0.45996 0.63945 0.0
C1167 C 0.65064 0.55092 0.68718 0.0
C1168 C 0.67126 0.49066 0.74175 0.0
C1169 C 0.70133 0.50498 0.73462 0.0
C1170 C 0.65161 0.49023 0.71881 0.0
C1171 C 0.66194 0.50447 0.68759 0.0
C1172 C 0.69215 0.51841 0.67994 0.0
C1173 C 0.71135 0.51852 0.70337 0.0
C1174 C 0.61975 0.47502 0.72835 0.0
C1175 C 0.70437 0.5338 0.64711 0.0
H1176 H 0.59622 0.4685 0.60143 0.0
H1177 H 0.61297 0.5457 0.64098 0.0
H1178 H 0.65512 0.46844 0.63526 0.0
H1179 H 0.6251 0.44767 0.66329 0.0
H1180 H 0.61921 0.44526 0.61996 0.0
H1181 H 0.64418 0.5667 0.68424 0.0
H1182 H 0.64518 0.54157 0.71258 0.0
H1183 H 0.67459 0.56219 0.68376 0.0
H1184 H 0.66302 0.48017 0.76568 0.0
H1185 H 0.73441 0.52982 0.69737 0.0
H1186 H 0.60647 0.45922 0.71019 0.0
H1187 H 0.6129 0.49051 0.72844 0.0
H1188 H 0.61484 0.4639 0.75288 0.0
H1189 H 0.69294 0.51916 0.62728 0.0
H1190 H 0.72805 0.54263 0.64428 0.0
H1191 H 0.70069 0.5515 0.64393 0.0
C1192 C 0.05909 0.63279 0.10443 0.0
C1193 C 0.07322 0.62428 0.08368 0.0
C1194 C 0.07495 0.65522 0.12519 0.0
C1195 C 0.10565 0.66946 0.12517 0.0
C1196 C 0.12006 0.66143 0.10372 0.0
C1197 C 0.10369 0.63894 0.08328 0.0
C1198 C 0.05884 0.66325 0.14765 0.0
C1199 C 0.15277 0.67605 0.103 0.0
C1200 C 0.15175 0.74212 0.16039 0.0
C1201 C 0.15887 0.73519 0.19077 0.0
C1202 C 0.13386 0.7209 0.13907 0.0
C1203 C 0.12276 0.69205 0.1484 0.0
C1204 C 0.12917 0.68486 0.17943 0.0
C1205 C 0.14714 0.7065 0.20021 0.0
C1206 C 0.12759 0.72941 0.10614 0.0
C1207 C 0.1176 0.65432 0.1904 0.0
H1208 H 0.03558 0.62177 0.10462 0.0
H1209 H 0.11476 0.63221 0.06774 0.0
H1210 H 0.06262 0.6595 0.17345 0.0
H1211 H 0.06719 0.68623 0.14391 0.0
H1212 H 0.03504 0.65091 0.14372 0.0
H1213 H 0.16072 0.66818 0.08381 0.0
H1214 H 0.16315 0.69933 0.09862 0.0
H1215 H 0.16003 0.6725 0.12703 0.0
H1216 H 0.16096 0.76423 0.15276 0.0
H1217 H 0.15218 0.70098 0.22386 0.0
H1218 H 0.1038 0.71758 0.10242 0.0
H1219 H 0.13739 0.72379 0.08655 0.0
H1220 H 0.13636 0.75256 0.10338 0.0
H1221 H 0.09357 0.6414 0.1888 0.0
H1222 H 0.12349 0.65221 0.21585 0.0
H1223 H 0.12642 0.64524 0.174 0.0
loop_
_geom_bond_atom_site_label_1
_geom_bond_atom_site_label_2
_geom_bond_distance
_geom_bond_site_symmetry_2
_ccdc_geom_bond_type
C0 C1 1.438 1_556 S
C0 N4 1.376 1_556 S
C0 C38 1.389 . S
C1 C0 1.438 1_554 S
C1 C2 1.356 . S
C1 H41 0.942 1_554 S
C2 C1 1.356 . S
C2 C3 1.439 . S
C2 H42 0.950 . S
C3 C2 1.439 . S
C3 N4 1.374 . S
C3 C37 1.395 . S
N4 C0 1.376 1_554 S
N4 C3 1.374 . S
N4 Co5 2.008 1_655 S
Co5 N4 2.008 1_455 S
Co5 N6 1.995 . S
Co5 N11 2.009 . S
Co5 N16 1.995 1_554 S
Co5 N21 2.282 . S
Co5 N27 2.282 1_454 S
N6 Co5 1.995 . S
N6 C7 1.376 1_455 S
N6 C10 1.383 . S
C7 N6 1.376 1_655 S
C7 C8 1.446 . S
C7 C37 1.391 . S
C8 C7 1.446 . S
C8 C9 1.339 1_655 S
C8 H43 0.949 . S
C9 C8 1.339 1_455 S
C9 C10 1.439 . S
C9 H44 0.950 . S
C10 N6 1.383 . S
C10 C9 1.439 . S
C10 C39 1.392 . S
N11 Co5 2.009 . S
N11 C12 1.381 . S
N11 C15 1.369 1_554 S
C12 N11 1.381 . S
C12 C13 1.443 . S
C12 C39 1.389 . S
C13 C12 1.443 . S
C13 C14 1.340 1_554 S
C13 H45 0.951 . S
C14 C13 1.340 1_556 S
C14 C15 1.439 . S
C14 H46 0.950 . S
C15 N11 1.369 1_556 S
C15 C14 1.439 . S
C15 C40 1.395 . S
N16 Co5 1.995 1_556 S
N16 C17 1.376 . S
N16 C20 1.383 1_455 S
C17 N16 1.376 . S
C17 C18 1.446 . S
C17 C40 1.391 . S
C18 C17 1.446 . S
C18 C19 1.339 . S
C18 H47 0.949 . S
C19 C18 1.339 . S
C19 C20 1.439 1_455 S
C19 H48 0.940 1_455 S
C20 N16 1.383 1_655 S
C20 C19 1.439 1_655 S
C20 C38 1.392 . S
N21 Co5 2.282 . S
N21 C24 1.332 . S
N21 C26 1.332 . S
C22 C23 1.386 . S
C22 C25 1.388 . S
C23 C22 1.386 . S
C23 C24 1.382 . S
C23 H49 0.950 . S
C24 N21 1.332 . S
C24 C23 1.382 . S
C24 H35 0.952 . S
C25 C22 1.388 . S
C25 C26 1.382 . S
C25 H50 0.950 . S
C26 N21 1.332 . S
C26 C25 1.382 . S
C26 H36 0.948 . S
N27 Co5 2.282 1_656 S
N27 C31 1.332 . S
N27 C32 1.332 . S
C28 C29 1.388 . S
C28 C32 1.382 . S
C28 H51 0.950 . S
C29 C28 1.388 . S
C29 C30 1.386 . S
C30 C29 1.386 . S
C30 C31 1.382 . S
C30 H52 0.950 . S
C31 N27 1.332 . S
C31 C30 1.382 . S
C31 H33 0.952 1_556 S
C32 N27 1.332 . S
C32 C28 1.382 . S
C32 H34 0.948 1_655 S
H33 C31 0.952 1_554 S
H34 C32 0.948 1_455 S
H35 C24 0.952 . S
H36 C26 0.948 . S
C37 C3 1.395 . S
C37 C7 1.391 . S
C38 C0 1.389 . S
C38 C20 1.392 . S
C39 C10 1.392 . S
C39 C12 1.389 . S
C40 C15 1.395 . S
C40 C17 1.391 . S
H41 C1 0.942 1_556 S
H42 C2 0.950 . S
H43 C8 0.949 . S
H44 C9 0.950 . S
H45 C13 0.951 . S
H46 C14 0.950 . S
H47 C18 0.949 . S
H48 C19 0.940 1_655 S
H49 C23 0.950 . S
H50 C25 0.950 . S
H51 C28 0.950 . S
H52 C30 0.950 . S
C53 C54 1.443 . S
C53 N57 1.376 . S
C53 C91 1.389 . S
C54 C53 1.443 . S
C54 C55 1.340 1_545 S
C54 H94 0.951 . S
C55 C54 1.340 1_565 S
C55 C56 1.439 . S
C55 H95 0.950 . S
C56 C55 1.439 . S
C56 N57 1.374 1_565 S
C56 C90 1.395 . S
N57 C53 1.376 . S
N57 C56 1.374 1_545 S
N57 Co58 2.008 . S
Co58 N57 2.008 . S
Co58 N59 1.995 1_545 S
Co58 N64 2.008 . S
Co58 N69 1.995 . S
Co58 N74 2.282 1_545 S
Co58 N80 2.282 . S
N59 Co58 1.995 1_565 S
N59 C60 1.376 . S
N59 C63 1.383 . S
C60 N59 1.376 . S
C60 C61 1.446 . S
C60 C90 1.391 . S
C61 C60 1.446 . S
C61 C62 1.339 . S
C61 H96 0.949 . S
C62 C61 1.339 . S
C62 C63 1.439 . S
C62 H97 0.950 . S
C63 N59 1.383 . S
C63 C62 1.439 . S
C63 C92 1.392 . S
N64 Co58 2.008 . S
N64 C65 1.376 1_545 S
N64 C68 1.374 . S
C65 N64 1.376 1_565 S
C65 C66 1.443 1_565 S
C65 C92 1.389 . S
C66 C65 1.443 1_545 S
C66 C67 1.340 . S
C66 H98 0.951 1_545 S
C67 C66 1.340 . S
C67 C68 1.439 . S
C67 H99 0.950 . S
C68 N64 1.374 . S
C68 C67 1.439 . S
C68 C93 1.395 . S
N69 Co58 1.995 . S
N69 C70 1.376 . S
N69 C73 1.383 . S
C70 N69 1.376 . S
C70 C71 1.446 . S
C70 C93 1.391 . S
C71 C70 1.446 . S
C71 C72 1.339 . S
C71 H100 0.949 . S
C72 C71 1.339 . S
C72 C73 1.439 . S
C72 H101 0.950 . S
C73 N69 1.383 . S
C73 C72 1.439 . S
C73 C91 1.392 . S
N74 Co58 2.282 1_565 S
N74 C77 1.332 . S
N74 C79 1.332 . S
C75 C76 1.386 . S
C75 C78 1.388 . S
C76 C75 1.386 . S
C76 C77 1.382 . S
C76 H102 0.950 . S
C77 N74 1.332 . S
C77 C76 1.382 . S
C77 H88 0.952 1_565 S
C78 C75 1.388 . S
C78 C79 1.382 . S
C78 H103 0.950 . S
C79 N74 1.332 . S
C79 C78 1.382 . S
C79 H89 0.948 . S
N80 Co58 2.282 . S
N80 C84 1.332 . S
N80 C85 1.332 . S
C81 C82 1.388 . S
C81 C85 1.382 . S
C81 H104 0.950 . S
C82 C81 1.388 . S
C82 C83 1.386 . S
C83 C82 1.386 . S
C83 C84 1.382 . S
C83 H105 0.950 . S
C84 N80 1.332 . S
C84 C83 1.382 . S
C84 H86 0.952 . S
C85 N80 1.332 . S
C85 C81 1.382 . S
C85 H87 0.948 . S
H86 C84 0.952 . S
H87 C85 0.948 . S
H88 C77 0.952 1_545 S
H89 C79 0.948 . S
C90 C56 1.395 . S
C90 C60 1.391 . S
C91 C53 1.389 . S
C91 C73 1.392 . S
C92 C63 1.392 . S
C92 C65 1.389 . S
C93 C68 1.395 . S
C93 C70 1.391 . S
H94 C54 0.951 . S
H95 C55 0.950 . S
H96 C61 0.949 . S
H97 C62 0.950 . S
H98 C66 0.951 1_565 S
H99 C67 0.950 . S
H100 C71 0.949 . S
H101 C72 0.950 . S
H102 C76 0.950 . S
H103 C78 0.950 . S
H104 C81 0.950 . S
H105 C83 0.950 . S
C106 C107 1.443 . S
C106 N110 1.376 . S
C106 C144 1.389 . S
C107 C106 1.443 . S
C107 C108 1.340 . S
C107 H147 0.951 . S
C108 C107 1.340 . S
C108 C109 1.439 . S
C108 H148 0.950 . S
C109 C108 1.439 . S
C109 N110 1.374 . S
C109 C143 1.395 . S
N110 C106 1.376 . S
N110 C109 1.374 . S
N110 Co111 2.008 1_556 S
Co111 N110 2.008 1_554 S
Co111 N112 1.995 1_554 S
Co111 N117 2.008 . S
Co111 N122 1.995 . S
Co111 N127 2.282 . S
Co111 N133 2.282 1_554 S
N112 Co111 1.995 1_556 S
N112 C113 1.376 . S
N112 C116 1.383 1_556 S
C113 N112 1.376 . S
C113 C114 1.446 . S
C113 C143 1.391 . S
C114 C113 1.446 . S
C114 C115 1.339 1_556 S
C114 H149 0.949 . S
C115 C114 1.339 1_554 S
C115 C116 1.439 . S
C115 H150 0.950 . S
C116 N112 1.383 1_554 S
C116 C115 1.439 . S
C116 C145 1.392 . S
N117 Co111 2.008 . S
N117 C118 1.376 . S
N117 C121 1.374 . S
C118 N117 1.376 . S
C118 C119 1.443 . S
C118 C145 1.389 . S
C119 C118 1.443 . S
C119 C120 1.340 . S
C119 H151 0.951 . S
C120 C119 1.340 . S
C120 C121 1.439 . S
C120 H152 0.950 . S
C121 N117 1.374 . S
C121 C120 1.439 . S
C121 C146 1.395 . S
N122 Co111 1.995 . S
N122 C123 1.376 . S
N122 C126 1.383 1_554 S
C123 N122 1.376 . S
C123 C124 1.446 . S
C123 C146 1.391 . S
C124 C123 1.446 . S
C124 C125 1.339 . S
C124 H153 0.949 . S
C125 C124 1.339 . S
C125 C126 1.439 1_554 S
C125 H154 0.950 1_554 S
C126 N122 1.383 1_556 S
C126 C125 1.439 1_556 S
C126 C144 1.392 . S
N127 Co111 2.282 . S
N127 C130 1.332 . S
N127 C132 1.332 . S
C128 C129 1.386 . S
C128 C131 1.388 . S
C129 C128 1.386 . S
C129 C130 1.382 . S
C129 H155 0.950 . S
C130 N127 1.332 . S
C130 C129 1.382 . S
C130 H141 0.952 . S
C131 C128 1.388 . S
C131 C132 1.382 . S
C131 H156 0.950 . S
C132 N127 1.332 . S
C132 C131 1.382 . S
C132 H142 0.948 . S
N133 Co111 2.282 1_556 S
N133 C137 1.332 . S
N133 C138 1.332 . S
C134 C135 1.388 . S
C134 C138 1.382 . S
C134 H157 0.950 . S
C135 C134 1.388 . S
C135 C136 1.386 . S
C136 C135 1.386 . S
C136 C137 1.382 . S
C136 H158 0.950 . S
C137 N133 1.332 . S
C137 C136 1.382 . S
C137 H139 0.952 . S
C138 N133 1.332 . S
C138 C134 1.382 . S
C138 H140 0.948 1_556 S
H139 C137 0.952 . S
H140 C138 0.948 1_554 S
H141 C130 0.952 . S
H142 C132 0.948 . S
C143 C109 1.395 . S
C143 C113 1.391 . S
C144 C106 1.389 . S
C144 C126 1.392 . S
C145 C116 1.392 . S
C145 C118 1.389 . S
C146 C121 1.395 . S
C146 C123 1.391 . S
H147 C107 0.951 . S
H148 C108 0.950 . S
H149 C114 0.949 . S
H150 C115 0.950 . S
H151 C119 0.951 . S
H152 C120 0.950 . S
H153 C124 0.949 . S
H154 C125 0.950 1_556 S
H155 C129 0.950 . S
H156 C131 0.950 . S
H157 C134 0.950 . S
H158 C136 0.950 . S
C159 C160 1.443 . S
C159 N163 1.376 . S
C159 C197 1.389 . S
C160 C159 1.443 . S
C160 C161 1.340 . S
C160 H200 0.951 . S
C161 C160 1.340 . S
C161 C162 1.439 . S
C161 H201 0.950 . S
C162 C161 1.439 . S
C162 N163 1.374 . S
C162 C196 1.395 . S
N163 C159 1.376 . S
N163 C162 1.374 . S
N163 Co164 2.008 1_655 S
Co164 N163 2.008 1_455 S
Co164 N165 1.995 1_455 S
Co164 N170 2.008 . S
Co164 N175 1.995 . S
Co164 N180 2.282 . S
Co164 N186 2.282 1_455 S
N165 Co164 1.995 1_655 S
N165 C166 1.376 . S
N165 C169 1.383 1_655 S
C166 N165 1.376 . S
C166 C167 1.446 . S
C166 C196 1.391 . S
C167 C166 1.446 . S
C167 C168 1.339 1_655 S
C167 H202 0.949 . S
C168 C167 1.339 1_455 S
C168 C169 1.439 . S
C168 H203 0.950 . S
C169 N165 1.383 1_455 S
C169 C168 1.439 . S
C169 C198 1.392 . S
N170 Co164 2.008 . S
N170 C171 1.376 . S
N170 C174 1.374 . S
C171 N170 1.376 . S
C171 C172 1.443 . S
C171 C198 1.389 . S
C172 C171 1.443 . S
C172 C173 1.340 . S
C172 H204 0.951 . S
C173 C172 1.340 . S
C173 C174 1.439 . S
C173 H205 0.950 . S
C174 N170 1.374 . S
C174 C173 1.439 . S
C174 C199 1.395 . S
N175 Co164 1.995 . S
N175 C176 1.376 . S
N175 C179 1.383 1_455 S
C176 N175 1.376 . S
C176 C177 1.446 . S
C176 C199 1.391 . S
C177 C176 1.446 . S
C177 C178 1.339 1_455 S
C177 H206 0.949 . S
C178 C177 1.339 1_655 S
C178 C179 1.439 . S
C178 H207 0.950 . S
C179 N175 1.383 1_655 S
C179 C178 1.439 . S
C179 C197 1.392 . S
N180 Co164 2.282 . S
N180 C183 1.332 . S
N180 C185 1.332 . S
C181 C182 1.386 . S
C181 C184 1.388 . S
C182 C181 1.386 . S
C182 C183 1.382 . S
C182 H208 0.950 . S
C183 N180 1.332 . S
C183 C182 1.382 . S
C183 H194 0.952 . S
C184 C181 1.388 . S
C184 C185 1.382 . S
C184 H209 0.950 . S
C185 N180 1.332 . S
C185 C184 1.382 . S
C185 H195 0.948 . S
N186 Co164 2.282 1_655 S
N186 C190 1.332 . S
N186 C191 1.332 . S
C187 C188 1.388 . S
C187 C191 1.382 . S
C187 H210 0.950 . S
C188 C187 1.388 . S
C188 C189 1.386 . S
C189 C188 1.386 . S
C189 C190 1.382 . S
C189 H211 0.950 . S
C190 N186 1.332 . S
C190 C189 1.382 . S
C190 H192 0.952 . S
C191 N186 1.332 . S
C191 C187 1.382 . S
C191 H193 0.948 1_655 S
H192 C190 0.952 . S
H193 C191 0.948 1_455 S
H194 C183 0.952 . S
H195 C185 0.948 . S
C196 C162 1.395 . S
C196 C166 1.391 . S
C197 C159 1.389 . S
C197 C179 1.392 . S
C198 C169 1.392 . S
C198 C171 1.389 . S
C199 C174 1.395 . S
C199 C176 1.391 . S
H200 C160 0.951 . S
H201 C161 0.950 . S
H202 C167 0.949 . S
H203 C168 0.950 . S
H204 C172 0.951 . S
H205 C173 0.950 . S
H206 C177 0.949 . S
H207 C178 0.950 . S
H208 C182 0.950 . S
H209 C184 0.950 . S
H210 C187 0.950 . S
H211 C189 0.950 . S
C212 C213 1.443 . S
C212 N216 1.376 1_565 S
C212 C250 1.389 . S
C213 C212 1.443 . S
C213 C214 1.340 1_565 S
C213 H253 0.951 . S
C214 C213 1.340 1_545 S
C214 C215 1.439 . S
C214 H254 0.950 . S
C215 C214 1.439 . S
C215 N216 1.374 . S
C215 C249 1.395 . S
N216 C212 1.376 1_545 S
N216 C215 1.374 . S
N216 Co217 2.008 . S
Co217 N216 2.008 . S
Co217 N218 1.995 . S
Co217 N223 2.008 1_544 S
Co217 N228 1.995 1_545 S
Co217 N233 2.282 1_554 S
Co217 N239 2.282 1_545 S
N218 Co217 1.995 . S
N218 C219 1.376 . S
N218 C222 1.383 1_554 S
C219 N218 1.376 . S
C219 C220 1.446 . S
C219 C249 1.391 . S
C220 C219 1.446 . S
C220 C221 1.339 1_554 S
C220 H255 0.949 . S
C221 C220 1.339 1_556 S
C221 C222 1.439 . S
C221 H256 0.950 . S
C222 N218 1.383 1_556 S
C222 C221 1.439 . S
C222 C251 1.392 . S
N223 Co217 2.008 1_566 S
N223 C224 1.376 1_565 S
N223 C227 1.374 . S
C224 N223 1.376 1_545 S
C224 C225 1.443 . S
C224 C251 1.389 . S
C225 C224 1.443 . S
C225 C226 1.340 1_545 S
C225 H257 0.951 . S
C226 C225 1.340 1_565 S
C226 C227 1.439 . S
C226 H258 0.950 . S
C227 N223 1.374 . S
C227 C226 1.439 . S
C227 C252 1.395 . S
N228 Co217 1.995 1_565 S
N228 C229 1.376 1_554 S
N228 C232 1.383 . S
C229 N228 1.376 1_556 S
C229 C230 1.446 . S
C229 C252 1.391 . S
C230 C229 1.446 . S
C230 C231 1.339 1_556 S
C230 H259 0.949 . S
C231 C230 1.339 1_554 S
C231 C232 1.439 . S
C231 H260 0.950 . S
C232 N228 1.383 . S
C232 C231 1.439 . S
C232 C250 1.392 . S
N233 Co217 2.282 1_556 S
N233 C236 1.332 . S
N233 C238 1.332 . S
C234 C235 1.386 . S
C234 C237 1.388 . S
C235 C234 1.386 . S
C235 C236 1.382 . S
C235 H261 0.950 . S
C236 N233 1.332 . S
C236 C235 1.382 . S
C236 H247 0.952 1_545 S
C237 C234 1.388 . S
C237 C238 1.382 . S
C237 H262 0.950 . S
C238 N233 1.332 . S
C238 C237 1.382 . S
C238 H248 0.948 . S
N239 Co217 2.282 1_565 S
N239 C243 1.332 . S
N239 C244 1.332 . S
C240 C241 1.388 . S
C240 C244 1.382 . S
C240 H263 0.950 . S
C241 C240 1.388 . S
C241 C242 1.386 . S
C242 C241 1.386 . S
C242 C243 1.382 . S
C242 H264 0.950 . S
C243 N239 1.332 . S
C243 C242 1.382 . S
C243 H245 0.952 1_565 S
C244 N239 1.332 . S
C244 C240 1.382 . S
C244 H246 0.948 . S
H245 C243 0.952 1_545 S
H246 C244 0.948 . S
H247 C236 0.952 1_565 S
H248 C238 0.948 . S
C249 C215 1.395 . S
C249 C219 1.391 . S
C250 C212 1.389 . S
C250 C232 1.392 . S
C251 C222 1.392 . S
C251 C224 1.389 . S
C252 C227 1.395 . S
C252 C229 1.391 . S
H253 C213 0.951 . S
H254 C214 0.950 . S
H255 C220 0.949 . S
H256 C221 0.950 . S
H257 C225 0.951 . S
H258 C226 0.950 . S
H259 C230 0.949 . S
H260 C231 0.950 . S
H261 C235 0.950 . S
H262 C237 0.950 . S
H263 C240 0.950 . S
H264 C242 0.950 . S
C265 C266 1.443 . S
C265 N269 1.376 . S
C265 C303 1.389 . S
C266 C265 1.443 . S
C266 C267 1.340 . S
C266 H306 0.951 . S
C267 C266 1.340 . S
C267 C268 1.439 . S
C267 H307 0.950 . S
C268 C267 1.439 . S
C268 N269 1.374 . S
C268 C302 1.395 . S
N269 C265 1.376 . S
N269 C268 1.374 . S
N269 Co270 2.008 . S
Co270 N269 2.008 . S
Co270 N271 1.995 . S
Co270 N276 2.008 . S
Co270 N281 1.995 . S
Co270 N286 2.282 . S
Co270 N292 2.282 . S
N271 Co270 1.995 . S
N271 C272 1.376 . S
N271 C275 1.383 . S
C272 N271 1.376 . S
C272 C273 1.446 . S
C272 C302 1.391 . S
C273 C272 1.446 . S
C273 C274 1.339 . S
C273 H308 0.949 . S
C274 C273 1.339 . S
C274 C275 1.439 . S
C274 H309 0.950 . S
C275 N271 1.383 . S
C275 C274 1.439 . S
C275 C304 1.392 . S
N276 Co270 2.008 . S
N276 C277 1.376 . S
N276 C280 1.374 . S
C277 N276 1.376 . S
C277 C278 1.443 . S
C277 C304 1.389 . S
C278 C277 1.443 . S
C278 C279 1.340 . S
C278 H310 0.951 . S
C279 C278 1.340 . S
C279 C280 1.439 . S
C279 H311 0.950 . S
C280 N276 1.374 . S
C280 C279 1.439 . S
C280 C305 1.395 . S
N281 Co270 1.995 . S
N281 C282 1.376 . S
N281 C285 1.383 . S
C282 N281 1.376 . S
C282 C283 1.446 . S
C282 C305 1.391 . S
C283 C282 1.446 . S
C283 C284 1.339 . S
C283 H312 0.949 . S
C284 C283 1.339 . S
C284 C285 1.439 . S
C284 H313 0.950 . S
C285 N281 1.383 . S
C285 C284 1.439 . S
C285 C303 1.392 . S
N286 Co270 2.282 . S
N286 C289 1.332 . S
N286 C291 1.332 . S
C287 C288 1.386 . S
C287 C290 1.388 . S
C288 C287 1.386 . S
C288 C289 1.382 . S
C288 H314 0.950 . S
C289 N286 1.332 . S
C289 C288 1.382 . S
C289 H300 0.952 . S
C290 C287 1.388 . S
C290 C291 1.382 . S
C290 H315 0.950 . S
C291 N286 1.332 . S
C291 C290 1.382 . S
C291 H301 0.948 . S
N292 Co270 2.282 . S
N292 C296 1.332 . S
N292 C297 1.332 . S
C293 C294 1.388 . S
C293 C297 1.382 . S
C293 H316 0.950 . S
C294 C293 1.388 . S
C294 C295 1.386 . S
C295 C294 1.386 . S
C295 C296 1.382 . S
C295 H317 0.950 . S
C296 N292 1.332 . S
C296 C295 1.382 . S
C296 H298 0.952 . S
C297 N292 1.332 . S
C297 C293 1.382 . S
C297 H299 0.948 . S
H298 C296 0.952 . S
H299 C297 0.948 . S
H300 C289 0.952 . S
H301 C291 0.948 . S
C302 C268 1.395 . S
C302 C272 1.391 . S
C303 C265 1.389 . S
C303 C285 1.392 . S
C304 C275 1.392 . S
C304 C277 1.389 . S
C305 C280 1.395 . S
C305 C282 1.391 . S
H306 C266 0.951 . S
H307 C267 0.950 . S
H308 C273 0.949 . S
H309 C274 0.950 . S
H310 C278 0.951 . S
H311 C279 0.950 . S
H312 C283 0.949 . S
H313 C284 0.950 . S
H314 C288 0.950 . S
H315 C290 0.950 . S
H316 C293 0.950 . S
H317 C295 0.950 . S
Cu318 N319 1.999 . S
Cu318 O324 1.974 . S
Cu318 N329 1.985 . S
Cu318 O338 1.959 . S
N319 Cu318 1.999 . S
N319 C321 1.263 . S
N319 C323 1.389 . S
N320 C321 1.358 . S
N320 C322 1.400 . S
C321 N319 1.263 . S
C321 N320 1.358 . S
C321 H327 0.930 . S
C322 N320 1.400 . S
C322 C323 1.351 . S
C322 H339 0.930 . S
C323 N319 1.389 . S
C323 C322 1.351 . S
C323 H328 0.930 . S
O324 Cu318 1.974 . S
O324 C334 1.282 . S
C325 O326 1.261 . S
C325 O338 1.251 . S
O326 C325 1.261 . S
H327 C321 0.930 . S
H328 C323 0.930 . S
N329 Cu318 1.985 . S
N329 C331 1.335 . S
N329 C332 1.390 . S
N330 C331 1.345 . S
N330 C333 1.336 . S
C331 N329 1.335 . S
C331 N330 1.345 . S
C331 H336 0.930 . S
C332 N329 1.390 . S
C332 C333 1.346 . S
C332 H337 0.930 . S
C333 N330 1.336 . S
C333 C332 1.346 . S
C333 H340 0.929 . S
C334 O324 1.282 . S
C334 O335 1.216 . S
O335 C334 1.216 . S
H336 C331 0.930 . S
H337 C332 0.930 . S
O338 Cu318 1.959 . S
O338 C325 1.251 . S
H339 C322 0.930 . S
H340 C333 0.929 . S
Cu341 N342 1.999 . S
Cu341 O347 1.974 . S
Cu341 N352 1.985 . S
Cu341 O361 1.959 . S
N342 Cu341 1.999 . S
N342 C344 1.263 . S
N342 C346 1.389 . S
N343 C344 1.358 . S
N343 C345 1.400 . S
C344 N342 1.263 . S
C344 N343 1.358 . S
C344 H350 0.930 . S
C345 N343 1.400 . S
C345 C346 1.351 . S
C345 H362 0.930 . S
C346 N342 1.389 . S
C346 C345 1.351 . S
C346 H351 0.930 . S
O347 Cu341 1.974 . S
O347 C357 1.282 . S
C348 O349 1.261 . S
C348 O361 1.251 . S
O349 C348 1.261 . S
H350 C344 0.930 . S
H351 C346 0.930 . S
N352 Cu341 1.985 . S
N352 C354 1.335 . S
N352 C355 1.390 . S
N353 C354 1.345 . S
N353 C356 1.336 . S
C354 N352 1.335 . S
C354 N353 1.345 . S
C354 H359 0.930 . S
C355 N352 1.390 . S
C355 C356 1.346 . S
C355 H360 0.930 . S
C356 N353 1.336 . S
C356 C355 1.346 . S
C356 H363 0.929 . S
C357 O347 1.282 . S
C357 O358 1.216 . S
O358 C357 1.216 . S
H359 C354 0.930 . S
H360 C355 0.930 . S
O361 Cu341 1.959 . S
O361 C348 1.251 . S
H362 C345 0.930 . S
H363 C356 0.929 . S
Cu364 N365 1.999 . S
Cu364 O370 1.974 . S
Cu364 N375 1.985 . S
Cu364 O384 1.959 . S
N365 Cu364 1.999 . S
N365 C367 1.263 . S
N365 C369 1.389 . S
N366 C367 1.358 . S
N366 C368 1.400 . S
C367 N365 1.263 . S
C367 N366 1.358 . S
C367 H373 0.930 . S
C368 N366 1.400 . S
C368 C369 1.351 . S
C368 H385 0.930 . S
C369 N365 1.389 . S
C369 C368 1.351 . S
C369 H374 0.930 . S
O370 Cu364 1.974 . S
O370 C380 1.282 . S
C371 O372 1.261 . S
C371 O384 1.251 . S
O372 C371 1.261 . S
H373 C367 0.930 . S
H374 C369 0.930 . S
N375 Cu364 1.985 . S
N375 C377 1.335 . S
N375 C378 1.390 . S
N376 C377 1.345 . S
N376 C379 1.336 . S
C377 N375 1.335 . S
C377 N376 1.345 . S
C377 H382 0.930 . S
C378 N375 1.390 . S
C378 C379 1.346 . S
C378 H383 0.930 . S
C379 N376 1.336 . S
C379 C378 1.346 . S
C379 H386 0.929 . S
C380 O370 1.282 . S
C380 O381 1.216 . S
O381 C380 1.216 . S
H382 C377 0.930 . S
H383 C378 0.930 . S
O384 Cu364 1.959 . S
O384 C371 1.251 . S
H385 C368 0.930 . S
H386 C379 0.929 . S
Cu387 N388 1.999 . S
Cu387 O393 1.974 . S
Cu387 N398 1.985 . S
Cu387 O407 1.959 . S
N388 Cu387 1.999 . S
N388 C390 1.263 . S
N388 C392 1.389 . S
N389 C390 1.358 . S
N389 C391 1.400 . S
C390 N388 1.263 . S
C390 N389 1.358 . S
C390 H396 0.930 . S
C391 N389 1.400 . S
C391 C392 1.351 . S
C391 H408 0.930 . S
C392 N388 1.389 . S
C392 C391 1.351 . S
C392 H397 0.930 . S
O393 Cu387 1.974 . S
O393 C403 1.282 . S
C394 O395 1.261 . S
C394 O407 1.251 . S
O395 C394 1.261 . S
H396 C390 0.930 . S
H397 C392 0.930 . S
N398 Cu387 1.985 . S
N398 C400 1.335 . S
N398 C401 1.390 . S
N399 C400 1.345 . S
N399 C402 1.336 . S
C400 N398 1.335 . S
C400 N399 1.345 . S
C400 H405 0.930 . S
C401 N398 1.390 . S
C401 C402 1.346 . S
C401 H406 0.930 . S
C402 N399 1.336 . S
C402 C401 1.346 . S
C402 H409 0.929 . S
C403 O393 1.282 . S
C403 O404 1.216 . S
O404 C403 1.216 . S
H405 C400 0.930 . S
H406 C401 0.930 . S
O407 Cu387 1.959 . S
O407 C394 1.251 . S
H408 C391 0.930 . S
H409 C402 0.929 . S
Cu410 N411 1.999 . S
Cu410 O416 1.974 . S
Cu410 N421 1.985 . S
Cu410 O430 1.959 . S
N411 Cu410 1.999 . S
N411 C413 1.263 . S
N411 C415 1.389 . S
N412 C413 1.358 . S
N412 C414 1.400 . S
C413 N411 1.263 . S
C413 N412 1.358 . S
C413 H419 0.930 . S
C414 N412 1.400 . S
C414 C415 1.351 . S
C414 H431 0.930 . S
C415 N411 1.389 . S
C415 C414 1.351 . S
C415 H420 0.930 . S
O416 Cu410 1.974 . S
O416 C426 1.282 . S
C417 O418 1.261 . S
C417 O430 1.251 . S
O418 C417 1.261 . S
H419 C413 0.930 . S
H420 C415 0.930 . S
N421 Cu410 1.985 . S
N421 C423 1.335 . S
N421 C424 1.390 . S
N422 C423 1.345 . S
N422 C425 1.336 . S
C423 N421 1.335 . S
C423 N422 1.345 . S
C423 H428 0.930 . S
C424 N421 1.390 . S
C424 C425 1.346 . S
C424 H429 0.930 . S
C425 N422 1.336 . S
C425 C424 1.346 . S
C425 H432 0.929 . S
C426 O416 1.282 . S
C426 O427 1.216 . S
O427 C426 1.216 . S
H428 C423 0.930 . S
H429 C424 0.930 . S
O430 Cu410 1.959 . S
O430 C417 1.251 . S
H431 C414 0.930 . S
H432 C425 0.929 . S
Cu433 N434 1.999 . S
Cu433 O439 1.974 . S
Cu433 N444 1.985 . S
Cu433 O453 1.959 . S
N434 Cu433 1.999 . S
N434 C436 1.263 . S
N434 C438 1.389 . S
N435 C436 1.358 . S
N435 C437 1.400 . S
C436 N434 1.263 . S
C436 N435 1.358 . S
C436 H442 0.930 . S
C437 N435 1.400 . S
C437 C438 1.351 . S
C437 H454 0.930 . S
C438 N434 1.389 . S
C438 C437 1.351 . S
C438 H443 0.930 . S
O439 Cu433 1.974 . S
O439 C449 1.282 . S
C440 O441 1.261 . S
C440 O453 1.251 . S
O441 C440 1.261 . S
H442 C436 0.930 . S
H443 C438 0.930 . S
N444 Cu433 1.985 . S
N444 C446 1.335 . S
N444 C447 1.390 . S
N445 C446 1.345 . S
N445 C448 1.336 . S
C446 N444 1.335 . S
C446 N445 1.345 . S
C446 H451 0.930 . S
C447 N444 1.390 . S
C447 C448 1.346 . S
C447 H452 0.930 . S
C448 N445 1.336 . S
C448 C447 1.346 . S
C448 H455 0.929 . S
C449 O439 1.282 . S
C449 O450 1.216 . S
O450 C449 1.216 . S
H451 C446 0.930 . S
H452 C447 0.930 . S
O453 Cu433 1.959 . S
O453 C440 1.251 . S
H454 C437 0.930 . S
H455 C448 0.929 . S
C456 C457 1.391 . S
C456 C458 1.394 . S
C456 H472 0.931 . S
C457 C456 1.391 . S
C457 C461 1.376 . S
C458 C456 1.394 . S
C458 C459 1.369 . S
C458 C462 1.531 . S
C459 C458 1.369 . S
C459 C460 1.410 . S
C459 C467 1.503 . S
C460 C459 1.410 . S
C460 C461 1.392 . S
C460 C463 1.511 . S
C461 C457 1.376 . S
C461 C460 1.392 . S
C461 H473 0.929 . S
C462 C458 1.531 . S
C462 H474 0.960 . S
C462 H475 0.962 . S
C462 H476 0.960 . S
C463 C460 1.511 . S
C463 H477 0.961 . S
C463 H478 0.961 . S
C463 H479 0.961 . S
C464 C465 1.370 . S
C464 C466 1.363 . S
C464 H480 0.931 . S
C465 C464 1.370 . S
C465 C469 1.408 . S
C466 C464 1.363 . S
C466 C467 1.370 . S
C466 C470 1.524 . S
C467 C459 1.503 . S
C467 C466 1.370 . S
C467 C468 1.403 . S
C468 C467 1.403 . S
C468 C469 1.404 . S
C468 C471 1.539 . S
C469 C465 1.408 . S
C469 C468 1.404 . S
C469 H481 0.930 . S
C470 C466 1.524 . S
C470 H482 0.956 . S
C470 H483 0.961 . S
C470 H484 0.961 . S
C471 C468 1.539 . S
C471 H485 0.958 . S
C471 H486 0.961 . S
C471 H487 0.960 . S
H472 C456 0.931 . S
H473 C461 0.929 . S
H474 C462 0.960 . S
H475 C462 0.962 . S
H476 C462 0.960 . S
H477 C463 0.961 . S
H478 C463 0.961 . S
H479 C463 0.961 . S
H480 C464 0.931 . S
H481 C469 0.930 . S
H482 C470 0.956 . S
H483 C470 0.961 . S
H484 C470 0.961 . S
H485 C471 0.958 . S
H486 C471 0.961 . S
H487 C471 0.960 . S
C488 C489 1.391 . S
C488 C490 1.394 . S
C488 H504 0.931 . S
C489 C488 1.391 . S
C489 C493 1.376 . S
C490 C488 1.394 . S
C490 C491 1.369 . S
C490 C494 1.531 . S
C491 C490 1.369 . S
C491 C492 1.410 . S
C491 C499 1.503 . S
C492 C491 1.410 . S
C492 C493 1.392 . S
C492 C495 1.511 . S
C493 C489 1.376 . S
C493 C492 1.392 . S
C493 H505 0.929 . S
C494 C490 1.531 . S
C494 H506 0.960 . S
C494 H507 0.962 . S
C494 H508 0.960 . S
C495 C492 1.511 . S
C495 H509 0.961 . S
C495 H510 0.961 . S
C495 H511 0.961 . S
C496 C497 1.370 . S
C496 C498 1.363 . S
C496 H512 0.931 . S
C497 C496 1.370 . S
C497 C501 1.408 . S
C498 C496 1.363 . S
C498 C499 1.370 . S
C498 C502 1.524 . S
C499 C491 1.503 . S
C499 C498 1.370 . S
C499 C500 1.403 . S
C500 C499 1.403 . S
C500 C501 1.404 . S
C500 C503 1.539 . S
C501 C497 1.408 . S
C501 C500 1.404 . S
C501 H513 0.930 . S
C502 C498 1.524 . S
C502 H514 0.956 . S
C502 H515 0.961 . S
C502 H516 0.961 . S
C503 C500 1.539 . S
C503 H517 0.958 . S
C503 H518 0.961 . S
C503 H519 0.960 . S
H504 C488 0.931 . S
H505 C493 0.929 . S
H506 C494 0.960 . S
H507 C494 0.962 . S
H508 C494 0.960 . S
H509 C495 0.961 . S
H510 C495 0.961 . S
H511 C495 0.961 . S
H512 C496 0.931 . S
H513 C501 0.930 . S
H514 C502 0.956 . S
H515 C502 0.961 . S
H516 C502 0.961 . S
H517 C503 0.958 . S
H518 C503 0.961 . S
H519 C503 0.960 . S
C520 C521 1.391 . S
C520 C522 1.394 . S
C520 H536 0.931 . S
C521 C520 1.391 . S
C521 C525 1.376 . S
C522 C520 1.394 . S
C522 C523 1.369 . S
C522 C526 1.531 . S
C523 C522 1.369 . S
C523 C524 1.410 . S
C523 C531 1.503 . S
C524 C523 1.410 . S
C524 C525 1.392 . S
C524 C527 1.511 . S
C525 C521 1.376 . S
C525 C524 1.392 . S
C525 H537 0.929 . S
C526 C522 1.531 . S
C526 H538 0.960 . S
C526 H539 0.962 . S
C526 H540 0.960 . S
C527 C524 1.511 . S
C527 H541 0.961 . S
C527 H542 0.961 . S
C527 H543 0.961 . S
C528 C529 1.370 . S
C528 C530 1.363 . S
C528 H544 0.931 . S
C529 C528 1.370 . S
C529 C533 1.408 . S
C530 C528 1.363 . S
C530 C531 1.370 . S
C530 C534 1.524 . S
C531 C523 1.503 . S
C531 C530 1.370 . S
C531 C532 1.403 . S
C532 C531 1.403 . S
C532 C533 1.404 . S
C532 C535 1.539 . S
C533 C529 1.408 . S
C533 C532 1.404 . S
C533 H545 0.930 . S
C534 C530 1.524 . S
C534 H546 0.956 . S
C534 H547 0.961 . S
C534 H548 0.961 . S
C535 C532 1.539 . S
C535 H549 0.958 . S
C535 H550 0.961 . S
C535 H551 0.960 . S
H536 C520 0.931 . S
H537 C525 0.929 . S
H538 C526 0.960 . S
H539 C526 0.962 . S
H540 C526 0.960 . S
H541 C527 0.961 . S
H542 C527 0.961 . S
H543 C527 0.961 . S
H544 C528 0.931 . S
H545 C533 0.930 . S
H546 C534 0.956 . S
H547 C534 0.961 . S
H548 C534 0.961 . S
H549 C535 0.958 . S
H550 C535 0.961 . S
H551 C535 0.960 . S
C552 C553 1.391 . S
C552 C554 1.394 . S
C552 H568 0.931 . S
C553 C552 1.391 . S
C553 C557 1.376 . S
C554 C552 1.394 . S
C554 C555 1.369 . S
C554 C558 1.531 . S
C555 C554 1.369 . S
C555 C556 1.410 . S
C555 C563 1.503 . S
C556 C555 1.410 . S
C556 C557 1.392 . S
C556 C559 1.511 . S
C557 C553 1.376 . S
C557 C556 1.392 . S
C557 H569 0.929 . S
C558 C554 1.531 . S
C558 H570 0.960 . S
C558 H571 0.962 . S
C558 H572 0.960 . S
C559 C556 1.511 . S
C559 H573 0.961 . S
C559 H574 0.961 . S
C559 H575 0.961 . S
C560 C561 1.370 . S
C560 C562 1.363 . S
C560 H576 0.931 . S
C561 C560 1.370 . S
C561 C565 1.408 . S
C562 C560 1.363 . S
C562 C563 1.370 . S
C562 C566 1.524 . S
C563 C555 1.503 . S
C563 C562 1.370 . S
C563 C564 1.403 . S
C564 C563 1.403 . S
C564 C565 1.404 . S
C564 C567 1.539 . S
C565 C561 1.408 . S
C565 C564 1.404 . S
C565 H577 0.930 . S
C566 C562 1.524 . S
C566 H578 0.956 . S
C566 H579 0.961 . S
C566 H580 0.961 . S
C567 C564 1.539 . S
C567 H581 0.958 . S
C567 H582 0.961 . S
C567 H583 0.960 . S
H568 C552 0.931 . S
H569 C557 0.929 . S
H570 C558 0.960 . S
H571 C558 0.962 . S
H572 C558 0.960 . S
H573 C559 0.961 . S
H574 C559 0.961 . S
H575 C559 0.961 . S
H576 C560 0.931 . S
H577 C565 0.930 . S
H578 C566 0.956 . S
H579 C566 0.961 . S
H580 C566 0.961 . S
H581 C567 0.958 . S
H582 C567 0.961 . S
H583 C567 0.960 . S
C584 C585 1.391 . S
C584 C586 1.394 . S
C584 H600 0.931 . S
C585 C584 1.391 . S
C585 C589 1.376 . S
C586 C584 1.394 . S
C586 C587 1.369 . S
C586 C590 1.531 . S
C587 C586 1.369 . S
C587 C588 1.410 . S
C587 C595 1.503 . S
C588 C587 1.410 . S
C588 C589 1.392 . S
C588 C591 1.511 . S
C589 C585 1.376 . S
C589 C588 1.392 . S
C589 H601 0.929 . S
C590 C586 1.531 . S
C590 H602 0.960 . S
C590 H603 0.962 . S
C590 H604 0.960 . S
C591 C588 1.511 . S
C591 H605 0.961 . S
C591 H606 0.961 . S
C591 H607 0.961 . S
C592 C593 1.370 . S
C592 C594 1.363 . S
C592 H608 0.931 . S
C593 C592 1.370 . S
C593 C597 1.408 . S
C594 C592 1.363 . S
C594 C595 1.370 . S
C594 C598 1.524 . S
C595 C587 1.503 . S
C595 C594 1.370 . S
C595 C596 1.403 . S
C596 C595 1.403 . S
C596 C597 1.404 . S
C596 C599 1.539 . S
C597 C593 1.408 . S
C597 C596 1.404 . S
C597 H609 0.930 . S
C598 C594 1.524 . S
C598 H610 0.956 . S
C598 H611 0.961 . S
C598 H612 0.961 . S
C599 C596 1.539 . S
C599 H613 0.958 . S
C599 H614 0.961 . S
C599 H615 0.960 . S
H600 C584 0.931 . S
H601 C589 0.929 . S
H602 C590 0.960 . S
H603 C590 0.962 . S
H604 C590 0.960 . S
H605 C591 0.961 . S
H606 C591 0.961 . S
H607 C591 0.961 . S
H608 C592 0.931 . S
H609 C597 0.930 . S
H610 C598 0.956 . S
H611 C598 0.961 . S
H612 C598 0.961 . S
H613 C599 0.958 . S
H614 C599 0.961 . S
H615 C599 0.960 . S
C616 C617 1.391 . S
C616 C618 1.394 . S
C616 H632 0.931 . S
C617 C616 1.391 . S
C617 C621 1.376 . S
C618 C616 1.394 . S
C618 C619 1.369 . S
C618 C622 1.531 . S
C619 C618 1.369 . S
C619 C620 1.410 . S
C619 C627 1.503 . S
C620 C619 1.410 . S
C620 C621 1.392 . S
C620 C623 1.511 . S
C621 C617 1.376 . S
C621 C620 1.392 . S
C621 H633 0.929 . S
C622 C618 1.531 . S
C622 H634 0.960 . S
C622 H635 0.962 . S
C622 H636 0.960 . S
C623 C620 1.511 . S
C623 H637 0.961 . S
C623 H638 0.961 . S
C623 H639 0.961 . S
C624 C625 1.370 . S
C624 C626 1.363 . S
C624 H640 0.931 . S
C625 C624 1.370 . S
C625 C629 1.408 . S
C626 C624 1.363 . S
C626 C627 1.370 . S
C626 C630 1.524 . S
C627 C619 1.503 . S
C627 C626 1.370 . S
C627 C628 1.403 . S
C628 C627 1.403 . S
C628 C629 1.404 . S
C628 C631 1.539 . S
C629 C625 1.408 . S
C629 C628 1.404 . S
C629 H641 0.930 . S
C630 C626 1.524 . S
C630 H642 0.956 . S
C630 H643 0.961 . S
C630 H644 0.961 . S
C631 C628 1.539 . S
C631 H645 0.958 . S
C631 H646 0.961 . S
C631 H647 0.960 . S
H632 C616 0.931 . S
H633 C621 0.929 . S
H634 C622 0.960 . S
H635 C622 0.962 . S
H636 C622 0.960 . S
H637 C623 0.961 . S
H638 C623 0.961 . S
H639 C623 0.961 . S
H640 C624 0.931 . S
H641 C629 0.930 . S
H642 C630 0.956 . S
H643 C630 0.961 . S
H644 C630 0.961 . S
H645 C631 0.958 . S
H646 C631 0.961 . S
H647 C631 0.960 . S
C648 C649 1.391 . S
C648 C650 1.394 . S
C648 H664 0.931 . S
C649 C648 1.391 . S
C649 C653 1.376 . S
C650 C648 1.394 . S
C650 C651 1.369 . S
C650 C654 1.531 . S
C651 C650 1.369 . S
C651 C652 1.410 . S
C651 C659 1.503 . S
C652 C651 1.410 . S
C652 C653 1.392 . S
C652 C655 1.511 . S
C653 C649 1.376 . S
C653 C652 1.392 . S
C653 H665 0.929 . S
C654 C650 1.531 . S
C654 H666 0.960 . S
C654 H667 0.962 . S
C654 H668 0.960 . S
C655 C652 1.511 . S
C655 H669 0.961 . S
C655 H670 0.961 . S
C655 H671 0.961 . S
C656 C657 1.370 . S
C656 C658 1.363 . S
C656 H672 0.931 . S
C657 C656 1.370 . S
C657 C661 1.408 . S
C658 C656 1.363 . S
C658 C659 1.370 . S
C658 C662 1.524 . S
C659 C651 1.503 . S
C659 C658 1.370 . S
C659 C660 1.403 . S
C660 C659 1.403 . S
C660 C661 1.404 . S
C660 C663 1.539 . S
C661 C657 1.408 . S
C661 C660 1.404 . S
C661 H673 0.930 . S
C662 C658 1.524 . S
C662 H674 0.956 . S
C662 H675 0.961 . S
C662 H676 0.961 . S
C663 C660 1.539 . S
C663 H677 0.958 . S
C663 H678 0.961 . S
C663 H679 0.960 . S
H664 C648 0.931 . S
H665 C653 0.929 . S
H666 C654 0.960 . S
H667 C654 0.962 . S
H668 C654 0.960 . S
H669 C655 0.961 . S
H670 C655 0.961 . S
H671 C655 0.961 . S
H672 C656 0.931 . S
H673 C661 0.930 . S
H674 C662 0.956 . S
H675 C662 0.961 . S
H676 C662 0.961 . S
H677 C663 0.958 . S
H678 C663 0.961 . S
H679 C663 0.960 . S
C680 C681 1.391 . S
C680 C682 1.394 . S
C680 H696 0.931 . S
C681 C680 1.391 . S
C681 C685 1.376 . S
C682 C680 1.394 . S
C682 C683 1.369 . S
C682 C686 1.531 . S
C683 C682 1.369 . S
C683 C684 1.410 . S
C683 C691 1.503 . S
C684 C683 1.410 . S
C684 C685 1.392 . S
C684 C687 1.511 . S
C685 C681 1.376 . S
C685 C684 1.392 . S
C685 H697 0.929 . S
C686 C682 1.531 . S
C686 H698 0.960 . S
C686 H699 0.962 . S
C686 H700 0.960 . S
C687 C684 1.511 . S
C687 H701 0.961 . S
C687 H702 0.961 . S
C687 H703 0.961 . S
C688 C689 1.370 . S
C688 C690 1.363 . S
C688 H704 0.931 . S
C689 C688 1.370 . S
C689 C693 1.408 . S
C690 C688 1.363 . S
C690 C691 1.370 . S
C690 C694 1.524 . S
C691 C683 1.503 . S
C691 C690 1.370 . S
C691 C692 1.403 . S
C692 C691 1.403 . S
C692 C693 1.404 . S
C692 C695 1.539 . S
C693 C689 1.408 . S
C693 C692 1.404 . S
C693 H705 0.930 . S
C694 C690 1.524 . S
C694 H706 0.956 . S
C694 H707 0.961 . S
C694 H708 0.961 . S
C695 C692 1.539 . S
C695 H709 0.958 . S
C695 H710 0.961 . S
C695 H711 0.960 . S
H696 C680 0.931 . S
H697 C685 0.929 . S
H698 C686 0.960 . S
H699 C686 0.962 . S
H700 C686 0.960 . S
H701 C687 0.961 . S
H702 C687 0.961 . S
H703 C687 0.961 . S
H704 C688 0.931 . S
H705 C693 0.930 . S
H706 C694 0.956 . S
H707 C694 0.961 . S
H708 C694 0.961 . S
H709 C695 0.958 . S
H710 C695 0.961 . S
H711 C695 0.960 . S
C712 C713 1.391 . S
C712 C714 1.394 . S
C712 H728 0.931 . S
C713 C712 1.391 . S
C713 C717 1.376 . S
C714 C712 1.394 . S
C714 C715 1.369 . S
C714 C718 1.531 . S
C715 C714 1.369 . S
C715 C716 1.410 . S
C715 C723 1.503 . S
C716 C715 1.410 . S
C716 C717 1.392 . S
C716 C719 1.511 . S
C717 C713 1.376 . S
C717 C716 1.392 . S
C717 H729 0.929 . S
C718 C714 1.531 . S
C718 H730 0.960 . S
C718 H731 0.962 . S
C718 H732 0.960 . S
C719 C716 1.511 . S
C719 H733 0.961 . S
C719 H734 0.961 . S
C719 H735 0.961 . S
C720 C721 1.370 . S
C720 C722 1.363 . S
C720 H736 0.931 . S
C721 C720 1.370 . S
C721 C725 1.408 . S
C722 C720 1.363 . S
C722 C723 1.370 . S
C722 C726 1.524 . S
C723 C715 1.503 . S
C723 C722 1.370 . S
C723 C724 1.403 . S
C724 C723 1.403 . S
C724 C725 1.404 . S
C724 C727 1.539 . S
C725 C721 1.408 . S
C725 C724 1.404 . S
C725 H737 0.930 . S
C726 C722 1.524 . S
C726 H738 0.956 . S
C726 H739 0.961 . S
C726 H740 0.961 . S
C727 C724 1.539 . S
C727 H741 0.958 . S
C727 H742 0.961 . S
C727 H743 0.960 . S
H728 C712 0.931 . S
H729 C717 0.929 . S
H730 C718 0.960 . S
H731 C718 0.962 . S
H732 C718 0.960 . S
H733 C719 0.961 . S
H734 C719 0.961 . S
H735 C719 0.961 . S
H736 C720 0.931 . S
H737 C725 0.930 . S
H738 C726 0.956 . S
H739 C726 0.961 . S
H740 C726 0.961 . S
H741 C727 0.958 . S
H742 C727 0.961 . S
H743 C727 0.960 . S
C744 C745 1.391 . S
C744 C746 1.394 . S
C744 H760 0.931 . S
C745 C744 1.391 . S
C745 C749 1.376 . S
C746 C744 1.394 . S
C746 C747 1.369 . S
C746 C750 1.531 . S
C747 C746 1.369 . S
C747 C748 1.410 . S
C747 C755 1.503 . S
C748 C747 1.410 . S
C748 C749 1.392 . S
C748 C751 1.511 . S
C749 C745 1.376 . S
C749 C748 1.392 . S
C749 H761 0.929 . S
C750 C746 1.531 . S
C750 H762 0.960 . S
C750 H763 0.962 . S
C750 H764 0.960 . S
C751 C748 1.511 . S
C751 H765 0.961 . S
C751 H766 0.961 . S
C751 H767 0.961 . S
C752 C753 1.370 . S
C752 C754 1.363 . S
C752 H768 0.931 . S
C753 C752 1.370 . S
C753 C757 1.408 . S
C754 C752 1.363 . S
C754 C755 1.370 . S
C754 C758 1.524 . S
C755 C747 1.503 . S
C755 C754 1.370 . S
C755 C756 1.403 . S
C756 C755 1.403 . S
C756 C757 1.404 . S
C756 C759 1.539 . S
C757 C753 1.408 . S
C757 C756 1.404 . S
C757 H769 0.930 . S
C758 C754 1.524 . S
C758 H770 0.956 . S
C758 H771 0.961 . S
C758 H772 0.961 . S
C759 C756 1.539 . S
C759 H773 0.958 . S
C759 H774 0.961 . S
C759 H775 0.960 . S
H760 C744 0.931 . S
H761 C749 0.929 . S
H762 C750 0.960 . S
H763 C750 0.962 . S
H764 C750 0.960 . S
H765 C751 0.961 . S
H766 C751 0.961 . S
H767 C751 0.961 . S
H768 C752 0.931 . S
H769 C757 0.930 . S
H770 C758 0.956 . S
H771 C758 0.961 . S
H772 C758 0.961 . S
H773 C759 0.958 . S
H774 C759 0.961 . S
H775 C759 0.960 . S
C776 C777 1.391 . S
C776 C778 1.394 . S
C776 H792 0.931 . S
C777 C776 1.391 . S
C777 C781 1.376 . S
C778 C776 1.394 . S
C778 C779 1.369 . S
C778 C782 1.531 . S
C779 C778 1.369 . S
C779 C780 1.410 . S
C779 C787 1.503 . S
C780 C779 1.410 . S
C780 C781 1.392 . S
C780 C783 1.511 . S
C781 C777 1.376 . S
C781 C780 1.392 . S
C781 H793 0.929 . S
C782 C778 1.531 . S
C782 H794 0.960 . S
C782 H795 0.962 . S
C782 H796 0.960 . S
C783 C780 1.511 . S
C783 H797 0.961 . S
C783 H798 0.961 . S
C783 H799 0.961 . S
C784 C785 1.370 . S
C784 C786 1.363 . S
C784 H800 0.931 . S
C785 C784 1.370 . S
C785 C789 1.408 . S
C786 C784 1.363 . S
C786 C787 1.370 . S
C786 C790 1.524 . S
C787 C779 1.503 . S
C787 C786 1.370 . S
C787 C788 1.403 . S
C788 C787 1.403 . S
C788 C789 1.404 . S
C788 C791 1.539 . S
C789 C785 1.408 . S
C789 C788 1.404 . S
C789 H801 0.930 . S
C790 C786 1.524 . S
C790 H802 0.956 . S
C790 H803 0.961 . S
C790 H804 0.961 . S
C791 C788 1.539 . S
C791 H805 0.958 . S
C791 H806 0.961 . S
C791 H807 0.960 . S
H792 C776 0.931 . S
H793 C781 0.929 . S
H794 C782 0.960 . S
H795 C782 0.962 . S
H796 C782 0.960 . S
H797 C783 0.961 . S
H798 C783 0.961 . S
H799 C783 0.961 . S
H800 C784 0.931 . S
H801 C789 0.930 . S
H802 C790 0.956 . S
H803 C790 0.961 . S
H804 C790 0.961 . S
H805 C791 0.958 . S
H806 C791 0.961 . S
H807 C791 0.960 . S
C808 C809 1.391 . S
C808 C810 1.394 . S
C808 H824 0.931 . S
C809 C808 1.391 . S
C809 C813 1.376 . S
C810 C808 1.394 . S
C810 C811 1.369 . S
C810 C814 1.531 . S
C811 C810 1.369 . S
C811 C812 1.410 . S
C811 C819 1.503 . S
C812 C811 1.410 . S
C812 C813 1.392 . S
C812 C815 1.511 . S
C813 C809 1.376 . S
C813 C812 1.392 . S
C813 H825 0.929 . S
C814 C810 1.531 . S
C814 H826 0.960 . S
C814 H827 0.962 . S
C814 H828 0.960 . S
C815 C812 1.511 . S
C815 H829 0.961 . S
C815 H830 0.961 . S
C815 H831 0.961 . S
C816 C817 1.370 . S
C816 C818 1.363 . S
C816 H832 0.931 . S
C817 C816 1.370 . S
C817 C821 1.408 . S
C818 C816 1.363 . S
C818 C819 1.370 . S
C818 C822 1.524 . S
C819 C811 1.503 . S
C819 C818 1.370 . S
C819 C820 1.403 . S
C820 C819 1.403 . S
C820 C821 1.404 . S
C820 C823 1.539 . S
C821 C817 1.408 . S
C821 C820 1.404 . S
C821 H833 0.930 . S
C822 C818 1.524 . S
C822 H834 0.956 . S
C822 H835 0.961 . S
C822 H836 0.961 . S
C823 C820 1.539 . S
C823 H837 0.958 . S
C823 H838 0.961 . S
C823 H839 0.960 . S
H824 C808 0.931 . S
H825 C813 0.929 . S
H826 C814 0.960 . S
H827 C814 0.962 . S
H828 C814 0.960 . S
H829 C815 0.961 . S
H830 C815 0.961 . S
H831 C815 0.961 . S
H832 C816 0.931 . S
H833 C821 0.930 . S
H834 C822 0.956 . S
H835 C822 0.961 . S
H836 C822 0.961 . S
H837 C823 0.958 . S
H838 C823 0.961 . S
H839 C823 0.960 . S
C840 C841 1.391 . S
C840 C842 1.394 . S
C840 H856 0.931 . S
C841 C840 1.391 . S
C841 C845 1.376 . S
C842 C840 1.394 . S
C842 C843 1.369 . S
C842 C846 1.531 . S
C843 C842 1.369 . S
C843 C844 1.410 . S
C843 C851 1.503 . S
C844 C843 1.410 . S
C844 C845 1.392 . S
C844 C847 1.511 . S
C845 C841 1.376 . S
C845 C844 1.392 . S
C845 H857 0.929 . S
C846 C842 1.531 . S
C846 H858 0.960 . S
C846 H859 0.962 . S
C846 H860 0.960 . S
C847 C844 1.511 . S
C847 H861 0.961 . S
C847 H862 0.961 . S
C847 H863 0.961 . S
C848 C849 1.370 . S
C848 C850 1.363 . S
C848 H864 0.931 . S
C849 C848 1.370 . S
C849 C853 1.408 . S
C850 C848 1.363 . S
C850 C851 1.370 . S
C850 C854 1.524 . S
C851 C843 1.503 . S
C851 C850 1.370 . S
C851 C852 1.403 . S
C852 C851 1.403 . S
C852 C853 1.404 . S
C852 C855 1.539 . S
C853 C849 1.408 . S
C853 C852 1.404 . S
C853 H865 0.930 . S
C854 C850 1.524 . S
C854 H866 0.956 . S
C854 H867 0.961 . S
C854 H868 0.961 . S
C855 C852 1.539 . S
C855 H869 0.958 . S
C855 H870 0.961 . S
C855 H871 0.960 . S
H856 C840 0.931 . S
H857 C845 0.929 . S
H858 C846 0.960 . S
H859 C846 0.962 . S
H860 C846 0.960 . S
H861 C847 0.961 . S
H862 C847 0.961 . S
H863 C847 0.961 . S
H864 C848 0.931 . S
H865 C853 0.930 . S
H866 C854 0.956 . S
H867 C854 0.961 . S
H868 C854 0.961 . S
H869 C855 0.958 . S
H870 C855 0.961 . S
H871 C855 0.960 . S
C872 C873 1.391 . S
C872 C874 1.394 . S
C872 H888 0.931 . S
C873 C872 1.391 . S
C873 C877 1.376 . S
C874 C872 1.394 . S
C874 C875 1.369 . S
C874 C878 1.531 . S
C875 C874 1.369 . S
C875 C876 1.410 . S
C875 C883 1.503 . S
C876 C875 1.410 . S
C876 C877 1.392 . S
C876 C879 1.511 . S
C877 C873 1.376 . S
C877 C876 1.392 . S
C877 H889 0.929 . S
C878 C874 1.531 . S
C878 H890 0.960 . S
C878 H891 0.962 . S
C878 H892 0.960 . S
C879 C876 1.511 . S
C879 H893 0.961 . S
C879 H894 0.961 . S
C879 H895 0.961 . S
C880 C881 1.370 . S
C880 C882 1.363 . S
C880 H896 0.931 . S
C881 C880 1.370 . S
C881 C885 1.408 . S
C882 C880 1.363 . S
C882 C883 1.370 . S
C882 C886 1.524 . S
C883 C875 1.503 . S
C883 C882 1.370 . S
C883 C884 1.403 . S
C884 C883 1.403 . S
C884 C885 1.404 . S
C884 C887 1.539 . S
C885 C881 1.408 . S
C885 C884 1.404 . S
C885 H897 0.930 . S
C886 C882 1.524 . S
C886 H898 0.956 . S
C886 H899 0.961 . S
C886 H900 0.961 . S
C887 C884 1.539 . S
C887 H901 0.958 . S
C887 H902 0.961 . S
C887 H903 0.960 . S
H888 C872 0.931 . S
H889 C877 0.929 . S
H890 C878 0.960 . S
H891 C878 0.962 . S
H892 C878 0.960 . S
H893 C879 0.961 . S
H894 C879 0.961 . S
H895 C879 0.961 . S
H896 C880 0.931 . S
H897 C885 0.930 . S
H898 C886 0.956 . S
H899 C886 0.961 . S
H900 C886 0.961 . S
H901 C887 0.958 . S
H902 C887 0.961 . S
H903 C887 0.960 . S
C904 C905 1.391 . S
C904 C906 1.394 . S
C904 H920 0.931 . S
C905 C904 1.391 . S
C905 C909 1.376 . S
C906 C904 1.394 . S
C906 C907 1.369 . S
C906 C910 1.531 . S
C907 C906 1.369 . S
C907 C908 1.410 . S
C907 C915 1.503 . S
C908 C907 1.410 . S
C908 C909 1.392 . S
C908 C911 1.511 . S
C909 C905 1.376 . S
C909 C908 1.392 . S
C909 H921 0.929 . S
C910 C906 1.531 . S
C910 H922 0.960 . S
C910 H923 0.962 . S
C910 H924 0.960 . S
C911 C908 1.511 . S
C911 H925 0.961 . S
C911 H926 0.961 . S
C911 H927 0.961 . S
C912 C913 1.370 . S
C912 C914 1.363 . S
C912 H928 0.931 . S
C913 C912 1.370 . S
C913 C917 1.408 . S
C914 C912 1.363 . S
C914 C915 1.370 . S
C914 C918 1.524 . S
C915 C907 1.503 . S
C915 C914 1.370 . S
C915 C916 1.403 . S
C916 C915 1.403 . S
C916 C917 1.404 . S
C916 C919 1.539 . S
C917 C913 1.408 . S
C917 C916 1.404 . S
C917 H929 0.930 . S
C918 C914 1.524 . S
C918 H930 0.956 . S
C918 H931 0.961 . S
C918 H932 0.961 . S
C919 C916 1.539 . S
C919 H933 0.958 . S
C919 H934 0.961 . S
C919 H935 0.960 . S
H920 C904 0.931 . S
H921 C909 0.929 . S
H922 C910 0.960 . S
H923 C910 0.962 . S
H924 C910 0.960 . S
H925 C911 0.961 . S
H926 C911 0.961 . S
H927 C911 0.961 . S
H928 C912 0.931 . S
H929 C917 0.930 . S
H930 C918 0.956 . S
H931 C918 0.961 . S
H932 C918 0.961 . S
H933 C919 0.958 . S
H934 C919 0.961 . S
H935 C919 0.960 . S
C936 C937 1.391 . S
C936 C938 1.394 . S
C936 H952 0.931 . S
C937 C936 1.391 . S
C937 C941 1.376 . S
C938 C936 1.394 . S
C938 C939 1.369 . S
C938 C942 1.531 . S
C939 C938 1.369 . S
C939 C940 1.410 . S
C939 C947 1.503 . S
C940 C939 1.410 . S
C940 C941 1.392 . S
C940 C943 1.511 . S
C941 C937 1.376 . S
C941 C940 1.392 . S
C941 H953 0.929 . S
C942 C938 1.531 . S
C942 H954 0.960 . S
C942 H955 0.962 . S
C942 H956 0.960 . S
C943 C940 1.511 . S
C943 H957 0.961 . S
C943 H958 0.961 . S
C943 H959 0.961 . S
C944 C945 1.370 . S
C944 C946 1.363 . S
C944 H960 0.931 . S
C945 C944 1.370 . S
C945 C949 1.408 . S
C946 C944 1.363 . S
C946 C947 1.370 . S
C946 C950 1.524 . S
C947 C939 1.503 . S
C947 C946 1.370 . S
C947 C948 1.403 . S
C948 C947 1.403 . S
C948 C949 1.404 . S
C948 C951 1.539 . S
C949 C945 1.408 . S
C949 C948 1.404 . S
C949 H961 0.930 . S
C950 C946 1.524 . S
C950 H962 0.956 . S
C950 H963 0.961 . S
C950 H964 0.961 . S
C951 C948 1.539 . S
C951 H965 0.958 . S
C951 H966 0.961 . S
C951 H967 0.960 . S
H952 C936 0.931 . S
H953 C941 0.929 . S
H954 C942 0.960 . S
H955 C942 0.962 . S
H956 C942 0.960 . S
H957 C943 0.961 . S
H958 C943 0.961 . S
H959 C943 0.961 . S
H960 C944 0.931 . S
H961 C949 0.930 . S
H962 C950 0.956 . S
H963 C950 0.961 . S
H964 C950 0.961 . S
H965 C951 0.958 . S
H966 C951 0.961 . S
H967 C951 0.960 . S
C968 C969 1.391 . S
C968 C970 1.394 . S
C968 H984 0.931 . S
C969 C968 1.391 . S
C969 C973 1.376 . S
C970 C968 1.394 . S
C970 C971 1.369 . S
C970 C974 1.531 . S
C971 C970 1.369 . S
C971 C972 1.410 . S
C971 C979 1.503 . S
C972 C971 1.410 . S
C972 C973 1.392 . S
C972 C975 1.511 . S
C973 C969 1.376 . S
C973 C972 1.392 . S
C973 H985 0.929 . S
C974 C970 1.531 . S
C974 H986 0.960 . S
C974 H987 0.962 . S
C974 H988 0.960 . S
C975 C972 1.511 . S
C975 H989 0.961 . S
C975 H990 0.961 . S
C975 H991 0.961 . S
C976 C977 1.370 . S
C976 C978 1.363 . S
C976 H992 0.931 . S
C977 C976 1.370 . S
C977 C981 1.408 . S
C978 C976 1.363 . S
C978 C979 1.370 . S
C978 C982 1.524 . S
C979 C971 1.503 . S
C979 C978 1.370 . S
C979 C980 1.403 . S
C980 C979 1.403 . S
C980 C981 1.404 . S
C980 C983 1.539 . S
C981 C977 1.408 . S
C981 C980 1.404 . S
C981 H993 0.930 . S
C982 C978 1.524 . S
C982 H994 0.956 . S
C982 H995 0.961 . S
C982 H996 0.961 . S
C983 C980 1.539 . S
C983 H997 0.958 . S
C983 H998 0.961 . S
C983 H999 0.960 . S
H984 C968 0.931 . S
H985 C973 0.929 . S
H986 C974 0.960 . S
H987 C974 0.962 . S
H988 C974 0.960 . S
H989 C975 0.961 . S
H990 C975 0.961 . S
H991 C975 0.961 . S
H992 C976 0.931 . S
H993 C981 0.930 . S
H994 C982 0.956 . S
H995 C982 0.961 . S
H996 C982 0.961 . S
H997 C983 0.958 . S
H998 C983 0.961 . S
H999 C983 0.960 . S
C1000 C1001 1.391 . S
C1000 C1002 1.394 . S
C1000 H1016 0.931 . S
C1001 C1000 1.391 . S
C1001 C1005 1.376 . S
C1002 C1000 1.394 . S
C1002 C1003 1.369 . S
C1002 C1006 1.531 . S
C1003 C1002 1.369 . S
C1003 C1004 1.410 . S
C1003 C1011 1.503 . S
C1004 C1003 1.410 . S
C1004 C1005 1.392 . S
C1004 C1007 1.511 . S
C1005 C1001 1.376 . S
C1005 C1004 1.392 . S
C1005 H1017 0.929 . S
C1006 C1002 1.531 . S
C1006 H1018 0.960 . S
C1006 H1019 0.962 . S
C1006 H1020 0.960 . S
C1007 C1004 1.511 . S
C1007 H1021 0.961 . S
C1007 H1022 0.961 . S
C1007 H1023 0.961 . S
C1008 C1009 1.370 . S
C1008 C1010 1.363 . S
C1008 H1024 0.931 . S
C1009 C1008 1.370 . S
C1009 C1013 1.408 . S
C1010 C1008 1.363 . S
C1010 C1011 1.370 . S
C1010 C1014 1.524 . S
C1011 C1003 1.503 . S
C1011 C1010 1.370 . S
C1011 C1012 1.403 . S
C1012 C1011 1.403 . S
C1012 C1013 1.404 . S
C1012 C1015 1.539 . S
C1013 C1009 1.408 . S
C1013 C1012 1.404 . S
C1013 H1025 0.930 . S
C1014 C1010 1.524 . S
C1014 H1026 0.956 . S
C1014 H1027 0.961 . S
C1014 H1028 0.961 . S
C1015 C1012 1.539 . S
C1015 H1029 0.958 . S
C1015 H1030 0.961 . S
C1015 H1031 0.960 . S
H1016 C1000 0.931 . S
H1017 C1005 0.929 . S
H1018 C1006 0.960 . S
H1019 C1006 0.962 . S
H1020 C1006 0.960 . S
H1021 C1007 0.961 . S
H1022 C1007 0.961 . S
H1023 C1007 0.961 . S
H1024 C1008 0.931 . S
H1025 C1013 0.930 . S
H1026 C1014 0.956 . S
H1027 C1014 0.961 . S
H1028 C1014 0.961 . S
H1029 C1015 0.958 . S
H1030 C1015 0.961 . S
H1031 C1015 0.960 . S
C1032 C1033 1.391 . S
C1032 C1034 1.394 . S
C1032 H1048 0.931 . S
C1033 C1032 1.391 . S
C1033 C1037 1.376 . S
C1034 C1032 1.394 . S
C1034 C1035 1.369 . S
C1034 C1038 1.531 . S
C1035 C1034 1.369 . S
C1035 C1036 1.410 . S
C1035 C1043 1.503 . S
C1036 C1035 1.410 . S
C1036 C1037 1.392 . S
C1036 C1039 1.511 . S
C1037 C1033 1.376 . S
C1037 C1036 1.392 . S
C1037 H1049 0.929 . S
C1038 C1034 1.531 . S
C1038 H1050 0.960 . S
C1038 H1051 0.962 . S
C1038 H1052 0.960 . S
C1039 C1036 1.511 . S
C1039 H1053 0.961 . S
C1039 H1054 0.961 . S
C1039 H1055 0.961 . S
C1040 C1041 1.370 . S
C1040 C1042 1.363 . S
C1040 H1056 0.931 . S
C1041 C1040 1.370 . S
C1041 C1045 1.408 . S
C1042 C1040 1.363 . S
C1042 C1043 1.370 . S
C1042 C1046 1.524 . S
C1043 C1035 1.503 . S
C1043 C1042 1.370 . S
C1043 C1044 1.403 . S
C1044 C1043 1.403 . S
C1044 C1045 1.404 . S
C1044 C1047 1.539 . S
C1045 C1041 1.408 . S
C1045 C1044 1.404 . S
C1045 H1057 0.930 . S
C1046 C1042 1.524 . S
C1046 H1058 0.956 . S
C1046 H1059 0.961 . S
C1046 H1060 0.961 . S
C1047 C1044 1.539 . S
C1047 H1061 0.958 . S
C1047 H1062 0.961 . S
C1047 H1063 0.960 . S
H1048 C1032 0.931 . S
H1049 C1037 0.929 . S
H1050 C1038 0.960 . S
H1051 C1038 0.962 . S
H1052 C1038 0.960 . S
H1053 C1039 0.961 . S
H1054 C1039 0.961 . S
H1055 C1039 0.961 . S
H1056 C1040 0.931 . S
H1057 C1045 0.930 . S
H1058 C1046 0.956 . S
H1059 C1046 0.961 . S
H1060 C1046 0.961 . S
H1061 C1047 0.958 . S
H1062 C1047 0.961 . S
H1063 C1047 0.960 . S
C1064 C1065 1.391 . S
C1064 C1066 1.394 . S
C1064 H1080 0.931 . S
C1065 C1064 1.391 . S
C1065 C1069 1.376 . S
C1066 C1064 1.394 . S
C1066 C1067 1.369 . S
C1066 C1070 1.531 . S
C1067 C1066 1.369 . S
C1067 C1068 1.410 . S
C1067 C1075 1.503 . S
C1068 C1067 1.410 . S
C1068 C1069 1.392 . S
C1068 C1071 1.511 . S
C1069 C1065 1.376 . S
C1069 C1068 1.392 . S
C1069 H1081 0.929 . S
C1070 C1066 1.531 . S
C1070 H1082 0.960 . S
C1070 H1083 0.962 . S
C1070 H1084 0.960 . S
C1071 C1068 1.511 . S
C1071 H1085 0.961 . S
C1071 H1086 0.961 . S
C1071 H1087 0.961 . S
C1072 C1073 1.370 . S
C1072 C1074 1.363 . S
C1072 H1088 0.931 . S
C1073 C1072 1.370 . S
C1073 C1077 1.408 . S
C1074 C1072 1.363 . S
C1074 C1075 1.370 . S
C1074 C1078 1.524 . S
C1075 C1067 1.503 . S
C1075 C1074 1.370 . S
C1075 C1076 1.403 . S
C1076 C1075 1.403 . S
C1076 C1077 1.404 . S
C1076 C1079 1.539 . S
C1077 C1073 1.408 . S
C1077 C1076 1.404 . S
C1077 H1089 0.930 . S
C1078 C1074 1.524 . S
C1078 H1090 0.956 . S
C1078 H1091 0.961 . S
C1078 H1092 0.961 . S
C1079 C1076 1.539 . S
C1079 H1093 0.958 . S
C1079 H1094 0.961 . S
C1079 H1095 0.960 . S
H1080 C1064 0.931 . S
H1081 C1069 0.929 . S
H1082 C1070 0.960 . S
H1083 C1070 0.962 . S
H1084 C1070 0.960 . S
H1085 C1071 0.961 . S
H1086 C1071 0.961 . S
H1087 C1071 0.961 . S
H1088 C1072 0.931 . S
H1089 C1077 0.930 . S
H1090 C1078 0.956 . S
H1091 C1078 0.961 . S
H1092 C1078 0.961 . S
H1093 C1079 0.958 . S
H1094 C1079 0.961 . S
H1095 C1079 0.960 . S
C1096 C1097 1.391 . S
C1096 C1098 1.394 . S
C1096 H1112 0.931 . S
C1097 C1096 1.391 . S
C1097 C1101 1.376 . S
C1098 C1096 1.394 . S
C1098 C1099 1.369 . S
C1098 C1102 1.531 . S
C1099 C1098 1.369 . S
C1099 C1100 1.410 . S
C1099 C1107 1.503 . S
C1100 C1099 1.410 . S
C1100 C1101 1.392 . S
C1100 C1103 1.511 . S
C1101 C1097 1.376 . S
C1101 C1100 1.392 . S
C1101 H1113 0.929 . S
C1102 C1098 1.531 . S
C1102 H1114 0.960 . S
C1102 H1115 0.962 . S
C1102 H1116 0.960 . S
C1103 C1100 1.511 . S
C1103 H1117 0.961 . S
C1103 H1118 0.961 . S
C1103 H1119 0.961 . S
C1104 C1105 1.370 . S
C1104 C1106 1.363 . S
C1104 H1120 0.931 . S
C1105 C1104 1.370 . S
C1105 C1109 1.408 . S
C1106 C1104 1.363 . S
C1106 C1107 1.370 . S
C1106 C1110 1.524 . S
C1107 C1099 1.503 . S
C1107 C1106 1.370 . S
C1107 C1108 1.403 . S
C1108 C1107 1.403 . S
C1108 C1109 1.404 . S
C1108 C1111 1.539 . S
C1109 C1105 1.408 . S
C1109 C1108 1.404 . S
C1109 H1121 0.930 . S
C1110 C1106 1.524 . S
C1110 H1122 0.956 . S
C1110 H1123 0.961 . S
C1110 H1124 0.961 . S
C1111 C1108 1.539 . S
C1111 H1125 0.958 . S
C1111 H1126 0.961 . S
C1111 H1127 0.960 . S
H1112 C1096 0.931 . S
H1113 C1101 0.929 . S
H1114 C1102 0.960 . S
H1115 C1102 0.962 . S
H1116 C1102 0.960 . S
H1117 C1103 0.961 . S
H1118 C1103 0.961 . S
H1119 C1103 0.961 . S
H1120 C1104 0.931 . S
H1121 C1109 0.930 . S
H1122 C1110 0.956 . S
H1123 C1110 0.961 . S
H1124 C1110 0.961 . S
H1125 C1111 0.958 . S
H1126 C1111 0.961 . S
H1127 C1111 0.960 . S
C1128 C1129 1.391 . S
C1128 C1130 1.394 . S
C1128 H1144 0.931 . S
C1129 C1128 1.391 . S
C1129 C1133 1.376 . S
C1130 C1128 1.394 . S
C1130 C1131 1.369 . S
C1130 C1134 1.531 . S
C1131 C1130 1.369 . S
C1131 C1132 1.410 . S
C1131 C1139 1.503 . S
C1132 C1131 1.410 . S
C1132 C1133 1.392 . S
C1132 C1135 1.511 . S
C1133 C1129 1.376 . S
C1133 C1132 1.392 . S
C1133 H1145 0.929 . S
C1134 C1130 1.531 . S
C1134 H1146 0.960 . S
C1134 H1147 0.962 . S
C1134 H1148 0.960 . S
C1135 C1132 1.511 . S
C1135 H1149 0.961 . S
C1135 H1150 0.961 . S
C1135 H1151 0.961 . S
C1136 C1137 1.370 . S
C1136 C1138 1.363 . S
C1136 H1152 0.931 . S
C1137 C1136 1.370 . S
C1137 C1141 1.408 . S
C1138 C1136 1.363 . S
C1138 C1139 1.370 . S
C1138 C1142 1.524 . S
C1139 C1131 1.503 . S
C1139 C1138 1.370 . S
C1139 C1140 1.403 . S
C1140 C1139 1.403 . S
C1140 C1141 1.404 . S
C1140 C1143 1.539 . S
C1141 C1137 1.408 . S
C1141 C1140 1.404 . S
C1141 H1153 0.930 . S
C1142 C1138 1.524 . S
C1142 H1154 0.956 . S
C1142 H1155 0.961 . S
C1142 H1156 0.961 . S
C1143 C1140 1.539 . S
C1143 H1157 0.958 . S
C1143 H1158 0.961 . S
C1143 H1159 0.960 . S
H1144 C1128 0.931 . S
H1145 C1133 0.929 . S
H1146 C1134 0.960 . S
H1147 C1134 0.962 . S
H1148 C1134 0.960 . S
H1149 C1135 0.961 . S
H1150 C1135 0.961 . S
H1151 C1135 0.961 . S
H1152 C1136 0.931 . S
H1153 C1141 0.930 . S
H1154 C1142 0.956 . S
H1155 C1142 0.961 . S
H1156 C1142 0.961 . S
H1157 C1143 0.958 . S
H1158 C1143 0.961 . S
H1159 C1143 0.960 . S
C1160 C1161 1.391 . S
C1160 C1162 1.394 . S
C1160 H1176 0.931 . S
C1161 C1160 1.391 . S
C1161 C1165 1.376 . S
C1162 C1160 1.394 . S
C1162 C1163 1.369 . S
C1162 C1166 1.531 . S
C1163 C1162 1.369 . S
C1163 C1164 1.410 . S
C1163 C1171 1.503 . S
C1164 C1163 1.410 . S
C1164 C1165 1.392 . S
C1164 C1167 1.511 . S
C1165 C1161 1.376 . S
C1165 C1164 1.392 . S
C1165 H1177 0.929 . S
C1166 C1162 1.531 . S
C1166 H1178 0.960 . S
C1166 H1179 0.962 . S
C1166 H1180 0.960 . S
C1167 C1164 1.511 . S
C1167 H1181 0.961 . S
C1167 H1182 0.961 . S
C1167 H1183 0.961 . S
C1168 C1169 1.370 . S
C1168 C1170 1.363 . S
C1168 H1184 0.931 . S
C1169 C1168 1.370 . S
C1169 C1173 1.408 . S
C1170 C1168 1.363 . S
C1170 C1171 1.370 . S
C1170 C1174 1.524 . S
C1171 C1163 1.503 . S
C1171 C1170 1.370 . S
C1171 C1172 1.403 . S
C1172 C1171 1.403 . S
C1172 C1173 1.404 . S
C1172 C1175 1.539 . S
C1173 C1169 1.408 . S
C1173 C1172 1.404 . S
C1173 H1185 0.930 . S
C1174 C1170 1.524 . S
C1174 H1186 0.956 . S
C1174 H1187 0.961 . S
C1174 H1188 0.961 . S
C1175 C1172 1.539 . S
C1175 H1189 0.958 . S
C1175 H1190 0.961 . S
C1175 H1191 0.960 . S
H1176 C1160 0.931 . S
H1177 C1165 0.929 . S
H1178 C1166 0.960 . S
H1179 C1166 0.962 . S
H1180 C1166 0.960 . S
H1181 C1167 0.961 . S
H1182 C1167 0.961 . S
H1183 C1167 0.961 . S
H1184 C1168 0.931 . S
H1185 C1173 0.930 . S
H1186 C1174 0.956 . S
H1187 C1174 0.961 . S
H1188 C1174 0.961 . S
H1189 C1175 0.958 . S
H1190 C1175 0.961 . S
H1191 C1175 0.960 . S
C1192 C1193 1.391 . S
C1192 C1194 1.394 . S
C1192 H1208 0.931 . S
C1193 C1192 1.391 . S
C1193 C1197 1.376 . S
C1194 C1192 1.394 . S
C1194 C1195 1.369 . S
C1194 C1198 1.531 . S
C1195 C1194 1.369 . S
C1195 C1196 1.410 . S
C1195 C1203 1.503 . S
C1196 C1195 1.410 . S
C1196 C1197 1.392 . S
C1196 C1199 1.511 . S
C1197 C1193 1.376 . S
C1197 C1196 1.392 . S
C1197 H1209 0.929 . S
C1198 C1194 1.531 . S
C1198 H1210 0.960 . S
C1198 H1211 0.962 . S
C1198 H1212 0.960 . S
C1199 C1196 1.511 . S
C1199 H1213 0.961 . S
C1199 H1214 0.961 . S
C1199 H1215 0.961 . S
C1200 C1201 1.370 . S
C1200 C1202 1.363 . S
C1200 H1216 0.931 . S
C1201 C1200 1.370 . S
C1201 C1205 1.408 . S
C1202 C1200 1.363 . S
C1202 C1203 1.370 . S
C1202 C1206 1.524 . S
C1203 C1195 1.503 . S
C1203 C1202 1.370 . S
C1203 C1204 1.403 . S
C1204 C1203 1.403 . S
C1204 C1205 1.404 . S
C1204 C1207 1.539 . S
C1205 C1201 1.408 . S
C1205 C1204 1.404 . S
C1205 H1217 0.930 . S
C1206 C1202 1.524 . S
C1206 H1218 0.956 . S
C1206 H1219 0.961 . S
C1206 H1220 0.961 . S
C1207 C1204 1.539 . S
C1207 H1221 0.958 . S
C1207 H1222 0.961 . S
C1207 H1223 0.960 . S
H1208 C1192 0.931 . S
H1209 C1197 0.929 . S
H1210 C1198 0.960 . S
H1211 C1198 0.962 . S
H1212 C1198 0.960 . S
H1213 C1199 0.961 . S
H1214 C1199 0.961 . S
H1215 C1199 0.961 . S
H1216 C1200 0.931 . S
H1217 C1205 0.930 . S
H1218 C1206 0.956 . S
H1219 C1206 0.961 . S
H1220 C1206 0.961 . S
H1221 C1207 0.958 . S
H1222 C1207 0.961 . S
H1223 C1207 0.960 . S
C457 C39 2.133 . S
C465 C325 2.107 . S
C489 C91 1.430 . S
C497 N343 1.414 . S
C529 C371 1.921 . S
C521 C128 1.944 . S
C561 N389 1.251 . S
C553 C188 1.269 . S
C593 C417 2.021 . S
C585 C250 2.030 . S
C625 N435 1.419 . S
C617 C304 1.417 . S
C649 C75 1.974 . S
C657 C380 1.978 . S
C681 C144 1.419 . S
C689 N399 1.388 . S
C721 C426 2.074 . S
C713 C198 2.070 . S
C753 N445 1.189 . S
C745 C234 1.264 . S
C777 C294 1.891 . S
C785 C334 1.881 . S
C817 N353 1.201 . S
C809 C29 1.281 . S
C849 C403 1.977 . S
C841 C38 2.011 . S
C873 C92 1.300 . S
C881 N422 1.290 . S
C913 C449 1.789 . S
C905 C135 1.825 . S
C937 C181 1.135 . S
C945 N330 1.130 . S
C969 C251 1.932 . S
C977 C357 1.880 . S
C1001 C303 1.286 . S
C1009 N376 1.255 . S
C1033 C82 1.880 . S
C1041 C440 1.864 . S
C1073 N320 1.257 . S
C1065 C145 1.300 . S
C1097 C197 1.982 . S
C1105 C348 1.969 . S
C1129 C241 1.143 . S
C1137 N366 1.075 . S
C1161 C287 1.795 . S
C1169 C394 1.789 . S
C1193 C22 1.172 . S
C1201 N412 1.094 . S
