# Generated by pormake.
# Topology pts, (4,4)-cn, num edge types: 1
# Building blocks:
#     Node 0, Type 0, BuildingBlock: NAWXER_clean_sbu_0, # of connection points: 4
#     Node 1, Type 0, BuildingBlock: NAWXER_clean_sbu_0, # of connection points: 4
#     Node 2, Type 1, BuildingBlock: QUQFOY_clean_sbu_1, # of connection points: 4
#     Node 3, Type 1, BuildingBlock: QUQFOY_clean_sbu_1, # of connection points: 4
#     Edge 4, Type (0, 1), BuildingBlock: TEMPAE_clean_linker_10, # of connection points: 2
#     Edge 5, Type (0, 1), BuildingBlock: TEMPAE_clean_linker_10, # of connection points: 2
#     Edge 6, Type (0, 1), BuildingBlock: TEMPAE_clean_linker_10, # of connection points: 2
#     Edge 7, Type (0, 1), BuildingBlock: TEMPAE_clean_linker_10, # of connection points: 2
#     Edge 8, Type (0, 1), BuildingBlock: TEMPAE_clean_linker_10, # of connection points: 2
#     Edge 9, Type (0, 1), BuildingBlock: TEMPAE_clean_linker_10, # of connection points: 2
#     Edge 10, Type (0, 1), BuildingBlock: TEMPAE_clean_linker_10, # of connection points: 2
#     Edge 11, Type (0, 1), BuildingBlock: TEMPAE_clean_linker_10, # of connection points: 2
# Relax obj value: 0.106
# Max RMSD: 0.243
# Mean RMSD: 0.140
data_MOF--net-pts--node1-NAWXER_clean_sbu_0--node2-QUQFOY_clean_sbu_1--edge1-TEMPAE_clean_linker_10
_symmetry_space_group_name_H-M    P1
_symmetry_Int_Tables_number       1
_symmetry_cell_setting            triclinic
loop_
_symmetry_equiv_pos_as_xyz
'x, y, z'
_cell_length_a     22.111856
_cell_length_b     24.725903
_cell_length_c     40.230203
_cell_angle_alpha  90.063621
_cell_angle_beta   90.034729
_cell_angle_gamma 89.989352
loop_
_atom_site_label
_atom_site_type_symbol
_atom_site_fract_x
_atom_site_fract_y
_atom_site_fract_z
_atom_type_partial_charge
C0 C 0.42401 0.962 0.95431 0.0
C1 C 0.57628 0.96972 0.04196 0.0
O2 O 0.44786 0.92153 0.96874 0.0
Zn3 Zn 0.50055 0.9628 0.9981 0.0
O4 O 0.43767 0.01013 0.96326 0.0
Zn5 Zn 0.4936 0.04983 0.99866 0.0
O6 O 0.54636 0.09226 0.97016 0.0
O7 O 0.5573 1.00385 0.96368 0.0
O8 O 0.55529 0.01604 0.03368 0.0
O9 O 0.55915 0.92727 0.02673 0.0
O10 O 0.43901 0.99532 0.03361 0.0
O11 O 0.43485 0.08424 0.02773 0.0
C12 C 0.57089 0.05231 0.95547 0.0
C13 C 0.41794 0.04134 0.04249 0.0
C14 C 0.9512 0.57907 0.45922 0.0
C15 C 0.95268 0.43257 0.54254 0.0
O16 O 0.90374 0.55685 0.47098 0.0
Zn17 Zn 0.94536 0.50567 0.50079 0.0
O18 O 0.00323 0.56251 0.46871 0.0
Zn19 Zn 0.04487 0.50657 0.50095 0.0
O20 O 0.08666 0.45783 0.46975 0.0
O21 O 0.9872 0.45262 0.46673 0.0
O22 O 0.00437 0.45004 0.53319 0.0
O23 O 0.90482 0.45373 0.5305 0.0
O24 O 0.98577 0.55973 0.53483 0.0
O25 O 0.08536 0.55612 0.5322 0.0
C26 C 0.03934 0.43695 0.45689 0.0
C27 C 0.03749 0.57639 0.54478 0.0
O28 O 0.92135 0.96095 0.22587 0.0
Cd29 Cd -0.00119 0.94907 0.25273 0.0
Cd30 Cd 0.99611 0.06291 0.25212 0.0
O31 O 0.916 0.05022 0.22632 0.0
O32 O 0.99465 0.87023 0.26266 0.0
O33 O 0.99068 0.93298 0.30172 0.0
C34 C 0.988 0.88246 0.29357 0.0
C35 C 0.00554 0.13113 0.29216 0.0
C36 C 0.89474 1.00444 0.21776 0.0
C37 C 0.10142 0.0063 0.21897 0.0
O38 O 0.07462 0.05003 0.22638 0.0
O39 O 0.07978 0.96079 0.2277 0.0
O40 O 0.0006 0.14211 0.26099 0.0
O41 O 0.00179 0.081 0.30099 0.0
O42 O 0.92517 0.0552 0.77676 0.0
Cd43 Cd 0.0023 0.06262 0.74905 0.0
Cd44 Cd 0.99077 0.94995 0.7497 0.0
O45 O 0.91021 0.967 0.7741 0.0
O46 O 0.00207 0.14131 0.73855 0.0
O47 O 0.99296 0.07805 0.70004 0.0
C48 C 0.99306 0.12877 0.70785 0.0
C49 C -0.00137 0.88225 0.70931 0.0
C50 C 0.89372 0.01382 0.78368 0.0
C51 C 0.10046 1.0001 0.78278 0.0
O52 O 0.06906 0.95839 0.77648 0.0
O53 O 0.08346 0.04662 0.773 0.0
O54 O 0.99081 0.87087 0.74026 0.0
O55 O -0.00176 0.93265 0.70083 0.0
C56 C 0.3208 0.06933 0.06892 0.0
C57 C 0.37667 0.04312 0.07103 0.0
C58 C 0.27809 0.06406 0.09458 0.0
C59 C 0.29276 0.03328 0.12323 0.0
C60 C 0.35061 0.0093 0.12608 0.0
C61 C 0.39147 0.01373 0.09965 0.0
C62 C 0.2164 0.08933 0.09041 0.0
C63 C 0.36878 0.97776 0.15662 0.0
C64 C 0.19321 0.05452 0.19891 0.0
C65 C 0.15506 0.0093 0.19729 0.0
C66 C 0.23962 0.06196 0.17561 0.0
C67 C 0.24673 0.02408 0.14953 0.0
C68 C 0.20915 0.97769 0.14822 0.0
C69 C 0.16423 0.97045 0.17246 0.0
C70 C 0.28014 0.1109 0.17851 0.0
C71 C 0.21476 0.93684 0.12045 0.0
H72 H 0.30943 0.09154 0.04655 0.0
H73 H 0.43505 0.99371 0.10117 0.0
H74 H 0.18136 0.0572 0.09017 0.0
H75 H 0.20628 0.11639 0.11169 0.0
H76 H 0.21268 0.11303 0.06705 0.0
H77 H 0.41742 0.96645 0.1563 0.0
H78 H 0.35965 1.00179 0.17939 0.0
H79 H 0.34151 0.94023 0.15829 0.0
H80 H 0.18619 0.08453 0.2182 0.0
H81 H 0.13423 0.93586 0.17095 0.0
H82 H 0.27268 0.1381 0.15699 0.0
H83 H 0.32832 0.09837 0.17799 0.0
H84 H 0.27172 0.13412 0.2017 0.0
H85 H 0.20677 0.95697 0.0962 0.0
H86 H 0.18214 0.90295 0.12308 0.0
H87 H 0.26119 0.91992 0.11984 0.0
C88 C 0.89711 0.36408 0.57792 0.0
C89 C 0.95134 0.38682 0.56646 0.0
C90 C 0.89773 0.32023 0.60034 0.0
C91 C 0.9538 0.29881 0.61137 0.0
C92 C 0.00842 0.32142 0.59963 0.0
C93 C 0.00649 0.36493 0.5775 0.0
C94 C 0.83861 0.2971 0.61245 0.0
C95 C 0.06925 0.30002 0.61071 0.0
C96 C 0.9739 0.22548 0.6933 0.0
C97 C 0.98056 0.17156 0.68295 0.0
C98 C 0.96179 0.26685 0.67042 0.0
C99 C 0.95658 0.25423 0.63622 0.0
C100 C 0.96162 0.19971 0.62566 0.0
C101 C 0.97343 0.15897 0.64917 0.0
C102 C 0.95685 0.32441 0.68275 0.0
C103 C 0.95674 0.18468 0.58938 0.0
H104 H 0.85437 0.38053 0.56946 0.0
H105 H 0.04887 0.38183 0.56884 0.0
H106 H 0.83662 0.25315 0.60698 0.0
H107 H 0.83533 0.30179 0.63982 0.0
H108 H 0.79894 0.31712 0.6008 0.0
H109 H 0.10754 0.32117 0.59846 0.0
H110 H 0.07409 0.30484 0.638 0.0
H111 H 0.07274 0.2562 0.6051 0.0
H112 H 0.97856 0.2356 0.7194 0.0
H113 H 0.97795 0.11737 0.64101 0.0
H114 H 0.91527 0.34371 0.67288 0.0
H115 H 0.99595 0.34824 0.6736 0.0
H116 H 0.95602 0.32683 0.71032 0.0
H117 H 0.91537 0.20261 0.57833 0.0
H118 H 0.95563 0.14019 0.58556 0.0
H119 H 0.99603 0.20137 0.57565 0.0
C120 C 0.67408 0.94144 0.06752 0.0
C121 C 0.618 0.96713 0.0703 0.0
C122 C 0.71736 0.94641 0.09296 0.0
C123 C 0.70309 0.97639 0.12201 0.0
C124 C 0.64505 0.99976 0.12552 0.0
C125 C 0.60357 0.99562 0.09934 0.0
C126 C 0.7792 0.92178 0.08809 0.0
C127 C 0.62734 0.03046 0.1565 0.0
C128 C 0.80408 0.95498 0.19713 0.0
C129 C 0.84147 1.00074 0.19579 0.0
C130 C 0.75766 0.94726 0.17384 0.0
C131 C 0.74967 0.98547 0.14806 0.0
C132 C 0.78659 0.03229 0.14697 0.0
C133 C 0.8316 0.03974 0.17118 0.0
C134 C 0.71792 0.89779 0.17647 0.0
C135 C 0.78 0.07353 0.11955 0.0
H136 H 0.68516 0.91997 0.04482 0.0
H137 H 0.55985 0.01527 0.10136 0.0
H138 H 0.81383 0.95427 0.08773 0.0
H139 H 0.79033 0.89459 0.10912 0.0
H140 H 0.78247 0.89841 0.06456 0.0
H141 H 0.57858 0.04134 0.15664 0.0
H142 H 0.63734 0.00604 0.17896 0.0
H143 H 0.65424 0.06821 0.15832 0.0
H144 H 0.81158 0.92485 0.21626 0.0
H145 H 0.86098 0.07477 0.16988 0.0
H146 H 0.72496 0.87134 0.15453 0.0
H147 H 0.66957 0.90982 0.17658 0.0
H148 H 0.72742 0.87394 0.19927 0.0
H149 H 0.78748 0.05385 0.09508 0.0
H150 H 0.81244 0.10757 0.12219 0.0
H151 H 0.73343 0.09019 0.1194 0.0
C152 C 0.09292 0.64558 0.57977 0.0
C153 C 0.03887 0.62076 0.56972 0.0
C154 C 0.09222 0.68935 0.6023 0.0
C155 C 0.03625 0.70862 0.61484 0.0
C156 C 0.98182 0.68344 0.60487 0.0
C157 C 0.98384 0.63996 0.58265 0.0
C158 C 0.15117 0.71509 0.61262 0.0
C159 C 0.92111 0.7025 0.6176 0.0
C160 C 0.02032 0.78546 0.69595 0.0
C161 C 0.0105 0.83856 0.68487 0.0
C162 C 0.03208 0.74332 0.6735 0.0
C163 C 0.03351 0.75429 0.63899 0.0
C164 C 0.02509 0.80802 0.62764 0.0
C165 C 0.0139 0.84959 0.65074 0.0
C166 C 0.04092 0.68668 0.68667 0.0
C167 C 0.0257 0.82124 0.59102 0.0
H168 H 0.13556 0.63117 0.56987 0.0
H169 H 0.94163 0.62123 0.57521 0.0
H170 H 0.15112 0.75856 0.60582 0.0
H171 H 0.15637 0.71282 0.64002 0.0
H172 H 0.19083 0.69531 0.6008 0.0
H173 H 0.88288 0.67905 0.60694 0.0
H174 H 0.91946 0.69883 0.64507 0.0
H175 H 0.91447 0.74583 0.61144 0.0
H176 H 0.0186 0.77661 0.72232 0.0
H177 H 0.00686 0.89056 0.64199 0.0
H178 H 0.08235 0.66838 0.67593 0.0
H179 H 0.00215 0.66097 0.67911 0.0
H180 H 0.04454 0.68578 0.71421 0.0
H181 H 0.06699 0.80461 0.57915 0.0
H182 H 0.02387 0.86549 0.58637 0.0
H183 H 0.98622 0.80204 0.57872 0.0
C184 C 0.39864 0.97784 0.89545 0.0
C185 C 0.38261 0.95551 0.92614 0.0
C186 C 0.35636 0.98191 0.86963 0.0
C187 C 0.29616 0.96476 0.87516 0.0
C188 C 0.28035 0.94041 0.90587 0.0
C189 C 0.32416 0.93562 0.93102 0.0
C190 C 0.37549 0.00679 0.83702 0.0
C191 C 0.2164 0.92236 0.91285 0.0
C192 C 0.17144 0.03436 0.82626 0.0
C193 C 0.15482 0.9938 0.80374 0.0
C194 C 0.21769 0.0255 0.84956 0.0
C195 C 0.24895 0.97542 0.84967 0.0
C196 C 0.23422 0.93536 0.82589 0.0
C197 C 0.18675 0.94476 0.80349 0.0
C198 C 0.23158 0.06894 0.87485 0.0
C199 C 0.26774 0.88219 0.82455 0.0
H200 H 0.44395 0.99363 0.89202 0.0
H201 H 0.31184 0.91935 0.9551 0.0
H202 H 0.3605 0.98116 0.81591 0.0
H203 H 0.35369 0.0469 0.83407 0.0
H204 H 0.42529 0.01223 0.83546 0.0
H205 H 0.21226 0.90168 0.93725 0.0
H206 H 0.18588 0.95799 0.91275 0.0
H207 H 0.20047 0.89447 0.89309 0.0
H208 H 0.14638 0.07205 0.82671 0.0
H209 H 0.17414 0.91342 0.78593 0.0
H210 H 0.27988 0.08074 0.87329 0.0
H211 H 0.22372 0.05308 0.90029 0.0
H212 H 0.20334 0.10565 0.87132 0.0
H213 H 0.31717 0.88947 0.82291 0.0
H214 H 0.25364 0.85694 0.80304 0.0
H215 H 0.25948 0.85906 0.84771 0.0
C216 C 0.0962 0.3676 0.42276 0.0
C217 C 0.04187 0.39308 0.43166 0.0
C218 C 0.0964 0.32389 0.40019 0.0
C219 C 0.04106 0.3054 0.3864 0.0
C220 C 0.98641 0.33144 0.39506 0.0
C221 C 0.98754 0.37482 0.41738 0.0
C222 C 0.15559 0.29722 0.39128 0.0
C223 C 0.92636 0.31329 0.38092 0.0
C224 C 0.02941 0.22757 0.30541 0.0
C225 C 0.01742 0.17488 0.31657 0.0
C226 C 0.04056 0.26985 0.32787 0.0
C227 C 0.03923 0.25942 0.36244 0.0
C228 C 0.0288 0.20604 0.3739 0.0
C229 C 0.01819 0.16434 0.35081 0.0
C230 C 0.05154 0.32611 0.3146 0.0
C231 C 0.02652 0.19339 0.41058 0.0
H232 H 0.1383 0.38129 0.43371 0.0
H233 H 0.94517 0.39418 0.42385 0.0
H234 H 0.15443 0.25394 0.39849 0.0
H235 H 0.16257 0.29873 0.36399 0.0
H236 H 0.19475 0.31682 0.40372 0.0
H237 H 0.88785 0.33761 0.39048 0.0
H238 H 0.927 0.3165 0.35342 0.0
H239 H 0.91825 0.2702 0.38718 0.0
H240 H 0.02968 0.23604 0.27898 0.0
H241 H 0.00946 0.12368 0.35963 0.0
H242 H 0.09242 0.34397 0.32624 0.0
H243 H 0.0127 0.35254 0.32102 0.0
H244 H 0.05737 0.32648 0.28717 0.0
H245 H 0.0672 0.20962 0.42328 0.0
H246 H 0.02358 0.14924 0.41542 0.0
H247 H 0.98652 0.21333 0.42186 0.0
C248 C 0.59559 0.04287 0.89603 0.0
C249 C 0.61302 0.0598 0.92781 0.0
C250 C 0.63802 0.0386 0.8703 0.0
C251 C 0.69952 0.05023 0.87694 0.0
C252 C 0.71688 0.06925 0.90883 0.0
C253 C 0.67311 0.07408 0.93396 0.0
C254 C 0.61745 0.01925 0.83653 0.0
C255 C 0.78212 0.08153 0.91693 0.0
C256 C 0.81957 0.97895 0.82544 0.0
C257 C 0.83978 0.02095 0.80493 0.0
C258 C 0.77341 0.98781 0.84879 0.0
C259 C 0.74617 0.03959 0.85115 0.0
C260 C 0.76458 0.0814 0.82946 0.0
C261 C 0.81154 0.07171 0.80682 0.0
C262 C 0.75525 0.94232 0.87173 0.0
C263 C 0.73564 0.13669 0.83068 0.0
H264 H 0.54901 0.03115 0.89166 0.0
H265 H 0.68642 0.086 0.95886 0.0
H266 H 0.63488 0.04639 0.81679 0.0
H267 H 0.63597 0.9783 0.83167 0.0
H268 H 0.56736 0.01733 0.83457 0.0
H269 H 0.78761 0.09869 0.94229 0.0
H270 H 0.80927 0.04388 0.91518 0.0
H271 H 0.80099 0.11055 0.89867 0.0
H272 H 0.84156 0.93981 0.82423 0.0
H273 H 0.82672 0.10424 0.79082 0.0
H274 H 0.70604 0.9344 0.86954 0.0
H275 H 0.76426 0.9541 0.8979 0.0
H276 H 0.78007 0.90425 0.86631 0.0
H277 H 0.6858 0.13305 0.8284 0.0
H278 H 0.75241 0.16367 0.81064 0.0
H279 H 0.74521 0.15606 0.85501 0.0
C280 C 0.89454 0.64487 0.42242 0.0
C281 C 0.94901 0.62507 0.43551 0.0
C282 C 0.89441 0.68854 0.39985 0.0
C283 C 0.94995 0.71276 0.39036 0.0
C284 C 0.00474 0.6933 0.4039 0.0
C285 C 0.00357 0.64994 0.42614 0.0
C286 C 0.83511 0.70835 0.38586 0.0
C287 C 0.06504 0.71779 0.39453 0.0
C288 C 0.97283 0.78527 0.30839 0.0
C289 C 0.97557 0.8396 0.31843 0.0
C290 C 0.96128 0.74384 0.33131 0.0
C291 C 0.95222 0.75689 0.36521 0.0
C292 C 0.95307 0.81177 0.37539 0.0
C293 C 0.96485 0.8525 0.35188 0.0
C294 C 0.96125 0.68586 0.31943 0.0
C295 C 0.94368 0.8273 0.41131 0.0
H296 H 0.85222 0.62612 0.42958 0.0
H297 H 0.04609 0.63546 0.43618 0.0
H298 H 0.83006 0.75234 0.39056 0.0
H299 H 0.83449 0.70244 0.35852 0.0
H300 H 0.79573 0.68689 0.39678 0.0
H301 H 0.1034 0.6989 0.40806 0.0
H302 H 0.07287 0.71289 0.36746 0.0
H303 H 0.06504 0.76179 0.39994 0.0
H304 H 0.9805 0.77485 0.28256 0.0
H305 H 0.96622 0.8944 0.35979 0.0
H306 H 0.92005 0.66466 0.32822 0.0
H307 H 0.00084 0.66429 0.32999 0.0
H308 H 0.96333 0.68279 0.2919 0.0
H309 H 0.90259 0.8074 0.42131 0.0
H310 H 0.93917 0.87174 0.41462 0.0
H311 H 0.98265 0.81313 0.42635 0.0
loop_
_geom_bond_atom_site_label_1
_geom_bond_atom_site_label_2
_geom_bond_distance
_geom_bond_site_symmetry_2
_ccdc_geom_bond_type
C0 O2 1.248 1_545 S
C0 O4 1.257 . S
C1 O8 1.254 . S
C1 O9 1.251 1_545 S
O2 C0 1.248 1_565 S
O2 Zn3 2.028 1_556 S
Zn3 O2 2.028 1_554 S
Zn3 O7 2.035 1_554 S
Zn3 O9 2.035 . S
Zn3 O10 2.028 . S
O4 C0 1.257 . S
O4 Zn5 2.035 1_556 S
Zn5 O4 2.035 1_554 S
Zn5 O6 2.028 1_554 S
Zn5 O8 2.028 . S
Zn5 O11 2.035 . S
O6 Zn5 2.028 1_556 S
O6 C12 1.254 . S
O7 Zn3 2.035 1_556 S
O7 C12 1.251 1_565 S
O8 C1 1.254 . S
O8 Zn5 2.028 . S
O9 C1 1.251 1_565 S
O9 Zn3 2.035 . S
O10 Zn3 2.028 . S
O10 C13 1.248 1_565 S
O11 Zn5 2.035 . S
O11 C13 1.257 . S
C12 O6 1.254 . S
C12 O7 1.251 1_545 S
C13 O10 1.248 1_545 S
C13 O11 1.257 . S
C14 O16 1.247 . S
C14 O18 1.258 1_655 S
C15 O22 1.251 . S
C15 O23 1.254 1_455 S
O16 C14 1.247 . S
O16 Zn17 2.028 . S
Zn17 O16 2.028 . S
Zn17 O21 2.035 . S
Zn17 O23 2.035 . S
Zn17 O24 2.028 . S
O18 C14 1.258 1_455 S
O18 Zn19 2.035 . S
Zn19 O18 2.035 . S
Zn19 O20 2.028 . S
Zn19 O22 2.028 . S
Zn19 O25 2.035 . S
O20 Zn19 2.028 . S
O20 C26 1.251 . S
O21 Zn17 2.035 . S
O21 C26 1.254 1_655 S
O22 C15 1.251 . S
O22 Zn19 2.028 . S
O23 C15 1.254 1_655 S
O23 Zn17 2.035 . S
O24 Zn17 2.028 . S
O24 C27 1.247 . S
O25 Zn19 2.035 . S
O25 C27 1.258 1_455 S
C26 O20 1.251 . S
C26 O21 1.254 1_455 S
C27 O24 1.247 . S
C27 O25 1.258 1_655 S
O28 Cd29 2.223 1_655 S
O28 C36 1.315 . S
Cd29 O28 2.223 1_455 S
Cd29 O32 2.297 1_455 S
Cd29 O33 2.439 1_455 S
Cd29 O39 2.240 1_565 S
Cd30 O31 2.240 1_545 S
Cd30 O38 2.223 1_655 S
Cd30 O40 2.297 1_655 S
Cd30 O41 2.439 1_655 S
O31 Cd30 2.240 1_565 S
O31 C36 1.279 . S
O32 Cd29 2.297 1_655 S
O32 C34 1.247 . S
O33 Cd29 2.439 1_655 S
O33 C34 1.208 . S
C34 O32 1.247 . S
C34 O33 1.208 . S
C35 O40 1.247 . S
C35 O41 1.208 . S
C36 O28 1.315 . S
C36 O31 1.279 . S
C37 O38 1.315 . S
C37 O39 1.279 . S
O38 Cd30 2.223 1_455 S
O38 C37 1.315 . S
O39 Cd29 2.240 1_545 S
O39 C37 1.279 . S
O40 Cd30 2.297 1_455 S
O40 C35 1.247 . S
O41 Cd30 2.439 1_455 S
O41 C35 1.208 . S
O42 Cd43 2.223 1_655 S
O42 C50 1.315 . S
Cd43 O42 2.223 1_455 S
Cd43 O46 2.297 1_455 S
Cd43 O47 2.439 1_455 S
Cd43 O53 2.240 1_545 S
Cd44 O45 2.240 1_565 S
Cd44 O52 2.223 1_655 S
Cd44 O54 2.297 1_655 S
Cd44 O55 2.439 1_655 S
O45 Cd44 2.240 1_545 S
O45 C50 1.279 . S
O46 Cd43 2.297 1_655 S
O46 C48 1.247 . S
O47 Cd43 2.439 1_655 S
O47 C48 1.208 . S
C48 O46 1.247 . S
C48 O47 1.208 . S
C49 O54 1.247 . S
C49 O55 1.208 . S
C50 O42 1.315 . S
C50 O45 1.279 . S
C51 O52 1.315 . S
C51 O53 1.279 . S
O52 Cd44 2.223 1_455 S
O52 C51 1.315 . S
O53 Cd43 2.240 1_565 S
O53 C51 1.279 . S
O54 Cd44 2.297 1_455 S
O54 C49 1.247 . S
O55 Cd44 2.439 1_455 S
O55 C49 1.208 . S
C56 C57 1.409 . S
C56 C58 1.394 . S
C56 H72 0.931 . S
C57 C56 1.409 . S
C57 C61 1.359 1_545 S
C58 C56 1.394 . S
C58 C59 1.369 . S
C58 C62 1.531 . S
C59 C58 1.369 . S
C59 C60 1.410 1_545 S
C59 C67 1.503 . S
C60 C59 1.410 1_565 S
C60 C61 1.392 . S
C60 C63 1.511 . S
C61 C57 1.359 1_565 S
C61 C60 1.392 . S
C61 H73 0.929 . S
C62 C58 1.531 . S
C62 H74 0.960 . S
C62 H75 0.962 . S
C62 H76 0.960 . S
C63 C60 1.511 . S
C63 H77 0.961 . S
C63 H78 0.961 . S
C63 H79 0.961 . S
C64 C65 1.370 . S
C64 C66 1.363 . S
C64 H80 0.931 . S
C65 C64 1.370 . S
C65 C69 1.408 . S
C66 C64 1.363 . S
C66 C67 1.370 . S
C66 C70 1.524 . S
C67 C59 1.503 . S
C67 C66 1.370 . S
C67 C68 1.403 1_545 S
C68 C67 1.403 1_565 S
C68 C69 1.404 1_565 S
C68 C71 1.539 . S
C69 C65 1.408 . S
C69 C68 1.404 1_545 S
C69 H81 0.930 1_545 S
C70 C66 1.524 . S
C70 H82 0.956 . S
C70 H83 0.961 . S
C70 H84 0.961 . S
C71 C68 1.539 . S
C71 H85 0.958 . S
C71 H86 0.961 . S
C71 H87 0.960 . S
H72 C56 0.931 . S
H73 C61 0.929 . S
H74 C62 0.960 . S
H75 C62 0.962 . S
H76 C62 0.960 . S
H77 C63 0.961 . S
H78 C63 0.961 . S
H79 C63 0.961 . S
H80 C64 0.931 . S
H81 C69 0.930 1_565 S
H82 C70 0.956 . S
H83 C70 0.961 . S
H84 C70 0.961 . S
H85 C71 0.958 . S
H86 C71 0.961 . S
H87 C71 0.960 . S
C88 C89 1.385 1_655 S
C88 C90 1.394 . S
C88 H104 0.931 . S
C89 C88 1.385 1_455 S
C89 C93 1.382 . S
C90 C88 1.394 . S
C90 C91 1.369 . S
C90 C94 1.531 . S
C91 C90 1.369 . S
C91 C92 1.410 1_655 S
C91 C99 1.503 . S
C92 C91 1.410 1_455 S
C92 C93 1.392 . S
C92 C95 1.511 . S
C93 C89 1.382 . S
C93 C92 1.392 . S
C93 H105 0.929 . S
C94 C90 1.531 . S
C94 H106 0.960 . S
C94 H107 0.962 . S
C94 H108 0.960 . S
C95 C92 1.511 . S
C95 H109 0.961 . S
C95 H110 0.961 . S
C95 H111 0.961 . S
C96 C97 1.370 . S
C96 C98 1.363 . S
C96 H112 0.931 . S
C97 C96 1.370 . S
C97 C101 1.408 1_655 S
C98 C96 1.363 . S
C98 C99 1.370 . S
C98 C102 1.524 . S
C99 C91 1.503 . S
C99 C98 1.370 . S
C99 C100 1.403 1_655 S
C100 C99 1.403 1_455 S
C100 C101 1.404 . S
C100 C103 1.539 . S
C101 C97 1.408 1_455 S
C101 C100 1.404 . S
C101 H113 0.930 . S
C102 C98 1.524 . S
C102 H114 0.956 . S
C102 H115 0.961 . S
C102 H116 0.961 . S
C103 C100 1.539 . S
C103 H117 0.958 . S
C103 H118 0.961 . S
C103 H119 0.960 . S
H104 C88 0.931 . S
H105 C93 0.929 . S
H106 C94 0.960 . S
H107 C94 0.962 . S
H108 C94 0.960 . S
H109 C95 0.961 . S
H110 C95 0.961 . S
H111 C95 0.961 . S
H112 C96 0.931 . S
H113 C101 0.930 . S
H114 C102 0.956 . S
H115 C102 0.961 . S
H116 C102 0.961 . S
H117 C103 0.958 . S
H118 C103 0.961 . S
H119 C103 0.960 . S
C120 C121 1.380 1_565 S
C120 C122 1.394 . S
C120 H136 0.931 . S
C121 C120 1.380 1_545 S
C121 C125 1.387 . S
C122 C120 1.394 . S
C122 C123 1.369 . S
C122 C126 1.531 . S
C123 C122 1.369 . S
C123 C124 1.410 1_565 S
C123 C131 1.503 . S
C124 C123 1.410 1_545 S
C124 C125 1.392 . S
C124 C127 1.511 . S
C125 C121 1.387 . S
C125 C124 1.392 . S
C125 H137 0.929 . S
C126 C122 1.531 . S
C126 H138 0.960 . S
C126 H139 0.962 . S
C126 H140 0.960 . S
C127 C124 1.511 . S
C127 H141 0.961 . S
C127 H142 0.961 . S
C127 H143 0.961 . S
C128 C129 1.370 . S
C128 C130 1.363 . S
C128 H144 0.931 . S
C129 C128 1.370 . S
C129 C133 1.408 1_565 S
C130 C128 1.363 . S
C130 C131 1.370 . S
C130 C134 1.524 . S
C131 C123 1.503 . S
C131 C130 1.370 . S
C131 C132 1.403 1_565 S
C132 C131 1.403 1_545 S
C132 C133 1.404 . S
C132 C135 1.539 . S
C133 C129 1.408 1_545 S
C133 C132 1.404 . S
C133 H145 0.930 . S
C134 C130 1.524 . S
C134 H146 0.956 . S
C134 H147 0.961 . S
C134 H148 0.961 . S
C135 C132 1.539 . S
C135 H149 0.958 . S
C135 H150 0.961 . S
C135 H151 0.960 . S
H136 C120 0.931 . S
H137 C125 0.929 . S
H138 C126 0.960 . S
H139 C126 0.962 . S
H140 C126 0.960 . S
H141 C127 0.961 . S
H142 C127 0.961 . S
H143 C127 0.961 . S
H144 C128 0.931 . S
H145 C133 0.930 . S
H146 C134 0.956 . S
H147 C134 0.961 . S
H148 C134 0.961 . S
H149 C135 0.958 . S
H150 C135 0.961 . S
H151 C135 0.960 . S
C152 C153 1.391 . S
C152 C154 1.394 . S
C152 H168 0.931 . S
C153 C152 1.391 . S
C153 C157 1.376 1_455 S
C154 C152 1.394 . S
C154 C155 1.369 . S
C154 C158 1.531 . S
C155 C154 1.369 . S
C155 C156 1.410 1_455 S
C155 C163 1.503 . S
C156 C155 1.410 1_655 S
C156 C157 1.392 . S
C156 C159 1.511 . S
C157 C153 1.376 1_655 S
C157 C156 1.392 . S
C157 H169 0.929 . S
C158 C154 1.531 . S
C158 H170 0.960 . S
C158 H171 0.962 . S
C158 H172 0.960 . S
C159 C156 1.511 . S
C159 H173 0.961 . S
C159 H174 0.961 . S
C159 H175 0.961 . S
C160 C161 1.370 . S
C160 C162 1.363 . S
C160 H176 0.931 . S
C161 C160 1.370 . S
C161 C165 1.408 . S
C162 C160 1.363 . S
C162 C163 1.370 . S
C162 C166 1.524 . S
C163 C155 1.503 . S
C163 C162 1.370 . S
C163 C164 1.403 1_455 S
C164 C163 1.403 1_655 S
C164 C165 1.404 1_655 S
C164 C167 1.539 . S
C165 C161 1.408 . S
C165 C164 1.404 1_455 S
C165 H177 0.930 1_455 S
C166 C162 1.524 . S
C166 H178 0.956 . S
C166 H179 0.961 . S
C166 H180 0.961 . S
C167 C164 1.539 . S
C167 H181 0.958 . S
C167 H182 0.961 . S
C167 H183 0.960 . S
H168 C152 0.931 . S
H169 C157 0.929 . S
H170 C158 0.960 . S
H171 C158 0.962 . S
H172 C158 0.960 . S
H173 C159 0.961 . S
H174 C159 0.961 . S
H175 C159 0.961 . S
H176 C160 0.931 . S
H177 C165 0.930 1_655 S
H178 C166 0.956 . S
H179 C166 0.961 . S
H180 C166 0.961 . S
H181 C167 0.958 . S
H182 C167 0.961 . S
H183 C167 0.960 . S
C184 C185 1.391 1_545 S
C184 C186 1.394 . S
C184 H200 0.931 . S
C185 C184 1.391 1_565 S
C185 C189 1.376 . S
C186 C184 1.394 . S
C186 C187 1.369 1_545 S
C186 C190 1.531 . S
C187 C186 1.369 1_565 S
C187 C188 1.410 . S
C187 C195 1.503 . S
C188 C187 1.410 . S
C188 C189 1.392 . S
C188 C191 1.511 . S
C189 C185 1.376 . S
C189 C188 1.392 . S
C189 H201 0.929 . S
C190 C186 1.531 . S
C190 H202 0.960 . S
C190 H203 0.962 . S
C190 H204 0.960 . S
C191 C188 1.511 . S
C191 H205 0.961 . S
C191 H206 0.961 . S
C191 H207 0.961 . S
C192 C193 1.370 . S
C192 C194 1.363 . S
C192 H208 0.931 1_565 S
C193 C192 1.370 . S
C193 C197 1.408 . S
C194 C192 1.363 . S
C194 C195 1.370 . S
C194 C198 1.524 1_565 S
C195 C187 1.503 . S
C195 C194 1.370 . S
C195 C196 1.403 . S
C196 C195 1.403 . S
C196 C197 1.404 . S
C196 C199 1.539 . S
C197 C193 1.408 . S
C197 C196 1.404 . S
C197 H209 0.930 . S
C198 C194 1.524 1_545 S
C198 H210 0.956 . S
C198 H211 0.961 1_545 S
C198 H212 0.961 . S
C199 C196 1.539 . S
C199 H213 0.958 . S
C199 H214 0.961 . S
C199 H215 0.960 . S
H200 C184 0.931 . S
H201 C189 0.929 . S
H202 C190 0.960 . S
H203 C190 0.962 . S
H204 C190 0.960 . S
H205 C191 0.961 . S
H206 C191 0.961 . S
H207 C191 0.961 . S
H208 C192 0.931 1_545 S
H209 C197 0.930 . S
H210 C198 0.956 . S
H211 C198 0.961 1_565 S
H212 C198 0.961 . S
H213 C199 0.958 . S
H214 C199 0.961 . S
H215 C199 0.960 . S
C216 C217 1.391 . S
C216 C218 1.394 . S
C216 H232 0.931 . S
C217 C216 1.391 . S
C217 C221 1.376 1_455 S
C218 C216 1.394 . S
C218 C219 1.369 . S
C218 C222 1.531 . S
C219 C218 1.369 . S
C219 C220 1.410 1_455 S
C219 C227 1.503 . S
C220 C219 1.410 1_655 S
C220 C221 1.392 . S
C220 C223 1.511 . S
C221 C217 1.376 1_655 S
C221 C220 1.392 . S
C221 H233 0.929 . S
C222 C218 1.531 . S
C222 H234 0.960 . S
C222 H235 0.962 . S
C222 H236 0.960 . S
C223 C220 1.511 . S
C223 H237 0.961 . S
C223 H238 0.961 . S
C223 H239 0.961 . S
C224 C225 1.370 . S
C224 C226 1.363 . S
C224 H240 0.931 . S
C225 C224 1.370 . S
C225 C229 1.408 . S
C226 C224 1.363 . S
C226 C227 1.370 . S
C226 C230 1.524 . S
C227 C219 1.503 . S
C227 C226 1.370 . S
C227 C228 1.403 . S
C228 C227 1.403 . S
C228 C229 1.404 . S
C228 C231 1.539 1_455 S
C229 C225 1.408 . S
C229 C228 1.404 . S
C229 H241 0.930 . S
C230 C226 1.524 . S
C230 H242 0.956 . S
C230 H243 0.961 . S
C230 H244 0.961 . S
C231 C228 1.539 1_655 S
C231 H245 0.958 1_655 S
C231 H246 0.961 . S
C231 H247 0.960 . S
H232 C216 0.931 . S
H233 C221 0.929 . S
H234 C222 0.960 . S
H235 C222 0.962 . S
H236 C222 0.960 . S
H237 C223 0.961 . S
H238 C223 0.961 . S
H239 C223 0.961 . S
H240 C224 0.931 . S
H241 C229 0.930 . S
H242 C230 0.956 . S
H243 C230 0.961 . S
H244 C230 0.961 . S
H245 C231 0.958 1_455 S
H246 C231 0.961 . S
H247 C231 0.960 . S
C248 C249 1.391 . S
C248 C250 1.394 . S
C248 H264 0.931 1_545 S
C249 C248 1.391 . S
C249 C253 1.376 . S
C250 C248 1.394 . S
C250 C251 1.369 . S
C250 C254 1.531 . S
C251 C250 1.369 . S
C251 C252 1.410 . S
C251 C259 1.503 . S
C252 C251 1.410 . S
C252 C253 1.392 . S
C252 C255 1.511 . S
C253 C249 1.376 . S
C253 C252 1.392 . S
C253 H265 0.929 . S
C254 C250 1.531 . S
C254 H266 0.960 . S
C254 H267 0.962 1_545 S
C254 H268 0.960 . S
C255 C252 1.511 . S
C255 H269 0.961 . S
C255 H270 0.961 . S
C255 H271 0.961 . S
C256 C257 1.370 1_565 S
C256 C258 1.363 . S
C256 H272 0.931 . S
C257 C256 1.370 1_545 S
C257 C261 1.408 . S
C258 C256 1.363 . S
C258 C259 1.370 1_565 S
C258 C262 1.524 . S
C259 C251 1.503 . S
C259 C258 1.370 1_545 S
C259 C260 1.403 . S
C260 C259 1.403 . S
C260 C261 1.404 . S
C260 C263 1.539 . S
C261 C257 1.408 . S
C261 C260 1.404 . S
C261 H273 0.930 . S
C262 C258 1.524 . S
C262 H274 0.956 . S
C262 H275 0.961 . S
C262 H276 0.961 . S
C263 C260 1.539 . S
C263 H277 0.958 . S
C263 H278 0.961 . S
C263 H279 0.960 . S
H264 C248 0.931 1_565 S
H265 C253 0.929 . S
H266 C254 0.960 . S
H267 C254 0.962 1_565 S
H268 C254 0.960 . S
H269 C255 0.961 . S
H270 C255 0.961 . S
H271 C255 0.961 . S
H272 C256 0.931 . S
H273 C261 0.930 . S
H274 C262 0.956 . S
H275 C262 0.961 . S
H276 C262 0.961 . S
H277 C263 0.958 . S
H278 C263 0.961 . S
H279 C263 0.960 . S
C280 C281 1.391 . S
C280 C282 1.394 . S
C280 H296 0.931 . S
C281 C280 1.391 . S
C281 C285 1.376 . S
C282 C280 1.394 . S
C282 C283 1.369 . S
C282 C286 1.531 . S
C283 C282 1.369 . S
C283 C284 1.410 . S
C283 C291 1.503 . S
C284 C283 1.410 . S
C284 C285 1.392 . S
C284 C287 1.511 . S
C285 C281 1.376 . S
C285 C284 1.392 . S
C285 H297 0.929 1_655 S
C286 C282 1.531 . S
C286 H298 0.960 . S
C286 H299 0.962 . S
C286 H300 0.960 . S
C287 C284 1.511 . S
C287 H301 0.961 1_655 S
C287 H302 0.961 1_655 S
C287 H303 0.961 . S
C288 C289 1.370 1_455 S
C288 C290 1.363 . S
C288 H304 0.931 . S
C289 C288 1.370 1_655 S
C289 C293 1.408 . S
C290 C288 1.363 . S
C290 C291 1.370 1_455 S
C290 C294 1.524 . S
C291 C283 1.503 . S
C291 C290 1.370 1_655 S
C291 C292 1.403 . S
C292 C291 1.403 . S
C292 C293 1.404 . S
C292 C295 1.539 . S
C293 C289 1.408 . S
C293 C292 1.404 . S
C293 H305 0.930 . S
C294 C290 1.524 . S
C294 H306 0.956 . S
C294 H307 0.961 . S
C294 H308 0.961 . S
C295 C292 1.539 . S
C295 H309 0.958 . S
C295 H310 0.961 . S
C295 H311 0.960 . S
H296 C280 0.931 . S
H297 C285 0.929 1_455 S
H298 C286 0.960 . S
H299 C286 0.962 . S
H300 C286 0.960 . S
H301 C287 0.961 1_455 S
H302 C287 0.961 1_455 S
H303 C287 0.961 . S
H304 C288 0.931 . S
H305 C293 0.930 . S
H306 C294 0.956 . S
H307 C294 0.961 . S
H308 C294 0.961 . S
H309 C295 0.958 . S
H310 C295 0.961 . S
H311 C295 0.960 . S
C65 C37 1.555 . S
C57 C13 1.550 . S
C97 C48 1.497 . S
C89 C15 1.567 . S
C129 C36 1.555 . S
C121 C1 1.553 . S
C161 C49 1.503 . S
C153 C27 1.566 1_455 S
C193 C51 1.552 . S
C185 C0 1.540 1_565 S
C225 C35 1.505 . S
C217 C26 1.565 . S
C257 C50 1.552 . S
C249 C12 1.545 . S
C281 C14 1.555 . S
C289 C34 1.518 . S
