# Generated by pormake.
# Topology csq, (4,8)-cn, num edge types: 1
# Building blocks:
#     Node 0, Type 0, BuildingBlock: KOZSID_clean_sbu_0, # of connection points: 4
#     Node 1, Type 0, BuildingBlock: KOZSID_clean_sbu_0, # of connection points: 4
#     Node 2, Type 0, BuildingBlock: KOZSID_clean_sbu_0, # of connection points: 4
#     Node 3, Type 0, BuildingBlock: KOZSID_clean_sbu_0, # of connection points: 4
#     Node 4, Type 0, BuildingBlock: KOZSID_clean_sbu_0, # of connection points: 4
#     Node 5, Type 0, BuildingBlock: KOZSID_clean_sbu_0, # of connection points: 4
#     Node 6, Type 1, BuildingBlock: TAGTUT_clean_sbu_1, # of connection points: 8
#     Node 7, Type 1, BuildingBlock: TAGTUT_clean_sbu_1, # of connection points: 8
#     Node 8, Type 1, BuildingBlock: TAGTUT_clean_sbu_1, # of connection points: 8
#     Edge 9, Type (0, 1), BuildingBlock: OJICUG_clean_linker_0, # of connection points: 2
#     Edge 10, Type (0, 1), BuildingBlock: OJICUG_clean_linker_0, # of connection points: 2
#     Edge 11, Type (0, 1), BuildingBlock: OJICUG_clean_linker_0, # of connection points: 2
#     Edge 12, Type (0, 1), BuildingBlock: OJICUG_clean_linker_0, # of connection points: 2
#     Edge 13, Type (0, 1), BuildingBlock: OJICUG_clean_linker_0, # of connection points: 2
#     Edge 14, Type (0, 1), BuildingBlock: OJICUG_clean_linker_0, # of connection points: 2
#     Edge 15, Type (0, 1), BuildingBlock: OJICUG_clean_linker_0, # of connection points: 2
#     Edge 16, Type (0, 1), BuildingBlock: OJICUG_clean_linker_0, # of connection points: 2
#     Edge 17, Type (0, 1), BuildingBlock: OJICUG_clean_linker_0, # of connection points: 2
#     Edge 18, Type (0, 1), BuildingBlock: OJICUG_clean_linker_0, # of connection points: 2
#     Edge 19, Type (0, 1), BuildingBlock: OJICUG_clean_linker_0, # of connection points: 2
#     Edge 20, Type (0, 1), BuildingBlock: OJICUG_clean_linker_0, # of connection points: 2
#     Edge 21, Type (0, 1), BuildingBlock: OJICUG_clean_linker_0, # of connection points: 2
#     Edge 22, Type (0, 1), BuildingBlock: OJICUG_clean_linker_0, # of connection points: 2
#     Edge 23, Type (0, 1), BuildingBlock: OJICUG_clean_linker_0, # of connection points: 2
#     Edge 24, Type (0, 1), BuildingBlock: OJICUG_clean_linker_0, # of connection points: 2
#     Edge 25, Type (0, 1), BuildingBlock: OJICUG_clean_linker_0, # of connection points: 2
#     Edge 26, Type (0, 1), BuildingBlock: OJICUG_clean_linker_0, # of connection points: 2
#     Edge 27, Type (0, 1), BuildingBlock: OJICUG_clean_linker_0, # of connection points: 2
#     Edge 28, Type (0, 1), BuildingBlock: OJICUG_clean_linker_0, # of connection points: 2
#     Edge 29, Type (0, 1), BuildingBlock: OJICUG_clean_linker_0, # of connection points: 2
#     Edge 30, Type (0, 1), BuildingBlock: OJICUG_clean_linker_0, # of connection points: 2
#     Edge 31, Type (0, 1), BuildingBlock: OJICUG_clean_linker_0, # of connection points: 2
#     Edge 32, Type (0, 1), BuildingBlock: OJICUG_clean_linker_0, # of connection points: 2
# Relax obj value: 0.038
# Max RMSD: 0.132
# Mean RMSD: 0.041
data_MOF--net-csq--node1-KOZSID_clean_sbu_0--node2-TAGTUT_clean_sbu_1--edge1-OJICUG_clean_linker_0
_symmetry_space_group_name_H-M    P1
_symmetry_Int_Tables_number       1
_symmetry_cell_setting            triclinic
loop_
_symmetry_equiv_pos_as_xyz
'x, y, z'
_cell_length_a     43.73583
_cell_length_b     43.092455
_cell_length_c     16.051011
_cell_angle_alpha  87.045577
_cell_angle_beta   98.783669
_cell_angle_gamma 119.81168
loop_
_atom_site_label
_atom_site_type_symbol
_atom_site_fract_x
_atom_site_fract_y
_atom_site_fract_z
_atom_type_partial_charge
C0 C 0.30887 0.52233 0.40691 0.0
C1 C 0.3321 0.55558 0.44562 0.0
C2 C 0.3318 0.58038 0.38961 0.0
C3 C 0.30858 0.56084 0.32029 0.0
N4 N 0.29406 0.52507 0.32856 0.0
Co5 Co 0.25646 0.48643 0.24772 0.0
N6 N 0.25539 0.52267 0.16616 0.0
C7 C 0.27576 0.55871 0.17393 0.0
C8 C 0.2708 0.57632 0.10417 0.0
C9 C 0.24585 0.54993 0.04836 0.0
C10 C 0.23696 0.51772 0.08783 0.0
N11 N 0.21836 0.44771 0.16783 0.0
C12 C 0.20248 0.45017 0.09058 0.0
C13 C 0.17783 0.41662 0.05466 0.0
C14 C 0.17839 0.3921 0.11106 0.0
C15 C 0.20308 0.41194 0.17798 0.0
N16 N 0.25792 0.45026 0.32924 0.0
C17 C 0.23842 0.41421 0.32089 0.0
C18 C 0.24401 0.39674 0.39031 0.0
C19 C 0.26868 0.42327 0.44628 0.0
C20 C 0.27644 0.45534 0.40753 0.0
N21 N 0.21948 0.48727 0.30665 0.0
C22 C 0.17313 0.48917 0.4113 0.0
C23 C 0.17035 0.45683 0.38793 0.0
C24 C 0.19313 0.45646 0.33548 0.0
C25 C 0.19878 0.5204 0.37767 0.0
C26 C 0.22124 0.51885 0.32583 0.0
N27 N 0.29337 0.48567 0.18782 0.0
C28 C 0.30976 0.45342 0.09985 0.0
C29 C 0.33654 0.48528 0.07104 0.0
C30 C 0.34271 0.51727 0.1072 0.0
C31 C 0.32139 0.51684 0.1653 0.0
C32 C 0.28906 0.4542 0.15816 0.0
H33 H 0.32743 0.54219 0.1895 0.0
H34 H 0.26917 0.42894 0.17712 0.0
H35 H 0.18919 0.43085 0.3201 0.0
H36 H 0.24006 0.54364 0.30248 0.0
C37 C 0.29968 0.5752 0.24697 0.0
C38 C 0.30569 0.48938 0.44216 0.0
C39 C 0.20842 0.48353 0.05116 0.0
C40 C 0.2134 0.39771 0.24959 0.0
H41 H 0.34811 0.56118 0.5072 0.0
H42 H 0.34685 0.6092 0.39819 0.0
H43 H 0.28378 0.60489 0.095 0.0
H44 H 0.23483 0.55378 0.98615 0.0
H45 H 0.16107 0.41029 0.9941 0.0
H46 H 0.16284 0.36325 0.10386 0.0
H47 H 0.23152 0.36817 0.39926 0.0
H48 H 0.28048 0.4197 0.50778 0.0
H49 H 0.15104 0.43165 0.41103 0.0
H50 H 0.20145 0.54613 0.39038 0.0
H51 H 0.3046 0.42773 0.07758 0.0
H52 H 0.36325 0.54289 0.08902 0.0
C53 C 0.84562 0.26349 0.08998 0.0
C54 C 0.87352 0.25645 0.09294 0.0
C55 C 0.86394 0.22524 0.13428 0.0
C56 C 0.83115 0.21529 0.15519 0.0
N57 N 0.81866 0.23767 0.12775 0.0
Co58 Co 0.77525 0.23672 0.15748 0.0
N59 N 0.76515 0.1954 0.23379 0.0
C60 C 0.78184 0.17586 0.24156 0.0
C61 C 0.76751 0.14717 0.29242 0.0
C62 C 0.73996 0.14832 0.31895 0.0
C63 C 0.73934 0.17822 0.2837 0.0
N64 N 0.73335 0.23742 0.19193 0.0
C65 C 0.71268 0.21875 0.25179 0.0
C66 C 0.68897 0.23047 0.26136 0.0
C67 C 0.69417 0.25664 0.2043 0.0
C68 C 0.72108 0.25998 0.16412 0.0
N69 N 0.78462 0.27709 0.07886 0.0
C70 C 0.7634 0.29145 0.05541 0.0
C71 C 0.77752 0.31961 0.00252 0.0
C72 C 0.80992 0.32384 0.99315 0.0
C73 C 0.81384 0.29808 0.04154 0.0
N74 N 0.74433 0.20244 0.06214 0.0
C75 C 0.70101 0.15522 0.92468 0.0
C76 C 0.69324 0.18027 0.95249 0.0
C77 C 0.71489 0.20322 0.02072 0.0
C78 C 0.73112 0.15447 0.96582 0.0
C79 C 0.75225 0.17812 0.03373 0.0
N80 N 0.80623 0.27123 0.24955 0.0
C81 C 0.83689 0.33281 0.29661 0.0
C82 C 0.86341 0.32828 0.34645 0.0
C83 C 0.85878 0.29368 0.35319 0.0
C84 C 0.83011 0.26561 0.30416 0.0
C85 C 0.80819 0.30387 0.25111 0.0
H86 H 0.82847 0.23996 0.30831 0.0
H87 H 0.78899 0.30903 0.2136 0.0
H88 H 0.70663 0.22084 0.03909 0.0
H89 H 0.77451 0.17575 0.06235 0.0
C90 C 0.81256 0.18666 0.20565 0.0
C91 C 0.84648 0.2958 0.05435 0.0
C92 C 0.71354 0.18892 0.29877 0.0
C93 C 0.73493 0.28337 0.09864 0.0
H94 H 0.89877 0.27269 0.07033 0.0
H95 H 0.87973 0.21227 0.15067 0.0
H96 H 0.77629 0.12788 0.30899 0.0
H97 H 0.72239 0.12901 0.35948 0.0
H98 H 0.66965 0.22091 0.30467 0.0
H99 H 0.68001 0.27148 0.19346 0.0
H100 H 0.76677 0.33673 0.97871 0.0
H101 H 0.82916 0.34455 0.9579 0.0
H102 H 0.66959 0.18122 0.92419 0.0
H103 H 0.73807 0.13529 0.94665 0.0
H104 H 0.83867 0.35874 0.28952 0.0
H105 H 0.87748 0.28826 0.39455 0.0
C106 C 0.57113 0.74499 0.19234 0.0
C107 C 0.60314 0.75194 0.24102 0.0
C108 C 0.62861 0.78453 0.21861 0.0
C109 C 0.61104 0.79547 0.15698 0.0
N110 N 0.57559 0.77242 0.14019 0.0
Co111 Co 0.54161 0.7751 0.04395 0.0
N112 N 0.58045 0.81952 0.99994 0.0
C113 C 0.61493 0.83773 0.03607 0.0
C114 C 0.63463 0.86976 0.99985 0.0
C115 C 0.6112 0.87284 0.93826 0.0
C116 C 0.57837 0.84217 0.93971 0.0
N117 N 0.5079 0.77668 0.94557 0.0
C118 C 0.51286 0.80238 0.88772 0.0
C119 C 0.48176 0.79329 0.83253 0.0
C120 C 0.45594 0.76162 0.85859 0.0
C121 C 0.47269 0.75292 0.9274 0.0
N122 N 0.50268 0.73151 0.08961 0.0
C123 C 0.46747 0.716 0.0606 0.0
C124 C 0.44727 0.68529 0.10135 0.0
C125 C 0.4711 0.68047 0.15826 0.0
C126 C 0.50465 0.70847 0.14866 0.0
N127 N 0.53292 0.80657 0.11054 0.0
C128 C 0.53136 0.86729 0.15807 0.0
C129 C 0.50164 0.83951 0.11051 0.0
C130 C 0.50258 0.80898 0.08999 0.0
C131 C 0.55967 0.86172 0.1911 0.0
C132 C 0.55982 0.8313 0.1671 0.0
N133 N 0.55049 0.74396 0.97795 0.0
C134 C 0.52755 0.68484 0.92024 0.0
C135 C 0.56168 0.68883 0.93376 0.0
C136 C 0.59051 0.72236 0.96112 0.0
C137 C 0.58434 0.74975 0.98044 0.0
C138 C 0.52261 0.71263 0.94225 0.0
H139 H 0.60716 0.77481 1.00133 0.0
H140 H 0.49588 0.7076 0.93354 0.0
H141 H 0.47907 0.78852 0.05419 0.0
H142 H 0.58261 0.82922 0.19276 0.0
C143 C 0.62742 0.82541 0.10796 0.0
C144 C 0.53769 0.71107 0.19377 0.0
C145 C 0.5455 0.83703 0.88714 0.0
C146 C 0.45531 0.72647 0.98457 0.0
H147 H 0.60815 0.73472 0.2855 0.0
H148 H 0.65693 0.79769 0.24109 0.0
H149 H 0.66235 0.88939 0.01877 0.0
H150 H 0.61749 0.89592 0.89952 0.0
H151 H 0.47773 0.80885 0.78139 0.0
H152 H 0.42784 0.74782 0.8337 0.0
H153 H 0.41888 0.66714 0.08715 0.0
H154 H 0.46467 0.65803 0.19945 0.0
H155 H 0.47823 0.84162 0.08666 0.0
H156 H 0.58211 0.88106 0.2341 0.0
H157 H 0.50452 0.66027 0.89364 0.0
H158 H 0.61763 0.72735 0.96998 0.0
C159 C 0.82944 0.5604 0.24387 0.0
C160 C 0.8562 0.59433 0.27327 0.0
C161 C 0.85315 0.61807 0.2179 0.0
C162 C 0.82512 0.5975 0.15748 0.0
N163 N 0.80997 0.56197 0.17089 0.0
Co164 Co 0.77003 0.52259 0.09504 0.0
N165 N 0.76415 0.5577 0.01643 0.0
C166 C 0.78265 0.59378 0.02526 0.0
C167 C 0.77166 0.61078 0.96362 0.0
C168 C 0.74424 0.58396 0.91267 0.0
C169 C 0.74027 0.55201 0.94595 0.0
N170 N 0.73148 0.48324 0.01742 0.0
C171 C 0.71381 0.48506 0.94209 0.0
C172 C 0.69192 0.45152 0.90343 0.0
C173 C 0.69548 0.42751 0.95697 0.0
C174 C 0.71945 0.44776 0.02457 0.0
N175 N 0.77445 0.48738 0.17544 0.0
C176 C 0.75412 0.45129 0.16948 0.0
C177 C 0.7603 0.43421 0.23882 0.0
C178 C 0.78608 0.46096 0.29254 0.0
C179 C 0.79457 0.49294 0.25207 0.0
N180 N 0.73487 0.5223 0.16062 0.0
C181 C 0.69003 0.52175 0.27085 0.0
C182 C 0.68402 0.48993 0.23468 0.0
C183 C 0.70635 0.49084 0.17956 0.0
C184 C 0.71805 0.55387 0.24771 0.0
C185 C 0.73983 0.55355 0.19294 0.0
N186 N 0.80527 0.52288 0.02939 0.0
C187 C 0.82903 0.49124 0.96571 0.0
C188 C 0.85124 0.52196 0.92474 0.0
C189 C 0.85047 0.55328 0.93847 0.0
C190 C 0.82775 0.55322 0.99095 0.0
C191 C 0.80658 0.49231 0.0175 0.0
H192 H 0.82888 0.57811 0.99901 0.0
H193 H 0.79058 0.46805 0.04728 0.0
H194 H 0.7004 0.46576 0.1539 0.0
H195 H 0.76075 0.57895 0.17826 0.0
C196 C 0.81105 0.61081 0.09039 0.0
C197 C 0.82376 0.52752 0.28674 0.0
C198 C 0.71289 0.51691 0.91011 0.0
C199 C 0.72986 0.4342 0.09729 0.0
H200 H 0.87592 0.60144 0.32899 0.0
H201 H 0.86925 0.64696 0.22172 0.0
H202 H 0.78235 0.63929 0.9565 0.0
H203 H 0.72901 0.58768 0.85737 0.0
H204 H 0.6742 0.44511 0.84412 0.0
H205 H 0.68167 0.39869 0.94849 0.0
H206 H 0.74762 0.40572 0.24902 0.0
H207 H 0.79782 0.45735 0.35407 0.0
H208 H 0.66256 0.46427 0.24977 0.0
H209 H 0.72313 0.57937 0.27114 0.0
H210 H 0.82942 0.46653 0.95946 0.0
H211 H 0.86725 0.57788 0.90862 0.0
C212 C 0.28105 0.84084 0.22194 0.0
C213 C 0.27632 0.87015 0.22883 0.0
C214 C 0.24838 0.86524 0.16908 0.0
C215 C 0.23724 0.8331 0.12993 0.0
N216 N 0.25662 0.81729 0.16043 0.0
Co217 Co 0.24612 0.76801 0.12914 0.0
N218 N 0.20209 0.7586 0.05005 0.0
C219 C 0.19175 0.78284 0.02502 0.0
C220 C 0.16122 0.76918 0.96762 0.0
C221 C 0.15125 0.73404 0.95601 0.0
C222 C 0.1761 0.72801 0.00814 0.0
N223 N 0.23436 0.71782 0.10244 0.0
C224 C 0.20387 0.69009 0.06265 0.0
C225 C 0.20494 0.65833 0.06994 0.0
C226 C 0.23738 0.66638 0.11363 0.0
C227 C 0.25399 0.70226 0.13229 0.0
N228 N 0.2907 0.77771 0.20641 0.0
C229 C 0.30556 0.75651 0.21576 0.0
C230 C 0.33696 0.77053 0.27005 0.0
C231 C 0.34246 0.80256 0.29757 0.0
C232 C 0.31372 0.80615 0.259 0.0
N233 N 0.21821 0.74948 0.22216 0.0
C234 C 0.16598 0.70884 0.32148 0.0
C235 C 0.19556 0.70423 0.32477 0.0
C236 C 0.22181 0.7254 0.27565 0.0
C237 C 0.16516 0.73692 0.27659 0.0
C238 C 0.19157 0.75693 0.22746 0.0
N239 N 0.27382 0.78661 0.03304 0.0
C240 C 0.30857 0.78245 0.93448 0.0
C241 C 0.31031 0.81234 0.89238 0.0
C242 C 0.29339 0.82888 0.92158 0.0
C243 C 0.27569 0.81586 0.99104 0.0
C244 C 0.29031 0.77011 0.00412 0.0
H245 H 0.26434 0.83061 0.00957 0.0
H246 H 0.29033 0.74744 0.03352 0.0
H247 H 0.24358 0.72046 0.27744 0.0
H248 H 0.18846 0.7765 0.1898 0.0
C249 C 0.20835 0.81656 0.06521 0.0
C250 C 0.30965 0.83708 0.27408 0.0
C251 C 0.17348 0.69266 0.01712 0.0
C252 C 0.28717 0.72176 0.18165 0.0
H253 H 0.29144 0.89274 0.27276 0.0
H254 H 0.23716 0.88274 0.15663 0.0
H255 H 0.14709 0.78277 0.93994 0.0
H256 H 0.1279 0.71496 0.91491 0.0
H257 H 0.18429 0.63181 0.04746 0.0
H258 H 0.2472 0.64803 0.13204 0.0
H259 H 0.35333 0.75838 0.28951 0.0
H260 H 0.36497 0.8209 0.34181 0.0
H261 H 0.19738 0.68321 0.36134 0.0
H262 H 0.1428 0.74149 0.27371 0.0
H263 H 0.32166 0.76895 0.91469 0.0
H264 H 0.29501 0.85296 0.89339 0.0
C265 C 0.50298 0.20297 0.35563 0.0
C266 C 0.53443 0.21032 0.40726 0.0
C267 C 0.56081 0.24087 0.37859 0.0
C268 C 0.54394 0.25048 0.31178 0.0
N269 N 0.50824 0.2285 0.29789 0.0
Co270 Co 0.47355 0.23059 0.20381 0.0
N271 N 0.51283 0.27101 0.1516 0.0
C272 C 0.54826 0.28499 0.17567 0.0
C273 C 0.56845 0.31442 0.13113 0.0
C274 C 0.54443 0.32016 0.0774 0.0
C275 C 0.51092 0.29386 0.09265 0.0
N276 N 0.4388 0.23368 0.11123 0.0
C277 C 0.44405 0.26053 0.05728 0.0
C278 C 0.41221 0.25497 0.0103 0.0
C279 C 0.38585 0.22397 0.03694 0.0
C280 C 0.40294 0.21258 0.09883 0.0
N281 N 0.43425 0.18943 0.25471 0.0
C282 C 0.39897 0.17333 0.22556 0.0
C283 C 0.37888 0.14288 0.2668 0.0
C284 C 0.40282 0.1385 0.32384 0.0
C285 C 0.43632 0.1669 0.31458 0.0
N286 N 0.46974 0.26591 0.27063 0.0
C287 C 0.46428 0.32103 0.34409 0.0
C288 C 0.43388 0.28917 0.31236 0.0
C289 C 0.43719 0.2621 0.27732 0.0
C290 C 0.49747 0.32405 0.34087 0.0
C291 C 0.49957 0.29648 0.30435 0.0
N292 N 0.47725 0.19497 0.13703 0.0
C293 C 0.44779 0.1399 0.05303 0.0
C294 C 0.47792 0.1357 0.06953 0.0
C295 C 0.50852 0.16328 0.1159 0.0
C296 C 0.5078 0.19268 0.14717 0.0
C297 C 0.44798 0.1692 0.08718 0.0
H298 H 0.53213 0.21273 0.18138 0.0
H299 H 0.42376 0.16989 0.07357 0.0
H300 H 0.413 0.2386 0.25428 0.0
H301 H 0.52567 0.30076 0.30279 0.0
C302 C 0.56123 0.27523 0.25156 0.0
C303 C 0.46958 0.16962 0.35737 0.0
C304 C 0.47812 0.29328 0.05544 0.0
C305 C 0.38594 0.18496 0.15325 0.0
H306 H 0.53818 0.19408 0.45704 0.0
H307 H 0.58917 0.25298 0.39969 0.0
H308 H 0.59711 0.33149 0.14147 0.0
H309 H 0.55077 0.34232 0.03533 0.0
H310 H 0.40799 0.27237 0.96484 0.0
H311 H 0.35744 0.21246 0.01761 0.0
H312 H 0.35046 0.12476 0.25328 0.0
H313 H 0.39624 0.11582 0.36409 0.0
H314 H 0.40744 0.28517 0.31293 0.0
H315 H 0.52193 0.34749 0.3669 0.0
H316 H 0.4238 0.12062 0.01391 0.0
H317 H 0.53289 0.16207 0.13009 0.0
C318 C 0.96947 0.40597 0.91563 0.0
C319 C 0.0806 0.47078 0.86424 0.0
C320 C 0.05312 0.57743 0.81433 0.0
Mg321 Mg 0.00878 0.42895 0.75793 0.0
O322 O 0.99977 0.46655 0.77083 0.0
Mg323 Mg 0.01924 0.49476 0.87943 0.0
Mg324 Mg 0.01562 0.50562 0.69044 0.0
O325 O 0.02937 0.54459 0.6096 0.0
Mg326 Mg 0.01359 0.5773 0.62821 0.0
Mg327 Mg 0.00598 0.51421 0.50321 0.0
C328 C 0.97763 0.43399 0.56961 0.0
C329 C 0.07173 0.50153 0.57922 0.0
O330 O 0.98369 0.43907 0.93936 0.0
O331 O 0.97632 0.39664 0.8494 0.0
O332 O 0.06663 0.48633 0.89611 0.0
O333 O 0.06408 0.44842 0.80241 0.0
O334 O 0.98727 0.41679 0.62513 0.0
O335 O 0.98184 0.46485 0.58525 0.0
C336 C 0.95784 0.51039 0.79041 0.0
O337 O 0.96802 0.51178 0.71887 0.0
O338 O 0.97309 0.50435 0.85822 0.0
O339 O 0.03458 0.56829 0.44081 0.0
O340 O 0.04096 0.61045 0.53078 0.0
O341 O 0.95713 0.51996 0.49116 0.0
C342 C 0.0463 0.60109 0.46222 0.0
O343 O 0.95689 0.55643 0.5831 0.0
O344 O 0.03977 0.59219 0.7601 0.0
C345 C 0.94153 0.53435 0.52024 0.0
O346 O 0.04943 0.54646 0.80017 0.0
O347 O 0.06366 0.49944 0.65435 0.0
O348 O 0.05411 0.50741 0.51567 0.0
C349 C 0.46905 0.02096 0.8829 0.0
C350 C 0.41528 0.92092 0.72798 0.0
C351 C 0.54237 0.9505 0.6747 0.0
Mg352 Mg 0.44308 0.99953 0.69247 0.0
O353 O 0.4898 0.00774 0.70359 0.0
Mg354 Mg 0.50302 0.97859 0.78654 0.0
Mg355 Mg 0.50567 0.99988 0.60184 0.0
O356 O 0.52274 0.9933 0.50086 0.0
Mg357 Mg 0.56995 0.00185 0.51567 0.0
Mg358 Mg 0.51061 0.0245 0.42077 0.0
C359 C 0.47006 0.04979 0.53541 0.0
C360 C 0.43608 0.95547 0.45655 0.0
O361 O 0.48975 0.00745 0.88616 0.0
O362 O 0.44829 0.01962 0.81597 0.0
O363 O 0.44634 0.93124 0.76866 0.0
O364 O 0.40775 0.94257 0.68476 0.0
O365 O 0.44745 0.03494 0.58752 0.0
O366 O 0.49545 0.04287 0.53397 0.0
C367 C 0.57634 0.04461 0.74035 0.0
O368 O 0.56239 0.04201 0.66293 0.0
O369 O 0.55887 0.02414 0.79639 0.0
O370 O 0.5244 0.99885 0.32023 0.0
O371 O 0.56346 0.9831 0.38991 0.0
O372 O 0.56809 0.07099 0.43446 0.0
C373 C 0.54434 0.98469 0.32255 0.0
O374 O 0.60759 0.05932 0.5131 0.0
O375 O 0.5652 0.96503 0.62248 0.0
C376 C 0.60008 0.08057 0.46745 0.0
O377 O 0.51707 0.95781 0.67388 0.0
O378 O 0.44803 0.95665 0.53565 0.0
O379 O 0.45519 0.97846 0.40649 0.0
C380 C 0.54464 0.5984 0.40103 0.0
C381 C 0.59623 0.5326 0.4716 0.0
C382 C 0.46399 0.43069 0.53721 0.0
Mg383 Mg 0.57657 0.57843 0.56991 0.0
O384 O 0.52955 0.54112 0.56034 0.0
Mg385 Mg 0.50963 0.51045 0.45539 0.0
Mg386 Mg 0.51138 0.50504 0.64947 0.0
O387 O 0.49145 0.46913 0.73744 0.0
Mg388 Mg 0.44251 0.43542 0.72109 0.0
Mg389 Mg 0.51062 0.49963 0.84267 0.0
C390 C 0.55929 0.57839 0.76042 0.0
C391 C 0.57787 0.50412 0.76981 0.0
O392 O 0.52502 0.56474 0.38057 0.0
O393 O 0.56566 0.60927 0.47133 0.0
O394 O 0.56309 0.51486 0.44278 0.0
O395 O 0.60823 0.55787 0.52686 0.0
O396 O 0.57924 0.59175 0.70202 0.0
O397 O 0.52979 0.54842 0.75025 0.0
C398 C 0.44297 0.50269 0.53389 0.0
O399 O 0.45756 0.5028 0.6094 0.0
O400 O 0.45836 0.50578 0.47027 0.0
O401 O 0.49263 0.44477 0.91206 0.0
O402 O 0.45073 0.40306 0.81639 0.0
O403 O 0.45743 0.49666 0.85947 0.0
C404 C 0.47166 0.41188 0.88676 0.0
O405 O 0.41114 0.45516 0.77495 0.0
O406 O 0.44169 0.4188 0.5911 0.0
C407 C 0.42389 0.47918 0.8341 0.0
O408 O 0.49284 0.46134 0.54785 0.0
O409 O 0.56597 0.50651 0.69279 0.0
O410 O 0.56099 0.50176 0.82988 0.0
C411 C 0.11315 0.462 0.46305 0.0
C412 C 0.14863 0.49011 0.46698 0.0
H413 H 0.06154 0.44327 0.4985 0.0
C414 C 0.15972 0.51963 0.52186 0.0
H415 H 0.10302 0.43902 0.42114 0.0
C416 C 0.13557 0.52187 0.56694 0.0
C417 C 0.09983 0.49448 0.55919 0.0
H418 H 0.18685 0.54162 0.52817 0.0
H419 H 0.1443 0.54603 0.60347 0.0
C420 C 0.08922 0.46424 0.50817 0.0
C421 C 0.64882 0.14848 0.30909 0.0
C422 C 0.68427 0.16533 0.3488 0.0
H423 H 0.59472 0.10997 0.31656 0.0
C424 C 0.69156 0.15717 0.43317 0.0
H425 H 0.64234 0.15384 0.24403 0.0
C426 C 0.6642 0.13063 0.47446 0.0
C427 C 0.62886 0.11293 0.43321 0.0
H428 H 0.7187 0.17001 0.46553 0.0
H429 H 0.6708 0.12331 0.53744 0.0
C430 C 0.62149 0.1232 0.35111 0.0
C431 C 0.52805 0.6479 0.20898 0.0
C432 C 0.53707 0.68084 0.24625 0.0
H433 H 0.5231 0.59576 0.22802 0.0
C434 C 0.54679 0.68546 0.33406 0.0
H435 H 0.52022 0.64352 0.14137 0.0
C436 C 0.54935 0.65877 0.383 0.0
C437 C 0.54127 0.62607 0.34614 0.0
H438 H 0.55324 0.71023 0.36476 0.0
H439 H 0.55752 0.66378 0.45038 0.0
C440 C 0.52984 0.62065 0.2585 0.0
C441 C 0.86947 0.5097 0.33357 0.0
C442 C 0.85216 0.5279 0.35179 0.0
H443 H 0.90939 0.49576 0.3737 0.0
C444 C 0.8619 0.54565 0.4307 0.0
H445 H 0.86237 0.4957 0.27341 0.0
C446 C 0.89005 0.54674 0.48856 0.0
C447 C 0.90805 0.52924 0.46884 0.0
H448 H 0.84837 0.55936 0.44654 0.0
H449 H 0.89826 0.56194 0.54728 0.0
C450 C 0.89649 0.50979 0.39166 0.0
C451 C 0.35962 0.90017 0.28595 0.0
C452 C 0.33936 0.86837 0.3261 0.0
H453 H 0.40446 0.95244 0.29575 0.0
C454 C 0.34915 0.86611 0.41321 0.0
H455 H 0.35292 0.90263 0.21901 0.0
C456 C 0.37974 0.89479 0.45818 0.0
C457 C 0.40074 0.92623 0.41663 0.0
H458 H 0.33384 0.84174 0.44561 0.0
H459 H 0.38755 0.89186 0.52416 0.0
C460 C 0.38944 0.92872 0.33051 0.0
C461 C 0.48746 0.38648 0.37837 0.0
C462 C 0.46148 0.3502 0.38325 0.0
H463 H 0.50838 0.44056 0.42139 0.0
C464 C 0.43357 0.3419 0.42934 0.0
H465 H 0.50884 0.3942 0.3416 0.0
C466 C 0.4328 0.36864 0.47323 0.0
C467 C 0.46019 0.40452 0.47357 0.0
H468 H 0.41313 0.31445 0.43547 0.0
H469 H 0.4117 0.36067 0.5111 0.0
C470 C 0.48691 0.41327 0.42317 0.0
C471 C 0.56554 0.88007 0.76783 0.0
C472 C 0.54511 0.86673 0.83397 0.0
H473 H 0.58142 0.91714 0.66787 0.0
C474 C 0.52397 0.88152 0.84859 0.0
H475 H 0.58165 0.86888 0.75414 0.0
C476 C 0.52331 0.90899 0.79817 0.0
C477 C 0.54414 0.92269 0.73238 0.0
H478 H 0.50781 0.87167 0.89897 0.0
H479 H 0.50639 0.91936 0.81066 0.0
C480 C 0.56538 0.90785 0.71845 0.0
C481 C 0.67387 0.52467 0.78586 0.0
C482 C 0.6782 0.51204 0.86707 0.0
H483 H 0.63805 0.53212 0.68945 0.0
C484 C 0.64877 0.49382 0.90973 0.0
H485 H 0.69624 0.53812 0.75116 0.0
C486 C 0.61593 0.48931 0.87397 0.0
C487 C 0.61163 0.50381 0.79532 0.0
H488 H 0.65133 0.48354 0.97196 0.0
H489 H 0.59404 0.47542 0.91007 0.0
C490 C 0.64064 0.52078 0.75015 0.0
C491 C 0.10711 0.64936 0.98564 0.0
C492 C 0.14204 0.66042 0.97148 0.0
H493 H 0.05101 0.6142 0.94613 0.0
C494 C 0.14692 0.64143 0.91102 0.0
H495 H 0.10256 0.66356 0.0317 0.0
C496 C 0.11774 0.61214 0.86597 0.0
C497 C 0.08285 0.60203 0.87757 0.0
H498 H 0.17337 0.64976 0.8972 0.0
H499 H 0.12238 0.5988 0.81796 0.0
C500 C 0.07771 0.6209 0.93772 0.0
C501 C 0.44521 0.07046 0.0225 0.0
C502 C 0.47732 0.1034 0.03624 0.0
H503 H 0.41746 0.01811 0.96352 0.0
C504 C 0.50813 0.10546 0.01312 0.0
H505 H 0.42111 0.06699 0.04203 0.0
C506 C 0.50621 0.07648 0.97186 0.0
C507 C 0.4734 0.04504 0.95145 0.0
H508 H 0.53339 0.13013 0.02173 0.0
H509 H 0.52977 0.07989 0.9492 0.0
C510 C 0.44315 0.04195 0.97925 0.0
C511 C 0.34291 0.45867 0.93992 0.0
C512 C 0.35805 0.48514 0.00532 0.0
H513 H 0.35101 0.4363 0.83388 0.0
C514 C 0.39419 0.51138 0.00754 0.0
H515 H 0.31509 0.4383 0.93433 0.0
C516 C 0.41464 0.51049 0.94896 0.0
C517 C 0.3999 0.48333 0.88552 0.0
H518 H 0.40729 0.5321 0.05659 0.0
H519 H 0.44258 0.53064 0.95545 0.0
C520 C 0.36345 0.4578 0.88103 0.0
C521 C 0.89045 0.31638 0.95303 0.0
C522 C 0.87904 0.32407 0.02209 0.0
H523 H 0.92844 0.33548 0.86784 0.0
C524 C 0.8985 0.35858 0.05955 0.0
H525 H 0.87562 0.29004 0.92271 0.0
C526 C 0.92887 0.38514 0.02761 0.0
C527 C 0.94032 0.37747 0.95796 0.0
H528 H 0.88998 0.365 0.11292 0.0
H529 H 0.94288 0.41176 0.05631 0.0
C530 C 0.92088 0.34254 0.92202 0.0
C531 C 0.86762 0.4919 0.82281 0.0
C532 C 0.87687 0.52192 0.87348 0.0
H533 H 0.88653 0.46515 0.75328 0.0
C534 C 0.91194 0.55082 0.88078 0.0
H535 H 0.84071 0.46943 0.8148 0.0
C536 C 0.93776 0.54852 0.84433 0.0
C537 C 0.92903 0.51749 0.79931 0.0
H538 H 0.92018 0.57419 0.91986 0.0
H539 H 0.96521 0.56987 0.85694 0.0
C540 C 0.89358 0.48967 0.78616 0.0
C541 C 0.32442 0.84811 0.76178 0.0
C542 C 0.33377 0.83002 0.82729 0.0
H543 H 0.34333 0.89154 0.67713 0.0
C544 C 0.36862 0.83559 0.84103 0.0
H545 H 0.29741 0.84343 0.74789 0.0
C546 C 0.39478 0.86273 0.79962 0.0
C547 C 0.38653 0.88494 0.74477 0.0
H548 H 0.37667 0.82185 0.89027 0.0
H549 H 0.42207 0.86857 0.81744 0.0
C550 C 0.35069 0.87557 0.72096 0.0
C551 C 0.48715 0.35554 0.06059 0.0
C552 C 0.47924 0.32518 0.01336 0.0
H553 H 0.49106 0.40743 0.05757 0.0
C554 C 0.47066 0.3244 0.92573 0.0
H555 H 0.49406 0.35657 0.12855 0.0
C556 C 0.46804 0.35259 0.88594 0.0
C557 C 0.4748 0.3827 0.93264 0.0
H558 H 0.46503 0.30144 0.88828 0.0
H559 H 0.46087 0.35081 0.81799 0.0
C560 C 0.48525 0.38438 0.02029 0.0
C561 C 0.1669 0.46904 0.91478 0.0
C562 C 0.17813 0.48355 0.99725 0.0
H563 H 0.12626 0.45311 0.80685 0.0
C564 C 0.15914 0.49651 0.03215 0.0
H565 H 0.18177 0.45933 0.88707 0.0
C566 C 0.12833 0.49371 0.98667 0.0
C567 C 0.11557 0.47726 0.9059 0.0
H568 H 0.16758 0.50779 0.09586 0.0
H569 H 0.11377 0.50313 0.01671 0.0
C570 C 0.1354 0.46554 0.86936 0.0
C571 C 0.66406 0.09116 0.87934 0.0
C572 C 0.67493 0.12709 0.86176 0.0
H573 H 0.62402 0.03662 0.85277 0.0
C574 C 0.65672 0.13519 0.7916 0.0
H575 H 0.67737 0.08402 0.933 0.0
C576 C 0.62606 0.10781 0.74509 0.0
C577 C 0.61319 0.07224 0.76926 0.0
H578 H 0.66492 0.16273 0.77607 0.0
H579 H 0.61088 0.11467 0.69537 0.0
C580 C 0.63337 0.06401 0.83371 0.0
C581 C 0.54038 0.62319 0.92193 0.0
C582 C 0.56685 0.65885 0.91278 0.0
H583 H 0.51737 0.56866 0.88127 0.0
C584 C 0.59608 0.66544 0.87389 0.0
H585 H 0.51839 0.61706 0.95538 0.0
C586 C 0.59619 0.63754 0.83443 0.0
C587 C 0.56657 0.60283 0.83092 0.0
H588 H 0.61729 0.6924 0.86664 0.0
H589 H 0.61766 0.64405 0.79875 0.0
C590 C 0.54008 0.59531 0.88072 0.0
C591 C 0.48656 0.1216 0.37229 0.0
C592 C 0.46964 0.13854 0.40146 0.0
H593 H 0.50008 0.07987 0.39172 0.0
C594 C 0.45316 0.12621 0.47358 0.0
H595 H 0.49975 0.13109 0.31693 0.0
C596 C 0.45247 0.09667 0.51458 0.0
C597 C 0.46922 0.07937 0.48592 0.0
H598 H 0.44069 0.13943 0.49809 0.0
H599 H 0.43951 0.08802 0.57039 0.0
C600 C 0.4866 0.09232 0.41467 0.0
C601 C 0.35516 0.48269 0.4118 0.0
C602 C 0.33938 0.49006 0.47152 0.0
H603 H 0.39987 0.48035 0.38551 0.0
C604 C 0.35665 0.49983 0.55478 0.0
H605 H 0.34206 0.4752 0.3472 0.0
C606 C 0.39038 0.50317 0.57734 0.0
C607 C 0.4067 0.49702 0.51614 0.0
H608 H 0.34445 0.50556 0.60122 0.0
H609 H 0.40399 0.51147 0.64122 0.0
C610 C 0.38837 0.48598 0.43387 0.0
C611 C 0.92819 0.35992 0.40761 0.0
C612 C 0.89532 0.35928 0.39173 0.0
H613 H 0.98094 0.38503 0.47682 0.0
C614 C 0.89298 0.388 0.42202 0.0
H615 H 0.93148 0.3391 0.38248 0.0
C616 C 0.92193 0.41522 0.472 0.0
C617 C 0.9533 0.41357 0.49494 0.0
H618 H 0.86822 0.38853 0.41199 0.0
H619 H 0.91849 0.43558 0.49924 0.0
C620 C 0.9568 0.38659 0.45994 0.0
C621 C 0.56566 0.93332 0.18756 0.0
C622 C 0.53274 0.90126 0.17718 0.0
H623 H 0.59527 0.98625 0.24263 0.0
C624 C 0.50222 0.90147 0.19396 0.0
H625 H 0.58942 0.93451 0.17173 0.0
C626 C 0.50544 0.93184 0.23033 0.0
C627 C 0.53922 0.96186 0.25193 0.0
H628 H 0.47641 0.8774 0.18641 0.0
H629 H 0.4822 0.9302 0.25088 0.0
C630 C 0.569 0.96323 0.22623 0.0
C631 C 0.68063 0.54701 0.39718 0.0
C632 C 0.66665 0.52178 0.32966 0.0
H633 H 0.66961 0.57001 0.49604 0.0
C634 C 0.62983 0.49761 0.31647 0.0
H635 H 0.70898 0.56551 0.41065 0.0
C636 C 0.6074 0.49978 0.36637 0.0
C637 C 0.62107 0.52639 0.43054 0.0
H638 H 0.61794 0.47795 0.26504 0.0
H639 H 0.57903 0.48147 0.35189 0.0
C640 C 0.65811 0.54934 0.44695 0.0
C641 C 0.1169 0.69162 0.40575 0.0
C642 C 0.13403 0.68178 0.35442 0.0
H643 H 0.07457 0.67342 0.47916 0.0
C644 C 0.11931 0.64589 0.32956 0.0
H645 H 0.12764 0.7194 0.42404 0.0
C646 C 0.08873 0.61976 0.35919 0.0
C647 C 0.07271 0.62914 0.41515 0.0
H648 H 0.13164 0.63803 0.28758 0.0
H649 H 0.07884 0.59209 0.34156 0.0
C650 C 0.08644 0.66541 0.43632 0.0
loop_
_geom_bond_atom_site_label_1
_geom_bond_atom_site_label_2
_geom_bond_distance
_geom_bond_site_symmetry_2
_ccdc_geom_bond_type
C0 C1 1.443 . S
C0 N4 1.376 . S
C0 C38 1.389 . S
C1 C0 1.443 . S
C1 C2 1.340 . S
C1 H41 0.951 . S
C2 C1 1.340 . S
C2 C3 1.439 . S
C2 H42 0.950 . S
C3 C2 1.439 . S
C3 N4 1.374 . S
C3 C37 1.395 . S
N4 C0 1.376 . S
N4 C3 1.374 . S
N4 Co5 2.008 . S
Co5 N4 2.008 . S
Co5 N6 1.995 . S
Co5 N11 2.008 . S
Co5 N16 1.995 . S
Co5 N21 2.282 . S
Co5 N27 2.282 . S
N6 Co5 1.995 . S
N6 C7 1.376 . S
N6 C10 1.383 . S
C7 N6 1.376 . S
C7 C8 1.446 . S
C7 C37 1.391 . S
C8 C7 1.446 . S
C8 C9 1.339 . S
C8 H43 0.949 . S
C9 C8 1.339 . S
C9 C10 1.439 . S
C9 H44 0.950 . S
C10 N6 1.383 . S
C10 C9 1.439 . S
C10 C39 1.392 . S
N11 Co5 2.008 . S
N11 C12 1.376 . S
N11 C15 1.374 . S
C12 N11 1.376 . S
C12 C13 1.443 . S
C12 C39 1.389 . S
C13 C12 1.443 . S
C13 C14 1.340 . S
C13 H45 0.951 . S
C14 C13 1.340 . S
C14 C15 1.439 . S
C14 H46 0.950 . S
C15 N11 1.374 . S
C15 C14 1.439 . S
C15 C40 1.395 . S
N16 Co5 1.995 . S
N16 C17 1.376 . S
N16 C20 1.383 . S
C17 N16 1.376 . S
C17 C18 1.446 . S
C17 C40 1.391 . S
C18 C17 1.446 . S
C18 C19 1.339 . S
C18 H47 0.949 . S
C19 C18 1.339 . S
C19 C20 1.439 . S
C19 H48 0.950 . S
C20 N16 1.383 . S
C20 C19 1.439 . S
C20 C38 1.392 . S
N21 Co5 2.282 . S
N21 C24 1.332 . S
N21 C26 1.332 . S
C22 C23 1.386 . S
C22 C25 1.388 . S
C23 C22 1.386 . S
C23 C24 1.382 . S
C23 H49 0.950 . S
C24 N21 1.332 . S
C24 C23 1.382 . S
C24 H35 0.952 . S
C25 C22 1.388 . S
C25 C26 1.382 . S
C25 H50 0.950 . S
C26 N21 1.332 . S
C26 C25 1.382 . S
C26 H36 0.948 . S
N27 Co5 2.282 . S
N27 C31 1.332 . S
N27 C32 1.332 . S
C28 C29 1.388 . S
C28 C32 1.382 . S
C28 H51 0.950 . S
C29 C28 1.388 . S
C29 C30 1.386 . S
C30 C29 1.386 . S
C30 C31 1.382 . S
C30 H52 0.950 . S
C31 N27 1.332 . S
C31 C30 1.382 . S
C31 H33 0.952 . S
C32 N27 1.332 . S
C32 C28 1.382 . S
C32 H34 0.948 . S
H33 C31 0.952 . S
H34 C32 0.948 . S
H35 C24 0.952 . S
H36 C26 0.948 . S
C37 C3 1.395 . S
C37 C7 1.391 . S
C38 C0 1.389 . S
C38 C20 1.392 . S
C39 C10 1.392 . S
C39 C12 1.389 . S
C40 C15 1.395 . S
C40 C17 1.391 . S
H41 C1 0.951 . S
H42 C2 0.950 . S
H43 C8 0.949 . S
H44 C9 0.950 . S
H45 C13 0.951 . S
H46 C14 0.950 . S
H47 C18 0.949 . S
H48 C19 0.950 . S
H49 C23 0.950 . S
H50 C25 0.950 . S
H51 C28 0.950 . S
H52 C30 0.950 . S
C53 C54 1.443 . S
C53 N57 1.376 . S
C53 C91 1.389 . S
C54 C53 1.443 . S
C54 C55 1.340 . S
C54 H94 0.951 . S
C55 C54 1.340 . S
C55 C56 1.439 . S
C55 H95 0.950 . S
C56 C55 1.439 . S
C56 N57 1.374 . S
C56 C90 1.395 . S
N57 C53 1.376 . S
N57 C56 1.374 . S
N57 Co58 2.008 . S
Co58 N57 2.008 . S
Co58 N59 1.995 . S
Co58 N64 2.008 . S
Co58 N69 1.995 . S
Co58 N74 2.282 . S
Co58 N80 2.282 . S
N59 Co58 1.995 . S
N59 C60 1.376 . S
N59 C63 1.383 . S
C60 N59 1.376 . S
C60 C61 1.446 . S
C60 C90 1.391 . S
C61 C60 1.446 . S
C61 C62 1.339 . S
C61 H96 0.949 . S
C62 C61 1.339 . S
C62 C63 1.439 . S
C62 H97 0.950 . S
C63 N59 1.383 . S
C63 C62 1.439 . S
C63 C92 1.392 . S
N64 Co58 2.008 . S
N64 C65 1.376 . S
N64 C68 1.374 . S
C65 N64 1.376 . S
C65 C66 1.443 . S
C65 C92 1.389 . S
C66 C65 1.443 . S
C66 C67 1.340 . S
C66 H98 0.951 . S
C67 C66 1.340 . S
C67 C68 1.439 . S
C67 H99 0.950 . S
C68 N64 1.374 . S
C68 C67 1.439 . S
C68 C93 1.395 . S
N69 Co58 1.995 . S
N69 C70 1.376 . S
N69 C73 1.383 . S
C70 N69 1.376 . S
C70 C71 1.446 . S
C70 C93 1.391 . S
C71 C70 1.446 . S
C71 C72 1.339 . S
C71 H100 0.949 . S
C72 C71 1.339 . S
C72 C73 1.439 . S
C72 H101 0.950 . S
C73 N69 1.383 . S
C73 C72 1.439 . S
C73 C91 1.392 . S
N74 Co58 2.282 . S
N74 C77 1.332 . S
N74 C79 1.332 . S
C75 C76 1.386 . S
C75 C78 1.388 1_556 S
C76 C75 1.386 . S
C76 C77 1.382 1_556 S
C76 H102 0.950 . S
C77 N74 1.332 . S
C77 C76 1.382 1_554 S
C77 H88 0.952 . S
C78 C75 1.388 1_554 S
C78 C79 1.382 . S
C78 H103 0.950 . S
C79 N74 1.332 . S
C79 C78 1.382 . S
C79 H89 0.948 . S
N80 Co58 2.282 . S
N80 C84 1.332 . S
N80 C85 1.332 . S
C81 C82 1.388 . S
C81 C85 1.382 . S
C81 H104 0.950 . S
C82 C81 1.388 . S
C82 C83 1.386 . S
C83 C82 1.386 . S
C83 C84 1.382 . S
C83 H105 0.950 . S
C84 N80 1.332 . S
C84 C83 1.382 . S
C84 H86 0.952 . S
C85 N80 1.332 . S
C85 C81 1.382 . S
C85 H87 0.948 . S
H86 C84 0.952 . S
H87 C85 0.948 . S
H88 C77 0.952 . S
H89 C79 0.948 . S
C90 C56 1.395 . S
C90 C60 1.391 . S
C91 C53 1.389 . S
C91 C73 1.392 . S
C92 C63 1.392 . S
C92 C65 1.389 . S
C93 C68 1.395 . S
C93 C70 1.391 . S
H94 C54 0.951 . S
H95 C55 0.950 . S
H96 C61 0.949 . S
H97 C62 0.950 . S
H98 C66 0.951 . S
H99 C67 0.950 . S
H100 C71 0.949 . S
H101 C72 0.950 . S
H102 C76 0.950 . S
H103 C78 0.950 . S
H104 C81 0.950 . S
H105 C83 0.950 . S
C106 C107 1.443 . S
C106 N110 1.376 . S
C106 C144 1.389 . S
C107 C106 1.443 . S
C107 C108 1.340 . S
C107 H147 0.951 . S
C108 C107 1.340 . S
C108 C109 1.439 . S
C108 H148 0.950 . S
C109 C108 1.439 . S
C109 N110 1.374 . S
C109 C143 1.395 . S
N110 C106 1.376 . S
N110 C109 1.374 . S
N110 Co111 2.008 . S
Co111 N110 2.008 . S
Co111 N112 1.995 1_554 S
Co111 N117 2.008 1_554 S
Co111 N122 1.995 . S
Co111 N127 2.282 . S
Co111 N133 2.282 1_554 S
N112 Co111 1.995 1_556 S
N112 C113 1.376 . S
N112 C116 1.383 . S
C113 N112 1.376 . S
C113 C114 1.446 . S
C113 C143 1.391 1_556 S
C114 C113 1.446 . S
C114 C115 1.339 . S
C114 H149 0.949 . S
C115 C114 1.339 . S
C115 C116 1.439 . S
C115 H150 0.950 . S
C116 N112 1.383 . S
C116 C115 1.439 . S
C116 C145 1.392 . S
N117 Co111 2.008 1_556 S
N117 C118 1.376 . S
N117 C121 1.374 . S
C118 N117 1.376 . S
C118 C119 1.443 . S
C118 C145 1.389 . S
C119 C118 1.443 . S
C119 C120 1.340 . S
C119 H151 0.951 . S
C120 C119 1.340 . S
C120 C121 1.439 . S
C120 H152 0.950 . S
C121 N117 1.374 . S
C121 C120 1.439 . S
C121 C146 1.395 1_556 S
N122 Co111 1.995 . S
N122 C123 1.376 . S
N122 C126 1.383 . S
C123 N122 1.376 . S
C123 C124 1.446 . S
C123 C146 1.391 . S
C124 C123 1.446 . S
C124 C125 1.339 . S
C124 H153 0.949 . S
C125 C124 1.339 . S
C125 C126 1.439 . S
C125 H154 0.950 . S
C126 N122 1.383 . S
C126 C125 1.439 . S
C126 C144 1.392 . S
N127 Co111 2.282 . S
N127 C130 1.332 . S
N127 C132 1.332 . S
C128 C129 1.386 . S
C128 C131 1.388 . S
C129 C128 1.386 . S
C129 C130 1.382 . S
C129 H155 0.950 . S
C130 N127 1.332 . S
C130 C129 1.382 . S
C130 H141 0.952 . S
C131 C128 1.388 . S
C131 C132 1.382 . S
C131 H156 0.950 . S
C132 N127 1.332 . S
C132 C131 1.382 . S
C132 H142 0.948 . S
N133 Co111 2.282 1_556 S
N133 C137 1.332 . S
N133 C138 1.332 . S
C134 C135 1.388 . S
C134 C138 1.382 . S
C134 H157 0.950 . S
C135 C134 1.388 . S
C135 C136 1.386 . S
C136 C135 1.386 . S
C136 C137 1.382 . S
C136 H158 0.950 . S
C137 N133 1.332 . S
C137 C136 1.382 . S
C137 H139 0.952 . S
C138 N133 1.332 . S
C138 C134 1.382 . S
C138 H140 0.948 . S
H139 C137 0.952 . S
H140 C138 0.948 . S
H141 C130 0.952 . S
H142 C132 0.948 . S
C143 C109 1.395 . S
C143 C113 1.391 1_554 S
C144 C106 1.389 . S
C144 C126 1.392 . S
C145 C116 1.392 . S
C145 C118 1.389 . S
C146 C121 1.395 1_554 S
C146 C123 1.391 . S
H147 C107 0.951 . S
H148 C108 0.950 . S
H149 C114 0.949 . S
H150 C115 0.950 . S
H151 C119 0.951 . S
H152 C120 0.950 . S
H153 C124 0.949 . S
H154 C125 0.950 . S
H155 C129 0.950 . S
H156 C131 0.950 . S
H157 C134 0.950 . S
H158 C136 0.950 . S
C159 C160 1.443 . S
C159 N163 1.376 . S
C159 C197 1.389 . S
C160 C159 1.443 . S
C160 C161 1.340 . S
C160 H200 0.951 . S
C161 C160 1.340 . S
C161 C162 1.439 . S
C161 H201 0.950 . S
C162 C161 1.439 . S
C162 N163 1.374 . S
C162 C196 1.395 . S
N163 C159 1.376 . S
N163 C162 1.374 . S
N163 Co164 2.008 . S
Co164 N163 2.008 . S
Co164 N165 1.995 . S
Co164 N170 2.008 . S
Co164 N175 1.995 . S
Co164 N180 2.282 . S
Co164 N186 2.282 . S
N165 Co164 1.995 . S
N165 C166 1.376 . S
N165 C169 1.383 1_554 S
C166 N165 1.376 . S
C166 C167 1.446 1_554 S
C166 C196 1.391 . S
C167 C166 1.446 1_556 S
C167 C168 1.339 . S
C167 H202 0.949 . S
C168 C167 1.339 . S
C168 C169 1.439 . S
C168 H203 0.950 . S
C169 N165 1.383 1_556 S
C169 C168 1.439 . S
C169 C198 1.392 . S
N170 Co164 2.008 . S
N170 C171 1.376 1_554 S
N170 C174 1.374 . S
C171 N170 1.376 1_556 S
C171 C172 1.443 . S
C171 C198 1.389 . S
C172 C171 1.443 . S
C172 C173 1.340 1_556 S
C172 H204 0.951 . S
C173 C172 1.340 1_554 S
C173 C174 1.439 . S
C173 H205 0.950 . S
C174 N170 1.374 . S
C174 C173 1.439 . S
C174 C199 1.395 . S
N175 Co164 1.995 . S
N175 C176 1.376 . S
N175 C179 1.383 . S
C176 N175 1.376 . S
C176 C177 1.446 . S
C176 C199 1.391 . S
C177 C176 1.446 . S
C177 C178 1.339 . S
C177 H206 0.949 . S
C178 C177 1.339 . S
C178 C179 1.439 . S
C178 H207 0.950 . S
C179 N175 1.383 . S
C179 C178 1.439 . S
C179 C197 1.392 . S
N180 Co164 2.282 . S
N180 C183 1.332 . S
N180 C185 1.332 . S
C181 C182 1.386 . S
C181 C184 1.388 . S
C182 C181 1.386 . S
C182 C183 1.382 . S
C182 H208 0.950 . S
C183 N180 1.332 . S
C183 C182 1.382 . S
C183 H194 0.952 . S
C184 C181 1.388 . S
C184 C185 1.382 . S
C184 H209 0.950 . S
C185 N180 1.332 . S
C185 C184 1.382 . S
C185 H195 0.948 . S
N186 Co164 2.282 . S
N186 C190 1.332 1_554 S
N186 C191 1.331 1_554 S
C187 C188 1.388 . S
C187 C191 1.388 . S
C187 H210 0.950 . S
C188 C187 1.388 . S
C188 C189 1.386 . S
C189 C188 1.386 . S
C189 C190 1.382 . S
C189 H211 0.950 . S
C190 N186 1.332 1_556 S
C190 C189 1.382 . S
C190 H192 0.952 . S
C191 N186 1.331 1_556 S
C191 C187 1.388 . S
C191 H193 0.943 1_556 S
H192 C190 0.952 . S
H193 C191 0.943 1_554 S
H194 C183 0.952 . S
H195 C185 0.948 . S
C196 C162 1.395 . S
C196 C166 1.391 . S
C197 C159 1.389 . S
C197 C179 1.392 . S
C198 C169 1.392 . S
C198 C171 1.389 . S
C199 C174 1.395 . S
C199 C176 1.391 . S
H200 C160 0.951 . S
H201 C161 0.950 . S
H202 C167 0.949 . S
H203 C168 0.950 . S
H204 C172 0.951 . S
H205 C173 0.950 . S
H206 C177 0.949 . S
H207 C178 0.950 . S
H208 C182 0.950 . S
H209 C184 0.950 . S
H210 C187 0.950 . S
H211 C189 0.950 . S
C212 C213 1.443 . S
C212 N216 1.376 . S
C212 C250 1.389 . S
C213 C212 1.443 . S
C213 C214 1.340 . S
C213 H253 0.951 . S
C214 C213 1.340 . S
C214 C215 1.439 . S
C214 H254 0.950 . S
C215 C214 1.439 . S
C215 N216 1.374 . S
C215 C249 1.395 . S
N216 C212 1.376 . S
N216 C215 1.374 . S
N216 Co217 2.008 . S
Co217 N216 2.008 . S
Co217 N218 1.995 . S
Co217 N223 2.008 . S
Co217 N228 1.995 . S
Co217 N233 2.282 . S
Co217 N239 2.282 . S
N218 Co217 1.995 . S
N218 C219 1.376 . S
N218 C222 1.383 1_554 S
C219 N218 1.376 . S
C219 C220 1.446 1_554 S
C219 C249 1.391 . S
C220 C219 1.446 1_556 S
C220 C221 1.339 . S
C220 H255 0.949 . S
C221 C220 1.339 . S
C221 C222 1.439 . S
C221 H256 0.950 . S
C222 N218 1.383 1_556 S
C222 C221 1.439 . S
C222 C251 1.392 . S
N223 Co217 2.008 . S
N223 C224 1.376 . S
N223 C227 1.374 . S
C224 N223 1.376 . S
C224 C225 1.443 . S
C224 C251 1.389 1_554 S
C225 C224 1.443 . S
C225 C226 1.340 . S
C225 H257 0.951 1_554 S
C226 C225 1.340 . S
C226 C227 1.439 . S
C226 H258 0.950 . S
C227 N223 1.374 . S
C227 C226 1.439 . S
C227 C252 1.395 . S
N228 Co217 1.995 . S
N228 C229 1.376 . S
N228 C232 1.383 . S
C229 N228 1.376 . S
C229 C230 1.446 . S
C229 C252 1.391 . S
C230 C229 1.446 . S
C230 C231 1.339 . S
C230 H259 0.949 . S
C231 C230 1.339 . S
C231 C232 1.439 . S
C231 H260 0.950 . S
C232 N228 1.383 . S
C232 C231 1.439 . S
C232 C250 1.392 . S
N233 Co217 2.282 . S
N233 C236 1.332 . S
N233 C238 1.332 . S
C234 C235 1.386 . S
C234 C237 1.388 . S
C235 C234 1.386 . S
C235 C236 1.382 . S
C235 H261 0.950 . S
C236 N233 1.332 . S
C236 C235 1.382 . S
C236 H247 0.952 . S
C237 C234 1.388 . S
C237 C238 1.382 . S
C237 H262 0.950 . S
C238 N233 1.332 . S
C238 C237 1.382 . S
C238 H248 0.948 . S
N239 Co217 2.282 . S
N239 C243 1.332 1_554 S
N239 C244 1.332 . S
C240 C241 1.388 . S
C240 C244 1.382 1_556 S
C240 H263 0.950 . S
C241 C240 1.388 . S
C241 C242 1.386 . S
C242 C241 1.386 . S
C242 C243 1.382 . S
C242 H264 0.950 . S
C243 N239 1.332 1_556 S
C243 C242 1.382 . S
C243 H245 0.952 . S
C244 N239 1.332 . S
C244 C240 1.382 1_554 S
C244 H246 0.948 . S
H245 C243 0.952 . S
H246 C244 0.948 . S
H247 C236 0.952 . S
H248 C238 0.948 . S
C249 C215 1.395 . S
C249 C219 1.391 . S
C250 C212 1.389 . S
C250 C232 1.392 . S
C251 C222 1.392 . S
C251 C224 1.389 1_556 S
C252 C227 1.395 . S
C252 C229 1.391 . S
H253 C213 0.951 . S
H254 C214 0.950 . S
H255 C220 0.949 . S
H256 C221 0.950 . S
H257 C225 0.951 1_556 S
H258 C226 0.950 . S
H259 C230 0.949 . S
H260 C231 0.950 . S
H261 C235 0.950 . S
H262 C237 0.950 . S
H263 C240 0.950 . S
H264 C242 0.950 . S
C265 C266 1.443 . S
C265 N269 1.376 . S
C265 C303 1.389 . S
C266 C265 1.443 . S
C266 C267 1.340 . S
C266 H306 0.951 . S
C267 C266 1.340 . S
C267 C268 1.439 . S
C267 H307 0.950 . S
C268 C267 1.439 . S
C268 N269 1.374 . S
C268 C302 1.395 . S
N269 C265 1.376 . S
N269 C268 1.374 . S
N269 Co270 2.008 . S
Co270 N269 2.008 . S
Co270 N271 1.995 . S
Co270 N276 2.008 . S
Co270 N281 1.995 . S
Co270 N286 2.282 . S
Co270 N292 2.282 . S
N271 Co270 1.995 . S
N271 C272 1.376 . S
N271 C275 1.383 . S
C272 N271 1.376 . S
C272 C273 1.446 . S
C272 C302 1.391 . S
C273 C272 1.446 . S
C273 C274 1.339 . S
C273 H308 0.949 . S
C274 C273 1.339 . S
C274 C275 1.439 . S
C274 H309 0.950 . S
C275 N271 1.383 . S
C275 C274 1.439 . S
C275 C304 1.392 . S
N276 Co270 2.008 . S
N276 C277 1.376 . S
N276 C280 1.374 . S
C277 N276 1.376 . S
C277 C278 1.443 . S
C277 C304 1.389 . S
C278 C277 1.443 . S
C278 C279 1.340 . S
C278 H310 0.951 . S
C279 C278 1.340 . S
C279 C280 1.439 . S
C279 H311 0.950 . S
C280 N276 1.374 . S
C280 C279 1.439 . S
C280 C305 1.395 . S
N281 Co270 1.995 . S
N281 C282 1.376 . S
N281 C285 1.383 . S
C282 N281 1.376 . S
C282 C283 1.446 . S
C282 C305 1.391 . S
C283 C282 1.446 . S
C283 C284 1.339 . S
C283 H312 0.949 . S
C284 C283 1.339 . S
C284 C285 1.439 . S
C284 H313 0.950 . S
C285 N281 1.383 . S
C285 C284 1.439 . S
C285 C303 1.392 . S
N286 Co270 2.282 . S
N286 C289 1.332 . S
N286 C291 1.332 . S
C287 C288 1.386 . S
C287 C290 1.388 . S
C288 C287 1.386 . S
C288 C289 1.382 . S
C288 H314 0.950 . S
C289 N286 1.332 . S
C289 C288 1.382 . S
C289 H300 0.952 . S
C290 C287 1.388 . S
C290 C291 1.382 . S
C290 H315 0.950 . S
C291 N286 1.332 . S
C291 C290 1.382 . S
C291 H301 0.948 . S
N292 Co270 2.282 . S
N292 C296 1.332 . S
N292 C297 1.332 . S
C293 C294 1.388 . S
C293 C297 1.382 . S
C293 H316 0.950 . S
C294 C293 1.388 . S
C294 C295 1.386 . S
C295 C294 1.386 . S
C295 C296 1.382 . S
C295 H317 0.950 . S
C296 N292 1.332 . S
C296 C295 1.382 . S
C296 H298 0.952 . S
C297 N292 1.332 . S
C297 C293 1.382 . S
C297 H299 0.948 . S
H298 C296 0.952 . S
H299 C297 0.948 . S
H300 C289 0.952 . S
H301 C291 0.948 . S
C302 C268 1.395 . S
C302 C272 1.391 . S
C303 C265 1.389 . S
C303 C285 1.392 . S
C304 C275 1.392 . S
C304 C277 1.389 . S
C305 C280 1.395 . S
C305 C282 1.391 . S
H306 C266 0.951 . S
H307 C267 0.950 . S
H308 C273 0.949 . S
H309 C274 0.950 . S
H310 C278 0.951 . S
H311 C279 0.950 . S
H312 C283 0.949 . S
H313 C284 0.950 . S
H314 C288 0.950 . S
H315 C290 0.950 . S
H316 C293 0.950 . S
H317 C295 0.950 . S
C318 O330 1.241 . S
C318 O331 1.280 . S
C319 O332 1.277 . S
C319 O333 1.245 . S
C320 O344 1.247 . S
C320 O346 1.289 . S
Mg321 O322 1.932 1_655 S
Mg321 O331 1.992 . S
Mg321 O333 1.978 1_655 S
Mg321 O334 2.066 . S
O322 Mg321 1.932 1_455 S
O322 Mg323 1.986 . S
O322 Mg324 1.917 . S
Mg323 O322 1.986 . S
Mg323 O330 2.042 1_455 S
Mg323 O332 2.041 . S
Mg323 O338 2.038 1_455 S
Mg323 O346 2.238 . S
Mg324 O322 1.917 . S
Mg324 O325 1.917 . S
Mg324 O335 2.106 1_455 S
Mg324 O337 2.079 1_455 S
Mg324 O346 2.106 . S
Mg324 O347 2.079 . S
O325 Mg324 1.917 . S
O325 Mg326 1.926 . S
O325 Mg327 1.986 . S
Mg326 O325 1.926 . S
Mg326 O340 1.984 . S
Mg326 O343 1.988 1_455 S
Mg326 O344 2.061 . S
Mg327 O325 1.986 . S
Mg327 O335 2.238 1_455 S
Mg327 O339 2.042 . S
Mg327 O341 2.041 1_455 S
Mg327 O348 2.038 . S
C328 O334 1.247 . S
C328 O335 1.289 . S
C329 O347 1.245 . S
C329 O348 1.274 . S
O330 C318 1.241 . S
O330 Mg323 2.042 1_655 S
O331 C318 1.280 . S
O331 Mg321 1.992 . S
O332 C319 1.277 . S
O332 Mg323 2.041 . S
O333 C319 1.245 . S
O333 Mg321 1.978 1_455 S
O334 Mg321 2.066 . S
O334 C328 1.247 . S
O335 Mg324 2.106 1_655 S
O335 Mg327 2.238 1_655 S
O335 C328 1.289 . S
C336 O337 1.245 . S
C336 O338 1.274 . S
O337 Mg324 2.079 1_655 S
O337 C336 1.245 . S
O338 Mg323 2.038 1_655 S
O338 C336 1.274 . S
O339 Mg327 2.042 . S
O339 C342 1.241 . S
O340 Mg326 1.984 . S
O340 C342 1.280 . S
O341 Mg327 2.041 1_655 S
O341 C345 1.277 . S
C342 O339 1.241 . S
C342 O340 1.280 . S
O343 Mg326 1.988 1_655 S
O343 C345 1.245 . S
O344 C320 1.247 . S
O344 Mg326 2.061 . S
C345 O341 1.277 . S
C345 O343 1.245 . S
O346 C320 1.289 . S
O346 Mg323 2.238 . S
O346 Mg324 2.106 . S
O347 Mg324 2.079 . S
O347 C329 1.245 . S
O348 Mg327 2.038 . S
O348 C329 1.274 . S
C349 O361 1.241 . S
C349 O362 1.280 . S
C350 O363 1.277 . S
C350 O364 1.245 . S
C351 O375 1.247 . S
C351 O377 1.289 . S
Mg352 O353 1.926 . S
Mg352 O362 1.984 . S
Mg352 O364 1.988 1_545 S
Mg352 O365 2.061 . S
O353 Mg352 1.926 . S
O353 Mg354 1.976 1_545 S
O353 Mg355 1.917 . S
Mg354 O353 1.976 1_565 S
Mg354 O361 2.022 1_565 S
Mg354 O363 2.049 . S
Mg354 O369 2.031 1_565 S
Mg354 O377 2.255 . S
Mg355 O353 1.917 . S
Mg355 O356 1.917 1_545 S
Mg355 O366 2.106 . S
Mg355 O368 2.079 . S
Mg355 O377 2.106 1_545 S
Mg355 O378 2.079 1_545 S
O356 Mg355 1.917 1_565 S
O356 Mg357 1.926 . S
O356 Mg358 1.986 1_565 S
Mg357 O356 1.926 . S
Mg357 O371 1.984 . S
Mg357 O374 1.988 1_565 S
Mg357 O375 2.061 . S
Mg358 O356 1.986 1_545 S
Mg358 O366 2.238 . S
Mg358 O370 2.042 1_545 S
Mg358 O372 2.041 . S
Mg358 O379 2.038 1_545 S
C359 O365 1.247 . S
C359 O366 1.289 . S
C360 O378 1.245 . S
C360 O379 1.274 . S
O361 C349 1.241 . S
O361 Mg354 2.022 1_545 S
O362 C349 1.280 . S
O362 Mg352 1.984 . S
O363 C350 1.277 . S
O363 Mg354 2.049 . S
O364 C350 1.245 . S
O364 Mg352 1.988 1_565 S
O365 Mg352 2.061 . S
O365 C359 1.247 . S
O366 Mg355 2.106 . S
O366 Mg358 2.238 . S
O366 C359 1.289 . S
C367 O368 1.245 . S
C367 O369 1.274 . S
O368 Mg355 2.079 . S
O368 C367 1.245 . S
O369 Mg354 2.031 1_545 S
O369 C367 1.274 . S
O370 Mg358 2.042 1_565 S
O370 C373 1.241 . S
O371 Mg357 1.984 . S
O371 C373 1.280 . S
O372 Mg358 2.041 . S
O372 C376 1.277 . S
C373 O370 1.241 . S
C373 O371 1.280 . S
O374 Mg357 1.988 1_545 S
O374 C376 1.245 . S
O375 C351 1.247 . S
O375 Mg357 2.061 . S
C376 O372 1.277 . S
C376 O374 1.245 . S
O377 C351 1.289 . S
O377 Mg354 2.255 . S
O377 Mg355 2.106 1_565 S
O378 Mg355 2.079 1_565 S
O378 C360 1.245 . S
O379 Mg358 2.038 1_565 S
O379 C360 1.274 . S
C380 O392 1.241 . S
C380 O393 1.280 . S
C381 O394 1.277 . S
C381 O395 1.245 . S
C382 O406 1.247 . S
C382 O408 1.289 . S
Mg383 O384 1.926 . S
Mg383 O393 1.984 . S
Mg383 O395 1.988 . S
Mg383 O396 2.061 . S
O384 Mg383 1.926 . S
O384 Mg385 1.986 . S
O384 Mg386 1.917 . S
Mg385 O384 1.986 . S
Mg385 O392 2.042 . S
Mg385 O394 2.041 . S
Mg385 O400 2.038 . S
Mg385 O408 2.238 . S
Mg386 O384 1.917 . S
Mg386 O387 1.917 . S
Mg386 O397 2.106 . S
Mg386 O399 2.079 . S
Mg386 O408 2.106 . S
Mg386 O409 2.079 . S
O387 Mg386 1.917 . S
O387 Mg388 1.926 . S
O387 Mg389 1.986 . S
Mg388 O387 1.926 . S
Mg388 O402 1.984 . S
Mg388 O405 1.988 . S
Mg388 O406 2.061 . S
Mg389 O387 1.986 . S
Mg389 O397 2.238 . S
Mg389 O401 2.042 . S
Mg389 O403 2.041 . S
Mg389 O410 2.038 . S
C390 O396 1.247 . S
C390 O397 1.289 . S
C391 O409 1.245 . S
C391 O410 1.274 . S
O392 C380 1.241 . S
O392 Mg385 2.042 . S
O393 C380 1.280 . S
O393 Mg383 1.984 . S
O394 C381 1.277 . S
O394 Mg385 2.041 . S
O395 C381 1.245 . S
O395 Mg383 1.988 . S
O396 Mg383 2.061 . S
O396 C390 1.247 . S
O397 Mg386 2.106 . S
O397 Mg389 2.238 . S
O397 C390 1.289 . S
C398 O399 1.245 . S
C398 O400 1.274 . S
O399 Mg386 2.079 . S
O399 C398 1.245 . S
O400 Mg385 2.038 . S
O400 C398 1.274 . S
O401 Mg389 2.042 . S
O401 C404 1.241 . S
O402 Mg388 1.984 . S
O402 C404 1.280 . S
O403 Mg389 2.041 . S
O403 C407 1.277 . S
C404 O401 1.241 . S
C404 O402 1.280 . S
O405 Mg388 1.988 . S
O405 C407 1.245 . S
O406 C382 1.247 . S
O406 Mg388 2.061 . S
C407 O403 1.277 . S
C407 O405 1.245 . S
O408 C382 1.289 . S
O408 Mg385 2.238 . S
O408 Mg386 2.106 . S
O409 Mg386 2.079 . S
O409 C391 1.245 . S
O410 Mg389 2.038 . S
O410 C391 1.274 . S
C411 C412 1.387 . S
C411 H415 0.950 . S
C411 C420 1.390 . S
C412 C411 1.387 . S
C412 C414 1.387 . S
H413 C420 0.950 . S
C414 C412 1.387 . S
C414 C416 1.390 . S
C414 H418 0.950 . S
H415 C411 0.950 . S
C416 C414 1.390 . S
C416 C417 1.387 . S
C416 H419 0.950 . S
C417 C416 1.387 . S
C417 C420 1.387 . S
H418 C414 0.950 . S
H419 C416 0.950 . S
C420 C411 1.390 . S
C420 H413 0.950 . S
C420 C417 1.387 . S
C421 C422 1.387 . S
C421 H425 0.950 . S
C421 C430 1.390 . S
C422 C421 1.387 . S
C422 C424 1.387 . S
H423 C430 0.950 . S
C424 C422 1.387 . S
C424 C426 1.390 . S
C424 H428 0.950 . S
H425 C421 0.950 . S
C426 C424 1.390 . S
C426 C427 1.387 . S
C426 H429 0.950 . S
C427 C426 1.387 . S
C427 C430 1.387 . S
H428 C424 0.950 . S
H429 C426 0.950 . S
C430 C421 1.390 . S
C430 H423 0.950 . S
C430 C427 1.387 . S
C431 C432 1.387 . S
C431 H435 0.950 . S
C431 C440 1.390 . S
C432 C431 1.387 . S
C432 C434 1.387 . S
H433 C440 0.950 . S
C434 C432 1.387 . S
C434 C436 1.390 . S
C434 H438 0.950 . S
H435 C431 0.950 . S
C436 C434 1.390 . S
C436 C437 1.387 . S
C436 H439 0.950 . S
C437 C436 1.387 . S
C437 C440 1.387 . S
H438 C434 0.950 . S
H439 C436 0.950 . S
C440 C431 1.390 . S
C440 H433 0.950 . S
C440 C437 1.387 . S
C441 C442 1.387 . S
C441 H445 0.950 . S
C441 C450 1.390 . S
C442 C441 1.387 . S
C442 C444 1.387 . S
H443 C450 0.950 . S
C444 C442 1.387 . S
C444 C446 1.390 . S
C444 H448 0.950 . S
H445 C441 0.950 . S
C446 C444 1.390 . S
C446 C447 1.387 . S
C446 H449 0.950 . S
C447 C446 1.387 . S
C447 C450 1.387 . S
H448 C444 0.950 . S
H449 C446 0.950 . S
C450 C441 1.390 . S
C450 H443 0.950 . S
C450 C447 1.387 . S
C451 C452 1.387 . S
C451 H455 0.950 . S
C451 C460 1.390 . S
C452 C451 1.387 . S
C452 C454 1.387 . S
H453 C460 0.950 . S
C454 C452 1.387 . S
C454 C456 1.390 . S
C454 H458 0.950 . S
H455 C451 0.950 . S
C456 C454 1.390 . S
C456 C457 1.387 . S
C456 H459 0.950 . S
C457 C456 1.387 . S
C457 C460 1.387 . S
H458 C454 0.950 . S
H459 C456 0.950 . S
C460 C451 1.390 . S
C460 H453 0.950 . S
C460 C457 1.387 . S
C461 C462 1.387 . S
C461 H465 0.950 . S
C461 C470 1.390 . S
C462 C461 1.387 . S
C462 C464 1.387 . S
H463 C470 0.950 . S
C464 C462 1.387 . S
C464 C466 1.390 . S
C464 H468 0.950 . S
H465 C461 0.950 . S
C466 C464 1.390 . S
C466 C467 1.387 . S
C466 H469 0.950 . S
C467 C466 1.387 . S
C467 C470 1.387 . S
H468 C464 0.950 . S
H469 C466 0.950 . S
C470 C461 1.390 . S
C470 H463 0.950 . S
C470 C467 1.387 . S
C471 C472 1.387 . S
C471 H475 0.950 . S
C471 C480 1.390 . S
C472 C471 1.387 . S
C472 C474 1.387 . S
H473 C480 0.950 . S
C474 C472 1.387 . S
C474 C476 1.390 . S
C474 H478 0.950 . S
H475 C471 0.950 . S
C476 C474 1.390 . S
C476 C477 1.387 . S
C476 H479 0.950 . S
C477 C476 1.387 . S
C477 C480 1.387 . S
H478 C474 0.950 . S
H479 C476 0.950 . S
C480 C471 1.390 . S
C480 H473 0.950 . S
C480 C477 1.387 . S
C481 C482 1.387 . S
C481 H485 0.950 . S
C481 C490 1.390 . S
C482 C481 1.387 . S
C482 C484 1.387 . S
H483 C490 0.950 . S
C484 C482 1.387 . S
C484 C486 1.390 . S
C484 H488 0.950 . S
H485 C481 0.950 . S
C486 C484 1.390 . S
C486 C487 1.387 . S
C486 H489 0.950 . S
C487 C486 1.387 . S
C487 C490 1.387 . S
H488 C484 0.950 . S
H489 C486 0.950 . S
C490 C481 1.390 . S
C490 H483 0.950 . S
C490 C487 1.387 . S
C491 C492 1.387 . S
C491 H495 0.950 . S
C491 C500 1.390 . S
C492 C491 1.387 . S
C492 C494 1.387 . S
H493 C500 0.950 . S
C494 C492 1.387 . S
C494 C496 1.390 . S
C494 H498 0.950 . S
H495 C491 0.950 . S
C496 C494 1.390 . S
C496 C497 1.387 . S
C496 H499 0.950 . S
C497 C496 1.387 . S
C497 C500 1.387 . S
H498 C494 0.950 . S
H499 C496 0.950 . S
C500 C491 1.390 . S
C500 H493 0.950 . S
C500 C497 1.387 . S
C501 C502 1.387 1_554 S
C501 H505 0.950 . S
C501 C510 1.390 1_554 S
C502 C501 1.387 1_556 S
C502 C504 1.387 . S
H503 C510 0.950 . S
C504 C502 1.387 . S
C504 C506 1.390 . S
C504 H508 0.950 . S
H505 C501 0.950 . S
C506 C504 1.390 . S
C506 C507 1.387 . S
C506 H509 0.950 . S
C507 C506 1.387 . S
C507 C510 1.387 . S
H508 C504 0.950 . S
H509 C506 0.950 . S
C510 C501 1.390 1_556 S
C510 H503 0.950 . S
C510 C507 1.387 . S
C511 C512 1.387 . S
C511 H515 0.950 1_556 S
C511 C520 1.390 . S
C512 C511 1.387 . S
C512 C514 1.387 . S
H513 C520 0.950 . S
C514 C512 1.387 . S
C514 C516 1.390 . S
C514 H518 0.950 . S
H515 C511 0.950 1_554 S
C516 C514 1.390 . S
C516 C517 1.387 . S
C516 H519 0.950 . S
C517 C516 1.387 . S
C517 C520 1.387 . S
H518 C514 0.950 . S
H519 C516 0.950 . S
C520 C511 1.390 . S
C520 H513 0.950 . S
C520 C517 1.387 . S
C521 C522 1.387 1_556 S
C521 H525 0.950 . S
C521 C530 1.390 . S
C522 C521 1.387 1_554 S
C522 C524 1.387 . S
H523 C530 0.950 . S
C524 C522 1.387 . S
C524 C526 1.390 . S
C524 H528 0.950 . S
H525 C521 0.950 . S
C526 C524 1.390 . S
C526 C527 1.387 1_554 S
C526 H529 0.950 . S
C527 C526 1.387 1_556 S
C527 C530 1.387 . S
H528 C524 0.950 . S
H529 C526 0.950 . S
C530 C521 1.390 . S
C530 H523 0.950 . S
C530 C527 1.387 . S
C531 C532 1.387 . S
C531 H535 0.950 . S
C531 C540 1.390 . S
C532 C531 1.387 . S
C532 C534 1.387 . S
H533 C540 0.950 . S
C534 C532 1.387 . S
C534 C536 1.390 . S
C534 H538 0.950 . S
H535 C531 0.950 . S
C536 C534 1.390 . S
C536 C537 1.387 . S
C536 H539 0.950 . S
C537 C536 1.387 . S
C537 C540 1.387 . S
H538 C534 0.950 . S
H539 C536 0.950 . S
C540 C531 1.390 . S
C540 H533 0.950 . S
C540 C537 1.387 . S
C541 C542 1.387 . S
C541 H545 0.950 . S
C541 C550 1.390 . S
C542 C541 1.387 . S
C542 C544 1.387 . S
H543 C550 0.950 . S
C544 C542 1.387 . S
C544 C546 1.390 . S
C544 H548 0.950 . S
H545 C541 0.950 . S
C546 C544 1.390 . S
C546 C547 1.387 . S
C546 H549 0.950 . S
C547 C546 1.387 . S
C547 C550 1.387 . S
H548 C544 0.950 . S
H549 C546 0.950 . S
C550 C541 1.390 . S
C550 H543 0.950 . S
C550 C547 1.387 . S
C551 C552 1.387 . S
C551 H555 0.950 . S
C551 C560 1.390 1_554 S
C552 C551 1.387 . S
C552 C554 1.387 1_554 S
H553 C560 0.950 . S
C554 C552 1.387 1_556 S
C554 C556 1.390 . S
C554 H558 0.950 . S
H555 C551 0.950 . S
C556 C554 1.390 . S
C556 C557 1.387 . S
C556 H559 0.950 . S
C557 C556 1.387 . S
C557 C560 1.387 . S
H558 C554 0.950 . S
H559 C556 0.950 . S
C560 C551 1.390 1_556 S
C560 H553 0.950 . S
C560 C557 1.387 . S
C561 C562 1.387 . S
C561 H565 0.950 . S
C561 C570 1.390 1_554 S
C562 C561 1.387 . S
C562 C564 1.387 . S
H563 C570 0.950 . S
C564 C562 1.387 . S
C564 C566 1.390 1_554 S
C564 H568 0.950 . S
H565 C561 0.950 . S
C566 C564 1.390 1_556 S
C566 C567 1.387 . S
C566 H569 0.950 . S
C567 C566 1.387 . S
C567 C570 1.387 . S
H568 C564 0.950 . S
H569 C566 0.950 . S
C570 C561 1.390 1_556 S
C570 H563 0.950 . S
C570 C567 1.387 . S
C571 C572 1.387 . S
C571 H575 0.950 . S
C571 C580 1.390 . S
C572 C571 1.387 . S
C572 C574 1.387 . S
H573 C580 0.950 . S
C574 C572 1.387 . S
C574 C576 1.390 . S
C574 H578 0.950 . S
H575 C571 0.950 . S
C576 C574 1.390 . S
C576 C577 1.387 . S
C576 H579 0.950 . S
C577 C576 1.387 . S
C577 C580 1.387 . S
H578 C574 0.950 . S
H579 C576 0.950 . S
C580 C571 1.390 . S
C580 H573 0.950 . S
C580 C577 1.387 . S
C581 C582 1.387 . S
C581 H585 0.950 . S
C581 C590 1.390 . S
C582 C581 1.387 . S
C582 C584 1.387 . S
H583 C590 0.950 . S
C584 C582 1.387 . S
C584 C586 1.390 . S
C584 H588 0.950 . S
H585 C581 0.950 . S
C586 C584 1.390 . S
C586 C587 1.387 . S
C586 H589 0.950 . S
C587 C586 1.387 . S
C587 C590 1.387 . S
H588 C584 0.950 . S
H589 C586 0.950 . S
C590 C581 1.390 . S
C590 H583 0.950 . S
C590 C587 1.387 . S
C591 C592 1.387 . S
C591 H595 0.950 . S
C591 C600 1.390 . S
C592 C591 1.387 . S
C592 C594 1.387 . S
H593 C600 0.950 . S
C594 C592 1.387 . S
C594 C596 1.390 . S
C594 H598 0.950 . S
H595 C591 0.950 . S
C596 C594 1.390 . S
C596 C597 1.387 . S
C596 H599 0.950 . S
C597 C596 1.387 . S
C597 C600 1.387 . S
H598 C594 0.950 . S
H599 C596 0.950 . S
C600 C591 1.390 . S
C600 H593 0.950 . S
C600 C597 1.387 . S
C601 C602 1.387 . S
C601 H605 0.950 . S
C601 C610 1.390 . S
C602 C601 1.387 . S
C602 C604 1.387 . S
H603 C610 0.950 . S
C604 C602 1.387 . S
C604 C606 1.390 . S
C604 H608 0.950 . S
H605 C601 0.950 . S
C606 C604 1.390 . S
C606 C607 1.387 . S
C606 H609 0.950 . S
C607 C606 1.387 . S
C607 C610 1.387 . S
H608 C604 0.950 . S
H609 C606 0.950 . S
C610 C601 1.390 . S
C610 H603 0.950 . S
C610 C607 1.387 . S
C611 C612 1.387 . S
C611 H615 0.950 . S
C611 C620 1.390 . S
C612 C611 1.387 . S
C612 C614 1.387 . S
H613 C620 0.950 . S
C614 C612 1.387 . S
C614 C616 1.390 . S
C614 H618 0.950 . S
H615 C611 0.950 . S
C616 C614 1.390 . S
C616 C617 1.387 . S
C616 H619 0.950 . S
C617 C616 1.387 . S
C617 C620 1.387 . S
H618 C614 0.950 . S
H619 C616 0.950 . S
C620 C611 1.390 . S
C620 H613 0.950 . S
C620 C617 1.387 . S
C621 C622 1.387 . S
C621 H625 0.950 . S
C621 C630 1.390 . S
C622 C621 1.387 . S
C622 C624 1.387 . S
H623 C630 0.950 . S
C624 C622 1.387 . S
C624 C626 1.390 . S
C624 H628 0.950 . S
H625 C621 0.950 . S
C626 C624 1.390 . S
C626 C627 1.387 . S
C626 H629 0.950 . S
C627 C626 1.387 . S
C627 C630 1.387 . S
H628 C624 0.950 . S
H629 C626 0.950 . S
C630 C621 1.390 . S
C630 H623 0.950 . S
C630 C627 1.387 . S
C631 C632 1.387 . S
C631 H635 0.950 . S
C631 C640 1.390 . S
C632 C631 1.387 . S
C632 C634 1.387 . S
H633 C640 0.950 . S
C634 C632 1.387 . S
C634 C636 1.390 . S
C634 H638 0.950 . S
H635 C631 0.950 . S
C636 C634 1.390 . S
C636 C637 1.387 . S
C636 H639 0.950 . S
C637 C636 1.387 . S
C637 C640 1.387 . S
H638 C634 0.950 . S
H639 C636 0.950 . S
C640 C631 1.390 . S
C640 H633 0.950 . S
C640 C637 1.387 . S
C641 C642 1.387 . S
C641 H645 0.950 . S
C641 C650 1.390 . S
C642 C641 1.387 . S
C642 C644 1.387 . S
H643 C650 0.950 . S
C644 C642 1.387 . S
C644 C646 1.390 . S
C644 H648 0.950 . S
H645 C641 0.950 . S
C646 C644 1.390 . S
C646 C647 1.387 . S
C646 H649 0.950 . S
C647 C646 1.387 . S
C647 C650 1.387 . S
H648 C644 0.950 . S
H649 C646 0.950 . S
C650 C641 1.390 . S
C650 H643 0.950 . S
C650 C647 1.387 . S
C412 C22 1.898 . S
C417 C329 1.819 . S
C422 C92 1.795 . S
C427 C376 1.762 . S
C437 C380 1.838 . S
C432 C144 1.923 . S
C447 C345 1.606 . S
C442 C197 1.651 . S
C452 C250 2.017 . S
C457 C360 1.951 . S
C467 C382 1.227 . S
C462 C287 1.276 . S
C477 C351 1.668 . S
C472 C145 1.739 . S
C482 C198 1.622 . S
C487 C391 1.577 . S
C497 C320 1.617 . S
C492 C251 1.712 . S
C502 C294 1.438 1_556 S
C507 C349 1.380 . S
C512 C29 1.854 1_556 S
C517 C407 1.791 . S
C527 C318 1.725 . S
C522 C91 1.766 . S
C537 C336 1.660 . S
C532 C188 1.717 . S
C547 C350 1.299 . S
C542 C241 1.340 . S
C557 C404 1.685 . S
C552 C304 1.767 . S
C567 C319 1.437 . S
C562 C39 1.470 . S
C577 C367 1.502 . S
C572 C75 1.591 . S
C582 C135 1.097 . S
C587 C390 1.057 . S
C597 C359 1.476 . S
C592 C303 1.547 . S
C607 C398 1.410 . S
C602 C38 1.434 . S
C617 C328 1.225 . S
C612 C82 1.300 . S
C627 C373 1.231 . S
C622 C128 1.279 . S
C632 C181 1.675 . S
C637 C381 1.623 . S
C642 C234 1.298 . S
C647 C342 1.255 . S
