# Generated by pormake.
# Topology gar, (4,6)-cn, num edge types: 1
# Building blocks:
#     Node 0, Type 0, BuildingBlock: QUQFOY_clean_sbu_3, # of connection points: 4
#     Node 1, Type 0, BuildingBlock: QUQFOY_clean_sbu_3, # of connection points: 4
#     Node 2, Type 0, BuildingBlock: QUQFOY_clean_sbu_3, # of connection points: 4
#     Node 3, Type 0, BuildingBlock: QUQFOY_clean_sbu_3, # of connection points: 4
#     Node 4, Type 0, BuildingBlock: QUQFOY_clean_sbu_3, # of connection points: 4
#     Node 5, Type 0, BuildingBlock: QUQFOY_clean_sbu_3, # of connection points: 4
#     Node 6, Type 0, BuildingBlock: QUQFOY_clean_sbu_3, # of connection points: 4
#     Node 7, Type 0, BuildingBlock: QUQFOY_clean_sbu_3, # of connection points: 4
#     Node 8, Type 0, BuildingBlock: QUQFOY_clean_sbu_3, # of connection points: 4
#     Node 9, Type 0, BuildingBlock: QUQFOY_clean_sbu_3, # of connection points: 4
#     Node 10, Type 0, BuildingBlock: QUQFOY_clean_sbu_3, # of connection points: 4
#     Node 11, Type 0, BuildingBlock: QUQFOY_clean_sbu_3, # of connection points: 4
#     Node 12, Type 0, BuildingBlock: QUQFOY_clean_sbu_3, # of connection points: 4
#     Node 13, Type 0, BuildingBlock: QUQFOY_clean_sbu_3, # of connection points: 4
#     Node 14, Type 0, BuildingBlock: QUQFOY_clean_sbu_3, # of connection points: 4
#     Node 15, Type 0, BuildingBlock: QUQFOY_clean_sbu_3, # of connection points: 4
#     Node 16, Type 0, BuildingBlock: QUQFOY_clean_sbu_3, # of connection points: 4
#     Node 17, Type 0, BuildingBlock: QUQFOY_clean_sbu_3, # of connection points: 4
#     Node 18, Type 0, BuildingBlock: QUQFOY_clean_sbu_3, # of connection points: 4
#     Node 19, Type 0, BuildingBlock: QUQFOY_clean_sbu_3, # of connection points: 4
#     Node 20, Type 0, BuildingBlock: QUQFOY_clean_sbu_3, # of connection points: 4
#     Node 21, Type 0, BuildingBlock: QUQFOY_clean_sbu_3, # of connection points: 4
#     Node 22, Type 0, BuildingBlock: QUQFOY_clean_sbu_3, # of connection points: 4
#     Node 23, Type 0, BuildingBlock: QUQFOY_clean_sbu_3, # of connection points: 4
#     Node 24, Type 1, BuildingBlock: KUMBOL_clean_sbu_0, # of connection points: 6
#     Node 25, Type 1, BuildingBlock: KUMBOL_clean_sbu_0, # of connection points: 6
#     Node 26, Type 1, BuildingBlock: KUMBOL_clean_sbu_0, # of connection points: 6
#     Node 27, Type 1, BuildingBlock: KUMBOL_clean_sbu_0, # of connection points: 6
#     Node 28, Type 1, BuildingBlock: KUMBOL_clean_sbu_0, # of connection points: 6
#     Node 29, Type 1, BuildingBlock: KUMBOL_clean_sbu_0, # of connection points: 6
#     Node 30, Type 1, BuildingBlock: KUMBOL_clean_sbu_0, # of connection points: 6
#     Node 31, Type 1, BuildingBlock: KUMBOL_clean_sbu_0, # of connection points: 6
#     Node 32, Type 1, BuildingBlock: KUMBOL_clean_sbu_0, # of connection points: 6
#     Node 33, Type 1, BuildingBlock: KUMBOL_clean_sbu_0, # of connection points: 6
#     Node 34, Type 1, BuildingBlock: KUMBOL_clean_sbu_0, # of connection points: 6
#     Node 35, Type 1, BuildingBlock: KUMBOL_clean_sbu_0, # of connection points: 6
#     Node 36, Type 1, BuildingBlock: KUMBOL_clean_sbu_0, # of connection points: 6
#     Node 37, Type 1, BuildingBlock: KUMBOL_clean_sbu_0, # of connection points: 6
#     Node 38, Type 1, BuildingBlock: KUMBOL_clean_sbu_0, # of connection points: 6
#     Node 39, Type 1, BuildingBlock: KUMBOL_clean_sbu_0, # of connection points: 6
#     Edge 40, Type (0, 1), BuildingBlock: AJUNOK_clean_linker_0, # of connection points: 2
#     Edge 41, Type (0, 1), BuildingBlock: AJUNOK_clean_linker_0, # of connection points: 2
#     Edge 42, Type (0, 1), BuildingBlock: AJUNOK_clean_linker_0, # of connection points: 2
#     Edge 43, Type (0, 1), BuildingBlock: AJUNOK_clean_linker_0, # of connection points: 2
#     Edge 44, Type (0, 1), BuildingBlock: AJUNOK_clean_linker_0, # of connection points: 2
#     Edge 45, Type (0, 1), BuildingBlock: AJUNOK_clean_linker_0, # of connection points: 2
#     Edge 46, Type (0, 1), BuildingBlock: AJUNOK_clean_linker_0, # of connection points: 2
#     Edge 47, Type (0, 1), BuildingBlock: AJUNOK_clean_linker_0, # of connection points: 2
#     Edge 48, Type (0, 1), BuildingBlock: AJUNOK_clean_linker_0, # of connection points: 2
#     Edge 49, Type (0, 1), BuildingBlock: AJUNOK_clean_linker_0, # of connection points: 2
#     Edge 50, Type (0, 1), BuildingBlock: AJUNOK_clean_linker_0, # of connection points: 2
#     Edge 51, Type (0, 1), BuildingBlock: AJUNOK_clean_linker_0, # of connection points: 2
#     Edge 52, Type (0, 1), BuildingBlock: AJUNOK_clean_linker_0, # of connection points: 2
#     Edge 53, Type (0, 1), BuildingBlock: AJUNOK_clean_linker_0, # of connection points: 2
#     Edge 54, Type (0, 1), BuildingBlock: AJUNOK_clean_linker_0, # of connection points: 2
#     Edge 55, Type (0, 1), BuildingBlock: AJUNOK_clean_linker_0, # of connection points: 2
#     Edge 56, Type (0, 1), BuildingBlock: AJUNOK_clean_linker_0, # of connection points: 2
#     Edge 57, Type (0, 1), BuildingBlock: AJUNOK_clean_linker_0, # of connection points: 2
#     Edge 58, Type (0, 1), BuildingBlock: AJUNOK_clean_linker_0, # of connection points: 2
#     Edge 59, Type (0, 1), BuildingBlock: AJUNOK_clean_linker_0, # of connection points: 2
#     Edge 60, Type (0, 1), BuildingBlock: AJUNOK_clean_linker_0, # of connection points: 2
#     Edge 61, Type (0, 1), BuildingBlock: AJUNOK_clean_linker_0, # of connection points: 2
#     Edge 62, Type (0, 1), BuildingBlock: AJUNOK_clean_linker_0, # of connection points: 2
#     Edge 63, Type (0, 1), BuildingBlock: AJUNOK_clean_linker_0, # of connection points: 2
#     Edge 64, Type (0, 1), BuildingBlock: AJUNOK_clean_linker_0, # of connection points: 2
#     Edge 65, Type (0, 1), BuildingBlock: AJUNOK_clean_linker_0, # of connection points: 2
#     Edge 66, Type (0, 1), BuildingBlock: AJUNOK_clean_linker_0, # of connection points: 2
#     Edge 67, Type (0, 1), BuildingBlock: AJUNOK_clean_linker_0, # of connection points: 2
#     Edge 68, Type (0, 1), BuildingBlock: AJUNOK_clean_linker_0, # of connection points: 2
#     Edge 69, Type (0, 1), BuildingBlock: AJUNOK_clean_linker_0, # of connection points: 2
#     Edge 70, Type (0, 1), BuildingBlock: AJUNOK_clean_linker_0, # of connection points: 2
#     Edge 71, Type (0, 1), BuildingBlock: AJUNOK_clean_linker_0, # of connection points: 2
#     Edge 72, Type (0, 1), BuildingBlock: AJUNOK_clean_linker_0, # of connection points: 2
#     Edge 73, Type (0, 1), BuildingBlock: AJUNOK_clean_linker_0, # of connection points: 2
#     Edge 74, Type (0, 1), BuildingBlock: AJUNOK_clean_linker_0, # of connection points: 2
#     Edge 75, Type (0, 1), BuildingBlock: AJUNOK_clean_linker_0, # of connection points: 2
#     Edge 76, Type (0, 1), BuildingBlock: AJUNOK_clean_linker_0, # of connection points: 2
#     Edge 77, Type (0, 1), BuildingBlock: AJUNOK_clean_linker_0, # of connection points: 2
#     Edge 78, Type (0, 1), BuildingBlock: AJUNOK_clean_linker_0, # of connection points: 2
#     Edge 79, Type (0, 1), BuildingBlock: AJUNOK_clean_linker_0, # of connection points: 2
#     Edge 80, Type (0, 1), BuildingBlock: AJUNOK_clean_linker_0, # of connection points: 2
#     Edge 81, Type (0, 1), BuildingBlock: AJUNOK_clean_linker_0, # of connection points: 2
#     Edge 82, Type (0, 1), BuildingBlock: AJUNOK_clean_linker_0, # of connection points: 2
#     Edge 83, Type (0, 1), BuildingBlock: AJUNOK_clean_linker_0, # of connection points: 2
#     Edge 84, Type (0, 1), BuildingBlock: AJUNOK_clean_linker_0, # of connection points: 2
#     Edge 85, Type (0, 1), BuildingBlock: AJUNOK_clean_linker_0, # of connection points: 2
#     Edge 86, Type (0, 1), BuildingBlock: AJUNOK_clean_linker_0, # of connection points: 2
#     Edge 87, Type (0, 1), BuildingBlock: AJUNOK_clean_linker_0, # of connection points: 2
#     Edge 88, Type (0, 1), BuildingBlock: AJUNOK_clean_linker_0, # of connection points: 2
#     Edge 89, Type (0, 1), BuildingBlock: AJUNOK_clean_linker_0, # of connection points: 2
#     Edge 90, Type (0, 1), BuildingBlock: AJUNOK_clean_linker_0, # of connection points: 2
#     Edge 91, Type (0, 1), BuildingBlock: AJUNOK_clean_linker_0, # of connection points: 2
#     Edge 92, Type (0, 1), BuildingBlock: AJUNOK_clean_linker_0, # of connection points: 2
#     Edge 93, Type (0, 1), BuildingBlock: AJUNOK_clean_linker_0, # of connection points: 2
#     Edge 94, Type (0, 1), BuildingBlock: AJUNOK_clean_linker_0, # of connection points: 2
#     Edge 95, Type (0, 1), BuildingBlock: AJUNOK_clean_linker_0, # of connection points: 2
#     Edge 96, Type (0, 1), BuildingBlock: AJUNOK_clean_linker_0, # of connection points: 2
#     Edge 97, Type (0, 1), BuildingBlock: AJUNOK_clean_linker_0, # of connection points: 2
#     Edge 98, Type (0, 1), BuildingBlock: AJUNOK_clean_linker_0, # of connection points: 2
#     Edge 99, Type (0, 1), BuildingBlock: AJUNOK_clean_linker_0, # of connection points: 2
#     Edge 100, Type (0, 1), BuildingBlock: AJUNOK_clean_linker_0, # of connection points: 2
#     Edge 101, Type (0, 1), BuildingBlock: AJUNOK_clean_linker_0, # of connection points: 2
#     Edge 102, Type (0, 1), BuildingBlock: AJUNOK_clean_linker_0, # of connection points: 2
#     Edge 103, Type (0, 1), BuildingBlock: AJUNOK_clean_linker_0, # of connection points: 2
#     Edge 104, Type (0, 1), BuildingBlock: AJUNOK_clean_linker_0, # of connection points: 2
#     Edge 105, Type (0, 1), BuildingBlock: AJUNOK_clean_linker_0, # of connection points: 2
#     Edge 106, Type (0, 1), BuildingBlock: AJUNOK_clean_linker_0, # of connection points: 2
#     Edge 107, Type (0, 1), BuildingBlock: AJUNOK_clean_linker_0, # of connection points: 2
#     Edge 108, Type (0, 1), BuildingBlock: AJUNOK_clean_linker_0, # of connection points: 2
#     Edge 109, Type (0, 1), BuildingBlock: AJUNOK_clean_linker_0, # of connection points: 2
#     Edge 110, Type (0, 1), BuildingBlock: AJUNOK_clean_linker_0, # of connection points: 2
#     Edge 111, Type (0, 1), BuildingBlock: AJUNOK_clean_linker_0, # of connection points: 2
#     Edge 112, Type (0, 1), BuildingBlock: AJUNOK_clean_linker_0, # of connection points: 2
#     Edge 113, Type (0, 1), BuildingBlock: AJUNOK_clean_linker_0, # of connection points: 2
#     Edge 114, Type (0, 1), BuildingBlock: AJUNOK_clean_linker_0, # of connection points: 2
#     Edge 115, Type (0, 1), BuildingBlock: AJUNOK_clean_linker_0, # of connection points: 2
#     Edge 116, Type (0, 1), BuildingBlock: AJUNOK_clean_linker_0, # of connection points: 2
#     Edge 117, Type (0, 1), BuildingBlock: AJUNOK_clean_linker_0, # of connection points: 2
#     Edge 118, Type (0, 1), BuildingBlock: AJUNOK_clean_linker_0, # of connection points: 2
#     Edge 119, Type (0, 1), BuildingBlock: AJUNOK_clean_linker_0, # of connection points: 2
#     Edge 120, Type (0, 1), BuildingBlock: AJUNOK_clean_linker_0, # of connection points: 2
#     Edge 121, Type (0, 1), BuildingBlock: AJUNOK_clean_linker_0, # of connection points: 2
#     Edge 122, Type (0, 1), BuildingBlock: AJUNOK_clean_linker_0, # of connection points: 2
#     Edge 123, Type (0, 1), BuildingBlock: AJUNOK_clean_linker_0, # of connection points: 2
#     Edge 124, Type (0, 1), BuildingBlock: AJUNOK_clean_linker_0, # of connection points: 2
#     Edge 125, Type (0, 1), BuildingBlock: AJUNOK_clean_linker_0, # of connection points: 2
#     Edge 126, Type (0, 1), BuildingBlock: AJUNOK_clean_linker_0, # of connection points: 2
#     Edge 127, Type (0, 1), BuildingBlock: AJUNOK_clean_linker_0, # of connection points: 2
#     Edge 128, Type (0, 1), BuildingBlock: AJUNOK_clean_linker_0, # of connection points: 2
#     Edge 129, Type (0, 1), BuildingBlock: AJUNOK_clean_linker_0, # of connection points: 2
#     Edge 130, Type (0, 1), BuildingBlock: AJUNOK_clean_linker_0, # of connection points: 2
#     Edge 131, Type (0, 1), BuildingBlock: AJUNOK_clean_linker_0, # of connection points: 2
#     Edge 132, Type (0, 1), BuildingBlock: AJUNOK_clean_linker_0, # of connection points: 2
#     Edge 133, Type (0, 1), BuildingBlock: AJUNOK_clean_linker_0, # of connection points: 2
#     Edge 134, Type (0, 1), BuildingBlock: AJUNOK_clean_linker_0, # of connection points: 2
#     Edge 135, Type (0, 1), BuildingBlock: AJUNOK_clean_linker_0, # of connection points: 2
# Relax obj value: 0.143
# Max RMSD: 0.350
# Mean RMSD: 0.154
data_MOF--net-gar--node1-QUQFOY_clean_sbu_3--node2-KUMBOL_clean_sbu_0--edge1-AJUNOK_clean_linker_0
_symmetry_space_group_name_H-M    P1
_symmetry_Int_Tables_number       1
_symmetry_cell_setting            triclinic
loop_
_symmetry_equiv_pos_as_xyz
'x, y, z'
_cell_length_a     47.74625
_cell_length_b     43.258573
_cell_length_c     42.737698
_cell_angle_alpha  101.81495
_cell_angle_beta   94.059873
_cell_angle_gamma 102.84726
loop_
_atom_site_label
_atom_site_type_symbol
_atom_site_fract_x
_atom_site_fract_y
_atom_site_fract_z
_atom_type_partial_charge
C0 C 0.09516 0.36063 0.35965 0.0
O1 O 0.11231 0.3835 0.35109 0.0
Cd2 Cd 0.16364 0.39533 0.35549 0.0
O3 O 0.1043 0.34106 0.37376 0.0
Cd4 Cd 0.15183 0.34058 0.39613 0.0
C5 C 0.16245 0.41954 0.43285 0.0
O6 O 0.17072 0.34159 0.34606 0.0
O7 O 0.20037 0.34165 0.38709 0.0
O8 O 0.12778 0.28602 0.39647 0.0
C9 C 0.19514 0.33922 0.35706 0.0
O10 O 0.17384 0.42905 0.40944 0.0
C11 C 0.13765 0.28816 0.42544 0.0
O12 O 0.15309 0.38963 0.43192 0.0
O13 O 0.15604 0.31416 0.43983 0.0
C14 C 0.96066 0.75253 0.71687 0.0
O15 O 0.97363 0.73514 0.73018 0.0
Cd16 Cd 0.01425 0.71645 0.71433 0.0
O17 O 0.96852 0.762 0.69193 0.0
Cd18 Cd 0.00594 0.75729 0.65781 0.0
C19 C 0.99113 0.67786 0.63475 0.0
O20 O 0.04324 0.76119 0.69927 0.0
O21 O 0.05426 0.74823 0.65097 0.0
O22 O 0.01493 0.81197 0.64995 0.0
C23 C 0.06164 0.75401 0.681 0.0
O24 O 1.00206 0.67795 0.66283 0.0
C25 C 0.00933 0.80274 0.6195 0.0
O26 O 0.98524 0.70315 0.6281 0.0
O27 O 1.00014 0.77241 0.60771 0.0
C28 C 0.59163 0.84185 0.85505 0.0
O29 O 0.60754 0.85987 0.83995 0.0
Cd30 Cd 0.65857 0.87806 0.84712 0.0
O31 O 0.60204 0.82999 0.87669 0.0
Cd32 Cd 0.65133 0.8346 0.89929 0.0
C33 C 0.65646 0.91489 0.92304 0.0
O34 O 0.66937 0.82714 0.84949 0.0
O35 O 0.70134 0.83915 0.89121 0.0
O36 O 0.63395 0.78213 0.90926 0.0
C37 C 0.69511 0.83001 0.86086 0.0
O38 O 0.66316 0.92042 0.89612 0.0
C39 C 0.64379 0.79123 0.93898 0.0
O40 O 0.65159 0.88645 0.92785 0.0
O41 O 0.65863 0.8203 0.94929 0.0
C42 C 0.46175 0.2404 0.21831 0.0
O43 O 0.47889 0.22853 0.23342 0.0
Cd44 Cd 0.52353 0.22163 0.21799 0.0
O45 O 0.46773 0.25125 0.19352 0.0
Cd46 Cd 0.50558 0.25564 0.15954 0.0
C47 C 0.49711 0.17807 0.13989 0.0
O48 O 0.54603 0.26763 0.19941 0.0
O49 O 0.55271 0.24515 0.15149 0.0
O50 O 0.51136 0.31088 0.15426 0.0
C51 C 0.56326 0.25855 0.18037 0.0
O52 O 0.51056 0.18216 0.16781 0.0
C53 C 0.50771 0.30323 0.1237 0.0
O54 O 0.48754 0.20067 0.13153 0.0
O55 O 0.49975 0.27312 0.11025 0.0
C56 C 0.07638 0.81577 0.162 0.0
O57 O 0.09235 0.80688 0.18171 0.0
Cd58 Cd 0.13805 0.79575 0.17541 0.0
O59 O 0.08506 0.8227 0.13609 0.0
Cd60 Cd 0.13138 0.83128 0.10978 0.0
C61 C 0.11962 0.74435 0.09744 0.0
O62 O 0.16196 0.84382 0.16216 0.0
O63 O 0.18604 0.83682 0.12253 0.0
O64 O 0.11548 0.88337 0.11177 0.0
C65 C 0.18628 0.84254 0.15296 0.0
O66 O 0.12653 0.75067 0.12784 0.0
C67 C 0.11988 0.88841 0.08407 0.0
O68 O 0.11854 0.76781 0.08317 0.0
O69 O 0.13077 0.86729 0.06684 0.0
C70 C 0.47048 0.77213 0.38627 0.0
O71 O 0.49134 0.78461 0.37243 0.0
Cd72 Cd 0.54182 0.79898 0.38587 0.0
O73 O 0.476 0.76283 0.41256 0.0
Cd74 Cd 0.5273 0.76379 0.44693 0.0
C75 C 0.54519 0.84924 0.46281 0.0
O76 O 0.55619 0.75609 0.40195 0.0
O77 O 0.58086 0.7832 0.44671 0.0
O78 O 0.52613 0.70456 0.44435 0.0
C79 C 0.58097 0.76915 0.41759 0.0
O80 O 0.54837 0.84231 0.43308 0.0
C81 C 0.53075 0.7048 0.47405 0.0
O82 O 0.53587 0.82598 0.477 0.0
O83 O 0.53088 0.73188 0.49296 0.0
C84 C 0.57438 0.31409 0.65808 0.0
O85 O 0.59086 0.30957 0.68041 0.0
Cd86 Cd 0.63699 0.29936 0.6745 0.0
O87 O 0.58367 0.3193 0.63186 0.0
Cd88 Cd 0.63189 0.33126 0.60937 0.0
C89 C 0.61775 0.2458 0.59754 0.0
O90 O 0.66509 0.34524 0.66087 0.0
O91 O 0.68507 0.32883 0.61965 0.0
O92 O 0.62554 0.38851 0.61098 0.0
C93 C 0.68761 0.33856 0.65015 0.0
O94 O 0.62464 0.25299 0.62799 0.0
C95 C 0.62396 0.388 0.58105 0.0
O96 O 0.61776 0.26867 0.58232 0.0
O97 O 0.62713 0.36173 0.56322 0.0
C98 C 0.9709 0.27031 0.8855 0.0
O99 O 0.98973 0.28124 0.86845 0.0
Cd100 Cd 0.04041 0.29923 0.8851 0.0
O101 O 0.97892 0.26434 0.91284 0.0
Cd102 Cd 0.02953 0.26556 0.94712 0.0
C103 C 0.03914 0.34989 0.96119 0.0
O104 O 0.05773 0.25772 0.90157 0.0
O105 O 0.08271 0.28451 0.94626 0.0
O106 O 0.0171 0.20558 0.94923 0.0
C107 C 0.08258 0.27104 0.91697 0.0
O108 O 0.04318 0.34351 0.93163 0.0
C109 C 0.0307 0.20763 0.97658 0.0
O110 O 0.03272 0.32648 0.97587 0.0
O111 O 0.04159 0.23674 0.99246 0.0
C112 C 0.48832 0.04336 0.35872 0.0
O113 O 0.49679 0.02941 0.33339 0.0
Cd114 Cd 0.47269 0.01703 0.28225 0.0
O115 O 0.46495 0.0525 0.35868 0.0
Cd116 Cd 0.42753 0.05117 0.32008 0.0
C117 C 0.41204 0.97261 0.30612 0.0
O118 O 0.45834 0.06602 0.28265 0.0
O119 O 0.41653 0.03841 0.26 0.0
O120 O 0.42164 0.10387 0.34318 0.0
C121 C 0.44185 0.0534 0.25676 0.0
O122 O 0.43282 0.97423 0.28893 0.0
C123 C 0.39427 0.09363 0.33987 0.0
O124 O 0.4063 0.99781 0.32234 0.0
O125 O 0.38415 0.06318 0.33553 0.0
C126 C 0.34365 0.15475 0.5181 0.0
O127 O 0.32359 0.13365 0.52527 0.0
Cd128 Cd 0.27732 0.14028 0.53651 0.0
O129 O 0.33937 0.18157 0.51319 0.0
Cd130 Cd 0.29723 0.20655 0.50523 0.0
C131 C 0.2978 0.22058 0.58642 0.0
O132 O 0.26202 0.15423 0.48989 0.0
O133 O 0.24259 0.19466 0.4963 0.0
O134 O 0.31955 0.20911 0.45525 0.0
C135 C 0.23902 0.16398 0.49003 0.0
O136 O 0.28866 0.1897 0.57879 0.0
C137 C 0.31523 0.23644 0.45283 0.0
O138 O 0.30423 0.2363 0.56451 0.0
O139 O 0.30308 0.25058 0.47523 0.0
C140 C 0.15421 0.03044 0.8411 0.0
O141 O 0.14445 0.04585 0.82239 0.0
Cd142 Cd 0.17502 0.04196 0.77844 0.0
O143 O 0.17418 0.01631 0.83005 0.0
Cd144 Cd 0.19972 1.01291 0.76867 0.0
C145 C 0.22855 0.10004 0.78113 0.0
O146 O 0.15144 1.0127 0.72544 0.0
O147 O 0.19179 0.0223 0.70795 0.0
O148 O 0.20764 0.95243 0.77391 0.0
C149 C 0.16461 0.01901 0.70157 0.0
O150 O 0.2014 0.09658 0.7764 0.0
C151 C 0.23327 0.95317 0.76652 0.0
O152 O 0.23718 0.07407 0.783 0.0
O153 O 0.2439 0.98008 0.75881 0.0
C154 C 0.40897 0.99108 0.98796 0.0
O155 O 0.39683 1.00733 0.97208 0.0
Cd156 Cd 0.34602 0.99087 0.95798 0.0
O157 O 0.39431 0.9708 1.00173 0.0
Cd158 Cd 0.34526 0.95117 0.01215 0.0
C159 C 0.34735 0.90994 0.94257 0.0
O160 O 0.32421 0.99443 1.00656 0.0
O161 O 0.29466 0.94706 1.0022 0.0
O162 O 0.36625 0.96336 0.0671 0.0
C163 C 0.29853 0.97747 1.00468 0.0
O164 O 0.34655 0.93583 0.93317 0.0
C165 C 0.35408 0.93524 0.07063 0.0
O166 O 0.34597 0.9081 0.97145 0.0
O167 O 0.33604 0.91623 0.04777 0.0
C168 C 0.40554 0.4518 0.04542 0.0
O169 O 0.38905 0.46647 0.03291 0.0
Cd170 Cd 0.33933 0.45034 0.01527 0.0
O171 O 0.395 0.42445 0.05265 0.0
Cd172 Cd 0.34265 0.38818 0.04851 0.0
C173 C 0.34117 0.37454 0.9669 0.0
O174 O 0.3194 0.43196 0.05777 0.0
O175 O 0.29011 0.38636 0.03557 0.0
O176 O 0.34456 0.39032 0.10582 0.0
C177 C 0.29362 0.41648 0.04776 0.0
O178 O 0.33828 0.40363 0.97312 0.0
C179 C 0.33474 0.36015 0.10377 0.0
O180 O 0.34393 0.35997 0.98981 0.0
O181 O 0.33166 0.34159 0.0758 0.0
C182 C 0.84202 0.10118 0.0537 0.0
O183 O 0.82667 0.08716 0.07216 0.0
Cd184 Cd 0.78182 0.10107 0.08275 0.0
O185 O 0.83279 0.1202 0.0392 0.0
Cd186 Cd 0.79612 0.1454 0.02975 0.0
C187 C 0.80726 0.18479 0.1018 0.0
O188 O 0.75534 0.10657 0.036 0.0
O189 O 0.75089 0.15638 0.04328 0.0
O190 O 0.78891 0.1332 0.97254 0.0
C191 C 0.73973 0.12675 0.04259 0.0
O192 O 0.79664 0.15768 0.10881 0.0
C193 C 0.79874 0.16271 0.97152 0.0
O194 O 0.81227 0.18753 0.07378 0.0
O195 O 0.80964 0.18309 0.9977 0.0
C196 C 0.18359 0.5487 0.27209 0.0
O197 O 0.16539 0.52882 0.25026 0.0
Cd198 Cd 0.17969 0.55246 0.20681 0.0
O199 O 0.20757 0.56257 0.26436 0.0
Cd200 Cd 0.22609 0.54377 0.21192 0.0
C201 C 0.24313 0.61504 0.226 0.0
O202 O 0.19262 0.51227 0.16867 0.0
O203 O 0.21494 0.55851 0.16124 0.0
O204 O 0.22721 0.49375 0.22146 0.0
C205 C 0.19472 0.53293 0.15154 0.0
O206 O 0.21551 0.60628 0.22229 0.0
C207 C 0.25444 0.49907 0.22181 0.0
O208 O 0.25789 0.59395 0.22248 0.0
O209 O 0.26767 0.52384 0.21239 0.0
C210 C 0.90795 0.95141 0.549 0.0
O211 O 0.89396 0.97042 0.54006 0.0
Cd212 Cd 0.84556 0.95311 0.51618 0.0
O213 O 0.89511 0.92226 0.54998 0.0
Cd214 Cd 0.84235 0.88864 0.54454 0.0
C215 C 0.84496 0.87667 0.46547 0.0
O216 O 0.82051 0.93381 0.55558 0.0
O217 O 0.79084 0.88935 0.53075 0.0
O218 O 0.84706 0.88866 0.60102 0.0
C219 C 0.79482 0.91928 0.54399 0.0
O220 O 0.84472 0.90663 0.47311 0.0
C221 C 0.83463 0.85894 0.59813 0.0
O222 O 0.84443 0.8603 0.48725 0.0
O223 O 0.82813 0.84145 0.56958 0.0
C224 C 1.00108 0.06875 0.34737 0.0
O225 O 0.01215 0.05501 0.32401 0.0
Cd226 Cd 0.97764 0.05303 0.27823 0.0
O227 O 0.9793 0.08067 0.3391 0.0
Cd228 Cd 0.95034 0.08245 0.27508 0.0
C229 C 0.92118 0.99524 0.267 0.0
O230 O 0.9964 0.08324 0.23878 0.0
O231 O 0.95572 0.06369 0.21103 0.0
O232 O 0.94277 0.14458 0.27716 0.0
C233 C 0.983 0.07275 0.21033 0.0
O234 O 0.94743 0.9966 0.26271 0.0
C235 C 0.91544 0.14118 0.27725 0.0
O236 O 0.91398 0.02278 0.27326 0.0
O237 O 0.90326 0.11161 0.27696 0.0
C238 C 0.34377 0.60319 0.55687 0.0
O239 O 0.32844 0.58653 0.57353 0.0
Cd240 Cd 0.27886 0.59033 0.57934 0.0
O241 O 0.3334 0.62134 0.54238 0.0
Cd242 Cd 0.29331 0.6392 0.53347 0.0
C243 C 0.29132 0.67086 0.60776 0.0
O244 O 0.25279 0.59376 0.53052 0.0
O245 O 0.24751 0.6436 0.54358 0.0
O246 O 0.29348 0.64335 0.47849 0.0
C247 C 0.23651 0.61327 0.53714 0.0
O248 O 0.28035 0.64301 0.61285 0.0
C249 C 0.3016 0.67427 0.48653 0.0
O250 O 0.30195 0.67481 0.58228 0.0
O251 O 0.3071 0.68761 0.51629 0.0
C252 C 0.50091 0.56761 0.84947 0.0
O253 O 0.51251 0.55321 0.82694 0.0
Cd254 Cd 0.48417 0.54822 0.77559 0.0
O255 O 0.47985 0.58028 0.84015 0.0
Cd256 Cd 0.45137 0.58483 0.77638 0.0
C257 C 0.42084 0.49664 0.76715 0.0
O258 O 0.49848 0.58784 0.74196 0.0
O259 O 0.45862 0.568 0.71279 0.0
O260 O 0.43888 0.64637 0.79546 0.0
C261 C 0.48585 0.57824 0.71309 0.0
O262 O 0.44644 0.4962 0.76098 0.0
C263 C 0.41536 0.64269 0.77713 0.0
O264 O 0.41518 0.52495 0.77535 0.0
O265 O 0.408 0.61377 0.75954 0.0
C266 C 0.69114 0.07267 0.78014 0.0
O267 O 0.66817 0.07118 0.76252 0.0
Cd268 Cd 0.66734 0.07056 0.70838 0.0
O269 O 0.71367 0.06687 0.76842 0.0
Cd270 Cd 0.72619 0.0464 0.71397 0.0
C271 C 0.73615 0.12339 0.72109 0.0
O272 O 0.68237 0.02378 0.68632 0.0
O273 O 0.71472 0.04113 0.65685 0.0
O274 O 0.72433 0.99705 0.72634 0.0
C275 C 0.68883 0.02686 0.65888 0.0
O276 O 0.70862 0.11714 0.71609 0.0
C277 C 0.75123 0.99961 0.72599 0.0
O278 O 0.7493 0.10092 0.72078 0.0
O279 O 0.76622 0.02307 0.71595 0.0
C280 C 0.84395 0.6532 0.01788 0.0
O281 O 0.82442 0.63579 0.02981 0.0
Cd282 Cd 0.78005 0.64752 0.04209 0.0
O283 O 0.8403 0.67875 0.00948 0.0
Cd284 Cd 0.79912 0.7043 1.00326 0.0
C285 C 0.80568 0.72836 0.08465 0.0
O286 O 0.76158 0.65308 0.99155 0.0
O287 O 0.74544 0.69585 1.00206 0.0
O288 O 0.81413 0.70314 0.95042 0.0
C289 C 0.73982 0.66497 0.99416 0.0
O290 O 0.79329 0.69873 0.08326 0.0
C291 C 0.81444 0.73233 0.94963 0.0
O292 O 0.81226 0.73811 0.05929 0.0
O293 O 0.80701 0.74932 0.97419 0.0
C294 C 0.98934 0.55574 0.85967 0.0
O295 O 0.99992 0.54552 0.83442 0.0
Cd296 Cd 0.97211 0.52412 0.78554 0.0
O297 O 0.96326 0.55754 0.85965 0.0
Cd298 Cd 0.92425 0.55155 0.82 0.0
C299 C 0.91531 0.4757 0.81366 0.0
O300 O 0.9507 0.56713 0.77934 0.0
O301 O 0.91368 0.52767 0.76105 0.0
O302 O 0.91766 0.60416 0.84011 0.0
C303 C 0.93592 0.54682 0.75513 0.0
O304 O 0.9362 0.47924 0.7967 0.0
C305 C 0.89029 0.59442 0.83465 0.0
O306 O 0.90662 0.49973 0.82813 0.0
O307 O 0.87938 0.56397 0.82898 0.0
C308 C 0.91515 0.49453 0.4948 0.0
O309 O 0.90576 0.51487 0.48202 0.0
Cd310 Cd 0.85563 0.50394 0.46481 0.0
O311 O 0.89842 0.47349 0.50584 0.0
Cd312 Cd 0.84849 0.45726 0.51261 0.0
C313 C 0.8544 0.42472 0.43884 0.0
O314 O 0.82883 0.50255 0.5104 0.0
O315 O 0.799 0.45453 0.49723 0.0
O316 O 0.85957 0.45525 0.56802 0.0
C317 C 0.80299 0.48525 0.50465 0.0
O318 O 0.85347 0.45103 0.43042 0.0
C319 C 0.84847 0.4247 0.56181 0.0
O320 O 0.85244 0.42151 0.46724 0.0
O321 O 0.83492 0.41115 0.53403 0.0
C322 C 0.65349 0.52468 0.34208 0.0
O323 O 0.64323 0.54168 0.32557 0.0
Cd324 Cd 0.6734 0.53846 0.28094 0.0
O325 O 0.67297 0.51079 0.32928 0.0
Cd326 Cd 0.69895 0.50922 0.26876 0.0
C327 C 0.72658 0.59664 0.27948 0.0
O328 O 0.65067 0.51012 0.22714 0.0
O329 O 0.6907 0.51807 0.20815 0.0
O330 O 0.7093 0.4468 0.2528 0.0
C331 C 0.66351 0.51562 0.20278 0.0
O332 O 0.69955 0.59304 0.27999 0.0
C333 C 0.73467 0.45168 0.26779 0.0
O334 O 0.73598 0.5706 0.27805 0.0
O335 O 0.74405 0.48173 0.2818 0.0
Gd336 Gd 0.10642 0.07106 0.05095 0.0
Gd337 Gd 0.04298 0.02276 1.00727 0.0
C338 C 1.00374 0.91907 0.0172 0.0
C339 C 0.99489 0.8887 0.96167 0.0
C340 C 0.02062 0.94605 0.97522 0.0
C341 C 0.01818 0.94722 1.00746 0.0
C342 C 0.00919 0.91656 0.95202 0.0
C343 C 0.99202 0.89001 0.99416 0.0
C344 C 1.00087 0.92099 0.04976 0.0
C345 C 0.01257 0.95022 0.07187 0.0
N346 N 0.02909 0.97591 0.0292 0.0
C347 C 0.02662 0.97735 0.06122 0.0
H348 H 0.0362 0.99888 0.07942 0.0
C349 C 0.03314 0.97364 0.93405 0.0
N350 N 0.0329 0.97388 0.96629 0.0
C351 C 0.02328 0.94483 0.91052 0.0
C352 C 0.01155 0.91606 0.91957 0.0
H353 H 0.03984 0.99596 0.92595 0.0
H354 H 0.98058 0.86841 1.00123 0.0
H355 H 0.11136 0.09612 0.97906 0.0
H356 H 0.98977 0.90003 0.05808 0.0
H357 H 0.01089 0.95195 0.09727 0.0
H358 H 0.98556 0.86613 0.9441 0.0
H359 H 0.1099 0.09709 0.13193 0.0
H360 H 0.15881 0.1947 1.00089 0.0
H361 H 0.13619 0.14345 0.96124 0.0
H362 H 0.1606 0.22823 0.11472 0.0
H363 H 0.02394 0.94506 0.8853 0.0
H364 H 1.0036 0.89378 0.90122 0.0
H365 H 0.16779 0.226 0.05804 0.0
H366 H 0.12126 0.14856 0.17249 0.0
N367 N 0.12075 0.11804 0.02935 0.0
C368 C 0.14819 0.17347 0.00911 0.0
C369 C 0.13549 0.14465 0.98672 0.0
C370 C 0.14611 0.17489 0.04176 0.0
C371 C 0.13231 0.14639 0.05132 0.0
C372 C 0.12168 0.11731 0.99722 0.0
N373 N 0.11672 0.11955 0.09201 0.0
C374 C 0.12902 0.14747 0.08333 0.0
C375 C 0.12324 0.14873 0.14745 0.0
C376 C 0.13388 0.17781 0.13839 0.0
C377 C 0.11592 0.11963 0.12409 0.0
C378 C 0.1385 0.17723 0.10643 0.0
H379 H 0.13941 0.20053 0.15633 0.0
O380 O 0.13972 0.07239 0.08889 0.0
O381 O 0.08531 0.01797 0.02963 0.0
O382 O 0.03012 0.04236 0.05835 0.0
O383 O 0.07259 0.07414 0.08814 0.0
O384 O 0.09959 0.03133 0.07845 0.0
O385 O 0.15012 0.07226 0.03951 0.0
O386 O 0.01025 0.021 0.96875 0.0
O387 O 0.06386 0.07612 0.02904 0.0
O388 O 0.11869 0.05193 0.99898 0.0
O389 O 0.0756 0.02133 0.96959 0.0
O390 O 0.05096 0.06277 0.98036 0.0
O391 O 0.99916 0.02204 0.01796 0.0
C392 C 0.08927 1.00686 0.05471 0.0
C393 C 0.15264 0.20538 0.09713 0.0
C394 C 0.15683 0.20409 0.06492 0.0
C395 C 0.15934 0.07402 0.06941 0.0
C396 C 0.1893 0.0757 0.07988 0.0
C397 C 0.20263 0.09368 0.11053 0.0
C398 C 0.20437 0.05797 0.05936 0.0
C399 C 0.23241 0.05732 0.06967 0.0
C400 C 0.23114 0.09363 0.12052 0.0
C401 C 0.24601 0.07519 0.10019 0.0
C402 C 0.04434 0.06063 0.08655 0.0
C403 C 0.05975 0.08756 1.00416 0.0
C404 C 0.9904 0.02007 0.98789 0.0
C405 C 0.96068 0.01841 0.9767 0.0
C406 C 0.94873 1.003 0.94487 0.0
C407 C 0.94485 0.03468 0.99746 0.0
C408 C 0.91752 0.03671 0.98622 0.0
C409 C 0.92091 1.00439 0.93387 0.0
C410 C 0.90533 0.02155 0.95444 0.0
C411 C 0.10375 0.03415 0.97089 0.0
H412 H 0.19103 0.10757 0.12662 0.0
H413 H 0.19388 0.04349 0.03591 0.0
H414 H 0.24147 0.10739 0.14415 0.0
H415 H 0.2678 0.07442 0.1083 0.0
H416 H 0.96099 0.99032 0.92855 0.0
H417 H 0.95433 0.04728 0.02186 0.0
H418 H 0.91173 0.99279 0.90929 0.0
H419 H 0.88405 0.02335 0.94565 0.0
Gd420 Gd 0.30297 0.81034 0.31228 0.0
Gd421 Gd 0.3347 0.78511 0.23879 0.0
C422 C 0.3073 0.67903 0.18106 0.0
C423 C 0.34996 0.65942 0.1916 0.0
C424 C 0.34853 0.71484 0.21699 0.0
C425 C 0.32074 0.70958 0.20179 0.0
C426 C 0.36402 0.69037 0.21022 0.0
C427 C 0.32149 0.65364 0.17736 0.0
C428 C 0.28118 0.67569 0.16231 0.0
C429 C 0.27095 0.70322 0.16152 0.0
N430 N 0.30871 0.73547 0.20338 0.0
C431 C 0.28595 0.73321 0.18099 0.0
H432 H 0.28042 0.75452 0.17599 0.0
C433 C 0.39168 0.75408 0.2389 0.0
N434 N 0.36203 0.74537 0.23375 0.0
C435 C 0.4079 0.73084 0.23316 0.0
C436 C 0.39388 0.69854 0.21961 0.0
H437 H 0.40308 0.77928 0.24732 0.0
H438 H 0.31143 0.63013 0.16161 0.0
H439 H 0.37639 0.84314 0.33951 0.0
H440 H 0.27018 0.65269 0.14625 0.0
H441 H 0.2524 0.70169 0.14467 0.0
H442 H 0.36148 0.64037 0.18644 0.0
H443 H 0.2389 0.82978 0.29933 0.0
H444 H 0.38347 0.93174 0.4078 0.0
H445 H 0.40562 0.88918 0.37973 0.0
H446 H 0.28829 0.94929 0.39923 0.0
H447 H 0.43125 0.73805 0.23835 0.0
H448 H 0.40656 0.68064 0.21432 0.0
H449 H 0.33971 0.9537 0.41507 0.0
H450 H 0.21493 0.87162 0.32314 0.0
N451 N 0.33642 0.85712 0.34499 0.0
C452 C 0.37016 0.91114 0.3901 0.0
C453 C 0.38267 0.88708 0.37449 0.0
C454 C 0.3408 0.90882 0.38204 0.0
C455 C 0.32442 0.88164 0.35853 0.0
C456 C 0.36554 0.86028 0.35194 0.0
N457 N 0.28086 0.85452 0.32464 0.0
C458 C 0.29578 0.88005 0.34842 0.0
C459 C 0.23782 0.8747 0.33002 0.0
C460 C 0.25312 0.90142 0.35368 0.0
C461 C 0.25189 0.85129 0.31602 0.0
C462 C 0.28238 0.90439 0.3632 0.0
H463 H 0.24202 0.91932 0.36483 0.0
O464 O 0.25898 0.78643 0.31741 0.0
O465 O 0.29989 0.77227 0.26789 0.0
O466 O 0.29088 0.79324 0.22234 0.0
O467 O 0.27803 0.82199 0.26923 0.0
O468 O 0.29922 0.75746 0.31141 0.0
O469 O 0.29036 0.81201 0.35972 0.0
O470 O 0.37553 0.81396 0.23001 0.0
O471 O 0.33686 0.82368 0.28239 0.0
O472 O 0.34141 0.79333 0.33166 0.0
O473 O 0.36138 0.77811 0.28375 0.0
O474 O 0.33594 0.83726 0.23877 0.0
O475 O 0.34284 0.78478 0.18955 0.0
C476 C 0.29801 0.74839 0.2806 0.0
C477 C 0.29832 0.9306 0.3875 0.0
C478 C 0.32754 0.933 0.39665 0.0
C479 C 0.26367 0.79596 0.34877 0.0
C480 C 0.24948 0.77404 0.36747 0.0
C481 C 0.22097 0.7739 0.37357 0.0
C482 C 0.26521 0.75659 0.38263 0.0
C483 C 0.25292 0.74025 0.40499 0.0
C484 C 0.20845 0.75677 0.39546 0.0
C485 C 0.22454 0.74025 0.41155 0.0
C486 C 0.27396 0.81038 0.23745 0.0
C487 C 0.33749 0.84728 0.2695 0.0
C488 C 0.3693 0.80212 0.19908 0.0
C489 C 0.38654 0.8161 0.17671 0.0
C490 C 0.40623 0.79995 0.1621 0.0
C491 C 0.38155 0.84364 0.16771 0.0
C492 C 0.39491 0.85425 0.14243 0.0
C493 C 0.42029 0.81093 0.13751 0.0
C494 C 0.4143 0.83765 0.12724 0.0
C495 C 0.36156 0.78212 0.31582 0.0
H496 H 0.2088 0.78784 0.36219 0.0
H497 H 0.28748 0.75724 0.37847 0.0
H498 H 0.18662 0.75705 0.40061 0.0
H499 H 0.2151 0.72788 0.42933 0.0
H500 H 0.41005 0.77838 0.16908 0.0
H501 H 0.36622 0.85583 0.17938 0.0
H502 H 0.43503 0.79806 0.12567 0.0
H503 H 0.42397 0.84446 0.10671 0.0
Gd504 Gd 0.54083 0.04746 0.54749 0.0
Gd505 Gd 0.60817 0.04787 0.51594 0.0
C506 C 0.67113 0.14628 0.52639 0.0
C507 C 0.67659 0.14808 0.47061 0.0
C508 C 0.64467 0.10126 0.48333 0.0
C509 C 0.6515 0.11554 0.51591 0.0
C510 C 0.65753 0.11714 0.46035 0.0
C511 C 0.68335 0.16264 0.50355 0.0
C512 C 0.67814 0.15949 0.55954 0.0
C513 C 0.66603 0.14183 0.58127 0.0
N514 N 0.63949 0.09908 0.5374 0.0
C515 C 0.64685 0.11134 0.56966 0.0
H516 H 0.63755 0.09775 0.58633 0.0
C517 C 0.62132 0.05485 0.44258 0.0
N518 N 0.62626 0.0713 0.47418 0.0
C519 C 0.6334 0.0697 0.41889 0.0
C520 C 0.65137 0.10111 0.42777 0.0
H521 H 0.60773 0.03036 0.43576 0.0
H522 H 0.69836 0.18634 0.51113 0.0
H523 H 0.51065 0.99502 0.47331 0.0
H524 H 0.69305 0.18307 0.56856 0.0
H525 H 0.67148 0.15165 0.60695 0.0
H526 H 0.68657 0.16074 0.4533 0.0
H527 H 0.54704 0.05589 0.62966 0.0
H528 H 0.44485 0.91956 0.49138 0.0
H529 H 0.47198 0.94677 0.45361 0.0
H530 H 0.45195 0.93839 0.60566 0.0
H531 H 0.62903 0.05682 0.39386 0.0
H532 H 0.66087 0.11248 0.40939 0.0
H533 H 0.43715 0.91716 0.54773 0.0
H534 H 0.52429 0.02817 0.66858 0.0
N535 N 0.50752 0.99666 0.52362 0.0
C536 C 0.4623 0.94108 0.50067 0.0
C537 C 0.47754 0.95635 0.47931 0.0
C538 C 0.46989 0.95347 0.53373 0.0
C539 C 0.49304 0.98146 0.54476 0.0
C540 C 0.49978 0.98431 0.49108 0.0
N541 N 0.52425 0.01984 0.58793 0.0
C542 C 0.50179 0.99313 0.57762 0.0
C543 C 0.51807 0.01768 0.6431 0.0
C544 C 0.4957 0.98986 0.63281 0.0
C545 C 0.53165 0.0328 0.62045 0.0
C546 C 0.487 0.97749 0.59989 0.0
H547 H 0.48482 0.97856 0.6505 0.0
O548 O 0.52468 0.0787 0.58439 0.0
O549 O 0.58516 0.07993 0.54743 0.0
O550 O 0.60839 0.03302 0.56193 0.0
O551 O 0.57548 0.05652 0.58864 0.0
O552 O 0.54999 0.09702 0.53585 0.0
O553 O 0.49928 0.05834 0.53648 0.0
O554 O 0.6244 1.0078 0.49196 0.0
O555 O 0.56897 1.01367 0.52787 0.0
O556 O 0.53559 0.04671 0.49571 0.0
O557 O 0.58178 0.06467 0.48166 0.0
O558 O 0.57864 1.00609 0.48093 0.0
O559 O 0.65083 0.04259 0.53297 0.0
C560 C 0.57778 0.10468 0.54055 0.0
C561 C 0.46361 0.95035 0.58884 0.0
C562 C 0.45511 0.93835 0.55588 0.0
C563 C 0.50135 0.07646 0.56544 0.0
C564 C 0.479 0.09293 0.57642 0.0
C565 C 0.47482 0.09831 0.60907 0.0
C566 C 0.46208 0.10382 0.55473 0.0
C567 C 0.44152 0.12068 0.56598 0.0
C568 C 0.45408 0.11458 0.62011 0.0
C569 C 0.43761 0.12586 0.59876 0.0
C570 C 0.59639 0.04146 0.58779 0.0
C571 C 0.56385 0.99272 0.50098 0.0
C572 C 0.64852 0.01606 0.511 0.0
C573 C 0.67409 1.01033 0.49607 0.0
C574 C 0.67866 0.01579 0.46533 0.0
C575 C 0.69226 0.99511 0.51131 0.0
C576 C 0.71485 0.98545 0.496 0.0
C577 C 0.70122 1.00613 0.45006 0.0
C578 C 0.71931 0.99101 0.46532 0.0
C579 C 0.55358 0.05765 0.47649 0.0
H580 H 0.48748 0.08974 0.62601 0.0
H581 H 0.46515 0.09966 0.52944 0.0
H582 H 0.45072 0.1184 0.64525 0.0
H583 H 0.42135 0.13815 0.60775 0.0
H584 H 0.6645 0.02676 0.45284 0.0
H585 H 0.6886 0.99039 0.53485 0.0
H586 H 0.7045 1.01006 0.42624 0.0
H587 H 0.73669 0.98349 0.4532 0.0
Gd588 Gd 0.35981 0.29058 0.78047 0.0
Gd589 Gd 0.28886 0.30888 0.77447 0.0
C590 C 0.23496 0.2794 0.67476 0.0
C591 C 0.22812 0.33133 0.66699 0.0
C592 C 0.25558 0.32836 0.71606 0.0
C593 C 0.2513 0.2952 0.70497 0.0
C594 C 0.24345 0.34671 0.6975 0.0
C595 C 0.22391 0.29773 0.65563 0.0
C596 C 0.22959 0.24556 0.66492 0.0
C597 C 0.23989 0.22822 0.68524 0.0
N598 N 0.26216 0.27821 0.72416 0.0
C599 C 0.25592 0.24487 0.71485 0.0
H600 H 0.26478 0.23054 0.72866 0.0
C601 C 0.27126 0.37425 0.75945 0.0
N602 N 0.27017 0.34244 0.74577 0.0
C603 C 0.25987 0.39351 0.7419 0.0
C604 C 0.24624 0.37979 0.71059 0.0
H605 H 0.28129 0.38483 0.78396 0.0
H606 H 0.21152 0.28604 0.63233 0.0
H607 H 0.39535 0.36803 0.82034 0.0
H608 H 0.21725 0.23259 0.6419 0.0
H609 H 0.23596 0.20198 0.67792 0.0
H610 H 0.21885 0.34508 0.65231 0.0
H611 H 0.36771 0.2149 0.76934 0.0
H612 H 0.43588 0.36437 0.9108 0.0
H613 H 0.42448 0.3957 0.87148 0.0
H614 H 0.42521 0.25062 0.90311 0.0
H615 H 0.26139 0.41885 0.75264 0.0
H616 H 0.2372 0.39468 0.69711 0.0
H617 H 0.43524 0.30999 0.92283 0.0
H618 H 0.38682 0.17982 0.80001 0.0
N619 N 0.38849 0.32028 0.82971 0.0
C620 C 0.4227 0.35177 0.88817 0.0
C621 C 0.4164 0.3695 0.86601 0.0
C622 C 0.41353 0.31784 0.87991 0.0
C623 C 0.39657 0.3026 0.84997 0.0
C624 C 0.3995 0.35335 0.83672 0.0
N625 N 0.37734 0.2561 0.80876 0.0
C626 C 0.39084 0.26932 0.83905 0.0
C627 C 0.38779 0.20485 0.81144 0.0
C628 C 0.39966 0.21742 0.84355 0.0
C629 C 0.37698 0.22474 0.79419 0.0
C630 C 0.40201 0.25024 0.85751 0.0
H631 H 0.40813 0.202 0.85685 0.0
O632 O 0.38137 0.26701 0.74285 0.0
O633 O 0.32377 0.29501 0.74631 0.0
O634 O 0.28337 0.25636 0.78058 0.0
O635 O 0.32825 0.24542 0.79127 0.0
O636 O 0.3382 0.25215 0.73787 0.0
O637 O 0.40056 0.31658 0.76781 0.0
O638 O 0.26763 0.33091 0.81322 0.0
O639 O 0.32518 0.30438 0.808 0.0
O640 O 0.36487 0.34346 0.77397 0.0
O641 O 0.3198 0.35496 0.76594 0.0
O642 O 0.31067 0.34683 0.81834 0.0
O643 O 0.24686 0.283 0.78506 0.0
C644 C 0.3217 0.26807 0.7264 0.0
C645 C 0.41682 0.26494 0.8884 0.0
C646 C 0.42253 0.29874 0.89962 0.0
C647 C 0.4031 0.29194 0.74591 0.0
C648 C 0.43173 0.28476 0.74509 0.0
C649 C 0.44191 0.26913 0.7676 0.0
C650 C 0.44831 0.29175 0.72028 0.0
C651 C 0.47449 0.28219 0.71755 0.0
C652 C 0.46784 0.25963 0.76493 0.0
C653 C 0.48398 0.26595 0.74001 0.0
C654 C 0.29927 0.2363 0.78717 0.0
C655 C 0.32802 0.33102 0.82841 0.0
C656 C 0.24531 0.30641 0.80893 0.0
C657 C 0.21711 0.31443 0.81304 0.0
C658 C 0.20948 0.33884 0.79957 0.0
C659 C 0.19896 0.30003 0.83351 0.0
C660 C 0.1737 0.31041 0.84062 0.0
C661 C 0.18454 0.34921 0.80676 0.0
C662 C 0.1668 0.33519 0.82724 0.0
C663 C 0.34862 0.36378 0.76887 0.0
H664 H 0.42976 0.26405 0.78709 0.0
H665 H 0.44068 0.30407 0.70294 0.0
H666 H 0.47549 0.24738 0.78226 0.0
H667 H 0.50428 0.25874 0.73866 0.0
H668 H 0.22305 0.35037 0.78403 0.0
H669 H 0.20476 0.2814 0.84437 0.0
H670 H 0.17907 0.3684 0.79665 0.0
H671 H 0.14761 0.3437 0.83271 0.0
Gd672 Gd 0.08653 1.01258 0.50787 0.0
Gd673 Gd 0.07174 0.08355 0.54651 0.0
C674 C 0.11127 0.13397 0.64984 0.0
C675 C 0.06905 0.1438 0.67488 0.0
C676 C 0.06361 0.11349 0.61919 0.0
C677 C 0.09332 0.11699 0.62093 0.0
C678 C 0.05125 0.12726 0.6461 0.0
C679 C 0.09896 0.14707 0.67677 0.0
C680 C 0.14122 0.13822 0.65064 0.0
C681 C 0.15273 0.12639 0.62293 0.0
N682 N 0.1048 0.10527 0.5941 0.0
C683 C 0.13425 0.11044 0.59468 0.0
H684 H 0.14398 0.10173 0.57375 0.0
C685 C 0.01795 0.09713 0.58745 0.0
N686 N 0.04695 0.09823 0.59082 0.0
C687 C 0.00475 0.10996 0.61352 0.0
C688 C 0.02146 0.125 0.64303 0.0
H689 H 0.00498 0.08648 0.56434 0.0
H690 H 0.11246 0.16034 0.69902 0.0
H691 H 0.01433 0.99635 0.47833 0.0
H692 H 0.15567 0.15106 0.67237 0.0
H693 H 0.17591 0.1298 0.62318 0.0
H694 H 0.05994 0.15464 0.69568 0.0
H695 H 0.15353 1.00956 0.49063 0.0
H696 H 1.0039 0.94637 0.38022 0.0
H697 H 0.98316 0.96863 0.42862 0.0
H698 H 0.09968 0.941 0.359 0.0
H699 H 0.9818 0.10871 0.61065 0.0
H700 H 0.01125 0.13543 0.66309 0.0
H701 H 0.04726 0.93605 0.35469 0.0
H702 H 0.17704 0.98691 0.44484 0.0
N703 N 0.05392 0.99121 0.45949 0.0
C704 C 0.01809 0.95893 0.40221 0.0
C705 C 0.00631 0.97132 0.42946 0.0
C706 C 0.04799 0.96247 0.40375 0.0
C707 C 0.06564 0.97913 0.43298 0.0
C708 C 0.02444 0.98696 0.458 0.0
N709 N 0.11168 0.99764 0.46377 0.0
C710 C 0.09529 0.98232 0.43523 0.0
C711 C 0.1541 0.98574 0.44167 0.0
C712 C 0.13764 0.97052 0.41207 0.0
C713 C 0.14071 0.99881 0.46745 0.0
C714 C 0.10789 0.96841 0.40858 0.0
H715 H 0.148 0.95992 0.39224 0.0
O716 O 0.11217 0.97915 0.51753 0.0
O717 O 0.08694 0.04067 0.5597 0.0
O718 O 0.11428 0.09719 0.52625 0.0
O719 O 0.1218 0.05006 0.49505 0.0
O720 O 0.12435 0.02792 0.54785 0.0
O721 O 0.06458 0.96319 0.50817 0.0
O722 O 0.04605 0.11704 0.53753 0.0
O723 O 0.0713 0.05543 0.49526 0.0
O724 O 0.04299 0.99905 0.52544 0.0
O725 O 0.03648 0.04517 0.55905 0.0
O726 O 0.03397 0.06896 0.50642 0.0
O727 O 0.09367 0.13334 0.54668 0.0
C728 C 0.11216 0.03937 0.5721 0.0
C729 C 0.09038 0.95197 0.37959 0.0
C730 C 0.06053 0.94911 0.37714 0.0
C731 C 0.08907 0.95576 0.51435 0.0
C732 C 0.0903 0.92357 0.51815 0.0
C733 C 0.11269 0.90975 0.50709 0.0
C734 C 0.06981 0.90732 0.53464 0.0
C735 C 0.0718 0.87733 0.5405 0.0
C736 C 0.11434 0.87938 0.51233 0.0
C737 C 0.09396 0.86315 0.52903 0.0
C738 C 0.12946 0.08162 0.50688 0.0
C739 C 0.04635 0.05705 0.48255 0.0
C740 C 0.06903 0.14064 0.54087 0.0
C741 C 0.06725 0.17299 0.53788 0.0
C742 C 0.046 0.18701 0.55184 0.0
C743 C 0.08478 0.18838 0.51804 0.0
C744 C 0.08029 0.21712 0.51101 0.0
C745 C 0.04226 0.21642 0.54576 0.0
C746 C 0.05915 0.23133 0.52511 0.0
C747 C 0.02782 1.01385 0.54537 0.0
H748 H 0.1288 0.92241 0.49448 0.0
H749 H 0.05272 0.9183 0.54354 0.0
H750 H 0.13158 0.86862 0.5038 0.0
H751 H 0.09577 0.83988 0.53354 0.0
H752 H 0.03212 0.17501 0.567 0.0
H753 H 0.1006 0.17703 0.50651 0.0
H754 H 0.02579 0.22723 0.55641 0.0
H755 H 0.05548 0.2536 0.5197 0.0
Gd756 Gd 0.29314 0.77607 0.78243 0.0
Gd757 Gd 0.35575 0.81961 0.7608 0.0
C758 C 0.37355 0.92705 0.76024 0.0
C759 C 0.38826 0.92724 0.70703 0.0
C760 C 0.37186 0.87592 0.72295 0.0
C761 C 0.36772 0.89272 0.75301 0.0
C762 C 0.38207 0.89311 0.69965 0.0
C763 C 0.3841 0.94415 0.73725 0.0
C764 C 0.36837 0.94327 0.79029 0.0
C765 C 0.35745 0.92537 0.81226 0.0
N766 N 0.35758 0.87563 0.77494 0.0
C767 C 0.35234 0.89151 0.80427 0.0
H768 H 0.34383 0.87837 0.82171 0.0
C769 C 0.37223 0.82591 0.68814 0.0
N770 N 0.36654 0.84294 0.71669 0.0
C771 C 0.38141 0.84178 0.664 0.0
C772 C 0.38635 0.87556 0.66976 0.0
H773 H 0.37014 0.8001 0.68421 0.0
H774 H 0.38892 0.9705 0.74253 0.0
H775 H 0.29904 0.70941 0.72653 0.0
H776 H 0.37251 0.96958 0.79667 0.0
H777 H 0.35314 0.93765 0.83548 0.0
H778 H 0.39639 0.94081 0.68953 0.0
H779 H 0.26957 0.80176 0.85217 0.0
H780 H 0.29014 0.62935 0.77151 0.0
H781 H 0.29725 0.65222 0.72351 0.0
H782 H 0.2669 0.67135 0.87606 0.0
H783 H 0.38536 0.82803 0.64128 0.0
H784 H 0.39404 0.88792 0.65124 0.0
H785 H 0.27948 0.63691 0.82855 0.0
H786 H 0.25254 0.77953 0.89828 0.0
N787 N 0.2937 0.7206 0.77663 0.0
C788 C 0.29111 0.65492 0.77324 0.0
C789 C 0.29507 0.6677 0.7461 0.0
C790 C 0.28708 0.67488 0.80186 0.0
C791 C 0.28836 0.70804 0.80285 0.0
C792 C 0.29608 0.70056 0.74811 0.0
N793 N 0.28163 0.75893 0.82956 0.0
C794 C 0.28177 0.72763 0.82991 0.0
C795 C 0.26119 0.76489 0.8795 0.0
C796 C 0.26294 0.7335 0.88128 0.0
C797 C 0.27096 0.77746 0.85351 0.0
C798 C 0.27306 0.71433 0.85621 0.0
H799 H 0.2556 0.72395 0.90161 0.0
O800 O 0.25123 0.78655 0.78556 0.0
O801 O 0.30819 0.82262 0.76352 0.0
O802 O 0.35868 0.82893 0.81374 0.0
O803 O 0.32211 0.79278 0.82937 0.0
O804 O 0.28619 0.82669 0.80275 0.0
O805 O 0.25457 0.74181 0.75391 0.0
O806 O 0.39672 0.81293 0.74612 0.0
O807 O 0.34041 0.7732 0.77912 0.0
O808 O 0.29625 0.76238 0.72991 0.0
O809 O 0.32472 0.80645 0.71635 0.0
O810 O 0.36398 0.76916 0.74157 0.0
O811 O 0.39526 0.84744 0.79139 0.0
C812 C 0.29596 0.84268 0.78171 0.0
C813 C 0.27322 0.68185 0.85592 0.0
C814 C 0.28036 0.66222 0.82886 0.0
C815 C 0.23754 0.75978 0.76545 0.0
C816 C 0.20885 0.74436 0.77248 0.0
C817 C 0.20281 0.74386 0.80405 0.0
C818 C 0.18607 0.73708 0.74779 0.0
C819 C 0.15752 0.73386 0.75494 0.0
C820 C 0.17427 0.7381 0.81105 0.0
C821 C 0.15173 0.73392 0.78681 0.0
C822 C 0.34638 0.81565 0.83578 0.0
C823 C 0.35259 0.7528 0.76151 0.0
C824 C 0.41102 0.83329 0.77214 0.0
C825 C 0.44122 0.84888 0.77211 0.0
C826 C 0.45123 0.86496 0.74818 0.0
C827 C 0.46073 0.84372 0.79517 0.0
C828 C 0.49025 0.85322 0.79373 0.0
C829 C 0.48105 0.87546 0.74739 0.0
C830 C 0.50055 0.86927 0.7699 0.0
C831 C 0.30539 0.77876 0.70853 0.0
H832 H 0.21994 0.74928 0.82347 0.0
H833 H 0.19092 0.73668 0.72333 0.0
H834 H 0.16974 0.73868 0.83561 0.0
H835 H 0.13 0.73214 0.79332 0.0
H836 H 0.4362 0.86865 0.72992 0.0
H837 H 0.45292 0.83054 0.81315 0.0
H838 H 0.48905 0.88756 0.72885 0.0
H839 H 0.52358 0.87639 0.76843 0.0
Gd840 Gd 0.56764 0.05714 0.98968 0.0
Gd841 Gd 0.58359 0.03742 0.06847 0.0
C842 C 0.66495 0.08705 0.1394 0.0
C843 C 0.6828 0.0406 0.14752 0.0
C844 C 0.64086 0.03289 0.10827 0.0
C845 C 0.6423 0.06609 0.11651 0.0
C846 C 0.66113 0.01991 0.12381 0.0
C847 C 0.68484 0.07408 0.15511 0.0
C848 C 0.66733 0.12057 0.14555 0.0
C849 C 0.64777 0.13261 0.12872 0.0
N850 N 0.62237 0.07802 0.10138 0.0
C851 C 0.62538 0.11105 0.10671 0.0
H852 H 0.61149 0.12158 0.09342 0.0
C853 C 0.6179 0.9805 0.07647 0.0
N854 N 0.62024 1.01341 0.0845 0.0
C855 C 0.63749 0.9667 0.09121 0.0
C856 C 0.65918 0.98646 0.11501 0.0
H857 H 0.60048 0.96461 0.05898 0.0
H858 H 0.70209 0.08981 0.17302 0.0
H859 H 0.53662 0.97484 0.9631 0.0
H860 H 0.68457 0.13739 0.16272 0.0
H861 H 0.64997 0.15861 0.13261 0.0
H862 H 0.6984 0.03098 0.15979 0.0
H863 H 0.56248 0.13218 0.98889 0.0
H864 H 0.45723 0.96344 0.90519 0.0
H865 H 0.49361 0.9398 0.92908 0.0
H866 H 0.45017 0.07246 0.90851 0.0
H867 H 0.63552 0.94072 0.08455 0.0
H868 H 0.67427 0.97564 0.12652 0.0
H869 H 0.441 1.01286 0.89813 0.0
H870 H 0.52928 0.1596 0.96475 0.0
N871 N 0.52596 0.01956 0.95888 0.0
C872 C 0.47641 0.97937 0.92004 0.0
C873 C 0.49703 0.96595 0.93327 0.0
C874 C 0.48066 1.01316 0.92631 0.0
C875 C 0.50588 0.0329 0.94615 0.0
C876 C 0.5218 0.98636 0.95253 0.0
N877 N 0.53462 0.08487 0.97246 0.0
C878 C 0.51046 0.06647 0.95295 0.0
C879 C 0.52341 0.13343 0.96174 0.0
C880 C 0.49738 0.11506 0.94377 0.0
C881 C 0.54202 0.11782 0.97562 0.0
C882 C 0.49078 0.08114 0.93878 0.0
H883 H 0.48296 0.12721 0.93307 0.0
O884 O 0.59448 0.09419 0.97099 0.0
O885 O 0.59683 0.06931 0.03608 0.0
O886 O 0.56857 0.08271 0.07897 0.0
O887 O 0.55357 0.09299 0.02893 0.0
O888 O 0.61609 0.07412 0.99526 0.0
O889 O 0.57821 0.04437 0.94101 0.0
O890 O 0.56159 0.99216 0.07997 0.0
O891 O 0.55332 0.02497 0.02258 0.0
O892 O 0.58082 1.0105 0.98037 0.0
O893 O 0.60402 1.00928 0.0299 0.0
O894 O 0.53519 0.02955 0.06575 0.0
O895 O 0.57602 0.038 0.11749 0.0
C896 C 0.62075 0.07566 0.02535 0.0
C897 C 0.46561 0.06158 0.91933 0.0
C898 C 0.46047 0.02767 0.9133 0.0
C899 C 0.59438 0.0738 0.94383 0.0
C900 C 0.59721 0.08718 0.91567 0.0
C901 C 0.57574 0.09949 0.90206 0.0
C902 C 0.62354 0.08902 0.90344 0.0
C903 C 0.62868 0.10236 0.87684 0.0
C904 C 0.58102 0.11378 0.87587 0.0
C905 C 0.60736 0.11511 0.86311 0.0
C906 C 0.55575 0.09837 0.06106 0.0
C907 C 0.52988 0.02347 0.03497 0.0
C908 C 0.56481 1.00647 0.11061 0.0
C909 C 0.54638 0.99257 0.13241 0.0
C910 C 0.55103 0.96436 0.14092 0.0
C911 C 0.52644 1.00828 0.14703 0.0
C912 C 0.51126 0.9958 0.17044 0.0
C913 C 0.5359 0.95185 0.16406 0.0
C914 C 0.51606 0.96746 0.17882 0.0
C915 C 0.59915 1.0009 0.99821 0.0
H916 H 0.5552 0.09807 0.91154 0.0
H917 H 0.64001 0.07937 0.91431 0.0
H918 H 0.56452 0.12326 0.86508 0.0
H919 H 0.61057 0.12483 0.84186 0.0
H920 H 0.56689 0.95246 0.13015 0.0
H921 H 0.52311 0.03033 0.14065 0.0
H922 H 0.5399 0.93034 0.17092 0.0
H923 H 0.50495 0.95786 0.1973 0.0
Gd924 Gd 0.30206 0.25451 0.25575 0.0
Gd925 Gd 0.34648 0.33476 0.29642 0.0
C926 C 0.43153 0.3934 0.27564 0.0
C927 C 0.4545 0.42036 0.32989 0.0
C928 C 0.40987 0.37792 0.32149 0.0
C929 C 0.40872 0.37517 0.28852 0.0
C930 C 0.43272 0.4007 0.34253 0.0
C931 C 0.45407 0.41648 0.2965 0.0
C932 C 0.43159 0.38705 0.24224 0.0
C933 C 0.40987 0.36223 0.22267 0.0
N934 N 0.38659 0.35252 0.26909 0.0
C935 C 0.38759 0.345 0.23648 0.0
H936 H 0.37133 0.3259 0.22057 0.0
C937 C 0.38915 0.36021 0.36532 0.0
N938 N 0.38888 0.35787 0.33283 0.0
C939 C 0.41114 0.38274 0.38711 0.0
C940 C 0.43284 0.4033 0.37569 0.0
H941 H 0.37121 0.34656 0.3748 0.0
H942 H 0.47155 0.43103 0.28704 0.0
H943 H 0.28138 0.21592 0.3167 0.0
H944 H 0.44879 0.4004 0.23142 0.0
H945 H 0.41015 0.35644 0.19684 0.0
H946 H 0.47209 0.43814 0.34569 0.0
H947 H 0.28155 0.24126 0.17657 0.0
H948 H 0.18995 0.19318 0.31106 0.0
H949 H 0.23764 0.19671 0.33958 0.0
H950 H 0.16201 0.1959 0.20348 0.0
H951 H 0.41076 0.38504 0.41277 0.0
H952 H 0.44931 0.42137 0.39269 0.0
H953 H 0.1619 0.19245 0.25966 0.0
H954 H 0.23756 0.22013 0.13815 0.0
N955 N 0.2602 0.23157 0.27859 0.0
C956 C 0.20943 0.20378 0.30168 0.0
C957 C 0.23625 0.20566 0.31779 0.0
C958 C 0.20814 0.21204 0.2718 0.0
C959 C 0.23418 0.22621 0.2607 0.0
C960 C 0.26136 0.2179 0.30494 0.0
N961 N 0.25955 0.24043 0.21841 0.0
C962 C 0.23393 0.22976 0.22926 0.0
C963 C 0.23607 0.2236 0.16374 0.0
C964 C 0.20946 0.21473 0.17479 0.0
C965 C 0.26093 0.23603 0.18581 0.0
C966 C 0.20805 0.21734 0.20776 0.0
H967 H 0.19048 0.20421 0.15746 0.0
O968 O 0.30384 0.21425 0.2166 0.0
O969 O 0.34746 0.28368 0.27464 0.0
O970 O 0.33094 0.3366 0.24562 0.0
O971 O 0.29766 0.28746 0.22204 0.0
O972 O 0.33868 0.26132 0.22648 0.0
O973 O 0.31087 0.21119 0.26712 0.0
O974 O 0.33923 0.37103 0.33639 0.0
O975 O 0.30189 0.30446 0.27827 0.0
O976 O 0.31256 0.261 0.31041 0.0
O977 O 0.35492 0.30132 0.32827 0.0
O978 O 0.30912 0.33149 0.32525 0.0
O979 O 0.34437 0.38159 0.2882 0.0
C980 C 0.359 0.27618 0.24957 0.0
C981 C 0.18203 0.20533 0.21938 0.0
C982 C 0.18197 0.2033 0.2515 0.0
C983 C 0.30714 0.19637 0.23677 0.0
C984 C 0.31019 0.16341 0.22642 0.0
C985 C 0.29987 0.14425 0.19527 0.0
C986 C 0.3225 0.15041 0.24921 0.0
C987 C 0.32514 0.11871 0.24157 0.0
C988 C 0.30253 0.11201 0.18746 0.0
C989 C 0.31551 0.09918 0.2106 0.0
C990 C 0.31285 0.31668 0.2212 0.0
C991 C 0.29026 0.31171 0.3031 0.0
C992 C 0.34203 0.39239 0.31862 0.0
C993 C 0.33927 0.42518 0.33068 0.0
C994 C 0.34907 0.44244 0.36258 0.0
C995 C 0.32706 0.43967 0.30915 0.0
C996 C 0.32383 0.47103 0.31904 0.0
C997 C 0.34613 0.4744 0.3725 0.0
C998 C 0.33313 0.48872 0.35074 0.0
C999 C 0.33456 0.27696 0.33279 0.0
H1000 H 0.28968 0.154 0.17733 0.0
H1001 H 0.33087 0.1653 0.2732 0.0
H1002 H 0.29477 0.09714 0.16351 0.0
H1003 H 0.31824 0.07456 0.20443 0.0
H1004 H 0.35905 0.4314 0.37951 0.0
H1005 H 0.31886 0.426 0.28467 0.0
H1006 H 0.35353 0.48785 0.39705 0.0
H1007 H 0.32996 0.51301 0.35858 0.0
Gd1008 Gd 0.5858 0.51178 0.00947 0.0
Gd1009 Gd 0.57122 0.58165 0.05063 0.0
C1010 C 0.60644 0.63423 0.1548 0.0
C1011 C 0.56327 0.64645 0.17579 0.0
C1012 C 0.56003 0.61344 0.12154 0.0
C1013 C 0.58967 0.61653 0.12535 0.0
C1014 C 0.54659 0.62864 0.14669 0.0
C1015 C 0.59309 0.64909 0.17989 0.0
C1016 C 0.63629 0.63713 0.15806 0.0
C1017 C 0.64887 0.62296 0.13227 0.0
N1018 N 0.60222 0.60314 0.10012 0.0
C1019 C 0.63161 0.60644 0.10337 0.0
H1020 H 0.64238 0.59615 0.08403 0.0
C1021 C 0.51537 0.59463 0.08779 0.0
N1022 N 0.54444 0.59664 0.09294 0.0
C1023 C 0.50117 0.60913 0.11203 0.0
C1024 C 0.51684 0.62625 0.14161 0.0
H1025 H 0.50327 0.58244 0.06449 0.0
H1026 H 0.6057 0.66303 0.20246 0.0
H1027 H 0.51313 0.49497 0.97965 0.0
H1028 H 0.64984 0.65045 0.18027 0.0
H1029 H 0.67199 0.62511 0.13444 0.0
H1030 H 0.55334 0.65847 0.19523 0.0
H1031 H 0.65285 0.51141 0.99156 0.0
H1032 H 0.50302 0.44511 0.88178 0.0
H1033 H 0.48217 0.46702 0.93019 0.0
H1034 H 0.59916 0.4423 0.85997 0.0
H1035 H 0.47825 0.60762 0.10766 0.0
H1036 H 0.50585 0.63789 0.16022 0.0
H1037 H 0.54654 0.43586 0.85603 0.0
H1038 H 0.6767 0.49029 0.94533 0.0
N1039 N 0.55299 0.49036 0.96105 0.0
C1040 C 0.51719 0.45779 0.90375 0.0
C1041 C 0.50535 0.46998 0.931 0.0
C1042 C 0.54713 0.46186 0.90521 0.0
C1043 C 0.56476 0.47866 0.93444 0.0
C1044 C 0.52345 0.48579 0.9595 0.0
N1045 N 0.61083 0.49812 0.96501 0.0
C1046 C 0.59447 0.4826 0.93651 0.0
C1047 C 0.65361 0.48823 0.9424 0.0
C1048 C 0.63714 0.47265 0.91287 0.0
C1049 C 0.64004 0.50047 0.96841 0.0
C1050 C 0.60722 0.46944 0.90966 0.0
H1051 H 0.64765 0.46271 0.89286 0.0
O1052 O 0.61077 0.47669 0.01613 0.0
O1053 O 0.58645 0.53814 0.06166 0.0
O1054 O 0.61569 0.59548 0.03602 0.0
O1055 O 0.62089 0.55175 0.99799 0.0
O1056 O 0.62376 0.52547 0.04924 0.0
O1057 O 0.56311 0.46327 0.01177 0.0
O1058 O 0.54571 0.61417 0.03929 0.0
O1059 O 0.57101 0.55512 0.99835 0.0
O1060 O 0.54126 0.49982 0.02637 0.0
O1061 O 0.53831 0.54369 0.06586 0.0
O1062 O 0.53352 0.56712 0.01018 0.0
O1063 O 0.5931 0.63176 0.05165 0.0
C1064 C 0.61153 0.53628 0.07373 0.0
C1065 C 0.58974 0.45274 0.88071 0.0
C1066 C 0.55979 0.44903 0.87847 0.0
C1067 C 0.58731 0.4545 0.0156 0.0
C1068 C 0.58771 0.42203 0.01945 0.0
C1069 C 0.6086 0.40658 1.00661 0.0
C1070 C 0.56811 0.40712 0.03781 0.0
C1071 C 0.56935 0.3768 0.04333 0.0
C1072 C 0.60956 0.376 0.01182 0.0
C1073 C 0.58996 0.36106 0.03017 0.0
C1074 C 0.63036 0.58224 0.01444 0.0
C1075 C 0.54591 0.55641 0.98579 0.0
C1076 C 0.56843 0.63826 0.04395 0.0
C1077 C 0.56597 0.67021 0.04067 0.0
C1078 C 0.54238 0.68218 0.05098 0.0
C1079 C 0.58615 0.68781 0.02494 0.0
C1080 C 0.58278 0.71742 0.01935 0.0
C1081 C 0.53926 0.7121 0.04575 0.0
C1082 C 0.55942 0.72976 0.0299 0.0
C1083 C 0.52798 0.51363 0.04936 0.0
H1084 H 0.6241 0.41817 0.99266 0.0
H1085 H 0.55241 0.41941 0.04849 0.0
H1086 H 0.62567 0.36404 1.00196 0.0
H1087 H 0.59119 0.33759 0.0346 0.0
H1088 H 0.5264 0.66836 0.06286 0.0
H1089 H 0.604 0.67812 0.01624 0.0
H1090 H 0.52104 0.72136 0.05357 0.0
H1091 H 0.5565 0.75262 0.02526 0.0
Gd1092 Gd 0.79305 0.27492 0.28491 0.0
Gd1093 Gd 0.85575 0.3211 0.26389 0.0
C1094 C 0.86779 0.4263 0.2552 0.0
C1095 C 0.87436 0.42207 0.19881 0.0
C1096 C 0.86407 0.37326 0.22028 0.0
C1097 C 0.86271 0.3921 0.25051 0.0
C1098 C 0.87025 0.38824 0.19429 0.0
C1099 C 0.87324 0.44103 0.22917 0.0
C1100 C 0.86841 0.44498 0.28618 0.0
C1101 C 0.8642 0.42968 0.31169 0.0
N1102 N 0.85812 0.37743 0.27564 0.0
C1103 C 0.85885 0.39581 0.30599 0.0
H1104 H 0.85549 0.38496 0.32631 0.0
C1105 C 0.86636 0.32235 0.18851 0.0
N1106 N 0.86126 0.34072 0.2167 0.0
C1107 C 0.87161 0.33595 0.16194 0.0
C1108 C 0.87334 0.36901 0.16475 0.0
H1109 H 0.86654 0.29714 0.18672 0.0
H1110 H 0.87724 0.46722 0.23245 0.0
H1111 H 0.79848 0.20746 0.22872 0.0
H1112 H 0.87262 0.47128 0.29076 0.0
H1113 H 0.86507 0.44397 0.33586 0.0
H1114 H 0.87921 0.43392 0.17914 0.0
H1115 H 0.76502 0.29726 0.35246 0.0
H1116 H 0.79101 0.12798 0.274 0.0
H1117 H 0.79748 0.15082 0.22586 0.0
H1118 H 0.77287 0.17127 0.38067 0.0
H1119 H 0.87499 0.32109 0.13954 0.0
H1120 H 0.87807 0.37967 0.1443 0.0
H1121 H 0.783 0.13618 0.33198 0.0
H1122 H 0.75497 0.27788 0.40217 0.0
N1123 N 0.79347 0.2191 0.27896 0.0
C1124 C 0.79163 0.15346 0.27566 0.0
C1125 C 0.7953 0.16625 0.2485 0.0
C1126 C 0.78806 0.1735 0.30445 0.0
C1127 C 0.78873 0.20651 0.30527 0.0
C1128 C 0.79607 0.19904 0.2505 0.0
N1129 N 0.78091 0.25669 0.33149 0.0
C1130 C 0.78273 0.22608 0.33253 0.0
C1131 C 0.76313 0.26321 0.38295 0.0
C1132 C 0.76736 0.23291 0.38568 0.0
C1133 C 0.76913 0.27426 0.35502 0.0
C1134 C 0.77624 0.21342 0.35981 0.0
H1135 H 0.76237 0.22417 0.40714 0.0
O1136 O 0.75114 0.28574 0.28709 0.0
O1137 O 0.8085 0.32193 0.26727 0.0
O1138 O 0.8572 0.33108 0.31704 0.0
O1139 O 0.8213 0.29294 0.33185 0.0
O1140 O 0.78556 0.32586 0.30538 0.0
O1141 O 0.75506 0.24217 0.25405 0.0
O1142 O 0.89516 0.31477 0.24575 0.0
O1143 O 0.84116 0.27367 0.28183 0.0
O1144 O 0.79931 0.2608 0.23362 0.0
O1145 O 0.82161 0.30823 0.22191 0.0
O1146 O 0.86689 0.2727 0.24624 0.0
O1147 O 0.89685 0.35068 0.29147 0.0
C1148 C 0.79698 0.34242 0.28546 0.0
C1149 C 0.77744 0.18128 0.35981 0.0
C1150 C 0.78316 0.16129 0.33208 0.0
C1151 C 0.73785 0.25993 0.26553 0.0
C1152 C 0.70876 0.24406 0.27091 0.0
C1153 C 0.70247 0.23636 0.30042 0.0
C1154 C 0.68622 0.24234 0.24757 0.0
C1155 C 0.65756 0.23533 0.25419 0.0
C1156 C 0.67369 0.2278 0.30657 0.0
C1157 C 0.65123 0.22756 0.28363 0.0
C1158 C 0.84439 0.31744 0.33871 0.0
C1159 C 0.85517 0.25469 0.26474 0.0
C1160 C 0.91094 0.33656 0.26991 0.0
C1161 C 0.94154 0.34819 0.26803 0.0
C1162 C 0.95164 0.35509 0.23951 0.0
C1163 C 0.96094 0.34809 0.29393 0.0
C1164 C 0.99036 0.35401 0.29109 0.0
C1165 C 0.98129 0.36168 0.23704 0.0
C1166 C 1.00065 0.36094 0.26273 0.0
C1167 C 0.80643 0.27824 0.21262 0.0
H1168 H 0.7196 0.23786 0.31893 0.0
H1169 H 0.6911 0.24885 0.22499 0.0
H1170 H 0.66886 0.22255 0.32958 0.0
H1171 H 0.62914 0.22264 0.28934 0.0
H1172 H 0.93664 0.3547 0.21911 0.0
H1173 H 0.95312 0.34213 0.31573 0.0
H1174 H 0.98924 0.36676 0.21507 0.0
H1175 H 0.0236 0.36551 0.26048 0.0
Gd1176 Gd 0.06917 0.56615 0.48956 0.0
Gd1177 Gd 0.08219 0.53718 0.56564 0.0
C1178 C 0.1639 0.58527 0.63694 0.0
C1179 C 0.18857 0.54143 0.63285 0.0
C1180 C 0.14189 0.5328 0.60132 0.0
C1181 C 0.14115 0.56471 0.61394 0.0
C1182 C 0.16528 0.5206 0.61121 0.0
C1183 C 0.18788 0.5737 0.64569 0.0
C1184 C 0.16155 0.61656 0.65116 0.0
C1185 C 0.13673 0.62647 0.64287 0.0
N1186 N 0.11764 0.57517 0.60495 0.0
C1187 C 0.11492 0.60546 0.61964 0.0
H1188 H 0.09631 0.61421 0.6137 0.0
C1189 C 0.11696 0.48047 0.57104 0.0
N1190 N 0.11901 0.51315 0.58069 0.0
C1191 C 0.13971 0.46732 0.57995 0.0
C1192 C 0.16416 0.48756 0.59979 0.0
H1193 H 0.09809 0.46487 0.55548 0.0
H1194 H 0.20566 0.58927 0.663 0.0
H1195 H 0.05179 0.48792 0.4443 0.0
H1196 H 0.1785 0.633 0.66895 0.0
H1197 H 0.13452 0.6505 0.65405 0.0
H1198 H 0.20685 0.53258 0.64047 0.0
H1199 H 0.05518 0.63903 0.49315 0.0
H1200 H 0.96483 0.46587 0.40034 0.0
H1201 H 0.00979 0.44878 0.41196 0.0
H1202 H 0.94013 0.56879 0.42283 0.0
H1203 H 0.13835 0.44162 0.57153 0.0
H1204 H 0.1817 0.47728 0.60683 0.0
H1205 H 0.93898 0.51071 0.40467 0.0
H1206 H 0.01437 0.66207 0.47855 0.0
N1207 N 0.0311 0.52722 0.45377 0.0
C1208 C 0.98328 0.48326 0.41513 0.0
C1209 C 0.00859 0.47357 0.42162 0.0
C1210 C 0.98244 0.51561 0.42691 0.0
C1211 C 0.00702 0.5373 0.44631 0.0
C1212 C 0.0325 0.49605 0.44053 0.0
N1213 N 0.03164 0.5899 0.475 0.0
C1214 C 0.00735 0.56969 0.45719 0.0
C1215 C 0.01197 0.636 0.47269 0.0
C1216 C 0.98594 0.61524 0.45672 0.0
C1217 C 0.03497 0.6229 0.48093 0.0
C1218 C 0.98358 0.58169 0.4481 0.0
H1219 H 0.96819 0.62543 0.45016 0.0
O1220 O 0.09779 0.60486 0.47583 0.0
O1221 O 0.09818 0.56616 0.53152 0.0
O1222 O 0.06121 0.57954 0.57484 0.0
O1223 O 0.04846 0.5943 0.5266 0.0
O1224 O 0.10429 0.60904 0.51821 0.0
O1225 O 0.08449 0.55754 0.44179 0.0
O1226 O 0.05857 0.49553 0.5811 0.0
O1227 O 0.05334 0.53674 0.52345 0.0
O1228 O 0.08806 0.52115 0.48256 0.0
O1229 O 0.11189 0.52044 0.53222 0.0
O1230 O 0.04865 0.4929 0.53568 0.0
O1231 O 0.05933 0.54527 0.60709 0.0
C1232 C 0.11498 0.5938 0.53726 0.0
C1233 C 0.95871 0.56007 0.42975 0.0
C1234 C 0.95809 0.52704 0.41932 0.0
C1235 C 0.09983 0.58763 0.44786 0.0
C1236 C 0.10665 0.60535 0.42282 0.0
C1237 C 0.10296 0.63716 0.42588 0.0
C1238 C 0.1227 0.59302 0.39944 0.0
C1239 C 0.13558 0.61242 0.37949 0.0
C1240 C 0.11612 0.65671 0.40624 0.0
C1241 C 0.13264 0.64454 0.38327 0.0
C1242 C 0.04883 0.59642 0.55787 0.0
C1243 C 0.03777 0.50839 0.51707 0.0
C1244 C 0.0498 0.51395 0.60467 0.0
C1245 C 0.04606 0.50289 0.63422 0.0
C1246 C 0.0619 0.48267 0.64513 0.0
C1247 C 0.02402 0.51165 0.65073 0.0
C1248 C 0.01743 0.50083 0.67837 0.0
C1249 C 0.05512 0.47126 0.67274 0.0
C1250 C 0.03279 0.48018 0.68936 0.0
C1251 C 0.10578 0.51035 0.50085 0.0
H1252 H 0.09101 0.64736 0.44432 0.0
H1253 H 0.12553 0.56846 0.39706 0.0
H1254 H 0.1138 0.68142 0.40905 0.0
H1255 H 0.14272 0.65993 0.36811 0.0
H1256 H 0.07904 0.47554 0.63227 0.0
H1257 H 0.01166 0.52696 0.64187 0.0
H1258 H 0.06716 0.45554 0.68126 0.0
H1259 H 0.02789 0.47157 0.71089 0.0
Gd1260 Gd 0.85694 0.78716 0.27668 0.0
Gd1261 Gd 0.78755 0.80824 0.27516 0.0
C1262 C 0.71957 0.77488 0.18576 0.0
C1263 C 0.71148 0.82626 0.17764 0.0
C1264 C 0.74623 0.82529 0.22173 0.0
C1265 C 0.74023 0.79186 0.21265 0.0
C1266 C 0.73177 0.84293 0.20451 0.0
C1267 C 0.70523 0.79227 0.16842 0.0
C1268 C 0.71496 0.74109 0.17607 0.0
C1269 C 0.73179 0.72522 0.19194 0.0
N1270 N 0.75637 0.77614 0.22825 0.0
C1271 C 0.75275 0.74316 0.21755 0.0
H1272 H 0.76665 0.7302 0.22727 0.0
C1273 C 0.76994 0.87331 0.25971 0.0
N1274 N 0.76606 0.84066 0.24761 0.0
C1275 C 0.75666 0.892 0.24321 0.0
C1276 C 0.73782 0.87679 0.21512 0.0
H1277 H 0.78287 0.88481 0.28257 0.0
H1278 H 0.68965 0.77969 0.14752 0.0
H1279 H 0.89367 0.86549 0.31531 0.0
H1280 H 0.6993 0.72722 0.15565 0.0
H1281 H 0.7292 0.69922 0.18391 0.0
H1282 H 0.70037 0.83941 0.16395 0.0
H1283 H 0.863 0.71038 0.26887 0.0
H1284 H 0.93333 0.86337 0.40654 0.0
H1285 H 0.9224 0.89379 0.36622 0.0
H1286 H 0.92103 0.75014 0.40232 0.0
H1287 H 0.76051 0.91799 0.25255 0.0
H1288 H 0.72734 0.89123 0.20243 0.0
H1289 H 0.93218 0.80971 0.42003 0.0
H1290 H 0.8804 0.6762 0.30172 0.0
N1291 N 0.88616 0.81795 0.32553 0.0
C1292 C 0.92027 0.85041 0.38393 0.0
C1293 C 0.91427 0.86761 0.3612 0.0
C1294 C 0.9108 0.81651 0.3764 0.0
C1295 C 0.89379 0.80072 0.34655 0.0
C1296 C 0.8975 0.851 0.33196 0.0
N1297 N 0.87306 0.753 0.30689 0.0
C1298 C 0.88713 0.76718 0.33684 0.0
C1299 C 0.88203 0.70163 0.31213 0.0
C1300 C 0.8944 0.71531 0.34388 0.0
C1301 C 0.87208 0.72107 0.29368 0.0
C1302 C 0.89779 0.74861 0.35636 0.0
H1303 H 0.90248 0.70031 0.35801 0.0
O1304 O 0.87849 0.76089 0.24174 0.0
O1305 O 0.82203 0.79691 0.24442 0.0
O1306 O 0.78107 0.75547 0.28084 0.0
O1307 O 0.82482 0.74079 0.28354 0.0
O1308 O 0.83451 0.75423 0.22979 0.0
O1309 O 0.89973 0.81069 0.26565 0.0
O1310 O 0.7679 0.83405 0.31323 0.0
O1311 O 0.82413 0.80196 0.30729 0.0
O1312 O 0.86374 0.83975 0.26937 0.0
O1313 O 0.8195 0.85406 0.26649 0.0
O1314 O 0.81144 0.84593 0.31728 0.0
O1315 O 0.74868 0.78337 0.29281 0.0
C1316 C 0.81951 0.77286 0.22059 0.0
C1317 C 0.913 0.76407 0.3869 0.0
C1318 C 0.91937 0.79798 0.39697 0.0
C1319 C 0.90109 0.78489 0.24453 0.0
C1320 C 0.92896 0.77645 0.24017 0.0
C1321 C 0.93425 0.74828 0.24838 0.0
C1322 C 0.94846 0.79376 0.22288 0.0
C1323 C 0.97246 0.78221 0.21309 0.0
C1324 C 0.95819 0.73701 0.23883 0.0
C1325 C 0.97706 0.7537 0.22107 0.0
C1326 C 0.79616 0.73345 0.28308 0.0
C1327 C 0.82807 0.82931 0.32717 0.0
C1328 C 0.74689 0.80924 0.31353 0.0
C1329 C 0.71798 0.8158 0.31718 0.0
C1330 C 0.70959 0.83972 0.3035 0.0
C1331 C 0.69976 0.80053 0.33717 0.0
C1332 C 0.67388 0.80987 0.34381 0.0
C1333 C 0.68403 0.84889 0.31008 0.0
C1334 C 0.66638 0.83425 0.33023 0.0
C1335 C 0.84831 0.86157 0.26705 0.0
H1336 H 0.91944 0.73437 0.26126 0.0
H1337 H 0.9445 0.81542 0.21619 0.0
H1338 H 0.96193 0.71504 0.24488 0.0
H1339 H 0.99557 0.74458 0.21386 0.0
H1340 H 0.72306 0.85192 0.28831 0.0
H1341 H 0.70598 0.78214 0.34806 0.0
H1342 H 0.67803 0.86771 0.29976 0.0
H1343 H 0.6467 0.84189 0.33519 0.0
Gd1344 Gd 0.80602 0.31432 0.81402 0.0
Gd1345 Gd 0.8383 0.28629 0.7419 0.0
C1346 C 0.80664 0.18644 0.6734 0.0
C1347 C 0.85084 0.16765 0.67125 0.0
C1348 C 0.84985 0.2178 0.7091 0.0
C1349 C 0.82121 0.21429 0.69727 0.0
C1350 C 0.86506 0.19472 0.69567 0.0
C1351 C 0.82163 0.16333 0.66041 0.0
C1352 C 0.77736 0.18252 0.66321 0.0
C1353 C 0.7632 0.20585 0.6769 0.0
N1354 N 0.80753 0.2378 0.70923 0.0
C1355 C 0.7786 0.23336 0.69989 0.0
H1356 H 0.76658 0.25005 0.71085 0.0
C1357 C 0.89229 0.24984 0.74234 0.0
N1358 N 0.86318 0.24432 0.73269 0.0
C1359 C 0.90812 0.22773 0.72969 0.0
C1360 C 0.89445 0.19998 0.70633 0.0
H1361 H 0.90396 0.27213 0.75895 0.0
H1362 H 0.81086 0.1421 0.64178 0.0
H1363 H 0.87753 0.35092 0.84405 0.0
H1364 H 0.76539 0.16131 0.64524 0.0
H1365 H 0.7403 0.20257 0.66992 0.0
H1366 H 0.86228 0.1499 0.66055 0.0
H1367 H 0.73986 0.3269 0.79813 0.0
H1368 H 0.87901 0.44038 0.90859 0.0
H1369 H 0.90404 0.39876 0.88456 0.0
H1370 H 0.78201 0.45142 0.89313 0.0
H1371 H 0.93107 0.2326 0.73741 0.0
H1372 H 0.90692 0.18313 0.69616 0.0
H1373 H 0.83353 0.45966 0.91163 0.0
H1374 H 0.71257 0.36645 0.81944 0.0
N1375 N 0.83683 0.36335 0.8454 0.0
C1376 C 0.86705 0.41908 0.89071 0.0
C1377 C 0.88117 0.39554 0.87746 0.0
C1378 C 0.83781 0.41517 0.88033 0.0
C1379 C 0.82323 0.38711 0.85672 0.0
C1380 C 0.86569 0.36776 0.8549 0.0
N1381 N 0.78092 0.35609 0.8223 0.0
C1382 C 0.79447 0.38325 0.84508 0.0
C1383 C 0.73569 0.37185 0.8264 0.0
C1384 C 0.74959 0.40041 0.84859 0.0
C1385 C 0.75155 0.34973 0.81388 0.0
C1386 C 0.77919 0.40629 0.85847 0.0
H1387 H 0.7371 0.41726 0.85868 0.0
O1388 O 0.76346 0.29106 0.82374 0.0
O1389 O 0.80312 0.27471 0.77107 0.0
O1390 O 0.7991 0.30058 0.72176 0.0
O1391 O 0.78109 0.32303 0.76864 0.0
O1392 O 0.80084 0.26172 0.81511 0.0
O1393 O 0.79715 0.31835 0.86332 0.0
O1394 O 0.88159 0.30952 0.73424 0.0
O1395 O 0.84135 0.32562 0.7852 0.0
O1396 O 0.84571 0.30007 0.83425 0.0
O1397 O 0.86275 0.27702 0.78691 0.0
O1398 O 0.84251 0.33878 0.7413 0.0
O1399 O 0.84802 0.28646 0.69324 0.0
C1400 C 0.80065 0.25133 0.78467 0.0
C1401 C 0.7935 0.43373 0.88245 0.0
C1402 C 0.82278 0.43831 0.89313 0.0
C1403 C 0.7699 0.30322 0.85469 0.0
C1404 C 0.75563 0.28495 0.87628 0.0
C1405 C 0.7338 0.29586 0.89226 0.0
C1406 C 0.76486 0.25842 0.88284 0.0
C1407 C 0.75288 0.24312 0.90623 0.0
C1408 C 0.72159 0.28048 0.91543 0.0
C1409 C 0.73131 0.2544 0.92275 0.0
C1410 C 0.78033 0.31523 0.73646 0.0
C1411 C 0.84359 0.34911 0.77187 0.0
C1412 C 0.87528 0.30095 0.70301 0.0
C1413 C 0.89155 0.32078 0.68351 0.0
C1414 C 0.92041 0.31947 0.68097 0.0
C1415 C 0.87848 0.33842 0.66541 0.0
C1416 C 0.89418 0.35396 0.64418 0.0
C1417 C 0.93611 0.33535 0.66014 0.0
C1418 C 0.92302 0.35244 0.64162 0.0
C1419 C 0.86413 0.28507 0.81906 0.0
H1420 H 0.72672 0.3167 0.88732 0.0
H1421 H 0.7819 0.25031 0.87049 0.0
H1422 H 0.70512 0.28926 0.92825 0.0
H1423 H 0.72258 0.24371 0.94187 0.0
H1424 H 0.93059 0.30552 0.69462 0.0
H1425 H 0.85602 0.33906 0.66689 0.0
H1426 H 0.95826 0.33396 0.65798 0.0
H1427 H 0.93525 0.36426 0.6251 0.0
Gd1428 Gd 0.79796 0.75554 0.7569 0.0
Gd1429 Gd 0.84517 0.83608 0.79126 0.0
C1430 C 0.93879 0.86567 0.77221 0.0
C1431 C 0.96312 0.88708 0.82663 0.0
C1432 C 0.91236 0.85727 0.81745 0.0
C1433 C 0.91268 0.85418 0.7845 0.0
C1434 C 0.93758 0.87447 0.83882 0.0
C1435 C 0.96385 0.88224 0.79341 0.0
C1436 C 0.9389 0.86087 0.73891 0.0
C1437 C 0.91342 0.84524 0.71868 0.0
N1438 N 0.88747 0.84088 0.76457 0.0
C1439 C 0.88783 0.83578 0.73189 0.0
H1440 H 0.86887 0.82367 0.71529 0.0
C1441 C 0.88599 0.85122 0.86148 0.0
N1442 N 0.88706 0.84567 0.82873 0.0
C1443 C 0.91034 0.86807 0.88328 0.0
C1444 C 0.93615 0.87998 0.87194 0.0
H1445 H 0.86584 0.84556 0.87147 0.0
H1446 H 0.98382 0.89189 0.78436 0.0
H1447 H 0.77544 0.7761 0.83326 0.0
H1448 H 0.95855 0.86903 0.72859 0.0
H1449 H 0.91331 0.84085 0.69281 0.0
H1450 H 0.98245 0.90071 0.84272 0.0
H1451 H 0.77367 0.74 0.67863 0.0
H1452 H 0.68976 0.71812 0.827 0.0
H1453 H 0.73346 0.75624 0.8593 0.0
H1454 H 0.66461 0.67141 0.71422 0.0
H1455 H 0.90879 0.87316 0.9089 0.0
H1456 H 0.95455 0.89423 0.88898 0.0
H1457 H 0.66451 0.68598 0.77283 0.0
H1458 H 0.73261 0.70341 0.64294 0.0
N1459 N 0.75672 0.74974 0.78574 0.0
C1460 C 0.7082 0.72719 0.81519 0.0
C1461 C 0.73287 0.74847 0.83347 0.0
C1462 C 0.70741 0.7184 0.78178 0.0
C1463 C 0.73182 0.73138 0.76755 0.0
C1464 C 0.75703 0.75937 0.8184 0.0
N1465 N 0.75424 0.73957 0.72165 0.0
C1466 C 0.73077 0.72551 0.73444 0.0
C1467 C 0.7313 0.71025 0.66853 0.0
C1468 C 0.70753 0.69525 0.68152 0.0
C1469 C 0.7544 0.73233 0.68896 0.0
C1470 C 0.70662 0.70339 0.71472 0.0
H1471 H 0.6906 0.67662 0.66583 0.0
O1472 O 0.80769 0.72271 0.7155 0.0
O1473 O 0.84183 0.788 0.76043 0.0
O1474 O 0.83077 0.83864 0.74116 0.0
O1475 O 0.80096 0.78634 0.71871 0.0
O1476 O 0.83969 0.74261 0.76981 0.0
O1477 O 0.78198 0.70397 0.7508 0.0
O1478 O 0.83973 0.87052 0.83342 0.0
O1479 O 0.80113 0.8042 0.78728 0.0
O1480 O 0.81185 0.75207 0.80675 0.0
O1481 O 0.83964 0.80515 0.8288 0.0
O1482 O 0.80348 0.84987 0.77972 0.0
O1483 O 0.86353 0.88737 0.796 0.0
C1484 C 0.85676 0.76947 0.7676 0.0
C1485 C 0.68305 0.68882 0.72887 0.0
C1486 C 0.68314 0.69687 0.76228 0.0
C1487 C 0.79267 0.69708 0.72364 0.0
C1488 C 0.80342 0.6679 0.71828 0.0
C1489 C 0.79627 0.64571 0.68833 0.0
C1490 C 0.81806 0.66034 0.74386 0.0
C1491 C 0.82513 0.63047 0.73981 0.0
C1492 C 0.80359 0.61571 0.68427 0.0
C1493 C 0.81807 0.608 0.71004 0.0
C1494 C 0.81445 0.81629 0.7168 0.0
C1495 C 0.78591 0.82309 0.7815 0.0
C1496 C 0.8555 0.8952 0.82461 0.0
C1497 C 0.84679 0.92547 0.83241 0.0
C1498 C 0.85831 0.94796 0.86153 0.0
C1499 C 0.82785 0.93254 0.81043 0.0
C1500 C 0.82063 0.96236 0.81707 0.0
C1501 C 0.85081 0.97786 0.86833 0.0
C1502 C 0.832 0.98519 0.84604 0.0
C1503 C 0.82777 0.77497 0.83077 0.0
H1504 H 0.78467 0.65142 0.66842 0.0
H1505 H 0.82363 0.67746 0.76709 0.0
H1506 H 0.79801 0.59844 0.66131 0.0
H1507 H 0.82383 0.5848 0.70682 0.0
H1508 H 0.87318 0.94248 0.87872 0.0
H1509 H 0.81893 0.915 0.78797 0.0
H1510 H 0.85969 0.99539 0.89064 0.0
H1511 H 0.82657 1.0086 0.85115 0.0
Gd1512 Gd 0.60653 0.57181 0.55154 0.0
Gd1513 Gd 0.54393 0.52133 0.50833 0.0
C1514 C 0.49986 0.4172 0.51097 0.0
C1515 C 0.4874 0.3914 0.45416 0.0
C1516 C 0.51652 0.44722 0.47109 0.0
C1517 C 0.51488 0.44601 0.50294 0.0
C1518 C 0.50311 0.41971 0.44631 0.0
C1519 C 0.48567 0.39021 0.48644 0.0
C1520 C 0.5 0.4161 0.54341 0.0
C1521 C 0.51585 0.44272 0.56682 0.0
N1522 N 0.52896 0.4725 0.52609 0.0
C1523 C 0.53027 0.47073 0.55773 0.0
H1524 H 0.54341 0.49029 0.57611 0.0
C1525 C 0.53169 0.47769 0.43279 0.0
N1526 N 0.53099 0.47533 0.46431 0.0
C1527 C 0.51972 0.45077 0.40753 0.0
C1528 C 0.5055 0.42156 0.41432 0.0
H1529 H 0.54083 0.50074 0.42696 0.0
H1530 H 0.47372 0.3681 0.4922 0.0
H1531 H 0.61139 0.60121 0.48195 0.0
H1532 H 0.48876 0.39446 0.55055 0.0
H1533 H 0.51724 0.44153 0.5919 0.0
H1534 H 0.47657 0.37028 0.43544 0.0
H1535 H 0.60962 0.59233 0.63276 0.0
H1536 H 0.65636 0.70072 0.50927 0.0
H1537 H 0.63485 0.65097 0.46728 0.0
H1538 H 0.66212 0.72628 0.62392 0.0
H1539 H 0.52082 0.45284 0.38282 0.0
H1540 H 0.49581 0.40085 0.39468 0.0
H1541 H 0.66665 0.72833 0.56747 0.0
H1542 H 0.62394 0.64142 0.67645 0.0
N1543 N 0.61944 0.62079 0.53292 0.0
C1544 C 0.64592 0.67861 0.51616 0.0
C1545 C 0.63395 0.65061 0.49245 0.0
C1546 C 0.64397 0.67788 0.54845 0.0
C1547 C 0.63027 0.64835 0.55624 0.0
C1548 C 0.6209 0.62194 0.50122 0.0
N1549 N 0.61655 0.61803 0.59517 0.0
C1550 C 0.62823 0.64706 0.58813 0.0
C1551 C 0.6252 0.64348 0.65177 0.0
C1552 C 0.63633 0.67354 0.64478 0.0
C1553 C 0.61647 0.61577 0.62676 0.0
C1554 C 0.63911 0.67542 0.61286 0.0
H1555 H 0.64379 0.69494 0.6643 0.0
O1556 O 0.64018 0.57078 0.5876 0.0
O1557 O 0.58718 0.5182 0.5293 0.0
O1558 O 0.53323 0.53628 0.5621 0.0
O1559 O 0.57186 0.57834 0.58716 0.0
O1560 O 0.60184 0.53042 0.57733 0.0
O1561 O 0.65082 0.57777 0.53972 0.0
O1562 O 0.51153 0.5249 0.47219 0.0
O1563 O 0.56371 0.5748 0.5294 0.0
O1564 O 0.61708 0.55576 0.49836 0.0
O1565 O 0.57806 0.51431 0.47271 0.0
O1566 O 0.55068 0.56084 0.48046 0.0
O1567 O 0.50023 0.519 0.52028 0.0
C1568 C 0.59238 0.50595 0.55324 0.0
C1569 C 0.65303 0.70456 0.60517 0.0
C1570 C 0.65566 0.70572 0.57306 0.0
C1571 C 0.65997 0.57622 0.56872 0.0
C1572 C 0.6902 0.57947 0.5795 0.0
C1573 C 0.70259 0.59787 0.61029 0.0
C1574 C 0.70591 0.56142 0.56014 0.0
C1575 C 0.73358 0.56052 0.57204 0.0
C1576 C 0.73071 0.59791 0.6217 0.0
C1577 C 0.74618 0.5791 0.60271 0.0
C1578 C 0.54589 0.55946 0.58838 0.0
C1579 C 0.55975 0.5856 0.50417 0.0
C1580 C 0.49164 0.52059 0.4911 0.0
C1581 C 0.46211 0.51965 0.48072 0.0
C1582 C 0.44788 0.50002 0.45111 0.0
C1583 C 0.44828 0.53929 0.50067 0.0
C1584 C 0.41992 0.53939 0.49141 0.0
C1585 C 0.41927 0.49997 0.44176 0.0
C1586 C 0.40524 0.51968 0.46185 0.0
C1587 C 0.60412 0.53315 0.47187 0.0
H1588 H 0.69041 0.61177 0.62556 0.0
H1589 H 0.69595 0.54644 0.53671 0.0
H1590 H 0.74017 0.61185 0.64553 0.0
H1591 H 0.76774 0.57863 0.61193 0.0
H1592 H 0.4588 0.48475 0.4355 0.0
H1593 H 0.45993 0.55523 0.52299 0.0
H1594 H 0.40805 0.4848 0.41901 0.0
H1595 H 0.38307 0.51964 0.45439 0.0
Gd1596 Gd 0.04154 0.54748 0.04721 0.0
Gd1597 Gd 0.10847 0.54615 0.01442 0.0
C1598 C 0.16872 0.64624 0.0237 0.0
C1599 C 0.17219 0.64849 0.96771 0.0
C1600 C 0.14298 0.60035 0.9811 0.0
C1601 C 0.15017 0.61479 0.01357 0.0
C1602 C 0.15443 0.61676 0.95781 0.0
C1603 C 0.17928 0.66321 1.00059 0.0
C1604 C 0.1764 0.65947 0.05676 0.0
C1605 C 0.16629 0.64102 0.07871 0.0
N1606 N 0.13974 0.59769 0.03527 0.0
C1607 C 0.14812 0.60987 0.0674 0.0
H1608 H 0.14036 0.59573 0.08424 0.0
C1609 C 0.12113 0.55297 0.94086 0.0
N1610 N 0.12577 0.56969 0.97235 0.0
C1611 C 0.1319 0.56827 0.91687 0.0
C1612 C 0.1483 0.60047 0.92533 0.0
H1613 H 0.10853 0.52801 0.93435 0.0
H1614 H 0.19333 0.6875 1.00789 0.0
H1615 H 0.99373 0.50131 0.98207 0.0
H1616 H 0.19046 0.68361 0.06555 0.0
H1617 H 0.17241 0.65078 0.10432 0.0
H1618 H 0.18097 0.66161 0.95015 0.0
H1619 H 0.04714 0.56271 0.12942 0.0
H1620 H 0.95689 0.40959 1.00158 0.0
H1621 H 0.9636 0.44624 0.96404 0.0
H1622 H 0.98174 0.42725 0.11474 0.0
H1623 H 0.12764 0.55521 0.89189 0.0
H1624 H 0.15672 0.61223 0.9067 0.0
H1625 H 0.96346 0.40297 0.05791 0.0
H1626 H 0.03389 0.53365 0.17147 0.0
N1627 N 0.00909 0.49537 0.02821 0.0
C1628 C 0.97147 0.43355 0.00933 0.0
C1629 C 0.97519 0.45413 0.9881 0.0
C1630 C 0.9848 0.44508 0.04104 0.0
C1631 C 1.00384 0.47648 0.04996 0.0
C1632 C 0.99332 0.48537 0.9983 0.0
N1633 N 0.03099 0.52107 0.09026 0.0
C1634 C 0.01477 0.48987 0.08197 0.0
C1635 C 0.02886 0.52079 0.14644 0.0
C1636 C 0.01393 0.48823 0.13825 0.0
C1637 C 0.03668 0.53705 0.12219 0.0
C1638 C 0.00613 0.47254 0.10581 0.0
H1639 H 0.00736 0.47587 0.15715 0.0
O1640 O 0.02535 0.5799 0.08277 0.0
O1641 O 0.08571 0.57902 0.04518 0.0
O1642 O 0.10797 0.53273 0.06167 0.0
O1643 O 0.0772 0.56018 0.08777 0.0
O1644 O 0.05075 0.5964 0.03359 0.0
O1645 O 0.99897 0.5559 0.03601 0.0
O1646 O 0.12527 0.50605 0.99165 0.0
O1647 O 0.06876 0.51351 0.02652 0.0
O1648 O 0.03537 0.54149 0.99421 0.0
O1649 O 0.08075 0.56141 0.97946 0.0
O1650 O 0.08035 0.50189 0.98023 0.0
O1651 O 0.15099 0.54167 0.03267 0.0
C1652 C 0.07859 0.60364 0.03782 0.0
C1653 C 0.98845 0.44082 0.09675 0.0
C1654 C 0.97801 0.427 0.0644 0.0
C1655 C 1.00122 0.57525 0.06432 0.0
C1656 C 0.97854 0.59097 0.0751 0.0
C1657 C 0.97453 0.59688 0.1078 0.0
C1658 C 0.96118 0.60073 0.05304 0.0
C1659 C 0.94038 0.61716 0.06396 0.0
C1660 C 0.95342 0.61273 0.11851 0.0
C1661 C 0.93649 0.62303 0.09673 0.0
C1662 C 0.09719 0.54393 0.08776 0.0
C1663 C 0.06301 0.49195 1.00001 0.0
C1664 C 0.14912 0.5149 0.01123 0.0
C1665 C 0.17505 0.50929 0.99718 0.0
C1666 C 0.18092 0.51588 0.96716 0.0
C1667 C 0.1923 0.49325 0.01258 0.0
C1668 C 0.21524 0.48358 0.99806 0.0
C1669 C 0.2039 0.50636 0.95268 0.0
C1670 C 0.22105 0.49028 0.96805 0.0
C1671 C 0.05244 0.55244 0.97413 0.0
H1672 H 0.98763 0.5891 0.125 0.0
H1673 H 0.96408 0.59606 0.0277 0.0
H1674 H 0.95017 0.61703 0.14368 0.0
H1675 H 0.92 0.63512 0.10533 0.0
H1676 H 0.16747 0.52769 0.95468 0.0
H1677 H 0.18765 0.48792 0.03567 0.0
H1678 H 0.20825 0.51113 0.92938 0.0
H1679 H 0.23871 0.48284 0.95645 0.0
C1680 C 0.05788 0.179 0.01201 0.0
C1681 C 0.03546 0.17747 0.98767 0.0
C1682 C 0.06438 0.15042 0.0195 0.0
C1683 C 0.04971 0.11868 1.00224 0.0
H1684 H 0.07106 0.20251 0.02496 0.0
H1685 H 0.08134 0.15354 0.03854 0.0
S1686 S 0.98451 0.10088 0.94189 0.0
N1687 N 0.99522 0.14096 0.95077 0.0
N1688 N 0.00781 0.08841 0.96363 0.0
C1689 C 0.02583 0.11712 0.97969 0.0
C1690 C 0.01883 0.14598 0.97261 0.0
C1691 C 0.225 0.85782 0.20153 0.0
C1692 C 0.20881 0.83472 0.17438 0.0
C1693 C 0.24543 0.84975 0.22236 0.0
C1694 C 0.2502 0.81809 0.2172 0.0
H1695 H 0.22212 0.88242 0.2065 0.0
H1696 H 0.25796 0.86861 0.24225 0.0
S1697 S 0.20811 0.74714 0.154 0.0
N1698 N 0.19622 0.77809 0.1462 0.0
N1699 N 0.2327 0.76257 0.1858 0.0
C1700 C 0.23255 0.79449 0.19137 0.0
C1701 C 0.21237 0.80285 0.16994 0.0
C1702 C 0.5676 0.90658 0.46086 0.0
C1703 C 0.55216 0.88543 0.47825 0.0
C1704 C 0.57095 0.94024 0.46909 0.0
C1705 C 0.56029 0.95604 0.49631 0.0
H1706 H 0.57664 0.89706 0.43945 0.0
H1707 H 0.58209 0.95388 0.45314 0.0
S1708 S 0.52523 0.9134 0.55595 0.0
N1709 N 0.52944 0.88338 0.52719 0.0
N1710 N 0.53902 0.94758 0.54493 0.0
C1711 C 0.54766 0.93576 0.51636 0.0
C1712 C 0.54291 0.9005 0.50694 0.0
C1713 C 0.5316 0.33147 0.67887 0.0
C1714 C 0.54331 0.30713 0.66143 0.0
C1715 C 0.50671 0.32321 0.69411 0.0
C1716 C 0.49334 0.29043 0.69282 0.0
H1717 H 0.5432 0.3568 0.68325 0.0
H1718 H 0.4997 0.34249 0.70958 0.0
S1719 S 0.51301 0.21807 0.64565 0.0
N1720 N 0.53745 0.24936 0.63989 0.0
N1721 N 0.49112 0.2338 0.66891 0.0
C1722 C 0.50314 0.26611 0.67265 0.0
C1723 C 0.52809 0.27452 0.65685 0.0
C1724 C 0.01885 0.81156 0.56547 0.0
C1725 C 0.01872 0.82494 0.59838 0.0
C1726 C 0.03513 0.82935 0.54641 0.0
C1727 C 0.05132 0.86119 0.5595 0.0
H1728 H 0.00805 0.78638 0.5548 0.0
H1729 H 0.03608 0.81768 0.52166 0.0
S1730 S 0.05426 0.90948 0.64253 0.0
N1731 N 0.0332 0.87346 0.6421 0.0
N1732 N 0.06365 0.90711 0.60582 0.0
C1733 C 0.04925 0.87605 0.59141 0.0
C1734 C 0.03286 0.85783 0.61099 0.0
C1735 C 0.5482 0.81455 0.81758 0.0
C1736 C 0.56061 0.83562 0.84713 0.0
C1737 C 0.5232 0.81839 0.80156 0.0
C1738 C 0.51033 0.84342 0.81485 0.0
H1739 H 0.55951 0.79743 0.8053 0.0
H1740 H 0.51538 0.80368 0.77749 0.0
S1741 S 0.53117 0.89976 0.89496 0.0
N1742 N 0.55595 0.87839 0.89168 0.0
N1743 N 0.50833 0.88543 0.8615 0.0
C1744 C 0.52032 0.86171 0.84625 0.0
C1745 C 0.54582 0.85781 0.86254 0.0
C1746 C 0.51144 0.12675 0.12512 0.0
C1747 C 0.50234 0.15208 0.11495 0.0
C1748 C 0.52908 0.11029 0.10758 0.0
C1749 C 0.53811 0.11814 0.07883 0.0
H1750 H 0.50696 0.12143 0.14825 0.0
H1751 H 0.53593 0.09149 0.11721 0.0
S1752 S 0.51459 0.17773 0.03836 0.0
N1753 N 0.49886 0.18038 0.0716 0.0
N1754 N 0.53344 0.15015 0.0391 0.0
C1755 C 0.52707 0.1415 0.06697 0.0
C1756 C 0.50843 0.15791 0.08465 0.0
C1757 C 0.22297 0.29984 0.33923 0.0
C1758 C 0.21435 0.32776 0.33552 0.0
C1759 C 0.24586 0.29161 0.32422 0.0
C1760 C 0.25992 0.3102 0.30424 0.0
H1761 H 0.21368 0.28593 0.35602 0.0
H1762 H 0.25479 0.27333 0.33184 0.0
S1763 S 0.2436 0.38428 0.28499 0.0
N1764 N 0.21981 0.37329 0.30939 0.0
N1765 N 0.26268 0.35651 0.27974 0.0
C1766 C 0.24958 0.33641 0.29783 0.0
C1767 C 0.22663 0.34551 0.31387 0.0
C1768 C 0.02773 0.08588 0.17771 0.0
C1769 C 0.99826 0.07001 0.17844 0.0
C1770 C 0.04195 0.08333 0.14879 0.0
C1771 C 0.02817 0.06442 0.11787 0.0
H1772 H 0.04022 0.10078 0.19995 0.0
H1773 H 0.0643 0.09647 0.15101 0.0
S1774 S 0.95143 0.016 0.10531 0.0
N1775 N 0.95635 0.03351 0.1441 0.0
N1776 N 0.98234 0.02851 0.0914 0.0
C1777 C 0.99876 0.04817 0.1184 0.0
C1778 C 0.98423 0.05098 0.14778 0.0
C1779 C 0.29412 0.72558 0.4756 0.0
C1780 C 0.29781 0.69411 0.4635 0.0
C1781 C 0.28035 0.74101 0.45595 0.0
C1782 C 0.27077 0.72576 0.42366 0.0
H1783 H 0.29941 0.73722 0.50097 0.0
H1784 H 0.27595 0.76423 0.46637 0.0
S1785 S 0.28195 0.64782 0.37855 0.0
N1786 N 0.29545 0.65097 0.41607 0.0
N1787 N 0.27028 0.68105 0.3787 0.0
C1788 C 0.27749 0.6964 0.41027 0.0
C1789 C 0.29104 0.6803 0.43038 0.0
C1790 C 0.65931 0.06107 0.643 0.0
C1791 C 0.66552 0.03031 0.63809 0.0
C1792 C 0.63177 0.06402 0.63351 0.0
C1793 C 0.61099 0.03669 0.61606 0.0
H1794 H 0.67547 0.08273 0.65556 0.0
H1795 H 0.62788 0.08815 0.63639 0.0
S1796 S 0.61712 0.95125 0.59693 0.0
N1797 N 0.64877 0.97218 0.61698 0.0
N1798 N 0.59744 0.97803 0.5958 0.0
C1799 C 0.61648 1.0057 0.61269 0.0
C1800 C 0.64413 1.00261 0.62332 0.0
C1801 C 0.33299 0.32715 0.91725 0.0
C1802 C 0.34375 0.36043 0.9324 0.0
C1803 C 0.33045 0.31641 0.88319 0.0
C1804 C 0.33822 0.33874 0.86347 0.0
H1805 H 0.32489 0.30979 0.93144 0.0
H1806 H 0.32039 0.2911 0.8722 0.0
S1807 S 0.3709 0.42723 0.89133 0.0
N1808 N 0.36636 0.41423 0.9247 0.0
N1809 N 0.35834 0.39479 0.86181 0.0
C1810 C 0.35018 0.37143 0.87861 0.0
C1811 C 0.35397 0.38201 0.91273 0.0
C1812 C 0.99657 0.06744 0.40864 0.0
C1813 C 0.01341 0.06817 0.38259 0.0
C1814 C 0.00735 0.06331 0.4396 0.0
C1815 C 0.0359 0.05959 0.44747 0.0
H1816 H 0.97441 0.06933 0.40498 0.0
H1817 H 0.99274 0.06291 0.45783 0.0
S1818 S 0.09038 0.0614 0.38948 0.0
N1819 N 0.06155 0.06555 0.36848 0.0
N1820 N 0.08102 0.05845 0.42542 0.0
C1821 C 0.05313 0.06069 0.4219 0.0
C1822 C 0.04218 0.06473 0.39026 0.0
C1823 C 0.32101 0.71299 0.65014 0.0
C1824 C 0.29405 0.69956 0.6322 0.0
C1825 C 0.32584 0.74237 0.67207 0.0
C1826 C 0.30373 0.75877 0.67693 0.0
H1827 H 0.33833 0.7005 0.64744 0.0
H1828 H 0.34634 0.75062 0.68687 0.0
S1829 S 0.23107 0.73614 0.63063 0.0
N1830 N 0.24639 0.70645 0.61577 0.0
N1831 N 0.2551 0.76174 0.65943 0.0
C1832 C 0.27721 0.74665 0.65743 0.0
C1833 C 0.27242 0.71683 0.63437 0.0
C1834 C 0.6778 0.05949 0.83017 0.0
C1835 C 0.69104 0.08325 0.81452 0.0
C1836 C 0.65948 0.06684 0.85308 0.0
C1837 C 0.65423 0.09815 0.8608 0.0
H1838 H 0.67813 0.03424 0.82135 0.0
H1839 H 0.64698 0.047 0.86196 0.0
S1840 S 0.69185 0.17083 0.83395 0.0
N1841 N 0.70401 0.14062 0.81384 0.0
N1842 N 0.66913 0.1546 0.85697 0.0
C1843 C 0.6711 0.12316 0.84911 0.0
C1844 C 0.69004 0.11568 0.82616 0.0
C1845 C 0.32712 0.31628 0.13519 0.0
C1846 C 0.32612 0.34793 0.13265 0.0
C1847 C 0.32089 0.30549 0.1634 0.0
C1848 C 0.31322 0.3259 0.18985 0.0
H1849 H 0.33388 0.30023 0.11582 0.0
H1850 H 0.32363 0.28168 0.16515 0.0
S1851 S 0.30214 0.40834 0.19337 0.0
N1852 N 0.31293 0.39782 0.15766 0.0
N1853 N 0.30173 0.37738 0.21054 0.0
C1854 C 0.31047 0.3567 0.18696 0.0
C1855 C 0.31672 0.36774 0.15835 0.0
C1856 C 0.25927 0.98357 0.03773 0.0
C1857 C 0.2761 0.99378 0.01441 0.0
C1858 C 0.24458 1.00434 0.05525 0.0
C1859 C 0.24622 0.03538 0.04945 0.0
H1860 H 0.25932 0.96065 0.04426 0.0
H1861 H 0.23278 0.99666 0.0742 0.0
S1862 S 0.2826 0.0703 0.98659 0.0
N1863 N 0.29044 0.03454 0.98331 0.0
N1864 N 0.26199 0.07353 0.01601 0.0
C1865 C 0.26065 0.04456 0.02422 0.0
C1866 C 0.27583 0.0236 1.00661 0.0
C1867 C 0.69992 0.61338 0.97839 0.0
C1868 C 0.71162 0.64447 0.99858 0.0
C1869 C 0.67372 0.5933 0.98342 0.0
C1870 C 0.65843 0.60337 0.00917 0.0
H1871 H 0.71101 0.60461 0.95841 0.0
H1872 H 0.6654 0.56985 0.96695 0.0
S1873 S 0.6828 0.68116 0.07166 0.0
N1874 N 0.70771 0.68305 0.04686 0.0
N1875 N 0.65901 0.64629 0.05657 0.0
C1876 C 0.67072 0.63424 0.03005 0.0
C1877 C 0.69714 0.6545 0.02473 0.0
C1878 C 0.74871 0.39441 0.24694 0.0
C1879 C 0.75191 0.42423 0.27055 0.0
C1880 C 0.76427 0.3695 0.25035 0.0
C1881 C 0.78392 0.3716 0.2781 0.0
H1882 H 0.73384 0.39003 0.22529 0.0
H1883 H 0.75984 0.34764 0.23133 0.0
S1884 S 0.79902 0.44243 0.34872 0.0
N1885 N 0.77725 0.45284 0.32316 0.0
N1886 N 0.80281 0.40624 0.33081 0.0
C1887 C 0.78646 0.40077 0.30203 0.0
C1888 C 0.7718 0.42664 0.29796 0.0
C1889 C 0.96466 0.52686 0.50955 0.0
C1890 C 0.94594 0.49635 0.49872 0.0
C1891 C 0.99401 0.5298 0.51531 0.0
C1892 C 0.00627 0.50279 0.50944 0.0
H1893 H 0.95655 0.54867 0.51447 0.0
H1894 H 0.0068 0.55379 0.52453 0.0
S1895 S 0.96574 0.41692 0.48007 0.0
N1896 N 0.94053 0.43777 0.48216 0.0
N1897 N 0.99703 0.44399 0.49219 0.0
C1898 C 0.98769 0.47181 0.49852 0.0
C1899 C 0.95722 0.46851 0.49315 0.0
C1900 C 0.38947 0.11696 0.29357 0.0
C1901 C 0.37764 0.10907 0.32102 0.0
C1902 C 0.37164 0.11661 0.26637 0.0
C1903 C 0.3416 0.10936 0.26616 0.0
H1904 H 0.41249 0.1207 0.29194 0.0
H1905 H 0.38139 0.12283 0.24562 0.0
S1906 S 0.30054 0.09428 0.33404 0.0
N1907 N 0.33458 0.09756 0.34772 0.0
N1908 N 0.30085 0.09962 0.29685 0.0
C1909 C 0.3296 0.10427 0.29424 0.0
C1910 C 0.34774 0.10377 0.32175 0.0
C1911 C 0.39597 0.17274 0.53879 0.0
C1912 C 0.37286 0.14891 0.5196 0.0
C1913 C 0.42038 0.164 0.55101 0.0
C1914 C 0.4224 0.13139 0.54398 0.0
H1915 H 0.39384 0.19739 0.54729 0.0
H1916 H 0.43649 0.18223 0.56839 0.0
S1917 S 0.37098 0.06199 0.48798 0.0
N1918 N 0.35594 0.09302 0.48896 0.0
N1919 N 0.40197 0.07663 0.51177 0.0
C1920 C 0.40136 0.10842 0.52119 0.0
C1921 C 0.37645 0.11724 0.50901 0.0
C1922 C 0.77599 0.64037 0.28605 0.0
C1923 C 0.7453 0.63102 0.28002 0.0
C1924 C 0.79229 0.67296 0.28732 0.0
C1925 C 0.77899 0.6984 0.28292 0.0
H1926 H 0.78762 0.62244 0.29006 0.0
H1927 H 0.81561 0.67818 0.29194 0.0
S1928 S 0.69922 0.68691 0.26446 0.0
N1929 N 0.70278 0.65064 0.26766 0.0
N1930 N 0.73233 0.7103 0.27156 0.0
C1931 C 0.74831 0.68906 0.27677 0.0
C1932 C 0.73193 0.65611 0.27491 0.0
C1933 C 0.867 0.43861 0.80535 0.0
C1934 C 0.89724 0.44329 0.81061 0.0
C1935 C 0.84927 0.40757 0.7931 0.0
C1936 C 0.86145 0.38079 0.78706 0.0
H1937 H 0.85718 0.45917 0.80839 0.0
H1938 H 0.82616 0.40456 0.7877 0.0
S1939 S 0.9385 0.37971 0.80244 0.0
N1940 N 0.93813 0.41856 0.81255 0.0
N1941 N 0.9045 0.35973 0.79028 0.0
C1942 C 0.89131 0.38483 0.79434 0.0
C1943 C 0.90933 0.41634 0.80636 0.0
C1944 C 0.09331 0.93362 0.09132 0.0
C1945 C 0.11137 0.91708 0.07323 0.0
C1946 C 0.08568 0.96133 0.08404 0.0
C1947 C 0.09426 0.97376 0.05719 0.0
H1948 H 0.08541 0.92562 0.11219 0.0
H1949 H 0.07345 0.97381 0.10051 0.0
S1950 S 0.14536 0.9433 1.00419 0.0
N1951 N 0.14034 0.91802 0.02868 0.0
N1952 N 0.12493 0.96913 0.01437 0.0
C1953 C 0.11265 0.95787 0.03884 0.0
C1954 C 0.12121 0.92983 0.04681 0.0
C1955 C 0.92962 0.29762 0.883 0.0
C1956 C 0.94004 0.26941 0.87406 0.0
C1957 C 0.90439 0.30167 0.86639 0.0
C1958 C 0.88874 0.27827 0.83907 0.0
H1959 H 0.94191 0.31756 0.90211 0.0
H1960 H 0.89804 0.32413 0.87444 0.0
S1961 S 0.905 0.19838 0.80755 0.0
N1962 N 0.93118 0.21648 0.83741 0.0
N1963 N 0.88435 0.22418 0.80613 0.0
C1964 C 0.89832 0.24938 0.83068 0.0
C1965 C 0.92376 0.24503 0.84798 0.0
C1966 C 0.61277 0.19616 0.55024 0.0
C1967 C 0.6077 0.20984 0.58169 0.0
C1968 C 0.60452 0.16189 0.5373 0.0
C1969 C 0.59191 0.13982 0.55564 0.0
H1970 H 0.62313 0.21192 0.53556 0.0
H1971 H 0.60764 0.15266 0.51259 0.0
S1972 S 0.56969 0.16302 0.6368 0.0
N1973 N 0.58546 0.19804 0.62878 0.0
N1974 N 0.57215 0.1348 0.60542 0.0
C1975 C 0.58626 0.15336 0.5866 0.0
C1976 C 0.59368 0.18789 0.59935 0.0
C1977 C 0.63068 0.80247 0.41414 0.0
C1978 C 0.60717 0.77572 0.40063 0.0
C1979 C 0.65351 0.81208 0.39638 0.0
C1980 C 0.65401 0.79491 0.36477 0.0
H1981 H 0.6307 0.81721 0.43791 0.0
H1982 H 0.67017 0.83401 0.40687 0.0
S1983 S 0.59971 0.72122 0.31959 0.0
N1984 N 0.58727 0.73073 0.35448 0.0
N1985 N 0.63033 0.74873 0.32154 0.0
C1986 C 0.6317 0.76706 0.35175 0.0
C1987 C 0.60828 0.75745 0.36959 0.0
C1988 C 0.13973 0.26274 0.47243 0.0
C1989 C 0.12467 0.26437 0.44353 0.0
C1990 C 0.12556 0.24588 0.49372 0.0
C1991 C 0.09593 0.23083 0.48684 0.0
H1992 H 0.16222 0.27571 0.47925 0.0
H1993 H 0.13743 0.24594 0.51631 0.0
S1994 S 0.04749 0.22503 0.41329 0.0
N1995 N 0.07906 0.24705 0.40807 0.0
N1996 N 0.0526 0.21561 0.44844 0.0
C1997 C 0.08111 0.2305 0.4573 0.0
C1998 C 0.09549 0.24723 0.43546 0.0
C1999 C 0.58731 0.22077 0.20092 0.0
C2000 C 0.58916 0.25138 0.19379 0.0
C2001 C 0.60988 0.21533 0.22005 0.0
C2002 C 0.63491 0.24029 0.232 0.0
H2003 H 0.5678 0.20147 0.19295 0.0
H2004 H 0.60754 0.19181 0.22606 0.0
S2005 S 0.65038 0.32395 0.21783 0.0
N2006 N 0.61778 0.3062 0.19837 0.0
N2007 N 0.66073 0.29616 0.23408 0.0
C2008 C 0.63739 0.27053 0.22363 0.0
C2009 C 0.6143 0.27605 0.2045 0.0
C2010 C 0.61783 0.92583 0.9552 0.0
C2011 C 0.64456 0.93803 0.94463 0.0
C2012 C 0.60355 0.9465 0.9733 0.0
C2013 C 0.61554 0.97991 0.98132 0.0
H2014 H 0.60727 0.90009 0.94849 0.0
H2015 H 0.58272 0.9364 0.98039 0.0
S2016 S 0.68421 0.0244 0.95895 0.0
N2017 N 0.68235 0.98561 0.94341 0.0
N2018 N 0.65459 0.02509 0.97661 0.0
C2019 C 0.64197 0.99274 0.97075 0.0
C2020 C 0.65677 0.97156 0.95251 0.0
C2021 C 0.93419 0.76722 0.76308 0.0
C2022 C 0.93505 0.76027 0.72961 0.0
C2023 C 0.90877 0.77136 0.77568 0.0
C2024 C 0.88387 0.76849 0.75496 0.0
H2025 H 0.95313 0.76896 0.77949 0.0
H2026 H 0.9084 0.77624 0.80153 0.0
S2027 S 0.87505 0.75044 0.66579 0.0
N2028 N 0.90919 0.75114 0.67614 0.0
N2029 N 0.86107 0.75817 0.69992 0.0
C2030 C 0.88452 0.76186 0.72156 0.0
C2031 C 0.91038 0.75817 0.70879 0.0
C2032 C 0.15098 1.01475 0.89856 0.0
C2033 C 0.14197 0.03053 0.87472 0.0
C2034 C 0.13939 0.01605 0.92924 0.0
C2035 C 0.11753 0.03279 0.93833 0.0
H2036 H 0.1673 1.0012 0.89362 0.0
H2037 H 0.14746 1.00331 0.94584 0.0
S2038 S 0.0861 0.07908 0.88652 0.0
N2039 N 0.10953 0.06465 0.86479 0.0
N2040 N 0.08782 0.06554 0.9198 0.0
C2041 C 0.10828 0.04829 0.91473 0.0
C2042 C 0.12033 0.0476 0.88407 0.0
C2043 C 0.85937 0.41545 0.61646 0.0
C2044 C 0.85649 0.40463 0.58286 0.0
C2045 C 0.87065 0.39813 0.63647 0.0
C2046 C 0.88004 0.37025 0.62322 0.0
H2047 H 0.85334 0.4376 0.62722 0.0
H2048 H 0.87303 0.40718 0.66234 0.0
S2049 S 0.87763 0.33253 0.5368 0.0
N2050 N 0.86387 0.36438 0.53721 0.0
N2051 N 0.8855 0.3323 0.57498 0.0
C2052 C 0.87693 0.35902 0.58974 0.0
C2053 C 0.86502 0.37616 0.56946 0.0
C2054 C 0.521 0.02523 0.39303 0.0
C2055 C 0.50576 0.04853 0.38878 0.0
C2056 C 0.5385 0.02967 0.42147 0.0
C2057 C 0.54087 0.05742 0.44576 0.0
H2058 H 0.51885 1.00318 0.37465 0.0
H2059 H 0.54916 1.01076 0.42501 0.0
S2060 S 0.50444 0.12428 0.44726 0.0
N2061 N 0.49327 0.09962 0.41141 0.0
N2062 N 0.52672 0.10759 0.46563 0.0
C2063 C 0.52571 0.08067 0.44224 0.0
C2064 C 0.50777 0.07623 0.41338 0.0
C2065 C 0.78913 0.75848 0.13277 0.0
C2066 C 0.81208 0.7509 0.11669 0.0
C2067 C 0.79293 0.77112 0.16615 0.0
C2068 C 0.81897 0.7747 0.18547 0.0
H2069 H 0.76765 0.75297 0.11974 0.0
H2070 H 0.7747 0.77629 0.17638 0.0
S2071 S 0.88827 0.76856 0.15269 0.0
N2072 N 0.86376 0.75554 0.12064 0.0
N2073 N 0.87043 0.77846 0.18344 0.0
C2074 C 0.84305 0.77147 0.16862 0.0
C2075 C 0.83957 0.75943 0.13434 0.0
C2076 C 0.11968 0.02091 0.66079 0.0
C2077 C 0.15014 0.0248 0.6691 0.0
C2078 C 0.10713 0.02672 0.63102 0.0
C2079 C 0.12402 0.03704 0.60704 0.0
H2080 H 0.1051 1.01291 0.67739 0.0
H2081 H 0.08382 0.02222 0.62651 0.0
S2082 S 0.20464 0.05369 0.61648 0.0
N2083 N 0.19629 0.04182 0.64968 0.0
N2084 N 0.17363 0.05212 0.59584 0.0
C2085 C 0.15432 0.04164 0.61556 0.0
C2086 C 0.16697 0.03584 0.64555 0.0
C2087 C 0.82935 0.37051 0.41 0.0
C2088 C 0.85425 0.39578 0.41547 0.0
C2089 C 0.82812 0.34147 0.38857 0.0
C2090 C 0.85142 0.33728 0.3714 0.0
H2091 H 0.81034 0.37365 0.42155 0.0
H2092 H 0.80777 0.32396 0.38325 0.0
S2093 S 0.92453 0.39319 0.38525 0.0
N2094 N 0.90503 0.41301 0.40861 0.0
N2095 N 0.9025 0.35784 0.36701 0.0
C2096 C 0.87785 0.36092 0.38008 0.0
C2097 C 0.87917 0.39067 0.40213 0.0
C2098 C 0.44536 1.01118 0.20898 0.0
C2099 C 0.45573 0.04295 0.22804 0.0
C2100 C 0.46317 0.99646 0.18929 0.0
C2101 C 0.49163 1.0132 0.18761 0.0
H2102 H 0.42436 0.99657 0.21131 0.0
H2103 H 0.45508 0.97132 0.17645 0.0
S2104 S 0.52836 0.09744 0.23112 0.0
N2105 N 0.49563 0.09132 0.2425 0.0
N2106 N 0.52901 0.06353 0.2054 0.0
C2107 C 0.50163 0.0456 0.20492 0.0
C2108 C 0.48361 0.06056 0.22503 0.0
C2109 C 0.81899 0.77629 0.91832 0.0
C2110 C 0.82184 0.74506 0.92068 0.0
C2111 C 0.82289 0.78703 0.88965 0.0
C2112 C 0.82959 0.76678 0.86248 0.0
H2113 H 0.81269 0.79206 0.93828 0.0
H2114 H 0.81905 0.81048 0.88818 0.0
S2115 S 0.84402 0.68564 0.85742 0.0
N2116 N 0.83531 0.69591 0.89413 0.0
N2117 N 0.84208 0.71621 0.84052 0.0
C2118 C 0.8342 0.7366 0.8651 0.0
C2119 C 0.8305 0.72571 0.89414 0.0
C2120 C 0.8744 0.06354 0.05191 0.0
C2121 C 0.86768 0.09086 0.04319 0.0
C2122 C 0.89192 0.04669 0.03411 0.0
C2123 C 0.90274 0.05678 1.00726 0.0
H2124 H 0.86441 0.05367 0.07089 0.0
H2125 H 0.8956 0.02466 0.04014 0.0
S2126 S 0.89858 0.1317 0.9803 0.0
N2127 N 0.87892 0.13145 0.01055 0.0
N2128 N 0.91097 0.09859 0.97656 0.0
C2129 C 0.89919 0.08604 1.0007 0.0
C2130 C 0.88195 0.1036 0.01905 0.0
C2131 C 0.44692 0.48886 0.02901 0.0
C2132 C 0.43735 0.46655 0.04825 0.0
C2133 C 0.47615 0.50416 0.03031 0.0
C2134 C 0.4974 0.49786 0.05071 0.0
H2135 H 0.43171 0.49452 0.01232 0.0
H2136 H 0.48217 0.52095 0.01489 0.0
S2137 S 0.48485 0.44313 0.10723 0.0
N2138 N 0.45209 0.43993 0.08938 0.0
N2139 N 0.50746 0.46881 0.09142 0.0
C2140 C 0.4886 0.47601 0.07038 0.0
C2141 C 0.45851 0.46026 0.06917 0.0
C2142 C 0.39788 0.69769 0.80043 0.0
C2143 C 0.398 0.67032 0.77483 0.0
C2144 C 0.38216 0.72267 0.79744 0.0
C2145 C 0.36556 0.72317 0.76829 0.0
H2146 H 0.4102 0.70003 0.82341 0.0
H2147 H 0.38406 0.74256 0.81812 0.0
S2148 S 0.3589 0.65899 0.69303 0.0
N2149 N 0.37871 0.64674 0.71902 0.0
N2150 N 0.35236 0.6931 0.71288 0.0
C2151 C 0.3661 0.69631 0.74268 0.0
C2152 C 0.38105 0.67044 0.74603 0.0
C2153 C 0.19465 0.61649 0.56628 0.0
C2154 C 0.20609 0.60224 0.53912 0.0
C2155 C 0.16499 0.61389 0.56559 0.0
C2156 C 0.14604 0.59585 0.53837 0.0
H2157 H 0.20892 0.63143 0.58741 0.0
H2158 H 0.15714 0.62733 0.58574 0.0
S2159 S 0.16662 0.55919 0.45929 0.0
N2160 N 0.19743 0.57329 0.48326 0.0
N2161 N 0.14147 0.56682 0.48225 0.0
C2162 C 0.15756 0.58177 0.51096 0.0
C2163 C 0.18772 0.58498 0.51143 0.0
C2164 C 0.79105 0.97507 0.7385 0.0
C2165 C 0.76544 0.98362 0.74637 0.0
C2166 C 0.80873 0.96751 0.76162 0.0
C2167 C 0.80137 0.96921 0.79309 0.0
H2168 H 0.79791 0.97553 0.71493 0.0
H2169 H 0.82876 0.96149 0.75527 0.0
S2170 S 0.73602 0.98925 0.82497 0.0
N2171 N 0.73283 0.99223 0.78708 0.0
N2172 N 0.76654 0.97809 0.83058 0.0
C2173 C 0.77533 0.97651 0.80083 0.0
C2174 C 0.75711 0.98364 0.7773 0.0
C2175 C 0.7442 0.92213 0.52791 0.0
C2176 C 0.77369 0.93789 0.53671 0.0
C2177 C 0.72468 0.9382 0.51616 0.0
C2178 C 0.73434 0.97013 0.51219 0.0
H2179 H 0.73634 0.897 0.52929 0.0
H2180 H 0.70225 0.92519 0.50883 0.0
S2181 S 0.80828 0.02323 0.53432 0.0
N2182 N 0.81063 0.98868 0.54372 0.0
N2183 N 0.77416 0.01772 0.51972 0.0
C2184 C 0.76326 0.98659 0.52217 0.0
C2185 C 0.78291 0.97076 0.53502 0.0
C2186 C 0.38056 0.45842 0.78942 0.0
C2187 C 0.39907 0.4638 0.76546 0.0
C2188 C 0.3636 0.42664 0.78988 0.0
C2189 C 0.3642 0.39828 0.76653 0.0
H2190 H 0.37999 0.47871 0.80877 0.0
H2191 H 0.35059 0.42417 0.80937 0.0
S2192 S 0.40619 0.39856 0.69674 0.0
N2193 N 0.41465 0.43714 0.71635 0.0
N2194 N 0.38362 0.37878 0.7176 0.0
C2195 C 0.38185 0.40353 0.74211 0.0
C2196 C 0.39891 0.43565 0.7415 0.0
C2197 C 0.28597 0.6583 0.25362 0.0
C2198 C 0.25792 0.64945 0.23671 0.0
C2199 C 0.2993 0.69083 0.26741 0.0
C2200 C 0.28531 0.71519 0.2636 0.0
H2201 H 0.29724 0.63997 0.25735 0.0
H2202 H 0.3205 0.69698 0.28121 0.0
S2203 S 0.21222 0.70499 0.22168 0.0
N2204 N 0.21686 0.66771 0.21684 0.0
N2205 N 0.2424 0.72919 0.24243 0.0
C2206 C 0.25775 0.70695 0.24616 0.0
C2207 C 0.24393 0.67387 0.23263 0.0
C2208 C 0.55153 0.65507 0.46336 0.0
C2209 C 0.53875 0.67579 0.4847 0.0
C2210 C 0.55907 0.62742 0.47095 0.0
C2211 C 0.55495 0.6186 0.50068 0.0
H2212 H 0.5557 0.66011 0.4401 0.0
H2213 H 0.56804 0.61235 0.45282 0.0
S2214 S 0.5199 0.66238 0.56469 0.0
N2215 N 0.5209 0.6841 0.53692 0.0
N2216 N 0.53527 0.63236 0.55113 0.0
C2217 C 0.5422 0.63898 0.52255 0.0
C2218 C 0.53422 0.66737 0.51466 0.0
C2219 C 0.72578 0.30864 0.66266 0.0
C2220 C 0.71186 0.33398 0.67221 0.0
C2221 C 0.74758 0.30298 0.68345 0.0
C2222 C 0.75686 0.32235 0.71502 0.0
H2223 H 0.71941 0.29256 0.63901 0.0
H2224 H 0.75713 0.28294 0.67452 0.0
S2225 S 0.72985 0.39444 0.75052 0.0
N2226 N 0.71013 0.37977 0.71503 0.0
N2227 N 0.75187 0.37028 0.75306 0.0
C2228 C 0.74363 0.34836 0.72448 0.0
C2229 C 0.72104 0.35381 0.70347 0.0
C2230 C 0.05235 0.40229 1.00703 0.0
C2231 C 0.0395 0.38511 0.97556 0.0
C2232 C 0.05773 0.43698 0.01654 0.0
C2233 C 0.05069 0.45571 0.99489 0.0
H2234 H 0.05988 0.38923 0.02366 0.0
H2235 H 0.06918 0.44926 0.0401 0.0
S2236 S 0.01396 0.42253 0.91144 0.0
N2237 N 0.01677 0.39001 0.92468 0.0
N2238 N 0.02898 0.45374 0.94148 0.0
C2239 C 0.03673 0.43847 0.96427 0.0
C2240 C 0.0305 0.40371 0.955 0.0
C2241 C 0.0228 0.79506 0.15078 0.0
C2242 C 0.04709 0.81697 0.16998 0.0
C2243 C 0.99669 0.78648 0.1638 0.0
C2244 C 0.9942 0.80003 0.19608 0.0
H2245 H 0.02487 0.78195 0.12691 0.0
H2246 H 0.97932 0.76705 0.14956 0.0
S2247 S 0.04993 0.86296 0.25384 0.0
N2248 N 0.06579 0.85538 0.22095 0.0
N2249 N 0.01667 0.83964 0.24514 0.0
C2250 C 0.0172 0.82477 0.214 0.0
C2251 C 0.04374 0.83318 0.20097 0.0
C2252 C 0.51111 0.31832 0.07094 0.0
C2253 C 0.51833 0.32711 0.1046 0.0
C2254 C 0.52691 0.33565 0.05108 0.0
C2255 C 0.55018 0.36229 0.06438 0.0
H2256 H 0.49434 0.29671 0.05973 0.0
H2257 H 0.52179 0.32732 0.02518 0.0
S2258 S 0.57636 0.39727 0.15071 0.0
N2259 N 0.54921 0.36589 0.15032 0.0
N2260 N 0.57851 0.39865 0.1126 0.0
C2261 C 0.55636 0.37292 0.09788 0.0
C2262 C 0.54041 0.35528 0.11818 0.0
C2263 C 0.053 0.3837 0.35435 0.0
C2264 C 0.06426 0.35604 0.35125 0.0
C2265 C 0.02638 0.38194 0.33767 0.0
C2266 C 0.01084 0.3526 0.31729 0.0
H2267 H 0.0659 0.40729 0.36756 0.0
H2268 H 0.01935 0.40418 0.33817 0.0
S2269 S 0.02835 0.27224 0.30615 0.0
N2270 N 0.05589 0.29754 0.33086 0.0
N2271 N 0.0057 0.29445 0.29871 0.0
C2272 C 0.02009 0.32403 0.31707 0.0
C2273 C 0.04705 0.32571 0.3344 0.0
C2274 C 0.01582 0.66625 0.58707 0.0
C2275 C 0.9974 0.65416 0.60842 0.0
C2276 C 0.03211 0.64705 0.57007 0.0
C2277 C 0.03032 0.6154 0.57405 0.0
H2278 H 0.01976 0.69158 0.58573 0.0
H2279 H 0.04731 0.65758 0.55521 0.0
S2280 S 0.97968 0.57012 0.62027 0.0
N2281 N 0.97456 0.60731 0.62828 0.0
N2282 N 0.00475 0.57055 0.59549 0.0
C2283 C 0.00985 0.60198 0.59267 0.0
C2284 C 0.99337 0.62158 0.61004 0.0
C2285 C 0.74641 0.841 0.8524 0.0
C2286 C 0.71742 0.82782 0.83955 0.0
C2287 C 0.76818 0.84006 0.83274 0.0
C2288 C 0.76174 0.82602 0.79964 0.0
H2289 H 0.75244 0.85209 0.87782 0.0
H2290 H 0.79029 0.84955 0.84384 0.0
S2291 S 0.68934 0.78748 0.75425 0.0
N2292 N 0.68313 0.79938 0.79183 0.0
N2293 N 0.72479 0.79885 0.75448 0.0
C2294 C 0.73294 0.81309 0.78619 0.0
C2295 C 0.71055 0.8136 0.80635 0.0
C2296 C 0.51503 0.60015 0.66781 0.0
C2297 C 0.5019 0.57406 0.68187 0.0
C2298 C 0.52894 0.59553 0.63857 0.0
C2299 C 0.53061 0.56438 0.62049 0.0
H2300 H 0.51443 0.62467 0.67939 0.0
H2301 H 0.53819 0.61686 0.62978 0.0
S2302 S 0.50353 0.48815 0.64896 0.0
N2303 N 0.49444 0.51608 0.67603 0.0
N2304 N 0.51941 0.50742 0.62293 0.0
C2305 C 0.51816 0.53844 0.6351 0.0
C2306 C 0.5043 0.54321 0.66484 0.0
C2307 C 0.807 0.20233 0.93758 0.0
C2308 C 0.78896 0.17507 0.94477 0.0
C2309 C 0.79518 0.22324 0.92288 0.0
C2310 C 0.76501 0.21756 0.91552 0.0
H2311 H 0.82997 0.20906 0.94594 0.0
H2312 H 0.80954 0.2453 0.91972 0.0
S2313 S 0.70906 0.14804 0.92757 0.0
N2314 N 0.74002 0.14191 0.94141 0.0
N2315 N 0.71774 0.18154 0.91394 0.0
C2316 C 0.74705 0.18904 0.92037 0.0
C2317 C 0.75911 0.1675 0.93482 0.0
C2318 C 0.16012 0.56612 0.14329 0.0
C2319 C 0.16739 0.53577 0.13686 0.0
C2320 C 0.13217 0.56835 0.13417 0.0
C2321 C 0.11167 0.54059 0.11702 0.0
H2322 H 0.17599 0.58821 0.15538 0.0
H2323 H 0.12789 0.59226 0.13654 0.0
S2324 S 0.11786 0.45538 0.10094 0.0
N2325 N 0.15038 0.47713 0.11765 0.0
N2326 N 0.09767 0.48176 0.10064 0.0
C2327 C 0.11729 0.50994 0.11515 0.0
C2328 C 0.14564 0.50754 0.12379 0.0
C2329 C 0.83664 0.82866 0.41664 0.0
C2330 C 0.84604 0.8624 0.43065 0.0
C2331 C 0.83329 0.81678 0.38272 0.0
C2332 C 0.83913 0.83836 0.362 0.0
H2333 H 0.83034 0.81162 0.43172 0.0
H2334 H 0.82426 0.79105 0.37269 0.0
S2335 S 0.86751 0.92794 0.38631 0.0
N2336 N 0.86467 0.91623 0.42052 0.0
N2337 N 0.85622 0.89431 0.35796 0.0
C2338 C 0.84985 0.87162 0.37593 0.0
C2339 C 0.85401 0.8835 0.40988 0.0
C2340 C 0.54014 0.56088 0.89269 0.0
C2341 C 0.51234 0.56705 0.88517 0.0
C2342 C 0.551 0.55733 0.92399 0.0
C2343 C 0.53481 0.55907 0.95069 0.0
H2344 H 0.55405 0.55864 0.87385 0.0
H2345 H 0.57242 0.55307 0.92712 0.0
S2346 S 0.4598 0.57195 0.94517 0.0
N2347 N 0.46874 0.5731 0.90871 0.0
N2348 N 0.48801 0.56603 0.9657 0.0
C2349 C 0.5068 0.56464 0.94335 0.0
C2350 C 0.49598 0.56867 0.91161 0.0
C2351 C 0.82841 0.21469 0.15488 0.0
C2352 C 0.81182 0.21361 0.12658 0.0
C2353 C 0.82733 0.23716 0.1822 0.0
C2354 C 0.81034 0.25977 0.18194 0.0
H2355 H 0.84053 0.1965 0.15651 0.0
H2356 H 0.83814 0.23457 0.20386 0.0
S2357 S 0.7632 0.26655 0.11282 0.0
N2358 N 0.7779 0.23618 0.09848 0.0
N2359 N 0.77703 0.28038 0.15105 0.0
C2360 C 0.79481 0.2602 0.15327 0.0
C2361 C 0.79539 0.23658 0.12511 0.0
C2362 C 0.18362 0.56658 0.3317 0.0
C2363 C 0.17245 0.5652 0.30003 0.0
C2364 C 0.17194 0.58244 0.35784 0.0
C2365 C 0.14949 0.59786 0.35265 0.0
H2366 H 0.20091 0.55494 0.33617 0.0
H2367 H 0.18035 0.58259 0.38211 0.0
S2368 S 0.11388 0.60151 0.27418 0.0
N2369 N 0.13854 0.58095 0.26491 0.0
N2370 N 0.11672 0.61057 0.31387 0.0
C2371 C 0.13871 0.59694 0.32111 0.0
C2372 C 0.15023 0.58067 0.29479 0.0
C2373 C 0.82683 0.86876 0.65604 0.0
C2374 C 0.82683 0.84645 0.62699 0.0
C2375 C 0.82069 0.85835 0.68424 0.0
C2376 C 0.81473 0.82517 0.68493 0.0
H2377 H 0.83191 0.89468 0.65719 0.0
H2378 H 0.82161 0.8767 0.70602 0.0
S2379 S 0.81113 0.75673 0.61479 0.0
N2380 N 0.81834 0.78953 0.59989 0.0
N2381 N 0.80942 0.77003 0.65348 0.0
C2382 C 0.814 0.8025 0.65579 0.0
C2383 C 0.81941 0.81312 0.62671 0.0
C2384 C 0.77168 0.52343 0.50541 0.0
C2385 C 0.78051 0.49928 0.51808 0.0
C2386 C 0.75532 0.54254 0.52255 0.0
C2387 C 0.74846 0.53849 0.55312 0.0
H2388 H 0.77837 0.52833 0.48284 0.0
H2389 H 0.74918 0.56154 0.51261 0.0
S2390 S 0.76546 0.47702 0.59542 0.0
N2391 N 0.77999 0.47065 0.56146 0.0
N2392 N 0.74998 0.50741 0.59434 0.0
C2393 C 0.75626 0.51349 0.56533 0.0
C2394 C 0.77218 0.49358 0.54756 0.0
C2395 C 0.20959 0.11306 0.50263 0.0
C2396 C 0.21064 0.1416 0.49111 0.0
C2397 C 0.18313 0.09306 0.50663 0.0
C2398 C 0.15675 0.10074 0.49905 0.0
H2399 H 0.22936 0.10655 0.50958 0.0
H2400 H 0.18339 0.07211 0.51678 0.0
S2401 S 0.14711 0.1689 0.46263 0.0
N2402 N 0.18258 0.17406 0.46867 0.0
N2403 N 0.13294 0.13628 0.47593 0.0
C2404 C 0.15734 0.12807 0.48598 0.0
C2405 C 0.18425 0.14852 0.48203 0.0
C2406 C 0.24305 0.90347 0.78949 0.0
C2407 C 0.24984 0.92493 0.76838 0.0
C2408 C 0.25793 0.87833 0.79283 0.0
C2409 C 0.28068 0.87074 0.77469 0.0
H2410 H 0.22607 0.90648 0.80449 0.0
H2411 H 0.25103 0.86423 0.81032 0.0
S2412 S 0.30576 0.91632 0.71234 0.0
N2413 N 0.28153 0.93509 0.72765 0.0
N2414 N 0.30658 0.8869 0.73148 0.0
C2415 C 0.28688 0.89105 0.75222 0.0
C2416 C 0.27249 0.91788 0.74979 0.0
C2417 C 0.45504 0.97473 0.99806 0.0
C2418 C 0.44043 0.99905 0.99508 0.0
C2419 C 0.48459 0.98297 0.00959 0.0
C2420 C 0.50019 0.01567 0.01857 0.0
H2421 H 0.44345 0.94932 0.99213 0.0
H2422 H 0.49513 0.96374 0.01223 0.0
S2423 S 0.47002 0.0879 0.01881 0.0
N2424 N 0.44275 0.05654 1.00324 0.0
N2425 N 0.49739 0.07211 0.02668 0.0
C2426 C 0.48527 0.03992 0.01648 0.0
C2427 C 0.45563 0.03156 1.00388 0.0
C2428 C 0.88807 0.62376 0.79229 0.0
C2429 C 0.87496 0.61263 0.81774 0.0
C2430 C 0.87149 0.62906 0.76681 0.0
C2431 C 0.84158 0.62418 0.76658 0.0
H2432 H 0.91087 0.62548 0.79041 0.0
H2433 H 0.88196 0.63626 0.74684 0.0
S2434 S 0.7977 0.60038 0.82964 0.0
N2435 N 0.83095 0.5995 0.84247 0.0
N2436 N 0.79969 0.6119 0.79511 0.0
C2437 C 0.82844 0.61566 0.7929 0.0
C2438 C 0.84524 0.60931 0.81848 0.0
C2439 C 0.89696 0.66897 0.03331 0.0
C2440 C 0.87215 0.64516 0.01776 0.0
C2441 C 0.92114 0.65977 0.04533 0.0
C2442 C 0.92109 0.62672 0.04147 0.0
H2443 H 0.89648 0.69441 0.03949 0.0
H2444 H 0.93877 0.67835 0.06025 0.0
S2445 S 0.86421 0.55607 0.99531 0.0
N2446 N 0.85099 0.58798 0.99373 0.0
N2447 N 0.89673 0.5707 0.01598 0.0
C2448 C 0.89813 0.60314 0.022 0.0
C2449 C 0.87347 0.61244 0.01014 0.0
C2450 C 0.23683 0.15766 0.77181 0.0
C2451 C 0.2484 0.13405 0.7833 0.0
C2452 C 0.25311 0.18991 0.77401 0.0
C2453 C 0.28261 0.20125 0.78728 0.0
H2454 H 0.21454 0.15128 0.76089 0.0
H2455 H 0.24196 0.20612 0.76505 0.0
S2456 S 0.32298 0.15135 0.82529 0.0
N2457 N 0.29117 0.12589 0.81143 0.0
N2458 N 0.32158 0.18599 0.81534 0.0
C2459 C 0.2944 0.17822 0.79971 0.0
C2460 C 0.27757 0.14505 0.79767 0.0
C2461 C 0.40381 0.91344 0.29853 0.0
C2462 C 0.39262 0.94111 0.30427 0.0
C2463 C 0.38531 0.88268 0.2889 0.0
C2464 C 0.3553 0.87903 0.28457 0.0
H2465 H 0.42696 0.91567 0.29998 0.0
H2466 H 0.39453 0.86173 0.28353 0.0
S2467 S 0.31523 0.94327 0.30047 0.0
N2468 N 0.34972 0.96283 0.30902 0.0
N2469 N 0.31485 0.90433 0.28872 0.0
C2470 C 0.3437 0.90609 0.29202 0.0
C2471 C 0.3625 0.93748 0.30279 0.0
C2472 C 0.5921 0.41463 0.54929 0.0
C2473 C 0.61818 0.41671 0.56831 0.0
C2474 C 0.58495 0.44259 0.54119 0.0
C2475 C 0.60269 0.47451 0.55301 0.0
H2476 H 0.57659 0.39131 0.54131 0.0
H2477 H 0.56504 0.43868 0.52615 0.0
S2478 S 0.67722 0.4917 0.59542 0.0
N2479 N 0.66457 0.45231 0.59241 0.0
N2480 N 0.65086 0.50421 0.57866 0.0
C2481 C 0.63001 0.47604 0.56939 0.0
C2482 C 0.63761 0.44759 0.57693 0.0
C2483 C 0.43842 0.77263 0.33731 0.0
C2484 C 0.44046 0.77005 0.3698 0.0
C2485 C 0.41329 0.77641 0.32097 0.0
C2486 C 0.38757 0.77655 0.33501 0.0
H2487 H 0.45707 0.77307 0.3242 0.0
H2488 H 0.41496 0.78104 0.29747 0.0
S2489 S 0.37981 0.77027 0.41971 0.0
N2490 N 0.41365 0.76828 0.41593 0.0
N2491 N 0.36577 0.77368 0.38445 0.0
C2492 C 0.38869 0.77331 0.36746 0.0
C2493 C 0.41496 0.77015 0.38475 0.0
C2494 C 0.10483 0.68477 0.09915 0.0
C2495 C 0.11123 0.70848 0.08044 0.0
C2496 C 0.09622 0.65105 0.0853 0.0
C2497 C 0.09379 0.63881 0.05189 0.0
H2498 H 0.10568 0.69225 0.12504 0.0
H2499 H 0.09042 0.63441 0.10091 0.0
S2500 S 0.11064 0.68908 0.99167 0.0
N2501 N 0.1162 0.71625 0.02625 0.0
N2502 N 0.10017 0.6531 1.00042 0.0
C2503 C 0.10086 0.66189 0.03282 0.0
C2504 C 0.1096 0.69648 0.04694 0.0
C2505 C 0.10727 0.26188 0.8672 0.0
C2506 C 0.10855 0.27785 0.89972 0.0
C2507 C 0.1296 0.27094 0.84874 0.0
C2508 C 0.15411 0.29619 0.86211 0.0
H2509 H 0.08832 0.24305 0.85549 0.0
H2510 H 0.12703 0.2592 0.8234 0.0
S2511 S 0.16951 0.34424 0.94633 0.0
N2512 N 0.13771 0.31893 0.94492 0.0
N2513 N 0.17938 0.3359 0.90989 0.0
C2514 C 0.1565 0.31125 0.89486 0.0
C2515 C 0.13383 0.30203 0.91378 0.0
C2516 C 0.61861 0.73821 0.94866 0.0
C2517 C 0.63424 0.77057 0.96126 0.0
C2518 C 0.60307 0.72034 0.96818 0.0
C2519 C 0.60269 0.73449 1.00069 0.0
H2520 H 0.61701 0.72721 0.92322 0.0
H2521 H 0.59003 0.69602 0.95745 0.0
S2522 S 0.64351 0.81597 0.04658 0.0
N2523 N 0.6512 0.81447 0.00931 0.0
N2524 N 0.62161 0.78037 0.04581 0.0
C2525 C 0.61992 0.76565 0.0142 0.0
C2526 C 0.63594 0.78385 0.99449 0.0
C2527 C 0.08278 0.7208 0.71194 0.0
C2528 C 0.08677 0.74469 0.69383 0.0
C2529 C 0.10622 0.71567 0.72976 0.0
C2530 C 0.13433 0.73474 0.73048 0.0
H2531 H 0.06134 0.70663 0.71318 0.0
H2532 H 0.1021 0.69767 0.74424 0.0
S2533 S 0.15586 0.79785 0.68332 0.0
N2534 N 0.12045 0.78471 0.67399 0.0
N2535 N 0.16489 0.77681 0.70891 0.0
C2536 C 0.13871 0.75722 0.71042 0.0
C2537 C 0.11475 0.76178 0.69171 0.0
C2538 C 0.16486 0.47116 0.47246 0.0
C2539 C 0.14876 0.44138 0.45338 0.0
C2540 C 0.15067 0.49301 0.48942 0.0
C2541 C 0.1203 0.48643 0.48552 0.0
H2542 H 0.18827 0.47748 0.47421 0.0
H2543 H 0.16345 0.51549 0.50484 0.0
S2544 S 0.06878 0.41007 0.44225 0.0
N2545 N 0.10101 0.4047 0.43472 0.0
N2546 N 0.07479 0.44689 0.4656 0.0
C2547 C 0.10413 0.45625 0.46791 0.0
C2548 C 0.11834 0.43349 0.45177 0.0
C2549 C 0.40958 0.22468 0.22103 0.0
C2550 C 0.4364 0.2463 0.23215 0.0
C2551 C 0.38449 0.23368 0.2296 0.0
C2552 C 0.38571 0.26446 0.24951 0.0
H2553 H 0.40792 0.20167 0.20427 0.0
H2554 H 0.36401 0.21707 0.21894 0.0
S2555 S 0.45253 0.32445 0.29171 0.0
N2556 N 0.46407 0.2967 0.26706 0.0
N2557 N 0.41686 0.31159 0.28712 0.0
C2558 C 0.41289 0.28383 0.26432 0.0
C2559 C 0.43839 0.27534 0.25435 0.0
C2560 C 0.62025 0.50027 0.38224 0.0
C2561 C 0.64386 0.52418 0.37641 0.0
C2562 C 0.60827 0.50283 0.41256 0.0
C2563 C 0.61882 0.52953 0.43969 0.0
H2564 H 0.61022 0.47956 0.36276 0.0
H2565 H 0.59013 0.48355 0.41449 0.0
S2566 S 0.67958 0.60002 0.43751 0.0
N2567 N 0.67615 0.57652 0.40107 0.0
N2568 N 0.65526 0.58068 0.45694 0.0
C2569 C 0.64263 0.5534 0.43407 0.0
C2570 C 0.65445 0.55099 0.40309 0.0
C2571 C 0.3456 0.89881 0.10782 0.0
C2572 C 0.36497 0.92194 0.09624 0.0
C2573 C 0.3557 0.87807 0.12426 0.0
C2574 C 0.38553 0.87979 0.12949 0.0
H2575 H 0.32244 0.89529 0.10225 0.0
H2576 H 0.33987 0.85919 0.13101 0.0
S2577 S 0.44502 0.93758 0.10512 0.0
N2578 N 0.41516 0.94658 0.0919 0.0
N2579 N 0.43436 0.90794 0.1238 0.0
C2580 C 0.4052 0.90416 0.11965 0.0
C2581 C 0.39486 0.92533 0.10289 0.0
C2582 C 1.00034 0.52781 0.90028 0.0
C2583 C 0.00493 0.55663 0.88943 0.0
C2584 C 0.017 0.52637 0.92739 0.0
C2585 C 0.03843 0.55362 0.94391 0.0
H2586 H 0.98408 0.50629 0.88753 0.0
H2587 H 0.01296 0.50398 0.9355 0.0
S2588 S 0.05719 0.63474 0.92501 0.0
N2589 N 0.03088 0.61298 0.8966 0.0
N2590 N 0.06301 0.61007 0.94825 0.0
C2591 C 0.04316 0.58248 0.93312 0.0
C2592 C 0.02596 0.58408 0.90559 0.0
C2593 C 0.30491 0.21507 0.64279 0.0
C2594 C 0.3032 0.23599 0.62182 0.0
C2595 C 0.30961 0.22626 0.67603 0.0
C2596 C 0.31312 0.25919 0.69084 0.0
H2597 H 0.303 0.18933 0.63359 0.0
H2598 H 0.31083 0.20855 0.69042 0.0
S2599 S 0.31057 0.32517 0.64805 0.0
N2600 N 0.30503 0.29207 0.61871 0.0
N2601 N 0.31482 0.31339 0.68217 0.0
C2602 C 0.31151 0.28097 0.67069 0.0
C2603 C 0.30643 0.26935 0.63607 0.0
C2604 C 0.66465 0.52655 0.14461 0.0
C2605 C 0.64853 0.52087 0.17048 0.0
C2606 C 0.65247 0.53206 0.11504 0.0
C2607 C 0.62297 0.53288 0.10828 0.0
H2608 H 0.68739 0.52663 0.14704 0.0
H2609 H 0.66676 0.53568 0.09684 0.0
S2610 S 0.56991 0.52043 0.1671 0.0
N2611 N 0.60008 0.51714 0.18628 0.0
N2612 N 0.5779 0.5276 0.13183 0.0
C2613 C 0.60641 0.52777 0.13399 0.0
C2614 C 0.61884 0.52183 0.16433 0.0
C2615 C 0.37236 0.88973 0.89786 0.0
C2616 C 0.35335 0.883 0.92032 0.0
C2617 C 0.37527 0.86484 0.87321 0.0
C2618 C 0.35708 0.83339 0.86894 0.0
H2619 H 0.38396 0.91447 0.89842 0.0
H2620 H 0.38866 0.87161 0.85509 0.0
S2621 S 0.31734 0.80172 0.93137 0.0
N2622 N 0.32624 0.84161 0.94489 0.0
N2623 N 0.33011 0.79453 0.89631 0.0
C2624 C 0.34299 0.82539 0.89483 0.0
C2625 C 0.34107 0.85062 0.92094 0.0
C2626 C 0.94806 0.50259 0.71532 0.0
C2627 C 0.95164 0.53615 0.72819 0.0
C2628 C 0.96963 0.49105 0.69938 0.0
C2629 C 0.99511 0.51276 0.69569 0.0
H2630 H 0.92964 0.48497 0.71973 0.0
H2631 H 0.96664 0.46508 0.69041 0.0
S2632 S 0.01343 0.60278 0.7217 0.0
N2633 N 0.98138 0.59087 0.73346 0.0
N2634 N 0.0219 0.56912 0.70365 0.0
C2635 C 0.99807 0.54634 0.70652 0.0
C2636 C 0.9762 0.55806 0.72251 0.0
C2637 C 0.34326 0.23984 0.40519 0.0
C2638 C 0.32242 0.24988 0.42414 0.0
C2639 C 0.34842 0.25008 0.37638 0.0
C2640 C 0.33288 0.27064 0.36552 0.0
H2641 H 0.3553 0.22343 0.41234 0.0
H2642 H 0.3639 0.24098 0.362 0.0
S2643 S 0.27671 0.30463 0.40647 0.0
N2644 N 0.28652 0.28191 0.42981 0.0
N2645 N 0.29693 0.3019 0.37674 0.0
C2646 C 0.31278 0.28165 0.38476 0.0
C2647 C 0.30739 0.27114 0.41382 0.0
C2648 C 0.37598 0.59932 0.51493 0.0
C2649 C 0.37003 0.59524 0.54591 0.0
C2650 C 0.39346 0.58217 0.49803 0.0
C2651 C 0.40615 0.56132 0.51192 0.0
H2652 H 0.36496 0.61327 0.50216 0.0
H2653 H 0.39581 0.58391 0.47335 0.0
S2654 S 0.40637 0.55251 0.59651 0.0
N2655 N 0.38398 0.57604 0.59279 0.0
N2656 N 0.41818 0.54407 0.56106 0.0
C2657 C 0.40425 0.56112 0.54461 0.0
C2658 C 0.38582 0.57819 0.56171 0.0
C2659 C 0.95297 0.99389 0.5733 0.0
C2660 C 0.93987 0.96288 0.55384 0.0
C2661 C 0.98194 1.0093 0.57196 0.0
C2662 C 0.99884 0.99471 0.55047 0.0
H2663 H 0.94031 1.00697 0.58869 0.0
H2664 H 0.99065 0.03338 0.587 0.0
S2665 S 0.97428 0.91276 0.49482 0.0
N2666 N 0.94586 0.91747 0.5134 0.0
N2667 N 1.0 0.94599 0.51032 0.0
C2668 C 0.98616 0.96282 0.53194 0.0
C2669 C 0.95676 0.94706 0.53372 0.0
C2670 C 0.87604 0.1767 0.2933 0.0
C2671 C 0.89902 0.16952 0.27515 0.0
C2672 C 0.86245 0.20369 0.29144 0.0
C2673 C 0.86926 0.22496 0.26984 0.0
H2674 H 0.86882 0.16178 0.31003 0.0
H2675 H 0.8465 0.20783 0.3074 0.0
S2676 S 0.92716 0.21681 0.2157 0.0
N2677 N 0.92753 0.18766 0.23513 0.0
N2678 N 0.90177 0.23439 0.22941 0.0
C2679 C 0.89187 0.21716 0.2513 0.0
C2680 C 0.90642 0.19094 0.25435 0.0
C2681 C 0.69065 0.13625 0.04719 0.0
C2682 C 0.7098 0.11605 0.0487 0.0
C2683 C 0.66081 0.1234 0.04429 0.0
C2684 C 0.64952 0.0902 0.04276 0.0
H2685 H 0.69848 0.16127 0.04545 0.0
H2686 H 0.64649 0.13875 0.04 0.0
S2687 S 0.69137 0.02908 0.0515 0.0
N2688 N 0.71599 0.06329 0.05482 0.0
N2689 N 0.66006 0.03844 0.04574 0.0
C2690 C 0.66867 0.07075 0.04721 0.0
C2691 C 0.69891 0.08401 0.05134 0.0
C2692 C 0.30041 0.48971 0.24188 0.0
C2693 C 0.27057 0.48548 0.24314 0.0
C2694 C 0.3183 0.48762 0.26806 0.0
C2695 C 0.30677 0.48183 0.29619 0.0
H2696 H 0.31005 0.49589 0.22106 0.0
H2697 H 0.34117 0.48994 0.2662 0.0
S2698 S 0.22989 0.46537 0.31031 0.0
N2699 N 0.22987 0.47213 0.2737 0.0
N2700 N 0.26412 0.4689 0.32317 0.0
C2701 C 0.27697 0.47621 0.29731 0.0
C2702 C 0.25861 0.47752 0.2705 0.0
C2703 C 0.28213 0.46598 0.03486 0.0
C2704 C 0.27215 0.43428 0.03957 0.0
C2705 C 0.26335 0.48187 0.02194 0.0
C2706 C 0.23374 0.46722 0.01441 0.0
H2707 H 0.30486 0.47829 0.03987 0.0
H2708 H 0.27213 0.50564 0.01733 0.0
S2709 S 0.19555 0.3879 0.02895 0.0
N2710 N 0.23011 0.39064 0.03977 0.0
N2711 N 0.19433 0.42153 0.0168 0.0
C2712 C 0.2229 0.43685 0.02163 0.0
C2713 C 0.24225 0.42011 0.03394 0.0
C2714 C 0.90887 0.9326 0.25285 0.0
C2715 C 0.90059 0.96175 0.26574 0.0
C2716 C 0.89181 0.90105 0.25288 0.0
C2717 C 0.86502 0.89611 0.26564 0.0
H2718 H 0.92916 0.93403 0.24274 0.0
H2719 H 0.89995 0.88016 0.24281 0.0
S2720 S 0.83422 0.96362 0.30599 0.0
N2721 N 0.86391 0.98281 0.29377 0.0
N2722 N 0.83253 0.92436 0.29424 0.0
C2723 C 0.8566 0.925 0.27913 0.0
C2724 C 0.87403 0.9573 0.27905 0.0
C2725 C 0.78274 0.16345 0.74297 0.0
C2726 C 0.75261 0.15707 0.73411 0.0
C2727 C 0.79836 0.19402 0.76045 0.0
C2728 C 0.78434 0.21903 0.76877 0.0
H2729 H 0.79433 0.14458 0.73699 0.0
H2730 H 0.82148 0.19829 0.76693 0.0
S2731 S 0.70667 0.21605 0.75134 0.0
N2732 N 0.70969 0.17906 0.73514 0.0
N2733 N 0.73958 0.23671 0.76767 0.0
C2734 C 0.75452 0.21337 0.76028 0.0
C2735 C 0.73853 0.18236 0.74263 0.0
loop_
_geom_bond_atom_site_label_1
_geom_bond_atom_site_label_2
_geom_bond_distance
_geom_bond_site_symmetry_2
_ccdc_geom_bond_type
C0 O1 1.306 . S
C0 O3 1.160 . S
O1 C0 1.306 . S
O1 Cd2 2.228 . S
Cd2 O1 2.228 . S
Cd2 O6 2.273 . S
Cd2 O10 2.277 . S
O3 C0 1.160 . S
O3 Cd4 2.203 . S
Cd4 O3 2.203 . S
Cd4 O6 2.411 . S
Cd4 O7 2.333 . S
Cd4 O8 2.352 . S
Cd4 O12 2.277 . S
Cd4 O13 2.356 . S
C5 O10 1.209 . S
C5 O12 1.226 . S
O6 Cd2 2.273 . S
O6 Cd4 2.411 . S
O6 C9 1.320 . S
O7 Cd4 2.333 . S
O7 C9 1.214 . S
O8 Cd4 2.352 . S
O8 C11 1.258 . S
C9 O6 1.320 . S
C9 O7 1.214 . S
O10 Cd2 2.277 . S
O10 C5 1.209 . S
C11 O8 1.258 . S
C11 O13 1.282 . S
O12 Cd4 2.277 . S
O12 C5 1.226 . S
O13 Cd4 2.356 . S
O13 C11 1.282 . S
C14 O15 1.306 . S
C14 O17 1.160 . S
O15 C14 1.306 . S
O15 Cd16 2.228 1_655 S
Cd16 O15 2.228 1_455 S
Cd16 O20 2.273 . S
Cd16 O24 2.277 1_455 S
O17 C14 1.160 . S
O17 Cd18 2.203 1_655 S
Cd18 O17 2.203 1_455 S
Cd18 O20 2.411 . S
Cd18 O21 2.333 . S
Cd18 O22 2.352 . S
Cd18 O26 2.277 1_455 S
Cd18 O27 2.356 . S
C19 O24 1.209 . S
C19 O26 1.226 . S
O20 Cd16 2.273 . S
O20 Cd18 2.411 . S
O20 C23 1.320 . S
O21 Cd18 2.333 . S
O21 C23 1.214 . S
O22 Cd18 2.352 . S
O22 C25 1.258 . S
C23 O20 1.320 . S
C23 O21 1.214 . S
O24 Cd16 2.277 1_655 S
O24 C19 1.209 . S
C25 O22 1.258 . S
C25 O27 1.282 . S
O26 Cd18 2.277 1_655 S
O26 C19 1.226 . S
O27 Cd18 2.356 . S
O27 C25 1.282 . S
C28 O29 1.306 . S
C28 O31 1.160 . S
O29 C28 1.306 . S
O29 Cd30 2.228 . S
Cd30 O29 2.228 . S
Cd30 O34 2.273 . S
Cd30 O38 2.277 . S
O31 C28 1.160 . S
O31 Cd32 2.203 . S
Cd32 O31 2.203 . S
Cd32 O34 2.411 . S
Cd32 O35 2.333 . S
Cd32 O36 2.352 . S
Cd32 O40 2.277 . S
Cd32 O41 2.356 . S
C33 O38 1.209 . S
C33 O40 1.226 . S
O34 Cd30 2.273 . S
O34 Cd32 2.411 . S
O34 C37 1.320 . S
O35 Cd32 2.333 . S
O35 C37 1.214 . S
O36 Cd32 2.352 . S
O36 C39 1.258 . S
C37 O34 1.320 . S
C37 O35 1.214 . S
O38 Cd30 2.277 . S
O38 C33 1.209 . S
C39 O36 1.258 . S
C39 O41 1.282 . S
O40 Cd32 2.277 . S
O40 C33 1.226 . S
O41 Cd32 2.356 . S
O41 C39 1.282 . S
C42 O43 1.306 . S
C42 O45 1.160 . S
O43 C42 1.306 . S
O43 Cd44 2.228 . S
Cd44 O43 2.228 . S
Cd44 O48 2.273 . S
Cd44 O52 2.277 . S
O45 C42 1.160 . S
O45 Cd46 2.203 . S
Cd46 O45 2.203 . S
Cd46 O48 2.411 . S
Cd46 O49 2.333 . S
Cd46 O50 2.352 . S
Cd46 O54 2.277 . S
Cd46 O55 2.356 . S
C47 O52 1.209 . S
C47 O54 1.226 . S
O48 Cd44 2.273 . S
O48 Cd46 2.411 . S
O48 C51 1.320 . S
O49 Cd46 2.333 . S
O49 C51 1.214 . S
O50 Cd46 2.352 . S
O50 C53 1.258 . S
C51 O48 1.320 . S
C51 O49 1.214 . S
O52 Cd44 2.277 . S
O52 C47 1.209 . S
C53 O50 1.258 . S
C53 O55 1.282 . S
O54 Cd46 2.277 . S
O54 C47 1.226 . S
O55 Cd46 2.356 . S
O55 C53 1.282 . S
C56 O57 1.306 . S
C56 O59 1.160 . S
O57 C56 1.306 . S
O57 Cd58 2.228 . S
Cd58 O57 2.228 . S
Cd58 O62 2.273 . S
Cd58 O66 2.277 . S
O59 C56 1.160 . S
O59 Cd60 2.203 . S
Cd60 O59 2.203 . S
Cd60 O62 2.411 . S
Cd60 O63 2.333 . S
Cd60 O64 2.352 . S
Cd60 O68 2.277 . S
Cd60 O69 2.356 . S
C61 O66 1.209 . S
C61 O68 1.226 . S
O62 Cd58 2.273 . S
O62 Cd60 2.411 . S
O62 C65 1.320 . S
O63 Cd60 2.333 . S
O63 C65 1.214 . S
O64 Cd60 2.352 . S
O64 C67 1.258 . S
C65 O62 1.320 . S
C65 O63 1.214 . S
O66 Cd58 2.277 . S
O66 C61 1.209 . S
C67 O64 1.258 . S
C67 O69 1.282 . S
O68 Cd60 2.277 . S
O68 C61 1.226 . S
O69 Cd60 2.356 . S
O69 C67 1.282 . S
C70 O71 1.306 . S
C70 O73 1.160 . S
O71 C70 1.306 . S
O71 Cd72 2.228 . S
Cd72 O71 2.228 . S
Cd72 O76 2.273 . S
Cd72 O80 2.277 . S
O73 C70 1.160 . S
O73 Cd74 2.203 . S
Cd74 O73 2.203 . S
Cd74 O76 2.411 . S
Cd74 O77 2.333 . S
Cd74 O78 2.352 . S
Cd74 O82 2.277 . S
Cd74 O83 2.356 . S
C75 O80 1.209 . S
C75 O82 1.226 . S
O76 Cd72 2.273 . S
O76 Cd74 2.411 . S
O76 C79 1.320 . S
O77 Cd74 2.333 . S
O77 C79 1.214 . S
O78 Cd74 2.352 . S
O78 C81 1.258 . S
C79 O76 1.320 . S
C79 O77 1.214 . S
O80 Cd72 2.277 . S
O80 C75 1.209 . S
C81 O78 1.258 . S
C81 O83 1.282 . S
O82 Cd74 2.277 . S
O82 C75 1.226 . S
O83 Cd74 2.356 . S
O83 C81 1.282 . S
C84 O85 1.306 . S
C84 O87 1.160 . S
O85 C84 1.306 . S
O85 Cd86 2.228 . S
Cd86 O85 2.228 . S
Cd86 O90 2.273 . S
Cd86 O94 2.277 . S
O87 C84 1.160 . S
O87 Cd88 2.203 . S
Cd88 O87 2.203 . S
Cd88 O90 2.411 . S
Cd88 O91 2.333 . S
Cd88 O92 2.352 . S
Cd88 O96 2.277 . S
Cd88 O97 2.356 . S
C89 O94 1.209 . S
C89 O96 1.226 . S
O90 Cd86 2.273 . S
O90 Cd88 2.411 . S
O90 C93 1.320 . S
O91 Cd88 2.333 . S
O91 C93 1.214 . S
O92 Cd88 2.352 . S
O92 C95 1.258 . S
C93 O90 1.320 . S
C93 O91 1.214 . S
O94 Cd86 2.277 . S
O94 C89 1.209 . S
C95 O92 1.258 . S
C95 O97 1.282 . S
O96 Cd88 2.277 . S
O96 C89 1.226 . S
O97 Cd88 2.356 . S
O97 C95 1.282 . S
C98 O99 1.306 . S
C98 O101 1.160 . S
O99 C98 1.306 . S
O99 Cd100 2.228 1_655 S
Cd100 O99 2.228 1_455 S
Cd100 O104 2.273 . S
Cd100 O108 2.277 . S
O101 C98 1.160 . S
O101 Cd102 2.203 1_655 S
Cd102 O101 2.203 1_455 S
Cd102 O104 2.411 . S
Cd102 O105 2.333 . S
Cd102 O106 2.352 . S
Cd102 O110 2.277 . S
Cd102 O111 2.356 . S
C103 O108 1.209 . S
C103 O110 1.226 . S
O104 Cd100 2.273 . S
O104 Cd102 2.411 . S
O104 C107 1.320 . S
O105 Cd102 2.333 . S
O105 C107 1.214 . S
O106 Cd102 2.352 . S
O106 C109 1.258 . S
C107 O104 1.320 . S
C107 O105 1.214 . S
O108 Cd100 2.277 . S
O108 C103 1.209 . S
C109 O106 1.258 . S
C109 O111 1.282 . S
O110 Cd102 2.277 . S
O110 C103 1.226 . S
O111 Cd102 2.356 . S
O111 C109 1.282 . S
C112 O113 1.306 1_545 S
C112 O115 1.160 . S
O113 C112 1.306 1_565 S
O113 Cd114 2.228 . S
Cd114 O113 2.228 . S
Cd114 O118 2.273 1_565 S
Cd114 O122 2.277 . S
O115 C112 1.160 . S
O115 Cd116 2.203 . S
Cd116 O115 2.203 . S
Cd116 O118 2.411 . S
Cd116 O119 2.333 . S
Cd116 O120 2.352 . S
Cd116 O124 2.277 1_545 S
Cd116 O125 2.356 . S
C117 O122 1.209 . S
C117 O124 1.226 . S
O118 Cd114 2.273 1_545 S
O118 Cd116 2.411 . S
O118 C121 1.316 . S
O119 Cd116 2.333 . S
O119 C121 1.219 . S
O120 Cd116 2.352 . S
O120 C123 1.258 . S
C121 O118 1.316 . S
C121 O119 1.219 . S
O122 Cd114 2.277 . S
O122 C117 1.209 . S
C123 O120 1.258 . S
C123 O125 1.282 . S
O124 Cd116 2.277 1_565 S
O124 C117 1.226 . S
O125 Cd116 2.356 . S
O125 C123 1.282 . S
C126 O127 1.306 . S
C126 O129 1.160 . S
O127 C126 1.306 . S
O127 Cd128 2.228 . S
Cd128 O127 2.228 . S
Cd128 O132 2.273 . S
Cd128 O136 2.277 . S
O129 C126 1.160 . S
O129 Cd130 2.203 . S
Cd130 O129 2.203 . S
Cd130 O132 2.411 . S
Cd130 O133 2.333 . S
Cd130 O134 2.352 . S
Cd130 O138 2.277 . S
Cd130 O139 2.356 . S
C131 O136 1.209 . S
C131 O138 1.226 . S
O132 Cd128 2.273 . S
O132 Cd130 2.411 . S
O132 C135 1.320 . S
O133 Cd130 2.333 . S
O133 C135 1.214 . S
O134 Cd130 2.352 . S
O134 C137 1.258 . S
C135 O132 1.320 . S
C135 O133 1.214 . S
O136 Cd128 2.277 . S
O136 C131 1.209 . S
C137 O134 1.258 . S
C137 O139 1.282 . S
O138 Cd130 2.277 . S
O138 C131 1.226 . S
O139 Cd130 2.356 . S
O139 C137 1.282 . S
C140 O141 1.306 . S
C140 O143 1.160 . S
O141 C140 1.306 . S
O141 Cd142 2.228 . S
Cd142 O141 2.228 . S
Cd142 O146 2.273 1_545 S
Cd142 O150 2.277 . S
O143 C140 1.160 . S
O143 Cd144 2.203 1_545 S
Cd144 O143 2.203 1_565 S
Cd144 O146 2.411 . S
Cd144 O147 2.333 . S
Cd144 O148 2.352 . S
Cd144 O152 2.277 1_565 S
Cd144 O153 2.356 . S
C145 O150 1.209 . S
C145 O152 1.226 . S
O146 Cd142 2.273 1_565 S
O146 Cd144 2.411 . S
O146 C149 1.320 . S
O147 Cd144 2.333 . S
O147 C149 1.214 . S
O148 Cd144 2.352 . S
O148 C151 1.258 . S
C149 O146 1.320 . S
C149 O147 1.214 . S
O150 Cd142 2.277 . S
O150 C145 1.209 . S
C151 O148 1.258 . S
C151 O153 1.282 . S
O152 Cd144 2.277 1_545 S
O152 C145 1.226 . S
O153 Cd144 2.356 . S
O153 C151 1.282 . S
C154 O155 1.306 1_554 S
C154 O157 1.160 . S
O155 C154 1.306 1_556 S
O155 Cd156 2.228 . S
Cd156 O155 2.228 . S
Cd156 O160 2.273 1_556 S
Cd156 O164 2.277 . S
O157 C154 1.160 . S
O157 Cd158 2.203 . S
Cd158 O157 2.203 . S
Cd158 O160 2.411 . S
Cd158 O161 2.333 . S
Cd158 O162 2.352 . S
Cd158 O166 2.277 1_554 S
Cd158 O167 2.356 . S
C159 O164 1.209 . S
C159 O166 1.226 . S
O160 Cd156 2.273 1_554 S
O160 Cd158 2.411 . S
O160 C163 1.320 . S
O161 Cd158 2.333 . S
O161 C163 1.214 . S
O162 Cd158 2.352 . S
O162 C165 1.258 . S
C163 O160 1.320 . S
C163 O161 1.214 . S
O164 Cd156 2.277 . S
O164 C159 1.209 . S
C165 O162 1.258 . S
C165 O167 1.282 . S
O166 Cd158 2.277 1_556 S
O166 C159 1.226 . S
O167 Cd158 2.356 . S
O167 C165 1.282 . S
C168 O169 1.306 . S
C168 O171 1.160 . S
O169 C168 1.306 . S
O169 Cd170 2.228 . S
Cd170 O169 2.228 . S
Cd170 O174 2.273 . S
Cd170 O178 2.277 1_554 S
O171 C168 1.160 . S
O171 Cd172 2.203 . S
Cd172 O171 2.203 . S
Cd172 O174 2.411 . S
Cd172 O175 2.333 . S
Cd172 O176 2.352 . S
Cd172 O180 2.277 1_554 S
Cd172 O181 2.356 . S
C173 O178 1.209 . S
C173 O180 1.226 . S
O174 Cd170 2.273 . S
O174 Cd172 2.411 . S
O174 C177 1.320 . S
O175 Cd172 2.333 . S
O175 C177 1.214 . S
O176 Cd172 2.352 . S
O176 C179 1.258 . S
C177 O174 1.320 . S
C177 O175 1.214 . S
O178 Cd170 2.277 1_556 S
O178 C173 1.209 . S
C179 O176 1.258 . S
C179 O181 1.282 . S
O180 Cd172 2.277 1_556 S
O180 C173 1.226 . S
O181 Cd172 2.356 . S
O181 C179 1.282 . S
C182 O183 1.306 . S
C182 O185 1.160 . S
O183 C182 1.306 . S
O183 Cd184 2.228 . S
Cd184 O183 2.228 . S
Cd184 O188 2.273 . S
Cd184 O192 2.277 . S
O185 C182 1.160 . S
O185 Cd186 2.203 . S
Cd186 O185 2.203 . S
Cd186 O188 2.411 . S
Cd186 O189 2.333 . S
Cd186 O190 2.352 1_554 S
Cd186 O194 2.277 . S
Cd186 O195 2.356 . S
C187 O192 1.209 . S
C187 O194 1.226 . S
O188 Cd184 2.273 . S
O188 Cd186 2.411 . S
O188 C191 1.320 . S
O189 Cd186 2.333 . S
O189 C191 1.214 . S
O190 Cd186 2.352 1_556 S
O190 C193 1.258 . S
C191 O188 1.320 . S
C191 O189 1.214 . S
O192 Cd184 2.277 . S
O192 C187 1.209 . S
C193 O190 1.258 . S
C193 O195 1.282 1_556 S
O194 Cd186 2.277 . S
O194 C187 1.226 . S
O195 Cd186 2.356 . S
O195 C193 1.282 1_554 S
C196 O197 1.306 . S
C196 O199 1.160 . S
O197 C196 1.306 . S
O197 Cd198 2.228 . S
Cd198 O197 2.228 . S
Cd198 O202 2.273 . S
Cd198 O206 2.277 . S
O199 C196 1.160 . S
O199 Cd200 2.203 . S
Cd200 O199 2.203 . S
Cd200 O202 2.411 . S
Cd200 O203 2.333 . S
Cd200 O204 2.352 . S
Cd200 O208 2.277 . S
Cd200 O209 2.356 . S
C201 O206 1.209 . S
C201 O208 1.226 . S
O202 Cd198 2.273 . S
O202 Cd200 2.411 . S
O202 C205 1.320 . S
O203 Cd200 2.333 . S
O203 C205 1.214 . S
O204 Cd200 2.352 . S
O204 C207 1.258 . S
C205 O202 1.320 . S
C205 O203 1.214 . S
O206 Cd198 2.277 . S
O206 C201 1.209 . S
C207 O204 1.258 . S
C207 O209 1.282 . S
O208 Cd200 2.277 . S
O208 C201 1.226 . S
O209 Cd200 2.356 . S
O209 C207 1.282 . S
C210 O211 1.306 . S
C210 O213 1.160 . S
O211 C210 1.306 . S
O211 Cd212 2.228 . S
Cd212 O211 2.228 . S
Cd212 O216 2.273 . S
Cd212 O220 2.277 . S
O213 C210 1.160 . S
O213 Cd214 2.203 . S
Cd214 O213 2.203 . S
Cd214 O216 2.411 . S
Cd214 O217 2.333 . S
Cd214 O218 2.352 . S
Cd214 O222 2.277 . S
Cd214 O223 2.356 . S
C215 O220 1.209 . S
C215 O222 1.226 . S
O216 Cd212 2.273 . S
O216 Cd214 2.411 . S
O216 C219 1.320 . S
O217 Cd214 2.333 . S
O217 C219 1.214 . S
O218 Cd214 2.352 . S
O218 C221 1.258 . S
C219 O216 1.320 . S
C219 O217 1.214 . S
O220 Cd212 2.277 . S
O220 C215 1.209 . S
C221 O218 1.258 . S
C221 O223 1.282 . S
O222 Cd214 2.277 . S
O222 C215 1.226 . S
O223 Cd214 2.356 . S
O223 C221 1.282 . S
C224 O225 1.306 1_655 S
C224 O227 1.160 . S
O225 C224 1.306 1_455 S
O225 Cd226 2.228 . S
Cd226 O225 2.228 . S
Cd226 O230 2.273 1_455 S
Cd226 O234 2.277 1_455 S
O227 C224 1.160 . S
O227 Cd228 2.203 . S
Cd228 O227 2.203 . S
Cd228 O230 2.411 . S
Cd228 O231 2.333 . S
Cd228 O232 2.352 . S
Cd228 O236 2.277 . S
Cd228 O237 2.356 . S
C229 O234 1.209 . S
C229 O236 1.233 . S
O230 Cd226 2.273 1_655 S
O230 Cd228 2.411 . S
O230 C233 1.320 . S
O231 Cd228 2.333 . S
O231 C233 1.214 . S
O232 Cd228 2.352 . S
O232 C235 1.258 . S
C233 O230 1.320 . S
C233 O231 1.214 . S
O234 Cd226 2.277 1_655 S
O234 C229 1.209 . S
C235 O232 1.258 . S
C235 O237 1.282 . S
O236 Cd228 2.277 . S
O236 C229 1.233 . S
O237 Cd228 2.356 . S
O237 C235 1.282 . S
C238 O239 1.306 . S
C238 O241 1.160 . S
O239 C238 1.306 . S
O239 Cd240 2.228 . S
Cd240 O239 2.228 . S
Cd240 O244 2.273 . S
Cd240 O248 2.277 . S
O241 C238 1.160 . S
O241 Cd242 2.203 . S
Cd242 O241 2.203 . S
Cd242 O244 2.411 . S
Cd242 O245 2.333 . S
Cd242 O246 2.352 . S
Cd242 O250 2.277 . S
Cd242 O251 2.356 . S
C243 O248 1.209 . S
C243 O250 1.226 . S
O244 Cd240 2.273 . S
O244 Cd242 2.411 . S
O244 C247 1.320 . S
O245 Cd242 2.333 . S
O245 C247 1.214 . S
O246 Cd242 2.352 . S
O246 C249 1.258 . S
C247 O244 1.320 . S
C247 O245 1.214 . S
O248 Cd240 2.277 . S
O248 C243 1.209 . S
C249 O246 1.258 . S
C249 O251 1.282 . S
O250 Cd242 2.277 . S
O250 C243 1.226 . S
O251 Cd242 2.356 . S
O251 C249 1.282 . S
C252 O253 1.306 . S
C252 O255 1.160 . S
O253 C252 1.306 . S
O253 Cd254 2.228 . S
Cd254 O253 2.228 . S
Cd254 O258 2.273 . S
Cd254 O262 2.277 . S
O255 C252 1.160 . S
O255 Cd256 2.203 . S
Cd256 O255 2.203 . S
Cd256 O258 2.411 . S
Cd256 O259 2.333 . S
Cd256 O260 2.352 . S
Cd256 O264 2.277 . S
Cd256 O265 2.356 . S
C257 O262 1.209 . S
C257 O264 1.226 . S
O258 Cd254 2.273 . S
O258 Cd256 2.411 . S
O258 C261 1.320 . S
O259 Cd256 2.333 . S
O259 C261 1.214 . S
O260 Cd256 2.352 . S
O260 C263 1.258 . S
C261 O258 1.320 . S
C261 O259 1.214 . S
O262 Cd254 2.277 . S
O262 C257 1.209 . S
C263 O260 1.258 . S
C263 O265 1.282 . S
O264 Cd256 2.277 . S
O264 C257 1.226 . S
O265 Cd256 2.356 . S
O265 C263 1.282 . S
C266 O267 1.306 . S
C266 O269 1.160 . S
O267 C266 1.306 . S
O267 Cd268 2.228 . S
Cd268 O267 2.228 . S
Cd268 O272 2.273 . S
Cd268 O276 2.277 . S
O269 C266 1.160 . S
O269 Cd270 2.203 . S
Cd270 O269 2.203 . S
Cd270 O272 2.411 . S
Cd270 O273 2.333 . S
Cd270 O274 2.352 . S
Cd270 O278 2.277 . S
Cd270 O279 2.356 . S
C271 O276 1.209 . S
C271 O278 1.226 . S
O272 Cd268 2.273 . S
O272 Cd270 2.411 . S
O272 C275 1.320 . S
O273 Cd270 2.333 . S
O273 C275 1.214 . S
O274 Cd270 2.352 . S
O274 C277 1.258 . S
C275 O272 1.320 . S
C275 O273 1.214 . S
O276 Cd268 2.277 . S
O276 C271 1.209 . S
C277 O274 1.258 . S
C277 O279 1.282 . S
O278 Cd270 2.277 . S
O278 C271 1.226 . S
O279 Cd270 2.356 . S
O279 C277 1.282 . S
C280 O281 1.306 . S
C280 O283 1.160 1_554 S
O281 C280 1.306 . S
O281 Cd282 2.228 . S
Cd282 O281 2.228 . S
Cd282 O286 2.273 1_554 S
Cd282 O290 2.277 . S
O283 C280 1.160 1_556 S
O283 Cd284 2.203 . S
Cd284 O283 2.203 . S
Cd284 O286 2.411 . S
Cd284 O287 2.333 . S
Cd284 O288 2.352 . S
Cd284 O292 2.277 1_556 S
Cd284 O293 2.356 . S
C285 O290 1.209 . S
C285 O292 1.226 . S
O286 Cd282 2.273 1_556 S
O286 Cd284 2.411 . S
O286 C289 1.320 . S
O287 Cd284 2.333 . S
O287 C289 1.214 . S
O288 Cd284 2.352 . S
O288 C291 1.258 . S
C289 O286 1.320 . S
C289 O287 1.214 . S
O290 Cd282 2.277 . S
O290 C285 1.209 . S
C291 O288 1.258 . S
C291 O293 1.282 . S
O292 Cd284 2.277 1_554 S
O292 C285 1.226 . S
O293 Cd284 2.356 . S
O293 C291 1.282 . S
C294 O295 1.306 . S
C294 O297 1.160 . S
O295 C294 1.306 . S
O295 Cd296 2.228 . S
Cd296 O295 2.228 . S
Cd296 O300 2.273 . S
Cd296 O304 2.277 . S
O297 C294 1.160 . S
O297 Cd298 2.203 . S
Cd298 O297 2.203 . S
Cd298 O300 2.411 . S
Cd298 O301 2.333 . S
Cd298 O302 2.352 . S
Cd298 O306 2.277 . S
Cd298 O307 2.356 . S
C299 O304 1.209 . S
C299 O306 1.226 . S
O300 Cd296 2.273 . S
O300 Cd298 2.411 . S
O300 C303 1.320 . S
O301 Cd298 2.333 . S
O301 C303 1.214 . S
O302 Cd298 2.352 . S
O302 C305 1.258 . S
C303 O300 1.320 . S
C303 O301 1.214 . S
O304 Cd296 2.277 . S
O304 C299 1.209 . S
C305 O302 1.258 . S
C305 O307 1.282 . S
O306 Cd298 2.277 . S
O306 C299 1.226 . S
O307 Cd298 2.356 . S
O307 C305 1.282 . S
C308 O309 1.306 . S
C308 O311 1.160 . S
O309 C308 1.306 . S
O309 Cd310 2.228 . S
Cd310 O309 2.228 . S
Cd310 O314 2.273 . S
Cd310 O318 2.277 . S
O311 C308 1.160 . S
O311 Cd312 2.203 . S
Cd312 O311 2.203 . S
Cd312 O314 2.411 . S
Cd312 O315 2.333 . S
Cd312 O316 2.352 . S
Cd312 O320 2.277 . S
Cd312 O321 2.356 . S
C313 O318 1.209 . S
C313 O320 1.226 . S
O314 Cd310 2.273 . S
O314 Cd312 2.411 . S
O314 C317 1.320 . S
O315 Cd312 2.333 . S
O315 C317 1.214 . S
O316 Cd312 2.352 . S
O316 C319 1.258 . S
C317 O314 1.320 . S
C317 O315 1.214 . S
O318 Cd310 2.277 . S
O318 C313 1.209 . S
C319 O316 1.258 . S
C319 O321 1.282 . S
O320 Cd312 2.277 . S
O320 C313 1.226 . S
O321 Cd312 2.356 . S
O321 C319 1.282 . S
C322 O323 1.306 . S
C322 O325 1.160 . S
O323 C322 1.306 . S
O323 Cd324 2.228 . S
Cd324 O323 2.228 . S
Cd324 O328 2.273 . S
Cd324 O332 2.277 . S
O325 C322 1.160 . S
O325 Cd326 2.203 . S
Cd326 O325 2.203 . S
Cd326 O328 2.411 . S
Cd326 O329 2.333 . S
Cd326 O330 2.352 . S
Cd326 O334 2.277 . S
Cd326 O335 2.356 . S
C327 O332 1.209 . S
C327 O334 1.226 . S
O328 Cd324 2.273 . S
O328 Cd326 2.411 . S
O328 C331 1.320 . S
O329 Cd326 2.333 . S
O329 C331 1.214 . S
O330 Cd326 2.352 . S
O330 C333 1.258 . S
C331 O328 1.320 . S
C331 O329 1.214 . S
O332 Cd324 2.277 . S
O332 C327 1.209 . S
C333 O330 1.258 . S
C333 O335 1.282 . S
O334 Cd326 2.277 . S
O334 C327 1.226 . S
O335 Cd326 2.356 . S
O335 C333 1.282 . S
Gd336 N367 2.661 . S
Gd336 N373 2.601 . S
Gd336 O380 2.545 . S
Gd336 O381 2.602 1_545 S
Gd336 O383 2.429 . S
Gd336 O384 2.545 1_545 S
Gd336 O385 2.412 . S
Gd336 O387 2.362 . S
Gd336 O388 2.324 1_554 S
Gd336 C395 2.828 . S
Gd337 N346 2.665 1_545 S
Gd337 N350 2.598 1_544 S
Gd337 O381 2.361 1_545 S
Gd337 O382 2.331 . S
Gd337 O386 2.540 1_454 S
Gd337 O387 2.607 . S
Gd337 O389 2.423 1_554 S
Gd337 O390 2.542 1_554 S
Gd337 O391 2.414 1_455 S
Gd337 C404 2.827 1_454 S
C338 C341 1.417 . S
C338 C343 1.431 1_554 S
C338 C344 1.412 . S
C339 C342 1.437 . S
C339 C343 1.317 . S
C339 H358 0.929 . S
C340 C341 1.426 1_556 S
C340 C342 1.413 . S
C340 N350 1.359 1_655 S
C341 C338 1.417 . S
C341 C340 1.426 1_554 S
C341 N346 1.350 1_655 S
C342 C339 1.437 . S
C342 C340 1.413 . S
C342 C352 1.391 . S
C343 C338 1.431 1_556 S
C343 C339 1.317 . S
C343 H354 0.930 . S
C344 C338 1.412 . S
C344 C345 1.355 1_655 S
C344 H356 0.930 . S
C345 C344 1.355 1_455 S
C345 C347 1.402 . S
C345 H357 0.930 . S
N346 Gd337 2.665 1_565 S
N346 C341 1.350 1_455 S
N346 C347 1.307 . S
C347 C345 1.402 . S
C347 N346 1.307 . S
C347 H348 0.930 . S
H348 C347 0.930 . S
C349 N350 1.334 . S
C349 C351 1.394 1_455 S
C349 H353 0.930 . S
N350 Gd337 2.598 1_566 S
N350 C340 1.359 1_455 S
N350 C349 1.334 . S
C351 C349 1.394 1_655 S
C351 C352 1.359 . S
C351 H363 0.930 . S
C352 C342 1.391 . S
C352 C351 1.359 . S
C352 H364 0.929 . S
H353 C349 0.930 . S
H354 C343 0.930 . S
H355 C372 0.930 . S
H356 C344 0.930 . S
H357 C345 0.930 . S
H358 C339 0.929 . S
H359 C377 0.930 . S
H360 C368 0.930 . S
H361 C369 0.930 . S
H362 C393 0.929 . S
H363 C351 0.930 . S
H364 C352 0.929 . S
H365 C394 0.930 . S
H366 C375 0.930 . S
N367 Gd336 2.661 . S
N367 C371 1.350 . S
N367 C372 1.307 1_554 S
C368 H360 0.930 . S
C368 C369 1.355 . S
C368 C370 1.412 1_556 S
C369 H361 0.930 . S
C369 C368 1.355 . S
C369 C372 1.402 . S
C370 C368 1.412 1_554 S
C370 C371 1.417 . S
C370 C394 1.431 . S
C371 N367 1.350 . S
C371 C370 1.417 . S
C371 C374 1.426 . S
C372 H355 0.930 . S
C372 N367 1.307 1_556 S
C372 C369 1.402 . S
N373 Gd336 2.601 . S
N373 C374 1.359 . S
N373 C377 1.334 . S
C374 C371 1.426 . S
C374 N373 1.359 . S
C374 C378 1.413 . S
C375 H366 0.930 . S
C375 C376 1.359 . S
C375 C377 1.394 . S
C376 C375 1.359 . S
C376 C378 1.391 . S
C376 H379 0.929 . S
C377 H359 0.930 . S
C377 N373 1.334 . S
C377 C375 1.394 . S
C378 C374 1.413 . S
C378 C376 1.391 . S
C378 C393 1.437 . S
H379 C376 0.929 . S
O380 Gd336 2.545 . S
O380 C395 1.258 . S
O381 Gd336 2.602 1_565 S
O381 Gd337 2.361 1_565 S
O381 C392 1.290 . S
O382 Gd337 2.331 . S
O382 C402 1.254 . S
O383 Gd336 2.429 . S
O383 C402 1.268 . S
O384 Gd336 2.545 1_565 S
O384 C392 1.250 . S
O385 Gd336 2.412 . S
O385 C395 1.252 . S
O386 Gd337 2.540 1_656 S
O386 C404 1.258 . S
O387 Gd336 2.362 . S
O387 Gd337 2.607 . S
O387 C403 1.284 . S
O388 Gd336 2.324 1_556 S
O388 C411 1.254 . S
O389 Gd337 2.423 1_556 S
O389 C411 1.268 . S
O390 Gd337 2.542 1_556 S
O390 C403 1.250 1_556 S
O391 Gd337 2.414 1_655 S
O391 C404 1.252 1_554 S
C392 O381 1.290 . S
C392 O384 1.250 . S
C393 H362 0.929 . S
C393 C378 1.437 . S
C393 C394 1.317 . S
C394 H365 0.930 . S
C394 C370 1.431 . S
C394 C393 1.317 . S
C395 Gd336 2.828 . S
C395 O380 1.258 . S
C395 O385 1.252 . S
C395 C396 1.497 . S
C396 C395 1.497 . S
C396 C397 1.395 . S
C396 C398 1.380 . S
C397 C396 1.395 . S
C397 C400 1.398 . S
C397 H412 0.930 . S
C398 C396 1.380 . S
C398 C399 1.391 . S
C398 H413 0.930 . S
C399 C398 1.391 . S
C399 C401 1.387 . S
C400 C397 1.398 . S
C400 C401 1.380 . S
C400 H414 0.930 . S
C401 C399 1.387 . S
C401 C400 1.380 . S
C401 H415 0.930 . S
C402 O382 1.254 . S
C402 O383 1.268 . S
C403 O387 1.284 . S
C403 O390 1.250 1_554 S
C404 Gd337 2.827 1_656 S
C404 O386 1.258 . S
C404 O391 1.252 1_556 S
C404 C405 1.497 . S
C405 C404 1.497 . S
C405 C406 1.395 . S
C405 C407 1.389 . S
C406 C405 1.395 . S
C406 C409 1.398 . S
C406 H416 0.930 1_545 S
C407 C405 1.389 . S
C407 C408 1.394 . S
C407 H417 0.919 1_556 S
C408 C407 1.394 . S
C408 C410 1.387 . S
C409 C406 1.398 . S
C409 C410 1.380 . S
C409 H418 0.929 1_545 S
C410 C408 1.387 . S
C410 C409 1.380 . S
C410 H419 0.930 . S
C411 O388 1.254 . S
C411 O389 1.268 . S
H412 C397 0.930 . S
H413 C398 0.930 . S
H414 C400 0.930 . S
H415 C401 0.930 . S
H416 C406 0.930 1_565 S
H417 C407 0.919 1_554 S
H418 C409 0.929 1_565 S
H419 C410 0.930 . S
Gd420 N451 2.661 . S
Gd420 N457 2.601 . S
Gd420 O464 2.545 . S
Gd420 O465 2.606 . S
Gd420 O467 2.429 . S
Gd420 O468 2.545 . S
Gd420 O469 2.412 . S
Gd420 O471 2.362 . S
Gd420 O472 2.324 . S
Gd420 C479 2.828 . S
Gd421 N430 2.661 . S
Gd421 N434 2.601 . S
Gd421 O465 2.362 . S
Gd421 O466 2.324 . S
Gd421 O470 2.545 . S
Gd421 O471 2.606 . S
Gd421 O473 2.429 . S
Gd421 O474 2.545 . S
Gd421 O475 2.412 . S
Gd421 C488 2.828 . S
C422 C425 1.417 . S
C422 C427 1.431 . S
C422 C428 1.412 . S
C423 C426 1.437 . S
C423 C427 1.317 . S
C423 H442 0.929 . S
C424 C425 1.426 . S
C424 C426 1.413 . S
C424 N434 1.359 . S
C425 C422 1.417 . S
C425 C424 1.426 . S
C425 N430 1.350 . S
C426 C423 1.437 . S
C426 C424 1.413 . S
C426 C436 1.391 . S
C427 C422 1.431 . S
C427 C423 1.317 . S
C427 H438 0.930 . S
C428 C422 1.412 . S
C428 C429 1.355 . S
C428 H440 0.930 . S
C429 C428 1.355 . S
C429 C431 1.402 . S
C429 H441 0.930 . S
N430 Gd421 2.661 . S
N430 C425 1.350 . S
N430 C431 1.307 . S
C431 C429 1.402 . S
C431 N430 1.307 . S
C431 H432 0.930 . S
H432 C431 0.930 . S
C433 N434 1.334 . S
C433 C435 1.394 . S
C433 H437 0.930 . S
N434 Gd421 2.601 . S
N434 C424 1.359 . S
N434 C433 1.334 . S
C435 C433 1.394 . S
C435 C436 1.359 . S
C435 H447 0.930 . S
C436 C426 1.391 . S
C436 C435 1.359 . S
C436 H448 0.929 . S
H437 C433 0.930 . S
H438 C427 0.930 . S
H439 C456 0.930 . S
H440 C428 0.930 . S
H441 C429 0.930 . S
H442 C423 0.929 . S
H443 C461 0.930 . S
H444 C452 0.930 . S
H445 C453 0.930 . S
H446 C477 0.929 . S
H447 C435 0.930 . S
H448 C436 0.929 . S
H449 C478 0.930 . S
H450 C459 0.930 . S
N451 Gd420 2.661 . S
N451 C455 1.350 . S
N451 C456 1.307 . S
C452 H444 0.930 . S
C452 C453 1.355 . S
C452 C454 1.412 . S
C453 H445 0.930 . S
C453 C452 1.355 . S
C453 C456 1.402 . S
C454 C452 1.412 . S
C454 C455 1.417 . S
C454 C478 1.431 . S
C455 N451 1.350 . S
C455 C454 1.417 . S
C455 C458 1.426 . S
C456 H439 0.930 . S
C456 N451 1.307 . S
C456 C453 1.402 . S
N457 Gd420 2.601 . S
N457 C458 1.359 . S
N457 C461 1.334 . S
C458 C455 1.426 . S
C458 N457 1.359 . S
C458 C462 1.413 . S
C459 H450 0.930 . S
C459 C460 1.359 . S
C459 C461 1.394 . S
C460 C459 1.359 . S
C460 C462 1.391 . S
C460 H463 0.929 . S
C461 H443 0.930 . S
C461 N457 1.334 . S
C461 C459 1.394 . S
C462 C458 1.413 . S
C462 C460 1.391 . S
C462 C477 1.437 . S
H463 C460 0.929 . S
O464 Gd420 2.545 . S
O464 C479 1.258 . S
O465 Gd420 2.606 . S
O465 Gd421 2.362 . S
O465 C476 1.284 . S
O466 Gd421 2.324 . S
O466 C486 1.254 . S
O467 Gd420 2.429 . S
O467 C486 1.268 . S
O468 Gd420 2.545 . S
O468 C476 1.250 . S
O469 Gd420 2.412 . S
O469 C479 1.252 . S
O470 Gd421 2.545 . S
O470 C488 1.258 . S
O471 Gd420 2.362 . S
O471 Gd421 2.606 . S
O471 C487 1.284 . S
O472 Gd420 2.324 . S
O472 C495 1.254 . S
O473 Gd421 2.429 . S
O473 C495 1.268 . S
O474 Gd421 2.545 . S
O474 C487 1.250 . S
O475 Gd421 2.412 . S
O475 C488 1.252 . S
C476 O465 1.284 . S
C476 O468 1.250 . S
C477 H446 0.929 . S
C477 C462 1.437 . S
C477 C478 1.317 . S
C478 H449 0.930 . S
C478 C454 1.431 . S
C478 C477 1.317 . S
C479 Gd420 2.828 . S
C479 O464 1.258 . S
C479 O469 1.252 . S
C479 C480 1.497 . S
C480 C479 1.497 . S
C480 C481 1.395 . S
C480 C482 1.380 . S
C481 C480 1.395 . S
C481 C484 1.398 . S
C481 H496 0.930 . S
C482 C480 1.380 . S
C482 C483 1.391 . S
C482 H497 0.930 . S
C483 C482 1.391 . S
C483 C485 1.387 . S
C484 C481 1.398 . S
C484 C485 1.380 . S
C484 H498 0.930 . S
C485 C483 1.387 . S
C485 C484 1.380 . S
C485 H499 0.930 . S
C486 O466 1.254 . S
C486 O467 1.268 . S
C487 O471 1.284 . S
C487 O474 1.250 . S
C488 Gd421 2.828 . S
C488 O470 1.258 . S
C488 O475 1.252 . S
C488 C489 1.497 . S
C489 C488 1.497 . S
C489 C490 1.395 . S
C489 C491 1.380 . S
C490 C489 1.395 . S
C490 C493 1.398 . S
C490 H500 0.930 . S
C491 C489 1.380 . S
C491 C492 1.391 . S
C491 H501 0.930 . S
C492 C491 1.391 . S
C492 C494 1.387 . S
C493 C490 1.398 . S
C493 C494 1.380 . S
C493 H502 0.930 . S
C494 C492 1.387 . S
C494 C493 1.380 . S
C494 H503 0.930 . S
C495 O472 1.254 . S
C495 O473 1.268 . S
H496 C481 0.930 . S
H497 C482 0.930 . S
H498 C484 0.930 . S
H499 C485 0.930 . S
H500 C490 0.930 . S
H501 C491 0.930 . S
H502 C493 0.930 . S
H503 C494 0.930 . S
Gd504 N535 2.661 1_545 S
Gd504 N541 2.601 1_545 S
Gd504 O548 2.545 . S
Gd504 O549 2.606 . S
Gd504 O551 2.429 . S
Gd504 O552 2.545 . S
Gd504 O553 2.412 . S
Gd504 O555 2.362 1_545 S
Gd504 O556 2.324 . S
Gd504 C563 2.828 . S
Gd505 N514 2.661 . S
Gd505 N518 2.601 . S
Gd505 O549 2.362 . S
Gd505 O550 2.324 . S
Gd505 O554 2.545 . S
Gd505 O555 2.606 1_545 S
Gd505 O557 2.429 . S
Gd505 O558 2.545 1_545 S
Gd505 O559 2.412 . S
Gd505 C572 2.828 . S
C506 C509 1.417 . S
C506 C511 1.431 . S
C506 C512 1.412 . S
C507 C510 1.437 . S
C507 C511 1.317 . S
C507 H526 0.929 . S
C508 C509 1.426 . S
C508 C510 1.413 . S
C508 N518 1.359 . S
C509 C506 1.417 . S
C509 C508 1.426 . S
C509 N514 1.350 . S
C510 C507 1.437 . S
C510 C508 1.413 . S
C510 C520 1.391 . S
C511 C506 1.431 . S
C511 C507 1.317 . S
C511 H522 0.930 . S
C512 C506 1.412 . S
C512 C513 1.355 . S
C512 H524 0.930 . S
C513 C512 1.355 . S
C513 C515 1.402 . S
C513 H525 0.930 . S
N514 Gd505 2.661 . S
N514 C509 1.350 . S
N514 C515 1.307 . S
C515 C513 1.402 . S
C515 N514 1.307 . S
C515 H516 0.930 . S
H516 C515 0.930 . S
C517 N518 1.334 . S
C517 C519 1.394 . S
C517 H521 0.930 . S
N518 Gd505 2.601 . S
N518 C508 1.359 . S
N518 C517 1.334 . S
C519 C517 1.394 . S
C519 C520 1.359 . S
C519 H531 0.930 . S
C520 C510 1.391 . S
C520 C519 1.359 . S
C520 H532 0.929 . S
H521 C517 0.930 . S
H522 C511 0.930 . S
H523 C540 0.930 . S
H524 C512 0.930 . S
H525 C513 0.930 . S
H526 C507 0.929 . S
H527 C545 0.930 . S
H528 C536 0.930 . S
H529 C537 0.930 . S
H530 C561 0.929 . S
H531 C519 0.930 . S
H532 C520 0.929 . S
H533 C562 0.930 . S
H534 C543 0.930 1_545 S
N535 Gd504 2.661 1_565 S
N535 C539 1.350 . S
N535 C540 1.307 . S
C536 H528 0.930 . S
C536 C537 1.355 . S
C536 C538 1.412 . S
C537 H529 0.930 . S
C537 C536 1.355 . S
C537 C540 1.402 . S
C538 C536 1.412 . S
C538 C539 1.417 . S
C538 C562 1.431 . S
C539 N535 1.350 . S
C539 C538 1.417 . S
C539 C542 1.426 . S
C540 H523 0.930 . S
C540 N535 1.307 . S
C540 C537 1.402 . S
N541 Gd504 2.601 1_565 S
N541 C542 1.359 . S
N541 C545 1.334 1_565 S
C542 C539 1.426 . S
C542 N541 1.359 . S
C542 C546 1.413 . S
C543 H534 0.930 1_565 S
C543 C544 1.359 . S
C543 C545 1.394 1_565 S
C544 C543 1.359 . S
C544 C546 1.391 . S
C544 H547 0.929 . S
C545 H527 0.930 . S
C545 N541 1.334 1_545 S
C545 C543 1.394 1_545 S
C546 C542 1.413 . S
C546 C544 1.391 . S
C546 C561 1.437 . S
H547 C544 0.929 . S
O548 Gd504 2.545 . S
O548 C563 1.258 . S
O549 Gd504 2.606 . S
O549 Gd505 2.362 . S
O549 C560 1.284 . S
O550 Gd505 2.324 . S
O550 C570 1.254 . S
O551 Gd504 2.429 . S
O551 C570 1.268 . S
O552 Gd504 2.545 . S
O552 C560 1.250 . S
O553 Gd504 2.412 . S
O553 C563 1.252 . S
O554 Gd505 2.545 . S
O554 C572 1.258 . S
O555 Gd504 2.362 1_565 S
O555 Gd505 2.606 1_565 S
O555 C571 1.284 . S
O556 Gd504 2.324 . S
O556 C579 1.254 . S
O557 Gd505 2.429 . S
O557 C579 1.268 . S
O558 Gd505 2.545 1_565 S
O558 C571 1.250 . S
O559 Gd505 2.412 . S
O559 C572 1.252 . S
C560 O549 1.284 . S
C560 O552 1.250 . S
C561 H530 0.929 . S
C561 C546 1.437 . S
C561 C562 1.317 . S
C562 H533 0.930 . S
C562 C538 1.431 . S
C562 C561 1.317 . S
C563 Gd504 2.828 . S
C563 O548 1.258 . S
C563 O553 1.252 . S
C563 C564 1.497 . S
C564 C563 1.497 . S
C564 C565 1.395 . S
C564 C566 1.380 . S
C565 C564 1.395 . S
C565 C568 1.398 . S
C565 H580 0.930 . S
C566 C564 1.380 . S
C566 C567 1.391 . S
C566 H581 0.930 . S
C567 C566 1.391 . S
C567 C569 1.387 . S
C568 C565 1.398 . S
C568 C569 1.380 . S
C568 H582 0.930 . S
C569 C567 1.387 . S
C569 C568 1.380 . S
C569 H583 0.930 . S
C570 O550 1.254 . S
C570 O551 1.268 . S
C571 O555 1.284 . S
C571 O558 1.250 . S
C572 Gd505 2.828 . S
C572 O554 1.258 . S
C572 O559 1.252 . S
C572 C573 1.497 1_545 S
C573 C572 1.497 1_565 S
C573 C574 1.395 . S
C573 C575 1.380 . S
C574 C573 1.395 . S
C574 C577 1.398 . S
C574 H584 0.930 . S
C575 C573 1.380 . S
C575 C576 1.391 . S
C575 H585 0.930 . S
C576 C575 1.391 . S
C576 C578 1.387 . S
C577 C574 1.398 . S
C577 C578 1.380 . S
C577 H586 0.930 . S
C578 C576 1.387 . S
C578 C577 1.380 . S
C578 H587 0.930 . S
C579 O556 1.254 . S
C579 O557 1.268 . S
H580 C565 0.930 . S
H581 C566 0.930 . S
H582 C568 0.930 . S
H583 C569 0.930 . S
H584 C574 0.930 . S
H585 C575 0.930 . S
H586 C577 0.930 . S
H587 C578 0.930 . S
Gd588 N619 2.661 . S
Gd588 N625 2.601 . S
Gd588 O632 2.545 . S
Gd588 O633 2.606 . S
Gd588 O635 2.429 . S
Gd588 O636 2.545 . S
Gd588 O637 2.412 . S
Gd588 O639 2.362 . S
Gd588 O640 2.324 . S
Gd588 C647 2.828 . S
Gd589 N598 2.661 . S
Gd589 N602 2.601 . S
Gd589 O633 2.362 . S
Gd589 O634 2.324 . S
Gd589 O638 2.545 . S
Gd589 O639 2.606 . S
Gd589 O641 2.429 . S
Gd589 O642 2.545 . S
Gd589 O643 2.412 . S
Gd589 C656 2.828 . S
C590 C593 1.417 . S
C590 C595 1.431 . S
C590 C596 1.412 . S
C591 C594 1.437 . S
C591 C595 1.317 . S
C591 H610 0.929 . S
C592 C593 1.426 . S
C592 C594 1.413 . S
C592 N602 1.359 . S
C593 C590 1.417 . S
C593 C592 1.426 . S
C593 N598 1.350 . S
C594 C591 1.437 . S
C594 C592 1.413 . S
C594 C604 1.391 . S
C595 C590 1.431 . S
C595 C591 1.317 . S
C595 H606 0.930 . S
C596 C590 1.412 . S
C596 C597 1.355 . S
C596 H608 0.930 . S
C597 C596 1.355 . S
C597 C599 1.402 . S
C597 H609 0.930 . S
N598 Gd589 2.661 . S
N598 C593 1.350 . S
N598 C599 1.307 . S
C599 C597 1.402 . S
C599 N598 1.307 . S
C599 H600 0.930 . S
H600 C599 0.930 . S
C601 N602 1.334 . S
C601 C603 1.394 . S
C601 H605 0.930 . S
N602 Gd589 2.601 . S
N602 C592 1.359 . S
N602 C601 1.334 . S
C603 C601 1.394 . S
C603 C604 1.359 . S
C603 H615 0.930 . S
C604 C594 1.391 . S
C604 C603 1.359 . S
C604 H616 0.929 . S
H605 C601 0.930 . S
H606 C595 0.930 . S
H607 C624 0.930 . S
H608 C596 0.930 . S
H609 C597 0.930 . S
H610 C591 0.929 . S
H611 C629 0.930 . S
H612 C620 0.930 . S
H613 C621 0.930 . S
H614 C645 0.929 . S
H615 C603 0.930 . S
H616 C604 0.929 . S
H617 C646 0.930 . S
H618 C627 0.930 . S
N619 Gd588 2.661 . S
N619 C623 1.350 . S
N619 C624 1.307 . S
C620 H612 0.930 . S
C620 C621 1.355 . S
C620 C622 1.412 . S
C621 H613 0.930 . S
C621 C620 1.355 . S
C621 C624 1.402 . S
C622 C620 1.412 . S
C622 C623 1.417 . S
C622 C646 1.431 . S
C623 N619 1.350 . S
C623 C622 1.417 . S
C623 C626 1.426 . S
C624 H607 0.930 . S
C624 N619 1.307 . S
C624 C621 1.402 . S
N625 Gd588 2.601 . S
N625 C626 1.359 . S
N625 C629 1.334 . S
C626 C623 1.426 . S
C626 N625 1.359 . S
C626 C630 1.413 . S
C627 H618 0.930 . S
C627 C628 1.359 . S
C627 C629 1.394 . S
C628 C627 1.359 . S
C628 C630 1.391 . S
C628 H631 0.929 . S
C629 H611 0.930 . S
C629 N625 1.334 . S
C629 C627 1.394 . S
C630 C626 1.413 . S
C630 C628 1.391 . S
C630 C645 1.437 . S
H631 C628 0.929 . S
O632 Gd588 2.545 . S
O632 C647 1.258 . S
O633 Gd588 2.606 . S
O633 Gd589 2.362 . S
O633 C644 1.284 . S
O634 Gd589 2.324 . S
O634 C654 1.254 . S
O635 Gd588 2.429 . S
O635 C654 1.268 . S
O636 Gd588 2.545 . S
O636 C644 1.250 . S
O637 Gd588 2.412 . S
O637 C647 1.252 . S
O638 Gd589 2.545 . S
O638 C656 1.258 . S
O639 Gd588 2.362 . S
O639 Gd589 2.606 . S
O639 C655 1.284 . S
O640 Gd588 2.324 . S
O640 C663 1.254 . S
O641 Gd589 2.429 . S
O641 C663 1.268 . S
O642 Gd589 2.545 . S
O642 C655 1.250 . S
O643 Gd589 2.412 . S
O643 C656 1.252 . S
C644 O633 1.284 . S
C644 O636 1.250 . S
C645 H614 0.929 . S
C645 C630 1.437 . S
C645 C646 1.317 . S
C646 H617 0.930 . S
C646 C622 1.431 . S
C646 C645 1.317 . S
C647 Gd588 2.828 . S
C647 O632 1.258 . S
C647 O637 1.252 . S
C647 C648 1.497 . S
C648 C647 1.497 . S
C648 C649 1.395 . S
C648 C650 1.380 . S
C649 C648 1.395 . S
C649 C652 1.398 . S
C649 H664 0.930 . S
C650 C648 1.380 . S
C650 C651 1.391 . S
C650 H665 0.930 . S
C651 C650 1.391 . S
C651 C653 1.387 . S
C652 C649 1.398 . S
C652 C653 1.380 . S
C652 H666 0.930 . S
C653 C651 1.387 . S
C653 C652 1.380 . S
C653 H667 0.930 . S
C654 O634 1.254 . S
C654 O635 1.268 . S
C655 O639 1.284 . S
C655 O642 1.250 . S
C656 Gd589 2.828 . S
C656 O638 1.258 . S
C656 O643 1.252 . S
C656 C657 1.497 . S
C657 C656 1.497 . S
C657 C658 1.395 . S
C657 C659 1.380 . S
C658 C657 1.395 . S
C658 C661 1.398 . S
C658 H668 0.930 . S
C659 C657 1.380 . S
C659 C660 1.391 . S
C659 H669 0.930 . S
C660 C659 1.391 . S
C660 C662 1.387 . S
C661 C658 1.398 . S
C661 C662 1.380 . S
C661 H670 0.930 . S
C662 C660 1.387 . S
C662 C661 1.380 . S
C662 H671 0.930 . S
C663 O640 1.254 . S
C663 O641 1.268 . S
H664 C649 0.930 . S
H665 C650 0.930 . S
H666 C652 0.930 . S
H667 C653 0.930 . S
H668 C658 0.930 . S
H669 C659 0.930 . S
H670 C661 0.930 . S
H671 C662 0.930 . S
Gd672 N703 2.661 . S
Gd672 N709 2.601 . S
Gd672 O716 2.545 . S
Gd672 O717 2.606 1_565 S
Gd672 O719 2.429 1_565 S
Gd672 O720 2.545 . S
Gd672 O721 2.412 . S
Gd672 O723 2.362 1_565 S
Gd672 O724 2.324 . S
Gd672 C731 2.828 . S
Gd673 N682 2.661 . S
Gd673 N686 2.601 . S
Gd673 O717 2.362 . S
Gd673 O718 2.324 . S
Gd673 O722 2.545 . S
Gd673 O723 2.606 . S
Gd673 O725 2.429 . S
Gd673 O726 2.545 . S
Gd673 O727 2.412 . S
Gd673 C740 2.828 . S
C674 C677 1.417 . S
C674 C679 1.431 . S
C674 C680 1.412 . S
C675 C678 1.437 . S
C675 C679 1.317 . S
C675 H694 0.929 . S
C676 C677 1.426 . S
C676 C678 1.413 . S
C676 N686 1.359 . S
C677 C674 1.417 . S
C677 C676 1.426 . S
C677 N682 1.350 . S
C678 C675 1.437 . S
C678 C676 1.413 . S
C678 C688 1.391 . S
C679 C674 1.431 . S
C679 C675 1.317 . S
C679 H690 0.930 . S
C680 C674 1.412 . S
C680 C681 1.355 . S
C680 H692 0.930 . S
C681 C680 1.355 . S
C681 C683 1.402 . S
C681 H693 0.930 . S
N682 Gd673 2.661 . S
N682 C677 1.350 . S
N682 C683 1.307 . S
C683 C681 1.402 . S
C683 N682 1.307 . S
C683 H684 0.930 . S
H684 C683 0.930 . S
C685 N686 1.334 . S
C685 C687 1.394 . S
C685 H689 0.930 . S
N686 Gd673 2.601 . S
N686 C676 1.359 . S
N686 C685 1.334 . S
C687 C685 1.394 . S
C687 C688 1.359 . S
C687 H699 0.930 1_455 S
C688 C678 1.391 . S
C688 C687 1.359 . S
C688 H700 0.929 . S
H689 C685 0.930 . S
H690 C679 0.930 . S
H691 C708 0.930 . S
H692 C680 0.930 . S
H693 C681 0.930 . S
H694 C675 0.929 . S
H695 C713 0.930 . S
H696 C704 0.930 1_655 S
H697 C705 0.930 . S
H698 C729 0.929 . S
H699 C687 0.930 1_655 S
H700 C688 0.929 . S
H701 C730 0.930 . S
H702 C711 0.930 . S
N703 Gd672 2.661 . S
N703 C707 1.350 . S
N703 C708 1.307 . S
C704 H696 0.930 1_455 S
C704 C705 1.355 1_455 S
C704 C706 1.412 . S
C705 H697 0.930 . S
C705 C704 1.355 1_655 S
C705 C708 1.402 1_655 S
C706 C704 1.412 . S
C706 C707 1.417 . S
C706 C730 1.431 . S
C707 N703 1.350 . S
C707 C706 1.417 . S
C707 C710 1.426 . S
C708 H691 0.930 . S
C708 N703 1.307 . S
C708 C705 1.402 1_455 S
N709 Gd672 2.601 . S
N709 C710 1.359 . S
N709 C713 1.334 . S
C710 C707 1.426 . S
C710 N709 1.359 . S
C710 C714 1.413 . S
C711 H702 0.930 . S
C711 C712 1.359 . S
C711 C713 1.394 . S
C712 C711 1.359 . S
C712 C714 1.391 . S
C712 H715 0.929 . S
C713 H695 0.930 . S
C713 N709 1.334 . S
C713 C711 1.394 . S
C714 C710 1.413 . S
C714 C712 1.391 . S
C714 C729 1.437 . S
H715 C712 0.929 . S
O716 Gd672 2.545 . S
O716 C731 1.258 . S
O717 Gd672 2.606 1_545 S
O717 Gd673 2.362 . S
O717 C728 1.284 . S
O718 Gd673 2.324 . S
O718 C738 1.254 . S
O719 Gd672 2.429 1_545 S
O719 C738 1.268 . S
O720 Gd672 2.545 . S
O720 C728 1.250 1_565 S
O721 Gd672 2.412 . S
O721 C731 1.252 . S
O722 Gd673 2.545 . S
O722 C740 1.258 . S
O723 Gd672 2.362 1_545 S
O723 Gd673 2.606 . S
O723 C739 1.284 . S
O724 Gd672 2.324 . S
O724 C747 1.254 1_565 S
O725 Gd673 2.429 . S
O725 C747 1.268 . S
O726 Gd673 2.545 . S
O726 C739 1.250 . S
O727 Gd673 2.412 . S
O727 C740 1.252 . S
C728 O717 1.284 . S
C728 O720 1.250 1_545 S
C729 H698 0.929 . S
C729 C714 1.437 . S
C729 C730 1.317 . S
C730 H701 0.930 . S
C730 C706 1.431 . S
C730 C729 1.317 . S
C731 Gd672 2.828 . S
C731 O716 1.258 . S
C731 O721 1.252 . S
C731 C732 1.497 . S
C732 C731 1.497 . S
C732 C733 1.395 . S
C732 C734 1.380 . S
C733 C732 1.395 . S
C733 C736 1.398 . S
C733 H748 0.930 . S
C734 C732 1.380 . S
C734 C735 1.391 . S
C734 H749 0.930 . S
C735 C734 1.391 . S
C735 C737 1.387 . S
C736 C733 1.398 . S
C736 C737 1.380 . S
C736 H750 0.930 . S
C737 C735 1.387 . S
C737 C736 1.380 . S
C737 H751 0.930 . S
C738 O718 1.254 . S
C738 O719 1.268 . S
C739 O723 1.284 . S
C739 O726 1.250 . S
C740 Gd673 2.828 . S
C740 O722 1.258 . S
C740 O727 1.252 . S
C740 C741 1.497 . S
C741 C740 1.497 . S
C741 C742 1.395 . S
C741 C743 1.380 . S
C742 C741 1.395 . S
C742 C745 1.398 . S
C742 H752 0.930 . S
C743 C741 1.380 . S
C743 C744 1.391 . S
C743 H753 0.930 . S
C744 C743 1.391 . S
C744 C746 1.387 . S
C745 C742 1.398 . S
C745 C746 1.380 . S
C745 H754 0.930 . S
C746 C744 1.387 . S
C746 C745 1.380 . S
C746 H755 0.930 . S
C747 O724 1.254 1_545 S
C747 O725 1.268 . S
H748 C733 0.930 . S
H749 C734 0.930 . S
H750 C736 0.930 . S
H751 C737 0.930 . S
H752 C742 0.930 . S
H753 C743 0.930 . S
H754 C745 0.930 . S
H755 C746 0.930 . S
Gd756 N787 2.661 . S
Gd756 N793 2.601 . S
Gd756 O800 2.545 . S
Gd756 O801 2.606 . S
Gd756 O803 2.429 . S
Gd756 O804 2.545 . S
Gd756 O805 2.412 . S
Gd756 O807 2.362 . S
Gd756 O808 2.324 . S
Gd756 C815 2.828 . S
Gd757 N766 2.661 . S
Gd757 N770 2.601 . S
Gd757 O801 2.362 . S
Gd757 O802 2.324 . S
Gd757 O806 2.545 . S
Gd757 O807 2.606 . S
Gd757 O809 2.429 . S
Gd757 O810 2.545 . S
Gd757 O811 2.412 . S
Gd757 C824 2.828 . S
C758 C761 1.417 . S
C758 C763 1.431 . S
C758 C764 1.412 . S
C759 C762 1.437 . S
C759 C763 1.317 . S
C759 H778 0.929 . S
C760 C761 1.426 . S
C760 C762 1.413 . S
C760 N770 1.359 . S
C761 C758 1.417 . S
C761 C760 1.426 . S
C761 N766 1.350 . S
C762 C759 1.437 . S
C762 C760 1.413 . S
C762 C772 1.391 . S
C763 C758 1.431 . S
C763 C759 1.317 . S
C763 H774 0.930 . S
C764 C758 1.412 . S
C764 C765 1.355 . S
C764 H776 0.930 . S
C765 C764 1.355 . S
C765 C767 1.402 . S
C765 H777 0.930 . S
N766 Gd757 2.661 . S
N766 C761 1.350 . S
N766 C767 1.307 . S
C767 C765 1.402 . S
C767 N766 1.307 . S
C767 H768 0.930 . S
H768 C767 0.930 . S
C769 N770 1.334 . S
C769 C771 1.394 . S
C769 H773 0.930 . S
N770 Gd757 2.601 . S
N770 C760 1.359 . S
N770 C769 1.334 . S
C771 C769 1.394 . S
C771 C772 1.359 . S
C771 H783 0.930 . S
C772 C762 1.391 . S
C772 C771 1.359 . S
C772 H784 0.929 . S
H773 C769 0.930 . S
H774 C763 0.930 . S
H775 C792 0.930 . S
H776 C764 0.930 . S
H777 C765 0.930 . S
H778 C759 0.929 . S
H779 C797 0.930 . S
H780 C788 0.930 . S
H781 C789 0.930 . S
H782 C813 0.929 . S
H783 C771 0.930 . S
H784 C772 0.929 . S
H785 C814 0.930 . S
H786 C795 0.930 . S
N787 Gd756 2.661 . S
N787 C791 1.350 . S
N787 C792 1.307 . S
C788 H780 0.930 . S
C788 C789 1.355 . S
C788 C790 1.412 . S
C789 H781 0.930 . S
C789 C788 1.355 . S
C789 C792 1.402 . S
C790 C788 1.412 . S
C790 C791 1.417 . S
C790 C814 1.431 . S
C791 N787 1.350 . S
C791 C790 1.417 . S
C791 C794 1.426 . S
C792 H775 0.930 . S
C792 N787 1.307 . S
C792 C789 1.402 . S
N793 Gd756 2.601 . S
N793 C794 1.359 . S
N793 C797 1.334 . S
C794 C791 1.426 . S
C794 N793 1.359 . S
C794 C798 1.413 . S
C795 H786 0.930 . S
C795 C796 1.359 . S
C795 C797 1.394 . S
C796 C795 1.359 . S
C796 C798 1.391 . S
C796 H799 0.929 . S
C797 H779 0.930 . S
C797 N793 1.334 . S
C797 C795 1.394 . S
C798 C794 1.413 . S
C798 C796 1.391 . S
C798 C813 1.437 . S
H799 C796 0.929 . S
O800 Gd756 2.545 . S
O800 C815 1.258 . S
O801 Gd756 2.606 . S
O801 Gd757 2.362 . S
O801 C812 1.284 . S
O802 Gd757 2.324 . S
O802 C822 1.254 . S
O803 Gd756 2.429 . S
O803 C822 1.268 . S
O804 Gd756 2.545 . S
O804 C812 1.250 . S
O805 Gd756 2.412 . S
O805 C815 1.252 . S
O806 Gd757 2.545 . S
O806 C824 1.258 . S
O807 Gd756 2.362 . S
O807 Gd757 2.606 . S
O807 C823 1.284 . S
O808 Gd756 2.324 . S
O808 C831 1.254 . S
O809 Gd757 2.429 . S
O809 C831 1.268 . S
O810 Gd757 2.545 . S
O810 C823 1.250 . S
O811 Gd757 2.412 . S
O811 C824 1.252 . S
C812 O801 1.284 . S
C812 O804 1.250 . S
C813 H782 0.929 . S
C813 C798 1.437 . S
C813 C814 1.317 . S
C814 H785 0.930 . S
C814 C790 1.431 . S
C814 C813 1.317 . S
C815 Gd756 2.828 . S
C815 O800 1.258 . S
C815 O805 1.252 . S
C815 C816 1.497 . S
C816 C815 1.497 . S
C816 C817 1.395 . S
C816 C818 1.380 . S
C817 C816 1.395 . S
C817 C820 1.398 . S
C817 H832 0.930 . S
C818 C816 1.380 . S
C818 C819 1.391 . S
C818 H833 0.930 . S
C819 C818 1.391 . S
C819 C821 1.387 . S
C820 C817 1.398 . S
C820 C821 1.380 . S
C820 H834 0.930 . S
C821 C819 1.387 . S
C821 C820 1.380 . S
C821 H835 0.930 . S
C822 O802 1.254 . S
C822 O803 1.268 . S
C823 O807 1.284 . S
C823 O810 1.250 . S
C824 Gd757 2.828 . S
C824 O806 1.258 . S
C824 O811 1.252 . S
C824 C825 1.497 . S
C825 C824 1.497 . S
C825 C826 1.395 . S
C825 C827 1.380 . S
C826 C825 1.395 . S
C826 C829 1.398 . S
C826 H836 0.930 . S
C827 C825 1.380 . S
C827 C828 1.391 . S
C827 H837 0.930 . S
C828 C827 1.391 . S
C828 C830 1.387 . S
C829 C826 1.398 . S
C829 C830 1.380 . S
C829 H838 0.930 . S
C830 C828 1.387 . S
C830 C829 1.380 . S
C830 H839 0.930 . S
C831 O808 1.254 . S
C831 O809 1.268 . S
H832 C817 0.930 . S
H833 C818 0.930 . S
H834 C820 0.930 . S
H835 C821 0.930 . S
H836 C826 0.930 . S
H837 C827 0.930 . S
H838 C829 0.930 . S
H839 C830 0.930 . S
Gd840 N871 2.661 . S
Gd840 N877 2.601 . S
Gd840 O884 2.545 . S
Gd840 O885 2.606 1_556 S
Gd840 O887 2.429 1_556 S
Gd840 O888 2.545 . S
Gd840 O889 2.412 . S
Gd840 O891 2.362 1_556 S
Gd840 O892 2.299 1_545 S
Gd840 C899 2.828 . S
Gd841 N850 2.661 . S
Gd841 N854 2.601 1_545 S
Gd841 O885 2.362 . S
Gd841 O886 2.324 . S
Gd841 O890 2.545 1_545 S
Gd841 O891 2.606 . S
Gd841 O893 2.429 1_545 S
Gd841 O894 2.545 1_545 S
Gd841 O895 2.412 . S
Gd841 C908 2.830 . S
C842 C845 1.417 . S
C842 C847 1.431 . S
C842 C848 1.412 . S
C843 C846 1.437 . S
C843 C847 1.317 . S
C843 H862 0.929 . S
C844 C845 1.426 . S
C844 C846 1.413 . S
C844 N854 1.359 1_545 S
C845 C842 1.417 . S
C845 C844 1.426 . S
C845 N850 1.350 . S
C846 C843 1.437 . S
C846 C844 1.413 . S
C846 C856 1.391 1_545 S
C847 C842 1.431 . S
C847 C843 1.317 . S
C847 H858 0.930 . S
C848 C842 1.412 . S
C848 C849 1.355 . S
C848 H860 0.930 . S
C849 C848 1.355 . S
C849 C851 1.402 . S
C849 H861 0.930 . S
N850 Gd841 2.661 . S
N850 C845 1.350 . S
N850 C851 1.307 . S
C851 C849 1.402 . S
C851 N850 1.307 . S
C851 H852 0.930 . S
H852 C851 0.930 . S
C853 N854 1.334 . S
C853 C855 1.394 . S
C853 H857 0.930 . S
N854 Gd841 2.601 1_565 S
N854 C844 1.359 1_565 S
N854 C853 1.334 . S
C855 C853 1.394 . S
C855 C856 1.359 . S
C855 H867 0.930 . S
C856 C846 1.391 1_565 S
C856 C855 1.359 . S
C856 H868 0.929 . S
H857 C853 0.930 . S
H858 C847 0.930 . S
H859 C876 0.930 . S
H860 C848 0.930 . S
H861 C849 0.930 . S
H862 C843 0.929 . S
H863 C881 0.930 . S
H864 C872 0.930 . S
H865 C873 0.930 . S
H866 C897 0.929 . S
H867 C855 0.930 . S
H868 C856 0.929 . S
H869 C898 0.930 1_565 S
H870 C879 0.930 . S
N871 Gd840 2.661 . S
N871 C875 1.350 . S
N871 C876 1.307 1_545 S
C872 H864 0.930 . S
C872 C873 1.355 . S
C872 C874 1.412 . S
C873 H865 0.930 . S
C873 C872 1.355 . S
C873 C876 1.402 . S
C874 C872 1.412 . S
C874 C875 1.417 1_565 S
C874 C898 1.431 1_565 S
C875 N871 1.350 . S
C875 C874 1.417 1_545 S
C875 C878 1.426 . S
C876 H859 0.930 . S
C876 N871 1.307 1_565 S
C876 C873 1.402 . S
N877 Gd840 2.601 . S
N877 C878 1.359 . S
N877 C881 1.334 . S
C878 C875 1.426 . S
C878 N877 1.359 . S
C878 C882 1.413 . S
C879 H870 0.930 . S
C879 C880 1.359 . S
C879 C881 1.394 . S
C880 C879 1.359 . S
C880 C882 1.391 . S
C880 H883 0.929 . S
C881 H863 0.930 . S
C881 N877 1.334 . S
C881 C879 1.394 . S
C882 C878 1.413 . S
C882 C880 1.391 . S
C882 C897 1.437 . S
H883 C880 0.929 . S
O884 Gd840 2.545 . S
O884 C899 1.258 . S
O885 Gd840 2.606 1_554 S
O885 Gd841 2.362 . S
O885 C896 1.284 . S
O886 Gd841 2.324 . S
O886 C906 1.254 . S
O887 Gd840 2.429 1_554 S
O887 C906 1.268 . S
O888 Gd840 2.545 . S
O888 C896 1.250 1_556 S
O889 Gd840 2.412 . S
O889 C899 1.252 . S
O890 Gd841 2.545 1_565 S
O890 C908 1.255 1_565 S
O891 Gd840 2.362 1_554 S
O891 Gd841 2.606 . S
O891 C907 1.284 . S
O892 Gd840 2.299 1_565 S
O892 C915 1.275 . S
O893 Gd841 2.429 1_565 S
O893 C915 1.268 1_554 S
O894 Gd841 2.545 1_565 S
O894 C907 1.250 1_565 S
O895 Gd841 2.412 . S
O895 C908 1.256 . S
C896 O885 1.284 . S
C896 O888 1.250 1_554 S
C897 H866 0.929 . S
C897 C882 1.437 . S
C897 C898 1.317 . S
C898 H869 0.930 1_545 S
C898 C874 1.431 1_545 S
C898 C897 1.317 . S
C899 Gd840 2.828 . S
C899 O884 1.258 . S
C899 O889 1.252 . S
C899 C900 1.497 . S
C900 C899 1.497 . S
C900 C901 1.395 . S
C900 C902 1.380 . S
C901 C900 1.395 . S
C901 C904 1.398 . S
C901 H916 0.930 . S
C902 C900 1.380 . S
C902 C903 1.391 . S
C902 H917 0.930 . S
C903 C902 1.391 . S
C903 C905 1.387 . S
C904 C901 1.398 . S
C904 C905 1.380 . S
C904 H918 0.930 . S
C905 C903 1.387 . S
C905 C904 1.380 . S
C905 H919 0.930 . S
C906 O886 1.254 . S
C906 O887 1.268 . S
C907 O891 1.284 . S
C907 O894 1.250 1_545 S
C908 Gd841 2.830 . S
C908 O890 1.255 1_545 S
C908 O895 1.256 . S
C908 C909 1.495 1_545 S
C909 C908 1.495 1_565 S
C909 C910 1.395 . S
C909 C911 1.380 1_565 S
C910 C909 1.395 . S
C910 C913 1.398 . S
C910 H920 0.930 . S
C911 C909 1.380 1_545 S
C911 C912 1.391 1_545 S
C911 H921 0.930 . S
C912 C911 1.391 1_565 S
C912 C914 1.387 . S
C913 C910 1.398 . S
C913 C914 1.380 . S
C913 H922 0.930 . S
C914 C912 1.387 . S
C914 C913 1.380 . S
C914 H923 0.930 . S
C915 O892 1.275 . S
C915 O893 1.268 1_556 S
H916 C901 0.930 . S
H917 C902 0.930 . S
H918 C904 0.930 . S
H919 C905 0.930 . S
H920 C910 0.930 . S
H921 C911 0.930 . S
H922 C913 0.930 . S
H923 C914 0.930 . S
Gd924 N955 2.661 . S
Gd924 N961 2.601 . S
Gd924 O968 2.545 . S
Gd924 O969 2.606 . S
Gd924 O971 2.429 . S
Gd924 O972 2.545 . S
Gd924 O973 2.412 . S
Gd924 O975 2.362 . S
Gd924 O976 2.324 . S
Gd924 C983 2.828 . S
Gd925 N934 2.661 . S
Gd925 N938 2.601 . S
Gd925 O969 2.362 . S
Gd925 O970 2.324 . S
Gd925 O974 2.545 . S
Gd925 O975 2.606 . S
Gd925 O977 2.429 . S
Gd925 O978 2.545 . S
Gd925 O979 2.412 . S
Gd925 C992 2.828 . S
C926 C929 1.417 . S
C926 C931 1.431 . S
C926 C932 1.412 . S
C927 C930 1.437 . S
C927 C931 1.317 . S
C927 H946 0.929 . S
C928 C929 1.426 . S
C928 C930 1.413 . S
C928 N938 1.359 . S
C929 C926 1.417 . S
C929 C928 1.426 . S
C929 N934 1.350 . S
C930 C927 1.437 . S
C930 C928 1.413 . S
C930 C940 1.391 . S
C931 C926 1.431 . S
C931 C927 1.317 . S
C931 H942 0.930 . S
C932 C926 1.412 . S
C932 C933 1.355 . S
C932 H944 0.930 . S
C933 C932 1.355 . S
C933 C935 1.402 . S
C933 H945 0.930 . S
N934 Gd925 2.661 . S
N934 C929 1.350 . S
N934 C935 1.307 . S
C935 C933 1.402 . S
C935 N934 1.307 . S
C935 H936 0.930 . S
H936 C935 0.930 . S
C937 N938 1.334 . S
C937 C939 1.394 . S
C937 H941 0.930 . S
N938 Gd925 2.601 . S
N938 C928 1.359 . S
N938 C937 1.334 . S
C939 C937 1.394 . S
C939 C940 1.359 . S
C939 H951 0.930 . S
C940 C930 1.391 . S
C940 C939 1.359 . S
C940 H952 0.929 . S
H941 C937 0.930 . S
H942 C931 0.930 . S
H943 C960 0.930 . S
H944 C932 0.930 . S
H945 C933 0.930 . S
H946 C927 0.929 . S
H947 C965 0.930 . S
H948 C956 0.930 . S
H949 C957 0.930 . S
H950 C981 0.929 . S
H951 C939 0.930 . S
H952 C940 0.929 . S
H953 C982 0.930 . S
H954 C963 0.930 . S
N955 Gd924 2.661 . S
N955 C959 1.350 . S
N955 C960 1.307 . S
C956 H948 0.930 . S
C956 C957 1.355 . S
C956 C958 1.412 . S
C957 H949 0.930 . S
C957 C956 1.355 . S
C957 C960 1.402 . S
C958 C956 1.412 . S
C958 C959 1.417 . S
C958 C982 1.431 . S
C959 N955 1.350 . S
C959 C958 1.417 . S
C959 C962 1.426 . S
C960 H943 0.930 . S
C960 N955 1.307 . S
C960 C957 1.402 . S
N961 Gd924 2.601 . S
N961 C962 1.359 . S
N961 C965 1.334 . S
C962 C959 1.426 . S
C962 N961 1.359 . S
C962 C966 1.413 . S
C963 H954 0.930 . S
C963 C964 1.359 . S
C963 C965 1.394 . S
C964 C963 1.359 . S
C964 C966 1.391 . S
C964 H967 0.929 . S
C965 H947 0.930 . S
C965 N961 1.334 . S
C965 C963 1.394 . S
C966 C962 1.413 . S
C966 C964 1.391 . S
C966 C981 1.437 . S
H967 C964 0.929 . S
O968 Gd924 2.545 . S
O968 C983 1.258 . S
O969 Gd924 2.606 . S
O969 Gd925 2.362 . S
O969 C980 1.284 . S
O970 Gd925 2.324 . S
O970 C990 1.254 . S
O971 Gd924 2.429 . S
O971 C990 1.268 . S
O972 Gd924 2.545 . S
O972 C980 1.250 . S
O973 Gd924 2.412 . S
O973 C983 1.252 . S
O974 Gd925 2.545 . S
O974 C992 1.258 . S
O975 Gd924 2.362 . S
O975 Gd925 2.606 . S
O975 C991 1.284 . S
O976 Gd924 2.324 . S
O976 C999 1.254 . S
O977 Gd925 2.429 . S
O977 C999 1.268 . S
O978 Gd925 2.545 . S
O978 C991 1.250 . S
O979 Gd925 2.412 . S
O979 C992 1.252 . S
C980 O969 1.284 . S
C980 O972 1.250 . S
C981 H950 0.929 . S
C981 C966 1.437 . S
C981 C982 1.317 . S
C982 H953 0.930 . S
C982 C958 1.431 . S
C982 C981 1.317 . S
C983 Gd924 2.828 . S
C983 O968 1.258 . S
C983 O973 1.252 . S
C983 C984 1.497 . S
C984 C983 1.497 . S
C984 C985 1.395 . S
C984 C986 1.380 . S
C985 C984 1.395 . S
C985 C988 1.398 . S
C985 H1000 0.930 . S
C986 C984 1.380 . S
C986 C987 1.391 . S
C986 H1001 0.930 . S
C987 C986 1.391 . S
C987 C989 1.387 . S
C988 C985 1.398 . S
C988 C989 1.380 . S
C988 H1002 0.930 . S
C989 C987 1.387 . S
C989 C988 1.380 . S
C989 H1003 0.930 . S
C990 O970 1.254 . S
C990 O971 1.268 . S
C991 O975 1.284 . S
C991 O978 1.250 . S
C992 Gd925 2.828 . S
C992 O974 1.258 . S
C992 O979 1.252 . S
C992 C993 1.497 . S
C993 C992 1.497 . S
C993 C994 1.395 . S
C993 C995 1.380 . S
C994 C993 1.395 . S
C994 C997 1.398 . S
C994 H1004 0.930 . S
C995 C993 1.380 . S
C995 C996 1.391 . S
C995 H1005 0.930 . S
C996 C995 1.391 . S
C996 C998 1.387 . S
C997 C994 1.398 . S
C997 C998 1.380 . S
C997 H1006 0.930 . S
C998 C996 1.387 . S
C998 C997 1.380 . S
C998 H1007 0.930 . S
C999 O976 1.254 . S
C999 O977 1.268 . S
H1000 C985 0.930 . S
H1001 C986 0.930 . S
H1002 C988 0.930 . S
H1003 C989 0.930 . S
H1004 C994 0.930 . S
H1005 C995 0.930 . S
H1006 C997 0.930 . S
H1007 C998 0.930 . S
Gd1008 N1039 2.661 1_554 S
Gd1008 N1045 2.601 1_554 S
Gd1008 O1052 2.545 . S
Gd1008 O1053 2.606 . S
Gd1008 O1055 2.429 . S
Gd1008 O1056 2.545 . S
Gd1008 O1057 2.412 . S
Gd1008 O1059 2.362 1_554 S
Gd1008 O1060 2.324 . S
Gd1008 C1067 2.828 . S
Gd1009 N1018 2.661 . S
Gd1009 N1022 2.601 . S
Gd1009 O1053 2.362 . S
Gd1009 O1054 2.324 . S
Gd1009 O1058 2.545 . S
Gd1009 O1059 2.606 1_554 S
Gd1009 O1061 2.429 . S
Gd1009 O1062 2.545 1_554 S
Gd1009 O1063 2.412 . S
Gd1009 C1076 2.828 . S
C1010 C1013 1.417 . S
C1010 C1015 1.431 . S
C1010 C1016 1.412 . S
C1011 C1014 1.437 . S
C1011 C1015 1.317 . S
C1011 H1030 0.929 . S
C1012 C1013 1.426 . S
C1012 C1014 1.413 . S
C1012 N1022 1.359 . S
C1013 C1010 1.417 . S
C1013 C1012 1.426 . S
C1013 N1018 1.350 . S
C1014 C1011 1.437 . S
C1014 C1012 1.413 . S
C1014 C1024 1.391 . S
C1015 C1010 1.431 . S
C1015 C1011 1.317 . S
C1015 H1026 0.930 . S
C1016 C1010 1.412 . S
C1016 C1017 1.355 . S
C1016 H1028 0.930 . S
C1017 C1016 1.355 . S
C1017 C1019 1.402 . S
C1017 H1029 0.930 . S
N1018 Gd1009 2.661 . S
N1018 C1013 1.350 . S
N1018 C1019 1.307 . S
C1019 C1017 1.402 . S
C1019 N1018 1.307 . S
C1019 H1020 0.930 . S
H1020 C1019 0.930 . S
C1021 N1022 1.334 . S
C1021 C1023 1.394 . S
C1021 H1025 0.930 . S
N1022 Gd1009 2.601 . S
N1022 C1012 1.359 . S
N1022 C1021 1.334 . S
C1023 C1021 1.394 . S
C1023 C1024 1.359 . S
C1023 H1035 0.930 . S
C1024 C1014 1.391 . S
C1024 C1023 1.359 . S
C1024 H1036 0.929 . S
H1025 C1021 0.930 . S
H1026 C1015 0.930 . S
H1027 C1044 0.930 . S
H1028 C1016 0.930 . S
H1029 C1017 0.930 . S
H1030 C1011 0.929 . S
H1031 C1049 0.930 . S
H1032 C1040 0.930 . S
H1033 C1041 0.930 . S
H1034 C1065 0.929 . S
H1035 C1023 0.930 . S
H1036 C1024 0.929 . S
H1037 C1066 0.930 . S
H1038 C1047 0.930 . S
N1039 Gd1008 2.661 1_556 S
N1039 C1043 1.350 . S
N1039 C1044 1.307 . S
C1040 H1032 0.930 . S
C1040 C1041 1.355 . S
C1040 C1042 1.412 . S
C1041 H1033 0.930 . S
C1041 C1040 1.355 . S
C1041 C1044 1.402 . S
C1042 C1040 1.412 . S
C1042 C1043 1.417 . S
C1042 C1066 1.431 . S
C1043 N1039 1.350 . S
C1043 C1042 1.417 . S
C1043 C1046 1.426 . S
C1044 H1027 0.930 . S
C1044 N1039 1.307 . S
C1044 C1041 1.402 . S
N1045 Gd1008 2.601 1_556 S
N1045 C1046 1.359 . S
N1045 C1049 1.334 . S
C1046 C1043 1.426 . S
C1046 N1045 1.359 . S
C1046 C1050 1.413 . S
C1047 H1038 0.930 . S
C1047 C1048 1.359 . S
C1047 C1049 1.394 . S
C1048 C1047 1.359 . S
C1048 C1050 1.391 . S
C1048 H1051 0.929 . S
C1049 H1031 0.930 . S
C1049 N1045 1.334 . S
C1049 C1047 1.394 . S
C1050 C1046 1.413 . S
C1050 C1048 1.391 . S
C1050 C1065 1.437 . S
H1051 C1048 0.929 . S
O1052 Gd1008 2.545 . S
O1052 C1067 1.258 . S
O1053 Gd1008 2.606 . S
O1053 Gd1009 2.362 . S
O1053 C1064 1.284 . S
O1054 Gd1009 2.324 . S
O1054 C1074 1.254 . S
O1055 Gd1008 2.429 . S
O1055 C1074 1.268 . S
O1056 Gd1008 2.545 . S
O1056 C1064 1.250 . S
O1057 Gd1008 2.412 . S
O1057 C1067 1.252 . S
O1058 Gd1009 2.545 . S
O1058 C1076 1.258 . S
O1059 Gd1008 2.362 1_556 S
O1059 Gd1009 2.606 1_556 S
O1059 C1075 1.284 . S
O1060 Gd1008 2.324 . S
O1060 C1083 1.254 . S
O1061 Gd1009 2.429 . S
O1061 C1083 1.268 . S
O1062 Gd1009 2.545 1_556 S
O1062 C1075 1.250 . S
O1063 Gd1009 2.412 . S
O1063 C1076 1.252 . S
C1064 O1053 1.284 . S
C1064 O1056 1.250 . S
C1065 H1034 0.929 . S
C1065 C1050 1.437 . S
C1065 C1066 1.317 . S
C1066 H1037 0.930 . S
C1066 C1042 1.431 . S
C1066 C1065 1.317 . S
C1067 Gd1008 2.828 . S
C1067 O1052 1.258 . S
C1067 O1057 1.252 . S
C1067 C1068 1.497 . S
C1068 C1067 1.497 . S
C1068 C1069 1.395 . S
C1068 C1070 1.380 . S
C1069 C1068 1.395 . S
C1069 C1072 1.398 . S
C1069 H1084 0.930 1_554 S
C1070 C1068 1.380 . S
C1070 C1071 1.391 . S
C1070 H1085 0.930 . S
C1071 C1070 1.391 . S
C1071 C1073 1.387 . S
C1072 C1069 1.398 . S
C1072 C1073 1.380 . S
C1072 H1086 0.930 . S
C1073 C1071 1.387 . S
C1073 C1072 1.380 . S
C1073 H1087 0.930 . S
C1074 O1054 1.254 . S
C1074 O1055 1.268 . S
C1075 O1059 1.284 . S
C1075 O1062 1.250 . S
C1076 Gd1009 2.828 . S
C1076 O1058 1.258 . S
C1076 O1063 1.252 . S
C1076 C1077 1.497 . S
C1077 C1076 1.497 . S
C1077 C1078 1.395 . S
C1077 C1079 1.380 . S
C1078 C1077 1.395 . S
C1078 C1081 1.398 . S
C1078 H1088 0.930 . S
C1079 C1077 1.380 . S
C1079 C1080 1.391 1_554 S
C1079 H1089 0.930 1_554 S
C1080 C1079 1.391 1_556 S
C1080 C1082 1.387 1_556 S
C1081 C1078 1.398 . S
C1081 C1082 1.380 . S
C1081 H1090 0.930 . S
C1082 C1080 1.387 1_554 S
C1082 C1081 1.380 . S
C1082 H1091 0.930 . S
C1083 O1060 1.254 . S
C1083 O1061 1.268 . S
H1084 C1069 0.930 1_556 S
H1085 C1070 0.930 . S
H1086 C1072 0.930 . S
H1087 C1073 0.930 . S
H1088 C1078 0.930 . S
H1089 C1079 0.930 1_556 S
H1090 C1081 0.930 . S
H1091 C1082 0.930 . S
Gd1092 N1123 2.661 . S
Gd1092 N1129 2.601 . S
Gd1092 O1136 2.545 . S
Gd1092 O1137 2.606 . S
Gd1092 O1139 2.429 . S
Gd1092 O1140 2.545 . S
Gd1092 O1141 2.412 . S
Gd1092 O1143 2.362 . S
Gd1092 O1144 2.324 . S
Gd1092 C1151 2.828 . S
Gd1093 N1102 2.661 . S
Gd1093 N1106 2.601 . S
Gd1093 O1137 2.362 . S
Gd1093 O1138 2.324 . S
Gd1093 O1142 2.545 . S
Gd1093 O1143 2.606 . S
Gd1093 O1145 2.429 . S
Gd1093 O1146 2.545 . S
Gd1093 O1147 2.412 . S
Gd1093 C1160 2.828 . S
C1094 C1097 1.417 . S
C1094 C1099 1.431 . S
C1094 C1100 1.412 . S
C1095 C1098 1.437 . S
C1095 C1099 1.317 . S
C1095 H1114 0.929 . S
C1096 C1097 1.426 . S
C1096 C1098 1.413 . S
C1096 N1106 1.359 . S
C1097 C1094 1.417 . S
C1097 C1096 1.426 . S
C1097 N1102 1.350 . S
C1098 C1095 1.437 . S
C1098 C1096 1.413 . S
C1098 C1108 1.391 . S
C1099 C1094 1.431 . S
C1099 C1095 1.317 . S
C1099 H1110 0.930 . S
C1100 C1094 1.412 . S
C1100 C1101 1.355 . S
C1100 H1112 0.930 . S
C1101 C1100 1.355 . S
C1101 C1103 1.402 . S
C1101 H1113 0.930 . S
N1102 Gd1093 2.661 . S
N1102 C1097 1.350 . S
N1102 C1103 1.307 . S
C1103 C1101 1.402 . S
C1103 N1102 1.307 . S
C1103 H1104 0.930 . S
H1104 C1103 0.930 . S
C1105 N1106 1.334 . S
C1105 C1107 1.394 . S
C1105 H1109 0.930 . S
N1106 Gd1093 2.601 . S
N1106 C1096 1.359 . S
N1106 C1105 1.334 . S
C1107 C1105 1.394 . S
C1107 C1108 1.359 . S
C1107 H1119 0.930 . S
C1108 C1098 1.391 . S
C1108 C1107 1.359 . S
C1108 H1120 0.929 . S
H1109 C1105 0.930 . S
H1110 C1099 0.930 . S
H1111 C1128 0.930 . S
H1112 C1100 0.930 . S
H1113 C1101 0.930 . S
H1114 C1095 0.929 . S
H1115 C1133 0.930 . S
H1116 C1124 0.930 . S
H1117 C1125 0.930 . S
H1118 C1149 0.929 . S
H1119 C1107 0.930 . S
H1120 C1108 0.929 . S
H1121 C1150 0.930 . S
H1122 C1131 0.930 . S
N1123 Gd1092 2.661 . S
N1123 C1127 1.350 . S
N1123 C1128 1.307 . S
C1124 H1116 0.930 . S
C1124 C1125 1.355 . S
C1124 C1126 1.412 . S
C1125 H1117 0.930 . S
C1125 C1124 1.355 . S
C1125 C1128 1.402 . S
C1126 C1124 1.412 . S
C1126 C1127 1.417 . S
C1126 C1150 1.431 . S
C1127 N1123 1.350 . S
C1127 C1126 1.417 . S
C1127 C1130 1.426 . S
C1128 H1111 0.930 . S
C1128 N1123 1.307 . S
C1128 C1125 1.402 . S
N1129 Gd1092 2.601 . S
N1129 C1130 1.359 . S
N1129 C1133 1.334 . S
C1130 C1127 1.426 . S
C1130 N1129 1.359 . S
C1130 C1134 1.413 . S
C1131 H1122 0.930 . S
C1131 C1132 1.359 . S
C1131 C1133 1.394 . S
C1132 C1131 1.359 . S
C1132 C1134 1.391 . S
C1132 H1135 0.929 . S
C1133 H1115 0.930 . S
C1133 N1129 1.334 . S
C1133 C1131 1.394 . S
C1134 C1130 1.413 . S
C1134 C1132 1.391 . S
C1134 C1149 1.437 . S
H1135 C1132 0.929 . S
O1136 Gd1092 2.545 . S
O1136 C1151 1.258 . S
O1137 Gd1092 2.606 . S
O1137 Gd1093 2.362 . S
O1137 C1148 1.284 . S
O1138 Gd1093 2.324 . S
O1138 C1158 1.254 . S
O1139 Gd1092 2.429 . S
O1139 C1158 1.268 . S
O1140 Gd1092 2.545 . S
O1140 C1148 1.250 . S
O1141 Gd1092 2.412 . S
O1141 C1151 1.252 . S
O1142 Gd1093 2.545 . S
O1142 C1160 1.258 . S
O1143 Gd1092 2.362 . S
O1143 Gd1093 2.606 . S
O1143 C1159 1.284 . S
O1144 Gd1092 2.324 . S
O1144 C1167 1.254 . S
O1145 Gd1093 2.429 . S
O1145 C1167 1.268 . S
O1146 Gd1093 2.545 . S
O1146 C1159 1.250 . S
O1147 Gd1093 2.412 . S
O1147 C1160 1.252 . S
C1148 O1137 1.284 . S
C1148 O1140 1.250 . S
C1149 H1118 0.929 . S
C1149 C1134 1.437 . S
C1149 C1150 1.317 . S
C1150 H1121 0.930 . S
C1150 C1126 1.431 . S
C1150 C1149 1.317 . S
C1151 Gd1092 2.828 . S
C1151 O1136 1.258 . S
C1151 O1141 1.252 . S
C1151 C1152 1.497 . S
C1152 C1151 1.497 . S
C1152 C1153 1.395 . S
C1152 C1154 1.380 . S
C1153 C1152 1.395 . S
C1153 C1156 1.398 . S
C1153 H1168 0.930 . S
C1154 C1152 1.380 . S
C1154 C1155 1.391 . S
C1154 H1169 0.930 . S
C1155 C1154 1.391 . S
C1155 C1157 1.387 . S
C1156 C1153 1.398 . S
C1156 C1157 1.380 . S
C1156 H1170 0.930 . S
C1157 C1155 1.387 . S
C1157 C1156 1.380 . S
C1157 H1171 0.930 . S
C1158 O1138 1.254 . S
C1158 O1139 1.268 . S
C1159 O1143 1.284 . S
C1159 O1146 1.250 . S
C1160 Gd1093 2.828 . S
C1160 O1142 1.258 . S
C1160 O1147 1.252 . S
C1160 C1161 1.497 . S
C1161 C1160 1.497 . S
C1161 C1162 1.395 . S
C1161 C1163 1.380 . S
C1162 C1161 1.395 . S
C1162 C1165 1.392 1_655 S
C1162 H1172 0.930 . S
C1163 C1161 1.380 . S
C1163 C1164 1.391 . S
C1163 H1173 0.930 . S
C1164 C1163 1.391 . S
C1164 C1166 1.387 1_655 S
C1165 C1162 1.392 1_455 S
C1165 C1166 1.383 . S
C1165 H1174 0.934 . S
C1166 C1164 1.387 1_455 S
C1166 C1165 1.383 . S
C1166 H1175 0.930 . S
C1167 O1144 1.254 . S
C1167 O1145 1.268 . S
H1168 C1153 0.930 . S
H1169 C1154 0.930 . S
H1170 C1156 0.930 . S
H1171 C1157 0.930 . S
H1172 C1162 0.930 . S
H1173 C1163 0.930 . S
H1174 C1165 0.934 . S
H1175 C1166 0.930 . S
Gd1176 N1207 2.661 . S
Gd1176 N1213 2.601 . S
Gd1176 O1220 2.545 . S
Gd1176 O1221 2.606 . S
Gd1176 O1223 2.429 . S
Gd1176 O1224 2.545 . S
Gd1176 O1225 2.412 . S
Gd1176 O1227 2.362 . S
Gd1176 O1228 2.324 . S
Gd1176 C1235 2.828 . S
Gd1177 N1186 2.661 . S
Gd1177 N1190 2.601 . S
Gd1177 O1221 2.362 . S
Gd1177 O1222 2.324 . S
Gd1177 O1226 2.545 . S
Gd1177 O1227 2.606 . S
Gd1177 O1229 2.429 . S
Gd1177 O1230 2.545 . S
Gd1177 O1231 2.412 . S
Gd1177 C1244 2.828 . S
C1178 C1181 1.417 . S
C1178 C1183 1.431 . S
C1178 C1184 1.412 . S
C1179 C1182 1.437 . S
C1179 C1183 1.317 . S
C1179 H1198 0.929 . S
C1180 C1181 1.426 . S
C1180 C1182 1.413 . S
C1180 N1190 1.359 . S
C1181 C1178 1.417 . S
C1181 C1180 1.426 . S
C1181 N1186 1.350 . S
C1182 C1179 1.437 . S
C1182 C1180 1.413 . S
C1182 C1192 1.391 . S
C1183 C1178 1.431 . S
C1183 C1179 1.317 . S
C1183 H1194 0.930 . S
C1184 C1178 1.412 . S
C1184 C1185 1.355 . S
C1184 H1196 0.930 . S
C1185 C1184 1.355 . S
C1185 C1187 1.402 . S
C1185 H1197 0.930 . S
N1186 Gd1177 2.661 . S
N1186 C1181 1.350 . S
N1186 C1187 1.307 . S
C1187 C1185 1.402 . S
C1187 N1186 1.307 . S
C1187 H1188 0.930 . S
H1188 C1187 0.930 . S
C1189 N1190 1.334 . S
C1189 C1191 1.394 . S
C1189 H1193 0.930 . S
N1190 Gd1177 2.601 . S
N1190 C1180 1.359 . S
N1190 C1189 1.334 . S
C1191 C1189 1.394 . S
C1191 C1192 1.359 . S
C1191 H1203 0.930 . S
C1192 C1182 1.391 . S
C1192 C1191 1.359 . S
C1192 H1204 0.929 . S
H1193 C1189 0.930 . S
H1194 C1183 0.930 . S
H1195 C1212 0.930 . S
H1196 C1184 0.930 . S
H1197 C1185 0.930 . S
H1198 C1179 0.929 . S
H1199 C1217 0.930 . S
H1200 C1208 0.930 . S
H1201 C1209 0.930 . S
H1202 C1233 0.929 . S
H1203 C1191 0.930 . S
H1204 C1192 0.929 . S
H1205 C1234 0.930 . S
H1206 C1215 0.930 . S
N1207 Gd1176 2.661 . S
N1207 C1211 1.350 1_455 S
N1207 C1212 1.307 . S
C1208 H1200 0.930 . S
C1208 C1209 1.355 . S
C1208 C1210 1.412 . S
C1209 H1201 0.930 . S
C1209 C1208 1.355 . S
C1209 C1212 1.402 1_655 S
C1210 C1208 1.412 . S
C1210 C1211 1.418 . S
C1210 C1234 1.431 . S
C1211 N1207 1.350 1_655 S
C1211 C1210 1.418 . S
C1211 C1214 1.427 1_655 S
C1212 H1195 0.930 . S
C1212 N1207 1.307 . S
C1212 C1209 1.402 1_455 S
N1213 Gd1176 2.601 . S
N1213 C1214 1.359 . S
N1213 C1217 1.334 . S
C1214 C1211 1.427 1_455 S
C1214 N1213 1.359 . S
C1214 C1218 1.413 1_455 S
C1215 H1206 0.930 . S
C1215 C1216 1.359 1_455 S
C1215 C1217 1.394 . S
C1216 C1215 1.359 1_655 S
C1216 C1218 1.391 . S
C1216 H1219 0.929 . S
C1217 H1199 0.930 . S
C1217 N1213 1.334 . S
C1217 C1215 1.394 . S
C1218 C1214 1.413 1_655 S
C1218 C1216 1.391 . S
C1218 C1233 1.437 . S
H1219 C1216 0.929 . S
O1220 Gd1176 2.545 . S
O1220 C1235 1.258 . S
O1221 Gd1176 2.606 . S
O1221 Gd1177 2.362 . S
O1221 C1232 1.284 . S
O1222 Gd1177 2.324 . S
O1222 C1242 1.254 . S
O1223 Gd1176 2.429 . S
O1223 C1242 1.268 . S
O1224 Gd1176 2.545 . S
O1224 C1232 1.250 . S
O1225 Gd1176 2.412 . S
O1225 C1235 1.252 . S
O1226 Gd1177 2.545 . S
O1226 C1244 1.258 . S
O1227 Gd1176 2.362 . S
O1227 Gd1177 2.606 . S
O1227 C1243 1.284 . S
O1228 Gd1176 2.324 . S
O1228 C1251 1.254 . S
O1229 Gd1177 2.429 . S
O1229 C1251 1.268 . S
O1230 Gd1177 2.545 . S
O1230 C1243 1.250 . S
O1231 Gd1177 2.412 . S
O1231 C1244 1.252 . S
C1232 O1221 1.284 . S
C1232 O1224 1.250 . S
C1233 H1202 0.929 . S
C1233 C1218 1.437 . S
C1233 C1234 1.317 . S
C1234 H1205 0.930 . S
C1234 C1210 1.431 . S
C1234 C1233 1.317 . S
C1235 Gd1176 2.828 . S
C1235 O1220 1.258 . S
C1235 O1225 1.252 . S
C1235 C1236 1.497 . S
C1236 C1235 1.497 . S
C1236 C1237 1.395 . S
C1236 C1238 1.380 . S
C1237 C1236 1.395 . S
C1237 C1240 1.398 . S
C1237 H1252 0.930 . S
C1238 C1236 1.380 . S
C1238 C1239 1.391 . S
C1238 H1253 0.930 . S
C1239 C1238 1.391 . S
C1239 C1241 1.387 . S
C1240 C1237 1.398 . S
C1240 C1241 1.380 . S
C1240 H1254 0.930 . S
C1241 C1239 1.387 . S
C1241 C1240 1.380 . S
C1241 H1255 0.930 . S
C1242 O1222 1.254 . S
C1242 O1223 1.268 . S
C1243 O1227 1.284 . S
C1243 O1230 1.250 . S
C1244 Gd1177 2.828 . S
C1244 O1226 1.258 . S
C1244 O1231 1.252 . S
C1244 C1245 1.497 . S
C1245 C1244 1.497 . S
C1245 C1246 1.395 . S
C1245 C1247 1.380 . S
C1246 C1245 1.395 . S
C1246 C1249 1.398 . S
C1246 H1256 0.930 . S
C1247 C1245 1.380 . S
C1247 C1248 1.391 . S
C1247 H1257 0.930 . S
C1248 C1247 1.391 . S
C1248 C1250 1.387 . S
C1249 C1246 1.398 . S
C1249 C1250 1.380 . S
C1249 H1258 0.930 . S
C1250 C1248 1.387 . S
C1250 C1249 1.380 . S
C1250 H1259 0.930 . S
C1251 O1228 1.254 . S
C1251 O1229 1.268 . S
H1252 C1237 0.930 . S
H1253 C1238 0.930 . S
H1254 C1240 0.930 . S
H1255 C1241 0.930 . S
H1256 C1246 0.930 . S
H1257 C1247 0.930 . S
H1258 C1249 0.930 . S
H1259 C1250 0.930 . S
Gd1260 N1291 2.661 . S
Gd1260 N1297 2.601 . S
Gd1260 O1304 2.545 . S
Gd1260 O1305 2.606 . S
Gd1260 O1307 2.429 . S
Gd1260 O1308 2.545 . S
Gd1260 O1309 2.412 . S
Gd1260 O1311 2.362 . S
Gd1260 O1312 2.324 . S
Gd1260 C1319 2.828 . S
Gd1261 N1270 2.661 . S
Gd1261 N1274 2.601 . S
Gd1261 O1305 2.362 . S
Gd1261 O1306 2.324 . S
Gd1261 O1310 2.545 . S
Gd1261 O1311 2.606 . S
Gd1261 O1313 2.429 . S
Gd1261 O1314 2.545 . S
Gd1261 O1315 2.412 . S
Gd1261 C1328 2.828 . S
C1262 C1265 1.417 . S
C1262 C1267 1.431 . S
C1262 C1268 1.412 . S
C1263 C1266 1.437 . S
C1263 C1267 1.317 . S
C1263 H1282 0.929 . S
C1264 C1265 1.426 . S
C1264 C1266 1.413 . S
C1264 N1274 1.359 . S
C1265 C1262 1.417 . S
C1265 C1264 1.426 . S
C1265 N1270 1.350 . S
C1266 C1263 1.437 . S
C1266 C1264 1.413 . S
C1266 C1276 1.391 . S
C1267 C1262 1.431 . S
C1267 C1263 1.317 . S
C1267 H1278 0.930 . S
C1268 C1262 1.412 . S
C1268 C1269 1.355 . S
C1268 H1280 0.930 . S
C1269 C1268 1.355 . S
C1269 C1271 1.402 . S
C1269 H1281 0.930 . S
N1270 Gd1261 2.661 . S
N1270 C1265 1.350 . S
N1270 C1271 1.307 . S
C1271 C1269 1.402 . S
C1271 N1270 1.307 . S
C1271 H1272 0.930 . S
H1272 C1271 0.930 . S
C1273 N1274 1.334 . S
C1273 C1275 1.394 . S
C1273 H1277 0.930 . S
N1274 Gd1261 2.601 . S
N1274 C1264 1.359 . S
N1274 C1273 1.334 . S
C1275 C1273 1.394 . S
C1275 C1276 1.359 . S
C1275 H1287 0.930 . S
C1276 C1266 1.391 . S
C1276 C1275 1.359 . S
C1276 H1288 0.929 . S
H1277 C1273 0.930 . S
H1278 C1267 0.930 . S
H1279 C1296 0.930 . S
H1280 C1268 0.930 . S
H1281 C1269 0.930 . S
H1282 C1263 0.929 . S
H1283 C1301 0.930 . S
H1284 C1292 0.930 . S
H1285 C1293 0.930 . S
H1286 C1317 0.929 . S
H1287 C1275 0.930 . S
H1288 C1276 0.929 . S
H1289 C1318 0.930 . S
H1290 C1299 0.930 . S
N1291 Gd1260 2.661 . S
N1291 C1295 1.350 . S
N1291 C1296 1.307 . S
C1292 H1284 0.930 . S
C1292 C1293 1.355 . S
C1292 C1294 1.412 . S
C1293 H1285 0.930 . S
C1293 C1292 1.355 . S
C1293 C1296 1.402 . S
C1294 C1292 1.412 . S
C1294 C1295 1.417 . S
C1294 C1318 1.431 . S
C1295 N1291 1.350 . S
C1295 C1294 1.417 . S
C1295 C1298 1.426 . S
C1296 H1279 0.930 . S
C1296 N1291 1.307 . S
C1296 C1293 1.402 . S
N1297 Gd1260 2.601 . S
N1297 C1298 1.359 . S
N1297 C1301 1.334 . S
C1298 C1295 1.426 . S
C1298 N1297 1.359 . S
C1298 C1302 1.413 . S
C1299 H1290 0.930 . S
C1299 C1300 1.359 . S
C1299 C1301 1.394 . S
C1300 C1299 1.359 . S
C1300 C1302 1.391 . S
C1300 H1303 0.929 . S
C1301 H1283 0.930 . S
C1301 N1297 1.334 . S
C1301 C1299 1.394 . S
C1302 C1298 1.413 . S
C1302 C1300 1.391 . S
C1302 C1317 1.437 . S
H1303 C1300 0.929 . S
O1304 Gd1260 2.545 . S
O1304 C1319 1.258 . S
O1305 Gd1260 2.606 . S
O1305 Gd1261 2.362 . S
O1305 C1316 1.284 . S
O1306 Gd1261 2.324 . S
O1306 C1326 1.254 . S
O1307 Gd1260 2.429 . S
O1307 C1326 1.268 . S
O1308 Gd1260 2.545 . S
O1308 C1316 1.250 . S
O1309 Gd1260 2.412 . S
O1309 C1319 1.252 . S
O1310 Gd1261 2.545 . S
O1310 C1328 1.258 . S
O1311 Gd1260 2.362 . S
O1311 Gd1261 2.606 . S
O1311 C1327 1.284 . S
O1312 Gd1260 2.324 . S
O1312 C1335 1.254 . S
O1313 Gd1261 2.429 . S
O1313 C1335 1.268 . S
O1314 Gd1261 2.545 . S
O1314 C1327 1.250 . S
O1315 Gd1261 2.412 . S
O1315 C1328 1.252 . S
C1316 O1305 1.284 . S
C1316 O1308 1.250 . S
C1317 H1286 0.929 . S
C1317 C1302 1.437 . S
C1317 C1318 1.317 . S
C1318 H1289 0.930 . S
C1318 C1294 1.431 . S
C1318 C1317 1.317 . S
C1319 Gd1260 2.828 . S
C1319 O1304 1.258 . S
C1319 O1309 1.252 . S
C1319 C1320 1.497 . S
C1320 C1319 1.497 . S
C1320 C1321 1.395 . S
C1320 C1322 1.380 . S
C1321 C1320 1.395 . S
C1321 C1324 1.398 . S
C1321 H1336 0.930 . S
C1322 C1320 1.380 . S
C1322 C1323 1.391 . S
C1322 H1337 0.930 . S
C1323 C1322 1.391 . S
C1323 C1325 1.387 . S
C1324 C1321 1.398 . S
C1324 C1325 1.380 . S
C1324 H1338 0.930 . S
C1325 C1323 1.387 . S
C1325 C1324 1.380 . S
C1325 H1339 0.934 . S
C1326 O1306 1.254 . S
C1326 O1307 1.268 . S
C1327 O1311 1.284 . S
C1327 O1314 1.250 . S
C1328 Gd1261 2.828 . S
C1328 O1310 1.258 . S
C1328 O1315 1.252 . S
C1328 C1329 1.497 . S
C1329 C1328 1.497 . S
C1329 C1330 1.395 . S
C1329 C1331 1.380 . S
C1330 C1329 1.395 . S
C1330 C1333 1.398 . S
C1330 H1340 0.930 . S
C1331 C1329 1.380 . S
C1331 C1332 1.391 . S
C1331 H1341 0.930 . S
C1332 C1331 1.391 . S
C1332 C1334 1.387 . S
C1333 C1330 1.398 . S
C1333 C1334 1.380 . S
C1333 H1342 0.930 . S
C1334 C1332 1.387 . S
C1334 C1333 1.380 . S
C1334 H1343 0.930 . S
C1335 O1312 1.254 . S
C1335 O1313 1.268 . S
H1336 C1321 0.930 . S
H1337 C1322 0.930 . S
H1338 C1324 0.930 . S
H1339 C1325 0.934 . S
H1340 C1330 0.930 . S
H1341 C1331 0.930 . S
H1342 C1333 0.930 . S
H1343 C1334 0.930 . S
Gd1344 N1375 2.661 . S
Gd1344 N1381 2.601 . S
Gd1344 O1388 2.545 . S
Gd1344 O1389 2.606 . S
Gd1344 O1391 2.429 . S
Gd1344 O1392 2.545 . S
Gd1344 O1393 2.412 . S
Gd1344 O1395 2.362 . S
Gd1344 O1396 2.324 . S
Gd1344 C1403 2.828 . S
Gd1345 N1354 2.661 . S
Gd1345 N1358 2.601 . S
Gd1345 O1389 2.362 . S
Gd1345 O1390 2.324 . S
Gd1345 O1394 2.545 . S
Gd1345 O1395 2.606 . S
Gd1345 O1397 2.429 . S
Gd1345 O1398 2.545 . S
Gd1345 O1399 2.412 . S
Gd1345 C1412 2.828 . S
C1346 C1349 1.417 . S
C1346 C1351 1.431 . S
C1346 C1352 1.412 . S
C1347 C1350 1.437 . S
C1347 C1351 1.317 . S
C1347 H1366 0.929 . S
C1348 C1349 1.426 . S
C1348 C1350 1.413 . S
C1348 N1358 1.359 . S
C1349 C1346 1.417 . S
C1349 C1348 1.426 . S
C1349 N1354 1.350 . S
C1350 C1347 1.437 . S
C1350 C1348 1.413 . S
C1350 C1360 1.391 . S
C1351 C1346 1.431 . S
C1351 C1347 1.317 . S
C1351 H1362 0.930 . S
C1352 C1346 1.412 . S
C1352 C1353 1.355 . S
C1352 H1364 0.930 . S
C1353 C1352 1.355 . S
C1353 C1355 1.402 . S
C1353 H1365 0.930 . S
N1354 Gd1345 2.661 . S
N1354 C1349 1.350 . S
N1354 C1355 1.307 . S
C1355 C1353 1.402 . S
C1355 N1354 1.307 . S
C1355 H1356 0.930 . S
H1356 C1355 0.930 . S
C1357 N1358 1.334 . S
C1357 C1359 1.394 . S
C1357 H1361 0.930 . S
N1358 Gd1345 2.601 . S
N1358 C1348 1.359 . S
N1358 C1357 1.334 . S
C1359 C1357 1.394 . S
C1359 C1360 1.359 . S
C1359 H1371 0.930 . S
C1360 C1350 1.391 . S
C1360 C1359 1.359 . S
C1360 H1372 0.929 . S
H1361 C1357 0.930 . S
H1362 C1351 0.930 . S
H1363 C1380 0.930 . S
H1364 C1352 0.930 . S
H1365 C1353 0.930 . S
H1366 C1347 0.929 . S
H1367 C1385 0.930 . S
H1368 C1376 0.930 . S
H1369 C1377 0.930 . S
H1370 C1401 0.929 . S
H1371 C1359 0.930 . S
H1372 C1360 0.929 . S
H1373 C1402 0.930 . S
H1374 C1383 0.930 . S
N1375 Gd1344 2.661 . S
N1375 C1379 1.350 . S
N1375 C1380 1.307 . S
C1376 H1368 0.930 . S
C1376 C1377 1.355 . S
C1376 C1378 1.412 . S
C1377 H1369 0.930 . S
C1377 C1376 1.355 . S
C1377 C1380 1.402 . S
C1378 C1376 1.412 . S
C1378 C1379 1.417 . S
C1378 C1402 1.431 . S
C1379 N1375 1.350 . S
C1379 C1378 1.417 . S
C1379 C1382 1.426 . S
C1380 H1363 0.930 . S
C1380 N1375 1.307 . S
C1380 C1377 1.402 . S
N1381 Gd1344 2.601 . S
N1381 C1382 1.359 . S
N1381 C1385 1.334 . S
C1382 C1379 1.426 . S
C1382 N1381 1.359 . S
C1382 C1386 1.413 . S
C1383 H1374 0.930 . S
C1383 C1384 1.359 . S
C1383 C1385 1.394 . S
C1384 C1383 1.359 . S
C1384 C1386 1.391 . S
C1384 H1387 0.929 . S
C1385 H1367 0.930 . S
C1385 N1381 1.334 . S
C1385 C1383 1.394 . S
C1386 C1382 1.413 . S
C1386 C1384 1.391 . S
C1386 C1401 1.437 . S
H1387 C1384 0.929 . S
O1388 Gd1344 2.545 . S
O1388 C1403 1.258 . S
O1389 Gd1344 2.606 . S
O1389 Gd1345 2.362 . S
O1389 C1400 1.284 . S
O1390 Gd1345 2.324 . S
O1390 C1410 1.254 . S
O1391 Gd1344 2.429 . S
O1391 C1410 1.268 . S
O1392 Gd1344 2.545 . S
O1392 C1400 1.250 . S
O1393 Gd1344 2.412 . S
O1393 C1403 1.252 . S
O1394 Gd1345 2.545 . S
O1394 C1412 1.258 . S
O1395 Gd1344 2.362 . S
O1395 Gd1345 2.606 . S
O1395 C1411 1.284 . S
O1396 Gd1344 2.324 . S
O1396 C1419 1.254 . S
O1397 Gd1345 2.429 . S
O1397 C1419 1.268 . S
O1398 Gd1345 2.545 . S
O1398 C1411 1.250 . S
O1399 Gd1345 2.412 . S
O1399 C1412 1.252 . S
C1400 O1389 1.284 . S
C1400 O1392 1.250 . S
C1401 H1370 0.929 . S
C1401 C1386 1.437 . S
C1401 C1402 1.317 . S
C1402 H1373 0.930 . S
C1402 C1378 1.431 . S
C1402 C1401 1.317 . S
C1403 Gd1344 2.828 . S
C1403 O1388 1.258 . S
C1403 O1393 1.252 . S
C1403 C1404 1.497 . S
C1404 C1403 1.497 . S
C1404 C1405 1.395 . S
C1404 C1406 1.380 . S
C1405 C1404 1.395 . S
C1405 C1408 1.398 . S
C1405 H1420 0.930 . S
C1406 C1404 1.380 . S
C1406 C1407 1.391 . S
C1406 H1421 0.930 . S
C1407 C1406 1.391 . S
C1407 C1409 1.387 . S
C1408 C1405 1.398 . S
C1408 C1409 1.380 . S
C1408 H1422 0.930 . S
C1409 C1407 1.387 . S
C1409 C1408 1.380 . S
C1409 H1423 0.930 . S
C1410 O1390 1.254 . S
C1410 O1391 1.268 . S
C1411 O1395 1.284 . S
C1411 O1398 1.250 . S
C1412 Gd1345 2.828 . S
C1412 O1394 1.258 . S
C1412 O1399 1.252 . S
C1412 C1413 1.497 . S
C1413 C1412 1.497 . S
C1413 C1414 1.395 . S
C1413 C1415 1.380 . S
C1414 C1413 1.395 . S
C1414 C1417 1.398 . S
C1414 H1424 0.930 . S
C1415 C1413 1.380 . S
C1415 C1416 1.391 . S
C1415 H1425 0.930 . S
C1416 C1415 1.391 . S
C1416 C1418 1.387 . S
C1417 C1414 1.398 . S
C1417 C1418 1.380 . S
C1417 H1426 0.930 . S
C1418 C1416 1.387 . S
C1418 C1417 1.380 . S
C1418 H1427 0.930 . S
C1419 O1396 1.254 . S
C1419 O1397 1.268 . S
H1420 C1405 0.930 . S
H1421 C1406 0.930 . S
H1422 C1408 0.930 . S
H1423 C1409 0.930 . S
H1424 C1414 0.930 . S
H1425 C1415 0.930 . S
H1426 C1417 0.930 . S
H1427 C1418 0.930 . S
Gd1428 N1459 2.661 . S
Gd1428 N1465 2.601 . S
Gd1428 O1472 2.545 . S
Gd1428 O1473 2.606 . S
Gd1428 O1475 2.429 . S
Gd1428 O1476 2.545 . S
Gd1428 O1477 2.412 . S
Gd1428 O1479 2.362 . S
Gd1428 O1480 2.324 . S
Gd1428 C1487 2.828 . S
Gd1429 N1438 2.661 . S
Gd1429 N1442 2.601 . S
Gd1429 O1473 2.362 . S
Gd1429 O1474 2.324 . S
Gd1429 O1478 2.545 . S
Gd1429 O1479 2.606 . S
Gd1429 O1481 2.429 . S
Gd1429 O1482 2.545 . S
Gd1429 O1483 2.412 . S
Gd1429 C1496 2.828 . S
C1430 C1433 1.417 . S
C1430 C1435 1.431 . S
C1430 C1436 1.412 . S
C1431 C1434 1.437 . S
C1431 C1435 1.317 . S
C1431 H1450 0.929 . S
C1432 C1433 1.426 . S
C1432 C1434 1.413 . S
C1432 N1442 1.359 . S
C1433 C1430 1.417 . S
C1433 C1432 1.426 . S
C1433 N1438 1.350 . S
C1434 C1431 1.437 . S
C1434 C1432 1.413 . S
C1434 C1444 1.391 . S
C1435 C1430 1.431 . S
C1435 C1431 1.317 . S
C1435 H1446 0.930 . S
C1436 C1430 1.412 . S
C1436 C1437 1.355 . S
C1436 H1448 0.930 . S
C1437 C1436 1.355 . S
C1437 C1439 1.402 . S
C1437 H1449 0.930 . S
N1438 Gd1429 2.661 . S
N1438 C1433 1.350 . S
N1438 C1439 1.307 . S
C1439 C1437 1.402 . S
C1439 N1438 1.307 . S
C1439 H1440 0.930 . S
H1440 C1439 0.930 . S
C1441 N1442 1.334 . S
C1441 C1443 1.394 . S
C1441 H1445 0.930 . S
N1442 Gd1429 2.601 . S
N1442 C1432 1.359 . S
N1442 C1441 1.334 . S
C1443 C1441 1.394 . S
C1443 C1444 1.359 . S
C1443 H1455 0.930 . S
C1444 C1434 1.391 . S
C1444 C1443 1.359 . S
C1444 H1456 0.929 . S
H1445 C1441 0.930 . S
H1446 C1435 0.930 . S
H1447 C1464 0.930 . S
H1448 C1436 0.930 . S
H1449 C1437 0.930 . S
H1450 C1431 0.929 . S
H1451 C1469 0.930 . S
H1452 C1460 0.930 . S
H1453 C1461 0.930 . S
H1454 C1485 0.929 . S
H1455 C1443 0.930 . S
H1456 C1444 0.929 . S
H1457 C1486 0.930 . S
H1458 C1467 0.930 . S
N1459 Gd1428 2.661 . S
N1459 C1463 1.350 . S
N1459 C1464 1.307 . S
C1460 H1452 0.930 . S
C1460 C1461 1.355 . S
C1460 C1462 1.412 . S
C1461 H1453 0.930 . S
C1461 C1460 1.355 . S
C1461 C1464 1.402 . S
C1462 C1460 1.412 . S
C1462 C1463 1.417 . S
C1462 C1486 1.431 . S
C1463 N1459 1.350 . S
C1463 C1462 1.417 . S
C1463 C1466 1.426 . S
C1464 H1447 0.930 . S
C1464 N1459 1.307 . S
C1464 C1461 1.402 . S
N1465 Gd1428 2.601 . S
N1465 C1466 1.359 . S
N1465 C1469 1.334 . S
C1466 C1463 1.426 . S
C1466 N1465 1.359 . S
C1466 C1470 1.413 . S
C1467 H1458 0.930 . S
C1467 C1468 1.359 . S
C1467 C1469 1.394 . S
C1468 C1467 1.359 . S
C1468 C1470 1.391 . S
C1468 H1471 0.929 . S
C1469 H1451 0.930 . S
C1469 N1465 1.334 . S
C1469 C1467 1.394 . S
C1470 C1466 1.413 . S
C1470 C1468 1.391 . S
C1470 C1485 1.437 . S
H1471 C1468 0.929 . S
O1472 Gd1428 2.545 . S
O1472 C1487 1.258 . S
O1473 Gd1428 2.606 . S
O1473 Gd1429 2.362 . S
O1473 C1484 1.284 . S
O1474 Gd1429 2.324 . S
O1474 C1494 1.254 . S
O1475 Gd1428 2.429 . S
O1475 C1494 1.268 . S
O1476 Gd1428 2.545 . S
O1476 C1484 1.250 . S
O1477 Gd1428 2.412 . S
O1477 C1487 1.252 . S
O1478 Gd1429 2.545 . S
O1478 C1496 1.258 . S
O1479 Gd1428 2.362 . S
O1479 Gd1429 2.606 . S
O1479 C1495 1.284 . S
O1480 Gd1428 2.324 . S
O1480 C1503 1.254 . S
O1481 Gd1429 2.429 . S
O1481 C1503 1.268 . S
O1482 Gd1429 2.545 . S
O1482 C1495 1.250 . S
O1483 Gd1429 2.412 . S
O1483 C1496 1.252 . S
C1484 O1473 1.284 . S
C1484 O1476 1.250 . S
C1485 H1454 0.929 . S
C1485 C1470 1.437 . S
C1485 C1486 1.317 . S
C1486 H1457 0.930 . S
C1486 C1462 1.431 . S
C1486 C1485 1.317 . S
C1487 Gd1428 2.828 . S
C1487 O1472 1.258 . S
C1487 O1477 1.252 . S
C1487 C1488 1.497 . S
C1488 C1487 1.497 . S
C1488 C1489 1.395 . S
C1488 C1490 1.380 . S
C1489 C1488 1.395 . S
C1489 C1492 1.398 . S
C1489 H1504 0.930 . S
C1490 C1488 1.380 . S
C1490 C1491 1.391 . S
C1490 H1505 0.930 . S
C1491 C1490 1.391 . S
C1491 C1493 1.387 . S
C1492 C1489 1.398 . S
C1492 C1493 1.380 . S
C1492 H1506 0.930 . S
C1493 C1491 1.387 . S
C1493 C1492 1.380 . S
C1493 H1507 0.930 . S
C1494 O1474 1.254 . S
C1494 O1475 1.268 . S
C1495 O1479 1.284 . S
C1495 O1482 1.250 . S
C1496 Gd1429 2.828 . S
C1496 O1478 1.258 . S
C1496 O1483 1.252 . S
C1496 C1497 1.497 . S
C1497 C1496 1.497 . S
C1497 C1498 1.395 . S
C1497 C1499 1.380 . S
C1498 C1497 1.395 . S
C1498 C1501 1.398 . S
C1498 H1508 0.930 . S
C1499 C1497 1.380 . S
C1499 C1500 1.391 . S
C1499 H1509 0.930 . S
C1500 C1499 1.391 . S
C1500 C1502 1.387 . S
C1501 C1498 1.398 . S
C1501 C1502 1.380 . S
C1501 H1510 0.930 . S
C1502 C1500 1.387 . S
C1502 C1501 1.380 . S
C1502 H1511 0.930 1_565 S
C1503 O1480 1.254 . S
C1503 O1481 1.268 . S
H1504 C1489 0.930 . S
H1505 C1490 0.930 . S
H1506 C1492 0.930 . S
H1507 C1493 0.930 . S
H1508 C1498 0.930 . S
H1509 C1499 0.930 . S
H1510 C1501 0.930 . S
H1511 C1502 0.930 1_545 S
Gd1512 N1543 2.661 . S
Gd1512 N1549 2.601 . S
Gd1512 O1556 2.545 . S
Gd1512 O1557 2.606 . S
Gd1512 O1559 2.429 . S
Gd1512 O1560 2.545 . S
Gd1512 O1561 2.412 . S
Gd1512 O1563 2.362 . S
Gd1512 O1564 2.324 . S
Gd1512 C1571 2.828 . S
Gd1513 N1522 2.661 . S
Gd1513 N1526 2.601 . S
Gd1513 O1557 2.362 . S
Gd1513 O1558 2.324 . S
Gd1513 O1562 2.545 . S
Gd1513 O1563 2.606 . S
Gd1513 O1565 2.429 . S
Gd1513 O1566 2.545 . S
Gd1513 O1567 2.412 . S
Gd1513 C1580 2.828 . S
C1514 C1517 1.417 . S
C1514 C1519 1.431 . S
C1514 C1520 1.412 . S
C1515 C1518 1.437 . S
C1515 C1519 1.317 . S
C1515 H1534 0.929 . S
C1516 C1517 1.426 . S
C1516 C1518 1.413 . S
C1516 N1526 1.359 . S
C1517 C1514 1.417 . S
C1517 C1516 1.426 . S
C1517 N1522 1.350 . S
C1518 C1515 1.437 . S
C1518 C1516 1.413 . S
C1518 C1528 1.391 . S
C1519 C1514 1.431 . S
C1519 C1515 1.317 . S
C1519 H1530 0.930 . S
C1520 C1514 1.412 . S
C1520 C1521 1.355 . S
C1520 H1532 0.930 . S
C1521 C1520 1.355 . S
C1521 C1523 1.402 . S
C1521 H1533 0.930 . S
N1522 Gd1513 2.661 . S
N1522 C1517 1.350 . S
N1522 C1523 1.307 . S
C1523 C1521 1.402 . S
C1523 N1522 1.307 . S
C1523 H1524 0.930 . S
H1524 C1523 0.930 . S
C1525 N1526 1.334 . S
C1525 C1527 1.394 . S
C1525 H1529 0.930 . S
N1526 Gd1513 2.601 . S
N1526 C1516 1.359 . S
N1526 C1525 1.334 . S
C1527 C1525 1.394 . S
C1527 C1528 1.359 . S
C1527 H1539 0.930 . S
C1528 C1518 1.391 . S
C1528 C1527 1.359 . S
C1528 H1540 0.929 . S
H1529 C1525 0.930 . S
H1530 C1519 0.930 . S
H1531 C1548 0.930 . S
H1532 C1520 0.930 . S
H1533 C1521 0.930 . S
H1534 C1515 0.929 . S
H1535 C1553 0.930 . S
H1536 C1544 0.930 . S
H1537 C1545 0.930 . S
H1538 C1569 0.929 . S
H1539 C1527 0.930 . S
H1540 C1528 0.929 . S
H1541 C1570 0.930 . S
H1542 C1551 0.930 . S
N1543 Gd1512 2.661 . S
N1543 C1547 1.350 . S
N1543 C1548 1.307 . S
C1544 H1536 0.930 . S
C1544 C1545 1.355 . S
C1544 C1546 1.412 . S
C1545 H1537 0.930 . S
C1545 C1544 1.355 . S
C1545 C1548 1.402 . S
C1546 C1544 1.412 . S
C1546 C1547 1.417 . S
C1546 C1570 1.431 . S
C1547 N1543 1.350 . S
C1547 C1546 1.417 . S
C1547 C1550 1.426 . S
C1548 H1531 0.930 . S
C1548 N1543 1.307 . S
C1548 C1545 1.402 . S
N1549 Gd1512 2.601 . S
N1549 C1550 1.359 . S
N1549 C1553 1.334 . S
C1550 C1547 1.426 . S
C1550 N1549 1.359 . S
C1550 C1554 1.413 . S
C1551 H1542 0.930 . S
C1551 C1552 1.359 . S
C1551 C1553 1.394 . S
C1552 C1551 1.359 . S
C1552 C1554 1.391 . S
C1552 H1555 0.929 . S
C1553 H1535 0.930 . S
C1553 N1549 1.334 . S
C1553 C1551 1.394 . S
C1554 C1550 1.413 . S
C1554 C1552 1.391 . S
C1554 C1569 1.437 . S
H1555 C1552 0.929 . S
O1556 Gd1512 2.545 . S
O1556 C1571 1.258 . S
O1557 Gd1512 2.606 . S
O1557 Gd1513 2.362 . S
O1557 C1568 1.284 . S
O1558 Gd1513 2.324 . S
O1558 C1578 1.254 . S
O1559 Gd1512 2.429 . S
O1559 C1578 1.268 . S
O1560 Gd1512 2.545 . S
O1560 C1568 1.250 . S
O1561 Gd1512 2.412 . S
O1561 C1571 1.252 . S
O1562 Gd1513 2.545 . S
O1562 C1580 1.258 . S
O1563 Gd1512 2.362 . S
O1563 Gd1513 2.606 . S
O1563 C1579 1.284 . S
O1564 Gd1512 2.324 . S
O1564 C1587 1.254 . S
O1565 Gd1513 2.429 . S
O1565 C1587 1.268 . S
O1566 Gd1513 2.545 . S
O1566 C1579 1.250 . S
O1567 Gd1513 2.412 . S
O1567 C1580 1.252 . S
C1568 O1557 1.284 . S
C1568 O1560 1.250 . S
C1569 H1538 0.929 . S
C1569 C1554 1.437 . S
C1569 C1570 1.317 . S
C1570 H1541 0.930 . S
C1570 C1546 1.431 . S
C1570 C1569 1.317 . S
C1571 Gd1512 2.828 . S
C1571 O1556 1.258 . S
C1571 O1561 1.252 . S
C1571 C1572 1.497 . S
C1572 C1571 1.497 . S
C1572 C1573 1.395 . S
C1572 C1574 1.380 . S
C1573 C1572 1.395 . S
C1573 C1576 1.398 . S
C1573 H1588 0.930 . S
C1574 C1572 1.380 . S
C1574 C1575 1.391 . S
C1574 H1589 0.930 . S
C1575 C1574 1.391 . S
C1575 C1577 1.387 . S
C1576 C1573 1.398 . S
C1576 C1577 1.380 . S
C1576 H1590 0.930 . S
C1577 C1575 1.387 . S
C1577 C1576 1.380 . S
C1577 H1591 0.930 . S
C1578 O1558 1.254 . S
C1578 O1559 1.268 . S
C1579 O1563 1.284 . S
C1579 O1566 1.250 . S
C1580 Gd1513 2.828 . S
C1580 O1562 1.258 . S
C1580 O1567 1.252 . S
C1580 C1581 1.497 . S
C1581 C1580 1.497 . S
C1581 C1582 1.395 . S
C1581 C1583 1.380 . S
C1582 C1581 1.395 . S
C1582 C1585 1.398 . S
C1582 H1592 0.930 . S
C1583 C1581 1.380 . S
C1583 C1584 1.391 . S
C1583 H1593 0.930 . S
C1584 C1583 1.391 . S
C1584 C1586 1.387 . S
C1585 C1582 1.398 . S
C1585 C1586 1.380 . S
C1585 H1594 0.930 . S
C1586 C1584 1.387 . S
C1586 C1585 1.380 . S
C1586 H1595 0.930 . S
C1587 O1564 1.254 . S
C1587 O1565 1.268 . S
H1588 C1573 0.930 . S
H1589 C1574 0.930 . S
H1590 C1576 0.930 . S
H1591 C1577 0.930 . S
H1592 C1582 0.930 . S
H1593 C1583 0.930 . S
H1594 C1585 0.930 . S
H1595 C1586 0.930 . S
Gd1596 N1627 2.661 1_455 S
Gd1596 N1633 2.601 . S
Gd1596 O1640 2.545 . S
Gd1596 O1641 2.606 . S
Gd1596 O1643 2.429 . S
Gd1596 O1644 2.545 . S
Gd1596 O1645 2.412 1_455 S
Gd1596 O1647 2.362 . S
Gd1596 O1648 2.324 1_554 S
Gd1596 C1655 2.828 1_455 S
Gd1597 N1606 2.663 . S
Gd1597 N1610 2.589 1_554 S
Gd1597 O1641 2.366 . S
Gd1597 O1642 2.339 . S
Gd1597 O1646 2.535 1_554 S
Gd1597 O1647 2.614 . S
Gd1597 O1649 2.419 1_554 S
Gd1597 O1650 2.547 1_554 S
Gd1597 O1651 2.415 . S
Gd1597 C1664 2.825 1_554 S
C1598 C1601 1.417 . S
C1598 C1603 1.431 1_554 S
C1598 C1604 1.412 . S
C1599 C1602 1.437 . S
C1599 C1603 1.317 . S
C1599 H1618 0.929 . S
C1600 C1601 1.426 1_556 S
C1600 C1602 1.413 . S
C1600 N1610 1.359 . S
C1601 C1598 1.417 . S
C1601 C1600 1.426 1_554 S
C1601 N1606 1.350 . S
C1602 C1599 1.437 . S
C1602 C1600 1.413 . S
C1602 C1612 1.391 . S
C1603 C1598 1.431 1_556 S
C1603 C1599 1.317 . S
C1603 H1614 0.930 1_556 S
C1604 C1598 1.412 . S
C1604 C1605 1.355 . S
C1604 H1616 0.930 . S
C1605 C1604 1.355 . S
C1605 C1607 1.402 . S
C1605 H1617 0.930 . S
N1606 Gd1597 2.663 . S
N1606 C1601 1.350 . S
N1606 C1607 1.307 . S
C1607 C1605 1.402 . S
C1607 N1606 1.307 . S
C1607 H1608 0.930 . S
H1608 C1607 0.930 . S
C1609 N1610 1.334 . S
C1609 C1611 1.394 . S
C1609 H1613 0.930 . S
N1610 Gd1597 2.589 1_556 S
N1610 C1600 1.359 . S
N1610 C1609 1.334 . S
C1611 C1609 1.394 . S
C1611 C1612 1.359 . S
C1611 H1623 0.930 . S
C1612 C1602 1.391 . S
C1612 C1611 1.359 . S
C1612 H1624 0.929 . S
H1613 C1609 0.930 . S
H1614 C1603 0.930 1_554 S
H1615 C1632 0.935 . S
H1616 C1604 0.930 . S
H1617 C1605 0.930 . S
H1618 C1599 0.929 . S
H1619 C1637 0.930 . S
H1620 C1628 0.930 . S
H1621 C1629 0.930 . S
H1622 C1653 0.929 . S
H1623 C1611 0.930 . S
H1624 C1612 0.929 . S
H1625 C1654 0.930 . S
H1626 C1635 0.930 . S
N1627 Gd1596 2.661 1_655 S
N1627 C1631 1.350 . S
N1627 C1632 1.307 1_554 S
C1628 H1620 0.930 . S
C1628 C1629 1.355 . S
C1628 C1630 1.412 1_556 S
C1629 H1621 0.930 . S
C1629 C1628 1.355 . S
C1629 C1632 1.402 . S
C1630 C1628 1.412 1_554 S
C1630 C1631 1.417 . S
C1630 C1654 1.431 . S
C1631 N1627 1.350 . S
C1631 C1630 1.417 . S
C1631 C1634 1.426 . S
C1632 H1615 0.935 . S
C1632 N1627 1.307 1_556 S
C1632 C1629 1.402 . S
N1633 Gd1596 2.601 . S
N1633 C1634 1.359 1_455 S
N1633 C1637 1.334 . S
C1634 C1631 1.426 . S
C1634 N1633 1.359 1_655 S
C1634 C1638 1.413 . S
C1635 H1626 0.930 . S
C1635 C1636 1.359 1_455 S
C1635 C1637 1.394 . S
C1636 C1635 1.359 1_655 S
C1636 C1638 1.391 . S
C1636 H1639 0.929 . S
C1637 H1619 0.930 . S
C1637 N1633 1.334 . S
C1637 C1635 1.394 . S
C1638 C1634 1.413 . S
C1638 C1636 1.391 . S
C1638 C1653 1.437 . S
H1639 C1636 0.929 . S
O1640 Gd1596 2.545 . S
O1640 C1655 1.258 1_455 S
O1641 Gd1596 2.606 . S
O1641 Gd1597 2.366 . S
O1641 C1652 1.284 . S
O1642 Gd1597 2.339 . S
O1642 C1662 1.254 . S
O1643 Gd1596 2.429 . S
O1643 C1662 1.268 . S
O1644 Gd1596 2.545 . S
O1644 C1652 1.250 . S
O1645 Gd1596 2.412 1_655 S
O1645 C1655 1.252 . S
O1646 Gd1597 2.535 1_556 S
O1646 C1664 1.258 . S
O1647 Gd1596 2.362 . S
O1647 Gd1597 2.614 . S
O1647 C1663 1.284 . S
O1648 Gd1596 2.324 1_556 S
O1648 C1671 1.254 . S
O1649 Gd1597 2.419 1_556 S
O1649 C1671 1.268 . S
O1650 Gd1597 2.547 1_556 S
O1650 C1663 1.250 1_556 S
O1651 Gd1597 2.415 . S
O1651 C1664 1.252 1_554 S
C1652 O1641 1.284 . S
C1652 O1644 1.250 . S
C1653 H1622 0.929 . S
C1653 C1638 1.437 . S
C1653 C1654 1.317 . S
C1654 H1625 0.930 . S
C1654 C1630 1.431 . S
C1654 C1653 1.317 . S
C1655 Gd1596 2.828 1_655 S
C1655 O1640 1.258 1_655 S
C1655 O1645 1.252 . S
C1655 C1656 1.497 . S
C1656 C1655 1.497 . S
C1656 C1657 1.395 . S
C1656 C1658 1.380 . S
C1657 C1656 1.395 . S
C1657 C1660 1.398 . S
C1657 H1672 0.930 . S
C1658 C1656 1.380 . S
C1658 C1659 1.391 . S
C1658 H1673 0.930 . S
C1659 C1658 1.391 . S
C1659 C1661 1.387 . S
C1660 C1657 1.398 . S
C1660 C1661 1.380 . S
C1660 H1674 0.930 . S
C1661 C1659 1.387 . S
C1661 C1660 1.380 . S
C1661 H1675 0.930 . S
C1662 O1642 1.254 . S
C1662 O1643 1.268 . S
C1663 O1647 1.284 . S
C1663 O1650 1.250 1_554 S
C1664 Gd1597 2.825 1_556 S
C1664 O1646 1.258 . S
C1664 O1651 1.252 1_556 S
C1664 C1665 1.497 . S
C1665 C1664 1.497 . S
C1665 C1666 1.395 . S
C1665 C1667 1.380 . S
C1666 C1665 1.395 . S
C1666 C1669 1.398 . S
C1666 H1676 0.930 . S
C1667 C1665 1.380 . S
C1667 C1668 1.391 . S
C1667 H1677 0.930 1_556 S
C1668 C1667 1.391 . S
C1668 C1670 1.387 . S
C1669 C1666 1.398 . S
C1669 C1670 1.380 . S
C1669 H1678 0.930 . S
C1670 C1668 1.387 . S
C1670 C1669 1.380 . S
C1670 H1679 0.930 . S
C1671 O1648 1.254 . S
C1671 O1649 1.268 . S
H1672 C1657 0.930 . S
H1673 C1658 0.930 . S
H1674 C1660 0.930 . S
H1675 C1661 0.930 . S
H1676 C1666 0.930 . S
H1677 C1667 0.930 1_554 S
H1678 C1669 0.930 . S
H1679 C1670 0.930 . S
C1680 C1681 1.369 1_554 S
C1680 C1682 1.419 . S
C1680 H1684 0.930 . S
C1681 C1680 1.369 1_556 S
C1681 C1690 1.429 . S
C1682 C1680 1.419 . S
C1682 C1683 1.363 . S
C1682 H1685 0.929 . S
C1683 C1682 1.363 . S
C1683 C1689 1.428 1_554 S
H1684 C1680 0.930 . S
H1685 C1682 0.929 . S
S1686 N1687 1.613 . S
S1686 N1688 1.610 1_655 S
N1687 S1686 1.613 . S
N1687 C1690 1.350 1_655 S
N1688 S1686 1.610 1_455 S
N1688 C1689 1.351 . S
C1689 C1683 1.428 1_556 S
C1689 N1688 1.351 . S
C1689 C1690 1.434 . S
C1690 C1681 1.429 . S
C1690 N1687 1.350 1_455 S
C1690 C1689 1.434 . S
C1691 C1692 1.369 . S
C1691 C1693 1.419 . S
C1691 H1695 0.930 . S
C1692 C1691 1.369 . S
C1692 C1701 1.429 . S
C1693 C1691 1.419 . S
C1693 C1694 1.363 . S
C1693 H1696 0.929 . S
C1694 C1693 1.363 . S
C1694 C1700 1.428 . S
H1695 C1691 0.930 . S
H1696 C1693 0.929 . S
S1697 N1698 1.613 . S
S1697 N1699 1.610 . S
N1698 S1697 1.613 . S
N1698 C1701 1.350 . S
N1699 S1697 1.610 . S
N1699 C1700 1.351 . S
C1700 C1694 1.428 . S
C1700 N1699 1.351 . S
C1700 C1701 1.434 . S
C1701 C1692 1.429 . S
C1701 N1698 1.350 . S
C1701 C1700 1.434 . S
C1702 C1703 1.369 . S
C1702 C1704 1.419 . S
C1702 H1706 0.930 . S
C1703 C1702 1.369 . S
C1703 C1712 1.429 . S
C1704 C1702 1.419 . S
C1704 C1705 1.363 . S
C1704 H1707 0.929 . S
C1705 C1704 1.363 . S
C1705 C1711 1.428 . S
H1706 C1702 0.930 . S
H1707 C1704 0.929 . S
S1708 N1709 1.613 . S
S1708 N1710 1.610 . S
N1709 S1708 1.613 . S
N1709 C1712 1.350 . S
N1710 S1708 1.610 . S
N1710 C1711 1.351 . S
C1711 C1705 1.428 . S
C1711 N1710 1.351 . S
C1711 C1712 1.434 . S
C1712 C1703 1.429 . S
C1712 N1709 1.350 . S
C1712 C1711 1.434 . S
C1713 C1714 1.369 . S
C1713 C1715 1.419 . S
C1713 H1717 0.930 . S
C1714 C1713 1.369 . S
C1714 C1723 1.429 . S
C1715 C1713 1.419 . S
C1715 C1716 1.363 . S
C1715 H1718 0.929 . S
C1716 C1715 1.363 . S
C1716 C1722 1.428 . S
H1717 C1713 0.930 . S
H1718 C1715 0.929 . S
S1719 N1720 1.613 . S
S1719 N1721 1.610 . S
N1720 S1719 1.613 . S
N1720 C1723 1.350 . S
N1721 S1719 1.610 . S
N1721 C1722 1.351 . S
C1722 C1716 1.428 . S
C1722 N1721 1.351 . S
C1722 C1723 1.434 . S
C1723 C1714 1.429 . S
C1723 N1720 1.350 . S
C1723 C1722 1.434 . S
C1724 C1725 1.369 . S
C1724 C1726 1.419 . S
C1724 H1728 0.930 . S
C1725 C1724 1.369 . S
C1725 C1734 1.429 . S
C1726 C1724 1.419 . S
C1726 C1727 1.363 . S
C1726 H1729 0.929 . S
C1727 C1726 1.363 . S
C1727 C1733 1.428 . S
H1728 C1724 0.930 . S
H1729 C1726 0.929 . S
S1730 N1731 1.613 . S
S1730 N1732 1.610 . S
N1731 S1730 1.613 . S
N1731 C1734 1.350 . S
N1732 S1730 1.610 . S
N1732 C1733 1.351 . S
C1733 C1727 1.428 . S
C1733 N1732 1.351 . S
C1733 C1734 1.434 . S
C1734 C1725 1.429 . S
C1734 N1731 1.350 . S
C1734 C1733 1.434 . S
C1735 C1736 1.369 . S
C1735 C1737 1.419 . S
C1735 H1739 0.930 . S
C1736 C1735 1.369 . S
C1736 C1745 1.429 . S
C1737 C1735 1.419 . S
C1737 C1738 1.363 . S
C1737 H1740 0.929 . S
C1738 C1737 1.363 . S
C1738 C1744 1.428 . S
H1739 C1735 0.930 . S
H1740 C1737 0.929 . S
S1741 N1742 1.613 . S
S1741 N1743 1.610 . S
N1742 S1741 1.613 . S
N1742 C1745 1.350 . S
N1743 S1741 1.610 . S
N1743 C1744 1.351 . S
C1744 C1738 1.428 . S
C1744 N1743 1.351 . S
C1744 C1745 1.434 . S
C1745 C1736 1.429 . S
C1745 N1742 1.350 . S
C1745 C1744 1.434 . S
C1746 C1747 1.369 . S
C1746 C1748 1.419 . S
C1746 H1750 0.930 . S
C1747 C1746 1.369 . S
C1747 C1756 1.429 . S
C1748 C1746 1.419 . S
C1748 C1749 1.363 . S
C1748 H1751 0.929 . S
C1749 C1748 1.363 . S
C1749 C1755 1.428 . S
H1750 C1746 0.930 . S
H1751 C1748 0.929 . S
S1752 N1753 1.613 . S
S1752 N1754 1.610 . S
N1753 S1752 1.613 . S
N1753 C1756 1.350 . S
N1754 S1752 1.610 . S
N1754 C1755 1.351 . S
C1755 C1749 1.428 . S
C1755 N1754 1.351 . S
C1755 C1756 1.434 . S
C1756 C1747 1.429 . S
C1756 N1753 1.350 . S
C1756 C1755 1.434 . S
C1757 C1758 1.369 . S
C1757 C1759 1.419 . S
C1757 H1761 0.930 . S
C1758 C1757 1.369 . S
C1758 C1767 1.429 . S
C1759 C1757 1.419 . S
C1759 C1760 1.363 . S
C1759 H1762 0.929 . S
C1760 C1759 1.363 . S
C1760 C1766 1.428 . S
H1761 C1757 0.930 . S
H1762 C1759 0.929 . S
S1763 N1764 1.613 . S
S1763 N1765 1.610 . S
N1764 S1763 1.613 . S
N1764 C1767 1.350 . S
N1765 S1763 1.610 . S
N1765 C1766 1.351 . S
C1766 C1760 1.428 . S
C1766 N1765 1.351 . S
C1766 C1767 1.434 . S
C1767 C1758 1.429 . S
C1767 N1764 1.350 . S
C1767 C1766 1.434 . S
C1768 C1769 1.369 . S
C1768 C1770 1.419 . S
C1768 H1772 0.930 . S
C1769 C1768 1.369 . S
C1769 C1778 1.429 1_455 S
C1770 C1768 1.419 . S
C1770 C1771 1.363 . S
C1770 H1773 0.929 . S
C1771 C1770 1.363 . S
C1771 C1777 1.428 . S
H1772 C1768 0.930 . S
H1773 C1770 0.929 . S
S1774 N1775 1.613 1_565 S
S1774 N1776 1.610 1_565 S
N1775 S1774 1.613 1_545 S
N1775 C1778 1.350 . S
N1776 S1774 1.610 1_545 S
N1776 C1777 1.351 1_655 S
C1777 C1771 1.428 . S
C1777 N1776 1.351 1_455 S
C1777 C1778 1.434 1_455 S
C1778 C1769 1.429 1_655 S
C1778 N1775 1.350 . S
C1778 C1777 1.434 1_655 S
C1779 C1780 1.369 . S
C1779 C1781 1.419 . S
C1779 H1783 0.930 . S
C1780 C1779 1.369 . S
C1780 C1789 1.429 . S
C1781 C1779 1.419 . S
C1781 C1782 1.363 . S
C1781 H1784 0.929 . S
C1782 C1781 1.363 . S
C1782 C1788 1.428 . S
H1783 C1779 0.930 . S
H1784 C1781 0.929 . S
S1785 N1786 1.613 . S
S1785 N1787 1.610 . S
N1786 S1785 1.613 . S
N1786 C1789 1.350 . S
N1787 S1785 1.610 . S
N1787 C1788 1.351 . S
C1788 C1782 1.428 . S
C1788 N1787 1.351 . S
C1788 C1789 1.434 . S
C1789 C1780 1.429 . S
C1789 N1786 1.350 . S
C1789 C1788 1.434 . S
C1790 C1791 1.369 . S
C1790 C1792 1.419 . S
C1790 H1794 0.930 . S
C1791 C1790 1.369 . S
C1791 C1800 1.429 . S
C1792 C1790 1.419 . S
C1792 C1793 1.363 . S
C1792 H1795 0.929 . S
C1793 C1792 1.363 . S
C1793 C1799 1.428 . S
H1794 C1790 0.930 . S
H1795 C1792 0.929 . S
S1796 N1797 1.613 . S
S1796 N1798 1.610 . S
N1797 S1796 1.613 . S
N1797 C1800 1.350 1_565 S
N1798 S1796 1.610 . S
N1798 C1799 1.351 1_565 S
C1799 C1793 1.428 . S
C1799 N1798 1.351 1_545 S
C1799 C1800 1.434 . S
C1800 C1791 1.429 . S
C1800 N1797 1.350 1_545 S
C1800 C1799 1.434 . S
C1801 C1802 1.369 . S
C1801 C1803 1.419 . S
C1801 H1805 0.930 . S
C1802 C1801 1.369 . S
C1802 C1811 1.429 . S
C1803 C1801 1.419 . S
C1803 C1804 1.363 . S
C1803 H1806 0.929 . S
C1804 C1803 1.363 . S
C1804 C1810 1.428 . S
H1805 C1801 0.930 . S
H1806 C1803 0.929 . S
S1807 N1808 1.613 . S
S1807 N1809 1.610 . S
N1808 S1807 1.613 . S
N1808 C1811 1.350 . S
N1809 S1807 1.610 . S
N1809 C1810 1.351 . S
C1810 C1804 1.428 . S
C1810 N1809 1.351 . S
C1810 C1811 1.434 . S
C1811 C1802 1.429 . S
C1811 N1808 1.350 . S
C1811 C1810 1.434 . S
C1812 C1813 1.369 1_655 S
C1812 C1814 1.419 1_655 S
C1812 H1816 0.930 . S
C1813 C1812 1.369 1_455 S
C1813 C1822 1.429 . S
C1814 C1812 1.419 1_455 S
C1814 C1815 1.363 . S
C1814 H1817 0.929 . S
C1815 C1814 1.363 . S
C1815 C1821 1.428 . S
H1816 C1812 0.930 . S
H1817 C1814 0.929 . S
S1818 N1819 1.613 . S
S1818 N1820 1.610 . S
N1819 S1818 1.613 . S
N1819 C1822 1.350 . S
N1820 S1818 1.610 . S
N1820 C1821 1.351 . S
C1821 C1815 1.428 . S
C1821 N1820 1.351 . S
C1821 C1822 1.434 . S
C1822 C1813 1.429 . S
C1822 N1819 1.350 . S
C1822 C1821 1.434 . S
C1823 C1824 1.369 . S
C1823 C1825 1.419 . S
C1823 H1827 0.930 . S
C1824 C1823 1.369 . S
C1824 C1833 1.429 . S
C1825 C1823 1.419 . S
C1825 C1826 1.363 . S
C1825 H1828 0.929 . S
C1826 C1825 1.363 . S
C1826 C1832 1.428 . S
H1827 C1823 0.930 . S
H1828 C1825 0.929 . S
S1829 N1830 1.613 . S
S1829 N1831 1.610 . S
N1830 S1829 1.613 . S
N1830 C1833 1.350 . S
N1831 S1829 1.610 . S
N1831 C1832 1.351 . S
C1832 C1826 1.428 . S
C1832 N1831 1.351 . S
C1832 C1833 1.434 . S
C1833 C1824 1.429 . S
C1833 N1830 1.350 . S
C1833 C1832 1.434 . S
C1834 C1835 1.369 . S
C1834 C1836 1.419 . S
C1834 H1838 0.930 . S
C1835 C1834 1.369 . S
C1835 C1844 1.429 . S
C1836 C1834 1.419 . S
C1836 C1837 1.363 . S
C1836 H1839 0.929 . S
C1837 C1836 1.363 . S
C1837 C1843 1.428 . S
H1838 C1834 0.930 . S
H1839 C1836 0.929 . S
S1840 N1841 1.613 . S
S1840 N1842 1.610 . S
N1841 S1840 1.613 . S
N1841 C1844 1.350 . S
N1842 S1840 1.610 . S
N1842 C1843 1.351 . S
C1843 C1837 1.428 . S
C1843 N1842 1.351 . S
C1843 C1844 1.434 . S
C1844 C1835 1.429 . S
C1844 N1841 1.350 . S
C1844 C1843 1.434 . S
C1845 C1846 1.369 . S
C1845 C1847 1.419 . S
C1845 H1849 0.930 . S
C1846 C1845 1.369 . S
C1846 C1855 1.429 . S
C1847 C1845 1.419 . S
C1847 C1848 1.363 . S
C1847 H1850 0.929 . S
C1848 C1847 1.363 . S
C1848 C1854 1.428 . S
H1849 C1845 0.930 . S
H1850 C1847 0.929 . S
S1851 N1852 1.613 . S
S1851 N1853 1.610 . S
N1852 S1851 1.613 . S
N1852 C1855 1.350 . S
N1853 S1851 1.610 . S
N1853 C1854 1.351 . S
C1854 C1848 1.428 . S
C1854 N1853 1.351 . S
C1854 C1855 1.434 . S
C1855 C1846 1.429 . S
C1855 N1852 1.350 . S
C1855 C1854 1.434 . S
C1856 C1857 1.369 . S
C1856 C1858 1.419 . S
C1856 H1860 0.930 . S
C1857 C1856 1.369 . S
C1857 C1866 1.447 1_554 S
C1858 C1856 1.419 . S
C1858 C1859 1.363 1_565 S
C1858 H1861 0.929 . S
C1859 C1858 1.363 1_545 S
C1859 C1865 1.428 . S
H1860 C1856 0.930 . S
H1861 C1858 0.929 . S
S1862 N1863 1.613 . S
S1862 N1864 1.610 . S
N1863 S1862 1.613 . S
N1863 C1866 1.340 1_545 S
N1864 S1862 1.610 . S
N1864 C1865 1.351 1_556 S
C1865 C1859 1.428 . S
C1865 N1864 1.351 1_554 S
C1865 C1866 1.423 1_544 S
C1866 C1857 1.447 1_556 S
C1866 N1863 1.340 1_565 S
C1866 C1865 1.423 1_566 S
C1867 C1868 1.369 . S
C1867 C1869 1.419 . S
C1867 H1871 0.930 . S
C1868 C1867 1.369 . S
C1868 C1877 1.429 1_556 S
C1869 C1867 1.419 . S
C1869 C1870 1.363 . S
C1869 H1872 0.929 . S
C1870 C1869 1.363 . S
C1870 C1876 1.428 1_556 S
H1871 C1867 0.930 . S
H1872 C1869 0.929 . S
S1873 N1874 1.613 . S
S1873 N1875 1.610 . S
N1874 S1873 1.613 . S
N1874 C1877 1.350 . S
N1875 S1873 1.610 . S
N1875 C1876 1.351 . S
C1876 C1870 1.428 1_554 S
C1876 N1875 1.351 . S
C1876 C1877 1.434 . S
C1877 C1868 1.429 1_554 S
C1877 N1874 1.350 . S
C1877 C1876 1.434 . S
C1878 C1879 1.369 . S
C1878 C1880 1.419 . S
C1878 H1882 0.930 . S
C1879 C1878 1.369 . S
C1879 C1888 1.429 . S
C1880 C1878 1.419 . S
C1880 C1881 1.363 . S
C1880 H1883 0.929 . S
C1881 C1880 1.363 . S
C1881 C1887 1.428 . S
H1882 C1878 0.930 . S
H1883 C1880 0.929 . S
S1884 N1885 1.613 . S
S1884 N1886 1.610 . S
N1885 S1884 1.613 . S
N1885 C1888 1.350 . S
N1886 S1884 1.610 . S
N1886 C1887 1.351 . S
C1887 C1881 1.428 . S
C1887 N1886 1.351 . S
C1887 C1888 1.434 . S
C1888 C1879 1.429 . S
C1888 N1885 1.350 . S
C1888 C1887 1.434 . S
C1889 C1890 1.369 . S
C1889 C1891 1.419 . S
C1889 H1893 0.930 . S
C1890 C1889 1.369 . S
C1890 C1899 1.429 . S
C1891 C1889 1.419 . S
C1891 C1892 1.363 1_655 S
C1891 H1894 0.929 . S
C1892 C1891 1.363 1_455 S
C1892 C1898 1.428 1_455 S
H1893 C1889 0.930 . S
H1894 C1891 0.929 . S
S1895 N1896 1.613 . S
S1895 N1897 1.610 1_655 S
N1896 S1895 1.613 . S
N1896 C1899 1.350 . S
N1897 S1895 1.610 1_455 S
N1897 C1898 1.351 1_455 S
C1898 C1892 1.428 1_655 S
C1898 N1897 1.351 1_655 S
C1898 C1899 1.434 . S
C1899 C1890 1.429 . S
C1899 N1896 1.350 . S
C1899 C1898 1.434 . S
C1900 C1901 1.369 . S
C1900 C1902 1.419 . S
C1900 H1904 0.930 . S
C1901 C1900 1.369 . S
C1901 C1910 1.429 . S
C1902 C1900 1.419 . S
C1902 C1903 1.363 . S
C1902 H1905 0.929 . S
C1903 C1902 1.363 . S
C1903 C1909 1.428 . S
H1904 C1900 0.930 . S
H1905 C1902 0.929 . S
S1906 N1907 1.613 . S
S1906 N1908 1.610 . S
N1907 S1906 1.613 . S
N1907 C1910 1.350 . S
N1908 S1906 1.610 . S
N1908 C1909 1.351 . S
C1909 C1903 1.428 . S
C1909 N1908 1.351 . S
C1909 C1910 1.434 . S
C1910 C1901 1.429 . S
C1910 N1907 1.350 . S
C1910 C1909 1.434 . S
C1911 C1912 1.369 . S
C1911 C1913 1.419 . S
C1911 H1915 0.930 . S
C1912 C1911 1.369 . S
C1912 C1921 1.429 . S
C1913 C1911 1.419 . S
C1913 C1914 1.363 . S
C1913 H1916 0.929 . S
C1914 C1913 1.363 . S
C1914 C1920 1.428 . S
H1915 C1911 0.930 . S
H1916 C1913 0.929 . S
S1917 N1918 1.613 . S
S1917 N1919 1.610 . S
N1918 S1917 1.613 . S
N1918 C1921 1.350 . S
N1919 S1917 1.610 . S
N1919 C1920 1.351 . S
C1920 C1914 1.428 . S
C1920 N1919 1.351 . S
C1920 C1921 1.434 . S
C1921 C1912 1.429 . S
C1921 N1918 1.350 . S
C1921 C1920 1.434 . S
C1922 C1923 1.369 . S
C1922 C1924 1.419 . S
C1922 H1926 0.930 . S
C1923 C1922 1.369 . S
C1923 C1932 1.429 . S
C1924 C1922 1.419 . S
C1924 C1925 1.363 . S
C1924 H1927 0.929 . S
C1925 C1924 1.363 . S
C1925 C1931 1.428 . S
H1926 C1922 0.930 . S
H1927 C1924 0.929 . S
S1928 N1929 1.613 . S
S1928 N1930 1.610 . S
N1929 S1928 1.613 . S
N1929 C1932 1.350 . S
N1930 S1928 1.610 . S
N1930 C1931 1.351 . S
C1931 C1925 1.428 . S
C1931 N1930 1.351 . S
C1931 C1932 1.434 . S
C1932 C1923 1.429 . S
C1932 N1929 1.350 . S
C1932 C1931 1.434 . S
C1933 C1934 1.369 . S
C1933 C1935 1.419 . S
C1933 H1937 0.930 . S
C1934 C1933 1.369 . S
C1934 C1943 1.429 . S
C1935 C1933 1.419 . S
C1935 C1936 1.363 . S
C1935 H1938 0.929 . S
C1936 C1935 1.363 . S
C1936 C1942 1.428 . S
H1937 C1933 0.930 . S
H1938 C1935 0.929 . S
S1939 N1940 1.613 . S
S1939 N1941 1.610 . S
N1940 S1939 1.613 . S
N1940 C1943 1.350 . S
N1941 S1939 1.610 . S
N1941 C1942 1.351 . S
C1942 C1936 1.428 . S
C1942 N1941 1.351 . S
C1942 C1943 1.434 . S
C1943 C1934 1.429 . S
C1943 N1940 1.350 . S
C1943 C1942 1.434 . S
C1944 C1945 1.369 . S
C1944 C1946 1.419 . S
C1944 H1948 0.930 . S
C1945 C1944 1.369 . S
C1945 C1954 1.429 . S
C1946 C1944 1.419 . S
C1946 C1947 1.363 . S
C1946 H1949 0.929 . S
C1947 C1946 1.363 . S
C1947 C1953 1.428 . S
H1948 C1944 0.930 . S
H1949 C1946 0.929 . S
S1950 N1951 1.613 . S
S1950 N1952 1.610 . S
N1951 S1950 1.613 . S
N1951 C1954 1.350 . S
N1952 S1950 1.610 . S
N1952 C1953 1.351 . S
C1953 C1947 1.428 . S
C1953 N1952 1.351 . S
C1953 C1954 1.434 . S
C1954 C1945 1.429 . S
C1954 N1951 1.350 . S
C1954 C1953 1.434 . S
C1955 C1956 1.369 . S
C1955 C1957 1.419 . S
C1955 H1959 0.930 . S
C1956 C1955 1.369 . S
C1956 C1965 1.429 . S
C1957 C1955 1.419 . S
C1957 C1958 1.363 . S
C1957 H1960 0.929 . S
C1958 C1957 1.363 . S
C1958 C1964 1.428 . S
H1959 C1955 0.930 . S
H1960 C1957 0.929 . S
S1961 N1962 1.613 . S
S1961 N1963 1.610 . S
N1962 S1961 1.613 . S
N1962 C1965 1.350 . S
N1963 S1961 1.610 . S
N1963 C1964 1.351 . S
C1964 C1958 1.428 . S
C1964 N1963 1.351 . S
C1964 C1965 1.434 . S
C1965 C1956 1.429 . S
C1965 N1962 1.350 . S
C1965 C1964 1.434 . S
C1966 C1967 1.369 . S
C1966 C1968 1.419 . S
C1966 H1970 0.930 . S
C1967 C1966 1.369 . S
C1967 C1976 1.429 . S
C1968 C1966 1.419 . S
C1968 C1969 1.363 . S
C1968 H1971 0.929 . S
C1969 C1968 1.363 . S
C1969 C1975 1.428 . S
H1970 C1966 0.930 . S
H1971 C1968 0.929 . S
S1972 N1973 1.613 . S
S1972 N1974 1.610 . S
N1973 S1972 1.613 . S
N1973 C1976 1.350 . S
N1974 S1972 1.610 . S
N1974 C1975 1.351 . S
C1975 C1969 1.428 . S
C1975 N1974 1.351 . S
C1975 C1976 1.434 . S
C1976 C1967 1.429 . S
C1976 N1973 1.350 . S
C1976 C1975 1.434 . S
C1977 C1978 1.369 . S
C1977 C1979 1.419 . S
C1977 H1981 0.930 . S
C1978 C1977 1.369 . S
C1978 C1987 1.429 . S
C1979 C1977 1.419 . S
C1979 C1980 1.363 . S
C1979 H1982 0.929 . S
C1980 C1979 1.363 . S
C1980 C1986 1.428 . S
H1981 C1977 0.930 . S
H1982 C1979 0.929 . S
S1983 N1984 1.613 . S
S1983 N1985 1.610 . S
N1984 S1983 1.613 . S
N1984 C1987 1.350 . S
N1985 S1983 1.610 . S
N1985 C1986 1.351 . S
C1986 C1980 1.428 . S
C1986 N1985 1.351 . S
C1986 C1987 1.434 . S
C1987 C1978 1.429 . S
C1987 N1984 1.350 . S
C1987 C1986 1.434 . S
C1988 C1989 1.369 . S
C1988 C1990 1.419 . S
C1988 H1992 0.930 . S
C1989 C1988 1.369 . S
C1989 C1998 1.429 . S
C1990 C1988 1.419 . S
C1990 C1991 1.363 . S
C1990 H1993 0.929 . S
C1991 C1990 1.363 . S
C1991 C1997 1.428 . S
H1992 C1988 0.930 . S
H1993 C1990 0.929 . S
S1994 N1995 1.613 . S
S1994 N1996 1.610 . S
N1995 S1994 1.613 . S
N1995 C1998 1.350 . S
N1996 S1994 1.610 . S
N1996 C1997 1.351 . S
C1997 C1991 1.428 . S
C1997 N1996 1.351 . S
C1997 C1998 1.434 . S
C1998 C1989 1.429 . S
C1998 N1995 1.350 . S
C1998 C1997 1.434 . S
C1999 C2000 1.369 . S
C1999 C2001 1.419 . S
C1999 H2003 0.930 . S
C2000 C1999 1.369 . S
C2000 C2009 1.429 . S
C2001 C1999 1.419 . S
C2001 C2002 1.363 . S
C2001 H2004 0.929 . S
C2002 C2001 1.363 . S
C2002 C2008 1.428 . S
H2003 C1999 0.930 . S
H2004 C2001 0.929 . S
S2005 N2006 1.613 . S
S2005 N2007 1.610 . S
N2006 S2005 1.613 . S
N2006 C2009 1.350 . S
N2007 S2005 1.610 . S
N2007 C2008 1.351 . S
C2008 C2002 1.428 . S
C2008 N2007 1.351 . S
C2008 C2009 1.434 . S
C2009 C2000 1.429 . S
C2009 N2006 1.350 . S
C2009 C2008 1.434 . S
C2010 C2011 1.369 . S
C2010 C2012 1.419 . S
C2010 H2014 0.930 . S
C2011 C2010 1.369 . S
C2011 C2020 1.429 . S
C2012 C2010 1.419 . S
C2012 C2013 1.363 . S
C2012 H2015 0.929 . S
C2013 C2012 1.363 . S
C2013 C2019 1.428 . S
H2014 C2010 0.930 . S
H2015 C2012 0.929 . S
S2016 N2017 1.613 1_544 S
S2016 N2018 1.603 . S
N2017 S2016 1.613 1_566 S
N2017 C2020 1.350 . S
N2018 S2016 1.603 . S
N2018 C2019 1.336 1_544 S
C2019 C2013 1.428 . S
C2019 N2018 1.336 1_566 S
C2019 C2020 1.434 . S
C2020 C2011 1.429 . S
C2020 N2017 1.350 . S
C2020 C2019 1.434 . S
C2021 C2022 1.369 . S
C2021 C2023 1.419 . S
C2021 H2025 0.930 . S
C2022 C2021 1.369 . S
C2022 C2031 1.429 . S
C2023 C2021 1.419 . S
C2023 C2024 1.363 . S
C2023 H2026 0.929 . S
C2024 C2023 1.363 . S
C2024 C2030 1.428 . S
H2025 C2021 0.930 . S
H2026 C2023 0.929 . S
S2027 N2028 1.613 . S
S2027 N2029 1.610 . S
N2028 S2027 1.613 . S
N2028 C2031 1.350 . S
N2029 S2027 1.610 . S
N2029 C2030 1.351 . S
C2030 C2024 1.428 . S
C2030 N2029 1.351 . S
C2030 C2031 1.434 . S
C2031 C2022 1.429 . S
C2031 N2028 1.350 . S
C2031 C2030 1.434 . S
C2032 C2033 1.369 1_565 S
C2032 C2034 1.419 . S
C2032 H2036 0.930 . S
C2033 C2032 1.369 1_545 S
C2033 C2042 1.429 . S
C2034 C2032 1.419 . S
C2034 C2035 1.363 1_565 S
C2034 H2037 0.929 . S
C2035 C2034 1.363 1_545 S
C2035 C2041 1.428 . S
H2036 C2032 0.930 . S
H2037 C2034 0.929 . S
S2038 N2039 1.613 . S
S2038 N2040 1.610 . S
N2039 S2038 1.613 . S
N2039 C2042 1.350 . S
N2040 S2038 1.610 . S
N2040 C2041 1.351 . S
C2041 C2035 1.428 . S
C2041 N2040 1.351 . S
C2041 C2042 1.434 . S
C2042 C2033 1.429 . S
C2042 N2039 1.350 . S
C2042 C2041 1.434 . S
C2043 C2044 1.369 . S
C2043 C2045 1.419 . S
C2043 H2047 0.930 . S
C2044 C2043 1.369 . S
C2044 C2053 1.429 . S
C2045 C2043 1.419 . S
C2045 C2046 1.363 . S
C2045 H2048 0.929 . S
C2046 C2045 1.363 . S
C2046 C2052 1.428 . S
H2047 C2043 0.930 . S
H2048 C2045 0.929 . S
S2049 N2050 1.613 . S
S2049 N2051 1.610 . S
N2050 S2049 1.613 . S
N2050 C2053 1.350 . S
N2051 S2049 1.610 . S
N2051 C2052 1.351 . S
C2052 C2046 1.428 . S
C2052 N2051 1.351 . S
C2052 C2053 1.434 . S
C2053 C2044 1.429 . S
C2053 N2050 1.350 . S
C2053 C2052 1.434 . S
C2054 C2055 1.369 1_565 S
C2054 C2056 1.419 1_565 S
C2054 H2058 0.930 . S
C2055 C2054 1.369 1_545 S
C2055 C2064 1.429 . S
C2056 C2054 1.419 1_545 S
C2056 C2057 1.363 . S
C2056 H2059 0.929 1_545 S
C2057 C2056 1.363 . S
C2057 C2063 1.428 . S
H2058 C2054 0.930 . S
H2059 C2056 0.929 1_565 S
S2060 N2061 1.613 . S
S2060 N2062 1.610 . S
N2061 S2060 1.613 . S
N2061 C2064 1.350 . S
N2062 S2060 1.610 . S
N2062 C2063 1.351 . S
C2063 C2057 1.428 . S
C2063 N2062 1.351 . S
C2063 C2064 1.434 . S
C2064 C2055 1.429 . S
C2064 N2061 1.350 . S
C2064 C2063 1.434 . S
C2065 C2066 1.369 . S
C2065 C2067 1.419 . S
C2065 H2069 0.930 . S
C2066 C2065 1.369 . S
C2066 C2075 1.429 . S
C2067 C2065 1.419 . S
C2067 C2068 1.363 . S
C2067 H2070 0.929 . S
C2068 C2067 1.363 . S
C2068 C2074 1.428 . S
H2069 C2065 0.930 . S
H2070 C2067 0.929 . S
S2071 N2072 1.613 . S
S2071 N2073 1.610 . S
N2072 S2071 1.613 . S
N2072 C2075 1.350 . S
N2073 S2071 1.610 . S
N2073 C2074 1.351 . S
C2074 C2068 1.428 . S
C2074 N2073 1.351 . S
C2074 C2075 1.434 . S
C2075 C2066 1.429 . S
C2075 N2072 1.350 . S
C2075 C2074 1.434 . S
C2076 C2077 1.369 . S
C2076 C2078 1.419 1_565 S
C2076 H2080 0.930 . S
C2077 C2076 1.369 . S
C2077 C2086 1.429 1_565 S
C2078 C2076 1.419 1_545 S
C2078 C2079 1.363 . S
C2078 H2081 0.929 . S
C2079 C2078 1.363 . S
C2079 C2085 1.428 . S
H2080 C2076 0.930 . S
H2081 C2078 0.929 . S
S2082 N2083 1.613 . S
S2082 N2084 1.610 . S
N2083 S2082 1.613 . S
N2083 C2086 1.350 . S
N2084 S2082 1.610 . S
N2084 C2085 1.351 . S
C2085 C2079 1.428 . S
C2085 N2084 1.351 . S
C2085 C2086 1.434 . S
C2086 C2077 1.429 1_545 S
C2086 N2083 1.350 . S
C2086 C2085 1.434 . S
C2087 C2088 1.369 . S
C2087 C2089 1.419 . S
C2087 H2091 0.930 . S
C2088 C2087 1.369 . S
C2088 C2097 1.429 . S
C2089 C2087 1.419 . S
C2089 C2090 1.363 . S
C2089 H2092 0.929 . S
C2090 C2089 1.363 . S
C2090 C2096 1.428 . S
H2091 C2087 0.930 . S
H2092 C2089 0.929 . S
S2093 N2094 1.613 . S
S2093 N2095 1.610 . S
N2094 S2093 1.613 . S
N2094 C2097 1.350 . S
N2095 S2093 1.610 . S
N2095 C2096 1.351 . S
C2096 C2090 1.428 . S
C2096 N2095 1.351 . S
C2096 C2097 1.434 . S
C2097 C2088 1.429 . S
C2097 N2094 1.350 . S
C2097 C2096 1.434 . S
C2098 C2099 1.383 . S
C2098 C2100 1.419 . S
C2098 H2102 0.930 . S
C2099 C2098 1.383 . S
C2099 C2108 1.409 1_565 S
C2100 C2098 1.419 . S
C2100 C2101 1.363 1_565 S
C2100 H2103 0.929 . S
C2101 C2100 1.363 1_545 S
C2101 C2107 1.428 . S
H2102 C2098 0.930 . S
H2103 C2100 0.929 . S
S2104 N2105 1.613 . S
S2104 N2106 1.610 . S
N2105 S2104 1.613 . S
N2105 C2108 1.350 . S
N2106 S2104 1.610 . S
N2106 C2107 1.351 . S
C2107 C2101 1.428 . S
C2107 N2106 1.351 . S
C2107 C2108 1.434 . S
C2108 C2099 1.409 1_545 S
C2108 N2105 1.350 . S
C2108 C2107 1.434 . S
C2109 C2110 1.369 . S
C2109 C2111 1.419 . S
C2109 H2113 0.930 . S
C2110 C2109 1.369 . S
C2110 C2119 1.429 . S
C2111 C2109 1.419 . S
C2111 C2112 1.363 . S
C2111 H2114 0.929 . S
C2112 C2111 1.363 . S
C2112 C2118 1.428 . S
H2113 C2109 0.930 . S
H2114 C2111 0.929 . S
S2115 N2116 1.613 . S
S2115 N2117 1.610 . S
N2116 S2115 1.613 . S
N2116 C2119 1.350 . S
N2117 S2115 1.610 . S
N2117 C2118 1.351 . S
C2118 C2112 1.428 . S
C2118 N2117 1.351 . S
C2118 C2119 1.434 . S
C2119 C2110 1.429 . S
C2119 N2116 1.350 . S
C2119 C2118 1.434 . S
C2120 C2121 1.369 . S
C2120 C2122 1.419 . S
C2120 H2124 0.930 . S
C2121 C2120 1.369 . S
C2121 C2130 1.429 . S
C2122 C2120 1.419 . S
C2122 C2123 1.363 . S
C2122 H2125 0.929 . S
C2123 C2122 1.363 . S
C2123 C2129 1.428 1_554 S
H2124 C2120 0.930 . S
H2125 C2122 0.929 . S
S2126 N2127 1.613 . S
S2126 N2128 1.610 . S
N2127 S2126 1.613 . S
N2127 C2130 1.350 1_556 S
N2128 S2126 1.610 . S
N2128 C2129 1.351 . S
C2129 C2123 1.428 1_556 S
C2129 N2128 1.351 . S
C2129 C2130 1.434 1_556 S
C2130 C2121 1.429 . S
C2130 N2127 1.350 1_554 S
C2130 C2129 1.434 1_554 S
C2131 C2132 1.369 . S
C2131 C2133 1.419 . S
C2131 H2135 0.930 . S
C2132 C2131 1.369 . S
C2132 C2141 1.429 . S
C2133 C2131 1.419 . S
C2133 C2134 1.363 . S
C2133 H2136 0.929 . S
C2134 C2133 1.363 . S
C2134 C2140 1.428 . S
H2135 C2131 0.930 . S
H2136 C2133 0.929 . S
S2137 N2138 1.613 . S
S2137 N2139 1.610 . S
N2138 S2137 1.613 . S
N2138 C2141 1.350 . S
N2139 S2137 1.610 . S
N2139 C2140 1.351 . S
C2140 C2134 1.428 . S
C2140 N2139 1.351 . S
C2140 C2141 1.434 . S
C2141 C2132 1.429 . S
C2141 N2138 1.350 . S
C2141 C2140 1.434 . S
C2142 C2143 1.369 . S
C2142 C2144 1.419 . S
C2142 H2146 0.930 . S
C2143 C2142 1.369 . S
C2143 C2152 1.429 . S
C2144 C2142 1.419 . S
C2144 C2145 1.363 . S
C2144 H2147 0.929 . S
C2145 C2144 1.363 . S
C2145 C2151 1.428 . S
H2146 C2142 0.930 . S
H2147 C2144 0.929 . S
S2148 N2149 1.613 . S
S2148 N2150 1.610 . S
N2149 S2148 1.613 . S
N2149 C2152 1.350 . S
N2150 S2148 1.610 . S
N2150 C2151 1.351 . S
C2151 C2145 1.428 . S
C2151 N2150 1.351 . S
C2151 C2152 1.434 . S
C2152 C2143 1.429 . S
C2152 N2149 1.350 . S
C2152 C2151 1.434 . S
C2153 C2154 1.369 . S
C2153 C2155 1.419 . S
C2153 H2157 0.930 . S
C2154 C2153 1.369 . S
C2154 C2163 1.429 . S
C2155 C2153 1.419 . S
C2155 C2156 1.363 . S
C2155 H2158 0.929 . S
C2156 C2155 1.363 . S
C2156 C2162 1.428 . S
H2157 C2153 0.930 . S
H2158 C2155 0.929 . S
S2159 N2160 1.613 . S
S2159 N2161 1.610 . S
N2160 S2159 1.613 . S
N2160 C2163 1.350 . S
N2161 S2159 1.610 . S
N2161 C2162 1.351 . S
C2162 C2156 1.428 . S
C2162 N2161 1.351 . S
C2162 C2163 1.434 . S
C2163 C2154 1.429 . S
C2163 N2160 1.350 . S
C2163 C2162 1.434 . S
C2164 C2165 1.369 . S
C2164 C2166 1.419 . S
C2164 H2168 0.930 . S
C2165 C2164 1.369 . S
C2165 C2174 1.429 . S
C2166 C2164 1.419 . S
C2166 C2167 1.363 . S
C2166 H2169 0.929 . S
C2167 C2166 1.363 . S
C2167 C2173 1.428 . S
H2168 C2164 0.930 . S
H2169 C2166 0.929 . S
S2170 N2171 1.619 1_545 S
S2170 N2172 1.598 1_545 S
N2171 S2170 1.619 1_565 S
N2171 C2174 1.350 . S
N2172 S2170 1.598 1_565 S
N2172 C2173 1.351 . S
C2173 C2167 1.428 . S
C2173 N2172 1.351 . S
C2173 C2174 1.434 . S
C2174 C2165 1.429 . S
C2174 N2171 1.350 . S
C2174 C2173 1.434 . S
C2175 C2176 1.369 . S
C2175 C2177 1.419 . S
C2175 H2179 0.930 . S
C2176 C2175 1.369 . S
C2176 C2185 1.429 . S
C2177 C2175 1.419 . S
C2177 C2178 1.363 . S
C2177 H2180 0.929 . S
C2178 C2177 1.363 . S
C2178 C2184 1.428 . S
H2179 C2175 0.930 . S
H2180 C2177 0.929 . S
S2181 N2182 1.613 . S
S2181 N2183 1.610 . S
N2182 S2181 1.613 . S
N2182 C2185 1.350 . S
N2183 S2181 1.610 . S
N2183 C2184 1.351 . S
C2184 C2178 1.428 . S
C2184 N2183 1.351 . S
C2184 C2185 1.434 . S
C2185 C2176 1.429 . S
C2185 N2182 1.350 . S
C2185 C2184 1.434 . S
C2186 C2187 1.369 . S
C2186 C2188 1.419 . S
C2186 H2190 0.930 . S
C2187 C2186 1.369 . S
C2187 C2196 1.429 . S
C2188 C2186 1.419 . S
C2188 C2189 1.363 . S
C2188 H2191 0.929 . S
C2189 C2188 1.363 . S
C2189 C2195 1.428 . S
H2190 C2186 0.930 . S
H2191 C2188 0.929 . S
S2192 N2193 1.613 . S
S2192 N2194 1.610 . S
N2193 S2192 1.613 . S
N2193 C2196 1.350 . S
N2194 S2192 1.610 . S
N2194 C2195 1.351 . S
C2195 C2189 1.428 . S
C2195 N2194 1.351 . S
C2195 C2196 1.434 . S
C2196 C2187 1.429 . S
C2196 N2193 1.350 . S
C2196 C2195 1.434 . S
C2197 C2198 1.369 . S
C2197 C2199 1.419 . S
C2197 H2201 0.930 . S
C2198 C2197 1.369 . S
C2198 C2207 1.429 . S
C2199 C2197 1.419 . S
C2199 C2200 1.363 . S
C2199 H2202 0.929 . S
C2200 C2199 1.363 . S
C2200 C2206 1.428 . S
H2201 C2197 0.930 . S
H2202 C2199 0.929 . S
S2203 N2204 1.613 . S
S2203 N2205 1.610 . S
N2204 S2203 1.613 . S
N2204 C2207 1.350 . S
N2205 S2203 1.610 . S
N2205 C2206 1.351 . S
C2206 C2200 1.428 . S
C2206 N2205 1.351 . S
C2206 C2207 1.434 . S
C2207 C2198 1.429 . S
C2207 N2204 1.350 . S
C2207 C2206 1.434 . S
C2208 C2209 1.369 . S
C2208 C2210 1.419 . S
C2208 H2212 0.930 . S
C2209 C2208 1.369 . S
C2209 C2218 1.429 . S
C2210 C2208 1.419 . S
C2210 C2211 1.363 . S
C2210 H2213 0.929 . S
C2211 C2210 1.363 . S
C2211 C2217 1.428 . S
H2212 C2208 0.930 . S
H2213 C2210 0.929 . S
S2214 N2215 1.613 . S
S2214 N2216 1.610 . S
N2215 S2214 1.613 . S
N2215 C2218 1.350 . S
N2216 S2214 1.610 . S
N2216 C2217 1.351 . S
C2217 C2211 1.428 . S
C2217 N2216 1.351 . S
C2217 C2218 1.434 . S
C2218 C2209 1.429 . S
C2218 N2215 1.350 . S
C2218 C2217 1.434 . S
C2219 C2220 1.369 . S
C2219 C2221 1.419 . S
C2219 H2223 0.930 . S
C2220 C2219 1.369 . S
C2220 C2229 1.429 . S
C2221 C2219 1.419 . S
C2221 C2222 1.363 . S
C2221 H2224 0.929 . S
C2222 C2221 1.363 . S
C2222 C2228 1.428 . S
H2223 C2219 0.930 . S
H2224 C2221 0.929 . S
S2225 N2226 1.613 . S
S2225 N2227 1.610 . S
N2226 S2225 1.613 . S
N2226 C2229 1.350 . S
N2227 S2225 1.610 . S
N2227 C2228 1.351 . S
C2228 C2222 1.428 . S
C2228 N2227 1.351 . S
C2228 C2229 1.434 . S
C2229 C2220 1.429 . S
C2229 N2226 1.350 . S
C2229 C2228 1.434 . S
C2230 C2231 1.369 1_554 S
C2230 C2232 1.419 . S
C2230 H2234 0.930 . S
C2231 C2230 1.369 1_556 S
C2231 C2240 1.429 . S
C2232 C2230 1.419 . S
C2232 C2233 1.363 . S
C2232 H2235 0.929 . S
C2233 C2232 1.363 . S
C2233 C2239 1.428 1_554 S
H2234 C2230 0.930 . S
H2235 C2232 0.929 . S
S2236 N2237 1.613 . S
S2236 N2238 1.610 . S
N2237 S2236 1.613 . S
N2237 C2240 1.350 . S
N2238 S2236 1.610 . S
N2238 C2239 1.351 . S
C2239 C2233 1.428 1_556 S
C2239 N2238 1.351 . S
C2239 C2240 1.434 . S
C2240 C2231 1.429 . S
C2240 N2237 1.350 . S
C2240 C2239 1.434 . S
C2241 C2242 1.369 . S
C2241 C2243 1.419 1_455 S
C2241 H2245 0.930 . S
C2242 C2241 1.369 . S
C2242 C2251 1.429 . S
C2243 C2241 1.419 1_655 S
C2243 C2244 1.363 . S
C2243 H2246 0.929 . S
C2244 C2243 1.363 . S
C2244 C2250 1.428 1_655 S
H2245 C2241 0.930 . S
H2246 C2243 0.929 . S
S2247 N2248 1.613 . S
S2247 N2249 1.610 . S
N2248 S2247 1.613 . S
N2248 C2251 1.350 . S
N2249 S2247 1.610 . S
N2249 C2250 1.351 . S
C2250 C2244 1.428 1_455 S
C2250 N2249 1.351 . S
C2250 C2251 1.434 . S
C2251 C2242 1.429 . S
C2251 N2248 1.350 . S
C2251 C2250 1.434 . S
C2252 C2253 1.369 . S
C2252 C2254 1.419 . S
C2252 H2256 0.930 . S
C2253 C2252 1.369 . S
C2253 C2262 1.429 . S
C2254 C2252 1.419 . S
C2254 C2255 1.363 . S
C2254 H2257 0.929 . S
C2255 C2254 1.363 . S
C2255 C2261 1.428 . S
H2256 C2252 0.930 . S
H2257 C2254 0.929 . S
S2258 N2259 1.613 . S
S2258 N2260 1.610 . S
N2259 S2258 1.613 . S
N2259 C2262 1.350 . S
N2260 S2258 1.610 . S
N2260 C2261 1.351 . S
C2261 C2255 1.428 . S
C2261 N2260 1.351 . S
C2261 C2262 1.434 . S
C2262 C2253 1.429 . S
C2262 N2259 1.350 . S
C2262 C2261 1.434 . S
C2263 C2264 1.369 . S
C2263 C2265 1.419 . S
C2263 H2267 0.930 . S
C2264 C2263 1.369 . S
C2264 C2273 1.429 . S
C2265 C2263 1.419 . S
C2265 C2266 1.363 . S
C2265 H2268 0.929 . S
C2266 C2265 1.363 . S
C2266 C2272 1.428 . S
H2267 C2263 0.930 . S
H2268 C2265 0.929 . S
S2269 N2270 1.613 . S
S2269 N2271 1.610 . S
N2270 S2269 1.613 . S
N2270 C2273 1.350 . S
N2271 S2269 1.610 . S
N2271 C2272 1.351 . S
C2272 C2266 1.428 . S
C2272 N2271 1.351 . S
C2272 C2273 1.434 . S
C2273 C2264 1.429 . S
C2273 N2270 1.350 . S
C2273 C2272 1.434 . S
C2274 C2275 1.369 1_455 S
C2274 C2276 1.419 . S
C2274 H2278 0.930 . S
C2275 C2274 1.369 1_655 S
C2275 C2284 1.429 . S
C2276 C2274 1.419 . S
C2276 C2277 1.363 . S
C2276 H2279 0.929 . S
C2277 C2276 1.363 . S
C2277 C2283 1.428 . S
H2278 C2274 0.930 . S
H2279 C2276 0.929 . S
S2280 N2281 1.613 . S
S2280 N2282 1.610 . S
N2281 S2280 1.613 . S
N2281 C2284 1.350 . S
N2282 S2280 1.610 . S
N2282 C2283 1.351 1_655 S
C2283 C2277 1.428 . S
C2283 N2282 1.351 1_455 S
C2283 C2284 1.434 1_455 S
C2284 C2275 1.429 . S
C2284 N2281 1.350 . S
C2284 C2283 1.434 1_655 S
C2285 C2286 1.369 . S
C2285 C2287 1.419 . S
C2285 H2289 0.930 . S
C2286 C2285 1.369 . S
C2286 C2295 1.429 . S
C2287 C2285 1.419 . S
C2287 C2288 1.363 . S
C2287 H2290 0.929 . S
C2288 C2287 1.363 . S
C2288 C2294 1.428 . S
H2289 C2285 0.930 . S
H2290 C2287 0.929 . S
S2291 N2292 1.613 . S
S2291 N2293 1.610 . S
N2292 S2291 1.613 . S
N2292 C2295 1.350 . S
N2293 S2291 1.610 . S
N2293 C2294 1.351 . S
C2294 C2288 1.428 . S
C2294 N2293 1.351 . S
C2294 C2295 1.434 . S
C2295 C2286 1.429 . S
C2295 N2292 1.350 . S
C2295 C2294 1.434 . S
C2296 C2297 1.369 . S
C2296 C2298 1.419 . S
C2296 H2300 0.930 . S
C2297 C2296 1.369 . S
C2297 C2306 1.429 . S
C2298 C2296 1.419 . S
C2298 C2299 1.363 . S
C2298 H2301 0.929 . S
C2299 C2298 1.363 . S
C2299 C2305 1.428 . S
H2300 C2296 0.930 . S
H2301 C2298 0.929 . S
S2302 N2303 1.613 . S
S2302 N2304 1.610 . S
N2303 S2302 1.613 . S
N2303 C2306 1.350 . S
N2304 S2302 1.610 . S
N2304 C2305 1.351 . S
C2305 C2299 1.428 . S
C2305 N2304 1.351 . S
C2305 C2306 1.434 . S
C2306 C2297 1.429 . S
C2306 N2303 1.350 . S
C2306 C2305 1.434 . S
C2307 C2308 1.369 . S
C2307 C2309 1.419 . S
C2307 H2311 0.930 . S
C2308 C2307 1.369 . S
C2308 C2317 1.429 . S
C2309 C2307 1.419 . S
C2309 C2310 1.363 . S
C2309 H2312 0.929 . S
C2310 C2309 1.363 . S
C2310 C2316 1.428 . S
H2311 C2307 0.930 . S
H2312 C2309 0.929 . S
S2313 N2314 1.613 . S
S2313 N2315 1.610 . S
N2314 S2313 1.613 . S
N2314 C2317 1.350 . S
N2315 S2313 1.610 . S
N2315 C2316 1.351 . S
C2316 C2310 1.428 . S
C2316 N2315 1.351 . S
C2316 C2317 1.434 . S
C2317 C2308 1.429 . S
C2317 N2314 1.350 . S
C2317 C2316 1.434 . S
C2318 C2319 1.369 . S
C2318 C2320 1.419 . S
C2318 H2322 0.930 . S
C2319 C2318 1.369 . S
C2319 C2328 1.429 . S
C2320 C2318 1.419 . S
C2320 C2321 1.363 . S
C2320 H2323 0.929 . S
C2321 C2320 1.363 . S
C2321 C2327 1.428 . S
H2322 C2318 0.930 . S
H2323 C2320 0.929 . S
S2324 N2325 1.613 . S
S2324 N2326 1.610 . S
N2325 S2324 1.613 . S
N2325 C2328 1.350 . S
N2326 S2324 1.610 . S
N2326 C2327 1.351 . S
C2327 C2321 1.428 . S
C2327 N2326 1.351 . S
C2327 C2328 1.434 . S
C2328 C2319 1.429 . S
C2328 N2325 1.350 . S
C2328 C2327 1.434 . S
C2329 C2330 1.369 . S
C2329 C2331 1.419 . S
C2329 H2333 0.930 . S
C2330 C2329 1.369 . S
C2330 C2339 1.429 . S
C2331 C2329 1.419 . S
C2331 C2332 1.363 . S
C2331 H2334 0.929 . S
C2332 C2331 1.363 . S
C2332 C2338 1.428 . S
H2333 C2329 0.930 . S
H2334 C2331 0.929 . S
S2335 N2336 1.613 . S
S2335 N2337 1.610 . S
N2336 S2335 1.613 . S
N2336 C2339 1.350 . S
N2337 S2335 1.610 . S
N2337 C2338 1.351 . S
C2338 C2332 1.428 . S
C2338 N2337 1.351 . S
C2338 C2339 1.434 . S
C2339 C2330 1.429 . S
C2339 N2336 1.350 . S
C2339 C2338 1.434 . S
C2340 C2341 1.369 . S
C2340 C2342 1.419 . S
C2340 H2344 0.930 . S
C2341 C2340 1.369 . S
C2341 C2350 1.429 . S
C2342 C2340 1.419 . S
C2342 C2343 1.363 . S
C2342 H2345 0.929 . S
C2343 C2342 1.363 . S
C2343 C2349 1.428 . S
H2344 C2340 0.930 . S
H2345 C2342 0.929 . S
S2346 N2347 1.613 . S
S2346 N2348 1.610 . S
N2347 S2346 1.613 . S
N2347 C2350 1.350 . S
N2348 S2346 1.610 . S
N2348 C2349 1.351 . S
C2349 C2343 1.428 . S
C2349 N2348 1.351 . S
C2349 C2350 1.434 . S
C2350 C2341 1.429 . S
C2350 N2347 1.350 . S
C2350 C2349 1.434 . S
C2351 C2352 1.369 . S
C2351 C2353 1.419 . S
C2351 H2355 0.930 . S
C2352 C2351 1.369 . S
C2352 C2361 1.429 . S
C2353 C2351 1.419 . S
C2353 C2354 1.363 . S
C2353 H2356 0.929 . S
C2354 C2353 1.363 . S
C2354 C2360 1.428 . S
H2355 C2351 0.930 . S
H2356 C2353 0.929 . S
S2357 N2358 1.613 . S
S2357 N2359 1.610 . S
N2358 S2357 1.613 . S
N2358 C2361 1.350 . S
N2359 S2357 1.610 . S
N2359 C2360 1.351 . S
C2360 C2354 1.428 . S
C2360 N2359 1.351 . S
C2360 C2361 1.434 . S
C2361 C2352 1.429 . S
C2361 N2358 1.350 . S
C2361 C2360 1.434 . S
C2362 C2363 1.369 . S
C2362 C2364 1.419 . S
C2362 H2366 0.930 . S
C2363 C2362 1.369 . S
C2363 C2372 1.429 . S
C2364 C2362 1.419 . S
C2364 C2365 1.363 . S
C2364 H2367 0.929 . S
C2365 C2364 1.363 . S
C2365 C2371 1.428 . S
H2366 C2362 0.930 . S
H2367 C2364 0.929 . S
S2368 N2369 1.613 . S
S2368 N2370 1.610 . S
N2369 S2368 1.613 . S
N2369 C2372 1.350 . S
N2370 S2368 1.610 . S
N2370 C2371 1.351 . S
C2371 C2365 1.428 . S
C2371 N2370 1.351 . S
C2371 C2372 1.434 . S
C2372 C2363 1.429 . S
C2372 N2369 1.350 . S
C2372 C2371 1.434 . S
C2373 C2374 1.369 . S
C2373 C2375 1.419 . S
C2373 H2377 0.930 . S
C2374 C2373 1.369 . S
C2374 C2383 1.429 . S
C2375 C2373 1.419 . S
C2375 C2376 1.363 . S
C2375 H2378 0.929 . S
C2376 C2375 1.363 . S
C2376 C2382 1.428 . S
H2377 C2373 0.930 . S
H2378 C2375 0.929 . S
S2379 N2380 1.613 . S
S2379 N2381 1.610 . S
N2380 S2379 1.613 . S
N2380 C2383 1.350 . S
N2381 S2379 1.610 . S
N2381 C2382 1.351 . S
C2382 C2376 1.428 . S
C2382 N2381 1.351 . S
C2382 C2383 1.434 . S
C2383 C2374 1.429 . S
C2383 N2380 1.350 . S
C2383 C2382 1.434 . S
C2384 C2385 1.369 . S
C2384 C2386 1.419 . S
C2384 H2388 0.930 . S
C2385 C2384 1.369 . S
C2385 C2394 1.429 . S
C2386 C2384 1.419 . S
C2386 C2387 1.363 . S
C2386 H2389 0.929 . S
C2387 C2386 1.363 . S
C2387 C2393 1.428 . S
H2388 C2384 0.930 . S
H2389 C2386 0.929 . S
S2390 N2391 1.613 . S
S2390 N2392 1.610 . S
N2391 S2390 1.613 . S
N2391 C2394 1.350 . S
N2392 S2390 1.610 . S
N2392 C2393 1.351 . S
C2393 C2387 1.428 . S
C2393 N2392 1.351 . S
C2393 C2394 1.434 . S
C2394 C2385 1.429 . S
C2394 N2391 1.350 . S
C2394 C2393 1.434 . S
C2395 C2396 1.369 . S
C2395 C2397 1.419 . S
C2395 H2399 0.930 . S
C2396 C2395 1.369 . S
C2396 C2405 1.429 . S
C2397 C2395 1.419 . S
C2397 C2398 1.363 . S
C2397 H2400 0.929 . S
C2398 C2397 1.363 . S
C2398 C2404 1.428 . S
H2399 C2395 0.930 . S
H2400 C2397 0.929 . S
S2401 N2402 1.613 . S
S2401 N2403 1.610 . S
N2402 S2401 1.613 . S
N2402 C2405 1.350 . S
N2403 S2401 1.610 . S
N2403 C2404 1.351 . S
C2404 C2398 1.428 . S
C2404 N2403 1.351 . S
C2404 C2405 1.434 . S
C2405 C2396 1.429 . S
C2405 N2402 1.350 . S
C2405 C2404 1.434 . S
C2406 C2407 1.369 . S
C2406 C2408 1.419 . S
C2406 H2410 0.930 . S
C2407 C2406 1.369 . S
C2407 C2416 1.429 . S
C2408 C2406 1.419 . S
C2408 C2409 1.363 . S
C2408 H2411 0.929 . S
C2409 C2408 1.363 . S
C2409 C2415 1.428 . S
H2410 C2406 0.930 . S
H2411 C2408 0.929 . S
S2412 N2413 1.613 . S
S2412 N2414 1.610 . S
N2413 S2412 1.613 . S
N2413 C2416 1.350 . S
N2414 S2412 1.610 . S
N2414 C2415 1.351 . S
C2415 C2409 1.428 . S
C2415 N2414 1.351 . S
C2415 C2416 1.434 . S
C2416 C2407 1.429 . S
C2416 N2413 1.350 . S
C2416 C2415 1.434 . S
C2417 C2418 1.369 . S
C2417 C2419 1.419 . S
C2417 H2421 0.930 . S
C2418 C2417 1.369 . S
C2418 C2427 1.429 1_565 S
C2419 C2417 1.419 . S
C2419 C2420 1.363 1_565 S
C2419 H2422 0.929 . S
C2420 C2419 1.363 1_545 S
C2420 C2426 1.428 . S
H2421 C2417 0.930 . S
H2422 C2419 0.929 . S
S2423 N2424 1.613 . S
S2423 N2425 1.610 . S
N2424 S2423 1.613 . S
N2424 C2427 1.350 . S
N2425 S2423 1.610 . S
N2425 C2426 1.351 . S
C2426 C2420 1.428 . S
C2426 N2425 1.351 . S
C2426 C2427 1.434 . S
C2427 C2418 1.429 1_545 S
C2427 N2424 1.350 . S
C2427 C2426 1.434 . S
C2428 C2429 1.369 . S
C2428 C2430 1.419 . S
C2428 H2432 0.930 . S
C2429 C2428 1.369 . S
C2429 C2438 1.429 . S
C2430 C2428 1.419 . S
C2430 C2431 1.363 . S
C2430 H2433 0.929 . S
C2431 C2430 1.363 . S
C2431 C2437 1.428 . S
H2432 C2428 0.930 . S
H2433 C2430 0.929 . S
S2434 N2435 1.613 . S
S2434 N2436 1.610 . S
N2435 S2434 1.613 . S
N2435 C2438 1.350 . S
N2436 S2434 1.610 . S
N2436 C2437 1.351 . S
C2437 C2431 1.428 . S
C2437 N2436 1.351 . S
C2437 C2438 1.434 . S
C2438 C2429 1.429 . S
C2438 N2435 1.350 . S
C2438 C2437 1.434 . S
C2439 C2440 1.369 . S
C2439 C2441 1.419 . S
C2439 H2443 0.930 . S
C2440 C2439 1.369 . S
C2440 C2449 1.429 . S
C2441 C2439 1.419 . S
C2441 C2442 1.363 . S
C2441 H2444 0.929 . S
C2442 C2441 1.363 . S
C2442 C2448 1.428 . S
H2443 C2439 0.930 . S
H2444 C2441 0.929 . S
S2445 N2446 1.613 1_554 S
S2445 N2447 1.610 . S
N2446 S2445 1.613 1_556 S
N2446 C2449 1.350 1_556 S
N2447 S2445 1.610 . S
N2447 C2448 1.351 . S
C2448 C2442 1.428 . S
C2448 N2447 1.351 . S
C2448 C2449 1.434 . S
C2449 C2440 1.429 . S
C2449 N2446 1.350 1_554 S
C2449 C2448 1.434 . S
C2450 C2451 1.369 . S
C2450 C2452 1.419 . S
C2450 H2454 0.930 . S
C2451 C2450 1.369 . S
C2451 C2460 1.429 . S
C2452 C2450 1.419 . S
C2452 C2453 1.363 . S
C2452 H2455 0.929 . S
C2453 C2452 1.363 . S
C2453 C2459 1.428 . S
H2454 C2450 0.930 . S
H2455 C2452 0.929 . S
S2456 N2457 1.613 . S
S2456 N2458 1.610 . S
N2457 S2456 1.613 . S
N2457 C2460 1.350 . S
N2458 S2456 1.610 . S
N2458 C2459 1.351 . S
C2459 C2453 1.428 . S
C2459 N2458 1.351 . S
C2459 C2460 1.434 . S
C2460 C2451 1.429 . S
C2460 N2457 1.350 . S
C2460 C2459 1.434 . S
C2461 C2462 1.369 . S
C2461 C2463 1.419 . S
C2461 H2465 0.930 . S
C2462 C2461 1.369 . S
C2462 C2471 1.429 . S
C2463 C2461 1.419 . S
C2463 C2464 1.363 . S
C2463 H2466 0.929 . S
C2464 C2463 1.363 . S
C2464 C2470 1.428 . S
H2465 C2461 0.930 . S
H2466 C2463 0.929 . S
S2467 N2468 1.613 . S
S2467 N2469 1.610 . S
N2468 S2467 1.613 . S
N2468 C2471 1.350 . S
N2469 S2467 1.610 . S
N2469 C2470 1.351 . S
C2470 C2464 1.428 . S
C2470 N2469 1.351 . S
C2470 C2471 1.434 . S
C2471 C2462 1.429 . S
C2471 N2468 1.350 . S
C2471 C2470 1.434 . S
C2472 C2473 1.369 . S
C2472 C2474 1.419 . S
C2472 H2476 0.930 . S
C2473 C2472 1.369 . S
C2473 C2482 1.429 . S
C2474 C2472 1.419 . S
C2474 C2475 1.363 . S
C2474 H2477 0.929 . S
C2475 C2474 1.363 . S
C2475 C2481 1.428 . S
H2476 C2472 0.930 . S
H2477 C2474 0.929 . S
S2478 N2479 1.613 . S
S2478 N2480 1.610 . S
N2479 S2478 1.613 . S
N2479 C2482 1.350 . S
N2480 S2478 1.610 . S
N2480 C2481 1.351 . S
C2481 C2475 1.428 . S
C2481 N2480 1.351 . S
C2481 C2482 1.434 . S
C2482 C2473 1.429 . S
C2482 N2479 1.350 . S
C2482 C2481 1.434 . S
C2483 C2484 1.369 . S
C2483 C2485 1.419 . S
C2483 H2487 0.930 . S
C2484 C2483 1.369 . S
C2484 C2493 1.429 . S
C2485 C2483 1.419 . S
C2485 C2486 1.363 . S
C2485 H2488 0.929 . S
C2486 C2485 1.363 . S
C2486 C2492 1.428 . S
H2487 C2483 0.930 . S
H2488 C2485 0.929 . S
S2489 N2490 1.613 . S
S2489 N2491 1.610 . S
N2490 S2489 1.613 . S
N2490 C2493 1.350 . S
N2491 S2489 1.610 . S
N2491 C2492 1.351 . S
C2492 C2486 1.428 . S
C2492 N2491 1.351 . S
C2492 C2493 1.434 . S
C2493 C2484 1.429 . S
C2493 N2490 1.350 . S
C2493 C2492 1.434 . S
C2494 C2495 1.369 . S
C2494 C2496 1.419 . S
C2494 H2498 0.930 . S
C2495 C2494 1.369 . S
C2495 C2504 1.429 . S
C2496 C2494 1.419 . S
C2496 C2497 1.363 . S
C2496 H2499 0.929 . S
C2497 C2496 1.363 . S
C2497 C2503 1.428 . S
H2498 C2494 0.930 . S
H2499 C2496 0.929 . S
S2500 N2501 1.613 . S
S2500 N2502 1.610 . S
N2501 S2500 1.613 . S
N2501 C2504 1.350 1_556 S
N2502 S2500 1.610 . S
N2502 C2503 1.351 1_556 S
C2503 C2497 1.428 . S
C2503 N2502 1.351 1_554 S
C2503 C2504 1.434 . S
C2504 C2495 1.429 . S
C2504 N2501 1.350 1_554 S
C2504 C2503 1.434 . S
C2505 C2506 1.369 . S
C2505 C2507 1.419 . S
C2505 H2509 0.930 . S
C2506 C2505 1.369 . S
C2506 C2515 1.429 . S
C2507 C2505 1.419 . S
C2507 C2508 1.363 . S
C2507 H2510 0.929 . S
C2508 C2507 1.363 . S
C2508 C2514 1.428 . S
H2509 C2505 0.930 . S
H2510 C2507 0.929 . S
S2511 N2512 1.613 . S
S2511 N2513 1.610 . S
N2512 S2511 1.613 . S
N2512 C2515 1.350 . S
N2513 S2511 1.610 . S
N2513 C2514 1.351 . S
C2514 C2508 1.428 . S
C2514 N2513 1.351 . S
C2514 C2515 1.434 . S
C2515 C2506 1.429 . S
C2515 N2512 1.350 . S
C2515 C2514 1.434 . S
C2516 C2517 1.369 . S
C2516 C2518 1.419 . S
C2516 H2520 0.930 . S
C2517 C2516 1.369 . S
C2517 C2526 1.429 . S
C2518 C2516 1.419 . S
C2518 C2519 1.363 . S
C2518 H2521 0.929 . S
C2519 C2518 1.363 . S
C2519 C2525 1.428 . S
H2520 C2516 0.930 . S
H2521 C2518 0.929 . S
S2522 N2523 1.613 1_554 S
S2522 N2524 1.610 . S
N2523 S2522 1.613 1_556 S
N2523 C2526 1.350 . S
N2524 S2522 1.610 . S
N2524 C2525 1.351 1_554 S
C2525 C2519 1.428 . S
C2525 N2524 1.351 1_556 S
C2525 C2526 1.434 . S
C2526 C2517 1.429 . S
C2526 N2523 1.350 . S
C2526 C2525 1.434 . S
C2527 C2528 1.369 . S
C2527 C2529 1.419 . S
C2527 H2531 0.930 . S
C2528 C2527 1.369 . S
C2528 C2537 1.429 . S
C2529 C2527 1.419 . S
C2529 C2530 1.363 . S
C2529 H2532 0.929 . S
C2530 C2529 1.363 . S
C2530 C2536 1.428 . S
H2531 C2527 0.930 . S
H2532 C2529 0.929 . S
S2533 N2534 1.613 . S
S2533 N2535 1.610 . S
N2534 S2533 1.613 . S
N2534 C2537 1.350 . S
N2535 S2533 1.610 . S
N2535 C2536 1.351 . S
C2536 C2530 1.428 . S
C2536 N2535 1.351 . S
C2536 C2537 1.434 . S
C2537 C2528 1.429 . S
C2537 N2534 1.350 . S
C2537 C2536 1.434 . S
C2538 C2539 1.369 . S
C2538 C2540 1.419 . S
C2538 H2542 0.930 . S
C2539 C2538 1.369 . S
C2539 C2548 1.429 . S
C2540 C2538 1.419 . S
C2540 C2541 1.363 . S
C2540 H2543 0.929 . S
C2541 C2540 1.363 . S
C2541 C2547 1.428 . S
H2542 C2538 0.930 . S
H2543 C2540 0.929 . S
S2544 N2545 1.613 . S
S2544 N2546 1.610 . S
N2545 S2544 1.613 . S
N2545 C2548 1.350 . S
N2546 S2544 1.610 . S
N2546 C2547 1.351 . S
C2547 C2541 1.428 . S
C2547 N2546 1.351 . S
C2547 C2548 1.434 . S
C2548 C2539 1.429 . S
C2548 N2545 1.350 . S
C2548 C2547 1.434 . S
C2549 C2550 1.369 . S
C2549 C2551 1.419 . S
C2549 H2553 0.930 . S
C2550 C2549 1.369 . S
C2550 C2559 1.429 . S
C2551 C2549 1.419 . S
C2551 C2552 1.363 . S
C2551 H2554 0.929 . S
C2552 C2551 1.363 . S
C2552 C2558 1.428 . S
H2553 C2549 0.930 . S
H2554 C2551 0.929 . S
S2555 N2556 1.613 . S
S2555 N2557 1.610 . S
N2556 S2555 1.613 . S
N2556 C2559 1.350 . S
N2557 S2555 1.610 . S
N2557 C2558 1.351 . S
C2558 C2552 1.428 . S
C2558 N2557 1.351 . S
C2558 C2559 1.434 . S
C2559 C2550 1.429 . S
C2559 N2556 1.350 . S
C2559 C2558 1.434 . S
C2560 C2561 1.369 . S
C2560 C2562 1.419 . S
C2560 H2564 0.930 . S
C2561 C2560 1.369 . S
C2561 C2570 1.429 . S
C2562 C2560 1.419 . S
C2562 C2563 1.363 . S
C2562 H2565 0.929 . S
C2563 C2562 1.363 . S
C2563 C2569 1.428 . S
H2564 C2560 0.930 . S
H2565 C2562 0.929 . S
S2566 N2567 1.613 . S
S2566 N2568 1.610 . S
N2567 S2566 1.613 . S
N2567 C2570 1.350 . S
N2568 S2566 1.610 . S
N2568 C2569 1.351 . S
C2569 C2563 1.428 . S
C2569 N2568 1.351 . S
C2569 C2570 1.434 . S
C2570 C2561 1.429 . S
C2570 N2567 1.350 . S
C2570 C2569 1.434 . S
C2571 C2572 1.369 . S
C2571 C2573 1.419 . S
C2571 H2575 0.930 . S
C2572 C2571 1.369 . S
C2572 C2581 1.429 . S
C2573 C2571 1.419 . S
C2573 C2574 1.363 . S
C2573 H2576 0.929 . S
C2574 C2573 1.363 . S
C2574 C2580 1.428 . S
H2575 C2571 0.930 . S
H2576 C2573 0.929 . S
S2577 N2578 1.613 . S
S2577 N2579 1.610 . S
N2578 S2577 1.613 . S
N2578 C2581 1.350 . S
N2579 S2577 1.610 . S
N2579 C2580 1.351 . S
C2580 C2574 1.428 . S
C2580 N2579 1.351 . S
C2580 C2581 1.434 . S
C2581 C2572 1.429 . S
C2581 N2578 1.350 . S
C2581 C2580 1.434 . S
C2582 C2583 1.369 . S
C2582 C2584 1.419 1_655 S
C2582 H2586 0.930 . S
C2583 C2582 1.369 . S
C2583 C2592 1.454 . S
C2584 C2582 1.419 1_455 S
C2584 C2585 1.363 . S
C2584 H2587 0.929 . S
C2585 C2584 1.363 . S
C2585 C2591 1.428 . S
H2586 C2582 0.930 . S
H2587 C2584 0.929 . S
S2588 N2589 1.613 . S
S2588 N2590 1.610 . S
N2589 S2588 1.613 . S
N2589 C2592 1.352 1_455 S
N2590 S2588 1.610 . S
N2590 C2591 1.351 . S
C2591 C2585 1.428 . S
C2591 N2590 1.351 . S
C2591 C2592 1.403 1_455 S
C2592 C2583 1.454 . S
C2592 N2589 1.352 1_655 S
C2592 C2591 1.403 1_655 S
C2593 C2594 1.369 . S
C2593 C2595 1.419 . S
C2593 H2597 0.930 . S
C2594 C2593 1.369 . S
C2594 C2603 1.429 . S
C2595 C2593 1.419 . S
C2595 C2596 1.363 . S
C2595 H2598 0.929 . S
C2596 C2595 1.363 . S
C2596 C2602 1.428 . S
H2597 C2593 0.930 . S
H2598 C2595 0.929 . S
S2599 N2600 1.613 . S
S2599 N2601 1.610 . S
N2600 S2599 1.613 . S
N2600 C2603 1.350 . S
N2601 S2599 1.610 . S
N2601 C2602 1.351 . S
C2602 C2596 1.428 . S
C2602 N2601 1.351 . S
C2602 C2603 1.434 . S
C2603 C2594 1.429 . S
C2603 N2600 1.350 . S
C2603 C2602 1.434 . S
C2604 C2605 1.369 . S
C2604 C2606 1.419 . S
C2604 H2608 0.930 . S
C2605 C2604 1.369 . S
C2605 C2614 1.429 . S
C2606 C2604 1.419 . S
C2606 C2607 1.363 . S
C2606 H2609 0.929 . S
C2607 C2606 1.363 . S
C2607 C2613 1.428 . S
H2608 C2604 0.930 . S
H2609 C2606 0.929 . S
S2610 N2611 1.613 . S
S2610 N2612 1.610 . S
N2611 S2610 1.613 . S
N2611 C2614 1.350 . S
N2612 S2610 1.610 . S
N2612 C2613 1.351 . S
C2613 C2607 1.428 . S
C2613 N2612 1.351 . S
C2613 C2614 1.434 . S
C2614 C2605 1.429 . S
C2614 N2611 1.350 . S
C2614 C2613 1.434 . S
C2615 C2616 1.369 . S
C2615 C2617 1.419 . S
C2615 H2619 0.930 . S
C2616 C2615 1.369 . S
C2616 C2625 1.429 . S
C2617 C2615 1.419 . S
C2617 C2618 1.363 . S
C2617 H2620 0.929 . S
C2618 C2617 1.363 . S
C2618 C2624 1.428 . S
H2619 C2615 0.930 . S
H2620 C2617 0.929 . S
S2621 N2622 1.613 . S
S2621 N2623 1.610 . S
N2622 S2621 1.613 . S
N2622 C2625 1.350 . S
N2623 S2621 1.610 . S
N2623 C2624 1.351 . S
C2624 C2618 1.428 . S
C2624 N2623 1.351 . S
C2624 C2625 1.434 . S
C2625 C2616 1.429 . S
C2625 N2622 1.350 . S
C2625 C2624 1.434 . S
C2626 C2627 1.369 . S
C2626 C2628 1.419 . S
C2626 H2630 0.930 . S
C2627 C2626 1.369 . S
C2627 C2636 1.429 . S
C2628 C2626 1.419 . S
C2628 C2629 1.363 . S
C2628 H2631 0.929 . S
C2629 C2628 1.363 . S
C2629 C2635 1.428 . S
H2630 C2626 0.930 . S
H2631 C2628 0.929 . S
S2632 N2633 1.613 . S
S2632 N2634 1.610 1_655 S
N2633 S2632 1.613 . S
N2633 C2636 1.350 . S
N2634 S2632 1.610 1_455 S
N2634 C2635 1.351 1_455 S
C2635 C2629 1.428 . S
C2635 N2634 1.351 1_655 S
C2635 C2636 1.434 . S
C2636 C2627 1.429 . S
C2636 N2633 1.350 . S
C2636 C2635 1.434 . S
C2637 C2638 1.369 . S
C2637 C2639 1.419 . S
C2637 H2641 0.930 . S
C2638 C2637 1.369 . S
C2638 C2647 1.429 . S
C2639 C2637 1.419 . S
C2639 C2640 1.363 . S
C2639 H2642 0.929 . S
C2640 C2639 1.363 . S
C2640 C2646 1.428 . S
H2641 C2637 0.930 . S
H2642 C2639 0.929 . S
S2643 N2644 1.613 . S
S2643 N2645 1.610 . S
N2644 S2643 1.613 . S
N2644 C2647 1.350 . S
N2645 S2643 1.610 . S
N2645 C2646 1.351 . S
C2646 C2640 1.428 . S
C2646 N2645 1.351 . S
C2646 C2647 1.434 . S
C2647 C2638 1.429 . S
C2647 N2644 1.350 . S
C2647 C2646 1.434 . S
C2648 C2649 1.369 . S
C2648 C2650 1.419 . S
C2648 H2652 0.930 . S
C2649 C2648 1.369 . S
C2649 C2658 1.429 . S
C2650 C2648 1.419 . S
C2650 C2651 1.363 . S
C2650 H2653 0.929 . S
C2651 C2650 1.363 . S
C2651 C2657 1.428 . S
H2652 C2648 0.930 . S
H2653 C2650 0.929 . S
S2654 N2655 1.613 . S
S2654 N2656 1.610 . S
N2655 S2654 1.613 . S
N2655 C2658 1.350 . S
N2656 S2654 1.610 . S
N2656 C2657 1.351 . S
C2657 C2651 1.428 . S
C2657 N2656 1.351 . S
C2657 C2658 1.434 . S
C2658 C2649 1.429 . S
C2658 N2655 1.350 . S
C2658 C2657 1.434 . S
C2659 C2660 1.369 . S
C2659 C2661 1.419 . S
C2659 H2663 0.930 . S
C2660 C2659 1.369 . S
C2660 C2669 1.429 . S
C2661 C2659 1.419 . S
C2661 C2662 1.363 . S
C2661 H2664 0.929 . S
C2662 C2661 1.363 . S
C2662 C2668 1.428 . S
H2663 C2659 0.930 . S
H2664 C2661 0.929 . S
S2665 N2666 1.613 . S
S2665 N2667 1.610 . S
N2666 S2665 1.613 . S
N2666 C2669 1.350 . S
N2667 S2665 1.610 . S
N2667 C2668 1.351 . S
C2668 C2662 1.428 . S
C2668 N2667 1.351 . S
C2668 C2669 1.434 . S
C2669 C2660 1.429 . S
C2669 N2666 1.350 . S
C2669 C2668 1.434 . S
C2670 C2671 1.369 . S
C2670 C2672 1.419 . S
C2670 H2674 0.930 . S
C2671 C2670 1.369 . S
C2671 C2680 1.429 . S
C2672 C2670 1.419 . S
C2672 C2673 1.363 . S
C2672 H2675 0.929 . S
C2673 C2672 1.363 . S
C2673 C2679 1.428 . S
H2674 C2670 0.930 . S
H2675 C2672 0.929 . S
S2676 N2677 1.613 . S
S2676 N2678 1.610 . S
N2677 S2676 1.613 . S
N2677 C2680 1.350 . S
N2678 S2676 1.610 . S
N2678 C2679 1.351 . S
C2679 C2673 1.428 . S
C2679 N2678 1.351 . S
C2679 C2680 1.434 . S
C2680 C2671 1.429 . S
C2680 N2677 1.350 . S
C2680 C2679 1.434 . S
C2681 C2682 1.369 . S
C2681 C2683 1.419 . S
C2681 H2685 0.930 . S
C2682 C2681 1.369 . S
C2682 C2691 1.429 . S
C2683 C2681 1.419 . S
C2683 C2684 1.363 . S
C2683 H2686 0.929 . S
C2684 C2683 1.363 . S
C2684 C2690 1.428 . S
H2685 C2681 0.930 . S
H2686 C2683 0.929 . S
S2687 N2688 1.613 . S
S2687 N2689 1.610 . S
N2688 S2687 1.613 . S
N2688 C2691 1.350 . S
N2689 S2687 1.610 . S
N2689 C2690 1.351 . S
C2690 C2684 1.428 . S
C2690 N2689 1.351 . S
C2690 C2691 1.434 . S
C2691 C2682 1.429 . S
C2691 N2688 1.350 . S
C2691 C2690 1.434 . S
C2692 C2693 1.369 . S
C2692 C2694 1.419 . S
C2692 H2696 0.930 . S
C2693 C2692 1.369 . S
C2693 C2702 1.429 . S
C2694 C2692 1.419 . S
C2694 C2695 1.363 . S
C2694 H2697 0.929 . S
C2695 C2694 1.363 . S
C2695 C2701 1.428 . S
H2696 C2692 0.930 . S
H2697 C2694 0.929 . S
S2698 N2699 1.613 . S
S2698 N2700 1.610 . S
N2699 S2698 1.613 . S
N2699 C2702 1.350 . S
N2700 S2698 1.610 . S
N2700 C2701 1.351 . S
C2701 C2695 1.428 . S
C2701 N2700 1.351 . S
C2701 C2702 1.434 . S
C2702 C2693 1.429 . S
C2702 N2699 1.350 . S
C2702 C2701 1.434 . S
C2703 C2704 1.369 . S
C2703 C2705 1.419 . S
C2703 H2707 0.930 . S
C2704 C2703 1.369 . S
C2704 C2713 1.429 . S
C2705 C2703 1.419 . S
C2705 C2706 1.363 . S
C2705 H2708 0.929 . S
C2706 C2705 1.363 . S
C2706 C2712 1.428 . S
H2707 C2703 0.930 . S
H2708 C2705 0.929 . S
S2709 N2710 1.613 . S
S2709 N2711 1.610 . S
N2710 S2709 1.613 . S
N2710 C2713 1.350 . S
N2711 S2709 1.610 . S
N2711 C2712 1.351 . S
C2712 C2706 1.428 . S
C2712 N2711 1.351 . S
C2712 C2713 1.434 . S
C2713 C2704 1.429 . S
C2713 N2710 1.350 . S
C2713 C2712 1.434 . S
C2714 C2715 1.369 . S
C2714 C2716 1.419 . S
C2714 H2718 0.930 . S
C2715 C2714 1.369 . S
C2715 C2724 1.429 . S
C2716 C2714 1.419 . S
C2716 C2717 1.363 . S
C2716 H2719 0.929 . S
C2717 C2716 1.363 . S
C2717 C2723 1.428 . S
H2718 C2714 0.930 . S
H2719 C2716 0.929 . S
S2720 N2721 1.613 . S
S2720 N2722 1.610 . S
N2721 S2720 1.613 . S
N2721 C2724 1.350 . S
N2722 S2720 1.610 . S
N2722 C2723 1.351 . S
C2723 C2717 1.428 . S
C2723 N2722 1.351 . S
C2723 C2724 1.434 . S
C2724 C2715 1.429 . S
C2724 N2721 1.350 . S
C2724 C2723 1.434 . S
C2725 C2726 1.369 . S
C2725 C2727 1.419 . S
C2725 H2729 0.930 . S
C2726 C2725 1.369 . S
C2726 C2735 1.429 . S
C2727 C2725 1.419 . S
C2727 C2728 1.363 . S
C2727 H2730 0.929 . S
C2728 C2727 1.363 . S
C2728 C2734 1.428 . S
H2729 C2725 0.930 . S
H2730 C2727 0.929 . S
S2731 N2732 1.613 . S
S2731 N2733 1.610 . S
N2732 S2731 1.613 . S
N2732 C2735 1.350 . S
N2733 S2731 1.610 . S
N2733 C2734 1.351 . S
C2734 C2728 1.428 . S
C2734 N2733 1.351 . S
C2734 C2735 1.434 . S
C2735 C2726 1.429 . S
C2735 N2732 1.350 . S
C2735 C2734 1.434 . S
C1681 C109 1.983 . S
C1683 C403 1.824 . S
C1692 C65 2.259 . S
C1694 C486 2.200 . S
C1703 C75 1.698 . S
C1705 C571 1.616 . S
C1716 C651 1.369 . S
C1714 C84 1.471 . S
C1725 C25 1.579 . S
C1727 C735 1.662 . S
C1738 C828 1.009 . S
C1736 C28 1.056 . S
C1749 C906 1.341 . S
C1747 C47 1.218 . S
C1758 C9 1.783 . S
C1760 C991 1.535 . S
C1771 C402 2.144 . S
C1769 C233 2.264 1_455 S
C1780 C249 0.864 . S
C1782 C483 0.861 . S
C1793 C570 1.268 . S
C1791 C275 1.335 . S
C1804 C655 1.601 . S
C1802 C173 1.705 . S
C1813 C224 2.211 1_455 S
C1815 C739 2.070 . S
C1826 C831 1.235 . S
C1824 C243 1.355 . S
C1837 C903 0.823 . S
C1835 C266 0.862 . S
C1848 C990 1.634 . S
C1846 C179 1.805 . S
C1859 C399 1.482 . S
C1857 C163 1.503 . S
C1868 C289 1.914 . S
C1870 C1074 1.834 1_556 S
C1881 C1148 2.248 . S
C1879 C333 2.435 . S
C1892 C1243 0.648 . S
C1890 C308 0.631 . S
C1901 C123 1.347 . S
C1903 C987 1.542 . S
C1912 C126 1.496 . S
C1914 C567 1.547 . S
C1923 C327 2.203 . S
C1925 C1326 2.116 . S
C1936 C1411 0.842 . S
C1934 C299 0.902 . S
C1947 C392 1.844 . S
C1945 C67 2.013 . S
C1958 C1419 2.221 . S
C1956 C98 2.205 . S
C1967 C89 1.720 . S
C1969 C560 1.640 . S
C1978 C79 1.530 . S
C1980 C1332 1.412 . S
C1991 C744 1.655 . S
C1989 C11 1.589 . S
C2000 C51 1.081 . S
C2002 C1155 1.016 . S
C2013 C915 1.404 . S
C2011 C33 1.279 . S
C2024 C1484 1.515 . S
C2022 C14 1.757 . S
C2035 C411 2.130 . S
C2033 C140 2.250 . S
C2046 C1416 0.844 . S
C2044 C319 0.844 . S
C2055 C112 1.303 . S
C2057 C579 1.272 . S
C2066 C285 1.720 . S
C2068 C1316 1.615 . S
C2077 C149 2.292 . S
C2079 C728 2.085 . S
C2090 C1158 1.247 . S
C2088 C313 1.377 . S
C2099 C121 0.904 1_565 S
C2101 C912 0.865 1_545 S
C2110 C291 1.835 . S
C2112 C1503 1.658 . S
C2121 C182 1.510 . S
C2123 C408 1.464 1_554 S
C2132 C168 1.890 . S
C2134 C1083 1.849 . S
C2143 C263 2.478 . S
C2145 C823 2.288 . S
C2154 C247 0.680 . S
C2156 C1232 0.684 . S
C2167 C1500 1.454 . S
C2165 C277 1.306 1_565 S
C2176 C219 1.559 . S
C2178 C576 1.543 . S
C2189 C663 2.153 . S
C2187 C257 2.237 . S
C2200 C476 0.846 . S
C2198 C201 0.886 . S
C2209 C81 1.982 . S
C2211 C1579 1.828 . S
C2222 C1410 2.205 . S
C2220 C93 2.261 . S
C2231 C103 1.696 . S
C2233 C1663 1.611 . S
C2242 C56 1.470 . S
C2244 C1323 1.372 . S
C2253 C53 1.577 . S
C2255 C1071 1.663 . S
C2266 C1164 0.997 1_455 S
C2264 C0 1.058 . S
C2277 C1242 1.339 . S
C2275 C19 1.217 . S
C2288 C1495 1.542 . S
C2286 C37 1.775 . S
C2299 C1578 2.144 . S
C2297 C261 2.264 . S
C2308 C193 0.860 . S
C2310 C1407 0.852 . S
C2321 C1662 1.270 . S
C2319 C205 1.334 . S
C2332 C1327 1.600 . S
C2330 C215 1.705 . S
C2343 C1075 2.063 . S
C2341 C252 2.216 . S
C2352 C187 1.355 . S
C2354 C1167 1.234 . S
C2365 C1239 0.822 . S
C2363 C196 0.860 . S
C2374 C221 1.803 . S
C2376 C1494 1.633 . S
C2387 C1575 1.481 . S
C2385 C317 1.497 . S
C2396 C135 1.915 . S
C2398 C738 1.838 . S
C2409 C812 2.250 . S
C2407 C151 2.435 . S
C2420 C907 0.660 . S
C2418 C154 0.630 . S
C2431 C1491 1.542 . S
C2429 C305 1.351 . S
C2440 C280 1.495 . S
C2442 C1659 1.546 . S
C2453 C654 2.120 . S
C2451 C145 2.203 . S
C2464 C487 0.860 . S
C2462 C117 0.897 . S
C2473 C95 2.013 . S
C2475 C1568 1.842 . S
C2486 C495 2.219 . S
C2484 C70 2.207 . S
C2495 C61 1.723 . S
C2497 C1652 1.646 . S
C2506 C107 1.531 . S
C2508 C660 1.406 . S
C2517 C39 1.591 . S
C2519 C1080 1.656 . S
C2530 C819 1.019 . S
C2528 C23 1.075 . S
C2539 C5 1.268 . S
C2541 C1251 1.403 . S
C2550 C42 1.748 . S
C2552 C980 1.525 . S
C2563 C1587 2.131 . S
C2561 C322 2.251 . S
C2572 C165 0.846 . S
C2574 C492 0.841 . S
C2585 C1671 1.272 . S
C2583 C294 1.298 . S
C2594 C131 1.721 . S
C2596 C644 1.622 . S
C2605 C331 2.294 . S
C2607 C1064 2.088 . S
C2618 C822 1.250 . S
C2616 C159 1.369 . S
C2627 C303 0.902 . S
C2629 C1248 0.867 1_655 S
C2640 C999 1.651 . S
C2638 C137 1.837 . S
C2651 C1584 1.469 . S
C2649 C238 1.513 . S
C2662 C747 1.844 1_665 S
C2660 C210 1.889 . S
C2671 C235 2.480 . S
C2673 C1159 2.286 . S
C2684 C896 0.697 . S
C2682 C191 0.689 . S
C2693 C207 1.310 . S
C2695 C996 1.454 . S
C2704 C177 1.561 . S
C2706 C1668 1.546 1_554 S
C2717 C1335 2.148 . S
C2715 C229 2.229 1_565 S
C2728 C1400 0.840 . S
C2726 C271 0.887 . S
