# Generated by pormake.
# Topology zzz, (3,6)-cn, num edge types: 1
# Building blocks:
#     Node 0, Type 0, BuildingBlock: WUSLED_clean_sbu_0, # of connection points: 3
#     Node 1, Type 0, BuildingBlock: WUSLED_clean_sbu_0, # of connection points: 3
#     Node 2, Type 0, BuildingBlock: WUSLED_clean_sbu_0, # of connection points: 3
#     Node 3, Type 0, BuildingBlock: WUSLED_clean_sbu_0, # of connection points: 3
#     Node 4, Type 0, BuildingBlock: WUSLED_clean_sbu_0, # of connection points: 3
#     Node 5, Type 0, BuildingBlock: WUSLED_clean_sbu_0, # of connection points: 3
#     Node 6, Type 0, BuildingBlock: WUSLED_clean_sbu_0, # of connection points: 3
#     Node 7, Type 0, BuildingBlock: WUSLED_clean_sbu_0, # of connection points: 3
#     Node 8, Type 1, BuildingBlock: FUNLAD_clean_sbu_0, # of connection points: 6
#     Node 9, Type 1, BuildingBlock: FUNLAD_clean_sbu_0, # of connection points: 6
#     Node 10, Type 1, BuildingBlock: FUNLAD_clean_sbu_0, # of connection points: 6
#     Node 11, Type 1, BuildingBlock: FUNLAD_clean_sbu_0, # of connection points: 6
#     Edge 12, Type (0, 1), BuildingBlock: TEMPAE_clean_linker_10, # of connection points: 2
#     Edge 13, Type (0, 1), BuildingBlock: TEMPAE_clean_linker_10, # of connection points: 2
#     Edge 14, Type (0, 1), BuildingBlock: TEMPAE_clean_linker_10, # of connection points: 2
#     Edge 15, Type (0, 1), BuildingBlock: TEMPAE_clean_linker_10, # of connection points: 2
#     Edge 16, Type (0, 1), BuildingBlock: TEMPAE_clean_linker_10, # of connection points: 2
#     Edge 17, Type (0, 1), BuildingBlock: TEMPAE_clean_linker_10, # of connection points: 2
#     Edge 18, Type (0, 1), BuildingBlock: TEMPAE_clean_linker_10, # of connection points: 2
#     Edge 19, Type (0, 1), BuildingBlock: TEMPAE_clean_linker_10, # of connection points: 2
#     Edge 20, Type (0, 1), BuildingBlock: TEMPAE_clean_linker_10, # of connection points: 2
#     Edge 21, Type (0, 1), BuildingBlock: TEMPAE_clean_linker_10, # of connection points: 2
#     Edge 22, Type (0, 1), BuildingBlock: TEMPAE_clean_linker_10, # of connection points: 2
#     Edge 23, Type (0, 1), BuildingBlock: TEMPAE_clean_linker_10, # of connection points: 2
#     Edge 24, Type (0, 1), BuildingBlock: TEMPAE_clean_linker_10, # of connection points: 2
#     Edge 25, Type (0, 1), BuildingBlock: TEMPAE_clean_linker_10, # of connection points: 2
#     Edge 26, Type (0, 1), BuildingBlock: TEMPAE_clean_linker_10, # of connection points: 2
#     Edge 27, Type (0, 1), BuildingBlock: TEMPAE_clean_linker_10, # of connection points: 2
#     Edge 28, Type (0, 1), BuildingBlock: TEMPAE_clean_linker_10, # of connection points: 2
#     Edge 29, Type (0, 1), BuildingBlock: TEMPAE_clean_linker_10, # of connection points: 2
#     Edge 30, Type (0, 1), BuildingBlock: TEMPAE_clean_linker_10, # of connection points: 2
#     Edge 31, Type (0, 1), BuildingBlock: TEMPAE_clean_linker_10, # of connection points: 2
#     Edge 32, Type (0, 1), BuildingBlock: TEMPAE_clean_linker_10, # of connection points: 2
#     Edge 33, Type (0, 1), BuildingBlock: TEMPAE_clean_linker_10, # of connection points: 2
#     Edge 34, Type (0, 1), BuildingBlock: TEMPAE_clean_linker_10, # of connection points: 2
#     Edge 35, Type (0, 1), BuildingBlock: TEMPAE_clean_linker_10, # of connection points: 2
# Relax obj value: 0.265
# Max RMSD: 0.215
# Mean RMSD: 0.185
data_MOF--net-zzz--node1-WUSLED_clean_sbu_0--node2-FUNLAD_clean_sbu_0--edge1-TEMPAE_clean_linker_10
_symmetry_space_group_name_H-M    P1
_symmetry_Int_Tables_number       1
_symmetry_cell_setting            triclinic
loop_
_symmetry_equiv_pos_as_xyz
'x, y, z'
_cell_length_a     62.734958
_cell_length_b     67.345452
_cell_length_c     24.411695
_cell_angle_alpha  87.270308
_cell_angle_beta   87.258824
_cell_angle_gamma 92.044953
loop_
_atom_site_label
_atom_site_type_symbol
_atom_site_fract_x
_atom_site_fract_y
_atom_site_fract_z
_atom_type_partial_charge
C0 C 0.82962 0.45204 0.35293 0.0
C1 C 0.84967 0.44658 0.33193 0.0
C2 C 0.86614 0.45777 0.41401 0.0
C3 C 0.86779 0.44935 0.36234 0.0
C4 C 0.84587 0.46264 0.43538 0.0
C5 C 0.82779 0.45981 0.40502 0.0
U6 U 0.80616 0.44622 0.21457 0.0
O7 O 0.77559 0.43258 0.19138 0.0
O8 O 0.78262 0.46468 0.17519 0.0
C9 C 0.76913 0.44955 0.1703 0.0
C10 C 0.81095 0.45148 0.31898 0.0
C11 C 0.75747 0.44904 0.11935 0.0
C12 C 0.72351 0.44196 0.07937 0.0
C13 C 0.73725 0.43943 0.12218 0.0
C14 C 0.75058 0.46273 0.02803 0.0
C15 C 0.72974 0.45417 0.03268 0.0
C16 C 0.76435 0.46026 0.07124 0.0
C17 C 0.84894 0.43548 0.10012 0.0
C18 C 0.85026 0.44297 1.0019 0.0
C19 C 0.87954 0.42651 0.04423 0.0
C20 C 0.86863 0.42656 0.09504 0.0
C21 C 0.8708 0.43525 0.9973 0.0
C22 C 0.83938 0.44316 0.05324 0.0
C23 C 0.84054 0.43876 0.15555 0.0
O24 O 0.81071 0.46619 0.2818 0.0
O25 O 0.80571 0.43411 0.30003 0.0
O26 O 0.82791 0.42464 0.17967 0.0
O27 O 0.83458 0.45687 0.16472 0.0
H28 H 0.85139 0.44066 0.29151 0.0
H29 H 0.88313 0.44522 0.34504 0.0
H30 H 0.84408 0.46939 0.47464 0.0
H31 H 0.81245 0.46429 0.42148 0.0
H32 H 0.70768 0.43492 0.08365 0.0
H33 H 0.73159 0.43078 0.15892 0.0
H34 H 0.75577 0.47219 0.99244 0.0
H35 H 0.77991 0.46786 0.06808 0.0
H36 H 0.84305 0.44962 0.96636 0.0
H37 H 0.89548 0.42084 0.04272 0.0
H38 H 0.87623 0.4207 0.13104 0.0
H39 H 0.82409 0.45009 0.05671 0.0
C40 C 0.94985 0.81401 0.21044 0.0
C41 C 0.94457 0.83289 0.18944 0.0
C42 C 0.95377 0.84765 0.27521 0.0
C43 C 0.94646 0.84954 0.22153 0.0
C44 C 0.95881 0.82858 0.29594 0.0
C45 C 0.95684 0.81198 0.26393 0.0
U46 U 0.9393 0.79153 0.07436 0.0
O47 O 0.95996 0.77333 0.02264 0.0
O48 O 0.92762 0.76165 0.05343 0.0
C49 C 0.9453 0.75885 0.02415 0.0
C50 C 0.94954 0.79666 0.17581 0.0
C51 C 0.94868 0.74044 0.99592 0.0
C52 C 0.95669 0.70549 0.9995 0.0
C53 C 0.95329 0.72308 0.02613 0.0
C54 C 0.95046 0.72242 0.91215 0.0
C55 C 0.95541 0.70497 0.94218 0.0
C56 C 0.9472 0.74006 0.93887 0.0
C57 C 0.92039 0.82656 0.96034 0.0
C58 C 0.9378 0.83471 0.8711 0.0
C59 C 0.90691 0.85254 0.90135 0.0
C60 C 0.90485 0.84041 0.94936 0.0
C61 C 0.92504 0.85134 0.86568 0.0
C62 C 0.93543 0.82226 0.91844 0.0
C63 C 0.92447 0.82144 0.01787 0.0
O64 O 0.93059 0.78978 0.16313 0.0
O65 O 0.96347 0.79797 0.13379 0.0
O66 O 0.94473 0.81981 0.02791 0.0
O67 O 0.91181 0.80785 0.04431 0.0
H68 H 0.93926 0.83478 0.14799 0.0
H69 H 0.94219 0.86387 0.20421 0.0
H70 H 0.96488 0.82649 0.3365 0.0
H71 H 0.96121 0.79757 0.2806 0.0
H72 H 0.96022 0.69225 0.02384 0.0
H73 H 0.95439 0.72317 0.07028 0.0
H74 H 0.94953 0.72253 0.86795 0.0
H75 H 0.94356 0.75339 0.91504 0.0
H76 H 0.95167 0.83312 0.84369 0.0
H77 H 0.89644 0.86491 0.89693 0.0
H78 H 0.89284 0.84363 0.98073 0.0
H79 H 0.94724 0.81118 0.92551 0.0
C80 C 0.72739 0.00402 0.28953 0.0
C81 C 0.70949 0.01436 0.2729 0.0
C82 C 0.68948 0.00317 0.35763 0.0
C83 C 0.69077 0.01407 0.30691 0.0
C84 C 0.70724 0.99261 0.37369 0.0
C85 C 0.72603 0.99314 0.34016 0.0
U86 U 0.75979 0.0035 0.15139 0.0
O87 O 0.78855 0.02169 0.12318 0.0
O88 O 0.78998 0.98911 0.13096 0.0
C89 C 0.80039 0.00611 0.11798 0.0
C90 C 0.74779 0.00475 0.25596 0.0
C91 C 0.81674 0.00674 0.07209 0.0
C92 C 0.85379 0.01444 0.04199 0.0
C93 C 0.83719 0.01429 0.08226 0.0
C94 C 0.82976 0.99962 0.97951 0.0
C95 C 0.85041 0.0072 0.98983 0.0
C96 C 0.81306 0.99938 0.02033 0.0
C97 C 0.72119 0.99891 0.02776 0.0
C98 C 0.71278 0.01614 0.94225 0.0
C99 C 0.6924 0.98629 0.9746 0.0
C100 C 0.70522 0.98443 0.01951 0.0
C101 C 0.69536 0.00272 0.93696 0.0
C102 C 0.72558 0.0143 0.98748 0.0
C103 C 0.729 0.99999 0.08343 0.0
O104 O 0.75289 0.98824 0.23276 0.0
O105 O 0.75182 0.02071 0.22349 0.0
O106 O 0.73671 0.01724 0.09829 0.0
O107 O 0.73828 0.98452 0.10528 0.0
H108 H 0.71 0.02277 0.23389 0.0
H109 H 0.67723 0.02221 0.29342 0.0
H110 H 0.7067 0.9842 0.41272 0.0
H111 H 0.73961 0.98513 0.354 0.0
H112 H 0.86944 0.01993 0.05239 0.0
H113 H 0.84048 0.01984 0.12207 0.0
H114 H 0.82645 0.99403 0.93982 0.0
H115 H 0.7974 0.99339 0.01161 0.0
H116 H 0.71566 0.02875 0.91332 0.0
H117 H 0.67903 0.97579 0.9722 0.0
H118 H 0.7014 0.97256 0.05038 0.0
H119 H 0.73784 0.02567 0.99285 0.0
C120 C 0.58205 0.68147 0.29232 0.0
C121 C 0.57957 0.6632 0.26743 0.0
C122 C 0.57902 0.64538 0.35713 0.0
C123 C 0.57806 0.64532 0.29954 0.0
C124 C 0.58186 0.66377 0.38149 0.0
C125 C 0.58337 0.68158 0.3494 0.0
U126 U 0.58504 0.71225 0.15558 0.0
O127 O 0.5651 0.73709 0.13144 0.0
O128 O 0.59992 0.742 0.13432 0.0
C129 C 0.58147 0.74987 0.12495 0.0
C130 C 0.58219 0.70058 0.2601 0.0
C131 C 0.58078 0.76568 0.0812 0.0
C132 C 0.57797 0.80103 0.05958 0.0
C133 C 0.58083 0.78533 0.09749 0.0
C134 C 0.57595 0.77782 0.98707 0.0
C135 C 0.57511 0.7975 0.00414 0.0
C136 C 0.57861 0.76193 0.02554 0.0
C137 C 0.59105 0.67805 0.02883 0.0
C138 C 0.5717 0.67134 0.94755 0.0
C139 C 0.60052 0.65041 0.97385 0.0
C140 C 0.60443 0.66238 0.01751 0.0
C141 C 0.58332 0.65415 0.94076 0.0
C142 C 0.57552 0.68328 0.99166 0.0
C143 C 0.58992 0.68442 0.08546 0.0
O144 O 0.60032 0.70637 0.23401 0.0
O145 O 0.56554 0.70325 0.23036 0.0
O146 O 0.5712 0.68961 0.10536 0.0
O147 O 0.60624 0.69451 0.10369 0.0
H148 H 0.57851 0.6628 0.22331 0.0
H149 H 0.57613 0.63146 0.27926 0.0
H150 H 0.58231 0.66449 0.42563 0.0
H151 H 0.58515 0.69553 0.36937 0.0
H152 H 0.57769 0.81602 0.07386 0.0
H153 H 0.58249 0.78854 0.1402 0.0
H154 H 0.57378 0.77468 0.94455 0.0
H155 H 0.57848 0.74682 0.01217 0.0
H156 H 0.55827 0.67432 0.9225 0.0
H157 H 0.60954 0.6371 0.9693 0.0
H158 H 0.6164 0.65804 0.04589 0.0
H159 H 0.56499 0.69533 0.99969 0.0
C160 C 0.22405 0.5415 0.04416 0.0
C161 C 0.20389 0.53904 0.07168 0.0
C162 C 0.18715 0.53553 0.98441 0.0
C163 C 0.18559 0.53607 0.04206 0.0
C164 C 0.2074 0.53834 0.95717 0.0
C165 C 0.22567 0.54127 0.98684 0.0
U166 U 0.24977 0.54679 0.17969 0.0
O167 O 0.27732 0.56545 0.20218 0.0
O168 O 0.27814 0.5328 0.21083 0.0
C169 C 0.28807 0.54994 0.21791 0.0
C170 C 0.24347 0.54384 0.07498 0.0
C171 C 0.30013 0.55148 0.26797 0.0
C172 C 0.33363 0.56123 0.30673 0.0
C173 C 0.3199 0.5619 0.26344 0.0
C174 C 0.30749 0.5405 0.3614 0.0
C175 C 0.32787 0.55007 0.35564 0.0
C176 C 0.29372 0.54113 0.31774 0.0
C177 C 0.20623 0.54666 0.30059 0.0
C178 C 0.20046 0.56384 0.38496 0.0
C179 C 0.17579 0.53728 0.36179 0.0
C180 C 0.18806 0.53445 0.31422 0.0
C181 C 0.18159 0.55234 0.39641 0.0
C182 C 0.21283 0.561 0.33691 0.0
C183 C 0.21541 0.54594 0.24463 0.0
O184 O 0.24601 0.56099 0.09781 0.0
O185 O 0.24744 0.52854 0.10784 0.0
O186 O 0.22526 0.52978 0.23179 0.0
O187 O 0.22426 0.56249 0.2217 0.0
H188 H 0.20236 0.53916 0.11607 0.0
H189 H 0.1703 0.53374 0.06439 0.0
H190 H 0.20914 0.53832 0.91283 0.0
H191 H 0.24111 0.54322 0.96502 0.0
H192 H 0.34905 0.56902 0.30133 0.0
H193 H 0.32514 0.56995 0.22539 0.0
H194 H 0.30264 0.53174 0.39856 0.0
H195 H 0.2785 0.53296 0.3221 0.0
H196 H 0.20498 0.57553 0.41157 0.0
H197 H 0.16115 0.52838 0.37021 0.0
H198 H 0.18263 0.52348 0.28637 0.0
H199 H 0.22682 0.57061 0.32684 0.0
C200 C 0.10552 0.19525 0.18534 0.0
C201 C 0.11163 0.17608 0.20208 0.0
C202 C 0.10053 0.16309 0.11614 0.0
C203 C 0.10921 0.16015 0.16769 0.0
C204 C 0.09484 0.18231 0.09891 0.0
C205 C 0.09738 0.19829 0.13321 0.0
U206 U 0.11878 0.21082 0.32479 0.0
O207 O 0.13137 0.23801 0.36061 0.0
O208 O 0.09989 0.22483 0.38996 0.0
C209 C 0.11487 0.23862 0.39578 0.0
C210 C 0.10612 0.2115 0.22402 0.0
C211 C 0.10867 0.25793 0.41593 0.0
C212 C 0.10004 0.29271 0.40355 0.0
C213 C 0.1049 0.27447 0.38112 0.0
C214 C 0.1027 0.27785 0.49522 0.0
C215 C 0.09904 0.29461 0.46095 0.0
C216 C 0.10745 0.25977 0.47291 0.0
C217 C 0.14002 0.16849 0.41382 0.0
C218 C 0.13361 0.16705 0.51264 0.0
C219 C 0.14177 0.13719 0.46547 0.0
C220 C 0.14443 0.14832 0.416 0.0
C221 C 0.13467 0.14616 0.5137 0.0
C222 C 0.13591 0.17814 0.46268 0.0
C223 C 0.13443 0.17743 0.36101 0.0
O224 O 0.09297 0.20852 0.26739 0.0
O225 O 0.12526 0.21808 0.23627 0.0
O226 O 0.14657 0.19243 0.33979 0.0
O227 O 0.11392 0.18023 0.35786 0.0
H228 H 0.1178 0.17334 0.24232 0.0
H229 H 0.11355 0.14542 0.18195 0.0
H230 H 0.08812 0.18488 0.05925 0.0
H231 H 0.09251 0.21291 0.11957 0.0
H232 H 0.09744 0.30538 0.37603 0.0
H233 H 0.10589 0.27335 0.33697 0.0
H234 H 0.10171 0.27864 0.53948 0.0
H235 H 0.11037 0.24715 0.50041 0.0
H236 H 0.12891 0.17457 0.54931 0.0
H237 H 0.1428 0.12122 0.46396 0.0
H238 H 0.1476 0.14069 0.37852 0.0
H239 H 0.13251 0.19382 0.46158 0.0
C240 C 0.32443 0.00926 0.1058 0.0
C241 C 0.34281 0.02011 0.1196 0.0
C242 C 0.36233 0.00972 0.03717 0.0
C243 C 0.36153 0.02039 0.08556 0.0
C244 C 0.34398 0.9985 0.02455 0.0
C245 C 0.3253 0.99835 0.0583 0.0
U246 U 0.29131 0.0091 0.24339 0.0
O247 O 0.2618 0.02474 0.26312 0.0
O248 O 0.26151 0.99205 0.26813 0.0
C249 C 0.25048 0.00811 0.27423 0.0
C250 C 0.30403 0.00934 0.13903 0.0
C251 C 0.23414 0.00781 0.32 0.0
C252 C 0.19682 0.01176 0.34768 0.0
C253 C 0.21348 0.01313 0.30747 0.0
C254 C 0.22132 1.00022 0.41485 0.0
C255 C 0.20039 0.00505 0.40176 0.0
C256 C 0.23808 1.00148 0.37416 0.0
C257 C 0.32859 0.00813 0.37068 0.0
C258 C 0.33765 0.98687 0.44886 0.0
C259 C 0.35785 0.01776 0.42644 0.0
C260 C 0.34461 0.02198 0.38346 0.0
C261 C 0.35513 0.9997 0.45735 0.0
C262 C 0.32435 0.99109 0.4057 0.0
C263 C 0.3213 0.00914 0.31424 0.0
O264 O 0.29877 0.99297 0.16871 0.0
O265 O 0.30003 0.02557 0.16496 0.0
O266 O 0.31322 0.02564 0.29478 0.0
O267 O 0.31293 0.99283 0.2952 0.0
H268 H 0.34264 0.02857 0.15624 0.0
H269 H 0.3752 0.02932 0.09664 0.0
H270 H 0.34401 0.9897 0.98858 0.0
H271 H 0.31139 0.98976 0.04702 0.0
H272 H 0.18106 0.01594 0.33629 0.0
H273 H 0.21009 0.01806 0.26598 0.0
H274 H 0.22459 0.99497 0.45611 0.0
H275 H 0.25392 0.99724 0.38473 0.0
H276 H 0.33549 0.97279 0.47217 0.0
H277 H 0.37145 0.02771 0.43214 0.0
H278 H 0.34835 0.03508 0.35675 0.0
H279 H 0.31211 0.98014 0.39672 0.0
C280 C 0.46735 0.32068 0.1108 0.0
C281 C 0.46739 0.34006 0.12973 0.0
C282 C 0.47129 0.35429 0.03576 0.0
C283 C 0.46946 0.35663 0.09281 0.0
C284 C 0.47064 0.33478 0.01694 0.0
C285 C 0.46876 0.31816 0.05411 0.0
U286 U 0.45788 0.3028 0.25666 0.0
O287 O 0.44433 0.2757 0.30175 0.0
O288 O 0.47747 0.28617 0.31447 0.0
C289 C 0.46172 0.27333 0.32913 0.0
C290 C 0.46669 0.30338 0.15069 0.0
C291 C 0.46659 0.2535 0.35249 0.0
C292 C 0.46864 0.21751 0.34992 0.0
C293 C 0.46446 0.23598 0.32396 0.0
C294 C 0.47665 0.234 0.43291 0.0
C295 C 0.47489 0.21633 0.40478 0.0
C296 C 0.47264 0.2523 0.40701 0.0
C297 C 0.44412 0.34467 0.34998 0.0
C298 C 0.45157 0.34236 0.44656 0.0
C299 C 0.44412 0.37421 0.40232 0.0
C300 C 0.44097 0.365 0.35334 0.0
C301 C 0.45045 0.36314 0.44877 0.0
C302 C 0.44852 0.33317 0.39726 0.0
C303 C 0.44711 0.33678 0.29563 0.0
O304 O 0.48147 0.30417 0.187 0.0
O305 O 0.44769 0.29793 0.1728 0.0
O306 O 0.43295 0.32331 0.28173 0.0
O307 O 0.46689 0.3323 0.28338 0.0
H308 H 0.46629 0.3424 0.17332 0.0
H309 H 0.47023 0.37127 0.10927 0.0
H310 H 0.47162 0.33231 0.97342 0.0
H311 H 0.46865 0.30336 0.03859 0.0
H312 H 0.46722 0.20422 0.32688 0.0
H313 H 0.45963 0.23658 0.28193 0.0
H314 H 0.48087 0.23373 0.47543 0.0
H315 H 0.47404 0.26561 0.43005 0.0
H316 H 0.45612 0.33343 0.48187 0.0
H317 H 0.44339 0.39025 0.40213 0.0
H318 H 0.43778 0.37406 0.31696 0.0
H319 H 0.45111 0.3174 0.39505 0.0
C320 C 0.0222 0.9672 0.74927 0.0
N321 N 0.00903 0.98765 0.59289 0.0
C322 C 0.01903 0.97023 0.5863 0.0
C323 C 0.01195 0.95644 0.54989 0.0
C324 C 0.99479 0.96055 0.51664 0.0
C325 C 0.98508 0.97903 0.52267 0.0
C326 C 0.99228 0.99227 0.56167 0.0
Zn327 Zn 0.0199 1.00248 0.66078 0.0
C328 C 0.98589 0.00843 0.74502 0.0
N329 N 0.04579 0.02065 0.8101 0.0
C330 C 0.06489 0.01786 0.83329 0.0
C331 C 0.03408 0.03666 0.8227 0.0
C332 C 0.04163 0.05085 0.85749 0.0
C333 C 0.06149 0.0488 0.88049 0.0
C334 C 0.07297 0.03174 0.8693 0.0
Zn335 Zn 0.03484 0.00567 0.74284 0.0
O336 O 0.01766 0.97482 0.70299 0.0
C337 C 0.06854 0.99934 0.65838 0.0
O338 O 0.03279 0.97736 0.78205 0.0
H339 H 0.01935 0.03931 0.80293 0.0
H340 H 0.03216 0.96641 0.61131 0.0
H341 H 0.07435 0.00544 0.82197 0.0
O342 O 0.05184 0.99861 0.63104 0.0
O343 O 0.06689 1.00171 0.70992 0.0
H344 H 0.9842 0.00599 0.56763 0.0
O345 O 0.03627 0.0331 0.70292 0.0
O346 O 0.02287 0.03141 0.62182 0.0
O347 O 1.00261 0.00876 0.77249 0.0
O348 O 0.98773 0.00697 0.69305 0.0
C349 C 0.03221 0.04146 0.65735 0.0
H350 H 0.0197 0.94237 0.54964 0.0
H351 H 0.97195 0.98327 0.49802 0.0
H352 H 0.03217 0.06367 0.86518 0.0
H353 H 0.08845 0.02966 0.88605 0.0
C354 C 0.4937 0.99243 0.63159 0.0
N355 N 0.51945 0.04914 0.65003 0.0
C356 C 0.51743 0.05088 0.59472 0.0
C357 C 0.51272 0.06904 0.56906 0.0
C358 C 0.51014 0.08587 0.60021 0.0
C359 C 0.51243 0.08374 0.65731 0.0
C360 C 0.51709 0.06515 0.6815 0.0
Zn361 Zn 0.52448 0.02084 0.68254 0.0
C362 C 0.4941 0.00865 0.77802 0.0
N363 N 0.53191 0.96019 0.74045 0.0
C364 C 0.53449 0.9446 0.70751 0.0
C365 C 0.53393 0.95786 0.79566 0.0
C366 C 0.53926 0.93956 0.81955 0.0
C367 C 0.54246 0.9233 0.7866 0.0
C368 C 0.53967 0.9259 0.7299 0.0
Zn369 Zn 0.52706 0.98864 0.70885 0.0
O370 O 0.50021 0.01028 0.6361 0.0
C371 C 0.55738 1.0007 0.61364 0.0
O372 O 0.50296 0.97844 0.65678 0.0
H373 H 0.53179 0.97036 0.82133 0.0
H374 H 0.51908 0.03801 0.57024 0.0
H375 H 0.53295 0.94676 0.66371 0.0
O376 O 0.54779 0.0169 0.61763 0.0
O377 O 0.552 0.98594 0.64656 0.0
H378 H 0.51862 0.06348 0.72541 0.0
O379 O 0.55049 0.99957 0.75987 0.0
O380 O 0.54942 0.03086 0.72985 0.0
O381 O 0.50255 0.99207 0.77019 0.0
O382 O 0.50088 0.024 0.74873 0.0
C383 C 0.55759 0.01746 0.75973 0.0
H384 H 0.51069 0.06973 0.52522 0.0
H385 H 0.51076 0.0963 0.68305 0.0
H386 H 0.54087 0.93818 0.86354 0.0
H387 H 0.54204 0.91378 0.70294 0.0
C388 C 0.5248 0.46762 0.63791 0.0
N389 N 0.48128 0.51222 0.66317 0.0
C390 C 0.47906 0.50965 0.60868 0.0
C391 C 0.46023 0.51435 0.58406 0.0
C392 C 0.44362 0.52219 0.61536 0.0
C393 C 0.4462 0.52508 0.67123 0.0
C394 C 0.46532 0.51981 0.69467 0.0
Zn395 Zn 0.51032 0.50499 0.69236 0.0
C396 C 0.50874 0.47562 0.78414 0.0
N397 N 0.57262 0.48916 0.73484 0.0
C398 C 0.58972 0.48449 0.70212 0.0
C399 C 0.5741 0.49019 0.79015 0.0
C400 C 0.59319 0.48644 0.81467 0.0
C401 C 0.61098 0.48162 0.78209 0.0
C402 C 0.60929 0.48061 0.7252 0.0
Zn403 Zn 0.54348 0.49566 0.70585 0.0
O404 O 0.51016 0.47994 0.64399 0.0
C405 C 0.54458 0.52526 0.6143 0.0
O406 O 0.54258 0.47038 0.65952 0.0
H407 H 0.56045 0.49406 0.8156 0.0
H408 H 0.49204 0.50411 0.58377 0.0
H409 H 0.5882 0.48385 0.65829 0.0
O410 O 0.52487 0.52366 0.62871 0.0
O411 O 0.55761 0.51398 0.63788 0.0
H412 H 0.46748 0.52192 0.73773 0.0
O413 O 0.54414 0.52069 0.75173 0.0
O414 O 0.51134 0.52997 0.74223 0.0
O415 O 0.52869 0.47768 0.77268 0.0
O416 O 0.49593 0.48601 0.75701 0.0
C417 C 0.52973 0.53297 0.76074 0.0
H418 H 0.45875 0.51216 0.54068 0.0
H419 H 0.43359 0.53123 0.6963 0.0
H420 H 0.59407 0.4873 0.85873 0.0
H421 H 0.62288 0.4769 0.69914 0.0
C422 C 0.05414 0.52051 0.62487 0.0
N423 N 0.04432 0.45952 0.66406 0.0
C424 C 0.04826 0.45758 0.60931 0.0
C425 C 0.05546 0.43977 0.58974 0.0
C426 C 0.05857 0.42364 0.62671 0.0
C427 C 0.05437 0.42599 0.68306 0.0
C428 C 0.04728 0.44418 0.70097 0.0
Zn429 Zn 0.0324 0.48587 0.6884 0.0
C430 C 0.05656 0.50444 0.77397 0.0
N431 N 0.00754 0.54165 0.73095 0.0
C432 C 1.00283 0.55631 0.69362 0.0
C433 C 0.005 0.54413 0.78582 0.0
C434 C 0.99747 0.56184 0.80512 0.0
C435 C 0.99249 0.57726 0.76771 0.0
C436 C 0.99528 0.57436 0.71122 0.0
Zn437 Zn 0.01948 0.51541 0.70698 0.0
O438 O 0.054 0.50175 0.63333 0.0
C439 C 0.99531 0.49655 0.62153 0.0
O440 O 0.04037 0.53067 0.64946 0.0
H441 H 0.00903 0.53238 0.81483 0.0
H442 H 0.04553 0.46981 0.58051 0.0
H443 H 0.00502 0.55404 0.65018 0.0
O444 O 0.0096 0.48393 0.6286 0.0
O445 O 0.9956 0.51226 0.64855 0.0
H446 H 0.04397 0.44599 0.74429 0.0
O447 O 0.99867 0.49976 0.76485 0.0
O448 O 0.01036 0.47064 0.74254 0.0
O449 O 0.04356 0.51801 0.76388 0.0
O450 O 0.05518 0.48814 0.74988 0.0
C451 C 0.99751 0.48092 0.76983 0.0
H452 H 0.05813 0.43852 0.5459 0.0
H453 H 0.05668 0.41396 0.71299 0.0
H454 H 0.99595 0.56355 0.84901 0.0
H455 H 0.99152 0.58585 0.68102 0.0
C456 C 0.18381 0.00983 0.49632 0.0
C457 C 0.18208 0.00285 0.44339 0.0
C458 C 0.16609 0.00896 0.53427 0.0
C459 C 0.14624 1.00057 0.51944 0.0
C460 C 0.14462 0.99297 0.46658 0.0
C461 C 0.16245 0.99435 0.42925 0.0
C462 C 0.16841 0.01762 0.58964 0.0
C463 C 0.12394 0.98383 0.44856 0.0
C464 C 0.10365 0.98476 0.63223 0.0
C465 C 0.08946 1.00025 0.62773 0.0
C466 C 0.12224 0.98466 0.59734 0.0
C467 C 0.12692 1.00064 0.55804 0.0
C468 C 0.11271 0.01647 0.55432 0.0
C469 C 0.09409 0.01598 0.58881 0.0
C470 C 0.13639 0.96705 0.60088 0.0
C471 C 0.1169 0.03374 0.51302 0.0
H472 H 0.19883 0.01658 0.50744 0.0
H473 H 0.16099 0.98873 0.38866 0.0
H474 H 0.15759 0.0302 0.59394 0.0
H475 H 0.16363 0.00629 0.62284 0.0
H476 H 0.18502 0.02308 0.59563 0.0
H477 H 0.12649 0.97484 0.41198 0.0
H478 H 0.11587 0.97421 0.48207 0.0
H479 H 0.11299 0.99581 0.43769 0.0
H480 H 0.09976 0.97238 0.66143 0.0
H481 H 0.08293 0.02785 0.58497 0.0
H482 H 0.15293 0.97206 0.60899 0.0
H483 H 0.13704 0.95979 0.56098 0.0
H484 H 0.13063 0.95585 0.63362 0.0
H485 H 0.13303 0.04055 0.51784 0.0
H486 H 0.10485 0.04533 0.51722 0.0
H487 H 0.11664 0.02841 0.47078 0.0
C488 C 0.49665 0.19593 0.46879 0.0
C489 C 0.47973 0.19695 0.43315 0.0
C490 C 0.50109 0.17811 0.49752 0.0
C491 C 0.48852 0.16067 0.49014 0.0
C492 C 0.47147 0.16149 0.4541 0.0
C493 C 0.46727 0.1796 0.42611 0.0
C494 C 0.51945 0.17793 0.53536 0.0
C495 C 0.45768 0.14323 0.44512 0.0
C496 C 0.514 0.11114 0.5206 0.0
C497 C 0.50485 0.10531 0.57284 0.0
C498 C 0.50861 0.12894 0.49315 0.0
C499 C 0.49383 0.14144 0.51852 0.0
C500 C 0.48467 0.1358 0.57142 0.0
C501 C 0.49025 0.11781 0.59787 0.0
C502 C 0.5188 0.1344 0.4369 0.0
C503 C 0.46896 0.14876 0.60008 0.0
H504 H 0.50665 0.2091 0.47391 0.0
H505 H 0.45399 0.18024 0.39934 0.0
H506 H 0.51388 0.17196 0.57694 0.0
H507 H 0.53184 0.16798 0.51983 0.0
H508 H 0.52692 0.19298 0.539 0.0
H509 H 0.44499 0.14633 0.416 0.0
H510 H 0.46769 0.13138 0.42884 0.0
H511 H 0.45004 0.13734 0.4848 0.0
H512 H 0.52557 0.10183 0.50114 0.0
H513 H 0.48286 0.11339 0.63781 0.0
H514 H 0.52784 0.14885 0.43748 0.0
H515 H 0.50627 0.13625 0.4067 0.0
H516 H 0.52986 0.123 0.42253 0.0
H517 H 0.47653 0.16363 0.60558 0.0
H518 H 0.46315 0.14223 0.64096 0.0
H519 H 0.45503 0.15104 0.57447 0.0
C520 C 0.36484 0.54284 0.38263 0.0
C521 C 0.34379 0.54727 0.39832 0.0
C522 C 0.38016 0.53968 0.42175 0.0
C523 C 0.37437 0.54095 0.47819 0.0
C524 C 0.35323 0.54563 0.49441 0.0
C525 C 0.33813 0.54864 0.45427 0.0
C526 C 0.40248 0.53461 0.40263 0.0
C527 C 0.34659 0.54735 0.55417 0.0
C528 C 0.40981 0.5124 0.57326 0.0
C529 C 0.42395 0.52748 0.58832 0.0
C530 C 0.39288 0.51676 0.53967 0.0
C531 C 0.39035 0.53663 0.51997 0.0
C532 C 0.40425 0.552 0.53672 0.0
C533 C 0.42092 0.54722 0.5709 0.0
C534 C 0.37834 0.49996 0.52315 0.0
C535 C 0.40236 0.5733 0.516 0.0
H536 H 0.36924 0.54142 0.33954 0.0
H537 H 0.32194 0.55221 0.46659 0.0
H538 H 0.41437 0.54502 0.41919 0.0
H539 H 0.40594 0.5194 0.41847 0.0
H540 H 0.4047 0.53523 0.35715 0.0
H541 H 0.32962 0.55129 0.5601 0.0
H542 H 0.34895 0.53306 0.57725 0.0
H543 H 0.3568 0.55887 0.57226 0.0
H544 H 0.41244 0.49711 0.58638 0.0
H545 H 0.4322 0.55876 0.58189 0.0
H546 H 0.38081 0.49791 0.4785 0.0
H547 H 0.36138 0.5036 0.53086 0.0
H548 H 0.38129 0.48569 0.54571 0.0
H549 H 0.40792 0.57484 0.47212 0.0
H550 H 0.41211 0.58378 0.53926 0.0
H551 H 0.38548 0.57769 0.51873 0.0
C552 C 0.07792 0.32553 0.46511 0.0
C553 C 0.09407 0.31383 0.48559 0.0
C554 C 0.07249 0.34326 0.48948 0.0
C555 C 0.08351 0.34951 0.53535 0.0
C556 C 0.09994 0.33786 0.556 0.0
C557 C 0.10501 0.32018 0.53092 0.0
C558 C 0.05479 0.35523 0.46642 0.0
C559 C 0.11208 0.34401 0.60481 0.0
C560 C 0.0819 0.4044 0.56396 0.0
C561 C 0.06585 0.40447 0.60598 0.0
C562 C 0.08809 0.38659 0.54142 0.0
C563 C 0.07796 0.36836 0.56122 0.0
C564 C 0.06213 0.36825 0.60462 0.0
C565 C 0.05628 0.38631 0.62655 0.0
C566 C 0.10533 0.38731 0.49598 0.0
C567 C 0.05101 0.3491 0.62695 0.0
H568 H 0.06918 0.32061 0.43068 0.0
H569 H 0.11768 0.31135 0.54668 0.0
H570 H 0.04197 0.35678 0.49866 0.0
H571 H 0.06099 0.37044 0.45328 0.0
H572 H 0.04772 0.3483 0.43074 0.0
H573 H 0.1253 0.33398 0.61368 0.0
H574 H 0.11883 0.35942 0.59761 0.0
H575 H 0.10106 0.3439 0.64173 0.0
H576 H 0.08963 0.41835 0.54858 0.0
H577 H 0.04375 0.38626 0.65873 0.0
H578 H 0.09884 0.38134 0.45834 0.0
H579 H 0.11857 0.37779 0.50799 0.0
H580 H 0.11192 0.40266 0.48599 0.0
H581 H 0.04219 0.34213 0.59404 0.0
H582 H 0.03958 0.35146 0.662 0.0
H583 H 0.06293 0.3384 0.64071 0.0
C584 C 0.88398 0.02326 0.94367 0.0
C585 C 0.8686 0.00748 0.94739 0.0
C586 C 0.9021 0.02317 0.9075 0.0
C587 C 0.90501 0.00702 0.87315 0.0
C588 C 0.88929 0.99129 0.87531 0.0
C589 C 0.87133 0.99169 0.91234 0.0
C590 C 0.91844 0.0402 0.90707 0.0
C591 C 0.89183 0.97367 0.83994 0.0
C592 C 0.94638 0.01497 0.75252 0.0
C593 C 0.9647 0.0075 0.7755 0.0
C594 C 0.92671 0.01463 0.78337 0.0
C595 C 0.92519 0.00612 0.83787 0.0
C596 C 0.94347 0.99774 0.8601 0.0
C597 C 0.96295 0.99877 0.82905 0.0
C598 C 0.90768 0.02383 0.75821 0.0
C599 C 0.94267 0.98809 0.91734 0.0
H600 H 0.88194 0.03578 0.96947 0.0
H601 H 0.85979 0.97928 0.91503 0.0
H602 H 0.93386 0.03462 0.92066 0.0
H603 H 0.92133 0.0468 0.86474 0.0
H604 H 0.91341 0.05207 0.93443 0.0
H605 H 0.87749 0.96343 0.8432 0.0
H606 H 0.89492 0.97875 0.7963 0.0
H607 H 0.90582 0.96524 0.85247 0.0
H608 H 0.94758 0.0216 0.71111 0.0
H609 H 0.97692 0.99256 0.84681 0.0
H610 H 0.9026 0.03656 0.78229 0.0
H611 H 0.89403 0.01285 0.75974 0.0
H612 H 0.91118 0.02921 0.71488 0.0
H613 H 0.94085 0.99967 0.94788 0.0
H614 H 0.95736 0.97994 0.92568 0.0
H615 H 0.92871 0.97752 0.92368 0.0
C616 C 0.55426 0.82745 0.98138 0.0
C617 C 0.57018 0.81443 0.96588 0.0
C618 C 0.55016 0.8444 0.94849 0.0
C619 C 0.56239 0.84866 0.89879 0.0
C620 C 0.57827 0.83539 0.8823 0.0
C621 C 0.58187 0.81832 0.91586 0.0
C622 C 0.53293 0.85796 0.9675 0.0
C623 C 0.59189 0.83959 0.83013 0.0
C624 C 0.53888 0.88593 0.79791 0.0
C625 C 0.5488 0.90388 0.81173 0.0
C626 C 0.54366 0.86773 0.82453 0.0
C627 C 0.5589 0.86742 0.86558 0.0
C628 C 0.5696 0.88541 0.87804 0.0
C629 C 0.56435 0.90338 0.85123 0.0
C630 C 0.53181 0.84894 0.8102 0.0
C631 C 0.58613 0.88579 0.92098 0.0
H632 H 0.54503 0.82438 0.01973 0.0
H633 H 0.5943 0.80838 0.90393 0.0
H634 H 0.54002 0.87294 0.974 0.0
H635 H 0.52109 0.85975 0.93547 0.0
H636 H 0.52445 0.85224 0.00636 0.0
H637 H 0.6029 0.82742 0.82175 0.0
H638 H 0.58163 0.84171 0.7947 0.0
H639 H 0.60149 0.85361 0.83319 0.0
H640 H 0.52678 0.88619 0.76765 0.0
H641 H 0.57237 0.91714 0.86147 0.0
H642 H 0.52187 0.8429 0.84644 0.0
H643 H 0.54327 0.83743 0.79927 0.0
H644 H 0.52128 0.85148 0.77542 0.0
H645 H 0.57833 0.88204 0.96211 0.0
H646 H 0.5945 0.90058 0.92196 0.0
H647 H 0.59816 0.87444 0.91323 0.0
C648 C 0.69347 0.46483 0.00939 0.0
C649 C 0.71382 0.4591 0.99156 0.0
C650 C 0.67784 0.4691 0.97193 0.0
C651 C 0.6826 0.4675 0.9151 0.0
C652 C 0.70325 0.4621 0.89665 0.0
C653 C 0.71871 0.45807 0.93515 0.0
C654 C 0.65612 0.47509 0.99331 0.0
C655 C 0.70883 0.46028 0.83634 0.0
C656 C 0.63442 0.45839 0.83015 0.0
C657 C 0.631 0.47756 0.80875 0.0
C658 C 0.65165 0.45478 0.86335 0.0
C659 C 0.66564 0.4708 0.87542 0.0
C660 C 0.66251 0.49014 0.85243 0.0
C661 C 0.6451 0.4933 0.81945 0.0
C662 C 0.65434 0.43401 0.88742 0.0
C663 C 0.67691 0.50763 0.86475 0.0
H664 H 0.68979 0.46604 0.05293 0.0
H665 H 0.73444 0.45367 0.92127 0.0
H666 H 0.65219 0.48964 0.97386 0.0
H667 H 0.64372 0.46401 0.98237 0.0
H668 H 0.65525 0.47627 0.0386 0.0
H669 H 0.72566 0.45618 0.82853 0.0
H670 H 0.69816 0.44881 0.81956 0.0
H671 H 0.70624 0.47456 0.81349 0.0
H672 H 0.62315 0.44637 0.82248 0.0
H673 H 0.64204 0.50818 0.80354 0.0
H674 H 0.65186 0.43382 0.93275 0.0
H675 H 0.67083 0.42926 0.87824 0.0
H676 H 0.6429 0.42301 0.87136 0.0
H677 H 0.67442 0.51105 0.90856 0.0
H678 H 0.67374 0.52116 0.83901 0.0
H679 H 0.69392 0.50402 0.85801 0.0
C680 C 0.97696 0.67492 0.92884 0.0
C681 C 0.95977 0.6864 0.91387 0.0
C682 C 0.98142 0.65734 0.90281 0.0
C683 C 0.96838 0.65106 0.86067 0.0
C684 C 0.95101 0.66258 0.84518 0.0
C685 C 0.94692 0.68016 0.87194 0.0
C686 C 1.00019 0.64554 0.92024 0.0
C687 C 0.93668 0.65624 0.80069 0.0
C688 C 0.99299 0.61457 0.76444 0.0
C689 C 0.98485 0.59631 0.78813 0.0
C690 C 0.98721 0.6326 0.78657 0.0
C691 C 0.97294 0.63231 0.83336 0.0
C692 C 0.96406 0.61396 0.85612 0.0
C693 C 0.97013 0.5962 0.83324 0.0
C694 C 0.99691 0.65191 0.76107 0.0
C695 C 0.94865 0.61304 0.9057 0.0
H696 H 0.98716 0.67984 0.96055 0.0
H697 H 0.93348 0.68887 0.86058 0.0
H698 H 0.99478 0.63013 0.93353 0.0
H699 H 0.01184 0.64458 0.8849 0.0
H700 H 0.00849 0.65229 0.95442 0.0
H701 H 0.924 0.66698 0.79302 0.0
H702 H 0.94625 0.65471 0.76183 0.0
H703 H 0.929 0.64145 0.81233 0.0
H704 H 1.00447 0.61476 0.7298 0.0
H705 H 0.96348 0.58214 0.85109 0.0
H706 H 0.00684 0.65932 0.79112 0.0
H707 H 0.98415 0.66218 0.75035 0.0
H708 H 0.00704 0.64965 0.72346 0.0
H709 H 0.95688 0.61844 0.9417 0.0
H710 H 0.94208 0.59771 0.91605 0.0
H711 H 0.93519 0.62293 0.8984 0.0
C712 C 0.12893 0.11369 0.56798 0.0
C713 C 0.12333 0.1335 0.55834 0.0
C714 C 0.11396 0.09943 0.59135 0.0
C715 C 0.09332 0.10544 0.60762 0.0
C716 C 0.08894 0.12585 0.607 0.0
C717 C 0.10387 0.13967 0.58162 0.0
C718 C 0.12027 0.078 0.59466 0.0
C719 C 0.06773 0.13293 0.62865 0.0
C720 C 0.0473 0.06846 0.59067 0.0
C721 C 0.04359 0.06082 0.64465 0.0
C722 C 0.06309 0.08357 0.57831 0.0
C723 C 0.07571 0.09057 0.62067 0.0
C724 C 0.07166 0.08326 0.6752 0.0
C725 C 0.05509 0.06917 0.68682 0.0
C726 C 0.0671 0.09129 0.51957 0.0
C727 C 0.08588 0.0891 0.72053 0.0
H728 H 0.14436 0.10891 0.55294 0.0
H729 H 0.09928 0.15493 0.5757 0.0
H730 H 0.1072 0.06735 0.60994 0.0
H731 H 0.12617 0.07378 0.55341 0.0
H732 H 0.13379 0.0765 0.62212 0.0
H733 H 0.06799 0.14932 0.63232 0.0
H734 H 0.05513 0.12877 0.60046 0.0
H735 H 0.06326 0.12568 0.66956 0.0
H736 H 0.03873 0.06199 0.55796 0.0
H737 H 0.05239 0.06349 0.72897 0.0
H738 H 0.08352 0.0878 0.50506 0.0
H739 H 0.06597 0.10771 0.5169 0.0
H740 H 0.05557 0.08472 0.49172 0.0
H741 H 0.10216 0.08369 0.71186 0.0
H742 H 0.07994 0.08268 0.76139 0.0
H743 H 0.08735 0.10552 0.72222 0.0
C744 C 0.37434 0.99421 0.54398 0.0
C745 C 0.37325 0.9924 0.48739 0.0
C746 C 0.3933 0.99006 0.57006 0.0
C747 C 0.41136 0.9843 0.5383 0.0
C748 C 0.40964 0.98111 0.48183 0.0
C749 C 0.39057 0.98524 0.45704 0.0
C750 C 0.39454 0.99337 0.63053 0.0
C751 C 0.42849 0.975 0.44658 0.0
C752 C 0.4649 0.00536 0.57557 0.0
C753 C 0.47384 0.98903 0.60267 0.0
C754 C 0.44454 0.00393 0.55524 0.0
C755 C 0.43288 0.98554 0.56079 0.0
C756 C 0.44204 0.96871 0.58603 0.0
C757 C 0.46245 0.97069 0.60718 0.0
C758 C 0.43536 0.0223 0.52882 0.0
C759 C 0.43006 0.94885 0.59239 0.0
H760 H 0.36081 0.99973 0.56715 0.0
H761 H 0.3895 0.98385 0.41315 0.0
H762 H 0.40298 0.98116 0.65127 0.0
H763 H 0.40378 0.00744 0.636 0.0
H764 H 0.37845 0.9944 0.65103 0.0
H765 H 0.42376 0.97058 0.40547 0.0
H766 H 0.44037 0.98763 0.44079 0.0
H767 H 0.43647 0.96241 0.46701 0.0
H768 H 0.47357 0.01962 0.57167 0.0
H769 H 0.46917 0.95809 0.62856 0.0
H770 H 0.42038 0.02594 0.55156 0.0
H771 H 0.43134 0.01953 0.48602 0.0
H772 H 0.44657 0.03548 0.52804 0.0
H773 H 0.41735 0.94942 0.62539 0.0
H774 H 0.44072 0.93661 0.60343 0.0
H775 H 0.42222 0.94535 0.55404 0.0
C776 C 0.45051 0.39155 0.51108 0.0
C777 C 0.45934 0.3738 0.49482 0.0
C778 C 0.46192 0.40463 0.54274 0.0
C779 C 0.48246 0.39963 0.55912 0.0
C780 C 0.49039 0.38079 0.54824 0.0
C781 C 0.4788 0.3681 0.51578 0.0
C782 C 0.45273 0.42447 0.55478 0.0
C783 C 0.51191 0.37474 0.56695 0.0
C784 C 0.51959 0.4449 0.56273 0.0
C785 C 0.51864 0.44825 0.61865 0.0
C786 C 0.50887 0.42827 0.54321 0.0
C787 C 0.49663 0.41514 0.5807 0.0
C788 C 0.49657 0.41805 0.63768 0.0
C789 C 0.50763 0.43467 0.65597 0.0
C790 C 0.50953 0.42545 0.48216 0.0
C791 C 0.48358 0.40468 0.67911 0.0
H792 H 0.43523 0.39579 0.49616 0.0
H793 H 0.48583 0.35444 0.50346 0.0
H794 H 0.45412 0.42754 0.59873 0.0
H795 H 0.46192 0.43647 0.53022 0.0
H796 H 0.43568 0.42514 0.54467 0.0
H797 H 0.5144 0.35865 0.56217 0.0
H798 H 0.52469 0.38343 0.54237 0.0
H799 H 0.51363 0.37808 0.61064 0.0
H800 H 0.52779 0.45578 0.53422 0.0
H801 H 0.5066 0.43772 0.69925 0.0
H802 H 0.49352 0.42798 0.46623 0.0
H803 H 0.51363 0.40997 0.47358 0.0
H804 H 0.52133 0.43584 0.45935 0.0
H805 H 0.46693 0.40973 0.68175 0.0
H806 H 0.49 0.40532 0.72067 0.0
H807 H 0.48308 0.389 0.66714 0.0
C808 C 0.1478 0.5666 0.42588 0.0
C809 C 0.16624 0.55699 0.44037 0.0
C810 C 0.12942 0.56508 0.46066 0.0
C811 C 0.12983 0.55375 0.51083 0.0
C812 C 0.14922 0.54604 0.52831 0.0
C813 C 0.16732 0.5476 0.49232 0.0
C814 C 0.10895 0.57314 0.44015 0.0
C815 C 0.15022 0.53408 0.58193 0.0
C816 C 0.08021 0.54885 0.60546 0.0
C817 C 0.07176 0.53033 0.59151 0.0
C818 C 0.0992 0.55683 0.57937 0.0
C819 C 0.10948 0.54614 0.53793 0.0
C820 C 0.10044 0.52777 0.52238 0.0
C821 C 0.0818 0.52001 0.54994 0.0
C822 C 0.10875 0.57615 0.59771 0.0
C823 C 0.11067 0.51549 0.47873 0.0
H824 H 0.14712 0.57361 0.38507 0.0
H825 H 0.18164 0.54002 0.50277 0.0
H826 H 0.09904 0.5607 0.4253 0.0
H827 H 0.09956 0.5799 0.47358 0.0
H828 H 0.11203 0.58443 0.40573 0.0
H829 H 0.16691 0.53286 0.59465 0.0
H830 H 0.14063 0.54083 0.61507 0.0
H831 H 0.14345 0.51884 0.57713 0.0
H832 H 0.07259 0.5566 0.63859 0.0
H833 H 0.07528 0.50559 0.5396 0.0
H834 H 0.112 0.58682 0.56202 0.0
H835 H 0.12428 0.5734 0.61611 0.0
H836 H 0.09817 0.58313 0.62849 0.0
H837 H 0.09823 0.50825 0.45469 0.0
H838 H 0.11953 0.50346 0.49908 0.0
H839 H 0.12191 0.5242 0.44969 0.0
C840 C 0.93683 0.88647 0.87188 0.0
C841 C 0.93503 0.86984 0.83959 0.0
C842 C 0.95118 0.90225 0.85669 0.0
C843 C 0.96362 0.90167 0.80711 0.0
C844 C 0.96067 0.8858 0.7719 0.0
C845 C 0.94662 0.8698 0.78908 0.0
C846 C 0.9534 0.91922 0.89472 0.0
C847 C 0.97283 0.88534 0.71716 0.0
C848 C 0.98641 0.952 0.75881 0.0
C849 C 0.00811 0.9504 0.76903 0.0
C850 C 0.97197 0.93605 0.76903 0.0
C851 C 0.97926 0.91809 0.79207 0.0
C852 C 1.0011 0.91648 0.80439 0.0
C853 C 0.01546 0.93278 0.79221 0.0
C854 C 0.94901 0.93894 0.75503 0.0
C855 C 0.00949 0.89755 0.82931 0.0
H856 H 0.9282 0.88655 0.9114 0.0
H857 H 0.94529 0.85696 0.76412 0.0
H858 H 0.97044 0.92369 0.89873 0.0
H859 H 0.94524 0.9323 0.87762 0.0
H860 H 0.9461 0.91534 0.93639 0.0
H861 H 0.96497 0.875 0.68955 0.0
H862 H 0.97435 0.90038 0.69633 0.0
H863 H 0.98915 0.88019 0.72376 0.0
H864 H 0.98067 0.96579 0.74131 0.0
H865 H 0.03229 0.9316 0.7995 0.0
H866 H 0.94115 0.94784 0.78681 0.0
H867 H 0.93965 0.92479 0.75221 0.0
H868 H 0.94838 0.94761 0.71529 0.0
H869 H 0.02407 0.90061 0.85209 0.0
H870 H 0.01383 0.88762 0.79589 0.0
H871 H 0.99741 0.8895 0.85764 0.0
C872 C 0.66772 0.99221 0.87206 0.0
C873 C 0.67837 0.00741 0.89857 0.0
C874 C 0.649 0.99589 0.84467 0.0
C875 C 0.64076 0.0152 0.84399 0.0
C876 C 0.65215 0.03086 0.86759 0.0
C877 C 0.67083 0.02677 0.89461 0.0
C878 C 0.63739 0.97887 0.81921 0.0
C879 C 0.64378 0.05159 0.86798 0.0
C880 C 0.59598 0.02623 0.74944 0.0
C881 C 0.57804 0.02116 0.78425 0.0
C882 C 0.61662 0.02465 0.76837 0.0
C883 C 0.61918 0.01849 0.82383 0.0
C884 C 0.60098 0.01445 0.85986 0.0
C885 C 0.58057 0.0154 0.83921 0.0
C886 C 0.63558 0.02832 0.72827 0.0
C887 C 0.60307 0.00813 0.9195 0.0
H888 H 0.67359 0.97727 0.87449 0.0
H889 H 0.67873 0.03854 0.91571 0.0
H890 H 0.62233 0.9749 0.84357 0.0
H891 H 0.63304 0.9833 0.77695 0.0
H892 H 0.64711 0.96542 0.8176 0.0
H893 H 0.65569 0.06254 0.88227 0.0
H894 H 0.63916 0.05658 0.82638 0.0
H895 H 0.62923 0.05154 0.89572 0.0
H896 H 0.59387 0.02998 0.70636 0.0
H897 H 0.56659 0.01103 0.86549 0.0
H898 H 0.64411 0.0143 0.72365 0.0
H899 H 0.64701 0.03935 0.74404 0.0
H900 H 0.63083 0.03377 0.68709 0.0
H901 H 0.60934 0.99294 0.92254 0.0
H902 H 0.58753 0.00802 0.94333 0.0
H903 H 0.61457 0.01824 0.93873 0.0
C904 C 0.56522 0.62117 0.94078 0.0
C905 C 0.57426 0.63779 0.91051 0.0
C906 C 0.55632 0.60512 0.91455 0.0
C907 C 0.55679 0.60565 0.85654 0.0
C908 C 0.56576 0.62253 0.82562 0.0
C909 C 0.57422 0.63865 0.85321 0.0
C910 C 0.54697 0.58737 0.94892 0.0
C911 C 0.56695 0.62329 0.76365 0.0
C912 C 0.55719 0.55453 0.80069 0.0
C913 C 0.53586 0.5515 0.78684 0.0
C914 C 0.56433 0.57245 0.82109 0.0
C915 C 0.54973 0.58764 0.82899 0.0
C916 C 0.5282 0.58479 0.81516 0.0
C917 C 0.52149 0.56671 0.79388 0.0
C918 C 0.5875 0.57498 0.83485 0.0
C919 C 0.51221 0.60068 0.82384 0.0
H920 H 0.56514 0.62077 0.98528 0.0
H921 H 0.58119 0.65165 0.83023 0.0
H922 H 0.53055 0.58364 0.93671 0.0
H923 H 0.55671 0.57421 0.94186 0.0
H924 H 0.5464 0.59001 0.99354 0.0
H925 H 0.57463 0.63741 0.74578 0.0
H926 H 0.57614 0.61068 0.74868 0.0
H927 H 0.55067 0.62168 0.74821 0.0
H928 H 0.56854 0.54295 0.79499 0.0
H929 H 0.5051 0.56451 0.78267 0.0
H930 H 0.58863 0.57633 0.87974 0.0
H931 H 0.5947 0.58886 0.81436 0.0
H932 H 0.59712 0.56229 0.8222 0.0
H933 H 0.50991 0.60303 0.86838 0.0
H934 H 0.49647 0.5967 0.80752 0.0
H935 H 0.51828 0.61501 0.80365 0.0
C936 C 0.89972 0.42484 0.93228 0.0
C937 C 0.88462 0.43879 0.94665 0.0
C938 C 0.91705 0.43021 0.89583 0.0
C939 C 0.9188 0.44976 0.87204 0.0
C940 C 0.90214 0.46303 0.88054 0.0
C941 C 0.88532 0.45749 0.91851 0.0
C942 C 0.93443 0.4156 0.88687 0.0
C943 C 0.90302 0.48364 0.85314 0.0
C944 C 0.97399 0.47398 0.85279 0.0
C945 C 0.97857 0.47137 0.79729 0.0
C946 C 0.95462 0.46662 0.8778 0.0
C947 C 0.93933 0.45725 0.84557 0.0
C948 C 0.94378 0.45509 0.7889 0.0
C949 C 0.96368 0.46183 0.76561 0.0
C950 C 0.95045 0.46906 0.93852 0.0
C951 C 0.92764 0.44595 0.75264 0.0
H952 H 0.89885 0.41015 0.95261 0.0
H953 H 0.87371 0.46839 0.92907 0.0
H954 H 0.93842 0.41459 0.84239 0.0
H955 H 0.94911 0.42091 0.90621 0.0
H956 H 0.92979 0.40049 0.90469 0.0
H957 H 0.88729 0.49068 0.85617 0.0
H958 H 0.91485 0.49319 0.87308 0.0
H959 H 0.90825 0.48314 0.80916 0.0
H960 H 0.98555 0.4818 0.8764 0.0
H961 H 0.96725 0.46044 0.72205 0.0
H962 H 0.94638 0.45437 0.95972 0.0
H963 H 0.93662 0.47861 0.94521 0.0
H964 H 0.96444 0.47587 0.95786 0.0
H965 H 0.92839 0.42952 0.75634 0.0
H966 H 0.93096 0.45074 0.70876 0.0
H967 H 0.91113 0.44992 0.76486 0.0
C968 C 0.07544 0.13804 0.07923 0.0
C969 C 0.09629 0.14595 0.08173 0.0
C970 C 0.07098 0.12174 0.04713 0.0
C971 C 0.08774 0.11332 0.01597 0.0
C972 C 0.10888 0.12135 0.01845 0.0
C973 C 0.11293 0.13747 0.05174 0.0
C974 C 0.0483 0.11353 0.04648 0.0
C975 C 0.12712 0.11319 0.98507 0.0
C976 C 0.07749 0.06093 0.96632 0.0
C977 C 0.07017 0.06501 0.91374 0.0
C978 C 0.08362 0.07647 0.99976 0.0
C979 C 0.0829 0.09655 0.97968 0.0
C980 C 0.07637 0.10066 0.92569 0.0
C981 C 0.06987 0.08491 0.89377 0.0
C982 C 0.09017 0.07144 0.05731 0.0
C983 C 0.07572 0.12175 0.90201 0.0
H984 H 0.06263 0.14458 0.10278 0.0
H985 H 0.12905 0.14365 0.05376 0.0
H986 H 0.04255 0.11501 0.00427 0.0
H987 H 0.04763 0.09743 0.05883 0.0
H988 H 0.03724 0.12127 0.07447 0.0
H989 H 0.14274 0.12041 0.99353 0.0
H990 H 0.12794 0.09693 0.99379 0.0
H991 H 0.12439 0.11552 0.94069 0.0
H992 H 0.07761 0.04562 0.98212 0.0
H993 H 0.06432 0.08818 0.85308 0.0
H994 H 0.07894 0.07795 0.08741 0.0
H995 H 0.10628 0.07803 0.06336 0.0
H996 H 0.09035 0.05513 0.06647 0.0
H997 H 0.06344 0.12988 0.92513 0.0
H998 H 0.07196 0.12235 0.85795 0.0
H999 H 0.09131 0.12971 0.90622 0.0
C1000 C 0.38042 0.01019 0.94238 0.0
C1001 C 0.38204 0.01036 0.99964 0.0
C1002 C 0.39868 0.01031 0.90657 0.0
C1003 C 0.41923 0.01089 0.92815 0.0
C1004 C 0.42105 0.01132 0.98573 0.0
C1005 C 0.4025 0.01097 0.02068 0.0
C1006 C 0.39593 0.00958 0.84556 0.0
C1007 C 0.44264 0.01196 0.01051 0.0
C1008 C 0.46579 0.99182 0.842 0.0
C1009 C 0.47555 0.00951 0.81828 0.0
C1010 C 0.44751 0.99208 0.87757 0.0
C1011 C 0.4388 0.01048 0.89062 0.0
C1012 C 0.4487 0.02841 0.86736 0.0
C1013 C 0.46684 0.0277 0.83124 0.0
C1014 C 0.43733 0.9726 0.9006 0.0
C1015 C 0.43998 0.04834 0.8802 0.0
H1016 H 0.3648 0.0101 0.92527 0.0
H1017 H 0.40408 0.01082 0.06469 0.0
H1018 H 0.40454 0.02249 0.82354 0.0
H1019 H 0.40299 0.99594 0.83 0.0
H1020 H 0.37888 0.00965 0.83517 0.0
H1021 H 0.44139 0.01274 0.0559 0.0
H1022 H 0.45142 0.99853 1.00013 0.0
H1023 H 0.4523 0.02508 0.99295 0.0
H1024 H 0.47221 0.97764 0.83197 0.0
H1025 H 0.47415 0.04143 0.81299 0.0
H1026 H 0.42055 0.97124 0.88839 0.0
H1027 H 0.43695 0.97215 0.94611 0.0
H1028 H 0.44596 0.95955 0.88621 0.0
H1029 H 0.42371 0.04948 0.86467 0.0
H1030 H 0.45019 0.06093 0.86147 0.0
H1031 H 0.43858 0.04983 0.92529 0.0
C1032 C 0.4649 0.3901 0.00737 0.0
C1033 C 0.47463 0.3721 0.99659 0.0
C1034 C 0.46914 0.40732 0.9731 0.0
C1035 C 0.48317 0.40659 0.92615 0.0
C1036 C 0.49248 0.38836 0.91386 0.0
C1037 C 0.48826 0.37144 0.94935 0.0
C1038 C 0.45894 0.42646 0.98777 0.0
C1039 C 0.50739 0.38684 0.86396 0.0
C1040 C 0.48249 0.44793 0.81367 0.0
C1041 C 0.5008 0.45943 0.82389 0.0
C1042 C 0.47656 0.43066 0.84641 0.0
C1043 C 0.48892 0.42507 0.89138 0.0
C1044 C 0.50708 0.43702 0.90274 0.0
C1045 C 0.51298 0.45386 0.86839 0.0
C1046 C 0.45752 0.41802 0.83168 0.0
C1047 C 0.5205 0.43185 0.95075 0.0
H1048 H 0.45398 0.39081 0.04292 0.0
H1049 H 0.49617 0.35782 0.94074 0.0
H1050 H 0.4715 0.43805 0.99389 0.0
H1051 H 0.44937 0.43199 0.95356 0.0
H1052 H 0.44839 0.42462 0.02568 0.0
H1053 H 0.51153 0.37123 0.85697 0.0
H1054 H 0.50008 0.39312 0.82676 0.0
H1055 H 0.52236 0.39566 0.86921 0.0
H1056 H 0.47337 0.45189 0.77841 0.0
H1057 H 0.52727 0.46263 0.87605 0.0
H1058 H 0.44575 0.41628 0.86709 0.0
H1059 H 0.46267 0.40292 0.82209 0.0
H1060 H 0.44951 0.42448 0.7957 0.0
H1061 H 0.51038 0.43089 0.9894 0.0
H1062 H 0.53377 0.44296 0.95491 0.0
H1063 H 0.52738 0.41705 0.94584 0.0
C1064 C 0.16868 0.51888 0.90899 0.0
C1065 C 0.16783 0.5316 0.95289 0.0
C1066 C 0.15053 0.5147 0.87949 0.0
C1067 C 0.13098 0.52329 0.89449 0.0
C1068 C 0.13003 0.5363 0.93833 0.0
C1069 C 0.14846 0.54032 0.96696 0.0
C1070 C 0.15226 0.50102 0.83233 0.0
C1071 C 0.10947 0.5458 0.9554 0.0
C1072 C 0.08797 0.52606 0.79051 0.0
C1073 C 0.07514 0.50911 0.80608 0.0
C1074 C 0.10634 0.53074 0.81847 0.0
C1075 C 0.1115 0.51854 0.8644 0.0
C1076 C 0.09829 0.50156 0.88089 0.0
C1077 C 0.08043 0.4968 0.85071 0.0
C1078 C 0.12034 0.54857 0.79834 0.0
C1079 C 0.10304 0.48848 0.93041 0.0
H1080 H 0.18349 0.51188 0.8982 0.0
H1081 H 0.14774 0.55041 1.00024 0.0
H1082 H 0.14131 0.48781 0.84063 0.0
H1083 H 0.1473 0.50877 0.79414 0.0
H1084 H 0.16874 0.49587 0.82513 0.0
H1085 H 0.11156 0.55607 0.98919 0.0
H1086 H 0.10317 0.55424 0.91994 0.0
H1087 H 0.09725 0.53407 0.96915 0.0
H1088 H 0.08391 0.53539 0.75535 0.0
H1089 H 0.07039 0.4837 0.86251 0.0
H1090 H 0.13691 0.54397 0.78958 0.0
H1091 H 0.12095 0.55957 0.83066 0.0
H1092 H 0.11453 0.55598 0.76052 0.0
H1093 H 0.1188 0.48178 0.92385 0.0
H1094 H 0.09073 0.47633 0.93915 0.0
H1095 H 0.10395 0.49755 0.96707 0.0
C1096 C 0.96467 0.88377 0.28475 0.0
C1097 C 0.9568 0.86545 0.30903 0.0
C1098 C 0.96899 0.90017 0.31672 0.0
C1099 C 0.96573 0.89823 0.37461 0.0
C1100 C 0.9572 0.87999 0.39921 0.0
C1101 C 0.9527 0.86394 0.3662 0.0
C1102 C 0.97781 0.91937 0.28859 0.0
C1103 C 0.95355 0.87714 0.46069 0.0
C1104 C 1.0013 0.93116 0.45753 0.0
C1105 C 0.98722 0.9453 0.47759 0.0
C1106 C 0.99435 0.91563 0.42549 0.0
C1107 C 0.97297 0.91462 0.40965 0.0
C1108 C 0.95879 0.92921 0.42727 0.0
C1109 C 0.96593 0.94412 0.46168 0.0
C1110 C 0.00993 0.90012 0.40909 0.0
C1111 C 0.93605 0.92906 0.40966 0.0
H1112 H 0.96814 0.88516 0.24081 0.0
H1113 H 0.94616 0.85008 0.38545 0.0
H1114 H 0.96901 0.93216 0.30384 0.0
H1115 H 0.99479 0.92172 0.29826 0.0
H1116 H 0.97687 0.91934 0.24326 0.0
H1117 H 0.94621 0.86226 0.47331 0.0
H1118 H 0.96898 0.87886 0.48068 0.0
H1119 H 0.943 0.8887 0.47631 0.0
H1120 H 0.01799 0.93204 0.4667 0.0
H1121 H 0.95463 0.95461 0.47661 0.0
H1122 H 0.01244 0.90055 0.36377 0.0
H1123 H 1.00334 0.88504 0.42228 0.0
H1124 H 0.02567 0.90232 0.42739 0.0
H1125 H 0.93597 0.93062 0.36421 0.0
H1126 H 0.92686 0.94124 0.42723 0.0
H1127 H 0.92776 0.91463 0.42237 0.0
C1128 C 0.66161 0.0205 0.41281 0.0
C1129 C 0.66974 0.00279 0.39404 0.0
C1130 C 0.64345 0.02023 0.44915 0.0
C1131 C 0.63278 1.00186 0.46582 0.0
C1132 C 0.64079 0.98397 0.44612 0.0
C1133 C 0.65932 0.98464 0.41115 0.0
C1134 C 0.63594 0.03959 0.47048 0.0
C1135 C 0.62964 0.96412 0.46152 0.0
C1136 C 0.59643 0.99717 0.59621 0.0
C1137 C 0.57628 0.99996 0.57538 0.0
C1138 C 0.61497 0.99812 0.56124 0.0
C1139 C 0.61324 1.00128 0.50377 0.0
C1140 C 0.59277 0.00376 0.4826 0.0
C1141 C 0.57459 0.00353 0.51883 0.0
C1142 C 0.63644 0.99622 0.58602 0.0
C1143 C 0.59007 0.00662 0.42166 0.0
H1144 H 0.66979 0.03453 0.40006 0.0
H1145 H 0.66556 0.97095 0.39647 0.0
H1146 H 0.6193 0.04199 0.45905 0.0
H1147 H 0.63594 0.03896 0.51599 0.0
H1148 H 0.64617 0.05256 0.45424 0.0
H1149 H 0.63789 0.95159 0.44282 0.0
H1150 H 0.62872 0.96146 0.50677 0.0
H1151 H 0.61301 0.96418 0.44791 0.0
H1152 H 0.59774 0.99491 0.6402 0.0
H1153 H 0.55898 0.0059 0.50294 0.0
H1154 H 0.64622 0.01015 0.57686 0.0
H1155 H 0.64521 0.98398 0.56754 0.0
H1156 H 0.63501 0.99333 0.63127 0.0
H1157 H 0.59822 0.02076 0.40583 0.0
H1158 H 0.573 0.00697 0.41156 0.0
H1159 H 0.59762 0.99441 0.39974 0.0
C1160 C 0.56118 0.6117 0.38015 0.0
C1161 C 0.57635 0.62652 0.39207 0.0
C1162 C 0.55754 0.59447 0.41464 0.0
C1163 C 0.56925 0.59194 0.46253 0.0
C1164 C 0.58487 0.60662 0.4743 0.0
C1165 C 0.58831 0.62363 0.43885 0.0
C1166 C 0.54059 0.57928 0.40082 0.0
C1167 C 0.59753 0.60464 0.52523 0.0
C1168 C 0.54151 0.56014 0.57925 0.0
C1169 C 0.55191 0.54209 0.576 0.0
C1170 C 0.54745 0.57656 0.54368 0.0
C1171 C 0.56385 0.5748 0.50254 0.0
C1172 C 0.57456 0.55664 0.49926 0.0
C1173 C 0.56867 0.54054 0.53667 0.0
C1174 C 0.53607 0.59578 0.55004 0.0
C1175 C 0.59187 0.55411 0.45545 0.0
H1176 H 0.55161 0.61386 0.34471 0.0
H1177 H 0.6003 0.6348 0.44809 0.0
H1178 H 0.54717 0.5642 0.40146 0.0
H1179 H 0.52718 0.57898 0.43223 0.0
H1180 H 0.53415 0.58258 0.3599 0.0
H1181 H 0.60905 0.61738 0.52862 0.0
H1182 H 0.58655 0.60363 0.56236 0.0
H1183 H 0.60647 0.59072 0.52503 0.0
H1184 H 0.52877 0.56152 0.61032 0.0
H1185 H 0.5767 0.52661 0.53417 0.0
H1186 H 0.52736 0.59941 0.51259 0.0
H1187 H 0.54783 0.6082 0.55487 0.0
H1188 H 0.52448 0.595 0.58602 0.0
H1189 H 0.58517 0.55591 0.41432 0.0
H1190 H 0.59906 0.5393 0.45925 0.0
H1191 H 0.60466 0.56581 0.45767 0.0
C1192 C 0.88562 0.45951 0.50133 0.0
C1193 C 0.88556 0.46263 0.44407 0.0
C1194 C 0.90351 0.46509 0.53029 0.0
C1195 C 0.92175 0.47398 0.50123 0.0
C1196 C 0.9219 0.47691 0.44345 0.0
C1197 C 0.9038 0.47124 0.41559 0.0
C1198 C 0.90288 0.46154 0.59193 0.0
C1199 C 0.94114 0.48618 0.41106 0.0
C1200 C 0.96102 0.505 0.57865 0.0
C1201 C 0.97721 0.49155 0.58729 0.0
C1202 C 0.94285 0.49949 0.5506 0.0
C1203 C 0.94083 0.48006 0.53109 0.0
C1204 C 0.95716 0.46648 0.53947 0.0
C1205 C 0.97518 0.47241 0.56715 0.0
C1206 C 0.9257 0.51435 0.54237 0.0
C1207 C 0.95543 0.44555 0.52001 0.0
H1208 H 0.87166 0.45266 0.52352 0.0
H1209 H 0.90377 0.47399 0.37149 0.0
H1210 H 0.91602 0.45188 0.6038 0.0
H1211 H 0.90536 0.47585 0.61184 0.0
H1212 H 0.88749 0.45442 0.60834 0.0
H1213 H 0.93869 0.48744 0.36628 0.0
H1214 H 0.94483 0.50125 0.42544 0.0
H1215 H 0.9553 0.47714 0.41793 0.0
H1216 H 0.96239 0.51974 0.59443 0.0
H1217 H 0.98747 0.4618 0.57418 0.0
H1218 H 0.9103 0.50833 0.56172 0.0
H1219 H 0.92334 0.51696 0.49789 0.0
H1220 H 0.92966 0.52883 0.56012 0.0
H1221 H 0.94122 0.43755 0.5404 0.0
H1222 H 0.96976 0.43693 0.52878 0.0
H1223 H 0.95323 0.4459 0.47515 0.0
loop_
_geom_bond_atom_site_label_1
_geom_bond_atom_site_label_2
_geom_bond_distance
_geom_bond_site_symmetry_2
_ccdc_geom_bond_type
C0 C1 1.264 . S
C0 C5 1.479 . S
C0 C10 1.465 . S
C1 C0 1.264 . S
C1 C3 1.339 . S
C1 H28 0.931 . S
C2 C3 1.395 . S
C2 C4 1.320 . S
C3 C1 1.339 . S
C3 C2 1.395 . S
C3 H29 0.929 . S
C4 C2 1.320 . S
C4 C5 1.405 . S
C4 H30 0.930 . S
C5 C0 1.479 . S
C5 C4 1.405 . S
C5 H31 0.931 . S
U6 O7 2.454 . S
U6 O8 2.458 . S
U6 C9 2.984 . S
U6 C10 2.847 . S
U6 C23 2.882 . S
U6 O24 2.441 . S
U6 O25 2.420 . S
U6 O26 2.455 . S
U6 O27 2.449 . S
O7 U6 2.454 . S
O7 C9 1.353 . S
O8 U6 2.458 . S
O8 C9 1.286 . S
C9 U6 2.984 . S
C9 O7 1.353 . S
C9 O8 1.286 . S
C9 C11 1.363 . S
C10 C0 1.465 . S
C10 U6 2.847 . S
C10 O24 1.249 . S
C10 O25 1.202 . S
C11 C9 1.363 . S
C11 C13 1.408 . S
C11 C16 1.342 . S
C12 C13 1.310 . S
C12 C15 1.461 . S
C12 H32 0.932 . S
C13 C11 1.408 . S
C13 C12 1.310 . S
C13 H33 0.930 . S
C14 C15 1.474 . S
C14 C16 1.285 . S
C14 H34 0.929 1_554 S
C15 C12 1.461 . S
C15 C14 1.474 . S
C16 C11 1.342 . S
C16 C14 1.285 . S
C16 H35 0.930 . S
C17 C20 1.424 . S
C17 C22 1.245 1_554 S
C17 C23 1.428 . S
C18 C21 1.260 . S
C18 C22 1.477 . S
C18 H36 0.932 . S
C19 C20 1.384 1_556 S
C19 C21 1.479 . S
C19 H37 0.929 . S
C20 C17 1.424 . S
C20 C19 1.384 1_554 S
C20 H38 0.928 . S
C21 C18 1.260 . S
C21 C19 1.479 . S
C22 C17 1.245 1_556 S
C22 C18 1.477 . S
C22 H39 0.932 . S
C23 U6 2.882 . S
C23 C17 1.428 . S
C23 O26 1.301 . S
C23 O27 1.282 . S
O24 U6 2.441 . S
O24 C10 1.249 . S
O25 U6 2.420 . S
O25 C10 1.202 . S
O26 U6 2.455 . S
O26 C23 1.301 . S
O27 U6 2.449 . S
O27 C23 1.282 . S
H28 C1 0.931 . S
H29 C3 0.929 . S
H30 C4 0.930 . S
H31 C5 0.931 . S
H32 C12 0.932 . S
H33 C13 0.930 . S
H34 C14 0.929 1_556 S
H35 C16 0.930 . S
H36 C18 0.932 . S
H37 C19 0.929 . S
H38 C20 0.928 . S
H39 C22 0.932 . S
C40 C41 1.264 . S
C40 C45 1.479 . S
C40 C50 1.465 . S
C41 C40 1.264 . S
C41 C43 1.339 . S
C41 H68 0.931 . S
C42 C43 1.395 . S
C42 C44 1.320 . S
C43 C41 1.339 . S
C43 C42 1.395 . S
C43 H69 0.929 . S
C44 C42 1.320 . S
C44 C45 1.405 . S
C44 H70 0.930 . S
C45 C40 1.479 . S
C45 C44 1.405 . S
C45 H71 0.931 . S
U46 O47 2.454 . S
U46 O48 2.458 1_554 S
U46 C49 2.984 1_554 S
U46 C50 2.847 . S
U46 C63 2.882 1_554 S
U46 O64 2.441 . S
U46 O65 2.420 . S
U46 O66 2.455 1_554 S
U46 O67 2.449 1_554 S
O47 U46 2.454 . S
O47 C49 1.353 1_554 S
O48 U46 2.458 1_556 S
O48 C49 1.286 . S
C49 U46 2.984 1_556 S
C49 O47 1.353 1_556 S
C49 O48 1.286 . S
C49 C51 1.363 . S
C50 C40 1.465 . S
C50 U46 2.847 . S
C50 O64 1.249 . S
C50 O65 1.202 . S
C51 C49 1.363 . S
C51 C53 1.408 1_556 S
C51 C56 1.342 . S
C52 C53 1.310 1_556 S
C52 C55 1.461 . S
C52 H72 0.932 1_556 S
C53 C51 1.408 1_554 S
C53 C52 1.310 1_554 S
C53 H73 0.930 . S
C54 C55 1.474 . S
C54 C56 1.285 . S
C54 H74 0.929 . S
C55 C52 1.461 . S
C55 C54 1.474 . S
C56 C51 1.342 . S
C56 C54 1.285 . S
C56 H75 0.930 . S
C57 C60 1.424 . S
C57 C62 1.245 . S
C57 C63 1.428 . S
C58 C61 1.260 . S
C58 C62 1.477 . S
C58 H76 0.932 . S
C59 C60 1.384 . S
C59 C61 1.479 . S
C59 H77 0.929 . S
C60 C57 1.424 . S
C60 C59 1.384 . S
C60 H78 0.928 . S
C61 C58 1.260 . S
C61 C59 1.479 . S
C62 C57 1.245 . S
C62 C58 1.477 . S
C62 H79 0.932 . S
C63 U46 2.882 1_556 S
C63 C57 1.428 . S
C63 O66 1.301 . S
C63 O67 1.282 . S
O64 U46 2.441 . S
O64 C50 1.249 . S
O65 U46 2.420 . S
O65 C50 1.202 . S
O66 U46 2.455 1_556 S
O66 C63 1.301 . S
O67 U46 2.449 1_556 S
O67 C63 1.282 . S
H68 C41 0.931 . S
H69 C43 0.929 . S
H70 C44 0.930 . S
H71 C45 0.931 . S
H72 C52 0.932 1_554 S
H73 C53 0.930 . S
H74 C54 0.929 . S
H75 C56 0.930 . S
H76 C58 0.932 . S
H77 C59 0.929 . S
H78 C60 0.928 . S
H79 C62 0.932 . S
C80 C81 1.264 . S
C80 C85 1.479 . S
C80 C90 1.465 . S
C81 C80 1.264 . S
C81 C83 1.339 . S
C81 H108 0.931 . S
C82 C83 1.395 . S
C82 C84 1.320 . S
C83 C81 1.339 . S
C83 C82 1.395 . S
C83 H109 0.929 . S
C84 C82 1.320 . S
C84 C85 1.405 . S
C84 H110 0.922 1_545 S
C85 C80 1.479 . S
C85 C84 1.405 . S
C85 H111 0.931 . S
U86 O87 2.454 . S
U86 O88 2.458 . S
U86 C89 2.984 . S
U86 C90 2.847 . S
U86 C103 2.882 1_554 S
U86 O104 2.441 . S
U86 O105 2.420 . S
U86 O106 2.455 1_554 S
U86 O107 2.449 . S
O87 U86 2.454 . S
O87 C89 1.353 . S
O88 U86 2.458 . S
O88 C89 1.286 . S
C89 U86 2.984 . S
C89 O87 1.353 . S
C89 O88 1.286 . S
C89 C91 1.363 . S
C90 C80 1.465 . S
C90 U86 2.847 . S
C90 O104 1.249 . S
C90 O105 1.202 . S
C91 C89 1.363 . S
C91 C93 1.408 . S
C91 C96 1.342 1_554 S
C92 C93 1.310 . S
C92 C95 1.461 . S
C92 H112 0.932 . S
C93 C91 1.408 . S
C93 C92 1.310 . S
C93 H113 0.930 . S
C94 C95 1.474 1_566 S
C94 C96 1.284 1_565 S
C94 H114 0.931 . S
C95 C92 1.461 . S
C95 C94 1.474 1_544 S
C96 C91 1.342 1_556 S
C96 C94 1.284 1_545 S
C96 H115 0.933 . S
C97 C100 1.424 . S
C97 C102 1.245 . S
C97 C103 1.428 . S
C98 C101 1.260 . S
C98 C102 1.477 . S
C98 H116 0.932 . S
C99 C100 1.384 . S
C99 C101 1.479 . S
C99 H117 0.929 . S
C100 C97 1.424 . S
C100 C99 1.384 . S
C100 H118 0.928 1_556 S
C101 C98 1.260 . S
C101 C99 1.479 . S
C102 C97 1.245 . S
C102 C98 1.477 . S
C102 H119 0.932 . S
C103 U86 2.882 1_556 S
C103 C97 1.428 . S
C103 O106 1.301 . S
C103 O107 1.282 1_556 S
O104 U86 2.441 . S
O104 C90 1.249 . S
O105 U86 2.420 . S
O105 C90 1.202 . S
O106 U86 2.455 1_556 S
O106 C103 1.301 . S
O107 U86 2.449 . S
O107 C103 1.282 1_554 S
H108 C81 0.931 . S
H109 C83 0.929 . S
H110 C84 0.922 1_565 S
H111 C85 0.931 . S
H112 C92 0.932 . S
H113 C93 0.930 . S
H114 C94 0.931 . S
H115 C96 0.933 . S
H116 C98 0.932 . S
H117 C99 0.929 . S
H118 C100 0.928 1_554 S
H119 C102 0.932 . S
C120 C121 1.264 . S
C120 C125 1.479 . S
C120 C130 1.465 . S
C121 C120 1.264 . S
C121 C123 1.339 . S
C121 H148 0.931 . S
C122 C123 1.395 . S
C122 C124 1.320 . S
C123 C121 1.339 . S
C123 C122 1.395 . S
C123 H149 0.929 . S
C124 C122 1.320 . S
C124 C125 1.405 . S
C124 H150 0.930 . S
C125 C120 1.479 . S
C125 C124 1.405 . S
C125 H151 0.931 . S
U126 O127 2.454 . S
U126 O128 2.458 . S
U126 C129 2.984 . S
U126 C130 2.847 . S
U126 C143 2.882 . S
U126 O144 2.441 . S
U126 O145 2.420 . S
U126 O146 2.455 1_554 S
U126 O147 2.449 . S
O127 U126 2.454 . S
O127 C129 1.353 . S
O128 U126 2.458 . S
O128 C129 1.286 . S
C129 U126 2.984 . S
C129 O127 1.353 . S
C129 O128 1.286 . S
C129 C131 1.363 . S
C130 C120 1.465 . S
C130 U126 2.847 . S
C130 O144 1.249 . S
C130 O145 1.202 . S
C131 C129 1.363 . S
C131 C133 1.408 . S
C131 C136 1.342 1_554 S
C132 C133 1.310 . S
C132 C135 1.461 . S
C132 H152 0.932 . S
C133 C131 1.408 . S
C133 C132 1.310 . S
C133 H153 0.930 . S
C134 C135 1.474 1_556 S
C134 C136 1.285 . S
C134 H154 0.929 . S
C135 C132 1.461 . S
C135 C134 1.474 1_554 S
C136 C131 1.342 1_556 S
C136 C134 1.285 . S
C136 H155 0.930 . S
C137 C140 1.424 . S
C137 C142 1.245 . S
C137 C143 1.428 1_556 S
C138 C141 1.260 . S
C138 C142 1.477 . S
C138 H156 0.932 . S
C139 C140 1.384 . S
C139 C141 1.479 . S
C139 H157 0.929 . S
C140 C137 1.424 . S
C140 C139 1.384 . S
C140 H158 0.928 1_556 S
C141 C138 1.260 . S
C141 C139 1.479 . S
C142 C137 1.245 . S
C142 C138 1.477 . S
C142 H159 0.932 . S
C143 U126 2.882 . S
C143 C137 1.428 1_554 S
C143 O146 1.301 1_554 S
C143 O147 1.282 . S
O144 U126 2.441 . S
O144 C130 1.249 . S
O145 U126 2.420 . S
O145 C130 1.202 . S
O146 U126 2.455 1_556 S
O146 C143 1.301 1_556 S
O147 U126 2.449 . S
O147 C143 1.282 . S
H148 C121 0.931 . S
H149 C123 0.929 . S
H150 C124 0.930 . S
H151 C125 0.931 . S
H152 C132 0.932 . S
H153 C133 0.930 . S
H154 C134 0.929 . S
H155 C136 0.930 . S
H156 C138 0.932 . S
H157 C139 0.929 . S
H158 C140 0.928 1_554 S
H159 C142 0.932 . S
C160 C161 1.264 . S
C160 C165 1.479 . S
C160 C170 1.465 . S
C161 C160 1.264 . S
C161 C163 1.339 . S
C161 H188 0.931 . S
C162 C163 1.395 1_556 S
C162 C164 1.320 . S
C163 C161 1.339 . S
C163 C162 1.395 1_554 S
C163 H189 0.929 . S
C164 C162 1.320 . S
C164 C165 1.405 1_556 S
C164 H190 0.930 . S
C165 C160 1.479 . S
C165 C164 1.405 1_554 S
C165 H191 0.931 . S
U166 O167 2.454 . S
U166 O168 2.458 . S
U166 C169 2.984 . S
U166 C170 2.847 . S
U166 C183 2.882 . S
U166 O184 2.441 . S
U166 O185 2.420 . S
U166 O186 2.455 . S
U166 O187 2.449 . S
O167 U166 2.454 . S
O167 C169 1.353 . S
O168 U166 2.458 . S
O168 C169 1.286 . S
C169 U166 2.984 . S
C169 O167 1.353 . S
C169 O168 1.286 . S
C169 C171 1.363 . S
C170 C160 1.465 . S
C170 U166 2.847 . S
C170 O184 1.249 . S
C170 O185 1.202 . S
C171 C169 1.363 . S
C171 C173 1.408 . S
C171 C176 1.342 . S
C172 C173 1.310 . S
C172 C175 1.461 . S
C172 H192 0.932 . S
C173 C171 1.408 . S
C173 C172 1.310 . S
C173 H193 0.930 . S
C174 C175 1.474 . S
C174 C176 1.285 . S
C174 H194 0.929 . S
C175 C172 1.461 . S
C175 C174 1.474 . S
C176 C171 1.342 . S
C176 C174 1.285 . S
C176 H195 0.930 . S
C177 C180 1.424 . S
C177 C182 1.245 . S
C177 C183 1.428 . S
C178 C181 1.260 . S
C178 C182 1.477 . S
C178 H196 0.932 . S
C179 C180 1.384 . S
C179 C181 1.479 . S
C179 H197 0.929 . S
C180 C177 1.424 . S
C180 C179 1.384 . S
C180 H198 0.928 . S
C181 C178 1.260 . S
C181 C179 1.479 . S
C182 C177 1.245 . S
C182 C178 1.477 . S
C182 H199 0.932 . S
C183 U166 2.882 . S
C183 C177 1.428 . S
C183 O186 1.301 . S
C183 O187 1.282 . S
O184 U166 2.441 . S
O184 C170 1.249 . S
O185 U166 2.420 . S
O185 C170 1.202 . S
O186 U166 2.455 . S
O186 C183 1.301 . S
O187 U166 2.449 . S
O187 C183 1.282 . S
H188 C161 0.931 . S
H189 C163 0.929 . S
H190 C164 0.930 . S
H191 C165 0.931 . S
H192 C172 0.932 . S
H193 C173 0.930 . S
H194 C174 0.929 . S
H195 C176 0.930 . S
H196 C178 0.932 . S
H197 C179 0.929 . S
H198 C180 0.928 . S
H199 C182 0.932 . S
C200 C201 1.264 . S
C200 C205 1.479 . S
C200 C210 1.465 . S
C201 C200 1.264 . S
C201 C203 1.339 . S
C201 H228 0.931 . S
C202 C203 1.395 . S
C202 C204 1.320 . S
C203 C201 1.339 . S
C203 C202 1.395 . S
C203 H229 0.929 . S
C204 C202 1.320 . S
C204 C205 1.405 . S
C204 H230 0.930 . S
C205 C200 1.479 . S
C205 C204 1.405 . S
C205 H231 0.931 . S
U206 O207 2.454 . S
U206 O208 2.458 . S
U206 C209 2.984 . S
U206 C210 2.847 . S
U206 C223 2.882 . S
U206 O224 2.441 . S
U206 O225 2.420 . S
U206 O226 2.455 . S
U206 O227 2.449 . S
O207 U206 2.454 . S
O207 C209 1.353 . S
O208 U206 2.458 . S
O208 C209 1.286 . S
C209 U206 2.984 . S
C209 O207 1.353 . S
C209 O208 1.286 . S
C209 C211 1.363 . S
C210 C200 1.465 . S
C210 U206 2.847 . S
C210 O224 1.249 . S
C210 O225 1.202 . S
C211 C209 1.363 . S
C211 C213 1.408 . S
C211 C216 1.342 . S
C212 C213 1.310 . S
C212 C215 1.461 . S
C212 H232 0.932 . S
C213 C211 1.408 . S
C213 C212 1.310 . S
C213 H233 0.930 . S
C214 C215 1.474 . S
C214 C216 1.285 . S
C214 H234 0.929 . S
C215 C212 1.461 . S
C215 C214 1.474 . S
C216 C211 1.342 . S
C216 C214 1.285 . S
C216 H235 0.930 . S
C217 C220 1.424 . S
C217 C222 1.245 . S
C217 C223 1.428 . S
C218 C221 1.260 . S
C218 C222 1.477 . S
C218 H236 0.932 . S
C219 C220 1.384 . S
C219 C221 1.479 . S
C219 H237 0.929 . S
C220 C217 1.424 . S
C220 C219 1.384 . S
C220 H238 0.928 . S
C221 C218 1.260 . S
C221 C219 1.479 . S
C222 C217 1.245 . S
C222 C218 1.477 . S
C222 H239 0.932 . S
C223 U206 2.882 . S
C223 C217 1.428 . S
C223 O226 1.301 . S
C223 O227 1.282 . S
O224 U206 2.441 . S
O224 C210 1.249 . S
O225 U206 2.420 . S
O225 C210 1.202 . S
O226 U206 2.455 . S
O226 C223 1.301 . S
O227 U206 2.449 . S
O227 C223 1.282 . S
H228 C201 0.931 . S
H229 C203 0.929 . S
H230 C204 0.930 . S
H231 C205 0.931 . S
H232 C212 0.932 . S
H233 C213 0.930 . S
H234 C214 0.929 . S
H235 C216 0.930 . S
H236 C218 0.932 . S
H237 C219 0.929 . S
H238 C220 0.928 . S
H239 C222 0.932 . S
C240 C241 1.264 . S
C240 C245 1.479 . S
C240 C250 1.465 . S
C241 C240 1.264 . S
C241 C243 1.339 . S
C241 H268 0.931 . S
C242 C243 1.395 . S
C242 C244 1.320 . S
C243 C241 1.339 . S
C243 C242 1.395 . S
C243 H269 0.929 . S
C244 C242 1.320 . S
C244 C245 1.405 . S
C244 H270 0.923 1_545 S
C245 C240 1.479 . S
C245 C244 1.405 . S
C245 H271 0.931 . S
U246 O247 2.454 . S
U246 O248 2.458 . S
U246 C249 2.984 . S
U246 C250 2.847 . S
U246 C263 2.882 . S
U246 O264 2.441 . S
U246 O265 2.420 . S
U246 O266 2.455 . S
U246 O267 2.449 . S
O247 U246 2.454 . S
O247 C249 1.353 . S
O248 U246 2.458 . S
O248 C249 1.286 . S
C249 U246 2.984 . S
C249 O247 1.353 . S
C249 O248 1.286 . S
C249 C251 1.363 . S
C250 C240 1.465 . S
C250 U246 2.847 . S
C250 O264 1.249 . S
C250 O265 1.202 . S
C251 C249 1.363 . S
C251 C253 1.408 . S
C251 C256 1.342 . S
C252 C253 1.310 . S
C252 C255 1.461 . S
C252 H272 0.932 . S
C253 C251 1.408 . S
C253 C252 1.310 . S
C253 H273 0.930 . S
C254 C255 1.474 1_565 S
C254 C256 1.286 1_565 S
C254 H274 0.929 . S
C255 C252 1.461 . S
C255 C254 1.474 1_545 S
C256 C251 1.342 . S
C256 C254 1.286 1_545 S
C256 H275 0.933 . S
C257 C260 1.424 . S
C257 C262 1.245 . S
C257 C263 1.428 . S
C258 C261 1.260 . S
C258 C262 1.477 . S
C258 H276 0.932 . S
C259 C260 1.384 . S
C259 C261 1.479 . S
C259 H277 0.929 . S
C260 C257 1.424 . S
C260 C259 1.384 . S
C260 H278 0.928 . S
C261 C258 1.260 . S
C261 C259 1.479 . S
C262 C257 1.245 . S
C262 C258 1.477 . S
C262 H279 0.932 . S
C263 U246 2.882 . S
C263 C257 1.428 . S
C263 O266 1.301 . S
C263 O267 1.282 . S
O264 U246 2.441 . S
O264 C250 1.249 . S
O265 U246 2.420 . S
O265 C250 1.202 . S
O266 U246 2.455 . S
O266 C263 1.301 . S
O267 U246 2.449 . S
O267 C263 1.282 . S
H268 C241 0.931 . S
H269 C243 0.929 . S
H270 C244 0.923 1_565 S
H271 C245 0.931 . S
H272 C252 0.932 . S
H273 C253 0.930 . S
H274 C254 0.929 . S
H275 C256 0.933 . S
H276 C258 0.932 . S
H277 C259 0.929 . S
H278 C260 0.928 . S
H279 C262 0.932 . S
C280 C281 1.264 . S
C280 C285 1.479 . S
C280 C290 1.465 . S
C281 C280 1.264 . S
C281 C283 1.339 . S
C281 H308 0.931 . S
C282 C283 1.395 . S
C282 C284 1.320 . S
C283 C281 1.339 . S
C283 C282 1.395 . S
C283 H309 0.929 . S
C284 C282 1.320 . S
C284 C285 1.405 . S
C284 H310 0.930 . S
C285 C280 1.479 . S
C285 C284 1.405 . S
C285 H311 0.931 . S
U286 O287 2.454 . S
U286 O288 2.458 . S
U286 C289 2.984 . S
U286 C290 2.847 . S
U286 C303 2.882 . S
U286 O304 2.441 . S
U286 O305 2.420 . S
U286 O306 2.455 . S
U286 O307 2.449 . S
O287 U286 2.454 . S
O287 C289 1.353 . S
O288 U286 2.458 . S
O288 C289 1.286 . S
C289 U286 2.984 . S
C289 O287 1.353 . S
C289 O288 1.286 . S
C289 C291 1.363 . S
C290 C280 1.465 . S
C290 U286 2.847 . S
C290 O304 1.249 . S
C290 O305 1.202 . S
C291 C289 1.363 . S
C291 C293 1.408 . S
C291 C296 1.342 . S
C292 C293 1.310 . S
C292 C295 1.461 . S
C292 H312 0.932 . S
C293 C291 1.408 . S
C293 C292 1.310 . S
C293 H313 0.930 . S
C294 C295 1.474 . S
C294 C296 1.285 . S
C294 H314 0.929 . S
C295 C292 1.461 . S
C295 C294 1.474 . S
C296 C291 1.342 . S
C296 C294 1.285 . S
C296 H315 0.930 . S
C297 C300 1.424 . S
C297 C302 1.245 . S
C297 C303 1.428 . S
C298 C301 1.260 . S
C298 C302 1.477 . S
C298 H316 0.932 . S
C299 C300 1.384 . S
C299 C301 1.479 . S
C299 H317 0.929 . S
C300 C297 1.424 . S
C300 C299 1.384 . S
C300 H318 0.928 . S
C301 C298 1.260 . S
C301 C299 1.479 . S
C302 C297 1.245 . S
C302 C298 1.477 . S
C302 H319 0.932 . S
C303 U286 2.882 . S
C303 C297 1.428 . S
C303 O306 1.301 . S
C303 O307 1.282 . S
O304 U286 2.441 . S
O304 C290 1.249 . S
O305 U286 2.420 . S
O305 C290 1.202 . S
O306 U286 2.455 . S
O306 C303 1.301 . S
O307 U286 2.449 . S
O307 C303 1.282 . S
H308 C281 0.931 . S
H309 C283 0.929 . S
H310 C284 0.930 . S
H311 C285 0.931 . S
H312 C292 0.932 . S
H313 C293 0.930 . S
H314 C294 0.929 . S
H315 C296 0.930 . S
H316 C298 0.932 . S
H317 C299 0.929 . S
H318 C300 0.928 . S
H319 C302 0.932 . S
C320 O336 1.251 . S
C320 O338 1.254 . S
N321 C322 1.333 . S
N321 C326 1.307 1_455 S
N321 Zn327 2.020 . S
C322 N321 1.333 . S
C322 C323 1.383 . S
C322 H340 0.952 . S
C323 C322 1.383 . S
C323 C324 1.384 1_455 S
C323 H350 0.952 . S
C324 C323 1.384 1_655 S
C324 C325 1.357 . S
C325 C324 1.357 . S
C325 C326 1.370 . S
C325 H351 0.950 . S
C326 N321 1.307 1_655 S
C326 C325 1.370 . S
C326 H344 0.948 . S
Zn327 N321 2.020 . S
Zn327 O336 2.039 . S
Zn327 O342 2.034 . S
Zn327 O346 2.025 1_565 S
Zn327 O348 2.024 1_455 S
C328 O347 1.246 . S
C328 O348 1.249 1_545 S
N329 C330 1.307 . S
N329 C331 1.333 . S
N329 Zn335 2.020 . S
C330 N329 1.307 . S
C330 C334 1.370 . S
C330 H341 0.948 . S
C331 N329 1.333 . S
C331 C332 1.379 . S
C331 H339 0.952 . S
C332 C331 1.379 . S
C332 C333 1.390 . S
C332 H352 0.949 . S
C333 C332 1.390 . S
C333 C334 1.357 . S
C334 C330 1.370 . S
C334 C333 1.357 . S
C334 H353 0.950 . S
Zn335 N329 2.020 . S
Zn335 O338 2.025 1_545 S
Zn335 O343 2.024 . S
Zn335 O345 2.039 . S
Zn335 O347 2.034 1_455 S
O336 C320 1.251 . S
O336 Zn327 2.039 . S
C337 O342 1.246 . S
C337 O343 1.249 1_565 S
O338 C320 1.254 . S
O338 Zn335 2.025 1_565 S
H339 C331 0.952 . S
H340 C322 0.952 . S
H341 C330 0.948 . S
O342 Zn327 2.034 . S
O342 C337 1.246 . S
O343 Zn335 2.024 . S
O343 C337 1.249 1_545 S
H344 C326 0.948 . S
O345 Zn335 2.039 . S
O345 C349 1.251 . S
O346 Zn327 2.025 1_545 S
O346 C349 1.254 . S
O347 C328 1.246 . S
O347 Zn335 2.034 1_655 S
O348 Zn327 2.024 1_655 S
O348 C328 1.249 1_565 S
C349 O345 1.251 . S
C349 O346 1.254 . S
H350 C323 0.952 . S
H351 C325 0.950 . S
H352 C332 0.949 . S
H353 C334 0.950 . S
C354 O370 1.251 1_565 S
C354 O372 1.254 . S
N355 C356 1.333 . S
N355 C360 1.307 . S
N355 Zn361 2.020 . S
C356 N355 1.333 . S
C356 C357 1.379 . S
C356 H374 0.952 . S
C357 C356 1.379 . S
C357 C358 1.390 . S
C357 H384 0.949 . S
C358 C357 1.390 . S
C358 C359 1.357 . S
C359 C358 1.357 . S
C359 C360 1.370 . S
C359 H385 0.950 . S
C360 N355 1.307 . S
C360 C359 1.370 . S
C360 H378 0.948 . S
Zn361 N355 2.020 . S
Zn361 O370 2.039 . S
Zn361 O376 2.034 . S
Zn361 O380 2.025 . S
Zn361 O382 2.024 . S
C362 O381 1.246 1_545 S
C362 O382 1.249 . S
N363 C364 1.307 . S
N363 C365 1.333 . S
N363 Zn369 2.020 . S
C364 N363 1.307 . S
C364 C368 1.370 . S
C364 H375 0.948 . S
C365 N363 1.333 . S
C365 C366 1.379 . S
C365 H373 0.952 . S
C366 C365 1.379 . S
C366 C367 1.390 . S
C366 H386 0.949 . S
C367 C366 1.390 . S
C367 C368 1.357 . S
C368 C364 1.370 . S
C368 C367 1.357 . S
C368 H387 0.950 . S
Zn369 N363 2.020 . S
Zn369 O372 2.025 . S
Zn369 O377 2.024 . S
Zn369 O379 2.039 . S
Zn369 O381 2.034 . S
O370 C354 1.251 1_545 S
O370 Zn361 2.039 . S
C371 O376 1.246 1_565 S
C371 O377 1.249 . S
O372 C354 1.254 . S
O372 Zn369 2.025 . S
H373 C365 0.952 . S
H374 C356 0.952 . S
H375 C364 0.948 . S
O376 Zn361 2.034 . S
O376 C371 1.246 1_545 S
O377 Zn369 2.024 . S
O377 C371 1.249 . S
H378 C360 0.948 . S
O379 Zn369 2.039 . S
O379 C383 1.251 1_565 S
O380 Zn361 2.025 . S
O380 C383 1.254 . S
O381 C362 1.246 1_565 S
O381 Zn369 2.034 . S
O382 Zn361 2.024 . S
O382 C362 1.249 . S
C383 O379 1.251 1_545 S
C383 O380 1.254 . S
H384 C357 0.949 . S
H385 C359 0.950 . S
H386 C366 0.949 . S
H387 C368 0.950 . S
C388 O404 1.251 . S
C388 O406 1.254 . S
N389 C390 1.333 . S
N389 C394 1.307 . S
N389 Zn395 2.020 . S
C390 N389 1.333 . S
C390 C391 1.379 . S
C390 H408 0.952 . S
C391 C390 1.379 . S
C391 C392 1.390 . S
C391 H418 0.949 . S
C392 C391 1.390 . S
C392 C393 1.357 . S
C393 C392 1.357 . S
C393 C394 1.370 . S
C393 H419 0.950 . S
C394 N389 1.307 . S
C394 C393 1.370 . S
C394 H412 0.948 . S
Zn395 N389 2.020 . S
Zn395 O404 2.039 . S
Zn395 O410 2.034 . S
Zn395 O414 2.025 . S
Zn395 O416 2.024 . S
C396 O415 1.246 . S
C396 O416 1.249 . S
N397 C398 1.307 . S
N397 C399 1.333 . S
N397 Zn403 2.020 . S
C398 N397 1.307 . S
C398 C402 1.370 . S
C398 H409 0.948 . S
C399 N397 1.333 . S
C399 C400 1.379 . S
C399 H407 0.952 . S
C400 C399 1.379 . S
C400 C401 1.390 . S
C400 H420 0.949 . S
C401 C400 1.390 . S
C401 C402 1.357 . S
C402 C398 1.370 . S
C402 C401 1.357 . S
C402 H421 0.950 . S
Zn403 N397 2.020 . S
Zn403 O406 2.025 . S
Zn403 O411 2.024 . S
Zn403 O413 2.039 . S
Zn403 O415 2.034 . S
O404 C388 1.251 . S
O404 Zn395 2.039 . S
C405 O410 1.246 . S
C405 O411 1.249 . S
O406 C388 1.254 . S
O406 Zn403 2.025 . S
H407 C399 0.952 . S
H408 C390 0.952 . S
H409 C398 0.948 . S
O410 Zn395 2.034 . S
O410 C405 1.246 . S
O411 Zn403 2.024 . S
O411 C405 1.249 . S
H412 C394 0.948 . S
O413 Zn403 2.039 . S
O413 C417 1.251 . S
O414 Zn395 2.025 . S
O414 C417 1.254 . S
O415 C396 1.246 . S
O415 Zn403 2.034 . S
O416 Zn395 2.024 . S
O416 C396 1.249 . S
C417 O413 1.251 . S
C417 O414 1.254 . S
H418 C391 0.949 . S
H419 C393 0.950 . S
H420 C400 0.949 . S
H421 C402 0.950 . S
C422 O438 1.251 . S
C422 O440 1.254 . S
N423 C424 1.333 . S
N423 C428 1.307 . S
N423 Zn429 2.020 . S
C424 N423 1.333 . S
C424 C425 1.379 . S
C424 H442 0.952 . S
C425 C424 1.379 . S
C425 C426 1.390 . S
C425 H452 0.949 . S
C426 C425 1.390 . S
C426 C427 1.357 . S
C427 C426 1.357 . S
C427 C428 1.370 . S
C427 H453 0.950 . S
C428 N423 1.307 . S
C428 C427 1.370 . S
C428 H446 0.948 . S
Zn429 N423 2.020 . S
Zn429 O438 2.039 . S
Zn429 O444 2.034 . S
Zn429 O448 2.025 . S
Zn429 O450 2.024 . S
C430 O449 1.246 . S
C430 O450 1.249 . S
N431 C432 1.307 . S
N431 C433 1.327 1_455 S
N431 Zn437 2.020 . S
C432 N431 1.307 . S
C432 C436 1.370 . S
C432 H443 0.948 . S
C433 N431 1.327 1_655 S
C433 C434 1.384 . S
C433 H441 0.954 . S
C434 C433 1.384 . S
C434 C435 1.390 . S
C434 H454 0.949 . S
C435 C434 1.390 . S
C435 C436 1.357 1_655 S
C436 C432 1.370 . S
C436 C435 1.357 1_455 S
C436 H455 0.950 . S
Zn437 N431 2.020 . S
Zn437 O440 2.025 . S
Zn437 O445 2.024 1_455 S
Zn437 O447 2.039 1_455 S
Zn437 O449 2.034 . S
O438 C422 1.251 . S
O438 Zn429 2.039 . S
C439 O444 1.246 1_655 S
C439 O445 1.249 . S
O440 C422 1.254 . S
O440 Zn437 2.025 . S
H441 C433 0.954 . S
H442 C424 0.952 . S
H443 C432 0.948 . S
O444 Zn429 2.034 . S
O444 C439 1.246 1_455 S
O445 Zn437 2.024 1_655 S
O445 C439 1.249 . S
H446 C428 0.948 . S
O447 Zn437 2.039 1_655 S
O447 C451 1.251 . S
O448 Zn429 2.025 . S
O448 C451 1.254 1_455 S
O449 C430 1.246 . S
O449 Zn437 2.034 . S
O450 Zn429 2.024 . S
O450 C430 1.249 . S
C451 O447 1.251 . S
C451 O448 1.254 1_655 S
H452 C425 0.949 . S
H453 C427 0.950 . S
H454 C434 0.949 . S
H455 C436 0.950 . S
C456 C457 1.406 . S
C456 C458 1.394 . S
C456 H472 0.931 . S
C457 C456 1.406 . S
C457 C461 1.368 1_545 S
C458 C456 1.394 . S
C458 C459 1.369 . S
C458 C462 1.531 . S
C459 C458 1.369 . S
C459 C460 1.410 1_545 S
C459 C467 1.502 1_545 S
C460 C459 1.410 1_565 S
C460 C461 1.392 . S
C460 C463 1.511 . S
C461 C457 1.368 1_565 S
C461 C460 1.392 . S
C461 H473 0.929 . S
C462 C458 1.531 . S
C462 H474 0.960 . S
C462 H475 0.933 1_545 S
C462 H476 0.960 . S
C463 C460 1.511 . S
C463 H477 0.961 . S
C463 H478 0.961 . S
C463 H479 0.961 1_565 S
C464 C465 1.370 . S
C464 C466 1.363 . S
C464 H480 0.931 . S
C465 C464 1.370 . S
C465 C469 1.408 1_565 S
C466 C464 1.363 . S
C466 C467 1.419 . S
C466 C470 1.524 . S
C467 C459 1.502 1_565 S
C467 C466 1.419 . S
C467 C468 1.357 1_565 S
C468 C467 1.357 1_545 S
C468 C469 1.404 . S
C468 C471 1.539 . S
C469 C465 1.408 1_545 S
C469 C468 1.404 . S
C469 H481 0.930 . S
C470 C466 1.524 . S
C470 H482 0.956 . S
C470 H483 0.961 . S
C470 H484 0.961 . S
C471 C468 1.539 . S
C471 H485 0.958 . S
C471 H486 0.961 . S
C471 H487 0.960 . S
H472 C456 0.931 . S
H473 C461 0.929 . S
H474 C462 0.960 . S
H475 C462 0.933 1_565 S
H476 C462 0.960 . S
H477 C463 0.961 . S
H478 C463 0.961 . S
H479 C463 0.961 1_545 S
H480 C464 0.931 . S
H481 C469 0.930 . S
H482 C470 0.956 . S
H483 C470 0.961 . S
H484 C470 0.961 . S
H485 C471 0.958 . S
H486 C471 0.961 . S
H487 C471 0.960 . S
C488 C489 1.391 . S
C488 C490 1.394 . S
C488 H504 0.931 . S
C489 C488 1.391 . S
C489 C493 1.376 . S
C490 C488 1.394 . S
C490 C491 1.369 . S
C490 C494 1.531 . S
C491 C490 1.369 . S
C491 C492 1.410 . S
C491 C499 1.503 . S
C492 C491 1.410 . S
C492 C493 1.392 . S
C492 C495 1.511 . S
C493 C489 1.376 . S
C493 C492 1.392 . S
C493 H505 0.929 . S
C494 C490 1.531 . S
C494 H506 0.960 . S
C494 H507 0.962 . S
C494 H508 0.960 . S
C495 C492 1.511 . S
C495 H509 0.961 . S
C495 H510 0.961 . S
C495 H511 0.961 . S
C496 C497 1.370 . S
C496 C498 1.363 . S
C496 H512 0.931 . S
C497 C496 1.370 . S
C497 C501 1.408 . S
C498 C496 1.363 . S
C498 C499 1.370 . S
C498 C502 1.524 . S
C499 C491 1.503 . S
C499 C498 1.370 . S
C499 C500 1.403 . S
C500 C499 1.403 . S
C500 C501 1.404 . S
C500 C503 1.539 . S
C501 C497 1.408 . S
C501 C500 1.404 . S
C501 H513 0.930 . S
C502 C498 1.524 . S
C502 H514 0.956 . S
C502 H515 0.961 . S
C502 H516 0.961 . S
C503 C500 1.539 . S
C503 H517 0.958 . S
C503 H518 0.961 . S
C503 H519 0.960 . S
H504 C488 0.931 . S
H505 C493 0.929 . S
H506 C494 0.960 . S
H507 C494 0.962 . S
H508 C494 0.960 . S
H509 C495 0.961 . S
H510 C495 0.961 . S
H511 C495 0.961 . S
H512 C496 0.931 . S
H513 C501 0.930 . S
H514 C502 0.956 . S
H515 C502 0.961 . S
H516 C502 0.961 . S
H517 C503 0.958 . S
H518 C503 0.961 . S
H519 C503 0.960 . S
C520 C521 1.391 . S
C520 C522 1.394 . S
C520 H536 0.931 . S
C521 C520 1.391 . S
C521 C525 1.376 . S
C522 C520 1.394 . S
C522 C523 1.369 . S
C522 C526 1.531 . S
C523 C522 1.369 . S
C523 C524 1.410 . S
C523 C531 1.503 . S
C524 C523 1.410 . S
C524 C525 1.392 . S
C524 C527 1.511 . S
C525 C521 1.376 . S
C525 C524 1.392 . S
C525 H537 0.929 . S
C526 C522 1.531 . S
C526 H538 0.960 . S
C526 H539 0.962 . S
C526 H540 0.960 . S
C527 C524 1.511 . S
C527 H541 0.961 . S
C527 H542 0.961 . S
C527 H543 0.961 . S
C528 C529 1.370 . S
C528 C530 1.363 . S
C528 H544 0.931 . S
C529 C528 1.370 . S
C529 C533 1.408 . S
C530 C528 1.363 . S
C530 C531 1.370 . S
C530 C534 1.524 . S
C531 C523 1.503 . S
C531 C530 1.370 . S
C531 C532 1.403 . S
C532 C531 1.403 . S
C532 C533 1.404 . S
C532 C535 1.539 . S
C533 C529 1.408 . S
C533 C532 1.404 . S
C533 H545 0.930 . S
C534 C530 1.524 . S
C534 H546 0.956 . S
C534 H547 0.961 . S
C534 H548 0.961 . S
C535 C532 1.539 . S
C535 H549 0.958 . S
C535 H550 0.961 . S
C535 H551 0.960 . S
H536 C520 0.931 . S
H537 C525 0.929 . S
H538 C526 0.960 . S
H539 C526 0.962 . S
H540 C526 0.960 . S
H541 C527 0.961 . S
H542 C527 0.961 . S
H543 C527 0.961 . S
H544 C528 0.931 . S
H545 C533 0.930 . S
H546 C534 0.956 . S
H547 C534 0.961 . S
H548 C534 0.961 . S
H549 C535 0.958 . S
H550 C535 0.961 . S
H551 C535 0.960 . S
C552 C553 1.391 . S
C552 C554 1.394 . S
C552 H568 0.931 . S
C553 C552 1.391 . S
C553 C557 1.376 . S
C554 C552 1.394 . S
C554 C555 1.369 . S
C554 C558 1.531 . S
C555 C554 1.369 . S
C555 C556 1.410 . S
C555 C563 1.503 . S
C556 C555 1.410 . S
C556 C557 1.392 . S
C556 C559 1.511 . S
C557 C553 1.376 . S
C557 C556 1.392 . S
C557 H569 0.929 . S
C558 C554 1.531 . S
C558 H570 0.960 . S
C558 H571 0.962 . S
C558 H572 0.960 . S
C559 C556 1.511 . S
C559 H573 0.961 . S
C559 H574 0.961 . S
C559 H575 0.961 . S
C560 C561 1.370 . S
C560 C562 1.363 . S
C560 H576 0.931 . S
C561 C560 1.370 . S
C561 C565 1.408 . S
C562 C560 1.363 . S
C562 C563 1.370 . S
C562 C566 1.524 . S
C563 C555 1.503 . S
C563 C562 1.370 . S
C563 C564 1.403 . S
C564 C563 1.403 . S
C564 C565 1.404 . S
C564 C567 1.539 . S
C565 C561 1.408 . S
C565 C564 1.404 . S
C565 H577 0.930 . S
C566 C562 1.524 . S
C566 H578 0.956 . S
C566 H579 0.961 . S
C566 H580 0.961 . S
C567 C564 1.539 . S
C567 H581 0.958 . S
C567 H582 0.961 . S
C567 H583 0.960 . S
H568 C552 0.931 . S
H569 C557 0.929 . S
H570 C558 0.960 . S
H571 C558 0.962 . S
H572 C558 0.960 . S
H573 C559 0.961 . S
H574 C559 0.961 . S
H575 C559 0.961 . S
H576 C560 0.931 . S
H577 C565 0.930 . S
H578 C566 0.956 . S
H579 C566 0.961 . S
H580 C566 0.961 . S
H581 C567 0.958 . S
H582 C567 0.961 . S
H583 C567 0.960 . S
C584 C585 1.389 . S
C584 C586 1.394 . S
C584 H600 0.931 . S
C585 C584 1.389 . S
C585 C589 1.378 1_545 S
C586 C584 1.394 . S
C586 C587 1.409 . S
C586 C590 1.531 . S
C587 C586 1.409 . S
C587 C588 1.371 1_545 S
C587 C595 1.505 . S
C588 C587 1.371 1_565 S
C588 C589 1.392 . S
C588 C591 1.511 . S
C589 C585 1.378 1_565 S
C589 C588 1.392 . S
C589 H601 0.929 . S
C590 C586 1.531 . S
C590 H602 0.960 . S
C590 H603 0.962 . S
C590 H604 0.960 . S
C591 C588 1.511 . S
C591 H605 0.961 . S
C591 H606 0.961 . S
C591 H607 0.961 . S
C592 C593 1.370 . S
C592 C594 1.363 . S
C592 H608 0.931 . S
C593 C592 1.370 . S
C593 C597 1.408 1_545 S
C594 C592 1.363 . S
C594 C595 1.370 . S
C594 C598 1.524 . S
C595 C587 1.505 . S
C595 C594 1.370 . S
C595 C596 1.403 1_545 S
C596 C595 1.403 1_565 S
C596 C597 1.404 . S
C596 C599 1.539 . S
C597 C593 1.408 1_565 S
C597 C596 1.404 . S
C597 H609 0.930 . S
C598 C594 1.524 . S
C598 H610 0.956 . S
C598 H611 0.961 . S
C598 H612 0.961 . S
C599 C596 1.539 . S
C599 H613 0.958 . S
C599 H614 0.961 . S
C599 H615 0.960 . S
H600 C584 0.931 . S
H601 C589 0.929 . S
H602 C590 0.960 . S
H603 C590 0.962 . S
H604 C590 0.960 . S
H605 C591 0.961 . S
H606 C591 0.961 . S
H607 C591 0.961 . S
H608 C592 0.931 . S
H609 C597 0.930 . S
H610 C598 0.956 . S
H611 C598 0.961 . S
H612 C598 0.961 . S
H613 C599 0.958 . S
H614 C599 0.961 . S
H615 C599 0.960 . S
C616 C617 1.391 . S
C616 C618 1.394 . S
C616 H632 0.931 1_556 S
C617 C616 1.391 . S
C617 C621 1.376 . S
C618 C616 1.394 . S
C618 C619 1.369 . S
C618 C622 1.531 . S
C619 C618 1.369 . S
C619 C620 1.410 . S
C619 C627 1.503 . S
C620 C619 1.410 . S
C620 C621 1.392 . S
C620 C623 1.511 . S
C621 C617 1.376 . S
C621 C620 1.392 . S
C621 H633 0.929 . S
C622 C618 1.531 . S
C622 H634 0.960 . S
C622 H635 0.962 . S
C622 H636 0.960 1_556 S
C623 C620 1.511 . S
C623 H637 0.961 . S
C623 H638 0.961 . S
C623 H639 0.961 . S
C624 C625 1.370 . S
C624 C626 1.363 . S
C624 H640 0.931 . S
C625 C624 1.370 . S
C625 C629 1.408 . S
C626 C624 1.363 . S
C626 C627 1.370 . S
C626 C630 1.524 . S
C627 C619 1.503 . S
C627 C626 1.370 . S
C627 C628 1.403 . S
C628 C627 1.403 . S
C628 C629 1.404 . S
C628 C631 1.539 . S
C629 C625 1.408 . S
C629 C628 1.404 . S
C629 H641 0.930 . S
C630 C626 1.524 . S
C630 H642 0.956 . S
C630 H643 0.961 . S
C630 H644 0.961 . S
C631 C628 1.539 . S
C631 H645 0.958 . S
C631 H646 0.961 . S
C631 H647 0.960 . S
H632 C616 0.931 1_554 S
H633 C621 0.929 . S
H634 C622 0.960 . S
H635 C622 0.962 . S
H636 C622 0.960 1_554 S
H637 C623 0.961 . S
H638 C623 0.961 . S
H639 C623 0.961 . S
H640 C624 0.931 . S
H641 C629 0.930 . S
H642 C630 0.956 . S
H643 C630 0.961 . S
H644 C630 0.961 . S
H645 C631 0.958 . S
H646 C631 0.961 . S
H647 C631 0.960 . S
C648 C649 1.391 . S
C648 C650 1.394 1_554 S
C648 H664 0.931 . S
C649 C648 1.391 . S
C649 C653 1.376 1_554 S
C650 C648 1.394 1_556 S
C650 C651 1.369 . S
C650 C654 1.530 1_556 S
C651 C650 1.369 . S
C651 C652 1.410 . S
C651 C659 1.503 . S
C652 C651 1.410 . S
C652 C653 1.392 . S
C652 C655 1.511 . S
C653 C649 1.376 1_556 S
C653 C652 1.392 . S
C653 H665 0.929 . S
C654 C650 1.530 1_554 S
C654 H666 0.958 1_554 S
C654 H667 0.962 . S
C654 H668 0.963 . S
C655 C652 1.511 . S
C655 H669 0.961 . S
C655 H670 0.961 . S
C655 H671 0.961 . S
C656 C657 1.370 . S
C656 C658 1.363 . S
C656 H672 0.931 . S
C657 C656 1.370 . S
C657 C661 1.408 . S
C658 C656 1.363 . S
C658 C659 1.370 . S
C658 C662 1.524 . S
C659 C651 1.503 . S
C659 C658 1.370 . S
C659 C660 1.403 . S
C660 C659 1.403 . S
C660 C661 1.404 . S
C660 C663 1.539 . S
C661 C657 1.408 . S
C661 C660 1.404 . S
C661 H673 0.930 . S
C662 C658 1.524 . S
C662 H674 0.956 . S
C662 H675 0.961 . S
C662 H676 0.961 . S
C663 C660 1.539 . S
C663 H677 0.958 . S
C663 H678 0.961 . S
C663 H679 0.960 . S
H664 C648 0.931 . S
H665 C653 0.929 . S
H666 C654 0.958 1_556 S
H667 C654 0.962 . S
H668 C654 0.963 . S
H669 C655 0.961 . S
H670 C655 0.961 . S
H671 C655 0.961 . S
H672 C656 0.931 . S
H673 C661 0.930 . S
H674 C662 0.956 . S
H675 C662 0.961 . S
H676 C662 0.961 . S
H677 C663 0.958 . S
H678 C663 0.961 . S
H679 C663 0.960 . S
C680 C681 1.391 . S
C680 C682 1.394 . S
C680 H696 0.931 . S
C681 C680 1.391 . S
C681 C685 1.376 . S
C682 C680 1.394 . S
C682 C683 1.369 . S
C682 C686 1.531 . S
C683 C682 1.369 . S
C683 C684 1.410 . S
C683 C691 1.503 . S
C684 C683 1.410 . S
C684 C685 1.392 . S
C684 C687 1.511 . S
C685 C681 1.376 . S
C685 C684 1.392 . S
C685 H697 0.929 . S
C686 C682 1.531 . S
C686 H698 0.960 . S
C686 H699 0.962 . S
C686 H700 0.960 . S
C687 C684 1.511 . S
C687 H701 0.961 . S
C687 H702 0.961 . S
C687 H703 0.961 . S
C688 C689 1.370 . S
C688 C690 1.363 . S
C688 H704 0.908 1_655 S
C689 C688 1.370 . S
C689 C693 1.408 . S
C690 C688 1.363 . S
C690 C691 1.370 . S
C690 C694 1.524 . S
C691 C683 1.503 . S
C691 C690 1.370 . S
C691 C692 1.403 . S
C692 C691 1.403 . S
C692 C693 1.404 . S
C692 C695 1.539 . S
C693 C689 1.408 . S
C693 C692 1.404 . S
C693 H705 0.930 . S
C694 C690 1.524 . S
C694 H706 0.956 . S
C694 H707 0.961 . S
C694 H708 0.961 . S
C695 C692 1.539 . S
C695 H709 0.958 . S
C695 H710 0.961 . S
C695 H711 0.960 . S
H696 C680 0.931 . S
H697 C685 0.929 . S
H698 C686 0.960 . S
H699 C686 0.962 . S
H700 C686 0.960 . S
H701 C687 0.961 . S
H702 C687 0.961 . S
H703 C687 0.961 . S
H704 C688 0.908 1_455 S
H705 C693 0.930 . S
H706 C694 0.956 . S
H707 C694 0.961 . S
H708 C694 0.961 . S
H709 C695 0.958 . S
H710 C695 0.961 . S
H711 C695 0.960 . S
C712 C713 1.391 . S
C712 C714 1.394 . S
C712 H728 0.931 . S
C713 C712 1.391 . S
C713 C717 1.376 . S
C714 C712 1.394 . S
C714 C715 1.369 . S
C714 C718 1.531 . S
C715 C714 1.369 . S
C715 C716 1.410 . S
C715 C723 1.503 . S
C716 C715 1.410 . S
C716 C717 1.392 . S
C716 C719 1.511 . S
C717 C713 1.376 . S
C717 C716 1.392 . S
C717 H729 0.929 . S
C718 C714 1.531 . S
C718 H730 0.960 . S
C718 H731 0.962 . S
C718 H732 0.960 . S
C719 C716 1.511 . S
C719 H733 0.961 . S
C719 H734 0.961 . S
C719 H735 0.961 . S
C720 C721 1.370 . S
C720 C722 1.363 . S
C720 H736 0.931 . S
C721 C720 1.370 . S
C721 C725 1.408 . S
C722 C720 1.363 . S
C722 C723 1.370 . S
C722 C726 1.524 . S
C723 C715 1.503 . S
C723 C722 1.370 . S
C723 C724 1.403 . S
C724 C723 1.403 . S
C724 C725 1.404 . S
C724 C727 1.539 . S
C725 C721 1.408 . S
C725 C724 1.404 . S
C725 H737 0.930 . S
C726 C722 1.524 . S
C726 H738 0.956 . S
C726 H739 0.961 . S
C726 H740 0.961 . S
C727 C724 1.539 . S
C727 H741 0.958 . S
C727 H742 0.961 . S
C727 H743 0.960 . S
H728 C712 0.931 . S
H729 C717 0.929 . S
H730 C718 0.960 . S
H731 C718 0.962 . S
H732 C718 0.960 . S
H733 C719 0.961 . S
H734 C719 0.961 . S
H735 C719 0.961 . S
H736 C720 0.931 . S
H737 C725 0.930 . S
H738 C726 0.956 . S
H739 C726 0.961 . S
H740 C726 0.961 . S
H741 C727 0.958 . S
H742 C727 0.961 . S
H743 C727 0.960 . S
C744 C745 1.391 . S
C744 C746 1.394 . S
C744 H760 0.931 . S
C745 C744 1.391 . S
C745 C749 1.376 . S
C746 C744 1.394 . S
C746 C747 1.369 . S
C746 C750 1.531 . S
C747 C746 1.369 . S
C747 C748 1.410 . S
C747 C755 1.503 . S
C748 C747 1.410 . S
C748 C749 1.392 . S
C748 C751 1.511 . S
C749 C745 1.376 . S
C749 C748 1.392 . S
C749 H761 0.930 . S
C750 C746 1.531 . S
C750 H762 0.960 . S
C750 H763 0.962 1_565 S
C750 H764 0.960 . S
C751 C748 1.511 . S
C751 H765 0.961 1_565 S
C751 H766 0.961 . S
C751 H767 0.961 . S
C752 C753 1.370 1_545 S
C752 C754 1.363 . S
C752 H768 0.931 . S
C753 C752 1.370 1_565 S
C753 C757 1.408 . S
C754 C752 1.363 . S
C754 C755 1.370 1_545 S
C754 C758 1.524 . S
C755 C747 1.503 . S
C755 C754 1.370 1_565 S
C755 C756 1.403 . S
C756 C755 1.403 . S
C756 C757 1.404 . S
C756 C759 1.539 . S
C757 C753 1.408 . S
C757 C756 1.404 . S
C757 H769 0.930 . S
C758 C754 1.524 . S
C758 H770 0.956 . S
C758 H771 0.961 . S
C758 H772 0.961 . S
C759 C756 1.539 . S
C759 H773 0.958 . S
C759 H774 0.961 . S
C759 H775 0.960 . S
H760 C744 0.931 . S
H761 C749 0.930 . S
H762 C750 0.960 . S
H763 C750 0.962 1_545 S
H764 C750 0.960 . S
H765 C751 0.961 1_545 S
H766 C751 0.961 . S
H767 C751 0.961 . S
H768 C752 0.931 . S
H769 C757 0.930 . S
H770 C758 0.956 . S
H771 C758 0.961 . S
H772 C758 0.961 . S
H773 C759 0.958 . S
H774 C759 0.961 . S
H775 C759 0.960 . S
C776 C777 1.391 . S
C776 C778 1.394 . S
C776 H792 0.931 . S
C777 C776 1.391 . S
C777 C781 1.376 . S
C778 C776 1.394 . S
C778 C779 1.369 . S
C778 C782 1.531 . S
C779 C778 1.369 . S
C779 C780 1.410 . S
C779 C787 1.503 . S
C780 C779 1.410 . S
C780 C781 1.392 . S
C780 C783 1.511 . S
C781 C777 1.376 . S
C781 C780 1.392 . S
C781 H793 0.929 . S
C782 C778 1.531 . S
C782 H794 0.960 . S
C782 H795 0.962 . S
C782 H796 0.960 . S
C783 C780 1.511 . S
C783 H797 0.961 . S
C783 H798 0.961 . S
C783 H799 0.961 . S
C784 C785 1.370 . S
C784 C786 1.363 . S
C784 H800 0.931 . S
C785 C784 1.370 . S
C785 C789 1.408 . S
C786 C784 1.363 . S
C786 C787 1.370 . S
C786 C790 1.524 . S
C787 C779 1.503 . S
C787 C786 1.370 . S
C787 C788 1.403 . S
C788 C787 1.403 . S
C788 C789 1.404 . S
C788 C791 1.539 . S
C789 C785 1.408 . S
C789 C788 1.404 . S
C789 H801 0.930 . S
C790 C786 1.524 . S
C790 H802 0.956 . S
C790 H803 0.961 . S
C790 H804 0.961 . S
C791 C788 1.539 . S
C791 H805 0.958 . S
C791 H806 0.961 . S
C791 H807 0.960 . S
H792 C776 0.931 . S
H793 C781 0.929 . S
H794 C782 0.960 . S
H795 C782 0.962 . S
H796 C782 0.960 . S
H797 C783 0.961 . S
H798 C783 0.961 . S
H799 C783 0.961 . S
H800 C784 0.931 . S
H801 C789 0.930 . S
H802 C790 0.956 . S
H803 C790 0.961 . S
H804 C790 0.961 . S
H805 C791 0.958 . S
H806 C791 0.961 . S
H807 C791 0.960 . S
C808 C809 1.391 . S
C808 C810 1.394 . S
C808 H824 0.931 . S
C809 C808 1.391 . S
C809 C813 1.376 . S
C810 C808 1.394 . S
C810 C811 1.369 . S
C810 C814 1.531 . S
C811 C810 1.369 . S
C811 C812 1.410 . S
C811 C819 1.503 . S
C812 C811 1.410 . S
C812 C813 1.392 . S
C812 C815 1.511 . S
C813 C809 1.376 . S
C813 C812 1.392 . S
C813 H825 0.929 . S
C814 C810 1.531 . S
C814 H826 0.960 . S
C814 H827 0.962 . S
C814 H828 0.960 . S
C815 C812 1.511 . S
C815 H829 0.961 . S
C815 H830 0.961 . S
C815 H831 0.961 . S
C816 C817 1.370 . S
C816 C818 1.363 . S
C816 H832 0.931 . S
C817 C816 1.370 . S
C817 C821 1.408 . S
C818 C816 1.363 . S
C818 C819 1.370 . S
C818 C822 1.524 . S
C819 C811 1.503 . S
C819 C818 1.370 . S
C819 C820 1.403 . S
C820 C819 1.403 . S
C820 C821 1.404 . S
C820 C823 1.539 . S
C821 C817 1.408 . S
C821 C820 1.404 . S
C821 H833 0.930 . S
C822 C818 1.524 . S
C822 H834 0.956 . S
C822 H835 0.961 . S
C822 H836 0.961 . S
C823 C820 1.539 . S
C823 H837 0.958 . S
C823 H838 0.961 . S
C823 H839 0.960 . S
H824 C808 0.931 . S
H825 C813 0.929 . S
H826 C814 0.960 . S
H827 C814 0.962 . S
H828 C814 0.960 . S
H829 C815 0.961 . S
H830 C815 0.961 . S
H831 C815 0.961 . S
H832 C816 0.931 . S
H833 C821 0.930 . S
H834 C822 0.956 . S
H835 C822 0.961 . S
H836 C822 0.961 . S
H837 C823 0.958 . S
H838 C823 0.961 . S
H839 C823 0.960 . S
C840 C841 1.391 . S
C840 C842 1.394 . S
C840 H856 0.931 . S
C841 C840 1.391 . S
C841 C845 1.376 . S
C842 C840 1.394 . S
C842 C843 1.369 . S
C842 C846 1.531 . S
C843 C842 1.369 . S
C843 C844 1.410 . S
C843 C851 1.503 . S
C844 C843 1.410 . S
C844 C845 1.392 . S
C844 C847 1.511 . S
C845 C841 1.376 . S
C845 C844 1.392 . S
C845 H857 0.929 . S
C846 C842 1.531 . S
C846 H858 0.960 . S
C846 H859 0.962 . S
C846 H860 0.960 . S
C847 C844 1.511 . S
C847 H861 0.961 . S
C847 H862 0.961 . S
C847 H863 0.961 . S
C848 C849 1.370 1_655 S
C848 C850 1.363 . S
C848 H864 0.931 . S
C849 C848 1.370 1_455 S
C849 C853 1.408 . S
C850 C848 1.363 . S
C850 C851 1.370 . S
C850 C854 1.524 . S
C851 C843 1.503 . S
C851 C850 1.370 . S
C851 C852 1.403 1_655 S
C852 C851 1.403 1_455 S
C852 C853 1.404 . S
C852 C855 1.539 . S
C853 C849 1.408 . S
C853 C852 1.404 . S
C853 H865 0.930 . S
C854 C850 1.524 . S
C854 H866 0.956 . S
C854 H867 0.961 . S
C854 H868 0.961 . S
C855 C852 1.539 . S
C855 H869 0.958 . S
C855 H870 0.961 . S
C855 H871 0.960 . S
H856 C840 0.931 . S
H857 C845 0.929 . S
H858 C846 0.960 . S
H859 C846 0.962 . S
H860 C846 0.960 . S
H861 C847 0.961 . S
H862 C847 0.961 . S
H863 C847 0.961 . S
H864 C848 0.931 . S
H865 C853 0.930 . S
H866 C854 0.956 . S
H867 C854 0.961 . S
H868 C854 0.961 . S
H869 C855 0.958 . S
H870 C855 0.961 . S
H871 C855 0.960 . S
C872 C873 1.428 . S
C872 C874 1.394 . S
C872 H888 0.931 . S
C873 C872 1.428 . S
C873 C877 1.335 1_565 S
C874 C872 1.394 . S
C874 C875 1.369 1_565 S
C874 C878 1.531 . S
C875 C874 1.369 1_545 S
C875 C876 1.410 . S
C875 C883 1.503 . S
C876 C875 1.410 . S
C876 C877 1.392 . S
C876 C879 1.511 . S
C877 C873 1.335 1_545 S
C877 C876 1.392 . S
C877 H889 0.929 . S
C878 C874 1.531 . S
C878 H890 0.960 . S
C878 H891 0.962 . S
C878 H892 0.960 . S
C879 C876 1.511 . S
C879 H893 0.961 . S
C879 H894 0.961 . S
C879 H895 0.961 . S
C880 C881 1.370 . S
C880 C882 1.363 . S
C880 H896 0.931 . S
C881 C880 1.370 . S
C881 C885 1.408 . S
C882 C880 1.363 . S
C882 C883 1.370 . S
C882 C886 1.524 . S
C883 C875 1.503 . S
C883 C882 1.370 . S
C883 C884 1.403 . S
C884 C883 1.403 . S
C884 C885 1.404 . S
C884 C887 1.539 1_545 S
C885 C881 1.408 . S
C885 C884 1.404 . S
C885 H897 0.930 . S
C886 C882 1.524 . S
C886 H898 0.929 1_545 S
C886 H899 0.961 . S
C886 H900 0.961 . S
C887 C884 1.539 1_565 S
C887 H901 0.958 . S
C887 H902 0.961 1_565 S
C887 H903 0.960 1_565 S
H888 C872 0.931 . S
H889 C877 0.929 . S
H890 C878 0.960 . S
H891 C878 0.962 . S
H892 C878 0.960 . S
H893 C879 0.961 . S
H894 C879 0.961 . S
H895 C879 0.961 . S
H896 C880 0.931 . S
H897 C885 0.930 . S
H898 C886 0.929 1_565 S
H899 C886 0.961 . S
H900 C886 0.961 . S
H901 C887 0.958 . S
H902 C887 0.961 1_545 S
H903 C887 0.960 1_545 S
C904 C905 1.391 . S
C904 C906 1.394 . S
C904 H920 0.931 . S
C905 C904 1.391 . S
C905 C909 1.376 . S
C906 C904 1.394 . S
C906 C907 1.369 . S
C906 C910 1.531 . S
C907 C906 1.369 . S
C907 C908 1.410 . S
C907 C915 1.503 . S
C908 C907 1.410 . S
C908 C909 1.392 . S
C908 C911 1.511 . S
C909 C905 1.376 . S
C909 C908 1.392 . S
C909 H921 0.929 . S
C910 C906 1.531 . S
C910 H922 0.960 . S
C910 H923 0.962 . S
C910 H924 0.960 . S
C911 C908 1.511 . S
C911 H925 0.961 . S
C911 H926 0.961 . S
C911 H927 0.961 . S
C912 C913 1.370 . S
C912 C914 1.363 . S
C912 H928 0.931 . S
C913 C912 1.370 . S
C913 C917 1.408 . S
C914 C912 1.363 . S
C914 C915 1.370 . S
C914 C918 1.524 . S
C915 C907 1.503 . S
C915 C914 1.370 . S
C915 C916 1.403 . S
C916 C915 1.403 . S
C916 C917 1.404 . S
C916 C919 1.539 . S
C917 C913 1.408 . S
C917 C916 1.404 . S
C917 H929 0.930 . S
C918 C914 1.524 . S
C918 H930 0.956 . S
C918 H931 0.961 . S
C918 H932 0.961 . S
C919 C916 1.539 . S
C919 H933 0.958 . S
C919 H934 0.961 . S
C919 H935 0.960 . S
H920 C904 0.931 . S
H921 C909 0.929 . S
H922 C910 0.960 . S
H923 C910 0.962 . S
H924 C910 0.960 . S
H925 C911 0.961 . S
H926 C911 0.961 . S
H927 C911 0.961 . S
H928 C912 0.931 . S
H929 C917 0.930 . S
H930 C918 0.956 . S
H931 C918 0.961 . S
H932 C918 0.961 . S
H933 C919 0.958 . S
H934 C919 0.961 . S
H935 C919 0.960 . S
C936 C937 1.391 . S
C936 C938 1.394 . S
C936 H952 0.931 . S
C937 C936 1.391 . S
C937 C941 1.376 . S
C938 C936 1.394 . S
C938 C939 1.369 . S
C938 C942 1.531 . S
C939 C938 1.369 . S
C939 C940 1.410 . S
C939 C947 1.503 . S
C940 C939 1.410 . S
C940 C941 1.392 . S
C940 C943 1.511 . S
C941 C937 1.376 . S
C941 C940 1.392 . S
C941 H953 0.929 . S
C942 C938 1.531 . S
C942 H954 0.960 . S
C942 H955 0.962 . S
C942 H956 0.960 . S
C943 C940 1.511 . S
C943 H957 0.961 . S
C943 H958 0.961 . S
C943 H959 0.961 . S
C944 C945 1.370 . S
C944 C946 1.363 . S
C944 H960 0.931 . S
C945 C944 1.370 . S
C945 C949 1.408 . S
C946 C944 1.363 . S
C946 C947 1.370 . S
C946 C950 1.524 . S
C947 C939 1.503 . S
C947 C946 1.370 . S
C947 C948 1.403 . S
C948 C947 1.403 . S
C948 C949 1.404 . S
C948 C951 1.539 . S
C949 C945 1.408 . S
C949 C948 1.404 . S
C949 H961 0.930 . S
C950 C946 1.524 . S
C950 H962 0.956 . S
C950 H963 0.961 . S
C950 H964 0.961 . S
C951 C948 1.539 . S
C951 H965 0.958 . S
C951 H966 0.961 . S
C951 H967 0.960 . S
H952 C936 0.931 . S
H953 C941 0.929 . S
H954 C942 0.960 . S
H955 C942 0.962 . S
H956 C942 0.960 . S
H957 C943 0.961 . S
H958 C943 0.961 . S
H959 C943 0.961 . S
H960 C944 0.931 . S
H961 C949 0.930 . S
H962 C950 0.956 . S
H963 C950 0.961 . S
H964 C950 0.961 . S
H965 C951 0.958 . S
H966 C951 0.961 . S
H967 C951 0.960 . S
C968 C969 1.391 . S
C968 C970 1.394 . S
C968 H984 0.931 . S
C969 C968 1.391 . S
C969 C973 1.376 . S
C970 C968 1.394 . S
C970 C971 1.369 . S
C970 C974 1.531 . S
C971 C970 1.369 . S
C971 C972 1.410 . S
C971 C979 1.503 1_554 S
C972 C971 1.410 . S
C972 C973 1.394 . S
C972 C975 1.509 1_554 S
C973 C969 1.376 . S
C973 C972 1.394 . S
C973 H985 0.929 . S
C974 C970 1.531 . S
C974 H986 0.960 . S
C974 H987 0.962 . S
C974 H988 0.960 . S
C975 C972 1.509 1_556 S
C975 H989 0.961 . S
C975 H990 0.961 . S
C975 H991 0.961 . S
C976 C977 1.370 . S
C976 C978 1.363 1_556 S
C976 H992 0.931 1_556 S
C977 C976 1.370 . S
C977 C981 1.408 . S
C978 C976 1.363 1_554 S
C978 C979 1.370 1_554 S
C978 C982 1.524 . S
C979 C971 1.503 1_556 S
C979 C978 1.370 1_556 S
C979 C980 1.403 . S
C980 C979 1.403 . S
C980 C981 1.404 . S
C980 C983 1.539 . S
C981 C977 1.408 . S
C981 C980 1.404 . S
C981 H993 0.930 . S
C982 C978 1.524 . S
C982 H994 0.956 . S
C982 H995 0.961 . S
C982 H996 0.961 . S
C983 C980 1.539 . S
C983 H997 0.958 . S
C983 H998 0.961 . S
C983 H999 0.960 . S
H984 C968 0.931 . S
H985 C973 0.929 . S
H986 C974 0.960 . S
H987 C974 0.962 . S
H988 C974 0.960 . S
H989 C975 0.961 . S
H990 C975 0.961 . S
H991 C975 0.961 . S
H992 C976 0.931 1_554 S
H993 C981 0.930 . S
H994 C982 0.956 . S
H995 C982 0.961 . S
H996 C982 0.961 . S
H997 C983 0.958 . S
H998 C983 0.961 . S
H999 C983 0.960 . S
C1000 C1001 1.391 . S
C1000 C1002 1.394 . S
C1000 H1016 0.934 . S
C1001 C1000 1.391 . S
C1001 C1005 1.376 1_556 S
C1002 C1000 1.394 . S
C1002 C1003 1.369 . S
C1002 C1006 1.531 . S
C1003 C1002 1.369 . S
C1003 C1004 1.410 . S
C1003 C1011 1.503 . S
C1004 C1003 1.410 . S
C1004 C1005 1.392 1_556 S
C1004 C1007 1.511 1_556 S
C1005 C1001 1.376 1_554 S
C1005 C1004 1.392 1_554 S
C1005 H1017 0.929 . S
C1006 C1002 1.531 . S
C1006 H1018 0.960 . S
C1006 H1019 0.962 1_545 S
C1006 H1020 0.960 . S
C1007 C1004 1.511 1_554 S
C1007 H1021 0.961 . S
C1007 H1022 0.961 1_554 S
C1007 H1023 0.961 . S
C1008 C1009 1.370 1_565 S
C1008 C1010 1.363 . S
C1008 H1024 0.931 . S
C1009 C1008 1.370 1_545 S
C1009 C1013 1.408 . S
C1010 C1008 1.363 . S
C1010 C1011 1.370 1_565 S
C1010 C1014 1.524 . S
C1011 C1003 1.503 . S
C1011 C1010 1.370 1_545 S
C1011 C1012 1.403 . S
C1012 C1011 1.403 . S
C1012 C1013 1.404 . S
C1012 C1015 1.539 . S
C1013 C1009 1.408 . S
C1013 C1012 1.404 . S
C1013 H1025 0.930 . S
C1014 C1010 1.524 . S
C1014 H1026 0.956 . S
C1014 H1027 0.961 . S
C1014 H1028 0.961 . S
C1015 C1012 1.539 . S
C1015 H1029 0.958 . S
C1015 H1030 0.961 . S
C1015 H1031 0.960 . S
H1016 C1000 0.934 . S
H1017 C1005 0.929 . S
H1018 C1006 0.960 . S
H1019 C1006 0.962 1_565 S
H1020 C1006 0.960 . S
H1021 C1007 0.961 . S
H1022 C1007 0.961 1_556 S
H1023 C1007 0.961 . S
H1024 C1008 0.931 . S
H1025 C1013 0.930 . S
H1026 C1014 0.956 . S
H1027 C1014 0.961 . S
H1028 C1014 0.961 . S
H1029 C1015 0.958 . S
H1030 C1015 0.961 . S
H1031 C1015 0.960 . S
C1032 C1033 1.391 . S
C1032 C1034 1.394 . S
C1032 H1048 0.931 1_556 S
C1033 C1032 1.391 . S
C1033 C1037 1.376 . S
C1034 C1032 1.394 . S
C1034 C1035 1.369 . S
C1034 C1038 1.531 . S
C1035 C1034 1.369 . S
C1035 C1036 1.410 . S
C1035 C1043 1.503 . S
C1036 C1035 1.410 . S
C1036 C1037 1.392 . S
C1036 C1039 1.511 . S
C1037 C1033 1.376 . S
C1037 C1036 1.392 . S
C1037 H1049 0.929 . S
C1038 C1034 1.531 . S
C1038 H1050 0.960 . S
C1038 H1051 0.962 . S
C1038 H1052 0.960 1_556 S
C1039 C1036 1.511 . S
C1039 H1053 0.961 . S
C1039 H1054 0.961 . S
C1039 H1055 0.961 . S
C1040 C1041 1.370 . S
C1040 C1042 1.363 . S
C1040 H1056 0.931 . S
C1041 C1040 1.370 . S
C1041 C1045 1.408 . S
C1042 C1040 1.363 . S
C1042 C1043 1.370 . S
C1042 C1046 1.524 . S
C1043 C1035 1.503 . S
C1043 C1042 1.370 . S
C1043 C1044 1.403 . S
C1044 C1043 1.403 . S
C1044 C1045 1.404 . S
C1044 C1047 1.539 . S
C1045 C1041 1.408 . S
C1045 C1044 1.404 . S
C1045 H1057 0.930 . S
C1046 C1042 1.524 . S
C1046 H1058 0.956 . S
C1046 H1059 0.961 . S
C1046 H1060 0.961 . S
C1047 C1044 1.539 . S
C1047 H1061 0.958 . S
C1047 H1062 0.961 . S
C1047 H1063 0.960 . S
H1048 C1032 0.931 1_554 S
H1049 C1037 0.929 . S
H1050 C1038 0.960 . S
H1051 C1038 0.962 . S
H1052 C1038 0.960 1_554 S
H1053 C1039 0.961 . S
H1054 C1039 0.961 . S
H1055 C1039 0.961 . S
H1056 C1040 0.931 . S
H1057 C1045 0.930 . S
H1058 C1046 0.956 . S
H1059 C1046 0.961 . S
H1060 C1046 0.961 . S
H1061 C1047 0.958 . S
H1062 C1047 0.961 . S
H1063 C1047 0.960 . S
C1064 C1065 1.391 . S
C1064 C1066 1.394 . S
C1064 H1080 0.931 . S
C1065 C1064 1.391 . S
C1065 C1069 1.376 . S
C1066 C1064 1.394 . S
C1066 C1067 1.369 . S
C1066 C1070 1.531 . S
C1067 C1066 1.369 . S
C1067 C1068 1.410 . S
C1067 C1075 1.503 . S
C1068 C1067 1.410 . S
C1068 C1069 1.392 . S
C1068 C1071 1.511 . S
C1069 C1065 1.376 . S
C1069 C1068 1.392 . S
C1069 H1081 0.929 . S
C1070 C1066 1.531 . S
C1070 H1082 0.960 . S
C1070 H1083 0.962 . S
C1070 H1084 0.960 . S
C1071 C1068 1.511 . S
C1071 H1085 0.961 . S
C1071 H1086 0.961 . S
C1071 H1087 0.961 . S
C1072 C1073 1.370 . S
C1072 C1074 1.363 . S
C1072 H1088 0.931 . S
C1073 C1072 1.370 . S
C1073 C1077 1.408 . S
C1074 C1072 1.363 . S
C1074 C1075 1.370 . S
C1074 C1078 1.524 . S
C1075 C1067 1.503 . S
C1075 C1074 1.370 . S
C1075 C1076 1.403 . S
C1076 C1075 1.403 . S
C1076 C1077 1.404 . S
C1076 C1079 1.539 . S
C1077 C1073 1.408 . S
C1077 C1076 1.404 . S
C1077 H1089 0.930 . S
C1078 C1074 1.524 . S
C1078 H1090 0.956 . S
C1078 H1091 0.961 . S
C1078 H1092 0.961 . S
C1079 C1076 1.539 . S
C1079 H1093 0.958 . S
C1079 H1094 0.961 . S
C1079 H1095 0.960 . S
H1080 C1064 0.931 . S
H1081 C1069 0.929 . S
H1082 C1070 0.960 . S
H1083 C1070 0.962 . S
H1084 C1070 0.960 . S
H1085 C1071 0.961 . S
H1086 C1071 0.961 . S
H1087 C1071 0.961 . S
H1088 C1072 0.931 . S
H1089 C1077 0.930 . S
H1090 C1078 0.956 . S
H1091 C1078 0.961 . S
H1092 C1078 0.961 . S
H1093 C1079 0.958 . S
H1094 C1079 0.961 . S
H1095 C1079 0.960 . S
C1096 C1097 1.391 . S
C1096 C1098 1.394 . S
C1096 H1112 0.931 . S
C1097 C1096 1.391 . S
C1097 C1101 1.376 . S
C1098 C1096 1.394 . S
C1098 C1099 1.369 . S
C1098 C1102 1.531 . S
C1099 C1098 1.369 . S
C1099 C1100 1.410 . S
C1099 C1107 1.503 . S
C1100 C1099 1.410 . S
C1100 C1101 1.392 . S
C1100 C1103 1.511 . S
C1101 C1097 1.376 . S
C1101 C1100 1.392 . S
C1101 H1113 0.929 . S
C1102 C1098 1.531 . S
C1102 H1114 0.960 . S
C1102 H1115 0.962 . S
C1102 H1116 0.960 . S
C1103 C1100 1.511 . S
C1103 H1117 0.961 . S
C1103 H1118 0.961 . S
C1103 H1119 0.961 . S
C1104 C1105 1.370 . S
C1104 C1106 1.363 . S
C1104 H1120 0.931 1_655 S
C1105 C1104 1.370 . S
C1105 C1109 1.408 . S
C1106 C1104 1.363 . S
C1106 C1107 1.370 . S
C1106 C1110 1.524 . S
C1107 C1099 1.503 . S
C1107 C1106 1.370 . S
C1107 C1108 1.403 . S
C1108 C1107 1.403 . S
C1108 C1109 1.404 . S
C1108 C1111 1.539 . S
C1109 C1105 1.408 . S
C1109 C1108 1.404 . S
C1109 H1121 0.930 . S
C1110 C1106 1.524 . S
C1110 H1122 0.956 . S
C1110 H1123 0.961 . S
C1110 H1124 0.961 1_655 S
C1111 C1108 1.539 . S
C1111 H1125 0.958 . S
C1111 H1126 0.961 . S
C1111 H1127 0.960 . S
H1112 C1096 0.931 . S
H1113 C1101 0.929 . S
H1114 C1102 0.960 . S
H1115 C1102 0.962 . S
H1116 C1102 0.960 . S
H1117 C1103 0.961 . S
H1118 C1103 0.961 . S
H1119 C1103 0.961 . S
H1120 C1104 0.931 1_455 S
H1121 C1109 0.930 . S
H1122 C1110 0.956 . S
H1123 C1110 0.961 . S
H1124 C1110 0.961 1_455 S
H1125 C1111 0.958 . S
H1126 C1111 0.961 . S
H1127 C1111 0.960 . S
C1128 C1129 1.377 1_545 S
C1128 C1130 1.394 . S
C1128 H1144 0.931 . S
C1129 C1128 1.377 1_565 S
C1129 C1133 1.389 . S
C1130 C1128 1.394 . S
C1130 C1131 1.328 1_545 S
C1130 C1134 1.531 . S
C1131 C1130 1.328 1_565 S
C1131 C1132 1.453 . S
C1131 C1139 1.503 . S
C1132 C1131 1.453 . S
C1132 C1133 1.392 . S
C1132 C1135 1.511 . S
C1133 C1129 1.389 . S
C1133 C1132 1.392 . S
C1133 H1145 0.929 . S
C1134 C1130 1.531 . S
C1134 H1146 0.960 . S
C1134 H1147 0.962 . S
C1134 H1148 0.960 . S
C1135 C1132 1.511 . S
C1135 H1149 0.961 . S
C1135 H1150 0.961 . S
C1135 H1151 0.961 . S
C1136 C1137 1.370 . S
C1136 C1138 1.363 . S
C1136 H1152 0.931 . S
C1137 C1136 1.370 . S
C1137 C1141 1.408 . S
C1138 C1136 1.363 . S
C1138 C1139 1.370 . S
C1138 C1142 1.524 . S
C1139 C1131 1.503 . S
C1139 C1138 1.370 . S
C1139 C1140 1.405 . S
C1140 C1139 1.405 . S
C1140 C1141 1.403 . S
C1140 C1143 1.540 . S
C1141 C1137 1.408 . S
C1141 C1140 1.403 . S
C1141 H1153 0.930 . S
C1142 C1138 1.524 . S
C1142 H1154 0.956 1_565 S
C1142 H1155 0.961 . S
C1142 H1156 0.961 . S
C1143 C1140 1.540 . S
C1143 H1157 0.931 1_565 S
C1143 H1158 0.976 . S
C1143 H1159 0.974 . S
H1144 C1128 0.931 . S
H1145 C1133 0.929 . S
H1146 C1134 0.960 . S
H1147 C1134 0.962 . S
H1148 C1134 0.960 . S
H1149 C1135 0.961 . S
H1150 C1135 0.961 . S
H1151 C1135 0.961 . S
H1152 C1136 0.931 . S
H1153 C1141 0.930 . S
H1154 C1142 0.956 1_545 S
H1155 C1142 0.961 . S
H1156 C1142 0.961 . S
H1157 C1143 0.931 1_545 S
H1158 C1143 0.976 . S
H1159 C1143 0.974 . S
C1160 C1161 1.391 . S
C1160 C1162 1.394 . S
C1160 H1176 0.931 . S
C1161 C1160 1.391 . S
C1161 C1165 1.376 . S
C1162 C1160 1.394 . S
C1162 C1163 1.369 . S
C1162 C1166 1.531 . S
C1163 C1162 1.369 . S
C1163 C1164 1.410 . S
C1163 C1171 1.503 . S
C1164 C1163 1.410 . S
C1164 C1165 1.392 . S
C1164 C1167 1.511 . S
C1165 C1161 1.376 . S
C1165 C1164 1.392 . S
C1165 H1177 0.929 . S
C1166 C1162 1.531 . S
C1166 H1178 0.960 . S
C1166 H1179 0.962 . S
C1166 H1180 0.960 . S
C1167 C1164 1.511 . S
C1167 H1181 0.961 . S
C1167 H1182 0.961 . S
C1167 H1183 0.961 . S
C1168 C1169 1.370 . S
C1168 C1170 1.363 . S
C1168 H1184 0.931 . S
C1169 C1168 1.370 . S
C1169 C1173 1.408 . S
C1170 C1168 1.363 . S
C1170 C1171 1.370 . S
C1170 C1174 1.524 . S
C1171 C1163 1.503 . S
C1171 C1170 1.370 . S
C1171 C1172 1.403 . S
C1172 C1171 1.403 . S
C1172 C1173 1.404 . S
C1172 C1175 1.539 . S
C1173 C1169 1.408 . S
C1173 C1172 1.404 . S
C1173 H1185 0.930 . S
C1174 C1170 1.524 . S
C1174 H1186 0.956 . S
C1174 H1187 0.961 . S
C1174 H1188 0.961 . S
C1175 C1172 1.539 . S
C1175 H1189 0.958 . S
C1175 H1190 0.961 . S
C1175 H1191 0.960 . S
H1176 C1160 0.931 . S
H1177 C1165 0.929 . S
H1178 C1166 0.960 . S
H1179 C1166 0.962 . S
H1180 C1166 0.960 . S
H1181 C1167 0.961 . S
H1182 C1167 0.961 . S
H1183 C1167 0.961 . S
H1184 C1168 0.931 . S
H1185 C1173 0.930 . S
H1186 C1174 0.956 . S
H1187 C1174 0.961 . S
H1188 C1174 0.961 . S
H1189 C1175 0.958 . S
H1190 C1175 0.961 . S
H1191 C1175 0.960 . S
C1192 C1193 1.391 . S
C1192 C1194 1.394 . S
C1192 H1208 0.931 . S
C1193 C1192 1.391 . S
C1193 C1197 1.376 . S
C1194 C1192 1.394 . S
C1194 C1195 1.369 . S
C1194 C1198 1.531 . S
C1195 C1194 1.369 . S
C1195 C1196 1.410 . S
C1195 C1203 1.503 . S
C1196 C1195 1.410 . S
C1196 C1197 1.392 . S
C1196 C1199 1.511 . S
C1197 C1193 1.376 . S
C1197 C1196 1.392 . S
C1197 H1209 0.929 . S
C1198 C1194 1.531 . S
C1198 H1210 0.960 . S
C1198 H1211 0.962 . S
C1198 H1212 0.960 . S
C1199 C1196 1.511 . S
C1199 H1213 0.961 . S
C1199 H1214 0.961 . S
C1199 H1215 0.961 . S
C1200 C1201 1.370 . S
C1200 C1202 1.363 . S
C1200 H1216 0.931 . S
C1201 C1200 1.370 . S
C1201 C1205 1.408 . S
C1202 C1200 1.363 . S
C1202 C1203 1.370 . S
C1202 C1206 1.524 . S
C1203 C1195 1.503 . S
C1203 C1202 1.370 . S
C1203 C1204 1.403 . S
C1204 C1203 1.403 . S
C1204 C1205 1.404 . S
C1204 C1207 1.539 . S
C1205 C1201 1.408 . S
C1205 C1204 1.404 . S
C1205 H1217 0.930 . S
C1206 C1202 1.524 . S
C1206 H1218 0.956 . S
C1206 H1219 0.961 . S
C1206 H1220 0.961 . S
C1207 C1204 1.539 . S
C1207 H1221 0.958 . S
C1207 H1222 0.961 . S
C1207 H1223 0.960 . S
H1208 C1192 0.931 . S
H1209 C1197 0.929 . S
H1210 C1198 0.960 . S
H1211 C1198 0.962 . S
H1212 C1198 0.960 . S
H1213 C1199 0.961 . S
H1214 C1199 0.961 . S
H1215 C1199 0.961 . S
H1216 C1200 0.931 . S
H1217 C1205 0.930 . S
H1218 C1206 0.956 . S
H1219 C1206 0.961 . S
H1220 C1206 0.961 . S
H1221 C1207 0.958 . S
H1222 C1207 0.961 . S
H1223 C1207 0.960 . S
C457 C255 1.897 . S
C465 C337 1.915 . S
C497 C358 1.795 . S
C489 C295 1.744 . S
C529 C392 1.608 . S
C521 C175 1.594 . S
C561 C426 1.768 . S
C553 C215 1.695 . S
C593 C328 1.913 . S
C585 C95 1.909 1_556 S
C617 C135 1.778 1_556 S
C625 C367 1.789 . S
C649 C15 1.567 . S
C657 C401 1.618 . S
C681 C55 1.738 . S
C689 C435 1.758 . S
C721 C349 0.641 . S
C713 C221 0.786 . S
C753 C354 0.430 . S
C745 C261 0.481 1_565 S
C785 C388 0.595 . S
C777 C301 0.677 . S
C809 C181 0.396 . S
C817 C422 0.174 . S
C841 C61 0.623 . S
C849 C320 0.722 . S
C881 C383 0.424 . S
C873 C101 0.378 1_565 S
C913 C417 0.637 . S
C905 C141 0.579 . S
C937 C21 0.346 . S
C945 C451 0.104 . S
C969 C202 1.840 . S
C977 C333 1.854 . S
C1001 C242 2.140 1_556 S
C1009 C362 2.244 . S
C1041 C396 2.002 . S
C1033 C282 1.916 1_556 S
C1073 C430 2.056 . S
C1065 C162 1.871 . S
C1097 C42 1.753 . S
C1105 C324 1.870 . S
C1137 C371 2.247 . S
C1129 C82 2.129 1_565 S
C1169 C405 2.003 . S
C1161 C122 1.864 . S
C1193 C2 1.973 . S
C1201 C439 2.050 . S
