# Generated by pormake.
# Topology gar, (4,6)-cn, num edge types: 1
# Building blocks:
#     Node 0, Type 0, BuildingBlock: UXUYUI_clean_sbu_0, # of connection points: 4
#     Node 1, Type 0, BuildingBlock: UXUYUI_clean_sbu_0, # of connection points: 4
#     Node 2, Type 0, BuildingBlock: UXUYUI_clean_sbu_0, # of connection points: 4
#     Node 3, Type 0, BuildingBlock: UXUYUI_clean_sbu_0, # of connection points: 4
#     Node 4, Type 0, BuildingBlock: UXUYUI_clean_sbu_0, # of connection points: 4
#     Node 5, Type 0, BuildingBlock: UXUYUI_clean_sbu_0, # of connection points: 4
#     Node 6, Type 0, BuildingBlock: UXUYUI_clean_sbu_0, # of connection points: 4
#     Node 7, Type 0, BuildingBlock: UXUYUI_clean_sbu_0, # of connection points: 4
#     Node 8, Type 0, BuildingBlock: UXUYUI_clean_sbu_0, # of connection points: 4
#     Node 9, Type 0, BuildingBlock: UXUYUI_clean_sbu_0, # of connection points: 4
#     Node 10, Type 0, BuildingBlock: UXUYUI_clean_sbu_0, # of connection points: 4
#     Node 11, Type 0, BuildingBlock: UXUYUI_clean_sbu_0, # of connection points: 4
#     Node 12, Type 0, BuildingBlock: UXUYUI_clean_sbu_0, # of connection points: 4
#     Node 13, Type 0, BuildingBlock: UXUYUI_clean_sbu_0, # of connection points: 4
#     Node 14, Type 0, BuildingBlock: UXUYUI_clean_sbu_0, # of connection points: 4
#     Node 15, Type 0, BuildingBlock: UXUYUI_clean_sbu_0, # of connection points: 4
#     Node 16, Type 0, BuildingBlock: UXUYUI_clean_sbu_0, # of connection points: 4
#     Node 17, Type 0, BuildingBlock: UXUYUI_clean_sbu_0, # of connection points: 4
#     Node 18, Type 0, BuildingBlock: UXUYUI_clean_sbu_0, # of connection points: 4
#     Node 19, Type 0, BuildingBlock: UXUYUI_clean_sbu_0, # of connection points: 4
#     Node 20, Type 0, BuildingBlock: UXUYUI_clean_sbu_0, # of connection points: 4
#     Node 21, Type 0, BuildingBlock: UXUYUI_clean_sbu_0, # of connection points: 4
#     Node 22, Type 0, BuildingBlock: UXUYUI_clean_sbu_0, # of connection points: 4
#     Node 23, Type 0, BuildingBlock: UXUYUI_clean_sbu_0, # of connection points: 4
#     Node 24, Type 1, BuildingBlock: CUKXOW_clean_sbu_0, # of connection points: 6
#     Node 25, Type 1, BuildingBlock: CUKXOW_clean_sbu_0, # of connection points: 6
#     Node 26, Type 1, BuildingBlock: CUKXOW_clean_sbu_0, # of connection points: 6
#     Node 27, Type 1, BuildingBlock: CUKXOW_clean_sbu_0, # of connection points: 6
#     Node 28, Type 1, BuildingBlock: CUKXOW_clean_sbu_0, # of connection points: 6
#     Node 29, Type 1, BuildingBlock: CUKXOW_clean_sbu_0, # of connection points: 6
#     Node 30, Type 1, BuildingBlock: CUKXOW_clean_sbu_0, # of connection points: 6
#     Node 31, Type 1, BuildingBlock: CUKXOW_clean_sbu_0, # of connection points: 6
#     Node 32, Type 1, BuildingBlock: CUKXOW_clean_sbu_0, # of connection points: 6
#     Node 33, Type 1, BuildingBlock: CUKXOW_clean_sbu_0, # of connection points: 6
#     Node 34, Type 1, BuildingBlock: CUKXOW_clean_sbu_0, # of connection points: 6
#     Node 35, Type 1, BuildingBlock: CUKXOW_clean_sbu_0, # of connection points: 6
#     Node 36, Type 1, BuildingBlock: CUKXOW_clean_sbu_0, # of connection points: 6
#     Node 37, Type 1, BuildingBlock: CUKXOW_clean_sbu_0, # of connection points: 6
#     Node 38, Type 1, BuildingBlock: CUKXOW_clean_sbu_0, # of connection points: 6
#     Node 39, Type 1, BuildingBlock: CUKXOW_clean_sbu_0, # of connection points: 6
#     Edge 40, Type (0, 1), BuildingBlock: UVAHIK_clean_linker_0, # of connection points: 2
#     Edge 41, Type (0, 1), BuildingBlock: UVAHIK_clean_linker_0, # of connection points: 2
#     Edge 42, Type (0, 1), BuildingBlock: UVAHIK_clean_linker_0, # of connection points: 2
#     Edge 43, Type (0, 1), BuildingBlock: UVAHIK_clean_linker_0, # of connection points: 2
#     Edge 44, Type (0, 1), BuildingBlock: UVAHIK_clean_linker_0, # of connection points: 2
#     Edge 45, Type (0, 1), BuildingBlock: UVAHIK_clean_linker_0, # of connection points: 2
#     Edge 46, Type (0, 1), BuildingBlock: UVAHIK_clean_linker_0, # of connection points: 2
#     Edge 47, Type (0, 1), BuildingBlock: UVAHIK_clean_linker_0, # of connection points: 2
#     Edge 48, Type (0, 1), BuildingBlock: UVAHIK_clean_linker_0, # of connection points: 2
#     Edge 49, Type (0, 1), BuildingBlock: UVAHIK_clean_linker_0, # of connection points: 2
#     Edge 50, Type (0, 1), BuildingBlock: UVAHIK_clean_linker_0, # of connection points: 2
#     Edge 51, Type (0, 1), BuildingBlock: UVAHIK_clean_linker_0, # of connection points: 2
#     Edge 52, Type (0, 1), BuildingBlock: UVAHIK_clean_linker_0, # of connection points: 2
#     Edge 53, Type (0, 1), BuildingBlock: UVAHIK_clean_linker_0, # of connection points: 2
#     Edge 54, Type (0, 1), BuildingBlock: UVAHIK_clean_linker_0, # of connection points: 2
#     Edge 55, Type (0, 1), BuildingBlock: UVAHIK_clean_linker_0, # of connection points: 2
#     Edge 56, Type (0, 1), BuildingBlock: UVAHIK_clean_linker_0, # of connection points: 2
#     Edge 57, Type (0, 1), BuildingBlock: UVAHIK_clean_linker_0, # of connection points: 2
#     Edge 58, Type (0, 1), BuildingBlock: UVAHIK_clean_linker_0, # of connection points: 2
#     Edge 59, Type (0, 1), BuildingBlock: UVAHIK_clean_linker_0, # of connection points: 2
#     Edge 60, Type (0, 1), BuildingBlock: UVAHIK_clean_linker_0, # of connection points: 2
#     Edge 61, Type (0, 1), BuildingBlock: UVAHIK_clean_linker_0, # of connection points: 2
#     Edge 62, Type (0, 1), BuildingBlock: UVAHIK_clean_linker_0, # of connection points: 2
#     Edge 63, Type (0, 1), BuildingBlock: UVAHIK_clean_linker_0, # of connection points: 2
#     Edge 64, Type (0, 1), BuildingBlock: UVAHIK_clean_linker_0, # of connection points: 2
#     Edge 65, Type (0, 1), BuildingBlock: UVAHIK_clean_linker_0, # of connection points: 2
#     Edge 66, Type (0, 1), BuildingBlock: UVAHIK_clean_linker_0, # of connection points: 2
#     Edge 67, Type (0, 1), BuildingBlock: UVAHIK_clean_linker_0, # of connection points: 2
#     Edge 68, Type (0, 1), BuildingBlock: UVAHIK_clean_linker_0, # of connection points: 2
#     Edge 69, Type (0, 1), BuildingBlock: UVAHIK_clean_linker_0, # of connection points: 2
#     Edge 70, Type (0, 1), BuildingBlock: UVAHIK_clean_linker_0, # of connection points: 2
#     Edge 71, Type (0, 1), BuildingBlock: UVAHIK_clean_linker_0, # of connection points: 2
#     Edge 72, Type (0, 1), BuildingBlock: UVAHIK_clean_linker_0, # of connection points: 2
#     Edge 73, Type (0, 1), BuildingBlock: UVAHIK_clean_linker_0, # of connection points: 2
#     Edge 74, Type (0, 1), BuildingBlock: UVAHIK_clean_linker_0, # of connection points: 2
#     Edge 75, Type (0, 1), BuildingBlock: UVAHIK_clean_linker_0, # of connection points: 2
#     Edge 76, Type (0, 1), BuildingBlock: UVAHIK_clean_linker_0, # of connection points: 2
#     Edge 77, Type (0, 1), BuildingBlock: UVAHIK_clean_linker_0, # of connection points: 2
#     Edge 78, Type (0, 1), BuildingBlock: UVAHIK_clean_linker_0, # of connection points: 2
#     Edge 79, Type (0, 1), BuildingBlock: UVAHIK_clean_linker_0, # of connection points: 2
#     Edge 80, Type (0, 1), BuildingBlock: UVAHIK_clean_linker_0, # of connection points: 2
#     Edge 81, Type (0, 1), BuildingBlock: UVAHIK_clean_linker_0, # of connection points: 2
#     Edge 82, Type (0, 1), BuildingBlock: UVAHIK_clean_linker_0, # of connection points: 2
#     Edge 83, Type (0, 1), BuildingBlock: UVAHIK_clean_linker_0, # of connection points: 2
#     Edge 84, Type (0, 1), BuildingBlock: UVAHIK_clean_linker_0, # of connection points: 2
#     Edge 85, Type (0, 1), BuildingBlock: UVAHIK_clean_linker_0, # of connection points: 2
#     Edge 86, Type (0, 1), BuildingBlock: UVAHIK_clean_linker_0, # of connection points: 2
#     Edge 87, Type (0, 1), BuildingBlock: UVAHIK_clean_linker_0, # of connection points: 2
#     Edge 88, Type (0, 1), BuildingBlock: UVAHIK_clean_linker_0, # of connection points: 2
#     Edge 89, Type (0, 1), BuildingBlock: UVAHIK_clean_linker_0, # of connection points: 2
#     Edge 90, Type (0, 1), BuildingBlock: UVAHIK_clean_linker_0, # of connection points: 2
#     Edge 91, Type (0, 1), BuildingBlock: UVAHIK_clean_linker_0, # of connection points: 2
#     Edge 92, Type (0, 1), BuildingBlock: UVAHIK_clean_linker_0, # of connection points: 2
#     Edge 93, Type (0, 1), BuildingBlock: UVAHIK_clean_linker_0, # of connection points: 2
#     Edge 94, Type (0, 1), BuildingBlock: UVAHIK_clean_linker_0, # of connection points: 2
#     Edge 95, Type (0, 1), BuildingBlock: UVAHIK_clean_linker_0, # of connection points: 2
#     Edge 96, Type (0, 1), BuildingBlock: UVAHIK_clean_linker_0, # of connection points: 2
#     Edge 97, Type (0, 1), BuildingBlock: UVAHIK_clean_linker_0, # of connection points: 2
#     Edge 98, Type (0, 1), BuildingBlock: UVAHIK_clean_linker_0, # of connection points: 2
#     Edge 99, Type (0, 1), BuildingBlock: UVAHIK_clean_linker_0, # of connection points: 2
#     Edge 100, Type (0, 1), BuildingBlock: UVAHIK_clean_linker_0, # of connection points: 2
#     Edge 101, Type (0, 1), BuildingBlock: UVAHIK_clean_linker_0, # of connection points: 2
#     Edge 102, Type (0, 1), BuildingBlock: UVAHIK_clean_linker_0, # of connection points: 2
#     Edge 103, Type (0, 1), BuildingBlock: UVAHIK_clean_linker_0, # of connection points: 2
#     Edge 104, Type (0, 1), BuildingBlock: UVAHIK_clean_linker_0, # of connection points: 2
#     Edge 105, Type (0, 1), BuildingBlock: UVAHIK_clean_linker_0, # of connection points: 2
#     Edge 106, Type (0, 1), BuildingBlock: UVAHIK_clean_linker_0, # of connection points: 2
#     Edge 107, Type (0, 1), BuildingBlock: UVAHIK_clean_linker_0, # of connection points: 2
#     Edge 108, Type (0, 1), BuildingBlock: UVAHIK_clean_linker_0, # of connection points: 2
#     Edge 109, Type (0, 1), BuildingBlock: UVAHIK_clean_linker_0, # of connection points: 2
#     Edge 110, Type (0, 1), BuildingBlock: UVAHIK_clean_linker_0, # of connection points: 2
#     Edge 111, Type (0, 1), BuildingBlock: UVAHIK_clean_linker_0, # of connection points: 2
#     Edge 112, Type (0, 1), BuildingBlock: UVAHIK_clean_linker_0, # of connection points: 2
#     Edge 113, Type (0, 1), BuildingBlock: UVAHIK_clean_linker_0, # of connection points: 2
#     Edge 114, Type (0, 1), BuildingBlock: UVAHIK_clean_linker_0, # of connection points: 2
#     Edge 115, Type (0, 1), BuildingBlock: UVAHIK_clean_linker_0, # of connection points: 2
#     Edge 116, Type (0, 1), BuildingBlock: UVAHIK_clean_linker_0, # of connection points: 2
#     Edge 117, Type (0, 1), BuildingBlock: UVAHIK_clean_linker_0, # of connection points: 2
#     Edge 118, Type (0, 1), BuildingBlock: UVAHIK_clean_linker_0, # of connection points: 2
#     Edge 119, Type (0, 1), BuildingBlock: UVAHIK_clean_linker_0, # of connection points: 2
#     Edge 120, Type (0, 1), BuildingBlock: UVAHIK_clean_linker_0, # of connection points: 2
#     Edge 121, Type (0, 1), BuildingBlock: UVAHIK_clean_linker_0, # of connection points: 2
#     Edge 122, Type (0, 1), BuildingBlock: UVAHIK_clean_linker_0, # of connection points: 2
#     Edge 123, Type (0, 1), BuildingBlock: UVAHIK_clean_linker_0, # of connection points: 2
#     Edge 124, Type (0, 1), BuildingBlock: UVAHIK_clean_linker_0, # of connection points: 2
#     Edge 125, Type (0, 1), BuildingBlock: UVAHIK_clean_linker_0, # of connection points: 2
#     Edge 126, Type (0, 1), BuildingBlock: UVAHIK_clean_linker_0, # of connection points: 2
#     Edge 127, Type (0, 1), BuildingBlock: UVAHIK_clean_linker_0, # of connection points: 2
#     Edge 128, Type (0, 1), BuildingBlock: UVAHIK_clean_linker_0, # of connection points: 2
#     Edge 129, Type (0, 1), BuildingBlock: UVAHIK_clean_linker_0, # of connection points: 2
#     Edge 130, Type (0, 1), BuildingBlock: UVAHIK_clean_linker_0, # of connection points: 2
#     Edge 131, Type (0, 1), BuildingBlock: UVAHIK_clean_linker_0, # of connection points: 2
#     Edge 132, Type (0, 1), BuildingBlock: UVAHIK_clean_linker_0, # of connection points: 2
#     Edge 133, Type (0, 1), BuildingBlock: UVAHIK_clean_linker_0, # of connection points: 2
#     Edge 134, Type (0, 1), BuildingBlock: UVAHIK_clean_linker_0, # of connection points: 2
#     Edge 135, Type (0, 1), BuildingBlock: UVAHIK_clean_linker_0, # of connection points: 2
# Relax obj value: 0.131
# Max RMSD: 0.214
# Mean RMSD: 0.172
data_MOF--net-gar--node1-UXUYUI_clean_sbu_0--node2-CUKXOW_clean_sbu_0--edge1-UVAHIK_clean_linker_0
_symmetry_space_group_name_H-M    P1
_symmetry_Int_Tables_number       1
_symmetry_cell_setting            triclinic
loop_
_symmetry_equiv_pos_as_xyz
'x, y, z'
_cell_length_a     83.200259
_cell_length_b     81.621915
_cell_length_c     82.189801
_cell_angle_alpha  93.46472
_cell_angle_beta   95.575542
_cell_angle_gamma 99.345765
loop_
_atom_site_label
_atom_site_type_symbol
_atom_site_fract_x
_atom_site_fract_y
_atom_site_fract_z
_atom_type_partial_charge
Li0 Li 0.00157 0.268 0.38524 0.0
Li1 Li 0.01635 0.28531 0.40908 0.0
Li2 Li 0.03105 0.27243 0.38889 0.0
Li3 Li 0.01581 0.2562 0.40791 0.0
C4 C 0.02433 0.3004 0.37623 0.0
N5 N 0.04105 0.32277 0.35725 0.0
C6 C 0.03227 0.31601 0.38323 0.0
C7 C 0.02483 0.29621 0.35955 0.0
C8 C 0.04066 0.32713 0.37343 0.0
C9 C 0.03338 0.30767 0.35018 0.0
C10 C 0.98681 0.27552 0.41709 0.0
C11 C 0.98025 0.28711 0.44283 0.0
N12 N 0.96752 0.29288 0.43474 0.0
C13 C 0.97362 0.28151 0.40904 0.0
C14 C 0.99012 0.27826 0.43414 0.0
C15 C 0.96402 0.29027 0.41818 0.0
C16 C 0.97169 0.25153 0.36719 0.0
N17 N 0.98328 0.26552 0.36917 0.0
C18 C 0.9698 0.27721 0.3469 0.0
C19 C 0.9824 0.27834 0.35953 0.0
C20 C 0.95786 0.2628 0.34428 0.0
C21 C 0.95885 0.24982 0.35461 0.0
H22 H 0.97245 0.24171 0.37534 0.0
H23 H 0.99144 0.28953 0.36168 0.0
C24 C 0.02688 0.30883 0.4363 0.0
N25 N 0.01643 0.30499 0.42235 0.0
C26 C 0.02722 0.32374 0.44568 0.0
C27 C 0.00594 0.33028 0.42614 0.0
C28 C 0.00605 0.3153 0.41715 0.0
C29 C 0.01673 0.33474 0.44053 0.0
H30 H 0.03513 0.30046 0.44 0.0
H31 H 0.99798 0.31191 0.40591 0.0
C32 C 0.00781 0.2392 0.37262 0.0
N33 N 0.99016 0.21552 0.34934 0.0
C34 C -0.00047 0.22426 0.37741 0.0
C35 C 0.00715 0.24206 0.35598 0.0
C36 C 0.99068 0.21244 0.36545 0.0
C37 C 0.99814 0.22996 0.34441 0.0
C38 C 0.04509 0.26653 0.42343 0.0
C39 C 0.05804 0.2597 0.41771 0.0
C40 C 0.0418 0.26505 0.43968 0.0
C41 C 0.06741 0.25134 0.42836 0.0
C42 C 0.05144 0.25657 0.44993 0.0
N43 N 0.06393 0.24994 0.4441 0.0
C44 C 0.06012 0.28977 0.37877 0.0
C45 C 0.04995 0.26326 0.36488 0.0
C46 C 0.07123 0.29339 0.36729 0.0
N47 N 0.04932 0.27523 0.37687 0.0
C48 C 0.06098 0.26622 0.35329 0.0
C49 C 0.07138 0.2817 0.35404 0.0
H50 H 0.05944 0.29896 0.38861 0.0
H51 H 0.0415 0.25164 0.36396 0.0
C52 C 0.00451 0.235 0.43161 0.0
N53 N 0.01528 0.23741 0.42023 0.0
C54 C 0.00389 0.22114 0.44077 0.0
C55 C 0.0254 0.21248 0.42622 0.0
C56 C 0.02559 0.22651 0.41733 0.0
C57 C 0.01441 0.20965 0.4381 0.0
H58 H 0.99631 0.24376 0.43345 0.0
H59 H 0.03391 0.22873 0.40808 0.0
O60 O 0.01616 0.28926 0.38566 0.0
O61 O 0.99651 0.26715 0.40833 0.0
O62 O 0.01651 0.25095 0.38415 0.0
O63 O 0.0356 0.27451 0.41311 0.0
H64 H 0.03213 0.31944 0.39612 0.0
H65 H 0.01885 0.28416 0.35394 0.0
H66 H 0.04692 0.33922 0.3787 0.0
H67 H 0.03397 0.30454 0.33729 0.0
H68 H 0.98276 0.28944 0.456 0.0
H69 H 0.97089 0.27952 0.39586 0.0
H70 H 0.00039 0.27385 0.44054 0.0
H71 H 0.95381 0.29504 0.41211 0.0
H72 H 0.96944 0.28751 0.33922 0.0
H73 H 0.94965 0.23866 0.35318 0.0
H74 H 0.03587 0.32682 0.45658 0.0
H75 H 0.99752 0.33831 0.42185 0.0
H76 H -0.00021 0.22184 0.39021 0.0
H77 H 0.01338 0.2536 0.35206 0.0
H78 H 0.98417 0.20085 0.36898 0.0
H79 H 0.99745 0.23206 0.33151 0.0
H80 H 0.06073 0.26072 0.40516 0.0
H81 H 0.03174 0.27017 0.44425 0.0
H82 H 0.07743 0.24592 0.4241 0.0
H83 H 0.04895 0.2552 0.46249 0.0
H84 H 0.07905 0.30546 0.3684 0.0
H85 H 0.06112 0.2566 0.34366 0.0
H86 H 0.99505 0.21927 0.44961 0.0
H87 H 0.0338 0.204 0.42388 0.0
Li88 Li 0.9972 0.80562 0.62113 0.0
Li89 Li 0.01154 0.79219 0.64322 0.0
Li90 Li 0.99556 0.77566 0.61956 0.0
Li91 Li 0.98213 0.78816 0.64062 0.0
C92 C 0.0255 0.78588 0.61061 0.0
N93 N 0.04497 0.77 0.59177 0.0
C94 C 0.03825 0.77881 0.61814 0.0
C95 C 0.02278 0.78505 0.59352 0.0
C96 C 0.04793 0.7708 0.60839 0.0
C97 C 0.03272 0.7769 0.5842 0.0
C98 C 0.00562 0.82106 0.65717 0.0
C99 C 0.01565 0.82917 0.68553 0.0
N100 N 0.02271 0.84427 0.6812 0.0
C101 C 0.0129 0.83669 0.65302 0.0
C102 C 0.00691 0.81729 0.67358 0.0
C103 C 0.02152 0.84824 0.66534 0.0
C104 C 0.98415 0.83187 0.60757 0.0
N105 N 0.99787 0.82489 0.60977 0.0
C106 C 0.01311 0.84638 0.59638 0.0
C107 C 0.01218 0.83173 0.60438 0.0
C108 C 0.99913 0.85391 0.59388 0.0
C109 C 0.98449 0.84645 0.59952 0.0
H110 H 0.973 0.82611 0.61214 0.0
H111 H 0.02288 0.82585 0.60641 0.0
C112 C 0.03165 0.78156 0.66817 0.0
N113 N 0.03018 0.79445 0.65876 0.0
C114 C 0.04421 0.78311 0.68093 0.0
C115 C 0.05377 0.81109 0.67384 0.0
C116 C 0.04118 0.80886 0.661 0.0
C117 C 0.05532 0.79815 0.68413 0.0
H118 H 0.02299 0.77008 0.66583 0.0
H119 H 0.03987 0.8188 0.65311 0.0
C120 C 0.96771 0.78602 0.6019 0.0
N121 N 0.9484 0.78149 0.57215 0.0
C122 C 0.95148 0.77787 0.60085 0.0
C123 C 0.97411 0.79195 0.58785 0.0
C124 C 0.94192 0.77567 0.58568 0.0
C125 C 0.96415 0.78952 0.57292 0.0
C126 C 0.98812 0.75978 0.65191 0.0
C127 C 0.97913 0.74484 0.64435 0.0
C128 C 0.98835 0.76321 0.66882 0.0
C129 C 0.97042 0.73362 0.65384 0.0
C130 C 0.97944 0.7517 0.67786 0.0
N131 N 0.97073 0.73726 0.67025 0.0
C132 C 0.00649 0.74646 0.61102 0.0
C133 C 0.98487 0.7512 0.59185 0.0
C134 C 0.00767 0.7317 0.60213 0.0
N135 N 0.99534 0.75596 0.60572 0.0
C136 C 0.98547 0.7364 0.58269 0.0
C137 C 0.99703 0.72651 0.5878 0.0
H138 H 0.01441 0.75033 0.62228 0.0
H139 H 0.97595 0.75869 0.58788 0.0
C140 C 0.96409 0.7989 0.66449 0.0
N141 N 0.96405 0.78622 0.65302 0.0
C142 C 0.95259 0.79758 0.67571 0.0
C143 C 0.94051 0.77048 0.66252 0.0
C144 C 0.9523 0.77238 0.65148 0.0
C145 C 0.94077 0.78311 0.67499 0.0
H146 H 0.9733 0.80993 0.66519 0.0
H147 H 0.95238 0.76262 0.642 0.0
O148 O 0.01572 0.79353 0.61995 0.0
O149 O 0.99717 0.80956 0.64526 0.0
O150 O 0.97713 0.78837 0.6167 0.0
O151 O 0.99663 0.77099 0.64282 0.0
H152 H 0.04054 0.77935 0.63136 0.0
H153 H 0.01304 0.79054 0.5875 0.0
H154 H 0.05777 0.76518 0.61404 0.0
H155 H 0.03068 0.77607 0.57095 0.0
H156 H 0.01684 0.82637 0.69825 0.0
H157 H 0.01197 0.83986 0.64042 0.0
H158 H 0.00137 0.80525 0.67702 0.0
H159 H 0.02727 0.86036 0.66229 0.0
H160 H 0.02457 0.85168 0.59205 0.0
H161 H 0.9735 0.85198 0.59796 0.0
H162 H 0.04524 0.77257 0.68813 0.0
H163 H 0.06199 0.82292 0.67582 0.0
H164 H 0.94633 0.77327 0.61164 0.0
H165 H 0.98663 0.79825 0.58842 0.0
H166 H 0.92935 0.76934 0.58467 0.0
H167 H 0.96895 0.79399 0.56194 0.0
H168 H 0.97874 0.742 0.63128 0.0
H169 H 0.9952 0.77473 0.67486 0.0
H170 H 0.96336 0.72204 0.64814 0.0
H171 H 0.97941 0.75425 0.69093 0.0
H172 H 0.01657 0.72425 0.60659 0.0
H173 H 0.97707 0.73278 0.57167 0.0
H174 H 0.95327 0.80759 0.68515 0.0
H175 H 0.9314 0.75926 0.66139 0.0
Li176 Li 0.50635 0.76924 0.88789 0.0
Li177 Li 0.52278 0.78559 0.91119 0.0
Li178 Li 0.53505 0.77075 0.89 0.0
Li179 Li 0.5187 0.75366 0.90831 0.0
C180 C 0.52183 0.80224 0.87835 0.0
N181 N 0.51959 0.82854 0.85901 0.0
C182 C 0.51498 0.81581 0.88394 0.0
C183 C 0.52762 0.80214 0.86292 0.0
C184 C 0.51393 0.82896 0.87398 0.0
C185 C 0.52634 0.81552 0.85333 0.0
C186 C 0.48704 0.77166 0.91297 0.0
C187 C 0.45996 0.76318 0.92095 0.0
N188 N 0.45554 0.77742 0.9156 0.0
C189 C 0.48225 0.78626 0.90768 0.0
C190 C 0.47585 0.76006 0.91977 0.0
C191 C 0.46627 0.78893 0.90906 0.0
C192 C 0.47381 0.75593 0.87487 0.0
N193 N 0.48711 0.76734 0.87263 0.0
C194 C 0.47375 0.77407 0.84748 0.0
C195 C 0.48732 0.7762 0.85916 0.0
C196 C 0.45973 0.76266 0.84962 0.0
C197 C 0.45987 0.75345 0.86352 0.0
H198 H 0.47413 0.74856 0.88535 0.0
H199 H 0.49813 0.78459 0.85714 0.0
C200 C 0.53511 0.81867 0.92309 0.0
N201 N 0.52491 0.80462 0.92593 0.0
C202 C 0.53588 0.8333 0.93302 0.0
C203 C 0.516 0.81855 0.94891 0.0
C204 C 0.51561 0.8042 0.93864 0.0
C205 C 0.52607 0.83342 0.94602 0.0
H206 H 0.54228 0.81861 0.91279 0.0
H207 H 0.50767 0.79279 0.94063 0.0
C208 C 0.51101 0.74292 0.8699 0.0
N209 N 0.4948 0.72814 0.84041 0.0
C210 C 0.49969 0.72821 0.86955 0.0
C211 C 0.51419 0.75004 0.85525 0.0
C212 C 0.49159 0.72095 0.85451 0.0
C213 C 0.50584 0.74239 0.84047 0.0
C214 C 0.55603 0.77185 0.91537 0.0
C215 C 0.56311 0.75794 0.91136 0.0
C216 C 0.56603 0.78732 0.91944 0.0
C217 C 0.5801 0.75976 0.91144 0.0
C218 C 0.58298 0.78863 0.9194 0.0
N219 N 0.5896 0.77494 0.91542 0.0
C220 C 0.56152 0.78675 0.87469 0.0
C221 C 0.55547 0.75735 0.8699 0.0
C222 C 0.57224 0.78775 0.86262 0.0
N223 N 0.55294 0.77178 0.87753 0.0
C224 C 0.56627 0.75772 0.85796 0.0
C225 C 0.57432 0.77312 0.85371 0.0
H226 H 0.55925 0.798 0.88106 0.0
H227 H 0.54856 0.74561 0.87259 0.0
C228 C 0.50105 0.72416 0.91744 0.0
N229 N 0.51595 0.73417 0.91959 0.0
C230 C 0.49846 0.70952 0.92543 0.0
C231 C 0.52671 0.71564 0.93744 0.0
C232 C 0.52867 0.73031 0.92943 0.0
C233 C 0.51144 0.7051 0.93548 0.0
H234 H 0.49121 0.72756 0.90946 0.0
H235 H 0.54032 0.73862 0.93108 0.0
O236 O 0.52325 0.78937 0.88808 0.0
O237 O 0.50255 0.76867 0.91141 0.0
O238 O 0.51876 0.75047 0.88453 0.0
O239 O 0.53938 0.77042 0.91487 0.0
H240 H 0.5106 0.8163 0.89587 0.0
H241 H 0.53272 0.7917 0.85822 0.0
H242 H 0.50866 0.83951 0.87817 0.0
H243 H 0.53068 0.81553 0.84134 0.0
H244 H 0.45116 0.75428 0.92612 0.0
H245 H 0.49074 0.7953 0.90237 0.0
H246 H 0.47937 0.74877 0.92409 0.0
H247 H 0.46238 0.80013 0.90489 0.0
H248 H 0.47434 0.78111 0.83674 0.0
H249 H 0.4493 0.74454 0.86568 0.0
H250 H 0.54364 0.84453 0.93021 0.0
H251 H 0.50841 0.81803 0.95891 0.0
H252 H 0.49711 0.72253 0.88076 0.0
H253 H 0.52282 0.76148 0.8553 0.0
H254 H 0.48273 0.70961 0.85406 0.0
H255 H 0.5081 0.74783 0.82905 0.0
H256 H 0.55552 0.74592 0.90789 0.0
H257 H 0.56075 0.79822 0.92254 0.0
H258 H 0.58573 0.74912 0.90825 0.0
H259 H 0.59086 0.80054 0.92249 0.0
H260 H 0.57813 0.7999 0.85977 0.0
H261 H 0.56791 0.74609 0.85183 0.0
H262 H 0.48655 0.70161 0.92359 0.0
H263 H 0.53693 0.71267 0.94526 0.0
Li264 Li 0.50325 0.30502 0.11909 0.0
Li265 Li 0.51907 0.29412 0.14121 0.0
Li266 Li 0.50435 0.27612 0.11775 0.0
Li267 Li 0.48963 0.28795 0.13869 0.0
C268 C 0.5335 0.2876 0.10911 0.0
N269 N 0.55403 0.27182 0.09154 0.0
C270 C 0.54756 0.28313 0.11712 0.0
C271 C 0.52994 0.28416 0.09215 0.0
C272 C 0.55778 0.27514 0.10801 0.0
C273 C 0.54045 0.27613 0.0835 0.0
C274 C 0.51073 0.32146 0.15518 0.0
C275 C 0.51883 0.3295 0.18392 0.0
N276 N 0.52646 0.34455 0.18001 0.0
C277 C 0.51864 0.33702 0.15145 0.0
C278 C 0.51078 0.31768 0.17156 0.0
C279 C 0.52652 0.34852 0.16418 0.0
C280 C 0.49365 0.33556 0.11292 0.0
N281 N 0.5019 0.32381 0.10704 0.0
C282 C 0.50842 0.33945 0.08427 0.0
C283 C 0.50917 0.32542 0.09299 0.0
C284 C 0.50037 0.35198 0.09031 0.0
C285 C 0.49286 0.34995 0.10477 0.0
H286 H 0.48789 0.33384 0.12408 0.0
H287 H 0.51564 0.31586 0.08863 0.0
C288 C 0.53898 0.28668 0.16803 0.0
N289 N 0.53751 0.29836 0.15716 0.0
C290 C 0.55074 0.29 0.18155 0.0
C291 C 0.55986 0.31708 0.17204 0.0
C292 C 0.54795 0.31314 0.15858 0.0
C293 C 0.56114 0.30551 0.1839 0.0
H294 H 0.53086 0.27483 0.16632 0.0
H295 H 0.54668 0.32208 0.14956 0.0
C296 C 0.47416 0.29358 0.10466 0.0
N297 N 0.45423 0.30994 0.08489 0.0
C298 C 0.46199 0.30102 0.11123 0.0
C299 C 0.47616 0.29439 0.08802 0.0
C300 C 0.45203 0.30923 0.10103 0.0
C301 C 0.46598 0.30275 0.07823 0.0
C302 C 0.49824 0.26023 0.15048 0.0
C303 C 0.49137 0.24441 0.14317 0.0
C304 C 0.49748 0.26381 0.16723 0.0
C305 C 0.48378 0.23247 0.15271 0.0
C306 C 0.48977 0.25154 0.17634 0.0
N307 N 0.48314 0.23625 0.16896 0.0
C308 C 0.51609 0.24715 0.10732 0.0
C309 C 0.49195 0.2519 0.0918 0.0
C310 C 0.51575 0.23225 0.09795 0.0
N311 N 0.50432 0.25661 0.10406 0.0
C312 C 0.49106 0.23703 0.0822 0.0
C313 C 0.50302 0.22697 0.0853 0.0
H314 H 0.52555 0.25104 0.11742 0.0
H315 H 0.4826 0.25952 0.08969 0.0
C316 C 0.46902 0.29733 0.16108 0.0
N317 N 0.47143 0.28452 0.15081 0.0
C318 C 0.45645 0.29513 0.17114 0.0
C319 C 0.44879 0.26665 0.15953 0.0
C320 C 0.46137 0.26952 0.14949 0.0
C321 C 0.44627 0.27954 0.17063 0.0
H322 H 0.47682 0.30931 0.16143 0.0
H323 H 0.4633 0.2597 0.14086 0.0
O324 O 0.52327 0.2953 0.11784 0.0
O325 O 0.50307 0.30996 0.14288 0.0
O326 O 0.48431 0.28587 0.11453 0.0
O327 O 0.5057 0.27211 0.14133 0.0
H328 H 0.55051 0.2857 0.13023 0.0
H329 H 0.519 0.28735 0.08579 0.0
H330 H 0.56867 0.27155 0.11405 0.0
H331 H 0.53776 0.27325 0.0704 0.0
H332 H 0.51904 0.32669 0.19663 0.0
H333 H 0.51895 0.34011 0.13887 0.0
H334 H 0.5048 0.30569 0.17468 0.0
H335 H 0.53275 0.36057 0.16146 0.0
H336 H 0.51442 0.34073 0.07318 0.0
H337 H 0.48648 0.35937 0.10968 0.0
H338 H 0.55171 0.28047 0.19004 0.0
H339 H 0.56771 0.32914 0.17331 0.0
H340 H 0.46033 0.30059 0.1241 0.0
H341 H 0.48566 0.28888 0.08278 0.0
H342 H 0.4426 0.3151 0.10596 0.0
H343 H 0.46746 0.30359 0.06536 0.0
H344 H 0.49174 0.24139 0.13024 0.0
H345 H 0.50266 0.27598 0.1731 0.0
H346 H 0.47837 0.2202 0.1472 0.0
H347 H 0.48903 0.25419 0.18927 0.0
H348 H 0.52505 0.2247 0.1009 0.0
H349 H 0.48109 0.2334 0.07252 0.0
H350 H 0.45462 0.3056 0.17906 0.0
H351 H 0.44126 0.25443 0.1587 0.0
Li352 Li 0.99252 0.78405 0.13818 0.0
Li353 Li 0.00614 0.77204 0.1613 0.0
Li354 Li 0.98927 0.75422 0.13814 0.0
Li355 Li 0.97578 0.76946 0.15885 0.0
C356 C 0.02044 0.77759 0.12788 0.0
N357 N 0.04149 0.79349 0.10754 0.0
C358 C 0.03583 0.78627 0.13439 0.0
C359 C 0.01584 0.77683 0.111 0.0
C360 C 0.04627 0.79426 0.12391 0.0
C361 C 0.02663 0.785 0.10093 0.0
C362 C 0.99626 0.80108 0.17551 0.0
C363 C 0.99665 0.80727 0.20461 0.0
N364 N 0.00336 0.82334 0.20293 0.0
C365 C 0.00306 0.81767 0.17404 0.0
C366 C 0.99295 0.79584 0.19088 0.0
C367 C 0.0066 0.82873 0.18806 0.0
C368 C 0.98136 0.80314 0.11326 0.0
N369 N 0.99408 0.80228 0.12469 0.0
C370 C 0.00947 0.82698 0.11613 0.0
C371 C 0.00787 0.81399 0.12645 0.0
C372 C 0.99657 0.82821 0.1041 0.0
C373 C 0.98231 0.81608 0.10285 0.0
H374 H 0.97043 0.7938 0.11227 0.0
H375 H 0.01774 0.81312 0.13577 0.0
C376 C 0.0315 0.76005 0.18001 0.0
N377 N 0.02587 0.77418 0.17608 0.0
C378 C 0.04651 0.76087 0.18945 0.0
C379 C 0.05006 0.79086 0.19035 0.0
C380 C 0.03478 0.78944 0.18111 0.0
C381 C 0.05624 0.77642 0.19451 0.0
H382 H 0.02463 0.74806 0.1754 0.0
H383 H 0.03042 0.80053 0.17736 0.0
C384 C 0.96058 0.75803 0.12298 0.0
N385 N 0.93865 0.73735 0.10023 0.0
C386 C 0.94625 0.7491 0.12777 0.0
C387 C 0.9637 0.75657 0.10659 0.0
C388 C 0.93532 0.73869 0.11609 0.0
C389 C 0.95248 0.746 0.09528 0.0
C390 C 0.99157 0.74031 0.17289 0.0
C391 C 0.9963 0.72537 0.1676 0.0
C392 C 0.9896 0.74343 0.18942 0.0
C393 C 0.99917 0.71388 0.17901 0.0
C394 C 0.99259 0.73162 0.20044 0.0
N395 N 0.99728 0.71722 0.19506 0.0
C396 C 0.0013 0.73274 0.11659 0.0
C397 C 0.97514 0.72137 0.1238 0.0
C398 C 0.00174 0.71841 0.10667 0.0
N399 N 0.9881 0.73405 0.12477 0.0
C400 C 0.97503 0.70676 0.11393 0.0
C401 C 0.98847 0.70518 0.10516 0.0
H402 H 0.01167 0.74273 0.11794 0.0
H403 H 0.96495 0.72255 0.13075 0.0
C404 C 0.95125 0.78385 0.17256 0.0
N405 N 0.95719 0.76939 0.17059 0.0
C406 C 0.93743 0.7844 0.18083 0.0
C407 C 0.93611 0.75515 0.18492 0.0
C408 C 0.94996 0.75517 0.17655 0.0
C409 C 0.92962 0.76991 0.18711 0.0
H410 H 0.95726 0.79497 0.16768 0.0
H411 H 0.95486 0.7438 0.17463 0.0
O412 O 0.00998 0.76982 0.13798 0.0
O413 O 0.99269 0.79012 0.16189 0.0
O414 O 0.9715 0.76817 0.13427 0.0
O415 O 0.98882 0.75174 0.16188 0.0
H416 H 0.03965 0.78689 0.14739 0.0
H417 H 0.00402 0.7701 0.10575 0.0
H418 H 0.05819 0.8011 0.1288 0.0
H419 H 0.02317 0.78461 0.08786 0.0
H420 H 0.99416 0.80338 0.21659 0.0
H421 H 0.0056 0.82195 0.1622 0.0
H422 H 0.98751 0.78311 0.19218 0.0
H423 H 0.01192 0.8416 0.18712 0.0
H424 H 0.0208 0.83583 0.11748 0.0
H425 H 0.97188 0.81666 0.09406 0.0
H426 H 0.05051 0.74935 0.19249 0.0
H427 H 0.05718 0.80314 0.19361 0.0
H428 H 0.94362 0.75013 0.14039 0.0
H429 H 0.97469 0.76345 0.10267 0.0
H430 H 0.9242 0.73165 0.11963 0.0
H431 H 0.95478 0.74467 0.08258 0.0
H432 H 0.99793 0.72275 0.15487 0.0
H433 H 0.98578 0.75481 0.19371 0.0
H434 H 0.00292 0.70231 0.17511 0.0
H435 H 0.99116 0.7339 0.21329 0.0
H436 H 0.01256 0.7176 0.10054 0.0
H437 H 0.96454 0.69686 0.11314 0.0
H438 H 0.93301 0.7961 0.18242 0.0
H439 H 0.93038 0.74365 0.18936 0.0
Li440 Li 0.52275 0.80441 0.38672 0.0
Li441 Li 0.50771 0.78478 0.36382 0.0
Li442 Li 0.52299 0.77451 0.3879 0.0
Li443 Li 0.53787 0.79003 0.36699 0.0
C444 C 0.49408 0.7899 0.39865 0.0
N445 N 0.47433 0.79842 0.42182 0.0
C446 C 0.4789 0.7943 0.39373 0.0
C447 C 0.49913 0.78963 0.41533 0.0
C448 C 0.46912 0.79863 0.40564 0.0
C449 C 0.489 0.79403 0.42686 0.0
C450 C 0.5269 0.81593 0.35064 0.0
C451 C 0.52885 0.81987 0.32203 0.0
N452 N 0.53616 0.83594 0.32609 0.0
C453 C 0.5343 0.83252 0.35455 0.0
C454 C 0.52403 0.80956 0.33427 0.0
C455 C 0.53894 0.84242 0.34195 0.0
C456 C 0.53483 0.83249 0.40941 0.0
N457 N 0.52187 0.82463 0.39891 0.0
C458 C 0.50617 0.84568 0.4054 0.0
C459 C 0.50783 0.83104 0.39656 0.0
C460 C 0.51926 0.85407 0.41651 0.0
C461 C 0.53379 0.84731 0.41837 0.0
H462 H 0.546 0.82731 0.41075 0.0
H463 H 0.49788 0.82473 0.38782 0.0
C464 C 0.47903 0.76636 0.34431 0.0
N465 N 0.48803 0.7816 0.3492 0.0
C466 C 0.46396 0.765 0.33474 0.0
C467 C 0.46759 0.79502 0.33564 0.0
C468 C 0.48265 0.79578 0.34502 0.0
C469 C 0.45792 0.77947 0.33044 0.0
H470 H 0.48329 0.75525 0.34813 0.0
H471 H 0.48984 0.80776 0.34943 0.0
C472 C 0.55335 0.79165 0.40387 0.0
N473 N 0.57632 0.78749 0.42922 0.0
C474 C 0.56823 0.78707 0.40048 0.0
C475 C 0.55022 0.79428 0.42014 0.0
C476 C 0.57967 0.785 0.41347 0.0
C477 C 0.56197 0.79206 0.43278 0.0
C478 C 0.51765 0.75551 0.35238 0.0
C479 C 0.51029 0.74 0.35675 0.0
C480 C 0.51945 0.75791 0.33592 0.0
C481 C 0.50463 0.72717 0.3445 0.0
C482 C 0.51362 0.74478 0.32404 0.0
N483 N 0.50638 0.72981 0.32853 0.0
C484 C 0.50705 0.74865 0.40429 0.0
C485 C 0.53595 0.75164 0.40869 0.0
C486 C 0.50533 0.73521 0.41408 0.0
N487 N 0.52218 0.75659 0.40182 0.0
C488 C 0.53482 0.7385 0.41886 0.0
C489 C 0.51933 0.72995 0.42163 0.0
H490 H 0.49628 0.75263 0.39843 0.0
H491 H 0.54786 0.75778 0.40624 0.0
C492 C 0.56618 0.80643 0.35352 0.0
N493 N 0.55699 0.79152 0.35574 0.0
C494 C 0.58034 0.80704 0.34553 0.0
C495 C 0.57556 0.77695 0.34269 0.0
C496 C 0.56144 0.77693 0.35057 0.0
C497 C 0.58523 0.79215 0.34008 0.0
H498 H 0.56266 0.81785 0.35815 0.0
H499 H 0.55409 0.76524 0.35274 0.0
O500 O 0.50387 0.78577 0.38717 0.0
O501 O 0.52229 0.80608 0.36281 0.0
O502 O 0.54201 0.79369 0.39129 0.0
O503 O 0.52327 0.76819 0.3642 0.0
H504 H 0.47478 0.79448 0.38084 0.0
H505 H 0.51073 0.78601 0.41932 0.0
H506 H 0.45738 0.80216 0.40201 0.0
H507 H 0.49277 0.79393 0.43982 0.0
H508 H 0.52675 0.8151 0.3093 0.0
H509 H 0.53651 0.83763 0.36719 0.0
H510 H 0.51807 0.79683 0.33106 0.0
H511 H 0.54476 0.85526 0.34478 0.0
H512 H 0.49465 0.85022 0.40365 0.0
H513 H 0.54433 0.85349 0.42651 0.0
H514 H 0.45706 0.75273 0.33092 0.0
H515 H 0.46337 0.80654 0.33302 0.0
H516 H 0.57087 0.78506 0.38795 0.0
H517 H 0.53886 0.79801 0.42297 0.0
H518 H 0.59121 0.78138 0.41104 0.0
H519 H 0.55968 0.79399 0.44543 0.0
H520 H 0.50891 0.73791 0.36945 0.0
H521 H 0.52535 0.76977 0.33238 0.0
H522 H 0.49884 0.71512 0.34768 0.0
H523 H 0.51488 0.74647 0.31124 0.0
H524 H 0.49312 0.72885 0.41542 0.0
H525 H 0.54602 0.73517 0.42451 0.0
H526 H 0.58758 0.81901 0.34397 0.0
H527 H 0.57882 0.76518 0.33859 0.0
Li528 Li 0.49369 0.2838 0.6392 0.0
Li529 Li 0.50744 0.27178 0.66222 0.0
Li530 Li 0.49021 0.254 0.63947 0.0
Li531 Li 0.47713 0.26954 0.6602 0.0
C532 C 0.52167 0.2775 0.62911 0.0
N533 N 0.54318 0.29414 0.60962 0.0
C534 C 0.53728 0.28533 0.63591 0.0
C535 C 0.51706 0.27802 0.61234 0.0
C536 C 0.54796 0.2937 0.62587 0.0
C537 C 0.52809 0.28653 0.60271 0.0
C538 C 0.49751 0.30125 0.67633 0.0
C539 C 0.49669 0.30829 0.70512 0.0
N540 N 0.50409 0.3241 0.70332 0.0
C541 C 0.50496 0.31762 0.67473 0.0
C542 C 0.49321 0.29657 0.6916 0.0
C543 C 0.50825 0.32897 0.68854 0.0
C544 C 0.48228 0.30315 0.6146 0.0
N545 N 0.49514 0.30213 0.6258 0.0
C546 C 0.51042 0.32695 0.61734 0.0
C547 C 0.50897 0.3138 0.62749 0.0
C548 C 0.49736 0.32836 0.60556 0.0
C549 C 0.4831 0.31625 0.60436 0.0
H550 H 0.47134 0.29383 0.61366 0.0
H551 H 0.51897 0.31277 0.63658 0.0
C552 C 0.53354 0.25964 0.67941 0.0
N553 N 0.52738 0.27379 0.67672 0.0
C554 C 0.54858 0.26029 0.68874 0.0
C555 C 0.55127 0.29023 0.69181 0.0
C556 C 0.53593 0.28895 0.68274 0.0
C557 C 0.55791 0.27576 0.69487 0.0
H558 H 0.52704 0.24781 0.67391 0.0
H559 H 0.53122 0.30012 0.67991 0.0
C560 C 0.46188 0.25729 0.62471 0.0
N561 N 0.44065 0.23498 0.60277 0.0
C562 C 0.44841 0.24735 0.63008 0.0
C563 C 0.4645 0.25597 0.60817 0.0
C564 C 0.43782 0.23614 0.61879 0.0
C565 C 0.45365 0.24458 0.59728 0.0
C566 C 0.49399 0.24106 0.6748 0.0
C567 C 0.49837 0.22582 0.66991 0.0
C568 C 0.49374 0.24541 0.69148 0.0
C569 C 0.5025 0.21524 0.68179 0.0
C570 C 0.49797 0.23449 0.70299 0.0
N571 N 0.50223 0.21976 0.69795 0.0
C572 C 0.49928 0.23316 0.61498 0.0
C573 C 0.47708 0.22006 0.62814 0.0
C574 C 0.49923 0.2186 0.60523 0.0
N575 N 0.48835 0.23366 0.62616 0.0
C576 C 0.47669 0.2051 0.61872 0.0
C577 C 0.48793 0.20427 0.60711 0.0
H578 H 0.50831 0.24397 0.61384 0.0
H579 H 0.46862 0.22075 0.63726 0.0
C580 C 0.45063 0.28325 0.67032 0.0
N581 N 0.45848 0.26998 0.67181 0.0
C582 C 0.43667 0.28417 0.67827 0.0
C583 C 0.43923 0.25781 0.68928 0.0
C584 C 0.45307 0.25732 0.68099 0.0
C585 C 0.43079 0.27134 0.68792 0.0
H586 H 0.45522 0.29311 0.6629 0.0
H587 H 0.4594 0.24679 0.68177 0.0
O588 O 0.511 0.26933 0.63879 0.0
O589 O 0.49417 0.29001 0.66291 0.0
O590 O 0.47257 0.26809 0.63563 0.0
O591 O 0.48996 0.25159 0.66331 0.0
H592 H 0.54113 0.28496 0.64881 0.0
H593 H 0.50501 0.27211 0.60687 0.0
H594 H 0.56006 0.29985 0.63099 0.0
H595 H 0.52463 0.28714 0.58976 0.0
H596 H 0.49345 0.30482 0.71702 0.0
H597 H 0.50823 0.3215 0.66296 0.0
H598 H 0.48714 0.28409 0.69299 0.0
H599 H 0.51409 0.34165 0.68749 0.0
H600 H 0.52176 0.33578 0.61862 0.0
H601 H 0.47257 0.31695 0.59576 0.0
H602 H 0.55289 0.24871 0.69088 0.0
H603 H 0.55806 0.30249 0.69585 0.0
H604 H 0.44624 0.2482 0.64285 0.0
H605 H 0.4749 0.26355 0.60384 0.0
H606 H 0.42738 0.22831 0.62278 0.0
H607 H 0.45558 0.24335 0.58447 0.0
H608 H 0.49881 0.22229 0.65709 0.0
H609 H 0.49035 0.25707 0.69552 0.0
H610 H 0.50599 0.20345 0.67818 0.0
H611 H 0.49786 0.23773 0.71593 0.0
H612 H 0.50832 0.21842 0.59666 0.0
H613 H 0.46777 0.19432 0.62053 0.0
H614 H 0.43064 0.2949 0.67702 0.0
H615 H 0.43499 0.24755 0.69643 0.0
Li616 Li 0.02393 0.30338 0.88623 0.0
Li617 Li 0.00871 0.28284 0.86459 0.0
Li618 Li 0.02262 0.27319 0.88832 0.0
Li619 Li 0.03855 0.28631 0.86673 0.0
C620 C 0.99491 0.28045 0.89903 0.0
N621 N 0.9755 0.26795 0.92236 0.0
C622 C 0.98057 0.269 0.89429 0.0
C623 C 0.99932 0.28565 0.9156 0.0
C624 C 0.97093 0.2628 0.90628 0.0
C625 C 0.98936 0.27916 0.92722 0.0
C626 C 0.01659 0.30998 0.84927 0.0
C627 C 0.00884 0.31063 0.82031 0.0
N628 N 0.99897 0.32187 0.82367 0.0
C629 C 0.00649 0.32164 0.85244 0.0
C630 C 0.01789 0.30451 0.83309 0.0
C631 C 0.99764 0.32747 0.83933 0.0
C632 C 0.0379 0.33509 0.90281 0.0
N633 N 0.02393 0.32407 0.89792 0.0
C634 C 0.00772 0.3422 0.90982 0.0
C635 C 0.00903 0.32734 0.90119 0.0
C636 C 0.0219 0.35385 0.91513 0.0
C637 C 0.03718 0.35014 0.91158 0.0
H638 H 0.04959 0.33216 0.89994 0.0
H639 H 0.99813 0.31835 0.89708 0.0
C640 C 0.98491 0.27073 0.8358 0.0
N641 N 0.98848 0.28014 0.85036 0.0
C642 C 0.96973 0.26997 0.82656 0.0
C643 C 0.9624 0.289 0.84713 0.0
C644 C 0.97756 0.28919 0.85606 0.0
C645 C 0.95829 0.27925 0.8322 0.0
H646 H 0.99378 0.26394 0.8312 0.0
H647 H 0.98072 0.29672 0.86756 0.0
C648 C 0.05387 0.29331 0.90431 0.0
N649 N 0.07743 0.29777 0.93103 0.0
C650 C 0.06898 0.28826 0.90297 0.0
C651 C 0.05076 0.30069 0.91922 0.0
C652 C 0.08073 0.2906 0.91663 0.0
C653 C 0.06282 0.30282 0.93259 0.0
C654 C 0.01853 0.25433 0.8512 0.0
C655 C 0.00759 0.23946 0.85159 0.0
C656 C 0.02544 0.25801 0.83672 0.0
C657 C 0.00366 0.22857 0.83746 0.0
C658 C 0.02124 0.24677 0.82287 0.0
N659 N 0.01052 0.23241 0.82352 0.0
C660 C 0.00829 0.24341 0.9002 0.0
C661 C 0.03241 0.25636 0.91674 0.0
C662 C 0.00622 0.23036 0.91042 0.0
N663 N 0.02124 0.25606 0.90344 0.0
C664 C 0.03079 0.24359 0.92734 0.0
C665 C 0.01759 0.23029 0.92421 0.0
H666 H -0.00048 0.24347 0.88964 0.0
H667 H 0.04263 0.2664 0.9192 0.0
C668 C 0.0643 0.30046 0.84901 0.0
N669 N 0.05796 0.28666 0.85622 0.0
C670 C 0.07842 0.30065 0.84104 0.0
C671 C 0.07918 0.27244 0.8481 0.0
C672 C 0.06511 0.27283 0.85601 0.0
C673 C 0.086 0.28646 0.84043 0.0
H674 H 0.05831 0.31127 0.84936 0.0
H675 H 0.0598 0.26206 0.86191 0.0
O676 O 0.00459 0.28653 0.88749 0.0
O677 O 0.02494 0.30374 0.86196 0.0
O678 O 0.04227 0.29118 0.89104 0.0
O679 O 0.02273 0.26501 0.86502 0.0
H680 H 0.97702 0.2648 0.88151 0.0
H681 H 0.01034 0.29457 0.91945 0.0
H682 H 0.95984 0.25386 0.90281 0.0
H683 H 0.99266 0.28302 0.94009 0.0
H684 H 0.00964 0.30643 0.80772 0.0
H685 H 0.00535 0.32599 0.86491 0.0
H686 H 0.02572 0.29556 0.83042 0.0
H687 H 0.98968 0.3364 0.8416 0.0
H688 H 0.99573 0.34445 0.91246 0.0
H689 H 0.04838 0.35885 0.91534 0.0
H690 H 0.96706 0.26245 0.815 0.0
H691 H 0.95388 0.29625 0.85197 0.0
H692 H 0.0716 0.28257 0.89151 0.0
H693 H 0.03914 0.30466 0.9205 0.0
H694 H 0.09247 0.28673 0.91578 0.0
H695 H 0.06057 0.30848 0.94421 0.0
H696 H 0.00214 0.23633 0.86263 0.0
H697 H 0.03384 0.26944 0.83608 0.0
H698 H 0.99518 0.21704 0.8376 0.0
H699 H 0.02646 0.2495 0.81159 0.0
H700 H 0.99597 0.22029 0.90734 0.0
H701 H 0.03975 0.2442 0.93793 0.0
H702 H 0.08317 0.31166 0.83514 0.0
H703 H 0.08473 0.26132 0.84811 0.0
Li704 Li 0.40489 0.06276 0.26571 0.0
Li705 Li 0.38135 0.04832 0.2482 0.0
Li706 Li 0.40342 0.0629 0.23548 0.0
Li707 Li 0.38467 0.07847 0.25051 0.0
C708 C 0.4189 0.03877 0.24982 0.0
N709 N 0.44915 0.0288 0.25102 0.0
C710 C 0.41998 0.02184 0.24918 0.0
C711 C 0.4332 0.05063 0.25105 0.0
C712 C 0.43539 0.01705 0.24981 0.0
C713 C 0.44837 0.04534 0.25165 0.0
C714 C 0.37329 0.05649 0.28023 0.0
C715 C 0.35242 0.05666 0.2986 0.0
N716 N 0.35635 0.0425 0.30465 0.0
C717 C 0.37714 0.04195 0.28661 0.0
C718 C 0.36085 0.06393 0.28624 0.0
C719 C 0.36842 0.03506 0.29896 0.0
C720 C 0.42352 0.07664 0.29584 0.0
N721 N 0.41815 0.06236 0.28608 0.0
C722 C 0.42988 0.04637 0.30612 0.0
C723 C 0.4212 0.04741 0.29092 0.0
C724 C 0.43538 0.06084 0.31661 0.0
C725 C 0.43218 0.07616 0.31125 0.0
H726 H 0.42084 0.08835 0.29175 0.0
H727 H 0.41653 0.03616 0.28314 0.0
C728 C 0.3696 0.0155 0.23637 0.0
N729 N 0.36567 0.02821 0.24577 0.0
C730 C 0.3595 -4e-05 0.23453 0.0
C731 C 0.34136 0.01088 0.25198 0.0
C732 C 0.35162 0.02634 0.25315 0.0
C733 C 0.34535 0.99729 0.24276 0.0
H734 H 0.38071 0.01743 0.23039 0.0
H735 H 0.34848 0.03674 0.26019 0.0
C736 C 0.41848 0.09649 0.24792 0.0
N737 N 0.43674 0.12513 0.23871 0.0
C738 C 0.41117 0.10665 0.2374 0.0
C739 C 0.43502 0.10097 0.25389 0.0
C740 C 0.42062 0.12107 0.23286 0.0
C741 C 0.44406 0.11547 0.24904 0.0
C742 C 0.36648 0.05444 0.22077 0.0
C743 C 0.3685 0.04428 0.20707 0.0
C744 C 0.35076 0.05484 0.22526 0.0
C745 C 0.35472 0.03459 0.19812 0.0
C746 C 0.33729 0.04496 0.21599 0.0
N747 N 0.33954 0.03512 0.20273 0.0
C748 C 0.4158 0.04589 0.21016 0.0
C749 C 0.42262 0.07512 0.20954 0.0
C750 C 0.42383 0.04338 0.1963 0.0
N751 N 0.41541 0.06156 0.2166 0.0
C752 C 0.43066 0.07318 0.19554 0.0
C753 C 0.43137 0.05712 0.18868 0.0
H754 H 0.40973 0.03526 0.21574 0.0
H755 H 0.42198 0.08746 0.21455 0.0
C756 C 0.37597 0.10753 0.26571 0.0
N757 N 0.37357 0.09714 0.2518 0.0
C758 C 0.36695 0.12051 0.2672 0.0
C759 C 0.35327 0.11186 0.24001 0.0
C760 C 0.3627 0.09923 0.23896 0.0
C761 C 0.35522 0.1226 0.25433 0.0
H762 H 0.38466 0.10553 0.27576 0.0
H763 H 0.36117 0.09094 0.22796 0.0
O764 O 0.40386 0.04357 0.24922 0.0
O765 O 0.38144 0.06332 0.26796 0.0
O766 O 0.40941 0.08248 0.25276 0.0
O767 O 0.37985 0.06368 0.22994 0.0
H768 H 0.40901 0.01251 0.24823 0.0
H769 H 0.43259 0.06376 0.25151 0.0
H770 H 0.43641 0.00399 0.24935 0.0
H771 H 0.45953 0.05439 0.25259 0.0
H772 H 0.34273 0.06225 0.30336 0.0
H773 H 0.38651 0.03588 0.28184 0.0
H774 H 0.35769 0.07515 0.28134 0.0
H775 H 0.3712 0.02376 0.30397 0.0
H776 H 0.43181 0.03427 0.30984 0.0
H777 H 0.43628 0.08763 0.31891 0.0
H778 H 0.3629 0.99012 0.22683 0.0
H779 H 0.3307 0.00956 0.25867 0.0
H780 H 0.3984 0.10332 0.2326 0.0
H781 H 0.44081 0.09336 0.26223 0.0
H782 H 0.41515 0.129 0.22465 0.0
H783 H 0.4569 0.11907 0.25352 0.0
H784 H 0.38058 0.04381 0.20344 0.0
H785 H 0.349 0.06246 0.23597 0.0
H786 H 0.35611 0.02662 0.18753 0.0
H787 H 0.32507 0.04505 0.21939 0.0
H788 H 0.42417 0.03075 0.19168 0.0
H789 H 0.43598 0.08419 0.18998 0.0
H790 H 0.36875 0.12848 0.27847 0.0
H791 H 0.34452 0.11321 0.22973 0.0
Li792 Li 0.27822 0.17776 0.52139 0.0
Li793 Li 0.28478 0.15246 0.50824 0.0
Li794 Li 0.27549 0.17374 0.49209 0.0
Li795 Li 0.257 0.15592 0.50748 0.0
C796 C 0.30889 0.1862 0.51474 0.0
N797 N 0.33532 0.20767 0.53135 0.0
C798 C 0.32152 0.1799 0.52345 0.0
C799 C 0.30974 0.20344 0.51446 0.0
C800 C 0.33478 0.19095 0.53175 0.0
C801 C 0.32318 0.21408 0.52296 0.0
C802 C 0.26248 0.1469 0.53761 0.0
C803 C 0.2455 0.12238 0.54535 0.0
N804 N 0.24118 0.13161 0.55804 0.0
C805 C 0.25793 0.15614 0.55076 0.0
C806 C 0.2563 0.12987 0.53492 0.0
C807 C 0.24714 0.14818 0.56095 0.0
C808 C 0.27607 0.20725 0.5397 0.0
N809 N 0.28402 0.194 0.53917 0.0
C810 C 0.30187 0.20526 0.56309 0.0
C811 C 0.29647 0.1926 0.55069 0.0
C812 C 0.29397 0.21923 0.56395 0.0
C813 C 0.28081 0.22003 0.55208 0.0
H814 H 0.26601 0.20787 0.53054 0.0
H815 H 0.3024 0.18177 0.55005 0.0
C816 C 0.31221 0.14002 0.49981 0.0
N817 N 0.29991 0.13771 0.50958 0.0
C818 C 0.32515 0.13121 0.50188 0.0
C819 C 0.31203 0.11719 0.52346 0.0
C820 C 0.2994 0.12641 0.52107 0.0
C821 C 0.3253 0.11992 0.51409 0.0
H822 H 0.31232 0.14928 0.49093 0.0
H823 H 0.28958 0.12506 0.52882 0.0
C824 C 0.2513 0.19033 0.49683 0.0
N825 N 0.23571 0.21031 0.47686 0.0
C826 C 0.23578 0.18424 0.48858 0.0
C827 C 0.25885 0.20661 0.495 0.0
C828 C 0.22811 0.19454 0.47854 0.0
C829 C 0.25079 0.2165 0.48481 0.0
C830 C 0.27352 0.13712 0.47976 0.0
C831 C 0.28242 0.14105 0.46654 0.0
C832 C 0.2706 0.12068 0.48408 0.0
C833 C 0.28836 0.12844 0.4579 0.0
C834 C 0.27677 0.10844 0.47515 0.0
N835 N 0.28545 0.11254 0.46236 0.0
C836 C 0.29295 0.19421 0.47158 0.0
C837 C 0.26555 0.18357 0.46067 0.0
C838 C 0.29544 0.20339 0.45806 0.0
N839 N 0.27811 0.18487 0.4728 0.0
C840 C 0.26749 0.19254 0.44687 0.0
C841 C 0.28257 0.20275 0.44558 0.0
H842 H 0.30291 0.19454 0.48109 0.0
H843 H 0.25398 0.17575 0.46183 0.0
C844 C 0.22593 0.15066 0.5189 0.0
N845 N 0.23526 0.14487 0.50792 0.0
C846 C 0.21015 0.14223 0.52007 0.0
C847 C 0.21372 0.12243 0.49816 0.0
C848 C 0.22947 0.13117 0.49752 0.0
C849 C 0.20388 0.12785 0.50966 0.0
H850 H 0.23086 0.1617 0.52692 0.0
H851 H 0.23709 0.12701 0.48874 0.0
O852 O 0.29571 0.17559 0.50664 0.0
O853 O 0.27289 0.15451 0.5274 0.0
O854 O 0.25906 0.1804 0.50665 0.0
O855 O 0.2678 0.14933 0.48851 0.0
H856 H 0.32103 0.16664 0.524 0.0
H857 H 0.30001 0.20856 0.50794 0.0
H858 H 0.3446 0.18624 0.53858 0.0
H859 H 0.32393 0.22743 0.52293 0.0
H860 H 0.24051 0.10925 0.54333 0.0
H861 H 0.2626 0.16933 0.55301 0.0
H862 H 0.25959 0.12257 0.52471 0.0
H863 H 0.24346 0.15518 0.57114 0.0
H864 H 0.31213 0.2041 0.57185 0.0
H865 H 0.27398 0.23024 0.5525 0.0
H866 H 0.33516 0.13353 0.49437 0.0
H867 H 0.31186 0.10869 0.5331 0.0
H868 H 0.22977 0.17167 0.48982 0.0
H869 H 0.27088 0.21149 0.50124 0.0
H870 H 0.21613 0.18998 0.47203 0.0
H871 H 0.25653 0.22908 0.48319 0.0
H872 H 0.28483 0.15371 0.46305 0.0
H873 H 0.26384 0.11746 0.49436 0.0
H874 H 0.29532 0.13131 0.44768 0.0
H875 H 0.2747 0.09569 0.47843 0.0
H876 H 0.30736 0.21079 0.45731 0.0
H877 H 0.25726 0.19174 0.43748 0.0
H878 H 0.20307 0.14678 0.52921 0.0
H879 H 0.20926 0.11162 0.48966 0.0
Li880 Li 0.14723 0.02025 0.78013 0.0
Li881 Li 0.12735 0.00266 0.7943 0.0
Li882 Li 0.14625 0.9891 0.78011 0.0
Li883 Li 0.12372 0.99905 0.76518 0.0
C884 C 0.15358 0.00362 0.81497 0.0
N885 N 0.15533 0.99729 0.8477 0.0
C886 C 0.15699 0.01679 0.82714 0.0
C887 C 0.15105 0.98722 0.81946 0.0
C888 C 0.15783 0.01334 0.84362 0.0
C889 C 0.152 0.98428 0.83607 0.0
C890 C 0.11366 0.02949 0.78633 0.0
C891 C 0.08766 0.03336 0.79531 0.0
N892 N 0.0944 0.04908 0.80147 0.0
C893 C 0.12027 0.04576 0.7926 0.0
C894 C 0.09717 0.02331 0.78755 0.0
C895 C 0.11036 0.05544 0.80025 0.0
C896 C 0.16004 0.04751 0.76344 0.0
N897 N 0.15981 0.04177 0.77861 0.0
C898 C 0.17477 0.06785 0.79081 0.0
C899 C 0.16713 0.05149 0.79217 0.0
C900 C 0.17511 0.07425 0.77528 0.0
C901 C 0.16781 0.06366 0.76146 0.0
H902 H 0.15401 0.03956 0.75287 0.0
H903 H 0.16656 0.04675 0.80411 0.0
C904 C 0.10742 0.98796 0.81742 0.0
N905 N 0.11613 0.00255 0.81361 0.0
C906 C 0.09791 0.98769 0.83052 0.0
C907 C 0.10736 0.01726 0.83622 0.0
C908 C 0.11675 0.01693 0.82308 0.0
C909 C 0.09749 0.00257 0.83985 0.0
H910 H 0.10762 0.97656 0.81009 0.0
H911 H 0.12434 0.02822 0.82029 0.0
C912 C 0.15882 0.9982 0.75249 0.0
N913 N 0.1826 0.98734 0.73535 0.0
C914 C 0.1557 0.98252 0.74385 0.0
C915 C 0.17408 0.00833 0.75245 0.0
C916 C 0.16787 0.97726 0.73528 0.0
C917 C 0.18592 0.00263 0.74368 0.0
C918 C 0.10904 0.97071 0.77312 0.0
C919 C 0.11079 0.95771 0.7619 0.0
C920 C 0.09332 0.97306 0.77629 0.0
C921 C 0.09683 0.9473 0.75408 0.0
C922 C 0.07967 0.96241 0.7682 0.0
N923 N 0.08169 0.94986 0.75736 0.0
C924 C 0.15196 0.95598 0.78103 0.0
C925 C 0.17593 0.97561 0.7793 0.0
C926 C 0.16066 0.94283 0.7795 0.0
N927 N 0.15953 0.97194 0.78032 0.0
C928 C 0.18517 0.96283 0.77787 0.0
C929 C 0.17742 0.94616 0.77759 0.0
H930 H 0.13911 0.95342 0.78271 0.0
H931 H 0.18176 0.98844 0.7792 0.0
C932 C 0.09699 0.00614 0.7446 0.0
N933 N 0.10828 0.99585 0.74596 0.0
C934 C 0.08549 0.00444 0.73082 0.0
C935 C 0.09745 0.98161 0.71997 0.0
C936 C 0.10877 0.98382 0.73393 0.0
C937 C 0.08565 0.99206 0.71824 0.0
H938 H 0.09707 0.0159 0.75407 0.0
H939 H 0.11791 0.97589 0.73511 0.0
O940 O 0.15214 0.00669 0.79874 0.0
O941 O 0.12324 0.01982 0.77886 0.0
O942 O 0.14706 0.00357 0.76101 0.0
O943 O 0.12257 0.98117 0.78083 0.0
H944 H 0.1587 0.02955 0.82396 0.0
H945 H 0.1481 0.97687 0.81024 0.0
H946 H 0.16037 0.02342 0.85316 0.0
H947 H 0.14999 0.97166 0.8397 0.0
H948 H 0.07492 0.02866 0.79644 0.0
H949 H 0.13293 0.05086 0.79165 0.0
H950 H 0.09176 0.01087 0.7826 0.0
H951 H 0.11535 0.068 0.80524 0.0
H952 H 0.17989 0.0755 0.80189 0.0
H953 H 0.168 0.06777 0.7492 0.0
H954 H 0.09057 0.97606 0.83298 0.0
H955 H 0.10776 0.02891 0.84341 0.0
H956 H 0.14418 0.97432 0.74411 0.0
H957 H 0.17683 0.02039 0.75923 0.0
H958 H 0.16565 0.96511 0.72865 0.0
H959 H 0.19777 0.01034 0.74355 0.0
H960 H 0.12277 0.95588 0.75889 0.0
H961 H 0.09164 0.98299 0.7849 0.0
H962 H 0.09804 0.93728 0.74529 0.0
H963 H 0.06746 0.96414 0.77055 0.0
H964 H 0.15434 0.93018 0.77982 0.0
H965 H 0.19811 0.96591 0.77652 0.0
H966 H 0.07687 0.01304 0.72984 0.0
H967 H 0.09797 0.97183 0.71061 0.0
Li968 Li 0.20989 0.90387 0.02095 0.0
Li969 Li 0.22534 0.88431 0.03625 0.0
Li970 Li 0.23959 0.90705 0.02348 0.0
Li971 Li 0.2249 0.88369 0.00594 0.0
C972 C 0.23409 0.92185 0.05046 0.0
N973 N 0.25324 0.94932 0.06791 0.0
C974 C 0.24401 0.91991 0.0647 0.0
C975 C 0.23383 0.93776 0.04514 0.0
C976 C 0.25362 0.93396 0.07334 0.0
C977 C 0.24362 0.95149 0.05412 0.0
C978 C 0.19201 0.86981 0.02381 0.0
C979 C 0.17225 0.84454 0.02263 0.0
N980 N 0.16384 0.85202 0.03347 0.0
C981 C 0.18316 0.87729 0.0349 0.0
C982 C 0.18649 0.85334 0.01755 0.0
C983 C 0.16895 0.86807 0.03964 0.0
C984 C 0.18026 0.91281 0.00626 0.0
N985 N 0.19136 0.91512 0.01983 0.0
C986 C 0.17695 0.93471 0.03236 0.0
C987 C 0.18983 0.92565 0.03283 0.0
C988 C 0.16537 0.93277 0.01846 0.0
C989 C 0.16703 0.92149 0.00536 0.0
H990 H 0.18176 0.90433 0.9961 0.0
H991 H 0.19865 0.92707 0.04358 0.0
C992 C 0.24292 0.872 0.06203 0.0
N993 N 0.22727 0.87163 0.05522 0.0
C994 C 0.24609 0.86357 0.07595 0.0
C995 C 0.21696 0.85481 0.07606 0.0
C996 C 0.21435 0.8632 0.06193 0.0
C997 C 0.23302 0.85491 0.08321 0.0
H998 H 0.25299 0.87906 0.05673 0.0
H999 H 0.20201 0.86304 0.05649 0.0
C1000 C 0.23089 0.91628 0.99137 0.0
N1001 N 0.24414 0.93404 0.96691 0.0
C1002 C 0.24457 0.91196 0.98467 0.0
C1003 C 0.22393 0.92961 0.98565 0.0
C1004 C 0.25109 0.9211 0.9723 0.0
C1005 C 0.23082 0.93845 0.97328 0.0
C1006 C 0.24847 0.86867 0.02266 0.0
C1007 C 0.26508 0.86738 0.02452 0.0
C1008 C 0.23663 0.85423 0.02083 0.0
C1009 C 0.26959 0.85162 0.02446 0.0
C1010 C 0.24164 0.8387 0.02084 0.0
N1011 N 0.25787 0.83773 0.02264 0.0
C1012 C 0.27185 0.91793 0.0363 0.0
C1013 C 0.26247 0.93663 0.01814 0.0
C1014 C 0.28756 0.92734 0.03828 0.0
N1015 N 0.25977 0.9225 0.02614 0.0
C1016 C 0.27813 0.94622 0.01943 0.0
C1017 C 0.29108 0.94143 0.02936 0.0
H1018 H 0.26929 0.90677 0.04273 0.0
H1019 H 0.2526 0.94032 0.01046 0.0
C1020 C 0.21147 0.86744 0.97451 0.0
N1021 N 0.22513 0.87092 0.9855 0.0
C1022 C 0.21203 0.85921 0.95915 0.0
C1023 C 0.24053 0.85794 0.96687 0.0
C1024 C 0.23953 0.86647 0.98186 0.0
C1025 C 0.22672 0.85432 0.95524 0.0
H1026 H 0.20024 0.87134 0.97757 0.0
H1027 H 0.25043 0.86991 0.9904 0.0
O1028 O 0.22493 0.90822 0.04159 0.0
O1029 O 0.20578 0.87866 0.01875 0.0
O1030 O 0.22438 0.90768 0.0036 0.0
O1031 O 0.24394 0.88406 0.02283 0.0
H1032 H 0.24436 0.90768 0.06898 0.0
H1033 H 0.22636 0.93944 0.03402 0.0
H1034 H 0.26141 0.93264 0.08435 0.0
H1035 H 0.24364 0.96386 0.05008 0.0
H1036 H 0.16785 0.83176 0.01793 0.0
H1037 H 0.18734 0.88996 0.03999 0.0
H1038 H 0.19314 0.84744 0.00884 0.0
H1039 H 0.16201 0.87366 0.04828 0.0
H1040 H 0.17599 0.94308 0.04283 0.0
H1041 H 0.1584 0.91969 0.99439 0.0
H1042 H 0.25864 0.86417 0.08123 0.0
H1043 H 0.20655 0.84822 0.08128 0.0
H1044 H 0.25024 0.90185 0.98916 0.0
H1045 H 0.21336 0.93312 0.99079 0.0
H1046 H 0.26172 0.91796 0.96704 0.0
H1047 H 0.22559 0.94882 0.96875 0.0
H1048 H 0.27438 0.87845 0.02599 0.0
H1049 H 0.22374 0.85497 0.01943 0.0
H1050 H 0.2824 0.85043 0.02588 0.0
H1051 H 0.23261 0.82743 0.01943 0.0
H1052 H 0.29688 0.92339 0.04653 0.0
H1053 H 0.28013 0.9569 0.01224 0.0
H1054 H 0.20113 0.85668 0.95043 0.0
H1055 H 0.25216 0.85467 0.96418 0.0
Li1056 Li 0.22668 0.40561 0.02092 0.0
Li1057 Li 0.23508 0.38699 0.03972 0.0
Li1058 Li 0.25531 0.40427 0.02397 0.0
Li1059 Li 0.23403 0.38078 0.01002 0.0
C1060 C 0.2369 0.42203 0.05194 0.0
N1061 N 0.22578 0.44372 0.07358 0.0
C1062 C 0.22136 0.41791 0.05713 0.0
C1063 C 0.2468 0.43716 0.05772 0.0
C1064 C 0.21595 0.42905 0.06809 0.0
C1065 C 0.24096 0.44796 0.06867 0.0
C1066 C 0.20697 0.36722 0.02479 0.0
C1067 C 0.20624 0.338 0.0284 0.0
N1068 N 0.18966 0.33591 0.02806 0.0
C1069 C 0.18992 0.36477 0.02447 0.0
C1070 C 0.21521 0.35372 0.02677 0.0
C1071 C 0.18139 0.34886 0.02614 0.0
C1072 C 0.19695 0.41306 0.00806 0.0
N1073 N 0.2114 0.42016 0.0167 0.0
C1074 C 0.2034 0.44696 0.017 0.0
C1075 C 0.21486 0.43677 0.02119 0.0
C1076 C 0.18844 0.43996 0.00792 0.0
C1077 C 0.18525 0.42279 0.00344 0.0
H1078 H 0.19465 0.39984 0.00451 0.0
H1079 H 0.22662 0.44217 0.02768 0.0
C1080 C 0.2457 0.37262 0.06808 0.0
N1081 N 0.23245 0.37713 0.05968 0.0
C1082 C 0.24379 0.36335 0.08167 0.0
C1083 C 0.21471 0.36399 0.07794 0.0
C1084 C 0.21722 0.37339 0.06455 0.0
C1085 C 0.22807 0.3586 0.08655 0.0
H1086 H 0.25768 0.37588 0.06395 0.0
H1087 H 0.20689 0.3772 0.0577 0.0
C1088 C 0.23469 0.41316 0.9922 0.0
N1089 N 0.22083 0.43327 0.97098 0.0
C1090 C 0.22277 0.4061 0.97945 0.0
C1091 C 0.23965 0.43044 0.99409 0.0
C1092 C 0.21589 0.41648 0.96887 0.0
C1093 C 0.23247 0.44039 0.98325 0.0
C1094 C 0.264 0.37022 0.02495 0.0
C1095 C 0.27623 0.37515 0.01486 0.0
C1096 C 0.264 0.35552 0.03285 0.0
C1097 C 0.28817 0.36524 0.01274 0.0
C1098 C 0.27616 0.34594 0.03041 0.0
N1099 N 0.28789 0.35095 0.02049 0.0
C1100 C 0.28812 0.41449 0.03769 0.0
C1101 C 0.28162 0.42347 0.01132 0.0
C1102 C 0.30452 0.42181 0.03774 0.0
N1103 N 0.27713 0.41541 0.02456 0.0
C1104 C 0.2978 0.43114 0.01093 0.0
C1105 C 0.30957 0.43024 0.02418 0.0
H1106 H 0.28419 0.40775 0.04794 0.0
H1107 H 0.2727 0.42372 0.00092 0.0
C1108 C 0.21327 0.3585 0.98652 0.0
N1109 N 0.22921 0.36363 0.99264 0.0
C1110 C 0.20914 0.34625 0.97355 0.0
C1111 C 0.23792 0.34508 0.97307 0.0
C1112 C 0.24146 0.35722 0.98616 0.0
C1113 C 0.22157 0.33949 0.96652 0.0
H1114 H 0.20375 0.36417 0.99147 0.0
H1115 H 0.25403 0.36184 0.99074 0.0
O1116 O 0.24234 0.4115 0.04099 0.0
O1117 O 0.21542 0.38281 0.02323 0.0
O1118 O 0.24123 0.40323 0.00296 0.0
O1119 O 0.25245 0.38 0.02757 0.0
H1120 H 0.21344 0.40639 0.05251 0.0
H1121 H 0.25884 0.44054 0.05372 0.0
H1122 H 0.20392 0.42607 0.07216 0.0
H1123 H 0.24847 0.45974 0.07323 0.0
H1124 H 0.21248 0.32746 0.02993 0.0
H1125 H 0.18336 0.3751 0.02297 0.0
H1126 H 0.22835 0.35531 0.02698 0.0
H1127 H 0.16819 0.34679 0.02593 0.0
H1128 H 0.20633 0.46019 0.02053 0.0
H1129 H 0.17377 0.41694 0.99657 0.0
H1130 H 0.2545 0.3598 0.08818 0.0
H1131 H 0.20236 0.36053 0.08113 0.0
H1132 H 0.21877 0.39277 0.97784 0.0
H1133 H 0.24866 0.43614 0.00406 0.0
H1134 H 0.20658 0.4112 0.95901 0.0
H1135 H 0.23607 0.45378 0.98466 0.0
H1136 H 0.27632 0.38633 0.00844 0.0
H1137 H 0.25474 0.35154 0.04082 0.0
H1138 H 0.29763 0.36887 0.00489 0.0
H1139 H 0.27628 0.33453 0.03643 0.0
H1140 H 0.31318 0.42056 0.04812 0.0
H1141 H 0.301 0.4377 0.00034 0.0
H1142 H 0.19637 0.34235 0.96891 0.0
H1143 H 0.24798 0.34066 0.96775 0.0
Li1144 Li 0.79023 0.17571 0.02029 0.0
Li1145 Li 0.80575 0.15614 0.00409 0.0
Li1146 Li 0.7899 0.17611 0.98999 0.0
Li1147 Li 0.77582 0.15176 0.00147 0.0
C1148 C 0.81904 0.1964 0.00662 0.0
N1149 N 0.8386 0.22693 0.00509 0.0
C1150 C 0.83434 0.19727 0.00073 0.0
C1151 C 0.81377 0.21104 0.01188 0.0
C1152 C 0.84403 0.21283 1e-05 0.0
C1153 C 0.82381 0.22636 0.01097 0.0
C1154 C 0.78286 0.13846 0.02909 0.0
C1155 C 0.77298 0.10907 0.02982 0.0
N1156 N 0.76504 0.11239 0.04303 0.0
C1157 C 0.7747 0.14157 0.04274 0.0
C1158 C 0.7821 0.12207 0.02264 0.0
C1159 C 0.76573 0.12822 0.04959 0.0
C1160 C 0.77342 0.18818 0.04464 0.0
N1161 N 0.7888 0.18806 0.04043 0.0
C1162 C 0.8004 0.20387 0.06549 0.0
C1163 C 0.80222 0.19574 0.05043 0.0
C1164 C 0.78462 0.20399 0.07029 0.0
C1165 C 0.77104 0.19606 0.05954 0.0
H1166 H 0.76297 0.18177 0.03654 0.0
H1167 H 0.81433 0.19542 0.0468 0.0
C1168 C 0.83547 0.14833 0.99328 0.0
N1169 N 0.82472 0.14555 0.00468 0.0
C1170 C 0.84866 0.13963 0.99307 0.0
C1171 C 0.83929 0.12524 0.01612 0.0
C1172 C 0.82651 0.13443 0.01611 0.0
C1173 C 0.85051 0.12773 0.00445 0.0
H1174 H 0.83361 0.15703 0.98416 0.0
H1175 H 0.81782 0.13244 0.02504 0.0
C1176 C 0.76011 0.18425 0.99934 0.0
N1177 N 0.73687 0.20371 0.99066 0.0
C1178 C 0.74553 0.1772 0.98977 0.0
C1179 C 0.76279 0.20115 0.00464 0.0
C1180 C 0.73396 0.18726 0.98546 0.0
C1181 C 0.75091 0.21079 9e-05 0.0
C1182 C 0.78689 0.13855 0.97283 0.0
C1183 C 0.77692 0.13878 0.95816 0.0
C1184 C 0.79339 0.1242 0.97618 0.0
C1185 C 0.77345 0.12458 0.9472 0.0
C1186 C 0.78965 0.11027 0.9649 0.0
N1187 N 0.77983 0.11074 0.95077 0.0
C1188 C 0.79961 0.20192 0.96779 0.0
C1189 C 0.77339 0.18527 0.96185 0.0
C1190 C 0.79696 0.21059 0.95382 0.0
N1191 N 0.78784 0.18951 0.97155 0.0
C1192 C 0.77018 0.19363 0.9479 0.0
C1193 C 0.78208 0.20641 0.94358 0.0
H1194 H 0.81115 0.205 0.97539 0.0
H1195 H 0.76434 0.17519 0.96484 0.0
C1196 C 0.74508 0.14083 0.01015 0.0
N1197 N 0.75564 0.13623 -0.00017 0.0
C1198 C 0.7295 0.13148 0.01007 0.0
C1199 C 0.73595 0.11241 0.98902 0.0
C1200 C 0.7515 0.12215 0.98954 0.0
C1201 C 0.72462 0.1172 0.99921 0.0
H1202 H 0.74874 0.15197 0.01835 0.0
H1203 H 0.76007 0.11847 0.98162 0.0
O1204 O 0.80941 0.18128 0.00742 0.0
O1205 O 0.79136 0.1514 0.02195 0.0
O1206 O 0.77153 0.17455 0.00379 0.0
O1207 O 0.79059 0.15242 0.9836 0.0
H1208 H 0.83866 0.18605 0.99673 0.0
H1209 H 0.80209 0.21059 0.01667 0.0
H1210 H 0.85587 0.21369 0.99542 0.0
H1211 H 0.81986 0.23779 0.01496 0.0
H1212 H 0.77218 0.09635 0.02487 0.0
H1213 H 0.77522 0.15414 0.04795 0.0
H1214 H 0.7883 0.11943 0.01207 0.0
H1215 H 0.75929 0.13046 0.0601 0.0
H1216 H 0.81123 0.20996 0.07327 0.0
H1217 H 0.75866 0.19551 0.06278 0.0
H1218 H 0.85701 0.1418 0.9838 0.0
H1219 H 0.84039 0.11624 0.02516 0.0
H1220 H 0.74325 0.16414 0.98551 0.0
H1221 H 0.77385 0.20677 0.01226 0.0
H1222 H 0.72268 0.18199 0.97797 0.0
H1223 H 0.75284 0.2239 0.00409 0.0
H1224 H 0.77188 0.14977 0.95525 0.0
H1225 H 0.80119 0.12376 0.98738 0.0
H1226 H 0.7657 0.12459 0.93584 0.0
H1227 H 0.79456 0.09907 0.96739 0.0
H1228 H 0.80662 0.22017 0.95088 0.0
H1229 H 0.75844 0.19007 0.94061 0.0
H1230 H 0.72133 0.13546 0.01842 0.0
H1231 H 0.7327 0.1015 0.98043 0.0
Li1232 Li 0.13129 0.50934 0.28012 0.0
Li1233 Li 0.10911 0.4954 0.293 0.0
Li1234 Li 0.12708 0.47928 0.27802 0.0
Li1235 Li 0.10777 0.49593 0.26285 0.0
C1236 C 0.14812 0.50058 0.30625 0.0
N1237 N 0.17892 0.5133 0.32208 0.0
C1238 C 0.15018 0.51383 0.31829 0.0
C1239 C 0.16179 0.49386 0.30226 0.0
C1240 C 0.16583 0.5201 0.32613 0.0
C1241 C 0.17723 0.50041 0.31042 0.0
C1242 C 0.09345 0.51879 0.27958 0.0
C1243 C 0.06399 0.51101 0.27534 0.0
N1244 N 0.06244 0.5268 0.28037 0.0
C1245 C 0.09152 0.53491 0.28484 0.0
C1246 C 0.07952 0.5067 0.27493 0.0
C1247 C 0.07577 0.53872 0.2851 0.0
C1248 C 0.14074 0.54366 0.28155 0.0
N1249 N 0.1473 0.52948 0.2816 0.0
C1250 C 0.17428 0.54531 0.28204 0.0
C1251 C 0.16379 0.53003 0.28185 0.0
C1252 C 0.16772 0.56011 0.28209 0.0
C1253 C 0.15072 0.55913 0.28187 0.0
H1254 H 0.12767 0.54298 0.28094 0.0
H1255 H 0.16882 0.51866 0.28161 0.0
C1256 C 0.08298 0.48621 0.31377 0.0
N1257 N 0.09676 0.49694 0.3115 0.0
C1258 C 0.07479 0.48854 0.32761 0.0
C1259 C 0.09481 0.51315 0.33626 0.0
C1260 C 0.10247 0.51042 0.32222 0.0
C1261 C 0.08077 0.5021 0.33921 0.0
H1262 H 0.07814 0.47597 0.30479 0.0
H1263 H 0.11292 0.51922 0.31974 0.0
C1264 C 0.14424 0.50111 0.25313 0.0
N1265 N 0.17157 0.51549 0.2393 0.0
C1266 C 0.14361 0.51495 0.24403 0.0
C1267 C 0.15871 0.49447 0.25506 0.0
C1268 C 0.15758 0.52209 0.23719 0.0
C1269 C 0.17241 0.50193 0.24799 0.0
C1270 C 0.09426 0.46205 0.28138 0.0
C1271 C 0.10102 0.4555 0.29527 0.0
C1272 C 0.07906 0.45429 0.27347 0.0
C1273 C 0.09251 0.44116 0.30095 0.0
C1274 C 0.0709 0.43999 0.27956 0.0
N1275 N 0.07775 0.43377 0.29304 0.0
C1276 C 0.14253 0.45296 0.29025 0.0
C1277 C 0.13764 0.45232 0.26133 0.0
C1278 C 0.15077 0.4394 0.28904 0.0
N1279 N 0.13646 0.45934 0.27649 0.0
C1280 C 0.14573 0.43868 0.25955 0.0
C1281 C 0.15271 0.43219 0.27352 0.0
H1282 H 0.14149 0.45879 0.30218 0.0
H1283 H 0.13264 0.45759 0.25059 0.0
C1284 C 0.0966 0.51293 0.23682 0.0
N1285 N 0.09508 0.49754 0.24255 0.0
C1286 C 0.08902 0.51517 0.22141 0.0
C1287 C 0.07771 0.48579 0.21834 0.0
C1288 C 0.08577 0.48406 0.23376 0.0
C1289 C 0.07957 0.50147 0.2119 0.0
H1290 H 0.104 0.52343 0.24414 0.0
H1291 H 0.0849 0.47194 0.23855 0.0
O1292 O 0.13285 0.49419 0.29848 0.0
O1293 O 0.10887 0.5148 0.27976 0.0
O1294 O 0.13076 0.49407 0.2601 0.0
O1295 O 0.10224 0.47619 0.27571 0.0
H1296 H 0.13989 0.51934 0.32153 0.0
H1297 H 0.16063 0.48392 0.29273 0.0
H1298 H 0.16756 0.53038 0.33542 0.0
H1299 H 0.18789 0.49534 0.30739 0.0
H1300 H 0.05315 0.50177 0.27172 0.0
H1301 H 0.10205 0.54439 0.28887 0.0
H1302 H 0.08058 0.49408 0.27107 0.0
H1303 H 0.07415 0.55115 0.28914 0.0
H1304 H 0.18734 0.54555 0.28217 0.0
H1305 H 0.14511 0.57021 0.28154 0.0
H1306 H 0.06376 0.47992 0.32905 0.0
H1307 H 0.1 0.52375 0.34477 0.0
H1308 H 0.13254 0.52027 0.24245 0.0
H1309 H 0.15945 0.48377 0.26207 0.0
H1310 H 0.15731 0.53289 0.23023 0.0
H1311 H 0.18372 0.49699 0.24948 0.0
H1312 H 0.11258 0.46161 0.30174 0.0
H1313 H 0.07356 0.45932 0.26283 0.0
H1314 H 0.09758 0.43596 0.3117 0.0
H1315 H 0.05911 0.43387 0.27358 0.0
H1316 H 0.15608 0.43501 0.30017 0.0
H1317 H 0.14662 0.43339 0.24733 0.0
H1318 H 0.0906 0.52747 0.21693 0.0
H1319 H 0.0706 0.47493 0.2113 0.0
Li1320 Li 0.72822 0.90544 0.52479 0.0
Li1321 Li 0.73887 0.88655 0.542 0.0
Li1322 Li 0.75694 0.90613 0.52586 0.0
Li1323 Li 0.73627 0.88195 0.51212 0.0
C1324 C 0.73933 0.92241 0.55458 0.0
N1325 N 0.72843 0.94531 0.57508 0.0
C1326 C 0.72482 0.91795 0.56168 0.0
C1327 C 0.74839 0.93844 0.55797 0.0
C1328 C 0.71949 0.92973 0.57199 0.0
C1329 C 0.74265 0.94986 0.56835 0.0
C1330 C 0.71078 0.86616 0.52804 0.0
C1331 C 0.71149 0.8369 0.52991 0.0
N1332 N 0.69511 0.83414 0.53122 0.0
C1333 C 0.69396 0.86304 0.52939 0.0
C1334 C 0.71962 0.85299 0.5283 0.0
C1335 C 0.68626 0.84676 0.53098 0.0
C1336 C 0.69721 0.91062 0.51402 0.0
N1337 N 0.71167 0.91882 0.52182 0.0
C1338 C 0.70192 0.94475 0.52131 0.0
C1339 C 0.71425 0.93557 0.52554 0.0
C1340 C 0.68693 0.93663 0.51296 0.0
C1341 C 0.68465 0.91931 0.50939 0.0
H1342 H 0.69569 0.89738 0.5108 0.0
H1343 H 0.72603 0.9419 0.53123 0.0
C1344 C 0.75219 0.87006 0.56735 0.0
N1345 N 0.73827 0.87519 0.56119 0.0
C1346 C 0.75164 0.85892 0.57955 0.0
C1347 C 0.72259 0.85925 0.57934 0.0
C1348 C 0.72374 0.87049 0.56724 0.0
C1349 C 0.7366 0.85301 0.58536 0.0
H1350 H 0.76358 0.87414 0.56232 0.0
H1351 H 0.71287 0.87482 0.56212 0.0
C1352 C 0.73437 0.91517 0.49596 0.0
N1353 N 0.7191 0.9359 0.47662 0.0
C1354 C 0.72176 0.90845 0.48374 0.0
C1355 C 0.73932 0.93244 0.49826 0.0
C1356 C 0.71416 0.91914 0.47412 0.0
C1357 C 0.73142 0.9427 0.48837 0.0
C1358 C 0.76752 0.87257 0.52369 0.0
C1359 C 0.77904 0.879 0.51341 0.0
C1360 C 0.76816 0.85699 0.5297 0.0
C1361 C 0.7909 0.86967 0.50919 0.0
C1362 C 0.7802 0.84804 0.52519 0.0
N1363 N 0.79123 0.85451 0.51512 0.0
C1364 C 0.78885 0.92009 0.53945 0.0
C1365 C 0.78176 0.92671 0.51225 0.0
C1366 C 0.80455 0.9293 0.53962 0.0
N1367 N 0.77789 0.919 0.52589 0.0
C1368 C 0.79724 0.93619 0.51195 0.0
C1369 C 0.80885 0.93753 0.52575 0.0
H1370 H 0.78538 0.91371 0.55006 0.0
H1371 H 0.7729 0.92531 0.50153 0.0
C1372 C 0.71486 0.86041 0.48883 0.0
N1373 N 0.731 0.86542 0.49424 0.0
C1374 C 0.71011 0.84832 0.47579 0.0
C1375 C 0.73868 0.84708 0.47381 0.0
C1376 C 0.74286 0.85908 0.48696 0.0
C1377 C 0.72211 0.84156 0.46802 0.0
H1378 H 0.70565 0.86597 0.4945 0.0
H1379 H 0.75557 0.86356 0.49105 0.0
O1380 O 0.74476 0.91111 0.54444 0.0
O1381 O 0.71846 0.88211 0.52667 0.0
O1382 O 0.74168 0.90492 0.50577 0.0
O1383 O 0.75602 0.88168 0.52825 0.0
H1384 H 0.71766 0.9056 0.55911 0.0
H1385 H 0.75968 0.94202 0.55257 0.0
H1386 H 0.70822 0.92651 0.57751 0.0
H1387 H 0.74949 0.96233 0.57105 0.0
H1388 H 0.7182 0.8266 0.53013 0.0
H1389 H 0.68694 0.8731 0.52927 0.0
H1390 H 0.73259 0.85515 0.52722 0.0
H1391 H 0.67326 0.84417 0.53206 0.0
H1392 H 0.70418 0.95806 0.52442 0.0
H1393 H 0.67348 0.91256 0.50264 0.0
H1394 H 0.76281 0.85476 0.58415 0.0
H1395 H 0.71074 0.85499 0.58341 0.0
H1396 H 0.71777 0.89513 0.48182 0.0
H1397 H 0.74891 0.93787 0.50781 0.0
H1398 H 0.70431 0.91411 0.46469 0.0
H1399 H 0.73502 0.95609 0.49011 0.0
H1400 H 0.77864 0.89088 0.50842 0.0
H1401 H 0.75948 0.85183 0.5378 0.0
H1402 H 0.79981 0.87446 0.50116 0.0
H1403 H 0.7808 0.83596 0.52973 0.0
H1404 H 0.81318 0.93011 0.55051 0.0
H1405 H 0.8002 0.94214 0.50094 0.0
H1406 H 0.69719 0.84446 0.47173 0.0
H1407 H 0.7484 0.84265 0.46788 0.0
Li1408 Li 0.8916 0.05604 0.2595 0.0
Li1409 Li 0.86716 0.03872 0.24571 0.0
Li1410 Li 0.88683 0.05459 0.22918 0.0
Li1411 Li 0.86885 0.06798 0.24578 0.0
C1412 C 0.90528 0.03197 0.2425 0.0
N1413 N 0.93557 0.02287 0.24009 0.0
C1414 C 0.90681 0.01515 0.24144 0.0
C1415 C 0.91916 0.04417 0.24239 0.0
C1416 C 0.92223 0.0108 0.24021 0.0
C1417 C 0.93436 0.03931 0.24115 0.0
C1418 C 0.85889 0.04584 0.2748 0.0
C1419 C 0.83184 0.03346 0.28041 0.0
N1420 N 0.83857 0.02644 0.29343 0.0
C1421 C 0.86553 0.03865 0.28834 0.0
C1422 C 0.8419 0.04338 0.27089 0.0
C1423 C 0.85506 0.02883 0.29757 0.0
C1424 C 0.91688 0.07085 0.28553 0.0
N1425 N 0.908 0.05666 0.27759 0.0
C1426 C 0.92151 0.04 0.29554 0.0
C1427 C 0.91013 0.04143 0.28235 0.0
C1428 C 0.93064 0.05441 0.30421 0.0
C1429 C 0.92831 0.07001 0.29896 0.0
H1430 H 0.91498 0.08284 0.28172 0.0
H1431 H 0.90277 0.03032 0.27602 0.0
C1432 C 0.83899 0.01307 0.23799 0.0
N1433 N 0.85384 0.01763 0.24693 0.0
C1434 C 0.82963 0.99745 0.23939 0.0
C1435 C 0.85104 0.99165 0.25917 0.0
C1436 C 0.86001 0.00728 0.2573 0.0
C1437 C 0.83564 0.98653 0.25012 0.0
H1438 H 0.83441 0.02155 0.2298 0.0
H1439 H 0.87193 0.01122 0.26415 0.0
C1440 C 0.902 0.08936 0.25054 0.0
N1441 N 0.92058 0.11961 0.26262 0.0
C1442 C 0.89631 0.09938 0.26236 0.0
C1443 C 0.91713 0.09473 0.24487 0.0
C1444 C 0.90588 0.11464 0.26829 0.0
C1445 C 0.92635 0.11005 0.25114 0.0
C1446 C 0.85144 0.05852 0.21713 0.0
C1447 C 0.85608 0.06649 0.20332 0.0
C1448 C 0.8356 0.05829 0.22154 0.0
C1449 C 0.84485 0.07434 0.19429 0.0
C1450 C 0.82474 0.06631 0.21222 0.0
N1451 N 0.82955 0.07412 0.1989 0.0
C1452 C 0.90118 0.0404 0.20326 0.0
C1453 C 0.90331 0.06975 0.20411 0.0
C1454 C 0.9109 0.04052 0.19036 0.0
N1455 N 0.89789 0.0549 0.21005 0.0
C1456 C 0.91281 0.07042 0.19098 0.0
C1457 C 0.91699 0.05569 0.18406 0.0
H1458 H 0.89665 0.02876 0.20818 0.0
H1459 H 0.90039 0.08108 0.20971 0.0
C1460 C 0.84838 0.08831 0.25956 0.0
N1461 N 0.85737 0.0864 0.24684 0.0
C1462 C 0.84029 0.10194 0.26098 0.0
C1463 C 0.85078 0.11138 0.23613 0.0
C1464 C 0.85887 0.09767 0.23532 0.0
C1465 C 0.84139 0.11365 0.24913 0.0
H1466 H 0.84766 0.07936 0.26873 0.0
H1467 H 0.86644 0.09607 0.22557 0.0
O1468 O 0.89025 0.03638 0.24379 0.0
O1469 O 0.86897 0.05517 0.26537 0.0
O1470 O 0.89275 0.0745 0.24433 0.0
O1471 O 0.86235 0.05096 0.22626 0.0
H1472 H 0.89617 0.00557 0.24156 0.0
H1473 H 0.91821 0.05723 0.24329 0.0
H1474 H 0.9236 0.99783 0.23937 0.0
H1475 H 0.9452 0.04861 0.24104 0.0
H1476 H 0.81868 0.03132 0.27742 0.0
H1477 H 0.87862 0.04056 0.29167 0.0
H1478 H 0.83655 0.04889 0.26051 0.0
H1479 H 0.86004 0.02311 0.30802 0.0
H1480 H 0.92303 0.02769 0.29896 0.0
H1481 H 0.93488 0.08146 0.30541 0.0
H1482 H 0.81778 0.99402 0.23225 0.0
H1483 H 0.85625 0.98353 0.26739 0.0
H1484 H 0.88479 0.09532 0.26712 0.0
H1485 H 0.92173 0.08714 0.23572 0.0
H1486 H 0.90166 0.1225 0.27747 0.0
H1487 H 0.9381 0.11434 0.24688 0.0
H1488 H 0.86823 0.06669 0.19966 0.0
H1489 H 0.83178 0.05211 0.23213 0.0
H1490 H 0.8483 0.08064 0.18363 0.0
H1491 H 0.81249 0.06635 0.21557 0.0
H1492 H 0.91395 0.02884 0.18571 0.0
H1493 H 0.91685 0.08238 0.18637 0.0
H1494 H 0.8331 0.10322 0.27115 0.0
H1495 H 0.85209 0.12025 0.22687 0.0
Li1496 Li 0.29037 0.67524 0.52018 0.0
Li1497 Li 0.30619 0.65707 0.50482 0.0
Li1498 Li 0.29006 0.67608 0.49082 0.0
Li1499 Li 0.27594 0.65102 0.50241 0.0
C1500 C 0.31903 0.69436 0.50116 0.0
N1501 N 0.33783 0.71928 0.48665 0.0
C1502 C 0.33294 0.6912 0.49409 0.0
C1503 C 0.31475 0.71022 0.50098 0.0
C1504 C 0.34228 0.70397 0.48679 0.0
C1505 C 0.32439 0.72264 0.49353 0.0
C1506 C 0.29508 0.6374 0.52916 0.0
C1507 C 0.29915 0.60882 0.52652 0.0
N1508 N 0.30269 0.60927 0.54306 0.0
C1509 C 0.29882 0.63762 0.54612 0.0
C1510 C 0.29528 0.62292 0.51926 0.0
C1511 C 0.3026 0.62325 0.55292 0.0
C1512 C 0.27859 0.67915 0.55063 0.0
N1513 N 0.28896 0.68709 0.54071 0.0
C1514 C 0.29513 0.71113 0.55984 0.0
C1515 C 0.29727 0.70276 0.54502 0.0
C1516 C 0.28422 0.70333 0.57019 0.0
C1517 C 0.27594 0.6871 0.56541 0.0
H1518 H 0.27218 0.66666 0.54691 0.0
H1519 H 0.30542 0.70881 0.5369 0.0
C1520 C 0.32863 0.63926 0.49105 0.0
N1521 N 0.32535 0.64681 0.50526 0.0
C1522 C 0.34161 0.63034 0.49099 0.0
C1523 C 0.34817 0.63782 0.52005 0.0
C1524 C 0.33492 0.64646 0.51959 0.0
C1525 C 0.35147 0.62938 0.50566 0.0
H1526 H 0.32102 0.63998 0.47978 0.0
H1527 H 0.33204 0.65258 0.53072 0.0
C1528 C 0.26121 0.68243 0.51176 0.0
N1529 N 0.24192 0.69962 0.52959 0.0
C1530 C 0.24835 0.67376 0.51921 0.0
C1531 C 0.26419 0.69983 0.51327 0.0
C1532 C 0.23875 0.68269 0.52819 0.0
C1533 C 0.25433 0.7083 0.52238 0.0
C1534 C 0.28321 0.64195 0.47138 0.0
C1535 C 0.27252 0.64778 0.45976 0.0
C1536 C 0.28619 0.62563 0.46924 0.0
C1537 C 0.26492 0.63715 0.44627 0.0
C1538 C 0.27836 0.61538 0.45558 0.0
N1539 N 0.26797 0.62131 0.44447 0.0
C1540 C 0.30032 0.69071 0.46192 0.0
C1541 C 0.27469 0.69598 0.46931 0.0
C1542 C 0.29843 0.69917 0.44774 0.0
N1543 N 0.28855 0.68934 0.4724 0.0
C1544 C 0.27217 0.70426 0.45513 0.0
C1545 C 0.28409 0.70585 0.44409 0.0
H1546 H 0.31098 0.68488 0.46437 0.0
H1547 H 0.26533 0.69437 0.47758 0.0
C1548 C 0.25363 0.62339 0.51138 0.0
N1549 N 0.25643 0.63461 0.49997 0.0
C1550 C 0.23857 0.61279 0.51059 0.0
C1551 C 0.22937 0.62555 0.48642 0.0
C1552 C 0.24466 0.63586 0.48764 0.0
C1553 C 0.22607 0.61395 0.49813 0.0
H1554 H 0.26279 0.62302 0.5215 0.0
H1555 H 0.24687 0.64537 0.47915 0.0
O1556 O 0.30968 0.682 0.50824 0.0
O1557 O 0.2914 0.65136 0.52227 0.0
O1558 O 0.271 0.67392 0.50325 0.0
O1559 O 0.29098 0.65227 0.48455 0.0
H1560 H 0.33644 0.679 0.49416 0.0
H1561 H 0.30402 0.71286 0.5064 0.0
H1562 H 0.35305 0.70169 0.48122 0.0
H1563 H 0.32116 0.73494 0.4932 0.0
H1564 H 0.29932 0.59751 0.519 0.0
H1565 H 0.29877 0.64877 0.55393 0.0
H1566 H 0.29238 0.62257 0.50614 0.0
H1567 H 0.30546 0.62321 0.56604 0.0
H1568 H 0.30169 0.72367 0.56303 0.0
H1569 H 0.26761 0.68053 0.5731 0.0
H1570 H 0.34389 0.62422 0.47958 0.0
H1571 H 0.35543 0.63731 0.53163 0.0
H1572 H 0.24592 0.66029 0.51824 0.0
H1573 H 0.27412 0.70672 0.50762 0.0
H1574 H 0.22881 0.67615 0.5341 0.0
H1575 H 0.25656 0.72177 0.52373 0.0
H1576 H 0.26995 0.6603 0.46121 0.0
H1577 H 0.29453 0.62089 0.47796 0.0
H1578 H 0.25657 0.64149 0.43724 0.0
H1579 H 0.28058 0.60274 0.45378 0.0
H1580 H 0.3078 0.69995 0.43941 0.0
H1581 H 0.26095 0.70925 0.45276 0.0
H1582 H 0.23665 0.60401 0.51986 0.0
H1583 H 0.22003 0.6272 0.47682 0.0
Li1584 Li 0.36836 0.5394 0.74535 0.0
Li1585 Li 0.39282 0.55854 0.76062 0.0
Li1586 Li 0.36998 0.56927 0.74749 0.0
Li1587 Li 0.38793 0.55809 0.73061 0.0
C1588 C 0.36085 0.5618 0.77587 0.0
N1589 N 0.34263 0.57858 0.79539 0.0
C1590 C 0.36871 0.5738 0.78816 0.0
C1591 C 0.34374 0.55826 0.77354 0.0
C1592 C 0.35927 0.58216 0.7979 0.0
C1593 C 0.33475 0.56691 0.78352 0.0
C1594 C 0.4022 0.52824 0.74539 0.0
C1595 C 0.42757 0.51885 0.74089 0.0
N1596 N 0.42257 0.50473 0.74829 0.0
C1597 C 0.39727 0.51356 0.75283 0.0
C1598 C 0.41744 0.53085 0.73926 0.0
C1599 C 0.40776 0.50186 0.75423 0.0
C1600 C 0.35669 0.50643 0.73221 0.0
N1601 N 0.35586 0.51769 0.74485 0.0
C1602 C 0.33951 0.49696 0.75832 0.0
C1603 C 0.34746 0.51332 0.75774 0.0
C1604 C 0.34047 0.48494 0.74564 0.0
C1605 C 0.3491 0.48986 0.73239 0.0
H1606 H 0.36367 0.51023 0.72223 0.0
H1607 H 0.34733 0.52243 0.76781 0.0
C1608 C 0.41664 0.57563 0.78573 0.0
N1609 N 0.40898 0.56039 0.77899 0.0
C1610 C 0.42855 0.57694 0.79917 0.0
C1611 C 0.42427 0.54689 0.79857 0.0
C1612 C 0.41237 0.54618 0.78528 0.0
C1613 C 0.43254 0.56241 0.80567 0.0
H1614 H 0.41344 0.58677 0.78075 0.0
H1615 H 0.40566 0.53428 0.78017 0.0
C1616 C 0.3584 0.56202 0.71425 0.0
N1617 N 0.34852 0.57856 0.68767 0.0
C1618 C 0.36574 0.57843 0.71266 0.0
C1619 C 0.34604 0.55403 0.70233 0.0
C1620 C 0.36058 0.58657 0.69913 0.0
C1621 C 0.34121 0.5626 0.68898 0.0
C1622 C 0.40854 0.58686 0.74569 0.0
C1623 C 0.41006 0.60374 0.74295 0.0
C1624 C 0.42246 0.5793 0.74689 0.0
C1625 C 0.42553 0.61278 0.7414 0.0
C1626 C 0.43772 0.58875 0.7453 0.0
N1627 N 0.43892 0.60516 0.74259 0.0
C1628 C 0.36513 0.60129 0.758 0.0
C1629 C 0.34132 0.58432 0.74413 0.0
C1630 C 0.35654 0.61442 0.76037 0.0
N1631 N 0.35743 0.58665 0.75 0.0
C1632 C 0.33223 0.5971 0.74628 0.0
C1633 C 0.33986 0.61242 0.75447 0.0
H1634 H 0.37792 0.6027 0.76268 0.0
H1635 H 0.33552 0.5725 0.73785 0.0
C1636 C 0.40017 0.54392 0.70376 0.0
N1637 N 0.39873 0.55883 0.71125 0.0
C1638 C 0.40952 0.54327 0.69062 0.0
C1639 C 0.41501 0.57337 0.69253 0.0
C1640 C 0.40554 0.57343 0.70566 0.0
C1641 C 0.41738 0.55813 0.68506 0.0
H1642 H 0.39441 0.53251 0.70832 0.0
H1643 H 0.40396 0.58513 0.71158 0.0
O1644 O 0.36988 0.55384 0.76591 0.0
O1645 O 0.39195 0.53974 0.74371 0.0
O1646 O 0.36322 0.55371 0.72734 0.0
O1647 O 0.39341 0.57782 0.74696 0.0
H1648 H 0.38193 0.57674 0.79006 0.0
H1649 H 0.33747 0.54916 0.76392 0.0
H1650 H 0.36518 0.59154 0.80742 0.0
H1651 H 0.3215 0.5644 0.78178 0.0
H1652 H 0.4394 0.52073 0.73622 0.0
H1653 H 0.38557 0.51132 0.75771 0.0
H1654 H 0.42141 0.54195 0.73319 0.0
H1655 H 0.40412 0.49051 0.76005 0.0
H1656 H 0.33318 0.49361 0.76887 0.0
H1657 H 0.35006 0.48098 0.72234 0.0
H1658 H 0.43459 0.58915 0.80439 0.0
H1659 H 0.42665 0.53541 0.80352 0.0
H1660 H 0.37528 0.58486 0.72175 0.0
H1661 H 0.34024 0.54132 0.70338 0.0
H1662 H 0.36615 0.59927 0.69776 0.0
H1663 H 0.33166 0.55657 0.67966 0.0
H1664 H 0.39937 0.60977 0.74189 0.0
H1665 H 0.42151 0.56632 0.74918 0.0
H1666 H 0.42688 0.62585 0.73922 0.0
H1667 H 0.4486 0.58305 0.74622 0.0
H1668 H 0.36283 0.62594 0.76694 0.0
H1669 H 0.31944 0.59509 0.7414 0.0
H1670 H 0.4107 0.53125 0.68497 0.0
H1671 H 0.42083 0.58511 0.68865 0.0
Li1672 Li 0.6097 0.99667 0.79319 0.0
Li1673 Li 0.63209 0.01006 0.78023 0.0
Li1674 Li 0.60827 0.99722 0.76303 0.0
Li1675 Li 0.62707 0.98002 0.77804 0.0
C1676 C 0.59465 0.02056 0.77989 0.0
N1677 N 0.56397 0.02935 0.78072 0.0
C1678 C 0.59312 0.03684 0.78501 0.0
C1679 C 0.58051 0.00873 0.77534 0.0
C1680 C 0.57752 0.04104 0.78531 0.0
C1681 C 0.56514 0.01343 0.77579 0.0
C1682 C 0.64886 0.00088 0.80597 0.0
C1683 C 0.67778 0.99959 0.80984 0.0
N1684 N 0.68012 0.0129 0.82108 0.0
C1685 C 0.65162 0.0146 0.81754 0.0
C1686 C 0.66211 0.99339 0.80202 0.0
C1687 C 0.66748 0.02049 0.82503 0.0
C1688 C 0.58258 0.98841 0.8128 0.0
N1689 N 0.59729 0.99815 0.8117 0.0
C1690 C 0.59587 0.01282 0.8375 0.0
C1691 C 0.60379 0.01039 0.82356 0.0
C1692 C 0.58082 0.00277 0.8392 0.0
C1693 C 0.57414 0.99047 0.82652 0.0
H1694 H 0.57721 0.9792 0.80296 0.0
H1695 H 0.61508 0.01844 0.82211 0.0
C1696 C 0.64288 0.04432 0.78222 0.0
N1697 N 0.64871 0.02972 0.78165 0.0
C1698 C 0.65347 0.05944 0.78255 0.0
C1699 C 0.67609 0.04437 0.78152 0.0
C1700 C 0.66502 0.02949 0.78137 0.0
C1701 C 0.67031 0.0596 0.78214 0.0
H1702 H 0.62992 0.04424 0.78216 0.0
H1703 H 0.66948 0.01781 0.78078 0.0
C1704 C 0.59453 0.96339 0.78174 0.0
N1705 N 0.57842 0.93513 0.79379 0.0
C1706 C 0.6011 0.95753 0.79612 0.0
C1707 C 0.57973 0.95495 0.77354 0.0
C1708 C 0.59279 0.94318 0.80199 0.0
C1709 C 0.57177 0.94068 0.77982 0.0
C1710 C 0.64439 0.00147 0.75282 0.0
C1711 C 0.6438 0.01534 0.74375 0.0
C1712 C 0.65868 0.99448 0.75432 0.0
C1713 C 0.65762 0.02214 0.73649 0.0
C1714 C 0.67223 0.00162 0.74684 0.0
N1715 N 0.67143 0.0152 0.73818 0.0
C1716 C 0.5972 0.01447 0.73706 0.0
C1717 C 0.58625 0.98563 0.73392 0.0
C1718 C 0.58971 0.01676 0.72162 0.0
N1719 N 0.59558 0.99906 0.74276 0.0
C1720 C 0.57829 0.98742 0.71846 0.0
C1721 C 0.58027 0.00311 0.71204 0.0
H1722 H 0.60462 0.02493 0.7444 0.0
H1723 H 0.5853 0.97349 0.73868 0.0
C1724 C 0.64155 0.95294 0.78998 0.0
N1725 N 0.63593 0.95979 0.77632 0.0
C1726 C 0.64983 0.93942 0.78863 0.0
C1727 C 0.64558 0.93959 0.75915 0.0
C1728 C 0.63744 0.95316 0.76108 0.0
C1729 C 0.65225 0.93274 0.77304 0.0
H1730 H 0.64027 0.95847 0.80198 0.0
H1731 H 0.63276 0.95878 0.75041 0.0
O1732 O 0.60992 0.01621 0.78001 0.0
O1733 O 0.63336 0.99484 0.79855 0.0
O1734 O 0.60228 0.97755 0.7759 0.0
O1735 O 0.63105 0.99474 0.76017 0.0
H1736 H 0.60383 0.04614 0.7889 0.0
H1737 H 0.58126 0.99602 0.77154 0.0
H1738 H 0.57619 0.05359 0.78926 0.0
H1739 H 0.55413 0.00439 0.77226 0.0
H1740 H 0.6881 0.99391 0.80684 0.0
H1741 H 0.64173 0.02085 0.82058 0.0
H1742 H 0.66046 0.98315 0.79277 0.0
H1743 H 0.66975 0.03112 0.83396 0.0
H1744 H 0.60162 0.02241 0.8469 0.0
H1745 H 0.56238 0.98269 0.82703 0.0
H1746 H 0.64846 0.07089 0.78272 0.0
H1747 H 0.68901 0.04399 0.78122 0.0
H1748 H 0.61235 0.96414 0.8028 0.0
H1749 H 0.57438 0.95946 0.7625 0.0
H1750 H 0.59772 0.93851 0.81311 0.0
H1751 H 0.56029 0.93404 0.77361 0.0
H1752 H 0.63288 0.02094 0.74251 0.0
H1753 H 0.65941 0.98381 0.76137 0.0
H1754 H 0.65738 0.03296 0.72956 0.0
H1755 H 0.6834 0.99641 0.748 0.0
H1756 H 0.5914 0.02907 0.71714 0.0
H1757 H 0.57117 0.97659 0.71137 0.0
H1758 H 0.65487 0.93472 0.7997 0.0
H1759 H 0.64684 0.93469 0.74688 0.0
Li1760 Li 0.77942 0.67432 0.0143 0.0
Li1761 Li 0.78493 0.6511 0.99861 0.0
Li1762 Li 0.77518 0.67228 0.98434 0.0
Li1763 Li 0.75671 0.65276 -0.00033 0.0
C1764 C 0.80467 0.69022 0.99862 0.0
N1765 N 0.82183 0.72219 0.99843 0.0
C1766 C 0.8217 0.69292 0.99863 0.0
C1767 C 0.7964 0.70382 0.99855 0.0
C1768 C 0.83015 0.70917 0.99854 0.0
C1769 C 0.80527 0.71987 0.99843 0.0
C1770 C 0.78136 0.645 0.03121 0.0
C1771 C 0.7828 0.62606 0.0525 0.0
N1772 N 0.79876 0.633 0.0569 0.0
C1773 C 0.79777 0.65192 0.03591 0.0
C1774 C 0.77381 0.63195 0.03953 0.0
C1775 C 0.80636 0.64569 0.04894 0.0
C1776 C 0.77215 0.69253 0.04136 0.0
N1777 N 0.78483 0.68909 0.0333 0.0
C1778 C 0.80399 0.70784 0.05203 0.0
C1779 C 0.80057 0.69624 0.03847 0.0
C1780 C 0.79108 0.71193 0.06038 0.0
C1781 C 0.77499 0.70401 0.05498 0.0
H1782 H 0.7598 0.68642 0.03708 0.0
H1783 H 0.8105 0.69304 0.03207 0.0
C1784 C 0.81521 0.64185 0.99518 0.0
N1785 N 0.79995 0.636 0.99906 0.0
C1786 C 0.82791 0.63299 0.99868 0.0
C1787 C 0.80867 0.61166 0.00903 0.0
C1788 C 0.79632 0.62098 0.00535 0.0
C1789 C 0.8248 0.61798 0.00622 0.0
H1790 H 0.81765 0.65377 0.99006 0.0
H1791 H 0.78405 0.61669 0.00836 0.0
C1792 C 0.74783 0.68702 0.99799 0.0
N1793 N 0.7236 0.70628 0.99309 0.0
C1794 C 0.73355 0.68088 0.98757 0.0
C1795 C 0.7498 0.70301 0.00586 0.0
C1796 C 0.72143 0.69079 0.98527 0.0
C1797 C 0.73741 0.71254 0.00323 0.0
C1798 C 0.771 0.63378 0.97251 0.0
C1799 C 0.78301 0.63467 0.96169 0.0
C1800 C 0.76315 0.61826 0.97637 0.0
C1801 C 0.78708 0.61994 0.95498 0.0
C1802 C 0.76754 0.60382 0.96938 0.0
N1803 N 0.77933 0.60495 0.95894 0.0
C1804 C 0.79098 0.68563 0.95863 0.0
C1805 C 0.76651 0.69603 0.96253 0.0
C1806 C 0.79478 0.69707 0.94706 0.0
N1807 N 0.77717 0.68549 0.96625 0.0
C1808 C 0.76987 0.70772 0.95115 0.0
C1809 C 0.78429 0.7085 0.94349 0.0
H1810 H 0.7994 0.67732 0.96208 0.0
H1811 H 0.75568 0.69581 0.96869 0.0
C1812 C 0.73034 0.63911 0.01599 0.0
N1813 N 0.7353 0.64143 0.00093 0.0
C1814 C 0.71457 0.63086 0.0175 0.0
C1815 C 0.70928 0.6278 0.98792 0.0
C1816 C 0.72527 0.63581 0.987 0.0
C1817 C 0.7037 0.62519 0.00334 0.0
H1818 H 0.73868 0.64366 0.02684 0.0
H1819 H 0.72963 0.63779 0.97518 0.0
O1820 O 0.79628 0.6743 0.99862 0.0
O1821 O 0.77287 0.6505 0.01812 0.0
O1822 O 0.75981 0.67746 0.00049 0.0
O1823 O 0.76712 0.64804 0.9795 0.0
H1824 H 0.82836 0.68259 0.99877 0.0
H1825 H 0.78328 0.70205 0.99853 0.0
H1826 H 0.84333 0.71142 0.99855 0.0
H1827 H 0.79899 0.73048 0.99833 0.0
H1828 H 0.77713 0.61594 0.05903 0.0
H1829 H 0.80392 0.66176 0.02934 0.0
H1830 H 0.76116 0.62632 0.0359 0.0
H1831 H 0.81909 0.65087 0.05265 0.0
H1832 H 0.81656 0.71362 0.05585 0.0
H1833 H 0.76473 0.70648 0.06134 0.0
H1834 H 0.84014 0.63809 0.99603 0.0
H1835 H 0.80581 0.60016 0.01487 0.0
H1836 H 0.73198 0.66876 0.98105 0.0
H1837 H 0.76081 0.70809 0.01385 0.0
H1838 H 0.71035 0.68619 0.97719 0.0
H1839 H 0.7388 0.72493 0.00924 0.0
H1840 H 0.78923 0.6466 0.95863 0.0
H1841 H 0.7539 0.61738 0.98481 0.0
H1842 H 0.79642 0.62042 0.94665 0.0
H1843 H 0.76163 0.59171 0.97232 0.0
H1844 H 0.80604 0.69735 0.9414 0.0
H1845 H 0.76133 0.71615 0.94845 0.0
H1846 H 0.71103 0.62886 0.02965 0.0
H1847 H 0.70135 0.62395 0.97665 0.0
Li1848 Li 0.88271 0.54798 0.74716 0.0
Li1849 Li 0.90541 0.56212 0.76559 0.0
Li1850 Li 0.88498 0.57767 0.7501 0.0
Li1851 Li 0.9046 0.56299 0.73538 0.0
C1852 C 0.87017 0.55363 0.77569 0.0
N1853 N 0.84636 0.53614 0.79213 0.0
C1854 C 0.8731 0.53934 0.78321 0.0
C1855 C 0.85521 0.55913 0.77664 0.0
C1856 C 0.86087 0.53063 0.79142 0.0
C1857 C 0.84331 0.55009 0.785 0.0
C1858 C 0.9211 0.53997 0.75007 0.0
C1859 C 0.95039 0.54876 0.75177 0.0
N1860 N 0.95252 0.53267 0.75277 0.0
C1861 C 0.92361 0.52352 0.75114 0.0
C1862 C 0.93461 0.5527 0.75043 0.0
C1863 C 0.93957 0.52008 0.75249 0.0
C1864 C 0.8742 0.51384 0.74016 0.0
N1865 N 0.86744 0.52742 0.74408 0.0
C1866 C 0.84145 0.51023 0.74533 0.0
C1867 C 0.85125 0.52597 0.74619 0.0
C1868 C 0.84846 0.49597 0.74229 0.0
C1869 C 0.86494 0.49794 0.73927 0.0
H1870 H 0.88693 0.51534 0.73801 0.0
H1871 H 0.846 0.53694 0.74894 0.0
C1872 C 0.92404 0.5758 0.79579 0.0
N1873 N 0.91821 0.56158 0.78607 0.0
C1874 C 0.93233 0.57504 0.81132 0.0
C1875 C 0.92871 0.54511 0.80634 0.0
C1876 C 0.92038 0.54643 0.79104 0.0
C1877 C 0.93469 0.55952 0.81679 0.0
H1878 H 0.92199 0.58767 0.79159 0.0
H1879 H 0.91529 0.53529 0.78326 0.0
C1880 C 0.8676 0.5547 0.71994 0.0
N1881 N 0.84034 0.53655 0.70139 0.0
C1882 C 0.86938 0.54226 0.70814 0.0
C1883 C 0.85198 0.55798 0.72226 0.0
C1884 C 0.85544 0.53319 0.6989 0.0
C1885 C 0.83834 0.54866 0.71276 0.0
C1886 C 0.91909 0.59654 0.74924 0.0
C1887 C 0.91253 0.6068 0.73831 0.0
C1888 C 0.93514 0.60126 0.75672 0.0
C1889 C 0.92221 0.62157 0.73488 0.0
C1890 C 0.94444 0.61611 0.75295 0.0
N1891 N 0.93784 0.62588 0.7422 0.0
C1892 C 0.87309 0.60356 0.76685 0.0
C1893 C 0.86687 0.60189 0.73798 0.0
C1894 C 0.86448 0.61679 0.76866 0.0
N1895 N 0.87401 0.59636 0.75171 0.0
C1896 C 0.85819 0.61512 0.73921 0.0
C1897 C 0.85679 0.62269 0.75472 0.0
H1898 H 0.8789 0.59888 0.77755 0.0
H1899 H 0.86778 0.59589 0.72608 0.0
C1900 C 0.91738 0.54667 0.7102 0.0
N1901 N 0.91683 0.56227 0.71671 0.0
C1902 C 0.92537 0.54435 0.69629 0.0
C1903 C 0.93193 0.57421 0.69571 0.0
C1904 C 0.92391 0.57596 0.70976 0.0
C1905 C 0.93269 0.55822 0.68872 0.0
H1906 H 0.91147 0.53595 0.71576 0.0
H1907 H 0.92316 0.58823 0.71489 0.0
O1908 O 0.88193 0.56229 0.76753 0.0
O1909 O 0.90547 0.54348 0.74887 0.0
O1910 O 0.88108 0.56353 0.72928 0.0
O1911 O 0.90974 0.58216 0.75299 0.0
H1912 H 0.8846 0.53491 0.78252 0.0
H1913 H 0.85277 0.57018 0.77087 0.0
H1914 H 0.86291 0.51947 0.79719 0.0
H1915 H 0.83164 0.55415 0.78577 0.0
H1916 H 0.96093 0.5585 0.75202 0.0
H1917 H 0.91335 0.51349 0.75106 0.0
H1918 H 0.933 0.56546 0.74958 0.0
H1919 H 0.94167 0.50741 0.75335 0.0
H1920 H 0.82875 0.5092 0.74767 0.0
H1921 H 0.87069 0.48726 0.73652 0.0
H1922 H 0.9368 0.58645 0.81897 0.0
H1923 H 0.92999 0.53288 0.81018 0.0
H1924 H 0.88139 0.53954 0.70623 0.0
H1925 H 0.85036 0.56743 0.73149 0.0
H1926 H 0.85662 0.52346 0.68978 0.0
H1927 H 0.82616 0.55099 0.71448 0.0
H1928 H 0.90019 0.60327 0.73231 0.0
H1929 H 0.94035 0.59354 0.76536 0.0
H1930 H 0.91733 0.62959 0.72636 0.0
H1931 H 0.9569 0.6199 0.75861 0.0
H1932 H 0.8639 0.62237 0.78083 0.0
H1933 H 0.85231 0.61911 0.72815 0.0
H1934 H 0.92581 0.53178 0.69158 0.0
H1935 H 0.93714 0.5853 0.6902 0.0
Li1936 Li 0.72525 0.38621 0.5376 0.0
Li1937 Li 0.71024 0.40573 0.5218 0.0
Li1938 Li 0.72553 0.38523 0.50731 0.0
Li1939 Li 0.73991 0.40876 0.52488 0.0
C1940 C 0.69192 0.3717 0.52396 0.0
N1941 N 0.66295 0.35396 0.53197 0.0
C1942 C 0.68274 0.37897 0.53486 0.0
C1943 C 0.68633 0.35546 0.51705 0.0
C1944 C 0.66813 0.36978 0.53877 0.0
C1945 C 0.67167 0.34668 0.52129 0.0
C1946 C 0.73399 0.42407 0.55129 0.0
C1947 C 0.74331 0.45376 0.55432 0.0
N1948 N 0.7529 0.45197 0.56825 0.0
C1949 C 0.74388 0.42252 0.56567 0.0
C1950 C 0.73365 0.43981 0.54557 0.0
C1951 C 0.75337 0.43678 0.57406 0.0
C1952 C 0.74174 0.37478 0.56462 0.0
N1953 N 0.72644 0.37362 0.55665 0.0
C1954 C 0.71523 0.35618 0.57661 0.0
C1955 C 0.71328 0.36444 0.5623 0.0
C1956 C 0.73089 0.35727 0.58519 0.0
C1957 C 0.74427 0.36665 0.57889 0.0
H1958 H 0.75203 0.38216 0.55993 0.0
H1959 H 0.70122 0.36359 0.55588 0.0
C1960 C 0.68065 0.41437 0.50662 0.0
N1961 N 0.69168 0.41687 0.52026 0.0
C1962 C 0.66732 0.4229 0.50553 0.0
C1963 C 0.67699 0.43639 0.53249 0.0
C1964 C 0.68996 0.42745 0.53315 0.0
C1965 C 0.66549 0.43424 0.51853 0.0
H1966 H 0.68228 0.40583 0.49657 0.0
H1967 H 0.69869 0.42899 0.54398 0.0
C1968 C 0.74854 0.37025 0.52487 0.0
N1969 N 0.75755 0.33915 0.52547 0.0
C1970 C 0.76509 0.36877 0.52731 0.0
C1971 C 0.73657 0.35592 0.52277 0.0
C1972 C 0.76939 0.35294 0.52757 0.0
C1973 C 0.74138 0.34031 0.52311 0.0
C1974 C 0.73134 0.41895 0.49322 0.0
C1975 C 0.74467 0.41519 0.48549 0.0
C1976 C 0.72448 0.43292 0.48923 0.0
C1977 C 0.751 0.42556 0.47391 0.0
C1978 C 0.73117 0.44298 0.47758 0.0
N1979 N 0.74418 0.43913 0.47023 0.0
C1980 C 0.71285 0.3685 0.47584 0.0
C1981 C 0.74101 0.3687 0.4837 0.0
C1982 C 0.71402 0.36066 0.46044 0.0
N1983 N 0.72628 0.37245 0.48705 0.0
C1984 C 0.74268 0.36066 0.46864 0.0
C1985 C 0.72918 0.35678 0.45657 0.0
H1986 H 0.70132 0.37187 0.47869 0.0
H1987 H 0.75166 0.37234 0.49254 0.0
C1988 C 0.77239 0.41941 0.53744 0.0
N1989 N 0.7602 0.4242 0.5276 0.0
C1990 C 0.78814 0.42876 0.5393 0.0
C1991 C 0.77849 0.44809 0.52111 0.0
C1992 C 0.76281 0.43854 0.51992 0.0
C1993 C 0.79156 0.44306 0.53065 0.0
H1994 H 0.7699 0.40813 0.5437 0.0
H1995 H 0.75287 0.44247 0.51259 0.0
O1996 O 0.7061 0.38052 0.51972 0.0
O1997 O 0.72494 0.41022 0.54266 0.0
O1998 O 0.74421 0.38572 0.5247 0.0
O1999 O 0.72498 0.40907 0.50465 0.0
H2000 H 0.68697 0.39146 0.54043 0.0
H2001 H 0.69324 0.34972 0.50848 0.0
H2002 H 0.66093 0.37521 0.54724 0.0
H2003 H 0.66721 0.33408 0.51608 0.0
H2004 H 0.74326 0.466 0.54998 0.0
H2005 H 0.74429 0.41044 0.57026 0.0
H2006 H 0.72622 0.44119 0.53434 0.0
H2007 H 0.76114 0.43576 0.58517 0.0
H2008 H 0.7045 0.34928 0.58105 0.0
H2009 H 0.75662 0.36765 0.58484 0.0
H2010 H 0.65873 0.42093 0.49453 0.0
H2011 H 0.67588 0.4448 0.54287 0.0
H2012 H 0.7745 0.37975 0.52898 0.0
H2013 H 0.72372 0.3568 0.52091 0.0
H2014 H 0.78215 0.35161 0.52943 0.0
H2015 H 0.73224 0.32912 0.52149 0.0
H2016 H 0.75021 0.40451 0.48859 0.0
H2017 H 0.71416 0.43598 0.49514 0.0
H2018 H 0.76137 0.42286 0.46788 0.0
H2019 H 0.72603 0.45387 0.47439 0.0
H2020 H 0.70329 0.35817 0.45153 0.0
H2021 H 0.75455 0.3577 0.4665 0.0
H2022 H 0.79757 0.42462 0.54726 0.0
H2023 H 0.78038 0.45894 0.51415 0.0
Li2024 Li 0.62994 0.50455 0.29833 0.0
Li2025 Li 0.65043 0.52248 0.28506 0.0
Li2026 Li 0.62702 0.50281 0.26898 0.0
Li2027 Li 0.64899 0.49097 0.28375 0.0
C2028 C 0.61302 0.52922 0.28554 0.0
N2029 N 0.58503 0.54273 0.28877 0.0
C2030 C 0.61422 0.54611 0.29042 0.0
C2031 C 0.59761 0.51924 0.28215 0.0
C2032 C 0.59992 0.5527 0.29203 0.0
C2033 C 0.58359 0.52628 0.28388 0.0
C2034 C 0.65525 0.50608 0.31965 0.0
C2035 C 0.65561 0.48869 0.34235 0.0
N2036 N 0.65492 0.50208 0.35278 0.0
C2037 C 0.6546 0.51968 0.33061 0.0
C2038 C 0.65579 0.49046 0.32556 0.0
C2039 C 0.65442 0.5174 0.3473 0.0
C2040 C 0.61136 0.48889 0.32196 0.0
N2041 N 0.61757 0.50387 0.31673 0.0
C2042 C 0.60439 0.5181 0.3364 0.0
C2043 C 0.61461 0.51835 0.32392 0.0
C2044 C 0.5972 0.50279 0.34161 0.0
C2045 C 0.60105 0.48805 0.33444 0.0
H2046 H 0.61413 0.47757 0.31619 0.0
H2047 H 0.62011 0.53012 0.31989 0.0
C2048 C 0.66581 0.54857 0.26879 0.0
N2049 N 0.66346 0.54377 0.28405 0.0
C2050 C 0.67429 0.56439 0.26673 0.0
C2051 C 0.67759 0.57021 0.29615 0.0
C2052 C 0.66919 0.55416 0.29764 0.0
C2053 C 0.68019 0.57558 0.28051 0.0
H2054 H 0.66086 0.54015 0.25817 0.0
H2055 H 0.66697 0.55017 0.30962 0.0
C2056 C 0.61302 0.47103 0.2779 0.0
N2057 N 0.58857 0.44444 0.26677 0.0
C2058 C 0.61651 0.45767 0.26815 0.0
C2059 C 0.59709 0.47074 0.28212 0.0
C2060 C 0.60398 0.44438 0.26261 0.0
C2061 C 0.5849 0.45722 0.27632 0.0
C2062 C 0.65543 0.4996 0.25175 0.0
C2063 C 0.6459 0.48542 0.24329 0.0
C2064 C 0.66998 0.50677 0.24592 0.0
C2065 C 0.65108 0.4786 0.22911 0.0
C2066 C 0.67476 0.49957 0.2317 0.0
N2067 N 0.66529 0.48576 0.22366 0.0
C2068 C 0.61288 0.5179 0.2438 0.0
C2069 C 0.60184 0.48914 0.24228 0.0
C2070 C 0.60241 0.52014 0.23014 0.0
N2071 N 0.61235 0.50263 0.24966 0.0
C2072 C 0.5912 0.49078 0.22848 0.0
C2073 C 0.59136 0.50647 0.22226 0.0
H2074 H 0.62136 0.52841 0.24993 0.0
H2075 H 0.60167 0.47708 0.24696 0.0
C2076 C 0.65542 0.45855 0.28834 0.0
N2077 N 0.66162 0.47345 0.28293 0.0
C2078 C 0.6638 0.44511 0.28705 0.0
C2079 C 0.68516 0.46275 0.27527 0.0
C2080 C 0.67631 0.47585 0.27671 0.0
C2081 C 0.6788 0.44707 0.2803 0.0
H2082 H 0.64386 0.45707 0.29352 0.0
H2083 H 0.6811 0.48788 0.27272 0.0
O2084 O 0.62693 0.52258 0.28405 0.0
O2085 O 0.65491 0.50792 0.30318 0.0
O2086 O 0.62519 0.48407 0.28363 0.0
O2087 O 0.65058 0.50649 0.26565 0.0
H2088 H 0.62609 0.55401 0.29304 0.0
H2089 H 0.59648 0.50623 0.27812 0.0
H2090 H 0.60065 0.56574 0.29588 0.0
H2091 H 0.57158 0.51869 0.28132 0.0
H2092 H 0.65597 0.47665 0.34708 0.0
H2093 H 0.65384 0.53178 0.32624 0.0
H2094 H 0.65622 0.47979 0.31728 0.0
H2095 H 0.65377 0.52779 0.35589 0.0
H2096 H 0.60212 0.52979 0.3419 0.0
H2097 H 0.59579 0.47598 0.33808 0.0
H2098 H 0.67616 0.56778 0.25444 0.0
H2099 H 0.68161 0.57842 0.30714 0.0
H2100 H 0.62872 0.45759 0.26475 0.0
H2101 H 0.59414 0.48078 0.28984 0.0
H2102 H 0.60652 0.43403 0.255 0.0
H2103 H 0.57253 0.45687 0.27947 0.0
H2104 H 0.63459 0.47979 0.24757 0.0
H2105 H 0.67757 0.5177 0.25238 0.0
H2106 H 0.6438 0.46762 0.22243 0.0
H2107 H 0.68601 0.50497 0.22707 0.0
H2108 H 0.60284 0.53251 0.22593 0.0
H2109 H 0.5831 0.47984 0.22264 0.0
H2110 H 0.65861 0.43333 0.29136 0.0
H2111 H 0.69665 0.46478 0.26994 0.0
Tb2112 Tb 0.01045 0.04641 0.00856 0.0
C2113 C 0.01096 0.01923 0.98021 0.0
Tb2114 Tb 0.00165 0.00922 0.01534 0.0
O2115 O 0.03596 0.04412 0.00574 0.0
O2116 O 0.02217 0.02836 0.02021 0.0
O2117 O 0.00873 0.03473 0.98387 0.0
C2118 C 0.00264 0.97798 0.02264 0.0
O2119 O 0.01038 0.00775 0.99107 0.0
C2120 C 0.97683 0.02493 0.00959 0.0
C2121 C 0.00165 0.03668 0.04394 0.0
O2122 O 0.99303 0.98224 0.01076 0.0
O2123 O 0.01157 0.99123 0.03022 0.0
O2124 O 0.97634 0.01217 0.01836 0.0
O2125 O 0.99011 0.02703 0.00324 0.0
O2126 O 0.0025 0.02088 0.03991 0.0
O2127 O 0.0034 0.04847 0.03347 0.0
C2128 C 0.00943 0.07805 0.00266 0.0
O2129 O 0.99724 0.0658 -0.00028 0.0
O2130 O 0.02221 0.07251 0.00902 0.0
C2131 C 0.03547 0.03089 0.01383 0.0
Tb2132 Tb 0.26032 0.79797 0.2658 0.0
C2133 C 0.29028 0.77776 0.2675 0.0
Tb2134 Tb 0.25361 0.75997 0.26018 0.0
O2135 O 0.25448 0.79764 0.29124 0.0
O2136 O 0.26267 0.77764 0.28012 0.0
O2137 O 0.2853 0.79227 0.26541 0.0
C2138 C 0.24376 0.72786 0.2643 0.0
O2139 O 0.2798 0.76371 0.26806 0.0
C2140 C 0.25777 0.77633 0.23387 0.0
C2141 C 0.22353 0.77992 0.2591 0.0
O2142 O 0.25161 0.73345 0.25232 0.0
O2143 O 0.24147 0.74032 0.27383 0.0
O2144 O 0.26099 0.76137 0.23518 0.0
O2145 O 0.25094 0.78031 0.2461 0.0
O2146 O 0.22863 0.76539 0.26056 0.0
O2147 O 0.23389 0.79412 0.25881 0.0
C2148 C 0.27007 0.82973 0.26032 0.0
O2149 O 0.26063 0.82467 0.27135 0.0
O2150 O 0.27405 0.81696 0.25251 0.0
C2151 C 0.25616 0.78219 0.29242 0.0
Tb2152 Tb 0.52565 0.02878 0.50906 0.0
C2153 C 0.51907 0.02554 0.54586 0.0
Tb2154 Tb 0.4916 0.03272 0.51829 0.0
O2155 O 0.53629 0.0525 0.52298 0.0
O2156 O 0.51222 0.04834 0.51166 0.0
O2157 O 0.52883 0.0228 0.53448 0.0
C2158 C 0.46699 0.04436 0.53082 0.0
O2159 O 0.50453 0.03008 0.54238 0.0
C2160 C 0.49432 0.00325 0.50603 0.0
C2161 C 0.49836 0.03632 0.48169 0.0
O2162 O 0.46609 0.02955 0.52373 0.0
O2163 O 0.48171 0.0525 0.53091 0.0
O2164 O 0.48078 0.00926 0.50427 0.0
O2165 O 0.5049 0.01306 0.5155 0.0
O2166 O 0.48956 0.04061 0.49343 0.0
O2167 O 0.51201 0.03 0.48493 0.0
C2168 C 0.55028 0.01685 0.49686 0.0
O2169 O 0.54975 0.03255 0.49988 0.0
O2170 O 0.537 0.00801 0.50069 0.0
C2171 C 0.52267 0.05838 0.52099 0.0
Tb2172 Tb 0.25753 0.28285 0.77947 0.0
C2173 C 0.26998 0.31319 0.75998 0.0
Tb2174 Tb 0.25508 0.27728 0.74175 0.0
O2175 O 0.28439 0.28693 0.78224 0.0
O2176 O 0.27076 0.27254 0.762 0.0
O2177 O 0.26469 0.30858 0.77403 0.0
C2178 C 0.26289 0.27511 0.71121 0.0
O2179 O 0.26892 0.30265 0.74677 0.0
C2180 C 0.22798 0.2813 0.75377 0.0
C2181 C 0.24398 0.24652 0.76152 0.0
O2182 O 0.25444 0.28575 0.71697 0.0
O2183 O 0.26644 0.26542 0.72247 0.0
O2184 O 0.22821 0.27285 0.73989 0.0
O2185 O 0.24232 0.28822 0.75908 0.0
O2186 O 0.24808 0.25153 0.74718 0.0
O2187 O 0.24573 0.2567 0.77507 0.0
C2188 C 0.24735 0.2857 0.80901 0.0
O2189 O 0.26035 0.27967 0.80589 0.0
O2190 O 0.24047 0.29034 0.79567 0.0
C2191 C 0.28498 0.27952 0.76787 0.0
Tb2192 Tb 0.00306 0.03037 0.49537 0.0
C2193 C 0.97316 0.02066 0.51567 0.0
Tb2194 Tb 0.00971 0.03125 0.53324 0.0
O2195 O 0.99746 0.00317 0.49366 0.0
O2196 O 0.01384 0.01623 0.51274 0.0
O2197 O 0.97792 0.02456 0.50121 0.0
C2198 C 0.01292 0.02174 0.56367 0.0
O2199 O 0.9834 0.0219 0.52932 0.0
C2200 C 0.00659 0.05985 0.52189 0.0
C2201 C 0.03897 0.0423 0.51332 0.0
O2202 O 0.007 0.01202 0.55069 0.0
O2203 O 0.01703 0.03681 0.55953 0.0
O2204 O 0.01383 0.05855 0.53636 0.0
O2205 O -0.00045 0.04566 0.51587 0.0
O2206 O 0.03458 0.03481 0.5265 0.0
O2207 O 0.02821 0.04383 0.50067 0.0
C2208 C -0.00042 0.0372 0.46407 0.0
O2209 O 0.00974 0.02816 0.4703 0.0
O2210 O 0.99128 0.04223 0.4754 0.0
C2211 C 0.00623 0.00207 0.50738 0.0
Tb2212 Tb 0.27431 0.7794 0.76836 0.0
C2213 C 0.25282 0.78611 0.79622 0.0
Tb2214 Tb 0.23728 0.77524 0.75915 0.0
O2215 O 0.27622 0.80614 0.77408 0.0
O2216 O 0.25795 0.79325 0.75641 0.0
O2217 O 0.26709 0.78205 0.79301 0.0
C2218 C 0.20646 0.78041 0.75525 0.0
O2219 O 0.24042 0.78584 0.78465 0.0
C2220 C 0.24879 0.74774 0.76329 0.0
C2221 C 0.25891 0.76958 0.73091 0.0
O2222 O 0.21148 0.76863 0.76322 0.0
O2223 O 0.21867 0.78896 0.74919 0.0
O2224 O 0.23588 0.74853 0.7533 0.0
O2225 O 0.2536 0.76162 0.7713 0.0
O2226 O 0.24425 0.7723 0.73441 0.0
O2227 O 0.27169 0.77083 0.74226 0.0
C2228 C 0.30458 0.77268 0.77298 0.0
O2229 O 0.29127 0.76227 0.77395 0.0
O2230 O 0.30092 0.78706 0.76964 0.0
C2231 C 0.2631 0.8071 0.76445 0.0
Tb2232 Tb 0.49017 0.02255 0.01497 0.0
C2233 C 0.51313 0.99588 0.01282 0.0
Tb2234 Tb 0.52733 0.03474 0.01661 0.0
O2235 O 0.4892 0.0124 0.98958 0.0
O2236 O 0.50682 0.03286 0.99884 0.0
O2237 O 0.49858 0.99879 0.01641 0.0
C2238 C 0.55854 0.042 0.01052 0.0
O2239 O 0.52546 0.00796 0.01104 0.0
C2240 C 0.51512 0.03502 0.04487 0.0
C2241 C 0.50467 0.06133 0.01925 0.0
O2242 O 0.54587 0.0429 0.00029 0.0
O2243 O 0.55363 0.03702 0.02419 0.0
O2244 O 0.52808 0.04513 0.04193 0.0
O2245 O 0.51065 0.0245 0.03275 0.0
O2246 O 0.51882 0.05832 0.01461 0.0
O2247 O 0.49262 0.04926 0.0219 0.0
C2248 C 0.45887 0.01498 0.02065 0.0
O2249 O 0.46421 0.02449 0.00954 0.0
O2250 O 0.47112 0.00981 0.02851 0.0
C2251 C 0.50227 0.02236 0.98673 0.0
Tb2252 Tb 0.23842 0.27471 0.27059 0.0
C2253 C 0.26822 0.2772 0.29732 0.0
Tb2254 Tb 0.27335 0.28307 0.26008 0.0
O2255 O 0.24111 0.24902 0.27543 0.0
O2256 O 0.25477 0.26204 0.2589 0.0
O2257 O 0.25245 0.27825 0.2945 0.0
C2258 C 0.30279 0.28049 0.25142 0.0
O2259 O 0.27807 0.27712 0.28552 0.0
C2260 C 0.25823 0.30853 0.26436 0.0
C2261 C 0.2435 0.28143 0.23367 0.0
O2262 O 0.2999 0.29171 0.26216 0.0
O2263 O 0.28919 0.27103 0.24554 0.0
O2264 O 0.26965 0.30835 0.25463 0.0
O2265 O 0.25723 0.29567 0.27214 0.0
O2266 O 0.25907 0.27968 0.23626 0.0
O2267 O 0.23396 0.28193 0.24565 0.0
C2268 C 0.2082 0.27725 0.27684 0.0
O2269 O 0.21186 0.26678 0.26583 0.0
O2270 O 0.22151 0.28581 0.28457 0.0
C2271 C 0.25332 0.24913 0.26666 0.0
Tb2272 Tb 0.50257 0.52977 0.99554 0.0
C2273 C 0.47425 0.51406 0.01508 0.0
Tb2274 Tb 0.5095 0.5299 0.03318 0.0
O2275 O 0.4992 0.50269 0.99254 0.0
O2276 O 0.51463 0.51595 0.01231 0.0
O2277 O 0.47784 0.52093 0.00133 0.0
C2278 C 0.51402 0.52278 0.06435 0.0
O2279 O 0.48515 0.51468 0.02816 0.0
C2280 C 0.50361 0.55791 0.02209 0.0
C2281 C 0.53809 0.54479 0.0137 0.0
O2282 O 0.50461 0.53288 0.05883 0.0
O2283 O 0.52081 0.51672 0.05234 0.0
O2284 O 0.51282 0.55713 0.03561 0.0
O2285 O 0.49721 0.54343 0.01637 0.0
O2286 O 0.53426 0.53834 0.02754 0.0
O2287 O 0.52735 0.54416 0.0005 0.0
C2288 C 0.4987 0.53832 0.96479 0.0
O2289 O 0.50694 0.52702 0.96974 0.0
O2290 O 0.4925 0.54463 0.9771 0.0
C2291 C 0.50808 0.50157 0.00621 0.0
Tb2292 Tb 0.77286 0.27813 0.26866 0.0
C2293 C 0.75153 0.28642 0.29617 0.0
Tb2294 Tb 0.73574 0.27375 0.25964 0.0
O2295 O 0.7755 0.30509 0.27349 0.0
O2296 O 0.75632 0.29206 0.25696 0.0
O2297 O 0.76572 0.28205 0.29318 0.0
C2298 C 0.70478 0.27842 0.25496 0.0
O2299 O 0.73915 0.28592 0.28454 0.0
C2300 C 0.74734 0.24615 0.26397 0.0
C2301 C 0.75721 0.26634 0.23196 0.0
O2302 O 0.71074 0.27053 0.26672 0.0
O2303 O 0.71608 0.28317 0.24566 0.0
O2304 O 0.73399 0.24678 0.25458 0.0
O2305 O 0.75227 0.2602 0.27152 0.0
O2306 O 0.74317 0.27099 0.23505 0.0
O2307 O 0.76941 0.26638 0.24365 0.0
C2308 C 0.80336 0.27219 0.27292 0.0
O2309 O 0.79819 0.28227 0.2628 0.0
O2310 O 0.7915 0.26584 0.28096 0.0
C2311 C 0.76191 0.30604 0.26462 0.0
Tb2312 Tb 0.99032 0.52459 0.51451 0.0
C2313 C 0.01284 0.49749 0.5123 0.0
Tb2314 Tb 0.02764 0.53621 0.51617 0.0
O2315 O 0.98932 0.51462 0.48904 0.0
O2316 O 0.00713 0.53484 0.49851 0.0
O2317 O 0.99835 0.50066 0.51581 0.0
C2318 C 0.05901 0.54304 0.5105 0.0
O2319 O 0.02539 0.50938 0.51068 0.0
C2320 C 0.01542 0.53641 0.5444 0.0
C2321 C 0.00545 0.56321 0.51899 0.0
O2322 O 0.0465 0.54301 0.49974 0.0
O2323 O 0.05384 0.53921 0.52439 0.0
O2324 O 0.02847 0.54641 0.54154 0.0
O2325 O 0.0108 0.52603 0.53219 0.0
O2326 O 0.01944 0.55994 0.51415 0.0
O2327 O 0.99325 0.55131 0.52166 0.0
C2328 C 0.95901 0.51713 0.52028 0.0
O2329 O 0.96435 0.52661 0.50914 0.0
O2330 O 0.97129 0.51199 0.52814 0.0
C2331 C 0.00249 0.5245 0.4863 0.0
Tb2332 Tb 0.75872 0.7831 0.28237 0.0
C2333 C 0.76436 0.81545 0.26204 0.0
Tb2334 Tb 0.75587 0.77896 0.24474 0.0
O2335 O 0.78314 0.77583 0.2846 0.0
O2336 O 0.77453 0.78693 0.26407 0.0
O2337 O 0.76182 0.80933 0.27643 0.0
C2338 C 0.76501 0.77207 0.21544 0.0
O2339 O 0.76437 0.80573 0.24846 0.0
C2340 C 0.72894 0.78257 0.25741 0.0
C2341 C 0.75024 0.74661 0.26503 0.0
O2342 O 0.75234 0.77897 0.21798 0.0
O2343 O 0.77209 0.76869 0.22927 0.0
O2344 O 0.73163 0.78665 0.24271 0.0
O2345 O 0.7401 0.77516 0.26304 0.0
O2346 O 0.75251 0.75273 0.25061 0.0
O2347 O 0.75049 0.75627 0.27871 0.0
C2348 C 0.74935 0.78979 0.31163 0.0
O2349 O 0.76193 0.78275 0.30911 0.0
O2350 O 0.74249 0.79344 0.29781 0.0
C2351 C 0.78579 0.77971 0.26983 0.0
Tb2352 Tb 0.76171 0.29685 0.76536 0.0
C2353 C 0.79123 0.27638 0.76677 0.0
Tb2354 Tb 0.75409 0.25854 0.7612 0.0
O2355 O 0.75201 0.29749 0.78926 0.0
O2356 O 0.76139 0.27701 0.78088 0.0
O2357 O 0.78642 0.29106 0.76537 0.0
C2358 C 0.74878 0.22629 0.7664 0.0
O2359 O 0.78077 0.26211 0.76621 0.0
C2360 C 0.75156 0.27357 0.73394 0.0
C2361 C 0.72513 0.279 0.75954 0.0
O2362 O 0.75649 0.23258 0.75458 0.0
O2363 O 0.74423 0.23813 0.77511 0.0
O2364 O 0.74343 0.25895 0.73579 0.0
O2365 O 0.76167 0.27814 0.74642 0.0
O2366 O 0.72999 0.26501 0.76385 0.0
O2367 O 0.73558 0.29254 0.75728 0.0
C2368 C 0.77143 0.32897 0.76145 0.0
O2369 O 0.7604 0.31893 0.75174 0.0
O2370 O 0.77689 0.32094 0.77339 0.0
C2371 C 0.75357 0.28227 0.7919 0.0
Tb2372 Tb 0.7394 0.77481 0.76766 0.0
C2373 C 0.76524 0.78122 0.79867 0.0
Tb2374 Tb 0.7753 0.78535 0.76233 0.0
O2375 O 0.74414 0.7504 0.7747 0.0
O2376 O 0.75779 0.76338 0.75802 0.0
O2377 O 0.74941 0.779 0.79323 0.0
C2378 C 0.8071 0.7849 0.7617 0.0
O2379 O 0.77705 0.78328 0.78881 0.0
C2380 C 0.75816 0.80949 0.76397 0.0
C2381 C 0.74966 0.77911 0.73174 0.0
O2382 O 0.7965 0.77285 0.7658 0.0
O2383 O 0.79981 0.79726 0.75786 0.0
O2384 O 0.77071 0.80998 0.75563 0.0
O2385 O 0.75695 0.79676 0.77195 0.0
O2386 O 0.76501 0.77822 0.73717 0.0
O2387 O 0.73821 0.78007 0.74177 0.0
C2388 C 0.70758 0.77492 0.76864 0.0
O2389 O 0.7138 0.76224 0.76343 0.0
O2390 O 0.71924 0.78725 0.77351 0.0
C2391 C 0.75661 0.75079 0.76622 0.0
Tb2392 Tb 0.50954 0.54642 0.50806 0.0
C2393 C 0.50925 0.5183 0.48056 0.0
Tb2394 Tb 0.5011 0.50969 0.51638 0.0
O2395 O 0.53486 0.54379 0.50472 0.0
O2396 O 0.52162 0.5289 0.52025 0.0
O2397 O 0.50667 0.53377 0.48368 0.0
C2398 C 0.50213 0.47865 0.52441 0.0
O2399 O 0.50939 0.5074 0.49196 0.0
C2400 C 0.47604 0.52509 0.51066 0.0
C2401 C 0.50178 0.53818 0.54407 0.0
O2402 O 0.49251 0.48266 0.51241 0.0
O2403 O 0.51106 0.49204 0.53172 0.0
O2404 O 0.47592 0.51267 0.51984 0.0
O2405 O 0.48909 0.52699 0.50388 0.0
O2406 O 0.50293 0.52234 0.54067 0.0
O2407 O 0.50284 0.54942 0.533 0.0
C2408 C 0.50955 0.57809 0.50147 0.0
O2409 O 0.49678 0.56644 0.49984 0.0
O2410 O 0.52228 0.57194 0.50691 0.0
C2411 C 0.53468 0.53106 0.51346 0.0
Tb2412 Tb 0.02271 0.52641 0.00928 0.0
C2413 C 0.01637 0.52298 0.04619 0.0
Tb2414 Tb 0.9883 0.52878 0.01861 0.0
O2415 O 0.03253 0.55052 0.02271 0.0
O2416 O 0.0083 0.54525 0.01182 0.0
O2417 O 0.02631 0.52084 0.0348 0.0
C2418 C 0.96275 0.53898 0.03077 0.0
O2419 O 0.00143 0.52661 0.0427 0.0
C2420 C 0.99236 0.49948 0.00685 0.0
C2421 C 0.99494 0.53281 0.98203 0.0
O2422 O 0.96221 0.52521 0.02183 0.0
O2423 O 0.9777 0.5469 0.03299 0.0
O2424 O 0.9784 0.50469 0.00522 0.0
O2425 O 0.00262 0.50993 0.016 0.0
O2426 O 0.98624 0.53704 0.99387 0.0
O2427 O 0.00874 0.52673 0.98519 0.0
C2428 C 0.04812 0.51579 0.99725 0.0
O2429 O 0.03523 0.50641 0.00122 0.0
O2430 O 0.04676 0.53131 -0.0 0.0
C2431 C 0.01853 0.55569 0.02098 0.0
C2432 C 0.00036 0.20847 0.93842 0.0
C2433 C 0.01591 0.21621 0.93497 0.0
C2434 C 0.99875 0.19467 0.94778 0.0
C2435 C 0.02133 0.17219 0.97738 0.0
H2436 H 0.98991 0.13349 0.95923 0.0
C2437 C 0.02386 0.10644 0.99834 0.0
C2438 C 0.00918 0.09515 0.99802 0.0
C2439 C 0.0238 0.12215 0.99249 0.0
C2440 C 0.99852 0.14425 0.9647 0.0
H2441 H 0.04197 0.21553 0.93888 0.0
H2442 H 0.03914 0.19166 0.95542 0.0
H2443 H 0.99134 0.15936 0.9458 0.0
H2444 H 0.98284 0.09157 0.99209 0.0
H2445 H 0.98262 0.11921 0.98235 0.0
H2446 H 0.02854 0.15713 0.99629 0.0
C2447 C 0.02822 0.19637 0.95096 0.0
C2448 C 0.99936 0.15908 0.95694 0.0
C2449 C 0.02982 0.21008 0.94149 0.0
C2450 C 0.99435 0.10004 0.99235 0.0
C2451 C 0.99426 0.11583 0.98667 0.0
C2452 C 0.02038 0.1574 0.98525 0.0
C2453 C 0.01265 0.1884 0.95403 0.0
C2454 C 0.01094 0.17312 0.96306 0.0
C2455 C 0.00902 0.12697 0.98636 0.0
C2456 C 0.00914 0.14315 0.97886 0.0
H2457 H 0.9894 0.21306 0.93387 0.0
H2458 H 0.98661 0.1889 0.95012 0.0
H2459 H 0.03023 0.1829 0.98248 0.0
H2460 H 0.03547 0.10292 0.00259 0.0
H2461 H 0.03543 0.13026 0.99224 0.0
C2462 C 0.08261 0.76525 0.19976 0.0
C2463 C 0.07299 0.77745 0.20332 0.0
C2464 C 0.09827 0.76608 0.20791 0.0
C2465 C 0.13355 0.79443 0.22737 0.0
H2466 H 0.14532 0.75584 0.24783 0.0
C2467 C 0.19936 0.79479 0.2576 0.0
C2468 C 0.20574 0.77996 0.25565 0.0
C2469 C 0.18269 0.79496 0.25332 0.0
C2470 C 0.14236 0.76667 0.242 0.0
H2471 H 0.07262 0.80017 0.21838 0.0
H2472 H 0.10037 0.80191 0.23209 0.0
H2473 H 0.11721 0.75529 0.23597 0.0
H2474 H 0.19961 0.75367 0.24771 0.0
H2475 H 0.17087 0.75406 0.23964 0.0
H2476 H 0.15876 0.80556 0.23249 0.0
C2477 C 0.09551 0.79163 0.22307 0.0
C2478 C 0.1262 0.76637 0.23533 0.0
C2479 C 0.07967 0.79066 0.21513 0.0
C2480 C 0.19507 0.76528 0.24953 0.0
C2481 C 0.17849 0.7655 0.24499 0.0
C2482 C 0.1498 0.79464 0.23377 0.0
C2483 C 0.10489 0.77928 0.21959 0.0
C2484 C 0.12169 0.78017 0.2278 0.0
C2485 C 0.17205 0.78036 0.2467 0.0
C2486 C 0.1545 0.78067 0.24099 0.0
H2487 H 0.0782 0.75516 0.19044 0.0
H2488 H 0.10538 0.75655 0.20482 0.0
H2489 H 0.13038 0.80518 0.22149 0.0
H2490 H 0.20725 0.80629 0.26241 0.0
H2491 H 0.17818 0.80658 0.25515 0.0
C2492 C 0.52494 0.8733 0.44234 0.0
C2493 C 0.51767 0.86973 0.42604 0.0
C2494 C 0.52297 0.88777 0.45139 0.0
C2495 C 0.49488 0.91732 0.45455 0.0
H2496 H 0.53191 0.94765 0.47762 0.0
C2497 C 0.48753 0.98146 0.48283 0.0
C2498 C 0.49709 0.98777 0.49753 0.0
C2499 C 0.49033 0.96697 0.47446 0.0
C2500 C 0.52139 0.93919 0.47149 0.0
H2501 H 0.50313 0.87904 0.40637 0.0
H2502 H 0.49928 0.90392 0.42238 0.0
H2503 H 0.53643 0.92238 0.46254 0.0
H2504 H 0.51673 0.98382 0.51536 0.0
H2505 H 0.52138 0.95819 0.50104 0.0
H2506 H 0.47973 0.93372 0.46371 0.0
C2507 C 0.50642 0.89543 0.42811 0.0
C2508 C 0.52402 0.92477 0.4628 0.0
C2509 C 0.50857 0.88111 0.41899 0.0
C2510 C 0.50934 0.97925 0.50391 0.0
C2511 C 0.51203 0.96463 0.49565 0.0
C2512 C 0.49221 0.93158 0.46341 0.0
C2513 C 0.51353 0.89885 0.44441 0.0
C2514 C 0.5108 0.91382 0.45412 0.0
C2515 C 0.50258 0.95832 0.48078 0.0
C2516 C 0.50544 0.94281 0.47185 0.0
H2517 H 0.53183 0.86473 0.44827 0.0
H2518 H 0.52848 0.89009 0.46399 0.0
H2519 H 0.48445 0.90893 0.44814 0.0
H2520 H 0.47809 0.98792 0.47763 0.0
H2521 H 0.48303 0.96272 0.4629 0.0
C2522 C 0.41543 0.26787 0.71272 0.0
C2523 C 0.41589 0.27204 0.6964 0.0
C2524 C 0.40148 0.26876 0.72074 0.0
C2525 C 0.36358 0.28761 0.71831 0.0
H2526 H 0.34961 0.25453 0.74826 0.0
C2527 C 0.30065 0.28157 0.74346 0.0
C2528 C 0.30012 0.27881 0.76007 0.0
C2529 C 0.31494 0.28086 0.736 0.0
C2530 C 0.35345 0.26396 0.74006 0.0
H2531 H 0.40189 0.27998 0.67559 0.0
H2532 H 0.37747 0.28126 0.68943 0.0
H2533 H 0.37404 0.2528 0.73449 0.0
H2534 H 0.31422 0.27384 0.78221 0.0
H2535 H 0.33937 0.27256 0.7692 0.0
H2536 H 0.34283 0.2986 0.72372 0.0
C2537 C 0.38803 0.27772 0.69622 0.0
C2538 C 0.36748 0.26299 0.73217 0.0
C2539 C 0.40202 0.27695 0.68825 0.0
C2540 C 0.31428 0.27578 0.76929 0.0
C2541 C 0.32861 0.27495 0.76182 0.0
C2542 C 0.34951 0.2885 0.72611 0.0
C2543 C 0.38758 0.27372 0.71261 0.0
C2544 C 0.37272 0.27479 0.72116 0.0
C2545 C 0.32908 0.27747 0.74507 0.0
C2546 C 0.34425 0.27667 0.73705 0.0
H2547 H 0.426 0.26423 0.7194 0.0
H2548 H 0.40171 0.26584 0.73343 0.0
H2549 H 0.36739 0.29711 0.71018 0.0
H2550 H 0.29021 0.28478 0.73634 0.0
H2551 H 0.31487 0.28289 0.72309 0.0
C2552 C 0.98726 0.87119 0.57326 0.0
C2553 C -0.00018 0.86944 0.58541 0.0
C2554 C 0.98805 0.88571 0.56504 0.0
C2555 C 0.00683 0.92985 0.56827 0.0
H2556 H 0.99735 0.92563 0.52091 0.0
C2557 C 0.01812 0.98602 0.52899 0.0
C2558 C 0.00604 0.98686 0.51606 0.0
C2559 C 0.01754 0.97175 0.53761 0.0
C2560 C -0.00016 0.92703 0.53415 0.0
H2561 H 0.02285 0.88159 0.59875 0.0
H2562 H 0.02427 0.90699 0.58429 0.0
H2563 H 0.99569 0.90068 0.53591 0.0
H2564 H 0.98402 0.97358 0.5018 0.0
H2565 H 0.9829 0.94866 0.51689 0.0
H2566 H 0.01083 0.95623 0.56652 0.0
C2567 C 0.01382 0.89714 0.58117 0.0
C2568 C 0.9989 0.91275 0.54272 0.0
C2569 C 0.01309 0.88256 0.58932 0.0
C2570 C 0.99352 0.97316 0.51169 0.0
C2571 C 0.99292 0.95891 0.5203 0.0
C2572 C 0.00768 0.94417 0.55969 0.0
C2573 C 0.00136 0.8988 0.56887 0.0
C2574 C 0.00237 0.91401 0.55986 0.0
C2575 C 0.0049 0.95806 0.53338 0.0
C2576 C 0.00418 0.9429 0.54253 0.0
H2577 H 0.97695 0.86123 0.56993 0.0
H2578 H 0.9782 0.88674 0.55571 0.0
H2579 H 0.00939 0.93118 0.5815 0.0
H2580 H 0.02799 0.99641 0.53245 0.0
H2581 H 0.02707 0.97139 0.54748 0.0
C2582 C 0.43553 0.7449 0.83293 0.0
C2583 C 0.44499 0.76068 0.83755 0.0
C2584 C 0.42127 0.74329 0.82206 0.0
C2585 C 0.39886 0.76551 0.79181 0.0
H2586 H 0.36006 0.74173 0.80784 0.0
C2587 C 0.33486 0.78144 0.7767 0.0
C2588 C 0.32117 0.76877 0.77576 0.0
C2589 C 0.35055 0.77787 0.78061 0.0
C2590 C 0.37077 0.7481 0.80292 0.0
H2591 H 0.447 0.7871 0.83425 0.0
H2592 H 0.42226 0.78426 0.8153 0.0
H2593 H 0.38696 0.73987 0.82129 0.0
H2594 H 0.31299 0.74235 0.77719 0.0
H2595 H 0.34045 0.73602 0.7838 0.0
H2596 H 0.38261 0.77419 0.77376 0.0
C2597 C 0.42597 0.77311 0.81985 0.0
C2598 C 0.38619 0.74703 0.81065 0.0
C2599 C 0.44014 0.77473 0.83076 0.0
C2600 C 0.3234 0.75236 0.77805 0.0
C2601 C 0.33909 0.74876 0.78185 0.0
C2602 C 0.38342 0.76652 0.78401 0.0
C2603 C 0.41629 0.75741 0.81556 0.0
C2604 C 0.40034 0.75617 0.80551 0.0
C2605 C 0.35281 0.76154 0.78354 0.0
C2606 C 0.36919 0.75827 0.78984 0.0
H2607 H 0.43911 0.73381 0.83774 0.0
H2608 H 0.41405 0.73103 0.81886 0.0
H2609 H 0.40962 0.77247 0.78745 0.0
H2610 H 0.33341 0.79419 0.77494 0.0
H2611 H 0.36083 0.78805 0.78204 0.0
C2612 C 0.48676 0.1998 0.07295 0.0
C2613 C 0.50184 0.21069 0.07589 0.0
C2614 C 0.48577 0.18407 0.06487 0.0
C2615 C 0.507 0.15925 0.03782 0.0
H2616 H 0.48459 0.12166 0.05811 0.0
C2617 C 0.51603 0.09181 0.02248 0.0
C2618 C 0.5027 0.07885 0.02269 0.0
C2619 C 0.51466 0.1082 0.02716 0.0
C2620 C 0.49063 0.13201 0.05209 0.0
H2621 H 0.52759 0.21388 0.07227 0.0
H2622 H 0.52588 0.18632 0.05817 0.0
H2623 H 0.48452 0.14985 0.06959 0.0
H2624 H 0.47723 0.07305 0.02734 0.0
H2625 H 0.47476 0.10173 0.03519 0.0
H2626 H 0.5132 0.14142 0.02036 0.0
C2627 C 0.51482 0.18999 0.06208 0.0
C2628 C 0.49062 0.14816 0.0587 0.0
C2629 C 0.51584 0.20568 0.07027 0.0
C2630 C 0.48778 0.08273 0.02714 0.0
C2631 C 0.48639 0.09915 0.03173 0.0
C2632 C 0.50693 0.14309 0.03113 0.0
C2633 C 0.49982 0.17896 0.05946 0.0
C2634 C 0.49898 0.16193 0.05176 0.0
C2635 C 0.4999 0.11204 0.03206 0.0
C2636 C 0.49892 0.12927 0.03832 0.0
H2637 H 0.4758 0.20327 0.07727 0.0
H2638 H 0.47403 0.17586 0.06291 0.0
H2639 H 0.51336 0.16966 0.0321 0.0
H2640 H 0.52773 0.08928 0.01919 0.0
H2641 H 0.52538 0.11777 0.02748 0.0
C2642 C 0.07669 0.27982 0.32453 0.0
C2643 C 0.08213 0.28558 0.34095 0.0
C2644 C 0.08729 0.2821 0.31241 0.0
C2645 C 0.12675 0.30478 0.30287 0.0
H2646 H 0.13365 0.26185 0.28462 0.0
C2647 C 0.18968 0.29204 0.2917 0.0
C2648 C 0.19168 0.28018 0.27935 0.0
C2649 C 0.17412 0.29505 0.29428 0.0
C2650 C 0.13167 0.27403 0.28913 0.0
H2651 H 0.10271 0.29906 0.3573 0.0
H2652 H 0.12108 0.3033 0.33608 0.0
H2653 H 0.10924 0.26375 0.29814 0.0
H2654 H 0.17924 0.2626 0.25952 0.0
H2655 H 0.1518 0.26792 0.26398 0.0
H2656 H 0.14948 0.31498 0.29441 0.0
C2657 C 0.10859 0.29705 0.33263 0.0
C2658 C 0.11768 0.2751 0.29691 0.0
C2659 C 0.09807 0.29457 0.34479 0.0
C2660 C 0.17792 0.27166 0.26928 0.0
C2661 C 0.16227 0.27474 0.27181 0.0
C2662 C 0.14064 0.30376 0.2949 0.0
C2663 C 0.10341 0.29044 0.31644 0.0
C2664 C 0.11557 0.29032 0.30457 0.0
C2665 C 0.16021 0.28634 0.28448 0.0
C2666 C 0.14369 0.28821 0.28878 0.0
H2667 H 0.06431 0.27325 0.32108 0.0
H2668 H 0.08304 0.27697 0.29998 0.0
H2669 H 0.12522 0.31669 0.30851 0.0
H2670 H 0.20015 0.29885 0.29955 0.0
H2671 H 0.17299 0.30379 0.30439 0.0
C2672 C 0.94058 0.06967 0.16992 0.0
C2673 C 0.92785 0.0561 0.17063 0.0
C2674 C 0.95101 0.06976 0.15755 0.0
C2675 C 0.97042 0.04373 0.13262 0.0
H2676 H 0.96736 0.07264 0.09711 0.0
C2677 C 0.99196 0.02824 0.07049 0.0
C2678 C 0.99743 0.04098 0.06058 0.0
C2679 C 0.98625 0.03195 0.08543 0.0
C2680 C 0.96873 0.06475 0.1071 0.0
H2681 H 0.91599 0.03223 0.15839 0.0
H2682 H 0.93474 0.03213 0.13741 0.0
H2683 H 0.95195 0.07599 0.12059 0.0
H2684 H 0.0019 0.06774 0.05899 0.0
H2685 H 0.99237 0.07428 0.08542 0.0
H2686 H 0.98722 0.0325 0.11944 0.0
C2687 C 0.93647 0.04266 0.14646 0.0
C2688 C 0.95981 0.06663 0.12046 0.0
C2689 C 0.92583 0.0427 0.15857 0.0
C2690 C 0.99768 0.05761 0.06629 0.0
C2691 C 0.99211 0.06135 0.0814 0.0
C2692 C 0.97957 0.04204 0.11945 0.0
C2693 C 0.94912 0.05615 0.14589 0.0
C2694 C 0.96026 0.05582 0.13305 0.0
C2695 C 0.98603 0.04853 0.09102 0.0
C2696 C 0.97842 0.05214 0.10622 0.0
H2697 H 0.94274 0.08009 0.1791 0.0
H2698 H 0.96076 0.08026 0.15729 0.0
H2699 H 0.971 0.03537 0.14233 0.0
H2700 H 0.99148 0.01526 0.06646 0.0
H2701 H 0.98137 0.02168 0.09226 0.0
C2702 C 0.29337 0.72605 0.42363 0.0
C2703 C 0.28124 0.71386 0.42856 0.0
C2704 C 0.29055 0.73364 0.40902 0.0
C2705 C 0.2663 0.72717 0.36879 0.0
H2706 H 0.27524 0.77528 0.36875 0.0
C2707 C 0.24782 0.76056 0.31153 0.0
C2708 C 0.25835 0.77489 0.30824 0.0
C2709 C 0.25037 0.75326 0.32635 0.0
C2710 C 0.2729 0.76182 0.36843 0.0
H2711 H 0.25681 0.69981 0.42195 0.0
H2712 H 0.25198 0.71287 0.39631 0.0
H2713 H 0.28066 0.76215 0.39413 0.0
H2714 H 0.27979 0.7929 0.3175 0.0
H2715 H 0.28462 0.78002 0.34319 0.0
H2716 H 0.25895 0.72668 0.34308 0.0
C2717 C 0.2636 0.71665 0.40379 0.0
C2718 C 0.27596 0.75431 0.38303 0.0
C2719 C 0.26632 0.70927 0.41851 0.0
C2720 C 0.27143 0.78191 0.31993 0.0
C2721 C 0.27411 0.77454 0.33466 0.0
C2722 C 0.26344 0.73464 0.35414 0.0
C2723 C 0.27565 0.72896 0.39892 0.0
C2724 C 0.27264 0.73692 0.38337 0.0
C2725 C 0.26364 0.76008 0.33809 0.0
C2726 C 0.26665 0.75209 0.35375 0.0
H2727 H 0.30496 0.72985 0.43117 0.0
H2728 H 0.30009 0.74302 0.40552 0.0
H2729 H 0.26379 0.71371 0.36866 0.0
H2730 H 0.23755 0.75508 0.30271 0.0
H2731 H 0.24184 0.74236 0.32862 0.0
C2732 C 0.5566 0.99929 0.68988 0.0
C2733 C 0.57321 0.00519 0.69515 0.0
C2734 C 0.55003 0.00169 0.67401 0.0
C2735 C 0.55935 0.02665 0.63822 0.0
H2736 H 0.5249 0.99352 0.6147 0.0
C2737 C 0.54133 0.0241 0.56828 0.0
C2738 C 0.52457 0.0232 0.56314 0.0
C2739 C 0.54664 0.02218 0.58461 0.0
C2740 C 0.53444 0.00292 0.6212 0.0
H2741 H 0.59608 0.01769 0.68787 0.0
H2742 H 0.58493 0.02125 0.66011 0.0
H2743 H 0.5355 0.98936 0.64264 0.0
H2744 H 0.50022 0.01935 0.57109 0.0
H2745 H 0.50954 0.01553 0.59962 0.0
H2746 H 0.55866 0.0398 0.61643 0.0
C2747 C 0.5767 0.01538 0.66829 0.0
C2748 C 0.54049 0.00061 0.63726 0.0
C2749 C 0.58317 0.01324 0.6842 0.0
C2750 C 0.51322 0.02016 0.57468 0.0
C2751 C 0.51852 0.01789 0.59097 0.0
C2752 C 0.55351 0.02878 0.62209 0.0
C2753 C 0.55999 0.00979 0.66297 0.0
C2754 C 0.55311 0.0124 0.64599 0.0
C2755 C 0.5353 0.019 0.5961 0.0
C2756 C 0.54106 0.01691 0.6134 0.0
H2757 H 0.54864 0.99313 0.69814 0.0
H2758 H 0.53707 0.99741 0.67054 0.0
H2759 H 0.56873 0.03626 0.6446 0.0
H2760 H 0.55039 0.02651 0.55973 0.0
H2761 H 0.55963 0.02299 0.58824 0.0
C2762 C 0.20596 0.33052 0.93895 0.0
C2763 C 0.21783 0.32795 0.95148 0.0
C2764 C 0.20453 0.32176 0.92364 0.0
C2765 C 0.21993 0.28826 0.89968 0.0
H2766 H 0.21952 0.31952 0.866 0.0
C2767 C 0.24919 0.28205 0.83907 0.0
C2768 C 0.24091 0.2869 0.82496 0.0
C2769 C 0.24316 0.28395 0.85424 0.0
C2770 C 0.21936 0.31052 0.87517 0.0
H2771 H 0.23621 0.31283 0.95832 0.0
H2772 H 0.23431 0.29818 0.93139 0.0
H2773 H 0.21365 0.32779 0.89327 0.0
H2774 H 0.21952 0.29674 0.81531 0.0
H2775 H 0.20903 0.30007 0.84174 0.0
H2776 H 0.22652 0.27131 0.8815 0.0
C2777 C 0.22598 0.30682 0.93339 0.0
C2778 C 0.2159 0.31522 0.89083 0.0
C2779 C 0.22726 0.31543 0.94878 0.0
C2780 C 0.22625 0.2931 0.82608 0.0
C2781 C 0.22024 0.29499 0.84118 0.0
C2782 C 0.22352 0.28358 0.88397 0.0
C2783 C 0.2151 0.31043 0.92045 0.0
C2784 C 0.21642 0.30428 0.90336 0.0
C2785 C 0.22879 0.29074 0.85545 0.0
C2786 C 0.22351 0.2948 0.87166 0.0
H2787 H 0.19847 0.34006 0.94055 0.0
H2788 H 0.19574 0.32453 0.91403 0.0
H2789 H 0.22025 0.27949 0.90903 0.0
H2790 H 0.26047 0.27714 0.83844 0.0
H2791 H 0.25006 0.28072 0.86509 0.0
C2792 C 0.95681 0.06419 0.32282 0.0
C2793 C 0.9419 0.0531 0.31909 0.0
C2794 C 0.96699 0.06316 0.33718 0.0
C2795 C 0.97534 0.03488 0.36915 0.0
H2796 H 0.98847 0.07509 0.39817 0.0
C2797 C 0.00536 0.0331 0.43499 0.0
C2798 C 0.9975 0.04098 0.44681 0.0
C2799 C 0.00241 0.0359 0.41844 0.0
C2800 C 0.98501 0.06379 0.39013 0.0
H2801 H 0.92597 0.03236 0.32769 0.0
H2802 H 0.9438 0.03042 0.35241 0.0
H2803 H 0.97592 0.07682 0.37031 0.0
H2804 H 0.98107 0.05851 0.45088 0.0
H2805 H 0.97584 0.06336 0.42202 0.0
H2806 H 0.98366 0.02173 0.38917 0.0
C2807 C 0.94774 0.03974 0.34413 0.0
C2808 C 0.97796 0.0648 0.37416 0.0
C2809 C 0.93753 0.04085 0.32992 0.0
C2810 C 0.98719 0.0522 0.44196 0.0
C2811 C 0.98434 0.0551 0.42546 0.0
C2812 C 0.98246 0.03389 0.38507 0.0
C2813 C 0.96251 0.05093 0.34797 0.0
C2814 C 0.97256 0.05027 0.36373 0.0
C2815 C 0.99168 0.04675 0.4135 0.0
C2816 C 0.98687 0.04826 0.39589 0.0
H2817 H 0.96065 0.07364 0.31464 0.0
H2818 H 0.97836 0.07191 0.33985 0.0
H2819 H 0.97144 0.02352 0.36127 0.0
H2820 H 0.01344 0.02446 0.43848 0.0
H2821 H 0.00831 0.02939 0.40948 0.0
C2822 C 0.29484 0.72055 0.59663 0.0
C2823 C 0.28153 0.71191 0.58596 0.0
C2824 C 0.29234 0.72781 0.61185 0.0
C2825 C 0.26106 0.74286 0.63518 0.0
H2826 H 0.28935 0.73497 0.67319 0.0
C2827 C 0.2478 0.75912 0.70186 0.0
C2828 C 0.26126 0.76463 0.71372 0.0
C2829 C 0.25018 0.75348 0.68596 0.0
C2830 C 0.28148 0.73756 0.66272 0.0
H2831 H 0.2551 0.70468 0.58265 0.0
H2832 H 0.25074 0.71739 0.6092 0.0
H2833 H 0.29384 0.72415 0.64607 0.0
H2834 H 0.28782 0.76906 0.7179 0.0
H2835 H 0.29195 0.75974 0.69024 0.0
H2836 H 0.24877 0.7564 0.6518 0.0
C2837 C 0.26311 0.7185 0.60582 0.0
C2838 C 0.28406 0.7313 0.64714 0.0
C2839 C 0.26563 0.71109 0.59068 0.0
C2840 C 0.27714 0.76476 0.70916 0.0
C2841 C 0.27952 0.75928 0.69327 0.0
C2842 C 0.25856 0.74925 0.65077 0.0
C2843 C 0.27646 0.72678 0.61668 0.0
C2844 C 0.27387 0.73383 0.63318 0.0
C2845 C 0.26609 0.75333 0.68148 0.0
C2846 C 0.26873 0.74668 0.66478 0.0
H2847 H 0.30724 0.72133 0.5934 0.0
H2848 H 0.30286 0.73424 0.61987 0.0
H2849 H 0.25309 0.74516 0.62464 0.0
H2850 H 0.2354 0.75876 0.70496 0.0
H2851 H 0.23951 0.74883 0.67731 0.0
C2852 C 0.5636 0.99146 0.86095 0.0
C2853 C 0.57225 0.00517 0.8541 0.0
C2854 C 0.55594 0.9937 0.87516 0.0
C2855 C 0.5574 0.02225 0.91175 0.0
H2856 H 0.51299 0.9998 0.91396 0.0
C2857 C 0.52144 0.03441 0.96711 0.0
C2858 C 0.51072 0.02089 0.97187 0.0
C2859 C 0.52905 0.03287 0.95274 0.0
C2860 C 0.52549 0.00597 0.9137 0.0
H2861 H 0.57913 0.03212 0.85674 0.0
H2862 H 0.56611 0.0359 0.8817 0.0
H2863 H 0.526 0.99618 0.88901 0.0
H2864 H 0.49976 0.99507 0.96565 0.0
H2865 H 0.51332 0.99215 0.94097 0.0
H2866 H 0.55711 0.03174 0.93655 0.0
C2867 C 0.56541 0.02341 0.87611 0.0
C2868 C 0.53291 0.00393 0.89933 0.0
C2869 C 0.57291 0.0212 0.86181 0.0
C2870 C 0.50786 0.00576 0.96216 0.0
C2871 C 0.51558 0.00414 0.94793 0.0
C2872 C 0.55005 0.02414 0.92621 0.0
C2873 C 0.55686 0.00969 0.88295 0.0
C2874 C 0.54895 0.01202 0.8982 0.0
C2875 C 0.52616 0.01771 0.9429 0.0
C2876 C 0.534 0.01598 0.92742 0.0
H2877 H 0.56302 0.97891 0.85556 0.0
H2878 H 0.54958 0.98286 0.88025 0.0
H2879 H 0.56985 0.02851 0.91128 0.0
H2880 H 0.52368 0.04628 0.97431 0.0
H2881 H 0.53692 0.04367 0.9492 0.0
C2882 C 0.21399 0.35025 0.11119 0.0
C2883 C 0.22554 0.3478 0.10028 0.0
C2884 C 0.21181 0.34021 0.12422 0.0
C2885 C 0.22205 0.30123 0.14088 0.0
H2886 H 0.21944 0.32483 0.18267 0.0
C2887 C 0.24568 0.28177 0.20358 0.0
C2888 C 0.23686 0.28429 0.21699 0.0
C2889 C 0.24042 0.28642 0.18817 0.0
C2890 C 0.21982 0.31797 0.17105 0.0
H2891 H 0.24338 0.33239 0.09415 0.0
H2892 H 0.24022 0.31551 0.11732 0.0
H2893 H 0.21762 0.33928 0.15778 0.0
H2894 H 0.21509 0.29277 0.22455 0.0
H2895 H 0.20605 0.30105 0.19762 0.0
H2896 H 0.22523 0.28018 0.1545 0.0
C2897 C 0.23257 0.32495 0.11564 0.0
C2898 C 0.21875 0.32624 0.15675 0.0
C2899 C 0.23462 0.33486 0.10252 0.0
C2900 C 0.22221 0.29072 0.21448 0.0
C2901 C 0.21703 0.2955 0.1991 0.0
C2902 C 0.22329 0.293 0.15524 0.0
C2903 C 0.22126 0.32761 0.12675 0.0
C2904 C 0.22025 0.3181 0.14154 0.0
C2905 C 0.22632 0.29378 0.18592 0.0
C2906 C 0.22253 0.30143 0.17048 0.0
H2907 H 0.20685 0.36016 0.1099 0.0
H2908 H 0.20284 0.34246 0.13242 0.0
H2909 H 0.22291 0.2945 0.12932 0.0
H2910 H 0.25695 0.27672 0.2051 0.0
H2911 H 0.24788 0.28509 0.17823 0.0
C2912 C 0.15506 0.9598 0.02247 0.0
C2913 C 0.15184 0.94267 0.01766 0.0
C2914 C 0.14238 0.96916 0.02201 0.0
C2915 C 0.09906 0.96821 0.00455 0.0
H2916 H 0.10109 0.00433 0.03799 0.0
C2917 C 0.04474 0.00317 0.01318 0.0
C2918 C 0.04853 0.0206 0.01505 0.0
C2919 C 0.0572 0.99352 0.0136 0.0
C2920 C 0.10041 0.99436 0.02851 0.0
H2921 H 0.13275 0.92189 0.00869 0.0
H2922 H 0.1105 0.93808 0.00829 0.0
H2923 H 0.12285 0.9876 0.03863 0.0
H2924 H 0.06828 0.04172 0.0184 0.0
H2925 H 0.09017 0.02488 0.01947 0.0
H2926 H 0.07636 0.97484 0.99472 0.0
C2927 C 0.12289 0.94444 0.01205 0.0
C2928 C 0.11293 0.98477 0.0288 0.0
C2929 C 0.13563 0.93511 0.01232 0.0
C2930 C 0.06504 0.02826 0.01717 0.0
C2931 C 0.07754 0.01864 0.01783 0.0
C2932 C 0.08644 0.97768 0.00439 0.0
C2933 C 0.12607 0.96161 0.01692 0.0
C2934 C 0.11251 0.97162 0.01677 0.0
C2935 C 0.07375 0.00114 0.01598 0.0
C2936 C 0.08702 0.99091 0.01631 0.0
H2937 H 0.16746 0.96604 0.02642 0.0
H2938 H 0.14544 0.98239 0.0255 0.0
H2939 H 0.09838 0.95841 0.9949 0.0
H2940 H 0.03219 0.99696 0.01078 0.0
H2941 H 0.05389 0.98008 0.01209 0.0
C2942 C 0.67871 0.60409 0.99279 0.0
C2943 C 0.68665 0.61675 0.00464 0.0
C2944 C 0.6626 0.59644 0.99383 0.0
C2945 C 0.63313 0.58487 0.022 0.0
H2946 H 0.59973 0.58647 0.98607 0.0
C2947 C 0.56492 0.56039 0.02705 0.0
C2948 C 0.55508 0.55301 0.01282 0.0
C2949 C 0.58093 0.56841 0.02613 0.0
C2950 C 0.60891 0.58561 0.99611 0.0
H2951 H 0.68358 0.63127 0.02685 0.0
H2952 H 0.65575 0.61725 0.029 0.0
H2953 H 0.62795 0.59948 0.98421 0.0
H2954 H 0.55428 0.5479 0.98655 0.0
H2955 H 0.58241 0.5611 0.98501 0.0
H2956 H 0.61446 0.57045 0.0337 0.0
C2957 C 0.66209 0.61344 0.01889 0.0
C2958 C 0.62504 0.59318 0.99505 0.0
C2959 C 0.67808 0.62136 0.01768 0.0
C2960 C 0.56157 0.55363 0.9977 0.0
C2961 C 0.57768 0.56133 0.99682 0.0
C2962 C 0.61708 0.57699 0.02294 0.0
C2963 C 0.65422 0.60102 0.00691 0.0
C2964 C 0.63723 0.59291 0.00801 0.0
C2965 C 0.58758 0.56892 0.01101 0.0
C2966 C 0.60472 0.57729 0.01003 0.0
H2967 H 0.68496 0.59991 0.98277 0.0
H2968 H 0.65676 0.58676 0.98454 0.0
H2969 H 0.64243 0.58443 0.03208 0.0
H2970 H 0.56014 0.56025 0.03885 0.0
H2971 H 0.588 0.5744 0.03728 0.0
C2972 C 0.67898 0.41692 0.2724 0.0
C2973 C 0.68762 0.43274 0.27831 0.0
C2974 C 0.6872 0.40342 0.27046 0.0
C2975 C 0.72884 0.39293 0.2675 0.0
H2976 H 0.70758 0.34896 0.27636 0.0
C2977 C 0.76155 0.33557 0.27428 0.0
C2978 C 0.75396 0.32099 0.26474 0.0
C2979 C 0.75375 0.34948 0.27527 0.0
C2980 C 0.71359 0.36116 0.27375 0.0
H2981 H 0.71164 0.44675 0.28699 0.0
H2982 H 0.72598 0.42315 0.28396 0.0
H2983 H 0.69349 0.3727 0.28 0.0
H2984 H 0.7329 0.31007 0.24792 0.0
H2985 H 0.7186 0.33387 0.25058 0.0
H2986 H 0.74918 0.3813 0.26181 0.0
C2987 C 0.71289 0.42121 0.28044 0.0
C2988 C 0.70552 0.37478 0.27575 0.0
C2989 C 0.70467 0.43475 0.28224 0.0
C2990 C 0.73864 0.32078 0.25589 0.0
C2991 C 0.73059 0.33449 0.25727 0.0
C2992 C 0.73701 0.37935 0.26576 0.0
C2993 C 0.70427 0.40534 0.27451 0.0
C2994 C 0.71299 0.39085 0.27257 0.0
C2995 C 0.73806 0.34894 0.26703 0.0
C2996 C 0.72942 0.36334 0.2688 0.0
H2997 H 0.66587 0.41503 0.26901 0.0
H2998 H 0.68016 0.39151 0.26554 0.0
H2999 H 0.73489 0.40503 0.26464 0.0
H3000 H 0.77346 0.33618 0.28113 0.0
H3001 H 0.75978 0.36051 0.28284 0.0
C3002 C 0.82194 0.44325 0.53207 0.0
C3003 C 0.80872 0.45207 0.53086 0.0
C3004 C 0.83796 0.45137 0.53155 0.0
C3005 C 0.86412 0.49346 0.53423 0.0
H3006 H 0.89367 0.46839 0.51388 0.0
C3007 C 0.92931 0.5195 0.51536 0.0
C3008 C 0.94169 0.51166 0.52267 0.0
C3009 C 0.91282 0.51349 0.51693 0.0
C3010 C 0.88552 0.4755 0.5196 0.0
H3011 H 0.80235 0.47666 0.52854 0.0
H3012 H 0.83016 0.4906 0.52663 0.0
H3013 H 0.86534 0.4555 0.51496 0.0
H3014 H 0.94669 0.49165 0.53755 0.0
H3015 H 0.91787 0.48084 0.5398 0.0
H3016 H 0.88449 0.5137 0.5382 0.0
C3017 C 0.82815 0.47742 0.5284 0.0
C3018 C 0.86931 0.4681 0.52039 0.0
C3019 C 0.8121 0.46933 0.52924 0.0
C3020 C 0.93738 0.49792 0.53179 0.0
C3021 C 0.92093 0.49172 0.53306 0.0
C3022 C 0.88032 0.50099 0.53312 0.0
C3023 C 0.84131 0.46851 0.52941 0.0
C3024 C 0.85842 0.47685 0.52796 0.0
C3025 C 0.90853 0.49937 0.52554 0.0
C3026 C 0.89118 0.49195 0.52601 0.0
H3027 H 0.81996 0.42993 0.53304 0.0
H3028 H 0.84773 0.44409 0.53278 0.0
H3029 H 0.85622 0.50057 0.54032 0.0
H3030 H 0.93236 0.53014 0.50829 0.0
H3031 H 0.9034 0.51952 0.511 0.0
C3032 C 0.35156 0.152 0.26175 0.0
C3033 C 0.34472 0.13557 0.25595 0.0
C3034 C 0.3416 0.1642 0.26307 0.0
C3035 C 0.29989 0.1728 0.24895 0.0
H3036 H 0.31058 0.20796 0.28406 0.0
C3037 C 0.2563 0.21914 0.26406 0.0
C3038 C 0.26356 0.236 0.26574 0.0
C3039 C 0.26601 0.20669 0.263 0.0
C3040 C 0.30749 0.19825 0.27415 0.0
H3041 H 0.32207 0.1189 0.2474 0.0
H3042 H 0.30463 0.13992 0.25019 0.0
H3043 H 0.32782 0.18661 0.28209 0.0
H3044 H 0.28662 0.25301 0.26889 0.0
H3045 H 0.3036 0.23143 0.26696 0.0
H3046 H 0.2793 0.18434 0.24132 0.0
C3047 C 0.31772 0.14364 0.25322 0.0
C3048 C 0.31742 0.18604 0.27294 0.0
C3049 C 0.32771 0.13153 0.25168 0.0
C3050 C 0.28067 0.24019 0.26691 0.0
C3051 C 0.29041 0.22779 0.26611 0.0
C3052 C 0.28983 0.18488 0.25031 0.0
C3053 C 0.32451 0.16019 0.25885 0.0
C3054 C 0.31382 0.17316 0.26026 0.0
C3055 C 0.28318 0.2109 0.26401 0.0
C3056 C 0.29358 0.19778 0.26287 0.0
H3057 H 0.36466 0.1555 0.26498 0.0
H3058 H 0.34737 0.17682 0.26716 0.0
H3059 H 0.29684 0.16333 0.23882 0.0
H3060 H 0.24311 0.21561 0.26332 0.0
H3061 H 0.26013 0.19376 0.26157 0.0
C3062 C 0.33838 0.09508 0.52001 0.0
C3063 C 0.33989 0.11218 0.51797 0.0
C3064 C 0.35231 0.08797 0.5239 0.0
C3065 C 0.39709 0.096 0.52224 0.0
H3066 H 0.39668 0.06015 0.55119 0.0
C3067 C 0.45498 0.06907 0.53915 0.0
C3068 C 0.45296 0.05185 0.53515 0.0
C3069 C 0.44132 0.07679 0.54026 0.0
C3070 C 0.39693 0.07019 0.54313 0.0
H3071 H 0.35692 0.13541 0.51897 0.0
H3072 H 0.38118 0.12316 0.52608 0.0
H3073 H 0.37228 0.07308 0.54628 0.0
H3074 H 0.4354 0.02895 0.53045 0.0
H3075 H 0.41143 0.04247 0.53253 0.0
H3076 H 0.42169 0.09312 0.51909 0.0
C3077 C 0.36936 0.11508 0.5242 0.0
C3078 C 0.38297 0.07751 0.54022 0.0
C3079 C 0.35548 0.12212 0.52014 0.0
C3080 C 0.43721 0.04227 0.53349 0.0
C3081 C 0.42354 0.04998 0.53475 0.0
C3082 C 0.41105 0.08883 0.52529 0.0
C3083 C 0.36797 0.09791 0.526 0.0
C3084 C 0.38286 0.09041 0.52962 0.0
C3085 C 0.42547 0.06737 0.53753 0.0
C3086 C 0.41106 0.07578 0.53565 0.0
H3087 H 0.32645 0.08718 0.51836 0.0
H3088 H 0.35084 0.07467 0.52496 0.0
H3089 H 0.39734 0.10565 0.51374 0.0
H3090 H 0.46704 0.07671 0.54056 0.0
H3091 H 0.4431 0.09021 0.5426 0.0
C3092 C 0.68373 0.60148 0.26507 0.0
C3093 C 0.6886 0.59283 0.27853 0.0
C3094 C 0.6915 0.61768 0.26325 0.0
C3095 C 0.7137 0.65516 0.28655 0.0
H3096 H 0.72926 0.66746 0.24527 0.0
C3097 C 0.74828 0.72113 0.28056 0.0
C3098 C 0.74544 0.72844 0.26576 0.0
C3099 C 0.74258 0.70423 0.28177 0.0
C3100 C 0.72479 0.66435 0.25683 0.0
H3101 H 0.70577 0.5946 0.30048 0.0
H3102 H 0.7189 0.6231 0.29754 0.0
H3103 H 0.71654 0.63878 0.24803 0.0
H3104 H 0.73457 0.72376 0.24052 0.0
H3105 H 0.72399 0.69443 0.24275 0.0
H3106 H 0.72121 0.68068 0.29526 0.0
C3107 C 0.70906 0.61721 0.28842 0.0
C3108 C 0.71758 0.64787 0.2584 0.0
C3109 C 0.70145 0.60091 0.29013 0.0
C3110 C 0.73707 0.71843 0.25206 0.0
C3111 C 0.73106 0.70156 0.25336 0.0
C3112 C 0.72064 0.67168 0.28491 0.0
C3113 C 0.70417 0.62574 0.27495 0.0
C3114 C 0.71201 0.64313 0.27329 0.0
C3115 C 0.73355 0.69426 0.2683 0.0
C3116 C 0.72634 0.67653 0.27004 0.0
H3117 H 0.67367 0.59589 0.25606 0.0
H3118 H 0.68735 0.62406 0.25287 0.0
H3119 H 0.7093 0.65188 0.2981 0.0
H3120 H 0.75486 0.72851 0.29128 0.0
H3121 H 0.74518 0.69903 0.29336 0.0
C3122 C 0.84629 0.46756 0.75225 0.0
C3123 C 0.83911 0.47906 0.74322 0.0
C3124 C 0.8379 0.45147 0.75305 0.0
C3125 C 0.79669 0.42545 0.74685 0.0
H3126 H 0.82232 0.38975 0.74747 0.0
C3127 C 0.76995 0.35454 0.74645 0.0
C3128 C 0.77767 0.34641 0.75879 0.0
C3129 C 0.7764 0.37092 0.74358 0.0
C3130 C 0.81503 0.39961 0.74734 0.0
H3131 H 0.81739 0.48287 0.72814 0.0
H3132 H 0.8027 0.45444 0.72924 0.0
H3133 H 0.83548 0.41792 0.74365 0.0
H3134 H 0.798 0.34891 0.77787 0.0
H3135 H 0.80943 0.37737 0.77266 0.0
H3136 H 0.77617 0.40681 0.75034 0.0
C3137 C 0.81479 0.45798 0.73588 0.0
C3138 C 0.82255 0.41577 0.74523 0.0
C3139 C 0.82319 0.47422 0.7352 0.0
C3140 C 0.79182 0.35491 0.76829 0.0
C3141 C 0.79839 0.37113 0.76526 0.0
C3142 C 0.78909 0.40917 0.74876 0.0
C3143 C 0.82214 0.44637 0.74471 0.0
C3144 C 0.81359 0.42898 0.74537 0.0
C3145 C 0.79081 0.37924 0.75283 0.0
C3146 C 0.79831 0.3962 0.74938 0.0
H3147 H 0.85841 0.47108 0.75885 0.0
H3148 H 0.84376 0.44306 0.76037 0.0
H3149 H 0.78944 0.43532 0.74711 0.0
H3150 H 0.75902 0.3482 0.73896 0.0
H3151 H 0.77039 0.37692 0.73389 0.0
C3152 C 0.00641 0.85807 0.09898 0.0
C3153 C 0.99789 0.84215 0.09313 0.0
C3154 C 0.00764 0.87118 0.08878 0.0
C3155 C 0.98684 0.88705 0.05394 0.0
H3156 H 0.02879 0.91533 0.05236 0.0
C3157 C 0.99274 0.94711 0.01915 0.0
C3158 C 0.00305 0.96098 0.02756 0.0
C3159 C 0.99279 0.93119 0.02464 0.0
C3160 C 0.01695 0.90764 0.05273 0.0
H3161 H 0.98415 0.82765 0.07171 0.0
H3162 H 0.98581 0.85083 0.05413 0.0
H3163 H 0.02744 0.89018 0.06707 0.0
H3164 H 0.02163 0.96917 0.04805 0.0
H3165 H 0.02146 0.94172 0.05783 0.0
H3166 H 0.97619 0.9049 0.04034 0.0
C3167 C 0.99158 0.85299 0.06664 0.0
C3168 C 0.01622 0.89321 0.06111 0.0
C3169 C 0.99056 0.83977 0.07677 0.0
C3170 C 0.01358 0.95868 0.0413 0.0
C3171 C 0.01358 0.94287 0.04682 0.0
C3172 C 0.98754 0.90164 0.04573 0.0
C3173 C 0.00019 0.86879 0.07255 0.0
C3174 C 0.00112 0.88298 0.06209 0.0
C3175 C 0.00312 0.92891 0.03865 0.0
C3176 C 0.00257 0.91233 0.04538 0.0
H3177 H 0.01189 0.86055 0.11156 0.0
H3178 H 0.01413 0.88332 0.09371 0.0
H3179 H 0.97504 0.87939 0.05459 0.0
H3180 H 0.98454 0.94859 0.00847 0.0
H3181 H 0.9847 0.92069 0.01796 0.0
C3182 C 0.93227 0.26354 0.81677 0.0
C3183 C 0.94207 0.27879 0.82275 0.0
C3184 C 0.91644 0.26312 0.80902 0.0
C3185 C 0.88351 0.28883 0.80605 0.0
H3186 H 0.86401 0.25633 0.77028 0.0
C3187 C 0.82027 0.29124 0.77234 0.0
C3188 C 0.80905 0.27619 0.77018 0.0
C3189 C 0.83685 0.29134 0.77722 0.0
C3190 C 0.86929 0.26542 0.78032 0.0
H3191 H 0.94339 0.30556 0.82455 0.0
H3192 H 0.91602 0.30491 0.81069 0.0
H3193 H 0.89248 0.25709 0.78149 0.0
H3194 H 0.80671 0.24937 0.7708 0.0
H3195 H 0.83573 0.2496 0.77928 0.0
H3196 H 0.8604 0.29721 0.80484 0.0
C3197 C 0.92026 0.29322 0.81242 0.0
C3198 C 0.88558 0.26584 0.78678 0.0
C3199 C 0.93599 0.29362 0.8203 0.0
C3200 C 0.81498 0.26119 0.77237 0.0
C3201 C 0.83162 0.2613 0.77717 0.0
C3202 C 0.86732 0.28849 0.79952 0.0
C3203 C 0.91014 0.27795 0.80696 0.0
C3204 C 0.8929 0.27756 0.79975 0.0
C3205 C 0.84266 0.27642 0.77998 0.0
C3206 C 0.86001 0.27679 0.78659 0.0
H3207 H 0.93662 0.25191 0.81861 0.0
H3208 H 0.90896 0.25113 0.80515 0.0
H3209 H 0.88854 0.29776 0.81628 0.0
H3210 H 0.81623 0.30305 0.77069 0.0
H3211 H 0.8451 0.30317 0.77903 0.0
C3212 C 0.48822 0.17352 0.60519 0.0
C3213 C 0.4886 0.18847 0.59749 0.0
C3214 C 0.49088 0.15908 0.59653 0.0
C3215 C 0.51131 0.14639 0.56135 0.0
H3216 H 0.48723 0.10228 0.5657 0.0
C3217 C 0.50585 0.08083 0.52318 0.0
C3218 C 0.51937 0.07382 0.5292 0.0
C3219 C 0.50184 0.09475 0.53156 0.0
C3220 C 0.49404 0.11456 0.56449 0.0
H3221 H 0.49104 0.19978 0.57447 0.0
H3222 H 0.49559 0.17459 0.55935 0.0
H3223 H 0.47963 0.12662 0.58017 0.0
H3224 H 0.53969 0.07611 0.54825 0.0
H3225 H 0.53286 0.1009 0.56275 0.0
H3226 H 0.52574 0.13422 0.54573 0.0
C3227 C 0.4936 0.17411 0.57216 0.0
C3228 C 0.48975 0.12844 0.57275 0.0
C3229 C 0.49096 0.18851 0.5808 0.0
C3230 C 0.52921 0.08132 0.54339 0.0
C3231 C 0.52529 0.09537 0.55169 0.0
C3232 C 0.51569 0.1325 0.55326 0.0
C3233 C 0.49396 0.15933 0.58002 0.0
C3234 C 0.4983 0.14452 0.57121 0.0
C3235 C 0.51147 0.102 0.54591 0.0
C3236 C 0.50706 0.11655 0.55476 0.0
H3237 H 0.4866 0.17316 0.61809 0.0
H3238 H 0.4912 0.14792 0.60296 0.0
H3239 H 0.51826 0.15858 0.56008 0.0
H3240 H 0.49821 0.0754 0.51212 0.0
H3241 H 0.49122 0.09984 0.52687 0.0
C3242 C 0.61122 0.78134 0.33608 0.0
C3243 C 0.60041 0.79234 0.33188 0.0
C3244 C 0.6252 0.78101 0.32802 0.0
C3245 C 0.65273 0.80505 0.30166 0.0
H3246 H 0.66458 0.76186 0.29141 0.0
C3247 C 0.70343 0.7948 0.25987 0.0
C3248 C 0.71413 0.78422 0.26549 0.0
C3249 C 0.68952 0.79636 0.26781 0.0
C3250 C 0.66152 0.77403 0.2943 0.0
H3251 H 0.59588 0.81176 0.31605 0.0
H3252 H 0.62021 0.81103 0.30176 0.0
H3253 H 0.64052 0.76366 0.3056 0.0
H3254 H 0.71866 0.76684 0.28364 0.0
H3255 H 0.69456 0.76962 0.29752 0.0
H3256 H 0.67375 0.81534 0.29012 0.0
C3257 C 0.61802 0.80283 0.31148 0.0
C3258 C 0.64774 0.77508 0.30249 0.0
C3259 C 0.60406 0.80323 0.31964 0.0
C3260 C 0.71065 0.77515 0.27908 0.0
C3261 C 0.69679 0.77665 0.28696 0.0
C3262 C 0.6665 0.80399 0.29336 0.0
C3263 C 0.62869 0.79159 0.31547 0.0
C3264 C 0.64323 0.7906 0.30641 0.0
C3265 C 0.68602 0.78723 0.2814 0.0
C3266 C 0.67112 0.78847 0.28971 0.0
H3267 H 0.60891 0.77302 0.34568 0.0
H3268 H 0.63333 0.77248 0.33171 0.0
H3269 H 0.64974 0.81723 0.30463 0.0
H3270 H 0.70584 0.80191 0.24941 0.0
H3271 H 0.68138 0.8045 0.26317 0.0
C3272 C 0.0119 0.19561 0.46425 0.0
C3273 C 0.01364 0.19461 0.44739 0.0
C3274 C 0.01074 0.18133 0.47289 0.0
C3275 C 6e-05 0.13569 0.46674 0.0
H3276 H 0.02423 0.13647 0.50966 0.0
C3277 C 0.00839 0.07591 0.49722 0.0
C3278 C 0.00676 0.0755 0.51397 0.0
C3279 C 0.00864 0.09072 0.48961 0.0
C3280 C 0.01723 0.13613 0.49779 0.0
H3281 H 0.01549 0.1779 0.42637 0.0
H3282 H 0.01379 0.15303 0.44152 0.0
H3283 H 0.02594 0.16192 0.49529 0.0
H3284 H 0.00489 0.09027 0.53626 0.0
H3285 H 0.00522 0.11641 0.52296 0.0
H3286 H 0.99145 0.1099 0.46915 0.0
C3287 C 0.01314 0.16482 0.44801 0.0
C3288 C 0.01822 0.15068 0.48956 0.0
C3289 C 0.01432 0.17908 0.43938 0.0
C3290 C 0.00593 0.09029 0.52323 0.0
C3291 C 0.00619 0.1052 0.51564 0.0
C3292 C 0.99907 0.12117 0.47496 0.0
C3293 C 0.01126 0.16578 0.46483 0.0
C3294 C 0.00978 0.15055 0.47388 0.0
C3295 C 0.00743 0.10551 0.49871 0.0
C3296 C 0.00778 0.12119 0.49049 0.0
H3297 H 0.0115 0.20744 0.47078 0.0
H3298 H 0.00919 0.18242 0.48582 0.0
H3299 H 0.99315 0.13529 0.45481 0.0
H3300 H 0.01013 0.06496 0.49011 0.0
H3301 H 0.01016 0.09066 0.47667 0.0
C3302 C 0.57022 0.30344 0.21359 0.0
C3303 C 0.5737 0.30911 0.19828 0.0
C3304 C 0.58273 0.30437 0.2264 0.0
C3305 C 0.62668 0.32108 0.23919 0.0
H3306 H 0.62866 0.27595 0.25058 0.0
C3307 C 0.68505 0.29447 0.2418 0.0
C3308 C 0.68865 0.28357 0.25364 0.0
C3309 C 0.67025 0.30033 0.24088 0.0
C3310 C 0.62817 0.28873 0.24798 0.0
H3311 H 0.59277 0.32137 0.1848 0.0
H3312 H 0.61451 0.32308 0.20707 0.0
H3313 H 0.60286 0.28281 0.23875 0.0
H3314 H 0.6798 0.27024 0.2739 0.0
H3315 H 0.65342 0.28027 0.27201 0.0
H3316 H 0.65231 0.32664 0.24736 0.0
C3317 C 0.60212 0.31801 0.20927 0.0
C3318 C 0.61338 0.29268 0.24121 0.0
C3319 C 0.58965 0.31697 0.19646 0.0
C3320 C 0.67718 0.27857 0.26458 0.0
C3321 C 0.66221 0.28435 0.26357 0.0
C3322 C 0.64145 0.31712 0.24597 0.0
C3323 C 0.59889 0.31114 0.22414 0.0
C3324 C 0.61276 0.30864 0.23587 0.0
C3325 C 0.65868 0.29537 0.25175 0.0
C3326 C 0.64251 0.30067 0.24948 0.0
H3327 H 0.55793 0.29771 0.2155 0.0
H3328 H 0.5799 0.29915 0.2378 0.0
H3329 H 0.62643 0.33354 0.23545 0.0
H3330 H 0.69373 0.29856 0.23326 0.0
H3331 H 0.66769 0.30847 0.23137 0.0
C3332 C 0.54033 0.86057 0.96059 0.0
C3333 C 0.52582 0.84914 0.95597 0.0
C3334 C 0.53989 0.87586 0.96899 0.0
C3335 C 0.51421 0.89858 0.99332 0.0
H3336 H 0.53854 0.93759 0.97683 0.0
C3337 C 0.50209 0.96534 0.00793 0.0
C3338 C 0.51551 0.97845 0.00971 0.0
C3339 C 0.50416 0.94911 0.00334 0.0
C3340 C 0.5319 0.92683 0.9818 0.0
H3341 H 0.49947 0.84474 0.9567 0.0
H3342 H 0.49873 0.87137 0.97142 0.0
H3343 H 0.54081 0.91 0.96533 0.0
H3344 H 0.54179 0.98464 0.00886 0.0
H3345 H 0.54541 0.95634 0.00118 0.0
H3346 H 0.50515 0.91547 0.00967 0.0
C3347 C 0.51047 0.86842 0.96873 0.0
C3348 C 0.53319 0.91101 0.97519 0.0
C3349 C 0.51091 0.85315 0.9603 0.0
C3350 C 0.53115 0.97487 0.00745 0.0
C3351 C 0.53322 0.95865 0.00295 0.0
C3352 C 0.51296 0.91443 -1e-05 0.0
C3353 C 0.52492 0.88002 0.97297 0.0
C3354 C 0.52426 0.89672 0.98077 0.0
C3355 C 0.51971 0.94564 0.00052 0.0
C3356 C 0.52168 0.92874 0.9942 0.0
H3357 H 0.55204 0.85774 0.95766 0.0
H3358 H 0.55125 0.88446 0.97231 0.0
H3359 H 0.50733 0.88778 0.99799 0.0
H3360 H 0.48986 0.96767 0.00952 0.0
H3361 H 0.49346 0.93941 0.00141 0.0
C3362 C 0.92209 0.79493 0.69271 0.0
C3363 C 0.92908 0.78126 0.68747 0.0
C3364 C 0.9118 0.79362 0.70511 0.0
C3365 C 0.88341 0.76395 0.7237 0.0
H3366 H 0.88527 0.80137 0.75568 0.0
C3367 C 0.83001 0.76876 0.76159 0.0
C3368 C 0.82425 0.78387 0.75982 0.0
C3369 C 0.84562 0.76711 0.75757 0.0
C3370 C 0.88468 0.79076 0.74692 0.0
H3371 H 0.93077 0.75546 0.69108 0.0
H3372 H 0.91234 0.75306 0.71263 0.0
H3373 H 0.90767 0.80056 0.73869 0.0
H3374 H 0.83041 0.80935 0.75355 0.0
H3375 H 0.85759 0.80649 0.74641 0.0
H3376 H 0.86003 0.75459 0.73124 0.0
C3377 C 0.91497 0.7648 0.70713 0.0
C3378 C 0.89746 0.79031 0.73721 0.0
C3379 C 0.92538 0.76614 0.69474 0.0
C3380 C 0.8346 0.79757 0.75496 0.0
C3381 C 0.85021 0.79595 0.75102 0.0
C3382 C 0.87061 0.76441 0.7334 0.0
C3383 C 0.9082 0.77859 0.7125 0.0
C3384 C 0.89658 0.77727 0.72503 0.0
C3385 C 0.85568 0.78056 0.75181 0.0
C3386 C 0.87081 0.77818 0.74459 0.0
H3387 H 0.92447 0.80665 0.68714 0.0
H3388 H 0.90639 0.80432 0.70868 0.0
H3389 H 0.88241 0.75377 0.71436 0.0
H3390 H 0.82221 0.75803 0.7654 0.0
H3391 H 0.84959 0.75516 0.75841 0.0
C3392 C 0.07736 0.01585 0.85452 0.0
C3393 C 0.08653 0.00293 0.85301 0.0
C3394 C 0.0672 0.01645 0.867 0.0
C3395 C 0.0464 0.99129 0.89732 0.0
H3396 H 0.04799 0.03448 0.9204 0.0
C3397 C 0.02269 0.00083 0.96066 0.0
C3398 C 0.01565 0.01509 0.96375 0.0
C3399 C 0.02925 0.99819 0.94588 0.0
C3400 C 0.04716 0.02237 0.91392 0.0
H3401 H 0.09209 0.98038 0.86327 0.0
H3402 H 0.07444 0.98154 0.88526 0.0
H3403 H 0.06367 0.03215 0.89719 0.0
H3404 H 0.00896 0.03715 0.9533 0.0
H3405 H 0.02015 0.03241 0.92748 0.0
H3406 H 0.03006 0.98151 0.91435 0.0
C3407 C 0.07494 0.99107 0.87663 0.0
C3408 C 0.05619 0.02103 0.90061 0.0
C3409 C 0.08509 0.99043 0.86407 0.0
C3410 C 0.01448 0.02615 0.9514 0.0
C3411 C 0.02096 0.02347 0.93663 0.0
C3412 C 0.03735 0.99264 0.91069 0.0
C3413 C 0.06601 0.00419 0.87832 0.0
C3414 C 0.05597 0.00548 0.89218 0.0
C3415 C 0.02884 0.00974 0.93388 0.0
C3416 C 0.03769 0.0082 0.91916 0.0
H3417 H 0.07795 0.02545 0.84595 0.0
H3418 H 0.06024 0.02654 0.86776 0.0
H3419 H 0.04583 0.97917 0.89095 0.0
H3420 H 0.02384 0.99208 0.96994 0.0
H3421 H 0.03533 0.98754 0.94419 0.0
C3422 C 0.74483 0.35642 0.61371 0.0
C3423 C 0.73328 0.34884 0.60066 0.0
C3424 C 0.74715 0.34851 0.62818 0.0
C3425 C 0.73961 0.30699 0.645 0.0
H3426 H 0.74781 0.33293 0.68698 0.0
C3427 C 0.73737 0.27644 0.70639 0.0
C3428 C 0.74983 0.28267 0.71904 0.0
C3429 C 0.7357 0.28473 0.69209 0.0
C3430 C 0.74569 0.32554 0.67534 0.0
H3431 H 0.71518 0.32683 0.59275 0.0
H3432 H 0.71882 0.31334 0.61812 0.0
H3433 H 0.74401 0.3469 0.66181 0.0
H3434 H 0.77045 0.30236 0.72663 0.0
H3435 H 0.76738 0.31709 0.70169 0.0
H3436 H 0.74103 0.2856 0.65858 0.0
C3437 C 0.72632 0.32529 0.61707 0.0
C3438 C 0.74354 0.33354 0.66088 0.0
C3439 C 0.72406 0.33316 0.60256 0.0
C3440 C 0.76058 0.29743 0.71716 0.0
C3441 C 0.75883 0.30583 0.70289 0.0
C3442 C 0.74164 0.29899 0.65945 0.0
C3443 C 0.73793 0.33283 0.63007 0.0
C3444 C 0.74041 0.32437 0.64551 0.0
C3445 C 0.74642 0.29951 0.69014 0.0
C3446 C 0.74465 0.30815 0.67479 0.0
H3447 H 0.75201 0.36859 0.61284 0.0
H3448 H 0.75634 0.35464 0.63783 0.0
H3449 H 0.73757 0.29952 0.63341 0.0
H3450 H 0.72887 0.26512 0.70752 0.0
H3451 H 0.72588 0.27966 0.68261 0.0
C3452 C 0.43959 0.06853 0.347 0.0
C3453 C 0.44379 0.05973 0.33326 0.0
C3454 C 0.44665 0.06659 0.36279 0.0
C3455 C 0.46796 0.03737 0.38625 0.0
H3456 H 0.47716 0.07432 0.41958 0.0
C3457 C 0.5001 0.03248 0.45134 0.0
C3458 C 0.49307 0.03931 0.4645 0.0
C3459 C 0.49494 0.03524 0.43514 0.0
C3460 C 0.47456 0.06385 0.41043 0.0
H3461 H 0.45921 0.04246 0.32528 0.0
H3462 H 0.47173 0.03928 0.35274 0.0
H3463 H 0.46702 0.07894 0.39168 0.0
H3464 H 0.47516 0.05452 0.47088 0.0
H3465 H 0.46628 0.05937 0.44272 0.0
H3466 H 0.47561 0.02233 0.40507 0.0
C3467 C 0.46267 0.04738 0.35141 0.0
C3468 C 0.4687 0.06648 0.39442 0.0
C3469 C 0.45553 0.04925 0.33564 0.0
C3470 C 0.48084 0.04904 0.46107 0.0
C3471 C 0.47582 0.05193 0.44492 0.0
C3472 C 0.47393 0.03477 0.40224 0.0
C3473 C 0.45819 0.05587 0.36523 0.0
C3474 C 0.46516 0.05325 0.38214 0.0
C3475 C 0.48277 0.04504 0.43175 0.0
C3476 C 0.47715 0.04794 0.41456 0.0
H3477 H 0.43042 0.07652 0.34563 0.0
H3478 H 0.44268 0.07314 0.37311 0.0
H3479 H 0.46514 0.0268 0.37723 0.0
H3480 H 0.50951 0.02489 0.45352 0.0
H3481 H 0.50062 0.02984 0.42527 0.0
C3482 C 0.78356 0.73505 0.07788 0.0
C3483 C 0.79429 0.7238 0.07512 0.0
C3484 C 0.78506 0.74444 0.09285 0.0
C3485 C 0.79854 0.73991 0.13539 0.0
H3486 H 0.78472 0.78269 0.14247 0.0
C3487 C 0.78635 0.7639 0.19912 0.0
C3488 C 0.77137 0.76961 0.19962 0.0
C3489 C 0.7926 0.76148 0.18421 0.0
C3490 C 0.78863 0.77075 0.14065 0.0
H3491 H 0.81582 0.71454 0.08534 0.0
H3492 H 0.81865 0.73124 0.11137 0.0
H3493 H 0.79079 0.77356 0.11517 0.0
H3494 H 0.75136 0.77777 0.18523 0.0
H3495 H 0.76208 0.77311 0.15896 0.0
H3496 H 0.7958 0.73674 0.1606 0.0
C3497 C 0.80888 0.73254 0.10207 0.0
C3498 C 0.79213 0.76555 0.12507 0.0
C3499 C 0.80734 0.72308 0.08711 0.0
C3500 C 0.76289 0.77324 0.18507 0.0
C3501 C 0.76912 0.77076 0.17011 0.0
C3502 C 0.79509 0.74511 0.15092 0.0
C3503 C 0.79736 0.74281 0.10532 0.0
C3504 C 0.79666 0.74985 0.1222 0.0
C3505 C 0.78394 0.76467 0.16953 0.0
C3506 C 0.78966 0.76036 0.1536 0.0
H3507 H 0.77361 0.73613 0.0687 0.0
H3508 H 0.77593 0.75216 0.09497 0.0
H3509 H 0.80171 0.72762 0.13355 0.0
H3510 H 0.79325 0.76125 0.21024 0.0
H3511 H 0.80414 0.75696 0.18415 0.0
C3512 C 0.07984 0.98807 0.68766 0.0
C3513 C 0.07421 0.99075 0.70301 0.0
C3514 C 0.06956 0.98823 0.67324 0.0
C3515 C 0.0344 0.00642 0.65763 0.0
H3516 H 0.03759 0.97917 0.61814 0.0
C3517 C 0.02241 0.02809 0.59334 0.0
C3518 C 0.01554 0.01638 0.58033 0.0
C3519 C 0.026 0.02296 0.60896 0.0
C3520 C 0.03629 0.9867 0.62909 0.0
H3521 H 0.0531 0.99488 0.71527 0.0
H3522 H 0.03514 0.99527 0.68999 0.0
H3523 H 0.05026 0.97263 0.6444 0.0
H3524 H 0.00649 0.99022 0.57339 0.0
H3525 H 0.01268 0.9812 0.60082 0.0
H3526 H 0.02063 0.02064 0.64229 0.0
C3527 C 0.04759 0.99323 0.68916 0.0
C3528 C 0.04371 0.98306 0.64411 0.0
C3529 C 0.05788 0.99305 0.70362 0.0
C3530 C 0.01184 0.99948 0.58326 0.0
C3531 C 0.01544 0.99433 0.59892 0.0
C3532 C 0.02695 0.01005 0.64261 0.0
C3533 C 0.05341 0.99109 0.67382 0.0
C3534 C 0.04329 0.9932 0.65845 0.0
C3535 C 0.02277 0.006 0.61189 0.0
C3536 C 0.02827 0.00055 0.6281 0.0
H3537 H 0.09241 0.98653 0.68674 0.0
H3538 H 0.07453 0.98685 0.66163 0.0
H3539 H 0.0339 0.01453 0.66843 0.0
H3540 H 0.02539 0.04119 0.59136 0.0
H3541 H 0.0319 0.03224 0.6186 0.0
C3542 C 0.74593 0.35344 0.43298 0.0
C3543 C 0.73115 0.34925 0.43997 0.0
C3544 C 0.74803 0.34628 0.41762 0.0
C3545 C 0.7302 0.31096 0.38664 0.0
H3546 H 0.75762 0.33682 0.35855 0.0
C3547 C 0.73357 0.29193 0.31793 0.0
C3548 C 0.74938 0.29261 0.31302 0.0
C3549 C 0.73139 0.29826 0.33361 0.0
C3550 C 0.75003 0.32942 0.36633 0.0
H3551 H 0.7069 0.33417 0.4359 0.0
H3552 H 0.71023 0.32239 0.40877 0.0
H3553 H 0.75315 0.34935 0.38503 0.0
H3554 H 0.7753 0.30051 0.32071 0.0
H3555 H 0.77142 0.31197 0.34803 0.0
H3556 H 0.72665 0.29126 0.36746 0.0
C3557 C 0.72043 0.33087 0.41542 0.0
C3558 C 0.74751 0.33655 0.38158 0.0
C3559 C 0.71841 0.33786 0.43094 0.0
C3560 C 0.76297 0.29973 0.32416 0.0
C3561 C 0.76076 0.30636 0.33975 0.0
C3562 C 0.7325 0.30394 0.37125 0.0
C3563 C 0.73531 0.33493 0.40855 0.0
C3564 C 0.73764 0.3274 0.39205 0.0
C3565 C 0.74494 0.3057 0.34462 0.0
C3566 C 0.74253 0.31307 0.36099 0.0
H3567 H 0.75595 0.3624 0.4393 0.0
H3568 H 0.75977 0.34959 0.41298 0.0
H3569 H 0.72277 0.30336 0.39439 0.0
H3570 H 0.72284 0.28649 0.30965 0.0
H3571 H 0.71906 0.29767 0.33701 0.0
C3572 C 0.43357 0.04136 0.16183 0.0
C3573 C 0.43973 0.0547 0.17364 0.0
C3574 C 0.44147 0.03898 0.14781 0.0
C3575 C 0.46925 0.06107 0.12114 0.0
H3576 H 0.47739 0.01708 0.10762 0.0
C3577 C 0.5106 0.05114 0.07029 0.0
C3578 C 0.50636 0.03673 0.05953 0.0
C3579 C 0.50224 0.0531 0.08405 0.0
C3580 C 0.47501 0.02941 0.11104 0.0
H3581 H 0.45926 0.0759 0.17985 0.0
H3582 H 0.47277 0.07195 0.15522 0.0
H3583 H 0.4631 0.02099 0.13175 0.0
H3584 H 0.49051 0.01279 0.05502 0.0
H3585 H 0.47535 0.01643 0.07863 0.0
H3586 H 0.48085 0.06951 0.10035 0.0
C3587 C 0.46175 0.06338 0.15683 0.0
C3588 C 0.46686 0.03165 0.12492 0.0
C3589 C 0.45396 0.06566 0.17094 0.0
C3590 C 0.49374 0.0242 0.0629 0.0
C3591 C 0.48525 0.0262 0.07659 0.0
C3592 C 0.47725 0.05882 0.10717 0.0
C3593 C 0.45563 0.04999 0.14514 0.0
C3594 C 0.46399 0.04752 0.13019 0.0
C3595 C 0.48936 0.04072 0.08735 0.0
C3596 C 0.48037 0.04298 0.10199 0.0
H3597 H 0.42248 0.03283 0.16325 0.0
H3598 H 0.43633 0.02868 0.13892 0.0
H3599 H 0.467 0.07341 0.12474 0.0
H3600 H 0.52037 0.06098 0.06806 0.0
H3601 H 0.50603 0.06429 0.09218 0.0
C3602 C 0.79283 0.71667 0.91644 0.0
C3603 C 0.7882 0.72121 0.9318 0.0
C3604 C 0.79465 0.72826 0.90469 0.0
C3605 C 0.8017 0.75589 0.88243 0.0
H3606 H 0.76507 0.77979 0.87764 0.0
C3607 C 0.78657 0.78555 0.82284 0.0
C3608 C 0.77004 0.78108 0.8164 0.0
C3609 C 0.7914 0.78354 0.83923 0.0
C3610 C 0.77544 0.77329 0.87886 0.0
H3611 H 0.78311 0.74163 0.9475 0.0
H3612 H 0.78648 0.76201 0.927 0.0
H3613 H 0.76997 0.76562 0.90235 0.0
H3614 H 0.74549 0.77192 0.8223 0.0
H3615 H 0.75393 0.768 0.8507 0.0
H3616 H 0.80634 0.76238 0.85836 0.0
C3617 C 0.78832 0.74941 0.92388 0.0
C3618 C 0.77839 0.76533 0.89312 0.0
C3619 C 0.78638 0.73777 0.93559 0.0
C3620 C 0.75832 0.77545 0.82688 0.0
C3621 C 0.76316 0.77334 0.84323 0.0
C3622 C 0.79867 0.76373 0.86811 0.0
C3623 C 0.79199 0.74465 0.90814 0.0
C3624 C 0.79114 0.75596 0.89476 0.0
C3625 C 0.77981 0.77694 0.84947 0.0
C3626 C 0.78508 0.77192 0.8659 0.0
H3627 H 0.79423 0.70395 0.91322 0.0
H3628 H 0.79723 0.72408 0.89261 0.0
H3629 H 0.81183 0.74905 0.88349 0.0
H3630 H 0.79588 0.79016 0.81513 0.0
H3631 H 0.80427 0.78668 0.84376 0.0
C3632 C 0.85997 0.10014 0.00354 0.0
C3633 C 0.86374 0.11756 0.00392 0.0
C3634 C 0.87235 0.09045 0.00342 0.0
C3635 C 0.91671 0.09217 0.99742 0.0
H3636 H 0.91063 0.05141 0.01958 0.0
C3637 C 0.96217 0.04527 0.99509 0.0
C3638 C 0.96452 0.03608 0.00874 0.0
C3639 C 0.95018 0.05554 0.9943 0.0
C3640 C 0.91273 0.06286 0.01353 0.0
H3641 H 0.8834 0.13855 0.00442 0.0
H3642 H 0.9052 0.12175 0.00496 0.0
H3643 H 0.88971 0.06879 0.019 0.0
H3644 H 0.95664 0.03066 0.03245 0.0
H3645 H 0.93628 0.04896 0.03148 0.0
H3646 H 0.9402 0.08662 0.99277 0.0
C3647 C 0.89264 0.11544 0.00425 0.0
C3648 C 0.90049 0.07274 0.0129 0.0
C3649 C 0.88017 0.12512 0.00404 0.0
C3650 C 0.95491 0.03748 0.02169 0.0
C3651 C 0.94315 0.04793 0.02104 0.0
C3652 C 0.92912 0.0824 0.99829 0.0
C3653 C 0.88893 0.09793 0.00403 0.0
C3654 C 0.90221 0.08751 0.00476 0.0
C3655 C 0.94043 0.05697 0.00725 0.0
C3656 C 0.9273 0.06756 0.00633 0.0
H3657 H 0.84736 0.09399 0.00319 0.0
H3658 H 0.86885 0.07705 0.00277 0.0
H3659 H 0.91849 0.10331 0.99085 0.0
H3660 H 0.96935 0.04426 0.98488 0.0
H3661 H 0.94837 0.06205 0.98336 0.0
C3662 C 0.33658 0.44571 0.03795 0.0
C3663 C 0.32699 0.43792 0.0237 0.0
C3664 C 0.35281 0.45329 0.03731 0.0
C3665 C 0.38699 0.45557 0.01095 0.0
H3666 H 0.40319 0.49705 0.03733 0.0
C3667 C 0.44675 0.49985 0.00172 0.0
C3668 C 0.45745 0.50521 0.01602 0.0
C3669 C 0.43099 0.49117 0.00274 0.0
C3670 C 0.39883 0.48542 0.02998 0.0
H3671 H 0.32721 0.43155 0.99769 0.0
H3672 H 0.35509 0.44541 0.99644 0.0
H3673 H 0.37543 0.48265 0.03906 0.0
H3674 H 0.46 0.5058 0.04261 0.0
H3675 H 0.4324 0.49093 0.04434 0.0
H3676 H 0.41035 0.45874 0.00154 0.0
C3677 C 0.35023 0.44543 0.00819 0.0
C3678 C 0.38297 0.4771 0.03103 0.0
C3679 C 0.3341 0.4377 0.00886 0.0
C3680 C 0.45205 0.50183 0.03135 0.0
C3681 C 0.43624 0.49338 0.03237 0.0
C3682 C 0.40278 0.46403 0.00974 0.0
C3683 C 0.35979 0.45339 0.02239 0.0
C3684 C 0.37683 0.46206 0.02153 0.0
C3685 C 0.42558 0.48794 0.01809 0.0
C3686 C 0.40884 0.47901 0.01926 0.0
H3687 H 0.3315 0.44625 0.04957 0.0
H3688 H 0.35986 0.45905 0.04856 0.0
H3689 H 0.38281 0.44388 0.00368 0.0
H3690 H 0.45059 0.50218 0.98973 0.0
H3691 H 0.42294 0.48717 0.99156 0.0
C3692 C 0.31448 0.62315 0.76128 0.0
C3693 C 0.3305 0.62627 0.75677 0.0
C3694 C 0.30559 0.63615 0.76318 0.0
C3695 C 0.31018 0.68221 0.76895 0.0
H3696 H 0.26421 0.67413 0.75201 0.0
C3697 C 0.2682 0.73144 0.77746 0.0
C3698 C 0.25745 0.73338 0.76374 0.0
C3699 C 0.27696 0.71818 0.77746 0.0
C3700 C 0.27706 0.67663 0.75673 0.0
H3701 H 0.34972 0.64547 0.75068 0.0
H3702 H 0.33417 0.66812 0.75383 0.0
H3703 H 0.28004 0.65161 0.75028 0.0
H3704 H 0.24701 0.72288 0.73945 0.0
H3705 H 0.26227 0.69976 0.73937 0.0
H3706 H 0.30728 0.70739 0.77492 0.0
C3707 C 0.32857 0.65568 0.7562 0.0
C3708 C 0.28609 0.66365 0.75592 0.0
C3709 C 0.33748 0.64269 0.75436 0.0
C3710 C 0.25522 0.72162 0.75021 0.0
C3711 C 0.26393 0.70837 0.75019 0.0
C3712 C 0.30114 0.69521 0.76974 0.0
C3713 C 0.31248 0.65256 0.76055 0.0
C3714 C 0.30279 0.66629 0.76193 0.0
C3715 C 0.27498 0.70653 0.76377 0.0
C3716 C 0.28449 0.69259 0.76353 0.0
H3717 H 0.30887 0.61068 0.7635 0.0
H3718 H 0.29334 0.63334 0.76682 0.0
H3719 H 0.32297 0.68464 0.77386 0.0
H3720 H 0.26989 0.74022 0.78816 0.0
H3721 H 0.28517 0.71699 0.78821 0.0
C3722 C 0.19991 0.59765 0.48316 0.0
C3723 C 0.20941 0.60394 0.498 0.0
C3724 C 0.18394 0.58898 0.48314 0.0
C3725 C 0.15611 0.56578 0.50923 0.0
H3726 H 0.12145 0.57989 0.48127 0.0
C3727 C 0.08857 0.55014 0.52104 0.0
C3728 C 0.07635 0.54757 0.50771 0.0
C3729 C 0.10497 0.55522 0.51864 0.0
C3730 C 0.13096 0.57553 0.48894 0.0
H3731 H 0.20937 0.60607 0.52447 0.0
H3732 H 0.18175 0.59072 0.5244 0.0
H3733 H 0.14994 0.59173 0.47912 0.0
H3734 H 0.07158 0.54779 0.48135 0.0
H3735 H 0.10033 0.55622 0.47702 0.0
H3736 H 0.13726 0.54958 0.51908 0.0
C3737 C 0.18674 0.59234 0.51279 0.0
C3738 C 0.1473 0.58237 0.48772 0.0
C3739 C 0.20261 0.60111 0.51282 0.0
C3740 C 0.08081 0.5498 0.49185 0.0
C3741 C 0.09726 0.55472 0.48941 0.0
C3742 C 0.1398 0.55881 0.51035 0.0
C3743 C 0.17718 0.5863 0.49797 0.0
C3744 C 0.16001 0.57782 0.49809 0.0
C3745 C 0.10955 0.55766 0.5028 0.0
C3746 C 0.12698 0.56386 0.50047 0.0
H3747 H 0.20482 0.5994 0.47154 0.0
H3748 H 0.17689 0.58434 0.47153 0.0
H3749 H 0.16568 0.56185 0.51721 0.0
H3750 H 0.08544 0.54859 0.53341 0.0
H3751 H 0.11398 0.55766 0.5293 0.0
C3752 C 0.6732 0.91955 0.75921 0.0
C3753 C 0.66235 0.91934 0.77134 0.0
C3754 C 0.68326 0.90746 0.75803 0.0
C3755 C 0.68853 0.86557 0.77091 0.0
H3756 H 0.73316 0.87932 0.76105 0.0
C3757 C 0.7375 0.82296 0.77751 0.0
C3758 C 0.74756 0.8223 0.76481 0.0
C3759 C 0.727 0.83467 0.77805 0.0
C3760 C 0.72068 0.87525 0.76365 0.0
H3761 H 0.65341 0.90589 0.79153 0.0
H3762 H 0.67125 0.8851 0.78977 0.0
H3763 H 0.71491 0.89977 0.76246 0.0
H3764 H 0.75495 0.83366 0.74299 0.0
H3765 H 0.7367 0.85433 0.74398 0.0
H3766 H 0.69444 0.84107 0.77232 0.0
C3767 C 0.67183 0.89451 0.78101 0.0
C3768 C 0.71018 0.88697 0.76443 0.0
C3769 C 0.66172 0.90658 0.78214 0.0
C3770 C 0.74729 0.83389 0.75289 0.0
C3771 C 0.73686 0.84572 0.75349 0.0
C3772 C 0.69906 0.85387 0.77022 0.0
C3773 C 0.68282 0.89485 0.769 0.0
C3774 C 0.69395 0.8823 0.76806 0.0
C3775 C 0.7265 0.84616 0.76601 0.0
C3776 C 0.71526 0.85858 0.76659 0.0
H3777 H 0.67422 0.92929 0.7508 0.0
H3778 H 0.69138 0.90801 0.74848 0.0
H3779 H 0.67605 0.86145 0.77347 0.0
H3780 H 0.73783 0.81447 0.78713 0.0
H3781 H 0.71942 0.83488 0.78803 0.0
C3782 C 0.65727 0.93921 0.50808 0.0
C3783 C 0.67382 0.94613 0.50766 0.0
C3784 C 0.64489 0.9479 0.50278 0.0
C3785 C 0.63609 0.9894 0.4994 0.0
H3786 H 0.5974 0.96702 0.47169 0.0
C3787 C 0.57908 0.02039 0.48976 0.0
C3788 C 0.56447 0.00992 0.49201 0.0
C3789 C 0.59316 0.01365 0.48735 0.0
C3790 C 0.60811 0.97345 0.47945 0.0
H3791 H 0.6903 0.96762 0.50113 0.0
H3792 H 0.66854 0.98308 0.49245 0.0
H3793 H 0.62104 0.95303 0.47634 0.0
H3794 H 0.5527 0.98428 0.4926 0.0
H3795 H 0.57721 0.97255 0.48882 0.0
H3796 H 0.62291 0.00939 0.5034 0.0
C3797 C 0.66528 0.97084 0.4968 0.0
C3798 C 0.62163 0.96546 0.48205 0.0
C3799 C 0.67769 0.96204 0.5019 0.0
C3800 C 0.56386 0.99262 0.49093 0.0
C3801 C 0.5779 0.9859 0.48862 0.0
C3802 C 0.6225 0.99733 0.49696 0.0
C3803 C 0.64878 0.96379 0.49713 0.0
C3804 C 0.63554 0.97318 0.49241 0.0
C3805 C 0.59283 0.99635 0.48722 0.0
C3806 C 0.60816 0.98923 0.48736 0.0
H3807 H 0.65384 0.92715 0.51274 0.0
H3808 H 0.63225 0.94234 0.50347 0.0
H3809 H 0.64666 0.99556 0.50752 0.0
H3810 H 0.57978 0.03378 0.49045 0.0
H3811 H 0.6044 0.02201 0.48605 0.0
C3812 C 0.31719 0.46306 0.75127 0.0
C3813 C 0.33305 0.46725 0.74661 0.0
C3814 C 0.31042 0.44642 0.75265 0.0
C3815 C 0.3156 0.40299 0.74065 0.0
H3816 H 0.28757 0.3923 0.77488 0.0
C3817 C 0.27946 0.33688 0.74333 0.0
C3818 C 0.27734 0.33081 0.75877 0.0
C3819 C 0.2863 0.35348 0.74202 0.0
C3820 C 0.29552 0.39501 0.76536 0.0
H3821 H 0.35436 0.45735 0.73998 0.0
H3822 H 0.34277 0.42839 0.74274 0.0
H3823 H 0.29966 0.42112 0.77245 0.0
H3824 H 0.28095 0.33744 0.78497 0.0
H3825 H 0.29335 0.3663 0.78273 0.0
H3826 H 0.31201 0.37685 0.73396 0.0
C3827 C 0.33532 0.43785 0.74491 0.0
C3828 C 0.30226 0.41162 0.7638 0.0
C3829 C 0.342 0.45447 0.74335 0.0
C3830 C 0.2823 0.34174 0.77288 0.0
C3831 C 0.28934 0.35833 0.77158 0.0
C3832 C 0.30899 0.38638 0.74232 0.0
C3833 C 0.31943 0.43358 0.7496 0.0
C3834 C 0.31234 0.41586 0.75137 0.0
C3835 C 0.29141 0.36444 0.75612 0.0
C3836 C 0.29878 0.38215 0.75463 0.0
H3837 H 0.30995 0.47264 0.7537 0.0
H3838 H 0.29805 0.44364 0.75598 0.0
H3839 H 0.32313 0.40573 0.7308 0.0
H3840 H 0.27565 0.32885 0.73218 0.0
H3841 H 0.28736 0.35775 0.7299 0.0
C3842 C 0.19019 0.57911 0.2709 0.0
C3843 C 0.17826 0.57657 0.28189 0.0
C3844 C 0.1987 0.59513 0.26942 0.0
C3845 C 0.19385 0.63903 0.27667 0.0
H3846 H 0.23977 0.64896 0.2698 0.0
C3847 C 0.22805 0.70614 0.27925 0.0
C3848 C 0.23777 0.71024 0.26657 0.0
C3849 C 0.22172 0.68956 0.28116 0.0
C3850 C 0.2269 0.64631 0.27157 0.0
H3851 H 0.16667 0.58853 0.30074 0.0
H3852 H 0.18163 0.61635 0.29839 0.0
H3853 H 0.22732 0.6203 0.27355 0.0
H3854 H 0.24887 0.70032 0.2462 0.0
H3855 H 0.23782 0.67113 0.24961 0.0
H3856 H 0.19339 0.66496 0.27481 0.0
C3857 C 0.18411 0.60612 0.29054 0.0
C3858 C 0.21977 0.62993 0.27371 0.0
C3859 C 0.17559 0.59018 0.29194 0.0
C3860 C 0.24137 0.69745 0.25605 0.0
C3861 C 0.23512 0.68078 0.25805 0.0
C3862 C 0.20096 0.65535 0.27462 0.0
C3863 C 0.19545 0.60888 0.27897 0.0
C3864 C 0.20319 0.62614 0.27643 0.0
C3865 C 0.22506 0.67671 0.2705 0.0
C3866 C 0.21758 0.6592 0.27218 0.0
H3867 H 0.19242 0.56884 0.26293 0.0
H3868 H 0.2073 0.59684 0.26034 0.0
H3869 H 0.18094 0.6365 0.27829 0.0
H3870 H 0.22516 0.71578 0.28758 0.0
H3871 H 0.21419 0.68677 0.29101 0.0
C3872 C 0.52962 0.70488 0.4325 0.0
C3873 C 0.51782 0.71548 0.43199 0.0
C3874 C 0.52817 0.69127 0.44208 0.0
C3875 C 0.49914 0.66033 0.45717 0.0
H3876 H 0.53426 0.65495 0.48998 0.0
C3877 C 0.49527 0.60138 0.49303 0.0
C3878 C 0.50987 0.59511 0.4964 0.0
C3879 C 0.4956 0.61718 0.48721 0.0
C3880 C 0.52441 0.6561 0.48072 0.0
H3881 H 0.4953 0.71993 0.44154 0.0
H3882 H 0.49242 0.69556 0.45753 0.0
H3883 H 0.53623 0.68027 0.47546 0.0
H3884 H 0.53623 0.60031 0.4965 0.0
H3885 H 0.53685 0.6274 0.48565 0.0
H3886 H 0.4877 0.63587 0.46152 0.0
C3887 C 0.50286 0.69808 0.45059 0.0
C3888 C 0.52552 0.67068 0.47253 0.0
C3889 C 0.50448 0.71195 0.4413 0.0
C3890 C 0.52481 0.60494 0.49411 0.0
C3891 C 0.52514 0.62056 0.48799 0.0
C3892 C 0.49818 0.64557 0.46509 0.0
C3893 C 0.51473 0.68769 0.45108 0.0
C3894 C 0.51297 0.67283 0.46059 0.0
C3895 C 0.51053 0.62689 0.48433 0.0
C3896 C 0.51091 0.64315 0.47684 0.0
H3897 H 0.53986 0.70685 0.42526 0.0
H3898 H 0.53737 0.68326 0.44213 0.0
H3899 H 0.48938 0.66171 0.44789 0.0
H3900 H 0.48359 0.59403 0.49481 0.0
H3901 H 0.48413 0.6217 0.48488 0.0
C3902 C 0.58112 0.28953 0.716 0.0
C3903 C 0.57468 0.27673 0.70368 0.0
C3904 C 0.59698 0.29051 0.72391 0.0
C3905 C 0.62772 0.26599 0.73628 0.0
H3906 H 0.66072 0.30419 0.73129 0.0
C3907 C 0.69649 0.26431 0.75111 0.0
C3908 C 0.70739 0.27916 0.7561 0.0
C3909 C 0.67993 0.26456 0.74646 0.0
C3910 C 0.65166 0.29357 0.73319 0.0
H3911 H 0.58038 0.25516 0.68993 0.0
H3912 H 0.60751 0.25646 0.70437 0.0
H3913 H 0.63232 0.30385 0.72041 0.0
H3914 H 0.70938 0.30585 0.76081 0.0
H3915 H 0.68036 0.30625 0.75354 0.0
H3916 H 0.64671 0.25576 0.74937 0.0
C3917 C 0.60021 0.2657 0.7078 0.0
C3918 C 0.6354 0.29338 0.72684 0.0
C3919 C 0.58455 0.26491 0.69963 0.0
C3920 C 0.70128 0.29421 0.75688 0.0
C3921 C 0.68463 0.29443 0.75257 0.0
C3922 C 0.64389 0.2663 0.74295 0.0
C3923 C 0.60658 0.27853 0.71992 0.0
C3924 C 0.62338 0.27946 0.72807 0.0
C3925 C 0.67374 0.27964 0.74701 0.0
C3926 C 0.65619 0.27994 0.7412 0.0
H3927 H 0.5739 0.29873 0.71969 0.0
H3928 H 0.60168 0.3005 0.73328 0.0
H3929 H 0.61859 0.25516 0.73746 0.0
H3930 H 0.70087 0.25253 0.75019 0.0
H3931 H 0.67213 0.25292 0.74195 0.0
C3932 C 0.03157 0.37595 0.93822 0.0
C3933 C 0.02061 0.36974 0.92429 0.0
C3934 C 0.02974 0.39048 0.94727 0.0
C3935 C 0.0102 0.42801 0.94452 0.0
H3936 H 0.01334 0.42849 0.99194 0.0
C3937 C 0.98616 0.47746 0.9838 0.0
C3938 C 0.99596 0.48444 0.99817 0.0
C3939 C 0.99 0.4637 0.97501 0.0
C3940 C 0.01262 0.42863 0.97873 0.0
H3941 H -0.0005 0.37421 0.90861 0.0
H3942 H 0.99617 0.39936 0.92446 0.0
H3943 H 0.01905 0.40433 0.97592 0.0
H3944 H 0.01691 0.48215 0.01516 0.0
H3945 H 0.02383 0.45817 -0.00034 0.0
H3946 H 0.00361 0.4522 0.94729 0.0
C3947 C 0.00623 0.39308 0.92838 0.0
C3948 C 0.01591 0.4148 0.96955 0.0
C3949 C 0.00802 0.37856 0.9194 0.0
C3950 C 0.00935 0.47713 0.00393 0.0
C3951 C 0.0132 0.46334 0.99514 0.0
C3952 C 0.0069 0.4418 0.95368 0.0
C3953 C 0.01698 0.39916 0.94249 0.0
C3954 C 0.01455 0.41426 0.95233 0.0
C3955 C 0.00365 0.45658 0.98049 0.0
C3956 C 0.00788 0.44219 0.97087 0.0
H3957 H 0.04132 0.36936 0.94236 0.0
H3958 H 0.03831 0.39494 0.958 0.0
H3959 H 0.00934 0.42811 0.93129 0.0
H3960 H 0.9757 0.48284 0.97918 0.0
H3961 H 0.98222 0.45859 0.96393 0.0
C3962 C 0.90265 0.7793 0.19001 0.0
C3963 C 0.91473 0.7702 0.19576 0.0
C3964 C 0.88883 0.7799 0.19827 0.0
C3965 C 0.86377 0.75837 0.22792 0.0
H3966 H 0.84887 0.80078 0.23342 0.0
C3967 C 0.81205 0.76864 0.26819 0.0
C3968 C 0.80077 0.77834 0.26193 0.0
C3969 C 0.82612 0.76733 0.26045 0.0
C3970 C 0.85274 0.78879 0.23185 0.0
H3971 H 0.92167 0.75456 0.21475 0.0
H3972 H 0.8975 0.75561 0.22918 0.0
H3973 H 0.87289 0.79892 0.21916 0.0
H3974 H 0.79545 0.79452 0.24287 0.0
H3975 H 0.81966 0.79196 0.22917 0.0
H3976 H 0.84352 0.74824 0.24057 0.0
C3977 C 0.89866 0.76213 0.21815 0.0
C3978 C 0.86653 0.78773 0.22366 0.0
C3979 C 0.91252 0.76154 0.20988 0.0
C3980 C 0.80386 0.78683 0.2479 0.0
C3981 C 0.81784 0.78549 0.24014 0.0
C3982 C 0.84993 0.75943 0.2361 0.0
C3983 C 0.88671 0.77142 0.21251 0.0
C3984 C 0.87217 0.7725 0.2215 0.0
C3985 C 0.82919 0.77578 0.24633 0.0
C3986 C 0.84419 0.77464 0.23807 0.0
H3987 H 0.90379 0.78585 0.17899 0.0
H3988 H 0.87971 0.78691 0.1934 0.0
H3989 H 0.86768 0.74641 0.22632 0.0
H3990 H 0.80996 0.76202 0.27903 0.0
H3991 H 0.8347 0.7599 0.26564 0.0
C3992 C 0.50625 0.38293 0.09049 0.0
C3993 C 0.50037 0.3674 0.08186 0.0
C3994 C 0.50711 0.39751 0.08234 0.0
C3995 C 0.4891 0.41639 0.04836 0.0
H3996 H 0.53157 0.44422 0.0483 0.0
C3997 C 0.49714 0.47167 0.00822 0.0
C3998 C 0.50832 0.486 0.01425 0.0
C3999 C 0.49652 0.45709 0.01631 0.0
C4000 C 0.51955 0.43681 0.04841 0.0
H4001 H 0.49038 0.3548 0.05823 0.0
H4002 H 0.49142 0.38049 0.04402 0.0
H4003 H 0.52918 0.41927 0.06339 0.0
H4004 H 0.52849 0.49601 0.03256 0.0
H4005 H 0.52657 0.47111 0.04766 0.0
H4006 H 0.4792 0.43409 0.03407 0.0
C4007 C 0.49554 0.38129 0.057 0.0
C4008 C 0.51825 0.42247 0.05697 0.0
C4009 C 0.495 0.36667 0.06507 0.0
C4010 C 0.51927 0.48535 0.02816 0.0
C4011 C 0.51839 0.4709 0.03654 0.0
C4012 C 0.49031 0.43092 0.04011 0.0
C4013 C 0.50178 0.39677 0.06555 0.0
C4014 C 0.50304 0.41212 0.05688 0.0
C4015 C 0.50689 0.45659 0.0308 0.0
C4016 C 0.50559 0.44126 0.03988 0.0
H4017 H 0.51054 0.38373 0.10343 0.0
H4018 H 0.51191 0.40936 0.08914 0.0
H4019 H 0.47722 0.40861 0.04829 0.0
H4020 H 0.4887 0.47176 0.99733 0.0
H4021 H 0.48787 0.44622 0.01117 0.0
C4022 C 0.93851 0.24717 0.32108 0.0
C4023 C 0.94401 0.26179 0.33137 0.0
C4024 C 0.92504 0.24625 0.30928 0.0
C4025 C 0.89772 0.27248 0.28864 0.0
H4026 H 0.86416 0.23363 0.28917 0.0
C4027 C 0.82436 0.25789 0.28679 0.0
C4028 C 0.8199 0.26803 0.27457 0.0
C4029 C 0.84025 0.25441 0.28885 0.0
C4030 C 0.87343 0.24455 0.28884 0.0
H4031 H 0.93981 0.28686 0.33743 0.0
H4032 H 0.91629 0.28521 0.31721 0.0
H4033 H 0.89172 0.23341 0.30201 0.0
H4034 H 0.82801 0.28175 0.25427 0.0
H4035 H 0.8558 0.27544 0.25764 0.0
H4036 H 0.87917 0.2842 0.27683 0.0
C4037 C 0.92258 0.2746 0.3178 0.0
C4038 C 0.8893 0.24434 0.29599 0.0
C4039 C 0.93601 0.27553 0.32949 0.0
C4040 C 0.8313 0.27409 0.26396 0.0
C4041 C 0.84718 0.27047 0.26589 0.0
C4042 C 0.88183 0.27278 0.28168 0.0
C4043 C 0.91683 0.25992 0.30765 0.0
C4044 C 0.90139 0.25861 0.29667 0.0
C4045 C 0.85193 0.26088 0.27859 0.0
C4046 C 0.86933 0.2591 0.28241 0.0
H4047 H 0.94461 0.23647 0.32217 0.0
H4048 H 0.92095 0.23481 0.30157 0.0
H4049 H 0.90691 0.28352 0.28861 0.0
H4050 H 0.8157 0.25298 0.29505 0.0
H4051 H 0.84352 0.24725 0.29896 0.0
C4052 C 0.98337 0.6991 0.57366 0.0
C4053 C 0.99774 0.71062 0.57849 0.0
C4054 C 0.98412 0.68373 0.5656 0.0
C4055 C 0.01317 0.65473 0.55921 0.0
H4056 H 0.97896 0.6333 0.52563 0.0
C4057 C 0.01766 0.59342 0.52321 0.0
C4058 C 0.00393 0.58078 0.5228 0.0
C4059 C 0.01675 0.60979 0.52844 0.0
C4060 C 0.98856 0.63915 0.53503 0.0
H4061 H 0.02408 0.71548 0.57822 0.0
H4062 H 0.02543 0.68883 0.56375 0.0
H4063 H 0.97789 0.66118 0.53761 0.0
H4064 H 0.97828 0.57555 0.52692 0.0
H4065 H 0.97671 0.60424 0.53594 0.0
H4066 H 0.02387 0.63273 0.55651 0.0
C4067 C 0.0136 0.69141 0.56657 0.0
C4068 C 0.98793 0.65507 0.54194 0.0
C4069 C 0.01285 0.70669 0.57479 0.0
C4070 C 0.98909 0.58499 0.52711 0.0
C4071 C 0.98815 0.60141 0.53222 0.0
C4072 C 0.01387 0.63891 0.55218 0.0
C4073 C 0.99927 0.67965 0.56206 0.0
C4074 C 0.00018 0.66301 0.55419 0.0
C4075 C 0.00207 0.61389 0.53323 0.0
C4076 C 0.00153 0.63094 0.5401 0.0
H4077 H 0.97158 0.70178 0.57654 0.0
H4078 H 0.97288 0.67489 0.56255 0.0
H4079 H 0.02263 0.66029 0.56885 0.0
H4080 H 0.02929 0.59064 0.51996 0.0
H4081 H 0.02761 0.61923 0.52895 0.0
C4082 C 0.57941 0.76267 0.82563 0.0
C4083 C 0.58423 0.77389 0.83961 0.0
C4084 C 0.58896 0.763 0.81257 0.0
C4085 C 0.62079 0.78846 0.79312 0.0
H4086 H 0.63899 0.74803 0.78665 0.0
C4087 C 0.68558 0.78939 0.77739 0.0
C4088 C 0.69017 0.77526 0.76985 0.0
C4089 C 0.66938 0.78931 0.78033 0.0
C4090 C 0.63373 0.75929 0.78779 0.0
H4091 H 0.60268 0.79455 0.85055 0.0
H4092 H 0.61907 0.79536 0.82753 0.0
H4093 H 0.61584 0.74796 0.80253 0.0
H4094 H 0.68144 0.75048 0.75822 0.0
H4095 H 0.65286 0.75042 0.76301 0.0
H4096 H 0.63885 0.79994 0.77869 0.0
C4097 C 0.60787 0.78635 0.82676 0.0
C4098 C 0.62051 0.75924 0.79699 0.0
C4099 C 0.59849 0.78585 0.83994 0.0
C4100 C 0.67816 0.76143 0.76428 0.0
C4101 C 0.66185 0.76141 0.76706 0.0
C4102 C 0.63383 0.78845 0.78365 0.0
C4103 C 0.6033 0.77477 0.81311 0.0
C4104 C 0.61448 0.77401 0.80036 0.0
C4105 C 0.65738 0.77516 0.77561 0.0
C4106 C 0.64102 0.7741 0.78164 0.0
H4107 H 0.56826 0.75359 0.82473 0.0
H4108 H 0.58524 0.75397 0.80212 0.0
H4109 H 0.61613 0.79994 0.79541 0.0
H4110 H 0.69463 0.80027 0.78169 0.0
H4111 H 0.66655 0.80004 0.78717 0.0
C4112 C 0.42826 0.56884 0.65952 0.0
C4113 C 0.42832 0.55766 0.67187 0.0
C4114 C 0.4384 0.5681 0.64698 0.0
C4115 C 0.4596 0.53878 0.6254 0.0
H4116 H 0.48258 0.57828 0.60848 0.0
C4117 C 0.49983 0.53283 0.57348 0.0
C4118 C 0.49772 0.54308 0.56058 0.0
C4119 C 0.49377 0.53602 0.58839 0.0
C4120 C 0.47616 0.56714 0.61302 0.0
H4121 H 0.4396 0.53741 0.68113 0.0
H4122 H 0.45715 0.53603 0.65921 0.0
H4123 H 0.46697 0.58111 0.63193 0.0
H4124 H 0.48827 0.56514 0.55343 0.0
H4125 H 0.47741 0.57053 0.57935 0.0
H4126 H 0.46832 0.52479 0.60636 0.0
C4127 C 0.44908 0.54519 0.65907 0.0
C4128 C 0.46723 0.56877 0.62643 0.0
C4129 C 0.43898 0.54595 0.67159 0.0
C4130 C 0.49017 0.55707 0.56318 0.0
C4131 C 0.48397 0.56018 0.57806 0.0
C4132 C 0.46844 0.53716 0.612 0.0
C4133 C 0.44879 0.55614 0.64653 0.0
C4134 C 0.45879 0.55459 0.6327 0.0
C4135 C 0.4853 0.54941 0.59068 0.0
C4136 C 0.47678 0.55131 0.60558 0.0
H4137 H 0.4201 0.57792 0.65932 0.0
H4138 H 0.43777 0.57657 0.63738 0.0
H4139 H 0.45299 0.52763 0.62975 0.0
H4140 H 0.50576 0.52206 0.57192 0.0
H4141 H 0.49534 0.52771 0.59799 0.0
C4142 C 0.78455 0.23213 0.92772 0.0
C4143 C 0.77903 0.21496 0.9283 0.0
C4144 C 0.78143 0.24005 0.91336 0.0
C4145 C 0.76986 0.23091 0.86843 0.0
H4146 H 0.75889 0.27533 0.87051 0.0
C4147 C 0.74655 0.2597 0.81044 0.0
C4148 C 0.75406 0.27596 0.80834 0.0
C4149 C 0.74888 0.25287 0.82551 0.0
C4150 C 0.76204 0.26296 0.86975 0.0
H4151 H 0.76614 0.19266 0.91396 0.0
H4152 H 0.76024 0.20646 0.88931 0.0
H4153 H 0.76476 0.26218 0.89587 0.0
H4154 H 0.76912 0.29829 0.8205 0.0
H4155 H 0.77311 0.28646 0.84702 0.0
H4156 H 0.76698 0.2316 0.84235 0.0
C4157 C 0.76719 0.21384 0.89984 0.0
C4158 C 0.76547 0.25544 0.88428 0.0
C4159 C 0.77038 0.20593 0.91412 0.0
C4160 C 0.76319 0.28568 0.82184 0.0
C4161 C 0.76547 0.2789 0.83699 0.0
C4162 C 0.76632 0.23837 0.85395 0.0
C4163 C 0.7727 0.23099 0.89921 0.0
C4164 C 0.76937 0.23927 0.88382 0.0
C4165 C 0.75868 0.26226 0.83887 0.0
C4166 C 0.76232 0.25445 0.85441 0.0
H4167 H 0.79111 0.23953 0.93843 0.0
H4168 H 0.78602 0.25324 0.9133 0.0
H4169 H 0.77317 0.21862 0.86754 0.0
H4170 H 0.73886 0.25226 0.80045 0.0
H4171 H 0.7431 0.24018 0.82667 0.0
C4172 C 0.08212 0.5117 0.18405 0.0
C4173 C 0.07234 0.50352 0.19508 0.0
C4174 C 0.07547 0.51381 0.1682 0.0
C4175 C 0.0392 0.4986 0.13742 0.0
H4176 H 0.05645 0.53814 0.1166 0.0
C4177 C 0.01089 0.51735 0.07504 0.0
C4178 C 0.0221 0.52087 0.06345 0.0
C4179 C 0.01641 0.51526 0.09131 0.0
C4180 C 0.05156 0.52702 0.12226 0.0
H4181 H 0.04791 0.4912 0.19826 0.0
H4182 H 0.03603 0.4954 0.17075 0.0
H4183 H 0.06687 0.53467 0.14469 0.0
H4184 H 0.04791 0.52524 0.05994 0.0
H4185 H 0.05752 0.52196 0.0884 0.0
H4186 H 0.02355 0.4913 0.11496 0.0
C4187 C 0.04898 0.49981 0.17413 0.0
C4188 C 0.05759 0.52494 0.13834 0.0
C4189 C 0.05574 0.49745 0.18994 0.0
C4190 C 0.03895 0.52244 0.06853 0.0
C4191 C 0.04447 0.52066 0.08484 0.0
C4192 C 0.03297 0.50084 0.12141 0.0
C4193 C 0.05876 0.50804 0.16302 0.0
C4194 C 0.05169 0.51058 0.14611 0.0
C4195 C 0.03327 0.51699 0.09637 0.0
C4196 C 0.03924 0.51497 0.11362 0.0
H4197 H 0.09502 0.51628 0.18762 0.0
H4198 H 0.08354 0.5198 0.15995 0.0
H4199 H 0.03448 0.48727 0.14281 0.0
H4200 H 0.99783 0.51603 0.07151 0.0
H4201 H 0.00753 0.51251 0.09999 0.0
C4202 C 0.70544 0.83276 0.44096 0.0
C4203 C 0.71765 0.83001 0.45306 0.0
C4204 C 0.70348 0.82409 0.42555 0.0
C4205 C 0.71845 0.79102 0.40056 0.0
H4206 H 0.71884 0.82346 0.36795 0.0
C4207 C 0.75035 0.78687 0.34172 0.0
C4208 C 0.74266 0.79182 0.32734 0.0
C4209 C 0.74363 0.78858 0.35653 0.0
C4210 C 0.71843 0.81412 0.3768 0.0
H4211 H 0.73601 0.81465 0.45914 0.0
H4212 H 0.73317 0.80015 0.43208 0.0
H4213 H 0.71218 0.83075 0.39518 0.0
H4214 H 0.72176 0.80192 0.31686 0.0
H4215 H 0.71009 0.80501 0.34273 0.0
H4216 H 0.72565 0.77476 0.38217 0.0
C4217 C 0.72498 0.80885 0.43445 0.0
C4218 C 0.71451 0.81826 0.39243 0.0
C4219 C 0.7268 0.81736 0.44992 0.0
C4220 C 0.72804 0.79823 0.32787 0.0
C4221 C 0.72134 0.79995 0.34263 0.0
C4222 C 0.72248 0.78691 0.38489 0.0
C4223 C 0.71383 0.81269 0.42188 0.0
C4224 C 0.7149 0.80693 0.40463 0.0
C4225 C 0.72914 0.79529 0.35713 0.0
C4226 C 0.7229 0.79861 0.37301 0.0
H4227 H 0.69814 0.84238 0.44295 0.0
H4228 H 0.69451 0.82704 0.41622 0.0
H4229 H 0.71863 0.78194 0.40963 0.0
H4230 H 0.76158 0.78178 0.34154 0.0
H4231 H 0.75001 0.7851 0.36757 0.0
C4232 C 0.45605 0.55241 0.82113 0.0
C4233 C 0.44456 0.56328 0.82034 0.0
C4234 C 0.46602 0.55176 0.83567 0.0
C4235 C 0.47949 0.57294 0.87733 0.0
H4236 H 0.48006 0.52784 0.88949 0.0
C4237 C 0.48758 0.55584 0.94416 0.0
C4238 C 0.49641 0.54305 0.94786 0.0
C4239 C 0.48466 0.55981 0.92798 0.0
C4240 C 0.48032 0.54053 0.8862 0.0
H4241 H 0.43498 0.58247 0.83388 0.0
H4242 H 0.45217 0.58117 0.85935 0.0
H4243 H 0.46915 0.5324 0.86196 0.0
H4244 H 0.50967 0.52475 0.93779 0.0
H4245 H 0.50455 0.53166 0.90942 0.0
H4246 H 0.49012 0.58096 0.90189 0.0
C4247 C 0.45371 0.57334 0.84869 0.0
C4248 C 0.47408 0.54316 0.87038 0.0
C4249 C 0.44382 0.57407 0.83411 0.0
C4250 C 0.50271 0.5346 0.93521 0.0
C4251 C 0.49975 0.53853 0.919 0.0
C4252 C 0.4857 0.5703 0.8932 0.0
C4253 C 0.46462 0.56187 0.84976 0.0
C4254 C 0.47326 0.55937 0.86586 0.0
C4255 C 0.49049 0.55101 0.91519 0.0
C4256 C 0.48585 0.55404 0.89789 0.0
H4257 H 0.45706 0.54416 0.81059 0.0
H4258 H 0.47452 0.54302 0.836 0.0
H4259 H 0.47928 0.58559 0.87415 0.0
H4260 H 0.48266 0.56259 0.95375 0.0
H4261 H 0.47731 0.56935 0.92542 0.0
C4262 C 0.79284 0.2103 0.10064 0.0
C4263 C 0.78223 0.21177 0.0866 0.0
C4264 C 0.79002 0.2167 0.11609 0.0
C4265 C 0.76714 0.24592 0.13695 0.0
H4266 H 0.77456 0.2197 0.17389 0.0
C4267 C 0.74799 0.26166 0.20162 0.0
C4268 C 0.75947 0.2604 0.21503 0.0
C4269 C 0.75037 0.25593 0.18574 0.0
C4270 C 0.77255 0.22725 0.16373 0.0
H4271 H 0.76061 0.22174 0.07786 0.0
H4272 H 0.75545 0.23249 0.10481 0.0
H4273 H 0.77977 0.20969 0.14672 0.0
H4274 H 0.78245 0.25201 0.22215 0.0
H4275 H 0.78655 0.24218 0.19465 0.0
H4276 H 0.7598 0.26343 0.15406 0.0
C4277 C 0.76606 0.22651 0.10387 0.0
C4278 C 0.7756 0.22153 0.14814 0.0
C4279 C 0.76892 0.22015 0.08841 0.0
C4280 C 0.77333 0.25324 0.21217 0.0
C4281 C 0.77564 0.24746 0.19637 0.0
C4282 C 0.76403 0.25162 0.15257 0.0
C4283 C 0.77648 0.22471 0.11795 0.0
C4284 C 0.77306 0.23084 0.13454 0.0
C4285 C 0.7642 0.2487 0.18295 0.0
C4286 C 0.76682 0.24241 0.16618 0.0
H4287 H 0.80313 0.20381 0.09978 0.0
H4288 H 0.79846 0.21531 0.1266 0.0
H4289 H 0.76521 0.25352 0.12682 0.0
H4290 H 0.73717 0.26708 0.20338 0.0
H4291 H 0.74125 0.25695 0.17567 0.0
C4292 C 0.06539 0.49112 0.36237 0.0
C4293 C 0.07254 0.50473 0.3543 0.0
C4294 C 0.05812 0.49361 0.37676 0.0
C4295 C 0.04219 0.52599 0.40177 0.0
H4296 H 0.04519 0.49496 0.43541 0.0
C4297 C 0.02194 0.53632 0.46688 0.0
C4298 C 0.01127 0.52277 0.47172 0.0
C4299 C 0.02996 0.53455 0.45282 0.0
C4300 C 0.04423 0.5037 0.42609 0.0
H4301 H 0.07717 0.53175 0.35505 0.0
H4302 H 0.0653 0.53607 0.38045 0.0
H4303 H 0.05812 0.49113 0.4104 0.0
H4304 H 0.00078 0.49676 0.46596 0.0
H4305 H 0.01502 0.49357 0.44159 0.0
H4306 H 0.0286 0.53874 0.41781 0.0
C4307 C 0.065 0.52341 0.37551 0.0
C4308 C 0.05154 0.50145 0.41168 0.0
C4309 C 0.07208 0.52092 0.36101 0.0
C4310 C 0.0089 0.50741 0.46243 0.0
C4311 C 0.01712 0.50556 0.44857 0.0
C4312 C 0.03511 0.52837 0.41631 0.0
C4313 C 0.05794 0.5098 0.38364 0.0
C4314 C 0.05048 0.51246 0.39921 0.0
C4315 C 0.02764 0.51912 0.44355 0.0
C4316 C 0.03592 0.51715 0.42853 0.0
H4317 H 0.06563 0.47847 0.35773 0.0
H4318 H 0.05256 0.48279 0.38244 0.0
H4319 H 0.04084 0.53459 0.3924 0.0
H4320 H 0.02387 0.54832 0.47381 0.0
H4321 H 0.03806 0.54518 0.44924 0.0
C4322 C 0.72538 0.84074 0.61 0.0
C4323 C 0.73546 0.84009 0.5973 0.0
C4324 C 0.72472 0.82885 0.62151 0.0
C4325 C 0.7506 0.80336 0.64173 0.0
H4326 H 0.71103 0.78466 0.66004 0.0
C4327 C 0.75531 0.77397 0.70277 0.0
C4328 C 0.7453 0.77949 0.71401 0.0
C4329 C 0.75216 0.77603 0.6861 0.0
C4330 C 0.72219 0.78978 0.65506 0.0
H4331 H 0.75208 0.82592 0.58621 0.0
H4332 H 0.75131 0.80546 0.6067 0.0
H4333 H 0.70899 0.79881 0.63474 0.0
H4334 H 0.72369 0.79069 0.71661 0.0
H4335 H 0.71858 0.79494 0.68773 0.0
H4336 H 0.76391 0.79553 0.66247 0.0
C4337 C 0.74396 0.81521 0.60769 0.0
C4338 C 0.721 0.7978 0.64058 0.0
C4339 C 0.74451 0.82701 0.59609 0.0
C4340 C 0.73161 0.78631 0.70821 0.0
C4341 C 0.7286 0.78861 0.6916 0.0
C4342 C 0.75181 0.79554 0.65629 0.0
C4343 C 0.73422 0.81615 0.62061 0.0
C4344 C 0.73521 0.8051 0.63409 0.0
C4345 C 0.73911 0.78392 0.68041 0.0
C4346 C 0.73763 0.78916 0.66343 0.0
H4347 H 0.71838 0.85073 0.61138 0.0
H4348 H 0.71733 0.83001 0.63153 0.0
H4349 H 0.76175 0.80902 0.63706 0.0
H4350 H 0.7658 0.76839 0.70689 0.0
H4351 H 0.76028 0.77195 0.67777 0.0
C4352 C 0.65493 0.46116 0.52203 0.0
C4353 C 0.65184 0.44396 0.51757 0.0
C4354 C 0.64212 0.47035 0.52153 0.0
C4355 C 0.59846 0.46859 0.50473 0.0
H4356 H 0.60081 0.50542 0.53746 0.0
C4357 C 0.54408 0.50342 0.51377 0.0
C4358 C 0.5478 0.52086 0.51485 0.0
C4359 C 0.5566 0.49383 0.51423 0.0
C4360 C 0.60004 0.49523 0.52819 0.0
H4361 H 0.63289 0.42288 0.50915 0.0
H4362 H 0.61041 0.43878 0.50873 0.0
H4363 H 0.62274 0.48891 0.53809 0.0
H4364 H 0.56744 0.54204 0.5169 0.0
H4365 H 0.58944 0.52533 0.5181 0.0
H4366 H 0.57547 0.47479 0.49514 0.0
C4367 C 0.62278 0.44532 0.51222 0.0
C4368 C 0.61265 0.48578 0.52847 0.0
C4369 C 0.63565 0.43616 0.51251 0.0
C4370 C 0.56427 0.52859 0.51628 0.0
C4371 C 0.57683 0.51904 0.51701 0.0
C4372 C 0.58573 0.47791 0.5046 0.0
C4373 C 0.62582 0.46256 0.51678 0.0
C4374 C 0.61213 0.47239 0.51666 0.0
C4375 C 0.57312 0.50155 0.51591 0.0
C4376 C 0.58644 0.4914 0.51626 0.0
H4377 H 0.66732 0.46756 0.52576 0.0
H4378 H 0.64508 0.48364 0.52474 0.0
H4379 H 0.59768 0.4586 0.49526 0.0
H4380 H 0.53154 0.49714 0.51193 0.0
H4381 H 0.55336 0.48038 0.51329 0.0
C4382 C 0.1742 0.12718 0.51341 0.0
C4383 C 0.18715 0.11859 0.5107 0.0
C4384 C 0.15842 0.11848 0.51409 0.0
C4385 C 0.13544 0.07679 0.51981 0.0
H4386 H 0.09889 0.09448 0.49875 0.0
C4387 C 0.06154 0.05645 0.49851 0.0
C4388 C 0.05636 0.04953 0.51276 0.0
C4389 C 0.07775 0.06416 0.49823 0.0
C4390 C 0.10897 0.08927 0.50455 0.0
H4391 H 0.19372 0.09408 0.50698 0.0
H4392 H 0.16609 0.07893 0.50764 0.0
H4393 H 0.12665 0.1093 0.49832 0.0
H4394 H 0.06424 0.04502 0.53781 0.0
H4395 H 0.09247 0.05871 0.53738 0.0
H4396 H 0.11773 0.05652 0.52565 0.0
C4397 C 0.16818 0.09239 0.50945 0.0
C4398 C 0.12487 0.0979 0.50451 0.0
C4399 C 0.18398 0.10109 0.50884 0.0
C4400 C 0.06783 0.05019 0.52662 0.0
C4401 C 0.08405 0.05797 0.52635 0.0
C4402 C 0.11951 0.06812 0.5198 0.0
C4403 C 0.1552 0.10099 0.51199 0.0
C4404 C 0.1383 0.09178 0.51215 0.0
C4405 C 0.08913 0.06521 0.51221 0.0
C4406 C 0.1061 0.07426 0.51216 0.0
H4407 H 0.17618 0.14066 0.51474 0.0
H4408 H 0.14874 0.12547 0.5163 0.0
H4409 H 0.14551 0.07182 0.52595 0.0
H4410 H 0.05306 0.05606 0.48757 0.0
H4411 H 0.08134 0.06933 0.48704 0.0
C4412 C 0.202 0.93248 0.78392 0.0
C4413 C 0.18664 0.93226 0.77511 0.0
C4414 C 0.21044 0.91915 0.78179 0.0
C4415 C 0.20404 0.87461 0.76577 0.0
H4416 H 0.25152 0.88252 0.76901 0.0
C4417 C 0.2423 0.82294 0.75184 0.0
C4418 C 0.25488 0.8218 0.76418 0.0
C4419 C 0.23401 0.83656 0.75225 0.0
C4420 C 0.23826 0.88014 0.76812 0.0
H4421 H 0.16828 0.9182 0.75678 0.0
H4422 H 0.18314 0.89517 0.7527 0.0
H4423 H 0.23699 0.90607 0.77125 0.0
H4424 H 0.26919 0.83426 0.78621 0.0
H4425 H 0.25505 0.85825 0.78669 0.0
H4426 H 0.20543 0.84864 0.76235 0.0
C4427 C 0.18851 0.90535 0.76165 0.0
C4428 C 0.22991 0.89362 0.7695 0.0
C4429 C 0.18 0.91858 0.76393 0.0
C4430 C 0.25949 0.8348 0.77656 0.0
C4431 C 0.25142 0.84853 0.77683 0.0
C4432 C 0.2124 0.86115 0.76417 0.0
C4433 C 0.20381 0.90538 0.77063 0.0
C4434 C 0.21269 0.89104 0.76853 0.0
C4435 C 0.23849 0.84946 0.76478 0.0
C4436 C 0.22959 0.86378 0.76551 0.0
H4437 H 0.20733 0.9428 0.79274 0.0
H4438 H 0.22203 0.91953 0.78916 0.0
H4439 H 0.19081 0.87207 0.76522 0.0
H4440 H 0.23893 0.81338 0.74183 0.0
H4441 H 0.22424 0.83709 0.74268 0.0
C4442 C 0.31165 0.96764 0.02782 0.0
C4443 C 0.30826 0.95043 0.02973 0.0
C4444 C 0.32776 0.9757 0.02721 0.0
C4445 C 0.36911 0.96623 0.02035 0.0
H4446 H 0.38407 0.012 0.03771 0.0
C4447 C 0.43713 0.99592 0.03219 0.0
C4448 C 0.44154 0.0096 0.02303 0.0
C4449 C 0.42066 0.9898 0.0334 0.0
C4450 C 0.37996 0.99923 0.03277 0.0
H4451 H 0.31947 0.92836 0.03263 0.0
H4452 H 0.34729 0.9425 0.03275 0.0
H4453 H 0.35568 0.99897 0.03941 0.0
H4454 H 0.43236 0.02808 0.00853 0.0
H4455 H 0.40336 0.01759 0.01111 0.0
H4456 H 0.39363 0.96637 0.01438 0.0
C4457 C 0.33753 0.94974 0.03114 0.0
C4458 C 0.3637 0.99177 0.03363 0.0
C4459 C 0.32147 0.94165 0.03143 0.0
C4460 C 0.42923 0.01748 0.01563 0.0
C4461 C 0.41272 0.01155 0.01713 0.0
C4462 C 0.38538 0.97357 0.01981 0.0
C4463 C 0.34092 0.96682 0.02872 0.0
C4464 C 0.35808 0.9751 0.02753 0.0
C4465 C 0.40833 0.99747 0.02577 0.0
C4466 C 0.39095 0.99008 0.02607 0.0
H4467 H 0.30189 0.97493 0.02673 0.0
H4468 H 0.32981 0.98883 0.02522 0.0
H4469 H 0.36521 0.95357 0.01505 0.0
H4470 H 0.4464 0.98963 0.03802 0.0
H4471 H 0.41752 0.97895 0.04016 0.0
C4472 C 0.83676 0.63693 0.76887 0.0
C4473 C 0.8471 0.6364 0.75636 0.0
C4474 C 0.82733 0.64956 0.77017 0.0
C4475 C 0.80997 0.68058 0.74595 0.0
H4476 H 0.80407 0.70034 0.7886 0.0
C4477 C 0.77793 0.73785 0.75325 0.0
C4478 C 0.76706 0.73784 0.76529 0.0
C4479 C 0.78793 0.72569 0.75237 0.0
C4480 C 0.80546 0.69483 0.7766 0.0
H4481 H 0.85591 0.649 0.73565 0.0
H4482 H 0.83952 0.67107 0.73796 0.0
H4483 H 0.82127 0.67891 0.78674 0.0
H4484 H 0.75795 0.72509 0.78574 0.0
H4485 H 0.77527 0.70364 0.78409 0.0
H4486 H 0.79417 0.69648 0.73581 0.0
C4487 C 0.83848 0.66155 0.7466 0.0
C4488 C 0.81532 0.68254 0.77553 0.0
C4489 C 0.84789 0.6489 0.74528 0.0
C4490 C 0.76627 0.72539 0.77637 0.0
C4491 C 0.77627 0.7132 0.77549 0.0
C4492 C 0.80013 0.69287 0.74702 0.0
C4493 C 0.82801 0.662 0.75901 0.0
C4494 C 0.81769 0.67524 0.76019 0.0
C4495 C 0.78721 0.71319 0.76345 0.0
C4496 C 0.79774 0.70014 0.76236 0.0
H4497 H 0.83567 0.62736 0.77746 0.0
H4498 H 0.81922 0.64937 0.77973 0.0
H4499 H 0.81128 0.67504 0.73394 0.0
H4500 H 0.77872 0.74726 0.74448 0.0
H4501 H 0.79635 0.72619 0.74308 0.0
C4502 C 0.83742 0.59234 0.00983 0.0
C4503 C 0.83854 0.60969 0.01218 0.0
C4504 C 0.85057 0.58471 0.01541 0.0
C4505 C 0.89519 0.59421 0.02576 0.0
H4506 H 0.88923 0.551 0.04364 0.0
C4507 C 0.95027 0.56242 0.04189 0.0
C4508 C 0.94836 0.54602 0.03488 0.0
C4509 C 0.93661 0.57017 0.04305 0.0
C4510 C 0.89107 0.56308 0.03868 0.0
H4511 H 0.85389 0.63256 0.02292 0.0
H4512 H 0.87678 0.61928 0.03268 0.0
H4513 H 0.86555 0.56474 0.03759 0.0
H4514 H 0.9308 0.52444 0.02464 0.0
H4515 H 0.90694 0.53798 0.02652 0.0
H4516 H 0.92055 0.59244 0.0264 0.0
C4517 C 0.86594 0.6116 0.02621 0.0
C4518 C 0.87752 0.57091 0.03517 0.0
C4519 C 0.85285 0.6192 0.02058 0.0
C4520 C 0.93256 0.53711 0.03008 0.0
C4521 C 0.9189 0.54485 0.03124 0.0
C4522 C 0.9087 0.58642 0.02928 0.0
C4523 C 0.86503 0.5943 0.02352 0.0
C4524 C 0.87943 0.58644 0.02843 0.0
C4525 C 0.92084 0.56164 0.03721 0.0
C4526 C 0.90675 0.57066 0.03553 0.0
H4527 H 0.82652 0.58473 0.00336 0.0
H4528 H 0.84958 0.57138 0.01297 0.0
H4529 H 0.89705 0.60605 0.02034 0.0
H4530 H 0.96236 0.56953 0.04573 0.0
H4531 H 0.93845 0.58304 0.04794 0.0
C4532 C 0.17611 0.10098 0.76118 0.0
C4533 C 0.18258 0.09192 0.77355 0.0
C4534 C 0.18298 0.11753 0.75959 0.0
C4535 C 0.22037 0.1494 0.77316 0.0
H4536 H 0.19223 0.17991 0.75748 0.0
C4537 C 0.23917 0.22138 0.77753 0.0
C4538 C 0.23722 0.22875 0.76259 0.0
C4539 C 0.23279 0.20459 0.77861 0.0
C4540 C 0.20022 0.17148 0.76179 0.0
H4541 H 0.20163 0.0935 0.7939 0.0
H4542 H 0.21288 0.12251 0.79179 0.0
H4543 H 0.18043 0.15101 0.76034 0.0
H4544 H 0.22683 0.22441 0.73717 0.0
H4545 H 0.21519 0.19512 0.73924 0.0
H4546 H 0.24 0.17028 0.77525 0.0
C4547 C 0.20277 0.11668 0.78295 0.0
C4548 C 0.19351 0.15486 0.76334 0.0
C4549 C 0.19609 0.10002 0.78435 0.0
C4550 C 0.22861 0.21904 0.7488 0.0
C4551 C 0.22189 0.20233 0.74999 0.0
C4552 C 0.22699 0.16611 0.77193 0.0
C4553 C 0.19635 0.1257 0.77051 0.0
C4554 C 0.2035 0.14352 0.76898 0.0
C4555 C 0.224 0.19495 0.76488 0.0
C4556 C 0.21699 0.17726 0.76616 0.0
H4557 H 0.16555 0.09539 0.75277 0.0
H4558 H 0.1778 0.12385 0.74967 0.0
H4559 H 0.22858 0.14108 0.77721 0.0
H4560 H 0.24579 0.22854 0.78835 0.0
H4561 H 0.2345 0.19918 0.79024 0.0
C4562 C 0.34281 0.96607 0.24134 0.0
C4563 C 0.33531 0.98033 0.24233 0.0
C4564 C 0.33365 0.95019 0.24154 0.0
C4565 C 0.29998 0.92759 0.2585 0.0
H4566 H 0.29989 0.89297 0.22402 0.0
C4567 C 0.26794 0.85994 0.26339 0.0
C4568 C 0.2756 0.84719 0.25715 0.0
C4569 C 0.2733 0.87649 0.26028 0.0
C4570 C 0.29994 0.9024 0.23388 0.0
H4571 H 0.31197 0.98874 0.24397 0.0
H4572 H 0.29621 0.96091 0.24523 0.0
H4573 H 0.31304 0.92141 0.22094 0.0
H4574 H 0.29487 0.84158 0.24292 0.0
H4575 H 0.30481 0.87037 0.23818 0.0
H4576 H 0.28788 0.90861 0.27199 0.0
C4577 C 0.30921 0.96225 0.24409 0.0
C4578 C 0.30734 0.9187 0.232 0.0
C4579 C 0.31831 0.97817 0.2435 0.0
C4580 C 0.2887 0.8512 0.24779 0.0
C4581 C 0.29427 0.86774 0.24494 0.0
C4582 C 0.29287 0.91121 0.26056 0.0
C4583 C 0.31684 0.94817 0.24311 0.0
C4584 C 0.30757 0.93136 0.24437 0.0
C4585 C 0.28665 0.88064 0.25111 0.0
C4586 C 0.29299 0.89832 0.24838 0.0
H4587 H 0.35589 0.96711 0.24086 0.0
H4588 H 0.33981 0.93948 0.24098 0.0
H4589 H 0.30017 0.93718 0.26825 0.0
H4590 H 0.2577 0.8571 0.27053 0.0
H4591 H 0.26692 0.88599 0.265 0.0
C4592 C 0.49102 0.34035 0.57853 0.0
C4593 C 0.49853 0.3425 0.59482 0.0
C4594 C 0.49191 0.35375 0.56862 0.0
C4595 C 0.51632 0.39431 0.56357 0.0
H4596 H 0.47611 0.40561 0.54279 0.0
C4597 C 0.51307 0.45968 0.54348 0.0
C4598 C 0.50258 0.46176 0.52963 0.0
C4599 C 0.51316 0.44395 0.54918 0.0
C4600 C 0.48751 0.40247 0.54819 0.0
H4601 H 0.51271 0.36065 0.61337 0.0
H4602 H 0.51467 0.38374 0.59591 0.0
H4603 H 0.47522 0.38003 0.55688 0.0
H4604 H 0.48422 0.44907 0.51056 0.0
H4605 H 0.48454 0.42133 0.52036 0.0
H4606 H 0.52867 0.41664 0.55498 0.0
C4607 C 0.50816 0.37165 0.59084 0.0
C4608 C 0.48696 0.38784 0.55632 0.0
C4609 C 0.50708 0.35836 0.60083 0.0
C4610 C 0.49239 0.44776 0.52132 0.0
C4611 C 0.49253 0.43193 0.52699 0.0
C4612 C 0.5169 0.4088 0.5553 0.0
C4613 C 0.50054 0.3695 0.57468 0.0
C4614 C 0.50131 0.38387 0.56444 0.0
C4615 C 0.50284 0.42986 0.54108 0.0
C4616 C 0.50244 0.41333 0.54791 0.0
H4617 H 0.48458 0.32829 0.57335 0.0
H4618 H 0.48601 0.35176 0.55615 0.0
H4619 H 0.52759 0.39138 0.56951 0.0
H4620 H 0.52104 0.47027 0.55016 0.0
H4621 H 0.52103 0.44295 0.56024 0.0
C4622 C 0.43822 0.79026 0.31011 0.0
C4623 C 0.44133 0.77846 0.32132 0.0
C4624 C 0.42241 0.78998 0.30243 0.0
C4625 C 0.3825 0.76314 0.29108 0.0
H4626 H 0.36479 0.80421 0.29352 0.0
C4627 C 0.31335 0.76376 0.27817 0.0
C4628 C 0.30803 0.77751 0.27118 0.0
C4629 C 0.32998 0.76383 0.28266 0.0
C4630 C 0.36959 0.79269 0.29241 0.0
H4631 H 0.43005 0.757 0.33302 0.0
H4632 H 0.40265 0.75628 0.31925 0.0
H4633 H 0.39323 0.80428 0.304 0.0
H4634 H 0.31612 0.80194 0.26295 0.0
H4635 H 0.34524 0.80186 0.27031 0.0
H4636 H 0.35901 0.75151 0.27936 0.0
C4637 C 0.41251 0.76572 0.31642 0.0
C4638 C 0.3859 0.79273 0.29849 0.0
C4639 C 0.42826 0.76611 0.32426 0.0
C4640 C 0.3198 0.79119 0.26841 0.0
C4641 C 0.3365 0.79118 0.27274 0.0
C4642 C 0.36626 0.76312 0.2848 0.0
C4643 C 0.40938 0.77777 0.30559 0.0
C4644 C 0.39244 0.77791 0.2981 0.0
C4645 C 0.34181 0.77756 0.2801 0.0
C4646 C 0.35949 0.77784 0.28562 0.0
H4647 H 0.448 0.79976 0.30726 0.0
H4648 H 0.42038 0.79931 0.29398 0.0
H4649 H 0.3873 0.75157 0.29043 0.0
H4650 H 0.30462 0.75307 0.28062 0.0
H4651 H 0.33349 0.75325 0.28857 0.0
C4652 C 0.99609 0.6906 0.08 0.0
C4653 C 0.98909 0.68971 0.0949 0.0
C4654 C 0.9982 0.67615 0.07109 0.0
C4655 C 0.98482 0.63075 0.06519 0.0
H4656 H 0.02785 0.63085 0.05071 0.0
C4657 C 0.0263 0.58082 0.04074 0.0
C4658 C 0.01505 0.57139 0.02852 0.0
C4659 C 0.02273 0.59542 0.04827 0.0
C4660 C 0.0158 0.63062 0.05472 0.0
H4661 H 0.9783 0.67281 0.11179 0.0
H4662 H 0.98178 0.64751 0.09605 0.0
H4663 H 0.02173 0.65593 0.06475 0.0
H4664 H 0.99157 0.57003 0.01411 0.0
H4665 H 0.98518 0.5954 0.02746 0.0
H4666 H 0.97897 0.60533 0.05527 0.0
C4667 C 0.98561 0.65945 0.0913 0.0
C4668 C 0.01224 0.64502 0.06261 0.0
C4669 C 0.98359 0.67395 0.1003 0.0
C4670 C 0.00032 0.57693 0.02373 0.0
C4671 C 0.99666 0.59143 0.03136 0.0
C4672 C 0.98834 0.61636 0.05716 0.0
C4673 C 0.99324 0.66044 0.07679 0.0
C4674 C 0.99674 0.64522 0.06799 0.0
C4675 C 0.00781 0.6008 0.04374 0.0
C4676 C 0.00391 0.61613 0.05194 0.0
H4677 H 0.00013 0.70252 0.0753 0.0
H4678 H 0.00384 0.67727 0.05978 0.0
H4679 H 0.97274 0.63058 0.06913 0.0
H4680 H 0.03776 0.5768 0.04463 0.0
H4681 H 0.0315 0.60233 0.05786 0.0
C4682 C 0.1135 0.3 0.83321 0.0
C4683 C 0.10079 0.28618 0.83168 0.0
C4684 C 0.12739 0.29968 0.82496 0.0
C4685 C 0.15042 0.27057 0.80436 0.0
H4686 H 0.16965 0.31008 0.78468 0.0
C4687 C 0.19982 0.26934 0.75974 0.0
C4688 C 0.21327 0.28238 0.76214 0.0
C4689 C 0.18615 0.26998 0.76827 0.0
C4690 C 0.16452 0.29899 0.79024 0.0
H4691 H 0.09261 0.26128 0.82001 0.0
H4692 H 0.1167 0.26077 0.80549 0.0
H4693 H 0.14581 0.31083 0.79961 0.0
H4694 H 0.22278 0.30661 0.77466 0.0
H4695 H 0.19894 0.30774 0.78966 0.0
H4696 H 0.16905 0.2587 0.79482 0.0
C4697 C 0.11613 0.27174 0.81335 0.0
C4698 C 0.15086 0.29942 0.79884 0.0
C4699 C 0.10229 0.27204 0.82166 0.0
C4700 C 0.21264 0.29629 0.77281 0.0
C4701 C 0.19894 0.29699 0.78127 0.0
C4702 C 0.16402 0.27012 0.7957 0.0
C4703 C 0.12888 0.28555 0.8149 0.0
C4704 C 0.1436 0.2852 0.80597 0.0
C4705 C 0.1856 0.28377 0.77921 0.0
C4706 C 0.1712 0.28431 0.7885 0.0
H4707 H 0.11281 0.311 0.84101 0.0
H4708 H 0.13707 0.31044 0.82665 0.0
H4709 H 0.14536 0.25947 0.80995 0.0
H4710 H 0.20001 0.25851 0.75151 0.0
H4711 H 0.17597 0.25971 0.76623 0.0
C4712 C 0.49594 0.68608 0.95341 0.0
C4713 C 0.50906 0.68958 0.94393 0.0
C4714 C 0.49398 0.67162 0.96179 0.0
C4715 C 0.50286 0.62953 0.96169 0.0
H4716 H 0.50099 0.63387 0.00873 0.0
C4717 C 0.48992 0.57337 0.00107 0.0
C4718 C 0.50226 0.57325 0.01395 0.0
C4719 C 0.48952 0.58757 0.99248 0.0
C4720 C 0.50142 0.63252 0.99559 0.0
H4721 H 0.53016 0.6807 0.93538 0.0
H4722 H 0.52651 0.65517 0.9498 0.0
H4723 H 0.50252 0.65867 0.99317 0.0
H4724 H 0.52319 0.58803 0.02874 0.0
H4725 H 0.52213 0.61312 0.01407 0.0
H4726 H 0.5017 0.60337 0.96411 0.0
C4727 C 0.51787 0.66368 0.95083 0.0
C4728 C 0.50222 0.64663 0.98671 0.0
C4729 C 0.52001 0.67828 0.9427 0.0
C4730 C 0.51362 0.58781 0.01876 0.0
C4731 C 0.51302 0.60212 0.0104 0.0
C4732 C 0.50174 0.61537 0.97052 0.0
C4733 C 0.50493 0.66032 0.96055 0.0
C4734 C 0.50315 0.64526 0.96974 0.0
C4735 C 0.50114 0.60201 0.99702 0.0
C4736 C 0.50123 0.61681 0.98756 0.0
H4737 H 0.4874 0.69467 0.95458 0.0
H4738 H 0.48389 0.66923 0.9692 0.0
H4739 H 0.5035 0.62821 0.94858 0.0
H4740 H 0.48063 0.56248 0.99762 0.0
H4741 H 0.4801 0.58732 0.98234 0.0
C4742 C 0.06635 0.79221 0.71236 0.0
C4743 C 0.06875 0.80001 0.69775 0.0
C4744 C 0.07946 0.79242 0.72438 0.0
C4745 C 0.11249 0.7827 0.73634 0.0
H4746 H 0.14648 0.82104 0.74899 0.0
C4747 C 0.18609 0.79743 0.745 0.0
C4748 C 0.18975 0.78417 0.75392 0.0
C4749 C 0.17023 0.80097 0.74337 0.0
C4750 C 0.13708 0.81022 0.74562 0.0
H4751 H 0.08674 0.81482 0.68477 0.0
H4752 H 0.1094 0.81556 0.70591 0.0
H4753 H 0.11969 0.82504 0.73648 0.0
H4754 H 0.18007 0.76457 0.76871 0.0
H4755 H 0.15217 0.77081 0.76595 0.0
H4756 H 0.13015 0.76774 0.74417 0.0
C4757 C 0.09735 0.8093 0.70803 0.0
C4758 C 0.12176 0.81253 0.73857 0.0
C4759 C 0.08434 0.80887 0.69591 0.0
C4760 C 0.17744 0.77476 0.76161 0.0
C4761 C 0.16152 0.77835 0.76004 0.0
C4762 C 0.12788 0.78035 0.7432 0.0
C4763 C 0.09513 0.80072 0.72215 0.0
C4764 C 0.10959 0.79874 0.73324 0.0
C4765 C 0.15771 0.79137 0.75072 0.0
C4766 C 0.14056 0.79406 0.7472 0.0
H4767 H 0.05441 0.78563 0.71439 0.0
H4768 H 0.07748 0.78576 0.73522 0.0
H4769 H 0.10332 0.77185 0.73223 0.0
H4770 H 0.19543 0.80492 0.73903 0.0
H4771 H 0.16769 0.81086 0.73582 0.0
C4772 C 0.01895 0.35241 0.46701 0.0
C4773 C 0.01741 0.35103 0.44978 0.0
C4774 C 0.01967 0.36785 0.47562 0.0
C4775 C 0.02871 0.41298 0.47087 0.0
H4776 H 0.00326 0.41676 0.50762 0.0
C4777 C 0.00117 0.46712 0.50758 0.0
C4778 C 0.01482 0.47997 0.50901 0.0
C4779 C 0.00272 0.45085 0.50256 0.0
C4780 C 0.01042 0.41589 0.49737 0.0
H4781 H 0.01567 0.36479 0.42808 0.0
H4782 H 0.01653 0.39159 0.44305 0.0
H4783 H 0.00339 0.38939 0.49393 0.0
H4784 H 0.04098 0.48564 0.50722 0.0
H4785 H 0.04368 0.45722 0.49874 0.0
H4786 H 0.03521 0.43947 0.4738 0.0
C4787 C 0.01736 0.3808 0.44994 0.0
C4788 C 0.01063 0.40022 0.48964 0.0
C4789 C 0.01664 0.3654 0.44135 0.0
C4790 C 0.03018 0.47606 0.50609 0.0
C4791 C 0.03172 0.45979 0.50115 0.0
C4792 C 0.02848 0.42863 0.47856 0.0
C4793 C 0.01892 0.38221 0.46716 0.0
C4794 C 0.01958 0.39864 0.47615 0.0
C4795 C 0.01794 0.44708 0.49895 0.0
C4796 C 0.01918 0.43029 0.49177 0.0
H4797 H 0.01944 0.34152 0.47384 0.0
H4798 H 0.02097 0.36858 0.4889 0.0
H4799 H 0.03591 0.41215 0.46065 0.0
H4800 H 0.98915 0.46969 0.50971 0.0
H4801 H 0.99183 0.44138 0.50083 0.0
C4802 C 0.43465 0.28494 0.19712 0.0
C4803 C 0.43275 0.27706 0.18118 0.0
C4804 C 0.4214 0.28397 0.20641 0.0
C4805 C 0.3764 0.27665 0.20019 0.0
H4806 H 0.37952 0.27521 0.24748 0.0
C4807 C 0.31961 0.26637 0.2338 0.0
C4808 C 0.31878 0.27879 0.24608 0.0
C4809 C 0.33436 0.26529 0.22755 0.0
C4810 C 0.37859 0.2757 0.23429 0.0
H4811 H 0.41559 0.26127 0.16287 0.0
H4812 H 0.3928 0.2589 0.17933 0.0
H4813 H 0.4039 0.27403 0.23317 0.0
H4814 H 0.3327 0.29928 0.26219 0.0
H4815 H 0.35883 0.29733 0.25117 0.0
H4816 H 0.3511 0.27802 0.20124 0.0
C4817 C 0.40439 0.26629 0.18447 0.0
C4818 C 0.39247 0.27505 0.2261 0.0
C4819 C 0.41755 0.26744 0.1751 0.0
C4820 C 0.33309 0.28967 0.25262 0.0
C4821 C 0.34798 0.2885 0.24642 0.0
C4822 C 0.36257 0.27708 0.20831 0.0
C4823 C 0.40603 0.27495 0.20001 0.0
C4824 C 0.39147 0.27542 0.20894 0.0
C4825 C 0.34857 0.27655 0.23356 0.0
C4826 C 0.36352 0.27652 0.22538 0.0
H4827 H 0.44631 0.29214 0.20233 0.0
H4828 H 0.42307 0.29081 0.21833 0.0
H4829 H 0.37528 0.27748 0.18704 0.0
H4830 H 0.30875 0.25771 0.22868 0.0
H4831 H 0.33462 0.25587 0.21775 0.0
C4832 C 0.57398 0.5131 0.35397 0.0
C4833 C 0.58556 0.50231 0.35424 0.0
C4834 C 0.56342 0.51321 0.36615 0.0
C4835 C 0.54605 0.48922 0.39895 0.0
H4836 H 0.54228 0.53284 0.41811 0.0
C4837 C 0.52206 0.50017 0.46178 0.0
C4838 C 0.51369 0.51362 0.46414 0.0
C4839 C 0.52848 0.49729 0.44698 0.0
C4840 C 0.5429 0.52054 0.41272 0.0
H4841 H 0.59486 0.48292 0.36733 0.0
H4842 H 0.57637 0.48314 0.38867 0.0
H4843 H 0.55804 0.53064 0.39496 0.0
H4844 H 0.50446 0.53385 0.45242 0.0
H4845 H 0.51529 0.52858 0.42648 0.0
H4846 H 0.53101 0.47915 0.41691 0.0
C4847 C 0.5754 0.4914 0.37892 0.0
C4848 C 0.55199 0.51929 0.39945 0.0
C4849 C 0.586 0.4913 0.36672 0.0
C4850 C 0.51103 0.52351 0.45106 0.0
C4851 C 0.51732 0.52054 0.43622 0.0
C4852 C 0.53686 0.49047 0.41222 0.0
C4853 C 0.56415 0.50253 0.37888 0.0
C4854 C 0.55379 0.50364 0.39249 0.0
C4855 C 0.52657 0.50774 0.43418 0.0
C4856 C 0.53528 0.50617 0.41934 0.0
H4857 H 0.57306 0.52146 0.34432 0.0
H4858 H 0.55468 0.52172 0.36563 0.0
H4859 H 0.54707 0.47698 0.39371 0.0
H4860 H 0.52439 0.49236 0.47165 0.0
H4861 H 0.53565 0.4874 0.44589 0.0
C4862 C 0.24815 0.83611 0.09964 0.0
C4863 C 0.23618 0.84645 0.09841 0.0
C4864 C 0.25146 0.82853 0.11414 0.0
C4865 C 0.24952 0.83341 0.15838 0.0
H4866 H 0.25031 0.78602 0.15763 0.0
C4867 C 0.24966 0.79904 0.21755 0.0
C4868 C 0.25757 0.78515 0.21868 0.0
C4869 C 0.24833 0.80682 0.20292 0.0
C4870 C 0.25047 0.79932 0.1581 0.0
H4871 H 0.21838 0.85704 0.11141 0.0
H4872 H 0.22435 0.84399 0.13686 0.0
H4873 H 0.24545 0.79884 0.13195 0.0
H4874 H 0.27083 0.76883 0.20559 0.0
H4875 H 0.26904 0.78274 0.18009 0.0
H4876 H 0.25488 0.83412 0.1844 0.0
C4877 C 0.23109 0.84169 0.12656 0.0
C4878 C 0.24758 0.80664 0.14335 0.0
C4879 C 0.22758 0.84904 0.11197 0.0
C4880 C 0.26458 0.77947 0.20501 0.0
C4881 C 0.26341 0.78737 0.19037 0.0
C4882 C 0.25266 0.82617 0.1731 0.0
C4883 C 0.24307 0.83138 0.12781 0.0
C4884 C 0.24685 0.82371 0.14336 0.0
C4885 C 0.25508 0.80104 0.18905 0.0
C4886 C 0.25293 0.80897 0.17322 0.0
H4887 H 0.25491 0.83384 0.08935 0.0
H4888 H 0.2608 0.82069 0.11478 0.0
H4889 H 0.2493 0.84666 0.15873 0.0
H4890 H 0.24409 0.80369 0.22788 0.0
H4891 H 0.24158 0.81708 0.2024 0.0
C4892 C 0.954 0.54726 0.83609 0.0
C4893 C 0.94267 0.55814 0.83353 0.0
C4894 C 0.96069 0.54513 0.85195 0.0
C4895 C 0.96621 0.56389 0.89505 0.0
H4896 H 0.97187 0.51931 0.90543 0.0
C4897 C 0.97737 0.5456 0.96155 0.0
C4898 C 0.98955 0.53579 0.96489 0.0
C4899 C 0.97239 0.54863 0.94543 0.0
C4900 C 0.97052 0.53186 0.90268 0.0
H4901 H 0.92955 0.57535 0.84563 0.0
H4902 H 0.94099 0.57146 0.87329 0.0
H4903 H 0.96196 0.52424 0.87756 0.0
H4904 H 0.00591 0.52133 0.95381 0.0
H4905 H 0.99707 0.52652 0.92563 0.0
H4906 H 0.97442 0.57137 0.92034 0.0
C4907 C 0.94501 0.56482 0.86305 0.0
C4908 C 0.96488 0.53472 0.88668 0.0
C4909 C 0.93841 0.56705 0.84717 0.0
C4910 C 0.99653 0.52898 0.95169 0.0
C4911 C 0.99141 0.53187 0.93554 0.0
C4912 C 0.97171 0.56099 0.91109 0.0
C4913 C 0.95613 0.55371 0.86567 0.0
C4914 C 0.96259 0.55077 0.88264 0.0
C4915 C 0.97933 0.54179 0.93223 0.0
C4916 C 0.97387 0.54493 0.9151 0.0
H4917 H 0.95768 0.54038 0.82581 0.0
H4918 H 0.96947 0.53673 0.85343 0.0
H4919 H 0.9649 0.57646 0.89238 0.0
H4920 H 0.97173 0.55106 0.97141 0.0
H4921 H 0.96292 0.55616 0.94328 0.0
C4922 C 0.30327 0.2279 0.59356 0.0
C4923 C 0.29858 0.2323 0.57774 0.0
C4924 C 0.30521 0.23956 0.60698 0.0
C4925 C 0.28529 0.27218 0.62042 0.0
H4926 H 0.31526 0.27273 0.65971 0.0
C4927 C 0.26675 0.28764 0.68459 0.0
C4928 C 0.26975 0.27559 0.69544 0.0
C4929 C 0.27406 0.28843 0.66998 0.0
C4930 C 0.30686 0.27285 0.6488 0.0
H4931 H 0.29381 0.25291 0.56349 0.0
H4932 H 0.29638 0.27307 0.58722 0.0
H4933 H 0.32299 0.26344 0.63321 0.0
H4934 H 0.28286 0.25513 0.69987 0.0
H4935 H 0.29522 0.25615 0.67432 0.0
H4936 H 0.26853 0.2801 0.63609 0.0
C4937 C 0.29863 0.26058 0.58907 0.0
C4938 C 0.31133 0.26766 0.63367 0.0
C4939 C 0.29697 0.24896 0.57556 0.0
C4940 C 0.28026 0.26447 0.69163 0.0
C4941 C 0.28756 0.26526 0.67711 0.0
C4942 C 0.28074 0.27724 0.63558 0.0
C4943 C 0.30228 0.2558 0.60493 0.0
C4944 C 0.30019 0.26639 0.61951 0.0
C4945 C 0.28454 0.27721 0.6661 0.0
C4946 C 0.2911 0.27665 0.65001 0.0
H4947 H 0.30442 0.21519 0.59582 0.0
H4948 H 0.30775 0.23546 0.61912 0.0
H4949 H 0.27643 0.27123 0.60969 0.0
H4950 H 0.25881 0.29648 0.68741 0.0
H4951 H 0.27151 0.29776 0.66171 0.0
C4952 C 0.56413 0.49974 0.20496 0.0
C4953 C 0.58029 0.50855 0.20751 0.0
C4954 C 0.55394 0.5014 0.19081 0.0
C4955 C 0.54823 0.52859 0.15742 0.0
H4956 H 0.5285 0.48789 0.13119 0.0
C4957 C 0.52813 0.50849 0.08593 0.0
C4958 C 0.51762 0.51972 0.08165 0.0
C4959 C 0.5327 0.50649 0.10238 0.0
C4960 C 0.5338 0.49934 0.13849 0.0
H4961 H 0.59834 0.52601 0.19713 0.0
H4962 H 0.58046 0.52909 0.17266 0.0
H4963 H 0.54248 0.48633 0.15851 0.0
H4964 H 0.5032 0.53728 0.09103 0.0
H4965 H 0.51141 0.53393 0.11996 0.0
H4966 H 0.53997 0.54157 0.1372 0.0
C4967 C 0.57566 0.52104 0.1817 0.0
C4968 C 0.5417 0.49845 0.15412 0.0
C4969 C 0.58589 0.51927 0.19573 0.0
C4970 C 0.51136 0.52858 0.09406 0.0
C4971 C 0.51606 0.5267 0.11055 0.0
C4972 C 0.54014 0.52947 0.14189 0.0
C4973 C 0.55965 0.51202 0.17904 0.0
C4974 C 0.54937 0.51306 0.16353 0.0
C4975 C 0.52692 0.51577 0.11483 0.0
C4976 C 0.53325 0.51484 0.13212 0.0
H4977 H 0.55933 0.49161 0.21392 0.0
H4978 H 0.54159 0.49439 0.18907 0.0
H4979 H 0.55396 0.54002 0.16451 0.0
H4980 H 0.53314 0.50153 0.07657 0.0
H4981 H 0.54125 0.49814 0.10536 0.0
C4982 C 0.22351 0.85334 0.92451 0.0
C4983 C 0.22801 0.84605 0.93895 0.0
C4984 C 0.22613 0.84631 0.90922 0.0
C4985 C 0.23061 0.80759 0.887 0.0
H4986 H 0.25535 0.83566 0.85843 0.0
C4987 C 0.23469 0.78961 0.81828 0.0
C4988 C 0.25051 0.79158 0.81322 0.0
C4989 C 0.23223 0.79551 0.83402 0.0
C4990 C 0.24848 0.82768 0.86632 0.0
H4991 H 0.23828 0.82549 0.94874 0.0
H4992 H 0.24236 0.81289 0.92194 0.0
H4993 H 0.24975 0.84754 0.885 0.0
H4994 H 0.27616 0.80129 0.82068 0.0
H4995 H 0.27176 0.81207 0.84814 0.0
H4996 H 0.229 0.78783 0.86814 0.0
C4997 C 0.23701 0.82413 0.92248 0.0
C4998 C 0.24517 0.83449 0.88143 0.0
C4999 C 0.23471 0.83134 0.93778 0.0
C5000 C 0.26385 0.7995 0.82428 0.0
C5001 C 0.26133 0.80574 0.83993 0.0
C5002 C 0.23362 0.80086 0.87174 0.0
C5003 C 0.23297 0.83168 0.90807 0.0
C5004 C 0.23624 0.8245 0.89193 0.0
C5005 C 0.24548 0.80383 0.84492 0.0
C5006 C 0.24263 0.81084 0.86128 0.0
H5007 H 0.21845 0.86475 0.92509 0.0
H5008 H 0.22283 0.85232 0.89828 0.0
H5009 H 0.22367 0.79963 0.89486 0.0
H5010 H 0.22417 0.78354 0.81005 0.0
H5011 H 0.21989 0.79395 0.83753 0.0
C5012 C 0.93455 0.54273 0.66167 0.0
C5013 C 0.94087 0.55595 0.67356 0.0
C5014 C 0.94232 0.54041 0.64758 0.0
C5015 C 0.97 0.56244 0.62087 0.0
H5016 H 0.97793 0.51842 0.6072 0.0
C5017 C 0.01109 0.55245 0.56991 0.0
C5018 C 0.00672 0.5381 0.55908 0.0
C5019 C 0.0028 0.5544 0.58369 0.0
C5020 C 0.9756 0.53075 0.61066 0.0
H5021 H 0.9605 0.57705 0.6798 0.0
H5022 H 0.97381 0.5732 0.65501 0.0
H5023 H 0.9638 0.52235 0.63143 0.0
H5024 H 0.99074 0.51424 0.55449 0.0
H5025 H 0.97567 0.51787 0.57817 0.0
H5026 H 0.98149 0.57088 0.60003 0.0
C5027 C 0.96277 0.56467 0.65665 0.0
C5028 C 0.96755 0.533 0.6246 0.0
C5029 C 0.9551 0.5669 0.67084 0.0
C5030 C 0.99405 0.52561 0.56241 0.0
C5031 C 0.98562 0.5276 0.57614 0.0
C5032 C 0.9779 0.56018 0.60685 0.0
C5033 C 0.95651 0.55136 0.6449 0.0
C5034 C 0.96476 0.54889 0.62992 0.0
C5035 C 0.98985 0.54207 0.58695 0.0
C5036 C 0.98094 0.54433 0.60162 0.0
H5037 H 0.92344 0.53424 0.66312 0.0
H5038 H 0.93708 0.53018 0.63863 0.0
H5039 H 0.9678 0.57479 0.62452 0.0
H5040 H 0.02091 0.56224 0.56769 0.0
H5041 H 0.00668 0.56554 0.59188 0.0
C5042 C 0.27918 0.20562 0.4154 0.0
C5043 C 0.28493 0.21269 0.4313 0.0
C5044 C 0.28142 0.21501 0.40194 0.0
C5045 C 0.28683 0.25778 0.39039 0.0
H5046 H 0.29686 0.23735 0.3496 0.0
C5047 C 0.29022 0.27018 0.31736 0.0
C5048 C 0.2748 0.27498 0.31421 0.0
C5049 C 0.29542 0.26588 0.33295 0.0
C5050 C 0.29439 0.2434 0.36096 0.0
H5051 H 0.29744 0.23511 0.44566 0.0
H5052 H 0.3014 0.25154 0.42204 0.0
H5053 H 0.29865 0.22262 0.37443 0.0
H5054 H 0.2533 0.28021 0.32521 0.0
H5055 H 0.26227 0.27251 0.35225 0.0
H5056 H 0.28215 0.27839 0.37681 0.0
C5057 C 0.29519 0.23874 0.42003 0.0
C5058 C 0.29521 0.23486 0.37512 0.0
C5059 C 0.29301 0.22932 0.4335 0.0
C5060 C 0.26517 0.27641 0.32718 0.0
C5061 C 0.2704 0.27216 0.34275 0.0
C5062 C 0.28598 0.26632 0.37621 0.0
C5063 C 0.2894 0.23166 0.40412 0.0
C5064 C 0.29092 0.24174 0.38983 0.0
C5065 C 0.28533 0.26636 0.34567 0.0
C5066 C 0.28925 0.25898 0.36125 0.0
H5067 H 0.27305 0.19279 0.41335 0.0
H5068 H 0.27661 0.20931 0.38983 0.0
H5069 H 0.28344 0.26337 0.40157 0.0
H5070 H 0.29797 0.26905 0.30765 0.0
H5071 H 0.30708 0.26162 0.33493 0.0
C5072 C 0.38042 0.62537 0.51405 0.0
C5073 C 0.36473 0.61915 0.50598 0.0
C5074 C 0.39281 0.6156 0.51432 0.0
C5075 C 0.399 0.57201 0.51121 0.0
H5076 H 0.44292 0.59003 0.50185 0.0
C5077 C 0.45301 0.53627 0.52216 0.0
C5078 C 0.46362 0.53614 0.50989 0.0
C5079 C 0.44125 0.54673 0.52169 0.0
C5080 C 0.43069 0.58481 0.50443 0.0
H5081 H 0.34968 0.59775 0.49207 0.0
H5082 H 0.37122 0.58065 0.49269 0.0
H5083 H 0.42179 0.60774 0.50097 0.0
H5084 H 0.46997 0.54642 0.48725 0.0
H5085 H 0.44954 0.56497 0.4865 0.0
H5086 H 0.4078 0.5491 0.51465 0.0
C5087 C 0.37398 0.5931 0.49873 0.0
C5088 C 0.41864 0.59499 0.50407 0.0
C5089 C 0.36168 0.60294 0.49827 0.0
C5090 C 0.46219 0.54659 0.49706 0.0
C5091 C 0.45048 0.55715 0.49663 0.0
C5092 C 0.41106 0.56191 0.51174 0.0
C5093 C 0.38969 0.59931 0.50675 0.0
C5094 C 0.40264 0.58867 0.50739 0.0
C5095 C 0.43982 0.55729 0.50891 0.0
C5096 C 0.42705 0.56815 0.50832 0.0
H5097 H 0.38314 0.63786 0.52002 0.0
H5098 H 0.40476 0.62068 0.52068 0.0
H5099 H 0.38682 0.56682 0.51396 0.0
H5100 H 0.4539 0.52839 0.53224 0.0
H5101 H 0.43338 0.54666 0.53144 0.0
C5102 C 0.82748 0.96316 0.51962 0.0
C5103 C 0.82544 0.94724 0.5255 0.0
C5104 C 0.84315 0.97217 0.519 0.0
C5105 C 0.88665 0.97405 0.53531 0.0
H5106 H 0.89501 -1e-05 0.4981 0.0
C5107 C 0.94938 0.01443 0.53198 0.0
C5108 C 0.95564 0.01442 0.51671 0.0
C5109 C 0.9331 0.00753 0.53318 0.0
C5110 C 0.89292 0.99271 0.50851 0.0
H5111 H 0.8381 0.92815 0.53518 0.0
H5112 H 0.86549 0.94366 0.53377 0.0
H5113 H 0.86759 0.98488 0.4999 0.0
H5114 H 0.94971 0.00739 0.49069 0.0
H5115 H 0.92143 0.9949 0.49282 0.0
H5116 H 0.9121 0.98121 0.54355 0.0
C5117 C 0.85502 0.94942 0.53003 0.0
C5118 C 0.87713 0.98423 0.50967 0.0
C5119 C 0.83935 0.9405 0.5308 0.0
C5120 C 0.94521 0.00768 0.50261 0.0
C5121 C 0.92896 0.00059 0.50384 0.0
C5122 C 0.90245 0.9824 0.53408 0.0
C5123 C 0.85712 0.96536 0.5241 0.0
C5124 C 0.87382 0.97474 0.52305 0.0
C5125 C 0.92276 0.00025 0.51917 0.0
C5126 C 0.9058 0.9918 0.52065 0.0
H5127 H 0.81693 0.96871 0.51563 0.0
H5128 H 0.8443 0.98452 0.51465 0.0
H5129 H 0.8845 0.96706 0.5459 0.0
H5130 H 0.95707 0.0197 0.54305 0.0
H5131 H 0.92865 0.00783 0.54512 0.0
C5132 C 0.83354 0.13756 0.2654 0.0
C5133 C 0.83275 0.12813 0.25037 0.0
C5134 C 0.825 0.15091 0.26669 0.0
C5135 C 0.78901 0.16593 0.24808 0.0
H5136 H 0.80905 0.20864 0.27038 0.0
C5137 C 0.75493 0.22194 0.2484 0.0
C5138 C 0.75711 0.2327 0.26269 0.0
C5139 C 0.7646 0.20958 0.24678 0.0
C5140 C 0.80319 0.19673 0.26431 0.0
H5141 H 0.82248 0.12529 0.2249 0.0
H5142 H 0.80739 0.14854 0.22719 0.0
H5143 H 0.8253 0.18642 0.26777 0.0
H5144 H 0.7707 0.23882 0.28667 0.0
H5145 H 0.78743 0.21699 0.28409 0.0
H5146 H 0.76682 0.17591 0.24496 0.0
C5147 C 0.81466 0.14561 0.23795 0.0
C5148 C 0.81253 0.18403 0.26277 0.0
C5149 C 0.82337 0.13241 0.23661 0.0
C5150 C 0.76898 0.2308 0.27544 0.0
C5151 C 0.77858 0.21832 0.2739 0.0
C5152 C 0.77963 0.17852 0.24978 0.0
C5153 C 0.81532 0.15495 0.25302 0.0
C5154 C 0.80554 0.16853 0.25459 0.0
C5155 C 0.77652 0.20754 0.25953 0.0
C5156 C 0.78659 0.19412 0.25787 0.0
H5157 H 0.84079 0.13463 0.27617 0.0
H5158 H 0.82565 0.15783 0.27847 0.0
H5159 H 0.78323 0.15401 0.24195 0.0
H5160 H 0.74598 0.2233 0.2383 0.0
H5161 H 0.76287 0.20177 0.23541 0.0
C5162 C 0.70459 0.09022 0.99659 0.0
C5163 C 0.70767 0.10773 0.9983 0.0
C5164 C 0.68859 0.08146 0.99612 0.0
C5165 C 0.65521 0.06674 0.00623 0.0
H5166 H 0.619 0.08446 0.98452 0.0
C5167 C 0.58842 0.04748 0.02016 0.0
C5168 C 0.57576 0.04681 0.00743 0.0
C5169 C 0.60468 0.0531 0.01755 0.0
C5170 C 0.62894 0.07916 0.99045 0.0
H5171 H 0.69625 0.12975 0.00034 0.0
H5172 H 0.66858 0.11457 -2e-05 0.0
H5173 H 0.64698 0.09756 0.98211 0.0
H5174 H 0.57008 0.05082 0.98185 0.0
H5175 H 0.59852 0.06034 0.97714 0.0
H5176 H 0.63714 0.04823 0.01445 0.0
C5177 C 0.67844 0.10755 0.99882 0.0
C5178 C 0.64501 0.08683 0.98925 0.0
C5179 C 0.69437 0.11626 0.99927 0.0
C5180 C 0.57964 0.05135 0.9919 0.0
C5181 C 0.59592 0.05688 0.98925 0.0
C5182 C 0.63912 0.05902 0.00739 0.0
C5183 C 0.67533 0.09004 0.99729 0.0
C5184 C 0.65834 0.08092 0.99737 0.0
C5185 C 0.60862 0.05807 0.00211 0.0
C5186 C 0.62577 0.06531 -0.00026 0.0
H5187 H 0.71457 0.08326 0.99591 0.0
H5188 H 0.68661 0.06798 0.9948 0.0
H5189 H 0.66518 0.06191 0.01272 0.0
H5190 H 0.58573 0.04407 0.03226 0.0
H5191 H 0.6141 0.05406 0.02779 0.0
C5192 C 0.16207 0.4062 0.28326 0.0
C5193 C 0.1625 0.4185 0.27194 0.0
C5194 C 0.17191 0.39388 0.28224 0.0
C5195 C 0.19517 0.37257 0.25397 0.0
H5196 H 0.21947 0.36283 0.29388 0.0
C5197 C 0.24605 0.33201 0.25286 0.0
C5198 C 0.24743 0.32116 0.26533 0.0
C5199 C 0.23544 0.34364 0.25357 0.0
C5200 C 0.21261 0.36518 0.28263 0.0
H5201 H 0.17375 0.42734 0.25064 0.0
H5202 H 0.19065 0.40571 0.24873 0.0
H5203 H 0.20101 0.38307 0.29514 0.0
H5204 H 0.23942 0.3144 0.28865 0.0
H5205 H 0.22033 0.33408 0.28961 0.0
H5206 H 0.20661 0.3546 0.24145 0.0
C5207 C 0.18258 0.40555 0.25832 0.0
C5208 C 0.20203 0.37683 0.28337 0.0
C5209 C 0.17283 0.41793 0.2594 0.0
C5210 C 0.23822 0.32231 0.27865 0.0
C5211 C 0.22751 0.33381 0.27932 0.0
C5212 C 0.20566 0.36083 0.25324 0.0
C5213 C 0.18235 0.39346 0.26982 0.0
C5214 C 0.19324 0.38072 0.26904 0.0
C5215 C 0.22595 0.34465 0.26678 0.0
C5216 C 0.21459 0.35702 0.26756 0.0
H5217 H 0.15408 0.40604 0.29291 0.0
H5218 H 0.17127 0.3846 0.29114 0.0
H5219 H 0.18841 0.37514 0.24274 0.0
H5220 H 0.25308 0.33142 0.24248 0.0
H5221 H 0.23481 0.35195 0.24384 0.0
C5222 C 0.1681 0.44882 0.98727 0.0
C5223 C 0.17605 0.45042 0.0033 0.0
C5224 C 0.15566 0.45792 0.98317 0.0
C5225 C 0.13625 0.49315 0.99833 0.0
H5226 H 0.09754 0.46861 0.97222 0.0
C5227 C 0.06306 0.49245 0.99179 0.0
C5228 C 0.06276 0.5096 0.99251 0.0
C5229 C 0.0775 0.48648 0.98943 0.0
C5230 C 0.10826 0.47565 0.97952 0.0
H5231 H 0.17749 0.46289 0.02754 0.0
H5232 H 0.15551 0.47846 0.02058 0.0
H5233 H 0.12213 0.45615 0.97594 0.0
H5234 H 0.07689 0.53396 0.99038 0.0
H5235 H 0.1022 0.52352 0.9859 0.0
H5236 H 0.12201 0.51215 0.00285 0.0
C5237 C 0.1591 0.47054 0.01101 0.0
C5238 C 0.12245 0.46859 0.98149 0.0
C5239 C 0.17165 0.46157 0.01505 0.0
C5240 C 0.07689 0.52067 0.98996 0.0
C5241 C 0.09136 0.51469 0.9875 0.0
C5242 C 0.122 0.50014 0.99649 0.0
C5243 C 0.15081 0.46868 0.99507 0.0
C5244 C 0.13649 0.47708 0.99127 0.0
C5245 C 0.09194 0.49756 0.98763 0.0
C5246 C 0.1077 0.49128 0.98742 0.0
H5247 H 0.17146 0.44046 0.97793 0.0
H5248 H 0.14974 0.4564 0.97072 0.0
H5249 H 0.14695 0.50016 0.00568 0.0
H5250 H 0.0523 0.48365 0.99371 0.0
H5251 H 0.07751 0.47325 0.98985 0.0
C5252 C 0.82519 0.96325 0.26704 0.0
C5253 C 0.82619 0.9697 0.25161 0.0
C5254 C 0.81708 0.94706 0.26835 0.0
C5255 C 0.80532 0.90664 0.24454 0.0
H5256 H 0.77701 0.89555 0.27849 0.0
C5257 C 0.76973 0.84044 0.24597 0.0
C5258 C 0.7691 0.83367 0.26126 0.0
C5259 C 0.77546 0.85736 0.24498 0.0
C5260 C 0.78501 0.89841 0.26904 0.0
H5261 H 0.81928 0.96425 0.22549 0.0
H5262 H 0.80505 0.93601 0.22778 0.0
H5263 H 0.78929 0.92456 0.27638 0.0
H5264 H 0.77357 0.83953 0.28757 0.0
H5265 H 0.78386 0.86908 0.28585 0.0
H5266 H 0.80138 0.88059 0.23734 0.0
C5267 C 0.81062 0.94346 0.23886 0.0
C5268 C 0.79202 0.91503 0.26782 0.0
C5269 C 0.81862 0.9597 0.23755 0.0
C5270 C 0.77386 0.84435 0.27559 0.0
C5271 C 0.77972 0.86131 0.2746 0.0
C5272 C 0.79841 0.89006 0.2458 0.0
C5273 C 0.8099 0.9369 0.25425 0.0
C5274 C 0.80222 0.91933 0.25552 0.0
C5275 C 0.78084 0.86796 0.25926 0.0
C5276 C 0.78811 0.88571 0.25803 0.0
H5277 H 0.83075 0.97072 0.27811 0.0
H5278 H 0.81683 0.94233 0.28037 0.0
H5279 H 0.81338 0.90948 0.23513 0.0
H5280 H 0.76596 0.83263 0.23467 0.0
H5281 H 0.77577 0.8621 0.23297 0.0
C5282 C 0.69311 0.0778 0.77058 0.0
C5283 C 0.68152 0.07566 0.78195 0.0
C5284 C 0.7023 0.09354 0.76923 0.0
C5285 C 0.69972 0.13782 0.77775 0.0
H5286 H 0.74545 0.14614 0.7699 0.0
C5287 C 0.73541 0.2039 0.78208 0.0
C5288 C 0.74422 0.20848 0.76889 0.0
C5289 C 0.72938 0.18722 0.78377 0.0
C5290 C 0.73265 0.14393 0.77196 0.0
H5291 H 0.67125 0.08797 0.80159 0.0
H5292 H 0.68738 0.11528 0.79946 0.0
H5293 H 0.73197 0.11762 0.77305 0.0
H5294 H 0.75438 0.19928 0.74755 0.0
H5295 H 0.74378 0.16982 0.75055 0.0
H5296 H 0.70032 0.164 0.7768 0.0
C5297 C 0.68908 0.10498 0.79123 0.0
C5298 C 0.72493 0.12765 0.77375 0.0
C5299 C 0.67988 0.08933 0.7925 0.0
C5300 C 0.74758 0.19602 0.75781 0.0
C5301 C 0.74156 0.17921 0.75955 0.0
C5302 C 0.70741 0.15401 0.77606 0.0
C5303 C 0.70008 0.10739 0.77929 0.0
C5304 C 0.70842 0.12447 0.77689 0.0
C5305 C 0.73204 0.17472 0.77233 0.0
C5306 C 0.72399 0.15729 0.77336 0.0
H5307 H 0.69456 0.06748 0.76224 0.0
H5308 H 0.71062 0.09499 0.75987 0.0
H5309 H 0.68687 0.13578 0.77966 0.0
H5310 H 0.73277 0.21325 0.7909 0.0
H5311 H 0.72233 0.1841 0.79391 0.0
loop_
_geom_bond_atom_site_label_1
_geom_bond_atom_site_label_2
_geom_bond_distance
_geom_bond_site_symmetry_2
_ccdc_geom_bond_type
Li0 N17 1.990 . S
Li0 O60 1.956 1_655 S
Li0 O61 1.970 . S
Li0 O62 1.961 1_655 S
Li1 N25 1.990 . S
Li1 O60 1.970 . S
Li1 O61 1.956 1_455 S
Li1 O63 1.961 . S
Li2 N47 1.990 . S
Li2 O60 1.961 . S
Li2 O62 1.956 . S
Li2 O63 1.970 . S
Li3 N53 1.990 . S
Li3 O61 1.961 1_455 S
Li3 O62 1.970 . S
Li3 O63 1.956 . S
C4 C6 1.348 . S
C4 C7 1.356 . S
C4 O60 1.325 . S
N5 C8 1.314 . S
N5 C9 1.279 . S
C6 C4 1.348 . S
C6 C8 1.353 . S
C6 H64 0.929 . S
C7 C4 1.356 . S
C7 C9 1.358 . S
C7 H65 0.930 . S
C8 N5 1.314 . S
C8 C6 1.353 . S
C8 H66 0.930 . S
C9 N5 1.279 . S
C9 C7 1.358 . S
C9 H67 0.930 . S
C10 C13 1.348 . S
C10 C14 1.356 . S
C10 O61 1.325 . S
C11 N12 1.279 . S
C11 C14 1.358 . S
C11 H68 0.930 . S
N12 C11 1.279 . S
N12 C15 1.314 . S
C13 C10 1.348 . S
C13 C15 1.353 . S
C13 H69 0.929 . S
C14 C10 1.356 . S
C14 C11 1.358 . S
C14 H70 0.930 . S
C15 N12 1.314 . S
C15 C13 1.353 . S
C15 H71 0.930 . S
C16 N17 1.314 . S
C16 C21 1.353 . S
C16 H22 0.930 . S
N17 Li0 1.990 . S
N17 C16 1.314 . S
N17 C19 1.279 . S
C18 C19 1.358 . S
C18 C20 1.356 . S
C18 H72 0.930 . S
C19 N17 1.279 . S
C19 C18 1.358 . S
C19 H23 0.930 . S
C20 C18 1.356 . S
C20 C21 1.348 . S
C21 C16 1.353 . S
C21 C20 1.348 . S
C21 H73 0.929 . S
H22 C16 0.930 . S
H23 C19 0.930 . S
C24 N25 1.314 . S
C24 C26 1.353 . S
C24 H30 0.930 . S
N25 Li1 1.990 . S
N25 C24 1.314 . S
N25 C28 1.279 . S
C26 C24 1.353 . S
C26 C29 1.348 . S
C26 H74 0.929 . S
C27 C28 1.358 . S
C27 C29 1.356 . S
C27 H75 0.982 . S
C28 N25 1.279 . S
C28 C27 1.358 . S
C28 H31 0.930 1_455 S
C29 C26 1.348 . S
C29 C27 1.356 . S
H30 C24 0.930 . S
H31 C28 0.930 1_655 S
C32 C34 1.348 . S
C32 C35 1.356 . S
C32 O62 1.325 . S
N33 C36 1.314 . S
N33 C37 1.279 . S
C34 C32 1.348 . S
C34 C36 1.353 . S
C34 H76 0.929 . S
C35 C32 1.356 . S
C35 C37 1.358 . S
C35 H77 0.930 . S
C36 N33 1.314 . S
C36 C34 1.353 . S
C36 H78 0.930 . S
C37 N33 1.279 . S
C37 C35 1.358 . S
C37 H79 0.930 . S
C38 C39 1.348 . S
C38 C40 1.356 . S
C38 O63 1.325 . S
C39 C38 1.348 . S
C39 C41 1.353 . S
C39 H80 0.929 . S
C40 C38 1.356 . S
C40 C42 1.358 . S
C40 H81 0.930 . S
C41 C39 1.353 . S
C41 N43 1.314 . S
C41 H82 0.930 . S
C42 C40 1.358 . S
C42 N43 1.279 . S
C42 H83 0.930 . S
N43 C41 1.314 . S
N43 C42 1.279 . S
C44 C46 1.353 . S
C44 N47 1.314 . S
C44 H50 0.930 . S
C45 N47 1.279 . S
C45 C48 1.358 . S
C45 H51 0.930 . S
C46 C44 1.353 . S
C46 C49 1.348 . S
C46 H84 0.929 . S
N47 Li2 1.990 . S
N47 C44 1.314 . S
N47 C45 1.279 . S
C48 C45 1.358 . S
C48 C49 1.356 . S
C48 H85 0.930 . S
C49 C46 1.348 . S
C49 C48 1.356 . S
H50 C44 0.930 . S
H51 C45 0.930 . S
C52 N53 1.314 . S
C52 C54 1.353 1_455 S
C52 H58 0.930 1_455 S
N53 Li3 1.990 . S
N53 C52 1.314 . S
N53 C56 1.279 . S
C54 C52 1.353 1_655 S
C54 C57 1.344 1_655 S
C54 H86 0.933 . S
C55 C56 1.358 . S
C55 C57 1.356 . S
C55 H87 0.930 . S
C56 N53 1.279 . S
C56 C55 1.358 . S
C56 H59 0.930 . S
C57 C54 1.344 1_455 S
C57 C55 1.356 . S
H58 C52 0.930 1_655 S
H59 C56 0.930 . S
O60 Li0 1.956 1_455 S
O60 Li1 1.970 . S
O60 Li2 1.961 . S
O60 C4 1.325 . S
O61 Li0 1.970 . S
O61 Li1 1.956 1_655 S
O61 Li3 1.961 1_655 S
O61 C10 1.325 . S
O62 Li0 1.961 1_455 S
O62 Li2 1.956 . S
O62 Li3 1.970 . S
O62 C32 1.325 . S
O63 Li1 1.961 . S
O63 Li2 1.970 . S
O63 Li3 1.956 . S
O63 C38 1.325 . S
H64 C6 0.929 . S
H65 C7 0.930 . S
H66 C8 0.930 . S
H67 C9 0.930 . S
H68 C11 0.930 . S
H69 C13 0.929 . S
H70 C14 0.930 . S
H71 C15 0.930 . S
H72 C18 0.930 . S
H73 C21 0.929 . S
H74 C26 0.929 . S
H75 C27 0.982 . S
H76 C34 0.929 . S
H77 C35 0.930 . S
H78 C36 0.930 . S
H79 C37 0.930 . S
H80 C39 0.929 . S
H81 C40 0.930 . S
H82 C41 0.930 . S
H83 C42 0.930 . S
H84 C46 0.929 . S
H85 C48 0.930 . S
H86 C54 0.933 . S
H87 C55 0.930 . S
Li88 N105 1.990 . S
Li88 O148 1.956 . S
Li88 O149 1.970 . S
Li88 O150 1.961 1_455 S
Li89 N113 1.990 . S
Li89 O148 1.970 . S
Li89 O149 1.956 . S
Li89 O151 1.959 1_455 S
Li90 N135 1.990 . S
Li90 O148 1.961 1_655 S
Li90 O150 1.956 . S
Li90 O151 1.970 . S
Li91 N141 1.990 . S
Li91 O149 1.961 1_655 S
Li91 O150 1.970 . S
Li91 O151 1.958 . S
C92 C94 1.348 . S
C92 C95 1.356 . S
C92 O148 1.325 . S
N93 C96 1.314 . S
N93 C97 1.279 . S
C94 C92 1.348 . S
C94 C96 1.353 . S
C94 H152 0.929 . S
C95 C92 1.356 . S
C95 C97 1.358 . S
C95 H153 0.930 . S
C96 N93 1.314 . S
C96 C94 1.353 . S
C96 H154 0.930 . S
C97 N93 1.279 . S
C97 C95 1.358 . S
C97 H155 0.930 . S
C98 C101 1.348 . S
C98 C102 1.356 . S
C98 O149 1.325 . S
C99 N100 1.279 . S
C99 C102 1.358 . S
C99 H156 0.930 . S
N100 C99 1.279 . S
N100 C103 1.314 . S
C101 C98 1.348 . S
C101 C103 1.353 . S
C101 H157 0.929 . S
C102 C98 1.356 . S
C102 C99 1.358 . S
C102 H158 0.924 1_455 S
C103 N100 1.314 . S
C103 C101 1.353 . S
C103 H159 0.930 . S
C104 N105 1.314 1_655 S
C104 C109 1.353 . S
C104 H110 0.930 . S
N105 Li88 1.990 . S
N105 C104 1.314 1_455 S
N105 C107 1.279 . S
C106 C107 1.358 . S
C106 C108 1.356 . S
C106 H160 0.930 . S
C107 N105 1.279 . S
C107 C106 1.358 . S
C107 H111 0.930 . S
C108 C106 1.356 . S
C108 C109 1.348 1_455 S
C109 C104 1.353 . S
C109 C108 1.348 1_655 S
C109 H161 0.929 . S
H110 C104 0.930 . S
H111 C107 0.930 . S
C112 N113 1.314 . S
C112 C114 1.353 . S
C112 H118 0.930 . S
N113 Li89 1.990 . S
N113 C112 1.314 . S
N113 C116 1.279 . S
C114 C112 1.353 . S
C114 C117 1.348 . S
C114 H162 0.929 . S
C115 C116 1.358 . S
C115 C117 1.356 . S
C115 H163 0.930 . S
C116 N113 1.279 . S
C116 C115 1.358 . S
C116 H119 0.930 . S
C117 C114 1.348 . S
C117 C115 1.356 . S
H118 C112 0.930 . S
H119 C116 0.930 . S
C120 C122 1.348 . S
C120 C123 1.356 . S
C120 O150 1.325 . S
N121 C124 1.314 . S
N121 C125 1.279 . S
C122 C120 1.348 . S
C122 C124 1.353 . S
C122 H164 0.929 . S
C123 C120 1.356 . S
C123 C125 1.358 . S
C123 H165 0.930 . S
C124 N121 1.314 . S
C124 C122 1.353 . S
C124 H166 0.930 . S
C125 N121 1.279 . S
C125 C123 1.358 . S
C125 H167 0.930 . S
C126 C127 1.364 . S
C126 C128 1.348 1_655 S
C126 O151 1.328 . S
C127 C126 1.364 . S
C127 C129 1.353 . S
C127 H168 0.929 . S
C128 C126 1.348 1_455 S
C128 C130 1.358 . S
C128 H169 0.930 . S
C129 C127 1.353 . S
C129 N131 1.314 . S
C129 H170 0.930 . S
C130 C128 1.358 . S
C130 N131 1.279 1_455 S
C130 H171 0.930 . S
N131 C129 1.314 . S
N131 C130 1.279 1_655 S
C132 C134 1.353 . S
C132 N135 1.314 1_455 S
C132 H138 0.930 . S
C133 N135 1.279 . S
C133 C136 1.358 . S
C133 H139 0.930 . S
C134 C132 1.353 . S
C134 C137 1.348 1_455 S
C134 H172 0.929 . S
N135 Li90 1.990 . S
N135 C132 1.314 1_655 S
N135 C133 1.279 . S
C136 C133 1.358 . S
C136 C137 1.356 . S
C136 H173 0.930 . S
C137 C134 1.348 1_655 S
C137 C136 1.356 . S
H138 C132 0.930 . S
H139 C133 0.930 . S
C140 N141 1.314 . S
C140 C142 1.353 . S
C140 H146 0.930 . S
N141 Li91 1.990 . S
N141 C140 1.314 . S
N141 C144 1.279 . S
C142 C140 1.353 . S
C142 C145 1.348 . S
C142 H174 0.929 . S
C143 C144 1.358 . S
C143 C145 1.356 . S
C143 H175 0.930 . S
C144 N141 1.279 . S
C144 C143 1.358 . S
C144 H147 0.930 . S
C145 C142 1.348 . S
C145 C143 1.356 . S
H146 C140 0.930 . S
H147 C144 0.930 . S
O148 Li88 1.956 . S
O148 Li89 1.970 . S
O148 Li90 1.961 1_455 S
O148 C92 1.325 . S
O149 Li88 1.970 . S
O149 Li89 1.956 . S
O149 Li91 1.961 1_455 S
O149 C98 1.325 . S
O150 Li88 1.961 1_655 S
O150 Li90 1.956 . S
O150 Li91 1.970 . S
O150 C120 1.325 . S
O151 Li89 1.959 1_655 S
O151 Li90 1.970 . S
O151 Li91 1.958 . S
O151 C126 1.328 . S
H152 C94 0.929 . S
H153 C95 0.930 . S
H154 C96 0.930 . S
H155 C97 0.930 . S
H156 C99 0.930 . S
H157 C101 0.929 . S
H158 C102 0.924 1_655 S
H159 C103 0.930 . S
H160 C106 0.930 . S
H161 C109 0.929 . S
H162 C114 0.929 . S
H163 C115 0.930 . S
H164 C122 0.929 . S
H165 C123 0.930 . S
H166 C124 0.930 . S
H167 C125 0.930 . S
H168 C127 0.929 . S
H169 C128 0.930 . S
H170 C129 0.930 . S
H171 C130 0.930 . S
H172 C134 0.929 . S
H173 C136 0.930 . S
H174 C142 0.929 . S
H175 C143 0.930 . S
Li176 N193 1.990 . S
Li176 O236 1.956 . S
Li176 O237 1.970 . S
Li176 O238 1.961 . S
Li177 N201 1.990 . S
Li177 O236 1.970 . S
Li177 O237 1.956 . S
Li177 O239 1.961 . S
Li178 N223 1.990 . S
Li178 O236 1.961 . S
Li178 O238 1.956 . S
Li178 O239 1.970 . S
Li179 N229 1.990 . S
Li179 O237 1.961 . S
Li179 O238 1.970 . S
Li179 O239 1.956 . S
C180 C182 1.348 . S
C180 C183 1.356 . S
C180 O236 1.325 . S
N181 C184 1.314 . S
N181 C185 1.279 . S
C182 C180 1.348 . S
C182 C184 1.353 . S
C182 H240 0.929 . S
C183 C180 1.356 . S
C183 C185 1.358 . S
C183 H241 0.930 . S
C184 N181 1.314 . S
C184 C182 1.353 . S
C184 H242 0.930 . S
C185 N181 1.279 . S
C185 C183 1.358 . S
C185 H243 0.930 . S
C186 C189 1.348 . S
C186 C190 1.356 . S
C186 O237 1.325 . S
C187 N188 1.279 . S
C187 C190 1.358 . S
C187 H244 0.930 . S
N188 C187 1.279 . S
N188 C191 1.314 . S
C189 C186 1.348 . S
C189 C191 1.353 . S
C189 H245 0.929 . S
C190 C186 1.356 . S
C190 C187 1.358 . S
C190 H246 0.930 . S
C191 N188 1.314 . S
C191 C189 1.353 . S
C191 H247 0.930 . S
C192 N193 1.314 . S
C192 C197 1.353 . S
C192 H198 0.930 . S
N193 Li176 1.990 . S
N193 C192 1.314 . S
N193 C195 1.279 . S
C194 C195 1.358 . S
C194 C196 1.356 . S
C194 H248 0.930 . S
C195 N193 1.279 . S
C195 C194 1.358 . S
C195 H199 0.930 . S
C196 C194 1.356 . S
C196 C197 1.348 . S
C197 C192 1.353 . S
C197 C196 1.348 . S
C197 H249 0.929 . S
H198 C192 0.930 . S
H199 C195 0.930 . S
C200 N201 1.314 . S
C200 C202 1.353 . S
C200 H206 0.930 . S
N201 Li177 1.990 . S
N201 C200 1.314 . S
N201 C204 1.279 . S
C202 C200 1.353 . S
C202 C205 1.348 . S
C202 H250 0.929 . S
C203 C204 1.358 . S
C203 C205 1.356 . S
C203 H251 0.930 . S
C204 N201 1.279 . S
C204 C203 1.358 . S
C204 H207 0.930 . S
C205 C202 1.348 . S
C205 C203 1.356 . S
H206 C200 0.930 . S
H207 C204 0.930 . S
C208 C210 1.348 . S
C208 C211 1.356 . S
C208 O238 1.325 . S
N209 C212 1.314 . S
N209 C213 1.279 . S
C210 C208 1.348 . S
C210 C212 1.353 . S
C210 H252 0.929 . S
C211 C208 1.356 . S
C211 C213 1.358 . S
C211 H253 0.930 . S
C212 N209 1.314 . S
C212 C210 1.353 . S
C212 H254 0.930 . S
C213 N209 1.279 . S
C213 C211 1.358 . S
C213 H255 0.930 . S
C214 C215 1.348 . S
C214 C216 1.356 . S
C214 O239 1.325 . S
C215 C214 1.348 . S
C215 C217 1.353 . S
C215 H256 0.929 . S
C216 C214 1.356 . S
C216 C218 1.358 . S
C216 H257 0.930 . S
C217 C215 1.353 . S
C217 N219 1.314 . S
C217 H258 0.930 . S
C218 C216 1.358 . S
C218 N219 1.279 . S
C218 H259 0.930 . S
N219 C217 1.314 . S
N219 C218 1.279 . S
C220 C222 1.353 . S
C220 N223 1.314 . S
C220 H226 0.930 . S
C221 N223 1.279 . S
C221 C224 1.358 . S
C221 H227 0.930 . S
C222 C220 1.353 . S
C222 C225 1.348 . S
C222 H260 0.929 . S
N223 Li178 1.990 . S
N223 C220 1.314 . S
N223 C221 1.279 . S
C224 C221 1.358 . S
C224 C225 1.356 . S
C224 H261 0.930 . S
C225 C222 1.348 . S
C225 C224 1.356 . S
H226 C220 0.930 . S
H227 C221 0.930 . S
C228 N229 1.314 . S
C228 C230 1.353 . S
C228 H234 0.930 . S
N229 Li179 1.990 . S
N229 C228 1.314 . S
N229 C232 1.279 . S
C230 C228 1.353 . S
C230 C233 1.348 . S
C230 H262 0.929 . S
C231 C232 1.358 . S
C231 C233 1.356 . S
C231 H263 0.930 . S
C232 N229 1.279 . S
C232 C231 1.358 . S
C232 H235 0.930 . S
C233 C230 1.348 . S
C233 C231 1.356 . S
H234 C228 0.930 . S
H235 C232 0.930 . S
O236 Li176 1.956 . S
O236 Li177 1.970 . S
O236 Li178 1.961 . S
O236 C180 1.325 . S
O237 Li176 1.970 . S
O237 Li177 1.956 . S
O237 Li179 1.961 . S
O237 C186 1.325 . S
O238 Li176 1.961 . S
O238 Li178 1.956 . S
O238 Li179 1.970 . S
O238 C208 1.325 . S
O239 Li177 1.961 . S
O239 Li178 1.970 . S
O239 Li179 1.956 . S
O239 C214 1.325 . S
H240 C182 0.929 . S
H241 C183 0.930 . S
H242 C184 0.930 . S
H243 C185 0.930 . S
H244 C187 0.930 . S
H245 C189 0.929 . S
H246 C190 0.930 . S
H247 C191 0.930 . S
H248 C194 0.930 . S
H249 C197 0.929 . S
H250 C202 0.929 . S
H251 C203 0.930 . S
H252 C210 0.929 . S
H253 C211 0.930 . S
H254 C212 0.930 . S
H255 C213 0.930 . S
H256 C215 0.929 . S
H257 C216 0.930 . S
H258 C217 0.930 . S
H259 C218 0.930 . S
H260 C222 0.929 . S
H261 C224 0.930 . S
H262 C230 0.929 . S
H263 C231 0.930 . S
Li264 N281 1.990 . S
Li264 O324 1.956 . S
Li264 O325 1.970 . S
Li264 O326 1.961 . S
Li265 N289 1.990 . S
Li265 O324 1.970 . S
Li265 O325 1.956 . S
Li265 O327 1.961 . S
Li266 N311 1.990 . S
Li266 O324 1.961 . S
Li266 O326 1.956 . S
Li266 O327 1.970 . S
Li267 N317 1.990 . S
Li267 O325 1.961 . S
Li267 O326 1.970 . S
Li267 O327 1.956 . S
C268 C270 1.348 . S
C268 C271 1.356 . S
C268 O324 1.325 . S
N269 C272 1.314 . S
N269 C273 1.279 . S
C270 C268 1.348 . S
C270 C272 1.353 . S
C270 H328 0.929 . S
C271 C268 1.356 . S
C271 C273 1.358 . S
C271 H329 0.930 . S
C272 N269 1.314 . S
C272 C270 1.353 . S
C272 H330 0.930 . S
C273 N269 1.279 . S
C273 C271 1.358 . S
C273 H331 0.930 . S
C274 C277 1.348 . S
C274 C278 1.356 . S
C274 O325 1.325 . S
C275 N276 1.279 . S
C275 C278 1.358 . S
C275 H332 0.930 . S
N276 C275 1.279 . S
N276 C279 1.314 . S
C277 C274 1.348 . S
C277 C279 1.353 . S
C277 H333 0.929 . S
C278 C274 1.356 . S
C278 C275 1.358 . S
C278 H334 0.930 . S
C279 N276 1.314 . S
C279 C277 1.353 . S
C279 H335 0.930 . S
C280 N281 1.314 . S
C280 C285 1.353 . S
C280 H286 0.930 . S
N281 Li264 1.990 . S
N281 C280 1.314 . S
N281 C283 1.279 . S
C282 C283 1.358 . S
C282 C284 1.356 . S
C282 H336 0.930 . S
C283 N281 1.279 . S
C283 C282 1.358 . S
C283 H287 0.930 . S
C284 C282 1.356 . S
C284 C285 1.348 . S
C285 C280 1.353 . S
C285 C284 1.348 . S
C285 H337 0.929 . S
H286 C280 0.930 . S
H287 C283 0.930 . S
C288 N289 1.314 . S
C288 C290 1.353 . S
C288 H294 0.930 . S
N289 Li265 1.990 . S
N289 C288 1.314 . S
N289 C292 1.279 . S
C290 C288 1.353 . S
C290 C293 1.348 . S
C290 H338 0.929 . S
C291 C292 1.358 . S
C291 C293 1.356 . S
C291 H339 0.930 . S
C292 N289 1.279 . S
C292 C291 1.358 . S
C292 H295 0.930 . S
C293 C290 1.348 . S
C293 C291 1.356 . S
H294 C288 0.930 . S
H295 C292 0.930 . S
C296 C298 1.348 . S
C296 C299 1.356 . S
C296 O326 1.325 . S
N297 C300 1.314 . S
N297 C301 1.279 . S
C298 C296 1.348 . S
C298 C300 1.353 . S
C298 H340 0.929 . S
C299 C296 1.356 . S
C299 C301 1.358 . S
C299 H341 0.930 . S
C300 N297 1.314 . S
C300 C298 1.353 . S
C300 H342 0.930 . S
C301 N297 1.279 . S
C301 C299 1.358 . S
C301 H343 0.930 . S
C302 C303 1.348 . S
C302 C304 1.356 . S
C302 O327 1.325 . S
C303 C302 1.348 . S
C303 C305 1.353 . S
C303 H344 0.929 . S
C304 C302 1.356 . S
C304 C306 1.358 . S
C304 H345 0.930 . S
C305 C303 1.353 . S
C305 N307 1.314 . S
C305 H346 0.930 . S
C306 C304 1.358 . S
C306 N307 1.279 . S
C306 H347 0.930 . S
N307 C305 1.314 . S
N307 C306 1.279 . S
C308 C310 1.353 . S
C308 N311 1.314 . S
C308 H314 0.930 . S
C309 N311 1.279 . S
C309 C312 1.358 . S
C309 H315 0.930 . S
C310 C308 1.353 . S
C310 C313 1.348 . S
C310 H348 0.929 . S
N311 Li266 1.990 . S
N311 C308 1.314 . S
N311 C309 1.279 . S
C312 C309 1.358 . S
C312 C313 1.356 . S
C312 H349 0.930 . S
C313 C310 1.348 . S
C313 C312 1.356 . S
H314 C308 0.930 . S
H315 C309 0.930 . S
C316 N317 1.314 . S
C316 C318 1.353 . S
C316 H322 0.930 . S
N317 Li267 1.990 . S
N317 C316 1.314 . S
N317 C320 1.279 . S
C318 C316 1.353 . S
C318 C321 1.348 . S
C318 H350 0.929 . S
C319 C320 1.358 . S
C319 C321 1.356 . S
C319 H351 0.930 . S
C320 N317 1.279 . S
C320 C319 1.358 . S
C320 H323 0.930 . S
C321 C318 1.348 . S
C321 C319 1.356 . S
H322 C316 0.930 . S
H323 C320 0.930 . S
O324 Li264 1.956 . S
O324 Li265 1.970 . S
O324 Li266 1.961 . S
O324 C268 1.325 . S
O325 Li264 1.970 . S
O325 Li265 1.956 . S
O325 Li267 1.961 . S
O325 C274 1.325 . S
O326 Li264 1.961 . S
O326 Li266 1.956 . S
O326 Li267 1.970 . S
O326 C296 1.325 . S
O327 Li265 1.961 . S
O327 Li266 1.970 . S
O327 Li267 1.956 . S
O327 C302 1.325 . S
H328 C270 0.929 . S
H329 C271 0.930 . S
H330 C272 0.930 . S
H331 C273 0.930 . S
H332 C275 0.930 . S
H333 C277 0.929 . S
H334 C278 0.930 . S
H335 C279 0.930 . S
H336 C282 0.930 . S
H337 C285 0.929 . S
H338 C290 0.929 . S
H339 C291 0.930 . S
H340 C298 0.929 . S
H341 C299 0.930 . S
H342 C300 0.930 . S
H343 C301 0.930 . S
H344 C303 0.929 . S
H345 C304 0.930 . S
H346 C305 0.930 . S
H347 C306 0.930 . S
H348 C310 0.929 . S
H349 C312 0.930 . S
H350 C318 0.929 . S
H351 C319 0.930 . S
Li352 N369 1.990 . S
Li352 O412 1.956 . S
Li352 O413 1.970 . S
Li352 O414 1.961 1_455 S
Li353 N377 1.990 . S
Li353 O412 1.970 . S
Li353 O413 1.956 . S
Li353 O415 1.961 . S
Li354 N399 1.990 . S
Li354 O412 1.961 . S
Li354 O414 1.956 1_455 S
Li354 O415 1.970 . S
Li355 N405 1.990 . S
Li355 O413 1.961 1_655 S
Li355 O414 1.970 . S
Li355 O415 1.956 1_655 S
C356 C358 1.348 . S
C356 C359 1.356 . S
C356 O412 1.325 . S
N357 C360 1.314 . S
N357 C361 1.279 . S
C358 C356 1.348 . S
C358 C360 1.353 . S
C358 H416 0.929 . S
C359 C356 1.356 . S
C359 C361 1.358 . S
C359 H417 0.930 . S
C360 N357 1.314 . S
C360 C358 1.353 . S
C360 H418 0.930 . S
C361 N357 1.279 . S
C361 C359 1.358 . S
C361 H419 0.930 . S
C362 C365 1.348 . S
C362 C366 1.356 . S
C362 O413 1.325 . S
C363 N364 1.279 . S
C363 C366 1.358 . S
C363 H420 0.930 . S
N364 C363 1.279 . S
N364 C367 1.314 . S
C365 C362 1.348 . S
C365 C367 1.353 . S
C365 H421 0.929 . S
C366 C362 1.356 . S
C366 C363 1.358 . S
C366 H422 0.930 . S
C367 N364 1.314 . S
C367 C365 1.353 . S
C367 H423 0.930 . S
C368 N369 1.314 1_655 S
C368 C373 1.353 . S
C368 H374 0.930 . S
N369 Li352 1.990 . S
N369 C368 1.314 1_455 S
N369 C371 1.279 . S
C370 C371 1.358 . S
C370 C372 1.356 . S
C370 H424 0.930 . S
C371 N369 1.279 . S
C371 C370 1.358 . S
C371 H375 0.930 . S
C372 C370 1.356 . S
C372 C373 1.348 1_455 S
C373 C368 1.353 . S
C373 C372 1.348 1_655 S
C373 H425 0.929 . S
H374 C368 0.930 . S
H375 C371 0.930 . S
C376 N377 1.314 . S
C376 C378 1.353 . S
C376 H382 0.930 . S
N377 Li353 1.990 . S
N377 C376 1.314 . S
N377 C380 1.279 . S
C378 C376 1.353 . S
C378 C381 1.348 . S
C378 H426 0.929 . S
C379 C380 1.358 . S
C379 C381 1.356 . S
C379 H427 0.930 . S
C380 N377 1.279 . S
C380 C379 1.358 . S
C380 H383 0.930 . S
C381 C378 1.348 . S
C381 C379 1.356 . S
H382 C376 0.930 . S
H383 C380 0.930 . S
C384 C386 1.348 . S
C384 C387 1.356 . S
C384 O414 1.325 . S
N385 C388 1.314 . S
N385 C389 1.279 . S
C386 C384 1.348 . S
C386 C388 1.353 . S
C386 H428 0.929 . S
C387 C384 1.356 . S
C387 C389 1.358 . S
C387 H429 0.930 . S
C388 N385 1.314 . S
C388 C386 1.353 . S
C388 H430 0.930 . S
C389 N385 1.279 . S
C389 C387 1.358 . S
C389 H431 0.930 . S
C390 C391 1.347 1_455 S
C390 C392 1.356 . S
C390 O415 1.325 . S
C391 C390 1.347 1_655 S
C391 C393 1.355 . S
C391 H432 0.930 . S
C392 C390 1.356 . S
C392 C394 1.358 . S
C392 H433 0.930 . S
C393 C391 1.355 . S
C393 N395 1.309 1_655 S
C393 H434 0.935 . S
C394 C392 1.358 . S
C394 N395 1.279 . S
C394 H435 0.930 . S
N395 C393 1.309 1_455 S
N395 C394 1.279 . S
C396 C398 1.353 . S
C396 N399 1.314 . S
C396 H402 0.930 . S
C397 N399 1.279 1_655 S
C397 C400 1.358 . S
C397 H403 0.930 . S
C398 C396 1.353 . S
C398 C401 1.348 1_455 S
C398 H436 0.929 . S
N399 Li354 1.990 . S
N399 C396 1.314 . S
N399 C397 1.279 1_455 S
C400 C397 1.358 . S
C400 C401 1.356 . S
C400 H437 0.930 . S
C401 C398 1.348 1_655 S
C401 C400 1.356 . S
H402 C396 0.930 . S
H403 C397 0.930 . S
C404 N405 1.314 . S
C404 C406 1.353 . S
C404 H410 0.930 . S
N405 Li355 1.990 . S
N405 C404 1.314 . S
N405 C408 1.279 . S
C406 C404 1.353 . S
C406 C409 1.348 . S
C406 H438 0.929 . S
C407 C408 1.358 . S
C407 C409 1.356 . S
C407 H439 0.930 . S
C408 N405 1.279 . S
C408 C407 1.358 . S
C408 H411 0.930 . S
C409 C406 1.348 . S
C409 C407 1.356 . S
H410 C404 0.930 . S
H411 C408 0.930 . S
O412 Li352 1.956 . S
O412 Li353 1.970 . S
O412 Li354 1.961 . S
O412 C356 1.325 . S
O413 Li352 1.970 . S
O413 Li353 1.956 . S
O413 Li355 1.961 1_455 S
O413 C362 1.325 . S
O414 Li352 1.961 1_655 S
O414 Li354 1.956 1_655 S
O414 Li355 1.970 . S
O414 C384 1.325 . S
O415 Li353 1.961 . S
O415 Li354 1.970 . S
O415 Li355 1.956 1_455 S
O415 C390 1.325 . S
H416 C358 0.929 . S
H417 C359 0.930 . S
H418 C360 0.930 . S
H419 C361 0.930 . S
H420 C363 0.930 . S
H421 C365 0.929 . S
H422 C366 0.930 . S
H423 C367 0.930 . S
H424 C370 0.930 . S
H425 C373 0.929 . S
H426 C378 0.929 . S
H427 C379 0.930 . S
H428 C386 0.929 . S
H429 C387 0.930 . S
H430 C388 0.930 . S
H431 C389 0.930 . S
H432 C391 0.930 . S
H433 C392 0.930 . S
H434 C393 0.935 . S
H435 C394 0.930 . S
H436 C398 0.929 . S
H437 C400 0.930 . S
H438 C406 0.929 . S
H439 C407 0.930 . S
Li440 N457 1.990 . S
Li440 O500 1.956 . S
Li440 O501 1.970 . S
Li440 O502 1.961 . S
Li441 N465 1.990 . S
Li441 O500 1.970 . S
Li441 O501 1.956 . S
Li441 O503 1.961 . S
Li442 N487 1.990 . S
Li442 O500 1.961 . S
Li442 O502 1.956 . S
Li442 O503 1.970 . S
Li443 N493 1.990 . S
Li443 O501 1.961 . S
Li443 O502 1.970 . S
Li443 O503 1.956 . S
C444 C446 1.348 . S
C444 C447 1.356 . S
C444 O500 1.325 . S
N445 C448 1.314 . S
N445 C449 1.279 . S
C446 C444 1.348 . S
C446 C448 1.353 . S
C446 H504 0.929 . S
C447 C444 1.356 . S
C447 C449 1.358 . S
C447 H505 0.930 . S
C448 N445 1.314 . S
C448 C446 1.353 . S
C448 H506 0.930 . S
C449 N445 1.279 . S
C449 C447 1.358 . S
C449 H507 0.930 . S
C450 C453 1.348 . S
C450 C454 1.356 . S
C450 O501 1.325 . S
C451 N452 1.279 . S
C451 C454 1.358 . S
C451 H508 0.930 . S
N452 C451 1.279 . S
N452 C455 1.314 . S
C453 C450 1.348 . S
C453 C455 1.353 . S
C453 H509 0.929 . S
C454 C450 1.356 . S
C454 C451 1.358 . S
C454 H510 0.930 . S
C455 N452 1.314 . S
C455 C453 1.353 . S
C455 H511 0.930 . S
C456 N457 1.314 . S
C456 C461 1.353 . S
C456 H462 0.930 . S
N457 Li440 1.990 . S
N457 C456 1.314 . S
N457 C459 1.279 . S
C458 C459 1.358 . S
C458 C460 1.356 . S
C458 H512 0.930 . S
C459 N457 1.279 . S
C459 C458 1.358 . S
C459 H463 0.930 . S
C460 C458 1.356 . S
C460 C461 1.348 . S
C461 C456 1.353 . S
C461 C460 1.348 . S
C461 H513 0.929 . S
H462 C456 0.930 . S
H463 C459 0.930 . S
C464 N465 1.314 . S
C464 C466 1.353 . S
C464 H470 0.930 . S
N465 Li441 1.990 . S
N465 C464 1.314 . S
N465 C468 1.279 . S
C466 C464 1.353 . S
C466 C469 1.348 . S
C466 H514 0.929 . S
C467 C468 1.358 . S
C467 C469 1.356 . S
C467 H515 0.930 . S
C468 N465 1.279 . S
C468 C467 1.358 . S
C468 H471 0.930 . S
C469 C466 1.348 . S
C469 C467 1.356 . S
H470 C464 0.930 . S
H471 C468 0.930 . S
C472 C474 1.348 . S
C472 C475 1.356 . S
C472 O502 1.325 . S
N473 C476 1.314 . S
N473 C477 1.279 . S
C474 C472 1.348 . S
C474 C476 1.353 . S
C474 H516 0.929 . S
C475 C472 1.356 . S
C475 C477 1.358 . S
C475 H517 0.930 . S
C476 N473 1.314 . S
C476 C474 1.353 . S
C476 H518 0.930 . S
C477 N473 1.279 . S
C477 C475 1.358 . S
C477 H519 0.930 . S
C478 C479 1.348 . S
C478 C480 1.356 . S
C478 O503 1.325 . S
C479 C478 1.348 . S
C479 C481 1.353 . S
C479 H520 0.929 . S
C480 C478 1.356 . S
C480 C482 1.358 . S
C480 H521 0.930 . S
C481 C479 1.353 . S
C481 N483 1.314 . S
C481 H522 0.930 . S
C482 C480 1.358 . S
C482 N483 1.279 . S
C482 H523 0.930 . S
N483 C481 1.314 . S
N483 C482 1.279 . S
C484 C486 1.353 . S
C484 N487 1.314 . S
C484 H490 0.930 . S
C485 N487 1.279 . S
C485 C488 1.358 . S
C485 H491 0.930 . S
C486 C484 1.353 . S
C486 C489 1.348 . S
C486 H524 0.929 . S
N487 Li442 1.990 . S
N487 C484 1.314 . S
N487 C485 1.279 . S
C488 C485 1.358 . S
C488 C489 1.356 . S
C488 H525 0.930 . S
C489 C486 1.348 . S
C489 C488 1.356 . S
H490 C484 0.930 . S
H491 C485 0.930 . S
C492 N493 1.314 . S
C492 C494 1.353 . S
C492 H498 0.930 . S
N493 Li443 1.990 . S
N493 C492 1.314 . S
N493 C496 1.279 . S
C494 C492 1.353 . S
C494 C497 1.348 . S
C494 H526 0.929 . S
C495 C496 1.358 . S
C495 C497 1.356 . S
C495 H527 0.930 . S
C496 N493 1.279 . S
C496 C495 1.358 . S
C496 H499 0.930 . S
C497 C494 1.348 . S
C497 C495 1.356 . S
H498 C492 0.930 . S
H499 C496 0.930 . S
O500 Li440 1.956 . S
O500 Li441 1.970 . S
O500 Li442 1.961 . S
O500 C444 1.325 . S
O501 Li440 1.970 . S
O501 Li441 1.956 . S
O501 Li443 1.961 . S
O501 C450 1.325 . S
O502 Li440 1.961 . S
O502 Li442 1.956 . S
O502 Li443 1.970 . S
O502 C472 1.325 . S
O503 Li441 1.961 . S
O503 Li442 1.970 . S
O503 Li443 1.956 . S
O503 C478 1.325 . S
H504 C446 0.929 . S
H505 C447 0.930 . S
H506 C448 0.930 . S
H507 C449 0.930 . S
H508 C451 0.930 . S
H509 C453 0.929 . S
H510 C454 0.930 . S
H511 C455 0.930 . S
H512 C458 0.930 . S
H513 C461 0.929 . S
H514 C466 0.929 . S
H515 C467 0.930 . S
H516 C474 0.929 . S
H517 C475 0.930 . S
H518 C476 0.930 . S
H519 C477 0.930 . S
H520 C479 0.929 . S
H521 C480 0.930 . S
H522 C481 0.930 . S
H523 C482 0.930 . S
H524 C486 0.929 . S
H525 C488 0.930 . S
H526 C494 0.929 . S
H527 C495 0.930 . S
Li528 N545 1.990 . S
Li528 O588 1.956 . S
Li528 O589 1.970 . S
Li528 O590 1.961 . S
Li529 N553 1.990 . S
Li529 O588 1.970 . S
Li529 O589 1.956 . S
Li529 O591 1.961 . S
Li530 N575 1.990 . S
Li530 O588 1.961 . S
Li530 O590 1.956 . S
Li530 O591 1.970 . S
Li531 N581 1.990 . S
Li531 O589 1.961 . S
Li531 O590 1.970 . S
Li531 O591 1.956 . S
C532 C534 1.348 . S
C532 C535 1.356 . S
C532 O588 1.325 . S
N533 C536 1.314 . S
N533 C537 1.279 . S
C534 C532 1.348 . S
C534 C536 1.353 . S
C534 H592 0.929 . S
C535 C532 1.356 . S
C535 C537 1.358 . S
C535 H593 0.930 . S
C536 N533 1.314 . S
C536 C534 1.353 . S
C536 H594 0.930 . S
C537 N533 1.279 . S
C537 C535 1.358 . S
C537 H595 0.930 . S
C538 C541 1.348 . S
C538 C542 1.356 . S
C538 O589 1.325 . S
C539 N540 1.279 . S
C539 C542 1.358 . S
C539 H596 0.930 . S
N540 C539 1.279 . S
N540 C543 1.314 . S
C541 C538 1.348 . S
C541 C543 1.353 . S
C541 H597 0.929 . S
C542 C538 1.356 . S
C542 C539 1.358 . S
C542 H598 0.930 . S
C543 N540 1.314 . S
C543 C541 1.353 . S
C543 H599 0.930 . S
C544 N545 1.314 . S
C544 C549 1.353 . S
C544 H550 0.930 . S
N545 Li528 1.990 . S
N545 C544 1.314 . S
N545 C547 1.279 . S
C546 C547 1.358 . S
C546 C548 1.356 . S
C546 H600 0.930 . S
C547 N545 1.279 . S
C547 C546 1.358 . S
C547 H551 0.930 . S
C548 C546 1.356 . S
C548 C549 1.348 . S
C549 C544 1.353 . S
C549 C548 1.348 . S
C549 H601 0.929 . S
H550 C544 0.930 . S
H551 C547 0.930 . S
C552 N553 1.314 . S
C552 C554 1.353 . S
C552 H558 0.930 . S
N553 Li529 1.990 . S
N553 C552 1.314 . S
N553 C556 1.279 . S
C554 C552 1.353 . S
C554 C557 1.348 . S
C554 H602 0.929 . S
C555 C556 1.358 . S
C555 C557 1.356 . S
C555 H603 0.930 . S
C556 N553 1.279 . S
C556 C555 1.358 . S
C556 H559 0.930 . S
C557 C554 1.348 . S
C557 C555 1.356 . S
H558 C552 0.930 . S
H559 C556 0.930 . S
C560 C562 1.348 . S
C560 C563 1.356 . S
C560 O590 1.325 . S
N561 C564 1.314 . S
N561 C565 1.279 . S
C562 C560 1.348 . S
C562 C564 1.353 . S
C562 H604 0.929 . S
C563 C560 1.356 . S
C563 C565 1.358 . S
C563 H605 0.930 . S
C564 N561 1.314 . S
C564 C562 1.353 . S
C564 H606 0.930 . S
C565 N561 1.279 . S
C565 C563 1.358 . S
C565 H607 0.930 . S
C566 C567 1.348 . S
C566 C568 1.356 . S
C566 O591 1.325 . S
C567 C566 1.348 . S
C567 C569 1.353 . S
C567 H608 0.929 . S
C568 C566 1.356 . S
C568 C570 1.358 . S
C568 H609 0.930 . S
C569 C567 1.353 . S
C569 N571 1.314 . S
C569 H610 0.930 . S
C570 C568 1.358 . S
C570 N571 1.279 . S
C570 H611 0.930 . S
N571 C569 1.314 . S
N571 C570 1.279 . S
C572 C574 1.353 . S
C572 N575 1.314 . S
C572 H578 0.930 . S
C573 N575 1.279 . S
C573 C576 1.358 . S
C573 H579 0.930 . S
C574 C572 1.353 . S
C574 C577 1.348 . S
C574 H612 0.929 . S
N575 Li530 1.990 . S
N575 C572 1.314 . S
N575 C573 1.279 . S
C576 C573 1.358 . S
C576 C577 1.356 . S
C576 H613 0.930 . S
C577 C574 1.348 . S
C577 C576 1.356 . S
H578 C572 0.930 . S
H579 C573 0.930 . S
C580 N581 1.314 . S
C580 C582 1.353 . S
C580 H586 0.930 . S
N581 Li531 1.990 . S
N581 C580 1.314 . S
N581 C584 1.279 . S
C582 C580 1.353 . S
C582 C585 1.348 . S
C582 H614 0.929 . S
C583 C584 1.358 . S
C583 C585 1.356 . S
C583 H615 0.930 . S
C584 N581 1.279 . S
C584 C583 1.358 . S
C584 H587 0.930 . S
C585 C582 1.348 . S
C585 C583 1.356 . S
H586 C580 0.930 . S
H587 C584 0.930 . S
O588 Li528 1.956 . S
O588 Li529 1.970 . S
O588 Li530 1.961 . S
O588 C532 1.325 . S
O589 Li528 1.970 . S
O589 Li529 1.956 . S
O589 Li531 1.961 . S
O589 C538 1.325 . S
O590 Li528 1.961 . S
O590 Li530 1.956 . S
O590 Li531 1.970 . S
O590 C560 1.325 . S
O591 Li529 1.961 . S
O591 Li530 1.970 . S
O591 Li531 1.956 . S
O591 C566 1.325 . S
H592 C534 0.929 . S
H593 C535 0.930 . S
H594 C536 0.930 . S
H595 C537 0.930 . S
H596 C539 0.930 . S
H597 C541 0.929 . S
H598 C542 0.930 . S
H599 C543 0.930 . S
H600 C546 0.930 . S
H601 C549 0.929 . S
H602 C554 0.929 . S
H603 C555 0.930 . S
H604 C562 0.929 . S
H605 C563 0.930 . S
H606 C564 0.930 . S
H607 C565 0.930 . S
H608 C567 0.929 . S
H609 C568 0.930 . S
H610 C569 0.930 . S
H611 C570 0.930 . S
H612 C574 0.929 . S
H613 C576 0.930 . S
H614 C582 0.929 . S
H615 C583 0.930 . S
Li616 N633 1.990 . S
Li616 O676 1.956 1_455 S
Li616 O677 1.970 . S
Li616 O678 1.961 . S
Li617 N641 1.990 . S
Li617 O676 1.970 . S
Li617 O677 1.956 1_655 S
Li617 O679 1.961 1_655 S
Li618 N663 1.990 . S
Li618 O676 1.961 1_455 S
Li618 O678 1.956 . S
Li618 O679 1.970 . S
Li619 N669 1.990 . S
Li619 O677 1.961 . S
Li619 O678 1.970 . S
Li619 O679 1.956 . S
C620 C622 1.348 . S
C620 C623 1.356 . S
C620 O676 1.325 . S
N621 C624 1.314 . S
N621 C625 1.279 . S
C622 C620 1.348 . S
C622 C624 1.353 . S
C622 H680 0.929 . S
C623 C620 1.356 . S
C623 C625 1.358 . S
C623 H681 0.930 . S
C624 N621 1.314 . S
C624 C622 1.353 . S
C624 H682 0.930 . S
C625 N621 1.279 . S
C625 C623 1.358 . S
C625 H683 0.930 . S
C626 C629 1.348 . S
C626 C630 1.356 . S
C626 O677 1.325 . S
C627 N628 1.279 . S
C627 C630 1.358 . S
C627 H684 0.930 . S
N628 C627 1.279 . S
N628 C631 1.314 . S
C629 C626 1.348 . S
C629 C631 1.353 . S
C629 H685 0.929 . S
C630 C626 1.356 . S
C630 C627 1.358 . S
C630 H686 0.930 . S
C631 N628 1.314 . S
C631 C629 1.353 . S
C631 H687 0.930 . S
C632 N633 1.314 . S
C632 C637 1.353 . S
C632 H638 0.930 . S
N633 Li616 1.990 . S
N633 C632 1.314 . S
N633 C635 1.279 . S
C634 C635 1.358 . S
C634 C636 1.356 . S
C634 H688 0.930 1_455 S
C635 N633 1.279 . S
C635 C634 1.358 . S
C635 H639 0.930 1_455 S
C636 C634 1.356 . S
C636 C637 1.348 . S
C637 C632 1.353 . S
C637 C636 1.348 . S
C637 H689 0.929 . S
H638 C632 0.930 . S
H639 C635 0.930 1_655 S
C640 N641 1.314 . S
C640 C642 1.353 . S
C640 H646 0.930 . S
N641 Li617 1.990 . S
N641 C640 1.314 . S
N641 C644 1.279 . S
C642 C640 1.353 . S
C642 C645 1.348 . S
C642 H690 0.929 . S
C643 C644 1.358 . S
C643 C645 1.356 . S
C643 H691 0.930 . S
C644 N641 1.279 . S
C644 C643 1.358 . S
C644 H647 0.930 . S
C645 C642 1.348 . S
C645 C643 1.356 . S
H646 C640 0.930 . S
H647 C644 0.930 . S
C648 C650 1.348 . S
C648 C651 1.356 . S
C648 O678 1.325 . S
N649 C652 1.314 . S
N649 C653 1.279 . S
C650 C648 1.348 . S
C650 C652 1.353 . S
C650 H692 0.929 . S
C651 C648 1.356 . S
C651 C653 1.358 . S
C651 H693 0.930 . S
C652 N649 1.314 . S
C652 C650 1.353 . S
C652 H694 0.930 . S
C653 N649 1.279 . S
C653 C651 1.358 . S
C653 H695 0.930 . S
C654 C655 1.348 . S
C654 C656 1.359 . S
C654 O679 1.325 . S
C655 C654 1.348 . S
C655 C657 1.353 . S
C655 H696 0.929 . S
C656 C654 1.359 . S
C656 C658 1.361 1_455 S
C656 H697 0.925 1_455 S
C657 C655 1.353 . S
C657 N659 1.314 . S
C657 H698 0.930 . S
C658 C656 1.361 1_655 S
C658 N659 1.279 1_655 S
C658 H699 0.930 . S
N659 C657 1.314 . S
N659 C658 1.279 1_455 S
C660 C662 1.353 . S
C660 N663 1.314 1_655 S
C660 H666 0.930 . S
C661 N663 1.279 . S
C661 C664 1.358 . S
C661 H667 0.930 . S
C662 C660 1.353 . S
C662 C665 1.348 1_655 S
C662 H700 0.929 . S
N663 Li618 1.990 . S
N663 C660 1.314 1_455 S
N663 C661 1.279 . S
C664 C661 1.358 . S
C664 C665 1.356 . S
C664 H701 0.930 . S
C665 C662 1.348 1_455 S
C665 C664 1.356 . S
H666 C660 0.930 . S
H667 C661 0.930 . S
C668 N669 1.314 . S
C668 C670 1.353 . S
C668 H674 0.930 . S
N669 Li619 1.990 . S
N669 C668 1.314 . S
N669 C672 1.279 . S
C670 C668 1.353 . S
C670 C673 1.348 . S
C670 H702 0.929 . S
C671 C672 1.358 . S
C671 C673 1.356 . S
C671 H703 0.930 . S
C672 N669 1.279 . S
C672 C671 1.358 . S
C672 H675 0.930 . S
C673 C670 1.348 . S
C673 C671 1.356 . S
H674 C668 0.930 . S
H675 C672 0.930 . S
O676 Li616 1.956 1_655 S
O676 Li617 1.970 . S
O676 Li618 1.961 1_655 S
O676 C620 1.325 . S
O677 Li616 1.970 . S
O677 Li617 1.956 1_455 S
O677 Li619 1.961 . S
O677 C626 1.325 . S
O678 Li616 1.961 . S
O678 Li618 1.956 . S
O678 Li619 1.970 . S
O678 C648 1.325 . S
O679 Li617 1.961 1_455 S
O679 Li618 1.970 . S
O679 Li619 1.956 . S
O679 C654 1.325 . S
H680 C622 0.929 . S
H681 C623 0.930 . S
H682 C624 0.930 . S
H683 C625 0.930 . S
H684 C627 0.930 . S
H685 C629 0.929 . S
H686 C630 0.930 . S
H687 C631 0.930 . S
H688 C634 0.930 1_655 S
H689 C637 0.929 . S
H690 C642 0.929 . S
H691 C643 0.930 . S
H692 C650 0.929 . S
H693 C651 0.930 . S
H694 C652 0.930 . S
H695 C653 0.930 . S
H696 C655 0.929 . S
H697 C656 0.925 1_655 S
H698 C657 0.930 . S
H699 C658 0.930 . S
H700 C662 0.929 . S
H701 C664 0.930 . S
H702 C670 0.929 . S
H703 C671 0.930 . S
Li704 N721 1.990 . S
Li704 O764 1.956 . S
Li704 O765 1.970 . S
Li704 O766 1.961 . S
Li705 N729 1.990 . S
Li705 O764 1.970 . S
Li705 O765 1.956 . S
Li705 O767 1.961 . S
Li706 N751 1.990 . S
Li706 O764 1.961 . S
Li706 O766 1.956 . S
Li706 O767 1.970 . S
Li707 N757 1.990 . S
Li707 O765 1.961 . S
Li707 O766 1.970 . S
Li707 O767 1.956 . S
C708 C710 1.348 1_545 S
C708 C711 1.356 . S
C708 O764 1.325 . S
N709 C712 1.314 . S
N709 C713 1.279 1_565 S
C710 C708 1.348 1_565 S
C710 C712 1.353 . S
C710 H768 0.929 . S
C711 C708 1.356 . S
C711 C713 1.358 . S
C711 H769 0.930 . S
C712 N709 1.314 . S
C712 C710 1.353 . S
C712 H770 0.930 . S
C713 N709 1.279 1_545 S
C713 C711 1.358 . S
C713 H771 0.930 . S
C714 C717 1.348 . S
C714 C718 1.356 . S
C714 O765 1.325 . S
C715 N716 1.279 . S
C715 C718 1.358 . S
C715 H772 0.930 . S
N716 C715 1.279 . S
N716 C719 1.314 . S
C717 C714 1.348 . S
C717 C719 1.353 . S
C717 H773 0.929 . S
C718 C714 1.356 . S
C718 C715 1.358 . S
C718 H774 0.930 . S
C719 N716 1.314 . S
C719 C717 1.353 . S
C719 H775 0.930 . S
C720 N721 1.314 . S
C720 C725 1.353 . S
C720 H726 0.930 . S
N721 Li704 1.990 . S
N721 C720 1.314 . S
N721 C723 1.279 . S
C722 C723 1.358 . S
C722 C724 1.356 . S
C722 H776 0.930 . S
C723 N721 1.279 . S
C723 C722 1.358 . S
C723 H727 0.930 . S
C724 C722 1.356 . S
C724 C725 1.348 . S
C725 C720 1.353 . S
C725 C724 1.348 . S
C725 H777 0.929 . S
H726 C720 0.930 . S
H727 C723 0.930 . S
C728 N729 1.314 1_565 S
C728 C730 1.353 . S
C728 H734 0.930 . S
N729 Li705 1.990 . S
N729 C728 1.314 1_545 S
N729 C732 1.279 1_545 S
C730 C728 1.353 . S
C730 C733 1.348 . S
C730 H778 0.929 . S
C731 C732 1.358 . S
C731 C733 1.356 . S
C731 H779 0.930 . S
C732 N729 1.279 1_565 S
C732 C731 1.358 . S
C732 H735 0.930 1_565 S
C733 C730 1.348 . S
C733 C731 1.356 . S
H734 C728 0.930 . S
H735 C732 0.930 1_545 S
C736 C738 1.348 . S
C736 C739 1.356 . S
C736 O766 1.325 . S
N737 C740 1.314 . S
N737 C741 1.279 . S
C738 C736 1.348 . S
C738 C740 1.353 . S
C738 H780 0.929 . S
C739 C736 1.356 . S
C739 C741 1.358 . S
C739 H781 0.930 . S
C740 N737 1.314 . S
C740 C738 1.353 . S
C740 H782 0.930 . S
C741 N737 1.279 . S
C741 C739 1.358 . S
C741 H783 0.930 . S
C742 C743 1.348 . S
C742 C744 1.356 . S
C742 O767 1.325 . S
C743 C742 1.348 . S
C743 C745 1.353 . S
C743 H784 0.929 . S
C744 C742 1.356 . S
C744 C746 1.358 . S
C744 H785 0.930 . S
C745 C743 1.353 . S
C745 N747 1.314 . S
C745 H786 0.930 . S
C746 C744 1.358 . S
C746 N747 1.279 . S
C746 H787 0.930 . S
N747 C745 1.314 . S
N747 C746 1.279 . S
C748 C750 1.353 . S
C748 N751 1.314 . S
C748 H754 0.930 . S
C749 N751 1.279 . S
C749 C752 1.358 . S
C749 H755 0.930 . S
C750 C748 1.353 . S
C750 C753 1.348 . S
C750 H788 0.929 . S
N751 Li706 1.990 . S
N751 C748 1.314 . S
N751 C749 1.279 . S
C752 C749 1.358 . S
C752 C753 1.356 . S
C752 H789 0.930 . S
C753 C750 1.348 . S
C753 C752 1.356 . S
H754 C748 0.930 . S
H755 C749 0.930 . S
C756 N757 1.314 . S
C756 C758 1.353 . S
C756 H762 0.930 . S
N757 Li707 1.990 . S
N757 C756 1.314 . S
N757 C760 1.279 . S
C758 C756 1.353 . S
C758 C761 1.348 . S
C758 H790 0.929 . S
C759 C760 1.358 . S
C759 C761 1.356 . S
C759 H791 0.930 . S
C760 N757 1.279 . S
C760 C759 1.358 . S
C760 H763 0.930 . S
C761 C758 1.348 . S
C761 C759 1.356 . S
H762 C756 0.930 . S
H763 C760 0.930 . S
O764 Li704 1.956 . S
O764 Li705 1.970 . S
O764 Li706 1.961 . S
O764 C708 1.325 . S
O765 Li704 1.970 . S
O765 Li705 1.956 . S
O765 Li707 1.961 . S
O765 C714 1.325 . S
O766 Li704 1.961 . S
O766 Li706 1.956 . S
O766 Li707 1.970 . S
O766 C736 1.325 . S
O767 Li705 1.961 . S
O767 Li706 1.970 . S
O767 Li707 1.956 . S
O767 C742 1.325 . S
H768 C710 0.929 . S
H769 C711 0.930 . S
H770 C712 0.930 . S
H771 C713 0.930 . S
H772 C715 0.930 . S
H773 C717 0.929 . S
H774 C718 0.930 . S
H775 C719 0.930 . S
H776 C722 0.930 . S
H777 C725 0.929 . S
H778 C730 0.929 . S
H779 C731 0.930 . S
H780 C738 0.929 . S
H781 C739 0.930 . S
H782 C740 0.930 . S
H783 C741 0.930 . S
H784 C743 0.929 . S
H785 C744 0.930 . S
H786 C745 0.930 . S
H787 C746 0.930 . S
H788 C750 0.929 . S
H789 C752 0.930 . S
H790 C758 0.929 . S
H791 C759 0.930 . S
Li792 N809 1.990 . S
Li792 O852 1.956 . S
Li792 O853 1.970 . S
Li792 O854 1.961 . S
Li793 N817 1.990 . S
Li793 O852 1.970 . S
Li793 O853 1.956 . S
Li793 O855 1.961 . S
Li794 N839 1.990 . S
Li794 O852 1.961 . S
Li794 O854 1.956 . S
Li794 O855 1.970 . S
Li795 N845 1.990 . S
Li795 O853 1.961 . S
Li795 O854 1.970 . S
Li795 O855 1.956 . S
C796 C798 1.348 . S
C796 C799 1.356 . S
C796 O852 1.325 . S
N797 C800 1.314 . S
N797 C801 1.279 . S
C798 C796 1.348 . S
C798 C800 1.353 . S
C798 H856 0.929 . S
C799 C796 1.356 . S
C799 C801 1.358 . S
C799 H857 0.930 . S
C800 N797 1.314 . S
C800 C798 1.353 . S
C800 H858 0.930 . S
C801 N797 1.279 . S
C801 C799 1.358 . S
C801 H859 0.930 . S
C802 C805 1.348 . S
C802 C806 1.356 . S
C802 O853 1.325 . S
C803 N804 1.279 . S
C803 C806 1.358 . S
C803 H860 0.930 . S
N804 C803 1.279 . S
N804 C807 1.314 . S
C805 C802 1.348 . S
C805 C807 1.353 . S
C805 H861 0.929 . S
C806 C802 1.356 . S
C806 C803 1.358 . S
C806 H862 0.930 . S
C807 N804 1.314 . S
C807 C805 1.353 . S
C807 H863 0.930 . S
C808 N809 1.314 . S
C808 C813 1.353 . S
C808 H814 0.930 . S
N809 Li792 1.990 . S
N809 C808 1.314 . S
N809 C811 1.279 . S
C810 C811 1.358 . S
C810 C812 1.356 . S
C810 H864 0.930 . S
C811 N809 1.279 . S
C811 C810 1.358 . S
C811 H815 0.930 . S
C812 C810 1.356 . S
C812 C813 1.348 . S
C813 C808 1.353 . S
C813 C812 1.348 . S
C813 H865 0.929 . S
H814 C808 0.930 . S
H815 C811 0.930 . S
C816 N817 1.314 . S
C816 C818 1.353 . S
C816 H822 0.930 . S
N817 Li793 1.990 . S
N817 C816 1.314 . S
N817 C820 1.279 . S
C818 C816 1.353 . S
C818 C821 1.348 . S
C818 H866 0.929 . S
C819 C820 1.358 . S
C819 C821 1.356 . S
C819 H867 0.930 . S
C820 N817 1.279 . S
C820 C819 1.358 . S
C820 H823 0.930 . S
C821 C818 1.348 . S
C821 C819 1.356 . S
H822 C816 0.930 . S
H823 C820 0.930 . S
C824 C826 1.348 . S
C824 C827 1.356 . S
C824 O854 1.325 . S
N825 C828 1.314 . S
N825 C829 1.279 . S
C826 C824 1.348 . S
C826 C828 1.353 . S
C826 H868 0.929 . S
C827 C824 1.356 . S
C827 C829 1.358 . S
C827 H869 0.930 . S
C828 N825 1.314 . S
C828 C826 1.353 . S
C828 H870 0.930 . S
C829 N825 1.279 . S
C829 C827 1.358 . S
C829 H871 0.930 . S
C830 C831 1.348 . S
C830 C832 1.356 . S
C830 O855 1.325 . S
C831 C830 1.348 . S
C831 C833 1.353 . S
C831 H872 0.929 . S
C832 C830 1.356 . S
C832 C834 1.358 . S
C832 H873 0.930 . S
C833 C831 1.353 . S
C833 N835 1.314 . S
C833 H874 0.930 . S
C834 C832 1.358 . S
C834 N835 1.279 . S
C834 H875 0.930 . S
N835 C833 1.314 . S
N835 C834 1.279 . S
C836 C838 1.353 . S
C836 N839 1.314 . S
C836 H842 0.930 . S
C837 N839 1.279 . S
C837 C840 1.358 . S
C837 H843 0.930 . S
C838 C836 1.353 . S
C838 C841 1.348 . S
C838 H876 0.929 . S
N839 Li794 1.990 . S
N839 C836 1.314 . S
N839 C837 1.279 . S
C840 C837 1.358 . S
C840 C841 1.356 . S
C840 H877 0.930 . S
C841 C838 1.348 . S
C841 C840 1.356 . S
H842 C836 0.930 . S
H843 C837 0.930 . S
C844 N845 1.314 . S
C844 C846 1.353 . S
C844 H850 0.930 . S
N845 Li795 1.990 . S
N845 C844 1.314 . S
N845 C848 1.279 . S
C846 C844 1.353 . S
C846 C849 1.348 . S
C846 H878 0.929 . S
C847 C848 1.358 . S
C847 C849 1.356 . S
C847 H879 0.930 . S
C848 N845 1.279 . S
C848 C847 1.358 . S
C848 H851 0.930 . S
C849 C846 1.348 . S
C849 C847 1.356 . S
H850 C844 0.930 . S
H851 C848 0.930 . S
O852 Li792 1.956 . S
O852 Li793 1.970 . S
O852 Li794 1.961 . S
O852 C796 1.325 . S
O853 Li792 1.970 . S
O853 Li793 1.956 . S
O853 Li795 1.961 . S
O853 C802 1.325 . S
O854 Li792 1.961 . S
O854 Li794 1.956 . S
O854 Li795 1.970 . S
O854 C824 1.325 . S
O855 Li793 1.961 . S
O855 Li794 1.970 . S
O855 Li795 1.956 . S
O855 C830 1.325 . S
H856 C798 0.929 . S
H857 C799 0.930 . S
H858 C800 0.930 . S
H859 C801 0.930 . S
H860 C803 0.930 . S
H861 C805 0.929 . S
H862 C806 0.930 . S
H863 C807 0.930 . S
H864 C810 0.930 . S
H865 C813 0.929 . S
H866 C818 0.929 . S
H867 C819 0.930 . S
H868 C826 0.929 . S
H869 C827 0.930 . S
H870 C828 0.930 . S
H871 C829 0.930 . S
H872 C831 0.929 . S
H873 C832 0.930 . S
H874 C833 0.930 . S
H875 C834 0.930 . S
H876 C838 0.929 . S
H877 C840 0.930 . S
H878 C846 0.929 . S
H879 C847 0.930 . S
Li880 N897 1.990 . S
Li880 O940 1.956 . S
Li880 O941 1.970 . S
Li880 O942 1.961 . S
Li881 N905 1.992 . S
Li881 O940 1.971 1_565 S
Li881 O941 1.952 1_565 S
Li881 O943 1.965 . S
Li882 N927 1.990 . S
Li882 O940 1.961 1_565 S
Li882 O942 1.956 1_565 S
Li882 O943 1.970 . S
Li883 N933 1.990 . S
Li883 O941 1.961 1_565 S
Li883 O942 1.970 1_565 S
Li883 O943 1.956 . S
C884 C886 1.348 . S
C884 C887 1.356 . S
C884 O940 1.325 . S
N885 C888 1.314 . S
N885 C889 1.279 . S
C886 C884 1.348 . S
C886 C888 1.353 . S
C886 H944 0.929 . S
C887 C884 1.356 . S
C887 C889 1.358 . S
C887 H945 0.929 . S
C888 N885 1.314 . S
C888 C886 1.353 . S
C888 H946 0.930 . S
C889 N885 1.279 . S
C889 C887 1.358 . S
C889 H947 0.930 . S
C890 C893 1.348 . S
C890 C894 1.356 . S
C890 O941 1.325 . S
C891 N892 1.279 . S
C891 C894 1.358 . S
C891 H948 0.930 . S
N892 C891 1.279 . S
N892 C895 1.314 . S
C893 C890 1.348 . S
C893 C895 1.353 . S
C893 H949 0.929 . S
C894 C890 1.356 . S
C894 C891 1.358 . S
C894 H950 0.930 . S
C895 N892 1.314 . S
C895 C893 1.353 . S
C895 H951 0.930 . S
C896 N897 1.314 . S
C896 C901 1.353 . S
C896 H902 0.930 . S
N897 Li880 1.990 . S
N897 C896 1.314 . S
N897 C899 1.279 . S
C898 C899 1.358 . S
C898 C900 1.356 . S
C898 H952 0.930 . S
C899 N897 1.279 . S
C899 C898 1.358 . S
C899 H903 0.930 . S
C900 C898 1.356 . S
C900 C901 1.348 . S
C901 C896 1.353 . S
C901 C900 1.348 . S
C901 H953 0.929 . S
H902 C896 0.930 . S
H903 C899 0.930 . S
C904 N905 1.364 . S
C904 C906 1.353 . S
C904 H910 0.930 . S
N905 Li881 1.992 . S
N905 C904 1.364 . S
N905 C908 1.231 1_565 S
C906 C904 1.353 . S
C906 C909 1.348 . S
C906 H954 0.929 . S
C907 C908 1.358 . S
C907 C909 1.356 1_545 S
C907 H955 0.930 . S
C908 N905 1.231 1_545 S
C908 C907 1.358 . S
C908 H911 0.930 . S
C909 C906 1.348 . S
C909 C907 1.356 1_565 S
H910 C904 0.930 . S
H911 C908 0.930 . S
C912 C914 1.348 1_545 S
C912 C915 1.356 . S
C912 O942 1.325 . S
N913 C916 1.314 1_545 S
N913 C917 1.279 . S
C914 C912 1.348 1_565 S
C914 C916 1.353 . S
C914 H956 0.929 . S
C915 C912 1.356 . S
C915 C917 1.358 . S
C915 H957 0.930 . S
C916 N913 1.314 1_565 S
C916 C914 1.353 . S
C916 H958 0.930 . S
C917 N913 1.279 . S
C917 C915 1.358 . S
C917 H959 0.930 . S
C918 C919 1.348 . S
C918 C920 1.356 . S
C918 O943 1.325 . S
C919 C918 1.348 . S
C919 C921 1.353 . S
C919 H960 0.929 . S
C920 C918 1.356 . S
C920 C922 1.358 . S
C920 H961 0.930 . S
C921 C919 1.353 . S
C921 N923 1.314 . S
C921 H962 0.930 . S
C922 C920 1.358 . S
C922 N923 1.279 . S
C922 H963 0.930 . S
N923 C921 1.314 . S
N923 C922 1.279 . S
C924 C926 1.353 . S
C924 N927 1.314 . S
C924 H930 0.930 . S
C925 N927 1.279 . S
C925 C928 1.358 . S
C925 H931 0.930 . S
C926 C924 1.353 . S
C926 C929 1.348 . S
C926 H964 0.929 . S
N927 Li882 1.990 . S
N927 C924 1.314 . S
N927 C925 1.279 . S
C928 C925 1.358 . S
C928 C929 1.356 . S
C928 H965 0.930 . S
C929 C926 1.348 . S
C929 C928 1.356 . S
H930 C924 0.930 . S
H931 C925 0.930 . S
C932 N933 1.314 1_545 S
C932 C934 1.353 . S
C932 H938 0.930 . S
N933 Li883 1.990 . S
N933 C932 1.314 1_565 S
N933 C936 1.279 . S
C934 C932 1.353 . S
C934 C937 1.348 1_545 S
C934 H966 0.929 . S
C935 C936 1.358 . S
C935 C937 1.356 . S
C935 H967 0.930 . S
C936 N933 1.279 . S
C936 C935 1.358 . S
C936 H939 0.930 . S
C937 C934 1.348 1_565 S
C937 C935 1.356 . S
H938 C932 0.930 . S
H939 C936 0.930 . S
O940 Li880 1.956 . S
O940 Li881 1.971 1_545 S
O940 Li882 1.961 1_545 S
O940 C884 1.325 . S
O941 Li880 1.970 . S
O941 Li881 1.952 1_545 S
O941 Li883 1.961 1_545 S
O941 C890 1.325 . S
O942 Li880 1.961 . S
O942 Li882 1.956 1_545 S
O942 Li883 1.970 1_545 S
O942 C912 1.325 . S
O943 Li881 1.965 . S
O943 Li882 1.970 . S
O943 Li883 1.956 . S
O943 C918 1.325 . S
H944 C886 0.929 . S
H945 C887 0.929 . S
H946 C888 0.930 . S
H947 C889 0.930 . S
H948 C891 0.930 . S
H949 C893 0.929 . S
H950 C894 0.930 . S
H951 C895 0.930 . S
H952 C898 0.930 . S
H953 C901 0.929 . S
H954 C906 0.929 . S
H955 C907 0.930 . S
H956 C914 0.929 . S
H957 C915 0.930 . S
H958 C916 0.930 . S
H959 C917 0.930 . S
H960 C919 0.929 . S
H961 C920 0.930 . S
H962 C921 0.930 . S
H963 C922 0.930 . S
H964 C926 0.929 . S
H965 C928 0.930 . S
H966 C934 0.929 . S
H967 C935 0.930 . S
Li968 N985 1.990 . S
Li968 O1028 1.956 . S
Li968 O1029 1.970 . S
Li968 O1030 1.961 . S
Li969 N993 1.990 . S
Li969 O1028 1.970 . S
Li969 O1029 1.956 . S
Li969 O1031 1.961 . S
Li970 N1015 1.990 . S
Li970 O1028 1.961 . S
Li970 O1030 1.956 . S
Li970 O1031 1.970 . S
Li971 N1021 1.990 1_554 S
Li971 O1029 1.961 . S
Li971 O1030 1.970 . S
Li971 O1031 1.956 . S
C972 C974 1.348 . S
C972 C975 1.356 . S
C972 O1028 1.325 . S
N973 C976 1.314 . S
N973 C977 1.279 . S
C974 C972 1.348 . S
C974 C976 1.353 . S
C974 H1032 0.929 . S
C975 C972 1.356 . S
C975 C977 1.358 . S
C975 H1033 0.930 . S
C976 N973 1.314 . S
C976 C974 1.353 . S
C976 H1034 0.930 . S
C977 N973 1.279 . S
C977 C975 1.358 . S
C977 H1035 0.930 . S
C978 C981 1.348 . S
C978 C982 1.356 . S
C978 O1029 1.325 . S
C979 N980 1.279 . S
C979 C982 1.358 . S
C979 H1036 0.930 . S
N980 C979 1.279 . S
N980 C983 1.314 . S
C981 C978 1.348 . S
C981 C983 1.353 . S
C981 H1037 0.929 . S
C982 C978 1.356 . S
C982 C979 1.358 . S
C982 H1038 0.930 . S
C983 N980 1.314 . S
C983 C981 1.353 . S
C983 H1039 0.930 . S
C984 N985 1.314 . S
C984 C989 1.353 . S
C984 H990 0.930 . S
N985 Li968 1.990 . S
N985 C984 1.314 . S
N985 C987 1.279 . S
C986 C987 1.358 . S
C986 C988 1.356 . S
C986 H1040 0.930 . S
C987 N985 1.279 . S
C987 C986 1.358 . S
C987 H991 0.930 . S
C988 C986 1.356 . S
C988 C989 1.348 . S
C989 C984 1.353 . S
C989 C988 1.348 . S
C989 H1041 0.929 . S
H990 C984 0.930 . S
H991 C987 0.930 . S
C992 N993 1.314 . S
C992 C994 1.353 . S
C992 H998 0.930 . S
N993 Li969 1.990 . S
N993 C992 1.314 . S
N993 C996 1.279 . S
C994 C992 1.353 . S
C994 C997 1.348 . S
C994 H1042 0.929 . S
C995 C996 1.358 . S
C995 C997 1.356 . S
C995 H1043 0.930 . S
C996 N993 1.279 . S
C996 C995 1.358 . S
C996 H999 0.930 . S
C997 C994 1.348 . S
C997 C995 1.356 . S
H998 C992 0.930 . S
H999 C996 0.930 . S
C1000 C1002 1.348 . S
C1000 C1003 1.357 . S
C1000 O1030 1.325 1_556 S
N1001 C1004 1.314 . S
N1001 C1005 1.279 . S
C1002 C1000 1.348 . S
C1002 C1004 1.353 . S
C1002 H1044 0.929 . S
C1003 C1000 1.357 . S
C1003 C1005 1.371 . S
C1003 H1045 0.917 1_556 S
C1004 N1001 1.314 . S
C1004 C1002 1.353 . S
C1004 H1046 0.930 . S
C1005 N1001 1.279 . S
C1005 C1003 1.371 . S
C1005 H1047 0.930 . S
C1006 C1007 1.348 . S
C1006 C1008 1.356 . S
C1006 O1031 1.325 . S
C1007 C1006 1.348 . S
C1007 C1009 1.353 . S
C1007 H1048 0.929 . S
C1008 C1006 1.356 . S
C1008 C1010 1.358 . S
C1008 H1049 0.930 . S
C1009 C1007 1.353 . S
C1009 N1011 1.314 . S
C1009 H1050 0.930 . S
C1010 C1008 1.358 . S
C1010 N1011 1.279 . S
C1010 H1051 0.930 . S
N1011 C1009 1.314 . S
N1011 C1010 1.279 . S
C1012 C1014 1.353 . S
C1012 N1015 1.314 . S
C1012 H1018 0.930 . S
C1013 N1015 1.279 . S
C1013 C1016 1.358 . S
C1013 H1019 0.930 . S
C1014 C1012 1.353 . S
C1014 C1017 1.348 . S
C1014 H1052 0.929 . S
N1015 Li970 1.990 . S
N1015 C1012 1.314 . S
N1015 C1013 1.279 . S
C1016 C1013 1.358 . S
C1016 C1017 1.356 . S
C1016 H1053 0.930 . S
C1017 C1014 1.348 . S
C1017 C1016 1.356 . S
H1018 C1012 0.930 . S
H1019 C1013 0.930 . S
C1020 N1021 1.314 . S
C1020 C1022 1.353 . S
C1020 H1026 0.930 . S
N1021 Li971 1.990 1_556 S
N1021 C1020 1.314 . S
N1021 C1024 1.279 . S
C1022 C1020 1.353 . S
C1022 C1025 1.348 . S
C1022 H1054 0.929 . S
C1023 C1024 1.358 . S
C1023 C1025 1.356 . S
C1023 H1055 0.930 . S
C1024 N1021 1.279 . S
C1024 C1023 1.358 . S
C1024 H1027 0.930 . S
C1025 C1022 1.348 . S
C1025 C1023 1.356 . S
H1026 C1020 0.930 . S
H1027 C1024 0.930 . S
O1028 Li968 1.956 . S
O1028 Li969 1.970 . S
O1028 Li970 1.961 . S
O1028 C972 1.325 . S
O1029 Li968 1.970 . S
O1029 Li969 1.956 . S
O1029 Li971 1.961 . S
O1029 C978 1.325 . S
O1030 Li968 1.961 . S
O1030 Li970 1.956 . S
O1030 Li971 1.970 . S
O1030 C1000 1.325 1_554 S
O1031 Li969 1.961 . S
O1031 Li970 1.970 . S
O1031 Li971 1.956 . S
O1031 C1006 1.325 . S
H1032 C974 0.929 . S
H1033 C975 0.930 . S
H1034 C976 0.930 . S
H1035 C977 0.930 . S
H1036 C979 0.930 . S
H1037 C981 0.929 . S
H1038 C982 0.930 . S
H1039 C983 0.930 . S
H1040 C986 0.930 . S
H1041 C989 0.929 . S
H1042 C994 0.929 . S
H1043 C995 0.930 . S
H1044 C1002 0.929 . S
H1045 C1003 0.917 1_554 S
H1046 C1004 0.930 . S
H1047 C1005 0.930 . S
H1048 C1007 0.929 . S
H1049 C1008 0.930 . S
H1050 C1009 0.930 . S
H1051 C1010 0.930 . S
H1052 C1014 0.929 . S
H1053 C1016 0.930 . S
H1054 C1022 0.929 . S
H1055 C1023 0.930 . S
Li1056 N1073 1.990 . S
Li1056 O1116 1.956 . S
Li1056 O1117 1.970 . S
Li1056 O1118 1.961 . S
Li1057 N1081 1.990 . S
Li1057 O1116 1.970 . S
Li1057 O1117 1.956 . S
Li1057 O1119 1.961 . S
Li1058 N1103 1.990 . S
Li1058 O1116 1.961 . S
Li1058 O1118 1.956 . S
Li1058 O1119 1.970 . S
Li1059 N1109 1.990 1_554 S
Li1059 O1117 1.961 . S
Li1059 O1118 1.970 . S
Li1059 O1119 1.956 . S
C1060 C1062 1.348 . S
C1060 C1063 1.356 . S
C1060 O1116 1.325 . S
N1061 C1064 1.314 . S
N1061 C1065 1.279 . S
C1062 C1060 1.348 . S
C1062 C1064 1.353 . S
C1062 H1120 0.929 . S
C1063 C1060 1.356 . S
C1063 C1065 1.358 . S
C1063 H1121 0.930 . S
C1064 N1061 1.314 . S
C1064 C1062 1.353 . S
C1064 H1122 0.930 . S
C1065 N1061 1.279 . S
C1065 C1063 1.358 . S
C1065 H1123 0.930 . S
C1066 C1069 1.348 . S
C1066 C1070 1.356 . S
C1066 O1117 1.325 . S
C1067 N1068 1.279 . S
C1067 C1070 1.358 . S
C1067 H1124 0.930 . S
N1068 C1067 1.279 . S
N1068 C1071 1.314 . S
C1069 C1066 1.348 . S
C1069 C1071 1.353 . S
C1069 H1125 0.929 . S
C1070 C1066 1.356 . S
C1070 C1067 1.358 . S
C1070 H1126 0.930 . S
C1071 N1068 1.314 . S
C1071 C1069 1.353 . S
C1071 H1127 0.930 . S
C1072 N1073 1.314 . S
C1072 C1077 1.353 . S
C1072 H1078 0.930 1_554 S
N1073 Li1056 1.990 . S
N1073 C1072 1.314 . S
N1073 C1075 1.279 . S
C1074 C1075 1.358 . S
C1074 C1076 1.356 . S
C1074 H1128 0.930 . S
C1075 N1073 1.279 . S
C1075 C1074 1.358 . S
C1075 H1079 0.930 . S
C1076 C1074 1.356 . S
C1076 C1077 1.348 . S
C1077 C1072 1.353 . S
C1077 C1076 1.348 . S
C1077 H1129 0.929 1_554 S
H1078 C1072 0.930 1_556 S
H1079 C1075 0.930 . S
C1080 N1081 1.314 . S
C1080 C1082 1.353 . S
C1080 H1086 0.930 . S
N1081 Li1057 1.990 . S
N1081 C1080 1.314 . S
N1081 C1084 1.279 . S
C1082 C1080 1.353 . S
C1082 C1085 1.348 . S
C1082 H1130 0.929 . S
C1083 C1084 1.358 . S
C1083 C1085 1.356 . S
C1083 H1131 0.930 . S
C1084 N1081 1.279 . S
C1084 C1083 1.358 . S
C1084 H1087 0.930 . S
C1085 C1082 1.348 . S
C1085 C1083 1.356 . S
H1086 C1080 0.930 . S
H1087 C1084 0.930 . S
C1088 C1090 1.348 . S
C1088 C1091 1.356 . S
C1088 O1118 1.325 1_556 S
N1089 C1092 1.314 . S
N1089 C1093 1.279 . S
C1090 C1088 1.348 . S
C1090 C1092 1.353 . S
C1090 H1132 0.929 . S
C1091 C1088 1.356 . S
C1091 C1093 1.358 . S
C1091 H1133 0.930 1_556 S
C1092 N1089 1.314 . S
C1092 C1090 1.353 . S
C1092 H1134 0.930 . S
C1093 N1089 1.279 . S
C1093 C1091 1.358 . S
C1093 H1135 0.930 . S
C1094 C1095 1.348 . S
C1094 C1096 1.356 . S
C1094 O1119 1.325 . S
C1095 C1094 1.348 . S
C1095 C1097 1.353 . S
C1095 H1136 0.929 . S
C1096 C1094 1.356 . S
C1096 C1098 1.358 . S
C1096 H1137 0.930 . S
C1097 C1095 1.353 . S
C1097 N1099 1.314 . S
C1097 H1138 0.930 . S
C1098 C1096 1.358 . S
C1098 N1099 1.279 . S
C1098 H1139 0.930 . S
N1099 C1097 1.314 . S
N1099 C1098 1.279 . S
C1100 C1102 1.353 . S
C1100 N1103 1.314 . S
C1100 H1106 0.930 . S
C1101 N1103 1.279 . S
C1101 C1104 1.358 . S
C1101 H1107 0.930 . S
C1102 C1100 1.353 . S
C1102 C1105 1.348 . S
C1102 H1140 0.929 . S
N1103 Li1058 1.990 . S
N1103 C1100 1.314 . S
N1103 C1101 1.279 . S
C1104 C1101 1.358 . S
C1104 C1105 1.356 . S
C1104 H1141 0.930 . S
C1105 C1102 1.348 . S
C1105 C1104 1.356 . S
H1106 C1100 0.930 . S
H1107 C1101 0.930 . S
C1108 N1109 1.314 . S
C1108 C1110 1.353 . S
C1108 H1114 0.930 . S
N1109 Li1059 1.990 1_556 S
N1109 C1108 1.314 . S
N1109 C1112 1.279 . S
C1110 C1108 1.353 . S
C1110 C1113 1.348 . S
C1110 H1142 0.929 . S
C1111 C1112 1.358 . S
C1111 C1113 1.356 . S
C1111 H1143 0.930 . S
C1112 N1109 1.279 . S
C1112 C1111 1.358 . S
C1112 H1115 0.930 . S
C1113 C1110 1.348 . S
C1113 C1111 1.356 . S
H1114 C1108 0.930 . S
H1115 C1112 0.930 . S
O1116 Li1056 1.956 . S
O1116 Li1057 1.970 . S
O1116 Li1058 1.961 . S
O1116 C1060 1.325 . S
O1117 Li1056 1.970 . S
O1117 Li1057 1.956 . S
O1117 Li1059 1.961 . S
O1117 C1066 1.325 . S
O1118 Li1056 1.961 . S
O1118 Li1058 1.956 . S
O1118 Li1059 1.970 . S
O1118 C1088 1.325 1_554 S
O1119 Li1057 1.961 . S
O1119 Li1058 1.970 . S
O1119 Li1059 1.956 . S
O1119 C1094 1.325 . S
H1120 C1062 0.929 . S
H1121 C1063 0.930 . S
H1122 C1064 0.930 . S
H1123 C1065 0.930 . S
H1124 C1067 0.930 . S
H1125 C1069 0.929 . S
H1126 C1070 0.930 . S
H1127 C1071 0.930 . S
H1128 C1074 0.930 . S
H1129 C1077 0.929 1_556 S
H1130 C1082 0.929 . S
H1131 C1083 0.930 . S
H1132 C1090 0.929 . S
H1133 C1091 0.930 1_554 S
H1134 C1092 0.930 . S
H1135 C1093 0.930 . S
H1136 C1095 0.929 . S
H1137 C1096 0.930 . S
H1138 C1097 0.930 . S
H1139 C1098 0.930 . S
H1140 C1102 0.929 . S
H1141 C1104 0.930 . S
H1142 C1110 0.929 . S
H1143 C1111 0.930 . S
Li1144 N1161 1.990 . S
Li1144 O1204 1.956 . S
Li1144 O1205 1.970 . S
Li1144 O1206 1.965 . S
Li1145 N1169 1.990 . S
Li1145 O1204 1.967 . S
Li1145 O1205 2.003 . S
Li1145 O1207 1.917 1_554 S
Li1146 N1191 1.990 . S
Li1146 O1204 1.961 1_556 S
Li1146 O1206 1.951 1_556 S
Li1146 O1207 1.970 . S
Li1147 N1197 1.990 . S
Li1147 O1205 1.961 1_556 S
Li1147 O1206 1.970 1_556 S
Li1147 O1207 1.956 . S
C1148 C1150 1.348 . S
C1148 C1151 1.362 . S
C1148 O1204 1.325 . S
N1149 C1152 1.314 . S
N1149 C1153 1.279 . S
C1150 C1148 1.348 . S
C1150 C1152 1.353 . S
C1150 H1208 0.929 . S
C1151 C1148 1.362 . S
C1151 C1153 1.358 . S
C1151 H1209 0.925 1_554 S
C1152 N1149 1.314 . S
C1152 C1150 1.353 . S
C1152 H1210 0.930 . S
C1153 N1149 1.279 . S
C1153 C1151 1.358 . S
C1153 H1211 0.929 1_554 S
C1154 C1157 1.348 . S
C1154 C1158 1.356 . S
C1154 O1205 1.325 . S
C1155 N1156 1.279 . S
C1155 C1158 1.358 . S
C1155 H1212 0.930 . S
N1156 C1155 1.279 . S
N1156 C1159 1.314 . S
C1157 C1154 1.348 . S
C1157 C1159 1.353 . S
C1157 H1213 0.929 . S
C1158 C1154 1.356 . S
C1158 C1155 1.358 . S
C1158 H1214 0.930 . S
C1159 N1156 1.314 . S
C1159 C1157 1.353 . S
C1159 H1215 0.930 . S
C1160 N1161 1.314 . S
C1160 C1165 1.353 . S
C1160 H1166 0.930 . S
N1161 Li1144 1.990 . S
N1161 C1160 1.314 . S
N1161 C1163 1.279 . S
C1162 C1163 1.358 . S
C1162 C1164 1.356 . S
C1162 H1216 0.930 . S
C1163 N1161 1.279 . S
C1163 C1162 1.358 . S
C1163 H1167 0.930 . S
C1164 C1162 1.356 . S
C1164 C1165 1.348 . S
C1165 C1160 1.353 . S
C1165 C1164 1.348 . S
C1165 H1217 0.929 . S
H1166 C1160 0.930 . S
H1167 C1163 0.930 . S
C1168 N1169 1.314 1_556 S
C1168 C1170 1.353 . S
C1168 H1174 0.930 . S
N1169 Li1145 1.990 . S
N1169 C1168 1.314 1_554 S
N1169 C1172 1.279 . S
C1170 C1168 1.353 . S
C1170 C1173 1.348 1_556 S
C1170 H1218 0.929 . S
C1171 C1172 1.358 . S
C1171 C1173 1.356 . S
C1171 H1219 0.930 . S
C1172 N1169 1.279 . S
C1172 C1171 1.358 . S
C1172 H1175 0.930 . S
C1173 C1170 1.348 1_554 S
C1173 C1171 1.356 . S
H1174 C1168 0.930 . S
H1175 C1172 0.930 . S
C1176 C1178 1.355 . S
C1176 C1179 1.352 1_556 S
C1176 O1206 1.325 1_556 S
N1177 C1180 1.314 . S
N1177 C1181 1.279 1_556 S
C1178 C1176 1.355 . S
C1178 C1180 1.353 . S
C1178 H1220 0.929 . S
C1179 C1176 1.352 1_554 S
C1179 C1181 1.358 . S
C1179 H1221 0.930 . S
C1180 N1177 1.314 . S
C1180 C1178 1.353 . S
C1180 H1222 0.930 . S
C1181 N1177 1.279 1_554 S
C1181 C1179 1.358 . S
C1181 H1223 0.930 . S
C1182 C1183 1.348 . S
C1182 C1184 1.356 . S
C1182 O1207 1.325 . S
C1183 C1182 1.348 . S
C1183 C1185 1.353 . S
C1183 H1224 0.929 . S
C1184 C1182 1.356 . S
C1184 C1186 1.358 . S
C1184 H1225 0.930 . S
C1185 C1183 1.353 . S
C1185 N1187 1.314 . S
C1185 H1226 0.930 . S
C1186 C1184 1.358 . S
C1186 N1187 1.279 . S
C1186 H1227 0.930 . S
N1187 C1185 1.314 . S
N1187 C1186 1.279 . S
C1188 C1190 1.353 . S
C1188 N1191 1.314 . S
C1188 H1194 0.930 . S
C1189 N1191 1.279 . S
C1189 C1192 1.358 . S
C1189 H1195 0.930 . S
C1190 C1188 1.353 . S
C1190 C1193 1.348 . S
C1190 H1228 0.929 . S
N1191 Li1146 1.990 . S
N1191 C1188 1.314 . S
N1191 C1189 1.279 . S
C1192 C1189 1.358 . S
C1192 C1193 1.356 . S
C1192 H1229 0.930 . S
C1193 C1190 1.348 . S
C1193 C1192 1.356 . S
H1194 C1188 0.930 . S
H1195 C1189 0.930 . S
C1196 N1197 1.314 1_554 S
C1196 C1198 1.353 . S
C1196 H1202 0.930 . S
N1197 Li1147 1.990 . S
N1197 C1196 1.314 1_556 S
N1197 C1200 1.279 . S
C1198 C1196 1.353 . S
C1198 C1201 1.348 1_554 S
C1198 H1230 0.929 . S
C1199 C1200 1.358 . S
C1199 C1201 1.356 . S
C1199 H1231 0.930 . S
C1200 N1197 1.279 . S
C1200 C1199 1.358 . S
C1200 H1203 0.930 . S
C1201 C1198 1.348 1_556 S
C1201 C1199 1.356 . S
H1202 C1196 0.930 . S
H1203 C1200 0.930 . S
O1204 Li1144 1.956 . S
O1204 Li1145 1.967 . S
O1204 Li1146 1.961 1_554 S
O1204 C1148 1.325 . S
O1205 Li1144 1.970 . S
O1205 Li1145 2.003 . S
O1205 Li1147 1.961 1_554 S
O1205 C1154 1.325 . S
O1206 Li1144 1.965 . S
O1206 Li1146 1.951 1_554 S
O1206 Li1147 1.970 1_554 S
O1206 C1176 1.325 1_554 S
O1207 Li1145 1.917 1_556 S
O1207 Li1146 1.970 . S
O1207 Li1147 1.956 . S
O1207 C1182 1.325 . S
H1208 C1150 0.929 . S
H1209 C1151 0.925 1_556 S
H1210 C1152 0.930 . S
H1211 C1153 0.929 1_556 S
H1212 C1155 0.930 . S
H1213 C1157 0.929 . S
H1214 C1158 0.930 . S
H1215 C1159 0.930 . S
H1216 C1162 0.930 . S
H1217 C1165 0.929 . S
H1218 C1170 0.929 . S
H1219 C1171 0.930 . S
H1220 C1178 0.929 . S
H1221 C1179 0.930 . S
H1222 C1180 0.930 . S
H1223 C1181 0.930 . S
H1224 C1183 0.929 . S
H1225 C1184 0.930 . S
H1226 C1185 0.930 . S
H1227 C1186 0.930 . S
H1228 C1190 0.929 . S
H1229 C1192 0.930 . S
H1230 C1198 0.929 . S
H1231 C1199 0.930 . S
Li1232 N1249 1.990 . S
Li1232 O1292 1.956 . S
Li1232 O1293 1.970 . S
Li1232 O1294 1.961 . S
Li1233 N1257 1.990 . S
Li1233 O1292 1.970 . S
Li1233 O1293 1.956 . S
Li1233 O1295 1.961 . S
Li1234 N1279 1.990 . S
Li1234 O1292 1.961 . S
Li1234 O1294 1.956 . S
Li1234 O1295 1.970 . S
Li1235 N1285 1.990 . S
Li1235 O1293 1.961 . S
Li1235 O1294 1.970 . S
Li1235 O1295 1.956 . S
C1236 C1238 1.348 . S
C1236 C1239 1.356 . S
C1236 O1292 1.325 . S
N1237 C1240 1.314 . S
N1237 C1241 1.279 . S
C1238 C1236 1.348 . S
C1238 C1240 1.353 . S
C1238 H1296 0.929 . S
C1239 C1236 1.356 . S
C1239 C1241 1.358 . S
C1239 H1297 0.930 . S
C1240 N1237 1.314 . S
C1240 C1238 1.353 . S
C1240 H1298 0.930 . S
C1241 N1237 1.279 . S
C1241 C1239 1.358 . S
C1241 H1299 0.930 . S
C1242 C1245 1.348 . S
C1242 C1246 1.356 . S
C1242 O1293 1.325 . S
C1243 N1244 1.279 . S
C1243 C1246 1.358 . S
C1243 H1300 0.930 . S
N1244 C1243 1.279 . S
N1244 C1247 1.314 . S
C1245 C1242 1.348 . S
C1245 C1247 1.353 . S
C1245 H1301 0.929 . S
C1246 C1242 1.356 . S
C1246 C1243 1.358 . S
C1246 H1302 0.930 . S
C1247 N1244 1.314 . S
C1247 C1245 1.353 . S
C1247 H1303 0.930 . S
C1248 N1249 1.314 . S
C1248 C1253 1.353 . S
C1248 H1254 0.930 . S
N1249 Li1232 1.990 . S
N1249 C1248 1.314 . S
N1249 C1251 1.279 . S
C1250 C1251 1.358 . S
C1250 C1252 1.356 . S
C1250 H1304 0.930 . S
C1251 N1249 1.279 . S
C1251 C1250 1.358 . S
C1251 H1255 0.930 . S
C1252 C1250 1.356 . S
C1252 C1253 1.348 . S
C1253 C1248 1.353 . S
C1253 C1252 1.348 . S
C1253 H1305 0.929 . S
H1254 C1248 0.930 . S
H1255 C1251 0.930 . S
C1256 N1257 1.314 . S
C1256 C1258 1.353 . S
C1256 H1262 0.930 . S
N1257 Li1233 1.990 . S
N1257 C1256 1.314 . S
N1257 C1260 1.279 . S
C1258 C1256 1.353 . S
C1258 C1261 1.348 . S
C1258 H1306 0.929 . S
C1259 C1260 1.358 . S
C1259 C1261 1.356 . S
C1259 H1307 0.930 . S
C1260 N1257 1.279 . S
C1260 C1259 1.358 . S
C1260 H1263 0.930 . S
C1261 C1258 1.348 . S
C1261 C1259 1.356 . S
H1262 C1256 0.930 . S
H1263 C1260 0.930 . S
C1264 C1266 1.348 . S
C1264 C1267 1.356 . S
C1264 O1294 1.325 . S
N1265 C1268 1.314 . S
N1265 C1269 1.279 . S
C1266 C1264 1.348 . S
C1266 C1268 1.353 . S
C1266 H1308 0.929 . S
C1267 C1264 1.356 . S
C1267 C1269 1.358 . S
C1267 H1309 0.930 . S
C1268 N1265 1.314 . S
C1268 C1266 1.353 . S
C1268 H1310 0.930 . S
C1269 N1265 1.279 . S
C1269 C1267 1.358 . S
C1269 H1311 0.930 . S
C1270 C1271 1.348 . S
C1270 C1272 1.356 . S
C1270 O1295 1.325 . S
C1271 C1270 1.348 . S
C1271 C1273 1.353 . S
C1271 H1312 0.929 . S
C1272 C1270 1.356 . S
C1272 C1274 1.358 . S
C1272 H1313 0.930 . S
C1273 C1271 1.353 . S
C1273 N1275 1.314 . S
C1273 H1314 0.930 . S
C1274 C1272 1.358 . S
C1274 N1275 1.279 . S
C1274 H1315 0.930 . S
N1275 C1273 1.314 . S
N1275 C1274 1.279 . S
C1276 C1278 1.353 . S
C1276 N1279 1.314 . S
C1276 H1282 0.930 . S
C1277 N1279 1.279 . S
C1277 C1280 1.358 . S
C1277 H1283 0.930 . S
C1278 C1276 1.353 . S
C1278 C1281 1.348 . S
C1278 H1316 0.929 . S
N1279 Li1234 1.990 . S
N1279 C1276 1.314 . S
N1279 C1277 1.279 . S
C1280 C1277 1.358 . S
C1280 C1281 1.356 . S
C1280 H1317 0.930 . S
C1281 C1278 1.348 . S
C1281 C1280 1.356 . S
H1282 C1276 0.930 . S
H1283 C1277 0.930 . S
C1284 N1285 1.314 . S
C1284 C1286 1.353 . S
C1284 H1290 0.930 . S
N1285 Li1235 1.990 . S
N1285 C1284 1.314 . S
N1285 C1288 1.279 . S
C1286 C1284 1.353 . S
C1286 C1289 1.348 . S
C1286 H1318 0.929 . S
C1287 C1288 1.358 . S
C1287 C1289 1.356 . S
C1287 H1319 0.930 . S
C1288 N1285 1.279 . S
C1288 C1287 1.358 . S
C1288 H1291 0.930 . S
C1289 C1286 1.348 . S
C1289 C1287 1.356 . S
H1290 C1284 0.930 . S
H1291 C1288 0.930 . S
O1292 Li1232 1.956 . S
O1292 Li1233 1.970 . S
O1292 Li1234 1.961 . S
O1292 C1236 1.325 . S
O1293 Li1232 1.970 . S
O1293 Li1233 1.956 . S
O1293 Li1235 1.961 . S
O1293 C1242 1.325 . S
O1294 Li1232 1.961 . S
O1294 Li1234 1.956 . S
O1294 Li1235 1.970 . S
O1294 C1264 1.325 . S
O1295 Li1233 1.961 . S
O1295 Li1234 1.970 . S
O1295 Li1235 1.956 . S
O1295 C1270 1.325 . S
H1296 C1238 0.929 . S
H1297 C1239 0.930 . S
H1298 C1240 0.930 . S
H1299 C1241 0.930 . S
H1300 C1243 0.930 . S
H1301 C1245 0.929 . S
H1302 C1246 0.930 . S
H1303 C1247 0.930 . S
H1304 C1250 0.930 . S
H1305 C1253 0.929 . S
H1306 C1258 0.929 . S
H1307 C1259 0.930 . S
H1308 C1266 0.929 . S
H1309 C1267 0.930 . S
H1310 C1268 0.930 . S
H1311 C1269 0.930 . S
H1312 C1271 0.929 . S
H1313 C1272 0.930 . S
H1314 C1273 0.930 . S
H1315 C1274 0.930 . S
H1316 C1278 0.929 . S
H1317 C1280 0.930 . S
H1318 C1286 0.929 . S
H1319 C1287 0.930 . S
Li1320 N1337 1.990 . S
Li1320 O1380 1.956 . S
Li1320 O1381 1.970 . S
Li1320 O1382 1.961 . S
Li1321 N1345 1.990 . S
Li1321 O1380 1.970 . S
Li1321 O1381 1.956 . S
Li1321 O1383 1.961 . S
Li1322 N1367 1.990 . S
Li1322 O1380 1.961 . S
Li1322 O1382 1.956 . S
Li1322 O1383 1.970 . S
Li1323 N1373 1.990 . S
Li1323 O1381 1.961 . S
Li1323 O1382 1.970 . S
Li1323 O1383 1.956 . S
C1324 C1326 1.348 . S
C1324 C1327 1.356 . S
C1324 O1380 1.325 . S
N1325 C1328 1.314 . S
N1325 C1329 1.279 . S
C1326 C1324 1.348 . S
C1326 C1328 1.353 . S
C1326 H1384 0.929 . S
C1327 C1324 1.356 . S
C1327 C1329 1.358 . S
C1327 H1385 0.930 . S
C1328 N1325 1.314 . S
C1328 C1326 1.353 . S
C1328 H1386 0.930 . S
C1329 N1325 1.279 . S
C1329 C1327 1.358 . S
C1329 H1387 0.930 . S
C1330 C1333 1.348 . S
C1330 C1334 1.356 . S
C1330 O1381 1.325 . S
C1331 N1332 1.279 . S
C1331 C1334 1.358 . S
C1331 H1388 0.930 . S
N1332 C1331 1.279 . S
N1332 C1335 1.314 . S
C1333 C1330 1.348 . S
C1333 C1335 1.353 . S
C1333 H1389 0.929 . S
C1334 C1330 1.356 . S
C1334 C1331 1.358 . S
C1334 H1390 0.930 . S
C1335 N1332 1.314 . S
C1335 C1333 1.353 . S
C1335 H1391 0.930 . S
C1336 N1337 1.314 . S
C1336 C1341 1.353 . S
C1336 H1342 0.930 . S
N1337 Li1320 1.990 . S
N1337 C1336 1.314 . S
N1337 C1339 1.279 . S
C1338 C1339 1.358 . S
C1338 C1340 1.356 . S
C1338 H1392 0.930 . S
C1339 N1337 1.279 . S
C1339 C1338 1.358 . S
C1339 H1343 0.930 . S
C1340 C1338 1.356 . S
C1340 C1341 1.348 . S
C1341 C1336 1.353 . S
C1341 C1340 1.348 . S
C1341 H1393 0.929 . S
H1342 C1336 0.930 . S
H1343 C1339 0.930 . S
C1344 N1345 1.314 . S
C1344 C1346 1.353 . S
C1344 H1350 0.930 . S
N1345 Li1321 1.990 . S
N1345 C1344 1.314 . S
N1345 C1348 1.279 . S
C1346 C1344 1.353 . S
C1346 C1349 1.348 . S
C1346 H1394 0.929 . S
C1347 C1348 1.358 . S
C1347 C1349 1.356 . S
C1347 H1395 0.930 . S
C1348 N1345 1.279 . S
C1348 C1347 1.358 . S
C1348 H1351 0.930 . S
C1349 C1346 1.348 . S
C1349 C1347 1.356 . S
H1350 C1344 0.930 . S
H1351 C1348 0.930 . S
C1352 C1354 1.348 . S
C1352 C1355 1.356 . S
C1352 O1382 1.325 . S
N1353 C1356 1.314 . S
N1353 C1357 1.279 . S
C1354 C1352 1.348 . S
C1354 C1356 1.353 . S
C1354 H1396 0.929 . S
C1355 C1352 1.356 . S
C1355 C1357 1.358 . S
C1355 H1397 0.930 . S
C1356 N1353 1.314 . S
C1356 C1354 1.353 . S
C1356 H1398 0.930 . S
C1357 N1353 1.279 . S
C1357 C1355 1.358 . S
C1357 H1399 0.930 . S
C1358 C1359 1.348 . S
C1358 C1360 1.356 . S
C1358 O1383 1.325 . S
C1359 C1358 1.348 . S
C1359 C1361 1.353 . S
C1359 H1400 0.929 . S
C1360 C1358 1.356 . S
C1360 C1362 1.358 . S
C1360 H1401 0.930 . S
C1361 C1359 1.353 . S
C1361 N1363 1.314 . S
C1361 H1402 0.930 . S
C1362 C1360 1.358 . S
C1362 N1363 1.279 . S
C1362 H1403 0.930 . S
N1363 C1361 1.314 . S
N1363 C1362 1.279 . S
C1364 C1366 1.353 . S
C1364 N1367 1.314 . S
C1364 H1370 0.930 . S
C1365 N1367 1.279 . S
C1365 C1368 1.358 . S
C1365 H1371 0.930 . S
C1366 C1364 1.353 . S
C1366 C1369 1.348 . S
C1366 H1404 0.929 . S
N1367 Li1322 1.990 . S
N1367 C1364 1.314 . S
N1367 C1365 1.279 . S
C1368 C1365 1.358 . S
C1368 C1369 1.356 . S
C1368 H1405 0.930 . S
C1369 C1366 1.348 . S
C1369 C1368 1.356 . S
H1370 C1364 0.930 . S
H1371 C1365 0.930 . S
C1372 N1373 1.314 . S
C1372 C1374 1.353 . S
C1372 H1378 0.930 . S
N1373 Li1323 1.990 . S
N1373 C1372 1.314 . S
N1373 C1376 1.279 . S
C1374 C1372 1.353 . S
C1374 C1377 1.348 . S
C1374 H1406 0.929 . S
C1375 C1376 1.358 . S
C1375 C1377 1.356 . S
C1375 H1407 0.930 . S
C1376 N1373 1.279 . S
C1376 C1375 1.358 . S
C1376 H1379 0.930 . S
C1377 C1374 1.348 . S
C1377 C1375 1.356 . S
H1378 C1372 0.930 . S
H1379 C1376 0.930 . S
O1380 Li1320 1.956 . S
O1380 Li1321 1.970 . S
O1380 Li1322 1.961 . S
O1380 C1324 1.325 . S
O1381 Li1320 1.970 . S
O1381 Li1321 1.956 . S
O1381 Li1323 1.961 . S
O1381 C1330 1.325 . S
O1382 Li1320 1.961 . S
O1382 Li1322 1.956 . S
O1382 Li1323 1.970 . S
O1382 C1352 1.325 . S
O1383 Li1321 1.961 . S
O1383 Li1322 1.970 . S
O1383 Li1323 1.956 . S
O1383 C1358 1.325 . S
H1384 C1326 0.929 . S
H1385 C1327 0.930 . S
H1386 C1328 0.930 . S
H1387 C1329 0.930 . S
H1388 C1331 0.930 . S
H1389 C1333 0.929 . S
H1390 C1334 0.930 . S
H1391 C1335 0.930 . S
H1392 C1338 0.930 . S
H1393 C1341 0.929 . S
H1394 C1346 0.929 . S
H1395 C1347 0.930 . S
H1396 C1354 0.929 . S
H1397 C1355 0.930 . S
H1398 C1356 0.930 . S
H1399 C1357 0.930 . S
H1400 C1359 0.929 . S
H1401 C1360 0.930 . S
H1402 C1361 0.930 . S
H1403 C1362 0.930 . S
H1404 C1366 0.929 . S
H1405 C1368 0.930 . S
H1406 C1374 0.929 . S
H1407 C1375 0.930 . S
Li1408 N1425 1.990 . S
Li1408 O1468 1.956 . S
Li1408 O1469 1.970 . S
Li1408 O1470 1.961 . S
Li1409 N1433 1.990 . S
Li1409 O1468 1.970 . S
Li1409 O1469 1.956 . S
Li1409 O1471 1.961 . S
Li1410 N1455 1.990 . S
Li1410 O1468 1.961 . S
Li1410 O1470 1.956 . S
Li1410 O1471 1.970 . S
Li1411 N1461 1.990 . S
Li1411 O1469 1.961 . S
Li1411 O1470 1.970 . S
Li1411 O1471 1.956 . S
C1412 C1414 1.348 . S
C1412 C1415 1.356 . S
C1412 O1468 1.325 . S
N1413 C1416 1.314 . S
N1413 C1417 1.279 . S
C1414 C1412 1.348 . S
C1414 C1416 1.353 . S
C1414 H1472 0.929 . S
C1415 C1412 1.356 . S
C1415 C1417 1.358 . S
C1415 H1473 0.930 . S
C1416 N1413 1.314 . S
C1416 C1414 1.353 . S
C1416 H1474 0.930 1_545 S
C1417 N1413 1.279 . S
C1417 C1415 1.358 . S
C1417 H1475 0.930 . S
C1418 C1421 1.348 . S
C1418 C1422 1.356 . S
C1418 O1469 1.325 . S
C1419 N1420 1.279 . S
C1419 C1422 1.358 . S
C1419 H1476 0.930 . S
N1420 C1419 1.279 . S
N1420 C1423 1.314 . S
C1421 C1418 1.348 . S
C1421 C1423 1.353 . S
C1421 H1477 0.929 . S
C1422 C1418 1.356 . S
C1422 C1419 1.358 . S
C1422 H1478 0.930 . S
C1423 N1420 1.314 . S
C1423 C1421 1.353 . S
C1423 H1479 0.930 . S
C1424 N1425 1.314 . S
C1424 C1429 1.353 . S
C1424 H1430 0.930 . S
N1425 Li1408 1.990 . S
N1425 C1424 1.314 . S
N1425 C1427 1.279 . S
C1426 C1427 1.358 . S
C1426 C1428 1.356 . S
C1426 H1480 0.930 . S
C1427 N1425 1.279 . S
C1427 C1426 1.358 . S
C1427 H1431 0.930 . S
C1428 C1426 1.356 . S
C1428 C1429 1.348 . S
C1429 C1424 1.353 . S
C1429 C1428 1.348 . S
C1429 H1481 0.929 . S
H1430 C1424 0.930 . S
H1431 C1427 0.930 . S
C1432 N1433 1.314 . S
C1432 C1434 1.353 1_545 S
C1432 H1438 0.930 . S
N1433 Li1409 1.990 . S
N1433 C1432 1.314 . S
N1433 C1436 1.279 . S
C1434 C1432 1.353 1_565 S
C1434 C1437 1.348 . S
C1434 H1482 0.929 . S
C1435 C1436 1.345 1_565 S
C1435 C1437 1.366 . S
C1435 H1483 0.934 . S
C1436 N1433 1.279 . S
C1436 C1435 1.345 1_545 S
C1436 H1439 0.930 . S
C1437 C1434 1.348 . S
C1437 C1435 1.366 . S
H1438 C1432 0.930 . S
H1439 C1436 0.930 . S
C1440 C1442 1.348 . S
C1440 C1443 1.356 . S
C1440 O1470 1.325 . S
N1441 C1444 1.314 . S
N1441 C1445 1.279 . S
C1442 C1440 1.348 . S
C1442 C1444 1.353 . S
C1442 H1484 0.929 . S
C1443 C1440 1.356 . S
C1443 C1445 1.358 . S
C1443 H1485 0.930 . S
C1444 N1441 1.314 . S
C1444 C1442 1.353 . S
C1444 H1486 0.930 . S
C1445 N1441 1.279 . S
C1445 C1443 1.358 . S
C1445 H1487 0.930 . S
C1446 C1447 1.348 . S
C1446 C1448 1.356 . S
C1446 O1471 1.325 . S
C1447 C1446 1.348 . S
C1447 C1449 1.353 . S
C1447 H1488 0.929 . S
C1448 C1446 1.356 . S
C1448 C1450 1.358 . S
C1448 H1489 0.930 . S
C1449 C1447 1.353 . S
C1449 N1451 1.314 . S
C1449 H1490 0.930 . S
C1450 C1448 1.358 . S
C1450 N1451 1.279 . S
C1450 H1491 0.930 . S
N1451 C1449 1.314 . S
N1451 C1450 1.279 . S
C1452 C1454 1.353 . S
C1452 N1455 1.314 . S
C1452 H1458 0.930 . S
C1453 N1455 1.279 . S
C1453 C1456 1.358 . S
C1453 H1459 0.930 . S
C1454 C1452 1.353 . S
C1454 C1457 1.348 . S
C1454 H1492 0.929 . S
N1455 Li1410 1.990 . S
N1455 C1452 1.314 . S
N1455 C1453 1.279 . S
C1456 C1453 1.358 . S
C1456 C1457 1.356 . S
C1456 H1493 0.930 . S
C1457 C1454 1.348 . S
C1457 C1456 1.356 . S
H1458 C1452 0.930 . S
H1459 C1453 0.930 . S
C1460 N1461 1.314 . S
C1460 C1462 1.353 . S
C1460 H1466 0.930 . S
N1461 Li1411 1.990 . S
N1461 C1460 1.314 . S
N1461 C1464 1.279 . S
C1462 C1460 1.353 . S
C1462 C1465 1.348 . S
C1462 H1494 0.929 . S
C1463 C1464 1.358 . S
C1463 C1465 1.356 . S
C1463 H1495 0.930 . S
C1464 N1461 1.279 . S
C1464 C1463 1.358 . S
C1464 H1467 0.930 . S
C1465 C1462 1.348 . S
C1465 C1463 1.356 . S
H1466 C1460 0.930 . S
H1467 C1464 0.930 . S
O1468 Li1408 1.956 . S
O1468 Li1409 1.970 . S
O1468 Li1410 1.961 . S
O1468 C1412 1.325 . S
O1469 Li1408 1.970 . S
O1469 Li1409 1.956 . S
O1469 Li1411 1.961 . S
O1469 C1418 1.325 . S
O1470 Li1408 1.961 . S
O1470 Li1410 1.956 . S
O1470 Li1411 1.970 . S
O1470 C1440 1.325 . S
O1471 Li1409 1.961 . S
O1471 Li1410 1.970 . S
O1471 Li1411 1.956 . S
O1471 C1446 1.325 . S
H1472 C1414 0.929 . S
H1473 C1415 0.930 . S
H1474 C1416 0.930 1_565 S
H1475 C1417 0.930 . S
H1476 C1419 0.930 . S
H1477 C1421 0.929 . S
H1478 C1422 0.930 . S
H1479 C1423 0.930 . S
H1480 C1426 0.930 . S
H1481 C1429 0.929 . S
H1482 C1434 0.929 . S
H1483 C1435 0.934 . S
H1484 C1442 0.929 . S
H1485 C1443 0.930 . S
H1486 C1444 0.930 . S
H1487 C1445 0.930 . S
H1488 C1447 0.929 . S
H1489 C1448 0.930 . S
H1490 C1449 0.930 . S
H1491 C1450 0.930 . S
H1492 C1454 0.929 . S
H1493 C1456 0.930 . S
H1494 C1462 0.929 . S
H1495 C1463 0.930 . S
Li1496 N1513 1.990 . S
Li1496 O1556 1.956 . S
Li1496 O1557 1.970 . S
Li1496 O1558 1.961 . S
Li1497 N1521 1.990 . S
Li1497 O1556 1.970 . S
Li1497 O1557 1.956 . S
Li1497 O1559 1.961 . S
Li1498 N1543 1.990 . S
Li1498 O1556 1.961 . S
Li1498 O1558 1.956 . S
Li1498 O1559 1.970 . S
Li1499 N1549 1.990 . S
Li1499 O1557 1.961 . S
Li1499 O1558 1.970 . S
Li1499 O1559 1.956 . S
C1500 C1502 1.348 . S
C1500 C1503 1.356 . S
C1500 O1556 1.325 . S
N1501 C1504 1.314 . S
N1501 C1505 1.279 . S
C1502 C1500 1.348 . S
C1502 C1504 1.353 . S
C1502 H1560 0.929 . S
C1503 C1500 1.356 . S
C1503 C1505 1.358 . S
C1503 H1561 0.930 . S
C1504 N1501 1.314 . S
C1504 C1502 1.353 . S
C1504 H1562 0.930 . S
C1505 N1501 1.279 . S
C1505 C1503 1.358 . S
C1505 H1563 0.930 . S
C1506 C1509 1.348 . S
C1506 C1510 1.356 . S
C1506 O1557 1.325 . S
C1507 N1508 1.279 . S
C1507 C1510 1.358 . S
C1507 H1564 0.930 . S
N1508 C1507 1.279 . S
N1508 C1511 1.314 . S
C1509 C1506 1.348 . S
C1509 C1511 1.353 . S
C1509 H1565 0.929 . S
C1510 C1506 1.356 . S
C1510 C1507 1.358 . S
C1510 H1566 0.930 . S
C1511 N1508 1.314 . S
C1511 C1509 1.353 . S
C1511 H1567 0.930 . S
C1512 N1513 1.314 . S
C1512 C1517 1.353 . S
C1512 H1518 0.930 . S
N1513 Li1496 1.990 . S
N1513 C1512 1.314 . S
N1513 C1515 1.279 . S
C1514 C1515 1.358 . S
C1514 C1516 1.356 . S
C1514 H1568 0.930 . S
C1515 N1513 1.279 . S
C1515 C1514 1.358 . S
C1515 H1519 0.930 . S
C1516 C1514 1.356 . S
C1516 C1517 1.348 . S
C1517 C1512 1.353 . S
C1517 C1516 1.348 . S
C1517 H1569 0.929 . S
H1518 C1512 0.930 . S
H1519 C1515 0.930 . S
C1520 N1521 1.314 . S
C1520 C1522 1.353 . S
C1520 H1526 0.930 . S
N1521 Li1497 1.990 . S
N1521 C1520 1.314 . S
N1521 C1524 1.279 . S
C1522 C1520 1.353 . S
C1522 C1525 1.348 . S
C1522 H1570 0.929 . S
C1523 C1524 1.358 . S
C1523 C1525 1.356 . S
C1523 H1571 0.930 . S
C1524 N1521 1.279 . S
C1524 C1523 1.358 . S
C1524 H1527 0.930 . S
C1525 C1522 1.348 . S
C1525 C1523 1.356 . S
H1526 C1520 0.930 . S
H1527 C1524 0.930 . S
C1528 C1530 1.348 . S
C1528 C1531 1.356 . S
C1528 O1558 1.325 . S
N1529 C1532 1.314 . S
N1529 C1533 1.279 . S
C1530 C1528 1.348 . S
C1530 C1532 1.353 . S
C1530 H1572 0.929 . S
C1531 C1528 1.356 . S
C1531 C1533 1.358 . S
C1531 H1573 0.930 . S
C1532 N1529 1.314 . S
C1532 C1530 1.353 . S
C1532 H1574 0.930 . S
C1533 N1529 1.279 . S
C1533 C1531 1.358 . S
C1533 H1575 0.930 . S
C1534 C1535 1.348 . S
C1534 C1536 1.356 . S
C1534 O1559 1.325 . S
C1535 C1534 1.348 . S
C1535 C1537 1.353 . S
C1535 H1576 0.929 . S
C1536 C1534 1.356 . S
C1536 C1538 1.358 . S
C1536 H1577 0.930 . S
C1537 C1535 1.353 . S
C1537 N1539 1.314 . S
C1537 H1578 0.930 . S
C1538 C1536 1.358 . S
C1538 N1539 1.279 . S
C1538 H1579 0.930 . S
N1539 C1537 1.314 . S
N1539 C1538 1.279 . S
C1540 C1542 1.353 . S
C1540 N1543 1.314 . S
C1540 H1546 0.930 . S
C1541 N1543 1.279 . S
C1541 C1544 1.358 . S
C1541 H1547 0.930 . S
C1542 C1540 1.353 . S
C1542 C1545 1.348 . S
C1542 H1580 0.929 . S
N1543 Li1498 1.990 . S
N1543 C1540 1.314 . S
N1543 C1541 1.279 . S
C1544 C1541 1.358 . S
C1544 C1545 1.356 . S
C1544 H1581 0.930 . S
C1545 C1542 1.348 . S
C1545 C1544 1.356 . S
H1546 C1540 0.930 . S
H1547 C1541 0.930 . S
C1548 N1549 1.314 . S
C1548 C1550 1.353 . S
C1548 H1554 0.930 . S
N1549 Li1499 1.990 . S
N1549 C1548 1.314 . S
N1549 C1552 1.279 . S
C1550 C1548 1.353 . S
C1550 C1553 1.348 . S
C1550 H1582 0.929 . S
C1551 C1552 1.358 . S
C1551 C1553 1.356 . S
C1551 H1583 0.930 . S
C1552 N1549 1.279 . S
C1552 C1551 1.358 . S
C1552 H1555 0.930 . S
C1553 C1550 1.348 . S
C1553 C1551 1.356 . S
H1554 C1548 0.930 . S
H1555 C1552 0.930 . S
O1556 Li1496 1.956 . S
O1556 Li1497 1.970 . S
O1556 Li1498 1.961 . S
O1556 C1500 1.325 . S
O1557 Li1496 1.970 . S
O1557 Li1497 1.956 . S
O1557 Li1499 1.961 . S
O1557 C1506 1.325 . S
O1558 Li1496 1.961 . S
O1558 Li1498 1.956 . S
O1558 Li1499 1.970 . S
O1558 C1528 1.325 . S
O1559 Li1497 1.961 . S
O1559 Li1498 1.970 . S
O1559 Li1499 1.956 . S
O1559 C1534 1.325 . S
H1560 C1502 0.929 . S
H1561 C1503 0.930 . S
H1562 C1504 0.930 . S
H1563 C1505 0.930 . S
H1564 C1507 0.930 . S
H1565 C1509 0.929 . S
H1566 C1510 0.930 . S
H1567 C1511 0.930 . S
H1568 C1514 0.930 . S
H1569 C1517 0.929 . S
H1570 C1522 0.929 . S
H1571 C1523 0.930 . S
H1572 C1530 0.929 . S
H1573 C1531 0.930 . S
H1574 C1532 0.930 . S
H1575 C1533 0.930 . S
H1576 C1535 0.929 . S
H1577 C1536 0.930 . S
H1578 C1537 0.930 . S
H1579 C1538 0.930 . S
H1580 C1542 0.929 . S
H1581 C1544 0.930 . S
H1582 C1550 0.929 . S
H1583 C1551 0.930 . S
Li1584 N1601 1.990 . S
Li1584 O1644 1.956 . S
Li1584 O1645 1.970 . S
Li1584 O1646 1.961 . S
Li1585 N1609 1.990 . S
Li1585 O1644 1.970 . S
Li1585 O1645 1.956 . S
Li1585 O1647 1.961 . S
Li1586 N1631 1.990 . S
Li1586 O1644 1.961 . S
Li1586 O1646 1.956 . S
Li1586 O1647 1.970 . S
Li1587 N1637 1.990 . S
Li1587 O1645 1.961 . S
Li1587 O1646 1.970 . S
Li1587 O1647 1.956 . S
C1588 C1590 1.348 . S
C1588 C1591 1.356 . S
C1588 O1644 1.325 . S
N1589 C1592 1.314 . S
N1589 C1593 1.279 . S
C1590 C1588 1.348 . S
C1590 C1592 1.353 . S
C1590 H1648 0.929 . S
C1591 C1588 1.356 . S
C1591 C1593 1.358 . S
C1591 H1649 0.930 . S
C1592 N1589 1.314 . S
C1592 C1590 1.353 . S
C1592 H1650 0.930 . S
C1593 N1589 1.279 . S
C1593 C1591 1.358 . S
C1593 H1651 0.930 . S
C1594 C1597 1.348 . S
C1594 C1598 1.356 . S
C1594 O1645 1.325 . S
C1595 N1596 1.279 . S
C1595 C1598 1.358 . S
C1595 H1652 0.930 . S
N1596 C1595 1.279 . S
N1596 C1599 1.314 . S
C1597 C1594 1.348 . S
C1597 C1599 1.353 . S
C1597 H1653 0.929 . S
C1598 C1594 1.356 . S
C1598 C1595 1.358 . S
C1598 H1654 0.930 . S
C1599 N1596 1.314 . S
C1599 C1597 1.353 . S
C1599 H1655 0.930 . S
C1600 N1601 1.314 . S
C1600 C1605 1.353 . S
C1600 H1606 0.930 . S
N1601 Li1584 1.990 . S
N1601 C1600 1.314 . S
N1601 C1603 1.279 . S
C1602 C1603 1.358 . S
C1602 C1604 1.356 . S
C1602 H1656 0.930 . S
C1603 N1601 1.279 . S
C1603 C1602 1.358 . S
C1603 H1607 0.930 . S
C1604 C1602 1.356 . S
C1604 C1605 1.348 . S
C1605 C1600 1.353 . S
C1605 C1604 1.348 . S
C1605 H1657 0.929 . S
H1606 C1600 0.930 . S
H1607 C1603 0.930 . S
C1608 N1609 1.314 . S
C1608 C1610 1.353 . S
C1608 H1614 0.930 . S
N1609 Li1585 1.990 . S
N1609 C1608 1.314 . S
N1609 C1612 1.279 . S
C1610 C1608 1.353 . S
C1610 C1613 1.348 . S
C1610 H1658 0.929 . S
C1611 C1612 1.358 . S
C1611 C1613 1.356 . S
C1611 H1659 0.930 . S
C1612 N1609 1.279 . S
C1612 C1611 1.358 . S
C1612 H1615 0.930 . S
C1613 C1610 1.348 . S
C1613 C1611 1.356 . S
H1614 C1608 0.930 . S
H1615 C1612 0.930 . S
C1616 C1618 1.348 . S
C1616 C1619 1.356 . S
C1616 O1646 1.325 . S
N1617 C1620 1.314 . S
N1617 C1621 1.279 . S
C1618 C1616 1.348 . S
C1618 C1620 1.353 . S
C1618 H1660 0.929 . S
C1619 C1616 1.356 . S
C1619 C1621 1.358 . S
C1619 H1661 0.930 . S
C1620 N1617 1.314 . S
C1620 C1618 1.353 . S
C1620 H1662 0.930 . S
C1621 N1617 1.279 . S
C1621 C1619 1.358 . S
C1621 H1663 0.930 . S
C1622 C1623 1.348 . S
C1622 C1624 1.356 . S
C1622 O1647 1.325 . S
C1623 C1622 1.348 . S
C1623 C1625 1.353 . S
C1623 H1664 0.929 . S
C1624 C1622 1.356 . S
C1624 C1626 1.358 . S
C1624 H1665 0.930 . S
C1625 C1623 1.353 . S
C1625 N1627 1.314 . S
C1625 H1666 0.930 . S
C1626 C1624 1.358 . S
C1626 N1627 1.279 . S
C1626 H1667 0.930 . S
N1627 C1625 1.314 . S
N1627 C1626 1.279 . S
C1628 C1630 1.353 . S
C1628 N1631 1.314 . S
C1628 H1634 0.930 . S
C1629 N1631 1.279 . S
C1629 C1632 1.358 . S
C1629 H1635 0.930 . S
C1630 C1628 1.353 . S
C1630 C1633 1.348 . S
C1630 H1668 0.929 . S
N1631 Li1586 1.990 . S
N1631 C1628 1.314 . S
N1631 C1629 1.279 . S
C1632 C1629 1.358 . S
C1632 C1633 1.356 . S
C1632 H1669 0.930 . S
C1633 C1630 1.348 . S
C1633 C1632 1.356 . S
H1634 C1628 0.930 . S
H1635 C1629 0.930 . S
C1636 N1637 1.314 . S
C1636 C1638 1.353 . S
C1636 H1642 0.930 . S
N1637 Li1587 1.990 . S
N1637 C1636 1.314 . S
N1637 C1640 1.279 . S
C1638 C1636 1.353 . S
C1638 C1641 1.348 . S
C1638 H1670 0.929 . S
C1639 C1640 1.358 . S
C1639 C1641 1.356 . S
C1639 H1671 0.930 . S
C1640 N1637 1.279 . S
C1640 C1639 1.358 . S
C1640 H1643 0.930 . S
C1641 C1638 1.348 . S
C1641 C1639 1.356 . S
H1642 C1636 0.930 . S
H1643 C1640 0.930 . S
O1644 Li1584 1.956 . S
O1644 Li1585 1.970 . S
O1644 Li1586 1.961 . S
O1644 C1588 1.325 . S
O1645 Li1584 1.970 . S
O1645 Li1585 1.956 . S
O1645 Li1587 1.961 . S
O1645 C1594 1.325 . S
O1646 Li1584 1.961 . S
O1646 Li1586 1.956 . S
O1646 Li1587 1.970 . S
O1646 C1616 1.325 . S
O1647 Li1585 1.961 . S
O1647 Li1586 1.970 . S
O1647 Li1587 1.956 . S
O1647 C1622 1.325 . S
H1648 C1590 0.929 . S
H1649 C1591 0.930 . S
H1650 C1592 0.930 . S
H1651 C1593 0.930 . S
H1652 C1595 0.930 . S
H1653 C1597 0.929 . S
H1654 C1598 0.930 . S
H1655 C1599 0.930 . S
H1656 C1602 0.930 . S
H1657 C1605 0.929 . S
H1658 C1610 0.929 . S
H1659 C1611 0.930 . S
H1660 C1618 0.929 . S
H1661 C1619 0.930 . S
H1662 C1620 0.930 . S
H1663 C1621 0.930 . S
H1664 C1623 0.929 . S
H1665 C1624 0.930 . S
H1666 C1625 0.930 . S
H1667 C1626 0.930 . S
H1668 C1630 0.929 . S
H1669 C1632 0.930 . S
H1670 C1638 0.929 . S
H1671 C1639 0.930 . S
Li1672 N1689 1.990 . S
Li1672 O1732 1.956 . S
Li1672 O1733 1.970 . S
Li1672 O1734 1.961 1_545 S
Li1673 N1697 1.990 . S
Li1673 O1732 1.970 . S
Li1673 O1733 1.956 . S
Li1673 O1735 1.961 . S
Li1674 N1719 1.990 . S
Li1674 O1732 1.961 . S
Li1674 O1734 1.956 1_545 S
Li1674 O1735 1.970 . S
Li1675 N1725 1.990 1_545 S
Li1675 O1733 1.961 . S
Li1675 O1734 1.970 1_545 S
Li1675 O1735 1.956 . S
C1676 C1678 1.348 . S
C1676 C1679 1.356 . S
C1676 O1732 1.325 . S
N1677 C1680 1.314 . S
N1677 C1681 1.279 . S
C1678 C1676 1.348 . S
C1678 C1680 1.353 . S
C1678 H1736 0.929 . S
C1679 C1676 1.356 . S
C1679 C1681 1.358 . S
C1679 H1737 0.930 . S
C1680 N1677 1.314 . S
C1680 C1678 1.353 . S
C1680 H1738 0.930 . S
C1681 N1677 1.279 . S
C1681 C1679 1.358 . S
C1681 H1739 0.930 . S
C1682 C1685 1.348 . S
C1682 C1686 1.356 . S
C1682 O1733 1.325 . S
C1683 N1684 1.279 . S
C1683 C1686 1.358 . S
C1683 H1740 0.930 . S
N1684 C1683 1.279 . S
N1684 C1687 1.314 . S
C1685 C1682 1.348 . S
C1685 C1687 1.353 . S
C1685 H1741 0.929 . S
C1686 C1682 1.356 . S
C1686 C1683 1.358 . S
C1686 H1742 0.930 . S
C1687 N1684 1.314 . S
C1687 C1685 1.353 . S
C1687 H1743 0.930 . S
C1688 N1689 1.314 . S
C1688 C1693 1.353 . S
C1688 H1694 0.930 1_545 S
N1689 Li1672 1.990 . S
N1689 C1688 1.314 . S
N1689 C1691 1.279 . S
C1690 C1691 1.358 . S
C1690 C1692 1.356 . S
C1690 H1744 0.930 . S
C1691 N1689 1.279 . S
C1691 C1690 1.358 . S
C1691 H1695 0.930 . S
C1692 C1690 1.356 . S
C1692 C1693 1.348 . S
C1693 C1688 1.353 . S
C1693 C1692 1.348 . S
C1693 H1745 0.929 1_545 S
H1694 C1688 0.930 1_565 S
H1695 C1691 0.930 . S
C1696 N1697 1.314 . S
C1696 C1698 1.353 . S
C1696 H1702 0.930 . S
N1697 Li1673 1.990 . S
N1697 C1696 1.314 . S
N1697 C1700 1.279 . S
C1698 C1696 1.353 . S
C1698 C1701 1.348 . S
C1698 H1746 0.929 . S
C1699 C1700 1.358 . S
C1699 C1701 1.356 . S
C1699 H1747 0.930 . S
C1700 N1697 1.279 . S
C1700 C1699 1.358 . S
C1700 H1703 0.930 . S
C1701 C1698 1.348 . S
C1701 C1699 1.356 . S
H1702 C1696 0.930 . S
H1703 C1700 0.930 . S
C1704 C1706 1.348 . S
C1704 C1707 1.356 . S
C1704 O1734 1.325 . S
N1705 C1708 1.314 . S
N1705 C1709 1.279 . S
C1706 C1704 1.348 . S
C1706 C1708 1.353 . S
C1706 H1748 0.929 . S
C1707 C1704 1.356 . S
C1707 C1709 1.358 . S
C1707 H1749 0.930 . S
C1708 N1705 1.314 . S
C1708 C1706 1.353 . S
C1708 H1750 0.930 . S
C1709 N1705 1.279 . S
C1709 C1707 1.358 . S
C1709 H1751 0.930 . S
C1710 C1711 1.348 . S
C1710 C1712 1.356 . S
C1710 O1735 1.325 . S
C1711 C1710 1.348 . S
C1711 C1713 1.353 . S
C1711 H1752 0.929 . S
C1712 C1710 1.356 . S
C1712 C1714 1.358 . S
C1712 H1753 0.930 . S
C1713 C1711 1.353 . S
C1713 N1715 1.314 . S
C1713 H1754 0.930 . S
C1714 C1712 1.358 . S
C1714 N1715 1.279 . S
C1714 H1755 0.930 . S
N1715 C1713 1.314 . S
N1715 C1714 1.279 . S
C1716 C1718 1.353 . S
C1716 N1719 1.314 . S
C1716 H1722 0.930 . S
C1717 N1719 1.255 1_565 S
C1717 C1720 1.358 . S
C1717 H1723 0.958 . S
C1718 C1716 1.353 . S
C1718 C1721 1.348 . S
C1718 H1756 0.929 . S
N1719 Li1674 1.990 . S
N1719 C1716 1.314 . S
N1719 C1717 1.255 1_545 S
C1720 C1717 1.358 . S
C1720 C1721 1.356 1_565 S
C1720 H1757 0.930 . S
C1721 C1718 1.348 . S
C1721 C1720 1.356 1_545 S
H1722 C1716 0.930 . S
H1723 C1717 0.958 . S
C1724 N1725 1.314 . S
C1724 C1726 1.353 . S
C1724 H1730 0.930 . S
N1725 Li1675 1.990 1_565 S
N1725 C1724 1.314 . S
N1725 C1728 1.279 . S
C1726 C1724 1.353 . S
C1726 C1729 1.348 . S
C1726 H1758 0.929 . S
C1727 C1728 1.358 . S
C1727 C1729 1.356 . S
C1727 H1759 0.930 . S
C1728 N1725 1.279 . S
C1728 C1727 1.358 . S
C1728 H1731 0.930 . S
C1729 C1726 1.348 . S
C1729 C1727 1.356 . S
H1730 C1724 0.930 . S
H1731 C1728 0.930 . S
O1732 Li1672 1.956 . S
O1732 Li1673 1.970 . S
O1732 Li1674 1.961 . S
O1732 C1676 1.325 . S
O1733 Li1672 1.970 . S
O1733 Li1673 1.956 . S
O1733 Li1675 1.961 . S
O1733 C1682 1.325 . S
O1734 Li1672 1.961 1_565 S
O1734 Li1674 1.956 1_565 S
O1734 Li1675 1.970 1_565 S
O1734 C1704 1.325 . S
O1735 Li1673 1.961 . S
O1735 Li1674 1.970 . S
O1735 Li1675 1.956 . S
O1735 C1710 1.325 . S
H1736 C1678 0.929 . S
H1737 C1679 0.930 . S
H1738 C1680 0.930 . S
H1739 C1681 0.930 . S
H1740 C1683 0.930 . S
H1741 C1685 0.929 . S
H1742 C1686 0.930 . S
H1743 C1687 0.930 . S
H1744 C1690 0.930 . S
H1745 C1693 0.929 1_565 S
H1746 C1698 0.929 . S
H1747 C1699 0.930 . S
H1748 C1706 0.929 . S
H1749 C1707 0.930 . S
H1750 C1708 0.930 . S
H1751 C1709 0.930 . S
H1752 C1711 0.929 . S
H1753 C1712 0.930 . S
H1754 C1713 0.930 . S
H1755 C1714 0.930 . S
H1756 C1718 0.929 . S
H1757 C1720 0.930 . S
H1758 C1726 0.929 . S
H1759 C1727 0.930 . S
Li1760 N1777 1.990 . S
Li1760 O1820 1.956 . S
Li1760 O1821 1.970 . S
Li1760 O1822 1.961 . S
Li1761 N1785 1.990 . S
Li1761 O1820 1.970 . S
Li1761 O1821 1.956 . S
Li1761 O1823 1.961 1_554 S
Li1762 N1807 1.990 . S
Li1762 O1820 1.961 1_556 S
Li1762 O1822 1.956 1_556 S
Li1762 O1823 1.970 . S
Li1763 N1813 1.990 . S
Li1763 O1821 1.961 . S
Li1763 O1822 1.970 . S
Li1763 O1823 1.956 1_554 S
C1764 C1766 1.348 . S
C1764 C1767 1.356 . S
C1764 O1820 1.325 . S
N1765 C1768 1.314 . S
N1765 C1769 1.279 . S
C1766 C1764 1.348 . S
C1766 C1768 1.353 . S
C1766 H1824 0.929 . S
C1767 C1764 1.356 . S
C1767 C1769 1.358 . S
C1767 H1825 0.930 . S
C1768 N1765 1.314 . S
C1768 C1766 1.353 . S
C1768 H1826 0.930 . S
C1769 N1765 1.279 . S
C1769 C1767 1.358 . S
C1769 H1827 0.930 . S
C1770 C1773 1.348 . S
C1770 C1774 1.356 . S
C1770 O1821 1.325 . S
C1771 N1772 1.279 . S
C1771 C1774 1.358 . S
C1771 H1828 0.930 . S
N1772 C1771 1.279 . S
N1772 C1775 1.314 . S
C1773 C1770 1.348 . S
C1773 C1775 1.353 . S
C1773 H1829 0.929 . S
C1774 C1770 1.356 . S
C1774 C1771 1.358 . S
C1774 H1830 0.930 . S
C1775 N1772 1.314 . S
C1775 C1773 1.353 . S
C1775 H1831 0.930 . S
C1776 N1777 1.314 . S
C1776 C1781 1.353 . S
C1776 H1782 0.930 . S
N1777 Li1760 1.990 . S
N1777 C1776 1.314 . S
N1777 C1779 1.279 . S
C1778 C1779 1.358 . S
C1778 C1780 1.356 . S
C1778 H1832 0.930 . S
C1779 N1777 1.279 . S
C1779 C1778 1.358 . S
C1779 H1783 0.930 . S
C1780 C1778 1.356 . S
C1780 C1781 1.348 . S
C1781 C1776 1.353 . S
C1781 C1780 1.348 . S
C1781 H1833 0.929 . S
H1782 C1776 0.930 . S
H1783 C1779 0.930 . S
C1784 N1785 1.314 1_556 S
C1784 C1786 1.353 . S
C1784 H1790 0.930 . S
N1785 Li1761 1.990 . S
N1785 C1784 1.314 1_554 S
N1785 C1788 1.279 . S
C1786 C1784 1.353 . S
C1786 C1789 1.348 1_556 S
C1786 H1834 0.929 . S
C1787 C1788 1.358 . S
C1787 C1789 1.356 . S
C1787 H1835 0.930 . S
C1788 N1785 1.279 . S
C1788 C1787 1.358 . S
C1788 H1791 0.930 . S
C1789 C1786 1.348 1_554 S
C1789 C1787 1.356 . S
H1790 C1784 0.930 . S
H1791 C1788 0.930 . S
C1792 C1794 1.364 . S
C1792 C1795 1.356 . S
C1792 O1822 1.325 . S
N1793 C1796 1.325 . S
N1793 C1797 1.279 . S
C1794 C1792 1.364 . S
C1794 C1796 1.353 . S
C1794 H1836 0.915 1_554 S
C1795 C1792 1.356 . S
C1795 C1797 1.358 . S
C1795 H1837 0.930 . S
C1796 N1793 1.325 . S
C1796 C1794 1.353 . S
C1796 H1838 0.921 1_554 S
C1797 N1793 1.279 . S
C1797 C1795 1.358 . S
C1797 H1839 0.930 . S
C1798 C1799 1.348 . S
C1798 C1800 1.356 . S
C1798 O1823 1.325 . S
C1799 C1798 1.348 . S
C1799 C1801 1.353 . S
C1799 H1840 0.929 . S
C1800 C1798 1.356 . S
C1800 C1802 1.358 . S
C1800 H1841 0.930 . S
C1801 C1799 1.353 . S
C1801 N1803 1.314 . S
C1801 H1842 0.930 . S
C1802 C1800 1.358 . S
C1802 N1803 1.279 . S
C1802 H1843 0.930 . S
N1803 C1801 1.314 . S
N1803 C1802 1.279 . S
C1804 C1806 1.353 . S
C1804 N1807 1.314 . S
C1804 H1810 0.930 . S
C1805 N1807 1.279 . S
C1805 C1808 1.358 . S
C1805 H1811 0.930 . S
C1806 C1804 1.353 . S
C1806 C1809 1.348 . S
C1806 H1844 0.929 . S
N1807 Li1762 1.990 . S
N1807 C1804 1.314 . S
N1807 C1805 1.279 . S
C1808 C1805 1.358 . S
C1808 C1809 1.356 . S
C1808 H1845 0.930 . S
C1809 C1806 1.348 . S
C1809 C1808 1.356 . S
H1810 C1804 0.930 . S
H1811 C1805 0.930 . S
C1812 N1813 1.314 . S
C1812 C1814 1.353 . S
C1812 H1818 0.930 . S
N1813 Li1763 1.990 . S
N1813 C1812 1.314 . S
N1813 C1816 1.279 1_554 S
C1814 C1812 1.353 . S
C1814 C1817 1.348 . S
C1814 H1846 0.929 . S
C1815 C1816 1.358 . S
C1815 C1817 1.356 1_556 S
C1815 H1847 0.930 . S
C1816 N1813 1.279 1_556 S
C1816 C1815 1.358 . S
C1816 H1819 0.930 . S
C1817 C1814 1.348 . S
C1817 C1815 1.356 1_554 S
H1818 C1812 0.930 . S
H1819 C1816 0.930 . S
O1820 Li1760 1.956 . S
O1820 Li1761 1.970 . S
O1820 Li1762 1.961 1_554 S
O1820 C1764 1.325 . S
O1821 Li1760 1.970 . S
O1821 Li1761 1.956 . S
O1821 Li1763 1.961 . S
O1821 C1770 1.325 . S
O1822 Li1760 1.961 . S
O1822 Li1762 1.956 1_554 S
O1822 Li1763 1.970 . S
O1822 C1792 1.325 . S
O1823 Li1761 1.961 1_556 S
O1823 Li1762 1.970 . S
O1823 Li1763 1.956 1_556 S
O1823 C1798 1.325 . S
H1824 C1766 0.929 . S
H1825 C1767 0.930 . S
H1826 C1768 0.930 . S
H1827 C1769 0.930 . S
H1828 C1771 0.930 . S
H1829 C1773 0.929 . S
H1830 C1774 0.930 . S
H1831 C1775 0.930 . S
H1832 C1778 0.930 . S
H1833 C1781 0.929 . S
H1834 C1786 0.929 . S
H1835 C1787 0.930 . S
H1836 C1794 0.915 1_556 S
H1837 C1795 0.930 . S
H1838 C1796 0.921 1_556 S
H1839 C1797 0.930 . S
H1840 C1799 0.929 . S
H1841 C1800 0.930 . S
H1842 C1801 0.930 . S
H1843 C1802 0.930 . S
H1844 C1806 0.929 . S
H1845 C1808 0.930 . S
H1846 C1814 0.929 . S
H1847 C1815 0.930 . S
Li1848 N1865 1.990 . S
Li1848 O1908 1.956 . S
Li1848 O1909 1.970 . S
Li1848 O1910 1.961 . S
Li1849 N1873 1.990 . S
Li1849 O1908 1.970 . S
Li1849 O1909 1.956 . S
Li1849 O1911 1.961 . S
Li1850 N1895 1.990 . S
Li1850 O1908 1.961 . S
Li1850 O1910 1.956 . S
Li1850 O1911 1.970 . S
Li1851 N1901 1.990 . S
Li1851 O1909 1.961 . S
Li1851 O1910 1.970 . S
Li1851 O1911 1.956 . S
C1852 C1854 1.348 . S
C1852 C1855 1.356 . S
C1852 O1908 1.325 . S
N1853 C1856 1.314 . S
N1853 C1857 1.279 . S
C1854 C1852 1.348 . S
C1854 C1856 1.353 . S
C1854 H1912 0.929 . S
C1855 C1852 1.356 . S
C1855 C1857 1.358 . S
C1855 H1913 0.930 . S
C1856 N1853 1.314 . S
C1856 C1854 1.353 . S
C1856 H1914 0.930 . S
C1857 N1853 1.279 . S
C1857 C1855 1.358 . S
C1857 H1915 0.930 . S
C1858 C1861 1.348 . S
C1858 C1862 1.356 . S
C1858 O1909 1.325 . S
C1859 N1860 1.279 . S
C1859 C1862 1.358 . S
C1859 H1916 0.930 . S
N1860 C1859 1.279 . S
N1860 C1863 1.314 . S
C1861 C1858 1.348 . S
C1861 C1863 1.353 . S
C1861 H1917 0.929 . S
C1862 C1858 1.356 . S
C1862 C1859 1.358 . S
C1862 H1918 0.930 . S
C1863 N1860 1.314 . S
C1863 C1861 1.353 . S
C1863 H1919 0.930 . S
C1864 N1865 1.314 . S
C1864 C1869 1.353 . S
C1864 H1870 0.930 . S
N1865 Li1848 1.990 . S
N1865 C1864 1.314 . S
N1865 C1867 1.279 . S
C1866 C1867 1.358 . S
C1866 C1868 1.356 . S
C1866 H1920 0.930 . S
C1867 N1865 1.279 . S
C1867 C1866 1.358 . S
C1867 H1871 0.930 . S
C1868 C1866 1.356 . S
C1868 C1869 1.348 . S
C1869 C1864 1.353 . S
C1869 C1868 1.348 . S
C1869 H1921 0.929 . S
H1870 C1864 0.930 . S
H1871 C1867 0.930 . S
C1872 N1873 1.314 . S
C1872 C1874 1.353 . S
C1872 H1878 0.930 . S
N1873 Li1849 1.990 . S
N1873 C1872 1.314 . S
N1873 C1876 1.279 . S
C1874 C1872 1.353 . S
C1874 C1877 1.348 . S
C1874 H1922 0.929 . S
C1875 C1876 1.358 . S
C1875 C1877 1.356 . S
C1875 H1923 0.930 . S
C1876 N1873 1.279 . S
C1876 C1875 1.358 . S
C1876 H1879 0.930 . S
C1877 C1874 1.348 . S
C1877 C1875 1.356 . S
H1878 C1872 0.930 . S
H1879 C1876 0.930 . S
C1880 C1882 1.348 . S
C1880 C1883 1.356 . S
C1880 O1910 1.325 . S
N1881 C1884 1.314 . S
N1881 C1885 1.279 . S
C1882 C1880 1.348 . S
C1882 C1884 1.353 . S
C1882 H1924 0.929 . S
C1883 C1880 1.356 . S
C1883 C1885 1.358 . S
C1883 H1925 0.930 . S
C1884 N1881 1.314 . S
C1884 C1882 1.353 . S
C1884 H1926 0.930 . S
C1885 N1881 1.279 . S
C1885 C1883 1.358 . S
C1885 H1927 0.930 . S
C1886 C1887 1.348 . S
C1886 C1888 1.356 . S
C1886 O1911 1.325 . S
C1887 C1886 1.348 . S
C1887 C1889 1.353 . S
C1887 H1928 0.929 . S
C1888 C1886 1.356 . S
C1888 C1890 1.358 . S
C1888 H1929 0.930 . S
C1889 C1887 1.353 . S
C1889 N1891 1.314 . S
C1889 H1930 0.930 . S
C1890 C1888 1.358 . S
C1890 N1891 1.279 . S
C1890 H1931 0.930 . S
N1891 C1889 1.314 . S
N1891 C1890 1.279 . S
C1892 C1894 1.353 . S
C1892 N1895 1.314 . S
C1892 H1898 0.930 . S
C1893 N1895 1.279 . S
C1893 C1896 1.358 . S
C1893 H1899 0.930 . S
C1894 C1892 1.353 . S
C1894 C1897 1.348 . S
C1894 H1932 0.929 . S
N1895 Li1850 1.990 . S
N1895 C1892 1.314 . S
N1895 C1893 1.279 . S
C1896 C1893 1.358 . S
C1896 C1897 1.356 . S
C1896 H1933 0.930 . S
C1897 C1894 1.348 . S
C1897 C1896 1.356 . S
H1898 C1892 0.930 . S
H1899 C1893 0.930 . S
C1900 N1901 1.314 . S
C1900 C1902 1.353 . S
C1900 H1906 0.930 . S
N1901 Li1851 1.990 . S
N1901 C1900 1.314 . S
N1901 C1904 1.279 . S
C1902 C1900 1.353 . S
C1902 C1905 1.348 . S
C1902 H1934 0.929 . S
C1903 C1904 1.358 . S
C1903 C1905 1.356 . S
C1903 H1935 0.930 . S
C1904 N1901 1.279 . S
C1904 C1903 1.358 . S
C1904 H1907 0.930 . S
C1905 C1902 1.348 . S
C1905 C1903 1.356 . S
H1906 C1900 0.930 . S
H1907 C1904 0.930 . S
O1908 Li1848 1.956 . S
O1908 Li1849 1.970 . S
O1908 Li1850 1.961 . S
O1908 C1852 1.325 . S
O1909 Li1848 1.970 . S
O1909 Li1849 1.956 . S
O1909 Li1851 1.961 . S
O1909 C1858 1.325 . S
O1910 Li1848 1.961 . S
O1910 Li1850 1.956 . S
O1910 Li1851 1.970 . S
O1910 C1880 1.325 . S
O1911 Li1849 1.961 . S
O1911 Li1850 1.970 . S
O1911 Li1851 1.956 . S
O1911 C1886 1.325 . S
H1912 C1854 0.929 . S
H1913 C1855 0.930 . S
H1914 C1856 0.930 . S
H1915 C1857 0.930 . S
H1916 C1859 0.930 . S
H1917 C1861 0.929 . S
H1918 C1862 0.930 . S
H1919 C1863 0.930 . S
H1920 C1866 0.930 . S
H1921 C1869 0.929 . S
H1922 C1874 0.929 . S
H1923 C1875 0.930 . S
H1924 C1882 0.929 . S
H1925 C1883 0.930 . S
H1926 C1884 0.930 . S
H1927 C1885 0.930 . S
H1928 C1887 0.929 . S
H1929 C1888 0.930 . S
H1930 C1889 0.930 . S
H1931 C1890 0.930 . S
H1932 C1894 0.929 . S
H1933 C1896 0.930 . S
H1934 C1902 0.929 . S
H1935 C1903 0.930 . S
Li1936 N1953 1.990 . S
Li1936 O1996 1.956 . S
Li1936 O1997 1.970 . S
Li1936 O1998 1.961 . S
Li1937 N1961 1.990 . S
Li1937 O1996 1.970 . S
Li1937 O1997 1.956 . S
Li1937 O1999 1.961 . S
Li1938 N1983 1.990 . S
Li1938 O1996 1.961 . S
Li1938 O1998 1.956 . S
Li1938 O1999 1.970 . S
Li1939 N1989 1.990 . S
Li1939 O1997 1.961 . S
Li1939 O1998 1.970 . S
Li1939 O1999 1.956 . S
C1940 C1942 1.348 . S
C1940 C1943 1.356 . S
C1940 O1996 1.325 . S
N1941 C1944 1.314 . S
N1941 C1945 1.279 . S
C1942 C1940 1.348 . S
C1942 C1944 1.353 . S
C1942 H2000 0.929 . S
C1943 C1940 1.356 . S
C1943 C1945 1.358 . S
C1943 H2001 0.930 . S
C1944 N1941 1.314 . S
C1944 C1942 1.353 . S
C1944 H2002 0.930 . S
C1945 N1941 1.279 . S
C1945 C1943 1.358 . S
C1945 H2003 0.930 . S
C1946 C1949 1.348 . S
C1946 C1950 1.356 . S
C1946 O1997 1.325 . S
C1947 N1948 1.279 . S
C1947 C1950 1.358 . S
C1947 H2004 0.930 . S
N1948 C1947 1.279 . S
N1948 C1951 1.314 . S
C1949 C1946 1.348 . S
C1949 C1951 1.353 . S
C1949 H2005 0.929 . S
C1950 C1946 1.356 . S
C1950 C1947 1.358 . S
C1950 H2006 0.930 . S
C1951 N1948 1.314 . S
C1951 C1949 1.353 . S
C1951 H2007 0.930 . S
C1952 N1953 1.314 . S
C1952 C1957 1.353 . S
C1952 H1958 0.930 . S
N1953 Li1936 1.990 . S
N1953 C1952 1.314 . S
N1953 C1955 1.279 . S
C1954 C1955 1.358 . S
C1954 C1956 1.356 . S
C1954 H2008 0.930 . S
C1955 N1953 1.279 . S
C1955 C1954 1.358 . S
C1955 H1959 0.930 . S
C1956 C1954 1.356 . S
C1956 C1957 1.348 . S
C1957 C1952 1.353 . S
C1957 C1956 1.348 . S
C1957 H2009 0.929 . S
H1958 C1952 0.930 . S
H1959 C1955 0.930 . S
C1960 N1961 1.314 . S
C1960 C1962 1.353 . S
C1960 H1966 0.930 . S
N1961 Li1937 1.990 . S
N1961 C1960 1.314 . S
N1961 C1964 1.279 . S
C1962 C1960 1.353 . S
C1962 C1965 1.348 . S
C1962 H2010 0.929 . S
C1963 C1964 1.358 . S
C1963 C1965 1.356 . S
C1963 H2011 0.930 . S
C1964 N1961 1.279 . S
C1964 C1963 1.358 . S
C1964 H1967 0.930 . S
C1965 C1962 1.348 . S
C1965 C1963 1.356 . S
H1966 C1960 0.930 . S
H1967 C1964 0.930 . S
C1968 C1970 1.348 . S
C1968 C1971 1.356 . S
C1968 O1998 1.325 . S
N1969 C1972 1.314 . S
N1969 C1973 1.279 . S
C1970 C1968 1.348 . S
C1970 C1972 1.353 . S
C1970 H2012 0.929 . S
C1971 C1968 1.356 . S
C1971 C1973 1.358 . S
C1971 H2013 0.930 . S
C1972 N1969 1.314 . S
C1972 C1970 1.353 . S
C1972 H2014 0.930 . S
C1973 N1969 1.279 . S
C1973 C1971 1.358 . S
C1973 H2015 0.930 . S
C1974 C1975 1.348 . S
C1974 C1976 1.356 . S
C1974 O1999 1.325 . S
C1975 C1974 1.348 . S
C1975 C1977 1.353 . S
C1975 H2016 0.929 . S
C1976 C1974 1.356 . S
C1976 C1978 1.358 . S
C1976 H2017 0.930 . S
C1977 C1975 1.353 . S
C1977 N1979 1.314 . S
C1977 H2018 0.930 . S
C1978 C1976 1.358 . S
C1978 N1979 1.279 . S
C1978 H2019 0.930 . S
N1979 C1977 1.314 . S
N1979 C1978 1.279 . S
C1980 C1982 1.353 . S
C1980 N1983 1.314 . S
C1980 H1986 0.930 . S
C1981 N1983 1.279 . S
C1981 C1984 1.358 . S
C1981 H1987 0.930 . S
C1982 C1980 1.353 . S
C1982 C1985 1.348 . S
C1982 H2020 0.929 . S
N1983 Li1938 1.990 . S
N1983 C1980 1.314 . S
N1983 C1981 1.279 . S
C1984 C1981 1.358 . S
C1984 C1985 1.356 . S
C1984 H2021 0.930 . S
C1985 C1982 1.348 . S
C1985 C1984 1.356 . S
H1986 C1980 0.930 . S
H1987 C1981 0.930 . S
C1988 N1989 1.314 . S
C1988 C1990 1.353 . S
C1988 H1994 0.930 . S
N1989 Li1939 1.990 . S
N1989 C1988 1.314 . S
N1989 C1992 1.279 . S
C1990 C1988 1.353 . S
C1990 C1993 1.348 . S
C1990 H2022 0.929 . S
C1991 C1992 1.358 . S
C1991 C1993 1.356 . S
C1991 H2023 0.930 . S
C1992 N1989 1.279 . S
C1992 C1991 1.358 . S
C1992 H1995 0.930 . S
C1993 C1990 1.348 . S
C1993 C1991 1.356 . S
H1994 C1988 0.930 . S
H1995 C1992 0.930 . S
O1996 Li1936 1.956 . S
O1996 Li1937 1.970 . S
O1996 Li1938 1.961 . S
O1996 C1940 1.325 . S
O1997 Li1936 1.970 . S
O1997 Li1937 1.956 . S
O1997 Li1939 1.961 . S
O1997 C1946 1.325 . S
O1998 Li1936 1.961 . S
O1998 Li1938 1.956 . S
O1998 Li1939 1.970 . S
O1998 C1968 1.325 . S
O1999 Li1937 1.961 . S
O1999 Li1938 1.970 . S
O1999 Li1939 1.956 . S
O1999 C1974 1.325 . S
H2000 C1942 0.929 . S
H2001 C1943 0.930 . S
H2002 C1944 0.930 . S
H2003 C1945 0.930 . S
H2004 C1947 0.930 . S
H2005 C1949 0.929 . S
H2006 C1950 0.930 . S
H2007 C1951 0.930 . S
H2008 C1954 0.930 . S
H2009 C1957 0.929 . S
H2010 C1962 0.929 . S
H2011 C1963 0.930 . S
H2012 C1970 0.929 . S
H2013 C1971 0.930 . S
H2014 C1972 0.930 . S
H2015 C1973 0.930 . S
H2016 C1975 0.929 . S
H2017 C1976 0.930 . S
H2018 C1977 0.930 . S
H2019 C1978 0.930 . S
H2020 C1982 0.929 . S
H2021 C1984 0.930 . S
H2022 C1990 0.929 . S
H2023 C1991 0.930 . S
Li2024 N2041 1.990 . S
Li2024 O2084 1.956 . S
Li2024 O2085 1.970 . S
Li2024 O2086 1.961 . S
Li2025 N2049 1.990 . S
Li2025 O2084 1.970 . S
Li2025 O2085 1.956 . S
Li2025 O2087 1.961 . S
Li2026 N2071 1.990 . S
Li2026 O2084 1.961 . S
Li2026 O2086 1.956 . S
Li2026 O2087 1.970 . S
Li2027 N2077 1.990 . S
Li2027 O2085 1.961 . S
Li2027 O2086 1.970 . S
Li2027 O2087 1.956 . S
C2028 C2030 1.348 . S
C2028 C2031 1.356 . S
C2028 O2084 1.325 . S
N2029 C2032 1.314 . S
N2029 C2033 1.279 . S
C2030 C2028 1.348 . S
C2030 C2032 1.353 . S
C2030 H2088 0.929 . S
C2031 C2028 1.356 . S
C2031 C2033 1.358 . S
C2031 H2089 0.930 . S
C2032 N2029 1.314 . S
C2032 C2030 1.353 . S
C2032 H2090 0.930 . S
C2033 N2029 1.279 . S
C2033 C2031 1.358 . S
C2033 H2091 0.930 . S
C2034 C2037 1.348 . S
C2034 C2038 1.356 . S
C2034 O2085 1.325 . S
C2035 N2036 1.279 . S
C2035 C2038 1.358 . S
C2035 H2092 0.930 . S
N2036 C2035 1.279 . S
N2036 C2039 1.314 . S
C2037 C2034 1.348 . S
C2037 C2039 1.353 . S
C2037 H2093 0.929 . S
C2038 C2034 1.356 . S
C2038 C2035 1.358 . S
C2038 H2094 0.930 . S
C2039 N2036 1.314 . S
C2039 C2037 1.353 . S
C2039 H2095 0.930 . S
C2040 N2041 1.314 . S
C2040 C2045 1.353 . S
C2040 H2046 0.930 . S
N2041 Li2024 1.990 . S
N2041 C2040 1.314 . S
N2041 C2043 1.279 . S
C2042 C2043 1.358 . S
C2042 C2044 1.356 . S
C2042 H2096 0.930 . S
C2043 N2041 1.279 . S
C2043 C2042 1.358 . S
C2043 H2047 0.930 . S
C2044 C2042 1.356 . S
C2044 C2045 1.348 . S
C2045 C2040 1.353 . S
C2045 C2044 1.348 . S
C2045 H2097 0.929 . S
H2046 C2040 0.930 . S
H2047 C2043 0.930 . S
C2048 N2049 1.314 . S
C2048 C2050 1.353 . S
C2048 H2054 0.930 . S
N2049 Li2025 1.990 . S
N2049 C2048 1.314 . S
N2049 C2052 1.279 . S
C2050 C2048 1.353 . S
C2050 C2053 1.348 . S
C2050 H2098 0.929 . S
C2051 C2052 1.358 . S
C2051 C2053 1.356 . S
C2051 H2099 0.930 . S
C2052 N2049 1.279 . S
C2052 C2051 1.358 . S
C2052 H2055 0.930 . S
C2053 C2050 1.348 . S
C2053 C2051 1.356 . S
H2054 C2048 0.930 . S
H2055 C2052 0.930 . S
C2056 C2058 1.348 . S
C2056 C2059 1.356 . S
C2056 O2086 1.325 . S
N2057 C2060 1.314 . S
N2057 C2061 1.279 . S
C2058 C2056 1.348 . S
C2058 C2060 1.353 . S
C2058 H2100 0.929 . S
C2059 C2056 1.356 . S
C2059 C2061 1.358 . S
C2059 H2101 0.930 . S
C2060 N2057 1.314 . S
C2060 C2058 1.353 . S
C2060 H2102 0.930 . S
C2061 N2057 1.279 . S
C2061 C2059 1.358 . S
C2061 H2103 0.930 . S
C2062 C2063 1.348 . S
C2062 C2064 1.356 . S
C2062 O2087 1.325 . S
C2063 C2062 1.348 . S
C2063 C2065 1.353 . S
C2063 H2104 0.929 . S
C2064 C2062 1.356 . S
C2064 C2066 1.358 . S
C2064 H2105 0.930 . S
C2065 C2063 1.353 . S
C2065 N2067 1.314 . S
C2065 H2106 0.930 . S
C2066 C2064 1.358 . S
C2066 N2067 1.279 . S
C2066 H2107 0.930 . S
N2067 C2065 1.314 . S
N2067 C2066 1.279 . S
C2068 C2070 1.353 . S
C2068 N2071 1.314 . S
C2068 H2074 0.930 . S
C2069 N2071 1.279 . S
C2069 C2072 1.358 . S
C2069 H2075 0.930 . S
C2070 C2068 1.353 . S
C2070 C2073 1.348 . S
C2070 H2108 0.929 . S
N2071 Li2026 1.990 . S
N2071 C2068 1.314 . S
N2071 C2069 1.279 . S
C2072 C2069 1.358 . S
C2072 C2073 1.356 . S
C2072 H2109 0.930 . S
C2073 C2070 1.348 . S
C2073 C2072 1.356 . S
H2074 C2068 0.930 . S
H2075 C2069 0.930 . S
C2076 N2077 1.314 . S
C2076 C2078 1.353 . S
C2076 H2082 0.930 . S
N2077 Li2027 1.990 . S
N2077 C2076 1.314 . S
N2077 C2080 1.279 . S
C2078 C2076 1.353 . S
C2078 C2081 1.348 . S
C2078 H2110 0.929 . S
C2079 C2080 1.358 . S
C2079 C2081 1.356 . S
C2079 H2111 0.930 . S
C2080 N2077 1.279 . S
C2080 C2079 1.358 . S
C2080 H2083 0.930 . S
C2081 C2078 1.348 . S
C2081 C2079 1.356 . S
H2082 C2076 0.930 . S
H2083 C2080 0.930 . S
O2084 Li2024 1.956 . S
O2084 Li2025 1.970 . S
O2084 Li2026 1.961 . S
O2084 C2028 1.325 . S
O2085 Li2024 1.970 . S
O2085 Li2025 1.956 . S
O2085 Li2027 1.961 . S
O2085 C2034 1.325 . S
O2086 Li2024 1.961 . S
O2086 Li2026 1.956 . S
O2086 Li2027 1.970 . S
O2086 C2056 1.325 . S
O2087 Li2025 1.961 . S
O2087 Li2026 1.970 . S
O2087 Li2027 1.956 . S
O2087 C2062 1.325 . S
H2088 C2030 0.929 . S
H2089 C2031 0.930 . S
H2090 C2032 0.930 . S
H2091 C2033 0.930 . S
H2092 C2035 0.930 . S
H2093 C2037 0.929 . S
H2094 C2038 0.930 . S
H2095 C2039 0.930 . S
H2096 C2042 0.930 . S
H2097 C2045 0.929 . S
H2098 C2050 0.929 . S
H2099 C2051 0.930 . S
H2100 C2058 0.929 . S
H2101 C2059 0.930 . S
H2102 C2060 0.930 . S
H2103 C2061 0.930 . S
H2104 C2063 0.929 . S
H2105 C2064 0.930 . S
H2106 C2065 0.930 . S
H2107 C2066 0.930 . S
H2108 C2070 0.929 . S
H2109 C2072 0.930 . S
H2110 C2078 0.929 . S
H2111 C2079 0.930 . S
Tb2112 O2115 2.453 . S
Tb2112 O2116 2.596 . S
Tb2112 O2117 2.374 1_554 S
Tb2112 O2125 2.343 1_455 S
Tb2112 O2127 2.353 . S
Tb2112 O2129 2.427 . S
Tb2112 O2130 2.513 1_554 S
C2113 O2117 1.251 . S
C2113 O2119 1.263 . S
Tb2114 O2116 2.343 1_655 S
Tb2114 O2119 2.353 1_654 S
Tb2114 O2122 2.427 1_645 S
Tb2114 O2123 2.513 1_645 S
Tb2114 O2124 2.453 . S
Tb2114 O2125 2.596 . S
Tb2114 O2126 2.374 . S
O2115 Tb2112 2.453 . S
O2115 C2131 1.245 . S
O2116 Tb2112 2.596 . S
O2116 Tb2114 2.343 1_455 S
O2116 C2131 1.259 . S
O2117 Tb2112 2.374 1_556 S
O2117 C2113 1.251 . S
C2118 O2122 1.275 . S
C2118 O2123 1.246 . S
O2119 C2113 1.263 . S
O2119 Tb2114 2.353 1_456 S
C2120 O2124 1.245 . S
C2120 O2125 1.259 . S
C2121 O2126 1.251 1_455 S
C2121 O2127 1.260 . S
O2122 Tb2114 2.427 1_465 S
O2122 C2118 1.275 . S
O2123 Tb2114 2.513 1_465 S
O2123 C2118 1.246 . S
O2124 Tb2114 2.453 . S
O2124 C2120 1.245 . S
O2125 Tb2112 2.343 1_655 S
O2125 Tb2114 2.596 . S
O2125 C2120 1.259 . S
O2126 Tb2114 2.374 . S
O2126 C2121 1.251 1_655 S
O2127 Tb2112 2.353 . S
O2127 C2121 1.260 . S
C2128 O2129 1.275 . S
C2128 O2130 1.246 1_554 S
O2129 Tb2112 2.427 . S
O2129 C2128 1.275 . S
O2130 Tb2112 2.513 1_556 S
O2130 C2128 1.246 1_556 S
C2131 O2115 1.245 . S
C2131 O2116 1.259 . S
Tb2132 O2135 2.453 . S
Tb2132 O2136 2.596 . S
Tb2132 O2137 2.374 . S
Tb2132 O2145 2.343 . S
Tb2132 O2147 2.353 . S
Tb2132 O2149 2.427 . S
Tb2132 O2150 2.513 . S
C2133 O2137 1.251 . S
C2133 O2139 1.263 . S
Tb2134 O2136 2.343 . S
Tb2134 O2139 2.353 . S
Tb2134 O2142 2.427 . S
Tb2134 O2143 2.513 . S
Tb2134 O2144 2.453 . S
Tb2134 O2145 2.596 . S
Tb2134 O2146 2.374 . S
O2135 Tb2132 2.453 . S
O2135 C2151 1.245 . S
O2136 Tb2132 2.596 . S
O2136 Tb2134 2.343 . S
O2136 C2151 1.259 . S
O2137 Tb2132 2.374 . S
O2137 C2133 1.251 . S
C2138 O2142 1.275 . S
C2138 O2143 1.246 . S
O2139 C2133 1.263 . S
O2139 Tb2134 2.353 . S
C2140 O2144 1.245 . S
C2140 O2145 1.259 . S
C2141 O2146 1.250 . S
C2141 O2147 1.263 . S
O2142 Tb2134 2.427 . S
O2142 C2138 1.275 . S
O2143 Tb2134 2.513 . S
O2143 C2138 1.246 . S
O2144 Tb2134 2.453 . S
O2144 C2140 1.245 . S
O2145 Tb2132 2.343 . S
O2145 Tb2134 2.596 . S
O2145 C2140 1.259 . S
O2146 Tb2134 2.374 . S
O2146 C2141 1.250 . S
O2147 Tb2132 2.353 . S
O2147 C2141 1.263 . S
C2148 O2149 1.275 . S
C2148 O2150 1.246 . S
O2149 Tb2132 2.427 . S
O2149 C2148 1.275 . S
O2150 Tb2132 2.513 . S
O2150 C2148 1.246 . S
C2151 O2135 1.245 . S
C2151 O2136 1.259 . S
Tb2152 O2155 2.453 . S
Tb2152 O2156 2.596 . S
Tb2152 O2157 2.374 . S
Tb2152 O2165 2.343 . S
Tb2152 O2167 2.353 . S
Tb2152 O2169 2.427 . S
Tb2152 O2170 2.513 . S
C2153 O2157 1.251 . S
C2153 O2159 1.263 . S
Tb2154 O2156 2.343 . S
Tb2154 O2159 2.353 . S
Tb2154 O2162 2.427 . S
Tb2154 O2163 2.513 . S
Tb2154 O2164 2.453 1_545 S
Tb2154 O2165 2.596 . S
Tb2154 O2166 2.374 . S
O2155 Tb2152 2.453 . S
O2155 C2171 1.245 . S
O2156 Tb2152 2.596 . S
O2156 Tb2154 2.343 . S
O2156 C2171 1.259 . S
O2157 Tb2152 2.374 . S
O2157 C2153 1.251 . S
C2158 O2162 1.275 . S
C2158 O2163 1.246 . S
O2159 C2153 1.263 . S
O2159 Tb2154 2.353 . S
C2160 O2164 1.245 . S
C2160 O2165 1.259 1_565 S
C2161 O2166 1.250 . S
C2161 O2167 1.263 . S
O2162 Tb2154 2.427 . S
O2162 C2158 1.275 . S
O2163 Tb2154 2.513 . S
O2163 C2158 1.246 . S
O2164 Tb2154 2.453 1_565 S
O2164 C2160 1.245 . S
O2165 Tb2152 2.343 . S
O2165 Tb2154 2.596 . S
O2165 C2160 1.259 1_545 S
O2166 Tb2154 2.374 . S
O2166 C2161 1.250 . S
O2167 Tb2152 2.353 . S
O2167 C2161 1.263 . S
C2168 O2169 1.275 . S
C2168 O2170 1.246 . S
O2169 Tb2152 2.427 . S
O2169 C2168 1.275 . S
O2170 Tb2152 2.513 . S
O2170 C2168 1.246 . S
C2171 O2155 1.245 . S
C2171 O2156 1.259 . S
Tb2172 O2175 2.453 . S
Tb2172 O2176 2.596 . S
Tb2172 O2177 2.374 . S
Tb2172 O2185 2.343 . S
Tb2172 O2187 2.353 . S
Tb2172 O2189 2.427 . S
Tb2172 O2190 2.513 . S
C2173 O2177 1.251 . S
C2173 O2179 1.263 . S
Tb2174 O2176 2.343 . S
Tb2174 O2179 2.353 . S
Tb2174 O2182 2.427 . S
Tb2174 O2183 2.513 . S
Tb2174 O2184 2.453 . S
Tb2174 O2185 2.596 . S
Tb2174 O2186 2.374 . S
O2175 Tb2172 2.453 . S
O2175 C2191 1.245 . S
O2176 Tb2172 2.596 . S
O2176 Tb2174 2.343 . S
O2176 C2191 1.259 . S
O2177 Tb2172 2.374 . S
O2177 C2173 1.251 . S
C2178 O2182 1.275 . S
C2178 O2183 1.246 . S
O2179 C2173 1.263 . S
O2179 Tb2174 2.353 . S
C2180 O2184 1.245 . S
C2180 O2185 1.259 . S
C2181 O2186 1.250 . S
C2181 O2187 1.263 . S
O2182 Tb2174 2.427 . S
O2182 C2178 1.275 . S
O2183 Tb2174 2.513 . S
O2183 C2178 1.246 . S
O2184 Tb2174 2.453 . S
O2184 C2180 1.245 . S
O2185 Tb2172 2.343 . S
O2185 Tb2174 2.596 . S
O2185 C2180 1.259 . S
O2186 Tb2174 2.374 . S
O2186 C2181 1.250 . S
O2187 Tb2172 2.353 . S
O2187 C2181 1.263 . S
C2188 O2189 1.275 . S
C2188 O2190 1.246 . S
O2189 Tb2172 2.427 . S
O2189 C2188 1.275 . S
O2190 Tb2172 2.513 . S
O2190 C2188 1.246 . S
C2191 O2175 1.245 . S
C2191 O2176 1.259 . S
Tb2192 O2195 2.453 1_545 S
Tb2192 O2196 2.596 . S
Tb2192 O2197 2.374 1_455 S
Tb2192 O2205 2.343 . S
Tb2192 O2207 2.353 . S
Tb2192 O2209 2.427 . S
Tb2192 O2210 2.513 1_455 S
C2193 O2197 1.251 . S
C2193 O2199 1.263 . S
Tb2194 O2196 2.343 . S
Tb2194 O2199 2.353 1_455 S
Tb2194 O2202 2.427 . S
Tb2194 O2203 2.513 . S
Tb2194 O2204 2.453 . S
Tb2194 O2205 2.596 . S
Tb2194 O2206 2.374 . S
O2195 Tb2192 2.453 1_565 S
O2195 C2211 1.231 1_565 S
O2196 Tb2192 2.596 . S
O2196 Tb2194 2.343 . S
O2196 C2211 1.293 . S
O2197 Tb2192 2.374 1_655 S
O2197 C2193 1.251 . S
C2198 O2202 1.275 . S
C2198 O2203 1.246 . S
O2199 C2193 1.263 . S
O2199 Tb2194 2.353 1_655 S
C2200 O2204 1.245 . S
C2200 O2205 1.259 . S
C2201 O2206 1.250 . S
C2201 O2207 1.263 . S
O2202 Tb2194 2.427 . S
O2202 C2198 1.275 . S
O2203 Tb2194 2.513 . S
O2203 C2198 1.246 . S
O2204 Tb2194 2.453 . S
O2204 C2200 1.245 . S
O2205 Tb2192 2.343 . S
O2205 Tb2194 2.596 . S
O2205 C2200 1.259 . S
O2206 Tb2194 2.374 . S
O2206 C2201 1.250 . S
O2207 Tb2192 2.353 . S
O2207 C2201 1.263 . S
C2208 O2209 1.275 1_655 S
C2208 O2210 1.246 . S
O2209 Tb2192 2.427 . S
O2209 C2208 1.275 1_455 S
O2210 Tb2192 2.513 1_655 S
O2210 C2208 1.246 . S
C2211 O2195 1.231 1_545 S
C2211 O2196 1.293 . S
Tb2212 O2215 2.453 . S
Tb2212 O2216 2.596 . S
Tb2212 O2217 2.374 . S
Tb2212 O2225 2.343 . S
Tb2212 O2227 2.353 . S
Tb2212 O2229 2.427 . S
Tb2212 O2230 2.513 . S
C2213 O2217 1.251 . S
C2213 O2219 1.263 . S
Tb2214 O2216 2.343 . S
Tb2214 O2219 2.353 . S
Tb2214 O2222 2.427 . S
Tb2214 O2223 2.513 . S
Tb2214 O2224 2.453 . S
Tb2214 O2225 2.596 . S
Tb2214 O2226 2.374 . S
O2215 Tb2212 2.453 . S
O2215 C2231 1.245 . S
O2216 Tb2212 2.596 . S
O2216 Tb2214 2.343 . S
O2216 C2231 1.259 . S
O2217 Tb2212 2.374 . S
O2217 C2213 1.251 . S
C2218 O2222 1.275 . S
C2218 O2223 1.246 . S
O2219 C2213 1.263 . S
O2219 Tb2214 2.353 . S
C2220 O2224 1.245 . S
C2220 O2225 1.259 . S
C2221 O2226 1.250 . S
C2221 O2227 1.263 . S
O2222 Tb2214 2.427 . S
O2222 C2218 1.275 . S
O2223 Tb2214 2.513 . S
O2223 C2218 1.246 . S
O2224 Tb2214 2.453 . S
O2224 C2220 1.245 . S
O2225 Tb2212 2.343 . S
O2225 Tb2214 2.596 . S
O2225 C2220 1.259 . S
O2226 Tb2214 2.374 . S
O2226 C2221 1.250 . S
O2227 Tb2212 2.353 . S
O2227 C2221 1.263 . S
C2228 O2229 1.275 . S
C2228 O2230 1.246 . S
O2229 Tb2212 2.427 . S
O2229 C2228 1.275 . S
O2230 Tb2212 2.513 . S
O2230 C2228 1.246 . S
C2231 O2215 1.245 . S
C2231 O2216 1.259 . S
Tb2232 O2235 2.418 1_554 S
Tb2232 O2236 2.595 . S
Tb2232 O2237 2.374 1_554 S
Tb2232 O2245 2.382 . S
Tb2232 O2247 2.367 . S
Tb2232 O2249 2.448 . S
Tb2232 O2250 2.532 . S
C2233 O2237 1.250 1_564 S
C2233 O2239 1.263 1_565 S
Tb2234 O2236 2.379 . S
Tb2234 O2239 2.353 . S
Tb2234 O2242 2.427 . S
Tb2234 O2243 2.513 . S
Tb2234 O2244 2.453 . S
Tb2234 O2245 2.596 . S
Tb2234 O2246 2.374 . S
O2235 Tb2232 2.418 1_556 S
O2235 C2251 1.245 . S
O2236 Tb2232 2.595 . S
O2236 Tb2234 2.379 . S
O2236 C2251 1.221 1_554 S
O2237 Tb2232 2.374 1_556 S
O2237 C2233 1.250 1_546 S
C2238 O2242 1.275 . S
C2238 O2243 1.246 . S
O2239 C2233 1.263 1_545 S
O2239 Tb2234 2.353 . S
C2240 O2244 1.245 . S
C2240 O2245 1.259 . S
C2241 O2246 1.250 . S
C2241 O2247 1.263 . S
O2242 Tb2234 2.427 . S
O2242 C2238 1.275 . S
O2243 Tb2234 2.513 . S
O2243 C2238 1.246 . S
O2244 Tb2234 2.453 . S
O2244 C2240 1.245 . S
O2245 Tb2232 2.382 . S
O2245 Tb2234 2.596 . S
O2245 C2240 1.259 . S
O2246 Tb2234 2.374 . S
O2246 C2241 1.250 . S
O2247 Tb2232 2.367 . S
O2247 C2241 1.263 . S
C2248 O2249 1.275 . S
C2248 O2250 1.246 . S
O2249 Tb2232 2.448 . S
O2249 C2248 1.275 . S
O2250 Tb2232 2.532 . S
O2250 C2248 1.246 . S
C2251 O2235 1.245 . S
C2251 O2236 1.221 1_556 S
Tb2252 O2255 2.453 . S
Tb2252 O2256 2.596 . S
Tb2252 O2257 2.374 . S
Tb2252 O2265 2.343 . S
Tb2252 O2267 2.353 . S
Tb2252 O2269 2.427 . S
Tb2252 O2270 2.513 . S
C2253 O2257 1.251 . S
C2253 O2259 1.263 . S
Tb2254 O2256 2.343 . S
Tb2254 O2259 2.353 . S
Tb2254 O2262 2.427 . S
Tb2254 O2263 2.513 . S
Tb2254 O2264 2.453 . S
Tb2254 O2265 2.596 . S
Tb2254 O2266 2.374 . S
O2255 Tb2252 2.453 . S
O2255 C2271 1.245 . S
O2256 Tb2252 2.596 . S
O2256 Tb2254 2.343 . S
O2256 C2271 1.259 . S
O2257 Tb2252 2.374 . S
O2257 C2253 1.251 . S
C2258 O2262 1.275 . S
C2258 O2263 1.246 . S
O2259 C2253 1.263 . S
O2259 Tb2254 2.353 . S
C2260 O2264 1.245 . S
C2260 O2265 1.259 . S
C2261 O2266 1.250 . S
C2261 O2267 1.263 . S
O2262 Tb2254 2.427 . S
O2262 C2258 1.275 . S
O2263 Tb2254 2.513 . S
O2263 C2258 1.246 . S
O2264 Tb2254 2.453 . S
O2264 C2260 1.245 . S
O2265 Tb2252 2.343 . S
O2265 Tb2254 2.596 . S
O2265 C2260 1.259 . S
O2266 Tb2254 2.374 . S
O2266 C2261 1.250 . S
O2267 Tb2252 2.353 . S
O2267 C2261 1.263 . S
C2268 O2269 1.275 . S
C2268 O2270 1.246 . S
O2269 Tb2252 2.427 . S
O2269 C2268 1.275 . S
O2270 Tb2252 2.513 . S
O2270 C2268 1.246 . S
C2271 O2255 1.245 . S
C2271 O2256 1.259 . S
Tb2272 O2275 2.453 1_556 S
Tb2272 O2276 2.596 1_556 S
Tb2272 O2277 2.374 1_556 S
Tb2272 O2285 2.343 1_556 S
Tb2272 O2287 2.354 1_556 S
Tb2272 O2289 2.427 . S
Tb2272 O2290 2.513 . S
C2273 O2277 1.251 . S
C2273 O2279 1.263 . S
Tb2274 O2276 2.343 . S
Tb2274 O2279 2.353 . S
Tb2274 O2282 2.427 . S
Tb2274 O2283 2.513 . S
Tb2274 O2284 2.453 . S
Tb2274 O2285 2.596 . S
Tb2274 O2286 2.374 . S
O2275 Tb2272 2.453 1_554 S
O2275 C2291 1.245 . S
O2276 Tb2272 2.596 1_554 S
O2276 Tb2274 2.343 . S
O2276 C2291 1.259 . S
O2277 Tb2272 2.374 1_554 S
O2277 C2273 1.251 . S
C2278 O2282 1.275 . S
C2278 O2283 1.246 . S
O2279 C2273 1.263 . S
O2279 Tb2274 2.353 . S
C2280 O2284 1.245 . S
C2280 O2285 1.259 . S
C2281 O2286 1.250 . S
C2281 O2287 1.260 . S
O2282 Tb2274 2.427 . S
O2282 C2278 1.275 . S
O2283 Tb2274 2.513 . S
O2283 C2278 1.246 . S
O2284 Tb2274 2.453 . S
O2284 C2280 1.245 . S
O2285 Tb2272 2.343 1_554 S
O2285 Tb2274 2.596 . S
O2285 C2280 1.259 . S
O2286 Tb2274 2.374 . S
O2286 C2281 1.250 . S
O2287 Tb2272 2.354 1_554 S
O2287 C2281 1.260 . S
C2288 O2289 1.275 . S
C2288 O2290 1.246 . S
O2289 Tb2272 2.427 . S
O2289 C2288 1.275 . S
O2290 Tb2272 2.513 . S
O2290 C2288 1.246 . S
C2291 O2275 1.245 . S
C2291 O2276 1.259 . S
Tb2292 O2295 2.453 . S
Tb2292 O2296 2.596 . S
Tb2292 O2297 2.374 . S
Tb2292 O2305 2.343 . S
Tb2292 O2307 2.353 . S
Tb2292 O2309 2.427 . S
Tb2292 O2310 2.513 . S
C2293 O2297 1.251 . S
C2293 O2299 1.263 . S
Tb2294 O2296 2.343 . S
Tb2294 O2299 2.353 . S
Tb2294 O2302 2.427 . S
Tb2294 O2303 2.513 . S
Tb2294 O2304 2.453 . S
Tb2294 O2305 2.596 . S
Tb2294 O2306 2.374 . S
O2295 Tb2292 2.453 . S
O2295 C2311 1.245 . S
O2296 Tb2292 2.596 . S
O2296 Tb2294 2.343 . S
O2296 C2311 1.259 . S
O2297 Tb2292 2.374 . S
O2297 C2293 1.251 . S
C2298 O2302 1.275 . S
C2298 O2303 1.246 . S
O2299 C2293 1.263 . S
O2299 Tb2294 2.353 . S
C2300 O2304 1.245 . S
C2300 O2305 1.259 . S
C2301 O2306 1.250 . S
C2301 O2307 1.263 . S
O2302 Tb2294 2.427 . S
O2302 C2298 1.275 . S
O2303 Tb2294 2.513 . S
O2303 C2298 1.246 . S
O2304 Tb2294 2.453 . S
O2304 C2300 1.245 . S
O2305 Tb2292 2.343 . S
O2305 Tb2294 2.596 . S
O2305 C2300 1.259 . S
O2306 Tb2294 2.374 . S
O2306 C2301 1.250 . S
O2307 Tb2292 2.353 . S
O2307 C2301 1.263 . S
C2308 O2309 1.275 . S
C2308 O2310 1.246 . S
O2309 Tb2292 2.427 . S
O2309 C2308 1.275 . S
O2310 Tb2292 2.513 . S
O2310 C2308 1.246 . S
C2311 O2295 1.245 . S
C2311 O2296 1.259 . S
Tb2312 O2315 2.453 1_655 S
Tb2312 O2316 2.596 1_655 S
Tb2312 O2317 2.374 . S
Tb2312 O2325 2.343 . S
Tb2312 O2327 2.353 . S
Tb2312 O2329 2.427 . S
Tb2312 O2330 2.513 . S
C2313 O2317 1.251 1_455 S
C2313 O2319 1.263 . S
Tb2314 O2316 2.343 . S
Tb2314 O2319 2.353 . S
Tb2314 O2322 2.427 . S
Tb2314 O2323 2.513 . S
Tb2314 O2324 2.453 . S
Tb2314 O2325 2.596 1_455 S
Tb2314 O2326 2.374 . S
O2315 Tb2312 2.453 1_455 S
O2315 C2331 1.245 . S
O2316 Tb2312 2.596 1_455 S
O2316 Tb2314 2.343 . S
O2316 C2331 1.259 . S
O2317 Tb2312 2.374 . S
O2317 C2313 1.251 1_655 S
C2318 O2322 1.275 . S
C2318 O2323 1.246 . S
O2319 C2313 1.263 . S
O2319 Tb2314 2.353 . S
C2320 O2324 1.220 1_655 S
C2320 O2325 1.261 . S
C2321 O2326 1.250 . S
C2321 O2327 1.263 1_455 S
O2322 Tb2314 2.427 . S
O2322 C2318 1.275 . S
O2323 Tb2314 2.513 . S
O2323 C2318 1.246 . S
O2324 Tb2314 2.453 . S
O2324 C2320 1.220 1_455 S
O2325 Tb2312 2.343 . S
O2325 Tb2314 2.596 1_655 S
O2325 C2320 1.261 . S
O2326 Tb2314 2.374 . S
O2326 C2321 1.250 . S
O2327 Tb2312 2.353 . S
O2327 C2321 1.263 1_655 S
C2328 O2329 1.275 . S
C2328 O2330 1.246 . S
O2329 Tb2312 2.427 . S
O2329 C2328 1.275 . S
O2330 Tb2312 2.513 . S
O2330 C2328 1.246 . S
C2331 O2315 1.245 . S
C2331 O2316 1.259 . S
Tb2332 O2335 2.453 . S
Tb2332 O2336 2.596 . S
Tb2332 O2337 2.374 . S
Tb2332 O2345 2.343 . S
Tb2332 O2347 2.353 . S
Tb2332 O2349 2.427 . S
Tb2332 O2350 2.513 . S
C2333 O2337 1.251 . S
C2333 O2339 1.263 . S
Tb2334 O2336 2.343 . S
Tb2334 O2339 2.353 . S
Tb2334 O2342 2.427 . S
Tb2334 O2343 2.513 . S
Tb2334 O2344 2.453 . S
Tb2334 O2345 2.596 . S
Tb2334 O2346 2.374 . S
O2335 Tb2332 2.453 . S
O2335 C2351 1.245 . S
O2336 Tb2332 2.596 . S
O2336 Tb2334 2.343 . S
O2336 C2351 1.259 . S
O2337 Tb2332 2.374 . S
O2337 C2333 1.251 . S
C2338 O2342 1.275 . S
C2338 O2343 1.246 . S
O2339 C2333 1.263 . S
O2339 Tb2334 2.353 . S
C2340 O2344 1.245 . S
C2340 O2345 1.259 . S
C2341 O2346 1.250 . S
C2341 O2347 1.263 . S
O2342 Tb2334 2.427 . S
O2342 C2338 1.275 . S
O2343 Tb2334 2.513 . S
O2343 C2338 1.246 . S
O2344 Tb2334 2.453 . S
O2344 C2340 1.245 . S
O2345 Tb2332 2.343 . S
O2345 Tb2334 2.596 . S
O2345 C2340 1.259 . S
O2346 Tb2334 2.374 . S
O2346 C2341 1.250 . S
O2347 Tb2332 2.353 . S
O2347 C2341 1.263 . S
C2348 O2349 1.275 . S
C2348 O2350 1.246 . S
O2349 Tb2332 2.427 . S
O2349 C2348 1.275 . S
O2350 Tb2332 2.513 . S
O2350 C2348 1.246 . S
C2351 O2335 1.245 . S
C2351 O2336 1.259 . S
Tb2352 O2355 2.453 . S
Tb2352 O2356 2.596 . S
Tb2352 O2357 2.374 . S
Tb2352 O2365 2.343 . S
Tb2352 O2367 2.353 . S
Tb2352 O2369 2.427 . S
Tb2352 O2370 2.513 . S
C2353 O2357 1.251 . S
C2353 O2359 1.263 . S
Tb2354 O2356 2.343 . S
Tb2354 O2359 2.353 . S
Tb2354 O2362 2.427 . S
Tb2354 O2363 2.513 . S
Tb2354 O2364 2.453 . S
Tb2354 O2365 2.596 . S
Tb2354 O2366 2.374 . S
O2355 Tb2352 2.453 . S
O2355 C2371 1.245 . S
O2356 Tb2352 2.596 . S
O2356 Tb2354 2.343 . S
O2356 C2371 1.259 . S
O2357 Tb2352 2.374 . S
O2357 C2353 1.251 . S
C2358 O2362 1.275 . S
C2358 O2363 1.246 . S
O2359 C2353 1.263 . S
O2359 Tb2354 2.353 . S
C2360 O2364 1.245 . S
C2360 O2365 1.259 . S
C2361 O2366 1.250 . S
C2361 O2367 1.263 . S
O2362 Tb2354 2.427 . S
O2362 C2358 1.275 . S
O2363 Tb2354 2.513 . S
O2363 C2358 1.246 . S
O2364 Tb2354 2.453 . S
O2364 C2360 1.245 . S
O2365 Tb2352 2.343 . S
O2365 Tb2354 2.596 . S
O2365 C2360 1.259 . S
O2366 Tb2354 2.374 . S
O2366 C2361 1.250 . S
O2367 Tb2352 2.353 . S
O2367 C2361 1.263 . S
C2368 O2369 1.275 . S
C2368 O2370 1.246 . S
O2369 Tb2352 2.427 . S
O2369 C2368 1.275 . S
O2370 Tb2352 2.513 . S
O2370 C2368 1.246 . S
C2371 O2355 1.245 . S
C2371 O2356 1.259 . S
Tb2372 O2375 2.453 . S
Tb2372 O2376 2.596 . S
Tb2372 O2377 2.374 . S
Tb2372 O2385 2.343 . S
Tb2372 O2387 2.353 . S
Tb2372 O2389 2.427 . S
Tb2372 O2390 2.513 . S
C2373 O2377 1.251 . S
C2373 O2379 1.263 . S
Tb2374 O2376 2.343 . S
Tb2374 O2379 2.353 . S
Tb2374 O2382 2.427 . S
Tb2374 O2383 2.513 . S
Tb2374 O2384 2.453 . S
Tb2374 O2385 2.596 . S
Tb2374 O2386 2.374 . S
O2375 Tb2372 2.453 . S
O2375 C2391 1.245 . S
O2376 Tb2372 2.596 . S
O2376 Tb2374 2.343 . S
O2376 C2391 1.259 . S
O2377 Tb2372 2.374 . S
O2377 C2373 1.251 . S
C2378 O2382 1.275 . S
C2378 O2383 1.246 . S
O2379 C2373 1.263 . S
O2379 Tb2374 2.353 . S
C2380 O2384 1.245 . S
C2380 O2385 1.259 . S
C2381 O2386 1.250 . S
C2381 O2387 1.263 . S
O2382 Tb2374 2.427 . S
O2382 C2378 1.275 . S
O2383 Tb2374 2.513 . S
O2383 C2378 1.246 . S
O2384 Tb2374 2.453 . S
O2384 C2380 1.245 . S
O2385 Tb2372 2.343 . S
O2385 Tb2374 2.596 . S
O2385 C2380 1.259 . S
O2386 Tb2374 2.374 . S
O2386 C2381 1.250 . S
O2387 Tb2372 2.353 . S
O2387 C2381 1.263 . S
C2388 O2389 1.275 . S
C2388 O2390 1.246 . S
O2389 Tb2372 2.427 . S
O2389 C2388 1.275 . S
O2390 Tb2372 2.513 . S
O2390 C2388 1.246 . S
C2391 O2375 1.245 . S
C2391 O2376 1.259 . S
Tb2392 O2395 2.453 . S
Tb2392 O2396 2.596 . S
Tb2392 O2397 2.374 . S
Tb2392 O2405 2.343 . S
Tb2392 O2407 2.353 . S
Tb2392 O2409 2.427 . S
Tb2392 O2410 2.513 . S
C2393 O2397 1.251 . S
C2393 O2399 1.263 . S
Tb2394 O2396 2.343 . S
Tb2394 O2399 2.353 . S
Tb2394 O2402 2.427 . S
Tb2394 O2403 2.513 . S
Tb2394 O2404 2.453 . S
Tb2394 O2405 2.596 . S
Tb2394 O2406 2.374 . S
O2395 Tb2392 2.453 . S
O2395 C2411 1.245 . S
O2396 Tb2392 2.596 . S
O2396 Tb2394 2.343 . S
O2396 C2411 1.259 . S
O2397 Tb2392 2.374 . S
O2397 C2393 1.251 . S
C2398 O2402 1.275 . S
C2398 O2403 1.246 . S
O2399 C2393 1.263 . S
O2399 Tb2394 2.353 . S
C2400 O2404 1.245 . S
C2400 O2405 1.259 . S
C2401 O2406 1.250 . S
C2401 O2407 1.263 . S
O2402 Tb2394 2.427 . S
O2402 C2398 1.275 . S
O2403 Tb2394 2.513 . S
O2403 C2398 1.246 . S
O2404 Tb2394 2.453 . S
O2404 C2400 1.245 . S
O2405 Tb2392 2.343 . S
O2405 Tb2394 2.596 . S
O2405 C2400 1.259 . S
O2406 Tb2394 2.374 . S
O2406 C2401 1.250 . S
O2407 Tb2392 2.353 . S
O2407 C2401 1.263 . S
C2408 O2409 1.275 . S
C2408 O2410 1.246 . S
O2409 Tb2392 2.427 . S
O2409 C2408 1.275 . S
O2410 Tb2392 2.513 . S
O2410 C2408 1.246 . S
C2411 O2395 1.245 . S
C2411 O2396 1.259 . S
Tb2412 O2415 2.453 . S
Tb2412 O2416 2.596 . S
Tb2412 O2417 2.374 . S
Tb2412 O2425 2.343 . S
Tb2412 O2427 2.353 1_554 S
Tb2412 O2429 2.427 1_554 S
Tb2412 O2430 2.513 . S
C2413 O2417 1.251 . S
C2413 O2419 1.267 1_455 S
Tb2414 O2416 2.343 1_655 S
Tb2414 O2419 2.351 . S
Tb2414 O2422 2.427 . S
Tb2414 O2423 2.513 . S
Tb2414 O2424 2.453 . S
Tb2414 O2425 2.596 1_655 S
Tb2414 O2426 2.374 1_554 S
O2415 Tb2412 2.453 . S
O2415 C2431 1.245 . S
O2416 Tb2412 2.596 . S
O2416 Tb2414 2.343 1_455 S
O2416 C2431 1.259 . S
O2417 Tb2412 2.374 . S
O2417 C2413 1.251 . S
C2418 O2422 1.275 . S
C2418 O2423 1.246 . S
O2419 C2413 1.267 1_655 S
O2419 Tb2414 2.351 . S
C2420 O2424 1.245 1_455 S
C2420 O2425 1.259 . S
C2421 O2426 1.250 1_455 S
C2421 O2427 1.263 . S
O2422 Tb2414 2.427 . S
O2422 C2418 1.275 . S
O2423 Tb2414 2.513 . S
O2423 C2418 1.246 . S
O2424 Tb2414 2.453 . S
O2424 C2420 1.245 1_655 S
O2425 Tb2412 2.343 . S
O2425 Tb2414 2.596 1_455 S
O2425 C2420 1.259 . S
O2426 Tb2414 2.374 1_556 S
O2426 C2421 1.250 1_655 S
O2427 Tb2412 2.353 1_556 S
O2427 C2421 1.263 . S
C2428 O2429 1.275 1_554 S
C2428 O2430 1.246 . S
O2429 Tb2412 2.427 1_556 S
O2429 C2428 1.275 1_556 S
O2430 Tb2412 2.513 . S
O2430 C2428 1.246 . S
C2431 O2415 1.245 . S
C2431 O2416 1.259 . S
C2432 C2433 1.349 1_655 S
C2432 C2434 1.327 . S
C2432 H2457 0.950 . S
C2433 C2432 1.349 1_455 S
C2433 C2449 1.349 . S
C2434 C2432 1.327 . S
C2434 C2453 1.429 1_655 S
C2434 H2458 0.950 . S
C2435 C2452 1.574 . S
C2435 C2454 1.368 . S
C2435 H2459 0.949 . S
H2436 C2440 0.949 . S
C2437 C2438 1.347 1_556 S
C2437 C2439 1.327 . S
C2437 H2460 0.950 . S
C2438 C2437 1.347 1_554 S
C2438 C2450 1.350 1_455 S
C2439 C2437 1.327 . S
C2439 C2455 1.429 . S
C2439 H2461 0.950 . S
C2440 H2436 0.949 . S
C2440 C2448 1.574 . S
C2440 C2456 1.368 1_655 S
H2441 C2449 0.950 . S
H2442 C2447 0.950 . S
H2443 C2448 0.949 . S
H2444 C2450 0.950 . S
H2445 C2451 0.950 1_554 S
H2446 C2452 0.949 . S
C2447 H2442 0.950 . S
C2447 C2449 1.327 . S
C2447 C2453 1.429 . S
C2448 C2440 1.574 . S
C2448 H2443 0.949 . S
C2448 C2454 1.368 1_655 S
C2449 C2433 1.349 . S
C2449 H2441 0.950 . S
C2449 C2447 1.327 . S
C2450 C2438 1.350 1_655 S
C2450 H2444 0.950 . S
C2450 C2451 1.327 1_554 S
C2451 H2445 0.950 1_556 S
C2451 C2450 1.327 1_556 S
C2451 C2455 1.429 1_655 S
C2452 C2435 1.574 . S
C2452 H2446 0.949 . S
C2452 C2456 1.368 . S
C2453 C2434 1.429 1_455 S
C2453 C2447 1.429 . S
C2453 C2454 1.523 . S
C2454 C2435 1.368 . S
C2454 C2448 1.368 1_455 S
C2454 C2453 1.523 . S
C2455 C2439 1.429 . S
C2455 C2451 1.429 1_455 S
C2455 C2456 1.523 . S
C2456 C2440 1.368 1_455 S
C2456 C2452 1.368 . S
C2456 C2455 1.523 . S
H2457 C2432 0.950 . S
H2458 C2434 0.950 . S
H2459 C2435 0.949 . S
H2460 C2437 0.950 . S
H2461 C2439 0.950 . S
C2462 C2463 1.349 . S
C2462 C2464 1.327 . S
C2462 H2487 0.950 . S
C2463 C2462 1.349 . S
C2463 C2479 1.349 . S
C2464 C2462 1.327 . S
C2464 C2483 1.429 . S
C2464 H2488 0.950 . S
C2465 C2482 1.574 . S
C2465 C2484 1.368 . S
C2465 H2489 0.949 . S
H2466 C2470 0.949 . S
C2467 C2468 1.349 . S
C2467 C2469 1.327 . S
C2467 H2490 0.950 . S
C2468 C2467 1.349 . S
C2468 C2480 1.349 . S
C2469 C2467 1.327 . S
C2469 C2485 1.429 . S
C2469 H2491 0.950 . S
C2470 H2466 0.949 . S
C2470 C2478 1.574 . S
C2470 C2486 1.368 . S
H2471 C2479 0.950 . S
H2472 C2477 0.950 . S
H2473 C2478 0.949 . S
H2474 C2480 0.950 . S
H2475 C2481 0.950 . S
H2476 C2482 0.949 . S
C2477 H2472 0.950 . S
C2477 C2479 1.327 . S
C2477 C2483 1.429 . S
C2478 C2470 1.574 . S
C2478 H2473 0.949 . S
C2478 C2484 1.368 . S
C2479 C2463 1.349 . S
C2479 H2471 0.950 . S
C2479 C2477 1.327 . S
C2480 C2468 1.349 . S
C2480 H2474 0.950 . S
C2480 C2481 1.327 . S
C2481 H2475 0.950 . S
C2481 C2480 1.327 . S
C2481 C2485 1.429 . S
C2482 C2465 1.574 . S
C2482 H2476 0.949 . S
C2482 C2486 1.368 . S
C2483 C2464 1.429 . S
C2483 C2477 1.429 . S
C2483 C2484 1.523 . S
C2484 C2465 1.368 . S
C2484 C2478 1.368 . S
C2484 C2483 1.523 . S
C2485 C2469 1.429 . S
C2485 C2481 1.429 . S
C2485 C2486 1.523 . S
C2486 C2470 1.368 . S
C2486 C2482 1.368 . S
C2486 C2485 1.523 . S
H2487 C2462 0.950 . S
H2488 C2464 0.950 . S
H2489 C2465 0.949 . S
H2490 C2467 0.950 . S
H2491 C2469 0.950 . S
C2492 C2493 1.349 . S
C2492 C2494 1.327 . S
C2492 H2517 0.950 . S
C2493 C2492 1.349 . S
C2493 C2509 1.349 . S
C2494 C2492 1.327 . S
C2494 C2513 1.429 . S
C2494 H2518 0.950 . S
C2495 C2512 1.574 . S
C2495 C2514 1.368 . S
C2495 H2519 0.949 . S
H2496 C2500 0.949 . S
C2497 C2498 1.349 . S
C2497 C2499 1.327 . S
C2497 H2520 0.950 . S
C2498 C2497 1.349 . S
C2498 C2510 1.349 . S
C2499 C2497 1.327 . S
C2499 C2515 1.429 . S
C2499 H2521 0.950 . S
C2500 H2496 0.949 . S
C2500 C2508 1.574 . S
C2500 C2516 1.368 . S
H2501 C2509 0.950 . S
H2502 C2507 0.950 . S
H2503 C2508 0.949 . S
H2504 C2510 0.950 . S
H2505 C2511 0.950 . S
H2506 C2512 0.949 . S
C2507 H2502 0.950 . S
C2507 C2509 1.327 . S
C2507 C2513 1.429 . S
C2508 C2500 1.574 . S
C2508 H2503 0.949 . S
C2508 C2514 1.368 . S
C2509 C2493 1.349 . S
C2509 H2501 0.950 . S
C2509 C2507 1.327 . S
C2510 C2498 1.349 . S
C2510 H2504 0.950 . S
C2510 C2511 1.327 . S
C2511 H2505 0.950 . S
C2511 C2510 1.327 . S
C2511 C2515 1.429 . S
C2512 C2495 1.574 . S
C2512 H2506 0.949 . S
C2512 C2516 1.368 . S
C2513 C2494 1.429 . S
C2513 C2507 1.429 . S
C2513 C2514 1.523 . S
C2514 C2495 1.368 . S
C2514 C2508 1.368 . S
C2514 C2513 1.523 . S
C2515 C2499 1.429 . S
C2515 C2511 1.429 . S
C2515 C2516 1.523 . S
C2516 C2500 1.368 . S
C2516 C2512 1.368 . S
C2516 C2515 1.523 . S
H2517 C2492 0.950 . S
H2518 C2494 0.950 . S
H2519 C2495 0.949 . S
H2520 C2497 0.950 . S
H2521 C2499 0.950 . S
C2522 C2523 1.349 . S
C2522 C2524 1.327 . S
C2522 H2547 0.950 . S
C2523 C2522 1.349 . S
C2523 C2539 1.349 . S
C2524 C2522 1.327 . S
C2524 C2543 1.429 . S
C2524 H2548 0.950 . S
C2525 C2542 1.574 . S
C2525 C2544 1.368 . S
C2525 H2549 0.949 . S
H2526 C2530 0.949 . S
C2527 C2528 1.349 . S
C2527 C2529 1.327 . S
C2527 H2550 0.950 . S
C2528 C2527 1.349 . S
C2528 C2540 1.349 . S
C2529 C2527 1.327 . S
C2529 C2545 1.429 . S
C2529 H2551 0.950 . S
C2530 H2526 0.949 . S
C2530 C2538 1.574 . S
C2530 C2546 1.368 . S
H2531 C2539 0.950 . S
H2532 C2537 0.950 . S
H2533 C2538 0.949 . S
H2534 C2540 0.950 . S
H2535 C2541 0.950 . S
H2536 C2542 0.949 . S
C2537 H2532 0.950 . S
C2537 C2539 1.327 . S
C2537 C2543 1.429 . S
C2538 C2530 1.574 . S
C2538 H2533 0.949 . S
C2538 C2544 1.368 . S
C2539 C2523 1.349 . S
C2539 H2531 0.950 . S
C2539 C2537 1.327 . S
C2540 C2528 1.349 . S
C2540 H2534 0.950 . S
C2540 C2541 1.327 . S
C2541 H2535 0.950 . S
C2541 C2540 1.327 . S
C2541 C2545 1.429 . S
C2542 C2525 1.574 . S
C2542 H2536 0.949 . S
C2542 C2546 1.368 . S
C2543 C2524 1.429 . S
C2543 C2537 1.429 . S
C2543 C2544 1.523 . S
C2544 C2525 1.368 . S
C2544 C2538 1.368 . S
C2544 C2543 1.523 . S
C2545 C2529 1.429 . S
C2545 C2541 1.429 . S
C2545 C2546 1.523 . S
C2546 C2530 1.368 . S
C2546 C2542 1.368 . S
C2546 C2545 1.523 . S
H2547 C2522 0.950 . S
H2548 C2524 0.950 . S
H2549 C2525 0.949 . S
H2550 C2527 0.950 . S
H2551 C2529 0.950 . S
C2552 C2553 1.349 1_655 S
C2552 C2554 1.327 . S
C2552 H2577 0.950 . S
C2553 C2552 1.349 1_455 S
C2553 C2569 1.349 . S
C2554 C2552 1.327 . S
C2554 C2573 1.429 1_655 S
C2554 H2578 0.950 . S
C2555 C2572 1.574 . S
C2555 C2574 1.368 . S
C2555 H2579 0.949 . S
H2556 C2560 0.949 . S
C2557 C2558 1.349 . S
C2557 C2559 1.327 . S
C2557 H2580 0.950 . S
C2558 C2557 1.349 . S
C2558 C2570 1.349 . S
C2559 C2557 1.327 . S
C2559 C2575 1.429 . S
C2559 H2581 0.950 . S
C2560 H2556 0.949 . S
C2560 C2568 1.574 . S
C2560 C2576 1.368 1_655 S
H2561 C2569 0.950 . S
H2562 C2567 0.950 . S
H2563 C2568 0.949 . S
H2564 C2570 0.950 1_655 S
H2565 C2571 0.947 . S
H2566 C2572 0.949 . S
C2567 H2562 0.950 . S
C2567 C2569 1.327 . S
C2567 C2573 1.429 . S
C2568 C2560 1.574 . S
C2568 H2563 0.949 . S
C2568 C2574 1.368 1_655 S
C2569 C2553 1.349 . S
C2569 H2561 0.950 . S
C2569 C2567 1.327 . S
C2570 C2558 1.349 . S
C2570 H2564 0.950 1_455 S
C2570 C2571 1.327 1_455 S
C2571 H2565 0.947 . S
C2571 C2570 1.327 1_655 S
C2571 C2575 1.431 1_655 S
C2572 C2555 1.574 . S
C2572 H2566 0.949 . S
C2572 C2576 1.368 . S
C2573 C2554 1.429 1_455 S
C2573 C2567 1.429 . S
C2573 C2574 1.523 . S
C2574 C2555 1.368 . S
C2574 C2568 1.368 1_455 S
C2574 C2573 1.523 . S
C2575 C2559 1.429 . S
C2575 C2571 1.431 1_455 S
C2575 C2576 1.523 . S
C2576 C2560 1.368 1_455 S
C2576 C2572 1.368 . S
C2576 C2575 1.523 . S
H2577 C2552 0.950 . S
H2578 C2554 0.950 . S
H2579 C2555 0.949 . S
H2580 C2557 0.950 . S
H2581 C2559 0.950 . S
C2582 C2583 1.349 . S
C2582 C2584 1.327 . S
C2582 H2607 0.950 . S
C2583 C2582 1.349 . S
C2583 C2599 1.349 . S
C2584 C2582 1.327 . S
C2584 C2603 1.429 . S
C2584 H2608 0.950 . S
C2585 C2602 1.574 . S
C2585 C2604 1.368 . S
C2585 H2609 0.949 . S
H2586 C2590 0.949 . S
C2587 C2588 1.349 . S
C2587 C2589 1.327 . S
C2587 H2610 0.950 . S
C2588 C2587 1.349 . S
C2588 C2600 1.349 . S
C2589 C2587 1.327 . S
C2589 C2605 1.429 . S
C2589 H2611 0.950 . S
C2590 H2586 0.949 . S
C2590 C2598 1.574 . S
C2590 C2606 1.368 . S
H2591 C2599 0.950 . S
H2592 C2597 0.950 . S
H2593 C2598 0.949 . S
H2594 C2600 0.950 . S
H2595 C2601 0.950 . S
H2596 C2602 0.949 . S
C2597 H2592 0.950 . S
C2597 C2599 1.327 . S
C2597 C2603 1.429 . S
C2598 C2590 1.574 . S
C2598 H2593 0.949 . S
C2598 C2604 1.368 . S
C2599 C2583 1.349 . S
C2599 H2591 0.950 . S
C2599 C2597 1.327 . S
C2600 C2588 1.349 . S
C2600 H2594 0.950 . S
C2600 C2601 1.327 . S
C2601 H2595 0.950 . S
C2601 C2600 1.327 . S
C2601 C2605 1.429 . S
C2602 C2585 1.574 . S
C2602 H2596 0.949 . S
C2602 C2606 1.368 . S
C2603 C2584 1.429 . S
C2603 C2597 1.429 . S
C2603 C2604 1.523 . S
C2604 C2585 1.368 . S
C2604 C2598 1.368 . S
C2604 C2603 1.523 . S
C2605 C2589 1.429 . S
C2605 C2601 1.429 . S
C2605 C2606 1.523 . S
C2606 C2590 1.368 . S
C2606 C2602 1.368 . S
C2606 C2605 1.523 . S
H2607 C2582 0.950 . S
H2608 C2584 0.950 . S
H2609 C2585 0.949 . S
H2610 C2587 0.950 . S
H2611 C2589 0.950 . S
C2612 C2613 1.349 . S
C2612 C2614 1.327 . S
C2612 H2637 0.950 . S
C2613 C2612 1.349 . S
C2613 C2629 1.349 . S
C2614 C2612 1.327 . S
C2614 C2633 1.429 . S
C2614 H2638 0.950 . S
C2615 C2632 1.574 . S
C2615 C2634 1.368 . S
C2615 H2639 0.949 . S
H2616 C2620 0.949 . S
C2617 C2618 1.349 . S
C2617 C2619 1.327 . S
C2617 H2640 0.950 . S
C2618 C2617 1.349 . S
C2618 C2630 1.349 . S
C2619 C2617 1.327 . S
C2619 C2635 1.429 . S
C2619 H2641 0.950 . S
C2620 H2616 0.949 . S
C2620 C2628 1.574 . S
C2620 C2636 1.368 . S
H2621 C2629 0.950 . S
H2622 C2627 0.950 . S
H2623 C2628 0.949 . S
H2624 C2630 0.950 . S
H2625 C2631 0.950 . S
H2626 C2632 0.949 . S
C2627 H2622 0.950 . S
C2627 C2629 1.327 . S
C2627 C2633 1.429 . S
C2628 C2620 1.574 . S
C2628 H2623 0.949 . S
C2628 C2634 1.368 . S
C2629 C2613 1.349 . S
C2629 H2621 0.950 . S
C2629 C2627 1.327 . S
C2630 C2618 1.349 . S
C2630 H2624 0.950 . S
C2630 C2631 1.327 . S
C2631 H2625 0.950 . S
C2631 C2630 1.327 . S
C2631 C2635 1.429 . S
C2632 C2615 1.574 . S
C2632 H2626 0.949 . S
C2632 C2636 1.368 . S
C2633 C2614 1.429 . S
C2633 C2627 1.429 . S
C2633 C2634 1.523 . S
C2634 C2615 1.368 . S
C2634 C2628 1.368 . S
C2634 C2633 1.523 . S
C2635 C2619 1.429 . S
C2635 C2631 1.429 . S
C2635 C2636 1.523 . S
C2636 C2620 1.368 . S
C2636 C2632 1.368 . S
C2636 C2635 1.523 . S
H2637 C2612 0.950 . S
H2638 C2614 0.950 . S
H2639 C2615 0.949 . S
H2640 C2617 0.950 . S
H2641 C2619 0.950 . S
C2642 C2643 1.349 . S
C2642 C2644 1.327 . S
C2642 H2667 0.950 . S
C2643 C2642 1.349 . S
C2643 C2659 1.349 . S
C2644 C2642 1.327 . S
C2644 C2663 1.429 . S
C2644 H2668 0.950 . S
C2645 C2662 1.574 . S
C2645 C2664 1.368 . S
C2645 H2669 0.949 . S
H2646 C2650 0.949 . S
C2647 C2648 1.349 . S
C2647 C2649 1.327 . S
C2647 H2670 0.950 . S
C2648 C2647 1.349 . S
C2648 C2660 1.349 . S
C2649 C2647 1.327 . S
C2649 C2665 1.429 . S
C2649 H2671 0.950 . S
C2650 H2646 0.949 . S
C2650 C2658 1.574 . S
C2650 C2666 1.368 . S
H2651 C2659 0.950 . S
H2652 C2657 0.950 . S
H2653 C2658 0.949 . S
H2654 C2660 0.950 . S
H2655 C2661 0.950 . S
H2656 C2662 0.949 . S
C2657 H2652 0.950 . S
C2657 C2659 1.327 . S
C2657 C2663 1.429 . S
C2658 C2650 1.574 . S
C2658 H2653 0.949 . S
C2658 C2664 1.368 . S
C2659 C2643 1.349 . S
C2659 H2651 0.950 . S
C2659 C2657 1.327 . S
C2660 C2648 1.349 . S
C2660 H2654 0.950 . S
C2660 C2661 1.327 . S
C2661 H2655 0.950 . S
C2661 C2660 1.327 . S
C2661 C2665 1.429 . S
C2662 C2645 1.574 . S
C2662 H2656 0.949 . S
C2662 C2666 1.368 . S
C2663 C2644 1.429 . S
C2663 C2657 1.429 . S
C2663 C2664 1.523 . S
C2664 C2645 1.368 . S
C2664 C2658 1.368 . S
C2664 C2663 1.523 . S
C2665 C2649 1.429 . S
C2665 C2661 1.429 . S
C2665 C2666 1.523 . S
C2666 C2650 1.368 . S
C2666 C2662 1.368 . S
C2666 C2665 1.523 . S
H2667 C2642 0.950 . S
H2668 C2644 0.950 . S
H2669 C2645 0.949 . S
H2670 C2647 0.950 . S
H2671 C2649 0.950 . S
C2672 C2673 1.349 . S
C2672 C2674 1.327 . S
C2672 H2697 0.950 . S
C2673 C2672 1.349 . S
C2673 C2689 1.349 . S
C2674 C2672 1.327 . S
C2674 C2693 1.429 . S
C2674 H2698 0.950 . S
C2675 C2692 1.574 . S
C2675 C2694 1.368 . S
C2675 H2699 0.949 . S
H2676 C2680 0.949 . S
C2677 C2678 1.349 . S
C2677 C2679 1.327 . S
C2677 H2700 0.950 . S
C2678 C2677 1.349 . S
C2678 C2690 1.349 . S
C2679 C2677 1.327 . S
C2679 C2695 1.429 . S
C2679 H2701 0.950 . S
C2680 H2676 0.949 . S
C2680 C2688 1.574 . S
C2680 C2696 1.368 . S
H2681 C2689 0.950 . S
H2682 C2687 0.950 . S
H2683 C2688 0.949 . S
H2684 C2690 0.950 1_455 S
H2685 C2691 0.950 . S
H2686 C2692 0.949 . S
C2687 H2682 0.950 . S
C2687 C2689 1.327 . S
C2687 C2693 1.429 . S
C2688 C2680 1.574 . S
C2688 H2683 0.949 . S
C2688 C2694 1.368 . S
C2689 C2673 1.349 . S
C2689 H2681 0.950 . S
C2689 C2687 1.327 . S
C2690 C2678 1.349 . S
C2690 H2684 0.950 1_655 S
C2690 C2691 1.327 . S
C2691 H2685 0.950 . S
C2691 C2690 1.327 . S
C2691 C2695 1.429 . S
C2692 C2675 1.574 . S
C2692 H2686 0.949 . S
C2692 C2696 1.368 . S
C2693 C2674 1.429 . S
C2693 C2687 1.429 . S
C2693 C2694 1.523 . S
C2694 C2675 1.368 . S
C2694 C2688 1.368 . S
C2694 C2693 1.523 . S
C2695 C2679 1.429 . S
C2695 C2691 1.429 . S
C2695 C2696 1.523 . S
C2696 C2680 1.368 . S
C2696 C2692 1.368 . S
C2696 C2695 1.523 . S
H2697 C2672 0.950 . S
H2698 C2674 0.950 . S
H2699 C2675 0.949 . S
H2700 C2677 0.950 . S
H2701 C2679 0.950 . S
C2702 C2703 1.349 . S
C2702 C2704 1.327 . S
C2702 H2727 0.950 . S
C2703 C2702 1.349 . S
C2703 C2719 1.349 . S
C2704 C2702 1.327 . S
C2704 C2723 1.429 . S
C2704 H2728 0.950 . S
C2705 C2722 1.574 . S
C2705 C2724 1.368 . S
C2705 H2729 0.949 . S
H2706 C2710 0.949 . S
C2707 C2708 1.349 . S
C2707 C2709 1.327 . S
C2707 H2730 0.950 . S
C2708 C2707 1.349 . S
C2708 C2720 1.349 . S
C2709 C2707 1.327 . S
C2709 C2725 1.429 . S
C2709 H2731 0.950 . S
C2710 H2706 0.949 . S
C2710 C2718 1.574 . S
C2710 C2726 1.368 . S
H2711 C2719 0.950 . S
H2712 C2717 0.950 . S
H2713 C2718 0.949 . S
H2714 C2720 0.950 . S
H2715 C2721 0.950 . S
H2716 C2722 0.949 . S
C2717 H2712 0.950 . S
C2717 C2719 1.327 . S
C2717 C2723 1.429 . S
C2718 C2710 1.574 . S
C2718 H2713 0.949 . S
C2718 C2724 1.368 . S
C2719 C2703 1.349 . S
C2719 H2711 0.950 . S
C2719 C2717 1.327 . S
C2720 C2708 1.349 . S
C2720 H2714 0.950 . S
C2720 C2721 1.327 . S
C2721 H2715 0.950 . S
C2721 C2720 1.327 . S
C2721 C2725 1.429 . S
C2722 C2705 1.574 . S
C2722 H2716 0.949 . S
C2722 C2726 1.368 . S
C2723 C2704 1.429 . S
C2723 C2717 1.429 . S
C2723 C2724 1.523 . S
C2724 C2705 1.368 . S
C2724 C2718 1.368 . S
C2724 C2723 1.523 . S
C2725 C2709 1.429 . S
C2725 C2721 1.429 . S
C2725 C2726 1.523 . S
C2726 C2710 1.368 . S
C2726 C2722 1.368 . S
C2726 C2725 1.523 . S
H2727 C2702 0.950 . S
H2728 C2704 0.950 . S
H2729 C2705 0.949 . S
H2730 C2707 0.950 . S
H2731 C2709 0.950 . S
C2732 C2733 1.349 1_565 S
C2732 C2734 1.329 . S
C2732 H2757 0.950 . S
C2733 C2732 1.349 1_545 S
C2733 C2749 1.349 . S
C2734 C2732 1.329 . S
C2734 C2753 1.422 1_565 S
C2734 H2758 0.955 . S
C2735 C2752 1.574 . S
C2735 C2754 1.368 . S
C2735 H2759 0.949 . S
H2736 C2740 0.949 1_565 S
C2737 C2738 1.349 . S
C2737 C2739 1.327 . S
C2737 H2760 0.950 . S
C2738 C2737 1.349 . S
C2738 C2750 1.349 . S
C2739 C2737 1.327 . S
C2739 C2755 1.429 . S
C2739 H2761 0.950 . S
C2740 H2736 0.949 1_545 S
C2740 C2748 1.574 . S
C2740 C2756 1.368 . S
H2741 C2749 0.950 . S
H2742 C2747 0.950 . S
H2743 C2748 0.949 1_565 S
H2744 C2750 0.950 . S
H2745 C2751 0.906 1_565 S
H2746 C2752 0.949 . S
C2747 H2742 0.950 . S
C2747 C2749 1.327 . S
C2747 C2753 1.429 . S
C2748 C2740 1.574 . S
C2748 H2743 0.949 1_545 S
C2748 C2754 1.368 . S
C2749 C2733 1.349 . S
C2749 H2741 0.950 . S
C2749 C2747 1.327 . S
C2750 C2738 1.349 . S
C2750 H2744 0.950 . S
C2750 C2751 1.327 . S
C2751 H2745 0.906 1_545 S
C2751 C2750 1.327 . S
C2751 C2755 1.429 . S
C2752 C2735 1.574 . S
C2752 H2746 0.949 . S
C2752 C2756 1.368 . S
C2753 C2734 1.422 1_545 S
C2753 C2747 1.429 . S
C2753 C2754 1.523 . S
C2754 C2735 1.368 . S
C2754 C2748 1.368 . S
C2754 C2753 1.523 . S
C2755 C2739 1.429 . S
C2755 C2751 1.429 . S
C2755 C2756 1.523 . S
C2756 C2740 1.368 . S
C2756 C2752 1.368 . S
C2756 C2755 1.523 . S
H2757 C2732 0.950 . S
H2758 C2734 0.955 . S
H2759 C2735 0.949 . S
H2760 C2737 0.950 . S
H2761 C2739 0.950 . S
C2762 C2763 1.349 . S
C2762 C2764 1.327 . S
C2762 H2787 0.950 . S
C2763 C2762 1.349 . S
C2763 C2779 1.349 . S
C2764 C2762 1.327 . S
C2764 C2783 1.429 . S
C2764 H2788 0.950 . S
C2765 C2782 1.574 . S
C2765 C2784 1.368 . S
C2765 H2789 0.949 . S
H2766 C2770 0.949 . S
C2767 C2768 1.349 . S
C2767 C2769 1.327 . S
C2767 H2790 0.950 . S
C2768 C2767 1.349 . S
C2768 C2780 1.349 . S
C2769 C2767 1.327 . S
C2769 C2785 1.429 . S
C2769 H2791 0.950 . S
C2770 H2766 0.949 . S
C2770 C2778 1.574 . S
C2770 C2786 1.368 . S
H2771 C2779 0.950 . S
H2772 C2777 0.950 . S
H2773 C2778 0.949 . S
H2774 C2780 0.950 . S
H2775 C2781 0.950 . S
H2776 C2782 0.949 . S
C2777 H2772 0.950 . S
C2777 C2779 1.327 . S
C2777 C2783 1.429 . S
C2778 C2770 1.574 . S
C2778 H2773 0.949 . S
C2778 C2784 1.368 . S
C2779 C2763 1.349 . S
C2779 H2771 0.950 . S
C2779 C2777 1.327 . S
C2780 C2768 1.349 . S
C2780 H2774 0.950 . S
C2780 C2781 1.327 . S
C2781 H2775 0.950 . S
C2781 C2780 1.327 . S
C2781 C2785 1.429 . S
C2782 C2765 1.574 . S
C2782 H2776 0.949 . S
C2782 C2786 1.368 . S
C2783 C2764 1.429 . S
C2783 C2777 1.429 . S
C2783 C2784 1.523 . S
C2784 C2765 1.368 . S
C2784 C2778 1.368 . S
C2784 C2783 1.523 . S
C2785 C2769 1.429 . S
C2785 C2781 1.429 . S
C2785 C2786 1.523 . S
C2786 C2770 1.368 . S
C2786 C2782 1.368 . S
C2786 C2785 1.523 . S
H2787 C2762 0.950 . S
H2788 C2764 0.950 . S
H2789 C2765 0.949 . S
H2790 C2767 0.950 . S
H2791 C2769 0.950 . S
C2792 C2793 1.349 . S
C2792 C2794 1.327 . S
C2792 H2817 0.950 . S
C2793 C2792 1.349 . S
C2793 C2809 1.349 . S
C2794 C2792 1.327 . S
C2794 C2813 1.429 . S
C2794 H2818 0.950 . S
C2795 C2812 1.574 . S
C2795 C2814 1.368 . S
C2795 H2819 0.949 . S
H2796 C2800 0.949 . S
C2797 C2798 1.349 . S
C2797 C2799 1.327 . S
C2797 H2820 0.950 . S
C2798 C2797 1.349 . S
C2798 C2810 1.349 . S
C2799 C2797 1.327 . S
C2799 C2815 1.429 . S
C2799 H2821 0.950 . S
C2800 H2796 0.949 . S
C2800 C2808 1.574 . S
C2800 C2816 1.368 . S
H2801 C2809 0.950 . S
H2802 C2807 0.950 . S
H2803 C2808 0.949 . S
H2804 C2810 0.950 . S
H2805 C2811 0.950 . S
H2806 C2812 0.949 . S
C2807 H2802 0.950 . S
C2807 C2809 1.327 . S
C2807 C2813 1.429 . S
C2808 C2800 1.574 . S
C2808 H2803 0.949 . S
C2808 C2814 1.368 . S
C2809 C2793 1.349 . S
C2809 H2801 0.950 . S
C2809 C2807 1.327 . S
C2810 C2798 1.349 . S
C2810 H2804 0.950 . S
C2810 C2811 1.327 . S
C2811 H2805 0.950 . S
C2811 C2810 1.327 . S
C2811 C2815 1.429 . S
C2812 C2795 1.574 . S
C2812 H2806 0.949 . S
C2812 C2816 1.368 . S
C2813 C2794 1.429 . S
C2813 C2807 1.429 . S
C2813 C2814 1.523 . S
C2814 C2795 1.368 . S
C2814 C2808 1.368 . S
C2814 C2813 1.523 . S
C2815 C2799 1.429 . S
C2815 C2811 1.429 . S
C2815 C2816 1.523 . S
C2816 C2800 1.368 . S
C2816 C2812 1.368 . S
C2816 C2815 1.523 . S
H2817 C2792 0.950 . S
H2818 C2794 0.950 . S
H2819 C2795 0.949 . S
H2820 C2797 0.950 . S
H2821 C2799 0.950 . S
C2822 C2823 1.349 . S
C2822 C2824 1.327 . S
C2822 H2847 0.950 . S
C2823 C2822 1.349 . S
C2823 C2839 1.349 . S
C2824 C2822 1.327 . S
C2824 C2843 1.429 . S
C2824 H2848 0.950 . S
C2825 C2842 1.574 . S
C2825 C2844 1.368 . S
C2825 H2849 0.949 . S
H2826 C2830 0.949 . S
C2827 C2828 1.349 . S
C2827 C2829 1.327 . S
C2827 H2850 0.950 . S
C2828 C2827 1.349 . S
C2828 C2840 1.349 . S
C2829 C2827 1.327 . S
C2829 C2845 1.429 . S
C2829 H2851 0.950 . S
C2830 H2826 0.949 . S
C2830 C2838 1.574 . S
C2830 C2846 1.368 . S
H2831 C2839 0.950 . S
H2832 C2837 0.950 . S
H2833 C2838 0.949 . S
H2834 C2840 0.950 . S
H2835 C2841 0.950 . S
H2836 C2842 0.949 . S
C2837 H2832 0.950 . S
C2837 C2839 1.327 . S
C2837 C2843 1.429 . S
C2838 C2830 1.574 . S
C2838 H2833 0.949 . S
C2838 C2844 1.368 . S
C2839 C2823 1.349 . S
C2839 H2831 0.950 . S
C2839 C2837 1.327 . S
C2840 C2828 1.349 . S
C2840 H2834 0.950 . S
C2840 C2841 1.327 . S
C2841 H2835 0.950 . S
C2841 C2840 1.327 . S
C2841 C2845 1.429 . S
C2842 C2825 1.574 . S
C2842 H2836 0.949 . S
C2842 C2846 1.368 . S
C2843 C2824 1.429 . S
C2843 C2837 1.429 . S
C2843 C2844 1.523 . S
C2844 C2825 1.368 . S
C2844 C2838 1.368 . S
C2844 C2843 1.523 . S
C2845 C2829 1.429 . S
C2845 C2841 1.429 . S
C2845 C2846 1.523 . S
C2846 C2830 1.368 . S
C2846 C2842 1.368 . S
C2846 C2845 1.523 . S
H2847 C2822 0.950 . S
H2848 C2824 0.950 . S
H2849 C2825 0.949 . S
H2850 C2827 0.950 . S
H2851 C2829 0.950 . S
C2852 C2853 1.349 . S
C2852 C2854 1.327 . S
C2852 H2877 0.950 1_545 S
C2853 C2852 1.349 . S
C2853 C2869 1.349 . S
C2854 C2852 1.327 . S
C2854 C2873 1.429 . S
C2854 H2878 0.950 1_545 S
C2855 C2872 1.574 . S
C2855 C2874 1.368 . S
C2855 H2879 0.949 . S
H2856 C2860 0.949 . S
C2857 C2858 1.349 . S
C2857 C2859 1.327 . S
C2857 H2880 0.950 . S
C2858 C2857 1.349 . S
C2858 C2870 1.349 . S
C2859 C2857 1.327 . S
C2859 C2875 1.429 . S
C2859 H2881 0.950 . S
C2860 H2856 0.949 . S
C2860 C2868 1.574 . S
C2860 C2876 1.368 . S
H2861 C2869 0.950 . S
H2862 C2867 0.950 . S
H2863 C2868 0.949 . S
H2864 C2870 0.950 . S
H2865 C2871 0.950 . S
H2866 C2872 0.949 . S
C2867 H2862 0.950 . S
C2867 C2869 1.327 . S
C2867 C2873 1.429 . S
C2868 C2860 1.574 . S
C2868 H2863 0.949 . S
C2868 C2874 1.368 . S
C2869 C2853 1.349 . S
C2869 H2861 0.950 . S
C2869 C2867 1.327 . S
C2870 C2858 1.349 . S
C2870 H2864 0.950 . S
C2870 C2871 1.327 . S
C2871 H2865 0.950 . S
C2871 C2870 1.327 . S
C2871 C2875 1.429 . S
C2872 C2855 1.574 . S
C2872 H2866 0.949 . S
C2872 C2876 1.368 . S
C2873 C2854 1.429 . S
C2873 C2867 1.429 . S
C2873 C2874 1.523 . S
C2874 C2855 1.368 . S
C2874 C2868 1.368 . S
C2874 C2873 1.523 . S
C2875 C2859 1.429 . S
C2875 C2871 1.429 . S
C2875 C2876 1.523 . S
C2876 C2860 1.368 . S
C2876 C2872 1.368 . S
C2876 C2875 1.523 . S
H2877 C2852 0.950 1_565 S
H2878 C2854 0.950 1_565 S
H2879 C2855 0.949 . S
H2880 C2857 0.950 . S
H2881 C2859 0.950 . S
C2882 C2883 1.349 . S
C2882 C2884 1.327 . S
C2882 H2907 0.950 . S
C2883 C2882 1.349 . S
C2883 C2899 1.349 . S
C2884 C2882 1.327 . S
C2884 C2903 1.429 . S
C2884 H2908 0.950 . S
C2885 C2902 1.574 . S
C2885 C2904 1.368 . S
C2885 H2909 0.949 . S
H2886 C2890 0.949 . S
C2887 C2888 1.349 . S
C2887 C2889 1.327 . S
C2887 H2910 0.950 . S
C2888 C2887 1.349 . S
C2888 C2900 1.349 . S
C2889 C2887 1.327 . S
C2889 C2905 1.429 . S
C2889 H2911 0.950 . S
C2890 H2886 0.949 . S
C2890 C2898 1.574 . S
C2890 C2906 1.368 . S
H2891 C2899 0.950 . S
H2892 C2897 0.950 . S
H2893 C2898 0.949 . S
H2894 C2900 0.950 . S
H2895 C2901 0.950 . S
H2896 C2902 0.949 . S
C2897 H2892 0.950 . S
C2897 C2899 1.327 . S
C2897 C2903 1.429 . S
C2898 C2890 1.574 . S
C2898 H2893 0.949 . S
C2898 C2904 1.368 . S
C2899 C2883 1.349 . S
C2899 H2891 0.950 . S
C2899 C2897 1.327 . S
C2900 C2888 1.349 . S
C2900 H2894 0.950 . S
C2900 C2901 1.327 . S
C2901 H2895 0.950 . S
C2901 C2900 1.327 . S
C2901 C2905 1.429 . S
C2902 C2885 1.574 . S
C2902 H2896 0.949 . S
C2902 C2906 1.368 . S
C2903 C2884 1.429 . S
C2903 C2897 1.429 . S
C2903 C2904 1.523 . S
C2904 C2885 1.368 . S
C2904 C2898 1.368 . S
C2904 C2903 1.523 . S
C2905 C2889 1.429 . S
C2905 C2901 1.429 . S
C2905 C2906 1.523 . S
C2906 C2890 1.368 . S
C2906 C2902 1.368 . S
C2906 C2905 1.523 . S
H2907 C2882 0.950 . S
H2908 C2884 0.950 . S
H2909 C2885 0.949 . S
H2910 C2887 0.950 . S
H2911 C2889 0.950 . S
C2912 C2913 1.349 . S
C2912 C2914 1.327 . S
C2912 H2937 0.950 . S
C2913 C2912 1.349 . S
C2913 C2929 1.349 . S
C2914 C2912 1.327 . S
C2914 C2933 1.429 . S
C2914 H2938 0.950 . S
C2915 C2932 1.574 . S
C2915 C2934 1.368 . S
C2915 H2939 0.949 . S
H2916 C2920 0.949 1_545 S
C2917 C2918 1.305 1_565 S
C2917 C2919 1.366 . S
C2917 H2940 0.959 . S
C2918 C2917 1.305 1_545 S
C2918 C2930 1.349 . S
C2919 C2917 1.366 . S
C2919 C2935 1.429 . S
C2919 H2941 0.950 . S
C2920 H2916 0.949 1_565 S
C2920 C2928 1.574 . S
C2920 C2936 1.368 . S
H2921 C2929 0.950 . S
H2922 C2927 0.950 . S
H2923 C2928 0.949 . S
H2924 C2930 0.950 . S
H2925 C2931 0.950 . S
H2926 C2932 0.949 . S
C2927 H2922 0.950 . S
C2927 C2929 1.327 . S
C2927 C2933 1.429 . S
C2928 C2920 1.574 . S
C2928 H2923 0.949 . S
C2928 C2934 1.368 . S
C2929 C2913 1.349 . S
C2929 H2921 0.950 . S
C2929 C2927 1.327 . S
C2930 C2918 1.349 . S
C2930 H2924 0.950 . S
C2930 C2931 1.327 . S
C2931 H2925 0.950 . S
C2931 C2930 1.327 . S
C2931 C2935 1.429 1_545 S
C2932 C2915 1.574 . S
C2932 H2926 0.949 . S
C2932 C2936 1.368 . S
C2933 C2914 1.429 . S
C2933 C2927 1.429 . S
C2933 C2934 1.523 . S
C2934 C2915 1.368 . S
C2934 C2928 1.368 . S
C2934 C2933 1.523 . S
C2935 C2919 1.429 . S
C2935 C2931 1.429 1_565 S
C2935 C2936 1.523 . S
C2936 C2920 1.368 . S
C2936 C2932 1.368 . S
C2936 C2935 1.523 . S
H2937 C2912 0.950 . S
H2938 C2914 0.950 . S
H2939 C2915 0.949 . S
H2940 C2917 0.959 . S
H2941 C2919 0.950 . S
C2942 C2943 1.349 1_556 S
C2942 C2944 1.327 . S
C2942 H2967 0.950 . S
C2943 C2942 1.349 1_554 S
C2943 C2959 1.349 . S
C2944 C2942 1.327 . S
C2944 C2963 1.429 1_556 S
C2944 H2968 0.950 . S
C2945 C2962 1.574 . S
C2945 C2964 1.368 . S
C2945 H2969 0.949 . S
H2946 C2950 0.949 . S
C2947 C2948 1.349 . S
C2947 C2949 1.327 . S
C2947 H2970 0.950 . S
C2948 C2947 1.349 . S
C2948 C2960 1.349 1_554 S
C2949 C2947 1.327 . S
C2949 C2965 1.429 . S
C2949 H2971 0.950 . S
C2950 H2946 0.949 . S
C2950 C2958 1.574 . S
C2950 C2966 1.368 1_556 S
H2951 C2959 0.950 . S
H2952 C2957 0.950 . S
H2953 C2958 0.949 . S
H2954 C2960 0.950 . S
H2955 C2961 0.950 . S
H2956 C2962 0.949 . S
C2957 H2952 0.950 . S
C2957 C2959 1.327 . S
C2957 C2963 1.429 . S
C2958 C2950 1.574 . S
C2958 H2953 0.949 . S
C2958 C2964 1.368 1_556 S
C2959 C2943 1.349 . S
C2959 H2951 0.950 . S
C2959 C2957 1.327 . S
C2960 C2948 1.349 1_556 S
C2960 H2954 0.950 . S
C2960 C2961 1.327 . S
C2961 H2955 0.950 . S
C2961 C2960 1.327 . S
C2961 C2965 1.429 1_556 S
C2962 C2945 1.574 . S
C2962 H2956 0.949 . S
C2962 C2966 1.368 . S
C2963 C2944 1.429 1_554 S
C2963 C2957 1.429 . S
C2963 C2964 1.523 . S
C2964 C2945 1.368 . S
C2964 C2958 1.368 1_554 S
C2964 C2963 1.523 . S
C2965 C2949 1.429 . S
C2965 C2961 1.429 1_554 S
C2965 C2966 1.523 . S
C2966 C2950 1.368 1_554 S
C2966 C2962 1.368 . S
C2966 C2965 1.523 . S
H2967 C2942 0.950 . S
H2968 C2944 0.950 . S
H2969 C2945 0.949 . S
H2970 C2947 0.950 . S
H2971 C2949 0.950 . S
C2972 C2973 1.349 . S
C2972 C2974 1.327 . S
C2972 H2997 0.950 . S
C2973 C2972 1.349 . S
C2973 C2989 1.349 . S
C2974 C2972 1.327 . S
C2974 C2993 1.429 . S
C2974 H2998 0.950 . S
C2975 C2992 1.574 . S
C2975 C2994 1.368 . S
C2975 H2999 0.949 . S
H2976 C2980 0.949 . S
C2977 C2978 1.349 . S
C2977 C2979 1.327 . S
C2977 H3000 0.950 . S
C2978 C2977 1.349 . S
C2978 C2990 1.349 . S
C2979 C2977 1.327 . S
C2979 C2995 1.429 . S
C2979 H3001 0.950 . S
C2980 H2976 0.949 . S
C2980 C2988 1.574 . S
C2980 C2996 1.368 . S
H2981 C2989 0.950 . S
H2982 C2987 0.950 . S
H2983 C2988 0.949 . S
H2984 C2990 0.950 . S
H2985 C2991 0.950 . S
H2986 C2992 0.949 . S
C2987 H2982 0.950 . S
C2987 C2989 1.327 . S
C2987 C2993 1.429 . S
C2988 C2980 1.574 . S
C2988 H2983 0.949 . S
C2988 C2994 1.368 . S
C2989 C2973 1.349 . S
C2989 H2981 0.950 . S
C2989 C2987 1.327 . S
C2990 C2978 1.349 . S
C2990 H2984 0.950 . S
C2990 C2991 1.327 . S
C2991 H2985 0.950 . S
C2991 C2990 1.327 . S
C2991 C2995 1.429 . S
C2992 C2975 1.574 . S
C2992 H2986 0.949 . S
C2992 C2996 1.368 . S
C2993 C2974 1.429 . S
C2993 C2987 1.429 . S
C2993 C2994 1.523 . S
C2994 C2975 1.368 . S
C2994 C2988 1.368 . S
C2994 C2993 1.523 . S
C2995 C2979 1.429 . S
C2995 C2991 1.429 . S
C2995 C2996 1.523 . S
C2996 C2980 1.368 . S
C2996 C2992 1.368 . S
C2996 C2995 1.523 . S
H2997 C2972 0.950 . S
H2998 C2974 0.950 . S
H2999 C2975 0.949 . S
H3000 C2977 0.950 . S
H3001 C2979 0.950 . S
C3002 C3003 1.349 . S
C3002 C3004 1.327 . S
C3002 H3027 0.950 . S
C3003 C3002 1.349 . S
C3003 C3019 1.349 . S
C3004 C3002 1.327 . S
C3004 C3023 1.429 . S
C3004 H3028 0.950 . S
C3005 C3022 1.574 . S
C3005 C3024 1.368 . S
C3005 H3029 0.949 . S
H3006 C3010 0.949 . S
C3007 C3008 1.349 . S
C3007 C3009 1.327 . S
C3007 H3030 0.950 . S
C3008 C3007 1.349 . S
C3008 C3020 1.349 . S
C3009 C3007 1.327 . S
C3009 C3025 1.429 . S
C3009 H3031 0.950 . S
C3010 H3006 0.949 . S
C3010 C3018 1.574 . S
C3010 C3026 1.368 . S
H3011 C3019 0.950 . S
H3012 C3017 0.950 . S
H3013 C3018 0.949 . S
H3014 C3020 0.950 . S
H3015 C3021 0.950 . S
H3016 C3022 0.949 . S
C3017 H3012 0.950 . S
C3017 C3019 1.327 . S
C3017 C3023 1.429 . S
C3018 C3010 1.574 . S
C3018 H3013 0.949 . S
C3018 C3024 1.368 . S
C3019 C3003 1.349 . S
C3019 H3011 0.950 . S
C3019 C3017 1.327 . S
C3020 C3008 1.349 . S
C3020 H3014 0.950 . S
C3020 C3021 1.327 . S
C3021 H3015 0.950 . S
C3021 C3020 1.327 . S
C3021 C3025 1.429 . S
C3022 C3005 1.574 . S
C3022 H3016 0.949 . S
C3022 C3026 1.368 . S
C3023 C3004 1.429 . S
C3023 C3017 1.429 . S
C3023 C3024 1.523 . S
C3024 C3005 1.368 . S
C3024 C3018 1.368 . S
C3024 C3023 1.523 . S
C3025 C3009 1.429 . S
C3025 C3021 1.429 . S
C3025 C3026 1.523 . S
C3026 C3010 1.368 . S
C3026 C3022 1.368 . S
C3026 C3025 1.523 . S
H3027 C3002 0.950 . S
H3028 C3004 0.950 . S
H3029 C3005 0.949 . S
H3030 C3007 0.950 . S
H3031 C3009 0.950 . S
C3032 C3033 1.349 . S
C3032 C3034 1.327 . S
C3032 H3057 0.950 . S
C3033 C3032 1.349 . S
C3033 C3049 1.349 . S
C3034 C3032 1.327 . S
C3034 C3053 1.429 . S
C3034 H3058 0.950 . S
C3035 C3052 1.574 . S
C3035 C3054 1.368 . S
C3035 H3059 0.949 . S
H3036 C3040 0.949 . S
C3037 C3038 1.349 . S
C3037 C3039 1.327 . S
C3037 H3060 0.950 . S
C3038 C3037 1.349 . S
C3038 C3050 1.349 . S
C3039 C3037 1.327 . S
C3039 C3055 1.429 . S
C3039 H3061 0.950 . S
C3040 H3036 0.949 . S
C3040 C3048 1.574 . S
C3040 C3056 1.368 . S
H3041 C3049 0.950 . S
H3042 C3047 0.950 . S
H3043 C3048 0.949 . S
H3044 C3050 0.950 . S
H3045 C3051 0.950 . S
H3046 C3052 0.949 . S
C3047 H3042 0.950 . S
C3047 C3049 1.327 . S
C3047 C3053 1.429 . S
C3048 C3040 1.574 . S
C3048 H3043 0.949 . S
C3048 C3054 1.368 . S
C3049 C3033 1.349 . S
C3049 H3041 0.950 . S
C3049 C3047 1.327 . S
C3050 C3038 1.349 . S
C3050 H3044 0.950 . S
C3050 C3051 1.327 . S
C3051 H3045 0.950 . S
C3051 C3050 1.327 . S
C3051 C3055 1.429 . S
C3052 C3035 1.574 . S
C3052 H3046 0.949 . S
C3052 C3056 1.368 . S
C3053 C3034 1.429 . S
C3053 C3047 1.429 . S
C3053 C3054 1.523 . S
C3054 C3035 1.368 . S
C3054 C3048 1.368 . S
C3054 C3053 1.523 . S
C3055 C3039 1.429 . S
C3055 C3051 1.429 . S
C3055 C3056 1.523 . S
C3056 C3040 1.368 . S
C3056 C3052 1.368 . S
C3056 C3055 1.523 . S
H3057 C3032 0.950 . S
H3058 C3034 0.950 . S
H3059 C3035 0.949 . S
H3060 C3037 0.950 . S
H3061 C3039 0.950 . S
C3062 C3063 1.349 . S
C3062 C3064 1.327 . S
C3062 H3087 0.950 . S
C3063 C3062 1.349 . S
C3063 C3079 1.349 . S
C3064 C3062 1.327 . S
C3064 C3083 1.429 . S
C3064 H3088 0.950 . S
C3065 C3082 1.574 . S
C3065 C3084 1.368 . S
C3065 H3089 0.949 . S
H3066 C3070 0.949 . S
C3067 C3068 1.349 . S
C3067 C3069 1.327 . S
C3067 H3090 0.950 . S
C3068 C3067 1.349 . S
C3068 C3080 1.349 . S
C3069 C3067 1.327 . S
C3069 C3085 1.429 . S
C3069 H3091 0.950 . S
C3070 H3066 0.949 . S
C3070 C3078 1.574 . S
C3070 C3086 1.368 . S
H3071 C3079 0.950 . S
H3072 C3077 0.950 . S
H3073 C3078 0.949 . S
H3074 C3080 0.950 . S
H3075 C3081 0.950 . S
H3076 C3082 0.949 . S
C3077 H3072 0.950 . S
C3077 C3079 1.327 . S
C3077 C3083 1.429 . S
C3078 C3070 1.574 . S
C3078 H3073 0.949 . S
C3078 C3084 1.368 . S
C3079 C3063 1.349 . S
C3079 H3071 0.950 . S
C3079 C3077 1.327 . S
C3080 C3068 1.349 . S
C3080 H3074 0.950 . S
C3080 C3081 1.327 . S
C3081 H3075 0.950 . S
C3081 C3080 1.327 . S
C3081 C3085 1.429 . S
C3082 C3065 1.574 . S
C3082 H3076 0.949 . S
C3082 C3086 1.368 . S
C3083 C3064 1.429 . S
C3083 C3077 1.429 . S
C3083 C3084 1.523 . S
C3084 C3065 1.368 . S
C3084 C3078 1.368 . S
C3084 C3083 1.523 . S
C3085 C3069 1.429 . S
C3085 C3081 1.429 . S
C3085 C3086 1.523 . S
C3086 C3070 1.368 . S
C3086 C3082 1.368 . S
C3086 C3085 1.523 . S
H3087 C3062 0.950 . S
H3088 C3064 0.950 . S
H3089 C3065 0.949 . S
H3090 C3067 0.950 . S
H3091 C3069 0.950 . S
C3092 C3093 1.349 . S
C3092 C3094 1.327 . S
C3092 H3117 0.950 . S
C3093 C3092 1.349 . S
C3093 C3109 1.349 . S
C3094 C3092 1.327 . S
C3094 C3113 1.429 . S
C3094 H3118 0.950 . S
C3095 C3112 1.574 . S
C3095 C3114 1.368 . S
C3095 H3119 0.949 . S
H3096 C3100 0.949 . S
C3097 C3098 1.349 . S
C3097 C3099 1.327 . S
C3097 H3120 0.950 . S
C3098 C3097 1.349 . S
C3098 C3110 1.349 . S
C3099 C3097 1.327 . S
C3099 C3115 1.429 . S
C3099 H3121 0.950 . S
C3100 H3096 0.949 . S
C3100 C3108 1.574 . S
C3100 C3116 1.368 . S
H3101 C3109 0.950 . S
H3102 C3107 0.950 . S
H3103 C3108 0.949 . S
H3104 C3110 0.950 . S
H3105 C3111 0.950 . S
H3106 C3112 0.949 . S
C3107 H3102 0.950 . S
C3107 C3109 1.327 . S
C3107 C3113 1.429 . S
C3108 C3100 1.574 . S
C3108 H3103 0.949 . S
C3108 C3114 1.368 . S
C3109 C3093 1.349 . S
C3109 H3101 0.950 . S
C3109 C3107 1.327 . S
C3110 C3098 1.349 . S
C3110 H3104 0.950 . S
C3110 C3111 1.327 . S
C3111 H3105 0.950 . S
C3111 C3110 1.327 . S
C3111 C3115 1.429 . S
C3112 C3095 1.574 . S
C3112 H3106 0.949 . S
C3112 C3116 1.368 . S
C3113 C3094 1.429 . S
C3113 C3107 1.429 . S
C3113 C3114 1.523 . S
C3114 C3095 1.368 . S
C3114 C3108 1.368 . S
C3114 C3113 1.523 . S
C3115 C3099 1.429 . S
C3115 C3111 1.429 . S
C3115 C3116 1.523 . S
C3116 C3100 1.368 . S
C3116 C3112 1.368 . S
C3116 C3115 1.523 . S
H3117 C3092 0.950 . S
H3118 C3094 0.950 . S
H3119 C3095 0.949 . S
H3120 C3097 0.950 . S
H3121 C3099 0.950 . S
C3122 C3123 1.349 . S
C3122 C3124 1.327 . S
C3122 H3147 0.950 . S
C3123 C3122 1.349 . S
C3123 C3139 1.349 . S
C3124 C3122 1.327 . S
C3124 C3143 1.429 . S
C3124 H3148 0.950 . S
C3125 C3142 1.574 . S
C3125 C3144 1.368 . S
C3125 H3149 0.949 . S
H3126 C3130 0.949 . S
C3127 C3128 1.349 . S
C3127 C3129 1.327 . S
C3127 H3150 0.950 . S
C3128 C3127 1.349 . S
C3128 C3140 1.349 . S
C3129 C3127 1.327 . S
C3129 C3145 1.429 . S
C3129 H3151 0.950 . S
C3130 H3126 0.949 . S
C3130 C3138 1.574 . S
C3130 C3146 1.368 . S
H3131 C3139 0.950 . S
H3132 C3137 0.950 . S
H3133 C3138 0.949 . S
H3134 C3140 0.950 . S
H3135 C3141 0.950 . S
H3136 C3142 0.949 . S
C3137 H3132 0.950 . S
C3137 C3139 1.327 . S
C3137 C3143 1.429 . S
C3138 C3130 1.574 . S
C3138 H3133 0.949 . S
C3138 C3144 1.368 . S
C3139 C3123 1.349 . S
C3139 H3131 0.950 . S
C3139 C3137 1.327 . S
C3140 C3128 1.349 . S
C3140 H3134 0.950 . S
C3140 C3141 1.327 . S
C3141 H3135 0.950 . S
C3141 C3140 1.327 . S
C3141 C3145 1.429 . S
C3142 C3125 1.574 . S
C3142 H3136 0.949 . S
C3142 C3146 1.368 . S
C3143 C3124 1.429 . S
C3143 C3137 1.429 . S
C3143 C3144 1.523 . S
C3144 C3125 1.368 . S
C3144 C3138 1.368 . S
C3144 C3143 1.523 . S
C3145 C3129 1.429 . S
C3145 C3141 1.429 . S
C3145 C3146 1.523 . S
C3146 C3130 1.368 . S
C3146 C3142 1.368 . S
C3146 C3145 1.523 . S
H3147 C3122 0.950 . S
H3148 C3124 0.950 . S
H3149 C3125 0.949 . S
H3150 C3127 0.950 . S
H3151 C3129 0.950 . S
C3152 C3153 1.349 . S
C3152 C3154 1.327 . S
C3152 H3177 0.950 . S
C3153 C3152 1.349 . S
C3153 C3169 1.351 1_455 S
C3154 C3152 1.327 . S
C3154 C3173 1.429 . S
C3154 H3178 0.950 . S
C3155 C3172 1.574 . S
C3155 C3174 1.368 1_655 S
C3155 H3179 0.949 . S
H3156 C3160 0.949 . S
C3157 C3158 1.331 1_655 S
C3157 C3159 1.329 . S
C3157 H3180 0.972 . S
C3158 C3157 1.331 1_455 S
C3158 C3170 1.349 . S
C3159 C3157 1.329 . S
C3159 C3175 1.400 1_655 S
C3159 H3181 0.976 . S
C3160 H3156 0.949 . S
C3160 C3168 1.574 . S
C3160 C3176 1.368 . S
H3161 C3169 0.948 . S
H3162 C3167 0.963 . S
H3163 C3168 0.949 . S
H3164 C3170 0.950 . S
H3165 C3171 0.950 . S
H3166 C3172 0.949 . S
C3167 H3162 0.963 . S
C3167 C3169 1.324 . S
C3167 C3173 1.419 1_655 S
C3168 C3160 1.574 . S
C3168 H3163 0.949 . S
C3168 C3174 1.368 . S
C3169 C3153 1.351 1_655 S
C3169 H3161 0.948 . S
C3169 C3167 1.324 . S
C3170 C3158 1.349 . S
C3170 H3164 0.950 . S
C3170 C3171 1.327 . S
C3171 H3165 0.950 . S
C3171 C3170 1.327 . S
C3171 C3175 1.429 . S
C3172 C3155 1.574 . S
C3172 H3166 0.949 . S
C3172 C3176 1.368 1_655 S
C3173 C3154 1.429 . S
C3173 C3167 1.419 1_455 S
C3173 C3174 1.523 . S
C3174 C3155 1.368 1_455 S
C3174 C3168 1.368 . S
C3174 C3173 1.523 . S
C3175 C3159 1.400 1_455 S
C3175 C3171 1.429 . S
C3175 C3176 1.523 . S
C3176 C3160 1.368 . S
C3176 C3172 1.368 1_455 S
C3176 C3175 1.523 . S
H3177 C3152 0.950 . S
H3178 C3154 0.950 . S
H3179 C3155 0.949 . S
H3180 C3157 0.972 . S
H3181 C3159 0.976 . S
C3182 C3183 1.349 . S
C3182 C3184 1.327 . S
C3182 H3207 0.950 . S
C3183 C3182 1.349 . S
C3183 C3199 1.349 . S
C3184 C3182 1.327 . S
C3184 C3203 1.429 . S
C3184 H3208 0.950 . S
C3185 C3202 1.574 . S
C3185 C3204 1.368 . S
C3185 H3209 0.949 . S
H3186 C3190 0.949 . S
C3187 C3188 1.349 . S
C3187 C3189 1.327 . S
C3187 H3210 0.950 . S
C3188 C3187 1.349 . S
C3188 C3200 1.349 . S
C3189 C3187 1.327 . S
C3189 C3205 1.429 . S
C3189 H3211 0.950 . S
C3190 H3186 0.949 . S
C3190 C3198 1.574 . S
C3190 C3206 1.368 . S
H3191 C3199 0.950 . S
H3192 C3197 0.950 . S
H3193 C3198 0.949 . S
H3194 C3200 0.950 . S
H3195 C3201 0.950 . S
H3196 C3202 0.949 . S
C3197 H3192 0.950 . S
C3197 C3199 1.327 . S
C3197 C3203 1.429 . S
C3198 C3190 1.574 . S
C3198 H3193 0.949 . S
C3198 C3204 1.368 . S
C3199 C3183 1.349 . S
C3199 H3191 0.950 . S
C3199 C3197 1.327 . S
C3200 C3188 1.349 . S
C3200 H3194 0.950 . S
C3200 C3201 1.327 . S
C3201 H3195 0.950 . S
C3201 C3200 1.327 . S
C3201 C3205 1.429 . S
C3202 C3185 1.574 . S
C3202 H3196 0.949 . S
C3202 C3206 1.368 . S
C3203 C3184 1.429 . S
C3203 C3197 1.429 . S
C3203 C3204 1.523 . S
C3204 C3185 1.368 . S
C3204 C3198 1.368 . S
C3204 C3203 1.523 . S
C3205 C3189 1.429 . S
C3205 C3201 1.429 . S
C3205 C3206 1.523 . S
C3206 C3190 1.368 . S
C3206 C3202 1.368 . S
C3206 C3205 1.523 . S
H3207 C3182 0.950 . S
H3208 C3184 0.950 . S
H3209 C3185 0.949 . S
H3210 C3187 0.950 . S
H3211 C3189 0.950 . S
C3212 C3213 1.349 . S
C3212 C3214 1.327 . S
C3212 H3237 0.950 . S
C3213 C3212 1.349 . S
C3213 C3229 1.349 . S
C3214 C3212 1.327 . S
C3214 C3233 1.429 . S
C3214 H3238 0.950 . S
C3215 C3232 1.574 . S
C3215 C3234 1.368 . S
C3215 H3239 0.949 . S
H3216 C3220 0.949 . S
C3217 C3218 1.349 . S
C3217 C3219 1.327 . S
C3217 H3240 0.950 . S
C3218 C3217 1.349 . S
C3218 C3230 1.349 . S
C3219 C3217 1.327 . S
C3219 C3235 1.429 . S
C3219 H3241 0.950 . S
C3220 H3216 0.949 . S
C3220 C3228 1.574 . S
C3220 C3236 1.368 . S
H3221 C3229 0.950 . S
H3222 C3227 0.950 . S
H3223 C3228 0.949 . S
H3224 C3230 0.950 . S
H3225 C3231 0.950 . S
H3226 C3232 0.949 . S
C3227 H3222 0.950 . S
C3227 C3229 1.327 . S
C3227 C3233 1.429 . S
C3228 C3220 1.574 . S
C3228 H3223 0.949 . S
C3228 C3234 1.368 . S
C3229 C3213 1.349 . S
C3229 H3221 0.950 . S
C3229 C3227 1.327 . S
C3230 C3218 1.349 . S
C3230 H3224 0.950 . S
C3230 C3231 1.327 . S
C3231 H3225 0.950 . S
C3231 C3230 1.327 . S
C3231 C3235 1.429 . S
C3232 C3215 1.574 . S
C3232 H3226 0.949 . S
C3232 C3236 1.368 . S
C3233 C3214 1.429 . S
C3233 C3227 1.429 . S
C3233 C3234 1.523 . S
C3234 C3215 1.368 . S
C3234 C3228 1.368 . S
C3234 C3233 1.523 . S
C3235 C3219 1.429 . S
C3235 C3231 1.429 . S
C3235 C3236 1.523 . S
C3236 C3220 1.368 . S
C3236 C3232 1.368 . S
C3236 C3235 1.523 . S
H3237 C3212 0.950 . S
H3238 C3214 0.950 . S
H3239 C3215 0.949 . S
H3240 C3217 0.950 . S
H3241 C3219 0.950 . S
C3242 C3243 1.349 . S
C3242 C3244 1.327 . S
C3242 H3267 0.950 . S
C3243 C3242 1.349 . S
C3243 C3259 1.349 . S
C3244 C3242 1.327 . S
C3244 C3263 1.429 . S
C3244 H3268 0.950 . S
C3245 C3262 1.574 . S
C3245 C3264 1.368 . S
C3245 H3269 0.949 . S
H3246 C3250 0.949 . S
C3247 C3248 1.349 . S
C3247 C3249 1.327 . S
C3247 H3270 0.950 . S
C3248 C3247 1.349 . S
C3248 C3260 1.349 . S
C3249 C3247 1.327 . S
C3249 C3265 1.429 . S
C3249 H3271 0.950 . S
C3250 H3246 0.949 . S
C3250 C3258 1.574 . S
C3250 C3266 1.368 . S
H3251 C3259 0.950 . S
H3252 C3257 0.950 . S
H3253 C3258 0.949 . S
H3254 C3260 0.950 . S
H3255 C3261 0.950 . S
H3256 C3262 0.949 . S
C3257 H3252 0.950 . S
C3257 C3259 1.327 . S
C3257 C3263 1.429 . S
C3258 C3250 1.574 . S
C3258 H3253 0.949 . S
C3258 C3264 1.368 . S
C3259 C3243 1.349 . S
C3259 H3251 0.950 . S
C3259 C3257 1.327 . S
C3260 C3248 1.349 . S
C3260 H3254 0.950 . S
C3260 C3261 1.327 . S
C3261 H3255 0.950 . S
C3261 C3260 1.327 . S
C3261 C3265 1.429 . S
C3262 C3245 1.574 . S
C3262 H3256 0.949 . S
C3262 C3266 1.368 . S
C3263 C3244 1.429 . S
C3263 C3257 1.429 . S
C3263 C3264 1.523 . S
C3264 C3245 1.368 . S
C3264 C3258 1.368 . S
C3264 C3263 1.523 . S
C3265 C3249 1.429 . S
C3265 C3261 1.429 . S
C3265 C3266 1.523 . S
C3266 C3250 1.368 . S
C3266 C3262 1.368 . S
C3266 C3265 1.523 . S
H3267 C3242 0.950 . S
H3268 C3244 0.950 . S
H3269 C3245 0.949 . S
H3270 C3247 0.950 . S
H3271 C3249 0.950 . S
C3272 C3273 1.349 . S
C3272 C3274 1.327 . S
C3272 H3297 0.950 . S
C3273 C3272 1.349 . S
C3273 C3289 1.349 . S
C3274 C3272 1.327 . S
C3274 C3293 1.429 . S
C3274 H3298 0.969 . S
C3275 C3292 1.574 . S
C3275 C3294 1.368 . S
C3275 H3299 0.949 . S
H3276 C3280 0.949 1_655 S
C3277 C3278 1.349 . S
C3277 C3279 1.327 . S
C3277 H3300 0.950 . S
C3278 C3277 1.349 . S
C3278 C3290 1.350 1_455 S
C3279 C3277 1.327 . S
C3279 C3295 1.429 . S
C3279 H3301 0.950 . S
C3280 H3276 0.949 1_455 S
C3280 C3288 1.574 . S
C3280 C3296 1.368 . S
H3281 C3289 0.950 . S
H3282 C3287 0.950 . S
H3283 C3288 0.928 1_655 S
H3284 C3290 0.949 . S
H3285 C3291 0.930 1_655 S
H3286 C3292 0.949 . S
C3287 H3282 0.950 . S
C3287 C3289 1.327 . S
C3287 C3293 1.429 . S
C3288 C3280 1.574 . S
C3288 H3283 0.928 1_455 S
C3288 C3294 1.368 . S
C3289 C3273 1.349 . S
C3289 H3281 0.950 . S
C3289 C3287 1.327 . S
C3290 C3278 1.350 1_655 S
C3290 H3284 0.949 . S
C3290 C3291 1.330 1_655 S
C3291 H3285 0.930 1_455 S
C3291 C3290 1.330 1_455 S
C3291 C3295 1.447 . S
C3292 C3275 1.574 . S
C3292 H3286 0.949 . S
C3292 C3296 1.368 . S
C3293 C3274 1.429 . S
C3293 C3287 1.429 . S
C3293 C3294 1.523 . S
C3294 C3275 1.368 . S
C3294 C3288 1.368 . S
C3294 C3293 1.523 . S
C3295 C3279 1.429 . S
C3295 C3291 1.447 . S
C3295 C3296 1.523 . S
C3296 C3280 1.368 . S
C3296 C3292 1.368 . S
C3296 C3295 1.523 . S
H3297 C3272 0.950 . S
H3298 C3274 0.969 . S
H3299 C3275 0.949 . S
H3300 C3277 0.950 . S
H3301 C3279 0.950 . S
C3302 C3303 1.349 . S
C3302 C3304 1.327 . S
C3302 H3327 0.950 . S
C3303 C3302 1.349 . S
C3303 C3319 1.349 . S
C3304 C3302 1.327 . S
C3304 C3323 1.429 . S
C3304 H3328 0.950 . S
C3305 C3322 1.574 . S
C3305 C3324 1.368 . S
C3305 H3329 0.949 . S
H3306 C3310 0.949 . S
C3307 C3308 1.349 . S
C3307 C3309 1.327 . S
C3307 H3330 0.950 . S
C3308 C3307 1.349 . S
C3308 C3320 1.349 . S
C3309 C3307 1.327 . S
C3309 C3325 1.429 . S
C3309 H3331 0.950 . S
C3310 H3306 0.949 . S
C3310 C3318 1.574 . S
C3310 C3326 1.368 . S
H3311 C3319 0.950 . S
H3312 C3317 0.950 . S
H3313 C3318 0.949 . S
H3314 C3320 0.950 . S
H3315 C3321 0.950 . S
H3316 C3322 0.949 . S
C3317 H3312 0.950 . S
C3317 C3319 1.327 . S
C3317 C3323 1.429 . S
C3318 C3310 1.574 . S
C3318 H3313 0.949 . S
C3318 C3324 1.368 . S
C3319 C3303 1.349 . S
C3319 H3311 0.950 . S
C3319 C3317 1.327 . S
C3320 C3308 1.349 . S
C3320 H3314 0.950 . S
C3320 C3321 1.327 . S
C3321 H3315 0.950 . S
C3321 C3320 1.327 . S
C3321 C3325 1.429 . S
C3322 C3305 1.574 . S
C3322 H3316 0.949 . S
C3322 C3326 1.368 . S
C3323 C3304 1.429 . S
C3323 C3317 1.429 . S
C3323 C3324 1.523 . S
C3324 C3305 1.368 . S
C3324 C3318 1.368 . S
C3324 C3323 1.523 . S
C3325 C3309 1.429 . S
C3325 C3321 1.429 . S
C3325 C3326 1.523 . S
C3326 C3310 1.368 . S
C3326 C3322 1.368 . S
C3326 C3325 1.523 . S
H3327 C3302 0.950 . S
H3328 C3304 0.950 . S
H3329 C3305 0.949 . S
H3330 C3307 0.950 . S
H3331 C3309 0.950 . S
C3332 C3333 1.349 . S
C3332 C3334 1.327 . S
C3332 H3357 0.950 . S
C3333 C3332 1.349 . S
C3333 C3349 1.349 . S
C3334 C3332 1.327 . S
C3334 C3353 1.429 . S
C3334 H3358 0.950 . S
C3335 C3352 1.574 . S
C3335 C3354 1.368 . S
C3335 H3359 0.949 . S
H3336 C3340 0.949 . S
C3337 C3338 1.349 . S
C3337 C3339 1.327 . S
C3337 H3360 0.950 . S
C3338 C3337 1.349 . S
C3338 C3350 1.349 . S
C3339 C3337 1.327 . S
C3339 C3355 1.429 . S
C3339 H3361 0.950 . S
C3340 H3336 0.949 . S
C3340 C3348 1.574 . S
C3340 C3356 1.368 . S
H3341 C3349 0.950 . S
H3342 C3347 0.950 . S
H3343 C3348 0.949 . S
H3344 C3350 0.950 . S
H3345 C3351 0.950 . S
H3346 C3352 0.949 . S
C3347 H3342 0.950 . S
C3347 C3349 1.327 . S
C3347 C3353 1.429 . S
C3348 C3340 1.574 . S
C3348 H3343 0.949 . S
C3348 C3354 1.368 . S
C3349 C3333 1.349 . S
C3349 H3341 0.950 . S
C3349 C3347 1.327 . S
C3350 C3338 1.349 . S
C3350 H3344 0.950 . S
C3350 C3351 1.327 . S
C3351 H3345 0.950 . S
C3351 C3350 1.327 . S
C3351 C3355 1.429 . S
C3352 C3335 1.574 . S
C3352 H3346 0.949 . S
C3352 C3356 1.368 . S
C3353 C3334 1.429 . S
C3353 C3347 1.429 . S
C3353 C3354 1.523 . S
C3354 C3335 1.368 . S
C3354 C3348 1.368 . S
C3354 C3353 1.523 . S
C3355 C3339 1.429 . S
C3355 C3351 1.429 . S
C3355 C3356 1.523 . S
C3356 C3340 1.368 . S
C3356 C3352 1.368 . S
C3356 C3355 1.523 . S
H3357 C3332 0.950 . S
H3358 C3334 0.950 . S
H3359 C3335 0.949 . S
H3360 C3337 0.950 . S
H3361 C3339 0.950 . S
C3362 C3363 1.349 . S
C3362 C3364 1.327 . S
C3362 H3387 0.950 . S
C3363 C3362 1.349 . S
C3363 C3379 1.349 . S
C3364 C3362 1.327 . S
C3364 C3383 1.429 . S
C3364 H3388 0.950 . S
C3365 C3382 1.574 . S
C3365 C3384 1.368 . S
C3365 H3389 0.949 . S
H3366 C3370 0.949 . S
C3367 C3368 1.349 . S
C3367 C3369 1.327 . S
C3367 H3390 0.950 . S
C3368 C3367 1.349 . S
C3368 C3380 1.349 . S
C3369 C3367 1.327 . S
C3369 C3385 1.429 . S
C3369 H3391 0.950 . S
C3370 H3366 0.949 . S
C3370 C3378 1.574 . S
C3370 C3386 1.368 . S
H3371 C3379 0.950 . S
H3372 C3377 0.950 . S
H3373 C3378 0.949 . S
H3374 C3380 0.950 . S
H3375 C3381 0.950 . S
H3376 C3382 0.949 . S
C3377 H3372 0.950 . S
C3377 C3379 1.327 . S
C3377 C3383 1.429 . S
C3378 C3370 1.574 . S
C3378 H3373 0.949 . S
C3378 C3384 1.368 . S
C3379 C3363 1.349 . S
C3379 H3371 0.950 . S
C3379 C3377 1.327 . S
C3380 C3368 1.349 . S
C3380 H3374 0.950 . S
C3380 C3381 1.327 . S
C3381 H3375 0.950 . S
C3381 C3380 1.327 . S
C3381 C3385 1.429 . S
C3382 C3365 1.574 . S
C3382 H3376 0.949 . S
C3382 C3386 1.368 . S
C3383 C3364 1.429 . S
C3383 C3377 1.429 . S
C3383 C3384 1.523 . S
C3384 C3365 1.368 . S
C3384 C3378 1.368 . S
C3384 C3383 1.523 . S
C3385 C3369 1.429 . S
C3385 C3381 1.429 . S
C3385 C3386 1.523 . S
C3386 C3370 1.368 . S
C3386 C3382 1.368 . S
C3386 C3385 1.523 . S
H3387 C3362 0.950 . S
H3388 C3364 0.950 . S
H3389 C3365 0.949 . S
H3390 C3367 0.950 . S
H3391 C3369 0.950 . S
C3392 C3393 1.349 1_545 S
C3392 C3394 1.327 . S
C3392 H3417 0.950 . S
C3393 C3392 1.349 1_565 S
C3393 C3409 1.349 . S
C3394 C3392 1.327 . S
C3394 C3413 1.429 . S
C3394 H3418 0.950 . S
C3395 C3412 1.574 . S
C3395 C3414 1.368 1_565 S
C3395 H3419 0.949 . S
H3396 C3400 0.949 . S
C3397 C3398 1.349 . S
C3397 C3399 1.327 . S
C3397 H3420 0.934 1_545 S
C3398 C3397 1.349 . S
C3398 C3410 1.349 . S
C3399 C3397 1.327 . S
C3399 C3415 1.429 . S
C3399 H3421 0.950 1_545 S
C3400 H3396 0.949 . S
C3400 C3408 1.574 . S
C3400 C3416 1.368 . S
H3401 C3409 0.950 . S
H3402 C3407 0.950 . S
H3403 C3408 0.949 . S
H3404 C3410 0.950 . S
H3405 C3411 0.950 . S
H3406 C3412 0.949 . S
C3407 H3402 0.950 . S
C3407 C3409 1.327 . S
C3407 C3413 1.429 1_565 S
C3408 C3400 1.574 . S
C3408 H3403 0.949 . S
C3408 C3414 1.368 . S
C3409 C3393 1.349 . S
C3409 H3401 0.950 . S
C3409 C3407 1.327 . S
C3410 C3398 1.349 . S
C3410 H3404 0.950 . S
C3410 C3411 1.327 . S
C3411 H3405 0.950 . S
C3411 C3410 1.327 . S
C3411 C3415 1.429 . S
C3412 C3395 1.574 . S
C3412 H3406 0.949 . S
C3412 C3416 1.368 1_565 S
C3413 C3394 1.429 . S
C3413 C3407 1.429 1_545 S
C3413 C3414 1.523 . S
C3414 C3395 1.368 1_545 S
C3414 C3408 1.368 . S
C3414 C3413 1.523 . S
C3415 C3399 1.429 . S
C3415 C3411 1.429 . S
C3415 C3416 1.523 . S
C3416 C3400 1.368 . S
C3416 C3412 1.368 1_545 S
C3416 C3415 1.523 . S
H3417 C3392 0.950 . S
H3418 C3394 0.950 . S
H3419 C3395 0.949 . S
H3420 C3397 0.934 1_565 S
H3421 C3399 0.950 1_565 S
C3422 C3423 1.349 . S
C3422 C3424 1.327 . S
C3422 H3447 0.950 . S
C3423 C3422 1.349 . S
C3423 C3439 1.349 . S
C3424 C3422 1.327 . S
C3424 C3443 1.429 . S
C3424 H3448 0.950 . S
C3425 C3442 1.574 . S
C3425 C3444 1.368 . S
C3425 H3449 0.949 . S
H3426 C3430 0.949 . S
C3427 C3428 1.349 . S
C3427 C3429 1.327 . S
C3427 H3450 0.950 . S
C3428 C3427 1.349 . S
C3428 C3440 1.349 . S
C3429 C3427 1.327 . S
C3429 C3445 1.429 . S
C3429 H3451 0.950 . S
C3430 H3426 0.949 . S
C3430 C3438 1.574 . S
C3430 C3446 1.368 . S
H3431 C3439 0.950 . S
H3432 C3437 0.950 . S
H3433 C3438 0.949 . S
H3434 C3440 0.950 . S
H3435 C3441 0.950 . S
H3436 C3442 0.949 . S
C3437 H3432 0.950 . S
C3437 C3439 1.327 . S
C3437 C3443 1.429 . S
C3438 C3430 1.574 . S
C3438 H3433 0.949 . S
C3438 C3444 1.368 . S
C3439 C3423 1.349 . S
C3439 H3431 0.950 . S
C3439 C3437 1.327 . S
C3440 C3428 1.349 . S
C3440 H3434 0.950 . S
C3440 C3441 1.327 . S
C3441 H3435 0.950 . S
C3441 C3440 1.327 . S
C3441 C3445 1.429 . S
C3442 C3425 1.574 . S
C3442 H3436 0.949 . S
C3442 C3446 1.368 . S
C3443 C3424 1.429 . S
C3443 C3437 1.429 . S
C3443 C3444 1.523 . S
C3444 C3425 1.368 . S
C3444 C3438 1.368 . S
C3444 C3443 1.523 . S
C3445 C3429 1.429 . S
C3445 C3441 1.429 . S
C3445 C3446 1.523 . S
C3446 C3430 1.368 . S
C3446 C3442 1.368 . S
C3446 C3445 1.523 . S
H3447 C3422 0.950 . S
H3448 C3424 0.950 . S
H3449 C3425 0.949 . S
H3450 C3427 0.950 . S
H3451 C3429 0.950 . S
C3452 C3453 1.349 . S
C3452 C3454 1.327 . S
C3452 H3477 0.950 . S
C3453 C3452 1.349 . S
C3453 C3469 1.349 . S
C3454 C3452 1.327 . S
C3454 C3473 1.429 . S
C3454 H3478 0.950 . S
C3455 C3472 1.574 . S
C3455 C3474 1.368 . S
C3455 H3479 0.949 . S
H3456 C3460 0.949 . S
C3457 C3458 1.349 . S
C3457 C3459 1.327 . S
C3457 H3480 0.950 . S
C3458 C3457 1.349 . S
C3458 C3470 1.349 . S
C3459 C3457 1.327 . S
C3459 C3475 1.429 . S
C3459 H3481 0.950 . S
C3460 H3456 0.949 . S
C3460 C3468 1.574 . S
C3460 C3476 1.368 . S
H3461 C3469 0.950 . S
H3462 C3467 0.950 . S
H3463 C3468 0.949 . S
H3464 C3470 0.950 . S
H3465 C3471 0.950 . S
H3466 C3472 0.949 . S
C3467 H3462 0.950 . S
C3467 C3469 1.327 . S
C3467 C3473 1.429 . S
C3468 C3460 1.574 . S
C3468 H3463 0.949 . S
C3468 C3474 1.368 . S
C3469 C3453 1.349 . S
C3469 H3461 0.950 . S
C3469 C3467 1.327 . S
C3470 C3458 1.349 . S
C3470 H3464 0.950 . S
C3470 C3471 1.327 . S
C3471 H3465 0.950 . S
C3471 C3470 1.327 . S
C3471 C3475 1.429 . S
C3472 C3455 1.574 . S
C3472 H3466 0.949 . S
C3472 C3476 1.368 . S
C3473 C3454 1.429 . S
C3473 C3467 1.429 . S
C3473 C3474 1.523 . S
C3474 C3455 1.368 . S
C3474 C3468 1.368 . S
C3474 C3473 1.523 . S
C3475 C3459 1.429 . S
C3475 C3471 1.429 . S
C3475 C3476 1.523 . S
C3476 C3460 1.368 . S
C3476 C3472 1.368 . S
C3476 C3475 1.523 . S
H3477 C3452 0.950 . S
H3478 C3454 0.950 . S
H3479 C3455 0.949 . S
H3480 C3457 0.950 . S
H3481 C3459 0.950 . S
C3482 C3483 1.349 . S
C3482 C3484 1.327 . S
C3482 H3507 0.950 . S
C3483 C3482 1.349 . S
C3483 C3499 1.349 . S
C3484 C3482 1.327 . S
C3484 C3503 1.429 . S
C3484 H3508 0.950 . S
C3485 C3502 1.574 . S
C3485 C3504 1.368 . S
C3485 H3509 0.949 . S
H3486 C3490 0.949 . S
C3487 C3488 1.349 . S
C3487 C3489 1.327 . S
C3487 H3510 0.950 . S
C3488 C3487 1.349 . S
C3488 C3500 1.349 . S
C3489 C3487 1.327 . S
C3489 C3505 1.429 . S
C3489 H3511 0.950 . S
C3490 H3486 0.949 . S
C3490 C3498 1.574 . S
C3490 C3506 1.368 . S
H3491 C3499 0.950 . S
H3492 C3497 0.950 . S
H3493 C3498 0.949 . S
H3494 C3500 0.950 . S
H3495 C3501 0.950 . S
H3496 C3502 0.949 . S
C3497 H3492 0.950 . S
C3497 C3499 1.327 . S
C3497 C3503 1.429 . S
C3498 C3490 1.574 . S
C3498 H3493 0.949 . S
C3498 C3504 1.368 . S
C3499 C3483 1.349 . S
C3499 H3491 0.950 . S
C3499 C3497 1.327 . S
C3500 C3488 1.349 . S
C3500 H3494 0.950 . S
C3500 C3501 1.327 . S
C3501 H3495 0.950 . S
C3501 C3500 1.327 . S
C3501 C3505 1.429 . S
C3502 C3485 1.574 . S
C3502 H3496 0.949 . S
C3502 C3506 1.368 . S
C3503 C3484 1.429 . S
C3503 C3497 1.429 . S
C3503 C3504 1.523 . S
C3504 C3485 1.368 . S
C3504 C3498 1.368 . S
C3504 C3503 1.523 . S
C3505 C3489 1.429 . S
C3505 C3501 1.429 . S
C3505 C3506 1.523 . S
C3506 C3490 1.368 . S
C3506 C3502 1.368 . S
C3506 C3505 1.523 . S
H3507 C3482 0.950 . S
H3508 C3484 0.950 . S
H3509 C3485 0.949 . S
H3510 C3487 0.950 . S
H3511 C3489 0.950 . S
C3512 C3513 1.349 . S
C3512 C3514 1.327 . S
C3512 H3537 0.950 . S
C3513 C3512 1.349 . S
C3513 C3529 1.349 1_565 S
C3514 C3512 1.327 . S
C3514 C3533 1.412 1_565 S
C3514 H3538 0.950 . S
C3515 C3532 1.574 . S
C3515 C3534 1.368 . S
C3515 H3539 0.949 . S
H3516 C3520 0.949 . S
C3517 C3518 1.349 . S
C3517 C3519 1.327 . S
C3517 H3540 0.950 . S
C3518 C3517 1.349 . S
C3518 C3530 1.349 . S
C3519 C3517 1.327 . S
C3519 C3535 1.429 . S
C3519 H3541 0.950 . S
C3520 H3516 0.949 . S
C3520 C3528 1.574 . S
C3520 C3536 1.368 1_565 S
H3521 C3529 0.950 . S
H3522 C3527 0.950 . S
H3523 C3528 0.949 . S
H3524 C3530 0.950 1_565 S
H3525 C3531 0.950 1_565 S
H3526 C3532 0.949 . S
C3527 H3522 0.950 . S
C3527 C3529 1.327 . S
C3527 C3533 1.439 . S
C3528 C3520 1.574 . S
C3528 H3523 0.949 . S
C3528 C3534 1.368 1_565 S
C3529 C3513 1.349 1_545 S
C3529 H3521 0.950 . S
C3529 C3527 1.327 . S
C3530 C3518 1.349 . S
C3530 H3524 0.950 1_545 S
C3530 C3531 1.327 . S
C3531 H3525 0.950 1_545 S
C3531 C3530 1.327 . S
C3531 C3535 1.429 . S
C3532 C3515 1.574 . S
C3532 H3526 0.949 . S
C3532 C3536 1.368 . S
C3533 C3514 1.412 1_545 S
C3533 C3527 1.439 . S
C3533 C3534 1.529 . S
C3534 C3515 1.368 . S
C3534 C3528 1.368 1_545 S
C3534 C3533 1.529 . S
C3535 C3519 1.429 . S
C3535 C3531 1.429 . S
C3535 C3536 1.523 . S
C3536 C3520 1.368 1_545 S
C3536 C3532 1.368 . S
C3536 C3535 1.523 . S
H3537 C3512 0.950 . S
H3538 C3514 0.950 . S
H3539 C3515 0.949 . S
H3540 C3517 0.950 . S
H3541 C3519 0.950 . S
C3542 C3543 1.349 . S
C3542 C3544 1.327 . S
C3542 H3567 0.950 . S
C3543 C3542 1.349 . S
C3543 C3559 1.349 . S
C3544 C3542 1.327 . S
C3544 C3563 1.429 . S
C3544 H3568 0.950 . S
C3545 C3562 1.574 . S
C3545 C3564 1.368 . S
C3545 H3569 0.949 . S
H3546 C3550 0.949 . S
C3547 C3548 1.349 . S
C3547 C3549 1.327 . S
C3547 H3570 0.950 . S
C3548 C3547 1.349 . S
C3548 C3560 1.349 . S
C3549 C3547 1.327 . S
C3549 C3565 1.429 . S
C3549 H3571 0.950 . S
C3550 H3546 0.949 . S
C3550 C3558 1.574 . S
C3550 C3566 1.368 . S
H3551 C3559 0.950 . S
H3552 C3557 0.950 . S
H3553 C3558 0.949 . S
H3554 C3560 0.950 . S
H3555 C3561 0.950 . S
H3556 C3562 0.949 . S
C3557 H3552 0.950 . S
C3557 C3559 1.327 . S
C3557 C3563 1.429 . S
C3558 C3550 1.574 . S
C3558 H3553 0.949 . S
C3558 C3564 1.368 . S
C3559 C3543 1.349 . S
C3559 H3551 0.950 . S
C3559 C3557 1.327 . S
C3560 C3548 1.349 . S
C3560 H3554 0.950 . S
C3560 C3561 1.327 . S
C3561 H3555 0.950 . S
C3561 C3560 1.327 . S
C3561 C3565 1.429 . S
C3562 C3545 1.574 . S
C3562 H3556 0.949 . S
C3562 C3566 1.368 . S
C3563 C3544 1.429 . S
C3563 C3557 1.429 . S
C3563 C3564 1.523 . S
C3564 C3545 1.368 . S
C3564 C3558 1.368 . S
C3564 C3563 1.523 . S
C3565 C3549 1.429 . S
C3565 C3561 1.429 . S
C3565 C3566 1.523 . S
C3566 C3550 1.368 . S
C3566 C3562 1.368 . S
C3566 C3565 1.523 . S
H3567 C3542 0.950 . S
H3568 C3544 0.950 . S
H3569 C3545 0.949 . S
H3570 C3547 0.950 . S
H3571 C3549 0.950 . S
C3572 C3573 1.349 . S
C3572 C3574 1.327 . S
C3572 H3597 0.950 . S
C3573 C3572 1.349 . S
C3573 C3589 1.349 . S
C3574 C3572 1.327 . S
C3574 C3593 1.429 . S
C3574 H3598 0.950 . S
C3575 C3592 1.574 . S
C3575 C3594 1.368 . S
C3575 H3599 0.949 . S
H3576 C3580 0.949 . S
C3577 C3578 1.349 . S
C3577 C3579 1.327 . S
C3577 H3600 0.950 . S
C3578 C3577 1.349 . S
C3578 C3590 1.349 . S
C3579 C3577 1.327 . S
C3579 C3595 1.429 . S
C3579 H3601 0.950 . S
C3580 H3576 0.949 . S
C3580 C3588 1.574 . S
C3580 C3596 1.368 . S
H3581 C3589 0.950 . S
H3582 C3587 0.950 . S
H3583 C3588 0.949 . S
H3584 C3590 0.950 . S
H3585 C3591 0.950 . S
H3586 C3592 0.949 . S
C3587 H3582 0.950 . S
C3587 C3589 1.327 . S
C3587 C3593 1.429 . S
C3588 C3580 1.574 . S
C3588 H3583 0.949 . S
C3588 C3594 1.368 . S
C3589 C3573 1.349 . S
C3589 H3581 0.950 . S
C3589 C3587 1.327 . S
C3590 C3578 1.349 . S
C3590 H3584 0.950 . S
C3590 C3591 1.327 . S
C3591 H3585 0.950 . S
C3591 C3590 1.327 . S
C3591 C3595 1.429 . S
C3592 C3575 1.574 . S
C3592 H3586 0.949 . S
C3592 C3596 1.368 . S
C3593 C3574 1.429 . S
C3593 C3587 1.429 . S
C3593 C3594 1.523 . S
C3594 C3575 1.368 . S
C3594 C3588 1.368 . S
C3594 C3593 1.523 . S
C3595 C3579 1.429 . S
C3595 C3591 1.429 . S
C3595 C3596 1.523 . S
C3596 C3580 1.368 . S
C3596 C3592 1.368 . S
C3596 C3595 1.523 . S
H3597 C3572 0.950 . S
H3598 C3574 0.950 . S
H3599 C3575 0.949 . S
H3600 C3577 0.950 . S
H3601 C3579 0.950 . S
C3602 C3603 1.349 . S
C3602 C3604 1.327 . S
C3602 H3627 0.950 . S
C3603 C3602 1.349 . S
C3603 C3619 1.349 . S
C3604 C3602 1.327 . S
C3604 C3623 1.429 . S
C3604 H3628 0.950 . S
C3605 C3622 1.574 . S
C3605 C3624 1.368 . S
C3605 H3629 0.949 . S
H3606 C3610 0.949 . S
C3607 C3608 1.349 . S
C3607 C3609 1.327 . S
C3607 H3630 0.950 . S
C3608 C3607 1.349 . S
C3608 C3620 1.349 . S
C3609 C3607 1.327 . S
C3609 C3625 1.429 . S
C3609 H3631 0.950 . S
C3610 H3606 0.949 . S
C3610 C3618 1.574 . S
C3610 C3626 1.368 . S
H3611 C3619 0.950 . S
H3612 C3617 0.950 . S
H3613 C3618 0.949 . S
H3614 C3620 0.950 . S
H3615 C3621 0.950 . S
H3616 C3622 0.949 . S
C3617 H3612 0.950 . S
C3617 C3619 1.327 . S
C3617 C3623 1.429 . S
C3618 C3610 1.574 . S
C3618 H3613 0.949 . S
C3618 C3624 1.368 . S
C3619 C3603 1.349 . S
C3619 H3611 0.950 . S
C3619 C3617 1.327 . S
C3620 C3608 1.349 . S
C3620 H3614 0.950 . S
C3620 C3621 1.327 . S
C3621 H3615 0.950 . S
C3621 C3620 1.327 . S
C3621 C3625 1.429 . S
C3622 C3605 1.574 . S
C3622 H3616 0.949 . S
C3622 C3626 1.368 . S
C3623 C3604 1.429 . S
C3623 C3617 1.429 . S
C3623 C3624 1.523 . S
C3624 C3605 1.368 . S
C3624 C3618 1.368 . S
C3624 C3623 1.523 . S
C3625 C3609 1.429 . S
C3625 C3621 1.429 . S
C3625 C3626 1.523 . S
C3626 C3610 1.368 . S
C3626 C3622 1.368 . S
C3626 C3625 1.523 . S
H3627 C3602 0.950 . S
H3628 C3604 0.950 . S
H3629 C3605 0.949 . S
H3630 C3607 0.950 . S
H3631 C3609 0.950 . S
C3632 C3633 1.349 . S
C3632 C3634 1.327 . S
C3632 H3657 0.950 . S
C3633 C3632 1.349 . S
C3633 C3649 1.349 1_554 S
C3634 C3632 1.327 . S
C3634 C3653 1.429 . S
C3634 H3658 0.950 . S
C3635 C3652 1.574 . S
C3635 C3654 1.368 1_556 S
C3635 H3659 0.949 . S
H3636 C3640 0.949 . S
C3637 C3638 1.349 1_556 S
C3637 C3639 1.327 . S
C3637 H3660 0.950 . S
C3638 C3637 1.349 1_554 S
C3638 C3650 1.349 . S
C3639 C3637 1.327 . S
C3639 C3655 1.429 1_556 S
C3639 H3661 0.950 . S
C3640 H3636 0.949 . S
C3640 C3648 1.574 . S
C3640 C3656 1.368 . S
H3641 C3649 0.950 . S
H3642 C3647 0.950 . S
H3643 C3648 0.949 . S
H3644 C3650 0.950 . S
H3645 C3651 0.950 . S
H3646 C3652 0.949 . S
C3647 H3642 0.950 . S
C3647 C3649 1.327 . S
C3647 C3653 1.429 1_556 S
C3648 C3640 1.574 . S
C3648 H3643 0.949 . S
C3648 C3654 1.368 . S
C3649 C3633 1.349 1_556 S
C3649 H3641 0.950 . S
C3649 C3647 1.327 . S
C3650 C3638 1.349 . S
C3650 H3644 0.950 . S
C3650 C3651 1.327 . S
C3651 H3645 0.950 . S
C3651 C3650 1.327 . S
C3651 C3655 1.429 . S
C3652 C3635 1.574 . S
C3652 H3646 0.949 . S
C3652 C3656 1.368 1_556 S
C3653 C3634 1.429 . S
C3653 C3647 1.429 1_554 S
C3653 C3654 1.523 . S
C3654 C3635 1.368 1_554 S
C3654 C3648 1.368 . S
C3654 C3653 1.523 . S
C3655 C3639 1.429 1_554 S
C3655 C3651 1.429 . S
C3655 C3656 1.523 . S
C3656 C3640 1.368 . S
C3656 C3652 1.368 1_554 S
C3656 C3655 1.523 . S
H3657 C3632 0.950 . S
H3658 C3634 0.950 . S
H3659 C3635 0.949 . S
H3660 C3637 0.950 . S
H3661 C3639 0.950 . S
C3662 C3663 1.349 . S
C3662 C3664 1.327 . S
C3662 H3687 0.950 . S
C3663 C3662 1.349 . S
C3663 C3679 1.349 . S
C3664 C3662 1.327 . S
C3664 C3683 1.429 . S
C3664 H3688 0.950 . S
C3665 C3682 1.574 . S
C3665 C3684 1.368 . S
C3665 H3689 0.949 . S
H3666 C3670 0.949 . S
C3667 C3668 1.349 . S
C3667 C3669 1.327 . S
C3667 H3690 0.950 1_554 S
C3668 C3667 1.349 . S
C3668 C3680 1.349 . S
C3669 C3667 1.327 . S
C3669 C3685 1.429 . S
C3669 H3691 0.901 1_554 S
C3670 H3666 0.949 . S
C3670 C3678 1.574 . S
C3670 C3686 1.368 . S
H3671 C3679 0.950 . S
H3672 C3677 0.950 . S
H3673 C3678 0.949 . S
H3674 C3680 0.950 . S
H3675 C3681 0.950 . S
H3676 C3682 0.941 1_556 S
C3677 H3672 0.950 . S
C3677 C3679 1.327 . S
C3677 C3683 1.429 . S
C3678 C3670 1.574 . S
C3678 H3673 0.949 . S
C3678 C3684 1.368 . S
C3679 C3663 1.349 . S
C3679 H3671 0.950 . S
C3679 C3677 1.327 . S
C3680 C3668 1.349 . S
C3680 H3674 0.950 . S
C3680 C3681 1.327 . S
C3681 H3675 0.950 . S
C3681 C3680 1.327 . S
C3681 C3685 1.429 . S
C3682 C3665 1.574 . S
C3682 H3676 0.941 1_554 S
C3682 C3686 1.368 . S
C3683 C3664 1.429 . S
C3683 C3677 1.429 . S
C3683 C3684 1.523 . S
C3684 C3665 1.368 . S
C3684 C3678 1.368 . S
C3684 C3683 1.523 . S
C3685 C3669 1.429 . S
C3685 C3681 1.429 . S
C3685 C3686 1.523 . S
C3686 C3670 1.368 . S
C3686 C3682 1.368 . S
C3686 C3685 1.523 . S
H3687 C3662 0.950 . S
H3688 C3664 0.950 . S
H3689 C3665 0.949 . S
H3690 C3667 0.950 1_556 S
H3691 C3669 0.901 1_556 S
C3692 C3693 1.349 . S
C3692 C3694 1.327 . S
C3692 H3717 0.950 . S
C3693 C3692 1.349 . S
C3693 C3709 1.349 . S
C3694 C3692 1.327 . S
C3694 C3713 1.429 . S
C3694 H3718 0.950 . S
C3695 C3712 1.574 . S
C3695 C3714 1.368 . S
C3695 H3719 0.949 . S
H3696 C3700 0.949 . S
C3697 C3698 1.349 . S
C3697 C3699 1.327 . S
C3697 H3720 0.950 . S
C3698 C3697 1.349 . S
C3698 C3710 1.349 . S
C3699 C3697 1.327 . S
C3699 C3715 1.429 . S
C3699 H3721 0.950 . S
C3700 H3696 0.949 . S
C3700 C3708 1.574 . S
C3700 C3716 1.368 . S
H3701 C3709 0.950 . S
H3702 C3707 0.950 . S
H3703 C3708 0.949 . S
H3704 C3710 0.950 . S
H3705 C3711 0.950 . S
H3706 C3712 0.949 . S
C3707 H3702 0.950 . S
C3707 C3709 1.327 . S
C3707 C3713 1.429 . S
C3708 C3700 1.574 . S
C3708 H3703 0.949 . S
C3708 C3714 1.368 . S
C3709 C3693 1.349 . S
C3709 H3701 0.950 . S
C3709 C3707 1.327 . S
C3710 C3698 1.349 . S
C3710 H3704 0.950 . S
C3710 C3711 1.327 . S
C3711 H3705 0.950 . S
C3711 C3710 1.327 . S
C3711 C3715 1.429 . S
C3712 C3695 1.574 . S
C3712 H3706 0.949 . S
C3712 C3716 1.368 . S
C3713 C3694 1.429 . S
C3713 C3707 1.429 . S
C3713 C3714 1.523 . S
C3714 C3695 1.368 . S
C3714 C3708 1.368 . S
C3714 C3713 1.523 . S
C3715 C3699 1.429 . S
C3715 C3711 1.429 . S
C3715 C3716 1.523 . S
C3716 C3700 1.368 . S
C3716 C3712 1.368 . S
C3716 C3715 1.523 . S
H3717 C3692 0.950 . S
H3718 C3694 0.950 . S
H3719 C3695 0.949 . S
H3720 C3697 0.950 . S
H3721 C3699 0.950 . S
C3722 C3723 1.349 . S
C3722 C3724 1.327 . S
C3722 H3747 0.950 . S
C3723 C3722 1.349 . S
C3723 C3739 1.349 . S
C3724 C3722 1.327 . S
C3724 C3743 1.429 . S
C3724 H3748 0.950 . S
C3725 C3742 1.574 . S
C3725 C3744 1.368 . S
C3725 H3749 0.949 . S
H3726 C3730 0.949 . S
C3727 C3728 1.349 . S
C3727 C3729 1.327 . S
C3727 H3750 0.950 . S
C3728 C3727 1.349 . S
C3728 C3740 1.349 . S
C3729 C3727 1.327 . S
C3729 C3745 1.429 . S
C3729 H3751 0.950 . S
C3730 H3726 0.949 . S
C3730 C3738 1.574 . S
C3730 C3746 1.368 . S
H3731 C3739 0.950 . S
H3732 C3737 0.950 . S
H3733 C3738 0.949 . S
H3734 C3740 0.950 . S
H3735 C3741 0.950 . S
H3736 C3742 0.949 . S
C3737 H3732 0.950 . S
C3737 C3739 1.327 . S
C3737 C3743 1.429 . S
C3738 C3730 1.574 . S
C3738 H3733 0.949 . S
C3738 C3744 1.368 . S
C3739 C3723 1.349 . S
C3739 H3731 0.950 . S
C3739 C3737 1.327 . S
C3740 C3728 1.349 . S
C3740 H3734 0.950 . S
C3740 C3741 1.327 . S
C3741 H3735 0.950 . S
C3741 C3740 1.327 . S
C3741 C3745 1.429 . S
C3742 C3725 1.574 . S
C3742 H3736 0.949 . S
C3742 C3746 1.368 . S
C3743 C3724 1.429 . S
C3743 C3737 1.429 . S
C3743 C3744 1.523 . S
C3744 C3725 1.368 . S
C3744 C3738 1.368 . S
C3744 C3743 1.523 . S
C3745 C3729 1.429 . S
C3745 C3741 1.429 . S
C3745 C3746 1.523 . S
C3746 C3730 1.368 . S
C3746 C3742 1.368 . S
C3746 C3745 1.523 . S
H3747 C3722 0.950 . S
H3748 C3724 0.950 . S
H3749 C3725 0.949 . S
H3750 C3727 0.950 . S
H3751 C3729 0.950 . S
C3752 C3753 1.349 . S
C3752 C3754 1.327 . S
C3752 H3777 0.950 . S
C3753 C3752 1.349 . S
C3753 C3769 1.349 . S
C3754 C3752 1.327 . S
C3754 C3773 1.429 . S
C3754 H3778 0.950 . S
C3755 C3772 1.574 . S
C3755 C3774 1.368 . S
C3755 H3779 0.949 . S
H3756 C3760 0.949 . S
C3757 C3758 1.349 . S
C3757 C3759 1.327 . S
C3757 H3780 0.950 . S
C3758 C3757 1.349 . S
C3758 C3770 1.349 . S
C3759 C3757 1.327 . S
C3759 C3775 1.429 . S
C3759 H3781 0.950 . S
C3760 H3756 0.949 . S
C3760 C3768 1.574 . S
C3760 C3776 1.368 . S
H3761 C3769 0.950 . S
H3762 C3767 0.950 . S
H3763 C3768 0.949 . S
H3764 C3770 0.950 . S
H3765 C3771 0.950 . S
H3766 C3772 0.949 . S
C3767 H3762 0.950 . S
C3767 C3769 1.327 . S
C3767 C3773 1.429 . S
C3768 C3760 1.574 . S
C3768 H3763 0.949 . S
C3768 C3774 1.368 . S
C3769 C3753 1.349 . S
C3769 H3761 0.950 . S
C3769 C3767 1.327 . S
C3770 C3758 1.349 . S
C3770 H3764 0.950 . S
C3770 C3771 1.327 . S
C3771 H3765 0.950 . S
C3771 C3770 1.327 . S
C3771 C3775 1.429 . S
C3772 C3755 1.574 . S
C3772 H3766 0.949 . S
C3772 C3776 1.368 . S
C3773 C3754 1.429 . S
C3773 C3767 1.429 . S
C3773 C3774 1.523 . S
C3774 C3755 1.368 . S
C3774 C3768 1.368 . S
C3774 C3773 1.523 . S
C3775 C3759 1.429 . S
C3775 C3771 1.429 . S
C3775 C3776 1.523 . S
C3776 C3760 1.368 . S
C3776 C3772 1.368 . S
C3776 C3775 1.523 . S
H3777 C3752 0.950 . S
H3778 C3754 0.950 . S
H3779 C3755 0.949 . S
H3780 C3757 0.950 . S
H3781 C3759 0.950 . S
C3782 C3783 1.349 . S
C3782 C3784 1.327 . S
C3782 H3807 0.950 . S
C3783 C3782 1.349 . S
C3783 C3799 1.349 . S
C3784 C3782 1.327 . S
C3784 C3803 1.429 . S
C3784 H3808 0.950 . S
C3785 C3802 1.574 . S
C3785 C3804 1.368 . S
C3785 H3809 0.949 . S
H3786 C3790 0.949 . S
C3787 C3788 1.349 . S
C3787 C3789 1.327 1_545 S
C3787 H3810 0.950 . S
C3788 C3787 1.349 . S
C3788 C3800 1.349 1_545 S
C3789 C3787 1.327 1_565 S
C3789 C3805 1.429 . S
C3789 H3811 0.947 1_565 S
C3790 H3786 0.949 . S
C3790 C3798 1.574 . S
C3790 C3806 1.368 . S
H3791 C3799 0.950 . S
H3792 C3797 0.950 . S
H3793 C3798 0.949 . S
H3794 C3800 0.950 . S
H3795 C3801 0.950 . S
H3796 C3802 0.949 . S
C3797 H3792 0.950 . S
C3797 C3799 1.327 . S
C3797 C3803 1.429 . S
C3798 C3790 1.574 . S
C3798 H3793 0.949 . S
C3798 C3804 1.368 . S
C3799 C3783 1.349 . S
C3799 H3791 0.950 . S
C3799 C3797 1.327 . S
C3800 C3788 1.349 1_565 S
C3800 H3794 0.950 . S
C3800 C3801 1.327 . S
C3801 H3795 0.950 . S
C3801 C3800 1.327 . S
C3801 C3805 1.429 . S
C3802 C3785 1.574 . S
C3802 H3796 0.949 . S
C3802 C3806 1.368 . S
C3803 C3784 1.429 . S
C3803 C3797 1.429 . S
C3803 C3804 1.523 . S
C3804 C3785 1.368 . S
C3804 C3798 1.368 . S
C3804 C3803 1.523 . S
C3805 C3789 1.429 . S
C3805 C3801 1.429 . S
C3805 C3806 1.523 . S
C3806 C3790 1.368 . S
C3806 C3802 1.368 . S
C3806 C3805 1.523 . S
H3807 C3782 0.950 . S
H3808 C3784 0.950 . S
H3809 C3785 0.949 . S
H3810 C3787 0.950 . S
H3811 C3789 0.947 1_545 S
C3812 C3813 1.349 . S
C3812 C3814 1.327 . S
C3812 H3837 0.950 . S
C3813 C3812 1.349 . S
C3813 C3829 1.349 . S
C3814 C3812 1.327 . S
C3814 C3833 1.429 . S
C3814 H3838 0.950 . S
C3815 C3832 1.574 . S
C3815 C3834 1.368 . S
C3815 H3839 0.949 . S
H3816 C3820 0.949 . S
C3817 C3818 1.349 . S
C3817 C3819 1.327 . S
C3817 H3840 0.950 . S
C3818 C3817 1.349 . S
C3818 C3830 1.349 . S
C3819 C3817 1.327 . S
C3819 C3835 1.429 . S
C3819 H3841 0.950 . S
C3820 H3816 0.949 . S
C3820 C3828 1.574 . S
C3820 C3836 1.368 . S
H3821 C3829 0.950 . S
H3822 C3827 0.950 . S
H3823 C3828 0.949 . S
H3824 C3830 0.950 . S
H3825 C3831 0.950 . S
H3826 C3832 0.949 . S
C3827 H3822 0.950 . S
C3827 C3829 1.327 . S
C3827 C3833 1.429 . S
C3828 C3820 1.574 . S
C3828 H3823 0.949 . S
C3828 C3834 1.368 . S
C3829 C3813 1.349 . S
C3829 H3821 0.950 . S
C3829 C3827 1.327 . S
C3830 C3818 1.349 . S
C3830 H3824 0.950 . S
C3830 C3831 1.327 . S
C3831 H3825 0.950 . S
C3831 C3830 1.327 . S
C3831 C3835 1.429 . S
C3832 C3815 1.574 . S
C3832 H3826 0.949 . S
C3832 C3836 1.368 . S
C3833 C3814 1.429 . S
C3833 C3827 1.429 . S
C3833 C3834 1.523 . S
C3834 C3815 1.368 . S
C3834 C3828 1.368 . S
C3834 C3833 1.523 . S
C3835 C3819 1.429 . S
C3835 C3831 1.429 . S
C3835 C3836 1.523 . S
C3836 C3820 1.368 . S
C3836 C3832 1.368 . S
C3836 C3835 1.523 . S
H3837 C3812 0.950 . S
H3838 C3814 0.950 . S
H3839 C3815 0.949 . S
H3840 C3817 0.950 . S
H3841 C3819 0.950 . S
C3842 C3843 1.349 . S
C3842 C3844 1.327 . S
C3842 H3867 0.950 . S
C3843 C3842 1.349 . S
C3843 C3859 1.349 . S
C3844 C3842 1.327 . S
C3844 C3863 1.429 . S
C3844 H3868 0.950 . S
C3845 C3862 1.574 . S
C3845 C3864 1.368 . S
C3845 H3869 0.949 . S
H3846 C3850 0.949 . S
C3847 C3848 1.349 . S
C3847 C3849 1.327 . S
C3847 H3870 0.950 . S
C3848 C3847 1.349 . S
C3848 C3860 1.349 . S
C3849 C3847 1.327 . S
C3849 C3865 1.429 . S
C3849 H3871 0.950 . S
C3850 H3846 0.949 . S
C3850 C3858 1.574 . S
C3850 C3866 1.368 . S
H3851 C3859 0.950 . S
H3852 C3857 0.950 . S
H3853 C3858 0.949 . S
H3854 C3860 0.950 . S
H3855 C3861 0.950 . S
H3856 C3862 0.949 . S
C3857 H3852 0.950 . S
C3857 C3859 1.327 . S
C3857 C3863 1.429 . S
C3858 C3850 1.574 . S
C3858 H3853 0.949 . S
C3858 C3864 1.368 . S
C3859 C3843 1.349 . S
C3859 H3851 0.950 . S
C3859 C3857 1.327 . S
C3860 C3848 1.349 . S
C3860 H3854 0.950 . S
C3860 C3861 1.327 . S
C3861 H3855 0.950 . S
C3861 C3860 1.327 . S
C3861 C3865 1.429 . S
C3862 C3845 1.574 . S
C3862 H3856 0.949 . S
C3862 C3866 1.368 . S
C3863 C3844 1.429 . S
C3863 C3857 1.429 . S
C3863 C3864 1.523 . S
C3864 C3845 1.368 . S
C3864 C3858 1.368 . S
C3864 C3863 1.523 . S
C3865 C3849 1.429 . S
C3865 C3861 1.429 . S
C3865 C3866 1.523 . S
C3866 C3850 1.368 . S
C3866 C3862 1.368 . S
C3866 C3865 1.523 . S
H3867 C3842 0.950 . S
H3868 C3844 0.950 . S
H3869 C3845 0.949 . S
H3870 C3847 0.950 . S
H3871 C3849 0.950 . S
C3872 C3873 1.349 . S
C3872 C3874 1.327 . S
C3872 H3897 0.950 . S
C3873 C3872 1.349 . S
C3873 C3889 1.349 . S
C3874 C3872 1.327 . S
C3874 C3893 1.429 . S
C3874 H3898 0.950 . S
C3875 C3892 1.574 . S
C3875 C3894 1.368 . S
C3875 H3899 0.949 . S
H3876 C3880 0.949 . S
C3877 C3878 1.349 . S
C3877 C3879 1.327 . S
C3877 H3900 0.950 . S
C3878 C3877 1.349 . S
C3878 C3890 1.349 . S
C3879 C3877 1.327 . S
C3879 C3895 1.429 . S
C3879 H3901 0.950 . S
C3880 H3876 0.949 . S
C3880 C3888 1.574 . S
C3880 C3896 1.368 . S
H3881 C3889 0.950 . S
H3882 C3887 0.950 . S
H3883 C3888 0.949 . S
H3884 C3890 0.950 . S
H3885 C3891 0.950 . S
H3886 C3892 0.949 . S
C3887 H3882 0.950 . S
C3887 C3889 1.327 . S
C3887 C3893 1.429 . S
C3888 C3880 1.574 . S
C3888 H3883 0.949 . S
C3888 C3894 1.368 . S
C3889 C3873 1.349 . S
C3889 H3881 0.950 . S
C3889 C3887 1.327 . S
C3890 C3878 1.349 . S
C3890 H3884 0.950 . S
C3890 C3891 1.327 . S
C3891 H3885 0.950 . S
C3891 C3890 1.327 . S
C3891 C3895 1.429 . S
C3892 C3875 1.574 . S
C3892 H3886 0.949 . S
C3892 C3896 1.368 . S
C3893 C3874 1.429 . S
C3893 C3887 1.429 . S
C3893 C3894 1.523 . S
C3894 C3875 1.368 . S
C3894 C3888 1.368 . S
C3894 C3893 1.523 . S
C3895 C3879 1.429 . S
C3895 C3891 1.429 . S
C3895 C3896 1.523 . S
C3896 C3880 1.368 . S
C3896 C3892 1.368 . S
C3896 C3895 1.523 . S
H3897 C3872 0.950 . S
H3898 C3874 0.950 . S
H3899 C3875 0.949 . S
H3900 C3877 0.950 . S
H3901 C3879 0.950 . S
C3902 C3903 1.349 . S
C3902 C3904 1.327 . S
C3902 H3927 0.950 . S
C3903 C3902 1.349 . S
C3903 C3919 1.349 . S
C3904 C3902 1.327 . S
C3904 C3923 1.429 . S
C3904 H3928 0.950 . S
C3905 C3922 1.574 . S
C3905 C3924 1.368 . S
C3905 H3929 0.949 . S
H3906 C3910 0.949 . S
C3907 C3908 1.349 . S
C3907 C3909 1.327 . S
C3907 H3930 0.950 . S
C3908 C3907 1.349 . S
C3908 C3920 1.349 . S
C3909 C3907 1.327 . S
C3909 C3925 1.429 . S
C3909 H3931 0.950 . S
C3910 H3906 0.949 . S
C3910 C3918 1.574 . S
C3910 C3926 1.368 . S
H3911 C3919 0.950 . S
H3912 C3917 0.950 . S
H3913 C3918 0.949 . S
H3914 C3920 0.950 . S
H3915 C3921 0.950 . S
H3916 C3922 0.949 . S
C3917 H3912 0.950 . S
C3917 C3919 1.327 . S
C3917 C3923 1.429 . S
C3918 C3910 1.574 . S
C3918 H3913 0.949 . S
C3918 C3924 1.368 . S
C3919 C3903 1.349 . S
C3919 H3911 0.950 . S
C3919 C3917 1.327 . S
C3920 C3908 1.349 . S
C3920 H3914 0.950 . S
C3920 C3921 1.327 . S
C3921 H3915 0.950 . S
C3921 C3920 1.327 . S
C3921 C3925 1.429 . S
C3922 C3905 1.574 . S
C3922 H3916 0.949 . S
C3922 C3926 1.368 . S
C3923 C3904 1.429 . S
C3923 C3917 1.429 . S
C3923 C3924 1.523 . S
C3924 C3905 1.368 . S
C3924 C3918 1.368 . S
C3924 C3923 1.523 . S
C3925 C3909 1.429 . S
C3925 C3921 1.429 . S
C3925 C3926 1.523 . S
C3926 C3910 1.368 . S
C3926 C3922 1.368 . S
C3926 C3925 1.523 . S
H3927 C3902 0.950 . S
H3928 C3904 0.950 . S
H3929 C3905 0.949 . S
H3930 C3907 0.950 . S
H3931 C3909 0.950 . S
C3932 C3933 1.349 . S
C3932 C3934 1.327 . S
C3932 H3957 0.950 . S
C3933 C3932 1.349 . S
C3933 C3949 1.349 . S
C3934 C3932 1.327 . S
C3934 C3953 1.429 . S
C3934 H3958 0.950 . S
C3935 C3952 1.574 . S
C3935 C3954 1.368 . S
C3935 H3959 0.949 1_455 S
H3936 C3940 0.949 . S
C3937 C3938 1.349 1_655 S
C3937 C3939 1.335 . S
C3937 H3960 0.950 . S
C3938 C3937 1.349 1_455 S
C3938 C3950 1.349 1_556 S
C3939 C3937 1.335 . S
C3939 C3955 1.412 1_655 S
C3939 H3961 0.960 . S
C3940 H3936 0.949 . S
C3940 C3948 1.574 . S
C3940 C3956 1.368 . S
H3941 C3949 0.950 . S
H3942 C3947 0.972 . S
H3943 C3948 0.949 . S
H3944 C3950 0.950 . S
H3945 C3951 0.947 . S
H3946 C3952 0.949 1_655 S
C3947 H3942 0.972 . S
C3947 C3949 1.327 . S
C3947 C3953 1.429 . S
C3948 C3940 1.574 . S
C3948 H3943 0.949 . S
C3948 C3954 1.368 . S
C3949 C3933 1.349 . S
C3949 H3941 0.950 . S
C3949 C3947 1.327 . S
C3950 C3938 1.349 1_554 S
C3950 H3944 0.950 . S
C3950 C3951 1.326 . S
C3951 H3945 0.947 . S
C3951 C3950 1.326 . S
C3951 C3955 1.432 1_554 S
C3952 C3935 1.574 . S
C3952 H3946 0.949 1_455 S
C3952 C3956 1.368 . S
C3953 C3934 1.429 . S
C3953 C3947 1.429 . S
C3953 C3954 1.523 . S
C3954 C3935 1.368 . S
C3954 C3948 1.368 . S
C3954 C3953 1.523 . S
C3955 C3939 1.412 1_455 S
C3955 C3951 1.432 1_556 S
C3955 C3956 1.523 . S
C3956 C3940 1.368 . S
C3956 C3952 1.368 . S
C3956 C3955 1.523 . S
H3957 C3932 0.950 . S
H3958 C3934 0.950 . S
H3959 C3935 0.949 1_655 S
H3960 C3937 0.950 . S
H3961 C3939 0.960 . S
C3962 C3963 1.349 . S
C3962 C3964 1.327 . S
C3962 H3987 0.950 . S
C3963 C3962 1.349 . S
C3963 C3979 1.349 . S
C3964 C3962 1.327 . S
C3964 C3983 1.429 . S
C3964 H3988 0.950 . S
C3965 C3982 1.574 . S
C3965 C3984 1.368 . S
C3965 H3989 0.949 . S
H3966 C3970 0.949 . S
C3967 C3968 1.349 . S
C3967 C3969 1.327 . S
C3967 H3990 0.950 . S
C3968 C3967 1.349 . S
C3968 C3980 1.349 . S
C3969 C3967 1.327 . S
C3969 C3985 1.429 . S
C3969 H3991 0.950 . S
C3970 H3966 0.949 . S
C3970 C3978 1.574 . S
C3970 C3986 1.368 . S
H3971 C3979 0.950 . S
H3972 C3977 0.950 . S
H3973 C3978 0.949 . S
H3974 C3980 0.950 . S
H3975 C3981 0.950 . S
H3976 C3982 0.949 . S
C3977 H3972 0.950 . S
C3977 C3979 1.327 . S
C3977 C3983 1.429 . S
C3978 C3970 1.574 . S
C3978 H3973 0.949 . S
C3978 C3984 1.368 . S
C3979 C3963 1.349 . S
C3979 H3971 0.950 . S
C3979 C3977 1.327 . S
C3980 C3968 1.349 . S
C3980 H3974 0.950 . S
C3980 C3981 1.327 . S
C3981 H3975 0.950 . S
C3981 C3980 1.327 . S
C3981 C3985 1.429 . S
C3982 C3965 1.574 . S
C3982 H3976 0.949 . S
C3982 C3986 1.368 . S
C3983 C3964 1.429 . S
C3983 C3977 1.429 . S
C3983 C3984 1.523 . S
C3984 C3965 1.368 . S
C3984 C3978 1.368 . S
C3984 C3983 1.523 . S
C3985 C3969 1.429 . S
C3985 C3981 1.429 . S
C3985 C3986 1.523 . S
C3986 C3970 1.368 . S
C3986 C3982 1.368 . S
C3986 C3985 1.523 . S
H3987 C3962 0.950 . S
H3988 C3964 0.950 . S
H3989 C3965 0.949 . S
H3990 C3967 0.950 . S
H3991 C3969 0.950 . S
C3992 C3993 1.349 . S
C3992 C3994 1.327 . S
C3992 H4017 0.950 . S
C3993 C3992 1.349 . S
C3993 C4009 1.349 . S
C3994 C3992 1.327 . S
C3994 C4013 1.429 . S
C3994 H4018 0.950 . S
C3995 C4012 1.574 . S
C3995 C4014 1.368 . S
C3995 H4019 0.949 . S
H3996 C4000 0.949 . S
C3997 C3998 1.349 . S
C3997 C3999 1.327 . S
C3997 H4020 0.950 . S
C3998 C3997 1.349 . S
C3998 C4010 1.349 . S
C3999 C3997 1.327 . S
C3999 C4015 1.429 . S
C3999 H4021 0.950 . S
C4000 H3996 0.949 . S
C4000 C4008 1.574 . S
C4000 C4016 1.368 . S
H4001 C4009 0.950 . S
H4002 C4007 0.950 . S
H4003 C4008 0.949 . S
H4004 C4010 0.950 . S
H4005 C4011 0.950 . S
H4006 C4012 0.949 . S
C4007 H4002 0.950 . S
C4007 C4009 1.327 . S
C4007 C4013 1.429 . S
C4008 C4000 1.574 . S
C4008 H4003 0.949 . S
C4008 C4014 1.368 . S
C4009 C3993 1.349 . S
C4009 H4001 0.950 . S
C4009 C4007 1.327 . S
C4010 C3998 1.349 . S
C4010 H4004 0.950 . S
C4010 C4011 1.327 . S
C4011 H4005 0.950 . S
C4011 C4010 1.327 . S
C4011 C4015 1.429 . S
C4012 C3995 1.574 . S
C4012 H4006 0.949 . S
C4012 C4016 1.368 . S
C4013 C3994 1.429 . S
C4013 C4007 1.429 . S
C4013 C4014 1.523 . S
C4014 C3995 1.368 . S
C4014 C4008 1.368 . S
C4014 C4013 1.523 . S
C4015 C3999 1.429 . S
C4015 C4011 1.429 . S
C4015 C4016 1.523 . S
C4016 C4000 1.368 . S
C4016 C4012 1.368 . S
C4016 C4015 1.523 . S
H4017 C3992 0.950 . S
H4018 C3994 0.950 . S
H4019 C3995 0.949 . S
H4020 C3997 0.950 . S
H4021 C3999 0.950 . S
C4022 C4023 1.349 . S
C4022 C4024 1.327 . S
C4022 H4047 0.950 . S
C4023 C4022 1.349 . S
C4023 C4039 1.349 . S
C4024 C4022 1.327 . S
C4024 C4043 1.429 . S
C4024 H4048 0.950 . S
C4025 C4042 1.574 . S
C4025 C4044 1.368 . S
C4025 H4049 0.949 . S
H4026 C4030 0.949 . S
C4027 C4028 1.349 . S
C4027 C4029 1.327 . S
C4027 H4050 0.950 . S
C4028 C4027 1.349 . S
C4028 C4040 1.349 . S
C4029 C4027 1.327 . S
C4029 C4045 1.429 . S
C4029 H4051 0.950 . S
C4030 H4026 0.949 . S
C4030 C4038 1.574 . S
C4030 C4046 1.368 . S
H4031 C4039 0.950 . S
H4032 C4037 0.950 . S
H4033 C4038 0.949 . S
H4034 C4040 0.950 . S
H4035 C4041 0.950 . S
H4036 C4042 0.949 . S
C4037 H4032 0.950 . S
C4037 C4039 1.327 . S
C4037 C4043 1.429 . S
C4038 C4030 1.574 . S
C4038 H4033 0.949 . S
C4038 C4044 1.368 . S
C4039 C4023 1.349 . S
C4039 H4031 0.950 . S
C4039 C4037 1.327 . S
C4040 C4028 1.349 . S
C4040 H4034 0.950 . S
C4040 C4041 1.327 . S
C4041 H4035 0.950 . S
C4041 C4040 1.327 . S
C4041 C4045 1.429 . S
C4042 C4025 1.574 . S
C4042 H4036 0.949 . S
C4042 C4046 1.368 . S
C4043 C4024 1.429 . S
C4043 C4037 1.429 . S
C4043 C4044 1.523 . S
C4044 C4025 1.368 . S
C4044 C4038 1.368 . S
C4044 C4043 1.523 . S
C4045 C4029 1.429 . S
C4045 C4041 1.429 . S
C4045 C4046 1.523 . S
C4046 C4030 1.368 . S
C4046 C4042 1.368 . S
C4046 C4045 1.523 . S
H4047 C4022 0.950 . S
H4048 C4024 0.950 . S
H4049 C4025 0.949 . S
H4050 C4027 0.950 . S
H4051 C4029 0.950 . S
C4052 C4053 1.349 . S
C4052 C4054 1.327 . S
C4052 H4077 0.950 . S
C4053 C4052 1.349 . S
C4053 C4069 1.349 1_655 S
C4054 C4052 1.327 . S
C4054 C4073 1.429 . S
C4054 H4078 0.950 . S
C4055 C4072 1.574 . S
C4055 C4074 1.368 1_455 S
C4055 H4079 0.949 . S
H4056 C4060 0.949 . S
C4057 C4058 1.349 . S
C4057 C4059 1.327 . S
C4057 H4080 0.950 . S
C4058 C4057 1.349 . S
C4058 C4070 1.349 1_455 S
C4059 C4057 1.327 . S
C4059 C4075 1.429 1_455 S
C4059 H4081 0.950 . S
C4060 H4056 0.949 . S
C4060 C4068 1.574 . S
C4060 C4076 1.368 . S
H4061 C4069 0.950 . S
H4062 C4067 0.950 . S
H4063 C4068 0.949 . S
H4064 C4070 0.950 . S
H4065 C4071 0.950 . S
H4066 C4072 0.949 . S
C4067 H4062 0.950 . S
C4067 C4069 1.327 . S
C4067 C4073 1.429 1_455 S
C4068 C4060 1.574 . S
C4068 H4063 0.949 . S
C4068 C4074 1.368 . S
C4069 C4053 1.349 1_455 S
C4069 H4061 0.950 . S
C4069 C4067 1.327 . S
C4070 C4058 1.349 1_655 S
C4070 H4064 0.950 . S
C4070 C4071 1.327 . S
C4071 H4065 0.950 . S
C4071 C4070 1.327 . S
C4071 C4075 1.429 . S
C4072 C4055 1.574 . S
C4072 H4066 0.949 . S
C4072 C4076 1.368 1_455 S
C4073 C4054 1.429 . S
C4073 C4067 1.429 1_655 S
C4073 C4074 1.523 . S
C4074 C4055 1.368 1_655 S
C4074 C4068 1.368 . S
C4074 C4073 1.523 . S
C4075 C4059 1.429 1_655 S
C4075 C4071 1.429 . S
C4075 C4076 1.523 . S
C4076 C4060 1.368 . S
C4076 C4072 1.368 1_655 S
C4076 C4075 1.523 . S
H4077 C4052 0.950 . S
H4078 C4054 0.950 . S
H4079 C4055 0.949 . S
H4080 C4057 0.950 . S
H4081 C4059 0.950 . S
C4082 C4083 1.349 . S
C4082 C4084 1.327 . S
C4082 H4107 0.950 . S
C4083 C4082 1.349 . S
C4083 C4099 1.349 . S
C4084 C4082 1.327 . S
C4084 C4103 1.429 . S
C4084 H4108 0.950 . S
C4085 C4102 1.574 . S
C4085 C4104 1.368 . S
C4085 H4109 0.949 . S
H4086 C4090 0.949 . S
C4087 C4088 1.349 . S
C4087 C4089 1.327 . S
C4087 H4110 0.950 . S
C4088 C4087 1.349 . S
C4088 C4100 1.349 . S
C4089 C4087 1.327 . S
C4089 C4105 1.429 . S
C4089 H4111 0.950 . S
C4090 H4086 0.949 . S
C4090 C4098 1.574 . S
C4090 C4106 1.368 . S
H4091 C4099 0.950 . S
H4092 C4097 0.950 . S
H4093 C4098 0.949 . S
H4094 C4100 0.950 . S
H4095 C4101 0.950 . S
H4096 C4102 0.949 . S
C4097 H4092 0.950 . S
C4097 C4099 1.327 . S
C4097 C4103 1.429 . S
C4098 C4090 1.574 . S
C4098 H4093 0.949 . S
C4098 C4104 1.368 . S
C4099 C4083 1.349 . S
C4099 H4091 0.950 . S
C4099 C4097 1.327 . S
C4100 C4088 1.349 . S
C4100 H4094 0.950 . S
C4100 C4101 1.327 . S
C4101 H4095 0.950 . S
C4101 C4100 1.327 . S
C4101 C4105 1.429 . S
C4102 C4085 1.574 . S
C4102 H4096 0.949 . S
C4102 C4106 1.368 . S
C4103 C4084 1.429 . S
C4103 C4097 1.429 . S
C4103 C4104 1.523 . S
C4104 C4085 1.368 . S
C4104 C4098 1.368 . S
C4104 C4103 1.523 . S
C4105 C4089 1.429 . S
C4105 C4101 1.429 . S
C4105 C4106 1.523 . S
C4106 C4090 1.368 . S
C4106 C4102 1.368 . S
C4106 C4105 1.523 . S
H4107 C4082 0.950 . S
H4108 C4084 0.950 . S
H4109 C4085 0.949 . S
H4110 C4087 0.950 . S
H4111 C4089 0.950 . S
C4112 C4113 1.349 . S
C4112 C4114 1.327 . S
C4112 H4137 0.950 . S
C4113 C4112 1.349 . S
C4113 C4129 1.349 . S
C4114 C4112 1.327 . S
C4114 C4133 1.429 . S
C4114 H4138 0.950 . S
C4115 C4132 1.574 . S
C4115 C4134 1.368 . S
C4115 H4139 0.949 . S
H4116 C4120 0.949 . S
C4117 C4118 1.349 . S
C4117 C4119 1.327 . S
C4117 H4140 0.950 . S
C4118 C4117 1.349 . S
C4118 C4130 1.349 . S
C4119 C4117 1.327 . S
C4119 C4135 1.429 . S
C4119 H4141 0.950 . S
C4120 H4116 0.949 . S
C4120 C4128 1.574 . S
C4120 C4136 1.368 . S
H4121 C4129 0.950 . S
H4122 C4127 0.950 . S
H4123 C4128 0.949 . S
H4124 C4130 0.950 . S
H4125 C4131 0.950 . S
H4126 C4132 0.949 . S
C4127 H4122 0.950 . S
C4127 C4129 1.327 . S
C4127 C4133 1.429 . S
C4128 C4120 1.574 . S
C4128 H4123 0.949 . S
C4128 C4134 1.368 . S
C4129 C4113 1.349 . S
C4129 H4121 0.950 . S
C4129 C4127 1.327 . S
C4130 C4118 1.349 . S
C4130 H4124 0.950 . S
C4130 C4131 1.327 . S
C4131 H4125 0.950 . S
C4131 C4130 1.327 . S
C4131 C4135 1.429 . S
C4132 C4115 1.574 . S
C4132 H4126 0.949 . S
C4132 C4136 1.368 . S
C4133 C4114 1.429 . S
C4133 C4127 1.429 . S
C4133 C4134 1.523 . S
C4134 C4115 1.368 . S
C4134 C4128 1.368 . S
C4134 C4133 1.523 . S
C4135 C4119 1.429 . S
C4135 C4131 1.429 . S
C4135 C4136 1.523 . S
C4136 C4120 1.368 . S
C4136 C4132 1.368 . S
C4136 C4135 1.523 . S
H4137 C4112 0.950 . S
H4138 C4114 0.950 . S
H4139 C4115 0.949 . S
H4140 C4117 0.950 . S
H4141 C4119 0.950 . S
C4142 C4143 1.349 . S
C4142 C4144 1.327 . S
C4142 H4167 0.950 . S
C4143 C4142 1.349 . S
C4143 C4159 1.349 . S
C4144 C4142 1.327 . S
C4144 C4163 1.429 . S
C4144 H4168 0.950 . S
C4145 C4162 1.574 . S
C4145 C4164 1.368 . S
C4145 H4169 0.949 . S
H4146 C4150 0.949 . S
C4147 C4148 1.349 . S
C4147 C4149 1.327 . S
C4147 H4170 0.950 . S
C4148 C4147 1.349 . S
C4148 C4160 1.349 . S
C4149 C4147 1.327 . S
C4149 C4165 1.429 . S
C4149 H4171 0.950 . S
C4150 H4146 0.949 . S
C4150 C4158 1.574 . S
C4150 C4166 1.368 . S
H4151 C4159 0.950 . S
H4152 C4157 0.950 . S
H4153 C4158 0.949 . S
H4154 C4160 0.950 . S
H4155 C4161 0.950 . S
H4156 C4162 0.949 . S
C4157 H4152 0.950 . S
C4157 C4159 1.327 . S
C4157 C4163 1.429 . S
C4158 C4150 1.574 . S
C4158 H4153 0.949 . S
C4158 C4164 1.368 . S
C4159 C4143 1.349 . S
C4159 H4151 0.950 . S
C4159 C4157 1.327 . S
C4160 C4148 1.349 . S
C4160 H4154 0.950 . S
C4160 C4161 1.327 . S
C4161 H4155 0.950 . S
C4161 C4160 1.327 . S
C4161 C4165 1.429 . S
C4162 C4145 1.574 . S
C4162 H4156 0.949 . S
C4162 C4166 1.368 . S
C4163 C4144 1.429 . S
C4163 C4157 1.429 . S
C4163 C4164 1.523 . S
C4164 C4145 1.368 . S
C4164 C4158 1.368 . S
C4164 C4163 1.523 . S
C4165 C4149 1.429 . S
C4165 C4161 1.429 . S
C4165 C4166 1.523 . S
C4166 C4150 1.368 . S
C4166 C4162 1.368 . S
C4166 C4165 1.523 . S
H4167 C4142 0.950 . S
H4168 C4144 0.950 . S
H4169 C4145 0.949 . S
H4170 C4147 0.950 . S
H4171 C4149 0.950 . S
C4172 C4173 1.349 . S
C4172 C4174 1.327 . S
C4172 H4197 0.950 . S
C4173 C4172 1.349 . S
C4173 C4189 1.349 . S
C4174 C4172 1.327 . S
C4174 C4193 1.429 . S
C4174 H4198 0.950 . S
C4175 C4192 1.574 . S
C4175 C4194 1.368 . S
C4175 H4199 0.949 . S
H4176 C4180 0.949 . S
C4177 C4178 1.349 . S
C4177 C4179 1.327 . S
C4177 H4200 0.950 . S
C4178 C4177 1.349 . S
C4178 C4190 1.349 . S
C4179 C4177 1.327 . S
C4179 C4195 1.429 . S
C4179 H4201 0.950 . S
C4180 H4176 0.949 . S
C4180 C4188 1.574 . S
C4180 C4196 1.368 . S
H4181 C4189 0.950 . S
H4182 C4187 0.950 . S
H4183 C4188 0.949 . S
H4184 C4190 0.950 . S
H4185 C4191 0.950 . S
H4186 C4192 0.949 . S
C4187 H4182 0.950 . S
C4187 C4189 1.327 . S
C4187 C4193 1.429 . S
C4188 C4180 1.574 . S
C4188 H4183 0.949 . S
C4188 C4194 1.368 . S
C4189 C4173 1.349 . S
C4189 H4181 0.950 . S
C4189 C4187 1.327 . S
C4190 C4178 1.349 . S
C4190 H4184 0.950 . S
C4190 C4191 1.327 . S
C4191 H4185 0.950 . S
C4191 C4190 1.327 . S
C4191 C4195 1.429 . S
C4192 C4175 1.574 . S
C4192 H4186 0.949 . S
C4192 C4196 1.368 . S
C4193 C4174 1.429 . S
C4193 C4187 1.429 . S
C4193 C4194 1.523 . S
C4194 C4175 1.368 . S
C4194 C4188 1.368 . S
C4194 C4193 1.523 . S
C4195 C4179 1.429 . S
C4195 C4191 1.429 . S
C4195 C4196 1.523 . S
C4196 C4180 1.368 . S
C4196 C4192 1.368 . S
C4196 C4195 1.523 . S
H4197 C4172 0.950 . S
H4198 C4174 0.950 . S
H4199 C4175 0.949 . S
H4200 C4177 0.950 . S
H4201 C4179 0.950 . S
C4202 C4203 1.349 . S
C4202 C4204 1.327 . S
C4202 H4227 0.950 . S
C4203 C4202 1.349 . S
C4203 C4219 1.349 . S
C4204 C4202 1.327 . S
C4204 C4223 1.429 . S
C4204 H4228 0.950 . S
C4205 C4222 1.574 . S
C4205 C4224 1.368 . S
C4205 H4229 0.949 . S
H4206 C4210 0.949 . S
C4207 C4208 1.349 . S
C4207 C4209 1.327 . S
C4207 H4230 0.950 . S
C4208 C4207 1.349 . S
C4208 C4220 1.349 . S
C4209 C4207 1.327 . S
C4209 C4225 1.429 . S
C4209 H4231 0.950 . S
C4210 H4206 0.949 . S
C4210 C4218 1.574 . S
C4210 C4226 1.368 . S
H4211 C4219 0.950 . S
H4212 C4217 0.950 . S
H4213 C4218 0.949 . S
H4214 C4220 0.950 . S
H4215 C4221 0.950 . S
H4216 C4222 0.949 . S
C4217 H4212 0.950 . S
C4217 C4219 1.327 . S
C4217 C4223 1.429 . S
C4218 C4210 1.574 . S
C4218 H4213 0.949 . S
C4218 C4224 1.368 . S
C4219 C4203 1.349 . S
C4219 H4211 0.950 . S
C4219 C4217 1.327 . S
C4220 C4208 1.349 . S
C4220 H4214 0.950 . S
C4220 C4221 1.327 . S
C4221 H4215 0.950 . S
C4221 C4220 1.327 . S
C4221 C4225 1.429 . S
C4222 C4205 1.574 . S
C4222 H4216 0.949 . S
C4222 C4226 1.368 . S
C4223 C4204 1.429 . S
C4223 C4217 1.429 . S
C4223 C4224 1.523 . S
C4224 C4205 1.368 . S
C4224 C4218 1.368 . S
C4224 C4223 1.523 . S
C4225 C4209 1.429 . S
C4225 C4221 1.429 . S
C4225 C4226 1.523 . S
C4226 C4210 1.368 . S
C4226 C4222 1.368 . S
C4226 C4225 1.523 . S
H4227 C4202 0.950 . S
H4228 C4204 0.950 . S
H4229 C4205 0.949 . S
H4230 C4207 0.950 . S
H4231 C4209 0.950 . S
C4232 C4233 1.349 . S
C4232 C4234 1.327 . S
C4232 H4257 0.950 . S
C4233 C4232 1.349 . S
C4233 C4249 1.349 . S
C4234 C4232 1.327 . S
C4234 C4253 1.429 . S
C4234 H4258 0.950 . S
C4235 C4252 1.574 . S
C4235 C4254 1.368 . S
C4235 H4259 0.949 . S
H4236 C4240 0.949 . S
C4237 C4238 1.349 . S
C4237 C4239 1.327 . S
C4237 H4260 0.950 . S
C4238 C4237 1.349 . S
C4238 C4250 1.349 . S
C4239 C4237 1.327 . S
C4239 C4255 1.429 . S
C4239 H4261 0.950 . S
C4240 H4236 0.949 . S
C4240 C4248 1.574 . S
C4240 C4256 1.368 . S
H4241 C4249 0.950 . S
H4242 C4247 0.950 . S
H4243 C4248 0.949 . S
H4244 C4250 0.950 . S
H4245 C4251 0.950 . S
H4246 C4252 0.949 . S
C4247 H4242 0.950 . S
C4247 C4249 1.327 . S
C4247 C4253 1.429 . S
C4248 C4240 1.574 . S
C4248 H4243 0.949 . S
C4248 C4254 1.368 . S
C4249 C4233 1.349 . S
C4249 H4241 0.950 . S
C4249 C4247 1.327 . S
C4250 C4238 1.349 . S
C4250 H4244 0.950 . S
C4250 C4251 1.327 . S
C4251 H4245 0.950 . S
C4251 C4250 1.327 . S
C4251 C4255 1.429 . S
C4252 C4235 1.574 . S
C4252 H4246 0.949 . S
C4252 C4256 1.368 . S
C4253 C4234 1.429 . S
C4253 C4247 1.429 . S
C4253 C4254 1.523 . S
C4254 C4235 1.368 . S
C4254 C4248 1.368 . S
C4254 C4253 1.523 . S
C4255 C4239 1.429 . S
C4255 C4251 1.429 . S
C4255 C4256 1.523 . S
C4256 C4240 1.368 . S
C4256 C4252 1.368 . S
C4256 C4255 1.523 . S
H4257 C4232 0.950 . S
H4258 C4234 0.950 . S
H4259 C4235 0.949 . S
H4260 C4237 0.950 . S
H4261 C4239 0.950 . S
C4262 C4263 1.349 . S
C4262 C4264 1.327 . S
C4262 H4287 0.950 . S
C4263 C4262 1.349 . S
C4263 C4279 1.349 . S
C4264 C4262 1.327 . S
C4264 C4283 1.429 . S
C4264 H4288 0.950 . S
C4265 C4282 1.574 . S
C4265 C4284 1.368 . S
C4265 H4289 0.949 . S
H4266 C4270 0.949 . S
C4267 C4268 1.349 . S
C4267 C4269 1.327 . S
C4267 H4290 0.950 . S
C4268 C4267 1.349 . S
C4268 C4280 1.349 . S
C4269 C4267 1.327 . S
C4269 C4285 1.429 . S
C4269 H4291 0.950 . S
C4270 H4266 0.949 . S
C4270 C4278 1.574 . S
C4270 C4286 1.368 . S
H4271 C4279 0.950 . S
H4272 C4277 0.950 . S
H4273 C4278 0.949 . S
H4274 C4280 0.950 . S
H4275 C4281 0.950 . S
H4276 C4282 0.949 . S
C4277 H4272 0.950 . S
C4277 C4279 1.327 . S
C4277 C4283 1.429 . S
C4278 C4270 1.574 . S
C4278 H4273 0.949 . S
C4278 C4284 1.368 . S
C4279 C4263 1.349 . S
C4279 H4271 0.950 . S
C4279 C4277 1.327 . S
C4280 C4268 1.349 . S
C4280 H4274 0.950 . S
C4280 C4281 1.327 . S
C4281 H4275 0.950 . S
C4281 C4280 1.327 . S
C4281 C4285 1.429 . S
C4282 C4265 1.574 . S
C4282 H4276 0.949 . S
C4282 C4286 1.368 . S
C4283 C4264 1.429 . S
C4283 C4277 1.429 . S
C4283 C4284 1.523 . S
C4284 C4265 1.368 . S
C4284 C4278 1.368 . S
C4284 C4283 1.523 . S
C4285 C4269 1.429 . S
C4285 C4281 1.429 . S
C4285 C4286 1.523 . S
C4286 C4270 1.368 . S
C4286 C4282 1.368 . S
C4286 C4285 1.523 . S
H4287 C4262 0.950 . S
H4288 C4264 0.950 . S
H4289 C4265 0.949 . S
H4290 C4267 0.950 . S
H4291 C4269 0.950 . S
C4292 C4293 1.349 . S
C4292 C4294 1.327 . S
C4292 H4317 0.950 . S
C4293 C4292 1.349 . S
C4293 C4309 1.349 . S
C4294 C4292 1.327 . S
C4294 C4313 1.429 . S
C4294 H4318 0.950 . S
C4295 C4312 1.574 . S
C4295 C4314 1.368 . S
C4295 H4319 0.949 . S
H4296 C4300 0.949 . S
C4297 C4298 1.349 . S
C4297 C4299 1.327 . S
C4297 H4320 0.950 . S
C4298 C4297 1.349 . S
C4298 C4310 1.349 . S
C4299 C4297 1.327 . S
C4299 C4315 1.429 . S
C4299 H4321 0.950 . S
C4300 H4296 0.949 . S
C4300 C4308 1.574 . S
C4300 C4316 1.368 . S
H4301 C4309 0.950 . S
H4302 C4307 0.950 . S
H4303 C4308 0.949 . S
H4304 C4310 0.950 . S
H4305 C4311 0.950 . S
H4306 C4312 0.949 . S
C4307 H4302 0.950 . S
C4307 C4309 1.327 . S
C4307 C4313 1.429 . S
C4308 C4300 1.574 . S
C4308 H4303 0.949 . S
C4308 C4314 1.368 . S
C4309 C4293 1.349 . S
C4309 H4301 0.950 . S
C4309 C4307 1.327 . S
C4310 C4298 1.349 . S
C4310 H4304 0.950 . S
C4310 C4311 1.327 . S
C4311 H4305 0.950 . S
C4311 C4310 1.327 . S
C4311 C4315 1.429 . S
C4312 C4295 1.574 . S
C4312 H4306 0.949 . S
C4312 C4316 1.368 . S
C4313 C4294 1.429 . S
C4313 C4307 1.429 . S
C4313 C4314 1.523 . S
C4314 C4295 1.368 . S
C4314 C4308 1.368 . S
C4314 C4313 1.523 . S
C4315 C4299 1.429 . S
C4315 C4311 1.429 . S
C4315 C4316 1.523 . S
C4316 C4300 1.368 . S
C4316 C4312 1.368 . S
C4316 C4315 1.523 . S
H4317 C4292 0.950 . S
H4318 C4294 0.950 . S
H4319 C4295 0.949 . S
H4320 C4297 0.950 . S
H4321 C4299 0.950 . S
C4322 C4323 1.349 . S
C4322 C4324 1.327 . S
C4322 H4347 0.950 . S
C4323 C4322 1.349 . S
C4323 C4339 1.349 . S
C4324 C4322 1.327 . S
C4324 C4343 1.429 . S
C4324 H4348 0.950 . S
C4325 C4342 1.574 . S
C4325 C4344 1.368 . S
C4325 H4349 0.949 . S
H4326 C4330 0.949 . S
C4327 C4328 1.349 . S
C4327 C4329 1.327 . S
C4327 H4350 0.950 . S
C4328 C4327 1.349 . S
C4328 C4340 1.349 . S
C4329 C4327 1.327 . S
C4329 C4345 1.429 . S
C4329 H4351 0.950 . S
C4330 H4326 0.949 . S
C4330 C4338 1.574 . S
C4330 C4346 1.368 . S
H4331 C4339 0.950 . S
H4332 C4337 0.950 . S
H4333 C4338 0.949 . S
H4334 C4340 0.950 . S
H4335 C4341 0.950 . S
H4336 C4342 0.949 . S
C4337 H4332 0.950 . S
C4337 C4339 1.327 . S
C4337 C4343 1.429 . S
C4338 C4330 1.574 . S
C4338 H4333 0.949 . S
C4338 C4344 1.368 . S
C4339 C4323 1.349 . S
C4339 H4331 0.950 . S
C4339 C4337 1.327 . S
C4340 C4328 1.349 . S
C4340 H4334 0.950 . S
C4340 C4341 1.327 . S
C4341 H4335 0.950 . S
C4341 C4340 1.327 . S
C4341 C4345 1.429 . S
C4342 C4325 1.574 . S
C4342 H4336 0.949 . S
C4342 C4346 1.368 . S
C4343 C4324 1.429 . S
C4343 C4337 1.429 . S
C4343 C4344 1.523 . S
C4344 C4325 1.368 . S
C4344 C4338 1.368 . S
C4344 C4343 1.523 . S
C4345 C4329 1.429 . S
C4345 C4341 1.429 . S
C4345 C4346 1.523 . S
C4346 C4330 1.368 . S
C4346 C4342 1.368 . S
C4346 C4345 1.523 . S
H4347 C4322 0.950 . S
H4348 C4324 0.950 . S
H4349 C4325 0.949 . S
H4350 C4327 0.950 . S
H4351 C4329 0.950 . S
C4352 C4353 1.349 . S
C4352 C4354 1.327 . S
C4352 H4377 0.950 . S
C4353 C4352 1.349 . S
C4353 C4369 1.349 . S
C4354 C4352 1.327 . S
C4354 C4373 1.429 . S
C4354 H4378 0.950 . S
C4355 C4372 1.574 . S
C4355 C4374 1.368 . S
C4355 H4379 0.949 . S
H4356 C4360 0.949 . S
C4357 C4358 1.349 . S
C4357 C4359 1.327 . S
C4357 H4380 0.950 . S
C4358 C4357 1.349 . S
C4358 C4370 1.349 . S
C4359 C4357 1.327 . S
C4359 C4375 1.429 . S
C4359 H4381 0.950 . S
C4360 H4356 0.949 . S
C4360 C4368 1.574 . S
C4360 C4376 1.368 . S
H4361 C4369 0.950 . S
H4362 C4367 0.950 . S
H4363 C4368 0.949 . S
H4364 C4370 0.950 . S
H4365 C4371 0.950 . S
H4366 C4372 0.949 . S
C4367 H4362 0.950 . S
C4367 C4369 1.327 . S
C4367 C4373 1.429 . S
C4368 C4360 1.574 . S
C4368 H4363 0.949 . S
C4368 C4374 1.368 . S
C4369 C4353 1.349 . S
C4369 H4361 0.950 . S
C4369 C4367 1.327 . S
C4370 C4358 1.349 . S
C4370 H4364 0.950 . S
C4370 C4371 1.327 . S
C4371 H4365 0.950 . S
C4371 C4370 1.327 . S
C4371 C4375 1.429 . S
C4372 C4355 1.574 . S
C4372 H4366 0.949 . S
C4372 C4376 1.368 . S
C4373 C4354 1.429 . S
C4373 C4367 1.429 . S
C4373 C4374 1.523 . S
C4374 C4355 1.368 . S
C4374 C4368 1.368 . S
C4374 C4373 1.523 . S
C4375 C4359 1.429 . S
C4375 C4371 1.429 . S
C4375 C4376 1.523 . S
C4376 C4360 1.368 . S
C4376 C4372 1.368 . S
C4376 C4375 1.523 . S
H4377 C4352 0.950 . S
H4378 C4354 0.950 . S
H4379 C4355 0.949 . S
H4380 C4357 0.950 . S
H4381 C4359 0.950 . S
C4382 C4383 1.349 . S
C4382 C4384 1.327 . S
C4382 H4407 0.950 . S
C4383 C4382 1.349 . S
C4383 C4399 1.349 . S
C4384 C4382 1.327 . S
C4384 C4403 1.429 . S
C4384 H4408 0.950 . S
C4385 C4402 1.574 . S
C4385 C4404 1.368 . S
C4385 H4409 0.949 . S
H4386 C4390 0.949 . S
C4387 C4388 1.349 . S
C4387 C4389 1.327 . S
C4387 H4410 0.950 . S
C4388 C4387 1.349 . S
C4388 C4400 1.349 . S
C4389 C4387 1.327 . S
C4389 C4405 1.429 . S
C4389 H4411 0.950 . S
C4390 H4386 0.949 . S
C4390 C4398 1.574 . S
C4390 C4406 1.368 . S
H4391 C4399 0.950 . S
H4392 C4397 0.950 . S
H4393 C4398 0.949 . S
H4394 C4400 0.950 . S
H4395 C4401 0.950 . S
H4396 C4402 0.949 . S
C4397 H4392 0.950 . S
C4397 C4399 1.327 . S
C4397 C4403 1.429 . S
C4398 C4390 1.574 . S
C4398 H4393 0.949 . S
C4398 C4404 1.368 . S
C4399 C4383 1.349 . S
C4399 H4391 0.950 . S
C4399 C4397 1.327 . S
C4400 C4388 1.349 . S
C4400 H4394 0.950 . S
C4400 C4401 1.327 . S
C4401 H4395 0.950 . S
C4401 C4400 1.327 . S
C4401 C4405 1.429 . S
C4402 C4385 1.574 . S
C4402 H4396 0.949 . S
C4402 C4406 1.368 . S
C4403 C4384 1.429 . S
C4403 C4397 1.429 . S
C4403 C4404 1.523 . S
C4404 C4385 1.368 . S
C4404 C4398 1.368 . S
C4404 C4403 1.523 . S
C4405 C4389 1.429 . S
C4405 C4401 1.429 . S
C4405 C4406 1.523 . S
C4406 C4390 1.368 . S
C4406 C4402 1.368 . S
C4406 C4405 1.523 . S
H4407 C4382 0.950 . S
H4408 C4384 0.950 . S
H4409 C4385 0.949 . S
H4410 C4387 0.950 . S
H4411 C4389 0.950 . S
C4412 C4413 1.349 . S
C4412 C4414 1.327 . S
C4412 H4437 0.950 . S
C4413 C4412 1.349 . S
C4413 C4429 1.349 . S
C4414 C4412 1.327 . S
C4414 C4433 1.429 . S
C4414 H4438 0.950 . S
C4415 C4432 1.574 . S
C4415 C4434 1.368 . S
C4415 H4439 0.949 . S
H4416 C4420 0.949 . S
C4417 C4418 1.349 . S
C4417 C4419 1.327 . S
C4417 H4440 0.950 . S
C4418 C4417 1.349 . S
C4418 C4430 1.349 . S
C4419 C4417 1.327 . S
C4419 C4435 1.429 . S
C4419 H4441 0.950 . S
C4420 H4416 0.949 . S
C4420 C4428 1.574 . S
C4420 C4436 1.368 . S
H4421 C4429 0.950 . S
H4422 C4427 0.950 . S
H4423 C4428 0.949 . S
H4424 C4430 0.950 . S
H4425 C4431 0.950 . S
H4426 C4432 0.949 . S
C4427 H4422 0.950 . S
C4427 C4429 1.327 . S
C4427 C4433 1.429 . S
C4428 C4420 1.574 . S
C4428 H4423 0.949 . S
C4428 C4434 1.368 . S
C4429 C4413 1.349 . S
C4429 H4421 0.950 . S
C4429 C4427 1.327 . S
C4430 C4418 1.349 . S
C4430 H4424 0.950 . S
C4430 C4431 1.327 . S
C4431 H4425 0.950 . S
C4431 C4430 1.327 . S
C4431 C4435 1.429 . S
C4432 C4415 1.574 . S
C4432 H4426 0.949 . S
C4432 C4436 1.368 . S
C4433 C4414 1.429 . S
C4433 C4427 1.429 . S
C4433 C4434 1.523 . S
C4434 C4415 1.368 . S
C4434 C4428 1.368 . S
C4434 C4433 1.523 . S
C4435 C4419 1.429 . S
C4435 C4431 1.429 . S
C4435 C4436 1.523 . S
C4436 C4420 1.368 . S
C4436 C4432 1.368 . S
C4436 C4435 1.523 . S
H4437 C4412 0.950 . S
H4438 C4414 0.950 . S
H4439 C4415 0.949 . S
H4440 C4417 0.950 . S
H4441 C4419 0.950 . S
C4442 C4443 1.349 . S
C4442 C4444 1.327 . S
C4442 H4467 0.950 . S
C4443 C4442 1.349 . S
C4443 C4459 1.349 . S
C4444 C4442 1.327 . S
C4444 C4463 1.429 . S
C4444 H4468 0.950 . S
C4445 C4462 1.574 . S
C4445 C4464 1.368 . S
C4445 H4469 0.949 . S
H4446 C4450 0.949 . S
C4447 C4448 1.349 1_565 S
C4447 C4449 1.327 . S
C4447 H4470 0.950 . S
C4448 C4447 1.349 1_545 S
C4448 C4460 1.349 . S
C4449 C4447 1.327 . S
C4449 C4465 1.461 . S
C4449 H4471 0.950 . S
C4450 H4446 0.949 . S
C4450 C4458 1.574 1_545 S
C4450 C4466 1.368 1_545 S
H4451 C4459 0.950 . S
H4452 C4457 0.950 . S
H4453 C4458 0.912 1_545 S
H4454 C4460 0.950 . S
H4455 C4461 0.950 . S
H4456 C4462 0.949 . S
C4457 H4452 0.950 . S
C4457 C4459 1.327 . S
C4457 C4463 1.429 . S
C4458 C4450 1.574 1_565 S
C4458 H4453 0.912 1_565 S
C4458 C4464 1.368 . S
C4459 C4443 1.349 . S
C4459 H4451 0.950 . S
C4459 C4457 1.327 . S
C4460 C4448 1.349 . S
C4460 H4454 0.950 . S
C4460 C4461 1.327 . S
C4461 H4455 0.950 . S
C4461 C4460 1.327 . S
C4461 C4465 1.384 1_545 S
C4462 C4445 1.574 . S
C4462 H4456 0.949 . S
C4462 C4466 1.368 . S
C4463 C4444 1.429 . S
C4463 C4457 1.429 . S
C4463 C4464 1.523 . S
C4464 C4445 1.368 . S
C4464 C4458 1.368 . S
C4464 C4463 1.523 . S
C4465 C4449 1.461 . S
C4465 C4461 1.384 1_565 S
C4465 C4466 1.537 . S
C4466 C4450 1.368 1_565 S
C4466 C4462 1.368 . S
C4466 C4465 1.537 . S
H4467 C4442 0.950 . S
H4468 C4444 0.950 . S
H4469 C4445 0.949 . S
H4470 C4447 0.950 . S
H4471 C4449 0.950 . S
C4472 C4473 1.349 . S
C4472 C4474 1.327 . S
C4472 H4497 0.950 . S
C4473 C4472 1.349 . S
C4473 C4489 1.349 . S
C4474 C4472 1.327 . S
C4474 C4493 1.429 . S
C4474 H4498 0.950 . S
C4475 C4492 1.574 . S
C4475 C4494 1.368 . S
C4475 H4499 0.949 . S
H4476 C4480 0.949 . S
C4477 C4478 1.349 . S
C4477 C4479 1.327 . S
C4477 H4500 0.950 . S
C4478 C4477 1.349 . S
C4478 C4490 1.349 . S
C4479 C4477 1.327 . S
C4479 C4495 1.429 . S
C4479 H4501 0.950 . S
C4480 H4476 0.949 . S
C4480 C4488 1.574 . S
C4480 C4496 1.368 . S
H4481 C4489 0.950 . S
H4482 C4487 0.950 . S
H4483 C4488 0.949 . S
H4484 C4490 0.950 . S
H4485 C4491 0.950 . S
H4486 C4492 0.949 . S
C4487 H4482 0.950 . S
C4487 C4489 1.327 . S
C4487 C4493 1.429 . S
C4488 C4480 1.574 . S
C4488 H4483 0.949 . S
C4488 C4494 1.368 . S
C4489 C4473 1.349 . S
C4489 H4481 0.950 . S
C4489 C4487 1.327 . S
C4490 C4478 1.349 . S
C4490 H4484 0.950 . S
C4490 C4491 1.327 . S
C4491 H4485 0.950 . S
C4491 C4490 1.327 . S
C4491 C4495 1.429 . S
C4492 C4475 1.574 . S
C4492 H4486 0.949 . S
C4492 C4496 1.368 . S
C4493 C4474 1.429 . S
C4493 C4487 1.429 . S
C4493 C4494 1.523 . S
C4494 C4475 1.368 . S
C4494 C4488 1.368 . S
C4494 C4493 1.523 . S
C4495 C4479 1.429 . S
C4495 C4491 1.429 . S
C4495 C4496 1.523 . S
C4496 C4480 1.368 . S
C4496 C4492 1.368 . S
C4496 C4495 1.523 . S
H4497 C4472 0.950 . S
H4498 C4474 0.950 . S
H4499 C4475 0.949 . S
H4500 C4477 0.950 . S
H4501 C4479 0.950 . S
C4502 C4503 1.349 . S
C4502 C4504 1.327 . S
C4502 H4527 0.950 . S
C4503 C4502 1.349 . S
C4503 C4519 1.349 . S
C4504 C4502 1.327 . S
C4504 C4523 1.429 . S
C4504 H4528 0.950 . S
C4505 C4522 1.574 . S
C4505 C4524 1.368 . S
C4505 H4529 0.949 1_554 S
H4506 C4510 0.949 . S
C4507 C4508 1.349 . S
C4507 C4509 1.327 . S
C4507 H4530 0.950 . S
C4508 C4507 1.349 . S
C4508 C4520 1.349 . S
C4509 C4507 1.327 . S
C4509 C4525 1.429 . S
C4509 H4531 0.950 . S
C4510 H4506 0.949 . S
C4510 C4518 1.574 . S
C4510 C4526 1.368 . S
H4511 C4519 0.950 1_556 S
H4512 C4517 0.950 1_556 S
H4513 C4518 0.949 . S
H4514 C4520 0.950 . S
H4515 C4521 0.950 . S
H4516 C4522 0.949 . S
C4517 H4512 0.950 1_554 S
C4517 C4519 1.327 . S
C4517 C4523 1.429 . S
C4518 C4510 1.574 . S
C4518 H4513 0.949 . S
C4518 C4524 1.368 . S
C4519 C4503 1.349 . S
C4519 H4511 0.950 1_554 S
C4519 C4517 1.327 . S
C4520 C4508 1.349 . S
C4520 H4514 0.950 . S
C4520 C4521 1.327 . S
C4521 H4515 0.950 . S
C4521 C4520 1.327 . S
C4521 C4525 1.429 . S
C4522 C4505 1.574 . S
C4522 H4516 0.949 . S
C4522 C4526 1.368 . S
C4523 C4504 1.429 . S
C4523 C4517 1.429 . S
C4523 C4524 1.523 . S
C4524 C4505 1.368 . S
C4524 C4518 1.368 . S
C4524 C4523 1.523 . S
C4525 C4509 1.429 . S
C4525 C4521 1.429 . S
C4525 C4526 1.523 . S
C4526 C4510 1.368 . S
C4526 C4522 1.368 . S
C4526 C4525 1.523 . S
H4527 C4502 0.950 . S
H4528 C4504 0.950 . S
H4529 C4505 0.949 1_556 S
H4530 C4507 0.950 . S
H4531 C4509 0.950 . S
C4532 C4533 1.349 . S
C4532 C4534 1.327 . S
C4532 H4557 0.950 . S
C4533 C4532 1.349 . S
C4533 C4549 1.349 . S
C4534 C4532 1.327 . S
C4534 C4553 1.429 . S
C4534 H4558 0.950 . S
C4535 C4552 1.574 . S
C4535 C4554 1.368 . S
C4535 H4559 0.949 . S
H4536 C4540 0.949 . S
C4537 C4538 1.349 . S
C4537 C4539 1.327 . S
C4537 H4560 0.950 . S
C4538 C4537 1.349 . S
C4538 C4550 1.349 . S
C4539 C4537 1.327 . S
C4539 C4555 1.429 . S
C4539 H4561 0.950 . S
C4540 H4536 0.949 . S
C4540 C4548 1.574 . S
C4540 C4556 1.368 . S
H4541 C4549 0.950 . S
H4542 C4547 0.950 . S
H4543 C4548 0.949 . S
H4544 C4550 0.950 . S
H4545 C4551 0.950 . S
H4546 C4552 0.949 . S
C4547 H4542 0.950 . S
C4547 C4549 1.327 . S
C4547 C4553 1.429 . S
C4548 C4540 1.574 . S
C4548 H4543 0.949 . S
C4548 C4554 1.368 . S
C4549 C4533 1.349 . S
C4549 H4541 0.950 . S
C4549 C4547 1.327 . S
C4550 C4538 1.349 . S
C4550 H4544 0.950 . S
C4550 C4551 1.327 . S
C4551 H4545 0.950 . S
C4551 C4550 1.327 . S
C4551 C4555 1.429 . S
C4552 C4535 1.574 . S
C4552 H4546 0.949 . S
C4552 C4556 1.368 . S
C4553 C4534 1.429 . S
C4553 C4547 1.429 . S
C4553 C4554 1.523 . S
C4554 C4535 1.368 . S
C4554 C4548 1.368 . S
C4554 C4553 1.523 . S
C4555 C4539 1.429 . S
C4555 C4551 1.429 . S
C4555 C4556 1.523 . S
C4556 C4540 1.368 . S
C4556 C4552 1.368 . S
C4556 C4555 1.523 . S
H4557 C4532 0.950 . S
H4558 C4534 0.950 . S
H4559 C4535 0.949 . S
H4560 C4537 0.950 . S
H4561 C4539 0.950 . S
C4562 C4563 1.349 . S
C4562 C4564 1.327 . S
C4562 H4587 0.950 . S
C4563 C4562 1.349 . S
C4563 C4579 1.349 . S
C4564 C4562 1.327 . S
C4564 C4583 1.429 . S
C4564 H4588 0.950 . S
C4565 C4582 1.574 . S
C4565 C4584 1.368 . S
C4565 H4589 0.949 . S
H4566 C4570 0.949 . S
C4567 C4568 1.349 . S
C4567 C4569 1.327 . S
C4567 H4590 0.950 . S
C4568 C4567 1.349 . S
C4568 C4580 1.349 . S
C4569 C4567 1.327 . S
C4569 C4585 1.429 . S
C4569 H4591 0.950 . S
C4570 H4566 0.949 . S
C4570 C4578 1.574 . S
C4570 C4586 1.368 . S
H4571 C4579 0.950 . S
H4572 C4577 0.950 . S
H4573 C4578 0.949 . S
H4574 C4580 0.950 . S
H4575 C4581 0.950 . S
H4576 C4582 0.949 . S
C4577 H4572 0.950 . S
C4577 C4579 1.327 . S
C4577 C4583 1.429 . S
C4578 C4570 1.574 . S
C4578 H4573 0.949 . S
C4578 C4584 1.368 . S
C4579 C4563 1.349 . S
C4579 H4571 0.950 . S
C4579 C4577 1.327 . S
C4580 C4568 1.349 . S
C4580 H4574 0.950 . S
C4580 C4581 1.327 . S
C4581 H4575 0.950 . S
C4581 C4580 1.327 . S
C4581 C4585 1.429 . S
C4582 C4565 1.574 . S
C4582 H4576 0.949 . S
C4582 C4586 1.368 . S
C4583 C4564 1.429 . S
C4583 C4577 1.429 . S
C4583 C4584 1.523 . S
C4584 C4565 1.368 . S
C4584 C4578 1.368 . S
C4584 C4583 1.523 . S
C4585 C4569 1.429 . S
C4585 C4581 1.429 . S
C4585 C4586 1.523 . S
C4586 C4570 1.368 . S
C4586 C4582 1.368 . S
C4586 C4585 1.523 . S
H4587 C4562 0.950 . S
H4588 C4564 0.950 . S
H4589 C4565 0.949 . S
H4590 C4567 0.950 . S
H4591 C4569 0.950 . S
C4592 C4593 1.349 . S
C4592 C4594 1.327 . S
C4592 H4617 0.950 . S
C4593 C4592 1.349 . S
C4593 C4609 1.349 . S
C4594 C4592 1.327 . S
C4594 C4613 1.429 . S
C4594 H4618 0.950 . S
C4595 C4612 1.574 . S
C4595 C4614 1.368 . S
C4595 H4619 0.949 . S
H4596 C4600 0.949 . S
C4597 C4598 1.349 . S
C4597 C4599 1.327 . S
C4597 H4620 0.950 . S
C4598 C4597 1.349 . S
C4598 C4610 1.349 . S
C4599 C4597 1.327 . S
C4599 C4615 1.429 . S
C4599 H4621 0.950 . S
C4600 H4596 0.949 . S
C4600 C4608 1.574 . S
C4600 C4616 1.368 . S
H4601 C4609 0.950 . S
H4602 C4607 0.950 . S
H4603 C4608 0.949 . S
H4604 C4610 0.950 . S
H4605 C4611 0.950 . S
H4606 C4612 0.949 . S
C4607 H4602 0.950 . S
C4607 C4609 1.327 . S
C4607 C4613 1.429 . S
C4608 C4600 1.574 . S
C4608 H4603 0.949 . S
C4608 C4614 1.368 . S
C4609 C4593 1.349 . S
C4609 H4601 0.950 . S
C4609 C4607 1.327 . S
C4610 C4598 1.349 . S
C4610 H4604 0.950 . S
C4610 C4611 1.327 . S
C4611 H4605 0.950 . S
C4611 C4610 1.327 . S
C4611 C4615 1.429 . S
C4612 C4595 1.574 . S
C4612 H4606 0.949 . S
C4612 C4616 1.368 . S
C4613 C4594 1.429 . S
C4613 C4607 1.429 . S
C4613 C4614 1.523 . S
C4614 C4595 1.368 . S
C4614 C4608 1.368 . S
C4614 C4613 1.523 . S
C4615 C4599 1.429 . S
C4615 C4611 1.429 . S
C4615 C4616 1.523 . S
C4616 C4600 1.368 . S
C4616 C4612 1.368 . S
C4616 C4615 1.523 . S
H4617 C4592 0.950 . S
H4618 C4594 0.950 . S
H4619 C4595 0.949 . S
H4620 C4597 0.950 . S
H4621 C4599 0.950 . S
C4622 C4623 1.349 . S
C4622 C4624 1.327 . S
C4622 H4647 0.950 . S
C4623 C4622 1.349 . S
C4623 C4639 1.349 . S
C4624 C4622 1.327 . S
C4624 C4643 1.429 . S
C4624 H4648 0.950 . S
C4625 C4642 1.574 . S
C4625 C4644 1.368 . S
C4625 H4649 0.949 . S
H4626 C4630 0.949 . S
C4627 C4628 1.349 . S
C4627 C4629 1.327 . S
C4627 H4650 0.950 . S
C4628 C4627 1.349 . S
C4628 C4640 1.349 . S
C4629 C4627 1.327 . S
C4629 C4645 1.429 . S
C4629 H4651 0.950 . S
C4630 H4626 0.949 . S
C4630 C4638 1.574 . S
C4630 C4646 1.368 . S
H4631 C4639 0.950 . S
H4632 C4637 0.950 . S
H4633 C4638 0.949 . S
H4634 C4640 0.950 . S
H4635 C4641 0.950 . S
H4636 C4642 0.949 . S
C4637 H4632 0.950 . S
C4637 C4639 1.327 . S
C4637 C4643 1.429 . S
C4638 C4630 1.574 . S
C4638 H4633 0.949 . S
C4638 C4644 1.368 . S
C4639 C4623 1.349 . S
C4639 H4631 0.950 . S
C4639 C4637 1.327 . S
C4640 C4628 1.349 . S
C4640 H4634 0.950 . S
C4640 C4641 1.327 . S
C4641 H4635 0.950 . S
C4641 C4640 1.327 . S
C4641 C4645 1.429 . S
C4642 C4625 1.574 . S
C4642 H4636 0.949 . S
C4642 C4646 1.368 . S
C4643 C4624 1.429 . S
C4643 C4637 1.429 . S
C4643 C4644 1.523 . S
C4644 C4625 1.368 . S
C4644 C4638 1.368 . S
C4644 C4643 1.523 . S
C4645 C4629 1.429 . S
C4645 C4641 1.429 . S
C4645 C4646 1.523 . S
C4646 C4630 1.368 . S
C4646 C4642 1.368 . S
C4646 C4645 1.523 . S
H4647 C4622 0.950 . S
H4648 C4624 0.950 . S
H4649 C4625 0.949 . S
H4650 C4627 0.950 . S
H4651 C4629 0.950 . S
C4652 C4653 1.349 1_455 S
C4652 C4654 1.327 . S
C4652 H4677 0.950 . S
C4653 C4652 1.349 1_655 S
C4653 C4669 1.349 . S
C4654 C4652 1.327 . S
C4654 C4673 1.429 . S
C4654 H4678 0.950 . S
C4655 C4672 1.574 . S
C4655 C4674 1.368 1_655 S
C4655 H4679 0.949 . S
H4656 C4660 0.949 . S
C4657 C4658 1.349 . S
C4657 C4659 1.327 . S
C4657 H4680 0.950 1_455 S
C4658 C4657 1.349 . S
C4658 C4670 1.349 . S
C4659 C4657 1.327 . S
C4659 C4675 1.429 . S
C4659 H4681 0.950 1_455 S
C4660 H4656 0.949 . S
C4660 C4668 1.574 . S
C4660 C4676 1.368 . S
H4661 C4669 0.950 . S
H4662 C4667 0.950 . S
H4663 C4668 0.949 . S
H4664 C4670 0.950 . S
H4665 C4671 0.950 . S
H4666 C4672 0.949 . S
C4667 H4662 0.950 . S
C4667 C4669 1.327 . S
C4667 C4673 1.429 1_655 S
C4668 C4660 1.574 . S
C4668 H4663 0.949 . S
C4668 C4674 1.368 . S
C4669 C4653 1.349 . S
C4669 H4661 0.950 . S
C4669 C4667 1.327 . S
C4670 C4658 1.349 . S
C4670 H4664 0.950 . S
C4670 C4671 1.327 . S
C4671 H4665 0.950 . S
C4671 C4670 1.327 . S
C4671 C4675 1.429 . S
C4672 C4655 1.574 . S
C4672 H4666 0.949 . S
C4672 C4676 1.368 1_655 S
C4673 C4654 1.429 . S
C4673 C4667 1.429 1_455 S
C4673 C4674 1.523 . S
C4674 C4655 1.368 1_455 S
C4674 C4668 1.368 . S
C4674 C4673 1.523 . S
C4675 C4659 1.429 . S
C4675 C4671 1.429 . S
C4675 C4676 1.523 . S
C4676 C4660 1.368 . S
C4676 C4672 1.368 1_455 S
C4676 C4675 1.523 . S
H4677 C4652 0.950 . S
H4678 C4654 0.950 . S
H4679 C4655 0.949 . S
H4680 C4657 0.950 1_655 S
H4681 C4659 0.950 1_655 S
C4682 C4683 1.349 . S
C4682 C4684 1.327 . S
C4682 H4707 0.950 . S
C4683 C4682 1.349 . S
C4683 C4699 1.349 . S
C4684 C4682 1.327 . S
C4684 C4703 1.429 . S
C4684 H4708 0.950 . S
C4685 C4702 1.574 . S
C4685 C4704 1.368 . S
C4685 H4709 0.949 . S
H4686 C4690 0.949 . S
C4687 C4688 1.349 . S
C4687 C4689 1.327 . S
C4687 H4710 0.950 . S
C4688 C4687 1.349 . S
C4688 C4700 1.349 . S
C4689 C4687 1.327 . S
C4689 C4705 1.429 . S
C4689 H4711 0.950 . S
C4690 H4686 0.949 . S
C4690 C4698 1.574 . S
C4690 C4706 1.368 . S
H4691 C4699 0.950 . S
H4692 C4697 0.950 . S
H4693 C4698 0.949 . S
H4694 C4700 0.950 . S
H4695 C4701 0.950 . S
H4696 C4702 0.949 . S
C4697 H4692 0.950 . S
C4697 C4699 1.327 . S
C4697 C4703 1.429 . S
C4698 C4690 1.574 . S
C4698 H4693 0.949 . S
C4698 C4704 1.368 . S
C4699 C4683 1.349 . S
C4699 H4691 0.950 . S
C4699 C4697 1.327 . S
C4700 C4688 1.349 . S
C4700 H4694 0.950 . S
C4700 C4701 1.327 . S
C4701 H4695 0.950 . S
C4701 C4700 1.327 . S
C4701 C4705 1.429 . S
C4702 C4685 1.574 . S
C4702 H4696 0.949 . S
C4702 C4706 1.368 . S
C4703 C4684 1.429 . S
C4703 C4697 1.429 . S
C4703 C4704 1.523 . S
C4704 C4685 1.368 . S
C4704 C4698 1.368 . S
C4704 C4703 1.523 . S
C4705 C4689 1.429 . S
C4705 C4701 1.429 . S
C4705 C4706 1.523 . S
C4706 C4690 1.368 . S
C4706 C4702 1.368 . S
C4706 C4705 1.523 . S
H4707 C4682 0.950 . S
H4708 C4684 0.950 . S
H4709 C4685 0.949 . S
H4710 C4687 0.950 . S
H4711 C4689 0.950 . S
C4712 C4713 1.349 . S
C4712 C4714 1.327 . S
C4712 H4737 0.950 . S
C4713 C4712 1.349 . S
C4713 C4729 1.349 . S
C4714 C4712 1.327 . S
C4714 C4733 1.429 . S
C4714 H4738 0.950 . S
C4715 C4732 1.574 . S
C4715 C4734 1.368 . S
C4715 H4739 0.949 . S
H4716 C4720 0.949 . S
C4717 C4718 1.349 . S
C4717 C4719 1.327 . S
C4717 H4740 0.950 . S
C4718 C4717 1.349 . S
C4718 C4730 1.349 . S
C4719 C4717 1.327 . S
C4719 C4735 1.429 . S
C4719 H4741 0.950 . S
C4720 H4716 0.949 . S
C4720 C4728 1.574 . S
C4720 C4736 1.368 . S
H4721 C4729 0.950 . S
H4722 C4727 0.950 . S
H4723 C4728 0.949 . S
H4724 C4730 0.950 1_554 S
H4725 C4731 0.950 . S
H4726 C4732 0.949 . S
C4727 H4722 0.950 . S
C4727 C4729 1.327 . S
C4727 C4733 1.429 . S
C4728 C4720 1.574 . S
C4728 H4723 0.949 . S
C4728 C4734 1.368 . S
C4729 C4713 1.349 . S
C4729 H4721 0.950 . S
C4729 C4727 1.327 . S
C4730 C4718 1.349 . S
C4730 H4724 0.950 1_556 S
C4730 C4731 1.327 . S
C4731 H4725 0.950 . S
C4731 C4730 1.327 . S
C4731 C4735 1.429 . S
C4732 C4715 1.574 . S
C4732 H4726 0.949 . S
C4732 C4736 1.368 . S
C4733 C4714 1.429 . S
C4733 C4727 1.429 . S
C4733 C4734 1.523 . S
C4734 C4715 1.368 . S
C4734 C4728 1.368 . S
C4734 C4733 1.523 . S
C4735 C4719 1.429 . S
C4735 C4731 1.429 . S
C4735 C4736 1.523 . S
C4736 C4720 1.368 . S
C4736 C4732 1.368 . S
C4736 C4735 1.523 . S
H4737 C4712 0.950 . S
H4738 C4714 0.950 . S
H4739 C4715 0.949 . S
H4740 C4717 0.950 . S
H4741 C4719 0.950 . S
C4742 C4743 1.349 . S
C4742 C4744 1.327 . S
C4742 H4767 0.950 . S
C4743 C4742 1.349 . S
C4743 C4759 1.349 . S
C4744 C4742 1.327 . S
C4744 C4763 1.429 . S
C4744 H4768 0.950 . S
C4745 C4762 1.574 . S
C4745 C4764 1.368 . S
C4745 H4769 0.949 . S
H4746 C4750 0.949 . S
C4747 C4748 1.349 . S
C4747 C4749 1.327 . S
C4747 H4770 0.950 . S
C4748 C4747 1.349 . S
C4748 C4760 1.349 . S
C4749 C4747 1.327 . S
C4749 C4765 1.429 . S
C4749 H4771 0.950 . S
C4750 H4746 0.949 . S
C4750 C4758 1.574 . S
C4750 C4766 1.368 . S
H4751 C4759 0.950 . S
H4752 C4757 0.950 . S
H4753 C4758 0.949 . S
H4754 C4760 0.950 . S
H4755 C4761 0.950 . S
H4756 C4762 0.949 . S
C4757 H4752 0.950 . S
C4757 C4759 1.327 . S
C4757 C4763 1.429 . S
C4758 C4750 1.574 . S
C4758 H4753 0.949 . S
C4758 C4764 1.368 . S
C4759 C4743 1.349 . S
C4759 H4751 0.950 . S
C4759 C4757 1.327 . S
C4760 C4748 1.349 . S
C4760 H4754 0.950 . S
C4760 C4761 1.327 . S
C4761 H4755 0.950 . S
C4761 C4760 1.327 . S
C4761 C4765 1.429 . S
C4762 C4745 1.574 . S
C4762 H4756 0.949 . S
C4762 C4766 1.368 . S
C4763 C4744 1.429 . S
C4763 C4757 1.429 . S
C4763 C4764 1.523 . S
C4764 C4745 1.368 . S
C4764 C4758 1.368 . S
C4764 C4763 1.523 . S
C4765 C4749 1.429 . S
C4765 C4761 1.429 . S
C4765 C4766 1.523 . S
C4766 C4750 1.368 . S
C4766 C4762 1.368 . S
C4766 C4765 1.523 . S
H4767 C4742 0.950 . S
H4768 C4744 0.950 . S
H4769 C4745 0.949 . S
H4770 C4747 0.950 . S
H4771 C4749 0.950 . S
C4772 C4773 1.349 . S
C4772 C4774 1.327 . S
C4772 H4797 0.950 . S
C4773 C4772 1.349 . S
C4773 C4789 1.349 . S
C4774 C4772 1.327 . S
C4774 C4793 1.429 . S
C4774 H4798 0.950 . S
C4775 C4792 1.574 . S
C4775 C4794 1.368 . S
C4775 H4799 0.949 . S
H4776 C4780 0.949 . S
C4777 C4778 1.349 . S
C4777 C4779 1.327 . S
C4777 H4800 0.950 . S
C4778 C4777 1.349 . S
C4778 C4790 1.349 . S
C4779 C4777 1.327 . S
C4779 C4795 1.429 . S
C4779 H4801 0.950 . S
C4780 H4776 0.949 . S
C4780 C4788 1.574 . S
C4780 C4796 1.368 . S
H4781 C4789 0.950 . S
H4782 C4787 0.950 . S
H4783 C4788 0.949 . S
H4784 C4790 0.950 . S
H4785 C4791 0.950 . S
H4786 C4792 0.949 . S
C4787 H4782 0.950 . S
C4787 C4789 1.327 . S
C4787 C4793 1.429 . S
C4788 C4780 1.574 . S
C4788 H4783 0.949 . S
C4788 C4794 1.368 . S
C4789 C4773 1.349 . S
C4789 H4781 0.950 . S
C4789 C4787 1.327 . S
C4790 C4778 1.349 . S
C4790 H4784 0.950 . S
C4790 C4791 1.327 . S
C4791 H4785 0.950 . S
C4791 C4790 1.327 . S
C4791 C4795 1.429 . S
C4792 C4775 1.574 . S
C4792 H4786 0.949 . S
C4792 C4796 1.368 . S
C4793 C4774 1.429 . S
C4793 C4787 1.429 . S
C4793 C4794 1.523 . S
C4794 C4775 1.368 . S
C4794 C4788 1.368 . S
C4794 C4793 1.523 . S
C4795 C4779 1.429 . S
C4795 C4791 1.429 . S
C4795 C4796 1.523 . S
C4796 C4780 1.368 . S
C4796 C4792 1.368 . S
C4796 C4795 1.523 . S
H4797 C4772 0.950 . S
H4798 C4774 0.950 . S
H4799 C4775 0.949 . S
H4800 C4777 0.950 . S
H4801 C4779 0.950 . S
C4802 C4803 1.349 . S
C4802 C4804 1.327 . S
C4802 H4827 0.950 . S
C4803 C4802 1.349 . S
C4803 C4819 1.349 . S
C4804 C4802 1.327 . S
C4804 C4823 1.429 . S
C4804 H4828 0.950 . S
C4805 C4822 1.574 . S
C4805 C4824 1.368 . S
C4805 H4829 0.949 . S
H4806 C4810 0.949 . S
C4807 C4808 1.349 . S
C4807 C4809 1.327 . S
C4807 H4830 0.950 . S
C4808 C4807 1.349 . S
C4808 C4820 1.349 . S
C4809 C4807 1.327 . S
C4809 C4825 1.429 . S
C4809 H4831 0.950 . S
C4810 H4806 0.949 . S
C4810 C4818 1.574 . S
C4810 C4826 1.368 . S
H4811 C4819 0.950 . S
H4812 C4817 0.950 . S
H4813 C4818 0.949 . S
H4814 C4820 0.950 . S
H4815 C4821 0.950 . S
H4816 C4822 0.949 . S
C4817 H4812 0.950 . S
C4817 C4819 1.327 . S
C4817 C4823 1.429 . S
C4818 C4810 1.574 . S
C4818 H4813 0.949 . S
C4818 C4824 1.368 . S
C4819 C4803 1.349 . S
C4819 H4811 0.950 . S
C4819 C4817 1.327 . S
C4820 C4808 1.349 . S
C4820 H4814 0.950 . S
C4820 C4821 1.327 . S
C4821 H4815 0.950 . S
C4821 C4820 1.327 . S
C4821 C4825 1.429 . S
C4822 C4805 1.574 . S
C4822 H4816 0.949 . S
C4822 C4826 1.368 . S
C4823 C4804 1.429 . S
C4823 C4817 1.429 . S
C4823 C4824 1.523 . S
C4824 C4805 1.368 . S
C4824 C4818 1.368 . S
C4824 C4823 1.523 . S
C4825 C4809 1.429 . S
C4825 C4821 1.429 . S
C4825 C4826 1.523 . S
C4826 C4810 1.368 . S
C4826 C4822 1.368 . S
C4826 C4825 1.523 . S
H4827 C4802 0.950 . S
H4828 C4804 0.950 . S
H4829 C4805 0.949 . S
H4830 C4807 0.950 . S
H4831 C4809 0.950 . S
C4832 C4833 1.349 . S
C4832 C4834 1.327 . S
C4832 H4857 0.950 . S
C4833 C4832 1.349 . S
C4833 C4849 1.349 . S
C4834 C4832 1.327 . S
C4834 C4853 1.429 . S
C4834 H4858 0.950 . S
C4835 C4852 1.574 . S
C4835 C4854 1.368 . S
C4835 H4859 0.949 . S
H4836 C4840 0.949 . S
C4837 C4838 1.349 . S
C4837 C4839 1.327 . S
C4837 H4860 0.950 . S
C4838 C4837 1.349 . S
C4838 C4850 1.349 . S
C4839 C4837 1.327 . S
C4839 C4855 1.429 . S
C4839 H4861 0.950 . S
C4840 H4836 0.949 . S
C4840 C4848 1.574 . S
C4840 C4856 1.368 . S
H4841 C4849 0.950 . S
H4842 C4847 0.950 . S
H4843 C4848 0.949 . S
H4844 C4850 0.950 . S
H4845 C4851 0.950 . S
H4846 C4852 0.949 . S
C4847 H4842 0.950 . S
C4847 C4849 1.327 . S
C4847 C4853 1.429 . S
C4848 C4840 1.574 . S
C4848 H4843 0.949 . S
C4848 C4854 1.368 . S
C4849 C4833 1.349 . S
C4849 H4841 0.950 . S
C4849 C4847 1.327 . S
C4850 C4838 1.349 . S
C4850 H4844 0.950 . S
C4850 C4851 1.327 . S
C4851 H4845 0.950 . S
C4851 C4850 1.327 . S
C4851 C4855 1.429 . S
C4852 C4835 1.574 . S
C4852 H4846 0.949 . S
C4852 C4856 1.368 . S
C4853 C4834 1.429 . S
C4853 C4847 1.429 . S
C4853 C4854 1.523 . S
C4854 C4835 1.368 . S
C4854 C4848 1.368 . S
C4854 C4853 1.523 . S
C4855 C4839 1.429 . S
C4855 C4851 1.429 . S
C4855 C4856 1.523 . S
C4856 C4840 1.368 . S
C4856 C4852 1.368 . S
C4856 C4855 1.523 . S
H4857 C4832 0.950 . S
H4858 C4834 0.950 . S
H4859 C4835 0.949 . S
H4860 C4837 0.950 . S
H4861 C4839 0.950 . S
C4862 C4863 1.349 . S
C4862 C4864 1.327 . S
C4862 H4887 0.950 . S
C4863 C4862 1.349 . S
C4863 C4879 1.349 . S
C4864 C4862 1.327 . S
C4864 C4883 1.429 . S
C4864 H4888 0.950 . S
C4865 C4882 1.574 . S
C4865 C4884 1.368 . S
C4865 H4889 0.949 . S
H4866 C4870 0.949 . S
C4867 C4868 1.349 . S
C4867 C4869 1.327 . S
C4867 H4890 0.950 . S
C4868 C4867 1.349 . S
C4868 C4880 1.349 . S
C4869 C4867 1.327 . S
C4869 C4885 1.429 . S
C4869 H4891 0.950 . S
C4870 H4866 0.949 . S
C4870 C4878 1.574 . S
C4870 C4886 1.368 . S
H4871 C4879 0.950 . S
H4872 C4877 0.950 . S
H4873 C4878 0.949 . S
H4874 C4880 0.950 . S
H4875 C4881 0.950 . S
H4876 C4882 0.949 . S
C4877 H4872 0.950 . S
C4877 C4879 1.327 . S
C4877 C4883 1.429 . S
C4878 C4870 1.574 . S
C4878 H4873 0.949 . S
C4878 C4884 1.368 . S
C4879 C4863 1.349 . S
C4879 H4871 0.950 . S
C4879 C4877 1.327 . S
C4880 C4868 1.349 . S
C4880 H4874 0.950 . S
C4880 C4881 1.327 . S
C4881 H4875 0.950 . S
C4881 C4880 1.327 . S
C4881 C4885 1.429 . S
C4882 C4865 1.574 . S
C4882 H4876 0.949 . S
C4882 C4886 1.368 . S
C4883 C4864 1.429 . S
C4883 C4877 1.429 . S
C4883 C4884 1.523 . S
C4884 C4865 1.368 . S
C4884 C4878 1.368 . S
C4884 C4883 1.523 . S
C4885 C4869 1.429 . S
C4885 C4881 1.429 . S
C4885 C4886 1.523 . S
C4886 C4870 1.368 . S
C4886 C4882 1.368 . S
C4886 C4885 1.523 . S
H4887 C4862 0.950 . S
H4888 C4864 0.950 . S
H4889 C4865 0.949 . S
H4890 C4867 0.950 . S
H4891 C4869 0.950 . S
C4892 C4893 1.349 . S
C4892 C4894 1.327 . S
C4892 H4917 0.950 . S
C4893 C4892 1.349 . S
C4893 C4909 1.349 . S
C4894 C4892 1.327 . S
C4894 C4913 1.429 . S
C4894 H4918 0.950 . S
C4895 C4912 1.574 . S
C4895 C4914 1.368 . S
C4895 H4919 0.949 . S
H4896 C4900 0.949 . S
C4897 C4898 1.349 . S
C4897 C4899 1.327 . S
C4897 H4920 0.950 . S
C4898 C4897 1.349 . S
C4898 C4910 1.363 . S
C4899 C4897 1.327 . S
C4899 C4915 1.429 . S
C4899 H4921 0.950 . S
C4900 H4896 0.949 . S
C4900 C4908 1.574 . S
C4900 C4916 1.368 . S
H4901 C4909 0.950 . S
H4902 C4907 0.950 . S
H4903 C4908 0.949 . S
H4904 C4910 0.927 1_455 S
H4905 C4911 0.950 . S
H4906 C4912 0.949 . S
C4907 H4902 0.950 . S
C4907 C4909 1.327 . S
C4907 C4913 1.429 . S
C4908 C4900 1.574 . S
C4908 H4903 0.949 . S
C4908 C4914 1.368 . S
C4909 C4893 1.349 . S
C4909 H4901 0.950 . S
C4909 C4907 1.327 . S
C4910 C4898 1.363 . S
C4910 H4904 0.927 1_655 S
C4910 C4911 1.336 . S
C4911 H4905 0.950 . S
C4911 C4910 1.336 . S
C4911 C4915 1.429 . S
C4912 C4895 1.574 . S
C4912 H4906 0.949 . S
C4912 C4916 1.368 . S
C4913 C4894 1.429 . S
C4913 C4907 1.429 . S
C4913 C4914 1.523 . S
C4914 C4895 1.368 . S
C4914 C4908 1.368 . S
C4914 C4913 1.523 . S
C4915 C4899 1.429 . S
C4915 C4911 1.429 . S
C4915 C4916 1.523 . S
C4916 C4900 1.368 . S
C4916 C4912 1.368 . S
C4916 C4915 1.523 . S
H4917 C4892 0.950 . S
H4918 C4894 0.950 . S
H4919 C4895 0.949 . S
H4920 C4897 0.950 . S
H4921 C4899 0.950 . S
C4922 C4923 1.349 . S
C4922 C4924 1.327 . S
C4922 H4947 0.950 . S
C4923 C4922 1.349 . S
C4923 C4939 1.349 . S
C4924 C4922 1.327 . S
C4924 C4943 1.429 . S
C4924 H4948 0.950 . S
C4925 C4942 1.574 . S
C4925 C4944 1.368 . S
C4925 H4949 0.949 . S
H4926 C4930 0.949 . S
C4927 C4928 1.349 . S
C4927 C4929 1.327 . S
C4927 H4950 0.950 . S
C4928 C4927 1.349 . S
C4928 C4940 1.349 . S
C4929 C4927 1.327 . S
C4929 C4945 1.429 . S
C4929 H4951 0.950 . S
C4930 H4926 0.949 . S
C4930 C4938 1.574 . S
C4930 C4946 1.368 . S
H4931 C4939 0.950 . S
H4932 C4937 0.950 . S
H4933 C4938 0.949 . S
H4934 C4940 0.950 . S
H4935 C4941 0.950 . S
H4936 C4942 0.949 . S
C4937 H4932 0.950 . S
C4937 C4939 1.327 . S
C4937 C4943 1.429 . S
C4938 C4930 1.574 . S
C4938 H4933 0.949 . S
C4938 C4944 1.368 . S
C4939 C4923 1.349 . S
C4939 H4931 0.950 . S
C4939 C4937 1.327 . S
C4940 C4928 1.349 . S
C4940 H4934 0.950 . S
C4940 C4941 1.327 . S
C4941 H4935 0.950 . S
C4941 C4940 1.327 . S
C4941 C4945 1.429 . S
C4942 C4925 1.574 . S
C4942 H4936 0.949 . S
C4942 C4946 1.368 . S
C4943 C4924 1.429 . S
C4943 C4937 1.429 . S
C4943 C4944 1.523 . S
C4944 C4925 1.368 . S
C4944 C4938 1.368 . S
C4944 C4943 1.523 . S
C4945 C4929 1.429 . S
C4945 C4941 1.429 . S
C4945 C4946 1.523 . S
C4946 C4930 1.368 . S
C4946 C4942 1.368 . S
C4946 C4945 1.523 . S
H4947 C4922 0.950 . S
H4948 C4924 0.950 . S
H4949 C4925 0.949 . S
H4950 C4927 0.950 . S
H4951 C4929 0.950 . S
C4952 C4953 1.349 . S
C4952 C4954 1.327 . S
C4952 H4977 0.950 . S
C4953 C4952 1.349 . S
C4953 C4969 1.349 . S
C4954 C4952 1.327 . S
C4954 C4973 1.429 . S
C4954 H4978 0.950 . S
C4955 C4972 1.574 . S
C4955 C4974 1.368 . S
C4955 H4979 0.949 . S
H4956 C4960 0.949 . S
C4957 C4958 1.349 . S
C4957 C4959 1.327 . S
C4957 H4980 0.950 . S
C4958 C4957 1.349 . S
C4958 C4970 1.349 . S
C4959 C4957 1.327 . S
C4959 C4975 1.429 . S
C4959 H4981 0.950 . S
C4960 H4956 0.949 . S
C4960 C4968 1.574 . S
C4960 C4976 1.368 . S
H4961 C4969 0.950 . S
H4962 C4967 0.950 . S
H4963 C4968 0.949 . S
H4964 C4970 0.950 . S
H4965 C4971 0.950 . S
H4966 C4972 0.949 . S
C4967 H4962 0.950 . S
C4967 C4969 1.327 . S
C4967 C4973 1.429 . S
C4968 C4960 1.574 . S
C4968 H4963 0.949 . S
C4968 C4974 1.368 . S
C4969 C4953 1.349 . S
C4969 H4961 0.950 . S
C4969 C4967 1.327 . S
C4970 C4958 1.349 . S
C4970 H4964 0.950 . S
C4970 C4971 1.327 . S
C4971 H4965 0.950 . S
C4971 C4970 1.327 . S
C4971 C4975 1.429 . S
C4972 C4955 1.574 . S
C4972 H4966 0.949 . S
C4972 C4976 1.368 . S
C4973 C4954 1.429 . S
C4973 C4967 1.429 . S
C4973 C4974 1.523 . S
C4974 C4955 1.368 . S
C4974 C4968 1.368 . S
C4974 C4973 1.523 . S
C4975 C4959 1.429 . S
C4975 C4971 1.429 . S
C4975 C4976 1.523 . S
C4976 C4960 1.368 . S
C4976 C4972 1.368 . S
C4976 C4975 1.523 . S
H4977 C4952 0.950 . S
H4978 C4954 0.950 . S
H4979 C4955 0.949 . S
H4980 C4957 0.950 . S
H4981 C4959 0.950 . S
C4982 C4983 1.349 . S
C4982 C4984 1.327 . S
C4982 H5007 0.950 . S
C4983 C4982 1.349 . S
C4983 C4999 1.349 . S
C4984 C4982 1.327 . S
C4984 C5003 1.429 . S
C4984 H5008 0.950 . S
C4985 C5002 1.574 . S
C4985 C5004 1.368 . S
C4985 H5009 0.949 . S
H4986 C4990 0.949 . S
C4987 C4988 1.349 . S
C4987 C4989 1.327 . S
C4987 H5010 0.950 . S
C4988 C4987 1.349 . S
C4988 C5000 1.349 . S
C4989 C4987 1.327 . S
C4989 C5005 1.429 . S
C4989 H5011 0.950 . S
C4990 H4986 0.949 . S
C4990 C4998 1.574 . S
C4990 C5006 1.368 . S
H4991 C4999 0.950 . S
H4992 C4997 0.950 . S
H4993 C4998 0.949 . S
H4994 C5000 0.950 . S
H4995 C5001 0.950 . S
H4996 C5002 0.949 . S
C4997 H4992 0.950 . S
C4997 C4999 1.327 . S
C4997 C5003 1.429 . S
C4998 C4990 1.574 . S
C4998 H4993 0.949 . S
C4998 C5004 1.368 . S
C4999 C4983 1.349 . S
C4999 H4991 0.950 . S
C4999 C4997 1.327 . S
C5000 C4988 1.349 . S
C5000 H4994 0.950 . S
C5000 C5001 1.327 . S
C5001 H4995 0.950 . S
C5001 C5000 1.327 . S
C5001 C5005 1.429 . S
C5002 C4985 1.574 . S
C5002 H4996 0.949 . S
C5002 C5006 1.368 . S
C5003 C4984 1.429 . S
C5003 C4997 1.429 . S
C5003 C5004 1.523 . S
C5004 C4985 1.368 . S
C5004 C4998 1.368 . S
C5004 C5003 1.523 . S
C5005 C4989 1.429 . S
C5005 C5001 1.429 . S
C5005 C5006 1.523 . S
C5006 C4990 1.368 . S
C5006 C5002 1.368 . S
C5006 C5005 1.523 . S
H5007 C4982 0.950 . S
H5008 C4984 0.950 . S
H5009 C4985 0.949 . S
H5010 C4987 0.950 . S
H5011 C4989 0.950 . S
C5012 C5013 1.349 . S
C5012 C5014 1.327 . S
C5012 H5037 0.950 . S
C5013 C5012 1.349 . S
C5013 C5029 1.349 . S
C5014 C5012 1.327 . S
C5014 C5033 1.429 . S
C5014 H5038 0.950 . S
C5015 C5032 1.574 . S
C5015 C5034 1.368 . S
C5015 H5039 0.949 . S
H5016 C5020 0.949 . S
C5017 C5018 1.349 . S
C5017 C5019 1.327 . S
C5017 H5040 0.950 1_655 S
C5018 C5017 1.349 . S
C5018 C5030 1.349 . S
C5019 C5017 1.327 . S
C5019 C5035 1.429 . S
C5019 H5041 0.950 . S
C5020 H5016 0.949 . S
C5020 C5028 1.574 . S
C5020 C5036 1.368 . S
H5021 C5029 0.950 . S
H5022 C5027 0.950 . S
H5023 C5028 0.949 . S
H5024 C5030 0.950 . S
H5025 C5031 0.950 . S
H5026 C5032 0.949 . S
C5027 H5022 0.950 . S
C5027 C5029 1.327 . S
C5027 C5033 1.429 . S
C5028 C5020 1.574 . S
C5028 H5023 0.949 . S
C5028 C5034 1.368 . S
C5029 C5013 1.349 . S
C5029 H5021 0.950 . S
C5029 C5027 1.327 . S
C5030 C5018 1.349 . S
C5030 H5024 0.950 . S
C5030 C5031 1.327 . S
C5031 H5025 0.950 . S
C5031 C5030 1.327 . S
C5031 C5035 1.429 . S
C5032 C5015 1.574 . S
C5032 H5026 0.949 . S
C5032 C5036 1.368 . S
C5033 C5014 1.429 . S
C5033 C5027 1.429 . S
C5033 C5034 1.523 . S
C5034 C5015 1.368 . S
C5034 C5028 1.368 . S
C5034 C5033 1.523 . S
C5035 C5019 1.429 . S
C5035 C5031 1.429 . S
C5035 C5036 1.523 . S
C5036 C5020 1.368 . S
C5036 C5032 1.368 . S
C5036 C5035 1.523 . S
H5037 C5012 0.950 . S
H5038 C5014 0.950 . S
H5039 C5015 0.949 . S
H5040 C5017 0.950 1_455 S
H5041 C5019 0.950 . S
C5042 C5043 1.349 . S
C5042 C5044 1.327 . S
C5042 H5067 0.950 . S
C5043 C5042 1.349 . S
C5043 C5059 1.349 . S
C5044 C5042 1.327 . S
C5044 C5063 1.429 . S
C5044 H5068 0.950 . S
C5045 C5062 1.574 . S
C5045 C5064 1.368 . S
C5045 H5069 0.949 . S
H5046 C5050 0.949 . S
C5047 C5048 1.349 . S
C5047 C5049 1.327 . S
C5047 H5070 0.950 . S
C5048 C5047 1.349 . S
C5048 C5060 1.349 . S
C5049 C5047 1.327 . S
C5049 C5065 1.429 . S
C5049 H5071 0.950 . S
C5050 H5046 0.949 . S
C5050 C5058 1.574 . S
C5050 C5066 1.368 . S
H5051 C5059 0.950 . S
H5052 C5057 0.950 . S
H5053 C5058 0.949 . S
H5054 C5060 0.950 . S
H5055 C5061 0.950 . S
H5056 C5062 0.949 . S
C5057 H5052 0.950 . S
C5057 C5059 1.327 . S
C5057 C5063 1.429 . S
C5058 C5050 1.574 . S
C5058 H5053 0.949 . S
C5058 C5064 1.368 . S
C5059 C5043 1.349 . S
C5059 H5051 0.950 . S
C5059 C5057 1.327 . S
C5060 C5048 1.349 . S
C5060 H5054 0.950 . S
C5060 C5061 1.327 . S
C5061 H5055 0.950 . S
C5061 C5060 1.327 . S
C5061 C5065 1.429 . S
C5062 C5045 1.574 . S
C5062 H5056 0.949 . S
C5062 C5066 1.368 . S
C5063 C5044 1.429 . S
C5063 C5057 1.429 . S
C5063 C5064 1.523 . S
C5064 C5045 1.368 . S
C5064 C5058 1.368 . S
C5064 C5063 1.523 . S
C5065 C5049 1.429 . S
C5065 C5061 1.429 . S
C5065 C5066 1.523 . S
C5066 C5050 1.368 . S
C5066 C5062 1.368 . S
C5066 C5065 1.523 . S
H5067 C5042 0.950 . S
H5068 C5044 0.950 . S
H5069 C5045 0.949 . S
H5070 C5047 0.950 . S
H5071 C5049 0.950 . S
C5072 C5073 1.349 . S
C5072 C5074 1.327 . S
C5072 H5097 0.950 . S
C5073 C5072 1.349 . S
C5073 C5089 1.349 . S
C5074 C5072 1.327 . S
C5074 C5093 1.429 . S
C5074 H5098 0.950 . S
C5075 C5092 1.574 . S
C5075 C5094 1.368 . S
C5075 H5099 0.949 . S
H5076 C5080 0.949 . S
C5077 C5078 1.349 . S
C5077 C5079 1.327 . S
C5077 H5100 0.950 . S
C5078 C5077 1.349 . S
C5078 C5090 1.349 . S
C5079 C5077 1.327 . S
C5079 C5095 1.429 . S
C5079 H5101 0.950 . S
C5080 H5076 0.949 . S
C5080 C5088 1.574 . S
C5080 C5096 1.368 . S
H5081 C5089 0.950 . S
H5082 C5087 0.950 . S
H5083 C5088 0.949 . S
H5084 C5090 0.950 . S
H5085 C5091 0.950 . S
H5086 C5092 0.949 . S
C5087 H5082 0.950 . S
C5087 C5089 1.327 . S
C5087 C5093 1.429 . S
C5088 C5080 1.574 . S
C5088 H5083 0.949 . S
C5088 C5094 1.368 . S
C5089 C5073 1.349 . S
C5089 H5081 0.950 . S
C5089 C5087 1.327 . S
C5090 C5078 1.349 . S
C5090 H5084 0.950 . S
C5090 C5091 1.327 . S
C5091 H5085 0.950 . S
C5091 C5090 1.327 . S
C5091 C5095 1.429 . S
C5092 C5075 1.574 . S
C5092 H5086 0.949 . S
C5092 C5096 1.368 . S
C5093 C5074 1.429 . S
C5093 C5087 1.429 . S
C5093 C5094 1.523 . S
C5094 C5075 1.368 . S
C5094 C5088 1.368 . S
C5094 C5093 1.523 . S
C5095 C5079 1.429 . S
C5095 C5091 1.429 . S
C5095 C5096 1.523 . S
C5096 C5080 1.368 . S
C5096 C5092 1.368 . S
C5096 C5095 1.523 . S
H5097 C5072 0.950 . S
H5098 C5074 0.950 . S
H5099 C5075 0.949 . S
H5100 C5077 0.950 . S
H5101 C5079 0.950 . S
C5102 C5103 1.349 . S
C5102 C5104 1.327 . S
C5102 H5127 0.950 . S
C5103 C5102 1.349 . S
C5103 C5119 1.349 . S
C5104 C5102 1.327 . S
C5104 C5123 1.429 . S
C5104 H5128 0.950 . S
C5105 C5122 1.574 . S
C5105 C5124 1.368 . S
C5105 H5129 0.949 . S
H5106 C5110 0.949 . S
C5107 C5108 1.349 1_565 S
C5107 C5109 1.327 . S
C5107 H5130 0.950 . S
C5108 C5107 1.349 1_545 S
C5108 C5120 1.349 . S
C5109 C5107 1.327 . S
C5109 C5125 1.429 . S
C5109 H5131 0.950 . S
C5110 H5106 0.949 . S
C5110 C5118 1.574 . S
C5110 C5126 1.368 . S
H5111 C5119 0.950 . S
H5112 C5117 0.950 . S
H5113 C5118 0.949 . S
H5114 C5120 0.950 . S
H5115 C5121 0.950 . S
H5116 C5122 0.949 . S
C5117 H5112 0.950 . S
C5117 C5119 1.327 . S
C5117 C5123 1.429 . S
C5118 C5110 1.574 . S
C5118 H5113 0.949 . S
C5118 C5124 1.368 . S
C5119 C5103 1.349 . S
C5119 H5111 0.950 . S
C5119 C5117 1.327 . S
C5120 C5108 1.349 . S
C5120 H5114 0.950 . S
C5120 C5121 1.327 . S
C5121 H5115 0.950 . S
C5121 C5120 1.327 . S
C5121 C5125 1.429 1_545 S
C5122 C5105 1.574 . S
C5122 H5116 0.949 . S
C5122 C5126 1.368 . S
C5123 C5104 1.429 . S
C5123 C5117 1.429 . S
C5123 C5124 1.523 . S
C5124 C5105 1.368 . S
C5124 C5118 1.368 . S
C5124 C5123 1.523 . S
C5125 C5109 1.429 . S
C5125 C5121 1.429 1_565 S
C5125 C5126 1.523 . S
C5126 C5110 1.368 . S
C5126 C5122 1.368 . S
C5126 C5125 1.523 . S
H5127 C5102 0.950 . S
H5128 C5104 0.950 . S
H5129 C5105 0.949 . S
H5130 C5107 0.950 . S
H5131 C5109 0.950 . S
C5132 C5133 1.349 . S
C5132 C5134 1.327 . S
C5132 H5157 0.950 . S
C5133 C5132 1.349 . S
C5133 C5149 1.349 . S
C5134 C5132 1.327 . S
C5134 C5153 1.429 . S
C5134 H5158 0.950 . S
C5135 C5152 1.574 . S
C5135 C5154 1.368 . S
C5135 H5159 0.949 . S
H5136 C5140 0.949 . S
C5137 C5138 1.349 . S
C5137 C5139 1.327 . S
C5137 H5160 0.950 . S
C5138 C5137 1.349 . S
C5138 C5150 1.349 . S
C5139 C5137 1.327 . S
C5139 C5155 1.429 . S
C5139 H5161 0.950 . S
C5140 H5136 0.949 . S
C5140 C5148 1.574 . S
C5140 C5156 1.368 . S
H5141 C5149 0.950 . S
H5142 C5147 0.950 . S
H5143 C5148 0.949 . S
H5144 C5150 0.950 . S
H5145 C5151 0.950 . S
H5146 C5152 0.949 . S
C5147 H5142 0.950 . S
C5147 C5149 1.327 . S
C5147 C5153 1.429 . S
C5148 C5140 1.574 . S
C5148 H5143 0.949 . S
C5148 C5154 1.368 . S
C5149 C5133 1.349 . S
C5149 H5141 0.950 . S
C5149 C5147 1.327 . S
C5150 C5138 1.349 . S
C5150 H5144 0.950 . S
C5150 C5151 1.327 . S
C5151 H5145 0.950 . S
C5151 C5150 1.327 . S
C5151 C5155 1.429 . S
C5152 C5135 1.574 . S
C5152 H5146 0.949 . S
C5152 C5156 1.368 . S
C5153 C5134 1.429 . S
C5153 C5147 1.429 . S
C5153 C5154 1.523 . S
C5154 C5135 1.368 . S
C5154 C5148 1.368 . S
C5154 C5153 1.523 . S
C5155 C5139 1.429 . S
C5155 C5151 1.429 . S
C5155 C5156 1.523 . S
C5156 C5140 1.368 . S
C5156 C5152 1.368 . S
C5156 C5155 1.523 . S
H5157 C5132 0.950 . S
H5158 C5134 0.950 . S
H5159 C5135 0.949 . S
H5160 C5137 0.950 . S
H5161 C5139 0.950 . S
C5162 C5163 1.349 . S
C5162 C5164 1.327 . S
C5162 H5187 0.950 . S
C5163 C5162 1.349 . S
C5163 C5179 1.349 1_556 S
C5164 C5162 1.327 . S
C5164 C5183 1.429 . S
C5164 H5188 0.950 . S
C5165 C5182 1.574 . S
C5165 C5184 1.372 1_554 S
C5165 H5189 0.949 . S
H5166 C5170 0.949 . S
C5167 C5168 1.349 . S
C5167 C5169 1.327 . S
C5167 H5190 0.950 . S
C5168 C5167 1.349 . S
C5168 C5180 1.327 1_554 S
C5169 C5167 1.327 . S
C5169 C5185 1.429 . S
C5169 H5191 0.950 . S
C5170 H5166 0.949 . S
C5170 C5178 1.574 . S
C5170 C5186 1.368 1_556 S
H5171 C5179 0.950 . S
H5172 C5177 0.950 . S
H5173 C5178 0.949 . S
H5174 C5180 0.964 . S
H5175 C5181 0.950 . S
H5176 C5182 0.949 . S
C5177 H5172 0.950 . S
C5177 C5179 1.327 . S
C5177 C5183 1.429 1_554 S
C5178 C5170 1.574 . S
C5178 H5173 0.949 . S
C5178 C5184 1.366 . S
C5179 C5163 1.349 1_554 S
C5179 H5171 0.950 . S
C5179 C5177 1.327 . S
C5180 C5168 1.327 1_556 S
C5180 H5174 0.964 . S
C5180 C5181 1.336 . S
C5181 H5175 0.950 . S
C5181 C5180 1.336 . S
C5181 C5185 1.429 1_556 S
C5182 C5165 1.574 . S
C5182 H5176 0.949 . S
C5182 C5186 1.368 . S
C5183 C5164 1.429 . S
C5183 C5177 1.429 1_556 S
C5183 C5184 1.522 . S
C5184 C5165 1.372 1_556 S
C5184 C5178 1.366 . S
C5184 C5183 1.522 . S
C5185 C5169 1.429 . S
C5185 C5181 1.429 1_554 S
C5185 C5186 1.523 . S
C5186 C5170 1.368 1_554 S
C5186 C5182 1.368 . S
C5186 C5185 1.523 . S
H5187 C5162 0.950 . S
H5188 C5164 0.950 . S
H5189 C5165 0.949 . S
H5190 C5167 0.950 . S
H5191 C5169 0.950 . S
C5192 C5193 1.349 . S
C5192 C5194 1.327 . S
C5192 H5217 0.950 . S
C5193 C5192 1.349 . S
C5193 C5209 1.349 . S
C5194 C5192 1.327 . S
C5194 C5213 1.429 . S
C5194 H5218 0.950 . S
C5195 C5212 1.574 . S
C5195 C5214 1.368 . S
C5195 H5219 0.949 . S
H5196 C5200 0.949 . S
C5197 C5198 1.349 . S
C5197 C5199 1.327 . S
C5197 H5220 0.950 . S
C5198 C5197 1.349 . S
C5198 C5210 1.349 . S
C5199 C5197 1.327 . S
C5199 C5215 1.429 . S
C5199 H5221 0.950 . S
C5200 H5196 0.949 . S
C5200 C5208 1.574 . S
C5200 C5216 1.368 . S
H5201 C5209 0.950 . S
H5202 C5207 0.950 . S
H5203 C5208 0.949 . S
H5204 C5210 0.950 . S
H5205 C5211 0.950 . S
H5206 C5212 0.949 . S
C5207 H5202 0.950 . S
C5207 C5209 1.327 . S
C5207 C5213 1.429 . S
C5208 C5200 1.574 . S
C5208 H5203 0.949 . S
C5208 C5214 1.368 . S
C5209 C5193 1.349 . S
C5209 H5201 0.950 . S
C5209 C5207 1.327 . S
C5210 C5198 1.349 . S
C5210 H5204 0.950 . S
C5210 C5211 1.327 . S
C5211 H5205 0.950 . S
C5211 C5210 1.327 . S
C5211 C5215 1.429 . S
C5212 C5195 1.574 . S
C5212 H5206 0.949 . S
C5212 C5216 1.368 . S
C5213 C5194 1.429 . S
C5213 C5207 1.429 . S
C5213 C5214 1.523 . S
C5214 C5195 1.368 . S
C5214 C5208 1.368 . S
C5214 C5213 1.523 . S
C5215 C5199 1.429 . S
C5215 C5211 1.429 . S
C5215 C5216 1.523 . S
C5216 C5200 1.368 . S
C5216 C5212 1.368 . S
C5216 C5215 1.523 . S
H5217 C5192 0.950 . S
H5218 C5194 0.950 . S
H5219 C5195 0.949 . S
H5220 C5197 0.950 . S
H5221 C5199 0.950 . S
C5222 C5223 1.349 . S
C5222 C5224 1.327 . S
C5222 H5247 0.950 1_554 S
C5223 C5222 1.349 . S
C5223 C5239 1.349 . S
C5224 C5222 1.327 . S
C5224 C5243 1.429 . S
C5224 H5248 0.950 1_554 S
C5225 C5242 1.574 . S
C5225 C5244 1.368 . S
C5225 H5249 0.949 . S
H5226 C5230 0.949 . S
C5227 C5228 1.411 . S
C5227 C5229 1.327 . S
C5227 H5250 0.950 . S
C5228 C5227 1.411 . S
C5228 C5240 1.294 1_554 S
C5229 C5227 1.327 . S
C5229 C5245 1.429 . S
C5229 H5251 0.950 . S
C5230 H5226 0.949 . S
C5230 C5238 1.574 . S
C5230 C5246 1.368 1_556 S
H5231 C5239 0.950 . S
H5232 C5237 0.950 . S
H5233 C5238 0.949 . S
H5234 C5240 0.950 . S
H5235 C5241 0.950 . S
H5236 C5242 0.949 . S
C5237 H5232 0.950 . S
C5237 C5239 1.327 . S
C5237 C5243 1.429 . S
C5238 C5230 1.574 . S
C5238 H5233 0.949 . S
C5238 C5244 1.368 1_556 S
C5239 C5223 1.349 . S
C5239 H5231 0.950 . S
C5239 C5237 1.327 . S
C5240 C5228 1.294 1_556 S
C5240 H5234 0.950 . S
C5240 C5241 1.327 . S
C5241 H5235 0.950 . S
C5241 C5240 1.327 . S
C5241 C5245 1.429 1_556 S
C5242 C5225 1.574 . S
C5242 H5236 0.949 . S
C5242 C5246 1.368 . S
C5243 C5224 1.429 . S
C5243 C5237 1.429 . S
C5243 C5244 1.523 . S
C5244 C5225 1.368 . S
C5244 C5238 1.368 1_554 S
C5244 C5243 1.523 . S
C5245 C5229 1.429 . S
C5245 C5241 1.429 1_554 S
C5245 C5246 1.523 . S
C5246 C5230 1.368 1_554 S
C5246 C5242 1.368 . S
C5246 C5245 1.523 . S
H5247 C5222 0.950 1_556 S
H5248 C5224 0.950 1_556 S
H5249 C5225 0.949 . S
H5250 C5227 0.950 . S
H5251 C5229 0.950 . S
C5252 C5253 1.349 . S
C5252 C5254 1.327 . S
C5252 H5277 0.950 . S
C5253 C5252 1.349 . S
C5253 C5269 1.349 . S
C5254 C5252 1.327 . S
C5254 C5273 1.429 . S
C5254 H5278 0.950 . S
C5255 C5272 1.574 . S
C5255 C5274 1.368 . S
C5255 H5279 0.949 . S
H5256 C5260 0.949 . S
C5257 C5258 1.349 . S
C5257 C5259 1.327 . S
C5257 H5280 0.950 . S
C5258 C5257 1.349 . S
C5258 C5270 1.349 . S
C5259 C5257 1.327 . S
C5259 C5275 1.429 . S
C5259 H5281 0.950 . S
C5260 H5256 0.949 . S
C5260 C5268 1.574 . S
C5260 C5276 1.368 . S
H5261 C5269 0.950 . S
H5262 C5267 0.950 . S
H5263 C5268 0.949 . S
H5264 C5270 0.950 . S
H5265 C5271 0.950 . S
H5266 C5272 0.949 . S
C5267 H5262 0.950 . S
C5267 C5269 1.327 . S
C5267 C5273 1.429 . S
C5268 C5260 1.574 . S
C5268 H5263 0.949 . S
C5268 C5274 1.368 . S
C5269 C5253 1.349 . S
C5269 H5261 0.950 . S
C5269 C5267 1.327 . S
C5270 C5258 1.349 . S
C5270 H5264 0.950 . S
C5270 C5271 1.327 . S
C5271 H5265 0.950 . S
C5271 C5270 1.327 . S
C5271 C5275 1.429 . S
C5272 C5255 1.574 . S
C5272 H5266 0.949 . S
C5272 C5276 1.368 . S
C5273 C5254 1.429 . S
C5273 C5267 1.429 . S
C5273 C5274 1.523 . S
C5274 C5255 1.368 . S
C5274 C5268 1.368 . S
C5274 C5273 1.523 . S
C5275 C5259 1.429 . S
C5275 C5271 1.429 . S
C5275 C5276 1.523 . S
C5276 C5260 1.368 . S
C5276 C5272 1.368 . S
C5276 C5275 1.523 . S
H5277 C5252 0.950 . S
H5278 C5254 0.950 . S
H5279 C5255 0.949 . S
H5280 C5257 0.950 . S
H5281 C5259 0.950 . S
C5282 C5283 1.349 . S
C5282 C5284 1.327 . S
C5282 H5307 0.950 . S
C5283 C5282 1.349 . S
C5283 C5299 1.349 . S
C5284 C5282 1.327 . S
C5284 C5303 1.429 . S
C5284 H5308 0.950 . S
C5285 C5302 1.574 . S
C5285 C5304 1.368 . S
C5285 H5309 0.949 . S
H5286 C5290 0.949 . S
C5287 C5288 1.349 . S
C5287 C5289 1.327 . S
C5287 H5310 0.950 . S
C5288 C5287 1.349 . S
C5288 C5300 1.349 . S
C5289 C5287 1.327 . S
C5289 C5305 1.429 . S
C5289 H5311 0.950 . S
C5290 H5286 0.949 . S
C5290 C5298 1.574 . S
C5290 C5306 1.368 . S
H5291 C5299 0.950 . S
H5292 C5297 0.950 . S
H5293 C5298 0.949 . S
H5294 C5300 0.950 . S
H5295 C5301 0.950 . S
H5296 C5302 0.949 . S
C5297 H5292 0.950 . S
C5297 C5299 1.327 . S
C5297 C5303 1.429 . S
C5298 C5290 1.574 . S
C5298 H5293 0.949 . S
C5298 C5304 1.368 . S
C5299 C5283 1.349 . S
C5299 H5291 0.950 . S
C5299 C5297 1.327 . S
C5300 C5288 1.349 . S
C5300 H5294 0.950 . S
C5300 C5301 1.327 . S
C5301 H5295 0.950 . S
C5301 C5300 1.327 . S
C5301 C5305 1.429 . S
C5302 C5285 1.574 . S
C5302 H5296 0.949 . S
C5302 C5306 1.368 . S
C5303 C5284 1.429 . S
C5303 C5297 1.429 . S
C5303 C5304 1.523 . S
C5304 C5285 1.368 . S
C5304 C5298 1.368 . S
C5304 C5303 1.523 . S
C5305 C5289 1.429 . S
C5305 C5301 1.429 . S
C5305 C5306 1.523 . S
C5306 C5290 1.368 . S
C5306 C5302 1.368 . S
C5306 C5305 1.523 . S
H5307 C5282 0.950 . S
H5308 C5284 0.950 . S
H5309 C5285 0.949 . S
H5310 C5287 0.950 . S
H5311 C5289 0.950 . S
C2433 C665 0.996 . S
C2438 C2128 0.979 . S
C2463 C381 1.065 . S
C2468 C2141 1.057 . S
C2493 C460 1.109 . S
C2498 C2160 1.098 . S
C2528 C2191 1.972 . S
C2523 C585 2.028 . S
C2553 C108 1.788 . S
C2558 C2211 1.716 1_565 S
C2588 C2228 0.578 . S
C2583 C196 0.581 . S
C2618 C2241 1.409 . S
C2613 C313 1.411 . S
C2643 C49 0.721 . S
C2648 C2268 0.724 . S
C2678 C2121 0.989 1_655 S
C2673 C1457 0.993 . S
C2703 C1545 1.259 . S
C2708 C2151 1.227 . S
C2738 C2153 1.727 . S
C2733 C1721 1.746 . S
C2768 C2188 0.712 . S
C2763 C1113 0.715 . S
C2793 C1428 1.015 . S
C2798 C2208 1.026 . S
C2828 C2221 1.834 . S
C2823 C1516 1.825 . S
C2858 C2251 1.002 . S
C2853 C1692 1.026 . S
C2888 C2261 1.078 . S
C2883 C1085 1.091 . S
C2918 C2131 1.431 . S
C2913 C988 1.475 . S
C2943 C1817 1.908 . S
C2948 C2281 1.894 . S
C2978 C2311 1.488 . S
C2973 C2081 1.518 . S
C3008 C2328 1.011 . S
C3003 C1993 1.013 . S
C3033 C761 1.997 . S
C3038 C2271 1.945 . S
C3063 C821 1.051 . S
C3068 C2158 1.024 . S
C3093 C2053 1.955 . S
C3098 C2341 1.945 . S
C3128 C2368 0.620 . S
C3123 C1868 0.614 . S
C3158 C2118 0.975 . S
C3153 C372 0.992 . S
C3188 C2353 1.054 . S
C3183 C645 1.060 . S
C3213 C577 1.104 . S
C3218 C2171 1.092 . S
C3243 C497 2.023 . S
C3248 C2340 1.968 . S
C3278 C2200 1.740 . S
C3273 C57 1.784 . S
C3303 C293 0.574 . S
C3308 C2298 0.572 . S
C3338 C2233 1.406 1_556 S
C3333 C205 1.406 . S
C3368 C2378 0.719 . S
C3363 C145 0.722 . S
C3398 C2113 0.983 . S
C3393 C909 0.988 . S
C3428 C2360 1.222 . S
C3423 C1956 1.256 . S
C3453 C724 1.740 . S
C3458 C2161 1.723 . S
C3483 C1780 0.708 . S
C3488 C2338 0.706 . S
C3513 C937 1.010 . S
C3518 C2198 1.015 . S
C3548 C2293 1.831 . S
C3543 C1985 1.820 . S
C3573 C753 1.022 . S
C3578 C2240 0.998 . S
C3603 C1809 1.087 . S
C3608 C2373 1.074 . S
C3633 C1173 1.470 . S
C3638 C2120 1.427 . S
C3663 C1105 1.903 . S
C3668 C2273 1.891 . S
C3693 C1633 1.515 . S
C3698 C2220 1.484 . S
C3723 C1553 1.008 . S
C3728 C2318 1.006 . S
C3758 C2380 1.942 . S
C3753 C1729 1.993 . S
C3783 C1340 1.049 . S
C3788 C2168 1.022 . S
C3818 C2173 1.941 . S
C3813 C1604 1.950 . S
C3848 C2138 0.615 . S
C3843 C1252 0.608 . S
C3873 C489 0.996 . S
C3878 C2408 0.978 . S
C3908 C2361 1.057 . S
C3903 C557 1.065 . S
C3933 C636 1.108 . S
C3938 C2420 1.098 1_556 S
C3963 C409 2.028 . S
C3968 C2351 1.972 . S
C3993 C284 1.788 . S
C3998 C2291 1.743 . S
C4028 C2308 0.578 . S
C4023 C20 0.581 . S
C4058 C2321 1.409 . S
C4053 C137 1.409 . S
C4088 C2388 0.724 . S
C4083 C225 0.721 . S
C4118 C2401 0.987 . S
C4113 C1641 0.993 . S
C4143 C1193 1.259 . S
C4148 C2371 1.232 . S
C4178 C2413 1.727 . S
C4173 C1289 1.746 . S
C4208 C2348 0.712 . S
C4203 C1377 0.715 . S
C4238 C2288 1.025 . S
C4233 C1613 1.014 . S
C4263 C1164 1.825 . S
C4268 C2301 1.828 . S
C4298 C2331 1.002 . S
C4293 C1261 1.027 . S
C4323 C1349 1.091 . S
C4328 C2381 1.078 . S
C4358 C2411 1.431 . S
C4353 C1965 1.475 . S
C4383 C849 1.908 . S
C4388 C2201 1.894 . S
C4418 C2231 1.488 . S
C4413 C929 1.525 . S
C4448 C2248 1.011 . S
C4443 C1017 1.013 . S
C4478 C2391 1.945 . S
C4473 C1897 1.997 . S
C4503 C1789 1.051 . S
C4508 C2418 1.025 . S
C4538 C2181 1.944 . S
C4533 C900 1.947 . S
C4568 C2148 0.620 . S
C4563 C733 0.614 . S
C4593 C548 0.992 . S
C4598 C2398 0.974 . S
C4628 C2133 1.054 . S
C4623 C469 1.060 . S
C4653 C401 1.104 . S
C4658 C2431 1.092 . S
C4683 C673 2.023 . S
C4688 C2180 1.969 . S
C4713 C233 1.784 . S
C4718 C2280 1.739 1_556 S
C4748 C2218 0.572 . S
C4743 C117 0.569 . S
C4773 C29 1.406 . S
C4778 C2313 1.406 . S
C4803 C321 0.716 . S
C4808 C2258 0.719 . S
C4838 C2393 0.983 . S
C4833 C2044 0.988 . S
C4863 C997 1.256 . S
C4868 C2140 1.222 . S
C4898 C2421 1.723 1_655 S
C4893 C1877 1.740 . S
C4923 C812 0.708 . S
C4928 C2178 0.706 . S
C4953 C2073 1.010 . S
C4958 C2278 1.019 . S
C4988 C2213 1.831 . S
C4983 C1025 1.820 . S
C5013 C1905 1.022 . S
C5018 C2320 1.020 . S
C5048 C2253 1.074 . S
C5043 C841 1.087 . S
C5078 C2400 1.427 . S
C5073 C1525 1.471 . S
C5108 C2193 1.890 . S
C5103 C1369 1.903 . S
C5133 C1465 1.515 . S
C5138 C2300 1.484 . S
C5168 C2238 1.005 . S
C5163 C1201 1.007 . S
C5193 C1281 1.993 . S
C5198 C2260 1.942 . S
C5223 C1076 1.049 . S
C5228 C2428 1.039 . S
C5258 C2333 1.941 . S
C5253 C1437 1.950 . S
C5288 C2358 0.615 . S
C5283 C1701 0.608 . S
