# Generated by pormake.
# Topology gar, (4,6)-cn, num edge types: 1
# Building blocks:
#     Node 0, Type 0, BuildingBlock: TATPOV_clean_sbu_0, # of connection points: 4
#     Node 1, Type 0, BuildingBlock: TATPOV_clean_sbu_0, # of connection points: 4
#     Node 2, Type 0, BuildingBlock: TATPOV_clean_sbu_0, # of connection points: 4
#     Node 3, Type 0, BuildingBlock: TATPOV_clean_sbu_0, # of connection points: 4
#     Node 4, Type 0, BuildingBlock: TATPOV_clean_sbu_0, # of connection points: 4
#     Node 5, Type 0, BuildingBlock: TATPOV_clean_sbu_0, # of connection points: 4
#     Node 6, Type 0, BuildingBlock: TATPOV_clean_sbu_0, # of connection points: 4
#     Node 7, Type 0, BuildingBlock: TATPOV_clean_sbu_0, # of connection points: 4
#     Node 8, Type 0, BuildingBlock: TATPOV_clean_sbu_0, # of connection points: 4
#     Node 9, Type 0, BuildingBlock: TATPOV_clean_sbu_0, # of connection points: 4
#     Node 10, Type 0, BuildingBlock: TATPOV_clean_sbu_0, # of connection points: 4
#     Node 11, Type 0, BuildingBlock: TATPOV_clean_sbu_0, # of connection points: 4
#     Node 12, Type 0, BuildingBlock: TATPOV_clean_sbu_0, # of connection points: 4
#     Node 13, Type 0, BuildingBlock: TATPOV_clean_sbu_0, # of connection points: 4
#     Node 14, Type 0, BuildingBlock: TATPOV_clean_sbu_0, # of connection points: 4
#     Node 15, Type 0, BuildingBlock: TATPOV_clean_sbu_0, # of connection points: 4
#     Node 16, Type 0, BuildingBlock: TATPOV_clean_sbu_0, # of connection points: 4
#     Node 17, Type 0, BuildingBlock: TATPOV_clean_sbu_0, # of connection points: 4
#     Node 18, Type 0, BuildingBlock: TATPOV_clean_sbu_0, # of connection points: 4
#     Node 19, Type 0, BuildingBlock: TATPOV_clean_sbu_0, # of connection points: 4
#     Node 20, Type 0, BuildingBlock: TATPOV_clean_sbu_0, # of connection points: 4
#     Node 21, Type 0, BuildingBlock: TATPOV_clean_sbu_0, # of connection points: 4
#     Node 22, Type 0, BuildingBlock: TATPOV_clean_sbu_0, # of connection points: 4
#     Node 23, Type 0, BuildingBlock: TATPOV_clean_sbu_0, # of connection points: 4
#     Node 24, Type 1, BuildingBlock: PAMTUU_clean_sbu_0, # of connection points: 6
#     Node 25, Type 1, BuildingBlock: PAMTUU_clean_sbu_0, # of connection points: 6
#     Node 26, Type 1, BuildingBlock: PAMTUU_clean_sbu_0, # of connection points: 6
#     Node 27, Type 1, BuildingBlock: PAMTUU_clean_sbu_0, # of connection points: 6
#     Node 28, Type 1, BuildingBlock: PAMTUU_clean_sbu_0, # of connection points: 6
#     Node 29, Type 1, BuildingBlock: PAMTUU_clean_sbu_0, # of connection points: 6
#     Node 30, Type 1, BuildingBlock: PAMTUU_clean_sbu_0, # of connection points: 6
#     Node 31, Type 1, BuildingBlock: PAMTUU_clean_sbu_0, # of connection points: 6
#     Node 32, Type 1, BuildingBlock: PAMTUU_clean_sbu_0, # of connection points: 6
#     Node 33, Type 1, BuildingBlock: PAMTUU_clean_sbu_0, # of connection points: 6
#     Node 34, Type 1, BuildingBlock: PAMTUU_clean_sbu_0, # of connection points: 6
#     Node 35, Type 1, BuildingBlock: PAMTUU_clean_sbu_0, # of connection points: 6
#     Node 36, Type 1, BuildingBlock: PAMTUU_clean_sbu_0, # of connection points: 6
#     Node 37, Type 1, BuildingBlock: PAMTUU_clean_sbu_0, # of connection points: 6
#     Node 38, Type 1, BuildingBlock: PAMTUU_clean_sbu_0, # of connection points: 6
#     Node 39, Type 1, BuildingBlock: PAMTUU_clean_sbu_0, # of connection points: 6
#     Edge 40, Type (0, 1), BuildingBlock: MIFKUJ_clean_linker_0, # of connection points: 2
#     Edge 41, Type (0, 1), BuildingBlock: MIFKUJ_clean_linker_0, # of connection points: 2
#     Edge 42, Type (0, 1), BuildingBlock: MIFKUJ_clean_linker_0, # of connection points: 2
#     Edge 43, Type (0, 1), BuildingBlock: MIFKUJ_clean_linker_0, # of connection points: 2
#     Edge 44, Type (0, 1), BuildingBlock: MIFKUJ_clean_linker_0, # of connection points: 2
#     Edge 45, Type (0, 1), BuildingBlock: MIFKUJ_clean_linker_0, # of connection points: 2
#     Edge 46, Type (0, 1), BuildingBlock: MIFKUJ_clean_linker_0, # of connection points: 2
#     Edge 47, Type (0, 1), BuildingBlock: MIFKUJ_clean_linker_0, # of connection points: 2
#     Edge 48, Type (0, 1), BuildingBlock: MIFKUJ_clean_linker_0, # of connection points: 2
#     Edge 49, Type (0, 1), BuildingBlock: MIFKUJ_clean_linker_0, # of connection points: 2
#     Edge 50, Type (0, 1), BuildingBlock: MIFKUJ_clean_linker_0, # of connection points: 2
#     Edge 51, Type (0, 1), BuildingBlock: MIFKUJ_clean_linker_0, # of connection points: 2
#     Edge 52, Type (0, 1), BuildingBlock: MIFKUJ_clean_linker_0, # of connection points: 2
#     Edge 53, Type (0, 1), BuildingBlock: MIFKUJ_clean_linker_0, # of connection points: 2
#     Edge 54, Type (0, 1), BuildingBlock: MIFKUJ_clean_linker_0, # of connection points: 2
#     Edge 55, Type (0, 1), BuildingBlock: MIFKUJ_clean_linker_0, # of connection points: 2
#     Edge 56, Type (0, 1), BuildingBlock: MIFKUJ_clean_linker_0, # of connection points: 2
#     Edge 57, Type (0, 1), BuildingBlock: MIFKUJ_clean_linker_0, # of connection points: 2
#     Edge 58, Type (0, 1), BuildingBlock: MIFKUJ_clean_linker_0, # of connection points: 2
#     Edge 59, Type (0, 1), BuildingBlock: MIFKUJ_clean_linker_0, # of connection points: 2
#     Edge 60, Type (0, 1), BuildingBlock: MIFKUJ_clean_linker_0, # of connection points: 2
#     Edge 61, Type (0, 1), BuildingBlock: MIFKUJ_clean_linker_0, # of connection points: 2
#     Edge 62, Type (0, 1), BuildingBlock: MIFKUJ_clean_linker_0, # of connection points: 2
#     Edge 63, Type (0, 1), BuildingBlock: MIFKUJ_clean_linker_0, # of connection points: 2
#     Edge 64, Type (0, 1), BuildingBlock: MIFKUJ_clean_linker_0, # of connection points: 2
#     Edge 65, Type (0, 1), BuildingBlock: MIFKUJ_clean_linker_0, # of connection points: 2
#     Edge 66, Type (0, 1), BuildingBlock: MIFKUJ_clean_linker_0, # of connection points: 2
#     Edge 67, Type (0, 1), BuildingBlock: MIFKUJ_clean_linker_0, # of connection points: 2
#     Edge 68, Type (0, 1), BuildingBlock: MIFKUJ_clean_linker_0, # of connection points: 2
#     Edge 69, Type (0, 1), BuildingBlock: MIFKUJ_clean_linker_0, # of connection points: 2
#     Edge 70, Type (0, 1), BuildingBlock: MIFKUJ_clean_linker_0, # of connection points: 2
#     Edge 71, Type (0, 1), BuildingBlock: MIFKUJ_clean_linker_0, # of connection points: 2
#     Edge 72, Type (0, 1), BuildingBlock: MIFKUJ_clean_linker_0, # of connection points: 2
#     Edge 73, Type (0, 1), BuildingBlock: MIFKUJ_clean_linker_0, # of connection points: 2
#     Edge 74, Type (0, 1), BuildingBlock: MIFKUJ_clean_linker_0, # of connection points: 2
#     Edge 75, Type (0, 1), BuildingBlock: MIFKUJ_clean_linker_0, # of connection points: 2
#     Edge 76, Type (0, 1), BuildingBlock: MIFKUJ_clean_linker_0, # of connection points: 2
#     Edge 77, Type (0, 1), BuildingBlock: MIFKUJ_clean_linker_0, # of connection points: 2
#     Edge 78, Type (0, 1), BuildingBlock: MIFKUJ_clean_linker_0, # of connection points: 2
#     Edge 79, Type (0, 1), BuildingBlock: MIFKUJ_clean_linker_0, # of connection points: 2
#     Edge 80, Type (0, 1), BuildingBlock: MIFKUJ_clean_linker_0, # of connection points: 2
#     Edge 81, Type (0, 1), BuildingBlock: MIFKUJ_clean_linker_0, # of connection points: 2
#     Edge 82, Type (0, 1), BuildingBlock: MIFKUJ_clean_linker_0, # of connection points: 2
#     Edge 83, Type (0, 1), BuildingBlock: MIFKUJ_clean_linker_0, # of connection points: 2
#     Edge 84, Type (0, 1), BuildingBlock: MIFKUJ_clean_linker_0, # of connection points: 2
#     Edge 85, Type (0, 1), BuildingBlock: MIFKUJ_clean_linker_0, # of connection points: 2
#     Edge 86, Type (0, 1), BuildingBlock: MIFKUJ_clean_linker_0, # of connection points: 2
#     Edge 87, Type (0, 1), BuildingBlock: MIFKUJ_clean_linker_0, # of connection points: 2
#     Edge 88, Type (0, 1), BuildingBlock: MIFKUJ_clean_linker_0, # of connection points: 2
#     Edge 89, Type (0, 1), BuildingBlock: MIFKUJ_clean_linker_0, # of connection points: 2
#     Edge 90, Type (0, 1), BuildingBlock: MIFKUJ_clean_linker_0, # of connection points: 2
#     Edge 91, Type (0, 1), BuildingBlock: MIFKUJ_clean_linker_0, # of connection points: 2
#     Edge 92, Type (0, 1), BuildingBlock: MIFKUJ_clean_linker_0, # of connection points: 2
#     Edge 93, Type (0, 1), BuildingBlock: MIFKUJ_clean_linker_0, # of connection points: 2
#     Edge 94, Type (0, 1), BuildingBlock: MIFKUJ_clean_linker_0, # of connection points: 2
#     Edge 95, Type (0, 1), BuildingBlock: MIFKUJ_clean_linker_0, # of connection points: 2
#     Edge 96, Type (0, 1), BuildingBlock: MIFKUJ_clean_linker_0, # of connection points: 2
#     Edge 97, Type (0, 1), BuildingBlock: MIFKUJ_clean_linker_0, # of connection points: 2
#     Edge 98, Type (0, 1), BuildingBlock: MIFKUJ_clean_linker_0, # of connection points: 2
#     Edge 99, Type (0, 1), BuildingBlock: MIFKUJ_clean_linker_0, # of connection points: 2
#     Edge 100, Type (0, 1), BuildingBlock: MIFKUJ_clean_linker_0, # of connection points: 2
#     Edge 101, Type (0, 1), BuildingBlock: MIFKUJ_clean_linker_0, # of connection points: 2
#     Edge 102, Type (0, 1), BuildingBlock: MIFKUJ_clean_linker_0, # of connection points: 2
#     Edge 103, Type (0, 1), BuildingBlock: MIFKUJ_clean_linker_0, # of connection points: 2
#     Edge 104, Type (0, 1), BuildingBlock: MIFKUJ_clean_linker_0, # of connection points: 2
#     Edge 105, Type (0, 1), BuildingBlock: MIFKUJ_clean_linker_0, # of connection points: 2
#     Edge 106, Type (0, 1), BuildingBlock: MIFKUJ_clean_linker_0, # of connection points: 2
#     Edge 107, Type (0, 1), BuildingBlock: MIFKUJ_clean_linker_0, # of connection points: 2
#     Edge 108, Type (0, 1), BuildingBlock: MIFKUJ_clean_linker_0, # of connection points: 2
#     Edge 109, Type (0, 1), BuildingBlock: MIFKUJ_clean_linker_0, # of connection points: 2
#     Edge 110, Type (0, 1), BuildingBlock: MIFKUJ_clean_linker_0, # of connection points: 2
#     Edge 111, Type (0, 1), BuildingBlock: MIFKUJ_clean_linker_0, # of connection points: 2
#     Edge 112, Type (0, 1), BuildingBlock: MIFKUJ_clean_linker_0, # of connection points: 2
#     Edge 113, Type (0, 1), BuildingBlock: MIFKUJ_clean_linker_0, # of connection points: 2
#     Edge 114, Type (0, 1), BuildingBlock: MIFKUJ_clean_linker_0, # of connection points: 2
#     Edge 115, Type (0, 1), BuildingBlock: MIFKUJ_clean_linker_0, # of connection points: 2
#     Edge 116, Type (0, 1), BuildingBlock: MIFKUJ_clean_linker_0, # of connection points: 2
#     Edge 117, Type (0, 1), BuildingBlock: MIFKUJ_clean_linker_0, # of connection points: 2
#     Edge 118, Type (0, 1), BuildingBlock: MIFKUJ_clean_linker_0, # of connection points: 2
#     Edge 119, Type (0, 1), BuildingBlock: MIFKUJ_clean_linker_0, # of connection points: 2
#     Edge 120, Type (0, 1), BuildingBlock: MIFKUJ_clean_linker_0, # of connection points: 2
#     Edge 121, Type (0, 1), BuildingBlock: MIFKUJ_clean_linker_0, # of connection points: 2
#     Edge 122, Type (0, 1), BuildingBlock: MIFKUJ_clean_linker_0, # of connection points: 2
#     Edge 123, Type (0, 1), BuildingBlock: MIFKUJ_clean_linker_0, # of connection points: 2
#     Edge 124, Type (0, 1), BuildingBlock: MIFKUJ_clean_linker_0, # of connection points: 2
#     Edge 125, Type (0, 1), BuildingBlock: MIFKUJ_clean_linker_0, # of connection points: 2
#     Edge 126, Type (0, 1), BuildingBlock: MIFKUJ_clean_linker_0, # of connection points: 2
#     Edge 127, Type (0, 1), BuildingBlock: MIFKUJ_clean_linker_0, # of connection points: 2
#     Edge 128, Type (0, 1), BuildingBlock: MIFKUJ_clean_linker_0, # of connection points: 2
#     Edge 129, Type (0, 1), BuildingBlock: MIFKUJ_clean_linker_0, # of connection points: 2
#     Edge 130, Type (0, 1), BuildingBlock: MIFKUJ_clean_linker_0, # of connection points: 2
#     Edge 131, Type (0, 1), BuildingBlock: MIFKUJ_clean_linker_0, # of connection points: 2
#     Edge 132, Type (0, 1), BuildingBlock: MIFKUJ_clean_linker_0, # of connection points: 2
#     Edge 133, Type (0, 1), BuildingBlock: MIFKUJ_clean_linker_0, # of connection points: 2
#     Edge 134, Type (0, 1), BuildingBlock: MIFKUJ_clean_linker_0, # of connection points: 2
#     Edge 135, Type (0, 1), BuildingBlock: MIFKUJ_clean_linker_0, # of connection points: 2
# Relax obj value: 0.162
# Max RMSD: 0.309
# Mean RMSD: 0.175
data_MOF--net-gar--node1-TATPOV_clean_sbu_0--node2-PAMTUU_clean_sbu_0--edge1-MIFKUJ_clean_linker_0
_symmetry_space_group_name_H-M    P1
_symmetry_Int_Tables_number       1
_symmetry_cell_setting            triclinic
loop_
_symmetry_equiv_pos_as_xyz
'x, y, z'
_cell_length_a     76.661021
_cell_length_b     72.301792
_cell_length_c     76.209917
_cell_angle_alpha  93.746487
_cell_angle_beta   93.866035
_cell_angle_gamma 108.06592
loop_
_atom_site_label
_atom_site_type_symbol
_atom_site_fract_x
_atom_site_fract_y
_atom_site_fract_z
_atom_type_partial_charge
Zn0 Zn 0.01476 0.26293 0.39524 0.0
Zn1 Zn 0.04335 0.27099 0.37619 0.0
O2 O 0.04649 0.29962 0.3928 0.0
O3 O 0.02264 0.29045 0.4084 0.0
O4 O 0.06963 0.27344 0.36221 0.0
O5 O 0.01712 0.23872 0.40666 0.0
O6 O 0.0409 0.24367 0.39094 0.0
C7 C 0.03635 0.30413 0.40437 0.0
C8 C 1.00135 0.26364 0.35894 0.0
O9 O 0.01887 0.26841 0.35694 0.0
O10 O 0.99605 0.25918 0.37394 0.0
C11 C 0.07248 0.26922 0.34596 0.0
O12 O 0.05797 0.26327 0.33435 0.0
C13 C 0.03037 0.23328 0.40183 0.0
Zn14 Zn 0.0308 0.7594 0.67881 0.0
Zn15 Zn 0.03702 0.78726 0.65705 0.0
O16 O 0.01096 0.78625 0.67119 0.0
O17 O 0.00866 0.76418 0.69013 0.0
O18 O 0.04218 0.81396 0.64148 0.0
O19 O 0.05679 0.76847 0.692 0.0
O20 O 0.06412 0.79092 0.67326 0.0
C21 C 1.00225 0.7767 0.68362 0.0
C22 C 0.02955 0.7423 0.64218 0.0
O23 O 0.03351 0.76046 0.63887 0.0
O24 O 0.02671 0.7382 0.65792 0.0
C25 C 0.03041 0.81957 0.63187 0.0
O26 O 0.01317 0.80828 0.63045 0.0
C27 C 0.06916 0.78208 0.68606 0.0
Zn28 Zn 0.51479 0.763 0.89482 0.0
Zn29 Zn 0.54318 0.77102 0.87626 0.0
O30 O 0.54626 0.79954 0.8929 0.0
O31 O 0.52216 0.79033 0.90814 0.0
O32 O 0.56938 0.77455 0.86201 0.0
O33 O 0.51704 0.73876 0.90601 0.0
O34 O 0.54133 0.74365 0.89107 0.0
C35 C 0.53592 0.80402 0.90426 0.0
C36 C 0.50094 0.76363 0.85898 0.0
O37 O 0.51848 0.7684 0.85698 0.0
O38 O 0.49572 0.75914 0.87398 0.0
C39 C 0.57194 0.76578 0.84737 0.0
O40 O 0.55722 0.7536 0.8383 0.0
C41 C 0.53043 0.73322 0.90169 0.0
Zn42 Zn 0.53095 0.25889 0.17879 0.0
Zn43 Zn 0.53761 0.28641 0.15672 0.0
O44 O 0.51141 0.28551 0.17045 0.0
O45 O 0.50887 0.26406 0.19004 0.0
O46 O 0.54331 0.31299 0.14109 0.0
O47 O 0.55687 0.26761 0.19199 0.0
O48 O 0.56456 0.28983 0.17309 0.0
C49 C 0.50258 0.27638 0.18301 0.0
C50 C 0.52999 0.2416 0.14216 0.0
O51 O 0.53409 0.2597 0.1387 0.0
O52 O 0.52695 0.23767 0.15791 0.0
C53 C 0.53256 0.32007 0.13159 0.0
O54 O 0.51483 0.31055 0.12985 0.0
C55 C 0.56941 0.28098 0.18598 0.0
Zn56 Zn 0.09963 0.79807 0.09906 0.0
Zn57 Zn 0.07093 0.78999 0.11864 0.0
O58 O 0.07049 0.81446 0.10589 0.0
O59 O 0.09308 0.81996 0.08859 0.0
O60 O 0.0478 0.78403 0.13164 0.0
O61 O 0.09047 0.77062 0.08736 0.0
O62 O 0.06661 0.76431 0.1031 0.0
C63 C 0.07972 0.82443 0.09443 0.0
C64 C 0.11007 0.79978 0.1364 0.0
O65 O 0.09273 0.79424 0.1376 0.0
O66 O 0.11632 0.80325 0.12157 0.0
C67 C 0.04733 0.78954 0.14776 0.0
O68 O 0.06273 0.79981 0.1571 0.0
C69 C 0.07578 0.75874 0.0917 0.0
Zn70 Zn 0.47714 0.74962 0.43594 0.0
Zn71 Zn 0.50251 0.75551 0.41248 0.0
O72 O 0.50871 0.78211 0.42744 0.0
O73 O 0.4905 0.77588 0.44896 0.0
O74 O 0.52294 0.75845 0.39589 0.0
O75 O 0.4818 0.72564 0.44389 0.0
O76 O 0.50417 0.73193 0.42621 0.0
C77 C 0.50315 0.78769 0.44164 0.0
C78 C 0.46264 0.74959 0.39958 0.0
O79 O 0.47901 0.75133 0.39587 0.0
O80 O 0.45866 0.74847 0.41543 0.0
C81 C 0.53757 0.77308 0.39746 0.0
O82 O 0.53943 0.78736 0.40972 0.0
C83 C 0.49519 0.72168 0.43764 0.0
Zn84 Zn 0.59973 0.29824 0.59766 0.0
Zn85 Zn 0.57184 0.29004 0.61841 0.0
O86 O 0.5703 0.3144 0.60638 0.0
O87 O 0.59394 0.32204 0.59032 0.0
O88 O 0.54924 0.28317 0.63194 0.0
O89 O 0.5887 0.27194 0.58365 0.0
O90 O 0.56704 0.26501 0.60194 0.0
C91 C 0.58001 0.32551 0.59592 0.0
C92 C 0.61123 0.29783 0.63477 0.0
O93 O 0.59416 0.29431 0.63688 0.0
O94 O 0.61674 0.30011 0.61951 0.0
C95 C 0.54823 0.29137 0.64694 0.0
O96 O 0.56278 0.30509 0.65469 0.0
C97 C 0.57459 0.25993 0.58887 0.0
Zn98 Zn 0.97233 0.24606 0.93227 0.0
Zn99 Zn 0.00253 0.25508 0.91462 0.0
O100 O 0.00739 0.28078 0.92958 0.0
O101 O 0.98165 0.27417 0.94273 0.0
O102 O 0.02561 0.25887 0.90164 0.0
O103 O 0.97834 0.2248 0.94427 0.0
O104 O 0.00295 0.23215 0.9295 0.0
C105 C 0.99696 0.28608 0.93972 0.0
C106 C 0.96317 0.24538 0.89566 0.0
O107 O 0.98068 0.2518 0.89553 0.0
O108 O 0.95599 0.24005 0.90971 0.0
C109 C 0.02962 0.26899 0.88857 0.0
O110 O 0.0181 0.2777 0.88237 0.0
C111 C 0.99311 0.22191 0.94043 0.0
Zn112 Zn 0.4622 0.02481 0.2889 0.0
Zn113 Zn 0.44499 0.04509 0.29411 0.0
O114 O 0.44685 0.04171 0.31917 0.0
O115 O 0.45978 0.0189 0.31381 0.0
O116 O 0.43321 0.06523 0.29089 0.0
O117 O 0.47321 0.05675 0.28713 0.0
O118 O 0.47266 0.05636 0.28683 0.0
C119 C 0.45318 0.02861 0.32444 0.0
C120 C 0.42703 0.00485 0.27538 0.0
O121 O 0.4261 0.02035 0.28336 0.0
O122 O 0.44269 0.00353 0.27263 0.0
C123 C 0.41716 0.06152 0.2959 0.0
O124 O 0.41009 0.0455 0.30364 0.0
C125 C 0.47355 0.06495 0.27287 0.0
Zn126 Zn 0.27375 0.20995 0.51205 0.0
Zn127 Zn 0.29598 0.19036 0.51231 0.0
O128 O 0.29928 0.20396 0.48804 0.0
O129 O 0.27918 0.21999 0.48832 0.0
O130 O 0.31614 0.17734 0.51422 0.0
O131 O 0.28296 0.22533 0.53555 0.0
O132 O 0.2995 0.20553 0.53794 0.0
C133 C 0.29096 0.21455 0.48034 0.0
C134 C 0.25529 0.16873 0.51185 0.0
O135 O 0.2714 0.16754 0.51049 0.0
O136 O 0.25279 0.18525 0.51307 0.0
C137 C 0.31341 0.15943 0.50921 0.0
O138 O 0.29715 0.14886 0.50165 0.0
C139 C 0.29331 0.21851 0.545 0.0
Zn140 Zn 0.13713 0.04318 0.80517 0.0
Zn141 Zn 0.15348 0.02095 0.80887 0.0
O142 O 0.14027 0.01882 0.8307 0.0
O143 O 0.13655 0.0478 0.83065 0.0
O144 O 0.16466 1.00026 0.80857 0.0
O145 O 0.11528 0.02525 0.79072 0.0
O146 O 0.13852 0.01514 0.7849 0.0
C147 C 0.13653 0.03298 0.83849 0.0
C148 C 0.17331 0.06048 0.80287 0.0
O149 O 0.17403 0.04643 0.81163 0.0
O150 O 0.15853 0.05952 0.79389 0.0
C151 C 0.17987 0.00124 0.81675 0.0
O152 O 0.18901 0.0169 0.82725 0.0
C153 C 0.12265 0.01624 0.78034 0.0
Zn154 Zn 0.31801 0.90615 -0.00135 0.0
Zn155 Zn 0.28611 0.90626 0.99223 0.0
O156 O 0.28596 0.88788 0.97158 0.0
O157 O 0.31628 0.90028 0.97226 0.0
O158 O 0.263 0.91307 0.9916 0.0
O159 O 0.31094 0.88307 0.01141 0.0
O160 O 0.2889 0.89558 0.01652 0.0
C161 C 0.30089 0.89 0.96443 0.0
C162 C 0.31663 0.94111 -0.00017 0.0
O163 O 0.30457 0.93171 0.98774 0.0
O164 O 0.31926 0.9319 0.01263 0.0
C165 C 0.26237 0.9276 0.98337 0.0
O166 O 0.27468 0.93469 0.97235 0.0
C167 C 0.29857 0.88479 0.02088 0.0
Zn168 Zn 0.29873 0.33597 0.02043 0.0
Zn169 Zn 0.2796 0.36039 0.02102 0.0
O170 O 0.27461 0.3461 -0.00458 0.0
O171 O 0.28856 0.32372 -0.00429 0.0
O172 O 0.26091 0.37527 0.02102 0.0
O173 O 0.28919 0.32327 0.04223 0.0
O174 O 0.27587 0.34612 0.04466 0.0
C175 C 0.27886 0.33223 0.98744 0.0
C176 C 0.32057 0.37792 0.02292 0.0
O177 O 0.30503 0.38095 0.02231 0.0
O178 O 0.32134 0.36062 0.02288 0.0
C179 C 0.25912 0.38573 0.00863 0.0
O180 O 0.27005 0.38748 -0.00415 0.0
C181 C 0.28008 0.3319 0.05098 0.0
Zn182 Zn 0.75969 0.15005 0.05212 0.0
Zn183 Zn 0.78608 0.13858 0.048 0.0
O184 O 0.78266 0.14974 0.02468 0.0
O185 O 0.7528 0.14183 0.02616 0.0
O186 O 0.80548 0.12661 0.04606 0.0
O187 O 0.77721 0.17662 0.05872 0.0
O188 O 0.79177 0.15776 0.06965 0.0
C189 C 0.76659 0.14709 0.01726 0.0
C190 C 0.75291 0.11553 0.06153 0.0
O191 O 0.76407 0.11554 0.05012 0.0
O192 O 0.75578 0.13112 0.07129 0.0
C193 C 0.80048 0.11202 0.03457 0.0
O194 O 0.78443 0.1077 0.0253 0.0
C195 C 0.78739 0.17333 0.07106 0.0
Zn196 Zn 0.12155 0.52231 0.24597 0.0
Zn197 Zn 0.14275 0.50511 0.23529 0.0
O198 O 0.13682 0.49755 0.25954 0.0
O199 O 0.10832 0.49566 0.25369 0.0
O200 O 0.15785 0.4891 0.22861 0.0
O201 O 0.11573 0.52571 0.22114 0.0
O202 O 0.12244 0.4985 0.21631 0.0
C203 C 0.12039 0.49196 0.26359 0.0
C204 C 0.15862 0.54498 0.24875 0.0
O205 O 0.15842 0.53282 0.23594 0.0
O206 O 0.1453 0.54157 0.25836 0.0
C207 C 0.1741 0.49417 0.23598 0.0
O208 O 0.18081 0.51116 0.24531 0.0
C209 C 0.11528 0.51098 0.21104 0.0
Zn210 Zn 0.79893 0.83835 0.52111 0.0
Zn211 Zn 0.77832 0.85931 0.52066 0.0
O212 O 0.77422 0.84411 0.49531 0.0
O213 O 0.78975 0.82331 0.49765 0.0
O214 O 0.75859 0.87281 0.51955 0.0
O215 O 0.79337 0.82781 0.54435 0.0
O216 O 0.77437 0.84518 0.54456 0.0
C217 C 0.77979 0.83065 0.48832 0.0
C218 C 0.81917 0.87923 0.52076 0.0
O219 O 0.80344 0.8816 0.52186 0.0
O220 O 0.82056 0.86222 0.52041 0.0
C221 C 0.7595 0.88662 0.50975 0.0
O222 O 0.77372 0.89253 0.50046 0.0
C223 C 0.78176 0.83373 0.55208 0.0
Zn224 Zn 0.92786 0.99731 0.21369 0.0
Zn225 Zn 0.9165 0.02585 0.21359 0.0
O226 O 0.92871 0.02743 0.23798 0.0
O227 O 0.92042 0.99564 0.2388 0.0
O228 O 0.90616 0.04714 0.21351 0.0
O229 O 0.9525 0.0158 0.21029 0.0
O230 O 0.9348 0.0298 0.19624 0.0
C231 C 0.92631 0.01264 0.24673 0.0
C232 C 0.89498 0.98737 0.19833 0.0
O233 O 0.89483 0.00166 0.20871 0.0
O234 O 0.90982 0.98845 0.19168 0.0
C235 C 0.89435 0.04476 0.22464 0.0
O236 O 0.89095 0.02958 0.23394 0.0
C237 C 0.95008 0.02654 0.19856 0.0
Zn238 Zn 0.25351 0.64268 0.55251 0.0
Zn239 Zn 0.28474 0.6388 0.54609 0.0
O240 O 0.27966 0.65305 0.52535 0.0
O241 O 0.24955 0.64419 0.52619 0.0
O242 O 0.30708 0.63192 0.54265 0.0
O243 O 0.26667 0.66708 0.56708 0.0
O244 O 0.28825 0.65294 0.57001 0.0
C245 C 0.26371 0.6514 0.51815 0.0
C246 C 0.25389 0.6058 0.55374 0.0
O247 O 0.26671 0.61237 0.54409 0.0
O248 O 0.25025 0.61769 0.56458 0.0
C249 C 0.30441 0.61976 0.52921 0.0
O250 O 0.28964 0.6166 0.51818 0.0
C251 C 0.28087 0.66546 0.57532 0.0
Zn252 Zn 0.42678 0.49703 0.71481 0.0
Zn253 Zn 0.41229 0.52199 0.71553 0.0
O254 O 0.42593 0.52524 0.73957 0.0
O255 O 0.42243 0.49406 0.74026 0.0
O256 O 0.40155 0.54309 0.71608 0.0
O257 O 0.45003 0.51651 0.70944 0.0
O258 O 0.4286 0.52618 0.69611 0.0
C259 C 0.42628 0.51094 0.7482 0.0
C260 C 0.39262 0.48235 0.70142 0.0
O261 O 0.39193 0.49643 0.71183 0.0
O262 O 0.40748 0.48395 0.69458 0.0
C263 C 0.38628 0.53978 0.72261 0.0
O264 O 0.37788 0.52232 0.72733 0.0
C265 C 0.44477 0.52495 0.69713 0.0
Zn266 Zn 0.60925 0.03822 0.73917 0.0
Zn267 Zn 0.63904 0.00708 0.73082 0.0
O268 O 0.64527 0.01124 0.7577 0.0
O269 O 0.63049 0.02995 0.74875 0.0
O270 O 0.64773 0.98482 0.72395 0.0
O271 O 0.59344 0.01845 0.7189 0.0
O272 O 0.61136 0.00223 0.72787 0.0
C273 C 0.63591 0.02232 0.76151 0.0
C274 C 0.65172 0.04933 0.7265 0.0
O275 O 0.65327 0.03268 0.72181 0.0
O276 O 0.63747 0.05099 0.73359 0.0
C277 C 0.66511 0.9898 0.72709 0.0
O278 O 0.67449 0.00845 0.73025 0.0
C279 C 0.60092 0.00533 0.71559 0.0
Zn280 Zn 0.7759 0.71202 0.0111 0.0
Zn281 Zn 0.79631 0.69024 0.01337 0.0
O282 O 0.79984 0.70277 0.98871 0.0
O283 O 0.78701 0.72604 0.99031 0.0
O284 O 0.81585 0.67664 0.01583 0.0
O285 O 0.78141 0.72308 0.03669 0.0
O286 O 0.80043 0.70586 0.03862 0.0
C287 C 0.79584 0.71682 0.98182 0.0
C288 C 0.75552 0.67036 0.00802 0.0
O289 O 0.77131 0.66845 0.0117 0.0
O290 O 0.75415 0.68715 0.00605 0.0
C291 C 0.81435 0.65992 0.0083 0.0
O292 O 0.79955 0.65072 -0.00236 0.0
C293 C 0.79279 0.71739 0.04592 0.0
Zn294 Zn 0.96958 0.51635 0.79873 0.0
Zn295 Zn 0.94563 0.54188 0.79019 0.0
O296 O 0.94525 0.54427 0.81572 0.0
O297 O 0.96967 0.53417 0.82078 0.0
O298 O 0.93428 0.56122 0.78166 0.0
O299 O 0.98462 0.52677 0.7783 0.0
O300 O 0.97194 0.54789 0.78713 0.0
C301 C 0.95832 0.5426 0.82588 0.0
C302 C 0.92993 0.49805 0.78449 0.0
O303 O 0.92925 0.51499 0.78181 0.0
O304 O 0.94448 0.49556 0.79153 0.0
C305 C 0.91807 0.55774 0.78634 0.0
O306 O 0.91093 0.54251 0.79505 0.0
C307 C 0.97722 0.53954 0.77451 0.0
Zn308 Zn 0.81687 0.40312 0.49681 0.0
Zn309 Zn 0.78648 0.4041 0.4919 0.0
O310 O 0.78713 0.38795 0.46959 0.0
O311 O 0.81721 0.40115 0.47041 0.0
O312 O 0.76279 0.40912 0.49242 0.0
O313 O 0.8105 0.3788 0.50854 0.0
O314 O 0.79016 0.39291 0.51557 0.0
C315 C 0.80198 0.39131 0.46202 0.0
C316 C 0.81646 0.43916 0.50203 0.0
O317 O 0.80366 0.43108 0.49007 0.0
O318 O 0.82097 0.42834 0.51253 0.0
C319 C 0.76137 0.42396 0.48518 0.0
O320 O 0.77241 0.43121 0.47313 0.0
C321 C 0.7996 0.38173 0.51927 0.0
Zn322 Zn 0.63378 0.54379 0.32172 0.0
Zn323 Zn 0.64935 0.51416 0.30978 0.0
O324 O 0.63775 0.50871 0.33201 0.0
O325 O 0.65318 0.53875 0.33927 0.0
O326 O 0.66302 0.49599 0.307 0.0
O327 O 0.62406 0.53507 0.29534 0.0
O328 O 0.63194 0.50878 0.28885 0.0
C329 C 0.64483 0.52233 0.34404 0.0
C330 C 0.66502 0.55665 0.30493 0.0
O331 O 0.66766 0.54094 0.30912 0.0
O332 O 0.64905 0.55847 0.304 0.0
C333 C 0.67929 0.49977 0.31407 0.0
O334 O 0.68727 0.51632 0.32381 0.0
C335 C 0.62384 0.52082 0.28455 0.0
Tb336 Tb 0.06675 0.04004 0.02429 0.0
Tb337 Tb 0.01698 0.01467 0.01578 0.0
C338 C 0.04273 0.04345 0.04743 0.0
C339 C 0.11469 0.04042 0.02772 0.0
C340 C 0.13941 0.01978 0.03557 0.0
C341 C 0.1376 0.0341 0.04799 0.0
C342 C 0.12539 0.04438 0.04407 0.0
C343 C 0.11645 0.02604 0.01532 0.0
C344 C 0.12871 0.01583 0.01921 0.0
C345 C 0.10113 0.05067 0.02428 0.0
O346 O 0.05965 0.01169 0.03617 0.0
O347 O 0.02823 0.99374 0.02772 0.0
O348 O 0.0267 0.01015 0.9909 0.0
O349 O 0.05383 0.01367 0.00669 0.0
O350 O 0.99551 0.01433 0.03124 0.0
O351 O 0.99032 0.99856 0.00498 0.0
O352 O 0.02198 0.04353 0.00631 0.0
O353 O 0.0543 0.05908 0.00982 0.0
O354 O 0.06021 0.05159 0.04939 0.0
O355 O 0.03798 0.03504 0.03176 0.0
C356 C 0.04479 0.9958 0.03563 0.0
O357 O 0.08992 0.04495 0.00983 0.0
O358 O 0.09261 0.05361 0.03791 0.0
C359 C 0.04435 0.01257 0.99149 0.0
C360 C 0.96883 0.01394 0.01422 0.0
C361 C 0.94313 0.03358 0.00752 0.0
C362 C 0.95056 0.02611 0.99342 0.0
C363 C 0.9634 0.01638 -0.00325 0.0
C364 C 0.96109 0.02107 0.02822 0.0
C365 C 0.94839 0.03082 0.02492 0.0
C366 C 0.98313 0.00492 0.01836 0.0
C367 C 0.03709 0.05837 0.00468 0.0
H368 H 0.14567 0.03739 0.06069 0.0
H369 H 0.12424 0.05536 0.05389 0.0
H370 H 0.10844 0.02268 0.0026 0.0
H371 H 0.13015 0.0052 0.0092 0.0
H372 H 0.94668 0.02806 0.9799 0.0
H373 H 0.9692 0.01103 0.98568 0.0
H374 H 0.96502 0.01928 0.04178 0.0
H375 H 0.94253 0.03601 0.03603 0.0
Tb376 Tb 0.27536 0.78118 0.29116 0.0
Tb377 Tb 0.29483 0.77834 0.25449 0.0
C378 C 0.25713 0.78533 0.25431 0.0
C379 C 0.25651 0.76645 0.33237 0.0
C380 C 0.25152 0.7393 0.35778 0.0
C381 C 0.24398 0.75472 0.35936 0.0
C382 C 0.24643 0.76819 0.34667 0.0
C383 C 0.26368 0.75087 0.33055 0.0
C384 C 0.26109 0.73732 0.34306 0.0
C385 C 0.25925 0.78039 0.31898 0.0
O386 O 0.27432 0.75111 0.28597 0.0
O387 O 0.2746 0.75035 0.25592 0.0
O388 O 0.30909 0.76626 0.27375 0.0
O389 O 0.30373 0.78249 0.29867 0.0
O390 O 0.2931 0.76881 0.22769 0.0
O391 O 0.3193 0.78501 0.242 0.0
O392 O 0.30786 0.80672 0.26834 0.0
O393 O 0.28437 0.81076 0.28353 0.0
O394 O 0.25478 0.77677 0.26899 0.0
O395 O 0.27342 0.79133 0.24834 0.0
C396 C 0.27114 0.7415 0.27031 0.0
O397 O 0.27627 0.79104 0.31789 0.0
O398 O 0.25087 0.77298 0.30351 0.0
C399 C 0.31348 0.77319 0.29033 0.0
C400 C 0.31448 0.79191 0.21296 0.0
C401 C 0.32271 0.81871 0.18735 0.0
C402 C 0.33601 0.81056 0.19384 0.0
C403 C 0.33189 0.79719 0.20654 0.0
C404 C 0.30137 0.80047 0.20691 0.0
C405 C 0.3054 0.81363 0.19411 0.0
C406 C 0.31046 0.77823 0.22657 0.0
C407 C 0.29974 0.81798 0.27621 0.0
H408 H 0.23674 0.75675 0.37068 0.0
H409 H 0.24069 0.78009 0.34814 0.0
H410 H 0.27143 0.74928 0.31953 0.0
H411 H 0.26682 0.72545 0.34132 0.0
H412 H 0.34953 0.81439 0.189 0.0
H413 H 0.34226 0.79096 0.21135 0.0
H414 H 0.28793 0.79686 0.21191 0.0
H415 H 0.29471 0.81934 0.18916 0.0
Tb416 Tb 0.50984 0.01724 0.52599 0.0
Tb417 Tb 0.55947 0.02443 0.5206 0.0
C418 C 0.53267 0.00785 0.55009 0.0
C419 C 0.46605 0.03083 0.52537 0.0
C420 C 0.44389 0.05521 0.52989 0.0
C421 C 0.44021 0.03772 0.53804 0.0
C422 C 0.45118 0.02569 0.5358 0.0
C423 C 0.47005 0.0485 0.51743 0.0
C424 C 0.45905 0.06063 0.51973 0.0
C425 C 0.47686 0.01726 0.52315 0.0
O426 O 0.52675 0.04603 0.53907 0.0
O427 O 0.55786 0.05242 0.53223 0.0
O428 O 0.54931 0.02784 0.49485 0.0
O429 O 0.52739 0.03636 0.5088 0.0
O430 O 0.5778 0.01449 0.53585 0.0
O431 O 0.58691 0.03274 0.51434 0.0
O432 O 0.5439 0.99548 0.5081 0.0
O433 O 0.51231 0.99045 0.51231 0.0
O434 O 0.51538 0.00519 0.55075 0.0
O435 O 0.5376 0.01508 0.53566 0.0
C436 C 0.54423 0.0575 0.53913 0.0
O437 O 0.48692 0.01854 0.5098 0.0
O438 O 0.48529 0.01432 0.53762 0.0
C439 C 0.53322 0.03064 0.49425 0.0
C440 C 0.60106 0.00813 0.51978 0.0
C441 C 0.62189 0.98357 0.50991 0.0
C442 C 0.61875 0.99693 0.49844 0.0
C443 C 0.60845 0.00911 0.50332 0.0
C444 C 0.60392 0.99454 0.53105 0.0
C445 C 0.61414 0.9824 0.52617 0.0
C446 C 0.59113 0.02165 0.52585 0.0
C447 C 0.52614 0.98502 0.50645 0.0
H448 H 0.42878 0.03328 0.54611 0.0
H449 H 0.44794 0.0122 0.54215 0.0
H450 H 0.4815 0.05285 0.50938 0.0
H451 H 0.46211 0.07398 0.51318 0.0
H452 H 0.62437 0.99809 0.48574 0.0
H453 H 0.60654 0.01945 0.49432 0.0
H454 H 0.59857 0.99355 0.54388 0.0
H455 H 0.61655 0.97259 0.53551 0.0
Tb456 Tb 0.31524 0.27529 0.77102 0.0
Tb457 Tb 0.26428 0.27148 0.76607 0.0
C458 C 0.28769 0.23984 0.77173 0.0
C459 C 0.36233 0.28178 0.75885 0.0
C460 C 0.38726 0.27225 0.73708 0.0
C461 C 0.38551 0.26583 0.75405 0.0
C462 C 0.37314 0.2705 0.76481 0.0
C463 C 0.3638 0.28783 0.74165 0.0
C464 C 0.37611 0.28302 0.73084 0.0
C465 C 0.34967 0.28703 0.77069 0.0
O466 O 0.30453 0.26609 0.74325 0.0
O467 O 0.27258 0.26356 0.73972 0.0
O468 O 0.27388 0.30261 0.76301 0.0
O469 O 0.29613 0.2909 0.76685 0.0
O470 O 0.24244 0.25198 0.77715 0.0
O471 O 0.23728 0.26969 0.75673 0.0
O472 O 0.27556 0.28172 0.79349 0.0
O473 O 0.30708 0.28282 0.79723 0.0
O474 O 0.30543 0.24409 0.77329 0.0
O475 O 0.28286 0.25512 0.76902 0.0
C476 C 0.28841 0.26258 0.73358 0.0
O477 O 0.33894 0.29627 0.76412 0.0
O478 O 0.34097 0.27342 0.78039 0.0
C479 C 0.29156 0.30624 0.7637 0.0
C480 C 0.21692 0.26336 0.77981 0.0
C481 C 0.19137 0.27238 0.80145 0.0
C482 C 0.2001 0.28534 0.78933 0.0
C483 C 0.21276 0.28091 0.77865 0.0
C484 C 0.20832 0.25053 0.79199 0.0
C485 C 0.19577 0.25498 0.80268 0.0
C486 C 0.23015 0.25804 0.76869 0.0
C487 C 0.29148 0.28444 0.80313 0.0
H488 H 0.39398 0.25749 0.75911 0.0
H489 H 0.37223 0.26553 0.77792 0.0
H490 H 0.35565 0.2965 0.7366 0.0
H491 H 0.37741 0.28832 0.71787 0.0
H492 H 0.19719 0.29896 0.78812 0.0
H493 H 0.21923 0.29121 0.7695 0.0
H494 H 0.21121 0.23689 0.79316 0.0
H495 H 0.18912 0.24445 0.81158 0.0
Tb496 Tb 0.03675 0.03742 0.53045 0.0
Tb497 Tb 0.0366 0.01231 0.49438 0.0
C498 C 1.00108 0.00849 0.51212 0.0
C499 C 0.04427 0.05243 0.57701 0.0
C500 C 0.05906 0.04522 0.60952 0.0
C501 C 0.0461 0.05539 0.60892 0.0
C502 C 0.0387 0.05892 0.59271 0.0
C503 C 0.05724 0.04236 0.57757 0.0
C504 C 0.06457 0.03877 0.59369 0.0
C505 C 0.03567 0.05456 0.55992 0.0
O506 O 0.03829 0.00905 0.53941 0.0
O507 O 0.0438 0.99364 0.51396 0.0
O508 O 0.06471 0.03143 0.4995 0.0
O509 O 0.06561 0.04006 0.52907 0.0
O510 O 0.02082 0.99057 0.47509 0.0
O511 O 0.04945 0.00524 0.47247 0.0
O512 O 0.02894 0.03823 0.48588 0.0
O513 O 0.03951 0.05931 0.51081 0.0
O514 O 0.00854 0.02681 0.51813 0.0
O515 O 0.0115 0.9988 0.50617 0.0
C516 C 0.04198 0.99413 0.53118 0.0
O517 O 0.04709 0.06231 0.5485 0.0
O518 O 0.02283 0.03885 0.55299 0.0
C519 C 0.07388 0.03934 0.51466 0.0
C520 C 0.02872 0.999 0.44707 0.0
C521 C 0.01698 0.00716 0.4137 0.0
C522 C 0.02962 0.99671 0.41531 0.0
C523 C 0.03543 0.99258 0.43197 0.0
C524 C 0.01675 0.01019 0.44547 0.0
C525 C 0.0109 0.01419 0.42893 0.0
C526 C 0.03387 0.99396 0.46454 0.0
C527 C 0.03382 0.05629 0.49377 0.0
H528 H 0.04172 0.06061 0.62097 0.0
H529 H 0.02851 0.06649 0.59243 0.0
H530 H 0.06145 0.03696 0.5655 0.0
H531 H 0.07425 0.03058 0.59373 0.0
H532 H 0.03444 0.99114 0.40368 0.0
H533 H 0.04481 0.98409 0.43304 0.0
H534 H 0.01155 0.01547 0.45698 0.0
H535 H 1.00135 0.02251 0.428 0.0
Tb536 Tb 0.29902 0.8031 0.76389 0.0
Tb537 Tb 0.28066 0.75359 0.77162 0.0
C538 C 0.29795 0.77549 0.73598 0.0
C539 C 0.29779 0.85316 0.76392 0.0
C540 C 0.27602 0.87718 0.75799 0.0
C541 C 0.2931 0.88114 0.75099 0.0
C542 C 0.3039 0.86911 0.75387 0.0
C543 C 0.28055 0.84901 0.77066 0.0
C544 C 0.26975 0.86103 0.76778 0.0
C545 C 0.30851 0.83972 0.7654 0.0
O546 O 0.26961 0.79252 0.75182 0.0
O547 O 0.25605 0.76234 0.76307 0.0
O548 O 0.28536 0.7689 0.797 0.0
O549 O 0.28004 0.79379 0.78365 0.0
O550 O 0.2749 0.7265 0.75708 0.0
O551 O 0.27057 0.7282 0.7848 0.0
O552 O 0.31071 0.76051 0.7778 0.0
O553 O 0.32269 0.79393 0.77466 0.0
O554 O 0.30457 0.79416 0.73805 0.0
O555 O 0.29137 0.76717 0.74957 0.0
C556 C 0.2548 0.77734 0.75414 0.0
O557 O 0.30707 0.83002 0.77939 0.0
O558 O 0.30732 0.82859 0.75097 0.0
C559 C 0.28442 0.78653 0.79792 0.0
C560 C 0.2843 0.7051 0.77441 0.0
C561 C 0.30683 0.68143 0.77971 0.0
C562 C 0.28954 0.67692 0.78652 0.0
C563 C 0.27834 0.68866 0.78384 0.0
C564 C 0.30193 0.71013 0.76828 0.0
C565 C 0.31306 0.69837 0.77086 0.0
C566 C 0.2723 0.71715 0.77119 0.0
C567 C 0.32477 0.77701 0.77879 0.0
H568 H 0.29808 0.8936 0.74341 0.0
H569 H 0.31696 0.87214 0.74816 0.0
H570 H 0.27534 0.83641 0.77799 0.0
H571 H 0.25669 0.85796 0.7735 0.0
H572 H 0.28449 0.66404 0.79355 0.0
H573 H 0.26493 0.68474 0.7889 0.0
H574 H 0.30697 0.72293 0.76114 0.0
H575 H 0.32618 0.7021 0.76521 0.0
Tb576 Tb 0.52889 0.01824 0.0286 0.0
Tb577 Tb 0.54096 0.04211 -0.00439 0.0
C578 C 0.56829 0.03116 0.02017 0.0
C579 C 0.51399 0.00564 0.07145 0.0
C580 C 0.5089 0.02042 0.10484 0.0
C581 C 0.5248 0.01534 0.10226 0.0
C582 C 0.52726 0.00786 0.08571 0.0
C583 C 0.49827 0.01123 0.07395 0.0
C584 C 0.49576 0.01861 0.09058 0.0
C585 C 0.51756 0.99904 0.05387 0.0
O586 O 0.5322 0.0477 0.0412 0.0
O587 O 0.5422 0.06501 0.01753 0.0
O588 O 0.51236 0.02592 0.99085 0.0
O589 O 0.50942 0.03183 0.01928 0.0
O590 O 0.56186 0.06046 0.98251 0.0
O591 O 0.53303 0.05507 0.97412 0.0
O592 O 0.54041 0.01276 0.98421 0.0
O593 O 0.52786 0.99518 0.00696 0.0
O594 O 0.55798 0.03166 0.03285 0.0
O595 O 0.56222 0.03047 0.0038 0.0
C596 C 0.53773 0.06456 0.0341 0.0
O597 O 0.50658 0.00058 0.04054 0.0
O598 O 0.53485 0.00498 0.05069 0.0
C599 C 0.50194 0.02687 0.0033 0.0
C600 C 0.55292 0.05543 0.95201 0.0
C601 C 0.55806 0.03805 0.91971 0.0
C602 C 0.54032 0.0374 0.92366 0.0
C603 C 0.53777 0.04612 0.93963 0.0
C604 C 0.57076 0.05673 0.94776 0.0
C605 C 0.57331 0.04806 0.93173 0.0
C606 C 0.54994 0.06171 0.96993 0.0
C607 C 0.53409 0.99577 0.99107 0.0
H608 H 0.53509 0.01669 0.11315 0.0
H609 H 0.53958 0.00384 0.08408 0.0
H610 H 0.48786 0.00982 0.06315 0.0
H611 H 0.48323 0.02215 0.09244 0.0
H612 H 0.52838 0.0298 0.91455 0.0
H613 H 0.52384 0.04497 0.94247 0.0
H614 H 0.58268 0.06397 0.95702 0.0
H615 H 0.58721 0.04922 0.92874 0.0
Tb616 Tb 0.27848 0.24816 0.25707 0.0
Tb617 Tb 0.29569 0.29236 0.27238 0.0
C618 C 0.27832 0.28037 0.23177 0.0
C619 C 0.28201 0.2 0.24625 0.0
C620 C 0.30495 0.17648 0.24528 0.0
C621 C 0.2871 0.1697 0.23655 0.0
C622 C 0.27569 0.18146 0.23698 0.0
C623 C 0.30002 0.20698 0.25458 0.0
C624 C 0.31142 0.19533 0.25407 0.0
C625 C 0.27002 0.21219 0.24744 0.0
O626 O 0.30821 0.25671 0.25104 0.0
O627 O 0.32144 0.2877 0.26462 0.0
O628 O 0.30575 0.27669 0.29206 0.0
O629 O 0.28108 0.24946 0.28607 0.0
O630 O 0.30786 0.3221 0.26922 0.0
O631 O 0.29839 0.31278 0.29414 0.0
O632 O 0.2664 0.28296 0.27941 0.0
O633 O 0.25251 0.25427 0.26221 0.0
O634 O 0.27064 0.26221 0.23503 0.0
O635 O 0.2888 0.29352 0.24406 0.0
C636 C 0.32294 0.27242 0.25507 0.0
O637 O 0.2689 0.21912 0.26335 0.0
O638 O 0.27268 0.22564 0.23651 0.0
C639 C 0.29476 0.26058 0.29708 0.0
C640 C 0.29109 0.3393 0.28392 0.0
C641 C 0.26638 0.36091 0.28315 0.0
C642 C 0.28142 0.36586 0.29614 0.0
C643 C 0.29372 0.35511 0.29651 0.0
C644 C 0.27578 0.33394 0.2713 0.0
C645 C 0.26359 0.34472 0.27084 0.0
C646 C 0.3034 0.32739 0.2845 0.0
C647 C 0.25126 0.26851 0.27338 0.0
H648 H 0.28191 0.15522 0.22963 0.0
H649 H 0.26188 0.176 0.23036 0.0
H650 H 0.3051 0.22129 0.26182 0.0
H651 H 0.32503 0.20077 0.26113 0.0
H652 H 0.28373 0.37812 0.30595 0.0
H653 H 0.30524 0.3591 0.30658 0.0
H654 H 0.27331 0.32147 0.26168 0.0
H655 H 0.2523 0.34068 0.26052 0.0
Tb656 Tb 0.53969 0.53761 0.03093 0.0
Tb657 Tb 0.53625 0.51252 0.99421 0.0
C658 C 0.50107 0.51114 0.01229 0.0
C659 C 0.54986 0.55521 0.07759 0.0
C660 C 0.56213 0.54609 0.11057 0.0
C661 C 0.5435 0.54446 0.10666 0.0
C662 C 0.53745 0.54909 0.09036 0.0
C663 C 0.56855 0.55712 0.08159 0.0
C664 C 0.57461 0.55264 0.09792 0.0
C665 C 0.54296 0.55794 0.05975 0.0
O666 O 0.54218 0.51057 0.04116 0.0
O667 O 0.54006 0.49258 0.01464 0.0
O668 O 0.56347 0.53404 -0.00206 0.0
O669 O 0.567 0.53574 0.02776 0.0
O670 O 0.52267 0.48764 0.97693 0.0
O671 O 0.54932 0.50683 0.97213 0.0
O672 O 0.53053 0.53856 0.98444 0.0
O673 O 0.53849 0.55832 0.0105 0.0
O674 O 0.5114 0.51821 0.02707 0.0
O675 O 0.50808 0.51132 -0.00285 0.0
C676 C 0.5417 0.49409 0.03223 0.0
O677 O 0.55498 0.56193 0.04811 0.0
O678 O 0.52761 0.54488 0.0532 0.0
C679 C 0.57412 0.53846 0.01271 0.0
C680 C 0.52782 0.49422 0.94742 0.0
C681 C 0.51474 0.50172 0.91415 0.0
C682 C 0.53376 0.50663 0.91885 0.0
C683 C 0.54023 0.50279 0.93529 0.0
C684 C 0.50878 0.4887 0.94248 0.0
C685 C 0.50232 0.49239 0.92599 0.0
C686 C 0.53484 0.49257 0.96551 0.0
C687 C 0.53391 0.55595 0.99318 0.0
H688 H 0.53351 0.53923 0.11607 0.0
H689 H 0.52297 0.5474 0.08756 0.0
H690 H 0.5785 0.56177 0.07203 0.0
H691 H 0.58911 0.55439 0.10066 0.0
H692 H 0.54366 0.51394 0.91004 0.0
H693 H 0.55497 0.50711 0.93874 0.0
H694 H 0.49884 0.48191 0.95147 0.0
H695 H 0.48757 0.48803 0.92256 0.0
Tb696 Tb 0.79956 0.30299 0.26598 0.0
Tb697 Tb 0.78001 0.25267 0.27376 0.0
C698 C 0.79641 0.27004 0.23927 0.0
C699 C 0.79649 0.35183 0.26655 0.0
C700 C 0.77463 0.375 0.25727 0.0
C701 C 0.79188 0.37817 0.25069 0.0
C702 C 0.80274 0.36663 0.25531 0.0
C703 C 0.77907 0.34843 0.27285 0.0
C704 C 0.76827 0.35997 0.26829 0.0
C705 C 0.80756 0.33909 0.27052 0.0
O706 O 0.76999 0.29533 0.25584 0.0
O707 O 0.75692 0.26255 0.26199 0.0
O708 O 0.77481 0.26347 0.29991 0.0
O709 O 0.78552 0.28386 0.2825 0.0
O710 O 0.76922 0.22542 0.25899 0.0
O711 O 0.77385 0.22773 0.28756 0.0
O712 O 0.81019 0.26244 0.28343 0.0
O713 O 0.82371 0.29425 0.27518 0.0
O714 O 0.79752 0.28852 0.24046 0.0
O715 O 0.79889 0.26116 0.25332 0.0
C716 C 0.75558 0.27905 0.25571 0.0
O717 O 0.80236 0.32763 0.28318 0.0
O718 O 0.8117 0.33015 0.25661 0.0
C719 C 0.78087 0.28174 0.29813 0.0
C720 C 0.78146 0.20286 0.2723 0.0
C721 C 0.80378 0.17877 0.27268 0.0
C722 C 0.79192 0.1783 0.28592 0.0
C723 C 0.78072 0.19024 0.28567 0.0
C724 C 0.79385 0.20373 0.25938 0.0
C725 C 0.80484 0.19163 0.25951 0.0
C726 C 0.77051 0.21622 0.27301 0.0
C727 C 0.82493 0.27814 0.28215 0.0
H728 H 0.79702 0.38971 0.24218 0.0
H729 H 0.81601 0.36923 0.25008 0.0
H730 H 0.77375 0.33691 0.28134 0.0
H731 H 0.75518 0.3575 0.27386 0.0
H732 H 0.79095 0.16832 0.29609 0.0
H733 H 0.77151 0.18969 0.29594 0.0
H734 H 0.79505 0.21369 0.24918 0.0
H735 H 0.81402 0.1921 0.24921 0.0
Tb736 Tb 0.03301 0.5179 0.53171 0.0
Tb737 Tb 0.04092 0.5418 0.49826 0.0
C738 C 0.07053 0.54074 0.52388 0.0
C739 C 0.02147 0.50694 0.57553 0.0
C740 C 0.01152 0.52149 0.60675 0.0
C741 C 0.02577 0.51312 0.60723 0.0
C742 C 0.03066 0.50581 0.59168 0.0
C743 C 0.00771 0.51605 0.57494 0.0
C744 C 0.0027 0.52324 0.59054 0.0
C745 C 0.0282 0.50118 0.55936 0.0
O746 O 0.03501 0.54823 0.54246 0.0
O747 O 0.03317 0.56254 0.51656 0.0
O748 O 0.01356 0.52193 0.49333 0.0
O749 O 0.00827 0.52327 0.52221 0.0
O750 O 0.06155 0.55628 0.48297 0.0
O751 O 0.03324 0.55609 0.47746 0.0
O752 O 0.04594 0.51348 0.49014 0.0
O753 O 0.02935 0.49447 0.51003 0.0
O754 O 0.06095 0.52291 0.52578 0.0
O755 O 0.0617 0.55256 0.5197 0.0
C756 C 0.03343 0.56329 0.53403 0.0
O757 O 0.01631 0.4959 0.54538 0.0
O758 O 0.04399 0.5133 0.55619 0.0
C759 C 1.00227 0.5197 0.50556 0.0
C760 C 0.0498 0.55289 0.45345 0.0
C761 C 0.05248 0.54154 0.41844 0.0
C762 C 0.04447 0.55609 0.42237 0.0
C763 C 0.04308 0.56172 0.4399 0.0
C764 C 0.05677 0.53745 0.44937 0.0
C765 C 0.05817 0.53186 0.43189 0.0
C766 C 0.04957 0.55985 0.47176 0.0
C767 C 0.03787 0.49583 0.49536 0.0
H768 H 0.03282 0.51187 0.61969 0.0
H769 H 0.04174 0.49945 0.59224 0.0
H770 H 1.00091 0.51766 0.56246 0.0
H771 H 0.99159 0.52957 0.58998 0.0
H772 H 0.04024 0.56373 0.41197 0.0
H773 H 0.03738 0.5734 0.4429 0.0
H774 H 0.06176 0.53017 0.45965 0.0
H775 H 0.06466 0.5208 0.42892 0.0
Tb776 Tb 0.81105 0.77321 0.27127 0.0
Tb777 Tb 0.76785 0.77545 0.26574 0.0
C778 C 0.77685 0.73943 0.27605 0.0
C779 C 0.85638 0.76846 0.25975 0.0
C780 C 0.88352 0.76434 0.23772 0.0
C781 C 0.88251 0.75717 0.2545 0.0
C782 C 0.86909 0.75923 0.26537 0.0
C783 C 0.85681 0.77489 0.24269 0.0
C784 C 0.87023 0.77282 0.23178 0.0
C785 C 0.84397 0.77277 0.27237 0.0
O786 O 0.80422 0.77262 0.24302 0.0
O787 O 0.77243 0.76114 0.24083 0.0
O788 O 0.78608 0.79998 0.25506 0.0
O789 O 0.81044 0.80259 0.27506 0.0
O790 O 0.73935 0.7608 0.26115 0.0
O791 O 0.74996 0.79233 0.26585 0.0
O792 O 0.77861 0.78776 0.2927 0.0
O793 O 0.80365 0.77662 0.29836 0.0
O794 O 0.79166 0.74408 0.2676 0.0
O795 O 0.76917 0.75234 0.28108 0.0
C796 C 0.78826 0.76428 0.2337 0.0
O797 O 0.839 0.78815 0.27 0.0
O798 O 0.83028 0.75819 0.27638 0.0
C799 C 0.80189 0.81005 0.26352 0.0
C800 C 0.72149 0.77693 0.27715 0.0
C801 C 0.69389 0.77722 0.29992 0.0
C802 C 0.70096 0.79296 0.28985 0.0
C803 C 0.71455 0.79276 0.27852 0.0
C804 C 0.71476 0.76137 0.28766 0.0
C805 C 0.70096 0.76147 0.29885 0.0
C806 C 0.73532 0.77692 0.26439 0.0
C807 C 0.79116 0.7844 0.3037 0.0
H808 H 0.89234 0.75028 0.25937 0.0
H809 H 0.86901 0.75411 0.27843 0.0
H810 H 0.84717 0.78209 0.23799 0.0
H811 H 0.87068 0.77862 0.21901 0.0
H812 H 0.69557 0.80516 0.29036 0.0
H813 H 0.71946 0.80491 0.27058 0.0
H814 H 0.7199 0.74899 0.28703 0.0
H815 H 0.69564 0.74916 0.3065 0.0
Tb816 Tb 0.77497 0.27862 0.79145 0.0
Tb817 Tb 0.79441 0.27586 0.75471 0.0
C818 C 0.75681 0.28362 0.75451 0.0
C819 C 0.75617 0.26443 0.83315 0.0
C820 C 0.75053 0.23802 0.85922 0.0
C821 C 0.74707 0.25594 0.86211 0.0
C822 C 0.74982 0.26904 0.84911 0.0
C823 C 0.75929 0.24644 0.83006 0.0
C824 C 0.75637 0.23328 0.84292 0.0
C825 C 0.75951 0.27825 0.81964 0.0
O826 O 0.77299 0.24831 0.78568 0.0
O827 O 0.77331 0.24824 0.75565 0.0
O828 O 0.80791 0.26291 0.77404 0.0
O829 O 0.8038 0.28108 0.79824 0.0
O830 O 0.79303 0.26648 0.72788 0.0
O831 O 0.81901 0.28304 0.74234 0.0
O832 O 0.80717 0.30444 0.76853 0.0
O833 O 0.78362 0.30811 0.78387 0.0
O834 O 0.75435 0.27594 0.76964 0.0
O835 O 0.77293 0.28861 0.74812 0.0
C836 C 0.76919 0.23909 0.76983 0.0
O837 O 0.77673 0.28807 0.8184 0.0
O838 O 0.75077 0.27118 0.80424 0.0
C839 C 0.81283 0.27069 0.79033 0.0
C840 C 0.81397 0.29039 0.71335 0.0
C841 C 0.82147 0.31771 0.68796 0.0
C842 C 0.83521 0.31018 0.69458 0.0
C843 C 0.83144 0.29655 0.70712 0.0
C844 C 0.80042 0.29835 0.70723 0.0
C845 C 0.80408 0.31174 0.69456 0.0
C846 C 0.81028 0.2764 0.72683 0.0
C847 C 0.79909 0.31549 0.77682 0.0
H848 H 0.74283 0.26016 0.87462 0.0
H849 H 0.74731 0.28287 0.85163 0.0
H850 H 0.76413 0.24264 0.81775 0.0
H851 H 0.7589 0.21949 0.84017 0.0
H852 H 0.84883 0.31468 0.68998 0.0
H853 H 0.84217 0.29082 0.71195 0.0
H854 H 0.7869 0.29408 0.71207 0.0
H855 H 0.79304 0.31692 0.68957 0.0
Tb856 Tb 0.77885 0.74874 0.75725 0.0
Tb857 Tb 0.79476 0.794 0.7712 0.0
C858 C 0.77905 0.7795 0.73164 0.0
C859 C 0.78164 0.6999 0.74726 0.0
C860 C 0.80524 0.6769 0.7496 0.0
C861 C 0.79521 0.67707 0.73348 0.0
C862 C 0.78349 0.68848 0.73234 0.0
C863 C 0.79155 0.69963 0.76338 0.0
C864 C 0.80308 0.68813 0.76456 0.0
C865 C 0.77081 0.71339 0.74563 0.0
O866 O 0.80794 0.75921 0.74962 0.0
O867 O 0.82102 0.78779 0.76729 0.0
O868 O 0.79777 0.78066 0.79544 0.0
O869 O 0.78878 0.74825 0.78491 0.0
O870 O 0.80254 0.82235 0.76309 0.0
O871 O 0.80146 0.81791 0.7906 0.0
O872 O 0.76468 0.78605 0.77486 0.0
O873 O 0.7534 0.75309 0.7666 0.0
O874 O 0.76823 0.76359 0.73718 0.0
O875 O 0.79279 0.79094 0.74232 0.0
C876 C 0.8228 0.77391 0.75593 0.0
O877 O 0.76533 0.7192 0.7602 0.0
O878 O 0.77761 0.72787 0.73622 0.0
C879 C 0.7944 0.76216 0.79803 0.0
C880 C 0.78945 0.8417 0.78008 0.0
C881 C 0.76539 0.8642 0.78076 0.0
C882 C 0.78279 0.87096 0.79049 0.0
C883 C 0.79474 0.85976 0.79015 0.0
C884 C 0.77182 0.83459 0.77089 0.0
C885 C 0.75991 0.84574 0.77122 0.0
C886 C 0.80223 0.83027 0.77882 0.0
C887 C 0.75091 0.76935 0.77335 0.0
H888 H 0.79672 0.66874 0.72167 0.0
H889 H 0.77618 0.68874 0.71973 0.0
H890 H 0.7906 0.7085 0.77507 0.0
H891 H 0.81026 0.68804 0.77727 0.0
H892 H 0.78728 0.88506 0.79811 0.0
H893 H 0.8082 0.86535 0.79746 0.0
H894 H 0.76744 0.82065 0.76303 0.0
H895 H 0.74673 0.84024 0.76338 0.0
Tb896 Tb 0.56666 0.53862 0.52275 0.0
Tb897 Tb 0.51641 0.51463 0.51477 0.0
C898 C 0.54383 0.54131 0.54755 0.0
C899 C 0.61499 0.54005 0.5264 0.0
C900 C 0.6417 0.52269 0.53608 0.0
C901 C 0.64351 0.54166 0.5431 0.0
C902 C 0.63022 0.55027 0.53829 0.0
C903 C 0.6128 0.52079 0.51986 0.0
C904 C 0.62614 0.51217 0.52463 0.0
C905 C 0.60098 0.54933 0.52219 0.0
O906 O 0.55917 0.51017 0.53429 0.0
O907 O 0.52749 0.49312 0.52608 0.0
O908 O 0.52519 0.51108 0.48929 0.0
O909 O 0.55203 0.51323 0.50461 0.0
O910 O 0.49505 0.51633 0.52953 0.0
O911 O 0.4896 0.49769 0.50476 0.0
O912 O 0.5222 0.54332 0.50479 0.0
O913 O 0.55451 0.55886 0.51018 0.0
O914 O 0.56135 0.54904 0.54861 0.0
O915 O 0.53784 0.53374 0.53168 0.0
C916 C 0.54411 0.49447 0.53358 0.0
O917 O 0.58954 0.54223 0.50808 0.0
O918 O 0.59269 0.55292 0.53574 0.0
C919 C 0.54282 0.51369 0.48964 0.0
C920 C 0.46788 0.51356 0.51258 0.0
C921 C 0.4424 0.53322 0.50515 0.0
C922 C 0.44997 0.52557 0.49125 0.0
C923 C 0.46281 0.51587 0.49495 0.0
C924 C 0.4597 0.52056 0.52628 0.0
C925 C 0.44716 0.53033 0.52263 0.0
C926 C 0.48254 0.50534 0.51748 0.0
C927 C 0.53756 0.55822 0.50433 0.0
H928 H 0.65539 0.54992 0.55202 0.0
H929 H 0.63185 0.56498 0.54381 0.0
H930 H 0.60091 0.51246 0.51099 0.0
H931 H 0.62464 0.49758 0.5189 0.0
H932 H 0.44632 0.52753 0.47767 0.0
H933 H 0.46898 0.51059 0.48414 0.0
H934 H 0.46337 0.51885 0.53993 0.0
H935 H 0.44114 0.53564 0.53356 0.0
Tb936 Tb 0.00794 0.51743 0.01575 0.0
Tb937 Tb 0.05846 0.52512 0.01403 0.0
C938 C 0.03206 0.51095 0.04302 0.0
C939 C 0.96586 0.53298 0.01578 0.0
C940 C 0.94356 0.55556 0.02619 0.0
C941 C 0.94335 0.5389 0.0347 0.0
C942 C 0.95447 0.52772 0.02959 0.0
C943 C 0.9662 0.54992 0.00753 0.0
C944 C 0.95522 0.56115 0.01276 0.0
C945 C 0.97643 0.52028 0.00922 0.0
O946 O 0.02297 0.54627 0.02876 0.0
O947 O 0.0551 0.55166 0.02737 0.0
O948 O 0.05442 0.53541 0.98819 0.0
O949 O 0.03144 0.52892 0.00291 0.0
O950 O 0.07894 0.5204 0.03137 0.0
O951 O 0.08472 0.52982 0.00537 0.0
O952 O 0.0424 0.49677 -0.00015 0.0
O953 O 0.01048 0.48996 0.00378 0.0
O954 O 0.01593 0.51353 0.04222 0.0
O955 O 0.03793 0.50587 0.02841 0.0
C956 C 0.04065 0.55706 0.03168 0.0
O957 O 0.99046 0.52845 0.00032 0.0
O958 O 0.97997 0.50823 0.02009 0.0
C959 C 0.03713 0.5334 0.98784 0.0
C960 C 0.10093 0.50945 0.01627 0.0
C961 C 0.12196 0.48396 0.01032 0.0
C962 C 0.12698 0.50257 0.004 0.0
C963 C 0.11659 0.5151 0.00693 0.0
C964 C 0.09557 0.49076 0.02238 0.0
C965 C 0.10599 0.47813 0.01943 0.0
C966 C 0.0908 0.52359 0.01948 0.0
C967 C 0.02485 0.48521 -0.00177 0.0
H968 H 0.93427 0.53429 0.04499 0.0
H969 H 0.95376 0.5147 0.03615 0.0
H970 H 0.97461 0.55429 -0.00327 0.0
H971 H 0.95532 0.57383 0.00587 0.0
H972 H 0.1393 0.50782 -0.00277 0.0
H973 H 0.121 0.52943 0.00208 0.0
H974 H 0.08343 0.48592 0.0295 0.0
H975 H 0.1015 0.46382 0.02428 0.0
H976 H 0.97133 0.18859 0.95229 0.0
H977 H 0.98102 0.16335 0.96595 0.0
H978 H 0.03799 0.19683 0.96272 0.0
H979 H 0.02822 0.22151 0.948 0.0
H980 H 0.03323 0.16214 0.95175 0.0
H981 H 0.01524 0.18999 0.0035 0.0
H982 H 0.9941 0.20183 0.02072 0.0
H983 H 0.95458 0.1443 0.01467 0.0
H984 H 0.97536 0.13217 -0.00279 0.0
H985 H 0.06327 0.09207 -0.00294 0.0
H986 H 0.05813 0.12197 0.98803 0.0
H987 H 0.99943 0.09474 0.98778 0.0
H988 H 0.00435 0.0651 -0.00299 0.0
H989 H 0.00821 0.12933 0.00391 0.0
H990 H 0.01974 0.1055 0.94578 0.0
H991 H 0.03505 0.09626 0.92076 0.0
H992 H 0.08318 0.14573 0.93607 0.0
H993 H 0.06789 0.1555 0.96091 0.0
C994 C 0.98592 0.19056 0.95457 0.0
C995 C 0.99905 0.2069 0.949 0.0
C996 C 0.99147 0.17625 0.96261 0.0
C997 C 0.01028 0.17836 0.96581 0.0
C998 C 0.0234 0.1949 0.96049 0.0
C999 C 0.01783 0.20895 0.95201 0.0
C1000 C 0.01622 0.16245 0.97302 0.0
C1001 C 0.02816 0.15537 0.9635 0.0
C1002 C 0.00908 0.15308 0.98795 0.0
C1003 C 0.99683 0.16021 -0.00104 0.0
C1004 C 1.00202 0.17988 0.0058 0.0
C1005 C 0.99009 0.18664 0.0156 0.0
C1006 C 0.97299 0.17383 0.01876 0.0
C1007 C 0.96782 0.1542 0.01222 0.0
C1008 C 0.97969 0.14737 0.0024 0.0
C1009 C 0.04925 0.09238 -0.00504 0.0
C1010 C 0.03425 0.07609 -0.0022 0.0
C1011 C 0.04634 0.10949 0.9897 0.0
C1012 C 0.02838 0.11062 0.98715 0.0
C1013 C 0.01342 0.09429 0.98973 0.0
C1014 C 0.01629 0.07724 -0.00507 0.0
C1015 C 0.02501 0.12892 0.98239 0.0
C1016 C 0.01363 0.13648 0.99246 0.0
C1017 C 0.03247 0.13871 0.96785 0.0
C1018 C 0.04287 0.13094 0.95534 0.0
C1019 C 0.03375 0.1141 0.94403 0.0
C1020 C 0.04231 0.10896 0.92974 0.0
C1021 C 0.06008 0.12044 0.92681 0.0
C1022 C 0.06943 0.13688 0.93834 0.0
C1023 C 0.06082 0.14224 0.9525 0.0
H1024 H 0.06662 0.11658 0.91561 0.0
H1025 H 0.96376 0.17911 0.0263 0.0
H1026 H 0.14682 0.81904 0.14028 0.0
H1027 H 0.16951 0.81582 0.16278 0.0
H1028 H 0.12617 0.77808 0.18939 0.0
H1029 H 0.10313 0.7815 0.16688 0.0
H1030 H 0.15355 0.80293 0.21282 0.0
H1031 H 0.14966 0.7579 0.16311 0.0
H1032 H 0.14904 0.74634 0.13184 0.0
H1033 H 0.20371 0.78563 0.12965 0.0
H1034 H 0.20457 0.79764 0.16084 0.0
H1035 H 0.22095 0.76974 0.26018 0.0
H1036 H 0.19401 0.77211 0.24269 0.0
H1037 H 0.22949 0.80853 0.2083 0.0
H1038 H 0.25654 0.80582 0.22546 0.0
H1039 H 0.20312 0.78013 0.18988 0.0
H1040 H 0.20565 0.82629 0.24001 0.0
H1041 H 0.20558 0.83676 0.27146 0.0
H1042 H 0.15279 0.79358 0.2732 0.0
H1043 H 0.15265 0.78268 0.24182 0.0
C1044 C 0.14203 0.81027 0.15105 0.0
C1045 C 0.12319 0.80036 0.15171 0.0
C1046 C 0.15504 0.80837 0.16386 0.0
C1047 C 0.14955 0.79633 0.17749 0.0
C1048 C 0.13068 0.78732 0.17887 0.0
C1049 C 0.11755 0.78934 0.16605 0.0
C1050 C 0.16374 0.79267 0.18971 0.0
C1051 C 0.16426 0.79766 0.20789 0.0
C1052 C 0.17769 0.78582 0.1832 0.0
C1053 C 0.17712 0.77878 0.16432 0.0
C1054 C 0.16149 0.76421 0.15593 0.0
C1055 C 0.16111 0.75755 0.13822 0.0
C1056 C 0.17631 0.76527 0.12876 0.0
C1057 C 0.19193 0.77967 0.13699 0.0
C1058 C 0.19238 0.78639 0.15469 0.0
C1059 C 0.22305 0.77837 0.24896 0.0
C1060 C 0.2409 0.78754 0.24415 0.0
C1061 C 0.20761 0.7798 0.23904 0.0
C1062 C 0.20973 0.79063 0.22428 0.0
C1063 C 0.22755 0.80007 0.21965 0.0
C1064 C 0.24299 0.79851 0.22946 0.0
C1065 C 0.19346 0.79123 0.21294 0.0
C1066 C 0.19242 0.78538 0.19488 0.0
C1067 C 0.179 0.7971 0.21964 0.0
C1068 C 0.17923 0.80353 0.23859 0.0
C1069 C 0.19411 0.81889 0.24714 0.0
C1070 C 0.19409 0.82494 0.26495 0.0
C1071 C 0.17922 0.81581 0.27434 0.0
C1072 C 0.16432 0.80062 0.26593 0.0
C1073 C 0.16428 0.79451 0.24813 0.0
H1074 H 0.17921 0.82052 0.28811 0.0
H1075 H 0.176 0.76007 0.11506 0.0
H1076 H 0.5054 0.80269 0.47573 0.0
H1077 H 0.51065 0.83678 0.48632 0.0
H1078 H 0.51882 0.8535 0.43339 0.0
H1079 H 0.51458 0.8195 0.42294 0.0
H1080 H 0.54075 0.88093 0.45579 0.0
H1081 H 0.4757 0.84477 0.45206 0.0
H1082 H 0.44859 0.81793 0.45851 0.0
H1083 H 0.46127 0.83547 0.51404 0.0
H1084 H 0.48856 0.8623 0.50793 0.0
H1085 H 0.5266 0.97255 0.47208 0.0
H1086 H 0.52246 0.93897 0.45997 0.0
H1087 H 0.51331 0.91912 0.51183 0.0
H1088 H 0.51645 0.95246 0.5236 0.0
H1089 H 0.49132 0.89335 0.48885 0.0
H1090 H 0.55652 0.92844 0.49329 0.0
H1091 H 0.58408 0.95519 0.48761 0.0
H1092 H 0.5716 0.93972 0.43176 0.0
H1093 H 0.54389 0.91297 0.43713 0.0
C1094 C 0.50871 0.81372 0.46644 0.0
C1095 C 0.5095 0.80847 0.44851 0.0
C1096 C 0.51152 0.83317 0.47246 0.0
C1097 C 0.51451 0.84764 0.46055 0.0
C1098 C 0.51637 0.84259 0.44281 0.0
C1099 C 0.51401 0.82317 0.43685 0.0
C1100 C 0.51489 0.8678 0.46644 0.0
C1101 C 0.52982 0.88365 0.46282 0.0
C1102 C 0.5008 0.8714 0.4759 0.0
C1103 C 0.48422 0.85546 0.47954 0.0
C1104 C 0.47273 0.84286 0.46565 0.0
C1105 C 0.45734 0.82765 0.46924 0.0
C1106 C 0.45323 0.82498 0.48667 0.0
C1107 C 0.46447 0.83755 0.50054 0.0
C1108 C 0.47988 0.85278 0.49702 0.0
C1109 C 0.52339 0.96087 0.48073 0.0
C1110 C 0.52173 0.96484 0.49867 0.0
C1111 C 0.52121 0.94176 0.47389 0.0
C1112 C 0.51798 0.92653 0.48507 0.0
C1113 C 0.51581 0.93056 0.50294 0.0
C1114 C 0.51758 0.94956 0.50966 0.0
C1115 C 0.51727 0.9065 0.47837 0.0
C1116 C 0.50224 0.89065 0.48179 0.0
C1117 C 0.53131 0.90291 0.46883 0.0
C1118 C 0.54808 0.91882 0.4656 0.0
C1119 C 0.55963 0.93081 0.4798 0.0
C1120 C 0.57527 0.94596 0.47664 0.0
C1121 C 0.57956 0.94918 0.45934 0.0
C1122 C 0.56825 0.93721 0.44516 0.0
C1123 C 0.55259 0.92204 0.44825 0.0
H1124 H 0.59167 0.96093 0.45692 0.0
H1125 H 0.44132 0.81318 0.48942 0.0
H1126 H 0.5418 0.30413 0.67973 0.0
H1127 H 0.51264 0.29552 0.69321 0.0
H1128 H 0.48563 0.2576 0.64668 0.0
H1129 H 0.51476 0.26616 0.63303 0.0
H1130 H 0.46593 0.2812 0.658 0.0
H1131 H 0.4943 0.23776 0.6833 0.0
H1132 H 0.51931 0.22855 0.69863 0.0
H1133 H 0.51866 0.26603 0.74451 0.0
H1134 H 0.49383 0.2757 0.72935 0.0
H1135 H 0.38415 0.2547 0.70344 0.0
H1136 H 0.40935 0.25174 0.6863 0.0
H1137 H 0.44874 0.28213 0.73012 0.0
H1138 H 0.42364 0.28388 0.74744 0.0
H1139 H 0.45998 0.2559 0.71698 0.0
H1140 H 0.43543 0.30331 0.6905 0.0
H1141 H 0.41132 0.31397 0.67518 0.0
H1142 H 0.40569 0.27088 0.6318 0.0
H1143 H 0.42958 0.25977 0.64701 0.0
C1144 C 0.5297 0.29389 0.67237 0.0
C1145 C 0.53064 0.28581 0.65531 0.0
C1146 C 0.51304 0.28892 0.68013 0.0
C1147 C 0.49701 0.27575 0.67102 0.0
C1148 C 0.49786 0.26773 0.65396 0.0
C1149 C 0.51454 0.27261 0.64621 0.0
C1150 C 0.47929 0.27088 0.67921 0.0
C1151 C 0.46448 0.27536 0.67077 0.0
C1152 C 0.47748 0.26344 0.69592 0.0
C1153 C 0.49231 0.25756 0.70513 0.0
C1154 C 0.49958 0.24414 0.69661 0.0
C1155 C 0.51371 0.23882 0.70528 0.0
C1156 C 0.52059 0.24673 0.72252 0.0
C1157 C 0.51332 0.25993 0.73115 0.0
C1158 C 0.49921 0.26532 0.72253 0.0
C1159 C 0.39822 0.26052 0.70936 0.0
C1160 C 0.40204 0.26951 0.72671 0.0
C1161 C 0.41262 0.25897 0.69955 0.0
C1162 C 0.43107 0.26706 0.70673 0.0
C1163 C 0.43471 0.27571 0.72421 0.0
C1164 C 0.42036 0.27677 0.73412 0.0
C1165 C 0.44682 0.26718 0.69623 0.0
C1166 C 0.46128 0.26159 0.70414 0.0
C1167 C 0.44837 0.27384 0.67912 0.0
C1168 C 0.43407 0.28054 0.67 0.0
C1169 C 0.42894 0.29602 0.67775 0.0
C1170 C 0.41533 0.30215 0.66909 0.0
C1171 C 0.40693 0.29306 0.65256 0.0
C1172 C 0.41217 0.27786 0.64463 0.0
C1173 C 0.42572 0.27164 0.65327 0.0
H1174 H 0.3964 0.29784 0.64587 0.0
H1175 H 0.53154 0.24259 0.7292 0.0
H1176 H 0.00867 0.82897 0.60604 0.0
H1177 H 0.01344 0.85818 0.5905 0.0
H1178 H 0.06695 0.8836 0.61891 0.0
H1179 H 0.06216 0.85381 0.6348 0.0
H1180 H 0.05066 0.91262 0.61548 0.0
H1181 H 0.06188 0.86738 0.57372 0.0
H1182 H 0.05607 0.83567 0.55648 0.0
H1183 H 0.00543 0.84005 0.53233 0.0
H1184 H 0.01083 0.87173 0.5496 0.0
H1185 H 0.06562 0.9938 0.56064 0.0
H1186 H 0.06769 0.96641 0.577 0.0
H1187 H 0.02174 0.92766 0.54321 0.0
H1188 H 0.02121 0.95482 0.52575 0.0
H1189 H 0.03791 0.9057 0.55038 0.0
H1190 H 0.02725 0.95179 0.59564 0.0
H1191 H 0.03541 0.98359 0.61345 0.0
H1192 H 0.0877 0.978 0.63135 0.0
H1193 H 0.07996 0.94632 0.61347 0.0
C1194 C 0.02162 0.84057 0.60913 0.0
C1195 C 0.03498 0.83834 0.62193 0.0
C1196 C 0.02439 0.85759 0.59998 0.0
C1197 C 0.0407 0.87369 0.603 0.0
C1198 C 0.05414 0.87176 0.61595 0.0
C1199 C 0.05144 0.85443 0.62509 0.0
C1200 C 0.04327 0.89199 0.5925 0.0
C1201 C 0.04801 0.91101 0.60121 0.0
C1202 C 0.03989 0.89068 0.57374 0.0
C1203 C 0.03668 0.87184 0.56307 0.0
C1204 C 0.04945 0.86154 0.5648 0.0
C1205 C 0.04624 0.84358 0.55502 0.0
C1206 C 0.03036 0.83583 0.54335 0.0
C1207 C 0.01771 0.84607 0.54139 0.0
C1208 C 0.02086 0.86405 0.55115 0.0
C1209 C 0.05599 0.97942 0.55659 0.0
C1210 C 0.04326 0.97691 0.54161 0.0
C1211 C 0.0569 0.96346 0.56634 0.0
C1212 C 0.04441 0.94419 0.56233 0.0
C1213 C 0.03173 0.94184 0.5472 0.0
C1214 C 0.03133 0.95765 0.53704 0.0
C1215 C 0.0445 0.92659 0.57331 0.0
C1216 C 0.04035 0.90753 0.56465 0.0
C1217 C 0.04862 0.92797 0.59213 0.0
C1218 C 0.05308 0.9468 0.60309 0.0
C1219 C 0.04049 0.95738 0.60335 0.0
C1220 C 0.04506 0.97538 0.61343 0.0
C1221 C 0.06208 0.98281 0.62348 0.0
C1222 C 0.07454 0.97224 0.62353 0.0
C1223 C 0.07007 0.95427 0.61343 0.0
H1224 H 0.06558 0.99673 0.63126 0.0
H1225 H 0.02789 0.8219 0.53581 0.0
H1226 H 0.49889 0.79363 0.83817 0.0
H1227 H 0.47117 0.79693 0.82197 0.0
H1228 H 0.44005 0.73898 0.83323 0.0
H1229 H 0.4675 0.73583 0.84948 0.0
H1230 H 0.42837 0.74499 0.80005 0.0
H1231 H 0.43877 0.78165 0.85768 0.0
H1232 H 0.45718 0.8072 0.88062 0.0
H1233 H 0.46023 0.851 0.84448 0.0
H1234 H 0.44203 0.82566 0.82126 0.0
H1235 H 0.33524 0.74534 0.7886 0.0
H1236 H 0.36557 0.74389 0.79897 0.0
H1237 H 0.38928 0.80536 0.7936 0.0
H1238 H 0.35869 0.80696 0.78354 0.0
H1239 H 0.40651 0.79944 0.8213 0.0
H1240 H 0.39436 0.76576 0.76467 0.0
H1241 H 0.37786 0.74192 0.73975 0.0
H1242 H 0.38111 0.69483 0.76987 0.0
H1243 H 0.39687 0.71826 0.7953 0.0
C1244 C 0.48634 0.78132 0.83671 0.0
C1245 C 0.48588 0.76425 0.84499 0.0
C1246 C 0.47022 0.78332 0.8276 0.0
C1247 C 0.45296 0.7683 0.8263 0.0
C1248 C 0.45283 0.75093 0.83378 0.0
C1249 C 0.46877 0.74907 0.84308 0.0
C1250 C 0.43491 0.77076 0.81816 0.0
C1251 C 0.42356 0.75681 0.80489 0.0
C1252 C 0.42848 0.78651 0.82368 0.0
C1253 C 0.43917 0.80175 0.8377 0.0
C1254 C 0.44345 0.79672 0.85461 0.0
C1255 C 0.45384 0.81116 0.86766 0.0
C1256 C 0.45991 0.83071 0.864 0.0
C1257 C 0.45554 0.83586 0.84729 0.0
C1258 C 0.44518 0.82146 0.83418 0.0
C1259 C 0.34681 0.75865 0.78953 0.0
C1260 C 0.34403 0.77629 0.78502 0.0
C1261 C 0.36447 0.75777 0.79544 0.0
C1262 C 0.3804 0.77442 0.79702 0.0
C1263 C 0.37762 0.79211 0.79265 0.0
C1264 C 0.3599 0.79302 0.78675 0.0
C1265 C 0.39962 0.77337 0.80339 0.0
C1266 C 0.41122 0.7876 0.81633 0.0
C1267 C 0.40647 0.7581 0.79722 0.0
C1268 C 0.39663 0.74383 0.78205 0.0
C1269 C 0.3913 0.7503 0.76613 0.0
C1270 C 0.38202 0.73684 0.75191 0.0
C1271 C 0.37824 0.71684 0.75331 0.0
C1272 C 0.38378 0.71029 0.76891 0.0
C1273 C 0.39287 0.72366 0.78325 0.0
H1274 H 0.37113 0.70643 0.74227 0.0
H1275 H 0.46795 0.84187 0.87411 0.0
H1276 H 0.51213 0.20244 0.14338 0.0
H1277 H 0.51333 0.17435 0.12469 0.0
H1278 H 0.549 0.21271 0.0919 0.0
H1279 H 0.54721 0.24127 0.11048 0.0
H1280 H 0.52823 0.18275 0.07089 0.0
H1281 H 0.56348 0.18368 0.1262 0.0
H1282 H 0.56851 0.18417 0.15858 0.0
H1283 H 0.52356 0.13085 0.15766 0.0
H1284 H 0.51814 0.13015 0.1253 0.0
H1285 H 0.55207 0.10349 0.02656 0.0
H1286 H 0.55128 0.13339 0.04312 0.0
H1287 H 0.5214 0.09899 0.08203 0.0
H1288 H 0.52303 0.06926 0.06593 0.0
H1289 H 0.54048 0.1281 0.09985 0.0
H1290 H 0.50368 0.12653 0.04605 0.0
H1291 H 0.49552 0.12604 0.01411 0.0
H1292 H 0.53973 0.17941 0.01213 0.0
H1293 H 0.54829 0.18011 0.04402 0.0
C1294 C 0.52018 0.20513 0.13213 0.0
C1295 C 0.52956 0.22458 0.12874 0.0
C1296 C 0.52106 0.18876 0.1214 0.0
C1297 C 0.53178 0.19077 0.10684 0.0
C1298 C 0.54069 0.21023 0.10298 0.0
C1299 C 0.53961 0.22677 0.11368 0.0
C1300 C 0.53362 0.1727 0.09598 0.0
C1301 C 0.53121 0.17099 0.07732 0.0
C1302 C 0.53694 0.15659 0.10389 0.0
C1303 C 0.54034 0.15693 0.12333 0.0
C1304 C 0.55463 0.1721 0.13291 0.0
C1305 C 0.55755 0.17242 0.15126 0.0
C1306 C 0.54634 0.15757 0.16017 0.0
C1307 C 0.53222 0.14235 0.15074 0.0
C1308 C 0.52924 0.14197 0.1324 0.0
C1309 C 0.54535 0.10218 0.03868 0.0
C1310 C 0.53767 0.08348 0.04466 0.0
C1311 C 0.54467 0.11955 0.04821 0.0
C1312 C 0.53589 0.11916 0.06405 0.0
C1313 C 0.52835 0.10041 0.07005 0.0
C1314 C 0.52926 0.0831 0.06067 0.0
C1315 C 0.53489 0.13789 0.0746 0.0
C1316 C 0.53751 0.13978 0.09329 0.0
C1317 C 0.53147 0.154 0.06669 0.0
C1318 C 0.52678 0.15323 0.0474 0.0
C1319 C 0.51179 0.13804 0.03877 0.0
C1320 C 0.50706 0.13776 0.02068 0.0
C1321 C 0.51713 0.15265 0.01109 0.0
C1322 C 0.53197 0.16786 0.01957 0.0
C1323 C 0.53677 0.1682 0.03764 0.0
H1324 H 0.51341 0.15243 -0.0029 0.0
H1325 H 0.54862 0.15785 0.17437 0.0
H1326 H 0.08114 0.26559 0.31152 0.0
H1327 H 0.10971 0.26548 0.29951 0.0
H1328 H 0.13672 0.27414 0.35212 0.0
H1329 H 0.10781 0.27477 0.36435 0.0
H1330 H 0.16124 0.2943 0.33238 0.0
H1331 H 0.12067 0.22701 0.32018 0.0
H1332 H 0.09242 0.20137 0.30716 0.0
H1333 H 0.10323 0.22025 0.25559 0.0
H1334 H 0.13141 0.24615 0.26832 0.0
H1335 H 0.2442 0.27917 0.30711 0.0
H1336 H 0.21524 0.27801 0.31911 0.0
H1337 H 0.18615 0.25689 0.26772 0.0
H1338 H 0.21521 0.2562 0.25618 0.0
H1339 H 0.16198 0.24322 0.28611 0.0
H1340 H 0.19902 0.30962 0.29435 0.0
H1341 H 0.2268 0.33761 0.30391 0.0
H1342 H 0.22143 0.32507 0.35789 0.0
H1343 H 0.19385 0.29672 0.34868 0.0
C1344 C 0.09303 0.26749 0.32079 0.0
C1345 C 0.09148 0.27014 0.33922 0.0
C1346 C 0.10969 0.2672 0.31372 0.0
C1347 C 0.12603 0.26922 0.32456 0.0
C1348 C 0.12472 0.27232 0.34303 0.0
C1349 C 0.10793 0.27271 0.35017 0.0
C1350 C 0.14418 0.26846 0.31668 0.0
C1351 C 0.16125 0.28283 0.32249 0.0
C1352 C 0.14495 0.25433 0.30288 0.0
C1353 C 0.12808 0.23863 0.29525 0.0
C1354 C 0.11697 0.22575 0.30608 0.0
C1355 C 0.10097 0.21117 0.29874 0.0
C1356 C 0.09601 0.20921 0.28057 0.0
C1357 C 0.10707 0.2218 0.26967 0.0
C1358 C 0.12306 0.23642 0.27694 0.0
C1359 C 0.23169 0.27429 0.29823 0.0
C1360 C 0.23261 0.26801 0.28044 0.0
C1361 C 0.21476 0.27389 0.30516 0.0
C1362 C 0.19766 0.26821 0.29454 0.0
C1363 C 0.19857 0.26162 0.27669 0.0
C1364 C 0.2155 0.2613 0.26991 0.0
C1365 C 0.17923 0.26895 0.30201 0.0
C1366 C 0.16209 0.25467 0.29607 0.0
C1367 C 0.17822 0.28363 0.31516 0.0
C1368 C 0.19447 0.30095 0.32081 0.0
C1369 C 0.20379 0.31281 0.30826 0.0
C1370 C 0.2195 0.32872 0.3136 0.0
C1371 C 0.22586 0.33312 0.33147 0.0
C1372 C 0.21649 0.32163 0.34405 0.0
C1373 C 0.20082 0.30563 0.33879 0.0
H1374 H 0.23805 0.34544 0.33555 0.0
H1375 H 0.08362 0.19792 0.27493 0.0
H1376 H 0.97312 0.05757 0.18511 0.0
H1377 H 0.98353 0.05708 0.15538 0.0
H1378 H 0.95524 0.99488 0.14704 0.0
H1379 H 0.94621 0.99521 0.17707 0.0
H1380 H 0.98776 0.00283 0.13781 0.0
H1381 H 0.938 0.02776 0.12516 0.0
H1382 H 0.91873 0.04907 0.1297 0.0
H1383 H 0.96495 0.09955 0.12411 0.0
H1384 H 0.98451 0.07858 0.11966 0.0
H1385 H 0.0189 0.00916 0.05362 0.0
H1386 H 0.99737 0.00343 0.07604 0.0
H1387 H 0.02122 0.06364 0.09748 0.0
H1388 H 0.04179 0.06979 0.07367 0.0
H1389 H 0.98386 0.05125 0.09569 0.0
H1390 H 0.03433 0.0271 0.11489 0.0
H1391 H 0.05436 0.00642 0.11145 0.0
H1392 H 0.00692 0.95494 0.10591 0.0
H1393 H 0.98662 0.97537 0.10917 0.0
C1394 C 0.96975 0.04385 0.17697 0.0
C1395 C 0.95957 0.02638 0.18312 0.0
C1396 C 0.97514 0.0436 0.15999 0.0
C1397 C 0.96958 0.02601 0.14904 0.0
C1398 C 0.95946 0.00855 0.15536 0.0
C1399 C 0.95465 0.0087 0.17247 0.0
C1400 C 0.97608 0.0255 0.13165 0.0
C1401 C 0.98647 0.01304 0.12835 0.0
C1402 C 0.97446 0.03897 0.11957 0.0
C1403 C 0.9627 0.0516 0.12211 0.0
C1404 C 0.94406 0.04342 0.12497 0.0
C1405 C 0.93308 0.05543 0.1275 0.0
C1406 C 0.94061 0.07565 0.1272 0.0
C1407 C 0.95913 0.08389 0.12431 0.0
C1408 C 0.97014 0.07194 0.12172 0.0
C1409 C 0.01914 0.02126 0.06277 0.0
C1410 C 0.03124 0.04001 0.06172 0.0
C1411 C 0.00706 0.01792 0.07565 0.0
C1412 C 0.00785 0.03316 0.08819 0.0
C1413 C 0.02043 0.05186 0.0876 0.0
C1414 C 0.03219 0.05529 0.07429 0.0
C1415 C 0.99617 0.02934 0.10252 0.0
C1416 C 0.98464 0.04074 0.10501 0.0
C1417 C 0.99678 0.01496 0.11396 0.0
C1418 C 0.00899 0.00273 0.11205 0.0
C1419 C 0.02819 0.01138 0.11282 0.0
C1420 C 0.03958 0.99971 0.11093 0.0
C1421 C 0.03191 0.97939 0.1084 0.0
C1422 C 0.01284 0.97068 0.10783 0.0
C1423 C 1.00139 0.98229 0.10971 0.0
H1424 H 0.04075 0.97038 0.10691 0.0
H1425 H 0.9321 0.08493 0.1292 0.0
H1426 H 0.23322 0.65726 0.50218 0.0
H1427 H 0.23005 0.66932 0.47334 0.0
H1428 H 0.28616 0.67272 0.46555 0.0
H1429 H 0.28958 0.66097 0.49455 0.0
H1430 H 0.27835 0.70592 0.45853 0.0
H1431 H 0.25053 0.63643 0.44298 0.0
H1432 H 0.22882 0.60401 0.44684 0.0
H1433 H 0.18318 0.62583 0.43792 0.0
H1434 H 0.20463 0.65843 0.43416 0.0
H1435 H 0.27911 0.72648 0.37106 0.0
H1436 H 0.27931 0.70797 0.39654 0.0
H1437 H 0.22309 0.705 0.40317 0.0
H1438 H 0.2225 0.72302 0.37709 0.0
H1439 H 0.23014 0.67081 0.41048 0.0
H1440 H 0.25549 0.73908 0.42728 0.0
H1441 H 0.27539 0.77295 0.42583 0.0
H1442 H 0.32352 0.75521 0.43484 0.0
H1443 H 0.30387 0.72114 0.43611 0.0
C1444 C 0.24485 0.66044 0.49427 0.0
C1445 C 0.26166 0.65817 0.50058 0.0
C1446 C 0.24298 0.66723 0.47779 0.0
C1447 C 0.25779 0.67161 0.46728 0.0
C1448 C 0.27456 0.66932 0.4735 0.0
C1449 C 0.2765 0.66265 0.49004 0.0
C1450 C 0.25607 0.67954 0.45015 0.0
C1451 C 0.26805 0.69809 0.44789 0.0
C1452 C 0.24211 0.6696 0.43663 0.0
C1453 C 0.22918 0.64988 0.43838 0.0
C1454 C 0.23586 0.63432 0.44189 0.0
C1455 C 0.22361 0.61592 0.44406 0.0
C1456 C 0.20463 0.61287 0.44266 0.0
C1457 C 0.19787 0.62821 0.439 0.0
C1458 C 0.21007 0.64664 0.4368 0.0
C1459 C 0.2666 0.72148 0.37761 0.0
C1460 C 0.25081 0.72634 0.37214 0.0
C1461 C 0.2668 0.71103 0.39226 0.0
C1462 C 0.25132 0.70545 0.40185 0.0
C1463 C 0.23519 0.70931 0.39594 0.0
C1464 C 0.23494 0.71975 0.38118 0.0
C1465 C 0.25265 0.69704 0.4188 0.0
C1466 C 0.24055 0.67851 0.42106 0.0
C1467 C 0.2663 0.70714 0.43252 0.0
C1468 C 0.27821 0.72754 0.43159 0.0
C1469 C 0.27032 0.74237 0.42878 0.0
C1470 C 0.28155 0.76161 0.42803 0.0
C1471 C 0.30071 0.76622 0.4302 0.0
C1472 C 0.30867 0.7516 0.43314 0.0
C1473 C 0.2975 0.73233 0.43388 0.0
H1474 H 0.30938 0.78113 0.42964 0.0
H1475 H 0.19517 0.59863 0.44439 0.0
H1476 H 0.5819 0.97428 0.69329 0.0
H1477 H 0.58031 0.97308 0.66114 0.0
H1478 H 0.62468 0.02775 0.66471 0.0
H1479 H 0.6256 0.02928 0.69691 0.0
H1480 H 0.59359 0.03007 0.64909 0.0
H1481 H 0.62837 0.98534 0.64156 0.0
H1482 H 0.63645 0.95579 0.64775 0.0
H1483 H 0.58153 0.91982 0.62894 0.0
H1484 H 0.57309 0.94914 0.62281 0.0
H1485 H 0.56613 0.03285 0.56067 0.0
H1486 H 0.58718 0.03034 0.58522 0.0
H1487 H 0.5474 0.97654 0.5968 0.0
H1488 H 0.52659 0.97864 0.57158 0.0
H1489 H 0.58377 0.97632 0.60182 0.0
H1490 H 0.54606 0.01555 0.61715 0.0
H1491 H 0.5324 0.04175 0.61263 0.0
H1492 H 0.58628 0.0844 0.61992 0.0
H1493 H 0.60028 0.05836 0.62403 0.0
C1494 C 0.59182 0.98551 0.68713 0.0
C1495 C 0.60399 0.00172 0.69729 0.0
C1496 C 0.59104 0.98479 0.6688 0.0
C1497 C 0.60255 1.00024 0.66058 0.0
C1498 C 0.61587 0.01561 0.67085 0.0
C1499 C 0.61647 0.01643 0.68918 0.0
C1500 C 0.5977 0.0024 0.642 0.0
C1501 C 0.59212 0.01865 0.63859 0.0
C1502 C 0.59492 0.98706 0.62859 0.0
C1503 C 0.60014 0.96942 0.63171 0.0
C1504 C 0.61803 0.97112 0.63876 0.0
C1505 C 0.62266 0.95441 0.64226 0.0
C1506 C 0.60951 0.93594 0.63873 0.0
C1507 C 0.59172 0.93413 0.63162 0.0
C1508 C 0.58702 0.95078 0.62807 0.0
C1509 C 0.56223 0.02017 0.56813 0.0
C1510 C 0.54514 0.00568 0.56427 0.0
C1511 C 0.57416 0.0188 0.58209 0.0
C1512 C 0.56876 0.00323 0.59262 0.0
C1513 C 0.55178 0.98849 0.58855 0.0
C1514 C 0.53989 0.9898 0.57443 0.0
C1515 C 0.57962 0.00375 0.60924 0.0
C1516 C 0.58611 0.98808 0.6122 0.0
C1517 C 0.58258 0.01921 0.62253 0.0
C1518 C 0.57423 0.03501 0.62063 0.0
C1519 C 0.555 0.03051 0.61764 0.0
C1520 C 0.54719 0.04532 0.61514 0.0
C1521 C 0.55846 0.06473 0.61585 0.0
C1522 C 0.57756 0.06937 0.61923 0.0
C1523 C 0.58545 0.05458 0.62164 0.0
H1524 H 0.55235 0.07613 0.61383 0.0
H1525 H 0.61312 0.92303 0.64151 0.0
H1526 H 0.25712 0.29973 0.96674 0.0
H1527 H 0.25755 0.29276 0.93485 0.0
H1528 H 0.2976 0.34959 0.9329 0.0
H1529 H 0.29584 0.35705 0.96439 0.0
H1530 H 0.2791 0.34202 0.90354 0.0
H1531 H 0.30837 0.3037 0.93669 0.0
H1532 H 0.31027 0.2804 0.95842 0.0
H1533 H 0.26555 0.23572 0.92871 0.0
H1534 H 0.26324 0.25884 0.90692 0.0
H1535 H 0.31747 0.31234 0.8258 0.0
H1536 H 0.31485 0.32165 0.85702 0.0
H1537 H 0.26229 0.27654 0.85475 0.0
H1538 H 0.26457 0.26766 0.82366 0.0
H1539 H 0.28816 0.27865 0.88568 0.0
H1540 H 0.26016 0.31849 0.85224 0.0
H1541 H 0.26039 0.34216 0.83032 0.0
H1542 H 0.30616 0.38477 0.86074 0.0
H1543 H 0.30636 0.36122 0.88273 0.0
C1544 C 0.26556 0.31088 0.95933 0.0
C1545 C 0.27633 0.32896 0.96794 0.0
C1546 C 0.26607 0.30682 0.94113 0.0
C1547 C 0.27814 0.32035 0.93136 0.0
C1548 C 0.28823 0.33878 0.93994 0.0
C1549 C 0.28721 0.34308 0.95797 0.0
C1550 C 0.28107 0.31501 0.91263 0.0
C1551 C 0.28129 0.32824 0.8998 0.0
C1552 C 0.28393 0.29702 0.90739 0.0
C1553 C 0.28555 0.28302 0.92026 0.0
C1554 C 0.29891 0.28892 0.93483 0.0
C1555 C 0.30005 0.27575 0.94716 0.0
C1556 C 0.28802 0.2566 0.94497 0.0
C1557 C 0.27485 0.25056 0.93041 0.0
C1558 C 0.27363 0.26367 0.91805 0.0
C1559 C 0.30548 0.30434 0.83206 0.0
C1560 C 0.29122 0.2893 0.82232 0.0
C1561 C 0.30394 0.30971 0.84983 0.0
C1562 C 0.28833 0.2998 0.8582 0.0
C1563 C 0.27444 0.28438 0.8486 0.0
C1564 C 0.27575 0.27936 0.83082 0.0
C1565 C 0.28611 0.30559 0.87685 0.0
C1566 C 0.28605 0.29244 0.88959 0.0
C1567 C 0.28376 0.32374 0.88203 0.0
C1568 C 0.28339 0.33804 0.86904 0.0
C1569 C 0.27036 0.33286 0.85419 0.0
C1570 C 0.2704 0.34626 0.84176 0.0
C1571 C 0.28332 0.36494 0.84411 0.0
C1572 C 0.29617 0.37028 0.85893 0.0
C1573 C 0.29621 0.35692 0.87139 0.0
H1574 H 0.28334 0.37529 0.83446 0.0
H1575 H 0.28891 0.24644 0.95454 0.0
H1576 H 0.96136 0.03352 0.25708 0.0
H1577 H 0.97821 0.03416 0.28569 0.0
H1578 H 0.92832 0.99785 0.30468 0.0
H1579 H 0.91152 0.99674 0.27566 0.0
H1580 H 0.95287 0.03526 0.32722 0.0
H1581 H 0.9516 0.97486 0.29526 0.0
H1582 H 0.95635 0.95458 0.26992 0.0
H1583 H 0.01418 0.98652 0.27555 0.0
H1584 H 0.00969 0.00735 0.30069 0.0
H1585 H 0.98088 0.99923 0.40312 0.0
H1586 H 0.96724 0.00346 0.37445 0.0
H1587 H 0.0214 0.02476 0.35621 0.0
H1588 H 0.03521 0.02037 0.38508 0.0
H1589 H 0.99698 0.99764 0.33244 0.0
H1590 H 0.99888 0.05643 0.3658 0.0
H1591 H 0.99422 0.07731 0.39079 0.0
H1592 H 0.93575 0.04909 0.38243 0.0
H1593 H 0.94006 0.02783 0.35758 0.0
C1594 C 0.95398 0.02598 0.2675 0.0
C1595 C 0.93524 0.01513 0.26451 0.0
C1596 C 0.9636 0.02622 0.28367 0.0
C1597 C 0.95442 0.01596 0.29704 0.0
C1598 C 0.9355 0.00577 0.29434 0.0
C1599 C 0.92598 0.00512 0.27796 0.0
C1600 C 0.96477 0.01568 0.31378 0.0
C1601 C 0.96238 0.0269 0.32851 0.0
C1602 C 0.97758 0.00528 0.31498 0.0
C1603 C 0.98025 0.9929 0.2997 0.0
C1604 C 0.96528 0.9778 0.29093 0.0
C1605 C 0.96793 0.96614 0.27663 0.0
C1606 C 0.98554 0.96931 0.27108 0.0
C1607 C 1.00053 0.98413 0.27983 0.0
C1608 C 0.99793 0.99588 0.29409 0.0
C1609 C 0.98989 0.005 0.39305 0.0
C1610 C 0.00907 0.00968 0.39626 0.0
C1611 C 0.9821 0.00743 0.37673 0.0
C1612 C 0.99338 0.01474 0.36341 0.0
C1613 C 0.01255 0.0192 0.36644 0.0
C1614 C 0.02038 0.01666 0.38282 0.0
C1615 C 0.98484 0.01695 0.34614 0.0
C1616 C 0.98761 0.00617 0.33121 0.0
C1617 C 0.97241 0.02783 0.34473 0.0
C1618 C 0.96981 0.04044 0.35987 0.0
C1619 C 0.98504 0.05454 0.36939 0.0
C1620 C 0.98246 0.06648 0.38352 0.0
C1621 C 0.96471 0.06452 0.3882 0.0
C1622 C 0.9495 0.0506 0.37879 0.0
C1623 C 0.952 0.03861 0.36467 0.0
H1624 H 0.96274 0.0738 0.39911 0.0
H1625 H 0.98758 0.96023 0.26005 0.0
H1626 H 0.29303 0.70391 0.58432 0.0
H1627 H 0.2964 0.71967 0.6143 0.0
H1628 H 0.28147 0.6632 0.63508 0.0
H1629 H 0.27826 0.64739 0.60497 0.0
H1630 H 0.26117 0.68953 0.64549 0.0
H1631 H 0.32367 0.68806 0.64394 0.0
H1632 H 0.35151 0.69209 0.6282 0.0
H1633 H 0.35737 0.75272 0.62456 0.0
H1634 H 0.32947 0.74898 0.64013 0.0
H1635 H 0.27753 0.73821 0.72942 0.0
H1636 H 0.27639 0.71662 0.70405 0.0
H1637 H 0.30736 0.76582 0.67748 0.0
H1638 H 0.31168 0.78713 0.70492 0.0
H1639 H 0.31974 0.73811 0.67206 0.0
H1640 H 0.25696 0.74056 0.67208 0.0
H1641 H 0.22871 0.73733 0.68694 0.0
H1642 H 0.22127 0.67649 0.69124 0.0
H1643 H 0.24979 0.67949 0.67694 0.0
C1644 C 0.29099 0.69505 0.59541 0.0
C1645 C 0.28591 0.67477 0.59285 0.0
C1646 C 0.29278 0.70391 0.61232 0.0
C1647 C 0.28932 0.69239 0.62656 0.0
C1648 C 0.28434 0.67207 0.62404 0.0
C1649 C 0.28276 0.66321 0.60709 0.0
C1650 C 0.2904 0.70198 0.64399 0.0
C1651 C 0.27393 0.69995 0.65163 0.0
C1652 C 0.30707 0.71563 0.65139 0.0
C1653 C 0.32455 0.71823 0.6432 0.0
C1654 C 0.33096 0.70225 0.63983 0.0
C1655 C 0.34671 0.70448 0.63091 0.0
C1656 C 0.3562 0.72265 0.62538 0.0
C1657 C 0.35004 0.73867 0.62889 0.0
C1658 C 0.3343 0.73653 0.63782 0.0
C1659 C 0.28484 0.74431 0.71858 0.0
C1660 C 0.29556 0.76396 0.71939 0.0
C1661 C 0.28353 0.73206 0.70375 0.0
C1662 C 0.29137 0.73974 0.68881 0.0
C1663 C 0.30121 0.75974 0.68907 0.0
C1664 C 0.30359 0.77185 0.70454 0.0
C1665 C 0.2903 0.72658 0.6733 0.0
C1666 C 0.30687 0.7277 0.66614 0.0
C1667 C 0.27356 0.71237 0.66622 0.0
C1668 C 0.25561 0.7103 0.67353 0.0
C1669 C 0.24928 0.72649 0.67616 0.0
C1670 C 0.23325 0.7247 0.68455 0.0
C1671 C 0.22322 0.70671 0.69004 0.0
C1672 C 0.22908 0.69042 0.687 0.0
C1673 C 0.24518 0.69216 0.67876 0.0
H1674 H 0.21095 0.70535 0.69671 0.0
H1675 H 0.36834 0.72432 0.61838 0.0
H1676 H 0.60309 0.02746 0.76628 0.0
H1677 H 0.58788 0.02547 0.79321 0.0
H1678 H 0.63291 0.01199 0.82069 0.0
H1679 H 0.64838 0.01373 0.7933 0.0
H1680 H 0.59604 0.98834 0.82699 0.0
H1681 H 0.63274 0.05618 0.8268 0.0
H1682 H 0.64398 0.08705 0.81292 0.0
H1683 H 0.58876 0.08956 0.80562 0.0
H1684 H 0.57716 0.05855 0.81922 0.0
H1685 H 0.58059 0.01615 0.9139 0.0
H1686 H 0.58989 0.0073 0.88541 0.0
H1687 H 0.55046 0.03013 0.85888 0.0
H1688 H 0.54177 0.03992 0.88735 0.0
H1689 H 0.58423 0.04815 0.8516 0.0
H1690 H 0.54678 0.98203 0.85153 0.0
H1691 H 0.53364 0.95026 0.86345 0.0
H1692 H 0.58737 0.9435 0.86953 0.0
H1693 H 0.60088 0.97536 0.85785 0.0
C1694 C 0.60992 0.02428 0.77802 0.0
C1695 C 0.62706 0.02114 0.77788 0.0
C1696 C 0.60113 0.02299 0.79333 0.0
C1697 C 0.60949 0.01885 0.80878 0.0
C1698 C 0.62641 0.01524 0.80873 0.0
C1699 C 0.6352 0.01634 0.79324 0.0
C1700 C 0.60055 0.01902 0.82503 0.0
C1701 C 0.59367 0.00142 0.83266 0.0
C1702 C 0.597 0.03602 0.83172 0.0
C1703 C 0.60407 0.05498 0.82396 0.0
C1704 C 0.62299 0.06326 0.82216 0.0
C1705 C 0.62942 0.08079 0.81434 0.0
C1706 C 0.61709 0.09025 0.80837 0.0
C1707 C 0.5983 0.08223 0.81025 0.0
C1708 C 0.59179 0.06469 0.81805 0.0
C1709 C 0.57374 0.019 0.90196 0.0
C1710 C 0.56082 0.0291 0.90274 0.0
C1711 C 0.57883 0.01366 0.88572 0.0
C1712 C 0.57084 0.01815 0.87015 0.0
C1713 C 0.55673 0.02661 0.87085 0.0
C1714 C 0.55177 0.03212 0.88708 0.0
C1715 C 0.57954 0.01737 0.85372 0.0
C1716 C 0.58649 0.03496 0.84603 0.0
C1717 C 0.58291 1.00031 0.84689 0.0
C1718 C 0.57486 0.98116 0.85394 0.0
C1719 C 0.55582 0.97385 0.85554 0.0
C1720 C 0.5483 0.95581 0.86223 0.0
C1721 C 0.55967 0.94489 0.86728 0.0
C1722 C 0.57858 0.95198 0.86562 0.0
C1723 C 0.58617 0.97001 0.85895 0.0
H1724 H 0.55382 0.93092 0.87246 0.0
H1725 H 0.62209 0.1038 0.8023 0.0
H1726 H 0.27041 0.29547 0.06265 0.0
H1727 H 0.26809 0.28688 0.09326 0.0
H1728 H 0.28038 0.34764 0.1114 0.0
H1729 H 0.28198 0.35623 0.08069 0.0
H1730 H 0.30354 0.32379 0.1283 0.0
H1731 H 0.24142 0.32551 0.11587 0.0
H1732 H 0.21136 0.31659 0.09825 0.0
H1733 H 0.20297 0.25595 0.10461 0.0
H1734 H 0.23314 0.26452 0.1221 0.0
H1735 H 0.29172 0.31654 0.21934 0.0
H1736 H 0.29057 0.32488 0.1888 0.0
H1737 H 0.25982 0.26497 0.17134 0.0
H1738 H 0.26067 0.25655 0.2019 0.0
H1739 H 0.24591 0.28785 0.15345 0.0
H1740 H 0.30627 0.28434 0.16565 0.0
H1741 H 0.33692 0.29106 0.1817 0.0
H1742 H 0.34964 0.35202 0.17424 0.0
H1743 H 0.31895 0.3457 0.15833 0.0
C1744 C 0.27224 0.30696 0.07313 0.0
C1745 C 0.27619 0.32652 0.06921 0.0
C1746 C 0.27099 0.30204 0.09064 0.0
C1747 C 0.27416 0.31661 0.10468 0.0
C1748 C 0.27789 0.33614 0.1008 0.0
C1749 C 0.27863 0.34101 0.08323 0.0
C1750 C 0.27411 0.31145 0.1234 0.0
C1751 C 0.29091 0.31624 0.13392 0.0
C1752 C 0.25776 0.30086 0.13053 0.0
C1753 C 0.23961 0.29564 0.12013 0.0
C1754 C 0.23324 0.31026 0.11337 0.0
C1755 C 0.21617 0.30527 0.10345 0.0
C1756 C 0.20528 0.28571 0.10027 0.0
C1757 C 0.21143 0.27109 0.10707 0.0
C1758 C 0.22851 0.27601 0.117 0.0
C1759 C 0.28457 0.30512 0.20906 0.0
C1760 C 0.27628 0.28584 0.21326 0.0
C1761 C 0.28404 0.3099 0.19149 0.0
C1762 C 0.27534 0.29555 0.17754 0.0
C1763 C 0.26665 0.27638 0.18173 0.0
C1764 C 0.26715 0.27158 0.19931 0.0
C1765 C 0.27538 0.30053 0.15867 0.0
C1766 C 0.25858 0.29553 0.14798 0.0
C1767 C 0.29182 0.31065 0.15128 0.0
C1768 C 0.31023 0.31457 0.16097 0.0
C1769 C 0.31554 0.29921 0.16757 0.0
C1770 C 0.33293 0.30294 0.17661 0.0
C1771 C 0.3452 0.32196 0.17903 0.0
C1772 C 0.34011 0.33729 0.17238 0.0
C1773 C 0.32272 0.33364 0.16334 0.0
H1774 H 0.35867 0.32482 0.18601 0.0
H1775 H 0.19206 0.28187 0.09259 0.0
H1776 H 0.2268 0.91605 0.99052 0.0
H1777 H 0.2107 0.93612 0.00551 0.0
H1778 H 0.2599 0.98607 0.00938 0.0
H1779 H 0.27587 0.96621 0.99376 0.0
H1780 H 0.23258 0.97093 0.04303 0.0
H1781 H 0.24066 0.99902 0.98656 0.0
H1782 H 0.2423 0.99563 0.95435 0.0
H1783 H 0.18673 0.95658 0.94759 0.0
H1784 H 0.18491 0.95946 0.97984 0.0
H1785 H 0.17479 0.03651 0.05026 0.0
H1786 H 0.19988 0.02246 0.0486 0.0
H1787 H 0.16117 0.96768 0.02599 0.0
H1788 H 0.13591 0.98137 0.02803 0.0
H1789 H 0.18909 0.99164 0.0038 0.0
H1790 H 0.18134 0.96406 0.06047 0.0
H1791 H 0.18057 0.96519 0.0928 0.0
H1792 H 0.23629 0.00388 0.09971 0.0
H1793 H 0.23732 0.00313 0.06738 0.0
C1794 C 0.23402 0.93136 -0.00561 0.0
C1795 C 0.25225 0.93983 0.99069 0.0
C1796 C 0.225 0.94267 0.00312 0.0
C1797 C 0.23432 0.96236 0.00861 0.0
C1798 C 0.25267 0.97081 0.00526 0.0
C1799 C 0.26158 0.95961 -0.00388 0.0
C1800 C 0.22393 0.97424 0.01624 0.0
C1801 C 0.22338 0.97603 0.03461 0.0
C1802 C 0.21199 0.98055 0.00505 0.0
C1803 C 0.21271 0.97934 0.9856 0.0
C1804 C 0.22884 0.98961 0.97821 0.0
C1805 C 0.2298 0.98779 0.95995 0.0
C1806 C 0.21464 0.97586 0.94893 0.0
C1807 C 0.19846 0.9658 0.95615 0.0
C1808 C 0.19746 0.96754 0.97441 0.0
C1809 C 0.17151 0.02122 0.04565 0.0
C1810 C 0.1535 0.01012 0.03885 0.0
C1811 C 0.18585 0.01326 0.04474 0.0
C1812 C 0.18224 0.9942 0.03705 0.0
C1813 C 0.16407 0.98248 0.03195 0.0
C1814 C 0.14974 0.99035 0.03295 0.0
C1815 C 0.1973 0.98797 0.03068 0.0
C1816 C 0.19866 0.98721 0.0124 0.0
C1817 C 0.2101 0.98296 0.04206 0.0
C1818 C 0.20931 0.98378 0.06148 0.0
C1819 C 0.19334 0.97303 0.06886 0.0
C1820 C 0.19289 0.97353 0.0872 0.0
C1821 C 0.20834 0.98467 0.09831 0.0
C1822 C 0.22431 0.9953 0.0911 0.0
C1823 C 0.22484 0.99483 0.07277 0.0
H1824 H 0.20797 0.98501 0.1125 0.0
H1825 H 0.21541 0.97443 0.9348 0.0
H1826 H 0.72188 0.66784 0.99245 0.0
H1827 H 0.6927 0.64242 0.99423 0.0
H1828 H 0.7208 0.60952 0.02381 0.0
H1829 H 0.7504 0.63498 0.0218 0.0
H1830 H 0.69255 0.5857 -0.00027 0.0
H1831 H 0.69953 0.63611 0.04602 0.0
H1832 H 0.7063 0.66997 0.05912 0.0
H1833 H 0.66166 0.67651 0.02561 0.0
H1834 H 0.65476 0.64277 0.01217 0.0
H1835 H 0.60311 0.53694 0.03496 0.0
H1836 H 0.63581 0.55624 0.0346 0.0
H1837 H 0.62175 0.5843 0.99002 0.0
H1838 H 0.58937 0.56464 0.98985 0.0
H1839 H 0.64422 0.60857 0.02544 0.0
H1840 H 0.64007 0.55965 0.97692 0.0
H1841 H 0.63326 0.52582 0.96376 0.0
H1842 H 0.67263 0.51651 0.00213 0.0
H1843 H 0.6794 0.55021 0.01574 0.0
C1844 C 0.72194 0.65511 -0.00082 0.0
C1845 C 0.73843 0.65353 0.00716 0.0
C1846 C 0.70523 0.64061 0.00023 0.0
C1847 C 0.70453 0.62431 0.0095 0.0
C1848 C 0.72105 0.62208 0.01669 0.0
C1849 C 0.73792 0.6366 0.01551 0.0
C1850 C 0.68637 0.61026 0.01222 0.0
C1851 C 0.6821 0.59061 0.00566 0.0
C1852 C 0.67267 0.61668 0.01985 0.0
C1853 C 0.67669 0.63694 0.02803 0.0
C1854 C 0.69122 0.64481 0.04138 0.0
C1855 C 0.69507 0.66397 0.04888 0.0
C1856 C 0.68443 0.67539 0.04319 0.0
C1857 C 0.66989 0.66765 0.03001 0.0
C1858 C 0.66598 0.64849 0.02247 0.0
C1859 C 0.6071 0.54708 0.025 0.0
C1860 C 0.59383 0.54925 0.01237 0.0
C1861 C 0.6257 0.55802 0.02478 0.0
C1862 C 0.63108 0.57155 0.01222 0.0
C1863 C 0.61781 0.57379 -0.0003 0.0
C1864 C 0.59938 0.56252 -0.0004 0.0
C1865 C 0.65037 0.58425 0.0126 0.0
C1866 C 0.65481 0.60362 0.01979 0.0
C1867 C 0.66416 0.57756 0.00561 0.0
C1868 C 0.66001 0.55731 -0.00247 0.0
C1869 C 0.64706 0.55029 0.98272 0.0
C1870 C 0.64326 0.53117 0.97513 0.0
C1871 C 0.65244 0.51899 0.98215 0.0
C1872 C 0.66548 0.52593 -0.00326 0.0
C1873 C 0.6693 0.54504 0.0044 0.0
H1874 H 0.64951 0.5042 0.97624 0.0
H1875 H 0.68743 0.69023 0.049 0.0
H1876 H 0.66479 0.46271 0.29942 0.0
H1877 H 0.68123 0.44227 0.28654 0.0
H1878 H 0.73316 0.4861 0.30454 0.0
H1879 H 0.71663 0.50721 0.31716 0.0
H1880 H 0.72975 0.47227 0.26868 0.0
H1881 H 0.72039 0.44579 0.32512 0.0
H1882 H 0.70094 0.43348 0.349 0.0
H1883 H 0.66561 0.38658 0.31302 0.0
H1884 H 0.68474 0.39875 0.28887 0.0
H1885 H 0.78804 0.4145 0.26068 0.0
H1886 H 0.77023 0.43668 0.26495 0.0
H1887 H 0.71977 0.38866 0.2526 0.0
H1888 H 0.73767 0.36622 0.24856 0.0
H1889 H 0.72109 0.40467 0.28433 0.0
H1890 H 0.73081 0.42931 0.22819 0.0
H1891 H 0.7477 0.44278 0.2031 0.0
H1892 H 0.78039 0.49328 0.23678 0.0
H1893 H 0.76387 0.48001 0.26214 0.0
C1894 C 0.67972 0.46797 0.30083 0.0
C1895 C 0.68951 0.48655 0.30917 0.0
C1896 C 0.68905 0.45625 0.2935 0.0
C1897 C 0.7083 0.46277 0.29469 0.0
C1898 C 0.71824 0.481 0.30354 0.0
C1899 C 0.70884 0.49288 0.31086 0.0
C1900 C 0.71782 0.45049 0.28614 0.0
C1901 C 0.72824 0.45759 0.27222 0.0
C1902 C 0.71493 0.43116 0.29043 0.0
C1903 C 0.70399 0.4232 0.30518 0.0
C1904 C 0.70848 0.43284 0.3223 0.0
C1905 C 0.69749 0.42591 0.33588 0.0
C1906 C 0.68204 0.40926 0.33253 0.0
C1907 C 0.6776 0.39945 0.31561 0.0
C1908 C 0.68854 0.40633 0.30198 0.0
C1909 C 0.77318 0.4088 0.25812 0.0
C1910 C 0.76416 0.38867 0.25459 0.0
C1911 C 0.76299 0.42151 0.26052 0.0
C1912 C 0.74369 0.41425 0.25918 0.0
C1913 C 0.73468 0.39445 0.25378 0.0
C1914 C 0.74487 0.3817 0.25152 0.0
C1915 C 0.73336 0.42641 0.26675 0.0
C1916 C 0.7227 0.4193 0.28061 0.0
C1917 C 0.73596 0.44569 0.26229 0.0
C1918 C 0.74617 0.45357 0.24712 0.0
C1919 C 0.74172 0.44319 0.2303 0.0
C1920 C 0.7512 0.45082 0.21601 0.0
C1921 C 0.76513 0.46885 0.21835 0.0
C1922 C 0.7696 0.47931 0.23499 0.0
C1923 C 0.76017 0.47175 0.24932 0.0
H1924 H 0.77244 0.47474 0.20727 0.0
H1925 H 0.67351 0.40396 0.34304 0.0
H1926 H 0.82923 0.44433 0.47028 0.0
H1927 H 0.86222 0.45591 0.46783 0.0
H1928 H 0.87133 0.48274 0.52128 0.0
H1929 H 0.83824 0.4694 0.52453 0.0
H1930 H 0.88909 0.49849 0.48011 0.0
H1931 H 0.88346 0.45941 0.53207 0.0
H1932 H 0.87216 0.43055 0.54856 0.0
H1933 H 0.88678 0.39527 0.50823 0.0
H1934 H 0.89727 0.4238 0.49102 0.0
H1935 H 0.97558 0.52619 0.52344 0.0
H1936 H 0.9426 0.50955 0.51733 0.0
H1937 H 0.95244 0.47655 0.47188 0.0
H1938 H 0.98572 0.4934 0.47781 0.0
H1939 H 0.92547 0.45814 0.50404 0.0
H1940 H 0.93703 0.5008 0.45585 0.0
H1941 H 0.95379 0.53234 0.44512 0.0
H1942 H 0.93206 0.56257 0.48409 0.0
H1943 H 0.91546 0.53123 0.49524 0.0
C1944 C 0.83813 0.45338 0.48132 0.0
C1945 C 0.83146 0.45558 0.4978 0.0
C1946 C 0.85694 0.45945 0.48002 0.0
C1947 C 0.86886 0.46869 0.49486 0.0
C1948 C 0.86205 0.47433 0.51019 0.0
C1949 C 0.84325 0.46748 0.51179 0.0
C1950 C 0.88847 0.47321 0.49384 0.0
C1951 C 0.89703 0.4896 0.4852 0.0
C1952 C 0.89846 0.46116 0.50029 0.0
C1953 C 0.89027 0.44362 0.50977 0.0
C1954 C 0.88345 0.44537 0.52627 0.0
C1955 C 0.8774 0.42908 0.53588 0.0
C1956 C 0.87852 0.41102 0.52934 0.0
C1957 C 0.88566 0.40921 0.51317 0.0
C1958 C 0.89151 0.4254 0.50341 0.0
C1959 C 0.97066 0.51544 0.51213 0.0
C1960 C 0.98281 0.51103 0.50095 0.0
C1961 C 0.95203 0.50592 0.50878 0.0
C1962 C 0.94556 0.49193 0.49432 0.0
C1963 C 0.95758 0.48733 0.48313 0.0
C1964 C 0.97632 0.49708 0.48636 0.0
C1965 C 0.9259 0.48348 0.49056 0.0
C1966 C 0.91726 0.46644 0.4983 0.0
C1967 C 0.9158 0.495 0.48361 0.0
C1968 C 0.925 0.51371 0.47633 0.0
C1969 C 0.93587 0.51419 0.46213 0.0
C1970 C 0.94535 0.53202 0.456 0.0
C1971 C 0.94398 0.54945 0.46391 0.0
C1972 C 0.93308 0.54906 0.47795 0.0
C1973 C 0.9236 0.53127 0.48415 0.0
H1974 H 0.95136 0.56325 0.45917 0.0
H1975 H 0.87403 0.39849 0.5369 0.0
H1976 H 0.42779 0.09497 0.27947 0.0
H1977 H 0.40856 0.11429 0.26976 0.0
H1978 H 0.36218 0.07561 0.29208 0.0
H1979 H 0.38128 0.05597 0.30173 0.0
H1980 H 0.35432 0.08295 0.25763 0.0
H1981 H 0.38299 0.11897 0.31297 0.0
H1982 H 0.40969 0.13553 0.33447 0.0
H1983 H 0.43254 0.17648 0.29723 0.0
H1984 H 0.40607 0.16 0.27541 0.0
H1985 H 0.29416 0.13938 0.25454 0.0
H1986 H 0.31367 0.11937 0.26127 0.0
H1987 H 0.36081 0.16418 0.24618 0.0
H1988 H 0.34133 0.1846 0.24003 0.0
H1989 H 0.36908 0.15358 0.27623 0.0
H1990 H 0.34008 0.11798 0.22089 0.0
H1991 H 0.31453 0.10003 0.19863 0.0
H1992 H 0.29299 0.05755 0.23502 0.0
H1993 H 0.3183 0.07534 0.25755 0.0
C1994 C 0.41354 0.09065 0.28246 0.0
C1995 C 0.406 0.074 0.29137 0.0
C1996 C 0.40262 0.10171 0.27692 0.0
C1997 C 0.38408 0.09633 0.28032 0.0
C1998 C 0.37652 0.07987 0.28938 0.0
C1999 C 0.38745 0.06878 0.29494 0.0
C2000 C 0.37247 0.10772 0.27402 0.0
C2001 C 0.35731 0.09834 0.26182 0.0
C2002 C 0.37693 0.12785 0.2792 0.0
C2003 C 0.39259 0.13818 0.29251 0.0
C2004 C 0.39374 0.13146 0.30933 0.0
C2005 C 0.40884 0.14083 0.32158 0.0
C2006 C 0.42283 0.15702 0.31721 0.0
C2007 C 0.4217 0.16393 0.3006 0.0
C2008 C 0.40663 0.1546 0.2883 0.0
C2009 C 0.30859 0.14474 0.25226 0.0
C2010 C 0.31628 0.16343 0.24671 0.0
C2011 C 0.31973 0.13329 0.25606 0.0
C2012 C 0.33865 0.14018 0.254 0.0
C2013 C 0.34623 0.1586 0.24784 0.0
C2014 C 0.33513 0.1702 0.2443 0.0
C2015 C 0.3507 0.12885 0.25971 0.0
C2016 C 0.36602 0.13822 0.27188 0.0
C2017 C 0.3464 0.10868 0.25444 0.0
C2018 C 0.33102 0.0981 0.24096 0.0
C2019 C 0.32981 0.10491 0.22419 0.0
C2020 C 0.31539 0.09473 0.21151 0.0
C2021 C 0.30212 0.07769 0.21542 0.0
C2022 C 0.30327 0.07076 0.23201 0.0
C2023 C 0.31766 0.08087 0.24473 0.0
H2024 H 0.29098 0.06983 0.20558 0.0
H2025 H 0.43452 0.16424 0.32669 0.0
H2026 H 0.34929 0.17698 0.52317 0.0
H2027 H 0.37273 0.16117 0.52975 0.0
H2028 H 0.33389 0.10529 0.50999 0.0
H2029 H 0.31046 0.12087 0.5034 0.0
H2030 H 0.35226 0.10361 0.54164 0.0
H2031 H 0.3675 0.12895 0.48539 0.0
H2032 H 0.37625 0.15432 0.4646 0.0
H2033 H 0.42488 0.18504 0.49887 0.0
H2034 H 0.41628 0.15996 0.51996 0.0
H2035 H 0.4064 0.04249 0.52567 0.0
H2036 H 0.38557 0.06197 0.52615 0.0
H2037 H 0.43203 0.11443 0.53835 0.0
H2038 H 0.45301 0.09488 0.53719 0.0
H2039 H 0.41132 0.12068 0.5141 0.0
H2040 H 0.39824 0.09416 0.5692 0.0
H2041 H 0.38999 0.06907 0.5903 0.0
H2042 H 0.33816 0.04124 0.55976 0.0
H2043 H 0.34617 0.06603 0.53838 0.0
C2044 C 0.34576 0.16134 0.52016 0.0
C2045 C 0.32798 0.15021 0.51272 0.0
C2046 C 0.35918 0.15233 0.52391 0.0
C2047 C 0.35507 0.13205 0.52032 0.0
C2048 C 0.33736 0.12095 0.51292 0.0
C2049 C 0.32399 0.12992 0.50908 0.0
C2050 C 0.36911 0.12225 0.52424 0.0
C2051 C 0.36515 0.10722 0.53555 0.0
C2052 C 0.3862 0.12745 0.51681 0.0
C2053 C 0.39111 0.14274 0.50435 0.0
C2054 C 0.37994 0.14124 0.48858 0.0
C2055 C 0.38491 0.15553 0.47672 0.0
C2056 C 0.40108 0.17132 0.48045 0.0
C2057 C 0.41233 0.17284 0.49603 0.0
C2058 C 0.40742 0.15859 0.50793 0.0
C2059 C 0.41216 0.05816 0.5287 0.0
C2060 C 0.43133 0.06717 0.53135 0.0
C2061 C 0.40021 0.06931 0.52912 0.0
C2062 C 0.40712 0.08972 0.5326 0.0
C2063 C 0.4263 0.09872 0.53566 0.0
C2064 C 0.4383 0.08757 0.53494 0.0
C2065 C 0.39446 0.10171 0.53137 0.0
C2066 C 0.39863 0.11719 0.52052 0.0
C2067 C 0.37764 0.09701 0.53939 0.0
C2068 C 0.37288 0.0819 0.55211 0.0
C2069 C 0.38515 0.0826 0.5669 0.0
C2070 C 0.38049 0.06845 0.57894 0.0
C2071 C 0.36357 0.05355 0.57636 0.0
C2072 C 0.35126 0.05278 0.56175 0.0
C2073 C 0.35584 0.0669 0.54968 0.0
H2074 H 0.35999 0.04261 0.58569 0.0
H2075 H 0.40492 0.18235 0.47123 0.0
H2076 H 0.69794 0.56212 0.29149 0.0
H2077 H 0.72262 0.59347 0.2923 0.0
H2078 H 0.69199 0.62083 0.32502 0.0
H2079 H 0.66721 0.58991 0.32371 0.0
H2080 H 0.69463 0.63269 0.29219 0.0
H2081 H 0.73367 0.626 0.34006 0.0
H2082 H 0.75248 0.61187 0.35918 0.0
H2083 H 0.78719 0.61041 0.31751 0.0
H2084 H 0.76843 0.6243 0.29805 0.0
H2085 H 0.75207 0.72811 0.29964 0.0
H2086 H 0.73498 0.69504 0.30472 0.0
H2087 H 0.76417 0.67268 0.26641 0.0
H2088 H 0.78163 0.70627 0.26102 0.0
H2089 H 0.76287 0.65806 0.3009 0.0
H2090 H 0.72117 0.6678 0.25404 0.0
H2091 H 0.70277 0.68594 0.23935 0.0
H2092 H 0.67304 0.68567 0.28516 0.0
H2093 H 0.69132 0.66765 0.30015 0.0
C2094 C 0.69676 0.57486 0.299 0.0
C2095 C 0.68059 0.57424 0.30674 0.0
C2096 C 0.7109 0.59251 0.2998 0.0
C2097 C 0.70883 0.60923 0.30861 0.0
C2098 C 0.69361 0.60794 0.31813 0.0
C2099 C 0.67939 0.59051 0.31702 0.0
C2100 C 0.7194 0.62824 0.30373 0.0
C2101 C 0.70956 0.63841 0.29434 0.0
C2102 C 0.73874 0.63517 0.30619 0.0
C2103 C 0.74949 0.62592 0.31752 0.0
C2104 C 0.74513 0.62237 0.33487 0.0
C2105 C 0.75584 0.6145 0.34581 0.0
C2106 C 0.77098 0.61018 0.33954 0.0
C2107 C 0.77543 0.61372 0.32233 0.0
C2108 C 0.76477 0.62159 0.31135 0.0
C2109 C 0.75488 0.71622 0.2922 0.0
C2110 C 0.76803 0.71955 0.27985 0.0
C2111 C 0.74502 0.69742 0.29504 0.0
C2112 C 0.74816 0.68179 0.28555 0.0
C2113 C 0.76159 0.68489 0.27354 0.0
C2114 C 0.77156 0.70387 0.27064 0.0
C2115 C 0.73809 0.66229 0.28943 0.0
C2116 C 0.74797 0.65207 0.29862 0.0
C2117 C 0.71869 0.65559 0.2873 0.0
C2118 C 0.70768 0.66644 0.27823 0.0
C2119 C 0.71078 0.67171 0.26101 0.0
C2120 C 0.70034 0.68194 0.25262 0.0
C2121 C 0.68676 0.68697 0.26132 0.0
C2122 C 0.68355 0.68175 0.27842 0.0
C2123 C 0.69391 0.67148 0.28685 0.0
H2124 H 0.67872 0.69491 0.25481 0.0
H2125 H 0.7793 0.60414 0.34805 0.0
H2126 H 0.92594 0.45918 0.78409 0.0
H2127 H 0.89704 0.43229 0.7833 0.0
H2128 H 0.8662 0.47283 0.77953 0.0
H2129 H 0.89493 0.49985 0.78004 0.0
H2130 H 0.85859 0.43789 0.80771 0.0
H2131 H 0.86015 0.45395 0.74533 0.0
H2132 H 0.87844 0.46298 0.71996 0.0
H2133 H 0.89427 0.41107 0.72169 0.0
H2134 H 0.87625 0.40189 0.74719 0.0
H2135 H 0.78475 0.34461 0.78673 0.0
H2136 H 0.8004 0.38002 0.7876 0.0
H2137 H 0.84943 0.36887 0.77158 0.0
H2138 H 0.83417 0.33407 0.77057 0.0
H2139 H 0.83956 0.39466 0.75181 0.0
H2140 H 0.84852 0.38205 0.81358 0.0
H2141 H 0.83634 0.36999 0.84128 0.0
H2142 H 0.80607 0.41098 0.84309 0.0
H2143 H 0.818 0.42316 0.81529 0.0
C2144 C 0.91303 0.46237 0.78296 0.0
C2145 C 0.9127 0.48157 0.782 0.0
C2146 C 0.89661 0.44708 0.78273 0.0
C2147 C 0.87971 0.45082 0.78166 0.0
C2148 C 0.87923 0.46987 0.78061 0.0
C2149 C 0.89563 0.48516 0.78062 0.0
C2150 C 0.8626 0.43435 0.78011 0.0
C2151 C 0.8539 0.42869 0.7954 0.0
C2152 C 0.85699 0.42233 0.76412 0.0
C2153 C 0.86685 0.42725 0.74812 0.0
C2154 C 0.86752 0.44447 0.74027 0.0
C2155 C 0.87786 0.44963 0.72589 0.0
C2156 C 0.88752 0.43761 0.71922 0.0
C2157 C 0.88676 0.42035 0.72684 0.0
C2158 C 0.87644 0.41514 0.74122 0.0
C2159 C 0.79888 0.34982 0.78347 0.0
C2160 C 0.8082 0.33665 0.77841 0.0
C2161 C 0.80773 0.36994 0.78392 0.0
C2162 C 0.8259 0.37687 0.7794 0.0
C2163 C 0.83526 0.36371 0.77479 0.0
C2164 C 0.82651 0.34381 0.77427 0.0
C2165 C 0.83583 0.3978 0.77952 0.0
C2166 C 0.84333 0.40433 0.76392 0.0
C2167 C 0.84075 0.41022 0.79537 0.0
C2168 C 0.83401 0.40339 0.81232 0.0
C2169 C 0.83923 0.38844 0.81988 0.0
C2170 C 0.83238 0.38159 0.83558 0.0
C2171 C 0.82039 0.38968 0.84392 0.0
C2172 C 0.81533 0.40471 0.83661 0.0
C2173 C 0.82215 0.41162 0.82089 0.0
H2174 H 0.81506 0.38432 0.85605 0.0
H2175 H 0.89558 0.44167 0.70814 0.0
H2176 H 0.09638 0.84793 0.06971 0.0
H2177 H 0.08976 0.87661 0.05975 0.0
H2178 H 0.04681 0.86884 0.09498 0.0
H2179 H 0.05316 0.83982 0.10489 0.0
H2180 H 0.0359 0.87653 0.0625 0.0
H2181 H 0.08992 0.90412 0.10459 0.0
H2182 H 0.12206 0.91024 0.11676 0.0
H2183 H 0.14148 0.93191 0.06816 0.0
H2184 H 0.10946 0.92565 0.05562 0.0
H2185 H 0.02246 0.96914 0.05494 0.0
H2186 H 0.02717 0.93915 0.0645 0.0
H2187 H 0.07725 0.95179 0.03822 0.0
H2188 H 0.07319 0.98228 0.02989 0.0
H2189 H 0.08427 0.9411 0.0667 0.0
H2190 H 0.03329 0.91328 0.02296 0.0
H2191 H 1.00217 0.90561 0.0076 0.0
H2192 H 0.97809 0.88294 0.05414 0.0
H2193 H 0.00905 0.89065 0.06983 0.0
C2194 C 0.0855 0.85227 0.07537 0.0
C2195 C 0.07531 0.84158 0.08816 0.0
C2196 C 0.08182 0.86876 0.06971 0.0
C2197 C 0.06801 0.87505 0.07683 0.0
C2198 C 0.05761 0.86428 0.08939 0.0
C2199 C 0.06125 0.84771 0.09504 0.0
C2200 C 0.06419 0.89266 0.07093 0.0
C2201 C 0.04638 0.89075 0.0636 0.0
C2202 C 0.07809 0.91099 0.0717 0.0
C2203 C 0.09729 0.91421 0.07912 0.0
C2204 C 0.10104 0.90997 0.09644 0.0
C2205 C 0.11924 0.91352 0.10341 0.0
C2206 C 0.1338 0.92141 0.09322 0.0
C2207 C 0.1302 0.92576 0.07603 0.0
C2208 C 0.11203 0.92221 0.06899 0.0
C2209 C 0.03452 0.96548 0.05139 0.0
C2210 C 0.04765 0.97809 0.04199 0.0
C2211 C 0.03708 0.94821 0.05661 0.0
C2212 C 0.05245 0.94293 0.0519 0.0
C2213 C 0.06534 0.95549 0.04219 0.0
C2214 C 0.06309 0.97298 0.03748 0.0
C2215 C 0.05591 0.9251 0.05796 0.0
C2216 C 0.07369 0.92693 0.06544 0.0
C2217 C 0.04211 0.90659 0.05679 0.0
C2218 C 0.02348 0.90281 0.04764 0.0
C2219 C 0.02135 0.90691 0.02999 0.0
C2220 C 0.00374 0.90247 0.0212 0.0
C2221 C 0.98816 0.89385 0.02991 0.0
C2222 C 0.99016 0.88966 0.04742 0.0
C2223 C 0.00773 0.89406 0.05627 0.0
H2224 H 0.97455 0.89038 0.02306 0.0
H2225 H 0.14788 0.92419 0.09867 0.0
H2226 H 0.96809 0.2755 0.87484 0.0
H2227 H 0.94439 0.28143 0.85462 0.0
H2228 H 0.90653 0.22527 0.86298 0.0
H2229 H 0.92989 0.21957 0.88354 0.0
H2230 H 0.90788 0.23518 0.82641 0.0
H2231 H 0.90237 0.26119 0.88557 0.0
H2232 H 0.91272 0.28256 0.91335 0.0
H2233 H 0.92415 0.33324 0.88429 0.0
H2234 H 0.91412 0.31217 0.85631 0.0
H2235 H 0.81924 0.23705 0.79755 0.0
H2236 H 0.84687 0.23357 0.81311 0.0
H2237 H 0.872 0.29631 0.81776 0.0
H2238 H 0.84365 0.29969 0.80355 0.0
H2239 H 0.87996 0.28541 0.84616 0.0
H2240 H 0.88416 0.26091 0.78711 0.0
H2241 H 0.87432 0.24044 0.75879 0.0
H2242 H 0.86688 0.18873 0.78594 0.0
H2243 H 0.87649 0.20885 0.81442 0.0
C2244 C 0.95488 0.26421 0.87193 0.0
C2245 C 0.95084 0.24696 0.88053 0.0
C2246 C 0.94132 0.26771 0.86058 0.0
C2247 C 0.92372 0.25382 0.85744 0.0
C2248 C 0.92004 0.23614 0.86525 0.0
C2249 C 0.9334 0.23285 0.87689 0.0
C2250 C 0.90878 0.25778 0.84655 0.0
C2251 C 0.90169 0.24612 0.83067 0.0
C2252 C 0.90114 0.27244 0.85198 0.0
C2253 C 0.90778 0.28507 0.8688 0.0
C2254 C 0.90736 0.27688 0.88507 0.0
C2255 C 0.91309 0.28894 0.90087 0.0
C2256 C 0.91916 0.30924 0.90058 0.0
C2257 C 0.9195 0.31752 0.8845 0.0
C2258 C 0.91381 0.30552 0.86867 0.0
C2259 C 0.83071 0.25002 0.80199 0.0
C2260 C 0.82945 0.2686 0.79953 0.0
C2261 C 0.84661 0.24807 0.81067 0.0
C2262 C 0.86185 0.26465 0.81631 0.0
C2263 C 0.86052 0.28326 0.81361 0.0
C2264 C 0.84436 0.28522 0.8055 0.0
C2265 C 0.87877 0.26271 0.8258 0.0
C2266 C 0.88626 0.2747 0.84154 0.0
C2267 C 0.88699 0.24855 0.82006 0.0
C2268 C 0.88094 0.23641 0.80293 0.0
C2269 C 0.8803 0.24517 0.78706 0.0
C2270 C 0.87479 0.23362 0.77097 0.0
C2271 C 0.86995 0.2133 0.77057 0.0
C2272 C 0.87063 0.20447 0.78626 0.0
C2273 C 0.87613 0.21594 0.80237 0.0
H2274 H 0.86571 0.20439 0.7581 0.0
H2275 H 0.92353 0.31856 0.91282 0.0
H2276 H 0.58946 0.24341 0.56294 0.0
H2277 H 0.58158 0.20885 0.55301 0.0
H2278 H 0.53726 0.19532 0.58688 0.0
H2279 H 0.54528 0.22992 0.59719 0.0
H2280 H 0.55891 0.17336 0.59197 0.0
H2281 H 0.52826 0.18987 0.54157 0.0
H2282 H 0.52588 0.20992 0.51712 0.0
H2283 H 0.57007 0.19563 0.49383 0.0
H2284 H 0.57286 0.17565 0.51827 0.0
H2285 H 0.52467 0.07288 0.56122 0.0
H2286 H 0.52806 0.1073 0.56823 0.0
H2287 H 0.57488 0.1238 0.53758 0.0
H2288 H 0.57155 0.08928 0.5304 0.0
H2289 H 0.54993 0.14382 0.53007 0.0
H2290 H 0.58352 0.13193 0.58138 0.0
H2291 H 0.58947 0.1155 0.60738 0.0
H2292 H 0.54136 0.12249 0.62902 0.0
H2293 H 0.53522 0.13915 0.60313 0.0
C2294 C 0.57782 0.23316 0.56806 0.0
C2295 C 0.56806 0.23944 0.58094 0.0
C2296 C 0.57327 0.21338 0.56229 0.0
C2297 C 0.55874 0.19951 0.5691 0.0
C2298 C 0.54851 0.2058 0.58144 0.0
C2299 C 0.55309 0.22559 0.58728 0.0
C2300 C 0.55541 0.17837 0.56459 0.0
C2301 C 0.5565 0.16682 0.57844 0.0
C2302 C 0.55291 0.16999 0.54691 0.0
C2303 C 0.55084 0.18136 0.53182 0.0
C2304 C 0.53751 0.19104 0.53126 0.0
C2305 C 0.53609 0.2024 0.51741 0.0
C2306 C 0.54785 0.20408 0.50395 0.0
C2307 C 0.56097 0.19431 0.50427 0.0
C2308 C 0.56245 0.18293 0.5181 0.0
C2309 C 0.53584 0.0838 0.55613 0.0
C2310 C 0.54792 0.07831 0.54535 0.0
C2311 C 0.53774 0.10348 0.56014 0.0
C2312 C 0.55172 0.11808 0.55343 0.0
C2313 C 0.56397 0.11272 0.54285 0.0
C2314 C 0.56218 0.093 0.53895 0.0
C2315 C 0.55345 0.13893 0.5575 0.0
C2316 C 0.55206 0.15036 0.54358 0.0
C2317 C 0.55575 0.14732 0.57511 0.0
C2318 C 0.55883 0.13659 0.59029 0.0
C2319 C 0.57411 0.12978 0.59161 0.0
C2320 C 0.57757 0.12052 0.60636 0.0
C2321 C 0.56579 0.11794 0.61986 0.0
C2322 C 0.55048 0.12454 0.61858 0.0
C2323 C 0.54704 0.13395 0.6039 0.0
H2324 H 0.56853 0.11082 0.63131 0.0
H2325 H 0.54676 0.21294 0.49327 0.0
H2326 H 0.53695 0.75125 0.36629 0.0
H2327 H 0.56303 0.75196 0.34913 0.0
H2328 H 0.59937 0.79563 0.38783 0.0
H2329 H 0.57333 0.79577 0.4043 0.0
H2330 H 0.60884 0.8053 0.35838 0.0
H2331 H 0.5946 0.74333 0.38342 0.0
H2332 H 0.57529 0.71039 0.3891 0.0
H2333 H 0.56747 0.69258 0.3335 0.0
H2334 H 0.58649 0.7255 0.32746 0.0
H2335 H 0.69423 0.79795 0.33136 0.0
H2336 H 0.66772 0.79745 0.348 0.0
H2337 H 0.63165 0.75556 0.30782 0.0
H2338 H 0.65824 0.75543 0.29177 0.0
H2339 H 0.62185 0.74493 0.3377 0.0
H2340 H 0.63713 0.80758 0.3133 0.0
H2341 H 0.65596 0.84095 0.30831 0.0
H2342 H 0.66218 0.85773 0.36405 0.0
H2343 H 0.64365 0.82439 0.3694 0.0
C2344 C 0.55051 0.76104 0.37106 0.0
C2345 C 0.55306 0.77344 0.38668 0.0
C2346 C 0.56547 0.76132 0.36132 0.0
C2347 C 0.58337 0.77358 0.3673 0.0
C2348 C 0.5858 0.78603 0.38284 0.0
C2349 C 0.57084 0.78608 0.39231 0.0
C2350 C 0.59964 0.77389 0.3574 0.0
C2351 C 0.6118 0.79206 0.3541 0.0
C2352 C 0.60338 0.75668 0.35134 0.0
C2353 C 0.59182 0.73694 0.35498 0.0
C2354 C 0.58864 0.73244 0.3724 0.0
C2355 C 0.57776 0.71376 0.37568 0.0
C2356 C 0.57012 0.69942 0.36167 0.0
C2357 C 0.57336 0.70371 0.34434 0.0
C2358 C 0.58419 0.72237 0.34098 0.0
C2359 C 0.6806 0.78859 0.32623 0.0
C2360 C 0.67818 0.77664 0.31039 0.0
C2361 C 0.66544 0.78843 0.33562 0.0
C2362 C 0.64752 0.7767 0.32908 0.0
C2363 C 0.64524 0.76473 0.31323 0.0
C2364 C 0.66041 0.76464 0.30404 0.0
C2365 C 0.63113 0.77636 0.33879 0.0
C2366 C 0.61892 0.75817 0.34203 0.0
C2367 C 0.62745 0.79358 0.34497 0.0
C2368 C 0.63919 0.81341 0.34175 0.0
C2369 C 0.64271 0.81831 0.3245 0.0
C2370 C 0.65329 0.83725 0.32161 0.0
C2371 C 0.6603 0.85144 0.33585 0.0
C2372 C 0.65678 0.84672 0.35303 0.0
C2373 C 0.64626 0.82781 0.356 0.0
H2374 H 0.66843 0.8661 0.33358 0.0
H2375 H 0.56173 0.68497 0.36424 0.0
H2376 H 0.01042 0.19456 0.39135 0.0
H2377 H 0.0103 0.16486 0.40523 0.0
H2378 H 0.05318 0.19945 0.44438 0.0
H2379 H 0.05381 0.22898 0.42983 0.0
H2380 H 0.06036 0.16886 0.44094 0.0
H2381 H 1.00022 0.17408 0.44842 0.0
H2382 H 0.96931 0.17584 0.43938 0.0
H2383 H 0.95595 0.12056 0.40857 0.0
H2384 H 0.98687 0.11861 0.41723 0.0
H2385 H 0.04965 0.0962 0.50342 0.0
H2386 H 0.04896 0.12433 0.48742 0.0
H2387 H 0.01511 0.08558 0.44434 0.0
H2388 H 0.01613 0.05722 0.46024 0.0
H2389 H 0.00243 0.11705 0.44925 0.0
H2390 H 0.06158 0.11301 0.43846 0.0
H2391 H 0.09302 0.11139 0.44405 0.0
H2392 H 0.10751 0.1634 0.47978 0.0
H2393 H 0.07613 0.16555 0.47402 0.0
C2394 C 0.02018 0.19586 0.40268 0.0
C2395 C 0.03257 0.21453 0.40889 0.0
C2396 C 0.01983 0.17864 0.41103 0.0
C2397 C 0.03141 0.17914 0.42653 0.0
C2398 C 0.04394 0.19787 0.43259 0.0
C2399 C 0.04445 0.21506 0.42408 0.0
C2400 C 0.03087 0.16054 0.43619 0.0
C2401 C 0.04749 0.15792 0.44296 0.0
C2402 C 0.01442 0.14508 0.43869 0.0
C2403 C 0.99594 0.14634 0.43329 0.0
C2404 C 0.99075 0.16239 0.4396 0.0
C2405 C 0.97321 0.16341 0.43456 0.0
C2406 C 0.9607 0.14836 0.42336 0.0
C2407 C 0.96567 0.13224 0.4172 0.0
C2408 C 0.9832 0.13117 0.42217 0.0
C2409 C 0.04203 0.09344 0.49052 0.0
C2410 C 0.03299 0.07388 0.48343 0.0
C2411 C 0.04171 0.10983 0.48118 0.0
C2412 C 0.03209 0.10775 0.46425 0.0
C2413 C 0.02274 0.08821 0.45723 0.0
C2414 C 0.02337 0.07174 0.46645 0.0
C2415 C 0.0319 0.12578 0.45415 0.0
C2416 C 0.0152 0.12821 0.44733 0.0
C2417 C 0.0482 0.14111 0.45153 0.0
C2418 C 0.06653 0.13925 0.45604 0.0
C2419 C 0.07142 0.12394 0.44769 0.0
C2420 C 0.08926 0.12301 0.45079 0.0
C2421 C 0.10225 0.13718 0.4624 0.0
C2422 C 0.09743 0.15239 0.47085 0.0
C2423 C 0.07964 0.15353 0.46761 0.0
H2424 H 0.11609 0.13644 0.46477 0.0
H2425 H 0.94713 0.14917 0.4195 0.0
H2426 H 0.58163 0.27179 0.21812 0.0
H2427 H 0.61236 0.27267 0.22963 0.0
H2428 H 0.63448 0.29776 0.18303 0.0
H2429 H 0.60334 0.29684 0.17133 0.0
H2430 H 0.65071 0.27157 0.19035 0.0
H2431 H 0.64301 0.3237 0.22771 0.0
H2432 H 0.62922 0.3409 0.249 0.0
H2433 H 0.63114 0.29984 0.28674 0.0
H2434 H 0.64476 0.28226 0.26559 0.0
H2435 H 0.74658 0.30022 0.22924 0.0
H2436 H 0.7161 0.30099 0.21755 0.0
H2437 H 0.69037 0.26047 0.2542 0.0
H2438 H 0.72076 0.25896 0.26537 0.0
H2439 H 0.67665 0.29501 0.25209 0.0
H2440 H 0.68342 0.24258 0.21527 0.0
H2441 H 0.69875 0.22592 0.19511 0.0
H2442 H 0.69915 0.26756 0.15733 0.0
H2443 H 0.68402 0.28466 0.17742 0.0
C2444 C 0.59297 0.27786 0.21028 0.0
C2445 C 0.58947 0.28445 0.19366 0.0
C2446 C 0.61087 0.2784 0.21704 0.0
C2447 C 0.62646 0.28549 0.20757 0.0
C2448 C 0.6231 0.29222 0.19096 0.0
C2449 C 0.60509 0.29188 0.18423 0.0
C2450 C 0.64577 0.28508 0.21471 0.0
C2451 C 0.65634 0.27708 0.20379 0.0
C2452 C 0.65359 0.29153 0.23251 0.0
C2453 C 0.64465 0.3015 0.24495 0.0
C2454 C 0.64026 0.31818 0.24045 0.0
C2455 C 0.63255 0.32805 0.25253 0.0
C2456 C 0.62925 0.32143 0.26919 0.0
C2457 C 0.63366 0.30492 0.27382 0.0
C2458 C 0.64137 0.29501 0.26179 0.0
C2459 C 0.73449 0.29135 0.23483 0.0
C2460 C 0.73654 0.27947 0.24837 0.0
C2461 C 0.71686 0.29179 0.22804 0.0
C2462 C 0.70045 0.28082 0.23482 0.0
C2463 C 0.70249 0.26917 0.24853 0.0
C2464 C 0.72007 0.26825 0.25494 0.0
C2465 C 0.6814 0.28163 0.2277 0.0
C2466 C 0.67093 0.28961 0.23864 0.0
C2467 C 0.67365 0.27511 0.21001 0.0
C2468 C 0.68285 0.26506 0.19795 0.0
C2469 C 0.68697 0.24832 0.20275 0.0
C2470 C 0.69557 0.23877 0.19132 0.0
C2471 C 0.69999 0.24573 0.17498 0.0
C2472 C 0.69576 0.26223 0.17002 0.0
C2473 C 0.68717 0.27185 0.18142 0.0
H2474 H 0.70664 0.2383 0.16614 0.0
H2475 H 0.62332 0.32912 0.27853 0.0
H2476 H 0.56423 0.84072 0.90331 0.0
H2477 H 0.56538 0.8733 0.91659 0.0
H2478 H 0.51312 0.8478 0.93702 0.0
H2479 H 0.51194 0.81581 0.92408 0.0
H2480 H 0.51181 0.88039 0.92632 0.0
H2481 H 0.55782 0.86532 0.96329 0.0
H2482 H 0.58611 0.85658 0.96955 0.0
H2483 H 0.61797 0.90879 0.94831 0.0
H2484 H 0.5898 0.91769 0.9417 0.0
H2485 H 0.51242 0.95714 0.99328 0.0
H2486 H 0.51398 0.92674 0.97792 0.0
H2487 H 0.55967 0.95984 0.95133 0.0
H2488 H 0.55767 0.99036 0.96615 0.0
H2489 H 0.56563 0.92492 0.9639 0.0
H2490 H 0.52046 0.94087 0.92811 0.0
H2491 H 0.49243 0.94969 0.92084 0.0
H2492 H 0.45924 0.89601 0.93877 0.0
H2493 H 0.48715 0.88702 0.94649 0.0
C2494 C 0.55302 0.84194 0.91071 0.0
C2495 C 0.53808 0.82493 0.91249 0.0
C2496 C 0.55368 0.86083 0.91847 0.0
C2497 C 0.53938 0.86369 0.92826 0.0
C2498 C 0.52447 0.84672 0.92975 0.0
C2499 C 0.52391 0.82803 0.92225 0.0
C2500 C 0.5395 0.88387 0.9369 0.0
C2501 C 0.52362 0.88985 0.93469 0.0
C2502 C 0.55479 0.89719 0.94766 0.0
C2503 C 0.57171 0.89204 0.95181 0.0
C2504 C 0.57085 0.87486 0.95985 0.0
C2505 C 0.58686 0.86989 0.96348 0.0
C2506 C 0.60382 0.88209 0.95928 0.0
C2507 C 0.60482 0.89933 0.95152 0.0
C2508 C 0.58884 0.90435 0.94783 0.0
C2509 C 0.52278 0.95811 0.98409 0.0
C2510 C 0.53479 0.97671 0.98109 0.0
C2511 C 0.52369 0.94048 0.97521 0.0
C2512 C 0.537 0.94039 0.96319 0.0
C2513 C 0.54922 0.95895 0.9604 0.0
C2514 C 0.54797 0.97664 0.9689 0.0
C2515 C 0.53786 0.92117 0.95349 0.0
C2516 C 0.55385 0.9154 0.95552 0.0
C2517 C 0.5227 0.90804 0.94251 0.0
C2518 C 0.50591 0.91342 0.93813 0.0
C2519 C 0.50721 0.93106 0.93072 0.0
C2520 C 0.49134 0.93607 0.92647 0.0
C2521 C 0.47407 0.92345 0.9294 0.0
C2522 C 0.47264 0.90579 0.93656 0.0
C2523 C 0.48848 0.90073 0.94088 0.0
H2524 H 0.46179 0.92735 0.92607 0.0
H2525 H 0.6162 0.8782 0.96208 0.0
H2526 H 0.99128 0.77186 0.71724 0.0
H2527 H 0.96311 0.77285 0.72959 0.0
H2528 H 0.94301 0.78647 0.67951 0.0
H2529 H 0.97219 0.78681 0.66743 0.0
H2530 H 0.92783 0.80244 0.70022 0.0
H2531 H 0.92843 0.73643 0.70316 0.0
H2532 H 0.94024 0.7098 0.71144 0.0
H2533 H 0.9428 0.72913 0.76633 0.0
H2534 H 0.93122 0.75601 0.75836 0.0
H2535 H 0.83136 0.76838 0.72144 0.0
H2536 H 0.86115 0.77056 0.70997 0.0
H2537 H 0.8876 0.78356 0.7629 0.0
H2538 H 0.85791 0.78245 0.77432 0.0
H2539 H 0.89896 0.75396 0.7413 0.0
H2540 H 0.89732 0.81885 0.73826 0.0
H2541 H 0.88494 0.84507 0.73012 0.0
H2542 H 0.88336 0.82663 0.67514 0.0
H2543 H 0.89551 0.80009 0.68298 0.0
C2544 C 0.98102 0.77525 0.70871 0.0
C2545 C 0.98464 0.77929 0.69108 0.0
C2546 C 0.96435 0.77545 0.71585 0.0
C2547 C 0.94967 0.7789 0.70567 0.0
C2548 C 0.95346 0.78349 0.6881 0.0
C2549 C 0.97046 0.78376 0.68103 0.0
C2550 C 0.9309 0.778 0.71333 0.0
C2551 C 0.92159 0.79146 0.70892 0.0
C2552 C 0.92204 0.7643 0.72535 0.0
C2553 C 0.92919 0.74834 0.73015 0.0
C2554 C 0.93165 0.73507 0.71698 0.0
C2555 C 0.93828 0.71993 0.72162 0.0
C2556 C 0.94232 0.71781 0.7394 0.0
C2557 C 0.93971 0.73081 0.75257 0.0
C2558 C 0.93311 0.746 0.748 0.0
C2559 C 0.84347 0.7718 0.73075 0.0
C2560 C 0.84171 0.77523 0.749 0.0
C2561 C 0.86077 0.7731 0.72408 0.0
C2562 C 0.87729 0.77724 0.7353 0.0
C2563 C 0.87551 0.78034 0.7536 0.0
C2564 C 0.85829 0.77974 0.76023 0.0
C2565 C 0.89605 0.77818 0.72797 0.0
C2566 C 0.90528 0.76478 0.73248 0.0
C2567 C 0.90475 0.79177 0.71598 0.0
C2568 C 0.89705 0.80733 0.71121 0.0
C2569 C 0.8941 0.82023 0.72444 0.0
C2570 C 0.8872 0.83519 0.71988 0.0
C2571 C 0.88331 0.83748 0.70213 0.0
C2572 C 0.88634 0.82481 0.68889 0.0
C2573 C 0.89324 0.80981 0.69338 0.0
H2574 H 0.878 0.8491 0.69862 0.0
H2575 H 0.94744 0.70607 0.74296 0.0
H2576 H 0.1512 0.02103 0.86725 0.0
H2577 H 0.13842 0.01755 0.89605 0.0
H2578 H 0.09327 0.03628 0.87554 0.0
H2579 H 0.10656 0.0409 0.84747 0.0
H2580 H 0.10568 0.05308 0.90684 0.0
H2581 H 0.09055 0.98696 0.87737 0.0
H2582 H 0.09788 0.95836 0.86444 0.0
H2583 H 0.12811 0.95574 0.91326 0.0
H2584 H 0.12113 0.98445 0.92638 0.0
H2585 H 0.03258 0.01714 0.95819 0.0
H2586 H 0.05056 0.01947 0.93257 0.0
H2587 H 0.09368 0.00659 0.964 0.0
H2588 H 0.07571 0.00356 0.98928 0.0
H2589 H 0.08643 0.98811 0.93043 0.0
H2590 H 0.09881 0.05391 0.95995 0.0
H2591 H 0.08887 0.08118 0.97206 0.0
H2592 H 0.06071 0.08211 0.92156 0.0
H2593 H 0.0706 0.05528 0.90931 0.0
C2594 C 0.13865 0.0245 0.86916 0.0
C2595 C 0.12968 0.03119 0.85556 0.0
C2596 C 0.13141 0.02249 0.88541 0.0
C2597 C 0.11492 0.02653 0.88766 0.0
C2598 C 0.10611 0.03329 0.87397 0.0
C2599 C 0.11361 0.03586 0.85804 0.0
C2600 C 0.10626 0.02338 0.90403 0.0
C2601 C 0.10149 0.03888 0.91203 0.0
C2602 C 0.10117 0.00495 0.91082 0.0
C2603 C 0.10555 0.98796 0.90275 0.0
C2604 C 0.09891 0.98038 0.88527 0.0
C2605 C 0.10296 0.96414 0.87792 0.0
C2606 C 0.11351 0.95528 0.888 0.0
C2607 C 0.11999 0.96263 0.90545 0.0
C2608 C 0.116 0.97888 0.91284 0.0
C2609 C 0.04565 0.01428 0.9594 0.0
C2610 C 0.05297 0.01042 0.97556 0.0
C2611 C 0.0559 0.01579 0.94494 0.0
C2612 C 0.07342 0.01356 0.9468 0.0
C2613 C 0.08017 0.00844 0.96258 0.0
C2614 C 0.06994 0.00681 0.97693 0.0
C2615 C 0.08527 0.01753 0.93261 0.0
C2616 C 0.09086 0.00233 0.9253 0.0
C2617 C 0.0909 0.03612 0.92626 0.0
C2618 C 0.08538 0.05262 0.93374 0.0
C2619 C 0.09051 0.06004 0.95149 0.0
C2620 C 0.08494 0.07549 0.95838 0.0
C2621 C 0.0742 0.08353 0.94763 0.0
C2622 C 0.06912 0.07617 0.92996 0.0
C2623 C 0.07476 0.06088 0.923 0.0
H2624 H 0.06979 0.09539 0.95303 0.0
H2625 H 0.11661 0.94269 0.88231 0.0
H2626 H 0.78479 0.3927 0.54837 0.0
H2627 H 0.79202 0.38723 0.57906 0.0
H2628 H 0.82738 0.35485 0.56157 0.0
H2629 H 0.81994 0.35967 0.53112 0.0
H2630 H 0.80285 0.33549 0.58223 0.0
H2631 H 0.84547 0.40007 0.58205 0.0
H2632 H 0.85503 0.43535 0.57849 0.0
H2633 H 0.82156 0.44403 0.61923 0.0
H2634 H 0.81157 0.40873 0.62287 0.0
H2635 H 0.84105 0.31526 0.65967 0.0
H2636 H 0.84119 0.33167 0.63283 0.0
H2637 H 0.80792 0.36403 0.65502 0.0
H2638 H 0.80882 0.3487 0.68256 0.0
H2639 H 0.83078 0.38522 0.63271 0.0
H2640 H 0.78764 0.31939 0.63115 0.0
H2641 H 0.77765 0.2837 0.6328 0.0
H2642 H 0.81326 0.27763 0.59317 0.0
H2643 H 0.82362 0.31328 0.59146 0.0
C2644 C 0.79386 0.38414 0.55109 0.0
C2645 C 0.80159 0.37635 0.53735 0.0
C2646 C 0.79824 0.38139 0.5686 0.0
C2647 C 0.81043 0.37092 0.57248 0.0
C2648 C 0.81803 0.36308 0.55877 0.0
C2649 C 0.81358 0.36567 0.54137 0.0
C2650 C 0.81394 0.36618 0.59055 0.0
C2651 C 0.80922 0.34639 0.59321 0.0
C2652 C 0.82171 0.38049 0.60487 0.0
C2653 C 0.82758 0.4017 0.60258 0.0
C2654 C 0.83997 0.40945 0.59012 0.0
C2655 C 0.84552 0.42947 0.58812 0.0
C2656 C 0.83887 0.44192 0.59859 0.0
C2657 C 0.82668 0.43437 0.61111 0.0
C2658 C 0.82108 0.41436 0.61315 0.0
C2659 C 0.83435 0.32639 0.65919 0.0
C2660 C 0.82455 0.33032 0.67315 0.0
C2661 C 0.83429 0.33563 0.64373 0.0
C2662 C 0.82405 0.34853 0.64179 0.0
C2663 C 0.81568 0.35387 0.65621 0.0
C2664 C 0.81601 0.34491 0.67183 0.0
C2665 C 0.82021 0.35446 0.62416 0.0
C2666 C 0.82457 0.3744 0.62165 0.0
C2667 C 0.81226 0.3403 0.60975 0.0
C2668 C 0.80657 0.31899 0.61137 0.0
C2669 C 0.79349 0.31045 0.62296 0.0
C2670 C 0.78773 0.29023 0.62386 0.0
C2671 C 0.79486 0.27841 0.61314 0.0
C2672 C 0.80778 0.28679 0.6015 0.0
C2673 C 0.81361 0.30699 0.60058 0.0
H2674 H 0.79033 0.26275 0.61381 0.0
H2675 H 0.84319 0.45741 0.59703 0.0
H2676 H 0.44398 0.0494 0.35137 0.0
H2677 H 0.45521 0.05138 0.3825 0.0
H2678 H 0.48048 0.00696 0.37006 0.0
H2679 H 0.46892 0.0043 0.33944 0.0
H2680 H 0.46188 0.00058 0.39792 0.0
H2681 H 0.50557 0.05325 0.37353 0.0
H2682 H 0.51798 0.08401 0.35977 0.0
H2683 H 0.50189 0.1154 0.40218 0.0
H2684 H 0.48911 0.08477 0.41606 0.0
H2685 H 0.53648 0.01295 0.46287 0.0
H2686 H 0.51873 0.01249 0.43482 0.0
H2687 H 0.49031 0.04832 0.46032 0.0
H2688 H 0.50794 0.049 0.48828 0.0
H2689 H 0.50727 0.06091 0.42806 0.0
H2690 H 0.46705 0.00272 0.45243 0.0
H2691 H 0.45961 0.97015 0.46362 0.0
H2692 H 0.4771 0.94755 0.41679 0.0
H2693 H 0.48477 0.97999 0.40542 0.0
C2694 C 0.45157 0.03977 0.35543 0.0
C2695 C 0.45586 0.02689 0.34312 0.0
C2696 C 0.45812 0.04113 0.37303 0.0
C2697 C 0.46886 0.02961 0.37815 0.0
C2698 C 0.47223 0.01601 0.36608 0.0
C2699 C 0.46554 0.01445 0.34867 0.0
C2700 C 0.47642 0.03105 0.39623 0.0
C2701 C 0.4718 0.01378 0.40457 0.0
C2702 C 0.48928 0.04838 0.40456 0.0
C2703 C 0.49599 0.06661 0.39564 0.0
C2704 C 0.50433 0.06663 0.37975 0.0
C2705 C 0.51154 0.08408 0.37198 0.0
C2706 C 0.51063 0.10163 0.38004 0.0
C2707 C 0.5025 0.10178 0.3959 0.0
C2708 C 0.49525 0.08438 0.40371 0.0
C2709 C 0.52655 0.02084 0.46238 0.0
C2710 C 0.52352 0.03109 0.47749 0.0
C2711 C 0.5164 0.0204 0.44654 0.0
C2712 C 0.5033 0.03022 0.44591 0.0
C2713 C 0.5004 0.04063 0.46089 0.0
C2714 C 0.51043 0.04098 0.47671 0.0
C2715 C 0.49305 0.03029 0.42938 0.0
C2716 C 0.49708 0.04788 0.42147 0.0
C2717 C 0.48045 0.013 0.42089 0.0
C2718 C 0.47662 0.9938 0.42818 0.0
C2719 C 0.46951 0.99086 0.44464 0.0
C2720 C 0.46518 0.97239 0.45097 0.0
C2721 C 0.46791 0.9568 0.44093 0.0
C2722 C 0.475 0.95963 0.42456 0.0
C2723 C 0.47933 0.97803 0.41817 0.0
H2724 H 0.4645 0.94251 0.44584 0.0
H2725 H 0.51629 0.11513 0.37405 0.0
H2726 H 0.82365 0.73051 0.07031 0.0
H2727 H 0.82408 0.73749 0.10246 0.0
H2728 H 0.76457 0.71721 0.09771 0.0
H2729 H 0.76428 0.7118 0.06584 0.0
H2730 H 0.77343 0.74712 0.1175 0.0
H2731 H 0.79694 0.69221 0.11718 0.0
H2732 H 0.81845 0.67379 0.11118 0.0
H2733 H 0.86284 0.7196 0.14008 0.0
H2734 H 0.84166 0.73839 0.14604 0.0
H2735 H 0.75925 0.74372 0.20915 0.0
H2736 H 0.76064 0.73427 0.17787 0.0
H2737 H 0.81945 0.76249 0.18347 0.0
H2738 H 0.81824 0.77161 0.21456 0.0
H2739 H 0.81195 0.72906 0.16393 0.0
H2740 H 0.78864 0.78363 0.16382 0.0
H2741 H 0.76719 0.80186 0.17068 0.0
H2742 H 0.72227 0.75579 0.14276 0.0
H2743 H 0.74343 0.73718 0.13595 0.0
C2744 C 0.81073 0.72762 0.07623 0.0
C2745 C 0.79394 0.72093 0.06552 0.0
C2746 C 0.81093 0.7314 0.09468 0.0
C2747 C 0.79433 0.72783 0.10285 0.0
C2748 C 0.77764 0.72043 0.09201 0.0
C2749 C 0.77746 0.7173 0.07369 0.0
C2750 C 0.79387 0.73276 0.12235 0.0
C2751 C 0.78168 0.74275 0.12755 0.0
C2752 C 0.805 0.7279 0.13581 0.0
C2753 C 0.81777 0.7168 0.13185 0.0
C2754 C 0.81133 0.69843 0.12208 0.0
C2755 C 0.82346 0.68791 0.11873 0.0
C2756 C 0.84201 0.69555 0.1252 0.0
C2757 C 0.84848 0.71372 0.13504 0.0
C2758 C 0.83643 0.72431 0.13841 0.0
C2759 C 0.77247 0.74795 0.20373 0.0
C2760 C 0.78859 0.75856 0.2145 0.0
C2761 C 0.77326 0.74256 0.18578 0.0
C2762 C 0.79016 0.74779 0.17811 0.0
C2763 C 0.80624 0.75818 0.18893 0.0
C2764 C 0.80548 0.76349 0.2068 0.0
C2765 C 0.79121 0.74285 0.15882 0.0
C2766 C 0.8036 0.73311 0.15374 0.0
C2767 C 0.78024 0.74782 0.14541 0.0
C2768 C 0.76755 0.75896 0.14954 0.0
C2769 C 0.77416 0.77734 0.15927 0.0
C2770 C 0.76207 0.78774 0.16312 0.0
C2771 C 0.74337 0.77996 0.15719 0.0
C2772 C 0.73674 0.76178 0.14737 0.0
C2773 C 0.74877 0.7513 0.1435 0.0
H2774 H 0.73403 0.78805 0.16017 0.0
H2775 H 0.85137 0.68736 0.12261 0.0
H2776 H 0.08859 0.01459 0.7664 0.0
H2777 H 0.07995 0.01735 0.73548 0.0
H2778 H 0.13249 0.01377 0.72153 0.0
H2779 H 0.14126 0.0108 0.75237 0.0
H2780 H 0.12047 0.04809 0.71071 0.0
H2781 H 0.10202 0.97762 0.70717 0.0
H2782 H 0.08733 0.94738 0.72092 0.0
H2783 H 0.03575 0.95926 0.71716 0.0
H2784 H 0.05024 0.98977 0.70361 0.0
H2785 H 0.09475 0.04816 0.61935 0.0
H2786 H 0.10713 0.04025 0.64724 0.0
H2787 H 0.05306 0.02551 0.66607 0.0
H2788 H 0.04044 0.03255 0.63793 0.0
H2789 H 0.069 0.99904 0.67356 0.0
H2790 H 0.08608 0.0691 0.6787 0.0
H2791 H 0.10042 0.10266 0.67085 0.0
H2792 H 0.1537 0.09469 0.67557 0.0
H2793 H 0.13963 0.06093 0.68314 0.0
C2794 C 0.09809 0.01385 0.75668 0.0
C2795 C 0.11557 0.01252 0.76173 0.0
C2796 C 0.09323 0.01561 0.73914 0.0
C2797 C 0.10577 0.01602 0.72652 0.0
C2798 C 0.12282 0.01366 0.73129 0.0
C2799 C 0.12763 0.01167 0.74881 0.0
C2800 C 0.10094 0.01914 0.70834 0.0
C2801 C 0.10955 0.03729 0.70229 0.0
C2802 C 0.08638 0.00512 0.69792 0.0
C2803 C 0.07717 0.98589 0.70431 0.0
C2804 C 0.08751 0.9737 0.70917 0.0
C2805 C 0.07925 0.95657 0.717 0.0
C2806 C 0.06062 0.95139 0.7199 0.0
C2807 C 0.05017 0.96327 0.71485 0.0
C2808 C 0.05838 0.98045 0.70704 0.0
C2809 C 0.08549 0.04308 0.6294 0.0
C2810 C 0.06665 0.04104 0.62655 0.0
C2811 C 0.0926 0.03873 0.64533 0.0
C2812 C 0.08102 0.03251 0.6587 0.0
C2813 C 0.0622 0.03036 0.65587 0.0
C2814 C 0.05506 0.03458 0.6399 0.0
C2815 C 0.08844 0.02823 0.67571 0.0
C2816 C 0.08025 0.0098 0.68164 0.0
C2817 C 0.10331 0.04219 0.68613 0.0
C2818 C 0.11175 0.06236 0.6812 0.0
C2819 C 0.10082 0.0744 0.67783 0.0
C2820 C 0.10891 0.09348 0.67348 0.0
C2821 C 0.12795 0.10077 0.67264 0.0
C2822 C 0.13895 0.089 0.67617 0.0
C2823 C 0.13092 0.06988 0.68047 0.0
H2824 H 0.13419 0.11557 0.66931 0.0
H2825 H 0.05427 0.93818 0.72607 0.0
H2826 H 0.77267 0.37769 0.43725 0.0
H2827 H 0.77221 0.36151 0.40799 0.0
H2828 H 0.83028 0.36905 0.41735 0.0
H2829 H 0.83101 0.38584 0.44637 0.0
H2830 H 0.82175 0.37532 0.38411 0.0
H2831 H 0.79912 0.3257 0.42296 0.0
H2832 H 0.77984 0.30861 0.44528 0.0
H2833 H 0.73111 0.30025 0.4104 0.0
H2834 H 0.75008 0.3175 0.38796 0.0
H2835 H 0.8142 0.29789 0.316 0.0
H2836 H 0.82104 0.31997 0.34324 0.0
H2837 H 0.76486 0.32106 0.3391 0.0
H2838 H 0.758 0.29864 0.31217 0.0
H2839 H 0.77573 0.30948 0.37048 0.0
H2840 H 0.79949 0.36035 0.33172 0.0
H2841 H 0.81965 0.37479 0.30898 0.0
H2842 H 0.86741 0.37849 0.34364 0.0
H2843 H 0.84749 0.36374 0.36648 0.0
C2844 C 0.78534 0.37601 0.43299 0.0
C2845 C 0.80181 0.3828 0.44404 0.0
C2846 C 0.78507 0.36678 0.41635 0.0
C2847 C 0.80115 0.36382 0.41078 0.0
C2848 C 0.81776 0.3712 0.42152 0.0
C2849 C 0.81811 0.38072 0.43806 0.0
C2850 C 0.80034 0.35232 0.39399 0.0
C2851 C 0.81185 0.36083 0.38115 0.0
C2852 C 0.78748 0.33341 0.39032 0.0
C2853 C 0.77603 0.32304 0.40383 0.0
C2854 C 0.78429 0.32035 0.4201 0.0
C2855 C 0.77341 0.31061 0.43277 0.0
C2856 C 0.75426 0.30339 0.42927 0.0
C2857 C 0.74594 0.30586 0.41309 0.0
C2858 C 0.75675 0.3156 0.40039 0.0
C2859 C 0.80354 0.30327 0.32086 0.0
C2860 C 0.78565 0.29687 0.31245 0.0
C2861 C 0.80742 0.3158 0.33625 0.0
C2862 C 0.7934 0.32201 0.34301 0.0
C2863 C 0.77575 0.31629 0.33397 0.0
C2864 C 0.77186 0.30363 0.31873 0.0
C2865 C 0.79646 0.33284 0.36039 0.0
C2866 C 0.78559 0.324 0.37345 0.0
C2867 C 0.81001 0.35126 0.36425 0.0
C2868 C 0.82199 0.36085 0.35078 0.0
C2869 C 0.81429 0.36419 0.33448 0.0
C2870 C 0.82567 0.37242 0.32156 0.0
C2871 C 0.8448 0.37755 0.32486 0.0
C2872 C 0.85259 0.37452 0.3411 0.0
C2873 C 0.84126 0.36625 0.35405 0.0
H2874 H 0.85359 0.3839 0.31484 0.0
H2875 H 0.74587 0.29586 0.43909 0.0
H2876 H 0.47253 0.02751 0.263 0.0
H2877 H 0.46669 0.01167 0.23348 0.0
H2878 H 0.45851 0.06331 0.21389 0.0
H2879 H 0.46123 0.07803 0.24416 0.0
H2880 H 0.44424 0.03147 0.18993 0.0
H2881 H 0.50202 0.06335 0.22843 0.0
H2882 H 0.52236 0.06566 0.25557 0.0
H2883 H 0.52265 0.00703 0.24282 0.0
H2884 H 0.50208 0.00429 0.21576 0.0
H2885 H 0.49727 0.0505 0.11721 0.0
H2886 H 0.48618 0.05433 0.14628 0.0
H2887 H 0.49927 0.00315 0.16107 0.0
H2888 H 0.51073 0.99963 0.1325 0.0
H2889 H 0.50837 0.03005 0.18721 0.0
H2890 H 0.45566 0.0014 0.14484 0.0
H2891 H 0.43551 0.99997 0.11782 0.0
H2892 H 0.42574 0.05258 0.13744 0.0
H2893 H 0.44614 0.05456 0.1644 0.0
C2894 C 0.46745 0.03466 0.2528 0.0
C2895 C 0.46659 0.05371 0.25593 0.0
C2896 C 0.46455 0.02573 0.23575 0.0
C2897 C 0.46277 0.03661 0.22164 0.0
C2898 C 0.45998 0.05477 0.22474 0.0
C2899 C 0.46185 0.0633 0.24194 0.0
C2900 C 0.46936 0.03223 0.20481 0.0
C2901 C 0.45819 0.03103 0.18922 0.0
C2902 C 0.48761 0.03165 0.20414 0.0
C2903 C 0.5004 0.03356 0.22018 0.0
C2904 C 0.50641 0.05095 0.23145 0.0
C2905 C 0.51794 0.05232 0.24683 0.0
C2906 C 0.52376 0.03648 0.25094 0.0
C2907 C 0.5181 0.01927 0.23965 0.0
C2908 C 0.5065 0.01779 0.2243 0.0
C2909 C 0.49798 0.04032 0.12685 0.0
C2910 C 0.50473 0.02477 0.12278 0.0
C2911 C 0.49159 0.04242 0.14329 0.0
C2912 C 0.49156 0.02871 0.1555 0.0
C2913 C 0.49913 0.01378 0.15171 0.0
C2914 C 0.50574 0.01186 0.13547 0.0
C2915 C 0.48331 0.02945 0.17218 0.0
C2916 C 0.49426 0.03006 0.18778 0.0
C2917 C 0.46493 0.02953 0.17279 0.0
C2918 C 0.45255 0.02821 0.15659 0.0
C2919 C 0.44933 0.01274 0.14333 0.0
C2920 C 0.43786 0.01184 0.12802 0.0
C2921 C 0.42938 0.02619 0.1259 0.0
C2922 C 0.43234 0.04148 0.13909 0.0
C2923 C 0.44385 0.0425 0.15438 0.0
H2924 H 0.42048 0.02545 0.11405 0.0
H2925 H 0.53268 0.03756 0.26286 0.0
H2926 H 0.79017 0.69038 0.95292 0.0
H2927 H 0.78961 0.69673 0.92179 0.0
H2928 H 0.80806 0.75877 0.93706 0.0
H2929 H 0.80702 0.75224 0.96814 0.0
H2930 H 0.78425 0.75371 0.91235 0.0
H2931 H 0.83534 0.72729 0.91698 0.0
H2932 H 0.85004 0.70224 0.92332 0.0
H2933 H 0.81062 0.6608 0.88562 0.0
H2934 H 0.79556 0.68553 0.87925 0.0
H2935 H 0.80739 0.78672 0.82852 0.0
H2936 H 0.80793 0.77831 0.85902 0.0
H2937 H 0.78468 0.71721 0.84086 0.0
H2938 H 0.78454 0.72552 0.81022 0.0
H2939 H 0.8095 0.72044 0.86632 0.0
H2940 H 0.75927 0.74601 0.86054 0.0
H2941 H 0.74296 0.76968 0.85422 0.0
H2942 H 0.77914 0.81152 0.89386 0.0
H2943 H 0.79586 0.78821 0.90022 0.0
C2944 C 0.79448 0.70538 0.94961 0.0
C2945 C 0.79894 0.72081 0.96308 0.0
C2946 C 0.79423 0.70906 0.93169 0.0
C2947 C 0.79917 0.72834 0.92665 0.0
C2948 C 0.80414 0.74374 0.94025 0.0
C2949 C 0.80376 0.74003 0.95813 0.0
C2950 C 0.79835 0.73261 0.90745 0.0
C2951 C 0.79015 0.74664 0.90244 0.0
C2952 C 0.80515 0.72292 0.89397 0.0
C2953 C 0.81426 0.70817 0.89778 0.0
C2954 C 0.82977 0.7128 0.91013 0.0
C2955 C 0.83816 0.69866 0.91372 0.0
C2956 C 0.83124 0.67993 0.90491 0.0
C2957 C 0.81595 0.6753 0.89246 0.0
C2958 C 0.80749 0.68936 0.88885 0.0
C2959 C 0.80249 0.77144 0.83093 0.0
C2960 C 0.79597 0.75683 0.8167 0.0
C2961 C 0.80263 0.76664 0.84852 0.0
C2962 C 0.79601 0.74708 0.85253 0.0
C2963 C 0.78982 0.73244 0.83833 0.0
C2964 C 0.78979 0.73722 0.8207 0.0
C2965 C 0.79593 0.7419 0.87143 0.0
C2966 C 0.80379 0.72762 0.87632 0.0
C2967 C 0.78874 0.75129 0.88478 0.0
C2968 C 0.77894 0.76544 0.88071 0.0
C2969 C 0.76387 0.76033 0.86777 0.0
C2970 C 0.75453 0.77367 0.86421 0.0
C2971 C 0.76004 0.79211 0.8736 0.0
C2972 C 0.77491 0.79725 0.88657 0.0
C2973 C 0.78432 0.78398 0.89016 0.0
H2974 H 0.75276 0.8024 0.87085 0.0
H2975 H 0.83776 0.66901 0.90771 0.0
H2976 H 0.83185 0.11331 0.05414 0.0
H2977 H 0.85483 0.09836 0.04546 0.0
H2978 H 0.82049 0.07145 -0.00244 0.0
H2979 H 0.7972 0.08589 0.00634 0.0
H2980 H 0.83826 0.04787 0.01267 0.0
H2981 H 0.85311 0.11444 -0.00317 0.0
H2982 H 0.85808 0.14952 0.00422 0.0
H2983 H 0.90306 0.15249 0.04223 0.0
H2984 H 0.89815 0.11735 0.03529 0.0
H2985 H 0.91373 0.02365 0.9824 0.0
H2986 H 0.88842 0.03758 0.98096 0.0
H2987 H 0.91611 0.07932 0.02514 0.0
H2988 H 0.94189 0.06663 0.02559 0.0
H2989 H 0.89933 0.09561 0.0059 0.0
H2990 H 0.88242 0.03124 0.02797 0.0
H2991 H 0.87564 0.9955 0.02682 0.0
H2992 H 0.83457 0.9878 0.98339 0.0
H2993 H 0.84131 0.02352 0.98414 0.0
C2994 C 0.82912 0.10401 0.04188 0.0
C2995 C 0.81306 0.1011 0.03065 0.0
C2996 C 0.8422 0.09552 0.03696 0.0
C2997 C 0.83943 0.08438 0.02067 0.0
C2998 C 0.82282 0.08025 0.01008 0.0
C2999 C 0.80963 0.08855 0.01508 0.0
C3000 C 0.8544 0.07819 0.01414 0.0
C3001 C 0.85157 0.05822 0.01087 0.0
C3002 C 0.87166 0.0919 0.01209 0.0
C3003 C 0.87524 0.11326 0.01556 0.0
C3004 C 0.86406 0.12258 0.00676 0.0
C3005 C 0.86684 0.14246 0.01091 0.0
C3006 C 0.88087 0.15323 0.0237 0.0
C3007 C 0.89221 0.14414 0.03232 0.0
C3008 C 0.88945 0.12425 0.02827 0.0
C3009 C 0.91462 0.03621 0.99138 0.0
C3010 C 0.92949 0.04379 0.00441 0.0
C3011 C 0.90008 0.04398 0.9907 0.0
C3012 C 0.90011 0.05902 0.00332 0.0
C3013 C 0.91566 0.06757 0.01537 0.0
C3014 C 0.93031 0.06016 0.01577 0.0
C3015 C 0.88362 0.06505 0.00519 0.0
C3016 C 0.886 0.08513 0.00736 0.0
C3017 C 0.86609 0.05139 0.0068 0.0
C3018 C 0.86263 0.03002 0.00588 0.0
C3019 C 0.87213 0.02192 0.01803 0.0
C3020 C 0.86825 0.00167 0.01748 0.0
C3021 C 0.85475 0.98939 0.00499 0.0
C3022 C 0.84508 0.99733 0.993 0.0
C3023 C 0.84895 0.01756 0.99346 0.0
H3024 H 0.85172 0.97371 0.00463 0.0
H3025 H 0.88296 0.16861 0.02691 0.0
H3026 H 0.3553 0.37891 0.03428 0.0
H3027 H 0.3842 0.40479 0.03183 0.0
H3028 H 0.35415 0.43945 0.0077 0.0
H3029 H 0.32497 0.41365 0.01039 0.0
H3030 H 0.38667 0.43426 0.98973 0.0
H3031 H 0.36991 0.45535 0.04599 0.0
H3032 H 0.35956 0.45 0.07573 0.0
H3033 H 0.40669 0.43245 0.09069 0.0
H3034 H 0.41722 0.4375 0.06096 0.0
H3035 H 0.47129 0.51263 0.99117 0.0
H3036 H 0.43888 0.49346 0.99262 0.0
H3037 H 0.45512 0.46418 0.03547 0.0
H3038 H 0.48703 0.48452 0.03498 0.0
H3039 H 0.42667 0.46979 0.04307 0.0
H3040 H 0.44252 0.44438 0.98809 0.0
H3041 H 0.45328 0.44628 0.95826 0.0
H3042 H 0.40933 0.46759 0.9405 0.0
H3043 H 0.39843 0.46603 0.97028 0.0
C3044 C 0.35479 0.3921 0.02858 0.0
C3045 C 0.33785 0.39429 0.02261 0.0
C3046 C 0.37131 0.40684 0.02716 0.0
C3047 C 0.37127 0.42397 0.01956 0.0
C3048 C 0.35442 0.42629 0.01357 0.0
C3049 C 0.3378 0.41164 0.01527 0.0
C3050 C 0.38897 0.43934 0.01804 0.0
C3051 C 0.39536 0.44236 0.00131 0.0
C3052 C 0.4004 0.44939 0.03322 0.0
C3053 C 0.39429 0.4467 0.05121 0.0
C3054 C 0.37801 0.45026 0.05559 0.0
C3055 C 0.37213 0.4473 0.07245 0.0
C3056 C 0.38245 0.44086 0.08508 0.0
C3057 C 0.39871 0.43744 0.0809 0.0
C3058 C 0.40466 0.44039 0.06405 0.0
C3059 C 0.46777 0.50222 0.00098 0.0
C3060 C 0.4815 0.50013 0.01309 0.0
C3061 C 0.44929 0.49108 0.00169 0.0
C3062 C 0.44441 0.47701 0.01397 0.0
C3063 C 0.45833 0.47497 0.02595 0.0
C3064 C 0.4766 0.48658 0.02568 0.0
C3065 C 0.42494 0.46446 0.01469 0.0
C3066 C 0.41809 0.46195 0.03134 0.0
C3067 C 0.41332 0.45449 -0.00058 0.0
C3068 C 0.4198 0.45531 0.98147 0.0
C3069 C 0.43522 0.44959 0.97785 0.0
C3070 C 0.44133 0.45058 0.96095 0.0
C3071 C 0.43203 0.45711 0.94751 0.0
C3072 C 0.41655 0.46258 0.95093 0.0
C3073 C 0.41039 0.46163 0.96781 0.0
H3074 H 0.4368 0.45789 0.93445 0.0
H3075 H 0.37785 0.43855 0.09812 0.0
H3076 H 0.40674 0.57796 0.72932 0.0
H3077 H 0.39623 0.6045 0.74128 0.0
H3078 H 0.3408 0.56469 0.73905 0.0
H3079 H 0.35122 0.53798 0.72743 0.0
H3080 H 0.346 0.60242 0.72483 0.0
H3081 H 0.36317 0.57231 0.77549 0.0
H3082 H 0.38549 0.56148 0.79346 0.0
H3083 H 0.42154 0.62064 0.8026 0.0
H3084 H 0.39958 0.63177 0.7843 0.0
H3085 H 0.29291 0.64202 0.77314 0.0
H3086 H 0.30997 0.61952 0.76658 0.0
H3087 H 0.36125 0.6661 0.77889 0.0
H3088 H 0.34425 0.68902 0.78574 0.0
H3089 H 0.36273 0.62882 0.78768 0.0
H3090 H 0.34524 0.6593 0.73846 0.0
H3091 H 0.32488 0.67009 0.71794 0.0
H3092 H 0.29115 0.61053 0.70443 0.0
H3093 H 0.31113 0.59942 0.72512 0.0
C3094 C 0.39227 0.57497 0.73116 0.0
C3095 C 0.37969 0.55603 0.72757 0.0
C3096 C 0.38639 0.59004 0.73808 0.0
C3097 C 0.3679 0.58627 0.74117 0.0
C3098 C 0.35517 0.56762 0.7368 0.0
C3099 C 0.36109 0.55248 0.73019 0.0
C3100 C 0.36161 0.60167 0.7491 0.0
C3101 C 0.34951 0.60815 0.73858 0.0
C3102 C 0.36692 0.60942 0.76685 0.0
C3103 C 0.37984 0.60284 0.77833 0.0
C3104 C 0.37593 0.58299 0.78119 0.0
C3105 C 0.38851 0.5768 0.79145 0.0
C3106 C 0.40496 0.59035 0.79912 0.0
C3107 C 0.40881 0.61015 0.79661 0.0
C3108 C 0.3963 0.61641 0.78629 0.0
C3109 C 0.30781 0.64743 0.77508 0.0
C3110 C 0.31725 0.66734 0.77969 0.0
C3111 C 0.31752 0.63457 0.77122 0.0
C3112 C 0.33677 0.64144 0.77179 0.0
C3113 C 0.34636 0.66081 0.77808 0.0
C3114 C 0.33664 0.67379 0.7819 0.0
C3115 C 0.34643 0.62902 0.76353 0.0
C3116 C 0.3593 0.62323 0.7739 0.0
C3117 C 0.34194 0.62188 0.74552 0.0
C3118 C 0.32954 0.62857 0.73352 0.0
C3119 C 0.33334 0.64854 0.7313 0.0
C3120 C 0.3219 0.6547 0.71959 0.0
C3121 C 0.3067 0.64101 0.70992 0.0
C3122 C 0.3029 0.62112 0.71195 0.0
C3123 C 0.31427 0.61489 0.72368 0.0
H3124 H 0.2979 0.64582 0.70082 0.0
H3125 H 0.4147 0.58553 0.80704 0.0
H3126 H 0.24208 0.60227 0.51959 0.0
H3127 H 0.20981 0.59027 0.50894 0.0
H3128 H 0.19692 0.56311 0.55724 0.0
H3129 H 0.22941 0.57704 0.56903 0.0
H3130 H 0.18337 0.54906 0.50838 0.0
H3131 H 0.18154 0.58386 0.56843 0.0
H3132 H 0.19113 0.61204 0.59087 0.0
H3133 H 0.1846 0.64976 0.55146 0.0
H3134 H 0.17576 0.62186 0.52861 0.0
H3135 H 0.09312 0.51893 0.52893 0.0
H3136 H 0.12543 0.52791 0.52315 0.0
H3137 H 0.12197 0.58116 0.50274 0.0
H3138 H 0.09006 0.57281 0.5091 0.0
H3139 H 0.14479 0.58698 0.53194 0.0
H3140 H 0.13402 0.55073 0.47688 0.0
H3141 H 0.12059 0.52284 0.45449 0.0
H3142 H 0.14822 0.48887 0.48266 0.0
H3143 H 0.16099 0.51608 0.50571 0.0
C3144 C 0.23257 0.5931 0.52777 0.0
C3145 C 0.23804 0.59059 0.54521 0.0
C3146 C 0.21415 0.58664 0.52175 0.0
C3147 C 0.20132 0.5768 0.53279 0.0
C3148 C 0.20691 0.57164 0.5491 0.0
C3149 C 0.22535 0.57894 0.55554 0.0
C3150 C 0.18207 0.5722 0.527 0.0
C3151 C 0.1747 0.55705 0.51359 0.0
C3152 C 0.1716 0.58383 0.53318 0.0
C3153 C 0.17886 0.60087 0.54662 0.0
C3154 C 0.18292 0.59826 0.56438 0.0
C3155 C 0.18803 0.61417 0.57723 0.0
C3156 C 0.18871 0.63274 0.57257 0.0
C3157 C 0.18432 0.63543 0.55503 0.0
C3158 C 0.17941 0.61959 0.5421 0.0
C3159 C 0.09925 0.53241 0.52303 0.0
C3160 C 0.08943 0.5454 0.51984 0.0
C3161 C 0.11746 0.53729 0.51937 0.0
C3162 C 0.12571 0.55504 0.51237 0.0
C3163 C 0.11553 0.56732 0.50798 0.0
C3164 C 0.09748 0.56265 0.51191 0.0
C3165 C 0.14556 0.56282 0.51408 0.0
C3166 C 0.15335 0.57897 0.52647 0.0
C3167 C 0.15633 0.55212 0.50696 0.0
C3168 C 0.14848 0.53553 0.49312 0.0
C3169 C 0.13703 0.53722 0.47847 0.0
C3170 C 0.12945 0.52147 0.46567 0.0
C3171 C 0.13341 0.50402 0.46721 0.0
C3172 C 0.14496 0.50229 0.48156 0.0
C3173 C 0.15236 0.51788 0.49452 0.0
H3174 H 0.12762 0.49188 0.45724 0.0
H3175 H 0.19244 0.64499 0.58256 0.0
H3176 H 0.64862 0.95278 0.736 0.0
H3177 H 0.66405 0.93079 0.7482 0.0
H3178 H 0.71693 0.97248 0.74196 0.0
H3179 H 0.70169 0.99455 0.72989 0.0
H3180 H 0.71258 0.93481 0.72834 0.0
H3181 H 0.70357 0.96881 0.78124 0.0
H3182 H 0.6863 0.98081 0.803 0.0
H3183 H 0.65543 0.92178 0.81086 0.0
H3184 H 0.6723 0.90941 0.7889 0.0
H3185 H 0.77652 0.90291 0.77594 0.0
H3186 H 0.75718 0.92312 0.76914 0.0
H3187 H 0.70851 0.87472 0.77424 0.0
H3188 H 0.72785 0.85431 0.78135 0.0
H3189 H 0.7083 0.91359 0.78899 0.0
H3190 H 0.71754 0.88017 0.73523 0.0
H3191 H 0.73506 0.86909 0.71312 0.0
H3192 H 0.76604 0.92866 0.70723 0.0
H3193 H 0.74884 0.94007 0.72947 0.0
C3194 C 0.66353 0.95711 0.73698 0.0
C3195 C 0.674 0.97529 0.73186 0.0
C3196 C 0.67228 0.94469 0.7442 0.0
C3197 C 0.69156 0.95024 0.74621 0.0
C3198 C 0.70201 0.9681 0.74064 0.0
C3199 C 0.6933 0.98058 0.73362 0.0
C3200 C 0.701 0.93697 0.75304 0.0
C3201 C 0.71177 0.93032 0.74166 0.0
C3202 C 0.69946 0.93079 0.77027 0.0
C3203 C 0.68899 0.93819 0.78318 0.0
C3204 C 0.69291 0.95838 0.7874 0.0
C3205 C 0.68324 0.96525 0.79983 0.0
C3206 C 0.66972 0.95207 0.80825 0.0
C3207 C 0.66586 0.93198 0.80429 0.0
C3208 C 0.67547 0.92503 0.79184 0.0
C3209 C 0.76175 0.89667 0.7761 0.0
C3210 C 0.7537 0.877 0.77912 0.0
C3211 C 0.75072 0.9082 0.7721 0.0
C3212 C 0.73149 0.90028 0.77104 0.0
C3213 C 0.72336 0.881 0.77499 0.0
C3214 C 0.73441 0.86938 0.77892 0.0
C3215 C 0.72006 0.91177 0.76431 0.0
C3216 C 0.70893 0.91801 0.77565 0.0
C3217 C 0.72128 0.91777 0.74704 0.0
C3218 C 0.73208 0.91093 0.73417 0.0
C3219 C 0.72826 0.89088 0.72939 0.0
C3220 C 0.73808 0.88455 0.71678 0.0
C3221 C 0.75169 0.89816 0.70881 0.0
C3222 C 0.75552 0.91813 0.71343 0.0
C3223 C 0.74574 0.92453 0.72604 0.0
H3224 H 0.75924 0.89323 0.69901 0.0
H3225 H 0.66228 0.95742 0.8179 0.0
H3226 H 0.72575 0.87476 0.52305 0.0
H3227 H 0.70136 0.89004 0.52065 0.0
H3228 H 0.73531 0.93449 0.49142 0.0
H3229 H 0.75968 0.91935 0.4937 0.0
H3230 H 0.71989 0.94973 0.51789 0.0
H3231 H 0.69988 0.8983 0.47042 0.0
H3232 H 0.69086 0.86431 0.45704 0.0
H3233 H 0.64648 0.84786 0.49024 0.0
H3234 H 0.65542 0.88169 0.50403 0.0
H3235 H 0.65414 0.99485 0.49398 0.0
H3236 H 0.67626 0.97704 0.49087 0.0
H3237 H 0.64021 0.92835 0.51413 0.0
H3238 H 0.61755 0.9456 0.51631 0.0
H3239 H 0.65674 0.91502 0.49008 0.0
H3240 H 0.67649 0.96452 0.5386 0.0
H3241 H 0.68495 0.99787 0.55339 0.0
H3242 H 0.72935 0.01708 0.52057 0.0
H3243 H 0.72094 0.98391 0.50536 0.0
C3244 C 0.72802 0.88779 0.5161 0.0
C3245 C 0.74468 0.89582 0.50856 0.0
C3246 C 0.71403 0.89643 0.51466 0.0
C3247 C 0.71646 0.9133 0.50571 0.0
C3248 C 0.73312 0.92145 0.49834 0.0
C3249 C 0.74703 0.91274 0.49964 0.0
C3250 C 0.70187 0.92283 0.50439 0.0
C3251 C 0.70616 0.94224 0.51158 0.0
C3252 C 0.68379 0.91285 0.49664 0.0
C3253 C 0.67847 0.89248 0.48841 0.0
C3254 C 0.68832 0.88739 0.475 0.0
C3255 C 0.68319 0.86816 0.46731 0.0
C3256 C 0.66814 0.85392 0.47282 0.0
C3257 C 0.65816 0.85889 0.48601 0.0
C3258 C 0.66324 0.8781 0.49376 0.0
C3259 C 0.65067 0.98015 0.49801 0.0
C3260 C 0.63417 0.9718 0.5057 0.0
C3261 C 0.66346 0.97007 0.49642 0.0
C3262 C 0.66017 0.95158 0.50277 0.0
C3263 C 0.6432 0.94269 0.50935 0.0
C3264 C 0.63032 0.95267 0.51076 0.0
C3265 C 0.67477 0.94199 0.50353 0.0
C3266 C 0.67049 0.92256 0.49631 0.0
C3267 C 0.69281 0.95184 0.51152 0.0
C3268 C 0.69794 0.97179 0.5207 0.0
C3269 C 0.68796 0.9759 0.53444 0.0
C3270 C 0.69275 0.99476 0.5429 0.0
C3271 C 0.70764 0.0096 0.53789 0.0
C3272 C 0.71779 0.00558 0.52442 0.0
C3273 C 0.71302 0.98675 0.51586 0.0
H3274 H 0.71134 0.02419 0.54446 0.0
H3275 H 0.66419 0.83905 0.46685 0.0
H3276 H 0.40469 0.45118 0.70304 0.0
H3277 H 0.39149 0.42297 0.71885 0.0
H3278 H 0.34377 0.44132 0.72608 0.0
H3279 H 0.35764 0.47077 0.71116 0.0
H3280 H 0.35758 0.42767 0.75675 0.0
H3281 H 0.34189 0.40789 0.69282 0.0
H3282 H 0.35202 0.40674 0.66282 0.0
H3283 H 0.38833 0.37522 0.67974 0.0
H3284 H 0.37854 0.37637 0.70989 0.0
H3285 H 0.28791 0.34201 0.77021 0.0
H3286 H 0.30881 0.3729 0.76265 0.0
H3287 H 0.34536 0.34255 0.74354 0.0
H3288 H 0.32223 0.31172 0.74729 0.0
H3289 H 0.34208 0.3634 0.72183 0.0
H3290 H 0.35501 0.37708 0.78428 0.0
H3291 H 0.34672 0.37828 0.81495 0.0
H3292 H 0.31973 0.42062 0.80367 0.0
H3293 H 0.32762 0.4195 0.77287 0.0
C3294 C 0.39116 0.44907 0.70754 0.0
C3295 C 0.38193 0.46295 0.70558 0.0
C3296 C 0.38385 0.43313 0.71689 0.0
C3297 C 0.36678 0.43028 0.72359 0.0
C3298 C 0.35711 0.4436 0.72109 0.0
C3299 C 0.36473 0.46 0.7122 0.0
C3300 C 0.35832 0.41235 0.73172 0.0
C3301 C 0.35408 0.4135 0.74928 0.0
C3302 C 0.35463 0.3941 0.72199 0.0
C3303 C 0.35949 0.39223 0.70357 0.0
C3304 C 0.35197 0.40065 0.6901 0.0
C3305 C 0.3577 0.40005 0.6731 0.0
C3306 C 0.37083 0.39093 0.66938 0.0
C3307 C 0.37816 0.38226 0.68264 0.0
C3308 C 0.37249 0.38284 0.69967 0.0
C3309 C 0.3005 0.34215 0.76448 0.0
C3310 C 0.30442 0.3248 0.76047 0.0
C3311 C 0.31262 0.35977 0.76054 0.0
C3312 C 0.32912 0.36019 0.7533 0.0
C3313 C 0.33299 0.3427 0.74957 0.0
C3314 C 0.32027 0.3251 0.7524 0.0
C3315 C 0.34092 0.37829 0.74714 0.0
C3316 C 0.34587 0.3773 0.72978 0.0
C3317 C 0.34567 0.39653 0.75733 0.0
C3318 C 0.34188 0.39816 0.77619 0.0
C3319 C 0.34733 0.38667 0.78833 0.0
C3320 C 0.34266 0.38731 0.80574 0.0
C3321 C 0.33267 0.39949 0.81124 0.0
C3322 C 0.32747 0.41119 0.79939 0.0
C3323 C 0.33209 0.41061 0.78196 0.0
H3324 H 0.32897 0.39987 0.82469 0.0
H3325 H 0.3753 0.39056 0.65623 0.0
H3326 H 0.16909 0.56938 0.27884 0.0
H3327 H 0.19209 0.60178 0.28248 0.0
H3328 H 0.20412 0.59494 0.22835 0.0
H3329 H 0.18158 0.56225 0.22477 0.0
H3330 H 0.23501 0.61371 0.24965 0.0
H3331 H 0.17523 0.61909 0.23746 0.0
H3332 H 0.1422 0.6131 0.24069 0.0
H3333 H 0.1552 0.64 0.29391 0.0
H3334 H 0.18831 0.6459 0.29107 0.0
H3335 H 0.26644 0.71681 0.24064 0.0
H3336 H 0.25098 0.68165 0.23746 0.0
H3337 H 0.24319 0.68301 0.29303 0.0
H3338 H 0.25857 0.71824 0.29642 0.0
H3339 H 0.21079 0.66706 0.26941 0.0
H3340 H 0.27221 0.66205 0.27947 0.0
H3341 H 0.3047 0.66981 0.27315 0.0
H3342 H 0.28766 0.64407 0.21987 0.0
H3343 H 0.25504 0.63637 0.22583 0.0
C3344 C 0.17681 0.57472 0.26781 0.0
C3345 C 0.17351 0.56354 0.25151 0.0
C3346 C 0.18989 0.59314 0.26989 0.0
C3347 C 0.19946 0.60071 0.25557 0.0
C3348 C 0.19681 0.58923 0.23951 0.0
C3349 C 0.18393 0.57066 0.2375 0.0
C3350 C 0.21118 0.62113 0.25708 0.0
C3351 C 0.22973 0.62542 0.25383 0.0
C3352 C 0.20411 0.63628 0.26235 0.0
C3353 C 0.18422 0.63278 0.26411 0.0
C3354 C 0.17103 0.62359 0.2499 0.0
C3355 C 0.1523 0.62023 0.25165 0.0
C3356 C 0.1466 0.62612 0.26751 0.0
C3357 C 0.15963 0.63542 0.28164 0.0
C3358 C 0.17838 0.63879 0.27996 0.0
C3359 C 0.26162 0.70961 0.25223 0.0
C3360 C 0.26345 0.72023 0.26874 0.0
C3361 C 0.25296 0.68956 0.2504 0.0
C3362 C 0.2461 0.67999 0.26504 0.0
C3363 C 0.24851 0.69037 0.28165 0.0
C3364 C 0.25724 0.71041 0.28354 0.0
C3365 C 0.23471 0.65953 0.26265 0.0
C3366 C 0.2161 0.6553 0.26542 0.0
C3367 C 0.24165 0.64461 0.25652 0.0
C3368 C 0.26121 0.64873 0.25307 0.0
C3369 C 0.2754 0.65812 0.26639 0.0
C3370 C 0.29383 0.6625 0.26288 0.0
C3371 C 0.29824 0.65746 0.24611 0.0
C3372 C 0.28422 0.64796 0.23285 0.0
C3373 C 0.26576 0.64355 0.2363 0.0
H3374 H 0.31252 0.66089 0.24341 0.0
H3375 H 0.13209 0.62352 0.26884 0.0
H3376 H 0.48255 0.68311 0.42624 0.0
H3377 H 0.49055 0.65648 0.43965 0.0
H3378 H 0.52781 0.69834 0.47911 0.0
H3379 H 0.52011 0.72491 0.46536 0.0
H3380 H 0.54348 0.6736 0.46829 0.0
H3381 H 0.48532 0.66799 0.4886 0.0
H3382 H 0.45231 0.66479 0.48776 0.0
H3383 H 0.43867 0.60988 0.45632 0.0
H3384 H 0.47163 0.61291 0.45671 0.0
H3385 H 0.55578 0.59589 0.51698 0.0
H3386 H 0.54981 0.62535 0.50785 0.0
H3387 H 0.5089 0.59021 0.46705 0.0
H3388 H 0.51402 0.56071 0.47699 0.0
H3389 H 0.49567 0.61393 0.48251 0.0
H3390 H 0.55658 0.62265 0.46186 0.0
H3391 H 0.59006 0.62748 0.46531 0.0
H3392 H 0.59844 0.67829 0.5013 0.0
H3393 H 0.56508 0.67369 0.49812 0.0
C3394 C 0.4926 0.68651 0.43764 0.0
C3395 C 0.50099 0.7059 0.44468 0.0
C3396 C 0.497 0.67135 0.44543 0.0
C3397 C 0.5096 0.67537 0.46056 0.0
C3398 C 0.51807 0.69486 0.46747 0.0
C3399 C 0.51374 0.71001 0.45961 0.0
C3400 C 0.51438 0.65931 0.46884 0.0
C3401 C 0.53302 0.66063 0.4716 0.0
C3402 C 0.50078 0.64241 0.47323 0.0
C3403 C 0.48098 0.64081 0.4725 0.0
C3404 C 0.4753 0.65536 0.48131 0.0
C3405 C 0.45659 0.65354 0.48096 0.0
C3406 C 0.44341 0.63717 0.47195 0.0
C3407 C 0.4489 0.62258 0.46326 0.0
C3408 C 0.4676 0.62434 0.46354 0.0
C3409 C 0.54567 0.59456 0.50593 0.0
C3410 C 0.53537 0.57609 0.49763 0.0
C3411 C 0.54232 0.61141 0.50066 0.0
C3412 C 0.52908 0.61014 0.48655 0.0
C3413 C 0.51915 0.59165 0.478 0.0
C3414 C 0.52211 0.57479 0.48361 0.0
C3415 C 0.52473 0.62773 0.48107 0.0
C3416 C 0.50614 0.62684 0.4791 0.0
C3417 C 0.5384 0.64517 0.47774 0.0
C3418 C 0.55837 0.64767 0.47987 0.0
C3419 C 0.56559 0.63473 0.47058 0.0
C3420 C 0.58452 0.63745 0.47248 0.0
C3421 C 0.59633 0.65311 0.48356 0.0
C3422 C 0.58927 0.66613 0.49275 0.0
C3423 C 0.57037 0.66348 0.49089 0.0
H3424 H 0.61098 0.65519 0.485 0.0
H3425 H 0.42892 0.63578 0.47174 0.0
H3426 H 0.60678 0.29767 0.6705 0.0
H3427 H 0.62927 0.29546 0.69429 0.0
H3428 H 0.66824 0.29506 0.65616 0.0
H3429 H 0.64634 0.29754 0.63263 0.0
H3430 H 0.66242 0.26445 0.67854 0.0
H3431 H 0.67502 0.33447 0.68095 0.0
H3432 H 0.66754 0.36519 0.68491 0.0
H3433 H 0.65294 0.35262 0.73727 0.0
H3434 H 0.66006 0.32164 0.73349 0.0
H3435 H 0.75264 0.2875 0.71916 0.0
H3436 H 0.72513 0.28935 0.70204 0.0
H3437 H 0.69718 0.28707 0.74948 0.0
H3438 H 0.72453 0.28492 0.76669 0.0
H3439 H 0.69345 0.31642 0.7265 0.0
H3440 H 0.68468 0.24826 0.72528 0.0
H3441 H 0.69316 0.21813 0.72141 0.0
H3442 H 0.7007 0.22715 0.66693 0.0
H3443 H 0.6926 0.25755 0.67056 0.0
C3444 C 0.62021 0.29729 0.66725 0.0
C3445 C 0.62474 0.29779 0.64965 0.0
C3446 C 0.63301 0.29604 0.68083 0.0
C3447 C 0.65036 0.29503 0.67692 0.0
C3448 C 0.6549 0.29574 0.65944 0.0
C3449 C 0.64233 0.29726 0.646 0.0
C3450 C 0.66387 0.29267 0.69071 0.0
C3451 C 0.66921 0.27582 0.68902 0.0
C3452 C 0.67234 0.30724 0.70467 0.0
C3453 C 0.66773 0.32561 0.70682 0.0
C3454 C 0.66996 0.33813 0.69321 0.0
C3455 C 0.66586 0.35562 0.69545 0.0
C3456 C 0.65969 0.36081 0.71131 0.0
C3457 C 0.65765 0.34854 0.72498 0.0
C3458 C 0.66171 0.33102 0.72279 0.0
C3459 C 0.7407 0.28753 0.72597 0.0
C3460 C 0.74072 0.28599 0.74425 0.0
C3461 C 0.72499 0.2885 0.71617 0.0
C3462 C 0.70913 0.28818 0.72451 0.0
C3463 C 0.70928 0.28727 0.74283 0.0
C3464 C 0.72489 0.28599 0.7526 0.0
C3465 C 0.69236 0.2885 0.71392 0.0
C3466 C 0.68639 0.30489 0.71624 0.0
C3467 C 0.68329 0.2735 0.70051 0.0
C3468 C 0.68822 0.25529 0.69825 0.0
C3469 C 0.68834 0.24393 0.71253 0.0
C3470 C 0.69304 0.22678 0.71037 0.0
C3471 C 0.69751 0.22076 0.69395 0.0
C3472 C 0.69726 0.23185 0.67964 0.0
C3473 C 0.6926 0.24904 0.68175 0.0
H3474 H 0.70113 0.20747 0.6923 0.0
H3475 H 0.65655 0.37438 0.71302 0.0
H3476 H 0.97291 0.30575 0.94559 0.0
H3477 H 0.97986 0.34029 0.95529 0.0
H3478 H 0.03803 0.34758 0.95881 0.0
H3479 H 0.03117 0.31285 0.94846 0.0
H3480 H 0.02225 0.36259 0.99012 0.0
H3481 H 0.0278 0.36733 0.9285 0.0
H3482 H 0.01964 0.36022 0.89638 0.0
H3483 H 0.96997 0.3749 0.90146 0.0
H3484 H 0.97772 0.38188 0.93366 0.0
H3485 H 0.05061 0.46655 -0.00062 0.0
H3486 H 0.0462 0.4322 0.99168 0.0
H3487 H 0.98834 0.42213 0.97763 0.0
H3488 H 0.99258 0.45684 0.98541 0.0
H3489 H 0.00597 0.40868 0.95167 0.0
H3490 H 1.001 0.40408 0.01388 0.0
H3491 H 0.00978 0.41123 0.04593 0.0
H3492 H 0.0594 0.39677 0.03977 0.0
H3493 H 0.05103 0.38973 0.00766 0.0
C3494 C 0.98719 0.31466 0.94852 0.0
C3495 C 1.00153 0.30667 0.94645 0.0
C3496 C 0.99111 0.33437 0.95391 0.0
C3497 C 0.00941 0.34633 0.95763 0.0
C3498 C 0.02383 0.33844 0.95588 0.0
C3499 C 0.01991 0.31871 0.95003 0.0
C3500 C 0.01311 0.36695 0.96384 0.0
C3501 C 0.01908 0.37288 0.98171 0.0
C3502 C 0.00841 0.37996 0.95282 0.0
C3503 C 0.00323 0.37488 0.93356 0.0
C3504 C 0.01499 0.36875 0.92282 0.0
C3505 C 0.01049 0.36484 0.90458 0.0
C3506 C 0.99427 0.36705 0.89689 0.0
C3507 C 0.98251 0.37316 0.90743 0.0
C3508 C 0.98696 0.3771 0.92569 0.0
C3509 C 0.03692 0.45715 -0.00548 0.0
C3510 C 0.02196 0.46451 0.99264 0.0
C3511 C 0.03441 0.43743 0.99043 0.0
C3512 C 0.01694 0.42468 0.98429 0.0
C3513 C 1.00191 0.43184 0.98248 0.0
C3514 C 0.00436 0.45162 0.98679 0.0
C3515 C 0.01487 0.40435 0.97807 0.0
C3516 C 0.00921 0.39847 0.96014 0.0
C3517 C 0.01999 0.39148 0.98905 0.0
C3518 C 0.02547 0.3966 0.00829 0.0
C3519 C 0.01391 0.40269 0.01931 0.0
C3520 C 0.01878 0.40664 0.03751 0.0
C3521 C 0.03516 0.40451 0.04488 0.0
C3522 C 0.04673 0.39845 0.03405 0.0
C3523 C 0.04192 0.39446 0.01585 0.0
H3524 H 0.03887 0.40752 0.05897 0.0
H3525 H 0.99084 0.36408 0.88276 0.0
H3526 H 0.04176 0.79674 0.18228 0.0
H3527 H 0.01249 0.78906 0.19553 0.0
H3528 H 0.98332 0.7636 0.14497 0.0
H3529 H 0.01258 0.77127 0.13155 0.0
H3530 H 0.96741 0.78805 0.16181 0.0
H3531 H 0.98763 0.7343 0.17593 0.0
H3532 H 0.00967 0.71836 0.1873 0.0
H3533 H 0.0123 0.74713 0.23898 0.0
H3534 H 0.99047 0.76348 0.22784 0.0
H3535 H 0.88256 0.7551 0.20191 0.0
H3536 H 0.90863 0.75597 0.18467 0.0
H3537 H 0.94577 0.77482 0.23218 0.0
H3538 H 0.91985 0.77349 0.2494 0.0
H3539 H 0.95595 0.74985 0.21397 0.0
H3540 H 0.93863 0.8063 0.19937 0.0
H3541 H 0.91793 0.82379 0.18789 0.0
H3542 H 0.91087 0.79126 0.13727 0.0
H3543 H 0.93132 0.77338 0.14854 0.0
C3544 C 0.02915 0.78945 0.17396 0.0
C3545 C 0.02955 0.7846 0.15585 0.0
C3546 C 0.01241 0.78499 0.18158 0.0
C3547 C 0.99571 0.77557 0.17128 0.0
C3548 C 0.99603 0.77082 0.15318 0.0
C3549 C 0.01279 0.77518 0.14555 0.0
C3550 C 0.97795 0.77117 0.17943 0.0
C3551 C 0.96474 0.7794 0.17303 0.0
C3552 C 0.97457 0.76016 0.19422 0.0
C3553 C 0.98754 0.75022 0.20102 0.0
C3554 C 0.99301 0.73733 0.18969 0.0
C3555 C 0.00545 0.72821 0.1961 0.0
C3556 C 0.01241 0.73176 0.21384 0.0
C3557 C 0.0069 0.74441 0.22523 0.0
C3558 C 0.99448 0.75359 0.21889 0.0
C3559 C 0.8963 0.75941 0.20865 0.0
C3560 C 0.8991 0.76418 0.22706 0.0
C3561 C 0.91123 0.75997 0.19877 0.0
C3562 C 0.92931 0.76574 0.20703 0.0
C3563 C 0.93202 0.77026 0.22543 0.0
C3564 C 0.91714 0.76945 0.2353 0.0
C3565 C 0.94554 0.76726 0.19674 0.0
C3566 C 0.95848 0.75838 0.20267 0.0
C3567 C 0.94871 0.77779 0.18157 0.0
C3568 C 0.93626 0.78833 0.17487 0.0
C3569 C 0.9325 0.80275 0.18584 0.0
C3570 C 0.92085 0.81275 0.17936 0.0
C3571 C 0.91303 0.80858 0.16188 0.0
C3572 C 0.91689 0.79443 0.15082 0.0
C3573 C 0.92849 0.78436 0.15725 0.0
H3574 H 0.90403 0.81637 0.15688 0.0
H3575 H 0.02205 0.72469 0.21878 0.0
H3576 H 0.53645 0.35796 0.14488 0.0
H3577 H 0.54022 0.38723 0.12894 0.0
H3578 H 0.5448 0.35492 0.08094 0.0
H3579 H 0.54117 0.32568 0.09703 0.0
H3580 H 0.56688 0.39156 0.07971 0.0
H3581 H 0.50364 0.36601 0.09175 0.0
H3582 H 0.47829 0.35476 0.11072 0.0
H3583 H 0.49524 0.41125 0.13989 0.0
H3584 H 0.52087 0.42275 0.12124 0.0
H3585 H 0.54592 0.45829 0.02 0.0
H3586 H 0.54701 0.43045 0.03646 0.0
H3587 H 0.54089 0.46153 0.08457 0.0
H3588 H 0.53994 0.48935 0.06821 0.0
H3589 H 0.52036 0.42566 0.08583 0.0
H3590 H 0.58267 0.45205 0.07382 0.0
H3591 H 0.6095 0.46358 0.05668 0.0
H3592 H 0.59591 0.40663 0.02886 0.0
H3593 H 0.56878 0.39483 0.04562 0.0
C3594 C 0.53879 0.35714 0.13104 0.0
C3595 C 0.53903 0.3392 0.12261 0.0
C3596 C 0.54067 0.37403 0.1217 0.0
C3597 C 0.54257 0.37385 0.10328 0.0
C3598 C 0.54342 0.35606 0.09498 0.0
C3599 C 0.54146 0.33914 0.10434 0.0
C3600 C 0.54286 0.39165 0.0927 0.0
C3601 C 0.55647 0.39873 0.08095 0.0
C3602 C 0.52978 0.40194 0.09417 0.0
C3603 C 0.51424 0.39518 0.1052 0.0
C3604 C 0.50201 0.376 0.10226 0.0
C3605 C 0.4876 0.36958 0.11296 0.0
C3606 C 0.48518 0.38227 0.12653 0.0
C3607 C 0.49715 0.40143 0.12939 0.0
C3608 C 0.51161 0.40791 0.11876 0.0
C3609 C 0.54489 0.45938 0.03411 0.0
C3610 C 0.54285 0.4766 0.04247 0.0
C3611 C 0.54562 0.44323 0.04369 0.0
C3612 C 0.54416 0.4433 0.06218 0.0
C3613 C 0.54204 0.46049 0.07048 0.0
C3614 C 0.54156 0.47669 0.06096 0.0
C3615 C 0.54435 0.42562 0.07274 0.0
C3616 C 0.53078 0.41852 0.08451 0.0
C3617 C 0.55756 0.41544 0.07133 0.0
C3618 C 0.57352 0.42262 0.06082 0.0
C3619 C 0.58524 0.44204 0.06388 0.0
C3620 C 0.60055 0.44862 0.05427 0.0
C3621 C 0.60437 0.43587 0.04164 0.0
C3622 C 0.5929 0.41651 0.0386 0.0
C3623 C 0.57755 0.40987 0.04815 0.0
H3624 H 0.61626 0.44096 0.03425 0.0
H3625 H 0.47402 0.37727 0.1348 0.0
H3626 H 0.96888 0.23501 0.34731 0.0
H3627 H 0.94133 0.23811 0.33116 0.0
H3628 H 0.97069 0.29813 0.32459 0.0
H3629 H 0.99855 0.29484 0.34049 0.0
H3630 H 0.93769 0.29592 0.33609 0.0
H3631 H 0.95568 0.26279 0.28884 0.0
H3632 H 0.96507 0.23776 0.27197 0.0
H3633 H 0.91433 0.19418 0.2802 0.0
H3634 H 0.90476 0.21887 0.2974 0.0
H3635 H 0.85892 0.30769 0.2858 0.0
H3636 H 0.88956 0.30603 0.2953 0.0
H3637 H 0.86589 0.24486 0.30187 0.0
H3638 H 0.83525 0.24642 0.29226 0.0
H3639 H 0.89754 0.24946 0.28818 0.0
H3640 H 0.88119 0.28351 0.33762 0.0
H3641 H 0.87184 0.30969 0.35266 0.0
H3642 H 0.92032 0.35268 0.33854 0.0
H3643 H 0.9298 0.32676 0.32315 0.0
C3644 C 0.96979 0.24871 0.34186 0.0
C3645 C 0.98644 0.26445 0.34492 0.0
C3646 C 0.9538 0.25053 0.33262 0.0
C3647 C 0.95345 0.26838 0.32636 0.0
C3648 C 0.9702 0.28408 0.32906 0.0
C3649 C 0.9864 0.28212 0.33801 0.0
C3650 C 0.93542 0.27082 0.31826 0.0
C3651 C 0.92916 0.28586 0.3254 0.0
C3652 C 0.92365 0.25773 0.3044 0.0
C3653 C 0.92963 0.24265 0.29467 0.0
C3654 C 0.94664 0.24781 0.2873 0.0
C3655 C 0.95196 0.23369 0.27761 0.0
C3656 C 0.94033 0.21438 0.27507 0.0
C3657 C 0.92335 0.20914 0.28222 0.0
C3658 C 0.91798 0.22319 0.29195 0.0
C3659 C 0.86009 0.29383 0.2893 0.0
C3660 C 0.84412 0.27725 0.2883 0.0
C3661 C 0.87785 0.29289 0.29488 0.0
C3662 C 0.88055 0.27535 0.29975 0.0
C3663 C 0.86465 0.25871 0.29839 0.0
C3664 C 0.84688 0.25965 0.29293 0.0
C3665 C 0.89965 0.27426 0.30631 0.0
C3666 C 0.90611 0.25949 0.29886 0.0
C3667 C 0.91169 0.28768 0.31978 0.0
C3668 C 0.90607 0.30324 0.32905 0.0
C3669 C 0.88977 0.29857 0.3376 0.0
C3670 C 0.88446 0.31335 0.3462 0.0
C3671 C 0.89544 0.33284 0.3465 0.0
C3672 C 0.9118 0.33758 0.33825 0.0
C3673 C 0.91715 0.32285 0.32958 0.0
H3674 H 0.8913 0.34427 0.35316 0.0
H3675 H 0.94446 0.20348 0.26753 0.0
H3676 H 0.00828 0.70385 0.64118 0.0
H3677 H 0.00876 0.67543 0.62248 0.0
H3678 H 0.05077 0.71235 0.59406 0.0
H3679 H 0.04955 0.74128 0.61244 0.0
H3680 H 0.03165 0.68482 0.57115 0.0
H3681 H 0.05707 0.67874 0.62938 0.0
H3682 H 0.0573 0.67692 0.66162 0.0
H3683 H 0.00821 0.62728 0.65409 0.0
H3684 H 0.00758 0.62892 0.62183 0.0
H3685 H 0.04982 0.60185 0.52752 0.0
H3686 H 0.05046 0.63198 0.54436 0.0
H3687 H 0.01535 0.59818 0.58052 0.0
H3688 H 0.01648 0.56806 0.56459 0.0
H3689 H 0.03251 0.62548 0.59965 0.0
H3690 H 0.00553 0.63208 0.54175 0.0
H3691 H 0.00395 0.63458 0.50956 0.0
H3692 H 0.05405 0.68301 0.51609 0.0
H3693 H 0.05602 0.68068 0.54828 0.0
C3694 C 0.01755 0.70614 0.63084 0.0
C3695 C 0.0288 0.72532 0.62856 0.0
C3696 C 0.01805 0.68955 0.62014 0.0
C3697 C 0.0303 0.69097 0.60686 0.0
C3698 C 0.04119 0.71023 0.60412 0.0
C3699 C 0.04044 0.72703 0.61469 0.0
C3700 C 0.0316 0.67253 0.59607 0.0
C3701 C 0.03205 0.67196 0.57753 0.0
C3702 C 0.03174 0.65508 0.60379 0.0
C3703 C 0.03222 0.65404 0.62319 0.0
C3704 C 0.04629 0.66749 0.63461 0.0
C3705 C 0.04649 0.66648 0.65289 0.0
C3706 C 0.03276 0.65202 0.6599 0.0
C3707 C 0.01883 0.63849 0.64864 0.0
C3708 C 0.01856 0.63943 0.63037 0.0
C3709 C 0.04217 0.60076 0.53905 0.0
C3710 C 0.03301 0.58211 0.5444 0.0
C3711 C 0.04226 0.61833 0.54874 0.0
C3712 C 0.0324 0.61829 0.56387 0.0
C3713 C 0.02321 0.59947 0.56913 0.0
C3714 C 0.02373 0.58191 0.55983 0.0
C3715 C 0.03205 0.63736 0.57447 0.0
C3716 C 0.03194 0.63816 0.5931 0.0
C3717 C 0.03202 0.65494 0.56678 0.0
C3718 C 0.03101 0.65606 0.5474 0.0
C3719 C 0.01627 0.64316 0.5363 0.0
C3720 C 0.0153 0.64457 0.51806 0.0
C3721 C 0.02892 0.65891 0.51078 0.0
C3722 C 0.04353 0.67189 0.52173 0.0
C3723 C 0.04458 0.67053 0.53997 0.0
H3724 H 0.02812 0.65999 0.49667 0.0
H3725 H 0.03294 0.65127 0.67405 0.0
H3726 H 0.60885 0.78865 0.86043 0.0
H3727 H 0.63805 0.78987 0.84783 0.0
H3728 H 0.60773 0.74864 0.80465 0.0
H3729 H 0.57898 0.74742 0.81698 0.0
H3730 H 0.63575 0.73815 0.81186 0.0
H3731 H 0.63173 0.80016 0.801 0.0
H3732 H 0.62924 0.83318 0.80652 0.0
H3733 H 0.6793 0.85039 0.84104 0.0
H3734 H 0.68195 0.81736 0.83591 0.0
H3735 H 0.71507 0.74425 0.76255 0.0
H3736 H 0.6856 0.74429 0.77304 0.0
H3737 H 0.71417 0.79271 0.81125 0.0
H3738 H 0.74332 0.79376 0.79948 0.0
H3739 H 0.68595 0.79918 0.80579 0.0
H3740 H 0.6875 0.73298 0.81568 0.0
H3741 H 0.68835 0.69996 0.80624 0.0
H3742 H 0.64087 0.69076 0.76941 0.0
H3743 H 0.63986 0.72376 0.77854 0.0
C3744 C 0.60829 0.77989 0.8482 0.0
C3745 C 0.59091 0.76791 0.84003 0.0
C3746 C 0.62525 0.78063 0.84082 0.0
C3747 C 0.6258 0.76937 0.82491 0.0
C3748 C 0.60843 0.75751 0.81685 0.0
C3749 C 0.59164 0.75689 0.82408 0.0
C3750 C 0.644 0.76941 0.81676 0.0
C3751 C 0.64662 0.75165 0.81057 0.0
C3752 C 0.65878 0.78664 0.81459 0.0
C3753 C 0.65687 0.80621 0.81831 0.0
C3754 C 0.64206 0.81091 0.80997 0.0
C3755 C 0.64066 0.82964 0.81297 0.0
C3756 C 0.65406 0.84385 0.82418 0.0
C3757 C 0.6689 0.83935 0.83241 0.0
C3758 C 0.67035 0.82062 0.82947 0.0
C3759 C 0.71516 0.75498 0.77319 0.0
C3760 C 0.73212 0.76898 0.78 0.0
C3761 C 0.69798 0.75481 0.77958 0.0
C3762 C 0.69674 0.76804 0.79378 0.0
C3763 C 0.71383 0.78208 0.80044 0.0
C3764 C 0.73088 0.78267 0.79365 0.0
C3765 C 0.67819 0.76783 0.80152 0.0
C3766 C 0.67534 0.78561 0.80744 0.0
C3767 C 0.66304 0.75059 0.80315 0.0
C3768 C 0.66375 0.73087 0.79766 0.0
C3769 C 0.67731 0.72392 0.80552 0.0
C3770 C 0.67781 0.70522 0.80023 0.0
C3771 C 0.6647 0.69329 0.7872 0.0
C3772 C 0.65103 0.70002 0.77947 0.0
C3773 C 0.65049 0.71871 0.7847 0.0
H3774 H 0.66512 0.67883 0.78313 0.0
H3775 H 0.65298 0.85837 0.82644 0.0
H3776 H 0.42934 0.5168 0.66374 0.0
H3777 H 0.44526 0.5158 0.63724 0.0
H3778 H 0.49756 0.53511 0.66893 0.0
H3779 H 0.48165 0.53574 0.69575 0.0
H3780 H 0.48821 0.55794 0.63865 0.0
H3781 H 0.48648 0.49213 0.65491 0.0
H3782 H 0.46985 0.45825 0.66063 0.0
H3783 H 0.43931 0.44877 0.60971 0.0
H3784 H 0.45564 0.48262 0.60377 0.0
H3785 H 0.55244 0.56328 0.57864 0.0
H3786 H 0.53477 0.55823 0.60423 0.0
H3787 H 0.49368 0.50868 0.5748 0.0
H3788 H 0.51443 0.51055 0.55186 0.0
H3789 H 0.4935 0.50034 0.60313 0.0
H3790 H 0.49153 0.56164 0.58382 0.0
H3791 H 0.50345 0.59535 0.57537 0.0
H3792 H 0.53261 0.61424 0.62678 0.0
H3793 H 0.52106 0.58067 0.63547 0.0
C3794 C 0.44426 0.52111 0.665 0.0
C3795 C 0.45451 0.5269 0.68152 0.0
C3796 C 0.45318 0.52011 0.65 0.0
C3797 C 0.47232 0.52513 0.65151 0.0
C3798 C 0.48265 0.53099 0.66791 0.0
C3799 C 0.4737 0.53164 0.683 0.0
C3800 C 0.48172 0.52671 0.63571 0.0
C3801 C 0.48959 0.5455 0.63076 0.0
C3802 C 0.48209 0.51019 0.62519 0.0
C3803 C 0.47214 0.48996 0.629 0.0
C3804 C 0.47608 0.48288 0.64503 0.0
C3805 C 0.46675 0.46366 0.64827 0.0
C3806 C 0.4535 0.45138 0.63556 0.0
C3807 C 0.44956 0.45829 0.61956 0.0
C3808 C 0.45886 0.47748 0.61624 0.0
C3809 C 0.5397 0.55123 0.5779 0.0
C3810 C 0.53352 0.53826 0.56274 0.0
C3811 C 0.52937 0.54864 0.59228 0.0
C3812 C 0.51217 0.534 0.59099 0.0
C3813 C 0.50657 0.52054 0.576 0.0
C3814 C 0.51783 0.52209 0.56242 0.0
C3815 C 0.50057 0.53194 0.60568 0.0
C3816 C 0.49204 0.51303 0.6105 0.0
C3817 C 0.49861 0.54838 0.6155 0.0
C3818 C 0.50549 0.56861 0.61025 0.0
C3819 C 0.50054 0.57298 0.59329 0.0
C3820 C 0.50724 0.59206 0.58846 0.0
C3821 C 0.5188 0.60692 0.60052 0.0
C3822 C 0.52366 0.60274 0.61745 0.0
C3823 C 0.51701 0.5837 0.62234 0.0
H3824 H 0.52397 0.62167 0.59675 0.0
H3825 H 0.44631 0.43651 0.6381 0.0
H3826 H 0.73942 0.1608 0.00583 0.0
H3827 H 0.7362 0.17518 0.97847 0.0
H3828 H 0.78444 0.16289 0.96161 0.0
H3829 H 0.78849 0.14947 0.9899 0.0
H3830 H 0.78461 0.19871 0.95492 0.0
H3831 H 0.73844 0.13413 0.94568 0.0
H3832 H 0.71215 0.10839 0.95513 0.0
H3833 H 0.67985 0.14743 0.95504 0.0
H3834 H 0.70602 0.17347 0.94579 0.0
H3835 H 0.77408 0.21776 0.86775 0.0
H3836 H 0.77467 0.19951 0.89333 0.0
H3837 H 0.7263 0.21177 0.90973 0.0
H3838 H 0.72492 0.22919 0.88345 0.0
H3839 H 0.72548 0.17601 0.91682 0.0
H3840 H 0.76841 0.23982 0.92686 0.0
H3841 H 0.79382 0.26847 0.92052 0.0
H3842 H 0.83106 0.23473 0.92242 0.0
H3843 H 0.80578 0.20574 0.92845 0.0
C3844 C 0.74924 0.16089 -0.00377 0.0
C3845 C 0.76405 0.15376 -0.00019 0.0
C3846 C 0.74735 0.1691 0.98057 0.0
C3847 C 0.75975 0.16959 0.96781 0.0
C3848 C 0.77461 0.16244 0.97128 0.0
C3849 C 0.77685 0.1547 0.9873 0.0
C3850 C 0.75728 0.17795 0.95104 0.0
C3851 C 0.77185 0.19348 0.94637 0.0
C3852 C 0.74024 0.17175 0.94045 0.0
C3853 C 0.72419 0.15573 0.94504 0.0
C3854 C 0.72572 0.1372 0.94764 0.0
C3855 C 0.71085 0.12258 0.953 0.0
C3856 C 0.69434 0.12628 0.95569 0.0
C3857 C 0.69263 0.14458 0.95293 0.0
C3858 C 0.70746 0.15925 0.94758 0.0
C3859 C 0.76322 0.21614 0.87648 0.0
C3860 C 0.74955 0.22511 0.87366 0.0
C3861 C 0.76373 0.20589 0.89121 0.0
C3862 C 0.75082 0.20477 0.90361 0.0
C3863 C 0.7365 0.21269 0.90037 0.0
C3864 C 0.73585 0.22279 0.88547 0.0
C3865 C 0.75304 0.19635 0.92041 0.0
C3866 C 0.73836 0.18103 0.92521 0.0
C3867 C 0.76982 0.20306 0.93137 0.0
C3868 C 0.78513 0.22054 0.92792 0.0
C3869 C 0.78198 0.23846 0.92579 0.0
C3870 C 0.79636 0.25477 0.92226 0.0
C3871 C 0.81403 0.25341 0.92101 0.0
C3872 C 0.81736 0.23575 0.92335 0.0
C3873 C 0.803 0.21937 0.92683 0.0
H3874 H 0.82516 0.26605 0.91828 0.0
H3875 H 0.68287 0.11496 0.9599 0.0
H3876 H 0.12075 0.48764 0.18404 0.0
H3877 H 0.10978 0.48638 0.15294 0.0
H3878 H 0.08329 0.52947 0.16623 0.0
H3879 H 0.09402 0.53086 0.19719 0.0
H3880 H 0.06105 0.49285 0.14749 0.0
H3881 H 0.11931 0.54502 0.1492 0.0
H3882 H 0.15312 0.55935 0.15351 0.0
H3883 H 0.15864 0.51765 0.11324 0.0
H3884 H 0.12482 0.50283 0.10893 0.0
H3885 H 0.03167 0.53091 0.07413 0.0
H3886 H 0.04977 0.53038 0.10179 0.0
H3887 H 0.07317 0.48994 0.07576 0.0
H3888 H 0.05529 0.49036 0.04831 0.0
H3889 H 0.09847 0.52029 0.09902 0.0
H3890 H 0.03801 0.47128 0.09585 0.0
H3891 H 0.00405 0.46045 0.09169 0.0
H3892 H 0.00277 0.49994 0.13583 0.0
H3893 H 0.03672 0.51127 0.14004 0.0
C3894 C 0.11248 0.49673 0.18029 0.0
C3895 C 0.10801 0.50925 0.19283 0.0
C3896 C 0.1065 0.49613 0.16265 0.0
C3897 C 0.09603 0.50795 0.15771 0.0
C3898 C 0.09154 0.5204 0.17015 0.0
C3899 C 0.09755 0.52109 0.1877 0.0
C3900 C 0.0883 0.50643 0.13976 0.0
C3901 C 0.06915 0.49876 0.13682 0.0
C3902 C 0.09924 0.5139 0.12614 0.0
C3903 C 0.11956 0.52257 0.12899 0.0
C3904 C 0.12773 0.53869 0.14147 0.0
C3905 C 0.1469 0.54696 0.14386 0.0
C3906 C 0.15803 0.53935 0.13372 0.0
C3907 C 0.15 0.52348 0.12114 0.0
C3908 C 0.13084 0.51513 0.11873 0.0
C3909 C 0.04067 0.52194 0.07447 0.0
C3910 C 0.04212 0.51054 0.05947 0.0
C3911 C 0.05105 0.52183 0.09001 0.0
C3912 C 0.06253 0.51006 0.09044 0.0
C3913 C 0.06437 0.49914 0.07535 0.0
C3914 C 0.05409 0.49929 0.05987 0.0
C3915 C 0.07118 0.50754 0.10707 0.0
C3916 C 0.09042 0.51407 0.10963 0.0
C3917 C 0.06034 0.49936 0.12053 0.0
C3918 C 0.0399 0.49219 0.11819 0.0
C3919 C 0.03049 0.47773 0.10459 0.0
C3920 C 0.01124 0.47151 0.10223 0.0
C3921 C 1.00126 0.47952 0.11347 0.0
C3922 C 0.01051 0.49375 0.12713 0.0
C3923 C 0.02975 0.50006 0.12951 0.0
H3924 H 0.98636 0.47469 0.11162 0.0
H3925 H 0.17286 0.5458 0.13556 0.0
H3926 H 0.80882 0.83365 0.46972 0.0
H3927 H 0.80947 0.82826 0.43786 0.0
H3928 H 0.7504 0.81456 0.43084 0.0
H3929 H 0.74979 0.82074 0.46308 0.0
H3930 H 0.76537 0.78597 0.4142 0.0
H3931 H 0.77306 0.85385 0.41608 0.0
H3932 H 0.78599 0.88897 0.42582 0.0
H3933 H 0.83903 0.88903 0.41094 0.0
H3934 H 0.82649 0.85382 0.40135 0.0
H3935 H 0.76054 0.7824 0.32027 0.0
H3936 H 0.75828 0.79081 0.35141 0.0
H3937 H 0.81721 0.80564 0.36172 0.0
H3938 H 0.81955 0.79676 0.33037 0.0
H3939 H 0.80117 0.83449 0.37626 0.0
H3940 H 0.79396 0.76646 0.37596 0.0
H3941 H 0.78112 0.73138 0.36604 0.0
H3942 H 0.72734 0.73181 0.37813 0.0
H3943 H 0.73982 0.76701 0.38786 0.0
C3944 C 0.79594 0.82954 0.46139 0.0
C3945 C 0.77922 0.82732 0.46887 0.0
C3946 C 0.79637 0.82663 0.44317 0.0
C3947 C 0.78002 0.82106 0.43193 0.0
C3948 C 0.7632 0.81893 0.43929 0.0
C3949 C 0.76283 0.82239 0.45765 0.0
C3950 C 0.78073 0.81619 0.41275 0.0
C3951 C 0.77286 0.79667 0.4058 0.0
C3952 C 0.79108 0.83003 0.40196 0.0
C3953 C 0.79886 0.8511 0.40818 0.0
C3954 C 0.78754 0.86127 0.4151 0.0
C3955 C 0.79479 0.88122 0.42054 0.0
C3956 C 0.81334 0.89121 0.41905 0.0
C3957 C 0.82467 0.88127 0.41212 0.0
C3958 C 0.81749 0.86131 0.40667 0.0
C3959 C 0.77305 0.78741 0.32915 0.0
C3960 C 0.79024 0.78897 0.32284 0.0
C3961 C 0.77171 0.79215 0.34697 0.0
C3962 C 0.78755 0.79886 0.35891 0.0
C3963 C 0.8048 0.8005 0.35271 0.0
C3964 C 0.80612 0.79534 0.33485 0.0
C3965 C 0.78586 0.80427 0.37778 0.0
C3966 C 0.79359 0.82385 0.38466 0.0
C3967 C 0.77542 0.7905 0.38855 0.0
C3968 C 0.76779 0.76943 0.38242 0.0
C3969 C 0.77935 0.75914 0.37629 0.0
C3970 C 0.77215 0.73922 0.37076 0.0
C3971 C 0.75341 0.72938 0.3714 0.0
C3972 C 0.74184 0.73946 0.37761 0.0
C3973 C 0.74898 0.7594 0.38314 0.0
H3974 H 0.74787 0.71395 0.36714 0.0
H3975 H 0.81891 0.90667 0.42323 0.0
H3976 H 0.41621 0.52063 0.78026 0.0
H3977 H 0.43467 0.52449 0.80881 0.0
H3978 H 0.47904 0.51434 0.78172 0.0
H3979 H 0.46053 0.51004 0.75348 0.0
H3980 H 0.46746 0.48966 0.807 0.0
H3981 H 0.48559 0.5585 0.80116 0.0
H3982 H 0.47888 0.58884 0.79522 0.0
H3983 H 0.44751 0.58407 0.84026 0.0
H3984 H 0.4539 0.55358 0.84638 0.0
H3985 H 0.52809 0.49853 0.88211 0.0
H3986 H 0.51599 0.5053 0.85367 0.0
H3987 H 0.47332 0.52137 0.87881 0.0
H3988 H 0.48602 0.51579 0.90749 0.0
H3989 H 0.48557 0.54483 0.85386 0.0
H3990 H 0.46522 0.47514 0.85826 0.0
H3991 H 0.46808 0.44254 0.86204 0.0
H3992 H 0.50103 0.44744 0.81813 0.0
H3993 H 0.49853 0.48016 0.81422 0.0
C3994 C 0.42998 0.51947 0.78058 0.0
C3995 C 0.43708 0.51479 0.76508 0.0
C3996 C 0.44051 0.52181 0.79671 0.0
C3997 C 0.45816 0.51975 0.79719 0.0
C3998 C 0.46544 0.51595 0.78151 0.0
C3999 C 0.4549 0.51341 0.76552 0.0
C4000 C 0.46823 0.51923 0.81407 0.0
C4001 C 0.47178 0.50185 0.81715 0.0
C4002 C 0.47327 0.53497 0.82729 0.0
C4003 C 0.47016 0.55375 0.82418 0.0
C4004 C 0.47725 0.56393 0.80979 0.0
C4005 C 0.4735 0.58114 0.80638 0.0
C4006 C 0.46275 0.58836 0.81734 0.0
C4007 C 0.45584 0.57846 0.8318 0.0
C4008 C 0.45957 0.56125 0.83527 0.0
C4009 C 0.51635 0.50387 0.88165 0.0
C4010 C 0.50785 0.50641 0.89699 0.0
C4011 C 0.50937 0.50756 0.86538 0.0
C4012 C 0.49358 0.51347 0.86417 0.0
C4013 C 0.48547 0.51671 0.87951 0.0
C4014 C 0.49258 0.51326 0.89582 0.0
C4015 C 0.48492 0.5152 0.8468 0.0
C4016 C 0.48152 0.53275 0.84363 0.0
C4017 C 0.4799 0.49953 0.8334 0.0
C4018 C 0.48191 0.48017 0.83613 0.0
C4019 C 0.47326 0.46935 0.84955 0.0
C4020 C 0.47476 0.45083 0.85168 0.0
C4021 C 0.48478 0.44296 0.84037 0.0
C4022 C 0.49332 0.45358 0.82691 0.0
C4023 C 0.49186 0.4721 0.82473 0.0
H4024 H 0.4859 0.4286 0.84201 0.0
H4025 H 0.45978 0.60164 0.81464 0.0
H4026 H 0.80573 0.16863 0.10144 0.0
H4027 H 0.80206 0.18013 0.13145 0.0
H4028 H 0.76345 0.20756 0.11069 0.0
H4029 H 0.76725 0.19665 0.0808 0.0
H4030 H 0.7945 0.23216 0.12923 0.0
H4031 H 0.74818 0.17145 0.13523 0.0
H4032 H 0.73364 0.13601 0.13615 0.0
H4033 H 0.77462 0.13536 0.17718 0.0
H4034 H 0.78959 0.17073 0.17633 0.0
H4035 H 0.77857 0.27515 0.2093 0.0
H4036 H 0.77432 0.25585 0.18089 0.0
H4037 H 0.80826 0.22335 0.20232 0.0
H4038 H 0.81199 0.24215 0.23092 0.0
H4039 H 0.7777 0.19979 0.18383 0.0
H4040 H 0.82536 0.25989 0.17569 0.0
H4041 H 0.83937 0.29549 0.17508 0.0
H4042 H 0.79535 0.29658 0.13761 0.0
H4043 H 0.78096 0.26106 0.13818 0.0
C4044 C 0.79659 0.17726 0.1033 0.0
C4045 C 0.78723 0.18225 0.08879 0.0
C4046 C 0.79415 0.18332 0.1204 0.0
C4047 C 0.78226 0.1943 0.12309 0.0
C4048 C 0.77251 0.19884 0.10871 0.0
C4049 C 0.77507 0.19301 0.09167 0.0
C4050 C 0.78314 0.20474 0.1403 0.0
C4051 C 0.79048 0.22509 0.14113 0.0
C4052 C 0.77855 0.19526 0.15575 0.0
C4053 C 0.77018 0.17376 0.15553 0.0
C4054 C 0.7543 0.16372 0.14423 0.0
C4055 C 0.74591 0.14364 0.14481 0.0
C4056 C 0.75323 0.13343 0.15668 0.0
C4057 C 0.76898 0.14326 0.16796 0.0
C4058 C 0.77742 0.16333 0.16743 0.0
C4059 C 0.78531 0.26407 0.20778 0.0
C4060 C 0.79571 0.2601 0.22201 0.0
C4061 C 0.78282 0.25305 0.19169 0.0
C4062 C 0.79115 0.23842 0.18963 0.0
C4063 C 0.80172 0.23461 0.20381 0.0
C4064 C 0.80393 0.24537 0.22 0.0
C4065 C 0.78891 0.22713 0.1726 0.0
C4066 C 0.78154 0.20672 0.17184 0.0
C4067 C 0.79353 0.23645 0.15711 0.0
C4068 C 0.802 0.25787 0.15712 0.0
C4069 C 0.81858 0.26777 0.16747 0.0
C4070 C 0.82661 0.28792 0.16709 0.0
C4071 C 0.81823 0.2983 0.15635 0.0
C4072 C 0.80181 0.28855 0.14595 0.0
C4073 C 0.79372 0.26841 0.14629 0.0
H4074 H 0.82449 0.31389 0.15605 0.0
H4075 H 0.74667 0.1179 0.15715 0.0
H4076 H 0.14293 0.51483 0.29038 0.0
H4077 H 0.13199 0.52627 0.31677 0.0
H4078 H 0.07936 0.48128 0.3049 0.0
H4079 H 0.08995 0.47054 0.27761 0.0
H4080 H 0.07594 0.51746 0.31034 0.0
H4081 H 0.11111 0.47994 0.33889 0.0
H4082 H 0.14014 0.4722 0.3434 0.0
H4083 H 0.16833 0.53143 0.36429 0.0
H4084 H 0.13951 0.5396 0.35957 0.0
H4085 H 0.03606 0.51311 0.392 0.0
H4086 H 0.04928 0.50756 0.36435 0.0
H4087 H 0.09625 0.55889 0.37939 0.0
H4088 H 0.08292 0.56458 0.40675 0.0
H4089 H 0.10483 0.52467 0.37174 0.0
H4090 H 0.07038 0.56191 0.34786 0.0
H4091 H 0.04318 0.57251 0.3418 0.0
H4092 H 0.0155 0.5181 0.31099 0.0
H4093 H 0.04235 0.50687 0.31733 0.0
C4094 C 0.12935 0.50672 0.29382 0.0
C4095 C 0.11722 0.49173 0.28213 0.0
C4096 C 0.12303 0.51349 0.30877 0.0
C4097 C 0.10488 0.50464 0.31261 0.0
C4098 C 0.09338 0.48833 0.30193 0.0
C4099 C 0.09953 0.48191 0.28667 0.0
C4100 C 0.09761 0.51293 0.32737 0.0
C4101 C 0.08201 0.51878 0.32383 0.0
C4102 C 0.10633 0.51567 0.34467 0.0
C4103 C 0.12321 0.51038 0.34884 0.0
C4104 C 0.1235 0.49128 0.3445 0.0
C4105 C 0.13992 0.48685 0.34702 0.0
C4106 C 0.15608 0.50132 0.35411 0.0
C4107 C 0.15581 0.52024 0.35881 0.0
C4108 C 0.13943 0.52478 0.35624 0.0
C4109 C 0.04894 0.52337 0.38904 0.0
C4110 C 0.05853 0.53933 0.40104 0.0
C4111 C 0.05643 0.52026 0.37341 0.0
C4112 C 0.07359 0.53296 0.37001 0.0
C4113 C 0.08292 0.54913 0.38189 0.0
C4114 C 0.07534 0.55237 0.39734 0.0
C4115 C 0.08257 0.52824 0.35486 0.0
C4116 C 0.09868 0.52334 0.35828 0.0
C4117 C 0.07444 0.52667 0.33745 0.0
C4118 C 0.05833 0.53343 0.33329 0.0
C4119 C 0.05842 0.55208 0.33998 0.0
C4120 C 0.04306 0.55821 0.33648 0.0
C4121 C 0.02759 0.54595 0.32607 0.0
C4122 C 0.02748 0.52755 0.31909 0.0
C4123 C 0.04277 0.52129 0.32266 0.0
H4124 H 0.01571 0.55074 0.32336 0.0
H4125 H 0.1688 0.49787 0.35598 0.0
H4126 H 0.74924 0.82001 0.56795 0.0
H4127 H 0.74598 0.8092 0.5979 0.0
H4128 H 0.80523 0.82726 0.60801 0.0
H4129 H 0.80832 0.83672 0.57803 0.0
H4130 H 0.79389 0.7951 0.61955 0.0
H4131 H 0.77441 0.85193 0.62683 0.0
H4132 H 0.75555 0.87326 0.62055 0.0
H4133 H 0.70683 0.82783 0.63069 0.0
H4134 H 0.72539 0.80615 0.63681 0.0
H4135 H 0.80557 0.80275 0.71347 0.0
H4136 H 0.80341 0.80985 0.68265 0.0
H4137 H 0.74669 0.77321 0.67593 0.0
H4138 H 0.74885 0.76567 0.70691 0.0
H4139 H 0.75358 0.81121 0.6622 0.0
H4140 H 0.77629 0.7561 0.65775 0.0
H4141 H 0.79728 0.73731 0.66509 0.0
H4142 H 0.84312 0.78382 0.65108 0.0
H4143 H 0.82243 0.80297 0.64383 0.0
C4144 C 0.76149 0.82178 0.57669 0.0
C4145 C 0.77903 0.82912 0.57063 0.0
C4146 C 0.75967 0.81568 0.59388 0.0
C4147 C 0.77537 0.81738 0.6055 0.0
C4148 C 0.79283 0.82544 0.59946 0.0
C4149 C 0.79461 0.83098 0.58228 0.0
C4150 C 0.77402 0.81015 0.62361 0.0
C4151 C 0.78519 0.79892 0.62886 0.0
C4152 C 0.76238 0.81446 0.63588 0.0
C4153 C 0.75122 0.82737 0.63205 0.0
C4154 C 0.75965 0.84645 0.62756 0.0
C4155 C 0.74902 0.85861 0.62406 0.0
C4156 C 0.73 0.85188 0.62516 0.0
C4157 C 0.72156 0.833 0.6298 0.0
C4158 C 0.73212 0.82078 0.63329 0.0
C4159 C 0.79258 0.79618 0.7055 0.0
C4160 C 0.77734 0.78369 0.71277 0.0
C4161 C 0.79141 0.8002 0.6878 0.0
C4162 C 0.77491 0.79205 0.67688 0.0
C4163 C 0.75958 0.77968 0.68407 0.0
C4164 C 0.76084 0.77535 0.70178 0.0
C4165 C 0.77381 0.79678 0.65808 0.0
C4166 C 0.76216 0.80742 0.65275 0.0
C4167 C 0.78538 0.79241 0.64585 0.0
C4168 C 0.79784 0.78101 0.65041 0.0
C4169 C 0.79087 0.76238 0.6564 0.0
C4170 C 0.80271 0.75165 0.66049 0.0
C4171 C 0.82153 0.75938 0.65858 0.0
C4172 C 0.82855 0.77785 0.65255 0.0
C4173 C 0.81677 0.78864 0.64843 0.0
H4174 H 0.83067 0.75104 0.66175 0.0
H4175 H 0.72179 0.86133 0.62246 0.0
H4176 H 0.76309 0.4616 0.48009 0.0
H4177 H 0.74816 0.48183 0.49653 0.0
H4178 H 0.72412 0.43403 0.52745 0.0
H4179 H 0.73867 0.41369 0.51115 0.0
H4180 H 0.70017 0.44854 0.505 0.0
H4181 H 0.75301 0.4704 0.54852 0.0
H4182 H 0.78557 0.48658 0.55946 0.0
H4183 H 0.78272 0.54063 0.54129 0.0
H4184 H 0.75023 0.5247 0.52996 0.0
H4185 H 0.64033 0.48691 0.54643 0.0
H4186 H 0.66488 0.47192 0.54512 0.0
H4187 H 0.70147 0.52557 0.52936 0.0
H4188 H 0.67735 0.54074 0.53149 0.0
H4189 H 0.72098 0.5086 0.5464 0.0
H4190 H 0.67247 0.48867 0.49915 0.0
H4191 H 0.64115 0.4743 0.48412 0.0
H4192 H 0.63749 0.41908 0.50391 0.0
H4193 H 0.66865 0.43323 0.51934 0.0
C4194 C 0.7546 0.45542 0.49038 0.0
C4195 C 0.75167 0.43593 0.49408 0.0
C4196 C 0.74649 0.46712 0.49999 0.0
C4197 C 0.73546 0.45942 0.51335 0.0
C4198 C 0.73294 0.44021 0.51736 0.0
C4199 C 0.74096 0.42855 0.50781 0.0
C4200 C 0.72325 0.4695 0.52036 0.0
C4201 C 0.70462 0.46148 0.51434 0.0
C4202 C 0.72948 0.48684 0.53181 0.0
C4203 C 0.74921 0.49625 0.53816 0.0
C4204 C 0.75938 0.48565 0.5466 0.0
C4205 C 0.77782 0.49481 0.55295 0.0
C4206 C 0.78623 0.5146 0.55102 0.0
C4207 C 0.77621 0.52529 0.54274 0.0
C4208 C 0.75778 0.5162 0.53636 0.0
C4209 C 0.65381 0.49556 0.54319 0.0
C4210 C 0.65702 0.5148 0.53884 0.0
C4211 C 0.66776 0.48705 0.54241 0.0
C4212 C 0.68476 0.49751 0.53664 0.0
C4213 C 0.68842 0.51724 0.53377 0.0
C4214 C 0.67464 0.52587 0.53494 0.0
C4215 C 0.69774 0.48737 0.53127 0.0
C4216 C 0.71649 0.49547 0.53732 0.0
C4217 C 0.69181 0.47037 0.5193 0.0
C4218 C 0.67275 0.46211 0.51067 0.0
C4219 C 0.66488 0.47355 0.50051 0.0
C4220 C 0.64718 0.46542 0.49187 0.0
C4221 C 0.63731 0.44581 0.49312 0.0
C4222 C 0.64511 0.43428 0.50302 0.0
C4223 C 0.66277 0.44236 0.51175 0.0
H4224 H 0.62364 0.43953 0.48636 0.0
H4225 H 0.80049 0.52167 0.55598 0.0
H4226 H 0.22854 0.16542 0.53366 0.0
H4227 H 0.20015 0.13829 0.53407 0.0
H4228 H 0.21699 0.10586 0.49261 0.0
H4229 H 0.24595 0.13307 0.49249 0.0
H4230 H 0.18043 0.11052 0.4866 0.0
H4231 H 0.21582 0.08844 0.52966 0.0
H4232 H 0.23697 0.0915 0.5563 0.0
H4233 H 0.19904 0.10752 0.58834 0.0
H4234 H 0.17776 0.10483 0.56185 0.0
H4235 H 0.09675 0.03355 0.49042 0.0
H4236 H 0.12951 0.05105 0.48973 0.0
H4237 H 0.12921 0.08451 0.53866 0.0
H4238 H 0.09658 0.06658 0.53973 0.0
H4239 H 0.15951 0.07547 0.53901 0.0
H4240 H 0.125 0.0998 0.49688 0.0
H4241 H 0.10332 0.09745 0.47096 0.0
H4242 H 0.13976 0.08105 0.43723 0.0
H4243 H 0.16117 0.08203 0.46318 0.0
C4244 C 0.22632 0.15238 0.5248 0.0
C4245 C 0.23934 0.15128 0.51301 0.0
C4246 C 0.21015 0.1369 0.5251 0.0
C4247 C 0.20653 0.12009 0.51341 0.0
C4248 C 0.21964 0.11872 0.50178 0.0
C4249 C 0.23613 0.13415 0.50176 0.0
C4250 C 0.18839 0.10478 0.51276 0.0
C4251 C 0.17591 0.1024 0.49784 0.0
C4252 C 0.18247 0.09485 0.52773 0.0
C4253 C 0.19524 0.09655 0.54372 0.0
C4254 C 0.21205 0.09278 0.54236 0.0
C4255 C 0.22405 0.09441 0.55744 0.0
C4256 C 0.21936 0.09973 0.574 0.0
C4257 C 0.20265 0.1034 0.57551 0.0
C4258 C 0.1906 0.1018 0.56046 0.0
C4259 C 0.1037 0.0445 0.50113 0.0
C4260 C 0.09405 0.04873 0.5151 0.0
C4261 C 0.12243 0.05455 0.50067 0.0
C4262 C 0.13179 0.06935 0.51397 0.0
C4263 C 0.1223 0.07317 0.52823 0.0
C4264 C 0.10363 0.06291 0.52883 0.0
C4265 C 0.15129 0.08128 0.51288 0.0
C4266 C 0.16402 0.08318 0.52756 0.0
C4267 C 0.15735 0.09101 0.49774 0.0
C4268 C 0.14455 0.09061 0.48207 0.0
C4269 C 0.1283 0.0954 0.48399 0.0
C4270 C 0.11604 0.09433 0.46926 0.0
C4271 C 0.12017 0.08918 0.45241 0.0
C4272 C 0.13654 0.08498 0.45029 0.0
C4273 C 0.14868 0.08563 0.46504 0.0
H4274 H 0.11069 0.08839 0.441 0.0
H4275 H 0.22867 0.10097 0.58566 0.0
H4276 H 0.16348 0.96731 0.7964 0.0
H4277 H 0.17858 0.94618 0.78233 0.0
H4278 H 0.23053 0.98033 0.81056 0.0
H4279 H 0.21557 0.00226 0.82434 0.0
H4280 H 0.23249 0.97434 0.7748 0.0
H4281 H 0.20684 0.93538 0.82206 0.0
H4282 H 0.18113 0.91906 0.83916 0.0
H4283 H 0.15217 0.88338 0.79244 0.0
H4284 H 0.17761 0.89971 0.775 0.0
H4285 H 0.28842 0.91538 0.76908 0.0
H4286 H 0.26993 0.93679 0.7737 0.0
H4287 H 0.2217 0.89159 0.74881 0.0
H4288 H 0.24023 0.86961 0.74521 0.0
H4289 H 0.21448 0.90273 0.77844 0.0
H4290 H 0.2411 0.93837 0.73148 0.0
H4291 H 0.26556 0.95536 0.71333 0.0
H4292 H 0.29142 0.99739 0.75731 0.0
H4293 H 0.26727 0.98054 0.77579 0.0
C4294 C 0.17809 0.97024 0.79985 0.0
C4295 C 0.18844 0.98654 0.81136 0.0
C4296 C 0.18666 0.95811 0.79179 0.0
C4297 C 0.2056 0.96178 0.79545 0.0
C4298 C 0.21586 0.97744 0.80758 0.0
C4299 C 0.2073 0.98978 0.81556 0.0
C4300 C 0.21475 0.94961 0.78607 0.0
C4301 C 0.22879 0.9587 0.77568 0.0
C4302 C 0.20905 0.92915 0.78657 0.0
C4303 C 0.19407 0.91885 0.79721 0.0
C4304 C 0.19496 0.9241 0.81542 0.0
C4305 C 0.18043 0.91486 0.82518 0.0
C4306 C 0.16501 0.90023 0.81689 0.0
C4307 C 0.16412 0.89473 0.79884 0.0
C4308 C 0.1786 0.90395 0.78902 0.0
C4309 C 0.274 0.91028 0.76411 0.0
C4310 C 0.26562 0.891 0.75686 0.0
C4311 C 0.26343 0.92256 0.76661 0.0
C4312 C 0.24445 0.9159 0.76139 0.0
C4313 C 0.23634 0.89701 0.75291 0.0
C4314 C 0.24686 0.88452 0.75083 0.0
C4315 C 0.23285 0.92747 0.76746 0.0
C4316 C 0.21816 0.9183 0.77721 0.0
C4317 C 0.23784 0.94785 0.76617 0.0
C4318 C 0.25237 0.95813 0.75504 0.0
C4319 C 0.25206 0.95117 0.73731 0.0
C4320 C 0.26587 0.9608 0.72696 0.0
C4321 C 0.28004 0.97744 0.73417 0.0
C4322 C 0.28042 0.98452 0.75174 0.0
C4323 C 0.26665 0.97496 0.76214 0.0
H4324 H 0.29073 0.98485 0.72614 0.0
H4325 H 0.15376 0.89312 0.82445 0.0
H4326 H 0.33907 0.97295 0.01962 0.0
H4327 H 0.37247 0.98376 0.01788 0.0
H4328 H 0.36493 0.94857 0.96832 0.0
H4329 H 0.33173 0.93899 0.96923 0.0
H4330 H 0.39056 0.94947 0.01309 0.0
H4331 H 0.38355 0.97276 0.95094 0.0
H4332 H 0.37001 0.99181 0.93159 0.0
H4333 H 0.38732 0.0407 0.97105 0.0
H4334 H 0.40054 0.02168 0.99075 0.0
H4335 H 0.48623 0.99382 0.98176 0.0
H4336 H 0.45456 0.97208 0.98188 0.0
H4337 H 0.44448 0.01157 0.022 0.0
H4338 H 0.47594 0.03332 0.02198 0.0
H4339 H 0.42814 0.00156 0.97932 0.0
H4340 H 0.43712 0.98268 0.04013 0.0
H4341 H 0.45403 0.96776 0.06055 0.0
H4342 H 0.43628 0.91436 0.02651 0.0
H4343 H 0.41955 0.92917 0.0057 0.0
C4344 C 0.34455 0.96864 0.00785 0.0
C4345 C 0.33305 0.95512 -0.00533 0.0
C4346 C 0.36348 0.9743 0.00711 0.0
C4347 C 0.37075 0.96636 0.99325 0.0
C4348 C 0.35928 0.95466 0.9791 0.0
C4349 C 0.34037 0.94951 0.97954 0.0
C4350 C 0.39043 0.97014 0.99379 0.0
C4351 C 0.39889 0.9606 0.00555 0.0
C4352 C 0.40093 0.9846 0.98396 0.0
C4353 C 0.39262 0.99574 0.97236 0.0
C4354 C 0.38416 0.98746 0.95556 0.0
C4355 C 0.37661 0.99825 0.94453 0.0
C4356 C 0.37771 0.01742 0.95012 0.0
C4357 C 0.38638 0.02582 0.96677 0.0
C4358 C 0.39383 0.01503 0.97788 0.0
C4359 C 0.47711 0.99783 0.99046 0.0
C4360 C 0.48292 0.01533 0.00144 0.0
C4361 C 0.45946 0.98517 0.99096 0.0
C4362 C 0.44782 0.99015 0.00238 0.0
C4363 C 0.45378 0.00738 0.01364 0.0
C4364 C 0.47136 0.01997 0.01319 0.0
C4365 C 0.42833 0.98118 -0.00129 0.0
C4366 C 0.41987 0.98985 0.98639 0.0
C4367 C 0.41807 0.96629 0.00831 0.0
C4368 C 0.42719 0.95705 0.02131 0.0
C4369 C 0.43689 0.9678 0.03695 0.0
C4370 C 0.44644 0.95936 0.0486 0.0
C4371 C 0.44625 0.94012 0.04482 0.0
C4372 C 0.43642 0.92926 0.02942 0.0
C4373 C 0.42689 0.93766 0.01771 0.0
H4374 H 0.45368 0.93362 0.05382 0.0
H4375 H 0.37193 0.02579 0.94153 0.0
H4376 H 0.8891 0.54917 0.76192 0.0
H4377 H 0.86977 0.56968 0.75512 0.0
H4378 H 0.90268 0.61434 0.79496 0.0
H4379 H 0.92223 0.59387 0.80155 0.0
H4380 H 0.86367 0.60596 0.79544 0.0
H4381 H 0.91065 0.62234 0.75531 0.0
H4382 H 0.92995 0.61359 0.73369 0.0
H4383 H 0.88169 0.58443 0.69841 0.0
H4384 H 0.86206 0.59279 0.71998 0.0
H4385 H 0.83879 0.68672 0.76875 0.0
H4386 H 0.8579 0.66584 0.77386 0.0
H4387 H 0.82022 0.61987 0.7382 0.0
H4388 H 0.8004 0.64029 0.73361 0.0
H4389 H 0.86116 0.62841 0.73534 0.0
H4390 H 0.81423 0.61294 0.77579 0.0
H4391 H 0.79528 0.62072 0.79825 0.0
H4392 H 0.8439 0.64786 0.83365 0.0
H4393 H 0.8632 0.64056 0.81123 0.0
C4394 C 0.89219 0.56343 0.76908 0.0
C4395 C 0.90714 0.57029 0.78196 0.0
C4396 C 0.88118 0.57503 0.76528 0.0
C4397 C 0.88495 0.59348 0.7745 0.0
C4398 C 0.89967 0.60013 0.78772 0.0
C4399 C 0.91085 0.58861 0.79134 0.0
C4400 C 0.87386 0.60606 0.76979 0.0
C4401 C 0.86327 0.61109 0.7824 0.0
C4402 C 0.87316 0.61232 0.75265 0.0
C4403 C 0.8849 0.60808 0.73928 0.0
C4404 C 0.90416 0.61402 0.74295 0.0
C4405 C 0.91515 0.60912 0.73072 0.0
C4406 C 0.90705 0.59842 0.7147 0.0
C4407 C 0.88794 0.59271 0.71083 0.0
C4408 C 0.87687 0.59756 0.72304 0.0
C4409 C 0.83445 0.67213 0.76206 0.0
C4410 C 0.81787 0.66504 0.75103 0.0
C4411 C 0.84548 0.66033 0.76487 0.0
C4412 C 0.84029 0.64137 0.75651 0.0
C4413 C 0.82436 0.63454 0.74472 0.0
C4414 C 0.81312 0.64625 0.74209 0.0
C4415 C 0.85099 0.62837 0.76102 0.0
C4416 C 0.86154 0.62327 0.74838 0.0
C4417 C 0.8517 0.6221 0.77818 0.0
C4418 C 0.84017 0.62645 0.79173 0.0
C4419 C 0.8209 0.62077 0.78828 0.0
C4420 C 0.81009 0.62505 0.80102 0.0
C4421 C 0.81839 0.63485 0.81734 0.0
C4422 C 0.83751 0.64032 0.82098 0.0
C4423 C 0.84839 0.63611 0.80826 0.0
H4424 H 0.80999 0.63814 0.82719 0.0
H4425 H 0.91558 0.59459 0.70527 0.0
H4426 H 0.84643 0.6745 0.03018 0.0
H4427 H 0.86923 0.65815 0.03745 0.0
H4428 H 0.83756 0.60777 0.00258 0.0
H4429 H 0.81467 0.62388 -0.00462 0.0
H4430 H 0.84789 0.59734 0.03396 0.0
H4431 H 0.8776 0.64062 0.99102 0.0
H4432 H 0.89099 0.67239 0.97913 0.0
H4433 H 0.92878 0.69249 0.02574 0.0
H4434 H 0.91546 0.6609 0.03797 0.0
H4435 H 0.90749 0.54386 0.01478 0.0
H4436 H 0.88612 0.56274 0.01669 0.0
H4437 H 0.92833 0.6096 0.04771 0.0
H4438 H 0.95004 0.59088 0.04495 0.0
H4439 H 0.91381 0.62422 0.02364 0.0
H4440 H 0.88717 0.58034 0.06544 0.0
H4441 H 0.87456 0.5487 0.07777 0.0
H4442 H 0.83166 0.53011 0.03511 0.0
H4443 H 0.8441 0.56156 0.02243 0.0
C4444 C 0.84436 0.65997 0.02399 0.0
C4445 C 0.82868 0.6505 0.01219 0.0
C4446 C 0.85744 0.65067 0.02813 0.0
C4447 C 0.85515 0.63176 0.02051 0.0
C4448 C 0.8396 0.62234 0.00867 0.0
C4449 C 0.82654 0.63162 0.00451 0.0
C4450 C 0.86869 0.62148 0.025 0.0
C4451 C 0.86229 0.60314 0.0316 0.0
C4452 C 0.88764 0.62942 0.02269 0.0
C4453 C 0.89536 0.64852 0.0155 0.0
C4454 C 0.88862 0.6519 -0.00119 0.0
C4455 C 0.89624 0.66985 0.99199 0.0
C4456 C 0.91068 0.68448 0.0017 0.0
C4457 C 0.91756 0.68117 0.01825 0.0
C4458 C 0.90999 0.66325 0.02512 0.0
C4459 C 0.91202 0.55804 0.02229 0.0
C4460 C 0.93025 0.56596 0.02981 0.0
C4461 C 0.89979 0.56879 0.0235 0.0
C4462 C 0.90544 0.58753 0.03261 0.0
C4463 C 0.92359 0.59518 0.04066 0.0
C4464 C 0.93595 0.58451 0.03917 0.0
C4465 C 0.89294 0.59972 0.03213 0.0
C4466 C 0.89951 0.61848 0.02634 0.0
C4467 C 0.87417 0.59224 0.03538 0.0
C4468 C 0.86664 0.57328 0.04294 0.0
C4469 C 0.87512 0.56946 0.05863 0.0
C4470 C 0.86797 0.55157 0.06569 0.0
C4471 C 0.85233 0.5374 0.05721 0.0
C4472 C 0.84377 0.5411 0.04167 0.0
C4473 C 0.85083 0.55898 0.03456 0.0
H4474 H 0.84683 0.52355 0.0627 0.0
H4475 H 0.91658 0.69835 -0.00361 0.0
H4476 H 0.21097 0.07247 0.80476 0.0
H4477 H 0.23085 0.10681 0.80879 0.0
H4478 H 0.1835 0.1252 0.81787 0.0
H4479 H 0.16381 0.09135 0.81382 0.0
H4480 H 0.2012 0.13166 0.78394 0.0
H4481 H 0.21197 0.14166 0.84699 0.0
H4482 H 0.22124 0.13334 0.87629 0.0
H4483 H 0.27596 0.14136 0.86145 0.0
H4484 H 0.26696 0.14946 0.83196 0.0
H4485 H 0.25078 0.22598 0.76392 0.0
H4486 H 0.22968 0.19912 0.77721 0.0
H4487 H 0.27609 0.18176 0.79671 0.0
H4488 H 0.29706 0.2111 0.78675 0.0
H4489 H 0.25512 0.17755 0.82043 0.0
H4490 H 0.24394 0.16034 0.75656 0.0
H4491 H 0.23519 0.16524 0.72586 0.0
H4492 H 0.18244 0.16679 0.74025 0.0
H4493 H 0.19095 0.16212 0.77107 0.0
C4494 C 0.20507 0.08391 0.8081 0.0
C4495 C 0.18601 0.07977 0.80818 0.0
C4496 C 0.21633 0.10331 0.81068 0.0
C4497 C 0.2084 0.11821 0.81353 0.0
C4498 C 0.18969 0.11373 0.81575 0.0
C4499 C 0.17851 0.09454 0.81306 0.0
C4500 C 0.21799 0.13761 0.80878 0.0
C4501 C 0.21283 0.14197 0.79197 0.0
C4502 C 0.23316 0.15044 0.81932 0.0
C4503 C 0.23875 0.14605 0.8372 0.0
C4504 C 0.22595 0.14153 0.84992 0.0
C4505 C 0.23116 0.13688 0.86658 0.0
C4506 C 0.24917 0.13678 0.87072 0.0
C4507 C 0.26202 0.14144 0.85823 0.0
C4508 C 0.25688 0.1461 0.84155 0.0
C4509 C 0.25629 0.21702 0.77197 0.0
C4510 C 0.27528 0.22123 0.77554 0.0
C4511 C 0.24432 0.20125 0.77894 0.0
C4512 C 0.25133 0.18841 0.78799 0.0
C4513 C 0.2704 0.19173 0.79013 0.0
C4514 C 0.28235 0.20825 0.78418 0.0
C4515 C 0.23896 0.17132 0.79507 0.0
C4516 C 0.24341 0.16743 0.81239 0.0
C4517 C 0.22333 0.15851 0.78477 0.0
C4518 C 0.21817 0.1611 0.76616 0.0
C4519 C 0.23051 0.16182 0.75318 0.0
C4520 C 0.22559 0.16456 0.73577 0.0
C4521 C 0.2083 0.16639 0.73112 0.0
C4522 C 0.19585 0.16541 0.74387 0.0
C4523 C 0.20071 0.16271 0.76131 0.0
H4524 H 0.20452 0.16852 0.71764 0.0
H4525 H 0.25317 0.13314 0.8836 0.0
H4526 H 0.39389 0.00196 0.28777 0.0
H4527 H 0.369 0.97217 0.29117 0.0
H4528 H 0.39815 0.93799 0.26462 0.0
H4529 H 0.42356 0.96775 0.26153 0.0
H4530 H 0.36034 0.93356 0.25095 0.0
H4531 H 0.39769 0.93475 0.3048 0.0
H4532 H 0.41369 0.94525 0.33464 0.0
H4533 H 0.36297 0.94586 0.35494 0.0
H4534 H 0.3467 0.9357 0.32515 0.0
H4535 H 0.32972 0.83627 0.25989 0.0
H4536 H 0.34541 0.87083 0.26065 0.0
H4537 H 0.3059 0.88288 0.29363 0.0
H4538 H 0.28987 0.84756 0.29321 0.0
H4539 H 0.34267 0.90223 0.30589 0.0
H4540 H 0.305 0.89566 0.25207 0.0
H4541 H 0.2896 0.88161 0.22257 0.0
H4542 H 0.34209 0.88844 0.20265 0.0
H4543 H 0.35783 0.90233 0.23208 0.0
C4544 C 0.39501 0.98815 0.28246 0.0
C4545 C 0.41069 0.98725 0.27418 0.0
C4546 C 0.3809 0.97116 0.28474 0.0
C4547 C 0.38204 0.95302 0.27852 0.0
C4548 C 0.3973 0.95199 0.26976 0.0
C4549 C 0.41162 0.96897 0.26773 0.0
C4550 C 0.36631 0.9353 0.27911 0.0
C4551 C 0.35647 0.92666 0.26295 0.0
C4552 C 0.36087 0.92698 0.29499 0.0
C4553 C 0.37104 0.93492 0.31257 0.0
C4554 C 0.39001 0.93761 0.3155 0.0
C4555 C 0.39911 0.94334 0.33246 0.0
C4556 C 0.38938 0.94633 0.34666 0.0
C4557 C 0.37053 0.94365 0.34392 0.0
C4558 C 0.36137 0.93795 0.32699 0.0
C4559 C 0.32417 0.84612 0.2673 0.0
C4560 C 0.30856 0.83917 0.27657 0.0
C4561 C 0.33311 0.86594 0.26754 0.0
C4562 C 0.32655 0.87933 0.27686 0.0
C4563 C 0.31095 0.87263 0.28618 0.0
C4564 C 0.30188 0.85256 0.28595 0.0
C4565 C 0.33727 0.90014 0.27763 0.0
C4566 C 0.34615 0.9095 0.29399 0.0
C4567 C 0.34203 0.90912 0.26195 0.0
C4568 C 0.3326 0.90013 0.24432 0.0
C4569 C 0.31326 0.89403 0.24145 0.0
C4570 C 0.30448 0.88613 0.22473 0.0
C4571 C 0.31486 0.88425 0.21074 0.0
C4572 C 0.33407 0.89001 0.21349 0.0
C4573 C 0.34293 0.89795 0.23018 0.0
H4574 H 0.30801 0.87845 0.19777 0.0
H4575 H 0.39643 0.95063 0.35979 0.0
H4576 H 0.60293 0.35855 0.58469 0.0
H4577 H 0.59497 0.3865 0.5744 0.0
H4578 H 0.53815 0.3587 0.58314 0.0
H4579 H 0.54609 0.33075 0.5939 0.0
H4580 H 0.54619 0.37491 0.54806 0.0
H4581 H 0.55906 0.39251 0.61123 0.0
H4582 H 0.57781 0.39853 0.63986 0.0
H4583 H 0.62129 0.44191 0.61874 0.0
H4584 H 0.60292 0.43593 0.58989 0.0
H4585 H 0.51762 0.45922 0.53634 0.0
H4586 H 0.52231 0.42934 0.54591 0.0
H4587 H 0.58091 0.45874 0.55412 0.0
H4588 H 0.57641 0.48862 0.54494 0.0
H4589 H 0.5702 0.44043 0.58113 0.0
H4590 H 0.56084 0.42419 0.51899 0.0
H4591 H 0.54601 0.41784 0.48853 0.0
H4592 H 0.50053 0.37245 0.50459 0.0
H4593 H 0.51493 0.37874 0.53525 0.0
C4594 C 0.58874 0.35839 0.58448 0.0
C4595 C 0.57512 0.3425 0.59013 0.0
C4596 C 0.58424 0.37436 0.57861 0.0
C4597 C 0.566 0.37459 0.57805 0.0
C4598 C 0.5523 0.35871 0.58351 0.0
C4599 C 0.55687 0.34286 0.58973 0.0
C4600 C 0.5614 0.39154 0.57173 0.0
C4601 C 0.55108 0.38922 0.55537 0.0
C4602 C 0.56853 0.41023 0.58104 0.0
C4603 C 0.57968 0.41361 0.59834 0.0
C4604 C 0.5727 0.40317 0.61262 0.0
C4605 C 0.58324 0.40662 0.62891 0.0
C4606 C 0.60074 0.42056 0.63111 0.0
C4607 C 0.60774 0.43109 0.61702 0.0
C4608 C 0.59727 0.42768 0.6007 0.0
C4609 C 0.53152 0.45936 0.54023 0.0
C4610 C 0.54662 0.47645 0.54002 0.0
C4611 C 0.53417 0.44218 0.54553 0.0
C4612 C 0.55198 0.44173 0.55059 0.0
C4613 C 0.56703 0.45873 0.55031 0.0
C4614 C 0.56441 0.47588 0.54511 0.0
C4615 C 0.55498 0.42403 0.55726 0.0
C4616 C 0.56507 0.42617 0.57376 0.0
C4617 C 0.54804 0.4053 0.54779 0.0
C4618 C 0.53884 0.40218 0.52954 0.0
C4619 C 0.54753 0.41308 0.51612 0.0
C4620 C 0.53924 0.40942 0.49879 0.0
C4621 C 0.52231 0.3948 0.49464 0.0
C4622 C 0.51362 0.38382 0.50783 0.0
C4623 C 0.52183 0.38744 0.5252 0.0
H4624 H 0.51595 0.39194 0.4812 0.0
H4625 H 0.60887 0.42323 0.64374 0.0
H4626 H 0.46284 0.74631 0.36324 0.0
H4627 H 0.43905 0.74936 0.3413 0.0
H4628 H 0.40758 0.76012 0.38346 0.0
H4629 H 0.43058 0.75641 0.40508 0.0
H4630 H 0.38606 0.73478 0.36018 0.0
H4631 H 0.43409 0.79665 0.35846 0.0
H4632 H 0.46473 0.81866 0.3534 0.0
H4633 H 0.45741 0.79443 0.29942 0.0
H4634 H 0.42681 0.77209 0.30424 0.0
H4635 H 0.32429 0.78002 0.32575 0.0
H4636 H 0.35126 0.77497 0.34112 0.0
H4637 H 0.36674 0.75533 0.29163 0.0
H4638 H 0.33984 0.76036 0.27609 0.0
H4639 H 0.39673 0.78149 0.31415 0.0
H4640 H 0.34687 0.7218 0.31634 0.0
H4641 H 0.31534 0.70264 0.32193 0.0
H4642 H 0.32609 0.72558 0.37638 0.0
H4643 H 0.35763 0.74506 0.37106 0.0
C4644 C 0.45076 0.74919 0.36775 0.0
C4645 C 0.44848 0.75082 0.3859 0.0
C4646 C 0.43727 0.75111 0.35523 0.0
C4647 C 0.42153 0.75502 0.36073 0.0
C4648 C 0.41948 0.75691 0.37884 0.0
C4649 C 0.43268 0.75472 0.39123 0.0
C4650 C 0.40659 0.75647 0.34799 0.0
C4651 C 0.38848 0.7451 0.35019 0.0
C4652 C 0.40968 0.76945 0.33453 0.0
C4653 C 0.4283 0.78247 0.3318 0.0
C4654 C 0.43912 0.79583 0.34558 0.0
C4655 C 0.45645 0.80842 0.34274 0.0
C4656 C 0.46305 0.80789 0.32612 0.0
C4657 C 0.45231 0.79478 0.3123 0.0
C4658 C 0.43498 0.78216 0.31509 0.0
C4659 C 0.33344 0.77469 0.31812 0.0
C4660 C 0.32984 0.77043 0.29973 0.0
C4661 C 0.34883 0.77181 0.32691 0.0
C4662 C 0.36086 0.76466 0.31748 0.0
C4663 C 0.35758 0.76086 0.2991 0.0
C4664 C 0.34214 0.76361 0.2903 0.0
C4665 C 0.37642 0.76045 0.32702 0.0
C4666 C 0.39451 0.77106 0.32404 0.0
C4667 C 0.37339 0.74699 0.33997 0.0
C4668 C 0.35457 0.73496 0.34328 0.0
C4669 C 0.34248 0.72282 0.32949 0.0
C4670 C 0.32461 0.71189 0.33261 0.0
C4671 C 0.31871 0.71292 0.34949 0.0
C4672 C 0.33069 0.7248 0.36331 0.0
C4673 C 0.34857 0.73576 0.36026 0.0
H4674 H 0.30485 0.70449 0.35188 0.0
H4675 H 0.47645 0.81767 0.32393 0.0
H4676 H 0.04356 0.72942 0.09492 0.0
H4677 H 0.03596 0.69474 0.08475 0.0
H4678 H 0.08877 0.70646 0.06361 0.0
H4679 H 0.09611 0.74098 0.07306 0.0
H4680 H 0.06386 0.68336 0.0411 0.0
H4681 H 0.07811 0.68539 0.10441 0.0
H4682 H 0.07469 0.69092 0.13611 0.0
H4683 H 0.01885 0.65263 0.1285 0.0
H4684 H 0.02185 0.64707 0.09672 0.0
H4685 H 0.07228 0.58813 0.03179 0.0
H4686 H 0.07663 0.62238 0.04126 0.0
H4687 H 0.02125 0.6065 0.05694 0.0
H4688 H 0.01683 0.57235 0.04781 0.0
H4689 H 0.04511 0.63111 0.08151 0.0
H4690 H 0.03116 0.62755 0.01893 0.0
H4691 H 0.0342 0.62133 0.98726 0.0
H4692 H 0.08903 0.66205 0.99337 0.0
H4693 H 0.08643 0.66831 0.02513 0.0
C4694 C 0.05346 0.72459 0.08796 0.0
C4695 C 0.0704 0.73798 0.08473 0.0
C4696 C 0.04918 0.70475 0.08231 0.0
C4697 C 0.06191 0.69794 0.07363 0.0
C4698 C 0.0787 0.71135 0.07025 0.0
C4699 C 0.08287 0.73113 0.07565 0.0
C4700 C 0.05783 0.67697 0.06769 0.0
C4701 C 0.05999 0.67196 0.05001 0.0
C4702 C 0.05214 0.662 0.07915 0.0
C4703 C 0.05014 0.66603 0.09813 0.0
C4704 C 0.06503 0.67836 0.10945 0.0
C4705 C 0.06318 0.68144 0.12745 0.0
C4706 C 0.04655 0.67218 0.1343 0.0
C4707 C 0.03171 0.65983 0.12317 0.0
C4708 C 0.03348 0.65672 0.10517 0.0
C4709 C 0.0611 0.59188 0.03746 0.0
C4710 C 0.0442 0.57746 0.03904 0.0
C4711 C 0.06354 0.61148 0.04266 0.0
C4712 C 0.04915 0.61697 0.04953 0.0
C4713 C 0.03249 0.60257 0.05157 0.0
C4714 C 0.03001 0.58303 0.04635 0.0
C4715 C 0.05156 0.63765 0.05509 0.0
C4716 C 0.04899 0.64255 0.07263 0.0
C4717 C 0.05686 0.65251 0.04351 0.0
C4718 C 0.05868 0.64823 0.0245 0.0
C4719 C 0.04396 0.63499 0.01359 0.0
C4720 C 0.04558 0.63151 -0.00441 0.0
C4721 C 0.06181 0.64124 0.98832 0.0
C4722 C 0.07647 0.65448 -0.00098 0.0
C4723 C 0.07493 0.658 0.01702 0.0
H4724 H 0.06301 0.63857 0.97438 0.0
H4725 H 0.04517 0.67454 0.14825 0.0
H4726 H 0.05844 0.25684 0.90053 0.0
H4727 H 0.08723 0.26012 0.88706 0.0
H4728 H 0.06938 0.28894 0.8449 0.0
H4729 H 0.04057 0.28576 0.85827 0.0
H4730 H 0.08296 0.25988 0.83278 0.0
H4731 H 0.10152 0.31496 0.87684 0.0
H4732 H 0.1049 0.33089 0.90704 0.0
H4733 H 0.13833 0.29665 0.92478 0.0
H4734 H 0.13493 0.28029 0.89472 0.0
H4735 H 0.16453 0.28832 0.79125 0.0
H4736 H 0.13899 0.29113 0.80754 0.0
H4737 H 0.15954 0.26738 0.85194 0.0
H4738 H 0.1856 0.2653 0.836 0.0
H4739 H 0.14486 0.29431 0.86357 0.0
H4740 H 0.12597 0.23832 0.82157 0.0
H4741 H 0.12213 0.22015 0.7923 0.0
H4742 H 0.08865 0.25314 0.77191 0.0
H4743 H 0.09256 0.27177 0.80102 0.0
C4744 C 0.06064 0.26391 0.8884 0.0
C4745 C 0.04716 0.27103 0.88048 0.0
C4746 C 0.07716 0.26586 0.88077 0.0
C4747 C 0.08054 0.27492 0.86504 0.0
C4748 C 0.06708 0.28194 0.85706 0.0
C4749 C 0.05063 0.28013 0.86475 0.0
C4750 C 0.09785 0.27661 0.85658 0.0
C4751 C 0.09648 0.26769 0.8394 0.0
C4752 C 0.11552 0.28621 0.86547 0.0
C4753 C 0.11783 0.29626 0.88353 0.0
C4754 C 0.10949 0.31072 0.8872 0.0
C4755 C 0.11142 0.31984 0.90429 0.0
C4756 C 0.12178 0.31475 0.91783 0.0
C4757 C 0.13029 0.30056 0.91429 0.0
C4758 C 0.12838 0.29137 0.89721 0.0
C4759 C 0.16391 0.28412 0.80463 0.0
C4760 C 0.17704 0.27629 0.81216 0.0
C4761 C 0.14916 0.28557 0.81389 0.0
C4762 C 0.14705 0.27904 0.83084 0.0
C4763 C 0.16073 0.27235 0.83883 0.0
C4764 C 0.17554 0.27097 0.8296 0.0
C4765 C 0.12995 0.27781 0.83962 0.0
C4766 C 0.13134 0.28665 0.85689 0.0
C4767 C 0.11223 0.26785 0.83094 0.0
C4768 C 0.10973 0.2566 0.81343 0.0
C4769 C 0.11791 0.24182 0.81081 0.0
C4770 C 0.11571 0.23142 0.79425 0.0
C4771 C 0.10519 0.23553 0.78024 0.0
C4772 C 0.09682 0.25001 0.78277 0.0
C4773 C 0.09902 0.26049 0.7993 0.0
H4774 H 0.1035 0.22746 0.76743 0.0
H4775 H 0.12325 0.32182 0.93106 0.0
H4776 H 0.50232 0.70025 0.90691 0.0
H4777 H 0.50267 0.67073 0.92031 0.0
H4778 H 0.56191 0.69269 0.92819 0.0
H4779 H 0.56154 0.72203 0.91343 0.0
H4780 H 0.55515 0.65621 0.92413 0.0
H4781 H 0.52502 0.68979 0.96299 0.0
H4782 H 0.50148 0.70504 0.97054 0.0
H4783 H 0.45861 0.65124 0.95355 0.0
H4784 H 0.48188 0.63576 0.94572 0.0
H4785 H 0.56004 0.59275 -0.00571 0.0
H4786 H 0.55961 0.62105 0.9781 0.0
H4787 H 0.50555 0.58887 0.95356 0.0
H4788 H 0.5064 0.56014 0.96904 0.0
H4789 H 0.50927 0.62979 0.96641 0.0
H4790 H 0.53727 0.59578 0.92844 0.0
H4791 H 0.5592 0.57891 0.91979 0.0
H4792 H 0.6043 0.63169 0.93386 0.0
H4793 H 0.58261 0.6488 0.94292 0.0
C4794 C 0.51557 0.69892 0.91132 0.0
C4795 C 0.53188 0.71409 0.90882 0.0
C4796 C 0.51575 0.68182 0.91945 0.0
C4797 C 0.53226 0.67901 0.92641 0.0
C4798 C 0.54873 0.69391 0.92342 0.0
C4799 C 0.54856 0.71096 0.91479 0.0
C4800 C 0.53222 0.6608 0.9365 0.0
C4801 C 0.54523 0.65089 0.93359 0.0
C4802 C 0.51908 0.6525 0.94869 0.0
C4803 C 0.50516 0.66171 0.95363 0.0
C4804 C 0.51056 0.68126 0.96082 0.0
C4805 C 0.49727 0.68993 0.96513 0.0
C4806 C 0.47856 0.67913 0.96248 0.0
C4807 C 0.4731 0.6596 0.95558 0.0
C4808 C 0.48633 0.65087 0.95121 0.0
C4809 C 0.54801 0.59156 0.98543 0.0
C4810 C 0.53327 0.57373 0.98321 0.0
C4811 C 0.54778 0.60795 0.97603 0.0
C4812 C 0.53253 0.60769 0.96431 0.0
C4813 C 0.51761 0.58999 0.96235 0.0
C4814 C 0.51812 0.57333 0.97128 0.0
C4815 C 0.53232 0.62563 0.95417 0.0
C4816 C 0.51926 0.63535 0.95706 0.0
C4817 C 0.54526 0.63364 0.9419 0.0
C4818 C 0.55837 0.62348 0.9366 0.0
C4819 C 0.55189 0.60373 0.9299 0.0
C4820 C 0.56426 0.59413 0.92488 0.0
C4821 C 0.58314 0.6042 0.92634 0.0
C4822 C 0.58967 0.6239 0.93278 0.0
C4823 C 0.57735 0.63356 0.93787 0.0
H4824 H 0.59271 0.59675 0.92242 0.0
H4825 H 0.4683 0.68588 0.96581 0.0
H4826 H 0.08185 0.77565 0.71914 0.0
H4827 H 0.1127 0.77663 0.73067 0.0
H4828 H 0.13376 0.79653 0.68197 0.0
H4829 H 0.10265 0.79577 0.67038 0.0
H4830 H 0.14811 0.76902 0.69104 0.0
H4831 H 0.14512 0.82622 0.72429 0.0
H4832 H 0.13397 0.84704 0.74467 0.0
H4833 H 0.13638 0.81018 0.7861 0.0
H4834 H 0.14736 0.789 0.76592 0.0
H4835 H 0.24512 0.79448 0.72488 0.0
H4836 H 0.21469 0.79575 0.71362 0.0
H4837 H 0.19016 0.76334 0.75593 0.0
H4838 H 0.22046 0.76127 0.76679 0.0
H4839 H 0.17817 0.79791 0.75047 0.0
H4840 H 0.17534 0.73844 0.71775 0.0
H4841 H 0.18473 0.71539 0.69832 0.0
H4842 H 0.19302 0.75521 0.65793 0.0
H4843 H 0.18311 0.7783 0.67706 0.0
C4844 C 0.09303 0.78066 0.71086 0.0
C4845 C 0.08927 0.78587 0.6937 0.0
C4846 C 0.11096 0.78125 0.71761 0.0
C4847 C 0.12624 0.78681 0.70751 0.0
C4848 C 0.12261 0.79221 0.69037 0.0
C4849 C 0.10463 0.79196 0.6837 0.0
C4850 C 0.14543 0.78591 0.71442 0.0
C4851 C 0.15468 0.77579 0.70393 0.0
C4852 C 0.15436 0.79383 0.73161 0.0
C4853 C 0.14679 0.80586 0.74349 0.0
C4854 C 0.143 0.82238 0.73766 0.0
C4855 C 0.1368 0.8343 0.74921 0.0
C4856 C 0.13441 0.8299 0.76665 0.0
C4857 C 0.13819 0.81354 0.77258 0.0
C4858 C 0.1444 0.80158 0.76109 0.0
C4859 C 0.23329 0.78746 0.73181 0.0
C4860 C 0.23568 0.77773 0.74689 0.0
C4861 C 0.21568 0.78818 0.72526 0.0
C4862 C 0.19962 0.7797 0.73375 0.0
C4863 C 0.20199 0.7701 0.74891 0.0
C4864 C 0.21952 0.76886 0.75515 0.0
C4865 C 0.18069 0.78121 0.72701 0.0
C4866 C 0.17155 0.79135 0.73755 0.0
C4867 C 0.17171 0.77317 0.71001 0.0
C4868 C 0.17881 0.76016 0.69889 0.0
C4869 C 0.17941 0.74237 0.70481 0.0
C4870 C 0.18471 0.72925 0.69381 0.0
C4871 C 0.18965 0.73389 0.67693 0.0
C4872 C 0.18923 0.75166 0.67101 0.0
C4873 C 0.18368 0.76472 0.68189 0.0
H4874 H 0.19374 0.72369 0.66842 0.0
H4875 H 0.12968 0.83921 0.77558 0.0
H4876 H 0.0162 0.31506 0.42933 0.0
H4877 H 0.01731 0.34694 0.44239 0.0
H4878 H 0.0625 0.37421 0.41247 0.0
H4879 H 0.06151 0.34166 0.39916 0.0
H4880 H 0.06893 0.39496 0.4437 0.0
H4881 H 0.01541 0.37575 0.40339 0.0
H4882 H 0.98562 0.3547 0.38853 0.0
H4883 H 0.96098 0.35358 0.43756 0.0
H4884 H 0.99068 0.37444 0.45277 0.0
H4885 H 0.06009 0.49082 0.46859 0.0
H4886 H 0.06104 0.46053 0.4525 0.0
H4887 H 0.01762 0.42693 0.48142 0.0
H4888 H 0.01683 0.45708 0.49764 0.0
H4889 H 0.01078 0.41054 0.44845 0.0
H4890 H 0.06547 0.42914 0.48855 0.0
H4891 H 0.09577 0.44962 0.50276 0.0
H4892 H 0.11829 0.45247 0.45256 0.0
H4893 H 0.08804 0.4322 0.43799 0.0
C4894 C 0.02655 0.32765 0.42533 0.0
C4895 C 0.03878 0.32503 0.41289 0.0
C4896 C 0.02703 0.34631 0.43288 0.0
C4897 C 0.03973 0.36381 0.4285 0.0
C4898 C 0.05235 0.36139 0.41634 0.0
C4899 C 0.05182 0.3425 0.40863 0.0
C4900 C 0.03967 0.3841 0.4368 0.0
C4901 C 0.05615 0.39833 0.44435 0.0
C4902 C 0.0232 0.38923 0.43829 0.0
C4903 C 0.00533 0.37653 0.42926 0.0
C4904 C 0.00368 0.37089 0.41104 0.0
C4905 C 0.9868 0.35901 0.40254 0.0
C4906 C 0.97143 0.35277 0.41211 0.0
C4907 C 0.97291 0.35841 0.43018 0.0
C4908 C 0.98976 0.37028 0.43874 0.0
C4909 C 0.0507 0.47704 0.47164 0.0
C4910 C 0.03841 0.47695 0.48477 0.0
C4911 C 0.05132 0.45941 0.46235 0.0
C4912 C 0.03951 0.44069 0.46549 0.0
C4913 C 0.02702 0.4407 0.47838 0.0
C4914 C 0.02662 0.45824 0.48784 0.0
C4915 C 0.04002 0.42131 0.45556 0.0
C4916 C 0.02357 0.40722 0.44771 0.0
C4917 C 0.05653 0.41643 0.45361 0.0
C4918 C 0.07446 0.42931 0.46216 0.0
C4919 C 0.07682 0.43434 0.48051 0.0
C4920 C 0.09399 0.44586 0.48863 0.0
C4921 C 0.10892 0.45233 0.47857 0.0
C4922 C 0.1067 0.44744 0.46033 0.0
C4923 C 0.08955 0.43595 0.45213 0.0
H4924 H 0.12223 0.46098 0.48496 0.0
H4925 H 0.95838 0.34359 0.40551 0.0
H4926 H 0.46964 0.27714 0.16455 0.0
H4927 H 0.44028 0.27604 0.17606 0.0
H4928 H 0.46527 0.2808 0.22924 0.0
H4929 H 0.49401 0.2801 0.21751 0.0
H4930 H 0.43475 0.26186 0.2335 0.0
H4931 H 0.44798 0.31959 0.20297 0.0
H4932 H 0.45598 0.33942 0.17779 0.0
H4933 H 0.40705 0.30266 0.14706 0.0
H4934 H 0.39886 0.28248 0.17201 0.0
H4935 H 0.35912 0.2912 0.27027 0.0
H4936 H 0.38875 0.29226 0.25881 0.0
H4937 H 0.35966 0.25722 0.21176 0.0
H4938 H 0.33007 0.25529 0.22356 0.0
H4939 H 0.39173 0.2922 0.2051 0.0
H4940 H 0.37874 0.23616 0.23882 0.0
H4941 H 0.372 0.21869 0.26552 0.0
H4942 H 0.42248 0.25679 0.2928 0.0
H4943 H 0.42939 0.2747 0.26632 0.0
C4944 C 0.46908 0.27837 0.17872 0.0
C4945 C 0.48488 0.27921 0.18988 0.0
C4946 C 0.45195 0.27785 0.18553 0.0
C4947 C 0.44971 0.27889 0.20398 0.0
C4948 C 0.46571 0.27994 0.21505 0.0
C4949 C 0.48258 0.27981 0.20822 0.0
C4950 C 0.43106 0.2784 0.21174 0.0
C4951 C 0.42571 0.2689 0.22722 0.0
C4952 C 0.41825 0.28715 0.20416 0.0
C4953 C 0.4229 0.29944 0.18929 0.0
C4954 C 0.43896 0.31572 0.19083 0.0
C4955 C 0.44353 0.32701 0.1766 0.0
C4956 C 0.43206 0.32227 0.16082 0.0
C4957 C 0.41594 0.30629 0.15928 0.0
C4958 C 0.4113 0.29494 0.17346 0.0
C4959 C 0.3589 0.28356 0.25751 0.0
C4960 C 0.34167 0.27304 0.24809 0.0
C4961 C 0.37609 0.28419 0.25086 0.0
C4962 C 0.37707 0.27491 0.23413 0.0
C4963 C 0.35987 0.26465 0.22461 0.0
C4964 C 0.3427 0.26347 0.23151 0.0
C4965 C 0.39572 0.27578 0.22664 0.0
C4966 C 0.40098 0.28534 0.2113 0.0
C4967 C 0.40866 0.26759 0.23465 0.0
C4968 C 0.40448 0.25693 0.25063 0.0
C4969 C 0.38831 0.24097 0.25057 0.0
C4970 C 0.38448 0.23095 0.26565 0.0
C4971 C 0.39678 0.23666 0.28087 0.0
C4972 C 0.41295 0.2524 0.28101 0.0
C4973 C 0.41683 0.26249 0.26596 0.0
H4974 H 0.3938 0.22887 0.29252 0.0
H4975 H 0.43564 0.331 0.14981 0.0
H4976 H 0.65609 0.52311 0.37851 0.0
H4977 H 0.63819 0.52673 0.40342 0.0
H4978 H 0.59357 0.52924 0.36684 0.0
H4979 H 0.61107 0.52503 0.34211 0.0
H4980 H 0.60216 0.55615 0.39964 0.0
H4981 H 0.58797 0.48876 0.37604 0.0
H4982 H 0.59611 0.45967 0.36591 0.0
H4983 H 0.62306 0.45996 0.41725 0.0
H4984 H 0.61542 0.48935 0.42755 0.0
H4985 H 0.53034 0.52235 0.45801 0.0
H4986 H 0.54732 0.52761 0.43166 0.0
H4987 H 0.59332 0.51661 0.46002 0.0
H4988 H 0.57624 0.51021 0.48572 0.0
H4989 H 0.58148 0.49466 0.42895 0.0
H4990 H 0.59423 0.56236 0.45287 0.0
H4991 H 0.58481 0.59087 0.46224 0.0
H4992 H 0.55902 0.5894 0.41013 0.0
H4993 H 0.56795 0.56062 0.40056 0.0
C4994 C 0.64238 0.52422 0.37599 0.0
C4995 C 0.63436 0.52295 0.35878 0.0
C4996 C 0.63245 0.52669 0.39002 0.0
C4997 C 0.61479 0.52826 0.38663 0.0
C4998 C 0.60728 0.52815 0.36944 0.0
C4999 C 0.61701 0.5253 0.35548 0.0
C5000 C 0.60293 0.5267 0.40073 0.0
C5001 C 0.59753 0.54278 0.40613 0.0
C5002 C 0.59683 0.50905 0.40862 0.0
C5003 C 0.60136 0.49136 0.40247 0.0
C5004 C 0.59583 0.48275 0.38509 0.0
C5005 C 0.60032 0.46619 0.37933 0.0
C5006 C 0.61016 0.45801 0.39091 0.0
C5007 C 0.61549 0.46635 0.40828 0.0
C5008 C 0.61109 0.48296 0.41408 0.0
C5009 C 0.544 0.52088 0.45843 0.0
C5010 C 0.55212 0.51594 0.47371 0.0
C5011 C 0.55368 0.52416 0.4436 0.0
C5012 C 0.57147 0.52268 0.44424 0.0
C5013 C 0.57957 0.51788 0.45952 0.0
C5014 C 0.56984 0.51428 0.47413 0.0
C5015 C 0.58139 0.52445 0.42865 0.0
C5016 C 0.58614 0.50815 0.42263 0.0
C5017 C 0.58675 0.54188 0.42025 0.0
C5018 C 0.5816 0.55926 0.42605 0.0
C5019 C 0.58642 0.56803 0.44346 0.0
C5020 C 0.58119 0.58425 0.4488 0.0
C5021 C 0.57132 0.59192 0.43677 0.0
C5022 C 0.56665 0.58342 0.41941 0.0
C5023 C 0.57179 0.56716 0.41403 0.0
H5024 H 0.56732 0.6045 0.44083 0.0
H5025 H 0.6136 0.44517 0.38643 0.0
H5026 H 0.31517 0.8591 0.0315 0.0
H5027 H 0.32118 0.85214 0.06145 0.0
H5028 H 0.28799 0.88657 0.08006 0.0
H5029 H 0.2828 0.89485 0.04977 0.0
H5030 H 0.32188 0.89384 0.10057 0.0
H5031 H 0.27022 0.83741 0.07717 0.0
H5032 H 0.25488 0.81222 0.05279 0.0
H5033 H 0.30025 0.78929 0.05652 0.0
H5034 H 0.31592 0.81443 0.08084 0.0
H5035 H 0.31237 0.85101 0.18267 0.0
H5036 H 0.31113 0.86622 0.15518 0.0
H5037 H 0.33967 0.82974 0.131 0.0
H5038 H 0.3402 0.81389 0.15819 0.0
H5039 H 0.3072 0.82459 0.11362 0.0
H5040 H 0.35883 0.87873 0.13656 0.0
H5041 H 0.37758 0.90557 0.15815 0.0
H5042 H 0.33608 0.93392 0.15372 0.0
H5043 H 0.31689 0.90706 0.13232 0.0
C5044 C 0.30893 0.86508 0.04187 0.0
C5045 C 0.29845 0.87747 0.03832 0.0
C5046 C 0.31241 0.86109 0.05899 0.0
C5047 C 0.30486 0.8687 0.07284 0.0
C5048 C 0.29388 0.8806 0.06941 0.0
C5049 C 0.29068 0.88501 0.05215 0.0
C5050 C 0.3085 0.86375 0.09079 0.0
C5051 C 0.31834 0.87877 0.10369 0.0
C5052 C 0.30441 0.84402 0.09436 0.0
C5053 C 0.2942 0.82775 0.0809 0.0
C5054 C 0.27685 0.82689 0.07289 0.0
C5055 C 0.26813 0.81267 0.05903 0.0
C5056 C 0.27658 0.79916 0.05312 0.0
C5057 C 0.29369 0.79972 0.06116 0.0
C5058 C 0.30246 0.81389 0.07504 0.0
C5059 C 0.3187 0.84655 0.1716 0.0
C5060 C 0.32606 0.83106 0.17247 0.0
C5061 C 0.31815 0.85536 0.15597 0.0
C5062 C 0.3252 0.84895 0.14109 0.0
C5063 C 0.33409 0.83477 0.1424 0.0
C5064 C 0.3345 0.82584 0.15798 0.0
C5065 C 0.32069 0.8547 0.12363 0.0
C5066 C 0.3106 0.83974 0.11075 0.0
C5067 C 0.32475 0.87447 0.1201 0.0
C5068 C 0.3363 0.89073 0.13295 0.0
C5069 C 0.35359 0.89058 0.14031 0.0
C5070 C 0.36432 0.90582 0.1525 0.0
C5071 C 0.358 0.92141 0.15735 0.0
C5072 C 0.34095 0.92181 0.14997 0.0
C5073 C 0.33014 0.90658 0.1378 0.0
H5074 H 0.36632 0.9332 0.16679 0.0
H5075 H 0.26988 0.78825 0.0423 0.0
H5076 H 0.93233 0.5255 0.84664 0.0
H5077 H 0.93989 0.52031 0.87729 0.0
H5078 H 0.99362 0.56308 0.87701 0.0
H5079 H 0.98621 0.568 0.84637 0.0
H5080 H 0.99251 0.52307 0.88108 0.0
H5081 H 0.96824 0.57413 0.90307 0.0
H5082 H 0.94284 0.58829 0.90325 0.0
H5083 H 0.90797 0.53619 0.92238 0.0
H5084 H 0.93316 0.52162 0.92203 0.0
H5085 H 0.04518 0.55467 0.96018 0.0
H5086 H 0.02487 0.55191 0.93322 0.0
H5087 H 0.98268 0.50545 0.95318 0.0
H5088 H 0.00298 0.50792 0.97978 0.0
H5089 H 0.97134 0.53711 0.93918 0.0
H5090 H 1.00154 0.49064 0.92424 0.0
H5091 H 0.02873 0.47934 0.92392 0.0
H5092 H 0.05405 0.52444 0.89113 0.0
H5093 H 0.02717 0.53628 0.89155 0.0
C5094 C 0.94528 0.5346 0.85357 0.0
C5095 C 0.95882 0.54708 0.84455 0.0
C5096 C 0.94965 0.53142 0.87084 0.0
C5097 C 0.96738 0.54102 0.87889 0.0
C5098 C 0.97996 0.55545 0.87064 0.0
C5099 C 0.97566 0.55849 0.85339 0.0
C5100 C 0.97384 0.53447 0.8949 0.0
C5101 C 0.98787 0.52596 0.89382 0.0
C5102 C 0.96713 0.53766 0.91113 0.0
C5103 C 0.95245 0.54678 0.91242 0.0
C5104 C 0.95513 0.56572 0.9073 0.0
C5105 C 0.94079 0.57379 0.9074 0.0
C5106 C 0.92378 0.56313 0.91279 0.0
C5107 C 0.92115 0.54442 0.9182 0.0
C5108 C 0.93545 0.53625 0.91808 0.0
C5109 C 0.03158 0.54392 0.95869 0.0
C5110 C 0.0253 0.53178 0.97197 0.0
C5111 C 0.02009 0.54236 0.94348 0.0
C5112 C 0.00248 0.52847 0.94153 0.0
C5113 C 0.99624 0.51628 0.95474 0.0
C5114 C 0.00776 0.51782 0.96988 0.0
C5115 C 0.99075 0.52679 0.92546 0.0
C5116 C 0.97554 0.53348 0.92642 0.0
C5117 C 0.99653 0.52206 0.90909 0.0
C5118 C 0.01231 0.51434 0.90793 0.0
C5119 C 0.01291 0.49817 0.91697 0.0
C5120 C 0.02829 0.49169 0.9168 0.0
C5121 C 0.04311 0.50117 0.90751 0.0
C5122 C 0.04254 0.51709 0.8983 0.0
C5123 C 0.02722 0.52367 0.89847 0.0
H5124 H 0.05503 0.49617 0.90743 0.0
H5125 H 0.91266 0.56938 0.9128 0.0
H5126 H 0.32185 0.2205 0.57058 0.0
H5127 H 0.32228 0.22715 0.60278 0.0
H5128 H 0.26688 0.23009 0.59568 0.0
H5129 H 0.26704 0.22505 0.56398 0.0
H5130 H 0.28313 0.25712 0.61741 0.0
H5131 H 0.28264 0.1896 0.61356 0.0
H5132 H 0.2944 0.16202 0.60696 0.0
H5133 H 0.34426 0.19161 0.63997 0.0
H5134 H 0.3329 0.21945 0.64658 0.0
H5135 H 0.25976 0.25316 0.70678 0.0
H5136 H 0.26105 0.24462 0.67527 0.0
H5137 H 0.31875 0.25098 0.68498 0.0
H5138 H 0.31761 0.25916 0.71617 0.0
H5139 H 0.30297 0.2199 0.66271 0.0
H5140 H 0.30326 0.28672 0.66654 0.0
H5141 H 0.29145 0.3141 0.67383 0.0
H5142 H 0.24144 0.28493 0.64087 0.0
H5143 H 0.25287 0.25727 0.63357 0.0
C5144 C 0.30989 0.22279 0.57597 0.0
C5145 C 0.29458 0.22268 0.56461 0.0
C5146 C 0.31001 0.22634 0.59446 0.0
C5147 C 0.29453 0.22907 0.60201 0.0
C5148 C 0.27916 0.22839 0.59051 0.0
C5149 C 0.27928 0.22551 0.57221 0.0
C5150 C 0.29415 0.23354 0.62159 0.0
C5151 C 0.2872 0.24862 0.62717 0.0
C5152 C 0.30004 0.22319 0.63477 0.0
C5153 C 0.30702 0.20669 0.63036 0.0
C5154 C 0.29619 0.1903 0.61925 0.0
C5155 C 0.30277 0.1746 0.61555 0.0
C5156 C 0.32009 0.17509 0.623 0.0
C5157 C 0.33087 0.19127 0.63417 0.0
C5158 C 0.32437 0.207 0.63789 0.0
C5159 C 0.27272 0.2527 0.70225 0.0
C5160 C 0.28855 0.25697 0.71426 0.0
C5161 C 0.27347 0.24788 0.68415 0.0
C5162 C 0.29007 0.24729 0.67756 0.0
C5163 C 0.30575 0.25124 0.68957 0.0
C5164 C 0.30503 0.25603 0.70756 0.0
C5165 C 0.29139 0.24292 0.65821 0.0
C5166 C 0.29871 0.22812 0.65279 0.0
C5167 C 0.28575 0.25339 0.64511 0.0
C5168 C 0.27883 0.26988 0.64967 0.0
C5169 C 0.28968 0.28609 0.66098 0.0
C5170 C 0.28307 0.30166 0.66509 0.0
C5171 C 0.26569 0.30123 0.65785 0.0
C5172 C 0.25488 0.28523 0.64648 0.0
C5173 C 0.26142 0.26961 0.64236 0.0
H5174 H 0.2606 0.31332 0.66102 0.0
H5175 H 0.32514 0.1629 0.62015 0.0
H5176 H 0.59931 0.53799 0.27168 0.0
H5177 H 0.59004 0.53952 0.24058 0.0
H5178 H 0.62404 0.50484 0.22485 0.0
H5179 H 0.63318 0.50291 0.25588 0.0
H5180 H 0.62727 0.54209 0.20718 0.0
H5181 H 0.58436 0.481 0.2198 0.0
H5182 H 0.56295 0.46099 0.2391 0.0
H5183 H 0.52848 0.49755 0.23413 0.0
H5184 H 0.54987 0.51796 0.21501 0.0
H5185 H 0.58714 0.52681 0.11721 0.0
H5186 H 0.59875 0.52011 0.14602 0.0
H5187 H 0.5629 0.54686 0.17154 0.0
H5188 H 0.55174 0.55431 0.14296 0.0
H5189 H 0.56212 0.5103 0.1832 0.0
H5190 H 0.60467 0.57214 0.17244 0.0
H5191 H 0.62727 0.59547 0.15645 0.0
H5192 H 0.66319 0.56033 0.15987 0.0
H5193 H 0.64061 0.53656 0.1756 0.0
C5194 C 0.60462 0.5305 0.2616 0.0
C5195 C 0.61672 0.52011 0.26613 0.0
C5196 C 0.59944 0.5315 0.24392 0.0
C5197 C 0.60648 0.52233 0.23064 0.0
C5198 C 0.61859 0.51201 0.23506 0.0
C5199 C 0.62356 0.51073 0.25273 0.0
C5200 C 0.6006 0.52311 0.2121 0.0
C5201 C 0.61316 0.53482 0.20169 0.0
C5202 C 0.58214 0.51387 0.20535 0.0
C5203 C 0.56872 0.50102 0.21602 0.0
C5204 C 0.57222 0.48478 0.22285 0.0
C5205 C 0.56011 0.47338 0.23377 0.0
C5206 C 0.54437 0.47801 0.23785 0.0
C5207 C 0.54067 0.49398 0.23094 0.0
C5208 C 0.55276 0.50544 0.22003 0.0
C5209 C 0.58187 0.53144 0.12897 0.0
C5210 C 0.56859 0.54119 0.12784 0.0
C5211 C 0.58843 0.5275 0.14535 0.0
C5212 C 0.58166 0.53307 0.16076 0.0
C5213 C 0.56816 0.5424 0.15968 0.0
C5214 C 0.56175 0.54654 0.14336 0.0
C5215 C 0.58874 0.52946 0.17815 0.0
C5216 C 0.57636 0.51723 0.18842 0.0
C5217 C 0.60739 0.53835 0.18477 0.0
C5218 C 0.62079 0.55237 0.17492 0.0
C5219 C 0.61725 0.56921 0.16954 0.0
C5220 C 0.63009 0.58256 0.16058 0.0
C5221 C 0.64662 0.57934 0.15707 0.0
C5222 C 0.65035 0.56277 0.16253 0.0
C5223 C 0.63752 0.54934 0.17146 0.0
H5224 H 0.65657 0.58972 0.15018 0.0
H5225 H 0.53503 0.4692 0.24636 0.0
H5226 H 0.28785 0.89893 0.93365 0.0
H5227 H 0.28881 0.88373 0.9042 0.0
H5228 H 0.31401 0.84422 0.92758 0.0
H5229 H 0.3141 0.86037 0.95694 0.0
H5230 H 0.32891 0.85561 0.89821 0.0
H5231 H 0.26686 0.83034 0.91554 0.0
H5232 H 0.23763 0.83256 0.9257 0.0
H5233 H 0.22983 0.86311 0.88085 0.0
H5234 H 0.2591 0.86122 0.87054 0.0
H5235 H 0.29853 0.77826 0.82896 0.0
H5236 H 0.30498 0.79859 0.85702 0.0
H5237 H 0.28522 0.84131 0.8323 0.0
H5238 H 0.27821 0.82093 0.8045 0.0
H5239 H 0.26898 0.82908 0.86171 0.0
H5240 H 0.32971 0.85083 0.84255 0.0
H5241 H 0.35739 0.84554 0.83139 0.0
H5242 H 0.36702 0.81959 0.87868 0.0
H5243 H 0.33916 0.82435 0.88998 0.0
C5244 C 0.29354 0.88699 0.93234 0.0
C5245 C 0.3006 0.88039 0.94718 0.0
C5246 C 0.29415 0.87839 0.91567 0.0
C5247 C 0.30117 0.86267 0.91387 0.0
C5248 C 0.30854 0.85634 0.92879 0.0
C5249 C 0.3084 0.86533 0.94543 0.0
C5250 C 0.29982 0.85213 0.89653 0.0
C5251 C 0.31582 0.84967 0.89024 0.0
C5252 C 0.28275 0.84466 0.88616 0.0
C5253 C 0.26521 0.84582 0.8924 0.0
C5254 C 0.25895 0.83764 0.90793 0.0
C5255 C 0.24238 0.83882 0.9137 0.0
C5256 C 0.2319 0.84802 0.90395 0.0
C5257 C 0.23796 0.85601 0.8884 0.0
C5258 C 0.25452 0.85488 0.88258 0.0
C5259 C 0.29549 0.79195 0.8296 0.0
C5260 C 0.28776 0.79808 0.81475 0.0
C5261 C 0.29943 0.80359 0.84547 0.0
C5262 C 0.29577 0.82141 0.84642 0.0
C5263 C 0.28822 0.8276 0.83158 0.0
C5264 C 0.28419 0.81595 0.8158 0.0
C5265 C 0.29802 0.83276 0.86333 0.0
C5266 C 0.28213 0.83522 0.86959 0.0
C5267 C 0.31513 0.84005 0.87357 0.0
C5268 C 0.33227 0.83784 0.86707 0.0
C5269 C 0.33767 0.8439 0.85054 0.0
C5270 C 0.35339 0.84099 0.84418 0.0
C5271 C 0.36394 0.8322 0.85431 0.0
C5272 C 0.35883 0.82638 0.87085 0.0
C5273 C 0.34308 0.8292 0.87725 0.0
H5274 H 0.37609 0.82993 0.84936 0.0
H5275 H 0.21907 0.84892 0.90844 0.0
H5276 H 0.96037 0.50561 0.75384 0.0
H5277 H 0.95384 0.5035 0.7219 0.0
H5278 H 0.96515 0.56594 0.72444 0.0
H5279 H 0.97102 0.56805 0.75654 0.0
H5280 H 0.94566 0.54276 0.69027 0.0
H5281 H 0.00276 0.55637 0.7316 0.0
H5282 H 0.01984 0.54853 0.7572 0.0
H5283 H 0.00776 0.48973 0.73386 0.0
H5284 H 0.99047 0.49722 0.70824 0.0
H5285 H 0.00507 0.55529 0.6183 0.0
H5286 H 0.99251 0.56141 0.64626 0.0
H5287 H 0.98864 0.50301 0.65909 0.0
H5288 H 1.00144 0.49716 0.63182 0.0
H5289 H 0.0049 0.52907 0.68563 0.0
H5290 H 0.95157 0.51564 0.64244 0.0
H5291 H 0.93491 0.52282 0.61626 0.0
H5292 H 0.93923 0.57905 0.6417 0.0
H5293 H 0.95623 0.57234 0.66791 0.0
C5294 C 0.96061 0.51874 0.74763 0.0
C5295 C 0.96725 0.53718 0.75717 0.0
C5296 C 0.95649 0.51747 0.72948 0.0
C5297 C 0.95986 0.5347 0.72099 0.0
C5298 C 0.96282 0.55258 0.7309 0.0
C5299 C 0.9665 0.55381 0.74914 0.0
C5300 C 0.96761 0.53516 0.70397 0.0
C5301 C 0.95858 0.53979 0.68912 0.0
C5302 C 0.98469 0.5317 0.70279 0.0
C5303 C 0.9952 0.5273 0.71815 0.0
C5304 C 0.00369 0.54176 0.732 0.0
C5305 C 0.01343 0.53738 0.74649 0.0
C5306 C 0.01484 0.51863 0.74718 0.0
C5307 C 0.00661 0.50423 0.73335 0.0
C5308 C 0.99686 0.50854 0.71884 0.0
C5309 C 1.00153 0.54391 0.62724 0.0
C5310 C 0.00435 0.52588 0.62324 0.0
C5311 C 0.99435 0.54736 0.64303 0.0
C5312 C 0.9897 0.53261 0.65459 0.0
C5313 C 0.99233 0.51459 0.65036 0.0
C5314 C 0.99968 0.51129 0.63487 0.0
C5315 C 0.98248 0.53554 0.67148 0.0
C5316 C 0.99192 0.53202 0.68658 0.0
C5317 C 0.96576 0.53976 0.67269 0.0
C5318 C 0.95532 0.54358 0.65704 0.0
C5319 C 0.94909 0.52959 0.64239 0.0
C5320 C 0.93959 0.53357 0.62755 0.0
C5321 C 0.93607 0.5514 0.6273 0.0
C5322 C 0.942 0.56526 0.6419 0.0
C5323 C 0.95157 0.56138 0.65674 0.0
H5324 H 0.92869 0.55445 0.61581 0.0
H5325 H 0.02235 0.51526 0.75842 0.0
H5326 H 0.26697 0.22438 0.45766 0.0
H5327 H 0.26936 0.2309 0.4268 0.0
H5328 H 0.32237 0.22182 0.4289 0.0
H5329 H 0.31986 0.21468 0.46004 0.0
H5330 H 0.31997 0.25737 0.4127 0.0
H5331 H 0.28884 0.18776 0.40755 0.0
H5332 H 0.26464 0.15754 0.41287 0.0
H5333 H 0.22313 0.17968 0.39029 0.0
H5334 H 0.24706 0.21014 0.38504 0.0
H5335 H 0.32568 0.26495 0.31972 0.0
H5336 H 0.32699 0.2566 0.35036 0.0
H5337 H 0.26763 0.23976 0.34815 0.0
H5338 H 0.26639 0.2465 0.31722 0.0
H5339 H 0.27512 0.21583 0.36495 0.0
H5340 H 0.30263 0.28552 0.37248 0.0
H5341 H 0.32454 0.31785 0.36871 0.0
H5342 H 0.36959 0.29913 0.38821 0.0
H5343 H 0.34796 0.26663 0.39195 0.0
C5344 C 0.27924 0.22379 0.45169 0.0
C5345 C 0.2933 0.21909 0.46153 0.0
C5346 C 0.2805 0.22744 0.4339 0.0
C5347 C 0.29598 0.2268 0.42537 0.0
C5348 C 0.31024 0.22238 0.43514 0.0
C5349 C 0.30881 0.2183 0.45296 0.0
C5350 C 0.29716 0.23107 0.40637 0.0
C5351 C 0.31038 0.24813 0.40216 0.0
C5352 C 0.28418 0.21951 0.39268 0.0
C5353 C 0.26975 0.20131 0.39606 0.0
C5354 C 0.27454 0.18627 0.40389 0.0
C5355 C 0.26087 0.16907 0.40684 0.0
C5356 C 0.24235 0.16671 0.40195 0.0
C5357 C 0.23747 0.18154 0.39408 0.0
C5358 C 0.25109 0.19876 0.3911 0.0
C5359 C 0.31294 0.25941 0.32582 0.0
C5360 C 0.29593 0.25622 0.31595 0.0
C5361 C 0.31367 0.25482 0.34351 0.0
C5362 C 0.29743 0.24774 0.35208 0.0
C5363 C 0.28046 0.24496 0.34214 0.0
C5364 C 0.27972 0.24889 0.32435 0.0
C5365 C 0.29782 0.24252 0.37102 0.0
C5366 C 0.28484 0.22521 0.37531 0.0
C5367 C 0.31066 0.25422 0.38489 0.0
C5368 C 0.32371 0.27358 0.38226 0.0
C5369 C 0.31723 0.28825 0.3758 0.0
C5370 C 0.32959 0.30662 0.37372 0.0
C5371 C 0.34845 0.31052 0.37816 0.0
C5372 C 0.35499 0.29608 0.38474 0.0
C5373 C 0.34269 0.27768 0.38685 0.0
H5374 H 0.35799 0.32476 0.37656 0.0
H5375 H 0.2318 0.15338 0.40423 0.0
H5376 H 0.33368 0.61965 0.55157 0.0
H5377 H 0.35476 0.60088 0.54677 0.0
H5378 H 0.32284 0.57345 0.49783 0.0
H5379 H 0.30148 0.59178 0.50264 0.0
H5380 H 0.33909 0.54911 0.51576 0.0
H5381 H 0.35497 0.61515 0.49692 0.0
H5382 H 0.35978 0.65028 0.5038 0.0
H5383 H 0.40346 0.65356 0.54344 0.0
H5384 H 0.39859 0.61832 0.53706 0.0
H5385 H 0.41207 0.52324 0.4811 0.0
H5386 H 0.38685 0.5374 0.48128 0.0
H5387 H 0.41772 0.58027 0.52354 0.0
H5388 H 0.44326 0.56742 0.52219 0.0
H5389 H 0.3997 0.59603 0.50613 0.0
H5390 H 0.38369 0.53119 0.52814 0.0
H5391 H 0.37676 0.49538 0.5259 0.0
H5392 H 0.33357 0.48906 0.48483 0.0
H5393 H 0.34041 0.52484 0.48669 0.0
C5394 C 0.33105 0.60947 0.53989 0.0
C5395 C 0.31641 0.60767 0.5271 0.0
C5396 C 0.34292 0.59861 0.53731 0.0
C5397 C 0.34041 0.5862 0.5218 0.0
C5398 C 0.32493 0.5831 0.50982 0.0
C5399 C 0.31297 0.59382 0.51244 0.0
C5400 C 0.35543 0.5793 0.51645 0.0
C5401 C 0.35238 0.55923 0.51356 0.0
C5402 C 0.37258 0.59271 0.51364 0.0
C5403 C 0.37637 0.61413 0.51656 0.0
C5404 C 0.36561 0.62339 0.50708 0.0
C5405 C 0.3683 0.64329 0.51094 0.0
C5406 C 0.3819 0.65414 0.52406 0.0
C5407 C 0.39292 0.64513 0.53329 0.0
C5408 C 0.39021 0.6252 0.52956 0.0
C5409 C 0.41363 0.53615 0.48991 0.0
C5410 C 0.42928 0.54399 0.50198 0.0
C5411 C 0.39914 0.544 0.49022 0.0
C5412 C 0.40009 0.55934 0.50293 0.0
C5413 C 0.4165 0.56826 0.51376 0.0
C5414 C 0.43107 0.56083 0.51309 0.0
C5415 C 0.38389 0.56555 0.50611 0.0
C5416 C 0.38653 0.58568 0.50832 0.0
C5417 C 0.36652 0.5521 0.50871 0.0
C5418 C 0.36276 0.53067 0.50736 0.0
C5419 C 0.37284 0.52216 0.51852 0.0
C5420 C 0.36891 0.50187 0.51734 0.0
C5421 C 0.35479 0.48996 0.50518 0.0
C5422 C 0.34455 0.4983 0.4942 0.0
C5423 C 0.34846 0.51858 0.49529 0.0
H5424 H 0.35174 0.47426 0.50432 0.0
H5425 H 0.38393 0.66954 0.52706 0.0
H5426 H 0.82595 0.91904 0.52839 0.0
H5427 H 0.85547 0.9451 0.52697 0.0
H5428 H 0.87937 0.90216 0.50698 0.0
H5429 H 0.85056 0.8765 0.50847 0.0
H5430 H 0.89965 0.92395 0.53537 0.0
H5431 H 0.8703 0.93278 0.48065 0.0
H5432 H 0.84704 0.93974 0.46052 0.0
H5433 H 0.859 0.99669 0.48795 0.0
H5434 H 0.88214 0.98993 0.50845 0.0
H5435 H 0.9827 0.97042 0.50121 0.0
H5436 H 0.95057 0.95233 0.5037 0.0
H5437 H 0.94208 0.00429 0.52741 0.0
H5438 H 0.97454 0.02278 0.52491 0.0
H5439 H 0.91338 0.98191 0.50101 0.0
H5440 H 0.94688 0.97122 0.55363 0.0
H5441 H 0.9713 0.96189 0.56998 0.0
H5442 H 0.95204 0.90487 0.54176 0.0
H5443 H 0.9277 0.91394 0.52507 0.0
C5444 C 0.83751 0.91528 0.52359 0.0
C5445 C 0.83603 0.89566 0.51894 0.0
C5446 C 0.8543 0.93014 0.52272 0.0
C5447 C 0.86965 0.9255 0.51705 0.0
C5448 C 0.86781 0.90606 0.51163 0.0
C5449 C 0.85127 0.89137 0.51257 0.0
C5450 C 0.88818 0.94026 0.51786 0.0
C5451 C 0.90262 0.93663 0.52784 0.0
C5452 C 0.89203 0.95691 0.50822 0.0
C5453 C 0.8777 0.96072 0.49629 0.0
C5454 C 0.86776 0.94667 0.48258 0.0
C5455 C 0.85465 0.9506 0.47104 0.0
C5456 C 0.85148 0.96861 0.47301 0.0
C5457 C 0.86142 0.98272 0.48649 0.0
C5458 C 0.87452 0.97884 0.49808 0.0
C5459 C 0.97406 0.97813 0.50691 0.0
C5460 C 0.98124 0.99807 0.51297 0.0
C5461 C 0.95568 0.96771 0.50836 0.0
C5462 C 0.94403 0.97691 0.51596 0.0
C5463 C 0.95091 0.99693 0.52158 0.0
C5464 C 0.96944 0.00744 0.52017 0.0
C5465 C 0.92479 0.96527 0.51821 0.0
C5466 C 0.91027 0.96948 0.50885 0.0
C5467 C 0.92086 0.94872 0.52798 0.0
C5468 C 0.93554 0.94331 0.53803 0.0
C5469 C 0.94794 0.95674 0.55082 0.0
C5470 C 0.96175 0.95149 0.56017 0.0
C5471 C 0.96323 0.93281 0.55689 0.0
C5472 C 0.95089 0.91933 0.54428 0.0
C5473 C 0.93707 0.92452 0.5349 0.0
H5474 H 0.97394 0.92878 0.56414 0.0
H5475 H 0.84137 0.97165 0.46404 0.0
H5476 H 0.86891 0.05696 0.20693 0.0
H5477 H 0.85707 0.08315 0.21754 0.0
H5478 H 0.89488 0.09487 0.26469 0.0
H5479 H 0.90599 0.06812 0.2544 0.0
H5480 H 0.86125 0.09049 0.27244 0.0
H5481 H 0.90119 0.12662 0.2322 0.0
H5482 H 0.91417 0.13224 0.20355 0.0
H5483 H 0.86121 0.12958 0.17915 0.0
H5484 H 0.84782 0.12363 0.20758 0.0
H5485 H 0.83131 0.1754 0.29567 0.0
H5486 H 0.84993 0.15344 0.29087 0.0
H5487 H 0.81647 0.12854 0.24202 0.0
H5488 H 0.79828 0.15048 0.24662 0.0
H5489 H 0.85334 0.14372 0.23814 0.0
H5490 H 0.81266 0.10344 0.27645 0.0
H5491 H 0.79814 0.09294 0.30355 0.0
H5492 H 0.85121 0.1003 0.33047 0.0
H5493 H 0.86611 0.11126 0.30364 0.0
C5494 C 0.87465 0.06534 0.21946 0.0
C5495 C 0.88808 0.06083 0.23007 0.0
C5496 C 0.8681 0.08028 0.22542 0.0
C5497 C 0.87536 0.09098 0.24177 0.0
C5498 C 0.88922 0.08673 0.25204 0.0
C5499 C 0.89548 0.07157 0.24625 0.0
C5500 C 0.86732 0.10541 0.24892 0.0
C5501 C 0.85989 0.10249 0.2652 0.0
C5502 C 0.86536 0.12065 0.23914 0.0
C5503 C 0.87348 0.12462 0.22206 0.0
C5504 C 0.89228 0.12714 0.22072 0.0
C5505 C 0.89971 0.13038 0.20451 0.0
C5506 C 0.88852 0.13125 0.18954 0.0
C5507 C 0.86987 0.12892 0.19076 0.0
C5508 C 0.86236 0.12565 0.20693 0.0
C5509 C 0.8279 0.16496 0.28411 0.0
C5510 C 0.81368 0.16455 0.27134 0.0
C5511 C 0.8384 0.15249 0.28143 0.0
C5512 C 0.83451 0.13959 0.26607 0.0
C5513 C 0.81966 0.13856 0.25387 0.0
C5514 C 0.80936 0.15103 0.25646 0.0
C5515 C 0.84677 0.12844 0.26144 0.0
C5516 C 0.85513 0.13207 0.24563 0.0
C5517 C 0.84944 0.11375 0.2716 0.0
C5518 C 0.84055 0.10865 0.28812 0.0
C5519 C 0.82129 0.10329 0.28825 0.0
C5520 C 0.81298 0.09711 0.30355 0.0
C5521 C 0.82375 0.09606 0.31876 0.0
C5522 C 0.84288 0.10123 0.31872 0.0
C5523 C 0.85127 0.10748 0.30349 0.0
H5524 H 0.81727 0.09115 0.33054 0.0
H5525 H 0.8943 0.13374 0.177 0.0
H5526 H 0.72685 0.13255 0.05596 0.0
H5527 H 0.69746 0.11842 0.03884 0.0
H5528 H 0.70675 0.0625 0.03356 0.0
H5529 H 0.73758 0.07723 0.04956 0.0
H5530 H 0.68366 0.07324 0.003 0.0
H5531 H 0.68873 0.06741 0.06725 0.0
H5532 H 0.69951 0.08064 0.09814 0.0
H5533 H 0.67313 0.12465 0.09266 0.0
H5534 H 0.66245 0.11186 0.06166 0.0
H5535 H 0.59305 0.01272 0.01526 0.0
H5536 H 0.62583 0.02933 0.0126 0.0
H5537 H 0.61774 0.08507 0.02549 0.0
H5538 H 0.58543 0.0684 0.02919 0.0
H5539 H 0.64061 0.07466 0.0486 0.0
H5540 H 0.6324 0.0796 0.9863 0.0
H5541 H 0.61891 0.06597 0.95609 0.0
H5542 H 0.64736 0.0234 0.95783 0.0
H5543 H 0.66102 0.03678 0.98807 0.0
C5544 C 0.7227 0.1172 0.05127 0.0
C5545 C 0.73399 0.10559 0.05472 0.0
C5546 C 0.70624 0.1094 0.041 0.0
C5547 C 0.70026 0.08959 0.03507 0.0
C5548 C 0.71153 0.07793 0.03799 0.0
C5549 C 0.72861 0.08606 0.04762 0.0
C5550 C 0.68076 0.0806 0.03038 0.0
C5551 C 0.67411 0.07325 0.01286 0.0
C5552 C 0.66864 0.08122 0.04338 0.0
C5553 C 0.67499 0.08881 0.0621 0.0
C5554 C 0.68538 0.08001 0.07259 0.0
C5555 C 0.69144 0.08741 0.09013 0.0
C5556 C 0.68706 0.10351 0.09734 0.0
C5557 C 0.67655 0.11221 0.08705 0.0
C5558 C 0.67048 0.10488 0.06951 0.0
C5559 C 0.59866 0.02844 0.01806 0.0
C5560 C 0.5876 0.03948 0.02339 0.0
C5561 C 0.61691 0.03788 0.0158 0.0
C5562 C 0.6237 0.05827 0.01844 0.0
C5563 C 0.61236 0.06928 0.02318 0.0
C5564 C 0.59435 0.05983 0.02597 0.0
C5565 C 0.64328 0.06748 0.02118 0.0
C5566 C 0.65002 0.07474 0.03853 0.0
C5567 C 0.65512 0.06667 0.00802 0.0
C5568 C 0.64778 0.05923 0.98946 0.0
C5569 C 0.63582 0.06737 0.98022 0.0
C5570 C 0.62814 0.05969 0.9631 0.0
C5571 C 0.63227 0.04383 0.95505 0.0
C5572 C 0.64421 0.03572 0.96406 0.0
C5573 C 0.65201 0.04342 0.98117 0.0
H5574 H 0.62623 0.03782 0.94183 0.0
H5575 H 0.69177 0.10922 0.11091 0.0
H5576 H 0.20939 0.49949 0.24883 0.0
H5577 H 0.22231 0.47396 0.25708 0.0
H5578 H 0.17131 0.42968 0.23733 0.0
H5579 H 0.15834 0.45494 0.22875 0.0
H5580 H 0.18754 0.42777 0.27419 0.0
H5581 H 0.20003 0.42963 0.21326 0.0
H5582 H 0.20998 0.44795 0.18758 0.0
H5583 H 0.26384 0.47494 0.21466 0.0
H5584 H 0.2541 0.45692 0.24062 0.0
H5585 H 0.22892 0.34961 0.27501 0.0
H5586 H 0.21038 0.37078 0.26816 0.0
H5587 H 0.25855 0.42147 0.27991 0.0
H5588 H 0.27718 0.40059 0.28668 0.0
H5589 H 0.24045 0.41742 0.24556 0.0
H5590 H 0.22752 0.41465 0.3066 0.0
H5591 H 0.21612 0.39971 0.33348 0.0
H5592 H 0.1617 0.37561 0.30691 0.0
H5593 H 0.17285 0.3901 0.27974 0.0
C5594 C 0.20107 0.48432 0.246 0.0
C5595 C 0.18294 0.47916 0.23817 0.0
C5596 C 0.20836 0.46984 0.25082 0.0
C5597 C 0.19753 0.45017 0.24796 0.0
C5598 C 0.17964 0.4449 0.23975 0.0
C5599 C 0.17242 0.45933 0.23468 0.0
C5600 C 0.20525 0.4351 0.25323 0.0
C5601 C 0.19886 0.42507 0.26781 0.0
C5602 C 0.22004 0.43208 0.24483 0.0
C5603 C 0.22636 0.44194 0.22886 0.0
C5604 C 0.21401 0.43945 0.21372 0.0
C5605 C 0.21959 0.44981 0.19914 0.0
C5606 C 0.23753 0.46261 0.19949 0.0
C5607 C 0.24995 0.46498 0.2144 0.0
C5608 C 0.24443 0.45466 0.22904 0.0
C5609 C 0.23548 0.36529 0.27646 0.0
C5610 C 0.25451 0.37346 0.28143 0.0
C5611 C 0.22487 0.3773 0.27262 0.0
C5612 C 0.23321 0.39756 0.27357 0.0
C5613 C 0.25197 0.4058 0.2792 0.0
C5614 C 0.26254 0.39386 0.28317 0.0
C5615 C 0.22301 0.41012 0.26687 0.0
C5616 C 0.22892 0.41971 0.25187 0.0
C5617 C 0.20766 0.41255 0.27486 0.0
C5618 C 0.20112 0.40318 0.291 0.0
C5619 C 0.2132 0.40588 0.30637 0.0
C5620 C 0.20675 0.39757 0.3217 0.0
C5621 C 0.18821 0.38664 0.32188 0.0
C5622 C 0.17607 0.38401 0.30674 0.0
C5623 C 0.18246 0.39226 0.29136 0.0
H5624 H 0.18324 0.38027 0.33378 0.0
H5625 H 0.24182 0.47068 0.18822 0.0
H5626 H 0.25262 0.40991 0.98464 0.0
H5627 H 0.22837 0.42525 0.98351 0.0
H5628 H 0.20825 0.39874 0.03035 0.0
H5629 H 0.23243 0.38315 0.03151 0.0
H5630 H 0.18007 0.39566 0.00549 0.0
H5631 H 0.23314 0.44691 0.03284 0.0
H5632 H 0.26529 0.4687 0.03546 0.0
H5633 H 0.2551 0.49171 0.98664 0.0
H5634 H 0.22291 0.46989 0.98364 0.0
H5635 H 0.12986 0.45943 0.03352 0.0
H5636 H 0.15149 0.44092 0.03088 0.0
H5637 H 0.16371 0.46184 0.98003 0.0
H5638 H 0.14144 0.47966 0.98207 0.0
H5639 H 0.19546 0.46757 0.00531 0.0
H5640 H 0.14226 0.41723 0.97835 0.0
H5641 H 0.11003 0.39565 0.97569 0.0
H5642 H 0.12039 0.37128 0.0237 0.0
H5643 H 0.15266 0.39288 0.02674 0.0
C5644 C 0.24308 0.40734 -0.00525 0.0
C5645 C 0.24455 0.39534 0.00822 0.0
C5646 C 0.22923 0.41618 0.9941 0.0
C5647 C 0.21656 0.41329 0.00693 0.0
C5648 C 0.21787 0.40118 0.0203 0.0
C5649 C 0.23176 0.39236 0.02099 0.0
C5650 C 0.20203 0.42298 0.00643 0.0
C5651 C 0.18346 0.4114 0.00568 0.0
C5652 C 0.20637 0.44348 0.00617 0.0
C5653 C 0.22569 0.45664 0.00793 0.0
C5654 C 0.2378 0.45652 0.0226 0.0
C5655 C 0.25602 0.46889 0.02417 0.0
C5656 C 0.26225 0.48154 0.0112 0.0
C5657 C 0.25026 0.48189 -0.00334 0.0
C5658 C 0.23202 0.46954 -0.00497 0.0
C5659 C 0.13675 0.45976 0.02155 0.0
C5660 C 0.13391 0.47124 0.00807 0.0
C5661 C 0.14923 0.44924 0.02013 0.0
C5662 C 0.15926 0.45011 0.0053 0.0
C5663 C 0.15621 0.46112 0.99164 0.0
C5664 C 0.14353 0.4714 0.99291 0.0
C5665 C 0.17358 0.44026 0.00454 0.0
C5666 C 0.19209 0.45182 0.00505 0.0
C5667 C 0.16919 0.41978 0.00458 0.0
C5668 C 0.14981 0.40681 0.00287 0.0
C5669 C 0.13762 0.40739 0.98843 0.0
C5670 C 0.11936 0.39512 0.98682 0.0
C5671 C 0.11315 0.38214 -0.00045 0.0
C5672 C 0.12521 0.38136 0.01387 0.0
C5673 C 0.1435 0.39359 0.01552 0.0
H5674 H 0.099 0.37266 -0.00171 0.0
H5675 H 0.27636 0.49111 0.01243 0.0
H5676 H 0.8601 0.97649 0.20819 0.0
H5677 H 0.846 0.94783 0.22396 0.0
H5678 H 0.89378 0.92902 0.21863 0.0
H5679 H 0.90739 0.95667 0.20227 0.0
H5680 H 0.86408 0.90174 0.20715 0.0
H5681 H 0.8854 0.94266 0.26099 0.0
H5682 H 0.8909 0.96892 0.28503 0.0
H5683 H 0.83269 0.95871 0.28497 0.0
H5684 H 0.82679 0.93198 0.26131 0.0
H5685 H 0.83852 0.82635 0.26403 0.0
H5686 H 0.85468 0.85786 0.25386 0.0
H5687 H 0.80278 0.86811 0.24182 0.0
H5688 H 0.78632 0.83624 0.25173 0.0
H5689 H 0.83548 0.8994 0.26378 0.0
H5690 H 0.81662 0.85602 0.20897 0.0
H5691 H 0.81449 0.82619 0.19011 0.0
H5692 H 0.87343 0.84071 0.19578 0.0
H5693 H 0.87588 0.87049 0.21486 0.0
C5694 C 0.86725 0.96587 0.20999 0.0
C5695 C 0.88449 0.96842 0.20358 0.0
C5696 C 0.85952 0.94996 0.21942 0.0
C5697 C 0.86915 0.93676 0.2227 0.0
C5698 C 0.8863 0.93926 0.21627 0.0
C5699 C 0.8938 0.95479 0.20654 0.0
C5700 C 0.86008 0.91862 0.23015 0.0
C5701 C 0.85809 0.90128 0.21969 0.0
C5702 C 0.85214 0.91816 0.24637 0.0
C5703 C 0.85568 0.93562 0.25909 0.0
C5704 C 0.8738 0.9463 0.26583 0.0
C5705 C 0.87698 0.96118 0.27948 0.0
C5706 C 0.86219 0.96573 0.28631 0.0
C5707 C 0.84416 0.9553 0.27958 0.0
C5708 C 0.84088 0.94023 0.26611 0.0
C5709 C 0.83059 0.83544 0.25941 0.0
C5710 C 0.81131 0.82923 0.25863 0.0
C5711 C 0.83978 0.85322 0.25358 0.0
C5712 C 0.8297 0.86483 0.24716 0.0
C5713 C 0.8105 0.85898 0.24679 0.0
C5714 C 0.80124 0.84098 0.25235 0.0
C5715 C 0.8394 0.88307 0.24062 0.0
C5716 C 0.84152 0.9002 0.25126 0.0
C5717 C 0.84793 0.88338 0.22484 0.0
C5718 C 0.84641 0.86535 0.2135 0.0
C5719 C 0.82911 0.85273 0.20636 0.0
C5720 C 0.82784 0.83587 0.19558 0.0
C5721 C 0.84381 0.83153 0.19179 0.0
C5722 C 0.86107 0.84407 0.19874 0.0
C5723 C 0.8624 0.86094 0.20953 0.0
H5724 H 0.8428 0.81847 0.18344 0.0
H5725 H 0.86471 0.97722 0.29691 0.0
H5726 H 0.66738 0.0795 0.70696 0.0
H5727 H 0.69297 0.10918 0.71778 0.0
H5728 H 0.69826 0.08517 0.76751 0.0
H5729 H 0.67313 0.05547 0.75659 0.0
H5730 H 0.69204 0.12291 0.76913 0.0
H5731 H 0.73283 0.09058 0.74693 0.0
H5732 H 0.74374 0.0712 0.72494 0.0
H5733 H 0.74828 0.11529 0.68882 0.0
H5734 H 0.73723 0.13485 0.71056 0.0
H5735 H 0.76344 0.21377 0.79558 0.0
H5736 H 0.74775 0.17847 0.79161 0.0
H5737 H 0.73876 0.18171 0.73551 0.0
H5738 H 0.75447 0.21668 0.73926 0.0
H5739 H 0.75082 0.15141 0.74268 0.0
H5740 H 0.70491 0.18026 0.76161 0.0
H5741 H 0.69312 0.20022 0.78228 0.0
H5742 H 0.69703 0.16327 0.82327 0.0
H5743 H 0.70904 0.1432 0.80284 0.0
C5744 C 0.67446 0.08046 0.71995 0.0
C5745 C 0.66866 0.06544 0.73097 0.0
C5746 C 0.68893 0.09727 0.72613 0.0
C5747 C 0.69736 0.09916 0.7434 0.0
C5748 C 0.6919 0.08383 0.75415 0.0
C5749 C 0.67769 0.06697 0.74789 0.0
C5750 C 0.71061 0.1179 0.75072 0.0
C5751 C 0.70513 0.12903 0.76371 0.0
C5752 C 0.72746 0.12575 0.74343 0.0
C5753 C 0.73412 0.11411 0.73032 0.0
C5754 C 0.73604 0.09607 0.73425 0.0
C5755 C 0.74228 0.08508 0.72185 0.0
C5756 C 0.74668 0.092 0.70548 0.0
C5757 C 0.74488 0.10995 0.7015 0.0
C5758 C 0.73867 0.12102 0.71387 0.0
C5759 C 0.75814 0.20691 0.78242 0.0
C5760 C 0.76014 0.21792 0.76773 0.0
C5761 C 0.74924 0.18682 0.78019 0.0
C5762 C 0.74217 0.17764 0.76328 0.0
C5763 C 0.74431 0.1886 0.74863 0.0
C5764 C 0.75324 0.20857 0.75082 0.0
C5765 C 0.73193 0.1567 0.76058 0.0
C5766 C 0.73799 0.14512 0.7485 0.0
C5767 C 0.71549 0.14854 0.76856 0.0
C5768 C 0.70807 0.1604 0.78079 0.0
C5769 C 0.70336 0.17648 0.77507 0.0
C5770 C 0.69663 0.18779 0.78673 0.0
C5771 C 0.69439 0.18306 0.8041 0.0
C5772 C 0.69881 0.16694 0.80982 0.0
C5773 C 0.70557 0.15559 0.79821 0.0
H5774 H 0.68919 0.19185 0.81311 0.0
H5775 H 0.7515 0.08346 0.69589 0.0
loop_
_geom_bond_atom_site_label_1
_geom_bond_atom_site_label_2
_geom_bond_distance
_geom_bond_site_symmetry_2
_ccdc_geom_bond_type
Zn0 O3 2.031 . S
Zn0 O5 2.049 . S
Zn0 O10 2.067 1_455 S
Zn1 O2 1.962 . S
Zn1 O4 1.986 . S
Zn1 O6 1.996 . S
Zn1 O9 1.943 . S
O2 Zn1 1.962 . S
O2 C7 1.254 . S
O3 Zn0 2.031 . S
O3 C7 1.269 . S
O4 Zn1 1.986 . S
O4 C11 1.262 . S
O5 Zn0 2.049 . S
O5 C13 1.260 . S
O6 Zn1 1.996 . S
O6 C13 1.257 . S
C7 O2 1.254 . S
C7 O3 1.269 . S
C8 O9 1.249 . S
C8 O10 1.270 1_455 S
O9 Zn1 1.943 . S
O9 C8 1.249 . S
O10 Zn0 2.067 1_655 S
O10 C8 1.270 1_655 S
C11 O4 1.262 . S
C11 O12 1.232 . S
O12 C11 1.232 . S
C13 O5 1.260 . S
C13 O6 1.257 . S
Zn14 O17 2.031 . S
Zn14 O19 2.049 . S
Zn14 O24 2.067 . S
Zn15 O16 1.962 . S
Zn15 O18 1.986 . S
Zn15 O20 1.996 . S
Zn15 O23 1.943 . S
O16 Zn15 1.962 . S
O16 C21 1.254 . S
O17 Zn14 2.031 . S
O17 C21 1.269 . S
O18 Zn15 1.986 . S
O18 C25 1.262 . S
O19 Zn14 2.049 . S
O19 C27 1.260 . S
O20 Zn15 1.996 . S
O20 C27 1.257 . S
C21 O16 1.254 . S
C21 O17 1.269 . S
C22 O23 1.249 . S
C22 O24 1.270 . S
O23 Zn15 1.943 . S
O23 C22 1.249 . S
O24 Zn14 2.067 . S
O24 C22 1.270 . S
C25 O18 1.262 . S
C25 O26 1.232 . S
O26 C25 1.232 . S
C27 O19 1.260 . S
C27 O20 1.257 . S
Zn28 O31 2.031 . S
Zn28 O33 2.049 . S
Zn28 O38 2.067 . S
Zn29 O30 1.962 . S
Zn29 O32 1.986 . S
Zn29 O34 1.996 . S
Zn29 O37 1.943 . S
O30 Zn29 1.962 . S
O30 C35 1.254 . S
O31 Zn28 2.031 . S
O31 C35 1.269 . S
O32 Zn29 1.986 . S
O32 C39 1.262 . S
O33 Zn28 2.049 . S
O33 C41 1.260 . S
O34 Zn29 1.996 . S
O34 C41 1.257 . S
C35 O30 1.254 . S
C35 O31 1.269 . S
C36 O37 1.249 . S
C36 O38 1.270 . S
O37 Zn29 1.943 . S
O37 C36 1.249 . S
O38 Zn28 2.067 . S
O38 C36 1.270 . S
C39 O32 1.262 . S
C39 O40 1.232 . S
O40 C39 1.232 . S
C41 O33 1.260 . S
C41 O34 1.257 . S
Zn42 O45 2.031 . S
Zn42 O47 2.049 . S
Zn42 O52 2.067 . S
Zn43 O44 1.962 . S
Zn43 O46 1.986 . S
Zn43 O48 1.996 . S
Zn43 O51 1.943 . S
O44 Zn43 1.962 . S
O44 C49 1.254 . S
O45 Zn42 2.031 . S
O45 C49 1.269 . S
O46 Zn43 1.986 . S
O46 C53 1.262 . S
O47 Zn42 2.049 . S
O47 C55 1.260 . S
O48 Zn43 1.996 . S
O48 C55 1.257 . S
C49 O44 1.254 . S
C49 O45 1.269 . S
C50 O51 1.249 . S
C50 O52 1.270 . S
O51 Zn43 1.943 . S
O51 C50 1.249 . S
O52 Zn42 2.067 . S
O52 C50 1.270 . S
C53 O46 1.262 . S
C53 O54 1.232 . S
O54 C53 1.232 . S
C55 O47 1.260 . S
C55 O48 1.257 . S
Zn56 O59 2.031 . S
Zn56 O61 2.049 . S
Zn56 O66 2.067 . S
Zn57 O58 1.962 . S
Zn57 O60 1.986 . S
Zn57 O62 1.996 . S
Zn57 O65 1.943 . S
O58 Zn57 1.962 . S
O58 C63 1.254 . S
O59 Zn56 2.031 . S
O59 C63 1.269 . S
O60 Zn57 1.986 . S
O60 C67 1.262 . S
O61 Zn56 2.049 . S
O61 C69 1.260 . S
O62 Zn57 1.996 . S
O62 C69 1.257 . S
C63 O58 1.254 . S
C63 O59 1.269 . S
C64 O65 1.249 . S
C64 O66 1.270 . S
O65 Zn57 1.943 . S
O65 C64 1.249 . S
O66 Zn56 2.067 . S
O66 C64 1.270 . S
C67 O60 1.262 . S
C67 O68 1.232 . S
O68 C67 1.232 . S
C69 O61 1.260 . S
C69 O62 1.257 . S
Zn70 O73 2.031 . S
Zn70 O75 2.049 . S
Zn70 O80 2.067 . S
Zn71 O72 1.962 . S
Zn71 O74 1.986 . S
Zn71 O76 1.996 . S
Zn71 O79 1.943 . S
O72 Zn71 1.962 . S
O72 C77 1.254 . S
O73 Zn70 2.031 . S
O73 C77 1.269 . S
O74 Zn71 1.986 . S
O74 C81 1.262 . S
O75 Zn70 2.049 . S
O75 C83 1.260 . S
O76 Zn71 1.996 . S
O76 C83 1.257 . S
C77 O72 1.254 . S
C77 O73 1.269 . S
C78 O79 1.249 . S
C78 O80 1.270 . S
O79 Zn71 1.943 . S
O79 C78 1.249 . S
O80 Zn70 2.067 . S
O80 C78 1.270 . S
C81 O74 1.262 . S
C81 O82 1.232 . S
O82 C81 1.232 . S
C83 O75 1.260 . S
C83 O76 1.257 . S
Zn84 O87 2.031 . S
Zn84 O89 2.049 . S
Zn84 O94 2.067 . S
Zn85 O86 1.962 . S
Zn85 O88 1.986 . S
Zn85 O90 1.996 . S
Zn85 O93 1.943 . S
O86 Zn85 1.962 . S
O86 C91 1.254 . S
O87 Zn84 2.031 . S
O87 C91 1.269 . S
O88 Zn85 1.986 . S
O88 C95 1.262 . S
O89 Zn84 2.049 . S
O89 C97 1.260 . S
O90 Zn85 1.996 . S
O90 C97 1.257 . S
C91 O86 1.254 . S
C91 O87 1.269 . S
C92 O93 1.249 . S
C92 O94 1.270 . S
O93 Zn85 1.943 . S
O93 C92 1.249 . S
O94 Zn84 2.067 . S
O94 C92 1.270 . S
C95 O88 1.262 . S
C95 O96 1.232 . S
O96 C95 1.232 . S
C97 O89 1.260 . S
C97 O90 1.257 . S
Zn98 O101 2.031 . S
Zn98 O103 2.049 . S
Zn98 O108 2.067 . S
Zn99 O100 1.962 . S
Zn99 O102 1.986 . S
Zn99 O104 1.997 1_455 S
Zn99 O107 1.943 1_455 S
O100 Zn99 1.962 . S
O100 C105 1.254 . S
O101 Zn98 2.031 . S
O101 C105 1.269 1_655 S
O102 Zn99 1.986 . S
O102 C109 1.262 . S
O103 Zn98 2.049 . S
O103 C111 1.260 . S
O104 Zn99 1.997 1_655 S
O104 C111 1.254 . S
C105 O100 1.254 . S
C105 O101 1.269 1_455 S
C106 O107 1.249 . S
C106 O108 1.270 . S
O107 Zn99 1.943 1_655 S
O107 C106 1.249 . S
O108 Zn98 2.067 . S
O108 C106 1.270 . S
C109 O102 1.262 . S
C109 O110 1.232 . S
O110 C109 1.232 . S
C111 O103 1.260 . S
C111 O104 1.254 . S
Zn112 O115 2.031 . S
Zn112 O117 2.049 . S
Zn112 O122 2.067 1_545 S
Zn113 O114 1.962 . S
Zn113 O116 1.986 . S
Zn113 O118 1.996 . S
Zn113 O121 1.943 . S
O114 Zn113 1.962 . S
O114 C119 1.254 . S
O115 Zn112 2.031 . S
O115 C119 1.269 . S
O116 Zn113 1.986 . S
O116 C123 1.262 . S
O117 Zn112 2.049 . S
O117 C125 1.260 . S
O118 Zn113 1.996 . S
O118 C125 1.257 . S
C119 O114 1.254 . S
C119 O115 1.269 . S
C120 O121 1.249 1_565 S
C120 O122 1.270 . S
O121 Zn113 1.943 . S
O121 C120 1.249 1_545 S
O122 Zn112 2.067 1_565 S
O122 C120 1.270 . S
C123 O116 1.262 . S
C123 O124 1.232 . S
O124 C123 1.232 . S
C125 O117 1.260 . S
C125 O118 1.257 . S
Zn126 O129 2.031 . S
Zn126 O131 2.049 . S
Zn126 O136 2.067 . S
Zn127 O128 1.962 . S
Zn127 O130 1.986 . S
Zn127 O132 1.996 . S
Zn127 O135 1.943 . S
O128 Zn127 1.962 . S
O128 C133 1.254 . S
O129 Zn126 2.031 . S
O129 C133 1.269 . S
O130 Zn127 1.986 . S
O130 C137 1.262 . S
O131 Zn126 2.049 . S
O131 C139 1.260 . S
O132 Zn127 1.996 . S
O132 C139 1.257 . S
C133 O128 1.254 . S
C133 O129 1.269 . S
C134 O135 1.249 . S
C134 O136 1.270 . S
O135 Zn127 1.943 . S
O135 C134 1.249 . S
O136 Zn126 2.067 . S
O136 C134 1.270 . S
C137 O130 1.262 . S
C137 O138 1.232 . S
O138 C137 1.232 . S
C139 O131 1.260 . S
C139 O132 1.257 . S
Zn140 O143 2.031 . S
Zn140 O145 2.049 . S
Zn140 O150 2.067 . S
Zn141 O142 1.962 . S
Zn141 O144 1.986 . S
Zn141 O146 1.996 . S
Zn141 O149 1.943 . S
O142 Zn141 1.962 . S
O142 C147 1.254 . S
O143 Zn140 2.031 . S
O143 C147 1.269 . S
O144 Zn141 1.986 . S
O144 C151 1.262 . S
O145 Zn140 2.049 . S
O145 C153 1.260 . S
O146 Zn141 1.996 . S
O146 C153 1.257 . S
C147 O142 1.254 . S
C147 O143 1.269 . S
C148 O149 1.249 . S
C148 O150 1.270 . S
O149 Zn141 1.943 . S
O149 C148 1.249 . S
O150 Zn140 2.067 . S
O150 C148 1.270 . S
C151 O144 1.262 . S
C151 O152 1.232 . S
O152 C151 1.232 . S
C153 O145 1.260 . S
C153 O146 1.257 . S
Zn154 O157 2.031 1_554 S
Zn154 O159 2.049 . S
Zn154 O164 2.067 . S
Zn155 O156 1.962 . S
Zn155 O158 1.986 1_556 S
Zn155 O160 1.996 1_556 S
Zn155 O163 1.943 1_556 S
O156 Zn155 1.962 . S
O156 C161 1.254 . S
O157 Zn154 2.031 1_556 S
O157 C161 1.269 . S
O158 Zn155 1.986 1_554 S
O158 C165 1.262 1_554 S
O159 Zn154 2.049 . S
O159 C167 1.260 . S
O160 Zn155 1.996 1_554 S
O160 C167 1.257 . S
C161 O156 1.254 . S
C161 O157 1.269 . S
C162 O163 1.249 . S
C162 O164 1.270 . S
O163 Zn155 1.943 1_554 S
O163 C162 1.249 . S
O164 Zn154 2.067 . S
O164 C162 1.270 . S
C165 O158 1.262 1_556 S
C165 O166 1.232 . S
O166 C165 1.232 . S
C167 O159 1.260 . S
C167 O160 1.257 . S
Zn168 O171 2.031 1_554 S
Zn168 O173 2.049 . S
Zn168 O178 2.067 . S
Zn169 O170 1.962 1_554 S
Zn169 O172 1.986 . S
Zn169 O174 1.996 . S
Zn169 O177 1.943 . S
O170 Zn169 1.962 1_556 S
O170 C175 1.254 . S
O171 Zn168 2.031 1_556 S
O171 C175 1.269 . S
O172 Zn169 1.986 . S
O172 C179 1.262 . S
O173 Zn168 2.049 . S
O173 C181 1.260 . S
O174 Zn169 1.996 . S
O174 C181 1.257 . S
C175 O170 1.254 . S
C175 O171 1.269 . S
C176 O177 1.249 . S
C176 O178 1.270 . S
O177 Zn169 1.943 . S
O177 C176 1.249 . S
O178 Zn168 2.067 . S
O178 C176 1.270 . S
C179 O172 1.262 . S
C179 O180 1.232 . S
O180 C179 1.232 . S
C181 O173 1.260 . S
C181 O174 1.257 . S
Zn182 O185 2.031 . S
Zn182 O187 2.049 . S
Zn182 O192 2.067 . S
Zn183 O184 1.962 . S
Zn183 O186 1.986 . S
Zn183 O188 1.996 . S
Zn183 O191 1.943 . S
O184 Zn183 1.962 . S
O184 C189 1.254 . S
O185 Zn182 2.031 . S
O185 C189 1.269 . S
O186 Zn183 1.986 . S
O186 C193 1.262 . S
O187 Zn182 2.049 . S
O187 C195 1.260 . S
O188 Zn183 1.996 . S
O188 C195 1.257 . S
C189 O184 1.254 . S
C189 O185 1.269 . S
C190 O191 1.249 . S
C190 O192 1.270 . S
O191 Zn183 1.943 . S
O191 C190 1.249 . S
O192 Zn182 2.067 . S
O192 C190 1.270 . S
C193 O186 1.262 . S
C193 O194 1.232 . S
O194 C193 1.232 . S
C195 O187 1.260 . S
C195 O188 1.257 . S
Zn196 O199 2.031 . S
Zn196 O201 2.049 . S
Zn196 O206 2.067 . S
Zn197 O198 1.962 . S
Zn197 O200 1.986 . S
Zn197 O202 1.996 . S
Zn197 O205 1.943 . S
O198 Zn197 1.962 . S
O198 C203 1.254 . S
O199 Zn196 2.031 . S
O199 C203 1.269 . S
O200 Zn197 1.986 . S
O200 C207 1.262 . S
O201 Zn196 2.049 . S
O201 C209 1.260 . S
O202 Zn197 1.996 . S
O202 C209 1.257 . S
C203 O198 1.254 . S
C203 O199 1.269 . S
C204 O205 1.249 . S
C204 O206 1.270 . S
O205 Zn197 1.943 . S
O205 C204 1.249 . S
O206 Zn196 2.067 . S
O206 C204 1.270 . S
C207 O200 1.262 . S
C207 O208 1.232 . S
O208 C207 1.232 . S
C209 O201 1.260 . S
C209 O202 1.257 . S
Zn210 O213 2.031 . S
Zn210 O215 2.049 . S
Zn210 O220 2.067 . S
Zn211 O212 1.962 . S
Zn211 O214 1.986 . S
Zn211 O216 1.996 . S
Zn211 O219 1.943 . S
O212 Zn211 1.962 . S
O212 C217 1.254 . S
O213 Zn210 2.031 . S
O213 C217 1.269 . S
O214 Zn211 1.986 . S
O214 C221 1.262 . S
O215 Zn210 2.049 . S
O215 C223 1.260 . S
O216 Zn211 1.996 . S
O216 C223 1.257 . S
C217 O212 1.254 . S
C217 O213 1.269 . S
C218 O219 1.249 . S
C218 O220 1.270 . S
O219 Zn211 1.943 . S
O219 C218 1.249 . S
O220 Zn210 2.067 . S
O220 C218 1.270 . S
C221 O214 1.262 . S
C221 O222 1.232 . S
O222 C221 1.232 . S
C223 O215 1.260 . S
C223 O216 1.257 . S
Zn224 O227 2.031 . S
Zn224 O229 2.049 . S
Zn224 O234 2.067 . S
Zn225 O226 1.962 . S
Zn225 O228 1.986 . S
Zn225 O230 1.996 . S
Zn225 O233 1.943 1_545 S
O226 Zn225 1.962 . S
O226 C231 1.254 . S
O227 Zn224 2.031 . S
O227 C231 1.269 1_565 S
O228 Zn225 1.986 . S
O228 C235 1.262 . S
O229 Zn224 2.049 . S
O229 C237 1.260 1_565 S
O230 Zn225 1.996 . S
O230 C237 1.257 . S
C231 O226 1.254 . S
C231 O227 1.269 1_545 S
C232 O233 1.249 . S
C232 O234 1.270 . S
O233 Zn225 1.943 1_565 S
O233 C232 1.249 . S
O234 Zn224 2.067 . S
O234 C232 1.270 . S
C235 O228 1.262 . S
C235 O236 1.232 . S
O236 C235 1.232 . S
C237 O229 1.260 1_545 S
C237 O230 1.257 . S
Zn238 O241 2.031 . S
Zn238 O243 2.049 . S
Zn238 O248 2.067 . S
Zn239 O240 1.962 . S
Zn239 O242 1.986 . S
Zn239 O244 1.996 . S
Zn239 O247 1.943 . S
O240 Zn239 1.962 . S
O240 C245 1.254 . S
O241 Zn238 2.031 . S
O241 C245 1.269 . S
O242 Zn239 1.986 . S
O242 C249 1.262 . S
O243 Zn238 2.049 . S
O243 C251 1.260 . S
O244 Zn239 1.996 . S
O244 C251 1.257 . S
C245 O240 1.254 . S
C245 O241 1.269 . S
C246 O247 1.249 . S
C246 O248 1.270 . S
O247 Zn239 1.943 . S
O247 C246 1.249 . S
O248 Zn238 2.067 . S
O248 C246 1.270 . S
C249 O242 1.262 . S
C249 O250 1.232 . S
O250 C249 1.232 . S
C251 O243 1.260 . S
C251 O244 1.257 . S
Zn252 O255 2.031 . S
Zn252 O257 2.049 . S
Zn252 O262 2.067 . S
Zn253 O254 1.962 . S
Zn253 O256 1.986 . S
Zn253 O258 1.996 . S
Zn253 O261 1.943 . S
O254 Zn253 1.962 . S
O254 C259 1.254 . S
O255 Zn252 2.031 . S
O255 C259 1.269 . S
O256 Zn253 1.986 . S
O256 C263 1.262 . S
O257 Zn252 2.049 . S
O257 C265 1.260 . S
O258 Zn253 1.996 . S
O258 C265 1.257 . S
C259 O254 1.254 . S
C259 O255 1.269 . S
C260 O261 1.249 . S
C260 O262 1.270 . S
O261 Zn253 1.943 . S
O261 C260 1.249 . S
O262 Zn252 2.067 . S
O262 C260 1.270 . S
C263 O256 1.262 . S
C263 O264 1.232 . S
O264 C263 1.232 . S
C265 O257 1.260 . S
C265 O258 1.257 . S
Zn266 O269 2.031 . S
Zn266 O271 2.049 . S
Zn266 O276 2.067 . S
Zn267 O268 1.962 . S
Zn267 O270 1.986 1_545 S
Zn267 O272 1.996 . S
Zn267 O275 1.943 . S
O268 Zn267 1.962 . S
O268 C273 1.254 . S
O269 Zn266 2.031 . S
O269 C273 1.269 . S
O270 Zn267 1.986 1_565 S
O270 C277 1.262 . S
O271 Zn266 2.049 . S
O271 C279 1.260 . S
O272 Zn267 1.996 . S
O272 C279 1.257 . S
C273 O268 1.254 . S
C273 O269 1.269 . S
C274 O275 1.249 . S
C274 O276 1.270 . S
O275 Zn267 1.943 . S
O275 C274 1.249 . S
O276 Zn266 2.067 . S
O276 C274 1.270 . S
C277 O270 1.262 . S
C277 O278 1.232 . S
O278 C277 1.232 . S
C279 O271 1.260 . S
C279 O272 1.257 . S
Zn280 O283 2.042 . S
Zn280 O285 2.049 . S
Zn280 O290 2.067 . S
Zn281 O282 1.962 . S
Zn281 O284 1.986 . S
Zn281 O286 1.996 . S
Zn281 O289 1.943 . S
O282 Zn281 1.962 . S
O282 C287 1.254 1_554 S
O283 Zn280 2.042 . S
O283 C287 1.264 1_554 S
O284 Zn281 1.986 . S
O284 C291 1.262 . S
O285 Zn280 2.049 . S
O285 C293 1.260 . S
O286 Zn281 1.996 . S
O286 C293 1.257 . S
C287 O282 1.254 1_556 S
C287 O283 1.264 1_556 S
C288 O289 1.249 . S
C288 O290 1.270 . S
O289 Zn281 1.943 . S
O289 C288 1.249 . S
O290 Zn280 2.067 . S
O290 C288 1.270 . S
C291 O284 1.262 . S
C291 O292 1.232 . S
O292 C291 1.232 . S
C293 O285 1.260 . S
C293 O286 1.257 . S
Zn294 O297 2.031 . S
Zn294 O299 2.049 . S
Zn294 O304 2.067 . S
Zn295 O296 1.962 . S
Zn295 O298 1.986 . S
Zn295 O300 1.996 . S
Zn295 O303 1.943 . S
O296 Zn295 1.962 . S
O296 C301 1.254 . S
O297 Zn294 2.031 . S
O297 C301 1.269 . S
O298 Zn295 1.986 . S
O298 C305 1.262 . S
O299 Zn294 2.049 . S
O299 C307 1.260 . S
O300 Zn295 1.996 . S
O300 C307 1.257 . S
C301 O296 1.254 . S
C301 O297 1.269 . S
C302 O303 1.249 . S
C302 O304 1.270 . S
O303 Zn295 1.943 . S
O303 C302 1.249 . S
O304 Zn294 2.067 . S
O304 C302 1.270 . S
C305 O298 1.262 . S
C305 O306 1.232 . S
O306 C305 1.232 . S
C307 O299 1.260 . S
C307 O300 1.257 . S
Zn308 O311 2.031 . S
Zn308 O313 2.049 . S
Zn308 O318 2.067 . S
Zn309 O310 1.962 . S
Zn309 O312 1.986 . S
Zn309 O314 1.996 . S
Zn309 O317 1.943 . S
O310 Zn309 1.962 . S
O310 C315 1.254 . S
O311 Zn308 2.031 . S
O311 C315 1.269 . S
O312 Zn309 1.986 . S
O312 C319 1.262 . S
O313 Zn308 2.049 . S
O313 C321 1.260 . S
O314 Zn309 1.996 . S
O314 C321 1.257 . S
C315 O310 1.254 . S
C315 O311 1.269 . S
C316 O317 1.249 . S
C316 O318 1.270 . S
O317 Zn309 1.943 . S
O317 C316 1.249 . S
O318 Zn308 2.067 . S
O318 C316 1.270 . S
C319 O312 1.262 . S
C319 O320 1.232 . S
O320 C319 1.232 . S
C321 O313 1.260 . S
C321 O314 1.257 . S
Zn322 O325 2.031 . S
Zn322 O327 2.049 . S
Zn322 O332 2.067 . S
Zn323 O324 1.962 . S
Zn323 O326 1.986 . S
Zn323 O328 1.996 . S
Zn323 O331 1.943 . S
O324 Zn323 1.962 . S
O324 C329 1.254 . S
O325 Zn322 2.031 . S
O325 C329 1.269 . S
O326 Zn323 1.986 . S
O326 C333 1.262 . S
O327 Zn322 2.049 . S
O327 C335 1.260 . S
O328 Zn323 1.996 . S
O328 C335 1.257 . S
C329 O324 1.254 . S
C329 O325 1.269 . S
C330 O331 1.249 . S
C330 O332 1.270 . S
O331 Zn323 1.943 . S
O331 C330 1.249 . S
O332 Zn322 2.067 . S
O332 C330 1.270 . S
C333 O326 1.262 . S
C333 O334 1.232 . S
O334 C333 1.232 . S
C335 O327 1.260 . S
C335 O328 1.257 . S
Tb336 C345 2.764 . S
Tb336 O346 2.325 . S
Tb336 O349 2.303 . S
Tb336 O353 2.322 . S
Tb336 O354 2.349 . S
Tb336 O357 2.415 . S
Tb336 O358 2.399 . S
Tb337 O347 2.322 1_545 S
Tb337 O348 2.349 1_554 S
Tb337 O350 2.415 1_455 S
Tb337 O351 2.399 1_454 S
Tb337 O352 2.325 . S
Tb337 O355 2.303 . S
Tb337 C366 2.764 1_455 S
C338 O354 1.261 . S
C338 O355 1.257 . S
C339 C342 1.358 . S
C339 C343 1.332 . S
C339 C345 1.504 . S
C340 C341 1.373 . S
C340 C344 1.308 . S
C341 C340 1.373 . S
C341 C342 1.429 . S
C341 H368 0.932 . S
C342 C339 1.358 . S
C342 C341 1.429 . S
C342 H369 0.930 . S
C343 C339 1.332 . S
C343 C344 1.394 . S
C343 H370 0.932 . S
C344 C340 1.308 . S
C344 C343 1.394 . S
C344 H371 0.929 1_545 S
C345 Tb336 2.764 . S
C345 C339 1.504 . S
C345 O357 1.239 . S
C345 O358 1.263 . S
O346 Tb336 2.325 . S
O346 C356 1.236 1_545 S
O347 Tb337 2.322 1_565 S
O347 C356 1.257 . S
O348 Tb337 2.349 1_556 S
O348 C359 1.261 . S
O349 Tb336 2.303 . S
O349 C359 1.257 1_554 S
O350 Tb337 2.415 1_655 S
O350 C366 1.239 . S
O351 Tb337 2.399 1_656 S
O351 C366 1.263 1_556 S
O352 Tb337 2.325 . S
O352 C367 1.236 . S
O353 Tb336 2.322 . S
O353 C367 1.257 . S
O354 Tb336 2.349 . S
O354 C338 1.261 . S
O355 Tb337 2.303 . S
O355 C338 1.257 . S
C356 O346 1.236 1_565 S
C356 O347 1.257 . S
O357 Tb336 2.415 . S
O357 C345 1.239 . S
O358 Tb336 2.399 . S
O358 C345 1.263 . S
C359 O348 1.261 . S
C359 O349 1.257 1_556 S
C360 C363 1.358 1_554 S
C360 C364 1.332 . S
C360 C366 1.504 . S
C361 C362 1.415 . S
C361 C365 1.262 1_556 S
C362 C361 1.415 . S
C362 C363 1.429 . S
C362 H372 0.932 . S
C363 C360 1.358 1_556 S
C363 C362 1.429 . S
C363 H373 0.930 . S
C364 C360 1.332 . S
C364 C365 1.394 . S
C364 H374 0.932 . S
C365 C361 1.262 1_554 S
C365 C364 1.394 . S
C365 H375 0.929 . S
C366 Tb337 2.764 1_655 S
C366 O350 1.239 . S
C366 O351 1.263 1_554 S
C366 C360 1.504 . S
C367 O352 1.236 . S
C367 O353 1.257 . S
H368 C341 0.932 . S
H369 C342 0.930 . S
H370 C343 0.932 . S
H371 C344 0.929 1_565 S
H372 C362 0.932 . S
H373 C363 0.930 . S
H374 C364 0.932 . S
H375 C365 0.929 . S
Tb376 C385 2.764 . S
Tb376 O386 2.325 . S
Tb376 O389 2.303 . S
Tb376 O393 2.322 . S
Tb376 O394 2.349 . S
Tb376 O397 2.415 . S
Tb376 O398 2.399 . S
Tb377 O387 2.322 . S
Tb377 O388 2.349 . S
Tb377 O390 2.415 . S
Tb377 O391 2.399 . S
Tb377 O392 2.325 . S
Tb377 O395 2.303 . S
Tb377 C406 2.764 . S
C378 O394 1.261 . S
C378 O395 1.257 . S
C379 C382 1.358 . S
C379 C383 1.332 . S
C379 C385 1.504 . S
C380 C381 1.373 . S
C380 C384 1.308 . S
C381 C380 1.373 . S
C381 C382 1.429 . S
C381 H408 0.932 . S
C382 C379 1.358 . S
C382 C381 1.429 . S
C382 H409 0.930 . S
C383 C379 1.332 . S
C383 C384 1.394 . S
C383 H410 0.932 . S
C384 C380 1.308 . S
C384 C383 1.394 . S
C384 H411 0.929 . S
C385 Tb376 2.764 . S
C385 C379 1.504 . S
C385 O397 1.239 . S
C385 O398 1.263 . S
O386 Tb376 2.325 . S
O386 C396 1.236 . S
O387 Tb377 2.322 . S
O387 C396 1.257 . S
O388 Tb377 2.349 . S
O388 C399 1.261 . S
O389 Tb376 2.303 . S
O389 C399 1.257 . S
O390 Tb377 2.415 . S
O390 C406 1.239 . S
O391 Tb377 2.399 . S
O391 C406 1.263 . S
O392 Tb377 2.325 . S
O392 C407 1.236 . S
O393 Tb376 2.322 . S
O393 C407 1.257 . S
O394 Tb376 2.349 . S
O394 C378 1.261 . S
O395 Tb377 2.303 . S
O395 C378 1.257 . S
C396 O386 1.236 . S
C396 O387 1.257 . S
O397 Tb376 2.415 . S
O397 C385 1.239 . S
O398 Tb376 2.399 . S
O398 C385 1.263 . S
C399 O388 1.261 . S
C399 O389 1.257 . S
C400 C403 1.358 . S
C400 C404 1.332 . S
C400 C406 1.504 . S
C401 C402 1.373 . S
C401 C405 1.308 . S
C402 C401 1.373 . S
C402 C403 1.429 . S
C402 H412 0.932 . S
C403 C400 1.358 . S
C403 C402 1.429 . S
C403 H413 0.930 . S
C404 C400 1.332 . S
C404 C405 1.394 . S
C404 H414 0.932 . S
C405 C401 1.308 . S
C405 C404 1.394 . S
C405 H415 0.929 . S
C406 Tb377 2.764 . S
C406 O390 1.239 . S
C406 O391 1.263 . S
C406 C400 1.504 . S
C407 O392 1.236 . S
C407 O393 1.257 . S
H408 C381 0.932 . S
H409 C382 0.930 . S
H410 C383 0.932 . S
H411 C384 0.929 . S
H412 C402 0.932 . S
H413 C403 0.930 . S
H414 C404 0.932 . S
H415 C405 0.929 . S
Tb416 C425 2.764 . S
Tb416 O426 2.325 . S
Tb416 O429 2.303 . S
Tb416 O433 2.322 1_545 S
Tb416 O434 2.349 . S
Tb416 O437 2.415 . S
Tb416 O438 2.399 . S
Tb417 O427 2.322 . S
Tb417 O428 2.349 . S
Tb417 O430 2.415 . S
Tb417 O431 2.399 . S
Tb417 O432 2.325 1_545 S
Tb417 O435 2.303 . S
Tb417 C446 2.764 . S
C418 O434 1.261 . S
C418 O435 1.257 . S
C419 C422 1.358 . S
C419 C423 1.332 . S
C419 C425 1.504 . S
C420 C421 1.373 . S
C420 C424 1.308 . S
C421 C420 1.373 . S
C421 C422 1.429 . S
C421 H448 0.932 . S
C422 C419 1.358 . S
C422 C421 1.429 . S
C422 H449 0.930 . S
C423 C419 1.332 . S
C423 C424 1.394 . S
C423 H450 0.932 . S
C424 C420 1.308 . S
C424 C423 1.394 . S
C424 H451 0.929 . S
C425 Tb416 2.764 . S
C425 C419 1.504 . S
C425 O437 1.239 . S
C425 O438 1.263 . S
O426 Tb416 2.325 . S
O426 C436 1.236 . S
O427 Tb417 2.322 . S
O427 C436 1.257 . S
O428 Tb417 2.349 . S
O428 C439 1.261 . S
O429 Tb416 2.303 . S
O429 C439 1.257 . S
O430 Tb417 2.415 . S
O430 C446 1.239 . S
O431 Tb417 2.399 . S
O431 C446 1.263 . S
O432 Tb417 2.325 1_565 S
O432 C447 1.236 . S
O433 Tb416 2.322 1_565 S
O433 C447 1.257 . S
O434 Tb416 2.349 . S
O434 C418 1.261 . S
O435 Tb417 2.303 . S
O435 C418 1.257 . S
C436 O426 1.236 . S
C436 O427 1.257 . S
O437 Tb416 2.415 . S
O437 C425 1.239 . S
O438 Tb416 2.399 . S
O438 C425 1.263 . S
C439 O428 1.261 . S
C439 O429 1.257 . S
C440 C443 1.358 . S
C440 C444 1.332 . S
C440 C446 1.504 1_565 S
C441 C442 1.373 . S
C441 C445 1.308 . S
C442 C441 1.373 . S
C442 C443 1.429 . S
C442 H452 0.932 . S
C443 C440 1.358 . S
C443 C442 1.429 . S
C443 H453 0.930 1_565 S
C444 C440 1.332 . S
C444 C445 1.394 . S
C444 H454 0.932 . S
C445 C441 1.308 . S
C445 C444 1.394 . S
C445 H455 0.929 . S
C446 Tb417 2.764 . S
C446 O430 1.239 . S
C446 O431 1.263 . S
C446 C440 1.504 1_545 S
C447 O432 1.236 . S
C447 O433 1.257 . S
H448 C421 0.932 . S
H449 C422 0.930 . S
H450 C423 0.932 . S
H451 C424 0.929 . S
H452 C442 0.932 . S
H453 C443 0.930 1_545 S
H454 C444 0.932 . S
H455 C445 0.929 . S
Tb456 C465 2.764 . S
Tb456 O466 2.325 . S
Tb456 O469 2.303 . S
Tb456 O473 2.322 . S
Tb456 O474 2.349 . S
Tb456 O477 2.415 . S
Tb456 O478 2.399 . S
Tb457 O467 2.322 . S
Tb457 O468 2.349 . S
Tb457 O470 2.415 . S
Tb457 O471 2.399 . S
Tb457 O472 2.325 . S
Tb457 O475 2.303 . S
Tb457 C486 2.764 . S
C458 O474 1.261 . S
C458 O475 1.257 . S
C459 C462 1.358 . S
C459 C463 1.332 . S
C459 C465 1.504 . S
C460 C461 1.373 . S
C460 C464 1.308 . S
C461 C460 1.373 . S
C461 C462 1.429 . S
C461 H488 0.932 . S
C462 C459 1.358 . S
C462 C461 1.429 . S
C462 H489 0.930 . S
C463 C459 1.332 . S
C463 C464 1.394 . S
C463 H490 0.932 . S
C464 C460 1.308 . S
C464 C463 1.394 . S
C464 H491 0.929 . S
C465 Tb456 2.764 . S
C465 C459 1.504 . S
C465 O477 1.239 . S
C465 O478 1.263 . S
O466 Tb456 2.325 . S
O466 C476 1.236 . S
O467 Tb457 2.322 . S
O467 C476 1.257 . S
O468 Tb457 2.349 . S
O468 C479 1.261 . S
O469 Tb456 2.303 . S
O469 C479 1.257 . S
O470 Tb457 2.415 . S
O470 C486 1.239 . S
O471 Tb457 2.399 . S
O471 C486 1.263 . S
O472 Tb457 2.325 . S
O472 C487 1.236 . S
O473 Tb456 2.322 . S
O473 C487 1.257 . S
O474 Tb456 2.349 . S
O474 C458 1.261 . S
O475 Tb457 2.303 . S
O475 C458 1.257 . S
C476 O466 1.236 . S
C476 O467 1.257 . S
O477 Tb456 2.415 . S
O477 C465 1.239 . S
O478 Tb456 2.399 . S
O478 C465 1.263 . S
C479 O468 1.261 . S
C479 O469 1.257 . S
C480 C483 1.358 . S
C480 C484 1.332 . S
C480 C486 1.504 . S
C481 C482 1.373 . S
C481 C485 1.308 . S
C482 C481 1.373 . S
C482 C483 1.429 . S
C482 H492 0.932 . S
C483 C480 1.358 . S
C483 C482 1.429 . S
C483 H493 0.930 . S
C484 C480 1.332 . S
C484 C485 1.394 . S
C484 H494 0.932 . S
C485 C481 1.308 . S
C485 C484 1.394 . S
C485 H495 0.929 . S
C486 Tb457 2.764 . S
C486 O470 1.239 . S
C486 O471 1.263 . S
C486 C480 1.504 . S
C487 O472 1.236 . S
C487 O473 1.257 . S
H488 C461 0.932 . S
H489 C462 0.930 . S
H490 C463 0.932 . S
H491 C464 0.929 . S
H492 C482 0.932 . S
H493 C483 0.930 . S
H494 C484 0.932 . S
H495 C485 0.929 . S
Tb496 C505 2.764 . S
Tb496 O506 2.325 . S
Tb496 O509 2.303 . S
Tb496 O513 2.322 . S
Tb496 O514 2.349 . S
Tb496 O517 2.415 . S
Tb496 O518 2.399 . S
Tb497 O507 2.322 1_545 S
Tb497 O508 2.349 . S
Tb497 O510 2.415 . S
Tb497 O511 2.399 . S
Tb497 O512 2.325 . S
Tb497 O515 2.303 . S
Tb497 C526 2.764 . S
C498 O514 1.261 1_655 S
C498 O515 1.263 1_655 S
C499 C502 1.358 . S
C499 C503 1.332 . S
C499 C505 1.504 . S
C500 C501 1.373 . S
C500 C504 1.308 . S
C501 C500 1.373 . S
C501 C502 1.429 . S
C501 H528 0.932 . S
C502 C499 1.358 . S
C502 C501 1.429 . S
C502 H529 0.930 . S
C503 C499 1.332 . S
C503 C504 1.394 . S
C503 H530 0.932 . S
C504 C500 1.308 . S
C504 C503 1.394 . S
C504 H531 0.929 . S
C505 Tb496 2.764 . S
C505 C499 1.504 . S
C505 O517 1.239 . S
C505 O518 1.263 . S
O506 Tb496 2.325 . S
O506 C516 1.236 1_545 S
O507 Tb497 2.322 1_565 S
O507 C516 1.257 . S
O508 Tb497 2.349 . S
O508 C519 1.261 . S
O509 Tb496 2.303 . S
O509 C519 1.257 . S
O510 Tb497 2.415 . S
O510 C526 1.239 . S
O511 Tb497 2.399 . S
O511 C526 1.263 . S
O512 Tb497 2.325 . S
O512 C527 1.236 . S
O513 Tb496 2.322 . S
O513 C527 1.257 . S
O514 Tb496 2.349 . S
O514 C498 1.261 1_455 S
O515 Tb497 2.303 . S
O515 C498 1.263 1_455 S
C516 O506 1.236 1_565 S
C516 O507 1.257 . S
O517 Tb496 2.415 . S
O517 C505 1.239 . S
O518 Tb496 2.399 . S
O518 C505 1.263 . S
C519 O508 1.261 . S
C519 O509 1.257 . S
C520 C523 1.358 . S
C520 C524 1.332 1_455 S
C520 C526 1.504 . S
C521 C522 1.373 . S
C521 C525 1.308 1_455 S
C522 C521 1.373 . S
C522 C523 1.429 . S
C522 H532 0.932 . S
C523 C520 1.358 . S
C523 C522 1.429 . S
C523 H533 0.930 . S
C524 C520 1.332 1_655 S
C524 C525 1.394 . S
C524 H534 0.932 . S
C525 C521 1.308 1_655 S
C525 C524 1.394 . S
C525 H535 0.929 . S
C526 Tb497 2.764 . S
C526 O510 1.239 . S
C526 O511 1.263 . S
C526 C520 1.504 . S
C527 O512 1.236 . S
C527 O513 1.257 . S
H528 C501 0.932 . S
H529 C502 0.930 . S
H530 C503 0.932 . S
H531 C504 0.929 . S
H532 C522 0.932 . S
H533 C523 0.930 . S
H534 C524 0.932 . S
H535 C525 0.929 . S
Tb536 C545 2.764 . S
Tb536 O546 2.325 . S
Tb536 O549 2.303 . S
Tb536 O553 2.322 . S
Tb536 O554 2.349 . S
Tb536 O557 2.415 . S
Tb536 O558 2.399 . S
Tb537 O547 2.322 . S
Tb537 O548 2.349 . S
Tb537 O550 2.415 . S
Tb537 O551 2.399 . S
Tb537 O552 2.325 . S
Tb537 O555 2.303 . S
Tb537 C566 2.764 . S
C538 O554 1.261 . S
C538 O555 1.257 . S
C539 C542 1.358 . S
C539 C543 1.332 . S
C539 C545 1.504 . S
C540 C541 1.373 . S
C540 C544 1.308 . S
C541 C540 1.373 . S
C541 C542 1.429 . S
C541 H568 0.932 . S
C542 C539 1.358 . S
C542 C541 1.429 . S
C542 H569 0.930 . S
C543 C539 1.332 . S
C543 C544 1.394 . S
C543 H570 0.932 . S
C544 C540 1.308 . S
C544 C543 1.394 . S
C544 H571 0.929 . S
C545 Tb536 2.764 . S
C545 C539 1.504 . S
C545 O557 1.239 . S
C545 O558 1.263 . S
O546 Tb536 2.325 . S
O546 C556 1.236 . S
O547 Tb537 2.322 . S
O547 C556 1.257 . S
O548 Tb537 2.349 . S
O548 C559 1.261 . S
O549 Tb536 2.303 . S
O549 C559 1.257 . S
O550 Tb537 2.415 . S
O550 C566 1.239 . S
O551 Tb537 2.399 . S
O551 C566 1.263 . S
O552 Tb537 2.325 . S
O552 C567 1.236 . S
O553 Tb536 2.322 . S
O553 C567 1.257 . S
O554 Tb536 2.349 . S
O554 C538 1.261 . S
O555 Tb537 2.303 . S
O555 C538 1.257 . S
C556 O546 1.236 . S
C556 O547 1.257 . S
O557 Tb536 2.415 . S
O557 C545 1.239 . S
O558 Tb536 2.399 . S
O558 C545 1.263 . S
C559 O548 1.261 . S
C559 O549 1.257 . S
C560 C563 1.358 . S
C560 C564 1.332 . S
C560 C566 1.504 . S
C561 C562 1.373 . S
C561 C565 1.308 . S
C562 C561 1.373 . S
C562 C563 1.429 . S
C562 H572 0.932 . S
C563 C560 1.358 . S
C563 C562 1.429 . S
C563 H573 0.930 . S
C564 C560 1.332 . S
C564 C565 1.394 . S
C564 H574 0.932 . S
C565 C561 1.308 . S
C565 C564 1.394 . S
C565 H575 0.929 . S
C566 Tb537 2.764 . S
C566 O550 1.239 . S
C566 O551 1.263 . S
C566 C560 1.504 . S
C567 O552 1.236 . S
C567 O553 1.257 . S
H568 C541 0.932 . S
H569 C542 0.930 . S
H570 C543 0.932 . S
H571 C544 0.929 . S
H572 C562 0.932 . S
H573 C563 0.930 . S
H574 C564 0.932 . S
H575 C565 0.929 . S
Tb576 C585 2.764 . S
Tb576 O586 2.325 . S
Tb576 O589 2.303 . S
Tb576 O593 2.322 1_545 S
Tb576 O594 2.349 . S
Tb576 O597 2.415 . S
Tb576 O598 2.399 . S
Tb577 O587 2.322 1_556 S
Tb577 O588 2.349 . S
Tb577 O590 2.415 . S
Tb577 O591 2.399 . S
Tb577 O592 2.325 . S
Tb577 O595 2.303 1_556 S
Tb577 C606 2.764 . S
C578 O594 1.261 . S
C578 O595 1.257 . S
C579 C582 1.358 . S
C579 C583 1.332 . S
C579 C585 1.504 . S
C580 C581 1.373 . S
C580 C584 1.308 . S
C581 C580 1.373 . S
C581 C582 1.429 . S
C581 H608 0.932 . S
C582 C579 1.358 . S
C582 C581 1.429 . S
C582 H609 0.930 . S
C583 C579 1.332 . S
C583 C584 1.394 . S
C583 H610 0.932 . S
C584 C580 1.308 . S
C584 C583 1.394 . S
C584 H611 0.929 . S
C585 Tb576 2.764 . S
C585 C579 1.504 . S
C585 O597 1.239 . S
C585 O598 1.263 . S
O586 Tb576 2.325 . S
O586 C596 1.236 . S
O587 Tb577 2.322 1_554 S
O587 C596 1.257 . S
O588 Tb577 2.349 . S
O588 C599 1.261 1_556 S
O589 Tb576 2.303 . S
O589 C599 1.257 . S
O590 Tb577 2.415 . S
O590 C606 1.239 . S
O591 Tb577 2.399 . S
O591 C606 1.263 . S
O592 Tb577 2.325 . S
O592 C607 1.236 1_546 S
O593 Tb576 2.322 1_565 S
O593 C607 1.257 . S
O594 Tb576 2.349 . S
O594 C578 1.261 . S
O595 Tb577 2.303 1_554 S
O595 C578 1.257 . S
C596 O586 1.236 . S
C596 O587 1.257 . S
O597 Tb576 2.415 . S
O597 C585 1.239 . S
O598 Tb576 2.399 . S
O598 C585 1.263 . S
C599 O588 1.261 1_554 S
C599 O589 1.257 . S
C600 C603 1.358 . S
C600 C604 1.332 . S
C600 C606 1.504 . S
C601 C602 1.373 . S
C601 C605 1.308 . S
C602 C601 1.373 . S
C602 C603 1.429 . S
C602 H612 0.932 . S
C603 C600 1.358 . S
C603 C602 1.429 . S
C603 H613 0.930 . S
C604 C600 1.332 . S
C604 C605 1.394 . S
C604 H614 0.932 . S
C605 C601 1.308 . S
C605 C604 1.394 . S
C605 H615 0.929 . S
C606 Tb577 2.764 . S
C606 O590 1.239 . S
C606 O591 1.263 . S
C606 C600 1.504 . S
C607 O592 1.236 1_564 S
C607 O593 1.257 . S
H608 C581 0.932 . S
H609 C582 0.930 . S
H610 C583 0.932 . S
H611 C584 0.929 . S
H612 C602 0.932 . S
H613 C603 0.930 . S
H614 C604 0.932 . S
H615 C605 0.929 . S
Tb616 C625 2.764 . S
Tb616 O626 2.325 . S
Tb616 O629 2.303 . S
Tb616 O633 2.322 . S
Tb616 O634 2.349 . S
Tb616 O637 2.415 . S
Tb616 O638 2.399 . S
Tb617 O627 2.322 . S
Tb617 O628 2.349 . S
Tb617 O630 2.415 . S
Tb617 O631 2.399 . S
Tb617 O632 2.325 . S
Tb617 O635 2.303 . S
Tb617 C646 2.764 . S
C618 O634 1.261 . S
C618 O635 1.257 . S
C619 C622 1.358 . S
C619 C623 1.332 . S
C619 C625 1.504 . S
C620 C621 1.373 . S
C620 C624 1.308 . S
C621 C620 1.373 . S
C621 C622 1.429 . S
C621 H648 0.932 . S
C622 C619 1.358 . S
C622 C621 1.429 . S
C622 H649 0.930 . S
C623 C619 1.332 . S
C623 C624 1.394 . S
C623 H650 0.932 . S
C624 C620 1.308 . S
C624 C623 1.394 . S
C624 H651 0.929 . S
C625 Tb616 2.764 . S
C625 C619 1.504 . S
C625 O637 1.239 . S
C625 O638 1.263 . S
O626 Tb616 2.325 . S
O626 C636 1.236 . S
O627 Tb617 2.322 . S
O627 C636 1.257 . S
O628 Tb617 2.349 . S
O628 C639 1.261 . S
O629 Tb616 2.303 . S
O629 C639 1.257 . S
O630 Tb617 2.415 . S
O630 C646 1.239 . S
O631 Tb617 2.399 . S
O631 C646 1.263 . S
O632 Tb617 2.325 . S
O632 C647 1.236 . S
O633 Tb616 2.322 . S
O633 C647 1.257 . S
O634 Tb616 2.349 . S
O634 C618 1.261 . S
O635 Tb617 2.303 . S
O635 C618 1.257 . S
C636 O626 1.236 . S
C636 O627 1.257 . S
O637 Tb616 2.415 . S
O637 C625 1.239 . S
O638 Tb616 2.399 . S
O638 C625 1.263 . S
C639 O628 1.261 . S
C639 O629 1.257 . S
C640 C643 1.358 . S
C640 C644 1.332 . S
C640 C646 1.504 . S
C641 C642 1.373 . S
C641 C645 1.308 . S
C642 C641 1.373 . S
C642 C643 1.429 . S
C642 H652 0.932 . S
C643 C640 1.358 . S
C643 C642 1.429 . S
C643 H653 0.930 . S
C644 C640 1.332 . S
C644 C645 1.394 . S
C644 H654 0.932 . S
C645 C641 1.308 . S
C645 C644 1.394 . S
C645 H655 0.929 . S
C646 Tb617 2.764 . S
C646 O630 1.239 . S
C646 O631 1.263 . S
C646 C640 1.504 . S
C647 O632 1.236 . S
C647 O633 1.257 . S
H648 C621 0.932 . S
H649 C622 0.930 . S
H650 C623 0.932 . S
H651 C624 0.929 . S
H652 C642 0.932 . S
H653 C643 0.930 . S
H654 C644 0.932 . S
H655 C645 0.929 . S
Tb656 C665 2.764 . S
Tb656 O666 2.325 . S
Tb656 O669 2.303 . S
Tb656 O673 2.322 . S
Tb656 O674 2.349 . S
Tb656 O677 2.415 . S
Tb656 O678 2.399 . S
Tb657 O667 2.322 1_556 S
Tb657 O668 2.349 . S
Tb657 O670 2.415 . S
Tb657 O671 2.399 . S
Tb657 O672 2.325 . S
Tb657 O675 2.303 1_556 S
Tb657 C686 2.764 . S
C658 O674 1.261 . S
C658 O675 1.257 . S
C659 C662 1.358 . S
C659 C663 1.332 . S
C659 C665 1.504 . S
C660 C661 1.373 . S
C660 C664 1.308 . S
C661 C660 1.373 . S
C661 C662 1.429 . S
C661 H688 0.932 . S
C662 C659 1.358 . S
C662 C661 1.429 . S
C662 H689 0.930 . S
C663 C659 1.332 . S
C663 C664 1.394 . S
C663 H690 0.932 . S
C664 C660 1.308 . S
C664 C663 1.394 . S
C664 H691 0.929 . S
C665 Tb656 2.764 . S
C665 C659 1.504 . S
C665 O677 1.239 . S
C665 O678 1.263 . S
O666 Tb656 2.325 . S
O666 C676 1.236 . S
O667 Tb657 2.322 1_554 S
O667 C676 1.257 . S
O668 Tb657 2.349 . S
O668 C679 1.261 1_556 S
O669 Tb656 2.303 . S
O669 C679 1.257 . S
O670 Tb657 2.415 . S
O670 C686 1.239 . S
O671 Tb657 2.399 . S
O671 C686 1.263 . S
O672 Tb657 2.325 . S
O672 C687 1.236 1_556 S
O673 Tb656 2.322 . S
O673 C687 1.257 . S
O674 Tb656 2.349 . S
O674 C658 1.261 . S
O675 Tb657 2.303 1_554 S
O675 C658 1.257 . S
C676 O666 1.236 . S
C676 O667 1.257 . S
O677 Tb656 2.415 . S
O677 C665 1.239 . S
O678 Tb656 2.399 . S
O678 C665 1.263 . S
C679 O668 1.261 1_554 S
C679 O669 1.257 . S
C680 C683 1.358 . S
C680 C684 1.332 . S
C680 C686 1.504 . S
C681 C682 1.373 . S
C681 C685 1.308 . S
C682 C681 1.373 . S
C682 C683 1.429 . S
C682 H692 0.932 . S
C683 C680 1.358 . S
C683 C682 1.429 . S
C683 H693 0.930 . S
C684 C680 1.332 . S
C684 C685 1.394 . S
C684 H694 0.932 . S
C685 C681 1.308 . S
C685 C684 1.394 . S
C685 H695 0.929 . S
C686 Tb657 2.764 . S
C686 O670 1.239 . S
C686 O671 1.263 . S
C686 C680 1.504 . S
C687 O672 1.236 1_554 S
C687 O673 1.257 . S
H688 C661 0.932 . S
H689 C662 0.930 . S
H690 C663 0.932 . S
H691 C664 0.929 . S
H692 C682 0.932 . S
H693 C683 0.930 . S
H694 C684 0.932 . S
H695 C685 0.929 . S
Tb696 C705 2.764 . S
Tb696 O706 2.325 . S
Tb696 O709 2.303 . S
Tb696 O713 2.322 . S
Tb696 O714 2.349 . S
Tb696 O717 2.415 . S
Tb696 O718 2.399 . S
Tb697 O707 2.322 . S
Tb697 O708 2.349 . S
Tb697 O710 2.415 . S
Tb697 O711 2.399 . S
Tb697 O712 2.325 . S
Tb697 O715 2.303 . S
Tb697 C726 2.764 . S
C698 O714 1.261 . S
C698 O715 1.257 . S
C699 C702 1.358 . S
C699 C703 1.332 . S
C699 C705 1.504 . S
C700 C701 1.373 . S
C700 C704 1.308 . S
C701 C700 1.373 . S
C701 C702 1.429 . S
C701 H728 0.932 . S
C702 C699 1.358 . S
C702 C701 1.429 . S
C702 H729 0.930 . S
C703 C699 1.332 . S
C703 C704 1.394 . S
C703 H730 0.932 . S
C704 C700 1.308 . S
C704 C703 1.394 . S
C704 H731 0.929 . S
C705 Tb696 2.764 . S
C705 C699 1.504 . S
C705 O717 1.239 . S
C705 O718 1.263 . S
O706 Tb696 2.325 . S
O706 C716 1.236 . S
O707 Tb697 2.322 . S
O707 C716 1.257 . S
O708 Tb697 2.349 . S
O708 C719 1.261 . S
O709 Tb696 2.303 . S
O709 C719 1.257 . S
O710 Tb697 2.415 . S
O710 C726 1.239 . S
O711 Tb697 2.399 . S
O711 C726 1.263 . S
O712 Tb697 2.325 . S
O712 C727 1.236 . S
O713 Tb696 2.322 . S
O713 C727 1.257 . S
O714 Tb696 2.349 . S
O714 C698 1.261 . S
O715 Tb697 2.303 . S
O715 C698 1.257 . S
C716 O706 1.236 . S
C716 O707 1.257 . S
O717 Tb696 2.415 . S
O717 C705 1.239 . S
O718 Tb696 2.399 . S
O718 C705 1.263 . S
C719 O708 1.261 . S
C719 O709 1.257 . S
C720 C723 1.358 . S
C720 C724 1.332 . S
C720 C726 1.504 . S
C721 C722 1.373 . S
C721 C725 1.308 . S
C722 C721 1.373 . S
C722 C723 1.429 . S
C722 H732 0.932 . S
C723 C720 1.358 . S
C723 C722 1.429 . S
C723 H733 0.930 . S
C724 C720 1.332 . S
C724 C725 1.394 . S
C724 H734 0.932 . S
C725 C721 1.308 . S
C725 C724 1.394 . S
C725 H735 0.929 . S
C726 Tb697 2.764 . S
C726 O710 1.239 . S
C726 O711 1.263 . S
C726 C720 1.504 . S
C727 O712 1.236 . S
C727 O713 1.257 . S
H728 C701 0.932 . S
H729 C702 0.930 . S
H730 C703 0.932 . S
H731 C704 0.929 . S
H732 C722 0.932 . S
H733 C723 0.930 . S
H734 C724 0.932 . S
H735 C725 0.929 . S
Tb736 C745 2.764 . S
Tb736 O746 2.325 . S
Tb736 O749 2.303 . S
Tb736 O753 2.322 . S
Tb736 O754 2.349 . S
Tb736 O757 2.415 . S
Tb736 O758 2.399 . S
Tb737 O747 2.322 . S
Tb737 O748 2.336 1_455 S
Tb737 O750 2.415 . S
Tb737 O751 2.399 . S
Tb737 O752 2.325 . S
Tb737 O755 2.303 . S
Tb737 C766 2.764 . S
C738 O754 1.261 . S
C738 O755 1.257 . S
C739 C742 1.358 . S
C739 C743 1.329 1_455 S
C739 C745 1.504 . S
C740 C741 1.373 . S
C740 C744 1.308 1_455 S
C741 C740 1.373 . S
C741 C742 1.429 . S
C741 H768 0.932 . S
C742 C739 1.358 . S
C742 C741 1.429 . S
C742 H769 0.930 . S
C743 C739 1.329 1_655 S
C743 C744 1.395 . S
C743 H770 0.933 . S
C744 C740 1.308 1_655 S
C744 C743 1.395 . S
C744 H771 0.929 . S
C745 Tb736 2.764 . S
C745 C739 1.504 . S
C745 O757 1.239 . S
C745 O758 1.263 . S
O746 Tb736 2.325 . S
O746 C756 1.236 . S
O747 Tb737 2.322 . S
O747 C756 1.257 . S
O748 Tb737 2.336 1_655 S
O748 C759 1.263 . S
O749 Tb736 2.303 . S
O749 C759 1.257 1_455 S
O750 Tb737 2.415 . S
O750 C766 1.239 . S
O751 Tb737 2.399 . S
O751 C766 1.263 . S
O752 Tb737 2.325 . S
O752 C767 1.236 . S
O753 Tb736 2.322 . S
O753 C767 1.257 . S
O754 Tb736 2.349 . S
O754 C738 1.261 . S
O755 Tb737 2.303 . S
O755 C738 1.257 . S
C756 O746 1.236 . S
C756 O747 1.257 . S
O757 Tb736 2.415 . S
O757 C745 1.239 . S
O758 Tb736 2.399 . S
O758 C745 1.263 . S
C759 O748 1.263 . S
C759 O749 1.257 1_655 S
C760 C763 1.358 . S
C760 C764 1.332 . S
C760 C766 1.504 . S
C761 C762 1.373 . S
C761 C765 1.308 . S
C762 C761 1.373 . S
C762 C763 1.429 . S
C762 H772 0.932 . S
C763 C760 1.358 . S
C763 C762 1.429 . S
C763 H773 0.930 . S
C764 C760 1.332 . S
C764 C765 1.394 . S
C764 H774 0.932 . S
C765 C761 1.308 . S
C765 C764 1.394 . S
C765 H775 0.929 . S
C766 Tb737 2.764 . S
C766 O750 1.239 . S
C766 O751 1.263 . S
C766 C760 1.504 . S
C767 O752 1.236 . S
C767 O753 1.257 . S
H768 C741 0.932 . S
H769 C742 0.930 . S
H770 C743 0.933 . S
H771 C744 0.929 . S
H772 C762 0.932 . S
H773 C763 0.930 . S
H774 C764 0.932 . S
H775 C765 0.929 . S
Tb776 C785 2.764 . S
Tb776 O786 2.325 . S
Tb776 O789 2.303 . S
Tb776 O793 2.322 . S
Tb776 O794 2.349 . S
Tb776 O797 2.415 . S
Tb776 O798 2.399 . S
Tb777 O787 2.322 . S
Tb777 O788 2.349 . S
Tb777 O790 2.415 . S
Tb777 O791 2.399 . S
Tb777 O792 2.325 . S
Tb777 O795 2.303 . S
Tb777 C806 2.764 . S
C778 O794 1.261 . S
C778 O795 1.257 . S
C779 C782 1.358 . S
C779 C783 1.332 . S
C779 C785 1.504 . S
C780 C781 1.373 . S
C780 C784 1.308 . S
C781 C780 1.373 . S
C781 C782 1.429 . S
C781 H808 0.932 . S
C782 C779 1.358 . S
C782 C781 1.429 . S
C782 H809 0.930 . S
C783 C779 1.332 . S
C783 C784 1.394 . S
C783 H810 0.932 . S
C784 C780 1.308 . S
C784 C783 1.394 . S
C784 H811 0.929 . S
C785 Tb776 2.764 . S
C785 C779 1.504 . S
C785 O797 1.239 . S
C785 O798 1.263 . S
O786 Tb776 2.325 . S
O786 C796 1.236 . S
O787 Tb777 2.322 . S
O787 C796 1.257 . S
O788 Tb777 2.349 . S
O788 C799 1.261 . S
O789 Tb776 2.303 . S
O789 C799 1.257 . S
O790 Tb777 2.415 . S
O790 C806 1.239 . S
O791 Tb777 2.399 . S
O791 C806 1.263 . S
O792 Tb777 2.325 . S
O792 C807 1.236 . S
O793 Tb776 2.322 . S
O793 C807 1.257 . S
O794 Tb776 2.349 . S
O794 C778 1.261 . S
O795 Tb777 2.303 . S
O795 C778 1.257 . S
C796 O786 1.236 . S
C796 O787 1.257 . S
O797 Tb776 2.415 . S
O797 C785 1.239 . S
O798 Tb776 2.399 . S
O798 C785 1.263 . S
C799 O788 1.261 . S
C799 O789 1.257 . S
C800 C803 1.358 . S
C800 C804 1.332 . S
C800 C806 1.504 . S
C801 C802 1.373 . S
C801 C805 1.308 . S
C802 C801 1.373 . S
C802 C803 1.429 . S
C802 H812 0.932 . S
C803 C800 1.358 . S
C803 C802 1.429 . S
C803 H813 0.930 . S
C804 C800 1.332 . S
C804 C805 1.394 . S
C804 H814 0.932 . S
C805 C801 1.308 . S
C805 C804 1.394 . S
C805 H815 0.929 . S
C806 Tb777 2.764 . S
C806 O790 1.239 . S
C806 O791 1.263 . S
C806 C800 1.504 . S
C807 O792 1.236 . S
C807 O793 1.257 . S
H808 C781 0.932 . S
H809 C782 0.930 . S
H810 C783 0.932 . S
H811 C784 0.929 . S
H812 C802 0.932 . S
H813 C803 0.930 . S
H814 C804 0.932 . S
H815 C805 0.929 . S
Tb816 C825 2.764 . S
Tb816 O826 2.325 . S
Tb816 O829 2.303 . S
Tb816 O833 2.322 . S
Tb816 O834 2.349 . S
Tb816 O837 2.415 . S
Tb816 O838 2.399 . S
Tb817 O827 2.322 . S
Tb817 O828 2.349 . S
Tb817 O830 2.415 . S
Tb817 O831 2.399 . S
Tb817 O832 2.325 . S
Tb817 O835 2.303 . S
Tb817 C846 2.764 . S
C818 O834 1.261 . S
C818 O835 1.257 . S
C819 C822 1.358 . S
C819 C823 1.332 . S
C819 C825 1.504 . S
C820 C821 1.373 . S
C820 C824 1.308 . S
C821 C820 1.373 . S
C821 C822 1.429 . S
C821 H848 0.932 . S
C822 C819 1.358 . S
C822 C821 1.429 . S
C822 H849 0.930 . S
C823 C819 1.332 . S
C823 C824 1.394 . S
C823 H850 0.932 . S
C824 C820 1.308 . S
C824 C823 1.394 . S
C824 H851 0.929 . S
C825 Tb816 2.764 . S
C825 C819 1.504 . S
C825 O837 1.239 . S
C825 O838 1.263 . S
O826 Tb816 2.325 . S
O826 C836 1.236 . S
O827 Tb817 2.322 . S
O827 C836 1.257 . S
O828 Tb817 2.349 . S
O828 C839 1.261 . S
O829 Tb816 2.303 . S
O829 C839 1.257 . S
O830 Tb817 2.415 . S
O830 C846 1.239 . S
O831 Tb817 2.399 . S
O831 C846 1.263 . S
O832 Tb817 2.325 . S
O832 C847 1.236 . S
O833 Tb816 2.322 . S
O833 C847 1.257 . S
O834 Tb816 2.349 . S
O834 C818 1.261 . S
O835 Tb817 2.303 . S
O835 C818 1.257 . S
C836 O826 1.236 . S
C836 O827 1.257 . S
O837 Tb816 2.415 . S
O837 C825 1.239 . S
O838 Tb816 2.399 . S
O838 C825 1.263 . S
C839 O828 1.261 . S
C839 O829 1.257 . S
C840 C843 1.358 . S
C840 C844 1.332 . S
C840 C846 1.504 . S
C841 C842 1.373 . S
C841 C845 1.308 . S
C842 C841 1.373 . S
C842 C843 1.429 . S
C842 H852 0.932 . S
C843 C840 1.358 . S
C843 C842 1.429 . S
C843 H853 0.930 . S
C844 C840 1.332 . S
C844 C845 1.394 . S
C844 H854 0.932 . S
C845 C841 1.308 . S
C845 C844 1.394 . S
C845 H855 0.929 . S
C846 Tb817 2.764 . S
C846 O830 1.239 . S
C846 O831 1.263 . S
C846 C840 1.504 . S
C847 O832 1.236 . S
C847 O833 1.257 . S
H848 C821 0.932 . S
H849 C822 0.930 . S
H850 C823 0.932 . S
H851 C824 0.929 . S
H852 C842 0.932 . S
H853 C843 0.930 . S
H854 C844 0.932 . S
H855 C845 0.929 . S
Tb856 C865 2.764 . S
Tb856 O866 2.325 . S
Tb856 O869 2.303 . S
Tb856 O873 2.322 . S
Tb856 O874 2.349 . S
Tb856 O877 2.415 . S
Tb856 O878 2.399 . S
Tb857 O867 2.322 . S
Tb857 O868 2.349 . S
Tb857 O870 2.415 . S
Tb857 O871 2.399 . S
Tb857 O872 2.325 . S
Tb857 O875 2.303 . S
Tb857 C886 2.764 . S
C858 O874 1.261 . S
C858 O875 1.257 . S
C859 C862 1.358 . S
C859 C863 1.332 . S
C859 C865 1.504 . S
C860 C861 1.373 . S
C860 C864 1.308 . S
C861 C860 1.373 . S
C861 C862 1.429 . S
C861 H888 0.932 . S
C862 C859 1.358 . S
C862 C861 1.429 . S
C862 H889 0.930 . S
C863 C859 1.332 . S
C863 C864 1.394 . S
C863 H890 0.932 . S
C864 C860 1.308 . S
C864 C863 1.394 . S
C864 H891 0.929 . S
C865 Tb856 2.764 . S
C865 C859 1.504 . S
C865 O877 1.239 . S
C865 O878 1.263 . S
O866 Tb856 2.325 . S
O866 C876 1.236 . S
O867 Tb857 2.322 . S
O867 C876 1.257 . S
O868 Tb857 2.349 . S
O868 C879 1.261 . S
O869 Tb856 2.303 . S
O869 C879 1.257 . S
O870 Tb857 2.415 . S
O870 C886 1.239 . S
O871 Tb857 2.399 . S
O871 C886 1.263 . S
O872 Tb857 2.325 . S
O872 C887 1.236 . S
O873 Tb856 2.322 . S
O873 C887 1.257 . S
O874 Tb856 2.349 . S
O874 C858 1.261 . S
O875 Tb857 2.303 . S
O875 C858 1.257 . S
C876 O866 1.236 . S
C876 O867 1.257 . S
O877 Tb856 2.415 . S
O877 C865 1.239 . S
O878 Tb856 2.399 . S
O878 C865 1.263 . S
C879 O868 1.261 . S
C879 O869 1.257 . S
C880 C883 1.358 . S
C880 C884 1.332 . S
C880 C886 1.504 . S
C881 C882 1.373 . S
C881 C885 1.308 . S
C882 C881 1.373 . S
C882 C883 1.429 . S
C882 H892 0.932 . S
C883 C880 1.358 . S
C883 C882 1.429 . S
C883 H893 0.930 . S
C884 C880 1.332 . S
C884 C885 1.394 . S
C884 H894 0.932 . S
C885 C881 1.308 . S
C885 C884 1.394 . S
C885 H895 0.929 . S
C886 Tb857 2.764 . S
C886 O870 1.239 . S
C886 O871 1.263 . S
C886 C880 1.504 . S
C887 O872 1.236 . S
C887 O873 1.257 . S
H888 C861 0.932 . S
H889 C862 0.930 . S
H890 C863 0.932 . S
H891 C864 0.929 . S
H892 C882 0.932 . S
H893 C883 0.930 . S
H894 C884 0.932 . S
H895 C885 0.929 . S
Tb896 C905 2.764 . S
Tb896 O906 2.325 . S
Tb896 O909 2.303 . S
Tb896 O913 2.322 . S
Tb896 O914 2.349 . S
Tb896 O917 2.415 . S
Tb896 O918 2.399 . S
Tb897 O907 2.322 . S
Tb897 O908 2.349 . S
Tb897 O910 2.415 . S
Tb897 O911 2.399 . S
Tb897 O912 2.325 . S
Tb897 O915 2.303 . S
Tb897 C926 2.764 . S
C898 O914 1.261 . S
C898 O915 1.257 . S
C899 C902 1.358 . S
C899 C903 1.332 . S
C899 C905 1.504 . S
C900 C901 1.373 . S
C900 C904 1.308 . S
C901 C900 1.373 . S
C901 C902 1.429 . S
C901 H928 0.932 . S
C902 C899 1.358 . S
C902 C901 1.429 . S
C902 H929 0.930 . S
C903 C899 1.332 . S
C903 C904 1.394 . S
C903 H930 0.932 . S
C904 C900 1.308 . S
C904 C903 1.394 . S
C904 H931 0.929 . S
C905 Tb896 2.764 . S
C905 C899 1.504 . S
C905 O917 1.239 . S
C905 O918 1.263 . S
O906 Tb896 2.325 . S
O906 C916 1.236 . S
O907 Tb897 2.322 . S
O907 C916 1.257 . S
O908 Tb897 2.349 . S
O908 C919 1.261 . S
O909 Tb896 2.303 . S
O909 C919 1.257 . S
O910 Tb897 2.415 . S
O910 C926 1.239 . S
O911 Tb897 2.399 . S
O911 C926 1.263 . S
O912 Tb897 2.325 . S
O912 C927 1.236 . S
O913 Tb896 2.322 . S
O913 C927 1.257 . S
O914 Tb896 2.349 . S
O914 C898 1.261 . S
O915 Tb897 2.303 . S
O915 C898 1.257 . S
C916 O906 1.236 . S
C916 O907 1.257 . S
O917 Tb896 2.415 . S
O917 C905 1.239 . S
O918 Tb896 2.399 . S
O918 C905 1.263 . S
C919 O908 1.261 . S
C919 O909 1.257 . S
C920 C923 1.358 . S
C920 C924 1.332 . S
C920 C926 1.504 . S
C921 C922 1.373 . S
C921 C925 1.308 . S
C922 C921 1.373 . S
C922 C923 1.429 . S
C922 H932 0.932 . S
C923 C920 1.358 . S
C923 C922 1.429 . S
C923 H933 0.930 . S
C924 C920 1.332 . S
C924 C925 1.394 . S
C924 H934 0.932 . S
C925 C921 1.308 . S
C925 C924 1.394 . S
C925 H935 0.929 . S
C926 Tb897 2.764 . S
C926 O910 1.239 . S
C926 O911 1.263 . S
C926 C920 1.504 . S
C927 O912 1.236 . S
C927 O913 1.257 . S
H928 C901 0.932 . S
H929 C902 0.930 . S
H930 C903 0.932 . S
H931 C904 0.929 . S
H932 C922 0.932 . S
H933 C923 0.930 . S
H934 C924 0.932 . S
H935 C925 0.929 . S
Tb936 C945 2.764 1_455 S
Tb936 O946 2.325 . S
Tb936 O949 2.303 . S
Tb936 O953 2.322 . S
Tb936 O954 2.349 . S
Tb936 O957 2.415 1_455 S
Tb936 O958 2.399 1_455 S
Tb937 O947 2.322 . S
Tb937 O948 2.349 1_554 S
Tb937 O950 2.415 . S
Tb937 O951 2.399 1_554 S
Tb937 O952 2.325 . S
Tb937 O955 2.303 . S
Tb937 C966 2.764 . S
C938 O954 1.261 . S
C938 O955 1.257 . S
C939 C942 1.358 . S
C939 C943 1.332 . S
C939 C945 1.504 . S
C940 C941 1.373 . S
C940 C944 1.308 . S
C941 C940 1.373 . S
C941 C942 1.429 . S
C941 H968 0.932 . S
C942 C939 1.358 . S
C942 C941 1.429 . S
C942 H969 0.930 . S
C943 C939 1.332 . S
C943 C944 1.394 . S
C943 H970 0.932 . S
C944 C940 1.308 . S
C944 C943 1.394 . S
C944 H971 0.929 . S
C945 Tb936 2.764 1_655 S
C945 C939 1.504 . S
C945 O957 1.239 . S
C945 O958 1.263 . S
O946 Tb936 2.325 . S
O946 C956 1.236 . S
O947 Tb937 2.322 . S
O947 C956 1.257 . S
O948 Tb937 2.349 1_556 S
O948 C959 1.261 . S
O949 Tb936 2.303 . S
O949 C959 1.257 1_554 S
O950 Tb937 2.415 . S
O950 C966 1.239 . S
O951 Tb937 2.399 1_556 S
O951 C966 1.263 1_556 S
O952 Tb937 2.325 . S
O952 C967 1.236 . S
O953 Tb936 2.322 . S
O953 C967 1.257 . S
O954 Tb936 2.349 . S
O954 C938 1.261 . S
O955 Tb937 2.303 . S
O955 C938 1.257 . S
C956 O946 1.236 . S
C956 O947 1.257 . S
O957 Tb936 2.415 1_655 S
O957 C945 1.239 . S
O958 Tb936 2.399 1_655 S
O958 C945 1.263 . S
C959 O948 1.261 . S
C959 O949 1.257 1_556 S
C960 C963 1.358 1_554 S
C960 C964 1.332 . S
C960 C966 1.504 . S
C961 C962 1.373 1_554 S
C961 C965 1.308 . S
C962 C961 1.373 1_556 S
C962 C963 1.429 . S
C962 H972 0.932 . S
C963 C960 1.358 1_556 S
C963 C962 1.429 . S
C963 H973 0.930 . S
C964 C960 1.332 . S
C964 C965 1.394 . S
C964 H974 0.932 . S
C965 C961 1.308 . S
C965 C964 1.394 . S
C965 H975 0.929 . S
C966 Tb937 2.764 . S
C966 O950 1.239 . S
C966 O951 1.263 1_554 S
C966 C960 1.504 . S
C967 O952 1.236 . S
C967 O953 1.257 . S
H968 C941 0.932 . S
H969 C942 0.930 . S
H970 C943 0.932 . S
H971 C944 0.929 . S
H972 C962 0.932 . S
H973 C963 0.930 . S
H974 C964 0.932 . S
H975 C965 0.929 . S
H976 C994 0.951 . S
H977 C996 0.951 . S
H978 C998 0.950 . S
H979 C999 0.950 . S
H980 C1001 0.950 . S
H981 C1004 0.950 1_455 S
H982 C1005 0.950 . S
H983 C1007 0.950 . S
H984 C1008 0.939 1_556 S
H985 C1009 0.951 . S
H986 C1011 0.951 1_556 S
H987 C1013 0.950 1_656 S
H988 C1014 0.950 . S
H989 C1016 0.962 1_554 S
H990 C1019 0.950 . S
H991 C1020 0.950 . S
H992 C1022 0.950 . S
H993 C1023 0.950 . S
C994 H976 0.951 . S
C994 C995 1.366 . S
C994 C996 1.388 . S
C995 C994 1.366 . S
C995 C999 1.385 1_655 S
C996 H977 0.951 . S
C996 C994 1.388 . S
C996 C997 1.366 1_655 S
C997 C996 1.366 1_455 S
C997 C998 1.414 . S
C997 C1000 1.499 . S
C998 H978 0.950 . S
C998 C997 1.414 . S
C998 C999 1.374 . S
C999 H979 0.950 . S
C999 C995 1.385 1_455 S
C999 C998 1.374 . S
C1000 C997 1.499 . S
C1000 C1001 1.373 . S
C1000 C1002 1.389 . S
C1001 H980 0.950 . S
C1001 C1000 1.373 . S
C1001 C1017 1.377 . S
C1002 C1000 1.389 . S
C1002 C1003 1.524 1_455 S
C1002 C1016 1.377 . S
C1003 C1002 1.524 1_655 S
C1003 C1004 1.397 1_556 S
C1003 C1008 1.363 1_556 S
C1004 H981 0.950 1_655 S
C1004 C1003 1.397 1_554 S
C1004 C1005 1.334 . S
C1005 H982 0.950 . S
C1005 C1004 1.334 . S
C1005 C1006 1.287 . S
C1006 C1005 1.287 . S
C1006 C1007 1.524 . S
C1006 H1025 0.913 . S
C1007 H983 0.950 . S
C1007 C1006 1.524 . S
C1007 C1008 1.415 . S
C1008 H984 0.939 1_554 S
C1008 C1003 1.363 1_554 S
C1008 C1007 1.415 . S
C1009 H985 0.951 . S
C1009 C1010 1.366 . S
C1009 C1011 1.388 . S
C1010 C1009 1.366 . S
C1010 C1014 1.385 . S
C1011 H986 0.951 1_554 S
C1011 C1009 1.388 . S
C1011 C1012 1.366 1_554 S
C1012 C1011 1.366 1_556 S
C1012 C1013 1.414 1_556 S
C1012 C1015 1.499 . S
C1013 H987 0.950 1_454 S
C1013 C1012 1.414 1_554 S
C1013 C1014 1.374 . S
C1014 H988 0.950 . S
C1014 C1010 1.385 . S
C1014 C1013 1.374 . S
C1015 C1012 1.499 . S
C1015 C1016 1.373 . S
C1015 C1017 1.389 . S
C1016 H989 0.962 1_556 S
C1016 C1002 1.377 . S
C1016 C1015 1.373 . S
C1017 C1001 1.377 . S
C1017 C1015 1.389 . S
C1017 C1018 1.524 . S
C1018 C1017 1.524 . S
C1018 C1019 1.397 . S
C1018 C1023 1.363 . S
C1019 H990 0.950 . S
C1019 C1018 1.397 . S
C1019 C1020 1.334 . S
C1020 H991 0.950 . S
C1020 C1019 1.334 . S
C1020 C1021 1.287 . S
C1021 C1020 1.287 . S
C1021 C1022 1.524 . S
C1021 H1024 0.999 . S
C1022 H992 0.950 . S
C1022 C1021 1.524 . S
C1022 C1023 1.415 . S
C1023 H993 0.950 . S
C1023 C1018 1.363 . S
C1023 C1022 1.415 . S
H1024 C1021 0.999 . S
H1025 C1006 0.913 . S
H1026 C1044 0.951 . S
H1027 C1046 0.951 . S
H1028 C1048 0.950 . S
H1029 C1049 0.950 . S
H1030 C1051 0.950 . S
H1031 C1054 0.950 . S
H1032 C1055 0.950 . S
H1033 C1057 0.950 . S
H1034 C1058 0.950 . S
H1035 C1059 0.951 . S
H1036 C1061 0.951 . S
H1037 C1063 0.950 . S
H1038 C1064 0.950 . S
H1039 C1066 0.950 . S
H1040 C1069 0.950 . S
H1041 C1070 0.950 . S
H1042 C1072 0.950 . S
H1043 C1073 0.950 . S
C1044 H1026 0.951 . S
C1044 C1045 1.366 . S
C1044 C1046 1.388 . S
C1045 C1044 1.366 . S
C1045 C1049 1.385 . S
C1046 H1027 0.951 . S
C1046 C1044 1.388 . S
C1046 C1047 1.366 . S
C1047 C1046 1.366 . S
C1047 C1048 1.414 . S
C1047 C1050 1.499 . S
C1048 H1028 0.950 . S
C1048 C1047 1.414 . S
C1048 C1049 1.374 . S
C1049 H1029 0.950 . S
C1049 C1045 1.385 . S
C1049 C1048 1.374 . S
C1050 C1047 1.499 . S
C1050 C1051 1.373 . S
C1050 C1052 1.389 . S
C1051 H1030 0.950 . S
C1051 C1050 1.373 . S
C1051 C1067 1.377 . S
C1052 C1050 1.389 . S
C1052 C1053 1.524 . S
C1052 C1066 1.377 . S
C1053 C1052 1.524 . S
C1053 C1054 1.397 . S
C1053 C1058 1.363 . S
C1054 H1031 0.950 . S
C1054 C1053 1.397 . S
C1054 C1055 1.334 . S
C1055 H1032 0.950 . S
C1055 C1054 1.334 . S
C1055 C1056 1.287 . S
C1056 C1055 1.287 . S
C1056 C1057 1.524 . S
C1056 H1075 0.913 . S
C1057 H1033 0.950 . S
C1057 C1056 1.524 . S
C1057 C1058 1.415 . S
C1058 H1034 0.950 . S
C1058 C1053 1.363 . S
C1058 C1057 1.415 . S
C1059 H1035 0.951 . S
C1059 C1060 1.366 . S
C1059 C1061 1.388 . S
C1060 C1059 1.366 . S
C1060 C1064 1.385 . S
C1061 H1036 0.951 . S
C1061 C1059 1.388 . S
C1061 C1062 1.366 . S
C1062 C1061 1.366 . S
C1062 C1063 1.414 . S
C1062 C1065 1.499 . S
C1063 H1037 0.950 . S
C1063 C1062 1.414 . S
C1063 C1064 1.374 . S
C1064 H1038 0.950 . S
C1064 C1060 1.385 . S
C1064 C1063 1.374 . S
C1065 C1062 1.499 . S
C1065 C1066 1.373 . S
C1065 C1067 1.389 . S
C1066 H1039 0.950 . S
C1066 C1052 1.377 . S
C1066 C1065 1.373 . S
C1067 C1051 1.377 . S
C1067 C1065 1.389 . S
C1067 C1068 1.524 . S
C1068 C1067 1.524 . S
C1068 C1069 1.397 . S
C1068 C1073 1.363 . S
C1069 H1040 0.950 . S
C1069 C1068 1.397 . S
C1069 C1070 1.334 . S
C1070 H1041 0.950 . S
C1070 C1069 1.334 . S
C1070 C1071 1.287 . S
C1071 C1070 1.287 . S
C1071 C1072 1.524 . S
C1071 H1074 0.999 . S
C1072 H1042 0.950 . S
C1072 C1071 1.524 . S
C1072 C1073 1.415 . S
C1073 H1043 0.950 . S
C1073 C1068 1.363 . S
C1073 C1072 1.415 . S
H1074 C1071 0.999 . S
H1075 C1056 0.913 . S
H1076 C1094 0.951 . S
H1077 C1096 0.951 . S
H1078 C1098 0.950 . S
H1079 C1099 0.950 . S
H1080 C1101 0.950 . S
H1081 C1104 0.950 . S
H1082 C1105 0.950 . S
H1083 C1107 0.950 . S
H1084 C1108 0.950 . S
H1085 C1109 0.951 . S
H1086 C1111 0.951 . S
H1087 C1113 0.950 . S
H1088 C1114 0.950 . S
H1089 C1116 0.950 . S
H1090 C1119 0.950 . S
H1091 C1120 0.950 . S
H1092 C1122 0.950 . S
H1093 C1123 0.950 . S
C1094 H1076 0.951 . S
C1094 C1095 1.366 . S
C1094 C1096 1.388 . S
C1095 C1094 1.366 . S
C1095 C1099 1.385 . S
C1096 H1077 0.951 . S
C1096 C1094 1.388 . S
C1096 C1097 1.366 . S
C1097 C1096 1.366 . S
C1097 C1098 1.414 . S
C1097 C1100 1.499 . S
C1098 H1078 0.950 . S
C1098 C1097 1.414 . S
C1098 C1099 1.374 . S
C1099 H1079 0.950 . S
C1099 C1095 1.385 . S
C1099 C1098 1.374 . S
C1100 C1097 1.499 . S
C1100 C1101 1.373 . S
C1100 C1102 1.389 . S
C1101 H1080 0.950 . S
C1101 C1100 1.373 . S
C1101 C1117 1.377 . S
C1102 C1100 1.389 . S
C1102 C1103 1.524 . S
C1102 C1116 1.377 . S
C1103 C1102 1.524 . S
C1103 C1104 1.397 . S
C1103 C1108 1.363 . S
C1104 H1081 0.950 . S
C1104 C1103 1.397 . S
C1104 C1105 1.334 . S
C1105 H1082 0.950 . S
C1105 C1104 1.334 . S
C1105 C1106 1.287 . S
C1106 C1105 1.287 . S
C1106 C1107 1.524 . S
C1106 H1125 0.913 . S
C1107 H1083 0.950 . S
C1107 C1106 1.524 . S
C1107 C1108 1.415 . S
C1108 H1084 0.950 . S
C1108 C1103 1.363 . S
C1108 C1107 1.415 . S
C1109 H1085 0.951 . S
C1109 C1110 1.366 . S
C1109 C1111 1.388 . S
C1110 C1109 1.366 . S
C1110 C1114 1.385 . S
C1111 H1086 0.951 . S
C1111 C1109 1.388 . S
C1111 C1112 1.366 . S
C1112 C1111 1.366 . S
C1112 C1113 1.414 . S
C1112 C1115 1.499 . S
C1113 H1087 0.950 . S
C1113 C1112 1.414 . S
C1113 C1114 1.374 . S
C1114 H1088 0.950 . S
C1114 C1110 1.385 . S
C1114 C1113 1.374 . S
C1115 C1112 1.499 . S
C1115 C1116 1.373 . S
C1115 C1117 1.389 . S
C1116 H1089 0.950 . S
C1116 C1102 1.377 . S
C1116 C1115 1.373 . S
C1117 C1101 1.377 . S
C1117 C1115 1.389 . S
C1117 C1118 1.524 . S
C1118 C1117 1.524 . S
C1118 C1119 1.397 . S
C1118 C1123 1.363 . S
C1119 H1090 0.950 . S
C1119 C1118 1.397 . S
C1119 C1120 1.334 . S
C1120 H1091 0.950 . S
C1120 C1119 1.334 . S
C1120 C1121 1.287 . S
C1121 C1120 1.287 . S
C1121 C1122 1.524 . S
C1121 H1124 0.999 . S
C1122 H1092 0.950 . S
C1122 C1121 1.524 . S
C1122 C1123 1.415 . S
C1123 H1093 0.950 . S
C1123 C1118 1.363 . S
C1123 C1122 1.415 . S
H1124 C1121 0.999 . S
H1125 C1106 0.913 . S
H1126 C1144 0.951 . S
H1127 C1146 0.951 . S
H1128 C1148 0.950 . S
H1129 C1149 0.950 . S
H1130 C1151 0.950 . S
H1131 C1154 0.950 . S
H1132 C1155 0.950 . S
H1133 C1157 0.950 . S
H1134 C1158 0.950 . S
H1135 C1159 0.951 . S
H1136 C1161 0.951 . S
H1137 C1163 0.950 . S
H1138 C1164 0.950 . S
H1139 C1166 0.950 . S
H1140 C1169 0.950 . S
H1141 C1170 0.950 . S
H1142 C1172 0.950 . S
H1143 C1173 0.950 . S
C1144 H1126 0.951 . S
C1144 C1145 1.366 . S
C1144 C1146 1.388 . S
C1145 C1144 1.366 . S
C1145 C1149 1.385 . S
C1146 H1127 0.951 . S
C1146 C1144 1.388 . S
C1146 C1147 1.366 . S
C1147 C1146 1.366 . S
C1147 C1148 1.414 . S
C1147 C1150 1.499 . S
C1148 H1128 0.950 . S
C1148 C1147 1.414 . S
C1148 C1149 1.374 . S
C1149 H1129 0.950 . S
C1149 C1145 1.385 . S
C1149 C1148 1.374 . S
C1150 C1147 1.499 . S
C1150 C1151 1.373 . S
C1150 C1152 1.389 . S
C1151 H1130 0.950 . S
C1151 C1150 1.373 . S
C1151 C1167 1.377 . S
C1152 C1150 1.389 . S
C1152 C1153 1.524 . S
C1152 C1166 1.377 . S
C1153 C1152 1.524 . S
C1153 C1154 1.397 . S
C1153 C1158 1.363 . S
C1154 H1131 0.950 . S
C1154 C1153 1.397 . S
C1154 C1155 1.334 . S
C1155 H1132 0.950 . S
C1155 C1154 1.334 . S
C1155 C1156 1.287 . S
C1156 C1155 1.287 . S
C1156 C1157 1.524 . S
C1156 H1175 0.913 . S
C1157 H1133 0.950 . S
C1157 C1156 1.524 . S
C1157 C1158 1.415 . S
C1158 H1134 0.950 . S
C1158 C1153 1.363 . S
C1158 C1157 1.415 . S
C1159 H1135 0.951 . S
C1159 C1160 1.366 . S
C1159 C1161 1.388 . S
C1160 C1159 1.366 . S
C1160 C1164 1.385 . S
C1161 H1136 0.951 . S
C1161 C1159 1.388 . S
C1161 C1162 1.366 . S
C1162 C1161 1.366 . S
C1162 C1163 1.414 . S
C1162 C1165 1.499 . S
C1163 H1137 0.950 . S
C1163 C1162 1.414 . S
C1163 C1164 1.374 . S
C1164 H1138 0.950 . S
C1164 C1160 1.385 . S
C1164 C1163 1.374 . S
C1165 C1162 1.499 . S
C1165 C1166 1.373 . S
C1165 C1167 1.389 . S
C1166 H1139 0.950 . S
C1166 C1152 1.377 . S
C1166 C1165 1.373 . S
C1167 C1151 1.377 . S
C1167 C1165 1.389 . S
C1167 C1168 1.524 . S
C1168 C1167 1.524 . S
C1168 C1169 1.397 . S
C1168 C1173 1.363 . S
C1169 H1140 0.950 . S
C1169 C1168 1.397 . S
C1169 C1170 1.334 . S
C1170 H1141 0.950 . S
C1170 C1169 1.334 . S
C1170 C1171 1.287 . S
C1171 C1170 1.287 . S
C1171 C1172 1.524 . S
C1171 H1174 0.999 . S
C1172 H1142 0.950 . S
C1172 C1171 1.524 . S
C1172 C1173 1.415 . S
C1173 H1143 0.950 . S
C1173 C1168 1.363 . S
C1173 C1172 1.415 . S
H1174 C1171 0.999 . S
H1175 C1156 0.913 . S
H1176 C1194 0.951 . S
H1177 C1196 0.951 . S
H1178 C1198 0.950 . S
H1179 C1199 0.950 . S
H1180 C1201 0.950 . S
H1181 C1204 0.950 . S
H1182 C1205 0.950 . S
H1183 C1207 0.950 . S
H1184 C1208 0.950 . S
H1185 C1209 0.951 . S
H1186 C1211 0.951 . S
H1187 C1213 0.950 . S
H1188 C1214 0.950 . S
H1189 C1216 0.950 . S
H1190 C1219 0.950 . S
H1191 C1220 0.950 . S
H1192 C1222 0.950 . S
H1193 C1223 0.950 . S
C1194 H1176 0.951 . S
C1194 C1195 1.366 . S
C1194 C1196 1.388 . S
C1195 C1194 1.366 . S
C1195 C1199 1.385 . S
C1196 H1177 0.951 . S
C1196 C1194 1.388 . S
C1196 C1197 1.366 . S
C1197 C1196 1.366 . S
C1197 C1198 1.414 . S
C1197 C1200 1.499 . S
C1198 H1178 0.950 . S
C1198 C1197 1.414 . S
C1198 C1199 1.374 . S
C1199 H1179 0.950 . S
C1199 C1195 1.385 . S
C1199 C1198 1.374 . S
C1200 C1197 1.499 . S
C1200 C1201 1.373 . S
C1200 C1202 1.389 . S
C1201 H1180 0.950 . S
C1201 C1200 1.373 . S
C1201 C1217 1.377 . S
C1202 C1200 1.389 . S
C1202 C1203 1.524 . S
C1202 C1216 1.377 . S
C1203 C1202 1.524 . S
C1203 C1204 1.397 . S
C1203 C1208 1.363 . S
C1204 H1181 0.950 . S
C1204 C1203 1.397 . S
C1204 C1205 1.334 . S
C1205 H1182 0.950 . S
C1205 C1204 1.334 . S
C1205 C1206 1.287 . S
C1206 C1205 1.287 . S
C1206 C1207 1.524 . S
C1206 H1225 0.913 . S
C1207 H1183 0.950 . S
C1207 C1206 1.524 . S
C1207 C1208 1.415 . S
C1208 H1184 0.950 . S
C1208 C1203 1.363 . S
C1208 C1207 1.415 . S
C1209 H1185 0.951 . S
C1209 C1210 1.366 . S
C1209 C1211 1.388 . S
C1210 C1209 1.366 . S
C1210 C1214 1.385 . S
C1211 H1186 0.951 . S
C1211 C1209 1.388 . S
C1211 C1212 1.366 . S
C1212 C1211 1.366 . S
C1212 C1213 1.414 . S
C1212 C1215 1.499 . S
C1213 H1187 0.950 . S
C1213 C1212 1.414 . S
C1213 C1214 1.374 . S
C1214 H1188 0.950 . S
C1214 C1210 1.385 . S
C1214 C1213 1.374 . S
C1215 C1212 1.499 . S
C1215 C1216 1.373 . S
C1215 C1217 1.389 . S
C1216 H1189 0.950 . S
C1216 C1202 1.377 . S
C1216 C1215 1.373 . S
C1217 C1201 1.377 . S
C1217 C1215 1.389 . S
C1217 C1218 1.524 . S
C1218 C1217 1.524 . S
C1218 C1219 1.397 . S
C1218 C1223 1.363 . S
C1219 H1190 0.950 . S
C1219 C1218 1.397 . S
C1219 C1220 1.334 . S
C1220 H1191 0.950 . S
C1220 C1219 1.334 . S
C1220 C1221 1.287 . S
C1221 C1220 1.287 . S
C1221 C1222 1.524 . S
C1221 H1224 0.999 . S
C1222 H1192 0.950 . S
C1222 C1221 1.524 . S
C1222 C1223 1.415 . S
C1223 H1193 0.950 . S
C1223 C1218 1.363 . S
C1223 C1222 1.415 . S
H1224 C1221 0.999 . S
H1225 C1206 0.913 . S
H1226 C1244 0.951 . S
H1227 C1246 0.951 . S
H1228 C1248 0.950 . S
H1229 C1249 0.950 . S
H1230 C1251 0.950 . S
H1231 C1254 0.950 . S
H1232 C1255 0.950 . S
H1233 C1257 0.950 . S
H1234 C1258 0.950 . S
H1235 C1259 0.951 . S
H1236 C1261 0.951 . S
H1237 C1263 0.950 . S
H1238 C1264 0.950 . S
H1239 C1266 0.950 . S
H1240 C1269 0.950 . S
H1241 C1270 0.950 . S
H1242 C1272 0.950 . S
H1243 C1273 0.950 . S
C1244 H1226 0.951 . S
C1244 C1245 1.366 . S
C1244 C1246 1.388 . S
C1245 C1244 1.366 . S
C1245 C1249 1.385 . S
C1246 H1227 0.951 . S
C1246 C1244 1.388 . S
C1246 C1247 1.366 . S
C1247 C1246 1.366 . S
C1247 C1248 1.414 . S
C1247 C1250 1.499 . S
C1248 H1228 0.950 . S
C1248 C1247 1.414 . S
C1248 C1249 1.374 . S
C1249 H1229 0.950 . S
C1249 C1245 1.385 . S
C1249 C1248 1.374 . S
C1250 C1247 1.499 . S
C1250 C1251 1.373 . S
C1250 C1252 1.389 . S
C1251 H1230 0.950 . S
C1251 C1250 1.373 . S
C1251 C1267 1.377 . S
C1252 C1250 1.389 . S
C1252 C1253 1.524 . S
C1252 C1266 1.377 . S
C1253 C1252 1.524 . S
C1253 C1254 1.397 . S
C1253 C1258 1.363 . S
C1254 H1231 0.950 . S
C1254 C1253 1.397 . S
C1254 C1255 1.334 . S
C1255 H1232 0.950 . S
C1255 C1254 1.334 . S
C1255 C1256 1.287 . S
C1256 C1255 1.287 . S
C1256 C1257 1.524 . S
C1256 H1275 0.913 . S
C1257 H1233 0.950 . S
C1257 C1256 1.524 . S
C1257 C1258 1.415 . S
C1258 H1234 0.950 . S
C1258 C1253 1.363 . S
C1258 C1257 1.415 . S
C1259 H1235 0.951 . S
C1259 C1260 1.366 . S
C1259 C1261 1.388 . S
C1260 C1259 1.366 . S
C1260 C1264 1.385 . S
C1261 H1236 0.951 . S
C1261 C1259 1.388 . S
C1261 C1262 1.366 . S
C1262 C1261 1.366 . S
C1262 C1263 1.414 . S
C1262 C1265 1.499 . S
C1263 H1237 0.950 . S
C1263 C1262 1.414 . S
C1263 C1264 1.374 . S
C1264 H1238 0.950 . S
C1264 C1260 1.385 . S
C1264 C1263 1.374 . S
C1265 C1262 1.499 . S
C1265 C1266 1.373 . S
C1265 C1267 1.389 . S
C1266 H1239 0.950 . S
C1266 C1252 1.377 . S
C1266 C1265 1.373 . S
C1267 C1251 1.377 . S
C1267 C1265 1.389 . S
C1267 C1268 1.524 . S
C1268 C1267 1.524 . S
C1268 C1269 1.397 . S
C1268 C1273 1.363 . S
C1269 H1240 0.950 . S
C1269 C1268 1.397 . S
C1269 C1270 1.334 . S
C1270 H1241 0.950 . S
C1270 C1269 1.334 . S
C1270 C1271 1.287 . S
C1271 C1270 1.287 . S
C1271 C1272 1.524 . S
C1271 H1274 0.999 . S
C1272 H1242 0.950 . S
C1272 C1271 1.524 . S
C1272 C1273 1.415 . S
C1273 H1243 0.950 . S
C1273 C1268 1.363 . S
C1273 C1272 1.415 . S
H1274 C1271 0.999 . S
H1275 C1256 0.913 . S
H1276 C1294 0.951 . S
H1277 C1296 0.951 . S
H1278 C1298 0.950 . S
H1279 C1299 0.950 . S
H1280 C1301 0.950 . S
H1281 C1304 0.950 . S
H1282 C1305 0.950 . S
H1283 C1307 0.950 . S
H1284 C1308 0.950 . S
H1285 C1309 0.951 . S
H1286 C1311 0.951 . S
H1287 C1313 0.950 . S
H1288 C1314 0.950 . S
H1289 C1316 0.950 . S
H1290 C1319 0.950 . S
H1291 C1320 0.950 . S
H1292 C1322 0.950 . S
H1293 C1323 0.950 . S
C1294 H1276 0.951 . S
C1294 C1295 1.366 . S
C1294 C1296 1.388 . S
C1295 C1294 1.366 . S
C1295 C1299 1.385 . S
C1296 H1277 0.951 . S
C1296 C1294 1.388 . S
C1296 C1297 1.366 . S
C1297 C1296 1.366 . S
C1297 C1298 1.414 . S
C1297 C1300 1.499 . S
C1298 H1278 0.950 . S
C1298 C1297 1.414 . S
C1298 C1299 1.374 . S
C1299 H1279 0.950 . S
C1299 C1295 1.385 . S
C1299 C1298 1.374 . S
C1300 C1297 1.499 . S
C1300 C1301 1.373 . S
C1300 C1302 1.389 . S
C1301 H1280 0.950 . S
C1301 C1300 1.373 . S
C1301 C1317 1.377 . S
C1302 C1300 1.389 . S
C1302 C1303 1.524 . S
C1302 C1316 1.377 . S
C1303 C1302 1.524 . S
C1303 C1304 1.397 . S
C1303 C1308 1.363 . S
C1304 H1281 0.950 . S
C1304 C1303 1.397 . S
C1304 C1305 1.334 . S
C1305 H1282 0.950 . S
C1305 C1304 1.334 . S
C1305 C1306 1.287 . S
C1306 C1305 1.287 . S
C1306 C1307 1.524 . S
C1306 H1325 0.913 . S
C1307 H1283 0.950 . S
C1307 C1306 1.524 . S
C1307 C1308 1.415 . S
C1308 H1284 0.950 . S
C1308 C1303 1.363 . S
C1308 C1307 1.415 . S
C1309 H1285 0.951 . S
C1309 C1310 1.366 . S
C1309 C1311 1.388 . S
C1310 C1309 1.366 . S
C1310 C1314 1.385 . S
C1311 H1286 0.951 . S
C1311 C1309 1.388 . S
C1311 C1312 1.366 . S
C1312 C1311 1.366 . S
C1312 C1313 1.414 . S
C1312 C1315 1.499 . S
C1313 H1287 0.950 . S
C1313 C1312 1.414 . S
C1313 C1314 1.374 . S
C1314 H1288 0.950 . S
C1314 C1310 1.385 . S
C1314 C1313 1.374 . S
C1315 C1312 1.499 . S
C1315 C1316 1.373 . S
C1315 C1317 1.389 . S
C1316 H1289 0.950 . S
C1316 C1302 1.377 . S
C1316 C1315 1.373 . S
C1317 C1301 1.377 . S
C1317 C1315 1.389 . S
C1317 C1318 1.524 . S
C1318 C1317 1.524 . S
C1318 C1319 1.397 . S
C1318 C1323 1.363 . S
C1319 H1290 0.950 . S
C1319 C1318 1.397 . S
C1319 C1320 1.334 . S
C1320 H1291 0.950 . S
C1320 C1319 1.334 . S
C1320 C1321 1.287 . S
C1321 C1320 1.287 . S
C1321 C1322 1.524 . S
C1321 H1324 0.999 . S
C1322 H1292 0.950 . S
C1322 C1321 1.524 . S
C1322 C1323 1.415 . S
C1323 H1293 0.950 . S
C1323 C1318 1.363 . S
C1323 C1322 1.415 . S
H1324 C1321 0.999 . S
H1325 C1306 0.913 . S
H1326 C1344 0.951 . S
H1327 C1346 0.951 . S
H1328 C1348 0.950 . S
H1329 C1349 0.950 . S
H1330 C1351 0.950 . S
H1331 C1354 0.950 . S
H1332 C1355 0.950 . S
H1333 C1357 0.950 . S
H1334 C1358 0.950 . S
H1335 C1359 0.951 . S
H1336 C1361 0.951 . S
H1337 C1363 0.950 . S
H1338 C1364 0.950 . S
H1339 C1366 0.950 . S
H1340 C1369 0.950 . S
H1341 C1370 0.950 . S
H1342 C1372 0.950 . S
H1343 C1373 0.950 . S
C1344 H1326 0.951 . S
C1344 C1345 1.366 . S
C1344 C1346 1.388 . S
C1345 C1344 1.366 . S
C1345 C1349 1.385 . S
C1346 H1327 0.951 . S
C1346 C1344 1.388 . S
C1346 C1347 1.366 . S
C1347 C1346 1.366 . S
C1347 C1348 1.414 . S
C1347 C1350 1.499 . S
C1348 H1328 0.950 . S
C1348 C1347 1.414 . S
C1348 C1349 1.374 . S
C1349 H1329 0.950 . S
C1349 C1345 1.385 . S
C1349 C1348 1.374 . S
C1350 C1347 1.499 . S
C1350 C1351 1.373 . S
C1350 C1352 1.389 . S
C1351 H1330 0.950 . S
C1351 C1350 1.373 . S
C1351 C1367 1.377 . S
C1352 C1350 1.389 . S
C1352 C1353 1.524 . S
C1352 C1366 1.377 . S
C1353 C1352 1.524 . S
C1353 C1354 1.397 . S
C1353 C1358 1.363 . S
C1354 H1331 0.950 . S
C1354 C1353 1.397 . S
C1354 C1355 1.334 . S
C1355 H1332 0.950 . S
C1355 C1354 1.334 . S
C1355 C1356 1.287 . S
C1356 C1355 1.287 . S
C1356 C1357 1.524 . S
C1356 H1375 0.913 . S
C1357 H1333 0.950 . S
C1357 C1356 1.524 . S
C1357 C1358 1.415 . S
C1358 H1334 0.950 . S
C1358 C1353 1.363 . S
C1358 C1357 1.415 . S
C1359 H1335 0.951 . S
C1359 C1360 1.366 . S
C1359 C1361 1.388 . S
C1360 C1359 1.366 . S
C1360 C1364 1.385 . S
C1361 H1336 0.951 . S
C1361 C1359 1.388 . S
C1361 C1362 1.366 . S
C1362 C1361 1.366 . S
C1362 C1363 1.414 . S
C1362 C1365 1.499 . S
C1363 H1337 0.950 . S
C1363 C1362 1.414 . S
C1363 C1364 1.374 . S
C1364 H1338 0.950 . S
C1364 C1360 1.385 . S
C1364 C1363 1.374 . S
C1365 C1362 1.499 . S
C1365 C1366 1.373 . S
C1365 C1367 1.389 . S
C1366 H1339 0.950 . S
C1366 C1352 1.377 . S
C1366 C1365 1.373 . S
C1367 C1351 1.377 . S
C1367 C1365 1.389 . S
C1367 C1368 1.524 . S
C1368 C1367 1.524 . S
C1368 C1369 1.397 . S
C1368 C1373 1.363 . S
C1369 H1340 0.950 . S
C1369 C1368 1.397 . S
C1369 C1370 1.334 . S
C1370 H1341 0.950 . S
C1370 C1369 1.334 . S
C1370 C1371 1.287 . S
C1371 C1370 1.287 . S
C1371 C1372 1.524 . S
C1371 H1374 0.999 . S
C1372 H1342 0.950 . S
C1372 C1371 1.524 . S
C1372 C1373 1.415 . S
C1373 H1343 0.950 . S
C1373 C1368 1.363 . S
C1373 C1372 1.415 . S
H1374 C1371 0.999 . S
H1375 C1356 0.913 . S
H1376 C1394 0.951 . S
H1377 C1396 0.951 . S
H1378 C1398 0.950 1_565 S
H1379 C1399 0.950 1_565 S
H1380 C1401 0.978 . S
H1381 C1404 0.950 . S
H1382 C1405 0.950 . S
H1383 C1407 0.950 . S
H1384 C1408 0.950 . S
H1385 C1409 0.951 . S
H1386 C1411 0.951 1_655 S
H1387 C1413 0.950 . S
H1388 C1414 0.950 . S
H1389 C1416 0.950 . S
H1390 C1419 0.950 . S
H1391 C1420 0.950 1_545 S
H1392 C1422 0.950 . S
H1393 C1423 0.950 . S
C1394 H1376 0.951 . S
C1394 C1395 1.366 . S
C1394 C1396 1.388 . S
C1395 C1394 1.366 . S
C1395 C1399 1.385 . S
C1396 H1377 0.951 . S
C1396 C1394 1.388 . S
C1396 C1397 1.366 . S
C1397 C1396 1.366 . S
C1397 C1398 1.414 . S
C1397 C1400 1.499 . S
C1398 H1378 0.950 1_545 S
C1398 C1397 1.414 . S
C1398 C1399 1.374 . S
C1399 H1379 0.950 1_545 S
C1399 C1395 1.385 . S
C1399 C1398 1.374 . S
C1400 C1397 1.499 . S
C1400 C1401 1.373 . S
C1400 C1402 1.389 . S
C1401 H1380 0.978 . S
C1401 C1400 1.373 . S
C1401 C1417 1.377 . S
C1402 C1400 1.389 . S
C1402 C1403 1.524 . S
C1402 C1416 1.377 . S
C1403 C1402 1.524 . S
C1403 C1404 1.397 . S
C1403 C1408 1.363 . S
C1404 H1381 0.950 . S
C1404 C1403 1.397 . S
C1404 C1405 1.334 . S
C1405 H1382 0.950 . S
C1405 C1404 1.334 . S
C1405 C1406 1.287 . S
C1406 C1405 1.287 . S
C1406 C1407 1.524 . S
C1406 H1425 0.913 . S
C1407 H1383 0.950 . S
C1407 C1406 1.524 . S
C1407 C1408 1.415 . S
C1408 H1384 0.950 . S
C1408 C1403 1.363 . S
C1408 C1407 1.415 . S
C1409 H1385 0.951 . S
C1409 C1410 1.366 . S
C1409 C1411 1.388 . S
C1410 C1409 1.366 . S
C1410 C1414 1.385 . S
C1411 H1386 0.951 1_455 S
C1411 C1409 1.388 . S
C1411 C1412 1.366 . S
C1412 C1411 1.366 . S
C1412 C1413 1.414 . S
C1412 C1415 1.499 1_455 S
C1413 H1387 0.950 . S
C1413 C1412 1.414 . S
C1413 C1414 1.374 . S
C1414 H1388 0.950 . S
C1414 C1410 1.385 . S
C1414 C1413 1.374 . S
C1415 C1412 1.499 1_655 S
C1415 C1416 1.373 . S
C1415 C1417 1.389 . S
C1416 H1389 0.950 . S
C1416 C1402 1.377 . S
C1416 C1415 1.373 . S
C1417 C1401 1.377 . S
C1417 C1415 1.389 . S
C1417 C1418 1.534 1_655 S
C1418 C1417 1.534 1_455 S
C1418 C1419 1.398 . S
C1418 C1423 1.353 1_445 S
C1419 H1390 0.950 . S
C1419 C1418 1.398 . S
C1419 C1420 1.334 1_545 S
C1420 H1391 0.950 1_565 S
C1420 C1419 1.334 1_565 S
C1420 C1421 1.287 . S
C1421 C1420 1.287 . S
C1421 C1422 1.524 . S
C1421 H1424 0.999 . S
C1422 H1392 0.950 . S
C1422 C1421 1.524 . S
C1422 C1423 1.415 1_455 S
C1423 H1393 0.950 . S
C1423 C1418 1.353 1_665 S
C1423 C1422 1.415 1_655 S
H1424 C1421 0.999 . S
H1425 C1406 0.913 . S
H1426 C1444 0.951 . S
H1427 C1446 0.951 . S
H1428 C1448 0.950 . S
H1429 C1449 0.950 . S
H1430 C1451 0.950 . S
H1431 C1454 0.950 . S
H1432 C1455 0.950 . S
H1433 C1457 0.950 . S
H1434 C1458 0.950 . S
H1435 C1459 0.951 . S
H1436 C1461 0.951 . S
H1437 C1463 0.950 . S
H1438 C1464 0.950 . S
H1439 C1466 0.950 . S
H1440 C1469 0.950 . S
H1441 C1470 0.950 . S
H1442 C1472 0.950 . S
H1443 C1473 0.950 . S
C1444 H1426 0.951 . S
C1444 C1445 1.366 . S
C1444 C1446 1.388 . S
C1445 C1444 1.366 . S
C1445 C1449 1.385 . S
C1446 H1427 0.951 . S
C1446 C1444 1.388 . S
C1446 C1447 1.366 . S
C1447 C1446 1.366 . S
C1447 C1448 1.414 . S
C1447 C1450 1.499 . S
C1448 H1428 0.950 . S
C1448 C1447 1.414 . S
C1448 C1449 1.374 . S
C1449 H1429 0.950 . S
C1449 C1445 1.385 . S
C1449 C1448 1.374 . S
C1450 C1447 1.499 . S
C1450 C1451 1.373 . S
C1450 C1452 1.389 . S
C1451 H1430 0.950 . S
C1451 C1450 1.373 . S
C1451 C1467 1.377 . S
C1452 C1450 1.389 . S
C1452 C1453 1.524 . S
C1452 C1466 1.377 . S
C1453 C1452 1.524 . S
C1453 C1454 1.397 . S
C1453 C1458 1.363 . S
C1454 H1431 0.950 . S
C1454 C1453 1.397 . S
C1454 C1455 1.334 . S
C1455 H1432 0.950 . S
C1455 C1454 1.334 . S
C1455 C1456 1.287 . S
C1456 C1455 1.287 . S
C1456 C1457 1.524 . S
C1456 H1475 0.913 . S
C1457 H1433 0.950 . S
C1457 C1456 1.524 . S
C1457 C1458 1.415 . S
C1458 H1434 0.950 . S
C1458 C1453 1.363 . S
C1458 C1457 1.415 . S
C1459 H1435 0.951 . S
C1459 C1460 1.366 . S
C1459 C1461 1.388 . S
C1460 C1459 1.366 . S
C1460 C1464 1.385 . S
C1461 H1436 0.951 . S
C1461 C1459 1.388 . S
C1461 C1462 1.366 . S
C1462 C1461 1.366 . S
C1462 C1463 1.414 . S
C1462 C1465 1.499 . S
C1463 H1437 0.950 . S
C1463 C1462 1.414 . S
C1463 C1464 1.374 . S
C1464 H1438 0.950 . S
C1464 C1460 1.385 . S
C1464 C1463 1.374 . S
C1465 C1462 1.499 . S
C1465 C1466 1.373 . S
C1465 C1467 1.389 . S
C1466 H1439 0.950 . S
C1466 C1452 1.377 . S
C1466 C1465 1.373 . S
C1467 C1451 1.377 . S
C1467 C1465 1.389 . S
C1467 C1468 1.524 . S
C1468 C1467 1.524 . S
C1468 C1469 1.397 . S
C1468 C1473 1.363 . S
C1469 H1440 0.950 . S
C1469 C1468 1.397 . S
C1469 C1470 1.334 . S
C1470 H1441 0.950 . S
C1470 C1469 1.334 . S
C1470 C1471 1.287 . S
C1471 C1470 1.287 . S
C1471 C1472 1.524 . S
C1471 H1474 0.999 . S
C1472 H1442 0.950 . S
C1472 C1471 1.524 . S
C1472 C1473 1.415 . S
C1473 H1443 0.950 . S
C1473 C1468 1.363 . S
C1473 C1472 1.415 . S
H1474 C1471 0.999 . S
H1475 C1456 0.913 . S
H1476 C1494 0.951 . S
H1477 C1496 0.951 . S
H1478 C1498 0.950 . S
H1479 C1499 0.950 . S
H1480 C1501 0.950 . S
H1481 C1504 0.950 . S
H1482 C1505 0.950 . S
H1483 C1507 0.950 . S
H1484 C1508 0.950 . S
H1485 C1509 0.951 . S
H1486 C1511 0.951 . S
H1487 C1513 0.950 . S
H1488 C1514 0.950 . S
H1489 C1516 0.950 . S
H1490 C1519 0.950 . S
H1491 C1520 0.950 . S
H1492 C1522 0.950 . S
H1493 C1523 0.950 . S
C1494 H1476 0.951 . S
C1494 C1495 1.366 1_565 S
C1494 C1496 1.388 . S
C1495 C1494 1.366 1_545 S
C1495 C1499 1.385 . S
C1496 H1477 0.951 . S
C1496 C1494 1.388 . S
C1496 C1497 1.366 1_565 S
C1497 C1496 1.366 1_545 S
C1497 C1498 1.414 . S
C1497 C1500 1.499 . S
C1498 H1478 0.950 . S
C1498 C1497 1.414 . S
C1498 C1499 1.374 . S
C1499 H1479 0.950 . S
C1499 C1495 1.385 . S
C1499 C1498 1.374 . S
C1500 C1497 1.499 . S
C1500 C1501 1.373 . S
C1500 C1502 1.389 1_545 S
C1501 H1480 0.950 . S
C1501 C1500 1.373 . S
C1501 C1517 1.377 . S
C1502 C1500 1.389 1_565 S
C1502 C1503 1.524 . S
C1502 C1516 1.377 . S
C1503 C1502 1.524 . S
C1503 C1504 1.397 . S
C1503 C1508 1.363 . S
C1504 H1481 0.950 . S
C1504 C1503 1.397 . S
C1504 C1505 1.334 . S
C1505 H1482 0.950 . S
C1505 C1504 1.334 . S
C1505 C1506 1.287 . S
C1506 C1505 1.287 . S
C1506 C1507 1.524 . S
C1506 H1525 0.913 . S
C1507 H1483 0.950 . S
C1507 C1506 1.524 . S
C1507 C1508 1.415 . S
C1508 H1484 0.950 . S
C1508 C1503 1.363 . S
C1508 C1507 1.415 . S
C1509 H1485 0.951 . S
C1509 C1510 1.366 . S
C1509 C1511 1.388 . S
C1510 C1509 1.366 . S
C1510 C1514 1.385 1_545 S
C1511 H1486 0.951 . S
C1511 C1509 1.388 . S
C1511 C1512 1.366 . S
C1512 C1511 1.366 . S
C1512 C1513 1.414 1_545 S
C1512 C1515 1.499 . S
C1513 H1487 0.950 . S
C1513 C1512 1.414 1_565 S
C1513 C1514 1.374 . S
C1514 H1488 0.950 . S
C1514 C1510 1.385 1_565 S
C1514 C1513 1.374 . S
C1515 C1512 1.499 . S
C1515 C1516 1.373 1_545 S
C1515 C1517 1.389 . S
C1516 H1489 0.950 . S
C1516 C1502 1.377 . S
C1516 C1515 1.373 1_565 S
C1517 C1501 1.377 . S
C1517 C1515 1.389 . S
C1517 C1518 1.524 . S
C1518 C1517 1.524 . S
C1518 C1519 1.397 . S
C1518 C1523 1.363 . S
C1519 H1490 0.950 . S
C1519 C1518 1.397 . S
C1519 C1520 1.334 . S
C1520 H1491 0.950 . S
C1520 C1519 1.334 . S
C1520 C1521 1.287 . S
C1521 C1520 1.287 . S
C1521 C1522 1.524 . S
C1521 H1524 0.999 . S
C1522 H1492 0.950 . S
C1522 C1521 1.524 . S
C1522 C1523 1.415 . S
C1523 H1493 0.950 . S
C1523 C1518 1.363 . S
C1523 C1522 1.415 . S
H1524 C1521 0.999 . S
H1525 C1506 0.913 . S
H1526 C1544 0.951 . S
H1527 C1546 0.951 . S
H1528 C1548 0.950 . S
H1529 C1549 0.950 . S
H1530 C1551 0.950 . S
H1531 C1554 0.950 . S
H1532 C1555 0.950 . S
H1533 C1557 0.950 . S
H1534 C1558 0.950 . S
H1535 C1559 0.951 . S
H1536 C1561 0.951 . S
H1537 C1563 0.950 . S
H1538 C1564 0.950 . S
H1539 C1566 0.950 . S
H1540 C1569 0.950 . S
H1541 C1570 0.950 . S
H1542 C1572 0.950 . S
H1543 C1573 0.950 . S
C1544 H1526 0.951 . S
C1544 C1545 1.366 . S
C1544 C1546 1.388 . S
C1545 C1544 1.366 . S
C1545 C1549 1.385 . S
C1546 H1527 0.951 . S
C1546 C1544 1.388 . S
C1546 C1547 1.366 . S
C1547 C1546 1.366 . S
C1547 C1548 1.414 . S
C1547 C1550 1.499 . S
C1548 H1528 0.950 . S
C1548 C1547 1.414 . S
C1548 C1549 1.374 . S
C1549 H1529 0.950 . S
C1549 C1545 1.385 . S
C1549 C1548 1.374 . S
C1550 C1547 1.499 . S
C1550 C1551 1.373 . S
C1550 C1552 1.389 . S
C1551 H1530 0.950 . S
C1551 C1550 1.373 . S
C1551 C1567 1.377 . S
C1552 C1550 1.389 . S
C1552 C1553 1.524 . S
C1552 C1566 1.377 . S
C1553 C1552 1.524 . S
C1553 C1554 1.397 . S
C1553 C1558 1.363 . S
C1554 H1531 0.950 . S
C1554 C1553 1.397 . S
C1554 C1555 1.334 . S
C1555 H1532 0.950 . S
C1555 C1554 1.334 . S
C1555 C1556 1.287 . S
C1556 C1555 1.287 . S
C1556 C1557 1.524 . S
C1556 H1575 0.913 . S
C1557 H1533 0.950 . S
C1557 C1556 1.524 . S
C1557 C1558 1.415 . S
C1558 H1534 0.950 . S
C1558 C1553 1.363 . S
C1558 C1557 1.415 . S
C1559 H1535 0.951 . S
C1559 C1560 1.366 . S
C1559 C1561 1.388 . S
C1560 C1559 1.366 . S
C1560 C1564 1.385 . S
C1561 H1536 0.951 . S
C1561 C1559 1.388 . S
C1561 C1562 1.366 . S
C1562 C1561 1.366 . S
C1562 C1563 1.414 . S
C1562 C1565 1.499 . S
C1563 H1537 0.950 . S
C1563 C1562 1.414 . S
C1563 C1564 1.374 . S
C1564 H1538 0.950 . S
C1564 C1560 1.385 . S
C1564 C1563 1.374 . S
C1565 C1562 1.499 . S
C1565 C1566 1.373 . S
C1565 C1567 1.389 . S
C1566 H1539 0.950 . S
C1566 C1552 1.377 . S
C1566 C1565 1.373 . S
C1567 C1551 1.377 . S
C1567 C1565 1.389 . S
C1567 C1568 1.524 . S
C1568 C1567 1.524 . S
C1568 C1569 1.397 . S
C1568 C1573 1.363 . S
C1569 H1540 0.950 . S
C1569 C1568 1.397 . S
C1569 C1570 1.334 . S
C1570 H1541 0.950 . S
C1570 C1569 1.334 . S
C1570 C1571 1.287 . S
C1571 C1570 1.287 . S
C1571 C1572 1.524 . S
C1571 H1574 0.999 . S
C1572 H1542 0.950 . S
C1572 C1571 1.524 . S
C1572 C1573 1.415 . S
C1573 H1543 0.950 . S
C1573 C1568 1.363 . S
C1573 C1572 1.415 . S
H1574 C1571 0.999 . S
H1575 C1556 0.913 . S
H1576 C1594 0.951 . S
H1577 C1596 0.951 . S
H1578 C1598 0.950 . S
H1579 C1599 0.950 . S
H1580 C1601 0.950 . S
H1581 C1604 0.950 . S
H1582 C1605 0.950 . S
H1583 C1607 0.943 . S
H1584 C1608 0.950 1_445 S
H1585 C1609 0.951 . S
H1586 C1611 0.951 . S
H1587 C1613 0.950 . S
H1588 C1614 0.950 . S
H1589 C1616 0.950 1_565 S
H1590 C1619 0.950 . S
H1591 C1620 0.950 . S
H1592 C1622 0.950 . S
H1593 C1623 0.950 . S
C1594 H1576 0.951 . S
C1594 C1595 1.366 . S
C1594 C1596 1.388 . S
C1595 C1594 1.366 . S
C1595 C1599 1.385 . S
C1596 H1577 0.951 . S
C1596 C1594 1.388 . S
C1596 C1597 1.366 . S
C1597 C1596 1.366 . S
C1597 C1598 1.414 . S
C1597 C1600 1.499 . S
C1598 H1578 0.950 . S
C1598 C1597 1.414 . S
C1598 C1599 1.374 . S
C1599 H1579 0.950 . S
C1599 C1595 1.385 . S
C1599 C1598 1.374 . S
C1600 C1597 1.499 . S
C1600 C1601 1.373 . S
C1600 C1602 1.389 . S
C1601 H1580 0.950 . S
C1601 C1600 1.373 . S
C1601 C1617 1.377 . S
C1602 C1600 1.389 . S
C1602 C1603 1.524 1_545 S
C1602 C1616 1.377 . S
C1603 C1602 1.524 1_565 S
C1603 C1604 1.397 . S
C1603 C1608 1.363 . S
C1604 H1581 0.950 . S
C1604 C1603 1.397 . S
C1604 C1605 1.334 . S
C1605 H1582 0.950 . S
C1605 C1604 1.334 . S
C1605 C1606 1.287 . S
C1606 C1605 1.287 . S
C1606 C1607 1.529 1_655 S
C1606 H1625 0.913 . S
C1607 H1583 0.943 . S
C1607 C1606 1.529 1_455 S
C1607 C1608 1.418 1_455 S
C1608 H1584 0.950 1_665 S
C1608 C1603 1.363 . S
C1608 C1607 1.418 1_655 S
C1609 H1585 0.951 . S
C1609 C1610 1.366 1_655 S
C1609 C1611 1.388 . S
C1610 C1609 1.366 1_455 S
C1610 C1614 1.385 . S
C1611 H1586 0.951 . S
C1611 C1609 1.388 . S
C1611 C1612 1.366 . S
C1612 C1611 1.366 . S
C1612 C1613 1.414 1_655 S
C1612 C1615 1.499 . S
C1613 H1587 0.950 . S
C1613 C1612 1.414 1_455 S
C1613 C1614 1.374 . S
C1614 H1588 0.950 . S
C1614 C1610 1.385 . S
C1614 C1613 1.374 . S
C1615 C1612 1.499 . S
C1615 C1616 1.373 . S
C1615 C1617 1.389 . S
C1616 H1589 0.950 1_545 S
C1616 C1602 1.377 . S
C1616 C1615 1.373 . S
C1617 C1601 1.377 . S
C1617 C1615 1.389 . S
C1617 C1618 1.524 . S
C1618 C1617 1.524 . S
C1618 C1619 1.397 . S
C1618 C1623 1.363 . S
C1619 H1590 0.950 . S
C1619 C1618 1.397 . S
C1619 C1620 1.334 . S
C1620 H1591 0.950 . S
C1620 C1619 1.334 . S
C1620 C1621 1.287 . S
C1621 C1620 1.287 . S
C1621 C1622 1.524 . S
C1621 H1624 0.999 . S
C1622 H1592 0.950 . S
C1622 C1621 1.524 . S
C1622 C1623 1.415 . S
C1623 H1593 0.950 . S
C1623 C1618 1.363 . S
C1623 C1622 1.415 . S
H1624 C1621 0.999 . S
H1625 C1606 0.913 . S
H1626 C1644 0.951 . S
H1627 C1646 0.951 . S
H1628 C1648 0.950 . S
H1629 C1649 0.950 . S
H1630 C1651 0.950 . S
H1631 C1654 0.950 . S
H1632 C1655 0.950 . S
H1633 C1657 0.950 . S
H1634 C1658 0.950 . S
H1635 C1659 0.951 . S
H1636 C1661 0.951 . S
H1637 C1663 0.950 . S
H1638 C1664 0.950 . S
H1639 C1666 0.950 . S
H1640 C1669 0.950 . S
H1641 C1670 0.950 . S
H1642 C1672 0.950 . S
H1643 C1673 0.950 . S
C1644 H1626 0.951 . S
C1644 C1645 1.366 . S
C1644 C1646 1.388 . S
C1645 C1644 1.366 . S
C1645 C1649 1.385 . S
C1646 H1627 0.951 . S
C1646 C1644 1.388 . S
C1646 C1647 1.366 . S
C1647 C1646 1.366 . S
C1647 C1648 1.414 . S
C1647 C1650 1.499 . S
C1648 H1628 0.950 . S
C1648 C1647 1.414 . S
C1648 C1649 1.374 . S
C1649 H1629 0.950 . S
C1649 C1645 1.385 . S
C1649 C1648 1.374 . S
C1650 C1647 1.499 . S
C1650 C1651 1.373 . S
C1650 C1652 1.389 . S
C1651 H1630 0.950 . S
C1651 C1650 1.373 . S
C1651 C1667 1.377 . S
C1652 C1650 1.389 . S
C1652 C1653 1.524 . S
C1652 C1666 1.377 . S
C1653 C1652 1.524 . S
C1653 C1654 1.397 . S
C1653 C1658 1.363 . S
C1654 H1631 0.950 . S
C1654 C1653 1.397 . S
C1654 C1655 1.334 . S
C1655 H1632 0.950 . S
C1655 C1654 1.334 . S
C1655 C1656 1.287 . S
C1656 C1655 1.287 . S
C1656 C1657 1.524 . S
C1656 H1675 0.913 . S
C1657 H1633 0.950 . S
C1657 C1656 1.524 . S
C1657 C1658 1.415 . S
C1658 H1634 0.950 . S
C1658 C1653 1.363 . S
C1658 C1657 1.415 . S
C1659 H1635 0.951 . S
C1659 C1660 1.366 . S
C1659 C1661 1.388 . S
C1660 C1659 1.366 . S
C1660 C1664 1.385 . S
C1661 H1636 0.951 . S
C1661 C1659 1.388 . S
C1661 C1662 1.366 . S
C1662 C1661 1.366 . S
C1662 C1663 1.414 . S
C1662 C1665 1.499 . S
C1663 H1637 0.950 . S
C1663 C1662 1.414 . S
C1663 C1664 1.374 . S
C1664 H1638 0.950 . S
C1664 C1660 1.385 . S
C1664 C1663 1.374 . S
C1665 C1662 1.499 . S
C1665 C1666 1.373 . S
C1665 C1667 1.389 . S
C1666 H1639 0.950 . S
C1666 C1652 1.377 . S
C1666 C1665 1.373 . S
C1667 C1651 1.377 . S
C1667 C1665 1.389 . S
C1667 C1668 1.524 . S
C1668 C1667 1.524 . S
C1668 C1669 1.397 . S
C1668 C1673 1.363 . S
C1669 H1640 0.950 . S
C1669 C1668 1.397 . S
C1669 C1670 1.334 . S
C1670 H1641 0.950 . S
C1670 C1669 1.334 . S
C1670 C1671 1.287 . S
C1671 C1670 1.287 . S
C1671 C1672 1.524 . S
C1671 H1674 0.999 . S
C1672 H1642 0.950 . S
C1672 C1671 1.524 . S
C1672 C1673 1.415 . S
C1673 H1643 0.950 . S
C1673 C1668 1.363 . S
C1673 C1672 1.415 . S
H1674 C1671 0.999 . S
H1675 C1656 0.913 . S
H1676 C1694 0.951 . S
H1677 C1696 0.951 . S
H1678 C1698 0.950 . S
H1679 C1699 0.950 . S
H1680 C1701 0.950 1_565 S
H1681 C1704 0.950 . S
H1682 C1705 0.950 . S
H1683 C1707 0.950 . S
H1684 C1708 0.950 . S
H1685 C1709 0.951 . S
H1686 C1711 0.951 . S
H1687 C1713 0.950 . S
H1688 C1714 0.950 . S
H1689 C1716 0.950 . S
H1690 C1719 0.950 . S
H1691 C1720 0.950 . S
H1692 C1722 0.950 . S
H1693 C1723 0.950 . S
C1694 H1676 0.951 . S
C1694 C1695 1.366 . S
C1694 C1696 1.388 . S
C1695 C1694 1.366 . S
C1695 C1699 1.385 . S
C1696 H1677 0.951 . S
C1696 C1694 1.388 . S
C1696 C1697 1.366 . S
C1697 C1696 1.366 . S
C1697 C1698 1.414 . S
C1697 C1700 1.499 . S
C1698 H1678 0.950 . S
C1698 C1697 1.414 . S
C1698 C1699 1.374 . S
C1699 H1679 0.950 . S
C1699 C1695 1.385 . S
C1699 C1698 1.374 . S
C1700 C1697 1.499 . S
C1700 C1701 1.373 . S
C1700 C1702 1.389 . S
C1701 H1680 0.950 1_545 S
C1701 C1700 1.373 . S
C1701 C1717 1.377 . S
C1702 C1700 1.389 . S
C1702 C1703 1.524 . S
C1702 C1716 1.377 . S
C1703 C1702 1.524 . S
C1703 C1704 1.397 . S
C1703 C1708 1.363 . S
C1704 H1681 0.950 . S
C1704 C1703 1.397 . S
C1704 C1705 1.334 . S
C1705 H1682 0.950 . S
C1705 C1704 1.334 . S
C1705 C1706 1.287 . S
C1706 C1705 1.287 . S
C1706 C1707 1.524 . S
C1706 H1725 0.913 . S
C1707 H1683 0.950 . S
C1707 C1706 1.524 . S
C1707 C1708 1.415 . S
C1708 H1684 0.950 . S
C1708 C1703 1.363 . S
C1708 C1707 1.415 . S
C1709 H1685 0.951 . S
C1709 C1710 1.366 . S
C1709 C1711 1.388 . S
C1710 C1709 1.366 . S
C1710 C1714 1.385 . S
C1711 H1686 0.951 . S
C1711 C1709 1.388 . S
C1711 C1712 1.366 . S
C1712 C1711 1.366 . S
C1712 C1713 1.414 . S
C1712 C1715 1.499 . S
C1713 H1687 0.950 . S
C1713 C1712 1.414 . S
C1713 C1714 1.374 . S
C1714 H1688 0.950 . S
C1714 C1710 1.385 . S
C1714 C1713 1.374 . S
C1715 C1712 1.499 . S
C1715 C1716 1.373 . S
C1715 C1717 1.389 . S
C1716 H1689 0.950 . S
C1716 C1702 1.377 . S
C1716 C1715 1.373 . S
C1717 C1701 1.377 . S
C1717 C1715 1.389 . S
C1717 C1718 1.524 1_545 S
C1718 C1717 1.524 1_565 S
C1718 C1719 1.397 . S
C1718 C1723 1.363 . S
C1719 H1690 0.950 . S
C1719 C1718 1.397 . S
C1719 C1720 1.334 . S
C1720 H1691 0.950 . S
C1720 C1719 1.334 . S
C1720 C1721 1.287 . S
C1721 C1720 1.287 . S
C1721 C1722 1.524 . S
C1721 H1724 0.999 . S
C1722 H1692 0.950 . S
C1722 C1721 1.524 . S
C1722 C1723 1.415 . S
C1723 H1693 0.950 . S
C1723 C1718 1.363 . S
C1723 C1722 1.415 . S
H1724 C1721 0.999 . S
H1725 C1706 0.913 . S
H1726 C1744 0.951 . S
H1727 C1746 0.951 . S
H1728 C1748 0.950 . S
H1729 C1749 0.950 . S
H1730 C1751 0.950 . S
H1731 C1754 0.950 . S
H1732 C1755 0.950 . S
H1733 C1757 0.950 . S
H1734 C1758 0.950 . S
H1735 C1759 0.951 . S
H1736 C1761 0.951 . S
H1737 C1763 0.950 . S
H1738 C1764 0.950 . S
H1739 C1766 0.950 . S
H1740 C1769 0.950 . S
H1741 C1770 0.950 . S
H1742 C1772 0.950 . S
H1743 C1773 0.950 . S
C1744 H1726 0.951 . S
C1744 C1745 1.366 . S
C1744 C1746 1.388 . S
C1745 C1744 1.366 . S
C1745 C1749 1.385 . S
C1746 H1727 0.951 . S
C1746 C1744 1.388 . S
C1746 C1747 1.366 . S
C1747 C1746 1.366 . S
C1747 C1748 1.414 . S
C1747 C1750 1.499 . S
C1748 H1728 0.950 . S
C1748 C1747 1.414 . S
C1748 C1749 1.374 . S
C1749 H1729 0.950 . S
C1749 C1745 1.385 . S
C1749 C1748 1.374 . S
C1750 C1747 1.499 . S
C1750 C1751 1.373 . S
C1750 C1752 1.389 . S
C1751 H1730 0.950 . S
C1751 C1750 1.373 . S
C1751 C1767 1.377 . S
C1752 C1750 1.389 . S
C1752 C1753 1.524 . S
C1752 C1766 1.377 . S
C1753 C1752 1.524 . S
C1753 C1754 1.397 . S
C1753 C1758 1.363 . S
C1754 H1731 0.950 . S
C1754 C1753 1.397 . S
C1754 C1755 1.334 . S
C1755 H1732 0.950 . S
C1755 C1754 1.334 . S
C1755 C1756 1.287 . S
C1756 C1755 1.287 . S
C1756 C1757 1.524 . S
C1756 H1775 0.913 . S
C1757 H1733 0.950 . S
C1757 C1756 1.524 . S
C1757 C1758 1.415 . S
C1758 H1734 0.950 . S
C1758 C1753 1.363 . S
C1758 C1757 1.415 . S
C1759 H1735 0.951 . S
C1759 C1760 1.366 . S
C1759 C1761 1.388 . S
C1760 C1759 1.366 . S
C1760 C1764 1.385 . S
C1761 H1736 0.951 . S
C1761 C1759 1.388 . S
C1761 C1762 1.366 . S
C1762 C1761 1.366 . S
C1762 C1763 1.414 . S
C1762 C1765 1.499 . S
C1763 H1737 0.950 . S
C1763 C1762 1.414 . S
C1763 C1764 1.374 . S
C1764 H1738 0.950 . S
C1764 C1760 1.385 . S
C1764 C1763 1.374 . S
C1765 C1762 1.499 . S
C1765 C1766 1.373 . S
C1765 C1767 1.389 . S
C1766 H1739 0.950 . S
C1766 C1752 1.377 . S
C1766 C1765 1.373 . S
C1767 C1751 1.377 . S
C1767 C1765 1.389 . S
C1767 C1768 1.524 . S
C1768 C1767 1.524 . S
C1768 C1769 1.397 . S
C1768 C1773 1.363 . S
C1769 H1740 0.950 . S
C1769 C1768 1.397 . S
C1769 C1770 1.334 . S
C1770 H1741 0.950 . S
C1770 C1769 1.334 . S
C1770 C1771 1.287 . S
C1771 C1770 1.287 . S
C1771 C1772 1.524 . S
C1771 H1774 0.999 . S
C1772 H1742 0.950 . S
C1772 C1771 1.524 . S
C1772 C1773 1.415 . S
C1773 H1743 0.950 . S
C1773 C1768 1.363 . S
C1773 C1772 1.415 . S
H1774 C1771 0.999 . S
H1775 C1756 0.913 . S
H1776 C1794 0.951 . S
H1777 C1796 0.951 1_556 S
H1778 C1798 0.950 . S
H1779 C1799 0.950 . S
H1780 C1801 0.950 . S
H1781 C1804 0.950 . S
H1782 C1805 0.950 . S
H1783 C1807 0.950 . S
H1784 C1808 0.950 . S
H1785 C1809 0.951 . S
H1786 C1811 0.951 . S
H1787 C1813 0.950 . S
H1788 C1814 0.950 . S
H1789 C1816 0.950 . S
H1790 C1819 0.950 . S
H1791 C1820 0.950 . S
H1792 C1822 0.944 1_545 S
H1793 C1823 0.950 . S
C1794 H1776 0.951 . S
C1794 C1795 1.366 1_556 S
C1794 C1796 1.388 1_556 S
C1795 C1794 1.366 1_554 S
C1795 C1799 1.385 . S
C1796 H1777 0.951 1_554 S
C1796 C1794 1.388 1_554 S
C1796 C1797 1.366 . S
C1797 C1796 1.366 . S
C1797 C1798 1.414 . S
C1797 C1800 1.499 . S
C1798 H1778 0.950 . S
C1798 C1797 1.414 . S
C1798 C1799 1.374 . S
C1799 H1779 0.950 . S
C1799 C1795 1.385 . S
C1799 C1798 1.374 . S
C1800 C1797 1.499 . S
C1800 C1801 1.373 . S
C1800 C1802 1.389 . S
C1801 H1780 0.950 . S
C1801 C1800 1.373 . S
C1801 C1817 1.377 . S
C1802 C1800 1.389 . S
C1802 C1803 1.524 1_554 S
C1802 C1816 1.377 . S
C1803 C1802 1.524 1_556 S
C1803 C1804 1.397 . S
C1803 C1808 1.363 . S
C1804 H1781 0.950 . S
C1804 C1803 1.397 . S
C1804 C1805 1.334 . S
C1805 H1782 0.950 . S
C1805 C1804 1.334 . S
C1805 C1806 1.287 . S
C1806 C1805 1.287 . S
C1806 C1807 1.524 . S
C1806 H1825 0.913 . S
C1807 H1783 0.950 . S
C1807 C1806 1.524 . S
C1807 C1808 1.415 . S
C1808 H1784 0.950 . S
C1808 C1803 1.363 . S
C1808 C1807 1.415 . S
C1809 H1785 0.951 . S
C1809 C1810 1.366 . S
C1809 C1811 1.388 . S
C1810 C1809 1.366 . S
C1810 C1814 1.385 1_545 S
C1811 H1786 0.951 . S
C1811 C1809 1.388 . S
C1811 C1812 1.366 1_545 S
C1812 C1811 1.366 1_565 S
C1812 C1813 1.414 . S
C1812 C1815 1.499 . S
C1813 H1787 0.950 . S
C1813 C1812 1.414 . S
C1813 C1814 1.374 . S
C1814 H1788 0.950 . S
C1814 C1810 1.385 1_565 S
C1814 C1813 1.374 . S
C1815 C1812 1.499 . S
C1815 C1816 1.373 . S
C1815 C1817 1.389 . S
C1816 H1789 0.950 . S
C1816 C1802 1.377 . S
C1816 C1815 1.373 . S
C1817 C1801 1.377 . S
C1817 C1815 1.389 . S
C1817 C1818 1.524 . S
C1818 C1817 1.524 . S
C1818 C1819 1.397 . S
C1818 C1823 1.363 . S
C1819 H1790 0.950 . S
C1819 C1818 1.397 . S
C1819 C1820 1.334 . S
C1820 H1791 0.950 . S
C1820 C1819 1.334 . S
C1820 C1821 1.287 . S
C1821 C1820 1.287 . S
C1821 C1822 1.524 . S
C1821 H1824 0.999 . S
C1822 H1792 0.944 1_565 S
C1822 C1821 1.524 . S
C1822 C1823 1.415 . S
C1823 H1793 0.950 . S
C1823 C1818 1.363 . S
C1823 C1822 1.415 . S
H1824 C1821 0.999 . S
H1825 C1806 0.913 . S
H1826 C1844 0.951 . S
H1827 C1846 0.951 . S
H1828 C1848 0.950 . S
H1829 C1849 0.950 . S
H1830 C1851 0.950 . S
H1831 C1854 0.950 . S
H1832 C1855 0.950 . S
H1833 C1857 0.950 . S
H1834 C1858 0.950 . S
H1835 C1859 0.951 . S
H1836 C1861 0.951 . S
H1837 C1863 0.950 . S
H1838 C1864 0.950 . S
H1839 C1866 0.950 . S
H1840 C1869 0.950 . S
H1841 C1870 0.950 . S
H1842 C1872 0.950 . S
H1843 C1873 0.950 . S
C1844 H1826 0.951 . S
C1844 C1845 1.366 . S
C1844 C1846 1.388 . S
C1845 C1844 1.366 . S
C1845 C1849 1.385 . S
C1846 H1827 0.951 . S
C1846 C1844 1.388 . S
C1846 C1847 1.366 . S
C1847 C1846 1.366 . S
C1847 C1848 1.414 . S
C1847 C1850 1.499 . S
C1848 H1828 0.950 . S
C1848 C1847 1.414 . S
C1848 C1849 1.374 . S
C1849 H1829 0.950 . S
C1849 C1845 1.385 . S
C1849 C1848 1.374 . S
C1850 C1847 1.499 . S
C1850 C1851 1.373 . S
C1850 C1852 1.389 . S
C1851 H1830 0.950 . S
C1851 C1850 1.373 . S
C1851 C1867 1.377 . S
C1852 C1850 1.389 . S
C1852 C1853 1.524 . S
C1852 C1866 1.377 . S
C1853 C1852 1.524 . S
C1853 C1854 1.397 . S
C1853 C1858 1.363 . S
C1854 H1831 0.950 . S
C1854 C1853 1.397 . S
C1854 C1855 1.334 . S
C1855 H1832 0.950 . S
C1855 C1854 1.334 . S
C1855 C1856 1.287 . S
C1856 C1855 1.287 . S
C1856 C1857 1.524 . S
C1856 H1875 0.913 . S
C1857 H1833 0.950 . S
C1857 C1856 1.524 . S
C1857 C1858 1.415 . S
C1858 H1834 0.950 . S
C1858 C1853 1.363 . S
C1858 C1857 1.415 . S
C1859 H1835 0.951 . S
C1859 C1860 1.366 . S
C1859 C1861 1.388 . S
C1860 C1859 1.366 . S
C1860 C1864 1.385 . S
C1861 H1836 0.951 . S
C1861 C1859 1.388 . S
C1861 C1862 1.366 . S
C1862 C1861 1.366 . S
C1862 C1863 1.414 . S
C1862 C1865 1.499 . S
C1863 H1837 0.950 . S
C1863 C1862 1.414 . S
C1863 C1864 1.374 . S
C1864 H1838 0.950 . S
C1864 C1860 1.385 . S
C1864 C1863 1.374 . S
C1865 C1862 1.499 . S
C1865 C1866 1.373 . S
C1865 C1867 1.389 . S
C1866 H1839 0.950 . S
C1866 C1852 1.377 . S
C1866 C1865 1.373 . S
C1867 C1851 1.377 . S
C1867 C1865 1.389 . S
C1867 C1868 1.524 . S
C1868 C1867 1.524 . S
C1868 C1869 1.397 1_554 S
C1868 C1873 1.363 . S
C1869 H1840 0.950 . S
C1869 C1868 1.397 1_556 S
C1869 C1870 1.334 . S
C1870 H1841 0.950 . S
C1870 C1869 1.334 . S
C1870 C1871 1.287 . S
C1871 C1870 1.287 . S
C1871 C1872 1.524 1_556 S
C1871 H1874 0.999 . S
C1872 H1842 0.950 . S
C1872 C1871 1.524 1_554 S
C1872 C1873 1.415 . S
C1873 H1843 0.950 . S
C1873 C1868 1.363 . S
C1873 C1872 1.415 . S
H1874 C1871 0.999 . S
H1875 C1856 0.913 . S
H1876 C1894 0.951 . S
H1877 C1896 0.951 . S
H1878 C1898 0.950 . S
H1879 C1899 0.950 . S
H1880 C1901 0.950 . S
H1881 C1904 0.950 . S
H1882 C1905 0.950 . S
H1883 C1907 0.950 . S
H1884 C1908 0.950 . S
H1885 C1909 0.951 . S
H1886 C1911 0.951 . S
H1887 C1913 0.950 . S
H1888 C1914 0.950 . S
H1889 C1916 0.950 . S
H1890 C1919 0.950 . S
H1891 C1920 0.950 . S
H1892 C1922 0.950 . S
H1893 C1923 0.950 . S
C1894 H1876 0.951 . S
C1894 C1895 1.366 . S
C1894 C1896 1.388 . S
C1895 C1894 1.366 . S
C1895 C1899 1.385 . S
C1896 H1877 0.951 . S
C1896 C1894 1.388 . S
C1896 C1897 1.366 . S
C1897 C1896 1.366 . S
C1897 C1898 1.414 . S
C1897 C1900 1.499 . S
C1898 H1878 0.950 . S
C1898 C1897 1.414 . S
C1898 C1899 1.374 . S
C1899 H1879 0.950 . S
C1899 C1895 1.385 . S
C1899 C1898 1.374 . S
C1900 C1897 1.499 . S
C1900 C1901 1.373 . S
C1900 C1902 1.389 . S
C1901 H1880 0.950 . S
C1901 C1900 1.373 . S
C1901 C1917 1.377 . S
C1902 C1900 1.389 . S
C1902 C1903 1.524 . S
C1902 C1916 1.377 . S
C1903 C1902 1.524 . S
C1903 C1904 1.397 . S
C1903 C1908 1.363 . S
C1904 H1881 0.950 . S
C1904 C1903 1.397 . S
C1904 C1905 1.334 . S
C1905 H1882 0.950 . S
C1905 C1904 1.334 . S
C1905 C1906 1.287 . S
C1906 C1905 1.287 . S
C1906 C1907 1.524 . S
C1906 H1925 0.913 . S
C1907 H1883 0.950 . S
C1907 C1906 1.524 . S
C1907 C1908 1.415 . S
C1908 H1884 0.950 . S
C1908 C1903 1.363 . S
C1908 C1907 1.415 . S
C1909 H1885 0.951 . S
C1909 C1910 1.366 . S
C1909 C1911 1.388 . S
C1910 C1909 1.366 . S
C1910 C1914 1.385 . S
C1911 H1886 0.951 . S
C1911 C1909 1.388 . S
C1911 C1912 1.366 . S
C1912 C1911 1.366 . S
C1912 C1913 1.414 . S
C1912 C1915 1.499 . S
C1913 H1887 0.950 . S
C1913 C1912 1.414 . S
C1913 C1914 1.374 . S
C1914 H1888 0.950 . S
C1914 C1910 1.385 . S
C1914 C1913 1.374 . S
C1915 C1912 1.499 . S
C1915 C1916 1.373 . S
C1915 C1917 1.389 . S
C1916 H1889 0.950 . S
C1916 C1902 1.377 . S
C1916 C1915 1.373 . S
C1917 C1901 1.377 . S
C1917 C1915 1.389 . S
C1917 C1918 1.524 . S
C1918 C1917 1.524 . S
C1918 C1919 1.397 . S
C1918 C1923 1.363 . S
C1919 H1890 0.950 . S
C1919 C1918 1.397 . S
C1919 C1920 1.334 . S
C1920 H1891 0.950 . S
C1920 C1919 1.334 . S
C1920 C1921 1.287 . S
C1921 C1920 1.287 . S
C1921 C1922 1.524 . S
C1921 H1924 0.999 . S
C1922 H1892 0.950 . S
C1922 C1921 1.524 . S
C1922 C1923 1.415 . S
C1923 H1893 0.950 . S
C1923 C1918 1.363 . S
C1923 C1922 1.415 . S
H1924 C1921 0.999 . S
H1925 C1906 0.913 . S
H1926 C1944 0.951 . S
H1927 C1946 0.951 . S
H1928 C1948 0.950 . S
H1929 C1949 0.950 . S
H1930 C1951 0.950 . S
H1931 C1954 0.950 . S
H1932 C1955 0.950 . S
H1933 C1957 0.950 . S
H1934 C1958 0.950 . S
H1935 C1959 0.951 . S
H1936 C1961 0.951 . S
H1937 C1963 0.950 . S
H1938 C1964 0.950 . S
H1939 C1966 0.950 . S
H1940 C1969 0.950 . S
H1941 C1970 0.950 . S
H1942 C1972 0.950 . S
H1943 C1973 0.950 . S
C1944 H1926 0.951 . S
C1944 C1945 1.366 . S
C1944 C1946 1.388 . S
C1945 C1944 1.366 . S
C1945 C1949 1.385 . S
C1946 H1927 0.951 . S
C1946 C1944 1.388 . S
C1946 C1947 1.366 . S
C1947 C1946 1.366 . S
C1947 C1948 1.414 . S
C1947 C1950 1.499 . S
C1948 H1928 0.950 . S
C1948 C1947 1.414 . S
C1948 C1949 1.374 . S
C1949 H1929 0.950 . S
C1949 C1945 1.385 . S
C1949 C1948 1.374 . S
C1950 C1947 1.499 . S
C1950 C1951 1.373 . S
C1950 C1952 1.389 . S
C1951 H1930 0.950 . S
C1951 C1950 1.373 . S
C1951 C1967 1.377 . S
C1952 C1950 1.389 . S
C1952 C1953 1.524 . S
C1952 C1966 1.377 . S
C1953 C1952 1.524 . S
C1953 C1954 1.397 . S
C1953 C1958 1.363 . S
C1954 H1931 0.950 . S
C1954 C1953 1.397 . S
C1954 C1955 1.334 . S
C1955 H1932 0.950 . S
C1955 C1954 1.334 . S
C1955 C1956 1.287 . S
C1956 C1955 1.287 . S
C1956 C1957 1.524 . S
C1956 H1975 0.913 . S
C1957 H1933 0.950 . S
C1957 C1956 1.524 . S
C1957 C1958 1.415 . S
C1958 H1934 0.950 . S
C1958 C1953 1.363 . S
C1958 C1957 1.415 . S
C1959 H1935 0.951 . S
C1959 C1960 1.366 . S
C1959 C1961 1.388 . S
C1960 C1959 1.366 . S
C1960 C1964 1.385 . S
C1961 H1936 0.951 . S
C1961 C1959 1.388 . S
C1961 C1962 1.366 . S
C1962 C1961 1.366 . S
C1962 C1963 1.414 . S
C1962 C1965 1.499 . S
C1963 H1937 0.950 . S
C1963 C1962 1.414 . S
C1963 C1964 1.374 . S
C1964 H1938 0.950 . S
C1964 C1960 1.385 . S
C1964 C1963 1.374 . S
C1965 C1962 1.499 . S
C1965 C1966 1.373 . S
C1965 C1967 1.389 . S
C1966 H1939 0.950 . S
C1966 C1952 1.377 . S
C1966 C1965 1.373 . S
C1967 C1951 1.377 . S
C1967 C1965 1.389 . S
C1967 C1968 1.524 . S
C1968 C1967 1.524 . S
C1968 C1969 1.397 . S
C1968 C1973 1.363 . S
C1969 H1940 0.950 . S
C1969 C1968 1.397 . S
C1969 C1970 1.334 . S
C1970 H1941 0.950 . S
C1970 C1969 1.334 . S
C1970 C1971 1.287 . S
C1971 C1970 1.287 . S
C1971 C1972 1.524 . S
C1971 H1974 0.999 . S
C1972 H1942 0.950 . S
C1972 C1971 1.524 . S
C1972 C1973 1.415 . S
C1973 H1943 0.950 . S
C1973 C1968 1.363 . S
C1973 C1972 1.415 . S
H1974 C1971 0.999 . S
H1975 C1956 0.913 . S
H1976 C1994 0.951 . S
H1977 C1996 0.951 . S
H1978 C1998 0.950 . S
H1979 C1999 0.950 . S
H1980 C2001 0.950 . S
H1981 C2004 0.950 . S
H1982 C2005 0.950 . S
H1983 C2007 0.950 . S
H1984 C2008 0.950 . S
H1985 C2009 0.951 . S
H1986 C2011 0.951 . S
H1987 C2013 0.950 . S
H1988 C2014 0.950 . S
H1989 C2016 0.950 . S
H1990 C2019 0.950 . S
H1991 C2020 0.950 . S
H1992 C2022 0.950 . S
H1993 C2023 0.950 . S
C1994 H1976 0.951 . S
C1994 C1995 1.366 . S
C1994 C1996 1.388 . S
C1995 C1994 1.366 . S
C1995 C1999 1.385 . S
C1996 H1977 0.951 . S
C1996 C1994 1.388 . S
C1996 C1997 1.366 . S
C1997 C1996 1.366 . S
C1997 C1998 1.414 . S
C1997 C2000 1.499 . S
C1998 H1978 0.950 . S
C1998 C1997 1.414 . S
C1998 C1999 1.374 . S
C1999 H1979 0.950 . S
C1999 C1995 1.385 . S
C1999 C1998 1.374 . S
C2000 C1997 1.499 . S
C2000 C2001 1.373 . S
C2000 C2002 1.389 . S
C2001 H1980 0.950 . S
C2001 C2000 1.373 . S
C2001 C2017 1.377 . S
C2002 C2000 1.389 . S
C2002 C2003 1.524 . S
C2002 C2016 1.377 . S
C2003 C2002 1.524 . S
C2003 C2004 1.397 . S
C2003 C2008 1.363 . S
C2004 H1981 0.950 . S
C2004 C2003 1.397 . S
C2004 C2005 1.334 . S
C2005 H1982 0.950 . S
C2005 C2004 1.334 . S
C2005 C2006 1.287 . S
C2006 C2005 1.287 . S
C2006 C2007 1.524 . S
C2006 H2025 0.913 . S
C2007 H1983 0.950 . S
C2007 C2006 1.524 . S
C2007 C2008 1.415 . S
C2008 H1984 0.950 . S
C2008 C2003 1.363 . S
C2008 C2007 1.415 . S
C2009 H1985 0.951 . S
C2009 C2010 1.366 . S
C2009 C2011 1.388 . S
C2010 C2009 1.366 . S
C2010 C2014 1.385 . S
C2011 H1986 0.951 . S
C2011 C2009 1.388 . S
C2011 C2012 1.366 . S
C2012 C2011 1.366 . S
C2012 C2013 1.414 . S
C2012 C2015 1.499 . S
C2013 H1987 0.950 . S
C2013 C2012 1.414 . S
C2013 C2014 1.374 . S
C2014 H1988 0.950 . S
C2014 C2010 1.385 . S
C2014 C2013 1.374 . S
C2015 C2012 1.499 . S
C2015 C2016 1.373 . S
C2015 C2017 1.389 . S
C2016 H1989 0.950 . S
C2016 C2002 1.377 . S
C2016 C2015 1.373 . S
C2017 C2001 1.377 . S
C2017 C2015 1.389 . S
C2017 C2018 1.524 . S
C2018 C2017 1.524 . S
C2018 C2019 1.397 . S
C2018 C2023 1.363 . S
C2019 H1990 0.950 . S
C2019 C2018 1.397 . S
C2019 C2020 1.334 . S
C2020 H1991 0.950 . S
C2020 C2019 1.334 . S
C2020 C2021 1.287 . S
C2021 C2020 1.287 . S
C2021 C2022 1.524 . S
C2021 H2024 0.999 . S
C2022 H1992 0.950 . S
C2022 C2021 1.524 . S
C2022 C2023 1.415 . S
C2023 H1993 0.950 . S
C2023 C2018 1.363 . S
C2023 C2022 1.415 . S
H2024 C2021 0.999 . S
H2025 C2006 0.913 . S
H2026 C2044 0.951 . S
H2027 C2046 0.951 . S
H2028 C2048 0.950 . S
H2029 C2049 0.950 . S
H2030 C2051 0.950 . S
H2031 C2054 0.950 . S
H2032 C2055 0.950 . S
H2033 C2057 0.950 . S
H2034 C2058 0.950 . S
H2035 C2059 0.951 . S
H2036 C2061 0.951 . S
H2037 C2063 0.950 . S
H2038 C2064 0.950 . S
H2039 C2066 0.950 . S
H2040 C2069 0.950 . S
H2041 C2070 0.950 . S
H2042 C2072 0.950 . S
H2043 C2073 0.950 . S
C2044 H2026 0.951 . S
C2044 C2045 1.366 . S
C2044 C2046 1.388 . S
C2045 C2044 1.366 . S
C2045 C2049 1.385 . S
C2046 H2027 0.951 . S
C2046 C2044 1.388 . S
C2046 C2047 1.366 . S
C2047 C2046 1.366 . S
C2047 C2048 1.414 . S
C2047 C2050 1.499 . S
C2048 H2028 0.950 . S
C2048 C2047 1.414 . S
C2048 C2049 1.374 . S
C2049 H2029 0.950 . S
C2049 C2045 1.385 . S
C2049 C2048 1.374 . S
C2050 C2047 1.499 . S
C2050 C2051 1.373 . S
C2050 C2052 1.389 . S
C2051 H2030 0.950 . S
C2051 C2050 1.373 . S
C2051 C2067 1.377 . S
C2052 C2050 1.389 . S
C2052 C2053 1.524 . S
C2052 C2066 1.377 . S
C2053 C2052 1.524 . S
C2053 C2054 1.397 . S
C2053 C2058 1.363 . S
C2054 H2031 0.950 . S
C2054 C2053 1.397 . S
C2054 C2055 1.334 . S
C2055 H2032 0.950 . S
C2055 C2054 1.334 . S
C2055 C2056 1.287 . S
C2056 C2055 1.287 . S
C2056 C2057 1.524 . S
C2056 H2075 0.913 . S
C2057 H2033 0.950 . S
C2057 C2056 1.524 . S
C2057 C2058 1.415 . S
C2058 H2034 0.950 . S
C2058 C2053 1.363 . S
C2058 C2057 1.415 . S
C2059 H2035 0.951 . S
C2059 C2060 1.366 . S
C2059 C2061 1.388 . S
C2060 C2059 1.366 . S
C2060 C2064 1.385 . S
C2061 H2036 0.951 . S
C2061 C2059 1.388 . S
C2061 C2062 1.366 . S
C2062 C2061 1.366 . S
C2062 C2063 1.414 . S
C2062 C2065 1.499 . S
C2063 H2037 0.950 . S
C2063 C2062 1.414 . S
C2063 C2064 1.374 . S
C2064 H2038 0.950 . S
C2064 C2060 1.385 . S
C2064 C2063 1.374 . S
C2065 C2062 1.499 . S
C2065 C2066 1.373 . S
C2065 C2067 1.389 . S
C2066 H2039 0.950 . S
C2066 C2052 1.377 . S
C2066 C2065 1.373 . S
C2067 C2051 1.377 . S
C2067 C2065 1.389 . S
C2067 C2068 1.524 . S
C2068 C2067 1.524 . S
C2068 C2069 1.397 . S
C2068 C2073 1.363 . S
C2069 H2040 0.950 . S
C2069 C2068 1.397 . S
C2069 C2070 1.334 . S
C2070 H2041 0.950 . S
C2070 C2069 1.334 . S
C2070 C2071 1.287 . S
C2071 C2070 1.287 . S
C2071 C2072 1.524 . S
C2071 H2074 0.999 . S
C2072 H2042 0.950 . S
C2072 C2071 1.524 . S
C2072 C2073 1.415 . S
C2073 H2043 0.950 . S
C2073 C2068 1.363 . S
C2073 C2072 1.415 . S
H2074 C2071 0.999 . S
H2075 C2056 0.913 . S
H2076 C2094 0.951 . S
H2077 C2096 0.951 . S
H2078 C2098 0.950 . S
H2079 C2099 0.950 . S
H2080 C2101 0.950 . S
H2081 C2104 0.950 . S
H2082 C2105 0.950 . S
H2083 C2107 0.950 . S
H2084 C2108 0.950 . S
H2085 C2109 0.951 . S
H2086 C2111 0.951 . S
H2087 C2113 0.950 . S
H2088 C2114 0.950 . S
H2089 C2116 0.950 . S
H2090 C2119 0.950 . S
H2091 C2120 0.950 . S
H2092 C2122 0.950 . S
H2093 C2123 0.950 . S
C2094 H2076 0.951 . S
C2094 C2095 1.366 . S
C2094 C2096 1.388 . S
C2095 C2094 1.366 . S
C2095 C2099 1.385 . S
C2096 H2077 0.951 . S
C2096 C2094 1.388 . S
C2096 C2097 1.366 . S
C2097 C2096 1.366 . S
C2097 C2098 1.414 . S
C2097 C2100 1.499 . S
C2098 H2078 0.950 . S
C2098 C2097 1.414 . S
C2098 C2099 1.374 . S
C2099 H2079 0.950 . S
C2099 C2095 1.385 . S
C2099 C2098 1.374 . S
C2100 C2097 1.499 . S
C2100 C2101 1.373 . S
C2100 C2102 1.389 . S
C2101 H2080 0.950 . S
C2101 C2100 1.373 . S
C2101 C2117 1.377 . S
C2102 C2100 1.389 . S
C2102 C2103 1.524 . S
C2102 C2116 1.377 . S
C2103 C2102 1.524 . S
C2103 C2104 1.397 . S
C2103 C2108 1.363 . S
C2104 H2081 0.950 . S
C2104 C2103 1.397 . S
C2104 C2105 1.334 . S
C2105 H2082 0.950 . S
C2105 C2104 1.334 . S
C2105 C2106 1.287 . S
C2106 C2105 1.287 . S
C2106 C2107 1.524 . S
C2106 H2125 0.913 . S
C2107 H2083 0.950 . S
C2107 C2106 1.524 . S
C2107 C2108 1.415 . S
C2108 H2084 0.950 . S
C2108 C2103 1.363 . S
C2108 C2107 1.415 . S
C2109 H2085 0.951 . S
C2109 C2110 1.366 . S
C2109 C2111 1.388 . S
C2110 C2109 1.366 . S
C2110 C2114 1.385 . S
C2111 H2086 0.951 . S
C2111 C2109 1.388 . S
C2111 C2112 1.366 . S
C2112 C2111 1.366 . S
C2112 C2113 1.414 . S
C2112 C2115 1.499 . S
C2113 H2087 0.950 . S
C2113 C2112 1.414 . S
C2113 C2114 1.374 . S
C2114 H2088 0.950 . S
C2114 C2110 1.385 . S
C2114 C2113 1.374 . S
C2115 C2112 1.499 . S
C2115 C2116 1.373 . S
C2115 C2117 1.389 . S
C2116 H2089 0.950 . S
C2116 C2102 1.377 . S
C2116 C2115 1.373 . S
C2117 C2101 1.377 . S
C2117 C2115 1.389 . S
C2117 C2118 1.524 . S
C2118 C2117 1.524 . S
C2118 C2119 1.397 . S
C2118 C2123 1.363 . S
C2119 H2090 0.950 . S
C2119 C2118 1.397 . S
C2119 C2120 1.334 . S
C2120 H2091 0.950 . S
C2120 C2119 1.334 . S
C2120 C2121 1.287 . S
C2121 C2120 1.287 . S
C2121 C2122 1.524 . S
C2121 H2124 0.999 . S
C2122 H2092 0.950 . S
C2122 C2121 1.524 . S
C2122 C2123 1.415 . S
C2123 H2093 0.950 . S
C2123 C2118 1.363 . S
C2123 C2122 1.415 . S
H2124 C2121 0.999 . S
H2125 C2106 0.913 . S
H2126 C2144 0.951 . S
H2127 C2146 0.951 . S
H2128 C2148 0.950 . S
H2129 C2149 0.950 . S
H2130 C2151 0.950 . S
H2131 C2154 0.950 . S
H2132 C2155 0.950 . S
H2133 C2157 0.950 . S
H2134 C2158 0.950 . S
H2135 C2159 0.951 . S
H2136 C2161 0.951 . S
H2137 C2163 0.950 . S
H2138 C2164 0.950 . S
H2139 C2166 0.950 . S
H2140 C2169 0.950 . S
H2141 C2170 0.950 . S
H2142 C2172 0.950 . S
H2143 C2173 0.950 . S
C2144 H2126 0.951 . S
C2144 C2145 1.366 . S
C2144 C2146 1.388 . S
C2145 C2144 1.366 . S
C2145 C2149 1.385 . S
C2146 H2127 0.951 . S
C2146 C2144 1.388 . S
C2146 C2147 1.366 . S
C2147 C2146 1.366 . S
C2147 C2148 1.414 . S
C2147 C2150 1.499 . S
C2148 H2128 0.950 . S
C2148 C2147 1.414 . S
C2148 C2149 1.374 . S
C2149 H2129 0.950 . S
C2149 C2145 1.385 . S
C2149 C2148 1.374 . S
C2150 C2147 1.499 . S
C2150 C2151 1.373 . S
C2150 C2152 1.389 . S
C2151 H2130 0.950 . S
C2151 C2150 1.373 . S
C2151 C2167 1.377 . S
C2152 C2150 1.389 . S
C2152 C2153 1.524 . S
C2152 C2166 1.377 . S
C2153 C2152 1.524 . S
C2153 C2154 1.397 . S
C2153 C2158 1.363 . S
C2154 H2131 0.950 . S
C2154 C2153 1.397 . S
C2154 C2155 1.334 . S
C2155 H2132 0.950 . S
C2155 C2154 1.334 . S
C2155 C2156 1.287 . S
C2156 C2155 1.287 . S
C2156 C2157 1.524 . S
C2156 H2175 0.913 . S
C2157 H2133 0.950 . S
C2157 C2156 1.524 . S
C2157 C2158 1.415 . S
C2158 H2134 0.950 . S
C2158 C2153 1.363 . S
C2158 C2157 1.415 . S
C2159 H2135 0.951 . S
C2159 C2160 1.366 . S
C2159 C2161 1.388 . S
C2160 C2159 1.366 . S
C2160 C2164 1.385 . S
C2161 H2136 0.951 . S
C2161 C2159 1.388 . S
C2161 C2162 1.366 . S
C2162 C2161 1.366 . S
C2162 C2163 1.414 . S
C2162 C2165 1.499 . S
C2163 H2137 0.950 . S
C2163 C2162 1.414 . S
C2163 C2164 1.374 . S
C2164 H2138 0.950 . S
C2164 C2160 1.385 . S
C2164 C2163 1.374 . S
C2165 C2162 1.499 . S
C2165 C2166 1.373 . S
C2165 C2167 1.389 . S
C2166 H2139 0.950 . S
C2166 C2152 1.377 . S
C2166 C2165 1.373 . S
C2167 C2151 1.377 . S
C2167 C2165 1.389 . S
C2167 C2168 1.524 . S
C2168 C2167 1.524 . S
C2168 C2169 1.397 . S
C2168 C2173 1.363 . S
C2169 H2140 0.950 . S
C2169 C2168 1.397 . S
C2169 C2170 1.334 . S
C2170 H2141 0.950 . S
C2170 C2169 1.334 . S
C2170 C2171 1.287 . S
C2171 C2170 1.287 . S
C2171 C2172 1.524 . S
C2171 H2174 0.999 . S
C2172 H2142 0.950 . S
C2172 C2171 1.524 . S
C2172 C2173 1.415 . S
C2173 H2143 0.950 . S
C2173 C2168 1.363 . S
C2173 C2172 1.415 . S
H2174 C2171 0.999 . S
H2175 C2156 0.913 . S
H2176 C2194 0.951 . S
H2177 C2196 0.951 . S
H2178 C2198 0.950 . S
H2179 C2199 0.950 . S
H2180 C2201 0.950 . S
H2181 C2204 0.950 . S
H2182 C2205 0.950 . S
H2183 C2207 0.950 . S
H2184 C2208 0.950 . S
H2185 C2209 0.951 . S
H2186 C2211 0.951 . S
H2187 C2213 0.950 . S
H2188 C2214 0.950 . S
H2189 C2216 0.950 . S
H2190 C2219 0.950 . S
H2191 C2220 0.962 . S
H2192 C2222 0.950 . S
H2193 C2223 0.950 . S
C2194 H2176 0.951 . S
C2194 C2195 1.366 . S
C2194 C2196 1.388 . S
C2195 C2194 1.366 . S
C2195 C2199 1.385 . S
C2196 H2177 0.951 . S
C2196 C2194 1.388 . S
C2196 C2197 1.366 . S
C2197 C2196 1.366 . S
C2197 C2198 1.414 . S
C2197 C2200 1.499 . S
C2198 H2178 0.950 . S
C2198 C2197 1.414 . S
C2198 C2199 1.374 . S
C2199 H2179 0.950 . S
C2199 C2195 1.385 . S
C2199 C2198 1.374 . S
C2200 C2197 1.499 . S
C2200 C2201 1.373 . S
C2200 C2202 1.389 . S
C2201 H2180 0.950 . S
C2201 C2200 1.373 . S
C2201 C2217 1.377 . S
C2202 C2200 1.389 . S
C2202 C2203 1.524 . S
C2202 C2216 1.377 . S
C2203 C2202 1.524 . S
C2203 C2204 1.397 . S
C2203 C2208 1.363 . S
C2204 H2181 0.950 . S
C2204 C2203 1.397 . S
C2204 C2205 1.334 . S
C2205 H2182 0.950 . S
C2205 C2204 1.334 . S
C2205 C2206 1.287 . S
C2206 C2205 1.287 . S
C2206 C2207 1.524 . S
C2206 H2225 0.913 . S
C2207 H2183 0.950 . S
C2207 C2206 1.524 . S
C2207 C2208 1.415 . S
C2208 H2184 0.950 . S
C2208 C2203 1.363 . S
C2208 C2207 1.415 . S
C2209 H2185 0.951 . S
C2209 C2210 1.366 . S
C2209 C2211 1.388 . S
C2210 C2209 1.366 . S
C2210 C2214 1.385 . S
C2211 H2186 0.951 . S
C2211 C2209 1.388 . S
C2211 C2212 1.366 . S
C2212 C2211 1.366 . S
C2212 C2213 1.414 . S
C2212 C2215 1.499 . S
C2213 H2187 0.950 . S
C2213 C2212 1.414 . S
C2213 C2214 1.374 . S
C2214 H2188 0.950 . S
C2214 C2210 1.385 . S
C2214 C2213 1.374 . S
C2215 C2212 1.499 . S
C2215 C2216 1.373 . S
C2215 C2217 1.389 . S
C2216 H2189 0.950 . S
C2216 C2202 1.377 . S
C2216 C2215 1.373 . S
C2217 C2201 1.377 . S
C2217 C2215 1.389 . S
C2217 C2218 1.524 . S
C2218 C2217 1.524 . S
C2218 C2219 1.397 . S
C2218 C2223 1.363 . S
C2219 H2190 0.950 . S
C2219 C2218 1.397 . S
C2219 C2220 1.334 . S
C2220 H2191 0.962 . S
C2220 C2219 1.334 . S
C2220 C2221 1.287 1_455 S
C2221 C2220 1.287 1_655 S
C2221 C2222 1.524 . S
C2221 H2224 0.999 . S
C2222 H2192 0.950 . S
C2222 C2221 1.524 . S
C2222 C2223 1.415 1_655 S
C2223 H2193 0.950 . S
C2223 C2218 1.363 . S
C2223 C2222 1.415 1_455 S
H2224 C2221 0.999 . S
H2225 C2206 0.913 . S
H2226 C2244 0.951 . S
H2227 C2246 0.951 . S
H2228 C2248 0.950 . S
H2229 C2249 0.950 . S
H2230 C2251 0.950 . S
H2231 C2254 0.950 . S
H2232 C2255 0.950 . S
H2233 C2257 0.950 . S
H2234 C2258 0.950 . S
H2235 C2259 0.951 . S
H2236 C2261 0.951 . S
H2237 C2263 0.950 . S
H2238 C2264 0.950 . S
H2239 C2266 0.950 . S
H2240 C2269 0.950 . S
H2241 C2270 0.950 . S
H2242 C2272 0.950 . S
H2243 C2273 0.950 . S
C2244 H2226 0.951 . S
C2244 C2245 1.366 . S
C2244 C2246 1.388 . S
C2245 C2244 1.366 . S
C2245 C2249 1.385 . S
C2246 H2227 0.951 . S
C2246 C2244 1.388 . S
C2246 C2247 1.366 . S
C2247 C2246 1.366 . S
C2247 C2248 1.414 . S
C2247 C2250 1.499 . S
C2248 H2228 0.950 . S
C2248 C2247 1.414 . S
C2248 C2249 1.374 . S
C2249 H2229 0.950 . S
C2249 C2245 1.385 . S
C2249 C2248 1.374 . S
C2250 C2247 1.499 . S
C2250 C2251 1.373 . S
C2250 C2252 1.389 . S
C2251 H2230 0.950 . S
C2251 C2250 1.373 . S
C2251 C2267 1.377 . S
C2252 C2250 1.389 . S
C2252 C2253 1.524 . S
C2252 C2266 1.377 . S
C2253 C2252 1.524 . S
C2253 C2254 1.397 . S
C2253 C2258 1.363 . S
C2254 H2231 0.950 . S
C2254 C2253 1.397 . S
C2254 C2255 1.334 . S
C2255 H2232 0.950 . S
C2255 C2254 1.334 . S
C2255 C2256 1.287 . S
C2256 C2255 1.287 . S
C2256 C2257 1.524 . S
C2256 H2275 0.913 . S
C2257 H2233 0.950 . S
C2257 C2256 1.524 . S
C2257 C2258 1.415 . S
C2258 H2234 0.950 . S
C2258 C2253 1.363 . S
C2258 C2257 1.415 . S
C2259 H2235 0.951 . S
C2259 C2260 1.366 . S
C2259 C2261 1.388 . S
C2260 C2259 1.366 . S
C2260 C2264 1.385 . S
C2261 H2236 0.951 . S
C2261 C2259 1.388 . S
C2261 C2262 1.366 . S
C2262 C2261 1.366 . S
C2262 C2263 1.414 . S
C2262 C2265 1.499 . S
C2263 H2237 0.950 . S
C2263 C2262 1.414 . S
C2263 C2264 1.374 . S
C2264 H2238 0.950 . S
C2264 C2260 1.385 . S
C2264 C2263 1.374 . S
C2265 C2262 1.499 . S
C2265 C2266 1.373 . S
C2265 C2267 1.389 . S
C2266 H2239 0.950 . S
C2266 C2252 1.377 . S
C2266 C2265 1.373 . S
C2267 C2251 1.377 . S
C2267 C2265 1.389 . S
C2267 C2268 1.524 . S
C2268 C2267 1.524 . S
C2268 C2269 1.397 . S
C2268 C2273 1.363 . S
C2269 H2240 0.950 . S
C2269 C2268 1.397 . S
C2269 C2270 1.334 . S
C2270 H2241 0.950 . S
C2270 C2269 1.334 . S
C2270 C2271 1.287 . S
C2271 C2270 1.287 . S
C2271 C2272 1.524 . S
C2271 H2274 0.999 . S
C2272 H2242 0.950 . S
C2272 C2271 1.524 . S
C2272 C2273 1.415 . S
C2273 H2243 0.950 . S
C2273 C2268 1.363 . S
C2273 C2272 1.415 . S
H2274 C2271 0.999 . S
H2275 C2256 0.913 . S
H2276 C2294 0.951 . S
H2277 C2296 0.951 . S
H2278 C2298 0.950 . S
H2279 C2299 0.950 . S
H2280 C2301 0.950 . S
H2281 C2304 0.950 . S
H2282 C2305 0.950 . S
H2283 C2307 0.950 . S
H2284 C2308 0.950 . S
H2285 C2309 0.951 . S
H2286 C2311 0.951 . S
H2287 C2313 0.950 . S
H2288 C2314 0.950 . S
H2289 C2316 0.950 . S
H2290 C2319 0.950 . S
H2291 C2320 0.950 . S
H2292 C2322 0.950 . S
H2293 C2323 0.950 . S
C2294 H2276 0.951 . S
C2294 C2295 1.366 . S
C2294 C2296 1.388 . S
C2295 C2294 1.366 . S
C2295 C2299 1.385 . S
C2296 H2277 0.951 . S
C2296 C2294 1.388 . S
C2296 C2297 1.366 . S
C2297 C2296 1.366 . S
C2297 C2298 1.414 . S
C2297 C2300 1.499 . S
C2298 H2278 0.950 . S
C2298 C2297 1.414 . S
C2298 C2299 1.374 . S
C2299 H2279 0.950 . S
C2299 C2295 1.385 . S
C2299 C2298 1.374 . S
C2300 C2297 1.499 . S
C2300 C2301 1.373 . S
C2300 C2302 1.389 . S
C2301 H2280 0.950 . S
C2301 C2300 1.373 . S
C2301 C2317 1.377 . S
C2302 C2300 1.389 . S
C2302 C2303 1.524 . S
C2302 C2316 1.377 . S
C2303 C2302 1.524 . S
C2303 C2304 1.397 . S
C2303 C2308 1.363 . S
C2304 H2281 0.950 . S
C2304 C2303 1.397 . S
C2304 C2305 1.334 . S
C2305 H2282 0.950 . S
C2305 C2304 1.334 . S
C2305 C2306 1.287 . S
C2306 C2305 1.287 . S
C2306 C2307 1.524 . S
C2306 H2325 0.913 . S
C2307 H2283 0.950 . S
C2307 C2306 1.524 . S
C2307 C2308 1.415 . S
C2308 H2284 0.950 . S
C2308 C2303 1.363 . S
C2308 C2307 1.415 . S
C2309 H2285 0.951 . S
C2309 C2310 1.366 . S
C2309 C2311 1.388 . S
C2310 C2309 1.366 . S
C2310 C2314 1.385 . S
C2311 H2286 0.951 . S
C2311 C2309 1.388 . S
C2311 C2312 1.366 . S
C2312 C2311 1.366 . S
C2312 C2313 1.414 . S
C2312 C2315 1.499 . S
C2313 H2287 0.950 . S
C2313 C2312 1.414 . S
C2313 C2314 1.374 . S
C2314 H2288 0.950 . S
C2314 C2310 1.385 . S
C2314 C2313 1.374 . S
C2315 C2312 1.499 . S
C2315 C2316 1.373 . S
C2315 C2317 1.389 . S
C2316 H2289 0.950 . S
C2316 C2302 1.377 . S
C2316 C2315 1.373 . S
C2317 C2301 1.377 . S
C2317 C2315 1.389 . S
C2317 C2318 1.524 . S
C2318 C2317 1.524 . S
C2318 C2319 1.397 . S
C2318 C2323 1.363 . S
C2319 H2290 0.950 . S
C2319 C2318 1.397 . S
C2319 C2320 1.334 . S
C2320 H2291 0.950 . S
C2320 C2319 1.334 . S
C2320 C2321 1.287 . S
C2321 C2320 1.287 . S
C2321 C2322 1.524 . S
C2321 H2324 0.999 . S
C2322 H2292 0.950 . S
C2322 C2321 1.524 . S
C2322 C2323 1.415 . S
C2323 H2293 0.950 . S
C2323 C2318 1.363 . S
C2323 C2322 1.415 . S
H2324 C2321 0.999 . S
H2325 C2306 0.913 . S
H2326 C2344 0.951 . S
H2327 C2346 0.951 . S
H2328 C2348 0.950 . S
H2329 C2349 0.950 . S
H2330 C2351 0.950 . S
H2331 C2354 0.950 . S
H2332 C2355 0.950 . S
H2333 C2357 0.950 . S
H2334 C2358 0.950 . S
H2335 C2359 0.951 . S
H2336 C2361 0.951 . S
H2337 C2363 0.950 . S
H2338 C2364 0.950 . S
H2339 C2366 0.950 . S
H2340 C2369 0.950 . S
H2341 C2370 0.950 . S
H2342 C2372 0.950 . S
H2343 C2373 0.950 . S
C2344 H2326 0.951 . S
C2344 C2345 1.366 . S
C2344 C2346 1.388 . S
C2345 C2344 1.366 . S
C2345 C2349 1.385 . S
C2346 H2327 0.951 . S
C2346 C2344 1.388 . S
C2346 C2347 1.366 . S
C2347 C2346 1.366 . S
C2347 C2348 1.414 . S
C2347 C2350 1.499 . S
C2348 H2328 0.950 . S
C2348 C2347 1.414 . S
C2348 C2349 1.374 . S
C2349 H2329 0.950 . S
C2349 C2345 1.385 . S
C2349 C2348 1.374 . S
C2350 C2347 1.499 . S
C2350 C2351 1.373 . S
C2350 C2352 1.389 . S
C2351 H2330 0.950 . S
C2351 C2350 1.373 . S
C2351 C2367 1.377 . S
C2352 C2350 1.389 . S
C2352 C2353 1.524 . S
C2352 C2366 1.377 . S
C2353 C2352 1.524 . S
C2353 C2354 1.397 . S
C2353 C2358 1.363 . S
C2354 H2331 0.950 . S
C2354 C2353 1.397 . S
C2354 C2355 1.334 . S
C2355 H2332 0.950 . S
C2355 C2354 1.334 . S
C2355 C2356 1.287 . S
C2356 C2355 1.287 . S
C2356 C2357 1.524 . S
C2356 H2375 0.913 . S
C2357 H2333 0.950 . S
C2357 C2356 1.524 . S
C2357 C2358 1.415 . S
C2358 H2334 0.950 . S
C2358 C2353 1.363 . S
C2358 C2357 1.415 . S
C2359 H2335 0.951 . S
C2359 C2360 1.366 . S
C2359 C2361 1.388 . S
C2360 C2359 1.366 . S
C2360 C2364 1.385 . S
C2361 H2336 0.951 . S
C2361 C2359 1.388 . S
C2361 C2362 1.366 . S
C2362 C2361 1.366 . S
C2362 C2363 1.414 . S
C2362 C2365 1.499 . S
C2363 H2337 0.950 . S
C2363 C2362 1.414 . S
C2363 C2364 1.374 . S
C2364 H2338 0.950 . S
C2364 C2360 1.385 . S
C2364 C2363 1.374 . S
C2365 C2362 1.499 . S
C2365 C2366 1.373 . S
C2365 C2367 1.389 . S
C2366 H2339 0.950 . S
C2366 C2352 1.377 . S
C2366 C2365 1.373 . S
C2367 C2351 1.377 . S
C2367 C2365 1.389 . S
C2367 C2368 1.524 . S
C2368 C2367 1.524 . S
C2368 C2369 1.397 . S
C2368 C2373 1.363 . S
C2369 H2340 0.950 . S
C2369 C2368 1.397 . S
C2369 C2370 1.334 . S
C2370 H2341 0.950 . S
C2370 C2369 1.334 . S
C2370 C2371 1.287 . S
C2371 C2370 1.287 . S
C2371 C2372 1.524 . S
C2371 H2374 0.999 . S
C2372 H2342 0.950 . S
C2372 C2371 1.524 . S
C2372 C2373 1.415 . S
C2373 H2343 0.950 . S
C2373 C2368 1.363 . S
C2373 C2372 1.415 . S
H2374 C2371 0.999 . S
H2375 C2356 0.913 . S
H2376 C2394 0.951 . S
H2377 C2396 0.951 . S
H2378 C2398 0.950 . S
H2379 C2399 0.950 . S
H2380 C2401 0.950 . S
H2381 C2404 0.950 . S
H2382 C2405 0.950 . S
H2383 C2407 0.950 . S
H2384 C2408 0.950 . S
H2385 C2409 0.951 . S
H2386 C2411 0.951 . S
H2387 C2413 0.950 . S
H2388 C2414 0.950 . S
H2389 C2416 0.950 1_655 S
H2390 C2419 0.950 . S
H2391 C2420 0.950 . S
H2392 C2422 0.950 . S
H2393 C2423 0.950 . S
C2394 H2376 0.951 . S
C2394 C2395 1.366 . S
C2394 C2396 1.388 . S
C2395 C2394 1.366 . S
C2395 C2399 1.385 . S
C2396 H2377 0.951 . S
C2396 C2394 1.388 . S
C2396 C2397 1.366 . S
C2397 C2396 1.366 . S
C2397 C2398 1.414 . S
C2397 C2400 1.499 . S
C2398 H2378 0.950 . S
C2398 C2397 1.414 . S
C2398 C2399 1.374 . S
C2399 H2379 0.950 . S
C2399 C2395 1.385 . S
C2399 C2398 1.374 . S
C2400 C2397 1.499 . S
C2400 C2401 1.373 . S
C2400 C2402 1.389 . S
C2401 H2380 0.950 . S
C2401 C2400 1.373 . S
C2401 C2417 1.377 . S
C2402 C2400 1.389 . S
C2402 C2403 1.524 1_455 S
C2402 C2416 1.377 . S
C2403 C2402 1.524 1_655 S
C2403 C2404 1.397 . S
C2403 C2408 1.363 . S
C2404 H2381 0.950 . S
C2404 C2403 1.397 . S
C2404 C2405 1.334 . S
C2405 H2382 0.950 . S
C2405 C2404 1.334 . S
C2405 C2406 1.287 . S
C2406 C2405 1.287 . S
C2406 C2407 1.524 . S
C2406 H2425 0.913 . S
C2407 H2383 0.950 . S
C2407 C2406 1.524 . S
C2407 C2408 1.415 . S
C2408 H2384 0.950 . S
C2408 C2403 1.363 . S
C2408 C2407 1.415 . S
C2409 H2385 0.951 . S
C2409 C2410 1.366 . S
C2409 C2411 1.388 . S
C2410 C2409 1.366 . S
C2410 C2414 1.385 . S
C2411 H2386 0.951 . S
C2411 C2409 1.388 . S
C2411 C2412 1.366 . S
C2412 C2411 1.366 . S
C2412 C2413 1.414 . S
C2412 C2415 1.499 . S
C2413 H2387 0.950 . S
C2413 C2412 1.414 . S
C2413 C2414 1.374 . S
C2414 H2388 0.950 . S
C2414 C2410 1.385 . S
C2414 C2413 1.374 . S
C2415 C2412 1.499 . S
C2415 C2416 1.373 . S
C2415 C2417 1.389 . S
C2416 H2389 0.950 1_455 S
C2416 C2402 1.377 . S
C2416 C2415 1.373 . S
C2417 C2401 1.377 . S
C2417 C2415 1.389 . S
C2417 C2418 1.524 . S
C2418 C2417 1.524 . S
C2418 C2419 1.397 . S
C2418 C2423 1.363 . S
C2419 H2390 0.950 . S
C2419 C2418 1.397 . S
C2419 C2420 1.334 . S
C2420 H2391 0.950 . S
C2420 C2419 1.334 . S
C2420 C2421 1.287 . S
C2421 C2420 1.287 . S
C2421 C2422 1.524 . S
C2421 H2424 0.999 . S
C2422 H2392 0.950 . S
C2422 C2421 1.524 . S
C2422 C2423 1.415 . S
C2423 H2393 0.950 . S
C2423 C2418 1.363 . S
C2423 C2422 1.415 . S
H2424 C2421 0.999 . S
H2425 C2406 0.913 . S
H2426 C2444 0.951 . S
H2427 C2446 0.951 . S
H2428 C2448 0.950 . S
H2429 C2449 0.950 . S
H2430 C2451 0.950 . S
H2431 C2454 0.950 . S
H2432 C2455 0.950 . S
H2433 C2457 0.950 . S
H2434 C2458 0.950 . S
H2435 C2459 0.951 . S
H2436 C2461 0.951 . S
H2437 C2463 0.950 . S
H2438 C2464 0.950 . S
H2439 C2466 0.950 . S
H2440 C2469 0.950 . S
H2441 C2470 0.950 . S
H2442 C2472 0.950 . S
H2443 C2473 0.950 . S
C2444 H2426 0.951 . S
C2444 C2445 1.366 . S
C2444 C2446 1.388 . S
C2445 C2444 1.366 . S
C2445 C2449 1.385 . S
C2446 H2427 0.951 . S
C2446 C2444 1.388 . S
C2446 C2447 1.366 . S
C2447 C2446 1.366 . S
C2447 C2448 1.414 . S
C2447 C2450 1.499 . S
C2448 H2428 0.950 . S
C2448 C2447 1.414 . S
C2448 C2449 1.374 . S
C2449 H2429 0.950 . S
C2449 C2445 1.385 . S
C2449 C2448 1.374 . S
C2450 C2447 1.499 . S
C2450 C2451 1.373 . S
C2450 C2452 1.389 . S
C2451 H2430 0.950 . S
C2451 C2450 1.373 . S
C2451 C2467 1.377 . S
C2452 C2450 1.389 . S
C2452 C2453 1.524 . S
C2452 C2466 1.377 . S
C2453 C2452 1.524 . S
C2453 C2454 1.397 . S
C2453 C2458 1.363 . S
C2454 H2431 0.950 . S
C2454 C2453 1.397 . S
C2454 C2455 1.334 . S
C2455 H2432 0.950 . S
C2455 C2454 1.334 . S
C2455 C2456 1.287 . S
C2456 C2455 1.287 . S
C2456 C2457 1.524 . S
C2456 H2475 0.913 . S
C2457 H2433 0.950 . S
C2457 C2456 1.524 . S
C2457 C2458 1.415 . S
C2458 H2434 0.950 . S
C2458 C2453 1.363 . S
C2458 C2457 1.415 . S
C2459 H2435 0.951 . S
C2459 C2460 1.366 . S
C2459 C2461 1.388 . S
C2460 C2459 1.366 . S
C2460 C2464 1.385 . S
C2461 H2436 0.951 . S
C2461 C2459 1.388 . S
C2461 C2462 1.366 . S
C2462 C2461 1.366 . S
C2462 C2463 1.414 . S
C2462 C2465 1.499 . S
C2463 H2437 0.950 . S
C2463 C2462 1.414 . S
C2463 C2464 1.374 . S
C2464 H2438 0.950 . S
C2464 C2460 1.385 . S
C2464 C2463 1.374 . S
C2465 C2462 1.499 . S
C2465 C2466 1.373 . S
C2465 C2467 1.389 . S
C2466 H2439 0.950 . S
C2466 C2452 1.377 . S
C2466 C2465 1.373 . S
C2467 C2451 1.377 . S
C2467 C2465 1.389 . S
C2467 C2468 1.524 . S
C2468 C2467 1.524 . S
C2468 C2469 1.397 . S
C2468 C2473 1.363 . S
C2469 H2440 0.950 . S
C2469 C2468 1.397 . S
C2469 C2470 1.334 . S
C2470 H2441 0.950 . S
C2470 C2469 1.334 . S
C2470 C2471 1.287 . S
C2471 C2470 1.287 . S
C2471 C2472 1.524 . S
C2471 H2474 0.999 . S
C2472 H2442 0.950 . S
C2472 C2471 1.524 . S
C2472 C2473 1.415 . S
C2473 H2443 0.950 . S
C2473 C2468 1.363 . S
C2473 C2472 1.415 . S
H2474 C2471 0.999 . S
H2475 C2456 0.913 . S
H2476 C2494 0.951 . S
H2477 C2496 0.951 . S
H2478 C2498 0.950 . S
H2479 C2499 0.950 . S
H2480 C2501 0.950 . S
H2481 C2504 0.950 . S
H2482 C2505 0.950 . S
H2483 C2507 0.950 . S
H2484 C2508 0.950 . S
H2485 C2509 0.951 . S
H2486 C2511 0.951 . S
H2487 C2513 0.950 . S
H2488 C2514 0.950 . S
H2489 C2516 0.950 . S
H2490 C2519 0.950 . S
H2491 C2520 0.950 . S
H2492 C2522 0.950 . S
H2493 C2523 0.950 . S
C2494 H2476 0.951 . S
C2494 C2495 1.366 . S
C2494 C2496 1.388 . S
C2495 C2494 1.366 . S
C2495 C2499 1.385 . S
C2496 H2477 0.951 . S
C2496 C2494 1.388 . S
C2496 C2497 1.366 . S
C2497 C2496 1.366 . S
C2497 C2498 1.414 . S
C2497 C2500 1.499 . S
C2498 H2478 0.950 . S
C2498 C2497 1.414 . S
C2498 C2499 1.374 . S
C2499 H2479 0.950 . S
C2499 C2495 1.385 . S
C2499 C2498 1.374 . S
C2500 C2497 1.499 . S
C2500 C2501 1.373 . S
C2500 C2502 1.389 . S
C2501 H2480 0.950 . S
C2501 C2500 1.373 . S
C2501 C2517 1.377 . S
C2502 C2500 1.389 . S
C2502 C2503 1.524 . S
C2502 C2516 1.377 . S
C2503 C2502 1.524 . S
C2503 C2504 1.397 . S
C2503 C2508 1.363 . S
C2504 H2481 0.950 . S
C2504 C2503 1.397 . S
C2504 C2505 1.334 . S
C2505 H2482 0.950 . S
C2505 C2504 1.334 . S
C2505 C2506 1.287 . S
C2506 C2505 1.287 . S
C2506 C2507 1.524 . S
C2506 H2525 0.913 . S
C2507 H2483 0.950 . S
C2507 C2506 1.524 . S
C2507 C2508 1.415 . S
C2508 H2484 0.950 . S
C2508 C2503 1.363 . S
C2508 C2507 1.415 . S
C2509 H2485 0.951 . S
C2509 C2510 1.366 . S
C2509 C2511 1.388 . S
C2510 C2509 1.366 . S
C2510 C2514 1.385 . S
C2511 H2486 0.951 . S
C2511 C2509 1.388 . S
C2511 C2512 1.366 . S
C2512 C2511 1.366 . S
C2512 C2513 1.414 . S
C2512 C2515 1.499 . S
C2513 H2487 0.950 . S
C2513 C2512 1.414 . S
C2513 C2514 1.374 . S
C2514 H2488 0.950 . S
C2514 C2510 1.385 . S
C2514 C2513 1.374 . S
C2515 C2512 1.499 . S
C2515 C2516 1.373 . S
C2515 C2517 1.389 . S
C2516 H2489 0.950 . S
C2516 C2502 1.377 . S
C2516 C2515 1.373 . S
C2517 C2501 1.377 . S
C2517 C2515 1.389 . S
C2517 C2518 1.524 . S
C2518 C2517 1.524 . S
C2518 C2519 1.397 . S
C2518 C2523 1.363 . S
C2519 H2490 0.950 . S
C2519 C2518 1.397 . S
C2519 C2520 1.334 . S
C2520 H2491 0.950 . S
C2520 C2519 1.334 . S
C2520 C2521 1.287 . S
C2521 C2520 1.287 . S
C2521 C2522 1.524 . S
C2521 H2524 0.999 . S
C2522 H2492 0.950 . S
C2522 C2521 1.524 . S
C2522 C2523 1.415 . S
C2523 H2493 0.950 . S
C2523 C2518 1.363 . S
C2523 C2522 1.415 . S
H2524 C2521 0.999 . S
H2525 C2506 0.913 . S
H2526 C2544 0.951 . S
H2527 C2546 0.951 . S
H2528 C2548 0.950 . S
H2529 C2549 0.950 . S
H2530 C2551 0.950 . S
H2531 C2554 0.950 . S
H2532 C2555 0.950 . S
H2533 C2557 0.950 . S
H2534 C2558 0.950 . S
H2535 C2559 0.951 . S
H2536 C2561 0.951 . S
H2537 C2563 0.950 . S
H2538 C2564 0.950 . S
H2539 C2566 0.950 . S
H2540 C2569 0.950 . S
H2541 C2570 0.950 . S
H2542 C2572 0.950 . S
H2543 C2573 0.950 . S
C2544 H2526 0.951 . S
C2544 C2545 1.366 . S
C2544 C2546 1.388 . S
C2545 C2544 1.366 . S
C2545 C2549 1.385 . S
C2546 H2527 0.951 . S
C2546 C2544 1.388 . S
C2546 C2547 1.366 . S
C2547 C2546 1.366 . S
C2547 C2548 1.414 . S
C2547 C2550 1.499 . S
C2548 H2528 0.950 . S
C2548 C2547 1.414 . S
C2548 C2549 1.374 . S
C2549 H2529 0.950 . S
C2549 C2545 1.385 . S
C2549 C2548 1.374 . S
C2550 C2547 1.499 . S
C2550 C2551 1.373 . S
C2550 C2552 1.389 . S
C2551 H2530 0.950 . S
C2551 C2550 1.373 . S
C2551 C2567 1.377 . S
C2552 C2550 1.389 . S
C2552 C2553 1.524 . S
C2552 C2566 1.377 . S
C2553 C2552 1.524 . S
C2553 C2554 1.397 . S
C2553 C2558 1.363 . S
C2554 H2531 0.950 . S
C2554 C2553 1.397 . S
C2554 C2555 1.334 . S
C2555 H2532 0.950 . S
C2555 C2554 1.334 . S
C2555 C2556 1.287 . S
C2556 C2555 1.287 . S
C2556 C2557 1.524 . S
C2556 H2575 0.913 . S
C2557 H2533 0.950 . S
C2557 C2556 1.524 . S
C2557 C2558 1.415 . S
C2558 H2534 0.950 . S
C2558 C2553 1.363 . S
C2558 C2557 1.415 . S
C2559 H2535 0.951 . S
C2559 C2560 1.366 . S
C2559 C2561 1.388 . S
C2560 C2559 1.366 . S
C2560 C2564 1.385 . S
C2561 H2536 0.951 . S
C2561 C2559 1.388 . S
C2561 C2562 1.366 . S
C2562 C2561 1.366 . S
C2562 C2563 1.414 . S
C2562 C2565 1.499 . S
C2563 H2537 0.950 . S
C2563 C2562 1.414 . S
C2563 C2564 1.374 . S
C2564 H2538 0.950 . S
C2564 C2560 1.385 . S
C2564 C2563 1.374 . S
C2565 C2562 1.499 . S
C2565 C2566 1.373 . S
C2565 C2567 1.389 . S
C2566 H2539 0.950 . S
C2566 C2552 1.377 . S
C2566 C2565 1.373 . S
C2567 C2551 1.377 . S
C2567 C2565 1.389 . S
C2567 C2568 1.524 . S
C2568 C2567 1.524 . S
C2568 C2569 1.397 . S
C2568 C2573 1.363 . S
C2569 H2540 0.950 . S
C2569 C2568 1.397 . S
C2569 C2570 1.334 . S
C2570 H2541 0.950 . S
C2570 C2569 1.334 . S
C2570 C2571 1.287 . S
C2571 C2570 1.287 . S
C2571 C2572 1.524 . S
C2571 H2574 0.999 . S
C2572 H2542 0.950 . S
C2572 C2571 1.524 . S
C2572 C2573 1.415 . S
C2573 H2543 0.950 . S
C2573 C2568 1.363 . S
C2573 C2572 1.415 . S
H2574 C2571 0.999 . S
H2575 C2556 0.913 . S
H2576 C2594 0.951 . S
H2577 C2596 0.951 . S
H2578 C2598 0.950 . S
H2579 C2599 0.950 . S
H2580 C2601 0.950 . S
H2581 C2604 0.950 . S
H2582 C2605 0.950 . S
H2583 C2607 0.950 . S
H2584 C2608 0.950 . S
H2585 C2609 0.951 . S
H2586 C2611 0.951 . S
H2587 C2613 0.950 . S
H2588 C2614 0.950 . S
H2589 C2616 0.983 . S
H2590 C2619 0.950 . S
H2591 C2620 0.950 . S
H2592 C2622 0.950 . S
H2593 C2623 0.950 . S
C2594 H2576 0.951 . S
C2594 C2595 1.366 . S
C2594 C2596 1.388 . S
C2595 C2594 1.366 . S
C2595 C2599 1.385 . S
C2596 H2577 0.951 . S
C2596 C2594 1.388 . S
C2596 C2597 1.366 . S
C2597 C2596 1.366 . S
C2597 C2598 1.414 . S
C2597 C2600 1.499 . S
C2598 H2578 0.950 . S
C2598 C2597 1.414 . S
C2598 C2599 1.374 . S
C2599 H2579 0.950 . S
C2599 C2595 1.385 . S
C2599 C2598 1.374 . S
C2600 C2597 1.499 . S
C2600 C2601 1.373 . S
C2600 C2602 1.389 . S
C2601 H2580 0.950 . S
C2601 C2600 1.373 . S
C2601 C2617 1.377 . S
C2602 C2600 1.389 . S
C2602 C2603 1.524 1_545 S
C2602 C2616 1.377 . S
C2603 C2602 1.524 1_565 S
C2603 C2604 1.397 . S
C2603 C2608 1.363 . S
C2604 H2581 0.950 . S
C2604 C2603 1.397 . S
C2604 C2605 1.334 . S
C2605 H2582 0.950 . S
C2605 C2604 1.334 . S
C2605 C2606 1.287 . S
C2606 C2605 1.287 . S
C2606 C2607 1.524 . S
C2606 H2625 0.913 . S
C2607 H2583 0.950 . S
C2607 C2606 1.524 . S
C2607 C2608 1.415 . S
C2608 H2584 0.950 . S
C2608 C2603 1.363 . S
C2608 C2607 1.415 . S
C2609 H2585 0.951 . S
C2609 C2610 1.366 . S
C2609 C2611 1.388 . S
C2610 C2609 1.366 . S
C2610 C2614 1.385 . S
C2611 H2586 0.951 . S
C2611 C2609 1.388 . S
C2611 C2612 1.366 . S
C2612 C2611 1.366 . S
C2612 C2613 1.414 . S
C2612 C2615 1.499 . S
C2613 H2587 0.950 . S
C2613 C2612 1.414 . S
C2613 C2614 1.374 . S
C2614 H2588 0.950 . S
C2614 C2610 1.385 . S
C2614 C2613 1.374 . S
C2615 C2612 1.499 . S
C2615 C2616 1.373 . S
C2615 C2617 1.389 . S
C2616 H2589 0.983 . S
C2616 C2602 1.377 . S
C2616 C2615 1.373 . S
C2617 C2601 1.377 . S
C2617 C2615 1.389 . S
C2617 C2618 1.524 . S
C2618 C2617 1.524 . S
C2618 C2619 1.397 . S
C2618 C2623 1.363 . S
C2619 H2590 0.950 . S
C2619 C2618 1.397 . S
C2619 C2620 1.334 . S
C2620 H2591 0.950 . S
C2620 C2619 1.334 . S
C2620 C2621 1.287 . S
C2621 C2620 1.287 . S
C2621 C2622 1.524 . S
C2621 H2624 0.999 . S
C2622 H2592 0.950 . S
C2622 C2621 1.524 . S
C2622 C2623 1.415 . S
C2623 H2593 0.950 . S
C2623 C2618 1.363 . S
C2623 C2622 1.415 . S
H2624 C2621 0.999 . S
H2625 C2606 0.913 . S
H2626 C2644 0.951 . S
H2627 C2646 0.951 . S
H2628 C2648 0.950 . S
H2629 C2649 0.950 . S
H2630 C2651 0.950 . S
H2631 C2654 0.950 . S
H2632 C2655 0.950 . S
H2633 C2657 0.950 . S
H2634 C2658 0.950 . S
H2635 C2659 0.951 . S
H2636 C2661 0.951 . S
H2637 C2663 0.950 . S
H2638 C2664 0.950 . S
H2639 C2666 0.950 . S
H2640 C2669 0.950 . S
H2641 C2670 0.950 . S
H2642 C2672 0.950 . S
H2643 C2673 0.950 . S
C2644 H2626 0.951 . S
C2644 C2645 1.366 . S
C2644 C2646 1.388 . S
C2645 C2644 1.366 . S
C2645 C2649 1.385 . S
C2646 H2627 0.951 . S
C2646 C2644 1.388 . S
C2646 C2647 1.366 . S
C2647 C2646 1.366 . S
C2647 C2648 1.414 . S
C2647 C2650 1.499 . S
C2648 H2628 0.950 . S
C2648 C2647 1.414 . S
C2648 C2649 1.374 . S
C2649 H2629 0.950 . S
C2649 C2645 1.385 . S
C2649 C2648 1.374 . S
C2650 C2647 1.499 . S
C2650 C2651 1.373 . S
C2650 C2652 1.389 . S
C2651 H2630 0.950 . S
C2651 C2650 1.373 . S
C2651 C2667 1.377 . S
C2652 C2650 1.389 . S
C2652 C2653 1.524 . S
C2652 C2666 1.377 . S
C2653 C2652 1.524 . S
C2653 C2654 1.397 . S
C2653 C2658 1.363 . S
C2654 H2631 0.950 . S
C2654 C2653 1.397 . S
C2654 C2655 1.334 . S
C2655 H2632 0.950 . S
C2655 C2654 1.334 . S
C2655 C2656 1.287 . S
C2656 C2655 1.287 . S
C2656 C2657 1.524 . S
C2656 H2675 0.913 . S
C2657 H2633 0.950 . S
C2657 C2656 1.524 . S
C2657 C2658 1.415 . S
C2658 H2634 0.950 . S
C2658 C2653 1.363 . S
C2658 C2657 1.415 . S
C2659 H2635 0.951 . S
C2659 C2660 1.366 . S
C2659 C2661 1.388 . S
C2660 C2659 1.366 . S
C2660 C2664 1.385 . S
C2661 H2636 0.951 . S
C2661 C2659 1.388 . S
C2661 C2662 1.366 . S
C2662 C2661 1.366 . S
C2662 C2663 1.414 . S
C2662 C2665 1.499 . S
C2663 H2637 0.950 . S
C2663 C2662 1.414 . S
C2663 C2664 1.374 . S
C2664 H2638 0.950 . S
C2664 C2660 1.385 . S
C2664 C2663 1.374 . S
C2665 C2662 1.499 . S
C2665 C2666 1.373 . S
C2665 C2667 1.389 . S
C2666 H2639 0.950 . S
C2666 C2652 1.377 . S
C2666 C2665 1.373 . S
C2667 C2651 1.377 . S
C2667 C2665 1.389 . S
C2667 C2668 1.524 . S
C2668 C2667 1.524 . S
C2668 C2669 1.397 . S
C2668 C2673 1.363 . S
C2669 H2640 0.950 . S
C2669 C2668 1.397 . S
C2669 C2670 1.334 . S
C2670 H2641 0.950 . S
C2670 C2669 1.334 . S
C2670 C2671 1.287 . S
C2671 C2670 1.287 . S
C2671 C2672 1.524 . S
C2671 H2674 0.999 . S
C2672 H2642 0.950 . S
C2672 C2671 1.524 . S
C2672 C2673 1.415 . S
C2673 H2643 0.950 . S
C2673 C2668 1.363 . S
C2673 C2672 1.415 . S
H2674 C2671 0.999 . S
H2675 C2656 0.913 . S
H2676 C2694 0.951 . S
H2677 C2696 0.951 . S
H2678 C2698 0.950 . S
H2679 C2699 0.950 . S
H2680 C2701 0.950 . S
H2681 C2704 0.950 . S
H2682 C2705 0.950 . S
H2683 C2707 0.950 . S
H2684 C2708 0.950 . S
H2685 C2709 0.951 . S
H2686 C2711 0.951 . S
H2687 C2713 0.950 . S
H2688 C2714 0.950 . S
H2689 C2716 0.950 . S
H2690 C2719 0.950 1_545 S
H2691 C2720 0.950 . S
H2692 C2722 0.950 . S
H2693 C2723 0.950 . S
C2694 H2676 0.951 . S
C2694 C2695 1.366 . S
C2694 C2696 1.388 . S
C2695 C2694 1.366 . S
C2695 C2699 1.385 . S
C2696 H2677 0.951 . S
C2696 C2694 1.388 . S
C2696 C2697 1.366 . S
C2697 C2696 1.366 . S
C2697 C2698 1.414 . S
C2697 C2700 1.499 . S
C2698 H2678 0.950 . S
C2698 C2697 1.414 . S
C2698 C2699 1.374 . S
C2699 H2679 0.950 . S
C2699 C2695 1.385 . S
C2699 C2698 1.374 . S
C2700 C2697 1.499 . S
C2700 C2701 1.373 . S
C2700 C2702 1.389 . S
C2701 H2680 0.950 . S
C2701 C2700 1.373 . S
C2701 C2717 1.377 . S
C2702 C2700 1.389 . S
C2702 C2703 1.524 . S
C2702 C2716 1.377 . S
C2703 C2702 1.524 . S
C2703 C2704 1.397 . S
C2703 C2708 1.363 . S
C2704 H2681 0.950 . S
C2704 C2703 1.397 . S
C2704 C2705 1.334 . S
C2705 H2682 0.950 . S
C2705 C2704 1.334 . S
C2705 C2706 1.287 . S
C2706 C2705 1.287 . S
C2706 C2707 1.524 . S
C2706 H2725 0.913 . S
C2707 H2683 0.950 . S
C2707 C2706 1.524 . S
C2707 C2708 1.415 . S
C2708 H2684 0.950 . S
C2708 C2703 1.363 . S
C2708 C2707 1.415 . S
C2709 H2685 0.951 . S
C2709 C2710 1.366 . S
C2709 C2711 1.388 . S
C2710 C2709 1.366 . S
C2710 C2714 1.385 . S
C2711 H2686 0.951 . S
C2711 C2709 1.388 . S
C2711 C2712 1.366 . S
C2712 C2711 1.366 . S
C2712 C2713 1.414 . S
C2712 C2715 1.499 . S
C2713 H2687 0.950 . S
C2713 C2712 1.414 . S
C2713 C2714 1.374 . S
C2714 H2688 0.950 . S
C2714 C2710 1.385 . S
C2714 C2713 1.374 . S
C2715 C2712 1.499 . S
C2715 C2716 1.373 . S
C2715 C2717 1.389 . S
C2716 H2689 0.950 . S
C2716 C2702 1.377 . S
C2716 C2715 1.373 . S
C2717 C2701 1.377 . S
C2717 C2715 1.389 . S
C2717 C2718 1.524 1_545 S
C2718 C2717 1.524 1_565 S
C2718 C2719 1.397 . S
C2718 C2723 1.363 . S
C2719 H2690 0.950 1_565 S
C2719 C2718 1.397 . S
C2719 C2720 1.334 . S
C2720 H2691 0.950 . S
C2720 C2719 1.334 . S
C2720 C2721 1.287 . S
C2721 C2720 1.287 . S
C2721 C2722 1.524 . S
C2721 H2724 0.999 . S
C2722 H2692 0.950 . S
C2722 C2721 1.524 . S
C2722 C2723 1.415 . S
C2723 H2693 0.950 . S
C2723 C2718 1.363 . S
C2723 C2722 1.415 . S
H2724 C2721 0.999 . S
H2725 C2706 0.913 . S
H2726 C2744 0.951 . S
H2727 C2746 0.951 . S
H2728 C2748 0.950 . S
H2729 C2749 0.950 . S
H2730 C2751 0.950 . S
H2731 C2754 0.950 . S
H2732 C2755 0.950 . S
H2733 C2757 0.950 . S
H2734 C2758 0.950 . S
H2735 C2759 0.951 . S
H2736 C2761 0.951 . S
H2737 C2763 0.950 . S
H2738 C2764 0.950 . S
H2739 C2766 0.950 . S
H2740 C2769 0.950 . S
H2741 C2770 0.950 . S
H2742 C2772 0.950 . S
H2743 C2773 0.950 . S
C2744 H2726 0.951 . S
C2744 C2745 1.366 . S
C2744 C2746 1.388 . S
C2745 C2744 1.366 . S
C2745 C2749 1.385 . S
C2746 H2727 0.951 . S
C2746 C2744 1.388 . S
C2746 C2747 1.366 . S
C2747 C2746 1.366 . S
C2747 C2748 1.414 . S
C2747 C2750 1.499 . S
C2748 H2728 0.950 . S
C2748 C2747 1.414 . S
C2748 C2749 1.374 . S
C2749 H2729 0.950 . S
C2749 C2745 1.385 . S
C2749 C2748 1.374 . S
C2750 C2747 1.499 . S
C2750 C2751 1.373 . S
C2750 C2752 1.389 . S
C2751 H2730 0.950 . S
C2751 C2750 1.373 . S
C2751 C2767 1.377 . S
C2752 C2750 1.389 . S
C2752 C2753 1.524 . S
C2752 C2766 1.377 . S
C2753 C2752 1.524 . S
C2753 C2754 1.397 . S
C2753 C2758 1.363 . S
C2754 H2731 0.950 . S
C2754 C2753 1.397 . S
C2754 C2755 1.334 . S
C2755 H2732 0.950 . S
C2755 C2754 1.334 . S
C2755 C2756 1.287 . S
C2756 C2755 1.287 . S
C2756 C2757 1.524 . S
C2756 H2775 0.913 . S
C2757 H2733 0.950 . S
C2757 C2756 1.524 . S
C2757 C2758 1.415 . S
C2758 H2734 0.950 . S
C2758 C2753 1.363 . S
C2758 C2757 1.415 . S
C2759 H2735 0.951 . S
C2759 C2760 1.366 . S
C2759 C2761 1.388 . S
C2760 C2759 1.366 . S
C2760 C2764 1.385 . S
C2761 H2736 0.951 . S
C2761 C2759 1.388 . S
C2761 C2762 1.366 . S
C2762 C2761 1.366 . S
C2762 C2763 1.414 . S
C2762 C2765 1.499 . S
C2763 H2737 0.950 . S
C2763 C2762 1.414 . S
C2763 C2764 1.374 . S
C2764 H2738 0.950 . S
C2764 C2760 1.385 . S
C2764 C2763 1.374 . S
C2765 C2762 1.499 . S
C2765 C2766 1.373 . S
C2765 C2767 1.389 . S
C2766 H2739 0.950 . S
C2766 C2752 1.377 . S
C2766 C2765 1.373 . S
C2767 C2751 1.377 . S
C2767 C2765 1.389 . S
C2767 C2768 1.524 . S
C2768 C2767 1.524 . S
C2768 C2769 1.397 . S
C2768 C2773 1.363 . S
C2769 H2740 0.950 . S
C2769 C2768 1.397 . S
C2769 C2770 1.334 . S
C2770 H2741 0.950 . S
C2770 C2769 1.334 . S
C2770 C2771 1.287 . S
C2771 C2770 1.287 . S
C2771 C2772 1.524 . S
C2771 H2774 0.999 . S
C2772 H2742 0.950 . S
C2772 C2771 1.524 . S
C2772 C2773 1.415 . S
C2773 H2743 0.950 . S
C2773 C2768 1.363 . S
C2773 C2772 1.415 . S
H2774 C2771 0.999 . S
H2775 C2756 0.913 . S
H2776 C2794 0.951 . S
H2777 C2796 0.951 . S
H2778 C2798 0.950 . S
H2779 C2799 0.950 . S
H2780 C2801 0.950 . S
H2781 C2804 0.950 . S
H2782 C2805 0.950 . S
H2783 C2807 0.950 . S
H2784 C2808 0.950 . S
H2785 C2809 0.951 . S
H2786 C2811 0.951 . S
H2787 C2813 0.950 . S
H2788 C2814 0.950 . S
H2789 C2816 0.950 . S
H2790 C2819 0.950 . S
H2791 C2820 0.950 . S
H2792 C2822 0.950 . S
H2793 C2823 0.950 . S
C2794 H2776 0.951 . S
C2794 C2795 1.366 . S
C2794 C2796 1.388 . S
C2795 C2794 1.366 . S
C2795 C2799 1.385 . S
C2796 H2777 0.951 . S
C2796 C2794 1.388 . S
C2796 C2797 1.366 . S
C2797 C2796 1.366 . S
C2797 C2798 1.414 . S
C2797 C2800 1.499 . S
C2798 H2778 0.950 . S
C2798 C2797 1.414 . S
C2798 C2799 1.374 . S
C2799 H2779 0.950 . S
C2799 C2795 1.385 . S
C2799 C2798 1.374 . S
C2800 C2797 1.499 . S
C2800 C2801 1.373 . S
C2800 C2802 1.389 . S
C2801 H2780 0.950 . S
C2801 C2800 1.373 . S
C2801 C2817 1.377 . S
C2802 C2800 1.389 . S
C2802 C2803 1.524 1_545 S
C2802 C2816 1.377 . S
C2803 C2802 1.524 1_565 S
C2803 C2804 1.397 . S
C2803 C2808 1.363 . S
C2804 H2781 0.950 . S
C2804 C2803 1.397 . S
C2804 C2805 1.334 . S
C2805 H2782 0.950 . S
C2805 C2804 1.334 . S
C2805 C2806 1.287 . S
C2806 C2805 1.287 . S
C2806 C2807 1.524 . S
C2806 H2825 0.913 . S
C2807 H2783 0.950 . S
C2807 C2806 1.524 . S
C2807 C2808 1.415 . S
C2808 H2784 0.950 . S
C2808 C2803 1.363 . S
C2808 C2807 1.415 . S
C2809 H2785 0.951 . S
C2809 C2810 1.366 . S
C2809 C2811 1.388 . S
C2810 C2809 1.366 . S
C2810 C2814 1.385 . S
C2811 H2786 0.951 . S
C2811 C2809 1.388 . S
C2811 C2812 1.366 . S
C2812 C2811 1.366 . S
C2812 C2813 1.414 . S
C2812 C2815 1.499 . S
C2813 H2787 0.950 . S
C2813 C2812 1.414 . S
C2813 C2814 1.374 . S
C2814 H2788 0.950 . S
C2814 C2810 1.385 . S
C2814 C2813 1.374 . S
C2815 C2812 1.499 . S
C2815 C2816 1.373 . S
C2815 C2817 1.389 . S
C2816 H2789 0.950 . S
C2816 C2802 1.377 . S
C2816 C2815 1.373 . S
C2817 C2801 1.377 . S
C2817 C2815 1.389 . S
C2817 C2818 1.524 . S
C2818 C2817 1.524 . S
C2818 C2819 1.397 . S
C2818 C2823 1.363 . S
C2819 H2790 0.950 . S
C2819 C2818 1.397 . S
C2819 C2820 1.334 . S
C2820 H2791 0.950 . S
C2820 C2819 1.334 . S
C2820 C2821 1.287 . S
C2821 C2820 1.287 . S
C2821 C2822 1.524 . S
C2821 H2824 0.999 . S
C2822 H2792 0.950 . S
C2822 C2821 1.524 . S
C2822 C2823 1.415 . S
C2823 H2793 0.950 . S
C2823 C2818 1.363 . S
C2823 C2822 1.415 . S
H2824 C2821 0.999 . S
H2825 C2806 0.913 . S
H2826 C2844 0.951 . S
H2827 C2846 0.951 . S
H2828 C2848 0.950 . S
H2829 C2849 0.950 . S
H2830 C2851 0.950 . S
H2831 C2854 0.950 . S
H2832 C2855 0.950 . S
H2833 C2857 0.950 . S
H2834 C2858 0.950 . S
H2835 C2859 0.951 . S
H2836 C2861 0.951 . S
H2837 C2863 0.950 . S
H2838 C2864 0.950 . S
H2839 C2866 0.950 . S
H2840 C2869 0.950 . S
H2841 C2870 0.950 . S
H2842 C2872 0.950 . S
H2843 C2873 0.950 . S
C2844 H2826 0.951 . S
C2844 C2845 1.366 . S
C2844 C2846 1.388 . S
C2845 C2844 1.366 . S
C2845 C2849 1.385 . S
C2846 H2827 0.951 . S
C2846 C2844 1.388 . S
C2846 C2847 1.366 . S
C2847 C2846 1.366 . S
C2847 C2848 1.414 . S
C2847 C2850 1.499 . S
C2848 H2828 0.950 . S
C2848 C2847 1.414 . S
C2848 C2849 1.374 . S
C2849 H2829 0.950 . S
C2849 C2845 1.385 . S
C2849 C2848 1.374 . S
C2850 C2847 1.499 . S
C2850 C2851 1.373 . S
C2850 C2852 1.389 . S
C2851 H2830 0.950 . S
C2851 C2850 1.373 . S
C2851 C2867 1.377 . S
C2852 C2850 1.389 . S
C2852 C2853 1.524 . S
C2852 C2866 1.377 . S
C2853 C2852 1.524 . S
C2853 C2854 1.397 . S
C2853 C2858 1.363 . S
C2854 H2831 0.950 . S
C2854 C2853 1.397 . S
C2854 C2855 1.334 . S
C2855 H2832 0.950 . S
C2855 C2854 1.334 . S
C2855 C2856 1.287 . S
C2856 C2855 1.287 . S
C2856 C2857 1.524 . S
C2856 H2875 0.913 . S
C2857 H2833 0.950 . S
C2857 C2856 1.524 . S
C2857 C2858 1.415 . S
C2858 H2834 0.950 . S
C2858 C2853 1.363 . S
C2858 C2857 1.415 . S
C2859 H2835 0.951 . S
C2859 C2860 1.366 . S
C2859 C2861 1.388 . S
C2860 C2859 1.366 . S
C2860 C2864 1.385 . S
C2861 H2836 0.951 . S
C2861 C2859 1.388 . S
C2861 C2862 1.366 . S
C2862 C2861 1.366 . S
C2862 C2863 1.414 . S
C2862 C2865 1.499 . S
C2863 H2837 0.950 . S
C2863 C2862 1.414 . S
C2863 C2864 1.374 . S
C2864 H2838 0.950 . S
C2864 C2860 1.385 . S
C2864 C2863 1.374 . S
C2865 C2862 1.499 . S
C2865 C2866 1.373 . S
C2865 C2867 1.389 . S
C2866 H2839 0.950 . S
C2866 C2852 1.377 . S
C2866 C2865 1.373 . S
C2867 C2851 1.377 . S
C2867 C2865 1.389 . S
C2867 C2868 1.524 . S
C2868 C2867 1.524 . S
C2868 C2869 1.397 . S
C2868 C2873 1.363 . S
C2869 H2840 0.950 . S
C2869 C2868 1.397 . S
C2869 C2870 1.334 . S
C2870 H2841 0.950 . S
C2870 C2869 1.334 . S
C2870 C2871 1.287 . S
C2871 C2870 1.287 . S
C2871 C2872 1.524 . S
C2871 H2874 0.999 . S
C2872 H2842 0.950 . S
C2872 C2871 1.524 . S
C2872 C2873 1.415 . S
C2873 H2843 0.950 . S
C2873 C2868 1.363 . S
C2873 C2872 1.415 . S
H2874 C2871 0.999 . S
H2875 C2856 0.913 . S
H2876 C2894 0.951 . S
H2877 C2896 0.951 . S
H2878 C2898 0.950 . S
H2879 C2899 0.950 . S
H2880 C2901 0.950 . S
H2881 C2904 0.950 . S
H2882 C2905 0.950 . S
H2883 C2907 0.950 . S
H2884 C2908 0.950 . S
H2885 C2909 0.951 . S
H2886 C2911 0.951 . S
H2887 C2913 0.950 . S
H2888 C2914 0.950 . S
H2889 C2916 0.950 . S
H2890 C2919 0.950 . S
H2891 C2920 0.950 . S
H2892 C2922 0.950 . S
H2893 C2923 0.950 . S
C2894 H2876 0.951 . S
C2894 C2895 1.366 . S
C2894 C2896 1.388 . S
C2895 C2894 1.366 . S
C2895 C2899 1.385 . S
C2896 H2877 0.951 . S
C2896 C2894 1.388 . S
C2896 C2897 1.366 . S
C2897 C2896 1.366 . S
C2897 C2898 1.414 . S
C2897 C2900 1.499 . S
C2898 H2878 0.950 . S
C2898 C2897 1.414 . S
C2898 C2899 1.374 . S
C2899 H2879 0.950 . S
C2899 C2895 1.385 . S
C2899 C2898 1.374 . S
C2900 C2897 1.499 . S
C2900 C2901 1.373 . S
C2900 C2902 1.389 . S
C2901 H2880 0.950 . S
C2901 C2900 1.373 . S
C2901 C2917 1.377 . S
C2902 C2900 1.389 . S
C2902 C2903 1.524 . S
C2902 C2916 1.377 . S
C2903 C2902 1.524 . S
C2903 C2904 1.397 . S
C2903 C2908 1.363 . S
C2904 H2881 0.950 . S
C2904 C2903 1.397 . S
C2904 C2905 1.334 . S
C2905 H2882 0.950 . S
C2905 C2904 1.334 . S
C2905 C2906 1.287 . S
C2906 C2905 1.287 . S
C2906 C2907 1.524 . S
C2906 H2925 0.913 . S
C2907 H2883 0.950 . S
C2907 C2906 1.524 . S
C2907 C2908 1.415 . S
C2908 H2884 0.950 . S
C2908 C2903 1.363 . S
C2908 C2907 1.415 . S
C2909 H2885 0.951 . S
C2909 C2910 1.366 . S
C2909 C2911 1.388 . S
C2910 C2909 1.366 . S
C2910 C2914 1.385 . S
C2911 H2886 0.951 . S
C2911 C2909 1.388 . S
C2911 C2912 1.366 . S
C2912 C2911 1.366 . S
C2912 C2913 1.414 . S
C2912 C2915 1.499 . S
C2913 H2887 0.950 . S
C2913 C2912 1.414 . S
C2913 C2914 1.374 . S
C2914 H2888 0.950 . S
C2914 C2910 1.385 . S
C2914 C2913 1.374 . S
C2915 C2912 1.499 . S
C2915 C2916 1.373 . S
C2915 C2917 1.389 . S
C2916 H2889 0.950 . S
C2916 C2902 1.377 . S
C2916 C2915 1.373 . S
C2917 C2901 1.377 . S
C2917 C2915 1.389 . S
C2917 C2918 1.524 . S
C2918 C2917 1.524 . S
C2918 C2919 1.397 . S
C2918 C2923 1.363 . S
C2919 H2890 0.950 . S
C2919 C2918 1.397 . S
C2919 C2920 1.334 . S
C2920 H2891 0.950 . S
C2920 C2919 1.334 . S
C2920 C2921 1.287 . S
C2921 C2920 1.287 . S
C2921 C2922 1.524 . S
C2921 H2924 0.999 . S
C2922 H2892 0.950 . S
C2922 C2921 1.524 . S
C2922 C2923 1.415 . S
C2923 H2893 0.950 . S
C2923 C2918 1.363 . S
C2923 C2922 1.415 . S
H2924 C2921 0.999 . S
H2925 C2906 0.913 . S
H2926 C2944 0.951 . S
H2927 C2946 0.951 . S
H2928 C2948 0.950 . S
H2929 C2949 0.950 . S
H2930 C2951 0.950 . S
H2931 C2954 0.950 . S
H2932 C2955 0.950 . S
H2933 C2957 0.950 . S
H2934 C2958 0.950 . S
H2935 C2959 0.951 . S
H2936 C2961 0.951 . S
H2937 C2963 0.950 . S
H2938 C2964 0.950 . S
H2939 C2966 0.950 . S
H2940 C2969 0.950 . S
H2941 C2970 0.950 . S
H2942 C2972 0.950 . S
H2943 C2973 0.950 . S
C2944 H2926 0.951 . S
C2944 C2945 1.366 . S
C2944 C2946 1.388 . S
C2945 C2944 1.366 . S
C2945 C2949 1.385 . S
C2946 H2927 0.951 . S
C2946 C2944 1.388 . S
C2946 C2947 1.366 . S
C2947 C2946 1.366 . S
C2947 C2948 1.414 . S
C2947 C2950 1.499 . S
C2948 H2928 0.950 . S
C2948 C2947 1.414 . S
C2948 C2949 1.374 . S
C2949 H2929 0.950 . S
C2949 C2945 1.385 . S
C2949 C2948 1.374 . S
C2950 C2947 1.499 . S
C2950 C2951 1.373 . S
C2950 C2952 1.389 . S
C2951 H2930 0.950 . S
C2951 C2950 1.373 . S
C2951 C2967 1.377 . S
C2952 C2950 1.389 . S
C2952 C2953 1.524 . S
C2952 C2966 1.377 . S
C2953 C2952 1.524 . S
C2953 C2954 1.397 . S
C2953 C2958 1.363 . S
C2954 H2931 0.950 . S
C2954 C2953 1.397 . S
C2954 C2955 1.334 . S
C2955 H2932 0.950 . S
C2955 C2954 1.334 . S
C2955 C2956 1.287 . S
C2956 C2955 1.287 . S
C2956 C2957 1.524 . S
C2956 H2975 0.913 . S
C2957 H2933 0.950 . S
C2957 C2956 1.524 . S
C2957 C2958 1.415 . S
C2958 H2934 0.950 . S
C2958 C2953 1.363 . S
C2958 C2957 1.415 . S
C2959 H2935 0.951 . S
C2959 C2960 1.366 . S
C2959 C2961 1.388 . S
C2960 C2959 1.366 . S
C2960 C2964 1.385 . S
C2961 H2936 0.951 . S
C2961 C2959 1.388 . S
C2961 C2962 1.366 . S
C2962 C2961 1.366 . S
C2962 C2963 1.414 . S
C2962 C2965 1.499 . S
C2963 H2937 0.950 . S
C2963 C2962 1.414 . S
C2963 C2964 1.374 . S
C2964 H2938 0.950 . S
C2964 C2960 1.385 . S
C2964 C2963 1.374 . S
C2965 C2962 1.499 . S
C2965 C2966 1.373 . S
C2965 C2967 1.389 . S
C2966 H2939 0.950 . S
C2966 C2952 1.377 . S
C2966 C2965 1.373 . S
C2967 C2951 1.377 . S
C2967 C2965 1.389 . S
C2967 C2968 1.524 . S
C2968 C2967 1.524 . S
C2968 C2969 1.397 . S
C2968 C2973 1.363 . S
C2969 H2940 0.950 . S
C2969 C2968 1.397 . S
C2969 C2970 1.334 . S
C2970 H2941 0.950 . S
C2970 C2969 1.334 . S
C2970 C2971 1.287 . S
C2971 C2970 1.287 . S
C2971 C2972 1.524 . S
C2971 H2974 0.999 . S
C2972 H2942 0.950 . S
C2972 C2971 1.524 . S
C2972 C2973 1.415 . S
C2973 H2943 0.950 . S
C2973 C2968 1.363 . S
C2973 C2972 1.415 . S
H2974 C2971 0.999 . S
H2975 C2956 0.913 . S
H2976 C2994 0.951 . S
H2977 C2996 0.951 . S
H2978 C2998 0.950 . S
H2979 C2999 0.950 . S
H2980 C3001 0.950 . S
H2981 C3004 0.950 . S
H2982 C3005 0.950 . S
H2983 C3007 0.950 . S
H2984 C3008 0.950 . S
H2985 C3009 0.951 . S
H2986 C3011 0.951 . S
H2987 C3013 0.950 . S
H2988 C3014 0.950 . S
H2989 C3016 0.950 . S
H2990 C3019 0.950 . S
H2991 C3020 0.950 1_565 S
H2992 C3022 0.927 1_566 S
H2993 C3023 0.950 1_556 S
C2994 H2976 0.951 . S
C2994 C2995 1.366 . S
C2994 C2996 1.388 . S
C2995 C2994 1.366 . S
C2995 C2999 1.385 . S
C2996 H2977 0.951 . S
C2996 C2994 1.388 . S
C2996 C2997 1.366 . S
C2997 C2996 1.366 . S
C2997 C2998 1.414 . S
C2997 C3000 1.499 . S
C2998 H2978 0.950 . S
C2998 C2997 1.414 . S
C2998 C2999 1.374 . S
C2999 H2979 0.950 . S
C2999 C2995 1.385 . S
C2999 C2998 1.374 . S
C3000 C2997 1.499 . S
C3000 C3001 1.373 . S
C3000 C3002 1.389 . S
C3001 H2980 0.950 . S
C3001 C3000 1.373 . S
C3001 C3017 1.377 . S
C3002 C3000 1.389 . S
C3002 C3003 1.524 . S
C3002 C3016 1.377 . S
C3003 C3002 1.524 . S
C3003 C3004 1.397 . S
C3003 C3008 1.363 . S
C3004 H2981 0.950 . S
C3004 C3003 1.397 . S
C3004 C3005 1.334 . S
C3005 H2982 0.950 . S
C3005 C3004 1.334 . S
C3005 C3006 1.287 . S
C3006 C3005 1.287 . S
C3006 C3007 1.524 . S
C3006 H3025 0.913 . S
C3007 H2983 0.950 . S
C3007 C3006 1.524 . S
C3007 C3008 1.415 . S
C3008 H2984 0.950 . S
C3008 C3003 1.363 . S
C3008 C3007 1.415 . S
C3009 H2985 0.951 . S
C3009 C3010 1.386 . S
C3009 C3011 1.388 . S
C3010 C3009 1.386 . S
C3010 C3014 1.350 1_556 S
C3011 H2986 0.951 . S
C3011 C3009 1.388 . S
C3011 C3012 1.366 1_556 S
C3012 C3011 1.366 1_554 S
C3012 C3013 1.414 . S
C3012 C3015 1.499 . S
C3013 H2987 0.950 . S
C3013 C3012 1.414 . S
C3013 C3014 1.374 . S
C3014 H2988 0.950 . S
C3014 C3010 1.350 1_554 S
C3014 C3013 1.374 . S
C3015 C3012 1.499 . S
C3015 C3016 1.373 . S
C3015 C3017 1.389 . S
C3016 H2989 0.950 . S
C3016 C3002 1.377 . S
C3016 C3015 1.373 . S
C3017 C3001 1.377 . S
C3017 C3015 1.389 . S
C3017 C3018 1.524 . S
C3018 C3017 1.524 . S
C3018 C3019 1.397 . S
C3018 C3023 1.363 . S
C3019 H2990 0.950 . S
C3019 C3018 1.397 . S
C3019 C3020 1.334 . S
C3020 H2991 0.950 1_545 S
C3020 C3019 1.334 . S
C3020 C3021 1.287 1_545 S
C3021 C3020 1.287 1_565 S
C3021 C3022 1.550 1_565 S
C3021 H3024 0.999 . S
C3022 H2992 0.927 1_544 S
C3022 C3021 1.550 1_545 S
C3022 C3023 1.417 . S
C3023 H2993 0.950 1_554 S
C3023 C3018 1.363 . S
C3023 C3022 1.417 . S
H3024 C3021 0.999 . S
H3025 C3006 0.913 . S
H3026 C3044 0.951 . S
H3027 C3046 0.951 . S
H3028 C3048 0.950 . S
H3029 C3049 0.950 . S
H3030 C3051 0.950 1_556 S
H3031 C3054 0.950 . S
H3032 C3055 0.950 . S
H3033 C3057 0.950 . S
H3034 C3058 0.950 . S
H3035 C3059 0.951 . S
H3036 C3061 0.951 . S
H3037 C3063 0.950 . S
H3038 C3064 0.950 . S
H3039 C3066 0.950 . S
H3040 C3069 0.950 . S
H3041 C3070 0.950 . S
H3042 C3072 0.950 . S
H3043 C3073 0.950 . S
C3044 H3026 0.951 . S
C3044 C3045 1.366 . S
C3044 C3046 1.388 . S
C3045 C3044 1.366 . S
C3045 C3049 1.385 . S
C3046 H3027 0.951 . S
C3046 C3044 1.388 . S
C3046 C3047 1.366 . S
C3047 C3046 1.366 . S
C3047 C3048 1.414 . S
C3047 C3050 1.499 . S
C3048 H3028 0.950 . S
C3048 C3047 1.414 . S
C3048 C3049 1.374 . S
C3049 H3029 0.950 . S
C3049 C3045 1.385 . S
C3049 C3048 1.374 . S
C3050 C3047 1.499 . S
C3050 C3051 1.373 . S
C3050 C3052 1.389 . S
C3051 H3030 0.950 1_554 S
C3051 C3050 1.373 . S
C3051 C3067 1.377 . S
C3052 C3050 1.389 . S
C3052 C3053 1.524 . S
C3052 C3066 1.377 . S
C3053 C3052 1.524 . S
C3053 C3054 1.397 . S
C3053 C3058 1.363 . S
C3054 H3031 0.950 . S
C3054 C3053 1.397 . S
C3054 C3055 1.334 . S
C3055 H3032 0.950 . S
C3055 C3054 1.334 . S
C3055 C3056 1.287 . S
C3056 C3055 1.287 . S
C3056 C3057 1.524 . S
C3056 H3075 0.913 . S
C3057 H3033 0.950 . S
C3057 C3056 1.524 . S
C3057 C3058 1.415 . S
C3058 H3034 0.950 . S
C3058 C3053 1.363 . S
C3058 C3057 1.415 . S
C3059 H3035 0.951 . S
C3059 C3060 1.366 . S
C3059 C3061 1.388 . S
C3060 C3059 1.366 . S
C3060 C3064 1.385 . S
C3061 H3036 0.951 . S
C3061 C3059 1.388 . S
C3061 C3062 1.366 . S
C3062 C3061 1.366 . S
C3062 C3063 1.414 . S
C3062 C3065 1.499 . S
C3063 H3037 0.950 . S
C3063 C3062 1.414 . S
C3063 C3064 1.374 . S
C3064 H3038 0.950 . S
C3064 C3060 1.385 . S
C3064 C3063 1.374 . S
C3065 C3062 1.499 . S
C3065 C3066 1.373 . S
C3065 C3067 1.389 . S
C3066 H3039 0.950 . S
C3066 C3052 1.377 . S
C3066 C3065 1.373 . S
C3067 C3051 1.377 . S
C3067 C3065 1.389 . S
C3067 C3068 1.524 1_554 S
C3068 C3067 1.524 1_556 S
C3068 C3069 1.397 . S
C3068 C3073 1.363 . S
C3069 H3040 0.950 . S
C3069 C3068 1.397 . S
C3069 C3070 1.334 . S
C3070 H3041 0.950 . S
C3070 C3069 1.334 . S
C3070 C3071 1.287 . S
C3071 C3070 1.287 . S
C3071 C3072 1.524 . S
C3071 H3074 0.999 . S
C3072 H3042 0.950 . S
C3072 C3071 1.524 . S
C3072 C3073 1.415 . S
C3073 H3043 0.950 . S
C3073 C3068 1.363 . S
C3073 C3072 1.415 . S
H3074 C3071 0.999 . S
H3075 C3056 0.913 . S
H3076 C3094 0.951 . S
H3077 C3096 0.951 . S
H3078 C3098 0.950 . S
H3079 C3099 0.950 . S
H3080 C3101 0.950 . S
H3081 C3104 0.950 . S
H3082 C3105 0.950 . S
H3083 C3107 0.950 . S
H3084 C3108 0.950 . S
H3085 C3109 0.951 . S
H3086 C3111 0.951 . S
H3087 C3113 0.950 . S
H3088 C3114 0.950 . S
H3089 C3116 0.950 . S
H3090 C3119 0.950 . S
H3091 C3120 0.950 . S
H3092 C3122 0.950 . S
H3093 C3123 0.950 . S
C3094 H3076 0.951 . S
C3094 C3095 1.366 . S
C3094 C3096 1.388 . S
C3095 C3094 1.366 . S
C3095 C3099 1.385 . S
C3096 H3077 0.951 . S
C3096 C3094 1.388 . S
C3096 C3097 1.366 . S
C3097 C3096 1.366 . S
C3097 C3098 1.414 . S
C3097 C3100 1.499 . S
C3098 H3078 0.950 . S
C3098 C3097 1.414 . S
C3098 C3099 1.374 . S
C3099 H3079 0.950 . S
C3099 C3095 1.385 . S
C3099 C3098 1.374 . S
C3100 C3097 1.499 . S
C3100 C3101 1.373 . S
C3100 C3102 1.389 . S
C3101 H3080 0.950 . S
C3101 C3100 1.373 . S
C3101 C3117 1.377 . S
C3102 C3100 1.389 . S
C3102 C3103 1.524 . S
C3102 C3116 1.377 . S
C3103 C3102 1.524 . S
C3103 C3104 1.397 . S
C3103 C3108 1.363 . S
C3104 H3081 0.950 . S
C3104 C3103 1.397 . S
C3104 C3105 1.334 . S
C3105 H3082 0.950 . S
C3105 C3104 1.334 . S
C3105 C3106 1.287 . S
C3106 C3105 1.287 . S
C3106 C3107 1.524 . S
C3106 H3125 0.913 . S
C3107 H3083 0.950 . S
C3107 C3106 1.524 . S
C3107 C3108 1.415 . S
C3108 H3084 0.950 . S
C3108 C3103 1.363 . S
C3108 C3107 1.415 . S
C3109 H3085 0.951 . S
C3109 C3110 1.366 . S
C3109 C3111 1.388 . S
C3110 C3109 1.366 . S
C3110 C3114 1.385 . S
C3111 H3086 0.951 . S
C3111 C3109 1.388 . S
C3111 C3112 1.366 . S
C3112 C3111 1.366 . S
C3112 C3113 1.414 . S
C3112 C3115 1.499 . S
C3113 H3087 0.950 . S
C3113 C3112 1.414 . S
C3113 C3114 1.374 . S
C3114 H3088 0.950 . S
C3114 C3110 1.385 . S
C3114 C3113 1.374 . S
C3115 C3112 1.499 . S
C3115 C3116 1.373 . S
C3115 C3117 1.389 . S
C3116 H3089 0.950 . S
C3116 C3102 1.377 . S
C3116 C3115 1.373 . S
C3117 C3101 1.377 . S
C3117 C3115 1.389 . S
C3117 C3118 1.524 . S
C3118 C3117 1.524 . S
C3118 C3119 1.397 . S
C3118 C3123 1.363 . S
C3119 H3090 0.950 . S
C3119 C3118 1.397 . S
C3119 C3120 1.334 . S
C3120 H3091 0.950 . S
C3120 C3119 1.334 . S
C3120 C3121 1.287 . S
C3121 C3120 1.287 . S
C3121 C3122 1.524 . S
C3121 H3124 0.999 . S
C3122 H3092 0.950 . S
C3122 C3121 1.524 . S
C3122 C3123 1.415 . S
C3123 H3093 0.950 . S
C3123 C3118 1.363 . S
C3123 C3122 1.415 . S
H3124 C3121 0.999 . S
H3125 C3106 0.913 . S
H3126 C3144 0.951 . S
H3127 C3146 0.951 . S
H3128 C3148 0.950 . S
H3129 C3149 0.950 . S
H3130 C3151 0.950 . S
H3131 C3154 0.950 . S
H3132 C3155 0.950 . S
H3133 C3157 0.950 . S
H3134 C3158 0.950 . S
H3135 C3159 0.951 . S
H3136 C3161 0.951 . S
H3137 C3163 0.950 . S
H3138 C3164 0.950 . S
H3139 C3166 0.950 . S
H3140 C3169 0.950 . S
H3141 C3170 0.950 . S
H3142 C3172 0.950 . S
H3143 C3173 0.950 . S
C3144 H3126 0.951 . S
C3144 C3145 1.366 . S
C3144 C3146 1.388 . S
C3145 C3144 1.366 . S
C3145 C3149 1.385 . S
C3146 H3127 0.951 . S
C3146 C3144 1.388 . S
C3146 C3147 1.366 . S
C3147 C3146 1.366 . S
C3147 C3148 1.414 . S
C3147 C3150 1.499 . S
C3148 H3128 0.950 . S
C3148 C3147 1.414 . S
C3148 C3149 1.374 . S
C3149 H3129 0.950 . S
C3149 C3145 1.385 . S
C3149 C3148 1.374 . S
C3150 C3147 1.499 . S
C3150 C3151 1.373 . S
C3150 C3152 1.389 . S
C3151 H3130 0.950 . S
C3151 C3150 1.373 . S
C3151 C3167 1.377 . S
C3152 C3150 1.389 . S
C3152 C3153 1.524 . S
C3152 C3166 1.377 . S
C3153 C3152 1.524 . S
C3153 C3154 1.397 . S
C3153 C3158 1.363 . S
C3154 H3131 0.950 . S
C3154 C3153 1.397 . S
C3154 C3155 1.334 . S
C3155 H3132 0.950 . S
C3155 C3154 1.334 . S
C3155 C3156 1.287 . S
C3156 C3155 1.287 . S
C3156 C3157 1.524 . S
C3156 H3175 0.913 . S
C3157 H3133 0.950 . S
C3157 C3156 1.524 . S
C3157 C3158 1.415 . S
C3158 H3134 0.950 . S
C3158 C3153 1.363 . S
C3158 C3157 1.415 . S
C3159 H3135 0.951 . S
C3159 C3160 1.366 . S
C3159 C3161 1.388 . S
C3160 C3159 1.366 . S
C3160 C3164 1.385 . S
C3161 H3136 0.951 . S
C3161 C3159 1.388 . S
C3161 C3162 1.366 . S
C3162 C3161 1.366 . S
C3162 C3163 1.414 . S
C3162 C3165 1.499 . S
C3163 H3137 0.950 . S
C3163 C3162 1.414 . S
C3163 C3164 1.374 . S
C3164 H3138 0.950 . S
C3164 C3160 1.385 . S
C3164 C3163 1.374 . S
C3165 C3162 1.499 . S
C3165 C3166 1.373 . S
C3165 C3167 1.389 . S
C3166 H3139 0.950 . S
C3166 C3152 1.377 . S
C3166 C3165 1.373 . S
C3167 C3151 1.377 . S
C3167 C3165 1.389 . S
C3167 C3168 1.524 . S
C3168 C3167 1.524 . S
C3168 C3169 1.397 . S
C3168 C3173 1.363 . S
C3169 H3140 0.950 . S
C3169 C3168 1.397 . S
C3169 C3170 1.334 . S
C3170 H3141 0.950 . S
C3170 C3169 1.334 . S
C3170 C3171 1.287 . S
C3171 C3170 1.287 . S
C3171 C3172 1.524 . S
C3171 H3174 0.999 . S
C3172 H3142 0.950 . S
C3172 C3171 1.524 . S
C3172 C3173 1.415 . S
C3173 H3143 0.950 . S
C3173 C3168 1.363 . S
C3173 C3172 1.415 . S
H3174 C3171 0.999 . S
H3175 C3156 0.913 . S
H3176 C3194 0.951 . S
H3177 C3196 0.951 . S
H3178 C3198 0.950 . S
H3179 C3199 0.950 . S
H3180 C3201 0.950 . S
H3181 C3204 0.950 . S
H3182 C3205 0.950 . S
H3183 C3207 0.950 . S
H3184 C3208 0.950 . S
H3185 C3209 0.951 . S
H3186 C3211 0.951 . S
H3187 C3213 0.950 . S
H3188 C3214 0.950 . S
H3189 C3216 0.950 . S
H3190 C3219 0.950 . S
H3191 C3220 0.950 . S
H3192 C3222 0.950 . S
H3193 C3223 0.950 . S
C3194 H3176 0.951 . S
C3194 C3195 1.366 . S
C3194 C3196 1.388 . S
C3195 C3194 1.366 . S
C3195 C3199 1.385 . S
C3196 H3177 0.951 . S
C3196 C3194 1.388 . S
C3196 C3197 1.366 . S
C3197 C3196 1.366 . S
C3197 C3198 1.414 . S
C3197 C3200 1.499 . S
C3198 H3178 0.950 . S
C3198 C3197 1.414 . S
C3198 C3199 1.374 . S
C3199 H3179 0.950 . S
C3199 C3195 1.385 . S
C3199 C3198 1.374 . S
C3200 C3197 1.499 . S
C3200 C3201 1.373 . S
C3200 C3202 1.389 . S
C3201 H3180 0.950 . S
C3201 C3200 1.373 . S
C3201 C3217 1.377 . S
C3202 C3200 1.389 . S
C3202 C3203 1.524 . S
C3202 C3216 1.377 . S
C3203 C3202 1.524 . S
C3203 C3204 1.397 . S
C3203 C3208 1.363 . S
C3204 H3181 0.950 . S
C3204 C3203 1.397 . S
C3204 C3205 1.334 . S
C3205 H3182 0.950 . S
C3205 C3204 1.334 . S
C3205 C3206 1.287 . S
C3206 C3205 1.287 . S
C3206 C3207 1.524 . S
C3206 H3225 0.913 . S
C3207 H3183 0.950 . S
C3207 C3206 1.524 . S
C3207 C3208 1.415 . S
C3208 H3184 0.950 . S
C3208 C3203 1.363 . S
C3208 C3207 1.415 . S
C3209 H3185 0.951 . S
C3209 C3210 1.366 . S
C3209 C3211 1.388 . S
C3210 C3209 1.366 . S
C3210 C3214 1.385 . S
C3211 H3186 0.951 . S
C3211 C3209 1.388 . S
C3211 C3212 1.366 . S
C3212 C3211 1.366 . S
C3212 C3213 1.414 . S
C3212 C3215 1.499 . S
C3213 H3187 0.950 . S
C3213 C3212 1.414 . S
C3213 C3214 1.374 . S
C3214 H3188 0.950 . S
C3214 C3210 1.385 . S
C3214 C3213 1.374 . S
C3215 C3212 1.499 . S
C3215 C3216 1.373 . S
C3215 C3217 1.389 . S
C3216 H3189 0.950 . S
C3216 C3202 1.377 . S
C3216 C3215 1.373 . S
C3217 C3201 1.377 . S
C3217 C3215 1.389 . S
C3217 C3218 1.524 . S
C3218 C3217 1.524 . S
C3218 C3219 1.397 . S
C3218 C3223 1.363 . S
C3219 H3190 0.950 . S
C3219 C3218 1.397 . S
C3219 C3220 1.334 . S
C3220 H3191 0.950 . S
C3220 C3219 1.334 . S
C3220 C3221 1.287 . S
C3221 C3220 1.287 . S
C3221 C3222 1.524 . S
C3221 H3224 0.999 . S
C3222 H3192 0.950 . S
C3222 C3221 1.524 . S
C3222 C3223 1.415 . S
C3223 H3193 0.950 . S
C3223 C3218 1.363 . S
C3223 C3222 1.415 . S
H3224 C3221 0.999 . S
H3225 C3206 0.913 . S
H3226 C3244 0.951 . S
H3227 C3246 0.951 . S
H3228 C3248 0.950 . S
H3229 C3249 0.950 . S
H3230 C3251 0.950 . S
H3231 C3254 0.950 . S
H3232 C3255 0.950 . S
H3233 C3257 0.950 . S
H3234 C3258 0.950 . S
H3235 C3259 0.951 . S
H3236 C3261 0.951 . S
H3237 C3263 0.950 . S
H3238 C3264 0.950 . S
H3239 C3266 0.950 . S
H3240 C3269 0.950 . S
H3241 C3270 0.950 . S
H3242 C3272 0.950 . S
H3243 C3273 0.950 . S
C3244 H3226 0.951 . S
C3244 C3245 1.366 . S
C3244 C3246 1.388 . S
C3245 C3244 1.366 . S
C3245 C3249 1.385 . S
C3246 H3227 0.951 . S
C3246 C3244 1.388 . S
C3246 C3247 1.366 . S
C3247 C3246 1.366 . S
C3247 C3248 1.414 . S
C3247 C3250 1.499 . S
C3248 H3228 0.950 . S
C3248 C3247 1.414 . S
C3248 C3249 1.374 . S
C3249 H3229 0.950 . S
C3249 C3245 1.385 . S
C3249 C3248 1.374 . S
C3250 C3247 1.499 . S
C3250 C3251 1.373 . S
C3250 C3252 1.389 . S
C3251 H3230 0.950 . S
C3251 C3250 1.373 . S
C3251 C3267 1.377 . S
C3252 C3250 1.389 . S
C3252 C3253 1.524 . S
C3252 C3266 1.377 . S
C3253 C3252 1.524 . S
C3253 C3254 1.397 . S
C3253 C3258 1.363 . S
C3254 H3231 0.950 . S
C3254 C3253 1.397 . S
C3254 C3255 1.334 . S
C3255 H3232 0.950 . S
C3255 C3254 1.334 . S
C3255 C3256 1.287 . S
C3256 C3255 1.287 . S
C3256 C3257 1.524 . S
C3256 H3275 0.913 . S
C3257 H3233 0.950 . S
C3257 C3256 1.524 . S
C3257 C3258 1.415 . S
C3258 H3234 0.950 . S
C3258 C3253 1.363 . S
C3258 C3257 1.415 . S
C3259 H3235 0.951 . S
C3259 C3260 1.366 . S
C3259 C3261 1.388 . S
C3260 C3259 1.366 . S
C3260 C3264 1.385 . S
C3261 H3236 0.951 . S
C3261 C3259 1.388 . S
C3261 C3262 1.366 . S
C3262 C3261 1.366 . S
C3262 C3263 1.414 . S
C3262 C3265 1.499 . S
C3263 H3237 0.950 . S
C3263 C3262 1.414 . S
C3263 C3264 1.374 . S
C3264 H3238 0.950 . S
C3264 C3260 1.385 . S
C3264 C3263 1.374 . S
C3265 C3262 1.499 . S
C3265 C3266 1.373 . S
C3265 C3267 1.389 . S
C3266 H3239 0.950 . S
C3266 C3252 1.377 . S
C3266 C3265 1.373 . S
C3267 C3251 1.377 . S
C3267 C3265 1.389 . S
C3267 C3268 1.524 . S
C3268 C3267 1.524 . S
C3268 C3269 1.397 . S
C3268 C3273 1.363 . S
C3269 H3240 0.950 . S
C3269 C3268 1.397 . S
C3269 C3270 1.334 . S
C3270 H3241 0.950 . S
C3270 C3269 1.334 . S
C3270 C3271 1.287 1_565 S
C3271 C3270 1.287 1_545 S
C3271 C3272 1.524 . S
C3271 H3274 0.999 . S
C3272 H3242 0.950 . S
C3272 C3271 1.524 . S
C3272 C3273 1.415 1_545 S
C3273 H3243 0.950 . S
C3273 C3268 1.363 . S
C3273 C3272 1.415 1_565 S
H3274 C3271 0.999 . S
H3275 C3256 0.913 . S
H3276 C3294 0.951 . S
H3277 C3296 0.951 . S
H3278 C3298 0.950 . S
H3279 C3299 0.950 . S
H3280 C3301 0.950 . S
H3281 C3304 0.950 . S
H3282 C3305 0.950 . S
H3283 C3307 0.950 . S
H3284 C3308 0.950 . S
H3285 C3309 0.951 . S
H3286 C3311 0.951 . S
H3287 C3313 0.950 . S
H3288 C3314 0.950 . S
H3289 C3316 0.950 . S
H3290 C3319 0.950 . S
H3291 C3320 0.950 . S
H3292 C3322 0.950 . S
H3293 C3323 0.950 . S
C3294 H3276 0.951 . S
C3294 C3295 1.366 . S
C3294 C3296 1.388 . S
C3295 C3294 1.366 . S
C3295 C3299 1.385 . S
C3296 H3277 0.951 . S
C3296 C3294 1.388 . S
C3296 C3297 1.366 . S
C3297 C3296 1.366 . S
C3297 C3298 1.414 . S
C3297 C3300 1.499 . S
C3298 H3278 0.950 . S
C3298 C3297 1.414 . S
C3298 C3299 1.374 . S
C3299 H3279 0.950 . S
C3299 C3295 1.385 . S
C3299 C3298 1.374 . S
C3300 C3297 1.499 . S
C3300 C3301 1.373 . S
C3300 C3302 1.389 . S
C3301 H3280 0.950 . S
C3301 C3300 1.373 . S
C3301 C3317 1.377 . S
C3302 C3300 1.389 . S
C3302 C3303 1.524 . S
C3302 C3316 1.377 . S
C3303 C3302 1.524 . S
C3303 C3304 1.397 . S
C3303 C3308 1.363 . S
C3304 H3281 0.950 . S
C3304 C3303 1.397 . S
C3304 C3305 1.334 . S
C3305 H3282 0.950 . S
C3305 C3304 1.334 . S
C3305 C3306 1.287 . S
C3306 C3305 1.287 . S
C3306 C3307 1.524 . S
C3306 H3325 0.913 . S
C3307 H3283 0.950 . S
C3307 C3306 1.524 . S
C3307 C3308 1.415 . S
C3308 H3284 0.950 . S
C3308 C3303 1.363 . S
C3308 C3307 1.415 . S
C3309 H3285 0.951 . S
C3309 C3310 1.366 . S
C3309 C3311 1.388 . S
C3310 C3309 1.366 . S
C3310 C3314 1.385 . S
C3311 H3286 0.951 . S
C3311 C3309 1.388 . S
C3311 C3312 1.366 . S
C3312 C3311 1.366 . S
C3312 C3313 1.414 . S
C3312 C3315 1.499 . S
C3313 H3287 0.950 . S
C3313 C3312 1.414 . S
C3313 C3314 1.374 . S
C3314 H3288 0.950 . S
C3314 C3310 1.385 . S
C3314 C3313 1.374 . S
C3315 C3312 1.499 . S
C3315 C3316 1.373 . S
C3315 C3317 1.389 . S
C3316 H3289 0.950 . S
C3316 C3302 1.377 . S
C3316 C3315 1.373 . S
C3317 C3301 1.377 . S
C3317 C3315 1.389 . S
C3317 C3318 1.524 . S
C3318 C3317 1.524 . S
C3318 C3319 1.397 . S
C3318 C3323 1.363 . S
C3319 H3290 0.950 . S
C3319 C3318 1.397 . S
C3319 C3320 1.334 . S
C3320 H3291 0.950 . S
C3320 C3319 1.334 . S
C3320 C3321 1.287 . S
C3321 C3320 1.287 . S
C3321 C3322 1.524 . S
C3321 H3324 0.999 . S
C3322 H3292 0.950 . S
C3322 C3321 1.524 . S
C3322 C3323 1.415 . S
C3323 H3293 0.950 . S
C3323 C3318 1.363 . S
C3323 C3322 1.415 . S
H3324 C3321 0.999 . S
H3325 C3306 0.913 . S
H3326 C3344 0.951 . S
H3327 C3346 0.951 . S
H3328 C3348 0.950 . S
H3329 C3349 0.950 . S
H3330 C3351 0.950 . S
H3331 C3354 0.950 . S
H3332 C3355 0.950 . S
H3333 C3357 0.950 . S
H3334 C3358 0.950 . S
H3335 C3359 0.951 . S
H3336 C3361 0.951 . S
H3337 C3363 0.950 . S
H3338 C3364 0.950 . S
H3339 C3366 0.950 . S
H3340 C3369 0.950 . S
H3341 C3370 0.950 . S
H3342 C3372 0.950 . S
H3343 C3373 0.950 . S
C3344 H3326 0.951 . S
C3344 C3345 1.366 . S
C3344 C3346 1.388 . S
C3345 C3344 1.366 . S
C3345 C3349 1.385 . S
C3346 H3327 0.951 . S
C3346 C3344 1.388 . S
C3346 C3347 1.366 . S
C3347 C3346 1.366 . S
C3347 C3348 1.414 . S
C3347 C3350 1.499 . S
C3348 H3328 0.950 . S
C3348 C3347 1.414 . S
C3348 C3349 1.374 . S
C3349 H3329 0.950 . S
C3349 C3345 1.385 . S
C3349 C3348 1.374 . S
C3350 C3347 1.499 . S
C3350 C3351 1.373 . S
C3350 C3352 1.389 . S
C3351 H3330 0.950 . S
C3351 C3350 1.373 . S
C3351 C3367 1.377 . S
C3352 C3350 1.389 . S
C3352 C3353 1.524 . S
C3352 C3366 1.377 . S
C3353 C3352 1.524 . S
C3353 C3354 1.397 . S
C3353 C3358 1.363 . S
C3354 H3331 0.950 . S
C3354 C3353 1.397 . S
C3354 C3355 1.334 . S
C3355 H3332 0.950 . S
C3355 C3354 1.334 . S
C3355 C3356 1.287 . S
C3356 C3355 1.287 . S
C3356 C3357 1.524 . S
C3356 H3375 0.913 . S
C3357 H3333 0.950 . S
C3357 C3356 1.524 . S
C3357 C3358 1.415 . S
C3358 H3334 0.950 . S
C3358 C3353 1.363 . S
C3358 C3357 1.415 . S
C3359 H3335 0.951 . S
C3359 C3360 1.366 . S
C3359 C3361 1.388 . S
C3360 C3359 1.366 . S
C3360 C3364 1.385 . S
C3361 H3336 0.951 . S
C3361 C3359 1.388 . S
C3361 C3362 1.366 . S
C3362 C3361 1.366 . S
C3362 C3363 1.414 . S
C3362 C3365 1.499 . S
C3363 H3337 0.950 . S
C3363 C3362 1.414 . S
C3363 C3364 1.374 . S
C3364 H3338 0.950 . S
C3364 C3360 1.385 . S
C3364 C3363 1.374 . S
C3365 C3362 1.499 . S
C3365 C3366 1.373 . S
C3365 C3367 1.389 . S
C3366 H3339 0.950 . S
C3366 C3352 1.377 . S
C3366 C3365 1.373 . S
C3367 C3351 1.377 . S
C3367 C3365 1.389 . S
C3367 C3368 1.524 . S
C3368 C3367 1.524 . S
C3368 C3369 1.397 . S
C3368 C3373 1.363 . S
C3369 H3340 0.950 . S
C3369 C3368 1.397 . S
C3369 C3370 1.334 . S
C3370 H3341 0.950 . S
C3370 C3369 1.334 . S
C3370 C3371 1.287 . S
C3371 C3370 1.287 . S
C3371 C3372 1.524 . S
C3371 H3374 0.999 . S
C3372 H3342 0.950 . S
C3372 C3371 1.524 . S
C3372 C3373 1.415 . S
C3373 H3343 0.950 . S
C3373 C3368 1.363 . S
C3373 C3372 1.415 . S
H3374 C3371 0.999 . S
H3375 C3356 0.913 . S
H3376 C3394 0.951 . S
H3377 C3396 0.951 . S
H3378 C3398 0.950 . S
H3379 C3399 0.950 . S
H3380 C3401 0.950 . S
H3381 C3404 0.950 . S
H3382 C3405 0.950 . S
H3383 C3407 0.950 . S
H3384 C3408 0.950 . S
H3385 C3409 0.951 . S
H3386 C3411 0.951 . S
H3387 C3413 0.950 . S
H3388 C3414 0.950 . S
H3389 C3416 0.950 . S
H3390 C3419 0.950 . S
H3391 C3420 0.950 . S
H3392 C3422 0.950 . S
H3393 C3423 0.950 . S
C3394 H3376 0.951 . S
C3394 C3395 1.366 . S
C3394 C3396 1.388 . S
C3395 C3394 1.366 . S
C3395 C3399 1.385 . S
C3396 H3377 0.951 . S
C3396 C3394 1.388 . S
C3396 C3397 1.366 . S
C3397 C3396 1.366 . S
C3397 C3398 1.414 . S
C3397 C3400 1.499 . S
C3398 H3378 0.950 . S
C3398 C3397 1.414 . S
C3398 C3399 1.374 . S
C3399 H3379 0.950 . S
C3399 C3395 1.385 . S
C3399 C3398 1.374 . S
C3400 C3397 1.499 . S
C3400 C3401 1.373 . S
C3400 C3402 1.389 . S
C3401 H3380 0.950 . S
C3401 C3400 1.373 . S
C3401 C3417 1.377 . S
C3402 C3400 1.389 . S
C3402 C3403 1.524 . S
C3402 C3416 1.377 . S
C3403 C3402 1.524 . S
C3403 C3404 1.397 . S
C3403 C3408 1.363 . S
C3404 H3381 0.950 . S
C3404 C3403 1.397 . S
C3404 C3405 1.334 . S
C3405 H3382 0.950 . S
C3405 C3404 1.334 . S
C3405 C3406 1.287 . S
C3406 C3405 1.287 . S
C3406 C3407 1.524 . S
C3406 H3425 0.913 . S
C3407 H3383 0.950 . S
C3407 C3406 1.524 . S
C3407 C3408 1.415 . S
C3408 H3384 0.950 . S
C3408 C3403 1.363 . S
C3408 C3407 1.415 . S
C3409 H3385 0.951 . S
C3409 C3410 1.366 . S
C3409 C3411 1.388 . S
C3410 C3409 1.366 . S
C3410 C3414 1.385 . S
C3411 H3386 0.951 . S
C3411 C3409 1.388 . S
C3411 C3412 1.366 . S
C3412 C3411 1.366 . S
C3412 C3413 1.414 . S
C3412 C3415 1.499 . S
C3413 H3387 0.950 . S
C3413 C3412 1.414 . S
C3413 C3414 1.374 . S
C3414 H3388 0.950 . S
C3414 C3410 1.385 . S
C3414 C3413 1.374 . S
C3415 C3412 1.499 . S
C3415 C3416 1.373 . S
C3415 C3417 1.389 . S
C3416 H3389 0.950 . S
C3416 C3402 1.377 . S
C3416 C3415 1.373 . S
C3417 C3401 1.377 . S
C3417 C3415 1.389 . S
C3417 C3418 1.524 . S
C3418 C3417 1.524 . S
C3418 C3419 1.397 . S
C3418 C3423 1.363 . S
C3419 H3390 0.950 . S
C3419 C3418 1.397 . S
C3419 C3420 1.334 . S
C3420 H3391 0.950 . S
C3420 C3419 1.334 . S
C3420 C3421 1.287 . S
C3421 C3420 1.287 . S
C3421 C3422 1.524 . S
C3421 H3424 0.999 . S
C3422 H3392 0.950 . S
C3422 C3421 1.524 . S
C3422 C3423 1.415 . S
C3423 H3393 0.950 . S
C3423 C3418 1.363 . S
C3423 C3422 1.415 . S
H3424 C3421 0.999 . S
H3425 C3406 0.913 . S
H3426 C3444 0.951 . S
H3427 C3446 0.951 . S
H3428 C3448 0.950 . S
H3429 C3449 0.950 . S
H3430 C3451 0.950 . S
H3431 C3454 0.950 . S
H3432 C3455 0.950 . S
H3433 C3457 0.950 . S
H3434 C3458 0.950 . S
H3435 C3459 0.951 . S
H3436 C3461 0.951 . S
H3437 C3463 0.950 . S
H3438 C3464 0.950 . S
H3439 C3466 0.950 . S
H3440 C3469 0.950 . S
H3441 C3470 0.950 . S
H3442 C3472 0.950 . S
H3443 C3473 0.950 . S
C3444 H3426 0.951 . S
C3444 C3445 1.366 . S
C3444 C3446 1.388 . S
C3445 C3444 1.366 . S
C3445 C3449 1.385 . S
C3446 H3427 0.951 . S
C3446 C3444 1.388 . S
C3446 C3447 1.366 . S
C3447 C3446 1.366 . S
C3447 C3448 1.414 . S
C3447 C3450 1.499 . S
C3448 H3428 0.950 . S
C3448 C3447 1.414 . S
C3448 C3449 1.374 . S
C3449 H3429 0.950 . S
C3449 C3445 1.385 . S
C3449 C3448 1.374 . S
C3450 C3447 1.499 . S
C3450 C3451 1.373 . S
C3450 C3452 1.389 . S
C3451 H3430 0.950 . S
C3451 C3450 1.373 . S
C3451 C3467 1.377 . S
C3452 C3450 1.389 . S
C3452 C3453 1.524 . S
C3452 C3466 1.377 . S
C3453 C3452 1.524 . S
C3453 C3454 1.397 . S
C3453 C3458 1.363 . S
C3454 H3431 0.950 . S
C3454 C3453 1.397 . S
C3454 C3455 1.334 . S
C3455 H3432 0.950 . S
C3455 C3454 1.334 . S
C3455 C3456 1.287 . S
C3456 C3455 1.287 . S
C3456 C3457 1.524 . S
C3456 H3475 0.913 . S
C3457 H3433 0.950 . S
C3457 C3456 1.524 . S
C3457 C3458 1.415 . S
C3458 H3434 0.950 . S
C3458 C3453 1.363 . S
C3458 C3457 1.415 . S
C3459 H3435 0.951 . S
C3459 C3460 1.366 . S
C3459 C3461 1.388 . S
C3460 C3459 1.366 . S
C3460 C3464 1.385 . S
C3461 H3436 0.951 . S
C3461 C3459 1.388 . S
C3461 C3462 1.366 . S
C3462 C3461 1.366 . S
C3462 C3463 1.414 . S
C3462 C3465 1.499 . S
C3463 H3437 0.950 . S
C3463 C3462 1.414 . S
C3463 C3464 1.374 . S
C3464 H3438 0.950 . S
C3464 C3460 1.385 . S
C3464 C3463 1.374 . S
C3465 C3462 1.499 . S
C3465 C3466 1.373 . S
C3465 C3467 1.389 . S
C3466 H3439 0.950 . S
C3466 C3452 1.377 . S
C3466 C3465 1.373 . S
C3467 C3451 1.377 . S
C3467 C3465 1.389 . S
C3467 C3468 1.524 . S
C3468 C3467 1.524 . S
C3468 C3469 1.397 . S
C3468 C3473 1.363 . S
C3469 H3440 0.950 . S
C3469 C3468 1.397 . S
C3469 C3470 1.334 . S
C3470 H3441 0.950 . S
C3470 C3469 1.334 . S
C3470 C3471 1.287 . S
C3471 C3470 1.287 . S
C3471 C3472 1.524 . S
C3471 H3474 0.999 . S
C3472 H3442 0.950 . S
C3472 C3471 1.524 . S
C3472 C3473 1.415 . S
C3473 H3443 0.950 . S
C3473 C3468 1.363 . S
C3473 C3472 1.415 . S
H3474 C3471 0.999 . S
H3475 C3456 0.913 . S
H3476 C3494 0.951 . S
H3477 C3496 0.951 . S
H3478 C3498 0.950 . S
H3479 C3499 0.950 . S
H3480 C3501 0.950 . S
H3481 C3504 0.950 . S
H3482 C3505 0.950 . S
H3483 C3507 0.950 . S
H3484 C3508 0.950 . S
H3485 C3509 0.951 . S
H3486 C3511 0.951 . S
H3487 C3513 0.950 1_655 S
H3488 C3514 0.951 1_655 S
H3489 C3516 0.950 . S
H3490 C3519 0.950 . S
H3491 C3520 0.950 . S
H3492 C3522 0.950 . S
H3493 C3523 0.950 . S
C3494 H3476 0.951 . S
C3494 C3495 1.366 1_655 S
C3494 C3496 1.388 . S
C3495 C3494 1.366 1_455 S
C3495 C3499 1.385 . S
C3496 H3477 0.951 . S
C3496 C3494 1.388 . S
C3496 C3497 1.366 1_655 S
C3497 C3496 1.366 1_455 S
C3497 C3498 1.414 . S
C3497 C3500 1.499 . S
C3498 H3478 0.950 . S
C3498 C3497 1.414 . S
C3498 C3499 1.374 . S
C3499 H3479 0.950 . S
C3499 C3495 1.385 . S
C3499 C3498 1.374 . S
C3500 C3497 1.499 . S
C3500 C3501 1.373 . S
C3500 C3502 1.389 . S
C3501 H3480 0.950 . S
C3501 C3500 1.373 . S
C3501 C3517 1.377 . S
C3502 C3500 1.389 . S
C3502 C3503 1.524 . S
C3502 C3516 1.377 . S
C3503 C3502 1.524 . S
C3503 C3504 1.397 . S
C3503 C3508 1.363 1_455 S
C3504 H3481 0.950 . S
C3504 C3503 1.397 . S
C3504 C3505 1.334 . S
C3505 H3482 0.950 . S
C3505 C3504 1.334 . S
C3505 C3506 1.287 1_455 S
C3506 C3505 1.287 1_655 S
C3506 C3507 1.524 . S
C3506 H3525 0.913 . S
C3507 H3483 0.950 . S
C3507 C3506 1.524 . S
C3507 C3508 1.415 . S
C3508 H3484 0.950 . S
C3508 C3503 1.363 1_655 S
C3508 C3507 1.415 . S
C3509 H3485 0.951 . S
C3509 C3510 1.366 . S
C3509 C3511 1.388 . S
C3510 C3509 1.366 . S
C3510 C3514 1.385 . S
C3511 H3486 0.951 . S
C3511 C3509 1.388 . S
C3511 C3512 1.366 1_554 S
C3512 C3511 1.366 1_556 S
C3512 C3513 1.414 . S
C3512 C3515 1.499 . S
C3513 H3487 0.950 1_455 S
C3513 C3512 1.414 . S
C3513 C3514 1.374 1_556 S
C3514 H3488 0.951 1_455 S
C3514 C3510 1.385 . S
C3514 C3513 1.374 1_554 S
C3515 C3512 1.499 . S
C3515 C3516 1.373 . S
C3515 C3517 1.389 . S
C3516 H3489 0.950 . S
C3516 C3502 1.377 . S
C3516 C3515 1.373 . S
C3517 C3501 1.377 . S
C3517 C3515 1.389 . S
C3517 C3518 1.524 1_556 S
C3518 C3517 1.524 1_554 S
C3518 C3519 1.397 . S
C3518 C3523 1.363 . S
C3519 H3490 0.950 . S
C3519 C3518 1.397 . S
C3519 C3520 1.334 . S
C3520 H3491 0.950 . S
C3520 C3519 1.334 . S
C3520 C3521 1.287 . S
C3521 C3520 1.287 . S
C3521 C3522 1.524 . S
C3521 H3524 0.999 . S
C3522 H3492 0.950 . S
C3522 C3521 1.524 . S
C3522 C3523 1.415 . S
C3523 H3493 0.950 . S
C3523 C3518 1.363 . S
C3523 C3522 1.415 . S
H3524 C3521 0.999 . S
H3525 C3506 0.913 . S
H3526 C3544 0.951 . S
H3527 C3546 0.951 . S
H3528 C3548 0.950 . S
H3529 C3549 0.950 . S
H3530 C3551 0.950 . S
H3531 C3554 0.950 . S
H3532 C3555 0.950 . S
H3533 C3557 0.950 . S
H3534 C3558 0.950 . S
H3535 C3559 0.951 . S
H3536 C3561 0.951 . S
H3537 C3563 0.950 . S
H3538 C3564 0.950 . S
H3539 C3566 0.950 . S
H3540 C3569 0.950 . S
H3541 C3570 0.950 . S
H3542 C3572 0.950 . S
H3543 C3573 0.950 . S
C3544 H3526 0.951 . S
C3544 C3545 1.366 . S
C3544 C3546 1.388 . S
C3545 C3544 1.366 . S
C3545 C3549 1.385 . S
C3546 H3527 0.951 . S
C3546 C3544 1.388 . S
C3546 C3547 1.366 1_455 S
C3547 C3546 1.366 1_655 S
C3547 C3548 1.414 . S
C3547 C3550 1.499 . S
C3548 H3528 0.950 . S
C3548 C3547 1.414 . S
C3548 C3549 1.374 1_655 S
C3549 H3529 0.950 . S
C3549 C3545 1.385 . S
C3549 C3548 1.374 1_455 S
C3550 C3547 1.499 . S
C3550 C3551 1.373 . S
C3550 C3552 1.389 . S
C3551 H3530 0.950 . S
C3551 C3550 1.373 . S
C3551 C3567 1.377 . S
C3552 C3550 1.389 . S
C3552 C3553 1.524 . S
C3552 C3566 1.377 . S
C3553 C3552 1.524 . S
C3553 C3554 1.397 . S
C3553 C3558 1.363 . S
C3554 H3531 0.950 . S
C3554 C3553 1.397 . S
C3554 C3555 1.334 1_655 S
C3555 H3532 0.950 . S
C3555 C3554 1.334 1_455 S
C3555 C3556 1.287 . S
C3556 C3555 1.287 . S
C3556 C3557 1.524 . S
C3556 H3575 0.913 . S
C3557 H3533 0.950 . S
C3557 C3556 1.524 . S
C3557 C3558 1.415 1_455 S
C3558 H3534 0.950 . S
C3558 C3553 1.363 . S
C3558 C3557 1.415 1_655 S
C3559 H3535 0.951 . S
C3559 C3560 1.366 . S
C3559 C3561 1.388 . S
C3560 C3559 1.366 . S
C3560 C3564 1.385 . S
C3561 H3536 0.951 . S
C3561 C3559 1.388 . S
C3561 C3562 1.366 . S
C3562 C3561 1.366 . S
C3562 C3563 1.414 . S
C3562 C3565 1.499 . S
C3563 H3537 0.950 . S
C3563 C3562 1.414 . S
C3563 C3564 1.374 . S
C3564 H3538 0.950 . S
C3564 C3560 1.385 . S
C3564 C3563 1.374 . S
C3565 C3562 1.499 . S
C3565 C3566 1.373 . S
C3565 C3567 1.389 . S
C3566 H3539 0.950 . S
C3566 C3552 1.377 . S
C3566 C3565 1.373 . S
C3567 C3551 1.377 . S
C3567 C3565 1.389 . S
C3567 C3568 1.524 . S
C3568 C3567 1.524 . S
C3568 C3569 1.397 . S
C3568 C3573 1.363 . S
C3569 H3540 0.950 . S
C3569 C3568 1.397 . S
C3569 C3570 1.334 . S
C3570 H3541 0.950 . S
C3570 C3569 1.334 . S
C3570 C3571 1.287 . S
C3571 C3570 1.287 . S
C3571 C3572 1.524 . S
C3571 H3574 0.999 . S
C3572 H3542 0.950 . S
C3572 C3571 1.524 . S
C3572 C3573 1.415 . S
C3573 H3543 0.950 . S
C3573 C3568 1.363 . S
C3573 C3572 1.415 . S
H3574 C3571 0.999 . S
H3575 C3556 0.913 . S
H3576 C3594 0.951 . S
H3577 C3596 0.951 . S
H3578 C3598 0.950 . S
H3579 C3599 0.950 . S
H3580 C3601 0.950 . S
H3581 C3604 0.950 . S
H3582 C3605 0.950 . S
H3583 C3607 0.950 . S
H3584 C3608 0.950 . S
H3585 C3609 0.951 . S
H3586 C3611 0.951 . S
H3587 C3613 0.950 . S
H3588 C3614 0.950 . S
H3589 C3616 0.950 . S
H3590 C3619 0.950 . S
H3591 C3620 0.950 . S
H3592 C3622 0.950 . S
H3593 C3623 0.950 . S
C3594 H3576 0.951 . S
C3594 C3595 1.366 . S
C3594 C3596 1.388 . S
C3595 C3594 1.366 . S
C3595 C3599 1.385 . S
C3596 H3577 0.951 . S
C3596 C3594 1.388 . S
C3596 C3597 1.366 . S
C3597 C3596 1.366 . S
C3597 C3598 1.414 . S
C3597 C3600 1.499 . S
C3598 H3578 0.950 . S
C3598 C3597 1.414 . S
C3598 C3599 1.374 . S
C3599 H3579 0.950 . S
C3599 C3595 1.385 . S
C3599 C3598 1.374 . S
C3600 C3597 1.499 . S
C3600 C3601 1.373 . S
C3600 C3602 1.389 . S
C3601 H3580 0.950 . S
C3601 C3600 1.373 . S
C3601 C3617 1.377 . S
C3602 C3600 1.389 . S
C3602 C3603 1.524 . S
C3602 C3616 1.377 . S
C3603 C3602 1.524 . S
C3603 C3604 1.397 . S
C3603 C3608 1.363 . S
C3604 H3581 0.950 . S
C3604 C3603 1.397 . S
C3604 C3605 1.334 . S
C3605 H3582 0.950 . S
C3605 C3604 1.334 . S
C3605 C3606 1.287 . S
C3606 C3605 1.287 . S
C3606 C3607 1.524 . S
C3606 H3625 0.913 . S
C3607 H3583 0.950 . S
C3607 C3606 1.524 . S
C3607 C3608 1.415 . S
C3608 H3584 0.950 . S
C3608 C3603 1.363 . S
C3608 C3607 1.415 . S
C3609 H3585 0.951 . S
C3609 C3610 1.366 . S
C3609 C3611 1.388 . S
C3610 C3609 1.366 . S
C3610 C3614 1.385 . S
C3611 H3586 0.951 . S
C3611 C3609 1.388 . S
C3611 C3612 1.366 . S
C3612 C3611 1.366 . S
C3612 C3613 1.414 . S
C3612 C3615 1.499 . S
C3613 H3587 0.950 . S
C3613 C3612 1.414 . S
C3613 C3614 1.374 . S
C3614 H3588 0.950 . S
C3614 C3610 1.385 . S
C3614 C3613 1.374 . S
C3615 C3612 1.499 . S
C3615 C3616 1.373 . S
C3615 C3617 1.389 . S
C3616 H3589 0.950 . S
C3616 C3602 1.377 . S
C3616 C3615 1.373 . S
C3617 C3601 1.377 . S
C3617 C3615 1.389 . S
C3617 C3618 1.524 . S
C3618 C3617 1.524 . S
C3618 C3619 1.397 . S
C3618 C3623 1.363 . S
C3619 H3590 0.950 . S
C3619 C3618 1.397 . S
C3619 C3620 1.334 . S
C3620 H3591 0.950 . S
C3620 C3619 1.334 . S
C3620 C3621 1.287 . S
C3621 C3620 1.287 . S
C3621 C3622 1.524 . S
C3621 H3624 0.999 . S
C3622 H3592 0.950 . S
C3622 C3621 1.524 . S
C3622 C3623 1.415 . S
C3623 H3593 0.950 . S
C3623 C3618 1.363 . S
C3623 C3622 1.415 . S
H3624 C3621 0.999 . S
H3625 C3606 0.913 . S
H3626 C3644 0.951 . S
H3627 C3646 0.951 . S
H3628 C3648 0.950 . S
H3629 C3649 0.950 . S
H3630 C3651 0.950 . S
H3631 C3654 0.950 . S
H3632 C3655 0.950 . S
H3633 C3657 0.950 . S
H3634 C3658 0.950 . S
H3635 C3659 0.951 . S
H3636 C3661 0.951 . S
H3637 C3663 0.950 . S
H3638 C3664 0.950 . S
H3639 C3666 0.950 . S
H3640 C3669 0.950 . S
H3641 C3670 0.950 . S
H3642 C3672 0.950 . S
H3643 C3673 0.950 . S
C3644 H3626 0.951 . S
C3644 C3645 1.366 . S
C3644 C3646 1.388 . S
C3645 C3644 1.366 . S
C3645 C3649 1.385 . S
C3646 H3627 0.951 . S
C3646 C3644 1.388 . S
C3646 C3647 1.366 . S
C3647 C3646 1.366 . S
C3647 C3648 1.414 . S
C3647 C3650 1.499 . S
C3648 H3628 0.950 . S
C3648 C3647 1.414 . S
C3648 C3649 1.374 . S
C3649 H3629 0.950 . S
C3649 C3645 1.385 . S
C3649 C3648 1.374 . S
C3650 C3647 1.499 . S
C3650 C3651 1.373 . S
C3650 C3652 1.389 . S
C3651 H3630 0.950 . S
C3651 C3650 1.373 . S
C3651 C3667 1.377 . S
C3652 C3650 1.389 . S
C3652 C3653 1.524 . S
C3652 C3666 1.377 . S
C3653 C3652 1.524 . S
C3653 C3654 1.397 . S
C3653 C3658 1.363 . S
C3654 H3631 0.950 . S
C3654 C3653 1.397 . S
C3654 C3655 1.334 . S
C3655 H3632 0.950 . S
C3655 C3654 1.334 . S
C3655 C3656 1.287 . S
C3656 C3655 1.287 . S
C3656 C3657 1.524 . S
C3656 H3675 0.913 . S
C3657 H3633 0.950 . S
C3657 C3656 1.524 . S
C3657 C3658 1.415 . S
C3658 H3634 0.950 . S
C3658 C3653 1.363 . S
C3658 C3657 1.415 . S
C3659 H3635 0.951 . S
C3659 C3660 1.366 . S
C3659 C3661 1.388 . S
C3660 C3659 1.366 . S
C3660 C3664 1.385 . S
C3661 H3636 0.951 . S
C3661 C3659 1.388 . S
C3661 C3662 1.366 . S
C3662 C3661 1.366 . S
C3662 C3663 1.414 . S
C3662 C3665 1.499 . S
C3663 H3637 0.950 . S
C3663 C3662 1.414 . S
C3663 C3664 1.374 . S
C3664 H3638 0.950 . S
C3664 C3660 1.385 . S
C3664 C3663 1.374 . S
C3665 C3662 1.499 . S
C3665 C3666 1.373 . S
C3665 C3667 1.389 . S
C3666 H3639 0.950 . S
C3666 C3652 1.377 . S
C3666 C3665 1.373 . S
C3667 C3651 1.377 . S
C3667 C3665 1.389 . S
C3667 C3668 1.524 . S
C3668 C3667 1.524 . S
C3668 C3669 1.397 . S
C3668 C3673 1.363 . S
C3669 H3640 0.950 . S
C3669 C3668 1.397 . S
C3669 C3670 1.334 . S
C3670 H3641 0.950 . S
C3670 C3669 1.334 . S
C3670 C3671 1.287 . S
C3671 C3670 1.287 . S
C3671 C3672 1.524 . S
C3671 H3674 0.999 . S
C3672 H3642 0.950 . S
C3672 C3671 1.524 . S
C3672 C3673 1.415 . S
C3673 H3643 0.950 . S
C3673 C3668 1.363 . S
C3673 C3672 1.415 . S
H3674 C3671 0.999 . S
H3675 C3656 0.913 . S
H3676 C3694 0.951 . S
H3677 C3696 0.951 . S
H3678 C3698 0.950 . S
H3679 C3699 0.950 . S
H3680 C3701 0.950 . S
H3681 C3704 0.950 . S
H3682 C3705 0.950 . S
H3683 C3707 0.950 . S
H3684 C3708 0.950 . S
H3685 C3709 0.951 . S
H3686 C3711 0.951 . S
H3687 C3713 0.950 . S
H3688 C3714 0.950 . S
H3689 C3716 0.950 . S
H3690 C3719 0.950 . S
H3691 C3720 0.950 . S
H3692 C3722 0.950 . S
H3693 C3723 0.950 . S
C3694 H3676 0.951 . S
C3694 C3695 1.366 . S
C3694 C3696 1.388 . S
C3695 C3694 1.366 . S
C3695 C3699 1.385 . S
C3696 H3677 0.951 . S
C3696 C3694 1.388 . S
C3696 C3697 1.366 . S
C3697 C3696 1.366 . S
C3697 C3698 1.414 . S
C3697 C3700 1.499 . S
C3698 H3678 0.950 . S
C3698 C3697 1.414 . S
C3698 C3699 1.374 . S
C3699 H3679 0.950 . S
C3699 C3695 1.385 . S
C3699 C3698 1.374 . S
C3700 C3697 1.499 . S
C3700 C3701 1.373 . S
C3700 C3702 1.389 . S
C3701 H3680 0.950 . S
C3701 C3700 1.373 . S
C3701 C3717 1.377 . S
C3702 C3700 1.389 . S
C3702 C3703 1.524 . S
C3702 C3716 1.377 . S
C3703 C3702 1.524 . S
C3703 C3704 1.397 . S
C3703 C3708 1.363 . S
C3704 H3681 0.950 . S
C3704 C3703 1.397 . S
C3704 C3705 1.334 . S
C3705 H3682 0.950 . S
C3705 C3704 1.334 . S
C3705 C3706 1.287 . S
C3706 C3705 1.287 . S
C3706 C3707 1.524 . S
C3706 H3725 0.913 . S
C3707 H3683 0.950 . S
C3707 C3706 1.524 . S
C3707 C3708 1.415 . S
C3708 H3684 0.950 . S
C3708 C3703 1.363 . S
C3708 C3707 1.415 . S
C3709 H3685 0.951 . S
C3709 C3710 1.366 . S
C3709 C3711 1.388 . S
C3710 C3709 1.366 . S
C3710 C3714 1.385 . S
C3711 H3686 0.951 . S
C3711 C3709 1.388 . S
C3711 C3712 1.366 . S
C3712 C3711 1.366 . S
C3712 C3713 1.414 . S
C3712 C3715 1.499 . S
C3713 H3687 0.950 . S
C3713 C3712 1.414 . S
C3713 C3714 1.374 . S
C3714 H3688 0.950 . S
C3714 C3710 1.385 . S
C3714 C3713 1.374 . S
C3715 C3712 1.499 . S
C3715 C3716 1.373 . S
C3715 C3717 1.389 . S
C3716 H3689 0.950 . S
C3716 C3702 1.377 . S
C3716 C3715 1.373 . S
C3717 C3701 1.377 . S
C3717 C3715 1.389 . S
C3717 C3718 1.524 . S
C3718 C3717 1.524 . S
C3718 C3719 1.397 . S
C3718 C3723 1.363 . S
C3719 H3690 0.950 . S
C3719 C3718 1.397 . S
C3719 C3720 1.334 . S
C3720 H3691 0.950 . S
C3720 C3719 1.334 . S
C3720 C3721 1.287 . S
C3721 C3720 1.287 . S
C3721 C3722 1.524 . S
C3721 H3724 0.999 . S
C3722 H3692 0.950 . S
C3722 C3721 1.524 . S
C3722 C3723 1.415 . S
C3723 H3693 0.950 . S
C3723 C3718 1.363 . S
C3723 C3722 1.415 . S
H3724 C3721 0.999 . S
H3725 C3706 0.913 . S
H3726 C3744 0.951 . S
H3727 C3746 0.951 . S
H3728 C3748 0.950 . S
H3729 C3749 0.950 . S
H3730 C3751 0.950 . S
H3731 C3754 0.950 . S
H3732 C3755 0.950 . S
H3733 C3757 0.950 . S
H3734 C3758 0.950 . S
H3735 C3759 0.951 . S
H3736 C3761 0.951 . S
H3737 C3763 0.950 . S
H3738 C3764 0.950 . S
H3739 C3766 0.950 . S
H3740 C3769 0.950 . S
H3741 C3770 0.950 . S
H3742 C3772 0.950 . S
H3743 C3773 0.950 . S
C3744 H3726 0.951 . S
C3744 C3745 1.366 . S
C3744 C3746 1.388 . S
C3745 C3744 1.366 . S
C3745 C3749 1.385 . S
C3746 H3727 0.951 . S
C3746 C3744 1.388 . S
C3746 C3747 1.366 . S
C3747 C3746 1.366 . S
C3747 C3748 1.414 . S
C3747 C3750 1.499 . S
C3748 H3728 0.950 . S
C3748 C3747 1.414 . S
C3748 C3749 1.374 . S
C3749 H3729 0.950 . S
C3749 C3745 1.385 . S
C3749 C3748 1.374 . S
C3750 C3747 1.499 . S
C3750 C3751 1.373 . S
C3750 C3752 1.389 . S
C3751 H3730 0.950 . S
C3751 C3750 1.373 . S
C3751 C3767 1.377 . S
C3752 C3750 1.389 . S
C3752 C3753 1.524 . S
C3752 C3766 1.377 . S
C3753 C3752 1.524 . S
C3753 C3754 1.397 . S
C3753 C3758 1.363 . S
C3754 H3731 0.950 . S
C3754 C3753 1.397 . S
C3754 C3755 1.334 . S
C3755 H3732 0.950 . S
C3755 C3754 1.334 . S
C3755 C3756 1.287 . S
C3756 C3755 1.287 . S
C3756 C3757 1.524 . S
C3756 H3775 0.913 . S
C3757 H3733 0.950 . S
C3757 C3756 1.524 . S
C3757 C3758 1.415 . S
C3758 H3734 0.950 . S
C3758 C3753 1.363 . S
C3758 C3757 1.415 . S
C3759 H3735 0.951 . S
C3759 C3760 1.366 . S
C3759 C3761 1.388 . S
C3760 C3759 1.366 . S
C3760 C3764 1.385 . S
C3761 H3736 0.951 . S
C3761 C3759 1.388 . S
C3761 C3762 1.366 . S
C3762 C3761 1.366 . S
C3762 C3763 1.414 . S
C3762 C3765 1.499 . S
C3763 H3737 0.950 . S
C3763 C3762 1.414 . S
C3763 C3764 1.374 . S
C3764 H3738 0.950 . S
C3764 C3760 1.385 . S
C3764 C3763 1.374 . S
C3765 C3762 1.499 . S
C3765 C3766 1.373 . S
C3765 C3767 1.389 . S
C3766 H3739 0.950 . S
C3766 C3752 1.377 . S
C3766 C3765 1.373 . S
C3767 C3751 1.377 . S
C3767 C3765 1.389 . S
C3767 C3768 1.524 . S
C3768 C3767 1.524 . S
C3768 C3769 1.397 . S
C3768 C3773 1.363 . S
C3769 H3740 0.950 . S
C3769 C3768 1.397 . S
C3769 C3770 1.334 . S
C3770 H3741 0.950 . S
C3770 C3769 1.334 . S
C3770 C3771 1.287 . S
C3771 C3770 1.287 . S
C3771 C3772 1.524 . S
C3771 H3774 0.999 . S
C3772 H3742 0.950 . S
C3772 C3771 1.524 . S
C3772 C3773 1.415 . S
C3773 H3743 0.950 . S
C3773 C3768 1.363 . S
C3773 C3772 1.415 . S
H3774 C3771 0.999 . S
H3775 C3756 0.913 . S
H3776 C3794 0.951 . S
H3777 C3796 0.951 . S
H3778 C3798 0.950 . S
H3779 C3799 0.950 . S
H3780 C3801 0.950 . S
H3781 C3804 0.950 . S
H3782 C3805 0.950 . S
H3783 C3807 0.950 . S
H3784 C3808 0.950 . S
H3785 C3809 0.951 . S
H3786 C3811 0.951 . S
H3787 C3813 0.950 . S
H3788 C3814 0.950 . S
H3789 C3816 0.950 . S
H3790 C3819 0.950 . S
H3791 C3820 0.950 . S
H3792 C3822 0.950 . S
H3793 C3823 0.950 . S
C3794 H3776 0.951 . S
C3794 C3795 1.366 . S
C3794 C3796 1.388 . S
C3795 C3794 1.366 . S
C3795 C3799 1.385 . S
C3796 H3777 0.951 . S
C3796 C3794 1.388 . S
C3796 C3797 1.366 . S
C3797 C3796 1.366 . S
C3797 C3798 1.414 . S
C3797 C3800 1.499 . S
C3798 H3778 0.950 . S
C3798 C3797 1.414 . S
C3798 C3799 1.374 . S
C3799 H3779 0.950 . S
C3799 C3795 1.385 . S
C3799 C3798 1.374 . S
C3800 C3797 1.499 . S
C3800 C3801 1.373 . S
C3800 C3802 1.389 . S
C3801 H3780 0.950 . S
C3801 C3800 1.373 . S
C3801 C3817 1.377 . S
C3802 C3800 1.389 . S
C3802 C3803 1.524 . S
C3802 C3816 1.377 . S
C3803 C3802 1.524 . S
C3803 C3804 1.397 . S
C3803 C3808 1.363 . S
C3804 H3781 0.950 . S
C3804 C3803 1.397 . S
C3804 C3805 1.334 . S
C3805 H3782 0.950 . S
C3805 C3804 1.334 . S
C3805 C3806 1.287 . S
C3806 C3805 1.287 . S
C3806 C3807 1.524 . S
C3806 H3825 0.913 . S
C3807 H3783 0.950 . S
C3807 C3806 1.524 . S
C3807 C3808 1.415 . S
C3808 H3784 0.950 . S
C3808 C3803 1.363 . S
C3808 C3807 1.415 . S
C3809 H3785 0.951 . S
C3809 C3810 1.366 . S
C3809 C3811 1.388 . S
C3810 C3809 1.366 . S
C3810 C3814 1.385 . S
C3811 H3786 0.951 . S
C3811 C3809 1.388 . S
C3811 C3812 1.366 . S
C3812 C3811 1.366 . S
C3812 C3813 1.414 . S
C3812 C3815 1.499 . S
C3813 H3787 0.950 . S
C3813 C3812 1.414 . S
C3813 C3814 1.374 . S
C3814 H3788 0.950 . S
C3814 C3810 1.385 . S
C3814 C3813 1.374 . S
C3815 C3812 1.499 . S
C3815 C3816 1.373 . S
C3815 C3817 1.389 . S
C3816 H3789 0.950 . S
C3816 C3802 1.377 . S
C3816 C3815 1.373 . S
C3817 C3801 1.377 . S
C3817 C3815 1.389 . S
C3817 C3818 1.524 . S
C3818 C3817 1.524 . S
C3818 C3819 1.397 . S
C3818 C3823 1.363 . S
C3819 H3790 0.950 . S
C3819 C3818 1.397 . S
C3819 C3820 1.334 . S
C3820 H3791 0.950 . S
C3820 C3819 1.334 . S
C3820 C3821 1.287 . S
C3821 C3820 1.287 . S
C3821 C3822 1.524 . S
C3821 H3824 0.999 . S
C3822 H3792 0.950 . S
C3822 C3821 1.524 . S
C3822 C3823 1.415 . S
C3823 H3793 0.950 . S
C3823 C3818 1.363 . S
C3823 C3822 1.415 . S
H3824 C3821 0.999 . S
H3825 C3806 0.913 . S
H3826 C3844 0.951 . S
H3827 C3846 0.951 . S
H3828 C3848 0.950 . S
H3829 C3849 0.956 . S
H3830 C3851 0.950 . S
H3831 C3854 0.950 . S
H3832 C3855 0.950 . S
H3833 C3857 0.950 . S
H3834 C3858 0.950 . S
H3835 C3859 0.951 . S
H3836 C3861 0.951 . S
H3837 C3863 0.950 . S
H3838 C3864 0.950 . S
H3839 C3866 0.950 . S
H3840 C3869 0.950 . S
H3841 C3870 0.950 . S
H3842 C3872 0.950 . S
H3843 C3873 0.950 . S
C3844 H3826 0.951 . S
C3844 C3845 1.366 . S
C3844 C3846 1.388 1_554 S
C3845 C3844 1.366 . S
C3845 C3849 1.385 1_554 S
C3846 H3827 0.951 . S
C3846 C3844 1.388 1_556 S
C3846 C3847 1.366 . S
C3847 C3846 1.366 . S
C3847 C3848 1.414 . S
C3847 C3850 1.499 . S
C3848 H3828 0.950 . S
C3848 C3847 1.414 . S
C3848 C3849 1.374 . S
C3849 H3829 0.956 . S
C3849 C3845 1.385 1_556 S
C3849 C3848 1.374 . S
C3850 C3847 1.499 . S
C3850 C3851 1.373 . S
C3850 C3852 1.389 . S
C3851 H3830 0.950 . S
C3851 C3850 1.373 . S
C3851 C3867 1.377 . S
C3852 C3850 1.389 . S
C3852 C3853 1.524 . S
C3852 C3866 1.377 . S
C3853 C3852 1.524 . S
C3853 C3854 1.397 . S
C3853 C3858 1.363 . S
C3854 H3831 0.950 . S
C3854 C3853 1.397 . S
C3854 C3855 1.334 . S
C3855 H3832 0.950 . S
C3855 C3854 1.334 . S
C3855 C3856 1.287 . S
C3856 C3855 1.287 . S
C3856 C3857 1.524 . S
C3856 H3875 0.913 . S
C3857 H3833 0.950 . S
C3857 C3856 1.524 . S
C3857 C3858 1.415 . S
C3858 H3834 0.950 . S
C3858 C3853 1.363 . S
C3858 C3857 1.415 . S
C3859 H3835 0.951 . S
C3859 C3860 1.366 . S
C3859 C3861 1.388 . S
C3860 C3859 1.366 . S
C3860 C3864 1.385 . S
C3861 H3836 0.951 . S
C3861 C3859 1.388 . S
C3861 C3862 1.366 . S
C3862 C3861 1.366 . S
C3862 C3863 1.414 . S
C3862 C3865 1.499 . S
C3863 H3837 0.950 . S
C3863 C3862 1.414 . S
C3863 C3864 1.374 . S
C3864 H3838 0.950 . S
C3864 C3860 1.385 . S
C3864 C3863 1.374 . S
C3865 C3862 1.499 . S
C3865 C3866 1.373 . S
C3865 C3867 1.389 . S
C3866 H3839 0.950 . S
C3866 C3852 1.377 . S
C3866 C3865 1.373 . S
C3867 C3851 1.377 . S
C3867 C3865 1.389 . S
C3867 C3868 1.524 . S
C3868 C3867 1.524 . S
C3868 C3869 1.397 . S
C3868 C3873 1.363 . S
C3869 H3840 0.950 . S
C3869 C3868 1.397 . S
C3869 C3870 1.334 . S
C3870 H3841 0.950 . S
C3870 C3869 1.334 . S
C3870 C3871 1.287 . S
C3871 C3870 1.287 . S
C3871 C3872 1.524 . S
C3871 H3874 0.999 . S
C3872 H3842 0.950 . S
C3872 C3871 1.524 . S
C3872 C3873 1.415 . S
C3873 H3843 0.950 . S
C3873 C3868 1.363 . S
C3873 C3872 1.415 . S
H3874 C3871 0.999 . S
H3875 C3856 0.913 . S
H3876 C3894 0.951 . S
H3877 C3896 0.951 . S
H3878 C3898 0.950 . S
H3879 C3899 0.950 . S
H3880 C3901 0.950 . S
H3881 C3904 0.950 . S
H3882 C3905 0.950 . S
H3883 C3907 0.950 . S
H3884 C3908 0.950 . S
H3885 C3909 0.951 . S
H3886 C3911 0.951 . S
H3887 C3913 0.950 . S
H3888 C3914 0.950 . S
H3889 C3916 0.950 . S
H3890 C3919 0.950 . S
H3891 C3920 0.950 . S
H3892 C3922 0.950 . S
H3893 C3923 0.950 . S
C3894 H3876 0.951 . S
C3894 C3895 1.366 . S
C3894 C3896 1.388 . S
C3895 C3894 1.366 . S
C3895 C3899 1.385 . S
C3896 H3877 0.951 . S
C3896 C3894 1.388 . S
C3896 C3897 1.366 . S
C3897 C3896 1.366 . S
C3897 C3898 1.414 . S
C3897 C3900 1.499 . S
C3898 H3878 0.950 . S
C3898 C3897 1.414 . S
C3898 C3899 1.374 . S
C3899 H3879 0.950 . S
C3899 C3895 1.385 . S
C3899 C3898 1.374 . S
C3900 C3897 1.499 . S
C3900 C3901 1.373 . S
C3900 C3902 1.389 . S
C3901 H3880 0.950 . S
C3901 C3900 1.373 . S
C3901 C3917 1.377 . S
C3902 C3900 1.389 . S
C3902 C3903 1.524 . S
C3902 C3916 1.377 . S
C3903 C3902 1.524 . S
C3903 C3904 1.397 . S
C3903 C3908 1.363 . S
C3904 H3881 0.950 . S
C3904 C3903 1.397 . S
C3904 C3905 1.334 . S
C3905 H3882 0.950 . S
C3905 C3904 1.334 . S
C3905 C3906 1.287 . S
C3906 C3905 1.287 . S
C3906 C3907 1.524 . S
C3906 H3925 0.913 . S
C3907 H3883 0.950 . S
C3907 C3906 1.524 . S
C3907 C3908 1.415 . S
C3908 H3884 0.950 . S
C3908 C3903 1.363 . S
C3908 C3907 1.415 . S
C3909 H3885 0.951 . S
C3909 C3910 1.366 . S
C3909 C3911 1.388 . S
C3910 C3909 1.366 . S
C3910 C3914 1.385 . S
C3911 H3886 0.951 . S
C3911 C3909 1.388 . S
C3911 C3912 1.366 . S
C3912 C3911 1.366 . S
C3912 C3913 1.414 . S
C3912 C3915 1.499 . S
C3913 H3887 0.950 . S
C3913 C3912 1.414 . S
C3913 C3914 1.374 . S
C3914 H3888 0.950 . S
C3914 C3910 1.385 . S
C3914 C3913 1.374 . S
C3915 C3912 1.499 . S
C3915 C3916 1.373 . S
C3915 C3917 1.389 . S
C3916 H3889 0.950 . S
C3916 C3902 1.377 . S
C3916 C3915 1.373 . S
C3917 C3901 1.377 . S
C3917 C3915 1.389 . S
C3917 C3918 1.524 . S
C3918 C3917 1.524 . S
C3918 C3919 1.397 . S
C3918 C3923 1.363 . S
C3919 H3890 0.950 . S
C3919 C3918 1.397 . S
C3919 C3920 1.334 . S
C3920 H3891 0.950 . S
C3920 C3919 1.334 . S
C3920 C3921 1.287 . S
C3921 C3920 1.287 . S
C3921 C3922 1.524 . S
C3921 H3924 0.999 1_455 S
C3922 H3892 0.950 . S
C3922 C3921 1.524 . S
C3922 C3923 1.415 . S
C3923 H3893 0.950 . S
C3923 C3918 1.363 . S
C3923 C3922 1.415 . S
H3924 C3921 0.999 1_655 S
H3925 C3906 0.913 . S
H3926 C3944 0.951 . S
H3927 C3946 0.951 . S
H3928 C3948 0.950 . S
H3929 C3949 0.950 . S
H3930 C3951 0.950 . S
H3931 C3954 0.950 . S
H3932 C3955 0.950 . S
H3933 C3957 0.950 . S
H3934 C3958 0.950 . S
H3935 C3959 0.951 . S
H3936 C3961 0.951 . S
H3937 C3963 0.950 . S
H3938 C3964 0.950 . S
H3939 C3966 0.950 . S
H3940 C3969 0.950 . S
H3941 C3970 0.950 . S
H3942 C3972 0.950 . S
H3943 C3973 0.950 . S
C3944 H3926 0.951 . S
C3944 C3945 1.366 . S
C3944 C3946 1.388 . S
C3945 C3944 1.366 . S
C3945 C3949 1.385 . S
C3946 H3927 0.951 . S
C3946 C3944 1.388 . S
C3946 C3947 1.366 . S
C3947 C3946 1.366 . S
C3947 C3948 1.414 . S
C3947 C3950 1.499 . S
C3948 H3928 0.950 . S
C3948 C3947 1.414 . S
C3948 C3949 1.374 . S
C3949 H3929 0.950 . S
C3949 C3945 1.385 . S
C3949 C3948 1.374 . S
C3950 C3947 1.499 . S
C3950 C3951 1.373 . S
C3950 C3952 1.389 . S
C3951 H3930 0.950 . S
C3951 C3950 1.373 . S
C3951 C3967 1.377 . S
C3952 C3950 1.389 . S
C3952 C3953 1.524 . S
C3952 C3966 1.377 . S
C3953 C3952 1.524 . S
C3953 C3954 1.397 . S
C3953 C3958 1.363 . S
C3954 H3931 0.950 . S
C3954 C3953 1.397 . S
C3954 C3955 1.334 . S
C3955 H3932 0.950 . S
C3955 C3954 1.334 . S
C3955 C3956 1.287 . S
C3956 C3955 1.287 . S
C3956 C3957 1.524 . S
C3956 H3975 0.913 . S
C3957 H3933 0.950 . S
C3957 C3956 1.524 . S
C3957 C3958 1.415 . S
C3958 H3934 0.950 . S
C3958 C3953 1.363 . S
C3958 C3957 1.415 . S
C3959 H3935 0.951 . S
C3959 C3960 1.366 . S
C3959 C3961 1.388 . S
C3960 C3959 1.366 . S
C3960 C3964 1.385 . S
C3961 H3936 0.951 . S
C3961 C3959 1.388 . S
C3961 C3962 1.366 . S
C3962 C3961 1.366 . S
C3962 C3963 1.414 . S
C3962 C3965 1.499 . S
C3963 H3937 0.950 . S
C3963 C3962 1.414 . S
C3963 C3964 1.374 . S
C3964 H3938 0.950 . S
C3964 C3960 1.385 . S
C3964 C3963 1.374 . S
C3965 C3962 1.499 . S
C3965 C3966 1.373 . S
C3965 C3967 1.389 . S
C3966 H3939 0.950 . S
C3966 C3952 1.377 . S
C3966 C3965 1.373 . S
C3967 C3951 1.377 . S
C3967 C3965 1.389 . S
C3967 C3968 1.524 . S
C3968 C3967 1.524 . S
C3968 C3969 1.397 . S
C3968 C3973 1.363 . S
C3969 H3940 0.950 . S
C3969 C3968 1.397 . S
C3969 C3970 1.334 . S
C3970 H3941 0.950 . S
C3970 C3969 1.334 . S
C3970 C3971 1.287 . S
C3971 C3970 1.287 . S
C3971 C3972 1.524 . S
C3971 H3974 0.999 . S
C3972 H3942 0.950 . S
C3972 C3971 1.524 . S
C3972 C3973 1.415 . S
C3973 H3943 0.950 . S
C3973 C3968 1.363 . S
C3973 C3972 1.415 . S
H3974 C3971 0.999 . S
H3975 C3956 0.913 . S
H3976 C3994 0.951 . S
H3977 C3996 0.951 . S
H3978 C3998 0.950 . S
H3979 C3999 0.950 . S
H3980 C4001 0.950 . S
H3981 C4004 0.950 . S
H3982 C4005 0.950 . S
H3983 C4007 0.950 . S
H3984 C4008 0.950 . S
H3985 C4009 0.951 . S
H3986 C4011 0.951 . S
H3987 C4013 0.950 . S
H3988 C4014 0.950 . S
H3989 C4016 0.950 . S
H3990 C4019 0.950 . S
H3991 C4020 0.950 . S
H3992 C4022 0.950 . S
H3993 C4023 0.950 . S
C3994 H3976 0.951 . S
C3994 C3995 1.366 . S
C3994 C3996 1.388 . S
C3995 C3994 1.366 . S
C3995 C3999 1.385 . S
C3996 H3977 0.951 . S
C3996 C3994 1.388 . S
C3996 C3997 1.366 . S
C3997 C3996 1.366 . S
C3997 C3998 1.414 . S
C3997 C4000 1.499 . S
C3998 H3978 0.950 . S
C3998 C3997 1.414 . S
C3998 C3999 1.374 . S
C3999 H3979 0.950 . S
C3999 C3995 1.385 . S
C3999 C3998 1.374 . S
C4000 C3997 1.499 . S
C4000 C4001 1.373 . S
C4000 C4002 1.389 . S
C4001 H3980 0.950 . S
C4001 C4000 1.373 . S
C4001 C4017 1.377 . S
C4002 C4000 1.389 . S
C4002 C4003 1.524 . S
C4002 C4016 1.377 . S
C4003 C4002 1.524 . S
C4003 C4004 1.397 . S
C4003 C4008 1.363 . S
C4004 H3981 0.950 . S
C4004 C4003 1.397 . S
C4004 C4005 1.334 . S
C4005 H3982 0.950 . S
C4005 C4004 1.334 . S
C4005 C4006 1.287 . S
C4006 C4005 1.287 . S
C4006 C4007 1.524 . S
C4006 H4025 0.913 . S
C4007 H3983 0.950 . S
C4007 C4006 1.524 . S
C4007 C4008 1.415 . S
C4008 H3984 0.950 . S
C4008 C4003 1.363 . S
C4008 C4007 1.415 . S
C4009 H3985 0.951 . S
C4009 C4010 1.366 . S
C4009 C4011 1.388 . S
C4010 C4009 1.366 . S
C4010 C4014 1.385 . S
C4011 H3986 0.951 . S
C4011 C4009 1.388 . S
C4011 C4012 1.366 . S
C4012 C4011 1.366 . S
C4012 C4013 1.414 . S
C4012 C4015 1.499 . S
C4013 H3987 0.950 . S
C4013 C4012 1.414 . S
C4013 C4014 1.374 . S
C4014 H3988 0.950 . S
C4014 C4010 1.385 . S
C4014 C4013 1.374 . S
C4015 C4012 1.499 . S
C4015 C4016 1.373 . S
C4015 C4017 1.389 . S
C4016 H3989 0.950 . S
C4016 C4002 1.377 . S
C4016 C4015 1.373 . S
C4017 C4001 1.377 . S
C4017 C4015 1.389 . S
C4017 C4018 1.524 . S
C4018 C4017 1.524 . S
C4018 C4019 1.397 . S
C4018 C4023 1.363 . S
C4019 H3990 0.950 . S
C4019 C4018 1.397 . S
C4019 C4020 1.334 . S
C4020 H3991 0.950 . S
C4020 C4019 1.334 . S
C4020 C4021 1.287 . S
C4021 C4020 1.287 . S
C4021 C4022 1.524 . S
C4021 H4024 0.999 . S
C4022 H3992 0.950 . S
C4022 C4021 1.524 . S
C4022 C4023 1.415 . S
C4023 H3993 0.950 . S
C4023 C4018 1.363 . S
C4023 C4022 1.415 . S
H4024 C4021 0.999 . S
H4025 C4006 0.913 . S
H4026 C4044 0.951 . S
H4027 C4046 0.951 . S
H4028 C4048 0.950 . S
H4029 C4049 0.950 . S
H4030 C4051 0.950 . S
H4031 C4054 0.950 . S
H4032 C4055 0.950 . S
H4033 C4057 0.950 . S
H4034 C4058 0.950 . S
H4035 C4059 0.951 . S
H4036 C4061 0.951 . S
H4037 C4063 0.950 . S
H4038 C4064 0.950 . S
H4039 C4066 0.950 . S
H4040 C4069 0.950 . S
H4041 C4070 0.950 . S
H4042 C4072 0.950 . S
H4043 C4073 0.950 . S
C4044 H4026 0.951 . S
C4044 C4045 1.366 . S
C4044 C4046 1.388 . S
C4045 C4044 1.366 . S
C4045 C4049 1.385 . S
C4046 H4027 0.951 . S
C4046 C4044 1.388 . S
C4046 C4047 1.366 . S
C4047 C4046 1.366 . S
C4047 C4048 1.414 . S
C4047 C4050 1.499 . S
C4048 H4028 0.950 . S
C4048 C4047 1.414 . S
C4048 C4049 1.374 . S
C4049 H4029 0.950 . S
C4049 C4045 1.385 . S
C4049 C4048 1.374 . S
C4050 C4047 1.499 . S
C4050 C4051 1.373 . S
C4050 C4052 1.389 . S
C4051 H4030 0.950 . S
C4051 C4050 1.373 . S
C4051 C4067 1.377 . S
C4052 C4050 1.389 . S
C4052 C4053 1.524 . S
C4052 C4066 1.377 . S
C4053 C4052 1.524 . S
C4053 C4054 1.397 . S
C4053 C4058 1.363 . S
C4054 H4031 0.950 . S
C4054 C4053 1.397 . S
C4054 C4055 1.334 . S
C4055 H4032 0.950 . S
C4055 C4054 1.334 . S
C4055 C4056 1.287 . S
C4056 C4055 1.287 . S
C4056 C4057 1.524 . S
C4056 H4075 0.913 . S
C4057 H4033 0.950 . S
C4057 C4056 1.524 . S
C4057 C4058 1.415 . S
C4058 H4034 0.950 . S
C4058 C4053 1.363 . S
C4058 C4057 1.415 . S
C4059 H4035 0.951 . S
C4059 C4060 1.366 . S
C4059 C4061 1.388 . S
C4060 C4059 1.366 . S
C4060 C4064 1.385 . S
C4061 H4036 0.951 . S
C4061 C4059 1.388 . S
C4061 C4062 1.366 . S
C4062 C4061 1.366 . S
C4062 C4063 1.414 . S
C4062 C4065 1.499 . S
C4063 H4037 0.950 . S
C4063 C4062 1.414 . S
C4063 C4064 1.374 . S
C4064 H4038 0.950 . S
C4064 C4060 1.385 . S
C4064 C4063 1.374 . S
C4065 C4062 1.499 . S
C4065 C4066 1.373 . S
C4065 C4067 1.389 . S
C4066 H4039 0.950 . S
C4066 C4052 1.377 . S
C4066 C4065 1.373 . S
C4067 C4051 1.377 . S
C4067 C4065 1.389 . S
C4067 C4068 1.524 . S
C4068 C4067 1.524 . S
C4068 C4069 1.397 . S
C4068 C4073 1.363 . S
C4069 H4040 0.950 . S
C4069 C4068 1.397 . S
C4069 C4070 1.334 . S
C4070 H4041 0.950 . S
C4070 C4069 1.334 . S
C4070 C4071 1.287 . S
C4071 C4070 1.287 . S
C4071 C4072 1.524 . S
C4071 H4074 0.999 . S
C4072 H4042 0.950 . S
C4072 C4071 1.524 . S
C4072 C4073 1.415 . S
C4073 H4043 0.950 . S
C4073 C4068 1.363 . S
C4073 C4072 1.415 . S
H4074 C4071 0.999 . S
H4075 C4056 0.913 . S
H4076 C4094 0.951 . S
H4077 C4096 0.951 . S
H4078 C4098 0.950 . S
H4079 C4099 0.950 . S
H4080 C4101 0.950 . S
H4081 C4104 0.950 . S
H4082 C4105 0.950 . S
H4083 C4107 0.950 . S
H4084 C4108 0.950 . S
H4085 C4109 0.951 . S
H4086 C4111 0.951 . S
H4087 C4113 0.950 . S
H4088 C4114 0.950 . S
H4089 C4116 0.950 . S
H4090 C4119 0.950 . S
H4091 C4120 0.950 . S
H4092 C4122 0.950 . S
H4093 C4123 0.950 . S
C4094 H4076 0.951 . S
C4094 C4095 1.366 . S
C4094 C4096 1.388 . S
C4095 C4094 1.366 . S
C4095 C4099 1.385 . S
C4096 H4077 0.951 . S
C4096 C4094 1.388 . S
C4096 C4097 1.366 . S
C4097 C4096 1.366 . S
C4097 C4098 1.414 . S
C4097 C4100 1.499 . S
C4098 H4078 0.950 . S
C4098 C4097 1.414 . S
C4098 C4099 1.374 . S
C4099 H4079 0.950 . S
C4099 C4095 1.385 . S
C4099 C4098 1.374 . S
C4100 C4097 1.499 . S
C4100 C4101 1.373 . S
C4100 C4102 1.389 . S
C4101 H4080 0.950 . S
C4101 C4100 1.373 . S
C4101 C4117 1.377 . S
C4102 C4100 1.389 . S
C4102 C4103 1.524 . S
C4102 C4116 1.377 . S
C4103 C4102 1.524 . S
C4103 C4104 1.397 . S
C4103 C4108 1.363 . S
C4104 H4081 0.950 . S
C4104 C4103 1.397 . S
C4104 C4105 1.334 . S
C4105 H4082 0.950 . S
C4105 C4104 1.334 . S
C4105 C4106 1.287 . S
C4106 C4105 1.287 . S
C4106 C4107 1.524 . S
C4106 H4125 0.913 . S
C4107 H4083 0.950 . S
C4107 C4106 1.524 . S
C4107 C4108 1.415 . S
C4108 H4084 0.950 . S
C4108 C4103 1.363 . S
C4108 C4107 1.415 . S
C4109 H4085 0.951 . S
C4109 C4110 1.366 . S
C4109 C4111 1.388 . S
C4110 C4109 1.366 . S
C4110 C4114 1.385 . S
C4111 H4086 0.951 . S
C4111 C4109 1.388 . S
C4111 C4112 1.366 . S
C4112 C4111 1.366 . S
C4112 C4113 1.414 . S
C4112 C4115 1.499 . S
C4113 H4087 0.950 . S
C4113 C4112 1.414 . S
C4113 C4114 1.374 . S
C4114 H4088 0.950 . S
C4114 C4110 1.385 . S
C4114 C4113 1.374 . S
C4115 C4112 1.499 . S
C4115 C4116 1.373 . S
C4115 C4117 1.389 . S
C4116 H4089 0.950 . S
C4116 C4102 1.377 . S
C4116 C4115 1.373 . S
C4117 C4101 1.377 . S
C4117 C4115 1.389 . S
C4117 C4118 1.524 . S
C4118 C4117 1.524 . S
C4118 C4119 1.397 . S
C4118 C4123 1.363 . S
C4119 H4090 0.950 . S
C4119 C4118 1.397 . S
C4119 C4120 1.334 . S
C4120 H4091 0.950 . S
C4120 C4119 1.334 . S
C4120 C4121 1.287 . S
C4121 C4120 1.287 . S
C4121 C4122 1.524 . S
C4121 H4124 0.999 . S
C4122 H4092 0.950 . S
C4122 C4121 1.524 . S
C4122 C4123 1.415 . S
C4123 H4093 0.950 . S
C4123 C4118 1.363 . S
C4123 C4122 1.415 . S
H4124 C4121 0.999 . S
H4125 C4106 0.913 . S
H4126 C4144 0.951 . S
H4127 C4146 0.951 . S
H4128 C4148 0.950 . S
H4129 C4149 0.950 . S
H4130 C4151 0.950 . S
H4131 C4154 0.950 . S
H4132 C4155 0.950 . S
H4133 C4157 0.950 . S
H4134 C4158 0.950 . S
H4135 C4159 0.951 . S
H4136 C4161 0.951 . S
H4137 C4163 0.950 . S
H4138 C4164 0.950 . S
H4139 C4166 0.950 . S
H4140 C4169 0.950 . S
H4141 C4170 0.950 . S
H4142 C4172 0.950 . S
H4143 C4173 0.950 . S
C4144 H4126 0.951 . S
C4144 C4145 1.366 . S
C4144 C4146 1.388 . S
C4145 C4144 1.366 . S
C4145 C4149 1.385 . S
C4146 H4127 0.951 . S
C4146 C4144 1.388 . S
C4146 C4147 1.366 . S
C4147 C4146 1.366 . S
C4147 C4148 1.414 . S
C4147 C4150 1.499 . S
C4148 H4128 0.950 . S
C4148 C4147 1.414 . S
C4148 C4149 1.374 . S
C4149 H4129 0.950 . S
C4149 C4145 1.385 . S
C4149 C4148 1.374 . S
C4150 C4147 1.499 . S
C4150 C4151 1.373 . S
C4150 C4152 1.389 . S
C4151 H4130 0.950 . S
C4151 C4150 1.373 . S
C4151 C4167 1.377 . S
C4152 C4150 1.389 . S
C4152 C4153 1.524 . S
C4152 C4166 1.377 . S
C4153 C4152 1.524 . S
C4153 C4154 1.397 . S
C4153 C4158 1.363 . S
C4154 H4131 0.950 . S
C4154 C4153 1.397 . S
C4154 C4155 1.334 . S
C4155 H4132 0.950 . S
C4155 C4154 1.334 . S
C4155 C4156 1.287 . S
C4156 C4155 1.287 . S
C4156 C4157 1.524 . S
C4156 H4175 0.913 . S
C4157 H4133 0.950 . S
C4157 C4156 1.524 . S
C4157 C4158 1.415 . S
C4158 H4134 0.950 . S
C4158 C4153 1.363 . S
C4158 C4157 1.415 . S
C4159 H4135 0.951 . S
C4159 C4160 1.366 . S
C4159 C4161 1.388 . S
C4160 C4159 1.366 . S
C4160 C4164 1.385 . S
C4161 H4136 0.951 . S
C4161 C4159 1.388 . S
C4161 C4162 1.366 . S
C4162 C4161 1.366 . S
C4162 C4163 1.414 . S
C4162 C4165 1.499 . S
C4163 H4137 0.950 . S
C4163 C4162 1.414 . S
C4163 C4164 1.374 . S
C4164 H4138 0.950 . S
C4164 C4160 1.385 . S
C4164 C4163 1.374 . S
C4165 C4162 1.499 . S
C4165 C4166 1.373 . S
C4165 C4167 1.389 . S
C4166 H4139 0.950 . S
C4166 C4152 1.377 . S
C4166 C4165 1.373 . S
C4167 C4151 1.377 . S
C4167 C4165 1.389 . S
C4167 C4168 1.524 . S
C4168 C4167 1.524 . S
C4168 C4169 1.397 . S
C4168 C4173 1.363 . S
C4169 H4140 0.950 . S
C4169 C4168 1.397 . S
C4169 C4170 1.334 . S
C4170 H4141 0.950 . S
C4170 C4169 1.334 . S
C4170 C4171 1.287 . S
C4171 C4170 1.287 . S
C4171 C4172 1.524 . S
C4171 H4174 0.999 . S
C4172 H4142 0.950 . S
C4172 C4171 1.524 . S
C4172 C4173 1.415 . S
C4173 H4143 0.950 . S
C4173 C4168 1.363 . S
C4173 C4172 1.415 . S
H4174 C4171 0.999 . S
H4175 C4156 0.913 . S
H4176 C4194 0.951 . S
H4177 C4196 0.951 . S
H4178 C4198 0.950 . S
H4179 C4199 0.950 . S
H4180 C4201 0.950 . S
H4181 C4204 0.950 . S
H4182 C4205 0.950 . S
H4183 C4207 0.950 . S
H4184 C4208 0.950 . S
H4185 C4209 0.951 . S
H4186 C4211 0.951 . S
H4187 C4213 0.950 . S
H4188 C4214 0.950 . S
H4189 C4216 0.950 . S
H4190 C4219 0.950 . S
H4191 C4220 0.950 . S
H4192 C4222 0.950 . S
H4193 C4223 0.950 . S
C4194 H4176 0.951 . S
C4194 C4195 1.366 . S
C4194 C4196 1.388 . S
C4195 C4194 1.366 . S
C4195 C4199 1.385 . S
C4196 H4177 0.951 . S
C4196 C4194 1.388 . S
C4196 C4197 1.366 . S
C4197 C4196 1.366 . S
C4197 C4198 1.414 . S
C4197 C4200 1.499 . S
C4198 H4178 0.950 . S
C4198 C4197 1.414 . S
C4198 C4199 1.374 . S
C4199 H4179 0.950 . S
C4199 C4195 1.385 . S
C4199 C4198 1.374 . S
C4200 C4197 1.499 . S
C4200 C4201 1.373 . S
C4200 C4202 1.389 . S
C4201 H4180 0.950 . S
C4201 C4200 1.373 . S
C4201 C4217 1.377 . S
C4202 C4200 1.389 . S
C4202 C4203 1.524 . S
C4202 C4216 1.377 . S
C4203 C4202 1.524 . S
C4203 C4204 1.397 . S
C4203 C4208 1.363 . S
C4204 H4181 0.950 . S
C4204 C4203 1.397 . S
C4204 C4205 1.334 . S
C4205 H4182 0.950 . S
C4205 C4204 1.334 . S
C4205 C4206 1.287 . S
C4206 C4205 1.287 . S
C4206 C4207 1.524 . S
C4206 H4225 0.913 . S
C4207 H4183 0.950 . S
C4207 C4206 1.524 . S
C4207 C4208 1.415 . S
C4208 H4184 0.950 . S
C4208 C4203 1.363 . S
C4208 C4207 1.415 . S
C4209 H4185 0.951 . S
C4209 C4210 1.366 . S
C4209 C4211 1.388 . S
C4210 C4209 1.366 . S
C4210 C4214 1.385 . S
C4211 H4186 0.951 . S
C4211 C4209 1.388 . S
C4211 C4212 1.366 . S
C4212 C4211 1.366 . S
C4212 C4213 1.414 . S
C4212 C4215 1.499 . S
C4213 H4187 0.950 . S
C4213 C4212 1.414 . S
C4213 C4214 1.374 . S
C4214 H4188 0.950 . S
C4214 C4210 1.385 . S
C4214 C4213 1.374 . S
C4215 C4212 1.499 . S
C4215 C4216 1.373 . S
C4215 C4217 1.389 . S
C4216 H4189 0.950 . S
C4216 C4202 1.377 . S
C4216 C4215 1.373 . S
C4217 C4201 1.377 . S
C4217 C4215 1.389 . S
C4217 C4218 1.524 . S
C4218 C4217 1.524 . S
C4218 C4219 1.397 . S
C4218 C4223 1.363 . S
C4219 H4190 0.950 . S
C4219 C4218 1.397 . S
C4219 C4220 1.334 . S
C4220 H4191 0.950 . S
C4220 C4219 1.334 . S
C4220 C4221 1.287 . S
C4221 C4220 1.287 . S
C4221 C4222 1.524 . S
C4221 H4224 0.999 . S
C4222 H4192 0.950 . S
C4222 C4221 1.524 . S
C4222 C4223 1.415 . S
C4223 H4193 0.950 . S
C4223 C4218 1.363 . S
C4223 C4222 1.415 . S
H4224 C4221 0.999 . S
H4225 C4206 0.913 . S
H4226 C4244 0.951 . S
H4227 C4246 0.951 . S
H4228 C4248 0.950 . S
H4229 C4249 0.950 . S
H4230 C4251 0.950 . S
H4231 C4254 0.950 . S
H4232 C4255 0.950 . S
H4233 C4257 0.950 . S
H4234 C4258 0.950 . S
H4235 C4259 0.951 . S
H4236 C4261 0.951 . S
H4237 C4263 0.950 . S
H4238 C4264 0.950 . S
H4239 C4266 0.950 . S
H4240 C4269 0.950 . S
H4241 C4270 0.950 . S
H4242 C4272 0.950 . S
H4243 C4273 0.950 . S
C4244 H4226 0.951 . S
C4244 C4245 1.366 . S
C4244 C4246 1.388 . S
C4245 C4244 1.366 . S
C4245 C4249 1.385 . S
C4246 H4227 0.951 . S
C4246 C4244 1.388 . S
C4246 C4247 1.366 . S
C4247 C4246 1.366 . S
C4247 C4248 1.414 . S
C4247 C4250 1.499 . S
C4248 H4228 0.950 . S
C4248 C4247 1.414 . S
C4248 C4249 1.374 . S
C4249 H4229 0.950 . S
C4249 C4245 1.385 . S
C4249 C4248 1.374 . S
C4250 C4247 1.499 . S
C4250 C4251 1.373 . S
C4250 C4252 1.389 . S
C4251 H4230 0.950 . S
C4251 C4250 1.373 . S
C4251 C4267 1.377 . S
C4252 C4250 1.389 . S
C4252 C4253 1.524 . S
C4252 C4266 1.377 . S
C4253 C4252 1.524 . S
C4253 C4254 1.397 . S
C4253 C4258 1.363 . S
C4254 H4231 0.950 . S
C4254 C4253 1.397 . S
C4254 C4255 1.334 . S
C4255 H4232 0.950 . S
C4255 C4254 1.334 . S
C4255 C4256 1.287 . S
C4256 C4255 1.287 . S
C4256 C4257 1.524 . S
C4256 H4275 0.913 . S
C4257 H4233 0.950 . S
C4257 C4256 1.524 . S
C4257 C4258 1.415 . S
C4258 H4234 0.950 . S
C4258 C4253 1.363 . S
C4258 C4257 1.415 . S
C4259 H4235 0.951 . S
C4259 C4260 1.366 . S
C4259 C4261 1.388 . S
C4260 C4259 1.366 . S
C4260 C4264 1.385 . S
C4261 H4236 0.951 . S
C4261 C4259 1.388 . S
C4261 C4262 1.366 . S
C4262 C4261 1.366 . S
C4262 C4263 1.414 . S
C4262 C4265 1.499 . S
C4263 H4237 0.950 . S
C4263 C4262 1.414 . S
C4263 C4264 1.374 . S
C4264 H4238 0.950 . S
C4264 C4260 1.385 . S
C4264 C4263 1.374 . S
C4265 C4262 1.499 . S
C4265 C4266 1.373 . S
C4265 C4267 1.389 . S
C4266 H4239 0.950 . S
C4266 C4252 1.377 . S
C4266 C4265 1.373 . S
C4267 C4251 1.377 . S
C4267 C4265 1.389 . S
C4267 C4268 1.524 . S
C4268 C4267 1.524 . S
C4268 C4269 1.397 . S
C4268 C4273 1.363 . S
C4269 H4240 0.950 . S
C4269 C4268 1.397 . S
C4269 C4270 1.334 . S
C4270 H4241 0.950 . S
C4270 C4269 1.334 . S
C4270 C4271 1.287 . S
C4271 C4270 1.287 . S
C4271 C4272 1.524 . S
C4271 H4274 0.999 . S
C4272 H4242 0.950 . S
C4272 C4271 1.524 . S
C4272 C4273 1.415 . S
C4273 H4243 0.950 . S
C4273 C4268 1.363 . S
C4273 C4272 1.415 . S
H4274 C4271 0.999 . S
H4275 C4256 0.913 . S
H4276 C4294 0.951 . S
H4277 C4296 0.951 . S
H4278 C4298 0.950 . S
H4279 C4299 0.950 1_545 S
H4280 C4301 0.950 . S
H4281 C4304 0.950 . S
H4282 C4305 0.950 . S
H4283 C4307 0.950 . S
H4284 C4308 0.950 . S
H4285 C4309 0.951 . S
H4286 C4311 0.951 . S
H4287 C4313 0.950 . S
H4288 C4314 0.950 . S
H4289 C4316 0.950 . S
H4290 C4319 0.950 . S
H4291 C4320 0.950 . S
H4292 C4322 0.946 . S
H4293 C4323 0.950 . S
C4294 H4276 0.951 . S
C4294 C4295 1.366 . S
C4294 C4296 1.388 . S
C4295 C4294 1.366 . S
C4295 C4299 1.385 . S
C4296 H4277 0.951 . S
C4296 C4294 1.388 . S
C4296 C4297 1.366 . S
C4297 C4296 1.366 . S
C4297 C4298 1.414 . S
C4297 C4300 1.499 . S
C4298 H4278 0.950 . S
C4298 C4297 1.414 . S
C4298 C4299 1.374 . S
C4299 H4279 0.950 1_565 S
C4299 C4295 1.385 . S
C4299 C4298 1.374 . S
C4300 C4297 1.499 . S
C4300 C4301 1.373 . S
C4300 C4302 1.389 . S
C4301 H4280 0.950 . S
C4301 C4300 1.373 . S
C4301 C4317 1.377 . S
C4302 C4300 1.389 . S
C4302 C4303 1.524 . S
C4302 C4316 1.377 . S
C4303 C4302 1.524 . S
C4303 C4304 1.397 . S
C4303 C4308 1.363 . S
C4304 H4281 0.950 . S
C4304 C4303 1.397 . S
C4304 C4305 1.334 . S
C4305 H4282 0.950 . S
C4305 C4304 1.334 . S
C4305 C4306 1.287 . S
C4306 C4305 1.287 . S
C4306 C4307 1.524 . S
C4306 H4325 0.913 . S
C4307 H4283 0.950 . S
C4307 C4306 1.524 . S
C4307 C4308 1.415 . S
C4308 H4284 0.950 . S
C4308 C4303 1.363 . S
C4308 C4307 1.415 . S
C4309 H4285 0.951 . S
C4309 C4310 1.366 . S
C4309 C4311 1.388 . S
C4310 C4309 1.366 . S
C4310 C4314 1.385 . S
C4311 H4286 0.951 . S
C4311 C4309 1.388 . S
C4311 C4312 1.366 . S
C4312 C4311 1.366 . S
C4312 C4313 1.414 . S
C4312 C4315 1.499 . S
C4313 H4287 0.950 . S
C4313 C4312 1.414 . S
C4313 C4314 1.374 . S
C4314 H4288 0.950 . S
C4314 C4310 1.385 . S
C4314 C4313 1.374 . S
C4315 C4312 1.499 . S
C4315 C4316 1.373 . S
C4315 C4317 1.389 . S
C4316 H4289 0.950 . S
C4316 C4302 1.377 . S
C4316 C4315 1.373 . S
C4317 C4301 1.377 . S
C4317 C4315 1.389 . S
C4317 C4318 1.524 . S
C4318 C4317 1.524 . S
C4318 C4319 1.397 . S
C4318 C4323 1.363 . S
C4319 H4290 0.950 . S
C4319 C4318 1.397 . S
C4319 C4320 1.334 . S
C4320 H4291 0.950 . S
C4320 C4319 1.334 . S
C4320 C4321 1.287 . S
C4321 C4320 1.287 . S
C4321 C4322 1.524 . S
C4321 H4324 0.999 . S
C4322 H4292 0.946 . S
C4322 C4321 1.524 . S
C4322 C4323 1.415 . S
C4323 H4293 0.950 . S
C4323 C4318 1.363 . S
C4323 C4322 1.415 . S
H4324 C4321 0.999 . S
H4325 C4306 0.913 . S
H4326 C4344 0.951 . S
H4327 C4346 0.951 . S
H4328 C4348 0.950 . S
H4329 C4349 0.950 . S
H4330 C4351 0.950 . S
H4331 C4354 0.950 . S
H4332 C4355 0.950 . S
H4333 C4357 0.950 . S
H4334 C4358 0.950 . S
H4335 C4359 0.995 . S
H4336 C4361 0.951 . S
H4337 C4363 0.950 . S
H4338 C4364 0.950 . S
H4339 C4366 0.972 1_545 S
H4340 C4369 0.950 . S
H4341 C4370 0.950 . S
H4342 C4372 0.950 . S
H4343 C4373 0.950 . S
C4344 H4326 0.951 . S
C4344 C4345 1.368 . S
C4344 C4346 1.388 . S
C4345 C4344 1.368 . S
C4345 C4349 1.382 1_554 S
C4346 H4327 0.951 . S
C4346 C4344 1.388 . S
C4346 C4347 1.366 . S
C4347 C4346 1.366 . S
C4347 C4348 1.414 1_554 S
C4347 C4350 1.499 . S
C4348 H4328 0.950 . S
C4348 C4347 1.414 1_556 S
C4348 C4349 1.374 . S
C4349 H4329 0.950 . S
C4349 C4345 1.382 1_556 S
C4349 C4348 1.374 . S
C4350 C4347 1.499 . S
C4350 C4351 1.373 . S
C4350 C4352 1.389 1_554 S
C4351 H4330 0.950 . S
C4351 C4350 1.373 . S
C4351 C4367 1.377 . S
C4352 C4350 1.389 1_556 S
C4352 C4353 1.524 . S
C4352 C4366 1.379 . S
C4353 C4352 1.524 . S
C4353 C4354 1.397 . S
C4353 C4358 1.363 1_565 S
C4354 H4331 0.950 . S
C4354 C4353 1.397 . S
C4354 C4355 1.334 . S
C4355 H4332 0.950 . S
C4355 C4354 1.334 . S
C4355 C4356 1.287 1_565 S
C4356 C4355 1.287 1_545 S
C4356 C4357 1.524 . S
C4356 H4375 0.913 . S
C4357 H4333 0.950 . S
C4357 C4356 1.524 . S
C4357 C4358 1.415 . S
C4358 H4334 0.950 . S
C4358 C4353 1.363 1_545 S
C4358 C4357 1.415 . S
C4359 H4335 0.995 . S
C4359 C4360 1.314 1_565 S
C4359 C4361 1.398 . S
C4360 C4359 1.314 1_545 S
C4360 C4364 1.385 . S
C4361 H4336 0.951 . S
C4361 C4359 1.398 . S
C4361 C4362 1.404 . S
C4362 C4361 1.404 . S
C4362 C4363 1.368 1_565 S
C4362 C4365 1.506 . S
C4363 H4337 0.950 . S
C4363 C4362 1.368 1_545 S
C4363 C4364 1.374 . S
C4364 H4338 0.950 . S
C4364 C4360 1.385 . S
C4364 C4363 1.374 . S
C4365 C4362 1.506 . S
C4365 C4366 1.352 1_554 S
C4365 C4367 1.389 . S
C4366 H4339 0.972 1_565 S
C4366 C4352 1.379 . S
C4366 C4365 1.352 1_556 S
C4367 C4351 1.377 . S
C4367 C4365 1.389 . S
C4367 C4368 1.524 . S
C4368 C4367 1.524 . S
C4368 C4369 1.397 . S
C4368 C4373 1.363 . S
C4369 H4340 0.950 . S
C4369 C4368 1.397 . S
C4369 C4370 1.334 . S
C4370 H4341 0.950 . S
C4370 C4369 1.334 . S
C4370 C4371 1.287 . S
C4371 C4370 1.287 . S
C4371 C4372 1.524 . S
C4371 H4374 0.999 . S
C4372 H4342 0.950 . S
C4372 C4371 1.524 . S
C4372 C4373 1.415 . S
C4373 H4343 0.950 . S
C4373 C4368 1.363 . S
C4373 C4372 1.415 . S
H4374 C4371 0.999 . S
H4375 C4356 0.913 . S
H4376 C4394 0.951 . S
H4377 C4396 0.951 . S
H4378 C4398 0.950 . S
H4379 C4399 0.950 . S
H4380 C4401 0.950 . S
H4381 C4404 0.950 . S
H4382 C4405 0.950 . S
H4383 C4407 0.950 . S
H4384 C4408 0.950 . S
H4385 C4409 0.951 . S
H4386 C4411 0.951 . S
H4387 C4413 0.950 . S
H4388 C4414 0.950 . S
H4389 C4416 0.950 . S
H4390 C4419 0.950 . S
H4391 C4420 0.950 . S
H4392 C4422 0.950 . S
H4393 C4423 0.950 . S
C4394 H4376 0.951 . S
C4394 C4395 1.366 . S
C4394 C4396 1.388 . S
C4395 C4394 1.366 . S
C4395 C4399 1.385 . S
C4396 H4377 0.951 . S
C4396 C4394 1.388 . S
C4396 C4397 1.366 . S
C4397 C4396 1.366 . S
C4397 C4398 1.414 . S
C4397 C4400 1.499 . S
C4398 H4378 0.950 . S
C4398 C4397 1.414 . S
C4398 C4399 1.374 . S
C4399 H4379 0.950 . S
C4399 C4395 1.385 . S
C4399 C4398 1.374 . S
C4400 C4397 1.499 . S
C4400 C4401 1.373 . S
C4400 C4402 1.389 . S
C4401 H4380 0.950 . S
C4401 C4400 1.373 . S
C4401 C4417 1.377 . S
C4402 C4400 1.389 . S
C4402 C4403 1.524 . S
C4402 C4416 1.377 . S
C4403 C4402 1.524 . S
C4403 C4404 1.397 . S
C4403 C4408 1.363 . S
C4404 H4381 0.950 . S
C4404 C4403 1.397 . S
C4404 C4405 1.334 . S
C4405 H4382 0.950 . S
C4405 C4404 1.334 . S
C4405 C4406 1.287 . S
C4406 C4405 1.287 . S
C4406 C4407 1.524 . S
C4406 H4425 0.913 . S
C4407 H4383 0.950 . S
C4407 C4406 1.524 . S
C4407 C4408 1.415 . S
C4408 H4384 0.950 . S
C4408 C4403 1.363 . S
C4408 C4407 1.415 . S
C4409 H4385 0.951 . S
C4409 C4410 1.366 . S
C4409 C4411 1.388 . S
C4410 C4409 1.366 . S
C4410 C4414 1.385 . S
C4411 H4386 0.951 . S
C4411 C4409 1.388 . S
C4411 C4412 1.366 . S
C4412 C4411 1.366 . S
C4412 C4413 1.414 . S
C4412 C4415 1.499 . S
C4413 H4387 0.950 . S
C4413 C4412 1.414 . S
C4413 C4414 1.374 . S
C4414 H4388 0.950 . S
C4414 C4410 1.385 . S
C4414 C4413 1.374 . S
C4415 C4412 1.499 . S
C4415 C4416 1.373 . S
C4415 C4417 1.389 . S
C4416 H4389 0.950 . S
C4416 C4402 1.377 . S
C4416 C4415 1.373 . S
C4417 C4401 1.377 . S
C4417 C4415 1.389 . S
C4417 C4418 1.524 . S
C4418 C4417 1.524 . S
C4418 C4419 1.397 . S
C4418 C4423 1.363 . S
C4419 H4390 0.950 . S
C4419 C4418 1.397 . S
C4419 C4420 1.334 . S
C4420 H4391 0.950 . S
C4420 C4419 1.334 . S
C4420 C4421 1.287 . S
C4421 C4420 1.287 . S
C4421 C4422 1.524 . S
C4421 H4424 0.999 . S
C4422 H4392 0.950 . S
C4422 C4421 1.524 . S
C4422 C4423 1.415 . S
C4423 H4393 0.950 . S
C4423 C4418 1.363 . S
C4423 C4422 1.415 . S
H4424 C4421 0.999 . S
H4425 C4406 0.913 . S
H4426 C4444 0.951 . S
H4427 C4446 0.951 . S
H4428 C4448 0.950 . S
H4429 C4449 0.950 . S
H4430 C4451 0.950 . S
H4431 C4454 0.946 1_556 S
H4432 C4455 0.950 . S
H4433 C4457 0.950 . S
H4434 C4458 0.950 . S
H4435 C4459 0.951 . S
H4436 C4461 0.951 . S
H4437 C4463 0.950 . S
H4438 C4464 0.950 . S
H4439 C4466 0.950 . S
H4440 C4469 0.950 . S
H4441 C4470 0.950 . S
H4442 C4472 0.950 . S
H4443 C4473 0.950 . S
C4444 H4426 0.951 . S
C4444 C4445 1.366 . S
C4444 C4446 1.388 . S
C4445 C4444 1.366 . S
C4445 C4449 1.385 . S
C4446 H4427 0.951 . S
C4446 C4444 1.388 . S
C4446 C4447 1.366 . S
C4447 C4446 1.366 . S
C4447 C4448 1.414 . S
C4447 C4450 1.499 . S
C4448 H4428 0.950 . S
C4448 C4447 1.414 . S
C4448 C4449 1.374 . S
C4449 H4429 0.950 . S
C4449 C4445 1.385 . S
C4449 C4448 1.374 . S
C4450 C4447 1.499 . S
C4450 C4451 1.373 . S
C4450 C4452 1.389 . S
C4451 H4430 0.950 . S
C4451 C4450 1.373 . S
C4451 C4467 1.377 . S
C4452 C4450 1.389 . S
C4452 C4453 1.524 . S
C4452 C4466 1.377 . S
C4453 C4452 1.524 . S
C4453 C4454 1.397 . S
C4453 C4458 1.363 . S
C4454 H4431 0.946 1_554 S
C4454 C4453 1.397 . S
C4454 C4455 1.334 1_554 S
C4455 H4432 0.950 . S
C4455 C4454 1.334 1_556 S
C4455 C4456 1.287 1_556 S
C4456 C4455 1.287 1_554 S
C4456 C4457 1.524 . S
C4456 H4475 0.913 . S
C4457 H4433 0.950 . S
C4457 C4456 1.524 . S
C4457 C4458 1.415 . S
C4458 H4434 0.950 . S
C4458 C4453 1.363 . S
C4458 C4457 1.415 . S
C4459 H4435 0.951 . S
C4459 C4460 1.366 . S
C4459 C4461 1.388 . S
C4460 C4459 1.366 . S
C4460 C4464 1.385 . S
C4461 H4436 0.951 . S
C4461 C4459 1.388 . S
C4461 C4462 1.366 . S
C4462 C4461 1.366 . S
C4462 C4463 1.414 . S
C4462 C4465 1.499 . S
C4463 H4437 0.950 . S
C4463 C4462 1.414 . S
C4463 C4464 1.374 . S
C4464 H4438 0.950 . S
C4464 C4460 1.385 . S
C4464 C4463 1.374 . S
C4465 C4462 1.499 . S
C4465 C4466 1.373 . S
C4465 C4467 1.389 . S
C4466 H4439 0.950 . S
C4466 C4452 1.377 . S
C4466 C4465 1.373 . S
C4467 C4451 1.377 . S
C4467 C4465 1.389 . S
C4467 C4468 1.524 . S
C4468 C4467 1.524 . S
C4468 C4469 1.397 . S
C4468 C4473 1.363 . S
C4469 H4440 0.950 . S
C4469 C4468 1.397 . S
C4469 C4470 1.334 . S
C4470 H4441 0.950 . S
C4470 C4469 1.334 . S
C4470 C4471 1.287 . S
C4471 C4470 1.287 . S
C4471 C4472 1.524 . S
C4471 H4474 0.999 . S
C4472 H4442 0.950 . S
C4472 C4471 1.524 . S
C4472 C4473 1.415 . S
C4473 H4443 0.950 . S
C4473 C4468 1.363 . S
C4473 C4472 1.415 . S
H4474 C4471 0.999 . S
H4475 C4456 0.913 . S
H4476 C4494 0.951 . S
H4477 C4496 0.951 . S
H4478 C4498 0.950 . S
H4479 C4499 0.950 . S
H4480 C4501 0.950 . S
H4481 C4504 0.950 . S
H4482 C4505 0.950 . S
H4483 C4507 0.950 . S
H4484 C4508 0.950 . S
H4485 C4509 0.951 . S
H4486 C4511 0.951 . S
H4487 C4513 0.950 . S
H4488 C4514 0.950 . S
H4489 C4516 0.950 . S
H4490 C4519 0.950 . S
H4491 C4520 0.950 . S
H4492 C4522 0.950 . S
H4493 C4523 0.950 . S
C4494 H4476 0.951 . S
C4494 C4495 1.366 . S
C4494 C4496 1.388 . S
C4495 C4494 1.366 . S
C4495 C4499 1.385 . S
C4496 H4477 0.951 . S
C4496 C4494 1.388 . S
C4496 C4497 1.366 . S
C4497 C4496 1.366 . S
C4497 C4498 1.414 . S
C4497 C4500 1.499 . S
C4498 H4478 0.950 . S
C4498 C4497 1.414 . S
C4498 C4499 1.374 . S
C4499 H4479 0.950 . S
C4499 C4495 1.385 . S
C4499 C4498 1.374 . S
C4500 C4497 1.499 . S
C4500 C4501 1.373 . S
C4500 C4502 1.389 . S
C4501 H4480 0.950 . S
C4501 C4500 1.373 . S
C4501 C4517 1.377 . S
C4502 C4500 1.389 . S
C4502 C4503 1.524 . S
C4502 C4516 1.377 . S
C4503 C4502 1.524 . S
C4503 C4504 1.397 . S
C4503 C4508 1.363 . S
C4504 H4481 0.950 . S
C4504 C4503 1.397 . S
C4504 C4505 1.334 . S
C4505 H4482 0.950 . S
C4505 C4504 1.334 . S
C4505 C4506 1.287 . S
C4506 C4505 1.287 . S
C4506 C4507 1.524 . S
C4506 H4525 0.913 . S
C4507 H4483 0.950 . S
C4507 C4506 1.524 . S
C4507 C4508 1.415 . S
C4508 H4484 0.950 . S
C4508 C4503 1.363 . S
C4508 C4507 1.415 . S
C4509 H4485 0.951 . S
C4509 C4510 1.366 . S
C4509 C4511 1.388 . S
C4510 C4509 1.366 . S
C4510 C4514 1.385 . S
C4511 H4486 0.951 . S
C4511 C4509 1.388 . S
C4511 C4512 1.366 . S
C4512 C4511 1.366 . S
C4512 C4513 1.414 . S
C4512 C4515 1.499 . S
C4513 H4487 0.950 . S
C4513 C4512 1.414 . S
C4513 C4514 1.374 . S
C4514 H4488 0.950 . S
C4514 C4510 1.385 . S
C4514 C4513 1.374 . S
C4515 C4512 1.499 . S
C4515 C4516 1.373 . S
C4515 C4517 1.389 . S
C4516 H4489 0.950 . S
C4516 C4502 1.377 . S
C4516 C4515 1.373 . S
C4517 C4501 1.377 . S
C4517 C4515 1.389 . S
C4517 C4518 1.524 . S
C4518 C4517 1.524 . S
C4518 C4519 1.397 . S
C4518 C4523 1.363 . S
C4519 H4490 0.950 . S
C4519 C4518 1.397 . S
C4519 C4520 1.334 . S
C4520 H4491 0.950 . S
C4520 C4519 1.334 . S
C4520 C4521 1.287 . S
C4521 C4520 1.287 . S
C4521 C4522 1.524 . S
C4521 H4524 0.999 . S
C4522 H4492 0.950 . S
C4522 C4521 1.524 . S
C4522 C4523 1.415 . S
C4523 H4493 0.950 . S
C4523 C4518 1.363 . S
C4523 C4522 1.415 . S
H4524 C4521 0.999 . S
H4525 C4506 0.913 . S
H4526 C4544 0.951 . S
H4527 C4546 0.951 . S
H4528 C4548 0.950 . S
H4529 C4549 0.950 . S
H4530 C4551 0.950 . S
H4531 C4554 0.950 . S
H4532 C4555 0.950 . S
H4533 C4557 0.950 . S
H4534 C4558 0.950 . S
H4535 C4559 0.951 . S
H4536 C4561 0.951 . S
H4537 C4563 0.950 . S
H4538 C4564 0.950 . S
H4539 C4566 0.950 . S
H4540 C4569 0.950 . S
H4541 C4570 0.950 . S
H4542 C4572 0.950 . S
H4543 C4573 0.950 . S
C4544 H4526 0.951 . S
C4544 C4545 1.366 . S
C4544 C4546 1.388 . S
C4545 C4544 1.366 . S
C4545 C4549 1.385 . S
C4546 H4527 0.951 . S
C4546 C4544 1.388 . S
C4546 C4547 1.366 . S
C4547 C4546 1.366 . S
C4547 C4548 1.414 . S
C4547 C4550 1.499 . S
C4548 H4528 0.950 . S
C4548 C4547 1.414 . S
C4548 C4549 1.374 . S
C4549 H4529 0.950 . S
C4549 C4545 1.385 . S
C4549 C4548 1.374 . S
C4550 C4547 1.499 . S
C4550 C4551 1.373 . S
C4550 C4552 1.389 . S
C4551 H4530 0.950 . S
C4551 C4550 1.373 . S
C4551 C4567 1.377 . S
C4552 C4550 1.389 . S
C4552 C4553 1.524 . S
C4552 C4566 1.377 . S
C4553 C4552 1.524 . S
C4553 C4554 1.397 . S
C4553 C4558 1.363 . S
C4554 H4531 0.950 . S
C4554 C4553 1.397 . S
C4554 C4555 1.334 . S
C4555 H4532 0.950 . S
C4555 C4554 1.334 . S
C4555 C4556 1.287 . S
C4556 C4555 1.287 . S
C4556 C4557 1.524 . S
C4556 H4575 0.913 . S
C4557 H4533 0.950 . S
C4557 C4556 1.524 . S
C4557 C4558 1.415 . S
C4558 H4534 0.950 . S
C4558 C4553 1.363 . S
C4558 C4557 1.415 . S
C4559 H4535 0.951 . S
C4559 C4560 1.366 . S
C4559 C4561 1.388 . S
C4560 C4559 1.366 . S
C4560 C4564 1.385 . S
C4561 H4536 0.951 . S
C4561 C4559 1.388 . S
C4561 C4562 1.366 . S
C4562 C4561 1.366 . S
C4562 C4563 1.414 . S
C4562 C4565 1.499 . S
C4563 H4537 0.950 . S
C4563 C4562 1.414 . S
C4563 C4564 1.374 . S
C4564 H4538 0.950 . S
C4564 C4560 1.385 . S
C4564 C4563 1.374 . S
C4565 C4562 1.499 . S
C4565 C4566 1.373 . S
C4565 C4567 1.389 . S
C4566 H4539 0.950 . S
C4566 C4552 1.377 . S
C4566 C4565 1.373 . S
C4567 C4551 1.377 . S
C4567 C4565 1.389 . S
C4567 C4568 1.524 . S
C4568 C4567 1.524 . S
C4568 C4569 1.397 . S
C4568 C4573 1.363 . S
C4569 H4540 0.950 . S
C4569 C4568 1.397 . S
C4569 C4570 1.334 . S
C4570 H4541 0.950 . S
C4570 C4569 1.334 . S
C4570 C4571 1.287 . S
C4571 C4570 1.287 . S
C4571 C4572 1.524 . S
C4571 H4574 0.999 . S
C4572 H4542 0.950 . S
C4572 C4571 1.524 . S
C4572 C4573 1.415 . S
C4573 H4543 0.950 . S
C4573 C4568 1.363 . S
C4573 C4572 1.415 . S
H4574 C4571 0.999 . S
H4575 C4556 0.913 . S
H4576 C4594 0.951 . S
H4577 C4596 0.951 . S
H4578 C4598 0.950 . S
H4579 C4599 0.950 . S
H4580 C4601 0.950 . S
H4581 C4604 0.950 . S
H4582 C4605 0.950 . S
H4583 C4607 0.950 . S
H4584 C4608 0.950 . S
H4585 C4609 0.951 . S
H4586 C4611 0.951 . S
H4587 C4613 0.950 . S
H4588 C4614 0.950 . S
H4589 C4616 0.950 . S
H4590 C4619 0.950 . S
H4591 C4620 0.950 . S
H4592 C4622 0.950 . S
H4593 C4623 0.950 . S
C4594 H4576 0.951 . S
C4594 C4595 1.366 . S
C4594 C4596 1.388 . S
C4595 C4594 1.366 . S
C4595 C4599 1.385 . S
C4596 H4577 0.951 . S
C4596 C4594 1.388 . S
C4596 C4597 1.366 . S
C4597 C4596 1.366 . S
C4597 C4598 1.414 . S
C4597 C4600 1.499 . S
C4598 H4578 0.950 . S
C4598 C4597 1.414 . S
C4598 C4599 1.374 . S
C4599 H4579 0.950 . S
C4599 C4595 1.385 . S
C4599 C4598 1.374 . S
C4600 C4597 1.499 . S
C4600 C4601 1.373 . S
C4600 C4602 1.389 . S
C4601 H4580 0.950 . S
C4601 C4600 1.373 . S
C4601 C4617 1.377 . S
C4602 C4600 1.389 . S
C4602 C4603 1.524 . S
C4602 C4616 1.377 . S
C4603 C4602 1.524 . S
C4603 C4604 1.397 . S
C4603 C4608 1.363 . S
C4604 H4581 0.950 . S
C4604 C4603 1.397 . S
C4604 C4605 1.334 . S
C4605 H4582 0.950 . S
C4605 C4604 1.334 . S
C4605 C4606 1.287 . S
C4606 C4605 1.287 . S
C4606 C4607 1.524 . S
C4606 H4625 0.913 . S
C4607 H4583 0.950 . S
C4607 C4606 1.524 . S
C4607 C4608 1.415 . S
C4608 H4584 0.950 . S
C4608 C4603 1.363 . S
C4608 C4607 1.415 . S
C4609 H4585 0.951 . S
C4609 C4610 1.366 . S
C4609 C4611 1.388 . S
C4610 C4609 1.366 . S
C4610 C4614 1.385 . S
C4611 H4586 0.951 . S
C4611 C4609 1.388 . S
C4611 C4612 1.366 . S
C4612 C4611 1.366 . S
C4612 C4613 1.414 . S
C4612 C4615 1.499 . S
C4613 H4587 0.950 . S
C4613 C4612 1.414 . S
C4613 C4614 1.374 . S
C4614 H4588 0.950 . S
C4614 C4610 1.385 . S
C4614 C4613 1.374 . S
C4615 C4612 1.499 . S
C4615 C4616 1.373 . S
C4615 C4617 1.389 . S
C4616 H4589 0.950 . S
C4616 C4602 1.377 . S
C4616 C4615 1.373 . S
C4617 C4601 1.377 . S
C4617 C4615 1.389 . S
C4617 C4618 1.524 . S
C4618 C4617 1.524 . S
C4618 C4619 1.397 . S
C4618 C4623 1.363 . S
C4619 H4590 0.950 . S
C4619 C4618 1.397 . S
C4619 C4620 1.334 . S
C4620 H4591 0.950 . S
C4620 C4619 1.334 . S
C4620 C4621 1.287 . S
C4621 C4620 1.287 . S
C4621 C4622 1.524 . S
C4621 H4624 0.999 . S
C4622 H4592 0.950 . S
C4622 C4621 1.524 . S
C4622 C4623 1.415 . S
C4623 H4593 0.950 . S
C4623 C4618 1.363 . S
C4623 C4622 1.415 . S
H4624 C4621 0.999 . S
H4625 C4606 0.913 . S
H4626 C4644 0.951 . S
H4627 C4646 0.951 . S
H4628 C4648 0.950 . S
H4629 C4649 0.950 . S
H4630 C4651 0.950 . S
H4631 C4654 0.950 . S
H4632 C4655 0.950 . S
H4633 C4657 0.950 . S
H4634 C4658 0.950 . S
H4635 C4659 0.951 . S
H4636 C4661 0.951 . S
H4637 C4663 0.950 . S
H4638 C4664 0.950 . S
H4639 C4666 0.950 . S
H4640 C4669 0.950 . S
H4641 C4670 0.950 . S
H4642 C4672 0.950 . S
H4643 C4673 0.950 . S
C4644 H4626 0.951 . S
C4644 C4645 1.366 . S
C4644 C4646 1.388 . S
C4645 C4644 1.366 . S
C4645 C4649 1.385 . S
C4646 H4627 0.951 . S
C4646 C4644 1.388 . S
C4646 C4647 1.366 . S
C4647 C4646 1.366 . S
C4647 C4648 1.414 . S
C4647 C4650 1.499 . S
C4648 H4628 0.950 . S
C4648 C4647 1.414 . S
C4648 C4649 1.374 . S
C4649 H4629 0.950 . S
C4649 C4645 1.385 . S
C4649 C4648 1.374 . S
C4650 C4647 1.499 . S
C4650 C4651 1.373 . S
C4650 C4652 1.389 . S
C4651 H4630 0.950 . S
C4651 C4650 1.373 . S
C4651 C4667 1.377 . S
C4652 C4650 1.389 . S
C4652 C4653 1.524 . S
C4652 C4666 1.377 . S
C4653 C4652 1.524 . S
C4653 C4654 1.397 . S
C4653 C4658 1.363 . S
C4654 H4631 0.950 . S
C4654 C4653 1.397 . S
C4654 C4655 1.334 . S
C4655 H4632 0.950 . S
C4655 C4654 1.334 . S
C4655 C4656 1.287 . S
C4656 C4655 1.287 . S
C4656 C4657 1.524 . S
C4656 H4675 0.913 . S
C4657 H4633 0.950 . S
C4657 C4656 1.524 . S
C4657 C4658 1.415 . S
C4658 H4634 0.950 . S
C4658 C4653 1.363 . S
C4658 C4657 1.415 . S
C4659 H4635 0.951 . S
C4659 C4660 1.366 . S
C4659 C4661 1.388 . S
C4660 C4659 1.366 . S
C4660 C4664 1.385 . S
C4661 H4636 0.951 . S
C4661 C4659 1.388 . S
C4661 C4662 1.366 . S
C4662 C4661 1.366 . S
C4662 C4663 1.414 . S
C4662 C4665 1.499 . S
C4663 H4637 0.950 . S
C4663 C4662 1.414 . S
C4663 C4664 1.374 . S
C4664 H4638 0.950 . S
C4664 C4660 1.385 . S
C4664 C4663 1.374 . S
C4665 C4662 1.499 . S
C4665 C4666 1.373 . S
C4665 C4667 1.389 . S
C4666 H4639 0.950 . S
C4666 C4652 1.377 . S
C4666 C4665 1.373 . S
C4667 C4651 1.377 . S
C4667 C4665 1.389 . S
C4667 C4668 1.524 . S
C4668 C4667 1.524 . S
C4668 C4669 1.397 . S
C4668 C4673 1.363 . S
C4669 H4640 0.950 . S
C4669 C4668 1.397 . S
C4669 C4670 1.334 . S
C4670 H4641 0.950 . S
C4670 C4669 1.334 . S
C4670 C4671 1.287 . S
C4671 C4670 1.287 . S
C4671 C4672 1.524 . S
C4671 H4674 0.999 . S
C4672 H4642 0.950 . S
C4672 C4671 1.524 . S
C4672 C4673 1.415 . S
C4673 H4643 0.950 . S
C4673 C4668 1.363 . S
C4673 C4672 1.415 . S
H4674 C4671 0.999 . S
H4675 C4656 0.913 . S
H4676 C4694 0.951 . S
H4677 C4696 0.951 . S
H4678 C4698 0.950 . S
H4679 C4699 0.950 . S
H4680 C4701 0.950 . S
H4681 C4704 0.950 . S
H4682 C4705 0.950 . S
H4683 C4707 0.950 . S
H4684 C4708 0.950 . S
H4685 C4709 0.951 . S
H4686 C4711 0.951 . S
H4687 C4713 0.950 . S
H4688 C4714 0.950 . S
H4689 C4716 0.950 . S
H4690 C4719 0.950 . S
H4691 C4720 0.921 1_556 S
H4692 C4722 0.950 . S
H4693 C4723 0.950 . S
C4694 H4676 0.951 . S
C4694 C4695 1.366 . S
C4694 C4696 1.388 . S
C4695 C4694 1.366 . S
C4695 C4699 1.385 . S
C4696 H4677 0.951 . S
C4696 C4694 1.388 . S
C4696 C4697 1.366 . S
C4697 C4696 1.366 . S
C4697 C4698 1.414 . S
C4697 C4700 1.499 . S
C4698 H4678 0.950 . S
C4698 C4697 1.414 . S
C4698 C4699 1.374 . S
C4699 H4679 0.950 . S
C4699 C4695 1.385 . S
C4699 C4698 1.374 . S
C4700 C4697 1.499 . S
C4700 C4701 1.373 . S
C4700 C4702 1.389 . S
C4701 H4680 0.950 . S
C4701 C4700 1.373 . S
C4701 C4717 1.377 . S
C4702 C4700 1.389 . S
C4702 C4703 1.524 . S
C4702 C4716 1.377 . S
C4703 C4702 1.524 . S
C4703 C4704 1.397 . S
C4703 C4708 1.363 . S
C4704 H4681 0.950 . S
C4704 C4703 1.397 . S
C4704 C4705 1.334 . S
C4705 H4682 0.950 . S
C4705 C4704 1.334 . S
C4705 C4706 1.287 . S
C4706 C4705 1.287 . S
C4706 C4707 1.524 . S
C4706 H4725 0.913 . S
C4707 H4683 0.950 . S
C4707 C4706 1.524 . S
C4707 C4708 1.415 . S
C4708 H4684 0.950 . S
C4708 C4703 1.363 . S
C4708 C4707 1.415 . S
C4709 H4685 0.951 . S
C4709 C4710 1.366 . S
C4709 C4711 1.388 . S
C4710 C4709 1.366 . S
C4710 C4714 1.385 . S
C4711 H4686 0.951 . S
C4711 C4709 1.388 . S
C4711 C4712 1.366 . S
C4712 C4711 1.366 . S
C4712 C4713 1.414 . S
C4712 C4715 1.499 . S
C4713 H4687 0.950 . S
C4713 C4712 1.414 . S
C4713 C4714 1.374 . S
C4714 H4688 0.950 . S
C4714 C4710 1.385 . S
C4714 C4713 1.374 . S
C4715 C4712 1.499 . S
C4715 C4716 1.373 . S
C4715 C4717 1.389 . S
C4716 H4689 0.950 . S
C4716 C4702 1.377 . S
C4716 C4715 1.373 . S
C4717 C4701 1.377 . S
C4717 C4715 1.389 . S
C4717 C4718 1.524 . S
C4718 C4717 1.524 . S
C4718 C4719 1.397 . S
C4718 C4723 1.363 . S
C4719 H4690 0.950 . S
C4719 C4718 1.397 . S
C4719 C4720 1.392 . S
C4720 H4691 0.921 1_554 S
C4720 C4719 1.392 . S
C4720 C4721 1.262 1_554 S
C4721 C4720 1.262 1_556 S
C4721 C4722 1.524 1_556 S
C4721 H4724 0.999 . S
C4722 H4692 0.950 . S
C4722 C4721 1.524 1_554 S
C4722 C4723 1.415 . S
C4723 H4693 0.950 . S
C4723 C4718 1.363 . S
C4723 C4722 1.415 . S
H4724 C4721 0.999 . S
H4725 C4706 0.913 . S
H4726 C4744 0.951 . S
H4727 C4746 0.951 . S
H4728 C4748 0.950 . S
H4729 C4749 0.950 . S
H4730 C4751 0.950 . S
H4731 C4754 0.950 . S
H4732 C4755 0.950 . S
H4733 C4757 0.950 . S
H4734 C4758 0.950 . S
H4735 C4759 0.951 . S
H4736 C4761 0.951 . S
H4737 C4763 0.950 . S
H4738 C4764 0.950 . S
H4739 C4766 0.950 . S
H4740 C4769 0.950 . S
H4741 C4770 0.950 . S
H4742 C4772 0.950 . S
H4743 C4773 0.950 . S
C4744 H4726 0.951 . S
C4744 C4745 1.366 . S
C4744 C4746 1.388 . S
C4745 C4744 1.366 . S
C4745 C4749 1.385 . S
C4746 H4727 0.951 . S
C4746 C4744 1.388 . S
C4746 C4747 1.366 . S
C4747 C4746 1.366 . S
C4747 C4748 1.414 . S
C4747 C4750 1.499 . S
C4748 H4728 0.950 . S
C4748 C4747 1.414 . S
C4748 C4749 1.374 . S
C4749 H4729 0.950 . S
C4749 C4745 1.385 . S
C4749 C4748 1.374 . S
C4750 C4747 1.499 . S
C4750 C4751 1.373 . S
C4750 C4752 1.389 . S
C4751 H4730 0.950 . S
C4751 C4750 1.373 . S
C4751 C4767 1.377 . S
C4752 C4750 1.389 . S
C4752 C4753 1.524 . S
C4752 C4766 1.377 . S
C4753 C4752 1.524 . S
C4753 C4754 1.397 . S
C4753 C4758 1.363 . S
C4754 H4731 0.950 . S
C4754 C4753 1.397 . S
C4754 C4755 1.334 . S
C4755 H4732 0.950 . S
C4755 C4754 1.334 . S
C4755 C4756 1.287 . S
C4756 C4755 1.287 . S
C4756 C4757 1.524 . S
C4756 H4775 0.913 . S
C4757 H4733 0.950 . S
C4757 C4756 1.524 . S
C4757 C4758 1.415 . S
C4758 H4734 0.950 . S
C4758 C4753 1.363 . S
C4758 C4757 1.415 . S
C4759 H4735 0.951 . S
C4759 C4760 1.366 . S
C4759 C4761 1.388 . S
C4760 C4759 1.366 . S
C4760 C4764 1.385 . S
C4761 H4736 0.951 . S
C4761 C4759 1.388 . S
C4761 C4762 1.366 . S
C4762 C4761 1.366 . S
C4762 C4763 1.414 . S
C4762 C4765 1.499 . S
C4763 H4737 0.950 . S
C4763 C4762 1.414 . S
C4763 C4764 1.374 . S
C4764 H4738 0.950 . S
C4764 C4760 1.385 . S
C4764 C4763 1.374 . S
C4765 C4762 1.499 . S
C4765 C4766 1.373 . S
C4765 C4767 1.389 . S
C4766 H4739 0.950 . S
C4766 C4752 1.377 . S
C4766 C4765 1.373 . S
C4767 C4751 1.377 . S
C4767 C4765 1.389 . S
C4767 C4768 1.524 . S
C4768 C4767 1.524 . S
C4768 C4769 1.397 . S
C4768 C4773 1.363 . S
C4769 H4740 0.950 . S
C4769 C4768 1.397 . S
C4769 C4770 1.334 . S
C4770 H4741 0.950 . S
C4770 C4769 1.334 . S
C4770 C4771 1.287 . S
C4771 C4770 1.287 . S
C4771 C4772 1.524 . S
C4771 H4774 0.999 . S
C4772 H4742 0.950 . S
C4772 C4771 1.524 . S
C4772 C4773 1.415 . S
C4773 H4743 0.950 . S
C4773 C4768 1.363 . S
C4773 C4772 1.415 . S
H4774 C4771 0.999 . S
H4775 C4756 0.913 . S
H4776 C4794 0.951 . S
H4777 C4796 0.951 . S
H4778 C4798 0.950 . S
H4779 C4799 0.950 . S
H4780 C4801 0.950 . S
H4781 C4804 0.950 . S
H4782 C4805 0.950 . S
H4783 C4807 0.950 . S
H4784 C4808 0.950 . S
H4785 C4809 0.951 . S
H4786 C4811 0.951 . S
H4787 C4813 0.950 . S
H4788 C4814 0.950 . S
H4789 C4816 0.950 . S
H4790 C4819 0.950 . S
H4791 C4820 0.950 . S
H4792 C4822 0.950 . S
H4793 C4823 0.950 . S
C4794 H4776 0.951 . S
C4794 C4795 1.366 . S
C4794 C4796 1.388 . S
C4795 C4794 1.366 . S
C4795 C4799 1.385 . S
C4796 H4777 0.951 . S
C4796 C4794 1.388 . S
C4796 C4797 1.366 . S
C4797 C4796 1.366 . S
C4797 C4798 1.414 . S
C4797 C4800 1.499 . S
C4798 H4778 0.950 . S
C4798 C4797 1.414 . S
C4798 C4799 1.374 . S
C4799 H4779 0.950 . S
C4799 C4795 1.385 . S
C4799 C4798 1.374 . S
C4800 C4797 1.499 . S
C4800 C4801 1.373 . S
C4800 C4802 1.389 . S
C4801 H4780 0.950 . S
C4801 C4800 1.373 . S
C4801 C4817 1.377 . S
C4802 C4800 1.389 . S
C4802 C4803 1.524 . S
C4802 C4816 1.377 . S
C4803 C4802 1.524 . S
C4803 C4804 1.397 . S
C4803 C4808 1.363 . S
C4804 H4781 0.950 . S
C4804 C4803 1.397 . S
C4804 C4805 1.334 . S
C4805 H4782 0.950 . S
C4805 C4804 1.334 . S
C4805 C4806 1.287 . S
C4806 C4805 1.287 . S
C4806 C4807 1.524 . S
C4806 H4825 0.913 . S
C4807 H4783 0.950 . S
C4807 C4806 1.524 . S
C4807 C4808 1.415 . S
C4808 H4784 0.950 . S
C4808 C4803 1.363 . S
C4808 C4807 1.415 . S
C4809 H4785 0.951 . S
C4809 C4810 1.366 . S
C4809 C4811 1.388 . S
C4810 C4809 1.366 . S
C4810 C4814 1.385 . S
C4811 H4786 0.951 . S
C4811 C4809 1.388 . S
C4811 C4812 1.366 . S
C4812 C4811 1.366 . S
C4812 C4813 1.414 . S
C4812 C4815 1.499 . S
C4813 H4787 0.950 . S
C4813 C4812 1.414 . S
C4813 C4814 1.374 . S
C4814 H4788 0.950 . S
C4814 C4810 1.385 . S
C4814 C4813 1.374 . S
C4815 C4812 1.499 . S
C4815 C4816 1.373 . S
C4815 C4817 1.389 . S
C4816 H4789 0.950 . S
C4816 C4802 1.377 . S
C4816 C4815 1.373 . S
C4817 C4801 1.377 . S
C4817 C4815 1.389 . S
C4817 C4818 1.524 . S
C4818 C4817 1.524 . S
C4818 C4819 1.397 . S
C4818 C4823 1.363 . S
C4819 H4790 0.950 . S
C4819 C4818 1.397 . S
C4819 C4820 1.334 . S
C4820 H4791 0.950 . S
C4820 C4819 1.334 . S
C4820 C4821 1.287 . S
C4821 C4820 1.287 . S
C4821 C4822 1.524 . S
C4821 H4824 0.999 . S
C4822 H4792 0.950 . S
C4822 C4821 1.524 . S
C4822 C4823 1.415 . S
C4823 H4793 0.950 . S
C4823 C4818 1.363 . S
C4823 C4822 1.415 . S
H4824 C4821 0.999 . S
H4825 C4806 0.913 . S
H4826 C4844 0.951 . S
H4827 C4846 0.951 . S
H4828 C4848 0.950 . S
H4829 C4849 0.950 . S
H4830 C4851 0.950 . S
H4831 C4854 0.950 . S
H4832 C4855 0.950 . S
H4833 C4857 0.950 . S
H4834 C4858 0.950 . S
H4835 C4859 0.951 . S
H4836 C4861 0.951 . S
H4837 C4863 0.950 . S
H4838 C4864 0.950 . S
H4839 C4866 0.950 . S
H4840 C4869 0.950 . S
H4841 C4870 0.950 . S
H4842 C4872 0.950 . S
H4843 C4873 0.950 . S
C4844 H4826 0.951 . S
C4844 C4845 1.366 . S
C4844 C4846 1.388 . S
C4845 C4844 1.366 . S
C4845 C4849 1.385 . S
C4846 H4827 0.951 . S
C4846 C4844 1.388 . S
C4846 C4847 1.366 . S
C4847 C4846 1.366 . S
C4847 C4848 1.414 . S
C4847 C4850 1.499 . S
C4848 H4828 0.950 . S
C4848 C4847 1.414 . S
C4848 C4849 1.374 . S
C4849 H4829 0.950 . S
C4849 C4845 1.385 . S
C4849 C4848 1.374 . S
C4850 C4847 1.499 . S
C4850 C4851 1.373 . S
C4850 C4852 1.389 . S
C4851 H4830 0.950 . S
C4851 C4850 1.373 . S
C4851 C4867 1.377 . S
C4852 C4850 1.389 . S
C4852 C4853 1.524 . S
C4852 C4866 1.377 . S
C4853 C4852 1.524 . S
C4853 C4854 1.397 . S
C4853 C4858 1.363 . S
C4854 H4831 0.950 . S
C4854 C4853 1.397 . S
C4854 C4855 1.334 . S
C4855 H4832 0.950 . S
C4855 C4854 1.334 . S
C4855 C4856 1.287 . S
C4856 C4855 1.287 . S
C4856 C4857 1.524 . S
C4856 H4875 0.913 . S
C4857 H4833 0.950 . S
C4857 C4856 1.524 . S
C4857 C4858 1.415 . S
C4858 H4834 0.950 . S
C4858 C4853 1.363 . S
C4858 C4857 1.415 . S
C4859 H4835 0.951 . S
C4859 C4860 1.366 . S
C4859 C4861 1.388 . S
C4860 C4859 1.366 . S
C4860 C4864 1.385 . S
C4861 H4836 0.951 . S
C4861 C4859 1.388 . S
C4861 C4862 1.366 . S
C4862 C4861 1.366 . S
C4862 C4863 1.414 . S
C4862 C4865 1.499 . S
C4863 H4837 0.950 . S
C4863 C4862 1.414 . S
C4863 C4864 1.374 . S
C4864 H4838 0.950 . S
C4864 C4860 1.385 . S
C4864 C4863 1.374 . S
C4865 C4862 1.499 . S
C4865 C4866 1.373 . S
C4865 C4867 1.389 . S
C4866 H4839 0.950 . S
C4866 C4852 1.377 . S
C4866 C4865 1.373 . S
C4867 C4851 1.377 . S
C4867 C4865 1.389 . S
C4867 C4868 1.524 . S
C4868 C4867 1.524 . S
C4868 C4869 1.397 . S
C4868 C4873 1.363 . S
C4869 H4840 0.950 . S
C4869 C4868 1.397 . S
C4869 C4870 1.334 . S
C4870 H4841 0.950 . S
C4870 C4869 1.334 . S
C4870 C4871 1.287 . S
C4871 C4870 1.287 . S
C4871 C4872 1.524 . S
C4871 H4874 0.999 . S
C4872 H4842 0.950 . S
C4872 C4871 1.524 . S
C4872 C4873 1.415 . S
C4873 H4843 0.950 . S
C4873 C4868 1.363 . S
C4873 C4872 1.415 . S
H4874 C4871 0.999 . S
H4875 C4856 0.913 . S
H4876 C4894 0.951 . S
H4877 C4896 0.951 . S
H4878 C4898 0.950 . S
H4879 C4899 0.950 . S
H4880 C4901 0.950 . S
H4881 C4904 0.926 1_455 S
H4882 C4905 0.950 . S
H4883 C4907 0.950 . S
H4884 C4908 0.950 . S
H4885 C4909 0.951 . S
H4886 C4911 0.951 . S
H4887 C4913 0.950 . S
H4888 C4914 0.950 . S
H4889 C4916 0.950 . S
H4890 C4919 0.950 . S
H4891 C4920 0.950 . S
H4892 C4922 0.950 . S
H4893 C4923 0.950 . S
C4894 H4876 0.951 . S
C4894 C4895 1.366 . S
C4894 C4896 1.388 . S
C4895 C4894 1.366 . S
C4895 C4899 1.385 . S
C4896 H4877 0.951 . S
C4896 C4894 1.388 . S
C4896 C4897 1.366 . S
C4897 C4896 1.366 . S
C4897 C4898 1.414 . S
C4897 C4900 1.499 . S
C4898 H4878 0.950 . S
C4898 C4897 1.414 . S
C4898 C4899 1.374 . S
C4899 H4879 0.950 . S
C4899 C4895 1.385 . S
C4899 C4898 1.374 . S
C4900 C4897 1.499 . S
C4900 C4901 1.373 . S
C4900 C4902 1.389 . S
C4901 H4880 0.950 . S
C4901 C4900 1.373 . S
C4901 C4917 1.377 . S
C4902 C4900 1.389 . S
C4902 C4903 1.524 . S
C4902 C4916 1.377 . S
C4903 C4902 1.524 . S
C4903 C4904 1.398 1_455 S
C4903 C4908 1.363 1_455 S
C4904 H4881 0.926 1_655 S
C4904 C4903 1.398 1_655 S
C4904 C4905 1.357 . S
C4905 H4882 0.950 . S
C4905 C4904 1.357 . S
C4905 C4906 1.287 . S
C4906 C4905 1.287 . S
C4906 C4907 1.524 . S
C4906 H4925 0.913 . S
C4907 H4883 0.950 . S
C4907 C4906 1.524 . S
C4907 C4908 1.415 . S
C4908 H4884 0.950 . S
C4908 C4903 1.363 1_655 S
C4908 C4907 1.415 . S
C4909 H4885 0.951 . S
C4909 C4910 1.366 . S
C4909 C4911 1.388 . S
C4910 C4909 1.366 . S
C4910 C4914 1.385 . S
C4911 H4886 0.951 . S
C4911 C4909 1.388 . S
C4911 C4912 1.366 . S
C4912 C4911 1.366 . S
C4912 C4913 1.414 . S
C4912 C4915 1.499 . S
C4913 H4887 0.950 . S
C4913 C4912 1.414 . S
C4913 C4914 1.374 . S
C4914 H4888 0.950 . S
C4914 C4910 1.385 . S
C4914 C4913 1.374 . S
C4915 C4912 1.499 . S
C4915 C4916 1.373 . S
C4915 C4917 1.389 . S
C4916 H4889 0.950 . S
C4916 C4902 1.377 . S
C4916 C4915 1.373 . S
C4917 C4901 1.377 . S
C4917 C4915 1.389 . S
C4917 C4918 1.524 . S
C4918 C4917 1.524 . S
C4918 C4919 1.397 . S
C4918 C4923 1.363 . S
C4919 H4890 0.950 . S
C4919 C4918 1.397 . S
C4919 C4920 1.334 . S
C4920 H4891 0.950 . S
C4920 C4919 1.334 . S
C4920 C4921 1.287 . S
C4921 C4920 1.287 . S
C4921 C4922 1.524 . S
C4921 H4924 0.999 . S
C4922 H4892 0.950 . S
C4922 C4921 1.524 . S
C4922 C4923 1.415 . S
C4923 H4893 0.950 . S
C4923 C4918 1.363 . S
C4923 C4922 1.415 . S
H4924 C4921 0.999 . S
H4925 C4906 0.913 . S
H4926 C4944 0.951 . S
H4927 C4946 0.951 . S
H4928 C4948 0.950 . S
H4929 C4949 0.950 . S
H4930 C4951 0.950 . S
H4931 C4954 0.950 . S
H4932 C4955 0.950 . S
H4933 C4957 0.950 . S
H4934 C4958 0.950 . S
H4935 C4959 0.951 . S
H4936 C4961 0.951 . S
H4937 C4963 0.950 . S
H4938 C4964 0.950 . S
H4939 C4966 0.950 . S
H4940 C4969 0.950 . S
H4941 C4970 0.950 . S
H4942 C4972 0.950 . S
H4943 C4973 0.950 . S
C4944 H4926 0.951 . S
C4944 C4945 1.366 . S
C4944 C4946 1.388 . S
C4945 C4944 1.366 . S
C4945 C4949 1.385 . S
C4946 H4927 0.951 . S
C4946 C4944 1.388 . S
C4946 C4947 1.366 . S
C4947 C4946 1.366 . S
C4947 C4948 1.414 . S
C4947 C4950 1.499 . S
C4948 H4928 0.950 . S
C4948 C4947 1.414 . S
C4948 C4949 1.374 . S
C4949 H4929 0.950 . S
C4949 C4945 1.385 . S
C4949 C4948 1.374 . S
C4950 C4947 1.499 . S
C4950 C4951 1.373 . S
C4950 C4952 1.389 . S
C4951 H4930 0.950 . S
C4951 C4950 1.373 . S
C4951 C4967 1.377 . S
C4952 C4950 1.389 . S
C4952 C4953 1.524 . S
C4952 C4966 1.377 . S
C4953 C4952 1.524 . S
C4953 C4954 1.397 . S
C4953 C4958 1.363 . S
C4954 H4931 0.950 . S
C4954 C4953 1.397 . S
C4954 C4955 1.334 . S
C4955 H4932 0.950 . S
C4955 C4954 1.334 . S
C4955 C4956 1.287 . S
C4956 C4955 1.287 . S
C4956 C4957 1.524 . S
C4956 H4975 0.913 . S
C4957 H4933 0.950 . S
C4957 C4956 1.524 . S
C4957 C4958 1.415 . S
C4958 H4934 0.950 . S
C4958 C4953 1.363 . S
C4958 C4957 1.415 . S
C4959 H4935 0.951 . S
C4959 C4960 1.366 . S
C4959 C4961 1.388 . S
C4960 C4959 1.366 . S
C4960 C4964 1.385 . S
C4961 H4936 0.951 . S
C4961 C4959 1.388 . S
C4961 C4962 1.366 . S
C4962 C4961 1.366 . S
C4962 C4963 1.414 . S
C4962 C4965 1.499 . S
C4963 H4937 0.950 . S
C4963 C4962 1.414 . S
C4963 C4964 1.374 . S
C4964 H4938 0.950 . S
C4964 C4960 1.385 . S
C4964 C4963 1.374 . S
C4965 C4962 1.499 . S
C4965 C4966 1.373 . S
C4965 C4967 1.389 . S
C4966 H4939 0.950 . S
C4966 C4952 1.377 . S
C4966 C4965 1.373 . S
C4967 C4951 1.377 . S
C4967 C4965 1.389 . S
C4967 C4968 1.524 . S
C4968 C4967 1.524 . S
C4968 C4969 1.397 . S
C4968 C4973 1.363 . S
C4969 H4940 0.950 . S
C4969 C4968 1.397 . S
C4969 C4970 1.334 . S
C4970 H4941 0.950 . S
C4970 C4969 1.334 . S
C4970 C4971 1.287 . S
C4971 C4970 1.287 . S
C4971 C4972 1.524 . S
C4971 H4974 0.999 . S
C4972 H4942 0.950 . S
C4972 C4971 1.524 . S
C4972 C4973 1.415 . S
C4973 H4943 0.950 . S
C4973 C4968 1.363 . S
C4973 C4972 1.415 . S
H4974 C4971 0.999 . S
H4975 C4956 0.913 . S
H4976 C4994 0.951 . S
H4977 C4996 0.951 . S
H4978 C4998 0.950 . S
H4979 C4999 0.950 . S
H4980 C5001 0.950 . S
H4981 C5004 0.950 . S
H4982 C5005 0.950 . S
H4983 C5007 0.950 . S
H4984 C5008 0.950 . S
H4985 C5009 0.951 . S
H4986 C5011 0.951 . S
H4987 C5013 0.950 . S
H4988 C5014 0.950 . S
H4989 C5016 0.950 . S
H4990 C5019 0.950 . S
H4991 C5020 0.950 . S
H4992 C5022 0.950 . S
H4993 C5023 0.950 . S
C4994 H4976 0.951 . S
C4994 C4995 1.366 . S
C4994 C4996 1.388 . S
C4995 C4994 1.366 . S
C4995 C4999 1.385 . S
C4996 H4977 0.951 . S
C4996 C4994 1.388 . S
C4996 C4997 1.366 . S
C4997 C4996 1.366 . S
C4997 C4998 1.414 . S
C4997 C5000 1.499 . S
C4998 H4978 0.950 . S
C4998 C4997 1.414 . S
C4998 C4999 1.374 . S
C4999 H4979 0.950 . S
C4999 C4995 1.385 . S
C4999 C4998 1.374 . S
C5000 C4997 1.499 . S
C5000 C5001 1.373 . S
C5000 C5002 1.389 . S
C5001 H4980 0.950 . S
C5001 C5000 1.373 . S
C5001 C5017 1.377 . S
C5002 C5000 1.389 . S
C5002 C5003 1.524 . S
C5002 C5016 1.377 . S
C5003 C5002 1.524 . S
C5003 C5004 1.397 . S
C5003 C5008 1.363 . S
C5004 H4981 0.950 . S
C5004 C5003 1.397 . S
C5004 C5005 1.334 . S
C5005 H4982 0.950 . S
C5005 C5004 1.334 . S
C5005 C5006 1.287 . S
C5006 C5005 1.287 . S
C5006 C5007 1.524 . S
C5006 H5025 0.913 . S
C5007 H4983 0.950 . S
C5007 C5006 1.524 . S
C5007 C5008 1.415 . S
C5008 H4984 0.950 . S
C5008 C5003 1.363 . S
C5008 C5007 1.415 . S
C5009 H4985 0.951 . S
C5009 C5010 1.366 . S
C5009 C5011 1.388 . S
C5010 C5009 1.366 . S
C5010 C5014 1.385 . S
C5011 H4986 0.951 . S
C5011 C5009 1.388 . S
C5011 C5012 1.366 . S
C5012 C5011 1.366 . S
C5012 C5013 1.414 . S
C5012 C5015 1.499 . S
C5013 H4987 0.950 . S
C5013 C5012 1.414 . S
C5013 C5014 1.374 . S
C5014 H4988 0.950 . S
C5014 C5010 1.385 . S
C5014 C5013 1.374 . S
C5015 C5012 1.499 . S
C5015 C5016 1.373 . S
C5015 C5017 1.389 . S
C5016 H4989 0.950 . S
C5016 C5002 1.377 . S
C5016 C5015 1.373 . S
C5017 C5001 1.377 . S
C5017 C5015 1.389 . S
C5017 C5018 1.524 . S
C5018 C5017 1.524 . S
C5018 C5019 1.397 . S
C5018 C5023 1.363 . S
C5019 H4990 0.950 . S
C5019 C5018 1.397 . S
C5019 C5020 1.334 . S
C5020 H4991 0.950 . S
C5020 C5019 1.334 . S
C5020 C5021 1.287 . S
C5021 C5020 1.287 . S
C5021 C5022 1.524 . S
C5021 H5024 0.999 . S
C5022 H4992 0.950 . S
C5022 C5021 1.524 . S
C5022 C5023 1.415 . S
C5023 H4993 0.950 . S
C5023 C5018 1.363 . S
C5023 C5022 1.415 . S
H5024 C5021 0.999 . S
H5025 C5006 0.913 . S
H5026 C5044 0.951 . S
H5027 C5046 0.951 . S
H5028 C5048 0.950 . S
H5029 C5049 0.950 . S
H5030 C5051 0.950 . S
H5031 C5054 0.950 . S
H5032 C5055 0.950 . S
H5033 C5057 0.950 . S
H5034 C5058 0.950 . S
H5035 C5059 0.951 . S
H5036 C5061 0.951 . S
H5037 C5063 0.950 . S
H5038 C5064 0.950 . S
H5039 C5066 0.950 . S
H5040 C5069 0.950 . S
H5041 C5070 0.950 . S
H5042 C5072 0.950 . S
H5043 C5073 0.950 . S
C5044 H5026 0.951 . S
C5044 C5045 1.366 . S
C5044 C5046 1.388 . S
C5045 C5044 1.366 . S
C5045 C5049 1.385 . S
C5046 H5027 0.951 . S
C5046 C5044 1.388 . S
C5046 C5047 1.366 . S
C5047 C5046 1.366 . S
C5047 C5048 1.414 . S
C5047 C5050 1.499 . S
C5048 H5028 0.950 . S
C5048 C5047 1.414 . S
C5048 C5049 1.374 . S
C5049 H5029 0.950 . S
C5049 C5045 1.385 . S
C5049 C5048 1.374 . S
C5050 C5047 1.499 . S
C5050 C5051 1.373 . S
C5050 C5052 1.389 . S
C5051 H5030 0.950 . S
C5051 C5050 1.373 . S
C5051 C5067 1.377 . S
C5052 C5050 1.389 . S
C5052 C5053 1.524 . S
C5052 C5066 1.377 . S
C5053 C5052 1.524 . S
C5053 C5054 1.397 . S
C5053 C5058 1.363 . S
C5054 H5031 0.950 . S
C5054 C5053 1.397 . S
C5054 C5055 1.334 . S
C5055 H5032 0.950 . S
C5055 C5054 1.334 . S
C5055 C5056 1.287 . S
C5056 C5055 1.287 . S
C5056 C5057 1.524 . S
C5056 H5075 0.913 . S
C5057 H5033 0.950 . S
C5057 C5056 1.524 . S
C5057 C5058 1.415 . S
C5058 H5034 0.950 . S
C5058 C5053 1.363 . S
C5058 C5057 1.415 . S
C5059 H5035 0.951 . S
C5059 C5060 1.366 . S
C5059 C5061 1.388 . S
C5060 C5059 1.366 . S
C5060 C5064 1.385 . S
C5061 H5036 0.951 . S
C5061 C5059 1.388 . S
C5061 C5062 1.366 . S
C5062 C5061 1.366 . S
C5062 C5063 1.414 . S
C5062 C5065 1.499 . S
C5063 H5037 0.950 . S
C5063 C5062 1.414 . S
C5063 C5064 1.374 . S
C5064 H5038 0.950 . S
C5064 C5060 1.385 . S
C5064 C5063 1.374 . S
C5065 C5062 1.499 . S
C5065 C5066 1.373 . S
C5065 C5067 1.389 . S
C5066 H5039 0.950 . S
C5066 C5052 1.377 . S
C5066 C5065 1.373 . S
C5067 C5051 1.377 . S
C5067 C5065 1.389 . S
C5067 C5068 1.524 . S
C5068 C5067 1.524 . S
C5068 C5069 1.397 . S
C5068 C5073 1.363 . S
C5069 H5040 0.950 . S
C5069 C5068 1.397 . S
C5069 C5070 1.334 . S
C5070 H5041 0.950 . S
C5070 C5069 1.334 . S
C5070 C5071 1.287 . S
C5071 C5070 1.287 . S
C5071 C5072 1.524 . S
C5071 H5074 0.999 . S
C5072 H5042 0.950 . S
C5072 C5071 1.524 . S
C5072 C5073 1.415 . S
C5073 H5043 0.950 . S
C5073 C5068 1.363 . S
C5073 C5072 1.415 . S
H5074 C5071 0.999 . S
H5075 C5056 0.913 . S
H5076 C5094 0.951 . S
H5077 C5096 0.951 . S
H5078 C5098 0.950 . S
H5079 C5099 0.950 . S
H5080 C5101 0.946 1_455 S
H5081 C5104 0.950 . S
H5082 C5105 0.950 . S
H5083 C5107 0.950 . S
H5084 C5108 0.950 . S
H5085 C5109 0.951 . S
H5086 C5111 0.951 . S
H5087 C5113 0.950 . S
H5088 C5114 0.957 . S
H5089 C5116 0.950 . S
H5090 C5119 0.950 . S
H5091 C5120 0.950 . S
H5092 C5122 0.950 . S
H5093 C5123 0.950 . S
C5094 H5076 0.951 . S
C5094 C5095 1.366 . S
C5094 C5096 1.388 . S
C5095 C5094 1.366 . S
C5095 C5099 1.385 . S
C5096 H5077 0.951 . S
C5096 C5094 1.388 . S
C5096 C5097 1.366 . S
C5097 C5096 1.366 . S
C5097 C5098 1.414 . S
C5097 C5100 1.499 . S
C5098 H5078 0.950 . S
C5098 C5097 1.414 . S
C5098 C5099 1.374 . S
C5099 H5079 0.950 . S
C5099 C5095 1.385 . S
C5099 C5098 1.374 . S
C5100 C5097 1.499 . S
C5100 C5101 1.373 . S
C5100 C5102 1.389 . S
C5101 H5080 0.946 1_655 S
C5101 C5100 1.373 . S
C5101 C5117 1.377 1_655 S
C5102 C5100 1.389 . S
C5102 C5103 1.524 . S
C5102 C5116 1.377 . S
C5103 C5102 1.524 . S
C5103 C5104 1.397 . S
C5103 C5108 1.363 . S
C5104 H5081 0.950 . S
C5104 C5103 1.397 . S
C5104 C5105 1.334 . S
C5105 H5082 0.950 . S
C5105 C5104 1.334 . S
C5105 C5106 1.287 . S
C5106 C5105 1.287 . S
C5106 C5107 1.524 . S
C5106 H5125 0.913 . S
C5107 H5083 0.950 . S
C5107 C5106 1.524 . S
C5107 C5108 1.415 . S
C5108 H5084 0.950 . S
C5108 C5103 1.363 . S
C5108 C5107 1.415 . S
C5109 H5085 0.951 . S
C5109 C5110 1.366 . S
C5109 C5111 1.388 . S
C5110 C5109 1.366 . S
C5110 C5114 1.372 1_455 S
C5111 H5086 0.951 . S
C5111 C5109 1.388 . S
C5111 C5112 1.366 . S
C5112 C5111 1.366 . S
C5112 C5113 1.414 1_455 S
C5112 C5115 1.499 1_455 S
C5113 H5087 0.950 . S
C5113 C5112 1.414 1_655 S
C5113 C5114 1.380 . S
C5114 H5088 0.957 . S
C5114 C5110 1.372 1_655 S
C5114 C5113 1.380 . S
C5115 C5112 1.499 1_655 S
C5115 C5116 1.373 . S
C5115 C5117 1.389 1_655 S
C5116 H5089 0.950 . S
C5116 C5102 1.377 . S
C5116 C5115 1.373 . S
C5117 C5101 1.377 1_455 S
C5117 C5115 1.389 1_455 S
C5117 C5118 1.524 . S
C5118 C5117 1.524 . S
C5118 C5119 1.397 . S
C5118 C5123 1.363 . S
C5119 H5090 0.950 . S
C5119 C5118 1.397 . S
C5119 C5120 1.334 . S
C5120 H5091 0.950 . S
C5120 C5119 1.334 . S
C5120 C5121 1.287 . S
C5121 C5120 1.287 . S
C5121 C5122 1.524 . S
C5121 H5124 0.999 . S
C5122 H5092 0.950 . S
C5122 C5121 1.524 . S
C5122 C5123 1.415 . S
C5123 H5093 0.950 . S
C5123 C5118 1.363 . S
C5123 C5122 1.415 . S
H5124 C5121 0.999 . S
H5125 C5106 0.913 . S
H5126 C5144 0.951 . S
H5127 C5146 0.951 . S
H5128 C5148 0.950 . S
H5129 C5149 0.950 . S
H5130 C5151 0.950 . S
H5131 C5154 0.950 . S
H5132 C5155 0.950 . S
H5133 C5157 0.950 . S
H5134 C5158 0.950 . S
H5135 C5159 0.951 . S
H5136 C5161 0.951 . S
H5137 C5163 0.950 . S
H5138 C5164 0.950 . S
H5139 C5166 0.950 . S
H5140 C5169 0.950 . S
H5141 C5170 0.950 . S
H5142 C5172 0.950 . S
H5143 C5173 0.950 . S
C5144 H5126 0.951 . S
C5144 C5145 1.366 . S
C5144 C5146 1.388 . S
C5145 C5144 1.366 . S
C5145 C5149 1.385 . S
C5146 H5127 0.951 . S
C5146 C5144 1.388 . S
C5146 C5147 1.366 . S
C5147 C5146 1.366 . S
C5147 C5148 1.414 . S
C5147 C5150 1.499 . S
C5148 H5128 0.950 . S
C5148 C5147 1.414 . S
C5148 C5149 1.374 . S
C5149 H5129 0.950 . S
C5149 C5145 1.385 . S
C5149 C5148 1.374 . S
C5150 C5147 1.499 . S
C5150 C5151 1.373 . S
C5150 C5152 1.389 . S
C5151 H5130 0.950 . S
C5151 C5150 1.373 . S
C5151 C5167 1.377 . S
C5152 C5150 1.389 . S
C5152 C5153 1.524 . S
C5152 C5166 1.377 . S
C5153 C5152 1.524 . S
C5153 C5154 1.397 . S
C5153 C5158 1.363 . S
C5154 H5131 0.950 . S
C5154 C5153 1.397 . S
C5154 C5155 1.334 . S
C5155 H5132 0.950 . S
C5155 C5154 1.334 . S
C5155 C5156 1.287 . S
C5156 C5155 1.287 . S
C5156 C5157 1.524 . S
C5156 H5175 0.913 . S
C5157 H5133 0.950 . S
C5157 C5156 1.524 . S
C5157 C5158 1.415 . S
C5158 H5134 0.950 . S
C5158 C5153 1.363 . S
C5158 C5157 1.415 . S
C5159 H5135 0.951 . S
C5159 C5160 1.366 . S
C5159 C5161 1.388 . S
C5160 C5159 1.366 . S
C5160 C5164 1.385 . S
C5161 H5136 0.951 . S
C5161 C5159 1.388 . S
C5161 C5162 1.366 . S
C5162 C5161 1.366 . S
C5162 C5163 1.414 . S
C5162 C5165 1.499 . S
C5163 H5137 0.950 . S
C5163 C5162 1.414 . S
C5163 C5164 1.374 . S
C5164 H5138 0.950 . S
C5164 C5160 1.385 . S
C5164 C5163 1.374 . S
C5165 C5162 1.499 . S
C5165 C5166 1.373 . S
C5165 C5167 1.389 . S
C5166 H5139 0.950 . S
C5166 C5152 1.377 . S
C5166 C5165 1.373 . S
C5167 C5151 1.377 . S
C5167 C5165 1.389 . S
C5167 C5168 1.524 . S
C5168 C5167 1.524 . S
C5168 C5169 1.397 . S
C5168 C5173 1.363 . S
C5169 H5140 0.950 . S
C5169 C5168 1.397 . S
C5169 C5170 1.334 . S
C5170 H5141 0.950 . S
C5170 C5169 1.334 . S
C5170 C5171 1.287 . S
C5171 C5170 1.287 . S
C5171 C5172 1.524 . S
C5171 H5174 0.999 . S
C5172 H5142 0.950 . S
C5172 C5171 1.524 . S
C5172 C5173 1.415 . S
C5173 H5143 0.950 . S
C5173 C5168 1.363 . S
C5173 C5172 1.415 . S
H5174 C5171 0.999 . S
H5175 C5156 0.913 . S
H5176 C5194 0.951 . S
H5177 C5196 0.951 . S
H5178 C5198 0.950 . S
H5179 C5199 0.950 . S
H5180 C5201 0.950 . S
H5181 C5204 0.950 . S
H5182 C5205 0.950 . S
H5183 C5207 0.950 . S
H5184 C5208 0.950 . S
H5185 C5209 0.951 . S
H5186 C5211 0.951 . S
H5187 C5213 0.950 . S
H5188 C5214 0.950 . S
H5189 C5216 0.950 . S
H5190 C5219 0.950 . S
H5191 C5220 0.950 . S
H5192 C5222 0.950 . S
H5193 C5223 0.950 . S
C5194 H5176 0.951 . S
C5194 C5195 1.366 . S
C5194 C5196 1.388 . S
C5195 C5194 1.366 . S
C5195 C5199 1.385 . S
C5196 H5177 0.951 . S
C5196 C5194 1.388 . S
C5196 C5197 1.366 . S
C5197 C5196 1.366 . S
C5197 C5198 1.414 . S
C5197 C5200 1.499 . S
C5198 H5178 0.950 . S
C5198 C5197 1.414 . S
C5198 C5199 1.374 . S
C5199 H5179 0.950 . S
C5199 C5195 1.385 . S
C5199 C5198 1.374 . S
C5200 C5197 1.499 . S
C5200 C5201 1.373 . S
C5200 C5202 1.389 . S
C5201 H5180 0.950 . S
C5201 C5200 1.373 . S
C5201 C5217 1.377 . S
C5202 C5200 1.389 . S
C5202 C5203 1.524 . S
C5202 C5216 1.377 . S
C5203 C5202 1.524 . S
C5203 C5204 1.397 . S
C5203 C5208 1.363 . S
C5204 H5181 0.950 . S
C5204 C5203 1.397 . S
C5204 C5205 1.334 . S
C5205 H5182 0.950 . S
C5205 C5204 1.334 . S
C5205 C5206 1.287 . S
C5206 C5205 1.287 . S
C5206 C5207 1.524 . S
C5206 H5225 0.913 . S
C5207 H5183 0.950 . S
C5207 C5206 1.524 . S
C5207 C5208 1.415 . S
C5208 H5184 0.950 . S
C5208 C5203 1.363 . S
C5208 C5207 1.415 . S
C5209 H5185 0.951 . S
C5209 C5210 1.366 . S
C5209 C5211 1.388 . S
C5210 C5209 1.366 . S
C5210 C5214 1.385 . S
C5211 H5186 0.951 . S
C5211 C5209 1.388 . S
C5211 C5212 1.366 . S
C5212 C5211 1.366 . S
C5212 C5213 1.414 . S
C5212 C5215 1.499 . S
C5213 H5187 0.950 . S
C5213 C5212 1.414 . S
C5213 C5214 1.374 . S
C5214 H5188 0.950 . S
C5214 C5210 1.385 . S
C5214 C5213 1.374 . S
C5215 C5212 1.499 . S
C5215 C5216 1.373 . S
C5215 C5217 1.389 . S
C5216 H5189 0.950 . S
C5216 C5202 1.377 . S
C5216 C5215 1.373 . S
C5217 C5201 1.377 . S
C5217 C5215 1.389 . S
C5217 C5218 1.524 . S
C5218 C5217 1.524 . S
C5218 C5219 1.397 . S
C5218 C5223 1.363 . S
C5219 H5190 0.950 . S
C5219 C5218 1.397 . S
C5219 C5220 1.334 . S
C5220 H5191 0.950 . S
C5220 C5219 1.334 . S
C5220 C5221 1.287 . S
C5221 C5220 1.287 . S
C5221 C5222 1.524 . S
C5221 H5224 0.999 . S
C5222 H5192 0.950 . S
C5222 C5221 1.524 . S
C5222 C5223 1.415 . S
C5223 H5193 0.950 . S
C5223 C5218 1.363 . S
C5223 C5222 1.415 . S
H5224 C5221 0.999 . S
H5225 C5206 0.913 . S
H5226 C5244 0.951 . S
H5227 C5246 0.951 . S
H5228 C5248 0.950 . S
H5229 C5249 0.950 . S
H5230 C5251 0.950 . S
H5231 C5254 0.950 . S
H5232 C5255 0.950 . S
H5233 C5257 0.950 . S
H5234 C5258 0.950 . S
H5235 C5259 0.951 . S
H5236 C5261 0.951 . S
H5237 C5263 0.950 . S
H5238 C5264 0.950 . S
H5239 C5266 0.950 . S
H5240 C5269 0.950 . S
H5241 C5270 0.950 . S
H5242 C5272 0.950 . S
H5243 C5273 0.950 . S
C5244 H5226 0.951 . S
C5244 C5245 1.366 . S
C5244 C5246 1.388 . S
C5245 C5244 1.366 . S
C5245 C5249 1.385 . S
C5246 H5227 0.951 . S
C5246 C5244 1.388 . S
C5246 C5247 1.366 . S
C5247 C5246 1.366 . S
C5247 C5248 1.414 . S
C5247 C5250 1.499 . S
C5248 H5228 0.950 . S
C5248 C5247 1.414 . S
C5248 C5249 1.374 . S
C5249 H5229 0.950 . S
C5249 C5245 1.385 . S
C5249 C5248 1.374 . S
C5250 C5247 1.499 . S
C5250 C5251 1.373 . S
C5250 C5252 1.389 . S
C5251 H5230 0.950 . S
C5251 C5250 1.373 . S
C5251 C5267 1.377 . S
C5252 C5250 1.389 . S
C5252 C5253 1.524 . S
C5252 C5266 1.377 . S
C5253 C5252 1.524 . S
C5253 C5254 1.397 . S
C5253 C5258 1.363 . S
C5254 H5231 0.950 . S
C5254 C5253 1.397 . S
C5254 C5255 1.334 . S
C5255 H5232 0.950 . S
C5255 C5254 1.334 . S
C5255 C5256 1.287 . S
C5256 C5255 1.287 . S
C5256 C5257 1.524 . S
C5256 H5275 0.913 . S
C5257 H5233 0.950 . S
C5257 C5256 1.524 . S
C5257 C5258 1.415 . S
C5258 H5234 0.950 . S
C5258 C5253 1.363 . S
C5258 C5257 1.415 . S
C5259 H5235 0.951 . S
C5259 C5260 1.366 . S
C5259 C5261 1.388 . S
C5260 C5259 1.366 . S
C5260 C5264 1.385 . S
C5261 H5236 0.951 . S
C5261 C5259 1.388 . S
C5261 C5262 1.366 . S
C5262 C5261 1.366 . S
C5262 C5263 1.414 . S
C5262 C5265 1.499 . S
C5263 H5237 0.950 . S
C5263 C5262 1.414 . S
C5263 C5264 1.374 . S
C5264 H5238 0.950 . S
C5264 C5260 1.385 . S
C5264 C5263 1.374 . S
C5265 C5262 1.499 . S
C5265 C5266 1.373 . S
C5265 C5267 1.389 . S
C5266 H5239 0.950 . S
C5266 C5252 1.377 . S
C5266 C5265 1.373 . S
C5267 C5251 1.377 . S
C5267 C5265 1.389 . S
C5267 C5268 1.524 . S
C5268 C5267 1.524 . S
C5268 C5269 1.397 . S
C5268 C5273 1.363 . S
C5269 H5240 0.950 . S
C5269 C5268 1.397 . S
C5269 C5270 1.334 . S
C5270 H5241 0.950 . S
C5270 C5269 1.334 . S
C5270 C5271 1.287 . S
C5271 C5270 1.287 . S
C5271 C5272 1.524 . S
C5271 H5274 0.999 . S
C5272 H5242 0.950 . S
C5272 C5271 1.524 . S
C5272 C5273 1.415 . S
C5273 H5243 0.950 . S
C5273 C5268 1.363 . S
C5273 C5272 1.415 . S
H5274 C5271 0.999 . S
H5275 C5256 0.913 . S
H5276 C5294 0.951 . S
H5277 C5296 0.951 . S
H5278 C5298 0.950 . S
H5279 C5299 0.950 . S
H5280 C5301 0.950 . S
H5281 C5304 0.950 . S
H5282 C5305 0.950 . S
H5283 C5307 0.950 . S
H5284 C5308 0.947 1_655 S
H5285 C5309 0.951 . S
H5286 C5311 0.951 . S
H5287 C5313 0.950 . S
H5288 C5314 0.950 . S
H5289 C5316 0.950 1_455 S
H5290 C5319 0.950 . S
H5291 C5320 0.950 . S
H5292 C5322 0.950 . S
H5293 C5323 0.950 . S
C5294 H5276 0.951 . S
C5294 C5295 1.366 . S
C5294 C5296 1.388 . S
C5295 C5294 1.366 . S
C5295 C5299 1.385 . S
C5296 H5277 0.951 . S
C5296 C5294 1.388 . S
C5296 C5297 1.366 . S
C5297 C5296 1.366 . S
C5297 C5298 1.414 . S
C5297 C5300 1.499 . S
C5298 H5278 0.950 . S
C5298 C5297 1.414 . S
C5298 C5299 1.374 . S
C5299 H5279 0.950 . S
C5299 C5295 1.385 . S
C5299 C5298 1.374 . S
C5300 C5297 1.499 . S
C5300 C5301 1.373 . S
C5300 C5302 1.389 . S
C5301 H5280 0.950 . S
C5301 C5300 1.373 . S
C5301 C5317 1.377 . S
C5302 C5300 1.389 . S
C5302 C5303 1.524 . S
C5302 C5316 1.377 . S
C5303 C5302 1.524 . S
C5303 C5304 1.397 1_655 S
C5303 C5308 1.347 1_655 S
C5304 H5281 0.950 . S
C5304 C5303 1.397 1_455 S
C5304 C5305 1.334 . S
C5305 H5282 0.950 . S
C5305 C5304 1.334 . S
C5305 C5306 1.287 . S
C5306 C5305 1.287 . S
C5306 C5307 1.524 . S
C5306 H5325 0.913 . S
C5307 H5283 0.950 . S
C5307 C5306 1.524 . S
C5307 C5308 1.435 . S
C5308 H5284 0.947 1_455 S
C5308 C5303 1.347 1_455 S
C5308 C5307 1.435 . S
C5309 H5285 0.951 . S
C5309 C5310 1.366 . S
C5309 C5311 1.388 1_455 S
C5310 C5309 1.366 . S
C5310 C5314 1.385 . S
C5311 H5286 0.951 . S
C5311 C5309 1.388 1_655 S
C5311 C5312 1.366 . S
C5312 C5311 1.366 . S
C5312 C5313 1.414 . S
C5312 C5315 1.499 . S
C5313 H5287 0.950 . S
C5313 C5312 1.414 . S
C5313 C5314 1.374 1_655 S
C5314 H5288 0.950 . S
C5314 C5310 1.385 . S
C5314 C5313 1.374 1_455 S
C5315 C5312 1.499 . S
C5315 C5316 1.373 . S
C5315 C5317 1.389 . S
C5316 H5289 0.950 1_655 S
C5316 C5302 1.377 . S
C5316 C5315 1.373 . S
C5317 C5301 1.377 . S
C5317 C5315 1.389 . S
C5317 C5318 1.524 . S
C5318 C5317 1.524 . S
C5318 C5319 1.397 . S
C5318 C5323 1.363 . S
C5319 H5290 0.950 . S
C5319 C5318 1.397 . S
C5319 C5320 1.334 . S
C5320 H5291 0.950 . S
C5320 C5319 1.334 . S
C5320 C5321 1.287 . S
C5321 C5320 1.287 . S
C5321 C5322 1.524 . S
C5321 H5324 0.999 . S
C5322 H5292 0.950 . S
C5322 C5321 1.524 . S
C5322 C5323 1.415 . S
C5323 H5293 0.950 . S
C5323 C5318 1.363 . S
C5323 C5322 1.415 . S
H5324 C5321 0.999 . S
H5325 C5306 0.913 . S
H5326 C5344 0.951 . S
H5327 C5346 0.951 . S
H5328 C5348 0.950 . S
H5329 C5349 0.950 . S
H5330 C5351 0.950 . S
H5331 C5354 0.950 . S
H5332 C5355 0.950 . S
H5333 C5357 0.950 . S
H5334 C5358 0.950 . S
H5335 C5359 0.951 . S
H5336 C5361 0.951 . S
H5337 C5363 0.950 . S
H5338 C5364 0.950 . S
H5339 C5366 0.950 . S
H5340 C5369 0.950 . S
H5341 C5370 0.950 . S
H5342 C5372 0.950 . S
H5343 C5373 0.950 . S
C5344 H5326 0.951 . S
C5344 C5345 1.366 . S
C5344 C5346 1.388 . S
C5345 C5344 1.366 . S
C5345 C5349 1.385 . S
C5346 H5327 0.951 . S
C5346 C5344 1.388 . S
C5346 C5347 1.366 . S
C5347 C5346 1.366 . S
C5347 C5348 1.414 . S
C5347 C5350 1.499 . S
C5348 H5328 0.950 . S
C5348 C5347 1.414 . S
C5348 C5349 1.374 . S
C5349 H5329 0.950 . S
C5349 C5345 1.385 . S
C5349 C5348 1.374 . S
C5350 C5347 1.499 . S
C5350 C5351 1.373 . S
C5350 C5352 1.389 . S
C5351 H5330 0.950 . S
C5351 C5350 1.373 . S
C5351 C5367 1.377 . S
C5352 C5350 1.389 . S
C5352 C5353 1.524 . S
C5352 C5366 1.377 . S
C5353 C5352 1.524 . S
C5353 C5354 1.397 . S
C5353 C5358 1.363 . S
C5354 H5331 0.950 . S
C5354 C5353 1.397 . S
C5354 C5355 1.334 . S
C5355 H5332 0.950 . S
C5355 C5354 1.334 . S
C5355 C5356 1.287 . S
C5356 C5355 1.287 . S
C5356 C5357 1.524 . S
C5356 H5375 0.913 . S
C5357 H5333 0.950 . S
C5357 C5356 1.524 . S
C5357 C5358 1.415 . S
C5358 H5334 0.950 . S
C5358 C5353 1.363 . S
C5358 C5357 1.415 . S
C5359 H5335 0.951 . S
C5359 C5360 1.366 . S
C5359 C5361 1.388 . S
C5360 C5359 1.366 . S
C5360 C5364 1.385 . S
C5361 H5336 0.951 . S
C5361 C5359 1.388 . S
C5361 C5362 1.366 . S
C5362 C5361 1.366 . S
C5362 C5363 1.414 . S
C5362 C5365 1.499 . S
C5363 H5337 0.950 . S
C5363 C5362 1.414 . S
C5363 C5364 1.374 . S
C5364 H5338 0.950 . S
C5364 C5360 1.385 . S
C5364 C5363 1.374 . S
C5365 C5362 1.499 . S
C5365 C5366 1.373 . S
C5365 C5367 1.389 . S
C5366 H5339 0.950 . S
C5366 C5352 1.377 . S
C5366 C5365 1.373 . S
C5367 C5351 1.377 . S
C5367 C5365 1.389 . S
C5367 C5368 1.524 . S
C5368 C5367 1.524 . S
C5368 C5369 1.397 . S
C5368 C5373 1.363 . S
C5369 H5340 0.950 . S
C5369 C5368 1.397 . S
C5369 C5370 1.334 . S
C5370 H5341 0.950 . S
C5370 C5369 1.334 . S
C5370 C5371 1.287 . S
C5371 C5370 1.287 . S
C5371 C5372 1.524 . S
C5371 H5374 0.999 . S
C5372 H5342 0.950 . S
C5372 C5371 1.524 . S
C5372 C5373 1.415 . S
C5373 H5343 0.950 . S
C5373 C5368 1.363 . S
C5373 C5372 1.415 . S
H5374 C5371 0.999 . S
H5375 C5356 0.913 . S
H5376 C5394 0.951 . S
H5377 C5396 0.951 . S
H5378 C5398 0.950 . S
H5379 C5399 0.950 . S
H5380 C5401 0.950 . S
H5381 C5404 0.950 . S
H5382 C5405 0.950 . S
H5383 C5407 0.950 . S
H5384 C5408 0.950 . S
H5385 C5409 0.951 . S
H5386 C5411 0.951 . S
H5387 C5413 0.950 . S
H5388 C5414 0.950 . S
H5389 C5416 0.950 . S
H5390 C5419 0.950 . S
H5391 C5420 0.950 . S
H5392 C5422 0.950 . S
H5393 C5423 0.950 . S
C5394 H5376 0.951 . S
C5394 C5395 1.366 . S
C5394 C5396 1.388 . S
C5395 C5394 1.366 . S
C5395 C5399 1.385 . S
C5396 H5377 0.951 . S
C5396 C5394 1.388 . S
C5396 C5397 1.366 . S
C5397 C5396 1.366 . S
C5397 C5398 1.414 . S
C5397 C5400 1.499 . S
C5398 H5378 0.950 . S
C5398 C5397 1.414 . S
C5398 C5399 1.374 . S
C5399 H5379 0.950 . S
C5399 C5395 1.385 . S
C5399 C5398 1.374 . S
C5400 C5397 1.499 . S
C5400 C5401 1.373 . S
C5400 C5402 1.389 . S
C5401 H5380 0.950 . S
C5401 C5400 1.373 . S
C5401 C5417 1.377 . S
C5402 C5400 1.389 . S
C5402 C5403 1.524 . S
C5402 C5416 1.377 . S
C5403 C5402 1.524 . S
C5403 C5404 1.397 . S
C5403 C5408 1.363 . S
C5404 H5381 0.950 . S
C5404 C5403 1.397 . S
C5404 C5405 1.334 . S
C5405 H5382 0.950 . S
C5405 C5404 1.334 . S
C5405 C5406 1.287 . S
C5406 C5405 1.287 . S
C5406 C5407 1.524 . S
C5406 H5425 0.913 . S
C5407 H5383 0.950 . S
C5407 C5406 1.524 . S
C5407 C5408 1.415 . S
C5408 H5384 0.950 . S
C5408 C5403 1.363 . S
C5408 C5407 1.415 . S
C5409 H5385 0.951 . S
C5409 C5410 1.366 . S
C5409 C5411 1.388 . S
C5410 C5409 1.366 . S
C5410 C5414 1.385 . S
C5411 H5386 0.951 . S
C5411 C5409 1.388 . S
C5411 C5412 1.366 . S
C5412 C5411 1.366 . S
C5412 C5413 1.414 . S
C5412 C5415 1.499 . S
C5413 H5387 0.950 . S
C5413 C5412 1.414 . S
C5413 C5414 1.374 . S
C5414 H5388 0.950 . S
C5414 C5410 1.385 . S
C5414 C5413 1.374 . S
C5415 C5412 1.499 . S
C5415 C5416 1.373 . S
C5415 C5417 1.389 . S
C5416 H5389 0.950 . S
C5416 C5402 1.377 . S
C5416 C5415 1.373 . S
C5417 C5401 1.377 . S
C5417 C5415 1.389 . S
C5417 C5418 1.524 . S
C5418 C5417 1.524 . S
C5418 C5419 1.397 . S
C5418 C5423 1.363 . S
C5419 H5390 0.950 . S
C5419 C5418 1.397 . S
C5419 C5420 1.334 . S
C5420 H5391 0.950 . S
C5420 C5419 1.334 . S
C5420 C5421 1.287 . S
C5421 C5420 1.287 . S
C5421 C5422 1.524 . S
C5421 H5424 0.999 . S
C5422 H5392 0.950 . S
C5422 C5421 1.524 . S
C5422 C5423 1.415 . S
C5423 H5393 0.950 . S
C5423 C5418 1.363 . S
C5423 C5422 1.415 . S
H5424 C5421 0.999 . S
H5425 C5406 0.913 . S
H5426 C5444 0.951 . S
H5427 C5446 0.951 . S
H5428 C5448 0.950 . S
H5429 C5449 0.950 . S
H5430 C5451 0.950 . S
H5431 C5454 0.950 . S
H5432 C5455 0.950 . S
H5433 C5457 0.950 . S
H5434 C5458 0.950 . S
H5435 C5459 0.951 . S
H5436 C5461 0.951 . S
H5437 C5463 0.950 . S
H5438 C5464 0.950 . S
H5439 C5466 0.950 . S
H5440 C5469 0.950 . S
H5441 C5470 0.950 . S
H5442 C5472 0.950 . S
H5443 C5473 0.950 . S
C5444 H5426 0.951 . S
C5444 C5445 1.366 . S
C5444 C5446 1.388 . S
C5445 C5444 1.366 . S
C5445 C5449 1.385 . S
C5446 H5427 0.951 . S
C5446 C5444 1.388 . S
C5446 C5447 1.366 . S
C5447 C5446 1.366 . S
C5447 C5448 1.414 . S
C5447 C5450 1.499 . S
C5448 H5428 0.950 . S
C5448 C5447 1.414 . S
C5448 C5449 1.374 . S
C5449 H5429 0.950 . S
C5449 C5445 1.385 . S
C5449 C5448 1.374 . S
C5450 C5447 1.499 . S
C5450 C5451 1.373 . S
C5450 C5452 1.389 . S
C5451 H5430 0.950 . S
C5451 C5450 1.373 . S
C5451 C5467 1.377 . S
C5452 C5450 1.389 . S
C5452 C5453 1.524 . S
C5452 C5466 1.377 . S
C5453 C5452 1.524 . S
C5453 C5454 1.397 . S
C5453 C5458 1.363 . S
C5454 H5431 0.950 . S
C5454 C5453 1.397 . S
C5454 C5455 1.334 . S
C5455 H5432 0.950 . S
C5455 C5454 1.334 . S
C5455 C5456 1.287 . S
C5456 C5455 1.287 . S
C5456 C5457 1.524 . S
C5456 H5475 0.913 . S
C5457 H5433 0.950 . S
C5457 C5456 1.524 . S
C5457 C5458 1.415 . S
C5458 H5434 0.950 . S
C5458 C5453 1.363 . S
C5458 C5457 1.415 . S
C5459 H5435 0.951 . S
C5459 C5460 1.366 . S
C5459 C5461 1.388 . S
C5460 C5459 1.366 . S
C5460 C5464 1.385 1_565 S
C5461 H5436 0.951 . S
C5461 C5459 1.388 . S
C5461 C5462 1.366 . S
C5462 C5461 1.366 . S
C5462 C5463 1.414 . S
C5462 C5465 1.499 . S
C5463 H5437 0.950 . S
C5463 C5462 1.414 . S
C5463 C5464 1.374 1_565 S
C5464 H5438 0.950 . S
C5464 C5460 1.385 1_545 S
C5464 C5463 1.374 1_545 S
C5465 C5462 1.499 . S
C5465 C5466 1.373 . S
C5465 C5467 1.389 . S
C5466 H5439 0.950 . S
C5466 C5452 1.377 . S
C5466 C5465 1.373 . S
C5467 C5451 1.377 . S
C5467 C5465 1.389 . S
C5467 C5468 1.524 . S
C5468 C5467 1.524 . S
C5468 C5469 1.397 . S
C5468 C5473 1.363 . S
C5469 H5440 0.950 . S
C5469 C5468 1.397 . S
C5469 C5470 1.334 . S
C5470 H5441 0.950 . S
C5470 C5469 1.334 . S
C5470 C5471 1.287 . S
C5471 C5470 1.287 . S
C5471 C5472 1.524 . S
C5471 H5474 0.999 . S
C5472 H5442 0.950 . S
C5472 C5471 1.524 . S
C5472 C5473 1.415 . S
C5473 H5443 0.950 . S
C5473 C5468 1.363 . S
C5473 C5472 1.415 . S
H5474 C5471 0.999 . S
H5475 C5456 0.913 . S
H5476 C5494 0.951 . S
H5477 C5496 0.951 . S
H5478 C5498 0.950 . S
H5479 C5499 0.950 . S
H5480 C5501 0.950 . S
H5481 C5504 0.950 . S
H5482 C5505 0.950 . S
H5483 C5507 0.950 . S
H5484 C5508 0.950 . S
H5485 C5509 0.951 . S
H5486 C5511 0.951 . S
H5487 C5513 0.950 . S
H5488 C5514 0.950 . S
H5489 C5516 0.950 . S
H5490 C5519 0.950 . S
H5491 C5520 0.950 . S
H5492 C5522 0.950 . S
H5493 C5523 0.950 . S
C5494 H5476 0.951 . S
C5494 C5495 1.366 . S
C5494 C5496 1.388 . S
C5495 C5494 1.366 . S
C5495 C5499 1.385 . S
C5496 H5477 0.951 . S
C5496 C5494 1.388 . S
C5496 C5497 1.366 . S
C5497 C5496 1.366 . S
C5497 C5498 1.414 . S
C5497 C5500 1.499 . S
C5498 H5478 0.950 . S
C5498 C5497 1.414 . S
C5498 C5499 1.374 . S
C5499 H5479 0.950 . S
C5499 C5495 1.385 . S
C5499 C5498 1.374 . S
C5500 C5497 1.499 . S
C5500 C5501 1.373 . S
C5500 C5502 1.389 . S
C5501 H5480 0.950 . S
C5501 C5500 1.373 . S
C5501 C5517 1.377 . S
C5502 C5500 1.389 . S
C5502 C5503 1.524 . S
C5502 C5516 1.377 . S
C5503 C5502 1.524 . S
C5503 C5504 1.397 . S
C5503 C5508 1.363 . S
C5504 H5481 0.950 . S
C5504 C5503 1.397 . S
C5504 C5505 1.334 . S
C5505 H5482 0.950 . S
C5505 C5504 1.334 . S
C5505 C5506 1.287 . S
C5506 C5505 1.287 . S
C5506 C5507 1.524 . S
C5506 H5525 0.913 . S
C5507 H5483 0.950 . S
C5507 C5506 1.524 . S
C5507 C5508 1.415 . S
C5508 H5484 0.950 . S
C5508 C5503 1.363 . S
C5508 C5507 1.415 . S
C5509 H5485 0.951 . S
C5509 C5510 1.366 . S
C5509 C5511 1.388 . S
C5510 C5509 1.366 . S
C5510 C5514 1.385 . S
C5511 H5486 0.951 . S
C5511 C5509 1.388 . S
C5511 C5512 1.366 . S
C5512 C5511 1.366 . S
C5512 C5513 1.414 . S
C5512 C5515 1.499 . S
C5513 H5487 0.950 . S
C5513 C5512 1.414 . S
C5513 C5514 1.374 . S
C5514 H5488 0.950 . S
C5514 C5510 1.385 . S
C5514 C5513 1.374 . S
C5515 C5512 1.499 . S
C5515 C5516 1.373 . S
C5515 C5517 1.389 . S
C5516 H5489 0.950 . S
C5516 C5502 1.377 . S
C5516 C5515 1.373 . S
C5517 C5501 1.377 . S
C5517 C5515 1.389 . S
C5517 C5518 1.524 . S
C5518 C5517 1.524 . S
C5518 C5519 1.397 . S
C5518 C5523 1.363 . S
C5519 H5490 0.950 . S
C5519 C5518 1.397 . S
C5519 C5520 1.334 . S
C5520 H5491 0.950 . S
C5520 C5519 1.334 . S
C5520 C5521 1.287 . S
C5521 C5520 1.287 . S
C5521 C5522 1.524 . S
C5521 H5524 0.999 . S
C5522 H5492 0.950 . S
C5522 C5521 1.524 . S
C5522 C5523 1.415 . S
C5523 H5493 0.950 . S
C5523 C5518 1.363 . S
C5523 C5522 1.415 . S
H5524 C5521 0.999 . S
H5525 C5506 0.913 . S
H5526 C5544 0.951 . S
H5527 C5546 0.951 . S
H5528 C5548 0.950 . S
H5529 C5549 0.950 . S
H5530 C5551 0.950 . S
H5531 C5554 0.950 . S
H5532 C5555 0.950 . S
H5533 C5557 0.950 . S
H5534 C5558 0.950 . S
H5535 C5559 0.951 . S
H5536 C5561 0.951 . S
H5537 C5563 0.950 . S
H5538 C5564 0.950 . S
H5539 C5566 0.950 . S
H5540 C5569 0.950 . S
H5541 C5570 0.950 . S
H5542 C5572 0.950 . S
H5543 C5573 0.950 . S
C5544 H5526 0.951 . S
C5544 C5545 1.366 . S
C5544 C5546 1.388 . S
C5545 C5544 1.366 . S
C5545 C5549 1.385 . S
C5546 H5527 0.951 . S
C5546 C5544 1.388 . S
C5546 C5547 1.366 . S
C5547 C5546 1.366 . S
C5547 C5548 1.414 . S
C5547 C5550 1.499 . S
C5548 H5528 0.950 . S
C5548 C5547 1.414 . S
C5548 C5549 1.374 . S
C5549 H5529 0.950 . S
C5549 C5545 1.385 . S
C5549 C5548 1.374 . S
C5550 C5547 1.499 . S
C5550 C5551 1.373 . S
C5550 C5552 1.389 . S
C5551 H5530 0.950 . S
C5551 C5550 1.373 . S
C5551 C5567 1.377 . S
C5552 C5550 1.389 . S
C5552 C5553 1.524 . S
C5552 C5566 1.377 . S
C5553 C5552 1.524 . S
C5553 C5554 1.397 . S
C5553 C5558 1.363 . S
C5554 H5531 0.950 . S
C5554 C5553 1.397 . S
C5554 C5555 1.334 . S
C5555 H5532 0.950 . S
C5555 C5554 1.334 . S
C5555 C5556 1.287 . S
C5556 C5555 1.287 . S
C5556 C5557 1.524 . S
C5556 H5575 0.913 . S
C5557 H5533 0.950 . S
C5557 C5556 1.524 . S
C5557 C5558 1.415 . S
C5558 H5534 0.950 . S
C5558 C5553 1.363 . S
C5558 C5557 1.415 . S
C5559 H5535 0.951 . S
C5559 C5560 1.366 . S
C5559 C5561 1.388 . S
C5560 C5559 1.366 . S
C5560 C5564 1.385 . S
C5561 H5536 0.951 . S
C5561 C5559 1.388 . S
C5561 C5562 1.366 . S
C5562 C5561 1.366 . S
C5562 C5563 1.414 . S
C5562 C5565 1.499 . S
C5563 H5537 0.950 . S
C5563 C5562 1.414 . S
C5563 C5564 1.374 . S
C5564 H5538 0.950 . S
C5564 C5560 1.385 . S
C5564 C5563 1.374 . S
C5565 C5562 1.499 . S
C5565 C5566 1.373 . S
C5565 C5567 1.389 . S
C5566 H5539 0.950 . S
C5566 C5552 1.377 . S
C5566 C5565 1.373 . S
C5567 C5551 1.377 . S
C5567 C5565 1.389 . S
C5567 C5568 1.470 1_554 S
C5568 C5567 1.470 1_556 S
C5568 C5569 1.429 . S
C5568 C5573 1.388 . S
C5569 H5540 0.950 . S
C5569 C5568 1.429 . S
C5569 C5570 1.334 . S
C5570 H5541 0.950 . S
C5570 C5569 1.334 . S
C5570 C5571 1.287 . S
C5571 C5570 1.287 . S
C5571 C5572 1.524 . S
C5571 H5574 0.999 . S
C5572 H5542 0.950 . S
C5572 C5571 1.524 . S
C5572 C5573 1.415 . S
C5573 H5543 0.950 . S
C5573 C5568 1.388 . S
C5573 C5572 1.415 . S
H5574 C5571 0.999 . S
H5575 C5556 0.913 . S
H5576 C5594 0.951 . S
H5577 C5596 0.951 . S
H5578 C5598 0.950 . S
H5579 C5599 0.950 . S
H5580 C5601 0.950 . S
H5581 C5604 0.950 . S
H5582 C5605 0.950 . S
H5583 C5607 0.950 . S
H5584 C5608 0.950 . S
H5585 C5609 0.951 . S
H5586 C5611 0.951 . S
H5587 C5613 0.950 . S
H5588 C5614 0.950 . S
H5589 C5616 0.950 . S
H5590 C5619 0.950 . S
H5591 C5620 0.950 . S
H5592 C5622 0.950 . S
H5593 C5623 0.950 . S
C5594 H5576 0.951 . S
C5594 C5595 1.366 . S
C5594 C5596 1.388 . S
C5595 C5594 1.366 . S
C5595 C5599 1.385 . S
C5596 H5577 0.951 . S
C5596 C5594 1.388 . S
C5596 C5597 1.366 . S
C5597 C5596 1.366 . S
C5597 C5598 1.414 . S
C5597 C5600 1.499 . S
C5598 H5578 0.950 . S
C5598 C5597 1.414 . S
C5598 C5599 1.374 . S
C5599 H5579 0.950 . S
C5599 C5595 1.385 . S
C5599 C5598 1.374 . S
C5600 C5597 1.499 . S
C5600 C5601 1.373 . S
C5600 C5602 1.389 . S
C5601 H5580 0.950 . S
C5601 C5600 1.373 . S
C5601 C5617 1.377 . S
C5602 C5600 1.389 . S
C5602 C5603 1.524 . S
C5602 C5616 1.377 . S
C5603 C5602 1.524 . S
C5603 C5604 1.397 . S
C5603 C5608 1.363 . S
C5604 H5581 0.950 . S
C5604 C5603 1.397 . S
C5604 C5605 1.334 . S
C5605 H5582 0.950 . S
C5605 C5604 1.334 . S
C5605 C5606 1.287 . S
C5606 C5605 1.287 . S
C5606 C5607 1.524 . S
C5606 H5625 0.913 . S
C5607 H5583 0.950 . S
C5607 C5606 1.524 . S
C5607 C5608 1.415 . S
C5608 H5584 0.950 . S
C5608 C5603 1.363 . S
C5608 C5607 1.415 . S
C5609 H5585 0.951 . S
C5609 C5610 1.366 . S
C5609 C5611 1.388 . S
C5610 C5609 1.366 . S
C5610 C5614 1.385 . S
C5611 H5586 0.951 . S
C5611 C5609 1.388 . S
C5611 C5612 1.366 . S
C5612 C5611 1.366 . S
C5612 C5613 1.414 . S
C5612 C5615 1.499 . S
C5613 H5587 0.950 . S
C5613 C5612 1.414 . S
C5613 C5614 1.374 . S
C5614 H5588 0.950 . S
C5614 C5610 1.385 . S
C5614 C5613 1.374 . S
C5615 C5612 1.499 . S
C5615 C5616 1.373 . S
C5615 C5617 1.389 . S
C5616 H5589 0.950 . S
C5616 C5602 1.377 . S
C5616 C5615 1.373 . S
C5617 C5601 1.377 . S
C5617 C5615 1.389 . S
C5617 C5618 1.524 . S
C5618 C5617 1.524 . S
C5618 C5619 1.397 . S
C5618 C5623 1.363 . S
C5619 H5590 0.950 . S
C5619 C5618 1.397 . S
C5619 C5620 1.334 . S
C5620 H5591 0.950 . S
C5620 C5619 1.334 . S
C5620 C5621 1.287 . S
C5621 C5620 1.287 . S
C5621 C5622 1.524 . S
C5621 H5624 0.999 . S
C5622 H5592 0.950 . S
C5622 C5621 1.524 . S
C5622 C5623 1.415 . S
C5623 H5593 0.950 . S
C5623 C5618 1.363 . S
C5623 C5622 1.415 . S
H5624 C5621 0.999 . S
H5625 C5606 0.913 . S
H5626 C5644 0.951 1_556 S
H5627 C5646 0.951 1_556 S
H5628 C5648 0.950 . S
H5629 C5649 0.950 . S
H5630 C5651 0.950 . S
H5631 C5654 0.950 . S
H5632 C5655 0.950 . S
H5633 C5657 0.950 1_556 S
H5634 C5658 0.956 . S
H5635 C5659 0.951 . S
H5636 C5661 0.951 . S
H5637 C5663 0.950 . S
H5638 C5664 0.950 . S
H5639 C5666 0.950 . S
H5640 C5669 0.950 . S
H5641 C5670 0.950 . S
H5642 C5672 0.950 . S
H5643 C5673 0.950 . S
C5644 H5626 0.951 1_554 S
C5644 C5645 1.366 . S
C5644 C5646 1.388 . S
C5645 C5644 1.366 . S
C5645 C5649 1.385 . S
C5646 H5627 0.951 1_554 S
C5646 C5644 1.388 . S
C5646 C5647 1.366 . S
C5647 C5646 1.366 . S
C5647 C5648 1.414 . S
C5647 C5650 1.499 . S
C5648 H5628 0.950 . S
C5648 C5647 1.414 . S
C5648 C5649 1.374 . S
C5649 H5629 0.950 . S
C5649 C5645 1.385 . S
C5649 C5648 1.374 . S
C5650 C5647 1.499 . S
C5650 C5651 1.373 . S
C5650 C5652 1.389 . S
C5651 H5630 0.950 . S
C5651 C5650 1.373 . S
C5651 C5667 1.377 . S
C5652 C5650 1.389 . S
C5652 C5653 1.524 . S
C5652 C5666 1.377 . S
C5653 C5652 1.524 . S
C5653 C5654 1.397 . S
C5653 C5658 1.357 1_554 S
C5654 H5631 0.950 . S
C5654 C5653 1.397 . S
C5654 C5655 1.334 . S
C5655 H5632 0.950 . S
C5655 C5654 1.334 . S
C5655 C5656 1.287 . S
C5656 C5655 1.287 . S
C5656 C5657 1.524 . S
C5656 H5675 0.913 . S
C5657 H5633 0.950 1_554 S
C5657 C5656 1.524 . S
C5657 C5658 1.415 1_554 S
C5658 H5634 0.956 . S
C5658 C5653 1.357 1_556 S
C5658 C5657 1.415 1_556 S
C5659 H5635 0.951 . S
C5659 C5660 1.366 . S
C5659 C5661 1.388 . S
C5660 C5659 1.366 . S
C5660 C5664 1.385 1_554 S
C5661 H5636 0.951 . S
C5661 C5659 1.388 . S
C5661 C5662 1.366 . S
C5662 C5661 1.366 . S
C5662 C5663 1.414 1_554 S
C5662 C5665 1.499 . S
C5663 H5637 0.950 . S
C5663 C5662 1.414 1_556 S
C5663 C5664 1.374 . S
C5664 H5638 0.950 . S
C5664 C5660 1.385 1_556 S
C5664 C5663 1.374 . S
C5665 C5662 1.499 . S
C5665 C5666 1.373 . S
C5665 C5667 1.389 . S
C5666 H5639 0.950 . S
C5666 C5652 1.377 . S
C5666 C5665 1.373 . S
C5667 C5651 1.377 . S
C5667 C5665 1.389 . S
C5667 C5668 1.524 . S
C5668 C5667 1.524 . S
C5668 C5669 1.397 1_554 S
C5668 C5673 1.363 . S
C5669 H5640 0.950 . S
C5669 C5668 1.397 1_556 S
C5669 C5670 1.334 . S
C5670 H5641 0.950 . S
C5670 C5669 1.334 . S
C5670 C5671 1.287 1_556 S
C5671 C5670 1.287 1_554 S
C5671 C5672 1.524 . S
C5671 H5674 0.999 . S
C5672 H5642 0.950 . S
C5672 C5671 1.524 . S
C5672 C5673 1.415 . S
C5673 H5643 0.950 . S
C5673 C5668 1.363 . S
C5673 C5672 1.415 . S
H5674 C5671 0.999 . S
H5675 C5656 0.913 . S
H5676 C5694 0.951 . S
H5677 C5696 0.951 . S
H5678 C5698 0.950 . S
H5679 C5699 0.950 . S
H5680 C5701 0.950 . S
H5681 C5704 0.950 . S
H5682 C5705 0.950 . S
H5683 C5707 0.950 . S
H5684 C5708 0.950 . S
H5685 C5709 0.951 . S
H5686 C5711 0.951 . S
H5687 C5713 0.950 . S
H5688 C5714 0.950 . S
H5689 C5716 0.950 . S
H5690 C5719 0.950 . S
H5691 C5720 0.950 . S
H5692 C5722 0.950 . S
H5693 C5723 0.950 . S
C5694 H5676 0.951 . S
C5694 C5695 1.366 . S
C5694 C5696 1.388 . S
C5695 C5694 1.366 . S
C5695 C5699 1.385 . S
C5696 H5677 0.951 . S
C5696 C5694 1.388 . S
C5696 C5697 1.366 . S
C5697 C5696 1.366 . S
C5697 C5698 1.414 . S
C5697 C5700 1.499 . S
C5698 H5678 0.950 . S
C5698 C5697 1.414 . S
C5698 C5699 1.374 . S
C5699 H5679 0.950 . S
C5699 C5695 1.385 . S
C5699 C5698 1.374 . S
C5700 C5697 1.499 . S
C5700 C5701 1.373 . S
C5700 C5702 1.389 . S
C5701 H5680 0.950 . S
C5701 C5700 1.373 . S
C5701 C5717 1.377 . S
C5702 C5700 1.389 . S
C5702 C5703 1.524 . S
C5702 C5716 1.377 . S
C5703 C5702 1.524 . S
C5703 C5704 1.397 . S
C5703 C5708 1.363 . S
C5704 H5681 0.950 . S
C5704 C5703 1.397 . S
C5704 C5705 1.334 . S
C5705 H5682 0.950 . S
C5705 C5704 1.334 . S
C5705 C5706 1.287 . S
C5706 C5705 1.287 . S
C5706 C5707 1.524 . S
C5706 H5725 0.913 . S
C5707 H5683 0.950 . S
C5707 C5706 1.524 . S
C5707 C5708 1.415 . S
C5708 H5684 0.950 . S
C5708 C5703 1.363 . S
C5708 C5707 1.415 . S
C5709 H5685 0.951 . S
C5709 C5710 1.366 . S
C5709 C5711 1.388 . S
C5710 C5709 1.366 . S
C5710 C5714 1.385 . S
C5711 H5686 0.951 . S
C5711 C5709 1.388 . S
C5711 C5712 1.366 . S
C5712 C5711 1.366 . S
C5712 C5713 1.414 . S
C5712 C5715 1.499 . S
C5713 H5687 0.950 . S
C5713 C5712 1.414 . S
C5713 C5714 1.374 . S
C5714 H5688 0.950 . S
C5714 C5710 1.385 . S
C5714 C5713 1.374 . S
C5715 C5712 1.499 . S
C5715 C5716 1.373 . S
C5715 C5717 1.389 . S
C5716 H5689 0.950 . S
C5716 C5702 1.377 . S
C5716 C5715 1.373 . S
C5717 C5701 1.377 . S
C5717 C5715 1.389 . S
C5717 C5718 1.524 . S
C5718 C5717 1.524 . S
C5718 C5719 1.397 . S
C5718 C5723 1.363 . S
C5719 H5690 0.950 . S
C5719 C5718 1.397 . S
C5719 C5720 1.334 . S
C5720 H5691 0.950 . S
C5720 C5719 1.334 . S
C5720 C5721 1.287 . S
C5721 C5720 1.287 . S
C5721 C5722 1.524 . S
C5721 H5724 0.999 . S
C5722 H5692 0.950 . S
C5722 C5721 1.524 . S
C5722 C5723 1.415 . S
C5723 H5693 0.950 . S
C5723 C5718 1.363 . S
C5723 C5722 1.415 . S
H5724 C5721 0.999 . S
H5725 C5706 0.913 . S
H5726 C5744 0.951 . S
H5727 C5746 0.951 . S
H5728 C5748 0.950 . S
H5729 C5749 0.950 . S
H5730 C5751 0.950 . S
H5731 C5754 0.950 . S
H5732 C5755 0.950 . S
H5733 C5757 0.950 . S
H5734 C5758 0.950 . S
H5735 C5759 0.951 . S
H5736 C5761 0.951 . S
H5737 C5763 0.950 . S
H5738 C5764 0.950 . S
H5739 C5766 0.950 . S
H5740 C5769 0.950 . S
H5741 C5770 0.950 . S
H5742 C5772 0.950 . S
H5743 C5773 0.950 . S
C5744 H5726 0.951 . S
C5744 C5745 1.366 . S
C5744 C5746 1.388 . S
C5745 C5744 1.366 . S
C5745 C5749 1.385 . S
C5746 H5727 0.951 . S
C5746 C5744 1.388 . S
C5746 C5747 1.366 . S
C5747 C5746 1.366 . S
C5747 C5748 1.414 . S
C5747 C5750 1.499 . S
C5748 H5728 0.950 . S
C5748 C5747 1.414 . S
C5748 C5749 1.374 . S
C5749 H5729 0.950 . S
C5749 C5745 1.385 . S
C5749 C5748 1.374 . S
C5750 C5747 1.499 . S
C5750 C5751 1.373 . S
C5750 C5752 1.389 . S
C5751 H5730 0.950 . S
C5751 C5750 1.373 . S
C5751 C5767 1.377 . S
C5752 C5750 1.389 . S
C5752 C5753 1.524 . S
C5752 C5766 1.377 . S
C5753 C5752 1.524 . S
C5753 C5754 1.397 . S
C5753 C5758 1.363 . S
C5754 H5731 0.950 . S
C5754 C5753 1.397 . S
C5754 C5755 1.334 . S
C5755 H5732 0.950 . S
C5755 C5754 1.334 . S
C5755 C5756 1.287 . S
C5756 C5755 1.287 . S
C5756 C5757 1.524 . S
C5756 H5775 0.913 . S
C5757 H5733 0.950 . S
C5757 C5756 1.524 . S
C5757 C5758 1.415 . S
C5758 H5734 0.950 . S
C5758 C5753 1.363 . S
C5758 C5757 1.415 . S
C5759 H5735 0.951 . S
C5759 C5760 1.366 . S
C5759 C5761 1.388 . S
C5760 C5759 1.366 . S
C5760 C5764 1.385 . S
C5761 H5736 0.951 . S
C5761 C5759 1.388 . S
C5761 C5762 1.366 . S
C5762 C5761 1.366 . S
C5762 C5763 1.414 . S
C5762 C5765 1.499 . S
C5763 H5737 0.950 . S
C5763 C5762 1.414 . S
C5763 C5764 1.374 . S
C5764 H5738 0.950 . S
C5764 C5760 1.385 . S
C5764 C5763 1.374 . S
C5765 C5762 1.499 . S
C5765 C5766 1.373 . S
C5765 C5767 1.389 . S
C5766 H5739 0.950 . S
C5766 C5752 1.377 . S
C5766 C5765 1.373 . S
C5767 C5751 1.377 . S
C5767 C5765 1.389 . S
C5767 C5768 1.524 . S
C5768 C5767 1.524 . S
C5768 C5769 1.397 . S
C5768 C5773 1.363 . S
C5769 H5740 0.950 . S
C5769 C5768 1.397 . S
C5769 C5770 1.334 . S
C5770 H5741 0.950 . S
C5770 C5769 1.334 . S
C5770 C5771 1.287 . S
C5771 C5770 1.287 . S
C5771 C5772 1.524 . S
C5771 H5774 0.999 . S
C5772 H5742 0.950 . S
C5772 C5771 1.524 . S
C5772 C5773 1.415 . S
C5773 H5743 0.950 . S
C5773 C5768 1.363 . S
C5773 C5772 1.415 . S
H5774 C5771 0.999 . S
H5775 C5756 0.913 . S
C995 C111 1.913 . S
C1010 C367 1.906 . S
C1045 C64 1.693 . S
C1060 C378 1.755 . S
C1095 C77 1.403 . S
C1110 C447 1.382 . S
C1160 C460 1.013 . S
C1145 C95 1.018 . S
C1195 C25 2.276 . S
C1210 C516 2.261 . S
C1260 C567 1.916 . S
C1245 C36 1.908 . S
C1310 C596 2.394 . S
C1295 C50 2.337 . S
C1345 C11 2.238 . S
C1360 C647 2.201 . S
C1410 C338 0.980 . S
C1395 C237 0.940 . S
C1445 C245 0.736 . S
C1460 C380 0.738 . S
C1510 C418 0.928 . S
C1495 C279 0.893 . S
C1560 C487 1.407 . S
C1545 C175 1.405 . S
C1595 C231 0.352 . S
C1610 C521 0.375 . S
C1660 C538 1.259 . S
C1645 C251 1.185 . S
C1710 C601 0.273 . S
C1695 C273 0.224 . S
C1760 C618 1.944 . S
C1745 C181 1.897 . S
C1810 C340 1.338 . S
C1795 C165 1.406 1_554 S
C1845 C288 1.561 . S
C1860 C679 1.572 . S
C1910 C700 1.144 . S
C1895 C333 1.206 . S
C1960 C759 0.262 . S
C1945 C316 0.428 . S
C1995 C123 0.721 . S
C2010 C620 0.724 . S
C2045 C137 1.238 . S
C2060 C420 1.207 . S
C2095 C330 0.826 . S
C2110 C778 0.845 . S
C2160 C847 0.914 . S
C2145 C302 0.909 . S
C2210 C356 2.075 . S
C2195 C63 2.095 . S
C2260 C839 1.807 . S
C2245 C106 1.808 . S
C2295 C97 1.447 . S
C2310 C436 1.501 . S
C2345 C81 1.089 . S
C2360 C801 1.086 . S
C2410 C527 2.446 . S
C2395 C13 2.376 . S
C2445 C55 1.814 . S
C2460 C716 1.934 . S
C2510 C607 2.405 1_556 S
C2495 C35 2.406 . S
C2560 C876 2.429 . S
C2545 C21 2.472 1_655 S
C2610 C359 1.124 . S
C2595 C147 1.130 . S
C2660 C841 0.763 . S
C2645 C321 0.760 . S
C2695 C119 1.008 . S
C2710 C439 1.000 . S
C2745 C293 1.516 . S
C2760 C796 1.601 . S
C2795 C153 0.575 . S
C2810 C500 0.484 . S
C2860 C719 1.359 . S
C2845 C315 1.366 . S
C2895 C125 0.467 . S
C2910 C580 0.250 . S
C2945 C287 2.133 . S
C2960 C879 2.094 . S
C2995 C193 1.404 . S
C3010 C361 1.383 . S
C3045 C176 1.604 . S
C3060 C658 1.598 . S
C3095 C263 1.148 . S
C3110 C561 1.132 . S
C3145 C246 0.484 . S
C3160 C738 0.396 . S
C3210 C881 0.770 . S
C3195 C277 0.770 . S
C3245 C221 1.245 . S
C3260 C441 1.233 . S
C3310 C479 0.933 . S
C3295 C260 0.928 . S
C3360 C396 1.032 . S
C3345 C204 1.027 . S
C3395 C83 1.913 . S
C3410 C927 1.910 . S
C3460 C818 1.755 . S
C3445 C92 1.692 . S
C3495 C105 1.402 . S
C3510 C967 1.383 . S
C3545 C67 1.018 . S
C3560 C780 1.013 . S
C3595 C53 2.277 . S
C3610 C676 2.261 . S
C3660 C727 1.917 . S
C3645 C8 1.908 1_655 S
C3710 C756 2.394 . S
C3695 C22 2.337 . S
C3760 C887 2.201 . S
C3745 C39 2.238 . S
C3810 C898 0.979 . S
C3795 C265 0.942 . S
C3845 C189 0.736 . S
C3860 C820 0.738 . S
C3910 C938 0.927 . S
C3895 C209 0.894 . S
C3960 C807 1.406 . S
C3945 C217 1.405 . S
C4010 C681 0.373 . S
C3995 C259 0.350 . S
C4045 C195 1.185 . S
C4060 C698 1.258 . S
C4110 C761 0.271 . S
C4095 C203 0.222 . S
C4145 C223 1.897 . S
C4160 C858 1.944 . S
C4210 C900 1.340 . S
C4195 C319 1.406 . S
C4245 C134 1.561 . S
C4260 C519 1.573 . S
C4310 C540 1.144 . S
C4295 C151 1.206 1_565 S
C4360 C599 0.259 . S
C4345 C162 0.430 . S
C4410 C860 0.726 . S
C4395 C305 0.721 . S
C4445 C291 1.239 . S
C4460 C940 1.207 . S
C4510 C458 0.845 . S
C4495 C148 0.826 . S
C4560 C407 0.914 . S
C4545 C120 0.909 . S
C4595 C91 2.095 . S
C4610 C916 2.075 . S
C4660 C399 1.807 . S
C4645 C78 1.802 . S
C4695 C69 1.446 . S
C4710 C956 1.500 . S
C4745 C109 1.090 . S
C4760 C481 1.079 . S
C4795 C41 2.376 . S
C4810 C687 2.446 1_556 S
C4860 C556 1.934 . S
C4845 C27 1.814 . S
C4895 C7 2.406 . S
C4910 C767 2.404 . S
C4945 C49 2.472 . S
C4960 C636 2.429 . S
C5010 C919 1.124 . S
C4995 C329 1.130 . S
C5045 C167 0.760 . S
C5060 C401 0.762 . S
C5110 C959 1.001 . S
C5095 C301 1.008 . S
C5145 C139 1.516 . S
C5160 C476 1.601 . S
C5195 C335 0.576 . S
C5210 C660 0.485 . S
C5260 C559 1.360 . S
C5245 C161 1.365 . S
C5295 C307 0.468 . S
C5310 C740 0.250 . S
C5360 C639 2.094 . S
C5345 C133 2.133 . S
C5410 C921 1.384 . S
C5395 C249 1.404 . S
C5460 C498 1.592 1_565 S
C5445 C218 1.604 . S
C5495 C235 1.147 . S
C5510 C721 1.130 . S
C5560 C578 0.396 . S
C5545 C190 0.484 . S
C5595 C207 0.768 . S
C5610 C641 0.768 . S
C5645 C179 1.244 . S
C5660 C961 1.233 . S
C5710 C799 0.933 . S
C5695 C232 0.928 . S
C5760 C836 1.033 . S
C5745 C274 1.026 . S
