# Generated by pormake.
# Topology anh, (6,3)-cn, num edge types: 1
# Building blocks:
#     Node 0, Type 0, BuildingBlock: CUWYAW_clean_sbu_0, # of connection points: 6
#     Node 1, Type 0, BuildingBlock: CUWYAW_clean_sbu_0, # of connection points: 6
#     Node 2, Type 0, BuildingBlock: CUWYAW_clean_sbu_0, # of connection points: 6
#     Node 3, Type 1, BuildingBlock: WUSLED_clean_sbu_0, # of connection points: 3
#     Node 4, Type 1, BuildingBlock: WUSLED_clean_sbu_0, # of connection points: 3
#     Node 5, Type 1, BuildingBlock: WUSLED_clean_sbu_0, # of connection points: 3
#     Node 6, Type 1, BuildingBlock: WUSLED_clean_sbu_0, # of connection points: 3
#     Node 7, Type 1, BuildingBlock: WUSLED_clean_sbu_0, # of connection points: 3
#     Node 8, Type 1, BuildingBlock: WUSLED_clean_sbu_0, # of connection points: 3
#     Edge 9, Type (0, 1), BuildingBlock: EZIPEK_clean_linker_0, # of connection points: 2
#     Edge 10, Type (0, 1), BuildingBlock: EZIPEK_clean_linker_0, # of connection points: 2
#     Edge 11, Type (0, 1), BuildingBlock: EZIPEK_clean_linker_0, # of connection points: 2
#     Edge 12, Type (0, 1), BuildingBlock: EZIPEK_clean_linker_0, # of connection points: 2
#     Edge 13, Type (0, 1), BuildingBlock: EZIPEK_clean_linker_0, # of connection points: 2
#     Edge 14, Type (0, 1), BuildingBlock: EZIPEK_clean_linker_0, # of connection points: 2
#     Edge 15, Type (0, 1), BuildingBlock: EZIPEK_clean_linker_0, # of connection points: 2
#     Edge 16, Type (0, 1), BuildingBlock: EZIPEK_clean_linker_0, # of connection points: 2
#     Edge 17, Type (0, 1), BuildingBlock: EZIPEK_clean_linker_0, # of connection points: 2
#     Edge 18, Type (0, 1), BuildingBlock: EZIPEK_clean_linker_0, # of connection points: 2
#     Edge 19, Type (0, 1), BuildingBlock: EZIPEK_clean_linker_0, # of connection points: 2
#     Edge 20, Type (0, 1), BuildingBlock: EZIPEK_clean_linker_0, # of connection points: 2
#     Edge 21, Type (0, 1), BuildingBlock: EZIPEK_clean_linker_0, # of connection points: 2
#     Edge 22, Type (0, 1), BuildingBlock: EZIPEK_clean_linker_0, # of connection points: 2
#     Edge 23, Type (0, 1), BuildingBlock: EZIPEK_clean_linker_0, # of connection points: 2
#     Edge 24, Type (0, 1), BuildingBlock: EZIPEK_clean_linker_0, # of connection points: 2
#     Edge 25, Type (0, 1), BuildingBlock: EZIPEK_clean_linker_0, # of connection points: 2
#     Edge 26, Type (0, 1), BuildingBlock: EZIPEK_clean_linker_0, # of connection points: 2
# Relax obj value: 0.274
# Max RMSD: 0.186
# Mean RMSD: 0.155
data_MOF--net-anh--node1-CUWYAW_clean_sbu_0--node2-WUSLED_clean_sbu_0--edge1-EZIPEK_clean_linker_0
_symmetry_space_group_name_H-M    P1
_symmetry_Int_Tables_number       1
_symmetry_cell_setting            triclinic
loop_
_symmetry_equiv_pos_as_xyz
'x, y, z'
_cell_length_a     30.882374
_cell_length_b     31.190017
_cell_length_c     55.57132
_cell_angle_alpha  89.941134
_cell_angle_beta   89.851895
_cell_angle_gamma 119.49674
loop_
_atom_site_label
_atom_site_type_symbol
_atom_site_fract_x
_atom_site_fract_y
_atom_site_fract_z
_atom_type_partial_charge
C0 C 1.05848 0.43057 0.18644 0.0
Eu1 Eu 1.11492 0.52498 0.18903 0.0
C2 C 1.01216 0.4047 0.17281 0.0
C3 C 0.96957 0.36808 0.18432 0.0
C4 C 0.92268 0.35505 0.17525 0.0
C5 C 0.91818 0.37854 0.15462 0.0
C6 C 0.96062 0.41158 0.14179 0.0
C7 C 1.00754 0.42475 0.15087 0.0
C8 C 0.15089 0.57099 0.23233 0.0
C9 C 1.04195 0.57332 0.17971 0.0
C10 C 0.19783 0.72265 0.18806 0.0
Eu11 Eu 0.16144 0.62827 0.18455 0.0
C12 C 0.24485 0.76617 0.18108 0.0
C13 C 0.24874 0.79126 0.15937 0.0
C14 C 0.29358 0.83279 0.15296 0.0
C15 C 0.33442 0.8497 0.1684 0.0
C16 C 0.33073 0.82429 0.18981 0.0
C17 C 0.2864 0.78298 0.19613 0.0
C18 C 0.15478 0.58384 0.14145 0.0
C19 C 0.23471 0.58211 0.18161 0.0
O20 O 1.09913 0.45451 0.17366 0.0
O21 O 1.05626 0.45667 0.20432 0.0
O22 O 0.15662 0.53558 0.22389 0.0
O23 O 0.12704 0.58164 0.2172 0.0
O24 O 1.04496 0.53231 0.18097 0.0
O25 O 1.08267 0.61616 0.18219 0.0
O26 O 0.2 0.69534 0.20545 0.0
O27 O 0.16897 0.69662 0.17045 0.0
O28 O 0.19308 0.6244 0.14832 0.0
O29 O 1.12115 0.56949 0.15721 0.0
O30 O 0.23168 0.62084 0.18927 0.0
O31 O 0.19285 0.54075 0.17733 0.0
H32 H 0.97241 0.35284 0.2014 0.0
H33 H 0.88991 0.3295 0.18532 0.0
H34 H 0.95741 0.42972 0.12581 0.0
H35 H 1.03989 0.45368 0.14182 0.0
H36 H 0.21709 0.77906 0.14749 0.0
H37 H 0.29607 0.85237 0.13645 0.0
H38 H 0.36211 0.83726 0.20195 0.0
H39 H 0.2847 0.76463 0.21295 0.0
C40 C 0.58642 0.18243 0.51191 0.0
Eu41 Eu 0.63027 0.13054 0.51917 0.0
C42 C 0.60641 0.234 0.50414 0.0
C43 C 0.62638 0.27161 0.52136 0.0
C44 C 0.6561 0.32017 0.51419 0.0
C45 C 0.66615 0.33211 0.48973 0.0
C46 C 0.64251 0.29558 0.47229 0.0
C47 C 0.61215 0.24662 0.4795 0.0
C48 C 0.64537 0.1043 0.56394 0.0
C49 C 0.75392 0.20544 0.51392 0.0
C50 C 0.73427 1.03402 0.52836 0.0
Eu51 Eu 0.69319 0.08705 0.5181 0.0
C52 C 0.71637 0.98113 0.52713 0.0
C53 C 0.74884 0.96409 0.5202 0.0
C54 C 0.73122 0.9136 0.51816 0.0
C55 C 0.68095 0.88007 0.52277 0.0
C56 C 0.64826 0.89708 0.52917 0.0
C57 C 0.66604 0.94741 0.53146 0.0
C58 C 0.68073 0.11418 0.47396 0.0
C59 C 0.5699 1.01207 0.51173 0.0
O60 O 0.58767 0.15243 0.49592 0.0
O61 O 0.60058 0.17597 0.53312 0.0
O62 O 0.60244 0.09511 0.5557 0.0
O63 O 0.6786 0.12588 0.54794 0.0
O64 O 0.7085 0.20029 0.51247 0.0
O65 O 0.75842 0.16626 0.51881 0.0
O66 O 0.713 1.04818 0.54452 0.0
O67 O 0.73943 1.05548 0.50757 0.0
O68 O 0.72162 0.1164 0.48121 0.0
O69 O 0.64663 0.09371 0.48954 0.0
O70 O 0.61478 1.01621 0.51441 0.0
O71 O 0.56611 1.0525 0.51245 0.0
H72 H 0.6217 0.26334 0.54044 0.0
H73 H 0.67354 0.34831 0.52786 0.0
H74 H 0.64936 0.30453 0.45333 0.0
H75 H 0.59586 0.21839 0.46583 0.0
H76 H 0.78769 0.98974 0.51654 0.0
H77 H 0.75684 0.9006 0.51345 0.0
H78 H 0.60954 0.87142 0.53313 0.0
H79 H 0.64073 0.96003 0.5369 0.0
C80 C 0.81103 0.67013 0.84132 0.0
Eu81 Eu 0.71673 0.61782 0.85063 0.0
C82 C 0.84526 0.65419 0.83158 0.0
C83 C 0.87619 0.64729 0.84763 0.0
C84 C 0.89532 0.61677 0.84142 0.0
C85 C 0.88516 0.59384 0.81879 0.0
C86 C 0.86107 0.60702 0.80135 0.0
C87 C 0.84033 0.6364 0.80784 0.0
C88 C 0.67314 0.58882 0.89482 0.0
C89 C 0.6657 0.49884 0.84553 0.0
C90 C 0.51421 0.51462 0.85398 0.0
Eu91 Eu 0.6095 0.56519 0.84754 0.0
C92 C 0.47663 0.52861 0.8488 0.0
C93 C 0.42833 0.50055 0.85781 0.0
C94 C 0.3939 0.5166 0.85436 0.0
C95 C 0.40782 0.56087 0.84204 0.0
C96 C 0.45596 0.58862 0.83276 0.0
C97 C 0.49016 0.57233 0.836 0.0
C98 C 0.65433 0.59399 0.80408 0.0
C99 C 0.6597 0.68437 0.84488 0.0
O100 O 0.77666 0.66752 0.8267 0.0
O101 O 0.79339 0.65314 0.86281 0.0
O102 O 0.71273 0.58763 0.888 0.0
O103 O 0.65897 0.60694 0.87815 0.0
O104 O 0.70723 0.54131 0.84187 0.0
O105 O 0.62435 0.49959 0.8514 0.0
O106 O 0.54516 0.54019 0.8711 0.0
O107 O 0.53656 0.50962 0.83507 0.0
O108 O 0.61325 0.59343 0.80961 0.0
O109 O 0.66748 0.57623 0.82107 0.0
O110 O 0.61734 0.64201 0.84471 0.0
O111 O 0.70205 0.68374 0.84791 0.0
H112 H 0.88147 0.66139 0.86584 0.0
H113 H 0.91484 0.60804 0.85505 0.0
H114 H 0.85465 0.59129 0.78348 0.0
H115 H 0.81745 0.64195 0.79484 0.0
H116 H 0.41761 0.46695 0.86782 0.0
H117 H 0.3567 0.49511 0.8617 0.0
H118 H 0.46705 0.62295 0.82335 0.0
H119 H 0.52739 0.59426 0.82888 0.0
C120 C 0.67415 0.23378 0.20794 0.0
C121 C 0.72385 0.26677 0.21347 0.0
C122 C 0.73313 0.30833 0.17529 0.0
C123 C 0.75323 0.30339 0.19713 0.0
C124 C 0.68187 0.27942 0.17125 0.0
C125 C 0.65257 0.24159 0.18739 0.0
U126 U 0.6445 0.15177 0.2641 0.0
O127 O 0.63893 0.0789 0.26633 0.0
O128 O 0.57335 0.08681 0.27396 0.0
C129 C 0.59023 1.05676 0.26826 0.0
C130 C 0.64764 0.18708 0.22097 0.0
C131 C 0.56381 1.02408 0.24823 0.0
C132 C 0.55075 1.01682 0.20502 0.0
C133 C 0.58079 1.04045 0.22466 0.0
C134 C 0.48777 0.95775 0.2321 0.0
C135 C 0.50366 0.97621 0.20872 0.0
C136 C 0.51773 0.98181 0.25187 0.0
C137 C 0.69136 0.18832 0.32564 0.0
C138 C 0.64746 0.1271 0.35666 0.0
C139 C 0.72642 0.19977 0.36556 0.0
C140 C 0.72956 0.21621 0.34187 0.0
C141 C 0.68494 0.1555 0.3731 0.0
C142 C 0.65089 0.14318 0.33301 0.0
C143 C 0.69289 0.20527 0.30094 0.0
O144 O 0.67561 0.16835 0.2278 0.0
O145 O 0.61534 0.18354 0.23739 0.0
O146 O 0.6505 0.20105 0.29357 0.0
O147 O 0.71346 0.1891 0.28526 0.0
H148 H 0.74101 0.26172 0.22941 0.0
H149 H 0.79266 0.32557 0.20081 0.0
H150 H 0.66538 0.28372 0.15489 0.0
H151 H 0.61397 0.21655 0.18305 0.0
H152 H 0.56308 1.03165 0.1871 0.0
H153 H 0.61605 1.07339 0.22147 0.0
H154 H 0.45104 0.92648 0.2351 0.0
H155 H 0.50383 0.96923 0.2699 0.0
H156 H 0.61514 0.09309 0.36229 0.0
H157 H 0.75549 0.22214 0.37821 0.0
H158 H 0.76122 0.25081 0.33635 0.0
H159 H 0.62136 0.12083 0.32057 0.0
C160 C 0.66441 0.60791 0.53764 0.0
C161 C 0.62332 0.60852 0.54818 0.0
C162 C 0.64122 0.68038 0.52433 0.0
C163 C 0.61123 0.64436 0.54123 0.0
C164 C 0.67742 0.67523 0.51145 0.0
C165 C 0.68875 0.6388 0.51799 0.0
U166 U 0.71469 0.58133 0.59473 0.0
O167 O 0.72491 0.51843 0.60433 0.0
O168 O 0.78986 0.59229 0.60081 0.0
C169 C 0.77324 0.54454 0.60051 0.0
C170 C 0.6898 0.5851 0.55001 0.0
C171 C 0.791 0.52674 0.58019 0.0
C172 C 0.81145 0.53856 0.53742 0.0
C173 C 0.81448 0.55815 0.56033 0.0
C174 C 0.76787 0.45632 0.55437 0.0
C175 C 0.78483 0.48753 0.53419 0.0
C176 C 0.77123 0.47583 0.57729 0.0
C177 C 0.69418 0.62117 0.65594 0.0
C178 C 0.71848 0.59609 0.69248 0.0
C179 C 0.69337 0.65809 0.69408 0.0
C180 C 0.68515 0.65378 0.66929 0.0
C181 C 0.71273 0.63119 0.70627 0.0
C182 C 0.7105 0.59206 0.66766 0.0
C183 C 0.68549 0.61694 0.62991 0.0
O184 O 0.7324 0.61742 0.5595 0.0
O185 O 0.66291 0.54764 0.56437 0.0
O186 O 0.65874 0.57167 0.62185 0.0
O187 O 0.72496 0.64435 0.61664 0.0
H188 H 0.60393 0.58489 0.56334 0.0
H189 H 0.58302 0.64797 0.55123 0.0
H190 H 0.70064 0.70267 0.49827 0.0
H191 H 0.72032 0.63854 0.50958 0.0
H192 H 0.82528 0.56303 0.52202 0.0
H193 H 0.83048 0.59769 0.56188 0.0
H194 H 0.74789 0.41668 0.55213 0.0
H195 H 0.75312 0.45085 0.59221 0.0
H196 H 0.72741 0.56994 0.70041 0.0
H197 H 0.68256 0.68162 0.70348 0.0
H198 H 0.67093 0.67544 0.66061 0.0
H199 H 0.71618 0.56541 0.65766 0.0
C200 C 0.92938 0.44521 0.91365 0.0
C201 C 0.90462 0.47229 0.91044 0.0
C202 C 0.90791 0.46408 0.86709 0.0
C203 C 0.89408 0.48178 0.88725 0.0
C204 C 0.92677 0.43194 0.8703 0.0
C205 C 0.93732 0.4224 0.89347 0.0
U206 U 1.05596 0.48851 0.92969 0.0
O207 O 1.08039 0.53257 0.89649 0.0
O208 O 1.06911 0.45735 0.89693 0.0
C209 C 1.08628 0.49905 0.88498 0.0
C210 C 0.96148 0.45542 0.9349 0.0
C211 C 0.13504 0.51745 0.87344 0.0
C212 C 0.20068 0.57791 0.84783 0.0
C213 C 0.15273 0.5576 0.85746 0.0
C214 C 0.2128 0.51699 0.86945 0.0
C215 C 0.23081 0.55765 0.85395 0.0
C216 C 0.16536 0.49708 0.87921 0.0
C217 C 0.12179 0.52064 0.99053 0.0
C218 C 0.16797 0.54217 0.02788 0.0
C219 C 1.08202 0.52418 0.02759 0.0
C220 C 1.07975 0.51549 1.00285 0.0
C221 C 0.12632 0.53801 0.04013 0.0
C222 C 0.16572 0.53361 1.00316 0.0
C223 C 0.12157 0.51606 0.96435 0.0
O224 O 0.99411 0.50249 0.93726 0.0
O225 O 0.98112 0.42659 0.93764 0.0
O226 O 1.11141 0.54659 0.95259 0.0
O227 O 1.09862 0.47093 0.95577 0.0
H228 H 0.89865 0.49073 0.92555 0.0
H229 H 0.87907 0.50646 0.88496 0.0
H230 H 0.93732 0.41781 0.8549 0.0
H231 H 0.95668 0.40155 0.89522 0.0
H232 H 0.21444 0.60945 0.83591 0.0
H233 H 0.12982 0.57381 0.85286 0.0
H234 H 0.23595 0.50116 0.8743 0.0
H235 H 0.15294 0.46637 0.89159 0.0
H236 H 0.2023 0.55266 0.03742 0.0
H237 H 1.04958 0.52064 0.03692 0.0
H238 H 1.04563 0.50567 0.99324 0.0
H239 H 0.1985 0.53795 0.99383 0.0
C240 C 1.03781 0.48402 0.4848 0.0
C241 C 0.99349 0.47549 0.47322 0.0
C242 C 0.94317 0.39468 0.49366 0.0
C243 C 0.9473 0.43159 0.47741 0.0
C244 C 0.98749 0.40323 0.5051 0.0
C245 C 1.03357 0.4467 0.50075 0.0
U246 U 0.16516 0.60978 0.46232 0.0
O247 O 0.19665 0.68175 0.48152 0.0
O248 O 0.23732 0.6413 0.4818 0.0
C249 C 0.23725 0.68167 0.48851 0.0
C250 C 1.087 0.53289 0.48328 0.0
C251 C 0.28646 0.73022 0.48933 0.0
C252 C 0.34798 0.80015 0.51369 0.0
C253 C 0.30204 0.75582 0.51137 0.0
C254 C 0.3654 0.79576 0.47182 0.0
C255 C 0.38086 0.8213 0.49403 0.0
C256 C 0.31914 0.75107 0.46951 0.0
C257 C 0.16822 0.60908 0.38887 0.0
C258 C 0.20021 0.6332 0.34796 0.0
C259 C 1.12026 0.56183 0.3541 0.0
C260 C 0.1249 0.57007 0.37921 0.0
C261 C 0.16017 0.59027 0.33785 0.0
C262 C 0.20487 0.64147 0.37286 0.0
C263 C 0.1767 0.61902 0.41517 0.0
O264 O 0.1291 0.53384 0.47814 0.0
O265 O 1.08763 0.57374 0.47669 0.0
O266 O 0.15122 0.63526 0.42741 0.0
O267 O 0.19289 0.59478 0.42832 0.0
H268 H 0.99427 0.50306 0.46111 0.0
H269 H 0.91446 0.42674 0.46808 0.0
H270 H 0.98647 0.37618 0.51766 0.0
H271 H 1.06609 0.45168 0.51045 0.0
H272 H 0.35797 0.81801 0.53108 0.0
H273 H 0.27853 0.74118 0.52714 0.0
H274 H 0.38933 0.81032 0.45619 0.0
H275 H 0.3091 0.73276 0.45224 0.0
H276 H 0.22863 0.66141 0.33678 0.0
H277 H 1.08439 0.53374 0.34801 0.0
H278 H 1.09442 0.54627 0.39099 0.0
H279 H 0.2375 0.67376 0.37965 0.0
C280 C 0.65589 0.96536 0.81991 0.0
C281 C 0.66418 0.94124 0.80041 0.0
C282 C 0.656 0.87295 0.82666 0.0
C283 C 0.66401 0.89578 0.80372 0.0
C284 C 0.64767 0.89735 0.84598 0.0
C285 C 0.64746 0.94227 0.84265 0.0
U286 U 0.65931 0.0909 0.79458 0.0
O287 O 0.61921 0.12508 0.8127 0.0
O288 O 0.70032 0.1646 0.81198 0.0
C289 C 0.65996 0.16521 0.81908 0.0
C290 C 0.65701 1.0147 0.81807 0.0
C291 C 0.65986 0.21397 0.82102 0.0
C292 C 0.64272 0.26967 0.84598 0.0
C293 C 0.64138 0.2241 0.84228 0.0
C294 C 0.68086 0.29741 0.80706 0.0
C295 C 0.66265 0.30747 0.82854 0.0
C296 C 0.6797 0.25159 0.80339 0.0
C297 C 0.66018 0.09382 0.72025 0.0
C298 C 0.62277 0.09847 0.68222 0.0
C299 C 0.69868 0.09397 0.68159 0.0
C300 C 0.69854 0.09277 0.70694 0.0
C301 C 0.66099 0.09724 0.66893 0.0
C302 C 0.62217 0.09642 0.70753 0.0
C303 C 0.65999 0.09275 0.7472 0.0
O304 O 0.69817 1.0545 0.81158 0.0
O305 O 0.61705 1.01637 0.81139 0.0
O306 O 0.61866 1.07385 0.75993 0.0
O307 O 0.70099 0.11047 0.75999 0.0
H308 H 0.67099 0.95754 0.78262 0.0
H309 H 0.67056 0.87853 0.78829 0.0
H310 H 0.64149 0.88166 0.86389 0.0
H311 H 0.64107 0.95943 0.85817 0.0
H312 H 0.62825 0.27551 0.86268 0.0
H313 H 0.62619 0.19659 0.85642 0.0
H314 H 0.69635 0.32525 0.7931 0.0
H315 H 0.69458 0.24575 0.78682 0.0
H316 H 0.59317 0.10078 0.67295 0.0
H317 H 0.72841 0.09265 0.67183 0.0
H318 H 0.72827 0.09057 0.71613 0.0
H319 H 0.59218 0.09747 0.71717 0.0
C320 C 0.76181 0.57683 0.15073 0.0
C321 C 0.79885 0.5936 0.13266 0.0
C322 C 0.85371 0.57522 0.15798 0.0
C323 C 0.84404 0.59273 0.13623 0.0
C324 C 0.81635 0.55824 0.17581 0.0
C325 C 0.77149 0.55905 0.17225 0.0
U326 U 0.64062 0.58178 0.12479 0.0
O327 O 0.56573 0.54147 0.14195 0.0
O328 O 0.60648 0.62194 0.14257 0.0
C329 C 0.56589 0.58168 0.14917 0.0
C330 C 0.71397 0.57909 0.14892 0.0
C331 C 0.51724 0.58214 0.15187 0.0
C332 C 0.45064 0.57492 0.17902 0.0
C333 C 0.49532 0.57399 0.17492 0.0
C334 C 0.44735 0.59188 0.13696 0.0
C335 C 0.42554 0.58376 0.16019 0.0
C336 C 0.49259 0.59127 0.13287 0.0
C337 C 0.64275 0.58355 0.05061 0.0
C338 C 0.629 0.61294 0.01207 0.0
C339 C 0.6626 0.55742 0.01262 0.0
C340 C 0.65985 0.55575 0.03791 0.0
C341 C 0.64729 0.58608 0.99935 0.0
C342 C 0.62744 0.61224 0.0374 0.0
C343 C 0.64177 0.58326 0.07747 0.0
O344 O 0.71522 0.62004 0.14201 0.0
O345 O 0.67276 0.53965 0.14239 0.0
O346 O 0.62214 0.5421 0.08999 0.0
O347 O 0.66068 0.62378 0.09038 0.0
H348 H 0.79311 0.60777 0.11589 0.0
H349 H 0.87177 0.60627 0.12205 0.0
H350 H 0.82211 0.54467 0.19277 0.0
H351 H 0.74429 0.54622 0.18668 0.0
H352 H 0.4355 0.56858 0.1971 0.0
H353 H 0.51309 0.56703 0.19004 0.0
H354 H 0.42935 0.59877 0.12193 0.0
H355 H 0.5082 0.59792 0.11489 0.0
H356 H 0.61677 0.63518 1.00236 0.0
H357 H 0.67675 0.5363 1.00335 0.0
H358 H 0.67201 0.53342 0.04759 0.0
H359 H 0.61397 0.63392 0.04668 0.0
C360 C 0.32563 0.62569 0.16518 0.0
C361 C 0.28504 0.58452 0.17693 0.0
C362 C 0.33431 0.54107 0.17434 0.0
C363 C 0.37663 0.58391 0.16514 0.0
N364 N 0.41451 0.67079 0.15672 0.0
N365 N 0.25871 0.508 0.1982 0.0
C366 C 0.37274 0.62726 0.16198 0.0
C367 C 0.2917 0.54362 0.18299 0.0
N368 N 0.31907 0.66261 0.15585 0.0
N369 N 0.33386 0.49707 0.1742 0.0
H370 H 0.22929 0.5099 0.20637 0.0
H371 H 0.26413 0.47989 0.20504 0.0
H372 H 0.36337 0.49323 0.16753 0.0
H373 H 0.30225 0.46369 0.17828 0.0
H374 H 0.34526 0.69032 0.14481 0.0
H375 H 0.2858 0.66321 0.15698 0.0
H376 H 0.41539 0.70461 0.15689 0.0
H377 H 0.44944 0.67378 0.1545 0.0
C378 C 0.82368 0.26608 0.48518 0.0
C379 C 0.80092 0.25556 0.50849 0.0
C380 C 0.8676 0.33932 0.52105 0.0
C381 C 0.89321 0.34716 0.4986 0.0
N382 N 0.89767 0.31314 0.46046 0.0
N383 N 0.80524 0.28209 0.54941 0.0
C384 C 0.87157 0.30915 0.48102 0.0
C385 C 0.8241 0.29238 0.52658 0.0
N386 N 0.79863 0.23569 0.46651 0.0
N387 N 0.88389 0.37753 0.53692 0.0
H388 H 0.7734 0.24918 0.55385 0.0
H389 H 0.82293 0.30434 0.56417 0.0
H390 H 0.91496 0.41184 0.53354 0.0
H391 H 0.86434 0.37677 0.55235 0.0
H392 H 0.80982 0.24366 0.4486 0.0
H393 H 0.76377 0.20495 0.4687 0.0
H394 H 0.88724 0.28449 0.44821 0.0
H395 H 0.93221 0.34366 0.45664 0.0
C396 C 0.61915 0.74004 0.84855 0.0
C397 C 0.65971 0.73354 0.84058 0.0
C398 C 0.70027 0.82069 0.82587 0.0
C399 C 0.65691 0.82439 0.83081 0.0
N400 N 0.57037 0.78096 0.84224 0.0
N401 N 0.73432 0.76773 0.81576 0.0
C402 C 0.61502 0.78203 0.84076 0.0
C403 C 0.69905 0.77395 0.82766 0.0
N404 N 0.58566 0.70781 0.8648 0.0
N405 N 0.74374 0.86226 0.82022 0.0
H406 H 0.73434 0.73447 0.81488 0.0
H407 H 0.76027 0.79421 0.80413 0.0
H408 H 0.7468 0.89703 0.81921 0.0
H409 H 0.77776 0.86293 0.81908 0.0
H410 H 0.55793 0.713 0.87268 0.0
H411 H 0.5894 0.67965 0.87285 0.0
H412 H 0.53738 0.74934 0.84692 0.0
H413 H 0.56536 0.80993 0.83628 0.0
C414 C 0.96431 0.54821 0.15337 0.0
C415 C 0.9929 0.57242 0.1742 0.0
C416 C 0.93515 0.60527 0.18148 0.0
C417 C 0.90291 0.57569 0.16271 0.0
N418 N 0.88418 0.51247 0.13318 0.0
N419 N 0.99955 0.61811 0.21027 0.0
C420 C 0.91693 0.54548 0.14928 0.0
C421 C 0.97661 0.5994 0.18879 0.0
N422 N 0.98316 0.52941 0.13681 0.0
N423 N 0.92747 0.6407 0.19181 0.0
H424 H 1.02869 0.61347 0.21667 0.0
H425 H 0.98641 0.63377 0.22283 0.0
H426 H 0.89864 0.64702 0.18664 0.0
H427 H 0.9526 0.6671 0.20361 0.0
H428 H 0.96678 0.51618 0.12011 0.0
H429 H 1.01763 0.53133 0.13873 0.0
H430 H 0.88977 0.48576 0.12475 0.0
H431 H 0.8492 0.50865 0.12997 0.0
C432 C 0.51057 0.91802 0.51954 0.0
C433 C 0.523 0.96187 0.50618 0.0
C434 C 0.44135 0.91396 0.48513 0.0
C435 C 0.43105 0.86943 0.49714 0.0
N436 N 0.46385 0.82843 0.52164 0.0
N437 N 0.5038 0.99518 0.47116 0.0
C438 C 0.46818 0.87142 0.51306 0.0
C439 C 0.48927 0.9579 0.48755 0.0
N440 N 0.53733 0.92096 0.53952 0.0
N441 N 0.40472 0.91521 0.47197 0.0
H442 H 0.53909 1.02625 0.47119 0.0
H443 H 0.48316 0.9926 0.45588 0.0
H444 H 0.36948 0.88461 0.46988 0.0
H445 H 0.40784 0.94768 0.46505 0.0
H446 H 0.52743 0.89173 0.55143 0.0
H447 H 0.56627 0.95414 0.54557 0.0
H448 H 0.49209 0.82679 0.5311 0.0
H449 H 0.43425 0.79397 0.51712 0.0
C450 C 0.63165 0.41469 0.8242 0.0
C451 C 0.66455 0.44939 0.84148 0.0
C452 C 0.69779 0.39212 0.84956 0.0
C453 C 0.66373 0.35684 0.83287 0.0
N454 N 0.59204 0.33151 0.8077 0.0
N455 N 0.72404 0.46709 0.87307 0.0
C456 C 0.62913 0.36753 0.82112 0.0
C457 C 0.69643 0.43693 0.85472 0.0
N458 N 0.60375 0.42737 0.80991 0.0
N459 N 0.73233 0.38311 0.86025 0.0
H460 H 0.72363 0.49936 0.87751 0.0
H461 H 0.74435 0.45866 0.8852 0.0
H462 H 0.73407 0.351 0.85723 0.0
H463 H 0.76168 0.40864 0.87063 0.0
H464 H 0.58427 0.40725 0.7949 0.0
H465 H 0.60284 0.46012 0.81182 0.0
H466 H 0.56178 0.33388 0.8011 0.0
H467 H 0.58912 0.29715 0.80481 0.0
C468 C 0.64384 0.7972 0.5031 0.0
C469 C 0.66413 0.82706 0.52376 0.0
C470 C 0.66738 0.76038 0.54489 0.0
C471 C 0.6446 0.72924 0.52475 0.0
N472 N 0.60387 0.71462 0.48635 0.0
N473 N 0.68358 0.83433 0.5661 0.0
C474 C 0.63041 0.74662 0.50433 0.0
C475 C 0.67181 0.80759 0.54527 0.0
N476 N 0.6389 0.81762 0.48223 0.0
N477 N 0.68819 0.74651 0.56287 0.0
H478 H 0.68851 0.86986 0.56704 0.0
H479 H 0.68392 0.81954 0.58287 0.0
H480 H 0.68813 0.7131 0.56314 0.0
H481 H 0.71015 0.77029 0.57641 0.0
H482 H 0.62948 0.79926 0.46581 0.0
H483 H 0.64709 0.85425 0.48104 0.0
H484 H 0.58863 0.72388 0.47192 0.0
H485 H 0.5937 0.67738 0.48689 0.0
C486 C 0.85497 0.50336 0.8184 0.0
C487 C 0.8951 0.55224 0.81566 0.0
C488 C 0.95095 0.53068 0.83646 0.0
C489 C 0.90881 0.48554 0.84324 0.0
N490 N 0.82886 0.41993 0.83197 0.0
N491 N 0.98298 0.60481 0.81183 0.0
C492 C 0.86354 0.46866 0.83096 0.0
C493 C 0.94407 0.56251 0.82063 0.0
N494 N 0.80817 0.4915 0.81122 0.0
N495 N 0.99609 0.54457 0.84668 0.0
H496 H 0.97699 0.62849 0.80075 0.0
H497 H 1.02008 0.61401 0.81377 0.0
H498 H 1.00206 0.5212 0.85794 0.0
H499 H 1.02706 0.57936 0.84452 0.0
H500 H 0.77661 0.45838 0.8156 0.0
H501 H 0.80071 0.51512 0.80106 0.0
H502 H 0.79682 0.40418 0.82148 0.0
H503 H 0.83516 0.39476 0.84161 0.0
C504 C 0.42354 0.89151 0.15958 0.0
C505 C 0.38095 0.89592 0.16415 0.0
C506 C 0.42939 0.96909 0.18817 0.0
C507 C 0.46788 0.95692 0.1888 0.0
N508 N 0.50719 0.9132 0.17226 0.0
N509 N 0.34677 0.94732 0.17669 0.0
C510 C 0.46743 0.92105 0.17299 0.0
C511 C 0.3855 0.93819 0.17567 0.0
N512 N 0.42 0.85671 0.14364 0.0
N513 N 0.43338 1.00845 0.20076 0.0
H514 H 0.31302 0.92572 0.16792 0.0
H515 H 0.31302 0.92572 0.16792 0.0
H516 H 0.46554 1.03261 0.21009 0.0
H517 H 0.4049 1.01733 0.20122 0.0
H518 H 0.44965 0.85173 0.13855 0.0
H519 H 0.38703 0.83491 0.13427 0.0
H520 H 0.5079 0.88507 0.16255 0.0
H521 H 0.53978 0.93486 0.18186 0.0
C522 C 0.6908 0.41911 0.48702 0.0
C523 C 0.70459 0.3828 0.48371 0.0
C524 C 0.78678 0.43733 0.50012 0.0
C525 C 0.76696 0.46559 0.51019 0.0
N526 N 0.70418 0.49045 0.5101 0.0
N527 N 0.76866 0.36126 0.47962 0.0
C528 C 0.72093 0.45995 0.50187 0.0
C529 C 0.75452 0.39428 0.48699 0.0
N530 N 0.6469 0.41161 0.47759 0.0
N531 N 0.83514 0.45036 0.5046 0.0
H532 H 0.74459 0.3299 0.46985 0.0
H533 H 0.80337 0.3647 0.48291 0.0
H534 H 0.85844 0.48209 0.51433 0.0
H535 H 0.85279 0.43195 0.49773 0.0
H536 H 0.63478 0.43737 0.47827 0.0
H537 H 0.62466 0.38038 0.46729 0.0
H538 H 0.66856 0.48484 0.50695 0.0
H539 H 0.72593 0.52126 0.52063 0.0
C540 C 0.3654 0.60333 0.86003 0.0
C541 C 0.37181 0.57862 0.84015 0.0
C542 C 0.29142 0.56012 0.82372 0.0
C543 C 0.2823 0.57879 0.84518 0.0
N544 N 0.31358 0.63167 0.8796 0.0
N545 N 0.35046 0.54804 0.79974 0.0
C546 C 0.32087 0.6057 0.86179 0.0
C547 C 0.3381 0.56241 0.82067 0.0
N548 N 0.40046 0.62152 0.87778 0.0
N549 N 0.25413 0.53711 0.80731 0.0
H550 H 0.38448 0.54905 0.79739 0.0
H551 H 0.32916 0.539 0.78416 0.0
H552 H 0.22022 0.53663 0.80889 0.0
H553 H 0.25603 0.51757 0.79257 0.0
H554 H 0.39575 0.63502 0.89411 0.0
H555 H 0.43433 0.62185 0.87637 0.0
H556 H 0.34094 0.65449 0.89167 0.0
H557 H 0.28069 0.6333 0.88095 0.0
C558 C 0.83526 0.33383 0.13514 0.0
C559 C 0.86942 0.37388 0.1492 0.0
C560 C 0.80244 0.38756 0.16318 0.0
C561 C 0.76857 0.33903 0.15626 0.0
N562 N 0.74897 0.27107 0.12969 0.0
N563 N 0.88714 0.44202 0.17559 0.0
C564 C 0.78363 0.31464 0.13948 0.0
C565 C 0.8538 0.403 0.16223 0.0
N566 N 0.8525 0.31339 0.11864 0.0
N567 N 0.78474 0.41582 0.17313 0.0
H568 H 0.92517 0.45395 0.17545 0.0
H569 H 0.87683 0.46112 0.18756 0.0
H570 H 0.74648 0.40255 0.17472 0.0
H571 H 0.80737 0.45274 0.17761 0.0
H572 H 0.82978 0.28572 0.10673 0.0
H573 H 0.89049 0.32723 0.11566 0.0
H574 H 0.7576 0.24799 0.11976 0.0
H575 H 0.71096 0.25803 0.1316 0.0
C576 C 0.14014 0.60378 0.09958 0.0
C577 C 0.14403 0.57051 0.1157 0.0
C578 C 0.12621 0.51215 0.08266 0.0
C579 C 0.12947 0.54829 0.06622 0.0
N580 N 0.14509 0.63074 0.05827 0.0
N581 N 0.14663 0.49528 0.12211 0.0
C582 C 0.13784 0.59475 0.07445 0.0
C583 C 0.13825 0.52508 0.10716 0.0
N584 N 0.13678 0.64302 0.10831 0.0
N585 N 1.11096 0.46527 0.07488 0.0
H586 H 0.15607 0.50383 0.14001 0.0
H587 H 0.14854 0.4645 0.11632 0.0
H588 H 1.1024 0.45468 0.05695 0.0
H589 H 1.10251 0.43591 0.08648 0.0
H590 H 0.12891 0.66566 0.09754 0.0
H591 H 0.13683 0.65008 0.12664 0.0
H592 H 0.15708 0.6671 0.06317 0.0
H593 H 0.14283 0.62524 0.0397 0.0
C594 C 0.67401 0.08643 0.43139 0.0
C595 C 0.67218 0.11956 0.44825 0.0
C596 C 0.66841 0.16977 0.41536 0.0
C597 C 0.67832 0.14127 0.39878 0.0
N598 N 0.69437 1.07437 0.39068 0.0
N599 N 0.67305 0.19589 0.45633 0.0
C600 C 0.6817 0.09972 0.40664 0.0
C601 C 0.67029 0.16178 0.44026 0.0
N602 N 0.66786 1.04213 0.4391 0.0
N603 N 0.6558 0.20365 0.40733 0.0
H604 H 0.67057 0.18975 0.47472 0.0
H605 H 0.68127 0.23132 0.45133 0.0
H606 H 0.65324 0.21022 0.38912 0.0
H607 H 0.64324 0.2218 0.41871 0.0
H608 H 0.66423 1.01438 0.42749 0.0
H609 H 0.66157 1.03131 0.45713 0.0
H610 H 0.7025 1.047 0.39579 0.0
H611 H 0.70055 0.08329 0.37244 0.0
C612 C 0.68672 0.65421 0.76923 0.0
C613 C 0.68026 0.61012 0.78038 0.0
C614 C 0.72678 0.60067 0.74689 0.0
C615 C 0.71965 0.63505 0.73342 0.0
N616 N 0.73372 0.71689 0.73943 0.0
N617 N 0.69467 0.54004 0.77833 0.0
C618 C 0.71175 0.66897 0.74679 0.0
C619 C 0.70134 0.58344 0.76909 0.0
N620 N 0.66826 0.6817 0.77941 0.0
N621 N 0.76322 0.59031 0.74042 0.0
H622 H 0.67367 0.52342 0.79361 0.0
H623 H 0.7059 0.51795 0.76919 0.0
H624 H 0.78786 0.60934 0.72638 0.0
H625 H 0.77318 0.56889 0.75097 0.0
H626 H 0.6672 0.71042 0.7703 0.0
H627 H 0.65199 0.67489 0.79634 0.0
H628 H 0.73389 0.74487 0.74974 0.0
H629 H 0.75688 0.72899 0.72429 0.0
C630 C 0.68437 0.14617 0.60381 0.0
C631 C 0.65444 0.10242 0.5905 0.0
C632 C 0.62877 1.05527 0.62863 0.0
C633 C 0.66073 0.0985 0.64177 0.0
N634 N 0.72598 0.18331 0.64139 0.0
N635 N 0.60607 1.01408 0.58991 0.0
C636 C 0.69098 0.14328 0.62915 0.0
C637 C 0.62885 1.05665 0.6029 0.0
N638 N 0.70367 0.19096 0.59266 0.0
N639 N 0.59775 1.01285 0.64075 0.0
H640 H 0.6071 1.01418 0.5712 0.0
H641 H 0.59068 0.97902 0.59746 0.0
H642 H 0.59859 1.00947 0.6594 0.0
H643 H 0.56914 0.98191 0.63254 0.0
H644 H 0.7214 0.22438 0.60179 0.0
H645 H 0.69781 0.19496 0.57455 0.0
H646 H 0.75319 0.21501 0.63291 0.0
H647 H 0.73035 0.1835 0.66 0.0
C648 C 0.62346 0.54792 0.93247 0.0
C649 C 0.66223 0.59035 0.92108 0.0
C650 C 0.68813 0.63175 0.96057 0.0
C651 C 0.65108 0.58828 0.97219 0.0
N652 N 0.58195 0.50571 0.96965 0.0
N653 N 0.73141 0.67279 0.92357 0.0
C654 C 0.61816 0.54661 0.95819 0.0
C655 C 0.69417 0.6325 0.93496 0.0
N656 N 0.59173 0.50894 0.91851 0.0
N657 N 0.71772 0.67235 0.97414 0.0
H658 H 0.73507 0.67579 0.90489 0.0
H659 H 0.75976 0.703 0.93228 0.0
H660 H 0.71733 0.67217 0.99289 0.0
H661 H 0.74173 0.70703 0.96712 0.0
H662 H 0.56081 0.47736 0.92488 0.0
H663 H 0.59535 0.50872 0.89986 0.0
H664 H 0.55865 0.47238 0.96132 0.0
H665 H 0.57514 0.50464 0.98809 0.0
C666 C 0.19777 0.60963 0.27044 0.0
C667 C 0.15176 0.5788 0.25903 0.0
C668 C 1.11653 0.54218 0.29858 0.0
C669 C 0.15938 0.57933 0.31056 0.0
N670 N 0.24836 0.61879 0.30509 0.0
N671 N 1.06507 0.51775 0.26291 0.0
C672 C 0.20263 0.6056 0.29579 0.0
C673 C 1.11034 0.5462 0.27336 0.0
N674 N 0.23722 0.64303 0.25709 0.0
N675 N 1.08783 0.49795 0.30962 0.0
H676 H 1.05905 0.5188 0.24451 0.0
H677 H 1.03286 0.49661 0.27298 0.0
H678 H 1.10001 0.48823 0.32513 0.0
H679 H 1.05821 0.46814 0.30119 0.0
H680 H 0.27025 0.66982 0.26483 0.0
H681 H 0.23504 0.64679 0.23854 0.0
H682 H 0.2808 0.63391 0.29477 0.0
H683 H 0.25247 0.6074 0.32218 0.0
loop_
_geom_bond_atom_site_label_1
_geom_bond_atom_site_label_2
_geom_bond_distance
_geom_bond_site_symmetry_2
_ccdc_geom_bond_type
C0 Eu1 2.835 . S
C0 C2 1.500 . S
C0 O20 1.257 . S
C0 O21 1.260 . S
Eu1 C0 2.835 . S
Eu1 O20 2.473 . S
Eu1 O21 2.480 . S
Eu1 O22 2.430 1_655 S
Eu1 O23 2.670 1_655 S
Eu1 O24 2.394 . S
Eu1 O29 2.355 1_655 S
Eu1 O31 2.374 1_655 S
C2 C0 1.500 . S
C2 C3 1.377 . S
C2 C7 1.377 . S
C3 C2 1.377 . S
C3 C4 1.395 . S
C3 H32 0.931 . S
C4 C3 1.395 . S
C4 C5 1.383 . S
C4 H33 0.931 . S
C5 C4 1.383 . S
C5 C6 1.394 . S
C6 C5 1.394 . S
C6 C7 1.378 . S
C6 H34 0.931 . S
C7 C2 1.377 . S
C7 C6 1.378 . S
C7 H35 0.931 . S
C8 O22 1.259 . S
C8 O23 1.270 . S
C9 O24 1.251 . S
C9 O25 1.251 . S
C10 Eu11 2.835 . S
C10 C12 1.500 . S
C10 O26 1.257 . S
C10 O27 1.260 . S
Eu11 C10 2.835 . S
Eu11 O23 2.355 . S
Eu11 O25 2.374 1_455 S
Eu11 O26 2.473 . S
Eu11 O27 2.480 . S
Eu11 O28 2.430 . S
Eu11 O29 2.670 . S
Eu11 O30 2.394 . S
C12 C10 1.500 . S
C12 C13 1.377 . S
C12 C17 1.377 . S
C13 C12 1.377 . S
C13 C14 1.395 . S
C13 H36 0.931 . S
C14 C13 1.395 . S
C14 C15 1.383 . S
C14 H37 0.931 . S
C15 C14 1.383 . S
C15 C16 1.394 . S
C16 C15 1.394 . S
C16 C17 1.378 . S
C16 H38 0.931 . S
C17 C12 1.377 . S
C17 C16 1.378 . S
C17 H39 0.931 . S
C18 O28 1.259 . S
C18 O29 1.270 . S
C19 O30 1.251 . S
C19 O31 1.251 . S
O20 C0 1.257 . S
O20 Eu1 2.473 . S
O21 C0 1.260 . S
O21 Eu1 2.480 . S
O22 Eu1 2.430 1_455 S
O22 C8 1.259 . S
O23 Eu1 2.670 1_455 S
O23 C8 1.270 . S
O23 Eu11 2.355 . S
O24 Eu1 2.394 . S
O24 C9 1.251 . S
O25 C9 1.251 . S
O25 Eu11 2.374 1_655 S
O26 C10 1.257 . S
O26 Eu11 2.473 . S
O27 C10 1.260 . S
O27 Eu11 2.480 . S
O28 Eu11 2.430 . S
O28 C18 1.259 . S
O29 Eu1 2.355 1_455 S
O29 Eu11 2.670 . S
O29 C18 1.270 . S
O30 Eu11 2.394 . S
O30 C19 1.251 . S
O31 Eu1 2.374 1_455 S
O31 C19 1.251 . S
H32 C3 0.931 . S
H33 C4 0.931 . S
H34 C6 0.931 . S
H35 C7 0.931 . S
H36 C13 0.931 . S
H37 C14 0.931 . S
H38 C16 0.931 . S
H39 C17 0.931 . S
C40 Eu41 2.835 . S
C40 C42 1.500 . S
C40 O60 1.257 . S
C40 O61 1.260 . S
Eu41 C40 2.835 . S
Eu41 O60 2.473 . S
Eu41 O61 2.480 . S
Eu41 O62 2.430 . S
Eu41 O63 2.670 . S
Eu41 O64 2.394 . S
Eu41 O69 2.355 . S
Eu41 O71 2.374 1_545 S
C42 C40 1.500 . S
C42 C43 1.377 . S
C42 C47 1.377 . S
C43 C42 1.377 . S
C43 C44 1.395 . S
C43 H72 0.931 . S
C44 C43 1.395 . S
C44 C45 1.383 . S
C44 H73 0.931 . S
C45 C44 1.383 . S
C45 C46 1.394 . S
C46 C45 1.394 . S
C46 C47 1.378 . S
C46 H74 0.931 . S
C47 C42 1.377 . S
C47 C46 1.378 . S
C47 H75 0.931 . S
C48 O62 1.259 . S
C48 O63 1.270 . S
C49 O64 1.251 . S
C49 O65 1.251 . S
C50 Eu51 2.835 . S
C50 C52 1.500 . S
C50 O66 1.257 . S
C50 O67 1.260 . S
Eu51 C50 2.835 . S
Eu51 O63 2.355 1_565 S
Eu51 O65 2.374 1_565 S
Eu51 O66 2.473 . S
Eu51 O67 2.480 . S
Eu51 O68 2.430 1_565 S
Eu51 O69 2.670 1_565 S
Eu51 O70 2.394 . S
C52 C50 1.500 . S
C52 C53 1.377 . S
C52 C57 1.377 . S
C53 C52 1.377 . S
C53 C54 1.395 . S
C53 H76 0.931 . S
C54 C53 1.395 . S
C54 C55 1.383 . S
C54 H77 0.931 . S
C55 C54 1.383 . S
C55 C56 1.394 . S
C56 C55 1.394 . S
C56 C57 1.378 . S
C56 H78 0.931 . S
C57 C52 1.377 . S
C57 C56 1.378 . S
C57 H79 0.931 . S
C58 O68 1.259 . S
C58 O69 1.270 . S
C59 O70 1.251 . S
C59 O71 1.251 . S
O60 C40 1.257 . S
O60 Eu41 2.473 . S
O61 C40 1.260 . S
O61 Eu41 2.480 . S
O62 Eu41 2.430 . S
O62 C48 1.259 . S
O63 Eu41 2.670 . S
O63 C48 1.270 . S
O63 Eu51 2.355 1_545 S
O64 Eu41 2.394 . S
O64 C49 1.251 . S
O65 C49 1.251 . S
O65 Eu51 2.374 1_545 S
O66 C50 1.257 . S
O66 Eu51 2.473 . S
O67 C50 1.260 . S
O67 Eu51 2.480 . S
O68 Eu51 2.430 1_545 S
O68 C58 1.259 . S
O69 Eu41 2.355 . S
O69 Eu51 2.670 1_545 S
O69 C58 1.270 . S
O70 Eu51 2.394 . S
O70 C59 1.251 . S
O71 Eu41 2.374 1_565 S
O71 C59 1.251 . S
H72 C43 0.931 . S
H73 C44 0.931 . S
H74 C46 0.931 . S
H75 C47 0.931 . S
H76 C53 0.931 . S
H77 C54 0.931 . S
H78 C56 0.931 . S
H79 C57 0.931 . S
C80 Eu81 2.835 . S
C80 C82 1.500 . S
C80 O100 1.257 . S
C80 O101 1.260 . S
Eu81 C80 2.835 . S
Eu81 O100 2.473 . S
Eu81 O101 2.480 . S
Eu81 O102 2.430 . S
Eu81 O103 2.670 . S
Eu81 O104 2.394 . S
Eu81 O109 2.355 . S
Eu81 O111 2.374 . S
C82 C80 1.500 . S
C82 C83 1.377 . S
C82 C87 1.377 . S
C83 C82 1.377 . S
C83 C84 1.395 . S
C83 H112 0.931 . S
C84 C83 1.395 . S
C84 C85 1.383 . S
C84 H113 0.931 . S
C85 C84 1.383 . S
C85 C86 1.394 . S
C86 C85 1.394 . S
C86 C87 1.378 . S
C86 H114 0.931 . S
C87 C82 1.377 . S
C87 C86 1.378 . S
C87 H115 0.931 . S
C88 O102 1.259 . S
C88 O103 1.270 . S
C89 O104 1.251 . S
C89 O105 1.251 . S
C90 Eu91 2.835 . S
C90 C92 1.500 . S
C90 O106 1.257 . S
C90 O107 1.260 . S
Eu91 C90 2.835 . S
Eu91 O103 2.355 . S
Eu91 O105 2.374 . S
Eu91 O106 2.473 . S
Eu91 O107 2.480 . S
Eu91 O108 2.430 . S
Eu91 O109 2.670 . S
Eu91 O110 2.394 . S
C92 C90 1.500 . S
C92 C93 1.377 . S
C92 C97 1.377 . S
C93 C92 1.377 . S
C93 C94 1.395 . S
C93 H116 0.931 . S
C94 C93 1.395 . S
C94 C95 1.383 . S
C94 H117 0.931 . S
C95 C94 1.383 . S
C95 C96 1.394 . S
C96 C95 1.394 . S
C96 C97 1.378 . S
C96 H118 0.931 . S
C97 C92 1.377 . S
C97 C96 1.378 . S
C97 H119 0.931 . S
C98 O108 1.259 . S
C98 O109 1.270 . S
C99 O110 1.251 . S
C99 O111 1.251 . S
O100 C80 1.257 . S
O100 Eu81 2.473 . S
O101 C80 1.260 . S
O101 Eu81 2.480 . S
O102 Eu81 2.430 . S
O102 C88 1.259 . S
O103 Eu81 2.670 . S
O103 C88 1.270 . S
O103 Eu91 2.355 . S
O104 Eu81 2.394 . S
O104 C89 1.251 . S
O105 C89 1.251 . S
O105 Eu91 2.374 . S
O106 C90 1.257 . S
O106 Eu91 2.473 . S
O107 C90 1.260 . S
O107 Eu91 2.480 . S
O108 Eu91 2.430 . S
O108 C98 1.259 . S
O109 Eu81 2.355 . S
O109 Eu91 2.670 . S
O109 C98 1.270 . S
O110 Eu91 2.394 . S
O110 C99 1.251 . S
O111 Eu81 2.374 . S
O111 C99 1.251 . S
H112 C83 0.931 . S
H113 C84 0.931 . S
H114 C86 0.931 . S
H115 C87 0.931 . S
H116 C93 0.931 . S
H117 C94 0.931 . S
H118 C96 0.931 . S
H119 C97 0.931 . S
C120 C121 1.264 . S
C120 C125 1.479 . S
C120 C130 1.465 . S
C121 C120 1.264 . S
C121 C123 1.339 . S
C121 H148 0.931 . S
C122 C123 1.395 . S
C122 C124 1.320 . S
C123 C121 1.339 . S
C123 C122 1.395 . S
C123 H149 0.929 . S
C124 C122 1.320 . S
C124 C125 1.405 . S
C124 H150 0.930 . S
C125 C120 1.479 . S
C125 C124 1.405 . S
C125 H151 0.931 . S
U126 O127 2.454 . S
U126 O128 2.458 1_545 S
U126 C129 2.984 1_545 S
U126 C130 2.847 . S
U126 C143 2.882 . S
U126 O144 2.441 . S
U126 O145 2.420 . S
U126 O146 2.455 . S
U126 O147 2.449 . S
O127 U126 2.454 . S
O127 C129 1.353 1_545 S
O128 U126 2.458 1_565 S
O128 C129 1.286 . S
C129 U126 2.984 1_565 S
C129 O127 1.353 1_565 S
C129 O128 1.286 . S
C129 C131 1.363 . S
C130 C120 1.465 . S
C130 U126 2.847 . S
C130 O144 1.249 . S
C130 O145 1.202 . S
C131 C129 1.363 . S
C131 C133 1.408 . S
C131 C136 1.342 . S
C132 C133 1.310 . S
C132 C135 1.461 . S
C132 H152 0.932 . S
C133 C131 1.408 . S
C133 C132 1.310 . S
C133 H153 0.930 . S
C134 C135 1.474 . S
C134 C136 1.285 . S
C134 H154 0.929 . S
C135 C132 1.461 . S
C135 C134 1.474 . S
C136 C131 1.342 . S
C136 C134 1.285 . S
C136 H155 0.930 . S
C137 C140 1.424 . S
C137 C142 1.245 . S
C137 C143 1.428 . S
C138 C141 1.260 . S
C138 C142 1.477 . S
C138 H156 0.932 . S
C139 C140 1.384 . S
C139 C141 1.479 . S
C139 H157 0.929 . S
C140 C137 1.424 . S
C140 C139 1.384 . S
C140 H158 0.928 . S
C141 C138 1.260 . S
C141 C139 1.479 . S
C142 C137 1.245 . S
C142 C138 1.477 . S
C142 H159 0.934 . S
C143 U126 2.882 . S
C143 C137 1.428 . S
C143 O146 1.301 . S
C143 O147 1.282 . S
O144 U126 2.441 . S
O144 C130 1.249 . S
O145 U126 2.420 . S
O145 C130 1.202 . S
O146 U126 2.455 . S
O146 C143 1.301 . S
O147 U126 2.449 . S
O147 C143 1.282 . S
H148 C121 0.931 . S
H149 C123 0.929 . S
H150 C124 0.930 . S
H151 C125 0.931 . S
H152 C132 0.932 . S
H153 C133 0.930 . S
H154 C134 0.929 . S
H155 C136 0.930 . S
H156 C138 0.932 . S
H157 C139 0.929 . S
H158 C140 0.928 . S
H159 C142 0.934 . S
C160 C161 1.264 . S
C160 C165 1.479 . S
C160 C170 1.465 . S
C161 C160 1.264 . S
C161 C163 1.339 . S
C161 H188 0.931 . S
C162 C163 1.395 . S
C162 C164 1.320 . S
C163 C161 1.339 . S
C163 C162 1.395 . S
C163 H189 0.929 . S
C164 C162 1.320 . S
C164 C165 1.405 . S
C164 H190 0.930 . S
C165 C160 1.479 . S
C165 C164 1.405 . S
C165 H191 0.931 . S
U166 O167 2.454 . S
U166 O168 2.458 . S
U166 C169 2.984 . S
U166 C170 2.847 . S
U166 C183 2.882 . S
U166 O184 2.441 . S
U166 O185 2.420 . S
U166 O186 2.455 . S
U166 O187 2.449 . S
O167 U166 2.454 . S
O167 C169 1.353 . S
O168 U166 2.458 . S
O168 C169 1.286 . S
C169 U166 2.984 . S
C169 O167 1.353 . S
C169 O168 1.286 . S
C169 C171 1.363 . S
C170 C160 1.465 . S
C170 U166 2.847 . S
C170 O184 1.249 . S
C170 O185 1.202 . S
C171 C169 1.363 . S
C171 C173 1.408 . S
C171 C176 1.342 . S
C172 C173 1.310 . S
C172 C175 1.461 . S
C172 H192 0.932 . S
C173 C171 1.408 . S
C173 C172 1.310 . S
C173 H193 0.930 . S
C174 C175 1.474 . S
C174 C176 1.285 . S
C174 H194 0.929 . S
C175 C172 1.461 . S
C175 C174 1.474 . S
C176 C171 1.342 . S
C176 C174 1.285 . S
C176 H195 0.930 . S
C177 C180 1.424 . S
C177 C182 1.245 . S
C177 C183 1.428 . S
C178 C181 1.260 . S
C178 C182 1.477 . S
C178 H196 0.932 . S
C179 C180 1.384 . S
C179 C181 1.479 . S
C179 H197 0.929 . S
C180 C177 1.424 . S
C180 C179 1.384 . S
C180 H198 0.928 . S
C181 C178 1.260 . S
C181 C179 1.479 . S
C182 C177 1.245 . S
C182 C178 1.477 . S
C182 H199 0.932 . S
C183 U166 2.882 . S
C183 C177 1.428 . S
C183 O186 1.301 . S
C183 O187 1.282 . S
O184 U166 2.441 . S
O184 C170 1.249 . S
O185 U166 2.420 . S
O185 C170 1.202 . S
O186 U166 2.455 . S
O186 C183 1.301 . S
O187 U166 2.449 . S
O187 C183 1.282 . S
H188 C161 0.931 . S
H189 C163 0.929 . S
H190 C164 0.930 . S
H191 C165 0.931 . S
H192 C172 0.932 . S
H193 C173 0.930 . S
H194 C174 0.929 . S
H195 C176 0.930 . S
H196 C178 0.932 . S
H197 C179 0.929 . S
H198 C180 0.928 . S
H199 C182 0.932 . S
C200 C201 1.264 . S
C200 C205 1.479 . S
C200 C210 1.465 . S
C201 C200 1.264 . S
C201 C203 1.339 . S
C201 H228 0.931 . S
C202 C203 1.395 . S
C202 C204 1.320 . S
C203 C201 1.339 . S
C203 C202 1.395 . S
C203 H229 0.929 . S
C204 C202 1.320 . S
C204 C205 1.405 . S
C204 H230 0.930 . S
C205 C200 1.479 . S
C205 C204 1.405 . S
C205 H231 0.931 . S
U206 O207 2.454 1_655 S
U206 O208 2.458 1_655 S
U206 C209 2.984 1_655 S
U206 C210 2.847 . S
U206 C223 2.882 . S
U206 O224 2.441 . S
U206 O225 2.420 . S
U206 O226 2.455 1_655 S
U206 O227 2.449 . S
O207 U206 2.454 1_455 S
O207 C209 1.353 . S
O208 U206 2.458 1_455 S
O208 C209 1.286 . S
C209 U206 2.984 1_455 S
C209 O207 1.353 . S
C209 O208 1.286 . S
C209 C211 1.363 . S
C210 C200 1.465 . S
C210 U206 2.847 . S
C210 O224 1.249 . S
C210 O225 1.202 . S
C211 C209 1.363 . S
C211 C213 1.408 . S
C211 C216 1.342 . S
C212 C213 1.310 . S
C212 C215 1.461 . S
C212 H232 0.932 . S
C213 C211 1.408 . S
C213 C212 1.310 . S
C213 H233 0.930 . S
C214 C215 1.474 . S
C214 C216 1.285 . S
C214 H234 0.929 . S
C215 C212 1.461 . S
C215 C214 1.474 . S
C216 C211 1.342 . S
C216 C214 1.285 . S
C216 H235 0.930 . S
C217 C220 1.424 . S
C217 C222 1.246 1_655 S
C217 C223 1.428 . S
C218 C221 1.260 . S
C218 C222 1.476 1_554 S
C218 H236 0.932 . S
C219 C220 1.384 1_554 S
C219 C221 1.479 1_655 S
C219 H237 0.929 . S
C220 C217 1.424 . S
C220 C219 1.384 1_556 S
C220 H238 0.928 . S
C221 C218 1.260 . S
C221 C219 1.479 1_455 S
C222 C217 1.246 1_455 S
C222 C218 1.476 1_556 S
C222 H239 0.932 . S
C223 U206 2.882 . S
C223 C217 1.428 . S
C223 O226 1.301 1_655 S
C223 O227 1.282 . S
O224 U206 2.441 . S
O224 C210 1.249 . S
O225 U206 2.420 . S
O225 C210 1.202 . S
O226 U206 2.455 1_455 S
O226 C223 1.301 1_455 S
O227 U206 2.449 . S
O227 C223 1.282 . S
H228 C201 0.931 . S
H229 C203 0.929 . S
H230 C204 0.930 . S
H231 C205 0.931 . S
H232 C212 0.932 . S
H233 C213 0.930 . S
H234 C214 0.929 . S
H235 C216 0.930 . S
H236 C218 0.932 . S
H237 C219 0.929 . S
H238 C220 0.928 . S
H239 C222 0.932 . S
C240 C241 1.264 . S
C240 C245 1.479 . S
C240 C250 1.465 . S
C241 C240 1.264 . S
C241 C243 1.339 . S
C241 H268 0.931 . S
C242 C243 1.395 . S
C242 C244 1.320 . S
C243 C241 1.339 . S
C243 C242 1.395 . S
C243 H269 0.929 . S
C244 C242 1.320 . S
C244 C245 1.405 . S
C244 H270 0.930 . S
C245 C240 1.479 . S
C245 C244 1.405 . S
C245 H271 0.931 . S
U246 O247 2.454 . S
U246 O248 2.458 . S
U246 C249 2.984 . S
U246 C250 2.847 1_455 S
U246 C263 2.882 . S
U246 O264 2.441 . S
U246 O265 2.420 1_455 S
U246 O266 2.455 . S
U246 O267 2.449 . S
O247 U246 2.454 . S
O247 C249 1.353 . S
O248 U246 2.458 . S
O248 C249 1.286 . S
C249 U246 2.984 . S
C249 O247 1.353 . S
C249 O248 1.286 . S
C249 C251 1.363 . S
C250 C240 1.465 . S
C250 U246 2.847 1_655 S
C250 O264 1.249 1_655 S
C250 O265 1.202 . S
C251 C249 1.363 . S
C251 C253 1.408 . S
C251 C256 1.342 . S
C252 C253 1.310 . S
C252 C255 1.461 . S
C252 H272 0.932 . S
C253 C251 1.408 . S
C253 C252 1.310 . S
C253 H273 0.930 . S
C254 C255 1.474 . S
C254 C256 1.285 . S
C254 H274 0.929 . S
C255 C252 1.461 . S
C255 C254 1.474 . S
C256 C251 1.342 . S
C256 C254 1.285 . S
C256 H275 0.930 . S
C257 C260 1.424 . S
C257 C262 1.245 . S
C257 C263 1.428 . S
C258 C261 1.260 . S
C258 C262 1.477 . S
C258 H276 0.932 . S
C259 C260 1.384 . S
C259 C261 1.485 . S
C259 H277 0.923 1_455 S
C260 C257 1.424 . S
C260 C259 1.384 . S
C260 H278 0.928 1_455 S
C261 C258 1.260 . S
C261 C259 1.485 . S
C262 C257 1.245 . S
C262 C258 1.477 . S
C262 H279 0.932 . S
C263 U246 2.882 . S
C263 C257 1.428 . S
C263 O266 1.301 . S
C263 O267 1.282 . S
O264 U246 2.441 . S
O264 C250 1.249 1_455 S
O265 U246 2.420 1_655 S
O265 C250 1.202 . S
O266 U246 2.455 . S
O266 C263 1.301 . S
O267 U246 2.449 . S
O267 C263 1.282 . S
H268 C241 0.931 . S
H269 C243 0.929 . S
H270 C244 0.930 . S
H271 C245 0.931 . S
H272 C252 0.932 . S
H273 C253 0.930 . S
H274 C254 0.929 . S
H275 C256 0.930 . S
H276 C258 0.932 . S
H277 C259 0.923 1_655 S
H278 C260 0.928 1_655 S
H279 C262 0.932 . S
C280 C281 1.264 . S
C280 C285 1.479 . S
C280 C290 1.465 . S
C281 C280 1.264 . S
C281 C283 1.339 . S
C281 H308 0.931 . S
C282 C283 1.395 . S
C282 C284 1.320 . S
C283 C281 1.339 . S
C283 C282 1.395 . S
C283 H309 0.929 . S
C284 C282 1.320 . S
C284 C285 1.405 . S
C284 H310 0.930 . S
C285 C280 1.479 . S
C285 C284 1.405 . S
C285 H311 0.931 . S
U286 O287 2.454 1_565 S
U286 O288 2.458 1_565 S
U286 C289 2.984 1_565 S
U286 C290 2.847 . S
U286 C303 2.882 . S
U286 O304 2.441 . S
U286 O305 2.420 . S
U286 O306 2.455 1_565 S
U286 O307 2.449 . S
O287 U286 2.454 1_545 S
O287 C289 1.353 . S
O288 U286 2.458 1_545 S
O288 C289 1.286 . S
C289 U286 2.984 1_545 S
C289 O287 1.353 . S
C289 O288 1.286 . S
C289 C291 1.363 . S
C290 C280 1.465 . S
C290 U286 2.847 . S
C290 O304 1.249 . S
C290 O305 1.202 . S
C291 C289 1.363 . S
C291 C293 1.408 . S
C291 C296 1.342 . S
C292 C293 1.310 . S
C292 C295 1.461 . S
C292 H312 0.932 . S
C293 C291 1.408 . S
C293 C292 1.310 . S
C293 H313 0.930 . S
C294 C295 1.474 . S
C294 C296 1.285 . S
C294 H314 0.929 . S
C295 C292 1.461 . S
C295 C294 1.474 . S
C296 C291 1.342 . S
C296 C294 1.285 . S
C296 H315 0.930 . S
C297 C300 1.424 . S
C297 C302 1.245 1_565 S
C297 C303 1.428 . S
C298 C301 1.260 . S
C298 C302 1.477 . S
C298 H316 0.932 . S
C299 C300 1.384 . S
C299 C301 1.479 1_565 S
C299 H317 0.929 . S
C300 C297 1.424 . S
C300 C299 1.384 . S
C300 H318 0.928 . S
C301 C298 1.260 . S
C301 C299 1.479 1_545 S
C302 C297 1.245 1_545 S
C302 C298 1.477 . S
C302 H319 0.932 . S
C303 U286 2.882 . S
C303 C297 1.428 . S
C303 O306 1.301 1_565 S
C303 O307 1.282 . S
O304 U286 2.441 . S
O304 C290 1.249 . S
O305 U286 2.420 . S
O305 C290 1.202 . S
O306 U286 2.455 1_545 S
O306 C303 1.301 1_545 S
O307 U286 2.449 . S
O307 C303 1.282 . S
H308 C281 0.931 . S
H309 C283 0.929 . S
H310 C284 0.930 . S
H311 C285 0.931 . S
H312 C292 0.932 . S
H313 C293 0.930 . S
H314 C294 0.929 . S
H315 C296 0.930 . S
H316 C298 0.932 . S
H317 C299 0.929 . S
H318 C300 0.928 . S
H319 C302 0.932 . S
C320 C321 1.264 . S
C320 C325 1.479 . S
C320 C330 1.465 . S
C321 C320 1.264 . S
C321 C323 1.339 . S
C321 H348 0.931 . S
C322 C323 1.395 . S
C322 C324 1.320 . S
C323 C321 1.339 . S
C323 C322 1.395 . S
C323 H349 0.929 . S
C324 C322 1.320 . S
C324 C325 1.405 . S
C324 H350 0.930 . S
C325 C320 1.479 . S
C325 C324 1.405 . S
C325 H351 0.931 . S
U326 O327 2.454 . S
U326 O328 2.458 . S
U326 C329 2.984 . S
U326 C330 2.847 . S
U326 C343 2.882 . S
U326 O344 2.441 . S
U326 O345 2.420 . S
U326 O346 2.455 . S
U326 O347 2.449 . S
O327 U326 2.454 . S
O327 C329 1.353 . S
O328 U326 2.458 . S
O328 C329 1.286 . S
C329 U326 2.984 . S
C329 O327 1.353 . S
C329 O328 1.286 . S
C329 C331 1.363 . S
C330 C320 1.465 . S
C330 U326 2.847 . S
C330 O344 1.249 . S
C330 O345 1.202 . S
C331 C329 1.363 . S
C331 C333 1.408 . S
C331 C336 1.342 . S
C332 C333 1.310 . S
C332 C335 1.461 . S
C332 H352 0.932 . S
C333 C331 1.408 . S
C333 C332 1.310 . S
C333 H353 0.930 . S
C334 C335 1.474 . S
C334 C336 1.285 . S
C334 H354 0.929 . S
C335 C332 1.461 . S
C335 C334 1.474 . S
C336 C331 1.342 . S
C336 C334 1.285 . S
C336 H355 0.930 . S
C337 C340 1.424 . S
C337 C342 1.245 . S
C337 C343 1.428 . S
C338 C341 1.266 . S
C338 C342 1.465 1_556 S
C338 H356 0.939 . S
C339 C340 1.384 . S
C339 C341 1.479 1_554 S
C339 H357 0.929 1_554 S
C340 C337 1.424 . S
C340 C339 1.384 . S
C340 H358 0.928 . S
C341 C338 1.266 . S
C341 C339 1.479 1_556 S
C342 C337 1.245 . S
C342 C338 1.465 1_554 S
C342 H359 0.932 . S
C343 U326 2.882 . S
C343 C337 1.428 . S
C343 O346 1.301 . S
C343 O347 1.282 . S
O344 U326 2.441 . S
O344 C330 1.249 . S
O345 U326 2.420 . S
O345 C330 1.202 . S
O346 U326 2.455 . S
O346 C343 1.301 . S
O347 U326 2.449 . S
O347 C343 1.282 . S
H348 C321 0.931 . S
H349 C323 0.929 . S
H350 C324 0.930 . S
H351 C325 0.931 . S
H352 C332 0.932 . S
H353 C333 0.930 . S
H354 C334 0.929 . S
H355 C336 0.930 . S
H356 C338 0.939 . S
H357 C339 0.929 1_556 S
H358 C340 0.928 . S
H359 C342 0.932 . S
C360 C361 1.363 . S
C360 C366 1.379 . S
C360 N368 1.356 . S
C361 C360 1.363 . S
C361 C367 1.363 . S
C362 C363 1.363 . S
C362 C367 1.379 . S
C362 N369 1.356 . S
C363 C362 1.363 . S
C363 C366 1.363 . S
N364 C366 1.356 . S
N364 H376 0.984 . S
N364 H377 0.985 . S
N365 C367 1.356 . S
N365 H370 0.984 . S
N365 H371 0.985 . S
C366 C360 1.379 . S
C366 C363 1.363 . S
C366 N364 1.356 . S
C367 C361 1.363 . S
C367 C362 1.379 . S
C367 N365 1.356 . S
N368 C360 1.356 . S
N368 H374 0.984 . S
N368 H375 0.984 . S
N369 C362 1.356 . S
N369 H372 0.984 . S
N369 H373 0.985 . S
H370 N365 0.984 . S
H371 N365 0.985 . S
H372 N369 0.984 . S
H373 N369 0.985 . S
H374 N368 0.984 . S
H375 N368 0.984 . S
H376 N364 0.984 . S
H377 N364 0.985 . S
C378 C379 1.363 . S
C378 C384 1.379 . S
C378 N386 1.356 . S
C379 C378 1.363 . S
C379 C385 1.363 . S
C380 C381 1.363 . S
C380 C385 1.379 . S
C380 N387 1.356 . S
C381 C380 1.363 . S
C381 C384 1.363 . S
N382 C384 1.356 . S
N382 H394 0.984 . S
N382 H395 0.985 . S
N383 C385 1.356 . S
N383 H388 0.984 . S
N383 H389 0.985 . S
C384 C378 1.379 . S
C384 C381 1.363 . S
C384 N382 1.356 . S
C385 C379 1.363 . S
C385 C380 1.379 . S
C385 N383 1.356 . S
N386 C378 1.356 . S
N386 H392 0.984 . S
N386 H393 0.984 . S
N387 C380 1.356 . S
N387 H390 0.984 . S
N387 H391 0.985 . S
H388 N383 0.984 . S
H389 N383 0.985 . S
H390 N387 0.984 . S
H391 N387 0.985 . S
H392 N386 0.984 . S
H393 N386 0.984 . S
H394 N382 0.984 . S
H395 N382 0.985 . S
C396 C397 1.363 . S
C396 C402 1.379 . S
C396 N404 1.356 . S
C397 C396 1.363 . S
C397 C403 1.363 . S
C398 C399 1.363 . S
C398 C403 1.379 . S
C398 N405 1.356 . S
C399 C398 1.363 . S
C399 C402 1.363 . S
N400 C402 1.356 . S
N400 H412 0.984 . S
N400 H413 0.985 . S
N401 C403 1.356 . S
N401 H406 0.984 . S
N401 H407 0.985 . S
C402 C396 1.379 . S
C402 C399 1.363 . S
C402 N400 1.356 . S
C403 C397 1.363 . S
C403 C398 1.379 . S
C403 N401 1.356 . S
N404 C396 1.356 . S
N404 H410 0.984 . S
N404 H411 0.984 . S
N405 C398 1.356 . S
N405 H408 0.984 . S
N405 H409 0.985 . S
H406 N401 0.984 . S
H407 N401 0.985 . S
H408 N405 0.984 . S
H409 N405 0.985 . S
H410 N404 0.984 . S
H411 N404 0.984 . S
H412 N400 0.984 . S
H413 N400 0.985 . S
C414 C415 1.363 . S
C414 C420 1.379 . S
C414 N422 1.356 . S
C415 C414 1.363 . S
C415 C421 1.363 . S
C416 C417 1.363 . S
C416 C421 1.379 . S
C416 N423 1.356 . S
C417 C416 1.363 . S
C417 C420 1.363 . S
N418 C420 1.356 . S
N418 H430 0.984 . S
N418 H431 0.985 . S
N419 C421 1.356 . S
N419 H424 0.984 . S
N419 H425 0.985 . S
C420 C414 1.379 . S
C420 C417 1.363 . S
C420 N418 1.356 . S
C421 C415 1.363 . S
C421 C416 1.379 . S
C421 N419 1.356 . S
N422 C414 1.356 . S
N422 H428 0.984 . S
N422 H429 0.984 . S
N423 C416 1.356 . S
N423 H426 0.984 . S
N423 H427 0.985 . S
H424 N419 0.984 . S
H425 N419 0.985 . S
H426 N423 0.984 . S
H427 N423 0.985 . S
H428 N422 0.984 . S
H429 N422 0.984 . S
H430 N418 0.984 . S
H431 N418 0.985 . S
C432 C433 1.363 . S
C432 C438 1.379 . S
C432 N440 1.356 . S
C433 C432 1.363 . S
C433 C439 1.363 . S
C434 C435 1.363 . S
C434 C439 1.379 . S
C434 N441 1.356 . S
C435 C434 1.363 . S
C435 C438 1.363 . S
N436 C438 1.356 . S
N436 H448 0.984 . S
N436 H449 0.985 . S
N437 C439 1.356 . S
N437 H442 0.984 . S
N437 H443 0.985 . S
C438 C432 1.379 . S
C438 C435 1.363 . S
C438 N436 1.356 . S
C439 C433 1.363 . S
C439 C434 1.379 . S
C439 N437 1.356 . S
N440 C432 1.356 . S
N440 H446 0.984 . S
N440 H447 0.984 . S
N441 C434 1.356 . S
N441 H444 0.984 . S
N441 H445 0.985 . S
H442 N437 0.984 . S
H443 N437 0.985 . S
H444 N441 0.984 . S
H445 N441 0.985 . S
H446 N440 0.984 . S
H447 N440 0.984 . S
H448 N436 0.984 . S
H449 N436 0.985 . S
C450 C451 1.363 . S
C450 C456 1.379 . S
C450 N458 1.356 . S
C451 C450 1.363 . S
C451 C457 1.363 . S
C452 C453 1.363 . S
C452 C457 1.379 . S
C452 N459 1.356 . S
C453 C452 1.363 . S
C453 C456 1.363 . S
N454 C456 1.356 . S
N454 H466 0.984 . S
N454 H467 0.985 . S
N455 C457 1.356 . S
N455 H460 0.984 . S
N455 H461 0.985 . S
C456 C450 1.379 . S
C456 C453 1.363 . S
C456 N454 1.356 . S
C457 C451 1.363 . S
C457 C452 1.379 . S
C457 N455 1.356 . S
N458 C450 1.356 . S
N458 H464 0.984 . S
N458 H465 0.984 . S
N459 C452 1.356 . S
N459 H462 0.984 . S
N459 H463 0.985 . S
H460 N455 0.984 . S
H461 N455 0.985 . S
H462 N459 0.984 . S
H463 N459 0.985 . S
H464 N458 0.984 . S
H465 N458 0.984 . S
H466 N454 0.984 . S
H467 N454 0.985 . S
C468 C469 1.363 . S
C468 C474 1.379 . S
C468 N476 1.356 . S
C469 C468 1.363 . S
C469 C475 1.363 . S
C470 C471 1.363 . S
C470 C475 1.379 . S
C470 N477 1.356 . S
C471 C470 1.363 . S
C471 C474 1.363 . S
N472 C474 1.356 . S
N472 H484 0.984 . S
N472 H485 0.985 . S
N473 C475 1.356 . S
N473 H478 0.984 . S
N473 H479 0.985 . S
C474 C468 1.379 . S
C474 C471 1.363 . S
C474 N472 1.356 . S
C475 C469 1.363 . S
C475 C470 1.379 . S
C475 N473 1.356 . S
N476 C468 1.356 . S
N476 H482 0.984 . S
N476 H483 0.984 . S
N477 C470 1.356 . S
N477 H480 0.984 . S
N477 H481 0.985 . S
H478 N473 0.984 . S
H479 N473 0.985 . S
H480 N477 0.984 . S
H481 N477 0.985 . S
H482 N476 0.984 . S
H483 N476 0.984 . S
H484 N472 0.984 . S
H485 N472 0.985 . S
C486 C487 1.363 . S
C486 C492 1.379 . S
C486 N494 1.356 . S
C487 C486 1.363 . S
C487 C493 1.363 . S
C488 C489 1.363 . S
C488 C493 1.379 . S
C488 N495 1.356 . S
C489 C488 1.363 . S
C489 C492 1.363 . S
N490 C492 1.356 . S
N490 H502 0.984 . S
N490 H503 0.985 . S
N491 C493 1.356 . S
N491 H496 0.984 . S
N491 H497 0.985 . S
C492 C486 1.379 . S
C492 C489 1.363 . S
C492 N490 1.356 . S
C493 C487 1.363 . S
C493 C488 1.379 . S
C493 N491 1.356 . S
N494 C486 1.356 . S
N494 H500 0.984 . S
N494 H501 0.984 . S
N495 C488 1.356 . S
N495 H498 0.984 . S
N495 H499 0.985 . S
H496 N491 0.984 . S
H497 N491 0.985 . S
H498 N495 0.984 . S
H499 N495 0.985 . S
H500 N494 0.984 . S
H501 N494 0.984 . S
H502 N490 0.984 . S
H503 N490 0.985 . S
C504 C505 1.363 . S
C504 C510 1.379 . S
C504 N512 1.356 . S
C505 C504 1.363 . S
C505 C511 1.363 . S
C506 C507 1.363 . S
C506 C511 1.379 . S
C506 N513 1.356 . S
C507 C506 1.363 . S
C507 C510 1.363 . S
N508 C510 1.356 . S
N508 H520 0.984 . S
N508 H521 0.985 . S
N509 C511 1.356 . S
N509 H514 0.984 . S
N509 H515 0.985 . S
C510 C504 1.379 . S
C510 C507 1.363 . S
C510 N508 1.356 . S
C511 C505 1.363 . S
C511 C506 1.379 . S
C511 N509 1.356 . S
N512 C504 1.356 . S
N512 H518 0.984 . S
N512 H519 0.984 . S
N513 C506 1.356 . S
N513 H516 0.984 . S
N513 H517 0.985 . S
H514 N509 0.984 . S
H515 N509 0.985 . S
H516 N513 0.984 . S
H517 N513 0.985 . S
H518 N512 0.984 . S
H519 N512 0.984 . S
H520 N508 0.984 . S
H521 N508 0.985 . S
C522 C523 1.363 . S
C522 C528 1.379 . S
C522 N530 1.356 . S
C523 C522 1.363 . S
C523 C529 1.363 . S
C524 C525 1.363 . S
C524 C529 1.379 . S
C524 N531 1.356 . S
C525 C524 1.363 . S
C525 C528 1.363 . S
N526 C528 1.356 . S
N526 H538 0.984 . S
N526 H539 0.985 . S
N527 C529 1.356 . S
N527 H532 0.984 . S
N527 H533 0.985 . S
C528 C522 1.379 . S
C528 C525 1.363 . S
C528 N526 1.356 . S
C529 C523 1.363 . S
C529 C524 1.379 . S
C529 N527 1.356 . S
N530 C522 1.356 . S
N530 H536 0.984 . S
N530 H537 0.984 . S
N531 C524 1.356 . S
N531 H534 0.984 . S
N531 H535 0.985 . S
H532 N527 0.984 . S
H533 N527 0.985 . S
H534 N531 0.984 . S
H535 N531 0.985 . S
H536 N530 0.984 . S
H537 N530 0.984 . S
H538 N526 0.984 . S
H539 N526 0.985 . S
C540 C541 1.363 . S
C540 C546 1.379 . S
C540 N548 1.356 . S
C541 C540 1.363 . S
C541 C547 1.363 . S
C542 C543 1.363 . S
C542 C547 1.379 . S
C542 N549 1.356 . S
C543 C542 1.363 . S
C543 C546 1.363 . S
N544 C546 1.356 . S
N544 H556 0.984 . S
N544 H557 0.985 . S
N545 C547 1.356 . S
N545 H550 0.984 . S
N545 H551 0.985 . S
C546 C540 1.379 . S
C546 C543 1.363 . S
C546 N544 1.356 . S
C547 C541 1.363 . S
C547 C542 1.379 . S
C547 N545 1.356 . S
N548 C540 1.356 . S
N548 H554 0.984 . S
N548 H555 0.984 . S
N549 C542 1.356 . S
N549 H552 0.984 . S
N549 H553 0.985 . S
H550 N545 0.984 . S
H551 N545 0.985 . S
H552 N549 0.984 . S
H553 N549 0.985 . S
H554 N548 0.984 . S
H555 N548 0.984 . S
H556 N544 0.984 . S
H557 N544 0.985 . S
C558 C559 1.363 . S
C558 C564 1.379 . S
C558 N566 1.356 . S
C559 C558 1.363 . S
C559 C565 1.363 . S
C560 C561 1.363 . S
C560 C565 1.379 . S
C560 N567 1.356 . S
C561 C560 1.363 . S
C561 C564 1.363 . S
N562 C564 1.356 . S
N562 H574 0.984 . S
N562 H575 0.985 . S
N563 C565 1.356 . S
N563 H568 0.984 . S
N563 H569 0.985 . S
C564 C558 1.379 . S
C564 C561 1.363 . S
C564 N562 1.356 . S
C565 C559 1.363 . S
C565 C560 1.379 . S
C565 N563 1.356 . S
N566 C558 1.356 . S
N566 H572 0.984 . S
N566 H573 0.984 . S
N567 C560 1.356 . S
N567 H570 0.984 . S
N567 H571 0.985 . S
H568 N563 0.984 . S
H569 N563 0.985 . S
H570 N567 0.984 . S
H571 N567 0.985 . S
H572 N566 0.984 . S
H573 N566 0.984 . S
H574 N562 0.984 . S
H575 N562 0.985 . S
C576 C577 1.363 . S
C576 C582 1.379 . S
C576 N584 1.356 . S
C577 C576 1.363 . S
C577 C583 1.363 . S
C578 C579 1.363 . S
C578 C583 1.379 . S
C578 N585 1.356 . S
C579 C578 1.363 . S
C579 C582 1.363 . S
N580 C582 1.356 . S
N580 H592 0.984 . S
N580 H593 0.985 . S
N581 C583 1.356 . S
N581 H586 0.984 . S
N581 H587 0.985 . S
C582 C576 1.379 . S
C582 C579 1.363 . S
C582 N580 1.356 . S
C583 C577 1.363 . S
C583 C578 1.379 . S
C583 N581 1.356 . S
N584 C576 1.356 . S
N584 H590 0.984 . S
N584 H591 0.984 . S
N585 C578 1.356 . S
N585 H588 0.984 1_455 S
N585 H589 0.985 . S
H586 N581 0.984 . S
H587 N581 0.985 . S
H588 N585 0.984 1_655 S
H589 N585 0.985 . S
H590 N584 0.984 . S
H591 N584 0.984 . S
H592 N580 0.984 . S
H593 N580 0.985 . S
C594 C595 1.363 . S
C594 C600 1.379 . S
C594 N602 1.356 1_545 S
C595 C594 1.363 . S
C595 C601 1.363 . S
C596 C597 1.363 . S
C596 C601 1.379 . S
C596 N603 1.356 . S
C597 C596 1.363 . S
C597 C600 1.363 . S
N598 C600 1.356 1_565 S
N598 H610 0.984 . S
N598 H611 0.985 . S
N599 C601 1.356 . S
N599 H604 0.984 . S
N599 H605 0.985 . S
C600 C594 1.379 . S
C600 C597 1.363 . S
C600 N598 1.356 1_545 S
C601 C595 1.363 . S
C601 C596 1.379 . S
C601 N599 1.356 . S
N602 C594 1.356 1_565 S
N602 H608 0.984 . S
N602 H609 0.984 . S
N603 C596 1.356 . S
N603 H606 0.984 . S
N603 H607 0.985 . S
H604 N599 0.984 . S
H605 N599 0.985 . S
H606 N603 0.984 . S
H607 N603 0.985 . S
H608 N602 0.984 . S
H609 N602 0.984 . S
H610 N598 0.984 . S
H611 N598 0.985 . S
C612 C613 1.363 . S
C612 C618 1.379 . S
C612 N620 1.356 . S
C613 C612 1.363 . S
C613 C619 1.363 . S
C614 C615 1.363 . S
C614 C619 1.379 . S
C614 N621 1.356 . S
C615 C614 1.363 . S
C615 C618 1.363 . S
N616 C618 1.356 . S
N616 H628 0.984 . S
N616 H629 0.985 . S
N617 C619 1.356 . S
N617 H622 0.984 . S
N617 H623 0.985 . S
C618 C612 1.379 . S
C618 C615 1.363 . S
C618 N616 1.356 . S
C619 C613 1.363 . S
C619 C614 1.379 . S
C619 N617 1.356 . S
N620 C612 1.356 . S
N620 H626 0.984 . S
N620 H627 0.984 . S
N621 C614 1.356 . S
N621 H624 0.984 . S
N621 H625 0.985 . S
H622 N617 0.984 . S
H623 N617 0.985 . S
H624 N621 0.984 . S
H625 N621 0.985 . S
H626 N620 0.984 . S
H627 N620 0.984 . S
H628 N616 0.984 . S
H629 N616 0.985 . S
C630 C631 1.363 . S
C630 C636 1.379 . S
C630 N638 1.356 . S
C631 C630 1.363 . S
C631 C637 1.363 1_545 S
C632 C633 1.363 1_565 S
C632 C637 1.379 . S
C632 N639 1.356 . S
C633 C632 1.363 1_545 S
C633 C636 1.363 . S
N634 C636 1.356 . S
N634 H646 0.984 . S
N634 H647 0.985 . S
N635 C637 1.356 . S
N635 H640 0.984 . S
N635 H641 0.985 . S
C636 C630 1.379 . S
C636 C633 1.363 . S
C636 N634 1.356 . S
C637 C631 1.363 1_565 S
C637 C632 1.379 . S
C637 N635 1.356 . S
N638 C630 1.356 . S
N638 H644 0.984 . S
N638 H645 0.984 . S
N639 C632 1.356 . S
N639 H642 0.984 . S
N639 H643 0.985 . S
H640 N635 0.984 . S
H641 N635 0.985 . S
H642 N639 0.984 . S
H643 N639 0.985 . S
H644 N638 0.984 . S
H645 N638 0.984 . S
H646 N634 0.984 . S
H647 N634 0.985 . S
C648 C649 1.363 . S
C648 C654 1.379 . S
C648 N656 1.356 . S
C649 C648 1.363 . S
C649 C655 1.363 . S
C650 C651 1.363 . S
C650 C655 1.379 . S
C650 N657 1.356 . S
C651 C650 1.363 . S
C651 C654 1.363 . S
N652 C654 1.356 . S
N652 H664 0.984 . S
N652 H665 0.985 . S
N653 C655 1.356 . S
N653 H658 0.984 . S
N653 H659 0.985 . S
C654 C648 1.379 . S
C654 C651 1.363 . S
C654 N652 1.356 . S
C655 C649 1.363 . S
C655 C650 1.379 . S
C655 N653 1.356 . S
N656 C648 1.356 . S
N656 H662 0.984 . S
N656 H663 0.984 . S
N657 C650 1.356 . S
N657 H660 0.984 . S
N657 H661 0.985 . S
H658 N653 0.984 . S
H659 N653 0.985 . S
H660 N657 0.984 . S
H661 N657 0.985 . S
H662 N656 0.984 . S
H663 N656 0.984 . S
H664 N652 0.984 . S
H665 N652 0.985 . S
C666 C667 1.363 . S
C666 C672 1.379 . S
C666 N674 1.356 . S
C667 C666 1.363 . S
C667 C673 1.350 1_455 S
C668 C669 1.363 . S
C668 C673 1.376 1_455 S
C668 N675 1.356 1_455 S
C669 C668 1.363 . S
C669 C672 1.363 . S
N670 C672 1.356 . S
N670 H682 0.984 . S
N670 H683 0.985 . S
N671 C673 1.371 . S
N671 H676 0.984 . S
N671 H677 0.985 . S
C672 C666 1.379 . S
C672 C669 1.363 . S
C672 N670 1.356 . S
C673 C667 1.350 1_655 S
C673 C668 1.376 1_655 S
C673 N671 1.371 . S
N674 C666 1.356 . S
N674 H680 0.984 . S
N674 H681 0.984 . S
N675 C668 1.356 1_655 S
N675 H678 0.984 . S
N675 H679 0.985 . S
H676 N671 0.984 . S
H677 N671 0.985 . S
H678 N675 0.984 . S
H679 N675 0.985 . S
H680 N674 0.984 . S
H681 N674 0.984 . S
H682 N670 0.984 . S
H683 N670 0.985 . S
C361 C19 3.178 . S
C363 C335 3.088 . S
C379 C49 3.220 . S
C381 C242 3.173 . S
C397 C99 3.163 . S
C399 C282 3.096 . S
C415 C9 3.221 . S
C417 C322 3.175 . S
C435 C255 3.090 . S
C433 C59 3.180 . S
C453 C295 3.162 . S
C451 C89 3.237 . S
C469 C55 0.576 . S
C471 C162 0.611 . S
C487 C85 0.580 . S
C489 C202 0.467 . S
C505 C15 0.612 . S
C507 C135 0.608 . S
C525 C175 0.470 . S
C523 C45 0.565 . S
C543 C215 0.619 . S
C541 C95 0.623 . S
C559 C5 0.578 . S
C561 C122 0.464 . S
C579 C221 1.082 . S
C577 C18 1.074 . S
C595 C58 1.076 . S
C597 C141 1.083 . S
C613 C98 1.061 . S
C615 C181 1.044 . S
C633 C301 1.804 . S
C631 C48 1.722 . S
C651 C341 1.791 . S
C649 C88 1.718 . S
C667 C8 1.719 . S
C669 C261 1.793 . S
