# Generated by pormake.
# Topology zzz, (3,6)-cn, num edge types: 1
# Building blocks:
#     Node 0, Type 0, BuildingBlock: OLANEW_clean_sbu_2, # of connection points: 3
#     Node 1, Type 0, BuildingBlock: OLANEW_clean_sbu_2, # of connection points: 3
#     Node 2, Type 0, BuildingBlock: OLANEW_clean_sbu_2, # of connection points: 3
#     Node 3, Type 0, BuildingBlock: OLANEW_clean_sbu_2, # of connection points: 3
#     Node 4, Type 0, BuildingBlock: OLANEW_clean_sbu_2, # of connection points: 3
#     Node 5, Type 0, BuildingBlock: OLANEW_clean_sbu_2, # of connection points: 3
#     Node 6, Type 0, BuildingBlock: OLANEW_clean_sbu_2, # of connection points: 3
#     Node 7, Type 0, BuildingBlock: OLANEW_clean_sbu_2, # of connection points: 3
#     Node 8, Type 1, BuildingBlock: MIFKUJ_clean_sbu_0, # of connection points: 6
#     Node 9, Type 1, BuildingBlock: MIFKUJ_clean_sbu_0, # of connection points: 6
#     Node 10, Type 1, BuildingBlock: MIFKUJ_clean_sbu_0, # of connection points: 6
#     Node 11, Type 1, BuildingBlock: MIFKUJ_clean_sbu_0, # of connection points: 6
#     Edge 12, Type (0, 1), BuildingBlock: XIVTED_clean_linker_0, # of connection points: 2
#     Edge 13, Type (0, 1), BuildingBlock: XIVTED_clean_linker_0, # of connection points: 2
#     Edge 14, Type (0, 1), BuildingBlock: XIVTED_clean_linker_0, # of connection points: 2
#     Edge 15, Type (0, 1), BuildingBlock: XIVTED_clean_linker_0, # of connection points: 2
#     Edge 16, Type (0, 1), BuildingBlock: XIVTED_clean_linker_0, # of connection points: 2
#     Edge 17, Type (0, 1), BuildingBlock: XIVTED_clean_linker_0, # of connection points: 2
#     Edge 18, Type (0, 1), BuildingBlock: XIVTED_clean_linker_0, # of connection points: 2
#     Edge 19, Type (0, 1), BuildingBlock: XIVTED_clean_linker_0, # of connection points: 2
#     Edge 20, Type (0, 1), BuildingBlock: XIVTED_clean_linker_0, # of connection points: 2
#     Edge 21, Type (0, 1), BuildingBlock: XIVTED_clean_linker_0, # of connection points: 2
#     Edge 22, Type (0, 1), BuildingBlock: XIVTED_clean_linker_0, # of connection points: 2
#     Edge 23, Type (0, 1), BuildingBlock: XIVTED_clean_linker_0, # of connection points: 2
#     Edge 24, Type (0, 1), BuildingBlock: XIVTED_clean_linker_0, # of connection points: 2
#     Edge 25, Type (0, 1), BuildingBlock: XIVTED_clean_linker_0, # of connection points: 2
#     Edge 26, Type (0, 1), BuildingBlock: XIVTED_clean_linker_0, # of connection points: 2
#     Edge 27, Type (0, 1), BuildingBlock: XIVTED_clean_linker_0, # of connection points: 2
#     Edge 28, Type (0, 1), BuildingBlock: XIVTED_clean_linker_0, # of connection points: 2
#     Edge 29, Type (0, 1), BuildingBlock: XIVTED_clean_linker_0, # of connection points: 2
#     Edge 30, Type (0, 1), BuildingBlock: XIVTED_clean_linker_0, # of connection points: 2
#     Edge 31, Type (0, 1), BuildingBlock: XIVTED_clean_linker_0, # of connection points: 2
#     Edge 32, Type (0, 1), BuildingBlock: XIVTED_clean_linker_0, # of connection points: 2
#     Edge 33, Type (0, 1), BuildingBlock: XIVTED_clean_linker_0, # of connection points: 2
#     Edge 34, Type (0, 1), BuildingBlock: XIVTED_clean_linker_0, # of connection points: 2
#     Edge 35, Type (0, 1), BuildingBlock: XIVTED_clean_linker_0, # of connection points: 2
# Relax obj value: 0.119
# Max RMSD: 0.126
# Mean RMSD: 0.092
data_MOF--net-zzz--node1-OLANEW_clean_sbu_2--node2-MIFKUJ_clean_sbu_0--edge1-XIVTED_clean_linker_0
_symmetry_space_group_name_H-M    P1
_symmetry_Int_Tables_number       1
_symmetry_cell_setting            triclinic
loop_
_symmetry_equiv_pos_as_xyz
'x, y, z'
_cell_length_a     53.461968
_cell_length_b     54.187078
_cell_length_c     17.862369
_cell_angle_alpha  90.163223
_cell_angle_beta   89.9
_cell_angle_gamma 89.83905
loop_
_atom_site_label
_atom_site_type_symbol
_atom_site_fract_x
_atom_site_fract_y
_atom_site_fract_z
_atom_type_partial_charge
O0 O 0.77251 0.59449 0.95343 0.0
Cd1 Cd 0.73506 0.61517 -0.00105 0.0
O2 O 0.7736 0.57015 0.0506 0.0
Cd3 Cd 0.78185 0.53952 0.12584 0.0
O4 O 0.76181 0.52154 0.22426 0.0
C5 C 0.7702 0.52095 0.29127 0.0
O6 O 0.76081 0.52105 0.22395 0.0
C7 C 0.78238 0.57631 0.98721 0.0
C8 C 0.69451 0.59101 0.93444 0.0
O9 O 0.7053 0.6089 0.90066 0.0
O10 O 0.70245 0.58503 -0.0004 0.0
O11 O 0.96204 0.766 0.96902 0.0
Cd12 Cd 0.95323 0.72451 0.01276 0.0
O13 O 0.99553 0.76784 0.03948 0.0
Cd14 Cd 0.0232 0.79004 0.09774 0.0
O15 O 0.03132 0.82175 0.16792 0.0
C16 C 0.01385 0.83759 0.17391 0.0
O17 O 0.99303 0.83415 0.13636 0.0
C18 C 0.98069 0.77803 0.99338 0.0
C19 C 0.9725 0.68872 0.91715 0.0
O20 O 0.95125 0.69886 0.90439 0.0
O21 O 0.98476 0.69563 0.97511 0.0
O22 O 0.73144 0.90787 0.92056 0.0
Cd23 Cd 0.77135 0.88909 0.95333 0.0
O24 O 0.72915 0.92689 0.02907 0.0
Cd25 Cd 0.70774 0.94814 0.11123 0.0
O26 O 0.67983 0.96605 0.18206 0.0
C27 C 0.65839 0.95625 0.18934 0.0
O28 O 0.65357 0.93555 0.15378 0.0
C29 C 0.71994 0.92232 0.96497 0.0
C30 C 0.81061 0.91724 0.89763 0.0
O31 O 0.8002 0.90062 0.85725 0.0
O32 O 0.80257 0.92041 0.96463 0.0
O33 O 0.49634 0.74349 0.0197 0.0
Cd34 Cd 0.48787 0.78002 0.09449 0.0
O35 O 0.45885 0.73286 0.05601 0.0
Cd36 Cd 0.43177 0.7043 0.08238 0.0
O37 O 0.43122 0.6703 0.14585 0.0
C38 C 0.45279 0.66137 0.15881 0.0
O39 O 0.47248 0.67252 0.13096 0.0
C40 C 0.4788 0.72778 0.02024 0.0
C41 C 0.48979 0.82212 0.00762 0.0
O42 O 0.50902 0.8148 0.04419 0.0
O43 O 0.46962 0.80948 0.0124 0.0
O44 O 0.23904 0.4587 0.24922 0.0
Cd45 Cd 0.27973 0.4554 0.19 0.0
O46 O 0.22559 0.42671 0.18569 0.0
Cd47 Cd 0.19462 0.40571 0.13826 0.0
O48 O 0.16052 0.4101 0.07335 0.0
C49 C 0.15184 0.43194 0.07612 0.0
O50 O 0.16325 0.44827 0.11835 0.0
C51 C 0.2215 0.44399 0.23255 0.0
C52 C 0.31646 0.45939 0.29845 0.0
O53 O 0.30651 0.47868 0.26967 0.0
O54 O 0.30924 0.43818 0.27515 0.0
O55 O 0.97704 0.23216 0.1829 0.0
Cd56 Cd 0.97732 0.26853 0.10309 0.0
O57 O 0.01345 0.24266 0.23052 0.0
Cd58 Cd 0.02237 0.26233 0.1281 0.0
O59 O 0.01986 0.23716 0.03379 0.0
C60 C 0.03148 0.21691 0.04317 0.0
O61 O 0.04572 0.21435 0.10257 0.0
C62 C 0.99395 0.22923 0.23215 0.0
C63 C 0.97373 0.30914 0.1983 0.0
O64 O 0.95426 0.30079 0.16511 0.0
O65 O 0.99483 0.29888 0.1845 0.0
O66 O 0.26434 0.01787 0.22047 0.0
Cd67 Cd 0.22423 0.01443 0.15733 0.0
O68 O 0.25738 0.05644 0.25321 0.0
Cd69 Cd 0.23364 0.06007 0.15523 0.0
O70 O 0.25813 0.05532 0.05869 0.0
C71 C 0.27845 0.0674 0.06239 0.0
O72 O 0.28153 0.0831 0.11779 0.0
C73 C 0.27026 0.03676 0.25889 0.0
C74 C 0.18748 0.017 0.26797 0.0
O75 O 0.19758 -0.00367 0.25011 0.0
O76 O 0.19426 0.0363 0.23207 0.0
O77 O 0.57419 0.2681 0.26478 0.0
Cd78 Cd 0.58384 0.22815 0.21028 0.0
O79 O 0.53466 0.26156 0.23847 0.0
Cd80 Cd 0.49737 0.27665 0.21608 0.0
O81 O 0.49045 0.30961 0.14965 0.0
C82 C 0.51077 0.31583 0.11804 0.0
O83 O 0.53056 0.30175 0.12713 0.0
C84 C 0.55157 0.27529 0.26642 0.0
C85 C 0.56615 0.19323 0.30983 0.0
O86 O 0.58863 0.20125 0.31431 0.0
O87 O 0.55231 0.20116 0.25649 0.0
Zn88 Zn 0.99325 0.03514 0.62544 0.0
Zn89 Zn 0.01109 0.98957 0.71165 0.0
C90 C 0.98342 0.06897 0.74048 0.0
O91 O 0.96218 0.06923 0.70355 0.0
C92 C 0.02278 0.95863 0.5947 0.0
O93 O 0.04254 0.95789 0.63828 0.0
O94 O 0.98455 0.06248 0.5539 0.0
O95 O 0.02517 0.02128 0.58527 0.0
O96 O 0.0426 0.00917 0.69097 0.0
C97 C 0.00128 0.07914 0.55438 0.0
O98 O 0.02116 0.07597 0.59644 0.0
O99 O 0.0002 0.05354 0.72128 0.0
C100 C -0.00273 0.94807 0.78812 0.0
O101 O 0.97763 0.95433 0.74836 0.0
O102 O 0.01684 0.96132 0.78382 0.0
O103 O 0.98004 0.00679 0.75114 0.0
O104 O 0.964 0.01247 0.63998 0.0
O105 O 0.0043 0.97205 0.61408 0.0
C106 C 0.0446 0.01704 0.62408 0.0
C107 C 0.96112 0.00676 0.70825 0.0
Zn108 Zn 0.46568 0.02055 0.65263 0.0
Zn109 Zn 0.52047 0.02161 0.72499 0.0
C110 C 0.42598 0.01541 0.7524 0.0
O111 O 0.42454 0.99509 0.71227 0.0
C112 C 0.54665 0.02103 0.59196 0.0
O113 O 0.55631 0.03945 0.63008 0.0
O114 O 0.44041 0.0178 0.5704 0.0
O115 O 0.48732 0.04946 0.6232 0.0
O116 O 0.51389 0.0576 0.7148 0.0
C117 C 0.42774 0.03745 0.56135 0.0
O118 O 0.43345 0.05707 0.60117 0.0
O119 O 0.44417 0.03001 0.74094 0.0
C120 C 0.55845 0.99184 0.77534 0.0
O121 O 0.54429 0.9773 0.73462 0.0
O122 O 0.55223 0.01444 0.78224 0.0
O123 O 0.49429 0.00203 0.77768 0.0
O124 O 0.47991 0.9867 0.67312 0.0
O125 O 0.52846 0.00919 0.62048 0.0
C126 C 0.5025 0.06404 0.65556 0.0
C127 C 0.48644 0.98366 0.74071 0.0
Zn128 Zn 0.51783 0.47736 0.61218 0.0
Zn129 Zn 0.49554 0.51906 0.70263 0.0
C130 C 0.52947 0.448 0.73716 0.0
O131 O 0.55141 0.44899 0.70401 0.0
C132 C 0.47854 0.54817 0.58917 0.0
O133 O 0.45947 0.546 0.63518 0.0
O134 O 0.52909 0.45056 0.54099 0.0
O135 O 0.48495 0.48853 0.57219 0.0
O136 O 0.46749 0.49495 0.68249 0.0
C137 C 0.51371 0.43271 0.53781 0.0
O138 O 0.49348 0.43364 0.5796 0.0
O139 O 0.51121 0.45966 0.70881 0.0
C140 C 0.50258 0.56155 0.78535 0.0
O141 O 0.52401 0.55837 0.75053 0.0
O142 O 0.48537 0.54566 0.77606 0.0
O143 O 0.52871 0.50664 0.74066 0.0
O144 O 0.54531 0.50237 0.6291 0.0
O145 O 0.49914 0.53778 0.60608 0.0
C146 C 0.46573 0.48842 0.61413 0.0
C147 C 0.54763 0.50795 0.69786 0.0
Zn148 Zn 0.01394 0.49723 0.53566 0.0
Zn149 Zn 0.96872 0.49299 0.63121 0.0
C150 C 0.04564 0.49261 0.6603 0.0
O151 O 0.05398 0.5131 0.63012 0.0
C152 C 0.93261 0.49494 0.51592 0.0
O153 O 0.92918 0.47247 0.54125 0.0
O154 O 0.04368 0.49691 0.46665 0.0
O155 O 0.98844 0.47515 0.48928 0.0
O156 O 0.97964 0.45858 0.59837 0.0
C157 C 0.05232 0.47535 0.4549 0.0
O158 O 0.0406 0.45638 0.48414 0.0
O159 O 0.02745 0.48147 0.62963 0.0
C160 C 0.93265 0.51354 0.71808 0.0
O161 O 0.94274 0.53167 0.6799 0.0
O162 O 0.94177 0.49193 0.711 0.0
O163 O 0.99398 0.5174 0.67085 0.0
O164 O 0.00346 0.5321 0.56001 0.0
O165 O 0.94981 0.50819 0.5441 0.0
C166 C 0.98191 0.45657 0.52768 0.0
C167 C 0.0004 0.53542 0.62983 0.0
H168 H 0.15823 0.05654 0.3057 0.0
H169 H 0.08706 0.98875 0.6419 0.0
H170 H 0.1741 0.98126 0.36875 0.0
H171 H 0.05728 0.05073 0.51969 0.0
H172 H 0.12465 0.9899 0.56193 0.0
H173 H 0.12642 0.05861 0.40377 0.0
C174 C 0.15509 0.04047 0.34033 0.0
C175 C 0.16863 0.0186 0.32844 0.0
C176 C 0.10997 0.00343 0.55361 0.0
C177 C 0.1324 0.02093 0.44129 0.0
C178 C 0.0887 0.0029 0.59949 0.0
C179 C 0.06909 0.01961 0.587 0.0
C180 C 0.11163 0.02106 0.49617 0.0
C181 C 0.07194 0.03744 0.5309 0.0
C182 C 0.13694 0.04167 0.39633 0.0
C183 C 0.16387 -0.00161 0.37546 0.0
N184 N 0.09275 0.03766 0.48752 0.0
N185 N 0.14608 2e-05 0.42981 0.0
H186 H 0.59023 0.17427 0.43193 0.0
H187 H 0.47619 0.08764 0.54685 0.0
H188 H 0.51944 0.17286 0.31596 0.0
H189 H 0.5447 0.09223 0.67368 0.0
H190 H 0.49067 0.12115 0.46754 0.0
H191 H 0.57329 0.14583 0.52483 0.0
C192 C 0.57112 0.16797 0.42596 0.0
C193 C 0.55627 0.17581 0.36583 0.0
C194 C 0.50246 0.11505 0.51315 0.0
C195 C 0.53674 0.14342 0.47219 0.0
C196 C 0.49417 0.09594 0.55864 0.0
C197 C 0.50938 0.08698 0.61653 0.0
C198 C 0.52626 0.12516 0.52506 0.0
C199 C 0.5324 0.09856 0.62961 0.0
C200 C 0.56143 0.15183 0.47923 0.0
C201 C 0.53161 0.16718 0.36115 0.0
N202 N 0.5403 0.11687 0.5835 0.0
N203 N 0.52265 0.15138 0.41349 0.0
H204 H 0.35076 0.42459 0.33891 0.0
H205 H 0.41891 0.50612 0.64944 0.0
H206 H 0.32683 0.49906 0.38807 0.0
H207 H 0.45788 0.45604 0.50124 0.0
H208 H 0.37984 0.49738 0.58113 0.0
H209 H 0.38524 0.42957 0.42764 0.0
C210 C 0.3526 0.44188 0.36899 0.0
C211 C 0.33616 0.46156 0.3556 0.0
C212 C 0.39698 0.48813 0.56468 0.0
C213 C 0.37515 0.46717 0.45752 0.0
C214 C 0.41912 0.49297 0.60367 0.0
C215 C 0.44154 0.48174 0.5808 0.0
C216 C 0.39739 0.47152 0.50417 0.0
C217 C 0.44099 0.46505 0.52069 0.0
C218 C 0.37224 0.4447 0.41939 0.0
C219 C 0.33934 0.48356 0.39619 0.0
N220 N 0.41926 0.46038 0.48459 0.0
N221 N 0.35855 0.48582 0.44546 0.0
H222 H 0.93802 0.34532 0.20603 0.0
H223 H 0.99322 0.40961 0.57222 0.0
H224 H 0.00539 0.31945 0.31339 0.0
H225 H 0.95871 0.45105 0.39415 0.0
H226 H 0.98866 0.37178 0.49672 0.0
H227 H 0.93663 0.38015 0.29427 0.0
C228 C 0.95238 0.34689 0.24848 0.0
C229 C 0.97201 0.32973 0.25209 0.0
C230 C 0.98182 0.38916 0.47492 0.0
C231 C 0.97018 0.36891 0.35349 0.0
C232 C 0.98426 0.4106 0.51796 0.0
C233 C 0.97645 0.43331 0.48881 0.0
C234 C 0.97097 0.39057 0.40348 0.0
C235 C 0.96514 0.43382 0.41806 0.0
C236 C 0.95158 0.36669 0.29857 0.0
C237 C 0.99013 0.33251 0.30821 0.0
N238 N 0.9627 0.41273 0.3777 0.0
N239 N 0.98876 0.35174 0.35698 0.0
H240 H 0.82713 0.92017 0.75278 0.0
H241 H 0.94694 0.00028 0.85358 0.0
H242 H 0.84144 0.94845 0.97476 0.0
H243 H 0.92086 0.99062 0.62685 0.0
H244 H 0.90908 0.98022 0.89925 0.0
H245 H 0.86225 0.94444 0.70547 0.0
C246 C 0.83763 0.93151 0.79156 0.0
C247 C 0.83142 0.93222 0.86791 0.0
C248 C 0.9115 0.98271 0.83954 0.0
C249 C 0.87163 0.95994 0.81417 0.0
C250 C 0.93311 0.99415 0.8134 0.0
C251 C 0.93707 -0.00293 0.73626 0.0
C252 C 0.89382 0.97382 0.78819 0.0
C253 C 0.91852 0.98879 0.68678 0.0
C254 C 0.8576 0.94544 0.76443 0.0
C255 C 0.84559 0.94733 0.91551 0.0
N256 N 0.89779 0.9773 0.71357 0.0
N257 N 0.86515 0.96045 0.88795 0.0
H258 H 0.5257 0.85779 0.0091 0.0
H259 H 0.46322 0.94129 0.69306 0.0
H260 H 0.4559 0.83808 0.90368 0.0
H261 H 0.51143 0.96989 0.86637 0.0
H262 H 0.46497 0.90058 0.75328 0.0
H263 H 0.52573 0.89641 0.93884 0.0
C264 C 0.51046 0.86152 0.97083 0.0
C265 C 0.49065 0.84485 0.96262 0.0
C266 C 0.47515 0.91585 0.77774 0.0
C267 C 0.49066 0.88883 0.88203 0.0
C268 C 0.47421 0.93898 0.74347 0.0
C269 C 0.48712 0.95896 0.77495 0.0
C270 C 0.48946 0.91273 0.84291 0.0
C271 C 0.50105 0.95504 0.8404 0.0
C272 C 0.51046 0.88357 0.93101 0.0
C273 C 0.47141 0.85058 0.91212 0.0
N274 N 0.50195 0.93236 0.87196 0.0
N275 N 0.47188 0.87215 0.87357 0.0
H276 H 0.66389 0.55658 -0.00201 0.0
H277 H 0.58749 0.52813 0.62246 0.0
H278 H 0.67822 0.59402 0.78931 0.0
H279 H 0.56168 0.50909 0.84391 0.0
H280 H 0.62473 0.54714 0.6785 0.0
H281 H 0.62985 0.53403 0.93801 0.0
C282 C 0.65988 0.56006 0.93953 0.0
C283 C 0.67379 0.57734 0.89875 0.0
C284 C 0.61094 0.53865 0.71459 0.0
C285 C 0.63499 0.55142 0.82955 0.0
C286 C 0.58982 0.52767 0.68266 0.0
C287 C 0.57144 0.51717 0.72868 0.0
C288 C 0.61374 0.53878 0.79283 0.0
C289 C 0.57529 0.51717 0.80638 0.0
C290 C 0.64045 0.54718 0.90532 0.0
C291 C 0.66783 0.581 0.82302 0.0
N292 N 0.59597 0.52784 0.83596 0.0
N293 N 0.64887 0.56813 0.79078 0.0
H294 H 0.00912 0.65495 0.94785 0.0
H295 H 0.99155 0.58027 0.5649 0.0
H296 H 0.95731 0.67711 0.77539 0.0
H297 H 0.01399 0.54636 0.77252 0.0
H298 H 0.98936 0.62035 0.62935 0.0
H299 H 0.0213 0.61938 0.87096 0.0
C300 C 0.00057 0.65252 0.8934 0.0
C301 C 0.98195 0.66878 0.86825 0.0
C302 C 0.99511 0.60415 0.6603 0.0
C303 C 0.99594 0.62842 0.78017 0.0
C304 C -0.0035 0.58138 0.62359 0.0
C305 C 0.00269 0.56007 0.66385 0.0
C306 C 0.00039 0.60551 0.7372 0.0
C307 C 0.00882 0.56239 0.73984 0.0
C308 C 0.00748 0.63223 0.84976 0.0
C309 C 0.97151 0.66481 0.79722 0.0
N310 N 0.00743 0.58471 0.77421 0.0
N311 N 0.97859 0.64494 0.75567 0.0
H312 H 0.95775 0.1936 0.24225 0.0
H313 H 0.03221 0.11883 0.55598 0.0
H314 H 0.02607 0.21848 0.34633 0.0
H315 H 0.96409 0.09203 0.4552 0.0
H316 H 0.02836 0.15664 0.48443 0.0
H317 H 0.95765 0.15778 0.32534 0.0
C318 C 0.97258 0.19169 0.28308 0.0
C319 C 0.99206 0.20898 0.28699 0.0
C320 C 0.01418 0.14257 0.47788 0.0
C321 C 0.99212 0.16801 0.38165 0.0
C322 C 0.0164 0.12088 0.51867 0.0
C323 C -0.00147 0.10213 0.51113 0.0
C324 C 0.99399 0.14563 0.4287 0.0
C325 C 0.97835 0.10598 0.46236 0.0
C326 C 0.97254 0.1712 0.33029 0.0
C327 C 0.01076 0.20557 0.34094 0.0
N328 N 0.97668 0.1273 0.42259 0.0
N329 N 0.01039 0.18542 0.38577 0.0
H330 H 0.30168 -0.00225 0.28393 0.0
H331 H 0.3969 0.07644 0.53254 0.0
H332 H 0.2907 0.0746 0.34015 0.0
H333 H 0.40738 -0.00085 0.48148 0.0
H334 H 0.35834 0.07619 0.46016 0.0
H335 H 0.34046 -0.00216 0.35568 0.0
C336 C 0.30734 0.01462 0.31169 0.0
C337 C 0.29291 0.03621 0.30601 0.0
C338 C 0.36908 0.05929 0.46455 0.0
C339 C 0.3374 0.03647 0.38779 0.0
C340 C 0.39117 0.05942 0.50572 0.0
C341 C 0.40538 0.03776 0.51312 0.0
C342 C 0.36109 0.03733 0.43048 0.0
C343 C 0.39702 0.01628 0.47714 0.0
C344 C 0.32953 0.01467 0.3525 0.0
C345 C 0.3012 0.05752 0.3431 0.0
N346 N 0.37536 0.01659 0.43749 0.0
N347 N 0.32294 0.05712 0.38226 0.0
H348 H 0.58026 0.31694 0.26579 0.0
H349 H 0.48247 0.39393 0.51357 0.0
H350 H 0.50916 0.28894 0.34124 0.0
H351 H 0.5554 0.42162 0.45326 0.0
H352 H 0.49069 0.35687 0.4404 0.0
H353 H 0.57041 0.35674 0.32456 0.0
C354 C 0.56248 0.31927 0.29417 0.0
C355 C 0.54532 0.29977 0.29776 0.0
C356 C 0.50491 0.37104 0.44285 0.0
C357 C 0.53401 0.34505 0.36542 0.0
C358 C 0.50024 0.39225 0.48476 0.0
C359 C 0.51838 0.41084 0.49014 0.0
C360 C 0.52796 0.36823 0.406 0.0
C361 C 0.54095 0.40769 0.45093 0.0
C362 C 0.55686 0.34197 0.32754 0.0
C363 C 0.5226 0.30369 0.33523 0.0
N364 N 0.54517 0.38669 0.4108 0.0
N365 N 0.51765 0.32584 0.36779 0.0
H366 H 0.18653 0.40965 0.27209 0.0
H367 H 0.08518 0.51024 0.40274 0.0
H368 H 0.19951 0.48812 0.26518 0.0
H369 H 0.07412 0.4315 0.41727 0.0
H370 H 0.12619 0.50276 0.34566 0.0
H371 H 0.14438 0.41746 0.3199 0.0
C372 C 0.18035 0.42853 0.27974 0.0
C373 C 0.19626 0.44828 0.26324 0.0
C374 C 0.11472 0.48714 0.36109 0.0
C375 C 0.14833 0.45743 0.31955 0.0
C376 C 0.09128 0.4914 0.3934 0.0
C377 C 0.07625 0.47147 0.41508 0.0
C378 C 0.12313 0.46278 0.35039 0.0
C379 C 0.08511 0.44744 0.40178 0.0
C380 C 0.15637 0.43301 0.30759 0.0
C381 C 0.18772 0.47238 0.27695 0.0
N382 N 0.10798 0.44378 0.37056 0.0
N383 N 0.16428 0.4763 0.30407 0.0
H384 H 0.94395 0.81169 0.9696 0.0
H385 H 0.0364 0.91986 0.84144 0.0
H386 H 0.0242 0.8035 0.96742 0.0
H387 H 0.95581 0.92396 0.83462 0.0
H388 H 0.03313 0.87911 0.90101 0.0
H389 H 0.94862 0.8546 0.93157 0.0
C390 C 0.96258 0.81902 0.9614 0.0
C391 C 0.98371 0.80416 0.9724 0.0
C392 C 0.01621 0.88909 0.88699 0.0
C393 C 0.98932 0.85328 0.92831 0.0
C394 C 0.01808 0.91235 0.85341 0.0
C395 C -0.00365 0.92513 0.83234 0.0
C396 C 0.99246 0.87876 0.89967 0.0
C397 C 0.97306 0.9146 0.84894 0.0
C398 C 0.96529 0.84355 0.93995 0.0
C399 C 0.00745 0.81455 0.96117 0.0
N400 N 0.97176 0.89203 0.88113 0.0
N401 N 0.00964 0.83849 0.93934 0.0
H402 H 0.70198 0.96891 0.99244 0.0
H403 H 0.57374 0.94399 0.77573 0.0
H404 H 0.68333 0.90025 0.88377 0.0
H405 H 0.59537 0.0164 0.8532 0.0
H406 H 0.61228 0.92714 0.82621 0.0
H407 H 0.66166 0.98604 0.95285 0.0
C408 C 0.68918 0.95731 0.96145 0.0
C409 C 0.69568 0.93296 0.94265 0.0
C410 C 0.60867 0.94672 0.83233 0.0
C411 C 0.64997 0.95258 0.89557 0.0
C412 C 0.5866 0.9564 0.8035 0.0
C413 C 0.58139 0.98172 0.80968 0.0
C414 C 0.62581 0.9624 0.86784 0.0
C415 C 0.59871 -0.00321 0.84697 0.0
C416 C 0.66632 0.96718 0.93814 0.0
C417 C 0.67894 0.91906 0.89969 0.0
N418 N 0.62025 0.9869 0.8745 0.0
N419 N 0.65683 0.92904 0.87782 0.0
H420 H 0.52247 0.70207 0.00662 0.0
H421 H 0.45791 0.58185 0.83123 0.0
H422 H 0.44384 0.69792 0.95461 0.0
H423 H 0.53773 0.59353 0.83664 0.0
H424 H 0.45187 0.6222 0.89138 0.0
H425 H 0.52809 0.66045 0.95581 0.0
C426 C 0.50639 0.69237 0.98449 0.0
C427 C 0.48255 0.70319 0.98632 0.0
C428 C 0.47069 0.61583 0.87965 0.0
C429 C 0.48877 0.6556 0.92851 0.0
C430 C 0.47414 0.59276 0.84585 0.0
C431 C 0.49834 0.58444 0.82854 0.0
C432 C 0.4916 0.63048 0.89665 0.0
C433 C 0.51872 0.59934 0.8484 0.0
C434 C 0.50957 0.66859 0.95586 0.0
C435 C 0.46237 0.68988 0.95673 0.0
N436 N 0.51489 0.62164 0.88121 0.0
N437 N 0.4659 0.66672 0.92929 0.0
H438 H 0.79111 0.57421 0.83868 0.0
H439 H 0.91491 0.49156 0.84759 0.0
H440 H 0.81959 0.54668 0.04857 0.0
H441 H 0.89738 0.54675 0.682 0.0
H442 H 0.87639 0.50326 0.91648 0.0
H443 H 0.82588 0.55484 0.77398 0.0
C444 C 0.80468 0.56399 0.87131 0.0
C445 C 0.80258 0.56236 0.94936 0.0
C446 C 0.88109 0.51262 0.86486 0.0
C447 C 0.84277 0.54009 0.87506 0.0
C448 C 0.90288 0.50591 0.82558 0.0
C449 C 0.90932 0.5184 0.75955 0.0
C450 C 0.86565 0.5314 0.83633 0.0
C451 C 0.89328 0.53687 0.73318 0.0
C452 C 0.82455 0.55289 0.8342 0.0
C453 C 0.82049 0.54837 0.98833 0.0
N454 N 0.87224 0.54272 0.77144 0.0
N455 N 0.84011 0.53791 0.95074 0.0
H456 H 0.05582 0.17247 0.04038 0.0
H457 H 0.9548 0.10933 0.77364 0.0
H458 H 0.99454 0.21198 0.93836 0.0
H459 H 0.026 0.07544 0.82382 0.0
H460 H 0.9671 0.14545 0.84622 0.0
H461 H 0.04384 0.13551 0.97036 0.0
C462 C 0.03998 0.17344 0.00276 0.0
C463 C 0.02615 0.19534 0.99516 0.0
C464 C 0.98 0.13008 0.84159 0.0
C465 C 0.01213 0.15305 0.91603 0.0
C466 C 0.97292 0.10934 0.80066 0.0
C467 C 0.98944 0.08935 0.79239 0.0
C468 C 0.00372 0.13081 0.87503 0.0
C469 C 0.0127 0.09046 0.82861 0.0
C470 C 0.03313 0.15232 0.96299 0.0
C471 C 0.00579 0.19553 0.94572 0.0
N472 N 0.01918 0.1109 0.86828 0.0
N473 N -0.00071 0.17464 0.90845 0.0
H474 H 0.32347 0.09104 0.05236 0.0
H475 H 0.38295 0.98985 0.77825 0.0
H476 H 0.28204 0.02996 0.95936 0.0
H477 H 0.42088 0.05729 0.83838 0.0
H478 H 0.34678 0.00322 0.85103 0.0
H479 H 0.35988 0.07847 0.97852 0.0
C480 C 0.32194 0.0751 0.01592 0.0
C481 C 0.29966 0.0615 0.01212 0.0
C482 C 0.36301 0.0151 0.84846 0.0
C483 C 0.34139 0.04686 0.92823 0.0
C484 C 0.38377 0.00742 0.80722 0.0
C485 C 0.405 0.0225 0.80205 0.0
C486 C 0.36343 0.03801 0.88523 0.0
C487 C 0.40492 0.04507 0.84083 0.0
C488 C 0.34277 0.06792 0.97392 0.0
C489 C 0.2988 0.04103 0.96396 0.0
N490 N 0.38442 0.05217 0.88075 0.0
N491 N 0.31942 0.03424 0.92429 0.0
H492 H 0.55336 0.33794 0.07163 0.0
H493 H 0.48534 0.43528 0.80563 0.0
H494 H 0.47298 0.34471 0.05971 0.0
H495 H 0.56525 0.42436 0.81825 0.0
H496 H 0.47991 0.4056 0.90765 0.0
H497 H 0.55747 0.37295 0.98843 0.0
C498 C 0.53651 0.34685 0.05148 0.0
C499 C 0.51278 0.33819 0.07172 0.0
C500 C 0.49861 0.40989 0.88841 0.0
C501 C 0.51737 0.37846 0.97573 0.0
C502 C 0.50174 0.42684 0.83035 0.0
C503 C 0.52579 0.43207 0.80297 0.0
C504 C 0.51969 0.39823 0.91914 0.0
C505 C 0.54636 0.42069 0.83702 0.0
C506 C 0.53888 0.36694 0.004 0.0
C507 C 0.49163 0.35075 0.04494 0.0
N508 N 0.54282 0.40422 0.89295 0.0
N509 N 0.49441 0.37018 -0.00249 0.0
H510 H 0.13213 0.47811 0.06269 0.0
H511 H 0.04389 0.44549 0.71584 0.0
H512 H 0.12522 0.40407 0.97505 0.0
H513 H 0.07389 0.51789 0.76074 0.0
H514 H 0.06605 0.42974 0.82634 0.0
H515 H 0.10253 0.49246 0.96881 0.0
C516 C 0.12419 0.46479 0.0242 0.0
C517 C 0.13147 0.4399 0.02592 0.0
C518 C 0.06758 0.44909 0.81205 0.0
C519 C 0.09756 0.4563 0.91823 0.0
C520 C 0.05494 0.45809 0.74933 0.0
C521 C 0.05732 0.48296 0.72889 0.0
C522 C 0.08229 0.46522 0.85492 0.0
C523 C 0.07182 0.49852 0.77402 0.0
C524 C 0.10734 0.47304 0.97048 0.0
C525 C 0.12032 0.42347 0.97511 0.0
N526 N 0.08377 0.48939 0.83488 0.0
N527 N 0.10402 0.432 0.92276 0.0
H528 H 0.97836 0.87224 0.20932 0.0
H529 H 0.0611 0.93206 0.53438 0.0
H530 H 0.0541 0.85017 0.26029 0.0
H531 H 0.98354 0.95088 0.49808 0.0
H532 H 0.05991 0.90517 0.42524 0.0
H533 H 0.98105 0.90425 0.30563 0.0
C534 C 0.99563 0.87424 0.24033 0.0
C535 C 0.01597 0.85835 0.22723 0.0
C536 C 0.04315 0.91522 0.44081 0.0
C537 C 0.01913 0.8949 0.33749 0.0
C538 C 0.04379 0.93059 0.50329 0.0
C539 C 0.02229 0.94354 0.52584 0.0
C540 C 0.02081 0.91266 0.40046 0.0
C541 C 0.0005 0.94112 0.48283 0.0
C542 C -0.00288 0.8925 0.29538 0.0
C543 C 0.03789 0.86187 0.26885 0.0
N544 N 0.00026 0.9258 0.42235 0.0
N545 N 0.03883 0.87968 0.32237 0.0
H546 H 0.66016 0.00131 0.25825 0.0
H547 H 0.53933 0.97811 0.51192 0.0
H548 H 0.61369 0.93671 0.23554 0.0
H549 H 0.58226 0.04546 0.51287 0.0
H550 H 0.56429 0.9634 0.40525 0.0
H551 H 0.63013 0.01852 0.34705 0.0
C552 C 0.64358 0.99077 0.27174 0.0
C553 C 0.63955 0.96744 0.23988 0.0
C554 C 0.56803 0.98151 0.42841 0.0
C555 C 0.60502 0.98701 0.34203 0.0
C556 C 0.55374 0.98993 0.48909 0.0
C557 C 0.55892 0.01292 0.52186 0.0
C558 C 0.58761 -0.00381 0.40069 0.0
C559 C 0.57781 0.02748 0.49007 0.0
C560 C 0.62637 0.00063 0.32238 0.0
C561 C 0.61759 0.95472 0.25903 0.0
N562 N 0.59157 0.01878 0.43182 0.0
N563 N 0.60125 0.96457 0.30941 0.0
H564 H 0.41654 0.6365 0.23602 0.0
H565 H 0.51455 0.56165 0.48712 0.0
H566 H 0.49649 0.63943 0.20229 0.0
H567 H 0.43516 0.56569 0.53063 0.0
H568 H 0.50819 0.58602 0.37316 0.0
H569 H 0.42287 0.60587 0.33398 0.0
C570 C 0.43541 0.63052 0.2487 0.0
C571 C 0.45603 0.64076 0.21164 0.0
C572 C 0.49218 0.58143 0.4076 0.0
C573 C 0.46345 0.60585 0.32409 0.0
C574 C 0.49581 0.56756 0.47254 0.0
C575 C 0.4754 0.5619 0.51875 0.0
C576 C 0.46798 0.58953 0.38892 0.0
C577 C 0.45149 0.56988 0.49715 0.0
C578 C 0.43903 0.61308 0.3048 0.0
C579 C 0.48006 0.6322 0.23003 0.0
N580 N 0.44847 0.58335 0.43402 0.0
N581 N 0.48314 0.61538 0.2855 0.0
H582 H 0.81089 0.50874 0.20318 0.0
H583 H 0.90998 0.54001 0.52359 0.0
H584 H 0.79003 0.54062 0.41583 0.0
H585 H 0.91252 0.47292 0.39351 0.0
H586 H 0.87245 0.55277 0.45392 0.0
H587 H 0.85478 0.50818 0.24399 0.0
C588 C 0.81566 0.51636 0.2574 0.0
C589 C 0.79695 0.52478 0.30653 0.0
C590 C 0.88171 0.5356 0.43943 0.0
C591 C 0.84676 0.52434 0.35267 0.0
C592 C 0.90313 0.52842 0.47861 0.0
C593 C 0.91413 0.50539 0.46407 0.0
C594 C 0.87178 0.51985 0.38452 0.0
C595 C 0.90439 0.49077 0.40629 0.0
C596 C 0.8406 0.5159 0.28068 0.0
C597 C 0.80401 0.53398 0.37664 0.0
N598 N 0.88366 0.4982 0.36867 0.0
N599 N 0.82839 0.53347 0.39788 0.0
loop_
_geom_bond_atom_site_label_1
_geom_bond_atom_site_label_2
_geom_bond_distance
_geom_bond_site_symmetry_2
_ccdc_geom_bond_type
O0 Cd1 2.300 . S
O0 C7 1.275 . S
Cd1 O0 2.300 . S
Cd1 O9 2.381 . S
Cd1 O10 2.378 1_556 S
O2 Cd3 2.385 . S
O2 C7 1.255 1_554 S
Cd3 O2 2.385 . S
Cd3 O4 2.317 . S
O4 Cd3 2.317 . S
O4 C5 1.232 . S
C5 O4 1.232 . S
C5 O6 1.218 . S
O6 C5 1.218 . S
C7 O0 1.275 . S
C7 O2 1.255 1_556 S
C8 O9 1.258 . S
C8 O10 1.256 1_556 S
O9 Cd1 2.381 . S
O9 C8 1.258 . S
O10 Cd1 2.378 1_554 S
O10 C8 1.256 1_554 S
O11 Cd12 2.300 1_656 S
O11 C18 1.275 1_655 S
Cd12 O11 2.300 1_454 S
Cd12 O20 2.381 1_454 S
Cd12 O21 2.378 . S
O13 Cd14 2.385 . S
O13 C18 1.255 1_554 S
Cd14 O13 2.385 . S
Cd14 O15 2.317 . S
O15 Cd14 2.317 . S
O15 C16 1.232 . S
C16 O15 1.232 . S
C16 O17 1.218 . S
O17 C16 1.218 . S
C18 O11 1.275 1_455 S
C18 O13 1.255 1_556 S
C19 O20 1.258 1_455 S
C19 O21 1.256 1_556 S
O20 Cd12 2.381 1_656 S
O20 C19 1.258 1_655 S
O21 Cd12 2.378 . S
O21 C19 1.256 1_554 S
O22 Cd23 2.295 1_556 S
O22 C29 1.275 . S
Cd23 O22 2.295 1_554 S
Cd23 O31 2.377 1_554 S
Cd23 O32 2.380 . S
O24 Cd25 2.385 1_565 S
O24 C29 1.255 1_554 S
Cd25 O24 2.385 1_545 S
Cd25 O26 2.317 1_545 S
O26 Cd25 2.317 1_565 S
O26 C27 1.232 . S
C27 O26 1.232 . S
C27 O28 1.218 . S
O28 C27 1.218 . S
C29 O22 1.275 . S
C29 O24 1.255 1_556 S
C30 O31 1.258 . S
C30 O32 1.256 1_556 S
O31 Cd23 2.377 1_556 S
O31 C30 1.258 . S
O32 Cd23 2.380 . S
O32 C30 1.256 1_554 S
O33 Cd34 2.300 1_556 S
O33 C40 1.275 . S
Cd34 O33 2.300 1_554 S
Cd34 O42 2.381 1_554 S
Cd34 O43 2.378 . S
O35 Cd36 2.385 . S
O35 C40 1.255 1_554 S
Cd36 O35 2.385 . S
Cd36 O37 2.317 . S
O37 Cd36 2.317 . S
O37 C38 1.232 . S
C38 O37 1.232 . S
C38 O39 1.218 . S
O39 C38 1.218 . S
C40 O33 1.275 . S
C40 O35 1.255 1_556 S
C41 O42 1.258 . S
C41 O43 1.256 1_556 S
O42 Cd34 2.381 1_556 S
O42 C41 1.258 . S
O43 Cd34 2.378 . S
O43 C41 1.256 1_554 S
O44 Cd45 2.300 . S
O44 C51 1.275 . S
Cd45 O44 2.300 . S
Cd45 O53 2.381 . S
Cd45 O54 2.378 . S
O46 Cd47 2.385 . S
O46 C51 1.255 . S
Cd47 O46 2.385 . S
Cd47 O48 2.317 . S
O48 Cd47 2.317 . S
O48 C49 1.232 . S
C49 O48 1.232 . S
C49 O50 1.218 . S
O50 C49 1.218 . S
C51 O44 1.275 . S
C51 O46 1.255 . S
C52 O53 1.258 . S
C52 O54 1.256 . S
O53 Cd45 2.381 . S
O53 C52 1.258 . S
O54 Cd45 2.378 . S
O54 C52 1.256 . S
O55 Cd56 2.300 1_655 S
O55 C62 1.275 1_655 S
Cd56 O55 2.300 1_455 S
Cd56 O64 2.381 1_455 S
Cd56 O65 2.378 . S
O57 Cd58 2.385 . S
O57 C62 1.255 . S
Cd58 O57 2.385 . S
Cd58 O59 2.317 . S
O59 Cd58 2.317 . S
O59 C60 1.232 . S
C60 O59 1.232 . S
C60 O61 1.218 . S
O61 C60 1.218 . S
C62 O55 1.275 1_455 S
C62 O57 1.255 . S
C63 O64 1.258 1_455 S
C63 O65 1.256 . S
O64 Cd56 2.381 1_655 S
O64 C63 1.258 1_655 S
O65 Cd56 2.378 . S
O65 C63 1.256 . S
O66 Cd67 2.300 . S
O66 C73 1.275 . S
Cd67 O66 2.300 . S
Cd67 O75 2.381 . S
Cd67 O76 2.378 . S
O68 Cd69 2.385 . S
O68 C73 1.255 . S
Cd69 O68 2.385 . S
Cd69 O70 2.317 . S
O70 Cd69 2.317 . S
O70 C71 1.232 . S
C71 O70 1.232 . S
C71 O72 1.218 . S
O72 C71 1.218 . S
C73 O66 1.275 . S
C73 O68 1.255 . S
C74 O75 1.258 . S
C74 O76 1.256 . S
O75 Cd67 2.381 . S
O75 C74 1.258 . S
O76 Cd67 2.378 . S
O76 C74 1.256 . S
O77 Cd78 2.300 . S
O77 C84 1.275 . S
Cd78 O77 2.300 . S
Cd78 O86 2.381 . S
Cd78 O87 2.378 . S
O79 Cd80 2.385 . S
O79 C84 1.255 . S
Cd80 O79 2.385 . S
Cd80 O81 2.317 . S
O81 Cd80 2.317 . S
O81 C82 1.232 . S
C82 O81 1.232 . S
C82 O83 1.218 . S
O83 C82 1.218 . S
C84 O77 1.275 . S
C84 O79 1.255 . S
C85 O86 1.258 . S
C85 O87 1.256 . S
O86 Cd78 2.381 . S
O86 C85 1.258 . S
O87 Cd78 2.378 . S
O87 C85 1.256 . S
Zn88 O94 1.969 . S
Zn88 O95 1.965 1_655 S
Zn88 O99 2.024 1_655 S
Zn88 O104 1.969 . S
Zn89 O96 1.969 . S
Zn89 O102 1.969 . S
Zn89 O103 1.965 1_455 S
Zn89 O105 2.024 1_455 S
C90 O91 1.229 1_455 S
C90 O99 1.058 . S
O91 C90 1.229 1_655 S
C92 O93 1.229 1_655 S
C92 O105 1.058 . S
O93 C92 1.229 1_455 S
O94 Zn88 1.969 . S
O94 C97 1.267 . S
O95 Zn88 1.965 1_455 S
O95 C106 1.260 . S
O96 Zn89 1.969 . S
O96 C106 1.258 1_565 S
C97 O94 1.267 . S
C97 O98 1.228 1_655 S
O98 C97 1.228 1_455 S
O99 Zn88 2.024 1_455 S
O99 C90 1.058 . S
C100 O101 1.228 1_455 S
C100 O102 1.267 . S
O101 C100 1.228 1_655 S
O102 Zn89 1.969 . S
O102 C100 1.267 . S
O103 Zn89 1.965 1_655 S
O103 C107 1.260 1_565 S
O104 Zn88 1.969 . S
O104 C107 1.258 . S
O105 Zn89 2.024 1_655 S
O105 C92 1.058 . S
C106 O95 1.260 . S
C106 O96 1.258 1_545 S
C107 O103 1.260 1_545 S
C107 O104 1.258 . S
Zn108 O114 1.973 . S
Zn108 O115 1.965 . S
Zn108 O119 2.024 . S
Zn108 O124 1.969 1_545 S
Zn109 O116 1.969 . S
Zn109 O122 1.969 . S
Zn109 O123 1.965 1_545 S
Zn109 O125 2.024 1_545 S
C110 O111 1.229 . S
C110 O119 1.058 . S
O111 C110 1.229 . S
C112 O113 1.229 1_565 S
C112 O125 1.058 . S
O113 C112 1.229 1_545 S
O114 Zn108 1.973 . S
O114 C117 1.276 . S
O115 Zn108 1.965 . S
O115 C126 1.260 . S
O116 Zn109 1.969 . S
O116 C126 1.258 . S
C117 O114 1.276 . S
C117 O118 1.228 . S
O118 C117 1.228 . S
O119 Zn108 2.024 . S
O119 C110 1.058 . S
C120 O121 1.228 . S
C120 O122 1.267 1_565 S
O121 C120 1.228 . S
O122 Zn109 1.969 . S
O122 C120 1.267 1_545 S
O123 Zn109 1.965 1_565 S
O123 C127 1.260 . S
O124 Zn108 1.969 1_565 S
O124 C127 1.258 . S
O125 Zn109 2.024 1_565 S
O125 C112 1.058 . S
C126 O115 1.260 . S
C126 O116 1.258 . S
C127 O123 1.260 . S
C127 O124 1.258 . S
Zn128 O134 1.969 . S
Zn128 O135 1.965 . S
Zn128 O139 2.024 . S
Zn128 O144 1.969 . S
Zn129 O136 1.969 . S
Zn129 O142 1.969 . S
Zn129 O143 1.965 . S
Zn129 O145 2.024 . S
C130 O131 1.229 . S
C130 O139 1.058 . S
O131 C130 1.229 . S
C132 O133 1.229 . S
C132 O145 1.058 . S
O133 C132 1.229 . S
O134 Zn128 1.969 . S
O134 C137 1.267 . S
O135 Zn128 1.965 . S
O135 C146 1.260 . S
O136 Zn129 1.969 . S
O136 C146 1.258 . S
C137 O134 1.267 . S
C137 O138 1.228 . S
O138 C137 1.228 . S
O139 Zn128 2.024 . S
O139 C130 1.058 . S
C140 O141 1.228 . S
C140 O142 1.267 . S
O141 C140 1.228 . S
O142 Zn129 1.969 . S
O142 C140 1.267 . S
O143 Zn129 1.965 . S
O143 C147 1.260 . S
O144 Zn128 1.969 . S
O144 C147 1.258 . S
O145 Zn129 2.024 . S
O145 C132 1.058 . S
C146 O135 1.260 . S
C146 O136 1.258 . S
C147 O143 1.260 . S
C147 O144 1.258 . S
Zn148 O154 1.969 . S
Zn148 O155 1.965 . S
Zn148 O159 2.024 . S
Zn148 O164 1.969 . S
Zn149 O156 1.969 . S
Zn149 O162 1.969 . S
Zn149 O163 1.965 . S
Zn149 O165 2.024 . S
C150 O151 1.229 . S
C150 O159 1.058 . S
O151 C150 1.229 . S
C152 O153 1.229 . S
C152 O165 1.058 . S
O153 C152 1.229 . S
O154 Zn148 1.969 . S
O154 C157 1.267 . S
O155 Zn148 1.965 . S
O155 C166 1.260 1_455 S
O156 Zn149 1.969 . S
O156 C166 1.258 . S
C157 O154 1.267 . S
C157 O158 1.228 . S
O158 C157 1.228 . S
O159 Zn148 2.024 . S
O159 C150 1.058 . S
C160 O161 1.228 . S
C160 O162 1.267 . S
O161 C160 1.228 . S
O162 Zn149 1.969 . S
O162 C160 1.267 . S
O163 Zn149 1.965 . S
O163 C167 1.260 1_655 S
O164 Zn148 1.969 . S
O164 C167 1.258 . S
O165 Zn149 2.024 . S
O165 C152 1.058 . S
C166 O155 1.260 1_655 S
C166 O156 1.258 . S
C167 O163 1.260 1_455 S
C167 O164 1.258 . S
H168 C174 0.930 . S
H169 C178 0.930 . S
H170 C183 0.929 . S
H171 C181 0.929 . S
H172 C176 0.929 . S
H173 C182 0.929 . S
C174 H168 0.930 . S
C174 C175 1.367 . S
C174 C182 1.378 . S
C175 C174 1.367 . S
C175 C183 1.433 . S
C176 H172 0.929 . S
C176 C178 1.378 . S
C176 C180 1.350 . S
C177 C180 1.463 . S
C177 C182 1.350 . S
C177 N185 1.427 . S
C178 H169 0.930 . S
C178 C176 1.378 . S
C178 C179 1.367 . S
C179 C178 1.367 . S
C179 C181 1.433 . S
C180 C176 1.350 . S
C180 C177 1.463 . S
C180 N184 1.427 . S
C181 H171 0.929 . S
C181 C179 1.433 . S
C181 N184 1.384 . S
C182 H173 0.929 . S
C182 C174 1.378 . S
C182 C177 1.350 . S
C183 H170 0.929 . S
C183 C175 1.433 . S
C183 N185 1.384 . S
N184 C180 1.427 . S
N184 C181 1.384 . S
N185 C177 1.427 . S
N185 C183 1.384 . S
H186 C192 0.930 . S
H187 C196 0.930 . S
H188 C201 0.929 . S
H189 C199 0.929 . S
H190 C194 0.929 . S
H191 C200 0.929 . S
C192 H186 0.930 . S
C192 C193 1.367 . S
C192 C200 1.378 . S
C193 C192 1.367 . S
C193 C201 1.433 . S
C194 H190 0.929 . S
C194 C196 1.378 . S
C194 C198 1.350 . S
C195 C198 1.463 . S
C195 C200 1.350 . S
C195 N203 1.427 . S
C196 H187 0.930 . S
C196 C194 1.378 . S
C196 C197 1.367 . S
C197 C196 1.367 . S
C197 C199 1.433 . S
C198 C194 1.350 . S
C198 C195 1.463 . S
C198 N202 1.427 . S
C199 H189 0.929 . S
C199 C197 1.433 . S
C199 N202 1.384 . S
C200 H191 0.929 . S
C200 C192 1.378 . S
C200 C195 1.350 . S
C201 H188 0.929 . S
C201 C193 1.433 . S
C201 N203 1.384 . S
N202 C198 1.427 . S
N202 C199 1.384 . S
N203 C195 1.427 . S
N203 C201 1.384 . S
H204 C210 0.930 . S
H205 C214 0.930 . S
H206 C219 0.929 . S
H207 C217 0.929 . S
H208 C212 0.929 . S
H209 C218 0.929 . S
C210 H204 0.930 . S
C210 C211 1.367 . S
C210 C218 1.378 . S
C211 C210 1.367 . S
C211 C219 1.433 . S
C212 H208 0.929 . S
C212 C214 1.378 . S
C212 C216 1.350 . S
C213 C216 1.463 . S
C213 C218 1.350 . S
C213 N221 1.427 . S
C214 H205 0.930 . S
C214 C212 1.378 . S
C214 C215 1.367 . S
C215 C214 1.367 . S
C215 C217 1.433 . S
C216 C212 1.350 . S
C216 C213 1.463 . S
C216 N220 1.427 . S
C217 H207 0.929 . S
C217 C215 1.433 . S
C217 N220 1.384 . S
C218 H209 0.929 . S
C218 C210 1.378 . S
C218 C213 1.350 . S
C219 H206 0.929 . S
C219 C211 1.433 . S
C219 N221 1.384 . S
N220 C216 1.427 . S
N220 C217 1.384 . S
N221 C213 1.427 . S
N221 C219 1.384 . S
H222 C228 0.930 . S
H223 C232 0.930 . S
H224 C237 0.929 . S
H225 C235 0.929 . S
H226 C230 0.929 . S
H227 C236 0.929 . S
C228 H222 0.930 . S
C228 C229 1.375 . S
C228 C236 1.378 . S
C229 C228 1.375 . S
C229 C237 1.426 1_655 S
C230 H226 0.929 . S
C230 C232 1.378 . S
C230 C234 1.330 1_455 S
C231 C234 1.464 . S
C231 C236 1.350 . S
C231 N239 1.427 1_655 S
C232 H223 0.930 . S
C232 C230 1.378 . S
C232 C233 1.367 1_455 S
C233 C232 1.367 1_655 S
C233 C235 1.433 . S
C234 C230 1.330 1_655 S
C234 C231 1.464 . S
C234 N238 1.450 . S
C235 H225 0.929 . S
C235 C233 1.433 . S
C235 N238 1.384 . S
C236 H227 0.929 . S
C236 C228 1.378 . S
C236 C231 1.350 . S
C237 H224 0.929 . S
C237 C229 1.426 1_455 S
C237 N239 1.384 . S
N238 C234 1.450 . S
N238 C235 1.384 . S
N239 C231 1.427 1_455 S
N239 C237 1.384 . S
H240 C246 0.930 . S
H241 C250 0.928 1_545 S
H242 C255 0.929 1_554 S
H243 C253 0.929 . S
H244 C248 0.929 . S
H245 C254 0.929 . S
C246 H240 0.930 . S
C246 C247 1.367 . S
C246 C254 1.378 . S
C247 C246 1.367 . S
C247 C255 1.433 . S
C248 H244 0.929 . S
C248 C250 1.378 . S
C248 C252 1.350 . S
C249 C252 1.463 . S
C249 C254 1.350 . S
C249 N257 1.427 . S
C250 H241 0.928 1_565 S
C250 C248 1.378 . S
C250 C251 1.367 . S
C251 C250 1.367 . S
C251 C253 1.433 . S
C252 C248 1.350 . S
C252 C249 1.463 . S
C252 N256 1.427 . S
C253 H243 0.929 . S
C253 C251 1.433 . S
C253 N256 1.384 . S
C254 H245 0.929 . S
C254 C246 1.378 . S
C254 C249 1.350 . S
C255 H242 0.929 1_556 S
C255 C247 1.433 . S
C255 N257 1.384 . S
N256 C252 1.427 . S
N256 C253 1.384 . S
N257 C249 1.427 . S
N257 C255 1.384 . S
H258 C264 0.930 1_554 S
H259 C268 0.930 . S
H260 C273 0.929 . S
H261 C271 0.929 . S
H262 C266 0.929 . S
H263 C272 0.929 . S
C264 H258 0.930 1_556 S
C264 C265 1.367 . S
C264 C272 1.378 . S
C265 C264 1.367 . S
C265 C273 1.433 . S
C266 H262 0.929 . S
C266 C268 1.378 . S
C266 C270 1.350 . S
C267 C270 1.463 . S
C267 C272 1.350 . S
C267 N275 1.427 . S
C268 H259 0.930 . S
C268 C266 1.378 . S
C268 C269 1.367 . S
C269 C268 1.367 . S
C269 C271 1.433 . S
C270 C266 1.350 . S
C270 C267 1.463 . S
C270 N274 1.427 . S
C271 H261 0.929 . S
C271 C269 1.433 . S
C271 N274 1.384 . S
C272 H263 0.929 . S
C272 C264 1.378 . S
C272 C267 1.350 . S
C273 H260 0.929 . S
C273 C265 1.433 . S
C273 N275 1.384 . S
N274 C270 1.427 . S
N274 C271 1.384 . S
N275 C267 1.427 . S
N275 C273 1.384 . S
H276 C282 0.930 . S
H277 C286 0.930 . S
H278 C291 0.929 . S
H279 C289 0.929 . S
H280 C284 0.929 . S
H281 C290 0.929 . S
C282 H276 0.930 . S
C282 C283 1.367 . S
C282 C290 1.378 . S
C283 C282 1.367 . S
C283 C291 1.433 . S
C284 H280 0.929 . S
C284 C286 1.378 . S
C284 C288 1.350 . S
C285 C288 1.463 . S
C285 C290 1.350 . S
C285 N293 1.427 . S
C286 H277 0.930 . S
C286 C284 1.378 . S
C286 C287 1.367 . S
C287 C286 1.367 . S
C287 C289 1.433 . S
C288 C284 1.350 . S
C288 C285 1.463 . S
C288 N292 1.427 . S
C289 H279 0.929 . S
C289 C287 1.433 . S
C289 N292 1.384 . S
C290 H281 0.929 . S
C290 C282 1.378 . S
C290 C285 1.350 . S
C291 H278 0.929 . S
C291 C283 1.433 . S
C291 N293 1.384 . S
N292 C288 1.427 . S
N292 C289 1.384 . S
N293 C285 1.427 . S
N293 C291 1.384 . S
H294 C300 0.930 . S
H295 C304 0.930 . S
H296 C309 0.929 . S
H297 C307 0.929 . S
H298 C302 0.929 . S
H299 C308 0.929 . S
C300 H294 0.930 . S
C300 C301 1.389 . S
C300 C308 1.378 . S
C301 C300 1.389 . S
C301 C309 1.411 1_455 S
C302 H298 0.929 . S
C302 C304 1.378 . S
C302 C306 1.327 1_655 S
C303 C306 1.464 . S
C303 C308 1.350 . S
C303 N311 1.427 1_455 S
C304 H295 0.930 . S
C304 C302 1.378 . S
C304 C305 1.367 1_655 S
C305 C304 1.367 1_455 S
C305 C307 1.433 . S
C306 C302 1.327 1_455 S
C306 C303 1.464 . S
C306 N310 1.451 . S
C307 H297 0.929 . S
C307 C305 1.433 . S
C307 N310 1.384 . S
C308 H299 0.929 . S
C308 C300 1.378 . S
C308 C303 1.350 . S
C309 H296 0.929 . S
C309 C301 1.411 1_655 S
C309 N311 1.384 . S
N310 C306 1.451 . S
N310 C307 1.384 . S
N311 C303 1.427 1_655 S
N311 C309 1.384 . S
H312 C318 0.930 . S
H313 C322 0.930 . S
H314 C327 0.929 . S
H315 C325 0.929 . S
H316 C320 0.929 . S
H317 C326 0.929 . S
C318 H312 0.930 . S
C318 C319 1.393 . S
C318 C326 1.378 . S
C319 C318 1.393 . S
C319 C327 1.409 1_655 S
C320 H316 0.929 . S
C320 C322 1.378 . S
C320 C324 1.350 1_455 S
C321 C324 1.463 . S
C321 C326 1.350 . S
C321 N329 1.427 1_655 S
C322 H313 0.930 . S
C322 C320 1.378 . S
C322 C323 1.367 1_455 S
C323 C322 1.367 1_655 S
C323 C325 1.433 . S
C324 C320 1.350 1_655 S
C324 C321 1.463 . S
C324 N328 1.427 . S
C325 H315 0.929 . S
C325 C323 1.433 . S
C325 N328 1.384 . S
C326 H317 0.929 . S
C326 C318 1.378 . S
C326 C321 1.350 . S
C327 H314 0.929 . S
C327 C319 1.409 1_455 S
C327 N329 1.384 . S
N328 C324 1.427 . S
N328 C325 1.384 . S
N329 C321 1.427 1_455 S
N329 C327 1.384 . S
H330 C336 0.930 . S
H331 C340 0.930 . S
H332 C345 0.929 . S
H333 C343 0.929 . S
H334 C338 0.929 . S
H335 C344 0.929 . S
C336 H330 0.930 . S
C336 C337 1.367 . S
C336 C344 1.378 . S
C337 C336 1.367 . S
C337 C345 1.433 . S
C338 H334 0.929 . S
C338 C340 1.378 . S
C338 C342 1.350 . S
C339 C342 1.463 . S
C339 C344 1.350 . S
C339 N347 1.427 . S
C340 H331 0.930 . S
C340 C338 1.378 . S
C340 C341 1.367 . S
C341 C340 1.367 . S
C341 C343 1.433 . S
C342 C338 1.350 . S
C342 C339 1.463 . S
C342 N346 1.427 . S
C343 H333 0.929 . S
C343 C341 1.433 . S
C343 N346 1.384 . S
C344 H335 0.929 . S
C344 C336 1.378 . S
C344 C339 1.350 . S
C345 H332 0.929 . S
C345 C337 1.433 . S
C345 N347 1.384 . S
N346 C342 1.427 . S
N346 C343 1.384 . S
N347 C339 1.427 . S
N347 C345 1.384 . S
H348 C354 0.930 . S
H349 C358 0.930 . S
H350 C363 0.929 . S
H351 C361 0.929 . S
H352 C356 0.929 . S
H353 C362 0.929 . S
C354 H348 0.930 . S
C354 C355 1.367 . S
C354 C362 1.378 . S
C355 C354 1.367 . S
C355 C363 1.433 . S
C356 H352 0.929 . S
C356 C358 1.378 . S
C356 C360 1.350 . S
C357 C360 1.463 . S
C357 C362 1.350 . S
C357 N365 1.427 . S
C358 H349 0.930 . S
C358 C356 1.378 . S
C358 C359 1.367 . S
C359 C358 1.367 . S
C359 C361 1.433 . S
C360 C356 1.350 . S
C360 C357 1.463 . S
C360 N364 1.427 . S
C361 H351 0.929 . S
C361 C359 1.433 . S
C361 N364 1.384 . S
C362 H353 0.929 . S
C362 C354 1.378 . S
C362 C357 1.350 . S
C363 H350 0.929 . S
C363 C355 1.433 . S
C363 N365 1.384 . S
N364 C360 1.427 . S
N364 C361 1.384 . S
N365 C357 1.427 . S
N365 C363 1.384 . S
H366 C372 0.930 . S
H367 C376 0.930 . S
H368 C381 0.929 . S
H369 C379 0.929 . S
H370 C374 0.929 . S
H371 C380 0.929 . S
C372 H366 0.930 . S
C372 C373 1.367 . S
C372 C380 1.378 . S
C373 C372 1.367 . S
C373 C381 1.433 . S
C374 H370 0.929 . S
C374 C376 1.378 . S
C374 C378 1.350 . S
C375 C378 1.463 . S
C375 C380 1.350 . S
C375 N383 1.427 . S
C376 H367 0.930 . S
C376 C374 1.378 . S
C376 C377 1.367 . S
C377 C376 1.367 . S
C377 C379 1.433 . S
C378 C374 1.350 . S
C378 C375 1.463 . S
C378 N382 1.427 . S
C379 H369 0.929 . S
C379 C377 1.433 . S
C379 N382 1.384 . S
C380 H371 0.929 . S
C380 C372 1.378 . S
C380 C375 1.350 . S
C381 H368 0.929 . S
C381 C373 1.433 . S
C381 N383 1.384 . S
N382 C378 1.427 . S
N382 C379 1.384 . S
N383 C375 1.427 . S
N383 C381 1.384 . S
H384 C390 0.930 . S
H385 C394 0.930 . S
H386 C399 0.929 . S
H387 C397 0.929 . S
H388 C392 0.929 . S
H389 C398 0.929 . S
C390 H384 0.930 . S
C390 C391 1.378 . S
C390 C398 1.378 . S
C391 C390 1.378 . S
C391 C399 1.421 1_655 S
C392 H388 0.929 . S
C392 C394 1.378 . S
C392 C396 1.350 . S
C393 C396 1.463 . S
C393 C398 1.350 1_455 S
C393 N401 1.427 . S
C394 H385 0.930 . S
C394 C392 1.378 . S
C394 C395 1.367 . S
C395 C394 1.367 . S
C395 C397 1.433 1_455 S
C396 C392 1.350 . S
C396 C393 1.463 . S
C396 N400 1.427 1_455 S
C397 H387 0.929 . S
C397 C395 1.433 1_655 S
C397 N400 1.384 . S
C398 H389 0.929 . S
C398 C390 1.378 . S
C398 C393 1.350 1_655 S
C399 H386 0.929 . S
C399 C391 1.421 1_455 S
C399 N401 1.384 . S
N400 C396 1.427 1_655 S
N400 C397 1.384 . S
N401 C393 1.427 . S
N401 C399 1.384 . S
H402 C408 0.930 . S
H403 C412 0.930 . S
H404 C417 0.929 . S
H405 C415 0.929 . S
H406 C410 0.929 . S
H407 C416 0.929 1_545 S
C408 H402 0.930 . S
C408 C409 1.367 . S
C408 C416 1.378 . S
C409 C408 1.367 . S
C409 C417 1.433 . S
C410 H406 0.929 . S
C410 C412 1.378 . S
C410 C414 1.350 . S
C411 C414 1.463 . S
C411 C416 1.350 . S
C411 N419 1.427 . S
C412 H403 0.930 . S
C412 C410 1.378 . S
C412 C413 1.377 . S
C413 C412 1.377 . S
C413 C415 1.426 1_565 S
C414 C410 1.350 . S
C414 C411 1.463 . S
C414 N418 1.427 1_565 S
C415 H405 0.929 . S
C415 C413 1.426 1_545 S
C415 N418 1.384 . S
C416 H407 0.929 1_565 S
C416 C408 1.378 . S
C416 C411 1.350 . S
C417 H404 0.929 . S
C417 C409 1.433 . S
C417 N419 1.384 . S
N418 C414 1.427 1_545 S
N418 C415 1.384 . S
N419 C411 1.427 . S
N419 C417 1.384 . S
H420 C426 0.930 . S
H421 C430 0.930 . S
H422 C435 0.929 1_554 S
H423 C433 0.929 . S
H424 C428 0.929 . S
H425 C434 0.929 . S
C426 H420 0.930 . S
C426 C427 1.367 . S
C426 C434 1.378 . S
C427 C426 1.367 . S
C427 C435 1.433 . S
C428 H424 0.929 . S
C428 C430 1.378 . S
C428 C432 1.350 . S
C429 C432 1.463 . S
C429 C434 1.350 . S
C429 N437 1.427 . S
C430 H421 0.930 . S
C430 C428 1.378 . S
C430 C431 1.367 . S
C431 C430 1.367 . S
C431 C433 1.433 . S
C432 C428 1.350 . S
C432 C429 1.463 . S
C432 N436 1.427 . S
C433 H423 0.929 . S
C433 C431 1.433 . S
C433 N436 1.384 . S
C434 H425 0.929 . S
C434 C426 1.378 . S
C434 C429 1.350 . S
C435 H422 0.929 1_556 S
C435 C427 1.433 . S
C435 N437 1.384 . S
N436 C432 1.427 . S
N436 C433 1.384 . S
N437 C429 1.427 . S
N437 C435 1.384 . S
H438 C444 0.930 . S
H439 C448 0.930 . S
H440 C453 0.929 1_554 S
H441 C451 0.929 . S
H442 C446 0.929 . S
H443 C452 0.929 . S
C444 H438 0.930 . S
C444 C445 1.367 . S
C444 C452 1.378 . S
C445 C444 1.367 . S
C445 C453 1.433 . S
C446 H442 0.929 . S
C446 C448 1.378 . S
C446 C450 1.350 . S
C447 C450 1.463 . S
C447 C452 1.350 . S
C447 N455 1.427 . S
C448 H439 0.930 . S
C448 C446 1.378 . S
C448 C449 1.367 . S
C449 C448 1.367 . S
C449 C451 1.433 . S
C450 C446 1.350 . S
C450 C447 1.463 . S
C450 N454 1.427 . S
C451 H441 0.929 . S
C451 C449 1.433 . S
C451 N454 1.384 . S
C452 H443 0.929 . S
C452 C444 1.378 . S
C452 C447 1.350 . S
C453 H440 0.929 1_556 S
C453 C445 1.433 . S
C453 N455 1.384 . S
N454 C450 1.427 . S
N454 C451 1.384 . S
N455 C447 1.427 . S
N455 C453 1.384 . S
H456 C462 0.930 . S
H457 C466 0.925 1_655 S
H458 C471 0.929 . S
H459 C469 0.929 . S
H460 C464 0.923 1_655 S
H461 C470 0.929 . S
C462 H456 0.930 . S
C462 C463 1.367 . S
C462 C470 1.378 . S
C463 C462 1.367 . S
C463 C471 1.433 1_454 S
C464 H460 0.923 1_455 S
C464 C466 1.380 . S
C464 C468 1.355 . S
C465 C468 1.463 . S
C465 C470 1.350 1_556 S
C465 N473 1.427 1_455 S
C466 H457 0.925 1_455 S
C466 C464 1.380 . S
C466 C467 1.367 . S
C467 C466 1.367 . S
C467 C469 1.433 . S
C468 C464 1.355 . S
C468 C465 1.463 . S
C468 N472 1.427 . S
C469 H459 0.929 . S
C469 C467 1.433 . S
C469 N472 1.384 . S
C470 H461 0.929 . S
C470 C462 1.378 . S
C470 C465 1.350 1_554 S
C471 H458 0.929 . S
C471 C463 1.433 1_656 S
C471 N473 1.384 . S
N472 C468 1.427 . S
N472 C469 1.384 . S
N473 C465 1.427 1_655 S
N473 C471 1.384 . S
H474 C480 0.930 . S
H475 C484 0.930 . S
H476 C489 0.929 . S
H477 C487 0.929 . S
H478 C482 0.929 . S
H479 C488 0.929 . S
C480 H474 0.930 . S
C480 C481 1.367 . S
C480 C488 1.378 1_554 S
C481 C480 1.367 . S
C481 C489 1.433 1_554 S
C482 H478 0.929 . S
C482 C484 1.378 . S
C482 C486 1.350 . S
C483 C486 1.463 . S
C483 C488 1.350 . S
C483 N491 1.427 . S
C484 H475 0.930 . S
C484 C482 1.378 . S
C484 C485 1.367 . S
C485 C484 1.367 . S
C485 C487 1.433 . S
C486 C482 1.350 . S
C486 C483 1.463 . S
C486 N490 1.427 . S
C487 H477 0.929 . S
C487 C485 1.433 . S
C487 N490 1.384 . S
C488 H479 0.929 . S
C488 C480 1.378 1_556 S
C488 C483 1.350 . S
C489 H476 0.929 . S
C489 C481 1.433 1_556 S
C489 N491 1.384 . S
N490 C486 1.427 . S
N490 C487 1.384 . S
N491 C483 1.427 . S
N491 C489 1.384 . S
H492 C498 0.930 . S
H493 C502 0.930 . S
H494 C507 0.929 . S
H495 C505 0.929 . S
H496 C500 0.929 . S
H497 C506 0.929 . S
C498 H492 0.930 . S
C498 C499 1.367 . S
C498 C506 1.378 . S
C499 C498 1.367 . S
C499 C507 1.433 1_554 S
C500 H496 0.929 . S
C500 C502 1.378 . S
C500 C504 1.350 . S
C501 C504 1.463 . S
C501 C506 1.349 1_556 S
C501 N509 1.427 . S
C502 H493 0.930 . S
C502 C500 1.378 . S
C502 C503 1.367 . S
C503 C502 1.367 . S
C503 C505 1.433 . S
C504 C500 1.350 . S
C504 C501 1.463 . S
C504 N508 1.427 . S
C505 H495 0.929 . S
C505 C503 1.433 . S
C505 N508 1.384 . S
C506 H497 0.929 . S
C506 C498 1.378 . S
C506 C501 1.349 1_554 S
C507 H494 0.929 . S
C507 C499 1.433 1_556 S
C507 N509 1.384 . S
N508 C504 1.427 . S
N508 C505 1.384 . S
N509 C501 1.427 . S
N509 C507 1.384 . S
H510 C516 0.930 . S
H511 C520 0.930 . S
H512 C525 0.929 . S
H513 C523 0.929 . S
H514 C518 0.929 . S
H515 C524 0.929 . S
C516 H510 0.930 . S
C516 C517 1.367 . S
C516 C524 1.378 1_554 S
C517 C516 1.367 . S
C517 C525 1.433 1_554 S
C518 H514 0.929 . S
C518 C520 1.378 . S
C518 C522 1.350 . S
C519 C522 1.463 . S
C519 C524 1.350 . S
C519 N527 1.427 . S
C520 H511 0.930 . S
C520 C518 1.378 . S
C520 C521 1.367 . S
C521 C520 1.367 . S
C521 C523 1.433 . S
C522 C518 1.350 . S
C522 C519 1.463 . S
C522 N526 1.427 . S
C523 H513 0.929 . S
C523 C521 1.433 . S
C523 N526 1.384 . S
C524 H515 0.929 . S
C524 C516 1.378 1_556 S
C524 C519 1.350 . S
C525 H512 0.929 . S
C525 C517 1.433 1_556 S
C525 N527 1.384 . S
N526 C522 1.427 . S
N526 C523 1.384 . S
N527 C519 1.427 . S
N527 C525 1.384 . S
H528 C534 0.930 . S
H529 C538 0.930 . S
H530 C543 0.929 . S
H531 C541 0.929 . S
H532 C536 0.929 . S
H533 C542 0.929 . S
C534 H528 0.930 . S
C534 C535 1.367 . S
C534 C542 1.378 . S
C535 C534 1.367 . S
C535 C543 1.433 1_655 S
C536 H532 0.929 . S
C536 C538 1.378 . S
C536 C540 1.350 1_455 S
C537 C540 1.463 . S
C537 C542 1.350 . S
C537 N545 1.427 1_655 S
C538 H529 0.930 . S
C538 C536 1.378 . S
C538 C539 1.367 1_455 S
C539 C538 1.367 1_655 S
C539 C541 1.433 . S
C540 C536 1.350 1_655 S
C540 C537 1.463 . S
C540 N544 1.427 . S
C541 H531 0.929 . S
C541 C539 1.433 . S
C541 N544 1.384 . S
C542 H533 0.929 . S
C542 C534 1.378 . S
C542 C537 1.350 . S
C543 H530 0.929 . S
C543 C535 1.433 1_455 S
C543 N545 1.384 . S
N544 C540 1.427 . S
N544 C541 1.384 . S
N545 C537 1.427 1_455 S
N545 C543 1.384 . S
H546 C552 0.930 . S
H547 C556 0.930 . S
H548 C561 0.929 . S
H549 C559 0.929 . S
H550 C554 0.929 . S
H551 C560 0.929 1_545 S
C552 H546 0.930 . S
C552 C553 1.367 . S
C552 C560 1.378 . S
C553 C552 1.367 . S
C553 C561 1.433 . S
C554 H550 0.929 . S
C554 C556 1.378 . S
C554 C558 1.350 . S
C555 C558 1.463 . S
C555 C560 1.350 . S
C555 N563 1.427 . S
C556 H547 0.930 . S
C556 C554 1.378 . S
C556 C557 1.367 . S
C557 C556 1.367 . S
C557 C559 1.433 1_565 S
C558 C554 1.350 . S
C558 C555 1.463 . S
C558 N562 1.427 . S
C559 H549 0.929 . S
C559 C557 1.433 1_545 S
C559 N562 1.384 1_545 S
C560 H551 0.929 1_565 S
C560 C552 1.378 . S
C560 C555 1.350 . S
C561 H548 0.929 . S
C561 C553 1.433 . S
C561 N563 1.384 . S
N562 C558 1.427 . S
N562 C559 1.384 1_565 S
N563 C555 1.427 . S
N563 C561 1.384 . S
H564 C570 0.930 . S
H565 C574 0.930 . S
H566 C579 0.929 . S
H567 C577 0.929 . S
H568 C572 0.929 . S
H569 C578 0.929 . S
C570 H564 0.930 . S
C570 C571 1.367 . S
C570 C578 1.378 . S
C571 C570 1.367 . S
C571 C579 1.433 . S
C572 H568 0.929 . S
C572 C574 1.378 . S
C572 C576 1.350 . S
C573 C576 1.463 . S
C573 C578 1.350 . S
C573 N581 1.427 . S
C574 H565 0.930 . S
C574 C572 1.378 . S
C574 C575 1.367 . S
C575 C574 1.367 . S
C575 C577 1.433 . S
C576 C572 1.350 . S
C576 C573 1.463 . S
C576 N580 1.427 . S
C577 H567 0.929 . S
C577 C575 1.433 . S
C577 N580 1.384 . S
C578 H569 0.929 . S
C578 C570 1.378 . S
C578 C573 1.350 . S
C579 H566 0.929 . S
C579 C571 1.433 . S
C579 N581 1.384 . S
N580 C576 1.427 . S
N580 C577 1.384 . S
N581 C573 1.427 . S
N581 C579 1.384 . S
H582 C588 0.930 . S
H583 C592 0.930 . S
H584 C597 0.929 . S
H585 C595 0.929 . S
H586 C590 0.929 . S
H587 C596 0.929 . S
C588 H582 0.930 . S
C588 C589 1.367 . S
C588 C596 1.378 . S
C589 C588 1.367 . S
C589 C597 1.433 . S
C590 H586 0.929 . S
C590 C592 1.378 . S
C590 C594 1.350 . S
C591 C594 1.463 . S
C591 C596 1.350 . S
C591 N599 1.427 . S
C592 H583 0.930 . S
C592 C590 1.378 . S
C592 C593 1.367 . S
C593 C592 1.367 . S
C593 C595 1.433 . S
C594 C590 1.350 . S
C594 C591 1.463 . S
C594 N598 1.427 . S
C595 H585 0.929 . S
C595 C593 1.433 . S
C595 N598 1.384 . S
C596 H587 0.929 . S
C596 C588 1.378 . S
C596 C591 1.350 . S
C597 H584 0.929 . S
C597 C589 1.433 . S
C597 N599 1.384 . S
N598 C594 1.427 . S
N598 C595 1.384 . S
N599 C591 1.427 . S
N599 C597 1.384 . S
C175 C74 1.563 . S
C179 C106 1.544 . S
C197 C126 1.403 . S
C193 C85 1.417 . S
C215 C146 1.535 . S
C211 C52 1.554 . S
C233 C166 1.412 . S
C229 C63 1.424 1_655 S
C251 C107 1.537 1_565 S
C247 C30 1.510 . S
C265 C41 1.422 . S
C269 C127 1.402 . S
C283 C8 1.498 . S
C287 C147 1.538 . S
C301 C19 1.419 . S
C305 C167 1.411 . S
C323 C97 0.868 . S
C319 C62 0.899 1_655 S
C341 C117 0.917 . S
C337 C73 0.969 . S
C359 C137 0.880 . S
C355 C84 0.920 . S
C373 C51 0.951 . S
C377 C157 0.922 . S
C391 C18 0.900 1_655 S
C395 C100 0.889 . S
C413 C120 0.917 . S
C409 C29 0.914 . S
C431 C140 0.907 . S
C427 C40 0.912 . S
C445 C7 0.911 . S
C449 C160 0.924 . S
C463 C60 1.262 . S
C467 C90 1.454 . S
C481 C71 1.401 . S
C485 C110 1.513 . S
C503 C130 1.442 . S
C499 C82 1.245 . S
C521 C150 1.542 . S
C517 C49 1.440 . S
C535 C16 1.320 1_655 S
C539 C92 1.457 . S
C557 C112 1.524 . S
C553 C27 1.247 . S
C575 C132 1.457 . S
C571 C38 1.317 . S
C589 C5 1.261 . S
C593 C152 1.538 . S
