# Generated by pormake.
# Topology eea, (3,6)-cn, num edge types: 1
# Building blocks:
#     Node 0, Type 0, BuildingBlock: OLANEW_clean_sbu_2, # of connection points: 3
#     Node 1, Type 0, BuildingBlock: OLANEW_clean_sbu_2, # of connection points: 3
#     Node 2, Type 0, BuildingBlock: OLANEW_clean_sbu_2, # of connection points: 3
#     Node 3, Type 0, BuildingBlock: OLANEW_clean_sbu_2, # of connection points: 3
#     Node 4, Type 0, BuildingBlock: OLANEW_clean_sbu_2, # of connection points: 3
#     Node 5, Type 0, BuildingBlock: OLANEW_clean_sbu_2, # of connection points: 3
#     Node 6, Type 0, BuildingBlock: OLANEW_clean_sbu_2, # of connection points: 3
#     Node 7, Type 0, BuildingBlock: OLANEW_clean_sbu_2, # of connection points: 3
#     Node 8, Type 0, BuildingBlock: OLANEW_clean_sbu_2, # of connection points: 3
#     Node 9, Type 0, BuildingBlock: OLANEW_clean_sbu_2, # of connection points: 3
#     Node 10, Type 0, BuildingBlock: OLANEW_clean_sbu_2, # of connection points: 3
#     Node 11, Type 0, BuildingBlock: OLANEW_clean_sbu_2, # of connection points: 3
#     Node 12, Type 0, BuildingBlock: OLANEW_clean_sbu_2, # of connection points: 3
#     Node 13, Type 0, BuildingBlock: OLANEW_clean_sbu_2, # of connection points: 3
#     Node 14, Type 0, BuildingBlock: OLANEW_clean_sbu_2, # of connection points: 3
#     Node 15, Type 0, BuildingBlock: OLANEW_clean_sbu_2, # of connection points: 3
#     Node 16, Type 0, BuildingBlock: OLANEW_clean_sbu_2, # of connection points: 3
#     Node 17, Type 0, BuildingBlock: OLANEW_clean_sbu_2, # of connection points: 3
#     Node 18, Type 1, BuildingBlock: HISSIN_clean_sbu_0, # of connection points: 6
#     Node 19, Type 1, BuildingBlock: HISSIN_clean_sbu_0, # of connection points: 6
#     Node 20, Type 1, BuildingBlock: HISSIN_clean_sbu_0, # of connection points: 6
#     Node 21, Type 1, BuildingBlock: HISSIN_clean_sbu_0, # of connection points: 6
#     Node 22, Type 1, BuildingBlock: HISSIN_clean_sbu_0, # of connection points: 6
#     Node 23, Type 1, BuildingBlock: HISSIN_clean_sbu_0, # of connection points: 6
#     Node 24, Type 1, BuildingBlock: HISSIN_clean_sbu_0, # of connection points: 6
#     Node 25, Type 1, BuildingBlock: HISSIN_clean_sbu_0, # of connection points: 6
#     Node 26, Type 1, BuildingBlock: HISSIN_clean_sbu_0, # of connection points: 6
#     Edge 27, Type (0, 1), BuildingBlock: XUDNAN_clean_linker_2, # of connection points: 2
#     Edge 28, Type (0, 1), BuildingBlock: XUDNAN_clean_linker_2, # of connection points: 2
#     Edge 29, Type (0, 1), BuildingBlock: XUDNAN_clean_linker_2, # of connection points: 2
#     Edge 30, Type (0, 1), BuildingBlock: XUDNAN_clean_linker_2, # of connection points: 2
#     Edge 31, Type (0, 1), BuildingBlock: XUDNAN_clean_linker_2, # of connection points: 2
#     Edge 32, Type (0, 1), BuildingBlock: XUDNAN_clean_linker_2, # of connection points: 2
#     Edge 33, Type (0, 1), BuildingBlock: XUDNAN_clean_linker_2, # of connection points: 2
#     Edge 34, Type (0, 1), BuildingBlock: XUDNAN_clean_linker_2, # of connection points: 2
#     Edge 35, Type (0, 1), BuildingBlock: XUDNAN_clean_linker_2, # of connection points: 2
#     Edge 36, Type (0, 1), BuildingBlock: XUDNAN_clean_linker_2, # of connection points: 2
#     Edge 37, Type (0, 1), BuildingBlock: XUDNAN_clean_linker_2, # of connection points: 2
#     Edge 38, Type (0, 1), BuildingBlock: XUDNAN_clean_linker_2, # of connection points: 2
#     Edge 39, Type (0, 1), BuildingBlock: XUDNAN_clean_linker_2, # of connection points: 2
#     Edge 40, Type (0, 1), BuildingBlock: XUDNAN_clean_linker_2, # of connection points: 2
#     Edge 41, Type (0, 1), BuildingBlock: XUDNAN_clean_linker_2, # of connection points: 2
#     Edge 42, Type (0, 1), BuildingBlock: XUDNAN_clean_linker_2, # of connection points: 2
#     Edge 43, Type (0, 1), BuildingBlock: XUDNAN_clean_linker_2, # of connection points: 2
#     Edge 44, Type (0, 1), BuildingBlock: XUDNAN_clean_linker_2, # of connection points: 2
#     Edge 45, Type (0, 1), BuildingBlock: XUDNAN_clean_linker_2, # of connection points: 2
#     Edge 46, Type (0, 1), BuildingBlock: XUDNAN_clean_linker_2, # of connection points: 2
#     Edge 47, Type (0, 1), BuildingBlock: XUDNAN_clean_linker_2, # of connection points: 2
#     Edge 48, Type (0, 1), BuildingBlock: XUDNAN_clean_linker_2, # of connection points: 2
#     Edge 49, Type (0, 1), BuildingBlock: XUDNAN_clean_linker_2, # of connection points: 2
#     Edge 50, Type (0, 1), BuildingBlock: XUDNAN_clean_linker_2, # of connection points: 2
#     Edge 51, Type (0, 1), BuildingBlock: XUDNAN_clean_linker_2, # of connection points: 2
#     Edge 52, Type (0, 1), BuildingBlock: XUDNAN_clean_linker_2, # of connection points: 2
#     Edge 53, Type (0, 1), BuildingBlock: XUDNAN_clean_linker_2, # of connection points: 2
#     Edge 54, Type (0, 1), BuildingBlock: XUDNAN_clean_linker_2, # of connection points: 2
#     Edge 55, Type (0, 1), BuildingBlock: XUDNAN_clean_linker_2, # of connection points: 2
#     Edge 56, Type (0, 1), BuildingBlock: XUDNAN_clean_linker_2, # of connection points: 2
#     Edge 57, Type (0, 1), BuildingBlock: XUDNAN_clean_linker_2, # of connection points: 2
#     Edge 58, Type (0, 1), BuildingBlock: XUDNAN_clean_linker_2, # of connection points: 2
#     Edge 59, Type (0, 1), BuildingBlock: XUDNAN_clean_linker_2, # of connection points: 2
#     Edge 60, Type (0, 1), BuildingBlock: XUDNAN_clean_linker_2, # of connection points: 2
#     Edge 61, Type (0, 1), BuildingBlock: XUDNAN_clean_linker_2, # of connection points: 2
#     Edge 62, Type (0, 1), BuildingBlock: XUDNAN_clean_linker_2, # of connection points: 2
#     Edge 63, Type (0, 1), BuildingBlock: XUDNAN_clean_linker_2, # of connection points: 2
#     Edge 64, Type (0, 1), BuildingBlock: XUDNAN_clean_linker_2, # of connection points: 2
#     Edge 65, Type (0, 1), BuildingBlock: XUDNAN_clean_linker_2, # of connection points: 2
#     Edge 66, Type (0, 1), BuildingBlock: XUDNAN_clean_linker_2, # of connection points: 2
#     Edge 67, Type (0, 1), BuildingBlock: XUDNAN_clean_linker_2, # of connection points: 2
#     Edge 68, Type (0, 1), BuildingBlock: XUDNAN_clean_linker_2, # of connection points: 2
#     Edge 69, Type (0, 1), BuildingBlock: XUDNAN_clean_linker_2, # of connection points: 2
#     Edge 70, Type (0, 1), BuildingBlock: XUDNAN_clean_linker_2, # of connection points: 2
#     Edge 71, Type (0, 1), BuildingBlock: XUDNAN_clean_linker_2, # of connection points: 2
#     Edge 72, Type (0, 1), BuildingBlock: XUDNAN_clean_linker_2, # of connection points: 2
#     Edge 73, Type (0, 1), BuildingBlock: XUDNAN_clean_linker_2, # of connection points: 2
#     Edge 74, Type (0, 1), BuildingBlock: XUDNAN_clean_linker_2, # of connection points: 2
#     Edge 75, Type (0, 1), BuildingBlock: XUDNAN_clean_linker_2, # of connection points: 2
#     Edge 76, Type (0, 1), BuildingBlock: XUDNAN_clean_linker_2, # of connection points: 2
#     Edge 77, Type (0, 1), BuildingBlock: XUDNAN_clean_linker_2, # of connection points: 2
#     Edge 78, Type (0, 1), BuildingBlock: XUDNAN_clean_linker_2, # of connection points: 2
#     Edge 79, Type (0, 1), BuildingBlock: XUDNAN_clean_linker_2, # of connection points: 2
#     Edge 80, Type (0, 1), BuildingBlock: XUDNAN_clean_linker_2, # of connection points: 2
# Relax obj value: 0.028
# Max RMSD: 0.191
# Mean RMSD: 0.127
data_MOF--net-eea--node1-OLANEW_clean_sbu_2--node2-HISSIN_clean_sbu_0--edge1-XUDNAN_clean_linker_2
_symmetry_space_group_name_H-M    P1
_symmetry_Int_Tables_number       1
_symmetry_cell_setting            triclinic
loop_
_symmetry_equiv_pos_as_xyz
'x, y, z'
_cell_length_a     60.328365
_cell_length_b     59.812413
_cell_length_c     71.01378
_cell_angle_alpha  96.6068
_cell_angle_beta   93.699058
_cell_angle_gamma 120.07606
loop_
_atom_site_label
_atom_site_type_symbol
_atom_site_fract_x
_atom_site_fract_y
_atom_site_fract_z
_atom_type_partial_charge
O0 O 0.25664 0.14347 0.43591 0.0
Cd1 Cd 0.24651 0.13336 0.40087 0.0
O2 O 0.21621 0.11529 0.43863 0.0
Cd3 Cd 0.20672 0.09584 0.40885 0.0
O4 O 0.20214 0.06231 0.38931 0.0
C5 C 0.19861 0.04308 0.39735 0.0
O6 O 0.19746 0.04487 0.41584 0.0
C7 C 0.23892 0.1331 0.44635 0.0
C8 C 0.23842 0.16992 0.38515 0.0
O9 O 0.22045 0.15156 0.39227 0.0
O10 O 0.26028 0.17116 0.38555 0.0
O11 O 0.92434 0.15341 0.4484 0.0
Cd12 Cd 0.92629 0.13471 0.41643 0.0
O13 O 0.94139 0.13319 0.46203 0.0
Cd14 Cd 0.93305 0.10638 0.43547 0.0
O15 O 0.9039 0.07164 0.41539 0.0
C16 C 0.88653 0.0535 0.42282 0.0
O17 O 0.88797 0.05644 0.44157 0.0
C18 C 0.93355 0.14941 0.46343 0.0
C19 C 0.96599 0.17063 0.39867 0.0
O20 O 0.94258 0.16496 0.39436 0.0
O21 O 0.97071 0.15957 0.41149 0.0
O22 O 0.89864 0.703 0.44125 0.0
Cd23 Cd 0.90813 0.69565 0.4088 0.0
O24 O 0.87425 0.71751 0.43055 0.0
Cd25 Cd 0.84839 0.73345 0.42916 0.0
O26 O 0.82881 0.75165 0.41609 0.0
C27 C 0.80967 0.75265 0.42171 0.0
O28 O 0.8003 0.74235 0.43679 0.0
C29 C 0.88308 0.71106 0.44438 0.0
C30 C 0.95671 0.73051 0.39953 0.0
O31 O 0.93751 0.73391 0.39646 0.0
O32 O 0.95324 0.71119 0.40771 0.0
O33 O 0.13138 0.2518 0.58868 0.0
Cd34 Cd 0.12694 0.2409 0.62103 0.0
O35 O 0.08946 0.22687 0.57878 0.0
Cd36 Cd 0.07582 0.21954 0.60647 0.0
O37 O 0.04451 0.21226 0.62347 0.0
C38 C 0.04804 0.22415 0.64041 0.0
O39 O 0.07176 0.24095 0.64884 0.0
C40 C 0.11236 0.24142 0.57525 0.0
C41 C 0.15716 0.21918 0.6302 0.0
O42 O 0.13469 0.20528 0.62022 0.0
O43 O 0.16544 0.24347 0.63614 0.0
O44 O 0.68276 0.79622 0.60594 0.0
Cd45 Cd 0.67775 0.78142 0.63678 0.0
O46 O 0.69959 0.83595 0.62189 0.0
Cd47 Cd 0.71559 0.87825 0.62579 0.0
O48 O 0.7351 0.92073 0.63337 0.0
C49 C 0.75578 0.93222 0.64526 0.0
O50 O 0.7644 0.91809 0.65215 0.0
C51 C 0.69327 0.82068 0.60596 0.0
C52 C 0.71986 0.77669 0.64873 0.0
O53 O 0.6996 0.75761 0.63821 0.0
O54 O 0.72011 0.79807 0.65391 0.0
O55 O 0.11763 0.80731 0.59289 0.0
Cd56 Cd 0.12199 0.82126 0.6273 0.0
O57 O 0.11194 0.83808 0.58343 0.0
Cd58 Cd 0.11915 0.85993 0.61199 0.0
O59 O 0.13812 0.89776 0.63085 0.0
C60 C 0.16032 0.91454 0.62737 0.0
O61 O 0.17038 0.90759 0.61365 0.0
C62 C 0.11337 0.81763 0.57948 0.0
C63 C 0.07454 0.80638 0.63988 0.0
O64 O 0.08157 0.78966 0.63577 0.0
O65 O 0.08987 0.83021 0.63806 0.0
O66 O 0.96698 0.51286 0.76554 0.0
Cd67 Cd 0.94697 0.49835 0.73206 0.0
O68 O 0.93317 0.47965 0.77401 0.0
Cd69 Cd 0.91492 0.45877 0.74503 0.0
O70 O 0.9 0.42277 0.72443 0.0
C71 C 0.88837 0.40184 0.73144 0.0
O72 O 0.8853 0.40367 0.74959 0.0
C73 C 0.95502 0.50073 0.77856 0.0
C74 C 0.91974 0.52328 0.72427 0.0
O75 O 0.90946 0.5024 0.73171 0.0
O76 O 0.94277 0.53215 0.72019 0.0
O77 O 0.58048 0.52191 0.7665 0.0
Cd78 Cd 0.58091 0.51189 0.73214 0.0
O79 O 0.55063 0.48063 0.76253 0.0
Cd80 Cd 0.51967 0.44268 0.7673 0.0
O81 O 0.49221 0.40072 0.76402 0.0
C82 C 0.48058 0.38801 0.7474 0.0
O83 O 0.48493 0.40069 0.73285 0.0
C84 C 0.56426 0.50261 0.77363 0.0
C85 C 0.62693 0.54648 0.7197 0.0
O86 O 0.60857 0.55133 0.72062 0.0
O87 O 0.62362 0.52526 0.72482 0.0
O88 O 0.56488 0.07898 0.77343 0.0
Cd89 Cd 0.56318 0.08854 0.7409 0.0
O90 O 0.52486 0.06866 0.77664 0.0
Cd91 Cd 0.51451 0.08113 0.75133 0.0
O92 O 0.4854 0.08932 0.73918 0.0
C93 C 0.4652 0.07999 0.74736 0.0
O94 O 0.46397 0.06667 0.76114 0.0
C95 C 0.54598 0.07043 0.78302 0.0
C96 C 0.61088 0.10934 0.72701 0.0
O97 O 0.60215 0.1241 0.73293 0.0
O98 O 0.59732 0.08486 0.72781 0.0
O99 O 0.80956 0.56525 0.90152 0.0
Cd100 Cd 0.79826 0.53191 0.92218 0.0
O101 O 0.77691 0.57083 0.90711 0.0
Cd102 Cd 0.75749 0.54308 0.92635 0.0
O103 O 0.7254 0.53002 0.9433 0.0
C104 C 0.72976 0.54253 0.96013 0.0
O105 O 0.75355 0.56125 0.96707 0.0
C106 C 0.7968 0.5766 0.89891 0.0
C107 C 0.84056 0.53495 0.94386 0.0
O108 O 0.83186 0.52151 0.92691 0.0
O109 O 0.8296 0.54727 0.95038 0.0
O110 O 0.3919 0.17381 0.93901 0.0
Cd111 Cd 0.40016 0.17367 0.97314 0.0
O112 O 0.43307 0.19365 0.93552 0.0
Cd113 Cd 0.44555 0.20743 0.96619 0.0
O114 O 0.45885 0.24332 0.98654 0.0
C115 C 0.44869 0.25653 0.98211 0.0
O116 O 0.43079 0.24678 0.96704 0.0
C117 C 0.40941 0.18191 0.92821 0.0
C118 C 0.41165 0.13463 0.97754 0.0
O119 O 0.38819 0.12924 0.97445 0.0
O120 O 0.42977 0.15858 0.9789 0.0
O121 O 0.7561 0.18988 0.92028 0.0
Cd122 Cd 0.76224 0.19809 0.95523 0.0
O123 O 0.73781 0.21305 0.9157 0.0
Cd124 Cd 0.75129 0.23263 0.94541 0.0
O125 O 0.78773 0.26489 0.96129 0.0
C126 C 0.80762 0.26574 0.95555 0.0
O127 O 0.80434 0.24692 0.94207 0.0
C128 C 0.74491 0.19738 0.90898 0.0
C129 C 0.71554 0.16947 0.96913 0.0
O130 O 0.72791 0.15853 0.963 0.0
O131 O 0.72525 0.19397 0.9688 0.0
O132 O 0.58181 0.80073 0.10331 0.0
Cd133 Cd 0.57798 0.79909 0.06858 0.0
O134 O 0.54404 0.76551 0.10368 0.0
Cd135 Cd 0.5384 0.75088 0.07314 0.0
O136 O 0.53403 0.71554 0.05643 0.0
C137 C 0.54502 0.71467 0.04192 0.0
O138 O 0.55929 0.73629 0.03514 0.0
C139 C 0.56468 0.78551 0.11261 0.0
C140 C 0.5736 0.84123 0.0599 0.0
O141 O 0.55356 0.81819 0.05774 0.0
O142 O 0.5956 0.84424 0.06579 0.0
O143 O 0.24125 0.82731 0.09635 0.0
Cd144 Cd 0.2407 0.80997 0.06324 0.0
O145 O 0.23241 0.79107 0.10714 0.0
Cd146 Cd 0.22432 0.76601 0.07968 0.0
O147 O 0.19715 0.72445 0.06873 0.0
C148 C 0.19242 0.71023 0.08165 0.0
O149 O 0.20486 0.7214 0.09907 0.0
C150 C 0.23774 0.81471 0.1102 0.0
C151 C 0.28959 0.83467 0.05148 0.0
O152 O 0.27552 0.84511 0.05138 0.0
O153 O 0.28064 0.81255 0.0572 0.0
O154 O 0.25152 0.41199 0.10809 0.0
Cd155 Cd 0.25621 0.42903 0.07782 0.0
O156 O 0.21593 0.41259 0.11247 0.0
Cd157 Cd 0.20927 0.4268 0.08685 0.0
O158 O 0.17991 0.43247 0.07189 0.0
C159 C 0.15704 0.41646 0.07471 0.0
O160 O 0.15365 0.39848 0.08513 0.0
C161 C 0.23349 0.40798 0.11807 0.0
C162 C 0.30612 0.44788 0.06808 0.0
O163 O 0.30071 0.46235 0.07924 0.0
O164 O 0.2879 0.42435 0.06139 0.0
O165 O 0.47987 0.90745 0.24618 0.0
Cd166 Cd 0.46668 0.88863 0.27511 0.0
O167 O 0.45655 0.92634 0.24636 0.0
Cd168 Cd 0.43828 0.91185 0.27132 0.0
O169 O 0.40909 0.9017 0.29055 0.0
C170 C 0.38578 0.89165 0.28283 0.0
O171 O 0.38064 0.8872 0.26406 0.0
C172 C 0.47252 0.92145 0.23879 0.0
C173 C 0.5079 0.88903 0.29579 0.0
O174 O 0.49278 0.87003 0.28227 0.0
O175 O 0.50339 0.90772 0.29967 0.0
O176 O 0.06065 0.49502 0.27065 0.0
Cd177 Cd 0.07171 0.50655 0.30562 0.0
O178 O 0.10109 0.51553 0.26514 0.0
Cd179 Cd 0.11438 0.54014 0.29328 0.0
O180 O 0.12674 0.57819 0.31038 0.0
C181 C 0.11768 0.59134 0.30381 0.0
O182 O 0.10108 0.5809 0.28795 0.0
C183 C 0.07714 0.50022 0.25907 0.0
C184 C 0.09765 0.48284 0.31991 0.0
O185 O 0.07297 0.47007 0.31562 0.0
O186 O 0.1101 0.50681 0.31756 0.0
O187 O 0.43368 0.52217 0.25637 0.0
Cd188 Cd 0.42406 0.5394 0.28566 0.0
O189 O 0.43831 0.55477 0.24218 0.0
Cd190 Cd 0.43832 0.57808 0.26815 0.0
O191 O 0.46193 0.61351 0.28941 0.0
C192 C 0.48544 0.62637 0.28672 0.0
O193 O 0.49274 0.61724 0.27219 0.0
C194 C 0.4376 0.53309 0.24159 0.0
C195 C 0.38536 0.49998 0.30187 0.0
O196 O 0.37971 0.51014 0.28881 0.0
O197 O 0.40932 0.50837 0.30721 0.0
Eu198 Eu 0.50169 0.98122 0.98874 0.0
Eu199 Eu 0.5094 0.01071 0.03378 0.0
C200 C 0.48223 0.02182 0.99956 0.0
C201 C 0.50584 0.9752 0.93563 0.0
C202 C 0.52838 -1e-05 0.9375 0.0
C203 C 0.49975 0.97413 0.90131 0.0
C204 C 0.53668 0.01162 0.92138 0.0
C205 C 0.49155 0.96241 0.91745 0.0
C206 C 0.52249 -0.00118 0.90309 0.0
C207 C 0.49715 0.96275 0.95258 0.0
O208 O 0.46833 0.97655 0.02646 0.0
O209 O 0.47225 0.94949 1.00291 0.0
C210 C 0.45973 0.95334 0.01615 0.0
O211 O 0.5233 0.96687 1.00585 0.0
O212 O 0.49223 0.01973 0.05754 0.0
O213 O 0.53327 0.0341 0.06086 0.0
O214 O 0.52067 0.98066 0.03698 0.0
C215 C 0.5268 0.96754 0.0244 0.0
O216 O 0.53588 0.02202 0.99075 0.0
O217 O 0.54673 0.03676 0.02333 0.0
O218 O 0.49966 0.03306 0.01488 0.0
O219 O 0.51542 0.96642 0.96562 0.0
O220 O 0.47918 0.96529 0.96004 0.0
O221 O 0.47618 -0.00114 0.99007 0.0
C222 C 0.51218 0.02045 0.08787 0.0
C223 C 0.53453 0.02356 0.09816 0.0
C224 C 0.48701 -0.00388 0.11154 0.0
C225 C 0.53305 0.01257 0.11468 0.0
C226 C 0.48847 0.00703 0.09494 0.0
C227 C 0.50922 -0.00158 0.12141 0.0
C228 C 0.51361 0.0304 0.06954 0.0
C229 C 0.55165 0.03904 1.00572 0.0
H230 H 0.5396 0.01037 0.95142 0.0
H231 H 0.48851 0.96371 0.88739 0.0
H232 H 0.55405 0.0308 0.92327 0.0
H233 H 0.47409 0.94332 0.91572 0.0
H234 H 0.55319 0.03413 0.0933 0.0
H235 H 0.46835 0.98524 0.11634 0.0
H236 H 0.55058 0.01512 0.12218 0.0
H237 H 0.47093 0.0045 0.08745 0.0
Eu238 Eu 0.01548 0.49105 0.99923 0.0
Eu239 Eu 0.98922 0.48153 0.03883 0.0
C240 C 0.96345 0.43781 1.00212 0.0
C241 C 0.02902 0.50474 0.94842 0.0
C242 C 0.02 0.48533 0.93205 0.0
C243 C 0.02657 0.53438 0.92871 0.0
C244 C 0.01402 0.49025 0.91425 0.0
C245 C 0.03237 0.52939 0.94658 0.0
C246 C 0.01719 0.51479 0.9124 0.0
C247 C 0.03505 0.49895 0.96712 0.0
O248 O 0.0098 0.45881 0.03693 0.0
O249 O 0.04029 0.48168 0.01807 0.0
C250 C 0.03165 0.4652 0.03023 0.0
O251 O 0.03468 0.52993 0.01916 0.0
O252 O 0.96702 0.45524 0.05813 0.0
O253 O 0.98187 0.49693 0.06552 0.0
O254 O 0.03081 0.51363 0.04694 0.0
C255 C 0.0426 0.53288 0.03738 0.0
O256 O 0.98072 0.49547 0.99374 0.0
O257 O 0.97723 0.50667 0.02496 0.0
O258 O 0.95848 0.45113 0.0154 0.0
O259 O 0.04277 0.51723 0.98207 0.0
O260 O 0.019 0.47581 0.97084 0.0
O261 O 0.98658 0.44784 0.99689 0.0
C262 C 0.98333 0.47456 0.09032 0.0
C263 C 0.01035 0.48819 0.09498 0.0
C264 C 0.97922 0.45891 0.12072 0.0
C265 C 0.02173 0.48733 0.11241 0.0
C266 C 0.96782 0.45992 0.10327 0.0
C267 C 0.00634 0.47253 0.12545 0.0
C268 C 0.97153 0.47445 0.07153 0.0
C269 C 0.97174 0.50539 1.0065 0.0
H270 H 0.01753 0.46629 0.93302 0.0
H271 H 0.02908 0.55342 0.92768 0.0
H272 H 0.00722 0.47491 0.90187 0.0
H273 H 0.0394 0.54483 0.95891 0.0
H274 H 0.0227 0.49943 0.08509 0.0
H275 H 0.9668 0.4471 0.13033 0.0
H276 H 0.04263 0.49847 0.11569 0.0
H277 H 0.94693 0.44902 0.09978 0.0
Eu278 Eu 0.53025 0.49953 0.04039 0.0
Eu279 Eu 0.50743 0.48507 0.99427 0.0
C280 C 0.52977 0.54223 0.01751 0.0
C281 C 0.53425 0.50966 0.09446 0.0
C282 C 0.51272 0.51287 0.09376 0.0
C283 C 0.53103 0.50404 0.12765 0.0
C284 C 0.50037 0.51162 0.10994 0.0
C285 C 0.54343 0.50544 0.1115 0.0
C286 C 0.50921 0.50686 0.12699 0.0
C287 C 0.54576 0.50829 0.0771 0.0
O288 O 0.54811 0.49191 0.9958 0.0
O289 O 0.56573 0.51654 0.02593 0.0
C290 C 0.56825 0.50756 0.00895 0.0
O291 O 0.52694 0.46152 0.02773 0.0
O292 O 0.49014 0.49123 0.96893 0.0
O293 O 0.49841 0.45978 0.96675 0.0
O294 O 0.4913 0.44758 1.00619 0.0
C295 C 0.50605 0.4424 0.01693 0.0
O296 O 0.48745 0.48166 0.0397 0.0
O297 O 0.47572 0.48583 0.00931 0.0
O298 O 0.53097 0.52909 1.00188 0.0
O299 O 0.5344 0.48518 0.06642 0.0
O300 O 0.55149 0.52693 0.06703 0.0
O301 O 0.52397 0.53182 0.03309 0.0
C302 C 0.50146 0.47989 0.93964 0.0
C303 C 0.48661 0.46466 0.9221 0.0
C304 C 0.53618 0.50778 0.92269 0.0
C305 C 0.49641 0.47094 0.90492 0.0
C306 C 0.52638 0.5014 0.93988 0.0
C307 C 0.52127 0.49263 0.905 0.0
C308 C 0.49076 0.47289 0.95751 0.0
C309 C 0.47101 0.48196 0.02686 0.0
H310 H 0.50515 0.51577 0.0806 0.0
H311 H 0.53848 0.50071 0.14065 0.0
H312 H 0.48349 0.51364 0.10895 0.0
H313 H 0.5599 0.50271 0.11221 0.0
H314 H 0.46735 0.44796 0.92168 0.0
H315 H 0.5555 0.52441 0.92324 0.0
H316 H 0.48432 0.45907 0.89156 0.0
H317 H 0.5382 0.51324 0.95335 0.0
Eu318 Eu 0.16784 0.32342 0.32526 0.0
Eu319 Eu 0.18511 0.33953 0.37224 0.0
C320 C 0.16378 0.36873 0.34937 0.0
C321 C 0.16896 0.32073 0.271 0.0
C322 C 0.15419 0.31076 0.25281 0.0
C323 C 0.20701 0.34808 0.25659 0.0
C324 C 0.1656 0.31963 0.23663 0.0
C325 C 0.19552 0.33923 0.27282 0.0
C326 C 0.19205 0.3387 0.23835 0.0
C327 C 0.1559 0.31312 0.28792 0.0
O328 O 0.14178 0.31321 0.36815 0.0
O329 O 0.13359 0.29269 0.33678 0.0
C330 C 0.12641 0.29465 0.3537 0.0
O331 O 0.19181 0.30587 0.33387 0.0
O332 O 0.18326 0.35771 0.40001 0.0
O333 O 0.20713 0.34013 0.3982 0.0
O334 O 0.17885 0.29933 0.36316 0.0
C335 C 0.18859 0.29376 0.34865 0.0
O336 O 0.2068 0.36049 0.33002 0.0
O337 O 0.22244 0.35808 0.35962 0.0
O338 O 0.18303 0.37265 0.36169 0.0
O339 O 0.16106 0.29872 0.29773 0.0
O340 O 0.15521 0.33169 0.29891 0.0
O341 O 0.15038 0.34662 0.33728 0.0
C342 C 0.18533 0.33581 0.42526 0.0
C343 C 0.20124 0.33407 0.43959 0.0
C344 C 0.14804 0.30987 0.44085 0.0
C345 C 0.19064 0.32021 0.4544 0.0
C346 C 0.1586 0.32348 0.42597 0.0
C347 C 0.16388 0.30792 0.45523 0.0
C348 C 0.19673 0.34995 0.40947 0.0
C349 C 0.2261 0.36753 0.34353 0.0
H350 H 0.13366 0.29652 0.25116 0.0
H351 H 0.22737 0.36289 0.2584 0.0
H352 H 0.15363 0.31172 0.22277 0.0
H353 H 0.20718 0.34729 0.28681 0.0
H354 H 0.22188 0.34325 0.43923 0.0
H355 H 0.12745 0.3011 0.44117 0.0
H356 H 0.20339 0.31881 0.46503 0.0
H357 H 0.14579 0.32431 0.41503 0.0
Eu358 Eu 0.68355 0.84218 0.33534 0.0
Eu359 Eu 0.67278 0.84682 0.38017 0.0
C360 C 0.63361 0.7965 0.34891 0.0
C361 C 0.67231 0.83098 0.28114 0.0
C362 C 0.64709 0.82638 0.28113 0.0
C363 C 0.66514 0.82194 0.24643 0.0
C364 C 0.63106 0.81982 0.26384 0.0
C365 C 0.68118 0.82857 0.26374 0.0
C366 C 0.63996 0.81769 0.24627 0.0
C367 C 0.68966 0.83916 0.29923 0.0
O368 O 0.69229 0.82292 0.378 0.0
O369 O 0.71286 0.83636 0.3518 0.0
C370 C 0.70991 0.8252 0.36709 0.0
O371 O 0.71156 0.88387 0.34965 0.0
O372 O 0.65453 0.82804 0.40381 0.0
O373 O 0.676 0.87052 0.40721 0.0
O374 O 0.71454 0.87759 0.38069 0.0
C375 C 0.72382 0.89169 0.36722 0.0
O376 O 0.6491 0.8473 0.33519 0.0
O377 O 0.65931 0.87035 0.36552 0.0
O378 O 0.63551 0.81371 0.36313 0.0
O379 O 0.6935 0.86035 0.30993 0.0
O380 O 0.68579 0.82076 0.30913 0.0
O381 O 0.65273 0.80181 0.33896 0.0
C382 C 0.67481 0.85181 0.43521 0.0
C383 C 0.68207 0.87399 0.44896 0.0
C384 C 0.6842 0.83163 0.45997 0.0
C385 C 0.6901 0.87491 0.46808 0.0
C386 C 0.67637 0.83079 0.44083 0.0
C387 C 0.69074 0.85352 0.47384 0.0
C388 C 0.66376 0.85015 0.41557 0.0
C389 C 0.6466 0.86307 0.34812 0.0
H390 H 0.63995 0.82822 0.29449 0.0
H391 H 0.67244 0.82 0.23317 0.0
H392 H 0.6119 0.81696 0.26424 0.0
H393 H 0.70058 0.832 0.26352 0.0
H394 H 0.68085 0.89035 0.44502 0.0
H395 H 0.68481 0.81499 0.46399 0.0
H396 H 0.69479 0.89193 0.47849 0.0
H397 H 0.67097 0.81342 0.43056 0.0
Eu398 Eu 0.18524 0.82783 0.36758 0.0
Eu399 Eu 0.1649 0.82121 0.32214 0.0
C400 C 0.18337 0.87405 0.35095 0.0
C401 C 0.18604 0.82424 0.42064 0.0
C402 C 0.16268 0.8239 0.42143 0.0
C403 C 0.18285 0.80973 0.45134 0.0
C404 C 0.14956 0.81668 0.43723 0.0
C405 C 0.19604 0.81716 0.43566 0.0
C406 C 0.15946 0.80933 0.45225 0.0
C407 C 0.19908 0.82976 0.40361 0.0
O408 O 0.20592 0.82992 0.32339 0.0
O409 O 0.22173 0.85026 0.35473 0.0
C410 C 0.22537 0.84461 0.33719 0.0
O411 O 0.18647 0.79433 0.35102 0.0
O412 O 0.1536 0.83523 0.29824 0.0
O413 O 0.15299 0.79852 0.29334 0.0
O414 O 0.1513 0.78082 0.32914 0.0
C415 C 0.16675 0.7756 0.33904 0.0
O416 O 0.14169 0.80437 0.36468 0.0
O417 O 0.13179 0.81695 0.33752 0.0
O418 O 0.18603 0.86438 0.33427 0.0
O419 O 0.19136 0.80937 0.39041 0.0
O420 O 0.20205 0.85012 0.39651 0.0
O421 O 0.17724 0.86031 0.36488 0.0
C422 C 0.16562 0.82449 0.26909 0.0
C423 C 0.18888 0.82464 0.26806 0.0
C424 C 0.16834 0.83828 0.23804 0.0
C425 C 0.20145 0.83098 0.25195 0.0
C426 C 0.15564 0.83169 0.2541 0.0
C427 C 0.19115 0.83758 0.23667 0.0
C428 C 0.15145 0.81646 0.28552 0.0
C429 C 0.12542 0.80697 0.35324 0.0
H430 H 0.15446 0.82887 0.40975 0.0
H431 H 0.19109 0.80452 0.46286 0.0
H432 H 0.13149 0.81639 0.43756 0.0
H433 H 0.21391 0.81707 0.43514 0.0
H434 H 0.19711 0.81943 0.27958 0.0
H435 H 0.15984 0.84305 0.22641 0.0
H436 H 0.21912 0.83052 0.25135 0.0
H437 H 0.13779 0.8318 0.25468 0.0
Eu438 Eu 0.84551 0.66614 0.66204 0.0
Eu439 Eu 0.86076 0.69541 0.70758 0.0
C440 C 0.84129 0.71765 0.67594 0.0
C441 C 0.83748 0.65467 0.60745 0.0
C442 C 0.86046 0.67713 0.60499 0.0
C443 C 0.81957 0.65072 0.57476 0.0
C444 C 0.86305 0.68615 0.58747 0.0
C445 C 0.81708 0.6416 0.59222 0.0
C446 C 0.84261 0.67306 0.57216 0.0
C447 C 0.83422 0.6449 0.62584 0.0
O448 O 0.81754 0.67435 0.70047 0.0
O449 O 0.81149 0.64131 0.67692 0.0
C450 C 0.80255 0.65144 0.68957 0.0
O451 O 0.86491 0.64879 0.6781 0.0
O452 O 0.85543 0.71548 0.73298 0.0
O453 O 0.8852 0.70531 0.73484 0.0
O454 O 0.8516 0.65386 0.70677 0.0
C455 C 0.86012 0.64234 0.69501 0.0
O456 O 0.88295 0.70386 0.66308 0.0
O457 O 0.89815 0.71236 0.6952 0.0
O458 O 0.85762 0.72433 0.6916 0.0
O459 O 0.85521 0.65045 0.63671 0.0
O460 O 0.81793 0.64763 0.63563 0.0
O461 O 0.83218 0.69523 0.66432 0.0
C462 C 0.86364 0.70249 0.76189 0.0
C463 C 0.88148 0.70194 0.77527 0.0
C464 C 0.83016 0.68109 0.78183 0.0
C465 C 0.87371 0.69088 0.79171 0.0
C466 C 0.83787 0.69194 0.76533 0.0
C467 C 0.84797 0.6804 0.79518 0.0
C468 C 0.87211 0.71356 0.74431 0.0
C469 C 0.90171 0.71618 0.67755 0.0
H470 H 0.87641 0.68778 0.6166 0.0
H471 H 0.8036 0.64002 0.56317 0.0
H472 H 0.88093 0.70355 0.58597 0.0
H473 H 0.79918 0.62428 0.59383 0.0
H474 H 0.90146 0.70998 0.77296 0.0
H475 H 0.81011 0.67288 0.784 0.0
H476 H 0.88791 0.69083 0.80182 0.0
H477 H 0.82357 0.69188 0.75525 0.0
Eu478 Eu 0.32554 0.15405 0.66901 0.0
Eu479 Eu 0.30168 0.15205 0.7095 0.0
C480 C 0.2735 0.10286 0.67634 0.0
C481 C 0.33 0.15801 0.61682 0.0
C482 C 0.31178 0.16604 0.61587 0.0
C483 C 0.3242 0.14889 0.58206 0.0
C484 C 0.29981 0.16544 0.59818 0.0
C485 C 0.33625 0.14958 0.59983 0.0
C486 C 0.30564 0.15659 0.58104 0.0
C487 C 0.34159 0.15748 0.63552 0.0
O488 O 0.32161 0.12862 0.70989 0.0
O489 O 0.35086 0.1466 0.68897 0.0
C490 C 0.34281 0.13291 0.70287 0.0
O491 O 0.34548 0.19523 0.68609 0.0
O492 O 0.28016 0.13087 0.73129 0.0
O493 O 0.29869 0.1732 0.73546 0.0
O494 O 0.34363 0.18276 0.71514 0.0
C495 C 0.35424 0.20065 0.7044 0.0
O496 O 0.28913 0.1549 0.66252 0.0
O497 O 0.28759 0.17324 0.69218 0.0
O498 O 0.26981 0.11797 0.68902 0.0
O499 O 0.34864 0.17767 0.64878 0.0
O500 O 0.32942 0.13549 0.64201 0.0
O501 O 0.2956 0.11159 0.66945 0.0
C502 C 0.30174 0.15438 0.76192 0.0
C503 C 0.32248 0.14994 0.76221 0.0
C504 C 0.31004 0.16546 0.79661 0.0
C505 C 0.3369 0.15322 0.77952 0.0
C506 C 0.29549 0.16204 0.7792 0.0
C507 C 0.33107 0.16131 0.79693 0.0
C508 C 0.28782 0.15232 0.74346 0.0
C509 C 0.28041 0.16701 0.67353 0.0
H510 H 0.30662 0.17259 0.62883 0.0
H511 H 0.3289 0.14165 0.56915 0.0
H512 H 0.28593 0.17187 0.59795 0.0
H513 H 0.35015 0.14315 0.6003 0.0
H514 H 0.32773 0.14419 0.74899 0.0
H515 H 0.30522 0.17198 0.80976 0.0
H516 H 0.35266 0.14943 0.77924 0.0
H517 H 0.27968 0.16579 0.77921 0.0
Eu518 Eu 0.8342 0.17245 0.70342 0.0
Eu519 Eu 0.8222 0.16736 0.65694 0.0
C520 C 0.84098 0.22072 0.68472 0.0
C521 C 0.82495 0.17554 0.75553 0.0
C522 C 0.79974 0.17056 0.75082 0.0
C523 C 0.82094 0.18112 0.78921 0.0
C524 C 0.78513 0.17073 0.76527 0.0
C525 C 0.83549 0.18088 0.77476 0.0
C526 C 0.79555 0.17592 0.78464 0.0
C527 C 0.84016 0.17478 0.74044 0.0
O528 O 0.86239 0.17368 0.66218 0.0
O529 O 0.87381 0.19167 0.69422 0.0
C530 C 0.87988 0.1864 0.67749 0.0
O531 O 0.83639 0.13826 0.6893 0.0
O532 O 0.81633 0.1822 0.63153 0.0
O533 O 0.81352 0.14444 0.62847 0.0
O534 O 0.80513 0.12676 0.66439 0.0
C535 C 0.81849 0.12051 0.67567 0.0
O536 O 0.79079 0.1511 0.69609 0.0
O537 O 0.78779 0.16643 0.66848 0.0
O538 O 0.84557 0.21039 0.66925 0.0
O539 O 0.82929 0.15295 0.72817 0.0
O540 O 0.85084 0.19542 0.73217 0.0
O541 O 0.83029 0.20669 0.69794 0.0
C542 C 0.83221 0.17011 0.60515 0.0
C543 C 0.85901 0.18667 0.61057 0.0
C544 C 0.8392 0.16307 0.57228 0.0
C545 C 0.87584 0.19118 0.59693 0.0
C546 C 0.82238 0.15865 0.58592 0.0
C547 C 0.86616 0.17903 0.57769 0.0
C548 C 0.81472 0.16291 0.6197 0.0
C549 C 0.77777 0.15603 0.68336 0.0
H550 H 0.79131 0.16638 0.73598 0.0
H551 H 0.82972 0.1857 0.80398 0.0
H552 H 0.7656 0.16647 0.76128 0.0
H553 H 0.85496 0.18486 0.77859 0.0
H554 H 0.86694 0.19556 0.62542 0.0
H555 H 0.83112 0.15309 0.55766 0.0
H556 H 0.89644 0.20385 0.6015 0.0
H557 H 0.80176 0.14561 0.58156 0.0
H558 H 0.32056 0.88683 0.0502 0.0
H559 H 0.31682 0.81212 0.03852 0.0
H560 H 0.35958 0.83404 0.02727 0.0
H561 H 0.35226 0.91402 0.01046 0.0
H562 H 0.37226 0.94669 0.02395 0.0
H563 H 0.34106 0.92494 0.03045 0.0
H564 H 0.36249 0.93117 0.06498 0.0
H565 H 0.39373 0.95299 0.0586 0.0
H566 H 0.3884 0.9246 0.06859 0.0
H567 H 0.40239 0.86429 0.01632 0.0
H568 H 0.44343 0.90095 0.00942 0.0
H569 H 0.4199 0.95585 0.03031 0.0
C570 C 0.32869 0.87506 0.04519 0.0
C571 C 0.31533 0.84776 0.04508 0.0
C572 C 0.32677 0.83308 0.03871 0.0
C573 C 0.35097 0.84534 0.03224 0.0
C574 C 0.36362 0.87231 0.03248 0.0
C575 C 0.35299 0.88703 0.03903 0.0
C576 C 0.37095 0.91586 0.03861 0.0
C577 C 0.35838 0.92596 0.02506 0.0
C578 C 0.37939 0.9321 0.0589 0.0
C579 C 0.39329 0.91507 0.03071 0.0
C580 C 0.38862 0.88977 0.02704 0.0
C581 C 0.40632 0.8842 0.01925 0.0
C582 C 0.4295 0.90509 0.01531 0.0
C583 C 0.43487 0.9312 0.01944 0.0
C584 C 0.41644 0.93611 0.02719 0.0
H585 H 0.1567 0.4534 0.05467 0.0
H586 H 0.10659 0.38449 0.07883 0.0
H587 H 0.06928 0.38878 0.06893 0.0
H588 H 0.12679 0.48974 0.0688 0.0
H589 H 0.12987 0.5038 0.0473 0.0
H590 H 0.15279 0.49479 0.05533 0.0
H591 H 0.14252 0.46533 0.02246 0.0
H592 H 0.1196 0.47431 0.0143 0.0
H593 H 0.1095 0.44024 0.0134 0.0
H594 H 0.03792 0.40161 0.05843 0.0
H595 H 0.01369 0.42149 0.04673 0.0
H596 H 0.08313 0.48175 0.02845 0.0
C597 C 0.13783 0.43906 0.05768 0.0
C598 C 0.13464 0.41858 0.06754 0.0
C599 C 0.10962 0.40034 0.07131 0.0
C600 C 0.08824 0.40258 0.06573 0.0
C601 C 0.09207 0.4231 0.05628 0.0
C602 C 0.11614 0.44095 0.05214 0.0
C603 C 0.11483 0.46151 0.04219 0.0
C604 C 0.13209 0.48909 0.05412 0.0
C605 C 0.12204 0.46026 0.02188 0.0
C606 C 0.08635 0.45255 0.04165 0.0
C607 C 0.07367 0.43034 0.04988 0.0
C608 C 0.04756 0.41887 0.05179 0.0
C609 C 0.03398 0.43039 0.04515 0.0
C610 C 0.04645 0.45312 0.03659 0.0
C611 C 0.07298 0.4642 0.03472 0.0
H612 H 0.5253 0.66966 0.05724 0.0
H613 H 0.56181 0.7037 0.00894 0.0
H614 H 0.56119 0.66284 0.9969 0.0
H615 H 0.56034 0.63785 0.06525 0.0
H616 H 0.53348 0.60949 0.07185 0.0
H617 H 0.53537 0.64071 0.07595 0.0
H618 H 0.48991 0.62012 0.05623 0.0
H619 H 0.48782 0.58879 0.05215 0.0
H620 H 0.48374 0.60299 0.03212 0.0
H621 H 0.55709 0.61816 0.99055 0.0
H622 H 0.55057 0.57393 0.99073 0.0
H623 H 0.51819 0.57049 0.04391 0.0
C624 C 0.53291 0.66849 0.044 0.0
C625 C 0.54348 0.68985 0.03396 0.0
C626 C 0.55355 0.68756 0.01683 0.0
C627 C 0.55327 0.66444 0.00989 0.0
C628 C 0.54297 0.64388 0.02029 0.0
C629 C 0.533 0.64575 0.03699 0.0
C630 C 0.5239 0.62133 0.04591 0.0
C631 C 0.53919 0.62774 0.06592 0.0
C632 C 0.49461 0.60749 0.04664 0.0
C633 C 0.53043 0.60543 0.0317 0.0
C634 C 0.54123 0.61863 0.01693 0.0
C635 C 0.54866 0.60767 1.00205 0.0
C636 C 0.54488 0.58254 1.00228 0.0
C637 C 0.53401 0.56881 0.01738 0.0
C638 C 0.52676 0.58054 0.03224 0.0
H639 H 0.82123 0.31103 0.98028 0.0
H640 H 0.85334 0.27246 0.94579 0.0
H641 H 0.89672 0.31193 0.95456 0.0
H642 H 0.85941 0.37387 0.96822 0.0
H643 H 0.86369 0.39173 0.99171 0.0
H644 H 0.83525 0.35988 0.98382 0.0
H645 H 0.84542 0.34352 0.0136 0.0
H646 H 0.87379 0.37542 0.02168 0.0
H647 H 0.87665 0.34668 0.01852 0.0
H648 H 0.93599 0.35627 0.96524 0.0
H649 H 0.96925 0.40203 0.97868 0.0
H650 H 0.91197 0.41189 1.00659 0.0
C651 C 0.83743 0.31075 0.9748 0.0
C652 C 0.83386 0.28863 0.96234 0.0
C653 C 0.85556 0.28914 0.95535 0.0
C654 C 0.8803 0.31148 0.96024 0.0
C655 C 0.88308 0.33312 0.9722 0.0
C656 C 0.86232 0.3329 0.97955 0.0
C657 C 0.87054 0.35906 0.99173 0.0
C658 C 0.85638 0.37188 0.98336 0.0
C659 C 0.86636 0.35598 0.01262 0.0
C660 C 0.89908 0.37407 0.98985 0.0
C661 C 0.90588 0.35873 0.97853 0.0
C662 C 0.93097 0.36844 0.97426 0.0
C663 C 0.9497 0.39451 0.9819 0.0
C664 C 0.94326 0.41056 0.99373 0.0
C665 C 0.91756 0.40011 0.9977 0.0
H666 H 0.67731 0.51308 0.94743 0.0
H667 H 0.73351 0.56222 0.99758 0.0
H668 H 0.6982 0.55779 0.01542 0.0
H669 H 0.63594 0.53897 0.95307 0.0
H670 H 0.60627 0.50809 0.94517 0.0
H671 H 0.6357 0.51364 0.93646 0.0
H672 H 0.63038 0.47211 0.9484 0.0
H673 H 0.60081 0.46632 0.95702 0.0
H674 H 0.62666 0.46888 0.9731 0.0
H675 H 0.6575 0.54987 0.02743 0.0
H676 H 0.61354 0.53793 0.03339 0.0
H677 H 0.58303 0.49395 0.97548 0.0
C678 C 0.68216 0.5226 0.96224 0.0
C679 C 0.70822 0.53794 0.97113 0.0
C680 C 0.71374 0.55036 0.99046 0.0
C681 C 0.69381 0.54797 1.00073 0.0
C682 C 0.66842 0.53311 0.99147 0.0
C683 C 0.66246 0.52052 0.97271 0.0
C684 C 0.63354 0.5064 0.96604 0.0
C685 C 0.62752 0.51744 0.94919 0.0
C686 C 0.62218 0.47666 0.96084 0.0
C687 C 0.62426 0.51318 0.98397 0.0
C688 C 0.64475 0.52857 0.99844 0.0
C689 C 0.64126 0.53772 0.01626 0.0
C690 C 0.61614 0.53084 0.01946 0.0
C691 C 0.59469 0.51493 1.00493 0.0
C692 C 0.59894 0.50607 0.98692 0.0
H693 H 0.4566 0.1398 0.99427 0.0
H694 H 0.38007 0.08222 0.9642 0.0
H695 H 0.39028 0.04723 0.96577 0.0
H696 H 0.49127 0.11142 0.97296 0.0
H697 H 0.51235 0.11862 0.99479 0.0
H698 H 0.49933 0.13927 0.99088 0.0
H699 H 0.48015 0.13172 0.02276 0.0
H700 H 0.49321 0.11114 0.02681 0.0
H701 H 0.4591 0.09869 0.02668 0.0
H702 H 0.40933 0.0188 0.96968 0.0
H703 H 0.43439 -0.00181 0.9783 0.0
H704 H 0.49752 0.07388 1.00752 0.0
C705 C 0.44203 0.11983 0.98798 0.0
C706 C 0.41759 0.11369 0.97902 0.0
C707 C 0.3989 0.08731 0.97117 0.0
C708 C 0.40455 0.06734 0.97191 0.0
C709 C 0.42886 0.07405 0.98078 0.0
C710 C 0.44718 0.09959 0.9889 0.0
C711 C 0.47145 0.10138 0.99823 0.0
C712 C 0.49499 0.1187 0.98864 0.0
C713 C 0.47625 0.11131 0.0199 0.0
C714 C 0.46395 0.07288 0.99401 0.0
C715 C 0.43942 0.05749 0.98374 0.0
C716 C 0.4285 0.03062 0.97782 0.0
C717 C 0.44292 0.01912 0.98271 0.0
C718 C 0.46782 0.03442 0.99365 0.0
C719 C 0.47843 0.06166 0.99929 0.0
H720 H 0.67914 0.11756 0.95786 0.0
H721 H 0.69653 0.18727 0.9971 0.0
H722 H 0.6561 0.16146 0.01062 0.0
H723 H 0.60963 0.09185 0.94845 0.0
H724 H 0.60135 0.05818 0.94669 0.0
H725 H 0.63168 0.08212 0.9402 0.0
H726 H 0.65624 0.06978 0.96427 0.0
H727 H 0.62598 0.04589 0.97086 0.0
H728 H 0.65108 0.07124 0.989 0.0
H729 H 0.61566 0.1274 0.0214 0.0
H730 H 0.57532 0.08834 0.02645 0.0
H731 H 0.58224 0.04173 0.97825 0.0
C732 C 0.67437 0.12734 0.96929 0.0
C733 C 0.69095 0.15429 0.97661 0.0
C734 C 0.68399 0.1666 0.99134 0.0
C735 C 0.66115 0.15212 0.99911 0.0
C736 C 0.64527 0.12551 0.99167 0.0
C737 C 0.65131 0.11332 0.97685 0.0
C738 C 0.63056 0.08465 0.97112 0.0
C739 C 0.61753 0.07887 0.95039 0.0
C740 C 0.64163 0.06685 0.97399 0.0
C741 C 0.61218 0.0825 0.9853 0.0
C742 C 0.62116 0.10624 0.99714 0.0
C743 C 0.60824 0.1088 0.01205 0.0
C744 C 0.58546 0.08654 0.01487 0.0
C745 C 0.57568 0.06221 1.00263 0.0
C746 C 0.58914 0.06024 0.98761 0.0
H747 H 0.86863 0.51165 0.93394 0.0
H748 H 0.86081 0.55925 0.98101 0.0
H749 H 0.89479 0.5584 1.00163 0.0
H750 H 0.87782 0.47048 0.96163 0.0
H751 H 0.90132 0.46854 0.94819 0.0
H752 H 0.87732 0.47395 0.93674 0.0
H753 H 0.91353 0.5161 0.9268 0.0
H754 H 0.93765 0.51078 0.93821 0.0
H755 H 0.93882 0.5414 0.94486 0.0
H756 H 0.92761 0.5502 0.01776 0.0
H757 H 0.95805 0.53632 0.02803 0.0
H758 H 0.94555 0.49491 0.97038 0.0
C759 C 0.87424 0.52212 0.94853 0.0
C760 C 0.86202 0.53555 0.95584 0.0
C761 C 0.86988 0.54888 0.97504 0.0
C762 C 0.88919 0.54852 0.98689 0.0
C763 C 0.90063 0.53489 0.97931 0.0
C764 C 0.8936 0.52207 0.96054 0.0
C765 C 0.90855 0.50837 0.95611 0.0
C766 C 0.89015 0.47857 0.95033 0.0
C767 C 0.92565 0.51986 0.94057 0.0
C768 C 0.92479 0.51518 0.97539 0.0
C769 C 0.91992 0.53051 0.98856 0.0
C770 C 0.93177 0.5384 1.00753 0.0
C771 C 0.949 0.53035 0.01324 0.0
C772 C 0.95433 0.51464 1.00001 0.0
C773 C 0.94215 0.50718 0.98079 0.0
H774 H 0.43273 0.29026 0.97412 0.0
H775 H 0.48744 0.28402 0.01271 0.0
H776 H 0.50644 0.3305 0.02742 0.0
H777 H 0.47598 0.35269 0.96504 0.0
H778 H 0.45293 0.36345 0.9641 0.0
H779 H 0.44198 0.32914 0.95801 0.0
H780 H 0.4109 0.31866 0.98356 0.0
H781 H 0.42165 0.35298 0.98966 0.0
H782 H 0.42358 0.33528 1.00798 0.0
H783 H 0.52166 0.37867 0.03602 0.0
H784 H 0.53133 0.42429 0.03826 0.0
H785 H 0.46651 0.39847 0.99386 0.0
C786 C 0.44842 0.29847 0.98589 0.0
C787 C 0.45856 0.28347 0.9923 0.0
C788 C 0.47928 0.2951 1.00761 0.0
C789 C 0.49019 0.32148 0.01605 0.0
C790 C 0.48005 0.33585 0.00908 0.0
C791 C 0.4595 0.32468 0.99442 0.0
C792 C 0.45303 0.34462 0.98881 0.0
C793 C 0.45618 0.34765 0.96775 0.0
C794 C 0.42567 0.33746 0.99274 0.0
C795 C 0.47349 0.36893 1.00232 0.0
C796 C 0.48879 0.36348 0.01399 0.0
C797 C 0.50963 0.3831 0.02709 0.0
C798 C 0.51501 0.40897 0.02821 0.0
C799 C 0.49965 0.41496 0.01626 0.0
C800 C 0.47852 0.39455 1.00329 0.0
H801 H 0.15888 0.68151 0.04829 0.0
H802 H 0.17958 0.67541 0.10642 0.0
H803 H 0.144 0.6294 0.10116 0.0
H804 H 0.09068 0.64304 0.0471 0.0
H805 H 0.08424 0.62735 0.02252 0.0
H806 H 0.11215 0.65959 0.03038 0.0
H807 H 0.14192 0.64312 0.01826 0.0
H808 H 0.11407 0.61085 0.01025 0.0
H809 H 0.14062 0.61516 0.02654 0.0
H810 H 0.10525 0.58487 0.09033 0.0
H811 H 0.06651 0.54382 0.07407 0.0
H812 H 0.07077 0.57828 0.02281 0.0
C813 C 0.15611 0.67041 0.05984 0.0
C814 C 0.17207 0.68211 0.07778 0.0
C815 C 0.16765 0.66694 0.09256 0.0
C816 C 0.14747 0.64075 0.08972 0.0
C817 C 0.13187 0.62995 0.07201 0.0
C818 C 0.136 0.64418 0.05726 0.0
C819 C 0.11602 0.6279 0.03974 0.0
C820 C 0.09981 0.64021 0.03464 0.0
C821 C 0.12894 0.62403 0.02269 0.0
C822 C 0.09995 0.60242 0.04705 0.0
C823 C 0.10947 0.60407 0.0657 0.0
C824 C 0.09768 0.58326 0.07568 0.0
C825 C 0.07562 0.56004 0.06632 0.0
C826 C 0.06558 0.55778 0.04715 0.0
C827 C 0.07798 0.57934 0.03745 0.0
H828 H 0.32256 0.42582 0.04018 0.0
H829 H 0.34998 0.49284 0.08549 0.0
H830 H 0.39464 0.50944 0.07868 0.0
H831 H 0.37585 0.41616 0.04815 0.0
H832 H 0.37679 0.40767 0.02314 0.0
H833 H 0.34673 0.40124 0.03112 0.0
H834 H 0.34155 0.42821 1.00697 0.0
H835 H 0.37164 0.43474 0.99892 0.0
H836 H 0.36712 0.46155 1.00747 0.0
H837 H 0.43636 0.51733 0.06871 0.0
H838 H 0.47286 0.51721 0.05492 0.0
H839 H 0.41906 0.4467 0.01471 0.0
C840 C 0.33796 0.44405 0.0486 0.0
C841 C 0.33276 0.45801 0.06341 0.0
C842 C 0.35344 0.48183 0.07406 0.0
C843 C 0.37889 0.49143 0.07031 0.0
C844 C 0.38337 0.47717 0.0557 0.0
C845 C 0.36352 0.45413 0.04487 0.0
C846 C 0.37379 0.44262 0.03007 0.0
C847 C 0.36794 0.41531 0.03332 0.0
C848 C 0.36287 0.44173 0.00965 0.0
C849 C 0.40256 0.46259 0.0345 0.0
C850 C 0.40757 0.48229 0.0494 0.0
C851 C 0.43267 0.50223 0.05688 0.0
C852 C 0.45323 0.50197 0.04901 0.0
C853 C 0.44859 0.48213 0.0337 0.0
C854 C 0.42296 0.46233 0.02618 0.0
H855 H 0.53876 0.84204 0.03357 0.0
H856 H 0.60345 0.89156 0.07849 0.0
H857 H 0.59874 0.92945 0.07408 0.0
H858 H 0.55604 0.89174 1.00296 0.0
H859 H 0.52288 0.88123 0.99463 0.0
H860 H 0.53109 0.85791 1.0015 0.0
H861 H 0.49796 0.84538 0.02558 0.0
H862 H 0.48972 0.86871 0.01883 0.0
H863 H 0.50037 0.87065 0.04359 0.0
H864 H 0.58463 0.96084 0.06667 0.0
H865 H 0.5655 0.98523 0.05396 0.0
H866 H 0.51312 0.91681 0.01151 0.0
C867 C 0.55193 0.8609 0.04242 0.0
C868 C 0.57136 0.86394 0.05646 0.0
C869 C 0.58848 0.88891 0.06763 0.0
C870 C 0.5859 0.91049 0.06528 0.0
C871 C 0.56646 0.90685 0.05139 0.0
C872 C 0.55007 0.88283 0.03989 0.0
C873 C 0.53137 0.88448 0.0256 0.0
C874 C 0.53561 0.87849 1.00495 0.0
C875 C 0.50319 0.86622 0.02859 0.0
C876 C 0.5395 0.91306 0.03111 0.0
C877 C 0.55955 0.9255 0.04619 0.0
C878 C 0.56926 0.95146 0.05464 0.0
C879 C 0.55827 0.96511 0.04739 0.0
C880 C 0.53824 0.95294 0.03163 0.0
C881 C 0.52884 0.92665 0.02333 0.0
H882 H 0.01756 0.20206 0.41261 0.0
H883 H 0.96137 0.18039 0.36249 0.0
H884 H 0.99642 0.20941 0.34529 0.0
H885 H 0.0563 0.27052 0.40788 0.0
H886 H 0.08654 0.27328 0.41629 0.0
H887 H 0.05723 0.25035 0.42457 0.0
H888 H 0.06505 0.21253 0.41307 0.0
H889 H 0.09445 0.23536 0.40484 0.0
H890 H 0.06965 0.20688 0.38852 0.0
H891 H 0.03797 0.23863 0.33295 0.0
H892 H 0.08249 0.27008 0.32757 0.0
H893 H 0.11093 0.27559 0.38661 0.0
C894 C 0.01268 0.20345 0.39801 0.0
C895 C 0.98683 0.18887 0.38878 0.0
C896 C 0.98107 0.19144 0.36979 0.0
C897 C 0.00084 0.20777 0.3599 0.0
C898 C 0.02617 0.22176 0.36935 0.0
C899 C 0.0321 0.22014 0.38809 0.0
C900 C 0.06075 0.23803 0.39519 0.0
C901 C 0.06547 0.2593 0.41198 0.0
C902 C 0.0732 0.22224 0.40072 0.0
C903 C 0.07005 0.24965 0.37742 0.0
C904 C 0.04986 0.23977 0.36259 0.0
C905 C 0.05389 0.24674 0.34451 0.0
C906 C 0.0792 0.26448 0.34155 0.0
C907 C 0.09999 0.27535 0.35671 0.0
C908 C 0.09529 0.26782 0.37484 0.0
H909 H 0.76886 0.75905 0.42979 0.0
H910 H 0.82378 0.77405 0.38936 0.0
H911 H 0.80415 0.79399 0.37116 0.0
H912 H 0.71425 0.74237 0.39535 0.0
H913 H 0.70183 0.75819 0.41087 0.0
H914 H 0.72026 0.74519 0.42096 0.0
H915 H 0.75214 0.79071 0.4415 0.0
H916 H 0.73376 0.80381 0.4315 0.0
H917 H 0.76787 0.81901 0.42994 0.0
H918 H 0.77859 0.81196 0.35711 0.0
H919 H 0.74903 0.8274 0.34834 0.0
H920 H 0.71056 0.80109 0.39784 0.0
C921 C 0.77679 0.76655 0.41713 0.0
C922 C 0.7979 0.76494 0.41103 0.0
C923 C 0.80766 0.77503 0.39436 0.0
C924 C 0.79663 0.7864 0.38389 0.0
C925 C 0.77585 0.78761 0.39026 0.0
C926 C 0.76603 0.77804 0.4065 0.0
C927 C 0.74353 0.78184 0.41018 0.0
C928 C 0.71849 0.75532 0.40928 0.0
C929 C 0.74971 0.79992 0.42942 0.0
C930 C 0.74226 0.79498 0.39344 0.0
C931 C 0.76108 0.79809 0.38214 0.0
C932 C 0.76378 0.80966 0.36586 0.0
C933 C 0.74684 0.81836 0.36098 0.0
C934 C 0.72739 0.81549 0.37236 0.0
C935 C 0.72516 0.80358 0.38881 0.0
H936 H 0.18942 -0.00143 0.41073 0.0
H937 H 0.20343 0.0339 0.3594 0.0
H938 H 0.20123 -0.0055 0.34176 0.0
H939 H 0.22716 0.96835 0.40403 0.0
H940 H 0.20519 0.93938 0.41318 0.0
H941 H 0.20754 0.97018 0.42156 0.0
H942 H 0.15814 0.94894 0.41162 0.0
H943 H 0.15563 0.91805 0.40327 0.0
H944 H 0.14398 0.93248 0.38733 0.0
H945 H 0.19813 0.95117 0.32998 0.0
H946 H 0.19331 0.90728 0.32482 0.0
H947 H 0.18116 0.90088 0.38405 0.0
C948 C 0.19197 -0.00192 0.39576 0.0
C949 C 0.19662 0.01935 0.38644 0.0
C950 C 0.19982 0.01783 0.36683 0.0
C951 C 0.19864 -0.00445 0.35671 0.0
C952 C 0.19418 0.97499 0.36641 0.0
C953 C 0.19081 0.97606 0.38548 0.0
C954 C 0.18627 0.95144 0.39265 0.0
C955 C 0.20783 0.95772 0.40881 0.0
C956 C 0.15941 0.93687 0.39909 0.0
C957 C 0.18768 0.93631 0.37465 0.0
C958 C 0.19229 0.95019 0.35965 0.0
C959 C 0.19447 0.94013 0.34162 0.0
C960 C 0.19175 0.91519 0.33884 0.0
C961 C 0.18685 0.90059 0.35402 0.0
C962 C 0.18487 0.91146 0.37213 0.0
H963 H 0.53623 0.65867 0.28323 0.0
H964 H 0.47744 0.65077 0.3186 0.0
H965 H 0.5093 0.69306 0.33908 0.0
H966 H 0.58995 0.68772 0.32135 0.0
H967 H 0.61255 0.7093 0.30718 0.0
H968 H 0.58525 0.67819 0.29572 0.0
H969 H 0.57099 0.70183 0.27374 0.0
H970 H 0.59824 0.73299 0.28513 0.0
H971 H 0.56594 0.72749 0.28437 0.0
H972 H 0.54772 0.7369 0.35525 0.0
H973 H 0.5892 0.7786 0.36558 0.0
H974 H 0.62219 0.75708 0.31929 0.0
C975 C 0.53 0.6657 0.29533 0.0
C976 C 0.50434 0.65138 0.29933 0.0
C977 C 0.49702 0.6614 0.31526 0.0
C978 C 0.51497 0.68537 0.32698 0.0
C979 C 0.54011 0.69902 0.32255 0.0
C980 C 0.54758 0.68951 0.30709 0.0
C981 C 0.57556 0.70806 0.30512 0.0
C982 C 0.59178 0.69504 0.30749 0.0
C983 C 0.5778 0.71819 0.28596 0.0
C984 C 0.58269 0.72962 0.32185 0.0
C985 C 0.56206 0.72407 0.33178 0.0
C986 C 0.56403 0.74139 0.34761 0.0
C987 C 0.58768 0.76503 0.35337 0.0
C988 C 0.60901 0.77113 0.34329 0.0
C989 C 0.60636 0.75303 0.32739 0.0
H990 H 0.33392 0.86855 0.27046 0.0
H991 H 0.39037 0.90243 0.32198 0.0
H992 H 0.35553 0.89458 0.34155 0.0
H993 H 0.29475 0.89482 0.28525 0.0
H994 H 0.26461 0.86594 0.27438 0.0
H995 H 0.29389 0.87399 0.26438 0.0
H996 H 0.28689 0.82822 0.26747 0.0
H997 H 0.25747 0.81998 0.27731 0.0
H998 H 0.2826 0.81758 0.2904 0.0
H999 H 0.31455 0.88376 0.35542 0.0
H1000 H 0.27027 0.86909 0.36265 0.0
H1001 H 0.24088 0.8419 0.30197 0.0
C1002 C 0.339 0.87427 0.28586 0.0
C1003 C 0.3649 0.88614 0.29469 0.0
C1004 C 0.37067 0.89328 0.3149 0.0
C1005 C 0.35102 0.88895 0.32613 0.0
C1006 C 0.32573 0.8774 0.31694 0.0
C1007 C 0.31966 0.87003 0.29727 0.0
C1008 C 0.29094 0.85783 0.29091 0.0
C1009 C 0.28576 0.87413 0.27797 0.0
C1010 C 0.27877 0.8292 0.28094 0.0
C1011 C 0.28182 0.85948 0.3101 0.0
C1012 C 0.30216 0.87093 0.32492 0.0
C1013 C 0.29845 0.87471 0.34392 0.0
C1014 C 0.27323 0.86637 0.34788 0.0
C1015 C 0.25205 0.85427 0.3329 0.0
C1016 C 0.25657 0.85095 0.31378 0.0
H1017 H 0.08031 0.43032 0.31577 0.0
H1018 H 0.14628 0.50693 0.34005 0.0
H1019 H 0.16963 0.48592 0.35173 0.0
H1020 H 0.08523 0.3951 0.35264 0.0
H1021 H 0.07646 0.36599 0.33585 0.0
H1022 H 0.06435 0.38697 0.3305 0.0
H1023 H 0.0834 0.39159 0.29851 0.0
H1024 H 0.09553 0.37062 0.30376 0.0
H1025 H 0.11732 0.40288 0.2988 0.0
H1026 H 0.1858 0.45644 0.36066 0.0
H1027 H 0.19487 0.421 0.36402 0.0
H1028 H 0.11918 0.36393 0.33237 0.0
C1029 C 0.09956 0.44265 0.32373 0.0
C1030 C 0.11143 0.47024 0.32717 0.0
C1031 C 0.13683 0.48575 0.3373 0.0
C1032 C 0.1502 0.47399 0.34404 0.0
C1033 C 0.13799 0.44674 0.34035 0.0
C1034 C 0.11333 0.43127 0.33028 0.0
C1035 C 0.10514 0.40254 0.32727 0.0
C1036 C 0.08139 0.38672 0.33716 0.0
C1037 C 0.10006 0.39125 0.30581 0.0
C1038 C 0.12907 0.40426 0.33717 0.0
C1039 C 0.14767 0.42987 0.34483 0.0
C1040 C 0.17139 0.43631 0.3547 0.0
C1041 C 0.17633 0.41604 0.35658 0.0
C1042 C 0.15777 0.38974 0.34842 0.0
C1043 C 0.1338 0.38387 0.3387 0.0
H1044 H 0.33294 0.47354 0.2904 0.0
H1045 H 0.39136 0.47998 0.33335 0.0
H1046 H 0.35702 0.44657 0.34864 0.0
H1047 H 0.28616 0.46562 0.32135 0.0
H1048 H 0.25874 0.44217 0.3039 0.0
H1049 H 0.28791 0.46627 0.29615 0.0
H1050 H 0.29027 0.42929 0.27511 0.0
H1051 H 0.26103 0.40515 0.28276 0.0
H1052 H 0.28991 0.40329 0.28591 0.0
H1053 H 0.31614 0.41347 0.35986 0.0
H1054 H 0.27187 0.38185 0.36538 0.0
H1055 H 0.24048 0.39646 0.31457 0.0
C1056 C 0.33854 0.46789 0.303 0.0
C1057 C 0.36484 0.47942 0.31072 0.0
C1058 C 0.37134 0.4714 0.32717 0.0
C1059 C 0.35198 0.45246 0.33597 0.0
C1060 C 0.32624 0.4416 0.32806 0.0
C1061 C 0.3195 0.44888 0.31186 0.0
C1062 C 0.29043 0.43419 0.30619 0.0
C1063 C 0.28022 0.4532 0.30695 0.0
C1064 C 0.28245 0.41696 0.28631 0.0
C1065 C 0.28186 0.41768 0.32183 0.0
C1066 C 0.30278 0.42226 0.33433 0.0
C1067 C 0.29961 0.40962 0.35011 0.0
C1068 C 0.27439 0.39175 0.35315 0.0
C1069 C 0.25268 0.38661 0.34041 0.0
C1070 C 0.25662 0.39981 0.32455 0.0
H1071 H 0.52764 0.85723 0.28691 0.0
H1072 H 0.53829 0.92191 0.32881 0.0
H1073 H 0.57526 0.92267 0.34668 0.0
H1074 H 0.5431 0.82407 0.31972 0.0
H1075 H 0.55992 0.81451 0.30359 0.0
H1076 H 0.53423 0.81899 0.29419 0.0
H1077 H 0.56535 0.85243 0.27442 0.0
H1078 H 0.59113 0.84807 0.2838 0.0
H1079 H 0.59544 0.8804 0.28644 0.0
H1080 H 0.61044 0.91561 0.36041 0.0
H1081 H 0.64203 0.90212 0.3684 0.0
H1082 H 0.60917 0.84315 0.31684 0.0
C1083 C 0.5377 0.87153 0.29986 0.0
C1084 C 0.53002 0.88946 0.30651 0.0
C1085 C 0.54384 0.90799 0.32345 0.0
C1086 C 0.56485 0.90856 0.3337 0.0
C1087 C 0.57192 0.89063 0.32674 0.0
C1088 C 0.55886 0.87255 0.31016 0.0
C1089 C 0.57052 0.8556 0.30564 0.0
C1090 C 0.55076 0.82658 0.30581 0.0
C1091 C 0.58125 0.85937 0.28644 0.0
C1092 C 0.5921 0.8669 0.32233 0.0
C1093 C 0.59254 0.887 0.33438 0.0
C1094 C 0.61038 0.89999 0.35101 0.0
C1095 C 0.62822 0.89217 0.35544 0.0
C1096 C 0.62818 0.87169 0.34321 0.0
C1097 C 0.6099 0.85905 0.32641 0.0
H1098 H 0.10256 0.62465 0.29266 0.0
H1099 H 0.15392 0.61979 0.33558 0.0
H1100 H 0.17112 0.66609 0.34968 0.0
H1101 H 0.14673 0.68894 0.28523 0.0
H1102 H 0.12282 0.69839 0.28232 0.0
H1103 H 0.1135 0.66449 0.27615 0.0
H1104 H 0.07894 0.65165 0.29911 0.0
H1105 H 0.08806 0.68552 0.30528 0.0
H1106 H 0.08849 0.66749 0.32382 0.0
H1107 H 0.18426 0.71327 0.35807 0.0
H1108 H 0.1916 0.75798 0.36099 0.0
H1109 H 0.13137 0.7322 0.31276 0.0
C1110 C 0.11725 0.63321 0.30514 0.0
C1111 C 0.12689 0.61857 0.31302 0.0
C1112 C 0.1462 0.63058 0.32931 0.0
C1113 C 0.1561 0.65687 0.33742 0.0
C1114 C 0.14641 0.67082 0.32912 0.0
C1115 C 0.12731 0.6594 0.31343 0.0
C1116 C 0.12064 0.6789 0.30702 0.0
C1117 C 0.12627 0.68291 0.28646 0.0
C1118 C 0.09235 0.67037 0.30893 0.0
C1119 C 0.13923 0.70319 0.32143 0.0
C1120 C 0.15387 0.69805 0.33406 0.0
C1121 C 0.17281 0.7175 0.34836 0.0
C1122 C 0.17687 0.74287 0.34984 0.0
C1123 C 0.16204 0.74862 0.33711 0.0
C1124 C 0.14293 0.72841 0.32276 0.0
H1125 H 0.84766 0.01069 0.43468 0.0
H1126 H 0.8747 0.04357 0.38364 0.0
H1127 H 0.83615 0.00551 0.36378 0.0
H1128 H 0.82139 0.94269 0.41352 0.0
H1129 H 0.79427 0.93086 0.42674 0.0
H1130 H 0.82431 0.96035 0.43678 0.0
H1131 H 0.80005 0.98577 0.44089 0.0
H1132 H 0.76998 0.95639 0.43078 0.0
H1133 H 0.78071 0.98565 0.42039 0.0
H1134 H 0.79377 0.96462 0.34967 0.0
H1135 H 0.75168 0.92319 0.34219 0.0
H1136 H 0.75282 0.91697 0.40255 0.0
C1137 C 0.84561 0.00986 0.41932 0.0
C1138 C 0.86422 0.03014 0.41071 0.0
C1139 C 0.86074 0.02825 0.39055 0.0
C1140 C 0.83889 0.00674 0.37915 0.0
C1141 C 0.82079 0.98724 0.38814 0.0
C1142 C 0.82401 0.98853 0.40775 0.0
C1143 C 0.80166 0.96512 0.4139 0.0
C1144 C 0.81097 0.94879 0.42328 0.0
C1145 C 0.78725 0.97376 0.42728 0.0
C1146 C 0.78523 0.95054 0.39469 0.0
C1147 C 0.79657 0.96362 0.38002 0.0
C1148 C 0.78477 0.95414 0.36104 0.0
C1149 C 0.76081 0.93061 0.35695 0.0
C1150 C 0.74891 0.91676 0.37177 0.0
C1151 C 0.7614 0.92698 0.39087 0.0
H1152 H 0.00287 0.73223 0.40731 0.0
H1153 H 0.9665 0.76606 0.37557 0.0
H1154 H 0.00622 0.79036 0.36108 0.0
H1155 H 0.06845 0.79131 0.41628 0.0
H1156 H 0.08408 0.77239 0.41373 0.0
H1157 H 0.0534 0.75904 0.42262 0.0
H1158 H 0.03414 0.71827 0.39585 0.0
H1159 H 0.06466 0.7316 0.38678 0.0
H1160 H 0.03567 0.72268 0.37117 0.0
H1161 H 0.04818 0.80769 0.34776 0.0
H1162 H 0.09111 0.81996 0.33859 0.0
H1163 H 0.101 0.7763 0.37986 0.0
C1164 C 0.0034 0.74506 0.39754 0.0
C1165 C 0.98154 0.74721 0.39256 0.0
C1166 C 0.98301 0.76417 0.37968 0.0
C1167 C 0.00548 0.77802 0.37132 0.0
C1168 C 0.02645 0.77501 0.3762 0.0
C1169 C 0.02581 0.7593 0.38924 0.0
C1170 C 0.05088 0.75913 0.39172 0.0
C1171 C 0.06504 0.77119 0.41231 0.0
C1172 C 0.04603 0.73127 0.38603 0.0
C1173 C 0.0654 0.77661 0.37764 0.0
C1174 C 0.05096 0.78556 0.36885 0.0
C1175 C 0.05981 0.80107 0.35471 0.0
C1176 C 0.08416 0.8078 0.34952 0.0
C1177 C 0.09946 0.79914 0.35852 0.0
C1178 C 0.08988 0.7834 0.3728 0.0
H1179 H 0.20253 0.1838 0.39252 0.0
H1180 H 0.26453 0.19937 0.35868 0.0
H1181 H 0.25687 0.23099 0.34415 0.0
H1182 H 0.16 0.18913 0.3574 0.0
H1183 H 0.15015 0.20558 0.3748 0.0
H1184 H 0.15954 0.18311 0.38171 0.0
H1185 H 0.19395 0.21944 0.40874 0.0
H1186 H 0.18458 0.24195 0.40197 0.0
H1187 H 0.21784 0.25036 0.4029 0.0
H1188 H 0.24202 0.26073 0.3331 0.0
H1189 H 0.22417 0.28942 0.32886 0.0
H1190 H 0.17374 0.25612 0.37137 0.0
C1191 C 0.21435 0.19371 0.38194 0.0
C1192 C 0.23398 0.189 0.37658 0.0
C1193 C 0.24937 0.2027 0.36296 0.0
C1194 C 0.24508 0.22059 0.35457 0.0
C1195 C 0.22554 0.22478 0.36014 0.0
C1196 C 0.21064 0.21197 0.3737 0.0
C1197 C 0.19192 0.2211 0.37803 0.0
C1198 C 0.16373 0.19837 0.37266 0.0
C1199 C 0.19741 0.23398 0.39916 0.0
C1200 C 0.19861 0.24106 0.36482 0.0
C1201 C 0.21778 0.24265 0.35441 0.0
C1202 C 0.22704 0.25968 0.34121 0.0
C1203 C 0.21672 0.27581 0.33883 0.0
C1204 C 0.19765 0.27505 0.34982 0.0
C1205 C 0.18839 0.25724 0.36282 0.0
H1206 H 0.6674 0.53942 0.71229 0.0
H1207 H 0.64159 0.5954 0.71216 0.0
H1208 H 0.68269 0.62696 0.70205 0.0
H1209 H 0.73276 0.58507 0.73107 0.0
H1210 H 0.74587 0.56907 0.7165 0.0
H1211 H 0.71381 0.55019 0.72265 0.0
H1212 H 0.69533 0.53285 0.68665 0.0
H1213 H 0.72737 0.55175 0.68039 0.0
H1214 H 0.70162 0.55584 0.67048 0.0
H1215 H 0.72746 0.65367 0.69472 0.0
H1216 H 0.77324 0.67368 0.68971 0.0
H1217 H 0.76981 0.60007 0.69289 0.0
C1218 C 0.67031 0.55824 0.70999 0.0
C1219 C 0.65129 0.56497 0.71304 0.0
C1220 C 0.65585 0.58979 0.70989 0.0
C1221 C 0.67911 0.60784 0.70411 0.0
C1222 C 0.6975 0.60067 0.70134 0.0
C1223 C 0.69335 0.57643 0.70404 0.0
C1224 C 0.71668 0.574 0.70061 0.0
C1225 C 0.72794 0.56932 0.71879 0.0
C1226 C 0.70983 0.55232 0.68351 0.0
C1227 C 0.7348 0.60091 0.696 0.0
C1228 C 0.72325 0.61592 0.69648 0.0
C1229 C 0.73659 0.64202 0.69402 0.0
C1230 C 0.76253 0.65321 0.69125 0.0
C1231 C 0.77473 0.63823 0.69075 0.0
C1232 C 0.76062 0.61165 0.69282 0.0
H1233 H 0.46141 0.10857 0.72054 0.0
H1234 H 0.4202 0.0616 0.76259 0.0
H1235 H 0.38462 0.06953 0.75523 0.0
H1236 H 0.44352 0.15715 0.73031 0.0
H1237 H 0.43975 0.1608 0.70567 0.0
H1238 H 0.46201 0.15098 0.71372 0.0
H1239 H 0.43882 0.10956 0.68741 0.0
H1240 H 0.4165 0.11927 0.67926 0.0
H1241 H 0.40446 0.08743 0.68597 0.0
H1242 H 0.3541 0.08321 0.74435 0.0
H1243 H 0.32972 0.10134 0.73004 0.0
H1244 H 0.38976 0.13949 0.69454 0.0
C1245 C 0.44483 0.09984 0.72811 0.0
C1246 C 0.44367 0.08443 0.74216 0.0
C1247 C 0.42164 0.07346 0.75178 0.0
C1248 C 0.40126 0.07784 0.7477 0.0
C1249 C 0.40306 0.0932 0.73392 0.0
C1250 C 0.42418 0.104 0.72419 0.0
C1251 C 0.42118 0.12002 0.7102 0.0
C1252 C 0.44291 0.14895 0.71529 0.0
C1253 C 0.42017 0.10837 0.68948 0.0
C1254 C 0.39518 0.11661 0.71373 0.0
C1255 C 0.38516 0.10104 0.72747 0.0
C1256 C 0.36166 0.09533 0.73349 0.0
C1257 C 0.34795 0.10579 0.72525 0.0
C1258 C 0.3577 0.12181 0.71107 0.0
C1259 C 0.38167 0.12721 0.70525 0.0
H1260 H 0.86405 0.35412 0.74296 0.0
H1261 H 0.89509 0.39126 0.69423 0.0
H1262 H 0.88466 0.34842 0.67627 0.0
H1263 H 0.88854 0.3117 0.73928 0.0
H1264 H 0.8607 0.28468 0.74625 0.0
H1265 H 0.86885 0.3178 0.75468 0.0
H1266 H 0.82297 0.30642 0.74059 0.0
H1267 H 0.81463 0.27319 0.73221 0.0
H1268 H 0.8112 0.29229 0.71563 0.0
H1269 H 0.87328 0.30184 0.66448 0.0
H1270 H 0.86082 0.2552 0.65951 0.0
H1271 H 0.83725 0.24917 0.71611 0.0
C1272 C 0.86838 0.35326 0.72842 0.0
C1273 C 0.88037 0.37605 0.71999 0.0
C1274 C 0.88583 0.37404 0.70097 0.0
C1275 C 0.87999 0.34981 0.69066 0.0
C1276 C 0.86858 0.32781 0.69955 0.0
C1277 C 0.86268 0.32932 0.71797 0.0
C1278 C 0.85129 0.30305 0.72456 0.0
C1279 C 0.86837 0.3044 0.74223 0.0
C1280 C 0.82336 0.29316 0.72847 0.0
C1281 C 0.85206 0.28657 0.70709 0.0
C1282 C 0.86199 0.30112 0.69278 0.0
C1283 C 0.86527 0.29021 0.67553 0.0
C1284 C 0.8582 0.26372 0.67287 0.0
C1285 C 0.848 0.2485 0.6874 0.0
C1286 C 0.84484 0.26018 0.70466 0.0
H1287 H 0.20831 0.95459 0.62346 0.0
H1288 H 0.14289 0.93654 0.65413 0.0
H1289 H 0.16464 0.98293 0.6697 0.0
H1290 H 0.25793 0.00156 0.66205 0.0
H1291 H 0.27764 0.02258 0.64627 0.0
H1292 H 0.25708 0.98787 0.63785 0.0
H1293 H 0.23524 -0.00277 0.60963 0.0
H1294 H 0.25559 0.03196 0.61805 0.0
H1295 H 0.2209 0.01706 0.61457 0.0
H1296 H 0.19283 0.03132 0.68116 0.0
H1297 H 0.22647 0.0781 0.68907 0.0
H1298 H 0.27373 0.06452 0.65107 0.0
C1299 C 0.19858 0.96032 0.63353 0.0
C1300 C 0.17387 0.94194 0.63756 0.0
C1301 C 0.16184 0.95027 0.65084 0.0
C1302 C 0.174 0.97657 0.65972 0.0
C1303 C 0.1982 -0.00578 0.65522 0.0
C1304 C 0.21046 0.98644 0.64255 0.0
C1305 C 0.23644 0.00932 0.64019 0.0
C1306 C 0.25858 0.00508 0.647 0.0
C1307 C 0.23706 0.01417 0.61938 0.0
C1308 C 0.23682 0.03125 0.65345 0.0
C1309 C 0.21456 0.02211 0.66193 0.0
C1310 C 0.21039 0.03869 0.67466 0.0
C1311 C 0.22963 0.06527 0.67902 0.0
C1312 C 0.25281 0.07504 0.67071 0.0
C1313 C 0.25627 0.05772 0.65766 0.0
H1314 H 0.99679 0.19663 0.62482 0.0
H1315 H 0.04833 0.24326 0.67751 0.0
H1316 H 0.0109 0.23826 0.69296 0.0
H1317 H 0.95543 0.2229 0.62775 0.0
H1318 H 0.92619 0.19229 0.61823 0.0
H1319 H 0.95665 0.19834 0.61129 0.0
H1320 H 0.94977 0.15599 0.62261 0.0
H1321 H 0.91901 0.14946 0.62921 0.0
H1322 H 0.94307 0.15111 0.64666 0.0
H1323 H 0.96769 0.22869 0.70245 0.0
H1324 H 0.92229 0.21543 0.70523 0.0
H1325 H 0.89943 0.17578 0.64604 0.0
C1326 C 0.00024 0.20562 0.63966 0.0
C1327 C 0.02553 0.22027 0.64998 0.0
C1328 C 0.02916 0.23192 0.66932 0.0
C1329 C 0.00801 0.22918 0.67822 0.0
C1330 C 0.98338 0.2148 0.66757 0.0
C1331 C 0.97942 0.20322 0.64872 0.0
C1332 C 0.95113 0.18931 0.64029 0.0
C1333 C 0.94715 0.20146 0.62338 0.0
C1334 C 0.9401 0.15971 0.63435 0.0
C1335 C 0.93977 0.19491 0.65733 0.0
C1336 C 0.95864 0.20956 0.67295 0.0
C1337 C 0.95275 0.21717 0.69031 0.0
C1338 C 0.92688 0.20955 0.69173 0.0
C1339 C 0.90721 0.19455 0.67587 0.0
C1340 C 0.91392 0.18724 0.65846 0.0
H1341 H 0.72659 0.73577 0.63668 0.0
H1342 H 0.76389 0.8116 0.6738 0.0
H1343 H 0.80106 0.8065 0.68348 0.0
H1344 H 0.74544 0.70379 0.66752 0.0
H1345 H 0.75005 0.68471 0.64833 0.0
H1346 H 0.72711 0.69506 0.64408 0.0
H1347 H 0.75043 0.71725 0.61623 0.0
H1348 H 0.77357 0.70711 0.62054 0.0
H1349 H 0.78456 0.74127 0.62073 0.0
H1350 H 0.83306 0.79137 0.69047 0.0
H1351 H 0.85666 0.76769 0.69387 0.0
H1352 H 0.79842 0.70315 0.65095 0.0
C1353 C 0.74258 0.75139 0.64679 0.0
C1354 C 0.74233 0.77406 0.65451 0.0
C1355 C 0.7637 0.79405 0.66769 0.0
C1356 C 0.7849 0.79135 0.67325 0.0
C1357 C 0.78449 0.76867 0.66535 0.0
C1358 C 0.76387 0.74911 0.65236 0.0
C1359 C 0.76769 0.72638 0.64625 0.0
C1360 C 0.74631 0.701 0.65189 0.0
C1361 C 0.76916 0.72281 0.62465 0.0
C1362 C 0.79357 0.73604 0.65795 0.0
C1363 C 0.80304 0.76043 0.66893 0.0
C1364 C 0.82597 0.77241 0.68174 0.0
C1365 C 0.83926 0.75886 0.68356 0.0
C1366 C 0.8296 0.73371 0.67253 0.0
C1367 C 0.8067 0.72254 0.65936 0.0
H1368 H 0.02905 0.76 0.62881 0.0
H1369 H 0.06417 0.83491 0.66676 0.0
H1370 H 0.02311 0.82045 0.68016 0.0
H1371 H 0.96559 0.75381 0.61882 0.0
H1372 H 0.9482 0.71875 0.61759 0.0
H1373 H 0.98026 0.73516 0.61095 0.0
H1374 H 0.99517 0.71481 0.63553 0.0
H1375 H 0.96322 0.69842 0.64228 0.0
H1376 H 0.99083 0.71971 0.66024 0.0
H1377 H 0.97979 0.79587 0.69164 0.0
H1378 H 0.93527 0.76504 0.69753 0.0
H1379 H 0.92702 0.70831 0.6496 0.0
C1380 C 0.02797 0.77335 0.63987 0.0
C1381 C 0.04967 0.79844 0.64693 0.0
C1382 C 0.04764 0.81561 0.6612 0.0
C1383 C 0.02448 0.80755 0.6689 0.0
C1384 C 0.00345 0.78255 0.66177 0.0
C1385 C 0.00481 0.76592 0.64728 0.0
C1386 C 0.97927 0.74029 0.64187 0.0
C1387 C 0.96765 0.73681 0.62107 0.0
C1388 C 0.98232 0.71694 0.64519 0.0
C1389 C 0.96354 0.74481 0.65593 0.0
C1390 C 0.97791 0.76919 0.66743 0.0
C1391 C 0.96816 0.77696 0.68247 0.0
C1392 C 0.943 0.75937 0.68577 0.0
C1393 C 0.92784 0.73466 0.67381 0.0
C1394 C 0.93815 0.72739 0.65864 0.0
H1395 H 0.19705 0.23618 0.65964 0.0
H1396 H 0.15353 0.1759 0.60969 0.0
H1397 H 0.18069 0.15666 0.61537 0.0
H1398 H 0.25958 0.24439 0.65448 0.0
H1399 H 0.26919 0.24823 0.67976 0.0
H1400 H 0.24677 0.25784 0.67166 0.0
H1401 H 0.2136 0.22745 0.69194 0.0
H1402 H 0.23594 0.21779 0.70013 0.0
H1403 H 0.20377 0.19324 0.68866 0.0
H1404 H 0.21338 0.14512 0.62535 0.0
H1405 H 0.24733 0.13917 0.64076 0.0
H1406 H 0.26828 0.20471 0.6859 0.0
C1407 C 0.19331 0.21895 0.64991 0.0
C1408 C 0.17326 0.20758 0.63415 0.0
C1409 C 0.16873 0.18488 0.62186 0.0
C1410 C 0.18411 0.17387 0.62493 0.0
C1411 C 0.20371 0.18553 0.64054 0.0
C1412 C 0.20819 0.20735 0.653 0.0
C1413 C 0.23001 0.21538 0.66904 0.0
C1414 C 0.25273 0.24311 0.66871 0.0
C1415 C 0.22024 0.21333 0.6886 0.0
C1416 C 0.23718 0.19478 0.66353 0.0
C1417 C 0.2219 0.178 0.6469 0.0
C1418 C 0.22531 0.15796 0.63847 0.0
C1419 C 0.24474 0.15482 0.64732 0.0
C1420 C 0.26036 0.17138 0.6646 0.0
C1421 C 0.25644 0.19159 0.67283 0.0
H1422 H 0.74335 0.96729 0.63356 0.0
H1423 H 0.79938 0.96206 0.67152 0.0
H1424 H 0.82187 0.00976 0.68291 0.0
H1425 H 0.78852 0.02985 0.62073 0.0
H1426 H 0.76574 0.04098 0.62032 0.0
H1427 H 0.75432 0.00646 0.61479 0.0
H1428 H 0.72485 -0.00227 0.64135 0.0
H1429 H 0.73621 0.03221 0.64698 0.0
H1430 H 0.73893 0.01509 0.66546 0.0
H1431 H 0.8375 0.05755 0.69088 0.0
H1432 H 0.8458 0.10268 0.69458 0.0
H1433 H 0.77985 0.07705 0.65123 0.0
C1434 C 0.76041 0.97617 0.64421 0.0
C1435 C 0.7696 0.96092 0.65166 0.0
C1436 C 0.79198 0.97332 0.66559 0.0
C1437 C 0.8049 0.00041 0.67216 0.0
C1438 C 0.79524 0.01481 0.6646 0.0
C1439 C 0.77358 0.00319 0.6509 0.0
C1440 C 0.76706 0.02315 0.6453 0.0
C1441 C 0.76904 0.02523 0.62402 0.0
C1442 C 0.74017 0.01665 0.65006 0.0
C1443 C 0.78835 0.04776 0.65813 0.0
C1444 C 0.80438 0.0425 0.66913 0.0
C1445 C 0.82515 0.06196 0.6823 0.0
C1446 C 0.82966 0.08753 0.68431 0.0
C1447 C 0.81349 0.09342 0.67318 0.0
C1448 C 0.79262 0.07321 0.65989 0.0
H1449 H 0.45049 0.35532 0.71403 0.0
H1450 H 0.47095 0.35561 0.77389 0.0
H1451 H 0.44218 0.30758 0.76883 0.0
H1452 H 0.38359 0.30578 0.71022 0.0
H1453 H 0.38176 0.29095 0.68615 0.0
H1454 H 0.40453 0.32532 0.69429 0.0
H1455 H 0.44195 0.31857 0.68522 0.0
H1456 H 0.41929 0.28413 0.67713 0.0
H1457 H 0.44668 0.29452 0.69502 0.0
H1458 H 0.41115 0.26004 0.7576 0.0
H1459 H 0.37831 0.21568 0.74124 0.0
H1460 H 0.37739 0.24573 0.6885 0.0
C1461 C 0.44898 0.34529 0.72608 0.0
C1462 C 0.46302 0.35924 0.74437 0.0
C1463 C 0.46039 0.34538 0.75976 0.0
C1464 C 0.44416 0.31808 0.75702 0.0
C1465 C 0.43067 0.30495 0.73882 0.0
C1466 C 0.4328 0.31803 0.72361 0.0
C1467 C 0.41564 0.29921 0.70562 0.0
C1468 C 0.39516 0.30571 0.69867 0.0
C1469 C 0.43187 0.29911 0.68982 0.0
C1470 C 0.40342 0.27352 0.71316 0.0
C1471 C 0.41252 0.27734 0.73231 0.0
C1472 C 0.40389 0.25677 0.7426 0.0
C1473 C 0.3852 0.23162 0.73314 0.0
C1474 C 0.37523 0.22719 0.71356 0.0
C1475 C 0.38471 0.24845 0.70342 0.0
H1476 H 0.64693 0.09442 0.73015 0.0
H1477 H 0.63025 0.14852 0.70582 0.0
H1478 H 0.67038 0.16525 0.69091 0.0
H1479 H 0.71617 0.14062 0.74187 0.0
H1480 H 0.72465 0.11583 0.73693 0.0
H1481 H 0.6942 0.10747 0.74509 0.0
H1482 H 0.6699 0.07098 0.71531 0.0
H1483 H 0.70025 0.07924 0.707 0.0
H1484 H 0.67518 0.0792 0.69172 0.0
H1485 H 0.71122 0.17441 0.67735 0.0
H1486 H 0.75273 0.17957 0.66959 0.0
H1487 H 0.74465 0.12217 0.70505 0.0
C1488 C 0.65177 0.10976 0.72165 0.0
C1489 C 0.63546 0.12006 0.71893 0.0
C1490 C 0.64255 0.14042 0.70804 0.0
C1491 C 0.66521 0.14993 0.69946 0.0
C1492 C 0.68082 0.13925 0.70229 0.0
C1493 C 0.67469 0.12 0.71345 0.0
C1494 C 0.6955 0.11289 0.71509 0.0
C1495 C 0.70839 0.11961 0.73598 0.0
C1496 C 0.68454 0.08385 0.70678 0.0
C1497 C 0.714 0.13074 0.70279 0.0
C1498 C 0.70505 0.14558 0.69537 0.0
C1499 C 0.71852 0.16304 0.6832 0.0
C1500 C 0.74199 0.16571 0.67877 0.0
C1501 C 0.75192 0.1513 0.68671 0.0
C1502 C 0.7376 0.13353 0.69881 0.0
H1503 H 0.92989 0.5596 0.70079 0.0
H1504 H 0.87825 0.51864 0.74072 0.0
H1505 H 0.85651 0.54389 0.73696 0.0
H1506 H 0.93772 0.62202 0.7156 0.0
H1507 H 0.93758 0.62976 0.69181 0.0
H1508 H 0.9486 0.60796 0.69723 0.0
H1509 H 0.9151 0.57217 0.66953 0.0
H1510 H 0.90403 0.59391 0.66398 0.0
H1511 H 0.88136 0.56189 0.66889 0.0
H1512 H 0.84279 0.57606 0.73081 0.0
H1513 H 0.83553 0.61029 0.72052 0.0
H1514 H 0.89418 0.62815 0.68304 0.0
C1515 C 0.9139 0.55584 0.70864 0.0
C1516 C 0.90579 0.53725 0.7211 0.0
C1517 C 0.88471 0.53274 0.73105 0.0
C1518 C 0.87229 0.54702 0.72905 0.0
C1519 C 0.88094 0.56541 0.71681 0.0
C1520 C 0.90101 0.56959 0.70656 0.0
C1521 C 0.9065 0.59042 0.6943 0.0
C1522 C 0.93424 0.61393 0.70009 0.0
C1523 C 0.90144 0.5789 0.67291 0.0
C1524 C 0.88668 0.59764 0.69952 0.0
C1525 C 0.87224 0.58311 0.71262 0.0
C1526 C 0.85372 0.5873 0.72035 0.0
C1527 C 0.84981 0.60682 0.7145 0.0
C1528 C 0.86413 0.62162 0.70087 0.0
C1529 C 0.88266 0.6168 0.69323 0.0
H1530 H 0.46105 0.95246 0.21961 0.0
H1531 H 0.50538 0.91339 0.21791 0.0
H1532 H 0.52016 0.92944 0.18795 0.0
H1533 H 0.43978 0.93881 0.16952 0.0
H1534 H 0.44244 0.97007 0.16874 0.0
H1535 H 0.43599 0.95621 0.19035 0.0
H1536 H 0.4761 -0.00163 0.20939 0.0
H1537 H 0.48263 0.01241 0.18784 0.0
H1538 H 0.50727 0.00988 0.20151 0.0
H1539 H 0.52932 0.94896 0.15782 0.0
H1540 H 0.53227 0.9706 0.12972 0.0
H1541 H 0.48218 -0.0029 0.15135 0.0
C1542 C 0.47396 0.94734 0.21302 0.0
C1543 C 0.48206 0.93166 0.22114 0.0
C1544 C 0.49894 0.92541 0.21199 0.0
C1545 C 0.50744 0.93443 0.19497 0.0
C1546 C 0.49894 0.94971 0.18732 0.0
C1547 C 0.48264 0.95617 0.19606 0.0
C1548 C 0.4761 0.97262 0.1848 0.0
C1549 C 0.44684 0.95858 0.17795 0.0
C1550 C 0.48613 -6e-05 0.19659 0.0
C1551 C 0.49105 0.97416 0.16821 0.0
C1552 C 0.5042 0.96093 0.16998 0.0
C1553 C 0.51924 0.95951 0.15635 0.0
C1554 C 0.52089 0.97197 0.14049 0.0
C1555 C 0.50753 0.98561 0.13838 0.0
C1556 C 0.49244 0.98665 0.15248 0.0
H1557 H 0.03112 0.48757 0.23896 0.0
H1558 H 0.10425 0.49227 0.2324 0.0
H1559 H 0.09174 0.4808 0.19726 0.0
H1560 H 0.99082 0.43425 0.19775 0.0
H1561 H 0.97265 0.4494 0.19146 0.0
H1562 H 0.98553 0.45383 0.2161 0.0
H1563 H 0.00925 0.50425 0.21797 0.0
H1564 H 0.99656 0.49999 0.19337 0.0
H1565 H 0.031 0.51917 0.20099 0.0
H1566 H 0.07294 0.47249 0.16298 0.0
H1567 H 0.05022 0.46983 0.13194 0.0
H1568 H 0.99063 0.47355 0.16091 0.0
C1569 C 0.04415 0.48541 0.23014 0.0
C1570 C 0.06849 0.49042 0.23835 0.0
C1571 C 0.08543 0.48831 0.22635 0.0
C1572 C 0.07845 0.48172 0.20641 0.0
C1573 C 0.05455 0.47751 0.19873 0.0
C1574 C 0.03767 0.47932 0.21021 0.0
C1575 C 0.01444 0.47666 0.19832 0.0
C1576 C 0.98938 0.45207 0.20107 0.0
C1577 C 0.01274 0.5015 0.20294 0.0
C1578 C 0.02118 0.47367 0.17838 0.0
C1579 C 0.04417 0.47376 0.17892 0.0
C1580 C 0.05487 0.47229 0.16237 0.0
C1581 C 0.04193 0.47104 0.14482 0.0
C1582 C 0.01869 0.47166 0.14395 0.0
C1583 C 0.0081 0.47262 0.161 0.0
H1584 H 0.44856 0.55275 0.20821 0.0
H1585 H 0.44083 0.48867 0.23596 0.0
H1586 H 0.45561 0.47316 0.20848 0.0
H1587 H 0.42845 0.51644 0.15861 0.0
H1588 H 0.45156 0.54464 0.14927 0.0
H1589 H 0.43776 0.54896 0.17017 0.0
H1590 H 0.48384 0.57928 0.18903 0.0
H1591 H 0.49777 0.57492 0.16828 0.0
H1592 H 0.50591 0.56733 0.1906 0.0
H1593 H 0.47519 0.46721 0.17947 0.0
H1594 H 0.49646 0.47023 0.1505 0.0
H1595 H 0.49145 0.53832 0.14192 0.0
C1596 C 0.44946 0.53515 0.20838 0.0
C1597 C 0.44347 0.5219 0.22425 0.0
C1598 C 0.4452 0.49909 0.22395 0.0
C1599 C 0.45358 0.49013 0.2084 0.0
C1600 C 0.45996 0.50407 0.19322 0.0
C1601 C 0.45775 0.52595 0.19301 0.0
C1602 C 0.46713 0.53827 0.1755 0.0
C1603 C 0.4449 0.53699 0.16263 0.0
C1604 C 0.49002 0.56662 0.18121 0.0
C1605 C 0.4756 0.5203 0.16613 0.0
C1606 C 0.47116 0.5006 0.1765 0.0
C1607 C 0.47852 0.48239 0.17114 0.0
C1608 C 0.49076 0.48439 0.15476 0.0
C1609 C 0.49558 0.50449 0.14397 0.0
C1610 C 0.48767 0.5225 0.14971 0.0
H1611 H 0.93784 0.47489 0.80859 0.0
H1612 H 0.99944 0.54705 0.79446 0.0
H1613 H 0.02057 0.56043 0.82812 0.0
H1614 H 0.93586 0.50182 0.85713 0.0
H1615 H 0.92996 0.47271 0.86627 0.0
H1616 H 0.91849 0.47034 0.84164 0.0
H1617 H 0.94309 0.44707 0.83063 0.0
H1618 H 0.95472 0.44946 0.85517 0.0
H1619 H 0.97737 0.4628 0.83845 0.0
H1620 H 0.0363 0.56436 0.86303 0.0
H1621 H 0.04587 0.55782 0.89571 0.0
H1622 H 0.97411 0.48272 0.88621 0.0
C1623 C 0.95553 0.49375 0.81258 0.0
C1624 C 0.96691 0.51 0.7989 0.0
C1625 C 0.99032 0.53432 0.80471 0.0
C1626 C 0.00242 0.5421 0.8238 0.0
C1627 C 0.99084 0.52535 0.83685 0.0
C1628 C 0.96789 0.50169 0.83145 0.0
C1629 C 0.96025 0.48635 0.84776 0.0
C1630 C 0.93462 0.4826 0.85354 0.0
C1631 C 0.95879 0.45987 0.84269 0.0
C1632 C 0.98277 0.50479 0.86312 0.0
C1633 C 1.00007 0.52736 0.85669 0.0
C1634 C 0.02276 0.54687 0.86826 0.0
C1635 C 0.02801 0.54304 0.88679 0.0
C1636 C 0.01075 0.51975 0.89342 0.0
C1637 C 0.98774 0.50062 0.88146 0.0
H1638 H 0.54338 0.46522 0.79708 0.0
H1639 H 0.57878 0.54871 0.79684 0.0
H1640 H 0.57307 0.55552 0.83071 0.0
H1641 H 0.49441 0.45967 0.82562 0.0
H1642 H 0.49571 0.43575 0.8382 0.0
H1643 H 0.50366 0.43766 0.8142 0.0
H1644 H 0.5482 0.44368 0.82589 0.0
H1645 H 0.54045 0.4419 0.84995 0.0
H1646 H 0.56948 0.46989 0.84523 0.0
H1647 H 0.56253 0.55314 0.86441 0.0
H1648 H 0.54726 0.54157 0.89528 0.0
H1649 H 0.5177 0.45949 0.87317 0.0
C1650 C 0.54945 0.48485 0.80392 0.0
C1651 C 0.56105 0.50633 0.79408 0.0
C1652 C 0.56977 0.53189 0.80403 0.0
C1653 C 0.56659 0.53598 0.82327 0.0
C1654 C 0.5547 0.51431 0.83243 0.0
C1655 C 0.54626 0.48925 0.82309 0.0
C1656 C 0.5337 0.46926 0.83612 0.0
C1657 C 0.50518 0.44942 0.82805 0.0
C1658 C 0.54887 0.45537 0.8395 0.0
C1659 C 0.53615 0.48698 0.85417 0.0
C1660 C 0.54851 0.51292 0.8518 0.0
C1661 C 0.55292 0.5329 0.86646 0.0
C1662 C 0.5443 0.52616 0.88398 0.0
C1663 C 0.5313 0.49965 0.88666 0.0
C1664 C 0.52735 0.4799 0.87152 0.0
H1665 H 0.50707 0.04407 0.80405 0.0
H1666 H 0.58965 0.07732 0.80387 0.0
H1667 H 0.59277 0.06277 0.83465 0.0
H1668 H 0.50939 0.06076 0.85463 0.0
H1669 H 0.48002 0.03073 0.856 0.0
H1670 H 0.48448 0.04408 0.83414 0.0
H1671 H 0.47636 0.00018 0.81547 0.0
H1672 H 0.47192 0.9867 0.83728 0.0
H1673 H 0.49577 0.98689 0.82316 0.0
H1674 H 0.58674 0.04485 0.86577 0.0
H1675 H 0.57189 0.02392 0.89414 0.0
H1676 H 0.4932 0.00191 0.8734 0.0
C1677 C 0.52588 0.04842 0.81047 0.0
C1678 C 0.54816 0.06196 0.80155 0.0
C1679 C 0.57231 0.067 0.81042 0.0
C1680 C 0.57428 0.05884 0.82792 0.0
C1681 C 0.5519 0.04552 0.83629 0.0
C1682 C 0.52815 0.04026 0.82781 0.0
C1683 C 0.50694 0.02528 0.83954 0.0
C1684 C 0.49448 0.04117 0.84649 0.0
C1685 C 0.48655 -0.00184 0.82818 0.0
C1686 C 0.52245 0.02297 0.85601 0.0
C1687 C 0.54836 0.03484 0.85393 0.0
C1688 C 0.5665 0.03547 0.86752 0.0
C1689 C 0.5579 0.02365 0.88362 0.0
C1690 C 0.53138 0.01123 0.88596 0.0
C1691 C 0.51353 0.01093 0.8719 0.0
H1692 H 0.1554 0.2804 0.56311 0.0
H1693 H 0.07832 0.21373 0.54253 0.0
H1694 H 0.0839 0.22247 0.50957 0.0
H1695 H 0.15179 0.32201 0.53258 0.0
H1696 H 0.18512 0.33699 0.52864 0.0
H1697 H 0.17587 0.32457 0.55053 0.0
H1698 H 0.19591 0.2954 0.54412 0.0
H1699 H 0.20523 0.30775 0.52219 0.0
H1700 H 0.18558 0.27294 0.52179 0.0
H1701 H 0.09729 0.2387 0.47896 0.0
H1702 H 0.11712 0.26226 0.45281 0.0
H1703 H 0.18467 0.31984 0.49334 0.0
C1704 C 0.13983 0.26747 0.55164 0.0
C1705 C 0.11646 0.2463 0.55542 0.0
C1706 C 0.09639 0.23007 0.54002 0.0
C1707 C 0.09939 0.23481 0.52122 0.0
C1708 C 0.12253 0.25595 0.51801 0.0
C1709 C 0.14239 0.27208 0.53276 0.0
C1710 C 0.1648 0.29417 0.52547 0.0
C1711 C 0.16967 0.32102 0.53486 0.0
C1712 C 0.18933 0.29245 0.52858 0.0
C1713 C 0.15431 0.28801 0.50437 0.0
C1714 C 0.13 0.26575 0.50037 0.0
C1715 C 0.1163 0.25623 0.48193 0.0
C1716 C 0.12767 0.26991 0.46718 0.0
C1717 C 0.15244 0.29309 0.47095 0.0
C1718 C 0.16588 0.30206 0.48985 0.0
H1719 H 0.6649 0.7953 0.57084 0.0
H1720 H 0.73252 0.86801 0.59952 0.0
H1721 H 0.73938 0.88455 0.56886 0.0
H1722 H 0.69191 0.79047 0.52784 0.0
H1723 H 0.66169 0.77686 0.51231 0.0
H1724 H 0.66171 0.77111 0.53665 0.0
H1725 H 0.63211 0.79029 0.54263 0.0
H1726 H 0.63191 0.79597 0.51829 0.0
H1727 H 0.64202 0.82269 0.53779 0.0
H1728 H 0.73841 0.89326 0.53492 0.0
H1729 H 0.7301 0.89303 0.50027 0.0
H1730 H 0.66424 0.81389 0.49382 0.0
C1731 C 0.68111 0.81474 0.57067 0.0
C1732 C 0.69765 0.83076 0.58768 0.0
C1733 C 0.71885 0.85592 0.58686 0.0
C1734 C 0.72315 0.86531 0.56944 0.0
C1735 C 0.70626 0.84914 0.55296 0.0
C1736 C 0.68574 0.82433 0.55342 0.0
C1737 C 0.67057 0.81072 0.53369 0.0
C1738 C 0.67154 0.78582 0.52725 0.0
C1739 C 0.6425 0.80457 0.53307 0.0
C1740 C 0.68568 0.83179 0.52205 0.0
C1741 C 0.70618 0.85382 0.5334 0.0
C1742 C 0.72249 0.87607 0.52588 0.0
C1743 C 0.71759 0.8758 0.50623 0.0
C1744 C 0.69667 0.85339 0.49438 0.0
C1745 C 0.68066 0.83112 0.50246 0.0
H1746 H 0.11301 0.83998 0.54806 0.0
H1747 H 0.1133 0.77289 0.5655 0.0
H1748 H 0.11887 0.75976 0.53274 0.0
H1749 H 0.08084 0.80832 0.49738 0.0
H1750 H 0.10098 0.83828 0.4886 0.0
H1751 H 0.09206 0.83954 0.51227 0.0
H1752 H 0.14052 0.86871 0.52654 0.0
H1753 H 0.14959 0.8674 0.50302 0.0
H1754 H 0.16238 0.85718 0.52166 0.0
H1755 H 0.13128 0.75792 0.50001 0.0
H1756 H 0.14889 0.76718 0.46952 0.0
H1757 H 0.14069 0.83549 0.47345 0.0
C1758 C 0.1134 0.82205 0.54486 0.0
C1759 C 0.11261 0.8074 0.55933 0.0
C1760 C 0.11376 0.78437 0.55464 0.0
C1761 C 0.11683 0.7767 0.53604 0.0
C1762 C 0.11849 0.79213 0.5223 0.0
C1763 C 0.11656 0.81419 0.52643 0.0
C1764 C 0.12178 0.82901 0.50977 0.0
C1765 C 0.09746 0.82876 0.50152 0.0
C1766 C 0.14495 0.85722 0.51561 0.0
C1767 C 0.12811 0.81249 0.49596 0.0
C1768 C 0.12569 0.79107 0.50332 0.0
C1769 C 0.13274 0.77431 0.49393 0.0
C1770 C 0.14288 0.77981 0.47672 0.0
C1771 C 0.14596 0.80194 0.46915 0.0
C1772 C 0.13795 0.81811 0.47872 0.0
H1773 H 0.61006 0.82076 0.13598 0.0
H1774 H 0.53095 0.75913 0.13709 0.0
H1775 H 0.54083 0.76273 0.17197 0.0
H1776 H 0.63926 0.79987 0.16782 0.0
H1777 H 0.66429 0.83222 0.17944 0.0
H1778 H 0.65036 0.82709 0.15503 0.0
H1779 H 0.63824 0.86246 0.16403 0.0
H1780 H 0.6524 0.86791 0.18847 0.0
H1781 H 0.61929 0.8597 0.1832 0.0
H1782 H 0.56036 0.77034 0.20618 0.0
H1783 H 0.5879 0.78188 0.23714 0.0
H1784 H 0.65407 0.83867 0.21359 0.0
C1785 C 0.59463 0.8084 0.1436 0.0
C1786 C 0.56968 0.78974 0.13379 0.0
C1787 C 0.55018 0.77364 0.14429 0.0
C1788 C 0.5556 0.77555 0.16411 0.0
C1789 C 0.58057 0.7937 0.17324 0.0
C1790 C 0.59972 0.80996 0.16335 0.0
C1791 C 0.62537 0.82664 0.17628 0.0
C1792 C 0.64603 0.82111 0.16922 0.0
C1793 C 0.63435 0.85592 0.1781 0.0
C1794 C 0.6178 0.8168 0.19489 0.0
C1795 C 0.59184 0.79797 0.1929 0.0
C1796 C 0.58064 0.78532 0.20798 0.0
C1797 C 0.59643 0.79206 0.22553 0.0
C1798 C 0.62316 0.81121 0.22783 0.0
C1799 C 0.63379 0.8238 0.21227 0.0
H1800 H 0.23467 0.79445 0.14319 0.0
H1801 H 0.23885 0.86094 0.12104 0.0
H1802 H 0.23166 0.87678 0.15244 0.0
H1803 H 0.18405 0.7814 0.1685 0.0
H1804 H 0.19585 0.77231 0.18847 0.0
H1805 H 0.20499 0.7683 0.16528 0.0
H1806 H 0.25347 0.79683 0.17966 0.0
H1807 H 0.24448 0.8008 0.20299 0.0
H1808 H 0.2656 0.82923 0.19294 0.0
H1809 H 0.21798 0.88185 0.18481 0.0
H1810 H 0.20137 0.87694 0.21599 0.0
H1811 H 0.207 0.80758 0.21681 0.0
C1812 C 0.23471 0.81269 0.14503 0.0
C1813 C 0.23736 0.82646 0.12963 0.0
C1814 C 0.23704 0.85013 0.13264 0.0
C1815 C 0.23294 0.85927 0.15044 0.0
C1816 C 0.22957 0.84473 0.16512 0.0
C1817 C 0.23079 0.82213 0.16267 0.0
C1818 C 0.22482 0.80907 0.1802 0.0
C1819 C 0.20102 0.78113 0.17531 0.0
C1820 C 0.24851 0.80899 0.1895 0.0
C1821 C 0.21914 0.82732 0.19268 0.0
C1822 C 0.22215 0.84789 0.18383 0.0
C1823 C 0.21604 0.8661 0.19202 0.0
C1824 C 0.20648 0.86309 0.20965 0.0
C1825 C 0.20318 0.84205 0.21887 0.0
C1826 C 0.20994 0.82421 0.21032 0.0
H1827 H 0.19491 0.39272 0.14056 0.0
H1828 H 0.26989 0.4003 0.13696 0.0
H1829 H 0.26795 0.38377 0.16759 0.0
H1830 H 0.20407 0.41289 0.19135 0.0
H1831 H 0.17102 0.38983 0.19376 0.0
H1832 H 0.17862 0.4024 0.17173 0.0
H1833 H 0.15633 0.35495 0.15289 0.0
H1834 H 0.14868 0.34223 0.17487 0.0
H1835 H 0.16656 0.33302 0.15963 0.0
H1836 H 0.25759 0.36664 0.19916 0.0
H1837 H 0.23909 0.34912 0.22796 0.0
H1838 H 0.17104 0.35284 0.2101 0.0
C1839 C 0.21101 0.39098 0.14617 0.0
C1840 C 0.2326 0.3979 0.13633 0.0
C1841 C 0.25313 0.39514 0.14421 0.0
C1842 C 0.25222 0.3858 0.16161 0.0
C1843 C 0.23061 0.37922 0.17092 0.0
C1844 C 0.21036 0.38163 0.16339 0.0
C1845 C 0.18918 0.37301 0.17596 0.0
C1846 C 0.18552 0.3959 0.18366 0.0
C1847 C 0.16368 0.3494 0.16519 0.0
C1848 C 0.20059 0.36532 0.19178 0.0
C1849 C 0.22455 0.36912 0.18873 0.0
C1850 C 0.23882 0.36356 0.20164 0.0
C1851 C 0.22822 0.35373 0.21799 0.0
C1852 C 0.20354 0.34942 0.22122 0.0
C1853 C 0.18974 0.35547 0.2079 0.0
H1854 H 0.82989 0.58618 0.87172 0.0
H1855 H 0.78028 0.61117 0.89659 0.0
H1856 H 0.78988 0.6419 0.87387 0.0
H1857 H 0.87859 0.6505 0.86163 0.0
H1858 H 0.88301 0.63678 0.83923 0.0
H1859 H 0.87385 0.61797 0.85838 0.0
H1860 H 0.83387 0.58017 0.83574 0.0
H1861 H 0.84285 0.59888 0.81655 0.0
H1862 H 0.81117 0.58683 0.82359 0.0
H1863 H 0.80243 0.6679 0.84751 0.0
H1864 H 0.81783 0.68817 0.81906 0.0
H1865 H 0.85911 0.64648 0.81075 0.0
C1866 C 0.82139 0.59842 0.87258 0.0
C1867 C 0.80436 0.59626 0.88599 0.0
C1868 C 0.79334 0.61238 0.88644 0.0
C1869 C 0.79872 0.62998 0.87362 0.0
C1870 C 0.81518 0.63132 0.86039 0.0
C1871 C 0.82645 0.61607 0.85977 0.0
C1872 C 0.84249 0.62056 0.84347 0.0
C1873 C 0.87119 0.63215 0.85114 0.0
C1874 C 0.83195 0.5951 0.82898 0.0
C1875 C 0.83817 0.64043 0.83496 0.0
C1876 C 0.82243 0.6464 0.84502 0.0
C1877 C 0.8149 0.66352 0.83956 0.0
C1878 C 0.8236 0.67479 0.82332 0.0
C1879 C 0.83965 0.66891 0.8127 0.0
C1880 C 0.84715 0.65163 0.81874 0.0
H1881 H 0.36081 0.16003 0.90799 0.0
H1882 H 0.44219 0.19775 0.90125 0.0
H1883 H 0.43083 0.19576 0.86687 0.0
H1884 H 0.33617 0.1162 0.86187 0.0
H1885 H 0.30797 0.11918 0.85828 0.0
H1886 H 0.32243 0.12246 0.8822 0.0
H1887 H 0.32692 0.16796 0.89093 0.0
H1888 H 0.31268 0.16494 0.867 0.0
H1889 H 0.34403 0.19294 0.87671 0.0
H1890 H 0.41099 0.19177 0.8337 0.0
H1891 H 0.38382 0.18466 0.80361 0.0
H1892 H 0.31522 0.14874 0.83171 0.0
C1893 C 0.37625 0.16763 0.89927 0.0
C1894 C 0.40241 0.17902 0.90735 0.0
C1895 C 0.42201 0.18887 0.89541 0.0
C1896 C 0.41576 0.18787 0.87586 0.0
C1897 C 0.38984 0.17687 0.86844 0.0
C1898 C 0.37037 0.16677 0.87972 0.0
C1899 C 0.34409 0.15651 0.86826 0.0
C1900 C 0.32664 0.12683 0.86761 0.0
C1901 C 0.33118 0.17149 0.8762 0.0
C1902 C 0.35188 0.1627 0.84881 0.0
C1903 C 0.37835 0.17439 0.84924 0.0
C1904 C 0.39021 0.18236 0.83313 0.0
C1905 C 0.37457 0.17812 0.81608 0.0
C1906 C 0.34734 0.16593 0.81522 0.0
C1907 C 0.33596 0.15824 0.83189 0.0
H1908 H 0.76228 0.16788 0.89037 0.0
H1909 H 0.72451 0.21184 0.88029 0.0
H1910 H 0.72836 0.20603 0.84589 0.0
H1911 H 0.80869 0.19606 0.86197 0.0
H1912 H 0.80951 0.16708 0.85298 0.0
H1913 H 0.79937 0.17013 0.8759 0.0
H1914 H 0.75598 0.12632 0.86493 0.0
H1915 H 0.76611 0.12292 0.84198 0.0
H1916 H 0.73594 0.12201 0.84328 0.0
H1917 H 0.74223 0.20116 0.81372 0.0
H1918 H 0.76435 0.19709 0.78657 0.0
H1919 H 0.79273 0.15617 0.81789 0.0
C1920 C 0.75407 0.17562 0.88087 0.0
C1921 C 0.74301 0.19024 0.88803 0.0
C1922 C 0.73294 0.20043 0.87513 0.0
C1923 C 0.735 0.19719 0.85555 0.0
C1924 C 0.74696 0.18354 0.8491 0.0
C1925 C 0.75606 0.17266 0.86137 0.0
C1926 C 0.77047 0.16124 0.85138 0.0
C1927 C 0.79867 0.17443 0.86114 0.0
C1928 C 0.75627 0.13134 0.85033 0.0
C1929 C 0.76907 0.16842 0.8318 0.0
C1930 C 0.75507 0.18086 0.83063 0.0
C1931 C 0.75278 0.19096 0.81435 0.0
C1932 C 0.76538 0.18852 0.79899 0.0
C1933 C 0.78027 0.17631 0.80011 0.0
C1934 C 0.78162 0.16573 0.81663 0.0
H1935 H 0.28643 0.15602 0.46848 0.0
H1936 H 0.20471 0.12411 0.47194 0.0
H1937 H 0.2136 0.1298 0.50709 0.0
H1938 H 0.2969 0.12404 0.50291 0.0
H1939 H 0.32886 0.15054 0.51316 0.0
H1940 H 0.31693 0.14741 0.48853 0.0
H1941 H 0.32533 0.19473 0.49495 0.0
H1942 H 0.33757 0.19813 0.51959 0.0
H1943 H 0.31149 0.20389 0.51395 0.0
H1944 H 0.23042 0.13486 0.54124 0.0
H1945 H 0.25418 0.13958 0.57238 0.0
H1946 H 0.32519 0.16818 0.54708 0.0
C1947 C 0.27052 0.1509 0.47668 0.0
C1948 C 0.24489 0.13981 0.46748 0.0
C1949 C 0.2245 0.13273 0.47868 0.0
C1950 C 0.22936 0.13592 0.49866 0.0
C1951 C 0.25471 0.14621 0.50724 0.0
C1952 C 0.27501 0.15374 0.49666 0.0
C1953 C 0.30012 0.16242 0.50931 0.0
C1954 C 0.31135 0.14506 0.5031 0.0
C1955 C 0.31979 0.19153 0.50946 0.0
C1956 C 0.29063 0.158 0.52854 0.0
C1957 C 0.26443 0.1489 0.52704 0.0
C1958 C 0.25102 0.14237 0.54267 0.0
C1959 C 0.26474 0.14523 0.56034 0.0
C1960 C 0.29163 0.15447 0.56227 0.0
C1961 C 0.30466 0.161 0.54609 0.0
H1962 H 0.90191 0.16812 0.47286 0.0
H1963 H 0.96179 0.15566 0.49735 0.0
H1964 H 0.95505 0.16842 0.52983 0.0
H1965 H 0.91345 0.2234 0.51121 0.0
H1966 H 0.87924 0.21112 0.51004 0.0
H1967 H 0.89231 0.20624 0.48886 0.0
H1968 H 0.86011 0.15619 0.48466 0.0
H1969 H 0.84715 0.16085 0.50587 0.0
H1970 H 0.85964 0.13901 0.50405 0.0
H1971 H 0.93764 0.176 0.55923 0.0
H1972 H 0.91052 0.17727 0.58333 0.0
H1973 H 0.86157 0.18457 0.53994 0.0
C1974 C 0.91425 0.16902 0.48505 0.0
C1975 C 0.93258 0.1612 0.4826 0.0
C1976 C 0.94776 0.16176 0.49891 0.0
C1977 C 0.94413 0.16907 0.51741 0.0
C1978 C 0.92525 0.17576 0.51935 0.0
C1979 C 0.91064 0.17595 0.50361 0.0
C1980 C 0.88953 0.1808 0.50956 0.0
C1981 C 0.89391 0.20695 0.50463 0.0
C1982 C 0.86253 0.15784 0.5005 0.0
C1983 C 0.89385 0.18218 0.531 0.0
C1984 C 0.91488 0.17977 0.5364 0.0
C1985 C 0.9215 0.17852 0.55525 0.0
C1986 C 0.90603 0.17938 0.56888 0.0
C1987 C 0.88405 0.1813 0.5636 0.0
C1988 C 0.87826 0.18317 0.54444 0.0
H1989 H 0.90817 0.71234 0.47822 0.0
H1990 H 0.83792 0.70757 0.45362 0.0
H1991 H 0.82168 0.70161 0.48471 0.0
H1992 H 0.87836 0.66221 0.50435 0.0
H1993 H 0.90346 0.67705 0.52473 0.0
H1994 H 0.91132 0.68495 0.50147 0.0
H1995 H 0.93153 0.73437 0.5148 0.0
H1996 H 0.92392 0.72664 0.53821 0.0
H1997 H 0.91259 0.74538 0.52708 0.0
H1998 H 0.81088 0.69083 0.51744 0.0
H1999 H 0.80718 0.6778 0.54942 0.0
H2000 H 0.88412 0.68874 0.5524 0.0
C2001 C 0.88965 0.71072 0.47948 0.0
C2002 C 0.87463 0.71112 0.46353 0.0
C2003 C 0.85026 0.70837 0.46571 0.0
C2004 C 0.84073 0.70467 0.48333 0.0
C2005 C 0.85582 0.70383 0.49864 0.0
C2006 C 0.87988 0.70702 0.49693 0.0
C2007 C 0.89149 0.70342 0.51507 0.0
C2008 C 0.89643 0.68054 0.51116 0.0
C2009 C 0.91636 0.72898 0.52434 0.0
C2010 C 0.86989 0.69696 0.52709 0.0
C2011 C 0.84955 0.69748 0.51743 0.0
C2012 C 0.82683 0.6907 0.52522 0.0
C2013 C 0.82482 0.68314 0.54333 0.0
C2014 C 0.84539 0.68235 0.55344 0.0
C2015 C 0.86827 0.68963 0.5452 0.0
loop_
_geom_bond_atom_site_label_1
_geom_bond_atom_site_label_2
_geom_bond_distance
_geom_bond_site_symmetry_2
_ccdc_geom_bond_type
O0 Cd1 2.300 . S
O0 C7 1.275 . S
Cd1 O0 2.300 . S
Cd1 O9 2.381 . S
Cd1 O10 2.378 . S
O2 Cd3 2.385 . S
O2 C7 1.255 . S
Cd3 O2 2.385 . S
Cd3 O4 2.317 . S
O4 Cd3 2.317 . S
O4 C5 1.232 . S
C5 O4 1.232 . S
C5 O6 1.218 . S
O6 C5 1.218 . S
C7 O0 1.275 . S
C7 O2 1.255 . S
C8 O9 1.258 . S
C8 O10 1.256 . S
O9 Cd1 2.381 . S
O9 C8 1.258 . S
O10 Cd1 2.378 . S
O10 C8 1.256 . S
O11 Cd12 2.300 . S
O11 C18 1.275 . S
Cd12 O11 2.300 . S
Cd12 O20 2.381 . S
Cd12 O21 2.378 . S
O13 Cd14 2.385 . S
O13 C18 1.255 . S
Cd14 O13 2.385 . S
Cd14 O15 2.317 . S
O15 Cd14 2.317 . S
O15 C16 1.232 . S
C16 O15 1.232 . S
C16 O17 1.218 . S
O17 C16 1.218 . S
C18 O11 1.275 . S
C18 O13 1.255 . S
C19 O20 1.258 . S
C19 O21 1.256 . S
O20 Cd12 2.381 . S
O20 C19 1.258 . S
O21 Cd12 2.378 . S
O21 C19 1.256 . S
O22 Cd23 2.300 . S
O22 C29 1.275 . S
Cd23 O22 2.300 . S
Cd23 O31 2.381 . S
Cd23 O32 2.378 . S
O24 Cd25 2.385 . S
O24 C29 1.255 . S
Cd25 O24 2.385 . S
Cd25 O26 2.317 . S
O26 Cd25 2.317 . S
O26 C27 1.232 . S
C27 O26 1.232 . S
C27 O28 1.218 . S
O28 C27 1.218 . S
C29 O22 1.275 . S
C29 O24 1.255 . S
C30 O31 1.258 . S
C30 O32 1.256 . S
O31 Cd23 2.381 . S
O31 C30 1.258 . S
O32 Cd23 2.378 . S
O32 C30 1.256 . S
O33 Cd34 2.300 . S
O33 C40 1.275 . S
Cd34 O33 2.300 . S
Cd34 O42 2.381 . S
Cd34 O43 2.378 . S
O35 Cd36 2.385 . S
O35 C40 1.255 . S
Cd36 O35 2.385 . S
Cd36 O37 2.317 . S
O37 Cd36 2.317 . S
O37 C38 1.232 . S
C38 O37 1.232 . S
C38 O39 1.218 . S
O39 C38 1.218 . S
C40 O33 1.275 . S
C40 O35 1.255 . S
C41 O42 1.258 . S
C41 O43 1.256 . S
O42 Cd34 2.381 . S
O42 C41 1.258 . S
O43 Cd34 2.378 . S
O43 C41 1.256 . S
O44 Cd45 2.300 . S
O44 C51 1.275 . S
Cd45 O44 2.300 . S
Cd45 O53 2.381 . S
Cd45 O54 2.378 . S
O46 Cd47 2.385 . S
O46 C51 1.255 . S
Cd47 O46 2.385 . S
Cd47 O48 2.317 . S
O48 Cd47 2.317 . S
O48 C49 1.232 . S
C49 O48 1.232 . S
C49 O50 1.218 . S
O50 C49 1.218 . S
C51 O44 1.275 . S
C51 O46 1.255 . S
C52 O53 1.258 . S
C52 O54 1.256 . S
O53 Cd45 2.381 . S
O53 C52 1.258 . S
O54 Cd45 2.378 . S
O54 C52 1.256 . S
O55 Cd56 2.300 . S
O55 C62 1.275 . S
Cd56 O55 2.300 . S
Cd56 O64 2.381 . S
Cd56 O65 2.378 . S
O57 Cd58 2.385 . S
O57 C62 1.255 . S
Cd58 O57 2.385 . S
Cd58 O59 2.317 . S
O59 Cd58 2.317 . S
O59 C60 1.232 . S
C60 O59 1.232 . S
C60 O61 1.218 . S
O61 C60 1.218 . S
C62 O55 1.275 . S
C62 O57 1.255 . S
C63 O64 1.258 . S
C63 O65 1.256 . S
O64 Cd56 2.381 . S
O64 C63 1.258 . S
O65 Cd56 2.378 . S
O65 C63 1.256 . S
O66 Cd67 2.300 . S
O66 C73 1.275 . S
Cd67 O66 2.300 . S
Cd67 O75 2.381 . S
Cd67 O76 2.378 . S
O68 Cd69 2.385 . S
O68 C73 1.255 . S
Cd69 O68 2.385 . S
Cd69 O70 2.317 . S
O70 Cd69 2.317 . S
O70 C71 1.232 . S
C71 O70 1.232 . S
C71 O72 1.218 . S
O72 C71 1.218 . S
C73 O66 1.275 . S
C73 O68 1.255 . S
C74 O75 1.258 . S
C74 O76 1.256 . S
O75 Cd67 2.381 . S
O75 C74 1.258 . S
O76 Cd67 2.378 . S
O76 C74 1.256 . S
O77 Cd78 2.300 . S
O77 C84 1.275 . S
Cd78 O77 2.300 . S
Cd78 O86 2.381 . S
Cd78 O87 2.378 . S
O79 Cd80 2.385 . S
O79 C84 1.255 . S
Cd80 O79 2.385 . S
Cd80 O81 2.317 . S
O81 Cd80 2.317 . S
O81 C82 1.232 . S
C82 O81 1.232 . S
C82 O83 1.218 . S
O83 C82 1.218 . S
C84 O77 1.275 . S
C84 O79 1.255 . S
C85 O86 1.258 . S
C85 O87 1.256 . S
O86 Cd78 2.381 . S
O86 C85 1.258 . S
O87 Cd78 2.378 . S
O87 C85 1.256 . S
O88 Cd89 2.300 . S
O88 C95 1.275 . S
Cd89 O88 2.300 . S
Cd89 O97 2.381 . S
Cd89 O98 2.378 . S
O90 Cd91 2.385 . S
O90 C95 1.255 . S
Cd91 O90 2.385 . S
Cd91 O92 2.317 . S
O92 Cd91 2.317 . S
O92 C93 1.232 . S
C93 O92 1.232 . S
C93 O94 1.218 . S
O94 C93 1.218 . S
C95 O88 1.275 . S
C95 O90 1.255 . S
C96 O97 1.258 . S
C96 O98 1.256 . S
O97 Cd89 2.381 . S
O97 C96 1.258 . S
O98 Cd89 2.378 . S
O98 C96 1.256 . S
O99 Cd100 2.300 . S
O99 C106 1.275 . S
Cd100 O99 2.300 . S
Cd100 O108 2.381 . S
Cd100 O109 2.378 . S
O101 Cd102 2.385 . S
O101 C106 1.255 . S
Cd102 O101 2.385 . S
Cd102 O103 2.317 . S
O103 Cd102 2.317 . S
O103 C104 1.232 . S
C104 O103 1.232 . S
C104 O105 1.218 . S
O105 C104 1.218 . S
C106 O99 1.275 . S
C106 O101 1.255 . S
C107 O108 1.258 . S
C107 O109 1.256 . S
O108 Cd100 2.381 . S
O108 C107 1.258 . S
O109 Cd100 2.378 . S
O109 C107 1.256 . S
O110 Cd111 2.300 . S
O110 C117 1.275 . S
Cd111 O110 2.300 . S
Cd111 O119 2.381 . S
Cd111 O120 2.378 . S
O112 Cd113 2.385 . S
O112 C117 1.255 . S
Cd113 O112 2.385 . S
Cd113 O114 2.317 . S
O114 Cd113 2.317 . S
O114 C115 1.232 . S
C115 O114 1.232 . S
C115 O116 1.218 . S
O116 C115 1.218 . S
C117 O110 1.275 . S
C117 O112 1.255 . S
C118 O119 1.258 . S
C118 O120 1.256 . S
O119 Cd111 2.381 . S
O119 C118 1.258 . S
O120 Cd111 2.378 . S
O120 C118 1.256 . S
O121 Cd122 2.300 . S
O121 C128 1.275 . S
Cd122 O121 2.300 . S
Cd122 O130 2.381 . S
Cd122 O131 2.378 . S
O123 Cd124 2.385 . S
O123 C128 1.255 . S
Cd124 O123 2.385 . S
Cd124 O125 2.317 . S
O125 Cd124 2.317 . S
O125 C126 1.232 . S
C126 O125 1.232 . S
C126 O127 1.218 . S
O127 C126 1.218 . S
C128 O121 1.275 . S
C128 O123 1.255 . S
C129 O130 1.258 . S
C129 O131 1.256 . S
O130 Cd122 2.381 . S
O130 C129 1.258 . S
O131 Cd122 2.378 . S
O131 C129 1.256 . S
O132 Cd133 2.300 . S
O132 C139 1.275 . S
Cd133 O132 2.300 . S
Cd133 O141 2.381 . S
Cd133 O142 2.378 . S
O134 Cd135 2.385 . S
O134 C139 1.255 . S
Cd135 O134 2.385 . S
Cd135 O136 2.317 . S
O136 Cd135 2.317 . S
O136 C137 1.232 . S
C137 O136 1.232 . S
C137 O138 1.218 . S
O138 C137 1.218 . S
C139 O132 1.275 . S
C139 O134 1.255 . S
C140 O141 1.258 . S
C140 O142 1.256 . S
O141 Cd133 2.381 . S
O141 C140 1.258 . S
O142 Cd133 2.378 . S
O142 C140 1.256 . S
O143 Cd144 2.300 . S
O143 C150 1.275 . S
Cd144 O143 2.300 . S
Cd144 O152 2.381 . S
Cd144 O153 2.378 . S
O145 Cd146 2.385 . S
O145 C150 1.255 . S
Cd146 O145 2.385 . S
Cd146 O147 2.317 . S
O147 Cd146 2.317 . S
O147 C148 1.232 . S
C148 O147 1.232 . S
C148 O149 1.218 . S
O149 C148 1.218 . S
C150 O143 1.275 . S
C150 O145 1.255 . S
C151 O152 1.258 . S
C151 O153 1.256 . S
O152 Cd144 2.381 . S
O152 C151 1.258 . S
O153 Cd144 2.378 . S
O153 C151 1.256 . S
O154 Cd155 2.300 . S
O154 C161 1.275 . S
Cd155 O154 2.300 . S
Cd155 O163 2.381 . S
Cd155 O164 2.378 . S
O156 Cd157 2.385 . S
O156 C161 1.255 . S
Cd157 O156 2.385 . S
Cd157 O158 2.317 . S
O158 Cd157 2.317 . S
O158 C159 1.232 . S
C159 O158 1.232 . S
C159 O160 1.218 . S
O160 C159 1.218 . S
C161 O154 1.275 . S
C161 O156 1.255 . S
C162 O163 1.258 . S
C162 O164 1.256 . S
O163 Cd155 2.381 . S
O163 C162 1.258 . S
O164 Cd155 2.378 . S
O164 C162 1.256 . S
O165 Cd166 2.300 . S
O165 C172 1.275 . S
Cd166 O165 2.300 . S
Cd166 O174 2.381 . S
Cd166 O175 2.378 . S
O167 Cd168 2.385 . S
O167 C172 1.255 . S
Cd168 O167 2.385 . S
Cd168 O169 2.317 . S
O169 Cd168 2.317 . S
O169 C170 1.232 . S
C170 O169 1.232 . S
C170 O171 1.218 . S
O171 C170 1.218 . S
C172 O165 1.275 . S
C172 O167 1.255 . S
C173 O174 1.258 . S
C173 O175 1.256 . S
O174 Cd166 2.381 . S
O174 C173 1.258 . S
O175 Cd166 2.378 . S
O175 C173 1.256 . S
O176 Cd177 2.300 . S
O176 C183 1.275 . S
Cd177 O176 2.300 . S
Cd177 O185 2.381 . S
Cd177 O186 2.378 . S
O178 Cd179 2.385 . S
O178 C183 1.255 . S
Cd179 O178 2.385 . S
Cd179 O180 2.317 . S
O180 Cd179 2.317 . S
O180 C181 1.232 . S
C181 O180 1.232 . S
C181 O182 1.218 . S
O182 C181 1.218 . S
C183 O176 1.275 . S
C183 O178 1.255 . S
C184 O185 1.258 . S
C184 O186 1.256 . S
O185 Cd177 2.381 . S
O185 C184 1.258 . S
O186 Cd177 2.378 . S
O186 C184 1.256 . S
O187 Cd188 2.300 . S
O187 C194 1.275 . S
Cd188 O187 2.300 . S
Cd188 O196 2.381 . S
Cd188 O197 2.378 . S
O189 Cd190 2.385 . S
O189 C194 1.255 . S
Cd190 O189 2.385 . S
Cd190 O191 2.317 . S
O191 Cd190 2.317 . S
O191 C192 1.232 . S
C192 O191 1.232 . S
C192 O193 1.218 . S
O193 C192 1.218 . S
C194 O187 1.275 . S
C194 O189 1.255 . S
C195 O196 1.258 . S
C195 O197 1.256 . S
O196 Cd188 2.381 . S
O196 C195 1.258 . S
O197 Cd188 2.378 . S
O197 C195 1.256 . S
Eu198 C207 2.828 . S
Eu198 O209 2.368 1_556 S
Eu198 O211 2.418 . S
Eu198 O216 2.373 1_565 S
Eu198 O219 2.488 . S
Eu198 O220 2.471 1_565 S
Eu198 O221 2.359 1_565 S
Eu199 O208 2.373 1_545 S
Eu199 O212 2.488 . S
Eu199 O213 2.471 1_545 S
Eu199 O214 2.349 1_545 S
Eu199 O217 2.392 . S
Eu199 O218 2.418 . S
Eu199 C228 2.828 . S
C200 O218 1.244 . S
C200 O221 1.256 1_554 S
C201 C202 1.379 . S
C201 C205 1.373 1_545 S
C201 C207 1.505 1_545 S
C202 C201 1.379 . S
C202 C204 1.369 . S
C202 H230 0.930 . S
C203 C205 1.383 . S
C203 C206 1.382 1_565 S
C203 H231 0.930 . S
C204 C202 1.369 . S
C204 C206 1.392 . S
C204 H232 0.930 . S
C205 C201 1.373 1_565 S
C205 C203 1.383 . S
C205 H233 0.931 . S
C206 C203 1.382 1_545 S
C206 C204 1.392 . S
C207 Eu198 2.828 . S
C207 C201 1.505 1_565 S
C207 O219 1.249 . S
C207 O220 1.244 1_565 S
O208 Eu199 2.373 1_565 S
O208 C210 1.258 . S
O209 Eu198 2.368 1_554 S
O209 C210 1.273 . S
C210 O208 1.258 . S
C210 O209 1.273 . S
O211 Eu198 2.418 . S
O211 C215 1.244 1_556 S
O212 Eu199 2.488 . S
O212 C228 1.249 . S
O213 Eu199 2.471 1_565 S
O213 C228 1.244 1_565 S
O214 Eu199 2.349 1_565 S
O214 C215 1.265 . S
C215 O211 1.244 1_554 S
C215 O214 1.265 . S
O216 Eu198 2.373 1_545 S
O216 C229 1.258 . S
O217 Eu199 2.392 . S
O217 C229 1.242 1_554 S
O218 Eu199 2.418 . S
O218 C200 1.244 . S
O219 Eu198 2.488 . S
O219 C207 1.249 . S
O220 Eu198 2.471 1_545 S
O220 C207 1.244 1_545 S
O221 Eu198 2.359 1_545 S
O221 C200 1.256 1_556 S
C222 C223 1.379 . S
C222 C226 1.373 1_565 S
C222 C228 1.505 1_565 S
C223 C222 1.379 . S
C223 C225 1.369 . S
C223 H234 0.930 . S
C224 C226 1.383 . S
C224 C227 1.382 1_545 S
C224 H235 0.930 . S
C225 C223 1.369 . S
C225 C227 1.392 . S
C225 H236 0.930 . S
C226 C222 1.373 1_545 S
C226 C224 1.383 . S
C226 H237 0.931 . S
C227 C224 1.382 1_565 S
C227 C225 1.392 . S
C228 Eu199 2.828 . S
C228 O212 1.249 . S
C228 O213 1.244 1_545 S
C228 C222 1.505 1_545 S
C229 O216 1.258 . S
C229 O217 1.242 1_556 S
H230 C202 0.930 . S
H231 C203 0.930 . S
H232 C204 0.930 . S
H233 C205 0.931 . S
H234 C223 0.930 . S
H235 C224 0.930 . S
H236 C225 0.930 . S
H237 C226 0.931 . S
Eu238 C247 2.828 1_455 S
Eu238 O249 2.392 1_556 S
Eu238 O251 2.420 . S
Eu238 O256 2.373 1_455 S
Eu238 O259 2.488 . S
Eu238 O260 2.471 1_455 S
Eu238 O261 2.337 1_456 S
Eu239 O248 2.373 1_655 S
Eu239 O252 2.488 . S
Eu239 O253 2.471 1_655 S
Eu239 O254 2.349 1_655 S
Eu239 O257 2.392 . S
Eu239 O258 2.418 . S
Eu239 C268 2.828 1_655 S
C240 O258 1.244 . S
C240 O261 1.277 . S
C241 C242 1.379 . S
C241 C245 1.359 1_655 S
C241 C247 1.505 . S
C242 C241 1.379 . S
C242 C244 1.369 . S
C242 H270 0.930 . S
C243 C245 1.366 1_655 S
C243 C246 1.382 . S
C243 H271 0.930 1_655 S
C244 C242 1.369 . S
C244 C246 1.392 . S
C244 H272 0.930 . S
C245 C241 1.359 1_455 S
C245 C243 1.366 1_455 S
C245 H273 0.965 . S
C246 C243 1.382 . S
C246 C244 1.392 . S
C247 Eu238 2.828 1_655 S
C247 C241 1.505 . S
C247 O259 1.249 1_655 S
C247 O260 1.244 . S
O248 Eu239 2.373 1_455 S
O248 C250 1.258 . S
O249 Eu238 2.392 1_554 S
O249 C250 1.242 . S
C250 O248 1.258 . S
C250 O249 1.242 . S
O251 Eu238 2.420 . S
O251 C255 1.234 1_556 S
O252 Eu239 2.488 . S
O252 C268 1.249 1_655 S
O253 Eu239 2.471 1_455 S
O253 C268 1.244 . S
O254 Eu239 2.349 1_455 S
O254 C255 1.265 . S
C255 O251 1.234 1_554 S
C255 O254 1.265 . S
O256 Eu238 2.373 1_655 S
O256 C269 1.258 . S
O257 Eu239 2.392 . S
O257 C269 1.242 1_554 S
O258 Eu239 2.418 . S
O258 C240 1.244 . S
O259 Eu238 2.488 . S
O259 C247 1.249 1_455 S
O260 Eu238 2.471 1_655 S
O260 C247 1.244 . S
O261 Eu238 2.337 1_654 S
O261 C240 1.277 . S
C262 C263 1.379 . S
C262 C266 1.373 . S
C262 C268 1.505 . S
C263 C262 1.379 . S
C263 C265 1.369 . S
C263 H274 0.930 . S
C264 C266 1.383 . S
C264 C267 1.382 . S
C264 H275 0.930 . S
C265 C263 1.369 . S
C265 C267 1.392 . S
C265 H276 0.930 . S
C266 C262 1.373 . S
C266 C264 1.383 . S
C266 H277 0.931 1_455 S
C267 C264 1.382 . S
C267 C265 1.392 . S
C268 Eu239 2.828 1_455 S
C268 O252 1.249 1_455 S
C268 O253 1.244 . S
C268 C262 1.505 . S
C269 O256 1.258 . S
C269 O257 1.242 1_556 S
H270 C242 0.930 . S
H271 C243 0.930 1_455 S
H272 C244 0.930 . S
H273 C245 0.965 . S
H274 C263 0.930 . S
H275 C264 0.930 . S
H276 C265 0.930 . S
H277 C266 0.931 1_655 S
Eu278 C287 2.828 . S
Eu278 O289 2.392 . S
Eu278 O291 2.418 . S
Eu278 O296 2.373 . S
Eu278 O299 2.488 . S
Eu278 O300 2.471 . S
Eu278 O301 2.349 . S
Eu279 O288 2.373 . S
Eu279 O292 2.488 . S
Eu279 O293 2.471 . S
Eu279 O294 2.349 . S
Eu279 O297 2.392 1_556 S
Eu279 O298 2.418 . S
Eu279 C308 2.828 . S
C280 O298 1.244 1_554 S
C280 O301 1.265 . S
C281 C282 1.379 . S
C281 C285 1.373 . S
C281 C287 1.505 . S
C282 C281 1.379 . S
C282 C284 1.369 . S
C282 H310 0.930 . S
C283 C285 1.383 . S
C283 C286 1.382 . S
C283 H311 0.930 . S
C284 C282 1.369 . S
C284 C286 1.392 . S
C284 H312 0.930 . S
C285 C281 1.373 . S
C285 C283 1.383 . S
C285 H313 0.931 . S
C286 C283 1.382 . S
C286 C284 1.392 . S
C287 Eu278 2.828 . S
C287 C281 1.505 . S
C287 O299 1.249 . S
C287 O300 1.244 . S
O288 Eu279 2.373 . S
O288 C290 1.258 . S
O289 Eu278 2.392 . S
O289 C290 1.242 1_554 S
C290 O288 1.258 . S
C290 O289 1.242 1_556 S
O291 Eu278 2.418 . S
O291 C295 1.244 . S
O292 Eu279 2.488 . S
O292 C308 1.249 . S
O293 Eu279 2.471 . S
O293 C308 1.244 . S
O294 Eu279 2.349 . S
O294 C295 1.265 1_556 S
C295 O291 1.244 . S
C295 O294 1.265 1_554 S
O296 Eu278 2.373 . S
O296 C309 1.258 . S
O297 Eu279 2.392 1_554 S
O297 C309 1.242 . S
O298 Eu279 2.418 . S
O298 C280 1.244 1_556 S
O299 Eu278 2.488 . S
O299 C287 1.249 . S
O300 Eu278 2.471 . S
O300 C287 1.244 . S
O301 Eu278 2.349 . S
O301 C280 1.265 . S
C302 C303 1.379 . S
C302 C306 1.373 . S
C302 C308 1.505 . S
C303 C302 1.379 . S
C303 C305 1.369 . S
C303 H314 0.930 . S
C304 C306 1.383 . S
C304 C307 1.382 . S
C304 H315 0.930 . S
C305 C303 1.369 . S
C305 C307 1.392 . S
C305 H316 0.930 . S
C306 C302 1.373 . S
C306 C304 1.383 . S
C306 H317 0.931 . S
C307 C304 1.382 . S
C307 C305 1.392 . S
C308 Eu279 2.828 . S
C308 O292 1.249 . S
C308 O293 1.244 . S
C308 C302 1.505 . S
C309 O296 1.258 . S
C309 O297 1.242 . S
H310 C282 0.930 . S
H311 C283 0.930 . S
H312 C284 0.930 . S
H313 C285 0.931 . S
H314 C303 0.930 . S
H315 C304 0.930 . S
H316 C305 0.930 . S
H317 C306 0.931 . S
Eu318 C327 2.828 . S
Eu318 O329 2.392 . S
Eu318 O331 2.418 . S
Eu318 O336 2.373 . S
Eu318 O339 2.488 . S
Eu318 O340 2.471 . S
Eu318 O341 2.349 . S
Eu319 O328 2.373 . S
Eu319 O332 2.488 . S
Eu319 O333 2.471 . S
Eu319 O334 2.349 . S
Eu319 O337 2.392 . S
Eu319 O338 2.418 . S
Eu319 C348 2.828 . S
C320 O338 1.244 . S
C320 O341 1.265 . S
C321 C322 1.379 . S
C321 C325 1.373 . S
C321 C327 1.505 . S
C322 C321 1.379 . S
C322 C324 1.369 . S
C322 H350 0.930 . S
C323 C325 1.383 . S
C323 C326 1.382 . S
C323 H351 0.930 . S
C324 C322 1.369 . S
C324 C326 1.392 . S
C324 H352 0.930 . S
C325 C321 1.373 . S
C325 C323 1.383 . S
C325 H353 0.931 . S
C326 C323 1.382 . S
C326 C324 1.392 . S
C327 Eu318 2.828 . S
C327 C321 1.505 . S
C327 O339 1.249 . S
C327 O340 1.244 . S
O328 Eu319 2.373 . S
O328 C330 1.258 . S
O329 Eu318 2.392 . S
O329 C330 1.242 . S
C330 O328 1.258 . S
C330 O329 1.242 . S
O331 Eu318 2.418 . S
O331 C335 1.244 . S
O332 Eu319 2.488 . S
O332 C348 1.249 . S
O333 Eu319 2.471 . S
O333 C348 1.244 . S
O334 Eu319 2.349 . S
O334 C335 1.265 . S
C335 O331 1.244 . S
C335 O334 1.265 . S
O336 Eu318 2.373 . S
O336 C349 1.258 . S
O337 Eu319 2.392 . S
O337 C349 1.242 . S
O338 Eu319 2.418 . S
O338 C320 1.244 . S
O339 Eu318 2.488 . S
O339 C327 1.249 . S
O340 Eu318 2.471 . S
O340 C327 1.244 . S
O341 Eu318 2.349 . S
O341 C320 1.265 . S
C342 C343 1.379 . S
C342 C346 1.373 . S
C342 C348 1.505 . S
C343 C342 1.379 . S
C343 C345 1.369 . S
C343 H354 0.930 . S
C344 C346 1.383 . S
C344 C347 1.382 . S
C344 H355 0.930 . S
C345 C343 1.369 . S
C345 C347 1.392 . S
C345 H356 0.930 . S
C346 C342 1.373 . S
C346 C344 1.383 . S
C346 H357 0.931 . S
C347 C344 1.382 . S
C347 C345 1.392 . S
C348 Eu319 2.828 . S
C348 O332 1.249 . S
C348 O333 1.244 . S
C348 C342 1.505 . S
C349 O336 1.258 . S
C349 O337 1.242 . S
H350 C322 0.930 . S
H351 C323 0.930 . S
H352 C324 0.930 . S
H353 C325 0.931 . S
H354 C343 0.930 . S
H355 C344 0.930 . S
H356 C345 0.930 . S
H357 C346 0.931 . S
Eu358 C367 2.828 . S
Eu358 O369 2.392 . S
Eu358 O371 2.418 . S
Eu358 O376 2.373 . S
Eu358 O379 2.488 . S
Eu358 O380 2.471 . S
Eu358 O381 2.349 . S
Eu359 O368 2.373 . S
Eu359 O372 2.488 . S
Eu359 O373 2.471 . S
Eu359 O374 2.349 . S
Eu359 O377 2.392 . S
Eu359 O378 2.418 . S
Eu359 C388 2.828 . S
C360 O378 1.244 . S
C360 O381 1.265 . S
C361 C362 1.379 . S
C361 C365 1.373 . S
C361 C367 1.505 . S
C362 C361 1.379 . S
C362 C364 1.369 . S
C362 H390 0.930 . S
C363 C365 1.383 . S
C363 C366 1.382 . S
C363 H391 0.930 . S
C364 C362 1.369 . S
C364 C366 1.392 . S
C364 H392 0.930 . S
C365 C361 1.373 . S
C365 C363 1.383 . S
C365 H393 0.931 . S
C366 C363 1.382 . S
C366 C364 1.392 . S
C367 Eu358 2.828 . S
C367 C361 1.505 . S
C367 O379 1.249 . S
C367 O380 1.244 . S
O368 Eu359 2.373 . S
O368 C370 1.258 . S
O369 Eu358 2.392 . S
O369 C370 1.242 . S
C370 O368 1.258 . S
C370 O369 1.242 . S
O371 Eu358 2.418 . S
O371 C375 1.244 . S
O372 Eu359 2.488 . S
O372 C388 1.249 . S
O373 Eu359 2.471 . S
O373 C388 1.244 . S
O374 Eu359 2.349 . S
O374 C375 1.265 . S
C375 O371 1.244 . S
C375 O374 1.265 . S
O376 Eu358 2.373 . S
O376 C389 1.258 . S
O377 Eu359 2.392 . S
O377 C389 1.242 . S
O378 Eu359 2.418 . S
O378 C360 1.244 . S
O379 Eu358 2.488 . S
O379 C367 1.249 . S
O380 Eu358 2.471 . S
O380 C367 1.244 . S
O381 Eu358 2.349 . S
O381 C360 1.265 . S
C382 C383 1.379 . S
C382 C386 1.373 . S
C382 C388 1.505 . S
C383 C382 1.379 . S
C383 C385 1.369 . S
C383 H394 0.930 . S
C384 C386 1.383 . S
C384 C387 1.382 . S
C384 H395 0.930 . S
C385 C383 1.369 . S
C385 C387 1.392 . S
C385 H396 0.930 . S
C386 C382 1.373 . S
C386 C384 1.383 . S
C386 H397 0.931 . S
C387 C384 1.382 . S
C387 C385 1.392 . S
C388 Eu359 2.828 . S
C388 O372 1.249 . S
C388 O373 1.244 . S
C388 C382 1.505 . S
C389 O376 1.258 . S
C389 O377 1.242 . S
H390 C362 0.930 . S
H391 C363 0.930 . S
H392 C364 0.930 . S
H393 C365 0.931 . S
H394 C383 0.930 . S
H395 C384 0.930 . S
H396 C385 0.930 . S
H397 C386 0.931 . S
Eu398 C407 2.828 . S
Eu398 O409 2.392 . S
Eu398 O411 2.418 . S
Eu398 O416 2.373 . S
Eu398 O419 2.488 . S
Eu398 O420 2.471 . S
Eu398 O421 2.349 . S
Eu399 O408 2.373 . S
Eu399 O412 2.488 . S
Eu399 O413 2.471 . S
Eu399 O414 2.349 . S
Eu399 O417 2.392 . S
Eu399 O418 2.418 . S
Eu399 C428 2.828 . S
C400 O418 1.244 . S
C400 O421 1.265 . S
C401 C402 1.379 . S
C401 C405 1.373 . S
C401 C407 1.505 . S
C402 C401 1.379 . S
C402 C404 1.369 . S
C402 H430 0.930 . S
C403 C405 1.383 . S
C403 C406 1.382 . S
C403 H431 0.930 . S
C404 C402 1.369 . S
C404 C406 1.392 . S
C404 H432 0.930 . S
C405 C401 1.373 . S
C405 C403 1.383 . S
C405 H433 0.931 . S
C406 C403 1.382 . S
C406 C404 1.392 . S
C407 Eu398 2.828 . S
C407 C401 1.505 . S
C407 O419 1.249 . S
C407 O420 1.244 . S
O408 Eu399 2.373 . S
O408 C410 1.258 . S
O409 Eu398 2.392 . S
O409 C410 1.242 . S
C410 O408 1.258 . S
C410 O409 1.242 . S
O411 Eu398 2.418 . S
O411 C415 1.244 . S
O412 Eu399 2.488 . S
O412 C428 1.249 . S
O413 Eu399 2.471 . S
O413 C428 1.244 . S
O414 Eu399 2.349 . S
O414 C415 1.265 . S
C415 O411 1.244 . S
C415 O414 1.265 . S
O416 Eu398 2.373 . S
O416 C429 1.258 . S
O417 Eu399 2.392 . S
O417 C429 1.242 . S
O418 Eu399 2.418 . S
O418 C400 1.244 . S
O419 Eu398 2.488 . S
O419 C407 1.249 . S
O420 Eu398 2.471 . S
O420 C407 1.244 . S
O421 Eu398 2.349 . S
O421 C400 1.265 . S
C422 C423 1.379 . S
C422 C426 1.373 . S
C422 C428 1.505 . S
C423 C422 1.379 . S
C423 C425 1.369 . S
C423 H434 0.930 . S
C424 C426 1.383 . S
C424 C427 1.382 . S
C424 H435 0.930 . S
C425 C423 1.369 . S
C425 C427 1.392 . S
C425 H436 0.930 . S
C426 C422 1.373 . S
C426 C424 1.383 . S
C426 H437 0.931 . S
C427 C424 1.382 . S
C427 C425 1.392 . S
C428 Eu399 2.828 . S
C428 O412 1.249 . S
C428 O413 1.244 . S
C428 C422 1.505 . S
C429 O416 1.258 . S
C429 O417 1.242 . S
H430 C402 0.930 . S
H431 C403 0.930 . S
H432 C404 0.930 . S
H433 C405 0.931 . S
H434 C423 0.930 . S
H435 C424 0.930 . S
H436 C425 0.930 . S
H437 C426 0.931 . S
Eu438 C447 2.828 . S
Eu438 O449 2.392 . S
Eu438 O451 2.418 . S
Eu438 O456 2.373 . S
Eu438 O459 2.488 . S
Eu438 O460 2.471 . S
Eu438 O461 2.349 . S
Eu439 O448 2.373 . S
Eu439 O452 2.488 . S
Eu439 O453 2.471 . S
Eu439 O454 2.349 . S
Eu439 O457 2.392 . S
Eu439 O458 2.418 . S
Eu439 C468 2.828 . S
C440 O458 1.244 . S
C440 O461 1.265 . S
C441 C442 1.379 . S
C441 C445 1.373 . S
C441 C447 1.505 . S
C442 C441 1.379 . S
C442 C444 1.369 . S
C442 H470 0.930 . S
C443 C445 1.383 . S
C443 C446 1.382 . S
C443 H471 0.930 . S
C444 C442 1.369 . S
C444 C446 1.392 . S
C444 H472 0.930 . S
C445 C441 1.373 . S
C445 C443 1.383 . S
C445 H473 0.931 . S
C446 C443 1.382 . S
C446 C444 1.392 . S
C447 Eu438 2.828 . S
C447 C441 1.505 . S
C447 O459 1.249 . S
C447 O460 1.244 . S
O448 Eu439 2.373 . S
O448 C450 1.258 . S
O449 Eu438 2.392 . S
O449 C450 1.242 . S
C450 O448 1.258 . S
C450 O449 1.242 . S
O451 Eu438 2.418 . S
O451 C455 1.244 . S
O452 Eu439 2.488 . S
O452 C468 1.249 . S
O453 Eu439 2.471 . S
O453 C468 1.244 . S
O454 Eu439 2.349 . S
O454 C455 1.265 . S
C455 O451 1.244 . S
C455 O454 1.265 . S
O456 Eu438 2.373 . S
O456 C469 1.258 . S
O457 Eu439 2.392 . S
O457 C469 1.242 . S
O458 Eu439 2.418 . S
O458 C440 1.244 . S
O459 Eu438 2.488 . S
O459 C447 1.249 . S
O460 Eu438 2.471 . S
O460 C447 1.244 . S
O461 Eu438 2.349 . S
O461 C440 1.265 . S
C462 C463 1.379 . S
C462 C466 1.373 . S
C462 C468 1.505 . S
C463 C462 1.379 . S
C463 C465 1.369 . S
C463 H474 0.930 . S
C464 C466 1.383 . S
C464 C467 1.382 . S
C464 H475 0.930 . S
C465 C463 1.369 . S
C465 C467 1.392 . S
C465 H476 0.930 . S
C466 C462 1.373 . S
C466 C464 1.383 . S
C466 H477 0.931 . S
C467 C464 1.382 . S
C467 C465 1.392 . S
C468 Eu439 2.828 . S
C468 O452 1.249 . S
C468 O453 1.244 . S
C468 C462 1.505 . S
C469 O456 1.258 . S
C469 O457 1.242 . S
H470 C442 0.930 . S
H471 C443 0.930 . S
H472 C444 0.930 . S
H473 C445 0.931 . S
H474 C463 0.930 . S
H475 C464 0.930 . S
H476 C465 0.930 . S
H477 C466 0.931 . S
Eu478 C487 2.828 . S
Eu478 O489 2.392 . S
Eu478 O491 2.418 . S
Eu478 O496 2.373 . S
Eu478 O499 2.488 . S
Eu478 O500 2.471 . S
Eu478 O501 2.349 . S
Eu479 O488 2.373 . S
Eu479 O492 2.488 . S
Eu479 O493 2.471 . S
Eu479 O494 2.349 . S
Eu479 O497 2.392 . S
Eu479 O498 2.418 . S
Eu479 C508 2.828 . S
C480 O498 1.244 . S
C480 O501 1.265 . S
C481 C482 1.379 . S
C481 C485 1.373 . S
C481 C487 1.505 . S
C482 C481 1.379 . S
C482 C484 1.369 . S
C482 H510 0.930 . S
C483 C485 1.383 . S
C483 C486 1.382 . S
C483 H511 0.930 . S
C484 C482 1.369 . S
C484 C486 1.392 . S
C484 H512 0.930 . S
C485 C481 1.373 . S
C485 C483 1.383 . S
C485 H513 0.931 . S
C486 C483 1.382 . S
C486 C484 1.392 . S
C487 Eu478 2.828 . S
C487 C481 1.505 . S
C487 O499 1.249 . S
C487 O500 1.244 . S
O488 Eu479 2.373 . S
O488 C490 1.258 . S
O489 Eu478 2.392 . S
O489 C490 1.242 . S
C490 O488 1.258 . S
C490 O489 1.242 . S
O491 Eu478 2.418 . S
O491 C495 1.244 . S
O492 Eu479 2.488 . S
O492 C508 1.249 . S
O493 Eu479 2.471 . S
O493 C508 1.244 . S
O494 Eu479 2.349 . S
O494 C495 1.265 . S
C495 O491 1.244 . S
C495 O494 1.265 . S
O496 Eu478 2.373 . S
O496 C509 1.258 . S
O497 Eu479 2.392 . S
O497 C509 1.242 . S
O498 Eu479 2.418 . S
O498 C480 1.244 . S
O499 Eu478 2.488 . S
O499 C487 1.249 . S
O500 Eu478 2.471 . S
O500 C487 1.244 . S
O501 Eu478 2.349 . S
O501 C480 1.265 . S
C502 C503 1.379 . S
C502 C506 1.373 . S
C502 C508 1.505 . S
C503 C502 1.379 . S
C503 C505 1.369 . S
C503 H514 0.930 . S
C504 C506 1.383 . S
C504 C507 1.382 . S
C504 H515 0.930 . S
C505 C503 1.369 . S
C505 C507 1.392 . S
C505 H516 0.930 . S
C506 C502 1.373 . S
C506 C504 1.383 . S
C506 H517 0.931 . S
C507 C504 1.382 . S
C507 C505 1.392 . S
C508 Eu479 2.828 . S
C508 O492 1.249 . S
C508 O493 1.244 . S
C508 C502 1.505 . S
C509 O496 1.258 . S
C509 O497 1.242 . S
H510 C482 0.930 . S
H511 C483 0.930 . S
H512 C484 0.930 . S
H513 C485 0.931 . S
H514 C503 0.930 . S
H515 C504 0.930 . S
H516 C505 0.930 . S
H517 C506 0.931 . S
Eu518 C527 2.828 . S
Eu518 O529 2.392 . S
Eu518 O531 2.418 . S
Eu518 O536 2.373 . S
Eu518 O539 2.488 . S
Eu518 O540 2.471 . S
Eu518 O541 2.349 . S
Eu519 O528 2.373 . S
Eu519 O532 2.488 . S
Eu519 O533 2.471 . S
Eu519 O534 2.349 . S
Eu519 O537 2.392 . S
Eu519 O538 2.418 . S
Eu519 C548 2.828 . S
C520 O538 1.244 . S
C520 O541 1.265 . S
C521 C522 1.379 . S
C521 C525 1.373 . S
C521 C527 1.505 . S
C522 C521 1.379 . S
C522 C524 1.369 . S
C522 H550 0.930 . S
C523 C525 1.383 . S
C523 C526 1.382 . S
C523 H551 0.930 . S
C524 C522 1.369 . S
C524 C526 1.392 . S
C524 H552 0.930 . S
C525 C521 1.373 . S
C525 C523 1.383 . S
C525 H553 0.931 . S
C526 C523 1.382 . S
C526 C524 1.392 . S
C527 Eu518 2.828 . S
C527 C521 1.505 . S
C527 O539 1.249 . S
C527 O540 1.244 . S
O528 Eu519 2.373 . S
O528 C530 1.258 . S
O529 Eu518 2.392 . S
O529 C530 1.242 . S
C530 O528 1.258 . S
C530 O529 1.242 . S
O531 Eu518 2.418 . S
O531 C535 1.244 . S
O532 Eu519 2.488 . S
O532 C548 1.249 . S
O533 Eu519 2.471 . S
O533 C548 1.244 . S
O534 Eu519 2.349 . S
O534 C535 1.265 . S
C535 O531 1.244 . S
C535 O534 1.265 . S
O536 Eu518 2.373 . S
O536 C549 1.258 . S
O537 Eu519 2.392 . S
O537 C549 1.242 . S
O538 Eu519 2.418 . S
O538 C520 1.244 . S
O539 Eu518 2.488 . S
O539 C527 1.249 . S
O540 Eu518 2.471 . S
O540 C527 1.244 . S
O541 Eu518 2.349 . S
O541 C520 1.265 . S
C542 C543 1.379 . S
C542 C546 1.373 . S
C542 C548 1.505 . S
C543 C542 1.379 . S
C543 C545 1.369 . S
C543 H554 0.930 . S
C544 C546 1.383 . S
C544 C547 1.382 . S
C544 H555 0.930 . S
C545 C543 1.369 . S
C545 C547 1.392 . S
C545 H556 0.930 . S
C546 C542 1.373 . S
C546 C544 1.383 . S
C546 H557 0.931 . S
C547 C544 1.382 . S
C547 C545 1.392 . S
C548 Eu519 2.828 . S
C548 O532 1.249 . S
C548 O533 1.244 . S
C548 C542 1.505 . S
C549 O536 1.258 . S
C549 O537 1.242 . S
H550 C522 0.930 . S
H551 C523 0.930 . S
H552 C524 0.930 . S
H553 C525 0.931 . S
H554 C543 0.930 . S
H555 C544 0.930 . S
H556 C545 0.930 . S
H557 C546 0.931 . S
H558 C570 0.930 . S
H559 C572 0.930 . S
H560 C573 0.930 . S
H561 C577 0.959 1_554 S
H562 C577 0.959 . S
H563 C577 0.961 . S
H564 C578 0.960 . S
H565 C578 0.961 . S
H566 C578 0.952 1_554 S
H567 C581 0.929 . S
H568 C582 0.931 . S
H569 C584 0.884 1_556 S
C570 H558 0.930 . S
C570 C571 1.399 . S
C570 C575 1.399 . S
C571 C570 1.399 . S
C571 C572 1.376 . S
C572 H559 0.930 . S
C572 C571 1.376 . S
C572 C573 1.388 . S
C573 H560 0.930 . S
C573 C572 1.388 . S
C573 C574 1.390 . S
C574 C573 1.390 . S
C574 C575 1.394 . S
C574 C580 1.465 . S
C575 C570 1.399 . S
C575 C574 1.394 . S
C575 C576 1.516 . S
C576 C575 1.516 . S
C576 C577 1.502 1_554 S
C576 C578 1.561 1_554 S
C576 C579 1.526 . S
C577 H561 0.959 1_556 S
C577 H562 0.959 . S
C577 H563 0.961 . S
C577 C576 1.502 1_556 S
C578 H564 0.960 . S
C578 H565 0.961 . S
C578 H566 0.952 1_556 S
C578 C576 1.561 1_556 S
C579 C576 1.526 . S
C579 C580 1.396 . S
C579 C584 1.390 . S
C580 C574 1.465 . S
C580 C579 1.396 . S
C580 C581 1.399 . S
C581 H567 0.929 . S
C581 C580 1.399 . S
C581 C582 1.385 . S
C582 H568 0.931 . S
C582 C581 1.385 . S
C582 C583 1.389 . S
C583 C582 1.389 . S
C583 C584 1.387 . S
C584 H569 0.884 1_554 S
C584 C579 1.390 . S
C584 C583 1.387 . S
H585 C597 0.930 . S
H586 C599 0.930 . S
H587 C600 0.930 . S
H588 C604 0.959 . S
H589 C604 0.959 . S
H590 C604 0.961 . S
H591 C605 0.960 . S
H592 C605 0.961 . S
H593 C605 0.959 . S
H594 C608 0.929 . S
H595 C609 0.931 . S
H596 C611 0.930 . S
C597 H585 0.930 . S
C597 C598 1.399 . S
C597 C602 1.399 . S
C598 C597 1.399 . S
C598 C599 1.376 . S
C599 H586 0.930 . S
C599 C598 1.376 . S
C599 C600 1.388 . S
C600 H587 0.930 . S
C600 C599 1.388 . S
C600 C601 1.390 . S
C601 C600 1.390 . S
C601 C602 1.394 . S
C601 C607 1.465 . S
C602 C597 1.399 . S
C602 C601 1.394 . S
C602 C603 1.516 . S
C603 C602 1.516 . S
C603 C604 1.502 . S
C603 C605 1.561 . S
C603 C606 1.526 . S
C604 H588 0.959 . S
C604 H589 0.959 . S
C604 H590 0.961 . S
C604 C603 1.502 . S
C605 H591 0.960 . S
C605 H592 0.961 . S
C605 H593 0.959 . S
C605 C603 1.561 . S
C606 C603 1.526 . S
C606 C607 1.396 . S
C606 C611 1.390 . S
C607 C601 1.465 . S
C607 C606 1.396 . S
C607 C608 1.399 . S
C608 H594 0.929 . S
C608 C607 1.399 . S
C608 C609 1.385 . S
C609 H595 0.931 . S
C609 C608 1.385 . S
C609 C610 1.389 . S
C610 C609 1.389 . S
C610 C611 1.387 . S
C611 H596 0.930 . S
C611 C606 1.390 . S
C611 C610 1.387 . S
H612 C624 0.930 . S
H613 C626 0.930 . S
H614 C627 0.930 . S
H615 C631 0.959 1_554 S
H616 C631 0.959 . S
H617 C631 0.961 . S
H618 C632 0.960 . S
H619 C632 0.961 . S
H620 C632 0.959 . S
H621 C635 0.929 . S
H622 C636 0.931 . S
H623 C638 0.930 1_556 S
C624 H612 0.930 . S
C624 C625 1.399 . S
C624 C629 1.399 . S
C625 C624 1.399 . S
C625 C626 1.376 . S
C626 H613 0.930 . S
C626 C625 1.376 . S
C626 C627 1.388 . S
C627 H614 0.930 . S
C627 C626 1.388 . S
C627 C628 1.390 . S
C628 C627 1.390 . S
C628 C629 1.394 . S
C628 C634 1.465 . S
C629 C624 1.399 . S
C629 C628 1.394 . S
C629 C630 1.516 . S
C630 C629 1.516 . S
C630 C631 1.502 1_554 S
C630 C632 1.561 1_554 S
C630 C633 1.526 . S
C631 H615 0.959 1_556 S
C631 H616 0.959 . S
C631 H617 0.961 . S
C631 C630 1.502 1_556 S
C632 H618 0.960 . S
C632 H619 0.961 . S
C632 H620 0.959 . S
C632 C630 1.561 1_556 S
C633 C630 1.526 . S
C633 C634 1.396 . S
C633 C638 1.390 . S
C634 C628 1.465 . S
C634 C633 1.396 . S
C634 C635 1.399 . S
C635 H621 0.929 . S
C635 C634 1.399 . S
C635 C636 1.385 . S
C636 H622 0.931 . S
C636 C635 1.385 . S
C636 C637 1.389 . S
C637 C636 1.389 . S
C637 C638 1.387 . S
C638 H623 0.930 1_554 S
C638 C633 1.390 . S
C638 C637 1.387 . S
H639 C651 0.930 . S
H640 C653 0.930 . S
H641 C654 0.930 . S
H642 C658 0.959 . S
H643 C658 0.959 . S
H644 C658 0.961 . S
H645 C659 0.960 . S
H646 C659 0.961 . S
H647 C659 0.959 . S
H648 C662 0.929 . S
H649 C663 0.931 . S
H650 C665 0.930 . S
C651 H639 0.930 . S
C651 C652 1.399 . S
C651 C656 1.399 . S
C652 C651 1.399 . S
C652 C653 1.376 . S
C653 H640 0.930 . S
C653 C652 1.376 . S
C653 C654 1.388 . S
C654 H641 0.930 . S
C654 C653 1.388 . S
C654 C655 1.390 . S
C655 C654 1.390 . S
C655 C656 1.394 . S
C655 C661 1.465 . S
C656 C651 1.399 . S
C656 C655 1.394 . S
C656 C657 1.516 1_556 S
C657 C656 1.516 1_554 S
C657 C658 1.502 . S
C657 C659 1.561 . S
C657 C660 1.526 1_554 S
C658 H642 0.959 . S
C658 H643 0.959 . S
C658 H644 0.961 . S
C658 C657 1.502 . S
C659 H645 0.960 . S
C659 H646 0.961 . S
C659 H647 0.959 . S
C659 C657 1.561 . S
C660 C657 1.526 1_556 S
C660 C661 1.396 . S
C660 C665 1.390 1_556 S
C661 C655 1.465 . S
C661 C660 1.396 . S
C661 C662 1.399 . S
C662 H648 0.929 . S
C662 C661 1.399 . S
C662 C663 1.385 . S
C663 H649 0.931 . S
C663 C662 1.385 . S
C663 C664 1.389 . S
C664 C663 1.389 . S
C664 C665 1.387 1_556 S
C665 H650 0.930 . S
C665 C660 1.390 1_554 S
C665 C664 1.387 1_554 S
H666 C678 0.930 . S
H667 C680 0.930 . S
H668 C681 0.930 . S
H669 C685 0.959 . S
H670 C685 0.959 . S
H671 C685 0.961 . S
H672 C686 0.960 . S
H673 C686 0.961 1_554 S
H674 C686 0.959 1_554 S
H675 C689 0.929 . S
H676 C690 0.931 . S
H677 C692 0.930 . S
C678 H666 0.930 . S
C678 C679 1.399 . S
C678 C683 1.399 . S
C679 C678 1.399 . S
C679 C680 1.376 . S
C680 H667 0.930 . S
C680 C679 1.376 . S
C680 C681 1.388 . S
C681 H668 0.930 . S
C681 C680 1.388 . S
C681 C682 1.390 . S
C682 C681 1.390 . S
C682 C683 1.394 . S
C682 C688 1.465 . S
C683 C678 1.399 . S
C683 C682 1.394 . S
C683 C684 1.516 . S
C684 C683 1.516 . S
C684 C685 1.502 . S
C684 C686 1.561 . S
C684 C687 1.526 . S
C685 H669 0.959 . S
C685 H670 0.959 . S
C685 H671 0.961 . S
C685 C684 1.502 . S
C686 H672 0.960 . S
C686 H673 0.961 1_556 S
C686 H674 0.959 1_556 S
C686 C684 1.561 . S
C687 C684 1.526 . S
C687 C688 1.396 . S
C687 C692 1.390 . S
C688 C682 1.465 . S
C688 C687 1.396 . S
C688 C689 1.399 . S
C689 H675 0.929 . S
C689 C688 1.399 . S
C689 C690 1.385 . S
C690 H676 0.931 . S
C690 C689 1.385 . S
C690 C691 1.389 . S
C691 C690 1.389 . S
C691 C692 1.387 . S
C692 H677 0.930 . S
C692 C687 1.390 . S
C692 C691 1.387 . S
H693 C705 0.930 . S
H694 C707 0.930 . S
H695 C708 0.930 . S
H696 C712 0.959 . S
H697 C712 0.959 . S
H698 C712 0.961 . S
H699 C713 0.960 . S
H700 C713 0.961 . S
H701 C713 0.959 . S
H702 C716 0.929 . S
H703 C717 0.931 . S
H704 C719 0.930 . S
C705 H693 0.930 . S
C705 C706 1.399 1_554 S
C705 C710 1.399 . S
C706 C705 1.399 1_556 S
C706 C707 1.376 . S
C707 H694 0.930 . S
C707 C706 1.376 . S
C707 C708 1.388 . S
C708 H695 0.930 . S
C708 C707 1.388 . S
C708 C709 1.390 . S
C709 C708 1.390 . S
C709 C710 1.394 1_556 S
C709 C715 1.465 . S
C710 C705 1.399 . S
C710 C709 1.394 1_554 S
C710 C711 1.516 . S
C711 C710 1.516 . S
C711 C712 1.502 . S
C711 C713 1.561 . S
C711 C714 1.526 . S
C712 H696 0.959 . S
C712 H697 0.959 . S
C712 H698 0.961 . S
C712 C711 1.502 . S
C713 H699 0.960 . S
C713 H700 0.961 . S
C713 H701 0.959 . S
C713 C711 1.561 . S
C714 C711 1.526 . S
C714 C715 1.396 1_554 S
C714 C719 1.390 . S
C715 C709 1.465 . S
C715 C714 1.396 1_556 S
C715 C716 1.399 . S
C716 H702 0.929 . S
C716 C715 1.399 . S
C716 C717 1.385 . S
C717 H703 0.931 . S
C717 C716 1.385 . S
C717 C718 1.389 1_556 S
C718 C717 1.389 1_554 S
C718 C719 1.387 . S
C719 H704 0.930 . S
C719 C714 1.390 . S
C719 C718 1.387 . S
H720 C732 0.930 . S
H721 C734 0.930 . S
H722 C735 0.905 1_554 S
H723 C739 0.959 . S
H724 C739 0.959 . S
H725 C739 0.961 . S
H726 C740 0.960 . S
H727 C740 0.961 . S
H728 C740 0.959 . S
H729 C743 0.929 . S
H730 C744 0.931 . S
H731 C746 0.930 . S
C732 H720 0.930 . S
C732 C733 1.399 . S
C732 C737 1.399 . S
C733 C732 1.399 . S
C733 C734 1.376 . S
C734 H721 0.930 . S
C734 C733 1.376 . S
C734 C735 1.404 . S
C735 H722 0.905 1_556 S
C735 C734 1.404 . S
C735 C736 1.400 . S
C736 C735 1.400 . S
C736 C737 1.394 . S
C736 C742 1.465 . S
C737 C732 1.399 . S
C737 C736 1.394 . S
C737 C738 1.516 . S
C738 C737 1.516 . S
C738 C739 1.502 . S
C738 C740 1.561 . S
C738 C741 1.526 . S
C739 H723 0.959 . S
C739 H724 0.959 . S
C739 H725 0.961 . S
C739 C738 1.502 . S
C740 H726 0.960 . S
C740 H727 0.961 . S
C740 H728 0.959 . S
C740 C738 1.561 . S
C741 C738 1.526 . S
C741 C742 1.396 . S
C741 C746 1.390 . S
C742 C736 1.465 . S
C742 C741 1.396 . S
C742 C743 1.399 1_556 S
C743 H729 0.929 . S
C743 C742 1.399 1_554 S
C743 C744 1.385 . S
C744 H730 0.931 . S
C744 C743 1.385 . S
C744 C745 1.389 1_554 S
C745 C744 1.389 1_556 S
C745 C746 1.387 . S
C746 H731 0.930 . S
C746 C741 1.390 . S
C746 C745 1.387 . S
H747 C759 0.930 . S
H748 C761 0.930 . S
H749 C762 0.930 . S
H750 C766 0.959 . S
H751 C766 0.959 . S
H752 C766 0.961 . S
H753 C767 0.960 . S
H754 C767 0.961 . S
H755 C767 0.959 . S
H756 C770 0.929 . S
H757 C771 0.931 . S
H758 C773 0.930 . S
C759 H747 0.930 . S
C759 C760 1.399 . S
C759 C764 1.399 . S
C760 C759 1.399 . S
C760 C761 1.376 . S
C761 H748 0.930 . S
C761 C760 1.376 . S
C761 C762 1.388 . S
C762 H749 0.930 . S
C762 C761 1.388 . S
C762 C763 1.390 . S
C763 C762 1.390 . S
C763 C764 1.394 . S
C763 C769 1.465 . S
C764 C759 1.399 . S
C764 C763 1.394 . S
C764 C765 1.516 . S
C765 C764 1.516 . S
C765 C766 1.502 1_556 S
C765 C767 1.561 . S
C765 C768 1.526 . S
C766 H750 0.959 . S
C766 H751 0.959 . S
C766 H752 0.961 . S
C766 C765 1.502 1_554 S
C767 H753 0.960 . S
C767 H754 0.961 . S
C767 H755 0.959 . S
C767 C765 1.561 . S
C768 C765 1.526 . S
C768 C769 1.396 . S
C768 C773 1.390 . S
C769 C763 1.465 . S
C769 C768 1.396 . S
C769 C770 1.399 . S
C770 H756 0.929 . S
C770 C769 1.399 . S
C770 C771 1.385 . S
C771 H757 0.931 . S
C771 C770 1.385 . S
C771 C772 1.389 . S
C772 C771 1.389 . S
C772 C773 1.387 . S
C773 H758 0.930 . S
C773 C768 1.390 . S
C773 C772 1.387 . S
H774 C786 0.930 . S
H775 C788 0.930 . S
H776 C789 0.930 . S
H777 C793 0.959 . S
H778 C793 0.959 . S
H779 C793 0.961 . S
H780 C794 0.960 . S
H781 C794 0.961 . S
H782 C794 0.959 . S
H783 C797 0.929 . S
H784 C798 0.931 . S
H785 C800 0.930 . S
C786 H774 0.930 . S
C786 C787 1.399 . S
C786 C791 1.399 . S
C787 C786 1.399 . S
C787 C788 1.376 1_556 S
C788 H775 0.930 . S
C788 C787 1.376 1_554 S
C788 C789 1.388 . S
C789 H776 0.930 . S
C789 C788 1.388 . S
C789 C790 1.390 1_554 S
C790 C789 1.390 1_556 S
C790 C791 1.394 . S
C790 C796 1.465 . S
C791 C786 1.399 . S
C791 C790 1.394 . S
C791 C792 1.516 . S
C792 C791 1.516 . S
C792 C793 1.502 . S
C792 C794 1.561 . S
C792 C795 1.526 . S
C793 H777 0.959 . S
C793 H778 0.959 . S
C793 H779 0.961 . S
C793 C792 1.502 . S
C794 H780 0.960 . S
C794 H781 0.961 . S
C794 H782 0.959 . S
C794 C792 1.561 . S
C795 C792 1.526 . S
C795 C796 1.400 . S
C795 C800 1.390 . S
C796 C790 1.465 . S
C796 C795 1.400 . S
C796 C797 1.396 1_556 S
C797 H783 0.929 . S
C797 C796 1.396 1_554 S
C797 C798 1.385 . S
C798 H784 0.931 . S
C798 C797 1.385 . S
C798 C799 1.389 1_554 S
C799 C798 1.389 1_556 S
C799 C800 1.387 . S
C800 H785 0.930 . S
C800 C795 1.390 . S
C800 C799 1.387 . S
H801 C813 0.930 . S
H802 C815 0.930 . S
H803 C816 0.930 . S
H804 C820 0.959 . S
H805 C820 0.959 1_556 S
H806 C820 0.966 . S
H807 C821 0.960 . S
H808 C821 0.961 . S
H809 C821 0.958 . S
H810 C824 0.929 . S
H811 C825 0.931 . S
H812 C827 0.930 . S
C813 H801 0.930 . S
C813 C814 1.399 . S
C813 C818 1.399 . S
C814 C813 1.399 . S
C814 C815 1.376 . S
C815 H802 0.930 . S
C815 C814 1.376 . S
C815 C816 1.388 . S
C816 H803 0.930 . S
C816 C815 1.388 . S
C816 C817 1.390 . S
C817 C816 1.390 . S
C817 C818 1.394 . S
C817 C823 1.465 . S
C818 C813 1.399 . S
C818 C817 1.394 . S
C818 C819 1.516 . S
C819 C818 1.516 . S
C819 C820 1.502 . S
C819 C821 1.561 1_554 S
C819 C822 1.526 . S
C820 H804 0.959 . S
C820 H805 0.959 1_554 S
C820 H806 0.966 . S
C820 C819 1.502 . S
C821 H807 0.960 . S
C821 H808 0.961 . S
C821 H809 0.958 . S
C821 C819 1.561 1_556 S
C822 C819 1.526 . S
C822 C823 1.396 . S
C822 C827 1.390 . S
C823 C817 1.465 . S
C823 C822 1.396 . S
C823 C824 1.399 . S
C824 H810 0.929 . S
C824 C823 1.399 . S
C824 C825 1.385 . S
C825 H811 0.931 . S
C825 C824 1.385 . S
C825 C826 1.389 . S
C826 C825 1.389 . S
C826 C827 1.387 . S
C827 H812 0.930 . S
C827 C822 1.390 . S
C827 C826 1.387 . S
H828 C840 0.930 . S
H829 C842 0.930 . S
H830 C843 0.930 . S
H831 C847 0.959 . S
H832 C847 0.959 . S
H833 C847 0.961 . S
H834 C848 0.960 1_556 S
H835 C848 0.923 1_556 S
H836 C848 0.953 . S
H837 C851 0.929 . S
H838 C852 0.931 . S
H839 C854 0.930 . S
C840 H828 0.930 . S
C840 C841 1.399 . S
C840 C845 1.399 . S
C841 C840 1.399 . S
C841 C842 1.376 . S
C842 H829 0.930 . S
C842 C841 1.376 . S
C842 C843 1.388 . S
C843 H830 0.930 . S
C843 C842 1.388 . S
C843 C844 1.390 . S
C844 C843 1.390 . S
C844 C845 1.394 . S
C844 C850 1.465 . S
C845 C840 1.399 . S
C845 C844 1.394 . S
C845 C846 1.516 . S
C846 C845 1.516 . S
C846 C847 1.502 . S
C846 C848 1.608 . S
C846 C849 1.526 . S
C847 H831 0.959 . S
C847 H832 0.959 . S
C847 H833 0.961 . S
C847 C846 1.502 . S
C848 H834 0.960 1_554 S
C848 H835 0.923 1_554 S
C848 H836 0.953 . S
C848 C846 1.608 . S
C849 C846 1.526 . S
C849 C850 1.396 . S
C849 C854 1.390 . S
C850 C844 1.465 . S
C850 C849 1.396 . S
C850 C851 1.399 . S
C851 H837 0.929 . S
C851 C850 1.399 . S
C851 C852 1.385 . S
C852 H838 0.931 . S
C852 C851 1.385 . S
C852 C853 1.389 . S
C853 C852 1.389 . S
C853 C854 1.387 . S
C854 H839 0.930 . S
C854 C849 1.390 . S
C854 C853 1.387 . S
H855 C867 0.930 . S
H856 C869 0.930 . S
H857 C870 0.930 . S
H858 C874 0.959 . S
H859 C874 0.959 . S
H860 C874 0.961 . S
H861 C875 0.960 . S
H862 C875 0.961 . S
H863 C875 0.959 . S
H864 C878 0.929 . S
H865 C879 0.931 . S
H866 C881 0.930 1_556 S
C867 H855 0.930 . S
C867 C868 1.399 . S
C867 C872 1.399 . S
C868 C867 1.399 . S
C868 C869 1.376 . S
C869 H856 0.930 . S
C869 C868 1.376 . S
C869 C870 1.388 . S
C870 H857 0.930 . S
C870 C869 1.388 . S
C870 C871 1.390 . S
C871 C870 1.390 . S
C871 C872 1.394 . S
C871 C877 1.465 . S
C872 C867 1.399 . S
C872 C871 1.394 . S
C872 C873 1.482 1_554 S
C873 C872 1.482 1_556 S
C873 C874 1.538 . S
C873 C875 1.574 . S
C873 C876 1.507 1_556 S
C874 H858 0.959 . S
C874 H859 0.959 . S
C874 H860 0.961 . S
C874 C873 1.538 . S
C875 H861 0.960 . S
C875 H862 0.961 . S
C875 H863 0.959 . S
C875 C873 1.574 . S
C876 C873 1.507 1_554 S
C876 C877 1.396 . S
C876 C881 1.390 . S
C877 C871 1.465 . S
C877 C876 1.396 . S
C877 C878 1.399 . S
C878 H864 0.929 . S
C878 C877 1.399 . S
C878 C879 1.385 . S
C879 H865 0.931 . S
C879 C878 1.385 . S
C879 C880 1.389 . S
C880 C879 1.389 . S
C880 C881 1.387 . S
C881 H866 0.930 1_554 S
C881 C876 1.390 . S
C881 C880 1.387 . S
H882 C894 0.930 . S
H883 C896 0.930 . S
H884 C897 0.930 . S
H885 C901 0.959 . S
H886 C901 0.959 . S
H887 C901 0.961 . S
H888 C902 0.960 . S
H889 C902 0.961 . S
H890 C902 0.959 . S
H891 C905 0.929 . S
H892 C906 0.931 . S
H893 C908 0.930 . S
C894 H882 0.930 . S
C894 C895 1.399 . S
C894 C899 1.399 1_655 S
C895 C894 1.399 . S
C895 C896 1.376 . S
C896 H883 0.930 . S
C896 C895 1.376 . S
C896 C897 1.388 . S
C897 H884 0.930 . S
C897 C896 1.388 . S
C897 C898 1.390 1_655 S
C898 C897 1.390 1_455 S
C898 C899 1.394 . S
C898 C904 1.465 . S
C899 C894 1.399 1_455 S
C899 C898 1.394 . S
C899 C900 1.516 . S
C900 C899 1.516 . S
C900 C901 1.502 . S
C900 C902 1.561 . S
C900 C903 1.526 . S
C901 H885 0.959 . S
C901 H886 0.959 . S
C901 H887 0.961 . S
C901 C900 1.502 . S
C902 H888 0.960 . S
C902 H889 0.961 . S
C902 H890 0.959 . S
C902 C900 1.561 . S
C903 C900 1.526 . S
C903 C904 1.396 . S
C903 C908 1.390 . S
C904 C898 1.465 . S
C904 C903 1.396 . S
C904 C905 1.399 . S
C905 H891 0.929 . S
C905 C904 1.399 . S
C905 C906 1.385 . S
C906 H892 0.931 . S
C906 C905 1.385 . S
C906 C907 1.389 . S
C907 C906 1.389 . S
C907 C908 1.387 . S
C908 H893 0.930 . S
C908 C903 1.390 . S
C908 C907 1.387 . S
H909 C921 0.930 . S
H910 C923 0.930 . S
H911 C924 0.930 . S
H912 C928 0.959 . S
H913 C928 0.959 . S
H914 C928 0.961 . S
H915 C929 0.960 . S
H916 C929 0.961 . S
H917 C929 0.959 . S
H918 C932 0.929 . S
H919 C933 0.931 . S
H920 C935 0.930 . S
C921 H909 0.930 . S
C921 C922 1.399 . S
C921 C926 1.399 . S
C922 C921 1.399 . S
C922 C923 1.376 . S
C923 H910 0.930 . S
C923 C922 1.376 . S
C923 C924 1.388 . S
C924 H911 0.930 . S
C924 C923 1.388 . S
C924 C925 1.390 . S
C925 C924 1.390 . S
C925 C926 1.394 . S
C925 C931 1.465 . S
C926 C921 1.399 . S
C926 C925 1.394 . S
C926 C927 1.516 . S
C927 C926 1.516 . S
C927 C928 1.502 . S
C927 C929 1.561 . S
C927 C930 1.526 . S
C928 H912 0.959 . S
C928 H913 0.959 . S
C928 H914 0.961 . S
C928 C927 1.502 . S
C929 H915 0.960 . S
C929 H916 0.961 . S
C929 H917 0.959 . S
C929 C927 1.561 . S
C930 C927 1.526 . S
C930 C931 1.396 . S
C930 C935 1.390 . S
C931 C925 1.465 . S
C931 C930 1.396 . S
C931 C932 1.399 . S
C932 H918 0.929 . S
C932 C931 1.399 . S
C932 C933 1.385 . S
C933 H919 0.931 . S
C933 C932 1.385 . S
C933 C934 1.389 . S
C934 C933 1.389 . S
C934 C935 1.387 . S
C935 H920 0.930 . S
C935 C930 1.390 . S
C935 C934 1.387 . S
H936 C948 0.930 . S
H937 C950 0.930 . S
H938 C951 0.930 . S
H939 C955 0.959 . S
H940 C955 0.959 . S
H941 C955 0.961 1_545 S
H942 C956 0.960 . S
H943 C956 0.961 . S
H944 C956 0.959 . S
H945 C959 0.929 . S
H946 C960 0.931 . S
H947 C962 0.930 . S
C948 H936 0.930 . S
C948 C949 1.399 . S
C948 C953 1.399 . S
C949 C948 1.399 . S
C949 C950 1.376 . S
C950 H937 0.930 . S
C950 C949 1.376 . S
C950 C951 1.388 . S
C951 H938 0.930 . S
C951 C950 1.388 . S
C951 C952 1.390 . S
C952 C951 1.390 . S
C952 C953 1.394 . S
C952 C958 1.465 1_545 S
C953 C948 1.399 . S
C953 C952 1.394 . S
C953 C954 1.516 1_545 S
C954 C953 1.516 1_565 S
C954 C955 1.502 . S
C954 C956 1.561 . S
C954 C957 1.526 . S
C955 H939 0.959 . S
C955 H940 0.959 . S
C955 H941 0.961 1_565 S
C955 C954 1.502 . S
C956 H942 0.960 . S
C956 H943 0.961 . S
C956 H944 0.959 . S
C956 C954 1.561 . S
C957 C954 1.526 . S
C957 C958 1.396 . S
C957 C962 1.390 . S
C958 C952 1.465 1_565 S
C958 C957 1.396 . S
C958 C959 1.399 . S
C959 H945 0.929 . S
C959 C958 1.399 . S
C959 C960 1.385 . S
C960 H946 0.931 . S
C960 C959 1.385 . S
C960 C961 1.389 . S
C961 C960 1.389 . S
C961 C962 1.387 . S
C962 H947 0.930 . S
C962 C957 1.390 . S
C962 C961 1.387 . S
H963 C975 0.930 . S
H964 C977 0.930 . S
H965 C978 0.930 . S
H966 C982 0.959 . S
H967 C982 0.959 . S
H968 C982 0.961 . S
H969 C983 0.960 . S
H970 C983 0.961 . S
H971 C983 0.959 . S
H972 C986 0.929 . S
H973 C987 0.931 . S
H974 C989 0.930 . S
C975 H963 0.930 . S
C975 C976 1.399 . S
C975 C980 1.399 . S
C976 C975 1.399 . S
C976 C977 1.376 . S
C977 H964 0.930 . S
C977 C976 1.376 . S
C977 C978 1.388 . S
C978 H965 0.930 . S
C978 C977 1.388 . S
C978 C979 1.390 . S
C979 C978 1.390 . S
C979 C980 1.394 . S
C979 C985 1.465 . S
C980 C975 1.399 . S
C980 C979 1.394 . S
C980 C981 1.516 . S
C981 C980 1.516 . S
C981 C982 1.502 . S
C981 C983 1.561 . S
C981 C984 1.526 . S
C982 H966 0.959 . S
C982 H967 0.959 . S
C982 H968 0.961 . S
C982 C981 1.502 . S
C983 H969 0.960 . S
C983 H970 0.961 . S
C983 H971 0.959 . S
C983 C981 1.561 . S
C984 C981 1.526 . S
C984 C985 1.396 . S
C984 C989 1.390 . S
C985 C979 1.465 . S
C985 C984 1.396 . S
C985 C986 1.399 . S
C986 H972 0.929 . S
C986 C985 1.399 . S
C986 C987 1.385 . S
C987 H973 0.931 . S
C987 C986 1.385 . S
C987 C988 1.389 . S
C988 C987 1.389 . S
C988 C989 1.387 . S
C989 H974 0.930 . S
C989 C984 1.390 . S
C989 C988 1.387 . S
H990 C1002 0.930 . S
H991 C1004 0.930 . S
H992 C1005 0.930 . S
H993 C1009 0.959 . S
H994 C1009 0.959 . S
H995 C1009 0.961 . S
H996 C1010 0.960 . S
H997 C1010 0.961 . S
H998 C1010 0.959 . S
H999 C1013 0.929 . S
H1000 C1014 0.931 . S
H1001 C1016 0.930 . S
C1002 H990 0.930 . S
C1002 C1003 1.399 . S
C1002 C1007 1.399 . S
C1003 C1002 1.399 . S
C1003 C1004 1.376 . S
C1004 H991 0.930 . S
C1004 C1003 1.376 . S
C1004 C1005 1.388 . S
C1005 H992 0.930 . S
C1005 C1004 1.388 . S
C1005 C1006 1.390 . S
C1006 C1005 1.390 . S
C1006 C1007 1.394 . S
C1006 C1012 1.465 . S
C1007 C1002 1.399 . S
C1007 C1006 1.394 . S
C1007 C1008 1.516 . S
C1008 C1007 1.516 . S
C1008 C1009 1.502 . S
C1008 C1010 1.561 . S
C1008 C1011 1.526 . S
C1009 H993 0.959 . S
C1009 H994 0.959 . S
C1009 H995 0.961 . S
C1009 C1008 1.502 . S
C1010 H996 0.960 . S
C1010 H997 0.961 . S
C1010 H998 0.959 . S
C1010 C1008 1.561 . S
C1011 C1008 1.526 . S
C1011 C1012 1.396 . S
C1011 C1016 1.390 . S
C1012 C1006 1.465 . S
C1012 C1011 1.396 . S
C1012 C1013 1.399 . S
C1013 H999 0.929 . S
C1013 C1012 1.399 . S
C1013 C1014 1.385 . S
C1014 H1000 0.931 . S
C1014 C1013 1.385 . S
C1014 C1015 1.389 . S
C1015 C1014 1.389 . S
C1015 C1016 1.387 . S
C1016 H1001 0.930 . S
C1016 C1011 1.390 . S
C1016 C1015 1.387 . S
H1017 C1029 0.930 . S
H1018 C1031 0.930 . S
H1019 C1032 0.930 . S
H1020 C1036 0.959 . S
H1021 C1036 0.959 . S
H1022 C1036 0.961 . S
H1023 C1037 0.960 . S
H1024 C1037 0.961 . S
H1025 C1037 0.959 . S
H1026 C1040 0.929 . S
H1027 C1041 0.931 . S
H1028 C1043 0.930 . S
C1029 H1017 0.930 . S
C1029 C1030 1.399 . S
C1029 C1034 1.399 . S
C1030 C1029 1.399 . S
C1030 C1031 1.376 . S
C1031 H1018 0.930 . S
C1031 C1030 1.376 . S
C1031 C1032 1.388 . S
C1032 H1019 0.930 . S
C1032 C1031 1.388 . S
C1032 C1033 1.390 . S
C1033 C1032 1.390 . S
C1033 C1034 1.394 . S
C1033 C1039 1.465 . S
C1034 C1029 1.399 . S
C1034 C1033 1.394 . S
C1034 C1035 1.516 . S
C1035 C1034 1.516 . S
C1035 C1036 1.502 . S
C1035 C1037 1.561 . S
C1035 C1038 1.526 . S
C1036 H1020 0.959 . S
C1036 H1021 0.959 . S
C1036 H1022 0.961 . S
C1036 C1035 1.502 . S
C1037 H1023 0.960 . S
C1037 H1024 0.961 . S
C1037 H1025 0.959 . S
C1037 C1035 1.561 . S
C1038 C1035 1.526 . S
C1038 C1039 1.396 . S
C1038 C1043 1.390 . S
C1039 C1033 1.465 . S
C1039 C1038 1.396 . S
C1039 C1040 1.399 . S
C1040 H1026 0.929 . S
C1040 C1039 1.399 . S
C1040 C1041 1.385 . S
C1041 H1027 0.931 . S
C1041 C1040 1.385 . S
C1041 C1042 1.389 . S
C1042 C1041 1.389 . S
C1042 C1043 1.387 . S
C1043 H1028 0.930 . S
C1043 C1038 1.390 . S
C1043 C1042 1.387 . S
H1044 C1056 0.930 . S
H1045 C1058 0.930 . S
H1046 C1059 0.930 . S
H1047 C1063 0.959 . S
H1048 C1063 0.959 . S
H1049 C1063 0.961 . S
H1050 C1064 0.960 . S
H1051 C1064 0.961 . S
H1052 C1064 0.959 . S
H1053 C1067 0.929 . S
H1054 C1068 0.931 . S
H1055 C1070 0.930 . S
C1056 H1044 0.930 . S
C1056 C1057 1.399 . S
C1056 C1061 1.399 . S
C1057 C1056 1.399 . S
C1057 C1058 1.376 . S
C1058 H1045 0.930 . S
C1058 C1057 1.376 . S
C1058 C1059 1.388 . S
C1059 H1046 0.930 . S
C1059 C1058 1.388 . S
C1059 C1060 1.390 . S
C1060 C1059 1.390 . S
C1060 C1061 1.394 . S
C1060 C1066 1.465 . S
C1061 C1056 1.399 . S
C1061 C1060 1.394 . S
C1061 C1062 1.516 . S
C1062 C1061 1.516 . S
C1062 C1063 1.502 . S
C1062 C1064 1.561 . S
C1062 C1065 1.526 . S
C1063 H1047 0.959 . S
C1063 H1048 0.959 . S
C1063 H1049 0.961 . S
C1063 C1062 1.502 . S
C1064 H1050 0.960 . S
C1064 H1051 0.961 . S
C1064 H1052 0.959 . S
C1064 C1062 1.561 . S
C1065 C1062 1.526 . S
C1065 C1066 1.396 . S
C1065 C1070 1.390 . S
C1066 C1060 1.465 . S
C1066 C1065 1.396 . S
C1066 C1067 1.399 . S
C1067 H1053 0.929 . S
C1067 C1066 1.399 . S
C1067 C1068 1.385 . S
C1068 H1054 0.931 . S
C1068 C1067 1.385 . S
C1068 C1069 1.389 . S
C1069 C1068 1.389 . S
C1069 C1070 1.387 . S
C1070 H1055 0.930 . S
C1070 C1065 1.390 . S
C1070 C1069 1.387 . S
H1071 C1083 0.930 . S
H1072 C1085 0.930 . S
H1073 C1086 0.930 . S
H1074 C1090 0.959 . S
H1075 C1090 0.959 . S
H1076 C1090 0.961 . S
H1077 C1091 0.960 . S
H1078 C1091 0.961 . S
H1079 C1091 0.959 . S
H1080 C1094 0.929 . S
H1081 C1095 0.931 . S
H1082 C1097 0.930 . S
C1083 H1071 0.930 . S
C1083 C1084 1.399 . S
C1083 C1088 1.399 . S
C1084 C1083 1.399 . S
C1084 C1085 1.376 . S
C1085 H1072 0.930 . S
C1085 C1084 1.376 . S
C1085 C1086 1.388 . S
C1086 H1073 0.930 . S
C1086 C1085 1.388 . S
C1086 C1087 1.390 . S
C1087 C1086 1.390 . S
C1087 C1088 1.394 . S
C1087 C1093 1.465 . S
C1088 C1083 1.399 . S
C1088 C1087 1.394 . S
C1088 C1089 1.516 . S
C1089 C1088 1.516 . S
C1089 C1090 1.502 . S
C1089 C1091 1.561 . S
C1089 C1092 1.526 . S
C1090 H1074 0.959 . S
C1090 H1075 0.959 . S
C1090 H1076 0.961 . S
C1090 C1089 1.502 . S
C1091 H1077 0.960 . S
C1091 H1078 0.961 . S
C1091 H1079 0.959 . S
C1091 C1089 1.561 . S
C1092 C1089 1.526 . S
C1092 C1093 1.396 . S
C1092 C1097 1.390 . S
C1093 C1087 1.465 . S
C1093 C1092 1.396 . S
C1093 C1094 1.399 . S
C1094 H1080 0.929 . S
C1094 C1093 1.399 . S
C1094 C1095 1.385 . S
C1095 H1081 0.931 . S
C1095 C1094 1.385 . S
C1095 C1096 1.389 . S
C1096 C1095 1.389 . S
C1096 C1097 1.387 . S
C1097 H1082 0.930 . S
C1097 C1092 1.390 . S
C1097 C1096 1.387 . S
H1098 C1110 0.930 . S
H1099 C1112 0.930 . S
H1100 C1113 0.930 . S
H1101 C1117 0.959 . S
H1102 C1117 0.959 . S
H1103 C1117 0.961 . S
H1104 C1118 0.960 . S
H1105 C1118 0.961 . S
H1106 C1118 0.959 . S
H1107 C1121 0.929 . S
H1108 C1122 0.931 . S
H1109 C1124 0.930 . S
C1110 H1098 0.930 . S
C1110 C1111 1.399 . S
C1110 C1115 1.399 . S
C1111 C1110 1.399 . S
C1111 C1112 1.376 . S
C1112 H1099 0.930 . S
C1112 C1111 1.376 . S
C1112 C1113 1.388 . S
C1113 H1100 0.930 . S
C1113 C1112 1.388 . S
C1113 C1114 1.390 . S
C1114 C1113 1.390 . S
C1114 C1115 1.394 . S
C1114 C1120 1.465 . S
C1115 C1110 1.399 . S
C1115 C1114 1.394 . S
C1115 C1116 1.516 . S
C1116 C1115 1.516 . S
C1116 C1117 1.502 . S
C1116 C1118 1.561 . S
C1116 C1119 1.526 . S
C1117 H1101 0.959 . S
C1117 H1102 0.959 . S
C1117 H1103 0.961 . S
C1117 C1116 1.502 . S
C1118 H1104 0.960 . S
C1118 H1105 0.961 . S
C1118 H1106 0.959 . S
C1118 C1116 1.561 . S
C1119 C1116 1.526 . S
C1119 C1120 1.396 . S
C1119 C1124 1.390 . S
C1120 C1114 1.465 . S
C1120 C1119 1.396 . S
C1120 C1121 1.399 . S
C1121 H1107 0.929 . S
C1121 C1120 1.399 . S
C1121 C1122 1.385 . S
C1122 H1108 0.931 . S
C1122 C1121 1.385 . S
C1122 C1123 1.389 . S
C1123 C1122 1.389 . S
C1123 C1124 1.387 . S
C1124 H1109 0.930 . S
C1124 C1119 1.390 . S
C1124 C1123 1.387 . S
H1125 C1137 0.930 . S
H1126 C1139 0.930 . S
H1127 C1140 0.930 . S
H1128 C1144 0.959 . S
H1129 C1144 0.959 . S
H1130 C1144 0.961 . S
H1131 C1145 0.960 . S
H1132 C1145 0.961 . S
H1133 C1145 0.959 . S
H1134 C1148 0.929 . S
H1135 C1149 0.931 . S
H1136 C1151 0.930 . S
C1137 H1125 0.930 . S
C1137 C1138 1.399 . S
C1137 C1142 1.399 . S
C1138 C1137 1.399 . S
C1138 C1139 1.376 . S
C1139 H1126 0.930 . S
C1139 C1138 1.376 . S
C1139 C1140 1.388 . S
C1140 H1127 0.930 . S
C1140 C1139 1.388 . S
C1140 C1141 1.390 1_545 S
C1141 C1140 1.390 1_565 S
C1141 C1142 1.394 1_565 S
C1141 C1147 1.465 . S
C1142 C1137 1.399 . S
C1142 C1141 1.394 1_545 S
C1142 C1143 1.516 1_545 S
C1143 C1142 1.516 1_565 S
C1143 C1144 1.502 . S
C1143 C1145 1.561 . S
C1143 C1146 1.526 . S
C1144 H1128 0.959 . S
C1144 H1129 0.959 . S
C1144 H1130 0.961 . S
C1144 C1143 1.502 . S
C1145 H1131 0.960 . S
C1145 H1132 0.961 . S
C1145 H1133 0.959 . S
C1145 C1143 1.561 . S
C1146 C1143 1.526 . S
C1146 C1147 1.396 . S
C1146 C1151 1.390 . S
C1147 C1141 1.465 . S
C1147 C1146 1.396 . S
C1147 C1148 1.399 . S
C1148 H1134 0.929 . S
C1148 C1147 1.399 . S
C1148 C1149 1.385 . S
C1149 H1135 0.931 . S
C1149 C1148 1.385 . S
C1149 C1150 1.389 . S
C1150 C1149 1.389 . S
C1150 C1151 1.387 . S
C1151 H1136 0.930 . S
C1151 C1146 1.390 . S
C1151 C1150 1.387 . S
H1152 C1164 0.930 . S
H1153 C1166 0.930 . S
H1154 C1167 0.930 . S
H1155 C1171 0.959 . S
H1156 C1171 0.959 . S
H1157 C1171 0.961 . S
H1158 C1172 0.960 1_655 S
H1159 C1172 0.961 . S
H1160 C1172 0.959 . S
H1161 C1175 0.929 . S
H1162 C1176 0.931 . S
H1163 C1178 0.930 . S
C1164 H1152 0.930 . S
C1164 C1165 1.399 . S
C1164 C1169 1.399 1_655 S
C1165 C1164 1.399 . S
C1165 C1166 1.376 . S
C1166 H1153 0.930 . S
C1166 C1165 1.376 . S
C1166 C1167 1.388 1_655 S
C1167 H1154 0.930 . S
C1167 C1166 1.388 1_455 S
C1167 C1168 1.390 . S
C1168 C1167 1.390 . S
C1168 C1169 1.394 . S
C1168 C1174 1.465 . S
C1169 C1164 1.399 1_455 S
C1169 C1168 1.394 . S
C1169 C1170 1.516 . S
C1170 C1169 1.516 . S
C1170 C1171 1.502 . S
C1170 C1172 1.561 . S
C1170 C1173 1.526 . S
C1171 H1155 0.959 . S
C1171 H1156 0.959 . S
C1171 H1157 0.961 . S
C1171 C1170 1.502 . S
C1172 H1158 0.960 1_455 S
C1172 H1159 0.961 . S
C1172 H1160 0.959 . S
C1172 C1170 1.561 . S
C1173 C1170 1.526 . S
C1173 C1174 1.396 . S
C1173 C1178 1.390 . S
C1174 C1168 1.465 . S
C1174 C1173 1.396 . S
C1174 C1175 1.399 . S
C1175 H1161 0.929 . S
C1175 C1174 1.399 . S
C1175 C1176 1.385 . S
C1176 H1162 0.931 . S
C1176 C1175 1.385 . S
C1176 C1177 1.389 . S
C1177 C1176 1.389 . S
C1177 C1178 1.387 . S
C1178 H1163 0.930 . S
C1178 C1173 1.390 . S
C1178 C1177 1.387 . S
H1179 C1191 0.930 . S
H1180 C1193 0.930 . S
H1181 C1194 0.930 . S
H1182 C1198 0.959 . S
H1183 C1198 0.959 . S
H1184 C1198 0.961 . S
H1185 C1199 0.960 . S
H1186 C1199 0.961 . S
H1187 C1199 0.959 . S
H1188 C1202 0.929 . S
H1189 C1203 0.931 . S
H1190 C1205 0.930 . S
C1191 H1179 0.930 . S
C1191 C1192 1.399 . S
C1191 C1196 1.399 . S
C1192 C1191 1.399 . S
C1192 C1193 1.376 . S
C1193 H1180 0.930 . S
C1193 C1192 1.376 . S
C1193 C1194 1.388 . S
C1194 H1181 0.930 . S
C1194 C1193 1.388 . S
C1194 C1195 1.390 . S
C1195 C1194 1.390 . S
C1195 C1196 1.394 . S
C1195 C1201 1.465 . S
C1196 C1191 1.399 . S
C1196 C1195 1.394 . S
C1196 C1197 1.516 . S
C1197 C1196 1.516 . S
C1197 C1198 1.502 . S
C1197 C1199 1.561 . S
C1197 C1200 1.526 . S
C1198 H1182 0.959 . S
C1198 H1183 0.959 . S
C1198 H1184 0.961 . S
C1198 C1197 1.502 . S
C1199 H1185 0.960 . S
C1199 H1186 0.961 . S
C1199 H1187 0.959 . S
C1199 C1197 1.561 . S
C1200 C1197 1.526 . S
C1200 C1201 1.396 . S
C1200 C1205 1.390 . S
C1201 C1195 1.465 . S
C1201 C1200 1.396 . S
C1201 C1202 1.399 . S
C1202 H1188 0.929 . S
C1202 C1201 1.399 . S
C1202 C1203 1.385 . S
C1203 H1189 0.931 . S
C1203 C1202 1.385 . S
C1203 C1204 1.389 . S
C1204 C1203 1.389 . S
C1204 C1205 1.387 . S
C1205 H1190 0.930 . S
C1205 C1200 1.390 . S
C1205 C1204 1.387 . S
H1206 C1218 0.930 . S
H1207 C1220 0.930 . S
H1208 C1221 0.930 . S
H1209 C1225 0.959 . S
H1210 C1225 0.959 . S
H1211 C1225 0.961 . S
H1212 C1226 0.960 . S
H1213 C1226 0.961 . S
H1214 C1226 0.959 . S
H1215 C1229 0.929 . S
H1216 C1230 0.931 . S
H1217 C1232 0.930 . S
C1218 H1206 0.930 . S
C1218 C1219 1.399 . S
C1218 C1223 1.399 . S
C1219 C1218 1.399 . S
C1219 C1220 1.376 . S
C1220 H1207 0.930 . S
C1220 C1219 1.376 . S
C1220 C1221 1.388 . S
C1221 H1208 0.930 . S
C1221 C1220 1.388 . S
C1221 C1222 1.390 . S
C1222 C1221 1.390 . S
C1222 C1223 1.394 . S
C1222 C1228 1.465 . S
C1223 C1218 1.399 . S
C1223 C1222 1.394 . S
C1223 C1224 1.516 . S
C1224 C1223 1.516 . S
C1224 C1225 1.502 . S
C1224 C1226 1.561 . S
C1224 C1227 1.526 . S
C1225 H1209 0.959 . S
C1225 H1210 0.959 . S
C1225 H1211 0.961 . S
C1225 C1224 1.502 . S
C1226 H1212 0.960 . S
C1226 H1213 0.961 . S
C1226 H1214 0.959 . S
C1226 C1224 1.561 . S
C1227 C1224 1.526 . S
C1227 C1228 1.396 . S
C1227 C1232 1.390 . S
C1228 C1222 1.465 . S
C1228 C1227 1.396 . S
C1228 C1229 1.399 . S
C1229 H1215 0.929 . S
C1229 C1228 1.399 . S
C1229 C1230 1.385 . S
C1230 H1216 0.931 . S
C1230 C1229 1.385 . S
C1230 C1231 1.389 . S
C1231 C1230 1.389 . S
C1231 C1232 1.387 . S
C1232 H1217 0.930 . S
C1232 C1227 1.390 . S
C1232 C1231 1.387 . S
H1233 C1245 0.930 . S
H1234 C1247 0.930 . S
H1235 C1248 0.930 . S
H1236 C1252 0.959 . S
H1237 C1252 0.959 . S
H1238 C1252 0.961 . S
H1239 C1253 0.960 . S
H1240 C1253 0.961 . S
H1241 C1253 0.959 . S
H1242 C1256 0.929 . S
H1243 C1257 0.931 . S
H1244 C1259 0.930 . S
C1245 H1233 0.930 . S
C1245 C1246 1.399 . S
C1245 C1250 1.399 . S
C1246 C1245 1.399 . S
C1246 C1247 1.376 . S
C1247 H1234 0.930 . S
C1247 C1246 1.376 . S
C1247 C1248 1.388 . S
C1248 H1235 0.930 . S
C1248 C1247 1.388 . S
C1248 C1249 1.390 . S
C1249 C1248 1.390 . S
C1249 C1250 1.394 . S
C1249 C1255 1.465 . S
C1250 C1245 1.399 . S
C1250 C1249 1.394 . S
C1250 C1251 1.516 . S
C1251 C1250 1.516 . S
C1251 C1252 1.502 . S
C1251 C1253 1.561 . S
C1251 C1254 1.526 . S
C1252 H1236 0.959 . S
C1252 H1237 0.959 . S
C1252 H1238 0.961 . S
C1252 C1251 1.502 . S
C1253 H1239 0.960 . S
C1253 H1240 0.961 . S
C1253 H1241 0.959 . S
C1253 C1251 1.561 . S
C1254 C1251 1.526 . S
C1254 C1255 1.396 . S
C1254 C1259 1.390 . S
C1255 C1249 1.465 . S
C1255 C1254 1.396 . S
C1255 C1256 1.399 . S
C1256 H1242 0.929 . S
C1256 C1255 1.399 . S
C1256 C1257 1.385 . S
C1257 H1243 0.931 . S
C1257 C1256 1.385 . S
C1257 C1258 1.389 . S
C1258 C1257 1.389 . S
C1258 C1259 1.387 . S
C1259 H1244 0.930 . S
C1259 C1254 1.390 . S
C1259 C1258 1.387 . S
H1260 C1272 0.930 . S
H1261 C1274 0.930 . S
H1262 C1275 0.930 . S
H1263 C1279 0.959 . S
H1264 C1279 0.959 . S
H1265 C1279 0.961 . S
H1266 C1280 0.960 . S
H1267 C1280 0.961 . S
H1268 C1280 0.959 . S
H1269 C1283 0.929 . S
H1270 C1284 0.931 . S
H1271 C1286 0.930 . S
C1272 H1260 0.930 . S
C1272 C1273 1.399 . S
C1272 C1277 1.399 . S
C1273 C1272 1.399 . S
C1273 C1274 1.376 . S
C1274 H1261 0.930 . S
C1274 C1273 1.376 . S
C1274 C1275 1.388 . S
C1275 H1262 0.930 . S
C1275 C1274 1.388 . S
C1275 C1276 1.390 . S
C1276 C1275 1.390 . S
C1276 C1277 1.394 . S
C1276 C1282 1.465 . S
C1277 C1272 1.399 . S
C1277 C1276 1.394 . S
C1277 C1278 1.516 . S
C1278 C1277 1.516 . S
C1278 C1279 1.502 . S
C1278 C1280 1.561 . S
C1278 C1281 1.526 . S
C1279 H1263 0.959 . S
C1279 H1264 0.959 . S
C1279 H1265 0.961 . S
C1279 C1278 1.502 . S
C1280 H1266 0.960 . S
C1280 H1267 0.961 . S
C1280 H1268 0.959 . S
C1280 C1278 1.561 . S
C1281 C1278 1.526 . S
C1281 C1282 1.396 . S
C1281 C1286 1.390 . S
C1282 C1276 1.465 . S
C1282 C1281 1.396 . S
C1282 C1283 1.399 . S
C1283 H1269 0.929 . S
C1283 C1282 1.399 . S
C1283 C1284 1.385 . S
C1284 H1270 0.931 . S
C1284 C1283 1.385 . S
C1284 C1285 1.389 . S
C1285 C1284 1.389 . S
C1285 C1286 1.387 . S
C1286 H1271 0.930 . S
C1286 C1281 1.390 . S
C1286 C1285 1.387 . S
H1287 C1299 0.930 . S
H1288 C1301 0.930 . S
H1289 C1302 0.930 . S
H1290 C1306 0.959 . S
H1291 C1306 0.959 . S
H1292 C1306 0.961 1_565 S
H1293 C1307 0.960 . S
H1294 C1307 0.961 . S
H1295 C1307 0.959 . S
H1296 C1310 0.929 . S
H1297 C1311 0.931 . S
H1298 C1313 0.930 . S
C1299 H1287 0.930 . S
C1299 C1300 1.399 . S
C1299 C1304 1.399 . S
C1300 C1299 1.399 . S
C1300 C1301 1.376 . S
C1301 H1288 0.930 . S
C1301 C1300 1.376 . S
C1301 C1302 1.388 . S
C1302 H1289 0.930 . S
C1302 C1301 1.388 . S
C1302 C1303 1.390 1_565 S
C1303 C1302 1.390 1_545 S
C1303 C1304 1.394 1_545 S
C1303 C1309 1.465 . S
C1304 C1299 1.399 . S
C1304 C1303 1.394 1_565 S
C1304 C1305 1.516 1_565 S
C1305 C1304 1.516 1_545 S
C1305 C1306 1.502 . S
C1305 C1307 1.561 . S
C1305 C1308 1.526 . S
C1306 H1290 0.959 . S
C1306 H1291 0.959 . S
C1306 H1292 0.961 1_545 S
C1306 C1305 1.502 . S
C1307 H1293 0.960 . S
C1307 H1294 0.961 . S
C1307 H1295 0.959 . S
C1307 C1305 1.561 . S
C1308 C1305 1.526 . S
C1308 C1309 1.396 . S
C1308 C1313 1.390 . S
C1309 C1303 1.465 . S
C1309 C1308 1.396 . S
C1309 C1310 1.399 . S
C1310 H1296 0.929 . S
C1310 C1309 1.399 . S
C1310 C1311 1.385 . S
C1311 H1297 0.931 . S
C1311 C1310 1.385 . S
C1311 C1312 1.389 . S
C1312 C1311 1.389 . S
C1312 C1313 1.387 . S
C1313 H1298 0.930 . S
C1313 C1308 1.390 . S
C1313 C1312 1.387 . S
H1314 C1326 0.930 . S
H1315 C1328 0.930 . S
H1316 C1329 0.935 . S
H1317 C1333 0.959 . S
H1318 C1333 0.959 . S
H1319 C1333 0.961 . S
H1320 C1334 0.960 1_455 S
H1321 C1334 0.961 . S
H1322 C1334 0.959 . S
H1323 C1337 0.929 . S
H1324 C1338 0.931 . S
H1325 C1340 0.930 . S
C1326 H1314 0.930 . S
C1326 C1327 1.399 . S
C1326 C1331 1.399 1_455 S
C1327 C1326 1.399 . S
C1327 C1328 1.376 . S
C1328 H1315 0.930 . S
C1328 C1327 1.376 . S
C1328 C1329 1.388 . S
C1329 H1316 0.935 . S
C1329 C1328 1.388 . S
C1329 C1330 1.390 1_455 S
C1330 C1329 1.390 1_655 S
C1330 C1331 1.394 . S
C1330 C1336 1.465 . S
C1331 C1326 1.399 1_655 S
C1331 C1330 1.394 . S
C1331 C1332 1.516 . S
C1332 C1331 1.516 . S
C1332 C1333 1.502 . S
C1332 C1334 1.561 . S
C1332 C1335 1.526 . S
C1333 H1317 0.959 . S
C1333 H1318 0.959 . S
C1333 H1319 0.961 . S
C1333 C1332 1.502 . S
C1334 H1320 0.960 1_655 S
C1334 H1321 0.961 . S
C1334 H1322 0.959 . S
C1334 C1332 1.561 . S
C1335 C1332 1.526 . S
C1335 C1336 1.396 . S
C1335 C1340 1.390 . S
C1336 C1330 1.465 . S
C1336 C1335 1.396 . S
C1336 C1337 1.399 . S
C1337 H1323 0.929 . S
C1337 C1336 1.399 . S
C1337 C1338 1.385 . S
C1338 H1324 0.931 . S
C1338 C1337 1.385 . S
C1338 C1339 1.389 . S
C1339 C1338 1.389 . S
C1339 C1340 1.387 . S
C1340 H1325 0.930 . S
C1340 C1335 1.390 . S
C1340 C1339 1.387 . S
H1341 C1353 0.930 . S
H1342 C1355 0.930 . S
H1343 C1356 0.930 . S
H1344 C1360 0.959 . S
H1345 C1360 0.959 . S
H1346 C1360 0.961 . S
H1347 C1361 0.960 . S
H1348 C1361 0.961 . S
H1349 C1361 0.959 . S
H1350 C1364 0.929 . S
H1351 C1365 0.931 . S
H1352 C1367 0.930 . S
C1353 H1341 0.930 . S
C1353 C1354 1.399 . S
C1353 C1358 1.399 . S
C1354 C1353 1.399 . S
C1354 C1355 1.376 . S
C1355 H1342 0.930 . S
C1355 C1354 1.376 . S
C1355 C1356 1.388 . S
C1356 H1343 0.930 . S
C1356 C1355 1.388 . S
C1356 C1357 1.390 . S
C1357 C1356 1.390 . S
C1357 C1358 1.394 . S
C1357 C1363 1.465 . S
C1358 C1353 1.399 . S
C1358 C1357 1.394 . S
C1358 C1359 1.516 . S
C1359 C1358 1.516 . S
C1359 C1360 1.502 . S
C1359 C1361 1.561 . S
C1359 C1362 1.526 . S
C1360 H1344 0.959 . S
C1360 H1345 0.959 . S
C1360 H1346 0.961 . S
C1360 C1359 1.502 . S
C1361 H1347 0.960 . S
C1361 H1348 0.961 . S
C1361 H1349 0.959 . S
C1361 C1359 1.561 . S
C1362 C1359 1.526 . S
C1362 C1363 1.396 . S
C1362 C1367 1.390 . S
C1363 C1357 1.465 . S
C1363 C1362 1.396 . S
C1363 C1364 1.399 . S
C1364 H1350 0.929 . S
C1364 C1363 1.399 . S
C1364 C1365 1.385 . S
C1365 H1351 0.931 . S
C1365 C1364 1.385 . S
C1365 C1366 1.389 . S
C1366 C1365 1.389 . S
C1366 C1367 1.387 . S
C1367 H1352 0.930 . S
C1367 C1362 1.390 . S
C1367 C1366 1.387 . S
H1368 C1380 0.930 . S
H1369 C1382 0.930 . S
H1370 C1383 0.941 . S
H1371 C1387 0.959 . S
H1372 C1387 0.959 . S
H1373 C1387 0.961 . S
H1374 C1388 0.960 . S
H1375 C1388 0.961 . S
H1376 C1388 0.959 . S
H1377 C1391 0.929 . S
H1378 C1392 0.931 . S
H1379 C1394 0.930 . S
C1380 H1368 0.930 . S
C1380 C1381 1.399 . S
C1380 C1385 1.399 1_455 S
C1381 C1380 1.399 . S
C1381 C1382 1.376 . S
C1382 H1369 0.930 . S
C1382 C1381 1.376 . S
C1382 C1383 1.388 . S
C1383 H1370 0.941 . S
C1383 C1382 1.388 . S
C1383 C1384 1.390 1_455 S
C1384 C1383 1.390 1_655 S
C1384 C1385 1.394 . S
C1384 C1390 1.465 . S
C1385 C1380 1.399 1_655 S
C1385 C1384 1.394 . S
C1385 C1386 1.516 . S
C1386 C1385 1.516 . S
C1386 C1387 1.502 . S
C1386 C1388 1.561 . S
C1386 C1389 1.526 . S
C1387 H1371 0.959 . S
C1387 H1372 0.959 . S
C1387 H1373 0.961 . S
C1387 C1386 1.502 . S
C1388 H1374 0.960 . S
C1388 H1375 0.961 . S
C1388 H1376 0.959 . S
C1388 C1386 1.561 . S
C1389 C1386 1.526 . S
C1389 C1390 1.396 . S
C1389 C1394 1.390 . S
C1390 C1384 1.465 . S
C1390 C1389 1.396 . S
C1390 C1391 1.399 . S
C1391 H1377 0.929 . S
C1391 C1390 1.399 . S
C1391 C1392 1.385 . S
C1392 H1378 0.931 . S
C1392 C1391 1.385 . S
C1392 C1393 1.389 . S
C1393 C1392 1.389 . S
C1393 C1394 1.387 . S
C1394 H1379 0.930 . S
C1394 C1389 1.390 . S
C1394 C1393 1.387 . S
H1395 C1407 0.930 . S
H1396 C1409 0.930 . S
H1397 C1410 0.930 . S
H1398 C1414 0.959 . S
H1399 C1414 0.959 . S
H1400 C1414 0.961 . S
H1401 C1415 0.960 . S
H1402 C1415 0.961 . S
H1403 C1415 0.959 . S
H1404 C1418 0.929 . S
H1405 C1419 0.931 . S
H1406 C1421 0.930 . S
C1407 H1395 0.930 . S
C1407 C1408 1.399 . S
C1407 C1412 1.399 . S
C1408 C1407 1.399 . S
C1408 C1409 1.376 . S
C1409 H1396 0.930 . S
C1409 C1408 1.376 . S
C1409 C1410 1.388 . S
C1410 H1397 0.930 . S
C1410 C1409 1.388 . S
C1410 C1411 1.390 . S
C1411 C1410 1.390 . S
C1411 C1412 1.394 . S
C1411 C1417 1.465 . S
C1412 C1407 1.399 . S
C1412 C1411 1.394 . S
C1412 C1413 1.516 . S
C1413 C1412 1.516 . S
C1413 C1414 1.502 . S
C1413 C1415 1.561 . S
C1413 C1416 1.526 . S
C1414 H1398 0.959 . S
C1414 H1399 0.959 . S
C1414 H1400 0.961 . S
C1414 C1413 1.502 . S
C1415 H1401 0.960 . S
C1415 H1402 0.961 . S
C1415 H1403 0.959 . S
C1415 C1413 1.561 . S
C1416 C1413 1.526 . S
C1416 C1417 1.396 . S
C1416 C1421 1.390 . S
C1417 C1411 1.465 . S
C1417 C1416 1.396 . S
C1417 C1418 1.399 . S
C1418 H1404 0.929 . S
C1418 C1417 1.399 . S
C1418 C1419 1.385 . S
C1419 H1405 0.931 . S
C1419 C1418 1.385 . S
C1419 C1420 1.389 . S
C1420 C1419 1.389 . S
C1420 C1421 1.387 . S
C1421 H1406 0.930 . S
C1421 C1416 1.390 . S
C1421 C1420 1.387 . S
H1422 C1434 0.930 . S
H1423 C1436 0.930 . S
H1424 C1437 0.930 . S
H1425 C1441 0.959 . S
H1426 C1441 0.959 . S
H1427 C1441 0.961 . S
H1428 C1442 1.002 . S
H1429 C1442 0.961 . S
H1430 C1442 0.959 . S
H1431 C1445 0.929 . S
H1432 C1446 0.931 . S
H1433 C1448 0.930 . S
C1434 H1422 0.930 . S
C1434 C1435 1.399 . S
C1434 C1439 1.438 . S
C1435 C1434 1.399 . S
C1435 C1436 1.376 . S
C1436 H1423 0.930 . S
C1436 C1435 1.376 . S
C1436 C1437 1.388 . S
C1437 H1424 0.930 . S
C1437 C1436 1.388 . S
C1437 C1438 1.390 1_565 S
C1438 C1437 1.390 1_545 S
C1438 C1439 1.377 1_545 S
C1438 C1444 1.465 . S
C1439 C1434 1.438 . S
C1439 C1438 1.377 1_565 S
C1439 C1440 1.489 1_565 S
C1440 C1439 1.489 1_545 S
C1440 C1441 1.502 . S
C1440 C1442 1.561 . S
C1440 C1443 1.526 . S
C1441 H1425 0.959 . S
C1441 H1426 0.959 . S
C1441 H1427 0.961 . S
C1441 C1440 1.502 . S
C1442 H1428 1.002 . S
C1442 H1429 0.961 . S
C1442 H1430 0.959 . S
C1442 C1440 1.561 . S
C1443 C1440 1.526 . S
C1443 C1444 1.396 . S
C1443 C1448 1.390 . S
C1444 C1438 1.465 . S
C1444 C1443 1.396 . S
C1444 C1445 1.399 . S
C1445 H1431 0.929 . S
C1445 C1444 1.399 . S
C1445 C1446 1.385 . S
C1446 H1432 0.931 . S
C1446 C1445 1.385 . S
C1446 C1447 1.389 . S
C1447 C1446 1.389 . S
C1447 C1448 1.387 . S
C1448 H1433 0.930 . S
C1448 C1443 1.390 . S
C1448 C1447 1.387 . S
H1449 C1461 0.930 . S
H1450 C1463 0.930 . S
H1451 C1464 0.930 . S
H1452 C1468 0.959 . S
H1453 C1468 0.959 . S
H1454 C1468 0.961 . S
H1455 C1469 0.960 . S
H1456 C1469 0.961 . S
H1457 C1469 0.959 . S
H1458 C1472 0.929 . S
H1459 C1473 0.931 . S
H1460 C1475 0.930 . S
C1461 H1449 0.930 . S
C1461 C1462 1.399 . S
C1461 C1466 1.399 . S
C1462 C1461 1.399 . S
C1462 C1463 1.376 . S
C1463 H1450 0.930 . S
C1463 C1462 1.376 . S
C1463 C1464 1.388 . S
C1464 H1451 0.930 . S
C1464 C1463 1.388 . S
C1464 C1465 1.390 . S
C1465 C1464 1.390 . S
C1465 C1466 1.394 . S
C1465 C1471 1.465 . S
C1466 C1461 1.399 . S
C1466 C1465 1.394 . S
C1466 C1467 1.516 . S
C1467 C1466 1.516 . S
C1467 C1468 1.502 . S
C1467 C1469 1.561 . S
C1467 C1470 1.526 . S
C1468 H1452 0.959 . S
C1468 H1453 0.959 . S
C1468 H1454 0.961 . S
C1468 C1467 1.502 . S
C1469 H1455 0.960 . S
C1469 H1456 0.961 . S
C1469 H1457 0.959 . S
C1469 C1467 1.561 . S
C1470 C1467 1.526 . S
C1470 C1471 1.396 . S
C1470 C1475 1.390 . S
C1471 C1465 1.465 . S
C1471 C1470 1.396 . S
C1471 C1472 1.399 . S
C1472 H1458 0.929 . S
C1472 C1471 1.399 . S
C1472 C1473 1.385 . S
C1473 H1459 0.931 . S
C1473 C1472 1.385 . S
C1473 C1474 1.389 . S
C1474 C1473 1.389 . S
C1474 C1475 1.387 . S
C1475 H1460 0.930 . S
C1475 C1470 1.390 . S
C1475 C1474 1.387 . S
H1476 C1488 0.930 . S
H1477 C1490 0.930 . S
H1478 C1491 0.930 . S
H1479 C1495 0.959 . S
H1480 C1495 0.959 . S
H1481 C1495 0.961 . S
H1482 C1496 0.960 . S
H1483 C1496 0.961 . S
H1484 C1496 0.959 . S
H1485 C1499 0.929 . S
H1486 C1500 0.931 . S
H1487 C1502 0.930 . S
C1488 H1476 0.930 . S
C1488 C1489 1.399 . S
C1488 C1493 1.399 . S
C1489 C1488 1.399 . S
C1489 C1490 1.376 . S
C1490 H1477 0.930 . S
C1490 C1489 1.376 . S
C1490 C1491 1.388 . S
C1491 H1478 0.930 . S
C1491 C1490 1.388 . S
C1491 C1492 1.390 . S
C1492 C1491 1.390 . S
C1492 C1493 1.394 . S
C1492 C1498 1.465 . S
C1493 C1488 1.399 . S
C1493 C1492 1.394 . S
C1493 C1494 1.516 . S
C1494 C1493 1.516 . S
C1494 C1495 1.502 . S
C1494 C1496 1.561 . S
C1494 C1497 1.526 . S
C1495 H1479 0.959 . S
C1495 H1480 0.959 . S
C1495 H1481 0.961 . S
C1495 C1494 1.502 . S
C1496 H1482 0.960 . S
C1496 H1483 0.961 . S
C1496 H1484 0.959 . S
C1496 C1494 1.561 . S
C1497 C1494 1.526 . S
C1497 C1498 1.396 . S
C1497 C1502 1.390 . S
C1498 C1492 1.465 . S
C1498 C1497 1.396 . S
C1498 C1499 1.399 . S
C1499 H1485 0.929 . S
C1499 C1498 1.399 . S
C1499 C1500 1.385 . S
C1500 H1486 0.931 . S
C1500 C1499 1.385 . S
C1500 C1501 1.389 . S
C1501 C1500 1.389 . S
C1501 C1502 1.387 . S
C1502 H1487 0.930 . S
C1502 C1497 1.390 . S
C1502 C1501 1.387 . S
H1503 C1515 0.930 . S
H1504 C1517 0.930 . S
H1505 C1518 0.930 . S
H1506 C1522 0.959 . S
H1507 C1522 0.959 . S
H1508 C1522 0.961 . S
H1509 C1523 0.960 . S
H1510 C1523 0.961 . S
H1511 C1523 0.959 . S
H1512 C1526 0.929 . S
H1513 C1527 0.931 . S
H1514 C1529 0.930 . S
C1515 H1503 0.930 . S
C1515 C1516 1.399 . S
C1515 C1520 1.399 . S
C1516 C1515 1.399 . S
C1516 C1517 1.376 . S
C1517 H1504 0.930 . S
C1517 C1516 1.376 . S
C1517 C1518 1.388 . S
C1518 H1505 0.930 . S
C1518 C1517 1.388 . S
C1518 C1519 1.390 . S
C1519 C1518 1.390 . S
C1519 C1520 1.394 . S
C1519 C1525 1.465 . S
C1520 C1515 1.399 . S
C1520 C1519 1.394 . S
C1520 C1521 1.516 . S
C1521 C1520 1.516 . S
C1521 C1522 1.502 . S
C1521 C1523 1.561 . S
C1521 C1524 1.526 . S
C1522 H1506 0.959 . S
C1522 H1507 0.959 . S
C1522 H1508 0.961 . S
C1522 C1521 1.502 . S
C1523 H1509 0.960 . S
C1523 H1510 0.961 . S
C1523 H1511 0.959 . S
C1523 C1521 1.561 . S
C1524 C1521 1.526 . S
C1524 C1525 1.396 . S
C1524 C1529 1.390 . S
C1525 C1519 1.465 . S
C1525 C1524 1.396 . S
C1525 C1526 1.399 . S
C1526 H1512 0.929 . S
C1526 C1525 1.399 . S
C1526 C1527 1.385 . S
C1527 H1513 0.931 . S
C1527 C1526 1.385 . S
C1527 C1528 1.389 . S
C1528 C1527 1.389 . S
C1528 C1529 1.387 . S
C1529 H1514 0.930 . S
C1529 C1524 1.390 . S
C1529 C1528 1.387 . S
H1530 C1542 0.930 . S
H1531 C1544 0.930 . S
H1532 C1545 0.930 . S
H1533 C1549 0.959 1_565 S
H1534 C1549 0.959 . S
H1535 C1549 0.961 . S
H1536 C1550 0.960 . S
H1537 C1550 0.961 . S
H1538 C1550 0.972 . S
H1539 C1553 0.929 . S
H1540 C1554 0.931 . S
H1541 C1556 0.930 1_545 S
C1542 H1530 0.930 . S
C1542 C1543 1.399 . S
C1542 C1547 1.399 . S
C1543 C1542 1.399 . S
C1543 C1544 1.376 . S
C1544 H1531 0.930 . S
C1544 C1543 1.376 . S
C1544 C1545 1.388 . S
C1545 H1532 0.930 . S
C1545 C1544 1.388 . S
C1545 C1546 1.390 . S
C1546 C1545 1.390 . S
C1546 C1547 1.394 . S
C1546 C1552 1.465 . S
C1547 C1542 1.399 . S
C1547 C1546 1.394 . S
C1547 C1548 1.516 . S
C1548 C1547 1.516 . S
C1548 C1549 1.502 1_565 S
C1548 C1550 1.561 1_565 S
C1548 C1551 1.526 . S
C1549 H1533 0.959 1_545 S
C1549 H1534 0.959 . S
C1549 H1535 0.961 . S
C1549 C1548 1.502 1_545 S
C1550 H1536 0.960 . S
C1550 H1537 0.961 . S
C1550 H1538 0.972 . S
C1550 C1548 1.561 1_545 S
C1551 C1548 1.526 . S
C1551 C1552 1.396 . S
C1551 C1556 1.390 . S
C1552 C1546 1.465 . S
C1552 C1551 1.396 . S
C1552 C1553 1.399 . S
C1553 H1539 0.929 . S
C1553 C1552 1.399 . S
C1553 C1554 1.385 . S
C1554 H1540 0.931 . S
C1554 C1553 1.385 . S
C1554 C1555 1.389 . S
C1555 C1554 1.389 . S
C1555 C1556 1.387 . S
C1556 H1541 0.930 1_565 S
C1556 C1551 1.390 . S
C1556 C1555 1.387 . S
H1557 C1569 0.930 . S
H1558 C1571 0.930 . S
H1559 C1572 0.930 . S
H1560 C1576 0.961 1_655 S
H1561 C1576 0.959 . S
H1562 C1576 0.961 . S
H1563 C1577 0.960 . S
H1564 C1577 0.961 . S
H1565 C1577 0.959 . S
H1566 C1580 0.929 . S
H1567 C1581 0.931 . S
H1568 C1583 0.930 . S
C1569 H1557 0.930 . S
C1569 C1570 1.399 . S
C1569 C1574 1.399 . S
C1570 C1569 1.399 . S
C1570 C1571 1.376 . S
C1571 H1558 0.930 . S
C1571 C1570 1.376 . S
C1571 C1572 1.388 . S
C1572 H1559 0.930 . S
C1572 C1571 1.388 . S
C1572 C1573 1.390 . S
C1573 C1572 1.390 . S
C1573 C1574 1.394 . S
C1573 C1579 1.465 . S
C1574 C1569 1.399 . S
C1574 C1573 1.394 . S
C1574 C1575 1.516 . S
C1575 C1574 1.516 . S
C1575 C1576 1.502 . S
C1575 C1577 1.561 . S
C1575 C1578 1.526 . S
C1576 H1560 0.961 1_455 S
C1576 H1561 0.959 . S
C1576 H1562 0.961 . S
C1576 C1575 1.502 . S
C1577 H1563 0.960 . S
C1577 H1564 0.961 . S
C1577 H1565 0.959 . S
C1577 C1575 1.561 . S
C1578 C1575 1.526 . S
C1578 C1579 1.396 . S
C1578 C1583 1.390 . S
C1579 C1573 1.465 . S
C1579 C1578 1.396 . S
C1579 C1580 1.399 . S
C1580 H1566 0.929 . S
C1580 C1579 1.399 . S
C1580 C1581 1.385 . S
C1581 H1567 0.931 . S
C1581 C1580 1.385 . S
C1581 C1582 1.389 . S
C1582 C1581 1.389 . S
C1582 C1583 1.387 . S
C1583 H1568 0.930 . S
C1583 C1578 1.390 . S
C1583 C1582 1.387 . S
H1584 C1596 0.930 . S
H1585 C1598 0.930 . S
H1586 C1599 0.930 . S
H1587 C1603 0.959 . S
H1588 C1603 0.959 . S
H1589 C1603 0.961 . S
H1590 C1604 0.960 . S
H1591 C1604 0.961 . S
H1592 C1604 0.959 . S
H1593 C1607 0.929 . S
H1594 C1608 0.931 . S
H1595 C1610 0.930 . S
C1596 H1584 0.930 . S
C1596 C1597 1.399 . S
C1596 C1601 1.399 . S
C1597 C1596 1.399 . S
C1597 C1598 1.376 . S
C1598 H1585 0.930 . S
C1598 C1597 1.376 . S
C1598 C1599 1.388 . S
C1599 H1586 0.930 . S
C1599 C1598 1.388 . S
C1599 C1600 1.390 . S
C1600 C1599 1.390 . S
C1600 C1601 1.394 . S
C1600 C1606 1.465 . S
C1601 C1596 1.399 . S
C1601 C1600 1.394 . S
C1601 C1602 1.516 . S
C1602 C1601 1.516 . S
C1602 C1603 1.502 . S
C1602 C1604 1.561 . S
C1602 C1605 1.526 . S
C1603 H1587 0.959 . S
C1603 H1588 0.959 . S
C1603 H1589 0.961 . S
C1603 C1602 1.502 . S
C1604 H1590 0.960 . S
C1604 H1591 0.961 . S
C1604 H1592 0.959 . S
C1604 C1602 1.561 . S
C1605 C1602 1.526 . S
C1605 C1606 1.396 . S
C1605 C1610 1.390 . S
C1606 C1600 1.465 . S
C1606 C1605 1.396 . S
C1606 C1607 1.399 . S
C1607 H1593 0.929 . S
C1607 C1606 1.399 . S
C1607 C1608 1.385 . S
C1608 H1594 0.931 . S
C1608 C1607 1.385 . S
C1608 C1609 1.389 . S
C1609 C1608 1.389 . S
C1609 C1610 1.387 . S
C1610 H1595 0.930 . S
C1610 C1605 1.390 . S
C1610 C1609 1.387 . S
H1611 C1623 0.930 . S
H1612 C1625 0.930 . S
H1613 C1626 0.905 1_455 S
H1614 C1630 0.959 . S
H1615 C1630 0.959 . S
H1616 C1630 0.961 . S
H1617 C1631 0.960 . S
H1618 C1631 0.961 . S
H1619 C1631 0.959 . S
H1620 C1634 0.929 1_455 S
H1621 C1635 0.931 . S
H1622 C1637 0.930 . S
C1623 H1611 0.930 . S
C1623 C1624 1.399 . S
C1623 C1628 1.399 . S
C1624 C1623 1.399 . S
C1624 C1625 1.376 . S
C1625 H1612 0.930 . S
C1625 C1624 1.376 . S
C1625 C1626 1.388 . S
C1626 H1613 0.905 1_655 S
C1626 C1625 1.388 . S
C1626 C1627 1.390 . S
C1627 C1626 1.390 . S
C1627 C1628 1.394 . S
C1627 C1633 1.465 . S
C1628 C1623 1.399 . S
C1628 C1627 1.394 . S
C1628 C1629 1.516 . S
C1629 C1628 1.516 . S
C1629 C1630 1.502 . S
C1629 C1631 1.561 . S
C1629 C1632 1.526 . S
C1630 H1614 0.959 . S
C1630 H1615 0.959 . S
C1630 H1616 0.961 . S
C1630 C1629 1.502 . S
C1631 H1617 0.960 . S
C1631 H1618 0.961 . S
C1631 H1619 0.959 . S
C1631 C1629 1.561 . S
C1632 C1629 1.526 . S
C1632 C1633 1.396 . S
C1632 C1637 1.390 . S
C1633 C1627 1.465 . S
C1633 C1632 1.396 . S
C1633 C1634 1.399 . S
C1634 H1620 0.929 1_655 S
C1634 C1633 1.399 . S
C1634 C1635 1.385 . S
C1635 H1621 0.931 . S
C1635 C1634 1.385 . S
C1635 C1636 1.389 . S
C1636 C1635 1.389 . S
C1636 C1637 1.387 . S
C1637 H1622 0.930 . S
C1637 C1632 1.390 . S
C1637 C1636 1.387 . S
H1638 C1650 0.930 . S
H1639 C1652 0.930 . S
H1640 C1653 0.930 . S
H1641 C1657 0.959 . S
H1642 C1657 0.959 . S
H1643 C1657 0.961 . S
H1644 C1658 0.960 . S
H1645 C1658 0.961 . S
H1646 C1658 0.959 . S
H1647 C1661 0.929 . S
H1648 C1662 0.931 . S
H1649 C1664 0.930 . S
C1650 H1638 0.930 . S
C1650 C1651 1.399 . S
C1650 C1655 1.399 . S
C1651 C1650 1.399 . S
C1651 C1652 1.376 . S
C1652 H1639 0.930 . S
C1652 C1651 1.376 . S
C1652 C1653 1.388 . S
C1653 H1640 0.930 . S
C1653 C1652 1.388 . S
C1653 C1654 1.390 . S
C1654 C1653 1.390 . S
C1654 C1655 1.394 . S
C1654 C1660 1.465 . S
C1655 C1650 1.399 . S
C1655 C1654 1.394 . S
C1655 C1656 1.516 . S
C1656 C1655 1.516 . S
C1656 C1657 1.502 . S
C1656 C1658 1.561 . S
C1656 C1659 1.526 . S
C1657 H1641 0.959 . S
C1657 H1642 0.959 . S
C1657 H1643 0.961 . S
C1657 C1656 1.502 . S
C1658 H1644 0.960 . S
C1658 H1645 0.961 . S
C1658 H1646 0.959 . S
C1658 C1656 1.561 . S
C1659 C1656 1.526 . S
C1659 C1660 1.396 . S
C1659 C1664 1.390 . S
C1660 C1654 1.465 . S
C1660 C1659 1.396 . S
C1660 C1661 1.399 . S
C1661 H1647 0.929 . S
C1661 C1660 1.399 . S
C1661 C1662 1.385 . S
C1662 H1648 0.931 . S
C1662 C1661 1.385 . S
C1662 C1663 1.389 . S
C1663 C1662 1.389 . S
C1663 C1664 1.387 . S
C1664 H1649 0.930 . S
C1664 C1659 1.390 . S
C1664 C1663 1.387 . S
H1665 C1677 0.930 . S
H1666 C1679 0.930 . S
H1667 C1680 0.930 . S
H1668 C1684 0.959 . S
H1669 C1684 0.959 . S
H1670 C1684 0.961 . S
H1671 C1685 0.960 . S
H1672 C1685 0.961 . S
H1673 C1685 0.959 . S
H1674 C1688 0.929 . S
H1675 C1689 0.931 . S
H1676 C1691 0.930 . S
C1677 H1665 0.930 . S
C1677 C1678 1.399 . S
C1677 C1682 1.399 . S
C1678 C1677 1.399 . S
C1678 C1679 1.376 . S
C1679 H1666 0.930 . S
C1679 C1678 1.376 . S
C1679 C1680 1.388 . S
C1680 H1667 0.930 . S
C1680 C1679 1.388 . S
C1680 C1681 1.390 . S
C1681 C1680 1.390 . S
C1681 C1682 1.394 . S
C1681 C1687 1.465 . S
C1682 C1677 1.399 . S
C1682 C1681 1.394 . S
C1682 C1683 1.516 . S
C1683 C1682 1.516 . S
C1683 C1684 1.502 . S
C1683 C1685 1.561 1_545 S
C1683 C1686 1.526 . S
C1684 H1668 0.959 . S
C1684 H1669 0.959 . S
C1684 H1670 0.961 . S
C1684 C1683 1.502 . S
C1685 H1671 0.960 . S
C1685 H1672 0.961 . S
C1685 H1673 0.959 . S
C1685 C1683 1.561 1_565 S
C1686 C1683 1.526 . S
C1686 C1687 1.396 . S
C1686 C1691 1.390 . S
C1687 C1681 1.465 . S
C1687 C1686 1.396 . S
C1687 C1688 1.399 . S
C1688 H1674 0.929 . S
C1688 C1687 1.399 . S
C1688 C1689 1.385 . S
C1689 H1675 0.931 . S
C1689 C1688 1.385 . S
C1689 C1690 1.389 . S
C1690 C1689 1.389 . S
C1690 C1691 1.387 . S
C1691 H1676 0.930 . S
C1691 C1686 1.390 . S
C1691 C1690 1.387 . S
H1692 C1704 0.930 . S
H1693 C1706 0.930 . S
H1694 C1707 0.930 . S
H1695 C1711 0.959 . S
H1696 C1711 0.959 . S
H1697 C1711 0.961 . S
H1698 C1712 0.960 . S
H1699 C1712 0.961 . S
H1700 C1712 0.959 . S
H1701 C1715 0.929 . S
H1702 C1716 0.931 . S
H1703 C1718 0.930 . S
C1704 H1692 0.930 . S
C1704 C1705 1.399 . S
C1704 C1709 1.399 . S
C1705 C1704 1.399 . S
C1705 C1706 1.376 . S
C1706 H1693 0.930 . S
C1706 C1705 1.376 . S
C1706 C1707 1.388 . S
C1707 H1694 0.930 . S
C1707 C1706 1.388 . S
C1707 C1708 1.390 . S
C1708 C1707 1.390 . S
C1708 C1709 1.394 . S
C1708 C1714 1.465 . S
C1709 C1704 1.399 . S
C1709 C1708 1.394 . S
C1709 C1710 1.516 . S
C1710 C1709 1.516 . S
C1710 C1711 1.502 . S
C1710 C1712 1.561 . S
C1710 C1713 1.526 . S
C1711 H1695 0.959 . S
C1711 H1696 0.959 . S
C1711 H1697 0.961 . S
C1711 C1710 1.502 . S
C1712 H1698 0.960 . S
C1712 H1699 0.961 . S
C1712 H1700 0.959 . S
C1712 C1710 1.561 . S
C1713 C1710 1.526 . S
C1713 C1714 1.396 . S
C1713 C1718 1.390 . S
C1714 C1708 1.465 . S
C1714 C1713 1.396 . S
C1714 C1715 1.399 . S
C1715 H1701 0.929 . S
C1715 C1714 1.399 . S
C1715 C1716 1.385 . S
C1716 H1702 0.931 . S
C1716 C1715 1.385 . S
C1716 C1717 1.389 . S
C1717 C1716 1.389 . S
C1717 C1718 1.387 . S
C1718 H1703 0.930 . S
C1718 C1713 1.390 . S
C1718 C1717 1.387 . S
H1719 C1731 0.930 . S
H1720 C1733 0.930 . S
H1721 C1734 0.930 . S
H1722 C1738 0.959 . S
H1723 C1738 0.959 . S
H1724 C1738 0.961 . S
H1725 C1739 0.960 . S
H1726 C1739 0.961 . S
H1727 C1739 0.959 . S
H1728 C1742 0.929 . S
H1729 C1743 0.931 . S
H1730 C1745 0.930 . S
C1731 H1719 0.930 . S
C1731 C1732 1.399 . S
C1731 C1736 1.399 . S
C1732 C1731 1.399 . S
C1732 C1733 1.376 . S
C1733 H1720 0.930 . S
C1733 C1732 1.376 . S
C1733 C1734 1.388 . S
C1734 H1721 0.930 . S
C1734 C1733 1.388 . S
C1734 C1735 1.390 . S
C1735 C1734 1.390 . S
C1735 C1736 1.394 . S
C1735 C1741 1.465 . S
C1736 C1731 1.399 . S
C1736 C1735 1.394 . S
C1736 C1737 1.516 . S
C1737 C1736 1.516 . S
C1737 C1738 1.502 . S
C1737 C1739 1.561 . S
C1737 C1740 1.526 . S
C1738 H1722 0.959 . S
C1738 H1723 0.959 . S
C1738 H1724 0.961 . S
C1738 C1737 1.502 . S
C1739 H1725 0.960 . S
C1739 H1726 0.961 . S
C1739 H1727 0.959 . S
C1739 C1737 1.561 . S
C1740 C1737 1.526 . S
C1740 C1741 1.396 . S
C1740 C1745 1.390 . S
C1741 C1735 1.465 . S
C1741 C1740 1.396 . S
C1741 C1742 1.399 . S
C1742 H1728 0.929 . S
C1742 C1741 1.399 . S
C1742 C1743 1.385 . S
C1743 H1729 0.931 . S
C1743 C1742 1.385 . S
C1743 C1744 1.389 . S
C1744 C1743 1.389 . S
C1744 C1745 1.387 . S
C1745 H1730 0.930 . S
C1745 C1740 1.390 . S
C1745 C1744 1.387 . S
H1746 C1758 0.930 . S
H1747 C1760 0.930 . S
H1748 C1761 0.930 . S
H1749 C1765 0.959 . S
H1750 C1765 0.959 . S
H1751 C1765 0.961 . S
H1752 C1766 0.960 . S
H1753 C1766 0.961 . S
H1754 C1766 0.959 . S
H1755 C1769 0.929 . S
H1756 C1770 0.931 . S
H1757 C1772 0.930 . S
C1758 H1746 0.930 . S
C1758 C1759 1.399 . S
C1758 C1763 1.399 . S
C1759 C1758 1.399 . S
C1759 C1760 1.376 . S
C1760 H1747 0.930 . S
C1760 C1759 1.376 . S
C1760 C1761 1.388 . S
C1761 H1748 0.930 . S
C1761 C1760 1.388 . S
C1761 C1762 1.390 . S
C1762 C1761 1.390 . S
C1762 C1763 1.394 . S
C1762 C1768 1.465 . S
C1763 C1758 1.399 . S
C1763 C1762 1.394 . S
C1763 C1764 1.516 . S
C1764 C1763 1.516 . S
C1764 C1765 1.502 . S
C1764 C1766 1.561 . S
C1764 C1767 1.526 . S
C1765 H1749 0.959 . S
C1765 H1750 0.959 . S
C1765 H1751 0.961 . S
C1765 C1764 1.502 . S
C1766 H1752 0.960 . S
C1766 H1753 0.961 . S
C1766 H1754 0.959 . S
C1766 C1764 1.561 . S
C1767 C1764 1.526 . S
C1767 C1768 1.396 . S
C1767 C1772 1.390 . S
C1768 C1762 1.465 . S
C1768 C1767 1.396 . S
C1768 C1769 1.399 . S
C1769 H1755 0.929 . S
C1769 C1768 1.399 . S
C1769 C1770 1.385 . S
C1770 H1756 0.931 . S
C1770 C1769 1.385 . S
C1770 C1771 1.389 . S
C1771 C1770 1.389 . S
C1771 C1772 1.387 . S
C1772 H1757 0.930 . S
C1772 C1767 1.390 . S
C1772 C1771 1.387 . S
H1773 C1785 0.930 . S
H1774 C1787 0.930 . S
H1775 C1788 0.930 . S
H1776 C1792 0.959 . S
H1777 C1792 0.959 . S
H1778 C1792 0.961 . S
H1779 C1793 0.960 . S
H1780 C1793 0.961 . S
H1781 C1793 0.959 . S
H1782 C1796 0.929 . S
H1783 C1797 0.931 . S
H1784 C1799 0.930 . S
C1785 H1773 0.930 . S
C1785 C1786 1.399 . S
C1785 C1790 1.399 . S
C1786 C1785 1.399 . S
C1786 C1787 1.376 . S
C1787 H1774 0.930 . S
C1787 C1786 1.376 . S
C1787 C1788 1.388 . S
C1788 H1775 0.930 . S
C1788 C1787 1.388 . S
C1788 C1789 1.390 . S
C1789 C1788 1.390 . S
C1789 C1790 1.394 . S
C1789 C1795 1.465 . S
C1790 C1785 1.399 . S
C1790 C1789 1.394 . S
C1790 C1791 1.516 . S
C1791 C1790 1.516 . S
C1791 C1792 1.502 . S
C1791 C1793 1.561 . S
C1791 C1794 1.526 . S
C1792 H1776 0.959 . S
C1792 H1777 0.959 . S
C1792 H1778 0.961 . S
C1792 C1791 1.502 . S
C1793 H1779 0.960 . S
C1793 H1780 0.961 . S
C1793 H1781 0.959 . S
C1793 C1791 1.561 . S
C1794 C1791 1.526 . S
C1794 C1795 1.396 . S
C1794 C1799 1.390 . S
C1795 C1789 1.465 . S
C1795 C1794 1.396 . S
C1795 C1796 1.399 . S
C1796 H1782 0.929 . S
C1796 C1795 1.399 . S
C1796 C1797 1.385 . S
C1797 H1783 0.931 . S
C1797 C1796 1.385 . S
C1797 C1798 1.389 . S
C1798 C1797 1.389 . S
C1798 C1799 1.387 . S
C1799 H1784 0.930 . S
C1799 C1794 1.390 . S
C1799 C1798 1.387 . S
H1800 C1812 0.930 . S
H1801 C1814 0.930 . S
H1802 C1815 0.930 . S
H1803 C1819 0.959 . S
H1804 C1819 0.959 . S
H1805 C1819 0.961 . S
H1806 C1820 0.960 . S
H1807 C1820 0.961 . S
H1808 C1820 0.959 . S
H1809 C1823 0.929 . S
H1810 C1824 0.931 . S
H1811 C1826 0.930 . S
C1812 H1800 0.930 . S
C1812 C1813 1.399 . S
C1812 C1817 1.399 . S
C1813 C1812 1.399 . S
C1813 C1814 1.376 . S
C1814 H1801 0.930 . S
C1814 C1813 1.376 . S
C1814 C1815 1.388 . S
C1815 H1802 0.930 . S
C1815 C1814 1.388 . S
C1815 C1816 1.390 . S
C1816 C1815 1.390 . S
C1816 C1817 1.394 . S
C1816 C1822 1.465 . S
C1817 C1812 1.399 . S
C1817 C1816 1.394 . S
C1817 C1818 1.516 . S
C1818 C1817 1.516 . S
C1818 C1819 1.502 . S
C1818 C1820 1.561 . S
C1818 C1821 1.526 . S
C1819 H1803 0.959 . S
C1819 H1804 0.959 . S
C1819 H1805 0.961 . S
C1819 C1818 1.502 . S
C1820 H1806 0.960 . S
C1820 H1807 0.961 . S
C1820 H1808 0.959 . S
C1820 C1818 1.561 . S
C1821 C1818 1.526 . S
C1821 C1822 1.396 . S
C1821 C1826 1.390 . S
C1822 C1816 1.465 . S
C1822 C1821 1.396 . S
C1822 C1823 1.399 . S
C1823 H1809 0.929 . S
C1823 C1822 1.399 . S
C1823 C1824 1.385 . S
C1824 H1810 0.931 . S
C1824 C1823 1.385 . S
C1824 C1825 1.389 . S
C1825 C1824 1.389 . S
C1825 C1826 1.387 . S
C1826 H1811 0.930 . S
C1826 C1821 1.390 . S
C1826 C1825 1.387 . S
H1827 C1839 0.930 . S
H1828 C1841 0.930 . S
H1829 C1842 0.930 . S
H1830 C1846 0.959 . S
H1831 C1846 0.959 . S
H1832 C1846 0.961 . S
H1833 C1847 0.960 . S
H1834 C1847 0.961 . S
H1835 C1847 0.959 . S
H1836 C1850 0.929 . S
H1837 C1851 0.931 . S
H1838 C1853 0.930 . S
C1839 H1827 0.930 . S
C1839 C1840 1.399 . S
C1839 C1844 1.399 . S
C1840 C1839 1.399 . S
C1840 C1841 1.376 . S
C1841 H1828 0.930 . S
C1841 C1840 1.376 . S
C1841 C1842 1.388 . S
C1842 H1829 0.930 . S
C1842 C1841 1.388 . S
C1842 C1843 1.390 . S
C1843 C1842 1.390 . S
C1843 C1844 1.394 . S
C1843 C1849 1.465 . S
C1844 C1839 1.399 . S
C1844 C1843 1.394 . S
C1844 C1845 1.516 . S
C1845 C1844 1.516 . S
C1845 C1846 1.502 . S
C1845 C1847 1.561 . S
C1845 C1848 1.526 . S
C1846 H1830 0.959 . S
C1846 H1831 0.959 . S
C1846 H1832 0.961 . S
C1846 C1845 1.502 . S
C1847 H1833 0.960 . S
C1847 H1834 0.961 . S
C1847 H1835 0.959 . S
C1847 C1845 1.561 . S
C1848 C1845 1.526 . S
C1848 C1849 1.396 . S
C1848 C1853 1.390 . S
C1849 C1843 1.465 . S
C1849 C1848 1.396 . S
C1849 C1850 1.399 . S
C1850 H1836 0.929 . S
C1850 C1849 1.399 . S
C1850 C1851 1.385 . S
C1851 H1837 0.931 . S
C1851 C1850 1.385 . S
C1851 C1852 1.389 . S
C1852 C1851 1.389 . S
C1852 C1853 1.387 . S
C1853 H1838 0.930 . S
C1853 C1848 1.390 . S
C1853 C1852 1.387 . S
H1854 C1866 0.930 . S
H1855 C1868 0.930 . S
H1856 C1869 0.930 . S
H1857 C1873 0.959 . S
H1858 C1873 0.959 . S
H1859 C1873 0.961 . S
H1860 C1874 0.960 . S
H1861 C1874 0.961 . S
H1862 C1874 0.959 . S
H1863 C1877 0.929 . S
H1864 C1878 0.931 . S
H1865 C1880 0.930 . S
C1866 H1854 0.930 . S
C1866 C1867 1.399 . S
C1866 C1871 1.399 . S
C1867 C1866 1.399 . S
C1867 C1868 1.376 . S
C1868 H1855 0.930 . S
C1868 C1867 1.376 . S
C1868 C1869 1.388 . S
C1869 H1856 0.930 . S
C1869 C1868 1.388 . S
C1869 C1870 1.390 . S
C1870 C1869 1.390 . S
C1870 C1871 1.394 . S
C1870 C1876 1.465 . S
C1871 C1866 1.399 . S
C1871 C1870 1.394 . S
C1871 C1872 1.516 . S
C1872 C1871 1.516 . S
C1872 C1873 1.502 . S
C1872 C1874 1.561 . S
C1872 C1875 1.526 . S
C1873 H1857 0.959 . S
C1873 H1858 0.959 . S
C1873 H1859 0.961 . S
C1873 C1872 1.502 . S
C1874 H1860 0.960 . S
C1874 H1861 0.961 . S
C1874 H1862 0.959 . S
C1874 C1872 1.561 . S
C1875 C1872 1.526 . S
C1875 C1876 1.396 . S
C1875 C1880 1.390 . S
C1876 C1870 1.465 . S
C1876 C1875 1.396 . S
C1876 C1877 1.399 . S
C1877 H1863 0.929 . S
C1877 C1876 1.399 . S
C1877 C1878 1.385 . S
C1878 H1864 0.931 . S
C1878 C1877 1.385 . S
C1878 C1879 1.389 . S
C1879 C1878 1.389 . S
C1879 C1880 1.387 . S
C1880 H1865 0.930 . S
C1880 C1875 1.390 . S
C1880 C1879 1.387 . S
H1881 C1893 0.930 . S
H1882 C1895 0.930 . S
H1883 C1896 0.930 . S
H1884 C1900 0.959 . S
H1885 C1900 0.959 . S
H1886 C1900 0.961 . S
H1887 C1901 0.960 . S
H1888 C1901 0.961 . S
H1889 C1901 0.959 . S
H1890 C1904 0.929 . S
H1891 C1905 0.931 . S
H1892 C1907 0.930 . S
C1893 H1881 0.930 . S
C1893 C1894 1.399 . S
C1893 C1898 1.399 . S
C1894 C1893 1.399 . S
C1894 C1895 1.376 . S
C1895 H1882 0.930 . S
C1895 C1894 1.376 . S
C1895 C1896 1.388 . S
C1896 H1883 0.930 . S
C1896 C1895 1.388 . S
C1896 C1897 1.390 . S
C1897 C1896 1.390 . S
C1897 C1898 1.394 . S
C1897 C1903 1.465 . S
C1898 C1893 1.399 . S
C1898 C1897 1.394 . S
C1898 C1899 1.516 . S
C1899 C1898 1.516 . S
C1899 C1900 1.502 . S
C1899 C1901 1.561 . S
C1899 C1902 1.526 . S
C1900 H1884 0.959 . S
C1900 H1885 0.959 . S
C1900 H1886 0.961 . S
C1900 C1899 1.502 . S
C1901 H1887 0.960 . S
C1901 H1888 0.961 . S
C1901 H1889 0.959 . S
C1901 C1899 1.561 . S
C1902 C1899 1.526 . S
C1902 C1903 1.396 . S
C1902 C1907 1.390 . S
C1903 C1897 1.465 . S
C1903 C1902 1.396 . S
C1903 C1904 1.399 . S
C1904 H1890 0.929 . S
C1904 C1903 1.399 . S
C1904 C1905 1.385 . S
C1905 H1891 0.931 . S
C1905 C1904 1.385 . S
C1905 C1906 1.389 . S
C1906 C1905 1.389 . S
C1906 C1907 1.387 . S
C1907 H1892 0.930 . S
C1907 C1902 1.390 . S
C1907 C1906 1.387 . S
H1908 C1920 0.930 . S
H1909 C1922 0.930 . S
H1910 C1923 0.930 . S
H1911 C1927 0.959 . S
H1912 C1927 0.959 . S
H1913 C1927 0.961 . S
H1914 C1928 0.960 . S
H1915 C1928 0.961 . S
H1916 C1928 0.959 . S
H1917 C1931 0.929 . S
H1918 C1932 0.931 . S
H1919 C1934 0.930 . S
C1920 H1908 0.930 . S
C1920 C1921 1.399 . S
C1920 C1925 1.399 . S
C1921 C1920 1.399 . S
C1921 C1922 1.376 . S
C1922 H1909 0.930 . S
C1922 C1921 1.376 . S
C1922 C1923 1.388 . S
C1923 H1910 0.930 . S
C1923 C1922 1.388 . S
C1923 C1924 1.390 . S
C1924 C1923 1.390 . S
C1924 C1925 1.394 . S
C1924 C1930 1.465 . S
C1925 C1920 1.399 . S
C1925 C1924 1.394 . S
C1925 C1926 1.516 . S
C1926 C1925 1.516 . S
C1926 C1927 1.502 . S
C1926 C1928 1.561 . S
C1926 C1929 1.526 . S
C1927 H1911 0.959 . S
C1927 H1912 0.959 . S
C1927 H1913 0.961 . S
C1927 C1926 1.502 . S
C1928 H1914 0.960 . S
C1928 H1915 0.961 . S
C1928 H1916 0.959 . S
C1928 C1926 1.561 . S
C1929 C1926 1.526 . S
C1929 C1930 1.396 . S
C1929 C1934 1.390 . S
C1930 C1924 1.465 . S
C1930 C1929 1.396 . S
C1930 C1931 1.399 . S
C1931 H1917 0.929 . S
C1931 C1930 1.399 . S
C1931 C1932 1.385 . S
C1932 H1918 0.931 . S
C1932 C1931 1.385 . S
C1932 C1933 1.389 . S
C1933 C1932 1.389 . S
C1933 C1934 1.387 . S
C1934 H1919 0.930 . S
C1934 C1929 1.390 . S
C1934 C1933 1.387 . S
H1935 C1947 0.930 . S
H1936 C1949 0.930 . S
H1937 C1950 0.930 . S
H1938 C1954 0.959 . S
H1939 C1954 0.959 . S
H1940 C1954 0.961 . S
H1941 C1955 0.960 . S
H1942 C1955 0.961 . S
H1943 C1955 0.959 . S
H1944 C1958 0.929 . S
H1945 C1959 0.931 . S
H1946 C1961 0.930 . S
C1947 H1935 0.930 . S
C1947 C1948 1.399 . S
C1947 C1952 1.399 . S
C1948 C1947 1.399 . S
C1948 C1949 1.376 . S
C1949 H1936 0.930 . S
C1949 C1948 1.376 . S
C1949 C1950 1.388 . S
C1950 H1937 0.930 . S
C1950 C1949 1.388 . S
C1950 C1951 1.390 . S
C1951 C1950 1.390 . S
C1951 C1952 1.394 . S
C1951 C1957 1.465 . S
C1952 C1947 1.399 . S
C1952 C1951 1.394 . S
C1952 C1953 1.516 . S
C1953 C1952 1.516 . S
C1953 C1954 1.502 . S
C1953 C1955 1.561 . S
C1953 C1956 1.526 . S
C1954 H1938 0.959 . S
C1954 H1939 0.959 . S
C1954 H1940 0.961 . S
C1954 C1953 1.502 . S
C1955 H1941 0.960 . S
C1955 H1942 0.961 . S
C1955 H1943 0.959 . S
C1955 C1953 1.561 . S
C1956 C1953 1.526 . S
C1956 C1957 1.396 . S
C1956 C1961 1.390 . S
C1957 C1951 1.465 . S
C1957 C1956 1.396 . S
C1957 C1958 1.399 . S
C1958 H1944 0.929 . S
C1958 C1957 1.399 . S
C1958 C1959 1.385 . S
C1959 H1945 0.931 . S
C1959 C1958 1.385 . S
C1959 C1960 1.389 . S
C1960 C1959 1.389 . S
C1960 C1961 1.387 . S
C1961 H1946 0.930 . S
C1961 C1956 1.390 . S
C1961 C1960 1.387 . S
H1962 C1974 0.930 . S
H1963 C1976 0.930 . S
H1964 C1977 0.930 . S
H1965 C1981 0.959 . S
H1966 C1981 0.959 . S
H1967 C1981 0.961 . S
H1968 C1982 0.960 . S
H1969 C1982 0.961 . S
H1970 C1982 0.959 . S
H1971 C1985 0.929 . S
H1972 C1986 0.931 . S
H1973 C1988 0.930 . S
C1974 H1962 0.930 . S
C1974 C1975 1.399 . S
C1974 C1979 1.399 . S
C1975 C1974 1.399 . S
C1975 C1976 1.376 . S
C1976 H1963 0.930 . S
C1976 C1975 1.376 . S
C1976 C1977 1.388 . S
C1977 H1964 0.930 . S
C1977 C1976 1.388 . S
C1977 C1978 1.390 . S
C1978 C1977 1.390 . S
C1978 C1979 1.394 . S
C1978 C1984 1.465 . S
C1979 C1974 1.399 . S
C1979 C1978 1.394 . S
C1979 C1980 1.516 . S
C1980 C1979 1.516 . S
C1980 C1981 1.502 . S
C1980 C1982 1.561 . S
C1980 C1983 1.526 . S
C1981 H1965 0.959 . S
C1981 H1966 0.959 . S
C1981 H1967 0.961 . S
C1981 C1980 1.502 . S
C1982 H1968 0.960 . S
C1982 H1969 0.961 . S
C1982 H1970 0.959 . S
C1982 C1980 1.561 . S
C1983 C1980 1.526 . S
C1983 C1984 1.396 . S
C1983 C1988 1.390 . S
C1984 C1978 1.465 . S
C1984 C1983 1.396 . S
C1984 C1985 1.399 . S
C1985 H1971 0.929 . S
C1985 C1984 1.399 . S
C1985 C1986 1.385 . S
C1986 H1972 0.931 . S
C1986 C1985 1.385 . S
C1986 C1987 1.389 . S
C1987 C1986 1.389 . S
C1987 C1988 1.387 . S
C1988 H1973 0.930 . S
C1988 C1983 1.390 . S
C1988 C1987 1.387 . S
H1989 C2001 0.930 . S
H1990 C2003 0.930 . S
H1991 C2004 0.930 . S
H1992 C2008 0.959 . S
H1993 C2008 0.959 . S
H1994 C2008 0.961 . S
H1995 C2009 0.960 . S
H1996 C2009 0.961 . S
H1997 C2009 0.959 . S
H1998 C2012 0.929 . S
H1999 C2013 0.931 . S
H2000 C2015 0.930 . S
C2001 H1989 0.930 . S
C2001 C2002 1.399 . S
C2001 C2006 1.399 . S
C2002 C2001 1.399 . S
C2002 C2003 1.376 . S
C2003 H1990 0.930 . S
C2003 C2002 1.376 . S
C2003 C2004 1.388 . S
C2004 H1991 0.930 . S
C2004 C2003 1.388 . S
C2004 C2005 1.390 . S
C2005 C2004 1.390 . S
C2005 C2006 1.394 . S
C2005 C2011 1.465 . S
C2006 C2001 1.399 . S
C2006 C2005 1.394 . S
C2006 C2007 1.516 . S
C2007 C2006 1.516 . S
C2007 C2008 1.502 . S
C2007 C2009 1.561 . S
C2007 C2010 1.526 . S
C2008 H1992 0.959 . S
C2008 H1993 0.959 . S
C2008 H1994 0.961 . S
C2008 C2007 1.502 . S
C2009 H1995 0.960 . S
C2009 H1996 0.961 . S
C2009 H1997 0.959 . S
C2009 C2007 1.561 . S
C2010 C2007 1.526 . S
C2010 C2011 1.396 . S
C2010 C2015 1.390 . S
C2011 C2005 1.465 . S
C2011 C2010 1.396 . S
C2011 C2012 1.399 . S
C2012 H1998 0.929 . S
C2012 C2011 1.399 . S
C2012 C2013 1.385 . S
C2013 H1999 0.931 . S
C2013 C2012 1.385 . S
C2013 C2014 1.389 . S
C2014 C2013 1.389 . S
C2014 C2015 1.387 . S
C2015 H2000 0.930 . S
C2015 C2010 1.390 . S
C2015 C2014 1.387 . S
C571 C151 1.317 . S
C583 C210 1.355 . S
C598 C159 1.864 . S
C610 C250 2.067 . S
C625 C137 1.505 . S
C637 C280 1.660 . S
C652 C126 1.336 . S
C664 C240 1.500 1_556 S
C691 C290 1.844 . S
C679 C104 1.662 . S
C706 C118 1.097 . S
C718 C200 1.152 . S
C745 C229 1.623 . S
C733 C129 1.635 . S
C772 C269 1.785 . S
C760 C107 1.779 . S
C787 C115 1.378 . S
C799 C295 1.615 1_556 S
C814 C148 1.094 . S
C826 C255 1.481 . S
C841 C162 1.556 . S
C853 C309 1.562 . S
C880 C215 1.434 . S
C868 C140 1.406 . S
C907 C330 1.346 . S
C895 C19 1.318 . S
C922 C27 1.950 . S
C934 C370 2.067 . S
C949 C5 1.552 . S
C961 C400 1.614 . S
C976 C192 1.436 . S
C988 C360 1.460 . S
C1003 C170 1.704 . S
C1015 C410 1.843 . S
C1030 C184 1.092 . S
C1042 C320 1.085 . S
C1057 C195 1.637 . S
C1069 C349 1.616 . S
C1084 C173 1.788 . S
C1096 C389 1.772 . S
C1123 C415 1.617 . S
C1111 C181 1.378 . S
C1138 C16 1.272 . S
C1150 C375 1.426 . S
C1177 C429 1.562 . S
C1165 C30 1.557 . S
C1192 C8 1.428 . S
C1204 C335 1.400 . S
C1231 C450 1.342 . S
C1219 C85 1.351 . S
C1246 C93 1.905 . S
C1258 C490 2.076 . S
C1285 C520 1.610 . S
C1273 C71 1.594 . S
C1312 C480 1.449 . S
C1300 C60 1.436 . S
C1339 C530 1.845 . S
C1327 C38 1.664 . S
C1354 C52 1.099 . S
C1366 C440 1.085 . S
C1381 C63 1.634 . S
C1393 C469 1.628 . S
C1408 C41 1.787 . S
C1420 C509 1.792 . S
C1447 C535 1.617 . S
C1435 C49 1.378 . S
C1462 C82 1.094 . S
C1474 C495 1.479 . S
C1489 C96 1.555 . S
C1501 C549 1.559 . S
C1516 C74 1.423 . S
C1528 C455 1.403 . S
C1543 C172 1.488 . S
C1555 C227 1.509 . S
C1582 C267 1.660 . S
C1570 C183 1.494 . S
C1597 C194 1.509 . S
C1609 C286 1.525 . S
C1624 C73 1.792 . S
C1636 C246 1.781 . S
C1651 C84 1.327 . S
C1663 C307 1.320 . S
C1690 C206 1.472 . S
C1678 C95 1.381 . S
C1705 C40 1.518 . S
C1717 C347 1.533 . S
C1732 C51 1.546 . S
C1744 C387 1.641 . S
C1759 C62 1.509 . S
C1771 C406 1.525 . S
C1786 C139 1.804 . S
C1798 C366 1.809 . S
C1825 C427 1.353 . S
C1813 C150 1.245 . S
C1840 C161 1.389 . S
C1852 C326 1.457 . S
C1867 C106 1.492 . S
C1879 C467 1.517 . S
C1894 C117 1.590 . S
C1906 C507 1.612 . S
C1933 C526 1.550 . S
C1921 C128 1.538 . S
C1948 C7 1.808 . S
C1960 C486 1.805 . S
C1975 C18 1.326 . S
C1987 C547 1.331 . S
C2002 C29 1.418 . S
C2014 C446 1.445 . S
