# Generated by pormake.
# Topology gar, (4,6)-cn, num edge types: 1
# Building blocks:
#     Node 0, Type 0, BuildingBlock: KUFVIS_clean_sbu_0, # of connection points: 4
#     Node 1, Type 0, BuildingBlock: KUFVIS_clean_sbu_0, # of connection points: 4
#     Node 2, Type 0, BuildingBlock: KUFVIS_clean_sbu_0, # of connection points: 4
#     Node 3, Type 0, BuildingBlock: KUFVIS_clean_sbu_0, # of connection points: 4
#     Node 4, Type 0, BuildingBlock: KUFVIS_clean_sbu_0, # of connection points: 4
#     Node 5, Type 0, BuildingBlock: KUFVIS_clean_sbu_0, # of connection points: 4
#     Node 6, Type 0, BuildingBlock: KUFVIS_clean_sbu_0, # of connection points: 4
#     Node 7, Type 0, BuildingBlock: KUFVIS_clean_sbu_0, # of connection points: 4
#     Node 8, Type 0, BuildingBlock: KUFVIS_clean_sbu_0, # of connection points: 4
#     Node 9, Type 0, BuildingBlock: KUFVIS_clean_sbu_0, # of connection points: 4
#     Node 10, Type 0, BuildingBlock: KUFVIS_clean_sbu_0, # of connection points: 4
#     Node 11, Type 0, BuildingBlock: KUFVIS_clean_sbu_0, # of connection points: 4
#     Node 12, Type 0, BuildingBlock: KUFVIS_clean_sbu_0, # of connection points: 4
#     Node 13, Type 0, BuildingBlock: KUFVIS_clean_sbu_0, # of connection points: 4
#     Node 14, Type 0, BuildingBlock: KUFVIS_clean_sbu_0, # of connection points: 4
#     Node 15, Type 0, BuildingBlock: KUFVIS_clean_sbu_0, # of connection points: 4
#     Node 16, Type 0, BuildingBlock: KUFVIS_clean_sbu_0, # of connection points: 4
#     Node 17, Type 0, BuildingBlock: KUFVIS_clean_sbu_0, # of connection points: 4
#     Node 18, Type 0, BuildingBlock: KUFVIS_clean_sbu_0, # of connection points: 4
#     Node 19, Type 0, BuildingBlock: KUFVIS_clean_sbu_0, # of connection points: 4
#     Node 20, Type 0, BuildingBlock: KUFVIS_clean_sbu_0, # of connection points: 4
#     Node 21, Type 0, BuildingBlock: KUFVIS_clean_sbu_0, # of connection points: 4
#     Node 22, Type 0, BuildingBlock: KUFVIS_clean_sbu_0, # of connection points: 4
#     Node 23, Type 0, BuildingBlock: KUFVIS_clean_sbu_0, # of connection points: 4
#     Node 24, Type 1, BuildingBlock: KUMJIN_clean_sbu_1, # of connection points: 6
#     Node 25, Type 1, BuildingBlock: KUMJIN_clean_sbu_1, # of connection points: 6
#     Node 26, Type 1, BuildingBlock: KUMJIN_clean_sbu_1, # of connection points: 6
#     Node 27, Type 1, BuildingBlock: KUMJIN_clean_sbu_1, # of connection points: 6
#     Node 28, Type 1, BuildingBlock: KUMJIN_clean_sbu_1, # of connection points: 6
#     Node 29, Type 1, BuildingBlock: KUMJIN_clean_sbu_1, # of connection points: 6
#     Node 30, Type 1, BuildingBlock: KUMJIN_clean_sbu_1, # of connection points: 6
#     Node 31, Type 1, BuildingBlock: KUMJIN_clean_sbu_1, # of connection points: 6
#     Node 32, Type 1, BuildingBlock: KUMJIN_clean_sbu_1, # of connection points: 6
#     Node 33, Type 1, BuildingBlock: KUMJIN_clean_sbu_1, # of connection points: 6
#     Node 34, Type 1, BuildingBlock: KUMJIN_clean_sbu_1, # of connection points: 6
#     Node 35, Type 1, BuildingBlock: KUMJIN_clean_sbu_1, # of connection points: 6
#     Node 36, Type 1, BuildingBlock: KUMJIN_clean_sbu_1, # of connection points: 6
#     Node 37, Type 1, BuildingBlock: KUMJIN_clean_sbu_1, # of connection points: 6
#     Node 38, Type 1, BuildingBlock: KUMJIN_clean_sbu_1, # of connection points: 6
#     Node 39, Type 1, BuildingBlock: KUMJIN_clean_sbu_1, # of connection points: 6
#     Edge 40, Type (0, 1), BuildingBlock: ZUJKAS_clean_linker_0, # of connection points: 2
#     Edge 41, Type (0, 1), BuildingBlock: ZUJKAS_clean_linker_0, # of connection points: 2
#     Edge 42, Type (0, 1), BuildingBlock: ZUJKAS_clean_linker_0, # of connection points: 2
#     Edge 43, Type (0, 1), BuildingBlock: ZUJKAS_clean_linker_0, # of connection points: 2
#     Edge 44, Type (0, 1), BuildingBlock: ZUJKAS_clean_linker_0, # of connection points: 2
#     Edge 45, Type (0, 1), BuildingBlock: ZUJKAS_clean_linker_0, # of connection points: 2
#     Edge 46, Type (0, 1), BuildingBlock: ZUJKAS_clean_linker_0, # of connection points: 2
#     Edge 47, Type (0, 1), BuildingBlock: ZUJKAS_clean_linker_0, # of connection points: 2
#     Edge 48, Type (0, 1), BuildingBlock: ZUJKAS_clean_linker_0, # of connection points: 2
#     Edge 49, Type (0, 1), BuildingBlock: ZUJKAS_clean_linker_0, # of connection points: 2
#     Edge 50, Type (0, 1), BuildingBlock: ZUJKAS_clean_linker_0, # of connection points: 2
#     Edge 51, Type (0, 1), BuildingBlock: ZUJKAS_clean_linker_0, # of connection points: 2
#     Edge 52, Type (0, 1), BuildingBlock: ZUJKAS_clean_linker_0, # of connection points: 2
#     Edge 53, Type (0, 1), BuildingBlock: ZUJKAS_clean_linker_0, # of connection points: 2
#     Edge 54, Type (0, 1), BuildingBlock: ZUJKAS_clean_linker_0, # of connection points: 2
#     Edge 55, Type (0, 1), BuildingBlock: ZUJKAS_clean_linker_0, # of connection points: 2
#     Edge 56, Type (0, 1), BuildingBlock: ZUJKAS_clean_linker_0, # of connection points: 2
#     Edge 57, Type (0, 1), BuildingBlock: ZUJKAS_clean_linker_0, # of connection points: 2
#     Edge 58, Type (0, 1), BuildingBlock: ZUJKAS_clean_linker_0, # of connection points: 2
#     Edge 59, Type (0, 1), BuildingBlock: ZUJKAS_clean_linker_0, # of connection points: 2
#     Edge 60, Type (0, 1), BuildingBlock: ZUJKAS_clean_linker_0, # of connection points: 2
#     Edge 61, Type (0, 1), BuildingBlock: ZUJKAS_clean_linker_0, # of connection points: 2
#     Edge 62, Type (0, 1), BuildingBlock: ZUJKAS_clean_linker_0, # of connection points: 2
#     Edge 63, Type (0, 1), BuildingBlock: ZUJKAS_clean_linker_0, # of connection points: 2
#     Edge 64, Type (0, 1), BuildingBlock: ZUJKAS_clean_linker_0, # of connection points: 2
#     Edge 65, Type (0, 1), BuildingBlock: ZUJKAS_clean_linker_0, # of connection points: 2
#     Edge 66, Type (0, 1), BuildingBlock: ZUJKAS_clean_linker_0, # of connection points: 2
#     Edge 67, Type (0, 1), BuildingBlock: ZUJKAS_clean_linker_0, # of connection points: 2
#     Edge 68, Type (0, 1), BuildingBlock: ZUJKAS_clean_linker_0, # of connection points: 2
#     Edge 69, Type (0, 1), BuildingBlock: ZUJKAS_clean_linker_0, # of connection points: 2
#     Edge 70, Type (0, 1), BuildingBlock: ZUJKAS_clean_linker_0, # of connection points: 2
#     Edge 71, Type (0, 1), BuildingBlock: ZUJKAS_clean_linker_0, # of connection points: 2
#     Edge 72, Type (0, 1), BuildingBlock: ZUJKAS_clean_linker_0, # of connection points: 2
#     Edge 73, Type (0, 1), BuildingBlock: ZUJKAS_clean_linker_0, # of connection points: 2
#     Edge 74, Type (0, 1), BuildingBlock: ZUJKAS_clean_linker_0, # of connection points: 2
#     Edge 75, Type (0, 1), BuildingBlock: ZUJKAS_clean_linker_0, # of connection points: 2
#     Edge 76, Type (0, 1), BuildingBlock: ZUJKAS_clean_linker_0, # of connection points: 2
#     Edge 77, Type (0, 1), BuildingBlock: ZUJKAS_clean_linker_0, # of connection points: 2
#     Edge 78, Type (0, 1), BuildingBlock: ZUJKAS_clean_linker_0, # of connection points: 2
#     Edge 79, Type (0, 1), BuildingBlock: ZUJKAS_clean_linker_0, # of connection points: 2
#     Edge 80, Type (0, 1), BuildingBlock: ZUJKAS_clean_linker_0, # of connection points: 2
#     Edge 81, Type (0, 1), BuildingBlock: ZUJKAS_clean_linker_0, # of connection points: 2
#     Edge 82, Type (0, 1), BuildingBlock: ZUJKAS_clean_linker_0, # of connection points: 2
#     Edge 83, Type (0, 1), BuildingBlock: ZUJKAS_clean_linker_0, # of connection points: 2
#     Edge 84, Type (0, 1), BuildingBlock: ZUJKAS_clean_linker_0, # of connection points: 2
#     Edge 85, Type (0, 1), BuildingBlock: ZUJKAS_clean_linker_0, # of connection points: 2
#     Edge 86, Type (0, 1), BuildingBlock: ZUJKAS_clean_linker_0, # of connection points: 2
#     Edge 87, Type (0, 1), BuildingBlock: ZUJKAS_clean_linker_0, # of connection points: 2
#     Edge 88, Type (0, 1), BuildingBlock: ZUJKAS_clean_linker_0, # of connection points: 2
#     Edge 89, Type (0, 1), BuildingBlock: ZUJKAS_clean_linker_0, # of connection points: 2
#     Edge 90, Type (0, 1), BuildingBlock: ZUJKAS_clean_linker_0, # of connection points: 2
#     Edge 91, Type (0, 1), BuildingBlock: ZUJKAS_clean_linker_0, # of connection points: 2
#     Edge 92, Type (0, 1), BuildingBlock: ZUJKAS_clean_linker_0, # of connection points: 2
#     Edge 93, Type (0, 1), BuildingBlock: ZUJKAS_clean_linker_0, # of connection points: 2
#     Edge 94, Type (0, 1), BuildingBlock: ZUJKAS_clean_linker_0, # of connection points: 2
#     Edge 95, Type (0, 1), BuildingBlock: ZUJKAS_clean_linker_0, # of connection points: 2
#     Edge 96, Type (0, 1), BuildingBlock: ZUJKAS_clean_linker_0, # of connection points: 2
#     Edge 97, Type (0, 1), BuildingBlock: ZUJKAS_clean_linker_0, # of connection points: 2
#     Edge 98, Type (0, 1), BuildingBlock: ZUJKAS_clean_linker_0, # of connection points: 2
#     Edge 99, Type (0, 1), BuildingBlock: ZUJKAS_clean_linker_0, # of connection points: 2
#     Edge 100, Type (0, 1), BuildingBlock: ZUJKAS_clean_linker_0, # of connection points: 2
#     Edge 101, Type (0, 1), BuildingBlock: ZUJKAS_clean_linker_0, # of connection points: 2
#     Edge 102, Type (0, 1), BuildingBlock: ZUJKAS_clean_linker_0, # of connection points: 2
#     Edge 103, Type (0, 1), BuildingBlock: ZUJKAS_clean_linker_0, # of connection points: 2
#     Edge 104, Type (0, 1), BuildingBlock: ZUJKAS_clean_linker_0, # of connection points: 2
#     Edge 105, Type (0, 1), BuildingBlock: ZUJKAS_clean_linker_0, # of connection points: 2
#     Edge 106, Type (0, 1), BuildingBlock: ZUJKAS_clean_linker_0, # of connection points: 2
#     Edge 107, Type (0, 1), BuildingBlock: ZUJKAS_clean_linker_0, # of connection points: 2
#     Edge 108, Type (0, 1), BuildingBlock: ZUJKAS_clean_linker_0, # of connection points: 2
#     Edge 109, Type (0, 1), BuildingBlock: ZUJKAS_clean_linker_0, # of connection points: 2
#     Edge 110, Type (0, 1), BuildingBlock: ZUJKAS_clean_linker_0, # of connection points: 2
#     Edge 111, Type (0, 1), BuildingBlock: ZUJKAS_clean_linker_0, # of connection points: 2
#     Edge 112, Type (0, 1), BuildingBlock: ZUJKAS_clean_linker_0, # of connection points: 2
#     Edge 113, Type (0, 1), BuildingBlock: ZUJKAS_clean_linker_0, # of connection points: 2
#     Edge 114, Type (0, 1), BuildingBlock: ZUJKAS_clean_linker_0, # of connection points: 2
#     Edge 115, Type (0, 1), BuildingBlock: ZUJKAS_clean_linker_0, # of connection points: 2
#     Edge 116, Type (0, 1), BuildingBlock: ZUJKAS_clean_linker_0, # of connection points: 2
#     Edge 117, Type (0, 1), BuildingBlock: ZUJKAS_clean_linker_0, # of connection points: 2
#     Edge 118, Type (0, 1), BuildingBlock: ZUJKAS_clean_linker_0, # of connection points: 2
#     Edge 119, Type (0, 1), BuildingBlock: ZUJKAS_clean_linker_0, # of connection points: 2
#     Edge 120, Type (0, 1), BuildingBlock: ZUJKAS_clean_linker_0, # of connection points: 2
#     Edge 121, Type (0, 1), BuildingBlock: ZUJKAS_clean_linker_0, # of connection points: 2
#     Edge 122, Type (0, 1), BuildingBlock: ZUJKAS_clean_linker_0, # of connection points: 2
#     Edge 123, Type (0, 1), BuildingBlock: ZUJKAS_clean_linker_0, # of connection points: 2
#     Edge 124, Type (0, 1), BuildingBlock: ZUJKAS_clean_linker_0, # of connection points: 2
#     Edge 125, Type (0, 1), BuildingBlock: ZUJKAS_clean_linker_0, # of connection points: 2
#     Edge 126, Type (0, 1), BuildingBlock: ZUJKAS_clean_linker_0, # of connection points: 2
#     Edge 127, Type (0, 1), BuildingBlock: ZUJKAS_clean_linker_0, # of connection points: 2
#     Edge 128, Type (0, 1), BuildingBlock: ZUJKAS_clean_linker_0, # of connection points: 2
#     Edge 129, Type (0, 1), BuildingBlock: ZUJKAS_clean_linker_0, # of connection points: 2
#     Edge 130, Type (0, 1), BuildingBlock: ZUJKAS_clean_linker_0, # of connection points: 2
#     Edge 131, Type (0, 1), BuildingBlock: ZUJKAS_clean_linker_0, # of connection points: 2
#     Edge 132, Type (0, 1), BuildingBlock: ZUJKAS_clean_linker_0, # of connection points: 2
#     Edge 133, Type (0, 1), BuildingBlock: ZUJKAS_clean_linker_0, # of connection points: 2
#     Edge 134, Type (0, 1), BuildingBlock: ZUJKAS_clean_linker_0, # of connection points: 2
#     Edge 135, Type (0, 1), BuildingBlock: ZUJKAS_clean_linker_0, # of connection points: 2
# Relax obj value: 0.054
# Max RMSD: 0.174
# Mean RMSD: 0.103
data_MOF--net-gar--node1-KUFVIS_clean_sbu_0--node2-KUMJIN_clean_sbu_1--edge1-ZUJKAS_clean_linker_0
_symmetry_space_group_name_H-M    P1
_symmetry_Int_Tables_number       1
_symmetry_cell_setting            triclinic
loop_
_symmetry_equiv_pos_as_xyz
'x, y, z'
_cell_length_a     75.528777
_cell_length_b     75.780194
_cell_length_c     72.875719
_cell_angle_alpha  95.403942
_cell_angle_beta   95.523411
_cell_angle_gamma 100.57806
loop_
_atom_site_label
_atom_site_type_symbol
_atom_site_fract_x
_atom_site_fract_y
_atom_site_fract_z
_atom_type_partial_charge
Mn0 Mn 0.03852 0.30044 0.36957 0.0
Mn1 Mn 0.03879 0.32847 0.33633 0.0
C2 C 0.01059 0.30447 0.3545 0.0
C3 C 0.04025 0.27264 0.38126 0.0
C4 C 0.04642 0.34178 0.37766 0.0
O5 O 0.06493 0.30358 0.36223 0.0
O6 O 0.06184 0.31842 0.33707 0.0
C7 C 0.03706 0.30301 0.30245 0.0
N8 N 0.02989 0.31551 0.31243 0.0
C9 C 1.00569 0.31391 0.2879 0.0
C10 C 0.01297 0.30119 0.27729 0.0
C11 C 0.02868 0.29566 0.28464 0.0
C12 C 0.01465 0.32077 0.30556 0.0
H13 H 0.04905 0.29868 0.30805 0.0
C14 C 0.07095 0.30982 0.34772 0.0
O15 O 0.04507 0.28805 0.39137 0.0
O16 O 0.03477 0.2732 0.36386 0.0
N17 N 0.01737 0.33868 0.33381 0.0
C18 C 0.01198 0.35106 0.34577 0.0
C19 C 0.99634 0.35779 0.34059 0.0
C20 C 0.98644 0.35185 0.32311 0.0
C21 C 0.99233 0.33928 0.31094 0.0
C22 C 0.00807 0.33309 0.31684 0.0
H23 H 0.01952 0.35589 0.35917 0.0
O24 O 0.01159 0.29844 0.37059 0.0
O25 O 0.02599 0.30761 0.34747 0.0
O26 O 0.04269 0.32614 0.38294 0.0
O27 O 0.04756 0.34405 0.36059 0.0
C28 C 0.98319 0.33267 0.29317 0.0
C29 C 0.98986 0.31999 0.28166 0.0
H30 H 1.00656 0.29551 0.26354 0.0
H31 H 0.03434 0.28578 0.27658 0.0
H32 H 0.99196 0.36758 0.35003 0.0
H33 H 0.97438 0.35707 0.31916 0.0
H34 H 0.971 0.33723 0.28823 0.0
H35 H 0.98269 0.31496 0.26804 0.0
Mn36 Mn 0.0211 0.75146 0.68248 0.0
Mn37 Mn 0.03023 0.78419 0.71897 0.0
C38 C 0.05134 0.76124 0.69714 0.0
C39 C 0.01441 0.72128 0.66719 0.0
C40 C 0.02253 0.79186 0.67906 0.0
O41 O 0.99541 0.75178 0.69138 0.0
O42 O 1.00375 0.7725 0.71666 0.0
C43 C 0.0244 0.76273 0.7505 0.0
N44 N 0.03548 0.77461 0.74175 0.0
C45 C 0.05951 0.77843 0.76687 0.0
C46 C 0.04832 0.76629 0.77619 0.0
C47 C 0.0307 0.75838 0.76796 0.0
C48 C 0.05244 0.78234 0.74958 0.0
H49 H 0.01084 0.7567 0.74424 0.0
C50 C 0.99159 0.76114 0.70573 0.0
O51 O 0.01111 0.735 0.65911 0.0
O52 O 0.02009 0.72472 0.68483 0.0
N53 N 0.05503 0.79652 0.72277 0.0
C54 C 0.06434 0.80741 0.71162 0.0
C55 C 0.08239 0.81591 0.71753 0.0
C56 C 0.09063 0.81324 0.7349 0.0
C57 C 0.08074 0.80207 0.74617 0.0
C58 C 0.06279 0.79395 0.73953 0.0
H59 H 0.05811 0.80952 0.69825 0.0
O60 O 0.04785 0.75387 0.68006 0.0
O61 O 0.03693 0.76295 0.70528 0.0
O62 O 0.02083 0.77561 0.67182 0.0
O63 O 0.02558 0.79634 0.69654 0.0
C64 C 0.08807 0.79847 0.76362 0.0
C65 C 0.07745 0.78669 0.77398 0.0
H66 H 0.05313 0.76288 0.78964 0.0
H67 H 0.02199 0.749 0.77507 0.0
H68 H 0.08993 0.82448 0.70873 0.0
H69 H 0.10458 0.81976 0.73939 0.0
H70 H 0.1019 0.80457 0.76913 0.0
H71 H 0.08326 0.78395 0.78734 0.0
Mn72 Mn 0.53897 0.79999 0.86953 0.0
Mn73 Mn 0.53851 0.82913 0.83731 0.0
C74 C 0.51028 0.80335 0.85516 0.0
C75 C 0.54091 0.77207 0.88114 0.0
C76 C 0.5455 0.84149 0.87883 0.0
O77 O 0.56525 0.80322 0.86171 0.0
O78 O 0.56251 0.82059 0.83868 0.0
C79 C 0.54007 0.80604 0.8026 0.0
N80 N 0.53175 0.81757 0.81255 0.0
C81 C 0.51095 0.81918 0.78585 0.0
C82 C 0.51936 0.80739 0.77529 0.0
C83 C 0.53394 0.80075 0.78372 0.0
C84 C 0.51778 0.82414 0.80453 0.0
H85 H 0.5514 0.80105 0.80898 0.0
C86 C 0.57165 0.81106 0.84817 0.0
O87 O 0.54591 0.78749 0.89117 0.0
O88 O 0.53539 0.77267 0.86376 0.0
N89 N 0.51661 0.83831 0.83398 0.0
C90 C 0.50873 0.84783 0.8466 0.0
C91 C 0.49318 0.85443 0.84074 0.0
C92 C 0.48598 0.85129 0.82196 0.0
C93 C 0.49426 0.84136 0.80926 0.0
C94 C 0.50971 0.8351 0.81592 0.0
H95 H 0.5142 0.85032 0.86104 0.0
O96 O 0.51242 0.79755 0.87127 0.0
O97 O 0.52544 0.80715 0.84742 0.0
O98 O 0.54307 0.82564 0.88378 0.0
O99 O 0.54552 0.84414 0.86183 0.0
C100 C 0.48746 0.83695 0.79037 0.0
C101 C 0.49583 0.82591 0.77866 0.0
H102 H 0.51462 0.80321 0.76075 0.0
H103 H 0.54048 0.79162 0.77567 0.0
H104 H 0.48678 0.86193 0.85066 0.0
H105 H 0.47393 0.85633 0.81751 0.0
H106 H 0.4756 0.84169 0.78479 0.0
H107 H 0.49031 0.82239 0.76423 0.0
Mn108 Mn 0.52126 0.24923 0.1861 0.0
Mn109 Mn 0.48795 0.24317 0.15023 0.0
C110 C 0.51095 0.22033 0.16859 0.0
C111 C 0.55312 0.25535 0.19805 0.0
C112 C 0.48083 0.25104 0.19056 0.0
O113 O 0.52212 0.27503 0.17824 0.0
O114 O 0.50138 0.2685 0.15264 0.0
C115 C 0.50823 0.24776 0.1177 0.0
N116 N 0.49617 0.23736 0.12689 0.0
C117 C 0.48826 0.21444 0.10073 0.0
C118 C 0.50066 0.22486 0.09098 0.0
C119 C 0.51077 0.24154 0.09955 0.0
C120 C 0.48655 0.22119 0.11886 0.0
H121 H 0.51571 0.26076 0.12413 0.0
C122 C 0.51351 0.27952 0.1638 0.0
O123 O 0.54051 0.25772 0.20841 0.0
O124 O 0.54734 0.24998 0.18074 0.0
N125 N 0.47427 0.21902 0.14679 0.0
C126 C 0.4639 0.21012 0.15861 0.0
C127 C 0.45359 0.19282 0.15255 0.0
C128 C 0.4538 0.18503 0.13431 0.0
C129 C 0.46464 0.19449 0.12245 0.0
C130 C 0.47498 0.21146 0.12944 0.0
H131 H 0.46345 0.21619 0.17252 0.0
O132 O 0.51825 0.22182 0.1857 0.0
O133 O 0.50894 0.2356 0.16287 0.0
O134 O 0.49675 0.25019 0.19815 0.0
O135 O 0.47699 0.24899 0.173 0.0
C136 C 0.46552 0.1878 0.10395 0.0
C137 C 0.47742 0.19771 0.09312 0.0
H138 H 0.5025 0.22019 0.07691 0.0
H139 H 0.52031 0.24968 0.0921 0.0
H140 H 0.44532 0.18559 0.16182 0.0
H141 H 0.44566 0.17177 0.12959 0.0
H142 H 0.4573 0.17492 0.09799 0.0
H143 H 0.47821 0.19225 0.07901 0.0
Mn144 Mn 0.05987 0.78831 0.11998 0.0
Mn145 Mn 0.0257 0.77766 0.08457 0.0
C146 C 0.04992 0.75798 0.10627 0.0
C147 C 0.09065 0.79511 0.13434 0.0
C148 C 0.01926 0.78617 0.12459 0.0
O149 O 0.05915 0.81353 0.11002 0.0
O150 O 0.03651 0.804 0.08663 0.0
C151 C 0.04597 0.78411 0.05228 0.0
N152 N 0.03484 0.77272 0.06148 0.0
C153 C 0.03089 0.74884 0.03633 0.0
C154 C 0.0423 0.76032 0.02657 0.0
C155 C 0.04989 0.77803 0.03459 0.0
C156 C 0.0274 0.75568 0.05385 0.0
H157 H 0.05167 0.79778 0.05833 0.0
C158 C 0.04835 0.81666 0.09629 0.0
O159 O 0.07727 0.79891 0.14276 0.0
O160 O 0.08652 0.78897 0.11688 0.0
N161 N 0.01405 0.75274 0.08112 0.0
C162 C 1.00363 0.74327 0.09254 0.0
C163 C 0.99544 0.72515 0.08682 0.0
C164 C 0.99788 0.71703 0.06935 0.0
C165 C 0.00851 0.72712 0.05776 0.0
C166 C 0.01638 0.7451 0.06425 0.0
H167 H 1.00167 0.74945 0.10597 0.0
O168 O 0.05772 0.76181 0.12319 0.0
O169 O 0.04774 0.772 0.09783 0.0
O170 O 0.03586 0.78879 0.13135 0.0
O171 O 0.01411 0.78212 0.1073 0.0
C172 C 0.01174 0.71998 0.04012 0.0
C173 C 0.02288 0.73085 0.02938 0.0
H174 H 0.04535 0.75569 0.01292 0.0
H175 H 0.05867 0.78698 0.02712 0.0
H176 H 0.98728 0.71747 0.09585 0.0
H177 H 0.99159 0.70304 0.06499 0.0
H178 H 1.0058 0.70613 0.03471 0.0
H179 H 0.02529 0.7252 0.01584 0.0
Mn180 Mn 0.50249 0.7635 0.43813 0.0
Mn181 Mn 0.50305 0.79257 0.40491 0.0
C182 C 0.47507 0.76681 0.42083 0.0
C183 C 0.50486 0.73411 0.44835 0.0
C184 C 0.50909 0.80568 0.44621 0.0
O185 O 0.52909 0.7677 0.43179 0.0
O186 O 0.52659 0.78462 0.40803 0.0
C187 C 0.50568 0.76809 0.37156 0.0
N188 N 0.49694 0.77988 0.38055 0.0
C189 C 0.4766 0.77996 0.35305 0.0
C190 C 0.48537 0.76781 0.34347 0.0
C191 C 0.4999 0.76177 0.3528 0.0
C192 C 0.4828 0.78559 0.37178 0.0
H193 H 0.51706 0.76369 0.37861 0.0
C194 C 0.53552 0.7758 0.41842 0.0
O195 O 0.50807 0.74896 0.45953 0.0
O196 O 0.50022 0.73615 0.43115 0.0
N197 N 0.48108 0.8014 0.40028 0.0
C198 C 0.47373 0.81267 0.41167 0.0
C199 C 0.45901 0.81988 0.40457 0.0
C200 C 0.4522 0.81569 0.38574 0.0
C201 C 0.45992 0.80398 0.37428 0.0
C202 C 0.47449 0.79712 0.38219 0.0
H203 H 0.47916 0.81629 0.42601 0.0
O204 O 0.47496 0.76043 0.43677 0.0
O205 O 0.49105 0.77103 0.41548 0.0
O206 O 0.50603 0.78998 0.45202 0.0
O207 O 0.50926 0.80773 0.42909 0.0
C208 C 0.45381 0.79892 0.35529 0.0
C209 C 0.46202 0.78678 0.34474 0.0
H210 H 0.48107 0.76304 0.32896 0.0
H211 H 0.50676 0.75242 0.34549 0.0
H212 H 0.45309 0.82884 0.41352 0.0
H213 H 0.44106 0.82156 0.38025 0.0
H214 H 0.44274 0.8042 0.34868 0.0
H215 H 0.45704 0.78283 0.33022 0.0
Mn216 Mn 0.56066 0.28943 0.6199 0.0
Mn217 Mn 0.52478 0.27862 0.58641 0.0
C218 C 0.55037 0.2588 0.60696 0.0
C219 C 0.59168 0.29586 0.6335 0.0
C220 C 0.52041 0.28666 0.62678 0.0
O221 O 0.56026 0.31438 0.60965 0.0
O222 O 0.53496 0.30538 0.58935 0.0
C223 C 0.54295 0.28745 0.55327 0.0
N224 N 0.53231 0.2754 0.56225 0.0
C225 C 0.5249 0.254 0.53475 0.0
C226 C 0.53576 0.2662 0.52519 0.0
C227 C 0.54488 0.28296 0.53452 0.0
C228 C 0.52344 0.25925 0.55339 0.0
H229 H 0.54975 0.30046 0.56031 0.0
C230 C 0.548 0.3178 0.59761 0.0
O231 O 0.57869 0.30028 0.64213 0.0
O232 O 0.58707 0.28932 0.61619 0.0
N233 N 0.51335 0.2537 0.58182 0.0
C234 C 0.50454 0.24301 0.59345 0.0
C235 C 0.49548 0.22541 0.5866 0.0
C236 C 0.49535 0.21909 0.56782 0.0
C237 C 0.5045 0.23037 0.55613 0.0
C238 C 0.51337 0.24774 0.56377 0.0
H239 H 0.50447 0.24788 0.60785 0.0
O240 O 0.55833 0.2633 0.62376 0.0
O241 O 0.54768 0.27252 0.59801 0.0
O242 O 0.53731 0.29099 0.63236 0.0
O243 O 0.5143 0.28116 0.60999 0.0
C244 C 0.50544 0.22495 0.53728 0.0
C245 C 0.5156 0.23677 0.52658 0.0
H246 H 0.53727 0.2628 0.51073 0.0
H247 H 0.55327 0.29245 0.52722 0.0
H248 H 0.48852 0.21677 0.59574 0.0
H249 H 0.48834 0.2055 0.56258 0.0
H250 H 0.49859 0.21164 0.53092 0.0
H251 H 0.51636 0.23239 0.51215 0.0
Mn252 Mn 1.002 0.26394 0.93772 0.0
Mn253 Mn 1.00006 0.29309 0.90475 0.0
C254 C 0.97379 0.2665 0.92149 0.0
C255 C 1.00542 0.23485 0.94781 0.0
C256 C 0.00742 0.30601 0.94604 0.0
O257 O 0.02813 0.26865 0.93015 0.0
O258 O 0.02415 0.28629 0.90733 0.0
C259 C 1.00323 0.26938 0.87101 0.0
N260 N 0.99399 0.28045 0.88036 0.0
C261 C 0.97257 0.27938 0.85339 0.0
C262 C 0.98184 0.26795 0.84347 0.0
C263 C 0.9972 0.26288 0.85235 0.0
C264 C 0.97916 0.28536 0.87197 0.0
H265 H 0.01518 0.26567 0.87772 0.0
C266 C 0.03385 0.27751 0.91697 0.0
O267 O 0.00927 0.24984 0.9588 0.0
O268 O 0.99959 0.23661 0.93083 0.0
N269 N 0.9774 0.30078 0.90066 0.0
C270 C 0.96964 0.31136 0.91236 0.0
C271 C 0.95404 0.31749 0.90576 0.0
C272 C 0.94672 0.31287 0.8871 0.0
C273 C 0.95489 0.30189 0.87532 0.0
C274 C 0.97043 0.29622 0.8827 0.0
H275 H 0.97537 0.31521 0.92658 0.0
O276 O 0.97451 0.26038 0.93758 0.0
O277 O 0.9894 0.27115 0.91553 0.0
O278 O 1.00576 0.29031 0.95176 0.0
O279 O 1.00613 0.30821 0.92891 0.0
C280 C 0.94819 0.29629 0.85656 0.0
C281 C 0.95698 0.28499 0.84562 0.0
H282 H 0.97728 0.26296 0.82906 0.0
H283 H 1.00445 0.25409 0.84476 0.0
H284 H 0.94779 0.3259 0.91497 0.0
H285 H 0.93484 0.31784 0.882 0.0
H286 H 0.93617 0.30044 0.85046 0.0
H287 H 0.95159 0.28063 0.83126 0.0
Mn288 Mn 0.38845 0.01524 0.29431 0.0
Mn289 Mn 0.35713 0.0072 0.32438 0.0
C290 C 0.37638 0.98643 0.29859 0.0
C291 C 0.3972 0.02111 0.26583 0.0
C292 C 0.3969 0.01961 0.33593 0.0
O293 O 0.37997 0.03868 0.29793 0.0
O294 O 0.35843 0.03186 0.31708 0.0
C295 C 0.32356 0.00775 0.30008 0.0
N296 N 0.33337 0.99898 0.31152 0.0
C297 C 0.30841 0.97384 0.30982 0.0
C298 C 0.298 0.98263 0.29807 0.0
C299 C 0.30563 0.99964 0.29314 0.0
C300 C 0.32615 0.98263 0.31639 0.0
H301 H 0.32935 0.02087 0.29637 0.0
C302 C 0.36761 0.04257 0.30735 0.0
O303 O 0.40819 0.02621 0.28096 0.0
O304 O 0.38082 0.01272 0.2672 0.0
N305 N 0.35454 0.98366 0.33243 0.0
C306 C 0.36679 0.97652 0.3429 0.0
C307 C 0.36155 0.95929 0.34849 0.0
C308 C 0.34373 0.94967 0.34343 0.0
C309 C 0.33139 0.95726 0.33258 0.0
C310 C 0.33737 0.97451 0.32747 0.0
H311 H 0.38045 0.98393 0.34696 0.0
O312 O 0.39201 0.99002 0.29227 0.0
O313 O 0.36816 0.9998 0.30214 0.0
O314 O 0.40193 0.01988 0.31991 0.0
O315 O 0.38063 0.01521 0.33934 0.0
C316 C 0.31346 0.9483 0.32642 0.0
C317 C 0.30197 0.95658 0.31505 0.0
H318 H 0.28417 0.9764 0.29264 0.0
H319 H 0.29768 0.00649 0.28405 0.0
H320 H 0.37119 0.95347 0.35677 0.0
H321 H 0.33971 0.93641 0.34785 0.0
H322 H 0.30844 0.93495 0.33016 0.0
H323 H 0.28828 0.94947 0.31023 0.0
Mn324 Mn 0.26379 0.17603 0.51523 0.0
Mn325 Mn 0.25659 0.14298 0.47905 0.0
C326 C 0.23453 0.16023 0.50487 0.0
C327 C 0.26922 0.18679 0.54708 0.0
C328 C 0.26604 0.18274 0.4744 0.0
O329 O 0.28864 0.16889 0.51472 0.0
O330 O 0.28207 0.14657 0.4907 0.0
C331 C 0.26104 0.11088 0.49791 0.0
N332 N 0.25062 0.11949 0.48689 0.0
C333 C 0.22677 0.09311 0.48093 0.0
C334 C 0.23725 0.08396 0.4922 0.0
C335 C 0.25444 0.09289 0.50074 0.0
C336 C 0.23413 0.11095 0.47844 0.0
H337 H 0.2743 0.11766 0.50442 0.0
C338 C 0.29297 0.15645 0.50387 0.0
O339 O 0.2736 0.19718 0.53442 0.0
O340 O 0.26235 0.16996 0.54137 0.0
N341 N 0.2323 0.13827 0.46698 0.0
C342 C 0.22338 0.14951 0.45783 0.0
C343 C 0.20557 0.14301 0.44937 0.0
C344 C 0.19719 0.12502 0.45033 0.0
C345 C 0.20665 0.11373 0.45987 0.0
C346 C 0.22436 0.12096 0.46803 0.0
H347 H 0.22976 0.16335 0.4571 0.0
O348 O 0.23723 0.17657 0.51326 0.0
O349 O 0.24907 0.15398 0.50197 0.0
O350 O 0.26678 0.18875 0.49146 0.0
O351 O 0.26246 0.16601 0.4685 0.0
C352 C 0.19908 0.09569 0.46191 0.0
C353 C 0.20916 0.08537 0.47237 0.0
H354 H 0.23217 0.07012 0.49451 0.0
H355 H 0.26261 0.08592 0.50946 0.0
H356 H 0.19833 0.15184 0.44213 0.0
H357 H 0.18343 0.12007 0.44384 0.0
H358 H 0.18544 0.08969 0.45568 0.0
H359 H 0.20312 0.07158 0.47401 0.0
Mn360 Mn 0.13219 0.04465 0.78289 0.0
Mn361 Mn 0.16699 0.05005 0.81691 0.0
C362 C 0.14957 0.07349 0.79311 0.0
C363 C 0.11997 0.03912 0.75123 0.0
C364 C 0.12743 0.0405 0.82352 0.0
O365 O 0.13817 0.01912 0.7833 0.0
O366 O 0.16422 0.02578 0.80304 0.0
C367 C 0.19868 0.04954 0.79607 0.0
N368 N 0.18994 0.05822 0.80852 0.0
C369 C 0.21599 0.08219 0.81672 0.0
C370 C 0.22526 0.07357 0.80393 0.0
C371 C 0.21652 0.05724 0.79346 0.0
C372 C 0.1981 0.07411 0.81839 0.0
H373 H 0.19213 0.03677 0.78834 0.0
C374 C 0.15244 0.01491 0.79142 0.0
O375 O 0.11003 0.03596 0.76454 0.0
O376 O 0.1372 0.04496 0.75621 0.0
N377 N 0.17087 0.07331 0.831 0.0
C378 C 0.15965 0.08044 0.8419 0.0
C379 C 0.16603 0.09718 0.85265 0.0
C380 C 0.18397 0.10622 0.85237 0.0
C381 C 0.19526 0.09857 0.84108 0.0
C382 C 0.188 0.0821 0.83029 0.0
H383 H 0.14599 0.07338 0.84248 0.0
O384 O 0.13317 0.07162 0.78489 0.0
O385 O 0.15501 0.0585 0.7953 0.0
O386 O 0.12064 0.0428 0.80741 0.0
O387 O 0.14437 0.04175 0.82793 0.0
C388 C 0.21348 0.10654 0.84024 0.0
C389 C 0.22383 0.09838 0.82804 0.0
H390 H 0.2391 0.07934 0.80206 0.0
H391 H 0.2236 0.05047 0.7836 0.0
H392 H 0.15722 0.10297 0.86133 0.0
H393 H 0.18893 0.11901 0.86089 0.0
H394 H 0.21959 0.11911 0.8487 0.0
H395 H 0.23776 0.1048 0.8273 0.0
Mn396 Mn 0.29613 0.92013 0.00407 0.0
Mn397 Mn 0.303 0.95319 0.97605 0.0
C398 C 0.32461 0.93259 0.99881 0.0
C399 C 0.29199 0.90999 0.03234 0.0
C400 C 0.28951 0.91411 0.96212 0.0
O401 O 0.27264 0.92885 1.00265 0.0
O402 O 0.27871 0.95131 0.98443 0.0
C403 C 0.30381 0.9849 0.00337 0.0
N404 N 0.31195 0.97597 0.99054 0.0
C405 C 0.33724 1.00087 0.99295 0.0
C406 C 0.32912 0.01036 0.00617 0.0
C407 C 0.31239 1.00229 0.01149 0.0
C408 C 0.32817 0.9835 0.98554 0.0
H409 H 0.29084 0.9788 0.00729 0.0
C410 C 0.26837 0.9416 0.99409 0.0
O411 O 0.286 0.89967 0.01694 0.0
O412 O 0.30024 0.92645 0.03134 0.0
N413 N 0.3262 0.95632 0.96706 0.0
C414 C 0.3327 0.9449 0.955 0.0
C415 C 0.34962 0.95064 0.94879 0.0
C416 C 0.35951 0.96814 0.95479 0.0
C417 C 0.35248 0.97967 0.96711 0.0
C418 C 0.33569 0.97311 0.97304 0.0
H419 H 0.32503 0.93151 0.95017 0.0
O420 O 0.32148 0.91652 0.0041 0.0
O421 O 0.31102 0.94072 0.9967 0.0
O422 O 0.28986 0.90832 0.97787 0.0
O423 O 0.29421 0.93065 0.95971 0.0
C424 C 0.36146 0.99742 0.97375 0.0
C425 C 0.35395 0.00795 0.98682 0.0
H426 H 0.33563 0.02383 0.01237 0.0
H427 H 0.30605 0.00952 0.0217 0.0
H428 H 0.35494 0.94165 0.93928 0.0
H429 H 0.37251 0.97257 0.94987 0.0
H430 H 0.37436 1.00297 0.96921 0.0
H431 H 0.36121 0.02143 0.99215 0.0
Mn432 Mn 0.29454 0.38116 0.03787 0.0
Mn433 Mn 0.29994 0.41446 0.00971 0.0
C434 C 0.32375 0.39668 0.03382 0.0
C435 C 0.28999 0.37024 0.06704 0.0
C436 C 0.28869 0.37464 0.99519 0.0
O437 O 0.26933 0.38854 0.03531 0.0
O438 O 0.27639 0.41249 0.0194 0.0
C439 C 0.30066 0.44725 0.03545 0.0
N440 N 0.30853 0.438 0.02265 0.0
C441 C 0.32855 0.46512 0.01733 0.0
C442 C 0.32084 0.47496 0.03064 0.0
C443 C 0.30702 0.46593 0.03995 0.0
C444 C 0.32237 0.44642 0.01424 0.0
H445 H 0.28937 0.44047 0.04183 0.0
C446 C 0.26544 0.40241 0.02812 0.0
O447 O 0.28539 0.36 0.05141 0.0
O448 O 0.29704 0.38702 0.06583 0.0
N449 N 0.32233 0.41798 0.99919 0.0
C450 C 0.32871 0.40633 0.98731 0.0
C451 C 0.3431 0.413 0.97743 0.0
C452 C 0.35019 0.43165 0.97927 0.0
C453 C 0.34322 0.44338 0.99145 0.0
C454 C 0.32962 0.4358 1.00172 0.0
H455 H 0.32265 0.39213 0.98513 0.0
O456 O 0.32142 0.3807 0.03937 0.0
O457 O 0.30913 0.40307 0.03081 0.0
O458 O 0.29035 0.36835 0.0108 0.0
O459 O 0.29111 0.39149 0.99386 0.0
C460 C 0.34884 0.46232 0.99345 0.0
C461 C 0.34164 0.47318 0.00654 0.0
H462 H 0.32527 0.48946 0.03367 0.0
H463 H 0.30088 0.47345 0.0501 0.0
H464 H 0.34831 0.40387 0.96797 0.0
H465 H 0.36086 0.43683 0.97116 0.0
H466 H 0.35904 0.46864 0.98539 0.0
H467 H 0.34638 0.48769 0.00828 0.0
Mn468 Mn 0.76766 0.13678 0.04977 0.0
Mn469 Mn 0.75341 0.104 0.01396 0.0
C470 C 0.73776 0.12577 0.04272 0.0
C471 C 0.77733 0.14627 0.08025 0.0
C472 C 0.76562 0.14313 0.00916 0.0
O473 O 0.78977 0.12703 0.04641 0.0
O474 O 0.77969 0.10565 0.02203 0.0
C475 C 0.75805 0.07154 0.03212 0.0
N476 N 0.74725 0.08074 0.0223 0.0
C477 C 0.72254 0.05511 0.01766 0.0
C478 C 0.73343 0.04533 0.02766 0.0
C479 C 0.75123 0.05361 0.03497 0.0
C480 C 0.73013 0.07287 0.0151 0.0
H481 H 0.7718 0.07779 0.03759 0.0
C482 C 0.79198 0.11457 0.03455 0.0
O483 O 0.78159 0.15664 0.0675 0.0
O484 O 0.76791 0.13012 0.07525 0.0
N485 N 0.72825 0.10073 0.00494 0.0
C486 C 0.71902 0.11264 0.99735 0.0
C487 C 0.70061 0.10693 0.99056 0.0
C488 C 0.69196 0.08899 0.9914 0.0
C489 C 0.70175 0.07699 0.99926 0.0
C490 C 0.72003 0.08349 0.00595 0.0
H491 H 0.72565 0.12642 0.99666 0.0
O492 O 0.74342 0.142 0.05115 0.0
O493 O 0.74987 0.11644 0.03804 0.0
O494 O 0.76992 0.14891 0.02622 0.0
O495 O 0.75896 0.12673 0.00321 0.0
C496 C 0.69396 0.05899 1.00126 0.0
C497 C 0.70437 0.04804 0.01039 0.0
H498 H 0.72822 0.0315 0.02993 0.0
H499 H 0.75971 0.04615 0.04271 0.0
H500 H 0.69309 0.11631 0.98467 0.0
H501 H 0.67773 0.08467 0.98622 0.0
H502 H 0.67989 0.05355 0.99614 0.0
H503 H 0.69817 0.03431 0.01206 0.0
Mn504 Mn 0.17305 0.54486 0.25009 0.0
Mn505 Mn 0.20664 0.55628 0.28553 0.0
C506 C 0.18525 0.57434 0.25868 0.0
C507 C 0.16332 0.53635 0.21944 0.0
C508 C 0.16727 0.54407 0.29049 0.0
O509 O 0.18176 0.5218 0.25265 0.0
O510 O 0.20519 0.53075 0.27529 0.0
C511 C 0.23871 0.55416 0.26571 0.0
N512 N 0.22952 0.56389 0.27672 0.0
C513 C 0.25412 0.5896 0.28086 0.0
C514 C 0.26389 0.57982 0.26962 0.0
C515 C 0.25614 0.56204 0.26199 0.0
C516 C 0.23689 0.58097 0.28423 0.0
H517 H 0.23283 0.54045 0.2599 0.0
C518 C 0.19512 0.5189 0.26309 0.0
O519 O 0.15273 0.53221 0.23205 0.0
O520 O 0.17977 0.54504 0.22465 0.0
N521 N 0.20952 0.58077 0.29645 0.0
C522 C 0.19771 0.58879 0.3057 0.0
C523 C 0.20302 0.60691 0.31343 0.0
C524 C 0.22045 0.61652 0.31175 0.0
C525 C 0.23233 0.608 0.3021 0.0
C526 C 0.22629 0.58993 0.29467 0.0
H527 H 0.18432 0.58143 0.30704 0.0
O528 O 0.16908 0.5698 0.24972 0.0
O529 O 0.1938 0.56144 0.26243 0.0
O530 O 0.16094 0.5426 0.27355 0.0
O531 O 0.18403 0.54883 0.29651 0.0
C532 C 0.24976 0.61687 0.29917 0.0
C533 C 0.26067 0.60765 0.28859 0.0
H534 H 0.2773 0.58588 0.26665 0.0
H535 H 0.26359 0.55441 0.25329 0.0
H536 H 0.19372 0.61346 0.3207 0.0
H537 H 0.2245 0.63048 0.31777 0.0
H538 H 0.25479 0.63086 0.30471 0.0
H539 H 0.27395 0.61467 0.28624 0.0
Mn540 Mn 0.79466 0.88121 0.53954 0.0
Mn541 Mn 0.80152 0.91419 0.51091 0.0
C542 C 0.82427 0.89609 0.53628 0.0
C543 C 0.78958 0.871 0.56888 0.0
C544 C 0.78996 0.87428 0.49675 0.0
O545 O 0.76975 0.88907 0.53627 0.0
O546 O 0.7775 0.91231 0.51958 0.0
C547 C 0.80128 0.94718 0.53604 0.0
N548 N 0.80976 0.93779 0.52392 0.0
C549 C 0.83325 0.9638 0.52316 0.0
C550 C 0.82482 0.97375 0.5357 0.0
C551 C 0.8088 0.96538 0.5422 0.0
C552 C 0.82515 0.94572 0.51755 0.0
H553 H 0.78879 0.94088 0.54079 0.0
C554 C 0.76624 0.90275 0.52846 0.0
O555 O 0.78489 0.86043 0.55347 0.0
O556 O 0.79686 0.88762 0.56739 0.0
N557 N 0.82451 0.91752 0.50155 0.0
C558 C 0.83135 0.90577 0.4902 0.0
C559 C 0.84741 0.91193 0.48257 0.0
C560 C 0.85615 0.93012 0.48656 0.0
C561 C 0.84904 0.94186 0.49856 0.0
C562 C 0.83294 0.93498 0.50565 0.0
H563 H 0.82447 0.89187 0.4868 0.0
O564 O 0.82134 0.88011 0.54179 0.0
O565 O 0.80989 0.90279 0.53252 0.0
O566 O 0.79069 0.86811 0.51251 0.0
O567 O 0.79313 0.8911 0.49518 0.0
C568 C 0.8573 0.96011 0.50379 0.0
C569 C 0.84943 0.97106 0.51611 0.0
H570 H 0.83054 0.9878 0.54044 0.0
H571 H 0.80218 0.973 0.55181 0.0
H572 H 0.85294 0.90274 0.47348 0.0
H573 H 0.86843 0.93488 0.48048 0.0
H574 H 0.8698 0.96581 0.49854 0.0
H575 H 0.85599 0.98503 0.52015 0.0
Mn576 Mn 0.92742 0.01212 0.26011 0.0
Mn577 Mn 0.89382 0.00846 0.28818 0.0
C578 C 0.91018 0.98354 0.2629 0.0
C579 C 0.93831 0.01672 0.23091 0.0
C580 C 0.93402 0.01723 0.30265 0.0
O581 O 0.92189 0.03781 0.26375 0.0
O582 O 0.8964 0.03207 0.27803 0.0
C583 C 0.86016 0.00902 0.26396 0.0
N584 N 0.8697 1.00062 0.27605 0.0
C585 C 0.84314 0.97825 0.27847 0.0
C586 C 0.83306 0.98665 0.26599 0.0
C587 C 0.84162 1.00207 0.25868 0.0
C588 C 0.86152 0.98589 0.28337 0.0
H589 H 0.86661 0.02102 0.25857 0.0
C590 C 0.90778 0.04235 0.26982 0.0
O591 O 0.9489 0.02009 0.24643 0.0
O592 O 0.92125 0.01101 0.23228 0.0
N593 N 0.89008 0.98593 0.29846 0.0
C594 C 0.90214 0.97841 0.30875 0.0
C595 C 0.89607 0.96216 0.31603 0.0
C596 C 0.87765 0.95389 0.31278 0.0
C597 C 0.86551 0.96183 0.30207 0.0
C598 C 0.87238 0.97798 0.29507 0.0
H599 H 0.9163 0.98468 0.31133 0.0
O600 O 0.92622 0.98521 0.25745 0.0
O601 O 0.90465 0.9986 0.26673 0.0
O602 O 0.94032 0.01471 0.28716 0.0
O603 O 0.91721 0.01657 0.30363 0.0
C604 C 0.84696 0.95414 0.29767 0.0
C605 C 0.83576 0.9624 0.28597 0.0
H606 H 0.81878 0.9813 0.26183 0.0
H607 H 0.83392 0.00866 0.24908 0.0
H608 H 0.90556 0.95604 0.32416 0.0
H609 H 0.87303 0.94133 0.31839 0.0
H610 H 0.84124 0.94172 0.30297 0.0
H611 H 0.82157 0.95623 0.28249 0.0
Mn612 Mn 0.26946 0.64037 0.54935 0.0
Mn613 Mn 0.259 0.60525 0.51601 0.0
C614 C 0.23985 0.62814 0.53959 0.0
C615 C 0.27718 0.65104 0.57986 0.0
C616 C 0.27281 0.6439 0.50922 0.0
O617 O 0.29294 0.63151 0.54813 0.0
O618 O 0.28303 0.60526 0.52953 0.0
C619 C 0.25554 0.57455 0.53863 0.0
N620 N 0.24838 0.58348 0.5253 0.0
C621 C 0.2221 0.55964 0.51801 0.0
C622 C 0.22934 0.55003 0.53144 0.0
C623 C 0.24605 0.55762 0.54195 0.0
C624 C 0.23204 0.57658 0.51556 0.0
H625 H 0.26836 0.58033 0.54666 0.0
C626 C 0.29505 0.61627 0.54075 0.0
O627 O 0.28173 0.66115 0.56698 0.0
O628 O 0.26849 0.63458 0.57501 0.0
N629 N 0.23569 0.60357 0.50229 0.0
C630 C 0.22974 0.61538 0.49131 0.0
C631 C 0.21256 0.6105 0.48095 0.0
C632 C 0.20187 0.59337 0.48163 0.0
C633 C 0.20832 0.58142 0.49296 0.0
C634 C 0.2253 0.58724 0.50338 0.0
H635 H 0.23804 0.62841 0.49044 0.0
O636 O 0.24411 0.64435 0.54833 0.0
O637 O 0.25296 0.61959 0.5373 0.0
O638 O 0.2722 0.6512 0.52544 0.0
O639 O 0.26942 0.62687 0.50444 0.0
C640 C 0.19857 0.56397 0.49435 0.0
C641 C 0.20539 0.55313 0.50698 0.0
H642 H 0.22212 0.5369 0.53392 0.0
H643 H 0.25166 0.55038 0.55248 0.0
H644 H 0.20766 0.61982 0.47228 0.0
H645 H 0.18872 0.58957 0.47346 0.0
H646 H 0.18553 0.55896 0.48621 0.0
H647 H 0.1975 0.53995 0.50834 0.0
Mn648 Mn 0.42695 0.51123 0.76023 0.0
Mn649 Mn 0.3934 0.50734 0.78817 0.0
C650 C 0.41012 0.48264 0.76337 0.0
C651 C 0.43756 0.51603 0.73107 0.0
C652 C 0.4336 0.51709 0.80262 0.0
O653 O 0.42118 0.53679 0.76386 0.0
O654 O 0.39547 0.53081 0.77777 0.0
C655 C 0.35991 0.50664 0.76315 0.0
N656 N 0.36959 0.49862 0.7755 0.0
C657 C 0.34391 0.47472 0.77638 0.0
C658 C 0.3337 0.48273 0.76364 0.0
C659 C 0.34174 0.49874 0.75699 0.0
C660 C 0.3619 0.48331 0.78217 0.0
H661 H 0.36598 0.51902 0.75818 0.0
C662 C 0.40692 0.54119 0.76972 0.0
O663 O 0.44825 0.51957 0.74652 0.0
O664 O 0.42057 0.50993 0.7325 0.0
N665 N 0.3902 0.48486 0.79861 0.0
C666 C 0.40234 0.47808 0.80963 0.0
C667 C 0.39679 0.4615 0.81652 0.0
C668 C 0.37879 0.45215 0.81216 0.0
C669 C 0.36654 0.45939 0.80081 0.0
C670 C 0.37288 0.47592 0.79427 0.0
H671 H 0.41618 0.48516 0.81306 0.0
O672 O 0.42609 0.48431 0.75772 0.0
O673 O 0.40452 0.49765 0.76702 0.0
O674 O 0.43978 0.51408 0.78716 0.0
O675 O 0.41675 0.51627 0.80377 0.0
C676 C 0.3484 0.45066 0.7954 0.0
C677 C 0.33707 0.45837 0.78327 0.0
H678 H 0.3197 0.47664 0.75879 0.0
H679 H 0.33393 0.50503 0.74719 0.0
H680 H 0.40636 0.45595 0.82517 0.0
H681 H 0.37458 0.43933 0.81744 0.0
H682 H 0.34312 0.43788 0.80026 0.0
H683 H 0.32321 0.45142 0.77905 0.0
Mn684 Mn 0.67248 0.04464 0.75058 0.0
Mn685 Mn 0.70705 0.05685 0.7851 0.0
C686 C 0.68585 0.07406 0.75706 0.0
C687 C 0.66034 0.03616 0.72056 0.0
C688 C 0.66791 0.0467 0.79153 0.0
O689 O 0.68064 0.02151 0.75354 0.0
O690 O 0.70412 0.03076 0.77616 0.0
C691 C 0.73884 0.05145 0.76602 0.0
N692 N 0.73016 0.06247 0.77617 0.0
C693 C 0.7566 0.08632 0.78094 0.0
C694 C 0.76582 0.07523 0.7705 0.0
C695 C 0.75689 0.05774 0.76299 0.0
C696 C 0.7387 0.07927 0.78363 0.0
H697 H 0.73212 0.0379 0.76047 0.0
C698 C 0.69384 0.01872 0.76429 0.0
O699 O 0.65089 0.03254 0.73415 0.0
O700 O 0.67743 0.04344 0.72437 0.0
N701 N 0.71134 0.08179 0.79478 0.0
C702 C 0.70016 0.09108 0.80356 0.0
C703 C 0.70681 0.10898 0.81143 0.0
C704 C 0.72485 0.11717 0.81013 0.0
C705 C 0.73605 0.10737 0.80091 0.0
C706 C 0.7287 0.08953 0.79345 0.0
H707 H 0.6863 0.08484 0.8046 0.0
O708 O 0.66916 0.06952 0.74948 0.0
O709 O 0.69427 0.06117 0.7614 0.0
O710 O 0.66132 0.04359 0.77465 0.0
O711 O 0.68473 0.05178 0.79684 0.0
C712 C 0.75413 0.11468 0.79858 0.0
C713 C 0.76442 0.10414 0.78866 0.0
H714 H 0.77974 0.08002 0.76813 0.0
H715 H 0.76396 0.04908 0.755 0.0
H716 H 0.69804 0.11649 0.81842 0.0
H717 H 0.72988 0.13104 0.81608 0.0
H718 H 0.76019 0.12844 0.80421 0.0
H719 H 0.77827 0.10994 0.78686 0.0
Mn720 Mn 0.76324 0.6757 0.01603 0.0
Mn721 Mn 0.7558 0.64107 0.98147 0.0
C722 C 0.73399 0.65879 0.00689 0.0
C723 C 0.76938 0.68792 0.0477 0.0
C724 C 0.76531 0.68049 0.97485 0.0
O725 O 0.78855 0.6692 0.01468 0.0
O726 O 0.78097 0.64435 0.99346 0.0
C727 C 0.75881 0.60938 1.00151 0.0
N728 N 0.74887 0.61807 0.99011 0.0
C729 C 0.7244 0.59223 0.98436 0.0
C730 C 0.73434 0.58302 0.99611 0.0
C731 C 0.75161 0.59164 0.00474 0.0
C732 C 0.73228 0.60985 0.98164 0.0
H733 H 0.77219 0.6159 0.00797 0.0
C734 C 0.79245 0.65553 0.00515 0.0
O735 O 0.77242 0.69778 0.03431 0.0
O736 O 0.76359 0.67074 0.04283 0.0
N737 N 0.73166 0.63685 0.96908 0.0
C738 C 0.72349 0.64798 0.95898 0.0
C739 C 0.70591 0.64164 0.94986 0.0
C740 C 0.69702 0.62388 0.95109 0.0
C741 C 0.70567 0.61272 0.9617 0.0
C742 C 0.72315 0.61983 0.97055 0.0
H743 H 0.73033 0.66159 0.95785 0.0
O744 O 0.73636 0.67522 0.01495 0.0
O745 O 0.74871 0.65301 0.00395 0.0
O746 O 0.76467 0.68736 0.9914 0.0
O747 O 0.76276 0.66354 0.97017 0.0
C748 C 0.6976 0.59487 0.96396 0.0
C749 C 0.70694 0.58465 0.97532 0.0
H750 H 0.72885 0.56934 0.99863 0.0
H751 H 0.7594 0.58459 0.01377 0.0
H752 H 0.69927 0.65037 0.94182 0.0
H753 H 0.6835 0.619 0.94394 0.0
H754 H 0.68415 0.58893 0.95716 0.0
H755 H 0.70051 0.57102 0.97709 0.0
Mn756 Mn 0.88776 0.51844 0.79338 0.0
Mn757 Mn 0.8567 0.50763 0.82318 0.0
C758 C 0.87689 0.48897 0.79618 0.0
C759 C 0.89621 0.52516 0.76493 0.0
C760 C 0.89644 0.52146 0.83507 0.0
O761 O 0.87818 0.54116 0.79811 0.0
O762 O 0.85671 0.53249 0.81672 0.0
C763 C 0.82213 0.50761 0.80031 0.0
N764 N 0.83277 0.49888 0.81092 0.0
C765 C 0.80818 0.47362 0.81071 0.0
C766 C 0.79694 0.48236 0.7998 0.0
C767 C 0.80397 0.49939 0.79452 0.0
C768 C 0.82611 0.48252 0.81615 0.0
H769 H 0.82743 0.52081 0.79648 0.0
C770 C 0.86548 0.54412 0.80755 0.0
O771 O 0.90708 0.53072 0.78007 0.0
O772 O 0.88002 0.51634 0.76634 0.0
N773 N 0.85529 0.48384 0.83044 0.0
C774 C 0.86832 0.4767 0.83974 0.0
C775 C 0.86382 0.45927 0.84511 0.0
C776 C 0.84595 0.44947 0.84108 0.0
C777 C 0.83278 0.45713 0.83151 0.0
C778 C 0.83809 0.4745 0.82641 0.0
H779 H 0.88203 0.48426 0.84301 0.0
O780 O 0.89256 0.49376 0.79027 0.0
O781 O 0.86794 0.50163 0.80053 0.0
O782 O 0.90137 0.52279 0.81906 0.0
O783 O 0.88013 0.51611 0.83801 0.0
C784 C 0.81467 0.44809 0.82656 0.0
C785 C 0.80236 0.45636 0.81622 0.0
H786 H 0.78292 0.47608 0.79531 0.0
H787 H 0.79536 0.50621 0.78612 0.0
H788 H 0.87408 0.45343 0.85242 0.0
H789 H 0.84253 0.43603 0.84526 0.0
H790 H 0.81012 0.43469 0.83044 0.0
H791 H 0.78852 0.4492 0.81233 0.0
Mn792 Mn 0.79432 0.42082 0.50648 0.0
Mn793 Mn 0.80341 0.45033 0.4749 0.0
C794 C 0.82347 0.43192 0.5025 0.0
C795 C 0.78873 0.41372 0.53554 0.0
C796 C 0.79066 0.41049 0.46512 0.0
O797 O 0.77122 0.42963 0.50203 0.0
O798 O 0.77827 0.44923 0.48115 0.0
C799 C 0.80165 0.48476 0.49681 0.0
N800 N 0.81098 0.47458 0.48645 0.0
C801 C 0.83555 0.49988 0.4868 0.0
C802 C 0.82617 0.51066 0.49743 0.0
C803 C 0.80919 0.50304 0.50251 0.0
C804 C 0.82731 0.48179 0.48142 0.0
H805 H 0.78852 0.47899 0.50059 0.0
C806 C 0.76733 0.44107 0.4914 0.0
O807 O 0.78291 0.40216 0.52097 0.0
O808 O 0.79725 0.42973 0.53321 0.0
N809 N 0.82739 0.45281 0.46777 0.0
C810 C 0.83524 0.4402 0.4588 0.0
C811 C 0.85272 0.44534 0.45363 0.0
C812 C 0.86186 0.46341 0.45756 0.0
C813 C 0.85347 0.47615 0.46676 0.0
C814 C 0.83604 0.47022 0.47159 0.0
H815 H 0.82821 0.42634 0.45564 0.0
O816 O 0.81924 0.41654 0.50909 0.0
O817 O 0.81038 0.44035 0.49806 0.0
O818 O 0.78933 0.4063 0.48137 0.0
O819 O 0.79608 0.42634 0.46106 0.0
C820 C 0.86183 0.49442 0.47162 0.0
C821 C 0.85286 0.50629 0.4816 0.0
H822 H 0.83195 0.52476 0.50189 0.0
H823 H 0.80189 0.51127 0.51073 0.0
H824 H 0.85912 0.43543 0.44657 0.0
H825 H 0.87536 0.46732 0.45358 0.0
H826 H 0.87526 0.49943 0.46796 0.0
H827 H 0.85953 0.52025 0.48546 0.0
Mn828 Mn 0.63315 0.54396 0.28349 0.0
Mn829 Mn 0.66835 0.55207 0.31733 0.0
C830 C 0.64907 0.57368 0.29336 0.0
C831 C 0.62085 0.53811 0.2518 0.0
C832 C 0.6291 0.54002 0.32445 0.0
O833 O 0.64105 0.51908 0.28403 0.0
O834 O 0.6669 0.528 0.30374 0.0
C835 C 0.69997 0.55352 0.29608 0.0
N836 N 0.6909 0.56145 0.30876 0.0
C837 C 0.7164 0.58585 0.31785 0.0
C838 C 0.72608 0.57792 0.30496 0.0
C839 C 0.71774 0.56181 0.29385 0.0
C840 C 0.69854 0.57731 0.31897 0.0
H841 H 0.69373 0.54091 0.28788 0.0
C842 C 0.65603 0.51621 0.29213 0.0
O843 O 0.61109 0.53431 0.26511 0.0
O844 O 0.63796 0.5446 0.25673 0.0
N845 N 0.67105 0.57528 0.33127 0.0
C846 C 0.6595 0.58162 0.34232 0.0
C847 C 0.66531 0.59822 0.35346 0.0
C848 C 0.68305 0.6079 0.35345 0.0
C849 C 0.69472 0.60103 0.34205 0.0
C850 C 0.68799 0.58468 0.33085 0.0
H851 H 0.64603 0.574 0.34278 0.0
O852 O 0.63255 0.57075 0.28528 0.0
O853 O 0.65543 0.55924 0.29567 0.0
O854 O 0.6218 0.54135 0.3082 0.0
O855 O 0.64623 0.54271 0.32856 0.0
C856 C 0.71287 0.60954 0.34163 0.0
C857 C 0.72379 0.6018 0.32975 0.0
H858 H 0.7399 0.5841 0.30344 0.0
H859 H 0.7251 0.55563 0.28383 0.0
H860 H 0.65625 0.60338 0.3623 0.0
H861 H 0.6876 0.62054 0.36233 0.0
H862 H 0.71858 0.62206 0.35037 0.0
H863 H 0.7377 0.60853 0.32947 0.0
Eu864 Eu 0.05233 0.03661 0.03615 0.0
C865 C 0.99022 0.97535 0.99159 0.0
N866 N 1.00024 0.99093 0.98723 0.0
C867 C 1.00077 0.97707 0.95634 0.0
C868 C 0.9852 0.95994 0.97836 0.0
C869 C 1.00533 0.99205 0.96982 0.0
C870 C 0.99068 0.96095 0.96062 0.0
C871 C 0.97428 0.95887 0.01408 0.0
C872 C 0.98473 0.97484 0.00928 0.0
C873 C 0.96929 0.94355 1.00092 0.0
C874 C 0.9747 0.9441 0.98311 0.0
Eu875 Eu 1.00473 0.01596 0.0103 0.0
N876 N 0.98974 0.98986 0.02183 0.0
C877 C 0.96906 0.95876 0.03199 0.0
C878 C 0.98406 0.98999 0.03903 0.0
C879 C 0.97393 0.97441 0.04449 0.0
H880 H 0.01222 1.00465 0.96593 0.0
H881 H 0.96959 0.97461 0.05822 0.0
H882 H 0.04607 0.04846 0.08074 0.0
H883 H 0.08536 0.07714 0.98646 0.0
H884 H 0.98675 1.00215 0.04842 0.0
H885 H 0.96106 0.94675 0.0362 0.0
H886 H 0.06952 0.04959 0.99749 0.0
H887 H 1.00474 0.97808 0.94254 0.0
H888 H 0.96119 0.93122 0.00435 0.0
H889 H 0.97065 0.93219 0.97308 0.0
H890 H 0.05382 0.07539 0.10366 0.0
H891 H 0.98699 0.94943 0.95006 0.0
H892 H 0.09329 0.10561 0.00762 0.0
N893 N 0.05677 0.06196 0.05874 0.0
C894 C 0.06614 0.07757 0.05374 0.0
C895 C 0.05715 0.07625 0.08961 0.0
C896 C 0.07129 0.09321 0.06665 0.0
C897 C 0.05242 0.06105 0.07643 0.0
C898 C 0.06661 0.0924 0.08471 0.0
N899 N 0.06598 0.06258 0.02353 0.0
C900 C 0.07159 0.06207 0.0063 0.0
C901 C 0.08084 0.09383 0.03034 0.0
C902 C 0.07093 0.07787 0.03573 0.0
C903 C 0.08566 0.09363 0.01227 0.0
C904 C 0.08111 0.07763 1.00024 0.0
H905 H 0.07045 0.10409 0.09505 0.0
H906 H 0.08533 0.12116 0.07105 0.0
H907 H 0.09361 0.12172 0.0393 0.0
O908 O 0.07821 0.02974 0.03046 0.0
O909 O 0.0351 0.05785 0.02834 0.0
O910 O 0.0165 0.04393 1.00231 0.0
O911 O 0.07433 0.03955 0.0584 0.0
O912 O 0.0512 0.02086 0.00731 0.0
O913 O 0.02559 0.02695 0.99211 0.0
O914 O 0.97974 0.02505 0.01537 0.0
O915 O 0.02107 0.99435 0.01891 0.0
O916 O 0.04157 0.00833 0.04387 0.0
O917 O 0.98352 0.01419 0.98727 0.0
O918 O 1.00563 0.03043 0.03971 0.0
O919 O 0.03197 0.02588 0.05525 0.0
C920 C 0.02459 0.05879 0.013 0.0
C921 C 0.09424 0.01923 0.05515 0.0
C922 C 0.11816 1.00219 0.05269 0.0
C923 C 0.11385 0.99433 0.06877 0.0
C924 C 0.08982 0.0113 0.07122 0.0
C925 C 0.09959 0.99881 0.07793 0.0
C926 C 0.10834 0.01457 0.04597 0.0
C927 C 0.04156 0.02272 0.99184 0.0
C928 C 0.08496 0.03287 0.04789 0.0
C929 C 0.08117 0.10907 0.06127 0.0
C930 C 0.0859 0.10939 0.04318 0.0
C931 C 0.03245 0.99353 0.03368 0.0
C932 C 0.95527 0.02396 0.99091 0.0
C933 C 0.93028 0.0391 0.99541 0.0
C934 C 0.92248 0.03269 0.97717 0.0
C935 C 0.94744 0.01738 0.97271 0.0
C936 C 0.94657 0.03464 1.00217 0.0
C937 C 0.93103 0.02172 0.96591 0.0
C938 C 0.01529 0.02856 0.05524 0.0
C939 C 0.97313 0.02108 0.99792 0.0
H940 H 0.12137 0.98466 0.07409 0.0
H941 H 0.07889 0.01471 0.07857 0.0
H942 H 0.09616 0.99266 0.09026 0.0
H943 H 0.11191 0.02086 0.03369 0.0
H944 H 0.90978 0.03602 0.97176 0.0
H945 H 0.95408 0.00913 0.96372 0.0
H946 H 0.95276 0.04006 0.0161 0.0
H947 H 0.92502 0.01672 0.95187 0.0
Eu948 Eu 0.27014 0.78005 0.29764 0.0
C949 C 0.31339 0.7421 0.22765 0.0
N950 N 0.31968 0.75525 0.242 0.0
C951 C 0.34646 0.74292 0.24796 0.0
C952 C 0.32317 0.72839 0.22333 0.0
C953 C 0.33624 0.75617 0.25179 0.0
C954 C 0.33979 0.72883 0.23384 0.0
C955 C 0.29075 0.72957 0.20153 0.0
C956 C 0.29736 0.74267 0.2169 0.0
C957 C 0.30003 0.71545 0.19767 0.0
C958 C 0.31623 0.71488 0.20852 0.0
Eu959 Eu 0.3005 0.7759 0.24853 0.0
N960 N 0.28864 0.75647 0.221 0.0
C961 C 0.27527 0.73133 0.1902 0.0
C962 C 0.27458 0.75913 0.20905 0.0
C963 C 0.2674 0.7464 0.19375 0.0
H964 H 0.34175 0.76718 0.26248 0.0
H965 H 0.25591 0.74833 0.18461 0.0
H966 H 0.22907 0.78863 0.28599 0.0
H967 H 0.31842 0.81111 0.35826 0.0
H968 H 0.26894 0.77115 0.21106 0.0
H969 H 0.26973 0.72153 0.1783 0.0
H970 H 0.30296 0.78644 0.33456 0.0
H971 H 0.3595 0.74362 0.25588 0.0
H972 H 0.29504 0.70515 0.18606 0.0
H973 H 0.32345 0.70413 0.20513 0.0
H974 H 0.21217 0.81326 0.29147 0.0
H975 H 0.34775 0.71858 0.23091 0.0
H976 H 0.30664 0.83945 0.36226 0.0
N977 N 0.25238 0.80193 0.3041 0.0
C978 C 0.25994 0.81631 0.31668 0.0
C979 C 0.22566 0.81437 0.29856 0.0
C980 C 0.25084 0.83069 0.3203 0.0
C981 C 0.23529 0.80048 0.29541 0.0
C982 C 0.23357 0.82967 0.31087 0.0
N983 N 0.28416 0.80149 0.32328 0.0
C984 C 0.29831 0.79908 0.3353 0.0
C985 C 0.28437 0.83038 0.34042 0.0
C986 C 0.27649 0.81617 0.32646 0.0
C987 C 0.30012 0.82884 0.35142 0.0
C988 C 0.30684 0.8129 0.34916 0.0
H989 H 0.22608 0.8404 0.3133 0.0
H990 H 0.25242 0.85666 0.33629 0.0
H991 H 0.28183 0.85637 0.35397 0.0
O992 O 0.26938 0.76179 0.31867 0.0
O993 O 0.27632 0.80594 0.28502 0.0
O994 O 0.29867 0.79479 0.27362 0.0
O995 O 0.24417 0.76257 0.30143 0.0
O996 O 0.2998 0.77552 0.30287 0.0
O997 O 0.3169 0.77583 0.27708 0.0
O998 O 0.30035 0.79785 0.23135 0.0
O999 O 0.28911 0.74779 0.25477 0.0
O1000 O 0.27973 0.76588 0.27437 0.0
O1001 O 0.32583 0.79056 0.24087 0.0
O1002 O 0.27014 0.7788 0.24358 0.0
O1003 O 0.25274 0.77679 0.26922 0.0
C1004 C 0.28871 0.8071 0.27372 0.0
C1005 C 0.24263 0.74253 0.32596 0.0
C1006 C 0.24229 0.72831 0.35449 0.0
C1007 C 0.2246 0.71879 0.34837 0.0
C1008 C 0.22501 0.73293 0.3199 0.0
C1009 C 0.21604 0.72112 0.33114 0.0
C1010 C 0.25118 0.74009 0.34318 0.0
C1011 C 0.31498 0.77469 0.295 0.0
C1012 C 0.25199 0.75588 0.31512 0.0
C1013 C 0.2591 0.84537 0.33344 0.0
C1014 C 0.27586 0.84522 0.34348 0.0
C1015 C 0.28023 0.74935 0.26885 0.0
C1016 C 0.32316 0.80139 0.21149 0.0
C1017 C 0.3198 0.81376 0.18221 0.0
C1018 C 0.33203 0.80371 0.17526 0.0
C1019 C 0.33551 0.79138 0.20454 0.0
C1020 C 0.31557 0.81276 0.20033 0.0
C1021 C 0.33998 0.79267 0.18649 0.0
C1022 C 0.25466 0.77819 0.25133 0.0
C1023 C 0.31772 0.80017 0.23015 0.0
H1024 H 0.21751 0.70942 0.35679 0.0
H1025 H 0.21818 0.73464 0.30661 0.0
H1026 H 0.20245 0.71369 0.32645 0.0
H1027 H 0.26467 0.74777 0.3481 0.0
H1028 H 0.33548 0.80452 0.16123 0.0
H1029 H 0.34162 0.78255 0.21295 0.0
H1030 H 0.30607 0.82057 0.2056 0.0
H1031 H 0.34952 0.78501 0.18116 0.0
Eu1032 Eu 0.50551 0.02845 0.53395 0.0
C1033 C 0.57475 0.0699 0.5011 0.0
N1034 N 0.56207 0.05465 0.49496 0.0
C1035 C 0.55901 0.06438 0.46457 0.0
C1036 C 0.57934 0.08332 0.48922 0.0
C1037 C 0.55503 0.05134 0.47667 0.0
C1038 C 0.571 0.08054 0.47093 0.0
C1039 C 0.59703 0.08758 0.52557 0.0
C1040 C 0.5837 0.07201 0.51918 0.0
C1041 C 0.60121 0.10102 0.51382 0.0
C1042 C 0.5924 0.0989 0.49574 0.0
Eu1043 Eu 0.55763 0.03369 0.51709 0.0
N1044 N 0.57917 0.05906 0.53062 0.0
C1045 C 0.60574 0.08925 0.54369 0.0
C1046 C 0.58785 0.06042 0.5481 0.0
C1047 C 0.60117 0.07559 0.55496 0.0
H1048 H 0.54679 0.03852 0.47092 0.0
H1049 H 0.608 0.07668 0.56889 0.0
H1050 H 0.51523 0.02347 0.58039 0.0
H1051 H 0.45698 0.98529 0.48113 0.0
H1052 H 0.58477 0.04965 0.55657 0.0
H1053 H 0.61604 0.10101 0.54907 0.0
H1054 H 0.47943 0.01279 0.49428 0.0
H1055 H 0.55313 0.06176 0.4502 0.0
H1056 H 0.61134 0.11309 0.51856 0.0
H1057 H 0.59598 0.10933 0.4868 0.0
H1058 H 0.50954 0.99958 0.60047 0.0
H1059 H 0.5742 0.09051 0.46141 0.0
H1060 H 0.45022 0.95983 0.4999 0.0
N1061 N 0.5016 0.00707 0.5557 0.0
C1062 C 0.49009 0.9912 0.54888 0.0
C1063 C 0.50428 0.99693 0.58592 0.0
C1064 C 0.4858 0.9774 0.5604 0.0
C1065 C 0.50789 0.01038 0.5742 0.0
C1066 C 0.4934 0.9803 0.57896 0.0
N1067 N 0.48575 1.00235 0.5196 0.0
C1068 C 0.47672 1.00151 0.50231 0.0
C1069 C 0.46893 0.97313 0.52371 0.0
C1070 C 0.48168 0.98897 0.5306 0.0
C1071 C 0.46014 0.97177 0.50564 0.0
C1072 C 0.46395 0.98609 0.49496 0.0
H1073 H 0.4904 0.97003 0.5882 0.0
H1074 H 0.47021 0.95067 0.56197 0.0
H1075 H 0.45546 0.94697 0.52995 0.0
O1076 O 0.48378 0.04141 0.52239 0.0
O1077 O 0.51272 1.00375 0.51655 0.0
O1078 O 0.5435 0.00593 0.52411 0.0
O1079 O 0.48359 0.03306 0.54988 0.0
O1080 O 0.51645 0.04114 0.50976 0.0
O1081 O 0.53428 0.02486 0.49517 0.0
O1082 O 0.58388 0.02519 0.52424 0.0
O1083 O 0.5502 0.0607 0.52946 0.0
O1084 O 0.52162 0.05731 0.5405 0.0
O1085 O 0.57006 0.02043 0.49574 0.0
O1086 O 0.54692 0.02268 0.54209 0.0
O1087 O 0.52839 0.03752 0.55703 0.0
C1088 C 0.52736 0.99632 0.51724 0.0
C1089 C 0.47023 0.05816 0.54455 0.0
C1090 C 0.44767 0.07749 0.5444 0.0
C1091 C 0.45725 0.08772 0.56056 0.0
C1092 C 0.47982 0.06885 0.56049 0.0
C1093 C 0.47332 0.08352 0.56843 0.0
C1094 C 0.45427 0.06274 0.53632 0.0
C1095 C 0.51953 0.0314 0.49519 0.0
C1096 C 0.47586 0.04138 0.5375 0.0
C1097 C 0.47357 0.96138 0.5533 0.0
C1098 C 0.46513 0.95928 0.53506 0.0
C1099 C 0.53712 0.06731 0.53723 0.0
C1100 C 0.59877 0.01095 0.49963 0.0
C1101 C 0.62459 0.99587 0.50347 0.0
C1102 C 0.62646 0.99639 0.48451 0.0
C1103 C 0.60092 0.01122 0.4807 0.0
C1104 C 0.61062 1.00311 0.51104 0.0
C1105 C 0.61465 1.00397 0.47323 0.0
C1106 C 0.54414 0.0328 0.5565 0.0
C1107 C 0.58406 0.01885 0.50696 0.0
H1108 H 0.45232 0.09907 0.56703 0.0
H1109 H 0.49215 0.06564 0.56704 0.0
H1110 H 0.48065 0.09154 0.58085 0.0
H1111 H 0.44672 0.05454 0.52406 0.0
H1112 H 0.63694 0.99066 0.47835 0.0
H1113 H 0.59199 0.01714 0.47162 0.0
H1114 H 0.60903 1.00269 0.52562 0.0
H1115 H 0.61614 1.00419 0.45862 0.0
Eu1116 Eu 0.30068 0.27059 0.77499 0.0
C1117 C 0.23333 0.2971 0.7324 0.0
N1118 N 0.24516 0.30518 0.74742 0.0
C1119 C 0.2465 0.334 0.73603 0.0
C1120 C 0.22778 0.3073 0.71847 0.0
C1121 C 0.2514 0.32342 0.74966 0.0
C1122 C 0.23474 0.3259 0.72031 0.0
C1123 C 0.21341 0.27009 0.71619 0.0
C1124 C 0.22637 0.2786 0.73114 0.0
C1125 C 0.20803 0.28022 0.70224 0.0
C1126 C 0.21526 0.29873 0.70332 0.0
Eu1127 Eu 0.25187 0.28586 0.76956 0.0
N1128 N 0.23231 0.2689 0.74446 0.0
C1129 C 0.20632 0.2516 0.71568 0.0
C1130 C 0.22495 0.25109 0.74443 0.0
C1131 C 0.21202 0.2421 0.72993 0.0
H1132 H 0.25976 0.32999 0.76213 0.0
H1133 H 0.20631 0.2279 0.72988 0.0
H1134 H 0.29192 0.22706 0.78403 0.0
H1135 H 0.34197 0.33034 0.81649 0.0
H1136 H 0.22864 0.24392 0.75579 0.0
H1137 H 0.19632 0.24458 0.70445 0.0
H1138 H 0.32245 0.31324 0.78913 0.0
H1139 H 0.25158 0.34844 0.7378 0.0
H1140 H 0.19823 0.27387 0.69056 0.0
H1141 H 0.21089 0.30637 0.69247 0.0
H1142 H 0.29921 0.20933 0.80935 0.0
H1143 H 0.23084 0.33418 0.70988 0.0
H1144 H 0.35047 0.31449 0.84318 0.0
N1145 N 0.30629 0.25216 0.79837 0.0
C1146 C 0.31739 0.26065 0.8137 0.0
C1147 C 0.30429 0.22377 0.81081 0.0
C1148 C 0.32216 0.25092 0.82838 0.0
C1149 C 0.29995 0.23393 0.79658 0.0
C1150 C 0.31538 0.23229 0.8268 0.0
N1151 N 0.31881 0.2884 0.80066 0.0
C1152 C 0.32549 0.30638 0.8009 0.0
C1153 C 0.33534 0.28835 0.83064 0.0
C1154 C 0.32393 0.27922 0.81483 0.0
C1155 C 0.34166 0.30699 0.83129 0.0
C1156 C 0.33682 0.31601 0.8163 0.0
H1157 H 0.31876 0.22435 0.83776 0.0
H1158 H 0.33733 0.25274 0.8555 0.0
H1159 H 0.34885 0.28546 0.85748 0.0
O1160 O 0.32561 0.27999 0.76134 0.0
O1161 O 0.28805 0.2784 0.80158 0.0
O1162 O 0.27143 0.29993 0.79429 0.0
O1163 O 0.3185 0.25236 0.76819 0.0
O1164 O 0.29772 0.29553 0.76056 0.0
O1165 O 0.27657 0.30883 0.77454 0.0
O1166 O 0.23099 0.27625 0.7875 0.0
O1167 O 0.26186 0.27569 0.74222 0.0
O1168 O 0.28305 0.25781 0.74872 0.0
O1169 O 0.23042 0.30069 0.77469 0.0
O1170 O 0.25511 0.26048 0.78293 0.0
O1171 O 0.27617 0.24763 0.7685 0.0
C1172 C 0.27997 0.29187 0.80659 0.0
C1173 C 0.34657 0.2588 0.75453 0.0
C1174 C 0.37227 0.26189 0.73588 0.0
C1175 C 0.37662 0.24608 0.74212 0.0
C1176 C 0.35159 0.2431 0.76052 0.0
C1177 C 0.36644 0.23685 0.75437 0.0
C1178 C 0.35719 0.26843 0.74224 0.0
C1179 C 0.29163 0.30998 0.76653 0.0
C1180 C 0.32995 0.26408 0.76115 0.0
C1181 C 0.33352 0.26001 0.84412 0.0
C1182 C 0.34009 0.27866 0.84524 0.0
C1183 C 0.27252 0.26456 0.737 0.0
C1184 C 0.21533 0.29791 0.80169 0.0
C1185 C 0.19072 0.29794 0.8214 0.0
C1186 C 0.19869 0.31571 0.82881 0.0
C1187 C 0.22315 0.31556 0.80966 0.0
C1188 C 0.19916 0.28899 0.80783 0.0
C1189 C 0.21484 0.32436 0.8231 0.0
C1190 C 0.26094 0.24623 0.7761 0.0
C1191 C 0.22264 0.28969 0.78549 0.0
H1192 H 0.38809 0.24087 0.73752 0.0
H1193 H 0.34397 0.23548 0.77001 0.0
H1194 H 0.37004 0.22472 0.7591 0.0
H1195 H 0.35361 0.28055 0.73743 0.0
H1196 H 0.1924 0.32289 0.83914 0.0
H1197 H 0.23543 0.32275 0.80514 0.0
H1198 H 0.19287 0.27544 0.80166 0.0
H1199 H 0.22083 0.33807 0.82894 0.0
Eu1200 Eu 0.03833 1.00517 0.52297 0.0
C1201 C 0.00829 0.06984 0.56543 0.0
N1202 N 1.00057 0.05872 0.54987 0.0
C1203 C 0.97115 0.05726 0.5601 0.0
C1204 C 0.99761 0.07498 0.57909 0.0
C1205 C 0.98226 0.0525 0.54696 0.0
C1206 C 0.97884 0.06853 0.57625 0.0
C1207 C 0.03539 0.08725 0.58402 0.0
C1208 C 0.02698 0.076 0.56782 0.0
C1209 C 0.02477 0.09243 0.5976 0.0
C1210 C 1.00594 0.08634 0.59512 0.0
Eu1211 Eu 0.02039 0.05232 0.52811 0.0
N1212 N 0.037 0.07049 0.55461 0.0
C1213 C 0.05426 0.09285 0.58617 0.0
C1214 C 0.05534 0.07624 0.55646 0.0
C1215 C 0.06426 0.08733 0.57231 0.0
H1216 H 0.97614 0.04431 0.53423 0.0
H1217 H 0.07886 0.09166 0.57381 0.0
H1218 H 0.08176 0.00803 0.51547 0.0
H1219 H 0.97686 0.96633 0.48132 0.0
H1220 H 0.06316 0.07219 0.54587 0.0
H1221 H 0.06122 0.10143 0.59844 0.0
H1222 H 0.99481 0.98429 0.50892 0.0
H1223 H 0.95663 0.05237 0.55769 0.0
H1224 H 0.03099 0.10109 0.6101 0.0
H1225 H 0.99794 0.09045 0.60574 0.0
H1226 H 0.09946 0.999 0.4906 0.0
H1227 H 0.97018 0.07223 0.58639 0.0
H1228 H 0.99212 0.95721 0.45444 0.0
N1229 N 0.0563 0.99645 0.50025 0.0
C1230 C 0.04734 0.98614 0.48469 0.0
C1231 C 0.0848 0.99547 0.48865 0.0
C1232 C 0.05686 0.9804 0.47023 0.0
C1233 C 0.07477 1.00089 0.50256 0.0
C1234 C 0.0758 0.9853 0.47234 0.0
N1235 N 0.01979 0.98688 0.4975 0.0
C1236 C 1.00156 0.98113 0.49716 0.0
C1237 C 0.0189 0.97044 0.4673 0.0
C1238 C 0.02858 0.98116 0.48328 0.0
C1239 C 1.00004 0.96541 0.46648 0.0
C1240 C 0.99137 0.97061 0.48158 0.0
H1241 H 0.08361 0.98108 0.46159 0.0
H1242 H 0.05432 0.96538 0.44298 0.0
H1243 H 0.02108 0.95673 0.44038 0.0
O1244 O 0.02934 0.98167 0.53856 0.0
O1245 O 0.03129 0.01735 0.49611 0.0
O1246 O 0.00833 0.0319 0.50324 0.0
O1247 O 0.05725 0.98878 0.53237 0.0
O1248 O 0.01282 0.0067 0.53728 0.0
O1249 O 0.99866 0.02688 0.52272 0.0
O1250 O 0.02925 0.07581 0.51246 0.0
O1251 O 0.02909 0.04088 0.55513 0.0
O1252 O 0.05143 0.02601 0.54688 0.0
O1253 O 1.00172 0.06942 0.51991 0.0
O1254 O 0.04659 0.05233 0.51498 0.0
O1255 O 0.06102 0.03021 0.52607 0.0
C1256 C 0.01746 0.02485 0.49096 0.0
C1257 C 0.0511 0.96265 0.54918 0.0
C1258 C 0.04564 0.93664 0.56707 0.0
C1259 C 0.06366 0.9347 0.56619 0.0
C1260 C 0.06909 0.96019 0.54865 0.0
C1261 C 0.07526 0.94637 0.55706 0.0
C1262 C 0.03925 0.9507 0.5585 0.0
C1263 C 0.99806 0.01274 0.53199 0.0
C1264 C 0.04554 0.97784 0.53994 0.0
C1265 C 0.04724 0.96987 0.45424 0.0
C1266 C 0.02831 0.96494 0.45276 0.0
C1267 C 0.04291 0.03308 0.55965 0.0
C1268 C 0.00778 0.09567 0.50323 0.0
C1269 C 0.01252 0.12101 0.48432 0.0
C1270 C 0.99527 0.12422 0.48731 0.0
C1271 C 0.99057 0.09944 0.50589 0.0
C1272 C 0.01889 0.10664 0.49234 0.0
C1273 C 0.98442 0.11354 0.498 0.0
C1274 C 0.06131 0.04573 0.51897 0.0
C1275 C 0.01326 0.0801 0.51187 0.0
H1276 H 0.06881 0.92407 0.57268 0.0
H1277 H 0.07856 0.96901 0.54168 0.0
H1278 H 0.08914 0.94472 0.55652 0.0
H1279 H 0.02537 0.95234 0.55919 0.0
H1280 H 0.99016 0.13512 0.48131 0.0
H1281 H 0.9817 0.09144 0.51412 0.0
H1282 H 0.03219 0.10403 0.49008 0.0
H1283 H 0.97114 0.11621 0.50018 0.0
Eu1284 Eu 0.28175 0.80356 0.7644 0.0
C1285 C 0.2421 0.73318 0.79979 0.0
N1286 N 0.25715 0.74614 0.80588 0.0
C1287 C 0.24823 0.74792 0.83662 0.0
C1288 C 0.22921 0.72764 0.81193 0.0
C1289 C 0.26074 0.75288 0.8242 0.0
C1290 C 0.2323 0.73542 0.83043 0.0
C1291 C 0.22441 0.7113 0.77504 0.0
C1292 C 0.23974 0.72491 0.78147 0.0
C1293 C 0.21146 0.70612 0.78707 0.0
C1294 C 0.21385 0.71424 0.80543 0.0
Eu1295 Eu 0.27754 0.75182 0.78356 0.0
N1296 N 0.25226 0.73035 0.76984 0.0
C1297 C 0.2225 0.70334 0.75662 0.0
C1298 C 0.25086 0.72222 0.75215 0.0
C1299 C 0.23583 0.70877 0.74517 0.0
H1300 H 0.27344 0.76166 0.82957 0.0
H1301 H 0.23463 0.70245 0.73104 0.0
H1302 H 0.28745 0.7901 0.71916 0.0
H1303 H 0.32268 0.85697 0.81399 0.0
H1304 H 0.26151 0.72587 0.7436 0.0
H1305 H 0.21089 0.69288 0.75117 0.0
H1306 H 0.29593 0.83298 0.80206 0.0
H1307 H 0.25106 0.75349 0.85106 0.0
H1308 H 0.19957 0.69573 0.78234 0.0
H1309 H 0.20381 0.70991 0.81459 0.0
H1310 H 0.31098 0.79578 0.69853 0.0
H1311 H 0.22274 0.73148 0.84017 0.0
H1312 H 0.34764 0.8641 0.79459 0.0
N1313 N 0.30278 0.80746 0.74234 0.0
C1314 C 0.31779 0.82059 0.74806 0.0
C1315 C 0.31319 0.80263 0.71252 0.0
C1316 C 0.3314 0.82467 0.73627 0.0
C1317 C 0.29998 0.79911 0.72455 0.0
C1318 C 0.32906 0.81529 0.71846 0.0
N1319 N 0.30643 0.82613 0.77703 0.0
C1320 C 0.3071 0.83575 0.79389 0.0
C1321 C 0.33487 0.84399 0.77176 0.0
C1322 C 0.31953 0.8303 0.76568 0.0
C1323 C 0.33606 0.85348 0.78944 0.0
C1324 C 0.32204 0.84945 0.80048 0.0
H1325 H 0.3392 0.81806 0.70902 0.0
H1326 H 0.35736 0.84136 0.73358 0.0
H1327 H 0.36041 0.85819 0.76458 0.0
O1328 O 0.26996 0.82778 0.77238 0.0
O1329 O 0.3092 0.79687 0.77687 0.0
O1330 O 0.30646 0.76842 0.78776 0.0
O1331 O 0.27137 0.81823 0.74331 0.0
O1332 O 0.27225 0.79537 0.79119 0.0
O1333 O 0.28658 0.77542 0.8051 0.0
O1334 O 0.28907 0.72789 0.774 0.0
O1335 O 0.25005 0.75866 0.77142 0.0
O1336 O 0.25289 0.7882 0.76357 0.0
O1337 O 0.28737 0.73572 0.80347 0.0
O1338 O 0.28856 0.76194 0.75834 0.0
O1339 O 0.27209 0.77935 0.74345 0.0
C1340 C 0.31624 0.78402 0.78458 0.0
C1341 C 0.25711 0.84408 0.74782 0.0
C1342 C 0.24157 0.86966 0.75181 0.0
C1343 C 0.23877 0.86927 0.73242 0.0
C1344 C 0.25408 0.8442 0.72847 0.0
C1345 C 0.24496 0.85664 0.72089 0.0
C1346 C 0.25063 0.85685 0.75958 0.0
C1347 C 0.28291 0.79154 0.80479 0.0
C1348 C 0.26612 0.82983 0.75493 0.0
C1349 C 0.34677 0.83815 0.74245 0.0
C1350 C 0.3485 0.84777 0.7601 0.0
C1351 C 0.24305 0.77239 0.76568 0.0
C1352 C 0.30003 0.70921 0.7973 0.0
C1353 C 0.31791 0.68573 0.79286 0.0
C1354 C 0.31651 0.68212 0.81125 0.0
C1355 C 0.29873 0.70519 0.81567 0.0
C1356 C 0.30958 0.69926 0.78577 0.0
C1357 C 0.30691 0.69176 0.82254 0.0
C1358 C 0.2779 0.76424 0.74406 0.0
C1359 C 0.29222 0.72451 0.79118 0.0
H1360 H 0.23161 0.87874 0.72613 0.0
H1361 H 0.25862 0.83452 0.71901 0.0
H1362 H 0.24262 0.85645 0.70598 0.0
H1363 H 0.25267 0.85689 0.77451 0.0
H1364 H 0.32287 0.67177 0.81687 0.0
H1365 H 0.29149 0.71256 0.82488 0.0
H1366 H 0.31083 0.70221 0.77164 0.0
H1367 H 0.3059 0.68889 0.83672 0.0
Eu1368 Eu 0.53407 0.04729 1.00211 0.0
C1369 C 0.56394 1.00198 0.07215 0.0
N1370 N 0.55137 0.99637 0.05706 0.0
C1371 C 0.56243 0.9688 0.05204 0.0
C1372 C 0.57672 0.99138 0.07733 0.0
C1373 C 0.55016 0.97983 0.04729 0.0
C1374 C 0.57588 0.97467 0.067 0.0
C1375 C 0.57743 0.02493 0.09771 0.0
C1376 C 0.5642 0.01851 0.08236 0.0
C1377 C 0.59033 0.01453 0.10269 0.0
C1378 C 0.58994 0.99778 0.09257 0.0
Eu1379 Eu 0.53178 0.01634 0.04966 0.0
N1380 N 0.55193 0.02861 0.0768 0.0
C1381 C 0.57743 0.04171 0.10752 0.0
C1382 C 0.55141 0.04463 0.08686 0.0
C1383 C 0.56424 0.0515 0.10217 0.0
H1384 H 0.53959 0.97493 0.03599 0.0
H1385 H 0.56392 0.06435 0.10987 0.0
H1386 H 0.52482 0.08774 0.01383 0.0
H1387 H 0.50265 0.99675 0.94315 0.0
H1388 H 0.54112 0.05222 0.08334 0.0
H1389 H 0.58743 0.04715 0.11932 0.0
H1390 H 0.52689 0.01174 0.96719 0.0
H1391 H 0.56147 0.95575 0.04417 0.0
H1392 H 0.60066 0.0193 0.11437 0.0
H1393 H 0.59995 0.98988 0.09663 0.0
H1394 H 0.50094 0.10517 0.00634 0.0
H1395 H 0.58543 0.96612 0.07056 0.0
H1396 H 0.47583 0.01042 0.93617 0.0
N1397 N 0.51297 0.06539 0.9939 0.0
C1398 C 0.49933 0.05822 0.98028 0.0
C1399 C 0.50029 0.09196 0.99894 0.0
C1400 C 0.48522 0.06749 0.97578 0.0
C1401 C 0.5138 0.08209 0.00312 0.0
C1402 C 0.48584 0.08456 0.98532 0.0
N1403 N 0.51352 0.03317 0.97556 0.0
C1404 C 0.5151 0.01767 0.96513 0.0
C1405 C 0.48543 0.03355 0.95681 0.0
C1406 C 0.49947 0.04149 0.97099 0.0
C1407 C 0.48637 0.017 0.94709 0.0
C1408 C 0.50145 0.00922 0.95105 0.0
H1409 H 0.47529 0.09215 0.98224 0.0
H1410 H 0.4599 0.06624 0.95852 0.0
H1411 H 0.46005 0.03646 0.94191 0.0
O1412 O 0.55607 0.04843 0.98498 0.0
O1413 O 0.507 0.04195 0.01232 0.0
O1414 O 0.51381 0.01711 0.02327 0.0
O1415 O 0.55193 0.07307 0.99988 0.0
O1416 O 0.54039 0.01837 0.99746 0.0
O1417 O 0.53173 0.99996 0.02096 0.0
O1418 O 0.51034 0.01736 0.06741 0.0
O1419 O 0.56081 0.02964 0.04834 0.0
O1420 O 0.54406 0.0355 0.02551 0.0
O1421 O 0.5161 0.99152 0.05714 0.0
O1422 O 0.52576 0.04553 0.05309 0.0
O1423 O 0.53763 0.06406 0.03089 0.0
C1424 C 0.50287 0.02851 0.02198 0.0
C1425 C 0.56111 0.07418 0.96972 0.0
C1426 C 0.56847 0.07145 0.93809 0.0
C1427 C 0.5585 0.08474 0.93392 0.0
C1428 C 0.55123 0.08761 0.96556 0.0
C1429 C 0.55015 0.093 0.94773 0.0
C1430 C 0.57017 0.06661 0.95607 0.0
C1431 C 0.53715 1.00242 0.00426 0.0
C1432 C 0.56028 0.06599 0.98713 0.0
C1433 C 0.47097 0.05943 0.96204 0.0
C1434 C 0.47104 0.04246 0.95261 0.0
C1435 C 0.56019 0.03745 0.03362 0.0
C1436 C 0.50655 0.99446 0.08697 0.0
C1437 C 0.49438 0.99707 0.11638 0.0
C1438 C 0.50557 0.98583 0.12341 0.0
C1439 C 0.51779 0.98317 0.09401 0.0
C1440 C 0.49475 1.0012 0.09818 0.0
C1441 C 0.51716 0.9788 0.11216 0.0
C1442 C 0.53084 0.0616 0.04695 0.0
C1443 C 0.50722 0.99999 0.06832 0.0
H1444 H 0.55715 0.08865 0.92 0.0
H1445 H 0.54396 0.09357 0.97584 0.0
H1446 H 0.54242 0.10322 0.94448 0.0
H1447 H 0.57762 0.05606 0.95911 0.0
H1448 H 0.50528 0.98251 0.13753 0.0
H1449 H 0.5271 0.97784 0.0856 0.0
H1450 H 0.48611 0.01 0.09287 0.0
H1451 H 0.52578 0.97009 0.11757 0.0
Eu1452 Eu 0.26801 0.2559 0.26123 0.0
C1453 C 0.33014 0.31473 0.3041 0.0
N1454 N 0.31432 0.30545 0.30882 0.0
C1455 C 0.32878 0.30356 0.33915 0.0
C1456 C 0.34596 0.31873 0.31692 0.0
C1457 C 0.31335 0.3002 0.32618 0.0
C1458 C 0.34516 0.31283 0.33451 0.0
C1459 C 0.3464 0.33134 0.28186 0.0
C1460 C 0.3304 0.32084 0.28659 0.0
C1461 C 0.36214 0.33523 0.29461 0.0
C1462 C 0.36194 0.32891 0.31204 0.0
Eu1463 Eu 0.28879 0.30359 0.28683 0.0
N1464 N 0.31489 0.31721 0.27453 0.0
C1465 C 0.34595 0.33824 0.2647 0.0
C1466 C 0.31416 0.32477 0.25831 0.0
C1467 C 0.32971 0.33505 0.25295 0.0
H1468 H 0.30059 0.29424 0.3305 0.0
H1469 H 0.32903 0.34101 0.24003 0.0
H1470 H 0.25649 0.26221 0.21655 0.0
H1471 H 0.22716 0.22176 0.31008 0.0
H1472 H 0.30143 0.3238 0.24995 0.0
H1473 H 0.35791 0.34653 0.26067 0.0
H1474 H 0.25488 0.23759 0.29931 0.0
H1475 H 0.3279 0.29942 0.35291 0.0
H1476 H 0.3745 0.34338 0.29123 0.0
H1477 H 0.37415 0.33223 0.32179 0.0
H1478 H 0.22963 0.2543 0.19334 0.0
H1479 H 0.35701 0.31572 0.34475 0.0
H1480 H 0.1986 0.21432 0.28886 0.0
N1481 N 0.24273 0.25136 0.23838 0.0
C1482 C 0.22701 0.24196 0.2432 0.0
C1483 C 0.22866 0.25095 0.20737 0.0
C1484 C 0.21141 0.2368 0.23015 0.0
C1485 C 0.24381 0.25572 0.2207 0.0
C1486 C 0.2124 0.24147 0.21209 0.0
N1487 N 0.24186 0.24191 0.27348 0.0
C1488 C 0.24234 0.23589 0.29053 0.0
C1489 C 0.21051 0.22709 0.26638 0.0
C1490 C 0.22657 0.23709 0.26118 0.0
C1491 C 0.21065 0.22202 0.28436 0.0
C1492 C 0.22669 0.2263 0.29642 0.0
H1493 H 0.20075 0.23762 0.20164 0.0
H1494 H 0.18338 0.22275 0.22546 0.0
H1495 H 0.18258 0.21434 0.25715 0.0
O1496 O 0.27608 0.23076 0.26765 0.0
O1497 O 0.24632 0.27254 0.26902 0.0
O1498 O 0.25976 0.2941 0.29333 0.0
O1499 O 0.2651 0.2334 0.23966 0.0
O1500 O 0.28274 0.25801 0.29067 0.0
O1501 O 0.27626 0.28372 0.30528 0.0
O1502 O 0.28381 0.33045 0.2825 0.0
O1503 O 0.30924 0.28504 0.28037 0.0
O1504 O 0.29623 0.26747 0.25344 0.0
O1505 O 0.29279 0.32472 0.31012 0.0
O1506 O 0.27427 0.30245 0.25728 0.0
O1507 O 0.27915 0.27608 0.24218 0.0
C1508 C 0.24515 0.28424 0.28334 0.0
C1509 C 0.28489 0.2129 0.24311 0.0
C1510 C 0.29972 0.18734 0.24537 0.0
C1511 C 0.30688 0.19034 0.22861 0.0
C1512 C 0.2923 0.21611 0.22648 0.0
C1513 C 0.30326 0.20479 0.21928 0.0
C1514 C 0.28873 0.1986 0.25248 0.0
C1515 C 0.27947 0.26736 0.30569 0.0
C1516 C 0.27212 0.22325 0.25053 0.0
C1517 C 0.19544 0.2269 0.23535 0.0
C1518 C 0.19498 0.22211 0.25341 0.0
C1519 C 0.31079 0.27545 0.26472 0.0
C1520 C 0.28048 0.35126 0.30829 0.0
C1521 C 0.26282 0.37475 0.3047 0.0
C1522 C 0.27024 0.38301 0.32258 0.0
C1523 C 0.28764 0.35959 0.32617 0.0
C1524 C 0.26781 0.35869 0.29777 0.0
C1525 C 0.28244 0.37533 0.3333 0.0
C1526 C 0.27632 0.29262 0.24198 0.0
C1527 C 0.28867 0.33683 0.29988 0.0
H1528 H 0.31547 0.18172 0.22296 0.0
H1529 H 0.28948 0.22715 0.21898 0.0
H1530 H 0.30889 0.20719 0.20643 0.0
H1531 H 0.28288 0.19602 0.26523 0.0
H1532 H 0.26705 0.39569 0.32809 0.0
H1533 H 0.29779 0.3543 0.33436 0.0
H1534 H 0.26228 0.35231 0.28396 0.0
H1535 H 0.2883 0.38189 0.34692 0.0
Eu1536 Eu 0.53807 0.50164 0.02176 0.0
C1537 C 0.51 0.56777 0.064 0.0
N1538 N 0.50226 0.55602 0.04887 0.0
C1539 C 0.47309 0.55394 0.05982 0.0
C1540 C 0.49947 0.57288 0.07782 0.0
C1541 C 0.48402 0.54933 0.04643 0.0
C1542 C 0.48085 0.56571 0.07562 0.0
C1543 C 0.53691 0.587 0.08122 0.0
C1544 C 0.52852 0.57479 0.06568 0.0
C1545 C 0.52646 0.59206 0.09501 0.0
C1546 C 0.5078 0.58502 0.09332 0.0
Eu1547 Eu 0.52194 0.54972 0.02691 0.0
N1548 N 0.53843 0.56931 0.05236 0.0
C1549 C 0.55559 0.59368 0.08249 0.0
C1550 C 0.5565 0.57622 0.05322 0.0
C1551 C 0.5654 0.58833 0.06837 0.0
H1552 H 0.47774 0.54078 0.03395 0.0
H1553 H 0.5798 0.59364 0.06908 0.0
H1554 H 0.58165 0.50763 0.01316 0.0
H1555 H 0.47662 0.46394 0.97965 0.0
H1556 H 0.56402 0.57255 0.04218 0.0
H1557 H 0.56254 0.60307 0.09422 0.0
H1558 H 0.49459 0.48185 0.00748 0.0
H1559 H 0.45865 0.54857 0.05785 0.0
H1560 H 0.53267 0.60141 0.10705 0.0
H1561 H 0.49992 0.58909 0.10407 0.0
H1562 H 0.59905 0.49997 0.98757 0.0
H1563 H 0.47231 0.56932 0.08593 0.0
H1564 H 0.49193 0.45542 0.95257 0.0
N1565 N 0.55614 0.49497 0.99846 0.0
C1566 C 0.54712 0.48477 0.98281 0.0
C1567 C 0.58445 0.49573 0.98601 0.0
C1568 C 0.55656 0.47985 0.96797 0.0
C1569 C 0.57454 0.50027 1.00038 0.0
C1570 C 0.57543 0.48553 0.9697 0.0
N1571 N 0.51942 0.48474 0.99583 0.0
C1572 C 0.50124 0.47885 0.99555 0.0
C1573 C 0.51866 0.46885 0.96543 0.0
C1574 C 0.52831 0.47936 0.98153 0.0
C1575 C 0.49982 0.46352 0.96468 0.0
C1576 C 0.49111 0.4684 0.97989 0.0
H1577 H 0.58316 0.48201 0.95861 0.0
H1578 H 0.55398 0.46555 0.94036 0.0
H1579 H 0.52087 0.45591 0.93815 0.0
O1580 O 0.52788 0.47825 0.03633 0.0
O1581 O 0.53103 0.51467 0.99526 0.0
O1582 O 0.50843 0.52933 1.00272 0.0
O1583 O 0.5542 0.48109 0.02666 0.0
O1584 O 0.51351 0.50426 0.03708 0.0
O1585 O 0.4999 0.52443 0.02209 0.0
O1586 O 0.53066 0.57191 0.00931 0.0
O1587 O 0.53219 0.53963 0.05431 0.0
O1588 O 0.55157 0.51997 0.04761 0.0
O1589 O 0.50409 0.56764 0.01928 0.0
O1590 O 0.54796 0.54756 0.0141 0.0
O1591 O 0.5614 0.52598 0.02737 0.0
C1592 C 0.5173 0.52234 0.99024 0.0
C1593 C 0.54988 0.46432 0.0524 0.0
C1594 C 0.54984 0.43976 0.07223 0.0
C1595 C 0.56627 0.44937 0.08195 0.0
C1596 C 0.56631 0.47349 0.06246 0.0
C1597 C 0.57433 0.46612 0.07718 0.0
C1598 C 0.5415 0.44743 0.05751 0.0
C1599 C 0.49905 0.5107 0.03194 0.0
C1600 C 0.54252 0.47151 0.03561 0.0
C1601 C 0.54694 0.46945 0.9519 0.0
C1602 C 0.52807 0.46396 0.95064 0.0
C1603 C 0.5446 0.5302 0.0595 0.0
C1604 C 0.50912 0.59197 1.00002 0.0
C1605 C 0.51382 0.6184 0.98247 0.0
C1606 C 0.49546 0.61927 0.98277 0.0
C1607 C 0.49077 0.59341 0.99985 0.0
C1608 C 0.52075 0.60457 0.99107 0.0
C1609 C 0.48407 0.60688 0.99133 0.0
C1610 C 0.56245 0.54149 0.02021 0.0
C1611 C 0.5151 0.57708 0.00964 0.0
H1612 H 0.57293 0.44383 0.09328 0.0
H1613 H 0.57322 0.48619 0.05862 0.0
H1614 H 0.58704 0.4733 0.08474 0.0
H1615 H 0.52899 0.44003 0.04969 0.0
H1616 H 0.48986 0.62965 0.97628 0.0
H1617 H 0.48139 0.58405 0.00635 0.0
H1618 H 0.53492 0.60378 0.99095 0.0
H1619 H 0.46993 0.60773 0.99139 0.0
Eu1620 Eu 0.78366 0.3018 0.26315 0.0
C1621 C 0.74316 0.23517 0.29873 0.0
N1622 N 0.75848 0.24755 0.30527 0.0
C1623 C 0.74861 0.25017 0.3355 0.0
C1624 C 0.72978 0.23006 0.31047 0.0
C1625 C 0.76154 0.25483 0.32341 0.0
C1626 C 0.73265 0.23777 0.32901 0.0
C1627 C 0.72475 0.21517 0.27302 0.0
C1628 C 0.74068 0.22771 0.28011 0.0
C1629 C 0.71149 0.21003 0.28477 0.0
C1630 C 0.714 0.21743 0.30341 0.0
Eu1631 Eu 0.77968 0.25268 0.28383 0.0
N1632 N 0.75359 0.23308 0.26885 0.0
C1633 C 0.72261 0.20817 0.25427 0.0
C1634 C 0.7518 0.22608 0.25073 0.0
C1635 C 0.7362 0.21363 0.2431 0.0
H1636 H 0.77412 0.26385 0.32879 0.0
H1637 H 0.73473 0.2081 0.22867 0.0
H1638 H 0.7889 0.2913 0.21793 0.0
H1639 H 0.82448 0.35305 0.31532 0.0
H1640 H 0.76251 0.22986 0.24227 0.0
H1641 H 0.71056 0.19848 0.24832 0.0
H1642 H 0.79841 0.32873 0.30265 0.0
H1643 H 0.75106 0.25597 0.34988 0.0
H1644 H 0.6992 0.20035 0.27956 0.0
H1645 H 0.70361 0.21331 0.31226 0.0
H1646 H 0.81167 0.29933 0.19662 0.0
H1647 H 0.7227 0.23414 0.33846 0.0
H1648 H 0.84846 0.36306 0.29557 0.0
N1649 N 0.80426 0.30826 0.24118 0.0
C1650 C 0.81895 0.32161 0.24717 0.0
C1651 C 0.814 0.30552 0.21087 0.0
C1652 C 0.83205 0.32704 0.23523 0.0
C1653 C 0.80128 0.3007 0.22313 0.0
C1654 C 0.82954 0.31861 0.21698 0.0
N1655 N 0.80829 0.32429 0.27671 0.0
C1656 C 0.80913 0.33264 0.29425 0.0
C1657 C 0.83575 0.34414 0.27175 0.0
C1658 C 0.82081 0.33012 0.26526 0.0
C1659 C 0.83715 0.35228 0.29005 0.0
C1660 C 0.82371 0.34659 0.30129 0.0
H1661 H 0.8393 0.3224 0.20739 0.0
H1662 H 0.85729 0.34512 0.23277 0.0
H1663 H 0.86054 0.36004 0.26471 0.0
O1664 O 0.76792 0.32281 0.27195 0.0
O1665 O 0.81145 0.29644 0.27584 0.0
O1666 O 0.80879 0.26798 0.28622 0.0
O1667 O 0.77487 0.31885 0.24359 0.0
O1668 O 0.77295 0.29517 0.2897 0.0
O1669 O 0.78971 0.27727 0.30407 0.0
O1670 O 0.78823 0.22659 0.27715 0.0
O1671 O 0.75315 0.26363 0.27666 0.0
O1672 O 0.75829 0.28049 0.25227 0.0
O1673 O 0.78941 0.23839 0.30601 0.0
O1674 O 0.79137 0.25583 0.25677 0.0
O1675 O 0.77685 0.27648 0.24338 0.0
C1676 C 0.81857 0.28347 0.28306 0.0
C1677 C 0.75811 0.34264 0.24913 0.0
C1678 C 0.74121 0.367 0.25418 0.0
C1679 C 0.74211 0.3703 0.23564 0.0
C1680 C 0.7587 0.34635 0.23058 0.0
C1681 C 0.75077 0.36003 0.22395 0.0
C1682 C 0.74922 0.35309 0.26102 0.0
C1683 C 0.78311 0.292 0.30402 0.0
C1684 C 0.76706 0.32796 0.25532 0.0
C1685 C 0.84707 0.34085 0.24175 0.0
C1686 C 0.8489 0.34939 0.25993 0.0
C1687 C 0.74705 0.27108 0.26218 0.0
C1688 C 0.79952 0.20987 0.30175 0.0
C1689 C 0.81716 0.18593 0.29874 0.0
C1690 C 0.81574 0.18341 0.31741 0.0
C1691 C 0.79822 0.20694 0.32038 0.0
C1692 C 0.80881 0.19905 0.29078 0.0
C1693 C 0.80621 0.19376 0.32809 0.0
C1694 C 0.78596 0.2634 0.24238 0.0
C1695 C 0.7925 0.22524 0.29469 0.0
H1696 H 0.736 0.38089 0.23018 0.0
H1697 H 0.76537 0.33867 0.22105 0.0
H1698 H 0.75135 0.36268 0.20967 0.0
H1699 H 0.74858 0.3505 0.27534 0.0
H1700 H 0.82205 0.17338 0.32374 0.0
H1701 H 0.79121 0.21504 0.32912 0.0
H1702 H 0.81016 0.20128 0.27647 0.0
H1703 H 0.80523 0.19172 0.34249 0.0
Eu1704 Eu 0.03138 0.54358 0.50225 0.0
C1705 C 0.06287 0.49858 0.57153 0.0
N1706 N 0.04917 0.49285 0.55756 0.0
C1707 C 0.05643 0.46332 0.55472 0.0
C1708 C 0.07392 0.48669 0.57771 0.0
C1709 C 0.04591 0.4756 0.54898 0.0
C1710 C 0.07042 0.46885 0.56922 0.0
C1711 C 0.08171 0.52324 0.5923 0.0
C1712 C 0.06665 0.51668 0.57876 0.0
C1713 C 0.09227 0.51128 0.599 0.0
C1714 C 0.0884 0.49306 0.59172 0.0
Eu1715 Eu 0.03118 0.51382 0.5495 0.0
N1716 N 0.05661 0.5281 0.57142 0.0
C1717 C 0.08622 0.54175 0.59818 0.0
C1718 C 0.06167 0.54632 0.57655 0.0
C1719 C 0.0763 0.55335 0.59008 0.0
H1720 H 0.03496 0.47121 0.53791 0.0
H1721 H 0.08006 0.56778 0.59407 0.0
H1722 H 0.02546 0.58598 0.50773 0.0
H1723 H 0.99247 0.48642 0.45308 0.0
H1724 H 0.05503 0.55582 0.57014 0.0
H1725 H 0.0977 0.5473 0.60848 0.0
H1726 H 0.01872 0.50277 0.47359 0.0
H1727 H 0.05373 0.4496 0.54796 0.0
H1728 H 0.1038 0.5161 0.60944 0.0
H1729 H 0.09697 0.4841 0.59669 0.0
H1730 H 1.0027 0.604 0.49821 0.0
H1731 H 0.07864 0.45933 0.57356 0.0
H1732 H 0.96692 0.50139 0.44467 0.0
N1733 N 0.01079 0.56163 0.4925 0.0
C1734 C 0.99621 0.55355 0.48024 0.0
C1735 C 1.00063 0.58979 0.49317 0.0
C1736 C 0.98281 0.56324 0.47452 0.0
C1737 C 0.01341 0.57956 0.49865 0.0
C1738 C 0.98515 0.58156 0.48119 0.0
N1739 N 0.00781 0.52645 0.47957 0.0
C1740 C 0.00749 0.50935 0.47144 0.0
C1741 C 0.97935 0.52662 0.46127 0.0
C1742 C 0.99454 0.5354 0.47379 0.0
C1743 C 0.97835 0.50861 0.45429 0.0
C1744 C 0.99267 0.50008 0.45912 0.0
H1745 H 0.97519 0.58948 0.47708 0.0
H1746 H 0.95701 0.56158 0.45799 0.0
H1747 H 0.95398 0.52952 0.44637 0.0
O1748 O 0.04492 0.54516 0.4773 0.0
O1749 O 1.00417 0.54018 0.51236 0.0
O1750 O 0.01597 0.51922 0.52394 0.0
O1751 O 0.04974 0.56871 0.49823 0.0
O1752 O 0.03963 0.5153 0.49909 0.0
O1753 O 0.02628 0.49714 0.52055 0.0
O1754 O 0.01277 0.51593 0.57061 0.0
O1755 O 0.05831 0.51803 0.53971 0.0
O1756 O 0.0502 0.54161 0.52772 0.0
O1757 O 0.01439 0.48967 0.55719 0.0
O1758 O 0.02624 0.5431 0.55493 0.0
O1759 O 0.03156 0.56105 0.53019 0.0
C1760 C 1.00236 0.52745 0.52285 0.0
C1761 C 0.06463 0.57196 0.47018 0.0
C1762 C 0.07997 0.57201 0.44236 0.0
C1763 C 0.08695 0.59059 0.4469 0.0
C1764 C 0.07175 0.59048 0.47468 0.0
C1765 C 0.08286 0.59974 0.46302 0.0
C1766 C 0.06881 0.56283 0.45405 0.0
C1767 C 0.03499 0.49931 0.50554 0.0
C1768 C 0.05266 0.562 0.48198 0.0
C1769 C 0.96752 0.55439 0.46242 0.0
C1770 C 0.96578 0.53612 0.45585 0.0
C1771 C 0.06187 0.53085 0.52926 0.0
C1772 C 0.00852 0.49146 0.58855 0.0
C1773 C 0.99774 0.49117 0.6189 0.0
C1774 C 0.00718 0.47736 0.62272 0.0
C1775 C 0.01816 0.47781 0.59261 0.0
C1776 C 0.99852 0.4982 0.60184 0.0
C1777 C 0.01746 0.47084 0.60965 0.0
C1778 C 0.02774 0.55876 0.5475 0.0
C1779 C 0.00808 0.49848 0.57044 0.0
H1780 H 0.09575 0.59796 0.43815 0.0
H1781 H 0.06867 0.59779 0.48709 0.0
H1782 H 0.08832 0.61403 0.46649 0.0
H1783 H 0.0632 0.54855 0.45042 0.0
H1784 H 0.00667 0.47174 0.63583 0.0
H1785 H 0.02607 0.47241 0.58262 0.0
H1786 H 0.99094 0.50862 0.59871 0.0
H1787 H 0.0248 0.46025 0.61268 0.0
Eu1788 Eu 0.80257 0.77031 0.27673 0.0
C1789 C 0.73498 0.79701 0.23467 0.0
N1790 N 0.74638 0.80524 0.24988 0.0
C1791 C 0.74814 0.83385 0.23795 0.0
C1792 C 0.72998 0.80693 0.22026 0.0
C1793 C 0.75264 0.82346 0.25192 0.0
C1794 C 0.73686 0.82554 0.22198 0.0
C1795 C 0.71627 0.76962 0.21804 0.0
C1796 C 0.72828 0.77857 0.23353 0.0
C1797 C 0.71139 0.77942 0.20357 0.0
C1798 C 0.71826 0.79802 0.20465 0.0
Eu1799 Eu 0.75418 0.78635 0.2721 0.0
N1800 N 0.73373 0.76934 0.24744 0.0
C1801 C 0.70959 0.75107 0.21755 0.0
C1802 C 0.72665 0.75146 0.24744 0.0
C1803 C 0.71465 0.74199 0.23243 0.0
H1804 H 0.76096 0.83008 0.26441 0.0
H1805 H 0.70921 0.72774 0.23241 0.0
H1806 H 0.79482 0.72655 0.28468 0.0
H1807 H 0.8415 0.83035 0.31984 0.0
H1808 H 0.72997 0.74456 0.25913 0.0
H1809 H 0.70033 0.74369 0.20591 0.0
H1810 H 0.82249 0.81342 0.29211 0.0
H1811 H 0.75329 0.84828 0.23954 0.0
H1812 H 0.70229 0.77276 0.1915 0.0
H1813 H 0.71434 0.80541 0.1934 0.0
H1814 H 0.8025 0.7085 0.30967 0.0
H1815 H 0.7334 0.83363 0.21118 0.0
H1816 H 0.85064 0.81413 0.34599 0.0
N1817 N 0.8088 0.75156 0.29948 0.0
C1818 C 0.81959 0.76005 0.31503 0.0
C1819 C 0.8073 0.72299 0.31138 0.0
C1820 C 0.82452 0.75018 0.32951 0.0
C1821 C 0.80279 0.73329 0.29734 0.0
C1822 C 0.81818 0.73145 0.32753 0.0
N1823 N 0.81994 0.78815 0.30282 0.0
C1824 C 0.82592 0.80632 0.30358 0.0
C1825 C 0.83652 0.78788 0.33271 0.0
C1826 C 0.8255 0.77878 0.31665 0.0
C1827 C 0.84214 0.80666 0.33389 0.0
C1828 C 0.83692 0.81589 0.31921 0.0
H1829 H 0.82167 0.7234 0.33836 0.0
H1830 H 0.83945 0.75186 0.35674 0.0
H1831 H 0.84997 0.78478 0.35951 0.0
O1832 O 0.8259 0.78047 0.262 0.0
O1833 O 0.79019 0.77747 0.30357 0.0
O1834 O 0.77527 0.79967 0.29579 0.0
O1835 O 0.82299 0.75412 0.2715 0.0
O1836 O 0.80026 0.79529 0.26217 0.0
O1837 O 0.77917 0.80887 0.27585 0.0
O1838 O 0.73108 0.77677 0.2877 0.0
O1839 O 0.76448 0.77715 0.24436 0.0
O1840 O 0.78374 0.75742 0.25103 0.0
O1841 O 0.73901 0.80508 0.28456 0.0
O1842 O 0.75741 0.76067 0.28521 0.0
O1843 O 0.77799 0.74737 0.27027 0.0
C1844 C 0.78226 0.79099 0.30844 0.0
C1845 C 0.84024 0.75874 0.24607 0.0
C1846 C 0.86487 0.76025 0.22619 0.0
C1847 C 0.85649 0.74321 0.21706 0.0
C1848 C 0.8322 0.74172 0.23657 0.0
C1849 C 0.84025 0.73409 0.22216 0.0
C1850 C 0.85664 0.76808 0.24071 0.0
C1851 C 0.79381 0.80975 0.26725 0.0
C1852 C 0.83263 0.76585 0.26267 0.0
C1853 C 0.83552 0.75924 0.34549 0.0
C1854 C 0.84152 0.77801 0.34707 0.0
C1855 C 0.77403 0.76488 0.23908 0.0
C1856 C 0.70899 0.79594 0.29241 0.0
C1857 C 0.68213 0.7946 0.30932 0.0
C1858 C 0.67628 0.8072 0.2984 0.0
C1859 C 0.70243 0.80821 0.28148 0.0
C1860 C 0.69855 0.78888 0.30621 0.0
C1861 C 0.68625 0.81379 0.28451 0.0
C1862 C 0.76282 0.74623 0.27807 0.0
C1863 C 0.72787 0.79297 0.29154 0.0
H1864 H 0.86261 0.7369 0.20598 0.0
H1865 H 0.81987 0.73409 0.24056 0.0
H1866 H 0.834 0.7209 0.21507 0.0
H1867 H 0.86318 0.78109 0.24807 0.0
H1868 H 0.66389 0.81196 0.30063 0.0
H1869 H 0.71013 0.81402 0.27097 0.0
H1870 H 0.70355 0.77968 0.31501 0.0
H1871 H 0.68158 0.82356 0.27628 0.0
Eu1872 Eu 0.76994 0.27606 0.79605 0.0
C1873 C 0.81363 0.24354 0.72597 0.0
N1874 N 0.81978 0.25657 0.7405 0.0
C1875 C 0.84747 0.24552 0.74517 0.0
C1876 C 0.82395 0.23048 0.721 0.0
C1877 C 0.83664 0.25801 0.74978 0.0
C1878 C 0.84102 0.23156 0.73088 0.0
C1879 C 0.78995 0.22965 0.7012 0.0
C1880 C 0.7969 0.24323 0.71606 0.0
C1881 C 0.79998 0.21634 0.69655 0.0
C1882 C 0.81697 0.2168 0.70636 0.0
Eu1883 Eu 0.80018 0.27663 0.74784 0.0
N1884 N 0.78725 0.25601 0.72125 0.0
C1885 C 0.77312 0.22986 0.69143 0.0
C1886 C 0.77148 0.25698 0.71091 0.0
C1887 C 0.764 0.24376 0.69613 0.0
H1888 H 0.84195 0.26898 0.76052 0.0
H1889 H 0.75126 0.24439 0.68828 0.0
H1890 H 0.72703 0.27976 0.78605 0.0
H1891 H 0.82329 0.3181 0.8471 0.0
H1892 H 0.76466 0.26804 0.7137 0.0
H1893 H 0.76727 0.21961 0.68 0.0
H1894 H 0.81035 0.29267 0.82396 0.0
H1895 H 0.86081 0.24671 0.75264 0.0
H1896 H 0.79478 0.20572 0.68527 0.0
H1897 H 0.82463 0.20654 0.70248 0.0
H1898 H 0.70623 0.29972 0.79534 0.0
H1899 H 0.8494 0.22184 0.72742 0.0
H1900 H 0.80454 0.33973 0.85751 0.0
N1901 N 0.74932 0.29414 0.80494 0.0
C1902 C 0.75556 0.3082 0.81831 0.0
C1903 C 0.72007 0.30228 0.8019 0.0
C1904 C 0.74422 0.32009 0.82387 0.0
C1905 C 0.73188 0.29101 0.79668 0.0
C1906 C 0.72627 0.31692 0.81553 0.0
N1907 N 0.78401 0.29925 0.82034 0.0
C1908 C 0.8017 0.30169 0.82794 0.0
C1909 C 0.78047 0.32581 0.83969 0.0
C1910 C 0.77343 0.31091 0.82617 0.0
C1911 C 0.79861 0.32841 0.84719 0.0
C1912 C 0.80923 0.31625 0.84133 0.0
H1913 H 0.71713 0.32572 0.81946 0.0
H1914 H 0.74269 0.34417 0.84175 0.0
H1915 H 0.77448 0.34924 0.85552 0.0
O1916 O 0.77115 0.25592 0.8151 0.0
O1917 O 0.77569 0.30301 0.78576 0.0
O1918 O 0.79981 0.29503 0.77413 0.0
O1919 O 0.74563 0.2563 0.79896 0.0
O1920 O 0.79865 0.26949 0.80057 0.0
O1921 O 0.81693 0.27664 0.77649 0.0
O1922 O 0.79946 0.29707 0.72874 0.0
O1923 O 0.78807 0.24785 0.75101 0.0
O1924 O 0.78051 0.26542 0.7721 0.0
O1925 O 0.82523 0.29177 0.74025 0.0
O1926 O 0.77064 0.28237 0.74427 0.0
O1927 O 0.75247 0.27277 0.76778 0.0
C1928 C 0.789 0.30659 0.77571 0.0
C1929 C 0.74511 0.24809 0.82954 0.0
C1930 C 0.74703 0.23974 0.86078 0.0
C1931 C 0.73283 0.2486 0.86458 0.0
C1932 C 0.73077 0.25687 0.83328 0.0
C1933 C 0.72456 0.25694 0.85074 0.0
C1934 C 0.75284 0.23915 0.84322 0.0
C1935 C 0.81447 0.27175 0.79342 0.0
C1936 C 0.75375 0.24961 0.81249 0.0
C1937 C 0.75117 0.33485 0.83736 0.0
C1938 C 0.76926 0.33773 0.84521 0.0
C1939 C 0.77969 0.24905 0.7653 0.0
C1940 C 0.82302 0.29953 0.70964 0.0
C1941 C 0.82343 0.31197 0.68022 0.0
C1942 C 0.83502 0.30055 0.67449 0.0
C1943 C 0.83435 0.28784 0.70372 0.0
C1944 C 0.81751 0.31142 0.69777 0.0
C1945 C 0.84034 0.28843 0.6862 0.0
C1946 C 0.75475 0.27841 0.75121 0.0
C1947 C 0.81693 0.29987 0.72812 0.0
H1948 H 0.72825 0.24912 0.87823 0.0
H1949 H 0.72465 0.26397 0.82295 0.0
H1950 H 0.71362 0.26382 0.85368 0.0
H1951 H 0.76407 0.23253 0.84051 0.0
H1952 H 0.83971 0.30085 0.66092 0.0
H1953 H 0.83866 0.27837 0.71261 0.0
H1954 H 0.80877 0.32045 0.70231 0.0
H1955 H 0.84913 0.2795 0.6817 0.0
Eu1956 Eu 0.76861 0.75523 0.7621 0.0
C1957 C 0.83037 0.81608 0.80519 0.0
N1958 N 0.81469 0.80623 0.80966 0.0
C1959 C 0.82909 0.80515 0.8403 0.0
C1960 C 0.84614 0.82044 0.8181 0.0
C1961 C 0.81376 0.80131 0.82718 0.0
C1962 C 0.84539 0.81464 0.83572 0.0
C1963 C 0.8463 0.83351 0.78329 0.0
C1964 C 0.83042 0.82283 0.78807 0.0
C1965 C 0.86209 0.83741 0.79594 0.0
C1966 C 0.86199 0.83099 0.81333 0.0
Eu1967 Eu 0.78898 0.80337 0.78731 0.0
N1968 N 0.81482 0.81933 0.77623 0.0
C1969 C 0.8457 0.84036 0.76609 0.0
C1970 C 0.81389 0.82686 0.75996 0.0
C1971 C 0.82939 0.83709 0.75443 0.0
H1972 H 0.80106 0.79528 0.83158 0.0
H1973 H 0.82868 0.84273 0.74133 0.0
H1974 H 0.75618 0.76384 0.71845 0.0
H1975 H 0.72737 0.72422 0.81284 0.0
H1976 H 0.80116 0.82512 0.75133 0.0
H1977 H 0.85764 0.84854 0.7619 0.0
H1978 H 0.75539 0.73857 0.8016 0.0
H1979 H 0.8282 0.80123 0.85414 0.0
H1980 H 0.87437 0.84569 0.79256 0.0
H1981 H 0.87417 0.8345 0.82312 0.0
H1982 H 0.7287 0.75752 0.69611 0.0
H1983 H 0.85716 0.81789 0.84606 0.0
H1984 H 0.69857 0.71777 0.79205 0.0
N1985 N 0.74277 0.7531 0.74054 0.0
C1986 C 0.72705 0.74408 0.74572 0.0
C1987 C 0.72799 0.7539 0.71008 0.0
C1988 C 0.71106 0.73982 0.73311 0.0
C1989 C 0.74351 0.75782 0.72296 0.0
C1990 C 0.71171 0.74486 0.71516 0.0
N1991 N 0.74258 0.74262 0.77551 0.0
C1992 C 0.74291 0.73707 0.79279 0.0
C1993 C 0.71062 0.72973 0.76924 0.0
C1994 C 0.72689 0.73889 0.76365 0.0
C1995 C 0.7108 0.72477 0.78725 0.0
C1996 C 0.72701 0.72845 0.79906 0.0
H1997 H 0.69976 0.74165 0.70504 0.0
H1998 H 0.68267 0.72693 0.72907 0.0
H1999 H 0.68224 0.71831 0.76068 0.0
O2000 O 0.76644 0.72615 0.76237 0.0
O2001 O 0.74841 0.77433 0.76852 0.0
O2002 O 0.76159 0.79029 0.796 0.0
O2003 O 0.77022 0.7381 0.73688 0.0
O2004 O 0.78347 0.755 0.79089 0.0
O2005 O 0.77971 0.78188 0.80572 0.0
O2006 O 0.77715 0.82723 0.78321 0.0
O2007 O 0.80899 0.7912 0.77015 0.0
O2008 O 0.79992 0.76021 0.76682 0.0
O2009 O 0.79288 0.82528 0.80964 0.0
O2010 O 0.77383 0.80151 0.75818 0.0
O2011 O 0.78052 0.77581 0.74364 0.0
C2012 C 0.74688 0.78322 0.78461 0.0
C2013 C 0.78261 0.71226 0.74059 0.0
C2014 C 0.80399 0.69332 0.74961 0.0
C2015 C 0.80723 0.69045 0.73097 0.0
C2016 C 0.78586 0.70905 0.72205 0.0
C2017 C 0.79821 0.69832 0.71731 0.0
C2018 C 0.79173 0.70435 0.75437 0.0
C2019 C 0.78321 0.7656 0.80617 0.0
C2020 C 0.76935 0.72349 0.74507 0.0
C2021 C 0.69501 0.73045 0.73864 0.0
C2022 C 0.69476 0.72553 0.75666 0.0
C2023 C 0.8124 0.77485 0.76636 0.0
C2024 C 0.78105 0.85245 0.80757 0.0
C2025 C 0.76652 0.87805 0.80435 0.0
C2026 C 0.77527 0.88627 0.82177 0.0
C2027 C 0.78987 0.8607 0.82496 0.0
C2028 C 0.76937 0.86113 0.79744 0.0
C2029 C 0.78693 0.87756 0.83202 0.0
C2030 C 0.77728 0.79223 0.74315 0.0
C2031 C 0.78369 0.83474 0.79996 0.0
H2032 H 0.8163 0.68166 0.72684 0.0
H2033 H 0.77877 0.71483 0.71118 0.0
H2034 H 0.80058 0.69585 0.70297 0.0
H2035 H 0.78925 0.70662 0.76872 0.0
H2036 H 0.77332 0.89947 0.82728 0.0
H2037 H 0.79901 0.85415 0.83306 0.0
H2038 H 0.7623 0.85462 0.78418 0.0
H2039 H 0.79375 0.88392 0.8454 0.0
Eu2040 Eu 0.55024 0.53463 0.53487 0.0
C2041 C 0.48901 0.47339 0.49264 0.0
N2042 N 0.49953 0.48862 0.48815 0.0
C2043 C 0.50143 0.4736 0.4581 0.0
C2044 C 0.4847 0.45748 0.48001 0.0
C2045 C 0.50526 0.48905 0.47095 0.0
C2046 C 0.49118 0.45771 0.46266 0.0
C2047 C 0.47176 0.45782 0.51488 0.0
C2048 C 0.48238 0.47364 0.5099 0.0
C2049 C 0.46747 0.44206 0.50226 0.0
C2050 C 0.47387 0.44191 0.48488 0.0
Eu2051 Eu 0.50165 0.51465 0.50936 0.0
N2052 N 0.48666 0.4891 0.52196 0.0
C2053 C 0.46592 0.45818 0.53252 0.0
C2054 C 0.48068 0.48951 0.53905 0.0
C2055 C 0.47049 0.47406 0.54467 0.0
H2056 H 0.51198 0.50144 0.46661 0.0
H2057 H 0.46588 0.47452 0.55829 0.0
H2058 H 0.54513 0.54861 0.57939 0.0
H2059 H 0.59113 0.57052 0.48733 0.0
H2060 H 0.4832 0.50171 0.54831 0.0
H2061 H 0.45786 0.44628 0.53687 0.0
H2062 H 0.57324 0.5442 0.49899 0.0
H2063 H 0.50601 0.47408 0.4445 0.0
H2064 H 0.45924 0.42987 0.50585 0.0
H2065 H 0.47037 0.42965 0.47529 0.0
H2066 H 0.55207 0.57642 0.60092 0.0
H2067 H 0.48804 0.44581 0.45256 0.0
H2068 H 0.59715 0.60039 0.50609 0.0
N2069 N 0.5552 0.56104 0.55652 0.0
C2070 C 0.56493 0.57626 0.55111 0.0
C2071 C 0.55542 0.57668 0.58683 0.0
C2072 C 0.56978 0.59246 0.56328 0.0
C2073 C 0.55103 0.56094 0.57435 0.0
C2074 C 0.56465 0.59257 0.58122 0.0
N2075 N 0.56742 0.55928 0.52289 0.0
C2076 C 0.57499 0.55728 0.50675 0.0
C2077 C 0.58204 0.59065 0.52812 0.0
C2078 C 0.57122 0.57535 0.53382 0.0
C2079 C 0.58882 0.58895 0.51096 0.0
C2080 C 0.58543 0.57213 0.50032 0.0
H2081 H 0.5683 0.60467 0.59103 0.0
H2082 H 0.58402 0.62034 0.56667 0.0
H2083 H 0.59455 0.61881 0.53579 0.0
O2084 O 0.57202 0.51985 0.53056 0.0
O2085 O 0.53832 0.55381 0.51663 0.0
O2086 O 0.5075 0.54579 0.51693 0.0
O2087 O 0.57289 0.53744 0.55651 0.0
O2088 O 0.54812 0.51896 0.50602 0.0
O2089 O 0.52273 0.52605 0.49132 0.0
O2090 O 0.4723 0.51194 0.50627 0.0
O2091 O 0.51951 0.49389 0.51732 0.0
O2092 O 0.5361 0.50825 0.54413 0.0
O2093 O 0.48726 0.51895 0.48327 0.0
O2094 O 0.50032 0.52846 0.53831 0.0
O2095 O 0.52839 0.52845 0.55418 0.0
C2096 C 0.522 0.55776 0.51447 0.0
C2097 C 0.59749 0.52139 0.55411 0.0
C2098 C 0.62153 0.50499 0.54923 0.0
C2099 C 0.6287 0.50976 0.56792 0.0
C2100 C 0.60477 0.52635 0.57276 0.0
C2101 C 0.62035 0.5205 0.57961 0.0
C2102 C 0.60596 0.51081 0.54243 0.0
C2103 C 0.539 0.52239 0.49089 0.0
C2104 C 0.58044 0.5261 0.54702 0.0
C2105 C 0.5802 0.60782 0.55749 0.0
C2106 C 0.58624 0.60694 0.53992 0.0
C2107 C 0.52935 0.49324 0.53319 0.0
C2108 C 0.45967 0.52896 0.48456 0.0
C2109 C 0.43843 0.54796 0.49286 0.0
C2110 C 0.43603 0.55174 0.47438 0.0
C2111 C 0.45704 0.53267 0.46609 0.0
C2112 C 0.45031 0.53664 0.49791 0.0
C2113 C 0.44532 0.54409 0.46107 0.0
C2114 C 0.51112 0.52949 0.5539 0.0
C2115 C 0.47148 0.51636 0.4894 0.0
H2116 H 0.64091 0.5055 0.57333 0.0
H2117 H 0.59831 0.53446 0.58207 0.0
H2118 H 0.62593 0.52427 0.59399 0.0
H2119 H 0.60036 0.50688 0.52804 0.0
H2120 H 0.42665 0.56024 0.47017 0.0
H2121 H 0.46395 0.52662 0.45553 0.0
H2122 H 0.45211 0.53378 0.5122 0.0
H2123 H 0.44326 0.54683 0.44679 0.0
Eu2124 Eu 0.00729 0.53 0.0359 0.0
C2125 C 0.07651 0.57139 1.00114 0.0
N2126 N 0.06437 0.55593 0.99453 0.0
C2127 C 0.06278 0.56521 0.96396 0.0
C2128 C 0.08174 0.58467 0.98932 0.0
C2129 C 0.05802 0.5524 0.97612 0.0
C2130 C 0.07453 0.58148 0.97061 0.0
C2131 C 0.09668 0.58984 0.02676 0.0
C2132 C 0.08406 0.57394 0.01975 0.0
C2133 C 0.10159 0.60313 0.01503 0.0
C2134 C 0.09417 0.60055 0.99639 0.0
Eu2135 Eu 0.05843 0.53532 0.0165 0.0
N2136 N 0.07889 0.56103 0.03105 0.0
C2137 C 0.10408 0.59187 0.04539 0.0
C2138 C 0.08663 0.56255 0.04892 0.0
C2139 C 0.09916 0.57809 0.05646 0.0
H2140 H 0.04975 0.53953 0.97056 0.0
H2141 H 0.10518 0.57934 0.07073 0.0
H2142 H 0.01784 0.52439 0.08154 0.0
H2143 H 0.95783 0.48798 0.98283 0.0
H2144 H 0.08349 0.55163 0.05717 0.0
H2145 H 0.11384 0.60387 0.05127 0.0
H2146 H 0.98149 0.51454 0.99583 0.0
H2147 H 0.05759 0.56239 0.9494 0.0
H2148 H 0.11124 0.61544 0.0202 0.0
H2149 H 0.09827 0.61088 0.98749 0.0
H2150 H 0.01023 0.50127 0.10228 0.0
H2151 H 0.07828 0.59132 0.9611 0.0
H2152 H 0.94868 0.46352 1.00223 0.0
N2153 N 1.00197 0.50879 0.05758 0.0
C2154 C 0.98923 0.49369 0.05119 0.0
C2155 C 1.00445 0.49884 0.08788 0.0
C2156 C 0.98405 0.48033 0.06294 0.0
C2157 C 0.00906 0.51181 0.07585 0.0
C2158 C 0.99204 0.48297 0.08137 0.0
N2159 N 0.98609 0.50465 0.02175 0.0
C2160 C 0.97777 0.50372 0.00415 0.0
C2161 C 0.96736 0.47642 0.0262 0.0
C2162 C 0.98086 0.49172 0.03297 0.0
C2163 C 0.95911 0.47506 0.00792 0.0
C2164 C 0.96429 0.48882 0.99688 0.0
H2165 H 0.98837 0.47304 0.09082 0.0
H2166 H 0.96672 0.45458 0.06496 0.0
H2167 H 0.95219 0.45114 0.03284 0.0
O2168 O 0.98455 0.54347 0.02649 0.0
O2169 O 0.01367 0.50343 0.02161 0.0
O2170 O 0.04311 0.5063 0.01326 0.0
O2171 O 0.98944 0.53757 0.05516 0.0
O2172 O 0.01583 0.5426 0.01072 0.0
O2173 O 0.03423 0.52742 0.99525 0.0
O2174 O 0.08366 0.52564 0.02535 0.0
O2175 O 0.04905 0.56199 0.02639 0.0
O2176 O 0.02622 0.55703 0.04589 0.0
O2177 O 0.07367 0.52487 0.99589 0.0
O2178 O 0.04966 0.52258 0.04153 0.0
O2179 O 0.03145 0.53754 0.05732 0.0
C2180 C 0.02713 0.49657 0.01512 0.0
C2181 C 0.96373 0.55159 0.04899 0.0
C2182 C 0.94018 0.5696 0.04488 0.0
C2183 C 0.93535 0.56633 0.06254 0.0
C2184 C 0.9584 0.54843 0.06658 0.0
C2185 C 0.94434 0.55574 0.07325 0.0
C2186 C 0.95435 0.56209 0.03796 0.0
C2187 C 0.01913 0.53346 0.99579 0.0
C2188 C 0.97947 0.54426 0.04314 0.0
C2189 C 0.9708 0.46496 0.05611 0.0
C2190 C 0.96248 0.46302 0.03782 0.0
C2191 C 0.03857 0.56789 0.03833 0.0
C2192 C 0.10119 0.51333 1.00184 0.0
C2193 C 0.12632 0.4974 0.00708 0.0
C2194 C 0.12859 0.49712 0.98815 0.0
C2195 C 0.10385 0.51279 0.98296 0.0
C2196 C 0.11245 0.50546 0.01394 0.0
C2197 C 0.11741 0.50472 0.97621 0.0
C2198 C 0.04661 0.53174 0.05648 0.0
C2199 C 0.08589 0.52118 0.00805 0.0
H2200 H 0.92448 0.57196 0.06802 0.0
H2201 H 0.96518 0.54035 0.07537 0.0
H2202 H 0.94046 0.55326 0.08684 0.0
H2203 H 0.95823 0.5647 0.02439 0.0
H2204 H 0.13891 0.49072 0.98251 0.0
H2205 H 0.09532 0.5185 0.97326 0.0
H2206 H 0.11042 0.50547 0.02846 0.0
H2207 H 0.11918 0.50424 0.96162 0.0
H2208 H 0.99115 0.19994 0.93107 0.0
H2209 H 0.99412 0.17102 0.9425 0.0
H2210 H 0.02876 0.19968 0.99062 0.0
H2211 H 0.02492 0.22845 0.97974 0.0
H2212 H 0.0187 0.15297 0.9484 0.0
H2213 H 0.99896 0.16708 0.01845 0.0
H2214 H 0.99683 0.18212 1.001 0.0
H2215 H 0.01834 0.18324 0.01467 0.0
C2216 C 0.99929 0.20012 0.94419 0.0
C2217 C 0.0076 0.21681 0.95447 0.0
C2218 C 1.00104 0.18341 0.95079 0.0
C2219 C 0.01131 0.18262 0.96791 0.0
C2220 C 0.02007 0.19937 0.97785 0.0
H2221 H 0.04077 0.09369 0.02916 0.0
H2222 H 0.03824 0.12273 0.01793 0.0
C2223 C 0.01804 0.21605 0.97143 0.0
C2224 C 0.01323 0.16447 0.97491 0.0
H2225 H 0.01213 0.14113 0.01335 0.0
C2226 C 0.01709 0.15048 0.96261 0.0
C2227 C 0.01128 0.16064 0.99351 0.0
C2228 C 1.00595 0.17399 0.0076 0.0
C2229 C 0.01935 0.13345 0.96822 0.0
C2230 C 0.01749 0.12969 0.98681 0.0
C2231 C 0.01369 0.14366 0.99914 0.0
C2232 C 0.01925 0.11148 0.99367 0.0
C2233 C 0.02428 0.11985 0.9541 0.0
C2234 C 0.00936 0.09494 0.98425 0.0
C2235 C 0.01114 0.07815 0.99049 0.0
C2236 C 0.02264 0.07706 0.00668 0.0
C2237 C 0.0321 0.09363 0.01646 0.0
C2238 C 0.0305 0.11045 0.01005 0.0
H2239 H 0.03087 0.12651 0.94288 0.0
H2240 H 0.03356 0.11184 0.96061 0.0
H2241 H 0.01175 0.11048 0.94755 0.0
H2242 H 0.99999 0.09494 0.97205 0.0
H2243 H 1.0033 0.06593 0.98258 0.0
H2244 H 0.11854 0.77847 0.12412 0.0
H2245 H 0.14611 0.77555 0.1435 0.0
H2246 H 0.13183 0.80952 0.18832 0.0
H2247 H 0.10404 0.81182 0.16932 0.0
H2248 H 0.17587 0.7965 0.15989 0.0
H2249 H 0.13971 0.76923 0.21657 0.0
H2250 H 0.12783 0.77231 0.19481 0.0
H2251 H 0.13521 0.79106 0.21272 0.0
C2252 C 0.12134 0.78545 0.13805 0.0
C2253 C 0.10887 0.79536 0.14505 0.0
C2254 C 0.13716 0.78371 0.14924 0.0
C2255 C 0.14109 0.79182 0.16781 0.0
C2256 C 0.12905 0.80246 0.17443 0.0
H2257 H 0.23162 0.80183 0.2565 0.0
H2258 H 0.20442 0.80466 0.23652 0.0
C2259 C 0.11316 0.804 0.16337 0.0
C2260 C 0.15767 0.78926 0.18013 0.0
H2261 H 0.17182 0.77825 0.22316 0.0
C2262 C 0.17485 0.79236 0.17365 0.0
C2263 C 0.15673 0.78376 0.19824 0.0
C2264 C 0.13886 0.77871 0.20592 0.0
C2265 C 0.19083 0.7906 0.18469 0.0
C2266 C 0.18988 0.78547 0.20286 0.0
C2267 C 0.17275 0.7823 0.20935 0.0
C2268 C 0.20646 0.78339 0.21531 0.0
C2269 C 0.20876 0.79469 0.17696 0.0
C2270 C 0.21673 0.77024 0.2105 0.0
C2271 C 0.23217 0.76839 0.22218 0.0
C2272 C 0.23794 0.7797 0.23897 0.0
C2273 C 0.22752 0.79269 0.24387 0.0
C2274 C 0.21198 0.79443 0.2323 0.0
H2275 H 0.20787 0.80212 0.16457 0.0
H2276 H 0.21937 0.80282 0.18761 0.0
H2277 H 0.2131 0.78182 0.17281 0.0
H2278 H 0.21267 0.76119 0.19778 0.0
H2279 H 0.23936 0.7578 0.21822 0.0
H2280 H 0.54052 0.82967 0.45971 0.0
H2281 H 0.54369 0.86084 0.47419 0.0
H2282 H 0.48555 0.85331 0.47273 0.0
H2283 H 0.48267 0.82184 0.45976 0.0
H2284 H 0.53587 0.88842 0.4628 0.0
H2285 H 0.49509 0.88043 0.52135 0.0
H2286 H 0.5008 0.86125 0.50837 0.0
H2287 H 0.48159 0.87062 0.50006 0.0
C2288 C 0.52849 0.83443 0.46332 0.0
C2289 C 0.51139 0.82288 0.45914 0.0
C2290 C 0.53025 0.85249 0.47136 0.0
C2291 C 0.51492 0.85991 0.4751 0.0
C2292 C 0.49781 0.84823 0.47094 0.0
H2293 H 0.49729 0.97153 0.50004 0.0
H2294 H 0.49444 0.93912 0.49071 0.0
C2295 C 0.49612 0.83003 0.46336 0.0
C2296 C 0.51683 0.87997 0.48197 0.0
H2297 H 0.50161 0.91018 0.51207 0.0
C2298 C 0.52848 0.89299 0.47376 0.0
C2299 C 0.5073 0.88655 0.4963 0.0
C2300 C 0.49567 0.87396 0.50714 0.0
C2301 C 0.53058 0.91183 0.47908 0.0
C2302 C 0.52076 0.91832 0.49305 0.0
C2303 C 0.5091 0.90544 0.50127 0.0
C2304 C 0.52246 0.93833 0.49932 0.0
C2305 C 0.5431 0.92474 0.46934 0.0
C2306 C 0.53908 0.94908 0.50759 0.0
C2307 C 0.54062 0.96769 0.51337 0.0
C2308 C 0.5256 0.97631 0.51106 0.0
C2309 C 0.50904 0.96552 0.50263 0.0
C2310 C 0.50744 0.94686 0.49708 0.0
H2311 H 0.54633 0.91812 0.45614 0.0
H2312 H 0.53704 0.93658 0.4663 0.0
H2313 H 0.55602 0.92974 0.4785 0.0
H2314 H 0.55092 0.94304 0.50976 0.0
H2315 H 0.55367 0.97533 0.51969 0.0
H2316 H 0.50307 0.25873 0.64314 0.0
H2317 H 0.47774 0.25858 0.66194 0.0
H2318 H 0.48128 0.31562 0.65871 0.0
H2319 H 0.50664 0.31572 0.63983 0.0
H2320 H 0.47468 0.27806 0.6961 0.0
H2321 H 0.4279 0.29398 0.63911 0.0
H2322 H 0.44887 0.28683 0.63512 0.0
H2323 H 0.44915 0.30964 0.64462 0.0
C2324 C 0.49861 0.27128 0.64672 0.0
C2325 C 0.50694 0.28728 0.64025 0.0
C2326 C 0.48409 0.27118 0.6574 0.0
C2327 C 0.47735 0.28703 0.66159 0.0
C2328 C 0.48599 0.30315 0.65548 0.0
H2329 H 0.39832 0.29276 0.74293 0.0
H2330 H 0.42367 0.30138 0.72465 0.0
C2331 C 0.50061 0.30326 0.64487 0.0
C2332 C 0.46113 0.28646 0.67206 0.0
H2333 H 0.41669 0.29125 0.6681 0.0
C2334 C 0.46206 0.28111 0.69002 0.0
C2335 C 0.44452 0.2902 0.6641 0.0
C2336 C 0.44238 0.29534 0.64463 0.0
C2337 C 0.44695 0.27937 0.70016 0.0
C2338 C 0.43038 0.2832 0.69226 0.0
C2339 C 0.42942 0.28856 0.6743 0.0
C2340 C 0.41361 0.2803 0.70193 0.0
C2341 C 0.44866 0.27281 0.71905 0.0
C2342 C 0.39897 0.26628 0.69483 0.0
C2343 C 0.38443 0.2615 0.70517 0.0
C2344 C 0.38405 0.27077 0.72276 0.0
C2345 C 0.39804 0.28563 0.72927 0.0
C2346 C 0.41267 0.29037 0.71894 0.0
H2347 H 0.46129 0.26746 0.72181 0.0
H2348 H 0.44887 0.28419 0.72987 0.0
H2349 H 0.43686 0.26203 0.72036 0.0
H2350 H 0.39931 0.25829 0.68178 0.0
H2351 H 0.37406 0.24974 0.69998 0.0
H2352 H 0.01255 0.78832 0.64122 0.0
H2353 H 0.01247 0.81244 0.62098 0.0
H2354 H 0.03042 0.85244 0.66834 0.0
H2355 H 0.03055 0.82859 0.68864 0.0
H2356 H 0.99374 0.8435 0.62265 0.0
H2357 H 0.06873 0.8639 0.63132 0.0
H2358 H 0.05714 0.84228 0.63666 0.0
H2359 H 0.05884 0.86219 0.65271 0.0
C2360 C 0.01642 0.80224 0.64738 0.0
C2361 C 0.02162 0.80641 0.66665 0.0
C2362 C 0.01631 0.81603 0.63576 0.0
C2363 C 0.0216 0.83428 0.64309 0.0
C2364 C 0.02647 0.83848 0.66231 0.0
H2365 H 0.0438 0.93925 0.60414 0.0
H2366 H 0.03512 0.91398 0.62222 0.0
C2367 C 0.02646 0.82476 0.67393 0.0
C2368 C 0.02255 0.84903 0.63077 0.0
H2369 H 0.05223 0.88369 0.61704 0.0
C2370 C 1.00652 0.85223 0.6213 0.0
C2371 C 0.03924 0.86035 0.62888 0.0
C2372 C 0.05701 0.85697 0.63777 0.0
C2373 C 0.00672 0.86684 0.61057 0.0
C2374 C 0.02338 0.87848 0.60918 0.0
C2375 C 0.03941 0.87497 0.61831 0.0
C2376 C 0.02478 0.89436 0.59832 0.0
C2377 C 0.98909 0.87005 0.60123 0.0
C2378 C 0.02119 0.89199 0.57885 0.0
C2379 C 0.02603 0.90652 0.56851 0.0
C2380 C 0.03445 0.92369 0.57744 0.0
C2381 C 0.03687 0.92631 0.59693 0.0
C2382 C 0.0321 0.9118 0.60725 0.0
H2383 H 0.97716 0.86212 0.60654 0.0
H2384 H 0.98844 0.88462 0.6033 0.0
H2385 H 0.98823 0.866 0.58609 0.0
H2386 H 0.01587 0.87865 0.57158 0.0
H2387 H 0.02455 0.904 0.5535 0.0
H2388 H 0.49532 0.79974 0.8176 0.0
H2389 H 0.46415 0.80025 0.80513 0.0
H2390 H 0.44836 0.79598 0.86007 0.0
H2391 H 0.47978 0.80076 0.87265 0.0
H2392 H 0.43531 0.7839 0.79753 0.0
H2393 H 0.41672 0.82752 0.85432 0.0
H2394 H 0.43985 0.82523 0.85352 0.0
H2395 H 0.4242 0.80908 0.86403 0.0
C2396 C 0.48551 0.80102 0.82717 0.0
C2397 C 0.4909 0.80261 0.8464 0.0
C2398 C 0.46718 0.80033 0.81995 0.0
C2399 C 0.45305 0.79944 0.83158 0.0
C2400 C 0.45837 0.79865 0.85057 0.0
H2401 H 0.33435 0.76586 0.80898 0.0
H2402 H 0.36686 0.76993 0.81891 0.0
C2403 C 0.47675 0.80092 0.85784 0.0
C2404 C 0.43299 0.79834 0.82397 0.0
H2405 H 0.39214 0.80805 0.83529 0.0
C2406 C 0.42622 0.78962 0.8059 0.0
C2407 C 0.42023 0.80574 0.83421 0.0
C2408 C 0.42572 0.81758 0.85246 0.0
C2409 C 0.40777 0.78782 0.79833 0.0
C2410 C 0.39509 0.79414 0.80913 0.0
C2411 C 0.40164 0.80289 0.82699 0.0
C2412 C 0.37497 0.79157 0.80237 0.0
C2413 C 0.4018 0.77898 0.77877 0.0
C2414 C 0.3682 0.80241 0.78971 0.0
C2415 C 0.34934 0.80021 0.78403 0.0
C2416 C 0.33654 0.78705 0.79076 0.0
C2417 C 0.34348 0.7762 0.80336 0.0
C2418 C 0.36225 0.7785 0.80913 0.0
H2419 H 0.41285 0.77372 0.77238 0.0
H2420 H 0.39007 0.7677 0.77858 0.0
H2421 H 0.39726 0.78899 0.77013 0.0
H2422 H 0.37752 0.81269 0.78424 0.0
H2423 H 0.34486 0.80864 0.77412 0.0
H2424 H 0.52501 0.21893 0.13538 0.0
H2425 H 0.52787 0.19233 0.11471 0.0
H2426 H 0.50163 0.15756 0.15159 0.0
H2427 H 0.49868 0.18429 0.17235 0.0
H2428 H 0.54525 0.15858 0.13037 0.0
H2429 H 0.47483 0.14113 0.09485 0.0
H2430 H 0.48724 0.16371 0.09469 0.0
H2431 H 0.48065 0.15621 0.11619 0.0
C2432 C 0.51945 0.20563 0.13892 0.0
C2433 C 0.51115 0.20385 0.15536 0.0
C2434 C 0.52129 0.19037 0.12713 0.0
C2435 C 0.51496 0.17277 0.13142 0.0
C2436 C 0.50661 0.17091 0.14783 0.0
H2437 H 0.50901 0.06387 0.07493 0.0
H2438 H 0.50596 0.09058 0.0952 0.0
C2439 C 0.50488 0.18623 0.15971 0.0
C2440 C 0.51748 0.15644 0.11905 0.0
H2441 H 0.49558 0.12379 0.08426 0.0
C2442 C 0.53436 0.15097 0.12033 0.0
C2443 C 0.50339 0.14633 0.10584 0.0
C2444 C 0.48541 0.15201 0.10282 0.0
C2445 C 0.53738 0.13578 0.10897 0.0
C2446 C 0.52325 0.12574 0.09571 0.0
C2447 C 0.50642 0.13123 0.09446 0.0
C2448 C 0.5255 0.10937 0.08326 0.0
C2449 C 0.55558 0.13029 0.11149 0.0
C2450 C 0.53733 0.11081 0.06941 0.0
C2451 C 0.53896 0.09547 0.05755 0.0
C2452 C 0.52895 0.07816 0.0593 0.0
C2453 C 0.51709 0.07683 0.07315 0.0
C2454 C 0.5153 0.09218 0.08481 0.0
H2455 H 0.56393 0.13726 0.12442 0.0
H2456 H 0.55384 0.11546 0.11187 0.0
H2457 H 0.56307 0.13377 0.09955 0.0
H2458 H 0.54519 0.12386 0.06761 0.0
H2459 H 0.54823 0.09717 0.04712 0.0
H2460 H 0.0772 0.29236 0.31491 0.0
H2461 H 0.10569 0.28676 0.30467 0.0
H2462 H 0.13435 0.31439 0.35647 0.0
H2463 H 0.10546 0.31892 0.36715 0.0
H2464 H 0.13362 0.30468 0.29581 0.0
H2465 H 0.15979 0.27447 0.35622 0.0
H2466 H 0.13716 0.27901 0.35381 0.0
H2467 H 0.15621 0.29671 0.36314 0.0
C2468 C 0.08952 0.29714 0.32425 0.0
C2469 C 0.08879 0.30605 0.34197 0.0
C2470 C 0.10602 0.29393 0.31832 0.0
C2471 C 0.12268 0.29973 0.32973 0.0
C2472 C 0.12197 0.30897 0.3474 0.0
H2473 H 0.23759 0.30426 0.3142 0.0
H2474 H 0.20828 0.30719 0.32439 0.0
C2475 C 0.10532 0.31177 0.35354 0.0
C2476 C 0.1405 0.29661 0.32275 0.0
H2477 H 0.18095 0.2835 0.33503 0.0
C2478 C 0.1438 0.29987 0.30447 0.0
C2479 C 0.1542 0.29019 0.33362 0.0
C2480 C 0.15159 0.28471 0.35269 0.0
C2481 C 0.16008 0.29747 0.29713 0.0
C2482 C 0.17392 0.29156 0.30821 0.0
C2483 C 0.17063 0.28816 0.3264 0.0
C2484 C 0.19204 0.2894 0.30153 0.0
C2485 C 0.16246 0.30179 0.27763 0.0
C2486 C 0.19324 0.27822 0.28521 0.0
C2487 C 0.21023 0.27658 0.27918 0.0
C2488 C 0.22671 0.28591 0.28935 0.0
C2489 C 0.22542 0.29686 0.30578 0.0
C2490 C 0.20849 0.29852 0.31175 0.0
H2491 H 0.15306 0.3105 0.27276 0.0
H2492 H 0.17658 0.30869 0.27664 0.0
H2493 H 0.1595 0.28903 0.26811 0.0
H2494 H 0.18102 0.27057 0.27711 0.0
H2495 H 0.21039 0.26804 0.26648 0.0
H2496 H 0.91962 0.0179 0.19667 0.0
H2497 H 0.93186 0.02062 0.16673 0.0
H2498 H 0.98561 0.0223 0.19351 0.0
H2499 H 0.97359 0.01995 0.22345 0.0
H2500 H 0.96447 0.05039 0.15843 0.0
H2501 H 0.97398 0.97924 0.14793 0.0
H2502 H 0.9577 0.98609 0.16235 0.0
H2503 H 0.98142 0.99155 0.17056 0.0
C2504 C 0.93406 0.0189 0.19621 0.0
C2505 C 0.94558 0.0187 0.21258 0.0
C2506 C 0.94105 0.02049 0.17905 0.0
C2507 C 0.95969 0.02158 0.17774 0.0
C2508 C 0.9712 0.02142 0.19406 0.0
H2509 H 0.02868 0.01883 0.08845 0.0
H2510 H 0.0151 0.01805 0.11752 0.0
C2511 C 0.96427 0.02012 0.21123 0.0
C2512 C 0.96718 0.02275 0.15942 0.0
H2513 H 0.98516 0.99851 0.12635 0.0
C2514 C 0.96889 0.03902 0.15134 0.0
C2515 C 0.97314 0.00801 0.15019 0.0
C2516 C 0.97144 0.99015 0.15804 0.0
C2517 C 0.9767 0.04105 0.13458 0.0
C2518 C 0.98256 0.02623 0.1252 0.0
C2519 C 0.98072 0.00992 0.13332 0.0
C2520 C 0.99099 0.02737 0.10728 0.0
C2521 C 0.97922 0.05932 0.1275 0.0
C2522 C 0.9821 0.0328 0.09147 0.0
C2523 C 0.99001 0.03348 0.07473 0.0
C2524 C 0.00698 0.02858 0.07322 0.0
C2525 C 0.01574 0.02299 0.08901 0.0
C2526 C 0.0079 0.02241 0.10572 0.0
H2527 H 0.9792 0.07028 0.13875 0.0
H2528 H 0.99214 0.06232 0.12127 0.0
H2529 H 0.96786 0.05946 0.1167 0.0
H2530 H 0.96885 0.03624 0.09193 0.0
H2531 H 0.9827 0.03765 0.06289 0.0
H2532 H 0.25185 0.66728 0.49999 0.0
H2533 H 0.25518 0.68717 0.4755 0.0
H2534 H 0.30373 0.66826 0.4629 0.0
H2535 H 0.29971 0.6475 0.48684 0.0
H2536 H 0.28151 0.71468 0.46925 0.0
H2537 H 0.27268 0.65687 0.41376 0.0
H2538 H 0.26855 0.65373 0.43728 0.0
H2539 H 0.29139 0.65839 0.43135 0.0
C2540 C 0.2632 0.66744 0.49193 0.0
C2541 C 0.27544 0.6559 0.4949 0.0
C2542 C 0.26518 0.67884 0.4781 0.0
C2543 C 0.27961 0.67903 0.46733 0.0
C2544 C 0.2923 0.66799 0.47085 0.0
H2545 H 0.27699 0.72339 0.3618 0.0
H2546 H 0.29161 0.71681 0.39111 0.0
C2547 C 0.29004 0.6562 0.48441 0.0
C2548 C 0.28035 0.68988 0.45161 0.0
H2549 H 0.27457 0.68562 0.40442 0.0
C2550 C 0.28032 0.70843 0.45505 0.0
C2551 C 0.27873 0.68161 0.43316 0.0
C2552 C 0.27768 0.66155 0.42857 0.0
C2553 C 0.27778 0.71876 0.44041 0.0
C2554 C 0.27534 0.71026 0.42203 0.0
C2555 C 0.27661 0.69205 0.4186 0.0
C2556 C 0.26863 0.71881 0.40619 0.0
C2557 C 0.27703 0.73845 0.4447 0.0
C2558 C 0.25101 0.72238 0.40519 0.0
C2559 C 0.24256 0.72596 0.38846 0.0
C2560 C 0.25165 0.72599 0.37256 0.0
C2561 C 0.26969 0.72345 0.37389 0.0
C2562 C 0.2781 0.71981 0.3906 0.0
H2563 H 0.28466 0.74418 0.45841 0.0
H2564 H 0.28261 0.74649 0.43386 0.0
H2565 H 0.2627 0.73981 0.44517 0.0
H2566 H 0.24337 0.72129 0.41701 0.0
H2567 H 0.22877 0.72821 0.38784 0.0
H2568 H 0.6313 0.05067 0.71403 0.0
H2569 H 0.61457 0.0522 0.68411 0.0
H2570 H 0.65134 0.02448 0.65639 0.0
H2571 H 0.66872 0.02342 0.68668 0.0
H2572 H 0.63176 0.06482 0.6467 0.0
H2573 H 0.59283 0.99509 0.6494 0.0
H2574 H 0.60316 0.00938 0.67033 0.0
H2575 H 0.61716 1.00007 0.65505 0.0
C2576 C 0.6358 0.04489 0.70153 0.0
C2577 C 0.6509 0.03655 0.70239 0.0
C2578 C 0.62643 0.046 0.68456 0.0
C2579 C 0.63189 0.03849 0.66833 0.0
C2580 C 0.64721 0.03044 0.66899 0.0
H2581 H 0.56918 0.01229 0.56317 0.0
H2582 H 0.59114 0.01535 0.59033 0.0
C2583 C 0.65693 0.0297 0.6861 0.0
C2584 C 0.62017 0.03761 0.6511 0.0
H2585 H 0.5829 0.01129 0.6259 0.0
C2586 C 0.62121 0.05308 0.64185 0.0
C2587 C 0.60633 0.02236 0.64543 0.0
C2588 C 0.60463 0.00572 0.65551 0.0
C2589 C 0.60861 0.05358 0.62664 0.0
C2590 C 0.59464 0.03836 0.62109 0.0
C2591 C 0.59367 0.02293 0.63041 0.0
C2592 C 0.58159 0.03744 0.60473 0.0
C2593 C 0.61041 0.07019 0.61653 0.0
C2594 C 0.5689 0.04882 0.60412 0.0
C2595 C 0.55632 0.04722 0.58844 0.0
C2596 C 0.55639 0.03416 0.5735 0.0
C2597 C 0.56888 0.02256 0.57447 0.0
C2598 C 0.58146 0.02428 0.58993 0.0
H2599 H 0.62385 0.07927 0.62039 0.0
H2600 H 0.60846 0.06634 0.60128 0.0
H2601 H 0.59978 0.07785 0.62005 0.0
H2602 H 0.56869 0.05879 0.61572 0.0
H2603 H 0.54675 0.05626 0.58791 0.0
H2604 H 0.27305 0.38165 0.96219 0.0
H2605 H 0.27121 0.36488 0.93168 0.0
H2606 H 0.29479 0.32375 0.95629 0.0
H2607 H 0.29645 0.34053 0.98724 0.0
H2608 H 0.3 0.35811 0.91481 0.0
H2609 H 0.25378 0.29317 0.91994 0.0
H2610 H 0.25559 0.31285 0.93655 0.0
H2611 H 0.27273 0.29927 0.93772 0.0
C2612 C 0.27758 0.36887 0.96125 0.0
C2613 C 0.28494 0.36249 0.97728 0.0
C2614 C 0.27654 0.35928 0.94369 0.0
C2615 C 0.28283 0.34298 0.9415 0.0
C2616 C 0.28956 0.33613 0.95753 0.0
H2617 H 0.29402 0.278 0.83738 0.0
H2618 H 0.29571 0.28987 0.87014 0.0
C2619 C 0.29051 0.34574 0.97527 0.0
C2620 C 0.28345 0.33417 0.9223 0.0
H2621 H 0.26749 0.29574 0.89217 0.0
C2622 C 0.29289 0.34445 0.90993 0.0
C2623 C 0.27428 0.3163 0.91579 0.0
C2624 C 0.26338 0.30475 0.92809 0.0
C2625 C 0.29332 0.33752 0.89139 0.0
C2626 C 0.28384 0.3198 0.88475 0.0
C2627 C 0.27475 0.30931 0.89719 0.0
C2628 C 0.2827 0.31233 0.86478 0.0
C2629 C 0.30406 0.34923 0.87908 0.0
C2630 C 0.27466 0.3208 0.85075 0.0
C2631 C 0.27387 0.31418 0.832 0.0
C2632 C 0.28098 0.29876 0.82669 0.0
C2633 C 0.28871 0.29006 0.84081 0.0
C2634 C 0.28955 0.29676 0.85962 0.0
H2635 H 0.3144 0.36015 0.88732 0.0
H2636 H 0.31097 0.34109 0.86965 0.0
H2637 H 0.29471 0.35569 0.87045 0.0
H2638 H 0.26892 0.33259 0.85429 0.0
H2639 H 0.26766 0.32122 0.82166 0.0
H2640 H 0.9231 0.01952 0.33725 0.0
H2641 H 0.9406 0.02077 0.36711 0.0
H2642 H 0.9892 0.0211 0.3406 0.0
H2643 H 0.97151 0.01965 0.30998 0.0
H2644 H 0.96155 0.99437 0.37795 0.0
H2645 H 1.00238 0.06421 0.38424 0.0
H2646 H 0.98167 0.05715 0.36862 0.0
H2647 H 1.00192 0.04974 0.36302 0.0
C2648 C 0.93755 0.02002 0.3375 0.0
C2649 C 0.94579 0.01949 0.3209 0.0
C2650 C 0.94755 0.02068 0.35478 0.0
C2651 C 0.96624 0.02107 0.35625 0.0
C2652 C 0.97479 0.02094 0.33987 0.0
H2653 H 0.03472 0.01595 0.46073 0.0
H2654 H 0.02368 0.01461 0.42768 0.0
C2655 C 0.96465 0.0201 0.32234 0.0
C2656 C 0.97621 0.02094 0.37503 0.0
H2657 H 1.00575 0.04763 0.40972 0.0
C2658 C 0.9714 0.00593 0.38478 0.0
C2659 C 0.98891 0.0361 0.38411 0.0
C2660 C 0.99404 0.05282 0.37461 0.0
C2661 C 0.97873 0.00576 0.40328 0.0
C2662 C 0.99115 0.02101 0.41245 0.0
C2663 C 0.9963 0.0359 0.40265 0.0
C2664 C 0.99807 0.022 0.43251 0.0
C2665 C 0.97292 0.98942 0.41315 0.0
C2666 C 0.98734 0.02654 0.44625 0.0
C2667 C 0.99363 0.02742 0.46514 0.0
C2668 C 0.01078 0.02364 0.47079 0.0
C2669 C 0.02145 0.01892 0.45695 0.0
C2670 C 0.01519 0.01821 0.43803 0.0
H2671 H 0.96486 0.97785 0.40356 0.0
H2672 H 0.98498 0.98517 0.42001 0.0
H2673 H 0.96455 0.99294 0.42415 0.0
H2674 H 0.97405 0.02943 0.44235 0.0
H2675 H 0.98496 0.031 0.47531 0.0
H2676 H 0.30558 0.67589 0.59726 0.0
H2677 H 0.30649 0.69347 0.6274 0.0
H2678 H 0.254 0.66256 0.6344 0.0
H2679 H 0.25366 0.64426 0.60496 0.0
H2680 H 0.283 0.71448 0.63265 0.0
H2681 H 0.2788 0.66626 0.68555 0.0
H2682 H 0.28399 0.66022 0.66241 0.0
H2683 H 0.26086 0.65971 0.66686 0.0
C2684 C 0.29462 0.67249 0.60566 0.0
C2685 C 0.27962 0.65883 0.5991 0.0
C2686 C 0.29509 0.68251 0.62272 0.0
C2687 C 0.28035 0.67919 0.63308 0.0
C2688 C 0.26572 0.66496 0.62685 0.0
H2689 H 0.25039 0.75513 0.71617 0.0
H2690 H 0.24979 0.73488 0.68754 0.0
C2691 C 0.2655 0.65459 0.61005 0.0
C2692 C 0.27923 0.69203 0.64904 0.0
H2693 H 0.27261 0.69543 0.69465 0.0
C2694 C 0.28083 0.71033 0.64624 0.0
C2695 C 0.27623 0.68646 0.66662 0.0
C2696 C 0.27504 0.66711 0.67058 0.0
C2697 C 0.27974 0.72331 0.66075 0.0
C2698 C 0.27665 0.71766 0.67818 0.0
C2699 C 0.27477 0.69943 0.681 0.0
C2700 C 0.27714 0.73068 0.69426 0.0
C2701 C 0.28244 0.74299 0.65766 0.0
C2702 C 0.29274 0.73477 0.70702 0.0
C2703 C 0.29303 0.74597 0.72322 0.0
C2704 C 0.27774 0.75323 0.72665 0.0
C2705 C 0.26229 0.74961 0.71357 0.0
C2706 C 0.26194 0.73817 0.69739 0.0
H2707 H 0.28495 0.74513 0.64318 0.0
H2708 H 0.27026 0.74845 0.66081 0.0
H2709 H 0.29413 0.75083 0.66727 0.0
H2710 H 0.30455 0.72904 0.70455 0.0
H2711 H 0.30517 0.74889 0.73308 0.0
H2712 H 0.67434 0.06152 0.82749 0.0
H2713 H 0.65362 0.05799 0.85117 0.0
H2714 H 0.61282 0.02344 0.81154 0.0
H2715 H 0.63347 0.02685 0.78756 0.0
H2716 H 0.61012 0.06299 0.8387 0.0
H2717 H 0.6272 1.00243 0.8689 0.0
H2718 H 0.64453 0.01786 0.85988 0.0
H2719 H 0.62633 1.00425 0.84427 0.0
C2720 C 0.66104 0.05301 0.82383 0.0
C2721 C 0.65549 0.04442 0.80574 0.0
C2722 C 0.6493 0.05099 0.83735 0.0
C2723 C 0.63198 0.04026 0.83297 0.0
C2724 C 0.62631 0.0316 0.81502 0.0
H2725 H 0.55056 0.05104 0.90707 0.0
H2726 H 0.56404 0.03745 0.88124 0.0
C2727 C 0.63803 0.03367 0.8014 0.0
C2728 C 0.61946 0.0395 0.84704 0.0
H2729 H 0.60935 0.01952 0.88569 0.0
C2730 C 0.60952 0.05326 0.84875 0.0
C2731 C 0.61916 0.02685 0.86006 0.0
C2732 C 0.62982 0.01192 0.85831 0.0
C2733 C 0.59977 0.05528 0.86385 0.0
C2734 C 0.59983 0.04297 0.87727 0.0
C2735 C 0.60928 0.02876 0.8752 0.0
C2736 C 0.5916 0.04617 0.89433 0.0
C2737 C 0.59036 0.07119 0.866 0.0
C2738 C 0.60275 0.05478 0.91036 0.0
C2739 C 0.59513 0.06253 0.92501 0.0
C2740 C 0.57636 0.06185 0.92355 0.0
C2741 C 0.56513 0.05206 0.90811 0.0
C2742 C 0.57273 0.04411 0.89358 0.0
H2743 H 0.59335 0.08057 0.85537 0.0
H2744 H 0.57547 0.06626 0.86469 0.0
H2745 H 0.59457 0.07887 0.87996 0.0
H2746 H 0.61738 0.05657 0.911 0.0
H2747 H 0.60391 0.06984 0.93701 0.0
H2748 H 0.27064 0.33739 0.07309 0.0
H2749 H 0.26733 0.32471 0.1025 0.0
H2750 H 0.30153 0.37297 0.13173 0.0
H2751 H 0.30432 0.38598 0.10233 0.0
H2752 H 0.2903 0.31527 0.12691 0.0
H2753 H 0.2614 0.36869 0.16349 0.0
H2754 H 0.26381 0.36781 0.13906 0.0
H2755 H 0.28291 0.37745 0.15605 0.0
C2756 C 0.27733 0.34542 0.08579 0.0
C2757 C 0.28765 0.36282 0.08524 0.0
C2758 C 0.27546 0.3381 0.10269 0.0
C2759 C 0.28389 0.34788 0.11963 0.0
C2760 C 0.29437 0.36522 0.11908 0.0
H2761 H 0.30497 0.29868 0.22195 0.0
H2762 H 0.30661 0.31186 0.19255 0.0
C2763 C 0.29608 0.37266 0.10217 0.0
C2764 C 0.28214 0.33965 0.13762 0.0
H2765 H 0.27117 0.34717 0.18192 0.0
C2766 C 0.28605 0.32229 0.13888 0.0
C2767 C 0.27631 0.34848 0.15336 0.0
C2768 C 0.27068 0.36655 0.1529 0.0
C2769 C 0.28467 0.31381 0.15529 0.0
C2770 C 0.27956 0.32297 0.17123 0.0
C2771 C 0.27529 0.34014 0.16988 0.0
C2772 C 0.2786 0.31503 0.18938 0.0
C2773 C 0.28829 0.29487 0.15523 0.0
C2774 C 0.26253 0.31293 0.19802 0.0
C2775 C 0.26178 0.30593 0.21524 0.0
C2776 C 0.27702 0.30069 0.22411 0.0
C2777 C 0.29299 0.30257 0.2154 0.0
C2778 C 0.29388 0.30996 0.19847 0.0
H2779 H 0.2875 0.28808 0.1409 0.0
H2780 H 0.30214 0.2954 0.16218 0.0
H2781 H 0.27847 0.28654 0.16287 0.0
H2782 H 0.25049 0.31661 0.19138 0.0
H2783 H 0.2492 0.30428 0.22144 0.0
H2784 H 0.25195 0.94255 0.0253 0.0
H2785 H 0.22373 0.95326 0.02938 0.0
H2786 H 0.21742 0.96148 0.9715 0.0
H2787 H 0.24578 0.95096 0.96733 0.0
H2788 H 0.21868 0.99296 0.00519 0.0
H2789 H 0.1689 0.9282 1.00213 0.0
H2790 H 0.19146 0.92975 0.01361 0.0
H2791 H 0.18818 0.9303 0.989 0.0
C2792 C 0.2443 0.94632 0.01342 0.0
C2793 C 0.25078 0.94607 0.99604 0.0
C2794 C 0.22835 0.95242 0.01575 0.0
C2795 C 0.21877 0.958 1.00067 0.0
C2796 C 0.22486 0.95718 0.98317 0.0
H2797 H 0.11642 0.99045 0.01619 0.0
H2798 H 0.14119 0.98271 0.99959 0.0
C2799 C 0.24092 0.95125 0.98085 0.0
C2800 C 0.20307 0.96593 0.00368 0.0
H2801 H 0.15954 0.95504 0.01305 0.0
C2802 C 0.20558 0.98479 0.00656 0.0
C2803 C 0.18627 0.955 0.0054 0.0
C2804 C 0.18337 0.93466 1.00231 0.0
C2805 C 0.19166 0.99311 0.01214 0.0
C2806 C 0.1751 0.98213 0.01477 0.0
C2807 C 0.17233 0.9633 0.01087 0.0
C2808 C 0.1612 0.98953 0.02374 0.0
C2809 C 0.19493 0.01343 0.01583 0.0
C2810 C 0.16452 0.99581 0.04269 0.0
C2811 C 0.15044 0.99989 0.05221 0.0
C2812 C 0.133 0.99779 0.04278 0.0
C2813 C 0.12984 0.99205 0.02366 0.0
C2814 C 0.14389 0.98781 0.01419 0.0
H2815 H 0.20629 0.01992 0.00862 0.0
H2816 H 0.18254 0.01857 0.01134 0.0
H2817 H 0.1985 0.01751 0.03096 0.0
H2818 H 0.17783 0.99687 0.05023 0.0
H2819 H 0.1531 1.0046 0.0669 0.0
H2820 H 0.72836 0.62564 0.01883 0.0
H2821 H 0.69956 0.60496 0.01952 0.0
H2822 H 0.67084 0.64406 0.99761 0.0
H2823 H 0.6999 0.66435 0.9959 0.0
H2824 H 0.6725 0.60888 0.03886 0.0
H2825 H 0.64621 0.59967 0.96439 0.0
H2826 H 0.66858 0.61222 0.97289 0.0
H2827 H 0.64925 0.62277 0.97427 0.0
C2828 C 0.71591 0.62956 0.01358 0.0
C2829 C 0.71638 0.64624 0.00652 0.0
C2830 C 0.69942 0.61783 0.01423 0.0
C2831 C 0.68291 0.62269 0.00826 0.0
C2832 C 0.68334 0.63968 1.00175 0.0
H2833 H 0.5696 0.5732 0.0048 0.0
H2834 H 0.5988 0.59229 1.00295 0.0
C2835 C 0.69992 0.65134 1.00088 0.0
C2836 C 0.66538 0.61031 0.00978 0.0
H2837 H 0.62547 0.58807 0.98509 0.0
C2838 C 0.66225 0.60426 0.02706 0.0
C2839 C 0.65186 0.60433 0.99448 0.0
C2840 C 0.65419 0.60996 0.97543 0.0
C2841 C 0.64594 0.59281 0.02958 0.0
C2842 C 0.6325 0.58668 0.01421 0.0
C2843 C 0.63571 0.59265 0.99691 0.0
C2844 C 0.61471 0.57474 0.01576 0.0
C2845 C 0.6431 0.58802 0.04886 0.0
C2846 C 0.61367 0.55828 0.02347 0.0
C2847 C 0.5968 0.54741 0.02497 0.0
C2848 C 0.58057 0.55248 0.01826 0.0
C2849 C 0.58172 0.56873 0.0101 0.0
C2850 C 0.5985 0.57972 0.009 0.0
H2851 H 0.65186 0.59802 0.05966 0.0
H2852 H 0.62876 0.58729 0.05148 0.0
H2853 H 0.64673 0.57466 0.05042 0.0
H2854 H 0.6259 0.55377 0.02832 0.0
H2855 H 0.59652 0.53512 0.03147 0.0
H2856 H 0.63607 0.48243 0.27688 0.0
H2857 H 0.64739 0.45385 0.27318 0.0
H2858 H 0.70133 0.48247 0.29419 0.0
H2859 H 0.69039 0.51042 0.29822 0.0
H2860 H 0.67447 0.44353 0.25309 0.0
H2861 H 0.69444 0.44313 0.32803 0.0
H2862 H 0.67988 0.45767 0.31941 0.0
H2863 H 0.70414 0.464 0.31999 0.0
C2864 C 0.65032 0.48256 0.28066 0.0
C2865 C 0.66218 0.49876 0.28813 0.0
C2866 C 0.65677 0.46624 0.27861 0.0
C2867 C 0.67513 0.46591 0.284 0.0
C2868 C 0.68702 0.48219 0.29058 0.0
H2869 H 0.75481 0.40029 0.27255 0.0
H2870 H 0.73707 0.42304 0.28185 0.0
C2871 C 0.68066 0.49828 0.29274 0.0
C2872 C 0.68238 0.44886 0.28253 0.0
H2873 H 0.70836 0.42464 0.30726 0.0
C2874 C 0.68153 0.43915 0.26499 0.0
C2875 C 0.69176 0.4432 0.29806 0.0
C2876 C 0.69247 0.45246 0.31745 0.0
C2877 C 0.69049 0.42452 0.26242 0.0
C2878 C 0.70036 0.41929 0.27785 0.0
C2879 C 0.70079 0.42865 0.29546 0.0
C2880 C 0.7111 0.40478 0.27563 0.0
C2881 C 0.69007 0.41528 0.24307 0.0
C2882 C 0.70248 0.38676 0.27002 0.0
C2883 C 0.71263 0.37372 0.26497 0.0
C2884 C 0.73156 0.37848 0.26556 0.0
C2885 C 0.74028 0.3962 0.27243 0.0
C2886 C 0.73013 0.40923 0.27755 0.0
H2887 H 0.68433 0.42276 0.2323 0.0
H2888 H 0.70395 0.41384 0.2402 0.0
H2889 H 0.6816 0.40152 0.24188 0.0
H2890 H 0.68782 0.38301 0.2686 0.0
H2891 H 0.7056 0.36025 0.2593 0.0
H2892 H 0.83489 0.4675 0.51225 0.0
H2893 H 0.86579 0.48417 0.51697 0.0
H2894 H 0.88474 0.43358 0.51434 0.0
H2895 H 0.85371 0.41729 0.50472 0.0
H2896 H 0.88933 0.48778 0.54168 0.0
H2897 H 0.9176 0.45561 0.48245 0.0
H2898 H 0.89371 0.45102 0.48452 0.0
H2899 H 0.9089 0.43941 0.49723 0.0
C2900 C 0.84575 0.46015 0.51093 0.0
C2901 C 0.84217 0.44148 0.50599 0.0
C2902 C 0.86342 0.46956 0.5145 0.0
C2903 C 0.87778 0.46018 0.51523 0.0
C2904 C 0.87405 0.44121 0.5125 0.0
H2905 H 0.99172 0.49463 0.53375 0.0
H2906 H 0.96114 0.4801 0.53741 0.0
C2907 C 0.85636 0.43191 0.50727 0.0
C2908 C 0.89644 0.47047 0.51934 0.0
H2909 H 0.93847 0.4749 0.5052 0.0
C2910 C 0.90001 0.48501 0.53356 0.0
C2911 C 0.91038 0.46692 0.50871 0.0
C2912 C 0.90738 0.45252 0.49228 0.0
C2913 C 0.91705 0.49624 0.53728 0.0
C2914 C 0.93099 0.4922 0.52713 0.0
C2915 C 0.92761 0.47762 0.51313 0.0
C2916 C 0.94934 0.5029 0.53046 0.0
C2917 C 0.91995 0.51237 0.55182 0.0
C2918 C 0.95275 0.5208 0.52632 0.0
C2919 C 0.9705 0.52957 0.52566 0.0
C2920 C 0.98479 0.52024 0.5285 0.0
C2921 C 0.98126 0.50255 0.53309 0.0
C2922 C 0.96369 0.49409 0.53461 0.0
H2923 H 0.90915 0.51122 0.56121 0.0
H2924 H 0.93334 0.51414 0.56025 0.0
H2925 H 0.91966 0.52472 0.54482 0.0
H2926 H 0.94172 0.52752 0.5224 0.0
H2927 H 0.97287 0.54309 0.52149 0.0
H2928 H 0.36179 0.05634 0.27528 0.0
H2929 H 0.34923 0.08337 0.27078 0.0
H2930 H 0.34825 0.09385 0.32989 0.0
H2931 H 0.36058 0.06646 0.33447 0.0
H2932 H 0.31281 0.09021 0.2986 0.0
H2933 H 0.37625 0.13925 0.29259 0.0
H2934 H 0.37404 0.11611 0.28278 0.0
H2935 H 0.37591 0.12141 0.30747 0.0
C2936 C 0.35921 0.06464 0.2873 0.0
C2937 C 0.36212 0.05965 0.3052 0.0
C2938 C 0.35201 0.0799 0.28473 0.0
C2939 C 0.34798 0.09035 0.30006 0.0
C2940 C 0.35133 0.08571 0.31802 0.0
H2941 H 0.31315 0.19041 0.28153 0.0
H2942 H 0.32178 0.16654 0.29884 0.0
C2943 C 0.35832 0.07025 0.32059 0.0
C2944 C 0.33944 0.10566 0.29692 0.0
H2945 H 0.34841 0.14766 0.28327 0.0
C2946 C 0.3205 0.10298 0.29565 0.0
C2947 C 0.34974 0.122 0.29296 0.0
C2948 C 0.37014 0.12503 0.29405 0.0
C2949 C 0.31141 0.11623 0.2896 0.0
C2950 C 0.3217 0.1323 0.28488 0.0
C2951 C 0.34069 0.13527 0.28707 0.0
C2952 C 0.31325 0.14555 0.27582 0.0
C2953 C 0.29098 0.11275 0.28765 0.0
C2954 C 0.30559 0.14137 0.25727 0.0
C2955 C 0.30096 0.15497 0.24729 0.0
C2956 C 0.3039 0.17277 0.25587 0.0
C2957 C 0.31083 0.17672 0.27469 0.0
C2958 C 0.31561 0.16318 0.28459 0.0
H2959 H 0.28538 0.10186 0.29589 0.0
H2960 H 0.28605 0.12522 0.29214 0.0
H2961 H 0.28568 0.10851 0.27285 0.0
H2962 H 0.30401 0.1278 0.2503 0.0
H2963 H 0.29537 0.15168 0.23285 0.0
H2964 H 0.31625 0.15113 0.47867 0.0
H2965 H 0.34332 0.13763 0.48323 0.0
H2966 H 0.33631 0.13588 0.54107 0.0
H2967 H 0.30946 0.14981 0.53667 0.0
H2968 H 0.37701 0.15011 0.51946 0.0
H2969 H 0.33417 0.08098 0.50683 0.0
H2970 H 0.32753 0.09982 0.49636 0.0
H2971 H 0.32642 0.09847 0.52064 0.0
C2972 C 0.3208 0.14828 0.49244 0.0
C2973 C 0.31098 0.1517 0.50738 0.0
C2974 C 0.33616 0.14052 0.495 0.0
C2975 C 0.34169 0.13571 0.51245 0.0
C2976 C 0.33225 0.13962 0.52753 0.0
H2977 H 0.41603 0.07506 0.55957 0.0
H2978 H 0.38975 0.08801 0.54939 0.0
C2979 C 0.31706 0.14769 0.52505 0.0
C2980 C 0.35672 0.12574 0.5147 0.0
H2981 H 0.36547 0.08315 0.51566 0.0
C2982 C 0.37456 0.13548 0.51851 0.0
C2983 C 0.35338 0.10667 0.51337 0.0
C2984 C 0.33437 0.09573 0.50901 0.0
C2985 C 0.38921 0.12662 0.52155 0.0
C2986 C 0.38588 0.10751 0.52046 0.0
C2987 C 0.368 0.09777 0.51637 0.0
C2988 C 0.40067 0.09757 0.52496 0.0
C2989 C 0.40806 0.1378 0.52655 0.0
C2990 C 0.41516 0.09797 0.51416 0.0
C2991 C 0.43008 0.09038 0.51987 0.0
C2992 C 0.4307 0.08238 0.53647 0.0
C2993 C 0.4158 0.08117 0.54672 0.0
C2994 C 0.40084 0.08857 0.54093 0.0
H2995 H 0.40785 0.1523 0.53041 0.0
H2996 H 0.41535 0.13272 0.5383 0.0
H2997 H 0.41583 0.13679 0.51445 0.0
H2998 H 0.41519 0.10465 0.50166 0.0
H2999 H 0.44149 0.09154 0.51183 0.0
H3000 H 0.67754 0.58006 0.27369 0.0
H3001 H 0.69653 0.60903 0.2701 0.0
H3002 H 0.66772 0.63608 0.30879 0.0
H3003 H 0.64783 0.60697 0.31141 0.0
H3004 H 0.67294 0.65498 0.28 0.0
H3005 H 0.7384 0.63697 0.30379 0.0
H3006 H 0.72669 0.62209 0.28395 0.0
H3007 H 0.71677 0.62288 0.30537 0.0
C3008 C 0.6754 0.59219 0.28159 0.0
C3009 C 0.66139 0.59127 0.29303 0.0
C3010 C 0.68634 0.60878 0.27959 0.0
C3011 C 0.68394 0.62487 0.28945 0.0
C3012 C 0.66993 0.62393 0.30101 0.0
H3013 H 0.74158 0.73655 0.30515 0.0
H3014 H 0.72212 0.70721 0.30691 0.0
C3015 C 0.65863 0.60731 0.30262 0.0
C3016 C 0.69576 0.64263 0.28733 0.0
H3017 H 0.74009 0.66436 0.28981 0.0
C3018 C 0.68761 0.65702 0.2823 0.0
C3019 C 0.715 0.64543 0.29003 0.0
C3020 C 0.7248 0.63108 0.29623 0.0
C3021 C 0.69809 0.67391 0.27992 0.0
C3022 C 0.71723 0.6766 0.28277 0.0
C3023 C 0.72541 0.66226 0.28756 0.0
C3024 C 0.72901 0.6944 0.2815 0.0
C3025 C 0.68872 0.68873 0.27398 0.0
C3026 C 0.73974 0.69682 0.26688 0.0
C3027 C 0.7511 0.71353 0.26598 0.0
C3028 C 0.75187 0.72814 0.27966 0.0
C3029 C 0.74121 0.7256 0.29435 0.0
C3030 C 0.73001 0.70887 0.29533 0.0
H3031 H 0.67388 0.68392 0.2703 0.0
H3032 H 0.69096 0.69993 0.28542 0.0
H3033 H 0.6946 0.69426 0.26183 0.0
H3034 H 0.73919 0.68583 0.25608 0.0
H3035 H 0.75892 0.71517 0.25434 0.0
H3036 H 0.84153 0.47616 0.78549 0.0
H3037 H 0.82579 0.44503 0.78231 0.0
H3038 H 0.87757 0.42813 0.7873 0.0
H3039 H 0.89284 0.45962 0.79544 0.0
H3040 H 0.8227 0.42054 0.75946 0.0
H3041 H 0.85665 0.39649 0.82062 0.0
H3042 H 0.86054 0.42002 0.81723 0.0
H3043 H 0.87275 0.40477 0.80553 0.0
C3044 C 0.84932 0.46576 0.78756 0.0
C3045 C 0.86799 0.4701 0.79285 0.0
C3046 C 0.84045 0.44792 0.78491 0.0
C3047 C 0.85043 0.43406 0.78544 0.0
C3048 C 0.86946 0.43847 0.78828 0.0
H3049 H 0.81984 0.32015 0.76162 0.0
H3050 H 0.83299 0.35182 0.76122 0.0
C3051 C 0.87819 0.45642 0.7926 0.0
C3052 C 0.84072 0.41517 0.78235 0.0
H3053 H 0.83852 0.37404 0.79814 0.0
C3054 C 0.82606 0.41052 0.76819 0.0
C3055 C 0.84504 0.40201 0.7937 0.0
C3056 C 0.85947 0.40616 0.81022 0.0
C3057 C 0.81549 0.39319 0.76523 0.0
C3058 C 0.82044 0.38006 0.77595 0.0
C3059 C 0.83511 0.38441 0.78989 0.0
C3060 C 0.81076 0.36146 0.77283 0.0
C3061 C 0.79911 0.38897 0.75082 0.0
C3062 C 0.79372 0.35677 0.77893 0.0
C3063 C 0.78589 0.33866 0.77862 0.0
C3064 C 0.79533 0.32526 0.7726 0.0
C3065 C 0.81206 0.33014 0.7658 0.0
C3066 C 0.81969 0.34819 0.76578 0.0
H3067 H 0.79839 0.40016 0.74214 0.0
H3068 H 0.7992 0.37641 0.7417 0.0
H3069 H 0.78664 0.38667 0.75791 0.0
H3070 H 0.78694 0.36705 0.78473 0.0
H3071 H 0.77301 0.33523 0.7841 0.0
H3072 H 0.02221 0.82778 0.07397 0.0
H3073 H 0.02106 0.85731 0.06415 0.0
H3074 H 0.07268 0.87918 0.09616 0.0
H3075 H 0.07403 0.84914 0.10615 0.0
H3076 H 0.01938 0.88902 0.08226 0.0
H3077 H 0.08168 0.89848 0.04708 0.0
H3078 H 0.07181 0.87705 0.05423 0.0
H3079 H 0.08546 0.89443 0.0709 0.0
C3080 C 0.03352 0.83871 0.07899 0.0
C3081 C 0.04833 0.83564 0.09092 0.0
C3082 C 0.03275 0.85583 0.0733 0.0
C3083 C 0.04683 0.87082 0.07903 0.0
C3084 C 0.06168 0.86797 0.09108 0.0
H3085 H 0.0573 0.98613 0.06081 0.0
H3086 H 0.06096 0.95706 0.0712 0.0
C3087 C 0.0624 0.8507 0.09698 0.0
C3088 C 0.04544 0.88917 0.07256 0.0
H3089 H 0.0667 0.92336 0.04968 0.0
C3090 C 0.0298 0.89643 0.07514 0.0
C3091 C 0.05877 0.89913 0.06299 0.0
C3092 C 0.0753 0.89185 0.05843 0.0
C3093 C 0.02731 0.9131 0.06885 0.0
C3094 C 0.0407 0.9231 0.05945 0.0
C3095 C 0.05637 0.91593 0.0569 0.0
C3096 C 0.0387 0.94102 0.05243 0.0
C3097 C 0.0104 0.92008 0.07259 0.0
C3098 C 0.02517 0.94212 0.03803 0.0
C3099 C 0.02333 0.95888 0.03168 0.0
C3100 C 0.03465 0.97527 0.03979 0.0
C3101 C 0.04821 0.97404 0.05415 0.0
C3102 C 0.05033 0.95727 0.06018 0.0
H3103 H 1.00309 0.91278 0.083 0.0
H3104 H 0.01378 0.93473 0.07762 0.0
H3105 H 1.00113 0.9183 0.05949 0.0
H3106 H 0.01606 0.92993 0.03151 0.0
H3107 H 0.01297 0.9589 0.02042 0.0
H3108 H 0.94267 0.27842 0.92955 0.0
H3109 H 0.91506 0.27758 0.90826 0.0
H3110 H 0.93814 0.25037 0.86452 0.0
H3111 H 0.96519 0.25061 0.88592 0.0
H3112 H 0.90979 0.29291 0.87808 0.0
H3113 H 0.8895 0.21949 0.85687 0.0
H3114 H 0.90683 0.22869 0.87587 0.0
H3115 H 0.91219 0.22792 0.85226 0.0
C3116 C 0.94166 0.27199 0.91547 0.0
C3117 C 0.9563 0.26493 0.90931 0.0
C3118 C 0.92589 0.27158 0.90322 0.0
C3119 C 0.92417 0.26374 0.88461 0.0
C3120 C 0.93863 0.25611 0.87877 0.0
H3121 H 0.85091 0.28402 0.79039 0.0
H3122 H 0.87729 0.28188 0.81188 0.0
C3123 C 0.95431 0.25648 0.891 0.0
C3124 C 0.9078 0.26433 0.87113 0.0
H3125 H 0.87524 0.2385 0.83835 0.0
C3126 C 0.90239 0.28099 0.86938 0.0
C3127 C 0.89762 0.24878 0.85981 0.0
C3128 C 0.90171 0.2302 0.86142 0.0
C3129 C 0.8877 0.2826 0.85649 0.0
C3130 C 0.8778 0.26715 0.84501 0.0
C3131 C 0.88289 0.25042 0.84695 0.0
C3132 C 0.86172 0.268 0.83146 0.0
C3133 C 0.8826 0.30083 0.8554 0.0
C3134 C 0.84406 0.26068 0.83499 0.0
C3135 C 0.82889 0.2617 0.82258 0.0
C3136 C 0.83089 0.26998 0.80614 0.0
C3137 C 0.84867 0.27718 0.80258 0.0
C3138 C 0.86385 0.27617 0.81504 0.0
H3139 H 0.89056 0.31125 0.86633 0.0
H3140 H 0.885 0.30535 0.84164 0.0
H3141 H 0.86794 0.29985 0.85676 0.0
H3142 H 0.84196 0.25435 0.84753 0.0
H3143 H 0.81554 0.25604 0.82599 0.0
H3144 H 0.54888 0.24462 0.56983 0.0
H3145 H 0.54454 0.21291 0.55685 0.0
H3146 H 0.55141 0.19818 0.61245 0.0
H3147 H 0.55123 0.22891 0.62493 0.0
H3148 H 0.55991 0.18885 0.55258 0.0
H3149 H 0.51313 0.15843 0.59956 0.0
H3150 H 0.51878 0.18251 0.59963 0.0
H3151 H 0.53328 0.17069 0.61314 0.0
C3152 C 0.5477 0.23437 0.57917 0.0
C3153 C 0.54837 0.23938 0.59838 0.0
C3154 C 0.54601 0.21607 0.57178 0.0
C3155 C 0.54647 0.20219 0.58345 0.0
C3156 C 0.54924 0.2077 0.60274 0.0
H3157 H 0.56861 0.09368 0.54618 0.0
H3158 H 0.57133 0.12617 0.55562 0.0
C3159 C 0.54955 0.22567 0.61 0.0
C3160 C 0.54491 0.18236 0.57565 0.0
H3161 H 0.52872 0.13848 0.58348 0.0
C3162 C 0.55289 0.178 0.55942 0.0
C3163 C 0.53551 0.16753 0.5839 0.0
C3164 C 0.52454 0.17007 0.59986 0.0
C3165 C 0.55205 0.15986 0.55172 0.0
C3166 C 0.5437 0.14528 0.56074 0.0
C3167 C 0.53552 0.1495 0.57668 0.0
C3168 C 0.54242 0.12556 0.55356 0.0
C3169 C 0.55944 0.15641 0.5335 0.0
C3170 C 0.52538 0.11397 0.54929 0.0
C3171 C 0.52386 0.09536 0.54385 0.0
C3172 C 0.53933 0.08749 0.54252 0.0
C3173 C 0.55641 0.09912 0.5466 0.0
C3174 C 0.55795 0.11783 0.55206 0.0
H3175 H 0.56259 0.1689 0.52661 0.0
H3176 H 0.57205 0.151 0.5359 0.0
H3177 H 0.5495 0.14615 0.52396 0.0
H3178 H 0.51311 0.11932 0.55026 0.0
H3179 H 0.51041 0.0871 0.54064 0.0
H3180 H 0.54891 0.74523 0.40926 0.0
H3181 H 0.57584 0.7435 0.39298 0.0
H3182 H 0.5894 0.80163 0.39799 0.0
H3183 H 0.56246 0.80338 0.41377 0.0
H3184 H 0.58229 0.76421 0.35742 0.0
H3185 H 0.6377 0.78106 0.41585 0.0
H3186 H 0.61483 0.77042 0.41876 0.0
H3187 H 0.61999 0.79407 0.41624 0.0
C3188 C 0.55803 0.75761 0.40746 0.0
C3189 C 0.55383 0.77446 0.41322 0.0
C3190 C 0.57326 0.75661 0.39794 0.0
C3191 C 0.58472 0.77245 0.39431 0.0
C3192 C 0.5809 0.78924 0.40075 0.0
H3193 H 0.6758 0.81476 0.34 0.0
H3194 H 0.65285 0.80663 0.36089 0.0
C3195 C 0.56558 0.79023 0.40992 0.0
C3196 C 0.60008 0.77178 0.3829 0.0
H3197 H 0.64633 0.78248 0.38548 0.0
C3198 C 0.59632 0.76788 0.36354 0.0
C3199 C 0.61835 0.77673 0.39086 0.0
C3200 C 0.6231 0.78072 0.41158 0.0
C3201 C 0.6103 0.76962 0.35189 0.0
C3202 C 0.62867 0.77504 0.35982 0.0
C3203 C 0.63237 0.77831 0.37928 0.0
C3204 C 0.64403 0.77901 0.34821 0.0
C3205 C 0.60516 0.76663 0.33114 0.0
C3206 C 0.64746 0.76603 0.33451 0.0
C3207 C 0.66078 0.77068 0.3226 0.0
C3208 C 0.67099 0.78836 0.32419 0.0
C3209 C 0.66821 0.80101 0.3385 0.0
C3210 C 0.65502 0.79637 0.35042 0.0
H3211 H 0.5906 0.7668 0.32731 0.0
H3212 H 0.61342 0.77712 0.32419 0.0
H3213 H 0.60766 0.75324 0.3257 0.0
H3214 H 0.63953 0.75243 0.3327 0.0
H3215 H 0.66248 0.76071 0.31158 0.0
H3216 H 0.02756 0.2372 0.36564 0.0
H3217 H 0.0257 0.2097 0.38153 0.0
H3218 H 0.05115 0.24205 0.43227 0.0
H3219 H 0.05291 0.26928 0.41674 0.0
H3220 H 0.05286 0.19435 0.40196 0.0
H3221 H 1.00361 0.21487 0.44733 0.0
H3222 H 0.00867 0.2255 0.4268 0.0
H3223 H 0.02379 0.23175 0.44798 0.0
C3224 C 0.03287 0.2384 0.38014 0.0
C3225 C 0.04026 0.25552 0.3899 0.0
C3226 C 0.0318 0.22268 0.38922 0.0
C3227 C 0.03799 0.22379 0.40823 0.0
C3228 C 0.04594 0.2408 0.41773 0.0
H3229 H 0.03446 0.15354 0.49581 0.0
H3230 H 0.04293 0.17786 0.47648 0.0
C3231 C 0.04701 0.25641 0.40874 0.0
C3232 C 0.03583 0.20745 0.41848 0.0
H3233 H 0.01696 0.19026 0.45545 0.0
C3234 C 0.0449 0.19337 0.41356 0.0
C3235 C 0.02548 0.20611 0.43368 0.0
C3236 C 0.01468 0.22026 0.43919 0.0
C3237 C 0.04431 0.17834 0.42375 0.0
C3238 C 0.03417 0.17718 0.43913 0.0
C3239 C 0.02493 0.19116 0.44384 0.0
C3240 C 0.03244 0.16151 0.45039 0.0
C3241 C 0.05496 0.16409 0.41827 0.0
C3242 C 0.02434 0.14395 0.44223 0.0
C3243 C 0.0197 0.12998 0.45332 0.0
C3244 C 0.02311 0.13324 0.47277 0.0
C3245 C 0.03218 0.1505 0.48084 0.0
C3246 C 0.0368 0.16446 0.46979 0.0
H3247 H 0.06584 0.16928 0.40981 0.0
H3248 H 0.06119 0.15908 0.4307 0.0
H3249 H 0.04569 0.15249 0.40983 0.0
H3250 H 0.02043 0.14131 0.4274 0.0
H3251 H 0.01217 0.11699 0.44677 0.0
H3252 H 0.58259 0.25373 0.17874 0.0
H3253 H 0.61459 0.2567 0.19082 0.0
H3254 H 0.60112 0.26556 0.2466 0.0
H3255 H 0.56905 0.26264 0.23456 0.0
H3256 H 0.63914 0.28564 0.21275 0.0
H3257 H 0.63031 0.22514 0.25082 0.0
H3258 H 0.61287 0.22904 0.23378 0.0
H3259 H 0.61649 0.24133 0.25656 0.0
C3260 C 0.58636 0.25633 0.1936 0.0
C3261 C 0.57297 0.25787 0.20558 0.0
C3262 C 0.60481 0.25804 0.20054 0.0
C3263 C 0.61057 0.26108 0.21975 0.0
C3264 C 0.59725 0.26286 0.23176 0.0
H3265 H 0.71838 0.26436 0.28338 0.0
H3266 H 0.68593 0.26277 0.27387 0.0
C3267 C 0.5788 0.26131 0.22481 0.0
C3268 C 0.63044 0.2626 0.22702 0.0
H3269 H 0.65978 0.24277 0.25346 0.0
C3270 C 0.6436 0.27621 0.22163 0.0
C3271 C 0.63657 0.25061 0.23894 0.0
C3272 C 0.6234 0.2356 0.24531 0.0
C3273 C 0.66235 0.27828 0.22781 0.0
C3274 C 0.66866 0.26581 0.23911 0.0
C3275 C 0.65539 0.25233 0.24472 0.0
C3276 C 0.68876 0.26641 0.24506 0.0
C3277 C 0.67503 0.29438 0.2226 0.0
C3278 C 0.70166 0.26845 0.23224 0.0
C3279 C 0.72033 0.26985 0.23782 0.0
C3280 C 0.72688 0.26858 0.25633 0.0
C3281 C 0.71398 0.26553 0.26903 0.0
C3282 C 0.69528 0.26459 0.26352 0.0
H3283 H 0.66789 0.30572 0.22039 0.0
H3284 H 0.6867 0.29933 0.23346 0.0
H3285 H 0.6802 0.29054 0.20935 0.0
H3286 H 0.69736 0.26895 0.21774 0.0
H3287 H 0.72967 0.2718 0.22747 0.0
H3288 H 0.5628 0.87683 0.87845 0.0
H3289 H 0.56232 0.90324 0.90045 0.0
H3290 H 0.52791 0.86936 0.93236 0.0
H3291 H 0.52942 0.84286 0.9111 0.0
H3292 H 0.53793 0.92022 0.90894 0.0
H3293 H 0.56014 0.89582 0.97483 0.0
H3294 H 0.56108 0.88351 0.95267 0.0
H3295 H 0.54011 0.88133 0.96298 0.0
C3296 C 0.55547 0.87493 0.8904 0.0
C3297 C 0.54649 0.85752 0.8931 0.0
C3298 C 0.55508 0.89015 0.90301 0.0
C3299 C 0.54541 0.88861 0.91861 0.0
C3300 C 0.53617 0.87119 0.9211 0.0
H3301 H 0.52025 0.96702 0.00505 0.0
H3302 H 0.52217 0.9402 0.98439 0.0
C3303 C 0.53695 0.8559 0.90877 0.0
C3304 C 0.54435 0.90527 0.93156 0.0
H3305 H 0.54808 0.92266 0.97739 0.0
C3306 C 0.54034 0.92069 0.9239 0.0
C3307 C 0.54727 0.90625 0.95126 0.0
C3308 C 0.55256 0.8909 0.9609 0.0
C3309 C 0.53893 0.93662 0.93506 0.0
C3310 C 0.54189 0.93759 0.95472 0.0
C3311 C 0.54578 0.92216 0.96241 0.0
C3312 C 0.54091 0.95431 0.96753 0.0
C3313 C 0.53372 0.95206 0.92552 0.0
C3314 C 0.551 0.97148 0.96547 0.0
C3315 C 0.54981 0.98698 0.97729 0.0
C3316 C 0.53875 0.98582 0.99183 0.0
C3317 C 0.52902 0.96858 0.99417 0.0
C3318 C 0.53008 0.95312 0.98224 0.0
H3319 H 0.52642 0.94732 0.91145 0.0
H3320 H 0.52498 0.95925 0.93369 0.0
H3321 H 0.54619 0.96182 0.92388 0.0
H3322 H 0.55998 0.97296 0.95477 0.0
H3323 H 0.55773 0.9999 0.97512 0.0
H3324 H 0.96246 0.77135 0.68629 0.0
H3325 H 0.93278 0.77368 0.69652 0.0
H3326 H 0.94685 0.74972 0.7459 0.0
H3327 H 0.97681 0.74859 0.73622 0.0
H3328 H 0.90358 0.75459 0.70273 0.0
H3329 H 0.93077 0.78949 0.77229 0.0
H3330 H 0.94545 0.78516 0.75505 0.0
H3331 H 0.93716 0.7679 0.7693 0.0
C3332 C 0.95915 0.7664 0.69925 0.0
C3333 C 0.97219 0.75962 0.71029 0.0
C3334 C 0.94205 0.76783 0.70524 0.0
C3335 C 0.93721 0.76246 0.72249 0.0
C3336 C 0.95002 0.75484 0.73301 0.0
H3337 H 0.83229 0.74779 0.77118 0.0
H3338 H 0.86197 0.74517 0.76094 0.0
C3339 C 0.96724 0.75383 0.72724 0.0
C3340 C 0.91895 0.7647 0.72928 0.0
H3341 H 0.89885 0.7781 0.76751 0.0
C3342 C 0.90277 0.75985 0.71691 0.0
C3343 C 0.91722 0.77179 0.74777 0.0
C3344 C 0.93359 0.77907 0.76178 0.0
C3345 C 0.88547 0.76142 0.72244 0.0
C3346 C 0.88376 0.76787 0.74099 0.0
C3347 C 0.89983 0.77289 0.75335 0.0
C3348 C 0.86549 0.76969 0.74763 0.0
C3349 C 0.86892 0.75606 0.70835 0.0
C3350 C 0.85723 0.78444 0.74393 0.0
C3351 C 0.84032 0.78616 0.75015 0.0
C3352 C 0.83076 0.77302 0.76004 0.0
C3353 C 0.83899 0.75818 0.76359 0.0
C3354 C 0.85611 0.75668 0.75771 0.0
H3355 H 0.87197 0.74951 0.69504 0.0
H3356 H 0.85821 0.74665 0.71392 0.0
H3357 H 0.86341 0.76828 0.70556 0.0
H3358 H 0.8639 0.79474 0.73619 0.0
H3359 H 0.83455 0.7977 0.74686 0.0
H3360 H 0.12174 0.01036 0.84129 0.0
H3361 H 0.10495 0.00535 0.86814 0.0
H3362 H 0.09138 0.05818 0.86734 0.0
H3363 H 0.10733 0.06268 0.83985 0.0
H3364 H 0.11166 0.02231 0.90147 0.0
H3365 H 0.0431 0.03085 0.87454 0.0
H3366 H 0.0604 0.0287 0.85952 0.0
H3367 H 0.0602 0.0501 0.87247 0.0
C3368 C 0.11473 0.02067 0.84659 0.0
C3369 C 0.11548 0.03674 0.83827 0.0
C3370 C 0.10522 0.01787 0.86202 0.0
C3371 C 0.09651 0.03122 0.86976 0.0
C3372 C 0.09733 0.04734 0.86139 0.0
H3373 H 0.04162 0.04777 0.96764 0.0
H3374 H 0.05508 0.04889 0.93851 0.0
C3375 C 0.10652 0.04997 0.84568 0.0
C3376 C 0.08774 0.02871 0.88725 0.0
H3377 H 0.04889 0.0309 0.90724 0.0
C3378 C 0.09787 0.02407 0.90267 0.0
C3379 C 0.06974 0.03102 0.889 0.0
C3380 C 0.05767 0.03527 0.87294 0.0
C3381 C 0.09088 0.0223 0.91981 0.0
C3382 C 0.0729 0.02474 0.92165 0.0
C3383 C 0.06266 0.02907 0.90609 0.0
C3384 C 0.06469 0.02373 0.93967 0.0
C3385 C 0.10326 0.01856 0.9359 0.0
C3386 C 0.06528 0.00915 0.95031 0.0
C3387 C 0.05823 0.00893 0.96749 0.0
C3388 C 0.04965 0.02284 0.97401 0.0
C3389 C 0.04825 0.03691 0.96301 0.0
C3390 C 0.05591 0.0375 0.94626 0.0
H3391 H 0.11777 0.02265 0.93386 0.0
H3392 H 0.101 0.0258 0.94918 0.0
H3393 H 0.10065 1.00383 0.93703 0.0
H3394 H 0.07112 0.99786 0.94533 0.0
H3395 H 0.05905 0.99768 0.97545 0.0
H3396 H 0.81563 0.42127 0.56385 0.0
H3397 H 0.81729 0.40576 0.59171 0.0
H3398 H 0.76194 0.37756 0.57654 0.0
H3399 H 0.76074 0.39215 0.54795 0.0
H3400 H 0.80017 0.40258 0.62152 0.0
H3401 H 0.78736 0.33604 0.57825 0.0
H3402 H 0.791 0.3571 0.5683 0.0
H3403 H 0.76921 0.34815 0.57527 0.0
C3404 C 0.80371 0.41208 0.56675 0.0
C3405 C 0.78806 0.4078 0.55395 0.0
C3406 C 0.80468 0.40319 0.58258 0.0
C3407 C 0.78987 0.39022 0.58592 0.0
C3408 C 0.77368 0.38711 0.57388 0.0
H3409 H 0.78877 0.3145 0.66915 0.0
H3410 H 0.77859 0.33517 0.64826 0.0
C3411 C 0.77292 0.39557 0.55774 0.0
C3412 C 0.79197 0.37913 0.60126 0.0
H3413 H 0.79143 0.33577 0.61054 0.0
C3414 C 0.79811 0.38797 0.61916 0.0
C3415 C 0.78943 0.36005 0.59803 0.0
C3416 C 0.78407 0.34978 0.57891 0.0
C3417 C 0.80214 0.37823 0.6339 0.0
C3418 C 0.79977 0.35928 0.63056 0.0
C3419 C 0.79302 0.35036 0.6129 0.0
C3420 C 0.80574 0.34842 0.64469 0.0
C3421 C 0.80927 0.38822 0.65281 0.0
C3422 C 0.82432 0.34911 0.6493 0.0
C3423 C 0.83013 0.33716 0.66086 0.0
C3424 C 0.81738 0.32455 0.668 0.0
C3425 C 0.79878 0.32418 0.66372 0.0
C3426 C 0.79298 0.33596 0.65196 0.0
H3427 H 0.80667 0.40223 0.65406 0.0
H3428 H 0.80301 0.38096 0.66383 0.0
H3429 H 0.82414 0.38897 0.6552 0.0
H3430 H 0.83429 0.35853 0.64351 0.0
H3431 H 0.84453 0.33775 0.66422 0.0
H3432 H 0.41455 0.99486 0.34808 0.0
H3433 H 0.4383 0.99942 0.3744 0.0
H3434 H 0.43476 0.05581 0.38331 0.0
H3435 H 0.41055 0.05106 0.3572 0.0
H3436 H 0.47203 0.02404 0.38031 0.0
H3437 H 0.42513 0.03543 0.43283 0.0
H3438 H 0.41713 0.02606 0.40916 0.0
H3439 H 0.42566 0.0499 0.41465 0.0
C3440 C 0.41888 0.00815 0.35582 0.0
C3441 C 0.4109 0.02262 0.35124 0.0
C3442 C 0.4324 0.01076 0.37059 0.0
C3443 C 0.43795 0.02788 0.38063 0.0
C3444 C 0.4303 0.0425 0.37568 0.0
H3445 H 0.50645 0.05954 0.48335 0.0
H3446 H 0.48874 0.05991 0.45356 0.0
C3447 C 0.41663 0.03982 0.36097 0.0
C3448 C 0.45125 0.03011 0.39683 0.0
H3449 H 0.45582 0.03758 0.44382 0.0
C3450 C 0.46865 0.02716 0.39423 0.0
C3451 C 0.44641 0.03393 0.41476 0.0
C3452 C 0.42753 0.03637 0.41812 0.0
C3453 C 0.48162 0.02803 0.40941 0.0
C3454 C 0.47673 0.03179 0.42734 0.0
C3455 C 0.45937 0.03488 0.42989 0.0
C3456 C 0.48914 0.03208 0.44391 0.0
C3457 C 0.50029 0.0249 0.40617 0.0
C3458 C 0.49507 0.01628 0.44797 0.0
C3459 C 0.50534 0.01613 0.46476 0.0
C3460 C 0.50916 0.03162 0.47762 0.0
C3461 C 0.5033 0.04743 0.47354 0.0
C3462 C 0.49342 0.04769 0.45661 0.0
H3463 H 0.50327 0.02711 0.39183 0.0
H3464 H 0.5109 0.03392 0.41617 0.0
H3465 H 0.50109 0.0107 0.40811 0.0
H3466 H 0.49134 1.00399 0.43843 0.0
H3467 H 0.50979 1.00385 0.46796 0.0
H3468 H 0.78122 0.67483 0.07977 0.0
H3469 H 0.78244 0.68865 0.11203 0.0
H3470 H 0.76097 0.73311 0.09216 0.0
H3471 H 0.76029 0.71972 0.06002 0.0
H3472 H 0.79952 0.73422 0.12587 0.0
H3473 H 0.7286 0.70243 0.13414 0.0
H3474 H 0.74209 0.69139 0.11927 0.0
H3475 H 0.73359 0.71062 0.11237 0.0
C3476 C 0.77685 0.68759 0.08231 0.0
C3477 C 0.77076 0.69623 0.06732 0.0
C3478 C 0.77756 0.69548 0.10074 0.0
C3479 C 0.77177 0.71194 0.10456 0.0
C3480 C 0.76562 0.7205 0.08961 0.0
H3481 H 0.75336 0.77281 0.2082 0.0
H3482 H 0.75259 0.7606 0.17557 0.0
C3483 C 0.76529 0.71285 0.07122 0.0
C3484 C 0.77187 0.72013 0.12411 0.0
H3485 H 0.74494 0.72278 0.15914 0.0
C3486 C 0.78761 0.73168 0.13317 0.0
C3487 C 0.7563 0.717 0.1336 0.0
C3488 C 0.73912 0.70466 0.1245 0.0
C3489 C 0.78819 0.7401 0.15142 0.0
C3490 C 0.77265 0.73681 0.16104 0.0
C3491 C 0.75684 0.7254 0.15186 0.0
C3492 C 0.77288 0.74435 0.1809 0.0
C3493 C 0.80538 0.75267 0.1602 0.0
C3494 C 0.78428 0.73918 0.19491 0.0
C3495 C 0.78444 0.74582 0.21355 0.0
C3496 C 0.77329 0.758 0.2189 0.0
C3497 C 0.76193 0.76331 0.20481 0.0
C3498 C 0.76156 0.75639 0.18607 0.0
H3499 H 0.81426 0.75743 0.14964 0.0
H3500 H 0.80229 0.76461 0.16841 0.0
H3501 H 0.81304 0.74543 0.16975 0.0
H3502 H 0.79299 0.72978 0.19145 0.0
H3503 H 0.7934 0.74132 0.22379 0.0
H3504 H 0.13713 0.03812 0.71955 0.0
H3505 H 0.12348 0.03628 0.6872 0.0
H3506 H 0.0708 0.03435 0.70579 0.0
H3507 H 0.08422 0.03585 0.73803 0.0
H3508 H 0.08691 0.00651 0.66811 0.0
H3509 H 0.08523 0.07991 0.67182 0.0
H3510 H 0.10199 0.07146 0.68612 0.0
H3511 H 0.07891 0.0678 0.69109 0.0
C3512 C 0.12263 0.0372 0.71675 0.0
C3513 C 0.1118 0.03713 0.73145 0.0
C3514 C 0.11484 0.03613 0.69824 0.0
C3515 C 0.09611 0.03526 0.69405 0.0
C3516 C 0.08526 0.03502 0.70866 0.0
H3517 H 0.02929 0.0456 0.59127 0.0
H3518 H 0.04152 0.04565 0.62374 0.0
C3519 C 0.09298 0.03584 0.72711 0.0
C3520 C 0.08789 0.03497 0.6745 0.0
H3521 H 0.07286 0.06198 0.64377 0.0
C3522 C 0.08388 0.01863 0.66275 0.0
C3523 C 0.08367 0.05071 0.66758 0.0
C3524 C 0.08767 0.06856 0.67969 0.0
C3525 C 0.07573 0.01762 0.64432 0.0
C3526 C 0.07192 0.0335 0.63716 0.0
C3527 C 0.07577 0.0498 0.64907 0.0
C3528 C 0.06437 0.03358 0.61732 0.0
C3529 C 0.07087 0.99938 0.63288 0.0
C3530 C 0.07323 0.02716 0.60272 0.0
C3531 C 0.06624 0.02707 0.58417 0.0
C3532 C 0.05028 0.03365 0.57958 0.0
C3533 C 0.04159 0.04044 0.59419 0.0
C3534 C 0.04859 0.04046 0.61282 0.0
H3535 H 0.06898 0.98824 0.64182 0.0
H3536 H 0.05825 0.99816 0.62328 0.0
H3537 H 0.08206 0.99753 0.62453 0.0
H3538 H 0.0857 0.02229 0.60563 0.0
H3539 H 0.07346 0.02184 0.57341 0.0
H3540 H 0.75948 0.39674 0.44317 0.0
H3541 H 0.75547 0.37298 0.41681 0.0
H3542 H 0.81174 0.36896 0.428 0.0
H3543 H 0.81559 0.39234 0.45441 0.0
H3544 H 0.77732 0.37752 0.38695 0.0
H3545 H 0.78401 0.31608 0.42106 0.0
H3546 H 0.77831 0.33586 0.43312 0.0
H3547 H 0.80138 0.33556 0.42916 0.0
C3548 C 0.77078 0.39046 0.44001 0.0
C3549 C 0.78777 0.39597 0.4504 0.0
C3550 C 0.76851 0.37701 0.42518 0.0
C3551 C 0.78326 0.3692 0.42093 0.0
C3552 C 0.80018 0.37463 0.43154 0.0
H3553 H 0.81028 0.30111 0.33201 0.0
H3554 H 0.80997 0.32015 0.36112 0.0
C3555 C 0.8024 0.38797 0.44637 0.0
C3556 C 0.78167 0.35676 0.4042 0.0
H3557 H 0.78663 0.31449 0.38862 0.0
C3558 C 0.77908 0.36365 0.3872 0.0
C3559 C 0.78435 0.33892 0.40494 0.0
C3560 C 0.78703 0.33109 0.42306 0.0
C3561 C 0.77954 0.3531 0.37063 0.0
C3562 C 0.78219 0.33522 0.37137 0.0
C3563 C 0.7846 0.32828 0.38836 0.0
C3564 C 0.78224 0.32339 0.35454 0.0
C3565 C 0.77777 0.36132 0.3526 0.0
C3566 C 0.76662 0.31887 0.34179 0.0
C3567 C 0.76688 0.3084 0.32527 0.0
C3568 C 0.78264 0.30209 0.32168 0.0
C3569 C 0.79804 0.30594 0.33477 0.0
C3570 C 0.79787 0.31672 0.3512 0.0
H3571 H 0.78073 0.37633 0.35489 0.0
H3572 H 0.78704 0.35684 0.34299 0.0
H3573 H 0.76366 0.35694 0.34575 0.0
H3574 H 0.75435 0.32364 0.34454 0.0
H3575 H 0.75479 0.30523 0.31534 0.0
H3576 H 0.38318 1.0026 0.23207 0.0
H3577 H 0.39786 1.00343 0.20346 0.0
H3578 H 0.44074 0.04612 0.23076 0.0
H3579 H 0.42644 0.04516 0.25935 0.0
H3580 H 0.4111 0.03217 0.18097 0.0
H3581 H 0.46538 1.00288 0.21684 0.0
H3582 H 0.44399 1.0033 0.22579 0.0
H3583 H 0.46139 0.02334 0.22881 0.0
C3584 C 0.3955 0.01243 0.23178 0.0
C3585 C 0.40382 0.02369 0.24787 0.0
C3586 C 0.40384 0.01289 0.2155 0.0
C3587 C 0.42043 0.02467 0.21524 0.0
C3588 C 0.42803 0.0368 0.23089 0.0
H3589 H 0.50417 0.0251 0.14332 0.0
H3590 H 0.48483 0.03602 0.16526 0.0
C3591 C 0.41985 0.03623 0.24715 0.0
C3592 C 0.43078 0.02312 0.19934 0.0
H3593 H 0.46968 0.01123 0.1871 0.0
C3594 C 0.42393 0.02764 0.18221 0.0
C3595 C 0.44742 0.01709 0.20118 0.0
C3596 C 0.45494 0.01121 0.21909 0.0
C3597 C 0.43355 0.0265 0.16676 0.0
C3598 C 0.45021 0.02054 0.16866 0.0
C3599 C 0.45701 0.01608 0.18583 0.0
C3600 C 0.46043 0.01734 0.15292 0.0
C3601 C 0.4259 0.03174 0.14863 0.0
C3602 C 0.4529 1.00363 0.13852 0.0
C3603 C 0.4639 0.99747 0.12605 0.0
C3604 C 0.48249 1.00481 0.12812 0.0
C3605 C 0.48984 0.01919 0.14181 0.0
C3606 C 0.47882 0.02549 0.15414 0.0
H3607 H 0.41605 0.04077 0.15078 0.0
H3608 H 0.43686 0.03863 0.14118 0.0
H3609 H 0.41868 0.01937 0.13967 0.0
H3610 H 0.43884 0.99692 0.13764 0.0
H3611 H 0.45811 0.98642 0.11538 0.0
H3612 H 0.78718 0.67578 0.94826 0.0
H3613 H 0.79189 0.69235 0.92146 0.0
H3614 H 0.75646 0.72738 0.93978 0.0
H3615 H 0.75243 0.7112 0.96728 0.0
H3616 H 0.76816 0.69427 0.89399 0.0
H3617 H 0.79572 0.76451 0.92579 0.0
H3618 H 0.79374 0.74559 0.93925 0.0
H3619 H 0.77422 0.75518 0.93288 0.0
C3620 C 0.78066 0.68725 0.94678 0.0
C3621 C 0.7695 0.69224 0.95995 0.0
C3622 C 0.78332 0.69671 0.93138 0.0
C3623 C 0.77469 0.7113 0.92848 0.0
C3624 C 0.76371 0.71653 0.94181 0.0
H3625 H 0.76578 0.77511 0.83557 0.0
H3626 H 0.76417 0.76198 0.86483 0.0
C3627 C 0.76133 0.70723 0.95753 0.0
C3628 C 0.77632 0.71995 0.91084 0.0
H3629 H 0.78767 0.76026 0.89313 0.0
C3630 C 0.77254 0.70871 0.89387 0.0
C3631 C 0.7819 0.73882 0.91048 0.0
C3632 C 0.78679 0.75172 0.92807 0.0
C3633 C 0.77395 0.71569 0.87671 0.0
C3634 C 0.7797 0.73453 0.87633 0.0
C3635 C 0.78337 0.74582 0.89329 0.0
C3636 C 0.78137 0.74283 0.85851 0.0
C3637 C 0.76871 0.70274 0.85916 0.0
C3638 C 0.79181 0.73676 0.84509 0.0
C3639 C 0.79246 0.74404 0.82806 0.0
C3640 C 0.78314 0.75797 0.82431 0.0
C3641 C 0.77323 0.76446 0.83801 0.0
C3642 C 0.7723 0.75695 0.85482 0.0
H3643 H 0.75965 0.69007 0.86157 0.0
H3644 H 0.76174 0.70891 0.84804 0.0
H3645 H 0.78112 0.69901 0.8542 0.0
H3646 H 0.79947 0.72633 0.84773 0.0
H3647 H 0.80037 0.7389 0.8179 0.0
H3648 H 0.81478 0.11135 0.00848 0.0
H3649 H 0.84469 0.10294 0.01345 0.0
H3650 H 0.83757 0.09766 0.07088 0.0
H3651 H 0.80792 0.10633 0.06607 0.0
H3652 H 0.8769 0.11895 0.04878 0.0
H3653 H 0.84186 0.04646 0.03771 0.0
H3654 H 0.83162 0.06352 0.02758 0.0
H3655 H 0.8332 0.0628 0.05217 0.0
C3656 C 0.81973 0.10839 0.02208 0.0
C3657 C 0.80935 0.10921 0.03687 0.0
C3658 C 0.83674 0.1039 0.02498 0.0
C3659 C 0.84311 0.1 0.04257 0.0
C3660 C 0.8328 0.10099 0.05738 0.0
H3661 H 0.9237 0.03466 0.03073 0.0
H3662 H 0.9081 0.05293 0.05074 0.0
C3663 C 0.81596 0.10571 0.05456 0.0
C3664 C 0.85951 0.09263 0.04464 0.0
H3665 H 0.87315 0.05278 0.03632 0.0
C3666 C 0.8763 0.10448 0.0466 0.0
C3667 C 0.85835 0.0738 0.04205 0.0
C3668 C 0.84033 0.06079 0.03974 0.0
C3669 C 0.8921 0.09782 0.04435 0.0
C3670 C 0.89069 0.07906 0.03988 0.0
C3671 C 0.87411 0.06718 0.03987 0.0
C3672 C 0.90456 0.07172 0.03074 0.0
C3673 C 0.90991 0.11087 0.04551 0.0
C3674 C 0.90776 0.07649 0.01304 0.0
C3675 C 0.91633 0.06595 1.00152 0.0
C3676 C 0.92178 0.05062 0.00765 0.0
C3677 C 0.91949 0.04646 0.02576 0.0
C3678 C 0.91087 0.05696 0.03726 0.0
H3679 H 0.91011 0.12309 0.05529 0.0
H3680 H 0.92146 0.10448 0.05003 0.0
H3681 H 0.91178 0.1153 0.03161 0.0
H3682 H 0.9025 0.08758 0.00764 0.0
H3683 H 0.91833 0.06953 0.98771 0.0
H3684 H 0.33457 0.43014 0.05247 0.0
H3685 H 0.36471 0.4494 0.05644 0.0
H3686 H 0.38426 0.40911 0.02228 0.0
H3687 H 0.35426 0.3892 0.01958 0.0
H3688 H 0.40974 0.42338 0.04847 0.0
H3689 H 0.3839 0.47978 0.01997 0.0
H3690 H 0.37612 0.47659 0.04215 0.0
H3691 H 0.36924 0.45901 0.02311 0.0
C3692 C 0.34531 0.42544 0.04577 0.0
C3693 C 0.34201 0.40836 0.03536 0.0
C3694 C 0.36258 0.43649 0.04801 0.0
C3695 C 0.37683 0.4311 0.03921 0.0
C3696 C 0.37358 0.41377 0.02912 0.0
H3697 H 0.46795 0.50393 0.00808 0.0
H3698 H 0.43917 0.48429 0.01132 0.0
C3699 C 0.3564 0.40242 0.02744 0.0
C3700 C 0.39493 0.44358 0.04016 0.0
H3701 H 0.41498 0.48624 0.0328 0.0
C3702 C 0.41086 0.43709 0.04493 0.0
C3703 C 0.39665 0.46163 0.03576 0.0
C3704 C 0.38056 0.46965 0.02981 0.0
C3705 C 0.42823 0.44786 0.04496 0.0
C3706 C 0.42982 0.46586 0.04042 0.0
C3707 C 0.41392 0.47247 0.03618 0.0
C3708 C 0.4476 0.47785 0.0388 0.0
C3709 C 0.44462 0.43957 0.04931 0.0
C3710 C 0.462 0.48118 0.05322 0.0
C3711 C 0.47869 0.49202 0.0511 0.0
C3712 C 0.48109 0.50035 0.03484 0.0
C3713 C 0.46644 0.49779 0.02083 0.0
C3714 C 0.44999 0.48649 0.02268 0.0
H3715 H 0.44112 0.42457 0.04737 0.0
H3716 H 0.45537 0.44402 0.04043 0.0
H3717 H 0.45019 0.44379 0.06404 0.0
H3718 H 0.46039 0.47542 0.06612 0.0
H3719 H 0.48971 0.49398 0.06221 0.0
H3720 H 0.42402 0.57531 0.78467 0.0
H3721 H 0.4113 0.60301 0.7835 0.0
H3722 H 0.36567 0.57333 0.74603 0.0
H3723 H 0.37836 0.54594 0.74698 0.0
H3724 H 0.39333 0.62016 0.74748 0.0
H3725 H 0.34931 0.59309 0.79955 0.0
H3726 H 0.37103 0.58693 0.79713 0.0
H3727 H 0.352 0.57765 0.78014 0.0
C3728 C 0.41161 0.57494 0.77572 0.0
C3729 C 0.4021 0.55857 0.76594 0.0
C3730 C 0.40434 0.59068 0.77511 0.0
C3731 C 0.38752 0.59012 0.76473 0.0
C3732 C 0.37865 0.57402 0.75409 0.0
H3733 H 0.30481 0.65465 0.77037 0.0
H3734 H 0.32245 0.63213 0.76023 0.0
C3735 C 0.38587 0.55839 0.75471 0.0
C3736 C 0.37805 0.60554 0.76659 0.0
H3737 H 0.3436 0.61941 0.7874 0.0
C3738 C 0.38253 0.62012 0.75627 0.0
C3739 C 0.36388 0.60529 0.77794 0.0
C3740 C 0.35873 0.58999 0.78944 0.0
C3741 C 0.37296 0.63443 0.75688 0.0
C3742 C 0.35876 0.63414 0.76823 0.0
C3743 C 0.35439 0.61955 0.77857 0.0
C3744 C 0.34854 0.64905 0.77033 0.0
C3745 C 0.37785 0.64953 0.74511 0.0
C3746 C 0.35738 0.66625 0.77875 0.0
C3747 C 0.3473 0.67912 0.78442 0.0
C3748 C 0.32828 0.67498 0.78169 0.0
C3749 C 0.31948 0.65825 0.77218 0.0
C3750 C 0.32954 0.64536 0.76655 0.0
H3751 H 0.3856 0.64552 0.73373 0.0
H3752 H 0.36549 0.65382 0.73899 0.0
H3753 H 0.38641 0.66134 0.75392 0.0
H3754 H 0.37197 0.66927 0.78217 0.0
H3755 H 0.3543 0.69179 0.79218 0.0
H3756 H 0.2101 0.6379 0.52283 0.0
H3757 H 0.17876 0.62092 0.52044 0.0
H3758 H 0.19727 0.58074 0.5517 0.0
H3759 H 0.22841 0.59741 0.55371 0.0
H3760 H 0.1769 0.56643 0.51985 0.0
H3761 H 0.14335 0.61414 0.55958 0.0
H3762 H 0.15591 0.62409 0.54216 0.0
H3763 H 0.16767 0.61613 0.56137 0.0
C3764 C 0.20728 0.62544 0.52914 0.0
C3765 C 0.22133 0.61847 0.53791 0.0
C3766 C 0.18954 0.61594 0.52798 0.0
C3767 C 0.18589 0.59979 0.5361 0.0
C3768 C 0.19996 0.59322 0.54542 0.0
H3769 H 0.09124 0.52828 0.55242 0.0
H3770 H 0.12223 0.54406 0.55152 0.0
C3771 C 0.21763 0.60258 0.54637 0.0
C3772 C 0.16766 0.58882 0.53351 0.0
H3773 H 0.12416 0.58848 0.54202 0.0
C3774 C 0.16533 0.57138 0.52421 0.0
C3775 C 0.15283 0.59521 0.5402 0.0
C3776 C 0.15503 0.61334 0.55156 0.0
C3777 C 0.14833 0.5602 0.52077 0.0
C3778 C 0.13355 0.56667 0.52721 0.0
C3779 C 0.13575 0.58398 0.53679 0.0
C3780 C 0.11595 0.55497 0.52583 0.0
C3781 C 0.1462 0.54151 0.5106 0.0
C3782 C 0.10276 0.5555 0.5112 0.0
C3783 C 0.08513 0.54643 0.51166 0.0
C3784 C 0.08069 0.53722 0.52681 0.0
C3785 C 0.09432 0.53556 0.54068 0.0
C3786 C 0.11194 0.54453 0.54023 0.0
H3787 H 0.15902 0.53899 0.50553 0.0
H3788 H 0.14172 0.53127 0.51999 0.0
H3789 H 0.13554 0.53965 0.49859 0.0
H3790 H 0.10597 0.56339 0.49988 0.0
H3791 H 0.07493 0.54686 0.5005 0.0
H3792 H 0.70764 1.00091 0.79108 0.0
H3793 H 0.71519 0.97081 0.78678 0.0
H3794 H 0.69723 0.96639 0.72821 0.0
H3795 H 0.68946 0.99639 0.73237 0.0
H3796 H 0.68573 0.93467 0.75842 0.0
H3797 H 0.75714 0.96181 0.74713 0.0
H3798 H 0.74647 0.97508 0.76295 0.0
H3799 H 0.73839 0.97183 0.73869 0.0
C3800 C 0.70528 0.99346 0.77735 0.0
C3801 C 0.69799 1.00074 0.76206 0.0
C3802 C 0.70947 0.97638 0.77493 0.0
C3803 C 0.7066 0.96668 0.75721 0.0
C3804 C 0.69927 0.97382 0.74194 0.0
H3805 H 0.76613 0.88105 0.76747 0.0
H3806 H 0.7471 0.89697 0.7487 0.0
C3807 C 0.69489 0.99082 0.74437 0.0
C3808 C 0.7122 0.94937 0.75488 0.0
H3809 H 0.75094 0.93277 0.75736 0.0
C3810 C 0.69984 0.93393 0.75754 0.0
C3811 C 0.73051 0.94871 0.75343 0.0
C3812 C 0.74397 0.96519 0.75029 0.0
C3813 C 0.70588 0.91805 0.7608 0.0
C3814 C 0.72461 0.91804 0.76161 0.0
C3815 C 0.73655 0.93289 0.75675 0.0
C3816 C 0.73276 0.905 0.77139 0.0
C3817 C 0.69243 0.90193 0.76474 0.0
C3818 C 0.73082 0.90431 0.79029 0.0
C3819 C 0.74164 0.8953 0.80103 0.0
C3820 C 0.75459 0.88703 0.79299 0.0
C3821 C 0.75609 0.88724 0.77393 0.0
C3822 C 0.74521 0.89618 0.76318 0.0
H3823 H 0.67899 0.90126 0.75674 0.0
H3824 H 0.69716 0.88911 0.76128 0.0
H3825 H 0.69058 0.90328 0.7797 0.0
H3826 H 0.72166 0.91158 0.79697 0.0
H3827 H 0.74012 0.89508 0.81564 0.0
H3828 H 0.75582 0.9308 0.51264 0.0
H3829 H 0.72867 0.94275 0.51501 0.0
H3830 H 0.70904 0.9018 0.54936 0.0
H3831 H 0.73704 0.88953 0.5474 0.0
H3832 H 0.69314 0.92365 0.50323 0.0
H3833 H 0.70328 0.95112 0.57802 0.0
H3834 H 0.72186 0.94591 0.56603 0.0
H3835 H 0.70507 0.92797 0.5718 0.0
C3836 C 0.7459 0.92411 0.52078 0.0
C3837 C 0.74877 0.90902 0.5298 0.0
C3838 C 0.73028 0.9311 0.52211 0.0
C3839 C 0.71685 0.92327 0.5324 0.0
C3840 C 0.71938 0.90816 0.54148 0.0
H3841 H 0.61615 0.96682 0.52276 0.0
H3842 H 0.63718 0.94782 0.53388 0.0
C3843 C 0.73528 0.90108 0.54022 0.0
C3844 C 0.7002 0.93104 0.53264 0.0
H3845 H 0.6801 0.95978 0.55895 0.0
C3846 C 0.68997 0.93114 0.51552 0.0
C3847 C 0.69629 0.94106 0.54863 0.0
C3848 C 0.70718 0.94168 0.56722 0.0
C3849 C 0.6766 0.94166 0.51377 0.0
C3850 C 0.67322 0.95228 0.52957 0.0
C3851 C 0.68272 0.95153 0.54691 0.0
C3852 C 0.66117 0.96547 0.52752 0.0
C3853 C 0.66689 0.94226 0.49481 0.0
C3854 C 0.66785 0.98194 0.52099 0.0
C3855 C 0.65594 0.99266 0.51457 0.0
C3856 C 0.63715 0.98713 0.51469 0.0
C3857 C 0.63059 0.97142 0.52271 0.0
C3858 C 0.64256 0.96058 0.52902 0.0
H3859 H 0.66938 0.93157 0.4844 0.0
H3860 H 0.65206 0.94069 0.49544 0.0
H3861 H 0.67168 0.9556 0.49 0.0
H3862 H 0.68216 0.98587 0.51964 0.0
H3863 H 0.66129 1.00471 0.50843 0.0
H3864 H 0.41827 0.45131 0.77458 0.0
H3865 H 0.39776 0.42193 0.77299 0.0
H3866 H 0.35402 0.44476 0.74842 0.0
H3867 H 0.37504 0.47322 0.74804 0.0
H3868 H 0.37133 0.41105 0.78913 0.0
H3869 H 0.34263 0.40101 0.71531 0.0
H3870 H 0.36129 0.41917 0.72407 0.0
H3871 H 0.33822 0.42144 0.72665 0.0
C3872 C 0.40432 0.44986 0.76857 0.0
C3873 C 0.39801 0.46471 0.76213 0.0
C3874 C 0.39252 0.4331 0.76776 0.0
C3875 C 0.37415 0.4308 0.76046 0.0
C3876 C 0.3681 0.44567 0.7536 0.0
H3877 H 0.2885 0.34309 0.78355 0.0
H3878 H 0.30807 0.37252 0.78231 0.0
C3879 C 0.38004 0.4622 0.75386 0.0
C3880 C 0.36131 0.4132 0.76084 0.0
H3881 H 0.32722 0.3818 0.73521 0.0
C3882 C 0.36184 0.40468 0.77722 0.0
C3883 C 0.34872 0.40461 0.74538 0.0
C3884 C 0.34782 0.41197 0.72684 0.0
C3885 C 0.35039 0.38805 0.77851 0.0
C3886 C 0.3376 0.37986 0.76328 0.0
C3887 C 0.33692 0.38825 0.74696 0.0
C3888 C 0.32538 0.36213 0.76374 0.0
C3889 C 0.35236 0.379 0.79596 0.0
C3890 C 0.32841 0.34658 0.75348 0.0
C3891 C 0.31723 0.32976 0.75409 0.0
C3892 C 0.30263 0.32813 0.76488 0.0
C3893 C 0.29945 0.34383 0.77492 0.0
C3894 C 0.31072 0.36066 0.77436 0.0
H3895 H 0.36416 0.3862 0.80585 0.0
H3896 H 0.33989 0.37852 0.80296 0.0
H3897 H 0.35401 0.36485 0.79243 0.0
H3898 H 0.33964 0.3474 0.7452 0.0
H3899 H 0.32019 0.31799 0.74626 0.0
H3900 H 0.17185 0.60432 0.26757 0.0
H3901 H 0.1883 0.63562 0.27021 0.0
H3902 H 0.23612 0.61663 0.25506 0.0
H3903 H 0.21893 0.58579 0.25013 0.0
H3904 H 0.21378 0.64942 0.29435 0.0
H3905 H 0.24068 0.65761 0.22716 0.0
H3906 H 0.22406 0.63813 0.23023 0.0
H3907 H 0.24792 0.63887 0.23666 0.0
C3908 C 0.18579 0.60704 0.26454 0.0
C3909 C 0.19468 0.59292 0.25981 0.0
C3910 C 0.19515 0.62479 0.26602 0.0
C3911 C 0.21348 0.62844 0.26297 0.0
C3912 C 0.22193 0.61425 0.25714 0.0
H3913 H 0.29656 0.72384 0.28204 0.0
H3914 H 0.281 0.69365 0.28718 0.0
C3915 C 0.21233 0.59661 0.25494 0.0
C3916 C 0.22421 0.64678 0.26782 0.0
H3917 H 0.25554 0.67883 0.25293 0.0
C3918 C 0.2229 0.65581 0.28525 0.0
C3919 C 0.236 0.65516 0.25588 0.0
C3920 C 0.23707 0.64696 0.23639 0.0
C3921 C 0.23305 0.67306 0.29106 0.0
C3922 C 0.24499 0.68116 0.27931 0.0
C3923 C 0.24659 0.67214 0.26204 0.0
C3924 C 0.2542 0.69995 0.28316 0.0
C3925 C 0.23047 0.68275 0.30934 0.0
C3926 C 0.24409 0.71334 0.27996 0.0
C3927 C 0.25288 0.73033 0.27678 0.0
C3928 C 0.27174 0.73397 0.27718 0.0
C3929 C 0.28195 0.72112 0.282 0.0
C3930 C 0.27316 0.70406 0.28504 0.0
H3931 H 0.22494 0.67313 0.31894 0.0
H3932 H 0.24338 0.6913 0.31619 0.0
H3933 H 0.22061 0.69165 0.30665 0.0
H3934 H 0.2294 0.7101 0.278 0.0
H3935 H 0.24488 0.73995 0.27231 0.0
H3936 H 0.51355 0.70389 0.42925 0.0
H3937 H 0.51671 0.67478 0.44048 0.0
H3938 H 0.50274 0.69343 0.49378 0.0
H3939 H 0.50002 0.72267 0.48279 0.0
H3940 H 0.5397 0.67248 0.48603 0.0
H3941 H 0.46863 0.63741 0.46291 0.0
H3942 H 0.47997 0.65443 0.44995 0.0
H3943 H 0.47361 0.66095 0.47226 0.0
C3944 C 0.51107 0.70183 0.44336 0.0
C3945 C 0.50648 0.71589 0.45501 0.0
C3946 C 0.51294 0.68507 0.44983 0.0
C3947 C 0.50997 0.68157 0.4681 0.0
C3948 C 0.50524 0.69555 0.47969 0.0
H3949 H 0.49383 0.57689 0.51696 0.0
H3950 H 0.49167 0.60652 0.50677 0.0
C3951 C 0.50368 0.71239 0.47334 0.0
C3952 C 0.51176 0.66347 0.47505 0.0
H3953 H 0.48782 0.62072 0.47779 0.0
C3954 C 0.52835 0.66115 0.48417 0.0
C3955 C 0.49702 0.64856 0.4731 0.0
C3956 C 0.47872 0.65025 0.46404 0.0
C3957 C 0.53057 0.64468 0.49127 0.0
C3958 C 0.51593 0.6294 0.48881 0.0
C3959 C 0.49927 0.63193 0.4798 0.0
C3960 C 0.51746 0.61093 0.49547 0.0
C3961 C 0.54858 0.64432 0.50203 0.0
C3962 C 0.53245 0.60265 0.4926 0.0
C3963 C 0.5339 0.5858 0.49894 0.0
C3964 C 0.52014 0.57598 0.50791 0.0
C3965 C 0.50482 0.58386 0.51025 0.0
C3966 C 0.50357 0.60098 0.50429 0.0
H3967 H 0.55549 0.65807 0.50835 0.0
H3968 H 0.547 0.63544 0.51327 0.0
H3969 H 0.55758 0.63933 0.49243 0.0
H3970 H 0.54311 0.60905 0.48516 0.0
H3971 H 0.54578 0.58026 0.49639 0.0
H3972 H 0.60777 0.31625 0.66603 0.0
H3973 H 0.6356 0.31385 0.68503 0.0
H3974 H 0.64358 0.27115 0.64507 0.0
H3975 H 0.61639 0.27439 0.62553 0.0
H3976 H 0.64505 0.29027 0.70361 0.0
H3977 H 0.69367 0.29681 0.65157 0.0
H3978 H 0.67105 0.30097 0.64678 0.0
H3979 H 0.67524 0.27821 0.64428 0.0
C3980 C 0.61572 0.30667 0.66102 0.0
C3981 C 0.60992 0.29582 0.64393 0.0
C3982 C 0.63167 0.30517 0.67205 0.0
C3983 C 0.64231 0.29253 0.6666 0.0
C3984 C 0.63637 0.28156 0.64954 0.0
H3985 H 0.73499 0.25454 0.72259 0.0
H3986 H 0.70795 0.258 0.70264 0.0
C3987 C 0.62063 0.28337 0.63828 0.0
C3988 C 0.65896 0.29041 0.67913 0.0
H3989 H 0.70355 0.28603 0.67972 0.0
C3990 C 0.65784 0.28954 0.69827 0.0
C3991 C 0.67596 0.28939 0.67258 0.0
C3992 C 0.67913 0.29159 0.65273 0.0
C3993 C 0.67277 0.28746 0.71069 0.0
C3994 C 0.68957 0.28614 0.70403 0.0
C3995 C 0.69075 0.28692 0.68496 0.0
C3996 C 0.70607 0.28399 0.71655 0.0
C3997 C 0.67031 0.28634 0.73087 0.0
C3998 C 0.71433 0.29739 0.73117 0.0
C3999 C 0.73002 0.29552 0.74243 0.0
C4000 C 0.73797 0.28026 0.73935 0.0
C4001 C 0.72955 0.26671 0.72501 0.0
C4002 C 0.71396 0.26863 0.71365 0.0
H4003 H 0.65576 0.28337 0.73307 0.0
H4004 H 0.67703 0.27576 0.7364 0.0
H4005 H 0.67664 0.29949 0.73901 0.0
H4006 H 0.7088 0.30948 0.73372 0.0
H4007 H 0.73606 0.30612 0.75347 0.0
H4008 H 0.03907 0.32897 0.96112 0.0
H4009 H 0.04254 0.36013 0.97584 0.0
H4010 H 0.98436 0.35401 0.97203 0.0
H4011 H 0.98109 0.32259 0.95887 0.0
H4012 H 0.03532 0.38791 0.96344 0.0
H4013 H 0.99323 0.38074 0.02101 0.0
H4014 H 0.99891 0.3614 0.00829 0.0
H4015 H 0.98004 0.37101 0.99953 0.0
C4016 C 0.02707 0.33403 0.96426 0.0
C4017 C 0.00981 0.32298 0.95923 0.0
C4018 C 0.02902 0.35206 0.97244 0.0
C4019 C 0.01376 0.35984 0.97552 0.0
C4020 C 0.99652 0.3486 0.97067 0.0
H4021 H 0.99564 0.47096 0.00341 0.0
H4022 H 0.99266 0.43842 0.99423 0.0
C4023 C 0.99461 0.33047 0.96293 0.0
C4024 C 0.01584 0.37987 0.98229 0.0
H4025 H 1.00021 0.4104 0.01155 0.0
C4026 C 0.02774 0.39267 0.97414 0.0
C4027 C 1.00603 0.38663 0.99624 0.0
C4028 C 0.994 0.37419 0.00689 0.0
C4029 C 0.02974 0.41155 0.97904 0.0
C4030 C 0.01969 0.41827 0.99273 0.0
C4031 C 0.00786 0.40553 1.00095 0.0
C4032 C 0.0214 0.43832 0.99882 0.0
C4033 C 0.04234 0.42409 0.96899 0.0
C4034 C 0.03842 0.44946 0.00497 0.0
C4035 C 0.04009 0.46813 0.01017 0.0
C4036 C 0.02478 0.47641 0.00982 0.0
C4037 C 0.0077 0.46521 0.00416 0.0
C4038 C 1.00602 0.44648 0.99877 0.0
H4039 H 0.04447 0.41743 0.95536 0.0
H4040 H 0.03704 0.43653 0.96666 0.0
H4041 H 0.05576 0.42805 0.97745 0.0
H4042 H 0.05053 0.44373 0.00588 0.0
H4043 H 0.05351 0.47609 0.01466 0.0
H4044 H 0.98693 0.79679 0.11709 0.0
H4045 H 0.96257 0.79705 0.13682 0.0
H4046 H 0.99416 0.77702 0.17985 0.0
H4047 H 0.01902 0.7778 0.16049 0.0
H4048 H 0.94203 0.77132 0.14835 0.0
H4049 H 0.97739 0.81378 0.2118 0.0
H4050 H 0.98787 0.81197 0.19067 0.0
H4051 H 0.98792 0.79491 0.20633 0.0
C4052 C 0.98882 0.79273 0.13089 0.0
C4053 C 1.005 0.78739 0.13723 0.0
C4054 C 0.97482 0.79284 0.1422 0.0
C4055 C 0.97642 0.78733 0.1601 0.0
C4056 C 0.99264 0.78196 0.16645 0.0
H4057 H 0.89859 0.75406 0.23653 0.0
H4058 H 0.92607 0.76284 0.22139 0.0
C4059 C 0.00686 0.78227 0.15528 0.0
C4060 C 0.96063 0.78598 0.17136 0.0
H4061 H 0.94818 0.79611 0.21458 0.0
C4062 C 0.94343 0.77699 0.16276 0.0
C4063 C 0.96221 0.79329 0.19026 0.0
C4064 C 0.97981 0.80419 0.20023 0.0
C4065 C 0.92807 0.77473 0.17247 0.0
C4066 C 0.92973 0.78168 0.19142 0.0
C4067 C 0.94685 0.79076 0.20007 0.0
C4068 C 0.91397 0.77887 0.20254 0.0
C4069 C 0.91023 0.76441 0.16241 0.0
C4070 C 0.8982 0.78561 0.19764 0.0
C4071 C 0.88253 0.7807 0.2064 0.0
C4072 C 0.88237 0.7691 0.22036 0.0
C4073 C 0.89844 0.76324 0.22601 0.0
C4074 C 0.91412 0.76819 0.21729 0.0
H4075 H 0.91205 0.7565 0.14933 0.0
H4076 H 0.90307 0.75503 0.17132 0.0
H4077 H 0.90144 0.77411 0.1588 0.0
H4078 H 0.89777 0.7941 0.18651 0.0
H4079 H 0.87025 0.78518 0.2016 0.0
H4080 H 0.5457 0.29783 0.15489 0.0
H4081 H 0.55008 0.32523 0.1388 0.0
H4082 H 0.49461 0.3298 0.14337 0.0
H4083 H 0.49012 0.3023 0.15903 0.0
H4084 H 0.52451 0.32785 0.10325 0.0
H4085 H 0.52785 0.38226 0.16112 0.0
H4086 H 0.53423 0.36092 0.16491 0.0
H4087 H 0.51077 0.36207 0.16011 0.0
C4088 C 0.53467 0.30507 0.15303 0.0
C4089 C 0.51769 0.29818 0.15861 0.0
C4090 C 0.5371 0.32058 0.14363 0.0
C4091 C 0.52269 0.32964 0.13991 0.0
C4092 C 0.50597 0.32318 0.14619 0.0
H4093 H 0.51796 0.42887 0.08692 0.0
H4094 H 0.50916 0.4011 0.10164 0.0
C4095 C 0.50346 0.30754 0.15527 0.0
C4096 C 0.52469 0.34511 0.12848 0.0
H4097 H 0.52826 0.39096 0.13096 0.0
C4098 C 0.52539 0.34166 0.10931 0.0
C4099 C 0.52539 0.36307 0.13627 0.0
C4100 C 0.52461 0.36747 0.15675 0.0
C4101 C 0.52693 0.35569 0.09778 0.0
C4102 C 0.52834 0.37381 0.10567 0.0
C4103 C 0.52722 0.37715 0.12481 0.0
C4104 C 0.53218 0.38957 0.09466 0.0
C4105 C 0.52667 0.35086 0.07718 0.0
C4106 C 0.54783 0.39231 0.08548 0.0
C4107 C 0.55281 0.4081 0.0771 0.0
C4108 C 0.54228 0.4216 0.07761 0.0
C4109 C 0.52618 0.41858 0.08605 0.0
C4110 C 0.52125 0.40277 0.0946 0.0
H4111 H 0.51927 0.33681 0.07268 0.0
H4112 H 0.52023 0.3602 0.06911 0.0
H4113 H 0.5408 0.35175 0.07381 0.0
H4114 H 0.55674 0.38263 0.08556 0.0
H4115 H 0.56539 0.41015 0.07088 0.0
H4116 H 0.98508 0.32298 0.36595 0.0
H4117 H 0.95372 0.32062 0.3521 0.0
H4118 H 0.96247 0.2829 0.30741 0.0
H4119 H 0.99425 0.28602 0.32088 0.0
H4120 H 0.94028 0.30405 0.2941 0.0
H4121 H 0.91382 0.2796 0.35718 0.0
H4122 H 0.92872 0.30121 0.362 0.0
H4123 H 0.93738 0.28171 0.35364 0.0
C4124 C 0.98041 0.3144 0.35301 0.0
C4125 C 0.99234 0.3049 0.34445 0.0
C4126 C 0.96231 0.31285 0.34517 0.0
C4127 C 0.95521 0.30112 0.32888 0.0
C4128 C 0.96731 0.29199 0.31999 0.0
H4129 H 0.83778 0.26022 0.29939 0.0
H4130 H 0.87019 0.2643 0.30923 0.0
C4131 C 0.98559 0.29383 0.32768 0.0
C4132 C 0.93518 0.29805 0.32161 0.0
H4133 H 0.89235 0.28699 0.33468 0.0
C4134 C 0.92985 0.30031 0.30303 0.0
C4135 C 0.92122 0.2927 0.33289 0.0
C4136 C 0.92552 0.28846 0.35246 0.0
C4137 C 0.91131 0.29791 0.29573 0.0
C4138 C 0.89739 0.29344 0.3073 0.0
C4139 C 0.90275 0.29072 0.32572 0.0
C4140 C 0.87728 0.29098 0.30059 0.0
C4141 C 0.90684 0.29971 0.27546 0.0
C4142 C 0.86985 0.30456 0.2924 0.0
C4143 C 0.85105 0.30221 0.28661 0.0
C4144 C 0.83888 0.28629 0.28893 0.0
C4145 C 0.8464 0.27276 0.29722 0.0
C4146 C 0.86514 0.27508 0.30296 0.0
H4147 H 0.91825 0.29782 0.26741 0.0
H4148 H 0.89456 0.28972 0.26929 0.0
H4149 H 0.90417 0.31346 0.27402 0.0
H4150 H 0.87856 0.31719 0.29069 0.0
H4151 H 0.84612 0.31295 0.28036 0.0
H4152 H 1.00554 0.71233 0.6297 0.0
H4153 H 0.00764 0.68464 0.61064 0.0
H4154 H 0.02505 0.6619 0.65967 0.0
H4155 H 0.02302 0.68976 0.67895 0.0
H4156 H 0.0386 0.66912 0.60702 0.0
H4157 H 0.98459 0.62097 0.63285 0.0
H4158 H 0.98643 0.64516 0.63691 0.0
H4159 H 1.00145 0.63418 0.65036 0.0
C4160 C 0.00957 0.70138 0.63657 0.0
C4161 C 0.01392 0.70338 0.65602 0.0
C4162 C 0.01086 0.6855 0.62555 0.0
C4163 C 0.01635 0.67092 0.63356 0.0
C4164 C 0.02048 0.67272 0.65303 0.0
H4165 H 0.02755 0.56275 0.58564 0.0
H4166 H 0.02573 0.58967 0.60606 0.0
C4167 C 0.01931 0.68872 0.6641 0.0
C4168 C 0.01828 0.65424 0.62141 0.0
H4169 H 1.00182 0.6087 0.61142 0.0
C4170 C 0.03053 0.65591 0.608 0.0
C4171 C 0.00793 0.63687 0.62261 0.0
C4172 C 0.99424 0.63409 0.63634 0.0
C4173 C 0.03291 0.64086 0.5961 0.0
C4174 C 0.02224 0.62346 0.59697 0.0
C4175 C 0.01005 0.62184 0.6105 0.0
C4176 C 0.02352 0.60686 0.58418 0.0
C4177 C 0.04735 0.64381 0.58315 0.0
C4178 C 0.02262 0.607 0.56478 0.0
C4179 C 0.02408 0.5916 0.55301 0.0
C4180 C 0.02599 0.57527 0.56009 0.0
C4181 C 0.02624 0.57496 0.57946 0.0
C4182 C 0.02514 0.59047 0.59127 0.0
H4183 H 0.05813 0.65574 0.58853 0.0
H4184 H 0.05378 0.63184 0.58104 0.0
H4185 H 0.04114 0.64647 0.56951 0.0
H4186 H 0.02062 0.61901 0.55859 0.0
H4187 H 0.02348 0.59252 0.5383 0.0
H4188 H 0.59107 0.82712 0.82155 0.0
H4189 H 0.61972 0.82192 0.81099 0.0
H4190 H 0.6234 0.78371 0.85065 0.0
H4191 H 0.59461 0.78873 0.86115 0.0
H4192 H 0.65414 0.82697 0.82574 0.0
H4193 H 0.63261 0.75342 0.80598 0.0
H4194 H 0.61679 0.76762 0.81181 0.0
H4195 H 0.63041 0.75984 0.82985 0.0
C4196 C 0.59789 0.81758 0.82814 0.0
C4197 C 0.59009 0.80841 0.84237 0.0
C4198 C 0.61449 0.81459 0.822 0.0
C4199 C 0.62406 0.80208 0.82956 0.0
C4200 C 0.61645 0.7931 0.84399 0.0
H4201 H 0.73107 0.77173 0.81515 0.0
H4202 H 0.70176 0.77583 0.82536 0.0
C4203 C 0.59987 0.79617 0.85022 0.0
C4204 C 0.64191 0.79872 0.82255 0.0
H4205 H 0.66409 0.76543 0.80634 0.0
C4206 C 0.65613 0.81346 0.82143 0.0
C4207 C 0.64506 0.78118 0.81666 0.0
C4208 C 0.63037 0.76462 0.81593 0.0
C4209 C 0.67301 0.81119 0.81522 0.0
C4210 C 0.67621 0.79366 0.8096 0.0
C4211 C 0.66203 0.77892 0.81064 0.0
C4212 C 0.6941 0.79046 0.80273 0.0
C4213 C 0.68758 0.82769 0.81514 0.0
C4214 C 0.69992 0.7968 0.78623 0.0
C4215 C 0.7166 0.79398 0.78007 0.0
C4216 C 0.72837 0.78509 0.79037 0.0
C4217 C 0.72254 0.7787 0.80681 0.0
C4218 C 0.70564 0.78106 0.8127 0.0
H4219 H 0.68474 0.83968 0.8235 0.0
H4220 H 0.70101 0.82518 0.82065 0.0
H4221 H 0.68839 0.83089 0.80065 0.0
H4222 H 0.69151 0.80396 0.77801 0.0
H4223 H 0.72052 0.79922 0.76742 0.0
H4224 H 0.41829 0.51174 0.69627 0.0
H4225 H 0.43022 0.51483 0.66628 0.0
H4226 H 0.48466 0.52866 0.6942 0.0
H4227 H 0.47289 0.5257 0.72415 0.0
H4228 H 0.45442 0.5465 0.6544 0.0
H4229 H 0.48533 0.48537 0.6542 0.0
H4230 H 0.46801 0.48904 0.66879 0.0
H4231 H 0.49089 0.50119 0.67486 0.0
C4232 C 0.4328 0.51548 0.69606 0.0
C4233 C 0.4446 0.51839 0.71272 0.0
C4234 C 0.43961 0.51726 0.67886 0.0
C4235 C 0.45839 0.52178 0.67786 0.0
C4236 C 0.47016 0.52493 0.69449 0.0
H4237 H 0.52696 0.52433 0.58815 0.0
H4238 H 0.51434 0.52436 0.61754 0.0
C4239 C 0.46337 0.52329 0.71167 0.0
C4240 C 0.46572 0.52315 0.65951 0.0
H4241 H 0.49088 0.50339 0.63 0.0
C4242 C 0.46236 0.53706 0.649 0.0
C4243 C 0.47626 0.51098 0.6525 0.0
C4244 C 0.48029 0.4957 0.66305 0.0
C4245 C 0.4696 0.53942 0.63201 0.0
C4246 C 0.4799 0.52701 0.62473 0.0
C4247 C 0.48306 0.51299 0.63529 0.0
C4248 C 0.48788 0.52839 0.60654 0.0
C4249 C 0.46668 0.55571 0.62257 0.0
C4250 C 0.47751 0.53079 0.59011 0.0
C4251 C 0.48514 0.53182 0.57326 0.0
C4252 C 0.50318 0.52975 0.57208 0.0
C4253 C 0.51332 0.52679 0.58841 0.0
C4254 C 0.50591 0.52642 0.60534 0.0
H4255 H 0.46431 0.56673 0.63265 0.0
H4256 H 0.47849 0.56107 0.61537 0.0
H4257 H 0.45445 0.55186 0.61223 0.0
H4258 H 0.46336 0.53155 0.59015 0.0
H4259 H 0.47671 0.53373 0.561 0.0
H4260 H 0.74901 0.13914 0.97398 0.0
H4261 H 0.7544 0.15977 0.95054 0.0
H4262 H 0.79399 0.19657 0.98951 0.0
H4263 H 0.78874 0.1759 0.01331 0.0
H4264 H 0.75517 0.20402 0.96253 0.0
H4265 H 0.81211 0.17883 0.93213 0.0
H4266 H 0.79519 0.16335 0.94162 0.0
H4267 H 0.81051 0.18064 0.95682 0.0
C4268 C 0.75896 0.15155 0.97758 0.0
C4269 C 0.76854 0.15592 0.9954 0.0
C4270 C 0.76202 0.16325 0.96419 0.0
C4271 C 0.77475 0.17937 0.96841 0.0
C4272 C 0.78426 0.18399 0.98616 0.0
H4273 H 0.77009 0.2579 0.88986 0.0
H4274 H 0.78346 0.24497 0.91629 0.0
C4275 C 0.78115 0.17228 0.99967 0.0
C4276 C 0.77703 0.19168 0.95423 0.0
H4277 H 0.7967 0.1975 0.91453 0.0
C4278 C 0.76459 0.20311 0.95229 0.0
C4279 C 0.78917 0.18995 0.94094 0.0
C4280 C 0.8026 0.17758 0.94286 0.0
C4281 C 0.76325 0.21225 0.93664 0.0
C4282 C 0.77493 0.21005 0.92292 0.0
C4283 C 0.78797 0.19922 0.92527 0.0
C4284 C 0.77196 0.21731 0.90523 0.0
C4285 C 0.74851 0.22318 0.93422 0.0
C4286 C 0.76185 0.20584 0.89013 0.0
C4287 C 0.75423 0.21316 0.87516 0.0
C4288 C 0.75658 0.23195 0.8754 0.0
C4289 C 0.76787 0.24335 0.8898 0.0
C4290 C 0.77566 0.23603 0.90466 0.0
H4291 H 0.73942 0.22193 0.94533 0.0
H4292 H 0.75474 0.23765 0.93443 0.0
H4293 H 0.74017 0.21874 0.92061 0.0
H4294 H 0.75879 0.19134 0.89053 0.0
H4295 H 0.74574 0.20425 0.86391 0.0
H4296 H 0.1705 0.55979 0.19437 0.0
H4297 H 0.15167 0.55996 0.16521 0.0
H4298 H 0.12073 0.50753 0.17185 0.0
H4299 H 0.13886 0.50785 0.20164 0.0
H4300 H 0.1421 0.53967 0.13279 0.0
H4301 H 0.08258 0.53819 0.17208 0.0
H4302 H 0.10538 0.54102 0.18341 0.0
H4303 H 0.09278 0.51884 0.1744 0.0
C4304 C 0.16 0.5481 0.18928 0.0
C4305 C 0.15585 0.53387 0.20008 0.0
C4306 C 0.14924 0.54825 0.17276 0.0
C4307 C 0.13454 0.53402 0.16686 0.0
C4308 C 0.13168 0.51888 0.17664 0.0
H4309 H 0.06806 0.50813 0.06493 0.0
H4310 H 0.0899 0.51087 0.09246 0.0
C4311 C 0.1421 0.51896 0.19343 0.0
C4312 C 0.12144 0.53564 0.15128 0.0
H4313 H 0.07646 0.53399 0.13905 0.0
C4314 C 0.12777 0.53856 0.13416 0.0
C4315 C 0.10287 0.53479 0.1534 0.0
C4316 C 0.09554 0.53325 0.17187 0.0
C4317 C 0.11578 0.53977 0.11875 0.0
C4318 C 0.09712 0.53754 0.12062 0.0
C4319 C 0.09085 0.53546 0.13785 0.0
C4320 C 0.08375 0.53596 0.1045 0.0
C4321 C 0.12305 0.54329 0.10057 0.0
C4322 C 0.07276 0.54884 0.10285 0.0
C4323 C 0.06009 0.54715 0.08734 0.0
C4324 C 0.05853 0.53262 0.07348 0.0
C4325 C 0.06924 0.51952 0.07544 0.0
C4326 C 0.08172 0.52112 0.091 0.0
H4327 H 0.1378 0.54912 0.1026 0.0
H4328 H 0.12092 0.53037 0.09138 0.0
H4329 H 0.11579 0.55265 0.0934 0.0
H4330 H 0.07421 0.56027 0.11337 0.0
H4331 H 0.05198 0.55746 0.08587 0.0
H4332 H 0.77441 0.88114 0.46371 0.0
H4333 H 0.77255 0.86425 0.43326 0.0
H4334 H 0.79579 0.82304 0.45813 0.0
H4335 H 0.79747 0.83997 0.48903 0.0
H4336 H 0.80153 0.85727 0.41663 0.0
H4337 H 0.75469 0.79263 0.42148 0.0
H4338 H 0.75642 0.81239 0.43795 0.0
H4339 H 0.77348 0.79874 0.43945 0.0
C4340 C 0.77885 0.86831 0.46284 0.0
C4341 C 0.78614 0.86198 0.47893 0.0
C4342 C 0.77781 0.85866 0.44531 0.0
C4343 C 0.78401 0.8423 0.4432 0.0
C4344 C 0.79064 0.83547 0.4593 0.0
H4345 H 0.79524 0.77678 0.33945 0.0
H4346 H 0.79653 0.7887 0.37215 0.0
C4347 C 0.79159 0.84516 0.47701 0.0
C4348 C 0.78468 0.83346 0.42401 0.0
H4349 H 0.76851 0.79513 0.39379 0.0
C4350 C 0.79431 0.84366 0.4117 0.0
C4351 C 0.77537 0.81566 0.41744 0.0
C4352 C 0.76426 0.80421 0.42967 0.0
C4353 C 0.7948 0.8367 0.39317 0.0
C4354 C 0.78518 0.81905 0.38646 0.0
C4355 C 0.77588 0.80865 0.39885 0.0
C4356 C 0.78418 0.81152 0.36652 0.0
C4357 C 0.80578 0.84833 0.38097 0.0
C4358 C 0.77662 0.82015 0.35232 0.0
C4359 C 0.77601 0.81347 0.33361 0.0
C4360 C 0.78287 0.79785 0.3285 0.0
C4361 C 0.79009 0.78898 0.34275 0.0
C4362 C 0.79073 0.79572 0.36152 0.0
H4363 H 0.81623 0.8591 0.38929 0.0
H4364 H 0.8126 0.8401 0.37153 0.0
H4365 H 0.79662 0.85499 0.37235 0.0
H4366 H 0.7711 0.83212 0.35572 0.0
H4367 H 0.77014 0.82061 0.32313 0.0
H4368 H 0.46864 0.51091 0.80986 0.0
H4369 H 0.48598 0.51213 0.84056 0.0
H4370 H 0.44324 0.5313 0.86672 0.0
H4371 H 0.42601 0.5302 0.83653 0.0
H4372 H 0.49735 0.54186 0.87279 0.0
H4373 H 0.44812 0.48297 0.88865 0.0
H4374 H 0.45014 0.48853 0.86528 0.0
H4375 H 0.43802 0.50086 0.88035 0.0
C4376 C 0.46308 0.51568 0.82213 0.0
C4377 C 0.44577 0.52024 0.8206 0.0
C4378 C 0.473 0.51632 0.83969 0.0
C4379 C 0.46577 0.52149 0.85602 0.0
C4380 C 0.449 0.52698 0.8544 0.0
H4381 H 0.48613 0.53162 0.97509 0.0
H4382 H 0.47524 0.53108 0.94231 0.0
C4383 C 0.43915 0.52635 0.83701 0.0
C4384 C 0.47497 0.52031 0.87487 0.0
H4385 H 0.46854 0.49938 0.91402 0.0
C4386 C 0.49122 0.53239 0.88171 0.0
C4387 C 0.46697 0.50801 0.8866 0.0
C4388 C 0.44993 0.49423 0.87986 0.0
C4389 C 0.49925 0.53291 0.90016 0.0
C4390 C 0.49093 0.52093 0.91201 0.0
C4391 C 0.47493 0.5086 0.90499 0.0
C4392 C 0.49806 0.52149 0.93199 0.0
C4393 C 0.51615 0.54676 0.90713 0.0
C4394 C 0.5145 0.5161 0.93723 0.0
C4395 C 0.52077 0.51629 0.95608 0.0
C4396 C 0.51074 0.52188 0.97012 0.0
C4397 C 0.49428 0.52724 0.96476 0.0
C4398 C 0.48799 0.52695 0.94596 0.0
H4399 H 0.51954 0.55667 0.89709 0.0
H4400 H 0.51447 0.55416 0.92055 0.0
H4401 H 0.52774 0.53982 0.9096 0.0
H4402 H 0.52242 0.5116 0.92673 0.0
H4403 H 0.53352 0.51214 0.95962 0.0
H4404 H 0.8073 0.16878 0.09772 0.0
H4405 H 0.80897 0.18768 0.12719 0.0
H4406 H 0.7546 0.1613 0.13398 0.0
H4407 H 0.75342 0.14164 0.1052 0.0
H4408 H 0.7866 0.21091 0.13014 0.0
H4409 H 0.77847 0.16572 0.18587 0.0
H4410 H 0.78363 0.15801 0.16317 0.0
H4411 H 0.76079 0.1599 0.16683 0.0
C4412 C 0.7961 0.16655 0.10602 0.0
C4413 C 0.78033 0.15383 0.09954 0.0
C4414 C 0.79698 0.17735 0.12267 0.0
C4415 C 0.78191 0.17579 0.13267 0.0
C4416 C 0.76652 0.16236 0.12669 0.0
H4417 H 0.75958 0.25793 0.21345 0.0
H4418 H 0.75796 0.23789 0.1847 0.0
C4419 C 0.76586 0.15117 0.1103 0.0
C4420 C 0.78154 0.18968 0.1479 0.0
H4421 H 0.77662 0.19642 0.19376 0.0
C4422 C 0.78451 0.20777 0.14409 0.0
C4423 C 0.77844 0.18538 0.16588 0.0
C4424 C 0.7753 0.16621 0.17074 0.0
C4425 C 0.78506 0.22179 0.15807 0.0
C4426 C 0.78237 0.21744 0.17604 0.0
C4427 C 0.77876 0.19943 0.17978 0.0
C4428 C 0.78434 0.23139 0.19157 0.0
C4429 C 0.78904 0.24115 0.15385 0.0
C4430 C 0.79986 0.23431 0.20444 0.0
C4431 C 0.80076 0.24549 0.22082 0.0
C4432 C 0.78618 0.25386 0.22424 0.0
C4433 C 0.77105 0.25169 0.21086 0.0
C4434 C 0.77008 0.24032 0.19456 0.0
H4435 H 0.79127 0.24222 0.13912 0.0
H4436 H 0.77757 0.24779 0.15697 0.0
H4437 H 0.8013 0.24867 0.16288 0.0
H4438 H 0.81092 0.22737 0.2021 0.0
H4439 H 0.81254 0.24719 0.23103 0.0
H4440 H 0.1673 0.51878 0.31409 0.0
H4441 H 0.1466 0.51243 0.33765 0.0
H4442 H 0.11894 0.55445 0.32093 0.0
H4443 H 0.13896 0.56001 0.29675 0.0
H4444 H 0.14537 0.53582 0.36572 0.0
H4445 H 0.07645 0.51696 0.32824 0.0
H4446 H 0.09651 0.51657 0.31666 0.0
H4447 H 0.08834 0.53732 0.32094 0.0
C4448 C 0.15653 0.52635 0.31534 0.0
C4449 C 0.15453 0.53984 0.30388 0.0
C4450 C 0.1447 0.52266 0.32862 0.0
C4451 C 0.13099 0.53268 0.33074 0.0
C4452 C 0.12894 0.54606 0.31905 0.0
H4453 H 0.07981 0.58242 0.40762 0.0
H4454 H 0.08942 0.56705 0.3804 0.0
C4455 C 0.14049 0.54943 0.30547 0.0
C4456 C 0.12075 0.53124 0.3469 0.0
H4457 H 0.07875 0.53188 0.35998 0.0
C4458 C 0.13073 0.53438 0.36452 0.0
C4459 C 0.10167 0.52926 0.34523 0.0
C4460 C 0.09015 0.52464 0.32671 0.0
C4461 C 0.12237 0.53737 0.3805 0.0
C4462 C 0.10348 0.53692 0.37868 0.0
C4463 C 0.09326 0.5323 0.36122 0.0
C4464 C 0.09488 0.5442 0.39419 0.0
C4465 C 0.13403 0.54246 0.39895 0.0
C4466 C 0.09438 0.53613 0.41069 0.0
C4467 C 0.08923 0.54505 0.42633 0.0
C4468 C 0.08437 0.56205 0.42555 0.0
C4469 C 0.08391 0.56956 0.40868 0.0
C4470 C 0.08912 0.56067 0.3931 0.0
H4471 H 0.14875 0.54469 0.39743 0.0
H4472 H 0.13109 0.55496 0.40623 0.0
H4473 H 0.131 0.53144 0.40784 0.0
H4474 H 0.09865 0.52333 0.41167 0.0
H4475 H 0.08968 0.53895 0.43919 0.0
H4476 H 0.75951 0.86449 0.58746 0.0
H4477 H 0.75703 0.85201 0.61733 0.0
H4478 H 0.8134 0.8478 0.6207 0.0
H4479 H 0.81597 0.86098 0.59138 0.0
H4480 H 0.76031 0.82078 0.62859 0.0
H4481 H 0.81383 0.87181 0.67135 0.0
H4482 H 0.80555 0.87476 0.64801 0.0
H4483 H 0.82244 0.86112 0.65207 0.0
C4484 C 0.7714 0.86112 0.59477 0.0
C4485 C 0.78801 0.86398 0.58724 0.0
C4486 C 0.76998 0.8539 0.61183 0.0
C4487 C 0.78512 0.84923 0.62175 0.0
C4488 C 0.80162 0.8518 0.6139 0.0
H4489 H 0.79589 0.78421 0.71395 0.0
H4490 H 0.79716 0.79784 0.68472 0.0
C4491 C 0.80308 0.85924 0.59701 0.0
C4492 C 0.78354 0.84124 0.63992 0.0
H4493 H 0.80331 0.84491 0.68495 0.0
C4494 C 0.76968 0.82621 0.64089 0.0
C4495 C 0.7956 0.84821 0.65627 0.0
C4496 C 0.81006 0.86497 0.65696 0.0
C4497 C 0.76789 0.81786 0.65736 0.0
C4498 C 0.78023 0.82456 0.67341 0.0
C4499 C 0.79392 0.83966 0.67261 0.0
C4500 C 0.77913 0.81606 0.69115 0.0
C4501 C 0.75284 0.8018 0.65759 0.0
C4502 C 0.76865 0.82178 0.70466 0.0
C4503 C 0.76803 0.81412 0.72152 0.0
C4504 C 0.77773 0.8004 0.72521 0.0
C4505 C 0.7881 0.79461 0.71156 0.0
C4506 C 0.78888 0.80242 0.69482 0.0
H4507 H 0.74448 0.79791 0.64392 0.0
H4508 H 0.75865 0.79008 0.66158 0.0
H4509 H 0.74393 0.80497 0.6682 0.0
H4510 H 0.76098 0.83224 0.70218 0.0
H4511 H 0.75984 0.81884 0.73163 0.0
H4512 H 0.75076 0.46041 0.46753 0.0
H4513 H 0.72186 0.47023 0.47028 0.0
H4514 H 0.71514 0.44246 0.5189 0.0
H4515 H 0.74373 0.43261 0.51647 0.0
H4516 H 0.68372 0.44486 0.47677 0.0
H4517 H 0.71775 0.50052 0.53123 0.0
H4518 H 0.72992 0.49048 0.51417 0.0
H4519 H 0.72335 0.4787 0.53344 0.0
C4520 C 0.74301 0.45626 0.47868 0.0
C4521 C 0.74948 0.44582 0.49182 0.0
C4522 C 0.72657 0.46178 0.48013 0.0
C4523 C 0.71668 0.45695 0.49474 0.0
C4524 C 0.72277 0.44612 0.50751 0.0
H4525 H 0.63234 0.47328 0.55385 0.0
H4526 H 0.65194 0.45898 0.53472 0.0
C4527 C 0.73907 0.44056 0.50606 0.0
C4528 C 0.70059 0.46423 0.4978 0.0
H4529 H 0.68559 0.49315 0.52832 0.0
C4530 C 0.68402 0.45567 0.48774 0.0
C4531 C 0.7014 0.47821 0.51222 0.0
C4532 C 0.71907 0.48763 0.52335 0.0
C4533 C 0.66782 0.46033 0.49244 0.0
C4534 C 0.66862 0.47375 0.50737 0.0
C4535 C 0.68528 0.48282 0.51684 0.0
C4536 C 0.65246 0.47817 0.51449 0.0
C4537 C 0.64997 0.45056 0.48209 0.0
C4538 C 0.64611 0.49324 0.50892 0.0
C4539 C 0.63514 0.50145 0.51983 0.0
C4540 C 0.63069 0.49471 0.53645 0.0
C4541 C 0.63594 0.47879 0.54122 0.0
C4542 C 0.64679 0.4705 0.53021 0.0
H4543 H 0.65177 0.44092 0.47027 0.0
H4544 H 0.64178 0.44302 0.49174 0.0
H4545 H 0.64223 0.4605 0.47678 0.0
H4546 H 0.65079 0.49944 0.497 0.0
H4547 H 0.63118 0.51376 0.51596 0.0
H4548 H 0.20073 0.16839 0.49899 0.0
H4549 H 0.17153 0.14892 0.50162 0.0
H4550 H 0.19906 0.10502 0.51182 0.0
H4551 H 0.22808 0.12534 0.51233 0.0
H4552 H 0.15241 0.12124 0.48385 0.0
H4553 H 0.17049 0.0995 0.55239 0.0
H4554 H 0.18558 0.1166 0.54288 0.0
H4555 H 0.18489 0.0929 0.53603 0.0
C4556 C 0.20046 0.15458 0.50188 0.0
C4557 C 0.21666 0.14809 0.50451 0.0
C4558 C 0.18376 0.1434 0.50332 0.0
C4559 C 0.18287 0.12541 0.50726 0.0
C4560 C 0.19913 0.11891 0.50946 0.0
H4561 H 0.09515 0.03656 0.51978 0.0
H4562 H 0.12378 0.05545 0.51528 0.0
C4563 C 0.2158 0.13036 0.50896 0.0
C4564 C 0.16501 0.11353 0.50887 0.0
H4565 H 0.14305 0.08344 0.53532 0.0
C4566 C 0.15039 0.11311 0.49523 0.0
C4567 C 0.16216 0.10275 0.52366 0.0
C4568 C 0.17658 0.10311 0.53963 0.0
C4569 C 0.13326 0.10219 0.49574 0.0
C4570 C 0.13051 0.09129 0.51039 0.0
C4571 C 0.14511 0.09164 0.52399 0.0
C4572 C 0.11267 0.07951 0.51206 0.0
C4573 C 0.11846 0.10226 0.48029 0.0
C4574 C 0.09671 0.08656 0.51185 0.0
C4575 C 0.08009 0.07546 0.51356 0.0
C4576 C 0.07905 0.05715 0.51635 0.0
C4577 C 0.09516 0.05031 0.5172 0.0
C4578 C 0.11169 0.06126 0.51483 0.0
H4579 H 0.12414 0.10648 0.46753 0.0
H4580 H 0.10953 0.08876 0.47682 0.0
H4581 H 0.11009 0.11214 0.48472 0.0
H4582 H 0.09708 0.10074 0.51061 0.0
H4583 H 0.06813 0.08146 0.51323 0.0
H4584 H 0.14111 0.98338 0.80589 0.0
H4585 H 0.15517 0.95647 0.80343 0.0
H4586 H 0.18959 0.98055 0.76492 0.0
H4587 H 0.17555 0.00726 0.76732 0.0
H4588 H 0.16092 0.93206 0.7706 0.0
H4589 H 0.22458 0.97159 0.81004 0.0
H4590 H 0.20316 0.97899 0.81006 0.0
H4591 H 0.21598 0.98179 0.79065 0.0
C4592 C 0.1512 0.98256 0.7964 0.0
C4593 C 0.15699 0.99713 0.78644 0.0
C4594 C 0.15936 0.96732 0.79516 0.0
C4595 C 0.1736 0.96664 0.7842 0.0
C4596 C 0.17875 0.98087 0.7736 0.0
H4597 H 0.25 0.90578 0.75098 0.0
H4598 H 0.23318 0.92827 0.76239 0.0
C4599 C 0.17059 0.996 0.77478 0.0
C4600 C 0.18374 0.95157 0.78435 0.0
H4601 H 0.22613 0.94283 0.79478 0.0
C4602 C 0.17511 0.93428 0.77611 0.0
C4603 C 0.20222 0.95452 0.79165 0.0
C4604 C 0.21204 0.97268 0.80126 0.0
C4605 C 0.18476 0.92012 0.77392 0.0
C4606 C 0.20347 0.92323 0.78063 0.0
C4607 C 0.21183 0.94036 0.78966 0.0
C4608 C 0.21512 0.9098 0.77633 0.0
C4609 C 0.17504 0.9023 0.76346 0.0
C4610 C 0.21129 0.89204 0.78117 0.0
C4611 C 0.22097 0.87905 0.77455 0.0
C4612 C 0.23469 0.88372 0.76315 0.0
C4613 C 0.23945 0.90182 0.7597 0.0
C4614 C 0.22979 0.91468 0.76619 0.0
H4615 H 0.16186 0.90338 0.75588 0.0
H4616 H 0.18349 0.89718 0.75331 0.0
H4617 H 0.17227 0.8922 0.77342 0.0
H4618 H 0.20038 0.88804 0.78944 0.0
H4619 H 0.21697 0.86518 0.77735 0.0
H4620 H 0.35521 0.9241 0.98646 0.0
H4621 H 0.38604 0.94245 0.99398 0.0
H4622 H 0.3649 0.98235 0.0271 0.0
H4623 H 0.33446 0.96424 0.01972 0.0
H4624 H 0.38737 0.99557 1.00039 0.0
H4625 H 0.41724 0.95139 0.04624 0.0
H4626 H 0.4057 0.94043 0.02422 0.0
H4627 H 0.39306 0.94972 0.04105 0.0
C4628 C 0.35734 0.93681 0.99529 0.0
C4629 C 0.34277 0.94318 1.00219 0.0
C4630 C 0.37475 0.94711 0.99965 0.0
C4631 C 0.37745 0.96348 0.01121 0.0
C4632 C 0.36287 0.96967 0.01822 0.0
H4633 H 0.48342 0.03083 0.05102 0.0
H4634 H 0.4513 0.01669 0.051 0.0
C4635 C 0.3456 0.95947 0.01385 0.0
C4636 C 0.39538 0.97474 0.01549 0.0
H4637 H 0.43747 0.97635 0.03748 0.0
C4638 C 0.3983 0.99145 0.00848 0.0
C4639 C 0.40926 0.96935 0.02664 0.0
C4640 C 0.40621 0.95181 0.03515 0.0
C4641 C 0.41529 1.00266 0.01143 0.0
C4642 C 0.42942 0.99685 0.02174 0.0
C4643 C 0.42633 0.98059 0.02964 0.0
C4644 C 0.44798 0.00608 0.02197 0.0
C4645 C 0.41824 0.02022 1.00291 0.0
C4646 C 0.45617 1.00449 0.00565 0.0
C4647 C 0.47419 0.01228 0.0057 0.0
C4648 C 0.48396 0.0216 0.02208 0.0
C4649 C 0.4758 0.02347 0.03838 0.0
C4650 C 0.45769 0.01556 0.03836 0.0
H4651 H 0.40526 0.02467 0.99925 0.0
H4652 H 0.42742 0.03105 0.01251 0.0
H4653 H 0.42471 0.01835 0.99 0.0
H4654 H 0.4487 0.99694 0.99302 0.0
H4655 H 0.4806 0.01075 0.99311 0.0
H4656 H 0.83718 0.55537 0.82288 0.0
H4657 H 0.82654 0.58355 0.8189 0.0
H4658 H 0.87069 0.60047 0.78713 0.0
H4659 H 0.88147 0.57258 0.79089 0.0
H4660 H 0.84714 0.62249 0.82645 0.0
H4661 H 0.82145 0.59744 0.75278 0.0
H4662 H 0.82626 0.58258 0.76978 0.0
H4663 H 0.84444 0.59542 0.75957 0.0
C4664 C 0.84476 0.5652 0.81525 0.0
C4665 C 0.86004 0.56168 0.80702 0.0
C4666 C 0.83868 0.58123 0.81306 0.0
C4667 C 0.84781 0.59378 0.80262 0.0
C4668 C 0.86348 0.59073 0.79512 0.0
H4669 H 0.839 0.68859 0.75443 0.0
H4670 H 0.85037 0.66634 0.77217 0.0
C4671 C 0.86957 0.57479 0.79729 0.0
C4672 C 0.84047 0.60964 0.79837 0.0
H4673 H 0.82335 0.62875 0.76198 0.0
C4674 C 0.84171 0.62389 0.81245 0.0
C4675 C 0.83335 0.61111 0.78008 0.0
C4676 C 0.83112 0.59577 0.76469 0.0
C4677 C 0.83665 0.64011 0.80843 0.0
C4678 C 0.8303 0.64181 0.78999 0.0
C4679 C 0.82848 0.62731 0.77608 0.0
C4680 C 0.82552 0.65851 0.78435 0.0
C4681 C 0.83855 0.65548 0.82361 0.0
C4682 C 0.80805 0.66172 0.78599 0.0
C4683 C 0.80143 0.6742 0.7757 0.0
C4684 C 0.81224 0.68348 0.76362 0.0
C4685 C 0.83031 0.68137 0.76339 0.0
C4686 C 0.83689 0.66887 0.77364 0.0
H4687 H 0.84446 0.65221 0.83713 0.0
H4688 H 0.84729 0.6677 0.81974 0.0
H4689 H 0.82502 0.65879 0.82523 0.0
H4690 H 0.79909 0.65355 0.79402 0.0
H4691 H 0.78742 0.67548 0.77607 0.0
H4692 H 0.80941 0.63917 0.97927 0.0
H4693 H 0.83712 0.62722 0.98401 0.0
H4694 H 0.84503 0.64984 0.04142 0.0
H4695 H 0.81696 0.66186 0.03677 0.0
H4696 H 0.87368 0.64319 0.997 0.0
H4697 H 0.84248 0.59478 0.04303 0.0
H4698 H 0.8293 0.607 0.02872 0.0
H4699 H 0.84232 0.61816 0.04992 0.0
C4700 C 0.81715 0.64186 0.99288 0.0
C4701 C 0.81092 0.65138 0.0077 0.0
C4702 C 0.83303 0.63502 0.99554 0.0
C4703 C 0.843 0.63738 0.01311 0.0
C4704 C 0.83738 0.64767 0.02778 0.0
H4705 H 0.94287 0.60579 0.05134 0.0
H4706 H 0.92005 0.62303 0.04089 0.0
C4707 C 0.82146 0.65468 0.02508 0.0
C4708 C 0.85864 0.62819 0.01607 0.0
H4709 H 0.87296 0.59469 0.0383 0.0
C4710 C 0.87358 0.63266 0.00611 0.0
C4711 C 0.85828 0.61413 0.02759 0.0
C4712 C 0.8422 0.60805 0.03783 0.0
C4713 C 0.88833 0.62372 0.00774 0.0
C4714 C 0.88808 0.60997 0.01954 0.0
C4715 C 0.87307 0.6053 0.02927 0.0
C4716 C 0.90356 0.60066 0.02266 0.0
C4717 C 0.90403 0.62881 0.99674 0.0
C4718 C 0.90212 0.58256 0.01535 0.0
C4719 C 0.91531 0.57279 0.02109 0.0
C4720 C 0.92996 0.58096 0.03434 0.0
C4721 C 0.9319 0.59935 0.04079 0.0
C4722 C 0.91883 0.60915 0.03494 0.0
H4723 H 0.90138 0.63848 0.98675 0.0
H4724 H 0.91634 0.63506 0.00638 0.0
H4725 H 0.90694 0.61651 0.98901 0.0
H4726 H 0.89034 0.57576 0.00596 0.0
H4727 H 0.91333 0.55852 0.01627 0.0
H4728 H 0.18079 0.07921 0.77728 0.0
H4729 H 0.20032 0.10808 0.77424 0.0
H4730 H 0.16696 0.13607 0.80666 0.0
H4731 H 0.14688 0.10703 0.80905 0.0
H4732 H 0.17429 0.15125 0.77399 0.0
H4733 H 0.23932 0.14069 0.81023 0.0
H4734 H 0.22483 0.12155 0.79656 0.0
H4735 H 0.21752 0.13167 0.81711 0.0
C4736 C 0.17788 0.09149 0.78415 0.0
C4737 C 0.16254 0.09087 0.79374 0.0
C4738 C 0.18909 0.10802 0.78243 0.0
C4739 C 0.18544 0.12435 0.79056 0.0
C4740 C 0.17018 0.1237 0.80036 0.0
H4741 H 0.23904 0.23673 0.80268 0.0
H4742 H 0.22046 0.20706 0.80498 0.0
C4743 C 0.15875 0.10713 0.8018 0.0
C4744 C 0.19685 0.14207 0.78785 0.0
H4745 H 0.24009 0.16704 0.79601 0.0
C4746 C 0.18867 0.15466 0.77884 0.0
C4747 C 0.21568 0.14664 0.79402 0.0
C4748 C 0.22499 0.1345 0.80506 0.0
C4749 C 0.19878 0.17154 0.77591 0.0
C4750 C 0.21752 0.17597 0.78216 0.0
C4751 C 0.22575 0.16344 0.791 0.0
C4752 C 0.22866 0.19393 0.78046 0.0
C4753 C 0.18951 0.1846 0.76611 0.0
C4754 C 0.23972 0.19627 0.76611 0.0
C4755 C 0.25055 0.21317 0.76488 0.0
C4756 C 0.25041 0.22803 0.77795 0.0
C4757 C 0.23937 0.22557 0.79235 0.0
C4758 C 0.22871 0.20866 0.79366 0.0
H4759 H 0.175 0.17887 0.76133 0.0
H4760 H 0.1904 0.19715 0.77562 0.0
H4761 H 0.19655 0.1884 0.75395 0.0
H4762 H 0.23988 0.18503 0.75581 0.0
H4763 H 0.25871 0.21472 0.75349 0.0
H4764 H 0.34166 0.97496 0.28467 0.0
H4765 H 0.32478 0.94409 0.27968 0.0
H4766 H 0.37372 0.92517 0.297 0.0
H4767 H 0.38986 0.95649 0.30486 0.0
H4768 H 0.32842 0.92014 0.25584 0.0
H4769 H 0.34044 0.89416 0.32354 0.0
H4770 H 0.34719 0.91771 0.32079 0.0
H4771 H 0.36148 0.90196 0.31479 0.0
C4772 C 0.34844 0.96423 0.28852 0.0
C4773 C 0.36656 0.96792 0.29632 0.0
C4774 C 0.33896 0.9466 0.28523 0.0
C4775 C 0.34789 0.93234 0.2884 0.0
C4776 C 0.36636 0.936 0.29531 0.0
H4777 H 0.32242 0.81949 0.26517 0.0
H4778 H 0.33554 0.85073 0.2627 0.0
C4779 C 0.37561 0.95378 0.29955 0.0
C4780 C 0.33812 0.91375 0.28287 0.0
H4781 H 0.32915 0.87203 0.29733 0.0
C4782 C 0.32842 0.90968 0.26502 0.0
C4783 C 0.33813 0.90017 0.29489 0.0
C4784 C 0.34722 0.90379 0.31462 0.0
C4785 C 0.31885 0.89227 0.2588 0.0
C4786 C 0.31952 0.87873 0.27054 0.0
C4787 C 0.32905 0.88268 0.28837 0.0
C4788 C 0.3104 0.86013 0.26494 0.0
C4789 C 0.30818 0.88835 0.2398 0.0
C4790 C 0.29175 0.85526 0.26586 0.0
C4791 C 0.28407 0.83728 0.26676 0.0
C4792 C 0.29515 0.82433 0.26705 0.0
C4793 C 0.31348 0.82911 0.26442 0.0
C4794 C 0.32104 0.84696 0.26315 0.0
H4795 H 0.31068 0.9 0.23158 0.0
H4796 H 0.31165 0.87636 0.23204 0.0
H4797 H 0.29348 0.88513 0.24131 0.0
H4798 H 0.28353 0.86548 0.26756 0.0
H4799 H 0.26989 0.8338 0.26886 0.0
H4800 H 0.51873 0.3336 0.58991 0.0
H4801 H 0.51754 0.36322 0.57954 0.0
H4802 H 0.57575 0.37509 0.58234 0.0
H4803 H 0.57705 0.3454 0.59327 0.0
H4804 H 0.53434 0.39971 0.59704 0.0
H4805 H 0.5572 0.38459 0.5281 0.0
H4806 H 0.54851 0.36703 0.54186 0.0
H4807 H 0.57104 0.37999 0.54794 0.0
C4808 C 0.53138 0.34251 0.5885 0.0
C4809 C 0.54801 0.33688 0.59263 0.0
C4810 C 0.53065 0.35959 0.5825 0.0
C4811 C 0.54649 0.37167 0.57985 0.0
C4812 C 0.56321 0.36618 0.58405 0.0
H4813 H 0.55829 0.48651 0.55601 0.0
H4814 H 0.56324 0.45781 0.56689 0.0
C4815 C 0.56398 0.34916 0.5905 0.0
C4816 C 0.54528 0.38982 0.57279 0.0
H4817 H 0.55151 0.41394 0.53533 0.0
C4818 C 0.53827 0.40279 0.5836 0.0
C4819 C 0.55006 0.39411 0.5551 0.0
C4820 C 0.55701 0.38073 0.54242 0.0
C4821 C 0.53621 0.41965 0.57743 0.0
C4822 C 0.54099 0.42394 0.55979 0.0
C4823 C 0.54789 0.41095 0.54889 0.0
C4824 C 0.5384 0.44159 0.55241 0.0
C4825 C 0.52858 0.4328 0.58972 0.0
C4826 C 0.52299 0.44239 0.54022 0.0
C4827 C 0.5203 0.45883 0.53365 0.0
C4828 C 0.53264 0.47527 0.53935 0.0
C4829 C 0.54819 0.47438 0.55145 0.0
C4830 C 0.55109 0.45785 0.55772 0.0
H4831 H 0.52568 0.42776 0.60316 0.0
H4832 H 0.53832 0.4459 0.59254 0.0
H4833 H 0.51585 0.4354 0.58246 0.0
H4834 H 0.51286 0.43025 0.53582 0.0
H4835 H 0.50836 0.45859 0.52429 0.0
H4836 H 0.44541 0.7814 0.42857 0.0
H4837 H 0.41798 0.78174 0.40739 0.0
H4838 H 0.43825 0.75097 0.36418 0.0
H4839 H 0.46567 0.75079 0.38521 0.0
H4840 H 0.41875 0.79532 0.36851 0.0
H4841 H 0.38334 0.72417 0.36767 0.0
H4842 H 0.39883 0.736 0.38729 0.0
H4843 H 0.40747 0.72842 0.36652 0.0
C4844 C 0.44394 0.77463 0.41458 0.0
C4845 C 0.45792 0.76641 0.40846 0.0
C4846 C 0.42825 0.77484 0.40246 0.0
C4847 C 0.42589 0.76632 0.38411 0.0
C4848 C 0.43957 0.75754 0.37824 0.0
H4849 H 0.3365 0.74915 0.29244 0.0
H4850 H 0.36367 0.74727 0.31316 0.0
C4851 C 0.45533 0.75755 0.39026 0.0
C4852 C 0.40959 0.76723 0.37085 0.0
H4853 H 0.3701 0.74196 0.34755 0.0
C4854 C 0.40828 0.78361 0.36381 0.0
C4855 C 0.39568 0.752 0.36466 0.0
C4856 C 0.39619 0.7341 0.37191 0.0
C4857 C 0.39397 0.78511 0.35043 0.0
C4858 C 0.37961 0.77005 0.34466 0.0
C4859 C 0.38088 0.75361 0.35182 0.0
C4860 C 0.36309 0.77123 0.33165 0.0
C4861 C 0.39495 0.80272 0.34212 0.0
C4862 C 0.35341 0.78524 0.33486 0.0
C4863 C 0.33816 0.78651 0.32276 0.0
C4864 C 0.33157 0.77346 0.30746 0.0
C4865 C 0.34114 0.7594 0.30416 0.0
C4866 C 0.35665 0.75826 0.31612 0.0
H4867 H 0.40923 0.80984 0.34242 0.0
H4868 H 0.38852 0.80061 0.32753 0.0
H4869 H 0.38793 0.81173 0.35044 0.0
H4870 H 0.3576 0.79528 0.3468 0.0
H4871 H 0.33173 0.79797 0.32523 0.0
H4872 H 0.03515 0.72644 0.11925 0.0
H4873 H 0.03301 0.69523 0.10516 0.0
H4874 H 0.05743 0.71516 0.05821 0.0
H4875 H 0.05972 0.7464 0.07241 0.0
H4876 H 0.01558 0.67663 0.06919 0.0
H4877 H 0.09015 0.68029 0.07627 0.0
H4878 H 0.07983 0.69651 0.08907 0.0
H4879 H 0.0818 0.69767 0.06485 0.0
C4880 C 0.03991 0.72418 0.10584 0.0
C4881 C 0.0472 0.73901 0.09679 0.0
C4882 C 0.03867 0.70627 0.09775 0.0
C4883 C 0.04519 0.7026 0.08061 0.0
C4884 C 0.05246 0.71743 0.07151 0.0
H4885 H 0.05768 0.59708 0.02317 0.0
H4886 H 0.0593 0.62949 0.03204 0.0
C4887 C 0.05356 0.73536 0.07955 0.0
C4888 C 0.04471 0.68332 0.07263 0.0
H4889 H 0.07183 0.65273 0.06269 0.0
C4890 C 0.02791 0.67145 0.06778 0.0
C4891 C 0.0607 0.67639 0.0704 0.0
C4892 C 0.07919 0.68827 0.0755 0.0
C4893 C 0.02667 0.65306 0.06097 0.0
C4894 C 0.04269 0.64589 0.0595 0.0
C4895 C 0.05949 0.65792 0.06388 0.0
C4896 C 0.04223 0.62593 0.05417 0.0
C4897 C 0.00808 0.64162 0.05504 0.0
C4898 C 0.0326 0.61278 0.06382 0.0
C4899 C 0.03175 0.59422 0.05882 0.0
C4900 C 0.04066 0.58797 0.04407 0.0
C4901 C 0.05075 0.60115 0.03469 0.0
C4902 C 0.05159 0.61982 0.03972 0.0
H4903 H 0.99812 0.65003 0.0508 0.0
H4904 H 0.00828 0.63124 0.04329 0.0
H4905 H 1.00325 0.63468 0.06689 0.0
H4906 H 0.02571 0.61685 0.07539 0.0
H4907 H 0.02395 0.58473 0.06662 0.0
H4908 H 0.05526 0.30429 0.90272 0.0
H4909 H 0.0821 0.30267 0.88715 0.0
H4910 H 0.08088 0.24851 0.9013 0.0
H4911 H 0.0535 0.24999 0.91688 0.0
H4912 H 0.11597 0.2971 0.89938 0.0
H4913 H 0.08113 0.24238 0.84448 0.0
H4914 H 0.06883 0.25465 0.85959 0.0
H4915 H 0.08002 0.23759 0.8681 0.0
C4916 C 0.0608 0.29208 0.90281 0.0
C4917 C 0.05218 0.27726 0.91109 0.0
C4918 C 0.07618 0.29116 0.89381 0.0
C4919 C 0.0834 0.27537 0.89268 0.0
C4920 C 0.07538 0.26075 0.90166 0.0
H4921 H 0.1859 0.27182 0.84482 0.0
H4922 H 0.15935 0.26327 0.86157 0.0
C4923 C 0.0599 0.2617 0.91083 0.0
C4924 C 0.09918 0.27458 0.88188 0.0
H4925 H 0.11171 0.2549 0.84207 0.0
C4926 C 0.11509 0.28769 0.88701 0.0
C4927 C 0.09802 0.26247 0.86553 0.0
C4928 C 0.08107 0.24853 0.85892 0.0
C4929 C 0.12964 0.2892 0.87619 0.0
C4930 C 0.1284 0.2773 0.85977 0.0
C4931 C 0.11269 0.26393 0.85474 0.0
C4932 C 0.14301 0.27955 0.84732 0.0
C4933 C 0.14614 0.3039 0.88203 0.0
C4934 C 0.14246 0.29112 0.83341 0.0
C4935 C 0.15761 0.29608 0.82396 0.0
C4936 C 0.17353 0.28937 0.82807 0.0
C4937 C 0.17369 0.27692 0.84118 0.0
C4938 C 0.15857 0.27209 0.85078 0.0
H4939 H 0.14509 0.31209 0.89521 0.0
H4940 H 0.15842 0.29783 0.88382 0.0
H4941 H 0.14801 0.31301 0.871 0.0
H4942 H 0.13066 0.29712 0.8306 0.0
H4943 H 0.15722 0.30586 0.81407 0.0
H4944 H 0.53545 0.73661 0.86456 0.0
H4945 H 0.53371 0.70896 0.88029 0.0
H4946 H 0.54316 0.74135 0.9334 0.0
H4947 H 0.54514 0.76871 0.91803 0.0
H4948 H 0.56134 0.69992 0.91039 0.0
H4949 H 0.494 0.70393 0.9332 0.0
H4950 H 0.50238 0.71517 0.91408 0.0
H4951 H 0.51057 0.72462 0.93755 0.0
C4952 C 0.53726 0.73781 0.87958 0.0
C4953 C 0.54045 0.75496 0.88997 0.0
C4954 C 0.53629 0.722 0.88856 0.0
C4955 C 0.53819 0.72303 0.90808 0.0
C4956 C 0.54155 0.74013 0.91838 0.0
H4957 H 0.52594 0.65369 0.9955 0.0
H4958 H 0.53392 0.67865 0.97689 0.0
C4959 C 0.54273 0.75583 0.90949 0.0
C4960 C 0.53629 0.70646 0.91798 0.0
H4961 H 0.50989 0.68338 0.94694 0.0
C4962 C 0.54999 0.69614 0.9182 0.0
C4963 C 0.52157 0.70158 0.92833 0.0
C4964 C 0.50618 0.71178 0.92824 0.0
C4965 C 0.54959 0.68146 0.9289 0.0
C4966 C 0.53498 0.67677 0.93948 0.0
C4967 C 0.52116 0.68695 0.93897 0.0
C4968 C 0.53364 0.66153 0.95134 0.0
C4969 C 0.56512 0.67148 0.92934 0.0
C4970 C 0.53149 0.64345 0.94347 0.0
C4971 C 0.52708 0.6291 0.95422 0.0
C4972 C 0.52482 0.63253 0.97308 0.0
C4973 C 0.52809 0.65061 0.98116 0.0
C4974 C 0.53242 0.6649 0.97044 0.0
H4975 H 0.5771 0.6791 0.92385 0.0
H4976 H 0.56922 0.66884 0.94372 0.0
H4977 H 0.56074 0.65826 0.92068 0.0
H4978 H 0.53201 0.64039 0.92873 0.0
H4979 H 0.52405 0.61536 0.94746 0.0
H4980 H 0.08283 0.77586 0.68391 0.0
H4981 H 0.11427 0.77749 0.69728 0.0
H4982 H 0.09515 0.75396 0.74498 0.0
H4983 H 0.06358 0.75193 0.73135 0.0
H4984 H 0.12676 0.78425 0.75372 0.0
H4985 H 0.13834 0.73235 0.69967 0.0
H4986 H 0.12902 0.75059 0.69109 0.0
H4987 H 0.11591 0.73525 0.70426 0.0
C4988 C 0.08528 0.77121 0.69736 0.0
C4989 C 0.0705 0.76424 0.70673 0.0
C4990 C 0.10336 0.77206 0.705 0.0
C4991 C 0.1074 0.76572 0.72219 0.0
C4992 C 0.09265 0.75902 0.73176 0.0
H4993 H 0.2154 0.74147 0.76029 0.0
H4994 H 0.18278 0.7393 0.75126 0.0
C4995 C 0.07451 0.75804 0.72402 0.0
C4996 C 0.12685 0.76552 0.72968 0.0
H4997 H 0.1641 0.74774 0.71988 0.0
C4998 C 0.13486 0.77621 0.74631 0.0
C4999 C 0.13765 0.75489 0.72036 0.0
C5000 C 0.12983 0.74247 0.70293 0.0
C5001 C 0.15321 0.77693 0.75344 0.0
C5002 C 0.16423 0.76678 0.74374 0.0
C5003 C 0.156 0.75567 0.72742 0.0
C5004 C 0.18432 0.76795 0.74993 0.0
C5005 C 0.16056 0.78847 0.77153 0.0
C5006 C 0.19653 0.78464 0.75214 0.0
C5007 C 0.21522 0.78588 0.7574 0.0
C5008 C 0.22267 0.77046 0.76063 0.0
C5009 C 0.21045 0.7537 0.75833 0.0
C5010 C 0.19164 0.75245 0.75298 0.0
H5011 H 0.14951 0.79082 0.77992 0.0
H5012 H 0.17024 0.78216 0.7799 0.0
H5013 H 0.16781 0.80183 0.76858 0.0
H5014 H 0.19167 0.79685 0.74949 0.0
H5015 H 0.22388 0.79913 0.75881 0.0
H5016 H 0.06444 0.37725 0.37795 0.0
H5017 H 0.06406 0.40334 0.40059 0.0
H5018 H 0.02803 0.36911 0.43073 0.0
H5019 H 0.02937 0.34307 0.40902 0.0
H5020 H 0.03974 0.42064 0.40949 0.0
H5021 H 0.06039 0.39337 0.47413 0.0
H5022 H 0.06147 0.3818 0.45162 0.0
H5023 H 0.04039 0.37927 0.46176 0.0
C5024 C 0.05675 0.37524 0.38964 0.0
C5025 C 0.04729 0.35786 0.39178 0.0
C5026 C 0.05645 0.39024 0.40261 0.0
C5027 C 0.04641 0.38841 0.41795 0.0
C5028 C 0.03661 0.37108 0.41974 0.0
H5029 H 0.01759 0.4637 0.50492 0.0
H5030 H 0.02051 0.43737 0.48393 0.0
C5031 C 0.03729 0.35607 0.40711 0.0
C5032 C 0.04543 0.40465 0.43143 0.0
H5033 H 0.0477 0.41991 0.47771 0.0
C5034 C 0.0417 0.42044 0.4244 0.0
C5035 C 0.0478 0.40471 0.45107 0.0
C5036 C 0.05291 0.38894 0.46007 0.0
C5037 C 0.03994 0.43586 0.43613 0.0
C5038 C 0.04219 0.43585 0.45571 0.0
C5039 C 0.04589 0.42009 0.46279 0.0
C5040 C 0.04083 0.452 0.46903 0.0
C5041 C 0.03513 0.45183 0.42729 0.0
C5042 C 0.05156 0.46915 0.46824 0.0
C5043 C 0.04984 0.48428 0.48022 0.0
C5044 C 0.03754 0.48278 0.49363 0.0
C5045 C 0.02726 0.4655 0.49489 0.0
C5046 C 0.02889 0.45036 0.48278 0.0
H5047 H 0.02849 0.44782 0.41284 0.0
H5048 H 0.02593 0.45847 0.43536 0.0
H5049 H 0.04771 0.46186 0.42673 0.0
H5050 H 0.06134 0.47088 0.45832 0.0
H5051 H 0.05818 0.49725 0.47891 0.0
H5052 H 0.47466 0.24603 0.22769 0.0
H5053 H 0.44744 0.24999 0.24289 0.0
H5054 H 0.42493 0.26878 0.19356 0.0
H5055 H 0.45141 0.26475 0.17849 0.0
H5056 H 0.42931 0.27975 0.25088 0.0
H5057 H 0.38401 0.22816 0.20032 0.0
H5058 H 0.40836 0.23065 0.20227 0.0
H5059 H 0.39721 0.24547 0.18942 0.0
C5060 C 0.46397 0.25111 0.22012 0.0
C5061 C 0.46544 0.25475 0.20159 0.0
C5062 C 0.44828 0.25335 0.22885 0.0
C5063 C 0.43356 0.25927 0.21934 0.0
C5064 C 0.43553 0.26365 0.20123 0.0
H5065 H 0.32189 0.2733 0.22985 0.0
H5066 H 0.35161 0.27039 0.2207 0.0
C5067 C 0.45096 0.26137 0.19257 0.0
C5068 C 0.41602 0.26075 0.22773 0.0
H5069 H 0.36971 0.24718 0.21915 0.0
C5070 C 0.41629 0.2725 0.24401 0.0
C5071 C 0.39874 0.25148 0.21897 0.0
C5072 C 0.397 0.23811 0.20188 0.0
C5073 C 0.40009 0.27582 0.25111 0.0
C5074 C 0.3827 0.26668 0.24216 0.0
C5075 C 0.38262 0.25453 0.22618 0.0
C5076 C 0.36448 0.26964 0.24846 0.0
C5077 C 0.40202 0.28981 0.26769 0.0
C5078 C 0.36103 0.27047 0.26727 0.0
C5079 C 0.34398 0.27292 0.27261 0.0
C5080 C 0.32938 0.27379 0.25932 0.0
C5081 C 0.33265 0.27263 0.24056 0.0
C5082 C 0.34983 0.27085 0.23529 0.0
H5083 H 0.41514 0.29953 0.26897 0.0
H5084 H 0.3909 0.29756 0.26688 0.0
H5085 H 0.40175 0.28298 0.28051 0.0
H5086 H 0.37136 0.26883 0.27795 0.0
H5087 H 0.34205 0.27354 0.28718 0.0
H5088 H 0.59331 0.54313 0.32708 0.0
H5089 H 0.57651 0.53926 0.35425 0.0
H5090 H 0.62224 0.52329 0.38359 0.0
H5091 H 0.63909 0.52749 0.357 0.0
H5092 H 0.56567 0.51109 0.3747 0.0
H5093 H 0.61519 0.5644 0.41946 0.0
H5094 H 0.61527 0.56102 0.39465 0.0
H5095 H 0.62578 0.54712 0.40936 0.0
C5096 C 0.59973 0.53869 0.33929 0.0
C5097 C 0.61771 0.53591 0.33984 0.0
C5098 C 0.59011 0.5365 0.35485 0.0
C5099 C 0.59825 0.53147 0.37129 0.0
C5100 C 0.6158 0.52777 0.37142 0.0
H5101 H 0.57009 0.51086 0.48192 0.0
H5102 H 0.58357 0.51249 0.45261 0.0
C5103 C 0.62542 0.53009 0.35605 0.0
C5104 C 0.58877 0.53034 0.38847 0.0
H5105 H 0.59423 0.54526 0.43494 0.0
C5106 C 0.57186 0.51869 0.38782 0.0
C5107 C 0.59669 0.5403 0.40571 0.0
C5108 C 0.61413 0.55405 0.40734 0.0
C5109 C 0.56304 0.51631 0.40392 0.0
C5110 C 0.57126 0.52589 0.4212 0.0
C5111 C 0.58801 0.53772 0.4218 0.0
C5112 C 0.56261 0.52417 0.43878 0.0
C5113 C 0.54518 0.50324 0.40244 0.0
C5114 C 0.54642 0.53033 0.44094 0.0
C5115 C 0.53882 0.52963 0.45775 0.0
C5116 C 0.54714 0.52266 0.4729 0.0
C5117 C 0.56328 0.51633 0.47064 0.0
C5118 C 0.571 0.51722 0.45384 0.0
H5119 H 0.5425 0.49417 0.38918 0.0
H5120 H 0.54487 0.49486 0.41416 0.0
H5121 H 0.53406 0.51094 0.40314 0.0
H5122 H 0.53982 0.53604 0.42971 0.0
H5123 H 0.52645 0.53476 0.4589 0.0
H5124 H 0.30912 0.92519 0.06641 0.0
H5125 H 0.30937 0.91076 0.09517 0.0
H5126 H 0.27165 0.86417 0.06703 0.0
H5127 H 0.27143 0.87827 0.03832 0.0
H5128 H 0.27898 0.89338 0.11592 0.0
H5129 H 0.32003 0.84718 0.08448 0.0
H5130 H 0.31748 0.8681 0.07554 0.0
H5131 H 0.29952 0.84859 0.07049 0.0
C5132 C 0.30062 0.91203 0.06649 0.0
C5133 C 0.29037 0.90274 0.05017 0.0
C5134 C 0.30075 0.90387 0.08287 0.0
C5135 C 0.29061 0.88645 0.083 0.0
C5136 C 0.27961 0.87762 0.06702 0.0
H5137 H 0.29465 0.80257 0.15255 0.0
H5138 H 0.28317 0.82146 0.13049 0.0
C5139 C 0.27954 0.88567 0.05068 0.0
C5140 C 0.29283 0.87663 0.09917 0.0
H5141 H 0.30965 0.84078 0.11299 0.0
C5142 C 0.28568 0.88188 0.11542 0.0
C5143 C 0.3017 0.86179 0.09827 0.0
C5144 C 0.31028 0.85612 0.08133 0.0
C5145 C 0.28681 0.8722 0.13084 0.0
C5146 C 0.29544 0.85716 0.12978 0.0
C5147 C 0.30276 0.85216 0.11357 0.0
C5148 C 0.29808 0.84669 0.14544 0.0
C5149 C 0.27859 0.87792 0.14794 0.0
C5150 C 0.30967 0.85477 0.1614 0.0
C5151 C 0.3161 0.84401 0.17399 0.0
C5152 C 0.31121 0.82515 0.17048 0.0
C5153 C 0.29872 0.81713 0.15521 0.0
C5154 C 0.29207 0.82788 0.1428 0.0
H5155 H 0.26853 0.88656 0.14483 0.0
H5156 H 0.27188 0.86597 0.15413 0.0
H5157 H 0.28949 0.88584 0.15841 0.0
H5158 H 0.31473 0.86923 0.16344 0.0
H5159 H 0.32567 0.85032 0.18586 0.0
H5160 H 0.93282 0.53297 0.83492 0.0
H5161 H 0.95614 0.53716 0.86143 0.0
H5162 H 0.91498 0.52315 0.89754 0.0
H5163 H 0.89151 0.51874 0.87128 0.0
H5164 H 0.95858 0.56041 0.89723 0.0
H5165 H 0.9506 0.48655 0.90209 0.0
H5166 H 0.94259 0.49558 0.88147 0.0
H5167 H 0.92996 0.49522 0.90113 0.0
C5168 C 0.9287 0.53091 0.84852 0.0
C5169 C 0.91037 0.52541 0.85104 0.0
C5170 C 0.942 0.53334 0.86355 0.0
C5171 C 0.93705 0.53026 0.88112 0.0
C5172 C 0.91883 0.52538 0.88387 0.0
H5173 H 0.99215 0.55235 0.99002 0.0
H5174 H 0.974 0.55313 0.96076 0.0
C5175 C 0.90552 0.52293 0.86889 0.0
C5176 C 0.95099 0.53152 0.8966 0.0
H5177 H 0.96865 0.50617 0.92686 0.0
C5178 C 0.96103 0.54862 0.90367 0.0
C5179 C 0.95399 0.51595 0.90458 0.0
C5180 C 0.94384 0.49725 0.89687 0.0
C5181 C 0.97391 0.55063 0.91916 0.0
C5182 C 0.97639 0.53511 0.9276 0.0
C5183 C 0.96663 0.51798 0.92019 0.0
C5184 C 0.98846 0.53621 0.94466 0.0
C5185 C 0.98461 0.56923 0.92637 0.0
C5186 C 1.00211 0.52599 0.94514 0.0
C5187 C 0.01204 0.52497 0.96187 0.0
C5188 C 0.00863 0.53447 0.9782 0.0
C5189 C 0.99512 0.54497 0.97759 0.0
C5190 C 0.98494 0.54567 0.9609 0.0
H5191 H 0.9849 0.57854 0.91546 0.0
H5192 H 0.97811 0.57498 0.93796 0.0
H5193 H 0.99876 0.56869 0.93168 0.0
H5194 H 1.00471 0.51841 0.93265 0.0
H5195 H 0.0222 0.51657 0.96201 0.0
H5196 H 0.24478 0.17849 0.57159 0.0
H5197 H 0.24522 0.19293 0.60317 0.0
H5198 H 0.29775 0.22539 0.59928 0.0
H5199 H 0.29647 0.21205 0.56711 0.0
H5200 H 0.26332 0.19415 0.63374 0.0
H5201 H 0.27583 0.26501 0.61785 0.0
H5202 H 0.27123 0.2463 0.59979 0.0
H5203 H 0.29382 0.25405 0.61169 0.0
C5204 C 0.2564 0.18874 0.57751 0.0
C5205 C 0.27054 0.19423 0.56687 0.0
C5206 C 0.25666 0.19704 0.59561 0.0
C5207 C 0.27129 0.21076 0.6037 0.0
C5208 C 0.28588 0.21553 0.59329 0.0
H5209 H 0.30061 0.25663 0.71919 0.0
H5210 H 0.30006 0.2442 0.68677 0.0
C5211 C 0.2853 0.20769 0.57495 0.0
C5212 C 0.27131 0.21967 0.62305 0.0
H5213 H 0.27913 0.26063 0.64993 0.0
C5214 C 0.26664 0.20871 0.63711 0.0
C5215 C 0.27548 0.23875 0.62775 0.0
C5216 C 0.27917 0.25168 0.61342 0.0
C5217 C 0.26631 0.21616 0.6555 0.0
C5218 C 0.27107 0.23506 0.66019 0.0
C5219 C 0.27565 0.2461 0.6463 0.0
C5220 C 0.27148 0.24349 0.67956 0.0
C5221 C 0.26088 0.20384 0.66993 0.0
C5222 C 0.25566 0.24747 0.68621 0.0
C5223 C 0.256 0.25477 0.70471 0.0
C5224 C 0.27207 0.25803 0.71698 0.0
C5225 C 0.28794 0.25418 0.71015 0.0
C5226 C 0.28767 0.24712 0.69162 0.0
H5227 H 0.25823 0.18934 0.6643 0.0
H5228 H 0.27171 0.20622 0.68182 0.0
H5229 H 0.24841 0.20698 0.67532 0.0
H5230 H 0.24298 0.24469 0.67717 0.0
H5231 H 0.24359 0.25726 0.7095 0.0
H5232 H 0.59032 0.54954 0.23904 0.0
H5233 H 0.5769 0.54841 0.20675 0.0
H5234 H 0.61872 0.52188 0.18788 0.0
H5235 H 0.63264 0.52366 0.22021 0.0
H5236 H 0.60016 0.56226 0.17353 0.0
H5237 H 0.5628 0.49099 0.16608 0.0
H5238 H 0.5683 0.50463 0.18832 0.0
H5239 H 0.58577 0.49612 0.17739 0.0
C5240 C 0.59661 0.54339 0.22801 0.0
C5241 C 0.61251 0.53663 0.23218 0.0
C5242 C 0.58896 0.54281 0.20955 0.0
C5243 C 0.59673 0.53501 0.19483 0.0
C5244 C 0.61248 0.528 0.19897 0.0
H5245 H 0.57037 0.51326 0.07522 0.0
H5246 H 0.58193 0.51451 0.10781 0.0
C5247 C 0.62043 0.52902 0.21743 0.0
C5248 C 0.58849 0.53443 0.17518 0.0
H5249 H 0.56181 0.5064 0.13942 0.0
C5250 C 0.59171 0.55007 0.1661 0.0
C5251 C 0.57744 0.51856 0.16545 0.0
C5252 C 0.5732 0.50156 0.17472 0.0
C5253 C 0.58445 0.55016 0.1475 0.0
C5254 C 0.57343 0.53426 0.13772 0.0
C5255 C 0.57017 0.51863 0.14686 0.0
C5256 C 0.56583 0.5334 0.11778 0.0
C5257 C 0.58901 0.56713 0.13823 0.0
C5258 C 0.55261 0.54337 0.11232 0.0
C5259 C 0.54559 0.54234 0.09353 0.0
C5260 C 0.55186 0.53159 0.07966 0.0
C5261 C 0.5651 0.52167 0.0853 0.0
C5262 C 0.57182 0.5224 0.10405 0.0
H5263 H 0.60027 0.57713 0.14642 0.0
H5264 H 0.59289 0.5639 0.12416 0.0
H5265 H 0.57689 0.57344 0.13665 0.0
H5266 H 0.54754 0.55179 0.12262 0.0
H5267 H 0.53515 0.54985 0.08997 0.0
H5268 H 0.29496 0.91903 0.92639 0.0
H5269 H 0.2918 0.89525 0.90055 0.0
H5270 H 0.27086 0.85529 0.93543 0.0
H5271 H 0.27374 0.8788 0.96135 0.0
H5272 H 0.30712 0.85479 0.91412 0.0
H5273 H 0.24049 0.85725 0.87512 0.0
H5274 H 0.25501 0.87812 0.88558 0.0
H5275 H 0.24484 0.86223 0.90006 0.0
C5276 C 0.28932 0.90525 0.92846 0.0
C5277 C 0.28485 0.90067 0.94589 0.0
C5278 C 0.28761 0.89178 0.91377 0.0
C5279 C 0.2813 0.8738 0.91647 0.0
C5280 C 0.27584 0.86924 0.93343 0.0
H5281 H 0.25611 0.78972 0.82633 0.0
H5282 H 0.25733 0.80603 0.85706 0.0
C5283 C 0.27752 0.88266 0.94811 0.0
C5284 C 0.28157 0.85959 0.90188 0.0
H5285 H 0.25844 0.83882 0.86127 0.0
C5286 C 0.29645 0.85098 0.90258 0.0
C5287 C 0.26744 0.85486 0.88732 0.0
C5288 C 0.25094 0.86349 0.88686 0.0
C5289 C 0.2977 0.83757 0.88856 0.0
C5290 C 0.28392 0.83336 0.87337 0.0
C5291 C 0.26892 0.84196 0.87299 0.0
C5292 C 0.28486 0.82077 0.85718 0.0
C5293 C 0.31365 0.82815 0.89033 0.0
C5294 C 0.30022 0.82305 0.84758 0.0
C5295 C 0.29987 0.81279 0.8307 0.0
C5296 C 0.28375 0.8014 0.82276 0.0
C5297 C 0.26853 0.79882 0.83235 0.0
C5298 C 0.26926 0.80807 0.84977 0.0
H5299 H 0.31853 0.82775 0.90514 0.0
H5300 H 0.31022 0.81411 0.88331 0.0
H5301 H 0.32504 0.83583 0.88404 0.0
H5302 H 0.31219 0.83317 0.85271 0.0
H5303 H 0.31185 0.81436 0.82346 0.0
H5304 H 0.92115 0.55235 0.75548 0.0
H5305 H 0.93651 0.5521 0.72738 0.0
H5306 H 0.90362 0.49978 0.70707 0.0
H5307 H 0.88755 0.50058 0.73451 0.0
H5308 H 0.95695 0.52983 0.71847 0.0
H5309 H 0.90258 0.52221 0.66035 0.0
H5310 H 0.89894 0.52836 0.68403 0.0
H5311 H 0.89726 0.50497 0.67524 0.0
C5312 C 0.91681 0.54114 0.74464 0.0
C5313 C 0.90304 0.52662 0.74689 0.0
C5314 C 0.92561 0.54096 0.72868 0.0
C5315 C 0.92101 0.52607 0.71494 0.0
C5316 C 0.90694 0.51173 0.71708 0.0
H5317 H 0.97086 0.4715 0.63475 0.0
H5318 H 0.95212 0.48271 0.65713 0.0
C5319 C 0.89781 0.51215 0.7328 0.0
C5320 C 0.93228 0.52448 0.69958 0.0
H5321 H 0.92994 0.51173 0.65311 0.0
C5322 C 0.95108 0.52629 0.70412 0.0
C5323 C 0.92463 0.51988 0.68086 0.0
C5324 C 0.90477 0.51895 0.67484 0.0
C5325 C 0.96229 0.52264 0.69059 0.0
C5326 C 0.95443 0.51704 0.67213 0.0
C5327 C 0.93581 0.51594 0.66739 0.0
C5328 C 0.96513 0.51074 0.65792 0.0
C5329 C 0.9823 0.524 0.69624 0.0
C5330 C 0.97842 0.52291 0.65094 0.0
C5331 C 0.98906 0.51655 0.63816 0.0
C5332 C 0.9866 0.49795 0.63241 0.0
C5333 C 0.97314 0.48585 0.63927 0.0
C5334 C 0.96239 0.49223 0.65186 0.0
H5335 H 0.9858 0.52617 0.71155 0.0
H5336 H 0.98673 0.51154 0.69077 0.0
H5337 H 0.99006 0.53552 0.69022 0.0
H5338 H 0.98062 0.53725 0.65548 0.0
H5339 H 0.99937 0.52608 0.63295 0.0
H5340 H 0.24299 0.20235 0.45872 0.0
H5341 H 0.24673 0.21826 0.43099 0.0
H5342 H 0.30048 0.20668 0.43017 0.0
H5343 H 0.29651 0.19039 0.4575 0.0
H5344 H 0.27166 0.24737 0.42229 0.0
H5345 H 0.27668 0.18466 0.37891 0.0
H5346 H 0.26963 0.18443 0.40186 0.0
H5347 H 0.29326 0.19058 0.39893 0.0
C5348 C 0.25573 0.20361 0.45282 0.0
C5349 C 0.26956 0.19538 0.46032 0.0
C5350 C 0.25783 0.21258 0.43692 0.0
C5351 C 0.27375 0.21337 0.42818 0.0
C5352 C 0.28791 0.20591 0.43631 0.0
H5353 H 0.30298 0.2478 0.32138 0.0
H5354 H 0.30249 0.23588 0.3516 0.0
C5355 C 0.28574 0.19681 0.45208 0.0
C5356 C 0.27529 0.22144 0.4103 0.0
H5357 H 0.28114 0.21162 0.36474 0.0
C5358 C 0.27373 0.23956 0.4097 0.0
C5359 C 0.27809 0.21132 0.39382 0.0
C5360 C 0.27936 0.19163 0.39329 0.0
C5361 C 0.27518 0.24791 0.39326 0.0
C5362 C 0.27764 0.2377 0.37664 0.0
C5363 C 0.27929 0.21957 0.37733 0.0
C5364 C 0.27823 0.24534 0.35835 0.0
C5365 C 0.27458 0.26777 0.3942 0.0
C5366 C 0.2647 0.25445 0.35172 0.0
C5367 C 0.26536 0.26176 0.33479 0.0
C5368 C 0.27908 0.25945 0.3236 0.0
C5369 C 0.29224 0.24975 0.32974 0.0
C5370 C 0.29193 0.24294 0.34703 0.0
H5371 H 0.27919 0.27474 0.40842 0.0
H5372 H 0.28317 0.27462 0.38443 0.0
H5373 H 0.26038 0.26935 0.39063 0.0
H5374 H 0.25347 0.25582 0.35956 0.0
H5375 H 0.25484 0.26888 0.33021 0.0
H5376 H 0.29897 0.58472 0.55325 0.0
H5377 H 0.32687 0.57301 0.55729 0.0
H5378 H 0.35709 0.6231 0.54336 0.0
H5379 H 0.32906 0.63511 0.53989 0.0
H5380 H 0.34289 0.57048 0.52487 0.0
H5381 H 0.39258 0.60801 0.58294 0.0
H5382 H 0.36838 0.60671 0.5825 0.0
H5383 H 0.38127 0.62188 0.56899 0.0
C5384 C 0.31162 0.59336 0.55149 0.0
C5385 C 0.31203 0.61059 0.5459 0.0
C5386 C 0.32753 0.58677 0.55406 0.0
C5387 C 0.34394 0.59726 0.55077 0.0
C5388 C 0.34456 0.615 0.5464 0.0
H5389 H 0.43447 0.58269 0.50027 0.0
H5390 H 0.4131 0.59359 0.51967 0.0
C5391 C 0.32861 0.62174 0.54419 0.0
C5392 C 0.35915 0.58831 0.54753 0.0
H5393 H 0.40443 0.59111 0.55902 0.0
C5394 C 0.35626 0.57463 0.53262 0.0
C5395 C 0.37649 0.59405 0.55759 0.0
C5396 C 0.3799 0.60838 0.57401 0.0
C5397 C 0.37053 0.56708 0.52683 0.0
C5398 C 0.38805 0.57319 0.53649 0.0
C5399 C 0.39087 0.58641 0.55185 0.0
C5400 C 0.40372 0.5676 0.52905 0.0
C5401 C 0.36698 0.55345 0.50971 0.0
C5402 C 0.40578 0.54958 0.52857 0.0
C5403 C 0.41782 0.54333 0.51741 0.0
C5404 C 0.42781 0.55508 0.50666 0.0
C5405 C 0.42665 0.5734 0.50825 0.0
C5406 C 0.41468 0.57964 0.51946 0.0
H5407 H 0.35316 0.55228 0.50233 0.0
H5408 H 0.37703 0.55721 0.49989 0.0
H5409 H 0.36835 0.53997 0.51376 0.0
H5410 H 0.39728 0.54016 0.53587 0.0
H5411 H 0.41851 0.52912 0.51634 0.0
H5412 H 0.83509 0.93145 0.54974 0.0
H5413 H 0.86438 0.95095 0.54899 0.0
H5414 H 0.88629 0.90417 0.53137 0.0
H5415 H 0.85595 0.88526 0.52909 0.0
H5416 H 0.89403 0.95742 0.56438 0.0
H5417 H 0.9064 0.93111 0.49433 0.0
H5418 H 0.88617 0.9219 0.50389 0.0
H5419 H 0.90689 0.91414 0.50977 0.0
C5420 C 0.84597 0.92553 0.54478 0.0
C5421 C 0.84286 0.90718 0.53789 0.0
C5422 C 0.86297 0.93662 0.54482 0.0
C5423 C 0.87774 0.92943 0.53911 0.0
C5424 C 0.87507 0.91053 0.53449 0.0
H5425 H 0.99102 0.9852 0.55374 0.0
H5426 H 0.96176 0.96578 0.55611 0.0
C5427 C 0.85774 0.89959 0.5335 0.0
C5428 C 0.89571 0.94178 0.53843 0.0
H5429 H 0.93115 0.95142 0.51249 0.0
C5430 C 0.90189 0.95606 0.55283 0.0
C5431 C 0.90645 0.94033 0.52351 0.0
C5432 C 0.90102 0.92615 0.50696 0.0
C5433 C 0.91809 0.96866 0.55268 0.0
C5434 C 0.92878 0.96683 0.53806 0.0
C5435 C 0.92287 0.95271 0.52373 0.0
C5436 C 0.9463 0.97937 0.53747 0.0
C5437 C 0.92365 0.98408 0.56801 0.0
C5438 C 0.94729 0.99349 0.52624 0.0
C5439 C 0.96399 1.00467 0.52487 0.0
C5440 C 0.98008 1.00191 0.53468 0.0
C5441 C 0.97894 0.98783 0.54609 0.0
C5442 C 0.96222 0.9767 0.54748 0.0
H5443 H 0.91335 0.98431 0.57789 0.0
H5444 H 0.93671 0.98297 0.57578 0.0
H5445 H 0.92583 0.99712 0.56197 0.0
H5446 H 0.93516 0.99571 0.51832 0.0
H5447 H 0.96433 0.01513 0.5157 0.0
H5448 H 0.88007 0.04671 0.2457 0.0
H5449 H 0.86622 0.07342 0.24484 0.0
H5450 H 0.90966 0.10358 0.2847 0.0
H5451 H 0.92338 0.07653 0.28591 0.0
H5452 H 0.85662 0.08968 0.28048 0.0
H5453 H 0.90004 0.13821 0.24295 0.0
H5454 H 0.89873 0.11406 0.23901 0.0
H5455 H 0.91128 0.1267 0.25973 0.0
C5456 C 0.88689 0.05916 0.25395 0.0
C5457 C 0.90278 0.05963 0.26585 0.0
C5458 C 0.87898 0.07441 0.25342 0.0
C5459 C 0.88693 0.09049 0.26465 0.0
C5460 C 0.90344 0.09135 0.27574 0.0
H5461 H 0.85348 0.18792 0.3039 0.0
H5462 H 0.87027 0.16514 0.29255 0.0
C5463 C 0.91132 0.07597 0.27637 0.0
C5464 C 0.87672 0.10541 0.26649 0.0
H5465 H 0.87673 0.1489 0.25763 0.0
C5466 C 0.86092 0.10259 0.27536 0.0
C5467 C 0.88239 0.12219 0.25981 0.0
C5468 C 0.89897 0.12558 0.24972 0.0
C5469 C 0.85089 0.11629 0.27822 0.0
C5470 C 0.85658 0.13317 0.27162 0.0
C5471 C 0.8723 0.13592 0.26254 0.0
C5472 C 0.84712 0.14847 0.27544 0.0
C5473 C 0.8347 0.11278 0.28895 0.0
C5474 C 0.82873 0.14715 0.26886 0.0
C5475 C 0.81916 0.16026 0.27525 0.0
C5476 C 0.82788 0.17486 0.28825 0.0
C5477 C 0.84654 0.17682 0.29378 0.0
C5478 C 0.8561 0.1638 0.28733 0.0
H5479 H 0.83452 0.10066 0.29645 0.0
H5480 H 0.83459 0.12457 0.29918 0.0
H5481 H 0.82208 0.11047 0.27918 0.0
H5482 H 0.82158 0.13554 0.2595 0.0
H5483 H 0.80474 0.15838 0.27097 0.0
H5484 H 0.70907 0.14235 0.04365 0.0
H5485 H 0.6775 0.1279 0.04365 0.0
H5486 H 0.69338 0.07575 0.04188 0.0
H5487 H 0.72495 0.09085 0.04665 0.0
H5488 H 0.66005 0.11041 0.01681 0.0
H5489 H 0.65487 0.06304 0.07022 0.0
H5490 H 0.67527 0.07949 0.06989 0.0
H5491 H 0.67131 0.05796 0.05558 0.0
C5492 C 0.70569 0.12783 0.0437 0.0
C5493 C 0.71904 0.11727 0.04327 0.0
C5494 C 0.68772 0.11958 0.04366 0.0
C5495 C 0.6829 0.10065 0.04218 0.0
C5496 C 0.69652 0.09034 0.04322 0.0
H5497 H 0.58142 0.02814 0.00847 0.0
H5498 H 0.61102 0.04582 0.00388 0.0
C5499 C 0.71456 0.09882 0.04491 0.0
C5500 C 0.66383 0.09188 0.03714 0.0
H5501 H 0.63117 0.05698 0.04491 0.0
C5502 C 0.65374 0.09893 0.02329 0.0
C5503 C 0.6556 0.07663 0.04524 0.0
C5504 C 0.66485 0.06904 0.06117 0.0
C5505 C 0.6355 0.09158 0.01784 0.0
C5506 C 0.62767 0.07621 0.02558 0.0
C5507 C 0.63771 0.06865 0.03881 0.0
C5508 C 0.60839 0.06901 0.02239 0.0
C5509 C 0.62454 0.10048 0.0044 0.0
C5510 C 0.59731 0.07674 0.03379 0.0
C5511 C 0.58084 0.06661 0.03675 0.0
C5512 C 0.57547 0.04897 0.02801 0.0
C5513 C 0.5857 0.04183 0.01525 0.0
C5514 C 0.60229 0.05191 0.01244 0.0
H5515 H 0.63322 0.11092 0.99775 0.0
H5516 H 0.61635 0.09021 0.99348 0.0
H5517 H 0.61496 0.10705 0.01198 0.0
H5518 H 0.60219 0.08983 0.04181 0.0
H5519 H 0.57293 0.07207 0.04672 0.0
H5520 H 0.20934 0.50108 0.2896 0.0
H5521 H 0.21589 0.47059 0.28546 0.0
H5522 H 0.19669 0.4657 0.22716 0.0
H5523 H 0.1899 0.49618 0.23118 0.0
H5524 H 0.18488 0.4348 0.25829 0.0
H5525 H 0.2562 0.45871 0.24474 0.0
H5526 H 0.24654 0.47304 0.26052 0.0
H5527 H 0.23777 0.46921 0.23644 0.0
C5528 C 0.20658 0.49351 0.27593 0.0
C5529 C 0.19921 0.50083 0.2607 0.0
C5530 C 0.21019 0.47617 0.27361 0.0
C5531 C 0.20667 0.46616 0.25604 0.0
C5532 C 0.19929 0.47336 0.24079 0.0
H5533 H 0.26289 0.37777 0.26755 0.0
H5534 H 0.24511 0.39481 0.2488 0.0
C5535 C 0.19549 0.49065 0.24313 0.0
C5536 C 0.21152 0.44841 0.2539 0.0
H5537 H 0.24938 0.43024 0.25629 0.0
C5538 C 0.19882 0.43348 0.25721 0.0
C5539 C 0.22959 0.44691 0.25217 0.0
C5540 C 0.24338 0.46276 0.24816 0.0
C5541 C 0.2043 0.41737 0.26078 0.0
C5542 C 0.2229 0.4166 0.26138 0.0
C5543 C 0.23513 0.43091 0.25593 0.0
C5544 C 0.23059 0.40318 0.27121 0.0
C5545 C 0.19038 0.40182 0.26511 0.0
C5546 C 0.22814 0.40216 0.28995 0.0
C5547 C 0.23806 0.39228 0.30063 0.0
C5548 C 0.25086 0.38352 0.29285 0.0
C5549 C 0.2529 0.3841 0.2739 0.0
C5550 C 0.2428 0.39385 0.26315 0.0
H5551 H 0.17705 0.40139 0.25698 0.0
H5552 H 0.19463 0.38868 0.2621 0.0
H5553 H 0.18847 0.40374 0.28003 0.0
H5554 H 0.21925 0.40979 0.29661 0.0
H5555 H 0.23608 0.39195 0.31513 0.0
H5556 H 0.23904 0.39198 0.0514 0.0
H5557 H 0.21122 0.40439 0.05445 0.0
H5558 H 0.22494 0.43885 0.01208 0.0
H5559 H 0.25185 0.42661 0.00861 0.0
H5560 H 0.20896 0.44382 0.06225 0.0
H5561 H 0.17258 0.41218 0.99407 0.0
H5562 H 0.19106 0.40364 0.00548 0.0
H5563 H 0.19558 0.42291 0.99277 0.0
C5564 C 0.23592 0.40199 0.04257 0.0
C5565 C 0.24774 0.40815 0.02971 0.0
C5566 C 0.22013 0.40916 0.04443 0.0
C5567 C 0.21594 0.42241 0.03332 0.0
C5568 C 0.2277 0.42846 0.02057 0.0
H5569 H 0.16299 0.50564 0.01321 0.0
H5570 H 0.18311 0.48625 0.02484 0.0
C5571 C 0.24323 0.42139 0.01869 0.0
C5572 C 0.19954 0.43049 0.03469 0.0
H5573 H 0.16382 0.43932 0.00701 0.0
C5574 C 0.19874 0.44244 0.05042 0.0
C5575 C 0.1863 0.42882 0.01917 0.0
C5576 C 0.1863 0.41607 1.00197 0.0
C5577 C 0.18573 0.45361 0.05048 0.0
C5578 C 0.17326 0.45267 0.03451 0.0
C5579 C 0.17337 0.43995 0.01928 0.0
C5580 C 0.16151 0.46615 0.03217 0.0
C5581 C 0.18582 0.46697 0.06717 0.0
C5582 C 0.14275 0.46156 0.03303 0.0
C5583 C 0.13122 0.47277 0.02658 0.0
C5584 C 0.13832 0.48852 0.01889 0.0
C5585 C 0.15721 0.49365 0.01923 0.0
C5586 C 0.16871 0.48259 0.02586 0.0
H5587 H 0.19478 0.46457 0.07931 0.0
H5588 H 0.19062 0.48087 0.0637 0.0
H5589 H 0.17184 0.46619 0.071 0.0
H5590 H 0.13696 0.44882 0.03768 0.0
H5591 H 0.11669 0.46842 0.02622 0.0
H5592 H 0.91943 0.95083 0.26778 0.0
H5593 H 0.89933 0.92128 0.26476 0.0
H5594 H 0.85332 0.94685 0.25364 0.0
H5595 H 0.87395 0.97497 0.25174 0.0
H5596 H 0.87887 0.90585 0.28165 0.0
H5597 H 0.83135 0.90787 0.21968 0.0
H5598 H 0.85138 0.92507 0.22568 0.0
H5599 H 0.83079 0.92659 0.23619 0.0
C5600 C 0.905 0.94993 0.26429 0.0
C5601 C 0.89806 0.96551 0.26137 0.0
C5602 C 0.89336 0.933 0.26277 0.0
C5603 C 0.87435 0.93126 0.25898 0.0
C5604 C 0.86768 0.94701 0.25582 0.0
H5605 H 0.7904 0.8432 0.28305 0.0
H5606 H 0.80963 0.87252 0.28071 0.0
C5607 C 0.87948 0.96355 0.25579 0.0
C5608 C 0.8618 0.91328 0.25921 0.0
H5609 H 0.82127 0.88639 0.2401 0.0
C5610 C 0.86656 0.90167 0.27213 0.0
C5611 C 0.84533 0.90726 0.24706 0.0
C5612 C 0.83958 0.91731 0.23128 0.0
C5613 C 0.85572 0.88465 0.27313 0.0
C5614 C 0.83906 0.87932 0.26173 0.0
C5615 C 0.83399 0.89074 0.24903 0.0
C5616 C 0.82696 0.86165 0.26253 0.0
C5617 C 0.86219 0.87228 0.28623 0.0
C5618 C 0.8302 0.84587 0.25288 0.0
C5619 C 0.81915 0.82911 0.25403 0.0
C5620 C 0.8046 0.82777 0.26488 0.0
C5621 C 0.80126 0.8437 0.27433 0.0
C5622 C 0.81231 0.86048 0.27312 0.0
H5623 H 0.87501 0.87877 0.29499 0.0
H5624 H 0.85164 0.86792 0.29534 0.0
H5625 H 0.86453 0.85995 0.27807 0.0
H5626 H 0.84142 0.84652 0.24459 0.0
H5627 H 0.82218 0.81717 0.24659 0.0
H5628 H 0.72105 0.08446 0.75182 0.0
H5629 H 0.73833 0.11529 0.75699 0.0
H5630 H 0.6881 0.135 0.75598 0.0
H5631 H 0.67142 0.10414 0.75548 0.0
H5632 H 0.74432 0.14341 0.74539 0.0
H5633 H 0.70661 0.15817 0.80475 0.0
H5634 H 0.70122 0.13653 0.79111 0.0
H5635 H 0.69188 0.15518 0.7835 0.0
C5636 C 0.71399 0.0955 0.75412 0.0
C5637 C 0.69551 0.0923 0.75611 0.0
C5638 C 0.72369 0.11309 0.75624 0.0
C5639 C 0.71454 0.12752 0.75865 0.0
C5640 C 0.69553 0.12408 0.75611 0.0
H5641 H 0.74457 0.23549 0.75614 0.0
H5642 H 0.72924 0.20536 0.7612 0.0
C5643 C 0.68603 0.10651 0.75564 0.0
C5644 C 0.72487 0.14582 0.76493 0.0
H5645 H 0.72581 0.18349 0.79484 0.0
C5646 C 0.74047 0.15193 0.75654 0.0
C5647 C 0.71995 0.15698 0.77964 0.0
C5648 C 0.70412 0.15125 0.79034 0.0
C5649 C 0.75086 0.16913 0.76189 0.0
C5650 C 0.74515 0.1805 0.77562 0.0
C5651 C 0.73005 0.17438 0.78447 0.0
C5652 C 0.75243 0.19973 0.77793 0.0
C5653 C 0.76729 0.17544 0.75217 0.0
C5654 C 0.77004 0.20647 0.78657 0.0
C5655 C 0.77875 0.22358 0.78363 0.0
C5656 C 0.76965 0.23373 0.77226 0.0
C5657 C 0.75152 0.22767 0.7651 0.0
C5658 C 0.74284 0.21064 0.76804 0.0
H5659 H 0.76954 0.16495 0.7414 0.0
H5660 H 0.76575 0.18775 0.74551 0.0
H5661 H 0.77955 0.17903 0.76248 0.0
H5662 H 0.77744 0.19798 0.79419 0.0
H5663 H 0.79285 0.22837 0.78912 0.0
loop_
_geom_bond_atom_site_label_1
_geom_bond_atom_site_label_2
_geom_bond_distance
_geom_bond_site_symmetry_2
_ccdc_geom_bond_type
Mn0 O5 2.095 . S
Mn0 O15 2.162 . S
Mn0 O16 2.297 . S
Mn0 O24 2.385 . S
Mn0 O25 2.209 . S
Mn0 O26 2.094 . S
Mn1 O6 2.121 . S
Mn1 N8 2.257 . S
Mn1 N17 2.282 . S
Mn1 O25 2.215 . S
Mn1 O27 2.117 . S
C2 O24 1.234 . S
C2 O25 1.283 . S
C3 O15 1.281 . S
C3 O16 1.236 . S
C4 O26 1.240 . S
C4 O27 1.264 . S
O5 Mn0 2.095 . S
O5 C14 1.250 . S
O6 Mn1 2.121 . S
O6 C14 1.258 . S
C7 N8 1.326 . S
C7 C11 1.460 . S
C7 H13 0.929 . S
N8 Mn1 2.257 . S
N8 C7 1.326 . S
N8 C12 1.362 . S
C9 C10 1.285 . S
C9 C12 1.444 . S
C9 C29 1.409 1_455 S
C10 C9 1.285 . S
C10 C11 1.477 . S
C10 H30 0.931 . S
C11 C7 1.460 . S
C11 C10 1.477 . S
C11 H31 0.930 . S
C12 N8 1.362 . S
C12 C9 1.444 . S
C12 C22 1.476 1_455 S
H13 C7 0.929 . S
C14 O5 1.250 . S
C14 O6 1.258 . S
O15 Mn0 2.162 . S
O15 C3 1.281 . S
O16 Mn0 2.297 . S
O16 C3 1.236 . S
N17 Mn1 2.282 . S
N17 C18 1.288 1_455 S
N17 C22 1.318 1_455 S
C18 N17 1.288 1_655 S
C18 C19 1.519 . S
C18 H23 0.910 1_655 S
C19 C18 1.519 . S
C19 C20 1.291 . S
C19 H32 0.931 . S
C20 C19 1.291 . S
C20 C21 1.373 . S
C20 H33 0.929 . S
C21 C20 1.373 . S
C21 C22 1.396 . S
C21 C28 1.403 . S
C22 C12 1.476 1_655 S
C22 N17 1.318 1_655 S
C22 C21 1.396 . S
H23 C18 0.910 1_455 S
O24 Mn0 2.385 . S
O24 C2 1.234 . S
O25 Mn0 2.209 . S
O25 Mn1 2.215 . S
O25 C2 1.283 . S
O26 Mn0 2.094 . S
O26 C4 1.240 . S
O27 Mn1 2.117 . S
O27 C4 1.264 . S
C28 C21 1.403 . S
C28 C29 1.399 . S
C28 H34 0.929 . S
C29 C9 1.409 1_655 S
C29 C28 1.399 . S
C29 H35 0.930 . S
H30 C10 0.931 . S
H31 C11 0.930 . S
H32 C19 0.931 . S
H33 C20 0.929 . S
H34 C28 0.929 . S
H35 C29 0.930 . S
Mn36 O41 2.095 1_455 S
Mn36 O51 2.162 . S
Mn36 O52 2.297 . S
Mn36 O60 2.385 . S
Mn36 O61 2.209 . S
Mn36 O62 2.094 . S
Mn37 O42 2.121 1_455 S
Mn37 N44 2.257 . S
Mn37 N53 2.282 . S
Mn37 O61 2.215 . S
Mn37 O63 2.117 . S
C38 O60 1.234 . S
C38 O61 1.283 . S
C39 O51 1.281 . S
C39 O52 1.236 . S
C40 O62 1.240 . S
C40 O63 1.264 . S
O41 Mn36 2.095 1_655 S
O41 C50 1.250 . S
O42 Mn37 2.121 1_655 S
O42 C50 1.258 . S
C43 N44 1.326 . S
C43 C47 1.460 . S
C43 H49 0.929 . S
N44 Mn37 2.257 . S
N44 C43 1.326 . S
N44 C48 1.362 . S
C45 C46 1.258 . S
C45 C48 1.431 . S
C45 C65 1.449 . S
C46 C45 1.258 . S
C46 C47 1.477 . S
C46 H66 0.931 . S
C47 C43 1.460 . S
C47 C46 1.477 . S
C47 H67 0.930 . S
C48 N44 1.362 . S
C48 C45 1.431 . S
C48 C58 1.476 . S
H49 C43 0.929 . S
C50 O41 1.250 . S
C50 O42 1.258 . S
O51 Mn36 2.162 . S
O51 C39 1.281 . S
O52 Mn36 2.297 . S
O52 C39 1.236 . S
N53 Mn37 2.282 . S
N53 C54 1.328 . S
N53 C58 1.318 . S
C54 N53 1.328 . S
C54 C55 1.457 . S
C54 H59 0.929 . S
C55 C54 1.457 . S
C55 C56 1.291 . S
C55 H68 0.931 . S
C56 C55 1.291 . S
C56 C57 1.373 . S
C56 H69 0.929 . S
C57 C56 1.373 . S
C57 C58 1.396 . S
C57 C64 1.403 . S
C58 C48 1.476 . S
C58 N53 1.318 . S
C58 C57 1.396 . S
H59 C54 0.929 . S
O60 Mn36 2.385 . S
O60 C38 1.234 . S
O61 Mn36 2.209 . S
O61 Mn37 2.215 . S
O61 C38 1.283 . S
O62 Mn36 2.094 . S
O62 C40 1.240 . S
O63 Mn37 2.117 . S
O63 C40 1.264 . S
C64 C57 1.403 . S
C64 C65 1.399 . S
C64 H70 0.929 . S
C65 C45 1.449 . S
C65 C64 1.399 . S
C65 H71 0.930 . S
H66 C46 0.931 . S
H67 C47 0.930 . S
H68 C55 0.931 . S
H69 C56 0.929 . S
H70 C64 0.929 . S
H71 C65 0.930 . S
Mn72 O77 2.095 . S
Mn72 O87 2.162 . S
Mn72 O88 2.297 . S
Mn72 O96 2.385 . S
Mn72 O97 2.209 . S
Mn72 O98 2.094 . S
Mn73 O78 2.121 . S
Mn73 N80 2.257 . S
Mn73 N89 2.282 . S
Mn73 O97 2.215 . S
Mn73 O99 2.117 . S
C74 O96 1.234 . S
C74 O97 1.283 . S
C75 O87 1.281 . S
C75 O88 1.236 . S
C76 O98 1.240 . S
C76 O99 1.264 . S
O77 Mn72 2.095 . S
O77 C86 1.250 . S
O78 Mn73 2.121 . S
O78 C86 1.258 . S
C79 N80 1.326 . S
C79 C83 1.460 . S
C79 H85 0.929 . S
N80 Mn73 2.257 . S
N80 C79 1.326 . S
N80 C84 1.362 . S
C81 C82 1.258 . S
C81 C84 1.431 . S
C81 C101 1.449 . S
C82 C81 1.258 . S
C82 C83 1.477 . S
C82 H102 0.931 . S
C83 C79 1.460 . S
C83 C82 1.477 . S
C83 H103 0.930 . S
C84 N80 1.362 . S
C84 C81 1.431 . S
C84 C94 1.476 . S
H85 C79 0.929 . S
C86 O77 1.250 . S
C86 O78 1.258 . S
O87 Mn72 2.162 . S
O87 C75 1.281 . S
O88 Mn72 2.297 . S
O88 C75 1.236 . S
N89 Mn73 2.282 . S
N89 C90 1.328 . S
N89 C94 1.318 . S
C90 N89 1.328 . S
C90 C91 1.457 . S
C90 H95 0.929 . S
C91 C90 1.457 . S
C91 C92 1.291 . S
C91 H104 0.931 . S
C92 C91 1.291 . S
C92 C93 1.373 . S
C92 H105 0.929 . S
C93 C92 1.373 . S
C93 C94 1.396 . S
C93 C100 1.403 . S
C94 C84 1.476 . S
C94 N89 1.318 . S
C94 C93 1.396 . S
H95 C90 0.929 . S
O96 Mn72 2.385 . S
O96 C74 1.234 . S
O97 Mn72 2.209 . S
O97 Mn73 2.215 . S
O97 C74 1.283 . S
O98 Mn72 2.094 . S
O98 C76 1.240 . S
O99 Mn73 2.117 . S
O99 C76 1.264 . S
C100 C93 1.403 . S
C100 C101 1.399 . S
C100 H106 0.929 . S
C101 C81 1.449 . S
C101 C100 1.399 . S
C101 H107 0.930 . S
H102 C82 0.931 . S
H103 C83 0.930 . S
H104 C91 0.931 . S
H105 C92 0.929 . S
H106 C100 0.929 . S
H107 C101 0.930 . S
Mn108 O113 2.095 . S
Mn108 O123 2.162 . S
Mn108 O124 2.297 . S
Mn108 O132 2.385 . S
Mn108 O133 2.209 . S
Mn108 O134 2.094 . S
Mn109 O114 2.121 . S
Mn109 N116 2.257 . S
Mn109 N125 2.282 . S
Mn109 O133 2.215 . S
Mn109 O135 2.117 . S
C110 O132 1.234 . S
C110 O133 1.283 . S
C111 O123 1.281 . S
C111 O124 1.236 . S
C112 O134 1.240 . S
C112 O135 1.264 . S
O113 Mn108 2.095 . S
O113 C122 1.250 . S
O114 Mn109 2.121 . S
O114 C122 1.258 . S
C115 N116 1.326 . S
C115 C119 1.460 . S
C115 H121 0.929 . S
N116 Mn109 2.257 . S
N116 C115 1.326 . S
N116 C120 1.362 . S
C117 C118 1.258 . S
C117 C120 1.431 . S
C117 C137 1.449 . S
C118 C117 1.258 . S
C118 C119 1.477 . S
C118 H138 0.931 . S
C119 C115 1.460 . S
C119 C118 1.477 . S
C119 H139 0.930 . S
C120 N116 1.362 . S
C120 C117 1.431 . S
C120 C130 1.476 . S
H121 C115 0.929 . S
C122 O113 1.250 . S
C122 O114 1.258 . S
O123 Mn108 2.162 . S
O123 C111 1.281 . S
O124 Mn108 2.297 . S
O124 C111 1.236 . S
N125 Mn109 2.282 . S
N125 C126 1.328 . S
N125 C130 1.318 . S
C126 N125 1.328 . S
C126 C127 1.457 . S
C126 H131 0.929 . S
C127 C126 1.457 . S
C127 C128 1.291 . S
C127 H140 0.931 . S
C128 C127 1.291 . S
C128 C129 1.373 . S
C128 H141 0.929 . S
C129 C128 1.373 . S
C129 C130 1.396 . S
C129 C136 1.403 . S
C130 C120 1.476 . S
C130 N125 1.318 . S
C130 C129 1.396 . S
H131 C126 0.929 . S
O132 Mn108 2.385 . S
O132 C110 1.234 . S
O133 Mn108 2.209 . S
O133 Mn109 2.215 . S
O133 C110 1.283 . S
O134 Mn108 2.094 . S
O134 C112 1.240 . S
O135 Mn109 2.117 . S
O135 C112 1.264 . S
C136 C129 1.403 . S
C136 C137 1.399 . S
C136 H142 0.929 . S
C137 C117 1.449 . S
C137 C136 1.399 . S
C137 H143 0.930 . S
H138 C118 0.931 . S
H139 C119 0.930 . S
H140 C127 0.931 . S
H141 C128 0.929 . S
H142 C136 0.929 . S
H143 C137 0.930 . S
Mn144 O149 2.095 . S
Mn144 O159 2.162 . S
Mn144 O160 2.297 . S
Mn144 O168 2.385 . S
Mn144 O169 2.209 . S
Mn144 O170 2.094 . S
Mn145 O150 2.121 . S
Mn145 N152 2.257 . S
Mn145 N161 2.282 . S
Mn145 O169 2.215 . S
Mn145 O171 2.117 . S
C146 O168 1.234 . S
C146 O169 1.283 . S
C147 O159 1.281 . S
C147 O160 1.236 . S
C148 O170 1.240 . S
C148 O171 1.264 . S
O149 Mn144 2.095 . S
O149 C158 1.250 . S
O150 Mn145 2.121 . S
O150 C158 1.258 . S
C151 N152 1.326 . S
C151 C155 1.460 . S
C151 H157 0.929 . S
N152 Mn145 2.257 . S
N152 C151 1.326 . S
N152 C156 1.362 . S
C153 C154 1.258 . S
C153 C156 1.431 . S
C153 C173 1.449 1_455 S
C154 C153 1.258 . S
C154 C155 1.477 . S
C154 H174 0.931 . S
C155 C151 1.460 . S
C155 C154 1.477 . S
C155 H175 0.930 . S
C156 N152 1.362 . S
C156 C153 1.431 . S
C156 C166 1.476 . S
H157 C151 0.929 . S
C158 O149 1.250 . S
C158 O150 1.258 . S
O159 Mn144 2.162 . S
O159 C147 1.281 . S
O160 Mn144 2.297 . S
O160 C147 1.236 . S
N161 Mn145 2.282 . S
N161 C162 1.328 1_455 S
N161 C166 1.318 . S
C162 N161 1.328 1_655 S
C162 C163 1.457 . S
C162 H167 0.929 . S
C163 C162 1.457 . S
C163 C164 1.291 . S
C163 H176 0.931 . S
C164 C163 1.291 . S
C164 C165 1.373 . S
C164 H177 0.929 . S
C165 C164 1.373 . S
C165 C166 1.396 1_655 S
C165 C172 1.403 . S
C166 C156 1.476 . S
C166 N161 1.318 . S
C166 C165 1.396 1_455 S
H167 C162 0.929 . S
O168 Mn144 2.385 . S
O168 C146 1.234 . S
O169 Mn144 2.209 . S
O169 Mn145 2.215 . S
O169 C146 1.283 . S
O170 Mn144 2.094 . S
O170 C148 1.240 . S
O171 Mn145 2.117 . S
O171 C148 1.264 . S
C172 C165 1.403 . S
C172 C173 1.399 . S
C172 H178 0.929 . S
C173 C153 1.449 1_655 S
C173 C172 1.399 . S
C173 H179 0.930 . S
H174 C154 0.931 . S
H175 C155 0.930 . S
H176 C163 0.931 . S
H177 C164 0.929 . S
H178 C172 0.929 . S
H179 C173 0.930 . S
Mn180 O185 2.095 . S
Mn180 O195 2.162 . S
Mn180 O196 2.297 . S
Mn180 O204 2.385 . S
Mn180 O205 2.209 . S
Mn180 O206 2.094 . S
Mn181 O186 2.121 . S
Mn181 N188 2.257 . S
Mn181 N197 2.282 . S
Mn181 O205 2.215 . S
Mn181 O207 2.117 . S
C182 O204 1.234 . S
C182 O205 1.283 . S
C183 O195 1.281 . S
C183 O196 1.236 . S
C184 O206 1.240 . S
C184 O207 1.264 . S
O185 Mn180 2.095 . S
O185 C194 1.250 . S
O186 Mn181 2.121 . S
O186 C194 1.258 . S
C187 N188 1.326 . S
C187 C191 1.460 . S
C187 H193 0.929 . S
N188 Mn181 2.257 . S
N188 C187 1.326 . S
N188 C192 1.362 . S
C189 C190 1.258 . S
C189 C192 1.431 . S
C189 C209 1.449 . S
C190 C189 1.258 . S
C190 C191 1.477 . S
C190 H210 0.931 . S
C191 C187 1.460 . S
C191 C190 1.477 . S
C191 H211 0.930 . S
C192 N188 1.362 . S
C192 C189 1.431 . S
C192 C202 1.476 . S
H193 C187 0.929 . S
C194 O185 1.250 . S
C194 O186 1.258 . S
O195 Mn180 2.162 . S
O195 C183 1.281 . S
O196 Mn180 2.297 . S
O196 C183 1.236 . S
N197 Mn181 2.282 . S
N197 C198 1.328 . S
N197 C202 1.318 . S
C198 N197 1.328 . S
C198 C199 1.457 . S
C198 H203 0.929 . S
C199 C198 1.457 . S
C199 C200 1.291 . S
C199 H212 0.931 . S
C200 C199 1.291 . S
C200 C201 1.373 . S
C200 H213 0.929 . S
C201 C200 1.373 . S
C201 C202 1.396 . S
C201 C208 1.403 . S
C202 C192 1.476 . S
C202 N197 1.318 . S
C202 C201 1.396 . S
H203 C198 0.929 . S
O204 Mn180 2.385 . S
O204 C182 1.234 . S
O205 Mn180 2.209 . S
O205 Mn181 2.215 . S
O205 C182 1.283 . S
O206 Mn180 2.094 . S
O206 C184 1.240 . S
O207 Mn181 2.117 . S
O207 C184 1.264 . S
C208 C201 1.403 . S
C208 C209 1.399 . S
C208 H214 0.929 . S
C209 C189 1.449 . S
C209 C208 1.399 . S
C209 H215 0.930 . S
H210 C190 0.931 . S
H211 C191 0.930 . S
H212 C199 0.931 . S
H213 C200 0.929 . S
H214 C208 0.929 . S
H215 C209 0.930 . S
Mn216 O221 2.095 . S
Mn216 O231 2.162 . S
Mn216 O232 2.297 . S
Mn216 O240 2.385 . S
Mn216 O241 2.209 . S
Mn216 O242 2.094 . S
Mn217 O222 2.121 . S
Mn217 N224 2.257 . S
Mn217 N233 2.282 . S
Mn217 O241 2.215 . S
Mn217 O243 2.117 . S
C218 O240 1.234 . S
C218 O241 1.283 . S
C219 O231 1.281 . S
C219 O232 1.236 . S
C220 O242 1.240 . S
C220 O243 1.264 . S
O221 Mn216 2.095 . S
O221 C230 1.250 . S
O222 Mn217 2.121 . S
O222 C230 1.258 . S
C223 N224 1.326 . S
C223 C227 1.460 . S
C223 H229 0.929 . S
N224 Mn217 2.257 . S
N224 C223 1.326 . S
N224 C228 1.362 . S
C225 C226 1.258 . S
C225 C228 1.431 . S
C225 C245 1.449 . S
C226 C225 1.258 . S
C226 C227 1.477 . S
C226 H246 0.931 . S
C227 C223 1.460 . S
C227 C226 1.477 . S
C227 H247 0.930 . S
C228 N224 1.362 . S
C228 C225 1.431 . S
C228 C238 1.476 . S
H229 C223 0.929 . S
C230 O221 1.250 . S
C230 O222 1.258 . S
O231 Mn216 2.162 . S
O231 C219 1.281 . S
O232 Mn216 2.297 . S
O232 C219 1.236 . S
N233 Mn217 2.282 . S
N233 C234 1.328 . S
N233 C238 1.318 . S
C234 N233 1.328 . S
C234 C235 1.457 . S
C234 H239 0.929 . S
C235 C234 1.457 . S
C235 C236 1.291 . S
C235 H248 0.931 . S
C236 C235 1.291 . S
C236 C237 1.373 . S
C236 H249 0.929 . S
C237 C236 1.373 . S
C237 C238 1.396 . S
C237 C244 1.403 . S
C238 C228 1.476 . S
C238 N233 1.318 . S
C238 C237 1.396 . S
H239 C234 0.929 . S
O240 Mn216 2.385 . S
O240 C218 1.234 . S
O241 Mn216 2.209 . S
O241 Mn217 2.215 . S
O241 C218 1.283 . S
O242 Mn216 2.094 . S
O242 C220 1.240 . S
O243 Mn217 2.117 . S
O243 C220 1.264 . S
C244 C237 1.403 . S
C244 C245 1.399 . S
C244 H250 0.929 . S
C245 C225 1.449 . S
C245 C244 1.399 . S
C245 H251 0.930 . S
H246 C226 0.931 . S
H247 C227 0.930 . S
H248 C235 0.931 . S
H249 C236 0.929 . S
H250 C244 0.929 . S
H251 C245 0.930 . S
Mn252 O257 2.064 1_655 S
Mn252 O267 2.155 1_655 S
Mn252 O268 2.294 . S
Mn252 O276 2.419 . S
Mn252 O277 2.224 . S
Mn252 O278 2.098 1_655 S
Mn253 O258 2.121 1_655 S
Mn253 N260 2.257 . S
Mn253 N269 2.282 . S
Mn253 O277 2.215 . S
Mn253 O279 2.117 1_655 S
C254 O276 1.234 . S
C254 O277 1.283 . S
C255 O267 1.283 1_655 S
C255 O268 1.236 . S
C256 O278 1.240 . S
C256 O279 1.264 . S
O257 Mn252 2.064 1_455 S
O257 C266 1.250 . S
O258 Mn253 2.121 1_455 S
O258 C266 1.258 . S
C259 N260 1.326 . S
C259 C263 1.460 . S
C259 H265 0.929 1_655 S
N260 Mn253 2.257 . S
N260 C259 1.326 . S
N260 C264 1.362 . S
C261 C262 1.258 . S
C261 C264 1.431 . S
C261 C281 1.449 . S
C262 C261 1.258 . S
C262 C263 1.477 . S
C262 H282 0.931 . S
C263 C259 1.460 . S
C263 C262 1.477 . S
C263 H283 0.930 . S
C264 N260 1.362 . S
C264 C261 1.431 . S
C264 C274 1.476 . S
H265 C259 0.929 1_455 S
C266 O257 1.250 . S
C266 O258 1.258 . S
O267 Mn252 2.155 1_455 S
O267 C255 1.283 1_455 S
O268 Mn252 2.294 . S
O268 C255 1.236 . S
N269 Mn253 2.282 . S
N269 C270 1.328 . S
N269 C274 1.318 . S
C270 N269 1.328 . S
C270 C271 1.457 . S
C270 H275 0.929 . S
C271 C270 1.457 . S
C271 C272 1.291 . S
C271 H284 0.931 . S
C272 C271 1.291 . S
C272 C273 1.373 . S
C272 H285 0.929 . S
C273 C272 1.373 . S
C273 C274 1.396 . S
C273 C280 1.403 . S
C274 C264 1.476 . S
C274 N269 1.318 . S
C274 C273 1.396 . S
H275 C270 0.929 . S
O276 Mn252 2.419 . S
O276 C254 1.234 . S
O277 Mn252 2.224 . S
O277 Mn253 2.215 . S
O277 C254 1.283 . S
O278 Mn252 2.098 1_455 S
O278 C256 1.240 . S
O279 Mn253 2.117 1_455 S
O279 C256 1.264 . S
C280 C273 1.403 . S
C280 C281 1.399 . S
C280 H286 0.929 . S
C281 C261 1.449 . S
C281 C280 1.399 . S
C281 H287 0.930 . S
H282 C262 0.931 . S
H283 C263 0.930 . S
H284 C271 0.931 . S
H285 C272 0.929 . S
H286 C280 0.929 . S
H287 C281 0.930 . S
Mn288 O293 2.095 . S
Mn288 O303 2.162 . S
Mn288 O304 2.297 . S
Mn288 O312 2.385 1_545 S
Mn288 O313 2.209 1_545 S
Mn288 O314 2.094 . S
Mn289 O294 2.121 . S
Mn289 N296 2.257 1_545 S
Mn289 N305 2.282 1_545 S
Mn289 O313 2.215 1_545 S
Mn289 O315 2.117 . S
C290 O312 1.234 . S
C290 O313 1.283 . S
C291 O303 1.281 . S
C291 O304 1.236 . S
C292 O314 1.240 . S
C292 O315 1.264 . S
O293 Mn288 2.095 . S
O293 C302 1.250 . S
O294 Mn289 2.121 . S
O294 C302 1.258 . S
C295 N296 1.326 1_545 S
C295 C299 1.460 1_545 S
C295 H301 0.929 . S
N296 Mn289 2.257 1_565 S
N296 C295 1.326 1_565 S
N296 C300 1.362 . S
C297 C298 1.258 . S
C297 C300 1.431 . S
C297 C317 1.449 . S
C298 C297 1.258 . S
C298 C299 1.477 . S
C298 H318 0.931 . S
C299 C295 1.460 1_565 S
C299 C298 1.477 . S
C299 H319 0.930 . S
C300 N296 1.362 . S
C300 C297 1.431 . S
C300 C310 1.476 . S
H301 C295 0.929 . S
C302 O293 1.250 . S
C302 O294 1.258 . S
O303 Mn288 2.162 . S
O303 C291 1.281 . S
O304 Mn288 2.297 . S
O304 C291 1.236 . S
N305 Mn289 2.282 1_565 S
N305 C306 1.328 . S
N305 C310 1.318 . S
C306 N305 1.328 . S
C306 C307 1.457 . S
C306 H311 0.929 . S
C307 C306 1.457 . S
C307 C308 1.291 . S
C307 H320 0.931 . S
C308 C307 1.291 . S
C308 C309 1.373 . S
C308 H321 0.929 . S
C309 C308 1.373 . S
C309 C310 1.396 . S
C309 C316 1.403 . S
C310 C300 1.476 . S
C310 N305 1.318 . S
C310 C309 1.396 . S
H311 C306 0.929 . S
O312 Mn288 2.385 1_565 S
O312 C290 1.234 . S
O313 Mn288 2.209 1_565 S
O313 Mn289 2.215 1_565 S
O313 C290 1.283 . S
O314 Mn288 2.094 . S
O314 C292 1.240 . S
O315 Mn289 2.117 . S
O315 C292 1.264 . S
C316 C309 1.403 . S
C316 C317 1.399 . S
C316 H322 0.929 . S
C317 C297 1.449 . S
C317 C316 1.399 . S
C317 H323 0.930 . S
H318 C298 0.931 . S
H319 C299 0.930 . S
H320 C307 0.931 . S
H321 C308 0.929 . S
H322 C316 0.929 . S
H323 C317 0.930 . S
Mn324 O329 2.095 . S
Mn324 O339 2.162 . S
Mn324 O340 2.297 . S
Mn324 O348 2.385 . S
Mn324 O349 2.209 . S
Mn324 O350 2.094 . S
Mn325 O330 2.121 . S
Mn325 N332 2.257 . S
Mn325 N341 2.282 . S
Mn325 O349 2.215 . S
Mn325 O351 2.117 . S
C326 O348 1.234 . S
C326 O349 1.283 . S
C327 O339 1.281 . S
C327 O340 1.236 . S
C328 O350 1.240 . S
C328 O351 1.264 . S
O329 Mn324 2.095 . S
O329 C338 1.250 . S
O330 Mn325 2.121 . S
O330 C338 1.258 . S
C331 N332 1.326 . S
C331 C335 1.460 . S
C331 H337 0.929 . S
N332 Mn325 2.257 . S
N332 C331 1.326 . S
N332 C336 1.362 . S
C333 C334 1.258 . S
C333 C336 1.431 . S
C333 C353 1.449 . S
C334 C333 1.258 . S
C334 C335 1.477 . S
C334 H354 0.931 . S
C335 C331 1.460 . S
C335 C334 1.477 . S
C335 H355 0.930 . S
C336 N332 1.362 . S
C336 C333 1.431 . S
C336 C346 1.476 . S
H337 C331 0.929 . S
C338 O329 1.250 . S
C338 O330 1.258 . S
O339 Mn324 2.162 . S
O339 C327 1.281 . S
O340 Mn324 2.297 . S
O340 C327 1.236 . S
N341 Mn325 2.282 . S
N341 C342 1.328 . S
N341 C346 1.318 . S
C342 N341 1.328 . S
C342 C343 1.457 . S
C342 H347 0.929 . S
C343 C342 1.457 . S
C343 C344 1.291 . S
C343 H356 0.931 . S
C344 C343 1.291 . S
C344 C345 1.373 . S
C344 H357 0.929 . S
C345 C344 1.373 . S
C345 C346 1.396 . S
C345 C352 1.403 . S
C346 C336 1.476 . S
C346 N341 1.318 . S
C346 C345 1.396 . S
H347 C342 0.929 . S
O348 Mn324 2.385 . S
O348 C326 1.234 . S
O349 Mn324 2.209 . S
O349 Mn325 2.215 . S
O349 C326 1.283 . S
O350 Mn324 2.094 . S
O350 C328 1.240 . S
O351 Mn325 2.117 . S
O351 C328 1.264 . S
C352 C345 1.403 . S
C352 C353 1.399 . S
C352 H358 0.929 . S
C353 C333 1.449 . S
C353 C352 1.399 . S
C353 H359 0.930 . S
H354 C334 0.931 . S
H355 C335 0.930 . S
H356 C343 0.931 . S
H357 C344 0.929 . S
H358 C352 0.929 . S
H359 C353 0.930 . S
Mn360 O365 2.095 . S
Mn360 O375 2.162 . S
Mn360 O376 2.297 . S
Mn360 O384 2.385 . S
Mn360 O385 2.209 . S
Mn360 O386 2.094 . S
Mn361 O366 2.121 . S
Mn361 N368 2.257 . S
Mn361 N377 2.282 . S
Mn361 O385 2.215 . S
Mn361 O387 2.117 . S
C362 O384 1.234 . S
C362 O385 1.283 . S
C363 O375 1.281 . S
C363 O376 1.236 . S
C364 O386 1.240 . S
C364 O387 1.264 . S
O365 Mn360 2.095 . S
O365 C374 1.250 . S
O366 Mn361 2.121 . S
O366 C374 1.258 . S
C367 N368 1.326 . S
C367 C371 1.460 . S
C367 H373 0.929 . S
N368 Mn361 2.257 . S
N368 C367 1.326 . S
N368 C372 1.362 . S
C369 C370 1.258 . S
C369 C372 1.431 . S
C369 C389 1.449 . S
C370 C369 1.258 . S
C370 C371 1.477 . S
C370 H390 0.931 . S
C371 C367 1.460 . S
C371 C370 1.477 . S
C371 H391 0.930 . S
C372 N368 1.362 . S
C372 C369 1.431 . S
C372 C382 1.476 . S
H373 C367 0.929 . S
C374 O365 1.250 . S
C374 O366 1.258 . S
O375 Mn360 2.162 . S
O375 C363 1.281 . S
O376 Mn360 2.297 . S
O376 C363 1.236 . S
N377 Mn361 2.282 . S
N377 C378 1.328 . S
N377 C382 1.318 . S
C378 N377 1.328 . S
C378 C379 1.457 . S
C378 H383 0.929 . S
C379 C378 1.457 . S
C379 C380 1.291 . S
C379 H392 0.931 . S
C380 C379 1.291 . S
C380 C381 1.373 . S
C380 H393 0.929 . S
C381 C380 1.373 . S
C381 C382 1.396 . S
C381 C388 1.403 . S
C382 C372 1.476 . S
C382 N377 1.318 . S
C382 C381 1.396 . S
H383 C378 0.929 . S
O384 Mn360 2.385 . S
O384 C362 1.234 . S
O385 Mn360 2.209 . S
O385 Mn361 2.215 . S
O385 C362 1.283 . S
O386 Mn360 2.094 . S
O386 C364 1.240 . S
O387 Mn361 2.117 . S
O387 C364 1.264 . S
C388 C381 1.403 . S
C388 C389 1.399 . S
C388 H394 0.929 . S
C389 C369 1.449 . S
C389 C388 1.399 . S
C389 H395 0.930 . S
H390 C370 0.931 . S
H391 C371 0.930 . S
H392 C379 0.931 . S
H393 C380 0.929 . S
H394 C388 0.929 . S
H395 C389 0.930 . S
Mn396 O401 2.095 1_554 S
Mn396 O411 2.162 . S
Mn396 O412 2.297 . S
Mn396 O420 2.385 . S
Mn396 O421 2.203 1_554 S
Mn396 O422 2.094 1_554 S
Mn397 O402 2.121 . S
Mn397 N404 2.257 . S
Mn397 N413 2.282 . S
Mn397 O421 2.237 . S
Mn397 O423 2.117 . S
C398 O420 1.234 . S
C398 O421 1.280 1_554 S
C399 O411 1.281 . S
C399 O412 1.236 . S
C400 O422 1.240 . S
C400 O423 1.264 . S
O401 Mn396 2.095 1_556 S
O401 C410 1.250 . S
O402 Mn397 2.121 . S
O402 C410 1.258 . S
C403 N404 1.326 . S
C403 C407 1.460 1_565 S
C403 H409 0.929 . S
N404 Mn397 2.257 . S
N404 C403 1.326 . S
N404 C408 1.362 . S
C405 C406 1.258 1_565 S
C405 C408 1.431 . S
C405 C425 1.449 1_565 S
C406 C405 1.258 1_545 S
C406 C407 1.477 . S
C406 H426 0.931 . S
C407 C403 1.460 1_545 S
C407 C406 1.477 . S
C407 H427 0.930 . S
C408 N404 1.362 . S
C408 C405 1.431 . S
C408 C418 1.476 . S
H409 C403 0.929 . S
C410 O401 1.250 . S
C410 O402 1.258 . S
O411 Mn396 2.162 . S
O411 C399 1.281 . S
O412 Mn396 2.297 . S
O412 C399 1.236 . S
N413 Mn397 2.282 . S
N413 C414 1.328 . S
N413 C418 1.318 . S
C414 N413 1.328 . S
C414 C415 1.457 . S
C414 H419 0.929 . S
C415 C414 1.457 . S
C415 C416 1.291 . S
C415 H428 0.931 . S
C416 C415 1.291 . S
C416 C417 1.373 . S
C416 H429 0.929 . S
C417 C416 1.373 . S
C417 C418 1.396 . S
C417 C424 1.403 . S
C418 C408 1.476 . S
C418 N413 1.318 . S
C418 C417 1.396 . S
H419 C414 0.929 . S
O420 Mn396 2.385 . S
O420 C398 1.234 . S
O421 Mn396 2.203 1_556 S
O421 Mn397 2.237 . S
O421 C398 1.280 1_556 S
O422 Mn396 2.094 1_556 S
O422 C400 1.240 . S
O423 Mn397 2.117 . S
O423 C400 1.264 . S
C424 C417 1.403 . S
C424 C425 1.399 1_565 S
C424 H430 0.929 . S
C425 C405 1.449 1_545 S
C425 C424 1.399 1_545 S
C425 H431 0.930 . S
H426 C406 0.931 . S
H427 C407 0.930 . S
H428 C415 0.931 . S
H429 C416 0.929 . S
H430 C424 0.929 . S
H431 C425 0.930 . S
Mn432 O437 2.095 . S
Mn432 O447 2.162 . S
Mn432 O448 2.297 . S
Mn432 O456 2.385 . S
Mn432 O457 2.209 . S
Mn432 O458 2.094 . S
Mn433 O438 2.121 . S
Mn433 N440 2.257 . S
Mn433 N449 2.282 1_554 S
Mn433 O457 2.215 . S
Mn433 O459 2.117 1_554 S
C434 O456 1.234 . S
C434 O457 1.283 . S
C435 O447 1.281 . S
C435 O448 1.236 . S
C436 O458 1.240 1_556 S
C436 O459 1.264 . S
O437 Mn432 2.095 . S
O437 C446 1.250 . S
O438 Mn433 2.121 . S
O438 C446 1.258 . S
C439 N440 1.326 . S
C439 C443 1.460 . S
C439 H445 0.929 . S
N440 Mn433 2.257 . S
N440 C439 1.326 . S
N440 C444 1.362 . S
C441 C442 1.258 . S
C441 C444 1.431 . S
C441 C461 1.449 . S
C442 C441 1.258 . S
C442 C443 1.477 . S
C442 H462 0.931 . S
C443 C439 1.460 . S
C443 C442 1.477 . S
C443 H463 0.930 . S
C444 N440 1.362 . S
C444 C441 1.431 . S
C444 C454 1.460 1_554 S
H445 C439 0.929 . S
C446 O437 1.250 . S
C446 O438 1.258 . S
O447 Mn432 2.162 . S
O447 C435 1.281 . S
O448 Mn432 2.297 . S
O448 C435 1.236 . S
N449 Mn433 2.282 1_556 S
N449 C450 1.328 . S
N449 C454 1.318 . S
C450 N449 1.328 . S
C450 C451 1.457 . S
C450 H455 0.929 . S
C451 C450 1.457 . S
C451 C452 1.291 . S
C451 H464 0.931 . S
C452 C451 1.291 . S
C452 C453 1.373 . S
C452 H465 0.929 . S
C453 C452 1.373 . S
C453 C454 1.413 . S
C453 C460 1.403 . S
C454 C444 1.460 1_556 S
C454 N449 1.318 . S
C454 C453 1.413 . S
H455 C450 0.929 . S
O456 Mn432 2.385 . S
O456 C434 1.234 . S
O457 Mn432 2.209 . S
O457 Mn433 2.215 . S
O457 C434 1.283 . S
O458 Mn432 2.094 . S
O458 C436 1.240 1_554 S
O459 Mn433 2.117 1_556 S
O459 C436 1.264 . S
C460 C453 1.403 . S
C460 C461 1.399 1_556 S
C460 H466 0.929 . S
C461 C441 1.449 . S
C461 C460 1.399 1_554 S
C461 H467 0.930 . S
H462 C442 0.931 . S
H463 C443 0.930 . S
H464 C451 0.931 . S
H465 C452 0.929 . S
H466 C460 0.929 . S
H467 C461 0.930 . S
Mn468 O473 2.095 . S
Mn468 O483 2.162 . S
Mn468 O484 2.297 . S
Mn468 O492 2.385 . S
Mn468 O493 2.209 . S
Mn468 O494 2.094 . S
Mn469 O474 2.121 . S
Mn469 N476 2.257 . S
Mn469 N485 2.282 1_554 S
Mn469 O493 2.215 . S
Mn469 O495 2.117 . S
C470 O492 1.234 . S
C470 O493 1.283 . S
C471 O483 1.281 . S
C471 O484 1.236 . S
C472 O494 1.240 . S
C472 O495 1.264 . S
O473 Mn468 2.095 . S
O473 C482 1.250 . S
O474 Mn469 2.121 . S
O474 C482 1.258 . S
C475 N476 1.326 . S
C475 C479 1.460 . S
C475 H481 0.929 . S
N476 Mn469 2.257 . S
N476 C475 1.326 . S
N476 C480 1.362 . S
C477 C478 1.258 . S
C477 C480 1.431 . S
C477 C497 1.449 1_554 S
C478 C477 1.258 . S
C478 C479 1.477 . S
C478 H498 0.931 . S
C479 C475 1.460 . S
C479 C478 1.477 . S
C479 H499 0.930 . S
C480 N476 1.362 . S
C480 C477 1.431 . S
C480 C490 1.476 1_554 S
H481 C475 0.929 . S
C482 O473 1.250 . S
C482 O474 1.258 . S
O483 Mn468 2.162 . S
O483 C471 1.281 . S
O484 Mn468 2.297 . S
O484 C471 1.236 . S
N485 Mn469 2.282 1_556 S
N485 C486 1.328 . S
N485 C490 1.318 . S
C486 N485 1.328 . S
C486 C487 1.457 . S
C486 H491 0.929 . S
C487 C486 1.457 . S
C487 C488 1.291 . S
C487 H500 0.931 . S
C488 C487 1.291 . S
C488 C489 1.373 . S
C488 H501 0.929 . S
C489 C488 1.373 . S
C489 C490 1.396 . S
C489 C496 1.403 . S
C490 C480 1.476 1_556 S
C490 N485 1.318 . S
C490 C489 1.396 . S
H491 C486 0.929 . S
O492 Mn468 2.385 . S
O492 C470 1.234 . S
O493 Mn468 2.209 . S
O493 Mn469 2.215 . S
O493 C470 1.283 . S
O494 Mn468 2.094 . S
O494 C472 1.240 . S
O495 Mn469 2.117 . S
O495 C472 1.264 . S
C496 C489 1.403 . S
C496 C497 1.399 . S
C496 H502 0.929 . S
C497 C477 1.449 1_556 S
C497 C496 1.399 . S
C497 H503 0.930 . S
H498 C478 0.931 . S
H499 C479 0.930 . S
H500 C487 0.931 . S
H501 C488 0.929 . S
H502 C496 0.929 . S
H503 C497 0.930 . S
Mn504 O509 2.095 . S
Mn504 O519 2.162 . S
Mn504 O520 2.297 . S
Mn504 O528 2.385 . S
Mn504 O529 2.209 . S
Mn504 O530 2.094 . S
Mn505 O510 2.121 . S
Mn505 N512 2.257 . S
Mn505 N521 2.282 . S
Mn505 O529 2.215 . S
Mn505 O531 2.117 . S
C506 O528 1.234 . S
C506 O529 1.283 . S
C507 O519 1.281 . S
C507 O520 1.236 . S
C508 O530 1.240 . S
C508 O531 1.264 . S
O509 Mn504 2.095 . S
O509 C518 1.250 . S
O510 Mn505 2.121 . S
O510 C518 1.258 . S
C511 N512 1.326 . S
C511 C515 1.460 . S
C511 H517 0.929 . S
N512 Mn505 2.257 . S
N512 C511 1.326 . S
N512 C516 1.362 . S
C513 C514 1.258 . S
C513 C516 1.431 . S
C513 C533 1.449 . S
C514 C513 1.258 . S
C514 C515 1.477 . S
C514 H534 0.931 . S
C515 C511 1.460 . S
C515 C514 1.477 . S
C515 H535 0.930 . S
C516 N512 1.362 . S
C516 C513 1.431 . S
C516 C526 1.476 . S
H517 C511 0.929 . S
C518 O509 1.250 . S
C518 O510 1.258 . S
O519 Mn504 2.162 . S
O519 C507 1.281 . S
O520 Mn504 2.297 . S
O520 C507 1.236 . S
N521 Mn505 2.282 . S
N521 C522 1.328 . S
N521 C526 1.318 . S
C522 N521 1.328 . S
C522 C523 1.457 . S
C522 H527 0.929 . S
C523 C522 1.457 . S
C523 C524 1.291 . S
C523 H536 0.931 . S
C524 C523 1.291 . S
C524 C525 1.373 . S
C524 H537 0.929 . S
C525 C524 1.373 . S
C525 C526 1.396 . S
C525 C532 1.403 . S
C526 C516 1.476 . S
C526 N521 1.318 . S
C526 C525 1.396 . S
H527 C522 0.929 . S
O528 Mn504 2.385 . S
O528 C506 1.234 . S
O529 Mn504 2.209 . S
O529 Mn505 2.215 . S
O529 C506 1.283 . S
O530 Mn504 2.094 . S
O530 C508 1.240 . S
O531 Mn505 2.117 . S
O531 C508 1.264 . S
C532 C525 1.403 . S
C532 C533 1.399 . S
C532 H538 0.929 . S
C533 C513 1.449 . S
C533 C532 1.399 . S
C533 H539 0.930 . S
H534 C514 0.931 . S
H535 C515 0.930 . S
H536 C523 0.931 . S
H537 C524 0.929 . S
H538 C532 0.929 . S
H539 C533 0.930 . S
Mn540 O545 2.095 . S
Mn540 O555 2.162 . S
Mn540 O556 2.297 . S
Mn540 O564 2.385 . S
Mn540 O565 2.209 . S
Mn540 O566 2.094 . S
Mn541 O546 2.121 . S
Mn541 N548 2.257 . S
Mn541 N557 2.282 . S
Mn541 O565 2.215 . S
Mn541 O567 2.117 . S
C542 O564 1.234 . S
C542 O565 1.283 . S
C543 O555 1.281 . S
C543 O556 1.236 . S
C544 O566 1.240 . S
C544 O567 1.264 . S
O545 Mn540 2.095 . S
O545 C554 1.250 . S
O546 Mn541 2.121 . S
O546 C554 1.258 . S
C547 N548 1.326 . S
C547 C551 1.460 . S
C547 H553 0.929 . S
N548 Mn541 2.257 . S
N548 C547 1.326 . S
N548 C552 1.362 . S
C549 C550 1.258 . S
C549 C552 1.431 . S
C549 C569 1.449 . S
C550 C549 1.258 . S
C550 C551 1.477 . S
C550 H570 0.931 . S
C551 C547 1.460 . S
C551 C550 1.477 . S
C551 H571 0.930 . S
C552 N548 1.362 . S
C552 C549 1.431 . S
C552 C562 1.476 . S
H553 C547 0.929 . S
C554 O545 1.250 . S
C554 O546 1.258 . S
O555 Mn540 2.162 . S
O555 C543 1.281 . S
O556 Mn540 2.297 . S
O556 C543 1.236 . S
N557 Mn541 2.282 . S
N557 C558 1.328 . S
N557 C562 1.318 . S
C558 N557 1.328 . S
C558 C559 1.457 . S
C558 H563 0.929 . S
C559 C558 1.457 . S
C559 C560 1.291 . S
C559 H572 0.931 . S
C560 C559 1.291 . S
C560 C561 1.373 . S
C560 H573 0.929 . S
C561 C560 1.373 . S
C561 C562 1.396 . S
C561 C568 1.403 . S
C562 C552 1.476 . S
C562 N557 1.318 . S
C562 C561 1.396 . S
H563 C558 0.929 . S
O564 Mn540 2.385 . S
O564 C542 1.234 . S
O565 Mn540 2.209 . S
O565 Mn541 2.215 . S
O565 C542 1.283 . S
O566 Mn540 2.094 . S
O566 C544 1.240 . S
O567 Mn541 2.117 . S
O567 C544 1.264 . S
C568 C561 1.403 . S
C568 C569 1.399 . S
C568 H574 0.929 . S
C569 C549 1.449 . S
C569 C568 1.399 . S
C569 H575 0.930 . S
H570 C550 0.931 . S
H571 C551 0.930 . S
H572 C559 0.931 . S
H573 C560 0.929 . S
H574 C568 0.929 . S
H575 C569 0.930 . S
Mn576 O581 2.095 . S
Mn576 O591 2.162 . S
Mn576 O592 2.297 . S
Mn576 O600 2.385 1_545 S
Mn576 O601 2.209 1_545 S
Mn576 O602 2.094 . S
Mn577 O582 2.121 . S
Mn577 N584 2.257 1_545 S
Mn577 N593 2.282 1_545 S
Mn577 O601 2.215 1_545 S
Mn577 O603 2.117 . S
C578 O600 1.234 . S
C578 O601 1.283 . S
C579 O591 1.281 . S
C579 O592 1.236 . S
C580 O602 1.240 . S
C580 O603 1.264 . S
O581 Mn576 2.095 . S
O581 C590 1.250 . S
O582 Mn577 2.121 . S
O582 C590 1.258 . S
C583 N584 1.326 1_545 S
C583 C587 1.460 1_545 S
C583 H589 0.929 . S
N584 Mn577 2.257 1_565 S
N584 C583 1.326 1_565 S
N584 C588 1.362 . S
C585 C586 1.258 . S
C585 C588 1.431 . S
C585 C605 1.449 . S
C586 C585 1.258 . S
C586 C587 1.477 . S
C586 H606 0.931 . S
C587 C583 1.460 1_565 S
C587 C586 1.477 . S
C587 H607 0.930 1_565 S
C588 N584 1.362 . S
C588 C585 1.431 . S
C588 C598 1.476 . S
H589 C583 0.929 . S
C590 O581 1.250 . S
C590 O582 1.258 . S
O591 Mn576 2.162 . S
O591 C579 1.281 . S
O592 Mn576 2.297 . S
O592 C579 1.236 . S
N593 Mn577 2.282 1_565 S
N593 C594 1.328 . S
N593 C598 1.318 . S
C594 N593 1.328 . S
C594 C595 1.457 . S
C594 H599 0.929 . S
C595 C594 1.457 . S
C595 C596 1.291 . S
C595 H608 0.931 . S
C596 C595 1.291 . S
C596 C597 1.373 . S
C596 H609 0.929 . S
C597 C596 1.373 . S
C597 C598 1.396 . S
C597 C604 1.403 . S
C598 C588 1.476 . S
C598 N593 1.318 . S
C598 C597 1.396 . S
H599 C594 0.929 . S
O600 Mn576 2.385 1_565 S
O600 C578 1.234 . S
O601 Mn576 2.209 1_565 S
O601 Mn577 2.215 1_565 S
O601 C578 1.283 . S
O602 Mn576 2.094 . S
O602 C580 1.240 . S
O603 Mn577 2.117 . S
O603 C580 1.264 . S
C604 C597 1.403 . S
C604 C605 1.399 . S
C604 H610 0.929 . S
C605 C585 1.449 . S
C605 C604 1.399 . S
C605 H611 0.930 . S
H606 C586 0.931 . S
H607 C587 0.930 1_545 S
H608 C595 0.931 . S
H609 C596 0.929 . S
H610 C604 0.929 . S
H611 C605 0.930 . S
Mn612 O617 2.095 . S
Mn612 O627 2.162 . S
Mn612 O628 2.297 . S
Mn612 O636 2.385 . S
Mn612 O637 2.209 . S
Mn612 O638 2.094 . S
Mn613 O618 2.121 . S
Mn613 N620 2.257 . S
Mn613 N629 2.282 . S
Mn613 O637 2.215 . S
Mn613 O639 2.117 . S
C614 O636 1.234 . S
C614 O637 1.283 . S
C615 O627 1.281 . S
C615 O628 1.236 . S
C616 O638 1.240 . S
C616 O639 1.264 . S
O617 Mn612 2.095 . S
O617 C626 1.250 . S
O618 Mn613 2.121 . S
O618 C626 1.258 . S
C619 N620 1.326 . S
C619 C623 1.460 . S
C619 H625 0.929 . S
N620 Mn613 2.257 . S
N620 C619 1.326 . S
N620 C624 1.362 . S
C621 C622 1.258 . S
C621 C624 1.431 . S
C621 C641 1.449 . S
C622 C621 1.258 . S
C622 C623 1.477 . S
C622 H642 0.931 . S
C623 C619 1.460 . S
C623 C622 1.477 . S
C623 H643 0.930 . S
C624 N620 1.362 . S
C624 C621 1.431 . S
C624 C634 1.476 . S
H625 C619 0.929 . S
C626 O617 1.250 . S
C626 O618 1.258 . S
O627 Mn612 2.162 . S
O627 C615 1.281 . S
O628 Mn612 2.297 . S
O628 C615 1.236 . S
N629 Mn613 2.282 . S
N629 C630 1.328 . S
N629 C634 1.318 . S
C630 N629 1.328 . S
C630 C631 1.457 . S
C630 H635 0.929 . S
C631 C630 1.457 . S
C631 C632 1.291 . S
C631 H644 0.931 . S
C632 C631 1.291 . S
C632 C633 1.373 . S
C632 H645 0.929 . S
C633 C632 1.373 . S
C633 C634 1.396 . S
C633 C640 1.403 . S
C634 C624 1.476 . S
C634 N629 1.318 . S
C634 C633 1.396 . S
H635 C630 0.929 . S
O636 Mn612 2.385 . S
O636 C614 1.234 . S
O637 Mn612 2.209 . S
O637 Mn613 2.215 . S
O637 C614 1.283 . S
O638 Mn612 2.094 . S
O638 C616 1.240 . S
O639 Mn613 2.117 . S
O639 C616 1.264 . S
C640 C633 1.403 . S
C640 C641 1.399 . S
C640 H646 0.929 . S
C641 C621 1.449 . S
C641 C640 1.399 . S
C641 H647 0.930 . S
H642 C622 0.931 . S
H643 C623 0.930 . S
H644 C631 0.931 . S
H645 C632 0.929 . S
H646 C640 0.929 . S
H647 C641 0.930 . S
Mn648 O653 2.095 . S
Mn648 O663 2.162 . S
Mn648 O664 2.297 . S
Mn648 O672 2.385 . S
Mn648 O673 2.209 . S
Mn648 O674 2.094 . S
Mn649 O654 2.121 . S
Mn649 N656 2.257 . S
Mn649 N665 2.282 . S
Mn649 O673 2.215 . S
Mn649 O675 2.117 . S
C650 O672 1.234 . S
C650 O673 1.283 . S
C651 O663 1.281 . S
C651 O664 1.236 . S
C652 O674 1.240 . S
C652 O675 1.264 . S
O653 Mn648 2.095 . S
O653 C662 1.250 . S
O654 Mn649 2.121 . S
O654 C662 1.258 . S
C655 N656 1.326 . S
C655 C659 1.460 . S
C655 H661 0.929 . S
N656 Mn649 2.257 . S
N656 C655 1.326 . S
N656 C660 1.362 . S
C657 C658 1.258 . S
C657 C660 1.431 . S
C657 C677 1.449 . S
C658 C657 1.258 . S
C658 C659 1.477 . S
C658 H678 0.931 . S
C659 C655 1.460 . S
C659 C658 1.477 . S
C659 H679 0.930 . S
C660 N656 1.362 . S
C660 C657 1.431 . S
C660 C670 1.476 . S
H661 C655 0.929 . S
C662 O653 1.250 . S
C662 O654 1.258 . S
O663 Mn648 2.162 . S
O663 C651 1.281 . S
O664 Mn648 2.297 . S
O664 C651 1.236 . S
N665 Mn649 2.282 . S
N665 C666 1.328 . S
N665 C670 1.318 . S
C666 N665 1.328 . S
C666 C667 1.457 . S
C666 H671 0.929 . S
C667 C666 1.457 . S
C667 C668 1.291 . S
C667 H680 0.931 . S
C668 C667 1.291 . S
C668 C669 1.373 . S
C668 H681 0.929 . S
C669 C668 1.373 . S
C669 C670 1.396 . S
C669 C676 1.403 . S
C670 C660 1.476 . S
C670 N665 1.318 . S
C670 C669 1.396 . S
H671 C666 0.929 . S
O672 Mn648 2.385 . S
O672 C650 1.234 . S
O673 Mn648 2.209 . S
O673 Mn649 2.215 . S
O673 C650 1.283 . S
O674 Mn648 2.094 . S
O674 C652 1.240 . S
O675 Mn649 2.117 . S
O675 C652 1.264 . S
C676 C669 1.403 . S
C676 C677 1.399 . S
C676 H682 0.929 . S
C677 C657 1.449 . S
C677 C676 1.399 . S
C677 H683 0.930 . S
H678 C658 0.931 . S
H679 C659 0.930 . S
H680 C667 0.931 . S
H681 C668 0.929 . S
H682 C676 0.929 . S
H683 C677 0.930 . S
Mn684 O689 2.095 . S
Mn684 O699 2.162 . S
Mn684 O700 2.297 . S
Mn684 O708 2.385 . S
Mn684 O709 2.209 . S
Mn684 O710 2.094 . S
Mn685 O690 2.121 . S
Mn685 N692 2.257 . S
Mn685 N701 2.282 . S
Mn685 O709 2.215 . S
Mn685 O711 2.117 . S
C686 O708 1.234 . S
C686 O709 1.283 . S
C687 O699 1.281 . S
C687 O700 1.236 . S
C688 O710 1.240 . S
C688 O711 1.264 . S
O689 Mn684 2.095 . S
O689 C698 1.250 . S
O690 Mn685 2.121 . S
O690 C698 1.258 . S
C691 N692 1.326 . S
C691 C695 1.460 . S
C691 H697 0.929 . S
N692 Mn685 2.257 . S
N692 C691 1.326 . S
N692 C696 1.362 . S
C693 C694 1.258 . S
C693 C696 1.431 . S
C693 C713 1.449 . S
C694 C693 1.258 . S
C694 C695 1.477 . S
C694 H714 0.931 . S
C695 C691 1.460 . S
C695 C694 1.477 . S
C695 H715 0.930 . S
C696 N692 1.362 . S
C696 C693 1.431 . S
C696 C706 1.476 . S
H697 C691 0.929 . S
C698 O689 1.250 . S
C698 O690 1.258 . S
O699 Mn684 2.162 . S
O699 C687 1.281 . S
O700 Mn684 2.297 . S
O700 C687 1.236 . S
N701 Mn685 2.282 . S
N701 C702 1.328 . S
N701 C706 1.318 . S
C702 N701 1.328 . S
C702 C703 1.457 . S
C702 H707 0.929 . S
C703 C702 1.457 . S
C703 C704 1.291 . S
C703 H716 0.931 . S
C704 C703 1.291 . S
C704 C705 1.373 . S
C704 H717 0.929 . S
C705 C704 1.373 . S
C705 C706 1.396 . S
C705 C712 1.403 . S
C706 C696 1.476 . S
C706 N701 1.318 . S
C706 C705 1.396 . S
H707 C702 0.929 . S
O708 Mn684 2.385 . S
O708 C686 1.234 . S
O709 Mn684 2.209 . S
O709 Mn685 2.215 . S
O709 C686 1.283 . S
O710 Mn684 2.094 . S
O710 C688 1.240 . S
O711 Mn685 2.117 . S
O711 C688 1.264 . S
C712 C705 1.403 . S
C712 C713 1.399 . S
C712 H718 0.929 . S
C713 C693 1.449 . S
C713 C712 1.399 . S
C713 H719 0.930 . S
H714 C694 0.931 . S
H715 C695 0.930 . S
H716 C703 0.931 . S
H717 C704 0.929 . S
H718 C712 0.929 . S
H719 C713 0.930 . S
Mn720 O725 2.095 . S
Mn720 O735 2.162 . S
Mn720 O736 2.297 . S
Mn720 O744 2.385 . S
Mn720 O745 2.209 . S
Mn720 O746 2.094 1_554 S
Mn721 O726 2.121 . S
Mn721 N728 2.257 . S
Mn721 N737 2.282 . S
Mn721 O745 2.215 1_556 S
Mn721 O747 2.117 . S
C722 O744 1.234 . S
C722 O745 1.283 . S
C723 O735 1.281 . S
C723 O736 1.236 . S
C724 O746 1.240 . S
C724 O747 1.264 . S
O725 Mn720 2.095 . S
O725 C734 1.250 . S
O726 Mn721 2.121 . S
O726 C734 1.258 1_556 S
C727 N728 1.326 . S
C727 C731 1.460 . S
C727 H733 0.929 . S
N728 Mn721 2.257 . S
N728 C727 1.326 . S
N728 C732 1.362 . S
C729 C730 1.258 . S
C729 C732 1.431 . S
C729 C749 1.449 . S
C730 C729 1.258 . S
C730 C731 1.477 . S
C730 H750 0.931 . S
C731 C727 1.460 . S
C731 C730 1.477 . S
C731 H751 0.930 . S
C732 N728 1.362 . S
C732 C729 1.431 . S
C732 C742 1.476 . S
H733 C727 0.929 . S
C734 O725 1.250 . S
C734 O726 1.258 1_554 S
O735 Mn720 2.162 . S
O735 C723 1.281 . S
O736 Mn720 2.297 . S
O736 C723 1.236 . S
N737 Mn721 2.282 . S
N737 C738 1.328 . S
N737 C742 1.318 . S
C738 N737 1.328 . S
C738 C739 1.457 . S
C738 H743 0.929 . S
C739 C738 1.457 . S
C739 C740 1.291 . S
C739 H752 0.931 . S
C740 C739 1.291 . S
C740 C741 1.373 . S
C740 H753 0.929 . S
C741 C740 1.373 . S
C741 C742 1.396 . S
C741 C748 1.403 . S
C742 C732 1.476 . S
C742 N737 1.318 . S
C742 C741 1.396 . S
H743 C738 0.929 . S
O744 Mn720 2.385 . S
O744 C722 1.234 . S
O745 Mn720 2.209 . S
O745 Mn721 2.215 1_554 S
O745 C722 1.283 . S
O746 Mn720 2.094 1_556 S
O746 C724 1.240 . S
O747 Mn721 2.117 . S
O747 C724 1.264 . S
C748 C741 1.403 . S
C748 C749 1.399 . S
C748 H754 0.929 . S
C749 C729 1.449 . S
C749 C748 1.399 . S
C749 H755 0.930 . S
H750 C730 0.931 . S
H751 C731 0.930 . S
H752 C739 0.931 . S
H753 C740 0.929 . S
H754 C748 0.929 . S
H755 C749 0.930 . S
Mn756 O761 2.095 . S
Mn756 O771 2.162 . S
Mn756 O772 2.297 . S
Mn756 O780 2.385 . S
Mn756 O781 2.209 . S
Mn756 O782 2.094 . S
Mn757 O762 2.121 . S
Mn757 N764 2.257 . S
Mn757 N773 2.282 . S
Mn757 O781 2.215 . S
Mn757 O783 2.117 . S
C758 O780 1.234 . S
C758 O781 1.283 . S
C759 O771 1.281 . S
C759 O772 1.236 . S
C760 O782 1.240 . S
C760 O783 1.264 . S
O761 Mn756 2.095 . S
O761 C770 1.250 . S
O762 Mn757 2.121 . S
O762 C770 1.258 . S
C763 N764 1.326 . S
C763 C767 1.460 . S
C763 H769 0.929 . S
N764 Mn757 2.257 . S
N764 C763 1.326 . S
N764 C768 1.362 . S
C765 C766 1.258 . S
C765 C768 1.431 . S
C765 C785 1.449 . S
C766 C765 1.258 . S
C766 C767 1.477 . S
C766 H786 0.931 . S
C767 C763 1.460 . S
C767 C766 1.477 . S
C767 H787 0.930 . S
C768 N764 1.362 . S
C768 C765 1.431 . S
C768 C778 1.476 . S
H769 C763 0.929 . S
C770 O761 1.250 . S
C770 O762 1.258 . S
O771 Mn756 2.162 . S
O771 C759 1.281 . S
O772 Mn756 2.297 . S
O772 C759 1.236 . S
N773 Mn757 2.282 . S
N773 C774 1.328 . S
N773 C778 1.318 . S
C774 N773 1.328 . S
C774 C775 1.457 . S
C774 H779 0.929 . S
C775 C774 1.457 . S
C775 C776 1.291 . S
C775 H788 0.931 . S
C776 C775 1.291 . S
C776 C777 1.373 . S
C776 H789 0.929 . S
C777 C776 1.373 . S
C777 C778 1.396 . S
C777 C784 1.403 . S
C778 C768 1.476 . S
C778 N773 1.318 . S
C778 C777 1.396 . S
H779 C774 0.929 . S
O780 Mn756 2.385 . S
O780 C758 1.234 . S
O781 Mn756 2.209 . S
O781 Mn757 2.215 . S
O781 C758 1.283 . S
O782 Mn756 2.094 . S
O782 C760 1.240 . S
O783 Mn757 2.117 . S
O783 C760 1.264 . S
C784 C777 1.403 . S
C784 C785 1.399 . S
C784 H790 0.929 . S
C785 C765 1.449 . S
C785 C784 1.399 . S
C785 H791 0.930 . S
H786 C766 0.931 . S
H787 C767 0.930 . S
H788 C775 0.931 . S
H789 C776 0.929 . S
H790 C784 0.929 . S
H791 C785 0.930 . S
Mn792 O797 2.095 . S
Mn792 O807 2.162 . S
Mn792 O808 2.297 . S
Mn792 O816 2.385 . S
Mn792 O817 2.209 . S
Mn792 O818 2.094 . S
Mn793 O798 2.121 . S
Mn793 N800 2.257 . S
Mn793 N809 2.282 . S
Mn793 O817 2.215 . S
Mn793 O819 2.117 . S
C794 O816 1.234 . S
C794 O817 1.283 . S
C795 O807 1.281 . S
C795 O808 1.236 . S
C796 O818 1.240 . S
C796 O819 1.264 . S
O797 Mn792 2.095 . S
O797 C806 1.250 . S
O798 Mn793 2.121 . S
O798 C806 1.258 . S
C799 N800 1.326 . S
C799 C803 1.460 . S
C799 H805 0.929 . S
N800 Mn793 2.257 . S
N800 C799 1.326 . S
N800 C804 1.362 . S
C801 C802 1.258 . S
C801 C804 1.431 . S
C801 C821 1.449 . S
C802 C801 1.258 . S
C802 C803 1.477 . S
C802 H822 0.931 . S
C803 C799 1.460 . S
C803 C802 1.477 . S
C803 H823 0.930 . S
C804 N800 1.362 . S
C804 C801 1.431 . S
C804 C814 1.476 . S
H805 C799 0.929 . S
C806 O797 1.250 . S
C806 O798 1.258 . S
O807 Mn792 2.162 . S
O807 C795 1.281 . S
O808 Mn792 2.297 . S
O808 C795 1.236 . S
N809 Mn793 2.282 . S
N809 C810 1.328 . S
N809 C814 1.318 . S
C810 N809 1.328 . S
C810 C811 1.457 . S
C810 H815 0.929 . S
C811 C810 1.457 . S
C811 C812 1.291 . S
C811 H824 0.931 . S
C812 C811 1.291 . S
C812 C813 1.373 . S
C812 H825 0.929 . S
C813 C812 1.373 . S
C813 C814 1.396 . S
C813 C820 1.403 . S
C814 C804 1.476 . S
C814 N809 1.318 . S
C814 C813 1.396 . S
H815 C810 0.929 . S
O816 Mn792 2.385 . S
O816 C794 1.234 . S
O817 Mn792 2.209 . S
O817 Mn793 2.215 . S
O817 C794 1.283 . S
O818 Mn792 2.094 . S
O818 C796 1.240 . S
O819 Mn793 2.117 . S
O819 C796 1.264 . S
C820 C813 1.403 . S
C820 C821 1.399 . S
C820 H826 0.929 . S
C821 C801 1.449 . S
C821 C820 1.399 . S
C821 H827 0.930 . S
H822 C802 0.931 . S
H823 C803 0.930 . S
H824 C811 0.931 . S
H825 C812 0.929 . S
H826 C820 0.929 . S
H827 C821 0.930 . S
Mn828 O833 2.095 . S
Mn828 O843 2.162 . S
Mn828 O844 2.297 . S
Mn828 O852 2.385 . S
Mn828 O853 2.209 . S
Mn828 O854 2.094 . S
Mn829 O834 2.121 . S
Mn829 N836 2.257 . S
Mn829 N845 2.282 . S
Mn829 O853 2.215 . S
Mn829 O855 2.117 . S
C830 O852 1.234 . S
C830 O853 1.283 . S
C831 O843 1.281 . S
C831 O844 1.236 . S
C832 O854 1.240 . S
C832 O855 1.264 . S
O833 Mn828 2.095 . S
O833 C842 1.250 . S
O834 Mn829 2.121 . S
O834 C842 1.258 . S
C835 N836 1.326 . S
C835 C839 1.460 . S
C835 H841 0.929 . S
N836 Mn829 2.257 . S
N836 C835 1.326 . S
N836 C840 1.362 . S
C837 C838 1.258 . S
C837 C840 1.431 . S
C837 C857 1.449 . S
C838 C837 1.258 . S
C838 C839 1.477 . S
C838 H858 0.931 . S
C839 C835 1.460 . S
C839 C838 1.477 . S
C839 H859 0.930 . S
C840 N836 1.362 . S
C840 C837 1.431 . S
C840 C850 1.476 . S
H841 C835 0.929 . S
C842 O833 1.250 . S
C842 O834 1.258 . S
O843 Mn828 2.162 . S
O843 C831 1.281 . S
O844 Mn828 2.297 . S
O844 C831 1.236 . S
N845 Mn829 2.282 . S
N845 C846 1.328 . S
N845 C850 1.318 . S
C846 N845 1.328 . S
C846 C847 1.457 . S
C846 H851 0.929 . S
C847 C846 1.457 . S
C847 C848 1.291 . S
C847 H860 0.931 . S
C848 C847 1.291 . S
C848 C849 1.373 . S
C848 H861 0.929 . S
C849 C848 1.373 . S
C849 C850 1.396 . S
C849 C856 1.403 . S
C850 C840 1.476 . S
C850 N845 1.318 . S
C850 C849 1.396 . S
H851 C846 0.929 . S
O852 Mn828 2.385 . S
O852 C830 1.234 . S
O853 Mn828 2.209 . S
O853 Mn829 2.215 . S
O853 C830 1.283 . S
O854 Mn828 2.094 . S
O854 C832 1.240 . S
O855 Mn829 2.117 . S
O855 C832 1.264 . S
C856 C849 1.403 . S
C856 C857 1.399 . S
C856 H862 0.929 . S
C857 C837 1.449 . S
C857 C856 1.399 . S
C857 H863 0.930 . S
H858 C838 0.931 . S
H859 C839 0.930 . S
H860 C847 0.931 . S
H861 C848 0.929 . S
H862 C856 0.929 . S
H863 C857 0.930 . S
Eu864 N893 2.600 . S
Eu864 N899 2.562 . S
Eu864 O908 2.462 . S
Eu864 O909 2.373 . S
Eu864 O911 2.432 . S
Eu864 O912 2.291 . S
Eu864 O916 2.335 1_545 S
Eu864 O919 2.372 . S
Eu864 C928 2.787 . S
C865 N866 1.365 . S
C865 C868 1.405 . S
C865 C872 1.448 1_556 S
N866 C865 1.365 . S
N866 C869 1.319 . S
N866 Eu875 2.600 1_566 S
C867 C869 1.397 . S
C867 C870 1.367 . S
C867 H887 0.931 . S
C868 C865 1.405 . S
C868 C870 1.403 . S
C868 C874 1.439 . S
C869 N866 1.319 . S
C869 C867 1.397 . S
C869 H880 0.930 . S
C870 C867 1.367 . S
C870 C868 1.403 . S
C870 H891 0.929 . S
C871 C872 1.430 . S
C871 C873 1.387 1_554 S
C871 C877 1.404 . S
C872 C865 1.448 1_554 S
C872 C871 1.430 . S
C872 N876 1.351 . S
C873 C871 1.387 1_556 S
C873 C874 1.374 . S
C873 H888 0.935 . S
C874 C868 1.439 . S
C874 C873 1.374 . S
C874 H889 0.931 . S
Eu875 N866 2.600 1_544 S
Eu875 N876 2.562 1_545 S
Eu875 O910 2.335 1_655 S
Eu875 O913 2.372 1_654 S
Eu875 O914 2.462 . S
Eu875 O915 2.373 1_645 S
Eu875 O917 2.432 1_554 S
Eu875 O918 2.291 1_655 S
Eu875 C939 2.788 . S
N876 C872 1.351 . S
N876 Eu875 2.562 1_565 S
N876 C878 1.325 . S
C877 C871 1.404 . S
C877 C879 1.366 . S
C877 H885 0.930 . S
C878 N876 1.325 . S
C878 C879 1.416 . S
C878 H884 0.929 . S
C879 C877 1.366 . S
C879 C878 1.416 . S
C879 H881 0.930 . S
H880 C869 0.930 . S
H881 C879 0.930 . S
H882 C897 0.930 . S
H883 C904 0.930 . S
H884 C878 0.929 . S
H885 C877 0.930 . S
H886 C900 0.929 1_556 S
H887 C867 0.931 . S
H888 C873 0.935 . S
H889 C874 0.931 . S
H890 C895 0.931 . S
H891 C870 0.929 . S
H892 C903 0.930 . S
N893 Eu864 2.600 . S
N893 C894 1.365 . S
N893 C897 1.319 . S
C894 N893 1.365 . S
C894 C896 1.405 . S
C894 C902 1.448 . S
C895 H890 0.931 . S
C895 C897 1.397 . S
C895 C898 1.367 . S
C896 C894 1.405 . S
C896 C898 1.403 . S
C896 C929 1.439 . S
C897 H882 0.930 . S
C897 N893 1.319 . S
C897 C895 1.397 . S
C898 C895 1.367 . S
C898 C896 1.403 . S
C898 H905 0.929 . S
N899 Eu864 2.562 . S
N899 C900 1.325 . S
N899 C902 1.351 . S
C900 H886 0.929 1_554 S
C900 N899 1.325 . S
C900 C904 1.416 1_554 S
C901 C902 1.430 . S
C901 C903 1.404 . S
C901 C930 1.387 . S
C902 C894 1.448 . S
C902 N899 1.351 . S
C902 C901 1.430 . S
C903 H892 0.930 . S
C903 C901 1.404 . S
C903 C904 1.366 1_554 S
C904 H883 0.930 . S
C904 C900 1.416 1_556 S
C904 C903 1.366 1_556 S
H905 C898 0.929 . S
H906 C929 0.931 . S
H907 C930 0.931 . S
O908 Eu864 2.462 . S
O908 C928 1.252 . S
O909 Eu864 2.373 . S
O909 C920 1.249 . S
O910 Eu875 2.335 1_455 S
O910 C920 1.264 . S
O911 Eu864 2.432 . S
O911 C928 1.268 . S
O912 Eu864 2.291 . S
O912 C927 1.255 1_554 S
O913 Eu875 2.372 1_456 S
O913 C927 1.257 . S
O914 Eu875 2.462 . S
O914 C939 1.264 . S
O915 Eu875 2.373 1_465 S
O915 C931 1.249 . S
O916 Eu864 2.335 1_565 S
O916 C931 1.264 . S
O917 Eu875 2.432 1_556 S
O917 C939 1.258 1_556 S
O918 Eu875 2.291 1_455 S
O918 C938 1.255 . S
O919 Eu864 2.372 . S
O919 C938 1.257 . S
C920 O909 1.249 . S
C920 O910 1.264 . S
C921 C924 1.382 . S
C921 C926 1.407 . S
C921 C928 1.506 . S
C922 C923 1.398 . S
C922 C926 1.370 1_565 S
C923 C922 1.398 . S
C923 C925 1.372 1_565 S
C923 H940 0.931 . S
C924 C921 1.382 . S
C924 C925 1.390 . S
C924 H941 0.931 . S
C925 C923 1.372 1_545 S
C925 C924 1.390 . S
C925 H942 0.929 . S
C926 C921 1.407 . S
C926 C922 1.370 1_545 S
C926 H943 0.937 . S
C927 O912 1.255 1_556 S
C927 O913 1.257 . S
C928 Eu864 2.787 . S
C928 O908 1.252 . S
C928 O911 1.268 . S
C928 C921 1.506 . S
C929 C896 1.439 . S
C929 H906 0.931 . S
C929 C930 1.374 . S
C930 C901 1.387 . S
C930 H907 0.931 . S
C930 C929 1.374 . S
C931 O915 1.249 . S
C931 O916 1.264 . S
C932 C935 1.382 . S
C932 C936 1.390 1_556 S
C932 C939 1.505 1_556 S
C933 C934 1.398 1_554 S
C933 C936 1.392 . S
C934 C933 1.398 1_556 S
C934 C937 1.372 . S
C934 H944 0.931 . S
C935 C932 1.382 . S
C935 C937 1.390 . S
C935 H945 0.931 . S
C936 C932 1.390 1_554 S
C936 C933 1.392 . S
C936 H946 0.930 . S
C937 C934 1.372 . S
C937 C935 1.390 . S
C937 H947 0.929 . S
C938 O918 1.255 . S
C938 O919 1.257 . S
C939 Eu875 2.788 . S
C939 O914 1.264 . S
C939 O917 1.258 1_554 S
C939 C932 1.505 1_554 S
H940 C923 0.931 . S
H941 C924 0.931 . S
H942 C925 0.929 . S
H943 C926 0.937 . S
H944 C934 0.931 . S
H945 C935 0.931 . S
H946 C936 0.930 . S
H947 C937 0.929 . S
Eu948 N977 2.600 . S
Eu948 N983 2.562 . S
Eu948 O992 2.462 . S
Eu948 O993 2.373 . S
Eu948 O995 2.432 . S
Eu948 O996 2.291 . S
Eu948 O1000 2.335 . S
Eu948 O1003 2.372 . S
Eu948 C1012 2.787 . S
C949 N950 1.365 . S
C949 C952 1.405 . S
C949 C956 1.448 . S
N950 C949 1.365 . S
N950 C953 1.319 . S
N950 Eu959 2.600 . S
C951 C953 1.397 . S
C951 C954 1.367 . S
C951 H971 0.931 . S
C952 C949 1.405 . S
C952 C954 1.403 . S
C952 C958 1.439 . S
C953 N950 1.319 . S
C953 C951 1.397 . S
C953 H964 0.930 . S
C954 C951 1.367 . S
C954 C952 1.403 . S
C954 H975 0.929 . S
C955 C956 1.430 . S
C955 C957 1.387 . S
C955 C961 1.404 . S
C956 C949 1.448 . S
C956 C955 1.430 . S
C956 N960 1.351 . S
C957 C955 1.387 . S
C957 C958 1.374 . S
C957 H972 0.931 . S
C958 C952 1.439 . S
C958 C957 1.374 . S
C958 H973 0.931 . S
Eu959 N950 2.600 . S
Eu959 N960 2.562 . S
Eu959 O994 2.335 . S
Eu959 O997 2.372 . S
Eu959 O998 2.462 . S
Eu959 O999 2.373 . S
Eu959 O1001 2.432 . S
Eu959 O1002 2.291 . S
Eu959 C1023 2.787 . S
N960 C956 1.351 . S
N960 Eu959 2.562 . S
N960 C962 1.325 . S
C961 C955 1.404 . S
C961 C963 1.366 . S
C961 H969 0.930 . S
C962 N960 1.325 . S
C962 C963 1.416 . S
C962 H968 0.929 . S
C963 C961 1.366 . S
C963 C962 1.416 . S
C963 H965 0.930 . S
H964 C953 0.930 . S
H965 C963 0.930 . S
H966 C981 0.930 . S
H967 C988 0.930 . S
H968 C962 0.929 . S
H969 C961 0.930 . S
H970 C984 0.929 . S
H971 C951 0.931 . S
H972 C957 0.931 . S
H973 C958 0.931 . S
H974 C979 0.931 . S
H975 C954 0.929 . S
H976 C987 0.930 . S
N977 Eu948 2.600 . S
N977 C978 1.365 . S
N977 C981 1.319 . S
C978 N977 1.365 . S
C978 C980 1.405 . S
C978 C986 1.448 . S
C979 H974 0.931 . S
C979 C981 1.397 . S
C979 C982 1.367 . S
C980 C978 1.405 . S
C980 C982 1.403 . S
C980 C1013 1.439 . S
C981 H966 0.930 . S
C981 N977 1.319 . S
C981 C979 1.397 . S
C982 C979 1.367 . S
C982 C980 1.403 . S
C982 H989 0.929 . S
N983 Eu948 2.562 . S
N983 C984 1.325 . S
N983 C986 1.351 . S
C984 H970 0.929 . S
C984 N983 1.325 . S
C984 C988 1.416 . S
C985 C986 1.430 . S
C985 C987 1.404 . S
C985 C1014 1.387 . S
C986 C978 1.448 . S
C986 N983 1.351 . S
C986 C985 1.430 . S
C987 H976 0.930 . S
C987 C985 1.404 . S
C987 C988 1.366 . S
C988 H967 0.930 . S
C988 C984 1.416 . S
C988 C987 1.366 . S
H989 C982 0.929 . S
H990 C1013 0.931 . S
H991 C1014 0.931 . S
O992 Eu948 2.462 . S
O992 C1012 1.252 . S
O993 Eu948 2.373 . S
O993 C1004 1.249 . S
O994 Eu959 2.335 . S
O994 C1004 1.264 . S
O995 Eu948 2.432 . S
O995 C1012 1.268 . S
O996 Eu948 2.291 . S
O996 C1011 1.255 . S
O997 Eu959 2.372 . S
O997 C1011 1.257 . S
O998 Eu959 2.462 . S
O998 C1023 1.252 . S
O999 Eu959 2.373 . S
O999 C1015 1.249 . S
O1000 Eu948 2.335 . S
O1000 C1015 1.264 . S
O1001 Eu959 2.432 . S
O1001 C1023 1.268 . S
O1002 Eu959 2.291 . S
O1002 C1022 1.255 . S
O1003 Eu948 2.372 . S
O1003 C1022 1.257 . S
C1004 O993 1.249 . S
C1004 O994 1.264 . S
C1005 C1008 1.382 . S
C1005 C1010 1.390 . S
C1005 C1012 1.506 . S
C1006 C1007 1.398 . S
C1006 C1010 1.392 . S
C1007 C1006 1.398 . S
C1007 C1009 1.372 . S
C1007 H1024 0.931 . S
C1008 C1005 1.382 . S
C1008 C1009 1.390 . S
C1008 H1025 0.931 . S
C1009 C1007 1.372 . S
C1009 C1008 1.390 . S
C1009 H1026 0.929 . S
C1010 C1005 1.390 . S
C1010 C1006 1.392 . S
C1010 H1027 0.930 . S
C1011 O996 1.255 . S
C1011 O997 1.257 . S
C1012 Eu948 2.787 . S
C1012 O992 1.252 . S
C1012 O995 1.268 . S
C1012 C1005 1.506 . S
C1013 C980 1.439 . S
C1013 H990 0.931 . S
C1013 C1014 1.374 . S
C1014 C985 1.387 . S
C1014 H991 0.931 . S
C1014 C1013 1.374 . S
C1015 O999 1.249 . S
C1015 O1000 1.264 . S
C1016 C1019 1.382 . S
C1016 C1020 1.390 . S
C1016 C1023 1.506 . S
C1017 C1018 1.398 . S
C1017 C1020 1.392 . S
C1018 C1017 1.398 . S
C1018 C1021 1.372 . S
C1018 H1028 0.931 . S
C1019 C1016 1.382 . S
C1019 C1021 1.390 . S
C1019 H1029 0.931 . S
C1020 C1016 1.390 . S
C1020 C1017 1.392 . S
C1020 H1030 0.930 . S
C1021 C1018 1.372 . S
C1021 C1019 1.390 . S
C1021 H1031 0.929 . S
C1022 O1002 1.255 . S
C1022 O1003 1.257 . S
C1023 Eu959 2.787 . S
C1023 O998 1.252 . S
C1023 O1001 1.268 . S
C1023 C1016 1.506 . S
H1024 C1007 0.931 . S
H1025 C1008 0.931 . S
H1026 C1009 0.929 . S
H1027 C1010 0.930 . S
H1028 C1018 0.931 . S
H1029 C1019 0.931 . S
H1030 C1020 0.930 . S
H1031 C1021 0.929 . S
Eu1032 N1061 2.600 . S
Eu1032 N1067 2.562 1_545 S
Eu1032 O1076 2.462 . S
Eu1032 O1077 2.373 1_545 S
Eu1032 O1079 2.432 . S
Eu1032 O1080 2.291 . S
Eu1032 O1084 2.335 . S
Eu1032 O1087 2.372 . S
Eu1032 C1096 2.787 . S
C1033 N1034 1.365 . S
C1033 C1036 1.405 . S
C1033 C1040 1.448 . S
N1034 C1033 1.365 . S
N1034 C1037 1.319 . S
N1034 Eu1043 2.600 . S
C1035 C1037 1.397 . S
C1035 C1038 1.367 . S
C1035 H1055 0.931 . S
C1036 C1033 1.405 . S
C1036 C1038 1.403 . S
C1036 C1042 1.439 . S
C1037 N1034 1.319 . S
C1037 C1035 1.397 . S
C1037 H1048 0.930 . S
C1038 C1035 1.367 . S
C1038 C1036 1.403 . S
C1038 H1059 0.929 . S
C1039 C1040 1.430 . S
C1039 C1041 1.387 . S
C1039 C1045 1.404 . S
C1040 C1033 1.448 . S
C1040 C1039 1.430 . S
C1040 N1044 1.351 . S
C1041 C1039 1.387 . S
C1041 C1042 1.374 . S
C1041 H1056 0.931 . S
C1042 C1036 1.439 . S
C1042 C1041 1.374 . S
C1042 H1057 0.931 . S
Eu1043 N1034 2.600 . S
Eu1043 N1044 2.562 . S
Eu1043 O1078 2.335 . S
Eu1043 O1081 2.372 . S
Eu1043 O1082 2.462 . S
Eu1043 O1083 2.373 . S
Eu1043 O1085 2.432 . S
Eu1043 O1086 2.291 . S
Eu1043 C1107 2.787 . S
N1044 C1040 1.351 . S
N1044 Eu1043 2.562 . S
N1044 C1046 1.325 . S
C1045 C1039 1.404 . S
C1045 C1047 1.366 . S
C1045 H1053 0.930 . S
C1046 N1044 1.325 . S
C1046 C1047 1.416 . S
C1046 H1052 0.929 . S
C1047 C1045 1.366 . S
C1047 C1046 1.416 . S
C1047 H1049 0.930 . S
H1048 C1037 0.930 . S
H1049 C1047 0.930 . S
H1050 C1065 0.930 . S
H1051 C1072 0.930 . S
H1052 C1046 0.929 . S
H1053 C1045 0.930 . S
H1054 C1068 0.929 1_545 S
H1055 C1035 0.931 . S
H1056 C1041 0.931 . S
H1057 C1042 0.931 . S
H1058 C1063 0.931 . S
H1059 C1038 0.929 . S
H1060 C1071 0.930 . S
N1061 Eu1032 2.600 . S
N1061 C1062 1.365 1_545 S
N1061 C1065 1.319 . S
C1062 N1061 1.365 1_565 S
C1062 C1064 1.405 . S
C1062 C1070 1.448 . S
C1063 H1058 0.931 . S
C1063 C1065 1.397 1_565 S
C1063 C1066 1.367 . S
C1064 C1062 1.405 . S
C1064 C1066 1.403 . S
C1064 C1097 1.439 . S
C1065 H1050 0.930 . S
C1065 N1061 1.319 . S
C1065 C1063 1.397 1_545 S
C1066 C1063 1.367 . S
C1066 C1064 1.403 . S
C1066 H1073 0.929 . S
N1067 Eu1032 2.562 1_565 S
N1067 C1068 1.325 . S
N1067 C1070 1.351 . S
C1068 H1054 0.929 1_565 S
C1068 N1067 1.325 . S
C1068 C1072 1.416 . S
C1069 C1070 1.430 . S
C1069 C1071 1.404 . S
C1069 C1098 1.387 . S
C1070 C1062 1.448 . S
C1070 N1067 1.351 . S
C1070 C1069 1.430 . S
C1071 H1060 0.930 . S
C1071 C1069 1.404 . S
C1071 C1072 1.366 . S
C1072 H1051 0.930 . S
C1072 C1068 1.416 . S
C1072 C1071 1.366 . S
H1073 C1066 0.929 . S
H1074 C1097 0.931 . S
H1075 C1098 0.931 . S
O1076 Eu1032 2.462 . S
O1076 C1096 1.252 . S
O1077 Eu1032 2.373 1_565 S
O1077 C1088 1.249 . S
O1078 Eu1043 2.335 . S
O1078 C1088 1.264 1_545 S
O1079 Eu1032 2.432 . S
O1079 C1096 1.268 . S
O1080 Eu1032 2.291 . S
O1080 C1095 1.255 . S
O1081 Eu1043 2.372 . S
O1081 C1095 1.257 . S
O1082 Eu1043 2.462 . S
O1082 C1107 1.252 . S
O1083 Eu1043 2.373 . S
O1083 C1099 1.249 . S
O1084 Eu1032 2.335 . S
O1084 C1099 1.264 . S
O1085 Eu1043 2.432 . S
O1085 C1107 1.268 . S
O1086 Eu1043 2.291 . S
O1086 C1106 1.255 . S
O1087 Eu1032 2.372 . S
O1087 C1106 1.257 . S
C1088 O1077 1.249 . S
C1088 O1078 1.264 1_565 S
C1089 C1092 1.382 . S
C1089 C1094 1.390 . S
C1089 C1096 1.506 . S
C1090 C1091 1.398 . S
C1090 C1094 1.392 . S
C1091 C1090 1.398 . S
C1091 C1093 1.372 . S
C1091 H1108 0.931 . S
C1092 C1089 1.382 . S
C1092 C1093 1.390 . S
C1092 H1109 0.931 . S
C1093 C1091 1.372 . S
C1093 C1092 1.390 . S
C1093 H1110 0.929 . S
C1094 C1089 1.390 . S
C1094 C1090 1.392 . S
C1094 H1111 0.930 . S
C1095 O1080 1.255 . S
C1095 O1081 1.257 . S
C1096 Eu1032 2.787 . S
C1096 O1076 1.252 . S
C1096 O1079 1.268 . S
C1096 C1089 1.506 . S
C1097 C1064 1.439 . S
C1097 H1074 0.931 . S
C1097 C1098 1.374 . S
C1098 C1069 1.387 . S
C1098 H1075 0.931 . S
C1098 C1097 1.374 . S
C1099 O1083 1.249 . S
C1099 O1084 1.264 . S
C1100 C1103 1.375 1_545 S
C1100 C1104 1.390 1_545 S
C1100 C1107 1.506 . S
C1101 C1102 1.398 . S
C1101 C1104 1.392 . S
C1102 C1101 1.398 . S
C1102 C1105 1.372 . S
C1102 H1112 0.931 . S
C1103 C1100 1.375 1_565 S
C1103 C1105 1.427 . S
C1103 H1113 0.905 1_565 S
C1104 C1100 1.390 1_565 S
C1104 C1101 1.392 . S
C1104 H1114 0.936 . S
C1105 C1102 1.372 . S
C1105 C1103 1.427 . S
C1105 H1115 0.929 . S
C1106 O1086 1.255 . S
C1106 O1087 1.257 . S
C1107 Eu1043 2.787 . S
C1107 O1082 1.252 . S
C1107 O1085 1.268 . S
C1107 C1100 1.506 . S
H1108 C1091 0.931 . S
H1109 C1092 0.931 . S
H1110 C1093 0.929 . S
H1111 C1094 0.930 . S
H1112 C1102 0.931 . S
H1113 C1103 0.905 1_545 S
H1114 C1104 0.936 . S
H1115 C1105 0.929 . S
Eu1116 N1145 2.600 . S
Eu1116 N1151 2.562 . S
Eu1116 O1160 2.462 . S
Eu1116 O1161 2.373 . S
Eu1116 O1163 2.432 . S
Eu1116 O1164 2.291 . S
Eu1116 O1168 2.335 . S
Eu1116 O1171 2.372 . S
Eu1116 C1180 2.787 . S
C1117 N1118 1.365 . S
C1117 C1120 1.405 . S
C1117 C1124 1.448 . S
N1118 C1117 1.365 . S
N1118 C1121 1.319 . S
N1118 Eu1127 2.600 . S
C1119 C1121 1.397 . S
C1119 C1122 1.367 . S
C1119 H1139 0.931 . S
C1120 C1117 1.405 . S
C1120 C1122 1.403 . S
C1120 C1126 1.439 . S
C1121 N1118 1.319 . S
C1121 C1119 1.397 . S
C1121 H1132 0.930 . S
C1122 C1119 1.367 . S
C1122 C1120 1.403 . S
C1122 H1143 0.929 . S
C1123 C1124 1.430 . S
C1123 C1125 1.387 . S
C1123 C1129 1.404 . S
C1124 C1117 1.448 . S
C1124 C1123 1.430 . S
C1124 N1128 1.351 . S
C1125 C1123 1.387 . S
C1125 C1126 1.374 . S
C1125 H1140 0.931 . S
C1126 C1120 1.439 . S
C1126 C1125 1.374 . S
C1126 H1141 0.931 . S
Eu1127 N1118 2.600 . S
Eu1127 N1128 2.562 . S
Eu1127 O1162 2.335 . S
Eu1127 O1165 2.372 . S
Eu1127 O1166 2.462 . S
Eu1127 O1167 2.373 . S
Eu1127 O1169 2.432 . S
Eu1127 O1170 2.291 . S
Eu1127 C1191 2.787 . S
N1128 C1124 1.351 . S
N1128 Eu1127 2.562 . S
N1128 C1130 1.325 . S
C1129 C1123 1.404 . S
C1129 C1131 1.366 . S
C1129 H1137 0.930 . S
C1130 N1128 1.325 . S
C1130 C1131 1.416 . S
C1130 H1136 0.929 . S
C1131 C1129 1.366 . S
C1131 C1130 1.416 . S
C1131 H1133 0.930 . S
H1132 C1121 0.930 . S
H1133 C1131 0.930 . S
H1134 C1149 0.930 . S
H1135 C1156 0.930 . S
H1136 C1130 0.929 . S
H1137 C1129 0.930 . S
H1138 C1152 0.929 . S
H1139 C1119 0.931 . S
H1140 C1125 0.931 . S
H1141 C1126 0.931 . S
H1142 C1147 0.931 . S
H1143 C1122 0.929 . S
H1144 C1155 0.930 . S
N1145 Eu1116 2.600 . S
N1145 C1146 1.365 . S
N1145 C1149 1.319 . S
C1146 N1145 1.365 . S
C1146 C1148 1.405 . S
C1146 C1154 1.448 . S
C1147 H1142 0.931 . S
C1147 C1149 1.397 . S
C1147 C1150 1.367 . S
C1148 C1146 1.405 . S
C1148 C1150 1.403 . S
C1148 C1181 1.439 . S
C1149 H1134 0.930 . S
C1149 N1145 1.319 . S
C1149 C1147 1.397 . S
C1150 C1147 1.367 . S
C1150 C1148 1.403 . S
C1150 H1157 0.929 . S
N1151 Eu1116 2.562 . S
N1151 C1152 1.325 . S
N1151 C1154 1.351 . S
C1152 H1138 0.929 . S
C1152 N1151 1.325 . S
C1152 C1156 1.416 . S
C1153 C1154 1.430 . S
C1153 C1155 1.404 . S
C1153 C1182 1.387 . S
C1154 C1146 1.448 . S
C1154 N1151 1.351 . S
C1154 C1153 1.430 . S
C1155 H1144 0.930 . S
C1155 C1153 1.404 . S
C1155 C1156 1.366 . S
C1156 H1135 0.930 . S
C1156 C1152 1.416 . S
C1156 C1155 1.366 . S
H1157 C1150 0.929 . S
H1158 C1181 0.931 . S
H1159 C1182 0.931 . S
O1160 Eu1116 2.462 . S
O1160 C1180 1.252 . S
O1161 Eu1116 2.373 . S
O1161 C1172 1.249 . S
O1162 Eu1127 2.335 . S
O1162 C1172 1.264 . S
O1163 Eu1116 2.432 . S
O1163 C1180 1.268 . S
O1164 Eu1116 2.291 . S
O1164 C1179 1.255 . S
O1165 Eu1127 2.372 . S
O1165 C1179 1.257 . S
O1166 Eu1127 2.462 . S
O1166 C1191 1.252 . S
O1167 Eu1127 2.373 . S
O1167 C1183 1.249 . S
O1168 Eu1116 2.335 . S
O1168 C1183 1.264 . S
O1169 Eu1127 2.432 . S
O1169 C1191 1.268 . S
O1170 Eu1127 2.291 . S
O1170 C1190 1.255 . S
O1171 Eu1116 2.372 . S
O1171 C1190 1.257 . S
C1172 O1161 1.249 . S
C1172 O1162 1.264 . S
C1173 C1176 1.382 . S
C1173 C1178 1.390 . S
C1173 C1180 1.506 . S
C1174 C1175 1.398 . S
C1174 C1178 1.392 . S
C1175 C1174 1.398 . S
C1175 C1177 1.372 . S
C1175 H1192 0.931 . S
C1176 C1173 1.382 . S
C1176 C1177 1.390 . S
C1176 H1193 0.931 . S
C1177 C1175 1.372 . S
C1177 C1176 1.390 . S
C1177 H1194 0.929 . S
C1178 C1173 1.390 . S
C1178 C1174 1.392 . S
C1178 H1195 0.930 . S
C1179 O1164 1.255 . S
C1179 O1165 1.257 . S
C1180 Eu1116 2.787 . S
C1180 O1160 1.252 . S
C1180 O1163 1.268 . S
C1180 C1173 1.506 . S
C1181 C1148 1.439 . S
C1181 H1158 0.931 . S
C1181 C1182 1.374 . S
C1182 C1153 1.387 . S
C1182 H1159 0.931 . S
C1182 C1181 1.374 . S
C1183 O1167 1.249 . S
C1183 O1168 1.264 . S
C1184 C1187 1.382 . S
C1184 C1188 1.390 . S
C1184 C1191 1.506 . S
C1185 C1186 1.398 . S
C1185 C1188 1.392 . S
C1186 C1185 1.398 . S
C1186 C1189 1.372 . S
C1186 H1196 0.931 . S
C1187 C1184 1.382 . S
C1187 C1189 1.390 . S
C1187 H1197 0.931 . S
C1188 C1184 1.390 . S
C1188 C1185 1.392 . S
C1188 H1198 0.930 . S
C1189 C1186 1.372 . S
C1189 C1187 1.390 . S
C1189 H1199 0.929 . S
C1190 O1170 1.255 . S
C1190 O1171 1.257 . S
C1191 Eu1127 2.787 . S
C1191 O1166 1.252 . S
C1191 O1169 1.268 . S
C1191 C1184 1.506 . S
H1192 C1175 0.931 . S
H1193 C1176 0.931 . S
H1194 C1177 0.929 . S
H1195 C1178 0.930 . S
H1196 C1186 0.931 . S
H1197 C1187 0.931 . S
H1198 C1188 0.930 . S
H1199 C1189 0.929 . S
Eu1200 N1229 2.615 . S
Eu1200 N1235 2.589 . S
Eu1200 O1244 2.497 . S
Eu1200 O1245 2.349 1_565 S
Eu1200 O1247 2.464 . S
Eu1200 O1248 2.279 1_565 S
Eu1200 O1252 2.321 1_565 S
Eu1200 O1255 2.344 1_565 S
Eu1200 C1264 2.825 . S
C1201 N1202 1.365 1_455 S
C1201 C1204 1.405 1_455 S
C1201 C1208 1.448 . S
N1202 C1201 1.365 1_655 S
N1202 C1205 1.319 . S
N1202 Eu1211 2.600 1_655 S
C1203 C1205 1.397 . S
C1203 C1206 1.367 . S
C1203 H1223 0.931 . S
C1204 C1201 1.405 1_655 S
C1204 C1206 1.403 . S
C1204 C1210 1.439 1_655 S
C1205 N1202 1.319 . S
C1205 C1203 1.397 . S
C1205 H1216 0.930 . S
C1206 C1203 1.367 . S
C1206 C1204 1.403 . S
C1206 H1227 0.929 . S
C1207 C1208 1.430 . S
C1207 C1209 1.387 . S
C1207 C1213 1.404 . S
C1208 C1201 1.448 . S
C1208 C1207 1.430 . S
C1208 N1212 1.351 . S
C1209 C1207 1.387 . S
C1209 C1210 1.374 . S
C1209 H1224 0.931 . S
C1210 C1204 1.439 1_455 S
C1210 C1209 1.374 . S
C1210 H1225 0.931 1_455 S
Eu1211 N1202 2.600 1_455 S
Eu1211 N1212 2.562 . S
Eu1211 O1246 2.335 . S
Eu1211 O1249 2.372 1_455 S
Eu1211 O1250 2.462 . S
Eu1211 O1251 2.373 . S
Eu1211 O1253 2.432 1_455 S
Eu1211 O1254 2.291 . S
Eu1211 C1275 2.787 . S
N1212 C1208 1.351 . S
N1212 Eu1211 2.562 . S
N1212 C1214 1.325 . S
C1213 C1207 1.404 . S
C1213 C1215 1.366 . S
C1213 H1221 0.930 . S
C1214 N1212 1.325 . S
C1214 C1215 1.416 . S
C1214 H1220 0.929 . S
C1215 C1213 1.366 . S
C1215 C1214 1.416 . S
C1215 H1217 0.930 . S
H1216 C1205 0.930 . S
H1217 C1215 0.930 . S
H1218 C1233 0.930 1_545 S
H1219 C1240 0.930 . S
H1220 C1214 0.929 . S
H1221 C1213 0.930 . S
H1222 C1236 0.971 . S
H1223 C1203 0.931 . S
H1224 C1209 0.931 . S
H1225 C1210 0.931 1_655 S
H1226 C1231 0.931 . S
H1227 C1206 0.929 . S
H1228 C1239 0.930 . S
N1229 Eu1200 2.615 . S
N1229 C1230 1.365 . S
N1229 C1233 1.319 . S
C1230 N1229 1.365 . S
C1230 C1232 1.405 . S
C1230 C1238 1.448 . S
C1231 H1226 0.931 . S
C1231 C1233 1.397 . S
C1231 C1234 1.367 . S
C1232 C1230 1.405 . S
C1232 C1234 1.403 . S
C1232 C1265 1.439 . S
C1233 H1218 0.930 1_565 S
C1233 N1229 1.319 . S
C1233 C1231 1.397 . S
C1234 C1231 1.367 . S
C1234 C1232 1.403 . S
C1234 H1241 0.929 . S
N1235 Eu1200 2.589 . S
N1235 C1236 1.265 1_455 S
N1235 C1238 1.351 . S
C1236 H1222 0.971 . S
C1236 N1235 1.265 1_655 S
C1236 C1240 1.439 . S
C1237 C1238 1.430 . S
C1237 C1239 1.404 1_455 S
C1237 C1266 1.387 . S
C1238 C1230 1.448 . S
C1238 N1235 1.351 . S
C1238 C1237 1.430 . S
C1239 H1228 0.930 . S
C1239 C1237 1.404 1_655 S
C1239 C1240 1.366 . S
C1240 H1219 0.930 . S
C1240 C1236 1.439 . S
C1240 C1239 1.366 . S
H1241 C1234 0.929 . S
H1242 C1265 0.931 . S
H1243 C1266 0.931 . S
O1244 Eu1200 2.497 . S
O1244 C1264 1.252 . S
O1245 Eu1200 2.349 1_545 S
O1245 C1256 1.249 . S
O1246 Eu1211 2.335 . S
O1246 C1256 1.264 . S
O1247 Eu1200 2.464 . S
O1247 C1264 1.268 . S
O1248 Eu1200 2.279 1_545 S
O1248 C1263 1.255 1_455 S
O1249 Eu1211 2.372 1_655 S
O1249 C1263 1.257 . S
O1250 Eu1211 2.462 . S
O1250 C1275 1.252 . S
O1251 Eu1211 2.373 . S
O1251 C1267 1.249 . S
O1252 Eu1200 2.321 1_545 S
O1252 C1267 1.264 . S
O1253 Eu1211 2.432 1_655 S
O1253 C1275 1.268 1_655 S
O1254 Eu1211 2.291 . S
O1254 C1274 1.255 . S
O1255 Eu1200 2.344 1_545 S
O1255 C1274 1.257 . S
C1256 O1245 1.249 . S
C1256 O1246 1.264 . S
C1257 C1260 1.382 . S
C1257 C1262 1.390 . S
C1257 C1264 1.506 . S
C1258 C1259 1.398 . S
C1258 C1262 1.392 . S
C1259 C1258 1.398 . S
C1259 C1261 1.372 . S
C1259 H1276 0.931 . S
C1260 C1257 1.382 . S
C1260 C1261 1.390 . S
C1260 H1277 0.931 . S
C1261 C1259 1.372 . S
C1261 C1260 1.390 . S
C1261 H1278 0.929 . S
C1262 C1257 1.390 . S
C1262 C1258 1.392 . S
C1262 H1279 0.930 . S
C1263 O1248 1.255 1_655 S
C1263 O1249 1.257 . S
C1264 Eu1200 2.825 . S
C1264 O1244 1.252 . S
C1264 O1247 1.268 . S
C1264 C1257 1.506 . S
C1265 C1232 1.439 . S
C1265 H1242 0.931 . S
C1265 C1266 1.374 . S
C1266 C1237 1.387 . S
C1266 H1243 0.931 . S
C1266 C1265 1.374 . S
C1267 O1251 1.249 . S
C1267 O1252 1.264 . S
C1268 C1271 1.382 1_455 S
C1268 C1272 1.390 . S
C1268 C1275 1.506 . S
C1269 C1270 1.398 1_455 S
C1269 C1272 1.392 . S
C1270 C1269 1.398 1_655 S
C1270 C1273 1.372 . S
C1270 H1280 0.931 . S
C1271 C1268 1.382 1_655 S
C1271 C1273 1.390 . S
C1271 H1281 0.931 . S
C1272 C1268 1.390 . S
C1272 C1269 1.392 . S
C1272 H1282 0.930 . S
C1273 C1270 1.372 . S
C1273 C1271 1.390 . S
C1273 H1283 0.929 . S
C1274 O1254 1.255 . S
C1274 O1255 1.257 . S
C1275 Eu1211 2.787 . S
C1275 O1250 1.252 . S
C1275 O1253 1.268 1_455 S
C1275 C1268 1.506 . S
H1276 C1259 0.931 . S
H1277 C1260 0.931 . S
H1278 C1261 0.929 . S
H1279 C1262 0.930 . S
H1280 C1270 0.931 . S
H1281 C1271 0.931 . S
H1282 C1272 0.930 . S
H1283 C1273 0.929 . S
Eu1284 N1313 2.600 . S
Eu1284 N1319 2.562 . S
Eu1284 O1328 2.462 . S
Eu1284 O1329 2.373 . S
Eu1284 O1331 2.432 . S
Eu1284 O1332 2.291 . S
Eu1284 O1336 2.335 . S
Eu1284 O1339 2.372 . S
Eu1284 C1348 2.787 . S
C1285 N1286 1.365 . S
C1285 C1288 1.405 . S
C1285 C1292 1.448 . S
N1286 C1285 1.365 . S
N1286 C1289 1.319 . S
N1286 Eu1295 2.600 . S
C1287 C1289 1.397 . S
C1287 C1290 1.367 . S
C1287 H1307 0.931 . S
C1288 C1285 1.405 . S
C1288 C1290 1.403 . S
C1288 C1294 1.439 . S
C1289 N1286 1.319 . S
C1289 C1287 1.397 . S
C1289 H1300 0.930 . S
C1290 C1287 1.367 . S
C1290 C1288 1.403 . S
C1290 H1311 0.929 . S
C1291 C1292 1.430 . S
C1291 C1293 1.387 . S
C1291 C1297 1.404 . S
C1292 C1285 1.448 . S
C1292 C1291 1.430 . S
C1292 N1296 1.351 . S
C1293 C1291 1.387 . S
C1293 C1294 1.374 . S
C1293 H1308 0.931 . S
C1294 C1288 1.439 . S
C1294 C1293 1.374 . S
C1294 H1309 0.931 . S
Eu1295 N1286 2.600 . S
Eu1295 N1296 2.562 . S
Eu1295 O1330 2.335 . S
Eu1295 O1333 2.372 . S
Eu1295 O1334 2.462 . S
Eu1295 O1335 2.373 . S
Eu1295 O1337 2.432 . S
Eu1295 O1338 2.291 . S
Eu1295 C1359 2.787 . S
N1296 C1292 1.351 . S
N1296 Eu1295 2.562 . S
N1296 C1298 1.325 . S
C1297 C1291 1.404 . S
C1297 C1299 1.366 . S
C1297 H1305 0.930 . S
C1298 N1296 1.325 . S
C1298 C1299 1.416 . S
C1298 H1304 0.929 . S
C1299 C1297 1.366 . S
C1299 C1298 1.416 . S
C1299 H1301 0.930 . S
H1300 C1289 0.930 . S
H1301 C1299 0.930 . S
H1302 C1317 0.930 . S
H1303 C1324 0.930 . S
H1304 C1298 0.929 . S
H1305 C1297 0.930 . S
H1306 C1320 0.929 . S
H1307 C1287 0.931 . S
H1308 C1293 0.931 . S
H1309 C1294 0.931 . S
H1310 C1315 0.931 . S
H1311 C1290 0.929 . S
H1312 C1323 0.930 . S
N1313 Eu1284 2.600 . S
N1313 C1314 1.365 . S
N1313 C1317 1.319 . S
C1314 N1313 1.365 . S
C1314 C1316 1.405 . S
C1314 C1322 1.448 . S
C1315 H1310 0.931 . S
C1315 C1317 1.397 . S
C1315 C1318 1.367 . S
C1316 C1314 1.405 . S
C1316 C1318 1.403 . S
C1316 C1349 1.439 . S
C1317 H1302 0.930 . S
C1317 N1313 1.319 . S
C1317 C1315 1.397 . S
C1318 C1315 1.367 . S
C1318 C1316 1.403 . S
C1318 H1325 0.929 . S
N1319 Eu1284 2.562 . S
N1319 C1320 1.325 . S
N1319 C1322 1.351 . S
C1320 H1306 0.929 . S
C1320 N1319 1.325 . S
C1320 C1324 1.416 . S
C1321 C1322 1.430 . S
C1321 C1323 1.404 . S
C1321 C1350 1.387 . S
C1322 C1314 1.448 . S
C1322 N1319 1.351 . S
C1322 C1321 1.430 . S
C1323 H1312 0.930 . S
C1323 C1321 1.404 . S
C1323 C1324 1.366 . S
C1324 H1303 0.930 . S
C1324 C1320 1.416 . S
C1324 C1323 1.366 . S
H1325 C1318 0.929 . S
H1326 C1349 0.931 . S
H1327 C1350 0.931 . S
O1328 Eu1284 2.462 . S
O1328 C1348 1.252 . S
O1329 Eu1284 2.373 . S
O1329 C1340 1.249 . S
O1330 Eu1295 2.335 . S
O1330 C1340 1.264 . S
O1331 Eu1284 2.432 . S
O1331 C1348 1.268 . S
O1332 Eu1284 2.291 . S
O1332 C1347 1.255 . S
O1333 Eu1295 2.372 . S
O1333 C1347 1.257 . S
O1334 Eu1295 2.462 . S
O1334 C1359 1.252 . S
O1335 Eu1295 2.373 . S
O1335 C1351 1.249 . S
O1336 Eu1284 2.335 . S
O1336 C1351 1.264 . S
O1337 Eu1295 2.432 . S
O1337 C1359 1.268 . S
O1338 Eu1295 2.291 . S
O1338 C1358 1.255 . S
O1339 Eu1284 2.372 . S
O1339 C1358 1.257 . S
C1340 O1329 1.249 . S
C1340 O1330 1.264 . S
C1341 C1344 1.382 . S
C1341 C1346 1.390 . S
C1341 C1348 1.506 . S
C1342 C1343 1.398 . S
C1342 C1346 1.392 . S
C1343 C1342 1.398 . S
C1343 C1345 1.372 . S
C1343 H1360 0.931 . S
C1344 C1341 1.382 . S
C1344 C1345 1.390 . S
C1344 H1361 0.931 . S
C1345 C1343 1.372 . S
C1345 C1344 1.390 . S
C1345 H1362 0.929 . S
C1346 C1341 1.390 . S
C1346 C1342 1.392 . S
C1346 H1363 0.930 . S
C1347 O1332 1.255 . S
C1347 O1333 1.257 . S
C1348 Eu1284 2.787 . S
C1348 O1328 1.252 . S
C1348 O1331 1.268 . S
C1348 C1341 1.506 . S
C1349 C1316 1.439 . S
C1349 H1326 0.931 . S
C1349 C1350 1.374 . S
C1350 C1321 1.387 . S
C1350 H1327 0.931 . S
C1350 C1349 1.374 . S
C1351 O1335 1.249 . S
C1351 O1336 1.264 . S
C1352 C1355 1.382 . S
C1352 C1356 1.390 . S
C1352 C1359 1.506 . S
C1353 C1354 1.398 . S
C1353 C1356 1.392 . S
C1354 C1353 1.398 . S
C1354 C1357 1.372 . S
C1354 H1364 0.931 . S
C1355 C1352 1.382 . S
C1355 C1357 1.390 . S
C1355 H1365 0.931 . S
C1356 C1352 1.390 . S
C1356 C1353 1.392 . S
C1356 H1366 0.930 . S
C1357 C1354 1.372 . S
C1357 C1355 1.390 . S
C1357 H1367 0.929 . S
C1358 O1338 1.255 . S
C1358 O1339 1.257 . S
C1359 Eu1295 2.787 . S
C1359 O1334 1.252 . S
C1359 O1337 1.268 . S
C1359 C1352 1.506 . S
H1360 C1343 0.931 . S
H1361 C1344 0.931 . S
H1362 C1345 0.929 . S
H1363 C1346 0.930 . S
H1364 C1354 0.931 . S
H1365 C1355 0.931 . S
H1366 C1356 0.930 . S
H1367 C1357 0.929 . S
Eu1368 N1397 2.600 . S
Eu1368 N1403 2.562 . S
Eu1368 O1412 2.462 . S
Eu1368 O1413 2.373 1_556 S
Eu1368 O1415 2.432 . S
Eu1368 O1416 2.287 1_556 S
Eu1368 O1420 2.335 1_556 S
Eu1368 O1423 2.372 1_556 S
Eu1368 C1432 2.787 . S
C1369 N1370 1.365 1_545 S
C1369 C1372 1.405 1_545 S
C1369 C1376 1.448 . S
N1370 C1369 1.365 1_565 S
N1370 C1373 1.319 . S
N1370 Eu1379 2.600 1_565 S
C1371 C1373 1.397 . S
C1371 C1374 1.367 . S
C1371 H1391 0.931 . S
C1372 C1369 1.405 1_565 S
C1372 C1374 1.403 . S
C1372 C1378 1.439 1_565 S
C1373 N1370 1.319 . S
C1373 C1371 1.397 . S
C1373 H1384 0.930 . S
C1374 C1371 1.367 . S
C1374 C1372 1.403 . S
C1374 H1395 0.929 . S
C1375 C1376 1.430 . S
C1375 C1377 1.387 . S
C1375 C1381 1.404 . S
C1376 C1369 1.448 . S
C1376 C1375 1.430 . S
C1376 N1380 1.351 . S
C1377 C1375 1.387 . S
C1377 C1378 1.374 . S
C1377 H1392 0.931 . S
C1378 C1372 1.439 1_545 S
C1378 C1377 1.374 . S
C1378 H1393 0.931 1_545 S
Eu1379 N1370 2.600 1_545 S
Eu1379 N1380 2.562 . S
Eu1379 O1414 2.335 . S
Eu1379 O1417 2.372 1_545 S
Eu1379 O1418 2.462 . S
Eu1379 O1419 2.373 . S
Eu1379 O1421 2.432 1_545 S
Eu1379 O1422 2.291 . S
Eu1379 C1443 2.787 . S
N1380 C1376 1.351 . S
N1380 Eu1379 2.562 . S
N1380 C1382 1.325 . S
C1381 C1375 1.404 . S
C1381 C1383 1.366 . S
C1381 H1389 0.930 . S
C1382 N1380 1.325 . S
C1382 C1383 1.416 . S
C1382 H1388 0.929 . S
C1383 C1381 1.366 . S
C1383 C1382 1.416 . S
C1383 H1385 0.930 . S
H1384 C1373 0.930 . S
H1385 C1383 0.930 . S
H1386 C1401 0.930 1_554 S
H1387 C1408 0.930 . S
H1388 C1382 0.929 . S
H1389 C1381 0.930 . S
H1390 C1404 0.929 . S
H1391 C1371 0.931 . S
H1392 C1377 0.931 . S
H1393 C1378 0.931 1_565 S
H1394 C1399 0.931 . S
H1395 C1374 0.929 . S
H1396 C1407 0.930 . S
N1397 Eu1368 2.600 . S
N1397 C1398 1.365 . S
N1397 C1401 1.319 . S
C1398 N1397 1.365 . S
C1398 C1400 1.405 . S
C1398 C1406 1.448 . S
C1399 H1394 0.931 . S
C1399 C1401 1.397 . S
C1399 C1402 1.367 . S
C1400 C1398 1.405 . S
C1400 C1402 1.403 . S
C1400 C1433 1.439 . S
C1401 H1386 0.930 1_556 S
C1401 N1397 1.319 . S
C1401 C1399 1.397 . S
C1402 C1399 1.367 . S
C1402 C1400 1.403 . S
C1402 H1409 0.929 . S
N1403 Eu1368 2.562 . S
N1403 C1404 1.325 . S
N1403 C1406 1.351 . S
C1404 H1390 0.929 . S
C1404 N1403 1.325 . S
C1404 C1408 1.416 1_545 S
C1405 C1406 1.430 . S
C1405 C1407 1.404 . S
C1405 C1434 1.387 . S
C1406 C1398 1.448 . S
C1406 N1403 1.351 . S
C1406 C1405 1.430 . S
C1407 H1396 0.930 . S
C1407 C1405 1.404 . S
C1407 C1408 1.366 1_545 S
C1408 H1387 0.930 . S
C1408 C1404 1.416 1_565 S
C1408 C1407 1.366 1_565 S
H1409 C1402 0.929 . S
H1410 C1433 0.931 . S
H1411 C1434 0.931 . S
O1412 Eu1368 2.462 . S
O1412 C1432 1.252 . S
O1413 Eu1368 2.373 1_554 S
O1413 C1424 1.249 . S
O1414 Eu1379 2.335 . S
O1414 C1424 1.264 . S
O1415 Eu1368 2.432 . S
O1415 C1432 1.268 . S
O1416 Eu1368 2.287 1_554 S
O1416 C1431 1.265 1_545 S
O1417 Eu1379 2.372 1_565 S
O1417 C1431 1.257 . S
O1418 Eu1379 2.462 . S
O1418 C1443 1.252 . S
O1419 Eu1379 2.373 . S
O1419 C1435 1.249 . S
O1420 Eu1368 2.335 1_554 S
O1420 C1435 1.264 . S
O1421 Eu1379 2.432 1_565 S
O1421 C1443 1.268 1_565 S
O1422 Eu1379 2.291 . S
O1422 C1442 1.255 . S
O1423 Eu1368 2.372 1_554 S
O1423 C1442 1.257 . S
C1424 O1413 1.249 . S
C1424 O1414 1.264 . S
C1425 C1428 1.382 . S
C1425 C1430 1.390 . S
C1425 C1432 1.506 . S
C1426 C1427 1.398 . S
C1426 C1430 1.392 . S
C1427 C1426 1.398 . S
C1427 C1429 1.372 . S
C1427 H1444 0.931 . S
C1428 C1425 1.382 . S
C1428 C1429 1.390 . S
C1428 H1445 0.931 . S
C1429 C1427 1.372 . S
C1429 C1428 1.390 . S
C1429 H1446 0.929 . S
C1430 C1425 1.390 . S
C1430 C1426 1.392 . S
C1430 H1447 0.930 . S
C1431 O1416 1.265 1_565 S
C1431 O1417 1.257 . S
C1432 Eu1368 2.787 . S
C1432 O1412 1.252 . S
C1432 O1415 1.268 . S
C1432 C1425 1.506 . S
C1433 C1400 1.439 . S
C1433 H1410 0.931 . S
C1433 C1434 1.374 . S
C1434 C1405 1.387 . S
C1434 H1411 0.931 . S
C1434 C1433 1.374 . S
C1435 O1419 1.249 . S
C1435 O1420 1.264 . S
C1436 C1439 1.416 . S
C1436 C1440 1.366 1_565 S
C1436 C1443 1.498 1_565 S
C1437 C1438 1.398 1_545 S
C1437 C1440 1.392 . S
C1438 C1437 1.398 1_565 S
C1438 C1441 1.372 . S
C1438 H1448 0.931 . S
C1439 C1436 1.416 . S
C1439 C1441 1.390 . S
C1439 H1449 0.931 . S
C1440 C1436 1.366 1_545 S
C1440 C1437 1.392 . S
C1440 H1450 0.930 . S
C1441 C1438 1.372 . S
C1441 C1439 1.390 . S
C1441 H1451 0.929 . S
C1442 O1422 1.255 . S
C1442 O1423 1.257 . S
C1443 Eu1379 2.787 . S
C1443 O1418 1.252 . S
C1443 O1421 1.268 1_545 S
C1443 C1436 1.498 1_545 S
H1444 C1427 0.931 . S
H1445 C1428 0.931 . S
H1446 C1429 0.929 . S
H1447 C1430 0.930 . S
H1448 C1438 0.931 . S
H1449 C1439 0.931 . S
H1450 C1440 0.930 . S
H1451 C1441 0.929 . S
Eu1452 N1481 2.600 . S
Eu1452 N1487 2.562 . S
Eu1452 O1496 2.462 . S
Eu1452 O1497 2.373 . S
Eu1452 O1499 2.432 . S
Eu1452 O1500 2.291 . S
Eu1452 O1504 2.335 . S
Eu1452 O1507 2.372 . S
Eu1452 C1516 2.787 . S
C1453 N1454 1.365 . S
C1453 C1456 1.405 . S
C1453 C1460 1.448 . S
N1454 C1453 1.365 . S
N1454 C1457 1.319 . S
N1454 Eu1463 2.600 . S
C1455 C1457 1.397 . S
C1455 C1458 1.367 . S
C1455 H1475 0.931 . S
C1456 C1453 1.405 . S
C1456 C1458 1.403 . S
C1456 C1462 1.439 . S
C1457 N1454 1.319 . S
C1457 C1455 1.397 . S
C1457 H1468 0.930 . S
C1458 C1455 1.367 . S
C1458 C1456 1.403 . S
C1458 H1479 0.929 . S
C1459 C1460 1.430 . S
C1459 C1461 1.387 . S
C1459 C1465 1.404 . S
C1460 C1453 1.448 . S
C1460 C1459 1.430 . S
C1460 N1464 1.351 . S
C1461 C1459 1.387 . S
C1461 C1462 1.374 . S
C1461 H1476 0.931 . S
C1462 C1456 1.439 . S
C1462 C1461 1.374 . S
C1462 H1477 0.931 . S
Eu1463 N1454 2.600 . S
Eu1463 N1464 2.562 . S
Eu1463 O1498 2.335 . S
Eu1463 O1501 2.372 . S
Eu1463 O1502 2.462 . S
Eu1463 O1503 2.373 . S
Eu1463 O1505 2.432 . S
Eu1463 O1506 2.291 . S
Eu1463 C1527 2.787 . S
N1464 C1460 1.351 . S
N1464 Eu1463 2.562 . S
N1464 C1466 1.325 . S
C1465 C1459 1.404 . S
C1465 C1467 1.366 . S
C1465 H1473 0.930 . S
C1466 N1464 1.325 . S
C1466 C1467 1.416 . S
C1466 H1472 0.929 . S
C1467 C1465 1.366 . S
C1467 C1466 1.416 . S
C1467 H1469 0.930 . S
H1468 C1457 0.930 . S
H1469 C1467 0.930 . S
H1470 C1485 0.930 . S
H1471 C1492 0.930 . S
H1472 C1466 0.929 . S
H1473 C1465 0.930 . S
H1474 C1488 0.929 . S
H1475 C1455 0.931 . S
H1476 C1461 0.931 . S
H1477 C1462 0.931 . S
H1478 C1483 0.931 . S
H1479 C1458 0.929 . S
H1480 C1491 0.930 . S
N1481 Eu1452 2.600 . S
N1481 C1482 1.365 . S
N1481 C1485 1.319 . S
C1482 N1481 1.365 . S
C1482 C1484 1.405 . S
C1482 C1490 1.448 . S
C1483 H1478 0.931 . S
C1483 C1485 1.397 . S
C1483 C1486 1.367 . S
C1484 C1482 1.405 . S
C1484 C1486 1.403 . S
C1484 C1517 1.439 . S
C1485 H1470 0.930 . S
C1485 N1481 1.319 . S
C1485 C1483 1.397 . S
C1486 C1483 1.367 . S
C1486 C1484 1.403 . S
C1486 H1493 0.929 . S
N1487 Eu1452 2.562 . S
N1487 C1488 1.325 . S
N1487 C1490 1.351 . S
C1488 H1474 0.929 . S
C1488 N1487 1.325 . S
C1488 C1492 1.416 . S
C1489 C1490 1.430 . S
C1489 C1491 1.404 . S
C1489 C1518 1.387 . S
C1490 C1482 1.448 . S
C1490 N1487 1.351 . S
C1490 C1489 1.430 . S
C1491 H1480 0.930 . S
C1491 C1489 1.404 . S
C1491 C1492 1.366 . S
C1492 H1471 0.930 . S
C1492 C1488 1.416 . S
C1492 C1491 1.366 . S
H1493 C1486 0.929 . S
H1494 C1517 0.931 . S
H1495 C1518 0.931 . S
O1496 Eu1452 2.462 . S
O1496 C1516 1.252 . S
O1497 Eu1452 2.373 . S
O1497 C1508 1.249 . S
O1498 Eu1463 2.335 . S
O1498 C1508 1.264 . S
O1499 Eu1452 2.432 . S
O1499 C1516 1.268 . S
O1500 Eu1452 2.291 . S
O1500 C1515 1.255 . S
O1501 Eu1463 2.372 . S
O1501 C1515 1.257 . S
O1502 Eu1463 2.462 . S
O1502 C1527 1.252 . S
O1503 Eu1463 2.373 . S
O1503 C1519 1.249 . S
O1504 Eu1452 2.335 . S
O1504 C1519 1.264 . S
O1505 Eu1463 2.432 . S
O1505 C1527 1.268 . S
O1506 Eu1463 2.291 . S
O1506 C1526 1.255 . S
O1507 Eu1452 2.372 . S
O1507 C1526 1.257 . S
C1508 O1497 1.249 . S
C1508 O1498 1.264 . S
C1509 C1512 1.382 . S
C1509 C1514 1.390 . S
C1509 C1516 1.506 . S
C1510 C1511 1.398 . S
C1510 C1514 1.392 . S
C1511 C1510 1.398 . S
C1511 C1513 1.372 . S
C1511 H1528 0.931 . S
C1512 C1509 1.382 . S
C1512 C1513 1.390 . S
C1512 H1529 0.931 . S
C1513 C1511 1.372 . S
C1513 C1512 1.390 . S
C1513 H1530 0.929 . S
C1514 C1509 1.390 . S
C1514 C1510 1.392 . S
C1514 H1531 0.930 . S
C1515 O1500 1.255 . S
C1515 O1501 1.257 . S
C1516 Eu1452 2.787 . S
C1516 O1496 1.252 . S
C1516 O1499 1.268 . S
C1516 C1509 1.506 . S
C1517 C1484 1.439 . S
C1517 H1494 0.931 . S
C1517 C1518 1.374 . S
C1518 C1489 1.387 . S
C1518 H1495 0.931 . S
C1518 C1517 1.374 . S
C1519 O1503 1.249 . S
C1519 O1504 1.264 . S
C1520 C1523 1.382 . S
C1520 C1524 1.390 . S
C1520 C1527 1.506 . S
C1521 C1522 1.398 . S
C1521 C1524 1.392 . S
C1522 C1521 1.398 . S
C1522 C1525 1.372 . S
C1522 H1532 0.931 . S
C1523 C1520 1.382 . S
C1523 C1525 1.390 . S
C1523 H1533 0.931 . S
C1524 C1520 1.390 . S
C1524 C1521 1.392 . S
C1524 H1534 0.930 . S
C1525 C1522 1.372 . S
C1525 C1523 1.390 . S
C1525 H1535 0.929 . S
C1526 O1506 1.255 . S
C1526 O1507 1.257 . S
C1527 Eu1463 2.787 . S
C1527 O1502 1.252 . S
C1527 O1505 1.268 . S
C1527 C1520 1.506 . S
H1528 C1511 0.931 . S
H1529 C1512 0.931 . S
H1530 C1513 0.929 . S
H1531 C1514 0.930 . S
H1532 C1522 0.931 . S
H1533 C1523 0.931 . S
H1534 C1524 0.930 . S
H1535 C1525 0.929 . S
Eu1536 N1565 2.600 1_554 S
Eu1536 N1571 2.562 1_554 S
Eu1536 O1580 2.462 . S
Eu1536 O1581 2.373 1_554 S
Eu1536 O1583 2.432 . S
Eu1536 O1584 2.291 . S
Eu1536 O1588 2.335 . S
Eu1536 O1591 2.372 . S
Eu1536 C1600 2.787 . S
C1537 N1538 1.365 . S
C1537 C1540 1.405 . S
C1537 C1544 1.448 . S
N1538 C1537 1.365 . S
N1538 C1541 1.319 . S
N1538 Eu1547 2.600 . S
C1539 C1541 1.397 . S
C1539 C1542 1.367 . S
C1539 H1559 0.931 . S
C1540 C1537 1.405 . S
C1540 C1542 1.403 . S
C1540 C1546 1.439 . S
C1541 N1538 1.319 . S
C1541 C1539 1.397 . S
C1541 H1552 0.930 . S
C1542 C1539 1.367 . S
C1542 C1540 1.403 . S
C1542 H1563 0.929 . S
C1543 C1544 1.430 . S
C1543 C1545 1.387 . S
C1543 C1549 1.404 . S
C1544 C1537 1.448 . S
C1544 C1543 1.430 . S
C1544 N1548 1.351 . S
C1545 C1543 1.387 . S
C1545 C1546 1.374 . S
C1545 H1560 0.931 . S
C1546 C1540 1.439 . S
C1546 C1545 1.374 . S
C1546 H1561 0.931 . S
Eu1547 N1538 2.600 . S
Eu1547 N1548 2.562 . S
Eu1547 O1582 2.335 1_554 S
Eu1547 O1585 2.372 . S
Eu1547 O1586 2.462 . S
Eu1547 O1587 2.373 . S
Eu1547 O1589 2.432 . S
Eu1547 O1590 2.291 . S
Eu1547 C1611 2.787 . S
N1548 C1544 1.351 . S
N1548 Eu1547 2.562 . S
N1548 C1550 1.325 . S
C1549 C1543 1.404 . S
C1549 C1551 1.366 . S
C1549 H1557 0.930 . S
C1550 N1548 1.325 . S
C1550 C1551 1.416 . S
C1550 H1556 0.929 . S
C1551 C1549 1.366 . S
C1551 C1550 1.416 . S
C1551 H1553 0.930 . S
H1552 C1541 0.930 . S
H1553 C1551 0.930 . S
H1554 C1569 0.930 1_554 S
H1555 C1576 0.930 . S
H1556 C1550 0.929 . S
H1557 C1549 0.930 . S
H1558 C1572 0.929 1_554 S
H1559 C1539 0.931 . S
H1560 C1545 0.931 . S
H1561 C1546 0.931 . S
H1562 C1567 0.931 . S
H1563 C1542 0.929 . S
H1564 C1575 0.930 . S
N1565 Eu1536 2.600 1_556 S
N1565 C1566 1.365 . S
N1565 C1569 1.319 . S
C1566 N1565 1.365 . S
C1566 C1568 1.405 . S
C1566 C1574 1.448 . S
C1567 H1562 0.931 . S
C1567 C1569 1.397 . S
C1567 C1570 1.367 . S
C1568 C1566 1.405 . S
C1568 C1570 1.403 . S
C1568 C1601 1.439 . S
C1569 H1554 0.930 1_556 S
C1569 N1565 1.319 . S
C1569 C1567 1.397 . S
C1570 C1567 1.367 . S
C1570 C1568 1.403 . S
C1570 H1577 0.929 . S
N1571 Eu1536 2.562 1_556 S
N1571 C1572 1.325 . S
N1571 C1574 1.351 . S
C1572 H1558 0.929 1_556 S
C1572 N1571 1.325 . S
C1572 C1576 1.416 . S
C1573 C1574 1.430 . S
C1573 C1575 1.404 . S
C1573 C1602 1.387 . S
C1574 C1566 1.448 . S
C1574 N1571 1.351 . S
C1574 C1573 1.430 . S
C1575 H1564 0.930 . S
C1575 C1573 1.404 . S
C1575 C1576 1.366 . S
C1576 H1555 0.930 . S
C1576 C1572 1.416 . S
C1576 C1575 1.366 . S
H1577 C1570 0.929 . S
H1578 C1601 0.931 . S
H1579 C1602 0.931 . S
O1580 Eu1536 2.462 . S
O1580 C1600 1.252 . S
O1581 Eu1536 2.373 1_556 S
O1581 C1592 1.249 . S
O1582 Eu1547 2.335 1_556 S
O1582 C1592 1.264 . S
O1583 Eu1536 2.432 . S
O1583 C1600 1.268 . S
O1584 Eu1536 2.291 . S
O1584 C1599 1.255 . S
O1585 Eu1547 2.372 . S
O1585 C1599 1.257 . S
O1586 Eu1547 2.462 . S
O1586 C1611 1.252 . S
O1587 Eu1547 2.373 . S
O1587 C1603 1.249 . S
O1588 Eu1536 2.335 . S
O1588 C1603 1.264 . S
O1589 Eu1547 2.432 . S
O1589 C1611 1.268 . S
O1590 Eu1547 2.291 . S
O1590 C1610 1.255 . S
O1591 Eu1536 2.372 . S
O1591 C1610 1.257 . S
C1592 O1581 1.249 . S
C1592 O1582 1.264 . S
C1593 C1596 1.382 . S
C1593 C1598 1.390 . S
C1593 C1600 1.506 . S
C1594 C1595 1.398 . S
C1594 C1598 1.392 . S
C1595 C1594 1.398 . S
C1595 C1597 1.372 . S
C1595 H1612 0.931 . S
C1596 C1593 1.382 . S
C1596 C1597 1.390 . S
C1596 H1613 0.931 . S
C1597 C1595 1.372 . S
C1597 C1596 1.390 . S
C1597 H1614 0.929 . S
C1598 C1593 1.390 . S
C1598 C1594 1.392 . S
C1598 H1615 0.930 . S
C1599 O1584 1.255 . S
C1599 O1585 1.257 . S
C1600 Eu1536 2.787 . S
C1600 O1580 1.252 . S
C1600 O1583 1.268 . S
C1600 C1593 1.506 . S
C1601 C1568 1.439 . S
C1601 H1578 0.931 . S
C1601 C1602 1.374 . S
C1602 C1573 1.387 . S
C1602 H1579 0.931 . S
C1602 C1601 1.374 . S
C1603 O1587 1.249 . S
C1603 O1588 1.264 . S
C1604 C1607 1.382 . S
C1604 C1608 1.390 . S
C1604 C1611 1.506 1_556 S
C1605 C1606 1.398 . S
C1605 C1608 1.392 . S
C1606 C1605 1.398 . S
C1606 C1609 1.372 . S
C1606 H1616 0.931 . S
C1607 C1604 1.382 . S
C1607 C1609 1.390 . S
C1607 H1617 0.931 . S
C1608 C1604 1.390 . S
C1608 C1605 1.392 . S
C1608 H1618 0.930 . S
C1609 C1606 1.372 . S
C1609 C1607 1.390 . S
C1609 H1619 0.929 . S
C1610 O1590 1.255 . S
C1610 O1591 1.257 . S
C1611 Eu1547 2.787 . S
C1611 O1586 1.252 . S
C1611 O1589 1.268 . S
C1611 C1604 1.506 1_554 S
H1612 C1595 0.931 . S
H1613 C1596 0.931 . S
H1614 C1597 0.929 . S
H1615 C1598 0.930 . S
H1616 C1606 0.931 . S
H1617 C1607 0.931 . S
H1618 C1608 0.930 . S
H1619 C1609 0.929 . S
Eu1620 N1649 2.600 . S
Eu1620 N1655 2.562 . S
Eu1620 O1664 2.462 . S
Eu1620 O1665 2.373 . S
Eu1620 O1667 2.432 . S
Eu1620 O1668 2.291 . S
Eu1620 O1672 2.335 . S
Eu1620 O1675 2.372 . S
Eu1620 C1684 2.787 . S
C1621 N1622 1.365 . S
C1621 C1624 1.405 . S
C1621 C1628 1.448 . S
N1622 C1621 1.365 . S
N1622 C1625 1.319 . S
N1622 Eu1631 2.600 . S
C1623 C1625 1.397 . S
C1623 C1626 1.367 . S
C1623 H1643 0.931 . S
C1624 C1621 1.405 . S
C1624 C1626 1.403 . S
C1624 C1630 1.439 . S
C1625 N1622 1.319 . S
C1625 C1623 1.397 . S
C1625 H1636 0.930 . S
C1626 C1623 1.367 . S
C1626 C1624 1.403 . S
C1626 H1647 0.929 . S
C1627 C1628 1.430 . S
C1627 C1629 1.387 . S
C1627 C1633 1.404 . S
C1628 C1621 1.448 . S
C1628 C1627 1.430 . S
C1628 N1632 1.351 . S
C1629 C1627 1.387 . S
C1629 C1630 1.374 . S
C1629 H1644 0.931 . S
C1630 C1624 1.439 . S
C1630 C1629 1.374 . S
C1630 H1645 0.931 . S
Eu1631 N1622 2.600 . S
Eu1631 N1632 2.562 . S
Eu1631 O1666 2.335 . S
Eu1631 O1669 2.372 . S
Eu1631 O1670 2.462 . S
Eu1631 O1671 2.373 . S
Eu1631 O1673 2.432 . S
Eu1631 O1674 2.291 . S
Eu1631 C1695 2.787 . S
N1632 C1628 1.351 . S
N1632 Eu1631 2.562 . S
N1632 C1634 1.325 . S
C1633 C1627 1.404 . S
C1633 C1635 1.366 . S
C1633 H1641 0.930 . S
C1634 N1632 1.325 . S
C1634 C1635 1.416 . S
C1634 H1640 0.929 . S
C1635 C1633 1.366 . S
C1635 C1634 1.416 . S
C1635 H1637 0.930 . S
H1636 C1625 0.930 . S
H1637 C1635 0.930 . S
H1638 C1653 0.930 . S
H1639 C1660 0.930 . S
H1640 C1634 0.929 . S
H1641 C1633 0.930 . S
H1642 C1656 0.929 . S
H1643 C1623 0.931 . S
H1644 C1629 0.931 . S
H1645 C1630 0.931 . S
H1646 C1651 0.931 . S
H1647 C1626 0.929 . S
H1648 C1659 0.930 . S
N1649 Eu1620 2.600 . S
N1649 C1650 1.365 . S
N1649 C1653 1.319 . S
C1650 N1649 1.365 . S
C1650 C1652 1.405 . S
C1650 C1658 1.448 . S
C1651 H1646 0.931 . S
C1651 C1653 1.397 . S
C1651 C1654 1.367 . S
C1652 C1650 1.405 . S
C1652 C1654 1.403 . S
C1652 C1685 1.439 . S
C1653 H1638 0.930 . S
C1653 N1649 1.319 . S
C1653 C1651 1.397 . S
C1654 C1651 1.367 . S
C1654 C1652 1.403 . S
C1654 H1661 0.929 . S
N1655 Eu1620 2.562 . S
N1655 C1656 1.325 . S
N1655 C1658 1.351 . S
C1656 H1642 0.929 . S
C1656 N1655 1.325 . S
C1656 C1660 1.416 . S
C1657 C1658 1.430 . S
C1657 C1659 1.404 . S
C1657 C1686 1.387 . S
C1658 C1650 1.448 . S
C1658 N1655 1.351 . S
C1658 C1657 1.430 . S
C1659 H1648 0.930 . S
C1659 C1657 1.404 . S
C1659 C1660 1.366 . S
C1660 H1639 0.930 . S
C1660 C1656 1.416 . S
C1660 C1659 1.366 . S
H1661 C1654 0.929 . S
H1662 C1685 0.931 . S
H1663 C1686 0.931 . S
O1664 Eu1620 2.462 . S
O1664 C1684 1.252 . S
O1665 Eu1620 2.373 . S
O1665 C1676 1.249 . S
O1666 Eu1631 2.335 . S
O1666 C1676 1.264 . S
O1667 Eu1620 2.432 . S
O1667 C1684 1.268 . S
O1668 Eu1620 2.291 . S
O1668 C1683 1.255 . S
O1669 Eu1631 2.372 . S
O1669 C1683 1.257 . S
O1670 Eu1631 2.462 . S
O1670 C1695 1.252 . S
O1671 Eu1631 2.373 . S
O1671 C1687 1.249 . S
O1672 Eu1620 2.335 . S
O1672 C1687 1.264 . S
O1673 Eu1631 2.432 . S
O1673 C1695 1.268 . S
O1674 Eu1631 2.291 . S
O1674 C1694 1.255 . S
O1675 Eu1620 2.372 . S
O1675 C1694 1.257 . S
C1676 O1665 1.249 . S
C1676 O1666 1.264 . S
C1677 C1680 1.382 . S
C1677 C1682 1.390 . S
C1677 C1684 1.506 . S
C1678 C1679 1.398 . S
C1678 C1682 1.392 . S
C1679 C1678 1.398 . S
C1679 C1681 1.372 . S
C1679 H1696 0.931 . S
C1680 C1677 1.382 . S
C1680 C1681 1.390 . S
C1680 H1697 0.931 . S
C1681 C1679 1.372 . S
C1681 C1680 1.390 . S
C1681 H1698 0.929 . S
C1682 C1677 1.390 . S
C1682 C1678 1.392 . S
C1682 H1699 0.930 . S
C1683 O1668 1.255 . S
C1683 O1669 1.257 . S
C1684 Eu1620 2.787 . S
C1684 O1664 1.252 . S
C1684 O1667 1.268 . S
C1684 C1677 1.506 . S
C1685 C1652 1.439 . S
C1685 H1662 0.931 . S
C1685 C1686 1.374 . S
C1686 C1657 1.387 . S
C1686 H1663 0.931 . S
C1686 C1685 1.374 . S
C1687 O1671 1.249 . S
C1687 O1672 1.264 . S
C1688 C1691 1.382 . S
C1688 C1692 1.390 . S
C1688 C1695 1.506 . S
C1689 C1690 1.398 . S
C1689 C1692 1.392 . S
C1690 C1689 1.398 . S
C1690 C1693 1.372 . S
C1690 H1700 0.931 . S
C1691 C1688 1.382 . S
C1691 C1693 1.390 . S
C1691 H1701 0.931 . S
C1692 C1688 1.390 . S
C1692 C1689 1.392 . S
C1692 H1702 0.930 . S
C1693 C1690 1.372 . S
C1693 C1691 1.390 . S
C1693 H1703 0.929 . S
C1694 O1674 1.255 . S
C1694 O1675 1.257 . S
C1695 Eu1631 2.787 . S
C1695 O1670 1.252 . S
C1695 O1673 1.268 . S
C1695 C1688 1.506 . S
H1696 C1679 0.931 . S
H1697 C1680 0.931 . S
H1698 C1681 0.929 . S
H1699 C1682 0.930 . S
H1700 C1690 0.931 . S
H1701 C1691 0.931 . S
H1702 C1692 0.930 . S
H1703 C1693 0.929 . S
Eu1704 N1733 2.601 . S
Eu1704 N1739 2.562 1_455 S
Eu1704 O1748 2.462 . S
Eu1704 O1749 2.373 1_455 S
Eu1704 O1751 2.432 . S
Eu1704 O1752 2.291 . S
Eu1704 O1756 2.335 . S
Eu1704 O1759 2.372 . S
Eu1704 C1768 2.787 . S
C1705 N1706 1.365 . S
C1705 C1708 1.405 . S
C1705 C1712 1.448 . S
N1706 C1705 1.365 . S
N1706 C1709 1.319 . S
N1706 Eu1715 2.600 . S
C1707 C1709 1.397 . S
C1707 C1710 1.367 . S
C1707 H1727 0.931 . S
C1708 C1705 1.405 . S
C1708 C1710 1.403 . S
C1708 C1714 1.439 . S
C1709 N1706 1.319 . S
C1709 C1707 1.397 . S
C1709 H1720 0.930 . S
C1710 C1707 1.367 . S
C1710 C1708 1.403 . S
C1710 H1731 0.929 . S
C1711 C1712 1.430 . S
C1711 C1713 1.387 . S
C1711 C1717 1.404 . S
C1712 C1705 1.448 . S
C1712 C1711 1.430 . S
C1712 N1716 1.351 . S
C1713 C1711 1.387 . S
C1713 C1714 1.374 . S
C1713 H1728 0.931 . S
C1714 C1708 1.439 . S
C1714 C1713 1.374 . S
C1714 H1729 0.931 . S
Eu1715 N1706 2.600 . S
Eu1715 N1716 2.562 . S
Eu1715 O1750 2.308 1_455 S
Eu1715 O1753 2.372 . S
Eu1715 O1754 2.462 . S
Eu1715 O1755 2.373 . S
Eu1715 O1757 2.432 . S
Eu1715 O1758 2.291 . S
Eu1715 C1779 2.787 . S
N1716 C1712 1.351 . S
N1716 Eu1715 2.562 . S
N1716 C1718 1.325 . S
C1717 C1711 1.404 . S
C1717 C1719 1.366 . S
C1717 H1725 0.930 . S
C1718 N1716 1.325 . S
C1718 C1719 1.416 . S
C1718 H1724 0.929 . S
C1719 C1717 1.366 . S
C1719 C1718 1.416 . S
C1719 H1721 0.930 . S
H1720 C1709 0.930 . S
H1721 C1719 0.930 . S
H1722 C1737 0.930 . S
H1723 C1744 0.930 . S
H1724 C1718 0.929 . S
H1725 C1717 0.930 . S
H1726 C1740 0.929 1_455 S
H1727 C1707 0.931 . S
H1728 C1713 0.931 . S
H1729 C1714 0.931 . S
H1730 C1735 0.931 . S
H1731 C1710 0.929 . S
H1732 C1743 0.930 . S
N1733 Eu1704 2.601 . S
N1733 C1734 1.364 1_455 S
N1733 C1737 1.318 . S
C1734 N1733 1.364 1_655 S
C1734 C1736 1.405 . S
C1734 C1742 1.448 . S
C1735 H1730 0.931 . S
C1735 C1737 1.397 1_655 S
C1735 C1738 1.367 . S
C1736 C1734 1.405 . S
C1736 C1738 1.403 . S
C1736 C1769 1.439 . S
C1737 H1722 0.930 . S
C1737 N1733 1.318 . S
C1737 C1735 1.397 1_455 S
C1738 C1735 1.367 . S
C1738 C1736 1.403 . S
C1738 H1745 0.929 . S
N1739 Eu1704 2.562 1_655 S
N1739 C1740 1.325 . S
N1739 C1742 1.351 . S
C1740 H1726 0.929 1_655 S
C1740 N1739 1.325 . S
C1740 C1744 1.416 . S
C1741 C1742 1.430 . S
C1741 C1743 1.404 . S
C1741 C1770 1.387 . S
C1742 C1734 1.448 . S
C1742 N1739 1.351 . S
C1742 C1741 1.430 . S
C1743 H1732 0.930 . S
C1743 C1741 1.404 . S
C1743 C1744 1.366 . S
C1744 H1723 0.930 . S
C1744 C1740 1.416 . S
C1744 C1743 1.366 . S
H1745 C1738 0.929 . S
H1746 C1769 0.931 . S
H1747 C1770 0.931 . S
O1748 Eu1704 2.462 . S
O1748 C1768 1.252 . S
O1749 Eu1704 2.373 1_655 S
O1749 C1760 1.249 . S
O1750 Eu1715 2.308 1_655 S
O1750 C1760 1.280 . S
O1751 Eu1704 2.432 . S
O1751 C1768 1.268 . S
O1752 Eu1704 2.291 . S
O1752 C1767 1.255 . S
O1753 Eu1715 2.372 . S
O1753 C1767 1.257 . S
O1754 Eu1715 2.462 . S
O1754 C1779 1.252 . S
O1755 Eu1715 2.373 . S
O1755 C1771 1.249 . S
O1756 Eu1704 2.335 . S
O1756 C1771 1.264 . S
O1757 Eu1715 2.432 . S
O1757 C1779 1.268 . S
O1758 Eu1715 2.291 . S
O1758 C1778 1.255 . S
O1759 Eu1704 2.372 . S
O1759 C1778 1.257 . S
C1760 O1749 1.249 . S
C1760 O1750 1.280 . S
C1761 C1764 1.382 . S
C1761 C1766 1.390 . S
C1761 C1768 1.506 . S
C1762 C1763 1.398 . S
C1762 C1766 1.392 . S
C1763 C1762 1.398 . S
C1763 C1765 1.372 . S
C1763 H1780 0.931 . S
C1764 C1761 1.382 . S
C1764 C1765 1.390 . S
C1764 H1781 0.931 . S
C1765 C1763 1.372 . S
C1765 C1764 1.390 . S
C1765 H1782 0.929 . S
C1766 C1761 1.390 . S
C1766 C1762 1.392 . S
C1766 H1783 0.930 . S
C1767 O1752 1.255 . S
C1767 O1753 1.257 . S
C1768 Eu1704 2.787 . S
C1768 O1748 1.252 . S
C1768 O1751 1.268 . S
C1768 C1761 1.506 . S
C1769 C1736 1.439 . S
C1769 H1746 0.931 . S
C1769 C1770 1.374 . S
C1770 C1741 1.387 . S
C1770 H1747 0.931 . S
C1770 C1769 1.374 . S
C1771 O1755 1.249 . S
C1771 O1756 1.264 . S
C1772 C1775 1.382 . S
C1772 C1776 1.390 . S
C1772 C1779 1.506 1_655 S
C1773 C1774 1.398 . S
C1773 C1776 1.392 . S
C1774 C1773 1.398 . S
C1774 C1777 1.372 . S
C1774 H1784 0.931 . S
C1775 C1772 1.382 . S
C1775 C1777 1.390 . S
C1775 H1785 0.928 . S
C1776 C1772 1.390 . S
C1776 C1773 1.392 . S
C1776 H1786 0.930 . S
C1777 C1774 1.372 . S
C1777 C1775 1.390 . S
C1777 H1787 0.929 . S
C1778 O1758 1.255 . S
C1778 O1759 1.257 . S
C1779 Eu1715 2.787 . S
C1779 O1754 1.252 . S
C1779 O1757 1.268 . S
C1779 C1772 1.506 1_455 S
H1780 C1763 0.931 . S
H1781 C1764 0.931 . S
H1782 C1765 0.929 . S
H1783 C1766 0.930 . S
H1784 C1774 0.931 . S
H1785 C1775 0.928 . S
H1786 C1776 0.930 . S
H1787 C1777 0.929 . S
Eu1788 N1817 2.600 . S
Eu1788 N1823 2.562 . S
Eu1788 O1832 2.462 . S
Eu1788 O1833 2.373 . S
Eu1788 O1835 2.432 . S
Eu1788 O1836 2.291 . S
Eu1788 O1840 2.335 . S
Eu1788 O1843 2.372 . S
Eu1788 C1852 2.787 . S
C1789 N1790 1.365 . S
C1789 C1792 1.405 . S
C1789 C1796 1.448 . S
N1790 C1789 1.365 . S
N1790 C1793 1.319 . S
N1790 Eu1799 2.600 . S
C1791 C1793 1.397 . S
C1791 C1794 1.367 . S
C1791 H1811 0.931 . S
C1792 C1789 1.405 . S
C1792 C1794 1.403 . S
C1792 C1798 1.439 . S
C1793 N1790 1.319 . S
C1793 C1791 1.397 . S
C1793 H1804 0.930 . S
C1794 C1791 1.367 . S
C1794 C1792 1.403 . S
C1794 H1815 0.929 . S
C1795 C1796 1.430 . S
C1795 C1797 1.387 . S
C1795 C1801 1.404 . S
C1796 C1789 1.448 . S
C1796 C1795 1.430 . S
C1796 N1800 1.351 . S
C1797 C1795 1.387 . S
C1797 C1798 1.374 . S
C1797 H1812 0.931 . S
C1798 C1792 1.439 . S
C1798 C1797 1.374 . S
C1798 H1813 0.931 . S
Eu1799 N1790 2.600 . S
Eu1799 N1800 2.562 . S
Eu1799 O1834 2.335 . S
Eu1799 O1837 2.372 . S
Eu1799 O1838 2.462 . S
Eu1799 O1839 2.373 . S
Eu1799 O1841 2.432 . S
Eu1799 O1842 2.291 . S
Eu1799 C1863 2.787 . S
N1800 C1796 1.351 . S
N1800 Eu1799 2.562 . S
N1800 C1802 1.325 . S
C1801 C1795 1.404 . S
C1801 C1803 1.366 . S
C1801 H1809 0.930 . S
C1802 N1800 1.325 . S
C1802 C1803 1.416 . S
C1802 H1808 0.929 . S
C1803 C1801 1.366 . S
C1803 C1802 1.416 . S
C1803 H1805 0.930 . S
H1804 C1793 0.930 . S
H1805 C1803 0.930 . S
H1806 C1821 0.930 . S
H1807 C1828 0.930 . S
H1808 C1802 0.929 . S
H1809 C1801 0.930 . S
H1810 C1824 0.929 . S
H1811 C1791 0.931 . S
H1812 C1797 0.931 . S
H1813 C1798 0.931 . S
H1814 C1819 0.931 . S
H1815 C1794 0.929 . S
H1816 C1827 0.930 . S
N1817 Eu1788 2.600 . S
N1817 C1818 1.365 . S
N1817 C1821 1.319 . S
C1818 N1817 1.365 . S
C1818 C1820 1.405 . S
C1818 C1826 1.448 . S
C1819 H1814 0.931 . S
C1819 C1821 1.397 . S
C1819 C1822 1.367 . S
C1820 C1818 1.405 . S
C1820 C1822 1.403 . S
C1820 C1853 1.439 . S
C1821 H1806 0.930 . S
C1821 N1817 1.319 . S
C1821 C1819 1.397 . S
C1822 C1819 1.367 . S
C1822 C1820 1.403 . S
C1822 H1829 0.929 . S
N1823 Eu1788 2.562 . S
N1823 C1824 1.325 . S
N1823 C1826 1.351 . S
C1824 H1810 0.929 . S
C1824 N1823 1.325 . S
C1824 C1828 1.416 . S
C1825 C1826 1.430 . S
C1825 C1827 1.404 . S
C1825 C1854 1.387 . S
C1826 C1818 1.448 . S
C1826 N1823 1.351 . S
C1826 C1825 1.430 . S
C1827 H1816 0.930 . S
C1827 C1825 1.404 . S
C1827 C1828 1.366 . S
C1828 H1807 0.930 . S
C1828 C1824 1.416 . S
C1828 C1827 1.366 . S
H1829 C1822 0.929 . S
H1830 C1853 0.931 . S
H1831 C1854 0.931 . S
O1832 Eu1788 2.462 . S
O1832 C1852 1.252 . S
O1833 Eu1788 2.373 . S
O1833 C1844 1.249 . S
O1834 Eu1799 2.335 . S
O1834 C1844 1.264 . S
O1835 Eu1788 2.432 . S
O1835 C1852 1.268 . S
O1836 Eu1788 2.291 . S
O1836 C1851 1.255 . S
O1837 Eu1799 2.372 . S
O1837 C1851 1.257 . S
O1838 Eu1799 2.462 . S
O1838 C1863 1.252 . S
O1839 Eu1799 2.373 . S
O1839 C1855 1.249 . S
O1840 Eu1788 2.335 . S
O1840 C1855 1.264 . S
O1841 Eu1799 2.432 . S
O1841 C1863 1.268 . S
O1842 Eu1799 2.291 . S
O1842 C1862 1.255 . S
O1843 Eu1788 2.372 . S
O1843 C1862 1.257 . S
C1844 O1833 1.249 . S
C1844 O1834 1.264 . S
C1845 C1848 1.382 . S
C1845 C1850 1.390 . S
C1845 C1852 1.506 . S
C1846 C1847 1.398 . S
C1846 C1850 1.392 . S
C1847 C1846 1.398 . S
C1847 C1849 1.372 . S
C1847 H1864 0.931 . S
C1848 C1845 1.382 . S
C1848 C1849 1.390 . S
C1848 H1865 0.931 . S
C1849 C1847 1.372 . S
C1849 C1848 1.390 . S
C1849 H1866 0.929 . S
C1850 C1845 1.390 . S
C1850 C1846 1.392 . S
C1850 H1867 0.930 . S
C1851 O1836 1.255 . S
C1851 O1837 1.257 . S
C1852 Eu1788 2.787 . S
C1852 O1832 1.252 . S
C1852 O1835 1.268 . S
C1852 C1845 1.506 . S
C1853 C1820 1.439 . S
C1853 H1830 0.931 . S
C1853 C1854 1.374 . S
C1854 C1825 1.387 . S
C1854 H1831 0.931 . S
C1854 C1853 1.374 . S
C1855 O1839 1.249 . S
C1855 O1840 1.264 . S
C1856 C1859 1.382 . S
C1856 C1860 1.390 . S
C1856 C1863 1.506 . S
C1857 C1858 1.398 . S
C1857 C1860 1.392 . S
C1858 C1857 1.398 . S
C1858 C1861 1.372 . S
C1858 H1868 0.931 . S
C1859 C1856 1.382 . S
C1859 C1861 1.390 . S
C1859 H1869 0.931 . S
C1860 C1856 1.390 . S
C1860 C1857 1.392 . S
C1860 H1870 0.930 . S
C1861 C1858 1.372 . S
C1861 C1859 1.390 . S
C1861 H1871 0.929 . S
C1862 O1842 1.255 . S
C1862 O1843 1.257 . S
C1863 Eu1799 2.787 . S
C1863 O1838 1.252 . S
C1863 O1841 1.268 . S
C1863 C1856 1.506 . S
H1864 C1847 0.931 . S
H1865 C1848 0.931 . S
H1866 C1849 0.929 . S
H1867 C1850 0.930 . S
H1868 C1858 0.931 . S
H1869 C1859 0.931 . S
H1870 C1860 0.930 . S
H1871 C1861 0.929 . S
Eu1872 N1901 2.600 . S
Eu1872 N1907 2.562 . S
Eu1872 O1916 2.462 . S
Eu1872 O1917 2.373 . S
Eu1872 O1919 2.432 . S
Eu1872 O1920 2.291 . S
Eu1872 O1924 2.335 . S
Eu1872 O1927 2.372 . S
Eu1872 C1936 2.787 . S
C1873 N1874 1.365 . S
C1873 C1876 1.405 . S
C1873 C1880 1.448 . S
N1874 C1873 1.365 . S
N1874 C1877 1.319 . S
N1874 Eu1883 2.600 . S
C1875 C1877 1.397 . S
C1875 C1878 1.367 . S
C1875 H1895 0.931 . S
C1876 C1873 1.405 . S
C1876 C1878 1.403 . S
C1876 C1882 1.439 . S
C1877 N1874 1.319 . S
C1877 C1875 1.397 . S
C1877 H1888 0.930 . S
C1878 C1875 1.367 . S
C1878 C1876 1.403 . S
C1878 H1899 0.929 . S
C1879 C1880 1.430 . S
C1879 C1881 1.387 . S
C1879 C1885 1.404 . S
C1880 C1873 1.448 . S
C1880 C1879 1.430 . S
C1880 N1884 1.351 . S
C1881 C1879 1.387 . S
C1881 C1882 1.374 . S
C1881 H1896 0.931 . S
C1882 C1876 1.439 . S
C1882 C1881 1.374 . S
C1882 H1897 0.931 . S
Eu1883 N1874 2.600 . S
Eu1883 N1884 2.562 . S
Eu1883 O1918 2.335 . S
Eu1883 O1921 2.372 . S
Eu1883 O1922 2.462 . S
Eu1883 O1923 2.373 . S
Eu1883 O1925 2.432 . S
Eu1883 O1926 2.291 . S
Eu1883 C1947 2.787 . S
N1884 C1880 1.351 . S
N1884 Eu1883 2.562 . S
N1884 C1886 1.325 . S
C1885 C1879 1.404 . S
C1885 C1887 1.366 . S
C1885 H1893 0.930 . S
C1886 N1884 1.325 . S
C1886 C1887 1.416 . S
C1886 H1892 0.929 . S
C1887 C1885 1.366 . S
C1887 C1886 1.416 . S
C1887 H1889 0.930 . S
H1888 C1877 0.930 . S
H1889 C1887 0.930 . S
H1890 C1905 0.930 . S
H1891 C1912 0.930 . S
H1892 C1886 0.929 . S
H1893 C1885 0.930 . S
H1894 C1908 0.929 . S
H1895 C1875 0.931 . S
H1896 C1881 0.931 . S
H1897 C1882 0.931 . S
H1898 C1903 0.931 . S
H1899 C1878 0.929 . S
H1900 C1911 0.930 . S
N1901 Eu1872 2.600 . S
N1901 C1902 1.365 . S
N1901 C1905 1.319 . S
C1902 N1901 1.365 . S
C1902 C1904 1.405 . S
C1902 C1910 1.448 . S
C1903 H1898 0.931 . S
C1903 C1905 1.397 . S
C1903 C1906 1.367 . S
C1904 C1902 1.405 . S
C1904 C1906 1.403 . S
C1904 C1937 1.439 . S
C1905 H1890 0.930 . S
C1905 N1901 1.319 . S
C1905 C1903 1.397 . S
C1906 C1903 1.367 . S
C1906 C1904 1.403 . S
C1906 H1913 0.929 . S
N1907 Eu1872 2.562 . S
N1907 C1908 1.325 . S
N1907 C1910 1.351 . S
C1908 H1894 0.929 . S
C1908 N1907 1.325 . S
C1908 C1912 1.416 . S
C1909 C1910 1.430 . S
C1909 C1911 1.404 . S
C1909 C1938 1.387 . S
C1910 C1902 1.448 . S
C1910 N1907 1.351 . S
C1910 C1909 1.430 . S
C1911 H1900 0.930 . S
C1911 C1909 1.404 . S
C1911 C1912 1.366 . S
C1912 H1891 0.930 . S
C1912 C1908 1.416 . S
C1912 C1911 1.366 . S
H1913 C1906 0.929 . S
H1914 C1937 0.931 . S
H1915 C1938 0.931 . S
O1916 Eu1872 2.462 . S
O1916 C1936 1.252 . S
O1917 Eu1872 2.373 . S
O1917 C1928 1.249 . S
O1918 Eu1883 2.335 . S
O1918 C1928 1.264 . S
O1919 Eu1872 2.432 . S
O1919 C1936 1.268 . S
O1920 Eu1872 2.291 . S
O1920 C1935 1.255 . S
O1921 Eu1883 2.372 . S
O1921 C1935 1.257 . S
O1922 Eu1883 2.462 . S
O1922 C1947 1.252 . S
O1923 Eu1883 2.373 . S
O1923 C1939 1.249 . S
O1924 Eu1872 2.335 . S
O1924 C1939 1.264 . S
O1925 Eu1883 2.432 . S
O1925 C1947 1.268 . S
O1926 Eu1883 2.291 . S
O1926 C1946 1.255 . S
O1927 Eu1872 2.372 . S
O1927 C1946 1.257 . S
C1928 O1917 1.249 . S
C1928 O1918 1.264 . S
C1929 C1932 1.382 . S
C1929 C1934 1.390 . S
C1929 C1936 1.506 . S
C1930 C1931 1.398 . S
C1930 C1934 1.392 . S
C1931 C1930 1.398 . S
C1931 C1933 1.372 . S
C1931 H1948 0.931 . S
C1932 C1929 1.382 . S
C1932 C1933 1.390 . S
C1932 H1949 0.931 . S
C1933 C1931 1.372 . S
C1933 C1932 1.390 . S
C1933 H1950 0.929 . S
C1934 C1929 1.390 . S
C1934 C1930 1.392 . S
C1934 H1951 0.930 . S
C1935 O1920 1.255 . S
C1935 O1921 1.257 . S
C1936 Eu1872 2.787 . S
C1936 O1916 1.252 . S
C1936 O1919 1.268 . S
C1936 C1929 1.506 . S
C1937 C1904 1.439 . S
C1937 H1914 0.931 . S
C1937 C1938 1.374 . S
C1938 C1909 1.387 . S
C1938 H1915 0.931 . S
C1938 C1937 1.374 . S
C1939 O1923 1.249 . S
C1939 O1924 1.264 . S
C1940 C1943 1.382 . S
C1940 C1944 1.390 . S
C1940 C1947 1.506 . S
C1941 C1942 1.398 . S
C1941 C1944 1.392 . S
C1942 C1941 1.398 . S
C1942 C1945 1.372 . S
C1942 H1952 0.931 . S
C1943 C1940 1.382 . S
C1943 C1945 1.390 . S
C1943 H1953 0.931 . S
C1944 C1940 1.390 . S
C1944 C1941 1.392 . S
C1944 H1954 0.930 . S
C1945 C1942 1.372 . S
C1945 C1943 1.390 . S
C1945 H1955 0.929 . S
C1946 O1926 1.255 . S
C1946 O1927 1.257 . S
C1947 Eu1883 2.787 . S
C1947 O1922 1.252 . S
C1947 O1925 1.268 . S
C1947 C1940 1.506 . S
H1948 C1931 0.931 . S
H1949 C1932 0.931 . S
H1950 C1933 0.929 . S
H1951 C1934 0.930 . S
H1952 C1942 0.931 . S
H1953 C1943 0.931 . S
H1954 C1944 0.930 . S
H1955 C1945 0.929 . S
Eu1956 N1985 2.600 . S
Eu1956 N1991 2.562 . S
Eu1956 O2000 2.462 . S
Eu1956 O2001 2.373 . S
Eu1956 O2003 2.432 . S
Eu1956 O2004 2.291 . S
Eu1956 O2008 2.335 . S
Eu1956 O2011 2.372 . S
Eu1956 C2020 2.787 . S
C1957 N1958 1.365 . S
C1957 C1960 1.405 . S
C1957 C1964 1.448 . S
N1958 C1957 1.365 . S
N1958 C1961 1.319 . S
N1958 Eu1967 2.600 . S
C1959 C1961 1.397 . S
C1959 C1962 1.367 . S
C1959 H1979 0.931 . S
C1960 C1957 1.405 . S
C1960 C1962 1.403 . S
C1960 C1966 1.439 . S
C1961 N1958 1.319 . S
C1961 C1959 1.397 . S
C1961 H1972 0.930 . S
C1962 C1959 1.367 . S
C1962 C1960 1.403 . S
C1962 H1983 0.929 . S
C1963 C1964 1.430 . S
C1963 C1965 1.387 . S
C1963 C1969 1.404 . S
C1964 C1957 1.448 . S
C1964 C1963 1.430 . S
C1964 N1968 1.351 . S
C1965 C1963 1.387 . S
C1965 C1966 1.374 . S
C1965 H1980 0.931 . S
C1966 C1960 1.439 . S
C1966 C1965 1.374 . S
C1966 H1981 0.931 . S
Eu1967 N1958 2.600 . S
Eu1967 N1968 2.562 . S
Eu1967 O2002 2.335 . S
Eu1967 O2005 2.372 . S
Eu1967 O2006 2.462 . S
Eu1967 O2007 2.373 . S
Eu1967 O2009 2.432 . S
Eu1967 O2010 2.291 . S
Eu1967 C2031 2.787 . S
N1968 C1964 1.351 . S
N1968 Eu1967 2.562 . S
N1968 C1970 1.325 . S
C1969 C1963 1.404 . S
C1969 C1971 1.366 . S
C1969 H1977 0.930 . S
C1970 N1968 1.325 . S
C1970 C1971 1.416 . S
C1970 H1976 0.929 . S
C1971 C1969 1.366 . S
C1971 C1970 1.416 . S
C1971 H1973 0.930 . S
H1972 C1961 0.930 . S
H1973 C1971 0.930 . S
H1974 C1989 0.930 . S
H1975 C1996 0.930 . S
H1976 C1970 0.929 . S
H1977 C1969 0.930 . S
H1978 C1992 0.929 . S
H1979 C1959 0.931 . S
H1980 C1965 0.931 . S
H1981 C1966 0.931 . S
H1982 C1987 0.931 . S
H1983 C1962 0.929 . S
H1984 C1995 0.930 . S
N1985 Eu1956 2.600 . S
N1985 C1986 1.365 . S
N1985 C1989 1.319 . S
C1986 N1985 1.365 . S
C1986 C1988 1.405 . S
C1986 C1994 1.448 . S
C1987 H1982 0.931 . S
C1987 C1989 1.397 . S
C1987 C1990 1.367 . S
C1988 C1986 1.405 . S
C1988 C1990 1.403 . S
C1988 C2021 1.439 . S
C1989 H1974 0.930 . S
C1989 N1985 1.319 . S
C1989 C1987 1.397 . S
C1990 C1987 1.367 . S
C1990 C1988 1.403 . S
C1990 H1997 0.929 . S
N1991 Eu1956 2.562 . S
N1991 C1992 1.325 . S
N1991 C1994 1.351 . S
C1992 H1978 0.929 . S
C1992 N1991 1.325 . S
C1992 C1996 1.416 . S
C1993 C1994 1.430 . S
C1993 C1995 1.404 . S
C1993 C2022 1.387 . S
C1994 C1986 1.448 . S
C1994 N1991 1.351 . S
C1994 C1993 1.430 . S
C1995 H1984 0.930 . S
C1995 C1993 1.404 . S
C1995 C1996 1.366 . S
C1996 H1975 0.930 . S
C1996 C1992 1.416 . S
C1996 C1995 1.366 . S
H1997 C1990 0.929 . S
H1998 C2021 0.931 . S
H1999 C2022 0.931 . S
O2000 Eu1956 2.462 . S
O2000 C2020 1.252 . S
O2001 Eu1956 2.373 . S
O2001 C2012 1.249 . S
O2002 Eu1967 2.335 . S
O2002 C2012 1.264 . S
O2003 Eu1956 2.432 . S
O2003 C2020 1.268 . S
O2004 Eu1956 2.291 . S
O2004 C2019 1.255 . S
O2005 Eu1967 2.372 . S
O2005 C2019 1.257 . S
O2006 Eu1967 2.462 . S
O2006 C2031 1.252 . S
O2007 Eu1967 2.373 . S
O2007 C2023 1.249 . S
O2008 Eu1956 2.335 . S
O2008 C2023 1.264 . S
O2009 Eu1967 2.432 . S
O2009 C2031 1.268 . S
O2010 Eu1967 2.291 . S
O2010 C2030 1.255 . S
O2011 Eu1956 2.372 . S
O2011 C2030 1.257 . S
C2012 O2001 1.249 . S
C2012 O2002 1.264 . S
C2013 C2016 1.382 . S
C2013 C2018 1.390 . S
C2013 C2020 1.506 . S
C2014 C2015 1.398 . S
C2014 C2018 1.392 . S
C2015 C2014 1.398 . S
C2015 C2017 1.372 . S
C2015 H2032 0.931 . S
C2016 C2013 1.382 . S
C2016 C2017 1.390 . S
C2016 H2033 0.931 . S
C2017 C2015 1.372 . S
C2017 C2016 1.390 . S
C2017 H2034 0.929 . S
C2018 C2013 1.390 . S
C2018 C2014 1.392 . S
C2018 H2035 0.930 . S
C2019 O2004 1.255 . S
C2019 O2005 1.257 . S
C2020 Eu1956 2.787 . S
C2020 O2000 1.252 . S
C2020 O2003 1.268 . S
C2020 C2013 1.506 . S
C2021 C1988 1.439 . S
C2021 H1998 0.931 . S
C2021 C2022 1.374 . S
C2022 C1993 1.387 . S
C2022 H1999 0.931 . S
C2022 C2021 1.374 . S
C2023 O2007 1.249 . S
C2023 O2008 1.264 . S
C2024 C2027 1.382 . S
C2024 C2028 1.390 . S
C2024 C2031 1.506 . S
C2025 C2026 1.398 . S
C2025 C2028 1.392 . S
C2026 C2025 1.398 . S
C2026 C2029 1.372 . S
C2026 H2036 0.931 . S
C2027 C2024 1.382 . S
C2027 C2029 1.390 . S
C2027 H2037 0.931 . S
C2028 C2024 1.390 . S
C2028 C2025 1.392 . S
C2028 H2038 0.930 . S
C2029 C2026 1.372 . S
C2029 C2027 1.390 . S
C2029 H2039 0.929 . S
C2030 O2010 1.255 . S
C2030 O2011 1.257 . S
C2031 Eu1967 2.787 . S
C2031 O2006 1.252 . S
C2031 O2009 1.268 . S
C2031 C2024 1.506 . S
H2032 C2015 0.931 . S
H2033 C2016 0.931 . S
H2034 C2017 0.929 . S
H2035 C2018 0.930 . S
H2036 C2026 0.931 . S
H2037 C2027 0.931 . S
H2038 C2028 0.930 . S
H2039 C2029 0.929 . S
Eu2040 N2069 2.600 . S
Eu2040 N2075 2.562 . S
Eu2040 O2084 2.462 . S
Eu2040 O2085 2.373 . S
Eu2040 O2087 2.432 . S
Eu2040 O2088 2.291 . S
Eu2040 O2092 2.335 . S
Eu2040 O2095 2.372 . S
Eu2040 C2104 2.787 . S
C2041 N2042 1.365 . S
C2041 C2044 1.405 . S
C2041 C2048 1.448 . S
N2042 C2041 1.365 . S
N2042 C2045 1.319 . S
N2042 Eu2051 2.600 . S
C2043 C2045 1.397 . S
C2043 C2046 1.367 . S
C2043 H2063 0.931 . S
C2044 C2041 1.405 . S
C2044 C2046 1.403 . S
C2044 C2050 1.439 . S
C2045 N2042 1.319 . S
C2045 C2043 1.397 . S
C2045 H2056 0.930 . S
C2046 C2043 1.367 . S
C2046 C2044 1.403 . S
C2046 H2067 0.929 . S
C2047 C2048 1.430 . S
C2047 C2049 1.387 . S
C2047 C2053 1.404 . S
C2048 C2041 1.448 . S
C2048 C2047 1.430 . S
C2048 N2052 1.351 . S
C2049 C2047 1.387 . S
C2049 C2050 1.374 . S
C2049 H2064 0.931 . S
C2050 C2044 1.439 . S
C2050 C2049 1.374 . S
C2050 H2065 0.931 . S
Eu2051 N2042 2.600 . S
Eu2051 N2052 2.562 . S
Eu2051 O2086 2.335 . S
Eu2051 O2089 2.372 . S
Eu2051 O2090 2.462 . S
Eu2051 O2091 2.373 . S
Eu2051 O2093 2.432 . S
Eu2051 O2094 2.291 . S
Eu2051 C2115 2.787 . S
N2052 C2048 1.351 . S
N2052 Eu2051 2.562 . S
N2052 C2054 1.325 . S
C2053 C2047 1.404 . S
C2053 C2055 1.366 . S
C2053 H2061 0.930 . S
C2054 N2052 1.325 . S
C2054 C2055 1.416 . S
C2054 H2060 0.929 . S
C2055 C2053 1.366 . S
C2055 C2054 1.416 . S
C2055 H2057 0.930 . S
H2056 C2045 0.930 . S
H2057 C2055 0.930 . S
H2058 C2073 0.930 . S
H2059 C2080 0.930 . S
H2060 C2054 0.929 . S
H2061 C2053 0.930 . S
H2062 C2076 0.929 . S
H2063 C2043 0.931 . S
H2064 C2049 0.931 . S
H2065 C2050 0.931 . S
H2066 C2071 0.931 . S
H2067 C2046 0.929 . S
H2068 C2079 0.930 . S
N2069 Eu2040 2.600 . S
N2069 C2070 1.365 . S
N2069 C2073 1.319 . S
C2070 N2069 1.365 . S
C2070 C2072 1.405 . S
C2070 C2078 1.448 . S
C2071 H2066 0.931 . S
C2071 C2073 1.397 . S
C2071 C2074 1.367 . S
C2072 C2070 1.405 . S
C2072 C2074 1.403 . S
C2072 C2105 1.439 . S
C2073 H2058 0.930 . S
C2073 N2069 1.319 . S
C2073 C2071 1.397 . S
C2074 C2071 1.367 . S
C2074 C2072 1.403 . S
C2074 H2081 0.929 . S
N2075 Eu2040 2.562 . S
N2075 C2076 1.325 . S
N2075 C2078 1.351 . S
C2076 H2062 0.929 . S
C2076 N2075 1.325 . S
C2076 C2080 1.416 . S
C2077 C2078 1.430 . S
C2077 C2079 1.404 . S
C2077 C2106 1.387 . S
C2078 C2070 1.448 . S
C2078 N2075 1.351 . S
C2078 C2077 1.430 . S
C2079 H2068 0.930 . S
C2079 C2077 1.404 . S
C2079 C2080 1.366 . S
C2080 H2059 0.930 . S
C2080 C2076 1.416 . S
C2080 C2079 1.366 . S
H2081 C2074 0.929 . S
H2082 C2105 0.931 . S
H2083 C2106 0.931 . S
O2084 Eu2040 2.462 . S
O2084 C2104 1.252 . S
O2085 Eu2040 2.373 . S
O2085 C2096 1.249 . S
O2086 Eu2051 2.335 . S
O2086 C2096 1.264 . S
O2087 Eu2040 2.432 . S
O2087 C2104 1.268 . S
O2088 Eu2040 2.291 . S
O2088 C2103 1.255 . S
O2089 Eu2051 2.372 . S
O2089 C2103 1.257 . S
O2090 Eu2051 2.462 . S
O2090 C2115 1.252 . S
O2091 Eu2051 2.373 . S
O2091 C2107 1.249 . S
O2092 Eu2040 2.335 . S
O2092 C2107 1.264 . S
O2093 Eu2051 2.432 . S
O2093 C2115 1.268 . S
O2094 Eu2051 2.291 . S
O2094 C2114 1.255 . S
O2095 Eu2040 2.372 . S
O2095 C2114 1.257 . S
C2096 O2085 1.249 . S
C2096 O2086 1.264 . S
C2097 C2100 1.382 . S
C2097 C2102 1.390 . S
C2097 C2104 1.506 . S
C2098 C2099 1.398 . S
C2098 C2102 1.392 . S
C2099 C2098 1.398 . S
C2099 C2101 1.372 . S
C2099 H2116 0.931 . S
C2100 C2097 1.382 . S
C2100 C2101 1.390 . S
C2100 H2117 0.931 . S
C2101 C2099 1.372 . S
C2101 C2100 1.390 . S
C2101 H2118 0.929 . S
C2102 C2097 1.390 . S
C2102 C2098 1.392 . S
C2102 H2119 0.930 . S
C2103 O2088 1.255 . S
C2103 O2089 1.257 . S
C2104 Eu2040 2.787 . S
C2104 O2084 1.252 . S
C2104 O2087 1.268 . S
C2104 C2097 1.506 . S
C2105 C2072 1.439 . S
C2105 H2082 0.931 . S
C2105 C2106 1.374 . S
C2106 C2077 1.387 . S
C2106 H2083 0.931 . S
C2106 C2105 1.374 . S
C2107 O2091 1.249 . S
C2107 O2092 1.264 . S
C2108 C2111 1.382 . S
C2108 C2112 1.390 . S
C2108 C2115 1.506 . S
C2109 C2110 1.398 . S
C2109 C2112 1.392 . S
C2110 C2109 1.398 . S
C2110 C2113 1.372 . S
C2110 H2120 0.931 . S
C2111 C2108 1.382 . S
C2111 C2113 1.390 . S
C2111 H2121 0.931 . S
C2112 C2108 1.390 . S
C2112 C2109 1.392 . S
C2112 H2122 0.930 . S
C2113 C2110 1.372 . S
C2113 C2111 1.390 . S
C2113 H2123 0.929 . S
C2114 O2094 1.255 . S
C2114 O2095 1.257 . S
C2115 Eu2051 2.787 . S
C2115 O2090 1.252 . S
C2115 O2093 1.268 . S
C2115 C2108 1.506 . S
H2116 C2099 0.931 . S
H2117 C2100 0.931 . S
H2118 C2101 0.929 . S
H2119 C2102 0.930 . S
H2120 C2110 0.931 . S
H2121 C2111 0.931 . S
H2122 C2112 0.930 . S
H2123 C2113 0.929 . S
Eu2124 N2153 2.586 1_455 S
Eu2124 N2159 2.529 1_455 S
Eu2124 O2168 2.418 1_455 S
Eu2124 O2169 2.402 . S
Eu2124 O2171 2.395 1_455 S
Eu2124 O2172 2.302 . S
Eu2124 O2176 2.351 . S
Eu2124 O2179 2.408 . S
Eu2124 C2188 2.741 1_455 S
C2125 N2126 1.365 . S
C2125 C2128 1.405 . S
C2125 C2132 1.448 1_556 S
N2126 C2125 1.365 . S
N2126 C2129 1.319 . S
N2126 Eu2135 2.600 1_556 S
C2127 C2129 1.397 . S
C2127 C2130 1.367 . S
C2127 H2147 0.931 . S
C2128 C2125 1.405 . S
C2128 C2130 1.403 . S
C2128 C2134 1.439 . S
C2129 N2126 1.319 . S
C2129 C2127 1.397 . S
C2129 H2140 0.930 . S
C2130 C2127 1.367 . S
C2130 C2128 1.403 . S
C2130 H2151 0.929 . S
C2131 C2132 1.430 . S
C2131 C2133 1.387 . S
C2131 C2137 1.404 . S
C2132 C2125 1.448 1_554 S
C2132 C2131 1.430 . S
C2132 N2136 1.351 . S
C2133 C2131 1.387 . S
C2133 C2134 1.374 1_554 S
C2133 H2148 0.931 . S
C2134 C2128 1.439 . S
C2134 C2133 1.374 1_556 S
C2134 H2149 0.931 . S
Eu2135 N2126 2.600 1_554 S
Eu2135 N2136 2.562 . S
Eu2135 O2170 2.335 . S
Eu2135 O2173 2.372 1_554 S
Eu2135 O2174 2.462 . S
Eu2135 O2175 2.373 . S
Eu2135 O2177 2.432 1_554 S
Eu2135 O2178 2.291 . S
Eu2135 C2199 2.787 . S
N2136 C2132 1.351 . S
N2136 Eu2135 2.562 . S
N2136 C2138 1.325 . S
C2137 C2131 1.404 . S
C2137 C2139 1.366 . S
C2137 H2145 0.930 . S
C2138 N2136 1.325 . S
C2138 C2139 1.416 . S
C2138 H2144 0.929 . S
C2139 C2137 1.366 . S
C2139 C2138 1.416 . S
C2139 H2141 0.930 . S
H2140 C2129 0.930 . S
H2141 C2139 0.930 . S
H2142 C2157 0.930 1_455 S
H2143 C2164 0.930 . S
H2144 C2138 0.929 . S
H2145 C2137 0.930 . S
H2146 C2160 0.929 1_556 S
H2147 C2127 0.931 . S
H2148 C2133 0.931 . S
H2149 C2134 0.931 . S
H2150 C2155 0.931 . S
H2151 C2130 0.929 . S
H2152 C2163 0.930 . S
N2153 Eu2124 2.586 1_655 S
N2153 C2154 1.365 . S
N2153 C2157 1.319 . S
C2154 N2153 1.365 . S
C2154 C2156 1.405 . S
C2154 C2162 1.448 . S
C2155 H2150 0.931 . S
C2155 C2157 1.397 . S
C2155 C2158 1.367 . S
C2156 C2154 1.405 . S
C2156 C2158 1.403 . S
C2156 C2189 1.439 . S
C2157 H2142 0.930 1_655 S
C2157 N2153 1.319 . S
C2157 C2155 1.397 . S
C2158 C2155 1.367 . S
C2158 C2156 1.403 . S
C2158 H2165 0.929 . S
N2159 Eu2124 2.529 1_655 S
N2159 C2160 1.325 . S
N2159 C2162 1.351 . S
C2160 H2146 0.929 1_554 S
C2160 N2159 1.325 . S
C2160 C2164 1.416 1_554 S
C2161 C2162 1.430 . S
C2161 C2163 1.404 . S
C2161 C2190 1.387 . S
C2162 C2154 1.448 . S
C2162 N2159 1.351 . S
C2162 C2161 1.430 . S
C2163 H2152 0.930 . S
C2163 C2161 1.404 . S
C2163 C2164 1.366 1_554 S
C2164 H2143 0.930 . S
C2164 C2160 1.416 1_556 S
C2164 C2163 1.366 1_556 S
H2165 C2158 0.929 . S
H2166 C2189 0.931 . S
H2167 C2190 0.931 . S
O2168 Eu2124 2.418 1_655 S
O2168 C2188 1.252 . S
O2169 Eu2124 2.402 . S
O2169 C2180 1.249 . S
O2170 Eu2135 2.335 . S
O2170 C2180 1.264 . S
O2171 Eu2124 2.395 1_655 S
O2171 C2188 1.268 . S
O2172 Eu2124 2.302 . S
O2172 C2187 1.255 1_554 S
O2173 Eu2135 2.372 1_556 S
O2173 C2187 1.257 . S
O2174 Eu2135 2.462 . S
O2174 C2199 1.252 . S
O2175 Eu2135 2.373 . S
O2175 C2191 1.249 . S
O2176 Eu2124 2.351 . S
O2176 C2191 1.264 . S
O2177 Eu2135 2.432 1_556 S
O2177 C2199 1.268 1_556 S
O2178 Eu2135 2.291 . S
O2178 C2198 1.255 . S
O2179 Eu2124 2.408 . S
O2179 C2198 1.257 . S
C2180 O2169 1.249 . S
C2180 O2170 1.264 . S
C2181 C2184 1.382 . S
C2181 C2186 1.390 . S
C2181 C2188 1.506 . S
C2182 C2183 1.398 . S
C2182 C2186 1.392 . S
C2183 C2182 1.398 . S
C2183 C2185 1.372 . S
C2183 H2200 0.931 . S
C2184 C2181 1.382 . S
C2184 C2185 1.390 . S
C2184 H2201 0.931 . S
C2185 C2183 1.372 . S
C2185 C2184 1.390 . S
C2185 H2202 0.929 . S
C2186 C2181 1.390 . S
C2186 C2182 1.392 . S
C2186 H2203 0.930 . S
C2187 O2172 1.255 1_556 S
C2187 O2173 1.257 . S
C2188 Eu2124 2.741 1_655 S
C2188 O2168 1.252 . S
C2188 O2171 1.268 . S
C2188 C2181 1.506 . S
C2189 C2156 1.439 . S
C2189 H2166 0.931 . S
C2189 C2190 1.374 . S
C2190 C2161 1.387 . S
C2190 H2167 0.931 . S
C2190 C2189 1.374 . S
C2191 O2175 1.249 . S
C2191 O2176 1.264 . S
C2192 C2195 1.382 . S
C2192 C2196 1.390 1_556 S
C2192 C2199 1.506 1_556 S
C2193 C2194 1.398 1_554 S
C2193 C2196 1.392 . S
C2194 C2193 1.398 1_556 S
C2194 C2197 1.372 . S
C2194 H2204 0.931 . S
C2195 C2192 1.382 . S
C2195 C2197 1.390 . S
C2195 H2205 0.931 . S
C2196 C2192 1.390 1_554 S
C2196 C2193 1.392 . S
C2196 H2206 0.930 . S
C2197 C2194 1.372 . S
C2197 C2195 1.390 . S
C2197 H2207 0.929 . S
C2198 O2178 1.255 . S
C2198 O2179 1.257 . S
C2199 Eu2135 2.787 . S
C2199 O2174 1.252 . S
C2199 O2177 1.268 1_554 S
C2199 C2192 1.506 1_554 S
H2200 C2183 0.931 . S
H2201 C2184 0.931 . S
H2202 C2185 0.929 . S
H2203 C2186 0.930 . S
H2204 C2194 0.931 . S
H2205 C2195 0.931 . S
H2206 C2196 0.930 . S
H2207 C2197 0.929 . S
H2208 C2216 0.929 . S
H2209 C2218 0.930 . S
H2210 C2220 0.930 . S
H2211 C2223 0.929 . S
H2212 C2226 0.930 . S
H2213 C2228 0.960 . S
H2214 C2228 0.960 . S
H2215 C2228 0.960 1_455 S
C2216 H2208 0.929 . S
C2216 C2217 1.377 . S
C2216 C2218 1.384 . S
C2217 C2216 1.377 . S
C2217 C2223 1.390 1_655 S
C2218 H2209 0.930 . S
C2218 C2216 1.384 . S
C2218 C2219 1.372 1_655 S
C2219 C2218 1.372 1_455 S
C2219 C2220 1.400 . S
C2219 C2224 1.490 . S
C2220 H2210 0.930 . S
C2220 C2219 1.400 . S
C2220 C2223 1.386 . S
H2221 C2237 0.930 . S
H2222 C2238 0.931 . S
C2223 H2211 0.929 . S
C2223 C2217 1.390 1_455 S
C2223 C2220 1.386 . S
C2224 C2219 1.490 . S
C2224 C2226 1.395 . S
C2224 C2227 1.403 . S
H2225 C2231 0.930 1_554 S
C2226 H2212 0.930 . S
C2226 C2224 1.395 . S
C2226 C2229 1.403 . S
C2227 C2224 1.403 . S
C2227 C2228 1.524 1_456 S
C2227 C2231 1.400 . S
C2228 H2213 0.960 . S
C2228 H2214 0.960 . S
C2228 H2215 0.960 1_655 S
C2228 C2227 1.524 1_654 S
C2229 C2226 1.403 . S
C2229 C2230 1.392 . S
C2229 C2233 1.495 . S
C2230 C2229 1.392 . S
C2230 C2231 1.385 . S
C2230 C2232 1.478 . S
C2231 H2225 0.930 1_556 S
C2231 C2227 1.400 . S
C2231 C2230 1.385 . S
C2232 C2230 1.478 . S
C2232 C2234 1.395 . S
C2232 C2238 1.383 1_556 S
C2233 C2229 1.495 . S
C2233 H2239 0.959 . S
C2233 H2240 0.961 . S
C2233 H2241 0.960 . S
C2234 C2232 1.395 . S
C2234 C2235 1.401 . S
C2234 H2242 0.909 1_455 S
C2235 C2234 1.401 . S
C2235 C2236 1.383 1_556 S
C2235 H2243 0.929 1_455 S
C2236 C2235 1.383 1_554 S
C2236 C2237 1.377 . S
C2237 H2221 0.930 . S
C2237 C2236 1.377 . S
C2237 C2238 1.379 . S
C2238 H2222 0.931 . S
C2238 C2232 1.383 1_554 S
C2238 C2237 1.379 . S
H2239 C2233 0.959 . S
H2240 C2233 0.961 . S
H2241 C2233 0.960 . S
H2242 C2234 0.909 1_655 S
H2243 C2235 0.929 1_655 S
H2244 C2252 0.929 . S
H2245 C2254 0.930 . S
H2246 C2256 0.930 . S
H2247 C2259 0.929 . S
H2248 C2262 0.930 . S
H2249 C2264 0.960 . S
H2250 C2264 0.960 . S
H2251 C2264 0.960 . S
C2252 H2244 0.929 . S
C2252 C2253 1.377 . S
C2252 C2254 1.384 . S
C2253 C2252 1.377 . S
C2253 C2259 1.390 . S
C2254 H2245 0.930 . S
C2254 C2252 1.384 . S
C2254 C2255 1.372 . S
C2255 C2254 1.372 . S
C2255 C2256 1.400 . S
C2255 C2260 1.490 . S
C2256 H2246 0.930 . S
C2256 C2255 1.400 . S
C2256 C2259 1.386 . S
H2257 C2273 0.930 . S
H2258 C2274 0.931 . S
C2259 H2247 0.929 . S
C2259 C2253 1.390 . S
C2259 C2256 1.386 . S
C2260 C2255 1.490 . S
C2260 C2262 1.395 . S
C2260 C2263 1.403 . S
H2261 C2267 0.930 . S
C2262 H2248 0.930 . S
C2262 C2260 1.395 . S
C2262 C2265 1.403 . S
C2263 C2260 1.403 . S
C2263 C2264 1.524 . S
C2263 C2267 1.400 . S
C2264 H2249 0.960 . S
C2264 H2250 0.960 . S
C2264 H2251 0.960 . S
C2264 C2263 1.524 . S
C2265 C2262 1.403 . S
C2265 C2266 1.392 . S
C2265 C2269 1.495 . S
C2266 C2265 1.392 . S
C2266 C2267 1.385 . S
C2266 C2268 1.478 . S
C2267 H2261 0.930 . S
C2267 C2263 1.400 . S
C2267 C2266 1.385 . S
C2268 C2266 1.478 . S
C2268 C2270 1.381 . S
C2268 C2274 1.383 . S
C2269 C2265 1.495 . S
C2269 H2275 0.959 . S
C2269 H2276 0.961 . S
C2269 H2277 0.960 . S
C2270 C2268 1.381 . S
C2270 C2271 1.394 . S
C2270 H2278 0.930 . S
C2271 C2270 1.394 . S
C2271 C2272 1.383 . S
C2271 H2279 0.929 . S
C2272 C2271 1.383 . S
C2272 C2273 1.377 . S
C2273 H2257 0.930 . S
C2273 C2272 1.377 . S
C2273 C2274 1.379 . S
C2274 H2258 0.931 . S
C2274 C2268 1.383 . S
C2274 C2273 1.379 . S
H2275 C2269 0.959 . S
H2276 C2269 0.961 . S
H2277 C2269 0.960 . S
H2278 C2270 0.930 . S
H2279 C2271 0.929 . S
H2280 C2288 0.929 . S
H2281 C2290 0.930 . S
H2282 C2292 0.930 . S
H2283 C2295 0.929 . S
H2284 C2298 0.930 . S
H2285 C2300 0.960 . S
H2286 C2300 0.960 . S
H2287 C2300 0.960 . S
C2288 H2280 0.929 . S
C2288 C2289 1.377 . S
C2288 C2290 1.384 . S
C2289 C2288 1.377 . S
C2289 C2295 1.390 . S
C2290 H2281 0.930 . S
C2290 C2288 1.384 . S
C2290 C2291 1.372 . S
C2291 C2290 1.372 . S
C2291 C2292 1.400 . S
C2291 C2296 1.490 . S
C2292 H2282 0.930 . S
C2292 C2291 1.400 . S
C2292 C2295 1.386 . S
H2293 C2309 0.930 . S
H2294 C2310 0.931 . S
C2295 H2283 0.929 . S
C2295 C2289 1.390 . S
C2295 C2292 1.386 . S
C2296 C2291 1.490 . S
C2296 C2298 1.395 . S
C2296 C2299 1.403 . S
H2297 C2303 0.930 . S
C2298 H2284 0.930 . S
C2298 C2296 1.395 . S
C2298 C2301 1.403 . S
C2299 C2296 1.403 . S
C2299 C2300 1.524 . S
C2299 C2303 1.400 . S
C2300 H2285 0.960 . S
C2300 H2286 0.960 . S
C2300 H2287 0.960 . S
C2300 C2299 1.524 . S
C2301 C2298 1.403 . S
C2301 C2302 1.392 . S
C2301 C2305 1.495 . S
C2302 C2301 1.392 . S
C2302 C2303 1.385 . S
C2302 C2304 1.478 . S
C2303 H2297 0.930 . S
C2303 C2299 1.400 . S
C2303 C2302 1.385 . S
C2304 C2302 1.478 . S
C2304 C2306 1.381 . S
C2304 C2310 1.383 . S
C2305 C2301 1.495 . S
C2305 H2311 0.959 . S
C2305 H2312 0.961 . S
C2305 H2313 0.960 . S
C2306 C2304 1.381 . S
C2306 C2307 1.394 . S
C2306 H2314 0.930 . S
C2307 C2306 1.394 . S
C2307 C2308 1.383 . S
C2307 H2315 0.929 . S
C2308 C2307 1.383 . S
C2308 C2309 1.377 . S
C2309 H2293 0.930 . S
C2309 C2308 1.377 . S
C2309 C2310 1.379 . S
C2310 H2294 0.931 . S
C2310 C2304 1.383 . S
C2310 C2309 1.379 . S
H2311 C2305 0.959 . S
H2312 C2305 0.961 . S
H2313 C2305 0.960 . S
H2314 C2306 0.930 . S
H2315 C2307 0.929 . S
H2316 C2324 0.929 . S
H2317 C2326 0.930 . S
H2318 C2328 0.930 . S
H2319 C2331 0.929 . S
H2320 C2334 0.930 . S
H2321 C2336 0.960 . S
H2322 C2336 0.960 . S
H2323 C2336 0.960 . S
C2324 H2316 0.929 . S
C2324 C2325 1.377 . S
C2324 C2326 1.384 . S
C2325 C2324 1.377 . S
C2325 C2331 1.390 . S
C2326 H2317 0.930 . S
C2326 C2324 1.384 . S
C2326 C2327 1.372 . S
C2327 C2326 1.372 . S
C2327 C2328 1.400 . S
C2327 C2332 1.490 . S
C2328 H2318 0.930 . S
C2328 C2327 1.400 . S
C2328 C2331 1.386 . S
H2329 C2345 0.930 . S
H2330 C2346 0.931 . S
C2331 H2319 0.929 . S
C2331 C2325 1.390 . S
C2331 C2328 1.386 . S
C2332 C2327 1.490 . S
C2332 C2334 1.395 . S
C2332 C2335 1.403 . S
H2333 C2339 0.930 . S
C2334 H2320 0.930 . S
C2334 C2332 1.395 . S
C2334 C2337 1.403 . S
C2335 C2332 1.403 . S
C2335 C2336 1.524 . S
C2335 C2339 1.400 . S
C2336 H2321 0.960 . S
C2336 H2322 0.960 . S
C2336 H2323 0.960 . S
C2336 C2335 1.524 . S
C2337 C2334 1.403 . S
C2337 C2338 1.392 . S
C2337 C2341 1.495 . S
C2338 C2337 1.392 . S
C2338 C2339 1.385 . S
C2338 C2340 1.478 . S
C2339 H2333 0.930 . S
C2339 C2335 1.400 . S
C2339 C2338 1.385 . S
C2340 C2338 1.478 . S
C2340 C2342 1.381 . S
C2340 C2346 1.383 . S
C2341 C2337 1.495 . S
C2341 H2347 0.959 . S
C2341 H2348 0.961 . S
C2341 H2349 0.960 . S
C2342 C2340 1.381 . S
C2342 C2343 1.394 . S
C2342 H2350 0.930 . S
C2343 C2342 1.394 . S
C2343 C2344 1.383 . S
C2343 H2351 0.929 . S
C2344 C2343 1.383 . S
C2344 C2345 1.377 . S
C2345 H2329 0.930 . S
C2345 C2344 1.377 . S
C2345 C2346 1.379 . S
C2346 H2330 0.931 . S
C2346 C2340 1.383 . S
C2346 C2345 1.379 . S
H2347 C2341 0.959 . S
H2348 C2341 0.961 . S
H2349 C2341 0.960 . S
H2350 C2342 0.930 . S
H2351 C2343 0.929 . S
H2352 C2360 0.929 . S
H2353 C2362 0.930 . S
H2354 C2364 0.930 . S
H2355 C2367 0.929 . S
H2356 C2370 0.930 1_655 S
H2357 C2372 0.960 . S
H2358 C2372 0.960 . S
H2359 C2372 0.960 . S
C2360 H2352 0.929 . S
C2360 C2361 1.377 . S
C2360 C2362 1.384 . S
C2361 C2360 1.377 . S
C2361 C2367 1.390 . S
C2362 H2353 0.930 . S
C2362 C2360 1.384 . S
C2362 C2363 1.372 . S
C2363 C2362 1.372 . S
C2363 C2364 1.400 . S
C2363 C2368 1.490 . S
C2364 H2354 0.930 . S
C2364 C2363 1.400 . S
C2364 C2367 1.386 . S
H2365 C2381 0.930 . S
H2366 C2382 0.931 . S
C2367 H2355 0.929 . S
C2367 C2361 1.390 . S
C2367 C2364 1.386 . S
C2368 C2363 1.490 . S
C2368 C2370 1.395 . S
C2368 C2371 1.403 . S
H2369 C2375 0.930 . S
C2370 H2356 0.930 1_455 S
C2370 C2368 1.395 . S
C2370 C2373 1.404 . S
C2371 C2368 1.403 . S
C2371 C2372 1.524 . S
C2371 C2375 1.400 . S
C2372 H2357 0.960 . S
C2372 H2358 0.960 . S
C2372 H2359 0.960 . S
C2372 C2371 1.524 . S
C2373 C2370 1.404 . S
C2373 C2374 1.396 . S
C2373 C2377 1.491 1_455 S
C2374 C2373 1.396 . S
C2374 C2375 1.385 . S
C2374 C2376 1.478 . S
C2375 H2369 0.930 . S
C2375 C2371 1.400 . S
C2375 C2374 1.385 . S
C2376 C2374 1.478 . S
C2376 C2378 1.381 . S
C2376 C2382 1.383 . S
C2377 C2373 1.491 1_655 S
C2377 H2383 0.959 . S
C2377 H2384 0.961 . S
C2377 H2385 0.960 . S
C2378 C2376 1.381 . S
C2378 C2379 1.394 . S
C2378 H2386 0.930 . S
C2379 C2378 1.394 . S
C2379 C2380 1.383 . S
C2379 H2387 0.929 . S
C2380 C2379 1.383 . S
C2380 C2381 1.377 . S
C2381 H2365 0.930 . S
C2381 C2380 1.377 . S
C2381 C2382 1.379 . S
C2382 H2366 0.931 . S
C2382 C2376 1.383 . S
C2382 C2381 1.379 . S
H2383 C2377 0.959 . S
H2384 C2377 0.961 . S
H2385 C2377 0.960 . S
H2386 C2378 0.930 . S
H2387 C2379 0.929 . S
H2388 C2396 0.929 . S
H2389 C2398 0.930 . S
H2390 C2400 0.930 . S
H2391 C2403 0.929 . S
H2392 C2406 0.930 . S
H2393 C2408 0.960 . S
H2394 C2408 0.960 . S
H2395 C2408 0.960 . S
C2396 H2388 0.929 . S
C2396 C2397 1.377 . S
C2396 C2398 1.384 . S
C2397 C2396 1.377 . S
C2397 C2403 1.390 . S
C2398 H2389 0.930 . S
C2398 C2396 1.384 . S
C2398 C2399 1.372 . S
C2399 C2398 1.372 . S
C2399 C2400 1.400 . S
C2399 C2404 1.490 . S
C2400 H2390 0.930 . S
C2400 C2399 1.400 . S
C2400 C2403 1.386 . S
H2401 C2417 0.930 . S
H2402 C2418 0.931 . S
C2403 H2391 0.929 . S
C2403 C2397 1.390 . S
C2403 C2400 1.386 . S
C2404 C2399 1.490 . S
C2404 C2406 1.395 . S
C2404 C2407 1.403 . S
H2405 C2411 0.930 . S
C2406 H2392 0.930 . S
C2406 C2404 1.395 . S
C2406 C2409 1.403 . S
C2407 C2404 1.403 . S
C2407 C2408 1.524 . S
C2407 C2411 1.400 . S
C2408 H2393 0.960 . S
C2408 H2394 0.960 . S
C2408 H2395 0.960 . S
C2408 C2407 1.524 . S
C2409 C2406 1.403 . S
C2409 C2410 1.392 . S
C2409 C2413 1.495 . S
C2410 C2409 1.392 . S
C2410 C2411 1.385 . S
C2410 C2412 1.478 . S
C2411 H2405 0.930 . S
C2411 C2407 1.400 . S
C2411 C2410 1.385 . S
C2412 C2410 1.478 . S
C2412 C2414 1.381 . S
C2412 C2418 1.383 . S
C2413 C2409 1.495 . S
C2413 H2419 0.959 . S
C2413 H2420 0.961 . S
C2413 H2421 0.960 . S
C2414 C2412 1.381 . S
C2414 C2415 1.394 . S
C2414 H2422 0.930 . S
C2415 C2414 1.394 . S
C2415 C2416 1.383 . S
C2415 H2423 0.929 . S
C2416 C2415 1.383 . S
C2416 C2417 1.377 . S
C2417 H2401 0.930 . S
C2417 C2416 1.377 . S
C2417 C2418 1.379 . S
C2418 H2402 0.931 . S
C2418 C2412 1.383 . S
C2418 C2417 1.379 . S
H2419 C2413 0.959 . S
H2420 C2413 0.961 . S
H2421 C2413 0.960 . S
H2422 C2414 0.930 . S
H2423 C2415 0.929 . S
H2424 C2432 0.929 . S
H2425 C2434 0.930 . S
H2426 C2436 0.930 . S
H2427 C2439 0.929 . S
H2428 C2442 0.930 . S
H2429 C2444 0.960 . S
H2430 C2444 0.960 . S
H2431 C2444 0.960 . S
C2432 H2424 0.929 . S
C2432 C2433 1.377 . S
C2432 C2434 1.384 . S
C2433 C2432 1.377 . S
C2433 C2439 1.390 . S
C2434 H2425 0.930 . S
C2434 C2432 1.384 . S
C2434 C2435 1.372 . S
C2435 C2434 1.372 . S
C2435 C2436 1.400 . S
C2435 C2440 1.490 . S
C2436 H2426 0.930 . S
C2436 C2435 1.400 . S
C2436 C2439 1.386 . S
H2437 C2453 0.930 . S
H2438 C2454 0.931 . S
C2439 H2427 0.929 . S
C2439 C2433 1.390 . S
C2439 C2436 1.386 . S
C2440 C2435 1.490 . S
C2440 C2442 1.395 . S
C2440 C2443 1.403 . S
H2441 C2447 0.930 . S
C2442 H2428 0.930 . S
C2442 C2440 1.395 . S
C2442 C2445 1.403 . S
C2443 C2440 1.403 . S
C2443 C2444 1.524 . S
C2443 C2447 1.400 . S
C2444 H2429 0.960 . S
C2444 H2430 0.960 . S
C2444 H2431 0.960 . S
C2444 C2443 1.524 . S
C2445 C2442 1.403 . S
C2445 C2446 1.392 . S
C2445 C2449 1.495 . S
C2446 C2445 1.392 . S
C2446 C2447 1.385 . S
C2446 C2448 1.478 . S
C2447 H2441 0.930 . S
C2447 C2443 1.400 . S
C2447 C2446 1.385 . S
C2448 C2446 1.478 . S
C2448 C2450 1.381 . S
C2448 C2454 1.383 . S
C2449 C2445 1.495 . S
C2449 H2455 0.959 . S
C2449 H2456 0.961 . S
C2449 H2457 0.960 . S
C2450 C2448 1.381 . S
C2450 C2451 1.394 . S
C2450 H2458 0.930 . S
C2451 C2450 1.394 . S
C2451 C2452 1.383 . S
C2451 H2459 0.929 . S
C2452 C2451 1.383 . S
C2452 C2453 1.377 . S
C2453 H2437 0.930 . S
C2453 C2452 1.377 . S
C2453 C2454 1.379 . S
C2454 H2438 0.931 . S
C2454 C2448 1.383 . S
C2454 C2453 1.379 . S
H2455 C2449 0.959 . S
H2456 C2449 0.961 . S
H2457 C2449 0.960 . S
H2458 C2450 0.930 . S
H2459 C2451 0.929 . S
H2460 C2468 0.929 . S
H2461 C2470 0.930 . S
H2462 C2472 0.930 . S
H2463 C2475 0.929 . S
H2464 C2478 0.930 . S
H2465 C2480 0.960 . S
H2466 C2480 0.960 . S
H2467 C2480 0.960 . S
C2468 H2460 0.929 . S
C2468 C2469 1.377 . S
C2468 C2470 1.384 . S
C2469 C2468 1.377 . S
C2469 C2475 1.390 . S
C2470 H2461 0.930 . S
C2470 C2468 1.384 . S
C2470 C2471 1.372 . S
C2471 C2470 1.372 . S
C2471 C2472 1.400 . S
C2471 C2476 1.490 . S
C2472 H2462 0.930 . S
C2472 C2471 1.400 . S
C2472 C2475 1.386 . S
H2473 C2489 0.930 . S
H2474 C2490 0.931 . S
C2475 H2463 0.929 . S
C2475 C2469 1.390 . S
C2475 C2472 1.386 . S
C2476 C2471 1.490 . S
C2476 C2478 1.395 . S
C2476 C2479 1.403 . S
H2477 C2483 0.930 . S
C2478 H2464 0.930 . S
C2478 C2476 1.395 . S
C2478 C2481 1.403 . S
C2479 C2476 1.403 . S
C2479 C2480 1.524 . S
C2479 C2483 1.400 . S
C2480 H2465 0.960 . S
C2480 H2466 0.960 . S
C2480 H2467 0.960 . S
C2480 C2479 1.524 . S
C2481 C2478 1.403 . S
C2481 C2482 1.392 . S
C2481 C2485 1.495 . S
C2482 C2481 1.392 . S
C2482 C2483 1.385 . S
C2482 C2484 1.478 . S
C2483 H2477 0.930 . S
C2483 C2479 1.400 . S
C2483 C2482 1.385 . S
C2484 C2482 1.478 . S
C2484 C2486 1.381 . S
C2484 C2490 1.383 . S
C2485 C2481 1.495 . S
C2485 H2491 0.959 . S
C2485 H2492 0.961 . S
C2485 H2493 0.960 . S
C2486 C2484 1.381 . S
C2486 C2487 1.394 . S
C2486 H2494 0.930 . S
C2487 C2486 1.394 . S
C2487 C2488 1.383 . S
C2487 H2495 0.929 . S
C2488 C2487 1.383 . S
C2488 C2489 1.377 . S
C2489 H2473 0.930 . S
C2489 C2488 1.377 . S
C2489 C2490 1.379 . S
C2490 H2474 0.931 . S
C2490 C2484 1.383 . S
C2490 C2489 1.379 . S
H2491 C2485 0.959 . S
H2492 C2485 0.961 . S
H2493 C2485 0.960 . S
H2494 C2486 0.930 . S
H2495 C2487 0.929 . S
H2496 C2504 0.929 . S
H2497 C2506 0.930 . S
H2498 C2508 0.930 . S
H2499 C2511 0.929 . S
H2500 C2514 0.930 . S
H2501 C2516 0.960 . S
H2502 C2516 0.960 . S
H2503 C2516 0.960 . S
C2504 H2496 0.929 . S
C2504 C2505 1.377 . S
C2504 C2506 1.384 . S
C2505 C2504 1.377 . S
C2505 C2511 1.390 . S
C2506 H2497 0.930 . S
C2506 C2504 1.384 . S
C2506 C2507 1.372 . S
C2507 C2506 1.372 . S
C2507 C2508 1.400 . S
C2507 C2512 1.490 . S
C2508 H2498 0.930 . S
C2508 C2507 1.400 . S
C2508 C2511 1.386 . S
H2509 C2525 0.930 . S
H2510 C2526 0.931 . S
C2511 H2499 0.929 . S
C2511 C2505 1.390 . S
C2511 C2508 1.386 . S
C2512 C2507 1.490 . S
C2512 C2514 1.395 . S
C2512 C2515 1.403 . S
H2513 C2519 0.930 1_565 S
C2514 H2500 0.930 . S
C2514 C2512 1.395 . S
C2514 C2517 1.403 . S
C2515 C2512 1.403 . S
C2515 C2516 1.524 1_545 S
C2515 C2519 1.400 . S
C2516 H2501 0.960 . S
C2516 H2502 0.960 . S
C2516 H2503 0.960 . S
C2516 C2515 1.524 1_565 S
C2517 C2514 1.403 . S
C2517 C2518 1.392 . S
C2517 C2521 1.495 . S
C2518 C2517 1.392 . S
C2518 C2519 1.385 . S
C2518 C2520 1.478 . S
C2519 H2513 0.930 1_545 S
C2519 C2515 1.400 . S
C2519 C2518 1.385 . S
C2520 C2518 1.478 . S
C2520 C2522 1.381 . S
C2520 C2526 1.383 1_655 S
C2521 C2517 1.495 . S
C2521 H2527 0.959 . S
C2521 H2528 0.961 . S
C2521 H2529 0.960 . S
C2522 C2520 1.381 . S
C2522 C2523 1.394 . S
C2522 H2530 0.930 . S
C2523 C2522 1.394 . S
C2523 C2524 1.383 1_655 S
C2523 H2531 0.929 . S
C2524 C2523 1.383 1_455 S
C2524 C2525 1.377 . S
C2525 H2509 0.930 . S
C2525 C2524 1.377 . S
C2525 C2526 1.379 . S
C2526 H2510 0.931 . S
C2526 C2520 1.383 1_455 S
C2526 C2525 1.379 . S
H2527 C2521 0.959 . S
H2528 C2521 0.961 . S
H2529 C2521 0.960 . S
H2530 C2522 0.930 . S
H2531 C2523 0.929 . S
H2532 C2540 0.929 . S
H2533 C2542 0.930 . S
H2534 C2544 0.930 . S
H2535 C2547 0.929 . S
H2536 C2550 0.930 . S
H2537 C2552 0.960 . S
H2538 C2552 0.960 . S
H2539 C2552 0.960 . S
C2540 H2532 0.929 . S
C2540 C2541 1.377 . S
C2540 C2542 1.384 . S
C2541 C2540 1.377 . S
C2541 C2547 1.390 . S
C2542 H2533 0.930 . S
C2542 C2540 1.384 . S
C2542 C2543 1.372 . S
C2543 C2542 1.372 . S
C2543 C2544 1.400 . S
C2543 C2548 1.490 . S
C2544 H2534 0.930 . S
C2544 C2543 1.400 . S
C2544 C2547 1.386 . S
H2545 C2561 0.930 . S
H2546 C2562 0.931 . S
C2547 H2535 0.929 . S
C2547 C2541 1.390 . S
C2547 C2544 1.386 . S
C2548 C2543 1.490 . S
C2548 C2550 1.395 . S
C2548 C2551 1.403 . S
H2549 C2555 0.930 . S
C2550 H2536 0.930 . S
C2550 C2548 1.395 . S
C2550 C2553 1.403 . S
C2551 C2548 1.403 . S
C2551 C2552 1.524 . S
C2551 C2555 1.400 . S
C2552 H2537 0.960 . S
C2552 H2538 0.960 . S
C2552 H2539 0.960 . S
C2552 C2551 1.524 . S
C2553 C2550 1.403 . S
C2553 C2554 1.392 . S
C2553 C2557 1.495 . S
C2554 C2553 1.392 . S
C2554 C2555 1.385 . S
C2554 C2556 1.478 . S
C2555 H2549 0.930 . S
C2555 C2551 1.400 . S
C2555 C2554 1.385 . S
C2556 C2554 1.478 . S
C2556 C2558 1.381 . S
C2556 C2562 1.383 . S
C2557 C2553 1.495 . S
C2557 H2563 0.959 . S
C2557 H2564 0.961 . S
C2557 H2565 0.960 . S
C2558 C2556 1.381 . S
C2558 C2559 1.394 . S
C2558 H2566 0.930 . S
C2559 C2558 1.394 . S
C2559 C2560 1.383 . S
C2559 H2567 0.929 . S
C2560 C2559 1.383 . S
C2560 C2561 1.377 . S
C2561 H2545 0.930 . S
C2561 C2560 1.377 . S
C2561 C2562 1.379 . S
C2562 H2546 0.931 . S
C2562 C2556 1.383 . S
C2562 C2561 1.379 . S
H2563 C2557 0.959 . S
H2564 C2557 0.961 . S
H2565 C2557 0.960 . S
H2566 C2558 0.930 . S
H2567 C2559 0.929 . S
H2568 C2576 0.929 . S
H2569 C2578 0.930 . S
H2570 C2580 0.930 . S
H2571 C2583 0.929 . S
H2572 C2586 0.930 . S
H2573 C2588 0.960 1_565 S
H2574 C2588 0.960 . S
H2575 C2588 0.960 1_565 S
C2576 H2568 0.929 . S
C2576 C2577 1.377 . S
C2576 C2578 1.384 . S
C2577 C2576 1.377 . S
C2577 C2583 1.390 . S
C2578 H2569 0.930 . S
C2578 C2576 1.384 . S
C2578 C2579 1.372 . S
C2579 C2578 1.372 . S
C2579 C2580 1.400 . S
C2579 C2584 1.490 . S
C2580 H2570 0.930 . S
C2580 C2579 1.400 . S
C2580 C2583 1.386 . S
H2581 C2597 0.930 . S
H2582 C2598 0.931 . S
C2583 H2571 0.929 . S
C2583 C2577 1.390 . S
C2583 C2580 1.386 . S
C2584 C2579 1.490 . S
C2584 C2586 1.395 . S
C2584 C2587 1.403 . S
H2585 C2591 0.930 . S
C2586 H2572 0.930 . S
C2586 C2584 1.395 . S
C2586 C2589 1.403 . S
C2587 C2584 1.403 . S
C2587 C2588 1.524 . S
C2587 C2591 1.400 . S
C2588 H2573 0.960 1_545 S
C2588 H2574 0.960 . S
C2588 H2575 0.960 1_545 S
C2588 C2587 1.524 . S
C2589 C2586 1.403 . S
C2589 C2590 1.392 . S
C2589 C2593 1.495 . S
C2590 C2589 1.392 . S
C2590 C2591 1.385 . S
C2590 C2592 1.478 . S
C2591 H2585 0.930 . S
C2591 C2587 1.400 . S
C2591 C2590 1.385 . S
C2592 C2590 1.478 . S
C2592 C2594 1.381 . S
C2592 C2598 1.383 . S
C2593 C2589 1.495 . S
C2593 H2599 0.959 . S
C2593 H2600 0.961 . S
C2593 H2601 0.960 . S
C2594 C2592 1.381 . S
C2594 C2595 1.394 . S
C2594 H2602 0.930 . S
C2595 C2594 1.394 . S
C2595 C2596 1.383 . S
C2595 H2603 0.929 . S
C2596 C2595 1.383 . S
C2596 C2597 1.377 . S
C2597 H2581 0.930 . S
C2597 C2596 1.377 . S
C2597 C2598 1.379 . S
C2598 H2582 0.931 . S
C2598 C2592 1.383 . S
C2598 C2597 1.379 . S
H2599 C2593 0.959 . S
H2600 C2593 0.961 . S
H2601 C2593 0.960 . S
H2602 C2594 0.930 . S
H2603 C2595 0.929 . S
H2604 C2612 0.929 . S
H2605 C2614 0.930 . S
H2606 C2616 0.930 . S
H2607 C2619 0.929 . S
H2608 C2622 0.930 . S
H2609 C2624 0.960 . S
H2610 C2624 0.960 . S
H2611 C2624 0.960 . S
C2612 H2604 0.929 . S
C2612 C2613 1.377 . S
C2612 C2614 1.384 . S
C2613 C2612 1.377 . S
C2613 C2619 1.390 . S
C2614 H2605 0.930 . S
C2614 C2612 1.384 . S
C2614 C2615 1.372 . S
C2615 C2614 1.372 . S
C2615 C2616 1.400 . S
C2615 C2620 1.490 . S
C2616 H2606 0.930 . S
C2616 C2615 1.400 . S
C2616 C2619 1.386 . S
H2617 C2633 0.930 . S
H2618 C2634 0.931 . S
C2619 H2607 0.929 . S
C2619 C2613 1.390 . S
C2619 C2616 1.386 . S
C2620 C2615 1.490 . S
C2620 C2622 1.395 . S
C2620 C2623 1.403 . S
H2621 C2627 0.930 . S
C2622 H2608 0.930 . S
C2622 C2620 1.395 . S
C2622 C2625 1.403 . S
C2623 C2620 1.403 . S
C2623 C2624 1.524 . S
C2623 C2627 1.400 . S
C2624 H2609 0.960 . S
C2624 H2610 0.960 . S
C2624 H2611 0.960 . S
C2624 C2623 1.524 . S
C2625 C2622 1.403 . S
C2625 C2626 1.392 . S
C2625 C2629 1.495 . S
C2626 C2625 1.392 . S
C2626 C2627 1.385 . S
C2626 C2628 1.478 . S
C2627 H2621 0.930 . S
C2627 C2623 1.400 . S
C2627 C2626 1.385 . S
C2628 C2626 1.478 . S
C2628 C2630 1.381 . S
C2628 C2634 1.383 . S
C2629 C2625 1.495 . S
C2629 H2635 0.959 . S
C2629 H2636 0.961 . S
C2629 H2637 0.960 . S
C2630 C2628 1.381 . S
C2630 C2631 1.394 . S
C2630 H2638 0.930 . S
C2631 C2630 1.394 . S
C2631 C2632 1.383 . S
C2631 H2639 0.929 . S
C2632 C2631 1.383 . S
C2632 C2633 1.377 . S
C2633 H2617 0.930 . S
C2633 C2632 1.377 . S
C2633 C2634 1.379 . S
C2634 H2618 0.931 . S
C2634 C2628 1.383 . S
C2634 C2633 1.379 . S
H2635 C2629 0.959 . S
H2636 C2629 0.961 . S
H2637 C2629 0.960 . S
H2638 C2630 0.930 . S
H2639 C2631 0.929 . S
H2640 C2648 0.929 . S
H2641 C2650 0.930 . S
H2642 C2652 0.930 . S
H2643 C2655 0.929 . S
H2644 C2658 0.930 1_565 S
H2645 C2660 0.960 . S
H2646 C2660 0.960 . S
H2647 C2660 0.960 . S
C2648 H2640 0.929 . S
C2648 C2649 1.377 . S
C2648 C2650 1.384 . S
C2649 C2648 1.377 . S
C2649 C2655 1.390 . S
C2650 H2641 0.930 . S
C2650 C2648 1.384 . S
C2650 C2651 1.372 . S
C2651 C2650 1.372 . S
C2651 C2652 1.400 . S
C2651 C2656 1.490 . S
C2652 H2642 0.930 . S
C2652 C2651 1.400 . S
C2652 C2655 1.386 . S
H2653 C2669 0.930 . S
H2654 C2670 0.931 . S
C2655 H2643 0.929 . S
C2655 C2649 1.390 . S
C2655 C2652 1.386 . S
C2656 C2651 1.490 . S
C2656 C2658 1.395 . S
C2656 C2659 1.403 . S
H2657 C2663 0.930 . S
C2658 H2644 0.930 1_545 S
C2658 C2656 1.395 . S
C2658 C2661 1.403 . S
C2659 C2656 1.403 . S
C2659 C2660 1.524 . S
C2659 C2663 1.400 . S
C2660 H2645 0.960 . S
C2660 H2646 0.960 . S
C2660 H2647 0.960 . S
C2660 C2659 1.524 . S
C2661 C2658 1.403 . S
C2661 C2662 1.392 . S
C2661 C2665 1.495 1_545 S
C2662 C2661 1.392 . S
C2662 C2663 1.385 . S
C2662 C2664 1.478 . S
C2663 H2657 0.930 . S
C2663 C2659 1.400 . S
C2663 C2662 1.385 . S
C2664 C2662 1.478 . S
C2664 C2666 1.381 . S
C2664 C2670 1.383 1_655 S
C2665 C2661 1.495 1_565 S
C2665 H2671 0.959 . S
C2665 H2672 0.961 . S
C2665 H2673 0.960 . S
C2666 C2664 1.381 . S
C2666 C2667 1.394 . S
C2666 H2674 0.930 . S
C2667 C2666 1.394 . S
C2667 C2668 1.383 1_655 S
C2667 H2675 0.929 . S
C2668 C2667 1.383 1_455 S
C2668 C2669 1.377 . S
C2669 H2653 0.930 . S
C2669 C2668 1.377 . S
C2669 C2670 1.379 . S
C2670 H2654 0.931 . S
C2670 C2664 1.383 1_455 S
C2670 C2669 1.379 . S
H2671 C2665 0.959 . S
H2672 C2665 0.961 . S
H2673 C2665 0.960 . S
H2674 C2666 0.930 . S
H2675 C2667 0.929 . S
H2676 C2684 0.929 . S
H2677 C2686 0.930 . S
H2678 C2688 0.930 . S
H2679 C2691 0.929 . S
H2680 C2694 0.930 . S
H2681 C2696 0.960 . S
H2682 C2696 0.960 . S
H2683 C2696 0.960 . S
C2684 H2676 0.929 . S
C2684 C2685 1.377 . S
C2684 C2686 1.384 . S
C2685 C2684 1.377 . S
C2685 C2691 1.390 . S
C2686 H2677 0.930 . S
C2686 C2684 1.384 . S
C2686 C2687 1.372 . S
C2687 C2686 1.372 . S
C2687 C2688 1.400 . S
C2687 C2692 1.490 . S
C2688 H2678 0.930 . S
C2688 C2687 1.400 . S
C2688 C2691 1.386 . S
H2689 C2705 0.930 . S
H2690 C2706 0.931 . S
C2691 H2679 0.929 . S
C2691 C2685 1.390 . S
C2691 C2688 1.386 . S
C2692 C2687 1.490 . S
C2692 C2694 1.395 . S
C2692 C2695 1.403 . S
H2693 C2699 0.930 . S
C2694 H2680 0.930 . S
C2694 C2692 1.395 . S
C2694 C2697 1.403 . S
C2695 C2692 1.403 . S
C2695 C2696 1.524 . S
C2695 C2699 1.400 . S
C2696 H2681 0.960 . S
C2696 H2682 0.960 . S
C2696 H2683 0.960 . S
C2696 C2695 1.524 . S
C2697 C2694 1.403 . S
C2697 C2698 1.392 . S
C2697 C2701 1.495 . S
C2698 C2697 1.392 . S
C2698 C2699 1.385 . S
C2698 C2700 1.478 . S
C2699 H2693 0.930 . S
C2699 C2695 1.400 . S
C2699 C2698 1.385 . S
C2700 C2698 1.478 . S
C2700 C2702 1.381 . S
C2700 C2706 1.383 . S
C2701 C2697 1.495 . S
C2701 H2707 0.959 . S
C2701 H2708 0.961 . S
C2701 H2709 0.960 . S
C2702 C2700 1.381 . S
C2702 C2703 1.394 . S
C2702 H2710 0.930 . S
C2703 C2702 1.394 . S
C2703 C2704 1.383 . S
C2703 H2711 0.929 . S
C2704 C2703 1.383 . S
C2704 C2705 1.377 . S
C2705 H2689 0.930 . S
C2705 C2704 1.377 . S
C2705 C2706 1.379 . S
C2706 H2690 0.931 . S
C2706 C2700 1.383 . S
C2706 C2705 1.379 . S
H2707 C2701 0.959 . S
H2708 C2701 0.961 . S
H2709 C2701 0.960 . S
H2710 C2702 0.930 . S
H2711 C2703 0.929 . S
H2712 C2720 0.929 . S
H2713 C2722 0.930 . S
H2714 C2724 0.930 . S
H2715 C2727 0.929 . S
H2716 C2730 0.930 . S
H2717 C2732 0.960 . S
H2718 C2732 0.960 . S
H2719 C2732 0.960 . S
C2720 H2712 0.929 . S
C2720 C2721 1.377 . S
C2720 C2722 1.384 . S
C2721 C2720 1.377 . S
C2721 C2727 1.390 . S
C2722 H2713 0.930 . S
C2722 C2720 1.384 . S
C2722 C2723 1.372 . S
C2723 C2722 1.372 . S
C2723 C2724 1.400 . S
C2723 C2728 1.490 . S
C2724 H2714 0.930 . S
C2724 C2723 1.400 . S
C2724 C2727 1.386 . S
H2725 C2741 0.930 . S
H2726 C2742 0.931 . S
C2727 H2715 0.929 . S
C2727 C2721 1.390 . S
C2727 C2724 1.386 . S
C2728 C2723 1.490 . S
C2728 C2730 1.395 . S
C2728 C2731 1.403 . S
H2729 C2735 0.930 . S
C2730 H2716 0.930 . S
C2730 C2728 1.395 . S
C2730 C2733 1.403 . S
C2731 C2728 1.403 . S
C2731 C2732 1.524 . S
C2731 C2735 1.400 . S
C2732 H2717 0.960 . S
C2732 H2718 0.960 . S
C2732 H2719 0.960 . S
C2732 C2731 1.524 . S
C2733 C2730 1.403 . S
C2733 C2734 1.392 . S
C2733 C2737 1.495 . S
C2734 C2733 1.392 . S
C2734 C2735 1.385 . S
C2734 C2736 1.478 . S
C2735 H2729 0.930 . S
C2735 C2731 1.400 . S
C2735 C2734 1.385 . S
C2736 C2734 1.478 . S
C2736 C2738 1.381 . S
C2736 C2742 1.383 . S
C2737 C2733 1.495 . S
C2737 H2743 0.959 . S
C2737 H2744 0.961 . S
C2737 H2745 0.960 . S
C2738 C2736 1.381 . S
C2738 C2739 1.394 . S
C2738 H2746 0.930 . S
C2739 C2738 1.394 . S
C2739 C2740 1.383 . S
C2739 H2747 0.929 . S
C2740 C2739 1.383 . S
C2740 C2741 1.377 . S
C2741 H2725 0.930 . S
C2741 C2740 1.377 . S
C2741 C2742 1.379 . S
C2742 H2726 0.931 . S
C2742 C2736 1.383 . S
C2742 C2741 1.379 . S
H2743 C2737 0.959 . S
H2744 C2737 0.961 . S
H2745 C2737 0.960 . S
H2746 C2738 0.930 . S
H2747 C2739 0.929 . S
H2748 C2756 0.929 . S
H2749 C2758 0.930 . S
H2750 C2760 0.930 . S
H2751 C2763 0.929 . S
H2752 C2766 0.930 . S
H2753 C2768 0.960 . S
H2754 C2768 0.960 . S
H2755 C2768 0.960 . S
C2756 H2748 0.929 . S
C2756 C2757 1.377 . S
C2756 C2758 1.384 . S
C2757 C2756 1.377 . S
C2757 C2763 1.390 . S
C2758 H2749 0.930 . S
C2758 C2756 1.384 . S
C2758 C2759 1.372 . S
C2759 C2758 1.372 . S
C2759 C2760 1.400 . S
C2759 C2764 1.490 . S
C2760 H2750 0.930 . S
C2760 C2759 1.400 . S
C2760 C2763 1.386 . S
H2761 C2777 0.930 . S
H2762 C2778 0.931 . S
C2763 H2751 0.929 . S
C2763 C2757 1.390 . S
C2763 C2760 1.386 . S
C2764 C2759 1.490 . S
C2764 C2766 1.395 . S
C2764 C2767 1.403 . S
H2765 C2771 0.930 . S
C2766 H2752 0.930 . S
C2766 C2764 1.395 . S
C2766 C2769 1.403 . S
C2767 C2764 1.403 . S
C2767 C2768 1.524 . S
C2767 C2771 1.400 . S
C2768 H2753 0.960 . S
C2768 H2754 0.960 . S
C2768 H2755 0.960 . S
C2768 C2767 1.524 . S
C2769 C2766 1.403 . S
C2769 C2770 1.392 . S
C2769 C2773 1.495 . S
C2770 C2769 1.392 . S
C2770 C2771 1.385 . S
C2770 C2772 1.478 . S
C2771 H2765 0.930 . S
C2771 C2767 1.400 . S
C2771 C2770 1.385 . S
C2772 C2770 1.478 . S
C2772 C2774 1.381 . S
C2772 C2778 1.383 . S
C2773 C2769 1.495 . S
C2773 H2779 0.959 . S
C2773 H2780 0.961 . S
C2773 H2781 0.960 . S
C2774 C2772 1.381 . S
C2774 C2775 1.394 . S
C2774 H2782 0.930 . S
C2775 C2774 1.394 . S
C2775 C2776 1.383 . S
C2775 H2783 0.929 . S
C2776 C2775 1.383 . S
C2776 C2777 1.377 . S
C2777 H2761 0.930 . S
C2777 C2776 1.377 . S
C2777 C2778 1.379 . S
C2778 H2762 0.931 . S
C2778 C2772 1.383 . S
C2778 C2777 1.379 . S
H2779 C2773 0.959 . S
H2780 C2773 0.961 . S
H2781 C2773 0.960 . S
H2782 C2774 0.930 . S
H2783 C2775 0.929 . S
H2784 C2792 0.929 . S
H2785 C2794 0.930 . S
H2786 C2796 0.930 . S
H2787 C2799 0.929 . S
H2788 C2802 0.930 . S
H2789 C2804 0.960 . S
H2790 C2804 0.960 . S
H2791 C2804 0.960 1_556 S
C2792 H2784 0.929 . S
C2792 C2793 1.352 1_554 S
C2792 C2794 1.384 . S
C2793 C2792 1.352 1_556 S
C2793 C2799 1.409 . S
C2794 H2785 0.930 . S
C2794 C2792 1.384 . S
C2794 C2795 1.372 . S
C2795 C2794 1.372 . S
C2795 C2796 1.400 1_554 S
C2795 C2800 1.490 . S
C2796 H2786 0.930 . S
C2796 C2795 1.400 1_556 S
C2796 C2799 1.386 . S
H2797 C2813 0.930 1_556 S
H2798 C2814 0.931 1_556 S
C2799 H2787 0.929 . S
C2799 C2793 1.409 . S
C2799 C2796 1.386 . S
C2800 C2795 1.490 . S
C2800 C2802 1.395 . S
C2800 C2803 1.403 . S
H2801 C2807 0.930 . S
C2802 H2788 0.930 . S
C2802 C2800 1.395 . S
C2802 C2805 1.403 . S
C2803 C2800 1.403 . S
C2803 C2804 1.524 . S
C2803 C2807 1.400 . S
C2804 H2789 0.960 . S
C2804 H2790 0.960 . S
C2804 H2791 0.960 1_554 S
C2804 C2803 1.524 . S
C2805 C2802 1.403 . S
C2805 C2806 1.392 . S
C2805 C2809 1.495 1_565 S
C2806 C2805 1.392 . S
C2806 C2807 1.385 . S
C2806 C2808 1.478 . S
C2807 H2801 0.930 . S
C2807 C2803 1.400 . S
C2807 C2806 1.385 . S
C2808 C2806 1.478 . S
C2808 C2810 1.381 . S
C2808 C2814 1.383 . S
C2809 C2805 1.495 1_545 S
C2809 H2815 0.959 . S
C2809 H2816 0.961 . S
C2809 H2817 0.960 . S
C2810 C2808 1.381 . S
C2810 C2811 1.394 . S
C2810 H2818 0.930 . S
C2811 C2810 1.394 . S
C2811 C2812 1.383 . S
C2811 H2819 0.929 . S
C2812 C2811 1.383 . S
C2812 C2813 1.377 . S
C2813 H2797 0.930 1_554 S
C2813 C2812 1.377 . S
C2813 C2814 1.379 . S
C2814 H2798 0.931 1_554 S
C2814 C2808 1.383 . S
C2814 C2813 1.379 . S
H2815 C2809 0.959 . S
H2816 C2809 0.961 . S
H2817 C2809 0.960 . S
H2818 C2810 0.930 . S
H2819 C2811 0.929 . S
H2820 C2828 0.929 . S
H2821 C2830 0.930 . S
H2822 C2832 0.930 . S
H2823 C2835 0.935 . S
H2824 C2838 0.930 . S
H2825 C2840 0.960 . S
H2826 C2840 0.960 . S
H2827 C2840 0.960 . S
C2828 H2820 0.929 . S
C2828 C2829 1.377 . S
C2828 C2830 1.384 . S
C2829 C2828 1.377 . S
C2829 C2835 1.390 . S
C2830 H2821 0.930 . S
C2830 C2828 1.384 . S
C2830 C2831 1.372 . S
C2831 C2830 1.372 . S
C2831 C2832 1.400 . S
C2831 C2836 1.490 . S
C2832 H2822 0.930 . S
C2832 C2831 1.400 . S
C2832 C2835 1.386 . S
H2833 C2849 0.930 . S
H2834 C2850 0.931 . S
C2835 H2823 0.935 . S
C2835 C2829 1.390 . S
C2835 C2832 1.386 . S
C2836 C2831 1.490 . S
C2836 C2838 1.395 . S
C2836 C2839 1.403 1_554 S
H2837 C2843 0.930 . S
C2838 H2824 0.930 . S
C2838 C2836 1.395 . S
C2838 C2841 1.403 . S
C2839 C2836 1.403 1_556 S
C2839 C2840 1.524 . S
C2839 C2843 1.400 . S
C2840 H2825 0.960 . S
C2840 H2826 0.960 . S
C2840 H2827 0.960 . S
C2840 C2839 1.524 . S
C2841 C2838 1.403 . S
C2841 C2842 1.392 . S
C2841 C2845 1.495 . S
C2842 C2841 1.392 . S
C2842 C2843 1.385 1_554 S
C2842 C2844 1.478 . S
C2843 H2837 0.930 . S
C2843 C2839 1.400 . S
C2843 C2842 1.385 1_556 S
C2844 C2842 1.478 . S
C2844 C2846 1.381 . S
C2844 C2850 1.383 . S
C2845 C2841 1.495 . S
C2845 H2851 0.959 . S
C2845 H2852 0.961 . S
C2845 H2853 0.960 . S
C2846 C2844 1.381 . S
C2846 C2847 1.394 . S
C2846 H2854 0.930 . S
C2847 C2846 1.394 . S
C2847 C2848 1.383 . S
C2847 H2855 0.929 . S
C2848 C2847 1.383 . S
C2848 C2849 1.377 . S
C2849 H2833 0.930 . S
C2849 C2848 1.377 . S
C2849 C2850 1.379 . S
C2850 H2834 0.931 . S
C2850 C2844 1.383 . S
C2850 C2849 1.379 . S
H2851 C2845 0.959 . S
H2852 C2845 0.961 . S
H2853 C2845 0.960 . S
H2854 C2846 0.930 . S
H2855 C2847 0.929 . S
H2856 C2864 0.929 . S
H2857 C2866 0.930 . S
H2858 C2868 0.930 . S
H2859 C2871 0.929 . S
H2860 C2874 0.930 . S
H2861 C2876 0.960 . S
H2862 C2876 0.960 . S
H2863 C2876 0.960 . S
C2864 H2856 0.929 . S
C2864 C2865 1.377 . S
C2864 C2866 1.384 . S
C2865 C2864 1.377 . S
C2865 C2871 1.390 . S
C2866 H2857 0.930 . S
C2866 C2864 1.384 . S
C2866 C2867 1.372 . S
C2867 C2866 1.372 . S
C2867 C2868 1.400 . S
C2867 C2872 1.490 . S
C2868 H2858 0.930 . S
C2868 C2867 1.400 . S
C2868 C2871 1.386 . S
H2869 C2885 0.930 . S
H2870 C2886 0.931 . S
C2871 H2859 0.929 . S
C2871 C2865 1.390 . S
C2871 C2868 1.386 . S
C2872 C2867 1.490 . S
C2872 C2874 1.395 . S
C2872 C2875 1.403 . S
H2873 C2879 0.930 . S
C2874 H2860 0.930 . S
C2874 C2872 1.395 . S
C2874 C2877 1.403 . S
C2875 C2872 1.403 . S
C2875 C2876 1.524 . S
C2875 C2879 1.400 . S
C2876 H2861 0.960 . S
C2876 H2862 0.960 . S
C2876 H2863 0.960 . S
C2876 C2875 1.524 . S
C2877 C2874 1.403 . S
C2877 C2878 1.392 . S
C2877 C2881 1.495 . S
C2878 C2877 1.392 . S
C2878 C2879 1.385 . S
C2878 C2880 1.478 . S
C2879 H2873 0.930 . S
C2879 C2875 1.400 . S
C2879 C2878 1.385 . S
C2880 C2878 1.478 . S
C2880 C2882 1.381 . S
C2880 C2886 1.383 . S
C2881 C2877 1.495 . S
C2881 H2887 0.959 . S
C2881 H2888 0.961 . S
C2881 H2889 0.960 . S
C2882 C2880 1.381 . S
C2882 C2883 1.394 . S
C2882 H2890 0.930 . S
C2883 C2882 1.394 . S
C2883 C2884 1.383 . S
C2883 H2891 0.929 . S
C2884 C2883 1.383 . S
C2884 C2885 1.377 . S
C2885 H2869 0.930 . S
C2885 C2884 1.377 . S
C2885 C2886 1.379 . S
C2886 H2870 0.931 . S
C2886 C2880 1.383 . S
C2886 C2885 1.379 . S
H2887 C2881 0.959 . S
H2888 C2881 0.961 . S
H2889 C2881 0.960 . S
H2890 C2882 0.930 . S
H2891 C2883 0.929 . S
H2892 C2900 0.929 . S
H2893 C2902 0.930 . S
H2894 C2904 0.930 . S
H2895 C2907 0.929 . S
H2896 C2910 0.930 . S
H2897 C2912 0.960 . S
H2898 C2912 0.960 . S
H2899 C2912 0.960 . S
C2900 H2892 0.929 . S
C2900 C2901 1.377 . S
C2900 C2902 1.384 . S
C2901 C2900 1.377 . S
C2901 C2907 1.390 . S
C2902 H2893 0.930 . S
C2902 C2900 1.384 . S
C2902 C2903 1.372 . S
C2903 C2902 1.372 . S
C2903 C2904 1.400 . S
C2903 C2908 1.490 . S
C2904 H2894 0.930 . S
C2904 C2903 1.400 . S
C2904 C2907 1.386 . S
H2905 C2921 0.930 . S
H2906 C2922 0.931 . S
C2907 H2895 0.929 . S
C2907 C2901 1.390 . S
C2907 C2904 1.386 . S
C2908 C2903 1.490 . S
C2908 C2910 1.395 . S
C2908 C2911 1.403 . S
H2909 C2915 0.930 . S
C2910 H2896 0.930 . S
C2910 C2908 1.395 . S
C2910 C2913 1.403 . S
C2911 C2908 1.403 . S
C2911 C2912 1.524 . S
C2911 C2915 1.400 . S
C2912 H2897 0.960 . S
C2912 H2898 0.960 . S
C2912 H2899 0.960 . S
C2912 C2911 1.524 . S
C2913 C2910 1.403 . S
C2913 C2914 1.392 . S
C2913 C2917 1.495 . S
C2914 C2913 1.392 . S
C2914 C2915 1.385 . S
C2914 C2916 1.478 . S
C2915 H2909 0.930 . S
C2915 C2911 1.400 . S
C2915 C2914 1.385 . S
C2916 C2914 1.478 . S
C2916 C2918 1.381 . S
C2916 C2922 1.383 . S
C2917 C2913 1.495 . S
C2917 H2923 0.959 . S
C2917 H2924 0.961 . S
C2917 H2925 0.960 . S
C2918 C2916 1.381 . S
C2918 C2919 1.394 . S
C2918 H2926 0.930 . S
C2919 C2918 1.394 . S
C2919 C2920 1.383 . S
C2919 H2927 0.929 . S
C2920 C2919 1.383 . S
C2920 C2921 1.377 . S
C2921 H2905 0.930 . S
C2921 C2920 1.377 . S
C2921 C2922 1.379 . S
C2922 H2906 0.931 . S
C2922 C2916 1.383 . S
C2922 C2921 1.379 . S
H2923 C2917 0.959 . S
H2924 C2917 0.961 . S
H2925 C2917 0.960 . S
H2926 C2918 0.930 . S
H2927 C2919 0.929 . S
H2928 C2936 0.929 . S
H2929 C2938 0.930 . S
H2930 C2940 0.930 . S
H2931 C2943 0.929 . S
H2932 C2946 0.930 . S
H2933 C2948 0.960 . S
H2934 C2948 0.960 . S
H2935 C2948 0.960 . S
C2936 H2928 0.929 . S
C2936 C2937 1.377 . S
C2936 C2938 1.384 . S
C2937 C2936 1.377 . S
C2937 C2943 1.390 . S
C2938 H2929 0.930 . S
C2938 C2936 1.384 . S
C2938 C2939 1.372 . S
C2939 C2938 1.372 . S
C2939 C2940 1.400 . S
C2939 C2944 1.490 . S
C2940 H2930 0.930 . S
C2940 C2939 1.400 . S
C2940 C2943 1.386 . S
H2941 C2957 0.930 . S
H2942 C2958 0.931 . S
C2943 H2931 0.929 . S
C2943 C2937 1.390 . S
C2943 C2940 1.386 . S
C2944 C2939 1.490 . S
C2944 C2946 1.395 . S
C2944 C2947 1.403 . S
H2945 C2951 0.930 . S
C2946 H2932 0.930 . S
C2946 C2944 1.395 . S
C2946 C2949 1.403 . S
C2947 C2944 1.403 . S
C2947 C2948 1.524 . S
C2947 C2951 1.400 . S
C2948 H2933 0.960 . S
C2948 H2934 0.960 . S
C2948 H2935 0.960 . S
C2948 C2947 1.524 . S
C2949 C2946 1.403 . S
C2949 C2950 1.392 . S
C2949 C2953 1.495 . S
C2950 C2949 1.392 . S
C2950 C2951 1.385 . S
C2950 C2952 1.478 . S
C2951 H2945 0.930 . S
C2951 C2947 1.400 . S
C2951 C2950 1.385 . S
C2952 C2950 1.478 . S
C2952 C2954 1.381 . S
C2952 C2958 1.383 . S
C2953 C2949 1.495 . S
C2953 H2959 0.959 . S
C2953 H2960 0.961 . S
C2953 H2961 0.960 . S
C2954 C2952 1.381 . S
C2954 C2955 1.394 . S
C2954 H2962 0.930 . S
C2955 C2954 1.394 . S
C2955 C2956 1.383 . S
C2955 H2963 0.929 . S
C2956 C2955 1.383 . S
C2956 C2957 1.377 . S
C2957 H2941 0.930 . S
C2957 C2956 1.377 . S
C2957 C2958 1.379 . S
C2958 H2942 0.931 . S
C2958 C2952 1.383 . S
C2958 C2957 1.379 . S
H2959 C2953 0.959 . S
H2960 C2953 0.961 . S
H2961 C2953 0.960 . S
H2962 C2954 0.930 . S
H2963 C2955 0.929 . S
H2964 C2972 0.929 . S
H2965 C2974 0.930 . S
H2966 C2976 0.930 . S
H2967 C2979 0.929 . S
H2968 C2982 0.930 . S
H2969 C2984 0.960 . S
H2970 C2984 0.960 . S
H2971 C2984 0.960 . S
C2972 H2964 0.929 . S
C2972 C2973 1.377 . S
C2972 C2974 1.384 . S
C2973 C2972 1.377 . S
C2973 C2979 1.390 . S
C2974 H2965 0.930 . S
C2974 C2972 1.384 . S
C2974 C2975 1.372 . S
C2975 C2974 1.372 . S
C2975 C2976 1.400 . S
C2975 C2980 1.490 . S
C2976 H2966 0.930 . S
C2976 C2975 1.400 . S
C2976 C2979 1.386 . S
H2977 C2993 0.930 . S
H2978 C2994 0.931 . S
C2979 H2967 0.929 . S
C2979 C2973 1.390 . S
C2979 C2976 1.386 . S
C2980 C2975 1.490 . S
C2980 C2982 1.395 . S
C2980 C2983 1.403 . S
H2981 C2987 0.930 . S
C2982 H2968 0.930 . S
C2982 C2980 1.395 . S
C2982 C2985 1.403 . S
C2983 C2980 1.403 . S
C2983 C2984 1.524 . S
C2983 C2987 1.400 . S
C2984 H2969 0.960 . S
C2984 H2970 0.960 . S
C2984 H2971 0.960 . S
C2984 C2983 1.524 . S
C2985 C2982 1.403 . S
C2985 C2986 1.392 . S
C2985 C2989 1.495 . S
C2986 C2985 1.392 . S
C2986 C2987 1.385 . S
C2986 C2988 1.478 . S
C2987 H2981 0.930 . S
C2987 C2983 1.400 . S
C2987 C2986 1.385 . S
C2988 C2986 1.478 . S
C2988 C2990 1.381 . S
C2988 C2994 1.383 . S
C2989 C2985 1.495 . S
C2989 H2995 0.959 . S
C2989 H2996 0.961 . S
C2989 H2997 0.960 . S
C2990 C2988 1.381 . S
C2990 C2991 1.394 . S
C2990 H2998 0.930 . S
C2991 C2990 1.394 . S
C2991 C2992 1.383 . S
C2991 H2999 0.929 . S
C2992 C2991 1.383 . S
C2992 C2993 1.377 . S
C2993 H2977 0.930 . S
C2993 C2992 1.377 . S
C2993 C2994 1.379 . S
C2994 H2978 0.931 . S
C2994 C2988 1.383 . S
C2994 C2993 1.379 . S
H2995 C2989 0.959 . S
H2996 C2989 0.961 . S
H2997 C2989 0.960 . S
H2998 C2990 0.930 . S
H2999 C2991 0.929 . S
H3000 C3008 0.929 . S
H3001 C3010 0.930 . S
H3002 C3012 0.930 . S
H3003 C3015 0.929 . S
H3004 C3018 0.930 . S
H3005 C3020 0.960 . S
H3006 C3020 0.960 . S
H3007 C3020 0.960 . S
C3008 H3000 0.929 . S
C3008 C3009 1.377 . S
C3008 C3010 1.384 . S
C3009 C3008 1.377 . S
C3009 C3015 1.390 . S
C3010 H3001 0.930 . S
C3010 C3008 1.384 . S
C3010 C3011 1.372 . S
C3011 C3010 1.372 . S
C3011 C3012 1.400 . S
C3011 C3016 1.490 . S
C3012 H3002 0.930 . S
C3012 C3011 1.400 . S
C3012 C3015 1.386 . S
H3013 C3029 0.930 . S
H3014 C3030 0.931 . S
C3015 H3003 0.929 . S
C3015 C3009 1.390 . S
C3015 C3012 1.386 . S
C3016 C3011 1.490 . S
C3016 C3018 1.395 . S
C3016 C3019 1.403 . S
H3017 C3023 0.930 . S
C3018 H3004 0.930 . S
C3018 C3016 1.395 . S
C3018 C3021 1.403 . S
C3019 C3016 1.403 . S
C3019 C3020 1.524 . S
C3019 C3023 1.400 . S
C3020 H3005 0.960 . S
C3020 H3006 0.960 . S
C3020 H3007 0.960 . S
C3020 C3019 1.524 . S
C3021 C3018 1.403 . S
C3021 C3022 1.392 . S
C3021 C3025 1.495 . S
C3022 C3021 1.392 . S
C3022 C3023 1.385 . S
C3022 C3024 1.478 . S
C3023 H3017 0.930 . S
C3023 C3019 1.400 . S
C3023 C3022 1.385 . S
C3024 C3022 1.478 . S
C3024 C3026 1.381 . S
C3024 C3030 1.383 . S
C3025 C3021 1.495 . S
C3025 H3031 0.959 . S
C3025 H3032 0.961 . S
C3025 H3033 0.960 . S
C3026 C3024 1.381 . S
C3026 C3027 1.394 . S
C3026 H3034 0.930 . S
C3027 C3026 1.394 . S
C3027 C3028 1.383 . S
C3027 H3035 0.929 . S
C3028 C3027 1.383 . S
C3028 C3029 1.377 . S
C3029 H3013 0.930 . S
C3029 C3028 1.377 . S
C3029 C3030 1.379 . S
C3030 H3014 0.931 . S
C3030 C3024 1.383 . S
C3030 C3029 1.379 . S
H3031 C3025 0.959 . S
H3032 C3025 0.961 . S
H3033 C3025 0.960 . S
H3034 C3026 0.930 . S
H3035 C3027 0.929 . S
H3036 C3044 0.929 . S
H3037 C3046 0.930 . S
H3038 C3048 0.930 . S
H3039 C3051 0.929 . S
H3040 C3054 0.930 . S
H3041 C3056 0.960 . S
H3042 C3056 0.960 . S
H3043 C3056 0.960 . S
C3044 H3036 0.929 . S
C3044 C3045 1.377 . S
C3044 C3046 1.384 . S
C3045 C3044 1.377 . S
C3045 C3051 1.390 . S
C3046 H3037 0.930 . S
C3046 C3044 1.384 . S
C3046 C3047 1.372 . S
C3047 C3046 1.372 . S
C3047 C3048 1.400 . S
C3047 C3052 1.490 . S
C3048 H3038 0.930 . S
C3048 C3047 1.400 . S
C3048 C3051 1.386 . S
H3049 C3065 0.930 . S
H3050 C3066 0.931 . S
C3051 H3039 0.929 . S
C3051 C3045 1.390 . S
C3051 C3048 1.386 . S
C3052 C3047 1.490 . S
C3052 C3054 1.395 . S
C3052 C3055 1.403 . S
H3053 C3059 0.930 . S
C3054 H3040 0.930 . S
C3054 C3052 1.395 . S
C3054 C3057 1.403 . S
C3055 C3052 1.403 . S
C3055 C3056 1.524 . S
C3055 C3059 1.400 . S
C3056 H3041 0.960 . S
C3056 H3042 0.960 . S
C3056 H3043 0.960 . S
C3056 C3055 1.524 . S
C3057 C3054 1.403 . S
C3057 C3058 1.392 . S
C3057 C3061 1.495 . S
C3058 C3057 1.392 . S
C3058 C3059 1.385 . S
C3058 C3060 1.478 . S
C3059 H3053 0.930 . S
C3059 C3055 1.400 . S
C3059 C3058 1.385 . S
C3060 C3058 1.478 . S
C3060 C3062 1.381 . S
C3060 C3066 1.383 . S
C3061 C3057 1.495 . S
C3061 H3067 0.959 . S
C3061 H3068 0.961 . S
C3061 H3069 0.960 . S
C3062 C3060 1.381 . S
C3062 C3063 1.394 . S
C3062 H3070 0.930 . S
C3063 C3062 1.394 . S
C3063 C3064 1.383 . S
C3063 H3071 0.929 . S
C3064 C3063 1.383 . S
C3064 C3065 1.377 . S
C3065 H3049 0.930 . S
C3065 C3064 1.377 . S
C3065 C3066 1.379 . S
C3066 H3050 0.931 . S
C3066 C3060 1.383 . S
C3066 C3065 1.379 . S
H3067 C3061 0.959 . S
H3068 C3061 0.961 . S
H3069 C3061 0.960 . S
H3070 C3062 0.930 . S
H3071 C3063 0.929 . S
H3072 C3080 0.929 . S
H3073 C3082 0.930 . S
H3074 C3084 0.930 . S
H3075 C3087 0.929 . S
H3076 C3090 0.930 . S
H3077 C3092 0.960 . S
H3078 C3092 0.960 . S
H3079 C3092 0.960 . S
C3080 H3072 0.929 . S
C3080 C3081 1.377 . S
C3080 C3082 1.384 . S
C3081 C3080 1.377 . S
C3081 C3087 1.390 . S
C3082 H3073 0.930 . S
C3082 C3080 1.384 . S
C3082 C3083 1.372 . S
C3083 C3082 1.372 . S
C3083 C3084 1.400 . S
C3083 C3088 1.490 . S
C3084 H3074 0.930 . S
C3084 C3083 1.400 . S
C3084 C3087 1.386 . S
H3085 C3101 0.930 . S
H3086 C3102 0.931 . S
C3087 H3075 0.929 . S
C3087 C3081 1.390 . S
C3087 C3084 1.386 . S
C3088 C3083 1.490 . S
C3088 C3090 1.395 . S
C3088 C3091 1.403 . S
H3089 C3095 0.930 . S
C3090 H3076 0.930 . S
C3090 C3088 1.395 . S
C3090 C3093 1.403 . S
C3091 C3088 1.403 . S
C3091 C3092 1.524 . S
C3091 C3095 1.400 . S
C3092 H3077 0.960 . S
C3092 H3078 0.960 . S
C3092 H3079 0.960 . S
C3092 C3091 1.524 . S
C3093 C3090 1.403 . S
C3093 C3094 1.392 . S
C3093 C3097 1.495 . S
C3094 C3093 1.392 . S
C3094 C3095 1.385 . S
C3094 C3096 1.478 . S
C3095 H3089 0.930 . S
C3095 C3091 1.400 . S
C3095 C3094 1.385 . S
C3096 C3094 1.478 . S
C3096 C3098 1.381 . S
C3096 C3102 1.383 . S
C3097 C3093 1.495 . S
C3097 H3103 0.959 1_455 S
C3097 H3104 0.961 . S
C3097 H3105 0.960 1_455 S
C3098 C3096 1.381 . S
C3098 C3099 1.394 . S
C3098 H3106 0.930 . S
C3099 C3098 1.394 . S
C3099 C3100 1.383 . S
C3099 H3107 0.929 . S
C3100 C3099 1.383 . S
C3100 C3101 1.377 . S
C3101 H3085 0.930 . S
C3101 C3100 1.377 . S
C3101 C3102 1.379 . S
C3102 H3086 0.931 . S
C3102 C3096 1.383 . S
C3102 C3101 1.379 . S
H3103 C3097 0.959 1_655 S
H3104 C3097 0.961 . S
H3105 C3097 0.960 1_655 S
H3106 C3098 0.930 . S
H3107 C3099 0.929 . S
H3108 C3116 0.929 . S
H3109 C3118 0.930 . S
H3110 C3120 0.930 . S
H3111 C3123 0.929 . S
H3112 C3126 0.930 . S
H3113 C3128 0.960 . S
H3114 C3128 0.960 . S
H3115 C3128 0.960 . S
C3116 H3108 0.929 . S
C3116 C3117 1.377 . S
C3116 C3118 1.384 . S
C3117 C3116 1.377 . S
C3117 C3123 1.390 . S
C3118 H3109 0.930 . S
C3118 C3116 1.384 . S
C3118 C3119 1.372 . S
C3119 C3118 1.372 . S
C3119 C3120 1.400 . S
C3119 C3124 1.490 . S
C3120 H3110 0.930 . S
C3120 C3119 1.400 . S
C3120 C3123 1.386 . S
H3121 C3137 0.930 . S
H3122 C3138 0.931 . S
C3123 H3111 0.929 . S
C3123 C3117 1.390 . S
C3123 C3120 1.386 . S
C3124 C3119 1.490 . S
C3124 C3126 1.395 . S
C3124 C3127 1.403 . S
H3125 C3131 0.930 . S
C3126 H3112 0.930 . S
C3126 C3124 1.395 . S
C3126 C3129 1.403 . S
C3127 C3124 1.403 . S
C3127 C3128 1.524 . S
C3127 C3131 1.400 . S
C3128 H3113 0.960 . S
C3128 H3114 0.960 . S
C3128 H3115 0.960 . S
C3128 C3127 1.524 . S
C3129 C3126 1.403 . S
C3129 C3130 1.392 . S
C3129 C3133 1.495 . S
C3130 C3129 1.392 . S
C3130 C3131 1.385 . S
C3130 C3132 1.478 . S
C3131 H3125 0.930 . S
C3131 C3127 1.400 . S
C3131 C3130 1.385 . S
C3132 C3130 1.478 . S
C3132 C3134 1.381 . S
C3132 C3138 1.383 . S
C3133 C3129 1.495 . S
C3133 H3139 0.959 . S
C3133 H3140 0.961 . S
C3133 H3141 0.960 . S
C3134 C3132 1.381 . S
C3134 C3135 1.394 . S
C3134 H3142 0.930 . S
C3135 C3134 1.394 . S
C3135 C3136 1.383 . S
C3135 H3143 0.929 . S
C3136 C3135 1.383 . S
C3136 C3137 1.377 . S
C3137 H3121 0.930 . S
C3137 C3136 1.377 . S
C3137 C3138 1.379 . S
C3138 H3122 0.931 . S
C3138 C3132 1.383 . S
C3138 C3137 1.379 . S
H3139 C3133 0.959 . S
H3140 C3133 0.961 . S
H3141 C3133 0.960 . S
H3142 C3134 0.930 . S
H3143 C3135 0.929 . S
H3144 C3152 0.929 . S
H3145 C3154 0.930 . S
H3146 C3156 0.930 . S
H3147 C3159 0.929 . S
H3148 C3162 0.930 . S
H3149 C3164 0.960 . S
H3150 C3164 0.960 . S
H3151 C3164 0.960 . S
C3152 H3144 0.929 . S
C3152 C3153 1.377 . S
C3152 C3154 1.384 . S
C3153 C3152 1.377 . S
C3153 C3159 1.390 . S
C3154 H3145 0.930 . S
C3154 C3152 1.384 . S
C3154 C3155 1.372 . S
C3155 C3154 1.372 . S
C3155 C3156 1.400 . S
C3155 C3160 1.490 . S
C3156 H3146 0.930 . S
C3156 C3155 1.400 . S
C3156 C3159 1.386 . S
H3157 C3173 0.930 . S
H3158 C3174 0.931 . S
C3159 H3147 0.929 . S
C3159 C3153 1.390 . S
C3159 C3156 1.386 . S
C3160 C3155 1.490 . S
C3160 C3162 1.395 . S
C3160 C3163 1.403 . S
H3161 C3167 0.930 . S
C3162 H3148 0.930 . S
C3162 C3160 1.395 . S
C3162 C3165 1.403 . S
C3163 C3160 1.403 . S
C3163 C3164 1.524 . S
C3163 C3167 1.400 . S
C3164 H3149 0.960 . S
C3164 H3150 0.960 . S
C3164 H3151 0.960 . S
C3164 C3163 1.524 . S
C3165 C3162 1.403 . S
C3165 C3166 1.392 . S
C3165 C3169 1.495 . S
C3166 C3165 1.392 . S
C3166 C3167 1.385 . S
C3166 C3168 1.478 . S
C3167 H3161 0.930 . S
C3167 C3163 1.400 . S
C3167 C3166 1.385 . S
C3168 C3166 1.478 . S
C3168 C3170 1.381 . S
C3168 C3174 1.383 . S
C3169 C3165 1.495 . S
C3169 H3175 0.959 . S
C3169 H3176 0.961 . S
C3169 H3177 0.960 . S
C3170 C3168 1.381 . S
C3170 C3171 1.394 . S
C3170 H3178 0.930 . S
C3171 C3170 1.394 . S
C3171 C3172 1.383 . S
C3171 H3179 0.929 . S
C3172 C3171 1.383 . S
C3172 C3173 1.377 . S
C3173 H3157 0.930 . S
C3173 C3172 1.377 . S
C3173 C3174 1.379 . S
C3174 H3158 0.931 . S
C3174 C3168 1.383 . S
C3174 C3173 1.379 . S
H3175 C3169 0.959 . S
H3176 C3169 0.961 . S
H3177 C3169 0.960 . S
H3178 C3170 0.930 . S
H3179 C3171 0.929 . S
H3180 C3188 0.929 . S
H3181 C3190 0.930 . S
H3182 C3192 0.930 . S
H3183 C3195 0.929 . S
H3184 C3198 0.930 . S
H3185 C3200 0.960 . S
H3186 C3200 0.960 . S
H3187 C3200 0.960 . S
C3188 H3180 0.929 . S
C3188 C3189 1.377 . S
C3188 C3190 1.384 . S
C3189 C3188 1.377 . S
C3189 C3195 1.390 . S
C3190 H3181 0.930 . S
C3190 C3188 1.384 . S
C3190 C3191 1.372 . S
C3191 C3190 1.372 . S
C3191 C3192 1.400 . S
C3191 C3196 1.490 . S
C3192 H3182 0.930 . S
C3192 C3191 1.400 . S
C3192 C3195 1.386 . S
H3193 C3209 0.930 . S
H3194 C3210 0.931 . S
C3195 H3183 0.929 . S
C3195 C3189 1.390 . S
C3195 C3192 1.386 . S
C3196 C3191 1.490 . S
C3196 C3198 1.395 . S
C3196 C3199 1.403 . S
H3197 C3203 0.930 . S
C3198 H3184 0.930 . S
C3198 C3196 1.395 . S
C3198 C3201 1.403 . S
C3199 C3196 1.403 . S
C3199 C3200 1.524 . S
C3199 C3203 1.400 . S
C3200 H3185 0.960 . S
C3200 H3186 0.960 . S
C3200 H3187 0.960 . S
C3200 C3199 1.524 . S
C3201 C3198 1.403 . S
C3201 C3202 1.392 . S
C3201 C3205 1.495 . S
C3202 C3201 1.392 . S
C3202 C3203 1.385 . S
C3202 C3204 1.478 . S
C3203 H3197 0.930 . S
C3203 C3199 1.400 . S
C3203 C3202 1.385 . S
C3204 C3202 1.478 . S
C3204 C3206 1.381 . S
C3204 C3210 1.383 . S
C3205 C3201 1.495 . S
C3205 H3211 0.959 . S
C3205 H3212 0.961 . S
C3205 H3213 0.960 . S
C3206 C3204 1.381 . S
C3206 C3207 1.394 . S
C3206 H3214 0.930 . S
C3207 C3206 1.394 . S
C3207 C3208 1.383 . S
C3207 H3215 0.929 . S
C3208 C3207 1.383 . S
C3208 C3209 1.377 . S
C3209 H3193 0.930 . S
C3209 C3208 1.377 . S
C3209 C3210 1.379 . S
C3210 H3194 0.931 . S
C3210 C3204 1.383 . S
C3210 C3209 1.379 . S
H3211 C3205 0.959 . S
H3212 C3205 0.961 . S
H3213 C3205 0.960 . S
H3214 C3206 0.930 . S
H3215 C3207 0.929 . S
H3216 C3224 0.929 . S
H3217 C3226 0.930 . S
H3218 C3228 0.930 . S
H3219 C3231 0.929 . S
H3220 C3234 0.930 . S
H3221 C3236 0.964 . S
H3222 C3236 0.960 1_655 S
H3223 C3236 0.960 . S
C3224 H3216 0.929 . S
C3224 C3225 1.377 . S
C3224 C3226 1.384 . S
C3225 C3224 1.377 . S
C3225 C3231 1.390 . S
C3226 H3217 0.930 . S
C3226 C3224 1.384 . S
C3226 C3227 1.372 . S
C3227 C3226 1.372 . S
C3227 C3228 1.400 . S
C3227 C3232 1.490 . S
C3228 H3218 0.930 . S
C3228 C3227 1.400 . S
C3228 C3231 1.386 . S
H3229 C3245 0.930 . S
H3230 C3246 0.931 . S
C3231 H3219 0.929 . S
C3231 C3225 1.390 . S
C3231 C3228 1.386 . S
C3232 C3227 1.490 . S
C3232 C3234 1.395 . S
C3232 C3235 1.403 . S
H3233 C3239 0.930 . S
C3234 H3220 0.930 . S
C3234 C3232 1.395 . S
C3234 C3237 1.403 . S
C3235 C3232 1.403 . S
C3235 C3236 1.524 . S
C3235 C3239 1.400 . S
C3236 H3221 0.964 . S
C3236 H3222 0.960 1_455 S
C3236 H3223 0.960 . S
C3236 C3235 1.524 . S
C3237 C3234 1.403 . S
C3237 C3238 1.392 . S
C3237 C3241 1.495 . S
C3238 C3237 1.392 . S
C3238 C3239 1.385 . S
C3238 C3240 1.478 . S
C3239 H3233 0.930 . S
C3239 C3235 1.400 . S
C3239 C3238 1.385 . S
C3240 C3238 1.478 . S
C3240 C3242 1.381 . S
C3240 C3246 1.383 . S
C3241 C3237 1.495 . S
C3241 H3247 0.959 . S
C3241 H3248 0.961 . S
C3241 H3249 0.960 . S
C3242 C3240 1.381 . S
C3242 C3243 1.394 . S
C3242 H3250 0.930 . S
C3243 C3242 1.394 . S
C3243 C3244 1.383 . S
C3243 H3251 0.929 . S
C3244 C3243 1.383 . S
C3244 C3245 1.377 . S
C3245 H3229 0.930 . S
C3245 C3244 1.377 . S
C3245 C3246 1.379 . S
C3246 H3230 0.931 . S
C3246 C3240 1.383 . S
C3246 C3245 1.379 . S
H3247 C3241 0.959 . S
H3248 C3241 0.961 . S
H3249 C3241 0.960 . S
H3250 C3242 0.930 . S
H3251 C3243 0.929 . S
H3252 C3260 0.929 . S
H3253 C3262 0.930 . S
H3254 C3264 0.930 . S
H3255 C3267 0.929 . S
H3256 C3270 0.930 . S
H3257 C3272 0.960 . S
H3258 C3272 0.960 . S
H3259 C3272 0.960 . S
C3260 H3252 0.929 . S
C3260 C3261 1.377 . S
C3260 C3262 1.384 . S
C3261 C3260 1.377 . S
C3261 C3267 1.390 . S
C3262 H3253 0.930 . S
C3262 C3260 1.384 . S
C3262 C3263 1.372 . S
C3263 C3262 1.372 . S
C3263 C3264 1.400 . S
C3263 C3268 1.490 . S
C3264 H3254 0.930 . S
C3264 C3263 1.400 . S
C3264 C3267 1.386 . S
H3265 C3281 0.930 . S
H3266 C3282 0.931 . S
C3267 H3255 0.929 . S
C3267 C3261 1.390 . S
C3267 C3264 1.386 . S
C3268 C3263 1.490 . S
C3268 C3270 1.395 . S
C3268 C3271 1.403 . S
H3269 C3275 0.930 . S
C3270 H3256 0.930 . S
C3270 C3268 1.395 . S
C3270 C3273 1.403 . S
C3271 C3268 1.403 . S
C3271 C3272 1.524 . S
C3271 C3275 1.400 . S
C3272 H3257 0.960 . S
C3272 H3258 0.960 . S
C3272 H3259 0.960 . S
C3272 C3271 1.524 . S
C3273 C3270 1.403 . S
C3273 C3274 1.392 . S
C3273 C3277 1.495 . S
C3274 C3273 1.392 . S
C3274 C3275 1.385 . S
C3274 C3276 1.478 . S
C3275 H3269 0.930 . S
C3275 C3271 1.400 . S
C3275 C3274 1.385 . S
C3276 C3274 1.478 . S
C3276 C3278 1.381 . S
C3276 C3282 1.383 . S
C3277 C3273 1.495 . S
C3277 H3283 0.959 . S
C3277 H3284 0.961 . S
C3277 H3285 0.960 . S
C3278 C3276 1.381 . S
C3278 C3279 1.394 . S
C3278 H3286 0.930 . S
C3279 C3278 1.394 . S
C3279 C3280 1.383 . S
C3279 H3287 0.929 . S
C3280 C3279 1.383 . S
C3280 C3281 1.377 . S
C3281 H3265 0.930 . S
C3281 C3280 1.377 . S
C3281 C3282 1.379 . S
C3282 H3266 0.931 . S
C3282 C3276 1.383 . S
C3282 C3281 1.379 . S
H3283 C3277 0.959 . S
H3284 C3277 0.961 . S
H3285 C3277 0.960 . S
H3286 C3278 0.930 . S
H3287 C3279 0.929 . S
H3288 C3296 0.929 . S
H3289 C3298 0.930 . S
H3290 C3300 0.930 . S
H3291 C3303 0.929 . S
H3292 C3306 0.930 . S
H3293 C3308 0.960 . S
H3294 C3308 0.960 . S
H3295 C3308 0.960 . S
C3296 H3288 0.929 . S
C3296 C3297 1.377 . S
C3296 C3298 1.384 . S
C3297 C3296 1.377 . S
C3297 C3303 1.390 . S
C3298 H3289 0.930 . S
C3298 C3296 1.384 . S
C3298 C3299 1.372 . S
C3299 C3298 1.372 . S
C3299 C3300 1.400 . S
C3299 C3304 1.490 . S
C3300 H3290 0.930 . S
C3300 C3299 1.400 . S
C3300 C3303 1.386 . S
H3301 C3317 0.930 . S
H3302 C3318 0.931 . S
C3303 H3291 0.929 . S
C3303 C3297 1.390 . S
C3303 C3300 1.386 . S
C3304 C3299 1.490 . S
C3304 C3306 1.395 . S
C3304 C3307 1.403 . S
H3305 C3311 0.930 . S
C3306 H3292 0.930 . S
C3306 C3304 1.395 . S
C3306 C3309 1.403 . S
C3307 C3304 1.403 . S
C3307 C3308 1.524 . S
C3307 C3311 1.400 . S
C3308 H3293 0.960 . S
C3308 H3294 0.960 . S
C3308 H3295 0.960 . S
C3308 C3307 1.524 . S
C3309 C3306 1.403 . S
C3309 C3310 1.392 . S
C3309 C3313 1.495 . S
C3310 C3309 1.392 . S
C3310 C3311 1.385 . S
C3310 C3312 1.478 . S
C3311 H3305 0.930 . S
C3311 C3307 1.400 . S
C3311 C3310 1.385 . S
C3312 C3310 1.478 . S
C3312 C3314 1.381 . S
C3312 C3318 1.383 . S
C3313 C3309 1.495 . S
C3313 H3319 0.959 . S
C3313 H3320 0.961 . S
C3313 H3321 0.960 . S
C3314 C3312 1.381 . S
C3314 C3315 1.394 . S
C3314 H3322 0.930 . S
C3315 C3314 1.394 . S
C3315 C3316 1.383 . S
C3315 H3323 0.929 . S
C3316 C3315 1.383 . S
C3316 C3317 1.377 . S
C3317 H3301 0.930 . S
C3317 C3316 1.377 . S
C3317 C3318 1.379 . S
C3318 H3302 0.931 . S
C3318 C3312 1.383 . S
C3318 C3317 1.379 . S
H3319 C3313 0.959 . S
H3320 C3313 0.961 . S
H3321 C3313 0.960 . S
H3322 C3314 0.930 . S
H3323 C3315 0.929 . S
H3324 C3332 0.929 . S
H3325 C3334 0.930 . S
H3326 C3336 0.930 . S
H3327 C3339 0.929 . S
H3328 C3342 0.930 . S
H3329 C3344 0.960 . S
H3330 C3344 0.960 . S
H3331 C3344 0.960 . S
C3332 H3324 0.929 . S
C3332 C3333 1.377 . S
C3332 C3334 1.384 . S
C3333 C3332 1.377 . S
C3333 C3339 1.390 . S
C3334 H3325 0.930 . S
C3334 C3332 1.384 . S
C3334 C3335 1.372 . S
C3335 C3334 1.372 . S
C3335 C3336 1.400 . S
C3335 C3340 1.490 . S
C3336 H3326 0.930 . S
C3336 C3335 1.400 . S
C3336 C3339 1.386 . S
H3337 C3353 0.930 . S
H3338 C3354 0.931 . S
C3339 H3327 0.929 . S
C3339 C3333 1.390 . S
C3339 C3336 1.386 . S
C3340 C3335 1.490 . S
C3340 C3342 1.395 . S
C3340 C3343 1.403 . S
H3341 C3347 0.930 . S
C3342 H3328 0.930 . S
C3342 C3340 1.395 . S
C3342 C3345 1.403 . S
C3343 C3340 1.403 . S
C3343 C3344 1.524 . S
C3343 C3347 1.400 . S
C3344 H3329 0.960 . S
C3344 H3330 0.960 . S
C3344 H3331 0.960 . S
C3344 C3343 1.524 . S
C3345 C3342 1.403 . S
C3345 C3346 1.392 . S
C3345 C3349 1.495 . S
C3346 C3345 1.392 . S
C3346 C3347 1.385 . S
C3346 C3348 1.478 . S
C3347 H3341 0.930 . S
C3347 C3343 1.400 . S
C3347 C3346 1.385 . S
C3348 C3346 1.478 . S
C3348 C3350 1.381 . S
C3348 C3354 1.383 . S
C3349 C3345 1.495 . S
C3349 H3355 0.959 . S
C3349 H3356 0.961 . S
C3349 H3357 0.960 . S
C3350 C3348 1.381 . S
C3350 C3351 1.394 . S
C3350 H3358 0.930 . S
C3351 C3350 1.394 . S
C3351 C3352 1.383 . S
C3351 H3359 0.929 . S
C3352 C3351 1.383 . S
C3352 C3353 1.377 . S
C3353 H3337 0.930 . S
C3353 C3352 1.377 . S
C3353 C3354 1.379 . S
C3354 H3338 0.931 . S
C3354 C3348 1.383 . S
C3354 C3353 1.379 . S
H3355 C3349 0.959 . S
H3356 C3349 0.961 . S
H3357 C3349 0.960 . S
H3358 C3350 0.930 . S
H3359 C3351 0.929 . S
H3360 C3368 0.929 . S
H3361 C3370 0.877 1_565 S
H3362 C3372 0.930 . S
H3363 C3375 0.929 . S
H3364 C3378 0.930 . S
H3365 C3380 0.960 . S
H3366 C3380 0.960 . S
H3367 C3380 0.960 . S
C3368 H3360 0.929 . S
C3368 C3369 1.377 . S
C3368 C3370 1.384 . S
C3369 C3368 1.377 . S
C3369 C3375 1.390 . S
C3370 H3361 0.877 1_545 S
C3370 C3368 1.384 . S
C3370 C3371 1.372 . S
C3371 C3370 1.372 . S
C3371 C3372 1.400 . S
C3371 C3376 1.490 . S
C3372 H3362 0.930 . S
C3372 C3371 1.400 . S
C3372 C3375 1.386 . S
H3373 C3389 0.930 . S
H3374 C3390 0.931 . S
C3375 H3363 0.929 . S
C3375 C3369 1.390 . S
C3375 C3372 1.386 . S
C3376 C3371 1.490 . S
C3376 C3378 1.395 . S
C3376 C3379 1.403 . S
H3377 C3383 0.930 . S
C3378 H3364 0.930 . S
C3378 C3376 1.395 . S
C3378 C3381 1.403 . S
C3379 C3376 1.403 . S
C3379 C3380 1.524 . S
C3379 C3383 1.400 . S
C3380 H3365 0.960 . S
C3380 H3366 0.960 . S
C3380 H3367 0.960 . S
C3380 C3379 1.524 . S
C3381 C3378 1.403 . S
C3381 C3382 1.392 . S
C3381 C3385 1.495 . S
C3382 C3381 1.392 . S
C3382 C3383 1.385 . S
C3382 C3384 1.478 . S
C3383 H3377 0.930 . S
C3383 C3379 1.400 . S
C3383 C3382 1.385 . S
C3384 C3382 1.478 . S
C3384 C3386 1.340 1_545 S
C3384 C3390 1.383 . S
C3385 C3381 1.495 . S
C3385 H3391 0.959 . S
C3385 H3392 0.961 . S
C3385 H3393 0.960 1_545 S
C3386 C3384 1.340 1_565 S
C3386 C3387 1.399 . S
C3386 H3394 0.969 . S
C3387 C3386 1.399 . S
C3387 C3388 1.383 1_565 S
C3387 H3395 0.929 . S
C3388 C3387 1.383 1_545 S
C3388 C3389 1.377 . S
C3389 H3373 0.930 . S
C3389 C3388 1.377 . S
C3389 C3390 1.379 . S
C3390 H3374 0.931 . S
C3390 C3384 1.383 . S
C3390 C3389 1.379 . S
H3391 C3385 0.959 . S
H3392 C3385 0.961 . S
H3393 C3385 0.960 1_565 S
H3394 C3386 0.969 . S
H3395 C3387 0.929 . S
H3396 C3404 0.929 . S
H3397 C3406 0.930 . S
H3398 C3408 0.930 . S
H3399 C3411 0.929 . S
H3400 C3414 0.930 . S
H3401 C3416 0.960 . S
H3402 C3416 0.960 . S
H3403 C3416 0.960 . S
C3404 H3396 0.929 . S
C3404 C3405 1.377 . S
C3404 C3406 1.384 . S
C3405 C3404 1.377 . S
C3405 C3411 1.390 . S
C3406 H3397 0.930 . S
C3406 C3404 1.384 . S
C3406 C3407 1.372 . S
C3407 C3406 1.372 . S
C3407 C3408 1.400 . S
C3407 C3412 1.490 . S
C3408 H3398 0.930 . S
C3408 C3407 1.400 . S
C3408 C3411 1.386 . S
H3409 C3425 0.930 . S
H3410 C3426 0.931 . S
C3411 H3399 0.929 . S
C3411 C3405 1.390 . S
C3411 C3408 1.386 . S
C3412 C3407 1.490 . S
C3412 C3414 1.395 . S
C3412 C3415 1.403 . S
H3413 C3419 0.930 . S
C3414 H3400 0.930 . S
C3414 C3412 1.395 . S
C3414 C3417 1.403 . S
C3415 C3412 1.403 . S
C3415 C3416 1.524 . S
C3415 C3419 1.400 . S
C3416 H3401 0.960 . S
C3416 H3402 0.960 . S
C3416 H3403 0.960 . S
C3416 C3415 1.524 . S
C3417 C3414 1.403 . S
C3417 C3418 1.392 . S
C3417 C3421 1.495 . S
C3418 C3417 1.392 . S
C3418 C3419 1.385 . S
C3418 C3420 1.478 . S
C3419 H3413 0.930 . S
C3419 C3415 1.400 . S
C3419 C3418 1.385 . S
C3420 C3418 1.478 . S
C3420 C3422 1.381 . S
C3420 C3426 1.383 . S
C3421 C3417 1.495 . S
C3421 H3427 0.959 . S
C3421 H3428 0.961 . S
C3421 H3429 0.960 . S
C3422 C3420 1.381 . S
C3422 C3423 1.394 . S
C3422 H3430 0.930 . S
C3423 C3422 1.394 . S
C3423 C3424 1.383 . S
C3423 H3431 0.929 . S
C3424 C3423 1.383 . S
C3424 C3425 1.377 . S
C3425 H3409 0.930 . S
C3425 C3424 1.377 . S
C3425 C3426 1.379 . S
C3426 H3410 0.931 . S
C3426 C3420 1.383 . S
C3426 C3425 1.379 . S
H3427 C3421 0.959 . S
H3428 C3421 0.961 . S
H3429 C3421 0.960 . S
H3430 C3422 0.930 . S
H3431 C3423 0.929 . S
H3432 C3440 0.914 1_565 S
H3433 C3442 0.930 1_565 S
H3434 C3444 0.930 . S
H3435 C3447 0.929 . S
H3436 C3450 0.930 . S
H3437 C3452 0.960 . S
H3438 C3452 0.960 . S
H3439 C3452 0.960 . S
C3440 H3432 0.914 1_545 S
C3440 C3441 1.395 . S
C3440 C3442 1.381 . S
C3441 C3440 1.395 . S
C3441 C3447 1.390 . S
C3442 H3433 0.930 1_545 S
C3442 C3440 1.381 . S
C3442 C3443 1.372 . S
C3443 C3442 1.372 . S
C3443 C3444 1.400 . S
C3443 C3448 1.490 . S
C3444 H3434 0.930 . S
C3444 C3443 1.400 . S
C3444 C3447 1.386 . S
H3445 C3461 0.930 . S
H3446 C3462 0.931 . S
C3447 H3435 0.929 . S
C3447 C3441 1.390 . S
C3447 C3444 1.386 . S
C3448 C3443 1.490 . S
C3448 C3450 1.395 . S
C3448 C3451 1.403 . S
H3449 C3455 0.930 . S
C3450 H3436 0.930 . S
C3450 C3448 1.395 . S
C3450 C3453 1.403 . S
C3451 C3448 1.403 . S
C3451 C3452 1.524 . S
C3451 C3455 1.400 . S
C3452 H3437 0.960 . S
C3452 H3438 0.960 . S
C3452 H3439 0.960 . S
C3452 C3451 1.524 . S
C3453 C3450 1.403 . S
C3453 C3454 1.392 . S
C3453 C3457 1.495 . S
C3454 C3453 1.392 . S
C3454 C3455 1.385 . S
C3454 C3456 1.478 . S
C3455 H3449 0.930 . S
C3455 C3451 1.400 . S
C3455 C3454 1.385 . S
C3456 C3454 1.478 . S
C3456 C3458 1.381 . S
C3456 C3462 1.383 . S
C3457 C3453 1.495 . S
C3457 H3463 0.959 . S
C3457 H3464 0.961 . S
C3457 H3465 0.960 . S
C3458 C3456 1.381 . S
C3458 C3459 1.394 . S
C3458 H3466 0.930 1_545 S
C3459 C3458 1.394 . S
C3459 C3460 1.383 . S
C3459 H3467 0.929 . S
C3460 C3459 1.383 . S
C3460 C3461 1.377 . S
C3461 H3445 0.930 . S
C3461 C3460 1.377 . S
C3461 C3462 1.379 . S
C3462 H3446 0.931 . S
C3462 C3456 1.383 . S
C3462 C3461 1.379 . S
H3463 C3457 0.959 . S
H3464 C3457 0.961 . S
H3465 C3457 0.960 . S
H3466 C3458 0.930 1_565 S
H3467 C3459 0.929 . S
H3468 C3476 0.929 . S
H3469 C3478 0.930 . S
H3470 C3480 0.930 . S
H3471 C3483 0.929 . S
H3472 C3486 0.930 . S
H3473 C3488 0.960 . S
H3474 C3488 0.960 . S
H3475 C3488 0.960 . S
C3476 H3468 0.929 . S
C3476 C3477 1.377 . S
C3476 C3478 1.384 . S
C3477 C3476 1.377 . S
C3477 C3483 1.390 . S
C3478 H3469 0.930 . S
C3478 C3476 1.384 . S
C3478 C3479 1.372 . S
C3479 C3478 1.372 . S
C3479 C3480 1.400 . S
C3479 C3484 1.490 . S
C3480 H3470 0.930 . S
C3480 C3479 1.400 . S
C3480 C3483 1.386 . S
H3481 C3497 0.930 . S
H3482 C3498 0.931 . S
C3483 H3471 0.929 . S
C3483 C3477 1.390 . S
C3483 C3480 1.386 . S
C3484 C3479 1.490 . S
C3484 C3486 1.395 . S
C3484 C3487 1.403 . S
H3485 C3491 0.930 . S
C3486 H3472 0.930 . S
C3486 C3484 1.395 . S
C3486 C3489 1.403 . S
C3487 C3484 1.403 . S
C3487 C3488 1.524 . S
C3487 C3491 1.400 . S
C3488 H3473 0.960 . S
C3488 H3474 0.960 . S
C3488 H3475 0.960 . S
C3488 C3487 1.524 . S
C3489 C3486 1.403 . S
C3489 C3490 1.392 . S
C3489 C3493 1.495 . S
C3490 C3489 1.392 . S
C3490 C3491 1.385 . S
C3490 C3492 1.478 . S
C3491 H3485 0.930 . S
C3491 C3487 1.400 . S
C3491 C3490 1.385 . S
C3492 C3490 1.478 . S
C3492 C3494 1.381 . S
C3492 C3498 1.383 . S
C3493 C3489 1.495 . S
C3493 H3499 0.959 . S
C3493 H3500 0.961 . S
C3493 H3501 0.960 . S
C3494 C3492 1.381 . S
C3494 C3495 1.394 . S
C3494 H3502 0.930 . S
C3495 C3494 1.394 . S
C3495 C3496 1.383 . S
C3495 H3503 0.929 . S
C3496 C3495 1.383 . S
C3496 C3497 1.377 . S
C3497 H3481 0.930 . S
C3497 C3496 1.377 . S
C3497 C3498 1.379 . S
C3498 H3482 0.931 . S
C3498 C3492 1.383 . S
C3498 C3497 1.379 . S
H3499 C3493 0.959 . S
H3500 C3493 0.961 . S
H3501 C3493 0.960 . S
H3502 C3494 0.930 . S
H3503 C3495 0.929 . S
H3504 C3512 0.929 . S
H3505 C3514 0.930 . S
H3506 C3516 0.930 . S
H3507 C3519 0.929 . S
H3508 C3522 0.936 1_565 S
H3509 C3524 0.960 . S
H3510 C3524 0.960 . S
H3511 C3524 0.960 . S
C3512 H3504 0.929 . S
C3512 C3513 1.377 . S
C3512 C3514 1.384 . S
C3513 C3512 1.377 . S
C3513 C3519 1.390 . S
C3514 H3505 0.930 . S
C3514 C3512 1.384 . S
C3514 C3515 1.372 . S
C3515 C3514 1.372 . S
C3515 C3516 1.400 . S
C3515 C3520 1.490 . S
C3516 H3506 0.930 . S
C3516 C3515 1.400 . S
C3516 C3519 1.386 . S
H3517 C3533 0.930 . S
H3518 C3534 0.931 . S
C3519 H3507 0.929 . S
C3519 C3513 1.390 . S
C3519 C3516 1.386 . S
C3520 C3515 1.490 . S
C3520 C3522 1.395 . S
C3520 C3523 1.403 . S
H3521 C3527 0.930 . S
C3522 H3508 0.936 1_545 S
C3522 C3520 1.395 . S
C3522 C3525 1.403 . S
C3523 C3520 1.403 . S
C3523 C3524 1.524 . S
C3523 C3527 1.400 . S
C3524 H3509 0.960 . S
C3524 H3510 0.960 . S
C3524 H3511 0.960 . S
C3524 C3523 1.524 . S
C3525 C3522 1.403 . S
C3525 C3526 1.392 . S
C3525 C3529 1.495 1_545 S
C3526 C3525 1.392 . S
C3526 C3527 1.385 . S
C3526 C3528 1.478 . S
C3527 H3521 0.930 . S
C3527 C3523 1.400 . S
C3527 C3526 1.385 . S
C3528 C3526 1.478 . S
C3528 C3530 1.381 . S
C3528 C3534 1.383 . S
C3529 C3525 1.495 1_565 S
C3529 H3535 0.959 . S
C3529 H3536 0.961 . S
C3529 H3537 0.960 . S
C3530 C3528 1.381 . S
C3530 C3531 1.394 . S
C3530 H3538 0.930 . S
C3531 C3530 1.394 . S
C3531 C3532 1.383 . S
C3531 H3539 0.929 . S
C3532 C3531 1.383 . S
C3532 C3533 1.377 . S
C3533 H3517 0.930 . S
C3533 C3532 1.377 . S
C3533 C3534 1.379 . S
C3534 H3518 0.931 . S
C3534 C3528 1.383 . S
C3534 C3533 1.379 . S
H3535 C3529 0.959 . S
H3536 C3529 0.961 . S
H3537 C3529 0.960 . S
H3538 C3530 0.930 . S
H3539 C3531 0.929 . S
H3540 C3548 0.929 . S
H3541 C3550 0.930 . S
H3542 C3552 0.930 . S
H3543 C3555 0.929 . S
H3544 C3558 0.930 . S
H3545 C3560 0.960 . S
H3546 C3560 0.960 . S
H3547 C3560 0.960 . S
C3548 H3540 0.929 . S
C3548 C3549 1.377 . S
C3548 C3550 1.384 . S
C3549 C3548 1.377 . S
C3549 C3555 1.390 . S
C3550 H3541 0.930 . S
C3550 C3548 1.384 . S
C3550 C3551 1.372 . S
C3551 C3550 1.372 . S
C3551 C3552 1.400 . S
C3551 C3556 1.490 . S
C3552 H3542 0.930 . S
C3552 C3551 1.400 . S
C3552 C3555 1.386 . S
H3553 C3569 0.930 . S
H3554 C3570 0.931 . S
C3555 H3543 0.929 . S
C3555 C3549 1.390 . S
C3555 C3552 1.386 . S
C3556 C3551 1.490 . S
C3556 C3558 1.395 . S
C3556 C3559 1.403 . S
H3557 C3563 0.930 . S
C3558 H3544 0.930 . S
C3558 C3556 1.395 . S
C3558 C3561 1.403 . S
C3559 C3556 1.403 . S
C3559 C3560 1.524 . S
C3559 C3563 1.400 . S
C3560 H3545 0.960 . S
C3560 H3546 0.960 . S
C3560 H3547 0.960 . S
C3560 C3559 1.524 . S
C3561 C3558 1.403 . S
C3561 C3562 1.392 . S
C3561 C3565 1.495 . S
C3562 C3561 1.392 . S
C3562 C3563 1.385 . S
C3562 C3564 1.478 . S
C3563 H3557 0.930 . S
C3563 C3559 1.400 . S
C3563 C3562 1.385 . S
C3564 C3562 1.478 . S
C3564 C3566 1.381 . S
C3564 C3570 1.383 . S
C3565 C3561 1.495 . S
C3565 H3571 0.959 . S
C3565 H3572 0.961 . S
C3565 H3573 0.960 . S
C3566 C3564 1.381 . S
C3566 C3567 1.394 . S
C3566 H3574 0.930 . S
C3567 C3566 1.394 . S
C3567 C3568 1.383 . S
C3567 H3575 0.929 . S
C3568 C3567 1.383 . S
C3568 C3569 1.377 . S
C3569 H3553 0.930 . S
C3569 C3568 1.377 . S
C3569 C3570 1.379 . S
C3570 H3554 0.931 . S
C3570 C3564 1.383 . S
C3570 C3569 1.379 . S
H3571 C3565 0.959 . S
H3572 C3565 0.961 . S
H3573 C3565 0.960 . S
H3574 C3566 0.930 . S
H3575 C3567 0.929 . S
H3576 C3584 0.929 . S
H3577 C3586 0.930 . S
H3578 C3588 0.930 . S
H3579 C3591 0.929 . S
H3580 C3594 0.930 . S
H3581 C3596 0.967 . S
H3582 C3596 0.960 1_565 S
H3583 C3596 0.960 . S
C3584 H3576 0.929 . S
C3584 C3585 1.377 1_565 S
C3584 C3586 1.384 . S
C3585 C3584 1.377 1_545 S
C3585 C3591 1.390 . S
C3586 H3577 0.930 . S
C3586 C3584 1.384 . S
C3586 C3587 1.372 1_565 S
C3587 C3586 1.372 1_545 S
C3587 C3588 1.400 . S
C3587 C3592 1.490 . S
C3588 H3578 0.930 . S
C3588 C3587 1.400 . S
C3588 C3591 1.386 . S
H3589 C3605 0.930 . S
H3590 C3606 0.931 . S
C3591 H3579 0.929 . S
C3591 C3585 1.390 . S
C3591 C3588 1.386 . S
C3592 C3587 1.490 . S
C3592 C3594 1.395 . S
C3592 C3595 1.403 . S
H3593 C3599 0.930 . S
C3594 H3580 0.930 . S
C3594 C3592 1.395 . S
C3594 C3597 1.403 . S
C3595 C3592 1.403 . S
C3595 C3596 1.524 . S
C3595 C3599 1.400 . S
C3596 H3581 0.967 . S
C3596 H3582 0.960 1_545 S
C3596 H3583 0.960 . S
C3596 C3595 1.524 . S
C3597 C3594 1.403 . S
C3597 C3598 1.392 . S
C3597 C3601 1.495 . S
C3598 C3597 1.392 . S
C3598 C3599 1.385 . S
C3598 C3600 1.478 . S
C3599 H3593 0.930 . S
C3599 C3595 1.400 . S
C3599 C3598 1.385 . S
C3600 C3598 1.478 . S
C3600 C3602 1.390 . S
C3600 C3606 1.383 . S
C3601 C3597 1.495 . S
C3601 H3607 0.959 . S
C3601 H3608 0.961 . S
C3601 H3609 0.960 . S
C3602 C3600 1.390 . S
C3602 C3603 1.395 . S
C3602 H3610 0.921 1_545 S
C3603 C3602 1.395 . S
C3603 C3604 1.401 . S
C3603 H3611 0.912 1_545 S
C3604 C3603 1.401 . S
C3604 C3605 1.377 . S
C3605 H3589 0.930 . S
C3605 C3604 1.377 . S
C3605 C3606 1.379 . S
C3606 H3590 0.931 . S
C3606 C3600 1.383 . S
C3606 C3605 1.379 . S
H3607 C3601 0.959 . S
H3608 C3601 0.961 . S
H3609 C3601 0.960 . S
H3610 C3602 0.921 1_565 S
H3611 C3603 0.912 1_565 S
H3612 C3620 0.929 . S
H3613 C3622 0.930 . S
H3614 C3624 0.930 . S
H3615 C3627 0.929 . S
H3616 C3630 0.930 . S
H3617 C3632 0.960 . S
H3618 C3632 0.960 . S
H3619 C3632 0.960 . S
C3620 H3612 0.929 . S
C3620 C3621 1.377 . S
C3620 C3622 1.384 . S
C3621 C3620 1.377 . S
C3621 C3627 1.390 . S
C3622 H3613 0.930 . S
C3622 C3620 1.384 . S
C3622 C3623 1.372 . S
C3623 C3622 1.372 . S
C3623 C3624 1.400 . S
C3623 C3628 1.490 . S
C3624 H3614 0.930 . S
C3624 C3623 1.400 . S
C3624 C3627 1.386 . S
H3625 C3641 0.930 . S
H3626 C3642 0.931 . S
C3627 H3615 0.929 . S
C3627 C3621 1.390 . S
C3627 C3624 1.386 . S
C3628 C3623 1.490 . S
C3628 C3630 1.395 . S
C3628 C3631 1.403 . S
H3629 C3635 0.930 . S
C3630 H3616 0.930 . S
C3630 C3628 1.395 . S
C3630 C3633 1.403 . S
C3631 C3628 1.403 . S
C3631 C3632 1.524 . S
C3631 C3635 1.400 . S
C3632 H3617 0.960 . S
C3632 H3618 0.960 . S
C3632 H3619 0.960 . S
C3632 C3631 1.524 . S
C3633 C3630 1.403 . S
C3633 C3634 1.392 . S
C3633 C3637 1.495 . S
C3634 C3633 1.392 . S
C3634 C3635 1.385 . S
C3634 C3636 1.478 . S
C3635 H3629 0.930 . S
C3635 C3631 1.400 . S
C3635 C3634 1.385 . S
C3636 C3634 1.478 . S
C3636 C3638 1.381 . S
C3636 C3642 1.383 . S
C3637 C3633 1.495 . S
C3637 H3643 0.959 . S
C3637 H3644 0.961 . S
C3637 H3645 0.960 . S
C3638 C3636 1.381 . S
C3638 C3639 1.394 . S
C3638 H3646 0.930 . S
C3639 C3638 1.394 . S
C3639 C3640 1.383 . S
C3639 H3647 0.929 . S
C3640 C3639 1.383 . S
C3640 C3641 1.377 . S
C3641 H3625 0.930 . S
C3641 C3640 1.377 . S
C3641 C3642 1.379 . S
C3642 H3626 0.931 . S
C3642 C3636 1.383 . S
C3642 C3641 1.379 . S
H3643 C3637 0.959 . S
H3644 C3637 0.961 . S
H3645 C3637 0.960 . S
H3646 C3638 0.930 . S
H3647 C3639 0.929 . S
H3648 C3656 0.929 . S
H3649 C3658 0.930 . S
H3650 C3660 0.930 . S
H3651 C3663 0.929 . S
H3652 C3666 0.930 . S
H3653 C3668 0.960 . S
H3654 C3668 0.960 . S
H3655 C3668 0.960 . S
C3656 H3648 0.929 . S
C3656 C3657 1.377 . S
C3656 C3658 1.384 . S
C3657 C3656 1.377 . S
C3657 C3663 1.390 . S
C3658 H3649 0.930 . S
C3658 C3656 1.384 . S
C3658 C3659 1.372 . S
C3659 C3658 1.372 . S
C3659 C3660 1.400 . S
C3659 C3664 1.490 . S
C3660 H3650 0.930 . S
C3660 C3659 1.400 . S
C3660 C3663 1.386 . S
H3661 C3677 0.930 . S
H3662 C3678 0.931 . S
C3663 H3651 0.929 . S
C3663 C3657 1.390 . S
C3663 C3660 1.386 . S
C3664 C3659 1.490 . S
C3664 C3666 1.395 . S
C3664 C3667 1.403 . S
H3665 C3671 0.930 . S
C3666 H3652 0.930 . S
C3666 C3664 1.395 . S
C3666 C3669 1.403 . S
C3667 C3664 1.403 . S
C3667 C3668 1.524 . S
C3667 C3671 1.400 . S
C3668 H3653 0.960 . S
C3668 H3654 0.960 . S
C3668 H3655 0.960 . S
C3668 C3667 1.524 . S
C3669 C3666 1.403 . S
C3669 C3670 1.392 . S
C3669 C3673 1.495 . S
C3670 C3669 1.392 . S
C3670 C3671 1.385 . S
C3670 C3672 1.478 . S
C3671 H3665 0.930 . S
C3671 C3667 1.400 . S
C3671 C3670 1.385 . S
C3672 C3670 1.478 . S
C3672 C3674 1.381 . S
C3672 C3678 1.383 . S
C3673 C3669 1.495 . S
C3673 H3679 0.959 . S
C3673 H3680 0.961 . S
C3673 H3681 0.960 . S
C3674 C3672 1.381 . S
C3674 C3675 1.394 . S
C3674 H3682 0.933 1_554 S
C3675 C3674 1.394 . S
C3675 C3676 1.383 . S
C3675 H3683 0.929 1_554 S
C3676 C3675 1.383 . S
C3676 C3677 1.377 . S
C3677 H3661 0.930 . S
C3677 C3676 1.377 . S
C3677 C3678 1.379 . S
C3678 H3662 0.931 . S
C3678 C3672 1.383 . S
C3678 C3677 1.379 . S
H3679 C3673 0.959 . S
H3680 C3673 0.961 . S
H3681 C3673 0.960 . S
H3682 C3674 0.933 1_556 S
H3683 C3675 0.929 1_556 S
H3684 C3692 0.929 . S
H3685 C3694 0.930 . S
H3686 C3696 0.930 . S
H3687 C3699 0.929 . S
H3688 C3702 0.930 . S
H3689 C3704 0.960 . S
H3690 C3704 0.960 . S
H3691 C3704 0.960 . S
C3692 H3684 0.929 . S
C3692 C3693 1.377 . S
C3692 C3694 1.384 . S
C3693 C3692 1.377 . S
C3693 C3699 1.390 . S
C3694 H3685 0.930 . S
C3694 C3692 1.384 . S
C3694 C3695 1.372 . S
C3695 C3694 1.372 . S
C3695 C3696 1.400 . S
C3695 C3700 1.490 . S
C3696 H3686 0.930 . S
C3696 C3695 1.400 . S
C3696 C3699 1.386 . S
H3697 C3713 0.930 . S
H3698 C3714 0.931 . S
C3699 H3687 0.929 . S
C3699 C3693 1.390 . S
C3699 C3696 1.386 . S
C3700 C3695 1.490 . S
C3700 C3702 1.395 . S
C3700 C3703 1.403 . S
H3701 C3707 0.930 . S
C3702 H3688 0.930 . S
C3702 C3700 1.395 . S
C3702 C3705 1.403 . S
C3703 C3700 1.403 . S
C3703 C3704 1.524 . S
C3703 C3707 1.400 . S
C3704 H3689 0.960 . S
C3704 H3690 0.960 . S
C3704 H3691 0.960 . S
C3704 C3703 1.524 . S
C3705 C3702 1.403 . S
C3705 C3706 1.392 . S
C3705 C3709 1.495 . S
C3706 C3705 1.392 . S
C3706 C3707 1.385 . S
C3706 C3708 1.478 . S
C3707 H3701 0.930 . S
C3707 C3703 1.400 . S
C3707 C3706 1.385 . S
C3708 C3706 1.478 . S
C3708 C3710 1.381 . S
C3708 C3714 1.383 . S
C3709 C3705 1.495 . S
C3709 H3715 0.959 . S
C3709 H3716 0.961 . S
C3709 H3717 0.960 . S
C3710 C3708 1.381 . S
C3710 C3711 1.394 . S
C3710 H3718 0.930 . S
C3711 C3710 1.394 . S
C3711 C3712 1.383 . S
C3711 H3719 0.929 . S
C3712 C3711 1.383 . S
C3712 C3713 1.377 . S
C3713 H3697 0.930 . S
C3713 C3712 1.377 . S
C3713 C3714 1.379 . S
C3714 H3698 0.931 . S
C3714 C3708 1.383 . S
C3714 C3713 1.379 . S
H3715 C3709 0.959 . S
H3716 C3709 0.961 . S
H3717 C3709 0.960 . S
H3718 C3710 0.930 . S
H3719 C3711 0.929 . S
H3720 C3728 0.929 . S
H3721 C3730 0.930 . S
H3722 C3732 0.930 . S
H3723 C3735 0.929 . S
H3724 C3738 0.930 . S
H3725 C3740 0.960 . S
H3726 C3740 0.960 . S
H3727 C3740 0.960 . S
C3728 H3720 0.929 . S
C3728 C3729 1.377 . S
C3728 C3730 1.384 . S
C3729 C3728 1.377 . S
C3729 C3735 1.390 . S
C3730 H3721 0.930 . S
C3730 C3728 1.384 . S
C3730 C3731 1.372 . S
C3731 C3730 1.372 . S
C3731 C3732 1.400 . S
C3731 C3736 1.490 . S
C3732 H3722 0.930 . S
C3732 C3731 1.400 . S
C3732 C3735 1.386 . S
H3733 C3749 0.930 . S
H3734 C3750 0.931 . S
C3735 H3723 0.929 . S
C3735 C3729 1.390 . S
C3735 C3732 1.386 . S
C3736 C3731 1.490 . S
C3736 C3738 1.395 . S
C3736 C3739 1.403 . S
H3737 C3743 0.930 . S
C3738 H3724 0.930 . S
C3738 C3736 1.395 . S
C3738 C3741 1.403 . S
C3739 C3736 1.403 . S
C3739 C3740 1.524 . S
C3739 C3743 1.400 . S
C3740 H3725 0.960 . S
C3740 H3726 0.960 . S
C3740 H3727 0.960 . S
C3740 C3739 1.524 . S
C3741 C3738 1.403 . S
C3741 C3742 1.392 . S
C3741 C3745 1.495 . S
C3742 C3741 1.392 . S
C3742 C3743 1.385 . S
C3742 C3744 1.478 . S
C3743 H3737 0.930 . S
C3743 C3739 1.400 . S
C3743 C3742 1.385 . S
C3744 C3742 1.478 . S
C3744 C3746 1.381 . S
C3744 C3750 1.383 . S
C3745 C3741 1.495 . S
C3745 H3751 0.959 . S
C3745 H3752 0.961 . S
C3745 H3753 0.960 . S
C3746 C3744 1.381 . S
C3746 C3747 1.394 . S
C3746 H3754 0.930 . S
C3747 C3746 1.394 . S
C3747 C3748 1.383 . S
C3747 H3755 0.929 . S
C3748 C3747 1.383 . S
C3748 C3749 1.377 . S
C3749 H3733 0.930 . S
C3749 C3748 1.377 . S
C3749 C3750 1.379 . S
C3750 H3734 0.931 . S
C3750 C3744 1.383 . S
C3750 C3749 1.379 . S
H3751 C3745 0.959 . S
H3752 C3745 0.961 . S
H3753 C3745 0.960 . S
H3754 C3746 0.930 . S
H3755 C3747 0.929 . S
H3756 C3764 0.929 . S
H3757 C3766 0.930 . S
H3758 C3768 0.930 . S
H3759 C3771 0.929 . S
H3760 C3774 0.930 . S
H3761 C3776 0.960 . S
H3762 C3776 0.960 . S
H3763 C3776 0.960 . S
C3764 H3756 0.929 . S
C3764 C3765 1.377 . S
C3764 C3766 1.384 . S
C3765 C3764 1.377 . S
C3765 C3771 1.390 . S
C3766 H3757 0.930 . S
C3766 C3764 1.384 . S
C3766 C3767 1.372 . S
C3767 C3766 1.372 . S
C3767 C3768 1.400 . S
C3767 C3772 1.490 . S
C3768 H3758 0.930 . S
C3768 C3767 1.400 . S
C3768 C3771 1.386 . S
H3769 C3785 0.930 . S
H3770 C3786 0.931 . S
C3771 H3759 0.929 . S
C3771 C3765 1.390 . S
C3771 C3768 1.386 . S
C3772 C3767 1.490 . S
C3772 C3774 1.395 . S
C3772 C3775 1.403 . S
H3773 C3779 0.930 . S
C3774 H3760 0.930 . S
C3774 C3772 1.395 . S
C3774 C3777 1.403 . S
C3775 C3772 1.403 . S
C3775 C3776 1.524 . S
C3775 C3779 1.400 . S
C3776 H3761 0.960 . S
C3776 H3762 0.960 . S
C3776 H3763 0.960 . S
C3776 C3775 1.524 . S
C3777 C3774 1.403 . S
C3777 C3778 1.392 . S
C3777 C3781 1.495 . S
C3778 C3777 1.392 . S
C3778 C3779 1.385 . S
C3778 C3780 1.478 . S
C3779 H3773 0.930 . S
C3779 C3775 1.400 . S
C3779 C3778 1.385 . S
C3780 C3778 1.478 . S
C3780 C3782 1.381 . S
C3780 C3786 1.383 . S
C3781 C3777 1.495 . S
C3781 H3787 0.959 . S
C3781 H3788 0.961 . S
C3781 H3789 0.960 . S
C3782 C3780 1.381 . S
C3782 C3783 1.394 . S
C3782 H3790 0.930 . S
C3783 C3782 1.394 . S
C3783 C3784 1.383 . S
C3783 H3791 0.929 . S
C3784 C3783 1.383 . S
C3784 C3785 1.377 . S
C3785 H3769 0.930 . S
C3785 C3784 1.377 . S
C3785 C3786 1.379 . S
C3786 H3770 0.931 . S
C3786 C3780 1.383 . S
C3786 C3785 1.379 . S
H3787 C3781 0.959 . S
H3788 C3781 0.961 . S
H3789 C3781 0.960 . S
H3790 C3782 0.930 . S
H3791 C3783 0.929 . S
H3792 C3800 0.929 1_545 S
H3793 C3802 0.930 . S
H3794 C3804 0.930 . S
H3795 C3807 0.929 . S
H3796 C3810 0.930 . S
H3797 C3812 0.960 . S
H3798 C3812 0.960 . S
H3799 C3812 0.960 . S
C3800 H3792 0.929 1_565 S
C3800 C3801 1.377 1_565 S
C3800 C3802 1.384 . S
C3801 C3800 1.377 1_545 S
C3801 C3807 1.390 1_545 S
C3802 H3793 0.930 . S
C3802 C3800 1.384 . S
C3802 C3803 1.372 . S
C3803 C3802 1.372 . S
C3803 C3804 1.400 . S
C3803 C3808 1.490 . S
C3804 H3794 0.930 . S
C3804 C3803 1.400 . S
C3804 C3807 1.386 . S
H3805 C3821 0.930 . S
H3806 C3822 0.931 . S
C3807 H3795 0.929 . S
C3807 C3801 1.390 1_565 S
C3807 C3804 1.386 . S
C3808 C3803 1.490 . S
C3808 C3810 1.395 . S
C3808 C3811 1.403 . S
H3809 C3815 0.930 . S
C3810 H3796 0.930 . S
C3810 C3808 1.395 . S
C3810 C3813 1.403 . S
C3811 C3808 1.403 . S
C3811 C3812 1.524 . S
C3811 C3815 1.400 . S
C3812 H3797 0.960 . S
C3812 H3798 0.960 . S
C3812 H3799 0.960 . S
C3812 C3811 1.524 . S
C3813 C3810 1.403 . S
C3813 C3814 1.392 . S
C3813 C3817 1.495 . S
C3814 C3813 1.392 . S
C3814 C3815 1.385 . S
C3814 C3816 1.478 . S
C3815 H3809 0.930 . S
C3815 C3811 1.400 . S
C3815 C3814 1.385 . S
C3816 C3814 1.478 . S
C3816 C3818 1.381 . S
C3816 C3822 1.383 . S
C3817 C3813 1.495 . S
C3817 H3823 0.959 . S
C3817 H3824 0.961 . S
C3817 H3825 0.960 . S
C3818 C3816 1.381 . S
C3818 C3819 1.394 . S
C3818 H3826 0.930 . S
C3819 C3818 1.394 . S
C3819 C3820 1.383 . S
C3819 H3827 0.929 . S
C3820 C3819 1.383 . S
C3820 C3821 1.377 . S
C3821 H3805 0.930 . S
C3821 C3820 1.377 . S
C3821 C3822 1.379 . S
C3822 H3806 0.931 . S
C3822 C3816 1.383 . S
C3822 C3821 1.379 . S
H3823 C3817 0.959 . S
H3824 C3817 0.961 . S
H3825 C3817 0.960 . S
H3826 C3818 0.930 . S
H3827 C3819 0.929 . S
H3828 C3836 0.929 . S
H3829 C3838 0.930 . S
H3830 C3840 0.930 . S
H3831 C3843 0.929 . S
H3832 C3846 0.930 . S
H3833 C3848 0.960 . S
H3834 C3848 0.960 . S
H3835 C3848 0.960 . S
C3836 H3828 0.929 . S
C3836 C3837 1.377 . S
C3836 C3838 1.384 . S
C3837 C3836 1.377 . S
C3837 C3843 1.390 . S
C3838 H3829 0.930 . S
C3838 C3836 1.384 . S
C3838 C3839 1.372 . S
C3839 C3838 1.372 . S
C3839 C3840 1.400 . S
C3839 C3844 1.490 . S
C3840 H3830 0.930 . S
C3840 C3839 1.400 . S
C3840 C3843 1.386 . S
H3841 C3857 0.930 . S
H3842 C3858 0.931 . S
C3843 H3831 0.929 . S
C3843 C3837 1.390 . S
C3843 C3840 1.386 . S
C3844 C3839 1.490 . S
C3844 C3846 1.395 . S
C3844 C3847 1.403 . S
H3845 C3851 0.930 . S
C3846 H3832 0.930 . S
C3846 C3844 1.395 . S
C3846 C3849 1.403 . S
C3847 C3844 1.403 . S
C3847 C3848 1.524 . S
C3847 C3851 1.400 . S
C3848 H3833 0.960 . S
C3848 H3834 0.960 . S
C3848 H3835 0.960 . S
C3848 C3847 1.524 . S
C3849 C3846 1.403 . S
C3849 C3850 1.392 . S
C3849 C3853 1.495 . S
C3850 C3849 1.392 . S
C3850 C3851 1.385 . S
C3850 C3852 1.478 . S
C3851 H3845 0.930 . S
C3851 C3847 1.400 . S
C3851 C3850 1.385 . S
C3852 C3850 1.478 . S
C3852 C3854 1.381 . S
C3852 C3858 1.383 . S
C3853 C3849 1.495 . S
C3853 H3859 0.959 . S
C3853 H3860 0.961 . S
C3853 H3861 0.960 . S
C3854 C3852 1.381 . S
C3854 C3855 1.394 . S
C3854 H3862 0.930 . S
C3855 C3854 1.394 . S
C3855 C3856 1.383 . S
C3855 H3863 0.929 . S
C3856 C3855 1.383 . S
C3856 C3857 1.377 . S
C3857 H3841 0.930 . S
C3857 C3856 1.377 . S
C3857 C3858 1.379 . S
C3858 H3842 0.931 . S
C3858 C3852 1.383 . S
C3858 C3857 1.379 . S
H3859 C3853 0.959 . S
H3860 C3853 0.961 . S
H3861 C3853 0.960 . S
H3862 C3854 0.930 . S
H3863 C3855 0.929 . S
H3864 C3872 0.929 . S
H3865 C3874 0.930 . S
H3866 C3876 0.930 . S
H3867 C3879 0.929 . S
H3868 C3882 0.930 . S
H3869 C3884 0.960 . S
H3870 C3884 0.960 . S
H3871 C3884 0.960 . S
C3872 H3864 0.929 . S
C3872 C3873 1.377 . S
C3872 C3874 1.384 . S
C3873 C3872 1.377 . S
C3873 C3879 1.390 . S
C3874 H3865 0.930 . S
C3874 C3872 1.384 . S
C3874 C3875 1.372 . S
C3875 C3874 1.372 . S
C3875 C3876 1.400 . S
C3875 C3880 1.490 . S
C3876 H3866 0.930 . S
C3876 C3875 1.400 . S
C3876 C3879 1.386 . S
H3877 C3893 0.930 . S
H3878 C3894 0.931 . S
C3879 H3867 0.929 . S
C3879 C3873 1.390 . S
C3879 C3876 1.386 . S
C3880 C3875 1.490 . S
C3880 C3882 1.395 . S
C3880 C3883 1.403 . S
H3881 C3887 0.930 . S
C3882 H3868 0.930 . S
C3882 C3880 1.395 . S
C3882 C3885 1.403 . S
C3883 C3880 1.403 . S
C3883 C3884 1.524 . S
C3883 C3887 1.400 . S
C3884 H3869 0.960 . S
C3884 H3870 0.960 . S
C3884 H3871 0.960 . S
C3884 C3883 1.524 . S
C3885 C3882 1.403 . S
C3885 C3886 1.392 . S
C3885 C3889 1.495 . S
C3886 C3885 1.392 . S
C3886 C3887 1.385 . S
C3886 C3888 1.478 . S
C3887 H3881 0.930 . S
C3887 C3883 1.400 . S
C3887 C3886 1.385 . S
C3888 C3886 1.478 . S
C3888 C3890 1.381 . S
C3888 C3894 1.383 . S
C3889 C3885 1.495 . S
C3889 H3895 0.959 . S
C3889 H3896 0.961 . S
C3889 H3897 0.960 . S
C3890 C3888 1.381 . S
C3890 C3891 1.394 . S
C3890 H3898 0.930 . S
C3891 C3890 1.394 . S
C3891 C3892 1.383 . S
C3891 H3899 0.929 . S
C3892 C3891 1.383 . S
C3892 C3893 1.377 . S
C3893 H3877 0.930 . S
C3893 C3892 1.377 . S
C3893 C3894 1.379 . S
C3894 H3878 0.931 . S
C3894 C3888 1.383 . S
C3894 C3893 1.379 . S
H3895 C3889 0.959 . S
H3896 C3889 0.961 . S
H3897 C3889 0.960 . S
H3898 C3890 0.930 . S
H3899 C3891 0.929 . S
H3900 C3908 0.929 . S
H3901 C3910 0.930 . S
H3902 C3912 0.930 . S
H3903 C3915 0.929 . S
H3904 C3918 0.930 . S
H3905 C3920 0.960 . S
H3906 C3920 0.960 . S
H3907 C3920 0.960 . S
C3908 H3900 0.929 . S
C3908 C3909 1.377 . S
C3908 C3910 1.384 . S
C3909 C3908 1.377 . S
C3909 C3915 1.390 . S
C3910 H3901 0.930 . S
C3910 C3908 1.384 . S
C3910 C3911 1.372 . S
C3911 C3910 1.372 . S
C3911 C3912 1.400 . S
C3911 C3916 1.490 . S
C3912 H3902 0.930 . S
C3912 C3911 1.400 . S
C3912 C3915 1.386 . S
H3913 C3929 0.930 . S
H3914 C3930 0.931 . S
C3915 H3903 0.929 . S
C3915 C3909 1.390 . S
C3915 C3912 1.386 . S
C3916 C3911 1.490 . S
C3916 C3918 1.395 . S
C3916 C3919 1.403 . S
H3917 C3923 0.930 . S
C3918 H3904 0.930 . S
C3918 C3916 1.395 . S
C3918 C3921 1.403 . S
C3919 C3916 1.403 . S
C3919 C3920 1.524 . S
C3919 C3923 1.400 . S
C3920 H3905 0.960 . S
C3920 H3906 0.960 . S
C3920 H3907 0.960 . S
C3920 C3919 1.524 . S
C3921 C3918 1.403 . S
C3921 C3922 1.392 . S
C3921 C3925 1.495 . S
C3922 C3921 1.392 . S
C3922 C3923 1.385 . S
C3922 C3924 1.478 . S
C3923 H3917 0.930 . S
C3923 C3919 1.400 . S
C3923 C3922 1.385 . S
C3924 C3922 1.478 . S
C3924 C3926 1.381 . S
C3924 C3930 1.383 . S
C3925 C3921 1.495 . S
C3925 H3931 0.959 . S
C3925 H3932 0.961 . S
C3925 H3933 0.960 . S
C3926 C3924 1.381 . S
C3926 C3927 1.394 . S
C3926 H3934 0.930 . S
C3927 C3926 1.394 . S
C3927 C3928 1.383 . S
C3927 H3935 0.929 . S
C3928 C3927 1.383 . S
C3928 C3929 1.377 . S
C3929 H3913 0.930 . S
C3929 C3928 1.377 . S
C3929 C3930 1.379 . S
C3930 H3914 0.931 . S
C3930 C3924 1.383 . S
C3930 C3929 1.379 . S
H3931 C3925 0.959 . S
H3932 C3925 0.961 . S
H3933 C3925 0.960 . S
H3934 C3926 0.930 . S
H3935 C3927 0.929 . S
H3936 C3944 0.929 . S
H3937 C3946 0.930 . S
H3938 C3948 0.930 . S
H3939 C3951 0.929 . S
H3940 C3954 0.930 . S
H3941 C3956 0.960 . S
H3942 C3956 0.960 . S
H3943 C3956 0.960 . S
C3944 H3936 0.929 . S
C3944 C3945 1.377 . S
C3944 C3946 1.384 . S
C3945 C3944 1.377 . S
C3945 C3951 1.390 . S
C3946 H3937 0.930 . S
C3946 C3944 1.384 . S
C3946 C3947 1.372 . S
C3947 C3946 1.372 . S
C3947 C3948 1.400 . S
C3947 C3952 1.490 . S
C3948 H3938 0.930 . S
C3948 C3947 1.400 . S
C3948 C3951 1.386 . S
H3949 C3965 0.930 . S
H3950 C3966 0.931 . S
C3951 H3939 0.929 . S
C3951 C3945 1.390 . S
C3951 C3948 1.386 . S
C3952 C3947 1.490 . S
C3952 C3954 1.395 . S
C3952 C3955 1.403 . S
H3953 C3959 0.930 . S
C3954 H3940 0.930 . S
C3954 C3952 1.395 . S
C3954 C3957 1.403 . S
C3955 C3952 1.403 . S
C3955 C3956 1.524 . S
C3955 C3959 1.400 . S
C3956 H3941 0.960 . S
C3956 H3942 0.960 . S
C3956 H3943 0.960 . S
C3956 C3955 1.524 . S
C3957 C3954 1.403 . S
C3957 C3958 1.392 . S
C3957 C3961 1.495 . S
C3958 C3957 1.392 . S
C3958 C3959 1.385 . S
C3958 C3960 1.478 . S
C3959 H3953 0.930 . S
C3959 C3955 1.400 . S
C3959 C3958 1.385 . S
C3960 C3958 1.478 . S
C3960 C3962 1.381 . S
C3960 C3966 1.383 . S
C3961 C3957 1.495 . S
C3961 H3967 0.959 . S
C3961 H3968 0.961 . S
C3961 H3969 0.960 . S
C3962 C3960 1.381 . S
C3962 C3963 1.394 . S
C3962 H3970 0.930 . S
C3963 C3962 1.394 . S
C3963 C3964 1.383 . S
C3963 H3971 0.929 . S
C3964 C3963 1.383 . S
C3964 C3965 1.377 . S
C3965 H3949 0.930 . S
C3965 C3964 1.377 . S
C3965 C3966 1.379 . S
C3966 H3950 0.931 . S
C3966 C3960 1.383 . S
C3966 C3965 1.379 . S
H3967 C3961 0.959 . S
H3968 C3961 0.961 . S
H3969 C3961 0.960 . S
H3970 C3962 0.930 . S
H3971 C3963 0.929 . S
H3972 C3980 0.929 . S
H3973 C3982 0.930 . S
H3974 C3984 0.930 . S
H3975 C3987 0.929 . S
H3976 C3990 0.930 . S
H3977 C3992 0.960 . S
H3978 C3992 0.960 . S
H3979 C3992 0.960 . S
C3980 H3972 0.929 . S
C3980 C3981 1.377 . S
C3980 C3982 1.384 . S
C3981 C3980 1.377 . S
C3981 C3987 1.390 . S
C3982 H3973 0.930 . S
C3982 C3980 1.384 . S
C3982 C3983 1.372 . S
C3983 C3982 1.372 . S
C3983 C3984 1.400 . S
C3983 C3988 1.490 . S
C3984 H3974 0.930 . S
C3984 C3983 1.400 . S
C3984 C3987 1.386 . S
H3985 C4001 0.930 . S
H3986 C4002 0.931 . S
C3987 H3975 0.929 . S
C3987 C3981 1.390 . S
C3987 C3984 1.386 . S
C3988 C3983 1.490 . S
C3988 C3990 1.395 . S
C3988 C3991 1.403 . S
H3989 C3995 0.930 . S
C3990 H3976 0.930 . S
C3990 C3988 1.395 . S
C3990 C3993 1.403 . S
C3991 C3988 1.403 . S
C3991 C3992 1.524 . S
C3991 C3995 1.400 . S
C3992 H3977 0.960 . S
C3992 H3978 0.960 . S
C3992 H3979 0.960 . S
C3992 C3991 1.524 . S
C3993 C3990 1.403 . S
C3993 C3994 1.392 . S
C3993 C3997 1.495 . S
C3994 C3993 1.392 . S
C3994 C3995 1.385 . S
C3994 C3996 1.478 . S
C3995 H3989 0.930 . S
C3995 C3991 1.400 . S
C3995 C3994 1.385 . S
C3996 C3994 1.478 . S
C3996 C3998 1.381 . S
C3996 C4002 1.383 . S
C3997 C3993 1.495 . S
C3997 H4003 0.959 . S
C3997 H4004 0.961 . S
C3997 H4005 0.960 . S
C3998 C3996 1.381 . S
C3998 C3999 1.394 . S
C3998 H4006 0.930 . S
C3999 C3998 1.394 . S
C3999 C4000 1.383 . S
C3999 H4007 0.929 . S
C4000 C3999 1.383 . S
C4000 C4001 1.377 . S
C4001 H3985 0.930 . S
C4001 C4000 1.377 . S
C4001 C4002 1.379 . S
C4002 H3986 0.931 . S
C4002 C3996 1.383 . S
C4002 C4001 1.379 . S
H4003 C3997 0.959 . S
H4004 C3997 0.961 . S
H4005 C3997 0.960 . S
H4006 C3998 0.930 . S
H4007 C3999 0.929 . S
H4008 C4016 0.929 . S
H4009 C4018 0.930 . S
H4010 C4020 0.930 . S
H4011 C4023 0.929 . S
H4012 C4026 0.930 . S
H4013 C4028 0.960 1_554 S
H4014 C4028 0.960 1_554 S
H4015 C4028 0.960 . S
C4016 H4008 0.929 . S
C4016 C4017 1.377 . S
C4016 C4018 1.384 . S
C4017 C4016 1.377 . S
C4017 C4023 1.390 1_455 S
C4018 H4009 0.930 . S
C4018 C4016 1.384 . S
C4018 C4019 1.372 . S
C4019 C4018 1.372 . S
C4019 C4020 1.400 1_455 S
C4019 C4024 1.490 . S
C4020 H4010 0.930 . S
C4020 C4019 1.400 1_655 S
C4020 C4023 1.386 . S
H4021 C4037 0.930 1_655 S
H4022 C4038 0.931 1_655 S
C4023 H4011 0.929 . S
C4023 C4017 1.390 1_655 S
C4023 C4020 1.386 . S
C4024 C4019 1.490 . S
C4024 C4026 1.395 . S
C4024 C4027 1.403 . S
H4025 C4031 0.930 1_654 S
C4026 H4012 0.930 . S
C4026 C4024 1.395 . S
C4026 C4029 1.403 . S
C4027 C4024 1.403 . S
C4027 C4028 1.524 1_455 S
C4027 C4031 1.400 . S
C4028 H4013 0.960 1_556 S
C4028 H4014 0.960 1_556 S
C4028 H4015 0.960 . S
C4028 C4027 1.524 1_655 S
C4029 C4026 1.403 . S
C4029 C4030 1.392 . S
C4029 C4033 1.495 . S
C4030 C4029 1.392 . S
C4030 C4031 1.385 . S
C4030 C4032 1.478 . S
C4031 H4025 0.930 1_456 S
C4031 C4027 1.400 . S
C4031 C4030 1.385 . S
C4032 C4030 1.478 . S
C4032 C4034 1.381 1_556 S
C4032 C4038 1.383 . S
C4033 C4029 1.495 . S
C4033 H4039 0.959 . S
C4033 H4040 0.961 . S
C4033 H4041 0.960 . S
C4034 C4032 1.381 1_554 S
C4034 C4035 1.394 . S
C4034 H4042 0.930 . S
C4035 C4034 1.394 . S
C4035 C4036 1.383 . S
C4035 H4043 0.929 . S
C4036 C4035 1.383 . S
C4036 C4037 1.377 1_554 S
C4037 H4021 0.930 1_455 S
C4037 C4036 1.377 1_556 S
C4037 C4038 1.379 . S
C4038 H4022 0.931 1_455 S
C4038 C4032 1.383 . S
C4038 C4037 1.379 . S
H4039 C4033 0.959 . S
H4040 C4033 0.961 . S
H4041 C4033 0.960 . S
H4042 C4034 0.930 . S
H4043 C4035 0.929 . S
H4044 C4052 0.929 . S
H4045 C4054 0.930 . S
H4046 C4056 0.930 . S
H4047 C4059 0.929 1_455 S
H4048 C4062 0.930 . S
H4049 C4064 0.960 . S
H4050 C4064 0.960 . S
H4051 C4064 0.960 . S
C4052 H4044 0.929 . S
C4052 C4053 1.377 . S
C4052 C4054 1.384 . S
C4053 C4052 1.377 . S
C4053 C4059 1.390 . S
C4054 H4045 0.930 . S
C4054 C4052 1.384 . S
C4054 C4055 1.372 . S
C4055 C4054 1.372 . S
C4055 C4056 1.400 . S
C4055 C4060 1.490 . S
C4056 H4046 0.930 . S
C4056 C4055 1.400 . S
C4056 C4059 1.386 . S
H4057 C4073 0.930 . S
H4058 C4074 0.931 . S
C4059 H4047 0.929 1_655 S
C4059 C4053 1.390 . S
C4059 C4056 1.386 . S
C4060 C4055 1.490 . S
C4060 C4062 1.395 . S
C4060 C4063 1.403 . S
H4061 C4067 0.930 . S
C4062 H4048 0.930 . S
C4062 C4060 1.395 . S
C4062 C4065 1.403 . S
C4063 C4060 1.403 . S
C4063 C4064 1.524 . S
C4063 C4067 1.400 . S
C4064 H4049 0.960 . S
C4064 H4050 0.960 . S
C4064 H4051 0.960 . S
C4064 C4063 1.524 . S
C4065 C4062 1.403 . S
C4065 C4066 1.392 . S
C4065 C4069 1.495 . S
C4066 C4065 1.392 . S
C4066 C4067 1.385 . S
C4066 C4068 1.478 . S
C4067 H4061 0.930 . S
C4067 C4063 1.400 . S
C4067 C4066 1.385 . S
C4068 C4066 1.478 . S
C4068 C4070 1.381 . S
C4068 C4074 1.383 . S
C4069 C4065 1.495 . S
C4069 H4075 0.959 . S
C4069 H4076 0.961 . S
C4069 H4077 0.960 . S
C4070 C4068 1.381 . S
C4070 C4071 1.394 . S
C4070 H4078 0.930 . S
C4071 C4070 1.394 . S
C4071 C4072 1.383 . S
C4071 H4079 0.929 . S
C4072 C4071 1.383 . S
C4072 C4073 1.377 . S
C4073 H4057 0.930 . S
C4073 C4072 1.377 . S
C4073 C4074 1.379 . S
C4074 H4058 0.931 . S
C4074 C4068 1.383 . S
C4074 C4073 1.379 . S
H4075 C4069 0.959 . S
H4076 C4069 0.961 . S
H4077 C4069 0.960 . S
H4078 C4070 0.930 . S
H4079 C4071 0.929 . S
H4080 C4088 0.929 . S
H4081 C4090 0.930 . S
H4082 C4092 0.930 . S
H4083 C4095 0.929 . S
H4084 C4098 0.930 . S
H4085 C4100 0.960 . S
H4086 C4100 0.960 . S
H4087 C4100 0.960 . S
C4088 H4080 0.929 . S
C4088 C4089 1.377 . S
C4088 C4090 1.384 . S
C4089 C4088 1.377 . S
C4089 C4095 1.390 . S
C4090 H4081 0.930 . S
C4090 C4088 1.384 . S
C4090 C4091 1.372 . S
C4091 C4090 1.372 . S
C4091 C4092 1.400 . S
C4091 C4096 1.490 . S
C4092 H4082 0.930 . S
C4092 C4091 1.400 . S
C4092 C4095 1.386 . S
H4093 C4109 0.930 . S
H4094 C4110 0.931 . S
C4095 H4083 0.929 . S
C4095 C4089 1.390 . S
C4095 C4092 1.386 . S
C4096 C4091 1.490 . S
C4096 C4098 1.395 . S
C4096 C4099 1.403 . S
H4097 C4103 0.930 . S
C4098 H4084 0.930 . S
C4098 C4096 1.395 . S
C4098 C4101 1.403 . S
C4099 C4096 1.403 . S
C4099 C4100 1.524 . S
C4099 C4103 1.400 . S
C4100 H4085 0.960 . S
C4100 H4086 0.960 . S
C4100 H4087 0.960 . S
C4100 C4099 1.524 . S
C4101 C4098 1.403 . S
C4101 C4102 1.392 . S
C4101 C4105 1.495 . S
C4102 C4101 1.392 . S
C4102 C4103 1.385 . S
C4102 C4104 1.478 . S
C4103 H4097 0.930 . S
C4103 C4099 1.400 . S
C4103 C4102 1.385 . S
C4104 C4102 1.478 . S
C4104 C4106 1.381 . S
C4104 C4110 1.383 . S
C4105 C4101 1.495 . S
C4105 H4111 0.959 . S
C4105 H4112 0.961 . S
C4105 H4113 0.960 . S
C4106 C4104 1.381 . S
C4106 C4107 1.394 . S
C4106 H4114 0.930 . S
C4107 C4106 1.394 . S
C4107 C4108 1.383 . S
C4107 H4115 0.929 . S
C4108 C4107 1.383 . S
C4108 C4109 1.377 . S
C4109 H4093 0.930 . S
C4109 C4108 1.377 . S
C4109 C4110 1.379 . S
C4110 H4094 0.931 . S
C4110 C4104 1.383 . S
C4110 C4109 1.379 . S
H4111 C4105 0.959 . S
H4112 C4105 0.961 . S
H4113 C4105 0.960 . S
H4114 C4106 0.930 . S
H4115 C4107 0.929 . S
H4116 C4124 0.929 . S
H4117 C4126 0.930 . S
H4118 C4128 0.930 . S
H4119 C4131 0.929 . S
H4120 C4134 0.930 . S
H4121 C4136 0.960 . S
H4122 C4136 0.960 . S
H4123 C4136 0.960 . S
C4124 H4116 0.929 . S
C4124 C4125 1.377 . S
C4124 C4126 1.384 . S
C4125 C4124 1.377 . S
C4125 C4131 1.390 . S
C4126 H4117 0.930 . S
C4126 C4124 1.384 . S
C4126 C4127 1.372 . S
C4127 C4126 1.372 . S
C4127 C4128 1.400 . S
C4127 C4132 1.490 . S
C4128 H4118 0.930 . S
C4128 C4127 1.400 . S
C4128 C4131 1.386 . S
H4129 C4145 0.930 . S
H4130 C4146 0.931 . S
C4131 H4119 0.929 . S
C4131 C4125 1.390 . S
C4131 C4128 1.386 . S
C4132 C4127 1.490 . S
C4132 C4134 1.395 . S
C4132 C4135 1.403 . S
H4133 C4139 0.930 . S
C4134 H4120 0.930 . S
C4134 C4132 1.395 . S
C4134 C4137 1.403 . S
C4135 C4132 1.403 . S
C4135 C4136 1.524 . S
C4135 C4139 1.400 . S
C4136 H4121 0.960 . S
C4136 H4122 0.960 . S
C4136 H4123 0.960 . S
C4136 C4135 1.524 . S
C4137 C4134 1.403 . S
C4137 C4138 1.392 . S
C4137 C4141 1.495 . S
C4138 C4137 1.392 . S
C4138 C4139 1.385 . S
C4138 C4140 1.478 . S
C4139 H4133 0.930 . S
C4139 C4135 1.400 . S
C4139 C4138 1.385 . S
C4140 C4138 1.478 . S
C4140 C4142 1.381 . S
C4140 C4146 1.383 . S
C4141 C4137 1.495 . S
C4141 H4147 0.959 . S
C4141 H4148 0.961 . S
C4141 H4149 0.960 . S
C4142 C4140 1.381 . S
C4142 C4143 1.394 . S
C4142 H4150 0.930 . S
C4143 C4142 1.394 . S
C4143 C4144 1.383 . S
C4143 H4151 0.929 . S
C4144 C4143 1.383 . S
C4144 C4145 1.377 . S
C4145 H4129 0.930 . S
C4145 C4144 1.377 . S
C4145 C4146 1.379 . S
C4146 H4130 0.931 . S
C4146 C4140 1.383 . S
C4146 C4145 1.379 . S
H4147 C4141 0.959 . S
H4148 C4141 0.961 . S
H4149 C4141 0.960 . S
H4150 C4142 0.930 . S
H4151 C4143 0.929 . S
H4152 C4160 0.953 . S
H4153 C4162 0.930 . S
H4154 C4164 0.930 . S
H4155 C4167 0.929 . S
H4156 C4170 0.930 . S
H4157 C4172 0.960 . S
H4158 C4172 0.960 . S
H4159 C4172 0.960 . S
C4160 H4152 0.953 . S
C4160 C4161 1.377 . S
C4160 C4162 1.384 . S
C4161 C4160 1.377 . S
C4161 C4167 1.390 . S
C4162 H4153 0.930 . S
C4162 C4160 1.384 . S
C4162 C4163 1.372 . S
C4163 C4162 1.372 . S
C4163 C4164 1.400 . S
C4163 C4168 1.490 . S
C4164 H4154 0.930 . S
C4164 C4163 1.400 . S
C4164 C4167 1.386 . S
H4165 C4181 0.930 . S
H4166 C4182 0.931 . S
C4167 H4155 0.929 . S
C4167 C4161 1.390 . S
C4167 C4164 1.386 . S
C4168 C4163 1.490 . S
C4168 C4170 1.395 . S
C4168 C4171 1.403 . S
H4169 C4175 0.919 1_655 S
C4170 H4156 0.930 . S
C4170 C4168 1.395 . S
C4170 C4173 1.403 . S
C4171 C4168 1.403 . S
C4171 C4172 1.524 1_455 S
C4171 C4175 1.400 . S
C4172 H4157 0.960 . S
C4172 H4158 0.960 . S
C4172 H4159 0.960 . S
C4172 C4171 1.524 1_655 S
C4173 C4170 1.403 . S
C4173 C4174 1.392 . S
C4173 C4177 1.495 . S
C4174 C4173 1.392 . S
C4174 C4175 1.385 . S
C4174 C4176 1.478 . S
C4175 H4169 0.919 1_455 S
C4175 C4171 1.400 . S
C4175 C4174 1.385 . S
C4176 C4174 1.478 . S
C4176 C4178 1.381 . S
C4176 C4182 1.383 . S
C4177 C4173 1.495 . S
C4177 H4183 0.959 . S
C4177 H4184 0.961 . S
C4177 H4185 0.960 . S
C4178 C4176 1.381 . S
C4178 C4179 1.394 . S
C4178 H4186 0.930 . S
C4179 C4178 1.394 . S
C4179 C4180 1.383 . S
C4179 H4187 0.929 . S
C4180 C4179 1.383 . S
C4180 C4181 1.377 . S
C4181 H4165 0.930 . S
C4181 C4180 1.377 . S
C4181 C4182 1.379 . S
C4182 H4166 0.931 . S
C4182 C4176 1.383 . S
C4182 C4181 1.379 . S
H4183 C4177 0.959 . S
H4184 C4177 0.961 . S
H4185 C4177 0.960 . S
H4186 C4178 0.930 . S
H4187 C4179 0.929 . S
H4188 C4196 0.929 . S
H4189 C4198 0.930 . S
H4190 C4200 0.930 . S
H4191 C4203 0.929 . S
H4192 C4206 0.930 . S
H4193 C4208 0.960 . S
H4194 C4208 0.960 . S
H4195 C4208 0.960 . S
C4196 H4188 0.929 . S
C4196 C4197 1.377 . S
C4196 C4198 1.384 . S
C4197 C4196 1.377 . S
C4197 C4203 1.390 . S
C4198 H4189 0.930 . S
C4198 C4196 1.384 . S
C4198 C4199 1.372 . S
C4199 C4198 1.372 . S
C4199 C4200 1.400 . S
C4199 C4204 1.490 . S
C4200 H4190 0.930 . S
C4200 C4199 1.400 . S
C4200 C4203 1.386 . S
H4201 C4217 0.930 . S
H4202 C4218 0.931 . S
C4203 H4191 0.929 . S
C4203 C4197 1.390 . S
C4203 C4200 1.386 . S
C4204 C4199 1.490 . S
C4204 C4206 1.395 . S
C4204 C4207 1.403 . S
H4205 C4211 0.930 . S
C4206 H4192 0.930 . S
C4206 C4204 1.395 . S
C4206 C4209 1.403 . S
C4207 C4204 1.403 . S
C4207 C4208 1.524 . S
C4207 C4211 1.400 . S
C4208 H4193 0.960 . S
C4208 H4194 0.960 . S
C4208 H4195 0.960 . S
C4208 C4207 1.524 . S
C4209 C4206 1.403 . S
C4209 C4210 1.392 . S
C4209 C4213 1.495 . S
C4210 C4209 1.392 . S
C4210 C4211 1.385 . S
C4210 C4212 1.478 . S
C4211 H4205 0.930 . S
C4211 C4207 1.400 . S
C4211 C4210 1.385 . S
C4212 C4210 1.478 . S
C4212 C4214 1.381 . S
C4212 C4218 1.383 . S
C4213 C4209 1.495 . S
C4213 H4219 0.959 . S
C4213 H4220 0.961 . S
C4213 H4221 0.960 . S
C4214 C4212 1.381 . S
C4214 C4215 1.394 . S
C4214 H4222 0.930 . S
C4215 C4214 1.394 . S
C4215 C4216 1.383 . S
C4215 H4223 0.929 . S
C4216 C4215 1.383 . S
C4216 C4217 1.377 . S
C4217 H4201 0.930 . S
C4217 C4216 1.377 . S
C4217 C4218 1.379 . S
C4218 H4202 0.931 . S
C4218 C4212 1.383 . S
C4218 C4217 1.379 . S
H4219 C4213 0.959 . S
H4220 C4213 0.961 . S
H4221 C4213 0.960 . S
H4222 C4214 0.930 . S
H4223 C4215 0.929 . S
H4224 C4232 0.929 . S
H4225 C4234 0.930 . S
H4226 C4236 0.930 . S
H4227 C4239 0.929 . S
H4228 C4242 0.930 . S
H4229 C4244 0.960 . S
H4230 C4244 0.960 . S
H4231 C4244 0.960 . S
C4232 H4224 0.929 . S
C4232 C4233 1.377 . S
C4232 C4234 1.384 . S
C4233 C4232 1.377 . S
C4233 C4239 1.390 . S
C4234 H4225 0.930 . S
C4234 C4232 1.384 . S
C4234 C4235 1.372 . S
C4235 C4234 1.372 . S
C4235 C4236 1.400 . S
C4235 C4240 1.490 . S
C4236 H4226 0.930 . S
C4236 C4235 1.400 . S
C4236 C4239 1.386 . S
H4237 C4253 0.930 . S
H4238 C4254 0.931 . S
C4239 H4227 0.929 . S
C4239 C4233 1.390 . S
C4239 C4236 1.386 . S
C4240 C4235 1.490 . S
C4240 C4242 1.395 . S
C4240 C4243 1.403 . S
H4241 C4247 0.930 . S
C4242 H4228 0.930 . S
C4242 C4240 1.395 . S
C4242 C4245 1.403 . S
C4243 C4240 1.403 . S
C4243 C4244 1.524 . S
C4243 C4247 1.400 . S
C4244 H4229 0.960 . S
C4244 H4230 0.960 . S
C4244 H4231 0.960 . S
C4244 C4243 1.524 . S
C4245 C4242 1.403 . S
C4245 C4246 1.392 . S
C4245 C4249 1.495 . S
C4246 C4245 1.392 . S
C4246 C4247 1.385 . S
C4246 C4248 1.478 . S
C4247 H4241 0.930 . S
C4247 C4243 1.400 . S
C4247 C4246 1.385 . S
C4248 C4246 1.478 . S
C4248 C4250 1.381 . S
C4248 C4254 1.383 . S
C4249 C4245 1.495 . S
C4249 H4255 0.959 . S
C4249 H4256 0.961 . S
C4249 H4257 0.960 . S
C4250 C4248 1.381 . S
C4250 C4251 1.394 . S
C4250 H4258 0.930 . S
C4251 C4250 1.394 . S
C4251 C4252 1.383 . S
C4251 H4259 0.929 . S
C4252 C4251 1.383 . S
C4252 C4253 1.377 . S
C4253 H4237 0.930 . S
C4253 C4252 1.377 . S
C4253 C4254 1.379 . S
C4254 H4238 0.931 . S
C4254 C4248 1.383 . S
C4254 C4253 1.379 . S
H4255 C4249 0.959 . S
H4256 C4249 0.961 . S
H4257 C4249 0.960 . S
H4258 C4250 0.930 . S
H4259 C4251 0.929 . S
H4260 C4268 0.929 . S
H4261 C4270 0.930 . S
H4262 C4272 0.930 . S
H4263 C4275 0.929 1_554 S
H4264 C4278 0.930 . S
H4265 C4280 0.960 . S
H4266 C4280 0.960 . S
H4267 C4280 0.960 . S
C4268 H4260 0.929 . S
C4268 C4269 1.377 . S
C4268 C4270 1.384 . S
C4269 C4268 1.377 . S
C4269 C4275 1.390 . S
C4270 H4261 0.930 . S
C4270 C4268 1.384 . S
C4270 C4271 1.372 . S
C4271 C4270 1.372 . S
C4271 C4272 1.400 . S
C4271 C4276 1.490 . S
C4272 H4262 0.930 . S
C4272 C4271 1.400 . S
C4272 C4275 1.386 . S
H4273 C4289 0.930 . S
H4274 C4290 0.931 . S
C4275 H4263 0.929 1_556 S
C4275 C4269 1.390 . S
C4275 C4272 1.386 . S
C4276 C4271 1.490 . S
C4276 C4278 1.395 . S
C4276 C4279 1.403 . S
H4277 C4283 0.930 . S
C4278 H4264 0.930 . S
C4278 C4276 1.395 . S
C4278 C4281 1.403 . S
C4279 C4276 1.403 . S
C4279 C4280 1.524 . S
C4279 C4283 1.400 . S
C4280 H4265 0.960 . S
C4280 H4266 0.960 . S
C4280 H4267 0.960 . S
C4280 C4279 1.524 . S
C4281 C4278 1.403 . S
C4281 C4282 1.392 . S
C4281 C4285 1.495 . S
C4282 C4281 1.392 . S
C4282 C4283 1.385 . S
C4282 C4284 1.478 . S
C4283 H4277 0.930 . S
C4283 C4279 1.400 . S
C4283 C4282 1.385 . S
C4284 C4282 1.478 . S
C4284 C4286 1.381 . S
C4284 C4290 1.383 . S
C4285 C4281 1.495 . S
C4285 H4291 0.959 . S
C4285 H4292 0.961 . S
C4285 H4293 0.960 . S
C4286 C4284 1.381 . S
C4286 C4287 1.394 . S
C4286 H4294 0.930 . S
C4287 C4286 1.394 . S
C4287 C4288 1.383 . S
C4287 H4295 0.929 . S
C4288 C4287 1.383 . S
C4288 C4289 1.377 . S
C4289 H4273 0.930 . S
C4289 C4288 1.377 . S
C4289 C4290 1.379 . S
C4290 H4274 0.931 . S
C4290 C4284 1.383 . S
C4290 C4289 1.379 . S
H4291 C4285 0.959 . S
H4292 C4285 0.961 . S
H4293 C4285 0.960 . S
H4294 C4286 0.930 . S
H4295 C4287 0.929 . S
H4296 C4304 0.929 . S
H4297 C4306 0.930 . S
H4298 C4308 0.930 . S
H4299 C4311 0.929 . S
H4300 C4314 0.930 . S
H4301 C4316 0.960 . S
H4302 C4316 0.960 . S
H4303 C4316 0.960 . S
C4304 H4296 0.929 . S
C4304 C4305 1.377 . S
C4304 C4306 1.384 . S
C4305 C4304 1.377 . S
C4305 C4311 1.390 . S
C4306 H4297 0.930 . S
C4306 C4304 1.384 . S
C4306 C4307 1.372 . S
C4307 C4306 1.372 . S
C4307 C4308 1.400 . S
C4307 C4312 1.490 . S
C4308 H4298 0.930 . S
C4308 C4307 1.400 . S
C4308 C4311 1.386 . S
H4309 C4325 0.930 . S
H4310 C4326 0.931 . S
C4311 H4299 0.929 . S
C4311 C4305 1.390 . S
C4311 C4308 1.386 . S
C4312 C4307 1.490 . S
C4312 C4314 1.395 . S
C4312 C4315 1.403 . S
H4313 C4319 0.930 . S
C4314 H4300 0.930 . S
C4314 C4312 1.395 . S
C4314 C4317 1.403 . S
C4315 C4312 1.403 . S
C4315 C4316 1.524 . S
C4315 C4319 1.400 . S
C4316 H4301 0.960 . S
C4316 H4302 0.960 . S
C4316 H4303 0.960 . S
C4316 C4315 1.524 . S
C4317 C4314 1.403 . S
C4317 C4318 1.392 . S
C4317 C4321 1.495 . S
C4318 C4317 1.392 . S
C4318 C4319 1.385 . S
C4318 C4320 1.478 . S
C4319 H4313 0.930 . S
C4319 C4315 1.400 . S
C4319 C4318 1.385 . S
C4320 C4318 1.478 . S
C4320 C4322 1.381 . S
C4320 C4326 1.383 . S
C4321 C4317 1.495 . S
C4321 H4327 0.959 . S
C4321 H4328 0.961 . S
C4321 H4329 0.960 . S
C4322 C4320 1.381 . S
C4322 C4323 1.394 . S
C4322 H4330 0.930 . S
C4323 C4322 1.394 . S
C4323 C4324 1.383 . S
C4323 H4331 0.929 . S
C4324 C4323 1.383 . S
C4324 C4325 1.377 . S
C4325 H4309 0.930 . S
C4325 C4324 1.377 . S
C4325 C4326 1.379 . S
C4326 H4310 0.931 . S
C4326 C4320 1.383 . S
C4326 C4325 1.379 . S
H4327 C4321 0.959 . S
H4328 C4321 0.961 . S
H4329 C4321 0.960 . S
H4330 C4322 0.930 . S
H4331 C4323 0.929 . S
H4332 C4340 0.929 . S
H4333 C4342 0.930 . S
H4334 C4344 0.930 . S
H4335 C4347 0.929 . S
H4336 C4350 0.930 . S
H4337 C4352 0.960 . S
H4338 C4352 0.960 . S
H4339 C4352 0.960 . S
C4340 H4332 0.929 . S
C4340 C4341 1.377 . S
C4340 C4342 1.384 . S
C4341 C4340 1.377 . S
C4341 C4347 1.390 . S
C4342 H4333 0.930 . S
C4342 C4340 1.384 . S
C4342 C4343 1.372 . S
C4343 C4342 1.372 . S
C4343 C4344 1.400 . S
C4343 C4348 1.490 . S
C4344 H4334 0.930 . S
C4344 C4343 1.400 . S
C4344 C4347 1.386 . S
H4345 C4361 0.930 . S
H4346 C4362 0.931 . S
C4347 H4335 0.929 . S
C4347 C4341 1.390 . S
C4347 C4344 1.386 . S
C4348 C4343 1.490 . S
C4348 C4350 1.395 . S
C4348 C4351 1.403 . S
H4349 C4355 0.930 . S
C4350 H4336 0.930 . S
C4350 C4348 1.395 . S
C4350 C4353 1.403 . S
C4351 C4348 1.403 . S
C4351 C4352 1.524 . S
C4351 C4355 1.400 . S
C4352 H4337 0.960 . S
C4352 H4338 0.960 . S
C4352 H4339 0.960 . S
C4352 C4351 1.524 . S
C4353 C4350 1.403 . S
C4353 C4354 1.392 . S
C4353 C4357 1.495 . S
C4354 C4353 1.392 . S
C4354 C4355 1.385 . S
C4354 C4356 1.478 . S
C4355 H4349 0.930 . S
C4355 C4351 1.400 . S
C4355 C4354 1.385 . S
C4356 C4354 1.478 . S
C4356 C4358 1.381 . S
C4356 C4362 1.383 . S
C4357 C4353 1.495 . S
C4357 H4363 0.959 . S
C4357 H4364 0.961 . S
C4357 H4365 0.960 . S
C4358 C4356 1.381 . S
C4358 C4359 1.394 . S
C4358 H4366 0.930 . S
C4359 C4358 1.394 . S
C4359 C4360 1.383 . S
C4359 H4367 0.929 . S
C4360 C4359 1.383 . S
C4360 C4361 1.377 . S
C4361 H4345 0.930 . S
C4361 C4360 1.377 . S
C4361 C4362 1.379 . S
C4362 H4346 0.931 . S
C4362 C4356 1.383 . S
C4362 C4361 1.379 . S
H4363 C4357 0.959 . S
H4364 C4357 0.961 . S
H4365 C4357 0.960 . S
H4366 C4358 0.930 . S
H4367 C4359 0.929 . S
H4368 C4376 0.929 . S
H4369 C4378 0.930 . S
H4370 C4380 0.930 . S
H4371 C4383 0.929 . S
H4372 C4386 0.930 . S
H4373 C4388 0.960 . S
H4374 C4388 0.960 . S
H4375 C4388 0.960 . S
C4376 H4368 0.929 . S
C4376 C4377 1.377 . S
C4376 C4378 1.384 . S
C4377 C4376 1.377 . S
C4377 C4383 1.390 . S
C4378 H4369 0.930 . S
C4378 C4376 1.384 . S
C4378 C4379 1.372 . S
C4379 C4378 1.372 . S
C4379 C4380 1.400 . S
C4379 C4384 1.490 . S
C4380 H4370 0.930 . S
C4380 C4379 1.400 . S
C4380 C4383 1.386 . S
H4381 C4397 0.930 . S
H4382 C4398 0.931 . S
C4383 H4371 0.929 . S
C4383 C4377 1.390 . S
C4383 C4380 1.386 . S
C4384 C4379 1.490 . S
C4384 C4386 1.395 . S
C4384 C4387 1.403 . S
H4385 C4391 0.930 . S
C4386 H4372 0.930 . S
C4386 C4384 1.395 . S
C4386 C4389 1.403 . S
C4387 C4384 1.403 . S
C4387 C4388 1.524 . S
C4387 C4391 1.400 . S
C4388 H4373 0.960 . S
C4388 H4374 0.960 . S
C4388 H4375 0.960 . S
C4388 C4387 1.524 . S
C4389 C4386 1.403 . S
C4389 C4390 1.392 . S
C4389 C4393 1.495 . S
C4390 C4389 1.392 . S
C4390 C4391 1.385 . S
C4390 C4392 1.478 . S
C4391 H4385 0.930 . S
C4391 C4387 1.400 . S
C4391 C4390 1.385 . S
C4392 C4390 1.478 . S
C4392 C4394 1.381 . S
C4392 C4398 1.383 . S
C4393 C4389 1.495 . S
C4393 H4399 0.959 . S
C4393 H4400 0.961 . S
C4393 H4401 0.960 . S
C4394 C4392 1.381 . S
C4394 C4395 1.394 . S
C4394 H4402 0.930 . S
C4395 C4394 1.394 . S
C4395 C4396 1.383 . S
C4395 H4403 0.929 . S
C4396 C4395 1.383 . S
C4396 C4397 1.377 . S
C4397 H4381 0.930 . S
C4397 C4396 1.377 . S
C4397 C4398 1.379 . S
C4398 H4382 0.931 . S
C4398 C4392 1.383 . S
C4398 C4397 1.379 . S
H4399 C4393 0.959 . S
H4400 C4393 0.961 . S
H4401 C4393 0.960 . S
H4402 C4394 0.930 . S
H4403 C4395 0.929 . S
H4404 C4412 0.929 . S
H4405 C4414 0.930 . S
H4406 C4416 0.930 . S
H4407 C4419 0.929 . S
H4408 C4422 0.930 . S
H4409 C4424 0.960 . S
H4410 C4424 0.960 . S
H4411 C4424 0.960 . S
C4412 H4404 0.929 . S
C4412 C4413 1.377 . S
C4412 C4414 1.384 . S
C4413 C4412 1.377 . S
C4413 C4419 1.390 . S
C4414 H4405 0.930 . S
C4414 C4412 1.384 . S
C4414 C4415 1.372 . S
C4415 C4414 1.372 . S
C4415 C4416 1.400 . S
C4415 C4420 1.490 . S
C4416 H4406 0.930 . S
C4416 C4415 1.400 . S
C4416 C4419 1.386 . S
H4417 C4433 0.930 . S
H4418 C4434 0.931 . S
C4419 H4407 0.929 . S
C4419 C4413 1.390 . S
C4419 C4416 1.386 . S
C4420 C4415 1.490 . S
C4420 C4422 1.395 . S
C4420 C4423 1.403 . S
H4421 C4427 0.930 . S
C4422 H4408 0.930 . S
C4422 C4420 1.395 . S
C4422 C4425 1.403 . S
C4423 C4420 1.403 . S
C4423 C4424 1.524 . S
C4423 C4427 1.400 . S
C4424 H4409 0.960 . S
C4424 H4410 0.960 . S
C4424 H4411 0.960 . S
C4424 C4423 1.524 . S
C4425 C4422 1.403 . S
C4425 C4426 1.392 . S
C4425 C4429 1.495 . S
C4426 C4425 1.392 . S
C4426 C4427 1.385 . S
C4426 C4428 1.478 . S
C4427 H4421 0.930 . S
C4427 C4423 1.400 . S
C4427 C4426 1.385 . S
C4428 C4426 1.478 . S
C4428 C4430 1.381 . S
C4428 C4434 1.383 . S
C4429 C4425 1.495 . S
C4429 H4435 0.959 . S
C4429 H4436 0.961 . S
C4429 H4437 0.960 . S
C4430 C4428 1.381 . S
C4430 C4431 1.394 . S
C4430 H4438 0.930 . S
C4431 C4430 1.394 . S
C4431 C4432 1.383 . S
C4431 H4439 0.929 . S
C4432 C4431 1.383 . S
C4432 C4433 1.377 . S
C4433 H4417 0.930 . S
C4433 C4432 1.377 . S
C4433 C4434 1.379 . S
C4434 H4418 0.931 . S
C4434 C4428 1.383 . S
C4434 C4433 1.379 . S
H4435 C4429 0.959 . S
H4436 C4429 0.961 . S
H4437 C4429 0.960 . S
H4438 C4430 0.930 . S
H4439 C4431 0.929 . S
H4440 C4448 0.929 . S
H4441 C4450 0.930 . S
H4442 C4452 0.930 . S
H4443 C4455 0.929 . S
H4444 C4458 0.930 . S
H4445 C4460 0.960 . S
H4446 C4460 0.960 . S
H4447 C4460 0.960 . S
C4448 H4440 0.929 . S
C4448 C4449 1.377 . S
C4448 C4450 1.384 . S
C4449 C4448 1.377 . S
C4449 C4455 1.390 . S
C4450 H4441 0.930 . S
C4450 C4448 1.384 . S
C4450 C4451 1.372 . S
C4451 C4450 1.372 . S
C4451 C4452 1.400 . S
C4451 C4456 1.490 . S
C4452 H4442 0.930 . S
C4452 C4451 1.400 . S
C4452 C4455 1.386 . S
H4453 C4469 0.930 . S
H4454 C4470 0.931 . S
C4455 H4443 0.929 . S
C4455 C4449 1.390 . S
C4455 C4452 1.386 . S
C4456 C4451 1.490 . S
C4456 C4458 1.395 . S
C4456 C4459 1.403 . S
H4457 C4463 0.930 . S
C4458 H4444 0.930 . S
C4458 C4456 1.395 . S
C4458 C4461 1.403 . S
C4459 C4456 1.403 . S
C4459 C4460 1.524 . S
C4459 C4463 1.400 . S
C4460 H4445 0.960 . S
C4460 H4446 0.960 . S
C4460 H4447 0.960 . S
C4460 C4459 1.524 . S
C4461 C4458 1.403 . S
C4461 C4462 1.392 . S
C4461 C4465 1.495 . S
C4462 C4461 1.392 . S
C4462 C4463 1.385 . S
C4462 C4464 1.478 . S
C4463 H4457 0.930 . S
C4463 C4459 1.400 . S
C4463 C4462 1.385 . S
C4464 C4462 1.478 . S
C4464 C4466 1.381 . S
C4464 C4470 1.383 . S
C4465 C4461 1.495 . S
C4465 H4471 0.959 . S
C4465 H4472 0.961 . S
C4465 H4473 0.960 . S
C4466 C4464 1.381 . S
C4466 C4467 1.394 . S
C4466 H4474 0.930 . S
C4467 C4466 1.394 . S
C4467 C4468 1.383 . S
C4467 H4475 0.929 . S
C4468 C4467 1.383 . S
C4468 C4469 1.377 . S
C4469 H4453 0.930 . S
C4469 C4468 1.377 . S
C4469 C4470 1.379 . S
C4470 H4454 0.931 . S
C4470 C4464 1.383 . S
C4470 C4469 1.379 . S
H4471 C4465 0.959 . S
H4472 C4465 0.961 . S
H4473 C4465 0.960 . S
H4474 C4466 0.930 . S
H4475 C4467 0.929 . S
H4476 C4484 0.929 . S
H4477 C4486 0.930 . S
H4478 C4488 0.930 . S
H4479 C4491 0.929 . S
H4480 C4494 0.930 . S
H4481 C4496 0.960 . S
H4482 C4496 0.960 . S
H4483 C4496 0.960 . S
C4484 H4476 0.929 . S
C4484 C4485 1.377 . S
C4484 C4486 1.384 . S
C4485 C4484 1.377 . S
C4485 C4491 1.390 . S
C4486 H4477 0.930 . S
C4486 C4484 1.384 . S
C4486 C4487 1.372 . S
C4487 C4486 1.372 . S
C4487 C4488 1.400 . S
C4487 C4492 1.490 . S
C4488 H4478 0.930 . S
C4488 C4487 1.400 . S
C4488 C4491 1.386 . S
H4489 C4505 0.930 . S
H4490 C4506 0.931 . S
C4491 H4479 0.929 . S
C4491 C4485 1.390 . S
C4491 C4488 1.386 . S
C4492 C4487 1.490 . S
C4492 C4494 1.395 . S
C4492 C4495 1.403 . S
H4493 C4499 0.930 . S
C4494 H4480 0.930 . S
C4494 C4492 1.395 . S
C4494 C4497 1.403 . S
C4495 C4492 1.403 . S
C4495 C4496 1.524 . S
C4495 C4499 1.400 . S
C4496 H4481 0.960 . S
C4496 H4482 0.960 . S
C4496 H4483 0.960 . S
C4496 C4495 1.524 . S
C4497 C4494 1.403 . S
C4497 C4498 1.392 . S
C4497 C4501 1.495 . S
C4498 C4497 1.392 . S
C4498 C4499 1.385 . S
C4498 C4500 1.478 . S
C4499 H4493 0.930 . S
C4499 C4495 1.400 . S
C4499 C4498 1.385 . S
C4500 C4498 1.478 . S
C4500 C4502 1.381 . S
C4500 C4506 1.383 . S
C4501 C4497 1.495 . S
C4501 H4507 0.959 . S
C4501 H4508 0.961 . S
C4501 H4509 0.960 . S
C4502 C4500 1.381 . S
C4502 C4503 1.394 . S
C4502 H4510 0.930 . S
C4503 C4502 1.394 . S
C4503 C4504 1.383 . S
C4503 H4511 0.929 . S
C4504 C4503 1.383 . S
C4504 C4505 1.377 . S
C4505 H4489 0.930 . S
C4505 C4504 1.377 . S
C4505 C4506 1.379 . S
C4506 H4490 0.931 . S
C4506 C4500 1.383 . S
C4506 C4505 1.379 . S
H4507 C4501 0.959 . S
H4508 C4501 0.961 . S
H4509 C4501 0.960 . S
H4510 C4502 0.930 . S
H4511 C4503 0.929 . S
H4512 C4520 0.929 . S
H4513 C4522 0.930 . S
H4514 C4524 0.930 . S
H4515 C4527 0.929 . S
H4516 C4530 0.930 . S
H4517 C4532 0.960 . S
H4518 C4532 0.960 . S
H4519 C4532 0.960 . S
C4520 H4512 0.929 . S
C4520 C4521 1.377 . S
C4520 C4522 1.384 . S
C4521 C4520 1.377 . S
C4521 C4527 1.390 . S
C4522 H4513 0.930 . S
C4522 C4520 1.384 . S
C4522 C4523 1.372 . S
C4523 C4522 1.372 . S
C4523 C4524 1.400 . S
C4523 C4528 1.490 . S
C4524 H4514 0.930 . S
C4524 C4523 1.400 . S
C4524 C4527 1.386 . S
H4525 C4541 0.930 . S
H4526 C4542 0.931 . S
C4527 H4515 0.929 . S
C4527 C4521 1.390 . S
C4527 C4524 1.386 . S
C4528 C4523 1.490 . S
C4528 C4530 1.395 . S
C4528 C4531 1.403 . S
H4529 C4535 0.930 . S
C4530 H4516 0.930 . S
C4530 C4528 1.395 . S
C4530 C4533 1.403 . S
C4531 C4528 1.403 . S
C4531 C4532 1.524 . S
C4531 C4535 1.400 . S
C4532 H4517 0.960 . S
C4532 H4518 0.960 . S
C4532 H4519 0.960 . S
C4532 C4531 1.524 . S
C4533 C4530 1.403 . S
C4533 C4534 1.392 . S
C4533 C4537 1.495 . S
C4534 C4533 1.392 . S
C4534 C4535 1.385 . S
C4534 C4536 1.478 . S
C4535 H4529 0.930 . S
C4535 C4531 1.400 . S
C4535 C4534 1.385 . S
C4536 C4534 1.478 . S
C4536 C4538 1.381 . S
C4536 C4542 1.383 . S
C4537 C4533 1.495 . S
C4537 H4543 0.959 . S
C4537 H4544 0.961 . S
C4537 H4545 0.960 . S
C4538 C4536 1.381 . S
C4538 C4539 1.394 . S
C4538 H4546 0.930 . S
C4539 C4538 1.394 . S
C4539 C4540 1.383 . S
C4539 H4547 0.929 . S
C4540 C4539 1.383 . S
C4540 C4541 1.377 . S
C4541 H4525 0.930 . S
C4541 C4540 1.377 . S
C4541 C4542 1.379 . S
C4542 H4526 0.931 . S
C4542 C4536 1.383 . S
C4542 C4541 1.379 . S
H4543 C4537 0.959 . S
H4544 C4537 0.961 . S
H4545 C4537 0.960 . S
H4546 C4538 0.930 . S
H4547 C4539 0.929 . S
H4548 C4556 0.929 . S
H4549 C4558 0.930 . S
H4550 C4560 0.930 . S
H4551 C4563 0.929 . S
H4552 C4566 0.930 . S
H4553 C4568 0.960 . S
H4554 C4568 0.960 . S
H4555 C4568 0.960 . S
C4556 H4548 0.929 . S
C4556 C4557 1.377 . S
C4556 C4558 1.384 . S
C4557 C4556 1.377 . S
C4557 C4563 1.390 . S
C4558 H4549 0.930 . S
C4558 C4556 1.384 . S
C4558 C4559 1.372 . S
C4559 C4558 1.372 . S
C4559 C4560 1.400 . S
C4559 C4564 1.490 . S
C4560 H4550 0.930 . S
C4560 C4559 1.400 . S
C4560 C4563 1.386 . S
H4561 C4577 0.930 . S
H4562 C4578 0.931 . S
C4563 H4551 0.929 . S
C4563 C4557 1.390 . S
C4563 C4560 1.386 . S
C4564 C4559 1.490 . S
C4564 C4566 1.395 . S
C4564 C4567 1.403 . S
H4565 C4571 0.930 . S
C4566 H4552 0.930 . S
C4566 C4564 1.395 . S
C4566 C4569 1.403 . S
C4567 C4564 1.403 . S
C4567 C4568 1.524 . S
C4567 C4571 1.400 . S
C4568 H4553 0.960 . S
C4568 H4554 0.960 . S
C4568 H4555 0.960 . S
C4568 C4567 1.524 . S
C4569 C4566 1.403 . S
C4569 C4570 1.392 . S
C4569 C4573 1.495 . S
C4570 C4569 1.392 . S
C4570 C4571 1.385 . S
C4570 C4572 1.478 . S
C4571 H4565 0.930 . S
C4571 C4567 1.400 . S
C4571 C4570 1.385 . S
C4572 C4570 1.478 . S
C4572 C4574 1.381 . S
C4572 C4578 1.383 . S
C4573 C4569 1.495 . S
C4573 H4579 0.959 . S
C4573 H4580 0.961 . S
C4573 H4581 0.960 . S
C4574 C4572 1.381 . S
C4574 C4575 1.394 . S
C4574 H4582 0.930 . S
C4575 C4574 1.394 . S
C4575 C4576 1.383 . S
C4575 H4583 0.929 . S
C4576 C4575 1.383 . S
C4576 C4577 1.377 . S
C4577 H4561 0.930 . S
C4577 C4576 1.377 . S
C4577 C4578 1.379 . S
C4578 H4562 0.931 . S
C4578 C4572 1.383 . S
C4578 C4577 1.379 . S
H4579 C4573 0.959 . S
H4580 C4573 0.961 . S
H4581 C4573 0.960 . S
H4582 C4574 0.930 . S
H4583 C4575 0.929 . S
H4584 C4592 0.929 . S
H4585 C4594 0.930 . S
H4586 C4596 0.930 . S
H4587 C4599 0.932 1_545 S
H4588 C4602 0.930 . S
H4589 C4604 0.960 . S
H4590 C4604 0.960 . S
H4591 C4604 0.960 . S
C4592 H4584 0.929 . S
C4592 C4593 1.377 . S
C4592 C4594 1.384 . S
C4593 C4592 1.377 . S
C4593 C4599 1.390 . S
C4594 H4585 0.930 . S
C4594 C4592 1.384 . S
C4594 C4595 1.372 . S
C4595 C4594 1.372 . S
C4595 C4596 1.400 . S
C4595 C4600 1.490 . S
C4596 H4586 0.930 . S
C4596 C4595 1.400 . S
C4596 C4599 1.386 . S
H4597 C4613 0.930 . S
H4598 C4614 0.931 . S
C4599 H4587 0.932 1_565 S
C4599 C4593 1.390 . S
C4599 C4596 1.386 . S
C4600 C4595 1.490 . S
C4600 C4602 1.395 . S
C4600 C4603 1.403 . S
H4601 C4607 0.930 . S
C4602 H4588 0.930 . S
C4602 C4600 1.395 . S
C4602 C4605 1.403 . S
C4603 C4600 1.403 . S
C4603 C4604 1.524 . S
C4603 C4607 1.400 . S
C4604 H4589 0.960 . S
C4604 H4590 0.960 . S
C4604 H4591 0.960 . S
C4604 C4603 1.524 . S
C4605 C4602 1.403 . S
C4605 C4606 1.392 . S
C4605 C4609 1.495 . S
C4606 C4605 1.392 . S
C4606 C4607 1.385 . S
C4606 C4608 1.478 . S
C4607 H4601 0.930 . S
C4607 C4603 1.400 . S
C4607 C4606 1.385 . S
C4608 C4606 1.478 . S
C4608 C4610 1.381 . S
C4608 C4614 1.383 . S
C4609 C4605 1.495 . S
C4609 H4615 0.959 . S
C4609 H4616 0.961 . S
C4609 H4617 0.960 . S
C4610 C4608 1.381 . S
C4610 C4611 1.394 . S
C4610 H4618 0.930 . S
C4611 C4610 1.394 . S
C4611 C4612 1.383 . S
C4611 H4619 0.929 . S
C4612 C4611 1.383 . S
C4612 C4613 1.377 . S
C4613 H4597 0.930 . S
C4613 C4612 1.377 . S
C4613 C4614 1.379 . S
C4614 H4598 0.931 . S
C4614 C4608 1.383 . S
C4614 C4613 1.379 . S
H4615 C4609 0.959 . S
H4616 C4609 0.961 . S
H4617 C4609 0.960 . S
H4618 C4610 0.930 . S
H4619 C4611 0.929 . S
H4620 C4628 0.929 . S
H4621 C4630 0.930 . S
H4622 C4632 0.930 . S
H4623 C4635 0.929 . S
H4624 C4638 0.941 . S
H4625 C4640 0.960 . S
H4626 C4640 0.960 . S
H4627 C4640 0.960 . S
C4628 H4620 0.929 . S
C4628 C4629 1.377 1_556 S
C4628 C4630 1.384 . S
C4629 C4628 1.377 1_554 S
C4629 C4635 1.390 . S
C4630 H4621 0.930 . S
C4630 C4628 1.384 . S
C4630 C4631 1.372 1_556 S
C4631 C4630 1.372 1_554 S
C4631 C4632 1.400 . S
C4631 C4636 1.490 . S
C4632 H4622 0.930 . S
C4632 C4631 1.400 . S
C4632 C4635 1.386 . S
H4633 C4649 0.930 . S
H4634 C4650 0.931 . S
C4635 H4623 0.929 . S
C4635 C4629 1.390 . S
C4635 C4632 1.386 . S
C4636 C4631 1.490 . S
C4636 C4638 1.382 1_554 S
C4636 C4639 1.403 . S
H4637 C4643 0.930 . S
C4638 H4624 0.941 . S
C4638 C4636 1.382 1_556 S
C4638 C4641 1.410 1_556 S
C4639 C4636 1.403 . S
C4639 C4640 1.524 . S
C4639 C4643 1.400 . S
C4640 H4625 0.960 . S
C4640 H4626 0.960 . S
C4640 H4627 0.960 . S
C4640 C4639 1.524 . S
C4641 C4638 1.410 1_554 S
C4641 C4642 1.411 . S
C4641 C4645 1.474 1_564 S
C4642 C4641 1.411 . S
C4642 C4643 1.385 . S
C4642 C4644 1.478 . S
C4643 H4637 0.930 . S
C4643 C4639 1.400 . S
C4643 C4642 1.385 . S
C4644 C4642 1.478 . S
C4644 C4646 1.381 1_554 S
C4644 C4650 1.383 1_565 S
C4645 C4641 1.474 1_546 S
C4645 H4651 0.959 . S
C4645 H4652 0.943 1_556 S
C4645 H4653 0.960 . S
C4646 C4644 1.381 1_556 S
C4646 C4647 1.394 1_566 S
C4646 H4654 0.930 . S
C4647 C4646 1.394 1_544 S
C4647 C4648 1.389 . S
C4647 H4655 0.923 1_554 S
C4648 C4647 1.389 . S
C4648 C4649 1.377 . S
C4649 H4633 0.930 . S
C4649 C4648 1.377 . S
C4649 C4650 1.379 . S
C4650 H4634 0.931 . S
C4650 C4644 1.383 1_545 S
C4650 C4649 1.379 . S
H4651 C4645 0.959 . S
H4652 C4645 0.943 1_554 S
H4653 C4645 0.960 . S
H4654 C4646 0.930 . S
H4655 C4647 0.923 1_556 S
H4656 C4664 0.929 . S
H4657 C4666 0.930 . S
H4658 C4668 0.930 . S
H4659 C4671 0.929 . S
H4660 C4674 0.930 . S
H4661 C4676 0.960 . S
H4662 C4676 0.960 . S
H4663 C4676 0.960 . S
C4664 H4656 0.929 . S
C4664 C4665 1.377 . S
C4664 C4666 1.384 . S
C4665 C4664 1.377 . S
C4665 C4671 1.390 . S
C4666 H4657 0.930 . S
C4666 C4664 1.384 . S
C4666 C4667 1.372 . S
C4667 C4666 1.372 . S
C4667 C4668 1.400 . S
C4667 C4672 1.490 . S
C4668 H4658 0.930 . S
C4668 C4667 1.400 . S
C4668 C4671 1.386 . S
H4669 C4685 0.930 . S
H4670 C4686 0.931 . S
C4671 H4659 0.929 . S
C4671 C4665 1.390 . S
C4671 C4668 1.386 . S
C4672 C4667 1.490 . S
C4672 C4674 1.395 . S
C4672 C4675 1.403 . S
H4673 C4679 0.930 . S
C4674 H4660 0.930 . S
C4674 C4672 1.395 . S
C4674 C4677 1.403 . S
C4675 C4672 1.403 . S
C4675 C4676 1.524 . S
C4675 C4679 1.400 . S
C4676 H4661 0.960 . S
C4676 H4662 0.960 . S
C4676 H4663 0.960 . S
C4676 C4675 1.524 . S
C4677 C4674 1.403 . S
C4677 C4678 1.392 . S
C4677 C4681 1.495 . S
C4678 C4677 1.392 . S
C4678 C4679 1.385 . S
C4678 C4680 1.478 . S
C4679 H4673 0.930 . S
C4679 C4675 1.400 . S
C4679 C4678 1.385 . S
C4680 C4678 1.478 . S
C4680 C4682 1.381 . S
C4680 C4686 1.383 . S
C4681 C4677 1.495 . S
C4681 H4687 0.959 . S
C4681 H4688 0.961 . S
C4681 H4689 0.960 . S
C4682 C4680 1.381 . S
C4682 C4683 1.394 . S
C4682 H4690 0.930 . S
C4683 C4682 1.394 . S
C4683 C4684 1.383 . S
C4683 H4691 0.929 . S
C4684 C4683 1.383 . S
C4684 C4685 1.377 . S
C4685 H4669 0.930 . S
C4685 C4684 1.377 . S
C4685 C4686 1.379 . S
C4686 H4670 0.931 . S
C4686 C4680 1.383 . S
C4686 C4685 1.379 . S
H4687 C4681 0.959 . S
H4688 C4681 0.961 . S
H4689 C4681 0.960 . S
H4690 C4682 0.930 . S
H4691 C4683 0.929 . S
H4692 C4700 0.929 . S
H4693 C4702 0.930 . S
H4694 C4704 0.930 . S
H4695 C4707 0.929 . S
H4696 C4710 0.930 1_556 S
H4697 C4712 0.960 . S
H4698 C4712 0.960 . S
H4699 C4712 0.960 . S
C4700 H4692 0.929 . S
C4700 C4701 1.377 1_556 S
C4700 C4702 1.384 . S
C4701 C4700 1.377 1_554 S
C4701 C4707 1.390 . S
C4702 H4693 0.930 . S
C4702 C4700 1.384 . S
C4702 C4703 1.372 1_556 S
C4703 C4702 1.372 1_554 S
C4703 C4704 1.400 . S
C4703 C4708 1.490 . S
C4704 H4694 0.930 . S
C4704 C4703 1.400 . S
C4704 C4707 1.386 . S
H4705 C4721 0.930 . S
H4706 C4722 0.931 . S
C4707 H4695 0.929 . S
C4707 C4701 1.390 . S
C4707 C4704 1.386 . S
C4708 C4703 1.490 . S
C4708 C4710 1.395 . S
C4708 C4711 1.403 . S
H4709 C4715 0.930 . S
C4710 H4696 0.930 1_554 S
C4710 C4708 1.395 . S
C4710 C4713 1.403 . S
C4711 C4708 1.403 . S
C4711 C4712 1.524 . S
C4711 C4715 1.400 . S
C4712 H4697 0.960 . S
C4712 H4698 0.960 . S
C4712 H4699 0.960 . S
C4712 C4711 1.524 . S
C4713 C4710 1.403 . S
C4713 C4714 1.392 . S
C4713 C4717 1.495 1_554 S
C4714 C4713 1.392 . S
C4714 C4715 1.385 . S
C4714 C4716 1.478 . S
C4715 H4709 0.930 . S
C4715 C4711 1.400 . S
C4715 C4714 1.385 . S
C4716 C4714 1.478 . S
C4716 C4718 1.381 . S
C4716 C4722 1.383 . S
C4717 C4713 1.495 1_556 S
C4717 H4723 0.959 . S
C4717 H4724 0.957 1_556 S
C4717 H4725 0.960 . S
C4718 C4716 1.381 . S
C4718 C4719 1.394 . S
C4718 H4726 0.930 1_554 S
C4719 C4718 1.394 . S
C4719 C4720 1.383 . S
C4719 H4727 0.929 1_554 S
C4720 C4719 1.383 . S
C4720 C4721 1.377 . S
C4721 H4705 0.930 . S
C4721 C4720 1.377 . S
C4721 C4722 1.379 . S
C4722 H4706 0.931 . S
C4722 C4716 1.383 . S
C4722 C4721 1.379 . S
H4723 C4717 0.959 . S
H4724 C4717 0.957 1_554 S
H4725 C4717 0.960 . S
H4726 C4718 0.930 1_556 S
H4727 C4719 0.929 1_556 S
H4728 C4736 0.929 . S
H4729 C4738 0.930 . S
H4730 C4740 0.930 . S
H4731 C4743 0.929 . S
H4732 C4746 0.930 . S
H4733 C4748 0.960 . S
H4734 C4748 0.960 . S
H4735 C4748 0.960 . S
C4736 H4728 0.929 . S
C4736 C4737 1.377 . S
C4736 C4738 1.384 . S
C4737 C4736 1.377 . S
C4737 C4743 1.390 . S
C4738 H4729 0.930 . S
C4738 C4736 1.384 . S
C4738 C4739 1.372 . S
C4739 C4738 1.372 . S
C4739 C4740 1.400 . S
C4739 C4744 1.490 . S
C4740 H4730 0.930 . S
C4740 C4739 1.400 . S
C4740 C4743 1.386 . S
H4741 C4757 0.930 . S
H4742 C4758 0.931 . S
C4743 H4731 0.929 . S
C4743 C4737 1.390 . S
C4743 C4740 1.386 . S
C4744 C4739 1.490 . S
C4744 C4746 1.395 . S
C4744 C4747 1.403 . S
H4745 C4751 0.930 . S
C4746 H4732 0.930 . S
C4746 C4744 1.395 . S
C4746 C4749 1.403 . S
C4747 C4744 1.403 . S
C4747 C4748 1.524 . S
C4747 C4751 1.400 . S
C4748 H4733 0.960 . S
C4748 H4734 0.960 . S
C4748 H4735 0.960 . S
C4748 C4747 1.524 . S
C4749 C4746 1.403 . S
C4749 C4750 1.392 . S
C4749 C4753 1.495 . S
C4750 C4749 1.392 . S
C4750 C4751 1.385 . S
C4750 C4752 1.478 . S
C4751 H4745 0.930 . S
C4751 C4747 1.400 . S
C4751 C4750 1.385 . S
C4752 C4750 1.478 . S
C4752 C4754 1.381 . S
C4752 C4758 1.383 . S
C4753 C4749 1.495 . S
C4753 H4759 0.959 . S
C4753 H4760 0.961 . S
C4753 H4761 0.960 . S
C4754 C4752 1.381 . S
C4754 C4755 1.394 . S
C4754 H4762 0.930 . S
C4755 C4754 1.394 . S
C4755 C4756 1.383 . S
C4755 H4763 0.929 . S
C4756 C4755 1.383 . S
C4756 C4757 1.377 . S
C4757 H4741 0.930 . S
C4757 C4756 1.377 . S
C4757 C4758 1.379 . S
C4758 H4742 0.931 . S
C4758 C4752 1.383 . S
C4758 C4757 1.379 . S
H4759 C4753 0.959 . S
H4760 C4753 0.961 . S
H4761 C4753 0.960 . S
H4762 C4754 0.930 . S
H4763 C4755 0.929 . S
H4764 C4772 0.929 . S
H4765 C4774 0.930 . S
H4766 C4776 0.930 . S
H4767 C4779 0.929 . S
H4768 C4782 0.930 . S
H4769 C4784 0.960 . S
H4770 C4784 0.960 . S
H4771 C4784 0.960 . S
C4772 H4764 0.929 . S
C4772 C4773 1.377 . S
C4772 C4774 1.384 . S
C4773 C4772 1.377 . S
C4773 C4779 1.390 . S
C4774 H4765 0.930 . S
C4774 C4772 1.384 . S
C4774 C4775 1.372 . S
C4775 C4774 1.372 . S
C4775 C4776 1.400 . S
C4775 C4780 1.490 . S
C4776 H4766 0.930 . S
C4776 C4775 1.400 . S
C4776 C4779 1.386 . S
H4777 C4793 0.930 . S
H4778 C4794 0.931 . S
C4779 H4767 0.929 . S
C4779 C4773 1.390 . S
C4779 C4776 1.386 . S
C4780 C4775 1.490 . S
C4780 C4782 1.395 . S
C4780 C4783 1.403 . S
H4781 C4787 0.930 . S
C4782 H4768 0.930 . S
C4782 C4780 1.395 . S
C4782 C4785 1.403 . S
C4783 C4780 1.403 . S
C4783 C4784 1.524 . S
C4783 C4787 1.400 . S
C4784 H4769 0.960 . S
C4784 H4770 0.960 . S
C4784 H4771 0.960 . S
C4784 C4783 1.524 . S
C4785 C4782 1.403 . S
C4785 C4786 1.392 . S
C4785 C4789 1.495 . S
C4786 C4785 1.392 . S
C4786 C4787 1.385 . S
C4786 C4788 1.478 . S
C4787 H4781 0.930 . S
C4787 C4783 1.400 . S
C4787 C4786 1.385 . S
C4788 C4786 1.478 . S
C4788 C4790 1.381 . S
C4788 C4794 1.383 . S
C4789 C4785 1.495 . S
C4789 H4795 0.959 . S
C4789 H4796 0.961 . S
C4789 H4797 0.960 . S
C4790 C4788 1.381 . S
C4790 C4791 1.394 . S
C4790 H4798 0.930 . S
C4791 C4790 1.394 . S
C4791 C4792 1.383 . S
C4791 H4799 0.929 . S
C4792 C4791 1.383 . S
C4792 C4793 1.377 . S
C4793 H4777 0.930 . S
C4793 C4792 1.377 . S
C4793 C4794 1.379 . S
C4794 H4778 0.931 . S
C4794 C4788 1.383 . S
C4794 C4793 1.379 . S
H4795 C4789 0.959 . S
H4796 C4789 0.961 . S
H4797 C4789 0.960 . S
H4798 C4790 0.930 . S
H4799 C4791 0.929 . S
H4800 C4808 0.929 . S
H4801 C4810 0.930 . S
H4802 C4812 0.930 . S
H4803 C4815 0.929 . S
H4804 C4818 0.930 . S
H4805 C4820 0.960 . S
H4806 C4820 0.960 . S
H4807 C4820 0.960 . S
C4808 H4800 0.929 . S
C4808 C4809 1.377 . S
C4808 C4810 1.384 . S
C4809 C4808 1.377 . S
C4809 C4815 1.390 . S
C4810 H4801 0.930 . S
C4810 C4808 1.384 . S
C4810 C4811 1.372 . S
C4811 C4810 1.372 . S
C4811 C4812 1.400 . S
C4811 C4816 1.490 . S
C4812 H4802 0.930 . S
C4812 C4811 1.400 . S
C4812 C4815 1.386 . S
H4813 C4829 0.930 . S
H4814 C4830 0.931 . S
C4815 H4803 0.929 . S
C4815 C4809 1.390 . S
C4815 C4812 1.386 . S
C4816 C4811 1.490 . S
C4816 C4818 1.395 . S
C4816 C4819 1.403 . S
H4817 C4823 0.930 . S
C4818 H4804 0.930 . S
C4818 C4816 1.395 . S
C4818 C4821 1.403 . S
C4819 C4816 1.403 . S
C4819 C4820 1.524 . S
C4819 C4823 1.400 . S
C4820 H4805 0.960 . S
C4820 H4806 0.960 . S
C4820 H4807 0.960 . S
C4820 C4819 1.524 . S
C4821 C4818 1.403 . S
C4821 C4822 1.392 . S
C4821 C4825 1.495 . S
C4822 C4821 1.392 . S
C4822 C4823 1.385 . S
C4822 C4824 1.478 . S
C4823 H4817 0.930 . S
C4823 C4819 1.400 . S
C4823 C4822 1.385 . S
C4824 C4822 1.478 . S
C4824 C4826 1.381 . S
C4824 C4830 1.383 . S
C4825 C4821 1.495 . S
C4825 H4831 0.959 . S
C4825 H4832 0.961 . S
C4825 H4833 0.960 . S
C4826 C4824 1.381 . S
C4826 C4827 1.394 . S
C4826 H4834 0.930 . S
C4827 C4826 1.394 . S
C4827 C4828 1.383 . S
C4827 H4835 0.929 . S
C4828 C4827 1.383 . S
C4828 C4829 1.377 . S
C4829 H4813 0.930 . S
C4829 C4828 1.377 . S
C4829 C4830 1.379 . S
C4830 H4814 0.931 . S
C4830 C4824 1.383 . S
C4830 C4829 1.379 . S
H4831 C4825 0.959 . S
H4832 C4825 0.961 . S
H4833 C4825 0.960 . S
H4834 C4826 0.930 . S
H4835 C4827 0.929 . S
H4836 C4844 0.929 . S
H4837 C4846 0.930 . S
H4838 C4848 0.930 . S
H4839 C4851 0.929 . S
H4840 C4854 0.930 . S
H4841 C4856 0.960 . S
H4842 C4856 0.960 . S
H4843 C4856 0.960 . S
C4844 H4836 0.929 . S
C4844 C4845 1.377 . S
C4844 C4846 1.384 . S
C4845 C4844 1.377 . S
C4845 C4851 1.390 . S
C4846 H4837 0.930 . S
C4846 C4844 1.384 . S
C4846 C4847 1.372 . S
C4847 C4846 1.372 . S
C4847 C4848 1.400 . S
C4847 C4852 1.490 . S
C4848 H4838 0.930 . S
C4848 C4847 1.400 . S
C4848 C4851 1.386 . S
H4849 C4865 0.930 . S
H4850 C4866 0.931 . S
C4851 H4839 0.929 . S
C4851 C4845 1.390 . S
C4851 C4848 1.386 . S
C4852 C4847 1.490 . S
C4852 C4854 1.395 . S
C4852 C4855 1.403 . S
H4853 C4859 0.930 . S
C4854 H4840 0.930 . S
C4854 C4852 1.395 . S
C4854 C4857 1.403 . S
C4855 C4852 1.403 . S
C4855 C4856 1.524 . S
C4855 C4859 1.400 . S
C4856 H4841 0.960 . S
C4856 H4842 0.960 . S
C4856 H4843 0.960 . S
C4856 C4855 1.524 . S
C4857 C4854 1.403 . S
C4857 C4858 1.392 . S
C4857 C4861 1.495 . S
C4858 C4857 1.392 . S
C4858 C4859 1.385 . S
C4858 C4860 1.478 . S
C4859 H4853 0.930 . S
C4859 C4855 1.400 . S
C4859 C4858 1.385 . S
C4860 C4858 1.478 . S
C4860 C4862 1.381 . S
C4860 C4866 1.383 . S
C4861 C4857 1.495 . S
C4861 H4867 0.959 . S
C4861 H4868 0.961 . S
C4861 H4869 0.960 . S
C4862 C4860 1.381 . S
C4862 C4863 1.394 . S
C4862 H4870 0.930 . S
C4863 C4862 1.394 . S
C4863 C4864 1.383 . S
C4863 H4871 0.929 . S
C4864 C4863 1.383 . S
C4864 C4865 1.377 . S
C4865 H4849 0.930 . S
C4865 C4864 1.377 . S
C4865 C4866 1.379 . S
C4866 H4850 0.931 . S
C4866 C4860 1.383 . S
C4866 C4865 1.379 . S
H4867 C4861 0.959 . S
H4868 C4861 0.961 . S
H4869 C4861 0.960 . S
H4870 C4862 0.930 . S
H4871 C4863 0.929 . S
H4872 C4880 0.929 . S
H4873 C4882 0.930 . S
H4874 C4884 0.930 . S
H4875 C4887 0.929 . S
H4876 C4890 0.930 . S
H4877 C4892 0.960 . S
H4878 C4892 0.960 . S
H4879 C4892 0.960 . S
C4880 H4872 0.929 . S
C4880 C4881 1.377 . S
C4880 C4882 1.384 . S
C4881 C4880 1.377 . S
C4881 C4887 1.390 . S
C4882 H4873 0.930 . S
C4882 C4880 1.384 . S
C4882 C4883 1.372 . S
C4883 C4882 1.372 . S
C4883 C4884 1.400 . S
C4883 C4888 1.490 . S
C4884 H4874 0.930 . S
C4884 C4883 1.400 . S
C4884 C4887 1.386 . S
H4885 C4901 0.930 . S
H4886 C4902 0.931 . S
C4887 H4875 0.929 . S
C4887 C4881 1.390 . S
C4887 C4884 1.386 . S
C4888 C4883 1.490 . S
C4888 C4890 1.395 . S
C4888 C4891 1.403 . S
H4889 C4895 0.930 . S
C4890 H4876 0.930 . S
C4890 C4888 1.395 . S
C4890 C4893 1.403 . S
C4891 C4888 1.403 . S
C4891 C4892 1.524 . S
C4891 C4895 1.400 . S
C4892 H4877 0.960 . S
C4892 H4878 0.960 . S
C4892 H4879 0.960 . S
C4892 C4891 1.524 . S
C4893 C4890 1.403 . S
C4893 C4894 1.392 . S
C4893 C4897 1.495 1_455 S
C4894 C4893 1.392 . S
C4894 C4895 1.385 . S
C4894 C4896 1.478 . S
C4895 H4889 0.930 . S
C4895 C4891 1.400 . S
C4895 C4894 1.385 . S
C4896 C4894 1.478 . S
C4896 C4898 1.381 . S
C4896 C4902 1.383 . S
C4897 C4893 1.495 1_655 S
C4897 H4903 0.959 . S
C4897 H4904 0.961 . S
C4897 H4905 0.960 . S
C4898 C4896 1.381 . S
C4898 C4899 1.394 . S
C4898 H4906 0.930 . S
C4899 C4898 1.394 . S
C4899 C4900 1.383 . S
C4899 H4907 0.929 . S
C4900 C4899 1.383 . S
C4900 C4901 1.377 . S
C4901 H4885 0.930 . S
C4901 C4900 1.377 . S
C4901 C4902 1.379 . S
C4902 H4886 0.931 . S
C4902 C4896 1.383 . S
C4902 C4901 1.379 . S
H4903 C4897 0.959 . S
H4904 C4897 0.961 . S
H4905 C4897 0.960 . S
H4906 C4898 0.930 . S
H4907 C4899 0.929 . S
H4908 C4916 0.929 . S
H4909 C4918 0.930 . S
H4910 C4920 0.930 . S
H4911 C4923 0.929 . S
H4912 C4926 0.930 . S
H4913 C4928 0.960 . S
H4914 C4928 0.960 . S
H4915 C4928 0.960 . S
C4916 H4908 0.929 . S
C4916 C4917 1.377 . S
C4916 C4918 1.384 . S
C4917 C4916 1.377 . S
C4917 C4923 1.390 . S
C4918 H4909 0.930 . S
C4918 C4916 1.384 . S
C4918 C4919 1.372 . S
C4919 C4918 1.372 . S
C4919 C4920 1.400 . S
C4919 C4924 1.490 . S
C4920 H4910 0.930 . S
C4920 C4919 1.400 . S
C4920 C4923 1.386 . S
H4921 C4937 0.930 . S
H4922 C4938 0.931 . S
C4923 H4911 0.929 . S
C4923 C4917 1.390 . S
C4923 C4920 1.386 . S
C4924 C4919 1.490 . S
C4924 C4926 1.395 . S
C4924 C4927 1.403 . S
H4925 C4931 0.930 . S
C4926 H4912 0.930 . S
C4926 C4924 1.395 . S
C4926 C4929 1.403 . S
C4927 C4924 1.403 . S
C4927 C4928 1.524 . S
C4927 C4931 1.400 . S
C4928 H4913 0.960 . S
C4928 H4914 0.960 . S
C4928 H4915 0.960 . S
C4928 C4927 1.524 . S
C4929 C4926 1.403 . S
C4929 C4930 1.392 . S
C4929 C4933 1.495 . S
C4930 C4929 1.392 . S
C4930 C4931 1.385 . S
C4930 C4932 1.478 . S
C4931 H4925 0.930 . S
C4931 C4927 1.400 . S
C4931 C4930 1.385 . S
C4932 C4930 1.478 . S
C4932 C4934 1.381 . S
C4932 C4938 1.383 . S
C4933 C4929 1.495 . S
C4933 H4939 0.959 . S
C4933 H4940 0.961 . S
C4933 H4941 0.960 . S
C4934 C4932 1.381 . S
C4934 C4935 1.394 . S
C4934 H4942 0.930 . S
C4935 C4934 1.394 . S
C4935 C4936 1.383 . S
C4935 H4943 0.929 . S
C4936 C4935 1.383 . S
C4936 C4937 1.377 . S
C4937 H4921 0.930 . S
C4937 C4936 1.377 . S
C4937 C4938 1.379 . S
C4938 H4922 0.931 . S
C4938 C4932 1.383 . S
C4938 C4937 1.379 . S
H4939 C4933 0.959 . S
H4940 C4933 0.961 . S
H4941 C4933 0.960 . S
H4942 C4934 0.930 . S
H4943 C4935 0.929 . S
H4944 C4952 0.929 . S
H4945 C4954 0.930 . S
H4946 C4956 0.930 . S
H4947 C4959 0.929 . S
H4948 C4962 0.930 . S
H4949 C4964 0.960 . S
H4950 C4964 0.960 . S
H4951 C4964 0.960 . S
C4952 H4944 0.929 . S
C4952 C4953 1.377 . S
C4952 C4954 1.384 . S
C4953 C4952 1.377 . S
C4953 C4959 1.390 . S
C4954 H4945 0.930 . S
C4954 C4952 1.384 . S
C4954 C4955 1.372 . S
C4955 C4954 1.372 . S
C4955 C4956 1.400 . S
C4955 C4960 1.490 . S
C4956 H4946 0.930 . S
C4956 C4955 1.400 . S
C4956 C4959 1.386 . S
H4957 C4973 0.930 . S
H4958 C4974 0.931 . S
C4959 H4947 0.929 . S
C4959 C4953 1.390 . S
C4959 C4956 1.386 . S
C4960 C4955 1.490 . S
C4960 C4962 1.395 . S
C4960 C4963 1.403 . S
H4961 C4967 0.930 . S
C4962 H4948 0.930 . S
C4962 C4960 1.395 . S
C4962 C4965 1.403 . S
C4963 C4960 1.403 . S
C4963 C4964 1.524 . S
C4963 C4967 1.400 . S
C4964 H4949 0.960 . S
C4964 H4950 0.960 . S
C4964 H4951 0.960 . S
C4964 C4963 1.524 . S
C4965 C4962 1.403 . S
C4965 C4966 1.392 . S
C4965 C4969 1.495 . S
C4966 C4965 1.392 . S
C4966 C4967 1.385 . S
C4966 C4968 1.478 . S
C4967 H4961 0.930 . S
C4967 C4963 1.400 . S
C4967 C4966 1.385 . S
C4968 C4966 1.478 . S
C4968 C4970 1.381 . S
C4968 C4974 1.383 . S
C4969 C4965 1.495 . S
C4969 H4975 0.959 . S
C4969 H4976 0.961 . S
C4969 H4977 0.960 . S
C4970 C4968 1.381 . S
C4970 C4971 1.394 . S
C4970 H4978 0.930 . S
C4971 C4970 1.394 . S
C4971 C4972 1.383 . S
C4971 H4979 0.929 . S
C4972 C4971 1.383 . S
C4972 C4973 1.377 . S
C4973 H4957 0.930 . S
C4973 C4972 1.377 . S
C4973 C4974 1.379 . S
C4974 H4958 0.931 . S
C4974 C4968 1.383 . S
C4974 C4973 1.379 . S
H4975 C4969 0.959 . S
H4976 C4969 0.961 . S
H4977 C4969 0.960 . S
H4978 C4970 0.930 . S
H4979 C4971 0.929 . S
H4980 C4988 0.929 . S
H4981 C4990 0.930 . S
H4982 C4992 0.930 . S
H4983 C4995 0.929 . S
H4984 C4998 0.930 . S
H4985 C5000 0.960 . S
H4986 C5000 0.960 . S
H4987 C5000 0.960 . S
C4988 H4980 0.929 . S
C4988 C4989 1.377 . S
C4988 C4990 1.384 . S
C4989 C4988 1.377 . S
C4989 C4995 1.390 . S
C4990 H4981 0.930 . S
C4990 C4988 1.384 . S
C4990 C4991 1.372 . S
C4991 C4990 1.372 . S
C4991 C4992 1.400 . S
C4991 C4996 1.490 . S
C4992 H4982 0.930 . S
C4992 C4991 1.400 . S
C4992 C4995 1.386 . S
H4993 C5009 0.930 . S
H4994 C5010 0.931 . S
C4995 H4983 0.929 . S
C4995 C4989 1.390 . S
C4995 C4992 1.386 . S
C4996 C4991 1.490 . S
C4996 C4998 1.395 . S
C4996 C4999 1.403 . S
H4997 C5003 0.930 . S
C4998 H4984 0.930 . S
C4998 C4996 1.395 . S
C4998 C5001 1.403 . S
C4999 C4996 1.403 . S
C4999 C5000 1.524 . S
C4999 C5003 1.400 . S
C5000 H4985 0.960 . S
C5000 H4986 0.960 . S
C5000 H4987 0.960 . S
C5000 C4999 1.524 . S
C5001 C4998 1.403 . S
C5001 C5002 1.392 . S
C5001 C5005 1.495 . S
C5002 C5001 1.392 . S
C5002 C5003 1.385 . S
C5002 C5004 1.478 . S
C5003 H4997 0.930 . S
C5003 C4999 1.400 . S
C5003 C5002 1.385 . S
C5004 C5002 1.478 . S
C5004 C5006 1.381 . S
C5004 C5010 1.383 . S
C5005 C5001 1.495 . S
C5005 H5011 0.959 . S
C5005 H5012 0.961 . S
C5005 H5013 0.960 . S
C5006 C5004 1.381 . S
C5006 C5007 1.394 . S
C5006 H5014 0.930 . S
C5007 C5006 1.394 . S
C5007 C5008 1.383 . S
C5007 H5015 0.929 . S
C5008 C5007 1.383 . S
C5008 C5009 1.377 . S
C5009 H4993 0.930 . S
C5009 C5008 1.377 . S
C5009 C5010 1.379 . S
C5010 H4994 0.931 . S
C5010 C5004 1.383 . S
C5010 C5009 1.379 . S
H5011 C5005 0.959 . S
H5012 C5005 0.961 . S
H5013 C5005 0.960 . S
H5014 C5006 0.930 . S
H5015 C5007 0.929 . S
H5016 C5024 0.929 . S
H5017 C5026 0.930 . S
H5018 C5028 0.930 . S
H5019 C5031 0.929 . S
H5020 C5034 0.930 . S
H5021 C5036 0.960 . S
H5022 C5036 0.960 . S
H5023 C5036 0.960 . S
C5024 H5016 0.929 . S
C5024 C5025 1.377 . S
C5024 C5026 1.384 . S
C5025 C5024 1.377 . S
C5025 C5031 1.390 . S
C5026 H5017 0.930 . S
C5026 C5024 1.384 . S
C5026 C5027 1.372 . S
C5027 C5026 1.372 . S
C5027 C5028 1.400 . S
C5027 C5032 1.490 . S
C5028 H5018 0.930 . S
C5028 C5027 1.400 . S
C5028 C5031 1.386 . S
H5029 C5045 0.930 . S
H5030 C5046 0.931 . S
C5031 H5019 0.929 . S
C5031 C5025 1.390 . S
C5031 C5028 1.386 . S
C5032 C5027 1.490 . S
C5032 C5034 1.395 . S
C5032 C5035 1.403 . S
H5033 C5039 0.930 . S
C5034 H5020 0.930 . S
C5034 C5032 1.395 . S
C5034 C5037 1.403 . S
C5035 C5032 1.403 . S
C5035 C5036 1.524 . S
C5035 C5039 1.400 . S
C5036 H5021 0.960 . S
C5036 H5022 0.960 . S
C5036 H5023 0.960 . S
C5036 C5035 1.524 . S
C5037 C5034 1.403 . S
C5037 C5038 1.392 . S
C5037 C5041 1.495 . S
C5038 C5037 1.392 . S
C5038 C5039 1.385 . S
C5038 C5040 1.478 . S
C5039 H5033 0.930 . S
C5039 C5035 1.400 . S
C5039 C5038 1.385 . S
C5040 C5038 1.478 . S
C5040 C5042 1.381 . S
C5040 C5046 1.383 . S
C5041 C5037 1.495 . S
C5041 H5047 0.959 . S
C5041 H5048 0.961 . S
C5041 H5049 0.960 . S
C5042 C5040 1.381 . S
C5042 C5043 1.394 . S
C5042 H5050 0.930 . S
C5043 C5042 1.394 . S
C5043 C5044 1.383 . S
C5043 H5051 0.929 . S
C5044 C5043 1.383 . S
C5044 C5045 1.377 . S
C5045 H5029 0.930 . S
C5045 C5044 1.377 . S
C5045 C5046 1.379 . S
C5046 H5030 0.931 . S
C5046 C5040 1.383 . S
C5046 C5045 1.379 . S
H5047 C5041 0.959 . S
H5048 C5041 0.961 . S
H5049 C5041 0.960 . S
H5050 C5042 0.930 . S
H5051 C5043 0.929 . S
H5052 C5060 0.929 . S
H5053 C5062 0.930 . S
H5054 C5064 0.930 . S
H5055 C5067 0.929 . S
H5056 C5070 0.930 . S
H5057 C5072 0.960 . S
H5058 C5072 0.960 . S
H5059 C5072 0.960 . S
C5060 H5052 0.929 . S
C5060 C5061 1.377 . S
C5060 C5062 1.384 . S
C5061 C5060 1.377 . S
C5061 C5067 1.390 . S
C5062 H5053 0.930 . S
C5062 C5060 1.384 . S
C5062 C5063 1.372 . S
C5063 C5062 1.372 . S
C5063 C5064 1.400 . S
C5063 C5068 1.490 . S
C5064 H5054 0.930 . S
C5064 C5063 1.400 . S
C5064 C5067 1.386 . S
H5065 C5081 0.930 . S
H5066 C5082 0.931 . S
C5067 H5055 0.929 . S
C5067 C5061 1.390 . S
C5067 C5064 1.386 . S
C5068 C5063 1.490 . S
C5068 C5070 1.395 . S
C5068 C5071 1.403 . S
H5069 C5075 0.930 . S
C5070 H5056 0.930 . S
C5070 C5068 1.395 . S
C5070 C5073 1.403 . S
C5071 C5068 1.403 . S
C5071 C5072 1.524 . S
C5071 C5075 1.400 . S
C5072 H5057 0.960 . S
C5072 H5058 0.960 . S
C5072 H5059 0.960 . S
C5072 C5071 1.524 . S
C5073 C5070 1.403 . S
C5073 C5074 1.392 . S
C5073 C5077 1.495 . S
C5074 C5073 1.392 . S
C5074 C5075 1.385 . S
C5074 C5076 1.478 . S
C5075 H5069 0.930 . S
C5075 C5071 1.400 . S
C5075 C5074 1.385 . S
C5076 C5074 1.478 . S
C5076 C5078 1.381 . S
C5076 C5082 1.383 . S
C5077 C5073 1.495 . S
C5077 H5083 0.959 . S
C5077 H5084 0.961 . S
C5077 H5085 0.960 . S
C5078 C5076 1.381 . S
C5078 C5079 1.394 . S
C5078 H5086 0.930 . S
C5079 C5078 1.394 . S
C5079 C5080 1.383 . S
C5079 H5087 0.929 . S
C5080 C5079 1.383 . S
C5080 C5081 1.377 . S
C5081 H5065 0.930 . S
C5081 C5080 1.377 . S
C5081 C5082 1.379 . S
C5082 H5066 0.931 . S
C5082 C5076 1.383 . S
C5082 C5081 1.379 . S
H5083 C5077 0.959 . S
H5084 C5077 0.961 . S
H5085 C5077 0.960 . S
H5086 C5078 0.930 . S
H5087 C5079 0.929 . S
H5088 C5096 0.929 . S
H5089 C5098 0.930 . S
H5090 C5100 0.930 . S
H5091 C5103 0.929 . S
H5092 C5106 0.930 . S
H5093 C5108 0.960 . S
H5094 C5108 0.960 . S
H5095 C5108 0.960 . S
C5096 H5088 0.929 . S
C5096 C5097 1.377 . S
C5096 C5098 1.384 . S
C5097 C5096 1.377 . S
C5097 C5103 1.390 . S
C5098 H5089 0.930 . S
C5098 C5096 1.384 . S
C5098 C5099 1.372 . S
C5099 C5098 1.372 . S
C5099 C5100 1.400 . S
C5099 C5104 1.490 . S
C5100 H5090 0.930 . S
C5100 C5099 1.400 . S
C5100 C5103 1.386 . S
H5101 C5117 0.930 . S
H5102 C5118 0.931 . S
C5103 H5091 0.929 . S
C5103 C5097 1.390 . S
C5103 C5100 1.386 . S
C5104 C5099 1.490 . S
C5104 C5106 1.395 . S
C5104 C5107 1.403 . S
H5105 C5111 0.930 . S
C5106 H5092 0.930 . S
C5106 C5104 1.395 . S
C5106 C5109 1.403 . S
C5107 C5104 1.403 . S
C5107 C5108 1.524 . S
C5107 C5111 1.400 . S
C5108 H5093 0.960 . S
C5108 H5094 0.960 . S
C5108 H5095 0.960 . S
C5108 C5107 1.524 . S
C5109 C5106 1.403 . S
C5109 C5110 1.392 . S
C5109 C5113 1.495 . S
C5110 C5109 1.392 . S
C5110 C5111 1.385 . S
C5110 C5112 1.478 . S
C5111 H5105 0.930 . S
C5111 C5107 1.400 . S
C5111 C5110 1.385 . S
C5112 C5110 1.478 . S
C5112 C5114 1.381 . S
C5112 C5118 1.383 . S
C5113 C5109 1.495 . S
C5113 H5119 0.959 . S
C5113 H5120 0.961 . S
C5113 H5121 0.960 . S
C5114 C5112 1.381 . S
C5114 C5115 1.394 . S
C5114 H5122 0.930 . S
C5115 C5114 1.394 . S
C5115 C5116 1.383 . S
C5115 H5123 0.929 . S
C5116 C5115 1.383 . S
C5116 C5117 1.377 . S
C5117 H5101 0.930 . S
C5117 C5116 1.377 . S
C5117 C5118 1.379 . S
C5118 H5102 0.931 . S
C5118 C5112 1.383 . S
C5118 C5117 1.379 . S
H5119 C5113 0.959 . S
H5120 C5113 0.961 . S
H5121 C5113 0.960 . S
H5122 C5114 0.930 . S
H5123 C5115 0.929 . S
H5124 C5132 0.929 . S
H5125 C5134 0.930 . S
H5126 C5136 0.930 . S
H5127 C5139 0.929 . S
H5128 C5142 0.930 . S
H5129 C5144 0.960 . S
H5130 C5144 0.960 . S
H5131 C5144 0.960 . S
C5132 H5124 0.929 . S
C5132 C5133 1.377 . S
C5132 C5134 1.384 . S
C5133 C5132 1.377 . S
C5133 C5139 1.390 . S
C5134 H5125 0.930 . S
C5134 C5132 1.384 . S
C5134 C5135 1.372 . S
C5135 C5134 1.372 . S
C5135 C5136 1.400 . S
C5135 C5140 1.490 . S
C5136 H5126 0.930 . S
C5136 C5135 1.400 . S
C5136 C5139 1.386 . S
H5137 C5153 0.930 . S
H5138 C5154 0.931 . S
C5139 H5127 0.929 . S
C5139 C5133 1.390 . S
C5139 C5136 1.386 . S
C5140 C5135 1.490 . S
C5140 C5142 1.395 . S
C5140 C5143 1.403 . S
H5141 C5147 0.930 . S
C5142 H5128 0.930 . S
C5142 C5140 1.395 . S
C5142 C5145 1.403 . S
C5143 C5140 1.403 . S
C5143 C5144 1.524 . S
C5143 C5147 1.400 . S
C5144 H5129 0.960 . S
C5144 H5130 0.960 . S
C5144 H5131 0.960 . S
C5144 C5143 1.524 . S
C5145 C5142 1.403 . S
C5145 C5146 1.392 . S
C5145 C5149 1.495 . S
C5146 C5145 1.392 . S
C5146 C5147 1.385 . S
C5146 C5148 1.478 . S
C5147 H5141 0.930 . S
C5147 C5143 1.400 . S
C5147 C5146 1.385 . S
C5148 C5146 1.478 . S
C5148 C5150 1.381 . S
C5148 C5154 1.383 . S
C5149 C5145 1.495 . S
C5149 H5155 0.959 . S
C5149 H5156 0.961 . S
C5149 H5157 0.960 . S
C5150 C5148 1.381 . S
C5150 C5151 1.394 . S
C5150 H5158 0.930 . S
C5151 C5150 1.394 . S
C5151 C5152 1.383 . S
C5151 H5159 0.929 . S
C5152 C5151 1.383 . S
C5152 C5153 1.377 . S
C5153 H5137 0.930 . S
C5153 C5152 1.377 . S
C5153 C5154 1.379 . S
C5154 H5138 0.931 . S
C5154 C5148 1.383 . S
C5154 C5153 1.379 . S
H5155 C5149 0.959 . S
H5156 C5149 0.961 . S
H5157 C5149 0.960 . S
H5158 C5150 0.930 . S
H5159 C5151 0.929 . S
H5160 C5168 0.929 . S
H5161 C5170 0.930 . S
H5162 C5172 0.930 . S
H5163 C5175 0.929 . S
H5164 C5178 0.930 . S
H5165 C5180 0.960 . S
H5166 C5180 0.960 . S
H5167 C5180 0.960 . S
C5168 H5160 0.929 . S
C5168 C5169 1.377 . S
C5168 C5170 1.384 . S
C5169 C5168 1.377 . S
C5169 C5175 1.390 . S
C5170 H5161 0.930 . S
C5170 C5168 1.384 . S
C5170 C5171 1.372 . S
C5171 C5170 1.372 . S
C5171 C5172 1.400 . S
C5171 C5176 1.490 . S
C5172 H5162 0.930 . S
C5172 C5171 1.400 . S
C5172 C5175 1.386 . S
H5173 C5189 0.930 . S
H5174 C5190 0.931 . S
C5175 H5163 0.929 . S
C5175 C5169 1.390 . S
C5175 C5172 1.386 . S
C5176 C5171 1.490 . S
C5176 C5178 1.395 . S
C5176 C5179 1.403 . S
H5177 C5183 0.930 . S
C5178 H5164 0.930 . S
C5178 C5176 1.395 . S
C5178 C5181 1.403 . S
C5179 C5176 1.403 . S
C5179 C5180 1.524 . S
C5179 C5183 1.400 . S
C5180 H5165 0.960 . S
C5180 H5166 0.960 . S
C5180 H5167 0.960 . S
C5180 C5179 1.524 . S
C5181 C5178 1.403 . S
C5181 C5182 1.392 . S
C5181 C5185 1.495 . S
C5182 C5181 1.392 . S
C5182 C5183 1.385 . S
C5182 C5184 1.478 . S
C5183 H5177 0.930 . S
C5183 C5179 1.400 . S
C5183 C5182 1.385 . S
C5184 C5182 1.478 . S
C5184 C5186 1.381 . S
C5184 C5190 1.383 . S
C5185 C5181 1.495 . S
C5185 H5191 0.959 . S
C5185 H5192 0.961 . S
C5185 H5193 0.960 . S
C5186 C5184 1.381 . S
C5186 C5187 1.394 1_655 S
C5186 H5194 0.930 1_655 S
C5187 C5186 1.394 1_455 S
C5187 C5188 1.383 . S
C5187 H5195 0.929 . S
C5188 C5187 1.383 . S
C5188 C5189 1.377 1_455 S
C5189 H5173 0.930 . S
C5189 C5188 1.377 1_655 S
C5189 C5190 1.379 . S
C5190 H5174 0.931 . S
C5190 C5184 1.383 . S
C5190 C5189 1.379 . S
H5191 C5185 0.959 . S
H5192 C5185 0.961 . S
H5193 C5185 0.960 . S
H5194 C5186 0.930 1_455 S
H5195 C5187 0.929 . S
H5196 C5204 0.929 . S
H5197 C5206 0.930 . S
H5198 C5208 0.930 . S
H5199 C5211 0.929 . S
H5200 C5214 0.930 . S
H5201 C5216 0.960 . S
H5202 C5216 0.960 . S
H5203 C5216 0.960 . S
C5204 H5196 0.929 . S
C5204 C5205 1.377 . S
C5204 C5206 1.384 . S
C5205 C5204 1.377 . S
C5205 C5211 1.390 . S
C5206 H5197 0.930 . S
C5206 C5204 1.384 . S
C5206 C5207 1.372 . S
C5207 C5206 1.372 . S
C5207 C5208 1.400 . S
C5207 C5212 1.490 . S
C5208 H5198 0.930 . S
C5208 C5207 1.400 . S
C5208 C5211 1.386 . S
H5209 C5225 0.930 . S
H5210 C5226 0.931 . S
C5211 H5199 0.929 . S
C5211 C5205 1.390 . S
C5211 C5208 1.386 . S
C5212 C5207 1.490 . S
C5212 C5214 1.395 . S
C5212 C5215 1.403 . S
H5213 C5219 0.930 . S
C5214 H5200 0.930 . S
C5214 C5212 1.395 . S
C5214 C5217 1.403 . S
C5215 C5212 1.403 . S
C5215 C5216 1.524 . S
C5215 C5219 1.400 . S
C5216 H5201 0.960 . S
C5216 H5202 0.960 . S
C5216 H5203 0.960 . S
C5216 C5215 1.524 . S
C5217 C5214 1.403 . S
C5217 C5218 1.392 . S
C5217 C5221 1.495 . S
C5218 C5217 1.392 . S
C5218 C5219 1.385 . S
C5218 C5220 1.478 . S
C5219 H5213 0.930 . S
C5219 C5215 1.400 . S
C5219 C5218 1.385 . S
C5220 C5218 1.478 . S
C5220 C5222 1.381 . S
C5220 C5226 1.383 . S
C5221 C5217 1.495 . S
C5221 H5227 0.959 . S
C5221 H5228 0.961 . S
C5221 H5229 0.960 . S
C5222 C5220 1.381 . S
C5222 C5223 1.394 . S
C5222 H5230 0.930 . S
C5223 C5222 1.394 . S
C5223 C5224 1.383 . S
C5223 H5231 0.929 . S
C5224 C5223 1.383 . S
C5224 C5225 1.377 . S
C5225 H5209 0.930 . S
C5225 C5224 1.377 . S
C5225 C5226 1.379 . S
C5226 H5210 0.931 . S
C5226 C5220 1.383 . S
C5226 C5225 1.379 . S
H5227 C5221 0.959 . S
H5228 C5221 0.961 . S
H5229 C5221 0.960 . S
H5230 C5222 0.930 . S
H5231 C5223 0.929 . S
H5232 C5240 0.929 . S
H5233 C5242 0.930 . S
H5234 C5244 0.930 . S
H5235 C5247 0.929 . S
H5236 C5250 0.930 . S
H5237 C5252 0.960 . S
H5238 C5252 0.960 . S
H5239 C5252 0.960 . S
C5240 H5232 0.929 . S
C5240 C5241 1.377 . S
C5240 C5242 1.384 . S
C5241 C5240 1.377 . S
C5241 C5247 1.390 . S
C5242 H5233 0.930 . S
C5242 C5240 1.384 . S
C5242 C5243 1.372 . S
C5243 C5242 1.372 . S
C5243 C5244 1.400 . S
C5243 C5248 1.490 . S
C5244 H5234 0.930 . S
C5244 C5243 1.400 . S
C5244 C5247 1.386 . S
H5245 C5261 0.930 . S
H5246 C5262 0.931 . S
C5247 H5235 0.929 . S
C5247 C5241 1.390 . S
C5247 C5244 1.386 . S
C5248 C5243 1.490 . S
C5248 C5250 1.395 . S
C5248 C5251 1.403 . S
H5249 C5255 0.930 . S
C5250 H5236 0.930 . S
C5250 C5248 1.395 . S
C5250 C5253 1.403 . S
C5251 C5248 1.403 . S
C5251 C5252 1.524 . S
C5251 C5255 1.400 . S
C5252 H5237 0.960 . S
C5252 H5238 0.960 . S
C5252 H5239 0.960 . S
C5252 C5251 1.524 . S
C5253 C5250 1.403 . S
C5253 C5254 1.392 . S
C5253 C5257 1.495 . S
C5254 C5253 1.392 . S
C5254 C5255 1.385 . S
C5254 C5256 1.478 . S
C5255 H5249 0.930 . S
C5255 C5251 1.400 . S
C5255 C5254 1.385 . S
C5256 C5254 1.478 . S
C5256 C5258 1.381 . S
C5256 C5262 1.383 . S
C5257 C5253 1.495 . S
C5257 H5263 0.959 . S
C5257 H5264 0.961 . S
C5257 H5265 0.960 . S
C5258 C5256 1.381 . S
C5258 C5259 1.394 . S
C5258 H5266 0.930 . S
C5259 C5258 1.394 . S
C5259 C5260 1.383 . S
C5259 H5267 0.929 . S
C5260 C5259 1.383 . S
C5260 C5261 1.377 . S
C5261 H5245 0.930 . S
C5261 C5260 1.377 . S
C5261 C5262 1.379 . S
C5262 H5246 0.931 . S
C5262 C5256 1.383 . S
C5262 C5261 1.379 . S
H5263 C5257 0.959 . S
H5264 C5257 0.961 . S
H5265 C5257 0.960 . S
H5266 C5258 0.930 . S
H5267 C5259 0.929 . S
H5268 C5276 0.929 . S
H5269 C5278 0.930 . S
H5270 C5280 0.930 . S
H5271 C5283 0.929 . S
H5272 C5286 0.930 . S
H5273 C5288 0.960 . S
H5274 C5288 0.960 . S
H5275 C5288 0.960 . S
C5276 H5268 0.929 . S
C5276 C5277 1.377 . S
C5276 C5278 1.384 . S
C5277 C5276 1.377 . S
C5277 C5283 1.390 . S
C5278 H5269 0.930 . S
C5278 C5276 1.384 . S
C5278 C5279 1.372 . S
C5279 C5278 1.372 . S
C5279 C5280 1.400 . S
C5279 C5284 1.490 . S
C5280 H5270 0.930 . S
C5280 C5279 1.400 . S
C5280 C5283 1.386 . S
H5281 C5297 0.930 . S
H5282 C5298 0.931 . S
C5283 H5271 0.929 . S
C5283 C5277 1.390 . S
C5283 C5280 1.386 . S
C5284 C5279 1.490 . S
C5284 C5286 1.395 . S
C5284 C5287 1.403 . S
H5285 C5291 0.930 . S
C5286 H5272 0.930 . S
C5286 C5284 1.395 . S
C5286 C5289 1.403 . S
C5287 C5284 1.403 . S
C5287 C5288 1.524 . S
C5287 C5291 1.400 . S
C5288 H5273 0.960 . S
C5288 H5274 0.960 . S
C5288 H5275 0.960 . S
C5288 C5287 1.524 . S
C5289 C5286 1.403 . S
C5289 C5290 1.392 . S
C5289 C5293 1.495 . S
C5290 C5289 1.392 . S
C5290 C5291 1.385 . S
C5290 C5292 1.478 . S
C5291 H5285 0.930 . S
C5291 C5287 1.400 . S
C5291 C5290 1.385 . S
C5292 C5290 1.478 . S
C5292 C5294 1.381 . S
C5292 C5298 1.383 . S
C5293 C5289 1.495 . S
C5293 H5299 0.959 . S
C5293 H5300 0.961 . S
C5293 H5301 0.960 . S
C5294 C5292 1.381 . S
C5294 C5295 1.394 . S
C5294 H5302 0.930 . S
C5295 C5294 1.394 . S
C5295 C5296 1.383 . S
C5295 H5303 0.929 . S
C5296 C5295 1.383 . S
C5296 C5297 1.377 . S
C5297 H5281 0.930 . S
C5297 C5296 1.377 . S
C5297 C5298 1.379 . S
C5298 H5282 0.931 . S
C5298 C5292 1.383 . S
C5298 C5297 1.379 . S
H5299 C5293 0.959 . S
H5300 C5293 0.961 . S
H5301 C5293 0.960 . S
H5302 C5294 0.930 . S
H5303 C5295 0.929 . S
H5304 C5312 0.929 . S
H5305 C5314 0.930 . S
H5306 C5316 0.930 . S
H5307 C5319 0.929 . S
H5308 C5322 0.930 . S
H5309 C5324 0.960 . S
H5310 C5324 0.960 . S
H5311 C5324 0.960 . S
C5312 H5304 0.929 . S
C5312 C5313 1.377 . S
C5312 C5314 1.384 . S
C5313 C5312 1.377 . S
C5313 C5319 1.390 . S
C5314 H5305 0.930 . S
C5314 C5312 1.384 . S
C5314 C5315 1.372 . S
C5315 C5314 1.372 . S
C5315 C5316 1.400 . S
C5315 C5320 1.490 . S
C5316 H5306 0.930 . S
C5316 C5315 1.400 . S
C5316 C5319 1.386 . S
H5317 C5333 0.930 . S
H5318 C5334 0.931 . S
C5319 H5307 0.929 . S
C5319 C5313 1.390 . S
C5319 C5316 1.386 . S
C5320 C5315 1.490 . S
C5320 C5322 1.395 . S
C5320 C5323 1.403 . S
H5321 C5327 0.930 . S
C5322 H5308 0.930 . S
C5322 C5320 1.395 . S
C5322 C5325 1.403 . S
C5323 C5320 1.403 . S
C5323 C5324 1.524 . S
C5323 C5327 1.400 . S
C5324 H5309 0.960 . S
C5324 H5310 0.960 . S
C5324 H5311 0.960 . S
C5324 C5323 1.524 . S
C5325 C5322 1.403 . S
C5325 C5326 1.392 . S
C5325 C5329 1.495 . S
C5326 C5325 1.392 . S
C5326 C5327 1.385 . S
C5326 C5328 1.478 . S
C5327 H5321 0.930 . S
C5327 C5323 1.400 . S
C5327 C5326 1.385 . S
C5328 C5326 1.478 . S
C5328 C5330 1.381 . S
C5328 C5334 1.383 . S
C5329 C5325 1.495 . S
C5329 H5335 0.959 . S
C5329 H5336 0.961 . S
C5329 H5337 0.960 . S
C5330 C5328 1.381 . S
C5330 C5331 1.394 . S
C5330 H5338 0.930 . S
C5331 C5330 1.394 . S
C5331 C5332 1.383 . S
C5331 H5339 0.929 . S
C5332 C5331 1.383 . S
C5332 C5333 1.377 . S
C5333 H5317 0.930 . S
C5333 C5332 1.377 . S
C5333 C5334 1.379 . S
C5334 H5318 0.931 . S
C5334 C5328 1.383 . S
C5334 C5333 1.379 . S
H5335 C5329 0.959 . S
H5336 C5329 0.961 . S
H5337 C5329 0.960 . S
H5338 C5330 0.930 . S
H5339 C5331 0.929 . S
H5340 C5348 0.929 . S
H5341 C5350 0.930 . S
H5342 C5352 0.930 . S
H5343 C5355 0.929 . S
H5344 C5358 0.930 . S
H5345 C5360 0.960 . S
H5346 C5360 0.960 . S
H5347 C5360 0.960 . S
C5348 H5340 0.929 . S
C5348 C5349 1.377 . S
C5348 C5350 1.384 . S
C5349 C5348 1.377 . S
C5349 C5355 1.390 . S
C5350 H5341 0.930 . S
C5350 C5348 1.384 . S
C5350 C5351 1.372 . S
C5351 C5350 1.372 . S
C5351 C5352 1.400 . S
C5351 C5356 1.490 . S
C5352 H5342 0.930 . S
C5352 C5351 1.400 . S
C5352 C5355 1.386 . S
H5353 C5369 0.930 . S
H5354 C5370 0.931 . S
C5355 H5343 0.929 . S
C5355 C5349 1.390 . S
C5355 C5352 1.386 . S
C5356 C5351 1.490 . S
C5356 C5358 1.395 . S
C5356 C5359 1.403 . S
H5357 C5363 0.930 . S
C5358 H5344 0.930 . S
C5358 C5356 1.395 . S
C5358 C5361 1.403 . S
C5359 C5356 1.403 . S
C5359 C5360 1.524 . S
C5359 C5363 1.400 . S
C5360 H5345 0.960 . S
C5360 H5346 0.960 . S
C5360 H5347 0.960 . S
C5360 C5359 1.524 . S
C5361 C5358 1.403 . S
C5361 C5362 1.392 . S
C5361 C5365 1.495 . S
C5362 C5361 1.392 . S
C5362 C5363 1.385 . S
C5362 C5364 1.478 . S
C5363 H5357 0.930 . S
C5363 C5359 1.400 . S
C5363 C5362 1.385 . S
C5364 C5362 1.478 . S
C5364 C5366 1.381 . S
C5364 C5370 1.383 . S
C5365 C5361 1.495 . S
C5365 H5371 0.959 . S
C5365 H5372 0.961 . S
C5365 H5373 0.960 . S
C5366 C5364 1.381 . S
C5366 C5367 1.394 . S
C5366 H5374 0.930 . S
C5367 C5366 1.394 . S
C5367 C5368 1.383 . S
C5367 H5375 0.929 . S
C5368 C5367 1.383 . S
C5368 C5369 1.377 . S
C5369 H5353 0.930 . S
C5369 C5368 1.377 . S
C5369 C5370 1.379 . S
C5370 H5354 0.931 . S
C5370 C5364 1.383 . S
C5370 C5369 1.379 . S
H5371 C5365 0.959 . S
H5372 C5365 0.961 . S
H5373 C5365 0.960 . S
H5374 C5366 0.930 . S
H5375 C5367 0.929 . S
H5376 C5384 0.929 . S
H5377 C5386 0.930 . S
H5378 C5388 0.930 . S
H5379 C5391 0.929 . S
H5380 C5394 0.930 . S
H5381 C5396 0.960 . S
H5382 C5396 0.960 . S
H5383 C5396 0.960 . S
C5384 H5376 0.929 . S
C5384 C5385 1.377 . S
C5384 C5386 1.384 . S
C5385 C5384 1.377 . S
C5385 C5391 1.390 . S
C5386 H5377 0.930 . S
C5386 C5384 1.384 . S
C5386 C5387 1.372 . S
C5387 C5386 1.372 . S
C5387 C5388 1.400 . S
C5387 C5392 1.490 . S
C5388 H5378 0.930 . S
C5388 C5387 1.400 . S
C5388 C5391 1.386 . S
H5389 C5405 0.930 . S
H5390 C5406 0.931 . S
C5391 H5379 0.929 . S
C5391 C5385 1.390 . S
C5391 C5388 1.386 . S
C5392 C5387 1.490 . S
C5392 C5394 1.395 . S
C5392 C5395 1.403 . S
H5393 C5399 0.930 . S
C5394 H5380 0.930 . S
C5394 C5392 1.395 . S
C5394 C5397 1.403 . S
C5395 C5392 1.403 . S
C5395 C5396 1.524 . S
C5395 C5399 1.400 . S
C5396 H5381 0.960 . S
C5396 H5382 0.960 . S
C5396 H5383 0.960 . S
C5396 C5395 1.524 . S
C5397 C5394 1.403 . S
C5397 C5398 1.392 . S
C5397 C5401 1.495 . S
C5398 C5397 1.392 . S
C5398 C5399 1.385 . S
C5398 C5400 1.478 . S
C5399 H5393 0.930 . S
C5399 C5395 1.400 . S
C5399 C5398 1.385 . S
C5400 C5398 1.478 . S
C5400 C5402 1.381 . S
C5400 C5406 1.383 . S
C5401 C5397 1.495 . S
C5401 H5407 0.959 . S
C5401 H5408 0.961 . S
C5401 H5409 0.960 . S
C5402 C5400 1.381 . S
C5402 C5403 1.394 . S
C5402 H5410 0.930 . S
C5403 C5402 1.394 . S
C5403 C5404 1.383 . S
C5403 H5411 0.929 . S
C5404 C5403 1.383 . S
C5404 C5405 1.377 . S
C5405 H5389 0.930 . S
C5405 C5404 1.377 . S
C5405 C5406 1.379 . S
C5406 H5390 0.931 . S
C5406 C5400 1.383 . S
C5406 C5405 1.379 . S
H5407 C5401 0.959 . S
H5408 C5401 0.961 . S
H5409 C5401 0.960 . S
H5410 C5402 0.930 . S
H5411 C5403 0.929 . S
H5412 C5420 0.929 . S
H5413 C5422 0.930 . S
H5414 C5424 0.930 . S
H5415 C5427 0.929 . S
H5416 C5430 0.930 . S
H5417 C5432 0.960 . S
H5418 C5432 0.960 . S
H5419 C5432 0.960 . S
C5420 H5412 0.929 . S
C5420 C5421 1.377 . S
C5420 C5422 1.384 . S
C5421 C5420 1.377 . S
C5421 C5427 1.390 . S
C5422 H5413 0.930 . S
C5422 C5420 1.384 . S
C5422 C5423 1.372 . S
C5423 C5422 1.372 . S
C5423 C5424 1.400 . S
C5423 C5428 1.490 . S
C5424 H5414 0.930 . S
C5424 C5423 1.400 . S
C5424 C5427 1.386 . S
H5425 C5441 0.930 . S
H5426 C5442 0.931 . S
C5427 H5415 0.929 . S
C5427 C5421 1.390 . S
C5427 C5424 1.386 . S
C5428 C5423 1.490 . S
C5428 C5430 1.395 . S
C5428 C5431 1.403 . S
H5429 C5435 0.930 . S
C5430 H5416 0.930 . S
C5430 C5428 1.395 . S
C5430 C5433 1.403 . S
C5431 C5428 1.403 . S
C5431 C5432 1.524 . S
C5431 C5435 1.400 . S
C5432 H5417 0.960 . S
C5432 H5418 0.960 . S
C5432 H5419 0.960 . S
C5432 C5431 1.524 . S
C5433 C5430 1.403 . S
C5433 C5434 1.392 . S
C5433 C5437 1.495 . S
C5434 C5433 1.392 . S
C5434 C5435 1.385 . S
C5434 C5436 1.478 . S
C5435 H5429 0.930 . S
C5435 C5431 1.400 . S
C5435 C5434 1.385 . S
C5436 C5434 1.478 . S
C5436 C5438 1.381 . S
C5436 C5442 1.383 . S
C5437 C5433 1.495 . S
C5437 H5443 0.959 . S
C5437 H5444 0.961 . S
C5437 H5445 0.960 . S
C5438 C5436 1.381 . S
C5438 C5439 1.394 1_565 S
C5438 H5446 0.930 . S
C5439 C5438 1.394 1_545 S
C5439 C5440 1.383 1_545 S
C5439 H5447 0.929 . S
C5440 C5439 1.383 1_565 S
C5440 C5441 1.377 . S
C5441 H5425 0.930 . S
C5441 C5440 1.377 . S
C5441 C5442 1.379 . S
C5442 H5426 0.931 . S
C5442 C5436 1.383 . S
C5442 C5441 1.379 . S
H5443 C5437 0.959 . S
H5444 C5437 0.961 . S
H5445 C5437 0.960 . S
H5446 C5438 0.930 . S
H5447 C5439 0.929 . S
H5448 C5456 0.929 . S
H5449 C5458 0.930 . S
H5450 C5460 0.930 . S
H5451 C5463 0.929 . S
H5452 C5466 0.930 . S
H5453 C5468 0.960 . S
H5454 C5468 0.960 . S
H5455 C5468 0.960 . S
C5456 H5448 0.929 . S
C5456 C5457 1.377 . S
C5456 C5458 1.384 . S
C5457 C5456 1.377 . S
C5457 C5463 1.390 . S
C5458 H5449 0.930 . S
C5458 C5456 1.384 . S
C5458 C5459 1.372 . S
C5459 C5458 1.372 . S
C5459 C5460 1.400 . S
C5459 C5464 1.490 . S
C5460 H5450 0.930 . S
C5460 C5459 1.400 . S
C5460 C5463 1.386 . S
H5461 C5477 0.930 . S
H5462 C5478 0.931 . S
C5463 H5451 0.929 . S
C5463 C5457 1.390 . S
C5463 C5460 1.386 . S
C5464 C5459 1.490 . S
C5464 C5466 1.395 . S
C5464 C5467 1.403 . S
H5465 C5471 0.930 . S
C5466 H5452 0.930 . S
C5466 C5464 1.395 . S
C5466 C5469 1.403 . S
C5467 C5464 1.403 . S
C5467 C5468 1.524 . S
C5467 C5471 1.400 . S
C5468 H5453 0.960 . S
C5468 H5454 0.960 . S
C5468 H5455 0.960 . S
C5468 C5467 1.524 . S
C5469 C5466 1.403 . S
C5469 C5470 1.392 . S
C5469 C5473 1.495 . S
C5470 C5469 1.392 . S
C5470 C5471 1.385 . S
C5470 C5472 1.478 . S
C5471 H5465 0.930 . S
C5471 C5467 1.400 . S
C5471 C5470 1.385 . S
C5472 C5470 1.478 . S
C5472 C5474 1.381 . S
C5472 C5478 1.383 . S
C5473 C5469 1.495 . S
C5473 H5479 0.959 . S
C5473 H5480 0.961 . S
C5473 H5481 0.960 . S
C5474 C5472 1.381 . S
C5474 C5475 1.394 . S
C5474 H5482 0.930 . S
C5475 C5474 1.394 . S
C5475 C5476 1.383 . S
C5475 H5483 0.929 . S
C5476 C5475 1.383 . S
C5476 C5477 1.377 . S
C5477 H5461 0.930 . S
C5477 C5476 1.377 . S
C5477 C5478 1.379 . S
C5478 H5462 0.931 . S
C5478 C5472 1.383 . S
C5478 C5477 1.379 . S
H5479 C5473 0.959 . S
H5480 C5473 0.961 . S
H5481 C5473 0.960 . S
H5482 C5474 0.930 . S
H5483 C5475 0.929 . S
H5484 C5492 0.929 . S
H5485 C5494 0.930 . S
H5486 C5496 0.930 . S
H5487 C5499 0.929 . S
H5488 C5502 0.930 . S
H5489 C5504 0.960 . S
H5490 C5504 0.960 . S
H5491 C5504 0.960 . S
C5492 H5484 0.929 . S
C5492 C5493 1.377 . S
C5492 C5494 1.384 . S
C5493 C5492 1.377 . S
C5493 C5499 1.390 . S
C5494 H5485 0.930 . S
C5494 C5492 1.384 . S
C5494 C5495 1.372 . S
C5495 C5494 1.372 . S
C5495 C5496 1.400 . S
C5495 C5500 1.490 . S
C5496 H5486 0.930 . S
C5496 C5495 1.400 . S
C5496 C5499 1.386 . S
H5497 C5513 0.930 . S
H5498 C5514 0.931 . S
C5499 H5487 0.929 . S
C5499 C5493 1.390 . S
C5499 C5496 1.386 . S
C5500 C5495 1.490 . S
C5500 C5502 1.395 . S
C5500 C5503 1.403 . S
H5501 C5507 0.930 . S
C5502 H5488 0.930 . S
C5502 C5500 1.395 . S
C5502 C5505 1.403 . S
C5503 C5500 1.403 . S
C5503 C5504 1.524 . S
C5503 C5507 1.400 . S
C5504 H5489 0.960 . S
C5504 H5490 0.960 . S
C5504 H5491 0.960 . S
C5504 C5503 1.524 . S
C5505 C5502 1.403 . S
C5505 C5506 1.392 . S
C5505 C5509 1.495 . S
C5506 C5505 1.392 . S
C5506 C5507 1.385 . S
C5506 C5508 1.478 . S
C5507 H5501 0.930 . S
C5507 C5503 1.400 . S
C5507 C5506 1.385 . S
C5508 C5506 1.478 . S
C5508 C5510 1.381 . S
C5508 C5514 1.383 . S
C5509 C5505 1.495 . S
C5509 H5515 0.959 . S
C5509 H5516 0.961 . S
C5509 H5517 0.960 . S
C5510 C5508 1.381 . S
C5510 C5511 1.394 . S
C5510 H5518 0.930 . S
C5511 C5510 1.394 . S
C5511 C5512 1.383 . S
C5511 H5519 0.929 . S
C5512 C5511 1.383 . S
C5512 C5513 1.377 . S
C5513 H5497 0.930 . S
C5513 C5512 1.377 . S
C5513 C5514 1.379 . S
C5514 H5498 0.931 . S
C5514 C5508 1.383 . S
C5514 C5513 1.379 . S
H5515 C5509 0.959 . S
H5516 C5509 0.961 . S
H5517 C5509 0.960 . S
H5518 C5510 0.930 . S
H5519 C5511 0.929 . S
H5520 C5528 0.929 . S
H5521 C5530 0.930 . S
H5522 C5532 0.930 . S
H5523 C5535 0.929 . S
H5524 C5538 0.930 . S
H5525 C5540 0.960 . S
H5526 C5540 0.960 . S
H5527 C5540 0.960 . S
C5528 H5520 0.929 . S
C5528 C5529 1.377 . S
C5528 C5530 1.384 . S
C5529 C5528 1.377 . S
C5529 C5535 1.390 . S
C5530 H5521 0.930 . S
C5530 C5528 1.384 . S
C5530 C5531 1.372 . S
C5531 C5530 1.372 . S
C5531 C5532 1.400 . S
C5531 C5536 1.490 . S
C5532 H5522 0.930 . S
C5532 C5531 1.400 . S
C5532 C5535 1.386 . S
H5533 C5549 0.930 . S
H5534 C5550 0.931 . S
C5535 H5523 0.929 . S
C5535 C5529 1.390 . S
C5535 C5532 1.386 . S
C5536 C5531 1.490 . S
C5536 C5538 1.395 . S
C5536 C5539 1.403 . S
H5537 C5543 0.930 . S
C5538 H5524 0.930 . S
C5538 C5536 1.395 . S
C5538 C5541 1.403 . S
C5539 C5536 1.403 . S
C5539 C5540 1.524 . S
C5539 C5543 1.400 . S
C5540 H5525 0.960 . S
C5540 H5526 0.960 . S
C5540 H5527 0.960 . S
C5540 C5539 1.524 . S
C5541 C5538 1.403 . S
C5541 C5542 1.392 . S
C5541 C5545 1.495 . S
C5542 C5541 1.392 . S
C5542 C5543 1.385 . S
C5542 C5544 1.478 . S
C5543 H5537 0.930 . S
C5543 C5539 1.400 . S
C5543 C5542 1.385 . S
C5544 C5542 1.478 . S
C5544 C5546 1.381 . S
C5544 C5550 1.383 . S
C5545 C5541 1.495 . S
C5545 H5551 0.959 . S
C5545 H5552 0.961 . S
C5545 H5553 0.960 . S
C5546 C5544 1.381 . S
C5546 C5547 1.394 . S
C5546 H5554 0.930 . S
C5547 C5546 1.394 . S
C5547 C5548 1.383 . S
C5547 H5555 0.929 . S
C5548 C5547 1.383 . S
C5548 C5549 1.377 . S
C5549 H5533 0.930 . S
C5549 C5548 1.377 . S
C5549 C5550 1.379 . S
C5550 H5534 0.931 . S
C5550 C5544 1.383 . S
C5550 C5549 1.379 . S
H5551 C5545 0.959 . S
H5552 C5545 0.961 . S
H5553 C5545 0.960 . S
H5554 C5546 0.930 . S
H5555 C5547 0.929 . S
H5556 C5564 0.929 . S
H5557 C5566 0.930 . S
H5558 C5568 0.930 . S
H5559 C5571 0.929 . S
H5560 C5574 0.930 . S
H5561 C5576 0.960 . S
H5562 C5576 0.960 . S
H5563 C5576 0.960 . S
C5564 H5556 0.929 . S
C5564 C5565 1.377 . S
C5564 C5566 1.384 . S
C5565 C5564 1.377 . S
C5565 C5571 1.390 . S
C5566 H5557 0.930 . S
C5566 C5564 1.384 . S
C5566 C5567 1.372 . S
C5567 C5566 1.372 . S
C5567 C5568 1.400 . S
C5567 C5572 1.490 . S
C5568 H5558 0.930 . S
C5568 C5567 1.400 . S
C5568 C5571 1.386 . S
H5569 C5585 0.930 . S
H5570 C5586 0.931 . S
C5571 H5559 0.929 . S
C5571 C5565 1.390 . S
C5571 C5568 1.386 . S
C5572 C5567 1.490 . S
C5572 C5574 1.395 . S
C5572 C5575 1.403 . S
H5573 C5579 0.958 . S
C5574 H5560 0.930 . S
C5574 C5572 1.395 . S
C5574 C5577 1.403 . S
C5575 C5572 1.403 . S
C5575 C5576 1.524 1_554 S
C5575 C5579 1.400 . S
C5576 H5561 0.960 . S
C5576 H5562 0.960 . S
C5576 H5563 0.960 . S
C5576 C5575 1.524 1_556 S
C5577 C5574 1.403 . S
C5577 C5578 1.392 . S
C5577 C5581 1.495 . S
C5578 C5577 1.392 . S
C5578 C5579 1.385 . S
C5578 C5580 1.478 . S
C5579 H5573 0.958 . S
C5579 C5575 1.400 . S
C5579 C5578 1.385 . S
C5580 C5578 1.478 . S
C5580 C5582 1.381 . S
C5580 C5586 1.383 . S
C5581 C5577 1.495 . S
C5581 H5587 0.959 . S
C5581 H5588 0.961 . S
C5581 H5589 0.960 . S
C5582 C5580 1.381 . S
C5582 C5583 1.394 . S
C5582 H5590 0.930 . S
C5583 C5582 1.394 . S
C5583 C5584 1.383 . S
C5583 H5591 0.929 . S
C5584 C5583 1.383 . S
C5584 C5585 1.377 . S
C5585 H5569 0.930 . S
C5585 C5584 1.377 . S
C5585 C5586 1.379 . S
C5586 H5570 0.931 . S
C5586 C5580 1.383 . S
C5586 C5585 1.379 . S
H5587 C5581 0.959 . S
H5588 C5581 0.961 . S
H5589 C5581 0.960 . S
H5590 C5582 0.930 . S
H5591 C5583 0.929 . S
H5592 C5600 0.929 . S
H5593 C5602 0.930 . S
H5594 C5604 0.930 . S
H5595 C5607 0.929 . S
H5596 C5610 0.930 . S
H5597 C5612 0.960 . S
H5598 C5612 0.960 . S
H5599 C5612 0.960 . S
C5600 H5592 0.929 . S
C5600 C5601 1.377 . S
C5600 C5602 1.384 . S
C5601 C5600 1.377 . S
C5601 C5607 1.390 . S
C5602 H5593 0.930 . S
C5602 C5600 1.384 . S
C5602 C5603 1.372 . S
C5603 C5602 1.372 . S
C5603 C5604 1.400 . S
C5603 C5608 1.490 . S
C5604 H5594 0.930 . S
C5604 C5603 1.400 . S
C5604 C5607 1.386 . S
H5605 C5621 0.930 . S
H5606 C5622 0.931 . S
C5607 H5595 0.929 . S
C5607 C5601 1.390 . S
C5607 C5604 1.386 . S
C5608 C5603 1.490 . S
C5608 C5610 1.395 . S
C5608 C5611 1.403 . S
H5609 C5615 0.930 . S
C5610 H5596 0.930 . S
C5610 C5608 1.395 . S
C5610 C5613 1.403 . S
C5611 C5608 1.403 . S
C5611 C5612 1.524 . S
C5611 C5615 1.400 . S
C5612 H5597 0.960 . S
C5612 H5598 0.960 . S
C5612 H5599 0.960 . S
C5612 C5611 1.524 . S
C5613 C5610 1.403 . S
C5613 C5614 1.392 . S
C5613 C5617 1.495 . S
C5614 C5613 1.392 . S
C5614 C5615 1.385 . S
C5614 C5616 1.478 . S
C5615 H5609 0.930 . S
C5615 C5611 1.400 . S
C5615 C5614 1.385 . S
C5616 C5614 1.478 . S
C5616 C5618 1.381 . S
C5616 C5622 1.383 . S
C5617 C5613 1.495 . S
C5617 H5623 0.959 . S
C5617 H5624 0.961 . S
C5617 H5625 0.960 . S
C5618 C5616 1.381 . S
C5618 C5619 1.394 . S
C5618 H5626 0.930 . S
C5619 C5618 1.394 . S
C5619 C5620 1.383 . S
C5619 H5627 0.929 . S
C5620 C5619 1.383 . S
C5620 C5621 1.377 . S
C5621 H5605 0.930 . S
C5621 C5620 1.377 . S
C5621 C5622 1.379 . S
C5622 H5606 0.931 . S
C5622 C5616 1.383 . S
C5622 C5621 1.379 . S
H5623 C5617 0.959 . S
H5624 C5617 0.961 . S
H5625 C5617 0.960 . S
H5626 C5618 0.930 . S
H5627 C5619 0.929 . S
H5628 C5636 0.929 . S
H5629 C5638 0.930 . S
H5630 C5640 0.930 . S
H5631 C5643 0.929 . S
H5632 C5646 0.930 . S
H5633 C5648 0.960 . S
H5634 C5648 0.960 . S
H5635 C5648 0.960 . S
C5636 H5628 0.929 . S
C5636 C5637 1.377 . S
C5636 C5638 1.384 . S
C5637 C5636 1.377 . S
C5637 C5643 1.390 . S
C5638 H5629 0.930 . S
C5638 C5636 1.384 . S
C5638 C5639 1.372 . S
C5639 C5638 1.372 . S
C5639 C5640 1.400 . S
C5639 C5644 1.490 . S
C5640 H5630 0.930 . S
C5640 C5639 1.400 . S
C5640 C5643 1.386 . S
H5641 C5657 0.930 . S
H5642 C5658 0.931 . S
C5643 H5631 0.929 . S
C5643 C5637 1.390 . S
C5643 C5640 1.386 . S
C5644 C5639 1.490 . S
C5644 C5646 1.395 . S
C5644 C5647 1.403 . S
H5645 C5651 0.930 . S
C5646 H5632 0.930 . S
C5646 C5644 1.395 . S
C5646 C5649 1.403 . S
C5647 C5644 1.403 . S
C5647 C5648 1.524 . S
C5647 C5651 1.400 . S
C5648 H5633 0.960 . S
C5648 H5634 0.960 . S
C5648 H5635 0.960 . S
C5648 C5647 1.524 . S
C5649 C5646 1.403 . S
C5649 C5650 1.392 . S
C5649 C5653 1.495 . S
C5650 C5649 1.392 . S
C5650 C5651 1.385 . S
C5650 C5652 1.478 . S
C5651 H5645 0.930 . S
C5651 C5647 1.400 . S
C5651 C5650 1.385 . S
C5652 C5650 1.478 . S
C5652 C5654 1.381 . S
C5652 C5658 1.383 . S
C5653 C5649 1.495 . S
C5653 H5659 0.959 . S
C5653 H5660 0.961 . S
C5653 H5661 0.960 . S
C5654 C5652 1.381 . S
C5654 C5655 1.394 . S
C5654 H5662 0.930 . S
C5655 C5654 1.394 . S
C5655 C5656 1.383 . S
C5655 H5663 0.929 . S
C5656 C5655 1.383 . S
C5656 C5657 1.377 . S
C5657 H5641 0.930 . S
C5657 C5656 1.377 . S
C5657 C5658 1.379 . S
C5658 H5642 0.931 . S
C5658 C5652 1.383 . S
C5658 C5657 1.379 . S
H5659 C5653 0.959 . S
H5660 C5653 0.961 . S
H5661 C5653 0.960 . S
H5662 C5654 0.930 . S
H5663 C5655 0.929 . S
C2217 C255 1.937 . S
C2236 C920 1.944 . S
C2253 C147 1.816 . S
C2272 C1022 1.818 . S
C2289 C184 1.717 . S
C2308 C1088 1.734 . S
C2344 C1174 1.446 . S
C2325 C220 1.588 . S
C2361 C40 1.550 . S
C2380 C1258 1.463 . S
C2416 C1340 1.832 . S
C2397 C74 1.796 . S
C2452 C1442 1.834 . S
C2433 C110 1.860 . S
C2469 C14 1.887 . S
C2488 C1508 1.892 . S
C2524 C938 1.608 . S
C2505 C579 1.630 . S
C2541 C616 0.911 . S
C2560 C1006 0.858 . S
C2596 C1106 1.110 . S
C2577 C687 1.134 . S
C2632 C1172 1.659 . S
C2613 C436 1.644 . S
C2649 C580 1.616 . S
C2668 C1256 1.633 . S
C2704 C1358 1.096 . S
C2685 C615 1.114 . S
C2740 C1426 0.819 . S
C2721 C688 0.905 . S
C2776 C1526 1.550 . S
C2757 C435 1.604 . S
C2812 C922 0.872 . S
C2793 C410 0.918 . S
C2829 C722 1.735 . S
C2848 C1610 1.697 . S
C2884 C1678 1.298 . S
C2865 C842 1.395 . S
C2920 C1760 0.825 . S
C2901 C794 0.825 . S
C2937 C302 0.920 . S
C2956 C1510 0.894 . S
C2973 C338 1.359 . S
C2992 C1090 1.300 . S
C3009 C830 1.766 . S
C3028 C1862 1.750 . S
C3064 C1928 0.883 . S
C3045 C758 0.884 . S
C3100 C931 1.897 . S
C3081 C158 1.802 . S
C3136 C1935 1.762 . S
C3117 C254 1.792 . S
C3153 C218 1.710 . S
C3172 C1099 1.742 . S
C3189 C194 1.502 . S
C3208 C1857 1.440 . S
C3244 C1269 1.441 . S
C3225 C3 1.524 . S
C3261 C111 1.655 . S
C3280 C1687 1.647 . S
C3316 C1431 1.790 1_556 S
C3297 C76 1.801 . S
C3352 C2023 1.957 . S
C3333 C50 1.865 . S
C3388 C927 1.539 . S
C3369 C364 1.566 . S
C3424 C1941 0.821 . S
C3405 C795 0.856 . S
C3441 C292 1.075 . S
C3460 C1095 1.046 . S
C3477 C723 1.582 . S
C3496 C1855 1.568 . S
C3513 C363 1.593 . S
C3532 C1267 1.579 . S
C3568 C1683 1.089 . S
C3549 C796 1.094 . S
C3585 C291 0.879 . S
C3604 C1437 0.877 . S
C3621 C724 1.585 . S
C3640 C2019 1.549 . S
C3657 C482 0.846 . S
C3676 C933 0.866 . S
C3693 C434 1.695 . S
C3712 C1599 1.688 . S
C3729 C662 1.333 . S
C3748 C1353 1.341 . S
C3765 C614 0.807 . S
C3784 C1771 0.808 . S
C3820 C2025 0.872 . S
C3801 C698 0.877 . S
C3837 C554 1.327 . S
C3856 C1101 1.267 . S
C3892 C1179 1.669 . S
C3873 C650 1.696 . S
C3928 C1015 0.809 . S
C3909 C506 0.812 . S
C3945 C183 1.935 . S
C3964 C2096 1.950 . S
C4000 C1946 1.801 . S
C3981 C219 1.819 . S
C4017 C256 1.712 . S
C4036 C2180 1.729 . S
C4053 C148 1.587 1_655 S
C4072 C1846 1.445 . S
C4089 C122 1.552 . S
C4108 C1594 1.475 . S
C4144 C1676 1.760 . S
C4125 C2 1.724 1_655 S
C4180 C1778 1.725 . S
C4161 C39 1.743 . S
C4216 C2012 1.968 . S
C4197 C86 1.964 . S
C4252 C2114 1.620 . S
C4233 C651 1.640 . S
C4269 C472 0.911 1_556 S
C4288 C1930 0.821 . S
C4324 C2198 1.117 . S
C4305 C507 1.122 . S
C4360 C1844 1.667 . S
C4341 C544 1.653 . S
C4396 C1592 1.615 . S
C4377 C652 1.611 . S
C4413 C471 1.100 . S
C4432 C1694 1.083 . S
C4468 C1762 0.873 . S
C4449 C508 0.905 . S
C4485 C543 1.625 . S
C4504 C2030 1.591 . S
C4540 C2098 0.930 . S
C4521 C806 0.916 . S
C4557 C326 1.708 . S
C4576 C1274 1.704 . S
C4612 C1342 1.297 . S
C4593 C374 1.369 1_565 S
C4648 C1424 0.846 . S
C4629 C398 0.836 . S
C4684 C2014 0.939 . S
C4665 C770 0.913 . S
C4701 C734 1.350 . S
C4720 C2182 1.322 . S
C4756 C1190 1.733 . S
C4737 C362 1.751 . S
C4792 C1004 0.901 . S
C4773 C290 0.905 . S
C4809 C230 1.798 . S
C4828 C2107 1.891 . S
C4864 C1011 1.767 . S
C4845 C182 1.794 . S
C4881 C146 1.708 . S
C4900 C2191 1.737 . S
C4917 C266 1.494 . S
C4936 C1185 1.409 . S
C4953 C75 1.570 . S
C4972 C1605 1.489 . S
C5008 C1351 1.804 . S
C4989 C38 1.770 . S
C5025 C4 1.723 . S
C5044 C1767 1.713 . S
C5061 C112 1.866 . S
C5080 C1519 1.878 . S
C5116 C2103 1.534 . S
C5097 C832 1.568 . S
C5133 C399 0.872 . S
C5152 C1017 0.878 . S
C5188 C2187 1.078 . S
C5169 C760 1.069 . S
C5205 C327 1.576 . S
C5224 C1183 1.571 . S
C5241 C831 1.623 . S
C5260 C1603 1.621 . S
C5296 C1347 1.056 . S
C5277 C400 1.105 . S
C5313 C759 0.884 . S
C5332 C1773 0.860 . S
C5368 C1515 1.537 . S
C5349 C328 1.589 . S
C5404 C2109 0.821 . S
C5385 C626 0.874 . S
C5440 C1263 1.686 1_565 S
C5421 C542 1.699 . S
C5457 C590 1.314 . S
C5476 C1689 1.261 . S
C5512 C1435 0.823 . S
C5493 C470 0.820 . S
C5529 C518 0.859 . S
C5548 C1521 0.851 . S
C5565 C446 1.325 . S
C5584 C2193 1.334 . S
C5620 C1851 1.693 . S
C5601 C578 1.711 . S
C5656 C1939 0.794 . S
C5637 C686 0.789 . S
