# Generated by pormake.
# Topology cor, (4,6)-cn, num edge types: 1
# Building blocks:
#     Node 0, Type 0, BuildingBlock: QUQFOY_clean_sbu_3, # of connection points: 4
#     Node 1, Type 0, BuildingBlock: QUQFOY_clean_sbu_3, # of connection points: 4
#     Node 2, Type 0, BuildingBlock: QUQFOY_clean_sbu_3, # of connection points: 4
#     Node 3, Type 0, BuildingBlock: QUQFOY_clean_sbu_3, # of connection points: 4
#     Node 4, Type 0, BuildingBlock: QUQFOY_clean_sbu_3, # of connection points: 4
#     Node 5, Type 0, BuildingBlock: QUQFOY_clean_sbu_3, # of connection points: 4
#     Node 6, Type 0, BuildingBlock: QUQFOY_clean_sbu_3, # of connection points: 4
#     Node 7, Type 0, BuildingBlock: QUQFOY_clean_sbu_3, # of connection points: 4
#     Node 8, Type 0, BuildingBlock: QUQFOY_clean_sbu_3, # of connection points: 4
#     Node 9, Type 0, BuildingBlock: QUQFOY_clean_sbu_3, # of connection points: 4
#     Node 10, Type 0, BuildingBlock: QUQFOY_clean_sbu_3, # of connection points: 4
#     Node 11, Type 0, BuildingBlock: QUQFOY_clean_sbu_3, # of connection points: 4
#     Node 12, Type 0, BuildingBlock: QUQFOY_clean_sbu_3, # of connection points: 4
#     Node 13, Type 0, BuildingBlock: QUQFOY_clean_sbu_3, # of connection points: 4
#     Node 14, Type 0, BuildingBlock: QUQFOY_clean_sbu_3, # of connection points: 4
#     Node 15, Type 0, BuildingBlock: QUQFOY_clean_sbu_3, # of connection points: 4
#     Node 16, Type 0, BuildingBlock: QUQFOY_clean_sbu_3, # of connection points: 4
#     Node 17, Type 0, BuildingBlock: QUQFOY_clean_sbu_3, # of connection points: 4
#     Node 18, Type 1, BuildingBlock: MIDCAF_clean_sbu_0, # of connection points: 6
#     Node 19, Type 1, BuildingBlock: MIDCAF_clean_sbu_0, # of connection points: 6
#     Node 20, Type 1, BuildingBlock: MIDCAF_clean_sbu_0, # of connection points: 6
#     Node 21, Type 1, BuildingBlock: MIDCAF_clean_sbu_0, # of connection points: 6
#     Node 22, Type 1, BuildingBlock: MIDCAF_clean_sbu_0, # of connection points: 6
#     Node 23, Type 1, BuildingBlock: MIDCAF_clean_sbu_0, # of connection points: 6
#     Node 24, Type 1, BuildingBlock: MIDCAF_clean_sbu_0, # of connection points: 6
#     Node 25, Type 1, BuildingBlock: MIDCAF_clean_sbu_0, # of connection points: 6
#     Node 26, Type 1, BuildingBlock: MIDCAF_clean_sbu_0, # of connection points: 6
#     Node 27, Type 1, BuildingBlock: MIDCAF_clean_sbu_0, # of connection points: 6
#     Node 28, Type 1, BuildingBlock: MIDCAF_clean_sbu_0, # of connection points: 6
#     Node 29, Type 1, BuildingBlock: MIDCAF_clean_sbu_0, # of connection points: 6
#     Edge 30, Type (0, 1), BuildingBlock: KIFKEQ_clean_linker_1, # of connection points: 2
#     Edge 31, Type (0, 1), BuildingBlock: KIFKEQ_clean_linker_1, # of connection points: 2
#     Edge 32, Type (0, 1), BuildingBlock: KIFKEQ_clean_linker_1, # of connection points: 2
#     Edge 33, Type (0, 1), BuildingBlock: KIFKEQ_clean_linker_1, # of connection points: 2
#     Edge 34, Type (0, 1), BuildingBlock: KIFKEQ_clean_linker_1, # of connection points: 2
#     Edge 35, Type (0, 1), BuildingBlock: KIFKEQ_clean_linker_1, # of connection points: 2
#     Edge 36, Type (0, 1), BuildingBlock: KIFKEQ_clean_linker_1, # of connection points: 2
#     Edge 37, Type (0, 1), BuildingBlock: KIFKEQ_clean_linker_1, # of connection points: 2
#     Edge 38, Type (0, 1), BuildingBlock: KIFKEQ_clean_linker_1, # of connection points: 2
#     Edge 39, Type (0, 1), BuildingBlock: KIFKEQ_clean_linker_1, # of connection points: 2
#     Edge 40, Type (0, 1), BuildingBlock: KIFKEQ_clean_linker_1, # of connection points: 2
#     Edge 41, Type (0, 1), BuildingBlock: KIFKEQ_clean_linker_1, # of connection points: 2
#     Edge 42, Type (0, 1), BuildingBlock: KIFKEQ_clean_linker_1, # of connection points: 2
#     Edge 43, Type (0, 1), BuildingBlock: KIFKEQ_clean_linker_1, # of connection points: 2
#     Edge 44, Type (0, 1), BuildingBlock: KIFKEQ_clean_linker_1, # of connection points: 2
#     Edge 45, Type (0, 1), BuildingBlock: KIFKEQ_clean_linker_1, # of connection points: 2
#     Edge 46, Type (0, 1), BuildingBlock: KIFKEQ_clean_linker_1, # of connection points: 2
#     Edge 47, Type (0, 1), BuildingBlock: KIFKEQ_clean_linker_1, # of connection points: 2
#     Edge 48, Type (0, 1), BuildingBlock: KIFKEQ_clean_linker_1, # of connection points: 2
#     Edge 49, Type (0, 1), BuildingBlock: KIFKEQ_clean_linker_1, # of connection points: 2
#     Edge 50, Type (0, 1), BuildingBlock: KIFKEQ_clean_linker_1, # of connection points: 2
#     Edge 51, Type (0, 1), BuildingBlock: KIFKEQ_clean_linker_1, # of connection points: 2
#     Edge 52, Type (0, 1), BuildingBlock: KIFKEQ_clean_linker_1, # of connection points: 2
#     Edge 53, Type (0, 1), BuildingBlock: KIFKEQ_clean_linker_1, # of connection points: 2
#     Edge 54, Type (0, 1), BuildingBlock: KIFKEQ_clean_linker_1, # of connection points: 2
#     Edge 55, Type (0, 1), BuildingBlock: KIFKEQ_clean_linker_1, # of connection points: 2
#     Edge 56, Type (0, 1), BuildingBlock: KIFKEQ_clean_linker_1, # of connection points: 2
#     Edge 57, Type (0, 1), BuildingBlock: KIFKEQ_clean_linker_1, # of connection points: 2
#     Edge 58, Type (0, 1), BuildingBlock: KIFKEQ_clean_linker_1, # of connection points: 2
#     Edge 59, Type (0, 1), BuildingBlock: KIFKEQ_clean_linker_1, # of connection points: 2
#     Edge 60, Type (0, 1), BuildingBlock: KIFKEQ_clean_linker_1, # of connection points: 2
#     Edge 61, Type (0, 1), BuildingBlock: KIFKEQ_clean_linker_1, # of connection points: 2
#     Edge 62, Type (0, 1), BuildingBlock: KIFKEQ_clean_linker_1, # of connection points: 2
#     Edge 63, Type (0, 1), BuildingBlock: KIFKEQ_clean_linker_1, # of connection points: 2
#     Edge 64, Type (0, 1), BuildingBlock: KIFKEQ_clean_linker_1, # of connection points: 2
#     Edge 65, Type (0, 1), BuildingBlock: KIFKEQ_clean_linker_1, # of connection points: 2
#     Edge 66, Type (0, 1), BuildingBlock: KIFKEQ_clean_linker_1, # of connection points: 2
#     Edge 67, Type (0, 1), BuildingBlock: KIFKEQ_clean_linker_1, # of connection points: 2
#     Edge 68, Type (0, 1), BuildingBlock: KIFKEQ_clean_linker_1, # of connection points: 2
#     Edge 69, Type (0, 1), BuildingBlock: KIFKEQ_clean_linker_1, # of connection points: 2
#     Edge 70, Type (0, 1), BuildingBlock: KIFKEQ_clean_linker_1, # of connection points: 2
#     Edge 71, Type (0, 1), BuildingBlock: KIFKEQ_clean_linker_1, # of connection points: 2
#     Edge 72, Type (0, 1), BuildingBlock: KIFKEQ_clean_linker_1, # of connection points: 2
#     Edge 73, Type (0, 1), BuildingBlock: KIFKEQ_clean_linker_1, # of connection points: 2
#     Edge 74, Type (0, 1), BuildingBlock: KIFKEQ_clean_linker_1, # of connection points: 2
#     Edge 75, Type (0, 1), BuildingBlock: KIFKEQ_clean_linker_1, # of connection points: 2
#     Edge 76, Type (0, 1), BuildingBlock: KIFKEQ_clean_linker_1, # of connection points: 2
#     Edge 77, Type (0, 1), BuildingBlock: KIFKEQ_clean_linker_1, # of connection points: 2
#     Edge 78, Type (0, 1), BuildingBlock: KIFKEQ_clean_linker_1, # of connection points: 2
#     Edge 79, Type (0, 1), BuildingBlock: KIFKEQ_clean_linker_1, # of connection points: 2
#     Edge 80, Type (0, 1), BuildingBlock: KIFKEQ_clean_linker_1, # of connection points: 2
#     Edge 81, Type (0, 1), BuildingBlock: KIFKEQ_clean_linker_1, # of connection points: 2
#     Edge 82, Type (0, 1), BuildingBlock: KIFKEQ_clean_linker_1, # of connection points: 2
#     Edge 83, Type (0, 1), BuildingBlock: KIFKEQ_clean_linker_1, # of connection points: 2
#     Edge 84, Type (0, 1), BuildingBlock: KIFKEQ_clean_linker_1, # of connection points: 2
#     Edge 85, Type (0, 1), BuildingBlock: KIFKEQ_clean_linker_1, # of connection points: 2
#     Edge 86, Type (0, 1), BuildingBlock: KIFKEQ_clean_linker_1, # of connection points: 2
#     Edge 87, Type (0, 1), BuildingBlock: KIFKEQ_clean_linker_1, # of connection points: 2
#     Edge 88, Type (0, 1), BuildingBlock: KIFKEQ_clean_linker_1, # of connection points: 2
#     Edge 89, Type (0, 1), BuildingBlock: KIFKEQ_clean_linker_1, # of connection points: 2
#     Edge 90, Type (0, 1), BuildingBlock: KIFKEQ_clean_linker_1, # of connection points: 2
#     Edge 91, Type (0, 1), BuildingBlock: KIFKEQ_clean_linker_1, # of connection points: 2
#     Edge 92, Type (0, 1), BuildingBlock: KIFKEQ_clean_linker_1, # of connection points: 2
#     Edge 93, Type (0, 1), BuildingBlock: KIFKEQ_clean_linker_1, # of connection points: 2
#     Edge 94, Type (0, 1), BuildingBlock: KIFKEQ_clean_linker_1, # of connection points: 2
#     Edge 95, Type (0, 1), BuildingBlock: KIFKEQ_clean_linker_1, # of connection points: 2
#     Edge 96, Type (0, 1), BuildingBlock: KIFKEQ_clean_linker_1, # of connection points: 2
#     Edge 97, Type (0, 1), BuildingBlock: KIFKEQ_clean_linker_1, # of connection points: 2
#     Edge 98, Type (0, 1), BuildingBlock: KIFKEQ_clean_linker_1, # of connection points: 2
#     Edge 99, Type (0, 1), BuildingBlock: KIFKEQ_clean_linker_1, # of connection points: 2
#     Edge 100, Type (0, 1), BuildingBlock: KIFKEQ_clean_linker_1, # of connection points: 2
#     Edge 101, Type (0, 1), BuildingBlock: KIFKEQ_clean_linker_1, # of connection points: 2
# Relax obj value: 0.108
# Max RMSD: 0.161
# Mean RMSD: 0.108
data_MOF--net-cor--node1-QUQFOY_clean_sbu_3--node2-MIDCAF_clean_sbu_0--edge1-KIFKEQ_clean_linker_1
_symmetry_space_group_name_H-M    P1
_symmetry_Int_Tables_number       1
_symmetry_cell_setting            triclinic
loop_
_symmetry_equiv_pos_as_xyz
'x, y, z'
_cell_length_a     39.950441
_cell_length_b     40.014387
_cell_length_c     101.66787
_cell_angle_alpha  89.854604
_cell_angle_beta   90.105023
_cell_angle_gamma 120.40823
loop_
_atom_site_label
_atom_site_type_symbol
_atom_site_fract_x
_atom_site_fract_y
_atom_site_fract_z
_atom_type_partial_charge
C0 C 0.68236 0.92207 0.27586 0.0
O1 O 0.70665 0.91218 0.27247 0.0
Cd2 Cd 0.77153 0.95857 0.26697 0.0
O3 O 0.69175 0.95769 0.27544 0.0
Cd4 Cd 0.75218 0.01925 0.26838 0.0
C5 C 0.7987 0.01387 0.29484 0.0
O6 O 0.77071 -0.00284 0.24874 0.0
O7 O 0.81632 0.0492 0.25764 0.0
O8 O 0.71459 0.04295 0.25656 0.0
C9 C 0.80345 0.02776 0.24756 0.0
O10 O 0.80139 0.98864 0.28806 0.0
C11 C 0.73423 0.07715 0.26106 0.0
O12 O 0.78074 0.03 0.29028 0.0
O13 O 0.75949 0.08307 0.26973 0.0
C14 C 0.89857 0.65374 0.26331 0.0
O15 O 0.88055 0.66615 0.27012 0.0
Cd16 Cd 0.90865 0.73169 0.27648 0.0
O17 O 0.93523 0.67439 0.2616 0.0
Cd18 Cd -0.01003 0.73809 0.27006 0.0
C19 C 0.95483 0.77269 0.24674 0.0
O20 O 0.96132 0.7446 0.29042 0.0
O21 O 0.00917 0.79748 0.28267 0.0
O22 O 0.02375 0.70967 0.28141 0.0
C23 C 0.98556 0.78028 0.29203 0.0
O24 O 0.92741 0.76305 0.25497 0.0
C25 C 0.05593 0.72919 0.27547 0.0
O26 O 0.98332 0.76783 0.24945 0.0
O27 O 0.05717 0.75146 0.26629 0.0
C28 C 0.24456 0.33411 0.27017 0.0
O29 O 0.21024 0.30736 0.26757 0.0
Cd30 Cd 0.19461 0.24503 0.25939 0.0
O31 O 0.27296 0.32856 0.26826 0.0
Cd32 Cd 0.27592 0.27053 0.26024 0.0
C33 C 0.22312 0.21194 0.28503 0.0
O34 O 0.23419 0.25145 0.24063 0.0
O35 O 0.24392 0.20739 0.24883 0.0
O36 O 0.33446 0.30588 0.24676 0.0
C37 C 0.23376 0.21986 0.23902 0.0
O38 O 0.19438 0.20527 0.2778 0.0
C39 C 0.35289 0.29192 0.25251 0.0
O40 O 0.25728 0.23783 0.28175 0.0
O41 O 0.33703 0.2711 0.2626 0.0
C42 C 0.35799 0.11304 0.7631 0.0
O43 O 0.33941 0.12497 0.76983 0.0
Cd44 Cd 0.27236 0.08479 0.77425 0.0
O45 O 0.3424 0.0771 0.76027 0.0
Cd46 Cd 0.27899 0.01606 0.76564 0.0
C47 C 0.2425 0.04952 0.74278 0.0
O48 O 0.26168 0.03012 0.78721 0.0
O49 O 0.21421 0.98672 0.77566 0.0
O50 O 0.30923 0.98354 0.77636 0.0
C51 C 0.2268 0.00243 0.7868 0.0
O52 O 0.24587 0.07259 0.75197 0.0
C53 C 0.29273 0.95298 0.76946 0.0
O54 O 0.25217 0.02402 0.74468 0.0
O55 O 0.27221 0.9528 0.75985 0.0
C56 C 0.90579 0.24596 0.76102 0.0
O57 O 0.88918 0.21527 0.76789 0.0
Cd58 Cd 0.926 0.18697 0.77567 0.0
O59 O 0.94262 0.26472 0.75994 0.0
Cd60 Cd -0.0014 0.26014 0.76827 0.0
C61 C 0.96793 0.18911 0.746 0.0
O62 O 0.9793 0.22835 0.78985 0.0
O63 O 0.02301 0.22269 0.77917 0.0
O64 O 0.0295 0.32296 0.77886 0.0
C65 C 0.0062 0.2202 0.79002 0.0
O66 O 0.94414 0.16915 0.75507 0.0
C67 C 0.06179 0.33653 0.77296 0.0
O68 O -0.0083 0.22517 0.74762 0.0
O69 O 0.06396 0.31577 0.76392 0.0
C70 C 0.67365 0.78022 0.75658 0.0
O71 O 0.69405 0.81244 0.75078 0.0
Cd72 Cd 0.75963 0.83536 0.74468 0.0
O73 O 0.68667 0.75723 0.75817 0.0
Cd74 Cd 0.74729 0.75743 0.75218 0.0
C75 C 0.79133 0.82657 0.77516 0.0
O76 O 0.76223 0.78867 0.73061 0.0
O77 O 0.81008 0.78939 0.74081 0.0
O78 O 0.71131 0.69417 0.74196 0.0
C79 C 0.79575 0.79263 0.73005 0.0
O80 O 0.7921 0.84872 0.766 0.0
C81 C 0.72893 0.67963 0.74789 0.0
O82 O 0.77519 0.79019 0.77326 0.0
O83 O 0.75253 0.69995 0.75692 0.0
C84 C 0.34416 0.25166 0.59928 0.0
O85 O 0.36001 0.2364 0.59276 0.0
Cd86 Cd 0.42588 0.27589 0.58598 0.0
O87 O 0.36077 0.28838 0.6003 0.0
Cd88 Cd 0.42045 0.34679 0.59229 0.0
C89 C 0.45968 0.31998 0.61613 0.0
O90 O 0.43434 0.32672 0.57136 0.0
O91 O 0.48342 0.37327 0.58152 0.0
O92 O 0.38454 0.37186 0.58086 0.0
C93 C 0.46908 0.35478 0.5709 0.0
O94 O 0.45744 0.29614 0.6074 0.0
C95 C 0.40245 0.40538 0.58596 0.0
O96 O 0.44733 0.34314 0.61371 0.0
O97 O 0.42663 0.41088 0.59506 0.0
C98 C 0.57501 -0.00163 0.5923 0.0
O99 O 0.56043 0.01367 0.59946 0.0
Cd100 Cd 0.59881 0.08114 0.60418 0.0
O101 O 0.61147 0.01628 0.59011 0.0
Cd102 Cd 0.67081 0.07745 0.59748 0.0
C103 C 0.64037 0.11301 0.57342 0.0
O104 O 0.65229 0.09492 0.61837 0.0
O105 O 0.70098 0.14081 0.60779 0.0
O106 O 0.69743 0.04297 0.60916 0.0
C107 C 0.68159 0.12904 0.61837 0.0
O108 O 0.61478 0.1076 0.58195 0.0
C109 C 0.73019 0.05984 0.60346 0.0
O110 O 0.66702 0.10546 0.57615 0.0
O111 O 0.73431 0.08252 0.594 0.0
C112 C 0.92604 0.69243 0.58992 0.0
O113 O 0.89445 0.67323 0.58364 0.0
Cd114 Cd 0.86834 0.60737 0.57758 0.0
O115 O 0.94741 0.67779 0.59219 0.0
Cd116 Cd 0.94381 0.61481 0.58665 0.0
C117 C 0.87047 0.57336 0.60844 0.0
O118 O 0.915 0.60156 0.56456 0.0
O119 O 0.90884 0.55222 0.57528 0.0
O120 O 0.01082 0.64871 0.57879 0.0
C121 C 0.90739 0.56674 0.56434 0.0
O122 O 0.85039 0.57405 0.59881 0.0
C123 C 0.02038 0.62639 0.58441 0.0
O124 O 0.90703 0.58809 0.60725 0.0
O125 O -0.00452 0.60091 0.59212 0.0
C126 C 0.01076 0.44556 0.09382 0.0
O127 O -0.01173 0.45554 0.09899 0.0
Cd128 Cd 0.92297 0.41069 0.10471 0.0
O129 O -1e-05 0.4097 0.09271 0.0
Cd130 Cd 0.93954 0.34709 0.09901 0.0
C131 C 0.89417 0.36635 0.07465 0.0
O132 O 0.92082 0.36352 0.11987 0.0
O133 O 0.87511 0.31498 0.10939 0.0
O134 O 0.97402 0.32049 0.11088 0.0
C135 C 0.88753 0.33323 0.12014 0.0
O136 O 0.89255 0.38874 0.08317 0.0
C137 C 0.95786 0.28811 0.10499 0.0
O138 O 0.91086 0.34721 0.07742 0.0
O139 O 0.93616 0.2845 0.09529 0.0
C140 C 0.57349 0.57594 0.09501 0.0
O141 O 0.56192 0.54282 0.10005 0.0
Cd142 Cd 0.60551 0.52043 0.10522 0.0
O143 O 0.6097 0.60051 0.09415 0.0
Cd144 Cd 0.67178 0.60388 0.10053 0.0
C145 C 0.65194 0.54229 0.07525 0.0
O146 O 0.65426 0.56347 0.12038 0.0
O147 O 0.70653 0.57459 0.11026 0.0
O148 O 0.69439 0.66266 0.11338 0.0
C149 C 0.68572 0.56282 0.12054 0.0
O150 O 0.62836 0.51713 0.08337 0.0
C151 C 0.72696 0.68174 0.10765 0.0
O152 O 0.67232 0.57777 0.07861 0.0
O153 O 0.73253 0.66599 0.09768 0.0
C154 C 0.31905 0.10295 0.09427 0.0
O155 O 0.33945 0.13527 0.08852 0.0
Cd156 Cd 0.40304 0.1591 0.08034 0.0
O157 O 0.33097 0.07881 0.0951 0.0
Cd158 Cd 0.39107 0.07919 0.08772 0.0
C159 C 0.43933 0.15051 0.10986 0.0
O160 O 0.40131 0.11041 0.06642 0.0
O161 O 0.45157 0.11186 0.07487 0.0
O162 O 0.35739 0.01507 0.07788 0.0
C163 C 0.435 0.11553 0.06476 0.0
O164 O 0.43925 0.17258 0.10084 0.0
C165 C 0.37721 0.00279 0.08372 0.0
O166 O 0.42237 0.11401 0.10812 0.0
O167 O 0.40056 0.02443 0.09258 0.0
C168 C 0.01172 0.57358 0.93202 0.0
O169 O 0.03347 0.56204 0.92728 0.0
Cd170 Cd 0.09752 0.60428 0.91983 0.0
O171 O 0.02247 0.60956 0.93196 0.0
Cd172 Cd 0.08118 0.67058 0.92424 0.0
C173 C 0.12874 0.65484 0.94872 0.0
O174 O 0.0931 0.64649 0.90404 0.0
O175 O 0.14156 0.69999 0.91111 0.0
O176 O 0.04426 0.69561 0.91319 0.0
C177 C 0.12552 0.67647 0.90166 0.0
O178 O 0.12968 0.63066 0.94083 0.0
C179 C 0.06128 0.72831 0.91886 0.0
O180 O 0.11228 0.67369 0.94535 0.0
O181 O 0.08528 0.73306 0.92791 0.0
C182 C 0.23692 0.3375 0.92636 0.0
O183 O 0.22452 0.35877 0.93088 0.0
Cd184 Cd 0.26449 0.42379 0.93779 0.0
O185 O 0.27333 0.34975 0.92613 0.0
Cd186 Cd 0.33342 0.41188 0.93314 0.0
C187 C 0.31377 0.45796 0.90878 0.0
O188 O 0.30918 0.4237 0.95354 0.0
O189 O 0.36086 0.47301 0.94584 0.0
O190 O 0.36274 0.37908 0.94456 0.0
C191 C 0.33819 0.45711 0.95552 0.0
O192 O 0.28912 0.45732 0.91685 0.0
C193 C 0.39519 0.39704 0.9387 0.0
O194 O 0.33393 0.4426 0.9119 0.0
O195 O 0.39798 0.41954 0.92937 0.0
C196 C 0.5835 0.01774 0.9258 0.0
O197 O 0.5509 -0.00084 0.92007 0.0
Cd198 Cd 0.5234 0.93289 0.91446 0.0
O199 O 0.60504 0.00288 0.92723 0.0
Cd200 Cd 0.60184 0.94124 0.91975 0.0
C201 C 0.53593 0.8985 0.94401 0.0
O202 O 0.56746 0.93051 0.89899 0.0
O203 O 0.56642 0.88015 0.9071 0.0
O204 O 0.66513 0.97367 0.90897 0.0
C205 C 0.5617 0.8967 0.89719 0.0
O206 O 0.5127 0.90088 0.93598 0.0
C207 C 0.67826 0.95483 0.91495 0.0
O208 O 0.57114 0.91137 0.94077 0.0
O209 O 0.65723 0.932 0.92404 0.0
C210 C 0.69767 0.75773 0.42427 0.0
O211 O 0.68506 0.77652 0.43051 0.0
Cd212 Cd 0.61677 0.74869 0.43366 0.0
O213 O 0.67499 0.72206 0.42159 0.0
Cd214 Cd 0.60648 0.67187 0.42744 0.0
C215 C 0.58036 0.7111 0.40309 0.0
O216 O 0.59168 0.69397 0.44832 0.0
O217 O 0.54332 0.64908 0.43732 0.0
O218 O 0.62953 0.63624 0.43995 0.0
C219 C 0.55611 0.66752 0.44802 0.0
O220 O 0.58991 0.73796 0.41149 0.0
C221 C 0.61091 0.60467 0.43368 0.0
O222 O 0.58275 0.68133 0.40597 0.0
O223 O 0.59212 0.60474 0.42357 0.0
C224 C 0.26401 0.95095 0.42432 0.0
O225 O 0.24277 0.91784 0.42947 0.0
Cd226 Cd 0.26818 0.87681 0.43499 0.0
O227 O 0.30045 0.96492 0.42331 0.0
Cd228 Cd 0.34787 0.94469 0.42938 0.0
C229 C 0.3076 0.87958 0.4048 0.0
O230 O 0.32266 0.90663 0.44986 0.0
O231 O 0.36751 0.90247 0.43923 0.0
O232 O 0.38349 0.00239 0.44236 0.0
C233 C 0.34837 0.89678 0.44977 0.0
O234 O 0.28073 0.86149 0.41319 0.0
C235 C 0.41552 0.01553 0.43637 0.0
O236 O 0.33743 0.91205 0.40771 0.0
O237 O 0.41586 -0.0028 0.42619 0.0
C238 C 0.002 0.45413 0.42463 0.0
O239 O 0.0251 0.48553 0.41875 0.0
Cd240 Cd 0.0892 0.49971 0.41306 0.0
O241 O 0.01103 0.42813 0.42632 0.0
Cd242 Cd 0.06313 0.41419 0.42155 0.0
C243 C 0.1134 0.48401 0.44421 0.0
O244 O 0.08431 0.4469 0.40038 0.0
O245 O 0.12286 0.43074 0.40967 0.0
O246 O 0.01673 0.35194 0.412 0.0
C247 C 0.11391 0.4431 0.39952 0.0
O248 O 0.11699 0.50718 0.43498 0.0
C249 C 0.02488 0.33191 0.41962 0.0
O250 O 0.09445 0.44749 0.44234 0.0
O251 O 0.04966 0.34992 0.42864 0.0
Zn252 Zn 0.98502 0.00478 0.13065 0.0
Zn253 Zn 0.00618 0.01923 0.17916 0.0
Zn254 Zn -0.00304 0.01168 0.15586 0.0
C255 C 0.95949 0.94218 0.17702 0.0
C256 C 0.07893 0.04776 0.1712 0.0
O257 O 0.96944 0.04573 0.14964 0.0
O258 O 0.95864 0.03492 0.12833 0.0
C259 C 0.94756 0.93007 0.14039 0.0
O260 O 0.96986 0.95242 0.16498 0.0
O261 O 0.96706 0.96772 0.18559 0.0
O262 O 0.06 0.03144 0.18145 0.0
O263 O 0.0606 0.04551 0.16048 0.0
O264 O 0.95451 0.94804 0.12961 0.0
O265 O 0.96097 0.94873 0.15126 0.0
O266 O 0.05496 0.03787 0.14671 0.0
O267 O 0.04013 0.03026 0.12555 0.0
C268 C 0.06533 0.04189 0.13455 0.0
O269 O 0.96705 0.0415 0.16387 0.0
O270 O -0.00441 0.06131 0.18312 0.0
C271 C 0.95741 0.05183 0.13862 0.0
C272 C 0.97168 0.05993 0.17473 0.0
Zn273 Zn 0.01547 0.03308 0.35718 0.0
Zn274 Zn 0.02164 0.02108 0.40371 0.0
Zn275 Zn 0.01572 0.02432 0.37912 0.0
C276 C 0.00099 0.07706 0.39928 0.0
C277 C 0.96312 0.94704 0.39561 0.0
O278 O 0.98561 0.96521 0.37088 0.0
O279 O 0.01927 0.98699 0.35256 0.0
C280 C 0.08729 0.08178 0.36169 0.0
O281 O -0.00297 0.06385 0.38747 0.0
O282 O 0.01256 0.06359 0.4083 0.0
O283 O 0.97869 0.9668 0.40583 0.0
O284 O 0.97469 0.96266 0.38417 0.0
O285 O 0.06212 0.08511 0.35528 0.0
O286 O 0.07603 0.05526 0.37061 0.0
O287 O 0.98237 0.05425 0.37473 0.0
O288 O 0.96529 0.02929 0.35487 0.0
C289 C 0.96089 0.04668 0.36441 0.0
O290 O 0.07716 0.04264 0.3835 0.0
O291 O 0.07554 0.03248 0.40493 0.0
C292 C -0.00196 0.95892 0.36003 0.0
C293 C 0.09411 0.04218 0.39424 0.0
Zn294 Zn -0.00217 0.99175 0.89885 0.0
Zn295 Zn 0.01048 0.00726 0.84933 0.0
Zn296 Zn 0.00396 -0.00027 0.8729 0.0
C297 C 0.04967 0.08081 0.85706 0.0
C298 C 0.93323 0.97109 0.8523 0.0
O299 O 0.03071 0.96548 0.87915 0.0
O300 O 0.02343 0.96082 0.90079 0.0
C301 C 0.04194 0.07127 0.89349 0.0
O302 O 0.0324 0.06236 0.86764 0.0
O303 O 0.05052 0.06221 0.84721 0.0
O304 O 0.95766 -0.00661 0.84396 0.0
O305 O 0.94476 0.96791 0.86384 0.0
O306 O 0.02847 0.04773 0.903 0.0
O307 O 0.03498 0.05871 0.88156 0.0
O308 O 0.94166 0.97079 0.87787 0.0
O309 O 0.94033 0.96561 0.89956 0.0
C310 C 0.9227 0.96081 0.88879 0.0
O311 O 0.03889 0.97405 0.86552 0.0
O312 O 0.02584 0.96955 0.84432 0.0
C313 C 0.03507 0.953 0.89035 0.0
C314 C 0.04196 0.96319 0.85387 0.0
Zn315 Zn -0.00254 -0.00273 0.67425 0.0
Zn316 Zn 0.01459 0.02976 0.62619 0.0
Zn317 Zn 0.00739 0.0124 0.65092 0.0
C318 C 0.98732 0.9503 0.62782 0.0
C319 C 0.08782 0.07243 0.6373 0.0
O320 O 0.97621 0.04 0.65983 0.0
O321 O 0.95773 0.01044 0.67902 0.0
C322 C 0.96858 0.92675 0.66369 0.0
O323 O 0.98535 0.95719 0.64009 0.0
O324 O 0.00066 0.97773 0.61958 0.0
O325 O 0.06928 0.0706 0.62702 0.0
O326 O 0.07032 0.0505 0.64724 0.0
O327 O 0.98187 0.94246 0.67465 0.0
O328 O 0.9738 0.94805 0.65348 0.0
O329 O 0.06617 0.03873 0.66055 0.0
O330 O 0.04904 0.03224 0.68143 0.0
C331 C 0.07532 0.04446 0.67285 0.0
O332 O 0.9717 0.03937 0.64582 0.0
O333 O 0.97666 0.04672 0.62422 0.0
C334 C 0.95851 0.0347 0.67092 0.0
C335 C 0.96214 0.04901 0.63493 0.0
Zn336 Zn 0.6812 0.35287 0.50512 0.0
Zn337 Zn 0.6657 0.33945 0.4563 0.0
Zn338 Zn 0.67436 0.34571 0.48193 0.0
C339 C 0.74492 0.38685 0.46137 0.0
C340 C 0.63691 0.26487 0.46601 0.0
O341 O 0.63973 0.37085 0.48953 0.0
O342 O 0.66813 0.39355 0.50864 0.0
C343 C 0.75484 0.38581 0.49801 0.0
O344 O 0.73286 0.37865 0.47333 0.0
O345 O 0.72106 0.37423 0.45195 0.0
O346 O 0.64443 0.28298 0.45524 0.0
O347 O 0.64548 0.28337 0.477 0.0
O348 O 0.73561 0.3673 0.50795 0.0
O349 O 0.73693 0.38371 0.48721 0.0
O350 O 0.65148 0.28684 0.49092 0.0
O351 O 0.64276 0.30046 0.51115 0.0
C352 C 0.63913 0.27575 0.50275 0.0
O353 O 0.64042 0.37255 0.47534 0.0
O354 O 0.63058 0.36058 0.45404 0.0
C355 C 0.6434 0.38985 0.50018 0.0
C356 C 0.62633 0.37574 0.46431 0.0
Zn357 Zn 0.69744 0.36482 0.72846 0.0
Zn358 Zn 0.67238 0.35146 0.6804 0.0
Zn359 Zn 0.68288 0.35514 0.70365 0.0
C360 C 0.59966 0.31095 0.68919 0.0
C361 C 0.71067 0.42744 0.68328 0.0
O362 O 0.71764 0.32746 0.70865 0.0
O363 O 0.73606 0.34849 0.72898 0.0
C364 C 0.61706 0.31431 0.72568 0.0
O365 O 0.61901 0.32686 0.69977 0.0
O366 O 0.61747 0.31198 0.67886 0.0
O367 O 0.68613 0.40425 0.67515 0.0
O368 O 0.71455 0.41457 0.6945 0.0
O369 O 0.64369 0.32788 0.73422 0.0
O370 O 0.62551 0.32312 0.71346 0.0
O371 O 0.71196 0.41792 0.70851 0.0
O372 O 0.71692 0.4204 0.73019 0.0
C373 C 0.72122 0.43734 0.71932 0.0
O374 O 0.70793 0.32091 0.6951 0.0
O375 O 0.70866 0.33568 0.67418 0.0
C376 C 0.73776 0.3308 0.719 0.0
C377 C 0.71689 0.319 0.68305 0.0
Zn378 Zn 0.66483 0.33342 0.22869 0.0
Zn379 Zn 0.67242 0.32377 0.1798 0.0
Zn380 Zn 0.66976 0.3294 0.20339 0.0
C381 C 0.71641 0.40099 0.18356 0.0
C382 C 0.59642 0.29395 0.18354 0.0
O383 O 0.69614 0.29754 0.21234 0.0
O384 O 0.69155 0.30541 0.23363 0.0
C385 C 0.70836 0.40917 0.2199 0.0
O386 O 0.70077 0.38885 0.19496 0.0
O387 O 0.71307 0.37678 0.17499 0.0
O388 O 0.61994 0.30922 0.17417 0.0
O389 O 0.60921 0.29642 0.19536 0.0
O390 O 0.69352 0.39036 0.23034 0.0
O391 O 0.70268 0.39144 0.20885 0.0
O392 O 0.60759 0.30332 0.20892 0.0
O393 O 0.60815 0.30602 0.23065 0.0
C394 C 0.58955 0.29694 0.21997 0.0
O395 O 0.70359 0.30059 0.1984 0.0
O396 O 0.68599 0.2832 0.17786 0.0
C397 C 0.70166 0.29144 0.22438 0.0
C398 C 0.70496 0.28359 0.18782 0.0
Zn399 Zn 0.66989 0.34015 1.00365 0.0
Zn400 Zn 0.66822 0.34807 0.95706 0.0
Zn401 Zn 0.67115 0.34466 0.98213 0.0
C402 C 0.63311 0.26966 0.96335 0.0
C403 C 0.74705 0.38526 0.96489 0.0
O404 O 0.65464 0.38566 0.99053 0.0
O405 O 0.69428 0.3967 1.00704 0.0
C406 C 0.60477 0.27927 0.99736 0.0
O407 O 0.64026 0.28406 0.97503 0.0
O408 O 0.64185 0.29152 0.95343 0.0
O409 O 0.72538 0.3784 0.95499 0.0
O410 O 0.73229 0.37388 0.97639 0.0
O411 O 0.61259 0.30671 1.00517 0.0
O412 O 0.62893 0.28453 0.98812 0.0
O413 O 0.73018 0.36155 0.98996 0.0
O414 O 0.70287 0.31612 1.00497 0.0
C415 C 0.73304 0.33993 0.9988 0.0
O416 O 0.63959 0.37606 0.97762 0.0
O417 O 0.63755 0.37436 0.95587 0.0
C418 C 0.67459 0.40704 1.00028 0.0
C419 C 0.62819 0.38311 0.96662 0.0
Zn420 Zn 0.34675 0.68068 0.83286 0.0
Zn421 Zn 0.32823 0.66531 0.78671 0.0
Zn422 Zn 0.33976 0.6734 0.81157 0.0
C423 C 0.40911 0.70332 0.79118 0.0
C424 C 0.29044 0.59079 0.79783 0.0
O425 O 0.30165 0.69442 0.81911 0.0
O426 O 0.2912 0.65977 0.83704 0.0
C427 C 0.4089 0.74164 0.82508 0.0
O428 O 0.39851 0.70198 0.8032 0.0
O429 O 0.38394 0.68856 0.78217 0.0
O430 O 0.29514 0.60807 0.78699 0.0
O431 O 0.30614 0.6101 0.80841 0.0
O432 O 0.3819 0.73764 0.83251 0.0
O433 O 0.40171 0.71492 0.8166 0.0
O434 O 0.32245 0.61659 0.82139 0.0
O435 O 0.36916 0.64682 0.83582 0.0
C436 C 0.34438 0.61544 0.83051 0.0
O437 O 0.3099 0.70551 0.80587 0.0
O438 O 0.30458 0.69842 0.78426 0.0
C439 C 0.28122 0.67816 0.82945 0.0
C440 C 0.30054 0.71343 0.79461 0.0
Zn441 Zn 0.35143 0.69501 0.06632 0.0
Zn442 Zn 0.34388 0.68049 0.02062 0.0
Zn443 Zn 0.34655 0.68607 0.04188 0.0
C444 C 0.28272 0.68526 0.02538 0.0
C445 C 0.40906 0.74363 0.02273 0.0
O446 O 0.37601 0.65491 0.04891 0.0
O447 O 0.38156 0.66952 0.07004 0.0
C448 C 0.27198 0.65079 0.06048 0.0
O449 O 0.28646 0.66678 0.03514 0.0
O450 O 0.31149 0.70474 0.01798 0.0
O451 O 0.40056 0.71221 0.01714 0.0
O452 O 0.38711 0.74288 0.03216 0.0
O453 O 0.295 0.66458 0.07011 0.0
O454 O 0.28544 0.65719 0.04866 0.0
O455 O 0.37806 0.74949 0.04512 0.0
O456 O 0.37755 0.75213 0.06684 0.0
C457 C 0.38564 0.76915 0.05584 0.0
O458 O 0.36333 0.64307 0.03562 0.0
O459 O 0.31886 0.62318 0.0202 0.0
C460 C 0.38777 0.65313 0.06055 0.0
C461 C 0.34184 0.61742 0.02704 0.0
Zn462 Zn 0.34606 0.67078 0.56081 0.0
Zn463 Zn 0.33158 0.6629 0.51229 0.0
Zn464 Zn 0.33783 0.66668 0.53522 0.0
C465 C 0.37771 0.73876 0.51517 0.0
C466 C 0.25803 0.63159 0.51878 0.0
O467 O 0.36685 0.63402 0.54103 0.0
O468 O 0.37018 0.63859 0.56274 0.0
C469 C 0.38649 0.7464 0.55165 0.0
O470 O 0.36512 0.72686 0.52692 0.0
O471 O 0.3722 0.71434 0.5064 0.0
O472 O 0.2784 0.6517 0.50925 0.0
O473 O 0.27478 0.63159 0.52964 0.0
O474 O 0.38005 0.72735 0.56217 0.0
O475 O 0.37221 0.72901 0.54066 0.0
O476 O 0.27852 0.64043 0.54361 0.0
O477 O 0.29029 0.64823 0.56497 0.0
C478 C 0.26641 0.63739 0.55555 0.0
O479 O 0.36957 0.63848 0.52689 0.0
O480 O 0.34122 0.6209 0.50757 0.0
C481 C 0.37616 0.62579 0.55222 0.0
C482 C 0.36539 0.6216 0.5157 0.0
Zn483 Zn 0.33258 0.67583 0.29196 0.0
Zn484 Zn 0.33332 0.67183 0.34185 0.0
Zn485 Zn 0.33352 0.67288 0.31806 0.0
C486 C 0.40953 0.71413 0.33688 0.0
C487 C 0.30115 0.59609 0.33599 0.0
O488 O 0.29822 0.69936 0.31187 0.0
O489 O 0.3002 0.7003 0.29011 0.0
C490 C 0.41043 0.71834 0.30009 0.0
O491 O 0.39517 0.70131 0.32536 0.0
O492 O 0.3872 0.70968 0.34629 0.0
O493 O 0.31818 0.61803 0.3456 0.0
O494 O 0.30185 0.611 0.32465 0.0
O495 O 0.38963 0.70837 0.28986 0.0
O496 O 0.39465 0.70718 0.31151 0.0
O497 O 0.30608 0.61228 0.31078 0.0
O498 O 0.30783 0.61895 0.28914 0.0
C499 C 0.29945 0.59741 0.29916 0.0
O500 O 0.30547 0.70539 0.32572 0.0
O501 O 0.29539 0.68711 0.34649 0.0
C502 C 0.28807 0.70691 0.30069 0.0
C503 C 0.2921 0.7061 0.33719 0.0
H504 H 0.20527 0.14275 0.23534 0.0
H505 H 0.23417 0.24799 0.21449 0.0
H506 H 0.1812 0.10612 0.21515 0.0
H507 H 0.21267 0.21197 0.19391 0.0
H508 H 0.10951 0.12433 0.16784 0.0
H509 H 0.15731 0.17115 0.1828 0.0
H510 H 0.18843 0.08657 0.19486 0.0
H511 H 0.13769 0.03884 0.18063 0.0
C512 C 0.20708 0.15814 0.22633 0.0
C513 C 0.22093 0.19806 0.22652 0.0
C514 C 0.19381 0.13722 0.21463 0.0
C515 C 0.19491 0.15581 0.20268 0.0
C516 C 0.21049 0.19626 0.20285 0.0
C517 C 0.2229 0.21702 0.21466 0.0
C518 C 0.12803 0.11644 0.17317 0.0
C519 C 0.1196 0.07791 0.17325 0.0
C520 C 0.15543 0.14331 0.18193 0.0
C521 C 0.17571 0.13229 0.19063 0.0
C522 C 0.17201 0.09563 0.18886 0.0
C523 C 0.1437 0.06845 0.18041 0.0
H524 H 0.77455 0.00593 0.22276 0.0
H525 H 0.88135 0.0741 0.24418 0.0
H526 H 0.81034 0.02425 0.20209 0.0
H527 H 0.91766 0.09025 0.22379 0.0
H528 H 0.98321 0.12354 0.18827 0.0
H529 H 0.93755 0.12278 0.20428 0.0
H530 H 0.84928 0.01107 0.18948 0.0
H531 H 0.89403 0.01396 0.17289 0.0
C532 C 0.80582 0.02453 0.22303 0.0
C533 C 0.82527 0.03826 0.23507 0.0
C534 C 0.82644 0.03508 0.21116 0.0
C535 C 0.86717 0.05885 0.21109 0.0
C536 C 0.88635 0.07281 0.22324 0.0
C537 C 0.86562 0.06306 0.23503 0.0
C538 C 0.95332 0.10003 0.188 0.0
C539 C 0.94218 0.06866 0.17946 0.0
C540 C 0.92731 0.09899 0.1974 0.0
C541 C 0.89012 0.06589 0.19872 0.0
C542 C 0.87758 0.03701 0.18896 0.0
C543 C 0.90327 0.03872 0.1793 0.0
H544 H 0.01335 0.81893 0.22941 0.0
H545 H 0.8891 0.76064 0.23459 0.0
H546 H 0.00734 0.84916 0.20925 0.0
H547 H 0.88288 0.78928 0.21433 0.0
H548 H 0.90144 0.90203 0.19425 0.0
H549 H 0.89709 0.85258 0.20912 0.0
H550 H 0.98495 0.84524 0.18668 0.0
H551 H -0.01058 0.89566 0.17179 0.0
C552 C 0.98475 0.81204 0.22612 0.0
C553 C 0.95185 0.78817 0.23377 0.0
C554 C 0.98119 0.82903 0.21449 0.0
C555 C 0.94459 0.82206 0.2102 0.0
C556 C 0.91159 0.79609 0.21746 0.0
C557 C 0.9152 0.77967 0.22911 0.0
C558 C 0.91845 0.88849 0.19212 0.0
C559 C 0.94566 0.90257 0.18187 0.0
C560 C 0.91618 0.86018 0.20071 0.0
C561 C 0.94125 0.84531 0.19929 0.0
C562 C 0.96575 0.8566 0.18821 0.0
C563 C 0.96777 0.88488 0.17951 0.0
H564 H 0.26476 0.23816 0.30788 0.0
H565 H 0.16514 0.13892 0.29079 0.0
H566 H 0.24668 0.20706 0.32961 0.0
H567 H 0.14785 0.10759 0.31231 0.0
H568 H 0.1256 0.05028 0.35009 0.0
H569 H 0.17195 0.08192 0.33212 0.0
H570 H 0.18229 0.19124 0.34252 0.0
H571 H 0.13517 0.15933 0.36015 0.0
C572 C 0.23967 0.20929 0.30871 0.0
C573 C 0.2161 0.19105 0.29768 0.0
C574 C 0.22941 0.19155 0.32112 0.0
C575 C 0.19609 0.15482 0.32262 0.0
C576 C 0.17405 0.13564 0.31142 0.0
C577 C 0.18371 0.15372 0.29912 0.0
C578 C 0.13964 0.08147 0.34903 0.0
C579 C 0.12702 0.10249 0.35648 0.0
C580 C 0.16578 0.09948 0.33865 0.0
C581 C 0.18021 0.13888 0.33582 0.0
C582 C 0.17178 0.16089 0.3445 0.0
C583 C 0.14501 0.14272 0.35467 0.0
H584 H 0.8144 0.96899 0.31077 0.0
H585 H 0.82067 0.07991 0.30921 0.0
H586 H 0.84456 0.9847 0.33237 0.0
H587 H 0.8518 0.09605 0.33097 0.0
H588 H 0.9691 0.11112 0.35287 0.0
H589 H 0.91928 0.10721 0.33803 0.0
H590 H 0.83527 -0.00081 0.3561 0.0
H591 H 0.88538 0.00325 0.37088 0.0
C592 C 0.822 -0.00333 0.3151 0.0
C593 C 0.81551 0.02335 0.30823 0.0
C594 C 0.83878 0.00548 0.32757 0.0
C595 C 0.85005 0.04143 0.33346 0.0
C596 C 0.84304 0.068 0.32672 0.0
C597 C 0.82542 0.05881 0.31427 0.0
C598 C 0.93935 0.08811 0.35433 0.0
C599 C 0.93103 0.05732 0.36291 0.0
C600 C 0.91081 0.08561 0.34571 0.0
C601 C 0.87375 0.05223 0.34565 0.0
C602 C 0.86385 0.0249 0.35581 0.0
C603 C 0.89238 0.02753 0.36443 0.0
H604 H 0.92998 0.75453 0.31127 0.0
H605 H 0.03989 0.85306 0.29976 0.0
H606 H 0.9293 0.78953 0.33092 0.0
H607 H 0.03921 0.88774 0.31931 0.0
H608 H 0.04864 0.93381 0.35869 0.0
H609 H 0.04351 0.88372 0.34379 0.0
H610 H 0.92442 0.84993 0.33552 0.0
H611 H 0.92968 0.90005 0.35066 0.0
C612 C 0.95405 0.78356 0.31296 0.0
C613 C 0.98501 0.80111 0.30396 0.0
C614 C 0.95359 0.80353 0.3242 0.0
C615 C 0.98438 0.84114 0.32674 0.0
C616 C 0.0154 0.85847 0.31776 0.0
C617 C 0.01564 0.83877 0.30649 0.0
C618 C 0.02081 0.91432 0.3542 0.0
C619 C -0.01058 0.92032 0.35587 0.0
C620 C 0.01803 0.88608 0.34552 0.0
C621 C 0.98386 0.86357 0.33827 0.0
C622 C 0.9511 0.86685 0.34099 0.0
C623 C 0.95393 0.89524 0.34973 0.0
H624 H 0.83693 0.90285 0.78123 0.0
H625 H 0.77982 0.78897 0.79894 0.0
H626 H 0.85894 0.932 0.80265 0.0
H627 H 0.80118 0.81849 0.8207 0.0
H628 H 0.90055 0.89329 0.8518 0.0
H629 H 0.85857 0.85312 0.83402 0.0
H630 H 0.83817 0.9455 0.82269 0.0
H631 H 0.88203 0.98618 0.84002 0.0
C632 C 0.82887 0.88395 0.78973 0.0
C633 C 0.80664 0.84353 0.78832 0.0
C634 C 0.84104 0.90075 0.80211 0.0
C635 C 0.83111 0.87773 0.81353 0.0
C636 C 0.80929 0.83715 0.81214 0.0
C637 C 0.7972 0.82022 0.79966 0.0
C638 C 0.88538 0.90415 0.84595 0.0
C639 C 0.89464 0.94285 0.84719 0.0
C640 C 0.86156 0.88124 0.83563 0.0
C641 C 0.8462 0.89662 0.82656 0.0
C642 C 0.85076 0.93326 0.82916 0.0
C643 C 0.87517 0.95635 0.83928 0.0
H644 H 0.24942 0.01641 0.81256 0.0
H645 H 0.14795 0.9586 0.7878 0.0
H646 H 0.2082 -0.00469 0.83207 0.0
H647 H 0.10662 0.9394 0.80707 0.0
H648 H 0.03198 0.9005 0.84028 0.0
H649 H 0.08108 0.90206 0.8257 0.0
H650 H 0.16729 0.00968 0.84359 0.0
H651 H 0.11864 0.00602 0.85871 0.0
C652 C 0.21824 -0.00066 0.8113 0.0
C653 C 0.20187 0.98947 0.79865 0.0
C654 C 0.19453 0.98722 0.82249 0.0
C655 C 0.15382 0.96547 0.82129 0.0
C656 C 0.13772 0.95516 0.80856 0.0
C657 C 0.16143 0.96668 0.79742 0.0
C658 C 0.06198 0.92307 0.84159 0.0
C659 C 0.07159 0.95321 0.85054 0.0
C660 C 0.09004 0.92462 0.83301 0.0
C661 C 0.12792 0.95703 0.83296 0.0
C662 C 0.13853 0.98434 0.84317 0.0
C663 C 0.11062 0.98213 0.852 0.0
H664 H 0.0531 0.18963 0.79224 0.0
H665 H 0.98726 0.22651 0.81547 0.0
H666 H 0.07271 0.17046 0.81203 0.0
H667 H 0.00837 0.20881 0.83557 0.0
H668 H 0.00154 0.10814 0.86185 0.0
H669 H -0.00378 0.15293 0.84707 0.0
H670 H 0.10961 0.18754 0.83121 0.0
H671 H 0.11323 0.1403 0.8454 0.0
C672 C 0.0432 0.19411 0.80163 0.0
C673 C 0.01825 0.20913 0.80227 0.0
C674 C 0.05499 0.18367 0.81307 0.0
C675 C 0.04263 0.18847 0.82554 0.0
C676 C 0.0183 0.20441 0.82618 0.0
C677 C 0.0061 0.21446 0.81466 0.0
C678 C 0.02621 0.12683 0.8557 0.0
C679 C 0.0574 0.12026 0.85452 0.0
C680 C 0.02306 0.15245 0.84709 0.0
C681 C 0.05167 0.17256 0.83745 0.0
C682 C 0.08616 0.17113 0.83807 0.0
C683 C 0.08875 0.14474 0.84641 0.0
H684 H 0.87245 0.81783 0.72651 0.0
H685 H 0.76639 0.78323 0.70516 0.0
H686 H 0.90795 0.8331 0.706 0.0
H687 H 0.80149 0.79656 0.68439 0.0
H688 H 0.89335 0.89732 0.65765 0.0
H689 H 0.844 0.85064 0.67225 0.0
H690 H 0.92457 0.81635 0.68624 0.0
H691 H 0.97476 0.86562 0.67223 0.0
C692 C 0.85662 0.8129 0.71738 0.0
C693 C 0.81684 0.8001 0.71746 0.0
C694 C 0.87685 0.82103 0.70552 0.0
C695 C 0.85772 0.81595 0.69338 0.0
C696 C 0.81742 0.80138 0.69349 0.0
C697 C 0.79728 0.79384 0.7054 0.0
C698 C 0.89978 0.87813 0.66324 0.0
C699 C 0.93806 0.88583 0.66418 0.0
C700 C 0.87146 0.85144 0.6718 0.0
C701 C 0.88093 0.83122 0.68105 0.0
C702 C 0.91688 0.83296 0.67976 0.0
C703 C 0.94546 0.86045 0.67147 0.0
H704 H 0.25127 0.11572 0.73219 0.0
H705 H 0.20321 -0.00581 0.72382 0.0
H706 H 0.22445 0.1238 0.71177 0.0
H707 H 0.17435 0.00168 0.70358 0.0
H708 H 0.12647 0.02054 0.66691 0.0
H709 H 0.17776 0.02685 0.68179 0.0
H710 H 0.16157 0.1069 0.70565 0.0
H711 H 0.1116 0.10096 0.69074 0.0
C712 C 0.23486 0.09064 0.72595 0.0
C713 C 0.22864 0.05413 0.72974 0.0
C714 C 0.21945 0.09528 0.71422 0.0
C715 C 0.19656 0.06333 0.70606 0.0
C716 C 0.19208 0.0271 0.70951 0.0
C717 C 0.20826 0.02263 0.72118 0.0
C718 C 0.13556 0.04104 0.67495 0.0
C719 C 0.11529 0.0604 0.67769 0.0
C720 C 0.16434 0.04407 0.68364 0.0
C721 C 0.17336 0.06672 0.69513 0.0
C722 C 0.15587 0.08933 0.69693 0.0
C723 C 0.1272 0.08616 0.68832 0.0
H724 H 0.93506 0.11205 0.7413 0.0
H725 H -0.00638 0.2232 0.72174 0.0
H726 H 0.92606 0.07971 0.72043 0.0
H727 H 0.98325 0.19056 0.70051 0.0
H728 H 0.00385 0.11265 0.67047 0.0
H729 H 0.00359 0.15469 0.68768 0.0
H730 H 0.89131 0.06271 0.70066 0.0
H731 H 0.8932 0.02007 0.68398 0.0
C732 C 0.94584 0.12962 0.73249 0.0
C733 C 0.96519 0.17021 0.73321 0.0
C734 C 0.94013 0.11101 0.72043 0.0
C735 C 0.95308 0.13236 0.70864 0.0
C736 C 0.97286 0.17312 0.70935 0.0
C737 C 0.97897 0.19185 0.72152 0.0
C738 C 0.97828 0.10211 0.6766 0.0
C739 C 0.94875 0.06305 0.67604 0.0
C740 C 0.97824 0.12615 0.68658 0.0
C741 C 0.94818 0.11162 0.69595 0.0
C742 C 0.91577 0.07436 0.69399 0.0
C743 C 0.91633 0.0501 0.68425 0.0
H744 H 0.87548 0.48872 0.56206 0.0
H745 H 0.91264 0.59241 0.53901 0.0
H746 H 0.85232 0.44979 0.54232 0.0
H747 H 0.89107 0.55353 0.51897 0.0
H748 H 0.81334 0.37895 0.50871 0.0
H749 H 0.86384 0.4286 0.52252 0.0
H750 H 0.83267 0.51135 0.50844 0.0
H751 H 0.78447 0.4623 0.494 0.0
C752 C 0.87927 0.50326 0.55271 0.0
C753 C 0.89535 0.54354 0.55212 0.0
C754 C 0.86649 0.48096 0.54129 0.0
C755 C 0.86996 0.49836 0.52891 0.0
C756 C 0.88745 0.53897 0.52829 0.0
C757 C 0.89981 0.56129 0.53978 0.0
C758 C 0.81912 0.40843 0.508 0.0
C759 C 0.79491 0.41684 0.50044 0.0
C760 C 0.84743 0.43675 0.51613 0.0
C761 C 0.85107 0.47354 0.51714 0.0
C762 C 0.83066 0.48336 0.50808 0.0
C763 C 0.80307 0.45524 0.49967 0.0
H764 H 0.44159 0.33563 0.54577 0.0
H765 H 0.54734 0.39976 0.56816 0.0
H766 H 0.47898 0.35455 0.5254 0.0
H767 H 0.5849 0.41691 0.54803 0.0
H768 H 0.65269 0.45311 0.5133 0.0
H769 H 0.60524 0.45188 0.52862 0.0
H770 H 0.51921 0.33969 0.51352 0.0
H771 H 0.56592 0.34271 0.49765 0.0
C772 C 0.47289 0.35357 0.54632 0.0
C773 C 0.49163 0.3659 0.55855 0.0
C774 C 0.49436 0.36449 0.53464 0.0
C775 C 0.53512 0.38745 0.53494 0.0
C776 C 0.55359 0.40012 0.54725 0.0
C777 C 0.5321 0.38979 0.55888 0.0
C778 C 0.62297 0.42931 0.51281 0.0
C779 C 0.613 0.39776 0.50447 0.0
C780 C 0.59593 0.42812 0.52177 0.0
C781 C 0.55886 0.39478 0.52281 0.0
C782 C 0.54746 0.36575 0.51317 0.0
C783 C 0.57426 0.36752 0.50396 0.0
H784 H 0.57421 0.0968 0.56078 0.0
H785 H 0.69863 0.15876 0.55601 0.0
H786 H 0.56714 0.12308 0.54008 0.0
H787 H 0.69186 0.18701 0.53547 0.0
H788 H 0.67347 0.23279 0.49801 0.0
H789 H 0.67069 0.18318 0.51294 0.0
H790 H 0.57826 0.18459 0.53454 0.0
H791 H 0.58084 0.233 0.5196 0.0
C792 C 0.60014 0.11612 0.55526 0.0
C793 C 0.63705 0.1264 0.56014 0.0
C794 C 0.59608 0.13123 0.54338 0.0
C795 C 0.6289 0.15784 0.53617 0.0
C796 C 0.66585 0.1664 0.54067 0.0
C797 C 0.66985 0.15053 0.55251 0.0
C798 C 0.65131 0.22089 0.50556 0.0
C799 C 0.62736 0.23666 0.50769 0.0
C800 C 0.65019 0.19304 0.51427 0.0
C801 C 0.62483 0.18034 0.52515 0.0
C802 C 0.59808 0.19326 0.5263 0.0
C803 C 0.59938 0.22105 0.51768 0.0
H804 H 0.79288 0.5295 0.61294 0.0
H805 H 0.90343 0.58168 0.63296 0.0
H806 H 0.75959 0.50574 0.6337 0.0
H807 H 0.86975 0.55867 0.65405 0.0
H808 H 0.78853 0.45824 0.68373 0.0
H809 H 0.83196 0.50076 0.66662 0.0
H810 H 0.74281 0.52409 0.65346 0.0
H811 H 0.69888 0.47966 0.6701 0.0
C812 C 0.81016 0.53616 0.62182 0.0
C813 C 0.85087 0.55747 0.62124 0.0
C814 C 0.79098 0.52296 0.63381 0.0
C815 C 0.81183 0.53094 0.64568 0.0
C816 C 0.85269 0.55198 0.64513 0.0
C817 C 0.87201 0.56506 0.63304 0.0
C818 C 0.77897 0.47401 0.67759 0.0
C819 C 0.7403 0.46548 0.67814 0.0
C820 C 0.80378 0.49819 0.66766 0.0
C821 C 0.79041 0.51471 0.65829 0.0
C822 C 0.75358 0.51062 0.66017 0.0
C823 C 0.7286 0.48583 0.66988 0.0
H824 H 0.49604 0.28086 0.62322 0.0
H825 H 0.45374 0.35245 0.6393 0.0
H826 H 0.51489 0.27207 0.64494 0.0
H827 H 0.47218 0.34291 0.66141 0.0
H828 H 0.57416 0.36138 0.69081 0.0
H829 H 0.52997 0.36115 0.67428 0.0
H830 H 0.49117 0.24127 0.66569 0.0
H831 H 0.53733 0.24264 0.68168 0.0
C832 C 0.49055 0.29464 0.63143 0.0
C833 C 0.47346 0.31749 0.62946 0.0
C834 C 0.50082 0.28904 0.64399 0.0
C835 C 0.49417 0.30592 0.65506 0.0
C836 C 0.47749 0.32926 0.65313 0.0
C837 C 0.46719 0.33496 0.64045 0.0
C838 C 0.55437 0.33426 0.68599 0.0
C839 C 0.55964 0.30226 0.68729 0.0
C840 C 0.52928 0.33425 0.67635 0.0
C841 C 0.50845 0.30176 0.66819 0.0
C842 C 0.50811 0.26734 0.67143 0.0
C843 C 0.53384 0.26771 0.68083 0.0
H844 H 0.63742 0.12383 0.63965 0.0
H845 H 0.7538 0.18871 0.62418 0.0
H846 H 0.6568 0.16741 0.65845 0.0
H847 H 0.77402 0.23095 0.64331 0.0
H848 H 0.76783 0.33145 0.66367 0.0
H849 H 0.76567 0.28138 0.64988 0.0
H850 H 0.69116 0.19458 0.67819 0.0
H851 H 0.69241 0.24553 0.69182 0.0
C852 C 0.66734 0.14704 0.64041 0.0
C853 C 0.69385 0.15347 0.63031 0.0
C854 C 0.6787 0.17179 0.65129 0.0
C855 C 0.71705 0.20312 0.65244 0.0
C856 C 0.74405 0.20783 0.64267 0.0
C857 C 0.73248 0.18362 0.63167 0.0
C858 C 0.75243 0.30183 0.66724 0.0
C859 C 0.72981 0.29228 0.67868 0.0
C860 C 0.75105 0.27285 0.65929 0.0
C861 C 0.72718 0.23355 0.66266 0.0
C862 C 0.70885 0.22445 0.67507 0.0
C863 C 0.71019 0.25367 0.68304 0.0
H864 H 0.42891 0.11351 0.13365 0.0
H865 H 0.48763 0.22669 0.11543 0.0
H866 H 0.45327 0.14349 0.15517 0.0
H867 H 0.51267 0.25629 0.13661 0.0
H868 H 0.54518 0.31235 0.17334 0.0
H869 H 0.49639 0.27202 0.1571 0.0
H870 H 0.51248 0.17621 0.16744 0.0
H871 H 0.55936 0.21612 0.18416 0.0
C872 C 0.44729 0.1447 0.13422 0.0
C873 C 0.45639 0.1677 0.12281 0.0
C874 C 0.46106 0.1619 0.14656 0.0
C875 C 0.48431 0.20243 0.14773 0.0
C876 C 0.49375 0.22514 0.13624 0.0
C877 C 0.47986 0.20807 0.124 0.0
C878 C 0.53628 0.28193 0.1727 0.0
C879 C 0.55591 0.26725 0.17993 0.0
C880 C 0.50902 0.259 0.1632 0.0
C881 C 0.50185 0.2214 0.16053 0.0
C882 C 0.51743 0.20508 0.16911 0.0
C883 C 0.54408 0.22785 0.17883 0.0
H884 H 0.91298 0.35319 0.14546 0.0
H885 H 0.81009 0.28194 0.12247 0.0
H886 H 0.87479 0.33052 0.16562 0.0
H887 H 0.77148 0.26096 0.14237 0.0
H888 H 0.70128 0.22061 0.17621 0.0
H889 H 0.75208 0.22576 0.16167 0.0
H890 H 0.83076 0.33959 0.17742 0.0
H891 H 0.78086 0.33267 0.19254 0.0
C892 C 0.8821 0.33285 0.14473 0.0
C893 C 0.86441 0.31967 0.13238 0.0
C894 C 0.86015 0.31977 0.1563 0.0
C895 C 0.81983 0.2937 0.15578 0.0
C896 C 0.80249 0.28016 0.14335 0.0
C897 C 0.82454 0.29268 0.13184 0.0
C898 C 0.73026 0.24552 0.17713 0.0
C899 C 0.73706 0.27649 0.18532 0.0
C900 C 0.75918 0.24904 0.16855 0.0
C901 C 0.79498 0.28405 0.16779 0.0
C902 C 0.80356 0.31234 0.17751 0.0
C903 C 0.77492 0.30825 0.18634 0.0
H904 H 0.75786 0.57495 0.126 0.0
H905 H 0.64146 0.52159 0.14155 0.0
H906 H 0.77763 0.55081 0.14472 0.0
H907 H 0.66055 0.49586 0.15995 0.0
H908 H 0.69518 0.45182 0.19278 0.0
H909 H 0.69609 0.50347 0.17964 0.0
H910 H 0.76694 0.48962 0.15053 0.0
H911 H 0.76704 0.43949 0.16382 0.0
C912 C 0.73647 0.55798 0.13342 0.0
C913 C 0.69793 0.54952 0.13219 0.0
C914 C 0.74782 0.54421 0.14418 0.0
C915 C 0.72071 0.52109 0.15385 0.0
C916 C 0.6825 0.51407 0.15286 0.0
C917 C 0.67132 0.52835 0.14219 0.0
C918 C 0.71252 0.46124 0.1839 0.0
C919 C 0.73024 0.44103 0.17913 0.0
C920 C 0.71253 0.49041 0.17625 0.0
C921 C 0.73035 0.49976 0.16377 0.0
C922 C 0.75266 0.48324 0.16001 0.0
C923 C 0.75272 0.4543 0.16764 0.0
H924 H 0.40398 0.12001 0.04139 0.0
H925 H 0.5104 0.13825 0.05903 0.0
H926 H 0.43769 0.1456 0.02057 0.0
H927 H 0.54434 0.16478 0.03834 0.0
H928 H 0.60273 0.21092 1.00112 0.0
H929 H 0.55465 0.15795 0.0149 0.0
H930 H 0.48434 0.21191 0.01507 0.0
H931 H 0.53204 0.26407 1.00143 0.0
C932 C 0.43453 0.12925 0.04079 0.0
C933 C 0.45479 0.12797 0.05192 0.0
C934 C 0.45377 0.14372 0.02885 0.0
C935 C 0.49373 0.15745 0.0278 0.0
C936 C 0.51344 0.15398 0.03874 0.0
C937 C 0.49412 0.13929 0.05067 0.0
C938 C 0.57595 0.21013 1.00357 0.0
C939 C 0.57092 0.2414 1.00036 0.0
C940 C 0.54871 0.18019 0.01159 0.0
C941 C 0.51611 0.18119 0.01632 0.0
C942 C 0.50896 0.21005 0.0116 0.0
C943 C 0.53626 0.24 1.00376 0.0
H944 H 0.88967 0.32081 0.05363 0.0
H945 H 0.86284 0.40846 0.06525 0.0
H946 H 0.86253 0.31836 0.03179 0.0
H947 H 0.83555 0.40563 0.0437 0.0
H948 H 0.79889 0.40915 1.00372 0.0
H949 H 0.84767 0.41872 0.02024 0.0
H950 H 0.79755 0.29469 0.02324 0.0
H951 H 0.74963 0.28548 1.00671 0.0
C952 C 0.87811 0.33959 0.05154 0.0
C953 C 0.87808 0.3645 0.06128 0.0
C954 C 0.86267 0.33828 0.03901 0.0
C955 C 0.84711 0.36203 0.03592 0.0
C956 C 0.848 0.38752 0.04558 0.0
C957 C 0.86319 0.3887 0.05807 0.0
C958 C 0.79968 0.38415 1.00742 0.0
C959 C 0.77041 0.34659 1.00402 0.0
C960 C 0.82717 0.38952 0.01705 0.0
C961 C 0.82589 0.35741 0.02334 0.0
C962 C 0.79951 0.3201 0.01867 0.0
C963 C 0.77202 0.31478 1.00915 0.0
H964 H 0.60433 0.4717 0.06429 0.0
H965 H 0.70288 0.58439 0.05533 0.0
H966 H 0.60781 0.4491 0.04256 0.0
H967 H 0.70609 0.56157 0.03328 0.0
H968 H 0.73238 0.47457 1.00975 0.0
H969 H 0.72492 0.51565 0.02559 0.0
H970 H 0.60112 0.45315 0.01876 0.0
H971 H 0.60887 0.41155 1.00287 0.0
C972 C 0.62663 0.49186 0.05764 0.0
C973 C 0.65376 0.52974 0.06167 0.0
C974 C 0.6282 0.479 0.04504 0.0
C975 C 0.65704 0.50356 0.0361 0.0
C976 C 0.68353 0.5419 0.03995 0.0
C977 C 0.6818 0.55492 0.05259 0.0
C978 C 0.70378 0.47076 1.01121 0.0
C979 C 0.67113 0.43968 1.00525 0.0
C980 C 0.69947 0.49436 0.02029 0.0
C981 C 0.66232 0.4871 0.02369 0.0
C982 C 0.63007 0.45894 0.01652 0.0
C983 C 0.63448 0.43544 1.00731 0.0
H984 H 0.56476 0.93075 0.87365 0.0
H985 H 0.53307 0.82026 0.89121 0.0
H986 H 0.54306 0.89982 0.85226 0.0
H987 H 0.50975 0.78889 0.86994 0.0
H988 H 0.47078 0.73443 0.8319 0.0
H989 H 0.52037 0.77755 0.8476 0.0
H990 H 0.48135 0.85993 0.84306 0.0
H991 H 0.43305 0.81738 0.82732 0.0
C992 C 0.55309 0.89978 0.87293 0.0
C993 C 0.54993 0.87779 0.88416 0.0
C994 C 0.54073 0.88205 0.86066 0.0
C995 C 0.52436 0.84176 0.85932 0.0
C996 C 0.52274 0.82005 0.87049 0.0
C997 C 0.5356 0.83792 0.88275 0.0
C998 C 0.4746 0.76285 0.83368 0.0
C999 C 0.44819 0.7727 0.82847 0.0
C1000 C 0.5024 0.78721 0.8429 0.0
C1001 C 0.50411 0.82172 0.84694 0.0
C1002 C 0.4811 0.83372 0.84027 0.0
C1003 C 0.45343 0.80941 0.83113 0.0
H1004 H 0.0913 0.63897 0.87893 0.0
H1005 H 0.20045 0.72883 0.89471 0.0
H1006 H 0.12157 0.646 0.85755 0.0
H1007 H 0.23123 0.73493 0.87343 0.0
H1008 H 0.20899 0.62134 0.83495 0.0
H1009 H 0.1656 0.6264 0.85037 0.0
H1010 H 0.23876 0.75119 0.85012 0.0
H1011 H 0.28265 0.74559 0.83461 0.0
C1012 C 0.1218 0.6603 0.87781 0.0
C1013 C 0.14374 0.68279 0.88856 0.0
C1014 C 0.13911 0.66442 0.86555 0.0
C1015 C 0.17891 0.69078 0.86377 0.0
C1016 C 0.2004 0.71469 0.87437 0.0
C1017 C 0.18292 0.71086 0.88663 0.0
C1018 C 0.21465 0.64992 0.83768 0.0
C1019 C 0.24893 0.68305 0.83366 0.0
C1020 C 0.18986 0.65292 0.84658 0.0
C1021 C 0.19909 0.68921 0.85171 0.0
C1022 C 0.23125 0.72279 0.84652 0.0
C1023 C 0.25602 0.71971 0.83749 0.0
H1024 H 0.27222 0.48939 0.89884 0.0
H1025 H 0.36161 0.46375 0.88834 0.0
H1026 H 0.27643 0.51662 0.87714 0.0
H1027 H 0.3654 0.49069 0.86639 0.0
H1028 H 0.3986 0.60055 0.84002 0.0
H1029 H 0.3889 0.55479 0.85742 0.0
H1030 H 0.26473 0.50391 0.85365 0.0
H1031 H 0.27479 0.55055 0.83622 0.0
C1032 C 0.29269 0.48934 0.89188 0.0
C1033 C 0.31691 0.47471 0.89544 0.0
C1034 C 0.29468 0.50451 0.87932 0.0
C1035 C 0.32099 0.50558 0.86993 0.0
C1036 C 0.34488 0.49045 0.8734 0.0
C1037 C 0.34281 0.47511 0.88599 0.0
C1038 C 0.36918 0.57852 0.84253 0.0
C1039 C 0.33746 0.57925 0.83685 0.0
C1040 C 0.36358 0.55225 0.85255 0.0
C1041 C 0.32606 0.5262 0.85717 0.0
C1042 C 0.29408 0.52419 0.8505 0.0
C1043 C 0.29974 0.55044 0.84037 0.0
H1044 H 0.57789 0.89242 0.96435 0.0
H1045 H 0.46295 0.86912 0.95419 0.0
H1046 H 0.55504 0.86643 0.98636 0.0
H1047 H 0.44004 0.84251 0.97603 0.0
H1048 H 0.40574 0.80881 0.0172 0.0
H1049 H 0.44223 0.85497 0.99957 0.0
H1050 H 0.51358 0.80287 0.99535 0.0
H1051 H 0.47761 0.75762 0.01291 0.0
C1052 C 0.54775 0.88173 0.96678 0.0
C1053 C 0.52218 0.88248 0.95741 0.0
C1054 C 0.53468 0.86693 0.97943 0.0
C1055 C 0.49571 0.8525 0.98303 0.0
C1056 C 0.4704 0.85404 0.97373 0.0
C1057 C 0.48345 0.86883 0.96111 0.0
C1058 C 0.43043 0.8086 0.0129 0.0
C1059 C 0.43882 0.77963 0.01635 0.0
C1060 C 0.45093 0.83454 1.00266 0.0
C1061 C 0.48028 0.83205 0.99581 0.0
C1062 C 0.4913 0.80581 1.00035 0.0
C1063 C 0.47072 0.77985 1.01047 0.0
H1064 H 0.13135 0.70236 0.96869 0.0
H1065 H 0.15986 0.61421 0.95956 0.0
H1066 H 0.15528 0.70614 0.99113 0.0
H1067 H 0.18394 0.61832 0.98175 0.0
H1068 H 0.26722 0.7402 0.01738 0.0
H1069 H 0.2197 0.73033 1.00061 0.0
H1070 H 0.16723 0.60639 1.00516 0.0
H1071 H 0.21554 0.61663 0.02193 0.0
C1072 C 0.14269 0.68382 0.97144 0.0
C1073 C 0.14409 0.65831 0.96226 0.0
C1074 C 0.15616 0.68582 0.98432 0.0
C1075 C 0.17106 0.66218 0.9883 0.0
C1076 C 0.17179 0.63627 0.97915 0.0
C1077 C 0.15855 0.6344 0.96632 0.0
C1078 C 0.2442 0.71088 0.0153 0.0
C1079 C 0.24513 0.67916 0.02082 0.0
C1080 C 0.21701 0.70517 1.00562 0.0
C1081 C 0.19042 0.66757 1.00127 0.0
C1082 C 0.188 0.63575 1.00812 0.0
C1083 C 0.21519 0.64153 0.01789 0.0
H1084 H 0.30193 0.42484 0.9787 0.0
H1085 H 0.38917 0.53309 0.96157 0.0
H1086 H 0.30965 0.45691 0.99974 0.0
H1087 H 0.3959 0.56564 0.98249 0.0
H1088 H 0.28583 0.54364 0.0229 0.0
H1089 H 0.29014 0.50003 1.00743 0.0
H1090 H 0.41454 0.57614 1.00538 0.0
H1091 H 0.40967 0.62037 0.02085 0.0
C1092 C 0.32278 0.45554 0.97943 0.0
C1093 C 0.34444 0.4766 0.96841 0.0
C1094 C 0.32727 0.47393 0.99151 0.0
C1095 C 0.3532 0.51397 0.99285 0.0
C1096 C 0.37605 0.53468 0.98193 0.0
C1097 C 0.37185 0.51615 0.96987 0.0
C1098 C 0.31431 0.55004 0.01965 0.0
C1099 C 0.34737 0.58529 0.02301 0.0
C1100 C 0.31686 0.52509 1.0107 0.0
C1101 C 0.35262 0.53496 1.00487 0.0
C1102 C 0.38643 0.56811 1.00946 0.0
C1103 C 0.38382 0.59309 0.01852 0.0
H1104 H 0.15737 0.5601 0.45077 0.0
H1105 H 0.10304 0.44532 0.46779 0.0
H1106 H 0.17851 0.58832 0.47233 0.0
H1107 H 0.12424 0.47409 0.48972 0.0
H1108 H 0.19999 0.64121 0.50933 0.0
H1109 H 0.15425 0.59809 0.49284 0.0
H1110 H 0.18486 0.51171 0.50244 0.0
H1111 H 0.22913 0.55434 0.51935 0.0
C1112 C 0.14978 0.54075 0.45913 0.0
C1113 C 0.12846 0.50034 0.45748 0.0
C1114 C 0.16148 0.55704 0.47159 0.0
C1115 C 0.15223 0.53354 0.48286 0.0
C1116 C 0.13155 0.49302 0.48126 0.0
C1117 C 0.11963 0.47657 0.46869 0.0
C1118 C 0.19492 0.612 0.50852 0.0
C1119 C 0.21824 0.60119 0.51551 0.0
C1120 C 0.16936 0.58755 0.49887 0.0
C1121 C 0.16728 0.55219 0.4959 0.0
C1122 C 0.18602 0.53889 0.50435 0.0
C1123 C 0.21112 0.56319 0.51419 0.0
H1124 H 0.49747 0.59526 0.45412 0.0
H1125 H 0.56053 0.71199 0.4691 0.0
H1126 H 0.45642 0.57448 0.47355 0.0
H1127 H 0.51764 0.69218 0.48817 0.0
H1128 H 0.44199 0.65419 0.52266 0.0
H1129 H 0.49299 0.65978 0.508 0.0
H1130 H 0.40511 0.57776 0.48146 0.0
H1131 H 0.35515 0.57088 0.49636 0.0
C1132 C 0.50222 0.6166 0.46155 0.0
C1133 C 0.53171 0.6554 0.46 0.0
C1134 C 0.4786 0.60473 0.47272 0.0
C1135 C 0.483 0.63159 0.48249 0.0
C1136 C 0.51345 0.67031 0.48106 0.0
C1137 C 0.53781 0.68194 0.47002 0.0
C1138 C 0.43381 0.63591 0.51402 0.0
C1139 C 0.39455 0.61261 0.51054 0.0
C1140 C 0.46303 0.63975 0.50543 0.0
C1141 C 0.45346 0.62042 0.49321 0.0
C1142 C 0.41416 0.59337 0.49066 0.0
C1143 C 0.38518 0.58929 0.49928 0.0
H1144 H 0.30202 0.85684 0.47065 0.0
H1145 H 0.41938 0.90845 0.45623 0.0
H1146 H 0.31935 0.83135 0.48968 0.0
H1147 H 0.43764 0.88553 0.47559 0.0
H1148 H 0.43003 0.77861 0.49615 0.0
H1149 H 0.42863 0.82672 0.48219 0.0
H1150 H 0.35175 0.837 0.50967 0.0
H1151 H 0.35216 0.78699 0.52346 0.0
C1152 C 0.33169 0.86326 0.4717 0.0
C1153 C 0.35908 0.88364 0.46182 0.0
C1154 C 0.34188 0.84915 0.4827 0.0
C1155 C 0.37995 0.85594 0.48419 0.0
C1156 C 0.40783 0.87869 0.47466 0.0
C1157 C 0.39738 0.89185 0.46354 0.0
C1158 C 0.41417 0.79236 0.4995 0.0
C1159 C 0.39065 0.77858 0.51074 0.0
C1160 C 0.41325 0.82011 0.49146 0.0
C1161 C 0.38904 0.83509 0.49454 0.0
C1162 C 0.36971 0.82516 0.50676 0.0
C1163 C 0.37056 0.79709 0.51483 0.0
H1164 H 0.1115 0.48456 0.37862 0.0
H1165 H 0.16793 0.42351 0.39266 0.0
H1166 H 0.15313 0.50592 0.35939 0.0
H1167 H 0.20859 0.44325 0.37302 0.0
H1168 H 0.31304 0.55173 0.35325 0.0
H1169 H 0.26205 0.5013 0.36635 0.0
H1170 H 0.17634 0.49676 0.33921 0.0
H1171 H 0.22813 0.54888 0.32633 0.0
C1172 C 0.13237 0.47508 0.37745 0.0
C1173 C 0.13706 0.45311 0.38729 0.0
C1174 C 0.15596 0.48685 0.36628 0.0
C1175 C 0.18454 0.4765 0.36457 0.0
C1176 C 0.18746 0.45241 0.37408 0.0
C1177 C 0.16422 0.44114 0.38536 0.0
C1178 C 0.28342 0.53863 0.34973 0.0
C1179 C 0.27438 0.55492 0.33904 0.0
C1180 C 0.25392 0.50957 0.35728 0.0
C1181 C 0.21477 0.49598 0.35419 0.0
C1182 C 0.20615 0.50768 0.34216 0.0
C1183 C 0.23585 0.53704 0.33462 0.0
H1184 H 0.59794 0.77811 0.3906 0.0
H1185 H 0.53168 0.6539 0.38593 0.0
H1186 H 0.56991 0.78625 0.37045 0.0
H1187 H 0.50203 0.66183 0.366 0.0
H1188 H 0.45134 0.68004 0.33017 0.0
H1189 H 0.50369 0.68293 0.34364 0.0
H1190 H 0.50823 0.777 0.36595 0.0
H1191 H 0.45694 0.77423 0.35244 0.0
C1192 C 0.57743 0.75247 0.38521 0.0
C1193 C 0.56643 0.71531 0.38999 0.0
C1194 C 0.56131 0.75715 0.37364 0.0
C1195 C 0.53313 0.72476 0.36665 0.0
C1196 C 0.52388 0.68754 0.37101 0.0
C1197 C 0.54059 0.68289 0.38252 0.0
C1198 C 0.46514 0.70265 0.3375 0.0
C1199 C 0.4501 0.72685 0.34032 0.0
C1200 C 0.49458 0.70383 0.3454 0.0
C1201 C 0.50963 0.72952 0.35614 0.0
C1202 C 0.49767 0.75684 0.35781 0.0
C1203 C 0.46825 0.75546 0.35 0.0
H1204 H 0.23966 0.83451 0.39212 0.0
H1205 H 0.3635 0.88634 0.38743 0.0
H1206 H 0.22892 0.79945 0.37161 0.0
H1207 H 0.35282 0.84973 0.36706 0.0
H1208 H 0.32938 0.78254 0.33063 0.0
H1209 H 0.33033 0.83296 0.3445 0.0
H1210 H 0.23394 0.74458 0.36683 0.0
H1211 H 0.23302 0.69504 0.35295 0.0
C1212 C 0.26467 0.83852 0.38664 0.0
C1213 C 0.30243 0.86252 0.39152 0.0
C1214 C 0.25849 0.81841 0.37486 0.0
C1215 C 0.28989 0.82111 0.36775 0.0
C1216 C 0.32788 0.84711 0.37219 0.0
C1217 C 0.3341 0.86787 0.38393 0.0
C1218 C 0.30709 0.77426 0.33805 0.0
C1219 C 0.28122 0.73496 0.34079 0.0
C1220 C 0.30811 0.80306 0.34617 0.0
C1221 C 0.28291 0.79288 0.35702 0.0
C1222 C 0.25383 0.75378 0.3586 0.0
C1223 C 0.25306 0.72518 0.35058 0.0
H1224 H 0.28798 0.14975 0.09477 0.0
H1225 H 0.26879 0.03959 0.10914 0.0
H1226 H 0.2307 0.13976 0.10637 0.0
H1227 H 0.21039 0.02923 0.12061 0.0
H1228 H 0.1232 0.03782 0.14782 0.0
H1229 H 0.18709 0.05463 0.13902 0.0
H1230 H 0.16159 0.09642 0.10334 0.0
H1231 H 0.09883 0.08041 0.11213 0.0
C1232 C 0.2714 0.1232 0.10033 0.0
C1233 C 0.28282 0.09525 0.10089 0.0
C1234 C 0.23853 0.11755 0.10701 0.0
C1235 C 0.21601 0.08372 0.11439 0.0
C1236 C 0.22749 0.05583 0.11512 0.0
C1237 C 0.26061 0.06153 0.10842 0.0
C1238 C 0.13186 0.05159 0.13827 0.0
C1239 C 0.10617 0.05789 0.13065 0.0
C1240 C 0.1681 0.06067 0.13316 0.0
C1241 C 0.17922 0.0766 0.12046 0.0
C1242 C 0.15411 0.08452 0.11319 0.0
C1243 C 0.11806 0.07523 0.11822 0.0
H1244 H 0.94142 0.22099 0.09246 0.0
H1245 H 0.97687 0.27903 0.12994 0.0
H1246 H 0.9381 0.16362 0.1021 0.0
H1247 H 0.97104 0.22104 0.13988 0.0
H1248 H -0.00526 0.12273 0.15027 0.0
H1249 H -0.00425 0.18077 0.14245 0.0
H1250 H 0.90238 0.11093 0.11541 0.0
H1251 H 0.90367 0.05359 0.12266 0.0
C1252 C 0.94855 0.22145 0.10277 0.0
C1253 C 0.95973 0.25464 0.11039 0.0
C1254 C 0.94603 0.18828 0.1084 0.0
C1255 C 0.95364 0.18704 0.12191 0.0
C1256 C 0.96539 0.22067 0.12945 0.0
C1257 C 0.96876 0.25409 0.12373 0.0
C1258 C 0.97371 0.11976 0.14293 0.0
C1259 C 0.94919 0.08371 0.13705 0.0
C1260 C 0.97435 0.15315 0.13835 0.0
C1261 C 0.94984 0.15107 0.12798 0.0
C1262 C 0.92282 0.11421 0.12301 0.0
C1263 C 0.92291 0.08108 0.12736 0.0
H1264 H 0.79366 0.73664 0.09571 0.0
H1265 H 0.73215 0.70814 0.13266 0.0
H1266 H 0.84811 0.79317 0.10578 0.0
H1267 H 0.78739 0.76322 0.14302 0.0
H1268 H 0.87753 0.8917 0.15241 0.0
H1269 H 0.82293 0.83006 0.14512 0.0
H1270 H 0.90019 0.81298 0.11992 0.0
H1271 H 0.95381 0.87589 0.12661 0.0
C1272 C 0.79182 0.74251 0.106 0.0
C1273 C 0.75853 0.71813 0.11335 0.0
C1274 C 0.82333 0.77461 0.11188 0.0
C1275 C 0.82271 0.78266 0.12535 0.0
C1276 C 0.78901 0.75839 0.13263 0.0
C1277 C 0.75723 0.72674 0.12667 0.0
C1278 C 0.88288 0.87394 0.14569 0.0
C1279 C 0.9197 0.88825 0.14008 0.0
C1280 C 0.85155 0.83864 0.1414 0.0
C1281 C 0.85672 0.8168 0.13158 0.0
C1282 C 0.89464 0.82955 0.12708 0.0
C1283 C 0.92563 0.86518 0.13113 0.0
H1284 H 0.00578 0.29522 0.39603 0.0
H1285 H 0.01045 0.27541 0.43754 0.0
H1286 H -0.00733 0.23015 0.39129 0.0
H1287 H -0.00599 0.20906 0.43303 0.0
H1288 H 0.02991 0.12383 0.42043 0.0
H1289 H 0.02763 0.18118 0.4255 0.0
H1290 H 0.95662 0.163 0.39105 0.0
H1291 H 0.96114 0.10594 0.38551 0.0
C1292 C 0.00274 0.27637 0.40418 0.0
C1293 C 0.00972 0.29041 0.41714 0.0
C1294 C -0.00505 0.23886 0.40148 0.0
C1295 C -0.00695 0.21425 0.41173 0.0
C1296 C -0.00328 0.22749 0.4248 0.0
C1297 C 0.00575 0.2654 0.42745 0.0
C1298 C 0.0134 0.13166 0.41395 0.0
C1299 C -0.00424 0.1102 0.40251 0.0
C1300 C 0.01171 0.16463 0.41697 0.0
C1301 C -0.00842 0.17695 0.40881 0.0
C1302 C 0.97286 0.15484 0.39751 0.0
C1303 C 0.97524 0.12197 0.39433 0.0
H1304 H 0.72806 0.74112 0.40274 0.0
H1305 H 0.75898 0.82117 0.43512 0.0
H1306 H 0.79459 0.77932 0.39413 0.0
H1307 H 0.82503 0.85845 0.42672 0.0
H1308 H 0.94638 0.89943 0.41662 0.0
H1309 H 0.88267 0.8463 0.42284 0.0
H1310 H 0.8369 0.85348 0.38515 0.0
H1311 H 0.90115 0.90724 0.37884 0.0
C1312 C 0.74919 0.76643 0.40813 0.0
C1313 C 0.73839 0.77817 0.41962 0.0
C1314 C 0.78707 0.78832 0.40315 0.0
C1315 C 0.81492 0.82163 0.40981 0.0
C1316 C 0.80426 0.83263 0.42147 0.0
C1317 C 0.76641 0.81137 0.42626 0.0
C1318 C 0.92308 0.88899 0.40948 0.0
C1319 C 0.92859 0.908 0.39733 0.0
C1320 C 0.88658 0.85862 0.41307 0.0
C1321 C 0.85478 0.84639 0.40459 0.0
C1322 C 0.86102 0.86247 0.39188 0.0
C1323 C 0.89778 0.89314 0.38826 0.0
H1324 H 0.29669 0.02886 0.41949 0.0
H1325 H 0.19038 0.91898 0.41508 0.0
H1326 H 0.26571 0.06165 0.40885 0.0
H1327 H 0.16023 0.95145 0.40421 0.0
H1328 H 0.12191 0.01055 0.37694 0.0
H1329 H 0.17199 -0.00558 0.38218 0.0
H1330 H 0.20217 0.06483 0.41713 0.0
H1331 H 0.1515 0.08 0.41211 0.0
C1332 C 0.26688 0.01176 0.41619 0.0
C1333 C 0.24577 0.97144 0.41825 0.0
C1334 C 0.24936 0.03045 0.41005 0.0
C1335 C 0.21093 0.0089 0.40552 0.0
C1336 C 0.19017 0.9686 0.40738 0.0
C1337 C 0.20725 0.95012 0.41379 0.0
C1338 C 0.14056 0.0241 0.38537 0.0
C1339 C 0.13278 0.0462 0.3942 0.0
C1340 C 0.16894 0.01463 0.38842 0.0
C1341 C 0.19041 0.02801 0.40015 0.0
C1342 C 0.18605 0.05426 0.40803 0.0
C1343 C 0.15714 0.06299 0.40514 0.0
H1344 H 0.70919 0.97115 0.89038 0.0
H1345 H 0.72681 0.93933 0.92925 0.0
H1346 H 0.76319 0.96556 0.88214 0.0
H1347 H 0.78287 0.93665 0.92137 0.0
H1348 H 0.86589 0.90711 0.9045 0.0
H1349 H 0.80432 0.90262 0.90973 0.0
H1350 H 0.82855 0.99178 0.88084 0.0
H1351 H 0.88835 -0.00648 0.87499 0.0
C1352 C 0.72532 0.96386 0.89724 0.0
C1353 C 0.71396 0.95588 0.91048 0.0
C1354 C 0.75644 0.96066 0.89251 0.0
C1355 C 0.77769 0.95034 0.90099 0.0
C1356 C 0.76676 0.94347 0.91436 0.0
C1357 C 0.73495 0.94562 0.91899 0.0
C1358 C 0.85717 0.92464 0.89898 0.0
C1359 C 0.88172 0.95056 0.88934 0.0
C1360 C 0.82223 0.92276 0.90215 0.0
C1361 C 0.81164 0.94776 0.89607 0.0
C1362 C 0.8352 0.97184 0.88576 0.0
C1363 C 0.86962 0.97283 0.88233 0.0
H1364 H 0.07041 0.79073 0.93269 0.0
H1365 H 0.04433 0.73972 0.89399 0.0
H1366 H 0.06828 0.84654 0.92423 0.0
H1367 H 0.0453 0.79669 0.88518 0.0
H1368 H 0.00786 0.88608 0.87676 0.0
H1369 H 0.01446 0.83108 0.88319 0.0
H1370 H 0.09984 0.90242 0.91241 0.0
H1371 H 0.09018 0.95601 0.90664 0.0
C1372 C 0.06434 0.79163 0.92235 0.0
C1373 C 0.0571 0.7608 0.91404 0.0
C1374 C 0.06376 0.82395 0.91739 0.0
C1375 C 0.05719 0.82681 0.90389 0.0
C1376 C 0.04985 0.79563 0.89563 0.0
C1377 C 0.04931 0.76284 0.90068 0.0
C1378 C 0.02876 0.89006 0.88431 0.0
C1379 C 0.04848 0.92503 0.89124 0.0
C1380 C 0.03257 0.85848 0.88806 0.0
C1381 C 0.05699 0.86165 0.89862 0.0
C1382 C 0.07952 0.89811 0.90463 0.0
C1383 C 0.07471 0.9292 0.90116 0.0
H1384 H 0.25067 0.28505 0.91345 0.0
H1385 H 0.15818 0.30343 0.92638 0.0
H1386 H 0.20237 0.22258 0.90401 0.0
H1387 H 0.11062 0.24195 0.91685 0.0
H1388 H 0.0396 0.10912 0.91515 0.0
H1389 H 0.08705 0.17415 0.92225 0.0
H1390 H 0.15106 0.19255 0.88616 0.0
H1391 H 0.1034 0.12658 0.87909 0.0
C1392 C 0.22018 0.27585 0.91429 0.0
C1393 C 0.20838 0.29915 0.9208 0.0
C1394 C 0.19256 0.2403 0.90876 0.0
C1395 C 0.15267 0.22733 0.9097 0.0
C1396 C 0.14106 0.25087 0.91608 0.0
C1397 C 0.16847 0.28622 0.92155 0.0
C1398 C 0.06346 0.1272 0.90862 0.0
C1399 C 0.06763 0.11282 0.89652 0.0
C1400 C 0.09064 0.16454 0.91268 0.0
C1401 C 0.12291 0.18849 0.90479 0.0
C1402 C 0.12664 0.1746 0.89249 0.0
C1403 C 0.09907 0.13711 0.88835 0.0
H1404 H 0.98516 0.73848 0.60698 0.0
H1405 H 0.88879 0.73264 0.58553 0.0
H1406 H -0.00168 0.79973 0.61687 0.0
H1407 H 0.90151 0.79296 0.59553 0.0
H1408 H 0.96489 0.92295 0.6031 0.0
H1409 H 0.95107 0.86101 0.59421 0.0
H1410 H 0.96924 0.82627 0.63259 0.0
H1411 H 0.98427 0.88927 0.64147 0.0
C1412 C 0.96694 0.75029 0.60432 0.0
C1413 C 0.93609 0.73074 0.59539 0.0
C1414 C 0.97421 0.78512 0.6101 0.0
C1415 C 0.95091 0.80115 0.60699 0.0
C1416 C 0.92026 0.78163 0.59802 0.0
C1417 C 0.91296 0.74695 0.5923 0.0
C1418 C 0.96569 0.90206 0.6097 0.0
C1419 C 0.9753 0.9109 0.62304 0.0
C1420 C 0.95759 0.86644 0.6046 0.0
C1421 C 0.95899 0.83868 0.61269 0.0
C1422 C 0.96819 0.84722 0.62609 0.0
C1423 C 0.97617 0.88301 0.63123 0.0
H1424 H 0.30915 0.27412 0.61745 0.0
H1425 H 0.29912 0.17258 0.5987 0.0
H1426 H 0.25245 0.2329 0.63086 0.0
H1427 H 0.24179 0.13146 0.61187 0.0
H1428 H 0.14949 0.06153 0.6409 0.0
H1429 H 0.21648 0.1074 0.63405 0.0
H1430 H 0.18428 0.1938 0.62638 0.0
H1431 H 0.11836 0.14839 0.63329 0.0
C1432 C 0.29468 0.24303 0.6161 0.0
C1433 C 0.30838 0.22668 0.60687 0.0
C1434 C 0.26231 0.2194 0.62385 0.0
C1435 C 0.24271 0.17888 0.6225 0.0
C1436 C 0.25667 0.16252 0.61336 0.0
C1437 C 0.28917 0.18614 0.60565 0.0
C1438 C 0.15745 0.09089 0.63827 0.0
C1439 C 0.12918 0.1017 0.63757 0.0
C1440 C 0.19549 0.11694 0.63418 0.0
C1441 C 0.20551 0.15403 0.62946 0.0
C1442 C 0.17776 0.16567 0.63001 0.0
C1443 C 0.13996 0.13968 0.63397 0.0
H1444 H 0.73688 0.03515 0.62779 0.0
H1445 H 0.79852 0.07895 0.59117 0.0
H1446 H 0.79372 0.03764 0.63754 0.0
H1447 H 0.85472 0.0792 0.60058 0.0
H1448 H 0.96249 0.10746 0.62141 0.0
H1449 H 0.90608 0.11159 0.61487 0.0
H1450 H 0.83308 0.01087 0.63877 0.0
H1451 H 0.89034 0.00884 0.64595 0.0
C1452 C 0.76239 0.04453 0.62172 0.0
C1453 C 0.7632 0.0568 0.60869 0.0
C1454 C 0.7951 0.04595 0.62733 0.0
C1455 C 0.82933 0.05906 0.61997 0.0
C1456 C 0.82951 0.07007 0.60676 0.0
C1457 C 0.79704 0.06939 0.60125 0.0
C1458 C 0.93449 0.08716 0.62562 0.0
C1459 C 0.93068 0.05797 0.63422 0.0
C1460 C 0.90193 0.08893 0.62166 0.0
C1461 C 0.86453 0.06078 0.62589 0.0
C1462 C 0.86121 0.03317 0.63527 0.0
C1463 C 0.89407 0.03204 0.63948 0.0
H1464 H 0.94888 0.39252 0.43904 0.0
H1465 H 0.97362 0.50384 0.42388 0.0
H1466 H 0.89091 0.38444 0.4497 0.0
H1467 H 0.91545 0.49576 0.43475 0.0
H1468 H 0.77946 0.43103 0.43984 0.0
H1469 H 0.84481 0.45287 0.43193 0.0
H1470 H 0.86989 0.41104 0.46768 0.0
H1471 H 0.80394 0.38813 0.47543 0.0
C1472 C 0.942 0.41532 0.43798 0.0
C1473 C 0.96579 0.44873 0.43053 0.0
C1474 C 0.90901 0.41089 0.44425 0.0
C1475 C 0.89893 0.43969 0.4432 0.0
C1476 C 0.92255 0.47309 0.43572 0.0
C1477 C 0.95575 0.47762 0.42947 0.0
C1478 C 0.79925 0.42733 0.44614 0.0
C1479 C 0.78663 0.40777 0.45823 0.0
C1480 C 0.83674 0.44003 0.44164 0.0
C1481 C 0.86226 0.43319 0.44911 0.0
C1482 C 0.85058 0.4162 0.46165 0.0
C1483 C 0.81303 0.40359 0.46617 0.0
H1484 H 0.5983 0.54029 0.42 0.0
H1485 H 0.61699 0.58825 0.45908 0.0
H1486 H 0.59538 0.48216 0.42888 0.0
H1487 H 0.61113 0.52942 0.46816 0.0
H1488 H 0.65118 0.44312 0.47754 0.0
H1489 H 0.64379 0.49698 0.47065 0.0
H1490 H 0.56257 0.42511 0.44053 0.0
H1491 H 0.57232 0.37196 0.447 0.0
C1492 C 0.60137 0.53814 0.43051 0.0
C1493 C 0.60857 0.56898 0.43881 0.0
C1494 C 0.59919 0.50459 0.43567 0.0
C1495 C 0.60307 0.50073 0.44932 0.0
C1496 C 0.60902 0.53139 0.4576 0.0
C1497 C 0.61227 0.56521 0.4524 0.0
C1498 C 0.6308 0.43846 0.46973 0.0
C1499 C 0.61241 0.40339 0.46279 0.0
C1500 C 0.62656 0.46953 0.46569 0.0
C1501 C 0.60312 0.466 0.45479 0.0
C1502 C 0.58195 0.42957 0.44865 0.0
C1503 C 0.58694 0.3988 0.4525 0.0
H1504 H 0.43086 0.03641 0.46193 0.0
H1505 H 0.48041 0.0688 0.42308 0.0
H1506 H 0.48907 0.09024 0.47134 0.0
H1507 H 0.53775 0.12469 0.43226 0.0
H1508 H 0.64502 0.21557 0.4499 0.0
H1509 H 0.59431 0.15023 0.4441 0.0
H1510 H 0.52017 0.15576 0.47398 0.0
H1511 H 0.57218 0.21966 0.48032 0.0
C1512 C 0.45416 0.05552 0.45538 0.0
C1513 C 0.45104 0.0488 0.44176 0.0
C1514 C 0.48759 0.08654 0.46077 0.0
C1515 C 0.51841 0.11234 0.45264 0.0
C1516 C 0.51523 0.1052 0.43896 0.0
C1517 C 0.48213 0.07344 0.43361 0.0
C1518 C 0.61837 0.20192 0.45555 0.0
C1519 C 0.61234 0.22246 0.46552 0.0
C1520 C 0.58894 0.16477 0.45207 0.0
C1521 C 0.55238 0.1479 0.45821 0.0
C1522 C 0.54776 0.16737 0.46899 0.0
C1523 C 0.57767 0.20413 0.47271 0.0
H1524 H 0.74661 0.6311 0.76123 0.0
H1525 H 0.70705 0.64781 0.72359 0.0
H1526 H 0.74834 0.57538 0.75251 0.0
H1527 H 0.71138 0.59407 0.71452 0.0
H1528 H 0.6838 0.46907 0.70689 0.0
H1529 H 0.68522 0.52829 0.71339 0.0
H1530 H 0.78225 0.55655 0.73923 0.0
H1531 H 0.77839 0.49574 0.73339 0.0
C1532 C 0.73827 0.62278 0.75108 0.0
C1533 C 0.72634 0.64353 0.74315 0.0
C1534 C 0.73988 0.5912 0.74597 0.0
C1535 C 0.73063 0.58028 0.73267 0.0
C1536 C 0.71825 0.601 0.72481 0.0
C1537 C 0.71574 0.63193 0.73003 0.0
C1538 C 0.70613 0.48866 0.71365 0.0
C1539 C 0.73094 0.47799 0.71968 0.0
C1540 C 0.70692 0.52264 0.71746 0.0
C1541 C 0.73318 0.54701 0.72717 0.0
C1542 C 0.76054 0.53792 0.73216 0.0
C1543 C 0.75899 0.50349 0.72861 0.0
H1544 H 0.39854 0.19064 0.76787 0.0
H1545 H 0.4038 0.10162 0.74554 0.0
H1546 H 0.45838 0.2396 0.75775 0.0
H1547 H 0.46483 0.15114 0.73556 0.0
H1548 H 0.55575 0.25714 0.71155 0.0
H1549 H 0.49229 0.20793 0.72021 0.0
H1550 H 0.52602 0.25953 0.75878 0.0
H1551 H 0.58821 0.30869 0.75015 0.0
C1552 C 0.41266 0.18137 0.7609 0.0
C1553 C 0.39637 0.14202 0.75761 0.0
C1554 C 0.44711 0.20957 0.75509 0.0
C1555 C 0.46647 0.19934 0.74585 0.0
C1556 C 0.45037 0.16001 0.74254 0.0
C1557 C 0.41568 0.1316 0.74838 0.0
C1558 C 0.54915 0.25839 0.72179 0.0
C1559 C 0.57693 0.287 0.73013 0.0
C1560 C 0.51307 0.22989 0.7268 0.0
C1561 C 0.5041 0.22973 0.7402 0.0
C1562 C 0.53166 0.25897 0.74839 0.0
C1563 C 0.56748 0.28714 0.74343 0.0
H1564 H 0.82701 0.21536 0.76168 0.0
H1565 H 0.93103 0.30214 0.74209 0.0
H1566 H 0.78817 0.23293 0.74796 0.0
H1567 H 0.89211 0.31887 0.72813 0.0
H1568 H 0.81428 0.37387 0.72288 0.0
H1569 H 0.85643 0.35133 0.73119 0.0
H1570 H 0.76439 0.23268 0.72576 0.0
H1571 H 0.72183 0.2559 0.71754 0.0
C1572 C 0.8416 0.23813 0.75443 0.0
C1573 C 0.88221 0.25772 0.75313 0.0
C1574 C 0.81925 0.24779 0.74642 0.0
C1575 C 0.83697 0.27715 0.73687 0.0
C1576 C 0.87754 0.29636 0.73546 0.0
C1577 C 0.89988 0.28686 0.74352 0.0
C1578 C 0.80364 0.34299 0.72298 0.0
C1579 C 0.76508 0.31655 0.71954 0.0
C1580 C 0.82774 0.33 0.72777 0.0
C1581 C 0.81365 0.29016 0.72933 0.0
C1582 C 0.77587 0.26358 0.72487 0.0
C1583 C 0.75171 0.27674 0.71997 0.0
H1584 H 0.40784 0.28227 0.26493 0.0
H1585 H 0.37651 0.30658 0.22694 0.0
H1586 H 0.46115 0.27867 0.25495 0.0
H1587 H 0.42845 0.30072 0.21672 0.0
H1588 H 0.55381 0.32875 0.20653 0.0
H1589 H 0.49507 0.32782 0.21365 0.0
H1590 H 0.474 0.23872 0.24214 0.0
H1591 H 0.53418 0.24204 0.23558 0.0
C1592 C 0.4125 0.28695 0.25443 0.0
C1593 C 0.38819 0.2949 0.24674 0.0
C1594 C 0.44267 0.28423 0.24863 0.0
C1595 C 0.44873 0.28843 0.23492 0.0
C1596 C 0.42493 0.29745 0.22728 0.0
C1597 C 0.39518 0.30095 0.23315 0.0
C1598 C 0.53577 0.30806 0.21399 0.0
C1599 C 0.5484 0.28559 0.22057 0.0
C1600 C 0.50216 0.30764 0.21816 0.0
C1601 C 0.48031 0.28414 0.22882 0.0
C1602 C 0.49088 0.25843 0.2343 0.0
C1603 C 0.5249 0.25962 0.23036 0.0
H1604 H 0.67964 0.07356 0.24385 0.0
H1605 H 0.78291 0.1541 0.2652 0.0
H1606 H 0.67766 0.12782 0.2336 0.0
H1607 H 0.78198 0.20805 0.2546 0.0
H1608 H 0.73605 0.29057 0.24719 0.0
H1609 H 0.74573 0.23936 0.25547 0.0
H1610 H 0.70909 0.18055 0.21804 0.0
H1611 H 0.69762 0.23151 0.20991 0.0
C1612 C 0.70186 0.10283 0.24636 0.0
C1613 C 0.73108 0.10957 0.25547 0.0
C1614 C 0.70109 0.13393 0.24034 0.0
C1615 C 0.72976 0.17236 0.24323 0.0
C1616 C 0.7591 0.1789 0.25228 0.0
C1617 C 0.75959 0.14792 0.25839 0.0
C1618 C 0.73071 0.26708 0.24062 0.0
C1619 C 0.71592 0.26501 0.22791 0.0
C1620 C 0.73645 0.23771 0.24536 0.0
C1621 C 0.72783 0.20554 0.23748 0.0
C1622 C 0.71535 0.20462 0.22444 0.0
C1623 C 0.70944 0.23414 0.21969 0.0
H1624 H 0.91304 0.63382 0.23908 0.0
H1625 H 0.83074 0.59169 0.27107 0.0
H1626 H 0.86738 0.57874 0.22556 0.0
H1627 H 0.78606 0.53631 0.25793 0.0
H1628 H 0.69501 0.46259 0.23088 0.0
H1629 H 0.74419 0.52465 0.23987 0.0
H1630 H 0.83407 0.5093 0.22238 0.0
H1631 H 0.78423 0.44805 0.21274 0.0
C1632 C 0.88564 0.61223 0.24333 0.0
C1633 C 0.87528 0.61705 0.25609 0.0
C1634 C 0.85939 0.58085 0.23556 0.0
C1635 C 0.82253 0.55368 0.2405 0.0
C1636 C 0.8135 0.55744 0.25359 0.0
C1637 C 0.83935 0.58887 0.26123 0.0
C1638 C 0.72523 0.47341 0.22851 0.0
C1639 C 0.73601 0.45082 0.22117 0.0
C1640 C 0.75349 0.50856 0.23385 0.0
C1641 C 0.79317 0.52123 0.2323 0.0
C1642 C 0.80384 0.50034 0.22385 0.0
C1643 C 0.77534 0.4654 0.21825 0.0
H1644 H 0.6138 0.04388 0.95019 0.0
H1645 H 0.57566 0.07528 0.91503 0.0
H1646 H 0.62086 0.10109 0.96133 0.0
H1647 H 0.58555 0.13394 0.92559 0.0
H1648 H 0.57257 0.21966 0.9482 0.0
H1649 H 0.55939 0.15677 0.94032 0.0
H1650 H 0.65399 0.16694 0.9642 0.0
H1651 H 0.66437 0.22822 0.97287 0.0
C1652 C 0.60803 0.06374 0.94475 0.0
C1653 C 0.59427 0.05537 0.93177 0.0
C1654 C 0.61199 0.09658 0.95112 0.0
C1655 C 0.60312 0.12218 0.94452 0.0
C1656 C 0.59124 0.11443 0.93126 0.0
C1657 C 0.58622 0.08113 0.92507 0.0
C1658 C 0.58951 0.20759 0.95206 0.0
C1659 C 0.61926 0.22842 0.96115 0.0
C1660 C 0.58262 0.17191 0.94735 0.0
C1661 C 0.60647 0.15701 0.95121 0.0
C1662 C 0.63482 0.17706 0.96096 0.0
C1663 C 0.64081 0.21222 0.96599 0.0
H1664 H 0.9594 0.58674 0.94516 0.0
H1665 H 0.9809 0.49541 0.93346 0.0
H1666 H 0.89864 0.53851 0.95555 0.0
H1667 H 0.92082 0.44778 0.94394 0.0
H1668 H 0.78571 0.37956 0.94422 0.0
H1669 H 0.85242 0.42446 0.93791 0.0
H1670 H 0.87026 0.48781 0.97408 0.0
H1671 H 0.80265 0.44217 0.98046 0.0
C1672 C 0.95129 0.5565 0.94483 0.0
C1673 C 0.97475 0.5449 0.93831 0.0
C1674 C 0.9168 0.52899 0.95093 0.0
C1675 C 0.90513 0.48945 0.95056 0.0
C1676 C 0.929 0.47804 0.9443 0.0
C1677 C 0.96337 0.5054 0.93825 0.0
C1678 C 0.80415 0.40253 0.95097 0.0
C1679 C 0.78921 0.40758 0.96279 0.0
C1680 C 0.84237 0.42819 0.94738 0.0
C1681 C 0.86641 0.45977 0.95546 0.0
C1682 C 0.85212 0.46383 0.96764 0.0
C1683 C 0.81375 0.43759 0.97135 0.0
H1684 H 0.46024 0.41201 0.92502 0.0
H1685 H 0.40757 0.37948 0.96343 0.0
H1686 H 0.51782 0.41306 0.93343 0.0
H1687 H 0.46605 0.38336 0.9722 0.0
H1688 H 0.56056 0.3522 0.98016 0.0
H1689 H 0.50376 0.35599 0.97391 0.0
H1690 H 0.57317 0.44531 0.9455 0.0
H1691 H 0.6288 0.4387 0.95111 0.0
C1692 C 0.46112 0.40524 0.93529 0.0
C1693 C 0.42926 0.39526 0.94351 0.0
C1694 C 0.49446 0.40643 0.94023 0.0
C1695 C 0.49731 0.39883 0.95363 0.0
C1696 C 0.46515 0.38882 0.96182 0.0
C1697 C 0.43145 0.38662 0.95678 0.0
C1698 C 0.56378 0.37345 0.97287 0.0
C1699 C 0.59896 0.3952 0.96612 0.0
C1700 C 0.53109 0.37559 0.96919 0.0
C1701 C 0.53317 0.40028 0.95888 0.0
C1702 C 0.56967 0.42476 0.95308 0.0
C1703 C 0.60194 0.42171 0.95649 0.0
H1704 H 0.62646 0.71956 0.77281 0.0
H1705 H 0.63551 0.82016 0.75345 0.0
H1706 H 0.56483 0.70564 0.7826 0.0
H1707 H 0.57436 0.80635 0.76331 0.0
H1708 H 0.47005 0.71227 0.80641 0.0
H1709 H 0.53627 0.73345 0.79885 0.0
H1710 H 0.50622 0.75389 0.76002 0.0
H1711 H 0.44088 0.73309 0.76748 0.0
C1712 C 0.61533 0.73865 0.77063 0.0
C1713 C 0.63572 0.77074 0.76224 0.0
C1714 C 0.58032 0.73094 0.77637 0.0
C1715 C 0.56492 0.755 0.77375 0.0
C1716 C 0.58544 0.78719 0.76544 0.0
C1717 C 0.62045 0.79502 0.75978 0.0
C1718 C 0.47797 0.72198 0.79634 0.0
C1719 C 0.45034 0.72086 0.78751 0.0
C1720 C 0.51563 0.73372 0.792 0.0
C1721 C 0.52625 0.74511 0.77883 0.0
C1722 C 0.499 0.74556 0.77023 0.0
C1723 C 0.4615 0.73346 0.7745 0.0
H1724 H 0.28221 0.89216 0.7541 0.0
H1725 H 0.30405 0.93405 0.79404 0.0
H1726 H 0.28071 0.83321 0.76121 0.0
H1727 H 0.29946 0.87421 0.80143 0.0
H1728 H 0.32955 0.7798 0.80885 0.0
H1729 H 0.32775 0.83771 0.80295 0.0
H1730 H 0.24726 0.77475 0.77144 0.0
H1731 H 0.25194 0.71795 0.77681 0.0
C1732 C 0.28652 0.8886 0.76442 0.0
C1733 C 0.29374 0.91789 0.77347 0.0
C1734 C 0.28508 0.85448 0.76859 0.0
C1735 C 0.28963 0.84826 0.782 0.0
C1736 C 0.29663 0.87779 0.79101 0.0
C1737 C 0.29916 0.91227 0.78678 0.0
C1738 C 0.31083 0.77821 0.80085 0.0
C1739 C 0.29097 0.74444 0.79327 0.0
C1740 C 0.30974 0.81156 0.79741 0.0
C1741 C 0.2879 0.81165 0.78649 0.0
C1742 C 0.26562 0.77664 0.77959 0.0
C1743 C 0.26763 0.74369 0.78281 0.0
H1744 H 0.12683 0.3859 0.75894 0.0
H1745 H 0.07466 0.36811 0.79734 0.0
H1746 H 0.18411 0.44428 0.76683 0.0
H1747 H 0.1328 0.42452 0.80562 0.0
H1748 H 0.2234 0.55348 0.81156 0.0
H1749 H 0.16805 0.49038 0.80615 0.0
H1750 H 0.23972 0.47068 0.77901 0.0
H1751 H 0.29382 0.5353 0.78375 0.0
C1752 C 0.12781 0.39442 0.7691 0.0
C1753 C 0.09614 0.3728 0.77746 0.0
C1754 C 0.16093 0.42762 0.77374 0.0
C1755 C 0.16366 0.43938 0.78698 0.0
C1756 C 0.13186 0.4172 0.79533 0.0
C1757 C 0.0984 0.38467 0.79059 0.0
C1758 C 0.22743 0.53497 0.80477 0.0
C1759 C 0.2627 0.54893 0.79811 0.0
C1760 C 0.19563 0.49871 0.80158 0.0
C1761 C 0.19879 0.47535 0.79185 0.0
C1762 C 0.23548 0.48818 0.78616 0.0
C1763 C 0.26685 0.52487 0.78908 0.0
H1764 H 0.39737 0.95646 0.09726 0.0
H1765 H 0.3603 0.97268 0.05909 0.0
H1766 H 0.40463 0.90389 0.08853 0.0
H1767 H 0.37042 0.92245 0.05001 0.0
H1768 H 0.35065 0.80054 0.04193 0.0
H1769 H 0.3488 0.85814 0.04815 0.0
H1770 H 0.44163 0.88759 0.07607 0.0
H1771 H 0.44068 0.82796 0.07051 0.0
C1772 C 0.39077 0.94868 0.08699 0.0
C1773 C 0.37777 0.96826 0.07891 0.0
C1774 C 0.39562 0.91898 0.08186 0.0
C1775 C 0.38877 0.90894 0.06842 0.0
C1776 C 0.37549 0.92861 0.06041 0.0
C1777 C 0.36961 0.95752 0.06563 0.0
C1778 C 0.37157 0.82016 0.04905 0.0
C1779 C 0.3958 0.80995 0.05575 0.0
C1780 C 0.37042 0.85325 0.05273 0.0
C1781 C 0.39426 0.87732 0.06297 0.0
C1782 C 0.4216 0.86909 0.06857 0.0
C1783 C 0.42185 0.83541 0.06517 0.0
H1784 H 0.06516 0.43698 0.07994 0.0
H1785 H 0.04086 0.52369 0.09476 0.0
H1786 H 0.12562 0.48831 0.07023 0.0
H1787 H 0.10032 0.57433 0.0849 0.0
H1788 H 0.23297 0.65165 0.08208 0.0
H1789 H 0.16886 0.60211 0.08925 0.0
H1790 H 0.15232 0.54019 0.05283 0.0
H1791 H 0.21748 0.59015 0.04566 0.0
C1792 C 0.07266 0.46687 0.08114 0.0
C1793 C 0.04829 0.47614 0.08827 0.0
C1794 C 0.10704 0.49623 0.07544 0.0
C1795 C 0.11776 0.53542 0.07678 0.0
C1796 C 0.09318 0.54451 0.0838 0.0
C1797 C 0.05901 0.51535 0.08947 0.0
C1798 C 0.21543 0.62788 0.07547 0.0
C1799 C 0.23027 0.62478 0.06331 0.0
C1800 C 0.17857 0.59946 0.07958 0.0
C1801 C 0.15554 0.56701 0.07166 0.0
C1802 C 0.16961 0.56464 0.05921 0.0
C1803 C 0.20663 0.59347 0.05503 0.0
H1804 H 0.49447 0.5312 0.09591 0.0
H1805 H 0.58714 0.6395 0.08047 0.0
H1806 H 0.44689 0.54352 0.08547 0.0
H1807 H 0.5392 0.65195 0.07014 0.0
H1808 H 0.44242 0.6494 0.04525 0.0
H1809 H 0.4868 0.6272 0.05249 0.0
H1810 H 0.42616 0.59091 0.08961 0.0
H1811 H 0.38249 0.61285 0.08244 0.0
C1812 C 0.50474 0.55773 0.09034 0.0
C1813 C 0.54467 0.58457 0.08916 0.0
C1814 C 0.47743 0.5647 0.08432 0.0
C1815 C 0.48931 0.5986 0.07694 0.0
C1816 C 0.5292 0.62527 0.0756 0.0
C1817 C 0.55661 0.61839 0.08168 0.0
C1818 C 0.43815 0.63572 0.05479 0.0
C1819 C 0.40928 0.63296 0.06333 0.0
C1820 C 0.46369 0.62344 0.05899 0.0
C1821 C 0.46012 0.60763 0.07166 0.0
C1822 C 0.42957 0.6027 0.07978 0.0
C1823 C 0.40461 0.61539 0.07568 0.0
H1824 H 0.04377 0.57588 0.59219 0.0
H1825 H 0.0783 0.67732 0.56812 0.0
H1826 H 0.09928 0.57215 0.58417 0.0
H1827 H 0.13432 0.6742 0.56035 0.0
H1828 H 0.21312 0.64193 0.53963 0.0
H1829 H 0.15186 0.63626 0.54649 0.0
H1830 H 0.16845 0.60512 0.58569 0.0
H1831 H 0.22861 0.60944 0.57872 0.0
C1832 C 0.06356 0.59777 0.58535 0.0
C1833 C 0.05668 0.62701 0.58085 0.0
C1834 C 0.09536 0.59557 0.58071 0.0
C1835 C 0.12113 0.62263 0.57149 0.0
C1836 C 0.11463 0.65234 0.56721 0.0
C1837 C 0.08279 0.65447 0.57182 0.0
C1838 C 0.203 0.63257 0.54957 0.0
C1839 C 0.22575 0.62609 0.55861 0.0
C1840 C 0.16821 0.63 0.55358 0.0
C1841 C 0.15548 0.62086 0.56672 0.0
C1842 C 0.17713 0.61206 0.5755 0.0
C1843 C 0.21177 0.61464 0.57149 0.0
H1844 H 0.41849 0.4733 0.59779 0.0
H1845 H 0.37937 0.41032 0.56127 0.0
H1846 H 0.41603 0.52749 0.58788 0.0
H1847 H 0.37962 0.46525 0.55099 0.0
H1848 H 0.3426 0.55436 0.5412 0.0
H1849 H 0.34937 0.50043 0.54893 0.0
H1850 H 0.44522 0.57908 0.57377 0.0
H1851 H 0.43591 0.632 0.56673 0.0
C1852 C 0.4095 0.47118 0.58762 0.0
C1853 C 0.39871 0.43747 0.58037 0.0
C1854 C 0.40864 0.5025 0.58181 0.0
C1855 C 0.39806 0.50131 0.56849 0.0
C1856 C 0.3873 0.46735 0.56129 0.0
C1857 C 0.3872 0.43572 0.56719 0.0
C1858 C 0.36581 0.5601 0.54802 0.0
C1859 C 0.38872 0.59714 0.5534 0.0
C1860 C 0.3697 0.52915 0.55253 0.0
C1861 C 0.39727 0.53489 0.5623 0.0
C1862 C 0.42263 0.57297 0.56667 0.0
C1863 C 0.41794 0.60358 0.56243 0.0
H1864 H 0.59108 0.96889 0.57052 0.0
H1865 H 0.49932 0.94589 0.59791 0.0
H1866 H 0.54589 0.91271 0.55757 0.0
H1867 H 0.45458 0.88893 0.58534 0.0
H1868 H 0.37132 0.80361 0.55735 0.0
H1869 H 0.41853 0.8679 0.56567 0.0
H1870 H 0.51107 0.84454 0.55769 0.0
H1871 H 0.46382 0.78136 0.54886 0.0
C1872 C 0.56142 0.95144 0.57391 0.0
C1873 C 0.54884 0.9618 0.58528 0.0
C1874 C 0.53542 0.91925 0.56645 0.0
C1875 C 0.49632 0.89638 0.57027 0.0
C1876 C 0.48411 0.90637 0.58184 0.0
C1877 C 0.50994 0.93877 0.58919 0.0
C1878 C 0.40197 0.8132 0.55685 0.0
C1879 C 0.41421 0.78812 0.5523 0.0
C1880 C 0.429 0.84962 0.56185 0.0
C1881 C 0.46865 0.86118 0.56267 0.0
C1882 C 0.48096 0.83695 0.55717 0.0
C1883 C 0.45395 0.80077 0.55203 0.0
H1884 H 0.19181 0.35809 0.27201 0.0
H1885 H 0.31132 0.39434 0.28079 0.0
H1886 H 0.20133 0.41886 0.28077 0.0
H1887 H 0.32075 0.45549 0.28959 0.0
H1888 H 0.31312 0.5484 0.31417 0.0
H1889 H 0.29819 0.48277 0.3083 0.0
H1890 H 0.23981 0.48773 0.27321 0.0
H1891 H 0.2547 0.55285 0.27903 0.0
C1892 C 0.22014 0.37896 0.27583 0.0
C1893 C 0.2509 0.37136 0.27559 0.0
C1894 C 0.22555 0.41383 0.28085 0.0
C1895 C 0.26175 0.44195 0.28588 0.0
C1896 C 0.29239 0.43418 0.28591 0.0
C1897 C 0.28708 0.39933 0.28075 0.0
C1898 C 0.29624 0.535 0.3054 0.0
C1899 C 0.2849 0.55565 0.29709 0.0
C1900 C 0.28816 0.49768 0.30195 0.0
C1901 C 0.26804 0.48019 0.29025 0.0
C1902 C 0.25514 0.50025 0.28232 0.0
C1903 C 0.26371 0.53759 0.28565 0.0
H1904 H 0.6248 0.93137 0.28699 0.0
H1905 H 0.65223 0.8439 0.27562 0.0
H1906 H 0.56091 0.88036 0.29463 0.0
H1907 H 0.58896 0.7935 0.28329 0.0
H1908 H 0.45494 0.72059 0.27974 0.0
H1909 H 0.52188 0.76964 0.27507 0.0
H1910 H 0.52826 0.82599 0.31193 0.0
H1911 H 0.4606 0.77652 0.31661 0.0
C1912 C 0.6173 0.90139 0.28614 0.0
C1913 C 0.64353 0.89177 0.28058 0.0
C1914 C 0.58091 0.87224 0.29064 0.0
C1915 C 0.56999 0.83297 0.28955 0.0
C1916 C 0.59644 0.82348 0.28416 0.0
C1917 C 0.63274 0.85246 0.27977 0.0
C1918 C 0.47081 0.74305 0.28696 0.0
C1919 C 0.45266 0.74463 0.29856 0.0
C1920 C 0.50919 0.77111 0.2843 0.0
C1921 C 0.53026 0.80175 0.29311 0.0
C1922 C 0.51256 0.80281 0.30493 0.0
C1923 C 0.47409 0.77426 0.30769 0.0
H1924 H 0.07138 0.7127 0.29992 0.0
H1925 H 0.11951 0.74362 0.26088 0.0
H1926 H 0.12955 0.71388 0.30762 0.0
H1927 H 0.17659 0.74174 0.26816 0.0
H1928 H 0.28787 0.76028 0.28418 0.0
H1929 H 0.23358 0.76949 0.27909 0.0
H1930 H 0.16475 0.68424 0.30872 0.0
H1931 H 0.2205 0.67799 0.31444 0.0
C1932 C 0.09426 0.71908 0.29291 0.0
C1933 C 0.0908 0.72792 0.27978 0.0
C1934 C 0.12776 0.71958 0.29731 0.0
C1935 C 0.15845 0.72789 0.28861 0.0
C1936 C 0.15448 0.73621 0.27536 0.0
C1937 C 0.1214 0.73681 0.27107 0.0
C1938 C 0.2614 0.7445 0.28985 0.0
C1939 C 0.25843 0.71859 0.29974 0.0
C1940 C 0.22982 0.74912 0.28677 0.0
C1941 C 0.19381 0.72687 0.29317 0.0
C1942 C 0.1917 0.70233 0.30356 0.0
C1943 C 0.22378 0.69865 0.30691 0.0
loop_
_geom_bond_atom_site_label_1
_geom_bond_atom_site_label_2
_geom_bond_distance
_geom_bond_site_symmetry_2
_ccdc_geom_bond_type
C0 O1 1.306 . S
C0 O3 1.160 . S
O1 C0 1.306 . S
O1 Cd2 2.228 . S
Cd2 O1 2.228 . S
Cd2 O6 2.273 . S
Cd2 O10 2.277 . S
O3 C0 1.160 . S
O3 Cd4 2.203 1_565 S
Cd4 O3 2.203 1_545 S
Cd4 O6 2.411 1_545 S
Cd4 O7 2.333 . S
Cd4 O8 2.352 . S
Cd4 O12 2.277 . S
Cd4 O13 2.356 . S
C5 O10 1.209 1_545 S
C5 O12 1.226 . S
O6 Cd2 2.273 . S
O6 Cd4 2.411 1_565 S
O6 C9 1.320 1_565 S
O7 Cd4 2.333 . S
O7 C9 1.214 . S
O8 Cd4 2.352 . S
O8 C11 1.258 . S
C9 O6 1.320 1_545 S
C9 O7 1.214 . S
O10 Cd2 2.277 . S
O10 C5 1.209 1_565 S
C11 O8 1.258 . S
C11 O13 1.282 . S
O12 Cd4 2.277 . S
O12 C5 1.226 . S
O13 Cd4 2.356 . S
O13 C11 1.282 . S
C14 O15 1.306 . S
C14 O17 1.160 . S
O15 C14 1.306 . S
O15 Cd16 2.228 . S
Cd16 O15 2.228 . S
Cd16 O20 2.273 . S
Cd16 O24 2.277 . S
O17 C14 1.160 . S
O17 Cd18 2.203 1_655 S
Cd18 O17 2.203 1_455 S
Cd18 O20 2.411 1_455 S
Cd18 O21 2.333 . S
Cd18 O22 2.352 . S
Cd18 O26 2.277 . S
Cd18 O27 2.356 . S
C19 O24 1.209 1_455 S
C19 O26 1.226 . S
O20 Cd16 2.273 . S
O20 Cd18 2.411 1_655 S
O20 C23 1.320 1_655 S
O21 Cd18 2.333 . S
O21 C23 1.214 . S
O22 Cd18 2.352 . S
O22 C25 1.258 . S
C23 O20 1.320 1_455 S
C23 O21 1.214 . S
O24 Cd16 2.277 . S
O24 C19 1.209 1_655 S
C25 O22 1.258 . S
C25 O27 1.282 . S
O26 Cd18 2.277 . S
O26 C19 1.226 . S
O27 Cd18 2.356 . S
O27 C25 1.282 . S
C28 O29 1.306 . S
C28 O31 1.160 . S
O29 C28 1.306 . S
O29 Cd30 2.228 . S
Cd30 O29 2.228 . S
Cd30 O34 2.273 . S
Cd30 O38 2.277 . S
O31 C28 1.160 . S
O31 Cd32 2.203 . S
Cd32 O31 2.203 . S
Cd32 O34 2.411 . S
Cd32 O35 2.333 . S
Cd32 O36 2.352 . S
Cd32 O40 2.277 . S
Cd32 O41 2.356 . S
C33 O38 1.209 . S
C33 O40 1.226 . S
O34 Cd30 2.273 . S
O34 Cd32 2.411 . S
O34 C37 1.320 . S
O35 Cd32 2.333 . S
O35 C37 1.214 . S
O36 Cd32 2.352 . S
O36 C39 1.258 . S
C37 O34 1.320 . S
C37 O35 1.214 . S
O38 Cd30 2.277 . S
O38 C33 1.209 . S
C39 O36 1.258 . S
C39 O41 1.282 . S
O40 Cd32 2.277 . S
O40 C33 1.226 . S
O41 Cd32 2.356 . S
O41 C39 1.282 . S
C42 O43 1.306 . S
C42 O45 1.160 . S
O43 C42 1.306 . S
O43 Cd44 2.228 . S
Cd44 O43 2.228 . S
Cd44 O48 2.273 . S
Cd44 O52 2.277 . S
O45 C42 1.160 . S
O45 Cd46 2.203 . S
Cd46 O45 2.203 . S
Cd46 O48 2.411 . S
Cd46 O49 2.333 1_545 S
Cd46 O50 2.352 1_545 S
Cd46 O54 2.277 1_545 S
Cd46 O55 2.356 1_545 S
C47 O52 1.209 . S
C47 O54 1.226 1_545 S
O48 Cd44 2.273 . S
O48 Cd46 2.411 . S
O48 C51 1.320 . S
O49 Cd46 2.333 1_565 S
O49 C51 1.214 1_565 S
O50 Cd46 2.352 1_565 S
O50 C53 1.258 . S
C51 O48 1.320 . S
C51 O49 1.214 1_545 S
O52 Cd44 2.277 . S
O52 C47 1.209 . S
C53 O50 1.258 . S
C53 O55 1.282 . S
O54 Cd46 2.277 1_565 S
O54 C47 1.226 1_565 S
O55 Cd46 2.356 1_565 S
O55 C53 1.282 . S
C56 O57 1.306 . S
C56 O59 1.160 . S
O57 C56 1.306 . S
O57 Cd58 2.228 . S
Cd58 O57 2.228 . S
Cd58 O62 2.273 . S
Cd58 O66 2.277 . S
O59 C56 1.160 . S
O59 Cd60 2.203 1_655 S
Cd60 O59 2.203 1_455 S
Cd60 O62 2.411 1_455 S
Cd60 O63 2.333 . S
Cd60 O64 2.352 . S
Cd60 O68 2.277 . S
Cd60 O69 2.356 . S
C61 O66 1.209 1_455 S
C61 O68 1.226 . S
O62 Cd58 2.273 . S
O62 Cd60 2.411 1_655 S
O62 C65 1.320 1_655 S
O63 Cd60 2.333 . S
O63 C65 1.214 . S
O64 Cd60 2.352 . S
O64 C67 1.258 . S
C65 O62 1.320 1_455 S
C65 O63 1.214 . S
O66 Cd58 2.277 . S
O66 C61 1.209 1_655 S
C67 O64 1.258 . S
C67 O69 1.282 . S
O68 Cd60 2.277 . S
O68 C61 1.226 . S
O69 Cd60 2.356 . S
O69 C67 1.282 . S
C70 O71 1.306 . S
C70 O73 1.160 . S
O71 C70 1.306 . S
O71 Cd72 2.228 . S
Cd72 O71 2.228 . S
Cd72 O76 2.273 . S
Cd72 O80 2.277 . S
O73 C70 1.160 . S
O73 Cd74 2.203 . S
Cd74 O73 2.203 . S
Cd74 O76 2.411 . S
Cd74 O77 2.333 . S
Cd74 O78 2.352 . S
Cd74 O82 2.277 . S
Cd74 O83 2.356 . S
C75 O80 1.209 . S
C75 O82 1.226 . S
O76 Cd72 2.273 . S
O76 Cd74 2.411 . S
O76 C79 1.320 . S
O77 Cd74 2.333 . S
O77 C79 1.214 . S
O78 Cd74 2.352 . S
O78 C81 1.258 . S
C79 O76 1.320 . S
C79 O77 1.214 . S
O80 Cd72 2.277 . S
O80 C75 1.209 . S
C81 O78 1.258 . S
C81 O83 1.282 . S
O82 Cd74 2.277 . S
O82 C75 1.226 . S
O83 Cd74 2.356 . S
O83 C81 1.282 . S
C84 O85 1.306 . S
C84 O87 1.160 . S
O85 C84 1.306 . S
O85 Cd86 2.228 . S
Cd86 O85 2.228 . S
Cd86 O90 2.273 . S
Cd86 O94 2.277 . S
O87 C84 1.160 . S
O87 Cd88 2.203 . S
Cd88 O87 2.203 . S
Cd88 O90 2.411 . S
Cd88 O91 2.333 . S
Cd88 O92 2.352 . S
Cd88 O96 2.277 . S
Cd88 O97 2.356 . S
C89 O94 1.209 . S
C89 O96 1.226 . S
O90 Cd86 2.273 . S
O90 Cd88 2.411 . S
O90 C93 1.320 . S
O91 Cd88 2.333 . S
O91 C93 1.214 . S
O92 Cd88 2.352 . S
O92 C95 1.258 . S
C93 O90 1.320 . S
C93 O91 1.214 . S
O94 Cd86 2.277 . S
O94 C89 1.209 . S
C95 O92 1.258 . S
C95 O97 1.282 . S
O96 Cd88 2.277 . S
O96 C89 1.226 . S
O97 Cd88 2.356 . S
O97 C95 1.282 . S
C98 O99 1.306 . S
C98 O101 1.160 . S
O99 C98 1.306 . S
O99 Cd100 2.228 . S
Cd100 O99 2.228 . S
Cd100 O104 2.273 . S
Cd100 O108 2.277 . S
O101 C98 1.160 . S
O101 Cd102 2.203 . S
Cd102 O101 2.203 . S
Cd102 O104 2.411 . S
Cd102 O105 2.333 . S
Cd102 O106 2.352 . S
Cd102 O110 2.277 . S
Cd102 O111 2.356 . S
C103 O108 1.209 . S
C103 O110 1.226 . S
O104 Cd100 2.273 . S
O104 Cd102 2.411 . S
O104 C107 1.320 . S
O105 Cd102 2.333 . S
O105 C107 1.214 . S
O106 Cd102 2.352 . S
O106 C109 1.258 . S
C107 O104 1.320 . S
C107 O105 1.214 . S
O108 Cd100 2.277 . S
O108 C103 1.209 . S
C109 O106 1.258 . S
C109 O111 1.282 . S
O110 Cd102 2.277 . S
O110 C103 1.226 . S
O111 Cd102 2.356 . S
O111 C109 1.282 . S
C112 O113 1.306 . S
C112 O115 1.160 . S
O113 C112 1.306 . S
O113 Cd114 2.228 . S
Cd114 O113 2.228 . S
Cd114 O118 2.273 . S
Cd114 O122 2.277 . S
O115 C112 1.160 . S
O115 Cd116 2.203 . S
Cd116 O115 2.203 . S
Cd116 O118 2.411 . S
Cd116 O119 2.333 . S
Cd116 O120 2.352 1_655 S
Cd116 O124 2.277 . S
Cd116 O125 2.356 1_655 S
C117 O122 1.209 . S
C117 O124 1.226 . S
O118 Cd114 2.273 . S
O118 Cd116 2.411 . S
O118 C121 1.320 . S
O119 Cd116 2.333 . S
O119 C121 1.214 . S
O120 Cd116 2.352 1_455 S
O120 C123 1.258 . S
C121 O118 1.320 . S
C121 O119 1.214 . S
O122 Cd114 2.277 . S
O122 C117 1.209 . S
C123 O120 1.258 . S
C123 O125 1.282 . S
O124 Cd116 2.277 . S
O124 C117 1.226 . S
O125 Cd116 2.356 1_455 S
O125 C123 1.282 . S
C126 O127 1.306 . S
C126 O129 1.160 . S
O127 C126 1.306 . S
O127 Cd128 2.228 1_455 S
Cd128 O127 2.228 1_655 S
Cd128 O132 2.273 . S
Cd128 O136 2.277 . S
O129 C126 1.160 . S
O129 Cd130 2.203 1_455 S
Cd130 O129 2.203 1_655 S
Cd130 O132 2.411 . S
Cd130 O133 2.333 . S
Cd130 O134 2.352 . S
Cd130 O138 2.277 . S
Cd130 O139 2.356 . S
C131 O136 1.209 . S
C131 O138 1.226 . S
O132 Cd128 2.273 . S
O132 Cd130 2.411 . S
O132 C135 1.320 . S
O133 Cd130 2.333 . S
O133 C135 1.214 . S
O134 Cd130 2.352 . S
O134 C137 1.258 . S
C135 O132 1.320 . S
C135 O133 1.214 . S
O136 Cd128 2.277 . S
O136 C131 1.209 . S
C137 O134 1.258 . S
C137 O139 1.282 . S
O138 Cd130 2.277 . S
O138 C131 1.226 . S
O139 Cd130 2.356 . S
O139 C137 1.282 . S
C140 O141 1.306 . S
C140 O143 1.160 . S
O141 C140 1.306 . S
O141 Cd142 2.228 . S
Cd142 O141 2.228 . S
Cd142 O146 2.273 . S
Cd142 O150 2.277 . S
O143 C140 1.160 . S
O143 Cd144 2.203 . S
Cd144 O143 2.203 . S
Cd144 O146 2.411 . S
Cd144 O147 2.333 . S
Cd144 O148 2.352 . S
Cd144 O152 2.277 . S
Cd144 O153 2.356 . S
C145 O150 1.209 . S
C145 O152 1.226 . S
O146 Cd142 2.273 . S
O146 Cd144 2.411 . S
O146 C149 1.320 . S
O147 Cd144 2.333 . S
O147 C149 1.214 . S
O148 Cd144 2.352 . S
O148 C151 1.258 . S
C149 O146 1.320 . S
C149 O147 1.214 . S
O150 Cd142 2.277 . S
O150 C145 1.209 . S
C151 O148 1.258 . S
C151 O153 1.282 . S
O152 Cd144 2.277 . S
O152 C145 1.226 . S
O153 Cd144 2.356 . S
O153 C151 1.282 . S
C154 O155 1.306 . S
C154 O157 1.160 . S
O155 C154 1.306 . S
O155 Cd156 2.228 . S
Cd156 O155 2.228 . S
Cd156 O160 2.273 . S
Cd156 O164 2.277 . S
O157 C154 1.160 . S
O157 Cd158 2.203 . S
Cd158 O157 2.203 . S
Cd158 O160 2.411 . S
Cd158 O161 2.333 . S
Cd158 O162 2.352 . S
Cd158 O166 2.277 . S
Cd158 O167 2.356 . S
C159 O164 1.209 . S
C159 O166 1.226 . S
O160 Cd156 2.273 . S
O160 Cd158 2.411 . S
O160 C163 1.320 . S
O161 Cd158 2.333 . S
O161 C163 1.214 . S
O162 Cd158 2.352 . S
O162 C165 1.258 1_545 S
C163 O160 1.320 . S
C163 O161 1.214 . S
O164 Cd156 2.277 . S
O164 C159 1.209 . S
C165 O162 1.258 1_565 S
C165 O167 1.282 1_565 S
O166 Cd158 2.277 . S
O166 C159 1.226 . S
O167 Cd158 2.356 . S
O167 C165 1.282 1_545 S
C168 O169 1.316 . S
C168 O171 1.159 . S
O169 C168 1.316 . S
O169 Cd170 2.228 . S
Cd170 O169 2.228 . S
Cd170 O174 2.273 . S
Cd170 O178 2.277 . S
O171 C168 1.159 . S
O171 Cd172 2.203 . S
Cd172 O171 2.203 . S
Cd172 O174 2.411 . S
Cd172 O175 2.333 . S
Cd172 O176 2.352 . S
Cd172 O180 2.277 . S
Cd172 O181 2.356 . S
C173 O178 1.209 . S
C173 O180 1.226 . S
O174 Cd170 2.273 . S
O174 Cd172 2.411 . S
O174 C177 1.320 . S
O175 Cd172 2.333 . S
O175 C177 1.214 . S
O176 Cd172 2.352 . S
O176 C179 1.258 . S
C177 O174 1.320 . S
C177 O175 1.214 . S
O178 Cd170 2.277 . S
O178 C173 1.209 . S
C179 O176 1.258 . S
C179 O181 1.282 . S
O180 Cd172 2.277 . S
O180 C173 1.226 . S
O181 Cd172 2.356 . S
O181 C179 1.282 . S
C182 O183 1.306 . S
C182 O185 1.160 . S
O183 C182 1.306 . S
O183 Cd184 2.228 . S
Cd184 O183 2.228 . S
Cd184 O188 2.273 . S
Cd184 O192 2.277 . S
O185 C182 1.160 . S
O185 Cd186 2.203 . S
Cd186 O185 2.203 . S
Cd186 O188 2.411 . S
Cd186 O189 2.333 . S
Cd186 O190 2.352 . S
Cd186 O194 2.277 . S
Cd186 O195 2.356 . S
C187 O192 1.209 . S
C187 O194 1.226 . S
O188 Cd184 2.273 . S
O188 Cd186 2.411 . S
O188 C191 1.320 . S
O189 Cd186 2.333 . S
O189 C191 1.214 . S
O190 Cd186 2.352 . S
O190 C193 1.258 . S
C191 O188 1.320 . S
C191 O189 1.214 . S
O192 Cd184 2.277 . S
O192 C187 1.209 . S
C193 O190 1.258 . S
C193 O195 1.282 . S
O194 Cd186 2.277 . S
O194 C187 1.226 . S
O195 Cd186 2.356 . S
O195 C193 1.282 . S
C196 O197 1.306 . S
C196 O199 1.160 . S
O197 C196 1.306 . S
O197 Cd198 2.228 1_545 S
Cd198 O197 2.228 1_565 S
Cd198 O202 2.273 . S
Cd198 O206 2.277 . S
O199 C196 1.160 . S
O199 Cd200 2.203 1_545 S
Cd200 O199 2.203 1_565 S
Cd200 O202 2.411 . S
Cd200 O203 2.333 . S
Cd200 O204 2.352 1_565 S
Cd200 O208 2.277 . S
Cd200 O209 2.356 . S
C201 O206 1.209 . S
C201 O208 1.226 . S
O202 Cd198 2.273 . S
O202 Cd200 2.411 . S
O202 C205 1.320 . S
O203 Cd200 2.333 . S
O203 C205 1.214 . S
O204 Cd200 2.352 1_545 S
O204 C207 1.258 1_545 S
C205 O202 1.320 . S
C205 O203 1.214 . S
O206 Cd198 2.277 . S
O206 C201 1.209 . S
C207 O204 1.258 1_565 S
C207 O209 1.282 . S
O208 Cd200 2.277 . S
O208 C201 1.226 . S
O209 Cd200 2.356 . S
O209 C207 1.282 . S
C210 O211 1.306 . S
C210 O213 1.160 . S
O211 C210 1.306 . S
O211 Cd212 2.228 . S
Cd212 O211 2.228 . S
Cd212 O216 2.273 . S
Cd212 O220 2.277 . S
O213 C210 1.160 . S
O213 Cd214 2.203 . S
Cd214 O213 2.203 . S
Cd214 O216 2.411 . S
Cd214 O217 2.333 . S
Cd214 O218 2.352 . S
Cd214 O222 2.277 . S
Cd214 O223 2.356 . S
C215 O220 1.209 . S
C215 O222 1.226 . S
O216 Cd212 2.273 . S
O216 Cd214 2.411 . S
O216 C219 1.320 . S
O217 Cd214 2.333 . S
O217 C219 1.214 . S
O218 Cd214 2.352 . S
O218 C221 1.258 . S
C219 O216 1.320 . S
C219 O217 1.214 . S
O220 Cd212 2.277 . S
O220 C215 1.209 . S
C221 O218 1.258 . S
C221 O223 1.282 . S
O222 Cd214 2.277 . S
O222 C215 1.226 . S
O223 Cd214 2.356 . S
O223 C221 1.282 . S
C224 O225 1.306 . S
C224 O227 1.160 . S
O225 C224 1.306 . S
O225 Cd226 2.228 . S
Cd226 O225 2.228 . S
Cd226 O230 2.273 . S
Cd226 O234 2.277 . S
O227 C224 1.160 . S
O227 Cd228 2.203 . S
Cd228 O227 2.203 . S
Cd228 O230 2.411 . S
Cd228 O231 2.333 . S
Cd228 O232 2.352 1_565 S
Cd228 O236 2.277 . S
Cd228 O237 2.356 1_565 S
C229 O234 1.209 . S
C229 O236 1.226 . S
O230 Cd226 2.273 . S
O230 Cd228 2.411 . S
O230 C233 1.320 . S
O231 Cd228 2.333 . S
O231 C233 1.214 . S
O232 Cd228 2.352 1_545 S
O232 C235 1.258 . S
C233 O230 1.320 . S
C233 O231 1.214 . S
O234 Cd226 2.277 . S
O234 C229 1.209 . S
C235 O232 1.258 . S
C235 O237 1.282 . S
O236 Cd228 2.277 . S
O236 C229 1.226 . S
O237 Cd228 2.356 1_545 S
O237 C235 1.282 . S
C238 O239 1.306 1_655 S
C238 O241 1.160 1_655 S
O239 C238 1.306 1_455 S
O239 Cd240 2.228 . S
Cd240 O239 2.228 . S
Cd240 O244 2.273 . S
Cd240 O248 2.277 . S
O241 C238 1.160 1_455 S
O241 Cd242 2.203 . S
Cd242 O241 2.203 . S
Cd242 O244 2.411 . S
Cd242 O245 2.333 . S
Cd242 O246 2.352 . S
Cd242 O250 2.277 . S
Cd242 O251 2.356 . S
C243 O248 1.209 . S
C243 O250 1.226 . S
O244 Cd240 2.273 . S
O244 Cd242 2.411 . S
O244 C247 1.320 . S
O245 Cd242 2.333 . S
O245 C247 1.214 . S
O246 Cd242 2.352 . S
O246 C249 1.258 . S
C247 O244 1.320 . S
C247 O245 1.214 . S
O248 Cd240 2.277 . S
O248 C243 1.209 . S
C249 O246 1.258 . S
C249 O251 1.282 . S
O250 Cd242 2.277 . S
O250 C243 1.226 . S
O251 Cd242 2.356 . S
O251 C249 1.282 . S
Zn252 O258 1.920 1_455 S
Zn252 O264 1.898 1_445 S
Zn252 O267 1.905 . S
Zn253 O261 1.905 1_545 S
Zn253 O262 1.898 . S
Zn253 O270 1.920 1_455 S
Zn254 O257 2.080 . S
Zn254 O260 2.114 1_545 S
Zn254 O263 2.120 . S
Zn254 O265 2.120 1_445 S
Zn254 O266 2.114 . S
Zn254 O269 2.080 1_455 S
C255 O260 1.166 . S
C255 O261 1.182 . S
C256 O262 1.167 . S
C256 O263 1.299 . S
O257 Zn254 2.080 . S
O257 C271 1.303 1_455 S
O258 Zn252 1.920 1_655 S
O258 C271 1.234 . S
C259 O264 1.167 . S
C259 O265 1.299 . S
O260 Zn254 2.114 1_565 S
O260 C255 1.166 . S
O261 Zn253 1.905 1_565 S
O261 C255 1.182 . S
O262 Zn253 1.898 . S
O262 C256 1.167 . S
O263 Zn254 2.120 . S
O263 C256 1.299 . S
O264 Zn252 1.898 1_665 S
O264 C259 1.167 . S
O265 Zn254 2.120 1_665 S
O265 C259 1.299 . S
O266 Zn254 2.114 . S
O266 C268 1.166 . S
O267 Zn252 1.905 . S
O267 C268 1.182 . S
C268 O266 1.166 . S
C268 O267 1.182 . S
O269 Zn254 2.080 1_655 S
O269 C272 1.305 . S
O270 Zn253 1.920 1_655 S
O270 C272 1.234 . S
C271 O257 1.303 1_655 S
C271 O258 1.234 . S
C272 O269 1.305 . S
C272 O270 1.234 . S
Zn273 O279 1.920 1_545 S
Zn273 O285 1.898 . S
Zn273 O288 1.905 1_445 S
Zn274 O282 1.905 . S
Zn274 O283 1.898 1_445 S
Zn274 O291 1.920 1_545 S
Zn275 O278 2.080 1_545 S
Zn275 O281 2.114 . S
Zn275 O284 2.120 1_445 S
Zn275 O286 2.120 . S
Zn275 O287 2.114 1_455 S
Zn275 O290 2.080 . S
C276 O281 1.166 . S
C276 O282 1.182 . S
C277 O283 1.167 . S
C277 O284 1.299 . S
O278 Zn275 2.080 1_565 S
O278 C292 1.305 . S
O279 Zn273 1.920 1_565 S
O279 C292 1.234 . S
C280 O285 1.167 . S
C280 O286 1.299 . S
O281 Zn275 2.114 . S
O281 C276 1.166 . S
O282 Zn274 1.905 . S
O282 C276 1.182 . S
O283 Zn274 1.898 1_665 S
O283 C277 1.167 . S
O284 Zn275 2.120 1_665 S
O284 C277 1.299 . S
O285 Zn273 1.898 . S
O285 C280 1.167 . S
O286 Zn275 2.120 . S
O286 C280 1.299 . S
O287 Zn275 2.114 1_655 S
O287 C289 1.166 . S
O288 Zn273 1.905 1_665 S
O288 C289 1.182 1_565 S
C289 O287 1.166 . S
C289 O288 1.182 1_545 S
O290 Zn275 2.080 . S
O290 C293 1.305 1_545 S
O291 Zn274 1.920 1_565 S
O291 C293 1.234 . S
C292 O278 1.305 . S
C292 O279 1.234 . S
C293 O290 1.305 1_565 S
C293 O291 1.234 . S
Zn294 O300 1.920 1_545 S
Zn294 O306 1.898 . S
Zn294 O309 1.903 1_455 S
Zn295 O303 1.905 . S
Zn295 O304 1.898 1_445 S
Zn295 O312 1.920 . S
Zn296 O299 2.080 1_545 S
Zn296 O302 2.114 . S
Zn296 O305 2.120 1_445 S
Zn296 O307 2.120 . S
Zn296 O308 2.114 1_455 S
Zn296 O311 2.080 . S
C297 O302 1.166 . S
C297 O303 1.182 . S
C298 O304 1.167 . S
C298 O305 1.299 . S
O299 Zn296 2.080 1_565 S
O299 C313 1.305 . S
O300 Zn294 1.920 1_565 S
O300 C313 1.234 . S
C301 O306 1.167 . S
C301 O307 1.299 . S
O302 Zn296 2.114 . S
O302 C297 1.166 . S
O303 Zn295 1.905 . S
O303 C297 1.182 . S
O304 Zn295 1.898 1_665 S
O304 C298 1.167 . S
O305 Zn296 2.120 1_665 S
O305 C298 1.299 . S
O306 Zn294 1.898 . S
O306 C301 1.167 . S
O307 Zn296 2.120 . S
O307 C301 1.299 . S
O308 Zn296 2.114 1_655 S
O308 C310 1.166 . S
O309 Zn294 1.903 1_655 S
O309 C310 1.188 . S
C310 O308 1.166 . S
C310 O309 1.188 . S
O311 Zn296 2.080 . S
O311 C314 1.305 . S
O312 Zn295 1.920 . S
O312 C314 1.234 . S
C313 O299 1.305 . S
C313 O300 1.234 . S
C314 O311 1.305 . S
C314 O312 1.234 . S
Zn315 O321 1.920 1_455 S
Zn315 O327 1.898 1_445 S
Zn315 O330 1.905 . S
Zn316 O324 1.905 1_445 S
Zn316 O325 1.898 . S
Zn316 O333 1.920 1_455 S
Zn317 O320 2.080 . S
Zn317 O323 2.114 1_545 S
Zn317 O326 2.120 . S
Zn317 O328 2.120 1_445 S
Zn317 O329 2.114 . S
Zn317 O332 2.080 1_455 S
C318 O323 1.166 1_655 S
C318 O324 1.182 . S
C319 O325 1.167 . S
C319 O326 1.299 . S
O320 Zn317 2.080 . S
O320 C334 1.305 . S
O321 Zn315 1.920 1_655 S
O321 C334 1.234 1_655 S
C322 O327 1.167 . S
C322 O328 1.299 . S
O323 Zn317 2.114 1_565 S
O323 C318 1.166 1_455 S
O324 Zn316 1.905 1_665 S
O324 C318 1.182 . S
O325 Zn316 1.898 . S
O325 C319 1.167 . S
O326 Zn317 2.120 . S
O326 C319 1.299 . S
O327 Zn315 1.898 1_665 S
O327 C322 1.167 . S
O328 Zn317 2.120 1_665 S
O328 C322 1.299 . S
O329 Zn317 2.114 . S
O329 C331 1.166 . S
O330 Zn315 1.905 . S
O330 C331 1.182 . S
C331 O329 1.166 . S
C331 O330 1.182 . S
O332 Zn317 2.080 1_655 S
O332 C335 1.305 . S
O333 Zn316 1.920 1_655 S
O333 C335 1.234 . S
C334 O320 1.305 . S
C334 O321 1.234 1_455 S
C335 O332 1.305 . S
C335 O333 1.234 . S
Zn336 O342 1.920 . S
Zn336 O348 1.898 . S
Zn336 O351 1.905 . S
Zn337 O345 1.905 . S
Zn337 O346 1.898 . S
Zn337 O354 1.920 . S
Zn338 O341 2.080 . S
Zn338 O344 2.114 . S
Zn338 O347 2.120 . S
Zn338 O349 2.120 . S
Zn338 O350 2.114 . S
Zn338 O353 2.080 . S
C339 O344 1.166 . S
C339 O345 1.182 . S
C340 O346 1.167 . S
C340 O347 1.299 . S
O341 Zn338 2.080 . S
O341 C355 1.305 . S
O342 Zn336 1.920 . S
O342 C355 1.234 . S
C343 O348 1.167 . S
C343 O349 1.299 . S
O344 Zn338 2.114 . S
O344 C339 1.166 . S
O345 Zn337 1.905 . S
O345 C339 1.182 . S
O346 Zn337 1.898 . S
O346 C340 1.167 . S
O347 Zn338 2.120 . S
O347 C340 1.299 . S
O348 Zn336 1.898 . S
O348 C343 1.167 . S
O349 Zn338 2.120 . S
O349 C343 1.299 . S
O350 Zn338 2.114 . S
O350 C352 1.166 . S
O351 Zn336 1.905 . S
O351 C352 1.182 . S
C352 O350 1.166 . S
C352 O351 1.182 . S
O353 Zn338 2.080 . S
O353 C356 1.305 . S
O354 Zn337 1.920 . S
O354 C356 1.234 . S
C355 O341 1.305 . S
C355 O342 1.234 . S
C356 O353 1.305 . S
C356 O354 1.234 . S
Zn357 O363 1.920 . S
Zn357 O369 1.898 . S
Zn357 O372 1.905 . S
Zn358 O366 1.905 . S
Zn358 O367 1.898 . S
Zn358 O375 1.920 . S
Zn359 O362 2.080 . S
Zn359 O365 2.114 . S
Zn359 O368 2.120 . S
Zn359 O370 2.120 . S
Zn359 O371 2.114 . S
Zn359 O374 2.080 . S
C360 O365 1.166 . S
C360 O366 1.182 . S
C361 O367 1.167 . S
C361 O368 1.299 . S
O362 Zn359 2.080 . S
O362 C376 1.305 . S
O363 Zn357 1.920 . S
O363 C376 1.234 . S
C364 O369 1.167 . S
C364 O370 1.299 . S
O365 Zn359 2.114 . S
O365 C360 1.166 . S
O366 Zn358 1.905 . S
O366 C360 1.182 . S
O367 Zn358 1.898 . S
O367 C361 1.167 . S
O368 Zn359 2.120 . S
O368 C361 1.299 . S
O369 Zn357 1.898 . S
O369 C364 1.167 . S
O370 Zn359 2.120 . S
O370 C364 1.299 . S
O371 Zn359 2.114 . S
O371 C373 1.166 . S
O372 Zn357 1.905 . S
O372 C373 1.182 . S
C373 O371 1.166 . S
C373 O372 1.182 . S
O374 Zn359 2.080 . S
O374 C377 1.305 . S
O375 Zn358 1.920 . S
O375 C377 1.234 . S
C376 O362 1.305 . S
C376 O363 1.234 . S
C377 O374 1.305 . S
C377 O375 1.234 . S
Zn378 O384 1.920 . S
Zn378 O390 1.898 . S
Zn378 O393 1.905 . S
Zn379 O387 1.905 . S
Zn379 O388 1.898 . S
Zn379 O396 1.920 . S
Zn380 O383 2.080 . S
Zn380 O386 2.114 . S
Zn380 O389 2.120 . S
Zn380 O391 2.120 . S
Zn380 O392 2.114 . S
Zn380 O395 2.080 . S
C381 O386 1.166 . S
C381 O387 1.182 . S
C382 O388 1.167 . S
C382 O389 1.299 . S
O383 Zn380 2.080 . S
O383 C397 1.305 . S
O384 Zn378 1.920 . S
O384 C397 1.234 . S
C385 O390 1.167 . S
C385 O391 1.299 . S
O386 Zn380 2.114 . S
O386 C381 1.166 . S
O387 Zn379 1.905 . S
O387 C381 1.182 . S
O388 Zn379 1.898 . S
O388 C382 1.167 . S
O389 Zn380 2.120 . S
O389 C382 1.299 . S
O390 Zn378 1.898 . S
O390 C385 1.167 . S
O391 Zn380 2.120 . S
O391 C385 1.299 . S
O392 Zn380 2.114 . S
O392 C394 1.166 . S
O393 Zn378 1.905 . S
O393 C394 1.182 . S
C394 O392 1.166 . S
C394 O393 1.182 . S
O395 Zn380 2.080 . S
O395 C398 1.305 . S
O396 Zn379 1.920 . S
O396 C398 1.234 . S
C397 O383 1.305 . S
C397 O384 1.234 . S
C398 O395 1.305 . S
C398 O396 1.234 . S
Zn399 O405 1.920 . S
Zn399 O411 1.898 . S
Zn399 O414 1.905 . S
Zn400 O408 1.905 . S
Zn400 O409 1.898 . S
Zn400 O417 1.920 . S
Zn401 O404 2.080 . S
Zn401 O407 2.114 . S
Zn401 O410 2.120 . S
Zn401 O412 2.120 . S
Zn401 O413 2.114 . S
Zn401 O416 2.080 . S
C402 O407 1.166 . S
C402 O408 1.182 . S
C403 O409 1.167 . S
C403 O410 1.299 . S
O404 Zn401 2.080 . S
O404 C418 1.305 1_556 S
O405 Zn399 1.920 . S
O405 C418 1.234 . S
C406 O411 1.167 . S
C406 O412 1.299 1_554 S
O407 Zn401 2.114 . S
O407 C402 1.166 . S
O408 Zn400 1.905 . S
O408 C402 1.182 . S
O409 Zn400 1.898 . S
O409 C403 1.167 . S
O410 Zn401 2.120 . S
O410 C403 1.299 . S
O411 Zn399 1.898 . S
O411 C406 1.167 . S
O412 Zn401 2.120 . S
O412 C406 1.299 1_556 S
O413 Zn401 2.114 . S
O413 C415 1.166 1_556 S
O414 Zn399 1.905 . S
O414 C415 1.182 . S
C415 O413 1.166 1_554 S
C415 O414 1.182 . S
O416 Zn401 2.080 . S
O416 C419 1.305 . S
O417 Zn400 1.920 . S
O417 C419 1.234 . S
C418 O404 1.305 1_554 S
C418 O405 1.234 . S
C419 O416 1.305 . S
C419 O417 1.234 . S
Zn420 O426 1.920 . S
Zn420 O432 1.898 . S
Zn420 O435 1.905 . S
Zn421 O429 1.905 . S
Zn421 O430 1.898 . S
Zn421 O438 1.920 . S
Zn422 O425 2.080 . S
Zn422 O428 2.114 . S
Zn422 O431 2.120 . S
Zn422 O433 2.120 . S
Zn422 O434 2.114 . S
Zn422 O437 2.080 . S
C423 O428 1.166 . S
C423 O429 1.182 . S
C424 O430 1.167 . S
C424 O431 1.299 . S
O425 Zn422 2.080 . S
O425 C439 1.305 . S
O426 Zn420 1.920 . S
O426 C439 1.234 . S
C427 O432 1.167 . S
C427 O433 1.299 . S
O428 Zn422 2.114 . S
O428 C423 1.166 . S
O429 Zn421 1.905 . S
O429 C423 1.182 . S
O430 Zn421 1.898 . S
O430 C424 1.167 . S
O431 Zn422 2.120 . S
O431 C424 1.299 . S
O432 Zn420 1.898 . S
O432 C427 1.167 . S
O433 Zn422 2.120 . S
O433 C427 1.299 . S
O434 Zn422 2.114 . S
O434 C436 1.166 . S
O435 Zn420 1.905 . S
O435 C436 1.182 . S
C436 O434 1.166 . S
C436 O435 1.182 . S
O437 Zn422 2.080 . S
O437 C440 1.305 . S
O438 Zn421 1.920 . S
O438 C440 1.234 . S
C439 O425 1.305 . S
C439 O426 1.234 . S
C440 O437 1.305 . S
C440 O438 1.234 . S
Zn441 O447 1.920 . S
Zn441 O453 1.898 . S
Zn441 O456 1.905 . S
Zn442 O450 1.905 . S
Zn442 O451 1.898 . S
Zn442 O459 1.920 . S
Zn443 O446 2.080 . S
Zn443 O449 2.114 . S
Zn443 O452 2.120 . S
Zn443 O454 2.120 . S
Zn443 O455 2.114 . S
Zn443 O458 2.080 . S
C444 O449 1.166 1_556 S
C444 O450 1.182 . S
C445 O451 1.167 . S
C445 O452 1.299 1_556 S
O446 Zn443 2.080 . S
O446 C460 1.305 . S
O447 Zn441 1.920 . S
O447 C460 1.234 . S
C448 O453 1.167 . S
C448 O454 1.299 . S
O449 Zn443 2.114 . S
O449 C444 1.166 1_554 S
O450 Zn442 1.905 . S
O450 C444 1.182 . S
O451 Zn442 1.898 . S
O451 C445 1.167 . S
O452 Zn443 2.120 . S
O452 C445 1.299 1_554 S
O453 Zn441 1.898 . S
O453 C448 1.167 . S
O454 Zn443 2.120 . S
O454 C448 1.299 . S
O455 Zn443 2.114 . S
O455 C457 1.166 . S
O456 Zn441 1.905 . S
O456 C457 1.182 . S
C457 O455 1.166 . S
C457 O456 1.182 . S
O458 Zn443 2.080 . S
O458 C461 1.305 1_554 S
O459 Zn442 1.920 . S
O459 C461 1.234 . S
C460 O446 1.305 . S
C460 O447 1.234 . S
C461 O458 1.305 1_556 S
C461 O459 1.234 . S
Zn462 O468 1.920 . S
Zn462 O474 1.898 . S
Zn462 O477 1.905 . S
Zn463 O471 1.905 . S
Zn463 O472 1.898 . S
Zn463 O480 1.920 . S
Zn464 O467 2.080 . S
Zn464 O470 2.114 . S
Zn464 O473 2.120 . S
Zn464 O475 2.120 . S
Zn464 O476 2.114 . S
Zn464 O479 2.080 . S
C465 O470 1.166 . S
C465 O471 1.182 . S
C466 O472 1.167 . S
C466 O473 1.299 . S
O467 Zn464 2.080 . S
O467 C481 1.305 . S
O468 Zn462 1.920 . S
O468 C481 1.234 . S
C469 O474 1.167 . S
C469 O475 1.299 . S
O470 Zn464 2.114 . S
O470 C465 1.166 . S
O471 Zn463 1.905 . S
O471 C465 1.182 . S
O472 Zn463 1.898 . S
O472 C466 1.167 . S
O473 Zn464 2.120 . S
O473 C466 1.299 . S
O474 Zn462 1.898 . S
O474 C469 1.167 . S
O475 Zn464 2.120 . S
O475 C469 1.299 . S
O476 Zn464 2.114 . S
O476 C478 1.166 . S
O477 Zn462 1.905 . S
O477 C478 1.182 . S
C478 O476 1.166 . S
C478 O477 1.182 . S
O479 Zn464 2.080 . S
O479 C482 1.305 . S
O480 Zn463 1.920 . S
O480 C482 1.234 . S
C481 O467 1.305 . S
C481 O468 1.234 . S
C482 O479 1.305 . S
C482 O480 1.234 . S
Zn483 O489 1.920 . S
Zn483 O495 1.898 . S
Zn483 O498 1.905 . S
Zn484 O492 1.905 . S
Zn484 O493 1.898 . S
Zn484 O501 1.920 . S
Zn485 O488 2.080 . S
Zn485 O491 2.114 . S
Zn485 O494 2.120 . S
Zn485 O496 2.120 . S
Zn485 O497 2.114 . S
Zn485 O500 2.080 . S
C486 O491 1.166 . S
C486 O492 1.182 . S
C487 O493 1.167 . S
C487 O494 1.299 . S
O488 Zn485 2.080 . S
O488 C502 1.305 . S
O489 Zn483 1.920 . S
O489 C502 1.234 . S
C490 O495 1.167 . S
C490 O496 1.299 . S
O491 Zn485 2.114 . S
O491 C486 1.166 . S
O492 Zn484 1.905 . S
O492 C486 1.182 . S
O493 Zn484 1.898 . S
O493 C487 1.167 . S
O494 Zn485 2.120 . S
O494 C487 1.299 . S
O495 Zn483 1.898 . S
O495 C490 1.167 . S
O496 Zn485 2.120 . S
O496 C490 1.299 . S
O497 Zn485 2.114 . S
O497 C499 1.166 . S
O498 Zn483 1.905 . S
O498 C499 1.182 . S
C499 O497 1.166 . S
C499 O498 1.182 . S
O500 Zn485 2.080 . S
O500 C503 1.305 . S
O501 Zn484 1.920 . S
O501 C503 1.234 . S
C502 O488 1.305 . S
C502 O489 1.234 . S
C503 O500 1.305 . S
C503 O501 1.234 . S
H504 C512 0.950 . S
H505 C517 0.950 . S
H506 C514 0.950 . S
H507 C516 0.950 . S
H508 C518 0.950 . S
H509 C520 0.950 . S
H510 C522 0.950 . S
H511 C523 0.950 . S
C512 H504 0.950 . S
C512 C513 1.386 . S
C512 C514 1.391 . S
C513 C512 1.386 . S
C513 C517 1.393 . S
C514 H506 0.950 . S
C514 C512 1.391 . S
C514 C515 1.400 . S
C515 C514 1.400 . S
C515 C516 1.398 . S
C515 C521 1.491 . S
C516 H507 0.950 . S
C516 C515 1.398 . S
C516 C517 1.391 . S
C517 H505 0.950 . S
C517 C513 1.393 . S
C517 C516 1.391 . S
C518 H508 0.950 . S
C518 C519 1.386 . S
C518 C520 1.391 . S
C519 C518 1.386 . S
C519 C523 1.393 . S
C520 H509 0.950 . S
C520 C518 1.391 . S
C520 C521 1.400 . S
C521 C515 1.491 . S
C521 C520 1.400 . S
C521 C522 1.398 . S
C522 H510 0.950 . S
C522 C521 1.398 . S
C522 C523 1.391 . S
C523 H511 0.950 . S
C523 C519 1.393 . S
C523 C522 1.391 . S
H524 C532 0.950 1_565 S
H525 C537 0.950 . S
H526 C534 0.950 1_565 S
H527 C536 0.950 . S
H528 C538 0.950 . S
H529 C540 0.950 . S
H530 C542 0.948 . S
H531 C543 0.950 . S
C532 H524 0.950 1_545 S
C532 C533 1.386 . S
C532 C534 1.391 . S
C533 C532 1.386 . S
C533 C537 1.393 . S
C534 H526 0.950 1_545 S
C534 C532 1.391 . S
C534 C535 1.400 . S
C535 C534 1.400 . S
C535 C536 1.398 . S
C535 C541 1.491 . S
C536 H527 0.950 . S
C536 C535 1.398 . S
C536 C537 1.391 . S
C537 H525 0.950 . S
C537 C533 1.393 . S
C537 C536 1.391 . S
C538 H528 0.950 . S
C538 C539 1.386 . S
C538 C540 1.391 . S
C539 C538 1.386 . S
C539 C543 1.393 . S
C540 H529 0.950 . S
C540 C538 1.391 . S
C540 C541 1.400 . S
C541 C535 1.491 . S
C541 C540 1.400 . S
C541 C542 1.398 . S
C542 H530 0.948 . S
C542 C541 1.398 . S
C542 C543 1.391 . S
C543 H531 0.950 . S
C543 C539 1.393 . S
C543 C542 1.391 . S
H544 C552 0.950 . S
H545 C557 0.950 . S
H546 C554 0.950 . S
H547 C556 0.950 . S
H548 C558 0.950 . S
H549 C560 0.950 . S
H550 C562 0.950 . S
H551 C563 0.950 . S
C552 H544 0.950 . S
C552 C553 1.386 . S
C552 C554 1.391 . S
C553 C552 1.386 . S
C553 C557 1.393 1_455 S
C554 H546 0.950 . S
C554 C552 1.391 . S
C554 C555 1.400 . S
C555 C554 1.400 . S
C555 C556 1.398 1_455 S
C555 C561 1.491 . S
C556 H547 0.950 . S
C556 C555 1.398 1_655 S
C556 C557 1.391 . S
C557 H545 0.950 . S
C557 C553 1.393 1_655 S
C557 C556 1.391 . S
C558 H548 0.950 . S
C558 C559 1.386 1_655 S
C558 C560 1.391 . S
C559 C558 1.386 1_455 S
C559 C563 1.393 . S
C560 H549 0.950 . S
C560 C558 1.391 . S
C560 C561 1.400 1_655 S
C561 C555 1.491 . S
C561 C560 1.400 1_455 S
C561 C562 1.398 . S
C562 H550 0.950 . S
C562 C561 1.398 . S
C562 C563 1.391 . S
C563 H551 0.950 . S
C563 C559 1.393 . S
C563 C562 1.391 . S
H564 C572 0.950 . S
H565 C577 0.950 . S
H566 C574 0.950 . S
H567 C576 0.950 . S
H568 C578 0.950 . S
H569 C580 0.950 . S
H570 C582 0.950 . S
H571 C583 0.950 . S
C572 H564 0.950 . S
C572 C573 1.386 . S
C572 C574 1.391 . S
C573 C572 1.386 . S
C573 C577 1.393 . S
C574 H566 0.950 . S
C574 C572 1.391 . S
C574 C575 1.400 . S
C575 C574 1.400 . S
C575 C576 1.398 . S
C575 C581 1.491 . S
C576 H567 0.950 . S
C576 C575 1.398 . S
C576 C577 1.391 . S
C577 H565 0.950 . S
C577 C573 1.393 . S
C577 C576 1.391 . S
C578 H568 0.950 . S
C578 C579 1.386 . S
C578 C580 1.391 . S
C579 C578 1.386 . S
C579 C583 1.393 . S
C580 H569 0.950 . S
C580 C578 1.391 . S
C580 C581 1.400 . S
C581 C575 1.491 . S
C581 C580 1.400 . S
C581 C582 1.398 . S
C582 H570 0.950 . S
C582 C581 1.398 . S
C582 C583 1.391 . S
C583 H571 0.950 . S
C583 C579 1.393 . S
C583 C582 1.391 . S
H584 C592 0.950 . S
H585 C597 0.950 . S
H586 C594 0.950 . S
H587 C596 0.950 . S
H588 C598 0.950 . S
H589 C600 0.950 . S
H590 C602 0.950 . S
H591 C603 0.950 . S
C592 H584 0.950 . S
C592 C593 1.386 1_565 S
C592 C594 1.391 . S
C593 C592 1.386 1_545 S
C593 C597 1.393 . S
C594 H586 0.950 . S
C594 C592 1.391 . S
C594 C595 1.400 1_565 S
C595 C594 1.400 1_545 S
C595 C596 1.398 . S
C595 C601 1.491 . S
C596 H587 0.950 . S
C596 C595 1.398 . S
C596 C597 1.391 . S
C597 H585 0.950 . S
C597 C593 1.393 . S
C597 C596 1.391 . S
C598 H588 0.950 . S
C598 C599 1.362 1_545 S
C598 C600 1.391 . S
C599 C598 1.362 1_565 S
C599 C603 1.406 . S
C600 H589 0.950 . S
C600 C598 1.391 . S
C600 C601 1.400 . S
C601 C595 1.491 . S
C601 C600 1.400 . S
C601 C602 1.398 1_545 S
C602 H590 0.950 . S
C602 C601 1.398 1_565 S
C602 C603 1.391 . S
C603 H591 0.950 . S
C603 C599 1.406 . S
C603 C602 1.391 . S
H604 C612 0.950 . S
H605 C617 0.950 . S
H606 C614 0.950 . S
H607 C616 0.950 . S
H608 C618 0.950 . S
H609 C620 0.950 . S
H610 C622 0.950 . S
H611 C623 0.950 . S
C612 H604 0.950 . S
C612 C613 1.386 1_655 S
C612 C614 1.391 . S
C613 C612 1.386 1_455 S
C613 C617 1.393 . S
C614 H606 0.950 . S
C614 C612 1.391 . S
C614 C615 1.400 1_655 S
C615 C614 1.400 1_455 S
C615 C616 1.398 . S
C615 C621 1.491 . S
C616 H607 0.950 . S
C616 C615 1.398 . S
C616 C617 1.391 . S
C617 H605 0.950 . S
C617 C613 1.393 . S
C617 C616 1.391 . S
C618 H608 0.950 . S
C618 C619 1.386 . S
C618 C620 1.391 . S
C619 C618 1.386 . S
C619 C623 1.393 1_455 S
C620 H609 0.950 . S
C620 C618 1.391 . S
C620 C621 1.400 . S
C621 C615 1.491 . S
C621 C620 1.400 . S
C621 C622 1.398 1_455 S
C622 H610 0.950 . S
C622 C621 1.398 1_655 S
C622 C623 1.391 . S
C623 H611 0.950 . S
C623 C619 1.393 1_655 S
C623 C622 1.391 . S
H624 C632 0.950 . S
H625 C637 0.950 . S
H626 C634 0.950 . S
H627 C636 0.950 . S
H628 C638 0.950 . S
H629 C640 0.950 . S
H630 C642 0.950 . S
H631 C643 0.950 . S
C632 H624 0.950 . S
C632 C633 1.386 . S
C632 C634 1.391 . S
C633 C632 1.386 . S
C633 C637 1.393 . S
C634 H626 0.950 . S
C634 C632 1.391 . S
C634 C635 1.400 . S
C635 C634 1.400 . S
C635 C636 1.398 . S
C635 C641 1.491 . S
C636 H627 0.950 . S
C636 C635 1.398 . S
C636 C637 1.391 . S
C637 H625 0.950 . S
C637 C633 1.393 . S
C637 C636 1.391 . S
C638 H628 0.950 . S
C638 C639 1.386 . S
C638 C640 1.391 . S
C639 C638 1.386 . S
C639 C643 1.393 . S
C640 H629 0.950 . S
C640 C638 1.391 . S
C640 C641 1.400 . S
C641 C635 1.491 . S
C641 C640 1.400 . S
C641 C642 1.398 . S
C642 H630 0.950 . S
C642 C641 1.398 . S
C642 C643 1.391 . S
C643 H631 0.950 . S
C643 C639 1.393 . S
C643 C642 1.391 . S
H644 C652 0.950 . S
H645 C657 0.950 . S
H646 C654 0.950 . S
H647 C656 0.950 . S
H648 C658 0.950 . S
H649 C660 0.950 . S
H650 C662 0.950 . S
H651 C663 0.950 . S
C652 H644 0.950 . S
C652 C653 1.386 . S
C652 C654 1.391 . S
C653 C652 1.386 . S
C653 C657 1.393 1_545 S
C654 H646 0.950 . S
C654 C652 1.391 . S
C654 C655 1.400 . S
C655 C654 1.400 . S
C655 C656 1.398 1_545 S
C655 C661 1.491 . S
C656 H647 0.950 . S
C656 C655 1.398 1_565 S
C656 C657 1.391 . S
C657 H645 0.950 . S
C657 C653 1.393 1_565 S
C657 C656 1.391 . S
C658 H648 0.950 . S
C658 C659 1.386 1_565 S
C658 C660 1.391 . S
C659 C658 1.386 1_545 S
C659 C663 1.393 . S
C660 H649 0.950 . S
C660 C658 1.391 . S
C660 C661 1.400 1_565 S
C661 C655 1.491 . S
C661 C660 1.400 1_545 S
C661 C662 1.398 . S
C662 H650 0.950 . S
C662 C661 1.398 . S
C662 C663 1.391 . S
C663 H651 0.950 . S
C663 C659 1.393 . S
C663 C662 1.391 . S
H664 C672 0.950 . S
H665 C677 0.950 . S
H666 C674 0.950 . S
H667 C676 0.950 . S
H668 C678 0.950 . S
H669 C680 0.950 . S
H670 C682 0.950 . S
H671 C683 0.950 . S
C672 H664 0.950 . S
C672 C673 1.386 . S
C672 C674 1.391 . S
C673 C672 1.386 . S
C673 C677 1.393 1_455 S
C674 H666 0.950 . S
C674 C672 1.391 . S
C674 C675 1.400 . S
C675 C674 1.400 . S
C675 C676 1.398 1_455 S
C675 C681 1.491 . S
C676 H667 0.950 . S
C676 C675 1.398 1_655 S
C676 C677 1.391 . S
C677 H665 0.950 . S
C677 C673 1.393 1_655 S
C677 C676 1.391 . S
C678 H668 0.950 . S
C678 C679 1.386 1_655 S
C678 C680 1.391 . S
C679 C678 1.386 1_455 S
C679 C683 1.393 . S
C680 H669 0.950 . S
C680 C678 1.391 . S
C680 C681 1.400 1_655 S
C681 C675 1.491 . S
C681 C680 1.400 1_455 S
C681 C682 1.398 . S
C682 H670 0.950 . S
C682 C681 1.398 . S
C682 C683 1.391 . S
C683 H671 0.950 . S
C683 C679 1.393 . S
C683 C682 1.391 . S
H684 C692 0.950 . S
H685 C697 0.950 . S
H686 C694 0.950 . S
H687 C696 0.950 . S
H688 C698 0.950 . S
H689 C700 0.950 . S
H690 C702 0.950 . S
H691 C703 0.950 . S
C692 H684 0.950 . S
C692 C693 1.386 . S
C692 C694 1.391 . S
C693 C692 1.386 . S
C693 C697 1.393 . S
C694 H686 0.950 . S
C694 C692 1.391 . S
C694 C695 1.400 . S
C695 C694 1.400 . S
C695 C696 1.398 . S
C695 C701 1.491 . S
C696 H687 0.950 . S
C696 C695 1.398 . S
C696 C697 1.391 . S
C697 H685 0.950 . S
C697 C693 1.393 . S
C697 C696 1.391 . S
C698 H688 0.950 . S
C698 C699 1.386 . S
C698 C700 1.391 . S
C699 C698 1.386 . S
C699 C703 1.393 . S
C700 H689 0.950 . S
C700 C698 1.391 . S
C700 C701 1.400 . S
C701 C695 1.491 . S
C701 C700 1.400 . S
C701 C702 1.398 . S
C702 H690 0.950 . S
C702 C701 1.398 . S
C702 C703 1.391 . S
C703 H691 0.950 . S
C703 C699 1.393 . S
C703 C702 1.391 . S
H704 C712 0.950 . S
H705 C717 0.950 . S
H706 C714 0.950 . S
H707 C716 0.950 . S
H708 C718 0.950 . S
H709 C720 0.950 . S
H710 C722 0.950 . S
H711 C723 0.950 . S
C712 H704 0.950 . S
C712 C713 1.386 . S
C712 C714 1.391 . S
C713 C712 1.386 . S
C713 C717 1.393 1_545 S
C714 H706 0.950 . S
C714 C712 1.391 . S
C714 C715 1.400 . S
C715 C714 1.400 . S
C715 C716 1.398 1_545 S
C715 C721 1.491 . S
C716 H707 0.950 . S
C716 C715 1.398 1_565 S
C716 C717 1.391 . S
C717 H705 0.950 . S
C717 C713 1.393 1_565 S
C717 C716 1.391 . S
C718 H708 0.950 . S
C718 C719 1.386 1_565 S
C718 C720 1.391 . S
C719 C718 1.386 1_545 S
C719 C723 1.393 . S
C720 H709 0.950 . S
C720 C718 1.391 . S
C720 C721 1.400 1_565 S
C721 C715 1.491 . S
C721 C720 1.400 1_545 S
C721 C722 1.398 . S
C722 H710 0.950 . S
C722 C721 1.398 . S
C722 C723 1.391 . S
C723 H711 0.950 . S
C723 C719 1.393 . S
C723 C722 1.391 . S
H724 C732 0.950 . S
H725 C737 0.950 . S
H726 C734 0.950 . S
H727 C736 0.950 . S
H728 C738 0.950 . S
H729 C740 0.950 . S
H730 C742 0.950 . S
H731 C743 0.950 . S
C732 H724 0.950 . S
C732 C733 1.386 1_655 S
C732 C734 1.391 . S
C733 C732 1.386 1_455 S
C733 C737 1.393 . S
C734 H726 0.950 . S
C734 C732 1.391 . S
C734 C735 1.400 1_655 S
C735 C734 1.400 1_455 S
C735 C736 1.398 . S
C735 C741 1.491 . S
C736 H727 0.950 . S
C736 C735 1.398 . S
C736 C737 1.391 . S
C737 H725 0.950 . S
C737 C733 1.393 . S
C737 C736 1.391 . S
C738 H728 0.950 . S
C738 C739 1.386 . S
C738 C740 1.391 . S
C739 C738 1.386 . S
C739 C743 1.393 1_455 S
C740 H729 0.950 . S
C740 C738 1.391 . S
C740 C741 1.400 . S
C741 C735 1.491 . S
C741 C740 1.400 . S
C741 C742 1.398 1_455 S
C742 H730 0.950 . S
C742 C741 1.398 1_655 S
C742 C743 1.391 . S
C743 H731 0.950 . S
C743 C739 1.393 1_655 S
C743 C742 1.391 . S
H744 C752 0.950 . S
H745 C757 0.950 . S
H746 C754 0.950 . S
H747 C756 0.950 . S
H748 C758 0.950 . S
H749 C760 0.950 . S
H750 C762 0.950 . S
H751 C763 0.950 . S
C752 H744 0.950 . S
C752 C753 1.386 . S
C752 C754 1.391 . S
C753 C752 1.386 . S
C753 C757 1.393 . S
C754 H746 0.950 . S
C754 C752 1.391 . S
C754 C755 1.400 . S
C755 C754 1.400 . S
C755 C756 1.398 . S
C755 C761 1.491 . S
C756 H747 0.950 . S
C756 C755 1.398 . S
C756 C757 1.391 . S
C757 H745 0.950 . S
C757 C753 1.393 . S
C757 C756 1.391 . S
C758 H748 0.950 . S
C758 C759 1.386 . S
C758 C760 1.391 . S
C759 C758 1.386 . S
C759 C763 1.393 . S
C760 H749 0.950 . S
C760 C758 1.391 . S
C760 C761 1.400 . S
C761 C755 1.491 . S
C761 C760 1.400 . S
C761 C762 1.398 . S
C762 H750 0.950 . S
C762 C761 1.398 . S
C762 C763 1.391 . S
C763 H751 0.950 . S
C763 C759 1.393 . S
C763 C762 1.391 . S
H764 C772 0.950 . S
H765 C777 0.950 . S
H766 C774 0.950 . S
H767 C776 0.950 . S
H768 C778 0.950 . S
H769 C780 0.950 . S
H770 C782 0.950 . S
H771 C783 0.950 . S
C772 H764 0.950 . S
C772 C773 1.386 . S
C772 C774 1.391 . S
C773 C772 1.386 . S
C773 C777 1.393 . S
C774 H766 0.950 . S
C774 C772 1.391 . S
C774 C775 1.400 . S
C775 C774 1.400 . S
C775 C776 1.398 . S
C775 C781 1.491 . S
C776 H767 0.950 . S
C776 C775 1.398 . S
C776 C777 1.391 . S
C777 H765 0.950 . S
C777 C773 1.393 . S
C777 C776 1.391 . S
C778 H768 0.950 . S
C778 C779 1.386 . S
C778 C780 1.391 . S
C779 C778 1.386 . S
C779 C783 1.393 . S
C780 H769 0.950 . S
C780 C778 1.391 . S
C780 C781 1.400 . S
C781 C775 1.491 . S
C781 C780 1.400 . S
C781 C782 1.398 . S
C782 H770 0.950 . S
C782 C781 1.398 . S
C782 C783 1.391 . S
C783 H771 0.950 . S
C783 C779 1.393 . S
C783 C782 1.391 . S
H784 C792 0.950 . S
H785 C797 0.950 . S
H786 C794 0.950 . S
H787 C796 0.950 . S
H788 C798 0.950 . S
H789 C800 0.950 . S
H790 C802 0.950 . S
H791 C803 0.950 . S
C792 H784 0.950 . S
C792 C793 1.386 . S
C792 C794 1.391 . S
C793 C792 1.386 . S
C793 C797 1.393 . S
C794 H786 0.950 . S
C794 C792 1.391 . S
C794 C795 1.400 . S
C795 C794 1.400 . S
C795 C796 1.398 . S
C795 C801 1.491 . S
C796 H787 0.950 . S
C796 C795 1.398 . S
C796 C797 1.391 . S
C797 H785 0.950 . S
C797 C793 1.393 . S
C797 C796 1.391 . S
C798 H788 0.950 . S
C798 C799 1.386 . S
C798 C800 1.391 . S
C799 C798 1.386 . S
C799 C803 1.393 . S
C800 H789 0.950 . S
C800 C798 1.391 . S
C800 C801 1.400 . S
C801 C795 1.491 . S
C801 C800 1.400 . S
C801 C802 1.398 . S
C802 H790 0.950 . S
C802 C801 1.398 . S
C802 C803 1.391 . S
C803 H791 0.950 . S
C803 C799 1.393 . S
C803 C802 1.391 . S
H804 C812 0.950 . S
H805 C817 0.950 . S
H806 C814 0.950 . S
H807 C816 0.950 . S
H808 C818 0.950 . S
H809 C820 0.950 . S
H810 C822 0.950 . S
H811 C823 0.950 . S
C812 H804 0.950 . S
C812 C813 1.386 . S
C812 C814 1.391 . S
C813 C812 1.386 . S
C813 C817 1.393 . S
C814 H806 0.950 . S
C814 C812 1.391 . S
C814 C815 1.400 . S
C815 C814 1.400 . S
C815 C816 1.398 . S
C815 C821 1.491 . S
C816 H807 0.950 . S
C816 C815 1.398 . S
C816 C817 1.391 . S
C817 H805 0.950 . S
C817 C813 1.393 . S
C817 C816 1.391 . S
C818 H808 0.950 . S
C818 C819 1.386 . S
C818 C820 1.391 . S
C819 C818 1.386 . S
C819 C823 1.393 . S
C820 H809 0.950 . S
C820 C818 1.391 . S
C820 C821 1.400 . S
C821 C815 1.491 . S
C821 C820 1.400 . S
C821 C822 1.398 . S
C822 H810 0.950 . S
C822 C821 1.398 . S
C822 C823 1.391 . S
C823 H811 0.950 . S
C823 C819 1.393 . S
C823 C822 1.391 . S
H824 C832 0.950 . S
H825 C837 0.950 . S
H826 C834 0.950 . S
H827 C836 0.950 . S
H828 C838 0.950 . S
H829 C840 0.950 . S
H830 C842 0.950 . S
H831 C843 0.950 . S
C832 H824 0.950 . S
C832 C833 1.386 . S
C832 C834 1.391 . S
C833 C832 1.386 . S
C833 C837 1.393 . S
C834 H826 0.950 . S
C834 C832 1.391 . S
C834 C835 1.400 . S
C835 C834 1.400 . S
C835 C836 1.398 . S
C835 C841 1.491 . S
C836 H827 0.950 . S
C836 C835 1.398 . S
C836 C837 1.391 . S
C837 H825 0.950 . S
C837 C833 1.393 . S
C837 C836 1.391 . S
C838 H828 0.950 . S
C838 C839 1.386 . S
C838 C840 1.391 . S
C839 C838 1.386 . S
C839 C843 1.393 . S
C840 H829 0.950 . S
C840 C838 1.391 . S
C840 C841 1.400 . S
C841 C835 1.491 . S
C841 C840 1.400 . S
C841 C842 1.398 . S
C842 H830 0.950 . S
C842 C841 1.398 . S
C842 C843 1.391 . S
C843 H831 0.950 . S
C843 C839 1.393 . S
C843 C842 1.391 . S
H844 C852 0.950 . S
H845 C857 0.950 . S
H846 C854 0.950 . S
H847 C856 0.950 . S
H848 C858 0.950 . S
H849 C860 0.950 . S
H850 C862 0.950 . S
H851 C863 0.950 . S
C852 H844 0.950 . S
C852 C853 1.386 . S
C852 C854 1.391 . S
C853 C852 1.386 . S
C853 C857 1.393 . S
C854 H846 0.950 . S
C854 C852 1.391 . S
C854 C855 1.400 . S
C855 C854 1.400 . S
C855 C856 1.398 . S
C855 C861 1.491 . S
C856 H847 0.950 . S
C856 C855 1.398 . S
C856 C857 1.391 . S
C857 H845 0.950 . S
C857 C853 1.393 . S
C857 C856 1.391 . S
C858 H848 0.950 . S
C858 C859 1.386 . S
C858 C860 1.391 . S
C859 C858 1.386 . S
C859 C863 1.393 . S
C860 H849 0.950 . S
C860 C858 1.391 . S
C860 C861 1.400 . S
C861 C855 1.491 . S
C861 C860 1.400 . S
C861 C862 1.398 . S
C862 H850 0.950 . S
C862 C861 1.398 . S
C862 C863 1.391 . S
C863 H851 0.950 . S
C863 C859 1.393 . S
C863 C862 1.391 . S
H864 C872 0.950 . S
H865 C877 0.950 . S
H866 C874 0.950 . S
H867 C876 0.950 . S
H868 C878 0.950 . S
H869 C880 0.950 . S
H870 C882 0.950 . S
H871 C883 0.950 . S
C872 H864 0.950 . S
C872 C873 1.386 . S
C872 C874 1.391 . S
C873 C872 1.386 . S
C873 C877 1.393 . S
C874 H866 0.950 . S
C874 C872 1.391 . S
C874 C875 1.400 . S
C875 C874 1.400 . S
C875 C876 1.398 . S
C875 C881 1.491 . S
C876 H867 0.950 . S
C876 C875 1.398 . S
C876 C877 1.391 . S
C877 H865 0.950 . S
C877 C873 1.393 . S
C877 C876 1.391 . S
C878 H868 0.950 . S
C878 C879 1.386 . S
C878 C880 1.391 . S
C879 C878 1.386 . S
C879 C883 1.393 . S
C880 H869 0.950 . S
C880 C878 1.391 . S
C880 C881 1.400 . S
C881 C875 1.491 . S
C881 C880 1.400 . S
C881 C882 1.398 . S
C882 H870 0.950 . S
C882 C881 1.398 . S
C882 C883 1.391 . S
C883 H871 0.950 . S
C883 C879 1.393 . S
C883 C882 1.391 . S
H884 C892 0.950 . S
H885 C897 0.950 . S
H886 C894 0.950 . S
H887 C896 0.950 . S
H888 C898 0.950 . S
H889 C900 0.950 . S
H890 C902 0.950 . S
H891 C903 0.950 . S
C892 H884 0.950 . S
C892 C893 1.386 . S
C892 C894 1.391 . S
C893 C892 1.386 . S
C893 C897 1.393 . S
C894 H886 0.950 . S
C894 C892 1.391 . S
C894 C895 1.400 . S
C895 C894 1.400 . S
C895 C896 1.398 . S
C895 C901 1.491 . S
C896 H887 0.950 . S
C896 C895 1.398 . S
C896 C897 1.391 . S
C897 H885 0.950 . S
C897 C893 1.393 . S
C897 C896 1.391 . S
C898 H888 0.950 . S
C898 C899 1.386 . S
C898 C900 1.391 . S
C899 C898 1.386 . S
C899 C903 1.393 . S
C900 H889 0.950 . S
C900 C898 1.391 . S
C900 C901 1.400 . S
C901 C895 1.491 . S
C901 C900 1.400 . S
C901 C902 1.398 . S
C902 H890 0.950 . S
C902 C901 1.398 . S
C902 C903 1.391 . S
C903 H891 0.950 . S
C903 C899 1.393 . S
C903 C902 1.391 . S
H904 C912 0.950 . S
H905 C917 0.950 . S
H906 C914 0.950 . S
H907 C916 0.950 . S
H908 C918 0.950 . S
H909 C920 0.950 . S
H910 C922 0.950 . S
H911 C923 0.950 . S
C912 H904 0.950 . S
C912 C913 1.386 . S
C912 C914 1.391 . S
C913 C912 1.386 . S
C913 C917 1.393 . S
C914 H906 0.950 . S
C914 C912 1.391 . S
C914 C915 1.400 . S
C915 C914 1.400 . S
C915 C916 1.398 . S
C915 C921 1.491 . S
C916 H907 0.950 . S
C916 C915 1.398 . S
C916 C917 1.391 . S
C917 H905 0.950 . S
C917 C913 1.393 . S
C917 C916 1.391 . S
C918 H908 0.950 . S
C918 C919 1.386 . S
C918 C920 1.391 . S
C919 C918 1.386 . S
C919 C923 1.393 . S
C920 H909 0.950 . S
C920 C918 1.391 . S
C920 C921 1.400 . S
C921 C915 1.491 . S
C921 C920 1.400 . S
C921 C922 1.398 . S
C922 H910 0.950 . S
C922 C921 1.398 . S
C922 C923 1.391 . S
C923 H911 0.950 . S
C923 C919 1.393 . S
C923 C922 1.391 . S
H924 C932 0.950 . S
H925 C937 0.950 . S
H926 C934 0.950 . S
H927 C936 0.950 . S
H928 C938 0.950 . S
H929 C940 0.950 . S
H930 C942 0.950 . S
H931 C943 0.949 1_556 S
C932 H924 0.950 . S
C932 C933 1.386 . S
C932 C934 1.391 . S
C933 C932 1.386 . S
C933 C937 1.393 . S
C934 H926 0.950 . S
C934 C932 1.391 . S
C934 C935 1.400 . S
C935 C934 1.400 . S
C935 C936 1.398 . S
C935 C941 1.491 . S
C936 H927 0.950 . S
C936 C935 1.398 . S
C936 C937 1.391 . S
C937 H925 0.950 . S
C937 C933 1.393 . S
C937 C936 1.391 . S
C938 H928 0.950 . S
C938 C939 1.386 . S
C938 C940 1.391 . S
C939 C938 1.386 . S
C939 C943 1.393 . S
C940 H929 0.950 . S
C940 C938 1.391 . S
C940 C941 1.400 . S
C941 C935 1.491 . S
C941 C940 1.400 . S
C941 C942 1.398 . S
C942 H930 0.950 . S
C942 C941 1.398 . S
C942 C943 1.391 . S
C943 H931 0.949 1_554 S
C943 C939 1.393 . S
C943 C942 1.391 . S
H944 C952 0.950 . S
H945 C957 0.950 . S
H946 C954 0.950 . S
H947 C956 0.950 . S
H948 C958 0.950 . S
H949 C960 0.950 . S
H950 C962 0.950 . S
H951 C963 0.950 1_556 S
C952 H944 0.950 . S
C952 C953 1.386 . S
C952 C954 1.391 . S
C953 C952 1.386 . S
C953 C957 1.393 . S
C954 H946 0.950 . S
C954 C952 1.391 . S
C954 C955 1.400 . S
C955 C954 1.400 . S
C955 C956 1.398 . S
C955 C961 1.491 . S
C956 H947 0.950 . S
C956 C955 1.398 . S
C956 C957 1.391 . S
C957 H945 0.950 . S
C957 C953 1.393 . S
C957 C956 1.391 . S
C958 H948 0.950 . S
C958 C959 1.386 . S
C958 C960 1.391 . S
C959 C958 1.386 . S
C959 C963 1.393 . S
C960 H949 0.950 . S
C960 C958 1.391 . S
C960 C961 1.400 . S
C961 C955 1.491 . S
C961 C960 1.400 . S
C961 C962 1.398 . S
C962 H950 0.950 . S
C962 C961 1.398 . S
C962 C963 1.391 . S
C963 H951 0.950 1_554 S
C963 C959 1.393 . S
C963 C962 1.391 . S
H964 C972 0.950 . S
H965 C977 0.950 . S
H966 C974 0.950 . S
H967 C976 0.950 . S
H968 C978 0.950 1_556 S
H969 C980 0.950 . S
H970 C982 0.950 . S
H971 C983 0.950 . S
C972 H964 0.950 . S
C972 C973 1.386 . S
C972 C974 1.391 . S
C973 C972 1.386 . S
C973 C977 1.393 . S
C974 H966 0.950 . S
C974 C972 1.391 . S
C974 C975 1.400 . S
C975 C974 1.400 . S
C975 C976 1.398 . S
C975 C981 1.491 . S
C976 H967 0.950 . S
C976 C975 1.398 . S
C976 C977 1.391 . S
C977 H965 0.950 . S
C977 C973 1.393 . S
C977 C976 1.391 . S
C978 H968 0.950 1_554 S
C978 C979 1.386 . S
C978 C980 1.391 . S
C979 C978 1.386 . S
C979 C983 1.393 . S
C980 H969 0.950 . S
C980 C978 1.391 . S
C980 C981 1.400 . S
C981 C975 1.491 . S
C981 C980 1.400 . S
C981 C982 1.398 . S
C982 H970 0.950 . S
C982 C981 1.398 . S
C982 C983 1.391 . S
C983 H971 0.950 . S
C983 C979 1.393 . S
C983 C982 1.391 . S
H984 C992 0.950 . S
H985 C997 0.950 . S
H986 C994 0.950 . S
H987 C996 0.950 . S
H988 C998 0.950 . S
H989 C1000 0.950 . S
H990 C1002 0.950 . S
H991 C1003 0.950 . S
C992 H984 0.950 . S
C992 C993 1.386 . S
C992 C994 1.391 . S
C993 C992 1.386 . S
C993 C997 1.393 . S
C994 H986 0.950 . S
C994 C992 1.391 . S
C994 C995 1.400 . S
C995 C994 1.400 . S
C995 C996 1.398 . S
C995 C1001 1.491 . S
C996 H987 0.950 . S
C996 C995 1.398 . S
C996 C997 1.391 . S
C997 H985 0.950 . S
C997 C993 1.393 . S
C997 C996 1.391 . S
C998 H988 0.950 . S
C998 C999 1.386 . S
C998 C1000 1.391 . S
C999 C998 1.386 . S
C999 C1003 1.393 . S
C1000 H989 0.950 . S
C1000 C998 1.391 . S
C1000 C1001 1.400 . S
C1001 C995 1.491 . S
C1001 C1000 1.400 . S
C1001 C1002 1.398 . S
C1002 H990 0.950 . S
C1002 C1001 1.398 . S
C1002 C1003 1.391 . S
C1003 H991 0.950 . S
C1003 C999 1.393 . S
C1003 C1002 1.391 . S
H1004 C1012 0.950 . S
H1005 C1017 0.950 . S
H1006 C1014 0.950 . S
H1007 C1016 0.950 . S
H1008 C1018 0.950 . S
H1009 C1020 0.950 . S
H1010 C1022 0.950 . S
H1011 C1023 0.950 . S
C1012 H1004 0.950 . S
C1012 C1013 1.386 . S
C1012 C1014 1.391 . S
C1013 C1012 1.386 . S
C1013 C1017 1.393 . S
C1014 H1006 0.950 . S
C1014 C1012 1.391 . S
C1014 C1015 1.400 . S
C1015 C1014 1.400 . S
C1015 C1016 1.398 . S
C1015 C1021 1.491 . S
C1016 H1007 0.950 . S
C1016 C1015 1.398 . S
C1016 C1017 1.391 . S
C1017 H1005 0.950 . S
C1017 C1013 1.393 . S
C1017 C1016 1.391 . S
C1018 H1008 0.950 . S
C1018 C1019 1.386 . S
C1018 C1020 1.391 . S
C1019 C1018 1.386 . S
C1019 C1023 1.393 . S
C1020 H1009 0.950 . S
C1020 C1018 1.391 . S
C1020 C1021 1.400 . S
C1021 C1015 1.491 . S
C1021 C1020 1.400 . S
C1021 C1022 1.398 . S
C1022 H1010 0.950 . S
C1022 C1021 1.398 . S
C1022 C1023 1.391 . S
C1023 H1011 0.950 . S
C1023 C1019 1.393 . S
C1023 C1022 1.391 . S
H1024 C1032 0.950 . S
H1025 C1037 0.950 . S
H1026 C1034 0.950 . S
H1027 C1036 0.950 . S
H1028 C1038 0.950 . S
H1029 C1040 0.950 . S
H1030 C1042 0.950 . S
H1031 C1043 0.950 . S
C1032 H1024 0.950 . S
C1032 C1033 1.386 . S
C1032 C1034 1.391 . S
C1033 C1032 1.386 . S
C1033 C1037 1.393 . S
C1034 H1026 0.950 . S
C1034 C1032 1.391 . S
C1034 C1035 1.400 . S
C1035 C1034 1.400 . S
C1035 C1036 1.398 . S
C1035 C1041 1.491 . S
C1036 H1027 0.950 . S
C1036 C1035 1.398 . S
C1036 C1037 1.391 . S
C1037 H1025 0.950 . S
C1037 C1033 1.393 . S
C1037 C1036 1.391 . S
C1038 H1028 0.950 . S
C1038 C1039 1.386 . S
C1038 C1040 1.391 . S
C1039 C1038 1.386 . S
C1039 C1043 1.393 . S
C1040 H1029 0.950 . S
C1040 C1038 1.391 . S
C1040 C1041 1.400 . S
C1041 C1035 1.491 . S
C1041 C1040 1.400 . S
C1041 C1042 1.398 . S
C1042 H1030 0.950 . S
C1042 C1041 1.398 . S
C1042 C1043 1.391 . S
C1043 H1031 0.950 . S
C1043 C1039 1.393 . S
C1043 C1042 1.391 . S
H1044 C1052 0.950 . S
H1045 C1057 0.950 . S
H1046 C1054 0.950 . S
H1047 C1056 0.950 . S
H1048 C1058 0.950 . S
H1049 C1060 0.950 . S
H1050 C1062 0.950 . S
H1051 C1063 0.950 . S
C1052 H1044 0.950 . S
C1052 C1053 1.386 . S
C1052 C1054 1.391 . S
C1053 C1052 1.386 . S
C1053 C1057 1.393 . S
C1054 H1046 0.950 . S
C1054 C1052 1.391 . S
C1054 C1055 1.400 . S
C1055 C1054 1.400 . S
C1055 C1056 1.398 . S
C1055 C1061 1.491 . S
C1056 H1047 0.950 . S
C1056 C1055 1.398 . S
C1056 C1057 1.391 . S
C1057 H1045 0.950 . S
C1057 C1053 1.393 . S
C1057 C1056 1.391 . S
C1058 H1048 0.950 . S
C1058 C1059 1.386 . S
C1058 C1060 1.391 . S
C1059 C1058 1.386 . S
C1059 C1063 1.393 . S
C1060 H1049 0.950 . S
C1060 C1058 1.391 . S
C1060 C1061 1.400 . S
C1061 C1055 1.491 . S
C1061 C1060 1.400 . S
C1061 C1062 1.398 . S
C1062 H1050 0.950 . S
C1062 C1061 1.398 . S
C1062 C1063 1.391 . S
C1063 H1051 0.950 . S
C1063 C1059 1.393 . S
C1063 C1062 1.391 . S
H1064 C1072 0.950 . S
H1065 C1077 0.950 . S
H1066 C1074 0.950 . S
H1067 C1076 0.950 . S
H1068 C1078 0.950 . S
H1069 C1080 0.950 . S
H1070 C1082 0.950 . S
H1071 C1083 0.950 1_554 S
C1072 H1064 0.950 . S
C1072 C1073 1.386 . S
C1072 C1074 1.391 . S
C1073 C1072 1.386 . S
C1073 C1077 1.393 . S
C1074 H1066 0.950 . S
C1074 C1072 1.391 . S
C1074 C1075 1.400 . S
C1075 C1074 1.400 . S
C1075 C1076 1.398 . S
C1075 C1081 1.491 . S
C1076 H1067 0.950 . S
C1076 C1075 1.398 . S
C1076 C1077 1.391 . S
C1077 H1065 0.950 . S
C1077 C1073 1.393 . S
C1077 C1076 1.391 . S
C1078 H1068 0.950 . S
C1078 C1079 1.386 . S
C1078 C1080 1.391 . S
C1079 C1078 1.386 . S
C1079 C1083 1.393 . S
C1080 H1069 0.950 . S
C1080 C1078 1.391 . S
C1080 C1081 1.400 . S
C1081 C1075 1.491 . S
C1081 C1080 1.400 . S
C1081 C1082 1.398 . S
C1082 H1070 0.950 . S
C1082 C1081 1.398 . S
C1082 C1083 1.391 . S
C1083 H1071 0.950 1_556 S
C1083 C1079 1.393 . S
C1083 C1082 1.391 . S
H1084 C1092 0.950 . S
H1085 C1097 0.950 . S
H1086 C1094 0.950 . S
H1087 C1096 0.950 . S
H1088 C1098 0.950 . S
H1089 C1100 0.950 . S
H1090 C1102 0.950 . S
H1091 C1103 0.950 1_554 S
C1092 H1084 0.950 . S
C1092 C1093 1.386 . S
C1092 C1094 1.391 . S
C1093 C1092 1.386 . S
C1093 C1097 1.393 . S
C1094 H1086 0.950 . S
C1094 C1092 1.391 . S
C1094 C1095 1.400 . S
C1095 C1094 1.400 . S
C1095 C1096 1.398 . S
C1095 C1101 1.491 . S
C1096 H1087 0.950 . S
C1096 C1095 1.398 . S
C1096 C1097 1.391 . S
C1097 H1085 0.950 . S
C1097 C1093 1.393 . S
C1097 C1096 1.391 . S
C1098 H1088 0.950 . S
C1098 C1099 1.386 . S
C1098 C1100 1.391 . S
C1099 C1098 1.386 . S
C1099 C1103 1.393 . S
C1100 H1089 0.950 . S
C1100 C1098 1.391 . S
C1100 C1101 1.400 . S
C1101 C1095 1.491 . S
C1101 C1100 1.400 . S
C1101 C1102 1.398 . S
C1102 H1090 0.950 . S
C1102 C1101 1.398 . S
C1102 C1103 1.391 . S
C1103 H1091 0.950 1_556 S
C1103 C1099 1.393 . S
C1103 C1102 1.391 . S
H1104 C1112 0.950 . S
H1105 C1117 0.950 . S
H1106 C1114 0.950 . S
H1107 C1116 0.950 . S
H1108 C1118 0.950 . S
H1109 C1120 0.950 . S
H1110 C1122 0.950 . S
H1111 C1123 0.950 . S
C1112 H1104 0.950 . S
C1112 C1113 1.386 . S
C1112 C1114 1.391 . S
C1113 C1112 1.386 . S
C1113 C1117 1.393 . S
C1114 H1106 0.950 . S
C1114 C1112 1.391 . S
C1114 C1115 1.400 . S
C1115 C1114 1.400 . S
C1115 C1116 1.398 . S
C1115 C1121 1.491 . S
C1116 H1107 0.950 . S
C1116 C1115 1.398 . S
C1116 C1117 1.391 . S
C1117 H1105 0.950 . S
C1117 C1113 1.393 . S
C1117 C1116 1.391 . S
C1118 H1108 0.950 . S
C1118 C1119 1.386 . S
C1118 C1120 1.391 . S
C1119 C1118 1.386 . S
C1119 C1123 1.393 . S
C1120 H1109 0.950 . S
C1120 C1118 1.391 . S
C1120 C1121 1.400 . S
C1121 C1115 1.491 . S
C1121 C1120 1.400 . S
C1121 C1122 1.398 . S
C1122 H1110 0.950 . S
C1122 C1121 1.398 . S
C1122 C1123 1.391 . S
C1123 H1111 0.950 . S
C1123 C1119 1.393 . S
C1123 C1122 1.391 . S
H1124 C1132 0.950 . S
H1125 C1137 0.950 . S
H1126 C1134 0.950 . S
H1127 C1136 0.950 . S
H1128 C1138 0.950 . S
H1129 C1140 0.950 . S
H1130 C1142 0.950 . S
H1131 C1143 0.950 . S
C1132 H1124 0.950 . S
C1132 C1133 1.386 . S
C1132 C1134 1.391 . S
C1133 C1132 1.386 . S
C1133 C1137 1.393 . S
C1134 H1126 0.950 . S
C1134 C1132 1.391 . S
C1134 C1135 1.400 . S
C1135 C1134 1.400 . S
C1135 C1136 1.398 . S
C1135 C1141 1.491 . S
C1136 H1127 0.950 . S
C1136 C1135 1.398 . S
C1136 C1137 1.391 . S
C1137 H1125 0.950 . S
C1137 C1133 1.393 . S
C1137 C1136 1.391 . S
C1138 H1128 0.950 . S
C1138 C1139 1.386 . S
C1138 C1140 1.391 . S
C1139 C1138 1.386 . S
C1139 C1143 1.393 . S
C1140 H1129 0.950 . S
C1140 C1138 1.391 . S
C1140 C1141 1.400 . S
C1141 C1135 1.491 . S
C1141 C1140 1.400 . S
C1141 C1142 1.398 . S
C1142 H1130 0.950 . S
C1142 C1141 1.398 . S
C1142 C1143 1.391 . S
C1143 H1131 0.950 . S
C1143 C1139 1.393 . S
C1143 C1142 1.391 . S
H1144 C1152 0.950 . S
H1145 C1157 0.950 . S
H1146 C1154 0.950 . S
H1147 C1156 0.950 . S
H1148 C1158 0.950 . S
H1149 C1160 0.950 . S
H1150 C1162 0.950 . S
H1151 C1163 0.950 . S
C1152 H1144 0.950 . S
C1152 C1153 1.386 . S
C1152 C1154 1.391 . S
C1153 C1152 1.386 . S
C1153 C1157 1.393 . S
C1154 H1146 0.950 . S
C1154 C1152 1.391 . S
C1154 C1155 1.400 . S
C1155 C1154 1.400 . S
C1155 C1156 1.398 . S
C1155 C1161 1.491 . S
C1156 H1147 0.950 . S
C1156 C1155 1.398 . S
C1156 C1157 1.391 . S
C1157 H1145 0.950 . S
C1157 C1153 1.393 . S
C1157 C1156 1.391 . S
C1158 H1148 0.950 . S
C1158 C1159 1.386 . S
C1158 C1160 1.391 . S
C1159 C1158 1.386 . S
C1159 C1163 1.393 . S
C1160 H1149 0.950 . S
C1160 C1158 1.391 . S
C1160 C1161 1.400 . S
C1161 C1155 1.491 . S
C1161 C1160 1.400 . S
C1161 C1162 1.398 . S
C1162 H1150 0.950 . S
C1162 C1161 1.398 . S
C1162 C1163 1.391 . S
C1163 H1151 0.950 . S
C1163 C1159 1.393 . S
C1163 C1162 1.391 . S
H1164 C1172 0.950 . S
H1165 C1177 0.950 . S
H1166 C1174 0.950 . S
H1167 C1176 0.950 . S
H1168 C1178 0.950 . S
H1169 C1180 0.950 . S
H1170 C1182 0.950 . S
H1171 C1183 0.950 . S
C1172 H1164 0.950 . S
C1172 C1173 1.386 . S
C1172 C1174 1.391 . S
C1173 C1172 1.386 . S
C1173 C1177 1.393 . S
C1174 H1166 0.950 . S
C1174 C1172 1.391 . S
C1174 C1175 1.400 . S
C1175 C1174 1.400 . S
C1175 C1176 1.398 . S
C1175 C1181 1.491 . S
C1176 H1167 0.950 . S
C1176 C1175 1.398 . S
C1176 C1177 1.391 . S
C1177 H1165 0.950 . S
C1177 C1173 1.393 . S
C1177 C1176 1.391 . S
C1178 H1168 0.950 . S
C1178 C1179 1.386 . S
C1178 C1180 1.391 . S
C1179 C1178 1.386 . S
C1179 C1183 1.393 . S
C1180 H1169 0.950 . S
C1180 C1178 1.391 . S
C1180 C1181 1.400 . S
C1181 C1175 1.491 . S
C1181 C1180 1.400 . S
C1181 C1182 1.398 . S
C1182 H1170 0.950 . S
C1182 C1181 1.398 . S
C1182 C1183 1.391 . S
C1183 H1171 0.950 . S
C1183 C1179 1.393 . S
C1183 C1182 1.391 . S
H1184 C1192 0.950 . S
H1185 C1197 0.950 . S
H1186 C1194 0.950 . S
H1187 C1196 0.950 . S
H1188 C1198 0.950 . S
H1189 C1200 0.950 . S
H1190 C1202 0.950 . S
H1191 C1203 0.950 . S
C1192 H1184 0.950 . S
C1192 C1193 1.386 . S
C1192 C1194 1.391 . S
C1193 C1192 1.386 . S
C1193 C1197 1.393 . S
C1194 H1186 0.950 . S
C1194 C1192 1.391 . S
C1194 C1195 1.400 . S
C1195 C1194 1.400 . S
C1195 C1196 1.398 . S
C1195 C1201 1.491 . S
C1196 H1187 0.950 . S
C1196 C1195 1.398 . S
C1196 C1197 1.391 . S
C1197 H1185 0.950 . S
C1197 C1193 1.393 . S
C1197 C1196 1.391 . S
C1198 H1188 0.950 . S
C1198 C1199 1.386 . S
C1198 C1200 1.391 . S
C1199 C1198 1.386 . S
C1199 C1203 1.393 . S
C1200 H1189 0.950 . S
C1200 C1198 1.391 . S
C1200 C1201 1.400 . S
C1201 C1195 1.491 . S
C1201 C1200 1.400 . S
C1201 C1202 1.398 . S
C1202 H1190 0.950 . S
C1202 C1201 1.398 . S
C1202 C1203 1.391 . S
C1203 H1191 0.950 . S
C1203 C1199 1.393 . S
C1203 C1202 1.391 . S
H1204 C1212 0.950 . S
H1205 C1217 0.950 . S
H1206 C1214 0.950 . S
H1207 C1216 0.950 . S
H1208 C1218 0.950 . S
H1209 C1220 0.950 . S
H1210 C1222 0.950 . S
H1211 C1223 0.950 . S
C1212 H1204 0.950 . S
C1212 C1213 1.386 . S
C1212 C1214 1.391 . S
C1213 C1212 1.386 . S
C1213 C1217 1.393 . S
C1214 H1206 0.950 . S
C1214 C1212 1.391 . S
C1214 C1215 1.400 . S
C1215 C1214 1.400 . S
C1215 C1216 1.398 . S
C1215 C1221 1.491 . S
C1216 H1207 0.950 . S
C1216 C1215 1.398 . S
C1216 C1217 1.391 . S
C1217 H1205 0.950 . S
C1217 C1213 1.393 . S
C1217 C1216 1.391 . S
C1218 H1208 0.950 . S
C1218 C1219 1.386 . S
C1218 C1220 1.391 . S
C1219 C1218 1.386 . S
C1219 C1223 1.393 . S
C1220 H1209 0.950 . S
C1220 C1218 1.391 . S
C1220 C1221 1.400 . S
C1221 C1215 1.491 . S
C1221 C1220 1.400 . S
C1221 C1222 1.398 . S
C1222 H1210 0.950 . S
C1222 C1221 1.398 . S
C1222 C1223 1.391 . S
C1223 H1211 0.950 . S
C1223 C1219 1.393 . S
C1223 C1222 1.391 . S
H1224 C1232 0.950 . S
H1225 C1237 0.950 . S
H1226 C1234 0.950 . S
H1227 C1236 0.950 . S
H1228 C1238 0.950 . S
H1229 C1240 0.950 . S
H1230 C1242 0.950 . S
H1231 C1243 0.950 . S
C1232 H1224 0.950 . S
C1232 C1233 1.386 . S
C1232 C1234 1.391 . S
C1233 C1232 1.386 . S
C1233 C1237 1.393 . S
C1234 H1226 0.950 . S
C1234 C1232 1.391 . S
C1234 C1235 1.400 . S
C1235 C1234 1.400 . S
C1235 C1236 1.398 . S
C1235 C1241 1.491 . S
C1236 H1227 0.950 . S
C1236 C1235 1.398 . S
C1236 C1237 1.391 . S
C1237 H1225 0.950 . S
C1237 C1233 1.393 . S
C1237 C1236 1.391 . S
C1238 H1228 0.950 . S
C1238 C1239 1.386 . S
C1238 C1240 1.391 . S
C1239 C1238 1.386 . S
C1239 C1243 1.393 . S
C1240 H1229 0.950 . S
C1240 C1238 1.391 . S
C1240 C1241 1.400 . S
C1241 C1235 1.491 . S
C1241 C1240 1.400 . S
C1241 C1242 1.398 . S
C1242 H1230 0.950 . S
C1242 C1241 1.398 . S
C1242 C1243 1.391 . S
C1243 H1231 0.950 . S
C1243 C1239 1.393 . S
C1243 C1242 1.391 . S
H1244 C1252 0.950 . S
H1245 C1257 0.950 . S
H1246 C1254 0.950 . S
H1247 C1256 0.950 . S
H1248 C1258 0.950 . S
H1249 C1260 0.950 . S
H1250 C1262 0.950 . S
H1251 C1263 0.950 . S
C1252 H1244 0.950 . S
C1252 C1253 1.386 . S
C1252 C1254 1.391 . S
C1253 C1252 1.386 . S
C1253 C1257 1.393 1_655 S
C1254 H1246 0.950 . S
C1254 C1252 1.391 . S
C1254 C1255 1.400 . S
C1255 C1254 1.400 . S
C1255 C1256 1.398 1_655 S
C1255 C1261 1.491 . S
C1256 H1247 0.950 . S
C1256 C1255 1.398 1_455 S
C1256 C1257 1.391 . S
C1257 H1245 0.950 . S
C1257 C1253 1.393 1_455 S
C1257 C1256 1.391 . S
C1258 H1248 0.950 . S
C1258 C1259 1.386 1_455 S
C1258 C1260 1.391 . S
C1259 C1258 1.386 1_655 S
C1259 C1263 1.393 . S
C1260 H1249 0.950 . S
C1260 C1258 1.391 . S
C1260 C1261 1.400 1_455 S
C1261 C1255 1.491 . S
C1261 C1260 1.400 1_655 S
C1261 C1262 1.398 . S
C1262 H1250 0.950 . S
C1262 C1261 1.398 . S
C1262 C1263 1.391 . S
C1263 H1251 0.950 . S
C1263 C1259 1.393 . S
C1263 C1262 1.391 . S
H1264 C1272 0.950 . S
H1265 C1277 0.950 . S
H1266 C1274 0.950 . S
H1267 C1276 0.950 . S
H1268 C1278 0.950 . S
H1269 C1280 0.950 . S
H1270 C1282 0.950 . S
H1271 C1283 0.950 . S
C1272 H1264 0.950 . S
C1272 C1273 1.386 . S
C1272 C1274 1.391 . S
C1273 C1272 1.386 . S
C1273 C1277 1.393 . S
C1274 H1266 0.950 . S
C1274 C1272 1.391 . S
C1274 C1275 1.400 . S
C1275 C1274 1.400 . S
C1275 C1276 1.398 . S
C1275 C1281 1.491 . S
C1276 H1267 0.950 . S
C1276 C1275 1.398 . S
C1276 C1277 1.391 . S
C1277 H1265 0.950 . S
C1277 C1273 1.393 . S
C1277 C1276 1.391 . S
C1278 H1268 0.950 . S
C1278 C1279 1.386 . S
C1278 C1280 1.391 . S
C1279 C1278 1.386 . S
C1279 C1283 1.393 . S
C1280 H1269 0.950 . S
C1280 C1278 1.391 . S
C1280 C1281 1.400 . S
C1281 C1275 1.491 . S
C1281 C1280 1.400 . S
C1281 C1282 1.398 . S
C1282 H1270 0.950 . S
C1282 C1281 1.398 . S
C1282 C1283 1.391 . S
C1283 H1271 0.950 . S
C1283 C1279 1.393 . S
C1283 C1282 1.391 . S
H1284 C1292 0.950 1_655 S
H1285 C1297 0.950 . S
H1286 C1294 0.950 1_655 S
H1287 C1296 0.950 . S
H1288 C1298 0.950 . S
H1289 C1300 0.950 . S
H1290 C1302 0.950 1_655 S
H1291 C1303 0.950 1_655 S
C1292 H1284 0.950 1_455 S
C1292 C1293 1.386 . S
C1292 C1294 1.391 . S
C1293 C1292 1.386 . S
C1293 C1297 1.393 . S
C1294 H1286 0.950 1_455 S
C1294 C1292 1.391 . S
C1294 C1295 1.400 . S
C1295 C1294 1.400 . S
C1295 C1296 1.398 . S
C1295 C1301 1.491 . S
C1296 H1287 0.950 . S
C1296 C1295 1.398 . S
C1296 C1297 1.391 . S
C1297 H1285 0.950 . S
C1297 C1293 1.393 . S
C1297 C1296 1.391 . S
C1298 H1288 0.950 . S
C1298 C1299 1.386 . S
C1298 C1300 1.391 . S
C1299 C1298 1.386 . S
C1299 C1303 1.393 . S
C1300 H1289 0.950 . S
C1300 C1298 1.391 . S
C1300 C1301 1.400 . S
C1301 C1295 1.491 . S
C1301 C1300 1.400 . S
C1301 C1302 1.398 . S
C1302 H1290 0.950 1_455 S
C1302 C1301 1.398 . S
C1302 C1303 1.391 . S
C1303 H1291 0.950 1_455 S
C1303 C1299 1.393 . S
C1303 C1302 1.391 . S
H1304 C1312 0.950 . S
H1305 C1317 0.950 . S
H1306 C1314 0.950 . S
H1307 C1316 0.950 . S
H1308 C1318 0.950 . S
H1309 C1320 0.950 . S
H1310 C1322 0.950 . S
H1311 C1323 0.950 . S
C1312 H1304 0.950 . S
C1312 C1313 1.386 . S
C1312 C1314 1.391 . S
C1313 C1312 1.386 . S
C1313 C1317 1.393 . S
C1314 H1306 0.950 . S
C1314 C1312 1.391 . S
C1314 C1315 1.400 . S
C1315 C1314 1.400 . S
C1315 C1316 1.398 . S
C1315 C1321 1.491 . S
C1316 H1307 0.950 . S
C1316 C1315 1.398 . S
C1316 C1317 1.391 . S
C1317 H1305 0.950 . S
C1317 C1313 1.393 . S
C1317 C1316 1.391 . S
C1318 H1308 0.950 . S
C1318 C1319 1.386 . S
C1318 C1320 1.391 . S
C1319 C1318 1.386 . S
C1319 C1323 1.393 . S
C1320 H1309 0.950 . S
C1320 C1318 1.391 . S
C1320 C1321 1.400 . S
C1321 C1315 1.491 . S
C1321 C1320 1.400 . S
C1321 C1322 1.398 . S
C1322 H1310 0.950 . S
C1322 C1321 1.398 . S
C1322 C1323 1.391 . S
C1323 H1311 0.950 . S
C1323 C1319 1.393 . S
C1323 C1322 1.391 . S
H1324 C1332 0.950 . S
H1325 C1337 0.950 . S
H1326 C1334 0.950 . S
H1327 C1336 0.950 . S
H1328 C1338 0.950 . S
H1329 C1340 0.950 . S
H1330 C1342 0.950 . S
H1331 C1343 0.950 . S
C1332 H1324 0.950 . S
C1332 C1333 1.386 . S
C1332 C1334 1.391 . S
C1333 C1332 1.386 . S
C1333 C1337 1.393 . S
C1334 H1326 0.950 . S
C1334 C1332 1.391 . S
C1334 C1335 1.400 . S
C1335 C1334 1.400 . S
C1335 C1336 1.398 . S
C1335 C1341 1.491 . S
C1336 H1327 0.950 . S
C1336 C1335 1.398 . S
C1336 C1337 1.391 . S
C1337 H1325 0.950 . S
C1337 C1333 1.393 . S
C1337 C1336 1.391 . S
C1338 H1328 0.950 . S
C1338 C1339 1.386 . S
C1338 C1340 1.391 . S
C1339 C1338 1.386 . S
C1339 C1343 1.393 . S
C1340 H1329 0.950 . S
C1340 C1338 1.391 . S
C1340 C1341 1.400 . S
C1341 C1335 1.491 . S
C1341 C1340 1.400 . S
C1341 C1342 1.398 . S
C1342 H1330 0.950 . S
C1342 C1341 1.398 . S
C1342 C1343 1.391 . S
C1343 H1331 0.950 . S
C1343 C1339 1.393 . S
C1343 C1342 1.391 . S
H1344 C1352 0.950 . S
H1345 C1357 0.950 . S
H1346 C1354 0.950 . S
H1347 C1356 0.950 . S
H1348 C1358 0.950 . S
H1349 C1360 0.950 . S
H1350 C1362 0.950 . S
H1351 C1363 0.950 . S
C1352 H1344 0.950 . S
C1352 C1353 1.386 1_545 S
C1352 C1354 1.391 . S
C1353 C1352 1.386 1_565 S
C1353 C1357 1.393 . S
C1354 H1346 0.950 . S
C1354 C1352 1.391 . S
C1354 C1355 1.400 1_545 S
C1355 C1354 1.400 1_565 S
C1355 C1356 1.398 . S
C1355 C1361 1.491 . S
C1356 H1347 0.950 . S
C1356 C1355 1.398 . S
C1356 C1357 1.391 . S
C1357 H1345 0.950 . S
C1357 C1353 1.393 . S
C1357 C1356 1.391 . S
C1358 H1348 0.950 . S
C1358 C1359 1.386 . S
C1358 C1360 1.391 . S
C1359 C1358 1.386 . S
C1359 C1363 1.393 1_565 S
C1360 H1349 0.950 . S
C1360 C1358 1.391 . S
C1360 C1361 1.400 . S
C1361 C1355 1.491 . S
C1361 C1360 1.400 . S
C1361 C1362 1.398 1_565 S
C1362 H1350 0.950 . S
C1362 C1361 1.398 1_545 S
C1362 C1363 1.391 . S
C1363 H1351 0.950 . S
C1363 C1359 1.393 1_545 S
C1363 C1362 1.391 . S
H1364 C1372 0.950 . S
H1365 C1377 0.950 1_655 S
H1366 C1374 0.950 . S
H1367 C1376 0.950 1_655 S
H1368 C1378 0.950 1_655 S
H1369 C1380 0.950 1_655 S
H1370 C1382 0.950 . S
H1371 C1383 0.950 . S
C1372 H1364 0.950 . S
C1372 C1373 1.386 . S
C1372 C1374 1.391 . S
C1373 C1372 1.386 . S
C1373 C1377 1.393 . S
C1374 H1366 0.950 . S
C1374 C1372 1.391 . S
C1374 C1375 1.400 . S
C1375 C1374 1.400 . S
C1375 C1376 1.398 . S
C1375 C1381 1.491 . S
C1376 H1367 0.950 1_455 S
C1376 C1375 1.398 . S
C1376 C1377 1.391 . S
C1377 H1365 0.950 1_455 S
C1377 C1373 1.393 . S
C1377 C1376 1.391 . S
C1378 H1368 0.950 1_455 S
C1378 C1379 1.386 . S
C1378 C1380 1.391 . S
C1379 C1378 1.386 . S
C1379 C1383 1.393 . S
C1380 H1369 0.950 1_455 S
C1380 C1378 1.391 . S
C1380 C1381 1.400 . S
C1381 C1375 1.491 . S
C1381 C1380 1.400 . S
C1381 C1382 1.398 . S
C1382 H1370 0.950 . S
C1382 C1381 1.398 . S
C1382 C1383 1.391 . S
C1383 H1371 0.950 . S
C1383 C1379 1.393 . S
C1383 C1382 1.391 . S
H1384 C1392 0.950 . S
H1385 C1397 0.950 . S
H1386 C1394 0.950 . S
H1387 C1396 0.950 . S
H1388 C1398 0.950 . S
H1389 C1400 0.950 . S
H1390 C1402 0.950 . S
H1391 C1403 0.950 . S
C1392 H1384 0.950 . S
C1392 C1393 1.386 . S
C1392 C1394 1.391 . S
C1393 C1392 1.386 . S
C1393 C1397 1.393 . S
C1394 H1386 0.950 . S
C1394 C1392 1.391 . S
C1394 C1395 1.400 . S
C1395 C1394 1.400 . S
C1395 C1396 1.398 . S
C1395 C1401 1.491 . S
C1396 H1387 0.950 . S
C1396 C1395 1.398 . S
C1396 C1397 1.391 . S
C1397 H1385 0.950 . S
C1397 C1393 1.393 . S
C1397 C1396 1.391 . S
C1398 H1388 0.950 . S
C1398 C1399 1.386 . S
C1398 C1400 1.391 . S
C1399 C1398 1.386 . S
C1399 C1403 1.393 . S
C1400 H1389 0.950 . S
C1400 C1398 1.391 . S
C1400 C1401 1.400 . S
C1401 C1395 1.491 . S
C1401 C1400 1.400 . S
C1401 C1402 1.398 . S
C1402 H1390 0.950 . S
C1402 C1401 1.398 . S
C1402 C1403 1.391 . S
C1403 H1391 0.950 . S
C1403 C1399 1.393 . S
C1403 C1402 1.391 . S
H1404 C1412 0.950 . S
H1405 C1417 0.950 . S
H1406 C1414 0.950 . S
H1407 C1416 0.950 . S
H1408 C1418 0.950 . S
H1409 C1420 0.950 . S
H1410 C1422 0.950 . S
H1411 C1423 0.950 . S
C1412 H1404 0.950 . S
C1412 C1413 1.386 1_455 S
C1412 C1414 1.391 . S
C1413 C1412 1.386 1_655 S
C1413 C1417 1.393 . S
C1414 H1406 0.950 . S
C1414 C1412 1.391 . S
C1414 C1415 1.400 1_455 S
C1415 C1414 1.400 1_655 S
C1415 C1416 1.398 . S
C1415 C1421 1.491 . S
C1416 H1407 0.950 . S
C1416 C1415 1.398 . S
C1416 C1417 1.391 . S
C1417 H1405 0.950 . S
C1417 C1413 1.393 . S
C1417 C1416 1.391 . S
C1418 H1408 0.950 . S
C1418 C1419 1.386 . S
C1418 C1420 1.391 . S
C1419 C1418 1.386 . S
C1419 C1423 1.393 1_655 S
C1420 H1409 0.950 . S
C1420 C1418 1.391 . S
C1420 C1421 1.400 . S
C1421 C1415 1.491 . S
C1421 C1420 1.400 . S
C1421 C1422 1.398 1_655 S
C1422 H1410 0.950 . S
C1422 C1421 1.398 1_455 S
C1422 C1423 1.391 . S
C1423 H1411 0.950 . S
C1423 C1419 1.393 1_455 S
C1423 C1422 1.391 . S
H1424 C1432 0.950 . S
H1425 C1437 0.950 . S
H1426 C1434 0.950 . S
H1427 C1436 0.950 . S
H1428 C1438 0.950 . S
H1429 C1440 0.950 . S
H1430 C1442 0.950 . S
H1431 C1443 0.950 . S
C1432 H1424 0.950 . S
C1432 C1433 1.386 . S
C1432 C1434 1.391 . S
C1433 C1432 1.386 . S
C1433 C1437 1.393 . S
C1434 H1426 0.950 . S
C1434 C1432 1.391 . S
C1434 C1435 1.400 . S
C1435 C1434 1.400 . S
C1435 C1436 1.398 . S
C1435 C1441 1.491 . S
C1436 H1427 0.950 . S
C1436 C1435 1.398 . S
C1436 C1437 1.391 . S
C1437 H1425 0.950 . S
C1437 C1433 1.393 . S
C1437 C1436 1.391 . S
C1438 H1428 0.950 . S
C1438 C1439 1.386 . S
C1438 C1440 1.391 . S
C1439 C1438 1.386 . S
C1439 C1443 1.393 . S
C1440 H1429 0.950 . S
C1440 C1438 1.391 . S
C1440 C1441 1.400 . S
C1441 C1435 1.491 . S
C1441 C1440 1.400 . S
C1441 C1442 1.398 . S
C1442 H1430 0.950 . S
C1442 C1441 1.398 . S
C1442 C1443 1.391 . S
C1443 H1431 0.950 . S
C1443 C1439 1.393 . S
C1443 C1442 1.391 . S
H1444 C1452 0.950 . S
H1445 C1457 0.950 . S
H1446 C1454 0.950 . S
H1447 C1456 0.950 . S
H1448 C1458 0.950 . S
H1449 C1460 0.950 . S
H1450 C1462 0.950 . S
H1451 C1463 0.950 . S
C1452 H1444 0.950 . S
C1452 C1453 1.386 . S
C1452 C1454 1.391 . S
C1453 C1452 1.386 . S
C1453 C1457 1.393 . S
C1454 H1446 0.950 . S
C1454 C1452 1.391 . S
C1454 C1455 1.400 . S
C1455 C1454 1.400 . S
C1455 C1456 1.398 . S
C1455 C1461 1.491 . S
C1456 H1447 0.950 . S
C1456 C1455 1.398 . S
C1456 C1457 1.391 . S
C1457 H1445 0.950 . S
C1457 C1453 1.393 . S
C1457 C1456 1.391 . S
C1458 H1448 0.950 . S
C1458 C1459 1.386 . S
C1458 C1460 1.391 . S
C1459 C1458 1.386 . S
C1459 C1463 1.393 . S
C1460 H1449 0.950 . S
C1460 C1458 1.391 . S
C1460 C1461 1.400 . S
C1461 C1455 1.491 . S
C1461 C1460 1.400 . S
C1461 C1462 1.398 . S
C1462 H1450 0.950 . S
C1462 C1461 1.398 . S
C1462 C1463 1.391 . S
C1463 H1451 0.950 . S
C1463 C1459 1.393 . S
C1463 C1462 1.391 . S
H1464 C1472 0.950 . S
H1465 C1477 0.950 . S
H1466 C1474 0.950 . S
H1467 C1476 0.950 . S
H1468 C1478 0.950 . S
H1469 C1480 0.950 . S
H1470 C1482 0.950 . S
H1471 C1483 0.950 . S
C1472 H1464 0.950 . S
C1472 C1473 1.386 . S
C1472 C1474 1.391 . S
C1473 C1472 1.386 . S
C1473 C1477 1.393 . S
C1474 H1466 0.950 . S
C1474 C1472 1.391 . S
C1474 C1475 1.400 . S
C1475 C1474 1.400 . S
C1475 C1476 1.398 . S
C1475 C1481 1.491 . S
C1476 H1467 0.950 . S
C1476 C1475 1.398 . S
C1476 C1477 1.391 . S
C1477 H1465 0.950 . S
C1477 C1473 1.393 . S
C1477 C1476 1.391 . S
C1478 H1468 0.950 . S
C1478 C1479 1.386 . S
C1478 C1480 1.391 . S
C1479 C1478 1.386 . S
C1479 C1483 1.393 . S
C1480 H1469 0.950 . S
C1480 C1478 1.391 . S
C1480 C1481 1.400 . S
C1481 C1475 1.491 . S
C1481 C1480 1.400 . S
C1481 C1482 1.398 . S
C1482 H1470 0.950 . S
C1482 C1481 1.398 . S
C1482 C1483 1.391 . S
C1483 H1471 0.950 . S
C1483 C1479 1.393 . S
C1483 C1482 1.391 . S
H1484 C1492 0.950 . S
H1485 C1497 0.950 . S
H1486 C1494 0.950 . S
H1487 C1496 0.950 . S
H1488 C1498 0.950 . S
H1489 C1500 0.950 . S
H1490 C1502 0.950 . S
H1491 C1503 0.950 . S
C1492 H1484 0.950 . S
C1492 C1493 1.386 . S
C1492 C1494 1.391 . S
C1493 C1492 1.386 . S
C1493 C1497 1.393 . S
C1494 H1486 0.950 . S
C1494 C1492 1.391 . S
C1494 C1495 1.400 . S
C1495 C1494 1.400 . S
C1495 C1496 1.398 . S
C1495 C1501 1.491 . S
C1496 H1487 0.950 . S
C1496 C1495 1.398 . S
C1496 C1497 1.391 . S
C1497 H1485 0.950 . S
C1497 C1493 1.393 . S
C1497 C1496 1.391 . S
C1498 H1488 0.950 . S
C1498 C1499 1.386 . S
C1498 C1500 1.391 . S
C1499 C1498 1.386 . S
C1499 C1503 1.393 . S
C1500 H1489 0.950 . S
C1500 C1498 1.391 . S
C1500 C1501 1.400 . S
C1501 C1495 1.491 . S
C1501 C1500 1.400 . S
C1501 C1502 1.398 . S
C1502 H1490 0.950 . S
C1502 C1501 1.398 . S
C1502 C1503 1.391 . S
C1503 H1491 0.950 . S
C1503 C1499 1.393 . S
C1503 C1502 1.391 . S
H1504 C1512 0.950 . S
H1505 C1517 0.950 . S
H1506 C1514 0.950 . S
H1507 C1516 0.950 . S
H1508 C1518 0.950 . S
H1509 C1520 0.950 . S
H1510 C1522 0.950 . S
H1511 C1523 0.950 . S
C1512 H1504 0.950 . S
C1512 C1513 1.386 . S
C1512 C1514 1.391 . S
C1513 C1512 1.386 . S
C1513 C1517 1.393 . S
C1514 H1506 0.950 . S
C1514 C1512 1.391 . S
C1514 C1515 1.400 . S
C1515 C1514 1.400 . S
C1515 C1516 1.398 . S
C1515 C1521 1.491 . S
C1516 H1507 0.950 . S
C1516 C1515 1.398 . S
C1516 C1517 1.391 . S
C1517 H1505 0.950 . S
C1517 C1513 1.393 . S
C1517 C1516 1.391 . S
C1518 H1508 0.950 . S
C1518 C1519 1.386 . S
C1518 C1520 1.391 . S
C1519 C1518 1.386 . S
C1519 C1523 1.393 . S
C1520 H1509 0.950 . S
C1520 C1518 1.391 . S
C1520 C1521 1.400 . S
C1521 C1515 1.491 . S
C1521 C1520 1.400 . S
C1521 C1522 1.398 . S
C1522 H1510 0.950 . S
C1522 C1521 1.398 . S
C1522 C1523 1.391 . S
C1523 H1511 0.950 . S
C1523 C1519 1.393 . S
C1523 C1522 1.391 . S
H1524 C1532 0.950 . S
H1525 C1537 0.950 . S
H1526 C1534 0.950 . S
H1527 C1536 0.950 . S
H1528 C1538 0.950 . S
H1529 C1540 0.950 . S
H1530 C1542 0.950 . S
H1531 C1543 0.950 . S
C1532 H1524 0.950 . S
C1532 C1533 1.386 . S
C1532 C1534 1.391 . S
C1533 C1532 1.386 . S
C1533 C1537 1.393 . S
C1534 H1526 0.950 . S
C1534 C1532 1.391 . S
C1534 C1535 1.400 . S
C1535 C1534 1.400 . S
C1535 C1536 1.398 . S
C1535 C1541 1.491 . S
C1536 H1527 0.950 . S
C1536 C1535 1.398 . S
C1536 C1537 1.391 . S
C1537 H1525 0.950 . S
C1537 C1533 1.393 . S
C1537 C1536 1.391 . S
C1538 H1528 0.950 . S
C1538 C1539 1.386 . S
C1538 C1540 1.391 . S
C1539 C1538 1.386 . S
C1539 C1543 1.393 . S
C1540 H1529 0.950 . S
C1540 C1538 1.391 . S
C1540 C1541 1.400 . S
C1541 C1535 1.491 . S
C1541 C1540 1.400 . S
C1541 C1542 1.398 . S
C1542 H1530 0.950 . S
C1542 C1541 1.398 . S
C1542 C1543 1.391 . S
C1543 H1531 0.950 . S
C1543 C1539 1.393 . S
C1543 C1542 1.391 . S
H1544 C1552 0.950 . S
H1545 C1557 0.950 . S
H1546 C1554 0.950 . S
H1547 C1556 0.950 . S
H1548 C1558 0.950 . S
H1549 C1560 0.950 . S
H1550 C1562 0.950 . S
H1551 C1563 0.950 . S
C1552 H1544 0.950 . S
C1552 C1553 1.386 . S
C1552 C1554 1.391 . S
C1553 C1552 1.386 . S
C1553 C1557 1.393 . S
C1554 H1546 0.950 . S
C1554 C1552 1.391 . S
C1554 C1555 1.400 . S
C1555 C1554 1.400 . S
C1555 C1556 1.398 . S
C1555 C1561 1.491 . S
C1556 H1547 0.950 . S
C1556 C1555 1.398 . S
C1556 C1557 1.391 . S
C1557 H1545 0.950 . S
C1557 C1553 1.393 . S
C1557 C1556 1.391 . S
C1558 H1548 0.950 . S
C1558 C1559 1.386 . S
C1558 C1560 1.391 . S
C1559 C1558 1.386 . S
C1559 C1563 1.393 . S
C1560 H1549 0.950 . S
C1560 C1558 1.391 . S
C1560 C1561 1.400 . S
C1561 C1555 1.491 . S
C1561 C1560 1.400 . S
C1561 C1562 1.398 . S
C1562 H1550 0.950 . S
C1562 C1561 1.398 . S
C1562 C1563 1.391 . S
C1563 H1551 0.950 . S
C1563 C1559 1.393 . S
C1563 C1562 1.391 . S
H1564 C1572 0.950 . S
H1565 C1577 0.950 . S
H1566 C1574 0.950 . S
H1567 C1576 0.950 . S
H1568 C1578 0.950 . S
H1569 C1580 0.950 . S
H1570 C1582 0.950 . S
H1571 C1583 0.950 . S
C1572 H1564 0.950 . S
C1572 C1573 1.386 . S
C1572 C1574 1.391 . S
C1573 C1572 1.386 . S
C1573 C1577 1.393 . S
C1574 H1566 0.950 . S
C1574 C1572 1.391 . S
C1574 C1575 1.400 . S
C1575 C1574 1.400 . S
C1575 C1576 1.398 . S
C1575 C1581 1.491 . S
C1576 H1567 0.950 . S
C1576 C1575 1.398 . S
C1576 C1577 1.391 . S
C1577 H1565 0.950 . S
C1577 C1573 1.393 . S
C1577 C1576 1.391 . S
C1578 H1568 0.950 . S
C1578 C1579 1.386 . S
C1578 C1580 1.391 . S
C1579 C1578 1.386 . S
C1579 C1583 1.393 . S
C1580 H1569 0.950 . S
C1580 C1578 1.391 . S
C1580 C1581 1.400 . S
C1581 C1575 1.491 . S
C1581 C1580 1.400 . S
C1581 C1582 1.398 . S
C1582 H1570 0.950 . S
C1582 C1581 1.398 . S
C1582 C1583 1.391 . S
C1583 H1571 0.950 . S
C1583 C1579 1.393 . S
C1583 C1582 1.391 . S
H1584 C1592 0.950 . S
H1585 C1597 0.950 . S
H1586 C1594 0.950 . S
H1587 C1596 0.950 . S
H1588 C1598 0.950 . S
H1589 C1600 0.950 . S
H1590 C1602 0.950 . S
H1591 C1603 0.950 . S
C1592 H1584 0.950 . S
C1592 C1593 1.386 . S
C1592 C1594 1.391 . S
C1593 C1592 1.386 . S
C1593 C1597 1.393 . S
C1594 H1586 0.950 . S
C1594 C1592 1.391 . S
C1594 C1595 1.400 . S
C1595 C1594 1.400 . S
C1595 C1596 1.398 . S
C1595 C1601 1.491 . S
C1596 H1587 0.950 . S
C1596 C1595 1.398 . S
C1596 C1597 1.391 . S
C1597 H1585 0.950 . S
C1597 C1593 1.393 . S
C1597 C1596 1.391 . S
C1598 H1588 0.950 . S
C1598 C1599 1.386 . S
C1598 C1600 1.391 . S
C1599 C1598 1.386 . S
C1599 C1603 1.393 . S
C1600 H1589 0.950 . S
C1600 C1598 1.391 . S
C1600 C1601 1.400 . S
C1601 C1595 1.491 . S
C1601 C1600 1.400 . S
C1601 C1602 1.398 . S
C1602 H1590 0.950 . S
C1602 C1601 1.398 . S
C1602 C1603 1.391 . S
C1603 H1591 0.950 . S
C1603 C1599 1.393 . S
C1603 C1602 1.391 . S
H1604 C1612 0.950 . S
H1605 C1617 0.950 . S
H1606 C1614 0.950 . S
H1607 C1616 0.950 . S
H1608 C1618 0.950 . S
H1609 C1620 0.950 . S
H1610 C1622 0.950 . S
H1611 C1623 0.950 . S
C1612 H1604 0.950 . S
C1612 C1613 1.386 . S
C1612 C1614 1.391 . S
C1613 C1612 1.386 . S
C1613 C1617 1.393 . S
C1614 H1606 0.950 . S
C1614 C1612 1.391 . S
C1614 C1615 1.400 . S
C1615 C1614 1.400 . S
C1615 C1616 1.398 . S
C1615 C1621 1.491 . S
C1616 H1607 0.950 . S
C1616 C1615 1.398 . S
C1616 C1617 1.391 . S
C1617 H1605 0.950 . S
C1617 C1613 1.393 . S
C1617 C1616 1.391 . S
C1618 H1608 0.950 . S
C1618 C1619 1.386 . S
C1618 C1620 1.391 . S
C1619 C1618 1.386 . S
C1619 C1623 1.393 . S
C1620 H1609 0.950 . S
C1620 C1618 1.391 . S
C1620 C1621 1.400 . S
C1621 C1615 1.491 . S
C1621 C1620 1.400 . S
C1621 C1622 1.398 . S
C1622 H1610 0.950 . S
C1622 C1621 1.398 . S
C1622 C1623 1.391 . S
C1623 H1611 0.950 . S
C1623 C1619 1.393 . S
C1623 C1622 1.391 . S
H1624 C1632 0.950 . S
H1625 C1637 0.950 . S
H1626 C1634 0.950 . S
H1627 C1636 0.950 . S
H1628 C1638 0.950 . S
H1629 C1640 0.950 . S
H1630 C1642 0.950 . S
H1631 C1643 0.950 . S
C1632 H1624 0.950 . S
C1632 C1633 1.386 . S
C1632 C1634 1.391 . S
C1633 C1632 1.386 . S
C1633 C1637 1.393 . S
C1634 H1626 0.950 . S
C1634 C1632 1.391 . S
C1634 C1635 1.400 . S
C1635 C1634 1.400 . S
C1635 C1636 1.398 . S
C1635 C1641 1.491 . S
C1636 H1627 0.950 . S
C1636 C1635 1.398 . S
C1636 C1637 1.391 . S
C1637 H1625 0.950 . S
C1637 C1633 1.393 . S
C1637 C1636 1.391 . S
C1638 H1628 0.950 . S
C1638 C1639 1.386 . S
C1638 C1640 1.391 . S
C1639 C1638 1.386 . S
C1639 C1643 1.393 . S
C1640 H1629 0.950 . S
C1640 C1638 1.391 . S
C1640 C1641 1.400 . S
C1641 C1635 1.491 . S
C1641 C1640 1.400 . S
C1641 C1642 1.398 . S
C1642 H1630 0.950 . S
C1642 C1641 1.398 . S
C1642 C1643 1.391 . S
C1643 H1631 0.950 . S
C1643 C1639 1.393 . S
C1643 C1642 1.391 . S
H1644 C1652 0.950 . S
H1645 C1657 0.950 . S
H1646 C1654 0.950 . S
H1647 C1656 0.950 . S
H1648 C1658 0.950 . S
H1649 C1660 0.950 . S
H1650 C1662 0.950 . S
H1651 C1663 0.950 . S
C1652 H1644 0.950 . S
C1652 C1653 1.386 . S
C1652 C1654 1.391 . S
C1653 C1652 1.386 . S
C1653 C1657 1.393 . S
C1654 H1646 0.950 . S
C1654 C1652 1.391 . S
C1654 C1655 1.400 . S
C1655 C1654 1.400 . S
C1655 C1656 1.398 . S
C1655 C1661 1.491 . S
C1656 H1647 0.950 . S
C1656 C1655 1.398 . S
C1656 C1657 1.391 . S
C1657 H1645 0.950 . S
C1657 C1653 1.393 . S
C1657 C1656 1.391 . S
C1658 H1648 0.950 . S
C1658 C1659 1.386 . S
C1658 C1660 1.391 . S
C1659 C1658 1.386 . S
C1659 C1663 1.393 . S
C1660 H1649 0.950 . S
C1660 C1658 1.391 . S
C1660 C1661 1.400 . S
C1661 C1655 1.491 . S
C1661 C1660 1.400 . S
C1661 C1662 1.398 . S
C1662 H1650 0.950 . S
C1662 C1661 1.398 . S
C1662 C1663 1.391 . S
C1663 H1651 0.950 . S
C1663 C1659 1.393 . S
C1663 C1662 1.391 . S
H1664 C1672 0.950 . S
H1665 C1677 0.950 . S
H1666 C1674 0.950 . S
H1667 C1676 0.950 . S
H1668 C1678 0.950 . S
H1669 C1680 0.950 . S
H1670 C1682 0.950 . S
H1671 C1683 0.950 . S
C1672 H1664 0.950 . S
C1672 C1673 1.386 . S
C1672 C1674 1.391 . S
C1673 C1672 1.386 . S
C1673 C1677 1.393 . S
C1674 H1666 0.950 . S
C1674 C1672 1.391 . S
C1674 C1675 1.400 . S
C1675 C1674 1.400 . S
C1675 C1676 1.398 . S
C1675 C1681 1.491 . S
C1676 H1667 0.950 . S
C1676 C1675 1.398 . S
C1676 C1677 1.391 . S
C1677 H1665 0.950 . S
C1677 C1673 1.393 . S
C1677 C1676 1.391 . S
C1678 H1668 0.950 . S
C1678 C1679 1.386 . S
C1678 C1680 1.391 . S
C1679 C1678 1.386 . S
C1679 C1683 1.393 . S
C1680 H1669 0.950 . S
C1680 C1678 1.391 . S
C1680 C1681 1.400 . S
C1681 C1675 1.491 . S
C1681 C1680 1.400 . S
C1681 C1682 1.398 . S
C1682 H1670 0.950 . S
C1682 C1681 1.398 . S
C1682 C1683 1.391 . S
C1683 H1671 0.950 . S
C1683 C1679 1.393 . S
C1683 C1682 1.391 . S
H1684 C1692 0.950 . S
H1685 C1697 0.950 . S
H1686 C1694 0.950 . S
H1687 C1696 0.950 . S
H1688 C1698 0.950 . S
H1689 C1700 0.950 . S
H1690 C1702 0.950 . S
H1691 C1703 0.950 . S
C1692 H1684 0.950 . S
C1692 C1693 1.386 . S
C1692 C1694 1.391 . S
C1693 C1692 1.386 . S
C1693 C1697 1.393 . S
C1694 H1686 0.950 . S
C1694 C1692 1.391 . S
C1694 C1695 1.400 . S
C1695 C1694 1.400 . S
C1695 C1696 1.398 . S
C1695 C1701 1.491 . S
C1696 H1687 0.950 . S
C1696 C1695 1.398 . S
C1696 C1697 1.391 . S
C1697 H1685 0.950 . S
C1697 C1693 1.393 . S
C1697 C1696 1.391 . S
C1698 H1688 0.950 . S
C1698 C1699 1.386 . S
C1698 C1700 1.391 . S
C1699 C1698 1.386 . S
C1699 C1703 1.393 . S
C1700 H1689 0.950 . S
C1700 C1698 1.391 . S
C1700 C1701 1.400 . S
C1701 C1695 1.491 . S
C1701 C1700 1.400 . S
C1701 C1702 1.398 . S
C1702 H1690 0.950 . S
C1702 C1701 1.398 . S
C1702 C1703 1.391 . S
C1703 H1691 0.950 . S
C1703 C1699 1.393 . S
C1703 C1702 1.391 . S
H1704 C1712 0.950 . S
H1705 C1717 0.950 . S
H1706 C1714 0.950 . S
H1707 C1716 0.950 . S
H1708 C1718 0.950 . S
H1709 C1720 0.950 . S
H1710 C1722 0.950 . S
H1711 C1723 0.950 . S
C1712 H1704 0.950 . S
C1712 C1713 1.386 . S
C1712 C1714 1.391 . S
C1713 C1712 1.386 . S
C1713 C1717 1.393 . S
C1714 H1706 0.950 . S
C1714 C1712 1.391 . S
C1714 C1715 1.400 . S
C1715 C1714 1.400 . S
C1715 C1716 1.398 . S
C1715 C1721 1.491 . S
C1716 H1707 0.950 . S
C1716 C1715 1.398 . S
C1716 C1717 1.391 . S
C1717 H1705 0.950 . S
C1717 C1713 1.393 . S
C1717 C1716 1.391 . S
C1718 H1708 0.950 . S
C1718 C1719 1.386 . S
C1718 C1720 1.391 . S
C1719 C1718 1.386 . S
C1719 C1723 1.393 . S
C1720 H1709 0.950 . S
C1720 C1718 1.391 . S
C1720 C1721 1.400 . S
C1721 C1715 1.491 . S
C1721 C1720 1.400 . S
C1721 C1722 1.398 . S
C1722 H1710 0.950 . S
C1722 C1721 1.398 . S
C1722 C1723 1.391 . S
C1723 H1711 0.950 . S
C1723 C1719 1.393 . S
C1723 C1722 1.391 . S
H1724 C1732 0.950 . S
H1725 C1737 0.950 . S
H1726 C1734 0.950 . S
H1727 C1736 0.950 . S
H1728 C1738 0.950 . S
H1729 C1740 0.950 . S
H1730 C1742 0.950 . S
H1731 C1743 0.950 . S
C1732 H1724 0.950 . S
C1732 C1733 1.386 . S
C1732 C1734 1.391 . S
C1733 C1732 1.386 . S
C1733 C1737 1.393 . S
C1734 H1726 0.950 . S
C1734 C1732 1.391 . S
C1734 C1735 1.400 . S
C1735 C1734 1.400 . S
C1735 C1736 1.398 . S
C1735 C1741 1.491 . S
C1736 H1727 0.950 . S
C1736 C1735 1.398 . S
C1736 C1737 1.391 . S
C1737 H1725 0.950 . S
C1737 C1733 1.393 . S
C1737 C1736 1.391 . S
C1738 H1728 0.950 . S
C1738 C1739 1.386 . S
C1738 C1740 1.391 . S
C1739 C1738 1.386 . S
C1739 C1743 1.393 . S
C1740 H1729 0.950 . S
C1740 C1738 1.391 . S
C1740 C1741 1.400 . S
C1741 C1735 1.491 . S
C1741 C1740 1.400 . S
C1741 C1742 1.398 . S
C1742 H1730 0.950 . S
C1742 C1741 1.398 . S
C1742 C1743 1.391 . S
C1743 H1731 0.950 . S
C1743 C1739 1.393 . S
C1743 C1742 1.391 . S
H1744 C1752 0.950 . S
H1745 C1757 0.950 . S
H1746 C1754 0.950 . S
H1747 C1756 0.950 . S
H1748 C1758 0.950 . S
H1749 C1760 0.950 . S
H1750 C1762 0.950 . S
H1751 C1763 0.950 . S
C1752 H1744 0.950 . S
C1752 C1753 1.386 . S
C1752 C1754 1.391 . S
C1753 C1752 1.386 . S
C1753 C1757 1.393 . S
C1754 H1746 0.950 . S
C1754 C1752 1.391 . S
C1754 C1755 1.400 . S
C1755 C1754 1.400 . S
C1755 C1756 1.398 . S
C1755 C1761 1.491 . S
C1756 H1747 0.950 . S
C1756 C1755 1.398 . S
C1756 C1757 1.391 . S
C1757 H1745 0.950 . S
C1757 C1753 1.393 . S
C1757 C1756 1.391 . S
C1758 H1748 0.950 . S
C1758 C1759 1.386 . S
C1758 C1760 1.391 . S
C1759 C1758 1.386 . S
C1759 C1763 1.393 . S
C1760 H1749 0.950 . S
C1760 C1758 1.391 . S
C1760 C1761 1.400 . S
C1761 C1755 1.491 . S
C1761 C1760 1.400 . S
C1761 C1762 1.398 . S
C1762 H1750 0.950 . S
C1762 C1761 1.398 . S
C1762 C1763 1.391 . S
C1763 H1751 0.950 . S
C1763 C1759 1.393 . S
C1763 C1762 1.391 . S
H1764 C1772 0.950 . S
H1765 C1777 0.950 . S
H1766 C1774 0.950 . S
H1767 C1776 0.950 . S
H1768 C1778 0.950 . S
H1769 C1780 0.950 . S
H1770 C1782 0.950 . S
H1771 C1783 0.950 . S
C1772 H1764 0.950 . S
C1772 C1773 1.386 . S
C1772 C1774 1.391 . S
C1773 C1772 1.386 . S
C1773 C1777 1.393 . S
C1774 H1766 0.950 . S
C1774 C1772 1.391 . S
C1774 C1775 1.400 . S
C1775 C1774 1.400 . S
C1775 C1776 1.398 . S
C1775 C1781 1.491 . S
C1776 H1767 0.950 . S
C1776 C1775 1.398 . S
C1776 C1777 1.391 . S
C1777 H1765 0.950 . S
C1777 C1773 1.393 . S
C1777 C1776 1.391 . S
C1778 H1768 0.950 . S
C1778 C1779 1.386 . S
C1778 C1780 1.391 . S
C1779 C1778 1.386 . S
C1779 C1783 1.393 . S
C1780 H1769 0.950 . S
C1780 C1778 1.391 . S
C1780 C1781 1.400 . S
C1781 C1775 1.491 . S
C1781 C1780 1.400 . S
C1781 C1782 1.398 . S
C1782 H1770 0.950 . S
C1782 C1781 1.398 . S
C1782 C1783 1.391 . S
C1783 H1771 0.950 . S
C1783 C1779 1.393 . S
C1783 C1782 1.391 . S
H1784 C1792 0.950 . S
H1785 C1797 0.950 . S
H1786 C1794 0.950 . S
H1787 C1796 0.950 . S
H1788 C1798 0.950 . S
H1789 C1800 0.950 . S
H1790 C1802 0.950 . S
H1791 C1803 0.950 . S
C1792 H1784 0.950 . S
C1792 C1793 1.386 . S
C1792 C1794 1.391 . S
C1793 C1792 1.386 . S
C1793 C1797 1.393 . S
C1794 H1786 0.950 . S
C1794 C1792 1.391 . S
C1794 C1795 1.400 . S
C1795 C1794 1.400 . S
C1795 C1796 1.398 . S
C1795 C1801 1.491 . S
C1796 H1787 0.950 . S
C1796 C1795 1.398 . S
C1796 C1797 1.391 . S
C1797 H1785 0.950 . S
C1797 C1793 1.393 . S
C1797 C1796 1.391 . S
C1798 H1788 0.950 . S
C1798 C1799 1.386 . S
C1798 C1800 1.391 . S
C1799 C1798 1.386 . S
C1799 C1803 1.393 . S
C1800 H1789 0.950 . S
C1800 C1798 1.391 . S
C1800 C1801 1.400 . S
C1801 C1795 1.491 . S
C1801 C1800 1.400 . S
C1801 C1802 1.398 . S
C1802 H1790 0.950 . S
C1802 C1801 1.398 . S
C1802 C1803 1.391 . S
C1803 H1791 0.950 . S
C1803 C1799 1.393 . S
C1803 C1802 1.391 . S
H1804 C1812 0.950 . S
H1805 C1817 0.950 . S
H1806 C1814 0.950 . S
H1807 C1816 0.950 . S
H1808 C1818 0.950 . S
H1809 C1820 0.950 . S
H1810 C1822 0.950 . S
H1811 C1823 0.950 . S
C1812 H1804 0.950 . S
C1812 C1813 1.386 . S
C1812 C1814 1.391 . S
C1813 C1812 1.386 . S
C1813 C1817 1.393 . S
C1814 H1806 0.950 . S
C1814 C1812 1.391 . S
C1814 C1815 1.400 . S
C1815 C1814 1.400 . S
C1815 C1816 1.398 . S
C1815 C1821 1.491 . S
C1816 H1807 0.950 . S
C1816 C1815 1.398 . S
C1816 C1817 1.391 . S
C1817 H1805 0.950 . S
C1817 C1813 1.393 . S
C1817 C1816 1.391 . S
C1818 H1808 0.950 . S
C1818 C1819 1.386 . S
C1818 C1820 1.391 . S
C1819 C1818 1.386 . S
C1819 C1823 1.393 . S
C1820 H1809 0.950 . S
C1820 C1818 1.391 . S
C1820 C1821 1.400 . S
C1821 C1815 1.491 . S
C1821 C1820 1.400 . S
C1821 C1822 1.398 . S
C1822 H1810 0.950 . S
C1822 C1821 1.398 . S
C1822 C1823 1.391 . S
C1823 H1811 0.950 . S
C1823 C1819 1.393 . S
C1823 C1822 1.391 . S
H1824 C1832 0.950 . S
H1825 C1837 0.950 . S
H1826 C1834 0.950 . S
H1827 C1836 0.950 . S
H1828 C1838 0.950 . S
H1829 C1840 0.950 . S
H1830 C1842 0.950 . S
H1831 C1843 0.950 . S
C1832 H1824 0.950 . S
C1832 C1833 1.386 . S
C1832 C1834 1.391 . S
C1833 C1832 1.386 . S
C1833 C1837 1.393 . S
C1834 H1826 0.950 . S
C1834 C1832 1.391 . S
C1834 C1835 1.400 . S
C1835 C1834 1.400 . S
C1835 C1836 1.398 . S
C1835 C1841 1.491 . S
C1836 H1827 0.950 . S
C1836 C1835 1.398 . S
C1836 C1837 1.391 . S
C1837 H1825 0.950 . S
C1837 C1833 1.393 . S
C1837 C1836 1.391 . S
C1838 H1828 0.950 . S
C1838 C1839 1.386 . S
C1838 C1840 1.391 . S
C1839 C1838 1.386 . S
C1839 C1843 1.393 . S
C1840 H1829 0.950 . S
C1840 C1838 1.391 . S
C1840 C1841 1.400 . S
C1841 C1835 1.491 . S
C1841 C1840 1.400 . S
C1841 C1842 1.398 . S
C1842 H1830 0.950 . S
C1842 C1841 1.398 . S
C1842 C1843 1.391 . S
C1843 H1831 0.950 . S
C1843 C1839 1.393 . S
C1843 C1842 1.391 . S
H1844 C1852 0.950 . S
H1845 C1857 0.950 . S
H1846 C1854 0.950 . S
H1847 C1856 0.950 . S
H1848 C1858 0.950 . S
H1849 C1860 0.950 . S
H1850 C1862 0.950 . S
H1851 C1863 0.950 . S
C1852 H1844 0.950 . S
C1852 C1853 1.386 . S
C1852 C1854 1.391 . S
C1853 C1852 1.386 . S
C1853 C1857 1.393 . S
C1854 H1846 0.950 . S
C1854 C1852 1.391 . S
C1854 C1855 1.400 . S
C1855 C1854 1.400 . S
C1855 C1856 1.398 . S
C1855 C1861 1.491 . S
C1856 H1847 0.950 . S
C1856 C1855 1.398 . S
C1856 C1857 1.391 . S
C1857 H1845 0.950 . S
C1857 C1853 1.393 . S
C1857 C1856 1.391 . S
C1858 H1848 0.950 . S
C1858 C1859 1.386 . S
C1858 C1860 1.391 . S
C1859 C1858 1.386 . S
C1859 C1863 1.393 . S
C1860 H1849 0.950 . S
C1860 C1858 1.391 . S
C1860 C1861 1.400 . S
C1861 C1855 1.491 . S
C1861 C1860 1.400 . S
C1861 C1862 1.398 . S
C1862 H1850 0.950 . S
C1862 C1861 1.398 . S
C1862 C1863 1.391 . S
C1863 H1851 0.950 . S
C1863 C1859 1.393 . S
C1863 C1862 1.391 . S
H1864 C1872 0.950 . S
H1865 C1877 0.950 . S
H1866 C1874 0.950 . S
H1867 C1876 0.950 . S
H1868 C1878 0.950 . S
H1869 C1880 0.950 . S
H1870 C1882 0.950 . S
H1871 C1883 0.950 . S
C1872 H1864 0.950 . S
C1872 C1873 1.386 . S
C1872 C1874 1.391 . S
C1873 C1872 1.386 . S
C1873 C1877 1.393 . S
C1874 H1866 0.950 . S
C1874 C1872 1.391 . S
C1874 C1875 1.400 . S
C1875 C1874 1.400 . S
C1875 C1876 1.398 . S
C1875 C1881 1.491 . S
C1876 H1867 0.950 . S
C1876 C1875 1.398 . S
C1876 C1877 1.391 . S
C1877 H1865 0.950 . S
C1877 C1873 1.393 . S
C1877 C1876 1.391 . S
C1878 H1868 0.950 . S
C1878 C1879 1.386 . S
C1878 C1880 1.391 . S
C1879 C1878 1.386 . S
C1879 C1883 1.393 . S
C1880 H1869 0.950 . S
C1880 C1878 1.391 . S
C1880 C1881 1.400 . S
C1881 C1875 1.491 . S
C1881 C1880 1.400 . S
C1881 C1882 1.398 . S
C1882 H1870 0.950 . S
C1882 C1881 1.398 . S
C1882 C1883 1.391 . S
C1883 H1871 0.950 . S
C1883 C1879 1.393 . S
C1883 C1882 1.391 . S
H1884 C1892 0.950 . S
H1885 C1897 0.950 . S
H1886 C1894 0.950 . S
H1887 C1896 0.950 . S
H1888 C1898 0.950 . S
H1889 C1900 0.950 . S
H1890 C1902 0.950 . S
H1891 C1903 0.950 . S
C1892 H1884 0.950 . S
C1892 C1893 1.386 . S
C1892 C1894 1.391 . S
C1893 C1892 1.386 . S
C1893 C1897 1.393 . S
C1894 H1886 0.950 . S
C1894 C1892 1.391 . S
C1894 C1895 1.400 . S
C1895 C1894 1.400 . S
C1895 C1896 1.398 . S
C1895 C1901 1.491 . S
C1896 H1887 0.950 . S
C1896 C1895 1.398 . S
C1896 C1897 1.391 . S
C1897 H1885 0.950 . S
C1897 C1893 1.393 . S
C1897 C1896 1.391 . S
C1898 H1888 0.950 . S
C1898 C1899 1.386 . S
C1898 C1900 1.391 . S
C1899 C1898 1.386 . S
C1899 C1903 1.393 . S
C1900 H1889 0.950 . S
C1900 C1898 1.391 . S
C1900 C1901 1.400 . S
C1901 C1895 1.491 . S
C1901 C1900 1.400 . S
C1901 C1902 1.398 . S
C1902 H1890 0.950 . S
C1902 C1901 1.398 . S
C1902 C1903 1.391 . S
C1903 H1891 0.950 . S
C1903 C1899 1.393 . S
C1903 C1902 1.391 . S
H1904 C1912 0.950 . S
H1905 C1917 0.950 . S
H1906 C1914 0.950 . S
H1907 C1916 0.950 . S
H1908 C1918 0.950 . S
H1909 C1920 0.950 . S
H1910 C1922 0.950 . S
H1911 C1923 0.950 . S
C1912 H1904 0.950 . S
C1912 C1913 1.386 . S
C1912 C1914 1.391 . S
C1913 C1912 1.386 . S
C1913 C1917 1.393 . S
C1914 H1906 0.950 . S
C1914 C1912 1.391 . S
C1914 C1915 1.400 . S
C1915 C1914 1.400 . S
C1915 C1916 1.398 . S
C1915 C1921 1.491 . S
C1916 H1907 0.950 . S
C1916 C1915 1.398 . S
C1916 C1917 1.391 . S
C1917 H1905 0.950 . S
C1917 C1913 1.393 . S
C1917 C1916 1.391 . S
C1918 H1908 0.950 . S
C1918 C1919 1.386 . S
C1918 C1920 1.391 . S
C1919 C1918 1.386 . S
C1919 C1923 1.393 . S
C1920 H1909 0.950 . S
C1920 C1918 1.391 . S
C1920 C1921 1.400 . S
C1921 C1915 1.491 . S
C1921 C1920 1.400 . S
C1921 C1922 1.398 . S
C1922 H1910 0.950 . S
C1922 C1921 1.398 . S
C1922 C1923 1.391 . S
C1923 H1911 0.950 . S
C1923 C1919 1.393 . S
C1923 C1922 1.391 . S
H1924 C1932 0.950 . S
H1925 C1937 0.950 . S
H1926 C1934 0.950 . S
H1927 C1936 0.950 . S
H1928 C1938 0.950 . S
H1929 C1940 0.950 . S
H1930 C1942 0.950 . S
H1931 C1943 0.950 . S
C1932 H1924 0.950 . S
C1932 C1933 1.386 . S
C1932 C1934 1.391 . S
C1933 C1932 1.386 . S
C1933 C1937 1.393 . S
C1934 H1926 0.950 . S
C1934 C1932 1.391 . S
C1934 C1935 1.400 . S
C1935 C1934 1.400 . S
C1935 C1936 1.398 . S
C1935 C1941 1.491 . S
C1936 H1927 0.950 . S
C1936 C1935 1.398 . S
C1936 C1937 1.391 . S
C1937 H1925 0.950 . S
C1937 C1933 1.393 . S
C1937 C1936 1.391 . S
C1938 H1928 0.950 . S
C1938 C1939 1.386 . S
C1938 C1940 1.391 . S
C1939 C1938 1.386 . S
C1939 C1943 1.393 . S
C1940 H1929 0.950 . S
C1940 C1938 1.391 . S
C1940 C1941 1.400 . S
C1941 C1935 1.491 . S
C1941 C1940 1.400 . S
C1941 C1942 1.398 . S
C1942 H1930 0.950 . S
C1942 C1941 1.398 . S
C1942 C1943 1.391 . S
C1943 H1931 0.950 . S
C1943 C1939 1.393 . S
C1943 C1942 1.391 . S
C513 C37 1.293 . S
C519 C256 1.140 . S
C533 C9 1.259 . S
C539 C272 1.095 . S
C559 C255 1.105 . S
C553 C19 1.294 . S
C579 C280 1.122 . S
C573 C33 1.275 . S
C593 C5 1.310 . S
C599 C289 1.180 1_565 S
C619 C292 1.089 . S
C613 C23 1.281 . S
C633 C75 1.278 . S
C639 C298 1.080 . S
C659 C314 1.129 . S
C653 C51 1.254 . S
C679 C297 1.119 . S
C673 C65 1.307 . S
C693 C79 1.298 . S
C699 C322 1.100 . S
C719 C331 1.112 . S
C713 C47 1.306 . S
C739 C334 1.080 . S
C733 C61 1.274 . S
C759 C343 1.106 . S
C753 C121 1.294 . S
C779 C355 1.089 . S
C773 C93 1.260 . S
C799 C352 1.153 . S
C793 C103 1.285 . S
C813 C117 1.281 . S
C819 C361 1.138 . S
C839 C360 1.141 . S
C833 C89 1.317 . S
C853 C107 1.284 . S
C859 C377 1.093 . S
C879 C382 1.108 . S
C873 C159 1.283 . S
C899 C398 1.125 . S
C893 C135 1.252 . S
C913 C149 1.300 . S
C919 C381 1.132 . S
C939 C406 1.157 . S
C933 C163 1.304 . S
C959 C415 1.155 . S
C953 C131 1.304 . S
C973 C145 1.271 . S
C979 C418 1.084 . S
C993 C205 1.286 . S
C999 C427 1.088 . S
C1019 C439 1.118 . S
C1013 C177 1.259 . S
C1039 C436 1.158 . S
C1033 C187 1.289 . S
C1053 C201 1.283 . S
C1059 C445 1.083 . S
C1079 C444 1.138 . S
C1073 C173 1.306 . S
C1093 C191 1.273 . S
C1099 C461 1.127 . S
C1119 C466 1.106 . S
C1113 C243 1.272 . S
C1139 C482 1.097 . S
C1133 C219 1.248 . S
C1153 C233 1.318 . S
C1159 C465 1.147 . S
C1179 C487 1.146 . S
C1173 C247 1.295 . S
C1199 C486 1.111 . S
C1193 C215 1.305 . S
C1219 C503 1.084 . S
C1213 C229 1.276 . S
C1239 C268 1.542 . S
C1233 C154 1.622 . S
C1253 C137 1.533 . S
C1259 C271 1.454 . S
C1279 C259 1.456 . S
C1273 C151 1.542 . S
C1293 C249 1.580 . S
C1299 C276 1.480 . S
C1313 C210 1.520 . S
C1319 C277 1.442 . S
C1339 C293 1.548 . S
C1333 C224 1.638 . S
C1359 C310 1.441 1_565 S
C1353 C207 1.522 . S
C1379 C313 1.500 . S
C1373 C179 1.610 . S
C1393 C182 1.566 . S
C1399 C301 1.480 . S
C1419 C318 1.540 . S
C1413 C112 1.614 . S
C1433 C84 1.609 . S
C1439 C319 1.525 . S
C1453 C109 1.538 . S
C1459 C335 1.459 . S
C1473 C238 1.628 . S
C1479 C339 1.527 . S
C1493 C221 1.526 . S
C1499 C356 1.448 . S
C1519 C340 1.424 . S
C1513 C235 1.532 . S
C1539 C373 1.512 . S
C1533 C81 1.589 . S
C1559 C364 1.440 . S
C1553 C42 1.519 . S
C1573 C56 1.651 . S
C1579 C376 1.569 . S
C1599 C394 1.409 . S
C1593 C39 1.510 . S
C1619 C397 1.510 . S
C1613 C11 1.613 . S
C1633 C14 1.574 . S
C1639 C385 1.487 . S
C1659 C402 1.536 . S
C1653 C196 1.622 . S
C1679 C403 1.515 . S
C1673 C168 1.592 1_655 S
C1699 C419 1.427 . S
C1693 C193 1.527 . S
C1719 C423 1.535 . S
C1713 C70 1.632 . S
C1739 C440 1.452 . S
C1733 C53 1.533 . S
C1753 C67 1.545 . S
C1759 C424 1.454 . S
C1773 C165 1.590 . S
C1779 C457 1.511 . S
C1793 C126 1.519 . S
C1799 C448 1.412 . S
C1819 C460 1.568 . S
C1813 C140 1.646 . S
C1833 C123 1.515 . S
C1839 C478 1.411 . S
C1853 C95 1.602 . S
C1859 C481 1.499 . S
C1879 C469 1.487 . S
C1873 C98 1.572 1_565 S
C1899 C499 1.520 . S
C1893 C28 1.617 . S
C1919 C490 1.518 . S
C1913 C0 1.601 . S
C1933 C25 1.539 . S
C1939 C502 1.454 . S
