# Generated by pormake.
# Topology fgl, (4,4)-cn, num edge types: 1
# Building blocks:
#     Node 0, Type 0, BuildingBlock: ESEHIV_clean_sbu_0, # of connection points: 4
#     Node 1, Type 0, BuildingBlock: ESEHIV_clean_sbu_0, # of connection points: 4
#     Node 2, Type 0, BuildingBlock: ESEHIV_clean_sbu_0, # of connection points: 4
#     Node 3, Type 0, BuildingBlock: ESEHIV_clean_sbu_0, # of connection points: 4
#     Node 4, Type 0, BuildingBlock: ESEHIV_clean_sbu_0, # of connection points: 4
#     Node 5, Type 0, BuildingBlock: ESEHIV_clean_sbu_0, # of connection points: 4
#     Node 6, Type 0, BuildingBlock: ESEHIV_clean_sbu_0, # of connection points: 4
#     Node 7, Type 0, BuildingBlock: ESEHIV_clean_sbu_0, # of connection points: 4
#     Node 8, Type 0, BuildingBlock: ESEHIV_clean_sbu_0, # of connection points: 4
#     Node 9, Type 0, BuildingBlock: ESEHIV_clean_sbu_0, # of connection points: 4
#     Node 10, Type 0, BuildingBlock: ESEHIV_clean_sbu_0, # of connection points: 4
#     Node 11, Type 0, BuildingBlock: ESEHIV_clean_sbu_0, # of connection points: 4
#     Node 12, Type 0, BuildingBlock: ESEHIV_clean_sbu_0, # of connection points: 4
#     Node 13, Type 0, BuildingBlock: ESEHIV_clean_sbu_0, # of connection points: 4
#     Node 14, Type 0, BuildingBlock: ESEHIV_clean_sbu_0, # of connection points: 4
#     Node 15, Type 0, BuildingBlock: ESEHIV_clean_sbu_0, # of connection points: 4
#     Node 16, Type 0, BuildingBlock: ESEHIV_clean_sbu_0, # of connection points: 4
#     Node 17, Type 0, BuildingBlock: ESEHIV_clean_sbu_0, # of connection points: 4
#     Node 18, Type 1, BuildingBlock: NAHDIM_clean_sbu_0, # of connection points: 4
#     Node 19, Type 1, BuildingBlock: NAHDIM_clean_sbu_0, # of connection points: 4
#     Node 20, Type 1, BuildingBlock: NAHDIM_clean_sbu_0, # of connection points: 4
#     Node 21, Type 1, BuildingBlock: NAHDIM_clean_sbu_0, # of connection points: 4
#     Node 22, Type 1, BuildingBlock: NAHDIM_clean_sbu_0, # of connection points: 4
#     Node 23, Type 1, BuildingBlock: NAHDIM_clean_sbu_0, # of connection points: 4
#     Node 24, Type 1, BuildingBlock: NAHDIM_clean_sbu_0, # of connection points: 4
#     Node 25, Type 1, BuildingBlock: NAHDIM_clean_sbu_0, # of connection points: 4
#     Node 26, Type 1, BuildingBlock: NAHDIM_clean_sbu_0, # of connection points: 4
#     Node 27, Type 1, BuildingBlock: NAHDIM_clean_sbu_0, # of connection points: 4
#     Node 28, Type 1, BuildingBlock: NAHDIM_clean_sbu_0, # of connection points: 4
#     Node 29, Type 1, BuildingBlock: NAHDIM_clean_sbu_0, # of connection points: 4
#     Node 30, Type 1, BuildingBlock: NAHDIM_clean_sbu_0, # of connection points: 4
#     Node 31, Type 1, BuildingBlock: NAHDIM_clean_sbu_0, # of connection points: 4
#     Node 32, Type 1, BuildingBlock: NAHDIM_clean_sbu_0, # of connection points: 4
#     Node 33, Type 1, BuildingBlock: NAHDIM_clean_sbu_0, # of connection points: 4
#     Node 34, Type 1, BuildingBlock: NAHDIM_clean_sbu_0, # of connection points: 4
#     Node 35, Type 1, BuildingBlock: NAHDIM_clean_sbu_0, # of connection points: 4
#     Edge 36, Type (0, 1), BuildingBlock: OJICUG_clean_linker_0, # of connection points: 2
#     Edge 37, Type (0, 1), BuildingBlock: OJICUG_clean_linker_0, # of connection points: 2
#     Edge 38, Type (0, 1), BuildingBlock: OJICUG_clean_linker_0, # of connection points: 2
#     Edge 39, Type (0, 1), BuildingBlock: OJICUG_clean_linker_0, # of connection points: 2
#     Edge 40, Type (0, 1), BuildingBlock: OJICUG_clean_linker_0, # of connection points: 2
#     Edge 41, Type (0, 1), BuildingBlock: OJICUG_clean_linker_0, # of connection points: 2
#     Edge 42, Type (0, 1), BuildingBlock: OJICUG_clean_linker_0, # of connection points: 2
#     Edge 43, Type (0, 1), BuildingBlock: OJICUG_clean_linker_0, # of connection points: 2
#     Edge 44, Type (0, 1), BuildingBlock: OJICUG_clean_linker_0, # of connection points: 2
#     Edge 45, Type (0, 1), BuildingBlock: OJICUG_clean_linker_0, # of connection points: 2
#     Edge 46, Type (0, 1), BuildingBlock: OJICUG_clean_linker_0, # of connection points: 2
#     Edge 47, Type (0, 1), BuildingBlock: OJICUG_clean_linker_0, # of connection points: 2
#     Edge 48, Type (0, 1), BuildingBlock: OJICUG_clean_linker_0, # of connection points: 2
#     Edge 49, Type (0, 1), BuildingBlock: OJICUG_clean_linker_0, # of connection points: 2
#     Edge 50, Type (0, 1), BuildingBlock: OJICUG_clean_linker_0, # of connection points: 2
#     Edge 51, Type (0, 1), BuildingBlock: OJICUG_clean_linker_0, # of connection points: 2
#     Edge 52, Type (0, 1), BuildingBlock: OJICUG_clean_linker_0, # of connection points: 2
#     Edge 53, Type (0, 1), BuildingBlock: OJICUG_clean_linker_0, # of connection points: 2
#     Edge 54, Type (0, 1), BuildingBlock: OJICUG_clean_linker_0, # of connection points: 2
#     Edge 55, Type (0, 1), BuildingBlock: OJICUG_clean_linker_0, # of connection points: 2
#     Edge 56, Type (0, 1), BuildingBlock: OJICUG_clean_linker_0, # of connection points: 2
#     Edge 57, Type (0, 1), BuildingBlock: OJICUG_clean_linker_0, # of connection points: 2
#     Edge 58, Type (0, 1), BuildingBlock: OJICUG_clean_linker_0, # of connection points: 2
#     Edge 59, Type (0, 1), BuildingBlock: OJICUG_clean_linker_0, # of connection points: 2
#     Edge 60, Type (0, 1), BuildingBlock: OJICUG_clean_linker_0, # of connection points: 2
#     Edge 61, Type (0, 1), BuildingBlock: OJICUG_clean_linker_0, # of connection points: 2
#     Edge 62, Type (0, 1), BuildingBlock: OJICUG_clean_linker_0, # of connection points: 2
#     Edge 63, Type (0, 1), BuildingBlock: OJICUG_clean_linker_0, # of connection points: 2
#     Edge 64, Type (0, 1), BuildingBlock: OJICUG_clean_linker_0, # of connection points: 2
#     Edge 65, Type (0, 1), BuildingBlock: OJICUG_clean_linker_0, # of connection points: 2
#     Edge 66, Type (0, 1), BuildingBlock: OJICUG_clean_linker_0, # of connection points: 2
#     Edge 67, Type (0, 1), BuildingBlock: OJICUG_clean_linker_0, # of connection points: 2
#     Edge 68, Type (0, 1), BuildingBlock: OJICUG_clean_linker_0, # of connection points: 2
#     Edge 69, Type (0, 1), BuildingBlock: OJICUG_clean_linker_0, # of connection points: 2
#     Edge 70, Type (0, 1), BuildingBlock: OJICUG_clean_linker_0, # of connection points: 2
#     Edge 71, Type (0, 1), BuildingBlock: OJICUG_clean_linker_0, # of connection points: 2
#     Edge 72, Type (0, 1), BuildingBlock: OJICUG_clean_linker_0, # of connection points: 2
#     Edge 73, Type (0, 1), BuildingBlock: OJICUG_clean_linker_0, # of connection points: 2
#     Edge 74, Type (0, 1), BuildingBlock: OJICUG_clean_linker_0, # of connection points: 2
#     Edge 75, Type (0, 1), BuildingBlock: OJICUG_clean_linker_0, # of connection points: 2
#     Edge 76, Type (0, 1), BuildingBlock: OJICUG_clean_linker_0, # of connection points: 2
#     Edge 77, Type (0, 1), BuildingBlock: OJICUG_clean_linker_0, # of connection points: 2
#     Edge 78, Type (0, 1), BuildingBlock: OJICUG_clean_linker_0, # of connection points: 2
#     Edge 79, Type (0, 1), BuildingBlock: OJICUG_clean_linker_0, # of connection points: 2
#     Edge 80, Type (0, 1), BuildingBlock: OJICUG_clean_linker_0, # of connection points: 2
#     Edge 81, Type (0, 1), BuildingBlock: OJICUG_clean_linker_0, # of connection points: 2
#     Edge 82, Type (0, 1), BuildingBlock: OJICUG_clean_linker_0, # of connection points: 2
#     Edge 83, Type (0, 1), BuildingBlock: OJICUG_clean_linker_0, # of connection points: 2
#     Edge 84, Type (0, 1), BuildingBlock: OJICUG_clean_linker_0, # of connection points: 2
#     Edge 85, Type (0, 1), BuildingBlock: OJICUG_clean_linker_0, # of connection points: 2
#     Edge 86, Type (0, 1), BuildingBlock: OJICUG_clean_linker_0, # of connection points: 2
#     Edge 87, Type (0, 1), BuildingBlock: OJICUG_clean_linker_0, # of connection points: 2
#     Edge 88, Type (0, 1), BuildingBlock: OJICUG_clean_linker_0, # of connection points: 2
#     Edge 89, Type (0, 1), BuildingBlock: OJICUG_clean_linker_0, # of connection points: 2
#     Edge 90, Type (0, 1), BuildingBlock: OJICUG_clean_linker_0, # of connection points: 2
#     Edge 91, Type (0, 1), BuildingBlock: OJICUG_clean_linker_0, # of connection points: 2
#     Edge 92, Type (0, 1), BuildingBlock: OJICUG_clean_linker_0, # of connection points: 2
#     Edge 93, Type (0, 1), BuildingBlock: OJICUG_clean_linker_0, # of connection points: 2
#     Edge 94, Type (0, 1), BuildingBlock: OJICUG_clean_linker_0, # of connection points: 2
#     Edge 95, Type (0, 1), BuildingBlock: OJICUG_clean_linker_0, # of connection points: 2
#     Edge 96, Type (0, 1), BuildingBlock: OJICUG_clean_linker_0, # of connection points: 2
#     Edge 97, Type (0, 1), BuildingBlock: OJICUG_clean_linker_0, # of connection points: 2
#     Edge 98, Type (0, 1), BuildingBlock: OJICUG_clean_linker_0, # of connection points: 2
#     Edge 99, Type (0, 1), BuildingBlock: OJICUG_clean_linker_0, # of connection points: 2
#     Edge 100, Type (0, 1), BuildingBlock: OJICUG_clean_linker_0, # of connection points: 2
#     Edge 101, Type (0, 1), BuildingBlock: OJICUG_clean_linker_0, # of connection points: 2
#     Edge 102, Type (0, 1), BuildingBlock: OJICUG_clean_linker_0, # of connection points: 2
#     Edge 103, Type (0, 1), BuildingBlock: OJICUG_clean_linker_0, # of connection points: 2
#     Edge 104, Type (0, 1), BuildingBlock: OJICUG_clean_linker_0, # of connection points: 2
#     Edge 105, Type (0, 1), BuildingBlock: OJICUG_clean_linker_0, # of connection points: 2
#     Edge 106, Type (0, 1), BuildingBlock: OJICUG_clean_linker_0, # of connection points: 2
#     Edge 107, Type (0, 1), BuildingBlock: OJICUG_clean_linker_0, # of connection points: 2
# Relax obj value: 0.042
# Max RMSD: 0.162
# Mean RMSD: 0.110
data_MOF--net-fgl--node1-ESEHIV_clean_sbu_0--node2-NAHDIM_clean_sbu_0--edge1-OJICUG_clean_linker_0
_symmetry_space_group_name_H-M    P1
_symmetry_Int_Tables_number       1
_symmetry_cell_setting            triclinic
loop_
_symmetry_equiv_pos_as_xyz
'x, y, z'
_cell_length_a     54.975899
_cell_length_b     56.010488
_cell_length_c     37.848814
_cell_angle_alpha  88.392557
_cell_angle_beta   90.905203
_cell_angle_gamma 119.47042
loop_
_atom_site_label
_atom_site_type_symbol
_atom_site_fract_x
_atom_site_fract_y
_atom_site_fract_z
_atom_type_partial_charge
Cu0 Cu 0.01466 0.53117 0.99654 0.0
N1 N 0.03451 0.56182 0.02497 0.0
N2 N 0.03988 0.59258 0.0655 0.0
C3 C 0.02174 0.56978 0.04821 0.0
C4 C 0.06523 0.5994 0.05222 0.0
C5 C 0.06185 0.58037 0.02721 0.0
O6 O 0.98203 0.53387 0.98212 0.0
C7 C 0.01517 0.49635 0.0529 0.0
O8 O 0.0278 0.51866 0.07157 0.0
H9 H 0.99934 0.55901 0.05199 0.0
H10 H 0.07813 0.58007 0.01187 0.0
N11 N 0.0339 0.53031 0.9567 0.0
N12 N 0.0406 0.51144 0.90906 0.0
C13 C 0.027 0.50688 0.94001 0.0
C14 C 0.05287 0.55059 0.93584 0.0
C15 C 0.05699 0.53897 0.9063 0.0
C16 C 0.9786 0.54032 0.95064 0.0
O17 O 0.99216 0.53697 0.92474 0.0
H18 H 1.01091 0.48696 0.94942 0.0
H19 H 0.06196 0.57224 0.94084 0.0
O20 O 1.00569 0.4974 0.02235 0.0
H21 H 0.08487 0.6166 0.06035 0.0
H22 H 0.07047 0.54998 0.88417 0.0
Cu23 Cu 0.51777 0.56087 1.00851 0.0
N24 N 0.52503 0.57325 0.95904 0.0
N25 N 0.54779 0.59122 0.90835 0.0
C26 C 0.54971 0.58402 0.94219 0.0
C27 C 0.52074 0.58444 0.90374 0.0
C28 C 0.50674 0.57338 0.93514 0.0
O29 O 0.54444 0.60038 0.02441 0.0
C30 C 0.48817 0.49933 1.00305 0.0
O31 O 0.50634 0.50006 0.02658 0.0
H32 H 0.56866 0.58641 0.95439 0.0
H33 H 0.48492 0.56627 0.94034 0.0
N34 N 0.51126 0.54879 0.05811 0.0
N35 N 0.4908 0.52999 0.10965 0.0
C36 C 0.4868 0.53482 0.07544 0.0
C37 C 0.53125 0.55279 0.08193 0.0
C38 C 0.51871 0.5413 0.11376 0.0
C39 C 0.57075 0.61004 0.02748 0.0
O40 O 0.58135 0.59417 0.0205 0.0
H41 H 0.46662 0.52822 0.06323 0.0
H42 H 0.55337 0.56293 0.07643 0.0
O43 O 0.48953 0.52177 0.99214 0.0
H44 H 0.51186 0.58792 0.87973 0.0
H45 H 0.52928 0.54053 0.13778 0.0
Cu46 Cu 0.53395 0.06843 0.05973 0.0
N47 N 0.52372 0.08595 0.02526 0.0
N48 N 0.50191 0.08971 0.97723 0.0
C49 C 0.50486 0.07246 1.00005 0.0
C50 C 0.51965 0.11519 0.9885 0.0
C51 C 0.53301 0.11279 0.01848 0.0
O52 O 0.49888 0.03617 0.07348 0.0
C53 C 0.58254 0.08118 0.02427 0.0
O54 O 0.58353 0.1051 0.02321 0.0
H55 H 0.49419 0.05036 0.99786 0.0
H56 H 0.54876 0.12938 0.03375 0.0
N57 N 0.54976 0.09098 0.09812 0.0
N58 N 0.57451 0.10699 0.14751 0.0
C59 C 0.56847 0.0899 0.12033 0.0
C60 C 0.54381 0.10955 0.11137 0.0
C61 C 0.55921 0.11961 0.14189 0.0
C62 C 0.4908 0.02945 0.10536 0.0
O63 O 0.50877 0.04121 0.13109 0.0
H64 H 0.57701 0.07635 0.11687 0.0
H65 H 0.52872 0.11475 0.10023 0.0
O66 O 0.56192 0.06094 0.03962 0.0
H67 H 0.52281 0.13409 0.9759 0.0
H68 H 0.55836 0.13419 0.15927 0.0
Cu69 Cu 0.51576 0.05181 0.53468 0.0
N70 N 0.55103 0.07946 0.52127 0.0
N71 N 0.59082 0.10131 0.491 0.0
C72 C 0.56654 0.07771 0.49553 0.0
C73 C 0.59048 0.11868 0.51474 0.0
C74 C 0.56583 0.10505 0.53352 0.0
O75 O 0.50776 0.01692 0.51438 0.0
C76 C 0.48842 0.07428 0.4898 0.0
O77 O 0.50909 0.08054 0.46784 0.0
H78 H 0.5597 0.05967 0.47978 0.0
H79 H 0.55901 0.11326 0.5543 0.0
N80 N 0.51241 0.04799 0.58344 0.0
N81 N 0.49079 0.03867 0.63545 0.0
C82 C 0.48775 0.03551 0.6002 0.0
C83 C 0.53193 0.05942 0.60883 0.0
C84 C 0.51861 0.05354 0.64107 0.0
C85 C 0.51755 1.00035 0.51349 0.0
O86 O 0.50338 0.97822 0.49476 0.0
H87 H 0.46793 0.02526 0.58646 0.0
H88 H 0.55409 0.07219 0.60413 0.0
O89 O 0.48748 0.06174 0.51884 0.0
H90 H 0.60677 0.13968 0.51821 0.0
H91 H 0.52853 0.06108 0.66636 0.0
Cu92 Cu 0.02153 0.55181 0.49383 0.0
N93 N 0.04481 0.54041 0.51648 0.0
N94 N 0.0543 0.51368 0.55258 0.0
C95 C 0.03427 0.51777 0.53755 0.0
C96 C 0.07869 0.53466 0.54068 0.0
C97 C 0.07276 0.55102 0.51797 0.0
O98 O 0.98677 0.51709 0.49031 0.0
C99 C 0.04143 0.59955 0.53198 0.0
O100 O 0.0652 0.60027 0.52571 0.0
H101 H 1.01219 0.50492 0.54273 0.0
H102 H 0.08774 0.56947 0.50404 0.0
N103 N 0.03374 0.56852 0.44906 0.0
N104 N 0.03514 0.59223 0.39966 0.0
C105 C 0.02495 0.58467 0.43281 0.0
C106 C 0.05037 0.56594 0.42556 0.0
C107 C 0.05116 0.58045 0.39498 0.0
C108 C 0.98149 0.5032 0.46238 0.0
O109 O 0.99204 0.51628 0.43233 0.0
H110 H 1.01054 0.59001 0.44474 0.0
H111 H 0.06057 0.55381 0.43001 0.0
O112 O 0.01875 0.57891 0.52198 0.0
H113 H 0.09922 0.53788 0.54781 0.0
H114 H 0.06261 0.58215 0.37117 0.0
Cu115 Cu 0.5395 0.54761 0.51251 0.0
N116 N 0.57373 0.55529 0.49341 0.0
N117 N 0.61828 0.58146 0.47773 0.0
C118 C 0.59576 0.58076 0.49212 0.0
C119 C 0.61012 0.55542 0.46889 0.0
C120 C 0.58249 0.53917 0.47885 0.0
O121 O 0.54773 0.57825 0.54275 0.0
C122 C 0.50419 0.51641 0.46025 0.0
O123 O 0.51478 0.50116 0.4719 0.0
H124 H 0.59521 0.59862 0.50131 0.0
H125 H 0.56984 0.51726 0.47583 0.0
N126 N 0.52419 0.5169 0.54239 0.0
N127 N 0.48937 0.48216 0.57155 0.0
C128 C 0.49853 0.50693 0.55586 0.0
C129 C 0.53208 0.49814 0.55032 0.0
C130 C 0.51038 0.47643 0.56818 0.0
C131 C 0.56528 0.58035 0.56661 0.0
O132 O 0.57378 0.56214 0.56815 0.0
H133 H 0.48573 0.51645 0.55097 0.0
H134 H 0.55124 0.49925 0.54157 0.0
O135 O 0.51261 0.53974 0.47407 0.0
H136 H 0.62326 0.54862 0.45666 0.0
H137 H 0.50937 0.4572 0.57586 0.0
Cu138 Cu 0.68949 0.89254 0.34362 0.0
N139 N 0.70583 0.92768 0.32323 0.0
N140 N 0.7117 0.96973 0.31521 0.0
C141 C 0.69515 0.94428 0.32831 0.0
C142 C 0.7336 0.9692 0.3005 0.0
C143 C 0.73002 0.94312 0.30573 0.0
O144 O 0.67084 0.89611 0.38628 0.0
C145 C 0.68369 0.86681 0.28012 0.0
O146 O 0.71031 0.88528 0.28077 0.0
H147 H 0.67595 0.93804 0.34256 0.0
H148 H 0.7446 0.93637 0.29862 0.0
N149 N 0.71618 0.88347 0.35939 0.0
N150 N 0.73332 0.8563 0.37673 0.0
C151 C 0.71018 0.8578 0.36847 0.0
C152 C 0.74413 0.89892 0.36207 0.0
C153 C 0.7548 0.88214 0.37272 0.0
C154 C 0.68778 0.91442 0.4076 0.0
O155 O 0.7146 0.9264 0.40051 0.0
H156 H 0.68925 0.84039 0.36771 0.0
H157 H 0.75592 0.92071 0.35629 0.0
O158 O 0.66846 0.8657 0.30616 0.0
H159 H 0.75148 0.98669 0.28857 0.0
H160 H 0.77663 0.88842 0.37703 0.0
Cu161 Cu 0.18529 0.89252 0.35174 0.0
N162 N 0.15337 0.87722 0.32319 0.0
N163 N 0.1192 0.84528 0.29052 0.0
C164 C 0.14072 0.85105 0.31277 0.0
C165 C 0.11832 0.8689 0.28676 0.0
C166 C 0.13944 0.8886 0.30703 0.0
O167 O 0.17762 0.86659 0.3913 0.0
C168 C 0.2206 0.91843 0.29706 0.0
O169 O 0.20444 0.92959 0.29701 0.0
H170 H 0.14779 0.83675 0.32067 0.0
H171 H 0.14456 0.90977 0.30932 0.0
N172 N 0.1936 0.92628 0.3707 0.0
N173 N 0.22019 0.96826 0.39216 0.0
C174 C 0.21968 0.94597 0.37863 0.0
C175 C 0.17684 0.93634 0.37964 0.0
C176 C 0.19321 0.96226 0.39302 0.0
C177 C 0.15516 0.86059 0.40779 0.0
O178 O 0.14058 0.87225 0.39698 0.0
H179 H 0.23795 0.9438 0.37474 0.0
H180 H 0.15437 0.92568 0.37657 0.0
O181 O 0.21632 0.8999 0.32044 0.0
H182 H 0.1035 0.87176 0.27061 0.0
H183 H 0.18588 0.97578 0.402 0.0
Cu184 Cu 0.19812 0.41265 0.33985 0.0
N185 N 0.1924 0.43249 0.30339 0.0
N186 N 0.1743 0.43851 0.25285 0.0
C187 C 0.1734 0.42036 0.27773 0.0
C188 C 0.19462 0.46322 0.26365 0.0
C189 C 0.20581 0.45944 0.29486 0.0
O190 O 0.16183 0.38936 0.36152 0.0
C191 C 0.23632 0.40678 0.29952 0.0
O192 O 0.23906 0.42957 0.28516 0.0
H193 H 0.15936 0.39846 0.27739 0.0
H194 H 0.22308 0.47507 0.30948 0.0
N195 N 0.22271 0.4339 0.37487 0.0
N196 N 0.25185 0.44142 0.42027 0.0
C197 C 0.23445 0.42319 0.39676 0.0
C198 C 0.23287 0.46001 0.38471 0.0
C199 C 0.25087 0.4647 0.41293 0.0
C200 C 0.15211 0.40213 0.37854 0.0
O201 O 0.1674 0.42889 0.38093 0.0
H202 H 0.22967 0.40204 0.39576 0.0
H203 H 0.22743 0.47448 0.37265 0.0
O204 O 0.21668 0.39353 0.3217 0.0
H205 H 0.20159 0.48255 0.2495 0.0
H206 H 0.26232 0.48375 0.42682 0.0
Cu207 Cu 0.17602 0.35151 0.84599 0.0
N208 N 0.18248 0.33826 0.80481 0.0
N209 N 0.20297 0.3415 0.75314 0.0
C210 C 0.20178 0.355 0.78137 0.0
C211 C 0.18358 0.31496 0.75933 0.0
C212 C 0.17089 0.31302 0.79136 0.0
O213 O 0.21054 0.36399 0.87369 0.0
C214 C 0.14315 0.3675 0.80854 0.0
O215 O 0.13501 0.34279 0.79704 0.0
H216 H 0.21501 0.37672 0.78552 0.0
H217 H 0.15446 0.29465 0.80383 0.0
N218 N 0.14724 0.32519 0.87382 0.0
N219 N 0.11942 0.31339 0.92081 0.0
C220 C 0.1453 0.32961 0.90807 0.0
C221 C 0.12174 0.30503 0.86453 0.0
C222 C 0.1044 0.29784 0.89356 0.0
C223 C 0.21488 0.3442 0.88271 0.0
O224 O 0.19613 0.31929 0.87365 0.0
H225 H 0.16156 0.34681 0.92206 0.0
H226 H 0.11542 0.29805 0.83788 0.0
O227 O 0.16313 0.37748 0.8311 0.0
H228 H 0.17869 0.29817 0.74194 0.0
H229 H 0.08205 0.28405 0.89384 0.0
Cu230 Cu 0.68547 0.88768 0.83457 0.0
N231 N 0.699 0.86767 0.81147 0.0
N232 N 0.69714 0.82997 0.79034 0.0
C233 C 0.68272 0.84096 0.80476 0.0
C234 C 0.72368 0.85089 0.78753 0.0
C235 C 0.72477 0.87417 0.80068 0.0
O236 O 0.66825 0.86606 0.87856 0.0
C237 C 0.67736 0.90832 0.77101 0.0
O238 O 0.70292 0.91236 0.76831 0.0
H239 H 0.66066 0.82988 0.81085 0.0
H240 H 0.7431 0.89417 0.80283 0.0
N241 N 0.71325 0.92174 0.84954 0.0
N242 N 0.72904 0.96322 0.87195 0.0
C243 C 0.70716 0.94137 0.85752 0.0
C244 C 0.74012 0.93142 0.85915 0.0
C245 C 0.74994 0.95714 0.87315 0.0
C246 C 0.68539 0.8618 0.89748 0.0
O247 O 0.71096 0.87167 0.88565 0.0
H248 H 0.68647 0.93896 0.85433 0.0
H249 H 0.75146 0.92027 0.85743 0.0
O250 O 0.66367 0.8964 0.79927 0.0
H251 H 0.74125 0.84938 0.77776 0.0
H252 H 0.77063 0.97012 0.88375 0.0
Cu253 Cu 0.18044 0.86177 0.87032 0.0
N254 N 0.15821 0.85941 0.83097 0.0
N255 N 0.13538 0.84184 0.78042 0.0
C256 C 0.14891 0.83845 0.80848 0.0
C257 C 0.13605 0.86592 0.78551 0.0
C258 C 0.15004 0.87667 0.81681 0.0
O259 O 0.16085 0.82533 0.89232 0.0
C260 C 0.22825 0.896 0.83566 0.0
O261 O 0.21212 0.90663 0.82817 0.0
H262 H 0.15298 0.8215 0.81207 0.0
H263 H 0.15463 0.89607 0.82765 0.0
N264 N 0.18619 0.88796 0.90404 0.0
N265 N 0.20685 0.91328 0.95148 0.0
C266 C 0.20143 0.89076 0.9334 0.0
C267 C 0.18168 0.90952 0.90341 0.0
C268 C 0.19442 0.92519 0.9327 0.0
C269 C 0.14083 0.82061 0.91304 0.0
O270 O 0.13734 0.8412 0.92206 0.0
H271 H 0.20977 0.87728 0.94017 0.0
H272 H 0.171 0.91426 0.88257 0.0
O273 O 0.218 0.87354 0.85357 0.0
H274 H 0.12726 0.87521 0.76778 0.0
H275 H 0.19501 0.94416 0.9392 0.0
Cu276 Cu 0.37762 0.2277 0.71758 0.0
N277 N 0.39351 0.2608 0.69218 0.0
N278 N 0.3903 0.29428 0.66326 0.0
C279 C 0.37866 0.2737 0.6873 0.0
C280 C 0.41369 0.2946 0.65234 0.0
C281 C 0.41577 0.27386 0.67058 0.0
O282 O 0.36014 0.23426 0.75888 0.0
C283 C 0.37019 0.19944 0.65739 0.0
O284 O 0.39739 0.21496 0.6601 0.0
H285 H 0.35861 0.26693 0.69966 0.0
H286 H 0.43156 0.26795 0.667 0.0
N287 N 0.40275 0.21706 0.73506 0.0
N288 N 0.41515 0.18726 0.75705 0.0
C289 C 0.39518 0.1905 0.74034 0.0
C290 C 0.42866 0.23133 0.7487 0.0
C291 C 0.43632 0.21286 0.76262 0.0
C292 C 0.37716 0.25523 0.77657 0.0
O293 O 0.4033 0.26888 0.76617 0.0
H294 H 0.3747 0.17384 0.73369 0.0
H295 H 0.44069 0.25345 0.7496 0.0
O296 O 0.35491 0.20019 0.68208 0.0
H297 H 0.42781 0.30837 0.63225 0.0
H298 H 0.4556 0.21781 0.77632 0.0
Cu299 Cu 0.84705 0.20294 0.6651 0.0
N300 N 0.87635 0.20685 0.63632 0.0
N301 N 0.91084 0.22986 0.59727 0.0
C302 C 0.89652 0.23161 0.62464 0.0
C303 C 0.89938 0.2028 0.59132 0.0
C304 C 0.87813 0.18862 0.61554 0.0
O305 O 0.85845 0.2417 0.67596 0.0
C306 C 0.80437 0.1524 0.64317 0.0
O307 O 0.82204 0.1461 0.65879 0.0
H308 H 0.89876 0.25079 0.63337 0.0
H309 H 0.86365 0.16684 0.61582 0.0
N310 N 0.84456 0.18559 0.70885 0.0
N311 N 0.82611 0.16718 0.76152 0.0
C312 C 0.82416 0.18022 0.73207 0.0
C313 C 0.86013 0.17559 0.72392 0.0
C314 C 0.84883 0.1643 0.75664 0.0
C315 C 0.87908 0.25274 0.6977 0.0
O316 O 0.88823 0.2371 0.71228 0.0
H317 H 0.80826 0.186 0.72736 0.0
H318 H 0.87823 0.17634 0.71192 0.0
O319 O 0.81094 0.17783 0.64133 0.0
H320 H 0.9048 0.19403 0.56974 0.0
H321 H 0.85641 0.15429 0.77504 0.0
Cu322 Cu 0.87581 0.74047 0.68045 0.0
N323 N 0.87056 0.76335 0.64839 0.0
N324 N 0.85735 0.77415 0.59712 0.0
C325 C 0.85735 0.75405 0.6175 0.0
C326 C 0.87094 0.79712 0.61622 0.0
C327 C 0.87921 0.7904 0.64789 0.0
O328 O 0.83885 0.71433 0.69887 0.0
C329 C 0.91561 0.74141 0.63738 0.0
O330 O 0.92097 0.76697 0.63472 0.0
H331 H 0.84795 0.73277 0.61025 0.0
H332 H 0.89115 0.80438 0.66849 0.0
N333 N 0.90045 0.75823 0.71735 0.0
N334 N 0.92846 0.761 0.76229 0.0
C335 C 0.9123 0.74573 0.73561 0.0
C336 C 0.90959 0.78261 0.73266 0.0
C337 C 0.92698 0.78438 0.7605 0.0
C338 C 0.83065 0.71971 0.72739 0.0
O339 O 0.84833 0.74116 0.74528 0.0
H340 H 0.9088 0.72555 0.72938 0.0
H341 H 0.90339 0.79758 0.72512 0.0
O342 O 0.89448 0.72423 0.65535 0.0
H343 H 0.87517 0.8174 0.60765 0.0
H344 H 0.93686 0.80109 0.77873 0.0
Cu345 Cu 0.82842 0.70549 0.13989 0.0
N346 N 0.83044 0.69283 0.09573 0.0
N347 N 0.85223 0.68842 0.04928 0.0
C348 C 0.85388 0.70429 0.07628 0.0
C349 C 0.8266 0.66607 0.05166 0.0
C350 C 0.81313 0.66887 0.08044 0.0
O351 O 0.86439 0.71492 0.16291 0.0
C352 C 0.81144 0.74173 0.106 0.0
O353 O 0.81992 0.7359 0.07689 0.0
H354 H 0.87261 0.72286 0.08359 0.0
H355 H 0.79299 0.65374 0.09076 0.0
N356 N 0.80137 0.67764 0.16781 0.0
N357 N 0.77971 0.66108 0.21932 0.0
C358 C 0.8044 0.67604 0.20291 0.0
C359 C 0.77377 0.66283 0.1615 0.0
C360 C 0.76029 0.65263 0.19339 0.0
C361 C 0.8692 0.69473 0.16465 0.0
O362 O 0.85017 0.67113 0.15207 0.0
H363 H 0.8238 0.68895 0.2166 0.0
H364 H 0.76396 0.66234 0.13633 0.0
O365 O 0.81601 0.73316 0.13567 0.0
H366 H 0.81865 0.64849 0.03479 0.0
H367 H 0.73794 0.64255 0.1976 0.0
Cu368 Cu 0.37255 0.22221 0.20132 0.0
N369 N 0.38314 0.1987 0.18082 0.0
N370 N 0.37785 0.15867 0.16284 0.0
C371 C 0.36497 0.17232 0.17403 0.0
C372 C 0.40534 0.17746 0.16236 0.0
C373 C 0.40856 0.20212 0.17364 0.0
O374 O 0.35595 0.20418 0.24698 0.0
C375 C 0.36095 0.23719 0.13533 0.0
O376 O 0.38269 0.23434 0.12833 0.0
H377 H 0.3427 0.16329 0.17802 0.0
H378 H 0.42807 0.22083 0.17757 0.0
N379 N 0.40227 0.25655 0.21217 0.0
N380 N 0.41987 0.29896 0.23256 0.0
C381 C 0.39973 0.27253 0.23603 0.0
C382 C 0.42502 0.27336 0.19297 0.0
C383 C 0.43597 0.29961 0.20556 0.0
C384 C 0.37347 0.20188 0.26753 0.0
O385 O 0.39932 0.21214 0.25646 0.0
H386 H 0.38165 0.26542 0.25293 0.0
H387 H 0.43164 0.26754 0.16953 0.0
O388 O 0.35071 0.23095 0.16657 0.0
H389 H 0.42208 0.17346 0.15584 0.0
H390 H 0.45321 0.31799 0.19417 0.0
Cu391 Cu 0.87037 0.25609 0.18709 0.0
N392 N 0.85138 0.25246 0.14472 0.0
N393 N 0.82467 0.23203 0.09793 0.0
C394 C 0.83443 0.22845 0.1294 0.0
C395 C 0.83567 0.25944 0.09359 0.0
C396 C 0.85218 0.272 0.12253 0.0
O397 O 0.84567 0.22775 0.21943 0.0
C398 C 0.91171 0.24939 0.15128 0.0
O399 O 0.89354 0.2395 0.12535 0.0
H400 H 0.82974 0.20878 0.14104 0.0
H401 H 0.86428 0.29381 0.12672 0.0
N402 N 0.8816 0.28967 0.20749 0.0
N403 N 0.89983 0.31909 0.25145 0.0
C404 C 0.88271 0.29288 0.24261 0.0
C405 C 0.89848 0.31478 0.19346 0.0
C406 C 0.9098 0.33305 0.22063 0.0
C407 C 0.82411 0.22879 0.22867 0.0
O408 O 0.8201 0.24859 0.21565 0.0
H409 H 0.8741 0.27583 0.26146 0.0
H410 H 0.90458 0.31897 0.16598 0.0
O411 O 0.90443 0.25488 0.18027 0.0
H412 H 0.83276 0.26976 0.07066 0.0
H413 H 0.92596 0.35432 0.21815 0.0
C414 C 1.01152 0.64414 0.1757 0.0
O415 O 0.98928 0.62875 0.19501 0.0
O416 O 0.97629 0.68055 0.21493 0.0
Zn417 Zn 0.01353 0.6813 0.22667 0.0
O418 O 1.01086 0.6544 0.26645 0.0
C419 C 0.04912 0.74172 0.22466 0.0
O420 O 0.03774 0.74065 0.19354 0.0
O421 O 0.02636 0.66937 0.18323 0.0
C422 C 0.01532 0.66034 0.29903 0.0
O423 O 0.01932 0.6843 0.30899 0.0
C424 C 0.9701 0.699 0.22271 0.0
O425 O 0.98756 0.71965 0.24198 0.0
O426 O 0.04245 0.7195 0.24185 0.0
C427 C 0.42847 0.47409 0.34136 0.0
O428 O 0.42457 0.49067 0.31973 0.0
O429 O 0.36026 0.42476 0.28405 0.0
Zn430 Zn 0.401 0.43485 0.28534 0.0
O431 O 0.42157 0.46436 0.24862 0.0
C432 C 0.40676 0.38517 0.29186 0.0
O433 O 0.40272 0.38585 0.32585 0.0
O434 O 0.41928 0.44927 0.33272 0.0
C435 C 0.41417 0.46039 0.21637 0.0
O436 O 0.39197 0.43732 0.20771 0.0
C437 C 0.34047 0.40603 0.30228 0.0
O438 O 0.34594 0.39128 0.32525 0.0
O439 O 0.40614 0.40311 0.27112 0.0
C440 C 0.68881 0.05776 0.33328 0.0
O441 O 0.68449 0.06402 0.36489 0.0
O442 O 0.66066 0.09887 0.3586 0.0
Zn443 Zn 0.67737 0.10084 0.31131 0.0
O444 O 0.71196 0.13664 0.30298 0.0
C445 C 0.64636 0.11718 0.26454 0.0
O446 O 0.66067 0.14058 0.28068 0.0
O447 O 0.6865 0.07056 0.30639 0.0
C448 C 0.73619 0.13934 0.30631 0.0
O449 O 0.73891 0.11852 0.31824 0.0
C450 C 0.66295 0.11973 0.37401 0.0
O451 O 0.67752 0.14414 0.35902 0.0
O452 O 0.64985 0.09705 0.27363 0.0
C453 C 0.02047 0.42923 0.80656 0.0
O454 O 0.01863 0.40582 0.81694 0.0
O455 O 0.03306 0.43522 0.68999 0.0
Zn456 Zn 0.02125 0.41048 0.73445 0.0
O457 O 0.05162 0.40045 0.74745 0.0
C458 C 0.96216 0.36811 0.70891 0.0
O459 O 0.9621 0.3872 0.688 0.0
O460 O 0.02045 0.43445 0.77361 0.0
C461 C 0.07348 0.41478 0.76594 0.0
O462 O 0.07822 0.4386 0.77743 0.0
C463 C 0.02782 0.42845 0.65777 0.0
O464 O 0.01329 0.40238 0.65002 0.0
O465 O 0.98335 0.37414 0.72888 0.0
C466 C 0.61698 0.65306 0.68064 0.0
O467 O 0.60255 0.65876 0.70289 0.0
O468 O 0.6322 0.64546 0.77506 0.0
Zn469 Zn 0.65949 0.66952 0.73681 0.0
O470 O 0.69553 0.6678 0.73656 0.0
C471 C 0.65499 0.71639 0.75901 0.0
O472 O 0.63065 0.69753 0.77136 0.0
O473 O 0.64093 0.65667 0.68973 0.0
C474 C 0.71528 0.6829 0.7573 0.0
O475 O 0.7109 0.6975 0.78031 0.0
C476 C 0.63666 0.64924 0.80805 0.0
O477 O 0.66081 0.6691 0.8189 0.0
O478 O 0.67019 0.7091 0.74272 0.0
C479 C 0.40795 0.02141 0.7379 0.0
O480 O 0.38623 0.02392 0.72828 0.0
O481 O 0.41136 0.03538 0.85164 0.0
Zn482 Zn 0.39123 0.02852 0.80543 0.0
O483 O 0.3917 0.06358 0.78926 0.0
C484 C 0.34554 0.97322 0.82131 0.0
O485 O 0.36515 0.96899 0.83532 0.0
O486 O 0.41357 0.02144 0.77052 0.0
C487 C 0.39666 0.08283 0.81024 0.0
O488 O 0.39905 0.07918 0.84427 0.0
C489 C 0.43645 0.05493 0.85089 0.0
O490 O 0.44697 0.06792 0.82072 0.0
O491 O 0.35203 0.9967 0.80795 0.0
C492 C 0.65567 0.95852 0.5258 0.0
O493 O 0.62947 0.94688 0.53591 0.0
O494 O 0.62741 0.99497 0.57426 0.0
Zn495 Zn 0.66438 0.99509 0.58646 0.0
O496 O 0.66145 0.96946 0.62932 0.0
C497 C 0.70401 0.05847 0.5869 0.0
O498 O 0.68898 0.06162 0.5618 0.0
O499 O 0.67398 0.97928 0.5427 0.0
C500 C 0.64846 0.96375 0.65881 0.0
O501 O 0.63237 0.97434 0.66527 0.0
C502 C 0.61943 0.01232 0.58082 0.0
O503 O 0.63539 0.03358 0.60016 0.0
O504 O 0.69712 0.03424 0.59846 0.0
C505 C 0.09001 0.77039 0.66172 0.0
O506 O 0.07424 0.74384 0.66715 0.0
O507 O 0.03265 0.75229 0.59074 0.0
Zn508 Zn 0.07192 0.7582 0.58745 0.0
O509 O 0.08978 0.7812 0.54307 0.0
C510 C 0.04998 0.7032 0.56551 0.0
O511 O 0.03282 0.7099 0.54927 0.0
O512 O 0.0929 0.78022 0.63037 0.0
C513 C 0.11321 0.78661 0.52997 0.0
O514 O 0.12783 0.77649 0.54545 0.0
C515 C 0.01351 0.73344 0.60964 0.0
O516 O 0.01898 0.71639 0.62804 0.0
O517 O 0.06972 0.72103 0.5842 0.0
C518 C 0.33413 0.35261 0.61773 0.0
O519 O 0.33302 0.36918 0.64075 0.0
O520 O 0.28738 0.37424 0.6211 0.0
Zn521 Zn 0.31654 0.38372 0.58379 0.0
O522 O 0.35449 0.41599 0.59363 0.0
C523 C 0.30277 0.41383 0.5362 0.0
O524 O 0.31201 0.4297 0.56374 0.0
O525 O 0.32522 0.35258 0.58644 0.0
C526 C 0.37162 0.41446 0.57284 0.0
O527 O 0.36181 0.39638 0.54764 0.0
C528 C 0.28369 0.38973 0.64153 0.0
O529 O 0.30015 0.41642 0.63917 0.0
O530 O 0.30268 0.39104 0.53739 0.0
C531 C 0.65551 0.78991 0.16528 0.0
O532 O 0.63632 0.76404 0.16943 0.0
O533 O 0.67994 0.79861 0.04899 0.0
Zn534 Zn 0.6746 0.77597 0.09554 0.0
O535 O 0.70929 0.77112 0.10569 0.0
C536 C 0.64694 0.72313 0.06604 0.0
O537 O 0.67168 0.73512 0.05108 0.0
O538 O 0.67115 0.79734 0.13788 0.0
C539 C 0.72993 0.77872 0.08477 0.0
O540 O 0.73016 0.79137 0.05491 0.0
C541 C 0.66037 0.79957 0.03136 0.0
O542 O 0.63464 0.78561 0.0432 0.0
O543 O 0.64149 0.73686 0.08786 0.0
C544 C 0.28113 0.95273 0.07139 0.0
O545 O 0.2817 0.93516 0.09467 0.0
O546 O 0.30276 0.97395 0.16266 0.0
Zn547 Zn 0.32428 0.99185 0.11742 0.0
O548 O 0.35773 0.98645 0.11029 0.0
C549 C 0.32718 0.0427 0.13823 0.0
O550 O 0.30283 0.02571 0.15241 0.0
O551 O 0.29775 0.97822 0.07532 0.0
C552 C 0.37514 0.99133 0.13533 0.0
O553 O 0.36944 0.99702 0.16655 0.0
C554 C 0.29918 0.95308 0.18104 0.0
O555 O 0.31096 0.93884 0.17121 0.0
O556 O 0.33997 0.03295 0.12123 0.0
C557 C 0.08799 0.34962 0.04258 0.0
O558 O 0.0927 0.34346 0.07479 0.0
O559 O 0.09 0.38706 0.12036 0.0
Zn560 Zn 0.06173 0.37381 0.08061 0.0
O561 O 0.04925 0.40136 0.06787 0.0
C562 C 0.02546 0.32401 0.12197 0.0
O563 O 0.04629 0.33175 0.14446 0.0
O564 O 0.07619 0.36412 0.03824 0.0
C565 C 0.03948 0.41 0.09151 0.0
O566 O 0.03833 0.40136 0.1244 0.0
C567 C 0.10519 0.41209 0.12836 0.0
O568 O 0.10339 0.43121 0.10951 0.0
O569 O 0.02785 0.33896 0.09496 0.0
C570 C 0.34808 0.29752 0.89888 0.0
O571 O 0.32295 0.28401 0.91267 0.0
O572 O 0.32081 0.33517 0.94793 0.0
Zn573 Zn 0.35726 0.33418 0.95823 0.0
O574 O 0.35266 0.30674 0.99884 0.0
C575 C 0.4008 0.39402 0.95151 0.0
O576 O 0.39162 0.39236 0.91891 0.0
O577 O 0.36627 0.31966 0.91338 0.0
C578 C 0.34217 0.30377 0.02961 0.0
O579 O 0.33162 0.31934 0.03839 0.0
C580 C 0.31766 0.35627 0.9449 0.0
O581 O 0.33899 0.38061 0.95101 0.0
O582 O 0.38975 0.3726 0.97158 0.0
C583 C 0.75955 0.15041 0.99616 0.0
O584 O 0.74569 0.15593 0.97169 0.0
O585 O 0.69896 0.0993 0.95658 0.0
Zn586 Zn 0.73843 0.10528 0.95355 0.0
O587 O 0.76009 0.12632 0.91018 0.0
C588 C 0.72387 0.05577 0.92434 0.0
O589 O 0.70969 0.06508 0.90597 0.0
O590 O 0.75971 0.12781 0.99506 0.0
C591 C 0.751 0.12881 0.88005 0.0
O592 O 0.72401 0.11878 0.8753 0.0
C593 C 0.68145 0.08018 0.97684 0.0
O594 O 0.68888 0.0637 0.99303 0.0
O595 O 0.73803 0.06925 0.95076 0.0
C596 C 0.96018 0.63232 0.94283 0.0
O597 O 0.94765 0.63723 0.9686 0.0
O598 O 0.95099 0.68721 0.96025 0.0
Zn599 Zn 0.97895 0.68927 0.92482 0.0
O600 O 0.01867 0.71689 0.93781 0.0
C601 C 0.98026 0.72695 0.87023 0.0
O602 O 1.00031 0.74522 0.88993 0.0
O603 O 0.97467 0.65146 0.92061 0.0
C604 C 0.03894 0.71791 0.92072 0.0
O605 O 0.0336 0.69954 0.89657 0.0
C606 C 0.94617 0.7068 0.96542 0.0
O607 O 0.96165 0.73063 0.94944 0.0
O608 O 0.96909 0.70165 0.87904 0.0
C609 C 0.33902 0.13006 0.53506 0.0
O610 O 0.31791 0.10488 0.53606 0.0
O611 O 0.36508 0.14006 0.4207 0.0
Zn612 Zn 0.35661 0.11625 0.46634 0.0
O613 O 0.38674 0.10481 0.47618 0.0
C614 C 0.31901 0.06735 0.43276 0.0
O615 O 0.342 0.07581 0.41434 0.0
O616 O 0.35593 0.13795 0.50899 0.0
C617 C 0.40604 0.10852 0.45475 0.0
O618 O 0.40749 0.12061 0.42399 0.0
C619 C 0.34611 0.14169 0.40254 0.0
O620 O 0.32015 0.12818 0.4137 0.0
O621 O 0.31945 0.08159 0.45865 0.0
C622 C 0.946 0.34108 0.3907 0.0
O623 O 0.93114 0.34006 0.41814 0.0
O624 O 0.96837 0.32505 0.47706 0.0
Zn625 Zn 0.98829 0.35745 0.44319 0.0
O626 O 0.02918 0.36879 0.43876 0.0
C627 C 0.97141 0.39602 0.47689 0.0
O628 O 0.95928 0.37872 0.50344 0.0
O629 O 0.97123 0.34682 0.3952 0.0
C630 C 0.03699 0.35407 0.42264 0.0
O631 O 0.01797 0.33036 0.41036 0.0
C632 C 0.97582 0.32489 0.509 0.0
O633 O 0.99688 0.34719 0.52172 0.0
O634 O 0.98398 0.3905 0.45326 0.0
C635 C 0.77682 0.69187 0.36049 0.0
O636 O 0.77554 0.67703 0.38861 0.0
O637 O 0.79255 0.7343 0.44775 0.0
Zn638 Zn 0.76378 0.72325 0.40852 0.0
O639 O 0.75677 0.75452 0.39646 0.0
C640 C 0.72024 0.68196 0.45426 0.0
O641 O 0.73407 0.69835 0.48022 0.0
O642 O 0.77486 0.71337 0.36371 0.0
C643 C 0.73681 0.75722 0.40833 0.0
O644 O 0.71812 0.73794 0.42909 0.0
C645 C 0.79946 0.75606 0.46473 0.0
O646 O 0.78896 0.77183 0.45516 0.0
O647 O 0.72871 0.68913 0.42274 0.0
C648 C 0.017 0.45403 0.03816 0.0
C649 C 0.01753 0.47199 0.06378 0.0
H650 H 0.024 0.42065 0.02677 0.0
C651 C 0.02357 0.46824 0.09904 0.0
H652 H 1.01265 0.4565 1.01069 0.0
C653 C 0.02976 0.44745 0.10829 0.0
C654 C 0.03063 0.43042 0.08233 0.0
H655 H 0.02418 0.48179 0.11932 0.0
H656 H 0.03491 0.4454 0.13555 0.0
C657 C 0.02376 0.43364 0.04728 0.0
C658 C 0.57946 0.65481 0.05391 0.0
C659 C 0.58963 0.63895 0.03809 0.0
H660 H 0.58949 0.69374 0.07585 0.0
C661 C 0.61852 0.65096 0.03239 0.0
H662 H 0.55732 0.64616 0.05881 0.0
C663 C 0.63672 0.67806 0.04171 0.0
C664 C 0.62676 0.69403 0.05753 0.0
H665 H 0.62719 0.63952 0.02024 0.0
H666 H 0.6588 0.68648 0.03652 0.0
C667 C 0.59788 0.68202 0.06383 0.0
C668 C 0.45106 0.01086 0.14838 0.0
C669 C 0.46041 0.01395 0.1133 0.0
H670 H 0.41677 1.00107 0.18287 0.0
C671 C 0.44054 1.00559 0.08583 0.0
H672 H 0.4657 0.01689 0.17023 0.0
C673 C 0.41237 0.99644 0.09313 0.0
C674 C 0.40347 0.99554 0.12803 0.0
H675 H 0.44694 1.00755 0.0585 0.0
H676 H 0.3979 0.99157 0.07121 0.0
C677 C 0.42294 1.00182 0.15564 0.0
C678 C 0.468 0.09597 0.44862 0.0
C679 C 0.46688 0.08249 0.481 0.0
H680 H 0.45 0.1146 0.41507 0.0
C681 C 0.44532 0.07746 0.5048 0.0
H682 H 0.48422 0.10025 0.42958 0.0
C683 C 0.42555 0.08581 0.49644 0.0
C684 C 0.4268 0.09938 0.46405 0.0
H685 H 0.44377 0.06717 0.53001 0.0
H686 H 0.40932 0.08166 0.51542 0.0
C687 C 0.44828 0.10425 0.44028 0.0
C688 C 0.97574 0.46036 0.43599 0.0
C689 C 0.97313 0.47362 0.4655 0.0
H690 H 0.9776 0.42585 0.41663 0.0
C691 C 0.96686 0.45965 0.49853 0.0
H692 H 0.98035 0.47026 0.41007 0.0
C693 C 0.96515 0.43385 0.50226 0.0
C694 C 0.96998 0.42173 0.47312 0.0
H695 H 0.96455 0.46917 0.5218 0.0
H696 H 0.96138 0.42404 0.5282 0.0
C697 C 0.97443 0.43491 0.43981 0.0
C698 C 0.65544 0.62589 0.4987 0.0
C699 C 0.64509 0.60553 0.473 0.0
H700 H 0.68751 0.66592 0.51314 0.0
C701 C 0.6603 0.60991 0.44184 0.0
H702 H 0.64414 0.62284 0.52307 0.0
C703 C 0.68489 0.63473 0.43587 0.0
C704 C 0.69492 0.65536 0.46128 0.0
H705 H 0.65262 0.59456 0.42162 0.0
H706 H 0.69594 0.63784 0.41123 0.0
C707 C 0.68025 0.65048 0.49305 0.0
C708 C 0.97434 0.57612 0.91448 0.0
C709 C 0.96766 0.5596 0.94542 0.0
H710 H 0.97747 0.6123 0.88951 0.0
C711 C 0.95491 0.56514 0.97351 0.0
H712 H 0.98412 0.57242 0.89226 0.0
C713 C 0.95098 0.58797 0.97181 0.0
C714 C 0.95999 0.60585 0.94213 0.0
H715 H 0.94941 0.55276 0.99765 0.0
H716 H 0.94234 0.59241 0.9946 0.0
C717 C 0.97074 0.59914 0.91296 0.0
C718 C 0.45082 0.47094 0.95878 0.0
C719 C 0.4658 0.47238 0.98988 0.0
H720 H 0.41904 0.44532 0.92216 0.0
C721 C 0.45911 0.44772 1.00836 0.0
H722 H 0.45538 0.48944 0.94381 0.0
C723 C 0.43793 0.42237 0.99621 0.0
C724 C 0.42318 0.42091 0.96488 0.0
H725 H 0.47007 0.448 0.03251 0.0
H726 H 0.4333 0.40387 1.01122 0.0
C727 C 0.43 0.44556 0.9463 0.0
C728 C 0.62526 0.09996 0.98666 0.0
C729 C 0.60605 0.07893 1.00923 0.0
H730 H 0.66377 0.11666 0.95831 0.0
C731 C 0.61065 0.05704 0.01864 0.0
H732 H 0.62221 0.11702 0.9786 0.0
C733 C 0.63471 0.05693 1.0071 0.0
C734 C 0.65446 0.07857 0.98563 0.0
H735 H 0.59623 0.04054 0.03595 0.0
H736 H 0.63816 0.04024 0.01575 0.0
C737 C 0.64908 0.09972 0.97486 0.0
C738 C 0.55234 0.98463 0.52692 0.0
C739 C 0.54367 1.00423 0.53175 0.0
H740 H 0.58234 0.97162 0.53833 0.0
C741 C 0.56007 0.02635 0.55367 0.0
H742 H 0.54048 0.96714 0.51033 0.0
C743 C 0.58445 0.02895 0.56997 0.0
C744 C 0.59305 1.00935 0.56481 0.0
H745 H 0.55422 0.04168 0.55821 0.0
H746 H 0.59665 0.04644 0.58644 0.0
C747 C 0.57652 0.98713 0.54311 0.0
C748 C 0.06619 0.64495 0.56132 0.0
C749 C 0.04192 0.62441 0.54518 0.0
H750 H 0.08772 0.68587 0.5808 0.0
C751 C 0.01952 0.62925 0.53843 0.0
H752 H 0.08379 0.64178 0.56696 0.0
C753 C 0.02195 0.65466 0.54592 0.0
C754 C 0.04667 0.6756 0.56073 0.0
H755 H 1.00061 0.61391 0.52587 0.0
H756 H 1.00464 0.65808 0.53935 0.0
C757 C 0.06848 0.67022 0.56926 0.0
C758 C 0.44806 0.43662 0.56643 0.0
C759 C 0.46051 0.46338 0.57901 0.0
H760 H 0.41001 0.40032 0.55438 0.0
C761 C 0.44352 0.47296 0.59337 0.0
H762 H 0.46061 0.42884 0.5549 0.0
C763 C 0.41442 0.45661 0.5931 0.0
C764 C 0.40203 0.43071 0.57786 0.0
H765 H 0.45277 0.49357 0.60326 0.0
H766 H 0.40168 0.46478 0.603 0.0
C767 C 0.41908 0.42051 0.56564 0.0
C768 C 0.71211 0.80953 0.40304 0.0
C769 C 0.73456 0.83178 0.38562 0.0
H770 H 0.69518 0.76854 0.42399 0.0
C771 C 0.75777 0.82935 0.37595 0.0
H772 H 0.69407 0.81094 0.41115 0.0
C773 C 0.75837 0.80505 0.38313 0.0
C774 C 0.73585 0.78274 0.4004 0.0
H775 H 0.77522 0.84601 0.36216 0.0
H776 H 0.77654 0.80381 0.37514 0.0
C777 C 0.71278 0.78529 0.41049 0.0
C778 C 0.24343 1.00965 0.42914 0.0
C779 C 0.24468 0.99331 0.40241 0.0
H780 H 0.26595 0.04574 0.4601 0.0
C781 C 0.27045 1.00169 0.3859 0.0
H782 H 0.22395 1.00366 0.44254 0.0
C783 C 0.29437 0.02564 0.39588 0.0
C784 C 0.29328 0.04189 0.42278 0.0
H785 H 0.27211 0.9899 0.36484 0.0
H786 H 0.31378 0.03138 0.3824 0.0
C787 C 0.26753 0.03365 0.43934 0.0
C788 C 0.11478 0.40264 0.41467 0.0
C789 C 0.12332 0.38818 0.39292 0.0
H790 H 0.08111 0.40321 0.44135 0.0
C791 C 0.10364 0.36138 0.38336 0.0
H792 H 0.12945 0.42324 0.42281 0.0
C793 C 0.07571 0.34985 0.39401 0.0
C794 C 0.06698 0.36486 0.41452 0.0
H795 H 0.10957 0.34971 0.36665 0.0
H796 H 0.06082 0.32949 0.3853 0.0
C797 C 0.087 0.39113 0.42538 0.0
C798 C 0.10622 0.36894 0.77074 0.0
C799 C 0.12732 0.38151 0.79647 0.0
H800 H 0.07299 0.36935 0.74114 0.0
C801 C 0.13147 0.40604 0.81106 0.0
H802 H 0.10238 0.3501 0.75864 0.0
C803 C 0.11439 0.41725 0.8007 0.0
C804 C 0.09278 0.40408 0.77568 0.0
H805 H 0.14744 0.41623 0.83094 0.0
H806 H 0.11776 0.43592 0.81286 0.0
C807 C 0.0892 0.37997 0.76061 0.0
C808 C 0.66151 0.78092 0.79726 0.0
C809 C 0.68644 0.80154 0.78181 0.0
H810 H 0.63201 0.73813 0.802 0.0
C811 C 0.70068 0.79381 0.75817 0.0
H812 H 0.65015 0.78581 0.81611 0.0
C813 C 0.69034 0.76619 0.75042 0.0
C814 C 0.66545 0.7457 0.76598 0.0
H815 H 0.71972 0.80906 0.74547 0.0
H816 H 0.70189 0.76091 0.73226 0.0
C817 C 0.65109 0.75341 0.7893 0.0
C818 C 0.27839 0.90828 0.84637 0.0
C819 C 0.25847 0.91273 0.82811 0.0
H820 H 0.32184 0.92409 0.85864 0.0
C821 C 0.26769 0.93576 0.80529 0.0
H822 H 0.2719 0.89076 0.86424 0.0
C823 C 0.296 0.95484 0.80238 0.0
C824 C 0.3159 0.95133 0.82207 0.0
H825 H 0.25291 0.93967 0.79054 0.0
H826 H 0.30219 0.97274 0.78531 0.0
C827 C 0.30694 0.92744 0.84331 0.0
C828 C 0.69729 0.99581 0.35237 0.0
C829 C 0.70781 0.99291 0.32015 0.0
H830 H 0.68329 0.01872 0.38187 0.0
C831 C 0.71319 0.01213 0.29264 0.0
H832 H 0.69336 0.9814 0.37414 0.0
C833 C 0.70712 0.03337 0.29688 0.0
C834 C 0.69607 0.03594 0.32895 0.0
H835 H 0.72124 1.01017 0.26761 0.0
H836 H 0.71096 0.04769 0.27503 0.0
C837 C 0.69166 0.01721 0.35683 0.0
C838 C 0.097 0.79467 0.29018 0.0
C839 C 0.10157 0.8194 0.27386 0.0
H840 H 0.07705 0.75095 0.28759 0.0
C841 C 0.08899 0.81839 0.24087 0.0
H842 H 0.10604 0.79463 0.31577 0.0
C843 C 0.07233 0.79324 0.22459 0.0
C844 C 0.06771 0.76852 0.24104 0.0
H845 H 0.09231 0.83705 0.2274 0.0
H846 H 0.06291 0.79319 0.19922 0.0
C847 C 0.08026 0.76957 0.27404 0.0
C848 C 0.28005 0.41514 0.27001 0.0
C849 C 0.25998 0.40133 0.29653 0.0
H850 H 0.32101 0.42743 0.25102 0.0
C851 C 0.26535 0.38636 0.32297 0.0
H852 H 0.27651 0.42675 0.24915 0.0
C853 C 0.2911 0.38681 0.3241 0.0
C854 C 0.31189 0.4023 0.29889 0.0
H855 H 0.25041 0.37569 0.34395 0.0
H856 H 0.29518 0.37613 0.34566 0.0
C857 C 0.30568 0.41568 0.2712 0.0
C858 C 0.24311 0.32491 0.911 0.0
C859 C 0.2407 0.34812 0.90118 0.0
H860 H 0.26882 0.30919 0.93239 0.0
C861 C 0.26342 0.37424 0.90779 0.0
H862 H 0.22606 0.30439 0.9066 0.0
C863 C 0.28819 0.37696 0.9229 0.0
C864 C 0.29077 0.35363 0.93164 0.0
H865 H 0.26231 0.39253 0.9006 0.0
H866 H 0.30554 0.39737 0.92695 0.0
C867 C 0.26773 0.32761 0.92591 0.0
C868 C 0.74501 1.00114 0.9142 0.0
C869 C 0.72873 0.98698 0.88493 0.0
H870 H 0.75595 0.03386 0.95023 0.0
C871 C 0.71092 0.99555 0.86923 0.0
H872 H 0.75872 0.9948 0.92703 0.0
C873 C 0.70911 0.01752 0.88257 0.0
C874 C 0.72515 0.03162 0.91196 0.0
H875 H 0.69842 0.98533 0.84635 0.0
H876 H 0.69519 0.02353 0.86957 0.0
C877 C 0.74318 0.02325 0.92769 0.0
C878 C 0.0974 0.7879 0.94537 0.0
C879 C 0.11797 0.79234 0.92041 0.0
H880 H 0.05644 0.76086 0.96534 0.0
C881 C 0.11395 0.77055 0.89909 0.0
H882 H 0.09998 0.80421 0.96242 0.0
C883 C 0.08882 0.7456 0.9007 0.0
C884 C 0.06732 0.742 0.92369 0.0
H885 H 0.12937 0.77332 0.87955 0.0
H886 H 0.0857 0.72972 0.88255 0.0
C887 C 0.07238 0.76302 0.94702 0.0
C888 C 0.3981 0.13807 0.74893 0.0
C889 C 0.41233 0.16155 0.76952 0.0
H890 H 0.38212 0.09477 0.74554 0.0
C891 C 0.42177 0.15907 0.80335 0.0
H892 H 0.39072 0.13955 0.7227 0.0
C893 C 0.41638 0.1334 0.81672 0.0
C894 C 0.40191 0.10985 0.79624 0.0
H895 H 0.4325 0.17682 0.81983 0.0
H896 H 0.42366 0.13204 0.84307 0.0
C897 C 0.39316 0.11251 0.76201 0.0
C898 C 0.89767 0.30255 0.67777 0.0
C899 C 0.89654 0.28298 0.70278 0.0
H900 H 0.91924 0.3448 0.65998 0.0
C901 C 0.91571 0.29224 0.73116 0.0
H902 H 0.88353 0.29619 0.65539 0.0
C903 C 0.93633 0.3198 0.73353 0.0
C904 C 0.93843 0.33924 0.70778 0.0
H905 H 0.9155 0.27789 0.75112 0.0
H906 H 0.95108 0.32573 0.75526 0.0
C907 C 0.91835 0.3304 0.68032 0.0
C908 C 0.7797 0.68853 0.71376 0.0
C909 C 0.80074 0.70545 0.73748 0.0
H910 H 0.7359 0.66783 0.7015 0.0
C911 C 0.79287 0.71152 0.76973 0.0
H912 H 0.78506 0.68344 0.68872 0.0
C913 C 0.76488 0.70274 0.77695 0.0
C914 C 0.74398 0.68756 0.75219 0.0
H915 H 0.80848 0.72422 0.78883 0.0
H916 H 0.75977 0.7089 0.80137 0.0
C917 C 0.75154 0.67962 0.72108 0.0
C918 C 0.77377 0.75049 0.12991 0.0
C919 C 0.793 0.75435 0.10317 0.0
H920 H 0.73861 0.75482 0.14515 0.0
C921 C 0.79233 0.76785 0.07157 0.0
H922 H 0.77348 0.73995 0.15446 0.0
C923 C 0.77251 0.77645 0.06629 0.0
C924 C 0.75244 0.77156 0.09228 0.0
H925 H 0.80677 0.77121 0.05037 0.0
H926 H 0.77245 0.78624 0.04123 0.0
C927 C 0.75363 0.75886 0.12445 0.0
C928 C 0.33883 0.11104 0.17048 0.0
C929 C 0.36499 0.12968 0.15582 0.0
H930 H 0.3065 0.0693 0.17641 0.0
C931 C 0.37843 0.1194 0.13467 0.0
H932 H 0.32797 0.11794 0.1874 0.0
C933 C 0.3661 0.09123 0.12858 0.0
C934 C 0.34002 0.07268 0.14347 0.0
H935 H 0.39842 0.13311 0.12265 0.0
H936 H 0.37708 0.084 0.11231 0.0
C937 C 0.32652 0.08297 0.16434 0.0
C938 C 0.9513 0.26829 0.1088 0.0
C939 C 0.94185 0.26198 0.14385 0.0
H940 H 0.98551 0.29323 0.07445 0.0
C941 C 0.96141 0.27252 0.17158 0.0
H942 H 0.93682 0.2604 0.08683 0.0
C943 C 0.98943 0.29121 0.16442 0.0
C944 C 0.9981 0.29984 0.12949 0.0
H945 H 0.95474 0.2678 0.19889 0.0
H946 H 1.00371 0.30045 0.1863 0.0
C947 C 0.97915 0.28726 0.10169 0.0
C948 C 0.37624 0.31561 0.61485 0.0
C949 C 0.37805 0.31046 0.65107 0.0
H950 H 0.36001 0.33254 0.57544 0.0
C951 C 0.3651 0.31883 0.67559 0.0
H952 H 0.3858 0.30895 0.59551 0.0
C953 C 0.35039 0.33192 0.66435 0.0
C954 C 0.34806 0.33679 0.62822 0.0
H955 H 0.36625 0.31503 0.70362 0.0
H956 H 0.34072 0.33817 0.68411 0.0
C957 C 0.36112 0.32858 0.60342 0.0
C958 C 0.76018 0.13301 0.6049 0.0
C959 C 0.77765 0.12925 0.6293 0.0
H960 H 0.72342 0.11375 0.57208 0.0
C961 C 0.77008 0.10214 0.64004 0.0
H962 H 0.76528 0.15347 0.59594 0.0
C963 C 0.74628 0.07953 0.62661 0.0
C964 C 0.72906 0.08304 0.60168 0.0
H965 H 0.78273 0.09818 0.65898 0.0
H966 H 0.74157 0.05918 0.63561 0.0
C967 C 0.73623 0.11015 0.59114 0.0
C968 C 0.94134 0.71486 0.64273 0.0
C969 C 0.93714 0.73503 0.62536 0.0
H970 H 0.96906 0.69858 0.65151 0.0
C971 C 0.95659 0.75236 0.59989 0.0
H972 H 0.92678 0.70136 0.66267 0.0
C973 C 0.98073 0.7509 0.59362 0.0
C974 C 0.98607 0.73214 0.6128 0.0
H975 H 0.95379 0.76799 0.5859 0.0
H976 H 0.99577 0.76532 0.57478 0.0
C977 C 0.96568 0.71346 0.63654 0.0
C978 C 0.91508 0.71965 0.19818 0.0
C979 C 0.89532 0.69664 0.17981 0.0
H980 H 0.95404 0.73838 0.22648 0.0
C981 C 0.90036 0.67446 0.17607 0.0
H982 H 0.91188 0.73704 0.20163 0.0
C983 C 0.92439 0.6752 0.19011 0.0
C984 C 0.94416 0.69808 0.20859 0.0
H985 H 0.88572 0.65635 0.16202 0.0
H986 H 0.92745 0.65775 0.18642 0.0
C987 C 0.93918 0.72031 0.21253 0.0
C988 C 0.41003 0.31945 0.28351 0.0
C989 C 0.41948 0.3218 0.24862 0.0
H990 H 0.39882 0.33769 0.32472 0.0
C991 C 0.42595 0.3457 0.22867 0.0
H992 H 0.40497 0.30125 0.29945 0.0
C993 C 0.42207 0.36637 0.24287 0.0
C994 C 0.41198 0.36375 0.27751 0.0
H995 H 0.4329 0.34794 0.20157 0.0
H996 H 0.42667 0.38427 0.22651 0.0
C997 C 0.40652 0.3403 0.29792 0.0
C998 C 0.80678 0.18576 0.26556 0.0
C999 C 0.80309 0.2074 0.25211 0.0
H1000 H 0.78854 0.14728 0.29387 0.0
C1001 C 0.77845 0.20785 0.25999 0.0
H1002 H 0.82569 0.18501 0.26019 0.0
C1003 C 0.75724 0.18632 0.27926 0.0
C1004 C 0.76029 0.16395 0.29112 0.0
H1005 H 0.7751 0.2244 0.25033 0.0
H1006 H 0.73808 0.18679 0.28381 0.0
C1007 C 0.78557 0.16423 0.285 0.0
C1008 C 0.02812 0.46398 0.89411 0.0
C1009 C 0.03612 0.49108 0.88327 0.0
H1010 H 0.01694 0.42334 0.87864 0.0
C1011 C 0.03863 0.4976 0.84688 0.0
H1012 H 0.02621 0.45832 0.92193 0.0
C1013 C 0.03306 0.47745 0.82197 0.0
C1014 C 0.02514 0.45036 0.83286 0.0
H1015 H 0.0444 0.51816 0.83761 0.0
H1016 H 0.0352 0.4832 0.79416 0.0
C1017 C 0.02283 0.44392 0.86926 0.0
C1018 C 0.56497 0.60142 0.84666 0.0
C1019 C 0.57024 0.60477 0.88316 0.0
H1020 H 0.58178 0.61248 0.79432 0.0
C1021 C 0.59775 0.62208 0.8947 0.0
H1022 H 0.54408 0.58801 0.83695 0.0
C1023 C 0.61936 0.63611 0.87033 0.0
C1024 C 0.61403 0.63305 0.83382 0.0
H1025 H 0.60251 0.62538 0.92258 0.0
H1026 H 0.6402 0.64964 0.88016 0.0
C1027 C 0.58663 0.61531 0.82226 0.0
C1028 C 0.49391 0.0981 0.91501 0.0
C1029 C 0.48474 0.08197 0.9461 0.0
H1030 H 0.48597 0.10197 0.86025 0.0
C1031 C 0.45926 0.05722 0.94592 0.0
H1032 H 0.5136 0.11712 0.91444 0.0
C1033 C 0.44343 0.0485 0.91504 0.0
C1034 C 0.45294 0.06427 0.88368 0.0
H1035 H 0.45162 0.04457 0.9697 0.0
H1036 H 0.42394 0.02925 0.91566 0.0
C1037 C 0.47822 0.08926 0.88399 0.0
C1038 C 0.44327 0.02943 0.65024 0.0
C1039 C 0.46889 0.03152 0.66083 0.0
H1040 H 0.40387 0.02437 0.66622 0.0
C1041 C 0.47327 0.02795 0.69678 0.0
H1042 H 0.43926 0.03238 0.62286 0.0
C1043 C 0.45293 0.02345 0.72175 0.0
C1044 C 0.42783 0.02254 0.71125 0.0
H1045 H 0.4926 0.02905 0.70566 0.0
H1046 H 0.45726 0.02153 0.74939 0.0
C1047 C 0.42297 0.02497 0.67518 0.0
C1048 C 0.06515 0.49753 0.60904 0.0
C1049 C 0.04977 0.49193 0.57746 0.0
H1050 H 0.06996 0.48191 0.65956 0.0
C1051 C 0.02825 0.46503 0.57165 0.0
H1052 H 0.08167 0.51815 0.61421 0.0
C1053 C 0.02182 0.4442 0.59717 0.0
C1054 C 0.03636 0.44999 0.62948 0.0
H1055 H 0.01621 0.46024 0.54741 0.0
H1056 H 1.00481 0.4238 0.59205 0.0
C1057 C 0.05829 0.47683 0.63501 0.0
C1058 C 0.60742 0.61494 0.59673 0.0
C1059 C 0.57871 0.6037 0.59034 0.0
H1060 H 0.64211 0.63982 0.62959 0.0
C1061 C 0.56314 0.61185 0.61083 0.0
H1062 H 0.61986 0.60898 0.58116 0.0
C1063 C 0.57587 0.62934 0.63932 0.0
C1064 C 0.60429 0.63894 0.64728 0.0
H1065 H 0.54089 0.60322 0.60645 0.0
H1066 H 0.56315 0.6341 0.65616 0.0
C1067 C 0.62013 0.63251 0.62465 0.0
C1068 C 1.00874 0.59105 0.11314 0.0
C1069 C 0.03318 0.60594 0.09297 0.0
H1070 H 0.98287 0.59126 0.15446 0.0
C1071 C 0.05065 0.63392 0.10016 0.0
H1072 H 0.99497 0.56943 0.109 0.0
C1073 C 0.04369 0.64661 0.12671 0.0
C1074 C 0.01917 0.63155 0.14676 0.0
H1075 H 0.06953 0.64611 0.08504 0.0
H1076 H 0.05755 0.66814 0.1316 0.0
C1077 C 1.00185 0.60363 0.13953 0.0
C1078 C 0.44427 0.49186 0.12657 0.0
C1079 C 0.47003 0.51433 0.13602 0.0
H1080 H 0.4063 0.45709 0.14461 0.0
C1081 C 0.47608 0.52024 0.17196 0.0
H1082 H 0.43913 0.48673 0.09909 0.0
C1083 C 0.45739 0.50335 0.198 0.0
C1084 C 0.43223 0.48006 0.18868 0.0
H1085 H 0.49556 0.5377 0.17999 0.0
H1086 H 0.46309 0.50812 0.22547 0.0
C1087 C 0.42556 0.47483 0.15267 0.0
C1088 C 0.60595 0.13419 0.19581 0.0
C1089 C 0.59206 0.10954 0.17742 0.0
H1090 H 0.63415 0.15603 0.23777 0.0
C1091 C 0.5956 0.0873 0.18856 0.0
H1092 H 0.60373 0.15171 0.1877 0.0
C1093 C 0.61296 0.08973 0.21708 0.0
C1094 C 0.62723 0.11449 0.23515 0.0
H1095 H 0.58475 0.06785 0.17545 0.0
H1096 H 0.61528 0.07219 0.2248 0.0
C1097 C 0.62344 0.13667 0.22437 0.0
C1098 C 0.61484 0.08539 0.45158 0.0
C1099 C 0.61147 0.10687 0.46443 0.0
H1100 H 0.63391 0.07267 0.41324 0.0
C1101 C 0.62721 0.1333 0.44934 0.0
H1102 H 0.60348 0.06495 0.46322 0.0
C1103 C 0.64486 0.13782 0.4207 0.0
C1104 C 0.64704 0.11597 0.40672 0.0
H1105 H 0.62497 0.15022 0.45862 0.0
H1106 H 0.65596 0.15819 0.40876 0.0
C1107 C 0.63239 0.08987 0.42304 0.0
C1108 C 0.0286 0.60428 0.33792 0.0
C1109 C 0.0294 0.60875 0.37443 0.0
H1110 H 0.02295 0.61655 0.2856 0.0
C1111 C 0.02445 0.62965 0.3859 0.0
H1112 H 0.03199 0.58816 0.32823 0.0
C1113 C 0.01944 0.64605 0.36149 0.0
C1114 C 0.0188 0.64172 0.32497 0.0
H1115 H 0.02509 0.63376 0.41377 0.0
H1116 H 0.01625 0.66229 0.37129 0.0
C1117 C 0.02315 0.62041 0.31352 0.0
C1118 C 0.47588 0.52296 0.41156 0.0
C1119 C 0.48302 0.50581 0.43161 0.0
H1120 H 0.45297 0.5264 0.36711 0.0
C1121 C 0.47052 0.47791 0.42318 0.0
H1122 H 0.48511 0.54451 0.41746 0.0
C1123 C 0.45213 0.46754 0.39471 0.0
C1124 C 0.4458 0.48479 0.37366 0.0
H1125 H 0.47524 0.46399 0.43832 0.0
H1126 H 0.44343 0.44606 0.3887 0.0
C1127 C 0.4575 0.51255 0.38273 0.0
C1128 C 0.68914 0.85543 0.21828 0.0
C1129 C 0.67342 0.84763 0.24975 0.0
H1130 H 0.69587 0.84392 0.16745 0.0
C1131 C 0.6503 0.82101 0.25228 0.0
H1132 H 0.70701 0.87579 0.21512 0.0
C1133 C 0.64397 0.8024 0.2246 0.0
C1134 C 0.66045 0.81005 0.19365 0.0
H1135 H 0.63784 0.8142 0.27613 0.0
H1136 H 0.62654 0.7818 0.22785 0.0
C1137 C 0.68274 0.83706 0.19073 0.0
C1138 C 0.25547 0.91223 0.261 0.0
C1139 C 0.2426 0.92764 0.26964 0.0
H1140 H 0.28348 0.90803 0.22592 0.0
C1141 C 0.24974 0.95196 0.25023 0.0
H1142 H 0.25038 0.89339 0.27546 0.0
C1143 C 0.26849 0.9603 0.22221 0.0
C1144 C 0.2807 0.94455 0.21254 0.0
H1145 H 0.24051 0.96456 0.25634 0.0
H1146 H 0.27301 0.97899 0.20773 0.0
C1147 C 0.27433 0.92059 0.23258 0.0
C1148 C 0.15374 0.4525 0.20306 0.0
C1149 C 0.15771 0.43231 0.22094 0.0
H1150 H 0.13411 0.46203 0.15979 0.0
C1151 C 0.14492 0.40572 0.20726 0.0
H1152 H 0.16307 0.47312 0.2129 0.0
C1153 C 0.12814 0.39931 0.17711 0.0
C1154 C 0.12387 0.41937 0.15956 0.0
H1155 H 0.14793 0.38973 0.21965 0.0
H1156 H 0.1185 0.37856 0.16757 0.0
C1157 C 0.13705 0.44612 0.17266 0.0
C1158 C 0.12351 0.32217 0.98442 0.0
C1159 C 0.10909 0.31879 0.95239 0.0
H1160 H 0.12787 0.3343 0.0384 0.0
C1161 C 0.08706 0.32467 0.9505 0.0
H1162 H 0.14079 0.31805 0.98614 0.0
C1163 C 0.08024 0.33475 0.97986 0.0
C1164 C 0.09497 0.33858 1.01179 0.0
H1165 H 0.07607 0.32272 0.92583 0.0
H1166 H 0.06355 0.33971 0.9775 0.0
C1167 C 0.11624 0.3316 0.01407 0.0
C1168 C 0.65077 0.83241 0.94567 0.0
C1169 C 0.67808 0.84622 0.93208 0.0
H1170 H 0.62367 0.80684 0.98751 0.0
C1171 C 0.69934 0.84479 0.95186 0.0
H1172 H 0.63387 0.83299 0.93128 0.0
C1173 C 0.69361 0.82994 0.98389 0.0
C1174 C 0.66636 0.81588 0.99743 0.0
H1175 H 0.72073 0.85514 0.94256 0.0
H1176 H 0.71064 0.82937 0.99795 0.0
C1177 C 0.64497 0.81739 0.97793 0.0
C1178 C 0.24047 0.95164 0.98843 0.0
C1179 C 0.22445 0.92335 0.98241 0.0
H1180 H 0.27114 0.98319 0.02094 0.0
C1181 C 0.22679 0.90494 1.00638 0.0
H1182 H 0.23938 0.96638 0.97031 0.0
C1183 C 0.24495 0.91452 0.03531 0.0
C1184 C 0.26142 0.9428 0.04098 0.0
H1185 H 0.21451 0.88303 1.00279 0.0
H1186 H 0.24624 0.89967 0.05306 0.0
C1187 C 0.25884 0.96127 0.01731 0.0
C1188 C 0.65051 0.91404 0.44745 0.0
C1189 C 0.67869 0.92468 0.43817 0.0
H1190 H 0.62113 0.91624 0.48217 0.0
C1191 C 0.69907 0.94658 0.45804 0.0
H1192 H 0.63423 0.89735 0.4328 0.0
C1193 C 0.69165 0.95755 0.48607 0.0
C1194 C 0.66356 0.94699 0.49548 0.0
H1195 H 0.72105 0.95557 0.45185 0.0
H1196 H 0.70806 0.97435 0.50045 0.0
C1197 C 0.64306 0.92499 0.47578 0.0
C1198 C 0.11876 0.83394 0.4533 0.0
C1199 C 0.14483 0.84101 0.43846 0.0
H1200 H 0.08846 0.81143 0.49323 0.0
C1201 C 0.16037 0.82952 0.45356 0.0
H1202 H 0.10607 0.84224 0.44237 0.0
C1203 C 0.15012 0.81163 0.48316 0.0
C1204 C 0.12411 0.80488 0.4981 0.0
H1205 H 0.1805 0.83451 0.44276 0.0
H1206 H 0.16264 0.80327 0.49443 0.0
C1207 C 0.10856 0.81616 0.4826 0.0
C1208 C 0.27242 0.41415 0.44582 0.0
C1209 C 0.26674 0.436 0.44825 0.0
H1210 H 0.2881 0.38992 0.47162 0.0
C1211 C 0.27454 0.45139 0.47914 0.0
H1212 H 0.2674 0.40225 0.42212 0.0
C1213 C 0.28681 0.44451 0.50736 0.0
C1214 C 0.29142 0.422 0.50539 0.0
H1215 H 0.27037 0.4682 0.48205 0.0
H1216 H 0.292 0.45645 0.53109 0.0
C1217 C 0.28446 0.40713 0.47414 0.0
C1218 C 0.22871 0.33695 0.70306 0.0
C1219 C 0.2219 0.35329 0.72366 0.0
H1220 H 0.2535 0.33562 0.66107 0.0
C1221 C 0.23477 0.38166 0.71586 0.0
H1222 H 0.21944 0.31514 0.7084 0.0
C1223 C 0.25464 0.39352 0.68901 0.0
C1224 C 0.26185 0.37724 0.66902 0.0
H1225 H 0.22962 0.39487 0.73052 0.0
H1226 H 0.26439 0.41544 0.68402 0.0
C1227 C 0.24839 0.34878 0.676 0.0
C1228 C 0.64613 0.92686 0.74698 0.0
C1229 C 0.66663 0.91923 0.74174 0.0
H1230 H 0.62438 0.94703 0.72516 0.0
C1231 C 0.67945 0.92468 0.70828 0.0
H1232 H 0.63597 0.92319 0.7724 0.0
C1233 C 0.67286 0.9382 0.6813 0.0
C1234 C 0.65332 0.947 0.68681 0.0
H1235 H 0.69523 0.91901 0.70305 0.0
H1236 H 0.68376 0.94243 0.65634 0.0
C1237 C 0.63964 0.9407 0.71988 0.0
C1238 C 0.12397 0.83474 0.71662 0.0
C1239 C 0.12401 0.824 0.75062 0.0
H1240 H 0.11374 0.8264 0.66184 0.0
C1241 C 0.11325 0.79554 0.75499 0.0
H1242 H 0.1324 0.85658 0.71231 0.0
C1243 C 0.10246 0.7782 0.72613 0.0
C1244 C 0.10248 0.78892 0.69208 0.0
H1245 H 0.11277 0.78661 0.78088 0.0
H1246 H 0.09405 0.75635 0.73055 0.0
C1247 C 0.11351 0.81743 0.68765 0.0
C1248 C 0.3345 0.15703 0.6253 0.0
C1249 C 0.35916 0.18255 0.62529 0.0
H1250 H 0.30875 0.12017 0.5968 0.0
C1251 C 0.37561 0.19132 0.59449 0.0
H1252 H 0.32146 0.14966 0.64864 0.0
C1253 C 0.36845 0.1747 0.56504 0.0
C1254 C 0.34464 0.14858 0.5654 0.0
H1255 H 0.39462 0.211 0.59335 0.0
H1256 H 0.38216 0.18212 0.5423 0.0
C1257 C 0.32736 0.14013 0.59564 0.0
C1258 C 0.92752 0.25094 0.53802 0.0
C1259 C 0.92954 0.25268 0.57499 0.0
H1260 H 0.94023 0.27249 0.48814 0.0
C1261 C 0.94798 0.27803 0.59 0.0
H1262 H 0.91321 0.23178 0.52576 0.0
C1263 C 0.96354 0.30132 0.56857 0.0
C1264 C 0.96066 0.29986 0.53163 0.0
H1265 H 0.9499 0.27989 0.61845 0.0
H1266 H 0.9772 0.32062 0.58102 0.0
C1267 C 0.94276 0.27434 0.51655 0.0
C1268 C 0.84122 0.74942 0.541 0.0
C1269 C 0.84506 0.77114 0.56247 0.0
H1270 H 0.824 0.72768 0.49326 0.0
C1271 C 0.8356 0.78903 0.55017 0.0
H1272 H 0.84885 0.73564 0.54924 0.0
C1273 C 0.8216 0.78463 0.51782 0.0
C1274 C 0.81674 0.76222 0.4971 0.0
H1275 H 0.83812 0.80587 0.56606 0.0
H1276 H 0.81389 0.79837 0.50959 0.0
C1277 C 0.82717 0.74497 0.50872 0.0
C1278 C 0.75983 0.67711 0.2641 0.0
C1279 C 0.77547 0.66447 0.25566 0.0
H1280 H 0.74864 0.69627 0.30387 0.0
C1281 C 0.79064 0.65959 0.28235 0.0
H1282 H 0.74849 0.68159 0.24374 0.0
C1283 C 0.7905 0.66769 0.31698 0.0
C1284 C 0.77601 0.68165 0.32488 0.0
H1285 H 0.80318 0.65025 0.27605 0.0
H1286 H 0.8026 0.66409 0.33716 0.0
C1287 C 0.76033 0.68589 0.2983 0.0
C1288 C 0.33821 0.17332 0.31513 0.0
C1289 C 0.36585 0.1873 0.30267 0.0
H1290 H 0.31027 0.14799 0.35634 0.0
C1291 C 0.38687 0.18665 0.32387 0.0
H1292 H 0.32151 0.17332 0.29957 0.0
C1293 C 0.38051 0.17218 0.35623 0.0
C1294 C 0.3529 0.15786 0.36856 0.0
H1295 H 0.40846 0.19719 0.31537 0.0
H1296 H 0.3973 0.17206 0.37144 0.0
C1297 C 0.33182 0.15877 0.3477 0.0
C1298 C 0.89362 0.31792 0.31576 0.0
C1299 C 0.91122 0.32751 0.28615 0.0
H1300 H 0.89085 0.31491 0.37226 0.0
C1301 C 0.94025 0.34248 0.29112 0.0
H1302 H 0.87117 0.30617 0.31237 0.0
C1303 C 0.95154 0.3469 0.32516 0.0
C1304 C 0.93396 0.33683 0.35483 0.0
H1305 H 0.95424 0.34965 0.26867 0.0
H1306 H 0.97405 0.35802 0.32823 0.0
C1307 C 0.90488 0.32281 0.34986 0.0
C1308 C 0.38895 0.28963 0.82412 0.0
C1309 C 0.36883 0.26545 0.80772 0.0
H1310 H 0.39838 0.3186 0.86505 0.0
C1311 C 0.34157 0.25201 0.82146 0.0
H1312 H 0.41021 0.30074 0.81441 0.0
C1313 C 0.3348 0.26244 0.85092 0.0
C1314 C 0.35508 0.2866 0.86728 0.0
H1315 H 0.32554 0.23344 0.80958 0.0
H1316 H 0.31362 0.25149 0.86091 0.0
C1317 C 0.3822 0.30003 0.85332 0.0
C1318 C 0.817 0.15601 0.82532 0.0
C1319 C 0.80743 0.15806 0.79138 0.0
H1320 H 0.80692 0.14569 0.87995 0.0
C1321 C 0.77927 0.15123 0.78704 0.0
H1322 H 0.83861 0.16142 0.82961 0.0
C1323 C 0.76105 0.14228 0.81588 0.0
C1324 C 0.77059 0.14005 0.84979 0.0
H1325 H 0.77111 0.15226 0.76118 0.0
H1326 H 0.73942 0.13678 0.81148 0.0
C1327 C 0.79884 0.14721 0.85421 0.0
C1328 C 0.9657 0.77225 0.80707 0.0
C1329 C 0.94235 0.75271 0.78846 0.0
H1330 H 0.99633 0.77948 0.84719 0.0
C1331 C 0.93248 0.72469 0.79601 0.0
H1332 H 0.974 0.79395 0.80162 0.0
C1333 C 0.94534 0.7164 0.82176 0.0
C1334 C 0.96836 0.73589 0.84079 0.0
H1335 H 0.91428 0.70901 0.78273 0.0
H1336 H 0.93679 0.69465 0.82724 0.0
C1337 C 0.97861 0.76393 0.83295 0.0
C1338 C 0.89512 0.71957 0.0164 0.0
C1339 C 0.87499 0.69282 0.02681 0.0
H1340 H 0.93339 0.74501 0.98882 0.0
C1341 C 0.87841 0.6707 0.01686 0.0
H1342 H 0.89288 0.73695 0.02364 0.0
C1343 C 0.90175 0.67528 0.99734 0.0
C1344 C 0.92195 0.70208 0.98701 0.0
H1345 H 0.86345 0.64992 0.02497 0.0
H1346 H 0.90387 0.6578 0.99025 0.0
C1347 C 0.91828 0.72416 0.99652 0.0
C1348 C 0.36024 0.25224 0.07263 0.0
C1349 C 0.35185 0.25089 0.10795 0.0
H1350 H 0.36369 0.26952 0.02058 0.0
C1351 C 0.3381 0.26545 0.11674 0.0
H1352 H 0.3708 0.24123 0.06476 0.0
C1353 C 0.33415 0.28201 0.09114 0.0
C1354 C 0.34376 0.28427 0.05616 0.0
H1355 H 0.33155 0.26508 0.14369 0.0
H1356 H 0.32432 0.29368 0.09906 0.0
C1357 C 0.35622 0.26859 0.04716 0.0
C1358 C 0.79087 0.21558 0.04851 0.0
C1359 C 0.80759 0.21111 0.07326 0.0
H1360 H 0.76248 0.19991 1.00504 0.0
C1361 C 0.80778 0.18607 0.07307 0.0
H1362 H 0.78994 0.23444 0.04823 0.0
C1363 C 0.7919 0.16614 0.04839 0.0
C1364 C 0.7755 0.17083 0.02336 0.0
H1365 H 0.82069 0.18206 0.09143 0.0
H1366 H 0.7928 0.14725 0.04864 0.0
C1367 C 0.775 0.19568 0.02387 0.0
loop_
_geom_bond_atom_site_label_1
_geom_bond_atom_site_label_2
_geom_bond_distance
_geom_bond_site_symmetry_2
_ccdc_geom_bond_type
Cu0 N1 1.997 . S
Cu0 O6 1.974 1_554 S
Cu0 N11 1.987 1_554 S
Cu0 O20 1.958 . S
N1 Cu0 1.997 . S
N1 C3 1.263 . S
N1 C5 1.389 . S
N2 C3 1.358 . S
N2 C4 1.400 . S
C3 N1 1.263 . S
C3 N2 1.358 . S
C3 H9 0.930 . S
C4 N2 1.400 . S
C4 C5 1.351 . S
C4 H21 0.930 . S
C5 N1 1.389 . S
C5 C4 1.351 . S
C5 H10 0.930 . S
O6 Cu0 1.974 1_556 S
O6 C16 1.282 . S
C7 O8 1.261 . S
C7 O20 1.251 . S
O8 C7 1.261 . S
H9 C3 0.930 . S
H10 C5 0.930 . S
N11 Cu0 1.987 1_556 S
N11 C13 1.335 . S
N11 C14 1.390 . S
N12 C13 1.345 . S
N12 C15 1.336 . S
C13 N11 1.335 . S
C13 N12 1.345 . S
C13 H18 0.930 . S
C14 N11 1.390 . S
C14 C15 1.346 . S
C14 H19 0.930 . S
C15 N12 1.336 . S
C15 C14 1.346 . S
C15 H22 0.929 . S
C16 O6 1.282 . S
C16 O17 1.216 . S
O17 C16 1.216 . S
H18 C13 0.930 . S
H19 C14 0.930 . S
O20 Cu0 1.958 . S
O20 C7 1.251 . S
H21 C4 0.930 . S
H22 C15 0.929 . S
Cu23 N24 1.999 1_554 S
Cu23 O29 1.974 . S
Cu23 N34 1.985 . S
Cu23 O43 1.959 1_554 S
N24 Cu23 1.999 1_556 S
N24 C26 1.263 . S
N24 C28 1.389 . S
N25 C26 1.358 . S
N25 C27 1.400 . S
C26 N24 1.263 . S
C26 N25 1.358 . S
C26 H32 0.930 . S
C27 N25 1.400 . S
C27 C28 1.351 . S
C27 H44 0.930 . S
C28 N24 1.389 . S
C28 C27 1.351 . S
C28 H33 0.930 . S
O29 Cu23 1.974 . S
O29 C39 1.282 . S
C30 O31 1.261 . S
C30 O43 1.251 . S
O31 C30 1.261 . S
H32 C26 0.930 . S
H33 C28 0.930 . S
N34 Cu23 1.985 . S
N34 C36 1.335 . S
N34 C37 1.390 . S
N35 C36 1.345 . S
N35 C38 1.336 . S
C36 N34 1.335 . S
C36 N35 1.345 . S
C36 H41 0.930 . S
C37 N34 1.390 . S
C37 C38 1.346 . S
C37 H42 0.930 . S
C38 N35 1.336 . S
C38 C37 1.346 . S
C38 H45 0.929 . S
C39 O29 1.282 . S
C39 O40 1.216 . S
O40 C39 1.216 . S
H41 C36 0.930 . S
H42 C37 0.930 . S
O43 Cu23 1.959 1_556 S
O43 C30 1.251 . S
H44 C27 0.930 . S
H45 C38 0.929 . S
Cu46 N47 1.999 1_554 S
Cu46 O52 1.973 . S
Cu46 N57 1.985 1_565 S
Cu46 O66 1.960 1_564 S
N47 Cu46 1.999 1_556 S
N47 C49 1.263 1_565 S
N47 C51 1.389 . S
N48 C49 1.358 1_565 S
N48 C50 1.400 . S
C49 N47 1.263 1_545 S
C49 N48 1.358 1_545 S
C49 H55 0.930 . S
C50 N48 1.400 . S
C50 C51 1.351 . S
C50 H67 0.930 . S
C51 N47 1.389 . S
C51 C50 1.351 . S
C51 H56 0.930 . S
O52 Cu46 1.973 . S
O52 C62 1.282 1_565 S
C53 O54 1.261 . S
C53 O66 1.251 . S
O54 C53 1.261 . S
H55 C49 0.930 . S
H56 C51 0.930 . S
N57 Cu46 1.985 1_545 S
N57 C59 1.335 . S
N57 C60 1.390 . S
N58 C59 1.345 . S
N58 C61 1.336 . S
C59 N57 1.335 . S
C59 N58 1.345 . S
C59 H64 0.930 . S
C60 N57 1.390 . S
C60 C61 1.346 . S
C60 H65 0.930 . S
C61 N58 1.336 . S
C61 C60 1.346 . S
C61 H68 0.929 . S
C62 O52 1.282 1_545 S
C62 O63 1.216 . S
O63 C62 1.216 . S
H64 C59 0.930 . S
H65 C60 0.930 . S
O66 Cu46 1.960 1_546 S
O66 C53 1.251 . S
H67 C50 0.930 . S
H68 C61 0.929 . S
Cu69 N70 1.999 . S
Cu69 O75 1.974 . S
Cu69 N80 1.985 . S
Cu69 O89 1.959 . S
N70 Cu69 1.999 . S
N70 C72 1.263 . S
N70 C74 1.389 . S
N71 C72 1.358 . S
N71 C73 1.400 . S
C72 N70 1.263 . S
C72 N71 1.358 . S
C72 H78 0.930 . S
C73 N71 1.400 . S
C73 C74 1.351 . S
C73 H90 0.930 . S
C74 N70 1.389 . S
C74 C73 1.351 . S
C74 H79 0.930 . S
O75 Cu69 1.974 . S
O75 C85 1.282 . S
C76 O77 1.261 . S
C76 O89 1.251 . S
O77 C76 1.261 . S
H78 C72 0.930 . S
H79 C74 0.930 . S
N80 Cu69 1.985 . S
N80 C82 1.335 . S
N80 C83 1.390 . S
N81 C82 1.345 . S
N81 C84 1.336 . S
C82 N80 1.335 . S
C82 N81 1.345 . S
C82 H87 0.930 . S
C83 N80 1.390 . S
C83 C84 1.346 . S
C83 H88 0.930 . S
C84 N81 1.336 . S
C84 C83 1.346 . S
C84 H91 0.929 . S
C85 O75 1.282 . S
C85 O86 1.216 1_545 S
O86 C85 1.216 1_565 S
H87 C82 0.930 . S
H88 C83 0.930 . S
O89 Cu69 1.959 . S
O89 C76 1.251 . S
H90 C73 0.930 . S
H91 C84 0.929 . S
Cu92 N93 1.999 . S
Cu92 O98 1.974 . S
Cu92 N103 1.985 . S
Cu92 O112 1.959 . S
N93 Cu92 1.999 . S
N93 C95 1.263 . S
N93 C97 1.389 . S
N94 C95 1.358 . S
N94 C96 1.400 . S
C95 N93 1.263 . S
C95 N94 1.358 . S
C95 H101 0.930 . S
C96 N94 1.400 . S
C96 C97 1.351 . S
C96 H113 0.923 1_455 S
C97 N93 1.389 . S
C97 C96 1.351 . S
C97 H102 0.930 1_455 S
O98 Cu92 1.974 . S
O98 C108 1.282 . S
C99 O100 1.261 . S
C99 O112 1.251 . S
O100 C99 1.261 . S
H101 C95 0.930 . S
H102 C97 0.930 1_655 S
N103 Cu92 1.985 . S
N103 C105 1.335 . S
N103 C106 1.390 . S
N104 C105 1.345 . S
N104 C107 1.336 . S
C105 N103 1.335 . S
C105 N104 1.345 . S
C105 H110 0.930 . S
C106 N103 1.390 . S
C106 C107 1.346 . S
C106 H111 0.930 . S
C107 N104 1.336 . S
C107 C106 1.346 . S
C107 H114 0.929 . S
C108 O98 1.282 . S
C108 O109 1.216 . S
O109 C108 1.216 . S
H110 C105 0.930 . S
H111 C106 0.930 . S
O112 Cu92 1.959 . S
O112 C99 1.251 . S
H113 C96 0.923 1_655 S
H114 C107 0.929 . S
Cu115 N116 1.999 . S
Cu115 O121 1.974 . S
Cu115 N126 1.985 . S
Cu115 O135 1.959 . S
N116 Cu115 1.999 . S
N116 C118 1.263 . S
N116 C120 1.389 . S
N117 C118 1.358 . S
N117 C119 1.400 . S
C118 N116 1.263 . S
C118 N117 1.358 . S
C118 H124 0.930 . S
C119 N117 1.400 . S
C119 C120 1.351 . S
C119 H136 0.930 . S
C120 N116 1.389 . S
C120 C119 1.351 . S
C120 H125 0.930 . S
O121 Cu115 1.974 . S
O121 C131 1.282 . S
C122 O123 1.261 . S
C122 O135 1.251 . S
O123 C122 1.261 . S
H124 C118 0.930 . S
H125 C120 0.930 . S
N126 Cu115 1.985 . S
N126 C128 1.335 . S
N126 C129 1.390 . S
N127 C128 1.345 . S
N127 C130 1.336 . S
C128 N126 1.335 . S
C128 N127 1.345 . S
C128 H133 0.930 . S
C129 N126 1.390 . S
C129 C130 1.346 . S
C129 H134 0.930 . S
C130 N127 1.336 . S
C130 C129 1.346 . S
C130 H137 0.929 . S
C131 O121 1.282 . S
C131 O132 1.216 . S
O132 C131 1.216 . S
H133 C128 0.930 . S
H134 C129 0.930 . S
O135 Cu115 1.959 . S
O135 C122 1.251 . S
H136 C119 0.930 . S
H137 C130 0.929 . S
Cu138 N139 1.999 . S
Cu138 O144 1.974 . S
Cu138 N149 1.985 . S
Cu138 O158 1.959 . S
N139 Cu138 1.999 . S
N139 C141 1.263 . S
N139 C143 1.389 . S
N140 C141 1.358 . S
N140 C142 1.400 . S
C141 N139 1.263 . S
C141 N140 1.358 . S
C141 H147 0.930 . S
C142 N140 1.400 . S
C142 C143 1.351 . S
C142 H159 0.930 . S
C143 N139 1.389 . S
C143 C142 1.351 . S
C143 H148 0.930 . S
O144 Cu138 1.974 . S
O144 C154 1.282 . S
C145 O146 1.261 . S
C145 O158 1.251 . S
O146 C145 1.261 . S
H147 C141 0.930 . S
H148 C143 0.930 . S
N149 Cu138 1.985 . S
N149 C151 1.335 . S
N149 C152 1.390 . S
N150 C151 1.345 . S
N150 C153 1.336 . S
C151 N149 1.335 . S
C151 N150 1.345 . S
C151 H156 0.930 . S
C152 N149 1.390 . S
C152 C153 1.346 . S
C152 H157 0.930 . S
C153 N150 1.336 . S
C153 C152 1.346 . S
C153 H160 0.929 . S
C154 O144 1.282 . S
C154 O155 1.216 . S
O155 C154 1.216 . S
H156 C151 0.930 . S
H157 C152 0.930 . S
O158 Cu138 1.959 . S
O158 C145 1.251 . S
H159 C142 0.930 . S
H160 C153 0.929 . S
Cu161 N162 1.999 . S
Cu161 O167 1.974 . S
Cu161 N172 1.985 . S
Cu161 O181 1.959 . S
N162 Cu161 1.999 . S
N162 C164 1.263 . S
N162 C166 1.389 . S
N163 C164 1.358 . S
N163 C165 1.400 . S
C164 N162 1.263 . S
C164 N163 1.358 . S
C164 H170 0.930 . S
C165 N163 1.400 . S
C165 C166 1.351 . S
C165 H182 0.930 . S
C166 N162 1.389 . S
C166 C165 1.351 . S
C166 H171 0.930 . S
O167 Cu161 1.974 . S
O167 C177 1.282 . S
C168 O169 1.261 . S
C168 O181 1.251 . S
O169 C168 1.261 . S
H170 C164 0.930 . S
H171 C166 0.930 . S
N172 Cu161 1.985 . S
N172 C174 1.335 . S
N172 C175 1.390 . S
N173 C174 1.345 . S
N173 C176 1.336 . S
C174 N172 1.335 . S
C174 N173 1.345 . S
C174 H179 0.930 . S
C175 N172 1.390 . S
C175 C176 1.346 . S
C175 H180 0.930 . S
C176 N173 1.336 . S
C176 C175 1.346 . S
C176 H183 0.929 . S
C177 O167 1.282 . S
C177 O178 1.216 . S
O178 C177 1.216 . S
H179 C174 0.930 . S
H180 C175 0.930 . S
O181 Cu161 1.959 . S
O181 C168 1.251 . S
H182 C165 0.930 . S
H183 C176 0.929 . S
Cu184 N185 1.999 . S
Cu184 O190 1.974 . S
Cu184 N195 1.985 . S
Cu184 O204 1.959 . S
N185 Cu184 1.999 . S
N185 C187 1.263 . S
N185 C189 1.389 . S
N186 C187 1.358 . S
N186 C188 1.400 . S
C187 N185 1.263 . S
C187 N186 1.358 . S
C187 H193 0.930 . S
C188 N186 1.400 . S
C188 C189 1.351 . S
C188 H205 0.930 . S
C189 N185 1.389 . S
C189 C188 1.351 . S
C189 H194 0.930 . S
O190 Cu184 1.974 . S
O190 C200 1.282 . S
C191 O192 1.261 . S
C191 O204 1.251 . S
O192 C191 1.261 . S
H193 C187 0.930 . S
H194 C189 0.930 . S
N195 Cu184 1.985 . S
N195 C197 1.335 . S
N195 C198 1.390 . S
N196 C197 1.345 . S
N196 C199 1.336 . S
C197 N195 1.335 . S
C197 N196 1.345 . S
C197 H202 0.930 . S
C198 N195 1.390 . S
C198 C199 1.346 . S
C198 H203 0.930 . S
C199 N196 1.336 . S
C199 C198 1.346 . S
C199 H206 0.929 . S
C200 O190 1.282 . S
C200 O201 1.216 . S
O201 C200 1.216 . S
H202 C197 0.930 . S
H203 C198 0.930 . S
O204 Cu184 1.959 . S
O204 C191 1.251 . S
H205 C188 0.930 . S
H206 C199 0.929 . S
Cu207 N208 1.999 . S
Cu207 O213 1.974 . S
Cu207 N218 1.985 . S
Cu207 O227 1.959 . S
N208 Cu207 1.999 . S
N208 C210 1.263 . S
N208 C212 1.389 . S
N209 C210 1.358 . S
N209 C211 1.400 . S
C210 N208 1.263 . S
C210 N209 1.358 . S
C210 H216 0.930 . S
C211 N209 1.400 . S
C211 C212 1.351 . S
C211 H228 0.930 . S
C212 N208 1.389 . S
C212 C211 1.351 . S
C212 H217 0.930 . S
O213 Cu207 1.974 . S
O213 C223 1.282 . S
C214 O215 1.261 . S
C214 O227 1.251 . S
O215 C214 1.261 . S
H216 C210 0.930 . S
H217 C212 0.930 . S
N218 Cu207 1.985 . S
N218 C220 1.335 . S
N218 C221 1.390 . S
N219 C220 1.345 . S
N219 C222 1.336 . S
C220 N218 1.335 . S
C220 N219 1.345 . S
C220 H225 0.930 . S
C221 N218 1.390 . S
C221 C222 1.346 . S
C221 H226 0.930 . S
C222 N219 1.336 . S
C222 C221 1.346 . S
C222 H229 0.929 . S
C223 O213 1.282 . S
C223 O224 1.216 . S
O224 C223 1.216 . S
H225 C220 0.930 . S
H226 C221 0.930 . S
O227 Cu207 1.959 . S
O227 C214 1.251 . S
H228 C211 0.930 . S
H229 C222 0.929 . S
Cu230 N231 1.999 . S
Cu230 O236 1.974 . S
Cu230 N241 1.985 . S
Cu230 O250 1.959 . S
N231 Cu230 1.999 . S
N231 C233 1.263 . S
N231 C235 1.389 . S
N232 C233 1.358 . S
N232 C234 1.400 . S
C233 N231 1.263 . S
C233 N232 1.358 . S
C233 H239 0.930 . S
C234 N232 1.400 . S
C234 C235 1.351 . S
C234 H251 0.930 . S
C235 N231 1.389 . S
C235 C234 1.351 . S
C235 H240 0.930 . S
O236 Cu230 1.974 . S
O236 C246 1.282 . S
C237 O238 1.261 . S
C237 O250 1.251 . S
O238 C237 1.261 . S
H239 C233 0.930 . S
H240 C235 0.930 . S
N241 Cu230 1.985 . S
N241 C243 1.335 . S
N241 C244 1.390 . S
N242 C243 1.345 . S
N242 C245 1.336 . S
C243 N241 1.335 . S
C243 N242 1.345 . S
C243 H248 0.930 . S
C244 N241 1.390 . S
C244 C245 1.346 . S
C244 H249 0.930 . S
C245 N242 1.336 . S
C245 C244 1.346 . S
C245 H252 0.929 . S
C246 O236 1.282 . S
C246 O247 1.216 . S
O247 C246 1.216 . S
H248 C243 0.930 . S
H249 C244 0.930 . S
O250 Cu230 1.959 . S
O250 C237 1.251 . S
H251 C234 0.930 . S
H252 C245 0.929 . S
Cu253 N254 1.999 . S
Cu253 O259 1.974 . S
Cu253 N264 1.985 . S
Cu253 O273 1.959 . S
N254 Cu253 1.999 . S
N254 C256 1.263 . S
N254 C258 1.389 . S
N255 C256 1.358 . S
N255 C257 1.400 . S
C256 N254 1.263 . S
C256 N255 1.358 . S
C256 H262 0.930 . S
C257 N255 1.400 . S
C257 C258 1.351 . S
C257 H274 0.930 . S
C258 N254 1.389 . S
C258 C257 1.351 . S
C258 H263 0.930 . S
O259 Cu253 1.974 . S
O259 C269 1.282 . S
C260 O261 1.261 . S
C260 O273 1.251 . S
O261 C260 1.261 . S
H262 C256 0.930 . S
H263 C258 0.930 . S
N264 Cu253 1.985 . S
N264 C266 1.335 . S
N264 C267 1.390 . S
N265 C266 1.345 . S
N265 C268 1.336 . S
C266 N264 1.335 . S
C266 N265 1.345 . S
C266 H271 0.930 . S
C267 N264 1.390 . S
C267 C268 1.346 . S
C267 H272 0.930 . S
C268 N265 1.336 . S
C268 C267 1.346 . S
C268 H275 0.929 . S
C269 O259 1.282 . S
C269 O270 1.216 . S
O270 C269 1.216 . S
H271 C266 0.930 . S
H272 C267 0.930 . S
O273 Cu253 1.959 . S
O273 C260 1.251 . S
H274 C257 0.930 . S
H275 C268 0.929 . S
Cu276 N277 1.999 . S
Cu276 O282 1.974 . S
Cu276 N287 1.985 . S
Cu276 O296 1.959 . S
N277 Cu276 1.999 . S
N277 C279 1.263 . S
N277 C281 1.389 . S
N278 C279 1.358 . S
N278 C280 1.400 . S
C279 N277 1.263 . S
C279 N278 1.358 . S
C279 H285 0.930 . S
C280 N278 1.400 . S
C280 C281 1.351 . S
C280 H297 0.930 . S
C281 N277 1.389 . S
C281 C280 1.351 . S
C281 H286 0.930 . S
O282 Cu276 1.974 . S
O282 C292 1.282 . S
C283 O284 1.261 . S
C283 O296 1.251 . S
O284 C283 1.261 . S
H285 C279 0.930 . S
H286 C281 0.930 . S
N287 Cu276 1.985 . S
N287 C289 1.335 . S
N287 C290 1.390 . S
N288 C289 1.345 . S
N288 C291 1.336 . S
C289 N287 1.335 . S
C289 N288 1.345 . S
C289 H294 0.930 . S
C290 N287 1.390 . S
C290 C291 1.346 . S
C290 H295 0.930 . S
C291 N288 1.336 . S
C291 C290 1.346 . S
C291 H298 0.929 . S
C292 O282 1.282 . S
C292 O293 1.216 . S
O293 C292 1.216 . S
H294 C289 0.930 . S
H295 C290 0.930 . S
O296 Cu276 1.959 . S
O296 C283 1.251 . S
H297 C280 0.930 . S
H298 C291 0.929 . S
Cu299 N300 1.999 . S
Cu299 O305 1.974 . S
Cu299 N310 1.985 . S
Cu299 O319 1.959 . S
N300 Cu299 1.999 . S
N300 C302 1.263 . S
N300 C304 1.389 . S
N301 C302 1.358 . S
N301 C303 1.400 . S
C302 N300 1.263 . S
C302 N301 1.358 . S
C302 H308 0.930 . S
C303 N301 1.400 . S
C303 C304 1.351 . S
C303 H320 0.930 . S
C304 N300 1.389 . S
C304 C303 1.351 . S
C304 H309 0.930 . S
O305 Cu299 1.974 . S
O305 C315 1.282 . S
C306 O307 1.261 . S
C306 O319 1.251 . S
O307 C306 1.261 . S
H308 C302 0.930 . S
H309 C304 0.930 . S
N310 Cu299 1.985 . S
N310 C312 1.335 . S
N310 C313 1.390 . S
N311 C312 1.345 . S
N311 C314 1.336 . S
C312 N310 1.335 . S
C312 N311 1.345 . S
C312 H317 0.930 . S
C313 N310 1.390 . S
C313 C314 1.346 . S
C313 H318 0.930 . S
C314 N311 1.336 . S
C314 C313 1.346 . S
C314 H321 0.929 . S
C315 O305 1.282 . S
C315 O316 1.216 . S
O316 C315 1.216 . S
H317 C312 0.930 . S
H318 C313 0.930 . S
O319 Cu299 1.959 . S
O319 C306 1.251 . S
H320 C303 0.930 . S
H321 C314 0.929 . S
Cu322 N323 1.999 . S
Cu322 O328 1.974 . S
Cu322 N333 1.985 . S
Cu322 O342 1.959 . S
N323 Cu322 1.999 . S
N323 C325 1.263 . S
N323 C327 1.389 . S
N324 C325 1.358 . S
N324 C326 1.400 . S
C325 N323 1.263 . S
C325 N324 1.358 . S
C325 H331 0.930 . S
C326 N324 1.400 . S
C326 C327 1.351 . S
C326 H343 0.930 . S
C327 N323 1.389 . S
C327 C326 1.351 . S
C327 H332 0.930 . S
O328 Cu322 1.974 . S
O328 C338 1.282 . S
C329 O330 1.261 . S
C329 O342 1.251 . S
O330 C329 1.261 . S
H331 C325 0.930 . S
H332 C327 0.930 . S
N333 Cu322 1.985 . S
N333 C335 1.335 . S
N333 C336 1.390 . S
N334 C335 1.345 . S
N334 C337 1.336 . S
C335 N333 1.335 . S
C335 N334 1.345 . S
C335 H340 0.930 . S
C336 N333 1.390 . S
C336 C337 1.346 . S
C336 H341 0.930 . S
C337 N334 1.336 . S
C337 C336 1.346 . S
C337 H344 0.929 . S
C338 O328 1.282 . S
C338 O339 1.216 . S
O339 C338 1.216 . S
H340 C335 0.930 . S
H341 C336 0.930 . S
O342 Cu322 1.959 . S
O342 C329 1.251 . S
H343 C326 0.930 . S
H344 C337 0.929 . S
Cu345 N346 1.999 . S
Cu345 O351 1.974 . S
Cu345 N356 1.985 . S
Cu345 O365 1.959 . S
N346 Cu345 1.999 . S
N346 C348 1.263 . S
N346 C350 1.389 . S
N347 C348 1.358 . S
N347 C349 1.400 . S
C348 N346 1.263 . S
C348 N347 1.358 . S
C348 H354 0.930 . S
C349 N347 1.400 . S
C349 C350 1.351 . S
C349 H366 0.930 . S
C350 N346 1.389 . S
C350 C349 1.351 . S
C350 H355 0.930 . S
O351 Cu345 1.974 . S
O351 C361 1.282 . S
C352 O353 1.261 . S
C352 O365 1.251 . S
O353 C352 1.261 . S
H354 C348 0.930 . S
H355 C350 0.930 . S
N356 Cu345 1.985 . S
N356 C358 1.335 . S
N356 C359 1.390 . S
N357 C358 1.345 . S
N357 C360 1.336 . S
C358 N356 1.335 . S
C358 N357 1.345 . S
C358 H363 0.930 . S
C359 N356 1.390 . S
C359 C360 1.346 . S
C359 H364 0.930 . S
C360 N357 1.336 . S
C360 C359 1.346 . S
C360 H367 0.929 . S
C361 O351 1.282 . S
C361 O362 1.216 . S
O362 C361 1.216 . S
H363 C358 0.930 . S
H364 C359 0.930 . S
O365 Cu345 1.959 . S
O365 C352 1.251 . S
H366 C349 0.930 . S
H367 C360 0.929 . S
Cu368 N369 1.999 . S
Cu368 O374 1.974 . S
Cu368 N379 1.985 . S
Cu368 O388 1.959 . S
N369 Cu368 1.999 . S
N369 C371 1.263 . S
N369 C373 1.389 . S
N370 C371 1.358 . S
N370 C372 1.400 . S
C371 N369 1.263 . S
C371 N370 1.358 . S
C371 H377 0.930 . S
C372 N370 1.400 . S
C372 C373 1.351 . S
C372 H389 0.930 . S
C373 N369 1.389 . S
C373 C372 1.351 . S
C373 H378 0.930 . S
O374 Cu368 1.974 . S
O374 C384 1.282 . S
C375 O376 1.261 . S
C375 O388 1.251 . S
O376 C375 1.261 . S
H377 C371 0.930 . S
H378 C373 0.930 . S
N379 Cu368 1.985 . S
N379 C381 1.335 . S
N379 C382 1.390 . S
N380 C381 1.345 . S
N380 C383 1.336 . S
C381 N379 1.335 . S
C381 N380 1.345 . S
C381 H386 0.930 . S
C382 N379 1.390 . S
C382 C383 1.346 . S
C382 H387 0.930 . S
C383 N380 1.336 . S
C383 C382 1.346 . S
C383 H390 0.929 . S
C384 O374 1.282 . S
C384 O385 1.216 . S
O385 C384 1.216 . S
H386 C381 0.930 . S
H387 C382 0.930 . S
O388 Cu368 1.959 . S
O388 C375 1.251 . S
H389 C372 0.930 . S
H390 C383 0.929 . S
Cu391 N392 1.999 . S
Cu391 O397 1.974 . S
Cu391 N402 1.985 . S
Cu391 O411 1.959 . S
N392 Cu391 1.999 . S
N392 C394 1.263 . S
N392 C396 1.389 . S
N393 C394 1.358 . S
N393 C395 1.400 . S
C394 N392 1.263 . S
C394 N393 1.358 . S
C394 H400 0.930 . S
C395 N393 1.400 . S
C395 C396 1.351 . S
C395 H412 0.930 . S
C396 N392 1.389 . S
C396 C395 1.351 . S
C396 H401 0.930 . S
O397 Cu391 1.974 . S
O397 C407 1.282 . S
C398 O399 1.261 . S
C398 O411 1.251 . S
O399 C398 1.261 . S
H400 C394 0.930 . S
H401 C396 0.930 . S
N402 Cu391 1.985 . S
N402 C404 1.335 . S
N402 C405 1.390 . S
N403 C404 1.345 . S
N403 C406 1.336 . S
C404 N402 1.335 . S
C404 N403 1.345 . S
C404 H409 0.930 . S
C405 N402 1.390 . S
C405 C406 1.346 . S
C405 H410 0.930 . S
C406 N403 1.336 . S
C406 C405 1.346 . S
C406 H413 0.929 . S
C407 O397 1.282 . S
C407 O408 1.216 . S
O408 C407 1.216 . S
H409 C404 0.930 . S
H410 C405 0.930 . S
O411 Cu391 1.959 . S
O411 C398 1.251 . S
H412 C395 0.930 . S
H413 C406 0.929 . S
C414 O415 1.160 1_455 S
C414 O421 1.185 . S
O415 C414 1.160 1_655 S
O416 Zn417 1.899 1_655 S
O416 C424 1.284 . S
Zn417 O416 1.899 1_455 S
Zn417 O418 2.032 . S
Zn417 O421 2.086 . S
Zn417 O426 1.977 . S
O418 Zn417 2.032 . S
O418 C422 1.278 . S
C419 O420 1.203 . S
C419 O426 1.267 . S
O420 C419 1.203 . S
O421 C414 1.185 . S
O421 Zn417 2.086 . S
C422 O418 1.278 . S
C422 O423 1.211 . S
O423 C422 1.211 . S
C424 O416 1.284 . S
C424 O425 1.273 . S
O425 C424 1.273 . S
O426 Zn417 1.977 . S
O426 C419 1.267 . S
C427 O428 1.160 . S
C427 O434 1.185 . S
O428 C427 1.160 . S
O429 Zn430 1.899 . S
O429 C437 1.284 . S
Zn430 O429 1.899 . S
Zn430 O431 2.032 . S
Zn430 O434 2.086 . S
Zn430 O439 1.977 . S
O431 Zn430 2.032 . S
O431 C435 1.278 . S
C432 O433 1.203 . S
C432 O439 1.267 . S
O433 C432 1.203 . S
O434 C427 1.185 . S
O434 Zn430 2.086 . S
C435 O431 1.278 . S
C435 O436 1.211 . S
O436 C435 1.211 . S
C437 O429 1.284 . S
C437 O438 1.273 . S
O438 C437 1.273 . S
O439 Zn430 1.977 . S
O439 C432 1.267 . S
C440 O441 1.160 . S
C440 O447 1.185 . S
O441 C440 1.160 . S
O442 Zn443 1.899 . S
O442 C450 1.284 . S
Zn443 O442 1.899 . S
Zn443 O444 2.032 . S
Zn443 O447 2.086 . S
Zn443 O452 1.977 . S
O444 Zn443 2.032 . S
O444 C448 1.278 . S
C445 O446 1.203 . S
C445 O452 1.267 . S
O446 C445 1.203 . S
O447 C440 1.185 . S
O447 Zn443 2.086 . S
C448 O444 1.278 . S
C448 O449 1.211 . S
O449 C448 1.211 . S
C450 O442 1.284 . S
C450 O451 1.273 . S
O451 C450 1.273 . S
O452 Zn443 1.977 . S
O452 C445 1.267 . S
C453 O454 1.160 . S
C453 O460 1.185 . S
O454 C453 1.160 . S
O455 Zn456 1.899 . S
O455 C463 1.284 . S
Zn456 O455 1.899 . S
Zn456 O457 2.032 . S
Zn456 O460 2.086 . S
Zn456 O465 1.977 1_455 S
O457 Zn456 2.032 . S
O457 C461 1.278 . S
C458 O459 1.203 . S
C458 O465 1.267 . S
O459 C458 1.203 . S
O460 C453 1.185 . S
O460 Zn456 2.086 . S
C461 O457 1.278 . S
C461 O462 1.211 . S
O462 C461 1.211 . S
C463 O455 1.284 . S
C463 O464 1.273 . S
O464 C463 1.273 . S
O465 Zn456 1.977 1_655 S
O465 C458 1.267 . S
C466 O467 1.160 . S
C466 O473 1.185 . S
O467 C466 1.160 . S
O468 Zn469 1.899 . S
O468 C476 1.284 . S
Zn469 O468 1.899 . S
Zn469 O470 2.032 . S
Zn469 O473 2.086 . S
Zn469 O478 1.977 . S
O470 Zn469 2.032 . S
O470 C474 1.278 . S
C471 O472 1.203 . S
C471 O478 1.267 . S
O472 C471 1.203 . S
O473 C466 1.185 . S
O473 Zn469 2.086 . S
C474 O470 1.278 . S
C474 O475 1.211 . S
O475 C474 1.211 . S
C476 O468 1.284 . S
C476 O477 1.273 . S
O477 C476 1.273 . S
O478 Zn469 1.977 . S
O478 C471 1.267 . S
C479 O480 1.160 . S
C479 O486 1.185 . S
O480 C479 1.160 . S
O481 Zn482 1.899 . S
O481 C489 1.284 . S
Zn482 O481 1.899 . S
Zn482 O483 2.032 . S
Zn482 O486 2.086 . S
Zn482 O491 1.977 1_545 S
O483 Zn482 2.032 . S
O483 C487 1.278 . S
C484 O485 1.203 . S
C484 O491 1.267 . S
O485 C484 1.203 . S
O486 C479 1.185 . S
O486 Zn482 2.086 . S
C487 O483 1.278 . S
C487 O488 1.211 . S
O488 C487 1.211 . S
C489 O481 1.284 . S
C489 O490 1.273 . S
O490 C489 1.273 . S
O491 Zn482 1.977 1_565 S
O491 C484 1.267 . S
C492 O493 1.160 . S
C492 O499 1.185 . S
O493 C492 1.160 . S
O494 Zn495 1.899 . S
O494 C502 1.288 1_545 S
Zn495 O494 1.899 . S
Zn495 O496 2.032 1_545 S
Zn495 O499 2.086 1_545 S
Zn495 O504 1.977 . S
O496 Zn495 2.032 1_565 S
O496 C500 1.278 . S
C497 O498 1.203 . S
C497 O504 1.267 . S
O498 C497 1.203 . S
O499 C492 1.185 . S
O499 Zn495 2.086 1_565 S
C500 O496 1.278 . S
C500 O501 1.211 . S
O501 C500 1.211 . S
C502 O494 1.288 1_565 S
C502 O503 1.280 . S
O503 C502 1.280 . S
O504 Zn495 1.977 . S
O504 C497 1.267 . S
C505 O506 1.160 . S
C505 O512 1.185 . S
O506 C505 1.160 . S
O507 Zn508 1.899 . S
O507 C515 1.284 . S
Zn508 O507 1.899 . S
Zn508 O509 2.032 . S
Zn508 O512 2.086 . S
Zn508 O517 1.977 . S
O509 Zn508 2.032 . S
O509 C513 1.278 . S
C510 O511 1.203 . S
C510 O517 1.267 . S
O511 C510 1.203 . S
O512 C505 1.185 . S
O512 Zn508 2.086 . S
C513 O509 1.278 . S
C513 O514 1.211 . S
O514 C513 1.211 . S
C515 O507 1.284 . S
C515 O516 1.273 . S
O516 C515 1.273 . S
O517 Zn508 1.977 . S
O517 C510 1.267 . S
C518 O519 1.160 . S
C518 O525 1.185 . S
O519 C518 1.160 . S
O520 Zn521 1.899 . S
O520 C528 1.284 . S
Zn521 O520 1.899 . S
Zn521 O522 2.032 . S
Zn521 O525 2.086 . S
Zn521 O530 1.977 . S
O522 Zn521 2.032 . S
O522 C526 1.278 . S
C523 O524 1.203 . S
C523 O530 1.267 . S
O524 C523 1.203 . S
O525 C518 1.185 . S
O525 Zn521 2.086 . S
C526 O522 1.278 . S
C526 O527 1.211 . S
O527 C526 1.211 . S
C528 O520 1.284 . S
C528 O529 1.273 . S
O529 C528 1.273 . S
O530 Zn521 1.977 . S
O530 C523 1.267 . S
C531 O532 1.160 . S
C531 O538 1.185 . S
O532 C531 1.160 . S
O533 Zn534 1.899 . S
O533 C541 1.284 . S
Zn534 O533 1.899 . S
Zn534 O535 2.032 . S
Zn534 O538 2.086 . S
Zn534 O543 1.977 . S
O535 Zn534 2.032 . S
O535 C539 1.278 . S
C536 O537 1.203 . S
C536 O543 1.267 . S
O537 C536 1.203 . S
O538 C531 1.185 . S
O538 Zn534 2.086 . S
C539 O535 1.278 . S
C539 O540 1.211 . S
O540 C539 1.211 . S
C541 O533 1.284 . S
C541 O542 1.273 . S
O542 C541 1.273 . S
O543 Zn534 1.977 . S
O543 C536 1.267 . S
C544 O545 1.160 . S
C544 O551 1.185 . S
O545 C544 1.160 . S
O546 Zn547 1.899 . S
O546 C554 1.284 . S
Zn547 O546 1.899 . S
Zn547 O548 2.032 . S
Zn547 O551 2.086 . S
Zn547 O556 1.977 1_565 S
O548 Zn547 2.032 . S
O548 C552 1.278 . S
C549 O550 1.203 . S
C549 O556 1.267 . S
O550 C549 1.203 . S
O551 C544 1.185 . S
O551 Zn547 2.086 . S
C552 O548 1.278 . S
C552 O553 1.211 1_565 S
O553 C552 1.211 1_545 S
C554 O546 1.284 . S
C554 O555 1.273 . S
O555 C554 1.273 . S
O556 Zn547 1.977 1_545 S
O556 C549 1.267 . S
C557 O558 1.160 . S
C557 O564 1.185 . S
O558 C557 1.160 . S
O559 Zn560 1.899 . S
O559 C567 1.284 . S
Zn560 O559 1.899 . S
Zn560 O561 2.032 . S
Zn560 O564 2.086 . S
Zn560 O569 1.977 . S
O561 Zn560 2.032 . S
O561 C565 1.278 . S
C562 O563 1.203 . S
C562 O569 1.267 1_655 S
O563 C562 1.203 . S
O564 C557 1.185 . S
O564 Zn560 2.086 . S
C565 O561 1.278 . S
C565 O566 1.211 . S
O566 C565 1.211 . S
C567 O559 1.284 . S
C567 O568 1.273 . S
O568 C567 1.273 . S
O569 Zn560 1.977 . S
O569 C562 1.267 1_455 S
C570 O571 1.160 . S
C570 O577 1.185 . S
O571 C570 1.160 . S
O572 Zn573 1.899 . S
O572 C580 1.284 . S
Zn573 O572 1.899 . S
Zn573 O574 2.032 . S
Zn573 O577 2.086 . S
Zn573 O582 1.977 . S
O574 Zn573 2.032 . S
O574 C578 1.278 . S
C575 O576 1.203 . S
C575 O582 1.267 . S
O576 C575 1.203 . S
O577 C570 1.185 . S
O577 Zn573 2.086 . S
C578 O574 1.278 . S
C578 O579 1.211 1_556 S
O579 C578 1.211 1_554 S
C580 O572 1.284 . S
C580 O581 1.273 . S
O581 C580 1.273 . S
O582 Zn573 1.977 . S
O582 C575 1.267 . S
C583 O584 1.160 . S
C583 O590 1.185 . S
O584 C583 1.160 . S
O585 Zn586 1.899 . S
O585 C593 1.284 . S
Zn586 O585 1.899 . S
Zn586 O587 2.032 . S
Zn586 O590 2.086 . S
Zn586 O595 1.977 . S
O587 Zn586 2.032 . S
O587 C591 1.278 . S
C588 O589 1.203 . S
C588 O595 1.267 . S
O589 C588 1.203 . S
O590 C583 1.185 . S
O590 Zn586 2.086 . S
C591 O587 1.278 . S
C591 O592 1.211 . S
O592 C591 1.211 . S
C593 O585 1.284 . S
C593 O594 1.273 . S
O594 C593 1.273 . S
O595 Zn586 1.977 . S
O595 C588 1.267 . S
C596 O597 1.160 . S
C596 O603 1.185 . S
O597 C596 1.160 . S
O598 Zn599 1.899 . S
O598 C606 1.284 . S
Zn599 O598 1.899 . S
Zn599 O600 2.032 1_655 S
Zn599 O603 2.086 . S
Zn599 O608 1.977 . S
O600 Zn599 2.032 1_455 S
O600 C604 1.278 . S
C601 O602 1.203 . S
C601 O608 1.267 . S
O602 C601 1.203 . S
O603 C596 1.185 . S
O603 Zn599 2.086 . S
C604 O600 1.278 . S
C604 O605 1.211 . S
O605 C604 1.211 . S
C606 O598 1.284 . S
C606 O607 1.273 . S
O607 C606 1.273 . S
O608 Zn599 1.977 . S
O608 C601 1.267 . S
C609 O610 1.160 . S
C609 O616 1.185 . S
O610 C609 1.160 . S
O611 Zn612 1.899 . S
O611 C619 1.284 . S
Zn612 O611 1.899 . S
Zn612 O613 2.032 . S
Zn612 O616 2.086 . S
Zn612 O621 1.977 . S
O613 Zn612 2.032 . S
O613 C617 1.278 . S
C614 O615 1.203 . S
C614 O621 1.267 . S
O615 C614 1.203 . S
O616 C609 1.185 . S
O616 Zn612 2.086 . S
C617 O613 1.278 . S
C617 O618 1.211 . S
O618 C617 1.211 . S
C619 O611 1.284 . S
C619 O620 1.273 . S
O620 C619 1.273 . S
O621 Zn612 1.977 . S
O621 C614 1.267 . S
C622 O623 1.160 . S
C622 O629 1.185 . S
O623 C622 1.160 . S
O624 Zn625 1.899 . S
O624 C632 1.284 . S
Zn625 O624 1.899 . S
Zn625 O626 2.032 . S
Zn625 O629 2.086 . S
Zn625 O634 1.977 . S
O626 Zn625 2.032 . S
O626 C630 1.278 1_655 S
C627 O628 1.203 . S
C627 O634 1.267 . S
O628 C627 1.203 . S
O629 C622 1.185 . S
O629 Zn625 2.086 . S
C630 O626 1.278 1_455 S
C630 O631 1.211 . S
O631 C630 1.211 . S
C632 O624 1.284 . S
C632 O633 1.273 . S
O633 C632 1.273 . S
O634 Zn625 1.977 . S
O634 C627 1.267 . S
C635 O636 1.160 . S
C635 O642 1.185 . S
O636 C635 1.160 . S
O637 Zn638 1.899 . S
O637 C645 1.284 . S
Zn638 O637 1.899 . S
Zn638 O639 2.032 . S
Zn638 O642 2.086 . S
Zn638 O647 1.977 . S
O639 Zn638 2.032 . S
O639 C643 1.278 . S
C640 O641 1.203 . S
C640 O647 1.267 . S
O641 C640 1.203 . S
O642 C635 1.185 . S
O642 Zn638 2.086 . S
C643 O639 1.278 . S
C643 O644 1.211 . S
O644 C643 1.211 . S
C645 O637 1.284 . S
C645 O646 1.273 . S
O646 C645 1.273 . S
O647 Zn638 1.977 . S
O647 C640 1.267 . S
C648 C649 1.387 . S
C648 H652 0.950 1_554 S
C648 C657 1.390 . S
C649 C648 1.387 . S
C649 C651 1.387 . S
H650 C657 0.950 . S
C651 C649 1.387 . S
C651 C653 1.390 . S
C651 H655 0.950 . S
H652 C648 0.950 1_556 S
C653 C651 1.390 . S
C653 C654 1.387 . S
C653 H656 0.950 . S
C654 C653 1.387 . S
C654 C657 1.387 . S
H655 C651 0.950 . S
H656 C653 0.950 . S
C657 C648 1.390 . S
C657 H650 0.950 . S
C657 C654 1.387 . S
C658 C659 1.387 . S
C658 H662 0.950 . S
C658 C667 1.390 . S
C659 C658 1.387 . S
C659 C661 1.387 . S
H660 C667 0.950 . S
C661 C659 1.387 . S
C661 C663 1.390 . S
C661 H665 0.950 1_554 S
H662 C658 0.950 . S
C663 C661 1.390 . S
C663 C664 1.387 . S
C663 H666 0.950 . S
C664 C663 1.387 . S
C664 C667 1.387 . S
H665 C661 0.950 1_556 S
H666 C663 0.950 . S
C667 C658 1.390 . S
C667 H660 0.950 . S
C667 C664 1.387 . S
C668 C669 1.387 . S
C668 H672 0.950 . S
C668 C677 1.390 . S
C669 C668 1.387 . S
C669 C671 1.387 1_545 S
H670 C677 0.950 . S
C671 C669 1.387 1_565 S
C671 C673 1.390 . S
C671 H675 0.950 . S
H672 C668 0.950 . S
C673 C671 1.390 . S
C673 C674 1.387 . S
C673 H676 0.950 . S
C674 C673 1.387 . S
C674 C677 1.387 1_565 S
H675 C671 0.950 . S
H676 C673 0.950 . S
C677 C668 1.390 . S
C677 H670 0.950 . S
C677 C674 1.387 1_545 S
C678 C679 1.387 . S
C678 H682 0.950 . S
C678 C687 1.390 . S
C679 C678 1.387 . S
C679 C681 1.387 . S
H680 C687 0.950 . S
C681 C679 1.387 . S
C681 C683 1.390 . S
C681 H685 0.950 . S
H682 C678 0.950 . S
C683 C681 1.390 . S
C683 C684 1.387 . S
C683 H686 0.950 . S
C684 C683 1.387 . S
C684 C687 1.387 . S
H685 C681 0.950 . S
H686 C683 0.950 . S
C687 C678 1.390 . S
C687 H680 0.950 . S
C687 C684 1.387 . S
C688 C689 1.368 1_655 S
C688 H692 0.975 . S
C688 C697 1.387 . S
C689 C688 1.368 1_455 S
C689 C691 1.387 . S
H690 C697 0.950 . S
C691 C689 1.387 . S
C691 C693 1.390 . S
C691 H695 0.950 . S
H692 C688 0.975 . S
C693 C691 1.390 . S
C693 C694 1.387 1_455 S
C693 H696 0.950 . S
C694 C693 1.387 1_655 S
C694 C697 1.387 . S
H695 C691 0.950 . S
H696 C693 0.950 . S
C697 C688 1.387 . S
C697 H690 0.950 . S
C697 C694 1.387 . S
C698 C699 1.387 . S
C698 H702 0.950 . S
C698 C707 1.390 . S
C699 C698 1.387 . S
C699 C701 1.387 . S
H700 C707 0.950 . S
C701 C699 1.387 . S
C701 C703 1.390 . S
C701 H705 0.950 . S
H702 C698 0.950 . S
C703 C701 1.390 . S
C703 C704 1.387 . S
C703 H706 0.950 . S
C704 C703 1.387 . S
C704 C707 1.387 . S
H705 C701 0.950 . S
H706 C703 0.950 . S
C707 C698 1.390 . S
C707 H700 0.950 . S
C707 C704 1.387 . S
C708 C709 1.387 . S
C708 H712 0.950 1_455 S
C708 C717 1.390 1_455 S
C709 C708 1.387 . S
C709 C711 1.387 . S
H710 C717 0.950 . S
C711 C709 1.387 . S
C711 C713 1.390 . S
C711 H715 0.950 . S
H712 C708 0.950 1_655 S
C713 C711 1.390 . S
C713 C714 1.387 . S
C713 H716 0.950 . S
C714 C713 1.387 . S
C714 C717 1.387 1_455 S
H715 C711 0.950 . S
H716 C713 0.950 . S
C717 C708 1.390 1_655 S
C717 H710 0.950 . S
C717 C714 1.387 1_655 S
C718 C719 1.387 . S
C718 H722 0.950 1_556 S
C718 C727 1.390 . S
C719 C718 1.387 . S
C719 C721 1.387 . S
H720 C727 0.950 . S
C721 C719 1.387 . S
C721 C723 1.390 . S
C721 H725 0.950 . S
H722 C718 0.950 1_554 S
C723 C721 1.390 . S
C723 C724 1.387 . S
C723 H726 0.950 . S
C724 C723 1.387 . S
C724 C727 1.387 . S
H725 C721 0.950 . S
H726 C723 0.950 . S
C727 C718 1.390 . S
C727 H720 0.950 . S
C727 C724 1.387 . S
C728 C729 1.387 . S
C728 H732 0.950 1_556 S
C728 C737 1.390 . S
C729 C728 1.387 . S
C729 C731 1.387 . S
H730 C737 0.950 . S
C731 C729 1.387 . S
C731 C733 1.390 . S
C731 H735 0.950 . S
H732 C728 0.950 1_554 S
C733 C731 1.390 . S
C733 C734 1.387 . S
C733 H736 0.950 . S
C734 C733 1.387 . S
C734 C737 1.387 . S
H735 C731 0.950 . S
H736 C733 0.950 . S
C737 C728 1.390 . S
C737 H730 0.950 . S
C737 C734 1.387 . S
C738 C739 1.387 1_565 S
C738 H742 0.950 . S
C738 C747 1.390 . S
C739 C738 1.387 1_545 S
C739 C741 1.387 . S
H740 C747 0.950 . S
C741 C739 1.387 . S
C741 C743 1.390 . S
C741 H745 0.950 . S
H742 C738 0.950 . S
C743 C741 1.390 . S
C743 C744 1.387 . S
C743 H746 0.950 . S
C744 C743 1.387 . S
C744 C747 1.387 1_545 S
H745 C741 0.950 . S
H746 C743 0.950 . S
C747 C738 1.390 . S
C747 H740 0.950 . S
C747 C744 1.387 1_565 S
C748 C749 1.387 . S
C748 H752 0.950 . S
C748 C757 1.390 . S
C749 C748 1.387 . S
C749 C751 1.387 . S
H750 C757 0.950 . S
C751 C749 1.387 . S
C751 C753 1.390 . S
C751 H755 0.950 . S
H752 C748 0.950 . S
C753 C751 1.390 . S
C753 C754 1.387 . S
C753 H756 0.950 . S
C754 C753 1.387 . S
C754 C757 1.387 . S
H755 C751 0.950 . S
H756 C753 0.950 . S
C757 C748 1.390 . S
C757 H750 0.950 . S
C757 C754 1.387 . S
C758 C759 1.387 . S
C758 H762 0.950 . S
C758 C767 1.390 . S
C759 C758 1.387 . S
C759 C761 1.387 . S
H760 C767 0.950 . S
C761 C759 1.387 . S
C761 C763 1.390 . S
C761 H765 0.950 . S
H762 C758 0.950 . S
C763 C761 1.390 . S
C763 C764 1.387 . S
C763 H766 0.950 . S
C764 C763 1.387 . S
C764 C767 1.387 . S
H765 C761 0.950 . S
H766 C763 0.950 . S
C767 C758 1.390 . S
C767 H760 0.950 . S
C767 C764 1.387 . S
C768 C769 1.387 . S
C768 H772 0.950 . S
C768 C777 1.390 . S
C769 C768 1.387 . S
C769 C771 1.387 . S
H770 C777 0.950 . S
C771 C769 1.387 . S
C771 C773 1.390 . S
C771 H775 0.950 . S
H772 C768 0.950 . S
C773 C771 1.390 . S
C773 C774 1.387 . S
C773 H776 0.950 . S
C774 C773 1.387 . S
C774 C777 1.387 . S
H775 C771 0.950 . S
H776 C773 0.950 . S
C777 C768 1.390 . S
C777 H770 0.950 . S
C777 C774 1.387 . S
C778 C779 1.382 1_545 S
C778 H782 0.950 1_545 S
C778 C787 1.396 . S
C779 C778 1.382 1_565 S
C779 C781 1.388 1_565 S
H780 C787 0.950 . S
C781 C779 1.388 1_545 S
C781 C783 1.394 . S
C781 H785 0.946 1_545 S
H782 C778 0.950 1_565 S
C783 C781 1.394 . S
C783 C784 1.387 . S
C783 H786 0.950 . S
C784 C783 1.387 . S
C784 C787 1.387 . S
H785 C781 0.946 1_565 S
H786 C783 0.950 . S
C787 C778 1.396 . S
C787 H780 0.950 . S
C787 C784 1.387 . S
C788 C789 1.387 . S
C788 H792 0.950 . S
C788 C797 1.390 . S
C789 C788 1.387 . S
C789 C791 1.387 . S
H790 C797 0.950 . S
C791 C789 1.387 . S
C791 C793 1.390 . S
C791 H795 0.950 . S
H792 C788 0.950 . S
C793 C791 1.390 . S
C793 C794 1.387 . S
C793 H796 0.950 . S
C794 C793 1.387 . S
C794 C797 1.387 . S
H795 C791 0.950 . S
H796 C793 0.950 . S
C797 C788 1.390 . S
C797 H790 0.950 . S
C797 C794 1.387 . S
C798 C799 1.387 . S
C798 H802 0.950 . S
C798 C807 1.390 . S
C799 C798 1.387 . S
C799 C801 1.387 . S
H800 C807 0.950 . S
C801 C799 1.387 . S
C801 C803 1.390 . S
C801 H805 0.950 . S
H802 C798 0.950 . S
C803 C801 1.390 . S
C803 C804 1.387 . S
C803 H806 0.950 . S
C804 C803 1.387 . S
C804 C807 1.387 . S
H805 C801 0.950 . S
H806 C803 0.950 . S
C807 C798 1.390 . S
C807 H800 0.950 . S
C807 C804 1.387 . S
C808 C809 1.387 . S
C808 H812 0.950 . S
C808 C817 1.390 . S
C809 C808 1.387 . S
C809 C811 1.387 . S
H810 C817 0.950 . S
C811 C809 1.387 . S
C811 C813 1.390 . S
C811 H815 0.950 . S
H812 C808 0.950 . S
C813 C811 1.390 . S
C813 C814 1.387 . S
C813 H816 0.950 . S
C814 C813 1.387 . S
C814 C817 1.387 . S
H815 C811 0.950 . S
H816 C813 0.950 . S
C817 C808 1.390 . S
C817 H810 0.950 . S
C817 C814 1.387 . S
C818 C819 1.387 . S
C818 H822 0.950 . S
C818 C827 1.390 . S
C819 C818 1.387 . S
C819 C821 1.387 . S
H820 C827 0.950 . S
C821 C819 1.387 . S
C821 C823 1.390 . S
C821 H825 0.950 . S
H822 C818 0.950 . S
C823 C821 1.390 . S
C823 C824 1.387 . S
C823 H826 0.950 . S
C824 C823 1.387 . S
C824 C827 1.387 . S
H825 C821 0.950 . S
H826 C823 0.950 . S
C827 C818 1.390 . S
C827 H820 0.950 . S
C827 C824 1.387 . S
C828 C829 1.387 . S
C828 H832 0.950 . S
C828 C837 1.390 1_565 S
C829 C828 1.387 . S
C829 C831 1.387 . S
H830 C837 0.950 . S
C831 C829 1.387 . S
C831 C833 1.390 . S
C831 H835 0.950 . S
H832 C828 0.950 . S
C833 C831 1.390 . S
C833 C834 1.387 1_565 S
C833 H836 0.950 . S
C834 C833 1.387 1_545 S
C834 C837 1.387 . S
H835 C831 0.950 . S
H836 C833 0.950 . S
C837 C828 1.390 1_545 S
C837 H830 0.950 . S
C837 C834 1.387 . S
C838 C839 1.387 . S
C838 H842 0.950 . S
C838 C847 1.390 . S
C839 C838 1.387 . S
C839 C841 1.387 . S
H840 C847 0.950 . S
C841 C839 1.387 . S
C841 C843 1.390 . S
C841 H845 0.950 . S
H842 C838 0.950 . S
C843 C841 1.390 . S
C843 C844 1.387 . S
C843 H846 0.950 . S
C844 C843 1.387 . S
C844 C847 1.387 . S
H845 C841 0.950 . S
H846 C843 0.950 . S
C847 C838 1.390 . S
C847 H840 0.950 . S
C847 C844 1.387 . S
C848 C849 1.387 . S
C848 H852 0.950 . S
C848 C857 1.390 . S
C849 C848 1.387 . S
C849 C851 1.387 . S
H850 C857 0.950 . S
C851 C849 1.387 . S
C851 C853 1.390 . S
C851 H855 0.950 . S
H852 C848 0.950 . S
C853 C851 1.390 . S
C853 C854 1.387 . S
C853 H856 0.950 . S
C854 C853 1.387 . S
C854 C857 1.387 . S
H855 C851 0.950 . S
H856 C853 0.950 . S
C857 C848 1.390 . S
C857 H850 0.950 . S
C857 C854 1.387 . S
C858 C859 1.387 . S
C858 H862 0.950 . S
C858 C867 1.390 . S
C859 C858 1.387 . S
C859 C861 1.387 . S
H860 C867 0.950 . S
C861 C859 1.387 . S
C861 C863 1.390 . S
C861 H865 0.950 . S
H862 C858 0.950 . S
C863 C861 1.390 . S
C863 C864 1.387 . S
C863 H866 0.950 . S
C864 C863 1.387 . S
C864 C867 1.387 . S
H865 C861 0.950 . S
H866 C863 0.950 . S
C867 C858 1.390 . S
C867 H860 0.950 . S
C867 C864 1.387 . S
C868 C869 1.387 . S
C868 H872 0.950 . S
C868 C877 1.367 1_565 S
C869 C868 1.387 . S
C869 C871 1.355 1_565 S
H870 C877 0.950 . S
C871 C869 1.355 1_545 S
C871 C873 1.428 . S
C871 H875 0.950 . S
H872 C868 0.950 . S
C873 C871 1.428 . S
C873 C874 1.387 . S
C873 H876 0.950 . S
C874 C873 1.387 . S
C874 C877 1.408 . S
H875 C871 0.950 . S
H876 C873 0.950 . S
C877 C868 1.367 1_545 S
C877 H870 0.950 . S
C877 C874 1.408 . S
C878 C879 1.387 . S
C878 H882 0.950 . S
C878 C887 1.390 . S
C879 C878 1.387 . S
C879 C881 1.387 . S
H880 C887 0.950 . S
C881 C879 1.387 . S
C881 C883 1.390 . S
C881 H885 0.950 . S
H882 C878 0.950 . S
C883 C881 1.390 . S
C883 C884 1.387 . S
C883 H886 0.950 . S
C884 C883 1.387 . S
C884 C887 1.387 . S
H885 C881 0.950 . S
H886 C883 0.950 . S
C887 C878 1.390 . S
C887 H880 0.950 . S
C887 C884 1.387 . S
C888 C889 1.387 . S
C888 H892 0.950 . S
C888 C897 1.390 . S
C889 C888 1.387 . S
C889 C891 1.387 . S
H890 C897 0.950 . S
C891 C889 1.387 . S
C891 C893 1.390 . S
C891 H895 0.950 . S
H892 C888 0.950 . S
C893 C891 1.390 . S
C893 C894 1.387 . S
C893 H896 0.950 . S
C894 C893 1.387 . S
C894 C897 1.387 . S
H895 C891 0.950 . S
H896 C893 0.950 . S
C897 C888 1.390 . S
C897 H890 0.950 . S
C897 C894 1.387 . S
C898 C899 1.387 . S
C898 H902 0.950 . S
C898 C907 1.390 . S
C899 C898 1.387 . S
C899 C901 1.387 . S
H900 C907 0.950 . S
C901 C899 1.387 . S
C901 C903 1.390 . S
C901 H905 0.950 . S
H902 C898 0.950 . S
C903 C901 1.390 . S
C903 C904 1.387 . S
C903 H906 0.950 . S
C904 C903 1.387 . S
C904 C907 1.387 . S
H905 C901 0.950 . S
H906 C903 0.950 . S
C907 C898 1.390 . S
C907 H900 0.950 . S
C907 C904 1.387 . S
C908 C909 1.387 . S
C908 H912 0.950 . S
C908 C917 1.390 . S
C909 C908 1.387 . S
C909 C911 1.387 . S
H910 C917 0.950 . S
C911 C909 1.387 . S
C911 C913 1.390 . S
C911 H915 0.950 . S
H912 C908 0.950 . S
C913 C911 1.390 . S
C913 C914 1.387 . S
C913 H916 0.950 . S
C914 C913 1.387 . S
C914 C917 1.387 . S
H915 C911 0.950 . S
H916 C913 0.950 . S
C917 C908 1.390 . S
C917 H910 0.950 . S
C917 C914 1.387 . S
C918 C919 1.387 . S
C918 H922 0.950 . S
C918 C927 1.390 . S
C919 C918 1.387 . S
C919 C921 1.387 . S
H920 C927 0.950 . S
C921 C919 1.387 . S
C921 C923 1.390 . S
C921 H925 0.950 . S
H922 C918 0.950 . S
C923 C921 1.390 . S
C923 C924 1.387 . S
C923 H926 0.950 . S
C924 C923 1.387 . S
C924 C927 1.387 . S
H925 C921 0.950 . S
H926 C923 0.950 . S
C927 C918 1.390 . S
C927 H920 0.950 . S
C927 C924 1.387 . S
C928 C929 1.387 . S
C928 H932 0.950 . S
C928 C937 1.390 . S
C929 C928 1.387 . S
C929 C931 1.387 . S
H930 C937 0.950 . S
C931 C929 1.387 . S
C931 C933 1.390 . S
C931 H935 0.950 . S
H932 C928 0.950 . S
C933 C931 1.390 . S
C933 C934 1.387 . S
C933 H936 0.950 . S
C934 C933 1.387 . S
C934 C937 1.387 . S
H935 C931 0.950 . S
H936 C933 0.950 . S
C937 C928 1.390 . S
C937 H930 0.950 . S
C937 C934 1.387 . S
C938 C939 1.387 . S
C938 H942 0.950 . S
C938 C947 1.390 . S
C939 C938 1.387 . S
C939 C941 1.387 . S
H940 C947 0.950 . S
C941 C939 1.387 . S
C941 C943 1.390 . S
C941 H945 0.950 . S
H942 C938 0.950 . S
C943 C941 1.390 . S
C943 C944 1.387 . S
C943 H946 0.950 . S
C944 C943 1.387 . S
C944 C947 1.387 . S
H945 C941 0.950 . S
H946 C943 0.950 . S
C947 C938 1.390 . S
C947 H940 0.950 . S
C947 C944 1.387 . S
C948 C949 1.387 . S
C948 H952 0.950 . S
C948 C957 1.390 . S
C949 C948 1.387 . S
C949 C951 1.387 . S
H950 C957 0.950 . S
C951 C949 1.387 . S
C951 C953 1.390 . S
C951 H955 0.950 . S
H952 C948 0.950 . S
C953 C951 1.390 . S
C953 C954 1.387 . S
C953 H956 0.950 . S
C954 C953 1.387 . S
C954 C957 1.387 . S
H955 C951 0.950 . S
H956 C953 0.950 . S
C957 C948 1.390 . S
C957 H950 0.950 . S
C957 C954 1.387 . S
C958 C959 1.387 . S
C958 H962 0.950 . S
C958 C967 1.390 . S
C959 C958 1.387 . S
C959 C961 1.387 . S
H960 C967 0.950 . S
C961 C959 1.387 . S
C961 C963 1.390 . S
C961 H965 0.950 . S
H962 C958 0.950 . S
C963 C961 1.390 . S
C963 C964 1.387 . S
C963 H966 0.950 . S
C964 C963 1.387 . S
C964 C967 1.387 . S
H965 C961 0.950 . S
H966 C963 0.950 . S
C967 C958 1.390 . S
C967 H960 0.950 . S
C967 C964 1.387 . S
C968 C969 1.387 . S
C968 H972 0.950 . S
C968 C977 1.390 . S
C969 C968 1.387 . S
C969 C971 1.387 . S
H970 C977 0.950 . S
C971 C969 1.387 . S
C971 C973 1.390 . S
C971 H975 0.950 . S
H972 C968 0.950 . S
C973 C971 1.390 . S
C973 C974 1.387 . S
C973 H976 0.950 . S
C974 C973 1.387 . S
C974 C977 1.387 . S
H975 C971 0.950 . S
H976 C973 0.950 . S
C977 C968 1.390 . S
C977 H970 0.950 . S
C977 C974 1.387 . S
C978 C979 1.387 . S
C978 H982 0.950 . S
C978 C987 1.390 . S
C979 C978 1.387 . S
C979 C981 1.387 . S
H980 C987 0.950 . S
C981 C979 1.387 . S
C981 C983 1.390 . S
C981 H985 0.950 . S
H982 C978 0.950 . S
C983 C981 1.390 . S
C983 C984 1.387 . S
C983 H986 0.950 . S
C984 C983 1.387 . S
C984 C987 1.387 . S
H985 C981 0.950 . S
H986 C983 0.950 . S
C987 C978 1.390 . S
C987 H980 0.950 . S
C987 C984 1.387 . S
C988 C989 1.387 . S
C988 H992 0.950 . S
C988 C997 1.390 . S
C989 C988 1.387 . S
C989 C991 1.387 . S
H990 C997 0.950 . S
C991 C989 1.387 . S
C991 C993 1.390 . S
C991 H995 0.950 . S
H992 C988 0.950 . S
C993 C991 1.390 . S
C993 C994 1.387 . S
C993 H996 0.950 . S
C994 C993 1.387 . S
C994 C997 1.387 . S
H995 C991 0.950 . S
H996 C993 0.950 . S
C997 C988 1.390 . S
C997 H990 0.950 . S
C997 C994 1.387 . S
C998 C999 1.387 . S
C998 H1002 0.950 . S
C998 C1007 1.390 . S
C999 C998 1.387 . S
C999 C1001 1.387 . S
H1000 C1007 0.950 . S
C1001 C999 1.387 . S
C1001 C1003 1.390 . S
C1001 H1005 0.950 . S
H1002 C998 0.950 . S
C1003 C1001 1.390 . S
C1003 C1004 1.387 . S
C1003 H1006 0.950 . S
C1004 C1003 1.387 . S
C1004 C1007 1.387 . S
H1005 C1001 0.950 . S
H1006 C1003 0.950 . S
C1007 C998 1.390 . S
C1007 H1000 0.950 . S
C1007 C1004 1.387 . S
C1008 C1009 1.387 . S
C1008 H1012 0.950 . S
C1008 C1017 1.390 . S
C1009 C1008 1.387 . S
C1009 C1011 1.387 . S
H1010 C1017 0.950 . S
C1011 C1009 1.387 . S
C1011 C1013 1.390 . S
C1011 H1015 0.950 . S
H1012 C1008 0.950 . S
C1013 C1011 1.390 . S
C1013 C1014 1.387 . S
C1013 H1016 0.950 1_455 S
C1014 C1013 1.387 . S
C1014 C1017 1.387 . S
H1015 C1011 0.950 . S
H1016 C1013 0.950 1_655 S
C1017 C1008 1.390 . S
C1017 H1010 0.950 . S
C1017 C1014 1.387 . S
C1018 C1019 1.387 . S
C1018 H1022 0.950 . S
C1018 C1027 1.390 . S
C1019 C1018 1.387 . S
C1019 C1021 1.387 . S
H1020 C1027 0.950 . S
C1021 C1019 1.387 . S
C1021 C1023 1.390 . S
C1021 H1025 0.950 . S
H1022 C1018 0.950 . S
C1023 C1021 1.390 . S
C1023 C1024 1.387 . S
C1023 H1026 0.950 . S
C1024 C1023 1.387 . S
C1024 C1027 1.387 . S
H1025 C1021 0.950 . S
H1026 C1023 0.950 . S
C1027 C1018 1.390 . S
C1027 H1020 0.950 . S
C1027 C1024 1.387 . S
C1028 C1029 1.410 . S
C1028 H1032 0.950 . S
C1028 C1037 1.390 . S
C1029 C1028 1.410 . S
C1029 C1031 1.376 1_545 S
H1030 C1037 0.950 . S
C1031 C1029 1.376 1_565 S
C1031 C1033 1.390 . S
C1031 H1035 0.950 . S
H1032 C1028 0.950 . S
C1033 C1031 1.390 . S
C1033 C1034 1.387 1_565 S
C1033 H1036 0.950 . S
C1034 C1033 1.387 1_545 S
C1034 C1037 1.387 . S
H1035 C1031 0.950 . S
H1036 C1033 0.950 . S
C1037 C1028 1.390 . S
C1037 H1030 0.950 . S
C1037 C1034 1.387 . S
C1038 C1039 1.387 . S
C1038 H1042 0.950 . S
C1038 C1047 1.390 . S
C1039 C1038 1.387 . S
C1039 C1041 1.387 . S
H1040 C1047 0.950 . S
C1041 C1039 1.387 . S
C1041 C1043 1.390 1_545 S
C1041 H1045 0.950 1_545 S
H1042 C1038 0.950 . S
C1043 C1041 1.390 1_565 S
C1043 C1044 1.387 1_565 S
C1043 H1046 0.950 . S
C1044 C1043 1.387 1_545 S
C1044 C1047 1.387 . S
H1045 C1041 0.950 1_565 S
H1046 C1043 0.950 . S
C1047 C1038 1.390 . S
C1047 H1040 0.950 . S
C1047 C1044 1.387 . S
C1048 C1049 1.387 . S
C1048 H1052 0.950 . S
C1048 C1057 1.390 . S
C1049 C1048 1.387 . S
C1049 C1051 1.387 . S
H1050 C1057 0.950 . S
C1051 C1049 1.387 . S
C1051 C1053 1.390 . S
C1051 H1055 0.950 . S
H1052 C1048 0.950 . S
C1053 C1051 1.390 . S
C1053 C1054 1.387 . S
C1053 H1056 0.950 . S
C1054 C1053 1.387 . S
C1054 C1057 1.387 . S
H1055 C1051 0.950 . S
H1056 C1053 0.950 . S
C1057 C1048 1.390 . S
C1057 H1050 0.950 . S
C1057 C1054 1.387 . S
C1058 C1059 1.387 . S
C1058 H1062 0.950 . S
C1058 C1067 1.390 . S
C1059 C1058 1.387 . S
C1059 C1061 1.387 . S
H1060 C1067 0.950 . S
C1061 C1059 1.387 . S
C1061 C1063 1.390 . S
C1061 H1065 0.950 . S
H1062 C1058 0.950 . S
C1063 C1061 1.390 . S
C1063 C1064 1.387 . S
C1063 H1066 0.950 . S
C1064 C1063 1.387 . S
C1064 C1067 1.387 . S
H1065 C1061 0.950 . S
H1066 C1063 0.950 . S
C1067 C1058 1.390 . S
C1067 H1060 0.950 . S
C1067 C1064 1.387 . S
C1068 C1069 1.387 . S
C1068 H1072 0.950 . S
C1068 C1077 1.390 . S
C1069 C1068 1.387 . S
C1069 C1071 1.387 . S
H1070 C1077 0.950 . S
C1071 C1069 1.387 . S
C1071 C1073 1.390 . S
C1071 H1075 0.950 . S
H1072 C1068 0.950 . S
C1073 C1071 1.390 . S
C1073 C1074 1.387 . S
C1073 H1076 0.950 . S
C1074 C1073 1.387 . S
C1074 C1077 1.387 . S
H1075 C1071 0.950 . S
H1076 C1073 0.950 . S
C1077 C1068 1.390 . S
C1077 H1070 0.950 . S
C1077 C1074 1.387 . S
C1078 C1079 1.387 . S
C1078 H1082 0.950 . S
C1078 C1087 1.390 . S
C1079 C1078 1.387 . S
C1079 C1081 1.387 . S
H1080 C1087 0.950 . S
C1081 C1079 1.387 . S
C1081 C1083 1.390 . S
C1081 H1085 0.950 . S
H1082 C1078 0.950 . S
C1083 C1081 1.390 . S
C1083 C1084 1.387 . S
C1083 H1086 0.950 . S
C1084 C1083 1.387 . S
C1084 C1087 1.387 . S
H1085 C1081 0.950 . S
H1086 C1083 0.950 . S
C1087 C1078 1.390 . S
C1087 H1080 0.950 . S
C1087 C1084 1.387 . S
C1088 C1089 1.387 . S
C1088 H1092 0.950 . S
C1088 C1097 1.390 . S
C1089 C1088 1.387 . S
C1089 C1091 1.387 . S
H1090 C1097 0.950 . S
C1091 C1089 1.387 . S
C1091 C1093 1.390 . S
C1091 H1095 0.950 1_545 S
H1092 C1088 0.950 . S
C1093 C1091 1.390 . S
C1093 C1094 1.387 . S
C1093 H1096 0.950 . S
C1094 C1093 1.387 . S
C1094 C1097 1.387 . S
H1095 C1091 0.950 1_565 S
H1096 C1093 0.950 . S
C1097 C1088 1.390 . S
C1097 H1090 0.950 . S
C1097 C1094 1.387 . S
C1098 C1099 1.387 . S
C1098 H1102 0.950 . S
C1098 C1107 1.390 . S
C1099 C1098 1.387 . S
C1099 C1101 1.387 . S
H1100 C1107 0.950 . S
C1101 C1099 1.387 . S
C1101 C1103 1.390 . S
C1101 H1105 0.950 . S
H1102 C1098 0.950 . S
C1103 C1101 1.390 . S
C1103 C1104 1.387 . S
C1103 H1106 0.950 . S
C1104 C1103 1.387 . S
C1104 C1107 1.387 . S
H1105 C1101 0.950 . S
H1106 C1103 0.950 . S
C1107 C1098 1.390 . S
C1107 H1100 0.950 . S
C1107 C1104 1.387 . S
C1108 C1109 1.387 . S
C1108 H1112 0.950 . S
C1108 C1117 1.390 . S
C1109 C1108 1.387 . S
C1109 C1111 1.387 . S
H1110 C1117 0.950 . S
C1111 C1109 1.387 . S
C1111 C1113 1.390 1_455 S
C1111 H1115 0.950 1_455 S
H1112 C1108 0.950 . S
C1113 C1111 1.390 1_655 S
C1113 C1114 1.387 1_655 S
C1113 H1116 0.950 . S
C1114 C1113 1.387 1_455 S
C1114 C1117 1.387 . S
H1115 C1111 0.950 1_655 S
H1116 C1113 0.950 . S
C1117 C1108 1.390 . S
C1117 H1110 0.950 . S
C1117 C1114 1.387 . S
C1118 C1119 1.387 . S
C1118 H1122 0.950 . S
C1118 C1127 1.390 . S
C1119 C1118 1.387 . S
C1119 C1121 1.387 . S
H1120 C1127 0.950 . S
C1121 C1119 1.387 . S
C1121 C1123 1.390 . S
C1121 H1125 0.950 . S
H1122 C1118 0.950 . S
C1123 C1121 1.390 . S
C1123 C1124 1.387 . S
C1123 H1126 0.950 . S
C1124 C1123 1.387 . S
C1124 C1127 1.387 . S
H1125 C1121 0.950 . S
H1126 C1123 0.950 . S
C1127 C1118 1.390 . S
C1127 H1120 0.950 . S
C1127 C1124 1.387 . S
C1128 C1129 1.387 . S
C1128 H1132 0.950 . S
C1128 C1137 1.390 . S
C1129 C1128 1.387 . S
C1129 C1131 1.387 . S
H1130 C1137 0.950 . S
C1131 C1129 1.387 . S
C1131 C1133 1.390 . S
C1131 H1135 0.950 . S
H1132 C1128 0.950 . S
C1133 C1131 1.390 . S
C1133 C1134 1.387 . S
C1133 H1136 0.950 . S
C1134 C1133 1.387 . S
C1134 C1137 1.387 . S
H1135 C1131 0.950 . S
H1136 C1133 0.950 . S
C1137 C1128 1.390 . S
C1137 H1130 0.950 . S
C1137 C1134 1.387 . S
C1138 C1139 1.387 . S
C1138 H1142 0.950 . S
C1138 C1147 1.390 . S
C1139 C1138 1.387 . S
C1139 C1141 1.387 . S
H1140 C1147 0.950 . S
C1141 C1139 1.387 . S
C1141 C1143 1.390 . S
C1141 H1145 0.950 . S
H1142 C1138 0.950 . S
C1143 C1141 1.390 . S
C1143 C1144 1.387 . S
C1143 H1146 0.950 . S
C1144 C1143 1.387 . S
C1144 C1147 1.387 . S
H1145 C1141 0.950 . S
H1146 C1143 0.950 . S
C1147 C1138 1.390 . S
C1147 H1140 0.950 . S
C1147 C1144 1.387 . S
C1148 C1149 1.387 . S
C1148 H1152 0.950 . S
C1148 C1157 1.390 . S
C1149 C1148 1.387 . S
C1149 C1151 1.387 . S
H1150 C1157 0.950 . S
C1151 C1149 1.387 . S
C1151 C1153 1.390 . S
C1151 H1155 0.950 . S
H1152 C1148 0.950 . S
C1153 C1151 1.390 . S
C1153 C1154 1.387 . S
C1153 H1156 0.950 . S
C1154 C1153 1.387 . S
C1154 C1157 1.387 . S
H1155 C1151 0.950 . S
H1156 C1153 0.950 . S
C1157 C1148 1.390 . S
C1157 H1150 0.950 . S
C1157 C1154 1.387 . S
C1158 C1159 1.387 . S
C1158 H1162 0.950 . S
C1158 C1167 1.390 . S
C1159 C1158 1.387 . S
C1159 C1161 1.387 . S
H1160 C1167 0.950 . S
C1161 C1159 1.387 . S
C1161 C1163 1.390 . S
C1161 H1165 0.950 . S
H1162 C1158 0.950 . S
C1163 C1161 1.390 . S
C1163 C1164 1.387 1_556 S
C1163 H1166 0.950 . S
C1164 C1163 1.387 1_554 S
C1164 C1167 1.387 1_554 S
H1165 C1161 0.950 . S
H1166 C1163 0.950 . S
C1167 C1158 1.390 . S
C1167 H1160 0.950 . S
C1167 C1164 1.387 1_556 S
C1168 C1169 1.387 . S
C1168 H1172 0.950 . S
C1168 C1177 1.390 . S
C1169 C1168 1.387 . S
C1169 C1171 1.387 . S
H1170 C1177 0.950 . S
C1171 C1169 1.387 . S
C1171 C1173 1.390 . S
C1171 H1175 0.950 . S
H1172 C1168 0.950 . S
C1173 C1171 1.390 . S
C1173 C1174 1.387 . S
C1173 H1176 0.950 . S
C1174 C1173 1.387 . S
C1174 C1177 1.387 . S
H1175 C1171 0.950 . S
H1176 C1173 0.950 . S
C1177 C1168 1.390 . S
C1177 H1170 0.950 . S
C1177 C1174 1.387 . S
C1178 C1179 1.387 . S
C1178 H1182 0.950 . S
C1178 C1187 1.390 . S
C1179 C1178 1.387 . S
C1179 C1181 1.387 . S
H1180 C1187 0.950 . S
C1181 C1179 1.387 . S
C1181 C1183 1.390 1_556 S
C1181 H1185 0.950 . S
H1182 C1178 0.950 . S
C1183 C1181 1.390 1_554 S
C1183 C1184 1.387 . S
C1183 H1186 0.950 . S
C1184 C1183 1.387 . S
C1184 C1187 1.387 1_554 S
H1185 C1181 0.950 . S
H1186 C1183 0.950 . S
C1187 C1178 1.390 . S
C1187 H1180 0.950 . S
C1187 C1184 1.387 1_556 S
C1188 C1189 1.387 . S
C1188 H1192 0.950 . S
C1188 C1197 1.390 . S
C1189 C1188 1.387 . S
C1189 C1191 1.387 . S
H1190 C1197 0.950 . S
C1191 C1189 1.387 . S
C1191 C1193 1.390 . S
C1191 H1195 0.950 . S
H1192 C1188 0.950 . S
C1193 C1191 1.390 . S
C1193 C1194 1.387 . S
C1193 H1196 0.950 . S
C1194 C1193 1.387 . S
C1194 C1197 1.387 . S
H1195 C1191 0.950 . S
H1196 C1193 0.950 . S
C1197 C1188 1.390 . S
C1197 H1190 0.950 . S
C1197 C1194 1.387 . S
C1198 C1199 1.387 . S
C1198 H1202 0.950 . S
C1198 C1207 1.390 . S
C1199 C1198 1.387 . S
C1199 C1201 1.387 . S
H1200 C1207 0.950 . S
C1201 C1199 1.387 . S
C1201 C1203 1.390 . S
C1201 H1205 0.950 . S
H1202 C1198 0.950 . S
C1203 C1201 1.390 . S
C1203 C1204 1.387 . S
C1203 H1206 0.950 . S
C1204 C1203 1.387 . S
C1204 C1207 1.387 . S
H1205 C1201 0.950 . S
H1206 C1203 0.950 . S
C1207 C1198 1.390 . S
C1207 H1200 0.950 . S
C1207 C1204 1.387 . S
C1208 C1209 1.387 . S
C1208 H1212 0.950 . S
C1208 C1217 1.390 . S
C1209 C1208 1.387 . S
C1209 C1211 1.387 . S
H1210 C1217 0.950 . S
C1211 C1209 1.387 . S
C1211 C1213 1.390 . S
C1211 H1215 0.950 . S
H1212 C1208 0.950 . S
C1213 C1211 1.390 . S
C1213 C1214 1.387 . S
C1213 H1216 0.950 . S
C1214 C1213 1.387 . S
C1214 C1217 1.387 . S
H1215 C1211 0.950 . S
H1216 C1213 0.950 . S
C1217 C1208 1.390 . S
C1217 H1210 0.950 . S
C1217 C1214 1.387 . S
C1218 C1219 1.387 . S
C1218 H1222 0.950 . S
C1218 C1227 1.390 . S
C1219 C1218 1.387 . S
C1219 C1221 1.387 . S
H1220 C1227 0.950 . S
C1221 C1219 1.387 . S
C1221 C1223 1.390 . S
C1221 H1225 0.950 . S
H1222 C1218 0.950 . S
C1223 C1221 1.390 . S
C1223 C1224 1.387 . S
C1223 H1226 0.950 . S
C1224 C1223 1.387 . S
C1224 C1227 1.387 . S
H1225 C1221 0.950 . S
H1226 C1223 0.950 . S
C1227 C1218 1.390 . S
C1227 H1220 0.950 . S
C1227 C1224 1.387 . S
C1228 C1229 1.387 . S
C1228 H1232 0.950 . S
C1228 C1237 1.390 . S
C1229 C1228 1.387 . S
C1229 C1231 1.387 . S
H1230 C1237 0.950 . S
C1231 C1229 1.387 . S
C1231 C1233 1.390 . S
C1231 H1235 0.950 . S
H1232 C1228 0.950 . S
C1233 C1231 1.390 . S
C1233 C1234 1.387 . S
C1233 H1236 0.950 . S
C1234 C1233 1.387 . S
C1234 C1237 1.387 . S
H1235 C1231 0.950 . S
H1236 C1233 0.950 . S
C1237 C1228 1.390 . S
C1237 H1230 0.950 . S
C1237 C1234 1.387 . S
C1238 C1239 1.387 . S
C1238 H1242 0.950 . S
C1238 C1247 1.390 . S
C1239 C1238 1.387 . S
C1239 C1241 1.387 . S
H1240 C1247 0.950 . S
C1241 C1239 1.387 . S
C1241 C1243 1.390 . S
C1241 H1245 0.950 . S
H1242 C1238 0.950 . S
C1243 C1241 1.390 . S
C1243 C1244 1.387 . S
C1243 H1246 0.950 . S
C1244 C1243 1.387 . S
C1244 C1247 1.387 . S
H1245 C1241 0.950 . S
H1246 C1243 0.950 . S
C1247 C1238 1.390 . S
C1247 H1240 0.950 . S
C1247 C1244 1.387 . S
C1248 C1249 1.387 . S
C1248 H1252 0.950 . S
C1248 C1257 1.390 . S
C1249 C1248 1.387 . S
C1249 C1251 1.387 . S
H1250 C1257 0.950 . S
C1251 C1249 1.387 . S
C1251 C1253 1.390 . S
C1251 H1255 0.950 . S
H1252 C1248 0.950 . S
C1253 C1251 1.390 . S
C1253 C1254 1.387 . S
C1253 H1256 0.950 . S
C1254 C1253 1.387 . S
C1254 C1257 1.387 . S
H1255 C1251 0.950 . S
H1256 C1253 0.950 . S
C1257 C1248 1.390 . S
C1257 H1250 0.950 . S
C1257 C1254 1.387 . S
C1258 C1259 1.387 . S
C1258 H1262 0.950 . S
C1258 C1267 1.390 . S
C1259 C1258 1.387 . S
C1259 C1261 1.387 . S
H1260 C1267 0.950 . S
C1261 C1259 1.387 . S
C1261 C1263 1.390 . S
C1261 H1265 0.950 . S
H1262 C1258 0.950 . S
C1263 C1261 1.390 . S
C1263 C1264 1.387 . S
C1263 H1266 0.950 . S
C1264 C1263 1.387 . S
C1264 C1267 1.387 . S
H1265 C1261 0.950 . S
H1266 C1263 0.950 . S
C1267 C1258 1.390 . S
C1267 H1260 0.950 . S
C1267 C1264 1.387 . S
C1268 C1269 1.387 . S
C1268 H1272 0.950 . S
C1268 C1277 1.390 . S
C1269 C1268 1.387 . S
C1269 C1271 1.387 . S
H1270 C1277 0.950 . S
C1271 C1269 1.387 . S
C1271 C1273 1.390 . S
C1271 H1275 0.950 . S
H1272 C1268 0.950 . S
C1273 C1271 1.390 . S
C1273 C1274 1.387 . S
C1273 H1276 0.950 . S
C1274 C1273 1.387 . S
C1274 C1277 1.387 . S
H1275 C1271 0.950 . S
H1276 C1273 0.950 . S
C1277 C1268 1.390 . S
C1277 H1270 0.950 . S
C1277 C1274 1.387 . S
C1278 C1279 1.387 . S
C1278 H1282 0.950 . S
C1278 C1287 1.390 . S
C1279 C1278 1.387 . S
C1279 C1281 1.387 . S
H1280 C1287 0.950 . S
C1281 C1279 1.387 . S
C1281 C1283 1.390 . S
C1281 H1285 0.950 . S
H1282 C1278 0.950 . S
C1283 C1281 1.390 . S
C1283 C1284 1.387 . S
C1283 H1286 0.950 . S
C1284 C1283 1.387 . S
C1284 C1287 1.387 . S
H1285 C1281 0.950 . S
H1286 C1283 0.950 . S
C1287 C1278 1.390 . S
C1287 H1280 0.950 . S
C1287 C1284 1.387 . S
C1288 C1289 1.387 . S
C1288 H1292 0.950 . S
C1288 C1297 1.390 . S
C1289 C1288 1.387 . S
C1289 C1291 1.387 . S
H1290 C1297 0.950 . S
C1291 C1289 1.387 . S
C1291 C1293 1.390 . S
C1291 H1295 0.950 . S
H1292 C1288 0.950 . S
C1293 C1291 1.390 . S
C1293 C1294 1.387 . S
C1293 H1296 0.950 . S
C1294 C1293 1.387 . S
C1294 C1297 1.387 . S
H1295 C1291 0.950 . S
H1296 C1293 0.950 . S
C1297 C1288 1.390 . S
C1297 H1290 0.950 . S
C1297 C1294 1.387 . S
C1298 C1299 1.387 . S
C1298 H1302 0.950 . S
C1298 C1307 1.390 . S
C1299 C1298 1.387 . S
C1299 C1301 1.387 . S
H1300 C1307 0.950 . S
C1301 C1299 1.387 . S
C1301 C1303 1.390 . S
C1301 H1305 0.950 . S
H1302 C1298 0.950 . S
C1303 C1301 1.390 . S
C1303 C1304 1.387 . S
C1303 H1306 0.950 . S
C1304 C1303 1.387 . S
C1304 C1307 1.387 . S
H1305 C1301 0.950 . S
H1306 C1303 0.950 . S
C1307 C1298 1.390 . S
C1307 H1300 0.950 . S
C1307 C1304 1.387 . S
C1308 C1309 1.387 . S
C1308 H1312 0.950 . S
C1308 C1317 1.390 . S
C1309 C1308 1.387 . S
C1309 C1311 1.387 . S
H1310 C1317 0.950 . S
C1311 C1309 1.387 . S
C1311 C1313 1.390 . S
C1311 H1315 0.950 . S
H1312 C1308 0.950 . S
C1313 C1311 1.390 . S
C1313 C1314 1.387 . S
C1313 H1316 0.950 . S
C1314 C1313 1.387 . S
C1314 C1317 1.387 . S
H1315 C1311 0.950 . S
H1316 C1313 0.950 . S
C1317 C1308 1.390 . S
C1317 H1310 0.950 . S
C1317 C1314 1.387 . S
C1318 C1319 1.387 . S
C1318 H1322 0.950 . S
C1318 C1327 1.390 . S
C1319 C1318 1.387 . S
C1319 C1321 1.387 . S
H1320 C1327 0.950 . S
C1321 C1319 1.387 . S
C1321 C1323 1.390 . S
C1321 H1325 0.950 . S
H1322 C1318 0.950 . S
C1323 C1321 1.390 . S
C1323 C1324 1.387 . S
C1323 H1326 0.950 . S
C1324 C1323 1.387 . S
C1324 C1327 1.387 . S
H1325 C1321 0.950 . S
H1326 C1323 0.950 . S
C1327 C1318 1.390 . S
C1327 H1320 0.950 . S
C1327 C1324 1.387 . S
C1328 C1329 1.387 . S
C1328 H1332 0.950 . S
C1328 C1337 1.390 . S
C1329 C1328 1.387 . S
C1329 C1331 1.387 . S
H1330 C1337 0.950 . S
C1331 C1329 1.387 . S
C1331 C1333 1.390 . S
C1331 H1335 0.950 . S
H1332 C1328 0.950 . S
C1333 C1331 1.390 . S
C1333 C1334 1.387 . S
C1333 H1336 0.950 . S
C1334 C1333 1.387 . S
C1334 C1337 1.387 . S
H1335 C1331 0.950 . S
H1336 C1333 0.950 . S
C1337 C1328 1.390 . S
C1337 H1330 0.950 . S
C1337 C1334 1.387 . S
C1338 C1339 1.387 . S
C1338 H1342 0.950 . S
C1338 C1347 1.390 1_554 S
C1339 C1338 1.387 . S
C1339 C1341 1.387 . S
H1340 C1347 0.950 . S
C1341 C1339 1.387 . S
C1341 C1343 1.392 1_554 S
C1341 H1345 0.950 . S
H1342 C1338 0.950 . S
C1343 C1341 1.392 1_556 S
C1343 C1344 1.386 . S
C1343 H1346 0.949 . S
C1344 C1343 1.386 . S
C1344 C1347 1.387 . S
H1345 C1341 0.950 . S
H1346 C1343 0.949 . S
C1347 C1338 1.390 1_556 S
C1347 H1340 0.950 . S
C1347 C1344 1.387 . S
C1348 C1349 1.387 . S
C1348 H1352 0.950 . S
C1348 C1357 1.390 . S
C1349 C1348 1.387 . S
C1349 C1351 1.387 . S
H1350 C1357 0.950 . S
C1351 C1349 1.387 . S
C1351 C1353 1.390 . S
C1351 H1355 0.950 . S
H1352 C1348 0.950 . S
C1353 C1351 1.390 . S
C1353 C1354 1.387 . S
C1353 H1356 0.950 . S
C1354 C1353 1.387 . S
C1354 C1357 1.387 . S
H1355 C1351 0.950 . S
H1356 C1353 0.950 . S
C1357 C1348 1.390 . S
C1357 H1350 0.950 . S
C1357 C1354 1.387 . S
C1358 C1359 1.387 . S
C1358 H1362 0.950 . S
C1358 C1367 1.390 . S
C1359 C1358 1.387 . S
C1359 C1361 1.387 . S
H1360 C1367 0.950 . S
C1361 C1359 1.387 . S
C1361 C1363 1.390 . S
C1361 H1365 0.950 . S
H1362 C1358 0.950 . S
C1363 C1361 1.390 . S
C1363 C1364 1.387 . S
C1363 H1366 0.950 . S
C1364 C1363 1.387 . S
C1364 C1367 1.387 . S
H1365 C1361 0.950 . S
H1366 C1363 0.950 . S
C1367 C1358 1.390 . S
C1367 H1360 0.950 . S
C1367 C1364 1.387 . S
C649 C7 1.368 . S
C654 C565 1.351 . S
C664 C536 1.731 . S
C659 C39 1.782 . S
C674 C552 1.531 . S
C669 C62 1.567 . S
C679 C76 1.754 . S
C684 C617 1.663 . S
C689 C108 1.379 . S
C694 C627 1.344 . S
C699 N117 1.295 . S
C704 C640 1.258 . S
C714 C596 1.362 1_455 S
C709 C16 1.376 . S
C719 C30 1.822 . S
C724 C575 1.774 . S
C734 C593 1.541 . S
C729 C53 1.528 . S
C739 C85 1.800 . S
C744 C502 1.791 1_545 S
C754 C510 1.595 . S
C749 C99 1.621 . S
C759 N127 1.224 . S
C764 C526 1.230 . S
C769 N150 1.124 . S
C774 C643 1.131 . S
C784 C614 1.493 . S
C779 N173 1.509 . S
C794 C630 1.393 . S
C789 C200 1.405 . S
C799 C214 1.561 . S
C804 C461 1.511 . S
C809 N232 1.448 . S
C814 C471 1.419 . S
C819 C260 1.400 . S
C824 C484 1.363 . S
C834 C440 1.226 . S
C829 N140 1.193 . S
C839 N163 1.263 . S
C844 C419 1.278 . S
C854 C437 1.625 . S
C849 C191 1.615 . S
C864 C580 1.890 . S
C859 C223 1.888 . S
C874 C588 1.422 . S
C869 N242 1.368 . S
C884 C604 1.403 . S
C879 C269 1.456 . S
C889 N288 1.282 . S
C894 C487 1.297 . S
C899 C315 1.496 . S
C904 C458 1.477 . S
C909 C338 1.631 . S
C914 C474 1.586 . S
C919 C352 1.751 . S
C924 C539 1.679 . S
C934 C549 1.472 . S
C929 N370 1.499 . S
C944 C562 1.442 . S
C939 C398 1.458 . S
C954 C518 1.186 . S
C949 N278 1.139 . S
C959 C306 1.736 . S
C964 C497 1.683 . S
C969 C329 1.618 . S
C974 C515 1.627 1_655 S
C984 C424 1.543 . S
C979 C361 1.533 . S
C989 N380 1.409 . S
C994 C432 1.452 . S
C1004 C448 1.362 . S
C999 C407 1.414 . S
C1014 C453 1.415 . S
C1009 N12 1.407 . S
C1019 N25 1.566 . S
C1024 C476 1.583 . S
C1034 C489 1.318 . S
C1029 N48 1.286 1_545 S
C1044 C479 1.307 . S
C1039 N81 1.317 . S
C1054 C463 1.540 . S
C1049 N94 1.531 . S
C1064 C466 1.465 . S
C1059 C131 1.486 . S
C1074 C414 1.387 . S
C1069 N2 1.394 . S
C1079 N35 1.455 . S
C1084 C435 1.430 . S
C1089 N58 1.274 . S
C1094 C445 1.302 . S
C1104 C450 1.293 . S
C1099 N71 1.261 . S
C1114 C422 1.321 . S
C1109 N104 1.355 . S
C1124 C427 1.492 . S
C1119 C122 1.530 . S
C1129 C145 2.014 . S
C1134 C531 1.978 . S
C1139 C168 1.724 . S
C1144 C554 1.750 . S
C1149 N186 1.404 . S
C1154 C567 1.411 . S
C1164 C557 1.243 . S
C1159 N219 1.267 . S
C1174 C541 1.781 1_556 S
C1169 C246 1.781 . S
C1184 C544 1.398 . S
C1179 N265 1.394 . S
C1194 C492 1.852 . S
C1189 C154 1.884 . S
C1199 C177 1.789 . S
C1204 C513 1.765 . S
C1209 N196 1.215 . S
C1214 C523 1.224 . S
C1219 N209 1.101 . S
C1224 C528 1.144 . S
C1229 C237 1.822 . S
C1234 C500 1.760 . S
C1244 C505 1.346 . S
C1239 N255 1.353 . S
C1249 C283 1.741 . S
C1254 C609 1.720 . S
C1259 N301 1.442 . S
C1264 C632 1.449 . S
C1269 N324 1.313 . S
C1274 C645 1.326 . S
C1284 C635 1.129 . S
C1279 N357 1.113 . S
C1294 C619 1.790 . S
C1289 C384 1.797 . S
C1299 N403 1.242 . S
C1304 C622 1.233 . S
C1309 C292 1.824 . S
C1314 C570 1.777 . S
C1324 C591 1.309 . S
C1319 N311 1.343 . S
C1329 N334 1.347 . S
C1334 C601 1.370 . S
C1339 N347 1.318 . S
C1344 C606 1.336 . S
C1354 C578 1.822 1_554 S
C1349 C375 1.878 . S
C1359 N393 1.298 . S
C1364 C583 1.307 1_554 S
