# Generated by pormake.
# Topology nia, (6,6)-cn, num edge types: 1
# Building blocks:
#     Node 0, Type 0, BuildingBlock: MIFKUJ_clean_sbu_0, # of connection points: 6
#     Node 1, Type 0, BuildingBlock: MIFKUJ_clean_sbu_0, # of connection points: 6
#     Node 2, Type 1, BuildingBlock: MIDCAF_clean_sbu_0, # of connection points: 6
#     Node 3, Type 1, BuildingBlock: MIDCAF_clean_sbu_0, # of connection points: 6
#     Edge 4, Type (0, 1), BuildingBlock: FUNLAD_clean_linker_1, # of connection points: 2
#     Edge 5, Type (0, 1), BuildingBlock: FUNLAD_clean_linker_1, # of connection points: 2
#     Edge 6, Type (0, 1), BuildingBlock: FUNLAD_clean_linker_1, # of connection points: 2
#     Edge 7, Type (0, 1), BuildingBlock: FUNLAD_clean_linker_1, # of connection points: 2
#     Edge 8, Type (0, 1), BuildingBlock: FUNLAD_clean_linker_1, # of connection points: 2
#     Edge 9, Type (0, 1), BuildingBlock: FUNLAD_clean_linker_1, # of connection points: 2
#     Edge 10, Type (0, 1), BuildingBlock: FUNLAD_clean_linker_1, # of connection points: 2
#     Edge 11, Type (0, 1), BuildingBlock: FUNLAD_clean_linker_1, # of connection points: 2
#     Edge 12, Type (0, 1), BuildingBlock: FUNLAD_clean_linker_1, # of connection points: 2
#     Edge 13, Type (0, 1), BuildingBlock: FUNLAD_clean_linker_1, # of connection points: 2
#     Edge 14, Type (0, 1), BuildingBlock: FUNLAD_clean_linker_1, # of connection points: 2
#     Edge 15, Type (0, 1), BuildingBlock: FUNLAD_clean_linker_1, # of connection points: 2
# Relax obj value: 0.171
# Max RMSD: 0.250
# Mean RMSD: 0.183
data_MOF--net-nia--node1-MIFKUJ_clean_sbu_0--node2-MIDCAF_clean_sbu_0--edge1-FUNLAD_clean_linker_1
_symmetry_space_group_name_H-M    P1
_symmetry_Int_Tables_number       1
_symmetry_cell_setting            triclinic
loop_
_symmetry_equiv_pos_as_xyz
'x, y, z'
_cell_length_a     25.932484
_cell_length_b     25.934233
_cell_length_c     32.974083
_cell_angle_alpha  88.641484
_cell_angle_beta   88.6792
_cell_angle_gamma 127.3861
loop_
_atom_site_label
_atom_site_type_symbol
_atom_site_fract_x
_atom_site_fract_y
_atom_site_fract_z
_atom_type_partial_charge
Zn0 Zn 0.04845 0.96199 0.02791 0.0
Zn1 Zn 0.00161 0.03971 0.99018 0.0
C2 C 0.96639 0.84589 0.98205 0.0
O3 O 0.96367 0.81535 0.01537 0.0
C4 C 0.0955 0.14573 0.04453 0.0
O5 O 0.1424 0.15379 0.02194 0.0
O6 O 0.08174 0.91962 0.05798 0.0
O7 O 0.12769 0.04363 1.00031 0.0
O8 O 0.07083 0.04944 0.95422 0.0
C9 C 0.10712 0.93773 0.09225 0.0
O10 O 0.11078 0.98472 0.10984 0.0
O11 O -0.00163 0.90707 0.98101 0.0
C12 C 0.90427 0.05172 0.96595 0.0
O13 O 0.87907 0.02436 1.00223 0.0
O14 O 0.95764 0.06384 0.95388 0.0
O15 O 0.9303 0.95085 0.01355 0.0
O16 O 0.98551 0.9617 0.06641 0.0
O17 O 0.03665 0.10282 0.03613 0.0
C18 C 0.12263 0.05878 0.9644 0.0
C19 C 0.93181 0.94109 0.05118 0.0
Zn20 Zn 0.06514 0.9897 0.48598 0.0
Zn21 Zn 0.99483 0.0216 0.54008 0.0
C22 C 0.19318 0.07758 0.51789 0.0
O23 O 0.21139 0.09323 0.47929 0.0
C24 C 0.87473 0.92554 0.50442 0.0
O25 O 0.85609 0.90629 0.54268 0.0
O26 O 0.0965 0.96066 0.44204 0.0
O27 O 0.98713 0.90835 0.51436 0.0
O28 O 0.00173 0.95808 0.57098 0.0
C29 C 0.10819 0.92073 0.45024 0.0
O30 O 0.10076 0.89898 0.48798 0.0
O31 O 0.13342 0.03501 0.52797 0.0
C32 C 0.97874 0.09493 0.59836 0.0
O33 O 0.04245 0.1328 0.59899 0.0
O34 O 0.94975 0.04557 0.57674 0.0
O35 O 0.075 0.10473 0.51472 0.0
O36 O 0.05698 0.05452 0.45808 0.0
O37 O 0.933 0.97421 0.49536 0.0
C38 C 0.98171 0.90664 0.55286 0.0
C39 C 0.07753 0.10602 0.47618 0.0
Zn40 Zn 0.37586 0.68926 0.18727 0.0
Zn41 Zn 0.37134 0.66455 0.34921 0.0
Zn42 Zn 0.3737 0.67764 0.26914 0.0
C43 C 0.49999 0.73288 0.32325 0.0
C44 C 0.28966 0.53971 0.32133 0.0
O45 O 0.3351 0.73185 0.25243 0.0
O46 O 0.3388 0.73704 0.18516 0.0
C47 C 0.50389 0.74764 0.21064 0.0
O48 O 0.47476 0.72755 0.28889 0.0
O49 O 0.46415 0.70685 0.35525 0.0
O50 O 0.30924 0.56856 0.3542 0.0
O51 O 0.30928 0.57263 0.28714 0.0
O52 O 0.4719 0.73707 0.17943 0.0
O53 O 0.4752 0.72966 0.24623 0.0
O54 O 0.31758 0.57929 0.24478 0.0
O55 O 0.31774 0.59457 0.17841 0.0
C56 C 0.3007 0.55664 0.20917 0.0
O57 O 0.33148 0.72351 0.29524 0.0
O58 O 0.34042 0.71611 0.36145 0.0
C59 C 0.32497 0.74973 0.2186 0.0
C60 C 0.32402 0.73448 0.33207 0.0
Zn61 Zn 0.69513 0.33307 0.84036 0.0
Zn62 Zn 0.69198 0.33931 0.6839 0.0
Zn63 Zn 0.68667 0.33579 0.7651 0.0
C64 C 0.75878 0.46766 0.7086 0.0
C65 C 0.5599 0.26629 0.71174 0.0
O66 O 0.72495 0.28181 0.78334 0.0
O67 O 0.70679 0.26585 0.84981 0.0
C68 C 0.77744 0.46058 0.81929 0.0
O69 O 0.74288 0.43863 0.74399 0.0
O70 O 0.74215 0.43533 0.677 0.0
O71 O 0.59635 0.28395 0.68009 0.0
O72 O 0.58454 0.28165 0.74694 0.0
O73 O 0.77105 0.42349 0.84766 0.0
O74 O 0.74615 0.43677 0.78662 0.0
O75 O 0.5856 0.28264 0.79013 0.0
O76 O 0.6087 0.31002 0.85386 0.0
C77 C 0.56772 0.28362 0.82671 0.0
O78 O 0.73658 0.2957 0.74164 0.0
O79 O 0.73835 0.30149 0.67445 0.0
C80 C 0.7253 0.25608 0.81719 0.0
C81 C 0.75314 0.28706 0.70672 0.0
H82 H 0.13529 0.87297 0.09285 0.0
C83 C 0.13615 0.90863 0.11018 0.0
H84 H 0.16591 0.96048 0.16416 0.0
H85 H 0.17576 0.73592 0.24082 0.0
H86 H 0.08336 0.71467 0.27929 0.0
H87 H 0.0438 0.77856 0.26481 0.0
H88 H 0.09534 0.86297 0.21075 0.0
C89 C 0.16556 0.92611 0.14573 0.0
C90 C 0.19816 0.89822 0.16051 0.0
C91 C 0.16967 0.85147 0.19342 0.0
C92 C 0.19418 0.81633 0.20283 0.0
C93 C 0.16128 0.76614 0.23363 0.0
C94 C 0.10781 0.7531 0.25576 0.0
C95 C 0.08531 0.78888 0.24747 0.0
C96 C 0.1153 0.83714 0.21642 0.0
H97 H 0.30223 0.81251 0.24444 0.0
C98 C 0.29794 0.78614 0.21812 0.0
H99 H 0.26672 0.76262 0.15835 0.0
H100 H 0.27158 0.99388 0.10104 0.0
H101 H 0.36815 0.02023 0.06511 0.0
H102 H 0.41196 0.96082 0.08195 0.0
H103 H 0.35952 0.87479 0.13477 0.0
C104 C 0.2698 0.78819 0.18496 0.0
C105 C 0.24897 0.83026 0.1803 0.0
C106 C 0.28064 0.88095 0.14964 0.0
C107 C 0.25528 0.91499 0.13977 0.0
C108 C 0.28803 0.96553 0.10912 0.0
C109 C 0.34378 0.98147 0.08846 0.0
C110 C 0.36845 0.94805 0.09795 0.0
C111 C 0.33762 0.8985 0.12821 0.0
H112 H 0.29322 0.14255 0.53813 0.0
C113 C 0.24263 0.10843 0.54881 0.0
H114 H 0.17779 0.06006 0.60015 0.0
H115 H 0.40081 0.09244 0.70225 0.0
H116 H 0.31888 0.97496 0.70387 0.0
H117 H 0.21843 0.92506 0.66668 0.0
H118 H 0.19914 0.99197 0.62767 0.0
C119 C 0.22793 0.09532 0.589 0.0
C120 C 0.28058 0.1249 0.61857 0.0
C121 C 0.28999 0.0849 0.64204 0.0
C122 C 0.34802 0.11355 0.66338 0.0
C123 C 0.35763 0.07279 0.68541 0.0
C124 C 0.31098 0.00548 0.68665 0.0
C125 C 0.25438 0.97739 0.66573 0.0
C126 C 0.24389 0.01636 0.64345 0.0
H127 H 0.45827 0.22308 0.73284 0.0
C128 C 0.48922 0.23045 0.70707 0.0
H129 H 0.49518 0.21828 0.64442 0.0
H130 H 0.26816 0.21516 0.58699 0.0
H131 H 0.34721 0.33254 0.58908 0.0
H132 H 0.44937 0.38197 0.62423 0.0
H133 H 0.47269 0.31424 0.65798 0.0
C134 C 0.46413 0.2103 0.67036 0.0
C135 C 0.39605 0.18179 0.66122 0.0
C136 C 0.38299 0.22181 0.6419 0.0
C137 C 0.32482 0.19337 0.62091 0.0
C138 C 0.31261 0.23448 0.60226 0.0
C139 C 0.35732 0.30181 0.60351 0.0
C140 C 0.41481 0.32964 0.62335 0.0
C141 C 0.42776 0.29033 0.64239 0.0
H142 H 0.07219 0.1932 0.08798 0.0
C143 C 0.11071 0.19149 0.07642 0.0
H144 H 0.21032 0.2335 0.07672 0.0
H145 H 0.30023 0.5149 0.10593 0.0
H146 H 0.33933 0.5258 0.03665 0.0
H147 H 0.30985 0.42983 1.00041 0.0
H148 H 0.24177 0.32257 0.03352 0.0
C149 C 0.17144 0.23431 0.08873 0.0
C150 C 0.18981 0.29154 0.11173 0.0
C151 C 0.22892 0.35389 0.09167 0.0
C152 C 0.24419 0.40886 0.11214 0.0
C153 C 0.28506 0.4709 0.0916 0.0
C154 C 0.30836 0.47806 0.05179 0.0
C155 C 0.29191 0.42409 0.03144 0.0
C156 C 0.25276 0.36269 0.05094 0.0
H157 H 0.28103 0.46188 0.22137 0.0
C158 C 0.26782 0.48718 0.20294 0.0
H159 H 0.21817 0.48573 0.15317 0.0
H160 H 0.12283 0.18092 0.16077 0.0
H161 H 0.08443 0.16968 0.23077 0.0
H162 H 0.1046 0.26356 0.265 0.0
H163 H 0.16372 0.36927 0.22977 0.0
C164 C 0.23042 0.45902 0.17102 0.0
C165 C 0.21905 0.4013 0.15242 0.0
C166 C 0.18182 0.33926 0.17305 0.0
C167 C 0.16812 0.28448 0.15282 0.0
C168 C 0.13305 0.22359 0.17444 0.0
C169 C 0.11094 0.21655 0.21461 0.0
C170 C 0.12242 0.26946 0.23392 0.0
C171 C 0.15693 0.33008 0.21343 0.0
H172 H 0.8883 0.08141 0.61468 0.0
C173 C 0.94044 0.11259 0.61853 0.0
H174 H 0.02017 0.20098 0.64069 0.0
H175 H 0.88093 0.33231 0.61912 0.0
H176 H 0.96892 0.39183 0.56781 0.0
H177 H 0.03917 0.35958 0.55304 0.0
H178 H 0.02246 0.26828 0.58991 0.0
C179 C 0.96784 0.16792 0.63803 0.0
C180 C 0.92878 0.19028 0.64984 0.0
C181 C 0.93933 0.24393 0.62803 0.0
C182 C 0.89787 0.26156 0.63589 0.0
C183 C 0.90999 0.31581 0.61386 0.0
C184 C 0.96054 0.35064 0.58439 0.0
C185 C 0.00017 0.33258 0.57613 0.0
C186 C 0.98998 0.27998 0.59759 0.0
H187 H 0.81898 0.2674 0.73061 0.0
C188 C 0.79263 0.26358 0.70433 0.0
H189 H 0.7742 0.23858 0.64322 0.0
H190 H 0.90218 0.09203 0.70143 0.0
H191 H 0.81266 0.03057 0.75197 0.0
H192 H 0.7352 0.05512 0.76172 0.0
H193 H 0.74782 0.14245 0.72243 0.0
C194 C 0.799 0.24067 0.66998 0.0
C195 C 0.84537 0.22505 0.6652 0.0
C196 C 0.83588 0.17239 0.68784 0.0
C197 C 0.8786 0.15599 0.68073 0.0
C198 C 0.86977 0.10498 0.70474 0.0
C199 C 0.81885 0.06957 0.73394 0.0
C200 C 0.77546 0.08366 0.73963 0.0
C201 C 0.7835 0.13426 0.71692 0.0
H202 H 0.82742 0.8916 0.05978 0.0
C203 C 0.87074 0.90799 0.07592 0.0
H204 H 0.90831 0.91639 0.13371 0.0
H205 H 0.67144 0.90447 0.20995 0.0
H206 H 0.76503 0.00907 0.23058 0.0
H207 H 0.87619 0.05002 0.20919 0.0
H208 H 0.8944 0.98637 0.16712 0.0
C209 C 0.86563 0.89841 0.11648 0.0
C210 C 0.80125 0.8673 0.13809 0.0
C211 C 0.79158 0.90424 0.16363 0.0
C212 C 0.72738 0.88038 0.17617 0.0
C213 C 0.719 0.91962 0.20009 0.0
C214 C 0.77235 0.97994 0.21201 0.0
C215 C 0.83495 0.00302 0.19995 0.0
C216 C 0.84474 0.96603 0.1758 0.0
H217 H 0.59861 0.77843 0.23239 0.0
C218 C 0.57371 0.77707 0.20602 0.0
H219 H 0.58084 0.79482 0.14263 0.0
H220 H 0.8044 0.77764 0.09871 0.0
H221 H 0.71129 0.67005 0.08125 0.0
H222 H 0.59983 0.62957 0.10139 0.0
H223 H 0.58083 0.69612 0.13934 0.0
C224 C 0.60593 0.79845 0.16963 0.0
C225 C 0.67328 0.81934 0.1634 0.0
C226 C 0.68348 0.77986 0.14121 0.0
C227 C 0.74754 0.8035 0.12903 0.0
C228 C 0.75648 0.7626 0.1076 0.0
C229 C 0.70355 0.70063 0.0977 0.0
C230 C 0.64081 0.67782 0.10907 0.0
C231 C 0.63059 0.71666 0.13067 0.0
H232 H 0.92857 0.80092 0.5581 0.0
C233 C 0.94897 0.84391 0.57558 0.0
H234 H 0.96416 0.87971 0.63467 0.0
H235 H 0.7134 0.56307 0.64978 0.0
H236 H 0.65315 0.59719 0.62002 0.0
H237 H 0.70817 0.71198 0.59863 0.0
H238 H 0.82384 0.79326 0.60678 0.0
C239 C 0.94256 0.83751 0.61632 0.0
C240 C 0.90722 0.77196 0.6368 0.0
C241 C 0.83941 0.72549 0.63278 0.0
C242 C 0.80771 0.65956 0.6454 0.0
C243 C 0.74006 0.61381 0.64038 0.0
C244 C 0.70484 0.63278 0.62353 0.0
C245 C 0.73582 0.69739 0.61147 0.0
C246 C 0.80227 0.74345 0.61606 0.0
H247 H 0.80821 0.56631 0.73179 0.0
C248 C 0.7957 0.53894 0.70462 0.0
H249 H 0.79853 0.54275 0.64053 0.0
H250 H 0.03528 0.85134 0.65486 0.0
H251 H 0.09507 0.81828 0.68697 0.0
H252 H 0.04074 0.7034 0.70761 0.0
H253 H 0.9263 0.62106 0.69695 0.0
C254 C 0.81263 0.57002 0.66792 0.0
C255 C 0.84374 0.64042 0.66241 0.0
C256 C 0.91052 0.68788 0.66949 0.0
C257 C 0.94216 0.754 0.65698 0.0
C258 C 0.0091 0.80045 0.66363 0.0
C259 C 0.04393 0.78213 0.68199 0.0
C260 C 0.01331 0.71744 0.69365 0.0
C261 C 0.94747 0.67063 0.68746 0.0
H262 H 0.13287 0.9166 0.38633 0.0
C263 C 0.12982 0.89935 0.41731 0.0
H264 H 0.1416 0.84116 0.45547 0.0
H265 H 0.13083 0.65603 0.33521 0.0
H266 H 0.02394 0.58373 0.36892 0.0
H267 H 0.98078 0.6267 0.41263 0.0
H268 H 0.04466 0.74226 0.42324 0.0
C269 C 0.14653 0.86026 0.42475 0.0
C270 C 0.16743 0.83727 0.39187 0.0
C271 C 0.12876 0.7699 0.38497 0.0
C272 C 0.15318 0.74524 0.35925 0.0
C273 C 0.11456 0.67743 0.35425 0.0
C274 C 0.05301 0.63538 0.37334 0.0
C275 C 0.02873 0.65957 0.39797 0.0
C276 C 0.06597 0.72595 0.4039 0.0
H277 H 0.31421 0.79726 0.369 0.0
C278 C 0.29767 0.7696 0.3417 0.0
H279 H 0.22668 0.7285 0.29788 0.0
H280 H 0.25386 0.97015 0.3963 0.0
H281 H 0.35576 0.04261 0.35744 0.0
H282 H 0.39375 -0.00012 0.30899 0.0
H283 H 0.33022 0.88383 0.29993 0.0
C284 C 0.2483 0.76139 0.32255 0.0
C285 C 0.21602 0.78813 0.34022 0.0
C286 C 0.25156 0.85608 0.34353 0.0
C287 C 0.22813 0.88078 0.37014 0.0
C288 C 0.26758 0.9486 0.37533 0.0
C289 C 0.32658 0.99086 0.35335 0.0
C290 C 0.34808 0.96681 0.32617 0.0
C291 C 0.31135 0.90021 0.32135 0.0
H292 H 0.1663 0.09435 0.90256 0.0
C293 C 0.17568 0.08634 0.93317 0.0
H294 H 0.243 0.0906 0.97044 0.0
H295 H 0.41313 0.08572 0.83529 0.0
H296 H 0.36226 0.98171 0.87121 0.0
H297 H 0.2737 0.94058 0.92299 0.0
H298 H 0.23606 0.00361 0.93954 0.0
C299 C 0.2336 0.10056 0.94043 0.0
C300 C 0.28365 0.1238 0.90684 0.0
C301 C 0.30389 0.08549 0.89672 0.0
C302 C 0.35422 0.10867 0.86634 0.0
C303 C 0.37495 0.07041 0.8579 0.0
C304 C 0.34602 0.01046 0.87823 0.0
C305 C 0.29619 0.98732 0.9074 0.0
C306 C 0.27516 0.02413 0.91667 0.0
H307 H 0.4939 0.27424 0.8663 0.0
C308 C 0.50039 0.25537 0.83911 0.0
H309 H 0.45329 0.17913 0.79871 0.0
H310 H 0.25979 0.21238 0.91945 0.0
H311 H 0.30374 0.31104 0.8789 0.0
H312 H 0.38188 0.34428 0.82121 0.0
H313 H 0.41785 0.27943 0.80464 0.0
C314 C 0.44788 0.20258 0.82347 0.0
C315 C 0.38381 0.16985 0.84591 0.0
C316 C 0.3592 0.20505 0.85323 0.0
C317 C 0.31105 0.18356 0.8848 0.0
C318 C 0.2931 0.22391 0.89426 0.0
C319 C 0.31855 0.2812 0.87146 0.0
C320 C 0.36276 0.30009 0.83911 0.0
C321 C 0.38324 0.26277 0.83007 0.0
H322 H 0.12646 0.21102 0.46949 0.0
C323 C 0.1017 0.16657 0.45303 0.0
H324 H 0.06752 0.12415 0.39642 0.0
H325 H 0.14118 0.42284 0.39609 0.0
H326 H 0.05082 0.37549 0.44571 0.0
H327 H 0.98773 0.2604 0.4693 0.0
H328 H 0.01511 0.19225 0.4437 0.0
C329 C 0.0921 0.16822 0.4132 0.0
C330 C 0.11711 0.23076 0.39117 0.0
C331 C 0.09853 0.26891 0.40501 0.0
C332 C 0.13396 0.33469 0.3908 0.0
C333 C 0.11602 0.37258 0.40616 0.0
C334 C 0.06403 0.3459 0.4344 0.0
C335 C 0.02855 0.28113 0.44771 0.0
C336 C 0.04517 0.24276 0.43313 0.0
H337 H 0.22016 0.44329 0.29524 0.0
C338 C 0.24458 0.46796 0.32251 0.0
H339 H 0.25789 0.45866 0.38431 0.0
H340 H 0.15272 0.16519 0.35047 0.0
H341 H 0.23516 0.20909 0.29581 0.0
H342 H 0.29731 0.32359 0.27127 0.0
H343 H 0.27736 0.3947 0.30106 0.0
C344 C 0.23416 0.43351 0.35699 0.0
C345 C 0.18666 0.36164 0.36199 0.0
C346 C 0.19918 0.32091 0.34393 0.0
C347 C 0.16379 0.25498 0.3584 0.0
C348 C 0.17805 0.21552 0.34067 0.0
C349 C 0.2253 0.24013 0.30928 0.0
C350 C 0.26028 0.30459 0.29545 0.0
C351 C 0.24812 0.34493 0.31277 0.0
H352 H 0.8286 0.06304 0.95363 0.0
C353 C 0.87187 0.07076 0.94065 0.0
H354 H 0.93953 0.10959 0.89041 0.0
H355 H 0.67557 0.08218 0.83614 0.0
H356 H 0.62288 0.96632 0.83514 0.0
H357 H 0.68174 0.92284 0.85414 0.0
H358 H 0.79335 0.99488 0.87496 0.0
C359 C 0.89524 0.09957 0.90343 0.0
C360 C 0.86566 0.1261 0.88201 0.0
C361 C 0.80155 0.08372 0.86851 0.0
C362 C 0.76819 0.10891 0.85667 0.0
C363 C 0.70315 0.0654 0.84516 0.0
C364 C 0.67248 -0.00107 0.84438 0.0
C365 C 0.70562 0.97444 0.8551 0.0
C366 C 0.76941 0.01613 0.86714 0.0
H367 H 0.76689 0.20998 0.79063 0.0
C368 C 0.75176 0.2193 0.81864 0.0
H369 H 0.74883 0.21253 0.88276 0.0
H370 H 0.99206 0.22133 0.89973 0.0
H371 H 0.04673 0.33754 0.89658 0.0
H372 H 0.98931 0.38139 0.87486 0.0
H373 H 0.87678 0.3092 0.85627 0.0
C374 C 0.76194 0.20178 0.8544 0.0
C375 C 0.79975 0.17643 0.85755 0.0
C376 C 0.86596 0.21937 0.86705 0.0
C377 C 0.8991 0.19415 0.87928 0.0
C378 C 0.96462 0.23793 0.89005 0.0
C379 C -0.00341 0.30475 0.88835 0.0
C380 C 0.96426 0.32944 0.87614 0.0
C381 C 0.89966 0.28749 0.86566 0.0
H382 H 0.77745 0.85193 0.48277 0.0
C383 C 0.82706 0.89206 0.4729 0.0
H384 H 0.89034 0.95215 0.42295 0.0
H385 H 0.60926 0.68338 0.36099 0.0
H386 H 0.6517 0.62614 0.38329 0.0
H387 H 0.75834 0.68494 0.41423 0.0
H388 H 0.82304 0.80133 0.42322 0.0
C389 C 0.8416 0.91082 0.4333 0.0
C390 C 0.78884 0.87954 0.40404 0.0
C391 C 0.75289 0.81231 0.39784 0.0
C392 C 0.69188 0.77867 0.37976 0.0
C393 C 0.6558 0.71105 0.37494 0.0
C394 C 0.67974 0.6778 0.38738 0.0
C395 C 0.73978 0.7109 0.40482 0.0
C396 C 0.77618 0.77744 0.41005 0.0
H397 H 0.6028 0.79688 0.29934 0.0
C398 C 0.57105 0.77059 0.32604 0.0
H399 H 0.5651 0.74694 0.3885 0.0
H400 H 0.85408 0.0111 0.40228 0.0
H401 H 0.81569 0.06972 0.3755 0.0
H402 H 0.70873 0.01129 0.34513 0.0
H403 H 0.63979 0.89424 0.34116 0.0
C404 C 0.59671 0.77462 0.36185 0.0
C405 C 0.66743 0.81253 0.36761 0.0
C406 C 0.70731 0.88121 0.36892 0.0
C407 C 0.76866 0.91489 0.38687 0.0
C408 C 0.80703 0.98322 0.38906 0.0
C409 C 0.78558 0.01742 0.37379 0.0
C410 C 0.72538 0.98452 0.35666 0.0
C411 C 0.68627 0.91718 0.35448 0.0
H412 H 0.9389 0.8381 0.9183 0.0
C413 C 0.93591 0.8108 0.94499 0.0
H414 H 0.90285 0.71908 0.96954 0.0
H415 H 0.69052 0.5405 0.84875 0.0
H416 H 0.6223 0.53518 0.90287 0.0
H417 H 0.67049 0.61164 0.9582 0.0
H418 H 0.78745 0.6937 0.95979 0.0
C419 C 0.90748 0.74729 0.94287 0.0
C420 C 0.87871 0.71216 0.90513 0.0
C421 C 0.81037 0.66593 0.90397 0.0
C422 C 0.78264 0.62232 0.87189 0.0
C423 C 0.71428 0.57495 0.87231 0.0
C424 C 0.6745 0.57147 0.90317 0.0
C425 C 0.70162 0.61449 0.93434 0.0
C426 C 0.76875 0.66119 0.93495 0.0
H427 H 0.85612 0.5481 0.8475 0.0
C428 C 0.81749 0.53019 0.82642 0.0
H429 H 0.75565 0.54691 0.7996 0.0
H430 H 0.01161 0.80064 0.89529 0.0
H431 H 0.07851 0.81141 0.83811 0.0
H432 H 0.02933 0.73856 0.78113 0.0
H433 H 0.91221 0.65363 0.78123 0.0
C434 C 0.7981 0.56655 0.81742 0.0
C435 C 0.82362 0.62498 0.8413 0.0
C436 C 0.89112 0.6765 0.83973 0.0
C437 C 0.91908 0.7196 0.87207 0.0
C438 C 0.98737 0.76757 0.8711 0.0
C439 C 0.02642 0.77416 0.83848 0.0
C440 C -0.00128 0.73305 0.80638 0.0
C441 C 0.93181 0.6845 0.80689 0.0
loop_
_geom_bond_atom_site_label_1
_geom_bond_atom_site_label_2
_geom_bond_distance
_geom_bond_site_symmetry_2
_ccdc_geom_bond_type
Zn0 O6 1.969 . S
Zn0 O7 1.965 1_565 S
Zn0 O11 2.024 1_554 S
Zn0 O16 1.969 1_455 S
Zn1 O8 1.969 . S
Zn1 O14 1.969 . S
Zn1 O15 1.965 1_446 S
Zn1 O17 2.024 1_556 S
C2 O3 1.229 . S
C2 O11 1.058 1_655 S
O3 C2 1.229 . S
C4 O5 1.229 . S
C4 O17 1.058 . S
O5 C4 1.229 . S
O6 Zn0 1.969 . S
O6 C9 1.267 . S
O7 Zn0 1.965 1_545 S
O7 C18 1.256 1_554 S
O8 Zn1 1.969 . S
O8 C18 1.258 . S
C9 O6 1.267 . S
C9 O10 1.228 . S
O10 C9 1.228 . S
O11 Zn0 2.024 1_556 S
O11 C2 1.058 1_455 S
C12 O13 1.228 . S
C12 O14 1.267 1_655 S
O13 C12 1.228 . S
O14 Zn1 1.969 . S
O14 C12 1.267 1_455 S
O15 Zn1 1.965 1_664 S
O15 C19 1.260 . S
O16 Zn0 1.969 1_655 S
O16 C19 1.258 . S
O17 Zn1 2.024 1_554 S
O17 C4 1.058 . S
C18 O7 1.256 1_556 S
C18 O8 1.258 . S
C19 O15 1.260 . S
C19 O16 1.258 . S
Zn20 O26 1.969 1_545 S
Zn20 O27 1.965 1_545 S
Zn20 O31 2.024 . S
Zn20 O36 1.969 . S
Zn21 O28 1.969 1_545 S
Zn21 O34 1.969 . S
Zn21 O35 1.965 1_655 S
Zn21 O37 2.024 1_545 S
C22 O23 1.229 . S
C22 O31 1.058 . S
O23 C22 1.229 . S
C24 O25 1.229 . S
C24 O37 1.058 . S
O25 C24 1.229 . S
O26 Zn20 1.969 1_565 S
O26 C29 1.267 . S
O27 Zn20 1.965 1_565 S
O27 C38 1.260 1_455 S
O28 Zn21 1.969 1_565 S
O28 C38 1.258 . S
C29 O26 1.267 . S
C29 O30 1.228 . S
O30 C29 1.228 . S
O31 Zn20 2.024 . S
O31 C22 1.058 . S
C32 O33 1.228 . S
C32 O34 1.267 . S
O33 C32 1.228 . S
O34 Zn21 1.969 . S
O34 C32 1.267 . S
O35 Zn21 1.965 1_455 S
O35 C39 1.260 . S
O36 Zn20 1.969 . S
O36 C39 1.258 . S
O37 Zn21 2.024 1_565 S
O37 C24 1.058 . S
C38 O27 1.260 1_655 S
C38 O28 1.258 . S
C39 O35 1.260 . S
C39 O36 1.258 . S
Zn40 O46 1.920 . S
Zn40 O52 1.898 . S
Zn40 O55 1.905 . S
Zn41 O49 1.905 . S
Zn41 O50 1.898 . S
Zn41 O58 1.920 . S
Zn42 O45 2.080 . S
Zn42 O48 2.114 . S
Zn42 O51 2.120 . S
Zn42 O53 2.120 . S
Zn42 O54 2.114 . S
Zn42 O57 2.080 . S
C43 O48 1.166 . S
C43 O49 1.182 . S
C44 O50 1.167 . S
C44 O51 1.299 . S
O45 Zn42 2.080 . S
O45 C59 1.305 . S
O46 Zn40 1.920 . S
O46 C59 1.234 . S
C47 O52 1.167 . S
C47 O53 1.299 . S
O48 Zn42 2.114 . S
O48 C43 1.166 . S
O49 Zn41 1.905 . S
O49 C43 1.182 . S
O50 Zn41 1.898 . S
O50 C44 1.167 . S
O51 Zn42 2.120 . S
O51 C44 1.299 . S
O52 Zn40 1.898 . S
O52 C47 1.167 . S
O53 Zn42 2.120 . S
O53 C47 1.299 . S
O54 Zn42 2.114 . S
O54 C56 1.166 . S
O55 Zn40 1.905 . S
O55 C56 1.182 . S
C56 O54 1.166 . S
C56 O55 1.182 . S
O57 Zn42 2.080 . S
O57 C60 1.305 . S
O58 Zn41 1.920 . S
O58 C60 1.234 . S
C59 O45 1.305 . S
C59 O46 1.234 . S
C60 O57 1.305 . S
C60 O58 1.234 . S
Zn61 O67 1.920 . S
Zn61 O73 1.898 . S
Zn61 O76 1.905 . S
Zn62 O70 1.905 . S
Zn62 O71 1.898 . S
Zn62 O79 1.920 . S
Zn63 O66 2.080 . S
Zn63 O69 2.114 . S
Zn63 O72 2.120 . S
Zn63 O74 2.120 . S
Zn63 O75 2.114 . S
Zn63 O78 2.080 . S
C64 O69 1.166 . S
C64 O70 1.182 . S
C65 O71 1.167 . S
C65 O72 1.299 . S
O66 Zn63 2.080 . S
O66 C80 1.305 . S
O67 Zn61 1.920 . S
O67 C80 1.234 . S
C68 O73 1.167 . S
C68 O74 1.299 . S
O69 Zn63 2.114 . S
O69 C64 1.166 . S
O70 Zn62 1.905 . S
O70 C64 1.182 . S
O71 Zn62 1.898 . S
O71 C65 1.167 . S
O72 Zn63 2.120 . S
O72 C65 1.299 . S
O73 Zn61 1.898 . S
O73 C68 1.167 . S
O74 Zn63 2.120 . S
O74 C68 1.299 . S
O75 Zn63 2.114 . S
O75 C77 1.166 . S
O76 Zn61 1.905 . S
O76 C77 1.182 . S
C77 O75 1.166 . S
C77 O76 1.182 . S
O78 Zn63 2.080 . S
O78 C81 1.305 . S
O79 Zn62 1.920 . S
O79 C81 1.234 . S
C80 O66 1.305 . S
C80 O67 1.234 . S
C81 O78 1.305 . S
C81 O79 1.234 . S
H82 C83 0.951 . S
C83 H82 0.951 . S
C83 C89 1.265 . S
H84 C89 0.950 . S
H85 C93 0.949 . S
H86 C94 0.950 . S
H87 C95 0.951 . S
H88 C96 0.951 . S
C89 C83 1.265 . S
C89 H84 0.950 . S
C89 C90 1.478 . S
C90 C89 1.478 . S
C90 C91 1.397 . S
C90 C107 1.394 . S
C91 C90 1.397 . S
C91 C92 1.438 . S
C91 C96 1.429 . S
C92 C91 1.438 . S
C92 C93 1.428 . S
C92 C105 1.394 . S
C93 H85 0.949 . S
C93 C92 1.428 . S
C93 C94 1.345 . S
C94 H86 0.950 . S
C94 C93 1.345 . S
C94 C95 1.424 . S
C95 H87 0.951 . S
C95 C94 1.424 . S
C95 C96 1.347 . S
C96 H88 0.951 . S
C96 C91 1.429 . S
C96 C95 1.347 . S
H97 C98 0.951 . S
C98 H97 0.951 . S
C98 C104 1.265 . S
H99 C104 0.950 . S
H100 C108 0.949 . S
H101 C109 0.950 . S
H102 C110 0.951 . S
H103 C111 0.951 . S
C104 C98 1.265 . S
C104 H99 0.950 . S
C104 C105 1.478 . S
C105 C92 1.394 . S
C105 C104 1.478 . S
C105 C106 1.397 . S
C106 C105 1.397 . S
C106 C107 1.438 . S
C106 C111 1.429 . S
C107 C90 1.394 . S
C107 C106 1.438 . S
C107 C108 1.428 . S
C108 H100 0.949 . S
C108 C107 1.428 . S
C108 C109 1.345 . S
C109 H101 0.950 . S
C109 C108 1.345 . S
C109 C110 1.424 . S
C110 H102 0.951 . S
C110 C109 1.424 . S
C110 C111 1.347 . S
C111 H103 0.951 . S
C111 C106 1.429 . S
C111 C110 1.347 . S
H112 C113 0.951 . S
C113 H112 0.951 . S
C113 C119 1.265 . S
H114 C119 0.950 . S
H115 C123 0.949 . S
H116 C124 0.950 . S
H117 C125 0.951 . S
H118 C126 0.951 . S
C119 C113 1.265 . S
C119 H114 0.950 . S
C119 C120 1.478 . S
C120 C119 1.478 . S
C120 C121 1.397 . S
C120 C137 1.394 . S
C121 C120 1.397 . S
C121 C122 1.438 . S
C121 C126 1.429 . S
C122 C121 1.438 . S
C122 C123 1.428 . S
C122 C135 1.394 . S
C123 H115 0.949 . S
C123 C122 1.428 . S
C123 C124 1.345 . S
C124 H116 0.950 . S
C124 C123 1.345 . S
C124 C125 1.424 . S
C125 H117 0.951 . S
C125 C124 1.424 . S
C125 C126 1.347 . S
C126 H118 0.951 . S
C126 C121 1.429 . S
C126 C125 1.347 . S
H127 C128 0.951 . S
C128 H127 0.951 . S
C128 C134 1.265 . S
H129 C134 0.950 . S
H130 C138 0.949 . S
H131 C139 0.950 . S
H132 C140 0.951 . S
H133 C141 0.951 . S
C134 C128 1.265 . S
C134 H129 0.950 . S
C134 C135 1.478 . S
C135 C122 1.394 . S
C135 C134 1.478 . S
C135 C136 1.397 . S
C136 C135 1.397 . S
C136 C137 1.438 . S
C136 C141 1.429 . S
C137 C120 1.394 . S
C137 C136 1.438 . S
C137 C138 1.428 . S
C138 H130 0.949 . S
C138 C137 1.428 . S
C138 C139 1.345 . S
C139 H131 0.950 . S
C139 C138 1.345 . S
C139 C140 1.424 . S
C140 H132 0.951 . S
C140 C139 1.424 . S
C140 C141 1.347 . S
C141 H133 0.951 . S
C141 C136 1.429 . S
C141 C140 1.347 . S
H142 C143 0.951 . S
C143 H142 0.951 . S
C143 C149 1.265 . S
H144 C149 0.950 . S
H145 C153 0.949 . S
H146 C154 0.950 . S
H147 C155 0.951 . S
H148 C156 0.951 . S
C149 C143 1.265 . S
C149 H144 0.950 . S
C149 C150 1.478 . S
C150 C149 1.478 . S
C150 C151 1.397 . S
C150 C167 1.394 . S
C151 C150 1.397 . S
C151 C152 1.438 . S
C151 C156 1.429 . S
C152 C151 1.438 . S
C152 C153 1.428 . S
C152 C165 1.394 . S
C153 H145 0.949 . S
C153 C152 1.428 . S
C153 C154 1.345 . S
C154 H146 0.950 . S
C154 C153 1.345 . S
C154 C155 1.424 . S
C155 H147 0.951 . S
C155 C154 1.424 . S
C155 C156 1.347 . S
C156 H148 0.951 . S
C156 C151 1.429 . S
C156 C155 1.347 . S
H157 C158 0.951 . S
C158 H157 0.951 . S
C158 C164 1.265 . S
H159 C164 0.950 . S
H160 C168 0.949 . S
H161 C169 0.950 . S
H162 C170 0.951 . S
H163 C171 0.951 . S
C164 C158 1.265 . S
C164 H159 0.950 . S
C164 C165 1.478 . S
C165 C152 1.394 . S
C165 C164 1.478 . S
C165 C166 1.397 . S
C166 C165 1.397 . S
C166 C167 1.438 . S
C166 C171 1.429 . S
C167 C150 1.394 . S
C167 C166 1.438 . S
C167 C168 1.428 . S
C168 H160 0.949 . S
C168 C167 1.428 . S
C168 C169 1.345 . S
C169 H161 0.950 . S
C169 C168 1.345 . S
C169 C170 1.424 . S
C170 H162 0.951 . S
C170 C169 1.424 . S
C170 C171 1.347 . S
C171 H163 0.951 . S
C171 C166 1.429 . S
C171 C170 1.347 . S
H172 C173 0.951 . S
C173 H172 0.951 . S
C173 C179 1.265 . S
H174 C179 0.950 . S
H175 C183 0.949 . S
H176 C184 0.950 . S
H177 C185 0.951 . S
H178 C186 0.951 . S
C179 C173 1.265 . S
C179 H174 0.950 . S
C179 C180 1.478 . S
C180 C179 1.478 . S
C180 C181 1.397 . S
C180 C197 1.394 . S
C181 C180 1.397 . S
C181 C182 1.438 . S
C181 C186 1.429 . S
C182 C181 1.438 . S
C182 C183 1.428 . S
C182 C195 1.394 . S
C183 H175 0.949 . S
C183 C182 1.428 . S
C183 C184 1.345 . S
C184 H176 0.950 . S
C184 C183 1.345 . S
C184 C185 1.424 . S
C185 H177 0.951 . S
C185 C184 1.424 . S
C185 C186 1.347 . S
C186 H178 0.951 . S
C186 C181 1.429 . S
C186 C185 1.347 . S
H187 C188 0.951 . S
C188 H187 0.951 . S
C188 C194 1.265 . S
H189 C194 0.950 . S
H190 C198 0.949 . S
H191 C199 0.950 . S
H192 C200 0.951 . S
H193 C201 0.951 . S
C194 C188 1.265 . S
C194 H189 0.950 . S
C194 C195 1.478 . S
C195 C182 1.394 . S
C195 C194 1.478 . S
C195 C196 1.397 . S
C196 C195 1.397 . S
C196 C197 1.438 . S
C196 C201 1.429 . S
C197 C180 1.394 . S
C197 C196 1.438 . S
C197 C198 1.428 . S
C198 H190 0.949 . S
C198 C197 1.428 . S
C198 C199 1.345 . S
C199 H191 0.950 . S
C199 C198 1.345 . S
C199 C200 1.424 . S
C200 H192 0.951 . S
C200 C199 1.424 . S
C200 C201 1.347 . S
C201 H193 0.951 . S
C201 C196 1.429 . S
C201 C200 1.347 . S
H202 C203 0.951 . S
C203 H202 0.951 . S
C203 C209 1.265 . S
H204 C209 0.950 . S
H205 C213 0.949 . S
H206 C214 0.950 . S
H207 C215 0.951 1_545 S
H208 C216 0.951 . S
C209 C203 1.265 . S
C209 H204 0.950 . S
C209 C210 1.478 . S
C210 C209 1.478 . S
C210 C211 1.397 . S
C210 C227 1.394 . S
C211 C210 1.397 . S
C211 C212 1.438 . S
C211 C216 1.429 . S
C212 C211 1.438 . S
C212 C213 1.428 . S
C212 C225 1.394 . S
C213 H205 0.949 . S
C213 C212 1.428 . S
C213 C214 1.345 . S
C214 H206 0.950 . S
C214 C213 1.345 . S
C214 C215 1.424 . S
C215 H207 0.951 1_565 S
C215 C214 1.424 . S
C215 C216 1.347 . S
C216 H208 0.951 . S
C216 C211 1.429 . S
C216 C215 1.347 . S
H217 C218 0.951 . S
C218 H217 0.951 . S
C218 C224 1.265 . S
H219 C224 0.950 . S
H220 C228 0.949 . S
H221 C229 0.950 . S
H222 C230 0.951 . S
H223 C231 0.951 . S
C224 C218 1.265 . S
C224 H219 0.950 . S
C224 C225 1.478 . S
C225 C212 1.394 . S
C225 C224 1.478 . S
C225 C226 1.397 . S
C226 C225 1.397 . S
C226 C227 1.438 . S
C226 C231 1.429 . S
C227 C210 1.394 . S
C227 C226 1.438 . S
C227 C228 1.428 . S
C228 H220 0.949 . S
C228 C227 1.428 . S
C228 C229 1.345 . S
C229 H221 0.950 . S
C229 C228 1.345 . S
C229 C230 1.424 . S
C230 H222 0.951 . S
C230 C229 1.424 . S
C230 C231 1.347 . S
C231 H223 0.951 . S
C231 C226 1.429 . S
C231 C230 1.347 . S
H232 C233 0.951 . S
C233 H232 0.951 . S
C233 C239 1.265 . S
H234 C239 0.950 . S
H235 C243 0.949 . S
H236 C244 0.950 . S
H237 C245 0.951 . S
H238 C246 0.951 . S
C239 C233 1.265 . S
C239 H234 0.950 . S
C239 C240 1.478 . S
C240 C239 1.478 . S
C240 C241 1.397 . S
C240 C257 1.394 . S
C241 C240 1.397 . S
C241 C242 1.438 . S
C241 C246 1.429 . S
C242 C241 1.438 . S
C242 C243 1.428 . S
C242 C255 1.394 . S
C243 H235 0.949 . S
C243 C242 1.428 . S
C243 C244 1.345 . S
C244 H236 0.950 . S
C244 C243 1.345 . S
C244 C245 1.424 . S
C245 H237 0.951 . S
C245 C244 1.424 . S
C245 C246 1.347 . S
C246 H238 0.951 . S
C246 C241 1.429 . S
C246 C245 1.347 . S
H247 C248 0.951 . S
C248 H247 0.951 . S
C248 C254 1.265 . S
H249 C254 0.950 . S
H250 C258 0.949 . S
H251 C259 0.950 1_455 S
H252 C260 0.951 . S
H253 C261 0.951 . S
C254 C248 1.265 . S
C254 H249 0.950 . S
C254 C255 1.478 . S
C255 C242 1.394 . S
C255 C254 1.478 . S
C255 C256 1.397 . S
C256 C255 1.397 . S
C256 C257 1.438 . S
C256 C261 1.429 . S
C257 C240 1.394 . S
C257 C256 1.438 . S
C257 C258 1.428 . S
C258 H250 0.949 . S
C258 C257 1.428 . S
C258 C259 1.345 . S
C259 H251 0.950 1_655 S
C259 C258 1.345 . S
C259 C260 1.424 . S
C260 H252 0.951 . S
C260 C259 1.424 . S
C260 C261 1.347 . S
C261 H253 0.951 . S
C261 C256 1.429 . S
C261 C260 1.347 . S
H262 C263 0.951 . S
C263 H262 0.951 . S
C263 C269 1.265 . S
H264 C269 0.950 . S
H265 C273 0.949 . S
H266 C274 0.950 . S
H267 C275 0.951 . S
H268 C276 0.951 . S
C269 C263 1.265 . S
C269 H264 0.950 . S
C269 C270 1.478 . S
C270 C269 1.478 . S
C270 C271 1.397 . S
C270 C287 1.394 . S
C271 C270 1.397 . S
C271 C272 1.438 . S
C271 C276 1.429 . S
C272 C271 1.438 . S
C272 C273 1.428 . S
C272 C285 1.394 . S
C273 H265 0.949 . S
C273 C272 1.428 . S
C273 C274 1.345 . S
C274 H266 0.950 . S
C274 C273 1.345 . S
C274 C275 1.424 . S
C275 H267 0.951 . S
C275 C274 1.424 . S
C275 C276 1.347 . S
C276 H268 0.951 . S
C276 C271 1.429 . S
C276 C275 1.347 . S
H277 C278 0.951 . S
C278 H277 0.951 . S
C278 C284 1.265 . S
H279 C284 0.950 . S
H280 C288 0.949 . S
H281 C289 0.950 1_545 S
H282 C290 0.951 . S
H283 C291 0.951 . S
C284 C278 1.265 . S
C284 H279 0.950 . S
C284 C285 1.478 . S
C285 C272 1.394 . S
C285 C284 1.478 . S
C285 C286 1.397 . S
C286 C285 1.397 . S
C286 C287 1.438 . S
C286 C291 1.429 . S
C287 C270 1.394 . S
C287 C286 1.438 . S
C287 C288 1.428 . S
C288 H280 0.949 . S
C288 C287 1.428 . S
C288 C289 1.345 . S
C289 H281 0.950 1_565 S
C289 C288 1.345 . S
C289 C290 1.424 . S
C290 H282 0.951 . S
C290 C289 1.424 . S
C290 C291 1.347 . S
C291 H283 0.951 . S
C291 C286 1.429 . S
C291 C290 1.347 . S
H292 C293 0.951 . S
C293 H292 0.951 . S
C293 C299 1.265 . S
H294 C299 0.950 . S
H295 C303 0.949 . S
H296 C304 0.950 . S
H297 C305 0.951 . S
H298 C306 0.951 . S
C299 C293 1.265 . S
C299 H294 0.950 . S
C299 C300 1.478 . S
C300 C299 1.478 . S
C300 C301 1.397 . S
C300 C317 1.394 . S
C301 C300 1.397 . S
C301 C302 1.438 . S
C301 C306 1.429 . S
C302 C301 1.438 . S
C302 C303 1.428 . S
C302 C315 1.394 . S
C303 H295 0.949 . S
C303 C302 1.428 . S
C303 C304 1.345 . S
C304 H296 0.950 . S
C304 C303 1.345 . S
C304 C305 1.424 . S
C305 H297 0.951 . S
C305 C304 1.424 . S
C305 C306 1.347 . S
C306 H298 0.951 . S
C306 C301 1.429 . S
C306 C305 1.347 . S
H307 C308 0.951 . S
C308 H307 0.951 . S
C308 C314 1.265 . S
H309 C314 0.950 . S
H310 C318 0.949 . S
H311 C319 0.950 . S
H312 C320 0.951 . S
H313 C321 0.951 . S
C314 C308 1.265 . S
C314 H309 0.950 . S
C314 C315 1.478 . S
C315 C302 1.394 . S
C315 C314 1.478 . S
C315 C316 1.397 . S
C316 C315 1.397 . S
C316 C317 1.438 . S
C316 C321 1.429 . S
C317 C300 1.394 . S
C317 C316 1.438 . S
C317 C318 1.428 . S
C318 H310 0.949 . S
C318 C317 1.428 . S
C318 C319 1.345 . S
C319 H311 0.950 . S
C319 C318 1.345 . S
C319 C320 1.424 . S
C320 H312 0.951 . S
C320 C319 1.424 . S
C320 C321 1.347 . S
C321 H313 0.951 . S
C321 C316 1.429 . S
C321 C320 1.347 . S
H322 C323 0.951 . S
C323 H322 0.951 . S
C323 C329 1.265 . S
H324 C329 0.950 . S
H325 C333 0.949 . S
H326 C334 0.950 . S
H327 C335 0.951 1_655 S
H328 C336 0.951 . S
C329 C323 1.265 . S
C329 H324 0.950 . S
C329 C330 1.478 . S
C330 C329 1.478 . S
C330 C331 1.397 . S
C330 C347 1.394 . S
C331 C330 1.397 . S
C331 C332 1.438 . S
C331 C336 1.429 . S
C332 C331 1.438 . S
C332 C333 1.428 . S
C332 C345 1.394 . S
C333 H325 0.949 . S
C333 C332 1.428 . S
C333 C334 1.345 . S
C334 H326 0.950 . S
C334 C333 1.345 . S
C334 C335 1.424 . S
C335 H327 0.951 1_455 S
C335 C334 1.424 . S
C335 C336 1.347 . S
C336 H328 0.951 . S
C336 C331 1.429 . S
C336 C335 1.347 . S
H337 C338 0.951 . S
C338 H337 0.951 . S
C338 C344 1.265 . S
H339 C344 0.950 . S
H340 C348 0.949 . S
H341 C349 0.950 . S
H342 C350 0.951 . S
H343 C351 0.951 . S
C344 C338 1.265 . S
C344 H339 0.950 . S
C344 C345 1.478 . S
C345 C332 1.394 . S
C345 C344 1.478 . S
C345 C346 1.397 . S
C346 C345 1.397 . S
C346 C347 1.438 . S
C346 C351 1.429 . S
C347 C330 1.394 . S
C347 C346 1.438 . S
C347 C348 1.428 . S
C348 H340 0.949 . S
C348 C347 1.428 . S
C348 C349 1.345 . S
C349 H341 0.950 . S
C349 C348 1.345 . S
C349 C350 1.424 . S
C350 H342 0.951 . S
C350 C349 1.424 . S
C350 C351 1.347 . S
C351 H343 0.951 . S
C351 C346 1.429 . S
C351 C350 1.347 . S
H352 C353 0.951 . S
C353 H352 0.951 . S
C353 C359 1.265 . S
H354 C359 0.950 . S
H355 C363 0.949 . S
H356 C364 0.950 . S
H357 C365 0.951 . S
H358 C366 0.951 . S
C359 C353 1.265 . S
C359 H354 0.950 . S
C359 C360 1.478 . S
C360 C359 1.478 . S
C360 C361 1.397 . S
C360 C377 1.394 . S
C361 C360 1.397 . S
C361 C362 1.438 . S
C361 C366 1.429 . S
C362 C361 1.438 . S
C362 C363 1.428 . S
C362 C375 1.394 . S
C363 H355 0.949 . S
C363 C362 1.428 . S
C363 C364 1.345 . S
C364 H356 0.950 . S
C364 C363 1.345 . S
C364 C365 1.424 . S
C365 H357 0.951 . S
C365 C364 1.424 . S
C365 C366 1.347 . S
C366 H358 0.951 . S
C366 C361 1.429 . S
C366 C365 1.347 . S
H367 C368 0.951 . S
C368 H367 0.951 . S
C368 C374 1.265 . S
H369 C374 0.950 . S
H370 C378 0.949 . S
H371 C379 0.950 . S
H372 C380 0.951 . S
H373 C381 0.951 . S
C374 C368 1.265 . S
C374 H369 0.950 . S
C374 C375 1.478 . S
C375 C362 1.394 . S
C375 C374 1.478 . S
C375 C376 1.397 . S
C376 C375 1.397 . S
C376 C377 1.438 . S
C376 C381 1.429 . S
C377 C360 1.394 . S
C377 C376 1.438 . S
C377 C378 1.428 . S
C378 H370 0.949 . S
C378 C377 1.428 . S
C378 C379 1.345 . S
C379 H371 0.950 . S
C379 C378 1.345 . S
C379 C380 1.424 . S
C380 H372 0.951 . S
C380 C379 1.424 . S
C380 C381 1.347 . S
C381 H373 0.951 . S
C381 C376 1.429 . S
C381 C380 1.347 . S
H382 C383 0.951 . S
C383 H382 0.951 . S
C383 C389 1.265 . S
H384 C389 0.950 . S
H385 C393 0.949 . S
H386 C394 0.950 . S
H387 C395 0.951 . S
H388 C396 0.951 . S
C389 C383 1.265 . S
C389 H384 0.950 . S
C389 C390 1.478 . S
C390 C389 1.478 . S
C390 C391 1.397 . S
C390 C407 1.394 . S
C391 C390 1.397 . S
C391 C392 1.438 . S
C391 C396 1.429 . S
C392 C391 1.438 . S
C392 C393 1.428 . S
C392 C405 1.394 . S
C393 H385 0.949 . S
C393 C392 1.428 . S
C393 C394 1.345 . S
C394 H386 0.950 . S
C394 C393 1.345 . S
C394 C395 1.424 . S
C395 H387 0.951 . S
C395 C394 1.424 . S
C395 C396 1.347 . S
C396 H388 0.951 . S
C396 C391 1.429 . S
C396 C395 1.347 . S
H397 C398 0.951 . S
C398 H397 0.951 . S
C398 C404 1.265 . S
H399 C404 0.950 . S
H400 C408 0.949 . S
H401 C409 0.950 1_545 S
H402 C410 0.951 . S
H403 C411 0.951 . S
C404 C398 1.265 . S
C404 H399 0.950 . S
C404 C405 1.478 . S
C405 C392 1.394 . S
C405 C404 1.478 . S
C405 C406 1.397 . S
C406 C405 1.397 . S
C406 C407 1.438 . S
C406 C411 1.429 . S
C407 C390 1.394 . S
C407 C406 1.438 . S
C407 C408 1.428 . S
C408 H400 0.949 . S
C408 C407 1.428 . S
C408 C409 1.345 . S
C409 H401 0.950 1_565 S
C409 C408 1.345 . S
C409 C410 1.424 . S
C410 H402 0.951 . S
C410 C409 1.424 . S
C410 C411 1.347 . S
C411 H403 0.951 . S
C411 C406 1.429 . S
C411 C410 1.347 . S
H412 C413 0.951 . S
C413 H412 0.951 . S
C413 C419 1.265 . S
H414 C419 0.950 . S
H415 C423 0.949 . S
H416 C424 0.950 . S
H417 C425 0.951 . S
H418 C426 0.951 . S
C419 C413 1.265 . S
C419 H414 0.950 . S
C419 C420 1.478 . S
C420 C419 1.478 . S
C420 C421 1.397 . S
C420 C437 1.394 . S
C421 C420 1.397 . S
C421 C422 1.438 . S
C421 C426 1.429 . S
C422 C421 1.438 . S
C422 C423 1.428 . S
C422 C435 1.394 . S
C423 H415 0.949 . S
C423 C422 1.428 . S
C423 C424 1.345 . S
C424 H416 0.950 . S
C424 C423 1.345 . S
C424 C425 1.424 . S
C425 H417 0.951 . S
C425 C424 1.424 . S
C425 C426 1.347 . S
C426 H418 0.951 . S
C426 C421 1.429 . S
C426 C425 1.347 . S
H427 C428 0.951 . S
C428 H427 0.951 . S
C428 C434 1.265 . S
H429 C434 0.950 . S
H430 C438 0.949 1_455 S
H431 C439 0.950 . S
H432 C440 0.951 . S
H433 C441 0.951 . S
C434 C428 1.265 . S
C434 H429 0.950 . S
C434 C435 1.478 . S
C435 C422 1.394 . S
C435 C434 1.478 . S
C435 C436 1.397 . S
C436 C435 1.397 . S
C436 C437 1.438 . S
C436 C441 1.429 . S
C437 C420 1.394 . S
C437 C436 1.438 . S
C437 C438 1.428 . S
C438 H430 0.949 1_655 S
C438 C437 1.428 . S
C438 C439 1.345 1_655 S
C439 H431 0.950 . S
C439 C438 1.345 1_455 S
C439 C440 1.424 . S
C440 H432 0.951 . S
C440 C439 1.424 . S
C440 C441 1.347 1_455 S
C441 H433 0.951 . S
C441 C436 1.429 . S
C441 C440 1.347 1_655 S
C83 C9 1.409 . S
C98 C59 1.279 . S
C113 C22 1.143 . S
C128 C65 1.169 . S
C143 C4 1.279 . S
C158 C56 1.161 . S
C173 C32 1.518 . S
C188 C81 1.433 . S
C203 C19 1.807 . S
C218 C47 1.683 . S
C248 C64 1.658 . S
C233 C38 1.768 . S
C263 C29 1.440 . S
C278 C60 1.283 . S
C308 C77 1.595 . S
C293 C18 1.765 . S
C338 C44 1.719 . S
C323 C39 1.794 . S
C368 C80 1.430 . S
C353 C12 1.487 . S
C398 C43 1.265 . S
C383 C24 1.223 . S
C428 C68 1.075 . S
C413 C2 1.257 . S
