# Generated by pormake.
# Topology pth, (4,4)-cn, num edge types: 1
# Building blocks:
#     Node 0, Type 0, BuildingBlock: QUQFOY_clean_sbu_1, # of connection points: 4
#     Node 1, Type 0, BuildingBlock: QUQFOY_clean_sbu_1, # of connection points: 4
#     Node 2, Type 0, BuildingBlock: QUQFOY_clean_sbu_1, # of connection points: 4
#     Node 3, Type 1, BuildingBlock: KOZSID_clean_sbu_0, # of connection points: 4
#     Node 4, Type 1, BuildingBlock: KOZSID_clean_sbu_0, # of connection points: 4
#     Node 5, Type 1, BuildingBlock: KOZSID_clean_sbu_0, # of connection points: 4
#     Edge 6, Type (0, 1), BuildingBlock: XIVTED_clean_linker_0, # of connection points: 2
#     Edge 7, Type (0, 1), BuildingBlock: XIVTED_clean_linker_0, # of connection points: 2
#     Edge 8, Type (0, 1), BuildingBlock: XIVTED_clean_linker_0, # of connection points: 2
#     Edge 9, Type (0, 1), BuildingBlock: XIVTED_clean_linker_0, # of connection points: 2
#     Edge 10, Type (0, 1), BuildingBlock: XIVTED_clean_linker_0, # of connection points: 2
#     Edge 11, Type (0, 1), BuildingBlock: XIVTED_clean_linker_0, # of connection points: 2
#     Edge 12, Type (0, 1), BuildingBlock: XIVTED_clean_linker_0, # of connection points: 2
#     Edge 13, Type (0, 1), BuildingBlock: XIVTED_clean_linker_0, # of connection points: 2
#     Edge 14, Type (0, 1), BuildingBlock: XIVTED_clean_linker_0, # of connection points: 2
#     Edge 15, Type (0, 1), BuildingBlock: XIVTED_clean_linker_0, # of connection points: 2
#     Edge 16, Type (0, 1), BuildingBlock: XIVTED_clean_linker_0, # of connection points: 2
#     Edge 17, Type (0, 1), BuildingBlock: XIVTED_clean_linker_0, # of connection points: 2
# Relax obj value: 0.022
# Max RMSD: 0.125
# Mean RMSD: 0.072
data_MOF--net-pth--node1-QUQFOY_clean_sbu_1--node2-KOZSID_clean_sbu_0--edge1-XIVTED_clean_linker_0
_symmetry_space_group_name_H-M    P1
_symmetry_Int_Tables_number       1
_symmetry_cell_setting            triclinic
loop_
_symmetry_equiv_pos_as_xyz
'x, y, z'
_cell_length_a     25.774385
_cell_length_b     28.165214
_cell_length_c     62.987465
_cell_angle_alpha  87.39177
_cell_angle_beta   87.283616
_cell_angle_gamma 120.10469
loop_
_atom_site_label
_atom_site_type_symbol
_atom_site_fract_x
_atom_site_fract_y
_atom_site_fract_z
_atom_type_partial_charge
O0 O 0.1102 0.13095 0.03144 0.0
Cd1 Cd 0.03531 0.07455 0.0508 0.0
Cd2 Cd 0.099 0.02228 0.04982 0.0
O3 O 0.1695 0.09677 0.03681 0.0
O4 O 0.99684 0.11821 0.05853 0.0
O5 O 0.03815 0.08907 0.0819 0.0
C6 C 0.01325 0.11797 0.07753 0.0
C7 C 0.10659 0.9669 0.07674 0.0
C8 C 0.16137 0.13469 0.02895 0.0
C9 C 0.98379 0.97212 0.02834 0.0
O10 O 0.03509 0.9768 0.0297 0.0
O11 O 0.97064 0.00414 0.03781 0.0
O12 O 0.13149 0.97364 0.05775 0.0
O13 O 0.08098 0.9952 0.08095 0.0
O14 O 0.00233 0.10204 0.39148 0.0
Cd15 Cd 0.07725 0.12072 0.37175 0.0
Cd16 Cd 0.01992 0.0083 0.37499 0.0
O17 O 0.94848 0.01229 0.38914 0.0
O18 O 0.11007 0.20041 0.36373 0.0
O19 O 0.07314 0.13715 0.34053 0.0
C20 C 0.09443 0.18782 0.34474 0.0
C21 C 0.00922 0.94689 0.34951 0.0
C22 C 0.95379 0.0564 0.39571 0.0
C23 C 0.13785 0.07009 0.39481 0.0
O24 O 0.089 0.02506 0.39377 0.0
O25 O 0.14595 0.11426 0.38513 0.0
O26 O 0.9891 0.93011 0.36914 0.0
O27 O 0.03247 0.99876 0.34396 0.0
O28 O 0.98523 0.02273 0.69933 0.0
Cd29 Cd 0.03944 0.0029 0.71582 0.0
Cd30 Cd 0.10776 0.11546 0.71491 0.0
O31 O 0.03481 0.11277 0.70114 0.0
O32 O 0.98565 0.92305 0.72432 0.0
O33 O 0.02105 0.98615 0.74765 0.0
C34 C 0.98691 0.93531 0.74383 0.0
C35 C 0.15513 0.1734 0.74172 0.0
C36 C 0.98999 0.06943 0.69544 0.0
C37 C 0.16049 0.05571 0.69184 0.0
O38 O 0.16519 0.10135 0.696 0.0
O39 O 0.11435 0.01042 0.69894 0.0
O40 O 0.15953 0.19256 0.72233 0.0
O41 O 0.12089 0.12097 0.74623 0.0
C42 C 0.10941 0.6506 0.17683 0.0
C43 C 0.16519 0.69075 0.16729 0.0
C44 C 0.20725 0.68294 0.1766 0.0
C45 C 0.17505 0.63879 0.19125 0.0
N46 N 0.11487 0.61756 0.19179 0.0
Co47 Co 0.05185 0.55346 0.21091 0.0
N48 N 0.11444 0.54691 0.22643 0.0
C49 C 0.17471 0.58084 0.2235 0.0
C50 C 0.20653 0.56606 0.23633 0.0
C51 C 0.16413 0.51959 0.24808 0.0
C52 C 0.10855 0.50871 0.24172 0.0
N53 N 0.98889 0.48721 0.22921 0.0
C54 C 0.99491 0.45278 0.24335 0.0
C55 C 0.93944 0.40905 0.2514 0.0
C56 C 0.89683 0.41549 0.24172 0.0
C57 C 0.92856 0.46254 0.22836 0.0
N58 N 0.98935 0.56227 0.19622 0.0
C59 C 0.92898 0.5316 0.20052 0.0
C60 C 0.89763 0.54972 0.18895 0.0
C61 C 0.94056 0.59536 0.17682 0.0
C62 C 0.99581 0.6024 0.1817 0.0
N63 N 0.0511 0.50251 0.1899 0.0
C64 C 0.0448 0.42059 0.16412 0.0
C65 C 0.99444 0.42569 0.16883 0.0
C66 C 0.99857 0.46651 0.18153 0.0
C67 C 0.09913 0.45862 0.17192 0.0
C68 C 0.10142 0.49933 0.18451 0.0
N69 N 0.05179 0.60399 0.23197 0.0
C70 C 0.99609 0.62862 0.25666 0.0
C71 C 0.04707 0.67958 0.2588 0.0
C72 C 0.1011 0.69151 0.24771 0.0
C73 C 0.1026 0.65316 0.23463 0.0
C74 C 0.99942 0.59188 0.24336 0.0
H75 H 0.14514 0.66441 0.22665 0.0
H76 H 0.95851 0.55433 0.24231 0.0
H77 H 0.95806 0.46713 0.18471 0.0
H78 H 0.14415 0.52728 0.18995 0.0
C79 C 0.20025 0.62142 0.20664 0.0
C80 C 0.05311 0.64796 0.17221 0.0
C81 C 0.05198 0.4596 0.24955 0.0
C82 C 0.90321 0.48534 0.21516 0.0
H83 H 0.1749 0.72367 0.15539 0.0
H84 H 0.25567 0.70816 0.17378 0.0
H85 H 0.25492 0.58519 0.23638 0.0
H86 H 0.17347 0.49543 0.25945 0.0
H87 H 0.93078 0.37576 0.26295 0.0
H88 H 0.84849 0.38885 0.24404 0.0
H89 H 0.84934 0.53204 0.18938 0.0
H90 H 0.93223 0.62083 0.16574 0.0
H91 H 0.9512 0.39719 0.16328 0.0
H92 H 0.13975 0.45708 0.16832 0.0
H93 H 0.95302 0.61749 0.26477 0.0
H94 H 0.1421 0.73011 0.24917 0.0
C95 C 0.46458 0.02061 0.57878 0.0
C96 C 0.42333 0.9698 0.58922 0.0
C97 C 0.43034 0.93121 0.57928 0.0
C98 C 0.47576 0.96047 0.5636 0.0
N99 N 0.49846 0.01552 0.56292 0.0
Co100 Co 0.56869 0.07335 0.5439 0.0
N101 N 0.5765 0.01604 0.52854 0.0
C102 C 0.54022 0.96077 0.53174 0.0
C103 C 0.55326 0.93185 0.51769 0.0
C104 C 0.60088 0.97088 0.5047 0.0
C105 C 0.61484 0.02164 0.51185 0.0
N106 N 0.64045 0.13109 0.5254 0.0
C107 C 0.67582 0.12583 0.51013 0.0
C108 C 0.72386 0.17676 0.50229 0.0
C109 C 0.71811 0.21549 0.5127 0.0
C110 C 0.66756 0.18625 0.52642 0.0
N111 N 0.55899 0.13051 0.55867 0.0
C112 C 0.5924 0.18577 0.55439 0.0
C113 C 0.57286 0.21447 0.56605 0.0
C114 C 0.52377 0.17527 0.57848 0.0
C115 C 0.51659 0.12464 0.57386 0.0
N116 N 0.62365 0.07434 0.56522 0.0
C117 C 0.70195 0.07646 0.59554 0.0
C118 C 0.70161 0.12421 0.5888 0.0
C119 C 0.66277 0.12229 0.57373 0.0
C120 C 0.66223 0.02751 0.58682 0.0
C121 C 0.62372 0.02734 0.57187 0.0
N122 N 0.51403 0.07271 0.52263 0.0
C123 C 0.48605 0.12162 0.4974 0.0
C124 C 0.43573 0.07257 0.49274 0.0
C125 C 0.42569 0.02346 0.50326 0.0
C126 C 0.46482 0.02449 0.5181 0.0
C127 C 0.52438 0.12072 0.51213 0.0
H128 H 0.45432 0.98581 0.52574 0.0
H129 H 0.56188 0.15953 0.51484 0.0
H130 H 0.66535 0.16031 0.5693 0.0
H131 H 0.59461 0.9887 0.56589 0.0
C132 C 0.49554 0.93718 0.54853 0.0
C133 C 0.46876 0.07219 0.58422 0.0
C134 C 0.66582 0.07373 0.50262 0.0
C135 C 0.64292 0.20944 0.53974 0.0
H136 H 0.39106 0.96129 0.60256 0.0
H137 H 0.40486 0.88703 0.58288 0.0
H138 H 0.53094 0.88764 0.51702 0.0
H139 H 0.62291 0.96266 0.49152 0.0
H140 H 0.75952 0.18525 0.4903 0.0
H141 H 0.74718 0.25974 0.51045 0.0
H142 H 0.59196 0.25864 0.56554 0.0
H143 H 0.49636 0.18326 0.58963 0.0
H144 H 0.73073 0.16308 0.59526 0.0
H145 H 0.66124 0.98944 0.59123 0.0
H146 H 0.49557 0.16095 0.49003 0.0
H147 H 0.388 0.98412 0.50003 0.0
C148 C 0.6803 0.60153 0.85861 0.0
C149 C 0.72718 0.59423 0.85109 0.0
C150 C 0.72048 0.54871 0.8623 0.0
C151 C 0.67026 0.53092 0.87599 0.0
N152 N 0.64419 0.56217 0.8742 0.0
Co153 Co 0.57035 0.5508 0.89115 0.0
N154 N 0.56439 0.48718 0.90901 0.0
C155 C 0.6034 0.46832 0.90811 0.0
C156 C 0.58987 0.4264 0.92321 0.0
C157 C 0.53878 0.41751 0.93435 0.0
C158 C 0.52353 0.45418 0.92513 0.0
N159 N 0.49517 0.53803 0.90759 0.0
C160 C 0.45819 0.4975 0.92274 0.0
C161 C 0.40769 0.50108 0.9286 0.0
C162 C 0.41321 0.54562 0.91695 0.0
C163 C 0.46612 0.56634 0.90449 0.0
N164 N 0.57807 0.61609 0.87384 0.0
C165 C 0.54152 0.63751 0.87569 0.0
C166 C 0.55961 0.68381 0.86235 0.0
C167 C 0.61134 0.69309 0.8515 0.0
C168 C 0.62181 0.65169 0.85889 0.0
N169 N 0.51944 0.50013 0.87018 0.0
C170 C 0.44186 0.42584 0.84212 0.0
C171 C 0.43979 0.47301 0.84647 0.0
C172 C 0.47847 0.50913 0.86036 0.0
C173 C 0.48401 0.41669 0.85189 0.0
C174 C 0.52243 0.45432 0.86564 0.0
N175 N 0.62076 0.60145 0.91211 0.0
C176 C 0.64314 0.67649 0.93418 0.0
C177 C 0.69544 0.67799 0.94011 0.0
C178 C 0.70886 0.63945 0.93215 0.0
C179 C 0.67132 0.60197 0.91826 0.0
C180 C 0.6067 0.63811 0.92042 0.0
H181 H 0.68439 0.57415 0.91256 0.0
H182 H 0.56782 0.63955 0.9165 0.0
H183 H 0.47368 0.54371 0.86303 0.0
H184 H 0.55393 0.44536 0.87249 0.0
C185 C 0.65046 0.48883 0.89219 0.0
C186 C 0.67377 0.64791 0.85115 0.0
C187 C 0.46839 0.45421 0.9316 0.0
C188 C 0.48984 0.61242 0.88983 0.0
H189 H 0.76347 0.61991 0.83913 0.0
H190 H 0.74998 0.5318 0.86115 0.0
H191 H 0.61378 0.40437 0.92561 0.0
H192 H 0.51494 0.3868 0.94756 0.0
H193 H 0.3702 0.47403 0.93991 0.0
H194 H 0.38198 0.56071 0.91733 0.0
H195 H 0.53784 0.708 0.86074 0.0
H196 H 0.63837 0.72659 0.83952 0.0
H197 H 0.40749 0.48169 0.83951 0.0
H198 H 0.48783 0.38101 0.84879 0.0
H199 H 0.63087 0.7057 0.93966 0.0
H200 H 0.7482 0.63805 0.93656 0.0
H201 H 0.06356 0.14426 0.1159 0.0
H202 H 0.98254 0.38213 0.12883 0.0
H203 H 0.95701 0.17781 0.07353 0.0
H204 H 0.09467 0.35516 0.17068 0.0
H205 H 0.96919 0.30419 0.10954 0.0
H206 H 0.0701 0.21665 0.13776 0.0
C207 C 0.04071 0.16617 0.11138 0.0
C208 C 0.00985 0.15503 0.0928 0.0
C209 C 0.99675 0.31519 0.12294 0.0
C210 C 0.01792 0.23841 0.11754 0.0
C211 C 0.0043 0.35972 0.13401 0.0
C212 C 0.03967 0.37523 0.15147 0.0
C213 C 0.02471 0.28561 0.1293 0.0
C214 C 0.06754 0.34507 0.15719 0.0
C215 C 0.04487 0.20779 0.12378 0.0
C216 C 0.98148 0.18504 0.08766 0.0
N217 N 0.05936 0.30164 0.14617 0.0
N218 N 0.9865 0.22545 0.09986 0.0
H219 H 0.87406 0.97392 0.42492 0.0
H220 H 0.69139 0.11799 0.46124 0.0
H221 H 0.92435 0.13647 0.39818 0.0
H222 H 0.73556 0.02675 0.50643 0.0
H223 H 0.75875 0.11219 0.43375 0.0
H224 H 0.80197 0.97785 0.45072 0.0
C225 C 0.86913 0.00995 0.42426 0.0
C226 C 0.90517 0.05502 0.40951 0.0
C227 C 0.75355 0.09353 0.44971 0.0
C228 C 0.82306 0.05949 0.43865 0.0
C229 C 0.71557 0.09703 0.46533 0.0
C230 C 0.70843 0.07301 0.48604 0.0
C231 C 0.78303 0.06451 0.45477 0.0
C232 C 0.74002 0.0457 0.49059 0.0
C233 C 0.82853 0.01233 0.43904 0.0
C234 C 0.89754 0.10101 0.40942 0.0
N235 N 0.77554 0.04164 0.475 0.0
N236 N 0.85707 0.10203 0.42374 0.0
H237 H 0.97027 0.94761 0.78627 0.0
H238 H 0.69215 0.63908 0.80898 0.0
H239 H 0.90997 0.82614 0.73996 0.0
H240 H 0.75967 0.75305 0.85767 0.0
H241 H 0.77151 0.70846 0.78332 0.0
H242 H 0.89468 0.87783 0.81287 0.0
C243 C 0.94164 0.90619 0.78175 0.0
C244 C 0.94641 0.89278 0.76083 0.0
C245 C 0.76915 0.71851 0.79959 0.0
C246 C 0.85942 0.81303 0.79106 0.0
C247 C 0.72378 0.67902 0.81414 0.0
C248 C 0.71985 0.69076 0.8353 0.0
C249 C 0.81072 0.77023 0.80626 0.0
C250 C 0.76156 0.74284 0.84139 0.0
C251 C 0.89834 0.86644 0.79691 0.0
C252 C 0.90794 0.83848 0.75586 0.0
N253 N 0.80541 0.7808 0.82693 0.0
N254 N 0.86597 0.8008 0.7708 0.0
H255 H 0.05664 0.93998 0.11827 0.0
H256 H 0.07821 0.66607 0.12917 0.0
H257 H 0.14515 0.89408 0.07038 0.0
H258 H 0.0336 0.73078 0.18324 0.0
H259 H 0.09251 0.74534 0.10641 0.0
H260 H 0.04039 0.86107 0.14187 0.0
C261 C 0.07324 0.91376 0.1128 0.0
C262 C 0.10236 0.92376 0.0923 0.0
C263 C 0.07936 0.74225 0.12323 0.0
C264 C 0.08283 0.83296 0.11901 0.0
C265 C 0.0708 0.69688 0.13611 0.0
C266 C 0.05496 0.6924 0.15797 0.0
C267 C 0.07152 0.7832 0.13227 0.0
C268 C 0.04583 0.73313 0.16638 0.0
C269 C 0.06372 0.86863 0.12624 0.0
C270 C 0.12259 0.88818 0.08603 0.0
N271 N 0.05438 0.77705 0.1535 0.0
N272 N 0.11206 0.84427 0.09924 0.0
H273 H 0.1249 0.9874 0.42271 0.0
H274 H 0.46195 0.14032 0.45596 0.0
H275 H 0.25495 0.15324 0.39773 0.0
H276 H 0.31289 0.00563 0.49439 0.0
H277 H 0.39108 0.14106 0.43164 0.0
H278 H 0.19819 0.98817 0.44582 0.0
C279 C 0.16903 0.02401 0.42198 0.0
C280 C 0.18368 0.07045 0.40824 0.0
C281 C 0.37412 0.11143 0.44542 0.0
C282 C 0.26811 0.07138 0.43481 0.0
C283 C 0.41444 0.11106 0.4594 0.0
C284 C 0.3936 0.07282 0.47738 0.0
C285 C 0.31256 0.07287 0.44925 0.0
C286 C 0.3315 0.03522 0.48062 0.0
C287 C 0.21079 0.02443 0.43529 0.0
C288 C 0.24166 0.11663 0.40811 0.0
N289 N 0.29335 0.03614 0.46669 0.0
N290 N 0.28193 0.1159 0.42119 0.0
H291 H 0.22064 0.28557 0.73779 0.0
H292 H 0.37833 0.31254 0.84673 0.0
H293 H 0.17521 0.14566 0.78172 0.0
H294 H 0.4095 0.45054 0.80429 0.0
H295 H 0.30541 0.25005 0.82314 0.0
H296 H 0.28971 0.34609 0.76236 0.0
C297 C 0.2248 0.26756 0.75272 0.0
C298 C 0.19207 0.21039 0.75768 0.0
C299 C 0.32822 0.29402 0.81903 0.0
C300 C 0.27204 0.27972 0.78591 0.0
C301 C 0.3702 0.32966 0.83239 0.0
C302 C 0.39991 0.3869 0.82753 0.0
C303 C 0.31618 0.31578 0.80062 0.0
C304 C 0.38709 0.40681 0.80885 0.0
C305 C 0.26447 0.30221 0.76675 0.0
C306 C 0.19941 0.18951 0.77729 0.0
N307 N 0.34632 0.37138 0.79612 0.0
N308 N 0.23893 0.22415 0.79064 0.0
H309 H 0.87763 0.98594 0.68915 0.0
H310 H 0.8183 0.15827 0.59981 0.0
H311 H 0.99816 0.15992 0.6735 0.0
H312 H 0.68083 0.99802 0.62771 0.0
H313 H 0.88577 0.15942 0.62595 0.0
H314 H 0.80589 0.98925 0.66615 0.0
C315 C 0.88886 0.02499 0.68097 0.0
C316 C 0.94417 0.07271 0.68317 0.0
C317 C 0.84073 0.12416 0.62641 0.0
C318 C 0.86226 0.07661 0.65657 0.0
C319 C 0.80197 0.12349 0.61152 0.0
C320 C 0.74356 0.07789 0.61146 0.0
C321 C 0.8213 0.07871 0.64127 0.0
C322 C 0.72566 0.03365 0.62683 0.0
C323 C 0.84778 0.02684 0.66785 0.0
C324 C 0.95605 0.12218 0.67228 0.0
N325 N 0.76443 0.03509 0.64102 0.0
N326 N 0.91567 0.12274 0.65926 0.0
H327 H 0.00627 0.91139 0.00094 0.0
H328 H 0.66592 0.72096 0.97403 0.0
H329 H 0.86259 0.93461 0.02626 0.0
H330 H 0.81886 0.73278 0.93764 0.0
H331 H 0.73488 0.79347 0.99545 0.0
H332 H 0.93575 0.83984 0.98 0.0
C333 C 0.95977 0.90145 0.00213 0.0
C334 C 0.94038 0.92917 0.01543 0.0
C335 C 0.75318 0.78009 0.98276 0.0
C336 C 0.85897 0.84663 0.99136 0.0
C337 C 0.7139 0.7388 0.97045 0.0
C338 C 0.73644 0.7205 0.95392 0.0
C339 C 0.81548 0.80299 0.97865 0.0
C340 C 0.79912 0.74464 0.95038 0.0
C341 C 0.91951 0.86057 0.99008 0.0
C342 C 0.87953 0.91444 0.01618 0.0
N343 N 0.83629 0.78447 0.96264 0.0
N344 N 0.84083 0.87393 0.00436 0.0
H345 H 0.06422 0.9701 0.30881 0.0
H346 H 0.98586 0.65884 0.29796 0.0
H347 H 0.95734 0.83541 0.3563 0.0
H348 H 0.09806 0.79159 0.25042 0.0
H349 H 0.97326 0.72348 0.31892 0.0
H350 H 0.07395 0.90572 0.28628 0.0
C351 C 0.0422 0.92695 0.31439 0.0
C352 C 0.01001 0.90817 0.33451 0.0
C353 C 1.00073 0.73866 0.30392 0.0
C354 C 0.02154 0.83451 0.30894 0.0
C355 C 0.00783 0.70166 0.2919 0.0
C356 C 0.04286 0.7197 0.27233 0.0
C357 C 0.02876 0.7944 0.29639 0.0
C358 C 0.07108 0.77594 0.2655 0.0
C359 C 0.04809 0.89029 0.30158 0.0
C360 C 0.98273 0.85186 0.34095 0.0
N361 N 0.06325 0.81128 0.27748 0.0
N362 N 0.98931 0.8172 0.32828 0.0
H363 H 0.2793 0.13467 0.68623 0.0
H364 H 0.34769 0.0243 0.58169 0.0
H365 H 0.14917 0.97823 0.66486 0.0
H366 H 0.48743 0.11563 0.62302 0.0
H367 H 0.27256 0.01735 0.60908 0.0
H368 H 0.35571 0.13834 0.66042 0.0
C369 C 0.26696 0.10097 0.67618 0.0
C370 C 0.20793 0.05602 0.67766 0.0
C371 C 0.31969 0.03892 0.61212 0.0
C372 C 0.29448 0.06067 0.64791 0.0
C373 C 0.36236 0.04312 0.59652 0.0
C374 C 0.42351 0.07067 0.60021 0.0
C375 C 0.33857 0.0635 0.63129 0.0
C376 C 0.44061 0.09444 0.61961 0.0
C377 C 0.31052 0.10308 0.66153 0.0
C378 C 0.19428 0.01342 0.6643 0.0
N379 N 0.39833 0.09071 0.63442 0.0
N380 N 0.23709 0.01712 0.64975 0.0
H381 H 0.25251 0.13896 0.00331 0.0
H382 H 0.4251 0.45991 0.97143 0.0
H383 H 0.18114 0.23934 0.02521 0.0
H384 H 0.40799 0.34464 0.92567 0.0
H385 H 0.35144 0.38243 0.99626 0.0
H386 H 0.32831 0.21798 0.97968 0.0
C387 C 0.25336 0.1778 0.00334 0.0
C388 C 0.21055 0.18277 0.01611 0.0
C389 C 0.36386 0.37434 0.98074 0.0
C390 C 0.29695 0.27277 0.98951 0.0
C391 C 0.40541 0.4183 0.96661 0.0
C392 C 0.42186 0.40837 0.94649 0.0
C393 C 0.34025 0.32025 0.97488 0.0
C394 C 0.39613 0.35376 0.94106 0.0
C395 C 0.29616 0.22255 0.9898 0.0
C396 C 0.21322 0.23385 0.01548 0.0
N397 N 0.35697 0.31159 0.95527 0.0
N398 N 0.25597 0.27709 0.00247 0.0
H399 H 0.13339 0.29582 0.35012 0.0
H400 H 0.03222 0.35913 0.23912 0.0
H401 H 0.05455 0.17409 0.30442 0.0
H402 H 0.07645 0.46317 0.29122 0.0
H403 H 0.0452 0.29232 0.26142 0.0
H404 H 0.12138 0.36056 0.3269 0.0
C405 C 0.11416 0.28283 0.33507 0.0
C406 C 0.09481 0.22927 0.32926 0.0
C407 C 0.0517 0.32958 0.26802 0.0
C408 C 0.0802 0.3034 0.3026 0.0
C409 C 0.04399 0.36737 0.25537 0.0
C410 C 0.05332 0.41632 0.26349 0.0
C411 C 0.06933 0.34129 0.28882 0.0
C412 C 0.06888 0.42571 0.2845 0.0
C413 C 0.1069 0.3198 0.32186 0.0
C414 C 0.07016 0.21495 0.30953 0.0
N415 N 0.0768 0.38873 0.29641 0.0
N416 N 0.06334 0.25176 0.29692 0.0
loop_
_geom_bond_atom_site_label_1
_geom_bond_atom_site_label_2
_geom_bond_distance
_geom_bond_site_symmetry_2
_ccdc_geom_bond_type
O0 Cd1 2.223 . S
O0 C8 1.315 . S
Cd1 O0 2.223 . S
Cd1 O4 2.297 . S
Cd1 O5 2.439 . S
Cd1 O11 2.262 . S
Cd2 O3 2.240 . S
Cd2 O10 2.223 1_545 S
Cd2 O12 2.297 1_545 S
Cd2 O13 2.439 1_545 S
O3 Cd2 2.240 . S
O3 C8 1.279 . S
O4 Cd1 2.297 . S
O4 C6 1.247 . S
O5 Cd1 2.439 . S
O5 C6 1.208 . S
C6 O4 1.247 . S
C6 O5 1.208 . S
C7 O12 1.247 . S
C7 O13 1.208 . S
C8 O0 1.315 . S
C8 O3 1.279 . S
C9 O10 1.315 . S
C9 O11 1.268 1_565 S
O10 Cd2 2.223 1_565 S
O10 C9 1.315 . S
O11 Cd1 2.262 . S
O11 C9 1.268 1_545 S
O12 Cd2 2.297 1_565 S
O12 C7 1.247 . S
O13 Cd2 2.439 1_565 S
O13 C7 1.208 . S
O14 Cd15 2.223 . S
O14 C22 1.315 1_455 S
Cd15 O14 2.223 . S
Cd15 O18 2.297 . S
Cd15 O19 2.439 . S
Cd15 O25 2.240 . S
Cd16 O17 2.240 1_565 S
Cd16 O24 2.223 1_665 S
Cd16 O26 2.297 1_655 S
Cd16 O27 2.439 1_665 S
O17 Cd16 2.240 1_545 S
O17 C22 1.279 . S
O18 Cd15 2.297 . S
O18 C20 1.247 . S
O19 Cd15 2.439 . S
O19 C20 1.208 . S
C20 O18 1.247 . S
C20 O19 1.208 . S
C21 O26 1.247 . S
C21 O27 1.208 1_565 S
C22 O14 1.315 1_655 S
C22 O17 1.279 . S
C23 O24 1.315 . S
C23 O25 1.279 . S
O24 Cd16 2.223 1_445 S
O24 C23 1.315 . S
O25 Cd15 2.240 . S
O25 C23 1.279 . S
O26 Cd16 2.297 1_455 S
O26 C21 1.247 . S
O27 Cd16 2.439 1_445 S
O27 C21 1.208 1_545 S
O28 Cd29 2.223 1_655 S
O28 C36 1.315 1_565 S
Cd29 O28 2.223 1_455 S
Cd29 O32 2.297 1_455 S
Cd29 O33 2.439 1_455 S
Cd29 O39 2.240 1_565 S
Cd30 O31 2.240 . S
Cd30 O38 2.223 . S
Cd30 O40 2.297 . S
Cd30 O41 2.439 . S
O31 Cd30 2.240 . S
O31 C36 1.279 1_455 S
O32 Cd29 2.297 1_655 S
O32 C34 1.247 . S
O33 Cd29 2.439 1_655 S
O33 C34 1.208 . S
C34 O32 1.247 . S
C34 O33 1.208 . S
C35 O40 1.247 . S
C35 O41 1.208 . S
C36 O28 1.315 1_545 S
C36 O31 1.279 1_655 S
C37 O38 1.315 . S
C37 O39 1.279 . S
O38 Cd30 2.223 . S
O38 C37 1.315 . S
O39 Cd29 2.240 1_545 S
O39 C37 1.279 . S
O40 Cd30 2.297 . S
O40 C35 1.247 . S
O41 Cd30 2.439 . S
O41 C35 1.208 . S
C42 C43 1.443 . S
C42 N46 1.376 . S
C42 C80 1.389 . S
C43 C42 1.443 . S
C43 C44 1.340 . S
C43 H83 0.951 . S
C44 C43 1.340 . S
C44 C45 1.439 . S
C44 H84 0.950 . S
C45 C44 1.439 . S
C45 N46 1.374 . S
C45 C79 1.395 . S
N46 C42 1.376 . S
N46 C45 1.374 . S
N46 Co47 2.008 . S
Co47 N46 2.008 . S
Co47 N48 1.995 . S
Co47 N53 2.008 1_455 S
Co47 N58 1.995 1_455 S
Co47 N63 2.282 . S
Co47 N69 2.282 . S
N48 Co47 1.995 . S
N48 C49 1.376 . S
N48 C52 1.383 . S
C49 N48 1.376 . S
C49 C50 1.446 . S
C49 C79 1.391 . S
C50 C49 1.446 . S
C50 C51 1.339 . S
C50 H85 0.949 . S
C51 C50 1.339 . S
C51 C52 1.439 . S
C51 H86 0.950 . S
C52 N48 1.383 . S
C52 C51 1.439 . S
C52 C81 1.392 . S
N53 Co47 2.008 1_655 S
N53 C54 1.376 . S
N53 C57 1.374 . S
C54 N53 1.376 . S
C54 C55 1.443 . S
C54 C81 1.389 1_655 S
C55 C54 1.443 . S
C55 C56 1.340 . S
C55 H87 0.951 . S
C56 C55 1.340 . S
C56 C57 1.439 . S
C56 H88 0.950 . S
C57 N53 1.374 . S
C57 C56 1.439 . S
C57 C82 1.395 . S
N58 Co47 1.995 1_655 S
N58 C59 1.376 . S
N58 C62 1.383 . S
C59 N58 1.376 . S
C59 C60 1.446 . S
C59 C82 1.391 . S
C60 C59 1.446 . S
C60 C61 1.339 . S
C60 H89 0.949 . S
C61 C60 1.339 . S
C61 C62 1.439 . S
C61 H90 0.950 . S
C62 N58 1.383 . S
C62 C61 1.439 . S
C62 C80 1.392 1_655 S
N63 Co47 2.282 . S
N63 C66 1.332 . S
N63 C68 1.332 . S
C64 C65 1.388 1_455 S
C64 C67 1.388 . S
C65 C64 1.388 1_655 S
C65 C66 1.381 1_655 S
C65 H91 0.949 . S
C66 N63 1.332 . S
C66 C65 1.381 1_455 S
C66 H77 0.952 1_455 S
C67 C64 1.388 . S
C67 C68 1.382 . S
C67 H92 0.950 . S
C68 N63 1.332 . S
C68 C67 1.382 . S
C68 H78 0.948 . S
N69 Co47 2.282 . S
N69 C73 1.332 . S
N69 C74 1.332 1_455 S
C70 C71 1.388 1_655 S
C70 C74 1.382 . S
C70 H93 0.950 . S
C71 C70 1.388 1_455 S
C71 C72 1.386 . S
C72 C71 1.386 . S
C72 C73 1.382 . S
C72 H94 0.950 . S
C73 N69 1.332 . S
C73 C72 1.382 . S
C73 H75 0.952 . S
C74 N69 1.332 1_655 S
C74 C70 1.382 . S
C74 H76 0.948 . S
H75 C73 0.952 . S
H76 C74 0.948 . S
H77 C66 0.952 1_655 S
H78 C68 0.948 . S
C79 C45 1.395 . S
C79 C49 1.391 . S
C80 C42 1.389 . S
C80 C62 1.392 1_455 S
C81 C52 1.392 . S
C81 C54 1.389 1_455 S
C82 C57 1.395 . S
C82 C59 1.391 . S
H83 C43 0.951 . S
H84 C44 0.950 . S
H85 C50 0.949 . S
H86 C51 0.950 . S
H87 C55 0.951 . S
H88 C56 0.950 . S
H89 C60 0.949 . S
H90 C61 0.950 . S
H91 C65 0.949 . S
H92 C67 0.950 . S
H93 C70 0.950 . S
H94 C72 0.950 . S
C95 C96 1.443 1_545 S
C95 N99 1.376 . S
C95 C133 1.389 . S
C96 C95 1.443 1_565 S
C96 C97 1.340 . S
C96 H136 0.951 . S
C97 C96 1.340 . S
C97 C98 1.439 . S
C97 H137 0.950 . S
C98 C97 1.439 . S
C98 N99 1.374 1_565 S
C98 C132 1.395 . S
N99 C95 1.376 . S
N99 C98 1.374 1_545 S
N99 Co100 2.008 . S
Co100 N99 2.008 . S
Co100 N101 1.995 . S
Co100 N106 2.008 . S
Co100 N111 1.995 . S
Co100 N116 2.282 . S
Co100 N122 2.282 . S
N101 Co100 1.995 . S
N101 C102 1.376 1_545 S
N101 C105 1.383 . S
C102 N101 1.376 1_565 S
C102 C103 1.446 . S
C102 C132 1.391 . S
C103 C102 1.446 . S
C103 C104 1.339 . S
C103 H138 0.949 . S
C104 C103 1.339 . S
C104 C105 1.439 1_565 S
C104 H139 0.950 . S
C105 N101 1.383 . S
C105 C104 1.439 1_545 S
C105 C134 1.392 . S
N106 Co100 2.008 . S
N106 C107 1.376 . S
N106 C110 1.374 . S
C107 N106 1.376 . S
C107 C108 1.443 . S
C107 C134 1.389 . S
C108 C107 1.443 . S
C108 C109 1.340 . S
C108 H140 0.951 . S
C109 C108 1.340 . S
C109 C110 1.439 . S
C109 H141 0.950 . S
C110 N106 1.374 . S
C110 C109 1.439 . S
C110 C135 1.395 . S
N111 Co100 1.995 . S
N111 C112 1.376 . S
N111 C115 1.383 . S
C112 N111 1.376 . S
C112 C113 1.446 . S
C112 C135 1.391 . S
C113 C112 1.446 . S
C113 C114 1.339 . S
C113 H142 0.949 . S
C114 C113 1.339 . S
C114 C115 1.439 . S
C114 H143 0.950 . S
C115 N111 1.383 . S
C115 C114 1.439 . S
C115 C133 1.392 . S
N116 Co100 2.282 . S
N116 C119 1.332 . S
N116 C121 1.332 . S
C117 C118 1.386 . S
C117 C120 1.388 . S
C118 C117 1.386 . S
C118 C119 1.382 . S
C118 H144 0.950 . S
C119 N116 1.332 . S
C119 C118 1.382 . S
C119 H130 0.952 . S
C120 C117 1.388 . S
C120 C121 1.382 . S
C120 H145 0.950 1_545 S
C121 N116 1.332 . S
C121 C120 1.382 . S
C121 H131 0.948 1_545 S
N122 Co100 2.282 . S
N122 C126 1.332 . S
N122 C127 1.332 . S
C123 C124 1.388 . S
C123 C127 1.382 . S
C123 H146 0.950 . S
C124 C123 1.388 . S
C124 C125 1.386 . S
C125 C124 1.386 . S
C125 C126 1.382 . S
C125 H147 0.950 1_545 S
C126 N122 1.332 . S
C126 C125 1.382 . S
C126 H128 0.952 1_545 S
C127 N122 1.332 . S
C127 C123 1.382 . S
C127 H129 0.948 . S
H128 C126 0.952 1_565 S
H129 C127 0.948 . S
H130 C119 0.952 . S
H131 C121 0.948 1_565 S
C132 C98 1.395 . S
C132 C102 1.391 . S
C133 C95 1.389 . S
C133 C115 1.392 . S
C134 C105 1.392 . S
C134 C107 1.389 . S
C135 C110 1.395 . S
C135 C112 1.391 . S
H136 C96 0.951 . S
H137 C97 0.950 . S
H138 C103 0.949 . S
H139 C104 0.950 . S
H140 C108 0.951 . S
H141 C109 0.950 . S
H142 C113 0.949 . S
H143 C114 0.950 . S
H144 C118 0.950 . S
H145 C120 0.950 1_565 S
H146 C123 0.950 . S
H147 C125 0.950 1_565 S
C148 C149 1.443 . S
C148 N152 1.376 . S
C148 C186 1.389 . S
C149 C148 1.443 . S
C149 C150 1.340 . S
C149 H189 0.951 . S
C150 C149 1.340 . S
C150 C151 1.439 . S
C150 H190 0.950 . S
C151 C150 1.439 . S
C151 N152 1.374 . S
C151 C185 1.395 . S
N152 C148 1.376 . S
N152 C151 1.374 . S
N152 Co153 2.008 . S
Co153 N152 2.008 . S
Co153 N154 1.995 . S
Co153 N159 2.008 . S
Co153 N164 1.995 . S
Co153 N169 2.282 . S
Co153 N175 2.282 . S
N154 Co153 1.995 . S
N154 C155 1.376 . S
N154 C158 1.383 . S
C155 N154 1.376 . S
C155 C156 1.446 . S
C155 C185 1.391 . S
C156 C155 1.446 . S
C156 C157 1.339 . S
C156 H191 0.949 . S
C157 C156 1.339 . S
C157 C158 1.439 . S
C157 H192 0.950 . S
C158 N154 1.383 . S
C158 C157 1.439 . S
C158 C187 1.392 . S
N159 Co153 2.008 . S
N159 C160 1.376 . S
N159 C163 1.374 . S
C160 N159 1.376 . S
C160 C161 1.443 . S
C160 C187 1.389 . S
C161 C160 1.443 . S
C161 C162 1.340 . S
C161 H193 0.951 . S
C162 C161 1.340 . S
C162 C163 1.439 . S
C162 H194 0.950 . S
C163 N159 1.374 . S
C163 C162 1.439 . S
C163 C188 1.395 . S
N164 Co153 1.995 . S
N164 C165 1.376 . S
N164 C168 1.383 . S
C165 N164 1.376 . S
C165 C166 1.446 . S
C165 C188 1.391 . S
C166 C165 1.446 . S
C166 C167 1.339 . S
C166 H195 0.949 . S
C167 C166 1.339 . S
C167 C168 1.439 . S
C167 H196 0.950 . S
C168 N164 1.383 . S
C168 C167 1.439 . S
C168 C186 1.392 . S
N169 Co153 2.282 . S
N169 C172 1.332 . S
N169 C174 1.332 . S
C170 C171 1.386 . S
C170 C173 1.388 . S
C171 C170 1.386 . S
C171 C172 1.382 . S
C171 H197 0.950 . S
C172 N169 1.332 . S
C172 C171 1.382 . S
C172 H183 0.952 . S
C173 C170 1.388 . S
C173 C174 1.382 . S
C173 H198 0.950 . S
C174 N169 1.332 . S
C174 C173 1.382 . S
C174 H184 0.948 . S
N175 Co153 2.282 . S
N175 C179 1.332 . S
N175 C180 1.332 . S
C176 C177 1.388 . S
C176 C180 1.382 . S
C176 H199 0.950 . S
C177 C176 1.388 . S
C177 C178 1.386 . S
C178 C177 1.386 . S
C178 C179 1.382 . S
C178 H200 0.950 . S
C179 N175 1.332 . S
C179 C178 1.382 . S
C179 H181 0.952 . S
C180 N175 1.332 . S
C180 C176 1.382 . S
C180 H182 0.948 . S
H181 C179 0.952 . S
H182 C180 0.948 . S
H183 C172 0.952 . S
H184 C174 0.948 . S
C185 C151 1.395 . S
C185 C155 1.391 . S
C186 C148 1.389 . S
C186 C168 1.392 . S
C187 C158 1.392 . S
C187 C160 1.389 . S
C188 C163 1.395 . S
C188 C165 1.391 . S
H189 C149 0.951 . S
H190 C150 0.950 . S
H191 C156 0.949 . S
H192 C157 0.950 . S
H193 C161 0.951 . S
H194 C162 0.950 . S
H195 C166 0.949 . S
H196 C167 0.950 . S
H197 C171 0.950 . S
H198 C173 0.950 . S
H199 C176 0.950 . S
H200 C178 0.950 . S
H201 C207 0.930 . S
H202 C211 0.930 1_655 S
H203 C216 0.929 1_655 S
H204 C214 0.929 . S
H205 C209 0.929 1_655 S
H206 C215 0.929 . S
C207 H201 0.930 . S
C207 C208 1.367 . S
C207 C215 1.378 . S
C208 C207 1.367 . S
C208 C216 1.433 . S
C209 H205 0.929 1_455 S
C209 C211 1.378 . S
C209 C213 1.350 . S
C210 C213 1.463 . S
C210 C215 1.350 . S
C210 N218 1.427 . S
C211 H202 0.930 1_455 S
C211 C209 1.378 . S
C211 C212 1.367 . S
C212 C211 1.367 . S
C212 C214 1.433 . S
C213 C209 1.350 . S
C213 C210 1.463 . S
C213 N217 1.427 . S
C214 H204 0.929 . S
C214 C212 1.433 . S
C214 N217 1.384 . S
C215 H206 0.929 . S
C215 C207 1.378 . S
C215 C210 1.350 . S
C216 H203 0.929 1_455 S
C216 C208 1.433 . S
C216 N218 1.384 . S
N217 C213 1.427 . S
N217 C214 1.384 . S
N218 C210 1.427 . S
N218 C216 1.384 . S
H219 C225 0.930 . S
H220 C229 0.930 . S
H221 C234 0.929 . S
H222 C232 0.929 . S
H223 C227 0.929 . S
H224 C233 0.929 . S
C225 H219 0.930 . S
C225 C226 1.367 . S
C225 C233 1.378 . S
C226 C225 1.367 . S
C226 C234 1.433 . S
C227 H223 0.929 . S
C227 C229 1.378 . S
C227 C231 1.350 . S
C228 C231 1.463 . S
C228 C233 1.350 . S
C228 N236 1.427 . S
C229 H220 0.930 . S
C229 C227 1.378 . S
C229 C230 1.367 . S
C230 C229 1.367 . S
C230 C232 1.433 . S
C231 C227 1.350 . S
C231 C228 1.463 . S
C231 N235 1.427 . S
C232 H222 0.929 . S
C232 C230 1.433 . S
C232 N235 1.384 . S
C233 H224 0.929 . S
C233 C225 1.378 . S
C233 C228 1.350 . S
C234 H221 0.929 . S
C234 C226 1.433 . S
C234 N236 1.384 . S
N235 C231 1.427 . S
N235 C232 1.384 . S
N236 C228 1.427 . S
N236 C234 1.384 . S
H237 C243 0.930 . S
H238 C247 0.930 . S
H239 C252 0.929 . S
H240 C250 0.929 . S
H241 C245 0.929 . S
H242 C251 0.929 . S
C243 H237 0.930 . S
C243 C244 1.367 . S
C243 C251 1.378 . S
C244 C243 1.367 . S
C244 C252 1.433 . S
C245 H241 0.929 . S
C245 C247 1.378 . S
C245 C249 1.350 . S
C246 C249 1.463 . S
C246 C251 1.350 . S
C246 N254 1.427 . S
C247 H238 0.930 . S
C247 C245 1.378 . S
C247 C248 1.367 . S
C248 C247 1.367 . S
C248 C250 1.433 . S
C249 C245 1.350 . S
C249 C246 1.463 . S
C249 N253 1.427 . S
C250 H240 0.929 . S
C250 C248 1.433 . S
C250 N253 1.384 . S
C251 H242 0.929 . S
C251 C243 1.378 . S
C251 C246 1.350 . S
C252 H239 0.929 . S
C252 C244 1.433 . S
C252 N254 1.384 . S
N253 C249 1.427 . S
N253 C250 1.384 . S
N254 C246 1.427 . S
N254 C252 1.384 . S
H255 C261 0.930 1_655 S
H256 C265 0.930 . S
H257 C270 0.929 . S
H258 C268 0.929 . S
H259 C263 0.929 . S
H260 C269 0.929 1_655 S
C261 H255 0.930 1_455 S
C261 C262 1.367 . S
C261 C269 1.378 . S
C262 C261 1.367 . S
C262 C270 1.433 . S
C263 H259 0.929 . S
C263 C265 1.378 . S
C263 C267 1.350 . S
C264 C267 1.463 . S
C264 C269 1.350 . S
C264 N272 1.427 . S
C265 H256 0.930 . S
C265 C263 1.378 . S
C265 C266 1.367 . S
C266 C265 1.367 . S
C266 C268 1.433 1_455 S
C267 C263 1.350 . S
C267 C264 1.463 . S
C267 N271 1.426 . S
C268 H258 0.929 . S
C268 C266 1.433 1_655 S
C268 N271 1.383 1_655 S
C269 H260 0.929 1_455 S
C269 C261 1.378 . S
C269 C264 1.350 . S
C270 H257 0.929 . S
C270 C262 1.433 . S
C270 N272 1.384 . S
N271 C267 1.426 . S
N271 C268 1.383 1_455 S
N272 C264 1.427 . S
N272 C270 1.384 . S
H273 C279 0.930 1_565 S
H274 C283 0.930 . S
H275 C288 0.929 . S
H276 C286 0.929 1_565 S
H277 C281 0.929 . S
H278 C287 0.929 1_565 S
C279 H273 0.930 1_545 S
C279 C280 1.367 . S
C279 C287 1.378 . S
C280 C279 1.367 . S
C280 C288 1.433 . S
C281 H277 0.929 . S
C281 C283 1.378 . S
C281 C285 1.350 . S
C282 C285 1.463 . S
C282 C287 1.350 . S
C282 N290 1.427 . S
C283 H274 0.930 . S
C283 C281 1.378 . S
C283 C284 1.367 . S
C284 C283 1.367 . S
C284 C286 1.433 . S
C285 C281 1.350 . S
C285 C282 1.463 . S
C285 N289 1.427 . S
C286 H276 0.929 1_545 S
C286 C284 1.433 . S
C286 N289 1.384 . S
C287 H278 0.929 1_545 S
C287 C279 1.378 . S
C287 C282 1.350 . S
C288 H275 0.929 . S
C288 C280 1.433 . S
C288 N290 1.384 . S
N289 C285 1.427 . S
N289 C286 1.384 . S
N290 C282 1.427 . S
N290 C288 1.384 . S
H291 C297 0.930 . S
H292 C301 0.930 . S
H293 C306 0.929 . S
H294 C304 0.929 . S
H295 C299 0.929 . S
H296 C305 0.929 . S
C297 H291 0.930 . S
C297 C298 1.367 . S
C297 C305 1.378 . S
C298 C297 1.367 . S
C298 C306 1.433 . S
C299 H295 0.929 . S
C299 C301 1.378 . S
C299 C303 1.350 . S
C300 C303 1.463 . S
C300 C305 1.350 . S
C300 N308 1.427 . S
C301 H292 0.930 . S
C301 C299 1.378 . S
C301 C302 1.367 . S
C302 C301 1.367 . S
C302 C304 1.433 . S
C303 C299 1.350 . S
C303 C300 1.463 . S
C303 N307 1.427 . S
C304 H294 0.929 . S
C304 C302 1.433 . S
C304 N307 1.384 . S
C305 H296 0.929 . S
C305 C297 1.378 . S
C305 C300 1.350 . S
C306 H293 0.929 . S
C306 C298 1.433 . S
C306 N308 1.384 . S
N307 C303 1.427 . S
N307 C304 1.384 . S
N308 C300 1.427 . S
N308 C306 1.384 . S
H309 C315 0.950 . S
H310 C319 0.930 . S
H311 C324 0.929 1_455 S
H312 C322 0.929 1_565 S
H313 C317 0.929 . S
H314 C323 0.929 1_565 S
C315 H309 0.950 . S
C315 C316 1.357 1_565 S
C315 C323 1.368 1_565 S
C316 C315 1.357 1_545 S
C316 C324 1.433 . S
C317 H313 0.929 . S
C317 C319 1.378 . S
C317 C321 1.350 . S
C318 C321 1.463 . S
C318 C323 1.350 . S
C318 N326 1.427 . S
C319 H310 0.930 . S
C319 C317 1.378 . S
C319 C320 1.367 . S
C320 C319 1.367 . S
C320 C322 1.433 . S
C321 C317 1.350 . S
C321 C318 1.463 . S
C321 N325 1.427 . S
C322 H312 0.929 1_545 S
C322 C320 1.433 . S
C322 N325 1.384 . S
C323 H314 0.929 1_545 S
C323 C315 1.368 1_545 S
C323 C318 1.350 . S
C324 H311 0.929 1_655 S
C324 C316 1.433 . S
C324 N326 1.384 . S
N325 C321 1.427 . S
N325 C322 1.384 . S
N326 C318 1.427 . S
N326 C324 1.384 . S
H327 C333 0.930 1_455 S
H328 C337 0.930 . S
H329 C342 0.929 . S
H330 C340 0.929 . S
H331 C335 0.929 . S
H332 C341 0.929 . S
C333 H327 0.930 1_655 S
C333 C334 1.367 1_556 S
C333 C341 1.378 . S
C334 C333 1.367 1_554 S
C334 C342 1.433 . S
C335 H331 0.929 . S
C335 C337 1.378 . S
C335 C339 1.350 . S
C336 C339 1.463 . S
C336 C341 1.350 . S
C336 N344 1.472 . S
C337 H328 0.930 . S
C337 C335 1.378 . S
C337 C338 1.367 . S
C338 C337 1.367 . S
C338 C340 1.433 . S
C339 C335 1.350 . S
C339 C336 1.463 . S
C339 N343 1.427 . S
C340 H330 0.929 . S
C340 C338 1.433 . S
C340 N343 1.384 . S
C341 H332 0.929 . S
C341 C333 1.378 . S
C341 C336 1.350 . S
C342 H329 0.929 . S
C342 C334 1.433 . S
C342 N344 1.350 1_554 S
N343 C339 1.427 . S
N343 C340 1.384 . S
N344 C336 1.472 . S
N344 C342 1.350 1_556 S
H345 C351 0.930 . S
H346 C355 0.930 . S
H347 C360 0.929 . S
H348 C358 0.929 . S
H349 C353 0.929 . S
H350 C359 0.929 . S
C351 H345 0.930 . S
C351 C352 1.367 . S
C351 C359 1.378 . S
C352 C351 1.367 . S
C352 C360 1.433 1_455 S
C353 H349 0.929 . S
C353 C355 1.378 . S
C353 C357 1.350 1_655 S
C354 C357 1.463 . S
C354 C359 1.350 . S
C354 N362 1.427 1_455 S
C355 H346 0.930 . S
C355 C353 1.378 . S
C355 C356 1.367 1_655 S
C356 C355 1.367 1_455 S
C356 C358 1.433 . S
C357 C353 1.350 1_455 S
C357 C354 1.463 . S
C357 N361 1.427 . S
C358 H348 0.929 . S
C358 C356 1.433 . S
C358 N361 1.384 . S
C359 H350 0.929 . S
C359 C351 1.378 . S
C359 C354 1.350 . S
C360 H347 0.929 . S
C360 C352 1.433 1_655 S
C360 N362 1.384 . S
N361 C357 1.427 . S
N361 C358 1.384 . S
N362 C354 1.427 1_655 S
N362 C360 1.384 . S
H363 C369 0.930 . S
H364 C373 0.930 1_565 S
H365 C378 0.929 1_565 S
H366 C376 0.929 . S
H367 C371 0.929 1_565 S
H368 C377 0.929 . S
C369 H363 0.930 . S
C369 C370 1.367 . S
C369 C377 1.378 . S
C370 C369 1.367 . S
C370 C378 1.433 . S
C371 H367 0.929 1_545 S
C371 C373 1.378 . S
C371 C375 1.350 . S
C372 C375 1.463 . S
C372 C377 1.350 . S
C372 N380 1.427 . S
C373 H364 0.930 1_545 S
C373 C371 1.378 . S
C373 C374 1.367 . S
C374 C373 1.367 . S
C374 C376 1.433 . S
C375 C371 1.350 . S
C375 C372 1.463 . S
C375 N379 1.427 . S
C376 H366 0.929 . S
C376 C374 1.433 . S
C376 N379 1.384 . S
C377 H368 0.929 . S
C377 C369 1.378 . S
C377 C372 1.350 . S
C378 H365 0.929 1_545 S
C378 C370 1.433 . S
C378 N380 1.384 . S
N379 C375 1.427 . S
N379 C376 1.384 . S
N380 C372 1.427 . S
N380 C378 1.384 . S
H381 C387 0.930 . S
H382 C391 0.930 . S
H383 C396 0.929 . S
H384 C394 0.929 . S
H385 C389 0.929 . S
H386 C395 0.929 . S
C387 H381 0.930 . S
C387 C388 1.343 1_556 S
C387 C395 1.378 . S
C388 C387 1.343 1_554 S
C388 C396 1.444 . S
C389 H385 0.929 . S
C389 C391 1.378 . S
C389 C393 1.350 . S
C390 C393 1.463 . S
C390 C395 1.350 . S
C390 N398 1.427 . S
C391 H382 0.930 . S
C391 C389 1.378 . S
C391 C392 1.367 . S
C392 C391 1.367 . S
C392 C394 1.433 . S
C393 C389 1.350 . S
C393 C390 1.463 . S
C393 N397 1.427 . S
C394 H384 0.929 . S
C394 C392 1.433 . S
C394 N397 1.384 . S
C395 H386 0.929 . S
C395 C387 1.378 . S
C395 C390 1.350 . S
C396 H383 0.929 . S
C396 C388 1.444 . S
C396 N398 1.384 1_554 S
N397 C393 1.427 . S
N397 C394 1.384 . S
N398 C390 1.427 . S
N398 C396 1.384 1_556 S
H399 C405 0.930 . S
H400 C409 0.930 . S
H401 C414 0.929 . S
H402 C412 0.929 . S
H403 C407 0.929 . S
H404 C413 0.929 . S
C405 H399 0.930 . S
C405 C406 1.367 . S
C405 C413 1.378 . S
C406 C405 1.367 . S
C406 C414 1.433 . S
C407 H403 0.929 . S
C407 C409 1.378 . S
C407 C411 1.350 . S
C408 C411 1.463 . S
C408 C413 1.350 . S
C408 N416 1.427 . S
C409 H400 0.930 . S
C409 C407 1.378 . S
C409 C410 1.367 . S
C410 C409 1.367 . S
C410 C412 1.433 . S
C411 C407 1.350 . S
C411 C408 1.463 . S
C411 N415 1.427 . S
C412 H402 0.929 . S
C412 C410 1.433 . S
C412 N415 1.384 . S
C413 H404 0.929 . S
C413 C405 1.378 . S
C413 C408 1.350 . S
C414 H401 0.929 . S
C414 C406 1.433 . S
C414 N416 1.384 . S
N415 C411 1.427 . S
N415 C412 1.384 . S
N416 C408 1.427 . S
N416 C414 1.384 . S
C212 C64 1.484 . S
C208 C6 1.467 . S
C226 C22 1.578 . S
C230 C134 1.596 . S
C244 C34 1.257 . S
C248 C186 1.276 . S
C262 C7 1.468 . S
C266 C80 1.484 . S
C284 C124 1.591 . S
C280 C23 1.565 . S
C298 C35 1.264 . S
C302 C170 1.287 . S
C320 C117 1.591 . S
C316 C36 1.571 . S
C334 C9 1.762 1_655 S
C338 C177 1.801 . S
C356 C71 1.482 . S
C352 C21 1.462 . S
C374 C133 1.597 . S
C370 C37 1.575 . S
C392 C187 1.830 . S
C388 C8 1.815 . S
C406 C20 1.453 . S
C410 C81 1.482 . S
