# Generated by pormake.
# Topology dag, (6,3)-cn, num edge types: 1
# Building blocks:
#     Node 0, Type 0, BuildingBlock: IZENUY_clean_sbu_0, # of connection points: 6
#     Node 1, Type 0, BuildingBlock: IZENUY_clean_sbu_0, # of connection points: 6
#     Node 2, Type 0, BuildingBlock: IZENUY_clean_sbu_0, # of connection points: 6
#     Node 3, Type 0, BuildingBlock: IZENUY_clean_sbu_0, # of connection points: 6
#     Node 4, Type 1, BuildingBlock: OLANEW_clean_sbu_2, # of connection points: 3
#     Node 5, Type 1, BuildingBlock: OLANEW_clean_sbu_2, # of connection points: 3
#     Node 6, Type 1, BuildingBlock: OLANEW_clean_sbu_2, # of connection points: 3
#     Node 7, Type 1, BuildingBlock: OLANEW_clean_sbu_2, # of connection points: 3
#     Node 8, Type 1, BuildingBlock: OLANEW_clean_sbu_2, # of connection points: 3
#     Node 9, Type 1, BuildingBlock: OLANEW_clean_sbu_2, # of connection points: 3
#     Node 10, Type 1, BuildingBlock: OLANEW_clean_sbu_2, # of connection points: 3
#     Node 11, Type 1, BuildingBlock: OLANEW_clean_sbu_2, # of connection points: 3
#     Edge 12, Type (0, 1), BuildingBlock: MIFKUJ_clean_linker_0, # of connection points: 2
#     Edge 13, Type (0, 1), BuildingBlock: MIFKUJ_clean_linker_0, # of connection points: 2
#     Edge 14, Type (0, 1), BuildingBlock: MIFKUJ_clean_linker_0, # of connection points: 2
#     Edge 15, Type (0, 1), BuildingBlock: MIFKUJ_clean_linker_0, # of connection points: 2
#     Edge 16, Type (0, 1), BuildingBlock: MIFKUJ_clean_linker_0, # of connection points: 2
#     Edge 17, Type (0, 1), BuildingBlock: MIFKUJ_clean_linker_0, # of connection points: 2
#     Edge 18, Type (0, 1), BuildingBlock: MIFKUJ_clean_linker_0, # of connection points: 2
#     Edge 19, Type (0, 1), BuildingBlock: MIFKUJ_clean_linker_0, # of connection points: 2
#     Edge 20, Type (0, 1), BuildingBlock: MIFKUJ_clean_linker_0, # of connection points: 2
#     Edge 21, Type (0, 1), BuildingBlock: MIFKUJ_clean_linker_0, # of connection points: 2
#     Edge 22, Type (0, 1), BuildingBlock: MIFKUJ_clean_linker_0, # of connection points: 2
#     Edge 23, Type (0, 1), BuildingBlock: MIFKUJ_clean_linker_0, # of connection points: 2
#     Edge 24, Type (0, 1), BuildingBlock: MIFKUJ_clean_linker_0, # of connection points: 2
#     Edge 25, Type (0, 1), BuildingBlock: MIFKUJ_clean_linker_0, # of connection points: 2
#     Edge 26, Type (0, 1), BuildingBlock: MIFKUJ_clean_linker_0, # of connection points: 2
#     Edge 27, Type (0, 1), BuildingBlock: MIFKUJ_clean_linker_0, # of connection points: 2
#     Edge 28, Type (0, 1), BuildingBlock: MIFKUJ_clean_linker_0, # of connection points: 2
#     Edge 29, Type (0, 1), BuildingBlock: MIFKUJ_clean_linker_0, # of connection points: 2
#     Edge 30, Type (0, 1), BuildingBlock: MIFKUJ_clean_linker_0, # of connection points: 2
#     Edge 31, Type (0, 1), BuildingBlock: MIFKUJ_clean_linker_0, # of connection points: 2
#     Edge 32, Type (0, 1), BuildingBlock: MIFKUJ_clean_linker_0, # of connection points: 2
#     Edge 33, Type (0, 1), BuildingBlock: MIFKUJ_clean_linker_0, # of connection points: 2
#     Edge 34, Type (0, 1), BuildingBlock: MIFKUJ_clean_linker_0, # of connection points: 2
#     Edge 35, Type (0, 1), BuildingBlock: MIFKUJ_clean_linker_0, # of connection points: 2
# Relax obj value: 0.127
# Max RMSD: 0.149
# Mean RMSD: 0.112
data_MOF--net-dag--node1-IZENUY_clean_sbu_0--node2-OLANEW_clean_sbu_2--edge1-MIFKUJ_clean_linker_0
_symmetry_space_group_name_H-M    P1
_symmetry_Int_Tables_number       1
_symmetry_cell_setting            triclinic
loop_
_symmetry_equiv_pos_as_xyz
'x, y, z'
_cell_length_a     55.330776
_cell_length_b     51.980053
_cell_length_c     47.484416
_cell_angle_alpha  92.18232
_cell_angle_beta   94.03627
_cell_angle_gamma 91.127183
loop_
_atom_site_label
_atom_site_type_symbol
_atom_site_fract_x
_atom_site_fract_y
_atom_site_fract_z
_atom_type_partial_charge
Fe0 Fe 0.16002 0.8901 0.01059 0.0
Fe1 Fe 0.10635 0.90346 0.00275 0.0
O2 O 0.12955 0.88058 0.00136 0.0
Fe3 Fe 0.12214 0.8482 0.9908 0.0
O4 O 0.14655 0.83422 0.01348 0.0
O5 O 0.16252 0.86744 0.0386 0.0
O6 O 0.15255 0.91439 0.03771 0.0
C7 C 0.13374 0.91679 0.05133 0.0
C8 C 0.16338 0.85528 0.96337 0.0
O9 O 0.11319 0.90957 0.04031 0.0
C10 C 0.09174 0.87702 0.95376 0.0
O11 O 0.1596 0.91358 0.98325 0.0
O12 O 0.12549 0.931 0.99401 0.0
O13 O 0.14105 0.84951 0.96121 0.0
O14 O 0.1729 0.86734 0.98525 0.0
C15 C 0.08464 0.8587 0.02338 0.0
O16 O 0.09827 0.89857 0.96522 0.0
O17 O 0.09644 0.85629 0.9661 0.0
C18 C 0.14517 0.93204 0.98193 0.0
O19 O 0.08281 0.88026 0.01191 0.0
O20 O 0.10272 0.84484 0.01977 0.0
C21 C 0.1588 0.84351 0.0352 0.0
Fe22 Fe 0.67977 0.62947 0.47833 0.0
Fe23 Fe 0.6469 0.67553 0.46758 0.0
O24 O 0.65047 0.64244 0.474 0.0
Fe25 Fe 0.62462 0.62225 0.47614 0.0
O26 O 0.63388 0.61477 0.51229 0.0
O27 O 0.67144 0.60573 0.50398 0.0
O28 O 0.68822 0.65126 0.5082 0.0
C29 C 0.68775 0.67546 0.50745 0.0
C30 C 0.65631 0.59039 0.44692 0.0
O31 O 0.67479 0.68624 0.48845 0.0
C32 C 0.60925 0.65093 0.43181 0.0
O33 O 0.69328 0.65089 0.45354 0.0
O34 O 0.66263 0.67262 0.43536 0.0
O35 O 0.6385 0.59314 0.46201 0.0
O36 O 0.67349 0.60676 0.44866 0.0
C37 C 0.61168 0.66847 0.504 0.0
O38 O 0.61837 0.67074 0.44536 0.0
O39 O 0.61383 0.62867 0.4402 0.0
C40 C 0.68369 0.66397 0.4339 0.0
O41 O 0.63093 0.68056 0.4995 0.0
O42 O 0.60584 0.64752 0.49059 0.0
C43 C 0.65395 0.60514 0.51985 0.0
Fe44 Fe 0.86134 0.17743 0.03169 0.0
Fe45 Fe 0.87841 0.12308 0.01895 0.0
O46 O 0.85488 0.14542 0.01879 0.0
Fe47 Fe 0.82507 0.13574 0.00597 0.0
O48 O 0.82447 0.15988 0.97929 0.0
O49 O 0.83821 0.19193 0.00788 0.0
O50 O 0.88285 0.18264 0.00505 0.0
C51 C 0.901 0.16867 0.00219 0.0
C52 C 0.81825 0.1677 0.05446 0.0
O53 O 0.90211 0.14689 0.01315 0.0
C54 C 0.83901 0.09361 0.0354 0.0
O55 O 0.88569 0.16883 0.05803 0.0
O56 O 0.88357 0.12662 0.05694 0.0
O57 O 0.8102 0.15714 0.03102 0.0
O58 O 0.84037 0.17401 0.05896 0.0
C59 C 0.85508 0.1104 0.96777 0.0
O60 O 0.85921 0.09517 0.02473 0.0
O61 O 0.82348 0.11083 0.03181 0.0
C62 C 0.88957 0.14766 0.06974 0.0
O63 O 0.87453 0.11816 0.98107 0.0
O64 O 0.83492 0.11262 0.97878 0.0
C65 C 0.8277 0.18372 0.98461 0.0
Fe66 Fe 0.3595 0.3758 0.53692 0.0
Fe67 Fe 0.30681 0.36024 0.54662 0.0
O68 O 0.33787 0.3524 0.54556 0.0
Fe69 Fe 0.34731 0.32091 0.55347 0.0
O70 O 0.36708 0.33289 0.58335 0.0
O71 O 0.38398 0.36398 0.56081 0.0
O72 O 0.35219 0.39735 0.56576 0.0
C73 C 0.3314 0.40548 0.56998 0.0
C74 C 0.37644 0.3337 0.5091 0.0
O75 O 0.31255 0.39398 0.55872 0.0
C76 C 0.30556 0.30977 0.52117 0.0
O77 O 0.33877 0.39156 0.51169 0.0
O78 O 0.30456 0.36882 0.50982 0.0
O79 O 0.37232 0.32048 0.53012 0.0
O80 O 0.36861 0.35619 0.50729 0.0
C81 C 0.31302 0.33114 0.59321 0.0
O82 O 0.29542 0.32777 0.53448 0.0
O83 O 0.32819 0.30717 0.52412 0.0
C84 C 0.31872 0.38438 0.49905 0.0
O85 O 0.30704 0.35257 0.58365 0.0
O86 O 0.32414 0.31519 0.5784 0.0
C87 C 0.38351 0.34988 0.58197 0.0
O88 O 0.16166 0.01532 0.35308 0.0
Cd89 Cd 0.16364 0.02948 0.40284 0.0
O90 O 0.13998 0.04864 0.34149 0.0
Cd91 Cd 0.11678 0.07057 0.31241 0.0
O92 O 0.09056 0.08819 0.28298 0.0
C93 C 0.06817 0.08325 0.28491 0.0
O94 O 0.06171 0.068 0.30464 0.0
C95 C 0.15031 0.02802 0.33423 0.0
C96 C 0.18285 0.07923 0.41298 0.0
O97 O 0.19663 0.05972 0.41212 0.0
O98 O 0.15992 0.07526 0.40872 0.0
O99 O 0.33421 0.66904 0.71143 0.0
Cd100 Cd 0.34595 0.71377 0.72528 0.0
O101 O 0.36981 0.65313 0.72399 0.0
Cd102 Cd 0.38985 0.68985 0.72847 0.0
O103 O 0.42119 0.70528 0.70836 0.0
C104 C 0.42038 0.70079 0.6818 0.0
O105 O 0.40082 0.68945 0.66932 0.0
C106 C 0.34778 0.64975 0.71482 0.0
C107 C 0.31547 0.73667 0.76331 0.0
O108 O 0.31004 0.73622 0.7366 0.0
O109 O 0.3352 0.72613 0.7721 0.0
O110 O 0.88193 0.70859 0.13596 0.0
Cd111 Cd 0.84767 0.67988 0.14411 0.0
O112 O 0.85946 0.74277 0.13792 0.0
Cd113 Cd 0.85295 0.78408 0.13725 0.0
O114 O 0.84897 0.82536 0.13262 0.0
C115 C 0.82953 0.83407 0.12112 0.0
O116 O 0.81177 0.81788 0.11249 0.0
C117 C 0.87978 0.73275 0.13388 0.0
C118 C 0.82445 0.68847 0.19387 0.0
O119 O 0.84301 0.67412 0.19329 0.0
O120 O 0.81733 0.69945 0.17112 0.0
O121 O 0.66919 0.42565 0.75783 0.0
Cd122 Cd 0.65656 0.38981 0.7862 0.0
O123 O 0.6484 0.45373 0.78152 0.0
Cd124 Cd 0.6311 0.42413 0.80504 0.0
O125 O 0.59707 0.40362 0.79246 0.0
C126 C 0.58344 0.41721 0.77662 0.0
O127 O 0.59074 0.44077 0.77187 0.0
C128 C 0.66235 0.44867 0.76196 0.0
C129 C 0.69254 0.36089 0.81362 0.0
O130 O 0.68401 0.35459 0.78843 0.0
O131 O 0.68468 0.38138 0.82541 0.0
O132 O 0.64696 0.32528 0.31567 0.0
Cd133 Cd 0.63328 0.28086 0.30407 0.0
O134 O 0.65671 0.31701 0.36004 0.0
Cd135 Cd 0.63658 0.28044 0.35768 0.0
O136 O 0.60178 0.26761 0.37168 0.0
C137 C 0.58263 0.27507 0.35833 0.0
O138 O 0.58462 0.28773 0.33514 0.0
C139 C 0.6563 0.33255 0.33998 0.0
C140 C 0.66109 0.25826 0.26348 0.0
O141 O 0.64127 0.26943 0.25631 0.0
O142 O 0.66764 0.2576 0.28988 0.0
O143 O 0.26403 0.18586 0.92799 0.0
Cd144 Cd 0.27634 0.23138 0.92803 0.0
O145 O 0.22763 0.20111 0.92132 0.0
Cd146 Cd 0.18818 0.19853 0.91522 0.0
O147 O 0.14914 0.19641 0.91833 0.0
C148 C 0.13578 0.21526 0.91206 0.0
O149 O 0.14567 0.23613 0.9026 0.0
C150 C 0.24123 0.18196 0.9254 0.0
C151 C 0.28104 0.25009 0.87445 0.0
O152 O 0.29973 0.24383 0.88998 0.0
O153 O 0.26014 0.24724 0.88408 0.0
O154 O 0.36781 0.66235 0.27245 0.0
Cd155 Cd 0.32434 0.65287 0.26214 0.0
O156 O 0.37669 0.62155 0.26619 0.0
Cd157 Cd 0.3398 0.60551 0.26069 0.0
O158 O 0.32267 0.57119 0.27636 0.0
C159 C 0.30498 0.57138 0.29205 0.0
O160 O 0.2944 0.59323 0.29753 0.0
C161 C 0.38349 0.64479 0.27182 0.0
C162 C 0.30027 0.68487 0.22377 0.0
O163 O 0.30311 0.69125 0.25016 0.0
O164 O 0.30924 0.6636 0.21539 0.0
O165 O 0.96424 0.84557 0.66774 0.0
Cd166 Cd 0.9471 0.83676 0.61942 0.0
O167 O 0.92971 0.85881 0.68255 0.0
Cd168 Cd 0.909 0.87802 0.7144 0.0
O169 O 0.89487 0.90535 0.74477 0.0
C170 C 0.90985 0.92129 0.75773 0.0
O171 O 0.93287 0.9201 0.75271 0.0
C172 C 0.9521 0.85442 0.68752 0.0
C173 C 0.90095 0.81375 0.61472 0.0
O174 O 0.91999 0.80016 0.61759 0.0
O175 O 0.90372 0.8383 0.61471 0.0
H176 H 0.09847 0.92179 0.08873 0.0
H177 H 0.10203 0.94298 0.1357 0.0
H178 H 0.17673 0.96317 0.12488 0.0
H179 H 0.1735 0.94153 0.07818 0.0
H180 H 0.1732 0.94584 0.17506 0.0
H181 H 0.13154 0.00817 0.12014 0.0
H182 H 0.09979 0.02489 0.0871 0.0
H183 H 0.0456 0.0059 0.14381 0.0
H184 H 0.077 0.98871 0.17702 0.0
H185 H 0.14989 0.0557 0.28627 0.0
H186 H 0.14763 0.03891 0.23726 0.0
H187 H 0.14556 0.96129 0.2663 0.0
H188 H 0.14781 0.97802 0.31527 0.0
H189 H 0.11499 0.01088 0.20559 0.0
H190 H 0.17526 0.92183 0.22335 0.0
H191 H 0.20993 0.90896 0.25485 0.0
H192 H 0.23212 0.98825 0.26942 0.0
H193 H 0.1978 0.00157 0.23772 0.0
C194 C 0.11564 0.93083 0.09628 0.0
C195 C 0.13568 0.93002 0.07963 0.0
C196 C 0.11762 0.94304 0.12311 0.0
C197 C 0.13957 0.95496 0.13371 0.0
C198 C 0.1596 0.95413 0.11716 0.0
C199 C 0.1577 0.94178 0.09041 0.0
C200 C 0.14185 0.96768 0.16236 0.0
C201 C 0.16047 0.96007 0.1817 0.0
C202 C 0.12557 0.98667 0.17091 0.0
C203 C 0.10661 0.99693 0.15095 0.0
C204 C 0.11283 0.00736 0.12546 0.0
C205 C 0.0949 0.01695 0.10672 0.0
C206 C 0.07069 0.0164 0.11332 0.0
C207 C 0.06436 0.00629 0.13871 0.0
C208 C 0.08222 0.99663 0.15751 0.0
C209 C 0.14844 0.03509 0.28216 0.0
C210 C 0.14858 0.01817 0.30454 0.0
C211 C 0.14736 0.02551 0.25416 0.0
C212 C 0.1466 0.99884 0.24808 0.0
C213 C 0.14652 0.98193 0.27046 0.0
C214 C 0.14774 0.9915 0.29842 0.0
C215 C 0.14601 0.98863 0.21839 0.0
C216 C 0.12772 0.99667 0.1989 0.0
C217 C 0.16296 0.97053 0.20946 0.0
C218 C 0.1838 0.96269 0.22837 0.0
C219 C 0.18759 0.93651 0.23319 0.0
C220 C 0.20717 0.92914 0.2511 0.0
C221 C 0.22317 0.94778 0.2642 0.0
C222 C 0.21966 0.97384 0.25935 0.0
C223 C 0.20013 0.9813 0.24144 0.0
H224 H 0.23831 0.94204 0.27806 0.0
H225 H 0.05683 0.02386 0.09879 0.0
H226 H 0.62141 0.69816 0.55255 0.0
H227 H 0.59201 0.71292 0.58592 0.0
H228 H 0.53362 0.67915 0.53077 0.0
H229 H 0.56272 0.66402 0.49789 0.0
H230 H 0.52396 0.72916 0.55412 0.0
H231 H 0.55349 0.64558 0.582 0.0
H232 H 0.58617 0.61598 0.59576 0.0
H233 H 0.6085 0.66594 0.66735 0.0
H234 H 0.57609 0.69604 0.65375 0.0
H235 H 0.42324 0.69369 0.62506 0.0
H236 H 0.45892 0.69746 0.59827 0.0
H237 H 0.50182 0.72252 0.67409 0.0
H238 H 0.46598 0.71833 0.70138 0.0
H239 H 0.5244 0.68575 0.64545 0.0
H240 H 0.48823 0.76493 0.62201 0.0
H241 H 0.45563 0.79414 0.60698 0.0
H242 H 0.44599 0.75332 0.52652 0.0
H243 H 0.47828 0.72361 0.54119 0.0
C244 C 0.60227 0.69423 0.54749 0.0
C245 C 0.59431 0.67978 0.52285 0.0
C246 C 0.58555 0.7026 0.5665 0.0
C247 C 0.5607 0.69701 0.56078 0.0
C248 C 0.55271 0.68367 0.53553 0.0
C249 C 0.56937 0.6749 0.51688 0.0
C250 C 0.54291 0.70329 0.58173 0.0
C251 C 0.52401 0.71979 0.57415 0.0
C252 C 0.54345 0.69151 0.60812 0.0
C253 C 0.56257 0.6732 0.61669 0.0
C254 C 0.56547 0.65034 0.60057 0.0
C255 C 0.58392 0.63347 0.60834 0.0
C256 C 0.59945 0.63912 0.63235 0.0
C257 C 0.59648 0.66162 0.64872 0.0
C258 C 0.57807 0.67858 0.641 0.0
C259 C 0.44016 0.7003 0.63609 0.0
C260 C 0.44173 0.7057 0.6654 0.0
C261 C 0.46057 0.7026 0.62066 0.0
C262 C 0.48304 0.71059 0.63406 0.0
C263 C 0.48465 0.71642 0.66328 0.0
C264 C 0.46414 0.71412 0.67881 0.0
C265 C 0.50488 0.71118 0.61755 0.0
C266 C 0.52457 0.69584 0.62588 0.0
C267 C 0.50506 0.72407 0.5918 0.0
C268 C 0.48563 0.74194 0.58279 0.0
C269 C 0.47905 0.76206 0.60118 0.0
C270 C 0.46064 0.77873 0.59271 0.0
C271 C 0.44873 0.77557 0.56583 0.0
C272 C 0.45524 0.75575 0.54734 0.0
C273 C 0.47363 0.73902 0.55571 0.0
H274 H 0.43447 0.7885 0.55931 0.0
H275 H 0.61372 0.62603 0.6383 0.0
H276 H 0.79642 0.06524 0.03321 0.0
H277 H 0.79105 0.02202 0.05153 0.0
H278 H 0.86433 0.0263 0.08951 0.0
H279 H 0.86991 0.06871 0.07046 0.0
H280 H 0.85804 0.98421 0.05899 0.0
H281 H 0.81288 0.02774 0.12881 0.0
H282 H 0.78087 0.05552 0.14575 0.0
H283 H 0.72631 0.00504 0.10362 0.0
H284 H 0.75802 0.97713 0.08611 0.0
H285 H 0.86274 0.87244 0.13677 0.0
H286 H 0.86061 0.91786 0.1258 0.0
H287 H 0.78987 0.90423 0.08303 0.0
H288 H 0.7917 0.85871 0.09429 0.0
H289 H 0.79257 0.95015 0.11433 0.0
H290 H 0.83858 0.90646 0.04544 0.0
H291 H 0.87102 0.87862 0.02974 0.0
H292 H 0.92478 0.9303 0.07141 0.0
H293 H 0.89263 0.95826 0.08777 0.0
C294 C 0.8111 0.05707 0.04599 0.0
C295 C 0.83362 0.07006 0.05027 0.0
C296 C 0.80806 0.03243 0.05647 0.0
C297 C 0.82735 0.02084 0.07181 0.0
C298 C 0.84928 0.03467 0.07749 0.0
C299 C 0.85244 0.05892 0.06667 0.0
C300 C 0.82579 0.99356 0.07991 0.0
C301 C 0.84388 0.97693 0.07145 0.0
C302 C 0.80691 0.98376 0.09536 0.0
C303 C 0.78783 0.0005 0.1059 0.0
C304 C 0.79406 0.02268 0.12296 0.0
C305 C 0.77597 0.03842 0.1327 0.0
C306 C 0.75158 0.03209 0.1257 0.0
C307 C 0.74522 0.00995 0.109 0.0
C308 C 0.76324 0.99415 0.09917 0.0
C309 C 0.84664 0.8791 0.12523 0.0
C310 C 0.8275 0.8619 0.11615 0.0
C311 C 0.84546 0.90507 0.11896 0.0
C312 C 0.82522 0.91432 0.10326 0.0
C313 C 0.80566 0.89745 0.09512 0.0
C314 C 0.8068 0.87143 0.10147 0.0
C315 C 0.82516 0.94123 0.09402 0.0
C316 C 0.80671 0.95761 0.10196 0.0
C317 C 0.84379 0.95095 0.0782 0.0
C318 C 0.86317 0.93435 0.06801 0.0
C319 C 0.85731 0.91181 0.0514 0.0
C320 C 0.87565 0.89602 0.04237 0.0
C321 C 0.89994 0.90268 0.04959 0.0
C322 C 0.90595 0.92519 0.0658 0.0
C323 C 0.88768 0.94101 0.07496 0.0
H324 H 0.91412 0.89039 0.04264 0.0
H325 H 0.7376 0.0443 0.13327 0.0
H326 H 0.39506 0.31691 0.62458 0.0
H327 H 0.42895 0.32135 0.66069 0.0
H328 H 0.45044 0.39328 0.62626 0.0
H329 H 0.41729 0.38864 0.58988 0.0
H330 H 0.48843 0.36509 0.63627 0.0
H331 H 0.4185 0.38874 0.68791 0.0
H332 H 0.37843 0.38019 0.70579 0.0
H333 H 0.40677 0.31569 0.75026 0.0
H334 H 0.44695 0.32369 0.73235 0.0
H335 H 0.55356 0.44098 0.73844 0.0
H336 H 0.51935 0.42224 0.70916 0.0
H337 H 0.52821 0.35012 0.75019 0.0
H338 H 0.56297 0.36876 0.77977 0.0
H339 H 0.47715 0.36826 0.7391 0.0
H340 H 0.54876 0.34909 0.69219 0.0
H341 H 0.58855 0.35848 0.67411 0.0
H342 H 0.55665 0.41518 0.62048 0.0
H343 H 0.5167 0.40642 0.63856 0.0
C344 C 0.40703 0.33366 0.62476 0.0
C345 C 0.40354 0.35238 0.6043 0.0
C346 C 0.42633 0.33621 0.64545 0.0
C347 C 0.44217 0.35773 0.64629 0.0
C348 C 0.43856 0.37643 0.62595 0.0
C349 C 0.41954 0.37377 0.60517 0.0
C350 C 0.46274 0.36111 0.66799 0.0
C351 C 0.4859 0.36582 0.65873 0.0
C352 C 0.45966 0.36112 0.69737 0.0
C353 C 0.43564 0.35663 0.70854 0.0
C354 C 0.41614 0.37265 0.70137 0.0
C355 C 0.39342 0.36791 0.71153 0.0
C356 C 0.39003 0.34735 0.72907 0.0
C357 C 0.4094 0.33157 0.73662 0.0
C358 C 0.43215 0.33621 0.72649 0.0
C359 C 0.54818 0.42121 0.74157 0.0
C360 C 0.56115 0.40628 0.76128 0.0
C361 C 0.5286 0.41054 0.72479 0.0
C362 C 0.52147 0.38478 0.72739 0.0
C363 C 0.53353 0.37006 0.74793 0.0
C364 C 0.55338 0.3807 0.7647 0.0
C365 C 0.50239 0.37328 0.70715 0.0
C366 C 0.47966 0.36699 0.71664 0.0
C367 C 0.50575 0.37188 0.6779 0.0
C368 C 0.52974 0.37719 0.66687 0.0
C369 C 0.55025 0.36371 0.67671 0.0
C370 C 0.57283 0.36889 0.66643 0.0
C371 C 0.57512 0.38742 0.64617 0.0
C372 C 0.55484 0.40082 0.63616 0.0
C373 C 0.53221 0.39573 0.64639 0.0
H374 H 0.5926 0.39132 0.63816 0.0
H375 H 0.37242 0.34369 0.73686 0.0
H376 H 0.6248 0.54918 0.44264 0.0
H377 H 0.62957 0.50779 0.4182 0.0
H378 H 0.69689 0.53488 0.38799 0.0
H379 H 0.69252 0.57643 0.413 0.0
H380 H 0.63219 0.49208 0.36534 0.0
H381 H 0.73544 0.4835 0.38625 0.0
H382 H 0.76852 0.50021 0.42004 0.0
H383 H 0.71815 0.51014 0.48418 0.0
H384 H 0.68488 0.49318 0.4509 0.0
H385 H 0.65771 0.37155 0.30271 0.0
H386 H 0.66383 0.41759 0.31433 0.0
H387 H 0.67746 0.40123 0.40236 0.0
H388 H 0.67209 0.35534 0.39089 0.0
H389 H 0.70473 0.44079 0.39041 0.0
H390 H 0.62015 0.41531 0.37415 0.0
H391 H 0.58435 0.39654 0.34626 0.0
H392 H 0.5929 0.45174 0.28246 0.0
H393 H 0.62895 0.47064 0.30987 0.0
C394 C 0.64059 0.54648 0.4307 0.0
C395 C 0.65842 0.56607 0.43007 0.0
C396 C 0.64323 0.52279 0.4166 0.0
C397 C 0.6637 0.51812 0.4015 0.0
C398 C 0.68112 0.53794 0.39986 0.0
C399 C 0.67855 0.56169 0.41412 0.0
C400 C 0.66704 0.49207 0.38865 0.0
C401 C 0.6482 0.481 0.37055 0.0
C402 C 0.68777 0.47744 0.39569 0.0
C403 C 0.70766 0.48741 0.41597 0.0
C404 C 0.73147 0.48921 0.40759 0.0
C405 C 0.75024 0.49871 0.42664 0.0
C406 C 0.74542 0.50633 0.4542 0.0
C407 C 0.72184 0.50434 0.4628 0.0
C408 C 0.70302 0.49481 0.44384 0.0
C409 C 0.66252 0.37772 0.32445 0.0
C410 C 0.66404 0.35978 0.34593 0.0
C411 C 0.66594 0.40405 0.33107 0.0
C412 C 0.67061 0.4129 0.3593 0.0
C413 C 0.67382 0.39489 0.38044 0.0
C414 C 0.67062 0.36861 0.37383 0.0
C415 C 0.66974 0.44072 0.36742 0.0
C416 C 0.68902 0.45212 0.38461 0.0
C417 C 0.64907 0.45542 0.36029 0.0
C418 C 0.62738 0.44417 0.34386 0.0
C419 C 0.61447 0.42332 0.35408 0.0
C420 C 0.59414 0.41268 0.33838 0.0
C421 C 0.5864 0.42289 0.31256 0.0
C422 C 0.59895 0.44382 0.30243 0.0
C423 C 0.61932 0.4545 0.31804 0.0
H424 H 0.57065 0.41463 0.30043 0.0
H425 H 0.75998 0.5137 0.46891 0.0
H426 H 0.94202 0.14272 0.99347 0.0
H427 H 0.97934 0.15902 0.97622 0.0
H428 H 0.94734 0.2331 0.96402 0.0
H429 H 0.90934 0.21686 0.98167 0.0
H430 H 0.97668 0.21335 0.91852 0.0
H431 H 0.98144 0.23011 0.01747 0.0
H432 H 0.97742 0.22073 0.06741 0.0
H433 H 0.03214 0.16364 0.06304 0.0
H434 H 0.03557 0.17157 0.01269 0.0
H435 H 0.10227 0.25294 0.90381 0.0
H436 H 0.06014 0.25233 0.91677 0.0
H437 H 0.06866 0.17522 0.94592 0.0
H438 H 0.11056 0.17561 0.93312 0.0
H439 H 0.04959 0.20842 0.98506 0.0
H440 H 0.03747 0.18546 0.88461 0.0
H441 H 0.04051 0.19297 0.834 0.0
H442 H 0.00058 0.26255 0.84223 0.0
H443 H 0.99759 0.2556 0.89301 0.0
C444 C 0.94269 0.16248 0.98707 0.0
C445 C 0.92275 0.17862 0.98937 0.0
C446 C 0.9641 0.17174 0.97716 0.0
C447 C 0.96615 0.19732 0.96929 0.0
C448 C 0.94604 0.2133 0.9702 0.0
C449 C 0.92444 0.20403 0.98033 0.0
C450 C 0.98991 0.20702 0.96138 0.0
C451 C 0.99261 0.21295 0.93319 0.0
C452 C 0.0106 0.20625 0.98061 0.0
C453 C 0.0086 0.20132 0.01107 0.0
C454 C 0.99235 0.21523 0.02698 0.0
C455 C 0.99011 0.2101 0.05538 0.0
C456 C 0.00434 0.19139 0.06833 0.0
C457 C 0.02088 0.17785 0.0529 0.0
C458 C 0.02294 0.18263 0.02439 0.0
C459 C 0.09509 0.23577 0.91276 0.0
C460 C 0.10981 0.21439 0.91763 0.0
C461 C 0.07103 0.23547 0.92011 0.0
C462 C 0.06137 0.21378 0.9324 0.0
C463 C 0.07586 0.19222 0.93663 0.0
C464 C 0.09979 0.19246 0.92922 0.0
C465 C 0.03647 0.2135 0.94193 0.0
C466 C 0.03363 0.20945 0.97055 0.0
C467 C 0.01573 0.21603 0.92314 0.0
C468 C 0.01759 0.2202 0.89266 0.0
C469 C 0.02955 0.20249 0.87569 0.0
C470 C 0.03121 0.20661 0.84696 0.0
C471 C 0.02082 0.22827 0.83493 0.0
C472 C 0.00868 0.24581 0.85159 0.0
C473 C 0.00698 0.24179 0.88034 0.0
H474 H 0.02212 0.23143 0.81268 0.0
H475 H 0.00265 0.18749 0.09035 0.0
H476 H 0.34658 0.39398 0.45617 0.0
H477 H 0.33723 0.42164 0.41663 0.0
H478 H 0.26518 0.43215 0.44387 0.0
H479 H 0.27423 0.40331 0.48298 0.0
H480 H 0.26544 0.43331 0.38611 0.0
H481 H 0.30915 0.47317 0.46625 0.0
H482 H 0.34168 0.47677 0.50445 0.0
H483 H 0.39477 0.48424 0.44339 0.0
H484 H 0.36268 0.4794 0.40469 0.0
H485 H 0.26802 0.56372 0.32678 0.0
H486 H 0.2633 0.52786 0.35833 0.0
H487 H 0.32523 0.49143 0.32536 0.0
H488 H 0.32985 0.5266 0.2935 0.0
H489 H 0.32534 0.50587 0.38859 0.0
H490 H 0.27964 0.46188 0.30874 0.0
H491 H 0.2459 0.45779 0.27194 0.0
H492 H 0.19458 0.46227 0.33561 0.0
H493 H 0.22805 0.46678 0.37278 0.0
C494 C 0.32855 0.40167 0.45327 0.0
C495 C 0.31119 0.39686 0.47268 0.0
C496 C 0.32323 0.41748 0.43074 0.0
C497 C 0.30074 0.42951 0.42779 0.0
C498 C 0.28269 0.42317 0.44589 0.0
C499 C 0.28786 0.40677 0.46819 0.0
C500 C 0.29745 0.45077 0.408 0.0
C501 C 0.27834 0.44935 0.38686 0.0
C502 C 0.31414 0.4719 0.4092 0.0
C503 C 0.33347 0.47571 0.43249 0.0
C504 C 0.32777 0.47538 0.46091 0.0
C505 C 0.34614 0.47759 0.48267 0.0
C506 C 0.37026 0.48085 0.47636 0.0
C507 C 0.37607 0.48175 0.44825 0.0
C508 C 0.3578 0.47916 0.42637 0.0
C509 C 0.28029 0.54779 0.32581 0.0
C510 C 0.29945 0.54816 0.3078 0.0
C511 C 0.27753 0.52734 0.34379 0.0
C512 C 0.29397 0.50715 0.34413 0.0
C513 C 0.31236 0.50688 0.3253 0.0
C514 C 0.31494 0.52703 0.30711 0.0
C515 C 0.29397 0.48783 0.36615 0.0
C516 C 0.31238 0.48988 0.38798 0.0
C517 C 0.27641 0.4677 0.36584 0.0
C518 C 0.25634 0.46503 0.3435 0.0
C519 C 0.26116 0.46231 0.31487 0.0
C520 C 0.24209 0.45983 0.29395 0.0
C521 C 0.21811 0.45986 0.30142 0.0
C522 C 0.21316 0.4623 0.32985 0.0
C523 C 0.23217 0.4648 0.35085 0.0
H524 H 0.20337 0.45793 0.2852 0.0
H525 H 0.38444 0.48268 0.49326 0.0
H526 H 0.09114 0.91094 0.91128 0.0
H527 H 0.06556 0.90886 0.86707 0.0
H528 H 0.03028 0.83976 0.8932 0.0
H529 H 0.05687 0.84098 0.93655 0.0
H530 H 0.03702 0.83264 0.84244 0.0
H531 H 0.00332 0.90265 0.89262 0.0
H532 H 0.00252 0.94399 0.91975 0.0
H533 H 0.02875 0.98363 0.84989 0.0
H534 H 0.03003 0.94247 0.82246 0.0
H535 H 0.93505 0.84473 0.7387 0.0
H536 H 0.95691 0.85097 0.7854 0.0
H537 H 0.01843 0.88261 0.74661 0.0
H538 H 0.99691 0.87587 0.69983 0.0
H539 H 0.99548 0.90889 0.80407 0.0
H540 H 0.0326 0.83332 0.75792 0.0
H541 H 0.02849 0.79096 0.73256 0.0
H542 H 0.98882 0.76123 0.79923 0.0
H543 H 0.99242 0.80358 0.82475 0.0
C544 C 0.07788 0.89535 0.90753 0.0
C545 C 0.07599 0.87611 0.92729 0.0
C546 C 0.0631 0.89427 0.88236 0.0
C547 C 0.04556 0.87441 0.87687 0.0
C548 C 0.04363 0.85527 0.89679 0.0
C549 C 0.05883 0.85598 0.92159 0.0
C550 C 0.02989 0.87295 0.84998 0.0
C551 C 0.02777 0.84935 0.83443 0.0
C552 C 0.01767 0.89463 0.83914 0.0
C553 C 0.017 0.91943 0.85559 0.0
C554 C 0.0091 0.92015 0.88312 0.0
C555 C 0.00853 0.94356 0.89854 0.0
C556 C 0.01564 0.96641 0.88658 0.0
C557 C 0.02328 0.96591 0.85914 0.0
C558 C 0.02391 0.94255 0.84364 0.0
C559 C 0.95306 0.85344 0.74023 0.0
C560 C 0.96428 0.86 0.71577 0.0
C561 C 0.96551 0.85689 0.76682 0.0
C562 C 0.98918 0.8673 0.76929 0.0
C563 C 1.00011 0.87465 0.74501 0.0
C564 C 0.98788 0.8707 0.7184 0.0
C565 C 0.00317 0.86889 0.79698 0.0
C566 C 0.00482 0.89239 0.8125 0.0
C567 C 0.01445 0.84707 0.80821 0.0
C568 C 0.01252 0.82163 0.79302 0.0
C569 C 0.0228 0.81781 0.767 0.0
C570 C 0.02061 0.7938 0.75264 0.0
C571 C 0.00833 0.77344 0.76423 0.0
C572 C 0.99828 0.77703 0.79025 0.0
C573 C 0.0004 0.80102 0.80467 0.0
H574 H 0.00666 0.75486 0.75309 0.0
H575 H 0.01517 0.98451 0.89855 0.0
H576 H 0.89501 0.10304 0.93814 0.0
H577 H 0.89923 0.07321 0.89819 0.0
H578 H 0.82328 0.05242 0.89689 0.0
H579 H 0.81894 0.08204 0.93753 0.0
H580 H 0.85036 0.01059 0.89567 0.0
H581 H 0.84541 0.08693 0.84363 0.0
H582 H 0.85495 0.13179 0.83252 0.0
H583 H 0.92901 0.11228 0.8227 0.0
H584 H 0.92001 0.06737 0.83415 0.0
H585 H 0.86354 0.92958 0.77248 0.0
H586 H 0.84992 0.96356 0.80437 0.0
H587 H 0.92349 0.99248 0.81937 0.0
H588 H 0.93724 0.95878 0.7874 0.0
H589 H 0.89189 0.03114 0.80977 0.0
H590 H 0.89763 0.95661 0.86758 0.0
H591 H 0.88848 0.91192 0.87973 0.0
H592 H 0.81272 0.92854 0.87889 0.0
H593 H 0.8214 0.97327 0.86636 0.0
C594 C 0.87907 0.09241 0.9292 0.0
C595 C 0.85665 0.09484 0.94119 0.0
C596 C 0.8815 0.07544 0.90618 0.0
C597 C 0.86153 0.06071 0.89437 0.0
C598 C 0.83892 0.06365 0.90566 0.0
C599 C 0.83645 0.08066 0.9288 0.0
C600 C 0.86495 0.04091 0.87171 0.0
C601 C 0.85892 0.01517 0.87655 0.0
C602 C 0.87657 0.04681 0.84705 0.0
C603 C 0.88204 0.07378 0.83992 0.0
C604 C 0.86377 0.09223 0.83928 0.0
C605 C 0.86907 0.11767 0.83289 0.0
C606 C 0.89258 0.12488 0.82695 0.0
C607 C 0.91081 0.10666 0.82731 0.0
C608 C 0.9056 0.08119 0.8337 0.0
C609 C 0.87683 0.94315 0.7826 0.0
C610 C 0.90149 0.94145 0.77743 0.0
C611 C 0.86901 0.96253 0.80084 0.0
C612 C 0.88571 0.98047 0.81433 0.0
C613 C 0.91029 0.97887 0.8091 0.0
C614 C 0.91813 0.95952 0.79091 0.0
C615 C 0.87774 0.00087 0.83407 0.0
C616 C 0.88294 0.02668 0.82866 0.0
C617 C 0.86535 0.99506 0.85819 0.0
C618 C 0.86013 0.96818 0.86569 0.0
C619 C 0.879 0.95067 0.86973 0.0
C620 C 0.8739 0.92535 0.87674 0.0
C621 C 0.85003 0.91737 0.87999 0.0
C622 C 0.8312 0.93473 0.87631 0.0
C623 C 0.8362 0.96007 0.86927 0.0
H624 H 0.84612 0.89776 0.88543 0.0
H625 H 0.89665 0.14459 0.82202 0.0
H626 H 0.39036 0.28416 0.50007 0.0
H627 H 0.42284 0.26918 0.47149 0.0
H628 H 0.43459 0.34651 0.44481 0.0
H629 H 0.40197 0.36166 0.47303 0.0
H630 H 0.43254 0.27306 0.41235 0.0
H631 H 0.497 0.35622 0.45477 0.0
H632 H 0.50286 0.38601 0.49653 0.0
H633 H 0.47021 0.33022 0.54736 0.0
H634 H 0.46457 0.29995 0.50604 0.0
H635 H 0.53821 0.28834 0.3351 0.0
H636 H 0.50065 0.29223 0.35897 0.0
H637 H 0.5361 0.26296 0.43459 0.0
H638 H 0.57376 0.259 0.41092 0.0
H639 H 0.51421 0.30845 0.44469 0.0
H640 H 0.49313 0.22712 0.39817 0.0
H641 H 0.48717 0.19579 0.35786 0.0
H642 H 0.43382 0.24399 0.31803 0.0
H643 H 0.4397 0.27581 0.35794 0.0
C644 C 0.39961 0.29791 0.48777 0.0
C645 C 0.39378 0.32414 0.48903 0.0
C646 C 0.41805 0.28928 0.47136 0.0
C647 C 0.43117 0.30679 0.4563 0.0
C648 C 0.42468 0.33276 0.45644 0.0
C649 C 0.40603 0.34135 0.47254 0.0
C650 C 0.45298 0.29841 0.44248 0.0
C651 C 0.45042 0.28078 0.41931 0.0
C652 C 0.47629 0.30812 0.45207 0.0
C653 C 0.48013 0.32595 0.47722 0.0
C654 C 0.49118 0.35027 0.47489 0.0
C655 C 0.49446 0.36724 0.49848 0.0
C656 C 0.48684 0.36005 0.52456 0.0
C657 C 0.47603 0.33581 0.52713 0.0
C658 C 0.47276 0.31875 0.50362 0.0
C659 C 0.53792 0.28228 0.35664 0.0
C660 C 0.55904 0.27354 0.37117 0.0
C661 C 0.5164 0.28445 0.37023 0.0
C662 C 0.51562 0.27792 0.39856 0.0
C663 C 0.53637 0.26815 0.41273 0.0
C664 C 0.55784 0.26581 0.39912 0.0
C665 C 0.49384 0.28339 0.41407 0.0
C666 C 0.49639 0.30061 0.43764 0.0
C667 C 0.47061 0.27306 0.40498 0.0
C668 C 0.46701 0.25396 0.38095 0.0
C669 C 0.48027 0.23116 0.38071 0.0
C670 C 0.47688 0.21328 0.35795 0.0
C671 C 0.46017 0.21792 0.33537 0.0
C672 C 0.44678 0.24043 0.33553 0.0
C673 C 0.45011 0.25838 0.35823 0.0
H674 H 0.45757 0.20406 0.31777 0.0
H675 H 0.48935 0.37323 0.54278 0.0
H676 H 0.18411 0.94095 0.95066 0.0
H677 H 0.19939 0.98248 0.93604 0.0
H678 H 0.1402 0.02057 0.97351 0.0
H679 H 0.12442 0.97913 0.98737 0.0
H680 H 0.14892 0.04293 0.92687 0.0
H681 H 0.19747 0.01767 0.00831 0.0
H682 H 0.22357 0.98905 0.03671 0.0
H683 H 0.27651 0.99094 0.97485 0.0
H684 H 0.25055 0.01931 0.94587 0.0
H685 H 0.20024 0.16859 0.95048 0.0
H686 H 0.18322 0.12546 0.95533 0.0
H687 H 0.24238 0.09286 0.91249 0.0
H688 H 0.25955 0.13624 0.90765 0.0
H689 H 0.23398 0.06711 0.9586 0.0
H690 H 0.18414 0.09667 0.87913 0.0
H691 H 0.15778 0.12805 0.85516 0.0
H692 H 0.10649 0.12065 0.9183 0.0
H693 H 0.13266 0.08939 0.94281 0.0
C694 C 0.17419 0.95814 0.95551 0.0
C695 C 0.15317 0.95671 0.97046 0.0
C696 C 0.18301 0.9819 0.94724 0.0
C697 C 0.17125 0.00477 0.95419 0.0
C698 C 0.14967 0.00325 0.96797 0.0
C699 C 0.14068 0.97949 0.97595 0.0
C700 C 0.18196 0.03037 0.94836 0.0
C701 C 0.16747 0.04824 0.93396 0.0
C702 C 0.20626 0.03734 0.95736 0.0
C703 C 0.22195 0.02037 0.97477 0.0
C704 C 0.2146 0.01182 0.00066 0.0
C705 C 0.22937 0.99567 0.01688 0.0
C706 C 0.25165 0.98811 0.00755 0.0
C707 C 0.25923 0.99676 0.98202 0.0
C708 C 0.24449 0.01289 0.9657 0.0
C709 C 0.20927 0.15231 0.94139 0.0
C710 C 0.23081 0.15581 0.92788 0.0
C711 C 0.19961 0.12761 0.94435 0.0
C712 C 0.2112 0.1059 0.9337 0.0
C713 C 0.23299 0.10933 0.92065 0.0
C714 C 0.24276 0.13408 0.91786 0.0
C715 C 0.20097 0.07961 0.93707 0.0
C716 C 0.21553 0.06165 0.95114 0.0
C717 C 0.17663 0.07276 0.92821 0.0
C718 C 0.16044 0.09079 0.91288 0.0
C719 C 0.16726 0.10176 0.88792 0.0
C720 C 0.15236 0.11953 0.87425 0.0
C721 C 0.1305 0.12637 0.88524 0.0
C722 C 0.12342 0.11532 0.90981 0.0
C723 C 0.13826 0.09753 0.92357 0.0
H724 H 0.11903 0.14022 0.87469 0.0
H725 H 0.26307 0.97561 0.02014 0.0
H726 H 0.58734 0.69539 0.41587 0.0
H727 H 0.55209 0.6996 0.38248 0.0
H728 H 0.55179 0.61789 0.363 0.0
H729 H 0.58707 0.61342 0.39635 0.0
H730 H 0.54137 0.64748 0.31522 0.0
H731 H 0.51651 0.63976 0.41035 0.0
H732 H 0.51733 0.65266 0.46094 0.0
H733 H 0.49246 0.72769 0.4397 0.0
H734 H 0.49195 0.71537 0.38893 0.0
H735 H 0.42108 0.61164 0.27134 0.0
H736 H 0.46213 0.61866 0.29232 0.0
H737 H 0.44615 0.69769 0.31339 0.0
H738 H 0.40453 0.69061 0.29287 0.0
H739 H 0.46649 0.67573 0.35792 0.0
H740 H 0.48629 0.68178 0.26262 0.0
H741 H 0.48643 0.66935 0.212 0.0
H742 H 0.52099 0.59861 0.23274 0.0
H743 H 0.52075 0.61042 0.28351 0.0
C744 C 0.58003 0.67833 0.4042 0.0
C745 C 0.58987 0.65399 0.40906 0.0
C746 C 0.55985 0.6808 0.38515 0.0
C747 C 0.54918 0.65902 0.37054 0.0
C748 C 0.55975 0.63494 0.37411 0.0
C749 C 0.57985 0.63241 0.39329 0.0
C750 C 0.52593 0.66091 0.35327 0.0
C751 C 0.52493 0.65353 0.32449 0.0
C752 C 0.50469 0.66952 0.3653 0.0
C753 C 0.50446 0.67674 0.39583 0.0
C754 C 0.51138 0.65907 0.41646 0.0
C755 C 0.51179 0.66627 0.44516 0.0
C756 C 0.50502 0.69101 0.45353 0.0
C757 C 0.49775 0.70855 0.43319 0.0
C758 C 0.4974 0.70148 0.40444 0.0
C759 C 0.42631 0.63069 0.27998 0.0
C760 C 0.4094 0.65054 0.28051 0.0
C761 C 0.44994 0.63472 0.29186 0.0
C762 C 0.45738 0.65877 0.30428 0.0
C763 C 0.44084 0.67896 0.3039 0.0
C764 C 0.41709 0.67492 0.29204 0.0
C765 C 0.48168 0.66191 0.31972 0.0
C766 C 0.48292 0.67014 0.34833 0.0
C767 C 0.50313 0.65414 0.30746 0.0
C768 C 0.50336 0.64693 0.27692 0.0
C769 C 0.49376 0.66348 0.25641 0.0
C770 C 0.49389 0.65656 0.22768 0.0
C771 C 0.50368 0.63319 0.21916 0.0
C772 C 0.51341 0.61671 0.23936 0.0
C773 C 0.51332 0.62353 0.26812 0.0
H774 H 0.50375 0.62787 0.19691 0.0
H775 H 0.50537 0.69655 0.47576 0.0
H776 H 0.29145 0.42375 0.59446 0.0
H777 H 0.28776 0.46498 0.62056 0.0
H778 H 0.36229 0.48413 0.60795 0.0
H779 H 0.36628 0.44294 0.58227 0.0
H780 H 0.31563 0.48511 0.67022 0.0
H781 H 0.36297 0.54906 0.59242 0.0
H782 H 0.36787 0.55126 0.54132 0.0
H783 H 0.30133 0.50803 0.52303 0.0
H784 H 0.29585 0.50587 0.574 0.0
H785 H 0.36812 0.6038 0.72764 0.0
H786 H 0.35778 0.56151 0.70532 0.0
H787 H 0.29805 0.59412 0.65659 0.0
H788 H 0.30815 0.63655 0.67902 0.0
H789 H 0.32938 0.56751 0.62374 0.0
H790 H 0.28548 0.55311 0.70468 0.0
H791 H 0.27899 0.5522 0.75547 0.0
H792 H 0.33543 0.49726 0.76694 0.0
H793 H 0.34251 0.49811 0.71628 0.0
C794 C 0.30706 0.43673 0.59729 0.0
C795 C 0.32915 0.43009 0.58627 0.0
C796 C 0.30493 0.46021 0.61226 0.0
C797 C 0.3247 0.47762 0.61597 0.0
C798 C 0.34678 0.47101 0.60511 0.0
C799 C 0.34904 0.44742 0.59055 0.0
C800 C 0.32246 0.50278 0.6312 0.0
C801 C 0.31851 0.50316 0.66008 0.0
C802 C 0.32584 0.52628 0.61778 0.0
C803 C 0.32911 0.52715 0.58706 0.0
C804 C 0.34935 0.54007 0.5775 0.0
C805 C 0.35222 0.54133 0.54856 0.0
C806 C 0.3349 0.52984 0.52896 0.0
C807 C 0.31473 0.51694 0.53825 0.0
C808 C 0.31177 0.51562 0.56717 0.0
C809 C 0.35247 0.6019 0.71261 0.0
C810 C 0.33903 0.62358 0.70501 0.0
C811 C 0.34654 0.57768 0.69994 0.0
C812 C 0.32716 0.57469 0.67929 0.0
C813 C 0.31307 0.59604 0.6725 0.0
C814 C 0.3188 0.62024 0.68544 0.0
C815 C 0.32323 0.54986 0.66299 0.0
C816 C 0.32619 0.54951 0.63387 0.0
C817 C 0.31886 0.52644 0.67619 0.0
C818 C 0.31464 0.52582 0.70669 0.0
C819 C 0.29665 0.54098 0.71806 0.0
C820 C 0.29283 0.54045 0.74683 0.0
C821 C 0.30682 0.52472 0.76443 0.0
C822 C 0.32462 0.50944 0.75328 0.0
C823 C 0.32851 0.50992 0.72453 0.0
H824 H 0.30384 0.52433 0.7867 0.0
H825 H 0.3371 0.53095 0.50657 0.0
H826 H 0.08458 0.81858 0.05903 0.0
H827 H 0.04993 0.79972 0.08068 0.0
H828 H 0.00306 0.85535 0.04122 0.0
H829 H 0.03781 0.87492 0.02043 0.0
H830 H 0.98941 0.84815 0.09145 0.0
H831 H 0.00697 0.79205 0.01395 0.0
H832 H 0.03216 0.76483 0.98465 0.0
H833 H 0.0466 0.71541 0.05401 0.0
H834 H 0.02174 0.74255 0.08386 0.0
H835 H 0.87924 0.77491 0.10094 0.0
H836 H 0.91402 0.79886 0.08544 0.0
H837 H 0.96244 0.74872 0.13136 0.0
H838 H 0.92762 0.72492 0.14727 0.0
H839 H 0.97461 0.7539 0.07793 0.0
H840 H 0.95502 0.81171 0.1548 0.0
H841 H 0.92754 0.83877 0.18123 0.0
H842 H 0.91381 0.8847 0.10885 0.0
H843 H 0.9411 0.8578 0.08184 0.0
C844 C 0.06692 0.82688 0.05509 0.0
C845 C 0.06393 0.8481 0.0378 0.0
C846 C 0.04707 0.81602 0.06739 0.0
C847 C 0.02371 0.82573 0.06211 0.0
C848 C 0.02084 0.84743 0.04557 0.0
C849 C 0.04075 0.85857 0.03362 0.0
C850 C 0.00223 0.8128 0.07314 0.0
C851 C 0.98607 0.82758 0.08822 0.0
C852 C 0.9978 0.78591 0.06914 0.0
C853 C 0.01269 0.76948 0.05122 0.0
C854 C 0.01565 0.77548 0.02302 0.0
C855 C 0.02985 0.76005 0.0063 0.0
C856 C 0.04102 0.73844 0.01749 0.0
C857 C 0.03796 0.73218 0.04539 0.0
C858 C 0.02381 0.74756 0.06221 0.0
C859 C 0.89725 0.76958 0.10862 0.0
C860 C 0.90067 0.7485 0.12604 0.0
C861 C 0.91716 0.78313 0.09948 0.0
C862 C 0.94087 0.77583 0.10755 0.0
C863 C 0.94432 0.75479 0.12498 0.0
C864 C 0.92442 0.74124 0.13409 0.0
C865 C 0.96209 0.78915 0.09658 0.0
C866 C 0.97808 0.77444 0.0813 0.0
C867 C 0.96606 0.81612 0.09997 0.0
C868 C 0.94999 0.83263 0.11626 0.0
C869 C 0.94607 0.82752 0.14447 0.0
C870 C 0.93055 0.84284 0.15955 0.0
C871 C 0.91894 0.86343 0.1467 0.0
C872 C 0.92286 0.86877 0.11874 0.0
C873 C 0.93839 0.85352 0.10357 0.0
H874 H 0.90695 0.87528 0.15842 0.0
H875 H 0.05201 0.72652 0.00451 0.0
H876 H 0.62568 0.60813 0.56496 0.0
H877 H 0.62994 0.58398 0.60836 0.0
H878 H 0.69183 0.54555 0.57764 0.0
H879 H 0.6879 0.56971 0.53444 0.0
H880 H 0.65606 0.51224 0.59858 0.0
H881 H 0.7015 0.59099 0.62587 0.0
H882 H 0.7062 0.63818 0.63203 0.0
H883 H 0.64889 0.63957 0.68849 0.0
H884 H 0.64355 0.59242 0.68227 0.0
H885 H 0.69296 0.44605 0.71895 0.0
H886 H 0.695 0.47548 0.68018 0.0
H887 H 0.64396 0.52501 0.71876 0.0
H888 H 0.6425 0.49625 0.75799 0.0
H889 H 0.67433 0.55357 0.69384 0.0
H890 H 0.62549 0.47917 0.66669 0.0
H891 H 0.61533 0.43286 0.66005 0.0
H892 H 0.67185 0.42401 0.60315 0.0
H893 H 0.6826 0.47026 0.60982 0.0
C894 C 0.6402 0.59455 0.56747 0.0
C895 C 0.65644 0.59081 0.54624 0.0
C896 C 0.64267 0.58087 0.59231 0.0
C897 C 0.66126 0.56307 0.5962 0.0
C898 C 0.67738 0.55922 0.57501 0.0
C899 C 0.67514 0.57311 0.55039 0.0
C900 C 0.66373 0.54801 0.62211 0.0
C901 C 0.66043 0.5212 0.61938 0.0
C902 C 0.66849 0.55988 0.64929 0.0
C903 C 0.67199 0.58819 0.6534 0.0
C904 C 0.68978 0.60137 0.63943 0.0
C905 C 0.69257 0.62812 0.64296 0.0
C906 C 0.67781 0.64187 0.66059 0.0
C907 C 0.66031 0.62889 0.67484 0.0
C908 C 0.6574 0.60216 0.67133 0.0
C909 C 0.6826 0.4635 0.71951 0.0
C910 C 0.66736 0.4686 0.74144 0.0
C911 C 0.68363 0.48024 0.69721 0.0
C912 C 0.66911 0.50213 0.69612 0.0
C913 C 0.65522 0.50819 0.71897 0.0
C914 C 0.6544 0.49165 0.74144 0.0
C915 C 0.667 0.51762 0.67035 0.0
C916 C 0.67017 0.54452 0.67306 0.0
C917 C 0.66143 0.50593 0.64314 0.0
C918 C 0.65503 0.47811 0.63901 0.0
C919 C 0.63588 0.46731 0.65293 0.0
C920 C 0.62999 0.44107 0.64914 0.0
C921 C 0.64297 0.42548 0.63124 0.0
C922 C 0.66184 0.43611 0.61705 0.0
C923 C 0.66784 0.46233 0.62082 0.0
H924 H 0.63839 0.40517 0.62832 0.0
H925 H 0.67998 0.66258 0.66326 0.0
H926 H 0.93033 0.17683 0.08363 0.0
H927 H 0.96068 0.17042 0.12287 0.0
H928 H 0.91548 0.11044 0.15325 0.0
H929 H 0.88557 0.11601 0.11338 0.0
H930 H 0.9406 0.14991 0.1964 0.0
H931 H 0.95204 0.08901 0.11948 0.0
H932 H 0.95806 0.07571 0.07018 0.0
H933 H 0.02464 0.11985 0.07409 0.0
H934 H 0.01838 0.13458 0.12304 0.0
H935 H 0.01913 0.07517 0.28256 0.0
H936 H 0.98872 0.09131 0.2483 0.0
H937 H 0.04468 0.13163 0.20758 0.0
H938 H 0.07533 0.1152 0.24156 0.0
H939 H 0.01491 0.10588 0.16968 0.0
H940 H 0.00541 0.16433 0.24786 0.0
H941 H 0.99954 0.17752 0.29729 0.0
H942 H 0.93063 0.13752 0.2918 0.0
H943 H 0.93623 0.12378 0.24243 0.0
C944 C 0.92668 0.16268 0.09906 0.0
C945 C 0.90568 0.14691 0.09566 0.0
C946 C 0.94401 0.159 0.12132 0.0
C947 C 0.94022 0.13995 0.1408 0.0
C948 C 0.91859 0.12528 0.13842 0.0
C949 C 0.90161 0.12843 0.1157 0.0
C950 C 0.95967 0.13377 0.16221 0.0
C951 C 0.95681 0.14016 0.1907 0.0
C952 C 0.98096 0.12155 0.15447 0.0
C953 C 0.98445 0.11335 0.12477 0.0
C954 C 0.96766 0.09643 0.10964 0.0
C955 C 0.97112 0.08863 0.08175 0.0
C956 C 0.99158 0.09722 0.06889 0.0
C957 C 0.00862 0.11359 0.08394 0.0
C958 C 0.00508 0.12174 0.11173 0.0
C959 C 0.02499 0.08759 0.26644 0.0
C960 C 0.04967 0.09389 0.26479 0.0
C961 C 0.00755 0.09693 0.24695 0.0
C962 C 0.01439 0.11293 0.22557 0.0
C963 C 0.039 0.11936 0.22396 0.0
C964 C 0.05648 0.10999 0.24342 0.0
C965 C 0.99595 0.12191 0.20415 0.0
C966 C 0.99892 0.11597 0.17553 0.0
C967 C 0.97481 0.1346 0.21181 0.0
C968 C 0.97135 0.14284 0.2415 0.0
C969 C 0.98909 0.15817 0.25725 0.0
C970 C 0.9858 0.16578 0.28525 0.0
C971 C 0.96475 0.15831 0.2977 0.0
C972 C 0.94693 0.14327 0.28214 0.0
C973 C 0.95014 0.13559 0.25414 0.0
H974 H 0.96223 0.16423 0.31938 0.0
H975 H 0.99433 0.09102 0.04736 0.0
H976 H 0.17819 0.85544 0.08866 0.0
H977 H 0.20151 0.82777 0.12033 0.0
H978 H 0.19241 0.76497 0.05815 0.0
H979 H 0.16829 0.79235 0.02672 0.0
H980 H 0.18849 0.74711 0.10815 0.0
H981 H 0.24606 0.80221 0.06829 0.0
H982 H 0.26405 0.84348 0.05524 0.0
H983 H 0.27395 0.8678 0.1428 0.0
H984 H 0.25571 0.8268 0.15636 0.0
H985 H 0.28518 0.67327 0.16851 0.0
H986 H 0.26079 0.69963 0.1362 0.0
H987 H 0.25954 0.75967 0.20127 0.0
H988 H 0.28385 0.73343 0.23375 0.0
H989 H 0.26938 0.77812 0.14884 0.0
H990 H 0.21112 0.72157 0.18758 0.0
H991 H 0.19395 0.67942 0.19906 0.0
H992 H 0.18691 0.65664 0.11094 0.0
H993 H 0.20437 0.69855 0.09896 0.0
C994 C 0.18104 0.83569 0.08177 0.0
C995 C 0.17155 0.82616 0.05507 0.0
C996 C 0.1945 0.81992 0.09985 0.0
C997 C 0.19925 0.79442 0.09141 0.0
C998 C 0.18913 0.7846 0.06511 0.0
C999 C 0.17534 0.80028 0.04715 0.0
C1000 C 0.215 0.77817 0.10986 0.0
C1001 C 0.20631 0.75378 0.11669 0.0
C1002 C 0.23818 0.78691 0.12138 0.0
C1003 C 0.24932 0.81152 0.11332 0.0
C1004 C 0.25193 0.81643 0.08475 0.0
C1005 C 0.26219 0.83977 0.07726 0.0
C1006 C 0.27009 0.85828 0.09817 0.0
C1007 C 0.2678 0.85346 0.12662 0.0
C1008 C 0.25753 0.83016 0.13423 0.0
C1009 C 0.27981 0.69213 0.17593 0.0
C1010 C 0.28641 0.70122 0.20375 0.0
C1011 C 0.26578 0.70712 0.15746 0.0
C1012 C 0.25817 0.73151 0.16642 0.0
C1013 C 0.26518 0.74088 0.19395 0.0
C1014 C 0.27903 0.72582 0.2125 0.0
C1015 C 0.24277 0.74725 0.14718 0.0
C1016 C 0.25157 0.7715 0.14019 0.0
C1017 C 0.21986 0.73824 0.13524 0.0
C1018 C 0.20928 0.71309 0.14241 0.0
C1019 C 0.2061 0.70749 0.17067 0.0
C1020 C 0.19628 0.68366 0.17726 0.0
C1021 C 0.18941 0.66534 0.15575 0.0
C1022 C 0.19228 0.67084 0.12758 0.0
C1023 C 0.20212 0.69463 0.12088 0.0
H1024 H 0.1818 0.6469 0.16089 0.0
H1025 H 0.27802 0.87634 0.09233 0.0
H1026 H 0.69156 0.72798 0.51304 0.0
H1027 H 0.72454 0.75367 0.53765 0.0
H1028 H 0.75787 0.68439 0.56709 0.0
H1029 H 0.72469 0.65855 0.5431 0.0
H1030 H 0.76402 0.72255 0.60681 0.0
H1031 H 0.77517 0.71158 0.50783 0.0
H1032 H 0.76339 0.71339 0.45689 0.0
H1033 H 0.75677 0.79543 0.46553 0.0
H1034 H 0.76812 0.79405 0.51665 0.0
H1035 H 0.88868 0.76296 0.61943 0.0
H1036 H 0.84916 0.74195 0.60745 0.0
H1037 H 0.81877 0.81523 0.58683 0.0
H1038 H 0.85822 0.83645 0.59888 0.0
H1039 H 0.80953 0.77741 0.54451 0.0
H1040 H 0.8028 0.78727 0.64447 0.0
H1041 H 0.81592 0.78343 0.69481 0.0
H1042 H 0.81652 0.7011 0.68345 0.0
H1043 H 0.80373 0.70446 0.63292 0.0
C1044 C 0.7057 0.7182 0.52511 0.0
C1045 C 0.70568 0.69117 0.5257 0.0
C1046 C 0.72457 0.73293 0.53912 0.0
C1047 C 0.74393 0.7209 0.55368 0.0
C1048 C 0.74317 0.69406 0.55585 0.0
C1049 C 0.72421 0.67931 0.54203 0.0
C1050 C 0.76584 0.73603 0.56466 0.0
C1051 C 0.77407 0.73442 0.59318 0.0
C1052 C 0.77881 0.75174 0.54691 0.0
C1053 C 0.77223 0.75267 0.51612 0.0
C1054 C 0.77103 0.72998 0.4989 0.0
C1055 C 0.76445 0.73093 0.46999 0.0
C1056 C 0.75928 0.7545 0.45799 0.0
C1057 C 0.76074 0.77718 0.47487 0.0
C1058 C 0.76725 0.77633 0.50381 0.0
C1059 C 0.87352 0.77467 0.61268 0.0
C1060 C 0.8766 0.80137 0.61001 0.0
C1061 C 0.85093 0.76264 0.60596 0.0
C1062 C 0.83103 0.77706 0.59637 0.0
C1063 C 0.83391 0.80378 0.59425 0.0
C1064 C 0.85645 0.81587 0.60121 0.0
C1065 C 0.80771 0.76398 0.58668 0.0
C1066 C 0.79931 0.76583 0.55828 0.0
C1067 C 0.79485 0.74823 0.60444 0.0
C1068 C 0.80251 0.74614 0.63484 0.0
C1069 C 0.80593 0.76836 0.65264 0.0
C1070 C 0.81327 0.76626 0.68123 0.0
C1071 C 0.81711 0.74204 0.69231 0.0
C1072 C 0.81356 0.71986 0.67483 0.0
C1073 C 0.80624 0.72184 0.64623 0.0
H1074 H 0.82278 0.74046 0.71445 0.0
H1075 H 0.75419 0.7552 0.43561 0.0
H1076 H 0.76939 0.17462 0.04644 0.0
H1077 H 0.7417 0.1884 0.08187 0.0
H1078 H 0.8008 0.19066 0.14622 0.0
H1079 H 0.82869 0.17728 0.11089 0.0
H1080 H 0.75716 0.16594 0.16194 0.0
H1081 H 0.78474 0.24374 0.12185 0.0
H1082 H 0.79213 0.273 0.08358 0.0
H1083 H 0.71575 0.27426 0.06043 0.0
H1084 H 0.70795 0.24439 0.09806 0.0
H1085 H 0.7065 0.23883 0.27153 0.0
H1086 H 0.73193 0.22147 0.23566 0.0
H1087 H 0.67517 0.23403 0.1709 0.0
H1088 H 0.64987 0.25208 0.2066 0.0
H1089 H 0.71678 0.25003 0.15438 0.0
H1090 H 0.68859 0.17282 0.19431 0.0
H1091 H 0.68074 0.14324 0.23218 0.0
H1092 H 0.75706 0.1405 0.25528 0.0
H1093 H 0.76535 0.17035 0.21778 0.0
C1094 C 0.77646 0.17792 0.06816 0.0
C1095 C 0.80123 0.175 0.07588 0.0
C1096 C 0.76064 0.18584 0.08833 0.0
C1097 C 0.76927 0.19061 0.11658 0.0
C1098 C 0.79384 0.18705 0.1245 0.0
C1099 C 0.80973 0.17955 0.10428 0.0
C1100 C 0.75281 0.19995 0.13781 0.0
C1101 C 0.74847 0.18442 0.1605 0.0
C1102 C 0.74111 0.22379 0.13543 0.0
C1103 C 0.74579 0.24152 0.11254 0.0
C1104 C 0.76954 0.24994 0.10834 0.0
C1105 C 0.77381 0.26667 0.08678 0.0
C1106 C 0.75444 0.27539 0.06949 0.0
C1107 C 0.73075 0.2674 0.07375 0.0
C1108 C 0.7264 0.25053 0.09516 0.0
C1109 C 0.69937 0.23778 0.24967 0.0
C1110 C 0.67615 0.24682 0.24191 0.0
C1111 C 0.71389 0.22771 0.22919 0.0
C1112 C 0.70536 0.22612 0.20059 0.0
C1113 C 0.68214 0.23504 0.19282 0.0
C1114 C 0.66768 0.2453 0.21326 0.0
C1115 C 0.72097 0.21601 0.17867 0.0
C1116 C 0.72525 0.23143 0.15581 0.0
C1117 C 0.73249 0.19198 0.18082 0.0
C1118 C 0.72757 0.17402 0.2034 0.0
C1119 C 0.70369 0.16607 0.20761 0.0
C1120 C 0.69916 0.14923 0.22898 0.0
C1121 C 0.71838 0.14005 0.24617 0.0
C1122 C 0.74218 0.14765 0.24197 0.0
C1123 C 0.74681 0.16451 0.22064 0.0
H1124 H 0.71484 0.127 0.2627 0.0
H1125 H 0.75779 0.28842 0.05289 0.0
H1126 H 0.31426 0.28348 0.61506 0.0
H1127 H 0.30704 0.27188 0.663 0.0
H1128 H 0.29115 0.35091 0.68429 0.0
H1129 H 0.29788 0.36264 0.6359 0.0
H1130 H 0.33105 0.28653 0.7103 0.0
H1131 H 0.25177 0.35167 0.73738 0.0
H1132 H 0.21631 0.37165 0.71327 0.0
H1133 H 0.2136 0.31197 0.64798 0.0
H1134 H 0.2488 0.29147 0.67188 0.0
H1135 H 0.31916 0.27754 0.85668 0.0
H1136 H 0.32323 0.29459 0.80993 0.0
H1137 H 0.25309 0.26156 0.78149 0.0
H1138 H 0.24834 0.24606 0.8288 0.0
H1139 H 0.25657 0.30453 0.75923 0.0
H1140 H 0.31104 0.23327 0.76765 0.0
H1141 H 0.34487 0.20872 0.78902 0.0
H1142 H 0.39404 0.27202 0.77852 0.0
H1143 H 0.36044 0.29706 0.75741 0.0
C1144 C 0.309 0.2984 0.62981 0.0
C1145 C 0.30664 0.324 0.62166 0.0
C1146 C 0.30497 0.29173 0.65727 0.0
C1147 C 0.29857 0.31049 0.67726 0.0
C1148 C 0.29579 0.33604 0.66913 0.0
C1149 C 0.29965 0.34272 0.64148 0.0
C1150 C 0.2957 0.3032 0.70678 0.0
C1151 C 0.31476 0.29049 0.72102 0.0
C1152 C 0.27441 0.30819 0.72069 0.0
C1153 C 0.25309 0.32023 0.70627 0.0
C1154 C 0.24355 0.34279 0.71792 0.0
C1155 C 0.22351 0.3542 0.70428 0.0
C1156 C 0.21277 0.34314 0.67905 0.0
C1157 C 0.22199 0.32058 0.66746 0.0
C1158 C 0.24202 0.30908 0.68102 0.0
C1159 C 0.30462 0.274 0.84042 0.0
C1160 C 0.28353 0.26032 0.84622 0.0
C1161 C 0.30699 0.28365 0.81365 0.0
C1162 C 0.28872 0.2789 0.79185 0.0
C1163 C 0.26747 0.26551 0.79785 0.0
C1164 C 0.26481 0.25654 0.82485 0.0
C1165 C 0.2918 0.2874 0.7627 0.0
C1166 C 0.27289 0.30058 0.74858 0.0
C1167 C 0.31299 0.28216 0.74854 0.0
C1168 C 0.33319 0.26712 0.76124 0.0
C1169 C 0.32904 0.242 0.77008 0.0
C1170 C 0.34817 0.228 0.78212 0.0
C1171 C 0.37157 0.23883 0.7852 0.0
C1172 C 0.3759 0.26367 0.77618 0.0
C1173 C 0.35683 0.27777 0.76416 0.0
H1174 H 0.38636 0.22795 0.79452 0.0
H1175 H 0.19726 0.35201 0.66853 0.0
H1176 H 0.67001 0.69212 0.38785 0.0
H1177 H 0.69372 0.70128 0.34764 0.0
H1178 H 0.75336 0.65903 0.38492 0.0
H1179 H 0.73006 0.65015 0.42528 0.0
H1180 H 0.76942 0.7024 0.36338 0.0
H1181 H 0.71475 0.63211 0.33198 0.0
H1182 H 0.67476 0.61046 0.32285 0.0
H1183 H 0.65222 0.6695 0.26649 0.0
H1184 H 0.692 0.6917 0.27561 0.0
H1185 H 0.83588 0.6688 0.24559 0.0
H1186 H 0.81175 0.66997 0.28673 0.0
H1187 H 0.75805 0.71484 0.24166 0.0
H1188 H 0.78204 0.71362 0.20025 0.0
H1189 H 0.7376 0.67458 0.26649 0.0
H1190 H 0.79447 0.74261 0.29496 0.0
H1191 H 0.83487 0.76331 0.30421 0.0
H1192 H 0.85383 0.70761 0.36604 0.0
H1193 H 0.81365 0.68634 0.35688 0.0
C1194 C 0.68821 0.68488 0.38756 0.0
C1195 C 0.69806 0.67029 0.40977 0.0
C1196 C 0.70171 0.69007 0.36451 0.0
C1197 C 0.72524 0.68061 0.36312 0.0
C1198 C 0.73527 0.66654 0.38553 0.0
C1199 C 0.72184 0.66139 0.40856 0.0
C1200 C 0.7393 0.68473 0.33809 0.0
C1201 C 0.76255 0.69615 0.34222 0.0
C1202 C 0.7301 0.67713 0.31038 0.0
C1203 C 0.70624 0.66372 0.30473 0.0
C1204 C 0.7012 0.64058 0.31781 0.0
C1205 C 0.67858 0.62819 0.31261 0.0
C1206 C 0.66093 0.63864 0.29417 0.0
C1207 C 0.66589 0.66146 0.28082 0.0
C1208 C 0.68847 0.67394 0.28598 0.0
C1209 C 0.81907 0.67918 0.2445 0.0
C1210 C 0.81088 0.69111 0.21961 0.0
C1211 C 0.80533 0.6799 0.26809 0.0
C1212 C 0.78316 0.69265 0.26735 0.0
C1213 C 0.77511 0.70493 0.2427 0.0
C1214 C 0.7889 0.70428 0.2191 0.0
C1215 C 0.76788 0.69195 0.29181 0.0
C1216 C 0.74439 0.68113 0.28759 0.0
C1217 C 0.77692 0.69997 0.31944 0.0
C1218 C 0.8011 0.71275 0.32506 0.0
C1219 C 0.80732 0.73464 0.31037 0.0
C1220 C 0.83017 0.74651 0.31563 0.0
C1221 C 0.84692 0.73675 0.33566 0.0
C1222 C 0.84084 0.71514 0.35052 0.0
C1223 C 0.81802 0.70319 0.34533 0.0
H1224 H 0.8646 0.74596 0.3397 0.0
H1225 H 0.64343 0.62902 0.29017 0.0
H1226 H 0.82075 0.23499 0.99514 0.0
H1227 H 0.7999 0.26522 0.96425 0.0
H1228 H 0.78818 0.20535 0.89907 0.0
H1229 H 0.80894 0.17475 0.92998 0.0
H1230 H 0.80329 0.25362 0.87899 0.0
H1231 H 0.74394 0.21875 0.93632 0.0
H1232 H 0.72674 0.20697 0.98067 0.0
H1233 H 0.72764 0.28659 0.00844 0.0
H1234 H 0.74554 0.29879 0.96461 0.0
H1235 H 0.70981 0.31445 0.7959 0.0
H1236 H 0.73523 0.28517 0.82336 0.0
H1237 H 0.73979 0.34007 0.8941 0.0
H1238 H 0.71401 0.36927 0.86694 0.0
H1239 H 0.72867 0.29359 0.91081 0.0
H1240 H 0.78855 0.32864 0.85396 0.0
H1241 H 0.80613 0.34054 0.80984 0.0
H1242 H 0.80399 0.26116 0.78106 0.0
H1243 H 0.78609 0.24881 0.82487 0.0
C1244 C 0.81392 0.22822 0.97417 0.0
C1245 C 0.81638 0.20237 0.96511 0.0
C1246 C 0.80195 0.24554 0.95657 0.0
C1247 C 0.79234 0.23746 0.92949 0.0
C1248 C 0.79547 0.21193 0.91994 0.0
C1249 C 0.80723 0.19447 0.93767 0.0
C1250 C 0.77825 0.25549 0.91165 0.0
C1251 C 0.7868 0.26215 0.88572 0.0
C1252 C 0.75702 0.26696 0.92079 0.0
C1253 C 0.74638 0.25966 0.94729 0.0
C1254 C 0.74078 0.23373 0.95204 0.0
C1255 C 0.7309 0.22697 0.97709 0.0
C1256 C 0.72623 0.246 0.99743 0.0
C1257 C 0.73141 0.27184 0.99275 0.0
C1258 C 0.74145 0.27869 0.96781 0.0
C1259 C 0.71644 0.32044 0.81719 0.0
C1260 C 0.70984 0.3442 0.82923 0.0
C1261 C 0.73106 0.30369 0.83285 0.0
C1262 C 0.73957 0.31046 0.86077 0.0
C1263 C 0.73342 0.33441 0.87262 0.0
C1264 C 0.71874 0.35113 0.85701 0.0
C1265 C 0.7538 0.29206 0.87815 0.0
C1266 C 0.7452 0.2852 0.90402 0.0
C1267 C 0.77499 0.28047 0.86895 0.0
C1268 C 0.78574 0.28784 0.84258 0.0
C1269 C 0.79163 0.31374 0.83812 0.0
C1270 C 0.8017 0.32056 0.81319 0.0
C1271 C 0.80611 0.30162 0.79263 0.0
C1272 C 0.80053 0.27581 0.79699 0.0
C1273 C 0.79044 0.26889 0.82188 0.0
H1274 H 0.81391 0.30694 0.77334 0.0
H1275 H 0.71848 0.2407 0.01675 0.0
H1276 H 0.25597 0.30627 0.5127 0.0
H1277 H 0.23167 0.27075 0.48925 0.0
H1278 H 0.29702 0.23161 0.47051 0.0
H1279 H 0.32137 0.26709 0.49325 0.0
H1280 H 0.26428 0.22649 0.42682 0.0
H1281 H 0.26539 0.2167 0.52766 0.0
H1282 H 0.25884 0.2307 0.5767 0.0
H1283 H 0.18297 0.23906 0.55409 0.0
H1284 H 0.18914 0.22545 0.50479 0.0
H1285 H 0.23053 0.09438 0.41686 0.0
H1286 H 0.24768 0.13715 0.43011 0.0
H1287 H 0.17582 0.16617 0.43752 0.0
H1288 H 0.15844 0.12333 0.42421 0.0
H1289 H 0.20717 0.17967 0.48376 0.0
H1290 H 0.20627 0.18356 0.3834 0.0
H1291 H 0.21391 0.16851 0.33504 0.0
H1292 H 0.2905 0.16993 0.35734 0.0
H1293 H 0.28331 0.18464 0.40598 0.0
C1294 C 0.26517 0.29021 0.50336 0.0
C1295 C 0.29063 0.28942 0.50516 0.0
C1296 C 0.25125 0.26989 0.49003 0.0
C1297 C 0.26253 0.24834 0.4785 0.0
C1298 C 0.28791 0.24801 0.47929 0.0
C1299 C 0.30182 0.2683 0.49246 0.0
C1300 C 0.24815 0.22551 0.46676 0.0
C1301 C 0.25188 0.21618 0.4393 0.0
C1302 C 0.23155 0.21238 0.48282 0.0
C1303 C 0.22778 0.22036 0.51248 0.0
C1304 C 0.24734 0.22171 0.53311 0.0
C1305 C 0.2437 0.22954 0.56095 0.0
C1306 C 0.22052 0.23585 0.56849 0.0
C1307 C 0.20092 0.23423 0.54821 0.0
C1308 C 0.20448 0.22645 0.52031 0.0
C1309 C 0.21834 0.10988 0.42109 0.0
C1310 C 0.19312 0.10546 0.41951 0.0
C1311 C 0.22817 0.13435 0.42853 0.0
C1312 C 0.213 0.15486 0.43458 0.0
C1313 C 0.18781 0.15059 0.43285 0.0
C1314 C 0.17794 0.12613 0.42518 0.0
C1315 C 0.22365 0.1804 0.44402 0.0
C1316 C 0.21926 0.19021 0.47108 0.0
C1317 C 0.2398 0.19382 0.42768 0.0
C1318 C 0.24422 0.18502 0.39842 0.0
C1319 C 0.22473 0.18047 0.37807 0.0
C1320 C 0.22898 0.17203 0.35058 0.0
C1321 C 0.25267 0.16822 0.34314 0.0
C1322 C 0.27216 0.17288 0.36315 0.0
C1323 C 0.268 0.1813 0.39067 0.0
H1324 H 0.25593 0.16169 0.32185 0.0
H1325 H 0.21773 0.24191 0.59005 0.0
H1326 H 0.14962 0.83735 0.90958 0.0
H1327 H 0.17522 0.81863 0.87462 0.0
H1328 H 0.23798 0.8304 0.93332 0.0
H1329 H 0.21261 0.85004 0.96796 0.0
H1330 H 0.25003 0.84116 0.88352 0.0
H1331 H 0.2079 0.77004 0.92058 0.0
H1332 H 0.17237 0.74487 0.93348 0.0
H1333 H 0.14486 0.73981 0.84655 0.0
H1334 H 0.1801 0.76525 0.83318 0.0
H1335 H 0.32618 0.74988 0.81917 0.0
H1336 H 0.30009 0.77132 0.85196 0.0
H1337 H 0.24268 0.77303 0.78583 0.0
H1338 H 0.26876 0.75189 0.75276 0.0
H1339 H 0.22782 0.75552 0.83832 0.0
H1340 H 0.27217 0.82626 0.80227 0.0
H1341 H 0.30898 0.85015 0.79104 0.0
H1342 H 0.33394 0.85394 0.87883 0.0
H1343 H 0.29741 0.82972 0.89053 0.0
C1344 C 0.1689 0.83605 0.915 0.0
C1345 C 0.17904 0.84505 0.94164 0.0
C1346 C 0.18352 0.8252 0.89504 0.0
C1347 C 0.20851 0.82256 0.90148 0.0
C1348 C 0.21876 0.83212 0.92782 0.0
C1349 C 0.20421 0.84333 0.94764 0.0
C1350 C 0.22396 0.80964 0.88093 0.0
C1351 C 0.24527 0.82229 0.87395 0.0
C1352 C 0.21768 0.78516 0.86798 0.0
C1353 C 0.19652 0.76977 0.87593 0.0
C1354 C 0.19419 0.76371 0.90425 0.0
C1355 C 0.17412 0.74938 0.91163 0.0
C1356 C 0.15634 0.74081 0.89086 0.0
C1357 C 0.15863 0.74649 0.86263 0.0
C1358 C 0.17866 0.76085 0.85513 0.0
C1359 C 0.308 0.75479 0.81159 0.0
C1360 C 0.29955 0.74922 0.78334 0.0
C1361 C 0.29315 0.76711 0.83033 0.0
C1362 C 0.2695 0.77388 0.82127 0.0
C1363 C 0.26088 0.76799 0.79322 0.0
C1364 C 0.27583 0.75598 0.77435 0.0
C1365 C 0.25377 0.78704 0.84111 0.0
C1366 C 0.23245 0.77441 0.84793 0.0
C1367 C 0.26023 0.81134 0.85421 0.0
C1368 C 0.28217 0.82594 0.84723 0.0
C1369 C 0.28561 0.83198 0.81915 0.0
C1370 C 0.3064 0.84563 0.8127 0.0
C1371 C 0.32382 0.8535 0.8342 0.0
C1372 C 0.32045 0.8478 0.86219 0.0
C1373 C 0.29969 0.83413 0.86874 0.0
H1374 H 0.3399 0.86407 0.82917 0.0
H1375 H 0.14081 0.72971 0.89662 0.0
loop_
_geom_bond_atom_site_label_1
_geom_bond_atom_site_label_2
_geom_bond_distance
_geom_bond_site_symmetry_2
_ccdc_geom_bond_type
Fe0 O2 1.918 1_554 S
Fe0 O5 1.997 . S
Fe0 O6 2.002 . S
Fe0 O11 1.976 1_554 S
Fe0 O14 1.996 1_554 S
Fe1 O2 1.918 1_554 S
Fe1 O9 1.997 . S
Fe1 O12 1.996 1_554 S
Fe1 O16 1.976 1_554 S
Fe1 O19 2.002 . S
O2 Fe0 1.918 1_556 S
O2 Fe1 1.918 1_556 S
O2 Fe3 1.918 . S
Fe3 O2 1.918 . S
Fe3 O4 2.002 1_556 S
Fe3 O13 1.976 . S
Fe3 O17 1.996 . S
Fe3 O20 1.997 1_556 S
O4 Fe3 2.002 1_554 S
O4 C21 1.295 . S
O5 Fe0 1.997 . S
O5 C21 1.235 . S
O6 Fe0 2.002 . S
O6 C7 1.295 . S
C7 O6 1.295 . S
C7 O9 1.235 . S
C8 O13 1.287 . S
C8 O14 1.255 . S
O9 Fe1 1.997 . S
O9 C7 1.235 . S
C10 O16 1.287 . S
C10 O17 1.255 . S
O11 Fe0 1.976 1_556 S
O11 C18 1.287 . S
O12 Fe1 1.996 1_556 S
O12 C18 1.255 . S
O13 Fe3 1.976 . S
O13 C8 1.287 . S
O14 Fe0 1.996 1_556 S
O14 C8 1.255 . S
C15 O19 1.295 . S
C15 O20 1.235 . S
O16 Fe1 1.976 1_556 S
O16 C10 1.287 . S
O17 Fe3 1.996 . S
O17 C10 1.255 . S
C18 O11 1.287 . S
C18 O12 1.255 . S
O19 Fe1 2.002 . S
O19 C15 1.295 . S
O20 Fe3 1.997 1_554 S
O20 C15 1.235 . S
C21 O4 1.295 . S
C21 O5 1.235 . S
Fe22 O24 1.918 . S
Fe22 O27 1.997 . S
Fe22 O28 2.002 . S
Fe22 O33 1.976 . S
Fe22 O36 1.996 . S
Fe23 O24 1.918 . S
Fe23 O31 1.997 . S
Fe23 O34 1.996 . S
Fe23 O38 1.976 . S
Fe23 O41 2.002 . S
O24 Fe22 1.918 . S
O24 Fe23 1.918 . S
O24 Fe25 1.918 . S
Fe25 O24 1.918 . S
Fe25 O26 2.002 . S
Fe25 O35 1.976 . S
Fe25 O39 1.996 . S
Fe25 O42 1.997 . S
O26 Fe25 2.002 . S
O26 C43 1.295 . S
O27 Fe22 1.997 . S
O27 C43 1.235 . S
O28 Fe22 2.002 . S
O28 C29 1.295 . S
C29 O28 1.295 . S
C29 O31 1.235 . S
C30 O35 1.287 . S
C30 O36 1.255 . S
O31 Fe23 1.997 . S
O31 C29 1.235 . S
C32 O38 1.287 . S
C32 O39 1.255 . S
O33 Fe22 1.976 . S
O33 C40 1.287 . S
O34 Fe23 1.996 . S
O34 C40 1.255 . S
O35 Fe25 1.976 . S
O35 C30 1.287 . S
O36 Fe22 1.996 . S
O36 C30 1.255 . S
C37 O41 1.295 . S
C37 O42 1.235 . S
O38 Fe23 1.976 . S
O38 C32 1.287 . S
O39 Fe25 1.996 . S
O39 C32 1.255 . S
C40 O33 1.287 . S
C40 O34 1.255 . S
O41 Fe23 2.002 . S
O41 C37 1.295 . S
O42 Fe25 1.997 . S
O42 C37 1.235 . S
C43 O26 1.295 . S
C43 O27 1.235 . S
Fe44 O46 1.918 . S
Fe44 O49 1.997 . S
Fe44 O50 2.002 . S
Fe44 O55 1.976 . S
Fe44 O58 1.996 . S
Fe45 O46 1.918 . S
Fe45 O53 1.997 . S
Fe45 O56 1.996 . S
Fe45 O60 1.976 . S
Fe45 O63 2.002 1_554 S
O46 Fe44 1.918 . S
O46 Fe45 1.918 . S
O46 Fe47 1.918 . S
Fe47 O46 1.918 . S
Fe47 O48 2.002 1_554 S
Fe47 O57 1.976 . S
Fe47 O61 1.996 . S
Fe47 O64 1.997 1_554 S
O48 Fe47 2.002 1_556 S
O48 C65 1.295 . S
O49 Fe44 1.997 . S
O49 C65 1.235 1_554 S
O50 Fe44 2.002 . S
O50 C51 1.295 . S
C51 O50 1.295 . S
C51 O53 1.235 . S
C52 O57 1.287 . S
C52 O58 1.255 . S
O53 Fe45 1.997 . S
O53 C51 1.235 . S
C54 O60 1.287 . S
C54 O61 1.255 . S
O55 Fe44 1.976 . S
O55 C62 1.287 . S
O56 Fe45 1.996 . S
O56 C62 1.255 . S
O57 Fe47 1.976 . S
O57 C52 1.287 . S
O58 Fe44 1.996 . S
O58 C52 1.255 . S
C59 O63 1.295 . S
C59 O64 1.235 . S
O60 Fe45 1.976 . S
O60 C54 1.287 . S
O61 Fe47 1.996 . S
O61 C54 1.255 . S
C62 O55 1.287 . S
C62 O56 1.255 . S
O63 Fe45 2.002 1_556 S
O63 C59 1.295 . S
O64 Fe47 1.997 1_556 S
O64 C59 1.235 . S
C65 O48 1.295 . S
C65 O49 1.235 1_556 S
Fe66 O68 1.918 . S
Fe66 O71 1.997 . S
Fe66 O72 2.002 . S
Fe66 O77 1.976 . S
Fe66 O80 1.996 . S
Fe67 O68 1.918 . S
Fe67 O75 1.997 . S
Fe67 O78 1.996 . S
Fe67 O82 1.976 . S
Fe67 O85 2.002 . S
O68 Fe66 1.918 . S
O68 Fe67 1.918 . S
O68 Fe69 1.918 . S
Fe69 O68 1.918 . S
Fe69 O70 2.002 . S
Fe69 O79 1.976 . S
Fe69 O83 1.996 . S
Fe69 O86 1.997 . S
O70 Fe69 2.002 . S
O70 C87 1.295 . S
O71 Fe66 1.997 . S
O71 C87 1.235 . S
O72 Fe66 2.002 . S
O72 C73 1.295 . S
C73 O72 1.295 . S
C73 O75 1.235 . S
C74 O79 1.287 . S
C74 O80 1.255 . S
O75 Fe67 1.997 . S
O75 C73 1.235 . S
C76 O82 1.287 . S
C76 O83 1.255 . S
O77 Fe66 1.976 . S
O77 C84 1.287 . S
O78 Fe67 1.996 . S
O78 C84 1.255 . S
O79 Fe69 1.976 . S
O79 C74 1.287 . S
O80 Fe66 1.996 . S
O80 C74 1.255 . S
C81 O85 1.295 . S
C81 O86 1.235 . S
O82 Fe67 1.976 . S
O82 C76 1.287 . S
O83 Fe69 1.996 . S
O83 C76 1.255 . S
C84 O77 1.287 . S
C84 O78 1.255 . S
O85 Fe67 2.002 . S
O85 C81 1.295 . S
O86 Fe69 1.997 . S
O86 C81 1.235 . S
C87 O70 1.295 . S
C87 O71 1.235 . S
O88 Cd89 2.300 . S
O88 C95 1.275 . S
Cd89 O88 2.300 . S
Cd89 O97 2.381 . S
Cd89 O98 2.378 . S
O90 Cd91 2.385 . S
O90 C95 1.255 . S
Cd91 O90 2.385 . S
Cd91 O92 2.317 . S
O92 Cd91 2.317 . S
O92 C93 1.232 . S
C93 O92 1.232 . S
C93 O94 1.218 . S
O94 C93 1.218 . S
C95 O88 1.275 . S
C95 O90 1.255 . S
C96 O97 1.258 . S
C96 O98 1.256 . S
O97 Cd89 2.381 . S
O97 C96 1.258 . S
O98 Cd89 2.378 . S
O98 C96 1.256 . S
O99 Cd100 2.300 . S
O99 C106 1.275 . S
Cd100 O99 2.300 . S
Cd100 O108 2.381 . S
Cd100 O109 2.378 . S
O101 Cd102 2.385 . S
O101 C106 1.255 . S
Cd102 O101 2.385 . S
Cd102 O103 2.317 . S
O103 Cd102 2.317 . S
O103 C104 1.232 . S
C104 O103 1.232 . S
C104 O105 1.218 . S
O105 C104 1.218 . S
C106 O99 1.275 . S
C106 O101 1.255 . S
C107 O108 1.258 . S
C107 O109 1.256 . S
O108 Cd100 2.381 . S
O108 C107 1.258 . S
O109 Cd100 2.378 . S
O109 C107 1.256 . S
O110 Cd111 2.300 . S
O110 C117 1.275 . S
Cd111 O110 2.300 . S
Cd111 O119 2.381 . S
Cd111 O120 2.378 . S
O112 Cd113 2.385 . S
O112 C117 1.255 . S
Cd113 O112 2.385 . S
Cd113 O114 2.317 . S
O114 Cd113 2.317 . S
O114 C115 1.232 . S
C115 O114 1.232 . S
C115 O116 1.218 . S
O116 C115 1.218 . S
C117 O110 1.275 . S
C117 O112 1.255 . S
C118 O119 1.258 . S
C118 O120 1.256 . S
O119 Cd111 2.381 . S
O119 C118 1.258 . S
O120 Cd111 2.378 . S
O120 C118 1.256 . S
O121 Cd122 2.300 . S
O121 C128 1.275 . S
Cd122 O121 2.300 . S
Cd122 O130 2.381 . S
Cd122 O131 2.378 . S
O123 Cd124 2.385 . S
O123 C128 1.255 . S
Cd124 O123 2.385 . S
Cd124 O125 2.317 . S
O125 Cd124 2.317 . S
O125 C126 1.232 . S
C126 O125 1.232 . S
C126 O127 1.218 . S
O127 C126 1.218 . S
C128 O121 1.275 . S
C128 O123 1.255 . S
C129 O130 1.258 . S
C129 O131 1.256 . S
O130 Cd122 2.381 . S
O130 C129 1.258 . S
O131 Cd122 2.378 . S
O131 C129 1.256 . S
O132 Cd133 2.300 . S
O132 C139 1.275 . S
Cd133 O132 2.300 . S
Cd133 O141 2.381 . S
Cd133 O142 2.378 . S
O134 Cd135 2.385 . S
O134 C139 1.255 . S
Cd135 O134 2.385 . S
Cd135 O136 2.317 . S
O136 Cd135 2.317 . S
O136 C137 1.232 . S
C137 O136 1.232 . S
C137 O138 1.218 . S
O138 C137 1.218 . S
C139 O132 1.275 . S
C139 O134 1.255 . S
C140 O141 1.258 . S
C140 O142 1.256 . S
O141 Cd133 2.381 . S
O141 C140 1.258 . S
O142 Cd133 2.378 . S
O142 C140 1.256 . S
O143 Cd144 2.300 . S
O143 C150 1.275 . S
Cd144 O143 2.300 . S
Cd144 O152 2.381 . S
Cd144 O153 2.378 . S
O145 Cd146 2.385 . S
O145 C150 1.255 . S
Cd146 O145 2.385 . S
Cd146 O147 2.317 . S
O147 Cd146 2.317 . S
O147 C148 1.232 . S
C148 O147 1.232 . S
C148 O149 1.218 . S
O149 C148 1.218 . S
C150 O143 1.275 . S
C150 O145 1.255 . S
C151 O152 1.258 . S
C151 O153 1.256 . S
O152 Cd144 2.381 . S
O152 C151 1.258 . S
O153 Cd144 2.378 . S
O153 C151 1.256 . S
O154 Cd155 2.300 . S
O154 C161 1.275 . S
Cd155 O154 2.300 . S
Cd155 O163 2.381 . S
Cd155 O164 2.378 . S
O156 Cd157 2.385 . S
O156 C161 1.255 . S
Cd157 O156 2.385 . S
Cd157 O158 2.317 . S
O158 Cd157 2.317 . S
O158 C159 1.232 . S
C159 O158 1.232 . S
C159 O160 1.218 . S
O160 C159 1.218 . S
C161 O154 1.275 . S
C161 O156 1.255 . S
C162 O163 1.258 . S
C162 O164 1.256 . S
O163 Cd155 2.381 . S
O163 C162 1.258 . S
O164 Cd155 2.378 . S
O164 C162 1.256 . S
O165 Cd166 2.300 . S
O165 C172 1.275 . S
Cd166 O165 2.300 . S
Cd166 O174 2.381 . S
Cd166 O175 2.378 . S
O167 Cd168 2.385 . S
O167 C172 1.255 . S
Cd168 O167 2.385 . S
Cd168 O169 2.317 . S
O169 Cd168 2.317 . S
O169 C170 1.232 . S
C170 O169 1.232 . S
C170 O171 1.218 . S
O171 C170 1.218 . S
C172 O165 1.275 . S
C172 O167 1.255 . S
C173 O174 1.258 . S
C173 O175 1.256 . S
O174 Cd166 2.381 . S
O174 C173 1.258 . S
O175 Cd166 2.378 . S
O175 C173 1.256 . S
H176 C194 0.951 . S
H177 C196 0.951 . S
H178 C198 0.950 . S
H179 C199 0.950 . S
H180 C201 0.950 . S
H181 C204 0.950 . S
H182 C205 0.950 . S
H183 C207 0.950 . S
H184 C208 0.950 . S
H185 C209 0.951 . S
H186 C211 0.951 . S
H187 C213 0.950 . S
H188 C214 0.950 . S
H189 C216 0.950 . S
H190 C219 0.950 . S
H191 C220 0.950 . S
H192 C222 0.950 . S
H193 C223 0.950 . S
C194 H176 0.951 . S
C194 C195 1.366 . S
C194 C196 1.388 . S
C195 C194 1.366 . S
C195 C199 1.385 . S
C196 H177 0.951 . S
C196 C194 1.388 . S
C196 C197 1.366 . S
C197 C196 1.366 . S
C197 C198 1.414 . S
C197 C200 1.499 . S
C198 H178 0.950 . S
C198 C197 1.414 . S
C198 C199 1.374 . S
C199 H179 0.950 . S
C199 C195 1.385 . S
C199 C198 1.374 . S
C200 C197 1.499 . S
C200 C201 1.373 . S
C200 C202 1.389 . S
C201 H180 0.950 . S
C201 C200 1.373 . S
C201 C217 1.377 . S
C202 C200 1.389 . S
C202 C203 1.524 . S
C202 C216 1.377 1_565 S
C203 C202 1.524 . S
C203 C204 1.389 1_565 S
C203 C208 1.363 . S
C204 H181 0.950 . S
C204 C203 1.389 1_545 S
C204 C205 1.341 . S
C205 H182 0.950 . S
C205 C204 1.341 . S
C205 C206 1.287 . S
C206 C205 1.287 . S
C206 C207 1.519 1_545 S
C206 H225 0.913 . S
C207 H183 0.950 . S
C207 C206 1.519 1_565 S
C207 C208 1.419 . S
C208 H184 0.950 . S
C208 C203 1.363 . S
C208 C207 1.419 . S
C209 H185 0.951 . S
C209 C210 1.366 . S
C209 C211 1.388 . S
C210 C209 1.366 . S
C210 C214 1.385 . S
C211 H186 0.951 . S
C211 C209 1.388 . S
C211 C212 1.366 . S
C212 C211 1.366 . S
C212 C213 1.414 . S
C212 C215 1.499 1_545 S
C213 H187 0.950 . S
C213 C212 1.414 . S
C213 C214 1.374 . S
C214 H188 0.950 . S
C214 C210 1.385 . S
C214 C213 1.374 . S
C215 C212 1.499 1_565 S
C215 C216 1.373 1_565 S
C215 C217 1.389 . S
C216 H189 0.950 . S
C216 C202 1.377 1_545 S
C216 C215 1.373 1_545 S
C217 C201 1.377 . S
C217 C215 1.389 . S
C217 C218 1.524 . S
C218 C217 1.524 . S
C218 C219 1.397 . S
C218 C223 1.363 . S
C219 H190 0.950 . S
C219 C218 1.397 . S
C219 C220 1.334 . S
C220 H191 0.950 . S
C220 C219 1.334 . S
C220 C221 1.287 . S
C221 C220 1.287 . S
C221 C222 1.524 . S
C221 H224 0.999 . S
C222 H192 0.950 . S
C222 C221 1.524 . S
C222 C223 1.415 . S
C223 H193 0.950 . S
C223 C218 1.363 . S
C223 C222 1.415 . S
H224 C221 0.999 . S
H225 C206 0.913 . S
H226 C244 0.951 . S
H227 C246 0.951 . S
H228 C248 0.950 . S
H229 C249 0.950 . S
H230 C251 0.950 . S
H231 C254 0.950 . S
H232 C255 0.950 . S
H233 C257 0.950 . S
H234 C258 0.950 . S
H235 C259 0.951 . S
H236 C261 0.951 . S
H237 C263 0.950 . S
H238 C264 0.950 . S
H239 C266 0.950 . S
H240 C269 0.950 . S
H241 C270 0.950 . S
H242 C272 0.950 . S
H243 C273 0.950 . S
C244 H226 0.951 . S
C244 C245 1.366 . S
C244 C246 1.388 . S
C245 C244 1.366 . S
C245 C249 1.385 . S
C246 H227 0.951 . S
C246 C244 1.388 . S
C246 C247 1.366 . S
C247 C246 1.366 . S
C247 C248 1.414 . S
C247 C250 1.499 . S
C248 H228 0.950 . S
C248 C247 1.414 . S
C248 C249 1.374 . S
C249 H229 0.950 . S
C249 C245 1.385 . S
C249 C248 1.374 . S
C250 C247 1.499 . S
C250 C251 1.373 . S
C250 C252 1.389 . S
C251 H230 0.950 . S
C251 C250 1.373 . S
C251 C267 1.377 . S
C252 C250 1.389 . S
C252 C253 1.524 . S
C252 C266 1.377 . S
C253 C252 1.524 . S
C253 C254 1.397 . S
C253 C258 1.363 . S
C254 H231 0.950 . S
C254 C253 1.397 . S
C254 C255 1.334 . S
C255 H232 0.950 . S
C255 C254 1.334 . S
C255 C256 1.287 . S
C256 C255 1.287 . S
C256 C257 1.524 . S
C256 H275 0.913 . S
C257 H233 0.950 . S
C257 C256 1.524 . S
C257 C258 1.415 . S
C258 H234 0.950 . S
C258 C253 1.363 . S
C258 C257 1.415 . S
C259 H235 0.951 . S
C259 C260 1.366 . S
C259 C261 1.388 . S
C260 C259 1.366 . S
C260 C264 1.385 . S
C261 H236 0.951 . S
C261 C259 1.388 . S
C261 C262 1.366 . S
C262 C261 1.366 . S
C262 C263 1.414 . S
C262 C265 1.499 . S
C263 H237 0.950 . S
C263 C262 1.414 . S
C263 C264 1.374 . S
C264 H238 0.950 . S
C264 C260 1.385 . S
C264 C263 1.374 . S
C265 C262 1.499 . S
C265 C266 1.373 . S
C265 C267 1.389 . S
C266 H239 0.950 . S
C266 C252 1.377 . S
C266 C265 1.373 . S
C267 C251 1.377 . S
C267 C265 1.389 . S
C267 C268 1.524 . S
C268 C267 1.524 . S
C268 C269 1.397 . S
C268 C273 1.363 . S
C269 H240 0.950 . S
C269 C268 1.397 . S
C269 C270 1.334 . S
C270 H241 0.950 . S
C270 C269 1.334 . S
C270 C271 1.287 . S
C271 C270 1.287 . S
C271 C272 1.524 . S
C271 H274 0.999 . S
C272 H242 0.950 . S
C272 C271 1.524 . S
C272 C273 1.415 . S
C273 H243 0.950 . S
C273 C268 1.363 . S
C273 C272 1.415 . S
H274 C271 0.999 . S
H275 C256 0.913 . S
H276 C294 0.951 . S
H277 C296 0.951 . S
H278 C298 0.950 . S
H279 C299 0.950 . S
H280 C301 0.950 . S
H281 C304 0.950 . S
H282 C305 0.950 . S
H283 C307 0.950 . S
H284 C308 0.950 . S
H285 C309 0.951 . S
H286 C311 0.951 . S
H287 C313 0.950 . S
H288 C314 0.950 . S
H289 C316 0.950 . S
H290 C319 0.950 . S
H291 C320 0.950 . S
H292 C322 0.950 . S
H293 C323 0.950 . S
C294 H276 0.951 . S
C294 C295 1.366 . S
C294 C296 1.388 . S
C295 C294 1.366 . S
C295 C299 1.385 . S
C296 H277 0.951 . S
C296 C294 1.388 . S
C296 C297 1.366 . S
C297 C296 1.366 . S
C297 C298 1.414 . S
C297 C300 1.499 1_545 S
C298 H278 0.950 . S
C298 C297 1.414 . S
C298 C299 1.374 . S
C299 H279 0.950 . S
C299 C295 1.385 . S
C299 C298 1.374 . S
C300 C297 1.499 1_565 S
C300 C301 1.373 . S
C300 C302 1.389 . S
C301 H280 0.950 . S
C301 C300 1.373 . S
C301 C317 1.377 . S
C302 C300 1.389 . S
C302 C303 1.524 . S
C302 C316 1.377 . S
C303 C302 1.524 . S
C303 C304 1.397 1_565 S
C303 C308 1.363 . S
C304 H281 0.950 . S
C304 C303 1.397 1_545 S
C304 C305 1.334 . S
C305 H282 0.950 . S
C305 C304 1.334 . S
C305 C306 1.287 . S
C306 C305 1.287 . S
C306 C307 1.524 1_545 S
C306 H325 0.913 . S
C307 H283 0.950 . S
C307 C306 1.524 1_565 S
C307 C308 1.415 . S
C308 H284 0.950 . S
C308 C303 1.363 . S
C308 C307 1.415 . S
C309 H285 0.951 . S
C309 C310 1.366 . S
C309 C311 1.388 . S
C310 C309 1.366 . S
C310 C314 1.385 . S
C311 H286 0.951 . S
C311 C309 1.388 . S
C311 C312 1.366 . S
C312 C311 1.366 . S
C312 C313 1.414 . S
C312 C315 1.499 . S
C313 H287 0.950 . S
C313 C312 1.414 . S
C313 C314 1.374 . S
C314 H288 0.950 . S
C314 C310 1.385 . S
C314 C313 1.374 . S
C315 C312 1.499 . S
C315 C316 1.373 . S
C315 C317 1.389 . S
C316 H289 0.950 . S
C316 C302 1.377 . S
C316 C315 1.373 . S
C317 C301 1.377 . S
C317 C315 1.389 . S
C317 C318 1.524 . S
C318 C317 1.524 . S
C318 C319 1.397 . S
C318 C323 1.363 . S
C319 H290 0.950 . S
C319 C318 1.397 . S
C319 C320 1.334 . S
C320 H291 0.950 . S
C320 C319 1.334 . S
C320 C321 1.287 . S
C321 C320 1.287 . S
C321 C322 1.524 . S
C321 H324 0.999 . S
C322 H292 0.950 . S
C322 C321 1.524 . S
C322 C323 1.415 . S
C323 H293 0.950 . S
C323 C318 1.363 . S
C323 C322 1.415 . S
H324 C321 0.999 . S
H325 C306 0.913 . S
H326 C344 0.951 . S
H327 C346 0.951 . S
H328 C348 0.950 . S
H329 C349 0.950 . S
H330 C351 0.950 . S
H331 C354 0.950 . S
H332 C355 0.950 . S
H333 C357 0.950 . S
H334 C358 0.950 . S
H335 C359 0.951 . S
H336 C361 0.951 . S
H337 C363 0.950 . S
H338 C364 0.950 . S
H339 C366 0.950 . S
H340 C369 0.950 . S
H341 C370 0.950 . S
H342 C372 0.950 . S
H343 C373 0.950 . S
C344 H326 0.951 . S
C344 C345 1.366 . S
C344 C346 1.388 . S
C345 C344 1.366 . S
C345 C349 1.385 . S
C346 H327 0.951 . S
C346 C344 1.388 . S
C346 C347 1.366 . S
C347 C346 1.366 . S
C347 C348 1.414 . S
C347 C350 1.499 . S
C348 H328 0.950 . S
C348 C347 1.414 . S
C348 C349 1.374 . S
C349 H329 0.950 . S
C349 C345 1.385 . S
C349 C348 1.374 . S
C350 C347 1.499 . S
C350 C351 1.373 . S
C350 C352 1.389 . S
C351 H330 0.950 . S
C351 C350 1.373 . S
C351 C367 1.377 . S
C352 C350 1.389 . S
C352 C353 1.524 . S
C352 C366 1.377 . S
C353 C352 1.524 . S
C353 C354 1.397 . S
C353 C358 1.363 . S
C354 H331 0.950 . S
C354 C353 1.397 . S
C354 C355 1.334 . S
C355 H332 0.950 . S
C355 C354 1.334 . S
C355 C356 1.287 . S
C356 C355 1.287 . S
C356 C357 1.524 . S
C356 H375 0.913 . S
C357 H333 0.950 . S
C357 C356 1.524 . S
C357 C358 1.415 . S
C358 H334 0.950 . S
C358 C353 1.363 . S
C358 C357 1.415 . S
C359 H335 0.951 . S
C359 C360 1.366 . S
C359 C361 1.388 . S
C360 C359 1.366 . S
C360 C364 1.385 . S
C361 H336 0.951 . S
C361 C359 1.388 . S
C361 C362 1.366 . S
C362 C361 1.366 . S
C362 C363 1.414 . S
C362 C365 1.499 . S
C363 H337 0.950 . S
C363 C362 1.414 . S
C363 C364 1.374 . S
C364 H338 0.950 . S
C364 C360 1.385 . S
C364 C363 1.374 . S
C365 C362 1.499 . S
C365 C366 1.373 . S
C365 C367 1.389 . S
C366 H339 0.950 . S
C366 C352 1.377 . S
C366 C365 1.373 . S
C367 C351 1.377 . S
C367 C365 1.389 . S
C367 C368 1.524 . S
C368 C367 1.524 . S
C368 C369 1.397 . S
C368 C373 1.363 . S
C369 H340 0.950 . S
C369 C368 1.397 . S
C369 C370 1.334 . S
C370 H341 0.950 . S
C370 C369 1.334 . S
C370 C371 1.287 . S
C371 C370 1.287 . S
C371 C372 1.524 . S
C371 H374 0.999 . S
C372 H342 0.950 . S
C372 C371 1.524 . S
C372 C373 1.415 . S
C373 H343 0.950 . S
C373 C368 1.363 . S
C373 C372 1.415 . S
H374 C371 0.999 . S
H375 C356 0.913 . S
H376 C394 0.951 . S
H377 C396 0.951 . S
H378 C398 0.950 . S
H379 C399 0.950 . S
H380 C401 0.950 . S
H381 C404 0.950 . S
H382 C405 0.950 . S
H383 C407 0.950 . S
H384 C408 0.950 . S
H385 C409 0.951 . S
H386 C411 0.951 . S
H387 C413 0.950 . S
H388 C414 0.950 . S
H389 C416 0.950 . S
H390 C419 0.950 . S
H391 C420 0.950 . S
H392 C422 0.950 . S
H393 C423 0.950 . S
C394 H376 0.951 . S
C394 C395 1.366 . S
C394 C396 1.388 . S
C395 C394 1.366 . S
C395 C399 1.385 . S
C396 H377 0.951 . S
C396 C394 1.388 . S
C396 C397 1.366 . S
C397 C396 1.366 . S
C397 C398 1.414 . S
C397 C400 1.499 . S
C398 H378 0.950 . S
C398 C397 1.414 . S
C398 C399 1.374 . S
C399 H379 0.950 . S
C399 C395 1.385 . S
C399 C398 1.374 . S
C400 C397 1.499 . S
C400 C401 1.373 . S
C400 C402 1.389 . S
C401 H380 0.950 . S
C401 C400 1.373 . S
C401 C417 1.377 . S
C402 C400 1.389 . S
C402 C403 1.524 . S
C402 C416 1.377 . S
C403 C402 1.524 . S
C403 C404 1.397 . S
C403 C408 1.363 . S
C404 H381 0.950 . S
C404 C403 1.397 . S
C404 C405 1.334 . S
C405 H382 0.950 . S
C405 C404 1.334 . S
C405 C406 1.287 . S
C406 C405 1.287 . S
C406 C407 1.524 . S
C406 H425 0.913 . S
C407 H383 0.950 . S
C407 C406 1.524 . S
C407 C408 1.415 . S
C408 H384 0.950 . S
C408 C403 1.363 . S
C408 C407 1.415 . S
C409 H385 0.951 . S
C409 C410 1.366 . S
C409 C411 1.388 . S
C410 C409 1.366 . S
C410 C414 1.385 . S
C411 H386 0.951 . S
C411 C409 1.388 . S
C411 C412 1.366 . S
C412 C411 1.366 . S
C412 C413 1.414 . S
C412 C415 1.499 . S
C413 H387 0.950 . S
C413 C412 1.414 . S
C413 C414 1.374 . S
C414 H388 0.950 . S
C414 C410 1.385 . S
C414 C413 1.374 . S
C415 C412 1.499 . S
C415 C416 1.373 . S
C415 C417 1.389 . S
C416 H389 0.950 . S
C416 C402 1.377 . S
C416 C415 1.373 . S
C417 C401 1.377 . S
C417 C415 1.389 . S
C417 C418 1.524 . S
C418 C417 1.524 . S
C418 C419 1.397 . S
C418 C423 1.363 . S
C419 H390 0.950 . S
C419 C418 1.397 . S
C419 C420 1.334 . S
C420 H391 0.950 . S
C420 C419 1.334 . S
C420 C421 1.287 . S
C421 C420 1.287 . S
C421 C422 1.524 . S
C421 H424 0.999 . S
C422 H392 0.950 . S
C422 C421 1.524 . S
C422 C423 1.415 . S
C423 H393 0.950 . S
C423 C418 1.363 . S
C423 C422 1.415 . S
H424 C421 0.999 . S
H425 C406 0.913 . S
H426 C444 0.951 . S
H427 C446 0.951 . S
H428 C448 0.950 . S
H429 C449 0.950 1_554 S
H430 C451 0.950 . S
H431 C454 0.950 1_655 S
H432 C455 0.950 1_655 S
H433 C457 0.950 . S
H434 C458 0.950 1_556 S
H435 C459 0.951 . S
H436 C461 0.951 . S
H437 C463 0.950 . S
H438 C464 0.950 . S
H439 C466 0.950 . S
H440 C469 0.950 . S
H441 C470 0.950 . S
H442 C472 0.950 1_655 S
H443 C473 0.950 1_655 S
C444 H426 0.951 . S
C444 C445 1.366 . S
C444 C446 1.388 . S
C445 C444 1.366 . S
C445 C449 1.385 . S
C446 H427 0.951 . S
C446 C444 1.388 . S
C446 C447 1.366 . S
C447 C446 1.366 . S
C447 C448 1.414 . S
C447 C450 1.499 . S
C448 H428 0.950 . S
C448 C447 1.414 . S
C448 C449 1.374 . S
C449 H429 0.950 1_556 S
C449 C445 1.385 . S
C449 C448 1.374 . S
C450 C447 1.499 . S
C450 C451 1.373 . S
C450 C452 1.389 1_655 S
C451 H430 0.950 . S
C451 C450 1.373 . S
C451 C467 1.377 1_655 S
C452 C450 1.389 1_455 S
C452 C453 1.524 1_556 S
C452 C466 1.377 . S
C453 C452 1.524 1_554 S
C453 C454 1.397 . S
C453 C458 1.363 . S
C454 H431 0.950 1_455 S
C454 C453 1.397 . S
C454 C455 1.334 . S
C455 H432 0.950 1_455 S
C455 C454 1.334 . S
C455 C456 1.287 . S
C456 C455 1.287 . S
C456 C457 1.524 . S
C456 H475 0.913 . S
C457 H433 0.950 . S
C457 C456 1.524 . S
C457 C458 1.415 . S
C458 H434 0.950 1_554 S
C458 C453 1.363 . S
C458 C457 1.415 . S
C459 H435 0.951 . S
C459 C460 1.366 . S
C459 C461 1.388 . S
C460 C459 1.366 . S
C460 C464 1.385 . S
C461 H436 0.951 . S
C461 C459 1.388 . S
C461 C462 1.366 . S
C462 C461 1.366 . S
C462 C463 1.414 . S
C462 C465 1.499 . S
C463 H437 0.950 . S
C463 C462 1.414 . S
C463 C464 1.374 . S
C464 H438 0.950 . S
C464 C460 1.385 . S
C464 C463 1.374 . S
C465 C462 1.499 . S
C465 C466 1.373 . S
C465 C467 1.389 . S
C466 H439 0.950 . S
C466 C452 1.377 . S
C466 C465 1.373 . S
C467 C451 1.377 1_455 S
C467 C465 1.389 . S
C467 C468 1.524 . S
C468 C467 1.524 . S
C468 C469 1.397 . S
C468 C473 1.363 . S
C469 H440 0.950 . S
C469 C468 1.397 . S
C469 C470 1.334 . S
C470 H441 0.950 . S
C470 C469 1.334 . S
C470 C471 1.287 . S
C471 C470 1.287 . S
C471 C472 1.524 . S
C471 H474 0.999 . S
C472 H442 0.950 1_455 S
C472 C471 1.524 . S
C472 C473 1.415 . S
C473 H443 0.950 1_455 S
C473 C468 1.363 . S
C473 C472 1.415 . S
H474 C471 0.999 . S
H475 C456 0.913 . S
H476 C494 0.951 . S
H477 C496 0.951 . S
H478 C498 0.950 . S
H479 C499 0.950 . S
H480 C501 0.950 . S
H481 C504 0.950 . S
H482 C505 0.950 . S
H483 C507 0.950 . S
H484 C508 0.950 . S
H485 C509 0.951 . S
H486 C511 0.951 . S
H487 C513 0.950 . S
H488 C514 0.950 . S
H489 C516 0.950 . S
H490 C519 0.950 . S
H491 C520 0.950 . S
H492 C522 0.950 . S
H493 C523 0.950 . S
C494 H476 0.951 . S
C494 C495 1.366 . S
C494 C496 1.388 . S
C495 C494 1.366 . S
C495 C499 1.385 . S
C496 H477 0.951 . S
C496 C494 1.388 . S
C496 C497 1.366 . S
C497 C496 1.366 . S
C497 C498 1.414 . S
C497 C500 1.499 . S
C498 H478 0.950 . S
C498 C497 1.414 . S
C498 C499 1.374 . S
C499 H479 0.950 . S
C499 C495 1.385 . S
C499 C498 1.374 . S
C500 C497 1.499 . S
C500 C501 1.373 . S
C500 C502 1.389 . S
C501 H480 0.950 . S
C501 C500 1.373 . S
C501 C517 1.377 . S
C502 C500 1.389 . S
C502 C503 1.524 . S
C502 C516 1.377 . S
C503 C502 1.524 . S
C503 C504 1.397 . S
C503 C508 1.363 . S
C504 H481 0.950 . S
C504 C503 1.397 . S
C504 C505 1.334 . S
C505 H482 0.950 . S
C505 C504 1.334 . S
C505 C506 1.287 . S
C506 C505 1.287 . S
C506 C507 1.524 . S
C506 H525 0.913 . S
C507 H483 0.950 . S
C507 C506 1.524 . S
C507 C508 1.415 . S
C508 H484 0.950 . S
C508 C503 1.363 . S
C508 C507 1.415 . S
C509 H485 0.951 . S
C509 C510 1.366 . S
C509 C511 1.388 . S
C510 C509 1.366 . S
C510 C514 1.385 . S
C511 H486 0.951 . S
C511 C509 1.388 . S
C511 C512 1.366 . S
C512 C511 1.366 . S
C512 C513 1.414 . S
C512 C515 1.499 . S
C513 H487 0.950 . S
C513 C512 1.414 . S
C513 C514 1.374 . S
C514 H488 0.950 . S
C514 C510 1.385 . S
C514 C513 1.374 . S
C515 C512 1.499 . S
C515 C516 1.373 . S
C515 C517 1.389 . S
C516 H489 0.950 . S
C516 C502 1.377 . S
C516 C515 1.373 . S
C517 C501 1.377 . S
C517 C515 1.389 . S
C517 C518 1.524 . S
C518 C517 1.524 . S
C518 C519 1.397 . S
C518 C523 1.363 . S
C519 H490 0.950 . S
C519 C518 1.397 . S
C519 C520 1.334 . S
C520 H491 0.950 . S
C520 C519 1.334 . S
C520 C521 1.287 . S
C521 C520 1.287 . S
C521 C522 1.524 . S
C521 H524 0.999 . S
C522 H492 0.950 . S
C522 C521 1.524 . S
C522 C523 1.415 . S
C523 H493 0.950 . S
C523 C518 1.363 . S
C523 C522 1.415 . S
H524 C521 0.999 . S
H525 C506 0.913 . S
H526 C544 0.951 . S
H527 C546 0.951 . S
H528 C548 0.950 . S
H529 C549 0.950 . S
H530 C551 0.950 . S
H531 C554 0.950 . S
H532 C555 0.950 . S
H533 C557 0.950 . S
H534 C558 0.950 . S
H535 C559 0.951 . S
H536 C561 0.951 . S
H537 C563 0.950 . S
H538 C564 0.950 . S
H539 C566 0.950 . S
H540 C569 0.950 . S
H541 C570 0.950 . S
H542 C572 0.950 . S
H543 C573 0.950 . S
C544 H526 0.951 . S
C544 C545 1.366 . S
C544 C546 1.388 . S
C545 C544 1.366 . S
C545 C549 1.385 . S
C546 H527 0.951 . S
C546 C544 1.388 . S
C546 C547 1.366 . S
C547 C546 1.366 . S
C547 C548 1.414 . S
C547 C550 1.499 . S
C548 H528 0.950 . S
C548 C547 1.414 . S
C548 C549 1.374 . S
C549 H529 0.950 . S
C549 C545 1.385 . S
C549 C548 1.374 . S
C550 C547 1.499 . S
C550 C551 1.373 . S
C550 C552 1.389 . S
C551 H530 0.950 . S
C551 C550 1.373 . S
C551 C567 1.377 1_455 S
C552 C550 1.389 . S
C552 C553 1.524 . S
C552 C566 1.377 . S
C553 C552 1.524 . S
C553 C554 1.397 . S
C553 C558 1.363 . S
C554 H531 0.950 . S
C554 C553 1.397 . S
C554 C555 1.334 . S
C555 H532 0.950 . S
C555 C554 1.334 . S
C555 C556 1.287 . S
C556 C555 1.287 . S
C556 C557 1.524 . S
C556 H575 0.913 . S
C557 H533 0.950 . S
C557 C556 1.524 . S
C557 C558 1.415 . S
C558 H534 0.950 . S
C558 C553 1.363 . S
C558 C557 1.415 . S
C559 H535 0.951 . S
C559 C560 1.366 . S
C559 C561 1.388 . S
C560 C559 1.366 . S
C560 C564 1.385 . S
C561 H536 0.951 . S
C561 C559 1.388 . S
C561 C562 1.366 . S
C562 C561 1.366 . S
C562 C563 1.414 . S
C562 C565 1.499 . S
C563 H537 0.950 . S
C563 C562 1.414 . S
C563 C564 1.374 . S
C564 H538 0.950 . S
C564 C560 1.385 . S
C564 C563 1.374 . S
C565 C562 1.499 . S
C565 C566 1.373 1_655 S
C565 C567 1.389 . S
C566 H539 0.950 . S
C566 C552 1.377 . S
C566 C565 1.373 1_455 S
C567 C551 1.377 1_655 S
C567 C565 1.389 . S
C567 C568 1.524 . S
C568 C567 1.524 . S
C568 C569 1.397 . S
C568 C573 1.363 . S
C569 H540 0.950 . S
C569 C568 1.397 . S
C569 C570 1.334 . S
C570 H541 0.950 . S
C570 C569 1.334 . S
C570 C571 1.287 . S
C571 C570 1.287 . S
C571 C572 1.524 . S
C571 H574 0.999 . S
C572 H542 0.950 . S
C572 C571 1.524 . S
C572 C573 1.415 . S
C573 H543 0.950 . S
C573 C568 1.363 . S
C573 C572 1.415 . S
H574 C571 0.999 . S
H575 C556 0.913 . S
H576 C594 0.951 . S
H577 C596 0.951 . S
H578 C598 0.950 . S
H579 C599 0.950 . S
H580 C601 0.950 . S
H581 C604 0.950 . S
H582 C605 0.950 . S
H583 C607 0.950 . S
H584 C608 0.950 . S
H585 C609 0.951 . S
H586 C611 0.951 1_545 S
H587 C613 0.950 . S
H588 C614 0.950 . S
H589 C616 0.950 . S
H590 C619 0.950 . S
H591 C620 0.950 . S
H592 C622 0.950 1_545 S
H593 C623 0.950 . S
C594 H576 0.951 . S
C594 C595 1.366 . S
C594 C596 1.388 . S
C595 C594 1.366 . S
C595 C599 1.385 . S
C596 H577 0.951 . S
C596 C594 1.388 . S
C596 C597 1.366 . S
C597 C596 1.366 . S
C597 C598 1.414 . S
C597 C600 1.499 . S
C598 H578 0.950 . S
C598 C597 1.414 . S
C598 C599 1.374 . S
C599 H579 0.950 . S
C599 C595 1.385 . S
C599 C598 1.374 . S
C600 C597 1.499 . S
C600 C601 1.373 . S
C600 C602 1.389 . S
C601 H580 0.950 . S
C601 C600 1.373 . S
C601 C617 1.377 . S
C602 C600 1.389 . S
C602 C603 1.524 . S
C602 C616 1.377 . S
C603 C602 1.524 . S
C603 C604 1.397 . S
C603 C608 1.363 . S
C604 H581 0.950 . S
C604 C603 1.397 . S
C604 C605 1.334 . S
C605 H582 0.950 . S
C605 C604 1.334 . S
C605 C606 1.287 . S
C606 C605 1.287 . S
C606 C607 1.524 . S
C606 H625 0.913 . S
C607 H583 0.950 . S
C607 C606 1.524 . S
C607 C608 1.415 . S
C608 H584 0.950 . S
C608 C603 1.363 . S
C608 C607 1.415 . S
C609 H585 0.951 . S
C609 C610 1.366 . S
C609 C611 1.388 . S
C610 C609 1.366 . S
C610 C614 1.385 . S
C611 H586 0.951 1_565 S
C611 C609 1.388 . S
C611 C612 1.366 . S
C612 C611 1.366 . S
C612 C613 1.414 . S
C612 C615 1.499 1_565 S
C613 H587 0.950 . S
C613 C612 1.414 . S
C613 C614 1.374 . S
C614 H588 0.950 . S
C614 C610 1.385 . S
C614 C613 1.374 . S
C615 C612 1.499 1_545 S
C615 C616 1.373 . S
C615 C617 1.389 . S
C616 H589 0.950 . S
C616 C602 1.377 . S
C616 C615 1.373 . S
C617 C601 1.377 . S
C617 C615 1.389 . S
C617 C618 1.524 . S
C618 C617 1.524 . S
C618 C619 1.397 1_545 S
C618 C623 1.363 . S
C619 H590 0.950 . S
C619 C618 1.397 1_565 S
C619 C620 1.334 . S
C620 H591 0.950 . S
C620 C619 1.334 . S
C620 C621 1.287 . S
C621 C620 1.287 . S
C621 C622 1.524 . S
C621 H624 0.999 . S
C622 H592 0.950 1_565 S
C622 C621 1.524 . S
C622 C623 1.415 1_565 S
C623 H593 0.950 . S
C623 C618 1.363 . S
C623 C622 1.415 1_545 S
H624 C621 0.999 . S
H625 C606 0.913 . S
H626 C644 0.951 . S
H627 C646 0.951 . S
H628 C648 0.950 . S
H629 C649 0.950 . S
H630 C651 0.950 . S
H631 C654 0.950 . S
H632 C655 0.950 . S
H633 C657 0.950 . S
H634 C658 0.950 . S
H635 C659 0.951 . S
H636 C661 0.951 . S
H637 C663 0.950 . S
H638 C664 0.950 . S
H639 C666 0.950 . S
H640 C669 0.950 . S
H641 C670 0.950 . S
H642 C672 0.950 . S
H643 C673 0.950 . S
C644 H626 0.951 . S
C644 C645 1.366 . S
C644 C646 1.388 . S
C645 C644 1.366 . S
C645 C649 1.385 . S
C646 H627 0.951 . S
C646 C644 1.388 . S
C646 C647 1.366 . S
C647 C646 1.366 . S
C647 C648 1.414 . S
C647 C650 1.499 . S
C648 H628 0.950 . S
C648 C647 1.414 . S
C648 C649 1.374 . S
C649 H629 0.950 . S
C649 C645 1.385 . S
C649 C648 1.374 . S
C650 C647 1.499 . S
C650 C651 1.373 . S
C650 C652 1.389 . S
C651 H630 0.950 . S
C651 C650 1.373 . S
C651 C667 1.377 . S
C652 C650 1.389 . S
C652 C653 1.524 . S
C652 C666 1.377 . S
C653 C652 1.524 . S
C653 C654 1.397 . S
C653 C658 1.363 . S
C654 H631 0.950 . S
C654 C653 1.397 . S
C654 C655 1.334 . S
C655 H632 0.950 . S
C655 C654 1.334 . S
C655 C656 1.287 . S
C656 C655 1.287 . S
C656 C657 1.524 . S
C656 H675 0.913 . S
C657 H633 0.950 . S
C657 C656 1.524 . S
C657 C658 1.415 . S
C658 H634 0.950 . S
C658 C653 1.363 . S
C658 C657 1.415 . S
C659 H635 0.951 . S
C659 C660 1.366 . S
C659 C661 1.388 . S
C660 C659 1.366 . S
C660 C664 1.385 . S
C661 H636 0.951 . S
C661 C659 1.388 . S
C661 C662 1.366 . S
C662 C661 1.366 . S
C662 C663 1.414 . S
C662 C665 1.499 . S
C663 H637 0.950 . S
C663 C662 1.414 . S
C663 C664 1.374 . S
C664 H638 0.950 . S
C664 C660 1.385 . S
C664 C663 1.374 . S
C665 C662 1.499 . S
C665 C666 1.373 . S
C665 C667 1.389 . S
C666 H639 0.950 . S
C666 C652 1.377 . S
C666 C665 1.373 . S
C667 C651 1.377 . S
C667 C665 1.389 . S
C667 C668 1.524 . S
C668 C667 1.524 . S
C668 C669 1.397 . S
C668 C673 1.363 . S
C669 H640 0.950 . S
C669 C668 1.397 . S
C669 C670 1.334 . S
C670 H641 0.950 . S
C670 C669 1.334 . S
C670 C671 1.287 . S
C671 C670 1.287 . S
C671 C672 1.524 . S
C671 H674 0.999 . S
C672 H642 0.950 . S
C672 C671 1.524 . S
C672 C673 1.415 . S
C673 H643 0.950 . S
C673 C668 1.363 . S
C673 C672 1.415 . S
H674 C671 0.999 . S
H675 C656 0.913 . S
H676 C694 0.951 . S
H677 C696 0.946 1_545 S
H678 C698 0.950 1_545 S
H679 C699 0.950 . S
H680 C701 0.950 . S
H681 C704 0.950 . S
H682 C705 0.950 . S
H683 C707 0.950 . S
H684 C708 0.950 1_556 S
H685 C709 0.951 . S
H686 C711 0.951 . S
H687 C713 0.950 . S
H688 C714 0.950 . S
H689 C716 0.950 . S
H690 C719 0.950 . S
H691 C720 0.950 . S
H692 C722 0.950 . S
H693 C723 0.950 . S
C694 H676 0.951 . S
C694 C695 1.366 . S
C694 C696 1.388 . S
C695 C694 1.366 . S
C695 C699 1.385 . S
C696 H677 0.946 1_565 S
C696 C694 1.388 . S
C696 C697 1.366 1_565 S
C697 C696 1.366 1_545 S
C697 C698 1.414 1_545 S
C697 C700 1.499 . S
C698 H678 0.950 1_565 S
C698 C697 1.414 1_565 S
C698 C699 1.374 . S
C699 H679 0.950 . S
C699 C695 1.385 . S
C699 C698 1.374 . S
C700 C697 1.499 . S
C700 C701 1.373 . S
C700 C702 1.389 . S
C701 H680 0.950 . S
C701 C700 1.373 . S
C701 C717 1.377 . S
C702 C700 1.389 . S
C702 C703 1.524 1_556 S
C702 C716 1.377 . S
C703 C702 1.524 1_554 S
C703 C704 1.397 . S
C703 C708 1.363 . S
C704 H681 0.950 . S
C704 C703 1.397 . S
C704 C705 1.334 . S
C705 H682 0.950 . S
C705 C704 1.334 . S
C705 C706 1.287 . S
C706 C705 1.287 . S
C706 C707 1.524 . S
C706 H725 0.913 . S
C707 H683 0.950 . S
C707 C706 1.524 . S
C707 C708 1.415 . S
C708 H684 0.950 1_554 S
C708 C703 1.363 . S
C708 C707 1.415 . S
C709 H685 0.951 . S
C709 C710 1.366 . S
C709 C711 1.388 . S
C710 C709 1.366 . S
C710 C714 1.385 . S
C711 H686 0.951 . S
C711 C709 1.388 . S
C711 C712 1.366 . S
C712 C711 1.366 . S
C712 C713 1.414 . S
C712 C715 1.499 . S
C713 H687 0.950 . S
C713 C712 1.414 . S
C713 C714 1.374 . S
C714 H688 0.950 . S
C714 C710 1.385 . S
C714 C713 1.374 . S
C715 C712 1.499 . S
C715 C716 1.373 . S
C715 C717 1.389 . S
C716 H689 0.950 . S
C716 C702 1.377 . S
C716 C715 1.373 . S
C717 C701 1.377 . S
C717 C715 1.389 . S
C717 C718 1.524 . S
C718 C717 1.524 . S
C718 C719 1.397 . S
C718 C723 1.363 . S
C719 H690 0.950 . S
C719 C718 1.397 . S
C719 C720 1.334 . S
C720 H691 0.950 . S
C720 C719 1.334 . S
C720 C721 1.287 . S
C721 C720 1.287 . S
C721 C722 1.524 . S
C721 H724 0.999 . S
C722 H692 0.950 . S
C722 C721 1.524 . S
C722 C723 1.415 . S
C723 H693 0.950 . S
C723 C718 1.363 . S
C723 C722 1.415 . S
H724 C721 0.999 . S
H725 C706 0.913 . S
H726 C744 0.951 . S
H727 C746 0.951 . S
H728 C748 0.950 . S
H729 C749 0.950 . S
H730 C751 0.950 . S
H731 C754 0.950 . S
H732 C755 0.950 . S
H733 C757 0.950 . S
H734 C758 0.950 . S
H735 C759 0.951 . S
H736 C761 0.951 . S
H737 C763 0.950 . S
H738 C764 0.950 . S
H739 C766 0.950 . S
H740 C769 0.950 . S
H741 C770 0.950 . S
H742 C772 0.950 . S
H743 C773 0.950 . S
C744 H726 0.951 . S
C744 C745 1.366 . S
C744 C746 1.388 . S
C745 C744 1.366 . S
C745 C749 1.385 . S
C746 H727 0.951 . S
C746 C744 1.388 . S
C746 C747 1.366 . S
C747 C746 1.366 . S
C747 C748 1.414 . S
C747 C750 1.499 . S
C748 H728 0.950 . S
C748 C747 1.414 . S
C748 C749 1.374 . S
C749 H729 0.950 . S
C749 C745 1.385 . S
C749 C748 1.374 . S
C750 C747 1.499 . S
C750 C751 1.373 . S
C750 C752 1.389 . S
C751 H730 0.950 . S
C751 C750 1.373 . S
C751 C767 1.377 . S
C752 C750 1.389 . S
C752 C753 1.524 . S
C752 C766 1.377 . S
C753 C752 1.524 . S
C753 C754 1.397 . S
C753 C758 1.363 . S
C754 H731 0.950 . S
C754 C753 1.397 . S
C754 C755 1.334 . S
C755 H732 0.950 . S
C755 C754 1.334 . S
C755 C756 1.287 . S
C756 C755 1.287 . S
C756 C757 1.524 . S
C756 H775 0.913 . S
C757 H733 0.950 . S
C757 C756 1.524 . S
C757 C758 1.415 . S
C758 H734 0.950 . S
C758 C753 1.363 . S
C758 C757 1.415 . S
C759 H735 0.951 . S
C759 C760 1.366 . S
C759 C761 1.388 . S
C760 C759 1.366 . S
C760 C764 1.385 . S
C761 H736 0.951 . S
C761 C759 1.388 . S
C761 C762 1.366 . S
C762 C761 1.366 . S
C762 C763 1.414 . S
C762 C765 1.499 . S
C763 H737 0.950 . S
C763 C762 1.414 . S
C763 C764 1.374 . S
C764 H738 0.950 . S
C764 C760 1.385 . S
C764 C763 1.374 . S
C765 C762 1.499 . S
C765 C766 1.373 . S
C765 C767 1.389 . S
C766 H739 0.950 . S
C766 C752 1.377 . S
C766 C765 1.373 . S
C767 C751 1.377 . S
C767 C765 1.389 . S
C767 C768 1.524 . S
C768 C767 1.524 . S
C768 C769 1.397 . S
C768 C773 1.363 . S
C769 H740 0.950 . S
C769 C768 1.397 . S
C769 C770 1.334 . S
C770 H741 0.950 . S
C770 C769 1.334 . S
C770 C771 1.287 . S
C771 C770 1.287 . S
C771 C772 1.524 . S
C771 H774 0.999 . S
C772 H742 0.950 . S
C772 C771 1.524 . S
C772 C773 1.415 . S
C773 H743 0.950 . S
C773 C768 1.363 . S
C773 C772 1.415 . S
H774 C771 0.999 . S
H775 C756 0.913 . S
H776 C794 0.951 . S
H777 C796 0.951 . S
H778 C798 0.950 . S
H779 C799 0.950 . S
H780 C801 0.950 . S
H781 C804 0.950 . S
H782 C805 0.950 . S
H783 C807 0.950 . S
H784 C808 0.950 . S
H785 C809 0.951 . S
H786 C811 0.951 . S
H787 C813 0.950 . S
H788 C814 0.950 . S
H789 C816 0.950 . S
H790 C819 0.950 . S
H791 C820 0.950 . S
H792 C822 0.950 . S
H793 C823 0.950 . S
C794 H776 0.951 . S
C794 C795 1.366 . S
C794 C796 1.388 . S
C795 C794 1.366 . S
C795 C799 1.385 . S
C796 H777 0.951 . S
C796 C794 1.388 . S
C796 C797 1.366 . S
C797 C796 1.366 . S
C797 C798 1.414 . S
C797 C800 1.499 . S
C798 H778 0.950 . S
C798 C797 1.414 . S
C798 C799 1.374 . S
C799 H779 0.950 . S
C799 C795 1.385 . S
C799 C798 1.374 . S
C800 C797 1.499 . S
C800 C801 1.373 . S
C800 C802 1.389 . S
C801 H780 0.950 . S
C801 C800 1.373 . S
C801 C817 1.377 . S
C802 C800 1.389 . S
C802 C803 1.524 . S
C802 C816 1.377 . S
C803 C802 1.524 . S
C803 C804 1.397 . S
C803 C808 1.363 . S
C804 H781 0.950 . S
C804 C803 1.397 . S
C804 C805 1.334 . S
C805 H782 0.950 . S
C805 C804 1.334 . S
C805 C806 1.287 . S
C806 C805 1.287 . S
C806 C807 1.524 . S
C806 H825 0.913 . S
C807 H783 0.950 . S
C807 C806 1.524 . S
C807 C808 1.415 . S
C808 H784 0.950 . S
C808 C803 1.363 . S
C808 C807 1.415 . S
C809 H785 0.951 . S
C809 C810 1.366 . S
C809 C811 1.388 . S
C810 C809 1.366 . S
C810 C814 1.385 . S
C811 H786 0.951 . S
C811 C809 1.388 . S
C811 C812 1.366 . S
C812 C811 1.366 . S
C812 C813 1.414 . S
C812 C815 1.499 . S
C813 H787 0.950 . S
C813 C812 1.414 . S
C813 C814 1.374 . S
C814 H788 0.950 . S
C814 C810 1.385 . S
C814 C813 1.374 . S
C815 C812 1.499 . S
C815 C816 1.373 . S
C815 C817 1.389 . S
C816 H789 0.950 . S
C816 C802 1.377 . S
C816 C815 1.373 . S
C817 C801 1.377 . S
C817 C815 1.389 . S
C817 C818 1.524 . S
C818 C817 1.524 . S
C818 C819 1.397 . S
C818 C823 1.363 . S
C819 H790 0.950 . S
C819 C818 1.397 . S
C819 C820 1.334 . S
C820 H791 0.950 . S
C820 C819 1.334 . S
C820 C821 1.287 . S
C821 C820 1.287 . S
C821 C822 1.524 . S
C821 H824 0.999 . S
C822 H792 0.950 . S
C822 C821 1.524 . S
C822 C823 1.415 . S
C823 H793 0.950 . S
C823 C818 1.363 . S
C823 C822 1.415 . S
H824 C821 0.999 . S
H825 C806 0.913 . S
H826 C844 0.951 . S
H827 C846 0.951 . S
H828 C848 0.950 . S
H829 C849 0.950 . S
H830 C851 0.950 . S
H831 C854 0.950 1_554 S
H832 C855 0.950 . S
H833 C857 0.950 . S
H834 C858 0.950 . S
H835 C859 0.951 . S
H836 C861 0.951 . S
H837 C863 0.950 . S
H838 C864 0.950 . S
H839 C866 0.950 . S
H840 C869 0.950 . S
H841 C870 0.950 . S
H842 C872 0.950 . S
H843 C873 0.950 . S
C844 H826 0.951 . S
C844 C845 1.366 . S
C844 C846 1.388 . S
C845 C844 1.366 . S
C845 C849 1.385 . S
C846 H827 0.951 . S
C846 C844 1.388 . S
C846 C847 1.366 . S
C847 C846 1.366 . S
C847 C848 1.414 . S
C847 C850 1.499 1_455 S
C848 H828 0.950 . S
C848 C847 1.414 . S
C848 C849 1.374 . S
C849 H829 0.950 . S
C849 C845 1.385 . S
C849 C848 1.374 . S
C850 C847 1.499 1_655 S
C850 C851 1.373 . S
C850 C852 1.389 . S
C851 H830 0.950 . S
C851 C850 1.373 . S
C851 C867 1.377 . S
C852 C850 1.389 . S
C852 C853 1.524 . S
C852 C866 1.377 . S
C853 C852 1.524 . S
C853 C854 1.397 1_554 S
C853 C858 1.363 . S
C854 H831 0.950 1_556 S
C854 C853 1.397 1_556 S
C854 C855 1.334 . S
C855 H832 0.950 . S
C855 C854 1.334 . S
C855 C856 1.287 . S
C856 C855 1.287 . S
C856 C857 1.524 . S
C856 H875 0.913 . S
C857 H833 0.950 . S
C857 C856 1.524 . S
C857 C858 1.415 1_556 S
C858 H834 0.950 . S
C858 C853 1.363 . S
C858 C857 1.415 1_554 S
C859 H835 0.951 . S
C859 C860 1.366 . S
C859 C861 1.388 . S
C860 C859 1.366 . S
C860 C864 1.385 . S
C861 H836 0.951 . S
C861 C859 1.388 . S
C861 C862 1.366 . S
C862 C861 1.366 . S
C862 C863 1.414 . S
C862 C865 1.499 . S
C863 H837 0.950 . S
C863 C862 1.414 . S
C863 C864 1.374 . S
C864 H838 0.950 . S
C864 C860 1.385 . S
C864 C863 1.374 . S
C865 C862 1.499 . S
C865 C866 1.373 . S
C865 C867 1.389 . S
C866 H839 0.950 . S
C866 C852 1.377 . S
C866 C865 1.373 . S
C867 C851 1.377 . S
C867 C865 1.389 . S
C867 C868 1.524 . S
C868 C867 1.524 . S
C868 C869 1.397 . S
C868 C873 1.363 . S
C869 H840 0.950 . S
C869 C868 1.397 . S
C869 C870 1.334 . S
C870 H841 0.950 . S
C870 C869 1.334 . S
C870 C871 1.287 . S
C871 C870 1.287 . S
C871 C872 1.524 . S
C871 H874 0.999 . S
C872 H842 0.950 . S
C872 C871 1.524 . S
C872 C873 1.415 . S
C873 H843 0.950 . S
C873 C868 1.363 . S
C873 C872 1.415 . S
H874 C871 0.999 . S
H875 C856 0.913 . S
H876 C894 0.951 . S
H877 C896 0.951 . S
H878 C898 0.950 . S
H879 C899 0.950 . S
H880 C901 0.950 . S
H881 C904 0.950 . S
H882 C905 0.950 . S
H883 C907 0.950 . S
H884 C908 0.950 . S
H885 C909 0.951 . S
H886 C911 0.951 . S
H887 C913 0.950 . S
H888 C914 0.950 . S
H889 C916 0.950 . S
H890 C919 0.950 . S
H891 C920 0.950 . S
H892 C922 0.950 . S
H893 C923 0.950 . S
C894 H876 0.951 . S
C894 C895 1.366 . S
C894 C896 1.388 . S
C895 C894 1.366 . S
C895 C899 1.385 . S
C896 H877 0.951 . S
C896 C894 1.388 . S
C896 C897 1.366 . S
C897 C896 1.366 . S
C897 C898 1.414 . S
C897 C900 1.499 . S
C898 H878 0.950 . S
C898 C897 1.414 . S
C898 C899 1.374 . S
C899 H879 0.950 . S
C899 C895 1.385 . S
C899 C898 1.374 . S
C900 C897 1.499 . S
C900 C901 1.373 . S
C900 C902 1.389 . S
C901 H880 0.950 . S
C901 C900 1.373 . S
C901 C917 1.377 . S
C902 C900 1.389 . S
C902 C903 1.524 . S
C902 C916 1.377 . S
C903 C902 1.524 . S
C903 C904 1.397 . S
C903 C908 1.363 . S
C904 H881 0.950 . S
C904 C903 1.397 . S
C904 C905 1.334 . S
C905 H882 0.950 . S
C905 C904 1.334 . S
C905 C906 1.287 . S
C906 C905 1.287 . S
C906 C907 1.524 . S
C906 H925 0.913 . S
C907 H883 0.950 . S
C907 C906 1.524 . S
C907 C908 1.415 . S
C908 H884 0.950 . S
C908 C903 1.363 . S
C908 C907 1.415 . S
C909 H885 0.951 . S
C909 C910 1.366 . S
C909 C911 1.388 . S
C910 C909 1.366 . S
C910 C914 1.385 . S
C911 H886 0.951 . S
C911 C909 1.388 . S
C911 C912 1.366 . S
C912 C911 1.366 . S
C912 C913 1.414 . S
C912 C915 1.499 . S
C913 H887 0.950 . S
C913 C912 1.414 . S
C913 C914 1.374 . S
C914 H888 0.950 . S
C914 C910 1.385 . S
C914 C913 1.374 . S
C915 C912 1.499 . S
C915 C916 1.373 . S
C915 C917 1.389 . S
C916 H889 0.950 . S
C916 C902 1.377 . S
C916 C915 1.373 . S
C917 C901 1.377 . S
C917 C915 1.389 . S
C917 C918 1.524 . S
C918 C917 1.524 . S
C918 C919 1.397 . S
C918 C923 1.363 . S
C919 H890 0.950 . S
C919 C918 1.397 . S
C919 C920 1.334 . S
C920 H891 0.950 . S
C920 C919 1.334 . S
C920 C921 1.287 . S
C921 C920 1.287 . S
C921 C922 1.524 . S
C921 H924 0.999 . S
C922 H892 0.950 . S
C922 C921 1.524 . S
C922 C923 1.415 . S
C923 H893 0.950 . S
C923 C918 1.363 . S
C923 C922 1.415 . S
H924 C921 0.999 . S
H925 C906 0.913 . S
H926 C944 0.951 . S
H927 C946 0.951 . S
H928 C948 0.950 . S
H929 C949 0.950 . S
H930 C951 0.950 . S
H931 C954 0.950 . S
H932 C955 0.950 . S
H933 C957 0.950 . S
H934 C958 0.950 . S
H935 C959 0.951 . S
H936 C961 0.951 1_655 S
H937 C963 0.950 . S
H938 C964 0.950 . S
H939 C966 0.950 . S
H940 C969 0.950 1_455 S
H941 C970 0.950 . S
H942 C972 0.950 . S
H943 C973 0.950 . S
C944 H926 0.951 . S
C944 C945 1.366 . S
C944 C946 1.388 . S
C945 C944 1.366 . S
C945 C949 1.385 . S
C946 H927 0.951 . S
C946 C944 1.388 . S
C946 C947 1.366 . S
C947 C946 1.366 . S
C947 C948 1.414 . S
C947 C950 1.499 . S
C948 H928 0.950 . S
C948 C947 1.414 . S
C948 C949 1.374 . S
C949 H929 0.950 . S
C949 C945 1.385 . S
C949 C948 1.374 . S
C950 C947 1.499 . S
C950 C951 1.373 . S
C950 C952 1.389 . S
C951 H930 0.950 . S
C951 C950 1.373 . S
C951 C967 1.377 . S
C952 C950 1.389 . S
C952 C953 1.524 . S
C952 C966 1.377 1_655 S
C953 C952 1.524 . S
C953 C954 1.397 . S
C953 C958 1.363 1_655 S
C954 H931 0.950 . S
C954 C953 1.397 . S
C954 C955 1.334 . S
C955 H932 0.950 . S
C955 C954 1.334 . S
C955 C956 1.287 1_655 S
C956 C955 1.287 1_455 S
C956 C957 1.524 . S
C956 H975 0.913 . S
C957 H933 0.950 . S
C957 C956 1.524 . S
C957 C958 1.415 . S
C958 H934 0.950 . S
C958 C953 1.363 1_455 S
C958 C957 1.415 . S
C959 H935 0.951 . S
C959 C960 1.366 . S
C959 C961 1.388 . S
C960 C959 1.366 . S
C960 C964 1.385 . S
C961 H936 0.951 1_455 S
C961 C959 1.388 . S
C961 C962 1.366 . S
C962 C961 1.366 . S
C962 C963 1.414 . S
C962 C965 1.528 . S
C963 H937 0.950 . S
C963 C962 1.414 . S
C963 C964 1.374 . S
C964 H938 0.950 . S
C964 C960 1.385 . S
C964 C963 1.374 . S
C965 C962 1.528 . S
C965 C966 1.387 . S
C965 C967 1.346 1_455 S
C966 H939 0.950 . S
C966 C952 1.377 1_455 S
C966 C965 1.387 . S
C967 C951 1.377 . S
C967 C965 1.346 1_655 S
C967 C968 1.524 . S
C968 C967 1.524 . S
C968 C969 1.397 . S
C968 C973 1.363 . S
C969 H940 0.950 1_655 S
C969 C968 1.397 . S
C969 C970 1.334 . S
C970 H941 0.950 . S
C970 C969 1.334 . S
C970 C971 1.287 . S
C971 C970 1.287 . S
C971 C972 1.524 . S
C971 H974 0.999 . S
C972 H942 0.950 . S
C972 C971 1.524 . S
C972 C973 1.415 . S
C973 H943 0.950 . S
C973 C968 1.363 . S
C973 C972 1.415 . S
H974 C971 0.999 . S
H975 C956 0.913 . S
H976 C994 0.951 . S
H977 C996 0.951 . S
H978 C998 0.950 . S
H979 C999 0.950 . S
H980 C1001 0.950 . S
H981 C1004 0.950 . S
H982 C1005 0.950 . S
H983 C1007 0.950 . S
H984 C1008 0.950 . S
H985 C1009 0.951 . S
H986 C1011 0.951 . S
H987 C1013 0.950 . S
H988 C1014 0.950 . S
H989 C1016 0.950 . S
H990 C1019 0.950 . S
H991 C1020 0.950 . S
H992 C1022 0.950 . S
H993 C1023 0.950 . S
C994 H976 0.951 . S
C994 C995 1.366 . S
C994 C996 1.388 . S
C995 C994 1.366 . S
C995 C999 1.385 . S
C996 H977 0.951 . S
C996 C994 1.388 . S
C996 C997 1.366 . S
C997 C996 1.366 . S
C997 C998 1.414 . S
C997 C1000 1.499 . S
C998 H978 0.950 . S
C998 C997 1.414 . S
C998 C999 1.374 . S
C999 H979 0.950 . S
C999 C995 1.385 . S
C999 C998 1.374 . S
C1000 C997 1.499 . S
C1000 C1001 1.373 . S
C1000 C1002 1.389 . S
C1001 H980 0.950 . S
C1001 C1000 1.373 . S
C1001 C1017 1.377 . S
C1002 C1000 1.389 . S
C1002 C1003 1.524 . S
C1002 C1016 1.377 . S
C1003 C1002 1.524 . S
C1003 C1004 1.397 . S
C1003 C1008 1.363 . S
C1004 H981 0.950 . S
C1004 C1003 1.397 . S
C1004 C1005 1.334 . S
C1005 H982 0.950 . S
C1005 C1004 1.334 . S
C1005 C1006 1.287 . S
C1006 C1005 1.287 . S
C1006 C1007 1.524 . S
C1006 H1025 0.913 . S
C1007 H983 0.950 . S
C1007 C1006 1.524 . S
C1007 C1008 1.415 . S
C1008 H984 0.950 . S
C1008 C1003 1.363 . S
C1008 C1007 1.415 . S
C1009 H985 0.951 . S
C1009 C1010 1.366 . S
C1009 C1011 1.388 . S
C1010 C1009 1.366 . S
C1010 C1014 1.385 . S
C1011 H986 0.951 . S
C1011 C1009 1.388 . S
C1011 C1012 1.366 . S
C1012 C1011 1.366 . S
C1012 C1013 1.414 . S
C1012 C1015 1.499 . S
C1013 H987 0.950 . S
C1013 C1012 1.414 . S
C1013 C1014 1.374 . S
C1014 H988 0.950 . S
C1014 C1010 1.385 . S
C1014 C1013 1.374 . S
C1015 C1012 1.499 . S
C1015 C1016 1.373 . S
C1015 C1017 1.389 . S
C1016 H989 0.950 . S
C1016 C1002 1.377 . S
C1016 C1015 1.373 . S
C1017 C1001 1.377 . S
C1017 C1015 1.389 . S
C1017 C1018 1.524 . S
C1018 C1017 1.524 . S
C1018 C1019 1.397 . S
C1018 C1023 1.363 . S
C1019 H990 0.950 . S
C1019 C1018 1.397 . S
C1019 C1020 1.334 . S
C1020 H991 0.950 . S
C1020 C1019 1.334 . S
C1020 C1021 1.287 . S
C1021 C1020 1.287 . S
C1021 C1022 1.524 . S
C1021 H1024 0.999 . S
C1022 H992 0.950 . S
C1022 C1021 1.524 . S
C1022 C1023 1.415 . S
C1023 H993 0.950 . S
C1023 C1018 1.363 . S
C1023 C1022 1.415 . S
H1024 C1021 0.999 . S
H1025 C1006 0.913 . S
H1026 C1044 0.951 . S
H1027 C1046 0.951 . S
H1028 C1048 0.950 . S
H1029 C1049 0.950 . S
H1030 C1051 0.950 . S
H1031 C1054 0.950 . S
H1032 C1055 0.950 . S
H1033 C1057 0.950 . S
H1034 C1058 0.950 . S
H1035 C1059 0.951 . S
H1036 C1061 0.951 . S
H1037 C1063 0.950 . S
H1038 C1064 0.950 . S
H1039 C1066 0.950 . S
H1040 C1069 0.950 . S
H1041 C1070 0.950 . S
H1042 C1072 0.950 . S
H1043 C1073 0.950 . S
C1044 H1026 0.951 . S
C1044 C1045 1.366 . S
C1044 C1046 1.388 . S
C1045 C1044 1.366 . S
C1045 C1049 1.385 . S
C1046 H1027 0.951 . S
C1046 C1044 1.388 . S
C1046 C1047 1.366 . S
C1047 C1046 1.366 . S
C1047 C1048 1.414 . S
C1047 C1050 1.499 . S
C1048 H1028 0.950 . S
C1048 C1047 1.414 . S
C1048 C1049 1.374 . S
C1049 H1029 0.950 . S
C1049 C1045 1.385 . S
C1049 C1048 1.374 . S
C1050 C1047 1.499 . S
C1050 C1051 1.373 . S
C1050 C1052 1.389 . S
C1051 H1030 0.950 . S
C1051 C1050 1.373 . S
C1051 C1067 1.377 . S
C1052 C1050 1.389 . S
C1052 C1053 1.524 . S
C1052 C1066 1.377 . S
C1053 C1052 1.524 . S
C1053 C1054 1.397 . S
C1053 C1058 1.363 . S
C1054 H1031 0.950 . S
C1054 C1053 1.397 . S
C1054 C1055 1.334 . S
C1055 H1032 0.950 . S
C1055 C1054 1.334 . S
C1055 C1056 1.287 . S
C1056 C1055 1.287 . S
C1056 C1057 1.524 . S
C1056 H1075 0.913 . S
C1057 H1033 0.950 . S
C1057 C1056 1.524 . S
C1057 C1058 1.415 . S
C1058 H1034 0.950 . S
C1058 C1053 1.363 . S
C1058 C1057 1.415 . S
C1059 H1035 0.951 . S
C1059 C1060 1.366 . S
C1059 C1061 1.388 . S
C1060 C1059 1.366 . S
C1060 C1064 1.385 . S
C1061 H1036 0.951 . S
C1061 C1059 1.388 . S
C1061 C1062 1.366 . S
C1062 C1061 1.366 . S
C1062 C1063 1.414 . S
C1062 C1065 1.499 . S
C1063 H1037 0.950 . S
C1063 C1062 1.414 . S
C1063 C1064 1.374 . S
C1064 H1038 0.950 . S
C1064 C1060 1.385 . S
C1064 C1063 1.374 . S
C1065 C1062 1.499 . S
C1065 C1066 1.373 . S
C1065 C1067 1.389 . S
C1066 H1039 0.950 . S
C1066 C1052 1.377 . S
C1066 C1065 1.373 . S
C1067 C1051 1.377 . S
C1067 C1065 1.389 . S
C1067 C1068 1.524 . S
C1068 C1067 1.524 . S
C1068 C1069 1.397 . S
C1068 C1073 1.363 . S
C1069 H1040 0.950 . S
C1069 C1068 1.397 . S
C1069 C1070 1.334 . S
C1070 H1041 0.950 . S
C1070 C1069 1.334 . S
C1070 C1071 1.287 . S
C1071 C1070 1.287 . S
C1071 C1072 1.524 . S
C1071 H1074 0.999 . S
C1072 H1042 0.950 . S
C1072 C1071 1.524 . S
C1072 C1073 1.415 . S
C1073 H1043 0.950 . S
C1073 C1068 1.363 . S
C1073 C1072 1.415 . S
H1074 C1071 0.999 . S
H1075 C1056 0.913 . S
H1076 C1094 0.951 . S
H1077 C1096 0.951 . S
H1078 C1098 0.950 . S
H1079 C1099 0.950 . S
H1080 C1101 0.950 . S
H1081 C1104 0.950 . S
H1082 C1105 0.950 . S
H1083 C1107 0.950 . S
H1084 C1108 0.950 . S
H1085 C1109 0.951 . S
H1086 C1111 0.951 . S
H1087 C1113 0.950 . S
H1088 C1114 0.950 . S
H1089 C1116 0.950 . S
H1090 C1119 0.950 . S
H1091 C1120 0.950 . S
H1092 C1122 0.950 . S
H1093 C1123 0.950 . S
C1094 H1076 0.951 . S
C1094 C1095 1.366 . S
C1094 C1096 1.388 . S
C1095 C1094 1.366 . S
C1095 C1099 1.385 . S
C1096 H1077 0.951 . S
C1096 C1094 1.388 . S
C1096 C1097 1.366 . S
C1097 C1096 1.366 . S
C1097 C1098 1.414 . S
C1097 C1100 1.499 . S
C1098 H1078 0.950 . S
C1098 C1097 1.414 . S
C1098 C1099 1.374 . S
C1099 H1079 0.950 . S
C1099 C1095 1.385 . S
C1099 C1098 1.374 . S
C1100 C1097 1.499 . S
C1100 C1101 1.373 . S
C1100 C1102 1.389 . S
C1101 H1080 0.950 . S
C1101 C1100 1.373 . S
C1101 C1117 1.377 . S
C1102 C1100 1.389 . S
C1102 C1103 1.524 . S
C1102 C1116 1.377 . S
C1103 C1102 1.524 . S
C1103 C1104 1.397 . S
C1103 C1108 1.363 . S
C1104 H1081 0.950 . S
C1104 C1103 1.397 . S
C1104 C1105 1.334 . S
C1105 H1082 0.950 . S
C1105 C1104 1.334 . S
C1105 C1106 1.287 . S
C1106 C1105 1.287 . S
C1106 C1107 1.524 . S
C1106 H1125 0.913 . S
C1107 H1083 0.950 . S
C1107 C1106 1.524 . S
C1107 C1108 1.415 . S
C1108 H1084 0.950 . S
C1108 C1103 1.363 . S
C1108 C1107 1.415 . S
C1109 H1085 0.951 . S
C1109 C1110 1.366 . S
C1109 C1111 1.388 . S
C1110 C1109 1.366 . S
C1110 C1114 1.385 . S
C1111 H1086 0.951 . S
C1111 C1109 1.388 . S
C1111 C1112 1.366 . S
C1112 C1111 1.366 . S
C1112 C1113 1.414 . S
C1112 C1115 1.499 . S
C1113 H1087 0.950 . S
C1113 C1112 1.414 . S
C1113 C1114 1.374 . S
C1114 H1088 0.950 . S
C1114 C1110 1.385 . S
C1114 C1113 1.374 . S
C1115 C1112 1.499 . S
C1115 C1116 1.373 . S
C1115 C1117 1.389 . S
C1116 H1089 0.950 . S
C1116 C1102 1.377 . S
C1116 C1115 1.373 . S
C1117 C1101 1.377 . S
C1117 C1115 1.389 . S
C1117 C1118 1.524 . S
C1118 C1117 1.524 . S
C1118 C1119 1.397 . S
C1118 C1123 1.363 . S
C1119 H1090 0.950 . S
C1119 C1118 1.397 . S
C1119 C1120 1.334 . S
C1120 H1091 0.950 . S
C1120 C1119 1.334 . S
C1120 C1121 1.287 . S
C1121 C1120 1.287 . S
C1121 C1122 1.524 . S
C1121 H1124 0.999 . S
C1122 H1092 0.950 . S
C1122 C1121 1.524 . S
C1122 C1123 1.415 . S
C1123 H1093 0.950 . S
C1123 C1118 1.363 . S
C1123 C1122 1.415 . S
H1124 C1121 0.999 . S
H1125 C1106 0.913 . S
H1126 C1144 0.951 . S
H1127 C1146 0.951 . S
H1128 C1148 0.950 . S
H1129 C1149 0.950 . S
H1130 C1151 0.950 . S
H1131 C1154 0.950 . S
H1132 C1155 0.950 . S
H1133 C1157 0.950 . S
H1134 C1158 0.950 . S
H1135 C1159 0.951 . S
H1136 C1161 0.951 . S
H1137 C1163 0.950 . S
H1138 C1164 0.950 . S
H1139 C1166 0.950 . S
H1140 C1169 0.950 . S
H1141 C1170 0.950 . S
H1142 C1172 0.950 . S
H1143 C1173 0.950 . S
C1144 H1126 0.951 . S
C1144 C1145 1.366 . S
C1144 C1146 1.388 . S
C1145 C1144 1.366 . S
C1145 C1149 1.385 . S
C1146 H1127 0.951 . S
C1146 C1144 1.388 . S
C1146 C1147 1.366 . S
C1147 C1146 1.366 . S
C1147 C1148 1.414 . S
C1147 C1150 1.499 . S
C1148 H1128 0.950 . S
C1148 C1147 1.414 . S
C1148 C1149 1.374 . S
C1149 H1129 0.950 . S
C1149 C1145 1.385 . S
C1149 C1148 1.374 . S
C1150 C1147 1.499 . S
C1150 C1151 1.373 . S
C1150 C1152 1.389 . S
C1151 H1130 0.950 . S
C1151 C1150 1.373 . S
C1151 C1167 1.377 . S
C1152 C1150 1.389 . S
C1152 C1153 1.524 . S
C1152 C1166 1.377 . S
C1153 C1152 1.524 . S
C1153 C1154 1.397 . S
C1153 C1158 1.363 . S
C1154 H1131 0.950 . S
C1154 C1153 1.397 . S
C1154 C1155 1.334 . S
C1155 H1132 0.950 . S
C1155 C1154 1.334 . S
C1155 C1156 1.287 . S
C1156 C1155 1.287 . S
C1156 C1157 1.524 . S
C1156 H1175 0.913 . S
C1157 H1133 0.950 . S
C1157 C1156 1.524 . S
C1157 C1158 1.415 . S
C1158 H1134 0.950 . S
C1158 C1153 1.363 . S
C1158 C1157 1.415 . S
C1159 H1135 0.951 . S
C1159 C1160 1.366 . S
C1159 C1161 1.388 . S
C1160 C1159 1.366 . S
C1160 C1164 1.385 . S
C1161 H1136 0.951 . S
C1161 C1159 1.388 . S
C1161 C1162 1.366 . S
C1162 C1161 1.366 . S
C1162 C1163 1.414 . S
C1162 C1165 1.499 . S
C1163 H1137 0.950 . S
C1163 C1162 1.414 . S
C1163 C1164 1.374 . S
C1164 H1138 0.950 . S
C1164 C1160 1.385 . S
C1164 C1163 1.374 . S
C1165 C1162 1.499 . S
C1165 C1166 1.373 . S
C1165 C1167 1.389 . S
C1166 H1139 0.950 . S
C1166 C1152 1.377 . S
C1166 C1165 1.373 . S
C1167 C1151 1.377 . S
C1167 C1165 1.389 . S
C1167 C1168 1.524 . S
C1168 C1167 1.524 . S
C1168 C1169 1.397 . S
C1168 C1173 1.363 . S
C1169 H1140 0.950 . S
C1169 C1168 1.397 . S
C1169 C1170 1.334 . S
C1170 H1141 0.950 . S
C1170 C1169 1.334 . S
C1170 C1171 1.287 . S
C1171 C1170 1.287 . S
C1171 C1172 1.524 . S
C1171 H1174 0.999 . S
C1172 H1142 0.950 . S
C1172 C1171 1.524 . S
C1172 C1173 1.415 . S
C1173 H1143 0.950 . S
C1173 C1168 1.363 . S
C1173 C1172 1.415 . S
H1174 C1171 0.999 . S
H1175 C1156 0.913 . S
H1176 C1194 0.951 . S
H1177 C1196 0.951 . S
H1178 C1198 0.950 . S
H1179 C1199 0.950 . S
H1180 C1201 0.950 . S
H1181 C1204 0.950 . S
H1182 C1205 0.950 . S
H1183 C1207 0.950 . S
H1184 C1208 0.950 . S
H1185 C1209 0.951 . S
H1186 C1211 0.951 . S
H1187 C1213 0.950 . S
H1188 C1214 0.950 . S
H1189 C1216 0.950 . S
H1190 C1219 0.950 . S
H1191 C1220 0.950 . S
H1192 C1222 0.950 . S
H1193 C1223 0.950 . S
C1194 H1176 0.951 . S
C1194 C1195 1.366 . S
C1194 C1196 1.388 . S
C1195 C1194 1.366 . S
C1195 C1199 1.385 . S
C1196 H1177 0.951 . S
C1196 C1194 1.388 . S
C1196 C1197 1.366 . S
C1197 C1196 1.366 . S
C1197 C1198 1.414 . S
C1197 C1200 1.499 . S
C1198 H1178 0.950 . S
C1198 C1197 1.414 . S
C1198 C1199 1.374 . S
C1199 H1179 0.950 . S
C1199 C1195 1.385 . S
C1199 C1198 1.374 . S
C1200 C1197 1.499 . S
C1200 C1201 1.373 . S
C1200 C1202 1.389 . S
C1201 H1180 0.950 . S
C1201 C1200 1.373 . S
C1201 C1217 1.377 . S
C1202 C1200 1.389 . S
C1202 C1203 1.524 . S
C1202 C1216 1.377 . S
C1203 C1202 1.524 . S
C1203 C1204 1.397 . S
C1203 C1208 1.363 . S
C1204 H1181 0.950 . S
C1204 C1203 1.397 . S
C1204 C1205 1.334 . S
C1205 H1182 0.950 . S
C1205 C1204 1.334 . S
C1205 C1206 1.287 . S
C1206 C1205 1.287 . S
C1206 C1207 1.524 . S
C1206 H1225 0.913 . S
C1207 H1183 0.950 . S
C1207 C1206 1.524 . S
C1207 C1208 1.415 . S
C1208 H1184 0.950 . S
C1208 C1203 1.363 . S
C1208 C1207 1.415 . S
C1209 H1185 0.951 . S
C1209 C1210 1.366 . S
C1209 C1211 1.388 . S
C1210 C1209 1.366 . S
C1210 C1214 1.385 . S
C1211 H1186 0.951 . S
C1211 C1209 1.388 . S
C1211 C1212 1.366 . S
C1212 C1211 1.366 . S
C1212 C1213 1.414 . S
C1212 C1215 1.499 . S
C1213 H1187 0.950 . S
C1213 C1212 1.414 . S
C1213 C1214 1.374 . S
C1214 H1188 0.950 . S
C1214 C1210 1.385 . S
C1214 C1213 1.374 . S
C1215 C1212 1.499 . S
C1215 C1216 1.373 . S
C1215 C1217 1.389 . S
C1216 H1189 0.950 . S
C1216 C1202 1.377 . S
C1216 C1215 1.373 . S
C1217 C1201 1.377 . S
C1217 C1215 1.389 . S
C1217 C1218 1.524 . S
C1218 C1217 1.524 . S
C1218 C1219 1.397 . S
C1218 C1223 1.363 . S
C1219 H1190 0.950 . S
C1219 C1218 1.397 . S
C1219 C1220 1.334 . S
C1220 H1191 0.950 . S
C1220 C1219 1.334 . S
C1220 C1221 1.287 . S
C1221 C1220 1.287 . S
C1221 C1222 1.524 . S
C1221 H1224 0.999 . S
C1222 H1192 0.950 . S
C1222 C1221 1.524 . S
C1222 C1223 1.415 . S
C1223 H1193 0.950 . S
C1223 C1218 1.363 . S
C1223 C1222 1.415 . S
H1224 C1221 0.999 . S
H1225 C1206 0.913 . S
H1226 C1244 0.951 1_554 S
H1227 C1246 0.951 . S
H1228 C1248 0.950 . S
H1229 C1249 0.950 . S
H1230 C1251 0.950 . S
H1231 C1254 0.950 . S
H1232 C1255 0.950 . S
H1233 C1257 0.950 . S
H1234 C1258 0.950 . S
H1235 C1259 0.951 . S
H1236 C1261 0.951 . S
H1237 C1263 0.950 . S
H1238 C1264 0.950 . S
H1239 C1266 0.950 . S
H1240 C1269 0.950 . S
H1241 C1270 0.950 . S
H1242 C1272 0.950 . S
H1243 C1273 0.950 . S
C1244 H1226 0.951 1_556 S
C1244 C1245 1.366 . S
C1244 C1246 1.388 . S
C1245 C1244 1.366 . S
C1245 C1249 1.385 . S
C1246 H1227 0.951 . S
C1246 C1244 1.388 . S
C1246 C1247 1.366 . S
C1247 C1246 1.366 . S
C1247 C1248 1.414 . S
C1247 C1250 1.499 . S
C1248 H1228 0.950 . S
C1248 C1247 1.414 . S
C1248 C1249 1.374 . S
C1249 H1229 0.950 . S
C1249 C1245 1.385 . S
C1249 C1248 1.374 . S
C1250 C1247 1.499 . S
C1250 C1251 1.373 . S
C1250 C1252 1.389 . S
C1251 H1230 0.950 . S
C1251 C1250 1.373 . S
C1251 C1267 1.377 . S
C1252 C1250 1.389 . S
C1252 C1253 1.524 . S
C1252 C1266 1.377 . S
C1253 C1252 1.524 . S
C1253 C1254 1.397 . S
C1253 C1258 1.363 . S
C1254 H1231 0.950 . S
C1254 C1253 1.397 . S
C1254 C1255 1.334 . S
C1255 H1232 0.950 . S
C1255 C1254 1.334 . S
C1255 C1256 1.285 1_556 S
C1256 C1255 1.285 1_554 S
C1256 C1257 1.524 . S
C1256 H1275 0.915 . S
C1257 H1233 0.950 . S
C1257 C1256 1.524 . S
C1257 C1258 1.415 1_554 S
C1258 H1234 0.950 . S
C1258 C1253 1.363 . S
C1258 C1257 1.415 1_556 S
C1259 H1235 0.951 . S
C1259 C1260 1.366 . S
C1259 C1261 1.388 . S
C1260 C1259 1.366 . S
C1260 C1264 1.385 . S
C1261 H1236 0.951 . S
C1261 C1259 1.388 . S
C1261 C1262 1.366 . S
C1262 C1261 1.366 . S
C1262 C1263 1.414 . S
C1262 C1265 1.499 . S
C1263 H1237 0.950 . S
C1263 C1262 1.414 . S
C1263 C1264 1.374 . S
C1264 H1238 0.950 . S
C1264 C1260 1.385 . S
C1264 C1263 1.374 . S
C1265 C1262 1.499 . S
C1265 C1266 1.373 . S
C1265 C1267 1.389 . S
C1266 H1239 0.950 . S
C1266 C1252 1.377 . S
C1266 C1265 1.373 . S
C1267 C1251 1.377 . S
C1267 C1265 1.389 . S
C1267 C1268 1.524 . S
C1268 C1267 1.524 . S
C1268 C1269 1.397 . S
C1268 C1273 1.363 . S
C1269 H1240 0.950 . S
C1269 C1268 1.397 . S
C1269 C1270 1.334 . S
C1270 H1241 0.950 . S
C1270 C1269 1.334 . S
C1270 C1271 1.287 . S
C1271 C1270 1.287 . S
C1271 C1272 1.524 . S
C1271 H1274 0.999 . S
C1272 H1242 0.950 . S
C1272 C1271 1.524 . S
C1272 C1273 1.415 . S
C1273 H1243 0.950 . S
C1273 C1268 1.363 . S
C1273 C1272 1.415 . S
H1274 C1271 0.999 . S
H1275 C1256 0.915 . S
H1276 C1294 0.951 . S
H1277 C1296 0.951 . S
H1278 C1298 0.950 . S
H1279 C1299 0.950 . S
H1280 C1301 0.950 . S
H1281 C1304 0.950 . S
H1282 C1305 0.950 . S
H1283 C1307 0.950 . S
H1284 C1308 0.950 . S
H1285 C1309 0.951 . S
H1286 C1311 0.951 . S
H1287 C1313 0.950 . S
H1288 C1314 0.950 . S
H1289 C1316 0.950 . S
H1290 C1319 0.950 . S
H1291 C1320 0.950 . S
H1292 C1322 0.950 . S
H1293 C1323 0.950 . S
C1294 H1276 0.951 . S
C1294 C1295 1.366 . S
C1294 C1296 1.388 . S
C1295 C1294 1.366 . S
C1295 C1299 1.385 . S
C1296 H1277 0.951 . S
C1296 C1294 1.388 . S
C1296 C1297 1.366 . S
C1297 C1296 1.366 . S
C1297 C1298 1.414 . S
C1297 C1300 1.499 . S
C1298 H1278 0.950 . S
C1298 C1297 1.414 . S
C1298 C1299 1.374 . S
C1299 H1279 0.950 . S
C1299 C1295 1.385 . S
C1299 C1298 1.374 . S
C1300 C1297 1.499 . S
C1300 C1301 1.373 . S
C1300 C1302 1.389 . S
C1301 H1280 0.950 . S
C1301 C1300 1.373 . S
C1301 C1317 1.377 . S
C1302 C1300 1.389 . S
C1302 C1303 1.524 . S
C1302 C1316 1.377 . S
C1303 C1302 1.524 . S
C1303 C1304 1.397 . S
C1303 C1308 1.363 . S
C1304 H1281 0.950 . S
C1304 C1303 1.397 . S
C1304 C1305 1.334 . S
C1305 H1282 0.950 . S
C1305 C1304 1.334 . S
C1305 C1306 1.287 . S
C1306 C1305 1.287 . S
C1306 C1307 1.524 . S
C1306 H1325 0.913 . S
C1307 H1283 0.950 . S
C1307 C1306 1.524 . S
C1307 C1308 1.415 . S
C1308 H1284 0.950 . S
C1308 C1303 1.363 . S
C1308 C1307 1.415 . S
C1309 H1285 0.951 . S
C1309 C1310 1.366 . S
C1309 C1311 1.388 . S
C1310 C1309 1.366 . S
C1310 C1314 1.385 . S
C1311 H1286 0.951 . S
C1311 C1309 1.388 . S
C1311 C1312 1.366 . S
C1312 C1311 1.366 . S
C1312 C1313 1.414 . S
C1312 C1315 1.499 . S
C1313 H1287 0.950 . S
C1313 C1312 1.414 . S
C1313 C1314 1.374 . S
C1314 H1288 0.950 . S
C1314 C1310 1.385 . S
C1314 C1313 1.374 . S
C1315 C1312 1.499 . S
C1315 C1316 1.373 . S
C1315 C1317 1.389 . S
C1316 H1289 0.950 . S
C1316 C1302 1.377 . S
C1316 C1315 1.373 . S
C1317 C1301 1.377 . S
C1317 C1315 1.389 . S
C1317 C1318 1.524 . S
C1318 C1317 1.524 . S
C1318 C1319 1.397 . S
C1318 C1323 1.363 . S
C1319 H1290 0.950 . S
C1319 C1318 1.397 . S
C1319 C1320 1.334 . S
C1320 H1291 0.950 . S
C1320 C1319 1.334 . S
C1320 C1321 1.287 . S
C1321 C1320 1.287 . S
C1321 C1322 1.524 . S
C1321 H1324 0.999 . S
C1322 H1292 0.950 . S
C1322 C1321 1.524 . S
C1322 C1323 1.415 . S
C1323 H1293 0.950 . S
C1323 C1318 1.363 . S
C1323 C1322 1.415 . S
H1324 C1321 0.999 . S
H1325 C1306 0.913 . S
H1326 C1344 0.951 . S
H1327 C1346 0.951 . S
H1328 C1348 0.950 . S
H1329 C1349 0.950 . S
H1330 C1351 0.950 . S
H1331 C1354 0.950 . S
H1332 C1355 0.950 . S
H1333 C1357 0.950 . S
H1334 C1358 0.950 . S
H1335 C1359 0.951 . S
H1336 C1361 0.951 . S
H1337 C1363 0.950 . S
H1338 C1364 0.950 . S
H1339 C1366 0.950 . S
H1340 C1369 0.950 . S
H1341 C1370 0.950 . S
H1342 C1372 0.950 . S
H1343 C1373 0.950 . S
C1344 H1326 0.951 . S
C1344 C1345 1.366 . S
C1344 C1346 1.388 . S
C1345 C1344 1.366 . S
C1345 C1349 1.385 . S
C1346 H1327 0.951 . S
C1346 C1344 1.388 . S
C1346 C1347 1.366 . S
C1347 C1346 1.366 . S
C1347 C1348 1.414 . S
C1347 C1350 1.499 . S
C1348 H1328 0.950 . S
C1348 C1347 1.414 . S
C1348 C1349 1.374 . S
C1349 H1329 0.950 . S
C1349 C1345 1.385 . S
C1349 C1348 1.374 . S
C1350 C1347 1.499 . S
C1350 C1351 1.373 . S
C1350 C1352 1.389 . S
C1351 H1330 0.950 . S
C1351 C1350 1.373 . S
C1351 C1367 1.377 . S
C1352 C1350 1.389 . S
C1352 C1353 1.524 . S
C1352 C1366 1.377 . S
C1353 C1352 1.524 . S
C1353 C1354 1.397 . S
C1353 C1358 1.363 . S
C1354 H1331 0.950 . S
C1354 C1353 1.397 . S
C1354 C1355 1.334 . S
C1355 H1332 0.950 . S
C1355 C1354 1.334 . S
C1355 C1356 1.287 . S
C1356 C1355 1.287 . S
C1356 C1357 1.524 . S
C1356 H1375 0.913 . S
C1357 H1333 0.950 . S
C1357 C1356 1.524 . S
C1357 C1358 1.415 . S
C1358 H1334 0.950 . S
C1358 C1353 1.363 . S
C1358 C1357 1.415 . S
C1359 H1335 0.951 . S
C1359 C1360 1.366 . S
C1359 C1361 1.388 . S
C1360 C1359 1.366 . S
C1360 C1364 1.385 . S
C1361 H1336 0.951 . S
C1361 C1359 1.388 . S
C1361 C1362 1.366 . S
C1362 C1361 1.366 . S
C1362 C1363 1.414 . S
C1362 C1365 1.499 . S
C1363 H1337 0.950 . S
C1363 C1362 1.414 . S
C1363 C1364 1.374 . S
C1364 H1338 0.950 . S
C1364 C1360 1.385 . S
C1364 C1363 1.374 . S
C1365 C1362 1.499 . S
C1365 C1366 1.373 . S
C1365 C1367 1.389 . S
C1366 H1339 0.950 . S
C1366 C1352 1.377 . S
C1366 C1365 1.373 . S
C1367 C1351 1.377 . S
C1367 C1365 1.389 . S
C1367 C1368 1.524 . S
C1368 C1367 1.524 . S
C1368 C1369 1.397 . S
C1368 C1373 1.363 . S
C1369 H1340 0.950 . S
C1369 C1368 1.397 . S
C1369 C1370 1.334 . S
C1370 H1341 0.950 . S
C1370 C1369 1.334 . S
C1370 C1371 1.287 . S
C1371 C1370 1.287 . S
C1371 C1372 1.524 . S
C1371 H1374 0.999 . S
C1372 H1342 0.950 . S
C1372 C1371 1.524 . S
C1372 C1373 1.415 . S
C1373 H1343 0.950 . S
C1373 C1368 1.363 . S
C1373 C1372 1.415 . S
H1374 C1371 0.999 . S
H1375 C1356 0.913 . S
C195 C7 1.465 . S
C210 C95 1.397 . S
C245 C37 1.328 . S
C260 C104 1.055 . S
C295 C54 1.191 . S
C310 C115 0.945 . S
C360 C126 0.969 . S
C345 C87 1.045 . S
C410 C139 1.206 . S
C395 C30 1.209 . S
C445 C51 1.145 1_556 S
C460 C148 0.891 . S
C495 C84 0.949 . S
C510 C159 0.873 . S
C545 C10 1.560 . S
C560 C172 1.482 . S
C595 C59 1.106 . S
C610 C170 0.876 . S
C660 C137 1.039 . S
C645 C74 1.215 . S
C710 C150 1.523 . S
C695 C18 1.592 . S
C745 C32 1.614 . S
C760 C161 1.617 . S
C810 C106 1.358 . S
C795 C73 1.371 . S
C845 C15 1.604 . S
C860 C117 1.550 . S
C910 C128 1.348 . S
C895 C43 1.339 . S
C960 C93 0.860 . S
C945 C62 1.084 . S
C1010 C162 1.377 . S
C995 C21 1.366 . S
C1060 C173 1.434 . S
C1045 C29 1.472 . S
C1095 C52 1.223 . S
C1110 C140 1.214 . S
C1160 C151 1.386 . S
C1145 C81 1.439 . S
C1210 C118 1.500 . S
C1195 C40 1.560 . S
C1245 C65 1.238 . S
C1260 C129 1.238 . S
C1310 C96 1.307 . S
C1295 C76 1.352 . S
C1360 C107 1.383 . S
C1345 C8 1.413 . S
