# Generated by pormake.
# Topology pyr, (3,6)-cn, num edge types: 1
# Building blocks:
#     Node 0, Type 0, BuildingBlock: WUSLED_clean_sbu_0, # of connection points: 3
#     Node 1, Type 0, BuildingBlock: WUSLED_clean_sbu_0, # of connection points: 3
#     Node 2, Type 0, BuildingBlock: WUSLED_clean_sbu_0, # of connection points: 3
#     Node 3, Type 0, BuildingBlock: WUSLED_clean_sbu_0, # of connection points: 3
#     Node 4, Type 0, BuildingBlock: WUSLED_clean_sbu_0, # of connection points: 3
#     Node 5, Type 0, BuildingBlock: WUSLED_clean_sbu_0, # of connection points: 3
#     Node 6, Type 0, BuildingBlock: WUSLED_clean_sbu_0, # of connection points: 3
#     Node 7, Type 0, BuildingBlock: WUSLED_clean_sbu_0, # of connection points: 3
#     Node 8, Type 1, BuildingBlock: MIFKUJ_clean_sbu_0, # of connection points: 6
#     Node 9, Type 1, BuildingBlock: MIFKUJ_clean_sbu_0, # of connection points: 6
#     Node 10, Type 1, BuildingBlock: MIFKUJ_clean_sbu_0, # of connection points: 6
#     Node 11, Type 1, BuildingBlock: MIFKUJ_clean_sbu_0, # of connection points: 6
#     Edge 12, Type (0, 1), BuildingBlock: MIFKUJ_clean_linker_0, # of connection points: 2
#     Edge 13, Type (0, 1), BuildingBlock: MIFKUJ_clean_linker_0, # of connection points: 2
#     Edge 14, Type (0, 1), BuildingBlock: MIFKUJ_clean_linker_0, # of connection points: 2
#     Edge 15, Type (0, 1), BuildingBlock: MIFKUJ_clean_linker_0, # of connection points: 2
#     Edge 16, Type (0, 1), BuildingBlock: MIFKUJ_clean_linker_0, # of connection points: 2
#     Edge 17, Type (0, 1), BuildingBlock: MIFKUJ_clean_linker_0, # of connection points: 2
#     Edge 18, Type (0, 1), BuildingBlock: MIFKUJ_clean_linker_0, # of connection points: 2
#     Edge 19, Type (0, 1), BuildingBlock: MIFKUJ_clean_linker_0, # of connection points: 2
#     Edge 20, Type (0, 1), BuildingBlock: MIFKUJ_clean_linker_0, # of connection points: 2
#     Edge 21, Type (0, 1), BuildingBlock: MIFKUJ_clean_linker_0, # of connection points: 2
#     Edge 22, Type (0, 1), BuildingBlock: MIFKUJ_clean_linker_0, # of connection points: 2
#     Edge 23, Type (0, 1), BuildingBlock: MIFKUJ_clean_linker_0, # of connection points: 2
#     Edge 24, Type (0, 1), BuildingBlock: MIFKUJ_clean_linker_0, # of connection points: 2
#     Edge 25, Type (0, 1), BuildingBlock: MIFKUJ_clean_linker_0, # of connection points: 2
#     Edge 26, Type (0, 1), BuildingBlock: MIFKUJ_clean_linker_0, # of connection points: 2
#     Edge 27, Type (0, 1), BuildingBlock: MIFKUJ_clean_linker_0, # of connection points: 2
#     Edge 28, Type (0, 1), BuildingBlock: MIFKUJ_clean_linker_0, # of connection points: 2
#     Edge 29, Type (0, 1), BuildingBlock: MIFKUJ_clean_linker_0, # of connection points: 2
#     Edge 30, Type (0, 1), BuildingBlock: MIFKUJ_clean_linker_0, # of connection points: 2
#     Edge 31, Type (0, 1), BuildingBlock: MIFKUJ_clean_linker_0, # of connection points: 2
#     Edge 32, Type (0, 1), BuildingBlock: MIFKUJ_clean_linker_0, # of connection points: 2
#     Edge 33, Type (0, 1), BuildingBlock: MIFKUJ_clean_linker_0, # of connection points: 2
#     Edge 34, Type (0, 1), BuildingBlock: MIFKUJ_clean_linker_0, # of connection points: 2
#     Edge 35, Type (0, 1), BuildingBlock: MIFKUJ_clean_linker_0, # of connection points: 2
# Relax obj value: 0.024
# Max RMSD: 0.079
# Mean RMSD: 0.044
data_MOF--net-pyr--node1-WUSLED_clean_sbu_0--node2-MIFKUJ_clean_sbu_0--edge1-MIFKUJ_clean_linker_0
_symmetry_space_group_name_H-M    P1
_symmetry_Int_Tables_number       1
_symmetry_cell_setting            triclinic
loop_
_symmetry_equiv_pos_as_xyz
'x, y, z'
_cell_length_a     62.435951
_cell_length_b     56.222627
_cell_length_c     61.31187
_cell_angle_alpha  86.326609
_cell_angle_beta   88.860697
_cell_angle_gamma 95.530942
loop_
_atom_site_label
_atom_site_type_symbol
_atom_site_fract_x
_atom_site_fract_y
_atom_site_fract_z
_atom_type_partial_charge
C0 C 0.18278 0.22068 0.14875 0.0
C1 C 0.16276 0.22356 0.15855 0.0
C2 C 0.15849 0.25774 0.13294 0.0
C3 C 0.15071 0.24193 0.15072 0.0
C4 C 0.17874 0.2549 0.12346 0.0
C5 C 0.19072 0.23654 0.13128 0.0
U6 U 0.19356 0.16922 0.18969 0.0
O7 O 0.20332 0.13351 0.18376 0.0
O8 O 0.22419 0.15829 0.2021 0.0
C9 C 0.22203 0.13772 0.19293 0.0
C10 C 0.19542 0.20108 0.15626 0.0
C11 C 0.24091 0.13172 0.18035 0.0
C12 C 0.26951 0.14181 0.15279 0.0
C13 C 0.25123 0.14779 0.16409 0.0
C14 C 0.26709 0.10355 0.17366 0.0
C15 C 0.27778 0.11965 0.15755 0.0
C16 C 0.2489 0.10955 0.18493 0.0
C17 C 0.15544 0.15553 0.24048 0.0
C18 C 0.14303 0.11833 0.26146 0.0
C19 C 0.14204 0.1562 0.27796 0.0
C20 C 0.15066 0.16825 0.25862 0.0
C21 C 0.13788 0.13111 0.27955 0.0
C22 C 0.15179 0.1304 0.24214 0.0
C23 C 0.16298 0.16903 0.2198 0.0
O24 O 0.20615 0.20437 0.17422 0.0
O25 O 0.18557 0.17938 0.15581 0.0
O26 O 0.16055 0.15776 0.20173 0.0
O27 O 0.18149 0.18227 0.22033 0.0
H28 H 0.15638 0.21146 0.1721 0.0
H29 H 0.13513 0.24345 0.1583 0.0
H30 H 0.18544 0.26699 0.11005 0.0
H31 H 0.2062 0.23467 0.1236 0.0
H32 H 0.27739 0.15473 0.14063 0.0
H33 H 0.24526 0.165 0.16029 0.0
H34 H 0.2727 0.08617 0.17749 0.0
H35 H 0.24108 0.09686 0.19733 0.0
H36 H 0.14026 0.09897 0.26225 0.0
H37 H 0.13805 0.16662 0.29147 0.0
H38 H 0.1532 0.18764 0.25769 0.0
H39 H 0.1554 0.12008 0.22844 0.0
C40 C 0.2852 0.85215 0.64124 0.0
C41 C 0.27009 0.85823 0.65671 0.0
C42 C 0.24861 0.87466 0.62757 0.0
C43 C 0.25195 0.86929 0.64994 0.0
C44 C 0.26403 0.86887 0.61221 0.0
C45 C 0.28206 0.85769 0.61899 0.0
U46 U 0.33186 0.8413 0.67942 0.0
O47 O 0.3439 0.80742 0.69143 0.0
O48 O 0.36506 0.83419 0.67153 0.0
C49 C 0.36261 0.81248 0.68115 0.0
C50 C 0.30407 0.83969 0.64782 0.0
C51 C 0.37017 0.79329 0.66859 0.0
C52 C 0.37356 0.77341 0.63478 0.0
C53 C 0.36569 0.79157 0.64638 0.0
C54 C 0.39015 0.75835 0.66758 0.0
C55 C 0.38599 0.75662 0.64522 0.0
C56 C 0.38234 0.77651 0.6791 0.0
C57 C 0.3413 0.87803 0.72922 0.0
C58 C 0.37193 0.87391 0.75257 0.0
C59 C 0.34546 0.90082 0.76147 0.0
C60 C 0.33392 0.89457 0.74303 0.0
C61 C 0.36466 0.89064 0.76646 0.0
C62 C 0.36034 0.86766 0.73411 0.0
C63 C 0.32909 0.87192 0.70973 0.0
O64 O 0.32277 0.85265 0.64605 0.0
O65 O 0.30177 0.82565 0.66588 0.0
O66 O 0.31836 0.85057 0.71086 0.0
O67 O 0.33942 0.87734 0.69091 0.0
H68 H 0.27217 0.85423 0.67401 0.0
H69 H 0.24036 0.87321 0.66224 0.0
H70 H 0.26228 0.87313 0.5949 0.0
H71 H 0.29358 0.85327 0.60679 0.0
H72 H 0.37019 0.77277 0.61756 0.0
H73 H 0.35626 0.80434 0.63798 0.0
H74 H 0.39927 0.74552 0.67628 0.0
H75 H 0.38586 0.77748 0.69627 0.0
H76 H 0.38676 0.86593 0.75574 0.0
H77 H 0.33921 0.91347 0.77195 0.0
H78 H 0.3192 0.90267 0.73953 0.0
H79 H 0.3663 0.85486 0.72359 0.0
C80 C 0.63268 0.36898 0.77391 0.0
C81 C 0.64789 0.38047 0.75854 0.0
C82 C 0.61907 0.39434 0.73606 0.0
C83 C 0.64114 0.39297 0.73975 0.0
C84 C 0.60398 0.38301 0.75168 0.0
C85 C 0.61073 0.37049 0.77034 0.0
U86 U 0.66998 0.35433 0.82182 0.0
O87 O 0.66076 0.34168 0.8558 0.0
O88 O 0.67819 0.31916 0.83508 0.0
C89 C 0.66825 0.32083 0.85395 0.0
C90 C 0.63898 0.35467 0.79339 0.0
C91 C 0.65409 0.29963 0.86256 0.0
C92 C 0.62914 0.26446 0.8576 0.0
C93 C 0.64166 0.28505 0.84884 0.0
C94 C 0.64103 0.27308 0.89386 0.0
C95 C 0.62872 0.2582 0.88024 0.0
C96 C 0.65357 0.29353 0.8851 0.0
C97 C 0.72223 0.39304 0.83182 0.0
C98 C 0.74233 0.38911 0.86527 0.0
C99 C 0.75797 0.41399 0.83418 0.0
C100 C 0.73944 0.40832 0.82233 0.0
C101 C 0.75965 0.4045 0.85583 0.0
C102 C 0.72383 0.38336 0.85335 0.0
C103 C 0.70278 0.3875 0.81908 0.0
O104 O 0.65592 0.34272 0.79116 0.0
O105 O 0.63823 0.36482 0.81207 0.0
O106 O 0.68437 0.39015 0.82897 0.0
O107 O 0.70226 0.36782 0.80855 0.0
H108 H 0.66495 0.37964 0.76097 0.0
H109 H 0.6532 0.40168 0.72818 0.0
H110 H 0.58688 0.38334 0.74927 0.0
H111 H 0.59871 0.36166 0.78192 0.0
H112 H 0.61969 0.25353 0.84668 0.0
H113 H 0.64175 0.28948 0.83137 0.0
H114 H 0.64137 0.26865 0.9113 0.0
H115 H 0.66311 0.30448 0.89596 0.0
H116 H 0.74319 0.38126 0.88179 0.0
H117 H 0.77086 0.4261 0.82648 0.0
H118 H 0.7385 0.41599 0.80575 0.0
H119 H 0.71076 0.37139 0.86093 0.0
C120 C 0.7955 0.62441 0.31387 0.0
C121 C 0.79304 0.63338 0.33453 0.0
C122 C 0.75725 0.61197 0.33903 0.0
C123 C 0.77412 0.62714 0.34703 0.0
C124 C 0.75971 0.60326 0.3182 0.0
C125 C 0.77871 0.6094 0.30576 0.0
U126 U 0.84732 0.66451 0.30197 0.0
O127 O 0.88004 0.65568 0.29388 0.0
O128 O 0.86333 0.67861 0.2709 0.0
C129 C 0.88024 0.66675 0.27433 0.0
C130 C 0.81546 0.63064 0.30073 0.0
C131 C 0.88706 0.653 0.25619 0.0
C132 C 0.87903 0.6267 0.22679 0.0
C133 C 0.87207 0.63934 0.24415 0.0
C134 C 0.916 0.64095 0.23359 0.0
C135 C 0.9011 0.62735 0.22133 0.0
C136 C 0.90903 0.65365 0.25082 0.0
C137 C 0.85891 0.7172 0.33882 0.0
C138 C 0.89334 0.73802 0.34753 0.0
C139 C 0.86029 0.75585 0.35459 0.0
C140 C 0.84846 0.73618 0.34637 0.0
C141 C 0.88285 0.7569 0.35551 0.0
C142 C 0.88147 0.71837 0.33917 0.0
C143 C 0.84578 0.69607 0.3316 0.0
O144 O 0.81632 0.65091 0.28867 0.0
O145 O 0.83335 0.62777 0.31111 0.0
O146 O 0.85351 0.67527 0.33526 0.0
O147 O 0.83716 0.69863 0.31231 0.0
H148 H 0.80579 0.64518 0.34098 0.0
H149 H 0.77261 0.6344 0.36287 0.0
H150 H 0.74709 0.59138 0.31166 0.0
H151 H 0.78032 0.60234 0.28984 0.0
H152 H 0.86717 0.61622 0.21781 0.0
H153 H 0.85502 0.63847 0.24815 0.0
H154 H 0.93307 0.64209 0.22964 0.0
H155 H 0.92083 0.66412 0.25991 0.0
H156 H 0.91071 0.73843 0.3478 0.0
H157 H 0.85169 0.76992 0.36084 0.0
H158 H 0.83106 0.73557 0.34629 0.0
H159 H 0.8899 0.70398 0.33329 0.0
C160 C 0.83141 0.78691 0.86353 0.0
C161 C 0.85025 0.78218 0.85242 0.0
C162 C 0.85357 0.74743 0.87767 0.0
C163 C 0.86127 0.76262 0.85945 0.0
C164 C 0.83464 0.75234 0.88866 0.0
C165 C 0.82369 0.77187 0.88164 0.0
U166 U 0.82312 0.84106 0.82458 0.0
O167 O 0.79313 0.85397 0.81235 0.0
O168 O 0.81449 0.87679 0.83203 0.0
C169 C 0.79581 0.87386 0.82257 0.0
C170 C 0.81969 0.80748 0.85664 0.0
C171 C 0.77714 0.87981 0.83553 0.0
C172 C 0.74804 0.86899 0.8624 0.0
C173 C 0.7657 0.8628 0.85025 0.0
C174 C 0.75324 0.90928 0.84537 0.0
C175 C 0.74164 0.89236 0.86016 0.0
C176 C 0.77078 0.90304 0.83319 0.0
C177 C 0.86279 0.8566 0.77507 0.0
C178 C 0.86083 0.86915 0.7364 0.0
C179 C 0.89274 0.88111 0.7563 0.0
C180 C 0.88344 0.86892 0.77528 0.0
C181 C 0.8817 0.88112 0.73652 0.0
C182 C 0.85149 0.85701 0.75544 0.0
C183 C 0.85424 0.84202 0.79493 0.0
O184 O 0.83024 0.82867 0.85817 0.0
O185 O 0.80925 0.80565 0.83832 0.0
O186 O 0.8355 0.82939 0.79357 0.0
O187 O 0.85661 0.85211 0.81361 0.0
H188 H 0.85642 0.79362 0.83835 0.0
H189 H 0.87567 0.75924 0.85049 0.0
H190 H 0.82843 0.74129 0.90294 0.0
H191 H 0.80922 0.77532 0.89046 0.0
H192 H 0.73961 0.85561 0.8738 0.0
H193 H 0.77046 0.84478 0.85239 0.0
H194 H 0.74859 0.92731 0.84301 0.0
H195 H 0.77939 0.9164 0.82189 0.0
H196 H 0.85194 0.86853 0.72143 0.0
H197 H 0.90868 0.89043 0.75714 0.0
H198 H 0.8926 0.86878 0.79011 0.0
H199 H 0.83561 0.84754 0.75461 0.0
C200 C 0.64655 0.16561 0.28938 0.0
C201 C 0.65126 0.14229 0.28551 0.0
C202 C 0.63195 0.14408 0.2513 0.0
C203 C 0.64394 0.13158 0.26664 0.0
C204 C 0.62751 0.16751 0.25526 0.0
C205 C 0.63473 0.17812 0.2741 0.0
U206 U 0.68335 0.17421 0.3386 0.0
O207 O 0.69646 0.2076 0.35226 0.0
O208 O 0.67445 0.18181 0.37226 0.0
C209 C 0.68464 0.20346 0.37034 0.0
C210 C 0.65341 0.1772 0.30931 0.0
C211 C 0.67217 0.2231 0.37691 0.0
C212 C 0.65903 0.26219 0.36966 0.0
C213 C 0.67013 0.24343 0.36276 0.0
C214 C 0.65129 0.24046 0.40474 0.0
C215 C 0.64957 0.26098 0.39076 0.0
C216 C 0.66257 0.22179 0.39791 0.0
C217 C 0.7305 0.13553 0.34727 0.0
C218 C 0.75664 0.14046 0.37595 0.0
C219 C 0.75982 0.11017 0.35001 0.0
C220 C 0.74138 0.11692 0.33968 0.0
C221 C 0.76781 0.12195 0.36818 0.0
C222 C 0.73815 0.14723 0.36554 0.0
C223 C 0.71159 0.14272 0.33551 0.0
O224 O 0.65059 0.16392 0.32778 0.0
O225 O 0.67199 0.19039 0.3078 0.0
O226 O 0.71394 0.16414 0.32534 0.0
O227 O 0.6929 0.1379 0.34591 0.0
H228 H 0.66048 0.13237 0.29708 0.0
H229 H 0.6478 0.1136 0.26398 0.0
H230 H 0.61805 0.17752 0.24399 0.0
H231 H 0.63089 0.1961 0.27685 0.0
H232 H 0.65779 0.27766 0.35844 0.0
H233 H 0.67722 0.24498 0.34641 0.0
H234 H 0.64439 0.23911 0.42117 0.0
H235 H 0.66398 0.20638 0.40915 0.0
H236 H 0.76244 0.15002 0.38979 0.0
H237 H 0.76776 0.09559 0.34381 0.0
H238 H 0.73567 0.10764 0.32564 0.0
H239 H 0.72995 0.16171 0.37159 0.0
C240 C 0.29596 0.61763 0.18557 0.0
C241 C 0.29276 0.62943 0.16519 0.0
C242 C 0.25844 0.60527 0.16203 0.0
C243 C 0.27419 0.62327 0.15349 0.0
C244 C 0.26183 0.59353 0.18247 0.0
C245 C 0.28039 0.59966 0.1941 0.0
U246 U 0.34781 0.65742 0.19468 0.0
O247 O 0.361 0.67091 0.22516 0.0
O248 O 0.3794 0.64802 0.20575 0.0
C249 C 0.37793 0.65878 0.22408 0.0
C250 C 0.31529 0.62391 0.19822 0.0
C251 C 0.38334 0.64528 0.2445 0.0
C252 C 0.39172 0.60858 0.26455 0.0
C253 C 0.38505 0.62046 0.24542 0.0
C254 C 0.39456 0.64593 0.28232 0.0
C255 C 0.39671 0.6212 0.2832 0.0
C256 C 0.38804 0.6578 0.26318 0.0
C257 C 0.36283 0.71072 0.15196 0.0
C258 C 0.3906 0.74379 0.15477 0.0
C259 C 0.37111 0.73985 0.12122 0.0
C260 C 0.35927 0.71918 0.13048 0.0
C261 C 0.38679 0.75259 0.13329 0.0
C262 C 0.37868 0.72302 0.16405 0.0
C263 C 0.34932 0.68944 0.16132 0.0
O264 O 0.3338 0.62108 0.1886 0.0
O265 O 0.31554 0.64408 0.20795 0.0
O266 O 0.33917 0.69178 0.17992 0.0
O267 O 0.35754 0.66884 0.16057 0.0
H268 H 0.30459 0.64345 0.15838 0.0
H269 H 0.27202 0.63284 0.13792 0.0
H270 H 0.25024 0.57935 0.18941 0.0
H271 H 0.28261 0.59031 0.20978 0.0
H272 H 0.39296 0.58949 0.26474 0.0
H273 H 0.3815 0.61026 0.23132 0.0
H274 H 0.39852 0.65628 0.29624 0.0
H275 H 0.38701 0.67695 0.26285 0.0
H276 H 0.40244 0.75323 0.16457 0.0
H277 H 0.368 0.74579 0.10454 0.0
H278 H 0.34717 0.70986 0.12086 0.0
H279 H 0.38165 0.71674 0.18069 0.0
C280 C 0.12599 0.29177 0.70148 0.0
C281 C 0.13822 0.28753 0.68294 0.0
C282 C 0.11374 0.25231 0.67667 0.0
C283 C 0.13214 0.26802 0.67063 0.0
C284 C 0.10162 0.25661 0.69539 0.0
C285 C 0.10771 0.27618 0.70767 0.0
U286 U 0.16573 0.34456 0.71234 0.0
O287 O 0.16061 0.38154 0.71953 0.0
O288 O 0.17723 0.35899 0.74294 0.0
C289 C 0.16865 0.37927 0.73913 0.0
C290 C 0.13217 0.31251 0.71423 0.0
C291 C 0.15572 0.38743 0.75717 0.0
C292 C 0.13598 0.38016 0.79199 0.0
C293 C 0.14727 0.37163 0.77462 0.0
C294 C 0.14092 0.42022 0.77448 0.0
C295 C 0.13276 0.40457 0.79215 0.0
C296 C 0.15234 0.41173 0.75722 0.0
C297 C 0.21725 0.35416 0.67569 0.0
C298 C 0.23982 0.39069 0.66412 0.0
C299 C 0.2541 0.35223 0.66287 0.0
C300 C 0.23443 0.34081 0.67102 0.0
C301 C 0.25696 0.37728 0.6591 0.0
C302 C 0.22016 0.37925 0.67243 0.0
C303 C 0.19635 0.34135 0.683 0.0
O304 O 0.14905 0.31059 0.72645 0.0
O305 O 0.13255 0.33344 0.7033 0.0
O306 O 0.17912 0.35246 0.67897 0.0
O307 O 0.19578 0.33009 0.70249 0.0
H308 H 0.15239 0.29943 0.67791 0.0
H309 H 0.14168 0.26548 0.65617 0.0
H310 H 0.08753 0.24472 0.70067 0.0
H311 H 0.09813 0.27917 0.72199 0.0
H312 H 0.12969 0.36762 0.80526 0.0
H313 H 0.14951 0.35275 0.77496 0.0
H314 H 0.13891 0.43916 0.77423 0.0
H315 H 0.15878 0.42425 0.74399 0.0
H316 H 0.24162 0.41003 0.66163 0.0
H317 H 0.26689 0.34137 0.65896 0.0
H318 H 0.2325 0.32145 0.67333 0.0
H319 H 0.20719 0.38999 0.67604 0.0
Zn320 Zn 0.03485 0.01353 0.52684 0.0
Zn321 Zn 0.98016 1.00073 0.48727 0.0
C322 C 0.05881 0.05455 0.54305 0.0
O323 O 0.07451 0.04566 0.53266 0.0
C324 C 0.97828 0.95156 0.4736 0.0
O325 O 0.99172 0.94824 0.48949 0.0
O326 O 0.05822 0.99258 0.53641 0.0
O327 O 0.00628 0.99676 0.53779 0.0
O328 O 0.97626 0.98975 0.51935 0.0
C329 C 0.06345 0.99128 0.55638 0.0
O330 O 0.05304 0.00288 0.57047 0.0
O331 O 0.03986 0.04408 0.54257 0.0
C332 C 0.95673 0.03056 0.4592 0.0
O333 O 0.97056 0.02363 0.44506 0.0
O334 O 0.95808 0.0238 0.4793 0.0
O335 O 0.00945 0.01507 0.47569 0.0
O336 O 0.03916 0.0225 0.4945 0.0
O337 O 0.97171 0.9721 0.46995 0.0
C338 C 0.98668 0.98839 0.53695 0.0
C339 C 0.02925 0.0227 0.47657 0.0
Zn340 Zn 0.51643 0.98525 0.98005 0.0
Zn341 Zn 0.50128 0.02467 0.03459 0.0
C342 C 0.49068 0.9562 0.95204 0.0
O343 O 0.49957 0.93942 0.96356 0.0
C344 C 0.52834 0.05448 0.06118 0.0
O345 O 0.52366 0.07072 0.04612 0.0
O346 O 0.54341 0.97019 0.97109 0.0
O347 O 0.5233 0.0213 0.97906 0.0
O348 O 0.51507 0.04223 0.00713 0.0
C349 C 0.5621 0.9815 0.9692 0.0
O350 O 0.56469 0.00394 0.97421 0.0
O351 O 0.4952 0.97795 0.95628 0.0
C352 C 0.46553 0.0336 0.06124 0.0
O353 O 0.47565 0.01964 0.07467 0.0
O354 O 0.47323 0.03847 0.04191 0.0
O355 O 0.49518 0.9886 0.03575 0.0
O356 O 0.50364 0.96758 0.00782 0.0
O357 O 0.52093 0.03279 0.05959 0.0
C358 C 0.52291 0.04112 0.98793 0.0
C359 C 0.49599 0.96872 0.02708 0.0
Zn360 Zn 0.53482 0.49993 0.4893 0.0
Zn361 Zn 0.4836 0.51856 0.5293 0.0
C362 C 0.56079 0.52964 0.45778 0.0
O363 O 0.54502 0.52175 0.44544 0.0
C364 C 0.45665 0.48478 0.55856 0.0
O365 O 0.47427 0.48456 0.56989 0.0
O366 O 0.5413 0.4685 0.47692 0.0
O367 O 0.53644 0.49511 0.52229 0.0
O368 O 0.50966 0.50534 0.54309 0.0
C369 C 0.56105 0.46461 0.47583 0.0
O370 O 0.57559 0.48027 0.48333 0.0
O371 O 0.55968 0.52369 0.47818 0.0
C372 C 0.46178 0.55925 0.53657 0.0
O373 O 0.44839 0.5475 0.52387 0.0
O374 O 0.47941 0.55069 0.54118 0.0
O375 O 0.48185 0.52244 0.49632 0.0
O376 O 0.50818 0.5116 0.47531 0.0
O377 O 0.45709 0.49724 0.54046 0.0
C378 C 0.52783 0.49707 0.54101 0.0
C379 C 0.49002 0.51981 0.47755 0.0
Zn380 Zn 0.98173 0.51255 0.98787 0.0
Zn381 Zn 0.03514 0.49707 0.02762 0.0
C382 C 0.95547 0.48317 0.9609 0.0
O383 O 0.97069 0.49223 0.94681 0.0
C384 C 0.06361 0.51988 0.05714 0.0
O385 O 0.04817 0.50986 0.07054 0.0
O386 O 0.97365 0.54338 0.9723 0.0
O387 O 0.98131 0.51794 0.02023 0.0
O388 O 0.00901 0.50998 0.0409 0.0
C389 C 0.95384 0.54689 0.97384 0.0
O390 O 0.94074 0.53139 0.98583 0.0
O391 O 0.95714 0.48799 0.98084 0.0
C392 C 0.05459 0.45393 0.0345 0.0
O393 O 0.06579 0.46427 0.01753 0.0
O394 O 0.03913 0.46431 0.04215 0.0
O395 O 0.03646 0.49459 0.99475 0.0
O396 O 0.009 0.50294 0.97389 0.0
O397 O 0.06162 0.51778 0.0367 0.0
C398 C 0.99042 0.51723 0.03863 0.0
C399 C 0.0279 0.49657 0.97611 0.0
H400 H 0.14692 0.13919 0.32217 0.0
H401 H 0.12883 0.11962 0.35528 0.0
H402 H 0.0875 0.07492 0.31585 0.0
H403 H 0.10528 0.09471 0.28264 0.0
H404 H 0.06492 0.09418 0.34815 0.0
H405 H 0.12814 0.05204 0.34262 0.0
H406 H 0.1671 0.04849 0.33915 0.0
H407 H 0.1774 0.08292 0.3991 0.0
H408 H 0.13852 0.08698 0.40277 0.0
H409 H 0.01852 0.01501 0.43435 0.0
H410 H 0.03756 0.03176 0.40082 0.0
H411 H 0.08504 0.07016 0.43904 0.0
H412 H 0.06659 0.05258 0.47264 0.0
H413 H 0.10451 0.05366 0.40678 0.0
H414 H 0.04237 0.09721 0.41245 0.0
H415 H 1.00358 0.10138 0.41676 0.0
H416 H 0.99142 0.06628 0.35745 0.0
H417 H 0.03012 0.06159 0.35294 0.0
C418 C 0.13396 0.12522 0.32054 0.0
C419 C 0.12758 0.11849 0.29975 0.0
C420 C 0.12373 0.11394 0.33949 0.0
C421 C 0.1069 0.09567 0.33806 0.0
C422 C 0.10047 0.08892 0.31734 0.0
C423 C 0.11078 0.10011 0.29839 0.0
C424 C 0.09576 0.0839 0.35816 0.0
C425 C 0.07351 0.08503 0.36085 0.0
C426 C 0.10706 0.07253 0.375 0.0
C427 C 0.13044 0.07002 0.37286 0.0
C428 C 0.13873 0.05903 0.35497 0.0
C429 C 0.1608 0.05689 0.35298 0.0
C430 C 0.17472 0.06553 0.36886 0.0
C431 C 0.1666 0.07626 0.3868 0.0
C432 C 0.14455 0.07847 0.38885 0.0
C433 C 0.03304 0.027 0.43562 0.0
C434 C 0.04097 0.03256 0.45618 0.0
C435 C 0.04387 0.03669 0.41641 0.0
C436 C 0.06255 0.05267 0.4173 0.0
C437 C 0.07066 0.05794 0.43784 0.0
C438 C 0.06006 0.0479 0.45707 0.0
C439 C 0.0736 0.06398 0.39689 0.0
C440 C 0.09586 0.06279 0.39412 0.0
C441 C 0.06234 0.07555 0.38008 0.0
C442 C 0.03912 0.07886 0.38247 0.0
C443 C 0.03141 0.09029 0.40038 0.0
C444 C 0.00944 0.09274 0.40286 0.0
C445 C 0.99503 0.08403 0.38742 0.0
C446 C 1.00259 0.07298 0.36941 0.0
C447 C 0.02455 0.07044 0.36687 0.0
H448 H 0.97802 0.08589 0.3894 0.0
H449 H 0.1918 0.06386 0.3673 0.0
H450 H 0.37236 0.93532 0.78187 0.0
H451 H 0.39249 0.9466 0.814 0.0
H452 H 0.40583 0.87326 0.82707 0.0
H453 H 0.38505 0.86166 0.79537 0.0
H454 H 0.39457 0.8926 0.86409 0.0
H455 H 0.44412 0.91545 0.80368 0.0
H456 H 0.45615 0.93584 0.76811 0.0
H457 H 0.44759 0.00401 0.7931 0.0
H458 H 0.43522 0.98399 0.82874 0.0
H459 H 0.47962 0.91167 0.93787 0.0
H460 H 0.4572 0.90113 0.90713 0.0
H461 H 0.44649 0.97536 0.89444 0.0
H462 H 0.46935 0.98616 0.92496 0.0
H463 H 0.45564 0.95621 0.85749 0.0
H464 H 0.40721 0.93352 0.91841 0.0
H465 H 0.39519 0.91312 0.95398 0.0
H466 H 0.40145 0.84481 0.92827 0.0
H467 H 0.41386 0.86479 0.89264 0.0
C468 C 0.37938 0.92151 0.79169 0.0
C469 C 0.37709 0.89756 0.78598 0.0
C470 C 0.39108 0.92805 0.80995 0.0
C471 C 0.40091 0.91084 0.82283 0.0
C472 C 0.39846 0.88688 0.81734 0.0
C473 C 0.38674 0.88031 0.79908 0.0
C474 C 0.41374 0.91782 0.84202 0.0
C475 C 0.4081 0.9063 0.86261 0.0
C476 C 0.43105 0.93613 0.84021 0.0
C477 C 0.43854 0.9482 0.81881 0.0
C478 C 0.44464 0.93477 0.80154 0.0
C479 C 0.45155 0.94626 0.78137 0.0
C480 C 0.45258 0.9712 0.77833 0.0
C481 C 0.44675 0.98469 0.79547 0.0
C482 C 0.43981 0.97329 0.81566 0.0
C483 C 0.47244 0.92579 0.92862 0.0
C484 C 0.4763 0.94978 0.9339 0.0
C485 C 0.4595 0.91969 0.91109 0.0
C486 C 0.44991 0.9374 0.89858 0.0
C487 C 0.45368 0.96137 0.90385 0.0
C488 C 0.46671 0.96751 0.92135 0.0
C489 C 0.43651 0.93097 0.87961 0.0
C490 C 0.44206 0.94257 0.85903 0.0
C491 C 0.41911 0.91275 0.88146 0.0
C492 C 0.41163 0.90068 0.90289 0.0
C493 C 0.40618 0.91415 0.92038 0.0
C494 C 0.39925 0.90266 0.94055 0.0
C495 C 0.39753 0.87769 0.94337 0.0
C496 C 0.40276 0.86415 0.92605 0.0
C497 C 0.40974 0.87555 0.90586 0.0
H498 H 0.39217 0.86883 0.95899 0.0
H499 H 0.45793 0.98006 0.76271 0.0
H500 H 0.58638 0.42351 0.73249 0.0
H501 H 0.57247 0.44205 0.69926 0.0
H502 H 0.62077 0.41275 0.66061 0.0
H503 H 0.63479 0.39406 0.69387 0.0
H504 H 0.61581 0.45817 0.64591 0.0
H505 H 0.56913 0.38663 0.66397 0.0
H506 H 0.54512 0.35816 0.68772 0.0
H507 H 0.50181 0.41206 0.69546 0.0
H508 H 0.52572 0.44098 0.67201 0.0
H509 H 0.56451 0.47375 0.54346 0.0
H510 H 0.58131 0.45784 0.57623 0.0
H511 H 0.53304 0.4849 0.61661 0.0
H512 H 0.51597 0.50061 0.58395 0.0
H513 H 0.53855 0.44018 0.63004 0.0
H514 H 0.58549 0.5118 0.61173 0.0
H515 H 0.60959 0.53997 0.58779 0.0
H516 H 0.65241 0.48556 0.58008 0.0
H517 H 0.62841 0.45696 0.60375 0.0
C518 C 0.59403 0.42092 0.71693 0.0
C519 C 0.6116 0.40706 0.71589 0.0
C520 C 0.58606 0.43158 0.69792 0.0
C521 C 0.59532 0.42849 0.67734 0.0
C522 C 0.61332 0.41537 0.67627 0.0
C523 C 0.62136 0.40473 0.69533 0.0
C524 C 0.58586 0.43849 0.65698 0.0
C525 C 0.59898 0.45399 0.6423 0.0
C526 C 0.5638 0.43342 0.65238 0.0
C527 C 0.54932 0.41603 0.6664 0.0
C528 C 0.55456 0.39246 0.67087 0.0
C529 C 0.54096 0.37624 0.68426 0.0
C530 C 0.52198 0.38331 0.69314 0.0
C531 C 0.51653 0.40662 0.6886 0.0
C532 C 0.5301 0.42293 0.67525 0.0
C533 C 0.55751 0.47649 0.5593 0.0
C534 C 0.5388 0.48846 0.56097 0.0
C535 C 0.56722 0.46743 0.57807 0.0
C536 C 0.55858 0.4703 0.59897 0.0
C537 C 0.54002 0.4824 0.6007 0.0
C538 C 0.53027 0.49142 0.58195 0.0
C539 C 0.56843 0.46007 0.61903 0.0
C540 C 0.55537 0.44442 0.63364 0.0
C541 C 0.59054 0.46498 0.6235 0.0
C542 C 0.60504 0.48217 0.60934 0.0
C543 C 0.59996 0.50579 0.60479 0.0
C544 C 0.61362 0.52184 0.5913 0.0
C545 C 0.63249 0.51454 0.58237 0.0
C546 C 0.63777 0.49118 0.58698 0.0
C547 C 0.62416 0.47505 0.60045 0.0
H548 H 0.64304 0.527 0.57193 0.0
H549 H 0.51147 0.37072 0.7035 0.0
H550 H 0.93536 0.60055 0.22014 0.0
H551 H 0.94897 0.5806 0.18921 0.0
H552 H 0.89773 0.60431 0.14965 0.0
H553 H 0.88393 0.62421 0.18066 0.0
H554 H 0.90404 0.55899 0.14239 0.0
H555 H 0.9487 0.63291 0.1446 0.0
H556 H 0.97248 0.66379 0.16146 0.0
H557 H 0.01827 0.61286 0.17508 0.0
H558 H 0.99461 0.58157 0.15858 0.0
H559 H 0.95283 0.53881 0.03962 0.0
H560 H 0.93634 0.55601 0.07066 0.0
H561 H 0.98677 0.53361 0.11204 0.0
H562 H 1.00358 0.51673 0.08104 0.0
H563 H 0.98023 0.57874 0.11783 0.0
H564 H 0.93497 0.50468 0.11527 0.0
H565 H 0.91102 0.47442 0.09783 0.0
H566 H 0.86625 0.52643 0.08394 0.0
H567 H 0.89008 0.5571 0.10106 0.0
C568 C 0.92701 0.60158 0.20484 0.0
C569 C 0.90867 0.61416 0.20281 0.0
C570 C 0.93481 0.59016 0.18716 0.0
C571 C 0.9246 0.59128 0.16696 0.0
C572 C 0.90591 0.60322 0.16505 0.0
C573 C 0.89801 0.61456 0.1828 0.0
C574 C 0.93372 0.58041 0.14777 0.0
C575 C 0.92062 0.56353 0.13684 0.0
C576 C 0.95546 0.58603 0.1407 0.0
C577 C 0.96979 0.60484 0.15054 0.0
C578 C 0.96377 0.62825 0.15134 0.0
C579 C 0.97724 0.64583 0.16081 0.0
C580 C 0.99685 0.64027 0.16939 0.0
C581 C 1.00306 0.61713 0.16846 0.0
C582 C 0.98964 0.59947 0.15903 0.0
C583 C 0.96035 0.53734 0.05535 0.0
C584 C 0.97958 0.52636 0.05777 0.0
C585 C 0.95083 0.54714 0.07313 0.0
C586 C 0.9602 0.54594 0.09377 0.0
C587 C 0.97924 0.53477 0.09629 0.0
C588 C 0.98882 0.52506 0.07852 0.0
C589 C 0.95064 0.55709 0.11258 0.0
C590 C 0.96366 0.57414 0.12339 0.0
C591 C 0.92881 0.5517 0.11944 0.0
C592 C 0.9144 0.53324 0.10927 0.0
C593 C 0.92009 0.50971 0.10836 0.0
C594 C 0.90652 0.49247 0.09856 0.0
C595 C 0.88715 0.49851 0.08973 0.0
C596 C 0.88127 0.52178 0.09076 0.0
C597 C 0.89479 0.53909 0.10053 0.0
H598 H 0.87667 0.48514 0.08214 0.0
H599 H 0.00726 0.65391 0.17671 0.0
H600 H 0.28974 0.1285 0.11409 0.0
H601 H 0.32193 0.11726 0.09541 0.0
H602 H 0.34242 0.08463 0.15608 0.0
H603 H 0.31083 0.0966 0.17497 0.0
H604 H 0.37562 0.10918 0.135 0.0
H605 H 0.31798 0.05131 0.11584 0.0
H606 H 0.28278 0.03828 0.10072 0.0
H607 H 0.30332 0.07221 0.03804 0.0
H608 H 0.33856 0.08571 0.05289 0.0
H609 H 0.4477 0.02902 0.10242 0.0
H610 H 0.41634 0.04676 0.11594 0.0
H611 H 0.40757 0.07968 0.05169 0.0
H612 H 0.43914 0.06182 0.03788 0.0
H613 H 0.36916 0.05908 0.07126 0.0
H614 H 0.42826 0.11359 0.08995 0.0
H615 H 0.46357 0.12566 0.10525 0.0
H616 H 0.44038 0.09757 0.16906 0.0
H617 H 0.40501 0.08498 0.15407 0.0
C618 C 0.30121 0.11918 0.12351 0.0
C619 C 0.29755 0.11331 0.14604 0.0
C620 C 0.31953 0.11255 0.11275 0.0
C621 C 0.3345 0.09979 0.12425 0.0
C622 C 0.33109 0.09437 0.1468 0.0
C623 C 0.31286 0.10102 0.15755 0.0
C624 C 0.35368 0.09183 0.11296 0.0
C625 C 0.37416 0.09807 0.12118 0.0
C626 C 0.35194 0.07791 0.09448 0.0
C627 C 0.3308 0.06975 0.08554 0.0
C628 C 0.31492 0.05615 0.09888 0.0
C629 C 0.29498 0.04865 0.09035 0.0
C630 C 0.29079 0.05448 0.06845 0.0
C631 C 0.30657 0.06775 0.05502 0.0
C632 C 0.32653 0.07532 0.06347 0.0
C633 C 0.43915 0.03999 0.09108 0.0
C634 C 0.44603 0.04406 0.06905 0.0
C635 C 0.42123 0.05022 0.09889 0.0
C636 C 0.40974 0.06482 0.08492 0.0
C637 C 0.41624 0.06856 0.06279 0.0
C638 C 0.43431 0.05838 0.05494 0.0
C639 C 0.39097 0.07601 0.09364 0.0
C640 C 0.37062 0.07042 0.08493 0.0
C641 C 0.3928 0.09048 0.11171 0.0
C642 C 0.41402 0.09818 0.12084 0.0
C643 C 0.43073 0.10982 0.10721 0.0
C644 C 0.45075 0.11678 0.11584 0.0
C645 C 0.45423 0.11234 0.1381 0.0
C646 C 0.43767 0.10098 0.15181 0.0
C647 C 0.41762 0.09396 0.14326 0.0
H648 H 0.46975 0.11774 0.14475 0.0
H649 H 0.27534 0.04865 0.06188 0.0
H650 H 0.22445 0.8657 0.5915 0.0
H651 H 0.1929 0.88481 0.57922 0.0
H652 H 0.19638 0.92798 0.6349 0.0
H653 H 0.22832 0.90944 0.64706 0.0
H654 H 0.15488 0.90798 0.62786 0.0
H655 H 0.21334 0.9525 0.586 0.0
H656 H 0.2452 0.95725 0.56112 0.0
H657 H 0.20786 0.92477 0.5109 0.0
H658 H 0.17583 0.91952 0.5356 0.0
H659 H 0.08397 0.99328 0.59519 0.0
H660 H 0.11479 0.97261 0.60685 0.0
H661 H 0.11509 0.93818 0.54594 0.0
H662 H 0.08463 0.95959 0.53382 0.0
H663 H 0.15439 0.95237 0.5553 0.0
H664 H 0.09588 0.90808 0.59593 0.0
H665 H 0.06369 0.90226 0.62036 0.0
H666 H 0.1003 0.93225 0.67228 0.0
H667 H 0.13266 0.93856 0.64806 0.0
C668 C 0.21873 0.87948 0.60103 0.0
C669 C 0.22911 0.88608 0.62024 0.0
C670 C 0.20059 0.8903 0.59402 0.0
C671 C 0.19237 0.90796 0.60605 0.0
C672 C 0.20243 0.91436 0.62539 0.0
C673 C 0.22066 0.90364 0.63236 0.0
C674 C 0.1733 0.91977 0.59845 0.0
C675 C 0.15483 0.91793 0.61211 0.0
C676 C 0.17302 0.93214 0.57762 0.0
C677 C 0.19224 0.9354 0.56272 0.0
C678 C 0.21196 0.94619 0.56971 0.0
C679 C 0.23005 0.94901 0.55563 0.0
C680 C 0.22857 0.94126 0.53446 0.0
C681 C 0.20899 0.93073 0.52731 0.0
C682 C 0.19086 0.92785 0.54133 0.0
C683 C 0.0905 0.98121 0.58429 0.0
C684 C 0.08175 0.97799 0.5636 0.0
C685 C 0.1081 0.96929 0.59104 0.0
C686 C 0.11711 0.95344 0.57747 0.0
C687 C 0.10843 0.95024 0.55676 0.0
C688 C 0.09096 0.96244 0.54986 0.0
C689 C 0.13586 0.94069 0.58474 0.0
C690 C 0.15431 0.94234 0.57102 0.0
C691 C 0.13604 0.92793 0.60544 0.0
C692 C 0.11665 0.92398 0.62011 0.0
C693 C 0.09703 0.91358 0.61251 0.0
C694 C 0.07876 0.91017 0.62633 0.0
C695 C 0.07994 0.91693 0.64784 0.0
C696 C 0.09941 0.92705 0.6556 0.0
C697 C 0.11773 0.93052 0.64184 0.0
H698 H 0.06577 0.91429 0.65851 0.0
H699 H 0.24259 0.94345 0.52358 0.0
H700 H 0.80172 0.40771 0.84139 0.0
H701 H 0.83406 0.41861 0.86176 0.0
H702 H 0.79489 0.42585 0.91923 0.0
H703 H 0.76236 0.41546 0.89877 0.0
H704 H 0.82628 0.463 0.91281 0.0
H705 H 0.82253 0.37746 0.91571 0.0
H706 H 0.8193 0.33756 0.9009 0.0
H707 H 0.87737 0.35645 0.86241 0.0
H708 H 0.88079 0.3966 0.87676 0.0
H709 H 0.91631 0.47313 0.9824 0.0
H710 H 0.88239 0.45692 0.96711 0.0
H711 H 0.91535 0.44912 0.90589 0.0
H712 H 0.94923 0.4652 0.921 0.0
H713 H 0.88591 0.41069 0.91698 0.0
H714 H 0.88842 0.49669 0.91184 0.0
H715 H 0.89227 0.53671 0.92642 0.0
H716 H 0.8369 0.51713 0.96874 0.0
H717 H 0.83292 0.47683 0.95463 0.0
C718 C 0.79994 0.41175 0.85833 0.0
C719 C 0.7794 0.41068 0.86843 0.0
C720 C 0.81848 0.41779 0.87002 0.0
C721 C 0.81696 0.42282 0.89212 0.0
C722 C 0.79649 0.42196 0.90223 0.0
C723 C 0.77791 0.41582 0.89056 0.0
C724 C 0.83676 0.42922 0.90451 0.0
C725 C 0.83915 0.45136 0.91405 0.0
C726 C 0.85377 0.41428 0.9058 0.0
C727 C 0.85181 0.39012 0.89717 0.0
C728 C 0.83452 0.37317 0.90396 0.0
C729 C 0.83267 0.3505 0.89567 0.0
C730 C 0.84809 0.34449 0.88068 0.0
C731 C 0.86542 0.36113 0.874 0.0
C732 C 0.86734 0.38385 0.88222 0.0
C733 C 0.9164 0.46759 0.9658 0.0
C734 C 0.93547 0.47056 0.95289 0.0
C735 C 0.89697 0.45847 0.95704 0.0
C736 C 0.89627 0.45208 0.93525 0.0
C737 C 0.91547 0.45397 0.92271 0.0
C738 C 0.93483 0.46324 0.93138 0.0
C739 C 0.87548 0.4445 0.92509 0.0
C740 C 0.87293 0.42219 0.91593 0.0
C741 C 0.85837 0.45932 0.92408 0.0
C742 C 0.86052 0.48365 0.93236 0.0
C743 C 0.87716 0.50085 0.92437 0.0
C744 C 0.87936 0.5236 0.93253 0.0
C745 C 0.86488 0.52943 0.94855 0.0
C746 C 0.84813 0.51257 0.95636 0.0
C747 C 0.84589 0.48977 0.94828 0.0
H748 H 0.86662 0.54704 0.95486 0.0
H749 H 0.84664 0.32692 0.87429 0.0
H750 H 0.71563 0.61008 0.32551 0.0
H751 H 0.68268 0.59851 0.34747 0.0
H752 H 0.72045 0.58724 0.40468 0.0
H753 H 0.75352 0.59842 0.38273 0.0
H754 H 0.68884 0.55047 0.40066 0.0
H755 H 0.69416 0.6362 0.3988 0.0
H756 H 0.69819 0.67725 0.38151 0.0
H757 H 0.64023 0.66222 0.34627 0.0
H758 H 0.63601 0.62094 0.36312 0.0
H759 H 0.60025 0.53817 0.47608 0.0
H760 H 0.63395 0.55489 0.45748 0.0
H761 H 0.6001 0.56623 0.39765 0.0
H762 H 0.56638 0.54956 0.41607 0.0
H763 H 0.63041 0.60408 0.4047 0.0
H764 H 0.62616 0.51839 0.40396 0.0
H765 H 0.62147 0.477 0.42045 0.0
H766 H 0.67684 0.49163 0.45965 0.0
H767 H 0.68172 0.53324 0.44354 0.0
C768 C 0.71693 0.60502 0.34275 0.0
C769 C 0.73719 0.6052 0.35239 0.0
C770 C 0.69808 0.5986 0.35531 0.0
C771 C 0.6991 0.59223 0.37776 0.0
C772 C 0.71929 0.59218 0.38741 0.0
C773 C 0.73815 0.59874 0.37488 0.0
C774 C 0.67908 0.58528 0.39108 0.0
C775 C 0.67623 0.56235 0.40185 0.0
C776 C 0.66241 0.60057 0.39221 0.0
C777 C 0.66488 0.6254 0.38208 0.0
C778 C 0.68237 0.64158 0.38723 0.0
C779 C 0.68467 0.6649 0.37753 0.0
C780 C 0.66951 0.67232 0.36276 0.0
C781 C 0.65198 0.65644 0.35769 0.0
C782 C 0.64961 0.63308 0.36733 0.0
C783 C 0.59991 0.54456 0.45905 0.0
C784 C 0.58066 0.54241 0.4475 0.0
C785 C 0.6192 0.554 0.44843 0.0
C786 C 0.61955 0.56153 0.42613 0.0
C787 C 0.60019 0.56048 0.41486 0.0
C788 C 0.58094 0.55088 0.4254 0.0
C789 C 0.6402 0.56931 0.41421 0.0
C790 C 0.64313 0.59232 0.40366 0.0
C791 C 0.6569 0.55406 0.41316 0.0
C792 C 0.65416 0.529 0.42273 0.0
C793 C 0.63724 0.51284 0.41622 0.0
C794 C 0.63456 0.48933 0.42547 0.0
C795 C 0.6488 0.48171 0.44115 0.0
C796 C 0.6658 0.49757 0.44753 0.0
C797 C 0.66855 0.52111 0.43833 0.0
H798 H 0.64668 0.46351 0.44831 0.0
H799 H 0.67132 0.69039 0.35527 0.0
H800 H 0.15334 0.27229 0.09006 0.0
H801 H 0.13363 0.30493 0.07546 0.0
H802 H 0.11413 0.31919 0.14082 0.0
H803 H 0.13414 0.28664 0.15568 0.0
H804 H 0.08075 0.32111 0.11157 0.0
H805 H 0.15395 0.35458 0.11585 0.0
H806 H 0.19326 0.35644 0.1098 0.0
H807 H 0.185 0.35987 0.04035 0.0
H808 H 0.1456 0.35767 0.04599 0.0
H809 H 0.04699 0.43636 0.07707 0.0
H810 H 0.06237 0.40228 0.09567 0.0
H811 H 0.09272 0.38719 0.03488 0.0
H812 H 0.0781 0.42162 0.01654 0.0
H813 H 0.12068 0.38679 0.06498 0.0
H814 H 0.04742 0.35155 0.06042 0.0
H815 H 0.00805 0.34913 0.0663 0.0
H816 H 0.01613 0.34878 0.1357 0.0
H817 H 0.05558 0.3515 0.13022 0.0
C818 C 0.14502 0.28245 0.1014 0.0
C819 C 0.14557 0.27698 0.12409 0.0
C820 C 0.13366 0.30105 0.093 0.0
C821 C 0.12262 0.31471 0.10706 0.0
C822 C 0.12254 0.30889 0.12967 0.0
C823 C 0.13396 0.29024 0.13813 0.0
C824 C 0.11175 0.33543 0.09802 0.0
C825 C 0.08949 0.33566 0.10161 0.0
C826 C 0.1231 0.35425 0.0848 0.0
C827 C 0.14681 0.35576 0.08135 0.0
C828 C 0.1605 0.35555 0.09929 0.0
C829 C 0.1828 0.3567 0.09594 0.0
C830 C 0.19161 0.35822 0.07471 0.0
C831 C 0.17815 0.35867 0.05679 0.0
C832 C 0.15583 0.3575 0.06005 0.0
C833 C 0.05668 0.42552 0.06765 0.0
C834 C 0.0614 0.4317 0.04537 0.0
C835 C 0.06544 0.406 0.07828 0.0
C836 C 0.07869 0.39201 0.06669 0.0
C837 C 0.0827 0.39774 0.04426 0.0
C838 C 0.07427 0.4174 0.03375 0.0
C839 C 0.08946 0.37225 0.07794 0.0
C840 C 0.11183 0.37228 0.07491 0.0
C841 C 0.07815 0.35369 0.09158 0.0
C842 C 0.05445 0.35198 0.09489 0.0
C843 C 0.0408 0.35114 0.07693 0.0
C844 C 0.01848 0.34968 0.08019 0.0
C845 C 0.0096 0.34887 0.10136 0.0
C846 C 0.02303 0.34945 0.11931 0.0
C847 C 0.04537 0.35092 0.11614 0.0
H848 H 0.99231 0.34775 0.10385 0.0
H849 H 0.20888 0.3591 0.07214 0.0
H850 H 0.60408 0.25256 0.91802 0.0
H851 H 0.58522 0.2157 0.93496 0.0
H852 H 0.60543 0.17671 0.88109 0.0
H853 H 0.62439 0.21362 0.864 0.0
H854 H 0.56415 0.16244 0.89318 0.0
H855 H 0.6312 0.17396 0.92946 0.0
H856 H 0.65972 0.19611 0.94945 0.0
H857 H 0.61483 0.20302 1.00211 0.0
H858 H 0.58595 0.1812 0.98227 0.0
H859 H 0.54326 0.04604 0.94753 0.0
H860 H 0.56 0.08273 0.92823 0.0
H861 H 0.54105 0.12372 0.98123 0.0
H862 H 0.52448 0.08712 1.00078 0.0
H863 H 0.58206 0.1365 0.96896 0.0
H864 H 0.51491 0.12471 0.93228 0.0
H865 H 0.48674 0.10221 0.91211 0.0
H866 H 0.5323 0.09516 0.86009 0.0
H867 H 0.56082 0.11736 0.8801 0.0
C868 C 0.60457 0.23615 0.90977 0.0
C869 C 0.61594 0.23604 0.88973 0.0
C870 C 0.59375 0.21506 0.91948 0.0
C871 C 0.59419 0.19331 0.90951 0.0
C872 C 0.60489 0.19325 0.88913 0.0
C873 C 0.61568 0.21439 0.87935 0.0
C874 C 0.58392 0.17059 0.92062 0.0
C875 C 0.56827 0.15661 0.90964 0.0
C876 C 0.589 0.16312 0.94226 0.0
C877 C 0.60636 0.17614 0.95428 0.0
C878 C 0.62737 0.18036 0.94522 0.0
C879 C 0.6436 0.19283 0.95654 0.0
C880 C 0.63908 0.20102 0.97701 0.0
C881 C 0.61831 0.1967 0.98623 0.0
C882 C 0.602 0.18426 0.97497 0.0
C883 C 0.54252 0.06286 0.95508 0.0
C884 C 0.53246 0.06354 0.97577 0.0
C885 C 0.55206 0.08387 0.94395 0.0
C886 C 0.55163 0.10607 0.95316 0.0
C887 C 0.5416 0.10682 0.97377 0.0
C888 C 0.53207 0.08583 0.98492 0.0
C889 C 0.56212 0.12844 0.94162 0.0
C890 C 0.5779 0.14233 0.95251 0.0
C891 C 0.55719 0.13575 0.91989 0.0
C892 C 0.54005 0.1225 0.90779 0.0
C893 C 0.51896 0.11821 0.91662 0.0
C894 C 0.50292 0.10553 0.9052 0.0
C895 C 0.50774 0.09721 0.88486 0.0
C896 C 0.5286 0.1016 0.87586 0.0
C897 C 0.5447 0.11424 0.88722 0.0
H898 H 0.4953 0.0874 0.87605 0.0
H899 H 0.65167 0.21067 0.98575 0.0
H900 H 0.91593 0.75495 0.384 0.0
H901 H 0.93443 0.78797 0.40256 0.0
H902 H 0.89579 0.83757 0.36894 0.0
H903 H 0.87752 0.80469 0.34996 0.0
H904 H 0.93789 0.85602 0.37082 0.0
H905 H 0.88278 0.81756 0.4204 0.0
H906 H 0.86294 0.78351 0.44181 0.0
H907 H 0.92013 0.77066 0.47665 0.0
H908 H 0.9404 0.80446 0.45521 0.0
H909 H 0.95022 0.95257 0.43993 0.0
H910 H 0.93641 0.91936 0.41878 0.0
H911 H 0.97456 0.87196 0.45586 0.0
H912 H 0.98826 0.90507 0.47738 0.0
H913 H 0.93423 0.85178 0.45192 0.0
H914 H 0.989 0.89186 0.40318 0.0
H915 H 0.00831 0.92635 0.3819 0.0
H916 H 0.95146 0.93665 0.34559 0.0
H917 H 0.93171 0.9024 0.36686 0.0
C918 C 0.91161 0.77294 0.38028 0.0
C919 C 0.89517 0.77718 0.36558 0.0
C920 C 0.92207 0.79176 0.39104 0.0
C921 C 0.9163 0.81519 0.38734 0.0
C922 C 0.90045 0.81962 0.3721 0.0
C923 C 0.88992 0.80079 0.36139 0.0
C924 C 0.92622 0.83492 0.39993 0.0
C925 C 0.93693 0.85522 0.38854 0.0
C926 C 0.92532 0.83365 0.42308 0.0
C927 C 0.91316 0.81337 0.43603 0.0
C928 C 0.89117 0.80735 0.4325 0.0
C929 C 0.87984 0.78812 0.44466 0.0
C930 C 0.89028 0.77488 0.46053 0.0
C931 C 0.91207 0.7809 0.46432 0.0
C932 C 0.92349 0.8001 0.45218 0.0
C933 C 0.95577 0.93511 0.44356 0.0
C934 C 0.97039 0.9315 0.46036 0.0
C935 C 0.94792 0.91615 0.43136 0.0
C936 C 0.95463 0.89321 0.43554 0.0
C937 C 0.9692 0.88952 0.45231 0.0
C938 C 0.97705 0.90849 0.46456 0.0
C939 C 0.94595 0.87295 0.42283 0.0
C940 C 0.93538 0.85255 0.43421 0.0
C941 C 0.94695 0.87417 0.39968 0.0
C942 C 0.95882 0.89468 0.38675 0.0
C943 C 0.98057 0.90158 0.39076 0.0
C944 C 0.9916 0.92107 0.37869 0.0
C945 C 0.98111 0.93372 0.36244 0.0
C946 C 0.95956 0.92685 0.35819 0.0
C947 C 0.94845 0.90738 0.37024 0.0
H948 H 0.98968 0.94881 0.35311 0.0
H949 H 0.88148 0.76 0.46994 0.0
H950 H 0.3661 0.73019 0.61386 0.0
H951 H 0.38009 0.69807 0.5945 0.0
H952 H 0.43899 0.70658 0.63 0.0
H953 H 0.42552 0.73941 0.64872 0.0
H954 H 0.44775 0.70008 0.58846 0.0
H955 H 0.39936 0.66075 0.64408 0.0
H956 H 0.36497 0.65202 0.66487 0.0
H957 H 0.33336 0.63065 0.60668 0.0
H958 H 0.36751 0.63957 0.58548 0.0
H959 H 0.48406 0.58673 0.56577 0.0
H960 H 0.47226 0.62134 0.58336 0.0
H961 H 0.41364 0.61578 0.54718 0.0
H962 H 0.42515 0.58117 0.52976 0.0
H963 H 0.40528 0.62074 0.5895 0.0
H964 H 0.45422 0.66011 0.53398 0.0
H965 H 0.48891 0.66849 0.51369 0.0
H966 H 0.51991 0.6892 0.5724 0.0
H967 H 0.48544 0.68063 0.59311 0.0
C968 C 0.38215 0.72547 0.61737 0.0
C969 C 0.3946 0.73735 0.633 0.0
C970 C 0.39004 0.7069 0.60644 0.0
C971 C 0.41048 0.6996 0.61103 0.0
C972 C 0.42314 0.71177 0.62625 0.0
C973 C 0.4153 0.7304 0.63711 0.0
C974 C 0.41858 0.67916 0.60016 0.0
C975 C 0.43858 0.68264 0.58892 0.0
C976 C 0.4065 0.65648 0.60043 0.0
C977 C 0.38595 0.65106 0.61315 0.0
C978 C 0.38504 0.65437 0.63569 0.0
C979 C 0.3656 0.64935 0.64755 0.0
C980 C 0.34698 0.64085 0.63709 0.0
C981 C 0.34778 0.63728 0.61476 0.0
C982 C 0.36718 0.64229 0.60281 0.0
C983 C 0.46874 0.593 0.56143 0.0
C984 C 0.45555 0.58114 0.54636 0.0
C985 C 0.46203 0.61283 0.57146 0.0
C986 C 0.44209 0.62125 0.56652 0.0
C987 C 0.42906 0.60959 0.5513 0.0
C988 C 0.43572 0.58982 0.54129 0.0
C989 C 0.43437 0.6417 0.57766 0.0
C990 C 0.41445 0.63819 0.58901 0.0
C991 C 0.44657 0.66428 0.57757 0.0
C992 C 0.46729 0.66949 0.56514 0.0
C993 C 0.46847 0.66626 0.5426 0.0
C994 C 0.48809 0.67109 0.53102 0.0
C995 C 0.50661 0.67931 0.54177 0.0
C996 C 0.50555 0.6828 0.56411 0.0
C997 C 0.48597 0.67798 0.57577 0.0
H998 H 0.52179 0.68304 0.53277 0.0
H999 H 0.33195 0.63697 0.6463 0.0
H1000 H 0.86349 0.9073 0.70359 0.0
H1001 H 0.88083 0.92578 0.66968 0.0
H1002 H 0.94103 0.90032 0.68911 0.0
H1003 H 0.92381 0.88153 0.72283 0.0
H1004 H 0.94668 0.94656 0.67294 0.0
H1005 H 0.91068 0.87246 0.65131 0.0
H1006 H 0.87962 0.84254 0.64762 0.0
H1007 H 0.84719 0.89454 0.60995 0.0
H1008 H 0.87797 0.92488 0.61368 0.0
H1009 H 0.00476 0.96715 0.57241 0.0
H1010 H 0.98662 0.94889 0.60588 0.0
H1011 H 0.92557 0.96706 0.58122 0.0
H1012 H 0.94356 0.98411 0.54715 0.0
H1013 H 0.91974 0.92534 0.60043 0.0
H1014 H 0.95594 0.99967 0.62169 0.0
H1015 H 0.98737 0.0293 0.62491 0.0
H1016 H 0.01929 0.97737 0.66319 0.0
H1017 H 0.98816 0.94736 0.66002 0.0
C1018 C 0.88038 0.90546 0.70059 0.0
C1019 C 0.89222 0.89289 0.716 0.0
C1020 C 0.89029 0.91609 0.6812 0.0
C1021 C 0.91221 0.9143 0.67676 0.0
C1022 C 0.92413 0.90203 0.69221 0.0
C1023 C 0.91424 0.89137 0.71155 0.0
C1024 C 0.92279 0.92508 0.656 0.0
C1025 C 0.94091 0.94177 0.65707 0.0
C1026 C 0.91501 0.91925 0.63529 0.0
C1027 C 0.89653 0.90101 0.63298 0.0
C1028 C 0.89686 0.87757 0.6424 0.0
C1029 C 0.87931 0.86053 0.64027 0.0
C1030 C 0.86142 0.86665 0.62861 0.0
C1031 C 0.86105 0.88983 0.61901 0.0
C1032 C 0.87855 0.90695 0.62111 0.0
C1033 C 0.98746 0.96724 0.57413 0.0
C1034 C 0.9756 0.97719 0.55719 0.0
C1035 C 0.97709 0.95693 0.59336 0.0
C1036 C 0.95472 0.95708 0.59643 0.0
C1037 C 0.94284 0.96677 0.57937 0.0
C1038 C 0.95314 0.97656 0.5599 0.0
C1039 C 0.94368 0.94695 0.61727 0.0
C1040 C 0.92546 0.93033 0.61625 0.0
C1041 C 0.95132 0.95296 0.63805 0.0
C1042 C 0.96978 0.97122 0.64047 0.0
C1043 C 0.96969 0.99456 0.63074 0.0
C1044 C 0.98745 0.01141 0.63255 0.0
C1045 C 0.00534 0.00518 0.64418 0.0
C1046 C 0.00543 0.98215 0.65416 0.0
C1047 C 0.98772 0.96523 0.6524 0.0
H1048 H 0.01913 0.01818 0.64545 0.0
H1049 H 0.84785 0.85343 0.62698 0.0
H1050 H 0.63162 0.16449 0.20961 0.0
H1051 H 0.61546 0.14715 0.17755 0.0
H1052 H 0.59748 0.08082 0.21566 0.0
H1053 H 0.61361 0.09812 0.24791 0.0
H1054 H 0.6123 0.07295 0.17466 0.0
H1055 H 0.56059 0.11974 0.20573 0.0
H1056 H 0.54778 0.15592 0.22017 0.0
H1057 H 0.56213 0.19475 0.15818 0.0
H1058 H 0.57533 0.15887 0.14346 0.0
H1059 H 0.53473 0.02766 0.09908 0.0
H1060 H 0.55375 0.04086 0.13138 0.0
H1061 H 0.56983 0.11073 0.09864 0.0
H1062 H 0.55044 0.09786 0.06661 0.0
H1063 H 0.55529 0.11532 0.13817 0.0
H1064 H 0.60754 0.06873 0.10712 0.0
H1065 H 0.62059 0.03262 0.09273 0.0
H1066 H 0.60524 0.99343 0.15437 0.0
H1067 H 0.59185 0.02923 0.16904 0.0
C1068 C 0.62421 0.14622 0.2112 0.0
C1069 C 0.62369 0.13279 0.2314 0.0
C1070 C 0.61502 0.13631 0.19284 0.0
C1071 C 0.60493 0.11281 0.19428 0.0
C1072 C 0.60513 0.099 0.21417 0.0
C1073 C 0.6144 0.1089 0.23258 0.0
C1074 C 0.59352 0.10309 0.17522 0.0
C1075 C 0.59964 0.08203 0.16682 0.0
C1076 C 0.57722 0.11512 0.16479 0.0
C1077 C 0.56913 0.13667 0.17355 0.0
C1078 C 0.56116 0.13604 0.19522 0.0
C1079 C 0.5538 0.15649 0.20346 0.0
C1080 C 0.55418 0.17764 0.19012 0.0
C1081 C 0.56187 0.17836 0.1685 0.0
C1082 C 0.56927 0.15797 0.1602 0.0
C1083 C 0.54249 0.04577 0.0987 0.0
C1084 C 0.54104 0.06172 0.08027 0.0
C1085 C 0.55343 0.05328 0.11716 0.0
C1086 C 0.56341 0.07676 0.11743 0.0
C1087 C 0.56224 0.09255 0.09888 0.0
C1088 C 0.55117 0.08514 0.08054 0.0
C1089 C 0.57429 0.08536 0.13727 0.0
C1090 C 0.56797 0.1062 0.14593 0.0
C1091 C 0.59038 0.07311 0.14788 0.0
C1092 C 0.59849 0.05159 0.1391 0.0
C1093 C 0.6068 0.05236 0.11755 0.0
C1094 C 0.61428 0.03196 0.10935 0.0
C1095 C 0.61369 0.01072 0.12261 0.0
C1096 C 0.60567 0.00987 0.14411 0.0
C1097 C 0.59814 0.03022 0.15238 0.0
H1098 H 0.61949 0.99495 0.11623 0.0
H1099 H 0.54849 0.19345 0.19652 0.0
H1100 H 0.38557 0.6267 0.32597 0.0
H1101 H 0.40001 0.608 0.3589 0.0
H1102 H 0.44052 0.5693 0.31903 0.0
H1103 H 0.42597 0.58779 0.28601 0.0
H1104 H 0.42429 0.54086 0.35248 0.0
H1105 H 0.46036 0.62015 0.34419 0.0
H1106 H 0.46324 0.66424 0.33952 0.0
H1107 H 0.42856 0.66699 0.40035 0.0
H1108 H 0.42521 0.62287 0.40524 0.0
H1109 H 0.49938 0.51259 0.43464 0.0
H1110 H 0.48199 0.52807 0.40202 0.0
H1111 H 0.43782 0.56126 0.44258 0.0
H1112 H 0.45509 0.5459 0.47531 0.0
H1113 H 0.45556 0.5921 0.40907 0.0
H1114 H 0.42063 0.51206 0.41738 0.0
H1115 H 0.41898 0.46801 0.42176 0.0
H1116 H 0.45319 0.46684 0.36044 0.0
H1117 H 0.45531 0.51094 0.35584 0.0
C1118 C 0.3976 0.61425 0.32419 0.0
C1119 C 0.4047 0.60888 0.30331 0.0
C1120 C 0.40586 0.60356 0.34306 0.0
C1121 C 0.42166 0.58749 0.34153 0.0
C1122 C 0.42837 0.58163 0.3207 0.0
C1123 C 0.42 0.59219 0.30181 0.0
C1124 C 0.43139 0.5771 0.36159 0.0
C1125 C 0.43136 0.55211 0.36471 0.0
C1126 C 0.44032 0.59166 0.37783 0.0
C1127 C 0.44234 0.6182 0.37496 0.0
C1128 C 0.4532 0.63015 0.35649 0.0
C1129 C 0.45494 0.65515 0.35381 0.0
C1130 C 0.44604 0.66841 0.3696 0.0
C1131 C 0.43542 0.65669 0.38812 0.0
C1132 C 0.43361 0.63169 0.39086 0.0
C1133 C 0.48588 0.52305 0.43668 0.0
C1134 C 0.47868 0.52796 0.45769 0.0
C1135 C 0.4759 0.53183 0.41797 0.0
C1136 C 0.45851 0.54575 0.41982 0.0
C1137 C 0.45119 0.55056 0.44074 0.0
C1138 C 0.46105 0.54165 0.45946 0.0
C1139 C 0.44839 0.55591 0.39995 0.0
C1140 C 0.44842 0.58087 0.39686 0.0
C1141 C 0.43963 0.54134 0.38368 0.0
C1142 C 0.43831 0.51482 0.38637 0.0
C1143 C 0.42796 0.50243 0.40491 0.0
C1144 C 0.42691 0.47745 0.40742 0.0
C1145 C 0.43602 0.46464 0.39142 0.0
C1146 C 0.44616 0.47679 0.37284 0.0
C1147 C 0.44728 0.50177 0.37026 0.0
H1148 H 0.43519 0.4453 0.39339 0.0
H1149 H 0.4474 0.68776 0.3675 0.0
H1150 H 0.10187 0.436 0.7908 0.0
H1151 H 0.084 0.45223 0.82161 0.0
H1152 H 0.12024 0.41072 0.86661 0.0
H1153 H 0.13788 0.39413 0.83583 0.0
H1154 H 0.08053 0.40891 0.88114 0.0
H1155 H 0.13328 0.47193 0.85467 0.0
H1156 H 0.1526 0.50073 0.82735 0.0
H1157 H 0.09439 0.53368 0.81506 0.0
H1158 H 0.07463 0.50484 0.84211 0.0
H1159 H 0.06441 0.47319 0.975 0.0
H1160 H 0.08184 0.45842 0.94328 0.0
H1161 H 0.03572 0.4889 0.90116 0.0
H1162 H 0.0179 0.50356 0.93291 0.0
H1163 H 0.0799 0.49672 0.88523 0.0
H1164 H 0.02779 0.43256 0.91316 0.0
H1165 H 0.01021 0.40431 0.942 0.0
H1166 H 0.06996 0.37412 0.95314 0.0
H1167 H 0.08798 0.40245 0.92456 0.0
C1168 C 0.10607 0.43039 0.80726 0.0
C1169 C 0.12136 0.41386 0.81087 0.0
C1170 C 0.09587 0.43972 0.82488 0.0
C1171 C 0.10101 0.43303 0.84649 0.0
C1172 C 0.11599 0.41619 0.85012 0.0
C1173 C 0.12605 0.40668 0.83251 0.0
C1174 C 0.09079 0.44358 0.86528 0.0
C1175 C 0.08066 0.42812 0.88211 0.0
C1176 C 0.0906 0.46866 0.8665 0.0
C1177 C 0.10243 0.48606 0.85025 0.0
C1178 C 0.12456 0.48519 0.84602 0.0
C1179 C 0.13559 0.50154 0.8306 0.0
C1180 C 0.12472 0.51898 0.81943 0.0
C1181 C 0.10279 0.52014 0.8237 0.0
C1182 C 0.09166 0.50381 0.83908 0.0
C1183 C 0.058 0.47695 0.95903 0.0
C1184 C 0.03962 0.48945 0.9566 0.0
C1185 C 0.06798 0.46842 0.9409 0.0
C1186 C 0.05994 0.47238 0.91992 0.0
C1187 C 0.04213 0.48562 0.91725 0.0
C1188 C 0.03195 0.49392 0.93543 0.0
C1189 C 0.06977 0.46203 0.90091 0.0
C1190 C 0.0798 0.47752 0.88412 0.0
C1191 C 0.07013 0.43701 0.89987 0.0
C1192 C 0.05927 0.41977 0.91687 0.0
C1193 C 0.03722 0.42002 0.92188 0.0
C1194 C 0.02716 0.40397 0.93815 0.0
C1195 C 0.03897 0.38747 0.94943 0.0
C1196 C 0.06084 0.38693 0.94441 0.0
C1197 C 0.07098 0.40296 0.92816 0.0
H1198 H 0.03116 0.37506 0.96204 0.0
H1199 H 0.13329 0.53163 0.8075 0.0
H1200 H 0.73861 0.93378 0.88068 0.0
H1201 H 0.70772 0.94577 0.90083 0.0
H1202 H 0.67166 0.8785 0.88962 0.0
H1203 H 0.70244 0.86657 0.86894 0.0
H1204 H 0.64772 0.91566 0.88183 0.0
H1205 H 0.69111 0.88846 0.93966 0.0
H1206 H 0.72419 0.88568 0.96057 0.0
H1207 H 0.72666 0.96054 0.97155 0.0
H1208 H 0.69374 0.96387 0.95042 0.0
H1209 H 0.56201 0.93626 0.95475 0.0
H1210 H 0.59203 0.91833 0.93812 0.0
H1211 H 0.6337 0.98278 0.94615 0.0
H1212 H 0.60389 1.00071 0.96301 0.0
H1213 H 0.6539 0.94362 0.95679 0.0
H1214 H 0.61185 0.97108 0.89676 0.0
H1215 H 0.57878 0.97376 0.87577 0.0
H1216 H 0.57381 0.89788 0.86909 0.0
H1217 H 0.60671 0.89471 0.8903 0.0
C1218 C 0.72409 0.92155 0.88241 0.0
C1219 C 0.72302 0.89921 0.87315 0.0
C1220 C 0.70649 0.92835 0.89412 0.0
C1221 C 0.6874 0.91295 0.89695 0.0
C1222 C 0.68624 0.89064 0.88773 0.0
C1223 C 0.7039 0.88378 0.87605 0.0
C1224 C 0.66857 0.92051 0.90909 0.0
C1225 C 0.64897 0.92137 0.89837 0.0
C1226 C 0.67026 0.92837 0.93053 0.0
C1227 C 0.69005 0.92645 0.94329 0.0
C1228 C 0.6988 0.90438 0.94638 0.0
C1229 C 0.7175 0.9027 0.9583 0.0
C1230 C 0.72755 0.92293 0.96734 0.0
C1231 C 0.71887 0.94489 0.96452 0.0
C1232 C 0.70018 0.94668 0.95259 0.0
C1233 C 0.57759 0.94658 0.95311 0.0
C1234 C 0.58049 0.97 0.96015 0.0
C1235 C 0.59473 0.93633 0.9435 0.0
C1236 C 0.61509 0.9493 0.94062 0.0
C1237 C 0.61815 0.97242 0.94816 0.0
C1238 C 0.60104 0.98268 0.95775 0.0
C1239 C 0.63315 0.93907 0.92942 0.0
C1240 C 0.65261 0.93772 0.94032 0.0
C1241 C 0.63132 0.93073 0.90815 0.0
C1242 C 0.6116 0.93262 0.89532 0.0
C1243 C 0.60361 0.95494 0.89096 0.0
C1244 C 0.58491 0.95655 0.879 0.0
C1245 C 0.57416 0.93599 0.87116 0.0
C1246 C 0.58213 0.91378 0.87521 0.0
C1247 C 0.60081 0.91207 0.88718 0.0
H1248 H 0.55969 0.93728 0.8619 0.0
H1249 H 0.74203 0.92159 0.97657 0.0
H1250 H 0.77612 0.11693 0.41202 0.0
H1251 H 0.80856 0.10384 0.429 0.0
H1252 H 0.8371 0.09804 0.36515 0.0
H1253 H 0.80485 0.11113 0.34813 0.0
H1254 H 0.84185 0.0592 0.39079 0.0
H1255 H 0.85339 0.14419 0.3974 0.0
H1256 H 0.84428 0.18353 0.40831 0.0
H1257 H 0.84022 0.15703 0.47567 0.0
H1258 H 0.84903 0.11741 0.46512 0.0
H1259 H 0.94914 0.04632 0.41727 0.0
H1260 H 0.91742 0.06407 0.40365 0.0
H1261 H 0.89123 0.0623 0.46941 0.0
H1262 H 0.92306 0.0445 0.48328 0.0
H1263 H 0.88452 0.10438 0.44476 0.0
H1264 H 0.87359 0.01966 0.43809 0.0
H1265 H 0.88315 0.9805 0.42717 0.0
H1266 H 0.88607 0.00671 0.35974 0.0
H1267 H 0.87684 0.04617 0.37029 0.0
C1268 C 0.78941 0.11316 0.4016 0.0
C1269 C 0.78781 0.11498 0.3787 0.0
C1270 C 0.80796 0.10565 0.41133 0.0
C1271 C 0.82536 0.10004 0.39836 0.0
C1272 C 0.82387 0.10213 0.37552 0.0
C1273 C 0.80537 0.10955 0.3658 0.0
C1274 C 0.84488 0.09122 0.40844 0.0
C1275 C 0.8513 0.06927 0.40237 0.0
C1276 C 0.85693 0.10396 0.42407 0.0
C1277 C 0.85164 0.12776 0.43044 0.0
C1278 C 0.85037 0.14669 0.41452 0.0
C1279 C 0.8453 0.16905 0.42064 0.0
C1280 C 0.84161 0.17276 0.44266 0.0
C1281 C 0.84304 0.15412 0.45861 0.0
C1282 C 0.84809 0.13171 0.45257 0.0
C1283 C 0.93676 0.04988 0.42892 0.0
C1284 C 0.93856 0.04373 0.45137 0.0
C1285 C 0.91859 0.06 0.42108 0.0
C1286 C 0.9018 0.06417 0.43547 0.0
C1287 C 0.90397 0.05915 0.45801 0.0
C1288 C 0.92215 0.04893 0.46589 0.0
C1289 C 0.88159 0.07262 0.42678 0.0
C1290 C 0.87501 0.09437 0.43318 0.0
C1291 C 0.86935 0.05972 0.41143 0.0
C1292 C 0.87472 0.03594 0.40501 0.0
C1293 C 0.87643 0.01713 0.42095 0.0
C1294 C 0.88177 0.99487 0.41482 0.0
C1295 C 0.88527 0.99113 0.39278 0.0
C1296 C 0.88338 0.00964 0.37681 0.0
C1297 C 0.87808 0.03195 0.38285 0.0
H1298 H 0.8894 0.97389 0.38807 0.0
H1299 H 0.83769 0.19008 0.44737 0.0
H1300 H 0.21716 0.59545 0.17836 0.0
H1301 H 0.18484 0.58272 0.15873 0.0
H1302 H 0.22204 0.58754 0.09832 0.0
H1303 H 0.25456 0.60026 0.11791 0.0
H1304 H 0.18341 0.60527 0.09235 0.0
H1305 H 0.20795 0.53352 0.12511 0.0
H1306 H 0.2201 0.50713 0.1551 0.0
H1307 H 0.1597 0.50857 0.1895 0.0
H1308 H 0.1473 0.53526 0.15984 0.0
H1309 H 0.10181 0.53599 0.03542 0.0
H1310 H 0.13534 0.55238 0.05137 0.0
H1311 H 0.10393 0.54696 0.11505 0.0
H1312 H 0.07066 0.53027 0.09937 0.0
H1313 H 0.14113 0.52888 0.11755 0.0
H1314 H 0.1169 0.60155 0.0852 0.0
H1315 H 0.10487 0.62815 0.0553 0.0
H1316 H 0.1645 0.62488 0.02001 0.0
H1317 H 0.17678 0.598 0.04959 0.0
C1318 C 0.21853 0.59369 0.16092 0.0
C1319 C 0.23855 0.59865 0.14978 0.0
C1320 C 0.2 0.58646 0.14969 0.0
C1321 C 0.20103 0.5838 0.12708 0.0
C1322 C 0.22083 0.58942 0.11576 0.0
C1323 C 0.23942 0.59674 0.127 0.0
C1324 C 0.1815 0.57459 0.11546 0.0
C1325 C 0.17432 0.58841 0.09766 0.0
C1326 C 0.16942 0.55275 0.12254 0.0
C1327 C 0.17677 0.53656 0.14034 0.0
C1328 C 0.19732 0.52834 0.13914 0.0
C1329 C 0.20424 0.51331 0.15607 0.0
C1330 C 0.1907 0.50622 0.17422 0.0
C1331 C 0.17018 0.5141 0.17544 0.0
C1332 C 0.16319 0.52916 0.15857 0.0
C1333 C 0.102 0.53853 0.05278 0.0
C1334 C 0.08354 0.53174 0.06611 0.0
C1335 C 0.12118 0.54797 0.06188 0.0
C1336 C 0.1222 0.55102 0.08445 0.0
C1337 C 0.10363 0.54471 0.09763 0.0
C1338 C 0.08456 0.5352 0.0886 0.0
C1339 C 0.14273 0.55975 0.09466 0.0
C1340 C 0.15019 0.54575 0.11218 0.0
C1341 C 0.15501 0.58139 0.08729 0.0
C1342 C 0.14766 0.59755 0.0695 0.0
C1343 C 0.12738 0.60634 0.07098 0.0
C1344 C 0.12052 0.6215 0.05411 0.0
C1345 C 0.13388 0.62814 0.03574 0.0
C1346 C 0.15415 0.61969 0.03423 0.0
C1347 C 0.16107 0.60451 0.05106 0.0
H1348 H 0.12855 0.63988 0.0227 0.0
H1349 H 0.19609 0.49458 0.18731 0.0
H1350 H 0.29798 0.36842 0.66964 0.0
H1351 H 0.33177 0.38672 0.65231 0.0
H1352 H 0.29634 0.43131 0.60925 0.0
H1353 H 0.26245 0.41282 0.62629 0.0
H1354 H 0.32749 0.41 0.5873 0.0
H1355 H 0.32251 0.45508 0.65094 0.0
H1356 H 0.31827 0.46049 0.69033 0.0
H1357 H 0.37501 0.4249 0.70306 0.0
H1358 H 0.37942 0.41898 0.66376 0.0
H1359 H 0.41582 0.48975 0.54467 0.0
H1360 H 0.38197 0.47124 0.5615 0.0
H1361 H 0.41719 0.43271 0.60972 0.0
H1362 H 0.45109 0.45177 0.59338 0.0
H1363 H 0.38581 0.45086 0.62907 0.0
H1364 H 0.3911 0.40509 0.56625 0.0
H1365 H 0.39558 0.39854 0.5271 0.0
H1366 H 0.33885 0.43363 0.51302 0.0
H1367 H 0.33418 0.44068 0.55206 0.0
C1368 C 0.29739 0.38211 0.65647 0.0
C1369 C 0.27754 0.3892 0.64936 0.0
C1370 C 0.31671 0.39266 0.64668 0.0
C1371 C 0.31657 0.41048 0.62957 0.0
C1372 C 0.2968 0.41762 0.62245 0.0
C1373 C 0.27748 0.40719 0.63232 0.0
C1374 C 0.33705 0.42135 0.61885 0.0
C1375 C 0.34016 0.41923 0.59635 0.0
C1376 C 0.35377 0.43278 0.63079 0.0
C1377 C 0.35117 0.43638 0.65443 0.0
C1378 C 0.33398 0.44823 0.66216 0.0
C1379 C 0.33157 0.45142 0.68447 0.0
C1380 C 0.34633 0.44299 0.6992 0.0
C1381 C 0.36357 0.4314 0.69164 0.0
C1382 C 0.36605 0.42814 0.66935 0.0
C1383 C 0.41637 0.47715 0.55873 0.0
C1384 C 0.43616 0.4722 0.56767 0.0
C1385 C 0.39698 0.46651 0.56831 0.0
C1386 C 0.39697 0.45034 0.58678 0.0
C1387 C 0.41674 0.44514 0.59552 0.0
C1388 C 0.43613 0.45599 0.58611 0.0
C1389 C 0.37638 0.43949 0.59744 0.0
C1390 C 0.37321 0.44161 0.61996 0.0
C1391 C 0.35967 0.42788 0.58553 0.0
C1392 C 0.36241 0.42362 0.56205 0.0
C1393 C 0.37967 0.41157 0.55478 0.0
C1394 C 0.38223 0.40774 0.53261 0.0
C1395 C 0.36754 0.41572 0.51757 0.0
C1396 C 0.35023 0.42749 0.52468 0.0
C1397 C 0.3476 0.43139 0.54683 0.0
H1398 H 0.36955 0.41273 0.50042 0.0
H1399 H 0.34444 0.44548 0.71647 0.0
H1400 H 0.89721 0.74533 0.88082 0.0
H1401 H 0.91598 0.71168 0.89529 0.0
H1402 H 0.85512 0.66902 0.90668 0.0
H1403 H 0.83629 0.70244 0.89212 0.0
H1404 H 0.87957 0.66657 0.94194 0.0
H1405 H 0.88966 0.65917 0.86467 0.0
H1406 H 0.90115 0.67313 0.82692 0.0
H1407 H 0.96627 0.68725 0.84733 0.0
H1408 H 0.95511 0.67367 0.88529 0.0
H1409 H 0.91191 0.55246 0.96581 0.0
H1410 H 0.89697 0.58673 0.94772 0.0
H1411 H 0.96087 0.62288 0.93748 0.0
H1412 H 0.97609 0.58802 0.95508 0.0
H1413 H 0.93705 0.63043 0.90226 0.0
H1414 H 0.92739 0.63717 0.9792 0.0
H1415 H 0.91619 0.62306 0.017 0.0
H1416 H 0.85062 0.61074 0.99741 0.0
H1417 H 0.86148 0.6245 0.95942 0.0
C1418 C 0.88783 0.72867 0.8861 0.0
C1419 C 0.86521 0.72665 0.88539 0.0
C1420 C 0.8986 0.70944 0.89441 0.0
C1421 C 0.88697 0.68776 0.90202 0.0
C1422 C 0.86443 0.6856 0.90102 0.0
C1423 C 0.85368 0.70478 0.89275 0.0
C1424 C 0.8981 0.66756 0.91184 0.0
C1425 C 0.89196 0.65851 0.93314 0.0
C1426 C 0.91478 0.65751 0.90067 0.0
C1427 C 0.92151 0.66565 0.87786 0.0
C1428 C 0.9064 0.66545 0.86114 0.0
C1429 C 0.91286 0.67325 0.8397 0.0
C1430 C 0.93442 0.68114 0.83474 0.0
C1431 C 0.94957 0.68118 0.8512 0.0
C1432 C 0.94319 0.67341 0.87268 0.0
C1433 C 0.92285 0.56767 0.95972 0.0
C1434 C 0.9452 0.56765 0.96214 0.0
C1435 C 0.91425 0.58732 0.94941 0.0
C1436 C 0.92773 0.60767 0.94168 0.0
C1437 C 0.95013 0.60745 0.94345 0.0
C1438 C 0.95881 0.58757 0.95355 0.0
C1439 C 0.91824 0.62922 0.93221 0.0
C1440 C 0.92473 0.63858 0.91107 0.0
C1441 C 0.90191 0.63968 0.94354 0.0
C1442 C 0.89528 0.63172 0.96644 0.0
C1443 C 0.9106 0.63134 0.98294 0.0
C1444 C 0.90431 0.62341 0.00439 0.0
C1445 C 0.88271 0.61597 0.00959 0.0
C1446 C 0.86735 0.61651 0.99335 0.0
C1447 C 0.87355 0.6244 0.97186 0.0
H1448 H 0.87788 0.60982 0.02621 0.0
H1449 H 0.93938 0.68717 0.81813 0.0
H1450 H 0.42981 0.76773 0.13616 0.0
H1451 H 0.44937 0.80427 0.11906 0.0
H1452 H 0.39054 0.82478 0.09096 0.0
H1453 H 0.37093 0.78846 0.10802 0.0
H1454 H 0.42219 0.83154 0.06118 0.0
H1455 H 0.41208 0.85156 0.13534 0.0
H1456 H 0.41425 0.84629 0.17545 0.0
H1457 H 0.48318 0.85009 0.16991 0.0
H1458 H 0.4814 0.85506 0.12972 0.0
H1459 H 0.47045 0.96421 0.06427 0.0
H1460 H 0.45311 0.92743 0.08287 0.0
H1461 H 0.48372 0.88564 0.03691 0.0
H1462 H 0.50053 0.92238 0.01775 0.0
H1463 H 0.46589 0.88967 0.10381 0.0
H1464 H 0.45164 0.83616 0.02744 0.0
H1465 H 0.44792 0.84396 0.98769 0.0
H1466 H 0.42276 0.91078 0.99848 0.0
H1467 H 0.42609 0.90325 0.03831 0.0
C1468 C 0.421 0.78014 0.12653 0.0
C1469 C 0.39879 0.77508 0.12344 0.0
C1470 C 0.43222 0.80101 0.1167 0.0
C1471 C 0.42143 0.81738 0.10375 0.0
C1472 C 0.39927 0.81239 0.10073 0.0
C1473 C 0.38807 0.79155 0.11048 0.0
C1474 C 0.43314 0.83965 0.09323 0.0
C1475 C 0.43177 0.84421 0.07052 0.0
C1476 C 0.44546 0.85641 0.10537 0.0
C1477 C 0.44659 0.85343 0.12952 0.0
C1478 C 0.42769 0.85108 0.14267 0.0
C1479 C 0.42885 0.84818 0.16541 0.0
C1480 C 0.44884 0.84779 0.17522 0.0
C1481 C 0.46771 0.85035 0.16229 0.0
C1482 C 0.46663 0.85323 0.13953 0.0
C1483 C 0.47359 0.9472 0.05814 0.0
C1484 C 0.48675 0.9463 0.03936 0.0
C1485 C 0.46368 0.92615 0.06886 0.0
C1486 C 0.46679 0.90371 0.06113 0.0
C1487 C 0.48065 0.90272 0.04292 0.0
C1488 C 0.49033 0.92378 0.03202 0.0
C1489 C 0.45503 0.88149 0.07175 0.0
C1490 C 0.4564 0.87694 0.09446 0.0
C1491 C 0.44233 0.86498 0.05967 0.0
C1492 C 0.43934 0.86923 0.03583 0.0
C1493 C 0.44517 0.85243 0.02134 0.0
C1494 C 0.44317 0.85683 0.9988 0.0
C1495 C 0.43523 0.87792 0.99057 0.0
C1496 C 0.42901 0.89452 0.00488 0.0
C1497 C 0.43096 0.89019 0.02743 0.0
H1498 H 0.43392 0.8814 0.97311 0.0
H1499 H 0.44971 0.84555 0.19283 0.0
H1500 H 0.13966 0.22241 0.65759 0.0
H1501 H 0.12899 0.18951 0.63471 0.0
H1502 H 0.06238 0.20221 0.64294 0.0
H1503 H 0.07293 0.23541 0.66565 0.0
H1504 H 0.06769 0.15456 0.64717 0.0
H1505 H 0.08921 0.22098 0.59601 0.0
H1506 H 0.11343 0.25497 0.57969 0.0
H1507 H 0.16126 0.20747 0.56636 0.0
H1508 H 0.13743 0.17322 0.5829 0.0
H1509 H 0.03001 0.08054 0.56307 0.0
H1510 H 0.03803 0.11463 0.58546 0.0
H1511 H 0.10605 0.10962 0.57575 0.0
H1512 H 0.09817 0.0761 0.55286 0.0
H1513 H 0.09843 0.15447 0.57194 0.0
H1514 H 0.07723 0.08806 0.62413 0.0
H1515 H 0.05302 0.05419 0.64077 0.0
H1516 H 0.00465 0.10157 0.65238 0.0
H1517 H 0.02844 0.13567 0.63552 0.0
C1518 C 0.12274 0.21837 0.6544 0.0
C1519 C 0.10717 0.2317 0.66336 0.0
C1520 C 0.11666 0.19949 0.64137 0.0
C1521 C 0.0949 0.19358 0.6369 0.0
C1522 C 0.07926 0.20647 0.64618 0.0
C1523 C 0.08533 0.22539 0.65922 0.0
C1524 C 0.08854 0.17405 0.62241 0.0
C1525 C 0.07417 0.15466 0.63061 0.0
C1526 C 0.09728 0.17402 0.60093 0.0
C1527 C 0.11161 0.19457 0.59088 0.0
C1528 C 0.10496 0.21781 0.58975 0.0
C1529 C 0.11861 0.23712 0.58044 0.0
C1530 C 0.13889 0.2334 0.57204 0.0
C1531 C 0.14555 0.21033 0.57289 0.0
C1532 C 0.13197 0.19096 0.58222 0.0
C1533 C 0.04668 0.08676 0.56566 0.0
C1534 C 0.06345 0.07557 0.55621 0.0
C1535 C 0.05124 0.10617 0.57857 0.0
C1536 C 0.07266 0.11451 0.5826 0.0
C1537 C 0.0894 0.10354 0.57292 0.0
C1538 C 0.08486 0.08432 0.55984 0.0
C1539 C 0.07777 0.13471 0.59677 0.0
C1540 C 0.09189 0.15431 0.58848 0.0
C1541 C 0.06882 0.13489 0.61818 0.0
C1542 C 0.05454 0.11438 0.62836 0.0
C1543 C 0.06136 0.09122 0.63008 0.0
C1544 C 0.04773 0.07199 0.63957 0.0
C1545 C 0.02729 0.07573 0.64758 0.0
C1546 C 0.02047 0.0987 0.64614 0.0
C1547 C 0.03402 0.11799 0.63663 0.0
H1548 H 0.01676 0.06085 0.65497 0.0
H1549 H 0.14944 0.24837 0.56483 0.0
H1550 H 0.66342 0.30865 0.38577 0.0
H1551 H 0.64616 0.34214 0.3996 0.0
H1552 H 0.59376 0.29309 0.42706 0.0
H1553 H 0.61094 0.2594 0.41315 0.0
H1554 H 0.58064 0.33582 0.40493 0.0
H1555 H 0.62979 0.3124 0.4602 0.0
H1556 H 0.66507 0.30271 0.47372 0.0
H1557 H 0.69303 0.37321 0.45191 0.0
H1558 H 0.65797 0.3832 0.43796 0.0
H1559 H 0.53791 0.42109 0.47165 0.0
H1560 H 0.55092 0.38541 0.45693 0.0
H1561 H 0.61274 0.42502 0.44177 0.0
H1562 H 0.60018 0.46001 0.45754 0.0
H1563 H 0.6197 0.38478 0.45875 0.0
H1564 H 0.57269 0.40876 0.40199 0.0
H1565 H 0.53851 0.41945 0.38639 0.0
H1566 H 0.50777 0.35015 0.40818 0.0
H1567 H 0.54172 0.33915 0.42415 0.0
C1568 C 0.6481 0.305 0.39453 0.0
C1569 C 0.63857 0.28137 0.39842 0.0
C1570 C 0.63831 0.32414 0.40252 0.0
C1571 C 0.61875 0.32008 0.41447 0.0
C1572 C 0.60886 0.2966 0.41789 0.0
C1573 C 0.61877 0.27738 0.41008 0.0
C1574 C 0.6091 0.34032 0.42404 0.0
C1575 C 0.58899 0.34639 0.41692 0.0
C1576 C 0.62026 0.35437 0.43929 0.0
C1577 C 0.6413 0.34847 0.44787 0.0
C1578 C 0.6435 0.32577 0.45814 0.0
C1579 C 0.66345 0.32024 0.46591 0.0
C1580 C 0.68129 0.33732 0.46363 0.0
C1581 C 0.6792 0.35999 0.45364 0.0
C1582 C 0.65929 0.36561 0.44582 0.0
C1583 C 0.55422 0.42212 0.46507 0.0
C1584 C 0.56805 0.44329 0.4658 0.0
C1585 C 0.56164 0.40177 0.45653 0.0
C1586 C 0.58281 0.40245 0.44797 0.0
C1587 C 0.59641 0.42384 0.44835 0.0
C1588 C 0.58918 0.44391 0.45732 0.0
C1589 C 0.59128 0.38084 0.43936 0.0
C1590 C 0.61121 0.37434 0.44676 0.0
C1591 C 0.58008 0.36668 0.4241 0.0
C1592 C 0.55968 0.37323 0.41446 0.0
C1593 C 0.5586 0.39587 0.40359 0.0
C1594 C 0.53928 0.40197 0.39466 0.0
C1595 C 0.52097 0.38552 0.39635 0.0
C1596 C 0.52196 0.36289 0.40691 0.0
C1597 C 0.54124 0.3567 0.41589 0.0
H1598 H 0.50602 0.39028 0.38943 0.0
H1599 H 0.69672 0.333 0.46965 0.0
loop_
_geom_bond_atom_site_label_1
_geom_bond_atom_site_label_2
_geom_bond_distance
_geom_bond_site_symmetry_2
_ccdc_geom_bond_type
C0 C1 1.264 . S
C0 C5 1.479 . S
C0 C10 1.465 . S
C1 C0 1.264 . S
C1 C3 1.339 . S
C1 H28 0.931 . S
C2 C3 1.395 . S
C2 C4 1.320 . S
C3 C1 1.339 . S
C3 C2 1.395 . S
C3 H29 0.929 . S
C4 C2 1.320 . S
C4 C5 1.405 . S
C4 H30 0.930 . S
C5 C0 1.479 . S
C5 C4 1.405 . S
C5 H31 0.931 . S
U6 O7 2.454 . S
U6 O8 2.458 . S
U6 C9 2.984 . S
U6 C10 2.847 . S
U6 C23 2.882 . S
U6 O24 2.441 . S
U6 O25 2.420 . S
U6 O26 2.455 . S
U6 O27 2.449 . S
O7 U6 2.454 . S
O7 C9 1.353 . S
O8 U6 2.458 . S
O8 C9 1.286 . S
C9 U6 2.984 . S
C9 O7 1.353 . S
C9 O8 1.286 . S
C9 C11 1.363 . S
C10 C0 1.465 . S
C10 U6 2.847 . S
C10 O24 1.249 . S
C10 O25 1.202 . S
C11 C9 1.363 . S
C11 C13 1.408 . S
C11 C16 1.342 . S
C12 C13 1.310 . S
C12 C15 1.461 . S
C12 H32 0.932 . S
C13 C11 1.408 . S
C13 C12 1.310 . S
C13 H33 0.930 . S
C14 C15 1.474 . S
C14 C16 1.285 . S
C14 H34 0.929 . S
C15 C12 1.461 . S
C15 C14 1.474 . S
C16 C11 1.342 . S
C16 C14 1.285 . S
C16 H35 0.930 . S
C17 C20 1.424 . S
C17 C22 1.245 . S
C17 C23 1.428 . S
C18 C21 1.260 . S
C18 C22 1.477 . S
C18 H36 0.932 . S
C19 C20 1.384 . S
C19 C21 1.479 . S
C19 H37 0.929 . S
C20 C17 1.424 . S
C20 C19 1.384 . S
C20 H38 0.928 . S
C21 C18 1.260 . S
C21 C19 1.479 . S
C22 C17 1.245 . S
C22 C18 1.477 . S
C22 H39 0.932 . S
C23 U6 2.882 . S
C23 C17 1.428 . S
C23 O26 1.301 . S
C23 O27 1.282 . S
O24 U6 2.441 . S
O24 C10 1.249 . S
O25 U6 2.420 . S
O25 C10 1.202 . S
O26 U6 2.455 . S
O26 C23 1.301 . S
O27 U6 2.449 . S
O27 C23 1.282 . S
H28 C1 0.931 . S
H29 C3 0.929 . S
H30 C4 0.930 . S
H31 C5 0.931 . S
H32 C12 0.932 . S
H33 C13 0.930 . S
H34 C14 0.929 . S
H35 C16 0.930 . S
H36 C18 0.932 . S
H37 C19 0.929 . S
H38 C20 0.928 . S
H39 C22 0.932 . S
C40 C41 1.264 . S
C40 C45 1.479 . S
C40 C50 1.465 . S
C41 C40 1.264 . S
C41 C43 1.339 . S
C41 H68 0.931 . S
C42 C43 1.395 . S
C42 C44 1.320 . S
C43 C41 1.339 . S
C43 C42 1.395 . S
C43 H69 0.929 . S
C44 C42 1.320 . S
C44 C45 1.405 . S
C44 H70 0.930 . S
C45 C40 1.479 . S
C45 C44 1.405 . S
C45 H71 0.931 . S
U46 O47 2.454 . S
U46 O48 2.458 . S
U46 C49 2.984 . S
U46 C50 2.847 . S
U46 C63 2.882 . S
U46 O64 2.441 . S
U46 O65 2.420 . S
U46 O66 2.455 . S
U46 O67 2.449 . S
O47 U46 2.454 . S
O47 C49 1.353 . S
O48 U46 2.458 . S
O48 C49 1.286 . S
C49 U46 2.984 . S
C49 O47 1.353 . S
C49 O48 1.286 . S
C49 C51 1.363 . S
C50 C40 1.465 . S
C50 U46 2.847 . S
C50 O64 1.249 . S
C50 O65 1.202 . S
C51 C49 1.363 . S
C51 C53 1.408 . S
C51 C56 1.342 . S
C52 C53 1.310 . S
C52 C55 1.461 . S
C52 H72 0.932 . S
C53 C51 1.408 . S
C53 C52 1.310 . S
C53 H73 0.930 . S
C54 C55 1.474 . S
C54 C56 1.285 . S
C54 H74 0.929 . S
C55 C52 1.461 . S
C55 C54 1.474 . S
C56 C51 1.342 . S
C56 C54 1.285 . S
C56 H75 0.930 . S
C57 C60 1.424 . S
C57 C62 1.245 . S
C57 C63 1.428 . S
C58 C61 1.260 . S
C58 C62 1.477 . S
C58 H76 0.932 . S
C59 C60 1.384 . S
C59 C61 1.479 . S
C59 H77 0.929 . S
C60 C57 1.424 . S
C60 C59 1.384 . S
C60 H78 0.928 . S
C61 C58 1.260 . S
C61 C59 1.479 . S
C62 C57 1.245 . S
C62 C58 1.477 . S
C62 H79 0.932 . S
C63 U46 2.882 . S
C63 C57 1.428 . S
C63 O66 1.301 . S
C63 O67 1.282 . S
O64 U46 2.441 . S
O64 C50 1.249 . S
O65 U46 2.420 . S
O65 C50 1.202 . S
O66 U46 2.455 . S
O66 C63 1.301 . S
O67 U46 2.449 . S
O67 C63 1.282 . S
H68 C41 0.931 . S
H69 C43 0.929 . S
H70 C44 0.930 . S
H71 C45 0.931 . S
H72 C52 0.932 . S
H73 C53 0.930 . S
H74 C54 0.929 . S
H75 C56 0.930 . S
H76 C58 0.932 . S
H77 C59 0.929 . S
H78 C60 0.928 . S
H79 C62 0.932 . S
C80 C81 1.264 . S
C80 C85 1.479 . S
C80 C90 1.465 . S
C81 C80 1.264 . S
C81 C83 1.339 . S
C81 H108 0.931 . S
C82 C83 1.395 . S
C82 C84 1.320 . S
C83 C81 1.339 . S
C83 C82 1.395 . S
C83 H109 0.929 . S
C84 C82 1.320 . S
C84 C85 1.405 . S
C84 H110 0.930 . S
C85 C80 1.479 . S
C85 C84 1.405 . S
C85 H111 0.931 . S
U86 O87 2.454 . S
U86 O88 2.458 . S
U86 C89 2.984 . S
U86 C90 2.847 . S
U86 C103 2.882 . S
U86 O104 2.441 . S
U86 O105 2.420 . S
U86 O106 2.455 . S
U86 O107 2.449 . S
O87 U86 2.454 . S
O87 C89 1.353 . S
O88 U86 2.458 . S
O88 C89 1.286 . S
C89 U86 2.984 . S
C89 O87 1.353 . S
C89 O88 1.286 . S
C89 C91 1.363 . S
C90 C80 1.465 . S
C90 U86 2.847 . S
C90 O104 1.249 . S
C90 O105 1.202 . S
C91 C89 1.363 . S
C91 C93 1.408 . S
C91 C96 1.342 . S
C92 C93 1.310 . S
C92 C95 1.461 . S
C92 H112 0.932 . S
C93 C91 1.408 . S
C93 C92 1.310 . S
C93 H113 0.930 . S
C94 C95 1.474 . S
C94 C96 1.285 . S
C94 H114 0.929 . S
C95 C92 1.461 . S
C95 C94 1.474 . S
C96 C91 1.342 . S
C96 C94 1.285 . S
C96 H115 0.930 . S
C97 C100 1.424 . S
C97 C102 1.245 . S
C97 C103 1.428 . S
C98 C101 1.260 . S
C98 C102 1.477 . S
C98 H116 0.932 . S
C99 C100 1.384 . S
C99 C101 1.479 . S
C99 H117 0.929 . S
C100 C97 1.424 . S
C100 C99 1.384 . S
C100 H118 0.928 . S
C101 C98 1.260 . S
C101 C99 1.479 . S
C102 C97 1.245 . S
C102 C98 1.477 . S
C102 H119 0.932 . S
C103 U86 2.882 . S
C103 C97 1.428 . S
C103 O106 1.301 . S
C103 O107 1.282 . S
O104 U86 2.441 . S
O104 C90 1.249 . S
O105 U86 2.420 . S
O105 C90 1.202 . S
O106 U86 2.455 . S
O106 C103 1.301 . S
O107 U86 2.449 . S
O107 C103 1.282 . S
H108 C81 0.931 . S
H109 C83 0.929 . S
H110 C84 0.930 . S
H111 C85 0.931 . S
H112 C92 0.932 . S
H113 C93 0.930 . S
H114 C94 0.929 . S
H115 C96 0.930 . S
H116 C98 0.932 . S
H117 C99 0.929 . S
H118 C100 0.928 . S
H119 C102 0.932 . S
C120 C121 1.264 . S
C120 C125 1.479 . S
C120 C130 1.465 . S
C121 C120 1.264 . S
C121 C123 1.339 . S
C121 H148 0.931 . S
C122 C123 1.395 . S
C122 C124 1.320 . S
C123 C121 1.339 . S
C123 C122 1.395 . S
C123 H149 0.929 . S
C124 C122 1.320 . S
C124 C125 1.405 . S
C124 H150 0.930 . S
C125 C120 1.479 . S
C125 C124 1.405 . S
C125 H151 0.931 . S
U126 O127 2.454 . S
U126 O128 2.458 . S
U126 C129 2.984 . S
U126 C130 2.847 . S
U126 C143 2.882 . S
U126 O144 2.441 . S
U126 O145 2.420 . S
U126 O146 2.455 . S
U126 O147 2.449 . S
O127 U126 2.454 . S
O127 C129 1.353 . S
O128 U126 2.458 . S
O128 C129 1.286 . S
C129 U126 2.984 . S
C129 O127 1.353 . S
C129 O128 1.286 . S
C129 C131 1.363 . S
C130 C120 1.465 . S
C130 U126 2.847 . S
C130 O144 1.249 . S
C130 O145 1.202 . S
C131 C129 1.363 . S
C131 C133 1.408 . S
C131 C136 1.342 . S
C132 C133 1.310 . S
C132 C135 1.461 . S
C132 H152 0.932 . S
C133 C131 1.408 . S
C133 C132 1.310 . S
C133 H153 0.930 . S
C134 C135 1.474 . S
C134 C136 1.285 . S
C134 H154 0.929 . S
C135 C132 1.461 . S
C135 C134 1.474 . S
C136 C131 1.342 . S
C136 C134 1.285 . S
C136 H155 0.930 . S
C137 C140 1.424 . S
C137 C142 1.245 . S
C137 C143 1.428 . S
C138 C141 1.260 . S
C138 C142 1.477 . S
C138 H156 0.932 . S
C139 C140 1.384 . S
C139 C141 1.479 . S
C139 H157 0.929 . S
C140 C137 1.424 . S
C140 C139 1.384 . S
C140 H158 0.928 . S
C141 C138 1.260 . S
C141 C139 1.479 . S
C142 C137 1.245 . S
C142 C138 1.477 . S
C142 H159 0.932 . S
C143 U126 2.882 . S
C143 C137 1.428 . S
C143 O146 1.301 . S
C143 O147 1.282 . S
O144 U126 2.441 . S
O144 C130 1.249 . S
O145 U126 2.420 . S
O145 C130 1.202 . S
O146 U126 2.455 . S
O146 C143 1.301 . S
O147 U126 2.449 . S
O147 C143 1.282 . S
H148 C121 0.931 . S
H149 C123 0.929 . S
H150 C124 0.930 . S
H151 C125 0.931 . S
H152 C132 0.932 . S
H153 C133 0.930 . S
H154 C134 0.929 . S
H155 C136 0.930 . S
H156 C138 0.932 . S
H157 C139 0.929 . S
H158 C140 0.928 . S
H159 C142 0.932 . S
C160 C161 1.264 . S
C160 C165 1.479 . S
C160 C170 1.465 . S
C161 C160 1.264 . S
C161 C163 1.339 . S
C161 H188 0.931 . S
C162 C163 1.395 . S
C162 C164 1.320 . S
C163 C161 1.339 . S
C163 C162 1.395 . S
C163 H189 0.929 . S
C164 C162 1.320 . S
C164 C165 1.405 . S
C164 H190 0.930 . S
C165 C160 1.479 . S
C165 C164 1.405 . S
C165 H191 0.931 . S
U166 O167 2.454 . S
U166 O168 2.458 . S
U166 C169 2.984 . S
U166 C170 2.847 . S
U166 C183 2.882 . S
U166 O184 2.441 . S
U166 O185 2.420 . S
U166 O186 2.455 . S
U166 O187 2.449 . S
O167 U166 2.454 . S
O167 C169 1.353 . S
O168 U166 2.458 . S
O168 C169 1.286 . S
C169 U166 2.984 . S
C169 O167 1.353 . S
C169 O168 1.286 . S
C169 C171 1.363 . S
C170 C160 1.465 . S
C170 U166 2.847 . S
C170 O184 1.249 . S
C170 O185 1.202 . S
C171 C169 1.363 . S
C171 C173 1.408 . S
C171 C176 1.342 . S
C172 C173 1.310 . S
C172 C175 1.461 . S
C172 H192 0.932 . S
C173 C171 1.408 . S
C173 C172 1.310 . S
C173 H193 0.930 . S
C174 C175 1.474 . S
C174 C176 1.285 . S
C174 H194 0.929 . S
C175 C172 1.461 . S
C175 C174 1.474 . S
C176 C171 1.342 . S
C176 C174 1.285 . S
C176 H195 0.930 . S
C177 C180 1.424 . S
C177 C182 1.245 . S
C177 C183 1.428 . S
C178 C181 1.260 . S
C178 C182 1.477 . S
C178 H196 0.932 . S
C179 C180 1.384 . S
C179 C181 1.479 . S
C179 H197 0.929 . S
C180 C177 1.424 . S
C180 C179 1.384 . S
C180 H198 0.928 . S
C181 C178 1.260 . S
C181 C179 1.479 . S
C182 C177 1.245 . S
C182 C178 1.477 . S
C182 H199 0.932 . S
C183 U166 2.882 . S
C183 C177 1.428 . S
C183 O186 1.301 . S
C183 O187 1.282 . S
O184 U166 2.441 . S
O184 C170 1.249 . S
O185 U166 2.420 . S
O185 C170 1.202 . S
O186 U166 2.455 . S
O186 C183 1.301 . S
O187 U166 2.449 . S
O187 C183 1.282 . S
H188 C161 0.931 . S
H189 C163 0.929 . S
H190 C164 0.930 . S
H191 C165 0.931 . S
H192 C172 0.932 . S
H193 C173 0.930 . S
H194 C174 0.929 . S
H195 C176 0.930 . S
H196 C178 0.932 . S
H197 C179 0.929 . S
H198 C180 0.928 . S
H199 C182 0.932 . S
C200 C201 1.264 . S
C200 C205 1.479 . S
C200 C210 1.465 . S
C201 C200 1.264 . S
C201 C203 1.339 . S
C201 H228 0.931 . S
C202 C203 1.395 . S
C202 C204 1.320 . S
C203 C201 1.339 . S
C203 C202 1.395 . S
C203 H229 0.929 . S
C204 C202 1.320 . S
C204 C205 1.405 . S
C204 H230 0.930 . S
C205 C200 1.479 . S
C205 C204 1.405 . S
C205 H231 0.931 . S
U206 O207 2.454 . S
U206 O208 2.458 . S
U206 C209 2.984 . S
U206 C210 2.847 . S
U206 C223 2.882 . S
U206 O224 2.441 . S
U206 O225 2.420 . S
U206 O226 2.455 . S
U206 O227 2.449 . S
O207 U206 2.454 . S
O207 C209 1.353 . S
O208 U206 2.458 . S
O208 C209 1.286 . S
C209 U206 2.984 . S
C209 O207 1.353 . S
C209 O208 1.286 . S
C209 C211 1.363 . S
C210 C200 1.465 . S
C210 U206 2.847 . S
C210 O224 1.249 . S
C210 O225 1.202 . S
C211 C209 1.363 . S
C211 C213 1.408 . S
C211 C216 1.342 . S
C212 C213 1.310 . S
C212 C215 1.461 . S
C212 H232 0.932 . S
C213 C211 1.408 . S
C213 C212 1.310 . S
C213 H233 0.930 . S
C214 C215 1.474 . S
C214 C216 1.285 . S
C214 H234 0.929 . S
C215 C212 1.461 . S
C215 C214 1.474 . S
C216 C211 1.342 . S
C216 C214 1.285 . S
C216 H235 0.930 . S
C217 C220 1.424 . S
C217 C222 1.245 . S
C217 C223 1.428 . S
C218 C221 1.260 . S
C218 C222 1.477 . S
C218 H236 0.932 . S
C219 C220 1.384 . S
C219 C221 1.479 . S
C219 H237 0.929 . S
C220 C217 1.424 . S
C220 C219 1.384 . S
C220 H238 0.928 . S
C221 C218 1.260 . S
C221 C219 1.479 . S
C222 C217 1.245 . S
C222 C218 1.477 . S
C222 H239 0.932 . S
C223 U206 2.882 . S
C223 C217 1.428 . S
C223 O226 1.301 . S
C223 O227 1.282 . S
O224 U206 2.441 . S
O224 C210 1.249 . S
O225 U206 2.420 . S
O225 C210 1.202 . S
O226 U206 2.455 . S
O226 C223 1.301 . S
O227 U206 2.449 . S
O227 C223 1.282 . S
H228 C201 0.931 . S
H229 C203 0.929 . S
H230 C204 0.930 . S
H231 C205 0.931 . S
H232 C212 0.932 . S
H233 C213 0.930 . S
H234 C214 0.929 . S
H235 C216 0.930 . S
H236 C218 0.932 . S
H237 C219 0.929 . S
H238 C220 0.928 . S
H239 C222 0.932 . S
C240 C241 1.264 . S
C240 C245 1.479 . S
C240 C250 1.465 . S
C241 C240 1.264 . S
C241 C243 1.339 . S
C241 H268 0.931 . S
C242 C243 1.395 . S
C242 C244 1.320 . S
C243 C241 1.339 . S
C243 C242 1.395 . S
C243 H269 0.929 . S
C244 C242 1.320 . S
C244 C245 1.405 . S
C244 H270 0.930 . S
C245 C240 1.479 . S
C245 C244 1.405 . S
C245 H271 0.931 . S
U246 O247 2.454 . S
U246 O248 2.458 . S
U246 C249 2.984 . S
U246 C250 2.847 . S
U246 C263 2.882 . S
U246 O264 2.441 . S
U246 O265 2.420 . S
U246 O266 2.455 . S
U246 O267 2.449 . S
O247 U246 2.454 . S
O247 C249 1.353 . S
O248 U246 2.458 . S
O248 C249 1.286 . S
C249 U246 2.984 . S
C249 O247 1.353 . S
C249 O248 1.286 . S
C249 C251 1.363 . S
C250 C240 1.465 . S
C250 U246 2.847 . S
C250 O264 1.249 . S
C250 O265 1.202 . S
C251 C249 1.363 . S
C251 C253 1.408 . S
C251 C256 1.342 . S
C252 C253 1.310 . S
C252 C255 1.461 . S
C252 H272 0.932 . S
C253 C251 1.408 . S
C253 C252 1.310 . S
C253 H273 0.930 . S
C254 C255 1.474 . S
C254 C256 1.285 . S
C254 H274 0.929 . S
C255 C252 1.461 . S
C255 C254 1.474 . S
C256 C251 1.342 . S
C256 C254 1.285 . S
C256 H275 0.930 . S
C257 C260 1.424 . S
C257 C262 1.245 . S
C257 C263 1.428 . S
C258 C261 1.260 . S
C258 C262 1.477 . S
C258 H276 0.932 . S
C259 C260 1.384 . S
C259 C261 1.479 . S
C259 H277 0.929 . S
C260 C257 1.424 . S
C260 C259 1.384 . S
C260 H278 0.928 . S
C261 C258 1.260 . S
C261 C259 1.479 . S
C262 C257 1.245 . S
C262 C258 1.477 . S
C262 H279 0.932 . S
C263 U246 2.882 . S
C263 C257 1.428 . S
C263 O266 1.301 . S
C263 O267 1.282 . S
O264 U246 2.441 . S
O264 C250 1.249 . S
O265 U246 2.420 . S
O265 C250 1.202 . S
O266 U246 2.455 . S
O266 C263 1.301 . S
O267 U246 2.449 . S
O267 C263 1.282 . S
H268 C241 0.931 . S
H269 C243 0.929 . S
H270 C244 0.930 . S
H271 C245 0.931 . S
H272 C252 0.932 . S
H273 C253 0.930 . S
H274 C254 0.929 . S
H275 C256 0.930 . S
H276 C258 0.932 . S
H277 C259 0.929 . S
H278 C260 0.928 . S
H279 C262 0.932 . S
C280 C281 1.264 . S
C280 C285 1.479 . S
C280 C290 1.465 . S
C281 C280 1.264 . S
C281 C283 1.339 . S
C281 H308 0.931 . S
C282 C283 1.395 . S
C282 C284 1.320 . S
C283 C281 1.339 . S
C283 C282 1.395 . S
C283 H309 0.929 . S
C284 C282 1.320 . S
C284 C285 1.405 . S
C284 H310 0.930 . S
C285 C280 1.479 . S
C285 C284 1.405 . S
C285 H311 0.931 . S
U286 O287 2.454 . S
U286 O288 2.458 . S
U286 C289 2.984 . S
U286 C290 2.847 . S
U286 C303 2.882 . S
U286 O304 2.441 . S
U286 O305 2.420 . S
U286 O306 2.455 . S
U286 O307 2.449 . S
O287 U286 2.454 . S
O287 C289 1.353 . S
O288 U286 2.458 . S
O288 C289 1.286 . S
C289 U286 2.984 . S
C289 O287 1.353 . S
C289 O288 1.286 . S
C289 C291 1.363 . S
C290 C280 1.465 . S
C290 U286 2.847 . S
C290 O304 1.249 . S
C290 O305 1.202 . S
C291 C289 1.363 . S
C291 C293 1.408 . S
C291 C296 1.342 . S
C292 C293 1.310 . S
C292 C295 1.461 . S
C292 H312 0.932 . S
C293 C291 1.408 . S
C293 C292 1.310 . S
C293 H313 0.930 . S
C294 C295 1.474 . S
C294 C296 1.285 . S
C294 H314 0.929 . S
C295 C292 1.461 . S
C295 C294 1.474 . S
C296 C291 1.342 . S
C296 C294 1.285 . S
C296 H315 0.930 . S
C297 C300 1.424 . S
C297 C302 1.245 . S
C297 C303 1.428 . S
C298 C301 1.260 . S
C298 C302 1.477 . S
C298 H316 0.932 . S
C299 C300 1.384 . S
C299 C301 1.479 . S
C299 H317 0.929 . S
C300 C297 1.424 . S
C300 C299 1.384 . S
C300 H318 0.928 . S
C301 C298 1.260 . S
C301 C299 1.479 . S
C302 C297 1.245 . S
C302 C298 1.477 . S
C302 H319 0.932 . S
C303 U286 2.882 . S
C303 C297 1.428 . S
C303 O306 1.301 . S
C303 O307 1.282 . S
O304 U286 2.441 . S
O304 C290 1.249 . S
O305 U286 2.420 . S
O305 C290 1.202 . S
O306 U286 2.455 . S
O306 C303 1.301 . S
O307 U286 2.449 . S
O307 C303 1.282 . S
H308 C281 0.931 . S
H309 C283 0.929 . S
H310 C284 0.930 . S
H311 C285 0.931 . S
H312 C292 0.932 . S
H313 C293 0.930 . S
H314 C294 0.929 . S
H315 C296 0.930 . S
H316 C298 0.932 . S
H317 C299 0.929 . S
H318 C300 0.928 . S
H319 C302 0.932 . S
Zn320 O326 1.969 1_545 S
Zn320 O327 1.965 1_545 S
Zn320 O331 2.024 . S
Zn320 O336 1.969 . S
Zn321 O328 1.969 . S
Zn321 O334 1.969 1_565 S
Zn321 O335 1.965 1_665 S
Zn321 O337 2.024 . S
C322 O323 1.229 . S
C322 O331 1.058 . S
O323 C322 1.229 . S
C324 O325 1.229 . S
C324 O337 1.058 . S
O325 C324 1.229 . S
O326 Zn320 1.969 1_565 S
O326 C329 1.267 . S
O327 Zn320 1.965 1_565 S
O327 C338 1.260 1_455 S
O328 Zn321 1.969 . S
O328 C338 1.258 . S
C329 O326 1.267 . S
C329 O330 1.228 . S
O330 C329 1.228 . S
O331 Zn320 2.024 . S
O331 C322 1.058 . S
C332 O333 1.228 . S
C332 O334 1.267 . S
O333 C332 1.228 . S
O334 Zn321 1.969 1_545 S
O334 C332 1.267 . S
O335 Zn321 1.965 1_445 S
O335 C339 1.260 . S
O336 Zn320 1.969 . S
O336 C339 1.258 . S
O337 Zn321 2.024 . S
O337 C324 1.058 . S
C338 O327 1.260 1_655 S
C338 O328 1.258 . S
C339 O335 1.260 . S
C339 O336 1.258 . S
Zn340 O346 1.969 . S
Zn340 O347 1.965 1_565 S
Zn340 O351 2.024 . S
Zn340 O356 1.969 1_556 S
Zn341 O348 1.969 . S
Zn341 O354 1.969 . S
Zn341 O355 1.965 1_545 S
Zn341 O357 2.024 . S
C342 O343 1.229 . S
C342 O351 1.058 . S
O343 C342 1.229 . S
C344 O345 1.229 . S
C344 O357 1.058 . S
O345 C344 1.229 . S
O346 Zn340 1.969 . S
O346 C349 1.267 . S
O347 Zn340 1.965 1_545 S
O347 C358 1.260 . S
O348 Zn341 1.969 . S
O348 C358 1.258 1_554 S
C349 O346 1.267 . S
C349 O350 1.228 . S
O350 C349 1.228 . S
O351 Zn340 2.024 . S
O351 C342 1.058 . S
C352 O353 1.228 . S
C352 O354 1.267 . S
O353 C352 1.228 . S
O354 Zn341 1.969 . S
O354 C352 1.267 . S
O355 Zn341 1.965 1_565 S
O355 C359 1.260 . S
O356 Zn340 1.969 1_554 S
O356 C359 1.258 . S
O357 Zn341 2.024 . S
O357 C344 1.058 . S
C358 O347 1.260 . S
C358 O348 1.258 1_556 S
C359 O355 1.260 . S
C359 O356 1.258 . S
Zn360 O366 1.969 . S
Zn360 O367 1.965 . S
Zn360 O371 2.024 . S
Zn360 O376 1.969 . S
Zn361 O368 1.969 . S
Zn361 O374 1.969 . S
Zn361 O375 1.965 . S
Zn361 O377 2.024 . S
C362 O363 1.229 . S
C362 O371 1.058 . S
O363 C362 1.229 . S
C364 O365 1.229 . S
C364 O377 1.058 . S
O365 C364 1.229 . S
O366 Zn360 1.969 . S
O366 C369 1.267 . S
O367 Zn360 1.965 . S
O367 C378 1.260 . S
O368 Zn361 1.969 . S
O368 C378 1.258 . S
C369 O366 1.267 . S
C369 O370 1.228 . S
O370 C369 1.228 . S
O371 Zn360 2.024 . S
O371 C362 1.058 . S
C372 O373 1.228 . S
C372 O374 1.267 . S
O373 C372 1.228 . S
O374 Zn361 1.969 . S
O374 C372 1.267 . S
O375 Zn361 1.965 . S
O375 C379 1.260 . S
O376 Zn360 1.969 . S
O376 C379 1.258 . S
O377 Zn361 2.024 . S
O377 C364 1.058 . S
C378 O367 1.260 . S
C378 O368 1.258 . S
C379 O375 1.260 . S
C379 O376 1.258 . S
Zn380 O386 1.969 . S
Zn380 O387 1.965 1_556 S
Zn380 O391 2.024 . S
Zn380 O396 1.969 1_655 S
Zn381 O388 1.969 . S
Zn381 O394 1.969 . S
Zn381 O395 1.965 1_554 S
Zn381 O397 2.024 . S
C382 O383 1.229 . S
C382 O391 1.058 . S
O383 C382 1.229 . S
C384 O385 1.229 . S
C384 O397 1.058 . S
O385 C384 1.229 . S
O386 Zn380 1.969 . S
O386 C389 1.267 . S
O387 Zn380 1.965 1_554 S
O387 C398 1.260 . S
O388 Zn381 1.969 . S
O388 C398 1.258 1_455 S
C389 O386 1.267 . S
C389 O390 1.228 . S
O390 C389 1.228 . S
O391 Zn380 2.024 . S
O391 C382 1.058 . S
C392 O393 1.228 . S
C392 O394 1.267 . S
O393 C392 1.228 . S
O394 Zn381 1.969 . S
O394 C392 1.267 . S
O395 Zn381 1.965 1_556 S
O395 C399 1.260 . S
O396 Zn380 1.969 1_455 S
O396 C399 1.258 . S
O397 Zn381 2.024 . S
O397 C384 1.058 . S
C398 O387 1.260 . S
C398 O388 1.258 1_655 S
C399 O395 1.260 . S
C399 O396 1.258 . S
H400 C418 0.951 . S
H401 C420 0.951 . S
H402 C422 0.950 . S
H403 C423 0.950 . S
H404 C425 0.950 . S
H405 C428 0.950 . S
H406 C429 0.950 . S
H407 C431 0.950 . S
H408 C432 0.950 . S
H409 C433 0.951 . S
H410 C435 0.951 . S
H411 C437 0.950 . S
H412 C438 0.950 . S
H413 C440 0.950 . S
H414 C443 0.950 . S
H415 C444 0.950 1_655 S
H416 C446 0.950 . S
H417 C447 0.950 . S
C418 H400 0.951 . S
C418 C419 1.366 . S
C418 C420 1.388 . S
C419 C418 1.366 . S
C419 C423 1.385 . S
C420 H401 0.951 . S
C420 C418 1.388 . S
C420 C421 1.366 . S
C421 C420 1.366 . S
C421 C422 1.414 . S
C421 C424 1.499 . S
C422 H402 0.950 . S
C422 C421 1.414 . S
C422 C423 1.374 . S
C423 H403 0.950 . S
C423 C419 1.385 . S
C423 C422 1.374 . S
C424 C421 1.499 . S
C424 C425 1.373 . S
C424 C426 1.389 . S
C425 H404 0.950 . S
C425 C424 1.373 . S
C425 C441 1.377 . S
C426 C424 1.389 . S
C426 C427 1.524 . S
C426 C440 1.377 . S
C427 C426 1.524 . S
C427 C428 1.397 . S
C427 C432 1.363 . S
C428 H405 0.950 . S
C428 C427 1.397 . S
C428 C429 1.334 . S
C429 H406 0.950 . S
C429 C428 1.334 . S
C429 C430 1.287 . S
C430 C429 1.287 . S
C430 C431 1.524 . S
C430 H449 0.913 . S
C431 H407 0.950 . S
C431 C430 1.524 . S
C431 C432 1.415 . S
C432 H408 0.950 . S
C432 C427 1.363 . S
C432 C431 1.415 . S
C433 H409 0.951 . S
C433 C434 1.366 . S
C433 C435 1.388 . S
C434 C433 1.366 . S
C434 C438 1.385 . S
C435 H410 0.951 . S
C435 C433 1.388 . S
C435 C436 1.366 . S
C436 C435 1.366 . S
C436 C437 1.414 . S
C436 C439 1.499 . S
C437 H411 0.950 . S
C437 C436 1.414 . S
C437 C438 1.374 . S
C438 H412 0.950 . S
C438 C434 1.385 . S
C438 C437 1.374 . S
C439 C436 1.499 . S
C439 C440 1.373 . S
C439 C441 1.389 . S
C440 H413 0.950 . S
C440 C426 1.377 . S
C440 C439 1.373 . S
C441 C425 1.377 . S
C441 C439 1.389 . S
C441 C442 1.524 . S
C442 C441 1.524 . S
C442 C443 1.397 . S
C442 C447 1.363 . S
C443 H414 0.950 . S
C443 C442 1.397 . S
C443 C444 1.334 . S
C444 H415 0.950 1_455 S
C444 C443 1.334 . S
C444 C445 1.287 . S
C445 C444 1.287 . S
C445 C446 1.524 . S
C445 H448 0.999 1_455 S
C446 H416 0.950 . S
C446 C445 1.524 . S
C446 C447 1.415 . S
C447 H417 0.950 . S
C447 C442 1.363 . S
C447 C446 1.415 . S
H448 C445 0.999 1_655 S
H449 C430 0.913 . S
H450 C468 0.951 . S
H451 C470 0.951 . S
H452 C472 0.950 . S
H453 C473 0.950 . S
H454 C475 0.950 . S
H455 C478 0.950 . S
H456 C479 0.950 . S
H457 C481 0.971 . S
H458 C482 0.950 . S
H459 C483 0.951 . S
H460 C485 0.951 . S
H461 C487 0.950 . S
H462 C488 0.950 . S
H463 C490 0.950 . S
H464 C493 0.950 . S
H465 C494 0.950 . S
H466 C496 0.950 . S
H467 C497 0.950 . S
C468 H450 0.951 . S
C468 C469 1.366 . S
C468 C470 1.388 . S
C469 C468 1.366 . S
C469 C473 1.385 . S
C470 H451 0.951 . S
C470 C468 1.388 . S
C470 C471 1.366 . S
C471 C470 1.366 . S
C471 C472 1.414 . S
C471 C474 1.499 . S
C472 H452 0.950 . S
C472 C471 1.414 . S
C472 C473 1.374 . S
C473 H453 0.950 . S
C473 C469 1.385 . S
C473 C472 1.374 . S
C474 C471 1.499 . S
C474 C475 1.373 . S
C474 C476 1.389 . S
C475 H454 0.950 . S
C475 C474 1.373 . S
C475 C491 1.377 . S
C476 C474 1.389 . S
C476 C477 1.524 . S
C476 C490 1.377 . S
C477 C476 1.524 . S
C477 C478 1.397 . S
C477 C482 1.363 . S
C478 H455 0.950 . S
C478 C477 1.397 . S
C478 C479 1.334 . S
C479 H456 0.950 . S
C479 C478 1.334 . S
C479 C480 1.287 . S
C480 C479 1.287 . S
C480 C481 1.514 1_565 S
C480 H499 0.902 1_565 S
C481 H457 0.971 . S
C481 C480 1.514 1_545 S
C481 C482 1.401 1_545 S
C482 H458 0.950 . S
C482 C477 1.363 . S
C482 C481 1.401 1_565 S
C483 H459 0.951 . S
C483 C484 1.366 . S
C483 C485 1.388 . S
C484 C483 1.366 . S
C484 C488 1.385 . S
C485 H460 0.951 . S
C485 C483 1.388 . S
C485 C486 1.366 . S
C486 C485 1.366 . S
C486 C487 1.414 . S
C486 C489 1.499 . S
C487 H461 0.950 . S
C487 C486 1.414 . S
C487 C488 1.374 . S
C488 H462 0.950 . S
C488 C484 1.385 . S
C488 C487 1.374 . S
C489 C486 1.499 . S
C489 C490 1.373 . S
C489 C491 1.389 . S
C490 H463 0.950 . S
C490 C476 1.377 . S
C490 C489 1.373 . S
C491 C475 1.377 . S
C491 C489 1.389 . S
C491 C492 1.524 . S
C492 C491 1.524 . S
C492 C493 1.397 . S
C492 C497 1.363 . S
C493 H464 0.950 . S
C493 C492 1.397 . S
C493 C494 1.334 . S
C494 H465 0.950 . S
C494 C493 1.334 . S
C494 C495 1.287 . S
C495 C494 1.287 . S
C495 C496 1.524 . S
C495 H498 0.999 . S
C496 H466 0.950 . S
C496 C495 1.524 . S
C496 C497 1.415 . S
C497 H467 0.950 . S
C497 C492 1.363 . S
C497 C496 1.415 . S
H498 C495 0.999 . S
H499 C480 0.902 1_545 S
H500 C518 0.951 . S
H501 C520 0.951 . S
H502 C522 0.950 . S
H503 C523 0.950 . S
H504 C525 0.950 . S
H505 C528 0.950 . S
H506 C529 0.950 . S
H507 C531 0.950 . S
H508 C532 0.950 . S
H509 C533 0.951 . S
H510 C535 0.951 . S
H511 C537 0.950 . S
H512 C538 0.950 . S
H513 C540 0.950 . S
H514 C543 0.950 . S
H515 C544 0.950 . S
H516 C546 0.950 . S
H517 C547 0.950 . S
C518 H500 0.951 . S
C518 C519 1.366 . S
C518 C520 1.388 . S
C519 C518 1.366 . S
C519 C523 1.385 . S
C520 H501 0.951 . S
C520 C518 1.388 . S
C520 C521 1.366 . S
C521 C520 1.366 . S
C521 C522 1.414 . S
C521 C524 1.499 . S
C522 H502 0.950 . S
C522 C521 1.414 . S
C522 C523 1.374 . S
C523 H503 0.950 . S
C523 C519 1.385 . S
C523 C522 1.374 . S
C524 C521 1.499 . S
C524 C525 1.373 . S
C524 C526 1.389 . S
C525 H504 0.950 . S
C525 C524 1.373 . S
C525 C541 1.377 . S
C526 C524 1.389 . S
C526 C527 1.524 . S
C526 C540 1.377 . S
C527 C526 1.524 . S
C527 C528 1.397 . S
C527 C532 1.363 . S
C528 H505 0.950 . S
C528 C527 1.397 . S
C528 C529 1.334 . S
C529 H506 0.950 . S
C529 C528 1.334 . S
C529 C530 1.287 . S
C530 C529 1.287 . S
C530 C531 1.524 . S
C530 H549 0.913 . S
C531 H507 0.950 . S
C531 C530 1.524 . S
C531 C532 1.415 . S
C532 H508 0.950 . S
C532 C527 1.363 . S
C532 C531 1.415 . S
C533 H509 0.951 . S
C533 C534 1.366 . S
C533 C535 1.388 . S
C534 C533 1.366 . S
C534 C538 1.385 . S
C535 H510 0.951 . S
C535 C533 1.388 . S
C535 C536 1.366 . S
C536 C535 1.366 . S
C536 C537 1.414 . S
C536 C539 1.499 . S
C537 H511 0.950 . S
C537 C536 1.414 . S
C537 C538 1.374 . S
C538 H512 0.950 . S
C538 C534 1.385 . S
C538 C537 1.374 . S
C539 C536 1.499 . S
C539 C540 1.373 . S
C539 C541 1.389 . S
C540 H513 0.950 . S
C540 C526 1.377 . S
C540 C539 1.373 . S
C541 C525 1.377 . S
C541 C539 1.389 . S
C541 C542 1.524 . S
C542 C541 1.524 . S
C542 C543 1.397 . S
C542 C547 1.363 . S
C543 H514 0.950 . S
C543 C542 1.397 . S
C543 C544 1.334 . S
C544 H515 0.950 . S
C544 C543 1.334 . S
C544 C545 1.287 . S
C545 C544 1.287 . S
C545 C546 1.524 . S
C545 H548 0.999 . S
C546 H516 0.950 . S
C546 C545 1.524 . S
C546 C547 1.415 . S
C547 H517 0.950 . S
C547 C542 1.363 . S
C547 C546 1.415 . S
H548 C545 0.999 . S
H549 C530 0.913 . S
H550 C568 0.951 . S
H551 C570 0.951 . S
H552 C572 0.950 . S
H553 C573 0.950 . S
H554 C575 0.950 . S
H555 C578 0.950 . S
H556 C579 0.950 . S
H557 C581 0.950 . S
H558 C582 0.950 . S
H559 C583 0.951 . S
H560 C585 0.951 . S
H561 C587 0.950 . S
H562 C588 0.950 . S
H563 C590 0.950 . S
H564 C593 0.950 . S
H565 C594 0.950 . S
H566 C596 0.950 . S
H567 C597 0.950 . S
C568 H550 0.951 . S
C568 C569 1.366 . S
C568 C570 1.388 . S
C569 C568 1.366 . S
C569 C573 1.385 . S
C570 H551 0.951 . S
C570 C568 1.388 . S
C570 C571 1.366 . S
C571 C570 1.366 . S
C571 C572 1.414 . S
C571 C574 1.499 . S
C572 H552 0.950 . S
C572 C571 1.414 . S
C572 C573 1.374 . S
C573 H553 0.950 . S
C573 C569 1.385 . S
C573 C572 1.374 . S
C574 C571 1.499 . S
C574 C575 1.373 . S
C574 C576 1.389 . S
C575 H554 0.950 . S
C575 C574 1.373 . S
C575 C591 1.377 . S
C576 C574 1.389 . S
C576 C577 1.524 . S
C576 C590 1.377 . S
C577 C576 1.524 . S
C577 C578 1.397 . S
C577 C582 1.363 . S
C578 H555 0.950 . S
C578 C577 1.397 . S
C578 C579 1.334 . S
C579 H556 0.950 . S
C579 C578 1.334 . S
C579 C580 1.287 . S
C580 C579 1.287 . S
C580 C581 1.524 . S
C580 H599 0.913 . S
C581 H557 0.950 . S
C581 C580 1.524 . S
C581 C582 1.415 . S
C582 H558 0.950 . S
C582 C577 1.363 . S
C582 C581 1.415 . S
C583 H559 0.951 . S
C583 C584 1.366 . S
C583 C585 1.388 . S
C584 C583 1.366 . S
C584 C588 1.385 . S
C585 H560 0.951 . S
C585 C583 1.388 . S
C585 C586 1.366 . S
C586 C585 1.366 . S
C586 C587 1.414 . S
C586 C589 1.499 . S
C587 H561 0.950 . S
C587 C586 1.414 . S
C587 C588 1.374 . S
C588 H562 0.950 . S
C588 C584 1.385 . S
C588 C587 1.374 . S
C589 C586 1.499 . S
C589 C590 1.373 . S
C589 C591 1.389 . S
C590 H563 0.950 . S
C590 C576 1.377 . S
C590 C589 1.373 . S
C591 C575 1.377 . S
C591 C589 1.389 . S
C591 C592 1.524 . S
C592 C591 1.524 . S
C592 C593 1.397 . S
C592 C597 1.363 . S
C593 H564 0.950 . S
C593 C592 1.397 . S
C593 C594 1.334 . S
C594 H565 0.950 . S
C594 C593 1.334 . S
C594 C595 1.287 . S
C595 C594 1.287 . S
C595 C596 1.524 . S
C595 H598 0.999 . S
C596 H566 0.950 . S
C596 C595 1.524 . S
C596 C597 1.415 . S
C597 H567 0.950 . S
C597 C592 1.363 . S
C597 C596 1.415 . S
H598 C595 0.999 . S
H599 C580 0.913 . S
H600 C618 0.951 . S
H601 C620 0.951 . S
H602 C622 0.950 . S
H603 C623 0.950 . S
H604 C625 0.950 . S
H605 C628 0.950 . S
H606 C629 0.950 . S
H607 C631 0.950 . S
H608 C632 0.950 . S
H609 C633 0.951 . S
H610 C635 0.951 . S
H611 C637 0.950 . S
H612 C638 0.950 . S
H613 C640 0.950 . S
H614 C643 0.950 . S
H615 C644 0.950 . S
H616 C646 0.950 . S
H617 C647 0.950 . S
C618 H600 0.951 . S
C618 C619 1.366 . S
C618 C620 1.388 . S
C619 C618 1.366 . S
C619 C623 1.385 . S
C620 H601 0.951 . S
C620 C618 1.388 . S
C620 C621 1.366 . S
C621 C620 1.366 . S
C621 C622 1.414 . S
C621 C624 1.499 . S
C622 H602 0.950 . S
C622 C621 1.414 . S
C622 C623 1.374 . S
C623 H603 0.950 . S
C623 C619 1.385 . S
C623 C622 1.374 . S
C624 C621 1.499 . S
C624 C625 1.373 . S
C624 C626 1.389 . S
C625 H604 0.950 . S
C625 C624 1.373 . S
C625 C641 1.377 . S
C626 C624 1.389 . S
C626 C627 1.524 . S
C626 C640 1.377 . S
C627 C626 1.524 . S
C627 C628 1.397 . S
C627 C632 1.363 . S
C628 H605 0.950 . S
C628 C627 1.397 . S
C628 C629 1.334 . S
C629 H606 0.950 . S
C629 C628 1.334 . S
C629 C630 1.287 . S
C630 C629 1.287 . S
C630 C631 1.524 . S
C630 H649 0.913 . S
C631 H607 0.950 . S
C631 C630 1.524 . S
C631 C632 1.415 . S
C632 H608 0.950 . S
C632 C627 1.363 . S
C632 C631 1.415 . S
C633 H609 0.951 . S
C633 C634 1.366 . S
C633 C635 1.388 . S
C634 C633 1.366 . S
C634 C638 1.385 . S
C635 H610 0.951 . S
C635 C633 1.388 . S
C635 C636 1.366 . S
C636 C635 1.366 . S
C636 C637 1.414 . S
C636 C639 1.499 . S
C637 H611 0.950 . S
C637 C636 1.414 . S
C637 C638 1.374 . S
C638 H612 0.950 . S
C638 C634 1.385 . S
C638 C637 1.374 . S
C639 C636 1.499 . S
C639 C640 1.373 . S
C639 C641 1.389 . S
C640 H613 0.950 . S
C640 C626 1.377 . S
C640 C639 1.373 . S
C641 C625 1.377 . S
C641 C639 1.389 . S
C641 C642 1.524 . S
C642 C641 1.524 . S
C642 C643 1.397 . S
C642 C647 1.363 . S
C643 H614 0.950 . S
C643 C642 1.397 . S
C643 C644 1.334 . S
C644 H615 0.950 . S
C644 C643 1.334 . S
C644 C645 1.287 . S
C645 C644 1.287 . S
C645 C646 1.524 . S
C645 H648 0.999 . S
C646 H616 0.950 . S
C646 C645 1.524 . S
C646 C647 1.415 . S
C647 H617 0.950 . S
C647 C642 1.363 . S
C647 C646 1.415 . S
H648 C645 0.999 . S
H649 C630 0.913 . S
H650 C668 0.951 . S
H651 C670 0.951 . S
H652 C672 0.950 . S
H653 C673 0.950 . S
H654 C675 0.950 . S
H655 C678 0.950 . S
H656 C679 0.950 . S
H657 C681 0.950 . S
H658 C682 0.950 . S
H659 C683 0.951 . S
H660 C685 0.951 . S
H661 C687 0.950 . S
H662 C688 0.950 . S
H663 C690 0.950 . S
H664 C693 0.950 . S
H665 C694 0.950 . S
H666 C696 0.950 . S
H667 C697 0.950 . S
C668 H650 0.951 . S
C668 C669 1.366 . S
C668 C670 1.388 . S
C669 C668 1.366 . S
C669 C673 1.385 . S
C670 H651 0.951 . S
C670 C668 1.388 . S
C670 C671 1.366 . S
C671 C670 1.366 . S
C671 C672 1.414 . S
C671 C674 1.499 . S
C672 H652 0.950 . S
C672 C671 1.414 . S
C672 C673 1.374 . S
C673 H653 0.950 . S
C673 C669 1.385 . S
C673 C672 1.374 . S
C674 C671 1.499 . S
C674 C675 1.373 . S
C674 C676 1.389 . S
C675 H654 0.950 . S
C675 C674 1.373 . S
C675 C691 1.377 . S
C676 C674 1.389 . S
C676 C677 1.524 . S
C676 C690 1.377 . S
C677 C676 1.524 . S
C677 C678 1.397 . S
C677 C682 1.363 . S
C678 H655 0.950 . S
C678 C677 1.397 . S
C678 C679 1.334 . S
C679 H656 0.950 . S
C679 C678 1.334 . S
C679 C680 1.287 . S
C680 C679 1.287 . S
C680 C681 1.524 . S
C680 H699 0.913 . S
C681 H657 0.950 . S
C681 C680 1.524 . S
C681 C682 1.415 . S
C682 H658 0.950 . S
C682 C677 1.363 . S
C682 C681 1.415 . S
C683 H659 0.951 . S
C683 C684 1.366 . S
C683 C685 1.388 . S
C684 C683 1.366 . S
C684 C688 1.385 . S
C685 H660 0.951 . S
C685 C683 1.388 . S
C685 C686 1.366 . S
C686 C685 1.366 . S
C686 C687 1.414 . S
C686 C689 1.499 . S
C687 H661 0.950 . S
C687 C686 1.414 . S
C687 C688 1.374 . S
C688 H662 0.950 . S
C688 C684 1.385 . S
C688 C687 1.374 . S
C689 C686 1.499 . S
C689 C690 1.373 . S
C689 C691 1.389 . S
C690 H663 0.950 . S
C690 C676 1.377 . S
C690 C689 1.373 . S
C691 C675 1.377 . S
C691 C689 1.389 . S
C691 C692 1.524 . S
C692 C691 1.524 . S
C692 C693 1.397 . S
C692 C697 1.363 . S
C693 H664 0.950 . S
C693 C692 1.397 . S
C693 C694 1.334 . S
C694 H665 0.950 . S
C694 C693 1.334 . S
C694 C695 1.287 . S
C695 C694 1.287 . S
C695 C696 1.524 . S
C695 H698 0.999 . S
C696 H666 0.950 . S
C696 C695 1.524 . S
C696 C697 1.415 . S
C697 H667 0.950 . S
C697 C692 1.363 . S
C697 C696 1.415 . S
H698 C695 0.999 . S
H699 C680 0.913 . S
H700 C718 0.951 . S
H701 C720 0.951 . S
H702 C722 0.950 . S
H703 C723 0.950 . S
H704 C725 0.950 . S
H705 C728 0.950 . S
H706 C729 0.950 . S
H707 C731 0.950 . S
H708 C732 0.950 . S
H709 C733 0.951 . S
H710 C735 0.951 . S
H711 C737 0.950 . S
H712 C738 0.950 . S
H713 C740 0.950 . S
H714 C743 0.950 . S
H715 C744 0.950 . S
H716 C746 0.950 . S
H717 C747 0.950 . S
C718 H700 0.951 . S
C718 C719 1.366 . S
C718 C720 1.388 . S
C719 C718 1.366 . S
C719 C723 1.385 . S
C720 H701 0.951 . S
C720 C718 1.388 . S
C720 C721 1.366 . S
C721 C720 1.366 . S
C721 C722 1.414 . S
C721 C724 1.499 . S
C722 H702 0.950 . S
C722 C721 1.414 . S
C722 C723 1.374 . S
C723 H703 0.950 . S
C723 C719 1.385 . S
C723 C722 1.374 . S
C724 C721 1.499 . S
C724 C725 1.373 . S
C724 C726 1.389 . S
C725 H704 0.950 . S
C725 C724 1.373 . S
C725 C741 1.377 . S
C726 C724 1.389 . S
C726 C727 1.524 . S
C726 C740 1.377 . S
C727 C726 1.524 . S
C727 C728 1.397 . S
C727 C732 1.363 . S
C728 H705 0.950 . S
C728 C727 1.397 . S
C728 C729 1.334 . S
C729 H706 0.950 . S
C729 C728 1.334 . S
C729 C730 1.287 . S
C730 C729 1.287 . S
C730 C731 1.524 . S
C730 H749 0.913 . S
C731 H707 0.950 . S
C731 C730 1.524 . S
C731 C732 1.415 . S
C732 H708 0.950 . S
C732 C727 1.363 . S
C732 C731 1.415 . S
C733 H709 0.951 . S
C733 C734 1.366 . S
C733 C735 1.388 . S
C734 C733 1.366 . S
C734 C738 1.385 . S
C735 H710 0.951 . S
C735 C733 1.388 . S
C735 C736 1.366 . S
C736 C735 1.366 . S
C736 C737 1.414 . S
C736 C739 1.499 . S
C737 H711 0.950 . S
C737 C736 1.414 . S
C737 C738 1.374 . S
C738 H712 0.950 . S
C738 C734 1.385 . S
C738 C737 1.374 . S
C739 C736 1.499 . S
C739 C740 1.373 . S
C739 C741 1.389 . S
C740 H713 0.950 . S
C740 C726 1.377 . S
C740 C739 1.373 . S
C741 C725 1.377 . S
C741 C739 1.389 . S
C741 C742 1.524 . S
C742 C741 1.524 . S
C742 C743 1.397 . S
C742 C747 1.363 . S
C743 H714 0.950 . S
C743 C742 1.397 . S
C743 C744 1.334 . S
C744 H715 0.950 . S
C744 C743 1.334 . S
C744 C745 1.287 . S
C745 C744 1.287 . S
C745 C746 1.524 . S
C745 H748 0.999 . S
C746 H716 0.950 . S
C746 C745 1.524 . S
C746 C747 1.415 . S
C747 H717 0.950 . S
C747 C742 1.363 . S
C747 C746 1.415 . S
H748 C745 0.999 . S
H749 C730 0.913 . S
H750 C768 0.951 . S
H751 C770 0.951 . S
H752 C772 0.950 . S
H753 C773 0.950 . S
H754 C775 0.950 . S
H755 C778 0.950 . S
H756 C779 0.950 . S
H757 C781 0.950 . S
H758 C782 0.950 . S
H759 C783 0.951 . S
H760 C785 0.951 . S
H761 C787 0.950 . S
H762 C788 0.950 . S
H763 C790 0.950 . S
H764 C793 0.950 . S
H765 C794 0.950 . S
H766 C796 0.950 . S
H767 C797 0.950 . S
C768 H750 0.951 . S
C768 C769 1.366 . S
C768 C770 1.388 . S
C769 C768 1.366 . S
C769 C773 1.385 . S
C770 H751 0.951 . S
C770 C768 1.388 . S
C770 C771 1.366 . S
C771 C770 1.366 . S
C771 C772 1.414 . S
C771 C774 1.499 . S
C772 H752 0.950 . S
C772 C771 1.414 . S
C772 C773 1.374 . S
C773 H753 0.950 . S
C773 C769 1.385 . S
C773 C772 1.374 . S
C774 C771 1.499 . S
C774 C775 1.373 . S
C774 C776 1.389 . S
C775 H754 0.950 . S
C775 C774 1.373 . S
C775 C791 1.377 . S
C776 C774 1.389 . S
C776 C777 1.524 . S
C776 C790 1.377 . S
C777 C776 1.524 . S
C777 C778 1.397 . S
C777 C782 1.363 . S
C778 H755 0.950 . S
C778 C777 1.397 . S
C778 C779 1.334 . S
C779 H756 0.950 . S
C779 C778 1.334 . S
C779 C780 1.287 . S
C780 C779 1.287 . S
C780 C781 1.524 . S
C780 H799 0.913 . S
C781 H757 0.950 . S
C781 C780 1.524 . S
C781 C782 1.415 . S
C782 H758 0.950 . S
C782 C777 1.363 . S
C782 C781 1.415 . S
C783 H759 0.951 . S
C783 C784 1.366 . S
C783 C785 1.388 . S
C784 C783 1.366 . S
C784 C788 1.385 . S
C785 H760 0.951 . S
C785 C783 1.388 . S
C785 C786 1.366 . S
C786 C785 1.366 . S
C786 C787 1.414 . S
C786 C789 1.499 . S
C787 H761 0.950 . S
C787 C786 1.414 . S
C787 C788 1.374 . S
C788 H762 0.950 . S
C788 C784 1.385 . S
C788 C787 1.374 . S
C789 C786 1.499 . S
C789 C790 1.373 . S
C789 C791 1.389 . S
C790 H763 0.950 . S
C790 C776 1.377 . S
C790 C789 1.373 . S
C791 C775 1.377 . S
C791 C789 1.389 . S
C791 C792 1.524 . S
C792 C791 1.524 . S
C792 C793 1.397 . S
C792 C797 1.363 . S
C793 H764 0.950 . S
C793 C792 1.397 . S
C793 C794 1.334 . S
C794 H765 0.950 . S
C794 C793 1.334 . S
C794 C795 1.287 . S
C795 C794 1.287 . S
C795 C796 1.524 . S
C795 H798 0.999 . S
C796 H766 0.950 . S
C796 C795 1.524 . S
C796 C797 1.415 . S
C797 H767 0.950 . S
C797 C792 1.363 . S
C797 C796 1.415 . S
H798 C795 0.999 . S
H799 C780 0.913 . S
H800 C818 0.951 . S
H801 C820 0.951 . S
H802 C822 0.950 . S
H803 C823 0.950 . S
H804 C825 0.950 . S
H805 C828 0.950 . S
H806 C829 0.950 . S
H807 C831 0.950 . S
H808 C832 0.950 . S
H809 C833 0.951 . S
H810 C835 0.951 . S
H811 C837 0.950 . S
H812 C838 0.950 . S
H813 C840 0.950 . S
H814 C843 0.950 . S
H815 C844 0.950 . S
H816 C846 0.950 . S
H817 C847 0.950 . S
C818 H800 0.951 . S
C818 C819 1.366 . S
C818 C820 1.388 . S
C819 C818 1.366 . S
C819 C823 1.385 . S
C820 H801 0.951 . S
C820 C818 1.388 . S
C820 C821 1.366 . S
C821 C820 1.366 . S
C821 C822 1.414 . S
C821 C824 1.499 . S
C822 H802 0.950 . S
C822 C821 1.414 . S
C822 C823 1.374 . S
C823 H803 0.950 . S
C823 C819 1.385 . S
C823 C822 1.374 . S
C824 C821 1.499 . S
C824 C825 1.373 . S
C824 C826 1.389 . S
C825 H804 0.950 . S
C825 C824 1.373 . S
C825 C841 1.377 . S
C826 C824 1.389 . S
C826 C827 1.524 . S
C826 C840 1.377 . S
C827 C826 1.524 . S
C827 C828 1.397 . S
C827 C832 1.363 . S
C828 H805 0.950 . S
C828 C827 1.397 . S
C828 C829 1.334 . S
C829 H806 0.950 . S
C829 C828 1.334 . S
C829 C830 1.287 . S
C830 C829 1.287 . S
C830 C831 1.524 . S
C830 H849 0.913 . S
C831 H807 0.950 . S
C831 C830 1.524 . S
C831 C832 1.415 . S
C832 H808 0.950 . S
C832 C827 1.363 . S
C832 C831 1.415 . S
C833 H809 0.951 . S
C833 C834 1.366 . S
C833 C835 1.388 . S
C834 C833 1.366 . S
C834 C838 1.385 . S
C835 H810 0.951 . S
C835 C833 1.388 . S
C835 C836 1.366 . S
C836 C835 1.366 . S
C836 C837 1.414 . S
C836 C839 1.499 . S
C837 H811 0.950 . S
C837 C836 1.414 . S
C837 C838 1.374 . S
C838 H812 0.950 . S
C838 C834 1.385 . S
C838 C837 1.374 . S
C839 C836 1.499 . S
C839 C840 1.373 . S
C839 C841 1.389 . S
C840 H813 0.950 . S
C840 C826 1.377 . S
C840 C839 1.373 . S
C841 C825 1.377 . S
C841 C839 1.389 . S
C841 C842 1.524 . S
C842 C841 1.524 . S
C842 C843 1.397 . S
C842 C847 1.363 . S
C843 H814 0.950 . S
C843 C842 1.397 . S
C843 C844 1.334 . S
C844 H815 0.950 . S
C844 C843 1.334 . S
C844 C845 1.287 . S
C845 C844 1.287 . S
C845 C846 1.524 . S
C845 H848 0.999 . S
C846 H816 0.950 . S
C846 C845 1.524 . S
C846 C847 1.415 . S
C847 H817 0.950 . S
C847 C842 1.363 . S
C847 C846 1.415 . S
H848 C845 0.999 . S
H849 C830 0.913 . S
H850 C868 0.951 . S
H851 C870 0.951 . S
H852 C872 0.950 . S
H853 C873 0.950 . S
H854 C875 0.950 . S
H855 C878 0.950 . S
H856 C879 0.950 . S
H857 C881 0.950 . S
H858 C882 0.950 . S
H859 C883 0.951 . S
H860 C885 0.951 . S
H861 C887 0.950 . S
H862 C888 0.950 . S
H863 C890 0.950 . S
H864 C893 0.950 . S
H865 C894 0.950 . S
H866 C896 0.950 . S
H867 C897 0.950 . S
C868 H850 0.951 . S
C868 C869 1.366 . S
C868 C870 1.388 . S
C869 C868 1.366 . S
C869 C873 1.385 . S
C870 H851 0.951 . S
C870 C868 1.388 . S
C870 C871 1.366 . S
C871 C870 1.366 . S
C871 C872 1.414 . S
C871 C874 1.499 . S
C872 H852 0.950 . S
C872 C871 1.414 . S
C872 C873 1.374 . S
C873 H853 0.950 . S
C873 C869 1.385 . S
C873 C872 1.374 . S
C874 C871 1.499 . S
C874 C875 1.373 . S
C874 C876 1.389 . S
C875 H854 0.950 . S
C875 C874 1.373 . S
C875 C891 1.377 . S
C876 C874 1.389 . S
C876 C877 1.524 . S
C876 C890 1.377 . S
C877 C876 1.524 . S
C877 C878 1.397 . S
C877 C882 1.363 . S
C878 H855 0.950 . S
C878 C877 1.397 . S
C878 C879 1.334 . S
C879 H856 0.950 . S
C879 C878 1.334 . S
C879 C880 1.287 . S
C880 C879 1.287 . S
C880 C881 1.524 . S
C880 H899 0.913 . S
C881 H857 0.950 . S
C881 C880 1.524 . S
C881 C882 1.415 . S
C882 H858 0.950 . S
C882 C877 1.363 . S
C882 C881 1.415 . S
C883 H859 0.951 . S
C883 C884 1.366 . S
C883 C885 1.388 . S
C884 C883 1.366 . S
C884 C888 1.385 . S
C885 H860 0.951 . S
C885 C883 1.388 . S
C885 C886 1.366 . S
C886 C885 1.366 . S
C886 C887 1.414 . S
C886 C889 1.499 . S
C887 H861 0.950 . S
C887 C886 1.414 . S
C887 C888 1.374 . S
C888 H862 0.950 . S
C888 C884 1.385 . S
C888 C887 1.374 . S
C889 C886 1.499 . S
C889 C890 1.373 . S
C889 C891 1.389 . S
C890 H863 0.950 . S
C890 C876 1.377 . S
C890 C889 1.373 . S
C891 C875 1.377 . S
C891 C889 1.389 . S
C891 C892 1.524 . S
C892 C891 1.524 . S
C892 C893 1.397 . S
C892 C897 1.363 . S
C893 H864 0.950 . S
C893 C892 1.397 . S
C893 C894 1.334 . S
C894 H865 0.950 . S
C894 C893 1.334 . S
C894 C895 1.287 . S
C895 C894 1.287 . S
C895 C896 1.524 . S
C895 H898 0.999 . S
C896 H866 0.950 . S
C896 C895 1.524 . S
C896 C897 1.415 . S
C897 H867 0.950 . S
C897 C892 1.363 . S
C897 C896 1.415 . S
H898 C895 0.999 . S
H899 C880 0.913 . S
H900 C918 0.951 . S
H901 C920 0.951 . S
H902 C922 0.950 . S
H903 C923 0.950 . S
H904 C925 0.950 . S
H905 C928 0.950 . S
H906 C929 0.950 . S
H907 C931 0.950 . S
H908 C932 0.950 . S
H909 C933 0.951 . S
H910 C935 0.951 . S
H911 C937 0.950 . S
H912 C938 0.950 . S
H913 C940 0.950 . S
H914 C943 0.950 . S
H915 C944 0.950 1_455 S
H916 C946 0.950 . S
H917 C947 0.950 . S
C918 H900 0.951 . S
C918 C919 1.366 . S
C918 C920 1.388 . S
C919 C918 1.366 . S
C919 C923 1.385 . S
C920 H901 0.951 . S
C920 C918 1.388 . S
C920 C921 1.366 . S
C921 C920 1.366 . S
C921 C922 1.414 . S
C921 C924 1.499 . S
C922 H902 0.950 . S
C922 C921 1.414 . S
C922 C923 1.374 . S
C923 H903 0.950 . S
C923 C919 1.385 . S
C923 C922 1.374 . S
C924 C921 1.499 . S
C924 C925 1.373 . S
C924 C926 1.389 . S
C925 H904 0.950 . S
C925 C924 1.373 . S
C925 C941 1.377 . S
C926 C924 1.389 . S
C926 C927 1.524 . S
C926 C940 1.377 . S
C927 C926 1.524 . S
C927 C928 1.397 . S
C927 C932 1.363 . S
C928 H905 0.950 . S
C928 C927 1.397 . S
C928 C929 1.334 . S
C929 H906 0.950 . S
C929 C928 1.334 . S
C929 C930 1.287 . S
C930 C929 1.287 . S
C930 C931 1.524 . S
C930 H949 0.913 . S
C931 H907 0.950 . S
C931 C930 1.524 . S
C931 C932 1.415 . S
C932 H908 0.950 . S
C932 C927 1.363 . S
C932 C931 1.415 . S
C933 H909 0.951 . S
C933 C934 1.366 . S
C933 C935 1.388 . S
C934 C933 1.366 . S
C934 C938 1.385 . S
C935 H910 0.951 . S
C935 C933 1.388 . S
C935 C936 1.366 . S
C936 C935 1.366 . S
C936 C937 1.414 . S
C936 C939 1.499 . S
C937 H911 0.950 . S
C937 C936 1.414 . S
C937 C938 1.374 . S
C938 H912 0.950 . S
C938 C934 1.385 . S
C938 C937 1.374 . S
C939 C936 1.499 . S
C939 C940 1.373 . S
C939 C941 1.389 . S
C940 H913 0.950 . S
C940 C926 1.377 . S
C940 C939 1.373 . S
C941 C925 1.377 . S
C941 C939 1.389 . S
C941 C942 1.524 . S
C942 C941 1.524 . S
C942 C943 1.397 . S
C942 C947 1.363 . S
C943 H914 0.950 . S
C943 C942 1.397 . S
C943 C944 1.334 . S
C944 H915 0.950 1_655 S
C944 C943 1.334 . S
C944 C945 1.287 . S
C945 C944 1.287 . S
C945 C946 1.524 . S
C945 H948 0.999 . S
C946 H916 0.950 . S
C946 C945 1.524 . S
C946 C947 1.415 . S
C947 H917 0.950 . S
C947 C942 1.363 . S
C947 C946 1.415 . S
H948 C945 0.999 . S
H949 C930 0.913 . S
H950 C968 0.951 . S
H951 C970 0.951 . S
H952 C972 0.950 . S
H953 C973 0.950 . S
H954 C975 0.950 . S
H955 C978 0.950 . S
H956 C979 0.950 . S
H957 C981 0.950 . S
H958 C982 0.950 . S
H959 C983 0.951 . S
H960 C985 0.951 . S
H961 C987 0.950 . S
H962 C988 0.950 . S
H963 C990 0.950 . S
H964 C993 0.950 . S
H965 C994 0.950 . S
H966 C996 0.950 . S
H967 C997 0.950 . S
C968 H950 0.951 . S
C968 C969 1.366 . S
C968 C970 1.388 . S
C969 C968 1.366 . S
C969 C973 1.385 . S
C970 H951 0.951 . S
C970 C968 1.388 . S
C970 C971 1.366 . S
C971 C970 1.366 . S
C971 C972 1.414 . S
C971 C974 1.499 . S
C972 H952 0.950 . S
C972 C971 1.414 . S
C972 C973 1.374 . S
C973 H953 0.950 . S
C973 C969 1.385 . S
C973 C972 1.374 . S
C974 C971 1.499 . S
C974 C975 1.373 . S
C974 C976 1.389 . S
C975 H954 0.950 . S
C975 C974 1.373 . S
C975 C991 1.377 . S
C976 C974 1.389 . S
C976 C977 1.524 . S
C976 C990 1.377 . S
C977 C976 1.524 . S
C977 C978 1.397 . S
C977 C982 1.363 . S
C978 H955 0.950 . S
C978 C977 1.397 . S
C978 C979 1.334 . S
C979 H956 0.950 . S
C979 C978 1.334 . S
C979 C980 1.287 . S
C980 C979 1.287 . S
C980 C981 1.524 . S
C980 H999 0.913 . S
C981 H957 0.950 . S
C981 C980 1.524 . S
C981 C982 1.415 . S
C982 H958 0.950 . S
C982 C977 1.363 . S
C982 C981 1.415 . S
C983 H959 0.951 . S
C983 C984 1.366 . S
C983 C985 1.388 . S
C984 C983 1.366 . S
C984 C988 1.385 . S
C985 H960 0.951 . S
C985 C983 1.388 . S
C985 C986 1.366 . S
C986 C985 1.366 . S
C986 C987 1.414 . S
C986 C989 1.499 . S
C987 H961 0.950 . S
C987 C986 1.414 . S
C987 C988 1.374 . S
C988 H962 0.950 . S
C988 C984 1.385 . S
C988 C987 1.374 . S
C989 C986 1.499 . S
C989 C990 1.373 . S
C989 C991 1.389 . S
C990 H963 0.950 . S
C990 C976 1.377 . S
C990 C989 1.373 . S
C991 C975 1.377 . S
C991 C989 1.389 . S
C991 C992 1.524 . S
C992 C991 1.524 . S
C992 C993 1.397 . S
C992 C997 1.363 . S
C993 H964 0.950 . S
C993 C992 1.397 . S
C993 C994 1.334 . S
C994 H965 0.950 . S
C994 C993 1.334 . S
C994 C995 1.287 . S
C995 C994 1.287 . S
C995 C996 1.524 . S
C995 H998 0.999 . S
C996 H966 0.950 . S
C996 C995 1.524 . S
C996 C997 1.415 . S
C997 H967 0.950 . S
C997 C992 1.363 . S
C997 C996 1.415 . S
H998 C995 0.999 . S
H999 C980 0.913 . S
H1000 C1018 0.951 . S
H1001 C1020 0.951 . S
H1002 C1022 0.950 . S
H1003 C1023 0.950 . S
H1004 C1025 0.950 . S
H1005 C1028 0.950 . S
H1006 C1029 0.950 . S
H1007 C1031 0.950 . S
H1008 C1032 0.950 . S
H1009 C1033 0.951 . S
H1010 C1035 0.951 . S
H1011 C1037 0.950 . S
H1012 C1038 0.952 1_545 S
H1013 C1040 0.950 . S
H1014 C1043 0.950 . S
H1015 C1044 0.950 1_455 S
H1016 C1046 0.950 1_455 S
H1017 C1047 0.950 . S
C1018 H1000 0.951 . S
C1018 C1019 1.366 . S
C1018 C1020 1.388 . S
C1019 C1018 1.366 . S
C1019 C1023 1.385 . S
C1020 H1001 0.951 . S
C1020 C1018 1.388 . S
C1020 C1021 1.366 . S
C1021 C1020 1.366 . S
C1021 C1022 1.414 . S
C1021 C1024 1.499 . S
C1022 H1002 0.950 . S
C1022 C1021 1.414 . S
C1022 C1023 1.374 . S
C1023 H1003 0.950 . S
C1023 C1019 1.385 . S
C1023 C1022 1.374 . S
C1024 C1021 1.499 . S
C1024 C1025 1.373 . S
C1024 C1026 1.389 . S
C1025 H1004 0.950 . S
C1025 C1024 1.373 . S
C1025 C1041 1.377 . S
C1026 C1024 1.389 . S
C1026 C1027 1.524 . S
C1026 C1040 1.377 . S
C1027 C1026 1.524 . S
C1027 C1028 1.397 . S
C1027 C1032 1.363 . S
C1028 H1005 0.950 . S
C1028 C1027 1.397 . S
C1028 C1029 1.334 . S
C1029 H1006 0.950 . S
C1029 C1028 1.334 . S
C1029 C1030 1.287 . S
C1030 C1029 1.287 . S
C1030 C1031 1.524 . S
C1030 H1049 0.913 . S
C1031 H1007 0.950 . S
C1031 C1030 1.524 . S
C1031 C1032 1.415 . S
C1032 H1008 0.950 . S
C1032 C1027 1.363 . S
C1032 C1031 1.415 . S
C1033 H1009 0.951 . S
C1033 C1034 1.366 . S
C1033 C1035 1.388 . S
C1034 C1033 1.366 . S
C1034 C1038 1.385 . S
C1035 H1010 0.951 . S
C1035 C1033 1.388 . S
C1035 C1036 1.366 . S
C1036 C1035 1.366 . S
C1036 C1037 1.414 . S
C1036 C1039 1.499 . S
C1037 H1011 0.950 . S
C1037 C1036 1.414 . S
C1037 C1038 1.374 . S
C1038 H1012 0.952 1_565 S
C1038 C1034 1.385 . S
C1038 C1037 1.374 . S
C1039 C1036 1.499 . S
C1039 C1040 1.373 . S
C1039 C1041 1.389 . S
C1040 H1013 0.950 . S
C1040 C1026 1.377 . S
C1040 C1039 1.373 . S
C1041 C1025 1.377 . S
C1041 C1039 1.389 . S
C1041 C1042 1.524 . S
C1042 C1041 1.524 . S
C1042 C1043 1.397 . S
C1042 C1047 1.363 . S
C1043 H1014 0.950 . S
C1043 C1042 1.397 . S
C1043 C1044 1.334 . S
C1044 H1015 0.950 1_655 S
C1044 C1043 1.334 . S
C1044 C1045 1.287 1_655 S
C1045 C1044 1.287 1_455 S
C1045 C1046 1.524 1_455 S
C1045 H1048 0.999 . S
C1046 H1016 0.950 1_655 S
C1046 C1045 1.524 1_655 S
C1046 C1047 1.415 . S
C1047 H1017 0.950 . S
C1047 C1042 1.363 . S
C1047 C1046 1.415 . S
H1048 C1045 0.999 . S
H1049 C1030 0.913 . S
H1050 C1068 0.951 . S
H1051 C1070 0.951 . S
H1052 C1072 0.950 . S
H1053 C1073 0.950 . S
H1054 C1075 0.950 . S
H1055 C1078 0.950 . S
H1056 C1079 0.950 . S
H1057 C1081 0.950 . S
H1058 C1082 0.950 . S
H1059 C1083 0.951 . S
H1060 C1085 0.951 . S
H1061 C1087 0.950 . S
H1062 C1088 0.950 . S
H1063 C1090 0.950 . S
H1064 C1093 0.950 . S
H1065 C1094 0.950 1_565 S
H1066 C1096 0.950 . S
H1067 C1097 0.950 . S
C1068 H1050 0.951 . S
C1068 C1069 1.366 . S
C1068 C1070 1.388 . S
C1069 C1068 1.366 . S
C1069 C1073 1.385 . S
C1070 H1051 0.951 . S
C1070 C1068 1.388 . S
C1070 C1071 1.366 . S
C1071 C1070 1.366 . S
C1071 C1072 1.414 . S
C1071 C1074 1.499 . S
C1072 H1052 0.950 . S
C1072 C1071 1.414 . S
C1072 C1073 1.374 . S
C1073 H1053 0.950 . S
C1073 C1069 1.385 . S
C1073 C1072 1.374 . S
C1074 C1071 1.499 . S
C1074 C1075 1.373 . S
C1074 C1076 1.389 . S
C1075 H1054 0.950 . S
C1075 C1074 1.373 . S
C1075 C1091 1.377 . S
C1076 C1074 1.389 . S
C1076 C1077 1.524 . S
C1076 C1090 1.377 . S
C1077 C1076 1.524 . S
C1077 C1078 1.397 . S
C1077 C1082 1.363 . S
C1078 H1055 0.950 . S
C1078 C1077 1.397 . S
C1078 C1079 1.334 . S
C1079 H1056 0.950 . S
C1079 C1078 1.334 . S
C1079 C1080 1.287 . S
C1080 C1079 1.287 . S
C1080 C1081 1.524 . S
C1080 H1099 0.913 . S
C1081 H1057 0.950 . S
C1081 C1080 1.524 . S
C1081 C1082 1.415 . S
C1082 H1058 0.950 . S
C1082 C1077 1.363 . S
C1082 C1081 1.415 . S
C1083 H1059 0.951 . S
C1083 C1084 1.366 . S
C1083 C1085 1.388 . S
C1084 C1083 1.366 . S
C1084 C1088 1.385 . S
C1085 H1060 0.951 . S
C1085 C1083 1.388 . S
C1085 C1086 1.366 . S
C1086 C1085 1.366 . S
C1086 C1087 1.414 . S
C1086 C1089 1.499 . S
C1087 H1061 0.950 . S
C1087 C1086 1.414 . S
C1087 C1088 1.374 . S
C1088 H1062 0.950 . S
C1088 C1084 1.385 . S
C1088 C1087 1.374 . S
C1089 C1086 1.499 . S
C1089 C1090 1.373 . S
C1089 C1091 1.389 . S
C1090 H1063 0.950 . S
C1090 C1076 1.377 . S
C1090 C1089 1.373 . S
C1091 C1075 1.377 . S
C1091 C1089 1.389 . S
C1091 C1092 1.524 . S
C1092 C1091 1.524 . S
C1092 C1093 1.397 . S
C1092 C1097 1.363 . S
C1093 H1064 0.950 . S
C1093 C1092 1.397 . S
C1093 C1094 1.336 . S
C1094 H1065 0.950 1_545 S
C1094 C1093 1.336 . S
C1094 C1095 1.285 1_545 S
C1095 C1094 1.285 1_565 S
C1095 C1096 1.524 . S
C1095 H1098 0.999 . S
C1096 H1066 0.950 . S
C1096 C1095 1.524 . S
C1096 C1097 1.415 1_565 S
C1097 H1067 0.950 . S
C1097 C1092 1.363 . S
C1097 C1096 1.415 1_545 S
H1098 C1095 0.999 . S
H1099 C1080 0.913 . S
H1100 C1118 0.951 . S
H1101 C1120 0.951 . S
H1102 C1122 0.950 . S
H1103 C1123 0.950 . S
H1104 C1125 0.950 . S
H1105 C1128 0.950 . S
H1106 C1129 0.950 . S
H1107 C1131 0.950 . S
H1108 C1132 0.950 . S
H1109 C1133 0.951 . S
H1110 C1135 0.951 . S
H1111 C1137 0.950 . S
H1112 C1138 0.950 . S
H1113 C1140 0.950 . S
H1114 C1143 0.950 . S
H1115 C1144 0.950 . S
H1116 C1146 0.950 . S
H1117 C1147 0.950 . S
C1118 H1100 0.951 . S
C1118 C1119 1.366 . S
C1118 C1120 1.388 . S
C1119 C1118 1.366 . S
C1119 C1123 1.385 . S
C1120 H1101 0.951 . S
C1120 C1118 1.388 . S
C1120 C1121 1.366 . S
C1121 C1120 1.366 . S
C1121 C1122 1.414 . S
C1121 C1124 1.499 . S
C1122 H1102 0.950 . S
C1122 C1121 1.414 . S
C1122 C1123 1.374 . S
C1123 H1103 0.950 . S
C1123 C1119 1.385 . S
C1123 C1122 1.374 . S
C1124 C1121 1.499 . S
C1124 C1125 1.373 . S
C1124 C1126 1.389 . S
C1125 H1104 0.950 . S
C1125 C1124 1.373 . S
C1125 C1141 1.377 . S
C1126 C1124 1.389 . S
C1126 C1127 1.524 . S
C1126 C1140 1.377 . S
C1127 C1126 1.524 . S
C1127 C1128 1.397 . S
C1127 C1132 1.363 . S
C1128 H1105 0.950 . S
C1128 C1127 1.397 . S
C1128 C1129 1.334 . S
C1129 H1106 0.950 . S
C1129 C1128 1.334 . S
C1129 C1130 1.287 . S
C1130 C1129 1.287 . S
C1130 C1131 1.524 . S
C1130 H1149 0.913 . S
C1131 H1107 0.950 . S
C1131 C1130 1.524 . S
C1131 C1132 1.415 . S
C1132 H1108 0.950 . S
C1132 C1127 1.363 . S
C1132 C1131 1.415 . S
C1133 H1109 0.951 . S
C1133 C1134 1.366 . S
C1133 C1135 1.388 . S
C1134 C1133 1.366 . S
C1134 C1138 1.385 . S
C1135 H1110 0.951 . S
C1135 C1133 1.388 . S
C1135 C1136 1.366 . S
C1136 C1135 1.366 . S
C1136 C1137 1.414 . S
C1136 C1139 1.499 . S
C1137 H1111 0.950 . S
C1137 C1136 1.414 . S
C1137 C1138 1.374 . S
C1138 H1112 0.950 . S
C1138 C1134 1.385 . S
C1138 C1137 1.374 . S
C1139 C1136 1.499 . S
C1139 C1140 1.373 . S
C1139 C1141 1.389 . S
C1140 H1113 0.950 . S
C1140 C1126 1.377 . S
C1140 C1139 1.373 . S
C1141 C1125 1.377 . S
C1141 C1139 1.389 . S
C1141 C1142 1.524 . S
C1142 C1141 1.524 . S
C1142 C1143 1.397 . S
C1142 C1147 1.363 . S
C1143 H1114 0.950 . S
C1143 C1142 1.397 . S
C1143 C1144 1.334 . S
C1144 H1115 0.950 . S
C1144 C1143 1.334 . S
C1144 C1145 1.287 . S
C1145 C1144 1.287 . S
C1145 C1146 1.524 . S
C1145 H1148 0.999 . S
C1146 H1116 0.950 . S
C1146 C1145 1.524 . S
C1146 C1147 1.415 . S
C1147 H1117 0.950 . S
C1147 C1142 1.363 . S
C1147 C1146 1.415 . S
H1148 C1145 0.999 . S
H1149 C1130 0.913 . S
H1150 C1168 0.951 . S
H1151 C1170 0.951 . S
H1152 C1172 0.950 . S
H1153 C1173 0.950 . S
H1154 C1175 0.950 . S
H1155 C1178 0.950 . S
H1156 C1179 0.950 . S
H1157 C1181 0.950 . S
H1158 C1182 0.950 . S
H1159 C1183 0.951 . S
H1160 C1185 0.951 . S
H1161 C1187 0.950 . S
H1162 C1188 0.950 . S
H1163 C1190 0.950 . S
H1164 C1193 0.950 . S
H1165 C1194 0.950 1_655 S
H1166 C1196 0.950 . S
H1167 C1197 0.950 . S
C1168 H1150 0.951 . S
C1168 C1169 1.366 . S
C1168 C1170 1.388 . S
C1169 C1168 1.366 . S
C1169 C1173 1.385 . S
C1170 H1151 0.951 . S
C1170 C1168 1.388 . S
C1170 C1171 1.366 . S
C1171 C1170 1.366 . S
C1171 C1172 1.414 . S
C1171 C1174 1.499 . S
C1172 H1152 0.950 . S
C1172 C1171 1.414 . S
C1172 C1173 1.374 . S
C1173 H1153 0.950 . S
C1173 C1169 1.385 . S
C1173 C1172 1.374 . S
C1174 C1171 1.499 . S
C1174 C1175 1.373 . S
C1174 C1176 1.389 . S
C1175 H1154 0.950 . S
C1175 C1174 1.373 . S
C1175 C1191 1.377 . S
C1176 C1174 1.389 . S
C1176 C1177 1.524 . S
C1176 C1190 1.377 . S
C1177 C1176 1.524 . S
C1177 C1178 1.397 . S
C1177 C1182 1.363 . S
C1178 H1155 0.950 . S
C1178 C1177 1.397 . S
C1178 C1179 1.334 . S
C1179 H1156 0.950 . S
C1179 C1178 1.334 . S
C1179 C1180 1.287 . S
C1180 C1179 1.287 . S
C1180 C1181 1.524 . S
C1180 H1199 0.913 . S
C1181 H1157 0.950 . S
C1181 C1180 1.524 . S
C1181 C1182 1.415 . S
C1182 H1158 0.950 . S
C1182 C1177 1.363 . S
C1182 C1181 1.415 . S
C1183 H1159 0.951 . S
C1183 C1184 1.366 . S
C1183 C1185 1.388 . S
C1184 C1183 1.366 . S
C1184 C1188 1.385 . S
C1185 H1160 0.951 . S
C1185 C1183 1.388 . S
C1185 C1186 1.366 . S
C1186 C1185 1.366 . S
C1186 C1187 1.414 . S
C1186 C1189 1.499 . S
C1187 H1161 0.950 . S
C1187 C1186 1.414 . S
C1187 C1188 1.374 . S
C1188 H1162 0.950 . S
C1188 C1184 1.385 . S
C1188 C1187 1.374 . S
C1189 C1186 1.499 . S
C1189 C1190 1.373 . S
C1189 C1191 1.389 . S
C1190 H1163 0.950 . S
C1190 C1176 1.377 . S
C1190 C1189 1.373 . S
C1191 C1175 1.377 . S
C1191 C1189 1.389 . S
C1191 C1192 1.524 . S
C1192 C1191 1.524 . S
C1192 C1193 1.397 . S
C1192 C1197 1.363 . S
C1193 H1164 0.950 . S
C1193 C1192 1.397 . S
C1193 C1194 1.334 . S
C1194 H1165 0.950 1_455 S
C1194 C1193 1.334 . S
C1194 C1195 1.287 . S
C1195 C1194 1.287 . S
C1195 C1196 1.524 . S
C1195 H1198 0.999 . S
C1196 H1166 0.950 . S
C1196 C1195 1.524 . S
C1196 C1197 1.415 . S
C1197 H1167 0.950 . S
C1197 C1192 1.363 . S
C1197 C1196 1.415 . S
H1198 C1195 0.999 . S
H1199 C1180 0.913 . S
H1200 C1218 0.951 . S
H1201 C1220 0.951 . S
H1202 C1222 0.950 . S
H1203 C1223 0.950 . S
H1204 C1225 0.950 . S
H1205 C1228 0.950 . S
H1206 C1229 0.950 . S
H1207 C1231 0.950 . S
H1208 C1232 0.950 . S
H1209 C1233 0.951 . S
H1210 C1235 0.951 . S
H1211 C1237 0.950 . S
H1212 C1238 0.950 . S
H1213 C1240 0.950 . S
H1214 C1243 0.950 . S
H1215 C1244 0.950 . S
H1216 C1246 0.950 . S
H1217 C1247 0.950 . S
C1218 H1200 0.951 . S
C1218 C1219 1.366 . S
C1218 C1220 1.388 . S
C1219 C1218 1.366 . S
C1219 C1223 1.385 . S
C1220 H1201 0.951 . S
C1220 C1218 1.388 . S
C1220 C1221 1.366 . S
C1221 C1220 1.366 . S
C1221 C1222 1.414 . S
C1221 C1224 1.499 . S
C1222 H1202 0.950 . S
C1222 C1221 1.414 . S
C1222 C1223 1.374 . S
C1223 H1203 0.950 . S
C1223 C1219 1.385 . S
C1223 C1222 1.374 . S
C1224 C1221 1.499 . S
C1224 C1225 1.373 . S
C1224 C1226 1.389 . S
C1225 H1204 0.950 . S
C1225 C1224 1.373 . S
C1225 C1241 1.377 . S
C1226 C1224 1.389 . S
C1226 C1227 1.524 . S
C1226 C1240 1.377 . S
C1227 C1226 1.524 . S
C1227 C1228 1.397 . S
C1227 C1232 1.363 . S
C1228 H1205 0.950 . S
C1228 C1227 1.397 . S
C1228 C1229 1.334 . S
C1229 H1206 0.950 . S
C1229 C1228 1.334 . S
C1229 C1230 1.287 . S
C1230 C1229 1.287 . S
C1230 C1231 1.524 . S
C1230 H1249 0.913 . S
C1231 H1207 0.950 . S
C1231 C1230 1.524 . S
C1231 C1232 1.415 . S
C1232 H1208 0.950 . S
C1232 C1227 1.363 . S
C1232 C1231 1.415 . S
C1233 H1209 0.951 . S
C1233 C1234 1.366 . S
C1233 C1235 1.388 . S
C1234 C1233 1.366 . S
C1234 C1238 1.385 . S
C1235 H1210 0.951 . S
C1235 C1233 1.388 . S
C1235 C1236 1.366 . S
C1236 C1235 1.366 . S
C1236 C1237 1.414 . S
C1236 C1239 1.499 . S
C1237 H1211 0.950 . S
C1237 C1236 1.414 . S
C1237 C1238 1.374 . S
C1238 H1212 0.950 . S
C1238 C1234 1.385 . S
C1238 C1237 1.374 . S
C1239 C1236 1.499 . S
C1239 C1240 1.373 . S
C1239 C1241 1.389 . S
C1240 H1213 0.950 . S
C1240 C1226 1.377 . S
C1240 C1239 1.373 . S
C1241 C1225 1.377 . S
C1241 C1239 1.389 . S
C1241 C1242 1.524 . S
C1242 C1241 1.524 . S
C1242 C1243 1.397 . S
C1242 C1247 1.363 . S
C1243 H1214 0.950 . S
C1243 C1242 1.397 . S
C1243 C1244 1.334 . S
C1244 H1215 0.950 . S
C1244 C1243 1.334 . S
C1244 C1245 1.287 . S
C1245 C1244 1.287 . S
C1245 C1246 1.524 . S
C1245 H1248 0.999 . S
C1246 H1216 0.950 . S
C1246 C1245 1.524 . S
C1246 C1247 1.415 . S
C1247 H1217 0.950 . S
C1247 C1242 1.363 . S
C1247 C1246 1.415 . S
H1248 C1245 0.999 . S
H1249 C1230 0.913 . S
H1250 C1268 0.951 . S
H1251 C1270 0.951 . S
H1252 C1272 0.950 . S
H1253 C1273 0.950 . S
H1254 C1275 0.950 . S
H1255 C1278 0.950 . S
H1256 C1279 0.950 . S
H1257 C1281 0.950 . S
H1258 C1282 0.950 . S
H1259 C1283 0.951 . S
H1260 C1285 0.951 . S
H1261 C1287 0.950 . S
H1262 C1288 0.950 . S
H1263 C1290 0.950 . S
H1264 C1293 0.950 . S
H1265 C1294 0.950 . S
H1266 C1296 0.950 . S
H1267 C1297 0.950 . S
C1268 H1250 0.951 . S
C1268 C1269 1.366 . S
C1268 C1270 1.388 . S
C1269 C1268 1.366 . S
C1269 C1273 1.385 . S
C1270 H1251 0.951 . S
C1270 C1268 1.388 . S
C1270 C1271 1.366 . S
C1271 C1270 1.366 . S
C1271 C1272 1.414 . S
C1271 C1274 1.499 . S
C1272 H1252 0.950 . S
C1272 C1271 1.414 . S
C1272 C1273 1.374 . S
C1273 H1253 0.950 . S
C1273 C1269 1.385 . S
C1273 C1272 1.374 . S
C1274 C1271 1.499 . S
C1274 C1275 1.373 . S
C1274 C1276 1.389 . S
C1275 H1254 0.950 . S
C1275 C1274 1.373 . S
C1275 C1291 1.377 . S
C1276 C1274 1.389 . S
C1276 C1277 1.524 . S
C1276 C1290 1.377 . S
C1277 C1276 1.524 . S
C1277 C1278 1.397 . S
C1277 C1282 1.363 . S
C1278 H1255 0.950 . S
C1278 C1277 1.397 . S
C1278 C1279 1.334 . S
C1279 H1256 0.950 . S
C1279 C1278 1.334 . S
C1279 C1280 1.287 . S
C1280 C1279 1.287 . S
C1280 C1281 1.524 . S
C1280 H1299 0.913 . S
C1281 H1257 0.950 . S
C1281 C1280 1.524 . S
C1281 C1282 1.415 . S
C1282 H1258 0.950 . S
C1282 C1277 1.363 . S
C1282 C1281 1.415 . S
C1283 H1259 0.951 . S
C1283 C1284 1.366 . S
C1283 C1285 1.388 . S
C1284 C1283 1.366 . S
C1284 C1288 1.385 . S
C1285 H1260 0.951 . S
C1285 C1283 1.388 . S
C1285 C1286 1.366 . S
C1286 C1285 1.366 . S
C1286 C1287 1.414 . S
C1286 C1289 1.499 . S
C1287 H1261 0.950 . S
C1287 C1286 1.414 . S
C1287 C1288 1.374 . S
C1288 H1262 0.950 . S
C1288 C1284 1.385 . S
C1288 C1287 1.374 . S
C1289 C1286 1.499 . S
C1289 C1290 1.373 . S
C1289 C1291 1.389 . S
C1290 H1263 0.950 . S
C1290 C1276 1.377 . S
C1290 C1289 1.373 . S
C1291 C1275 1.377 . S
C1291 C1289 1.389 . S
C1291 C1292 1.524 . S
C1292 C1291 1.524 . S
C1292 C1293 1.397 . S
C1292 C1297 1.363 . S
C1293 H1264 0.950 . S
C1293 C1292 1.397 . S
C1293 C1294 1.334 1_545 S
C1294 H1265 0.950 . S
C1294 C1293 1.334 1_565 S
C1294 C1295 1.287 . S
C1295 C1294 1.287 . S
C1295 C1296 1.524 . S
C1295 H1298 0.999 . S
C1296 H1266 0.950 . S
C1296 C1295 1.524 . S
C1296 C1297 1.415 1_565 S
C1297 H1267 0.950 . S
C1297 C1292 1.363 . S
C1297 C1296 1.415 1_545 S
H1298 C1295 0.999 . S
H1299 C1280 0.913 . S
H1300 C1318 0.951 . S
H1301 C1320 0.951 . S
H1302 C1322 0.950 . S
H1303 C1323 0.950 . S
H1304 C1325 0.950 . S
H1305 C1328 0.950 . S
H1306 C1329 0.950 . S
H1307 C1331 0.950 . S
H1308 C1332 0.950 . S
H1309 C1333 0.951 . S
H1310 C1335 0.951 . S
H1311 C1337 0.950 . S
H1312 C1338 0.950 . S
H1313 C1340 0.950 . S
H1314 C1343 0.950 . S
H1315 C1344 0.950 . S
H1316 C1346 0.950 . S
H1317 C1347 0.950 . S
C1318 H1300 0.951 . S
C1318 C1319 1.366 . S
C1318 C1320 1.388 . S
C1319 C1318 1.366 . S
C1319 C1323 1.385 . S
C1320 H1301 0.951 . S
C1320 C1318 1.388 . S
C1320 C1321 1.366 . S
C1321 C1320 1.366 . S
C1321 C1322 1.414 . S
C1321 C1324 1.499 . S
C1322 H1302 0.950 . S
C1322 C1321 1.414 . S
C1322 C1323 1.374 . S
C1323 H1303 0.950 . S
C1323 C1319 1.385 . S
C1323 C1322 1.374 . S
C1324 C1321 1.499 . S
C1324 C1325 1.373 . S
C1324 C1326 1.389 . S
C1325 H1304 0.950 . S
C1325 C1324 1.373 . S
C1325 C1341 1.377 . S
C1326 C1324 1.389 . S
C1326 C1327 1.524 . S
C1326 C1340 1.377 . S
C1327 C1326 1.524 . S
C1327 C1328 1.397 . S
C1327 C1332 1.363 . S
C1328 H1305 0.950 . S
C1328 C1327 1.397 . S
C1328 C1329 1.334 . S
C1329 H1306 0.950 . S
C1329 C1328 1.334 . S
C1329 C1330 1.287 . S
C1330 C1329 1.287 . S
C1330 C1331 1.524 . S
C1330 H1349 0.913 . S
C1331 H1307 0.950 . S
C1331 C1330 1.524 . S
C1331 C1332 1.415 . S
C1332 H1308 0.950 . S
C1332 C1327 1.363 . S
C1332 C1331 1.415 . S
C1333 H1309 0.951 . S
C1333 C1334 1.366 . S
C1333 C1335 1.388 . S
C1334 C1333 1.366 . S
C1334 C1338 1.385 . S
C1335 H1310 0.951 . S
C1335 C1333 1.388 . S
C1335 C1336 1.366 . S
C1336 C1335 1.366 . S
C1336 C1337 1.414 . S
C1336 C1339 1.499 . S
C1337 H1311 0.950 . S
C1337 C1336 1.414 . S
C1337 C1338 1.374 . S
C1338 H1312 0.950 . S
C1338 C1334 1.385 . S
C1338 C1337 1.374 . S
C1339 C1336 1.499 . S
C1339 C1340 1.373 . S
C1339 C1341 1.389 . S
C1340 H1313 0.950 . S
C1340 C1326 1.377 . S
C1340 C1339 1.373 . S
C1341 C1325 1.377 . S
C1341 C1339 1.389 . S
C1341 C1342 1.524 . S
C1342 C1341 1.524 . S
C1342 C1343 1.397 . S
C1342 C1347 1.363 . S
C1343 H1314 0.950 . S
C1343 C1342 1.397 . S
C1343 C1344 1.334 . S
C1344 H1315 0.950 . S
C1344 C1343 1.334 . S
C1344 C1345 1.287 . S
C1345 C1344 1.287 . S
C1345 C1346 1.524 . S
C1345 H1348 0.999 . S
C1346 H1316 0.950 . S
C1346 C1345 1.524 . S
C1346 C1347 1.415 . S
C1347 H1317 0.950 . S
C1347 C1342 1.363 . S
C1347 C1346 1.415 . S
H1348 C1345 0.999 . S
H1349 C1330 0.913 . S
H1350 C1368 0.951 . S
H1351 C1370 0.951 . S
H1352 C1372 0.950 . S
H1353 C1373 0.950 . S
H1354 C1375 0.950 . S
H1355 C1378 0.950 . S
H1356 C1379 0.950 . S
H1357 C1381 0.950 . S
H1358 C1382 0.950 . S
H1359 C1383 0.951 . S
H1360 C1385 0.951 . S
H1361 C1387 0.950 . S
H1362 C1388 0.950 . S
H1363 C1390 0.950 . S
H1364 C1393 0.950 . S
H1365 C1394 0.950 . S
H1366 C1396 0.950 . S
H1367 C1397 0.950 . S
C1368 H1350 0.951 . S
C1368 C1369 1.366 . S
C1368 C1370 1.388 . S
C1369 C1368 1.366 . S
C1369 C1373 1.385 . S
C1370 H1351 0.951 . S
C1370 C1368 1.388 . S
C1370 C1371 1.366 . S
C1371 C1370 1.366 . S
C1371 C1372 1.414 . S
C1371 C1374 1.499 . S
C1372 H1352 0.950 . S
C1372 C1371 1.414 . S
C1372 C1373 1.374 . S
C1373 H1353 0.950 . S
C1373 C1369 1.385 . S
C1373 C1372 1.374 . S
C1374 C1371 1.499 . S
C1374 C1375 1.373 . S
C1374 C1376 1.389 . S
C1375 H1354 0.950 . S
C1375 C1374 1.373 . S
C1375 C1391 1.377 . S
C1376 C1374 1.389 . S
C1376 C1377 1.524 . S
C1376 C1390 1.377 . S
C1377 C1376 1.524 . S
C1377 C1378 1.397 . S
C1377 C1382 1.363 . S
C1378 H1355 0.950 . S
C1378 C1377 1.397 . S
C1378 C1379 1.334 . S
C1379 H1356 0.950 . S
C1379 C1378 1.334 . S
C1379 C1380 1.287 . S
C1380 C1379 1.287 . S
C1380 C1381 1.524 . S
C1380 H1399 0.913 . S
C1381 H1357 0.950 . S
C1381 C1380 1.524 . S
C1381 C1382 1.415 . S
C1382 H1358 0.950 . S
C1382 C1377 1.363 . S
C1382 C1381 1.415 . S
C1383 H1359 0.951 . S
C1383 C1384 1.366 . S
C1383 C1385 1.388 . S
C1384 C1383 1.366 . S
C1384 C1388 1.385 . S
C1385 H1360 0.951 . S
C1385 C1383 1.388 . S
C1385 C1386 1.366 . S
C1386 C1385 1.366 . S
C1386 C1387 1.414 . S
C1386 C1389 1.499 . S
C1387 H1361 0.950 . S
C1387 C1386 1.414 . S
C1387 C1388 1.374 . S
C1388 H1362 0.950 . S
C1388 C1384 1.385 . S
C1388 C1387 1.374 . S
C1389 C1386 1.499 . S
C1389 C1390 1.373 . S
C1389 C1391 1.389 . S
C1390 H1363 0.950 . S
C1390 C1376 1.377 . S
C1390 C1389 1.373 . S
C1391 C1375 1.377 . S
C1391 C1389 1.389 . S
C1391 C1392 1.524 . S
C1392 C1391 1.524 . S
C1392 C1393 1.397 . S
C1392 C1397 1.363 . S
C1393 H1364 0.950 . S
C1393 C1392 1.397 . S
C1393 C1394 1.334 . S
C1394 H1365 0.950 . S
C1394 C1393 1.334 . S
C1394 C1395 1.287 . S
C1395 C1394 1.287 . S
C1395 C1396 1.524 . S
C1395 H1398 0.999 . S
C1396 H1366 0.950 . S
C1396 C1395 1.524 . S
C1396 C1397 1.415 . S
C1397 H1367 0.950 . S
C1397 C1392 1.363 . S
C1397 C1396 1.415 . S
H1398 C1395 0.999 . S
H1399 C1380 0.913 . S
H1400 C1418 0.951 . S
H1401 C1420 0.951 . S
H1402 C1422 0.950 . S
H1403 C1423 0.950 . S
H1404 C1425 0.950 . S
H1405 C1428 0.950 . S
H1406 C1429 0.950 . S
H1407 C1431 0.950 . S
H1408 C1432 0.950 . S
H1409 C1433 0.951 . S
H1410 C1435 0.951 . S
H1411 C1437 0.950 . S
H1412 C1438 0.950 . S
H1413 C1440 0.950 . S
H1414 C1443 0.950 . S
H1415 C1444 0.950 . S
H1416 C1446 0.950 . S
H1417 C1447 0.950 . S
C1418 H1400 0.951 . S
C1418 C1419 1.366 . S
C1418 C1420 1.388 . S
C1419 C1418 1.366 . S
C1419 C1423 1.385 . S
C1420 H1401 0.951 . S
C1420 C1418 1.388 . S
C1420 C1421 1.366 . S
C1421 C1420 1.366 . S
C1421 C1422 1.414 . S
C1421 C1424 1.499 . S
C1422 H1402 0.950 . S
C1422 C1421 1.414 . S
C1422 C1423 1.374 . S
C1423 H1403 0.950 . S
C1423 C1419 1.385 . S
C1423 C1422 1.374 . S
C1424 C1421 1.499 . S
C1424 C1425 1.373 . S
C1424 C1426 1.389 . S
C1425 H1404 0.950 . S
C1425 C1424 1.373 . S
C1425 C1441 1.377 . S
C1426 C1424 1.389 . S
C1426 C1427 1.524 . S
C1426 C1440 1.377 . S
C1427 C1426 1.524 . S
C1427 C1428 1.397 . S
C1427 C1432 1.363 . S
C1428 H1405 0.950 . S
C1428 C1427 1.397 . S
C1428 C1429 1.334 . S
C1429 H1406 0.950 . S
C1429 C1428 1.334 . S
C1429 C1430 1.287 . S
C1430 C1429 1.287 . S
C1430 C1431 1.524 . S
C1430 H1449 0.913 . S
C1431 H1407 0.950 . S
C1431 C1430 1.524 . S
C1431 C1432 1.415 . S
C1432 H1408 0.950 . S
C1432 C1427 1.363 . S
C1432 C1431 1.415 . S
C1433 H1409 0.951 . S
C1433 C1434 1.366 . S
C1433 C1435 1.388 . S
C1434 C1433 1.366 . S
C1434 C1438 1.385 . S
C1435 H1410 0.951 . S
C1435 C1433 1.388 . S
C1435 C1436 1.366 . S
C1436 C1435 1.366 . S
C1436 C1437 1.414 . S
C1436 C1439 1.499 . S
C1437 H1411 0.950 . S
C1437 C1436 1.414 . S
C1437 C1438 1.374 . S
C1438 H1412 0.950 . S
C1438 C1434 1.385 . S
C1438 C1437 1.374 . S
C1439 C1436 1.499 . S
C1439 C1440 1.373 . S
C1439 C1441 1.389 . S
C1440 H1413 0.950 . S
C1440 C1426 1.377 . S
C1440 C1439 1.373 . S
C1441 C1425 1.377 . S
C1441 C1439 1.389 . S
C1441 C1442 1.524 . S
C1442 C1441 1.524 . S
C1442 C1443 1.397 . S
C1442 C1447 1.363 . S
C1443 H1414 0.950 . S
C1443 C1442 1.397 . S
C1443 C1444 1.334 . S
C1444 H1415 0.950 . S
C1444 C1443 1.334 . S
C1444 C1445 1.287 . S
C1445 C1444 1.287 . S
C1445 C1446 1.524 . S
C1445 H1448 0.999 1_556 S
C1446 H1416 0.950 . S
C1446 C1445 1.524 . S
C1446 C1447 1.415 . S
C1447 H1417 0.950 . S
C1447 C1442 1.363 . S
C1447 C1446 1.415 . S
H1448 C1445 0.999 1_554 S
H1449 C1430 0.913 . S
H1450 C1468 0.951 . S
H1451 C1470 0.951 . S
H1452 C1472 0.950 . S
H1453 C1473 0.950 . S
H1454 C1475 0.950 . S
H1455 C1478 0.950 . S
H1456 C1479 0.950 . S
H1457 C1481 0.950 . S
H1458 C1482 0.950 . S
H1459 C1483 0.951 . S
H1460 C1485 0.951 . S
H1461 C1487 0.950 . S
H1462 C1488 0.950 . S
H1463 C1490 0.950 . S
H1464 C1493 0.950 . S
H1465 C1494 0.950 1_556 S
H1466 C1496 0.965 . S
H1467 C1497 0.950 . S
C1468 H1450 0.951 . S
C1468 C1469 1.366 . S
C1468 C1470 1.388 . S
C1469 C1468 1.366 . S
C1469 C1473 1.385 . S
C1470 H1451 0.951 . S
C1470 C1468 1.388 . S
C1470 C1471 1.366 . S
C1471 C1470 1.366 . S
C1471 C1472 1.414 . S
C1471 C1474 1.499 . S
C1472 H1452 0.950 . S
C1472 C1471 1.414 . S
C1472 C1473 1.374 . S
C1473 H1453 0.950 . S
C1473 C1469 1.385 . S
C1473 C1472 1.374 . S
C1474 C1471 1.499 . S
C1474 C1475 1.373 . S
C1474 C1476 1.389 . S
C1475 H1454 0.950 . S
C1475 C1474 1.373 . S
C1475 C1491 1.377 . S
C1476 C1474 1.389 . S
C1476 C1477 1.524 . S
C1476 C1490 1.377 . S
C1477 C1476 1.524 . S
C1477 C1478 1.397 . S
C1477 C1482 1.363 . S
C1478 H1455 0.950 . S
C1478 C1477 1.397 . S
C1478 C1479 1.334 . S
C1479 H1456 0.950 . S
C1479 C1478 1.334 . S
C1479 C1480 1.287 . S
C1480 C1479 1.287 . S
C1480 C1481 1.524 . S
C1480 H1499 0.913 . S
C1481 H1457 0.950 . S
C1481 C1480 1.524 . S
C1481 C1482 1.415 . S
C1482 H1458 0.950 . S
C1482 C1477 1.363 . S
C1482 C1481 1.415 . S
C1483 H1459 0.951 . S
C1483 C1484 1.366 . S
C1483 C1485 1.388 . S
C1484 C1483 1.366 . S
C1484 C1488 1.385 . S
C1485 H1460 0.951 . S
C1485 C1483 1.388 . S
C1485 C1486 1.366 . S
C1486 C1485 1.366 . S
C1486 C1487 1.414 . S
C1486 C1489 1.499 . S
C1487 H1461 0.950 . S
C1487 C1486 1.414 . S
C1487 C1488 1.374 . S
C1488 H1462 0.950 . S
C1488 C1484 1.385 . S
C1488 C1487 1.374 . S
C1489 C1486 1.499 . S
C1489 C1490 1.373 . S
C1489 C1491 1.389 . S
C1490 H1463 0.950 . S
C1490 C1476 1.377 . S
C1490 C1489 1.373 . S
C1491 C1475 1.377 . S
C1491 C1489 1.389 . S
C1491 C1492 1.524 . S
C1492 C1491 1.524 . S
C1492 C1493 1.397 . S
C1492 C1497 1.363 . S
C1493 H1464 0.950 . S
C1493 C1492 1.397 . S
C1493 C1494 1.334 . S
C1494 H1465 0.950 1_554 S
C1494 C1493 1.334 . S
C1494 C1495 1.287 1_554 S
C1495 C1494 1.287 1_556 S
C1495 C1496 1.524 1_556 S
C1495 H1498 0.999 . S
C1496 H1466 0.965 . S
C1496 C1495 1.524 1_554 S
C1496 C1497 1.415 . S
C1497 H1467 0.950 . S
C1497 C1492 1.363 . S
C1497 C1496 1.415 . S
H1498 C1495 0.999 . S
H1499 C1480 0.913 . S
H1500 C1518 0.951 . S
H1501 C1520 0.951 . S
H1502 C1522 0.950 . S
H1503 C1523 0.950 . S
H1504 C1525 0.950 . S
H1505 C1528 0.950 . S
H1506 C1529 0.950 . S
H1507 C1531 0.950 . S
H1508 C1532 0.950 . S
H1509 C1533 0.951 . S
H1510 C1535 0.951 . S
H1511 C1537 0.950 . S
H1512 C1538 0.950 . S
H1513 C1540 0.950 . S
H1514 C1543 0.950 . S
H1515 C1544 0.950 . S
H1516 C1546 0.988 . S
H1517 C1547 0.950 . S
C1518 H1500 0.951 . S
C1518 C1519 1.366 . S
C1518 C1520 1.388 . S
C1519 C1518 1.366 . S
C1519 C1523 1.385 . S
C1520 H1501 0.951 . S
C1520 C1518 1.388 . S
C1520 C1521 1.366 . S
C1521 C1520 1.366 . S
C1521 C1522 1.414 . S
C1521 C1524 1.499 . S
C1522 H1502 0.950 . S
C1522 C1521 1.414 . S
C1522 C1523 1.374 . S
C1523 H1503 0.950 . S
C1523 C1519 1.385 . S
C1523 C1522 1.374 . S
C1524 C1521 1.499 . S
C1524 C1525 1.373 . S
C1524 C1526 1.389 . S
C1525 H1504 0.950 . S
C1525 C1524 1.373 . S
C1525 C1541 1.377 . S
C1526 C1524 1.389 . S
C1526 C1527 1.524 . S
C1526 C1540 1.377 . S
C1527 C1526 1.524 . S
C1527 C1528 1.397 . S
C1527 C1532 1.363 . S
C1528 H1505 0.950 . S
C1528 C1527 1.397 . S
C1528 C1529 1.334 . S
C1529 H1506 0.950 . S
C1529 C1528 1.334 . S
C1529 C1530 1.287 . S
C1530 C1529 1.287 . S
C1530 C1531 1.524 . S
C1530 H1549 0.913 . S
C1531 H1507 0.950 . S
C1531 C1530 1.524 . S
C1531 C1532 1.415 . S
C1532 H1508 0.950 . S
C1532 C1527 1.363 . S
C1532 C1531 1.415 . S
C1533 H1509 0.951 . S
C1533 C1534 1.366 . S
C1533 C1535 1.388 . S
C1534 C1533 1.366 . S
C1534 C1538 1.385 . S
C1535 H1510 0.951 . S
C1535 C1533 1.388 . S
C1535 C1536 1.366 . S
C1536 C1535 1.366 . S
C1536 C1537 1.414 . S
C1536 C1539 1.499 . S
C1537 H1511 0.950 . S
C1537 C1536 1.414 . S
C1537 C1538 1.374 . S
C1538 H1512 0.950 . S
C1538 C1534 1.385 . S
C1538 C1537 1.374 . S
C1539 C1536 1.499 . S
C1539 C1540 1.373 . S
C1539 C1541 1.389 . S
C1540 H1513 0.950 . S
C1540 C1526 1.377 . S
C1540 C1539 1.373 . S
C1541 C1525 1.377 . S
C1541 C1539 1.389 . S
C1541 C1542 1.524 . S
C1542 C1541 1.524 . S
C1542 C1543 1.397 . S
C1542 C1547 1.363 . S
C1543 H1514 0.950 . S
C1543 C1542 1.397 . S
C1543 C1544 1.334 . S
C1544 H1515 0.950 . S
C1544 C1543 1.334 . S
C1544 C1545 1.287 . S
C1545 C1544 1.287 . S
C1545 C1546 1.524 . S
C1545 H1548 0.999 . S
C1546 H1516 0.988 . S
C1546 C1545 1.524 . S
C1546 C1547 1.415 . S
C1547 H1517 0.950 . S
C1547 C1542 1.363 . S
C1547 C1546 1.415 . S
H1548 C1545 0.999 . S
H1549 C1530 0.913 . S
H1550 C1568 0.951 . S
H1551 C1570 0.951 . S
H1552 C1572 0.950 . S
H1553 C1573 0.950 . S
H1554 C1575 0.950 . S
H1555 C1578 0.950 . S
H1556 C1579 0.950 . S
H1557 C1581 0.950 . S
H1558 C1582 0.950 . S
H1559 C1583 0.951 . S
H1560 C1585 0.951 . S
H1561 C1587 0.950 . S
H1562 C1588 0.950 . S
H1563 C1590 0.950 . S
H1564 C1593 0.950 . S
H1565 C1594 0.950 . S
H1566 C1596 0.950 . S
H1567 C1597 0.950 . S
C1568 H1550 0.951 . S
C1568 C1569 1.366 . S
C1568 C1570 1.388 . S
C1569 C1568 1.366 . S
C1569 C1573 1.385 . S
C1570 H1551 0.951 . S
C1570 C1568 1.388 . S
C1570 C1571 1.366 . S
C1571 C1570 1.366 . S
C1571 C1572 1.414 . S
C1571 C1574 1.499 . S
C1572 H1552 0.950 . S
C1572 C1571 1.414 . S
C1572 C1573 1.374 . S
C1573 H1553 0.950 . S
C1573 C1569 1.385 . S
C1573 C1572 1.374 . S
C1574 C1571 1.499 . S
C1574 C1575 1.373 . S
C1574 C1576 1.389 . S
C1575 H1554 0.950 . S
C1575 C1574 1.373 . S
C1575 C1591 1.377 . S
C1576 C1574 1.389 . S
C1576 C1577 1.524 . S
C1576 C1590 1.377 . S
C1577 C1576 1.524 . S
C1577 C1578 1.397 . S
C1577 C1582 1.363 . S
C1578 H1555 0.950 . S
C1578 C1577 1.397 . S
C1578 C1579 1.334 . S
C1579 H1556 0.950 . S
C1579 C1578 1.334 . S
C1579 C1580 1.287 . S
C1580 C1579 1.287 . S
C1580 C1581 1.524 . S
C1580 H1599 0.913 . S
C1581 H1557 0.950 . S
C1581 C1580 1.524 . S
C1581 C1582 1.415 . S
C1582 H1558 0.950 . S
C1582 C1577 1.363 . S
C1582 C1581 1.415 . S
C1583 H1559 0.951 . S
C1583 C1584 1.366 . S
C1583 C1585 1.388 . S
C1584 C1583 1.366 . S
C1584 C1588 1.385 . S
C1585 H1560 0.951 . S
C1585 C1583 1.388 . S
C1585 C1586 1.366 . S
C1586 C1585 1.366 . S
C1586 C1587 1.414 . S
C1586 C1589 1.499 . S
C1587 H1561 0.950 . S
C1587 C1586 1.414 . S
C1587 C1588 1.374 . S
C1588 H1562 0.950 . S
C1588 C1584 1.385 . S
C1588 C1587 1.374 . S
C1589 C1586 1.499 . S
C1589 C1590 1.373 . S
C1589 C1591 1.389 . S
C1590 H1563 0.950 . S
C1590 C1576 1.377 . S
C1590 C1589 1.373 . S
C1591 C1575 1.377 . S
C1591 C1589 1.389 . S
C1591 C1592 1.524 . S
C1592 C1591 1.524 . S
C1592 C1593 1.397 . S
C1592 C1597 1.363 . S
C1593 H1564 0.950 . S
C1593 C1592 1.397 . S
C1593 C1594 1.334 . S
C1594 H1565 0.950 . S
C1594 C1593 1.334 . S
C1594 C1595 1.287 . S
C1595 C1594 1.287 . S
C1595 C1596 1.524 . S
C1595 H1598 0.999 . S
C1596 H1566 0.950 . S
C1596 C1595 1.524 . S
C1596 C1597 1.415 . S
C1597 H1567 0.950 . S
C1597 C1592 1.363 . S
C1597 C1596 1.415 . S
H1598 C1595 0.999 . S
H1599 C1580 0.913 . S
C419 C21 1.528 . S
C434 C339 1.534 . S
C469 C61 1.344 . S
C484 C342 1.299 . S
C534 C378 1.653 . S
C519 C82 1.649 . S
C569 C135 1.649 . S
C584 C398 1.627 . S
C634 C352 1.770 . S
C619 C15 1.804 . S
C684 C329 1.608 . S
C669 C42 1.625 . S
C734 C382 1.529 . S
C719 C101 1.622 . S
C784 C362 1.342 . S
C769 C122 1.402 . S
C819 C2 1.359 . S
C834 C392 1.339 . S
C884 C358 1.505 . S
C869 C95 1.526 . S
C919 C141 1.666 . S
C934 C324 1.626 . S
C969 C55 1.344 . S
C984 C372 1.311 . S
C1034 C338 1.553 . S
C1019 C181 1.596 . S
C1069 C202 1.318 . S
C1084 C344 1.278 . S
C1119 C255 1.693 . S
C1134 C379 1.666 . S
C1169 C295 1.626 . S
C1184 C399 1.607 . S
C1219 C175 1.799 . S
C1234 C349 1.761 . S
C1284 C332 1.620 . S
C1269 C221 1.638 . S
C1334 C384 1.461 . S
C1319 C242 1.578 . S
C1384 C364 1.402 . S
C1369 C301 1.451 . S
C1419 C162 1.357 . S
C1434 C389 1.301 . S
C1484 C359 1.552 . S
C1469 C261 1.565 . S
C1534 C322 1.597 . S
C1519 C282 1.649 . S
C1569 C215 1.382 . S
C1584 C369 1.350 . S
