# Generated by pormake.
# Topology ibd, (4,6)-cn, num edge types: 1
# Building blocks:
#     Node 0, Type 0, BuildingBlock: QUQFOY_clean_sbu_3, # of connection points: 4
#     Node 1, Type 0, BuildingBlock: QUQFOY_clean_sbu_3, # of connection points: 4
#     Node 2, Type 0, BuildingBlock: QUQFOY_clean_sbu_3, # of connection points: 4
#     Node 3, Type 0, BuildingBlock: QUQFOY_clean_sbu_3, # of connection points: 4
#     Node 4, Type 0, BuildingBlock: QUQFOY_clean_sbu_3, # of connection points: 4
#     Node 5, Type 0, BuildingBlock: QUQFOY_clean_sbu_3, # of connection points: 4
#     Node 6, Type 0, BuildingBlock: QUQFOY_clean_sbu_3, # of connection points: 4
#     Node 7, Type 0, BuildingBlock: QUQFOY_clean_sbu_3, # of connection points: 4
#     Node 8, Type 0, BuildingBlock: QUQFOY_clean_sbu_3, # of connection points: 4
#     Node 9, Type 0, BuildingBlock: QUQFOY_clean_sbu_3, # of connection points: 4
#     Node 10, Type 0, BuildingBlock: QUQFOY_clean_sbu_3, # of connection points: 4
#     Node 11, Type 0, BuildingBlock: QUQFOY_clean_sbu_3, # of connection points: 4
#     Node 12, Type 0, BuildingBlock: QUQFOY_clean_sbu_3, # of connection points: 4
#     Node 13, Type 0, BuildingBlock: QUQFOY_clean_sbu_3, # of connection points: 4
#     Node 14, Type 0, BuildingBlock: QUQFOY_clean_sbu_3, # of connection points: 4
#     Node 15, Type 0, BuildingBlock: QUQFOY_clean_sbu_3, # of connection points: 4
#     Node 16, Type 0, BuildingBlock: QUQFOY_clean_sbu_3, # of connection points: 4
#     Node 17, Type 0, BuildingBlock: QUQFOY_clean_sbu_3, # of connection points: 4
#     Node 18, Type 0, BuildingBlock: QUQFOY_clean_sbu_3, # of connection points: 4
#     Node 19, Type 0, BuildingBlock: QUQFOY_clean_sbu_3, # of connection points: 4
#     Node 20, Type 0, BuildingBlock: QUQFOY_clean_sbu_3, # of connection points: 4
#     Node 21, Type 0, BuildingBlock: QUQFOY_clean_sbu_3, # of connection points: 4
#     Node 22, Type 0, BuildingBlock: QUQFOY_clean_sbu_3, # of connection points: 4
#     Node 23, Type 0, BuildingBlock: QUQFOY_clean_sbu_3, # of connection points: 4
#     Node 24, Type 1, BuildingBlock: OJICUG_clean_sbu_0, # of connection points: 6
#     Node 25, Type 1, BuildingBlock: OJICUG_clean_sbu_0, # of connection points: 6
#     Node 26, Type 1, BuildingBlock: OJICUG_clean_sbu_0, # of connection points: 6
#     Node 27, Type 1, BuildingBlock: OJICUG_clean_sbu_0, # of connection points: 6
#     Node 28, Type 1, BuildingBlock: OJICUG_clean_sbu_0, # of connection points: 6
#     Node 29, Type 1, BuildingBlock: OJICUG_clean_sbu_0, # of connection points: 6
#     Node 30, Type 1, BuildingBlock: OJICUG_clean_sbu_0, # of connection points: 6
#     Node 31, Type 1, BuildingBlock: OJICUG_clean_sbu_0, # of connection points: 6
#     Node 32, Type 1, BuildingBlock: OJICUG_clean_sbu_0, # of connection points: 6
#     Node 33, Type 1, BuildingBlock: OJICUG_clean_sbu_0, # of connection points: 6
#     Node 34, Type 1, BuildingBlock: OJICUG_clean_sbu_0, # of connection points: 6
#     Node 35, Type 1, BuildingBlock: OJICUG_clean_sbu_0, # of connection points: 6
#     Node 36, Type 1, BuildingBlock: OJICUG_clean_sbu_0, # of connection points: 6
#     Node 37, Type 1, BuildingBlock: OJICUG_clean_sbu_0, # of connection points: 6
#     Node 38, Type 1, BuildingBlock: OJICUG_clean_sbu_0, # of connection points: 6
#     Node 39, Type 1, BuildingBlock: OJICUG_clean_sbu_0, # of connection points: 6
#     Edge 40, Type (0, 1), BuildingBlock: CIFDUS_clean_linker_0, # of connection points: 2
#     Edge 41, Type (0, 1), BuildingBlock: CIFDUS_clean_linker_0, # of connection points: 2
#     Edge 42, Type (0, 1), BuildingBlock: CIFDUS_clean_linker_0, # of connection points: 2
#     Edge 43, Type (0, 1), BuildingBlock: CIFDUS_clean_linker_0, # of connection points: 2
#     Edge 44, Type (0, 1), BuildingBlock: CIFDUS_clean_linker_0, # of connection points: 2
#     Edge 45, Type (0, 1), BuildingBlock: CIFDUS_clean_linker_0, # of connection points: 2
#     Edge 46, Type (0, 1), BuildingBlock: CIFDUS_clean_linker_0, # of connection points: 2
#     Edge 47, Type (0, 1), BuildingBlock: CIFDUS_clean_linker_0, # of connection points: 2
#     Edge 48, Type (0, 1), BuildingBlock: CIFDUS_clean_linker_0, # of connection points: 2
#     Edge 49, Type (0, 1), BuildingBlock: CIFDUS_clean_linker_0, # of connection points: 2
#     Edge 50, Type (0, 1), BuildingBlock: CIFDUS_clean_linker_0, # of connection points: 2
#     Edge 51, Type (0, 1), BuildingBlock: CIFDUS_clean_linker_0, # of connection points: 2
#     Edge 52, Type (0, 1), BuildingBlock: CIFDUS_clean_linker_0, # of connection points: 2
#     Edge 53, Type (0, 1), BuildingBlock: CIFDUS_clean_linker_0, # of connection points: 2
#     Edge 54, Type (0, 1), BuildingBlock: CIFDUS_clean_linker_0, # of connection points: 2
#     Edge 55, Type (0, 1), BuildingBlock: CIFDUS_clean_linker_0, # of connection points: 2
#     Edge 56, Type (0, 1), BuildingBlock: CIFDUS_clean_linker_0, # of connection points: 2
#     Edge 57, Type (0, 1), BuildingBlock: CIFDUS_clean_linker_0, # of connection points: 2
#     Edge 58, Type (0, 1), BuildingBlock: CIFDUS_clean_linker_0, # of connection points: 2
#     Edge 59, Type (0, 1), BuildingBlock: CIFDUS_clean_linker_0, # of connection points: 2
#     Edge 60, Type (0, 1), BuildingBlock: CIFDUS_clean_linker_0, # of connection points: 2
#     Edge 61, Type (0, 1), BuildingBlock: CIFDUS_clean_linker_0, # of connection points: 2
#     Edge 62, Type (0, 1), BuildingBlock: CIFDUS_clean_linker_0, # of connection points: 2
#     Edge 63, Type (0, 1), BuildingBlock: CIFDUS_clean_linker_0, # of connection points: 2
#     Edge 64, Type (0, 1), BuildingBlock: CIFDUS_clean_linker_0, # of connection points: 2
#     Edge 65, Type (0, 1), BuildingBlock: CIFDUS_clean_linker_0, # of connection points: 2
#     Edge 66, Type (0, 1), BuildingBlock: CIFDUS_clean_linker_0, # of connection points: 2
#     Edge 67, Type (0, 1), BuildingBlock: CIFDUS_clean_linker_0, # of connection points: 2
#     Edge 68, Type (0, 1), BuildingBlock: CIFDUS_clean_linker_0, # of connection points: 2
#     Edge 69, Type (0, 1), BuildingBlock: CIFDUS_clean_linker_0, # of connection points: 2
#     Edge 70, Type (0, 1), BuildingBlock: CIFDUS_clean_linker_0, # of connection points: 2
#     Edge 71, Type (0, 1), BuildingBlock: CIFDUS_clean_linker_0, # of connection points: 2
#     Edge 72, Type (0, 1), BuildingBlock: CIFDUS_clean_linker_0, # of connection points: 2
#     Edge 73, Type (0, 1), BuildingBlock: CIFDUS_clean_linker_0, # of connection points: 2
#     Edge 74, Type (0, 1), BuildingBlock: CIFDUS_clean_linker_0, # of connection points: 2
#     Edge 75, Type (0, 1), BuildingBlock: CIFDUS_clean_linker_0, # of connection points: 2
#     Edge 76, Type (0, 1), BuildingBlock: CIFDUS_clean_linker_0, # of connection points: 2
#     Edge 77, Type (0, 1), BuildingBlock: CIFDUS_clean_linker_0, # of connection points: 2
#     Edge 78, Type (0, 1), BuildingBlock: CIFDUS_clean_linker_0, # of connection points: 2
#     Edge 79, Type (0, 1), BuildingBlock: CIFDUS_clean_linker_0, # of connection points: 2
#     Edge 80, Type (0, 1), BuildingBlock: CIFDUS_clean_linker_0, # of connection points: 2
#     Edge 81, Type (0, 1), BuildingBlock: CIFDUS_clean_linker_0, # of connection points: 2
#     Edge 82, Type (0, 1), BuildingBlock: CIFDUS_clean_linker_0, # of connection points: 2
#     Edge 83, Type (0, 1), BuildingBlock: CIFDUS_clean_linker_0, # of connection points: 2
#     Edge 84, Type (0, 1), BuildingBlock: CIFDUS_clean_linker_0, # of connection points: 2
#     Edge 85, Type (0, 1), BuildingBlock: CIFDUS_clean_linker_0, # of connection points: 2
#     Edge 86, Type (0, 1), BuildingBlock: CIFDUS_clean_linker_0, # of connection points: 2
#     Edge 87, Type (0, 1), BuildingBlock: CIFDUS_clean_linker_0, # of connection points: 2
#     Edge 88, Type (0, 1), BuildingBlock: CIFDUS_clean_linker_0, # of connection points: 2
#     Edge 89, Type (0, 1), BuildingBlock: CIFDUS_clean_linker_0, # of connection points: 2
#     Edge 90, Type (0, 1), BuildingBlock: CIFDUS_clean_linker_0, # of connection points: 2
#     Edge 91, Type (0, 1), BuildingBlock: CIFDUS_clean_linker_0, # of connection points: 2
#     Edge 92, Type (0, 1), BuildingBlock: CIFDUS_clean_linker_0, # of connection points: 2
#     Edge 93, Type (0, 1), BuildingBlock: CIFDUS_clean_linker_0, # of connection points: 2
#     Edge 94, Type (0, 1), BuildingBlock: CIFDUS_clean_linker_0, # of connection points: 2
#     Edge 95, Type (0, 1), BuildingBlock: CIFDUS_clean_linker_0, # of connection points: 2
#     Edge 96, Type (0, 1), BuildingBlock: CIFDUS_clean_linker_0, # of connection points: 2
#     Edge 97, Type (0, 1), BuildingBlock: CIFDUS_clean_linker_0, # of connection points: 2
#     Edge 98, Type (0, 1), BuildingBlock: CIFDUS_clean_linker_0, # of connection points: 2
#     Edge 99, Type (0, 1), BuildingBlock: CIFDUS_clean_linker_0, # of connection points: 2
#     Edge 100, Type (0, 1), BuildingBlock: CIFDUS_clean_linker_0, # of connection points: 2
#     Edge 101, Type (0, 1), BuildingBlock: CIFDUS_clean_linker_0, # of connection points: 2
#     Edge 102, Type (0, 1), BuildingBlock: CIFDUS_clean_linker_0, # of connection points: 2
#     Edge 103, Type (0, 1), BuildingBlock: CIFDUS_clean_linker_0, # of connection points: 2
#     Edge 104, Type (0, 1), BuildingBlock: CIFDUS_clean_linker_0, # of connection points: 2
#     Edge 105, Type (0, 1), BuildingBlock: CIFDUS_clean_linker_0, # of connection points: 2
#     Edge 106, Type (0, 1), BuildingBlock: CIFDUS_clean_linker_0, # of connection points: 2
#     Edge 107, Type (0, 1), BuildingBlock: CIFDUS_clean_linker_0, # of connection points: 2
#     Edge 108, Type (0, 1), BuildingBlock: CIFDUS_clean_linker_0, # of connection points: 2
#     Edge 109, Type (0, 1), BuildingBlock: CIFDUS_clean_linker_0, # of connection points: 2
#     Edge 110, Type (0, 1), BuildingBlock: CIFDUS_clean_linker_0, # of connection points: 2
#     Edge 111, Type (0, 1), BuildingBlock: CIFDUS_clean_linker_0, # of connection points: 2
#     Edge 112, Type (0, 1), BuildingBlock: CIFDUS_clean_linker_0, # of connection points: 2
#     Edge 113, Type (0, 1), BuildingBlock: CIFDUS_clean_linker_0, # of connection points: 2
#     Edge 114, Type (0, 1), BuildingBlock: CIFDUS_clean_linker_0, # of connection points: 2
#     Edge 115, Type (0, 1), BuildingBlock: CIFDUS_clean_linker_0, # of connection points: 2
#     Edge 116, Type (0, 1), BuildingBlock: CIFDUS_clean_linker_0, # of connection points: 2
#     Edge 117, Type (0, 1), BuildingBlock: CIFDUS_clean_linker_0, # of connection points: 2
#     Edge 118, Type (0, 1), BuildingBlock: CIFDUS_clean_linker_0, # of connection points: 2
#     Edge 119, Type (0, 1), BuildingBlock: CIFDUS_clean_linker_0, # of connection points: 2
#     Edge 120, Type (0, 1), BuildingBlock: CIFDUS_clean_linker_0, # of connection points: 2
#     Edge 121, Type (0, 1), BuildingBlock: CIFDUS_clean_linker_0, # of connection points: 2
#     Edge 122, Type (0, 1), BuildingBlock: CIFDUS_clean_linker_0, # of connection points: 2
#     Edge 123, Type (0, 1), BuildingBlock: CIFDUS_clean_linker_0, # of connection points: 2
#     Edge 124, Type (0, 1), BuildingBlock: CIFDUS_clean_linker_0, # of connection points: 2
#     Edge 125, Type (0, 1), BuildingBlock: CIFDUS_clean_linker_0, # of connection points: 2
#     Edge 126, Type (0, 1), BuildingBlock: CIFDUS_clean_linker_0, # of connection points: 2
#     Edge 127, Type (0, 1), BuildingBlock: CIFDUS_clean_linker_0, # of connection points: 2
#     Edge 128, Type (0, 1), BuildingBlock: CIFDUS_clean_linker_0, # of connection points: 2
#     Edge 129, Type (0, 1), BuildingBlock: CIFDUS_clean_linker_0, # of connection points: 2
#     Edge 130, Type (0, 1), BuildingBlock: CIFDUS_clean_linker_0, # of connection points: 2
#     Edge 131, Type (0, 1), BuildingBlock: CIFDUS_clean_linker_0, # of connection points: 2
#     Edge 132, Type (0, 1), BuildingBlock: CIFDUS_clean_linker_0, # of connection points: 2
#     Edge 133, Type (0, 1), BuildingBlock: CIFDUS_clean_linker_0, # of connection points: 2
#     Edge 134, Type (0, 1), BuildingBlock: CIFDUS_clean_linker_0, # of connection points: 2
#     Edge 135, Type (0, 1), BuildingBlock: CIFDUS_clean_linker_0, # of connection points: 2
# Relax obj value: 0.375
# Max RMSD: 0.287
# Mean RMSD: 0.282
data_MOF--net-ibd--node1-QUQFOY_clean_sbu_3--node2-OJICUG_clean_sbu_0--edge1-CIFDUS_clean_linker_0
_symmetry_space_group_name_H-M    P1
_symmetry_Int_Tables_number       1
_symmetry_cell_setting            triclinic
loop_
_symmetry_equiv_pos_as_xyz
'x, y, z'
_cell_length_a     43.493655
_cell_length_b     43.572051
_cell_length_c     43.506906
_cell_angle_alpha  89.959151
_cell_angle_beta   90.126533
_cell_angle_gamma 91.397626
loop_
_atom_site_label
_atom_site_type_symbol
_atom_site_fract_x
_atom_site_fract_y
_atom_site_fract_z
_atom_type_partial_charge
C0 C 0.97055 0.23665 0.41538 0.0
O1 O 0.94343 0.24041 0.40533 0.0
Cd2 Cd 0.93332 0.28068 0.36997 0.0
O3 O -0.00632 0.24997 0.40274 0.0
Cd4 Cd 0.00672 0.28058 0.35615 0.0
C5 C 0.98353 0.33412 0.40421 0.0
O6 O 0.96204 0.26384 0.32713 0.0
O7 O 0.98957 0.30012 0.30642 0.0
O8 O 0.04371 0.24129 0.34966 0.0
C9 C 0.96673 0.28159 0.30457 0.0
O10 O 0.95691 0.32154 0.40155 0.0
C11 C 0.06498 0.25877 0.33917 0.0
O12 O 0.00569 0.32564 0.38751 0.0
O13 O 0.05956 0.28725 0.33752 0.0
C14 C 0.07773 0.87482 0.59156 0.0
O15 O 0.05245 0.88746 0.59772 0.0
Cd16 Cd 0.01198 0.86945 0.63078 0.0
O17 O 0.08533 0.8501 0.60505 0.0
Cd18 Cd 0.06187 0.81438 0.64333 0.0
C19 C 0.00286 0.80037 0.59337 0.0
O20 O 0.03322 0.84881 0.67596 0.0
O21 O 0.01923 0.80112 0.67649 0.0
O22 O 0.10591 0.80219 0.67598 0.0
C23 C 0.01509 0.82805 0.68628 0.0
O24 O 0.99121 0.82564 0.60167 0.0
C25 C 0.10419 0.77344 0.67084 0.0
O26 O 0.02914 0.79236 0.60317 0.0
O27 O 0.0845 0.76435 0.65104 0.0
C28 C 0.43829 0.76422 0.926 0.0
O29 O 0.42095 0.78651 0.91984 0.0
Cd30 Cd 0.42248 0.81838 0.8749 0.0
O31 O 0.45975 0.7568 0.90775 0.0
Cd32 Cd 0.48047 0.77595 0.85862 0.0
C33 C 0.49372 0.84877 0.88653 0.0
O34 O 0.42975 0.78065 0.83594 0.0
O35 O 0.46799 0.79223 0.80641 0.0
O36 O 0.499 0.72442 0.84801 0.0
C37 C 0.43923 0.78863 0.80966 0.0
O38 O 0.46518 0.85426 0.88492 0.0
C39 C 0.52498 0.73413 0.83815 0.0
O40 O 0.50357 0.82247 0.87945 0.0
O41 O 0.53051 0.76281 0.83979 0.0
C42 C 0.54709 0.26095 0.08172 0.0
O43 O 0.53182 0.28533 0.08377 0.0
Cd44 Cd 0.48292 0.28432 0.1099 0.0
O45 O 0.53957 0.23731 0.09731 0.0
Cd46 Cd 0.50411 0.22019 0.13748 0.0
C47 C 0.45548 0.21671 0.07782 0.0
O48 O 0.4907 0.26857 0.16174 0.0
O49 O 0.46053 0.22936 0.17071 0.0
O50 O 0.54868 0.20576 0.16642 0.0
C51 C 0.4674 0.25739 0.17572 0.0
O52 O 0.45321 0.24572 0.0803 0.0
C53 C 0.53986 0.17812 0.17098 0.0
O54 O 0.47346 0.20176 0.09501 0.0
O55 O 0.51394 0.1698 0.15976 0.0
C56 C 0.91846 0.69505 0.15162 0.0
O57 O 0.89968 0.71633 0.14637 0.0
Cd58 Cd 0.90822 0.75859 0.11258 0.0
O59 O 0.94313 0.69317 0.13605 0.0
Cd60 Cd 0.96815 0.72296 0.09399 0.0
C61 C 0.97597 0.78053 0.14647 0.0
O62 O 0.9229 0.73709 0.0643 0.0
O63 O 0.96486 0.7623 0.05395 0.0
O64 O 0.98746 0.67797 0.06706 0.0
C65 C 0.93702 0.75619 0.04715 0.0
O66 O 0.94802 0.78731 0.14176 0.0
C67 C 0.01546 0.68715 0.06783 0.0
O68 O 0.98776 0.75808 0.13254 0.0
O69 O 0.02125 0.71232 0.08158 0.0
C70 C 0.48756 0.8088 0.30421 0.0
O71 O 0.45964 0.81657 0.30585 0.0
Cd72 Cd 0.42112 0.7984 0.34075 0.0
O73 O 0.49858 0.78904 0.32272 0.0
Cd74 Cd 0.47637 0.75956 0.36772 0.0
C75 C 0.4213 0.72175 0.32617 0.0
O76 O 0.44814 0.80306 0.38817 0.0
O77 O 0.4403 0.75971 0.41081 0.0
O78 O 0.52553 0.75589 0.3964 0.0
C79 C 0.4361 0.7883 0.4102 0.0
O80 O 0.40563 0.74605 0.32562 0.0
C81 C 0.5208 0.72772 0.40318 0.0
O82 O 0.44798 0.72199 0.33802 0.0
O83 O 0.49717 0.71464 0.39161 0.0
C84 C 0.38663 0.222 0.6531 0.0
O85 O 0.36941 0.24456 0.65807 0.0
Cd86 Cd 0.38482 0.29502 0.63941 0.0
O87 O 0.41016 0.22539 0.63612 0.0
Cd88 Cd 0.43596 0.26478 0.60496 0.0
C89 C 0.45677 0.30141 0.66966 0.0
O90 O 0.39376 0.29543 0.58454 0.0
O91 O 0.43967 0.31571 0.58318 0.0
O92 O 0.442 0.22882 0.56259 0.0
C93 C 0.41177 0.31667 0.57476 0.0
O94 O 0.42968 0.31185 0.67027 0.0
C95 C 0.47121 0.22987 0.56312 0.0
O96 O 0.46438 0.28228 0.64921 0.0
O97 O 0.48394 0.24745 0.5829 0.0
C98 C 0.06931 0.29723 0.86641 0.0
O99 O 0.06504 0.32523 0.87279 0.0
Cd100 Cd 0.0171 0.33769 0.89678 0.0
O101 O 0.05384 0.27615 0.87994 0.0
Cd102 Cd 0.01978 0.27157 0.92506 0.0
C103 C 0.97123 0.27855 0.86682 0.0
O104 O 0.01436 0.32206 0.94904 0.0
O105 O 0.97579 0.28972 0.95198 0.0
O106 O 0.06123 0.25048 0.95482 0.0
C107 C 0.98712 0.31607 0.95832 0.0
O108 O 0.97941 0.30687 0.86711 0.0
C109 C 0.04724 0.22536 0.96129 0.0
O110 O 0.9829 0.25945 0.88543 0.0
O111 O 0.01989 0.22177 0.95123 0.0
C112 C 0.43296 0.91655 0.22672 0.0
O113 O 0.44145 0.89305 0.24137 0.0
Cd114 Cd 0.42477 0.8834 0.29259 0.0
O115 O 0.41337 0.93456 0.23783 0.0
Cd116 Cd 0.37907 0.93574 0.28261 0.0
C117 C 0.43961 0.95359 0.32711 0.0
O118 O 0.37019 0.88046 0.28722 0.0
O119 O 0.35572 0.90745 0.3259 0.0
O120 O 0.34261 0.9452 0.24184 0.0
C121 C 0.35551 0.88173 0.31222 0.0
O122 O 0.44583 0.9253 0.3245 0.0
C123 C 0.32975 0.96774 0.25439 0.0
O124 O 0.41676 0.96459 0.31293 0.0
O125 O 0.33944 0.97554 0.28095 0.0
C126 C 0.34012 0.0951 0.48389 0.0
O127 O 0.35582 0.09312 0.45942 0.0
Cd128 Cd 0.3324 0.10514 0.41077 0.0
O129 O 0.31276 0.10465 0.48284 0.0
Cd130 Cd 0.27285 0.12519 0.45016 0.0
C131 C 0.26933 0.05605 0.41449 0.0
O132 O 0.30829 0.15326 0.41772 0.0
O133 O 0.26096 0.1523 0.40239 0.0
O134 O 0.26763 0.16161 0.49144 0.0
C135 C 0.28841 0.16207 0.39855 0.0
O136 O 0.29478 0.0634 0.40168 0.0
C137 C 0.23872 0.15867 0.49461 0.0
O138 O 0.25707 0.07356 0.4342 0.0
O139 O 0.22493 0.13953 0.47694 0.0
C140 C 0.14173 0.92126 0.77082 0.0
O141 O 0.14403 0.9126 0.79863 0.0
Cd142 Cd 0.11725 0.93375 0.84142 0.0
O143 O 0.1245 0.94341 0.7635 0.0
Cd144 Cd 0.09127 0.97954 0.79096 0.0
C145 C 0.15082 0.0039 0.8367 0.0
O146 O 0.06687 0.93867 0.82017 0.0
O147 O 0.05055 0.98379 0.8303 0.0
O148 O 0.06039 0.98756 0.7445 0.0
C149 C 0.04758 0.95498 0.83382 0.0
O150 O 0.14712 0.98042 0.85379 0.0
C151 C 0.0623 0.01672 0.74594 0.0
O152 O 0.13456 0.00725 0.81276 0.0
O153 O 0.0782 0.0282 0.76775 0.0
C154 C 0.2976 0.83089 0.04055 0.0
O155 O 0.31212 0.84221 0.01771 0.0
Cd156 Cd 0.29259 0.87676 0.98073 0.0
O157 O 0.2702 0.8388 0.04681 0.0
Cd158 Cd 0.23147 0.87594 0.02818 0.0
C159 C 0.22632 0.83529 0.96136 0.0
O160 O 0.27083 0.91221 0.01491 0.0
O161 O 0.22579 0.927 0.0028 0.0
O162 O 0.21828 0.88459 0.08186 0.0
C163 C 0.25449 0.93265 0.0032 0.0
O164 O 0.25339 0.84477 0.95443 0.0
C165 C 0.1895 0.88587 0.07708 0.0
O166 O 0.21373 0.84301 0.9865 0.0
O167 O 0.18025 0.88076 0.0498 0.0
C168 C 0.24883 0.2781 0.0169 0.0
O169 O 0.27787 0.27817 0.02025 0.0
Cd170 Cd 0.31378 0.31681 0.00283 0.0
O171 O 0.23605 0.29873 0.00069 0.0
Cd172 Cd 0.25604 0.34313 0.96938 0.0
C173 C 0.30937 0.30825 0.92595 0.0
O174 O 0.28701 0.36278 0.01173 0.0
O175 O 0.29354 0.38692 0.96905 0.0
O176 O 0.21032 0.37531 0.97151 0.0
C177 C 0.2988 0.38546 -0.00235 0.0
O178 O 0.32718 0.30875 0.94917 0.0
C179 C 0.20739 0.37706 0.94247 0.0
O180 O 0.28162 0.31625 0.92843 0.0
O181 O 0.22552 0.36126 0.92654 0.0
C182 C 0.78227 0.07288 0.00553 0.0
O183 O 0.80247 0.07908 0.02587 0.0
Cd184 Cd 0.84844 0.10068 0.00578 0.0
O185 O 0.78572 0.08241 0.97795 0.0
Cd186 Cd 0.81899 0.11738 0.94554 0.0
C187 C 0.85768 0.05585 0.94111 0.0
O188 O 0.82666 0.14886 0.99004 0.0
O189 O 0.85286 0.16379 0.95046 0.0
O190 O 0.76711 0.12542 0.92795 0.0
C191 C 0.8429 0.16957 0.97715 0.0
O192 O 0.85671 0.05772 0.97024 0.0
C193 C 0.77436 0.13623 0.90185 0.0
O194 O 0.85115 0.07888 0.92484 0.0
O195 O 0.80284 0.13839 0.89569 0.0
C196 C 0.14006 0.53107 0.19696 0.0
O197 O 0.12272 0.51904 0.17646 0.0
Cd198 Cd 0.08218 0.48302 0.18866 0.0
O199 O 0.13438 0.52705 0.22541 0.0
Cd200 Cd 0.09732 0.50362 0.26136 0.0
C201 C 0.12721 0.43771 0.23465 0.0
O202 O 0.05473 0.50954 0.22768 0.0
O203 O 0.04422 0.48466 0.26925 0.0
O204 O 0.10438 0.55114 0.28899 0.0
C205 C 0.03487 0.49543 0.24394 0.0
O206 O 0.11515 0.44228 0.20839 0.0
C207 C 0.10412 0.53898 0.31554 0.0
O208 O 0.12342 0.45611 0.25692 0.0
O209 O 0.10243 0.50982 0.31676 0.0
C210 C 0.76519 0.83183 0.60201 0.0
O211 O 0.79213 0.83362 0.61327 0.0
Cd212 Cd 0.83039 0.87053 0.59529 0.0
O213 O 0.75755 0.84932 0.58008 0.0
Cd214 Cd 0.78067 0.88966 0.54853 0.0
C215 C 0.83864 0.8484 0.52095 0.0
O216 O 0.80804 0.91971 0.58756 0.0
O217 O 0.81955 0.92894 0.53998 0.0
O218 O 0.73454 0.92024 0.54737 0.0
C219 C 0.82205 0.93653 0.568 0.0
O220 O 0.85158 0.85216 0.547 0.0
C221 C 0.7303 0.91756 0.51862 0.0
O222 O 0.81136 0.85726 0.51634 0.0
O223 O 0.74904 0.90114 0.50401 0.0
C224 C 0.89257 0.02233 0.19285 0.0
O225 O 0.88475 0.00168 0.17353 0.0
Cd226 Cd 0.86872 0.9518 0.19107 0.0
O227 O 0.88738 0.01845 0.22145 0.0
Cd228 Cd 0.86384 0.98483 0.26088 0.0
C229 C 0.92826 0.9469 0.24407 0.0
O230 O 0.82879 0.96192 0.2263 0.0
O231 O 0.82964 0.93925 0.27048 0.0
O232 O 0.8394 0.03024 0.27857 0.0
C233 C 0.81871 0.94057 0.24349 0.0
O234 O 0.91633 0.93922 0.2183 0.0
C235 C 0.84355 0.02525 0.30704 0.0
O236 O 0.91371 0.96289 0.26343 0.0
O237 O 0.85846 0.00153 0.31428 0.0
C238 C 0.16976 0.56869 0.54592 0.0
O239 O 0.19034 0.57853 0.56441 0.0
Cd240 Cd 0.22712 0.61782 0.55057 0.0
O241 O 0.16621 0.5814 0.51986 0.0
Cd242 Cd 0.1883 0.62634 0.49248 0.0
C243 C 0.25461 0.58982 0.48264 0.0
O244 O 0.19906 0.66209 0.53479 0.0
O245 O 0.22258 0.67174 0.49213 0.0
O246 O 0.1382 0.64518 0.47704 0.0
C247 C 0.21549 0.6805 0.51891 0.0
O248 O 0.26011 0.59511 0.51095 0.0
C249 C 0.14373 0.64402 0.44842 0.0
O250 O 0.22945 0.5978 0.47052 0.0
O251 O 0.16945 0.63337 0.44057 0.0
C252 C 0.4341 0.45953 0.69259 0.0
O253 O 0.43191 0.43239 0.68203 0.0
Cd254 Cd 0.39507 0.39408 0.69941 0.0
O255 O 0.41738 0.46777 0.71496 0.0
Cd256 Cd 0.3777 0.44393 0.74849 0.0
C257 C 0.41791 0.38337 0.77351 0.0
O258 O 0.34771 0.41934 0.70734 0.0
O259 O 0.33489 0.4073 0.75376 0.0
O260 O 0.35199 0.49294 0.7519 0.0
C261 C 0.32925 0.40532 0.72526 0.0
O262 O 0.41303 0.37151 0.74718 0.0
C263 C 0.35165 0.494 0.78105 0.0
O264 O 0.41027 0.41083 0.7791 0.0
O265 O 0.36439 0.47217 0.79515 0.0
C266 C 0.6625 0.06303 0.6694 0.0
O267 O 0.65671 0.04568 0.64643 0.0
Cd268 Cd 0.62347 0.00016 0.6403 0.0
O269 O 0.64978 0.05806 0.69532 0.0
Cd270 Cd 0.61171 0.01932 0.71241 0.0
C271 C 0.64819 0.95096 0.69182 0.0
O272 O 0.57765 0.01097 0.66801 0.0
O273 O 0.5563 0.02728 0.70924 0.0
O274 O 0.60857 0.04662 0.76086 0.0
C275 C 0.55316 0.01657 0.6824 0.0
O276 O 0.6474 0.95575 0.66302 0.0
C277 C 0.60103 0.02275 0.77627 0.0
O278 O 0.63733 0.97031 0.71048 0.0
O279 O 0.60107 -0.0028 0.7622 0.0
C280 C 0.78707 0.59397 0.03668 0.0
O281 O 0.80524 0.59647 0.014 0.0
Cd282 Cd 0.78264 0.59307 0.96397 0.0
O283 O 0.75825 0.59642 0.03262 0.0
Cd284 Cd 0.71928 0.61062 -0.0055 0.0
C285 C 0.72513 0.53741 0.97698 0.0
O286 O 0.75109 0.63615 0.9563 0.0
O287 O 0.70521 0.62203 0.94159 0.0
O288 O 0.71135 0.6522 0.02868 0.0
C289 C 0.73066 0.6354 0.9354 0.0
O290 O 0.75145 0.54551 0.9665 0.0
C291 C 0.68219 0.65045 0.02869 0.0
O292 O 0.70745 0.5568 0.98912 0.0
O293 O 0.66953 0.62892 0.01308 0.0
C294 C 0.90567 0.44877 0.72824 0.0
O295 O 0.89575 0.43481 0.752 0.0
Cd296 Cd 0.86238 0.45673 0.78815 0.0
O297 O 0.8969 0.47579 0.72165 0.0
Cd298 Cd 0.85911 0.51271 0.74272 0.0
C299 C 0.90385 0.52231 0.80542 0.0
O300 O 0.82319 0.47181 0.75272 0.0
O301 O 0.80849 0.5152 0.76984 0.0
O302 O 0.84751 0.5283 0.69019 0.0
C303 C 0.80191 0.48734 0.76397 0.0
O304 O 0.89619 0.49512 0.8135 0.0
C305 C 0.84417 0.55634 0.69715 0.0
O306 O 0.89328 0.53382 0.78094 0.0
O307 O 0.85054 0.56409 0.72456 0.0
C308 C 0.78798 0.3493 0.49773 0.0
O309 O 0.80602 0.35463 0.47531 0.0
Cd310 Cd 0.79411 0.38703 0.4332 0.0
O311 O 0.76154 0.36139 0.49899 0.0
Cd312 Cd 0.73284 0.39937 0.46769 0.0
C313 C 0.72849 0.35263 0.40572 0.0
O314 O 0.77963 0.42975 0.46464 0.0
O315 O 0.7403 0.45049 0.44381 0.0
O316 O 0.70881 0.41172 0.51628 0.0
C317 C 0.7677 0.45339 0.45346 0.0
O318 O 0.75736 0.35633 0.40226 0.0
C319 C 0.68345 0.41939 0.50431 0.0
O320 O 0.71479 0.366 0.4274 0.0
O321 O 0.68049 0.41544 0.47558 0.0
C322 C 0.66449 0.43632 0.2754 0.0
O323 O 0.6666 0.43474 0.30448 0.0
Cd324 Cd 0.64554 0.47323 0.33758 0.0
O325 O 0.65202 0.45926 0.26272 0.0
Cd326 Cd 0.62796 0.50743 0.2785 0.0
C327 C 0.6895 0.53543 0.31758 0.0
O328 O 0.59542 0.48354 0.31781 0.0
O329 O 0.59302 0.53284 0.31407 0.0
O330 O 0.59526 0.50005 0.23351 0.0
C331 C 0.58186 0.50796 0.32484 0.0
O332 O 0.68105 0.51729 0.33904 0.0
C333 C 0.59699 0.52777 0.2246 0.0
O334 O 0.67594 0.53491 0.29166 0.0
O335 O 0.61491 0.54568 0.23964 0.0
Sc336 Sc 0.10625 0.14002 0.16028 0.0
Sc337 Sc 0.11754 0.07353 0.20186 0.0
Sc338 Sc 0.15294 0.08395 0.13097 0.0
O339 O 0.12595 0.09922 0.16452 0.0
C340 C 0.0982 0.11608 0.09428 0.0
C341 C 0.05299 0.09994 0.1908 0.0
C342 C 0.11751 0.02346 0.14846 0.0
C343 C 0.12544 0.14179 0.22861 0.0
C344 C 0.17162 0.15213 0.12749 0.0
C345 C 0.18704 0.06202 0.19294 0.0
O346 O 0.08491 0.12567 0.11825 0.0
O347 O 0.06901 0.07622 0.19432 0.0
O348 O 0.12571 0.04241 0.12766 0.0
O349 O 0.12692 0.15513 0.20259 0.0
O350 O 0.18122 0.12509 0.13154 0.0
O351 O 0.16548 0.06965 0.21079 0.0
O352 O 0.14446 0.15975 0.13456 0.0
O353 O 0.11785 0.11347 0.23147 0.0
O354 O 0.18454 0.06271 0.16363 0.0
O355 O 0.06441 0.12611 0.18384 0.0
O356 O 0.12467 0.10402 0.09489 0.0
O357 O 0.11724 0.03038 0.17688 0.0
Sc358 Sc 0.15974 0.84158 0.37538 0.0
Sc359 Sc 0.08571 0.85771 0.35077 0.0
Sc360 Sc 0.14725 0.86975 0.3016 0.0
O361 O 0.13098 0.85579 0.34276 0.0
C362 C 0.19159 0.9032 0.34791 0.0
C363 C 0.11264 0.87639 0.41682 0.0
C364 C 0.09136 0.91427 0.31128 0.0
C365 C 0.10221 0.79392 0.37884 0.0
C366 C 0.19607 0.81895 0.31932 0.0
C367 C 0.0903 0.83329 0.28082 0.0
O368 O 0.1908 0.88057 0.36672 0.0
O369 O 0.09039 0.87212 0.39818 0.0
O370 O 0.11026 0.90124 0.29363 0.0
O371 O 0.1296 0.80276 0.38559 0.0
O372 O 0.18652 0.84056 0.30251 0.0
O373 O 0.07518 0.84379 0.30355 0.0
O374 O 0.18361 0.81217 0.34472 0.0
O375 O 0.08303 0.81032 0.36456 0.0
O376 O 0.11954 0.83515 0.27928 0.0
O377 O 0.13978 0.86853 0.41076 0.0
O378 O 0.1749 0.90462 0.32382 0.0
O379 O 0.08715 0.90519 0.33858 0.0
Sc380 Sc 0.36821 0.87103 0.5901 0.0
Sc381 Sc 0.29784 0.90227 0.57593 0.0
Sc382 Sc 0.33507 0.91684 0.64536 0.0
O383 O 0.33343 0.89584 0.60466 0.0
C384 C 0.36373 0.85089 0.65902 0.0
C385 C 0.30604 0.83334 0.5699 0.0
C386 C 0.26524 0.90339 0.64102 0.0
C387 C 0.35195 0.89546 0.52822 0.0
C388 C 0.40421 0.92576 0.62457 0.0
C389 C 0.31625 0.96789 0.59778 0.0
O390 O 0.3684 0.84395 0.63105 0.0
O391 O 0.28716 0.85411 0.57706 0.0
O392 O 0.2899 0.89964 0.65597 0.0
O393 O 0.37089 0.89893 0.54992 0.0
O394 O 0.38054 0.93554 0.63809 0.0
O395 O 0.31119 0.94965 0.57534 0.0
O396 O 0.40369 0.90139 0.60847 0.0
O397 O 0.32342 0.89332 0.53391 0.0
O398 O 0.31819 0.95924 0.62574 0.0
O399 O 0.33529 0.8378 0.56996 0.0
O400 O 0.35316 0.87661 0.66751 0.0
O401 O 0.26523 0.91026 0.61261 0.0
Sc402 Sc 0.38041 0.06059 0.83447 0.0
Sc403 Sc 0.4275 0.12519 0.84948 0.0
Sc404 Sc 0.35298 0.11955 0.87989 0.0
O405 O 0.38707 0.10188 0.8548 0.0
C406 C 0.31255 0.08723 0.8309 0.0
C407 C 0.40899 0.10158 0.78202 0.0
C408 C 0.38072 0.17944 0.84646 0.0
C409 C 0.45206 0.05837 0.85083 0.0
C410 C 0.3522 0.04819 0.8989 0.0
C411 C 0.41189 0.13648 0.92011 0.0
O412 O 0.33165 0.06593 0.82776 0.0
O413 O 0.42721 0.11583 0.80048 0.0
O414 O 0.36006 0.16467 0.86132 0.0
O415 O 0.42789 0.04715 0.83832 0.0
O416 O 0.34222 0.07544 0.90049 0.0
O417 O 0.43065 0.1364 0.8977 0.0
O418 O 0.37069 0.03938 0.87815 0.0
O419 O 0.45402 0.08599 0.85964 0.0
O420 O 0.38339 0.12996 0.91743 0.0
O421 O 0.38861 0.08194 0.79063 0.0
O422 O 0.31885 0.11176 0.84531 0.0
O423 O 0.40649 0.16828 0.83966 0.0
Sc424 Sc 0.67065 0.32775 0.87879 0.0
Sc425 Sc 0.60313 0.28619 0.8619 0.0
Sc426 Sc 0.60588 0.36542 0.85202 0.0
O427 O 0.62696 0.32655 0.86382 0.0
C428 C 0.64686 0.38936 0.90807 0.0
C429 C 0.63359 0.2862 0.92745 0.0
C430 C 0.54955 0.33232 0.8782 0.0
C431 C 0.67059 0.26345 0.84701 0.0
C432 C 0.67182 0.37454 0.82226 0.0
C433 C 0.5834 0.31571 0.80104 0.0
O434 O 0.66452 0.36668 0.90778 0.0
O435 O 0.6102 0.2808 0.91036 0.0
O436 O 0.56816 0.35475 0.88203 0.0
O437 O 0.6834 0.28946 0.85129 0.0
O438 O 0.64315 0.37985 0.82234 0.0
O439 O 0.59546 0.29238 0.81357 0.0
O440 O 0.68484 0.35672 0.84121 0.0
O441 O 0.64241 0.25829 0.85295 0.0
O442 O 0.5833 0.34218 0.81368 0.0
O443 O 0.65826 0.29973 0.91821 0.0
O444 O 0.62517 0.39247 0.88887 0.0
O445 O 0.55883 0.30648 0.86908 0.0
Sc446 Sc 0.87793 0.37576 0.09921 0.0
Sc447 Sc 0.83014 0.39368 0.15992 0.0
Sc448 Sc 0.8017 0.38816 0.08548 0.0
O449 O 0.83669 0.38485 0.11559 0.0
C450 C 0.85784 0.40484 0.04239 0.0
C451 C 0.89523 0.426 0.14977 0.0
C452 C 0.80004 0.44843 0.12257 0.0
C453 C 0.87701 0.33798 0.16102 0.0
C454 C 0.82982 0.32754 0.06731 0.0
C455 C 0.76565 0.36981 0.14672 0.0
O456 O 0.87211 0.41163 0.06665 0.0
O457 O 0.86977 0.42369 0.16388 0.0
O458 O 0.80172 0.43597 0.09605 0.0
O459 O 0.88591 0.34139 0.13334 0.0
O460 O 0.80522 0.34003 0.07673 0.0
O461 O 0.79039 0.36375 0.1605 0.0
O462 O 0.85667 0.34015 0.07008 0.0
O463 O 0.85732 0.35512 0.17375 0.0
O464 O 0.76616 0.38172 0.12006 0.0
O465 O 0.9018 0.40962 0.12668 0.0
O466 O 0.8305 0.39437 0.04473 0.0
O467 O 0.8038 0.43413 0.14798 0.0
Sc468 Sc 0.90542 0.61059 0.38029 0.0
Sc469 Sc 0.94316 0.67999 0.39382 0.0
Sc470 Sc 0.87594 0.66203 0.43291 0.0
O471 O 0.90824 0.65052 0.40274 0.0
C472 C 0.83609 0.62656 0.38123 0.0
C473 C 0.9241 0.65812 0.32835 0.0
C474 C 0.88786 0.72524 0.40444 0.0
C475 C 0.97564 0.61571 0.39265 0.0
C476 C 0.88123 0.59307 0.44791 0.0
C477 C 0.93916 0.68732 0.46366 0.0
O478 O 0.859 0.61837 0.36531 0.0
O479 O 0.92923 0.68042 0.34666 0.0
O480 O 0.8682 0.70361 0.40808 0.0
O481 O 0.95088 0.59989 0.39507 0.0
O482 O 0.88038 0.62021 0.45859 0.0
O483 O 0.95627 0.68039 0.44115 0.0
O484 O 0.88783 0.58711 0.42012 0.0
O485 O 0.97579 0.64415 0.38602 0.0
O486 O 0.90981 0.68514 0.46255 0.0
O487 O 0.92169 0.63031 0.33724 0.0
O488 O 0.83909 0.64024 0.40695 0.0
O489 O 0.91643 0.72028 0.40222 0.0
Sc490 Sc 0.85231 0.81561 0.83597 0.0
Sc491 Sc 0.78005 0.83186 0.86384 0.0
Sc492 Sc 0.81623 0.88019 0.81159 0.0
O493 O 0.81614 0.84207 0.83706 0.0
C494 C 0.8811 0.8842 0.83897 0.0
C495 C 0.83683 0.81191 0.90562 0.0
C496 C 0.78949 0.90125 0.87288 0.0
C497 C 0.79509 0.76739 0.83901 0.0
C498 C 0.85479 0.83572 0.76947 0.0
C499 C 0.75083 0.85655 0.80073 0.0
O500 O 0.88394 0.85531 0.83483 0.0
O501 O 0.80789 0.81239 0.90068 0.0
O502 O 0.78732 0.90343 0.84386 0.0
O503 O 0.82381 0.77422 0.8385 0.0
O504 O 0.84654 0.86254 0.7767 0.0
O505 O 0.74829 0.85028 0.82943 0.0
O506 O 0.84981 0.81294 0.787 0.0
O507 O 0.77459 0.78739 0.84315 0.0
O508 O 0.7767 0.86232 0.78813 0.0
O509 O 0.85651 0.81688 0.88462 0.0
O510 O 0.8557 0.89758 0.83546 0.0
O511 O 0.78715 0.87538 0.8861 0.0
Sc512 Sc 0.86332 0.16373 0.61165 0.0
Sc513 Sc 0.92889 0.20123 0.64157 0.0
Sc514 Sc 0.88476 0.14898 0.68697 0.0
O515 O 0.89236 0.1716 0.64688 0.0
C516 C 0.81644 0.15898 0.66856 0.0
C517 C 0.87282 0.23534 0.60855 0.0
C518 C 0.90834 0.21516 0.7101 0.0
C519 C 0.92673 0.17263 0.57523 0.0
C520 C 0.87151 0.09715 0.63664 0.0
C521 C 0.95727 0.14503 0.67838 0.0
O522 O 0.82349 0.15875 0.64028 0.0
O523 O 0.90045 0.23481 0.61859 0.0
O524 O 0.8957 0.18887 0.71424 0.0
O525 O 0.89817 0.16665 0.57719 0.0
O526 O 0.87338 0.10611 0.66441 0.0
O527 O 0.96073 0.16989 0.66315 0.0
O528 O 0.87056 0.11554 0.614 0.0
O529 O 0.94243 0.18314 0.59765 0.0
O530 O 0.93137 0.13474 0.68767 0.0
O531 O 0.85514 0.21167 0.60735 0.0
O532 O 0.83672 0.15989 0.68963 0.0
O533 O 0.92017 0.22347 0.68466 0.0
Sc534 Sc 0.63465 0.0765 0.37229 0.0
Sc535 Sc 0.6578 0.12527 0.43167 0.0
Sc536 Sc 0.59826 0.14576 0.382 0.0
O537 O 0.62986 0.11577 0.3957 0.0
C538 C 0.61973 0.12253 0.31803 0.0
C539 C 0.70285 0.0972 0.38214 0.0
C540 C 0.65722 0.18852 0.39645 0.0
C541 C 0.64744 0.05559 0.44195 0.0
C542 C 0.56343 0.07969 0.37636 0.0
C543 C 0.59327 0.15213 0.45367 0.0
O544 O 0.62327 0.09534 0.32765 0.0
O545 O 0.69788 0.10603 0.40956 0.0
O546 O 0.6293 0.18526 0.3878 0.0
O547 O 0.64673 0.05103 0.41306 0.0
O548 O 0.56405 0.10896 0.37375 0.0
O549 O 0.62152 0.14631 0.45816 0.0
O550 O 0.58758 0.06417 0.37986 0.0
O551 O 0.64668 0.08231 0.45356 0.0
O552 O 0.58053 0.15003 0.42745 0.0
O553 O 0.68165 0.08857 0.36375 0.0
O554 O 0.61404 0.1447 0.33572 0.0
O555 O 0.67128 0.16811 0.4114 0.0
Sc556 Sc 0.6581 0.88508 0.06735 0.0
Sc557 Sc 0.58348 0.86352 0.08689 0.0
Sc558 Sc 0.62238 0.91951 0.12965 0.0
O559 O 0.62133 0.8895 0.09454 0.0
C560 C 0.68735 0.89123 0.13468 0.0
C561 C 0.63651 0.81647 0.07449 0.0
C562 C 0.58457 0.86203 0.15808 0.0
C563 C 0.60215 0.88232 0.01998 0.0
C564 C 0.66125 0.9556 0.07768 0.0
C565 C 0.55604 0.92832 0.10752 0.0
O566 O 0.68963 0.88914 0.10558 0.0
O567 O 0.60819 0.823 0.07378 0.0
O568 O 0.59443 0.88981 0.15925 0.0
O569 O 0.63074 0.88043 0.0258 0.0
O570 O 0.65074 0.95308 0.10492 0.0
O571 O 0.55394 0.90007 0.1001 0.0
O572 O 0.66111 0.93334 0.05887 0.0
O573 O 0.5815 0.87962 0.04049 0.0
O574 O 0.58174 0.94155 0.11348 0.0
O575 O 0.65789 0.83676 0.07489 0.0
O576 O 0.66269 0.89885 0.14801 0.0
O577 O 0.58354 0.84663 0.13329 0.0
Sc578 Sc 0.34845 0.60595 0.07837 0.0
Sc579 Sc 0.40817 0.6337 0.12382 0.0
Sc580 Sc 0.37161 0.56355 0.14153 0.0
O581 O 0.37648 0.60074 0.11453 0.0
C582 C 0.30271 0.57401 0.12562 0.0
C583 C 0.34881 0.67148 0.10457 0.0
C584 C 0.38094 0.61819 0.18921 0.0
C585 C 0.41117 0.63772 0.05421 0.0
C586 C 0.36497 0.53763 0.0722 0.0
C587 C 0.44369 0.57226 0.14113 0.0
O588 O 0.30932 0.58252 0.09852 0.0
O589 O 0.37745 0.67006 0.11067 0.0
O590 O 0.37665 0.58967 0.18388 0.0
O591 O 0.38254 0.63149 0.05261 0.0
O592 O 0.36519 0.53421 0.10142 0.0
O593 O 0.44246 0.60129 0.13805 0.0
O594 O 0.36348 0.56376 0.05925 0.0
O595 O 0.42688 0.63281 0.07822 0.0
O596 O 0.41992 0.55473 0.14003 0.0
O597 O 0.33249 0.64808 0.09701 0.0
O598 O 0.32306 0.56967 0.14597 0.0
O599 O 0.39068 0.63734 0.1693 0.0
Sc600 Sc 0.14314 0.57955 0.82662 0.0
Sc601 Sc 0.17322 0.60912 0.89548 0.0
Sc602 Sc 0.11034 0.64309 0.86085 0.0
O603 O 0.1424 0.61062 0.86085 0.0
C604 C 0.12947 0.64268 0.79141 0.0
C605 C 0.21365 0.59082 0.83675 0.0
C606 C 0.17062 0.6797 0.88489 0.0
C607 C 0.15623 0.53928 0.88713 0.0
C608 C 0.07215 0.58397 0.83797 0.0
C609 C 0.11093 0.62537 0.9302 0.0
O610 O 0.13348 0.61373 0.79112 0.0
O611 O 0.21055 0.59528 0.86553 0.0
O612 O 0.14199 0.67805 0.87864 0.0
O613 O 0.1529 0.54184 0.85805 0.0
O614 O 0.07401 0.61253 0.84398 0.0
O615 O 0.13996 0.62198 0.93054 0.0
O616 O 0.0956 0.568 0.83298 0.0
O617 O 0.16099 0.56225 0.90462 0.0
O618 O 0.09586 0.63013 0.90578 0.0
O619 O 0.19094 0.58844 0.81846 0.0
O620 O 0.12327 0.65741 0.81569 0.0
O621 O 0.18696 0.65612 0.88811 0.0
Sc622 Sc 0.12837 0.33944 0.58803 0.0
Sc623 Sc 0.07301 0.29324 0.62796 0.0
Sc624 Sc 0.10993 0.35652 0.66371 0.0
O625 O 0.1039 0.32947 0.62655 0.0
C626 C 0.17832 0.34797 0.64149 0.0
C627 C 0.12785 0.26602 0.58829 0.0
C628 C 0.1005 0.29027 0.69502 0.0
C629 C 0.06098 0.32372 0.56233 0.0
C630 C 0.11723 0.40707 0.61119 0.0
C631 C 0.03785 0.3471 0.66218 0.0
O632 O 0.17124 0.34489 0.61319 0.0
O633 O 0.10367 0.2622 0.60448 0.0
O634 O 0.10709 0.31873 0.69454 0.0
O635 O 0.08779 0.33577 0.55989 0.0
O636 O 0.11405 0.39885 0.63892 0.0
O637 O 0.03846 0.32012 0.65093 0.0
O638 O 0.12097 0.38801 0.5896 0.0
O639 O 0.05262 0.30728 0.58517 0.0
O640 O 0.06177 0.36378 0.66664 0.0
O641 O 0.13902 0.29229 0.58136 0.0
O642 O 0.15848 0.35106 0.66259 0.0
O643 O 0.08926 0.27606 0.67187 0.0
Sc644 Sc 0.58041 0.65894 0.62441 0.0
Sc645 Sc 0.62238 0.60102 0.6596 0.0
Sc646 Sc 0.64441 0.62827 0.58846 0.0
O647 O 0.61518 0.62939 0.62408 0.0
C648 C 0.58305 0.64719 0.55353 0.0
C649 C 0.55065 0.59526 0.649 0.0
C650 C 0.6346 0.55936 0.60061 0.0
C651 C 0.5991 0.65982 0.6948 0.0
C652 C 0.64027 0.69818 0.60416 0.0
C653 C 0.68959 0.61837 0.64436 0.0
O654 O 0.56689 0.64914 0.57766 0.0
O655 O 0.57633 0.58361 0.65581 0.0
O656 O 0.63253 0.58076 0.58079 0.0
O657 O 0.58973 0.6731 0.67074 0.0
O658 O 0.65624 0.67508 0.59726 0.0
O659 O 0.66875 0.61816 0.66471 0.0
O660 O 0.6115 0.69654 0.61031 0.0
O661 O 0.60917 0.63278 0.69481 0.0
O662 O 0.68347 0.61548 0.61595 0.0
O663 O 0.54785 0.62287 0.63947 0.0
O664 O 0.6116 0.64214 0.5543 0.0
O665 O 0.63636 0.5645 0.6294 0.0
Sc666 Sc 0.30508 0.40122 0.36593 0.0
Sc667 Sc 0.35613 0.43681 0.31271 0.0
Sc668 Sc 0.37893 0.37392 0.35744 0.0
O669 O 0.34676 0.40408 0.34525 0.0
C670 C 0.349 0.3856 0.42219 0.0
C671 C 0.31939 0.47272 0.36473 0.0
C672 C 0.41885 0.43613 0.35034 0.0
C673 C 0.28763 0.41694 0.29626 0.0
C674 C 0.31766 0.33162 0.3542 0.0
C675 C 0.38849 0.37758 0.28529 0.0
O676 O 0.32263 0.3909 0.41115 0.0
O677 O 0.3346 0.47251 0.3397 0.0
O678 O 0.41467 0.40856 0.35919 0.0
O679 O 0.28137 0.40989 0.32387 0.0
O680 O 0.34663 0.33569 0.35664 0.0
O681 O 0.37904 0.40489 0.28224 0.0
O682 O 0.29896 0.35346 0.3557 0.0
O683 O 0.31413 0.42646 0.28779 0.0
O684 O 0.38867 0.36352 0.31079 0.0
O685 O 0.30854 0.44868 0.37763 0.0
O686 O 0.37236 0.38131 0.40551 0.0
O687 O 0.39935 0.45016 0.33402 0.0
H688 H 0.08869 0.20326 0.34996 0.0
H689 H 0.10039 0.28409 0.29356 0.0
H690 H 0.12819 0.25453 0.25543 0.0
H691 H 0.13563 0.2037 0.23267 0.0
H692 H 0.12039 0.12249 0.2882 0.0
H693 H 0.10815 0.15424 0.33223 0.0
C694 C 0.09832 0.2146 0.32982 0.0
C695 C 0.09163 0.24538 0.32391 0.0
C696 C 0.11297 0.1972 0.30745 0.0
C697 C 0.10486 0.26019 0.2983 0.0
C698 C 0.12044 0.24321 0.27631 0.0
C699 C 0.13043 0.19293 0.2546 0.0
C700 C 0.12754 0.16076 0.25674 0.0
C701 C 0.12249 0.21129 0.27966 0.0
C702 C 0.12179 0.14721 0.28559 0.0
C703 C 0.11475 0.16534 0.31085 0.0
H704 H 0.05505 0.90723 0.54403 0.0
H705 H 0.13699 0.86259 0.57517 0.0
H706 H 0.15778 0.86463 0.523 0.0
H707 H 0.14789 0.86961 0.46779 0.0
H708 H 0.06283 0.90812 0.43638 0.0
H709 H 0.04804 0.9181 0.4895 0.0
C710 C 0.07788 0.89877 0.53967 0.0
C711 C 0.09429 0.88437 0.56337 0.0
C712 C 0.08875 0.89826 0.5094 0.0
C713 C 0.1238 0.87352 0.55726 0.0
C714 C 0.13556 0.87445 0.52739 0.0
C715 C 0.1264 0.8808 0.47248 0.0
C716 C 0.10622 0.88764 0.44817 0.0
C717 C 0.11748 0.88524 0.50308 0.0
C718 C 0.07852 0.90219 0.45469 0.0
C719 C 0.07008 0.9079 0.48506 0.0
H720 H 0.44716 0.7791 0.74923 0.0
H721 H 0.38362 0.81505 0.81517 0.0
H722 H 0.35159 0.83453 0.77347 0.0
H723 H 0.3457 0.8468 0.71861 0.0
H724 H 0.40857 0.80895 0.65283 0.0
H725 H 0.43637 0.78393 0.6941 0.0
C726 C 0.42607 0.79087 0.75432 0.0
C727 C 0.41791 0.79633 0.78491 0.0
C728 C 0.40771 0.80157 0.73036 0.0
C729 C 0.3903 0.81091 0.79159 0.0
C730 C 0.37209 0.82207 0.76783 0.0
C731 C 0.36512 0.83257 0.71332 0.0
C732 C 0.37544 0.83022 0.68287 0.0
C733 C 0.38113 0.81835 0.73716 0.0
C734 C 0.40024 0.81125 0.67614 0.0
C735 C 0.41634 0.79712 0.69974 0.0
H736 H 0.48044 0.17377 0.04228 0.0
H737 H 0.39834 0.22592 0.05414 0.0
H738 H 0.37642 0.20329 0.00712 0.0
H739 H 0.38232 0.1713 0.96112 0.0
H740 H 0.46706 0.12412 0.94638 0.0
H741 H 0.48652 0.14221 -0.00379 0.0
C742 C 0.45751 0.1797 0.0348 0.0
C743 C 0.44071 0.20102 0.05165 0.0
C744 C 0.44583 0.16776 0.00719 0.0
C745 C 0.41145 0.20932 0.04147 0.0
C746 C 0.39904 0.1965 0.01463 0.0
C747 C 0.40491 0.16474 0.96906 0.0
C748 C 0.42325 0.1463 0.95044 0.0
C749 C 0.41625 0.17609 -0.00292 0.0
C750 C 0.45267 0.13836 0.96047 0.0
C751 C 0.46372 0.14863 0.98889 0.0
H752 H 0.03606 0.77277 0.16038 0.0
H753 H 0.95653 0.82339 0.18787 0.0
H754 H 0.98487 0.84381 0.23223 0.0
H755 H 0.03148 0.84535 0.2644 0.0
H756 H 0.11084 0.79478 0.2364 0.0
H757 H 0.08305 0.77601 0.19108 0.0
C758 C 0.02492 0.7885 0.17587 0.0
C759 C -0.00588 0.79636 0.17085 0.0
C760 C 0.04117 0.79982 0.20146 0.0
C761 C 0.98021 0.81695 0.19111 0.0
C762 C -0.00366 0.82849 0.21662 0.0
C763 C 0.04261 0.83001 0.24852 0.0
C764 C 0.07306 0.8211 0.25399 0.0
C765 C 0.02665 0.81963 0.22229 0.0
C766 C 0.08738 0.8018 0.23282 0.0
C767 C 0.07154 0.79114 0.20687 0.0
H768 H 0.40601 0.84212 0.40569 0.0
H769 H 0.42713 0.76871 0.46846 0.0
H770 H 0.40195 0.79568 0.51012 0.0
H771 H 0.37734 0.84109 0.52923 0.0
H772 H 0.35234 0.91372 0.46755 0.0
H773 H 0.37591 0.88613 0.42442 0.0
C774 C 0.40489 0.83208 0.4285 0.0
C775 C 0.41863 0.80371 0.43426 0.0
C776 C 0.38997 0.84754 0.45227 0.0
C777 C 0.41671 0.79053 0.46362 0.0
C778 C 0.40246 0.80596 0.48741 0.0
C779 C 0.3766 0.85066 0.50624 0.0
C780 C 0.36339 0.87924 0.50129 0.0
C781 C 0.38949 0.83457 0.48204 0.0
C782 C 0.36257 0.89167 0.47161 0.0
C783 C 0.37605 0.87595 0.44715 0.0
H784 H 0.42987 0.18012 0.66468 0.0
H785 H 0.33481 0.20006 0.68239 0.0
H786 H 0.33195 0.15827 0.72 0.0
H787 H 0.35904 0.12266 0.75385 0.0
H788 H 0.456 0.10911 0.74132 0.0
H789 H 0.45559 0.1413 0.69513 0.0
C790 C 0.40827 0.17489 0.67619 0.0
C791 C 0.38263 0.19332 0.67096 0.0
C792 C 0.40732 0.15204 0.69885 0.0
C793 C 0.35491 0.18634 0.68622 0.0
C794 C 0.35331 0.16253 0.70776 0.0
C795 C 0.37978 0.12597 0.74029 0.0
C796 C 0.40746 0.11345 0.75052 0.0
C797 C 0.37973 0.14612 0.71514 0.0
C798 C 0.43446 0.11841 0.73351 0.0
C799 C 0.43423 0.13698 0.70735 0.0
H800 H 0.01946 0.17871 -0.00689 0.0
H801 H 0.10834 0.21989 0.97274 0.0
H802 H 0.13284 0.18473 0.00836 0.0
H803 H 0.12826 0.14675 0.04973 0.0
H804 H 0.03895 0.10992 0.07468 0.0
H805 H 0.01535 0.13809 0.03232 0.0
C806 C 0.04423 0.17961 -0.00387 0.0
C807 C 0.06204 0.20198 0.98053 0.0
C808 C 0.05807 0.15992 0.01738 0.0
C809 C 0.0941 0.20305 0.98475 0.0
C810 C 0.10815 0.1829 0.00504 0.0
C811 C 0.1038 0.14411 0.04513 0.0
C812 C 0.08533 0.12602 0.06477 0.0
C813 C 0.09028 0.16178 0.02203 0.0
C814 C 0.05353 0.12347 0.05943 0.0
C815 C 0.04006 0.1398 0.03547 0.0
H816 H 0.29312 0.01224 0.27718 0.0
H817 H 0.31079 0.95983 0.19522 0.0
H818 H 0.26985 0.98597 0.16819 0.0
H819 H 0.22767 0.02243 0.16819 0.0
H820 H 0.20869 0.07347 0.25069 0.0
H821 H 0.2515 0.0494 0.27691 0.0
C822 C 0.28807 0.00664 0.25338 0.0
C823 C 0.30497 0.98409 0.23831 0.0
C824 C 0.26426 0.0216 0.23795 0.0
C825 C 0.29807 0.97702 0.20746 0.0
C826 C 0.27468 -0.00799 0.1919 0.0
C827 C 0.23322 0.02864 0.19173 0.0
C828 C 0.21507 0.04979 0.20737 0.0
C829 C 0.25751 0.01424 0.20694 0.0
C830 C 0.22228 0.05721 0.23809 0.0
C831 C 0.24673 0.04342 0.25316 0.0
H832 H 0.27037 0.0258 0.36005 0.0
H833 H 0.23482 0.01973 0.45241 0.0
H834 H 0.21021 0.9701 0.4406 0.0
H835 H 0.19709 0.9295 0.40351 0.0
H836 H 0.22788 0.93786 0.30973 0.0
H837 H 0.25642 0.98542 0.3225 0.0
C838 C 0.2573 0.0135 0.37755 0.0
C839 C 0.25432 0.0263 0.40702 0.0
C840 C 0.24251 0.98542 0.37034 0.0
C841 C 0.23715 0.01039 0.42948 0.0
C842 C 0.22321 0.98199 0.4228 0.0
C843 C 0.21043 0.94158 0.38605 0.0
C844 C 0.2108 0.93026 0.35588 0.0
C845 C 0.22556 0.96942 0.39327 0.0
C846 C 0.22748 0.94629 0.33315 0.0
C847 C 0.24368 0.97343 0.34043 0.0
H848 H 0.14328 0.93373 0.70949 0.0
H849 H 0.18632 0.87906 0.77961 0.0
H850 H 0.22665 0.86544 0.74374 0.0
H851 H 0.25357 0.87524 0.69531 0.0
H852 H 0.21135 0.93049 0.62529 0.0
H853 H 0.16656 0.93729 0.65819 0.0
C854 C 0.16118 0.91843 0.7168 0.0
C855 C 0.16217 0.90809 0.74742 0.0
C856 C 0.18463 0.91105 0.69621 0.0
C857 C 0.18521 0.88777 0.75632 0.0
C858 C 0.20839 0.88002 0.73586 0.0
C859 C 0.23439 0.88846 0.68709 0.0
C860 C 0.23606 0.90296 0.65826 0.0
C861 C 0.20898 0.89257 0.7062 0.0
C862 C 0.21074 0.91936 0.64756 0.0
C863 C 0.18519 0.92337 0.66641 0.0
H864 H 0.31339 0.93756 0.98424 0.0
H865 H 0.22729 0.98475 0.98272 0.0
H866 H 0.25092 0.02595 0.95179 0.0
H867 H 0.29543 0.04718 0.92369 0.0
H868 H 0.38015 -0.00231 0.92187 0.0
H869 H 0.35761 0.9585 0.95593 0.0
C870 C 0.29982 0.95697 0.97735 0.0
C871 C 0.26868 0.95825 0.98576 0.0
C872 C 0.31329 0.97999 0.95902 0.0
C873 C 0.2513 0.98333 0.97643 0.0
C874 C 0.26479 0.00683 0.9588 0.0
C875 C 0.30906 0.02798 0.93104 0.0
C876 C 0.33946 0.02534 0.92058 0.0
C877 C 0.29568 0.00521 0.94978 0.0
C878 C 0.35671 0.00011 0.92972 0.0
C879 C 0.34385 0.97778 0.94913 0.0
H880 H 0.32565 0.84285 0.27386 0.0
H881 H 0.33529 0.86667 0.36965 0.0
H882 H 0.28859 0.8367 0.3817 0.0
H883 H 0.23926 0.817 0.36285 0.0
H884 H 0.22481 0.80433 0.26561 0.0
H885 H 0.27946 0.81496 0.25615 0.0
C886 C 0.31804 0.84057 0.29751 0.0
C887 C 0.33331 0.85729 0.32082 0.0
C888 C 0.29006 0.82531 0.3038 0.0
C889 C 0.32343 0.85432 0.35135 0.0
C890 C 0.29675 0.83726 0.35818 0.0
C891 C 0.24839 0.81511 0.33974 0.0
C892 C 0.22817 0.81028 0.31486 0.0
C893 C 0.27888 0.82448 0.33429 0.0
C894 C 0.24008 0.80811 0.28502 0.0
C895 C 0.27119 0.81469 0.27963 0.0
H896 H 0.31205 0.09591 0.53938 0.0
H897 H 0.39087 0.05997 0.49255 0.0
H898 H 0.39447 0.01945 0.53097 0.0
H899 H 0.36609 0.9867 0.56756 0.0
H900 H 0.28385 0.01922 0.6103 0.0
H901 H 0.29047 0.06873 0.58386 0.0
C902 C 0.3306 0.07976 0.53807 0.0
C903 C 0.35028 0.07999 0.51239 0.0
C904 C 0.33128 0.05546 0.55905 0.0
C905 C 0.37492 0.05976 0.51163 0.0
C906 C 0.37678 0.03638 0.53343 0.0
C907 C 0.35026 0.00513 0.57172 0.0
C908 C 0.32424 -0.00036 0.59006 0.0
C909 C 0.35363 0.03273 0.55561 0.0
C910 C 0.30386 0.02327 0.59594 0.0
C911 C 0.30761 0.05137 0.58073 0.0
H912 H 0.18302 0.0345 0.79318 0.0
H913 H 0.17881 0.01907 0.8911 0.0
H914 H 0.22728 0.04812 0.89783 0.0
H915 H 0.27316 0.07283 0.87517 0.0
H916 H 0.28073 0.0818 0.77689 0.0
H917 H 0.22817 0.0606 0.77069 0.0
C918 C 0.19237 0.03808 0.81607 0.0
C919 C 0.17739 0.02489 0.84169 0.0
C920 C 0.2208 0.05345 0.81951 0.0
C921 C 0.19 0.02909 0.87113 0.0
C922 C 0.21767 0.04559 0.87494 0.0
C923 C 0.26288 0.07067 0.85249 0.0
C924 C 0.28011 0.0791 0.82648 0.0
C925 C 0.23358 0.05714 0.84921 0.0
C926 C 0.26739 0.07569 0.79708 0.0
C927 C 0.23756 0.06348 0.79363 0.0
H928 H 0.13398 0.91063 0.0672 0.0
H929 H 0.19958 0.89181 0.13886 0.0
H930 H 0.17521 0.92898 0.17238 0.0
H931 H 0.14511 0.97582 0.17527 0.0
H932 H 0.0857 -0.0005 0.09997 0.0
H933 H 0.09696 0.95122 0.07425 0.0
C934 C 0.14227 0.91385 0.09054 0.0
C935 C 0.169 0.89915 0.1003 0.0
C936 C 0.12942 0.93665 0.10886 0.0
C937 C 0.17934 0.90332 0.13067 0.0
C938 C 0.16552 0.92472 0.14976 0.0
C939 C 0.13363 0.96967 0.15389 0.0
C940 C 0.11486 0.99106 0.13928 0.0
C941 C 0.14198 0.94298 0.13828 0.0
C942 C 0.10034 0.98327 0.11144 0.0
C943 C 0.10701 0.95583 0.09664 0.0
H944 H 0.269 0.23248 0.05402 0.0
H945 H 0.18595 0.27238 0.01901 0.0
H946 H 0.15503 0.23756 0.05111 0.0
H947 H 0.15163 0.19684 0.08994 0.0
H948 H 0.23442 0.15586 0.12391 0.0
H949 H 0.26553 0.19056 0.09158 0.0
C950 C 0.24413 0.23355 0.05324 0.0
C951 C 0.22987 0.25522 0.03418 0.0
C952 C 0.2265 0.21363 0.0719 0.0
C953 C 0.19758 0.25603 0.03344 0.0
C954 C 0.17987 0.23623 0.05192 0.0
C955 C 0.17653 0.19579 0.09062 0.0
C956 C 0.19079 0.17423 0.10974 0.0
C957 C 0.19412 0.21525 0.07151 0.0
C958 C 0.22298 0.17249 0.10964 0.0
C959 C 0.24072 0.19222 0.09108 0.0
H960 H 0.78253 0.18019 0.85834 0.0
H961 H 0.71322 0.12207 0.9011 0.0
H962 H 0.6728 0.15346 0.87954 0.0
H963 H 0.65854 0.20354 0.85976 0.0
H964 H 0.72831 0.26476 0.82215 0.0
H965 H 0.76697 0.22574 0.8295 0.0
C966 C 0.75854 0.17387 0.86208 0.0
C967 C 0.75077 0.14942 0.88184 0.0
C968 C 0.7355 0.1929 0.85087 0.0
C969 C 0.71968 0.14125 0.88641 0.0
C970 C 0.69657 0.15922 0.87417 0.0
C971 C 0.68197 0.208 0.85217 0.0
C972 C 0.69075 0.23728 0.84128 0.0
C973 C 0.70434 0.18614 0.85803 0.0
C974 C 0.72114 0.24257 0.83124 0.0
C975 C 0.7433 0.22034 0.83561 0.0
H976 H 0.01674 0.49748 0.18464 0.0
H977 H 0.98469 0.47451 0.27579 0.0
H978 H 0.93597 0.45495 0.25446 0.0
H979 H 0.90531 0.43908 0.20957 0.0
H980 H 0.93987 0.45742 0.11836 0.0
H981 H 0.98476 0.48456 0.14002 0.0
C982 C -0.00111 0.48863 0.19986 0.0
C983 C 0.00426 0.48717 0.23165 0.0
C984 C 0.97154 0.47649 0.18739 0.0
C985 C 0.98108 0.47557 0.25117 0.0
C986 C 0.95328 0.4644 0.239 0.0
C987 C 0.92238 0.44961 0.19448 0.0
C988 C 0.9195 0.4463 0.1625 0.0
C989 C 0.94864 0.46398 0.2071 0.0
C990 C 0.94185 0.45962 0.14309 0.0
C991 C 0.96747 0.47504 0.15544 0.0
H992 H 0.81459 0.82691 0.46734 0.0
H993 H 0.89943 0.83419 0.51893 0.0
H994 H 0.92473 0.80211 0.48119 0.0
H995 H 0.92012 0.76527 0.43925 0.0
H996 H 0.83364 0.75275 0.39165 0.0
H997 H 0.81185 0.79465 0.42134 0.0
C998 C 0.83875 0.8219 0.47009 0.0
C999 C 0.85493 0.83239 0.49621 0.0
C1000 C 0.85286 0.80265 0.44888 0.0
C1001 C 0.8863 0.82592 0.4993 0.0
C1002 C 0.90082 0.80768 0.47768 0.0
C1003 C 0.89688 0.77253 0.43451 0.0
C1004 C 0.87838 0.75605 0.41342 0.0
C1005 C 0.88399 0.79498 0.4531 0.0
C1006 C 0.84819 0.76526 0.40782 0.0
C1007 C 0.83568 0.78889 0.42504 0.0
H1008 H 0.91916 0.06596 0.22929 0.0
H1009 H 0.91666 0.03327 0.13559 0.0
H1010 H 0.96579 0.05942 0.12541 0.0
H1011 H 0.01414 0.08141 0.14646 0.0
H1012 H 0.01814 0.1104 0.241 0.0
H1013 H 0.96379 0.09563 0.24778 0.0
C1014 C 0.92887 0.06524 0.20637 0.0
C1015 C 0.91476 0.04682 0.18355 0.0
C1016 C 0.95782 0.07897 0.20114 0.0
C1017 C 0.9273 0.04681 0.15377 0.0
C1018 C 0.95559 0.06148 0.148 0.0
C1019 C 0.00271 0.08506 0.16826 0.0
C1020 C 0.01965 0.09647 0.19337 0.0
C1021 C 0.97185 0.07593 0.17204 0.0
C1022 C 0.00517 0.1014 0.22157 0.0
C1023 C 0.97425 0.09296 0.22538 0.0
H1024 H 0.26878 0.70959 0.50325 0.0
H1025 H 0.19113 0.71539 0.56424 0.0
H1026 H 0.21214 0.76358 0.58545 0.0
H1027 H 0.25251 0.8043 0.58615 0.0
H1028 H 0.33185 0.79611 0.52761 0.0
H1029 H 0.3104 0.74852 0.50605 0.0
C1030 C 0.25646 0.72148 0.52114 0.0
C1031 C 0.22836 0.70924 0.53202 0.0
C1032 C 0.26905 0.74863 0.53372 0.0
C1033 C 0.21282 0.72449 0.55554 0.0
C1034 C 0.22479 0.75201 0.56763 0.0
C1035 C 0.26507 0.79199 0.56874 0.0
C1036 C 0.29363 0.80368 0.55842 0.0
C1037 C 0.25287 0.76431 0.55684 0.0
C1038 C 0.3099 0.78743 0.53608 0.0
C1039 C 0.29759 0.76031 0.52362 0.0
H1040 H 0.07441 0.52051 0.36682 0.0
H1041 H 0.11679 0.6001 0.32402 0.0
H1042 H 0.08299 0.63355 0.35265 0.0
H1043 H 0.03211 0.63798 0.37581 0.0
H1044 H 0.9856 0.55711 0.41208 0.0
H1045 H 0.03021 0.52651 0.40045 0.0
C1046 C 0.07721 0.54525 0.36484 0.0
C1047 C 0.09704 0.55787 0.3425 0.0
C1048 C 0.05605 0.56407 0.37938 0.0
C1049 C 0.10102 0.58991 0.3406 0.0
C1050 C 0.08143 0.60901 0.35666 0.0
C1051 C 0.03199 0.61383 0.38188 0.0
C1052 C 0.00508 0.59952 0.39341 0.0
C1053 C 0.05715 0.59607 0.37385 0.0
C1054 C 0.00565 0.56843 0.40208 0.0
C1055 C 0.0312 0.55091 0.39552 0.0
H1056 H 0.43994 0.4037 0.82865 0.0
H1057 H 0.43279 0.32288 0.77141 0.0
H1058 H 0.46786 0.29624 0.80534 0.0
H1059 H 0.50767 0.29963 0.84468 0.0
H1060 H 0.51842 0.38198 0.89917 0.0
H1061 H 0.47367 0.40362 0.87394 0.0
C1062 C 0.44556 0.38006 0.82392 0.0
C1063 C 0.43451 0.36565 0.79702 0.0
C1064 C 0.46632 0.36506 0.84316 0.0
C1065 C 0.44155 0.3348 0.79156 0.0
C1066 C 0.46155 0.31947 0.81102 0.0
C1067 C 0.49965 0.32187 0.85191 0.0
C1068 C 0.51688 0.33952 0.8732 0.0
C1069 C 0.47516 0.33489 0.83602 0.0
C1070 C 0.50583 0.36812 0.88248 0.0
C1071 C 0.48047 0.38067 0.86778 0.0
H1072 H 0.96492 0.7908 0.69192 0.0
H1073 H -0.00111 0.88251 0.71217 0.0
H1074 H 0.94939 0.89472 0.73533 0.0
H1075 H 0.89822 0.87783 0.75312 0.0
H1076 H 0.8655 0.78538 0.7345 0.0
H1077 H 0.91263 0.77525 0.70613 0.0
C1078 C 0.96158 0.81348 0.70143 0.0
C1079 C 0.98566 0.8356 0.70082 0.0
C1080 C 0.93318 0.82032 0.71439 0.0
C1081 C 0.98077 0.86501 0.71273 0.0
C1082 C 0.95246 0.87203 0.72577 0.0
C1083 C 0.90099 0.85578 0.74201 0.0
C1084 C 0.87845 0.83236 0.74571 0.0
C1085 C 0.92864 0.84974 0.72699 0.0
C1086 C 0.88255 0.80372 0.73177 0.0
C1087 C 0.90959 0.79785 0.7159 0.0
H1088 H 0.93965 0.18576 0.43436 0.0
H1089 H 0.00967 0.25186 0.462 0.0
H1090 H 0.00677 0.23309 0.51492 0.0
H1091 H 0.97707 0.20473 0.55434 0.0
H1092 H 0.90637 0.13931 0.52615 0.0
H1093 H 0.91753 0.15017 0.47238 0.0
C1094 C 0.95485 0.19539 0.45187 0.0
C1095 C 0.97448 0.22029 0.44461 0.0
C1096 C 0.95281 0.18471 0.48218 0.0
C1097 C -0.00562 0.23255 0.4672 0.0
C1098 C 0.99256 0.22199 0.49749 0.0
C1099 C 0.96486 0.19208 0.53644 0.0
C1100 C 0.94038 0.17187 0.5442 0.0
C1101 C 0.97084 0.19902 0.50547 0.0
C1102 C 0.9249 0.15548 0.52074 0.0
C1103 C 0.93115 0.16176 0.48997 0.0
H1104 H 0.59522 0.19071 0.19685 0.0
H1105 H 0.52432 0.11997 0.1904 0.0
H1106 H 0.54836 0.09174 0.23229 0.0
H1107 H 0.58312 0.09301 0.27713 0.0
H1108 H 0.65004 0.167 0.28629 0.0
H1109 H 0.63462 0.18777 0.23656 0.0
C1110 C 0.58533 0.16881 0.20419 0.0
C1111 C 0.55761 0.15783 0.19116 0.0
C1112 C 0.5986 0.15337 0.2289 0.0
C1113 C 0.5454 0.12915 0.20046 0.0
C1114 C 0.55909 0.11304 0.22446 0.0
C1115 C 0.59505 0.11296 0.26752 0.0
C1116 C 0.61756 0.12861 0.28502 0.0
C1117 C 0.5848 0.12572 0.23981 0.0
C1118 C 0.63265 0.15472 0.27293 0.0
C1119 C 0.62365 0.16671 0.24471 0.0
H1120 H 0.55596 0.84693 0.89021 0.0
H1121 H 0.47833 0.89841 0.92123 0.0
H1122 H 0.50883 0.91907 0.9638 0.0
H1123 H 0.55228 0.91137 -0.00116 0.0
H1124 H 0.62896 0.85795 0.96927 0.0
H1125 H 0.60426 0.8494 0.91937 0.0
C1126 C 0.546 0.86343 0.90572 0.0
C1127 C 0.51459 0.87011 0.90336 0.0
C1128 C 0.56327 0.87425 0.93085 0.0
C1129 C 0.50227 0.89231 0.92294 0.0
C1130 C 0.51961 0.90392 0.94752 0.0
C1131 C 0.56388 0.89852 0.98113 0.0
C1132 C 0.59182 0.88446 0.98785 0.0
C1133 C 0.5493 0.89324 0.95285 0.0
C1134 C 0.60719 0.86861 0.96464 0.0
C1135 C 0.593 0.86359 0.93619 0.0
H1136 H 0.96175 0.30387 0.81086 0.0
H1137 H 0.93446 0.22716 0.86829 0.0
H1138 H 0.90724 0.20325 0.82504 0.0
H1139 H 0.89829 0.20052 0.76985 0.0
H1140 H 0.92974 0.27492 0.71123 0.0
H1141 H 0.94775 0.30365 0.7562 0.0
C1142 C 0.94926 0.28225 0.81405 0.0
C1143 C 0.95038 0.26705 0.84253 0.0
C1144 C 0.9347 0.2681 0.78883 0.0
C1145 C 0.93422 0.23904 0.8464 0.0
C1146 C 0.91869 0.22537 0.82171 0.0
C1147 C 0.90849 0.22328 0.76684 0.0
C1148 C 0.91313 0.23527 0.73715 0.0
C1149 C 0.91986 0.23912 0.79259 0.0
C1150 C 0.92623 0.26493 0.7338 0.0
C1151 C 0.93664 0.28136 0.75949 0.0
H1152 H 0.53271 0.22036 0.56513 0.0
H1153 H 0.45072 0.19852 0.51264 0.0
H1154 H 0.48118 0.17062 0.47535 0.0
H1155 H 0.53115 0.15489 0.45627 0.0
H1156 H 0.61341 0.17625 0.50855 0.0
H1157 H 0.58262 0.20145 0.54767 0.0
C1158 C 0.52152 0.20941 0.54557 0.0
C1159 C 0.48956 0.21179 0.54146 0.0
C1160 C 0.53915 0.19328 0.52428 0.0
C1161 C 0.4753 0.19716 0.51624 0.0
C1162 C 0.49269 0.18121 0.49491 0.0
C1163 C 0.5424 0.16487 0.4763 0.0
C1164 C 0.5746 0.16396 0.47929 0.0
C1165 C 0.52465 0.17948 0.4985 0.0
C1166 C 0.58868 0.17662 0.50565 0.0
C1167 C 0.57111 0.1912 0.52794 0.0
H1168 H 0.52955 0.78214 0.26707 0.0
H1169 H 0.48808 0.86857 0.28776 0.0
H1170 H 0.5164 0.89329 0.24573 0.0
H1171 H 0.55077 0.88979 0.20138 0.0
H1172 H 0.58821 0.80248 0.17687 0.0
H1173 H 0.56392 0.7786 0.22202 0.0
C1174 C 0.5272 0.80646 0.26257 0.0
C1175 C 0.50706 0.82362 0.28053 0.0
C1176 C 0.54272 0.82029 0.2376 0.0
C1177 C 0.50356 0.85497 0.27419 0.0
C1178 C 0.5197 0.8691 0.25018 0.0
C1179 C 0.55394 0.86563 0.20622 0.0
C1180 C 0.57148 0.84793 0.18615 0.0
C1181 C 0.53905 0.85192 0.2315 0.0
C1182 C 0.57483 0.81651 0.19215 0.0
C1183 C 0.56096 0.80289 0.21792 0.0
H1184 H 0.87647 0.75158 0.03093 0.0
H1185 H 0.96282 0.79544 0.00541 0.0
H1186 H 0.93837 0.81876 0.96099 0.0
H1187 H 0.89374 0.82409 0.9278 0.0
H1188 H 0.80717 0.78002 0.95189 0.0
H1189 H 0.83034 0.75988 -0.00103 0.0
C1190 C 0.88987 0.76637 0.01572 0.0
C1191 C 0.9215 0.77153 0.0213 0.0
C1192 C 0.87566 0.7797 0.9901 0.0
C1193 C 0.93851 0.79096 0.00156 0.0
C1194 C 0.92455 0.80431 0.97615 0.0
C1195 C 0.87979 0.81023 0.94341 0.0
C1196 C 0.84886 0.80325 0.93617 0.0
C1197 C 0.89332 0.79845 0.96998 0.0
C1198 C 0.83102 0.78573 0.95694 0.0
C1199 C 0.84433 0.77404 0.98372 0.0
H1200 H 0.63923 0.92497 0.74757 0.0
H1201 H 0.69254 0.91684 0.66455 0.0
H1202 H 0.72626 0.88067 0.69019 0.0
H1203 H 0.74587 0.85978 0.73863 0.0
H1204 H 0.69358 0.86991 0.82211 0.0
H1205 H 0.65363 0.89617 0.79359 0.0
C1206 C 0.65792 0.91486 0.73492 0.0
C1207 C 0.664 0.92418 0.70453 0.0
C1208 C 0.67747 0.89463 0.74995 0.0
C1209 C 0.68768 0.91031 0.68811 0.0
C1210 C 0.70704 0.88976 0.70281 0.0
C1211 C 0.7254 0.86713 0.75048 0.0
C1212 C 0.72312 0.86373 0.7826 0.0
C1213 C 0.703 0.88301 0.73412 0.0
C1214 C 0.69611 0.87258 0.79749 0.0
C1215 C 0.67337 0.88785 0.78123 0.0
H1216 H 0.82998 0.95903 0.62561 0.0
H1217 H 0.8516 0.97746 0.53042 0.0
H1218 H 0.87261 0.02793 0.5442 0.0
H1219 H 0.87894 0.06876 0.58207 0.0
H1220 H 0.85597 0.05132 0.67712 0.0
H1221 H 0.84192 -0.00181 0.66463 0.0
C1222 C 0.83966 0.97395 0.60797 0.0
C1223 C 0.8387 0.96486 0.57702 0.0
C1224 C 0.85128 0.00311 0.61595 0.0
C1225 C 0.85171 0.98416 0.5544 0.0
C1226 C 0.86369 0.01302 0.56222 0.0
C1227 C 0.87114 0.05328 0.60014 0.0
C1228 C 0.86783 0.06409 0.6303 0.0
C1229 C 0.86262 0.02306 0.59275 0.0
C1230 C 0.85842 0.0436 0.65362 0.0
C1231 C 0.85025 0.01327 0.64649 0.0
H1232 H 0.81447 0.07832 0.29757 0.0
H1233 H 0.83594 0.01286 0.36839 0.0
H1234 H 0.79701 0.0347 0.40184 0.0
H1235 H 0.7496 0.06475 0.40592 0.0
H1236 H 0.72563 0.12585 0.33221 0.0
H1237 H 0.77291 0.11384 0.30506 0.0
C1238 C 0.81116 0.0693 0.32061 0.0
C1239 C 0.82739 0.04353 0.33021 0.0
C1240 C 0.78792 0.08102 0.33904 0.0
C1241 C 0.82339 0.03247 0.36033 0.0
C1242 C 0.80096 0.0448 0.37938 0.0
C1243 C 0.75543 0.07609 0.38442 0.0
C1244 C 0.73442 0.09591 0.37078 0.0
C1245 C 0.78194 0.06792 0.36827 0.0
C1246 C 0.74166 0.11038 0.34284 0.0
C1247 C 0.76854 0.10343 0.32731 0.0
H1248 H 0.75744 0.0639 0.06213 0.0
H1249 H 0.74615 0.03871 0.96676 0.0
H1250 H 0.70458 0.00264 0.98044 0.0
H1251 H 0.67526 0.97467 0.01992 0.0
H1252 H 0.68631 -0.00021 0.11536 0.0
H1253 H 0.7236 0.04009 0.10109 0.0
C1254 C 0.74569 0.05068 0.04434 0.0
C1255 C 0.75513 0.05358 0.01357 0.0
C1256 C 0.72173 0.03007 0.05234 0.0
C1257 C 0.73938 0.03677 0.99065 0.0
C1258 C 0.71565 0.0161 -0.00156 0.0
C1259 C 0.68545 0.98928 0.03758 0.0
C1260 C 0.67835 0.98393 0.06868 0.0
C1261 C 0.70716 0.01206 0.02928 0.0
C1262 C 0.69138 0.00337 0.09124 0.0
C1263 C 0.71293 0.02625 0.08313 0.0
H1264 H 0.69801 0.08949 0.71426 0.0
H1265 H 0.67865 0.09317 0.61698 0.0
H1266 H 0.72135 0.12971 0.60969 0.0
H1267 H 0.7682 0.15397 0.62931 0.0
H1268 H 0.79156 0.14607 0.72547 0.0
H1269 H 0.74261 0.119 0.73507 0.0
C1270 C 0.70283 0.09876 0.69158 0.0
C1271 C 0.68552 0.0883 0.6661 0.0
C1272 C 0.72814 0.11901 0.68737 0.0
C1273 C 0.69197 0.10048 0.63686 0.0
C1274 C 0.71632 0.12144 0.63269 0.0
C1275 C 0.76246 0.14691 0.65255 0.0
C1276 C 0.78395 0.15145 0.67648 0.0
C1277 C 0.73522 0.1299 0.65756 0.0
C1278 C 0.77566 0.14265 0.70651 0.0
C1279 C 0.74778 0.12685 0.71196 0.0
H1280 H 0.69911 0.96588 0.54075 0.0
H1281 H 0.71014 0.91016 0.45972 0.0
H1282 H 0.68021 0.9462 0.42969 0.0
H1283 H 0.65837 -0.00303 0.42485 0.0
H1284 H 0.65091 0.05485 0.50495 0.0
H1285 H 0.67148 0.01421 0.53706 0.0
C1286 C 0.69438 0.96128 0.51668 0.0
C1287 C 0.70718 0.93569 0.50232 0.0
C1288 C 0.67812 0.98266 0.49932 0.0
C1289 C 0.70083 0.92994 0.47116 0.0
C1290 C 0.68379 0.95057 0.45398 0.0
C1291 C 0.66068 0.00061 0.44942 0.0
C1292 C 0.6537 0.02922 0.46232 0.0
C1293 C 0.67348 0.97761 0.46754 0.0
C1294 C 0.65652 0.03325 0.49429 0.0
C1295 C 0.66838 0.01004 0.51268 0.0
H1296 H 0.8179 0.912 0.18935 0.0
H1297 H 0.7654 0.92354 0.27216 0.0
H1298 H 0.71912 0.90314 0.24622 0.0
H1299 H 0.69249 0.89285 0.19719 0.0
H1300 H 0.74581 0.883 0.11418 0.0
H1301 H 0.79309 0.89114 0.14322 0.0
C1302 C 0.79648 0.90904 0.2019 0.0
C1303 C 0.79455 0.91958 0.2322 0.0
C1304 C 0.77013 0.89811 0.18668 0.0
C1305 C 0.7671 0.91549 0.24868 0.0
C1306 C 0.74068 0.90418 0.23376 0.0
C1307 C 0.71446 0.89186 0.18554 0.0
C1308 C 0.71553 0.8885 0.15338 0.0
C1309 C 0.74164 0.89711 0.20228 0.0
C1310 C 0.74423 0.88633 0.13879 0.0
C1311 C 0.77134 0.89102 0.15535 0.0
H1312 H 0.83541 0.00306 0.9659 0.0
H1313 H 0.87368 0.04137 0.88244 0.0
H1314 H 0.85506 -0.00353 0.85364 0.0
H1315 H 0.82284 0.94971 0.8513 0.0
H1316 H 0.78377 0.9116 0.9345 0.0
H1317 H 0.80693 0.95385 0.96428 0.0
C1318 C 0.84059 0.00113 0.9416 0.0
C1319 C 0.85592 0.02547 0.92627 0.0
C1320 C 0.82856 0.97601 0.925 0.0
C1321 C 0.86203 0.02284 0.89471 0.0
C1322 C 0.85099 -0.00258 0.87819 0.0
C1323 C 0.81915 0.95075 0.87592 0.0
C1324 C 0.80104 0.92797 0.89062 0.0
C1325 C 0.83314 0.97457 0.89289 0.0
C1326 C 0.79719 0.92919 0.92263 0.0
C1327 C 0.81067 0.95314 0.93967 0.0
H1328 H 0.7832 0.64294 0.90359 0.0
H1329 H 0.68783 0.66756 0.90415 0.0
H1330 H 0.69842 0.70777 0.86607 0.0
H1331 H 0.73695 0.74269 0.84284 0.0
H1332 H 0.8326 0.71807 0.8433 0.0
H1333 H 0.81946 0.67026 0.86947 0.0
C1334 C 0.76465 0.65662 0.89466 0.0
C1335 C 0.73507 0.65317 0.90707 0.0
C1336 C 0.77097 0.67974 0.8731 0.0
C1337 C 0.71091 0.67026 0.89503 0.0
C1338 C 0.71698 0.6933 0.87341 0.0
C1339 C 0.75483 0.72645 0.84777 0.0
C1340 C 0.78587 0.73466 0.84248 0.0
C1341 C 0.74728 0.69936 0.86371 0.0
C1342 C 0.80858 0.71283 0.84794 0.0
C1343 C 0.80116 0.68551 0.86318 0.0
H1344 H 0.26916 0.78511 0.07274 0.0
H1345 H 0.35876 0.82157 0.04752 0.0
H1346 H 0.38298 0.77678 0.06975 0.0
H1347 H 0.37821 0.72478 0.0903 0.0
H1348 H 0.28845 0.6859 0.11102 0.0
H1349 H 0.26475 0.73435 0.09715 0.0
C1350 C 0.29402 0.78352 0.07275 0.0
C1351 C 0.31216 0.80643 0.05838 0.0
C1352 C 0.30771 0.7572 0.08459 0.0
C1353 C 0.34432 0.80404 0.05826 0.0
C1354 C 0.35819 0.77845 0.07094 0.0
C1355 C 0.35353 0.72714 0.09247 0.0
C1356 C 0.33505 0.70187 0.10153 0.0
C1357 C 0.34004 0.75451 0.08329 0.0
C1358 C 0.30308 0.70508 0.10389 0.0
C1359 C 0.28954 0.7327 0.0959 0.0
H1360 H 0.95496 0.49709 0.82792 0.0
H1361 H 0.91139 0.58386 0.81447 0.0
H1362 H 0.95978 0.61121 0.82642 0.0
H1363 H 0.01587 0.60999 0.83352 0.0
H1364 H 0.05984 0.52254 0.84184 0.0
H1365 H 0.01006 0.49595 0.83877 0.0
C1366 C 0.95588 0.52199 0.82859 0.0
C1367 C 0.92979 0.53852 0.82053 0.0
C1368 C 0.98408 0.53741 0.83367 0.0
C1369 C 0.9313 0.57076 0.82077 0.0
C1370 C 0.95899 0.58635 0.82728 0.0
C1371 C 0.01452 0.58514 0.8349 0.0
C1372 C 0.0416 0.56831 0.83737 0.0
C1373 C 0.98581 0.56986 0.83251 0.0
C1374 C 0.03943 0.53609 0.83931 0.0
C1375 C 0.01094 0.52081 0.83778 0.0
H1376 H 0.17758 0.15586 0.51051 0.0
H1377 H 0.26306 0.20506 0.52901 0.0
H1378 H 0.23649 0.2405 0.56217 0.0
H1379 H 0.18878 0.26045 0.58229 0.0
H1380 H 0.10275 0.21224 0.56532 0.0
H1381 H 0.12973 0.17314 0.53575 0.0
C1382 C 0.19036 0.17418 0.52204 0.0
C1383 C 0.22222 0.17801 0.51687 0.0
C1384 C 0.17488 0.19465 0.54136 0.0
C1385 C 0.23853 0.20165 0.53229 0.0
C1386 C 0.22337 0.222 0.55131 0.0
C1387 C 0.17598 0.24112 0.57248 0.0
C1388 C 0.14387 0.23931 0.57567 0.0
C1389 C 0.19153 0.21911 0.55546 0.0
C1390 C 0.12755 0.21401 0.56323 0.0
C1391 C 0.14294 0.19185 0.54611 0.0
H1392 H 0.99112 0.97978 0.83919 0.0
H1393 H 0.04119 0.89711 0.85584 0.0
H1394 H -0.00695 0.86817 0.86309 0.0
H1395 H 0.93741 0.86473 0.85587 0.0
H1396 H 0.88705 0.94685 0.83695 0.0
H1397 H 0.93453 0.97763 0.83978 0.0
C1398 C 0.99145 0.95565 0.84533 0.0
C1399 C 0.01951 0.94042 0.84649 0.0
C1400 C 0.96365 0.93891 0.84839 0.0
C1401 C 0.01973 0.90917 0.85446 0.0
C1402 C 0.99225 0.89258 0.85841 0.0
C1403 C 0.93674 0.8894 0.85269 0.0
C1404 C 0.90889 0.90331 0.84537 0.0
C1405 C 0.96414 0.90691 0.8539 0.0
C1406 C 0.90829 0.93544 0.84213 0.0
C1407 C 0.93545 0.9531 0.84371 0.0
H1408 H 0.75148 0.29867 0.38816 0.0
H1409 H 0.66773 0.34947 0.39019 0.0
H1410 H 0.63744 0.30207 0.38243 0.0
H1411 H 0.63471 0.24557 0.38603 0.0
H1412 H 0.71894 0.19531 0.38973 0.0
H1413 H 0.74901 0.24285 0.3844 0.0
C1414 C 0.72668 0.2995 0.3857 0.0
C1415 C 0.71179 0.32735 0.39001 0.0
C1416 C 0.70942 0.27202 0.38331 0.0
C1417 C 0.67963 0.32814 0.38707 0.0
C1418 C 0.6623 0.30101 0.38301 0.0
C1419 C 0.65961 0.24506 0.38512 0.0
C1420 C 0.67458 0.21712 0.38907 0.0
C1421 C 0.67689 0.27266 0.38295 0.0
C1422 C 0.70688 0.21668 0.38757 0.0
C1423 C 0.72412 0.24383 0.38434 0.0
H1424 H 0.91454 0.38777 0.72251 0.0
H1425 H 0.9488 0.47625 0.69139 0.0
H1426 H 0.99173 0.45177 0.6658 0.0
H1427 H 0.02201 0.40601 0.65691 0.0
H1428 H 0.98766 0.3173 0.68698 0.0
H1429 H 0.94176 0.34107 0.70812 0.0
C1430 C 0.93125 0.40164 0.70985 0.0
C1431 C 0.92888 0.43379 0.7092 0.0
C1432 C 0.95577 0.38742 0.69522 0.0
C1433 C 0.95026 0.45148 0.69227 0.0
C1434 C 0.97485 0.43752 0.67778 0.0
C1435 C 0.0043 0.39188 0.66786 0.0
C1436 C 0.00827 0.36013 0.67094 0.0
C1437 C 0.97822 0.40565 0.67984 0.0
C1438 C 0.98501 0.34184 0.68451 0.0
C1439 C 0.95894 0.35544 0.69672 0.0
H1440 H 0.55195 0.4958 0.19449 0.0
H1441 H 0.59325 0.58649 0.20294 0.0
H1442 H 0.55071 0.60799 0.17396 0.0
H1443 H 0.4984 0.60195 0.15315 0.0
H1444 H 0.45626 0.51132 0.14702 0.0
H1445 H 0.50261 0.48898 0.16795 0.0
C1446 C 0.55201 0.52019 0.18943 0.0
C1447 C 0.5755 0.53957 0.20126 0.0
C1448 C 0.52705 0.53252 0.17358 0.0
C1449 C 0.57533 0.57108 0.19431 0.0
C1450 C 0.55089 0.58343 0.17789 0.0
C1451 C 0.49947 0.57726 0.1559 0.0
C1452 C 0.47355 0.55847 0.14903 0.0
C1453 C 0.52604 0.56452 0.16852 0.0
C1454 C 0.47561 0.52647 0.1525 0.0
C1455 C 0.50214 0.51361 0.1645 0.0
H1456 H 0.56961 0.75234 0.79894 0.0
H1457 H 0.52493 0.67127 0.83662 0.0
H1458 H 0.54949 0.63959 0.79771 0.0
H1459 H 0.57595 0.63666 0.74775 0.0
H1460 H 0.614 0.71927 0.7068 0.0
H1461 H 0.60005 0.74873 0.75227 0.0
C1462 C 0.56585 0.72763 0.79918 0.0
C1463 C 0.54525 0.71416 0.82036 0.0
C1464 C 0.57853 0.70997 0.77576 0.0
C1465 C 0.54055 0.68215 0.82034 0.0
C1466 C 0.55442 0.66409 0.798 0.0
C1467 C 0.58181 0.66096 0.74926 0.0
C1468 C 0.59579 0.67597 0.72416 0.0
C1469 C 0.57228 0.67797 0.77476 0.0
C1470 C 0.60303 0.70746 0.72594 0.0
C1471 C 0.59503 0.72425 0.75184 0.0
H1472 H 0.58799 0.30429 0.06082 0.0
H1473 H 0.55643 0.21068 0.04708 0.0
H1474 H 0.58487 0.20824 -0.00103 0.0
H1475 H 0.61114 0.23583 0.95684 0.0
H1476 H 0.64547 0.32825 0.9716 0.0
H1477 H 0.62421 0.32791 0.02356 0.0
C1478 C 0.58804 0.2832 0.0476 0.0
C1479 C 0.56981 0.25795 0.05702 0.0
C1480 C 0.60477 0.28179 0.02011 0.0
C1481 C 0.57029 0.23048 0.04012 0.0
C1482 C 0.58638 0.22909 0.01252 0.0
C1483 C 0.61479 0.25542 0.97192 0.0
C1484 C 0.62942 0.28207 0.96061 0.0
C1485 C 0.60262 0.25502 0.0017 0.0
C1486 C 0.63432 0.30741 0.9801 0.0
C1487 C 0.62189 0.30737 0.00964 0.0
H1488 H 0.97951 0.28646 0.24435 0.0
H1489 H 0.90456 0.28106 0.30885 0.0
H1490 H 0.86805 0.29334 0.26794 0.0
H1491 H 0.8593 0.31334 0.21584 0.0
H1492 H 0.93442 0.31662 0.15107 0.0
H1493 H 0.96883 0.29625 0.18977 0.0
C1494 C 0.95508 0.28747 0.24917 0.0
C1495 C 0.94457 0.28364 0.27935 0.0
C1496 C 0.93435 0.29406 0.22557 0.0
C1497 C 0.91296 0.28425 0.28561 0.0
C1498 C 0.89218 0.29132 0.26232 0.0
C1499 C 0.883 0.30884 0.21 0.0
C1500 C 0.89445 0.31722 0.18093 0.0
C1501 C 0.90282 0.29739 0.23246 0.0
C1502 C 0.92503 0.31064 0.17339 0.0
C1503 C 0.94488 0.29927 0.1956 0.0
H1504 H 0.0244 0.75126 0.56253 0.0
H1505 H 0.94277 0.80422 0.57548 0.0
H1506 H 0.91495 0.77171 0.53863 0.0
H1507 H 0.91469 0.73022 0.50057 0.0
H1508 H -0.00286 0.67924 0.48551 0.0
H1509 H 0.02374 0.70894 0.52557 0.0
C1510 C 0.00047 0.7556 0.55746 0.0
C1511 C 0.98574 0.78018 0.5717 0.0
C1512 C 0.98475 0.73718 0.53589 0.0
C1513 C 0.95475 0.78557 0.56472 0.0
C1514 C 0.93878 0.76696 0.54368 0.0
C1515 C 0.93827 0.72518 0.50653 0.0
C1516 C 0.95388 0.7024 0.49038 0.0
C1517 C 0.95365 0.74292 0.5289 0.0
C1518 C 0.98466 0.69661 0.49776 0.0
C1519 C -0.00011 0.71364 0.52055 0.0
H1520 H 0.50838 0.27158 0.68494 0.0
H1521 H 0.45597 0.35117 0.70792 0.0
H1522 H 0.49234 0.36402 0.74922 0.0
H1523 H 0.53703 0.35072 0.78048 0.0
H1524 H 0.58817 0.2699 0.75856 0.0
H1525 H 0.55418 0.25949 0.7148 0.0
C1526 C 0.50501 0.2919 0.6988 0.0
C1527 C 0.47939 0.3103 0.69358 0.0
C1528 C 0.5257 0.29883 0.72264 0.0
C1529 C 0.4753 0.33645 0.71181 0.0
C1530 C 0.49614 0.34385 0.7353 0.0
C1531 C 0.54114 0.33113 0.76581 0.0
C1532 C 0.56523 0.31118 0.77263 0.0
C1533 C 0.52115 0.32493 0.74117 0.0
C1534 C 0.56982 0.28558 0.75376 0.0
C1535 C 0.55037 0.27959 0.7288 0.0
H1536 H 0.92551 0.3187 0.95322 0.0
H1537 H 0.00446 0.36725 0.99107 0.0
H1538 H 0.97053 0.40391 0.01586 0.0
H1539 H 0.91845 0.41747 0.03198 0.0
H1540 H 0.83983 0.36789 -0.00571 0.0
H1541 H 0.87375 0.33713 0.96306 0.0
C1542 C 0.93531 0.33743 0.96676 0.0
C1543 C 0.96734 0.33991 0.97107 0.0
C1544 C 0.91576 0.35837 0.98063 0.0
C1545 C 0.97982 0.36472 0.98786 0.0
C1546 C 0.96045 0.38565 0.00194 0.0
C1547 C 0.90865 0.4005 0.01632 0.0
C1548 C 0.87664 0.3945 0.01615 0.0
C1549 C 0.92835 0.38214 -0.00083 0.0
C1550 C 0.86433 0.37286 -0.00479 0.0
C1551 C 0.88376 0.35496 0.97757 0.0
H1552 H 0.8857 0.71124 0.20094 0.0
H1553 H 0.94603 0.64128 0.16824 0.0
H1554 H 0.95088 0.62124 0.2207 0.0
H1555 H 0.94321 0.62834 0.27685 0.0
H1556 H 0.88869 0.70352 0.3082 0.0
H1557 H 0.87657 0.71708 0.2553 0.0
C1558 C 0.89934 0.69111 0.20502 0.0
C1559 C 0.9155 0.67778 0.18073 0.0
C1560 C 0.90369 0.68121 0.23522 0.0
C1561 C 0.93333 0.65192 0.1866 0.0
C1562 C 0.93635 0.64069 0.21661 0.0
C1563 C 0.92861 0.64757 0.27189 0.0
C1564 C 0.9172 0.66527 0.29613 0.0
C1565 C 0.92261 0.65595 0.24127 0.0
C1566 C 0.89821 0.69005 0.28974 0.0
C1567 C 0.89108 0.69765 0.25957 0.0
H1568 H 0.50121 0.68159 0.43994 0.0
H1569 H 0.58083 0.73905 0.42 0.0
H1570 H 0.60854 0.71588 0.46303 0.0
H1571 H 0.60824 0.68262 0.50891 0.0
H1572 H 0.52608 0.63042 0.53225 0.0
H1573 H 0.50111 0.64801 0.48509 0.0
C1574 C 0.52482 0.68869 0.44468 0.0
C1575 C 0.5391 0.71183 0.42673 0.0
C1576 C 0.53995 0.67633 0.47018 0.0
C1577 C 0.56945 0.72124 0.43349 0.0
C1578 C 0.58521 0.70805 0.45809 0.0
C1579 C 0.58505 0.6747 0.50331 0.0
C1580 C 0.56901 0.65504 0.52374 0.0
C1581 C 0.57045 0.68605 0.47696 0.0
C1582 C 0.53879 0.64547 0.51675 0.0
C1583 C 0.52456 0.65557 0.48987 0.0
H1584 H 0.81299 0.60572 0.7152 0.0
H1585 H 0.83295 0.55095 0.63545 0.0
H1586 H 0.78809 0.5712 0.60902 0.0
H1587 H 0.73749 0.59435 0.61377 0.0
H1588 H 0.71424 0.6424 0.69694 0.0
H1589 H 0.76599 0.63482 0.71704 0.0
C1590 C 0.80816 0.59899 0.69164 0.0
C1591 C 0.82579 0.57641 0.67747 0.0
C1592 C 0.78112 0.60879 0.67766 0.0
C1593 C 0.81942 0.56806 0.6469 0.0
C1594 C 0.79358 0.57936 0.63197 0.0
C1595 C 0.74398 0.60373 0.63601 0.0
C1596 C 0.72199 0.61829 0.65421 0.0
C1597 C 0.77324 0.59808 0.64794 0.0
C1598 C 0.73066 0.63049 0.68288 0.0
C1599 C 0.76024 0.62627 0.6943 0.0
H1600 H 0.66617 0.5173 0.97089 0.0
H1601 H 0.7597 0.48646 0.97246 0.0
H1602 H 0.74227 0.43523 0.95637 0.0
H1603 H 0.70185 0.40213 0.9346 0.0
H1604 H 0.60911 0.43462 0.92762 0.0
H1605 H 0.62471 0.48222 0.95366 0.0
C1606 C 0.68261 0.49915 0.96833 0.0
C1607 C 0.71414 0.50558 0.97245 0.0
C1608 C 0.67259 0.47021 0.95786 0.0
C1609 C 0.73531 0.48202 0.96898 0.0
C1610 C 0.72538 0.45279 0.9598 0.0
C1611 C 0.68485 0.4193 0.93939 0.0
C1612 C 0.65446 0.41508 0.92891 0.0
C1613 C 0.69425 0.44702 0.95304 0.0
C1614 C 0.63274 0.43757 0.93518 0.0
C1615 C 0.64166 0.46477 0.94998 0.0
H1616 H 0.65601 0.42701 0.21426 0.0
H1617 H 0.70595 0.39331 0.29271 0.0
H1618 H 0.73799 0.36301 0.25884 0.0
H1619 H 0.7579 0.35452 0.207 0.0
H1620 H 0.70948 0.39055 0.12858 0.0
H1621 H 0.67014 0.41047 0.16243 0.0
C1622 C 0.67356 0.41262 0.22401 0.0
C1623 C 0.67921 0.41314 0.25586 0.0
C1624 C 0.69227 0.39573 0.20438 0.0
C1625 C 0.70145 0.39374 0.26821 0.0
C1626 C 0.71985 0.37644 0.24884 0.0
C1627 C 0.73833 0.366 0.19716 0.0
C1628 C 0.73727 0.37192 0.16534 0.0
C1629 C 0.71641 0.37848 0.21684 0.0
C1630 C 0.71129 0.38616 0.15302 0.0
C1631 C 0.68887 0.39784 0.17241 0.0
H1632 H 0.82656 0.46389 0.47108 0.0
H1633 H 0.745 0.51019 0.44136 0.0
H1634 H 0.77234 0.55973 0.44558 0.0
H1635 H 0.82082 0.58882 0.45193 0.0
H1636 H 0.90371 0.54173 0.47465 0.0
H1637 H 0.87415 0.49346 0.48074 0.0
C1638 C 0.81469 0.48482 0.46564 0.0
C1639 C 0.78394 0.4834 0.45552 0.0
C1640 C 0.83065 0.51302 0.46766 0.0
C1641 C 0.76881 0.51069 0.44873 0.0
C1642 C 0.78434 0.53899 0.45139 0.0
C1643 C 0.83205 0.56817 0.45955 0.0
C1644 C 0.86407 0.56864 0.46367 0.0
C1645 C 0.81538 0.54033 0.4603 0.0
C1646 C 0.8789 0.5418 0.47229 0.0
C1647 C 0.8621 0.51421 0.47509 0.0
H1648 H 0.78465 0.42888 0.75226 0.0
H1649 H 0.75245 0.51236 0.79316 0.0
H1650 H 0.7055 0.48515 0.81023 0.0
H1651 H 0.67713 0.43604 0.81891 0.0
H1652 H 0.71277 0.35239 0.78193 0.0
H1653 H 0.75473 0.38137 0.75715 0.0
C1654 C 0.76729 0.44127 0.76471 0.0
C1655 C 0.77221 0.47242 0.77197 0.0
C1656 C 0.74096 0.42541 0.77492 0.0
C1657 C 0.7493 0.48825 0.78767 0.0
C1658 C 0.7225 0.47271 0.79738 0.0
C1659 C 0.69363 0.42446 0.80459 0.0
C1660 C 0.692 0.39236 0.80179 0.0
C1661 C 0.71851 0.4411 0.79184 0.0
C1662 C 0.7137 0.37718 0.78399 0.0
C1663 C 0.73772 0.39368 0.77011 0.0
H1664 H 0.75246 0.57337 0.08458 0.0
H1665 H 0.84644 0.58211 0.05338 0.0
H1666 H 0.86068 0.53949 0.08635 0.0
H1667 H 0.84281 0.4911 0.10993 0.0
H1668 H 0.74772 0.47874 0.13533 0.0
H1669 H 0.73729 0.53133 0.11892 0.0
C1670 C 0.7763 0.56671 0.08578 0.0
C1671 C 0.79806 0.5798 0.06542 0.0
C1672 C 0.78383 0.54087 0.10313 0.0
C1673 C 0.82904 0.57171 0.0681 0.0
C1674 C 0.83714 0.54712 0.08673 0.0
C1675 C 0.82014 0.50055 0.11294 0.0
C1676 C 0.79589 0.48151 0.12327 0.0
C1677 C 0.8142 0.53005 0.10215 0.0
C1678 C 0.76655 0.49336 0.12728 0.0
C1679 C 0.76063 0.52325 0.1177 0.0
H1680 H 0.70475 0.56474 0.37014 0.0
H1681 H 0.73392 0.55256 0.27643 0.0
H1682 H 0.7815 0.58202 0.28702 0.0
H1683 H 0.81661 0.60727 0.32445 0.0
H1684 H 0.78536 0.62133 0.41746 0.0
H1685 H 0.73665 0.59555 0.40546 0.0
C1686 C 0.72142 0.56884 0.35199 0.0
C1687 C 0.71619 0.55626 0.32273 0.0
C1688 C 0.74834 0.58609 0.35812 0.0
C1689 C 0.7376 0.56207 0.29918 0.0
C1690 C 0.7648 0.57878 0.30526 0.0
C1691 C 0.79895 0.6051 0.34193 0.0
C1692 C 0.80488 0.61588 0.3719 0.0
C1693 C 0.77071 0.59035 0.33485 0.0
C1694 C 0.78157 0.61323 0.3942 0.0
C1695 C 0.75368 0.59831 0.38744 0.0
H1696 H 0.68332 0.4307 0.56548 0.0
H1697 H 0.63527 0.4512 0.48132 0.0
H1698 H 0.61225 0.49554 0.50552 0.0
H1699 H 0.61446 0.53391 0.54701 0.0
H1700 H 0.6632 0.51346 0.63082 0.0
H1701 H 0.67718 0.46372 0.61034 0.0
C1702 C 0.66711 0.44434 0.55271 0.0
C1703 C 0.66175 0.4383 0.52146 0.0
C1704 C 0.65469 0.47029 0.56645 0.0
C1705 C 0.64015 0.45569 0.50535 0.0
C1706 C 0.62722 0.48126 0.51906 0.0
C1707 C 0.62777 0.51834 0.56089 0.0
C1708 C 0.63852 0.52763 0.58995 0.0
C1709 C 0.63581 0.48976 0.54898 0.0
C1710 C 0.655 0.50698 0.60814 0.0
C1711 C 0.66305 0.47853 0.59647 0.0
H1712 H 0.70383 0.82817 0.59093 0.0
H1713 H 0.77788 0.77997 0.63442 0.0
H1714 H 0.74416 0.73489 0.64123 0.0
H1715 H 0.69601 0.70737 0.62899 0.0
H1716 H 0.62166 0.75493 0.58571 0.0
H1717 H 0.65321 0.80244 0.58472 0.0
C1718 C 0.71247 0.80794 0.6023 0.0
C1719 C 0.74347 0.80715 0.61162 0.0
C1720 C 0.69308 0.78203 0.60579 0.0
C1721 C 0.75418 0.78107 0.62686 0.0
C1722 C 0.73498 0.75524 0.63058 0.0
C1723 C 0.68667 0.72826 0.61954 0.0
C1724 C 0.65696 0.72776 0.60679 0.0
C1725 C 0.70481 0.75516 0.61914 0.0
C1726 C 0.64463 0.75493 0.59538 0.0
C1727 C 0.66267 0.78194 0.59476 0.0
H1728 H 0.09495 0.67985 0.4602 0.0
H1729 H 0.15027 0.64563 0.38609 0.0
H1730 H 0.13478 0.688 0.35344 0.0
H1731 H 0.11855 0.7416 0.35218 0.0
H1732 H 0.0668 0.77777 0.42757 0.0
H1733 H 0.06737 0.72783 0.45347 0.0
C1734 C 0.10269 0.68103 0.43654 0.0
C1735 C 0.12479 0.66054 0.42597 0.0
C1736 C 0.09485 0.70628 0.4184 0.0
C1737 C 0.13398 0.66176 0.39504 0.0
C1738 C 0.12531 0.68612 0.37641 0.0
C1739 C 0.10633 0.73798 0.37365 0.0
C1740 C 0.09296 0.76292 0.38832 0.0
C1741 C 0.1078 0.70968 0.38874 0.0
C1742 C 0.07719 0.75856 0.41609 0.0
C1743 C 0.07777 0.73015 0.43094 0.0
H1744 H 0.54025 0.97775 0.63539 0.0
H1745 H 0.49746 0.03553 0.70262 0.0
H1746 H 0.44691 0.01416 0.6886 0.0
H1747 H 0.4158 0.97527 0.66133 0.0
H1748 H 0.45913 0.91527 0.59627 0.0
H1749 H 0.50853 0.94135 0.60541 0.0
C1750 C 0.51978 0.98612 0.6465 0.0
C1751 C 0.52254 0.00806 0.67005 0.0
C1752 C 0.49096 0.97296 0.63911 0.0
C1753 C 0.49589 0.01855 0.68446 0.0
C1754 C 0.46702 0.00623 0.67658 0.0
C1755 C 0.43596 0.96799 0.64893 0.0
C1756 C 0.43374 0.94302 0.62845 0.0
C1757 C 0.46441 0.98275 0.65462 0.0
C1758 C 0.46015 0.93415 0.61246 0.0
C1759 C 0.48845 0.94909 0.6176 0.0
H1760 H 0.36814 0.3016 0.90644 0.0
H1761 H 0.27362 0.28311 0.88062 0.0
H1762 H 0.28992 0.24562 0.84294 0.0
H1763 H 0.32901 0.20817 0.83023 0.0
H1764 H 0.42309 0.22482 0.85791 0.0
H1765 H 0.40939 0.27384 0.88053 0.0
C1766 C 0.35123 0.29002 0.89188 0.0
C1767 C 0.31972 0.29396 0.8972 0.0
C1768 C 0.36072 0.26803 0.87065 0.0
C1769 C 0.29802 0.2798 0.8775 0.0
C1770 C 0.3073 0.25828 0.85597 0.0
C1771 C 0.3467 0.22334 0.83985 0.0
C1772 C 0.37662 0.21264 0.84359 0.0
C1773 C 0.33833 0.25063 0.85414 0.0
C1774 C 0.39972 0.23251 0.85528 0.0
C1775 C 0.39178 0.2603 0.86872 0.0
H1776 H 0.43316 0.52194 0.69469 0.0
H1777 H 0.48553 0.44652 0.66007 0.0
H1778 H 0.52487 0.4825 0.64092 0.0
H1779 H 0.54622 0.53481 0.6376 0.0
H1780 H 0.49405 0.61079 0.6708 0.0
H1781 H 0.45232 0.57518 0.68643 0.0
C1782 C 0.45314 0.51343 0.68284 0.0
C1783 C 0.45669 0.48159 0.67922 0.0
C1784 C 0.47554 0.5343 0.67158 0.0
C1785 C 0.48236 0.47089 0.6633 0.0
C1786 C 0.50487 0.49143 0.65237 0.0
C1787 C 0.52551 0.54359 0.64792 0.0
C1788 C 0.52321 0.57523 0.6534 0.0
C1789 C 0.50194 0.52308 0.65688 0.0
C1790 C 0.49619 0.58648 0.66632 0.0
C1791 C 0.47253 0.56611 0.67547 0.0
H1792 H 0.80468 0.19357 0.01854 0.0
H1793 H 0.88631 0.21496 0.96581 0.0
H1794 H 0.88941 0.26625 0.98917 0.0
H1795 H 0.86897 0.30436 0.02521 0.0
H1796 H 0.78537 0.28322 0.07511 0.0
H1797 H 0.78283 0.23221 0.05193 0.0
C1798 C 0.8233 0.20936 0.01228 0.0
C1799 C 0.84553 0.20044 0.99089 0.0
C1800 C 0.82444 0.23875 0.02517 0.0
C1801 C 0.86909 0.22134 0.98242 0.0
C1802 C 0.87082 0.25058 -0.00426 0.0
C1803 C 0.8502 0.28856 0.03099 0.0
C1804 C 0.82751 0.29737 0.05205 0.0
C1805 C 0.84865 0.25944 0.01723 0.0
C1806 C 0.80306 0.27693 0.05896 0.0
C1807 C 0.80167 0.24776 0.04582 0.0
H1808 H 0.55824 0.98349 0.79935 0.0
H1809 H 0.60615 0.06926 0.81823 0.0
H1810 H 0.56474 0.08429 0.85249 0.0
H1811 H 0.50993 0.0795 0.8635 0.0
H1812 H 0.45892 -0.0024 0.83638 0.0
H1813 H 0.50647 0.97432 0.81951 0.0
C1814 C 0.56022 0.00493 0.81195 0.0
C1815 C 0.5847 0.02568 0.80569 0.0
C1816 C 0.53518 0.01447 0.8294 0.0
C1817 C 0.5872 0.0532 0.82235 0.0
C1818 C 0.56335 0.06191 0.84164 0.0
C1819 C 0.50921 0.05622 0.85467 0.0
C1820 C 0.48074 0.04076 0.85007 0.0
C1821 C 0.53626 0.04381 0.84323 0.0
C1822 C 0.48042 0.01033 0.83937 0.0
C1823 C 0.50762 -0.00296 0.82962 0.0
H1824 H 0.96412 0.97091 0.28924 0.0
H1825 H 0.96544 0.90809 0.21248 0.0
H1826 H 0.0194 0.89762 0.223 0.0
H1827 H 0.0641 0.90246 0.25704 0.0
H1828 H 0.06122 0.96224 0.33592 0.0
H1829 H 0.01005 0.97885 0.32071 0.0
C1830 C 0.97611 0.95483 0.27481 0.0
C1831 C 0.96063 0.93986 0.25048 0.0
C1832 C 0.00693 0.94889 0.28101 0.0
C1833 C 0.97673 0.91961 0.23162 0.0
C1834 C 0.0076 0.91375 0.2375 0.0
C1835 C 0.05271 0.91995 0.27027 0.0
C1836 C 0.06628 0.93136 0.29742 0.0
C1837 C 0.02274 0.92792 0.26241 0.0
C1838 C 0.05113 0.95346 0.31479 0.0
C1839 C 0.0218 0.96256 0.30635 0.0
H1840 H 0.46588 0.31989 0.17875 0.0
H1841 H 0.42578 0.23709 0.21784 0.0
H1842 H 0.39552 0.26751 0.2531 0.0
H1843 H 0.38306 0.31706 0.27507 0.0
H1844 H 0.42193 0.40048 0.23653 0.0
H1845 H 0.44959 0.37042 0.19817 0.0
C1846 C 0.45046 0.30858 0.19497 0.0
C1847 C 0.44837 0.27628 0.196 0.0
C1848 C 0.43283 0.32627 0.21505 0.0
C1849 C 0.42793 0.26189 0.21672 0.0
C1850 C 0.4106 0.27925 0.23687 0.0
C1851 C 0.39734 0.3287 0.25804 0.0
C1852 C 0.40079 0.36084 0.25874 0.0
C1853 C 0.41322 0.31136 0.23651 0.0
C1854 C 0.4189 0.37573 0.23632 0.0
C1855 C 0.4349 0.35853 0.21463 0.0
H1856 H 0.47067 0.7156 0.94711 0.0
H1857 H 0.39206 0.77096 0.96737 0.0
H1858 H 0.37815 0.73706 0.00978 0.0
H1859 H 0.38569 0.68984 0.03824 0.0
H1860 H 0.46419 0.63427 0.02009 0.0
H1861 H 0.48099 0.67029 0.97942 0.0
C1862 C 0.45063 0.72037 0.96094 0.0
C1863 C 0.43214 0.7455 0.95371 0.0
C1864 C 0.44262 0.70066 0.9853 0.0
C1865 C 0.40652 0.75163 0.97216 0.0
C1866 C 0.39847 0.73224 -0.00361 0.0
C1867 C 0.40652 0.68567 0.02533 0.0
C1868 C 0.42342 0.65932 0.0313 0.0
C1869 C 0.41591 0.70637 0.00259 0.0
C1870 C 0.45078 0.65436 0.01534 0.0
C1871 C 0.46025 0.67487 0.99222 0.0
H1872 H 0.10078 0.7109 0.66817 0.0
H1873 H 0.14295 0.78607 0.71883 0.0
H1874 H 0.15811 0.75071 0.75928 0.0
H1875 H 0.15187 0.70035 0.78394 0.0
H1876 H 0.10935 0.62498 0.73421 0.0
H1877 H 0.10209 0.65844 0.68952 0.0
C1878 C 0.11393 0.71946 0.6877 0.0
C1879 C 0.12017 0.75123 0.69074 0.0
C1880 C 0.12206 0.69904 0.71125 0.0
C1881 C 0.13754 0.76183 0.71603 0.0
C1882 C 0.14607 0.74164 0.7393 0.0
C1883 C 0.14148 0.69113 0.76309 0.0
C1884 C 0.13061 0.66046 0.76247 0.0
C1885 C 0.13722 0.7105 0.73776 0.0
C1886 C 0.11777 0.64857 0.73522 0.0
C1887 C 0.11346 0.66775 0.70978 0.0
H1888 H 0.96009 0.32011 0.45949 0.0
H1889 H 0.02756 0.37876 0.41467 0.0
H1890 H 0.05626 0.38387 0.46287 0.0
H1891 H 0.06774 0.36231 0.51349 0.0
H1892 H 0.00315 0.29824 0.55567 0.0
H1893 H 0.96806 0.30404 0.51245 0.0
C1894 C 0.98033 0.33514 0.46057 0.0
C1895 C 0.99189 0.34887 0.43356 0.0
C1896 C -0.00203 0.33578 0.48752 0.0
C1897 C 0.01827 0.36803 0.43523 0.0
C1898 C 0.03496 0.37044 0.46262 0.0
C1899 C 0.04588 0.34978 0.51342 0.0
C1900 C 0.0385 0.32926 0.53747 0.0
C1901 C 0.02605 0.35276 0.48822 0.0
C1902 C 0.00973 0.31378 0.53725 0.0
C1903 C 0.98954 0.3172 0.5126 0.0
H1904 H 0.37018 0.715 0.29047 0.0
H1905 H 0.44744 0.6654 0.32574 0.0
H1906 H 0.43648 0.62359 0.28994 0.0
H1907 H 0.41219 0.60697 0.24138 0.0
H1908 H 0.33792 0.65882 0.20385 0.0
H1909 H 0.33976 0.69333 0.24808 0.0
C1910 C 0.38418 0.69474 0.29085 0.0
C1911 C 0.41016 0.6938 0.31 0.0
C1912 C 0.37832 0.67115 0.26959 0.0
C1913 C 0.42773 0.66709 0.31062 0.0
C1914 C 0.42151 0.64311 0.29015 0.0
C1915 C 0.39562 0.62504 0.24374 0.0
C1916 C 0.375 0.6306 0.21974 0.0
C1917 C 0.39792 0.64568 0.26842 0.0
C1918 C 0.35387 0.65428 0.22238 0.0
C1919 C 0.35516 0.67416 0.24745 0.0
H1920 H 0.00797 0.63979 0.02789 0.0
H1921 H 0.0773 0.69981 0.06826 0.0
H1922 H 0.11538 0.68142 0.03191 0.0
H1923 H 0.12655 0.65466 0.98332 0.0
H1924 H 0.05562 0.59819 0.94096 0.0
H1925 H 0.02087 0.60826 0.98355 0.0
C1926 C 0.03156 0.64836 0.02919 0.0
C1927 C 0.03964 0.67148 0.05038 0.0
C1928 C 0.05307 0.63845 0.00759 0.0
C1929 C 0.07038 0.68224 0.05187 0.0
C1930 C 0.09218 0.6718 0.03103 0.0
C1931 C 0.1038 0.6439 0.98401 0.0
C1932 C 0.09347 0.62591 0.95913 0.0
C1933 C 0.08347 0.65085 0.00798 0.0
C1934 C 0.06387 0.61231 0.9599 0.0
C1935 C 0.04397 0.61815 0.98415 0.0
H1936 H 0.05606 0.25345 0.82423 0.0
H1937 H 0.12245 0.32508 0.84689 0.0
H1938 H 0.14477 0.32149 0.79553 0.0
H1939 H 0.13755 0.30665 0.74208 0.0
H1940 H 0.0653 0.24178 0.71707 0.0
H1941 H 0.05402 0.23277 0.7715 0.0
C1942 C 0.07607 0.26752 0.81818 0.0
C1943 C 0.08755 0.28969 0.83908 0.0
C1944 C 0.08749 0.26662 0.78804 0.0
C1945 C 0.1132 0.30806 0.83101 0.0
C1946 C 0.12585 0.30604 0.80167 0.0
C1947 C 0.11988 0.28985 0.74856 0.0
C1948 C 0.10171 0.27553 0.72563 0.0
C1949 C 0.11203 0.28669 0.77958 0.0
C1950 C 0.07947 0.25328 0.73426 0.0
C1951 C 0.07272 0.24851 0.7654 0.0
H1952 H 0.35422 0.32426 0.55136 0.0
H1953 H 0.44783 0.3591 0.54523 0.0
H1954 H 0.4349 0.38827 0.49948 0.0
H1955 H 0.39956 0.39671 0.45674 0.0
H1956 H 0.30609 0.3618 0.46185 0.0
H1957 H 0.31618 0.34049 0.51284 0.0
C1958 C 0.37162 0.33869 0.54033 0.0
C1959 C 0.40211 0.33884 0.55117 0.0
C1960 C 0.36412 0.35523 0.51374 0.0
C1961 C 0.42429 0.35812 0.53704 0.0
C1962 C 0.41696 0.37481 0.51082 0.0
C1963 C 0.38123 0.38503 0.46935 0.0
C1964 C 0.35238 0.38023 0.45544 0.0
C1965 C 0.38734 0.37243 0.49825 0.0
C1966 C 0.32857 0.36562 0.47212 0.0
C1967 C 0.33441 0.3532 0.50113 0.0
H1968 H 0.18061 0.44333 0.20548 0.0
H1969 H 0.13171 0.38871 0.27281 0.0
H1970 H 0.18042 0.37185 0.29447 0.0
H1971 H 0.23496 0.38347 0.30208 0.0
H1972 H 0.28334 0.44456 0.23963 0.0
H1973 H 0.23696 0.44811 0.20799 0.0
C1974 C 0.1808 0.42648 0.22387 0.0
C1975 C 0.15293 0.417 0.23757 0.0
C1976 C 0.20878 0.41917 0.23778 0.0
C1977 C 0.15305 0.39587 0.26183 0.0
C1978 C 0.18086 0.38674 0.2745 0.0
C1979 C 0.23554 0.39726 0.28131 0.0
C1980 C 0.26219 0.4146 0.27375 0.0
C1981 C 0.20863 0.40004 0.26401 0.0
C1982 C 0.26291 0.43149 0.24625 0.0
C1983 C 0.2364 0.43352 0.22819 0.0
H1984 H 0.32267 0.43923 0.97517 0.0
H1985 H 0.31692 0.38382 0.05738 0.0
H1986 H 0.34185 0.4248 0.08696 0.0
H1987 H 0.35894 0.47831 0.09085 0.0
H1988 H 0.36289 0.53486 0.00928 0.0
H1989 H 0.34577 0.49124 0.97807 0.0
C1990 C 0.32729 0.43601 -0.00054 0.0
C1991 C 0.31747 0.40881 0.01417 0.0
C1992 C 0.34123 0.45988 0.01652 0.0
C1993 C 0.32385 0.40477 0.04559 0.0
C1994 C 0.33814 0.42817 0.06256 0.0
C1995 C 0.35665 0.48104 0.06617 0.0
C1996 C 0.36157 0.51001 0.0526 0.0
C1997 C 0.34599 0.45615 0.04846 0.0
C1998 C 0.35884 0.51293 0.02048 0.0
C1999 C 0.3489 0.48802 0.00257 0.0
H2000 H 0.31913 0.54019 0.75619 0.0
H2001 H 0.34412 0.50003 0.84315 0.0
H2002 H 0.30669 0.53158 0.86944 0.0
H2003 H 0.26105 0.56381 0.86628 0.0
H2004 H 0.23414 0.60091 0.77855 0.0
H2005 H 0.27841 0.57784 0.75415 0.0
C2006 C 0.31684 0.53876 0.78098 0.0
C2007 C 0.33395 0.51737 0.7976 0.0
C2008 C 0.29469 0.55629 0.7958 0.0
C2009 C 0.33095 0.51606 0.82975 0.0
C2010 C 0.30947 0.53403 0.8448 0.0
C2011 C 0.26543 0.5676 0.84202 0.0
C2012 C 0.24419 0.58372 0.82417 0.0
C2013 C 0.29032 0.55327 0.82788 0.0
C2014 C 0.25002 0.5883 0.7927 0.0
C2015 C 0.27525 0.57501 0.7787 0.0
H2016 H 0.15767 0.5457 0.60256 0.0
H2017 H 0.14245 0.52815 0.50606 0.0
H2018 H 0.12139 0.47706 0.51801 0.0
H2019 H 0.11354 0.43528 0.55542 0.0
H2020 H 0.12817 0.4535 0.652 0.0
H2021 H 0.1427 0.50653 0.64045 0.0
C2022 C 0.14932 0.53084 0.5842 0.0
C2023 C 0.1521 0.54039 0.5535 0.0
C2024 C 0.13732 0.50154 0.5912 0.0
C2025 C 0.14068 0.52121 0.52992 0.0
C2026 C 0.12879 0.49193 0.53671 0.0
C2027 C 0.11948 0.45097 0.57396 0.0
C2028 C 0.12036 0.44025 0.60443 0.0
C2029 C 0.12796 0.48151 0.5672 0.0
C2030 C 0.12751 0.46103 0.62828 0.0
C2031 C 0.13599 0.49138 0.62172 0.0
H2032 H 0.16212 0.54011 0.13916 0.0
H2033 H 0.18438 0.55541 0.23486 0.0
H2034 H 0.2366 0.57117 0.22096 0.0
H2035 H 0.2772 0.57592 0.18224 0.0
H2036 H 0.2551 0.56084 0.08657 0.0
H2037 H 0.20151 0.54962 0.09995 0.0
C2038 C 0.17822 0.54735 0.15696 0.0
C2039 C 0.16945 0.54613 0.18801 0.0
C2040 C 0.20837 0.55598 0.14889 0.0
C2041 C 0.19055 0.55588 0.21076 0.0
C2042 C 0.22051 0.56475 0.20288 0.0
C2043 C 0.26063 0.57019 0.16433 0.0
C2044 C 0.27013 0.56869 0.13357 0.0
C2045 C 0.22989 0.56398 0.17213 0.0
C2046 C 0.24834 0.56194 0.11049 0.0
C2047 C 0.21771 0.55553 0.1181 0.0
H2048 H 0.17891 0.42436 0.97005 0.0
H2049 H 0.19392 0.38303 0.88145 0.0
H2050 H 0.17511 0.42886 0.85592 0.0
H2051 H 0.16286 0.4837 0.85889 0.0
H2052 H 0.15052 0.52537 0.94792 0.0
H2053 H 0.15964 0.47651 0.97296 0.0
C2054 C 0.17727 0.42502 0.94518 0.0
C2055 C 0.18827 0.40054 0.9277 0.0
C2056 C 0.16751 0.45186 0.93063 0.0
C2057 C 0.1859 0.40173 0.89547 0.0
C2058 C 0.17534 0.42804 0.88082 0.0
C2059 C 0.1616 0.48196 0.88373 0.0
C2060 C 0.15672 0.50839 0.90145 0.0
C2061 C 0.16746 0.45379 0.89816 0.0
C2062 C 0.15489 0.5056 0.93365 0.0
C2063 C 0.16004 0.4776 0.94807 0.0
H2064 H 0.31282 0.39601 0.66562 0.0
H2065 H 0.28574 0.3745 0.75878 0.0
H2066 H 0.23835 0.34999 0.74007 0.0
H2067 H 0.20215 0.34051 0.69821 0.0
H2068 H 0.22759 0.36385 0.60508 0.0
H2069 H 0.27861 0.38094 0.62277 0.0
C2070 C 0.29668 0.38568 0.68178 0.0
C2071 C 0.30244 0.3876 0.71356 0.0
C2072 C 0.26928 0.37194 0.6709 0.0
C2073 C 0.28161 0.3737 0.73423 0.0
C2074 C 0.25453 0.35965 0.72357 0.0
C2075 C 0.21899 0.34895 0.68168 0.0
C2076 C 0.21092 0.35156 0.6505 0.0
C2077 C 0.24775 0.35953 0.69208 0.0
C2078 C 0.23319 0.36181 0.62925 0.0
C2079 C 0.26225 0.37184 0.63939 0.0
H2080 H 0.26005 0.58891 0.42051 0.0
H2081 H 0.2969 0.54958 0.50347 0.0
H2082 H 0.32421 0.51189 0.47308 0.0
H2083 H 0.33076 0.48543 0.42385 0.0
H2084 H 0.2946 0.52447 0.34068 0.0
H2085 H 0.27413 0.56744 0.37016 0.0
C2086 C 0.27451 0.57241 0.43187 0.0
C2087 C 0.27595 0.57155 0.4642 0.0
C2088 C 0.29001 0.55073 0.41426 0.0
C2089 C 0.29524 0.55054 0.47865 0.0
C2090 C 0.31073 0.52889 0.4613 0.0
C2091 C 0.31902 0.50381 0.41218 0.0
C2092 C 0.31374 0.50188 0.38038 0.0
C2093 C 0.30726 0.52806 0.42925 0.0
C2094 C 0.29886 0.52572 0.3652 0.0
C2095 C 0.28698 0.55005 0.38208 0.0
H2096 H 0.25032 0.20633 0.37937 0.0
H2097 H 0.34359 0.17563 0.37257 0.0
H2098 H 0.36003 0.22537 0.35168 0.0
H2099 H 0.34982 0.2798 0.34605 0.0
H2100 H 0.2574 0.31198 0.35766 0.0
H2101 H 0.23859 0.25938 0.36544 0.0
C2102 C 0.27401 0.21027 0.37234 0.0
C2103 C 0.29589 0.18779 0.37791 0.0
C2104 C 0.28356 0.23938 0.36189 0.0
C2105 C 0.32652 0.19295 0.36879 0.0
C2106 C 0.33593 0.22139 0.35705 0.0
C2107 C 0.32547 0.27533 0.34982 0.0
C2108 C 0.30525 0.29984 0.35233 0.0
C2109 C 0.31498 0.24524 0.35527 0.0
C2110 C 0.27362 0.29356 0.35629 0.0
C2111 C 0.26282 0.26348 0.36079 0.0
H2112 H 0.84642 0.34234 0.51705 0.0
H2113 H 0.75287 0.31274 0.5354 0.0
H2114 H 0.77094 0.27724 0.57478 0.0
H2115 H 0.81362 0.25142 0.60016 0.0
H2116 H 0.90715 0.28158 0.58219 0.0
H2117 H 0.8887 0.32084 0.54704 0.0
C2118 C 0.83 0.32817 0.52978 0.0
C2119 C 0.79844 0.32958 0.523 0.0
C2120 C 0.84052 0.30819 0.55253 0.0
C2121 C 0.7773 0.31177 0.54011 0.0
C2122 C 0.78762 0.29153 0.56258 0.0
C2123 C 0.82994 0.26696 0.58897 0.0
C2124 C 0.86171 0.26336 0.59347 0.0
C2125 C 0.81921 0.28912 0.56849 0.0
C2126 C 0.88258 0.28391 0.57919 0.0
C2127 C 0.87207 0.30614 0.55882 0.0
H2128 H 0.44177 0.01626 0.3272 0.0
H2129 H 0.48564 0.93713 0.36591 0.0
H2130 H 0.5257 0.9702 0.38826 0.0
H2131 H 0.55148 0.02036 0.39152 0.0
H2132 H 0.50955 0.09959 0.35101 0.0
H2133 H 0.46516 0.06775 0.33528 0.0
C2134 C 0.4598 0.00629 0.34096 0.0
C2135 C 0.46092 0.97419 0.34446 0.0
C2136 C 0.48321 0.02542 0.35328 0.0
C2137 C 0.4844 0.9617 0.36248 0.0
C2138 C 0.50736 0.98059 0.37529 0.0
C2139 C 0.53248 0.03083 0.37957 0.0
C2140 C 0.5341 0.06223 0.372 0.0
C2141 C 0.50751 0.01232 0.36997 0.0
C2142 C 0.50899 0.07546 0.35703 0.0
C2143 C 0.48368 0.05721 0.34784 0.0
H2144 H 0.70319 0.69147 0.07008 0.0
H2145 H 0.62194 0.665 0.01864 0.0
H2146 H 0.59824 0.71365 0.03204 0.0
H2147 H 0.60468 0.76697 0.05109 0.0
H2148 H 0.68832 0.79349 0.09884 0.0
H2149 H 0.70706 0.74158 0.09413 0.0
C2150 C 0.68004 0.69608 0.06226 0.0
C2151 C 0.66456 0.67509 0.04291 0.0
C2152 C 0.66727 0.72438 0.06891 0.0
C2153 C 0.63438 0.68099 0.03343 0.0
C2154 C 0.62097 0.70891 0.04083 0.0
C2155 C 0.62677 0.76116 0.06083 0.0
C2156 C 0.64543 0.7841 0.07464 0.0
C2157 C 0.63782 0.73134 0.05736 0.0
C2158 C 0.67389 0.77635 0.08743 0.0
C2159 C 0.68458 0.74666 0.08489 0.0
H2160 H 0.55914 0.46544 0.36393 0.0
H2161 H 0.53405 0.54552 0.31229 0.0
H2162 H 0.47952 0.53259 0.31974 0.0
H2163 H 0.43995 0.49311 0.33239 0.0
H2164 H 0.46607 0.41274 0.38361 0.0
H2165 H 0.51904 0.4315 0.38526 0.0
C2166 C 0.54167 0.48051 0.3551 0.0
C2167 C 0.5504 0.50597 0.33715 0.0
C2168 C 0.51054 0.47259 0.3589 0.0
C2169 C 0.52777 0.52567 0.32614 0.0
C2170 C 0.4966 0.51811 0.33011 0.0
C2171 C 0.45708 0.47999 0.34444 0.0
C2172 C 0.44912 0.45105 0.35691 0.0
C2173 C 0.48779 0.49074 0.34508 0.0
C2174 C 0.47156 0.43473 0.37308 0.0
C2175 C 0.50197 0.44541 0.37408 0.0
H2176 H 0.25283 0.79325 0.92489 0.0
H2177 H 0.16463 0.82474 0.95509 0.0
H2178 H 0.13901 0.78092 0.92994 0.0
H2179 H 0.1424 0.73056 0.90526 0.0
H2180 H 0.23114 0.6967 0.87957 0.0
H2181 H 0.25586 0.74463 0.89683 0.0
C2182 C 0.22795 0.79086 0.92537 0.0
C2183 C 0.21061 0.81205 0.94188 0.0
C2184 C 0.21354 0.76497 0.91201 0.0
C2185 C 0.17843 0.80855 0.94265 0.0
C2186 C 0.1638 0.78348 0.92836 0.0
C2187 C 0.16708 0.73391 0.90291 0.0
C2188 C 0.18496 0.71007 0.89139 0.0
C2189 C 0.18122 0.76104 0.91388 0.0
C2190 C 0.21694 0.71462 0.88869 0.0
C2191 C 0.23107 0.742 0.89853 0.0
H2192 H 0.46946 0.96432 0.20964 0.0
H2193 H 0.42454 0.88163 0.1763 0.0
H2194 H 0.45276 0.88588 0.12788 0.0
H2195 H 0.49786 0.90586 0.10142 0.0
H2196 H 0.54993 0.98235 0.13966 0.0
H2197 H 0.51015 0.98951 0.17826 0.0
C2198 C 0.46544 0.94782 0.19131 0.0
C2199 C 0.44553 0.92253 0.1962 0.0
C2200 C 0.48302 0.9495 0.16435 0.0
C2201 C 0.44021 0.90103 0.17276 0.0
C2202 C 0.45623 0.90353 0.14518 0.0
C2203 C 0.50015 0.92471 0.11763 0.0
C2204 C 0.52757 0.94245 0.11872 0.0
C2205 C 0.4789 0.92666 0.14152 0.0
C2206 C 0.52948 0.96768 0.13887 0.0
C2207 C 0.50695 0.97147 0.16133 0.0
H2208 H 0.06871 0.07853 0.73813 0.0
H2209 H 0.01546 -0.00069 0.70763 0.0
H2210 H 0.97998 0.03264 0.68078 0.0
H2211 H 0.96051 0.08415 0.6718 0.0
H2212 H 0.01334 0.16373 0.7014 0.0
H2213 H 0.05299 0.13041 0.7225 0.0
C2214 C 0.04961 0.06857 0.72519 0.0
C2215 C 0.04439 0.03652 0.72531 0.0
C2216 C 0.0292 0.08791 0.70989 0.0
C2217 C 0.01986 0.02388 0.70807 0.0
C2218 C -0.00051 0.04293 0.69283 0.0
C2219 C 0.98102 0.09415 0.68242 0.0
C2220 C 0.98399 0.12618 0.68553 0.0
C2221 C 0.00339 0.07493 0.69448 0.0
C2222 C 0.0107 0.13908 0.69883 0.0
C2223 C 0.03317 0.12003 0.71105 0.0
loop_
_geom_bond_atom_site_label_1
_geom_bond_atom_site_label_2
_geom_bond_distance
_geom_bond_site_symmetry_2
_ccdc_geom_bond_type
C0 O1 1.306 . S
C0 O3 1.160 . S
O1 C0 1.306 . S
O1 Cd2 2.228 . S
Cd2 O1 2.228 . S
Cd2 O6 2.273 . S
Cd2 O10 2.277 . S
O3 C0 1.160 . S
O3 Cd4 2.203 1_655 S
Cd4 O3 2.203 1_455 S
Cd4 O6 2.411 1_455 S
Cd4 O7 2.333 . S
Cd4 O8 2.352 . S
Cd4 O12 2.277 . S
Cd4 O13 2.356 . S
C5 O10 1.209 1_455 S
C5 O12 1.226 . S
O6 Cd2 2.273 . S
O6 Cd4 2.411 1_655 S
O6 C9 1.320 . S
O7 Cd4 2.333 . S
O7 C9 1.214 1_455 S
O8 Cd4 2.352 . S
O8 C11 1.258 . S
C9 O6 1.320 . S
C9 O7 1.214 1_655 S
O10 Cd2 2.277 . S
O10 C5 1.209 1_655 S
C11 O8 1.258 . S
C11 O13 1.282 . S
O12 Cd4 2.277 . S
O12 C5 1.226 . S
O13 Cd4 2.356 . S
O13 C11 1.282 . S
C14 O15 1.306 . S
C14 O17 1.160 . S
O15 C14 1.306 . S
O15 Cd16 2.228 1_455 S
Cd16 O15 2.228 1_655 S
Cd16 O20 2.273 . S
Cd16 O24 2.277 . S
O17 C14 1.160 . S
O17 Cd18 2.203 . S
Cd18 O17 2.203 . S
Cd18 O20 2.411 1_455 S
Cd18 O21 2.333 1_455 S
Cd18 O22 2.352 . S
Cd18 O26 2.277 1_455 S
Cd18 O27 2.356 . S
C19 O24 1.209 . S
C19 O26 1.226 . S
O20 Cd16 2.273 . S
O20 Cd18 2.411 1_655 S
O20 C23 1.320 . S
O21 Cd18 2.333 1_655 S
O21 C23 1.214 . S
O22 Cd18 2.352 . S
O22 C25 1.258 . S
C23 O20 1.320 . S
C23 O21 1.214 . S
O24 Cd16 2.277 . S
O24 C19 1.209 . S
C25 O22 1.258 . S
C25 O27 1.282 . S
O26 Cd18 2.277 1_655 S
O26 C19 1.226 . S
O27 Cd18 2.356 . S
O27 C25 1.282 . S
C28 O29 1.306 . S
C28 O31 1.160 . S
O29 C28 1.306 . S
O29 Cd30 2.228 . S
Cd30 O29 2.228 . S
Cd30 O34 2.273 . S
Cd30 O38 2.277 . S
O31 C28 1.160 . S
O31 Cd32 2.203 . S
Cd32 O31 2.203 . S
Cd32 O34 2.411 . S
Cd32 O35 2.333 . S
Cd32 O36 2.352 . S
Cd32 O40 2.277 . S
Cd32 O41 2.356 . S
C33 O38 1.209 . S
C33 O40 1.226 . S
O34 Cd30 2.273 . S
O34 Cd32 2.411 . S
O34 C37 1.320 . S
O35 Cd32 2.333 . S
O35 C37 1.214 . S
O36 Cd32 2.352 . S
O36 C39 1.258 . S
C37 O34 1.320 . S
C37 O35 1.214 . S
O38 Cd30 2.277 . S
O38 C33 1.209 . S
C39 O36 1.258 . S
C39 O41 1.282 . S
O40 Cd32 2.277 . S
O40 C33 1.226 . S
O41 Cd32 2.356 . S
O41 C39 1.282 . S
C42 O43 1.306 . S
C42 O45 1.160 . S
O43 C42 1.306 . S
O43 Cd44 2.228 . S
Cd44 O43 2.228 . S
Cd44 O48 2.273 . S
Cd44 O52 2.277 . S
O45 C42 1.160 . S
O45 Cd46 2.203 . S
Cd46 O45 2.203 . S
Cd46 O48 2.411 . S
Cd46 O49 2.333 . S
Cd46 O50 2.352 . S
Cd46 O54 2.277 . S
Cd46 O55 2.356 . S
C47 O52 1.209 . S
C47 O54 1.226 . S
O48 Cd44 2.273 . S
O48 Cd46 2.411 . S
O48 C51 1.320 . S
O49 Cd46 2.333 . S
O49 C51 1.214 . S
O50 Cd46 2.352 . S
O50 C53 1.258 . S
C51 O48 1.320 . S
C51 O49 1.214 . S
O52 Cd44 2.277 . S
O52 C47 1.209 . S
C53 O50 1.258 . S
C53 O55 1.282 . S
O54 Cd46 2.277 . S
O54 C47 1.226 . S
O55 Cd46 2.356 . S
O55 C53 1.282 . S
C56 O57 1.306 . S
C56 O59 1.160 . S
O57 C56 1.306 . S
O57 Cd58 2.228 . S
Cd58 O57 2.228 . S
Cd58 O62 2.273 . S
Cd58 O66 2.277 . S
O59 C56 1.160 . S
O59 Cd60 2.203 1_655 S
Cd60 O59 2.203 1_455 S
Cd60 O62 2.411 1_455 S
Cd60 O63 2.333 . S
Cd60 O64 2.352 . S
Cd60 O68 2.277 . S
Cd60 O69 2.356 . S
C61 O66 1.209 1_455 S
C61 O68 1.226 . S
O62 Cd58 2.273 . S
O62 Cd60 2.411 1_655 S
O62 C65 1.320 . S
O63 Cd60 2.333 . S
O63 C65 1.214 1_455 S
O64 Cd60 2.352 . S
O64 C67 1.258 . S
C65 O62 1.320 . S
C65 O63 1.214 1_655 S
O66 Cd58 2.277 . S
O66 C61 1.209 1_655 S
C67 O64 1.258 . S
C67 O69 1.282 . S
O68 Cd60 2.277 . S
O68 C61 1.226 . S
O69 Cd60 2.356 . S
O69 C67 1.282 . S
C70 O71 1.306 . S
C70 O73 1.160 . S
O71 C70 1.306 . S
O71 Cd72 2.228 . S
Cd72 O71 2.228 . S
Cd72 O76 2.273 . S
Cd72 O80 2.277 . S
O73 C70 1.160 . S
O73 Cd74 2.203 . S
Cd74 O73 2.203 . S
Cd74 O76 2.411 . S
Cd74 O77 2.333 . S
Cd74 O78 2.352 . S
Cd74 O82 2.277 . S
Cd74 O83 2.356 . S
C75 O80 1.209 . S
C75 O82 1.226 . S
O76 Cd72 2.273 . S
O76 Cd74 2.411 . S
O76 C79 1.320 . S
O77 Cd74 2.333 . S
O77 C79 1.214 . S
O78 Cd74 2.352 . S
O78 C81 1.258 . S
C79 O76 1.320 . S
C79 O77 1.214 . S
O80 Cd72 2.277 . S
O80 C75 1.209 . S
C81 O78 1.258 . S
C81 O83 1.282 . S
O82 Cd74 2.277 . S
O82 C75 1.226 . S
O83 Cd74 2.356 . S
O83 C81 1.282 . S
C84 O85 1.306 . S
C84 O87 1.160 . S
O85 C84 1.306 . S
O85 Cd86 2.228 . S
Cd86 O85 2.228 . S
Cd86 O90 2.273 . S
Cd86 O94 2.277 . S
O87 C84 1.160 . S
O87 Cd88 2.203 . S
Cd88 O87 2.203 . S
Cd88 O90 2.411 . S
Cd88 O91 2.333 . S
Cd88 O92 2.352 . S
Cd88 O96 2.277 . S
Cd88 O97 2.356 . S
C89 O94 1.209 . S
C89 O96 1.226 . S
O90 Cd86 2.273 . S
O90 Cd88 2.411 . S
O90 C93 1.320 . S
O91 Cd88 2.333 . S
O91 C93 1.214 . S
O92 Cd88 2.352 . S
O92 C95 1.258 . S
C93 O90 1.320 . S
C93 O91 1.214 . S
O94 Cd86 2.277 . S
O94 C89 1.209 . S
C95 O92 1.258 . S
C95 O97 1.282 . S
O96 Cd88 2.277 . S
O96 C89 1.226 . S
O97 Cd88 2.356 . S
O97 C95 1.282 . S
C98 O99 1.306 . S
C98 O101 1.160 . S
O99 C98 1.306 . S
O99 Cd100 2.228 1_455 S
Cd100 O99 2.228 1_655 S
Cd100 O104 2.273 . S
Cd100 O108 2.277 . S
O101 C98 1.160 . S
O101 Cd102 2.203 . S
Cd102 O101 2.203 . S
Cd102 O104 2.411 1_455 S
Cd102 O105 2.333 1_455 S
Cd102 O106 2.352 . S
Cd102 O110 2.277 1_455 S
Cd102 O111 2.356 . S
C103 O108 1.209 . S
C103 O110 1.226 . S
O104 Cd100 2.273 . S
O104 Cd102 2.411 1_655 S
O104 C107 1.320 . S
O105 Cd102 2.333 1_655 S
O105 C107 1.214 . S
O106 Cd102 2.352 . S
O106 C109 1.258 . S
C107 O104 1.320 . S
C107 O105 1.214 . S
O108 Cd100 2.277 . S
O108 C103 1.209 . S
C109 O106 1.258 . S
C109 O111 1.282 . S
O110 Cd102 2.277 1_655 S
O110 C103 1.226 . S
O111 Cd102 2.356 . S
O111 C109 1.282 . S
C112 O113 1.306 . S
C112 O115 1.157 1_565 S
O113 C112 1.306 . S
O113 Cd114 2.228 . S
Cd114 O113 2.228 . S
Cd114 O118 2.273 . S
Cd114 O122 2.252 1_565 S
O115 C112 1.157 1_545 S
O115 Cd116 2.204 . S
Cd116 O115 2.204 . S
Cd116 O118 2.411 1_545 S
Cd116 O119 2.333 . S
Cd116 O120 2.352 . S
Cd116 O124 2.277 . S
Cd116 O125 2.356 . S
C117 O122 1.234 . S
C117 O124 1.226 . S
O118 Cd114 2.273 . S
O118 Cd116 2.411 1_565 S
O118 C121 1.320 . S
O119 Cd116 2.333 . S
O119 C121 1.214 1_545 S
O120 Cd116 2.352 . S
O120 C123 1.258 . S
C121 O118 1.320 . S
C121 O119 1.214 1_565 S
O122 Cd114 2.252 1_545 S
O122 C117 1.234 . S
C123 O120 1.258 . S
C123 O125 1.282 . S
O124 Cd116 2.277 . S
O124 C117 1.226 . S
O125 Cd116 2.356 . S
O125 C123 1.282 . S
C126 O127 1.306 . S
C126 O129 1.160 . S
O127 C126 1.306 . S
O127 Cd128 2.228 . S
Cd128 O127 2.228 . S
Cd128 O132 2.273 . S
Cd128 O136 2.277 . S
O129 C126 1.160 . S
O129 Cd130 2.203 . S
Cd130 O129 2.203 . S
Cd130 O132 2.411 . S
Cd130 O133 2.333 . S
Cd130 O134 2.352 . S
Cd130 O138 2.277 . S
Cd130 O139 2.356 . S
C131 O136 1.209 . S
C131 O138 1.226 . S
O132 Cd128 2.273 . S
O132 Cd130 2.411 . S
O132 C135 1.320 . S
O133 Cd130 2.333 . S
O133 C135 1.214 . S
O134 Cd130 2.352 . S
O134 C137 1.258 . S
C135 O132 1.320 . S
C135 O133 1.214 . S
O136 Cd128 2.277 . S
O136 C131 1.209 . S
C137 O134 1.258 . S
C137 O139 1.282 . S
O138 Cd130 2.277 . S
O138 C131 1.226 . S
O139 Cd130 2.356 . S
O139 C137 1.282 . S
C140 O141 1.306 . S
C140 O143 1.160 . S
O141 C140 1.306 . S
O141 Cd142 2.228 . S
Cd142 O141 2.228 . S
Cd142 O146 2.273 . S
Cd142 O150 2.277 . S
O143 C140 1.160 . S
O143 Cd144 2.203 1_565 S
Cd144 O143 2.203 1_545 S
Cd144 O146 2.411 1_545 S
Cd144 O147 2.333 . S
Cd144 O148 2.352 . S
Cd144 O152 2.277 . S
Cd144 O153 2.356 . S
C145 O150 1.209 1_545 S
C145 O152 1.226 . S
O146 Cd142 2.273 . S
O146 Cd144 2.411 1_565 S
O146 C149 1.320 . S
O147 Cd144 2.333 . S
O147 C149 1.214 1_545 S
O148 Cd144 2.352 . S
O148 C151 1.258 . S
C149 O146 1.320 . S
C149 O147 1.214 1_565 S
O150 Cd142 2.277 . S
O150 C145 1.209 1_565 S
C151 O148 1.258 . S
C151 O153 1.282 . S
O152 Cd144 2.277 . S
O152 C145 1.226 . S
O153 Cd144 2.356 . S
O153 C151 1.282 . S
C154 O155 1.306 . S
C154 O157 1.160 . S
O155 C154 1.306 . S
O155 Cd156 2.228 1_554 S
Cd156 O155 2.228 1_556 S
Cd156 O160 2.273 . S
Cd156 O164 2.277 . S
O157 C154 1.160 . S
O157 Cd158 2.203 . S
Cd158 O157 2.203 . S
Cd158 O160 2.411 1_554 S
Cd158 O161 2.333 1_554 S
Cd158 O162 2.352 . S
Cd158 O166 2.277 1_554 S
Cd158 O167 2.356 . S
C159 O164 1.209 . S
C159 O166 1.226 . S
O160 Cd156 2.273 . S
O160 Cd158 2.411 1_556 S
O160 C163 1.320 . S
O161 Cd158 2.333 1_556 S
O161 C163 1.214 . S
O162 Cd158 2.352 . S
O162 C165 1.258 . S
C163 O160 1.320 . S
C163 O161 1.214 . S
O164 Cd156 2.277 . S
O164 C159 1.209 . S
C165 O162 1.258 . S
C165 O167 1.282 . S
O166 Cd158 2.277 1_556 S
O166 C159 1.226 . S
O167 Cd158 2.356 . S
O167 C165 1.282 . S
C168 O169 1.306 . S
C168 O171 1.160 . S
O169 C168 1.306 . S
O169 Cd170 2.228 . S
Cd170 O169 2.228 . S
Cd170 O174 2.273 . S
Cd170 O178 2.277 . S
O171 C168 1.160 . S
O171 Cd172 2.203 1_554 S
Cd172 O171 2.203 1_556 S
Cd172 O174 2.411 1_556 S
Cd172 O175 2.333 . S
Cd172 O176 2.349 1_556 S
Cd172 O180 2.277 . S
Cd172 O181 2.356 . S
C173 O178 1.209 1_556 S
C173 O180 1.226 . S
O174 Cd170 2.273 . S
O174 Cd172 2.411 1_554 S
O174 C177 1.320 . S
O175 Cd172 2.333 . S
O175 C177 1.214 1_556 S
O176 Cd172 2.349 1_554 S
O176 C179 1.242 1_554 S
C177 O174 1.320 . S
C177 O175 1.214 1_554 S
O178 Cd170 2.277 . S
O178 C173 1.209 1_554 S
C179 O176 1.242 1_556 S
C179 O181 1.282 . S
O180 Cd172 2.277 . S
O180 C173 1.226 . S
O181 Cd172 2.356 . S
O181 C179 1.282 . S
C182 O183 1.306 . S
C182 O185 1.160 . S
O183 C182 1.306 . S
O183 Cd184 2.228 . S
Cd184 O183 2.228 . S
Cd184 O188 2.273 . S
Cd184 O192 2.277 . S
O185 C182 1.160 . S
O185 Cd186 2.203 1_554 S
Cd186 O185 2.203 1_556 S
Cd186 O188 2.411 1_556 S
Cd186 O189 2.333 . S
Cd186 O190 2.352 . S
Cd186 O194 2.277 . S
Cd186 O195 2.356 . S
C187 O192 1.209 1_556 S
C187 O194 1.226 . S
O188 Cd184 2.273 . S
O188 Cd186 2.411 1_554 S
O188 C191 1.320 . S
O189 Cd186 2.333 . S
O189 C191 1.214 1_556 S
O190 Cd186 2.352 . S
O190 C193 1.258 . S
C191 O188 1.320 . S
C191 O189 1.214 1_554 S
O192 Cd184 2.277 . S
O192 C187 1.209 1_554 S
C193 O190 1.258 . S
C193 O195 1.282 . S
O194 Cd186 2.277 . S
O194 C187 1.226 . S
O195 Cd186 2.356 . S
O195 C193 1.282 . S
C196 O197 1.306 . S
C196 O199 1.160 . S
O197 C196 1.306 . S
O197 Cd198 2.228 . S
Cd198 O197 2.228 . S
Cd198 O202 2.273 . S
Cd198 O206 2.277 . S
O199 C196 1.160 . S
O199 Cd200 2.203 . S
Cd200 O199 2.203 . S
Cd200 O202 2.411 . S
Cd200 O203 2.333 . S
Cd200 O204 2.352 . S
Cd200 O208 2.277 . S
Cd200 O209 2.356 . S
C201 O206 1.209 . S
C201 O208 1.226 . S
O202 Cd198 2.273 . S
O202 Cd200 2.411 . S
O202 C205 1.320 . S
O203 Cd200 2.333 . S
O203 C205 1.214 . S
O204 Cd200 2.352 . S
O204 C207 1.258 . S
C205 O202 1.320 . S
C205 O203 1.214 . S
O206 Cd198 2.277 . S
O206 C201 1.209 . S
C207 O204 1.258 . S
C207 O209 1.282 . S
O208 Cd200 2.277 . S
O208 C201 1.226 . S
O209 Cd200 2.356 . S
O209 C207 1.282 . S
C210 O211 1.306 . S
C210 O213 1.160 . S
O211 C210 1.306 . S
O211 Cd212 2.228 . S
Cd212 O211 2.228 . S
Cd212 O216 2.273 . S
Cd212 O220 2.277 . S
O213 C210 1.160 . S
O213 Cd214 2.203 . S
Cd214 O213 2.203 . S
Cd214 O216 2.411 . S
Cd214 O217 2.333 . S
Cd214 O218 2.352 . S
Cd214 O222 2.277 . S
Cd214 O223 2.356 . S
C215 O220 1.209 . S
C215 O222 1.226 . S
O216 Cd212 2.273 . S
O216 Cd214 2.411 . S
O216 C219 1.320 . S
O217 Cd214 2.333 . S
O217 C219 1.214 . S
O218 Cd214 2.352 . S
O218 C221 1.258 . S
C219 O216 1.320 . S
C219 O217 1.214 . S
O220 Cd212 2.277 . S
O220 C215 1.209 . S
C221 O218 1.258 . S
C221 O223 1.282 . S
O222 Cd214 2.277 . S
O222 C215 1.226 . S
O223 Cd214 2.356 . S
O223 C221 1.282 . S
C224 O225 1.306 . S
C224 O227 1.160 . S
O225 C224 1.306 . S
O225 Cd226 2.228 1_545 S
Cd226 O225 2.228 1_565 S
Cd226 O230 2.273 . S
Cd226 O234 2.277 . S
O227 C224 1.160 . S
O227 Cd228 2.203 . S
Cd228 O227 2.203 . S
Cd228 O230 2.411 1_545 S
Cd228 O231 2.333 1_545 S
Cd228 O232 2.352 . S
Cd228 O236 2.277 1_545 S
Cd228 O237 2.356 . S
C229 O234 1.209 . S
C229 O236 1.226 . S
O230 Cd226 2.273 . S
O230 Cd228 2.411 1_565 S
O230 C233 1.320 . S
O231 Cd228 2.333 1_565 S
O231 C233 1.214 . S
O232 Cd228 2.352 . S
O232 C235 1.258 . S
C233 O230 1.320 . S
C233 O231 1.214 . S
O234 Cd226 2.277 . S
O234 C229 1.209 . S
C235 O232 1.258 . S
C235 O237 1.282 . S
O236 Cd228 2.277 1_565 S
O236 C229 1.226 . S
O237 Cd228 2.356 . S
O237 C235 1.282 . S
C238 O239 1.306 . S
C238 O241 1.160 . S
O239 C238 1.306 . S
O239 Cd240 2.228 . S
Cd240 O239 2.228 . S
Cd240 O244 2.273 . S
Cd240 O248 2.277 . S
O241 C238 1.160 . S
O241 Cd242 2.203 . S
Cd242 O241 2.203 . S
Cd242 O244 2.411 . S
Cd242 O245 2.333 . S
Cd242 O246 2.352 . S
Cd242 O250 2.277 . S
Cd242 O251 2.356 . S
C243 O248 1.209 . S
C243 O250 1.226 . S
O244 Cd240 2.273 . S
O244 Cd242 2.411 . S
O244 C247 1.320 . S
O245 Cd242 2.333 . S
O245 C247 1.214 . S
O246 Cd242 2.352 . S
O246 C249 1.258 . S
C247 O244 1.320 . S
C247 O245 1.214 . S
O248 Cd240 2.277 . S
O248 C243 1.209 . S
C249 O246 1.258 . S
C249 O251 1.282 . S
O250 Cd242 2.277 . S
O250 C243 1.226 . S
O251 Cd242 2.356 . S
O251 C249 1.282 . S
C252 O253 1.306 . S
C252 O255 1.160 . S
O253 C252 1.306 . S
O253 Cd254 2.228 . S
Cd254 O253 2.228 . S
Cd254 O258 2.273 . S
Cd254 O262 2.277 . S
O255 C252 1.160 . S
O255 Cd256 2.203 . S
Cd256 O255 2.203 . S
Cd256 O258 2.411 . S
Cd256 O259 2.333 . S
Cd256 O260 2.352 . S
Cd256 O264 2.277 . S
Cd256 O265 2.356 . S
C257 O262 1.209 . S
C257 O264 1.226 . S
O258 Cd254 2.273 . S
O258 Cd256 2.411 . S
O258 C261 1.320 . S
O259 Cd256 2.333 . S
O259 C261 1.214 . S
O260 Cd256 2.352 . S
O260 C263 1.258 . S
C261 O258 1.320 . S
C261 O259 1.214 . S
O262 Cd254 2.277 . S
O262 C257 1.209 . S
C263 O260 1.258 . S
C263 O265 1.282 . S
O264 Cd256 2.277 . S
O264 C257 1.226 . S
O265 Cd256 2.356 . S
O265 C263 1.282 . S
C266 O267 1.306 . S
C266 O269 1.160 . S
O267 C266 1.306 . S
O267 Cd268 2.228 1_545 S
Cd268 O267 2.228 1_565 S
Cd268 O272 2.273 . S
Cd268 O276 2.277 . S
O269 C266 1.160 . S
O269 Cd270 2.203 . S
Cd270 O269 2.203 . S
Cd270 O272 2.411 1_545 S
Cd270 O273 2.333 1_545 S
Cd270 O274 2.352 . S
Cd270 O278 2.277 1_545 S
Cd270 O279 2.356 . S
C271 O276 1.209 . S
C271 O278 1.226 . S
O272 Cd268 2.273 . S
O272 Cd270 2.411 1_565 S
O272 C275 1.320 . S
O273 Cd270 2.333 1_565 S
O273 C275 1.214 . S
O274 Cd270 2.352 . S
O274 C277 1.258 . S
C275 O272 1.320 . S
C275 O273 1.214 . S
O276 Cd268 2.277 . S
O276 C271 1.209 . S
C277 O274 1.258 . S
C277 O279 1.282 . S
O278 Cd270 2.277 1_565 S
O278 C271 1.226 . S
O279 Cd270 2.356 . S
O279 C277 1.282 . S
C280 O281 1.306 . S
C280 O283 1.160 . S
O281 C280 1.306 . S
O281 Cd282 2.228 1_554 S
Cd282 O281 2.228 1_556 S
Cd282 O286 2.273 . S
Cd282 O290 2.277 . S
O283 C280 1.160 . S
O283 Cd284 2.203 . S
Cd284 O283 2.203 . S
Cd284 O286 2.411 1_554 S
Cd284 O287 2.333 1_554 S
Cd284 O288 2.352 . S
Cd284 O292 2.277 1_554 S
Cd284 O293 2.356 . S
C285 O290 1.209 . S
C285 O292 1.226 . S
O286 Cd282 2.273 . S
O286 Cd284 2.411 1_556 S
O286 C289 1.320 . S
O287 Cd284 2.333 1_556 S
O287 C289 1.214 . S
O288 Cd284 2.352 . S
O288 C291 1.258 . S
C289 O286 1.320 . S
C289 O287 1.214 . S
O290 Cd282 2.277 . S
O290 C285 1.209 . S
C291 O288 1.258 . S
C291 O293 1.282 . S
O292 Cd284 2.277 1_556 S
O292 C285 1.226 . S
O293 Cd284 2.356 . S
O293 C291 1.282 . S
C294 O295 1.306 . S
C294 O297 1.160 . S
O295 C294 1.306 . S
O295 Cd296 2.228 . S
Cd296 O295 2.228 . S
Cd296 O300 2.273 . S
Cd296 O304 2.277 . S
O297 C294 1.160 . S
O297 Cd298 2.203 . S
Cd298 O297 2.203 . S
Cd298 O300 2.411 . S
Cd298 O301 2.333 . S
Cd298 O302 2.352 . S
Cd298 O306 2.277 . S
Cd298 O307 2.356 . S
C299 O304 1.209 . S
C299 O306 1.226 . S
O300 Cd296 2.273 . S
O300 Cd298 2.411 . S
O300 C303 1.320 . S
O301 Cd298 2.333 . S
O301 C303 1.214 . S
O302 Cd298 2.352 . S
O302 C305 1.258 . S
C303 O300 1.320 . S
C303 O301 1.214 . S
O304 Cd296 2.277 . S
O304 C299 1.209 . S
C305 O302 1.258 . S
C305 O307 1.282 . S
O306 Cd298 2.277 . S
O306 C299 1.226 . S
O307 Cd298 2.356 . S
O307 C305 1.282 . S
C308 O309 1.306 . S
C308 O311 1.160 . S
O309 C308 1.306 . S
O309 Cd310 2.228 . S
Cd310 O309 2.228 . S
Cd310 O314 2.273 . S
Cd310 O318 2.277 . S
O311 C308 1.160 . S
O311 Cd312 2.203 . S
Cd312 O311 2.203 . S
Cd312 O314 2.411 . S
Cd312 O315 2.333 . S
Cd312 O316 2.352 . S
Cd312 O320 2.277 . S
Cd312 O321 2.356 . S
C313 O318 1.209 . S
C313 O320 1.226 . S
O314 Cd310 2.273 . S
O314 Cd312 2.411 . S
O314 C317 1.320 . S
O315 Cd312 2.333 . S
O315 C317 1.214 . S
O316 Cd312 2.352 . S
O316 C319 1.258 . S
C317 O314 1.320 . S
C317 O315 1.214 . S
O318 Cd310 2.277 . S
O318 C313 1.209 . S
C319 O316 1.258 . S
C319 O321 1.282 . S
O320 Cd312 2.277 . S
O320 C313 1.226 . S
O321 Cd312 2.356 . S
O321 C319 1.282 . S
C322 O323 1.306 . S
C322 O325 1.160 . S
O323 C322 1.306 . S
O323 Cd324 2.228 . S
Cd324 O323 2.228 . S
Cd324 O328 2.273 . S
Cd324 O332 2.277 . S
O325 C322 1.160 . S
O325 Cd326 2.203 . S
Cd326 O325 2.203 . S
Cd326 O328 2.411 . S
Cd326 O329 2.333 . S
Cd326 O330 2.352 . S
Cd326 O334 2.277 . S
Cd326 O335 2.356 . S
C327 O332 1.209 . S
C327 O334 1.226 . S
O328 Cd324 2.273 . S
O328 Cd326 2.411 . S
O328 C331 1.320 . S
O329 Cd326 2.333 . S
O329 C331 1.214 . S
O330 Cd326 2.352 . S
O330 C333 1.258 . S
C331 O328 1.320 . S
C331 O329 1.214 . S
O332 Cd324 2.277 . S
O332 C327 1.209 . S
C333 O330 1.258 . S
C333 O335 1.282 . S
O334 Cd326 2.277 . S
O334 C327 1.226 . S
O335 Cd326 2.356 . S
O335 C333 1.282 . S
Sc336 O339 2.025 . S
Sc336 O346 2.105 . S
Sc336 O349 2.105 . S
Sc336 O352 2.105 . S
Sc336 O355 2.105 . S
Sc337 O339 2.025 . S
Sc337 O347 2.105 . S
Sc337 O351 2.105 . S
Sc337 O353 2.105 . S
Sc337 O357 2.105 . S
Sc338 O339 2.025 . S
Sc338 O348 2.105 . S
Sc338 O350 2.105 . S
Sc338 O354 2.105 . S
Sc338 O356 2.105 . S
O339 Sc336 2.025 . S
O339 Sc337 2.025 . S
O339 Sc338 2.025 . S
C340 O346 1.268 . S
C340 O356 1.268 . S
C341 O347 1.268 . S
C341 O355 1.268 . S
C342 O348 1.268 . S
C342 O357 1.268 . S
C343 O349 1.268 . S
C343 O353 1.268 . S
C344 O350 1.268 . S
C344 O352 1.268 . S
C345 O351 1.268 . S
C345 O354 1.268 . S
O346 Sc336 2.105 . S
O346 C340 1.268 . S
O347 Sc337 2.105 . S
O347 C341 1.268 . S
O348 Sc338 2.105 . S
O348 C342 1.268 . S
O349 Sc336 2.105 . S
O349 C343 1.268 . S
O350 Sc338 2.105 . S
O350 C344 1.268 . S
O351 Sc337 2.105 . S
O351 C345 1.268 . S
O352 Sc336 2.105 . S
O352 C344 1.268 . S
O353 Sc337 2.105 . S
O353 C343 1.268 . S
O354 Sc338 2.105 . S
O354 C345 1.268 . S
O355 Sc336 2.105 . S
O355 C341 1.268 . S
O356 Sc338 2.105 . S
O356 C340 1.268 . S
O357 Sc337 2.105 . S
O357 C342 1.268 . S
Sc358 O361 2.025 . S
Sc358 O368 2.105 . S
Sc358 O371 2.105 . S
Sc358 O374 2.105 . S
Sc358 O377 2.105 . S
Sc359 O361 2.025 . S
Sc359 O369 2.105 . S
Sc359 O373 2.105 . S
Sc359 O375 2.105 . S
Sc359 O379 2.105 . S
Sc360 O361 2.025 . S
Sc360 O370 2.105 . S
Sc360 O372 2.105 . S
Sc360 O376 2.105 . S
Sc360 O378 2.105 . S
O361 Sc358 2.025 . S
O361 Sc359 2.025 . S
O361 Sc360 2.025 . S
C362 O368 1.268 . S
C362 O378 1.268 . S
C363 O369 1.268 . S
C363 O377 1.268 . S
C364 O370 1.268 . S
C364 O379 1.268 . S
C365 O371 1.268 . S
C365 O375 1.268 . S
C366 O372 1.268 . S
C366 O374 1.268 . S
C367 O373 1.268 . S
C367 O376 1.268 . S
O368 Sc358 2.105 . S
O368 C362 1.268 . S
O369 Sc359 2.105 . S
O369 C363 1.268 . S
O370 Sc360 2.105 . S
O370 C364 1.268 . S
O371 Sc358 2.105 . S
O371 C365 1.268 . S
O372 Sc360 2.105 . S
O372 C366 1.268 . S
O373 Sc359 2.105 . S
O373 C367 1.268 . S
O374 Sc358 2.105 . S
O374 C366 1.268 . S
O375 Sc359 2.105 . S
O375 C365 1.268 . S
O376 Sc360 2.105 . S
O376 C367 1.268 . S
O377 Sc358 2.105 . S
O377 C363 1.268 . S
O378 Sc360 2.105 . S
O378 C362 1.268 . S
O379 Sc359 2.105 . S
O379 C364 1.268 . S
Sc380 O383 2.025 . S
Sc380 O390 2.105 . S
Sc380 O393 2.105 . S
Sc380 O396 2.105 . S
Sc380 O399 2.105 . S
Sc381 O383 2.025 . S
Sc381 O391 2.105 . S
Sc381 O395 2.105 . S
Sc381 O397 2.105 . S
Sc381 O401 2.105 . S
Sc382 O383 2.025 . S
Sc382 O392 2.105 . S
Sc382 O394 2.105 . S
Sc382 O398 2.105 . S
Sc382 O400 2.105 . S
O383 Sc380 2.025 . S
O383 Sc381 2.025 . S
O383 Sc382 2.025 . S
C384 O390 1.268 . S
C384 O400 1.268 . S
C385 O391 1.268 . S
C385 O399 1.268 . S
C386 O392 1.268 . S
C386 O401 1.268 . S
C387 O393 1.268 . S
C387 O397 1.268 . S
C388 O394 1.268 . S
C388 O396 1.268 . S
C389 O395 1.268 . S
C389 O398 1.268 . S
O390 Sc380 2.105 . S
O390 C384 1.268 . S
O391 Sc381 2.105 . S
O391 C385 1.268 . S
O392 Sc382 2.105 . S
O392 C386 1.268 . S
O393 Sc380 2.105 . S
O393 C387 1.268 . S
O394 Sc382 2.105 . S
O394 C388 1.268 . S
O395 Sc381 2.105 . S
O395 C389 1.268 . S
O396 Sc380 2.105 . S
O396 C388 1.268 . S
O397 Sc381 2.105 . S
O397 C387 1.268 . S
O398 Sc382 2.105 . S
O398 C389 1.268 . S
O399 Sc380 2.105 . S
O399 C385 1.268 . S
O400 Sc382 2.105 . S
O400 C384 1.268 . S
O401 Sc381 2.105 . S
O401 C386 1.268 . S
Sc402 O405 2.025 . S
Sc402 O412 2.105 . S
Sc402 O415 2.105 . S
Sc402 O418 2.105 . S
Sc402 O421 2.105 . S
Sc403 O405 2.025 . S
Sc403 O413 2.105 . S
Sc403 O417 2.105 . S
Sc403 O419 2.105 . S
Sc403 O423 2.105 . S
Sc404 O405 2.025 . S
Sc404 O414 2.105 . S
Sc404 O416 2.105 . S
Sc404 O420 2.105 . S
Sc404 O422 2.105 . S
O405 Sc402 2.025 . S
O405 Sc403 2.025 . S
O405 Sc404 2.025 . S
C406 O412 1.268 . S
C406 O422 1.268 . S
C407 O413 1.268 . S
C407 O421 1.268 . S
C408 O414 1.268 . S
C408 O423 1.268 . S
C409 O415 1.268 . S
C409 O419 1.268 . S
C410 O416 1.268 . S
C410 O418 1.268 . S
C411 O417 1.268 . S
C411 O420 1.268 . S
O412 Sc402 2.105 . S
O412 C406 1.268 . S
O413 Sc403 2.105 . S
O413 C407 1.268 . S
O414 Sc404 2.105 . S
O414 C408 1.268 . S
O415 Sc402 2.105 . S
O415 C409 1.268 . S
O416 Sc404 2.105 . S
O416 C410 1.268 . S
O417 Sc403 2.105 . S
O417 C411 1.268 . S
O418 Sc402 2.105 . S
O418 C410 1.268 . S
O419 Sc403 2.105 . S
O419 C409 1.268 . S
O420 Sc404 2.105 . S
O420 C411 1.268 . S
O421 Sc402 2.105 . S
O421 C407 1.268 . S
O422 Sc404 2.105 . S
O422 C406 1.268 . S
O423 Sc403 2.105 . S
O423 C408 1.268 . S
Sc424 O427 2.025 . S
Sc424 O434 2.105 . S
Sc424 O437 2.105 . S
Sc424 O440 2.105 . S
Sc424 O443 2.105 . S
Sc425 O427 2.025 . S
Sc425 O435 2.105 . S
Sc425 O439 2.105 . S
Sc425 O441 2.105 . S
Sc425 O445 2.105 . S
Sc426 O427 2.025 . S
Sc426 O436 2.105 . S
Sc426 O438 2.105 . S
Sc426 O442 2.105 . S
Sc426 O444 2.105 . S
O427 Sc424 2.025 . S
O427 Sc425 2.025 . S
O427 Sc426 2.025 . S
C428 O434 1.268 . S
C428 O444 1.268 . S
C429 O435 1.268 . S
C429 O443 1.268 . S
C430 O436 1.268 . S
C430 O445 1.268 . S
C431 O437 1.268 . S
C431 O441 1.268 . S
C432 O438 1.268 . S
C432 O440 1.268 . S
C433 O439 1.268 . S
C433 O442 1.268 . S
O434 Sc424 2.105 . S
O434 C428 1.268 . S
O435 Sc425 2.105 . S
O435 C429 1.268 . S
O436 Sc426 2.105 . S
O436 C430 1.268 . S
O437 Sc424 2.105 . S
O437 C431 1.268 . S
O438 Sc426 2.105 . S
O438 C432 1.268 . S
O439 Sc425 2.105 . S
O439 C433 1.268 . S
O440 Sc424 2.105 . S
O440 C432 1.268 . S
O441 Sc425 2.105 . S
O441 C431 1.268 . S
O442 Sc426 2.105 . S
O442 C433 1.268 . S
O443 Sc424 2.105 . S
O443 C429 1.268 . S
O444 Sc426 2.105 . S
O444 C428 1.268 . S
O445 Sc425 2.105 . S
O445 C430 1.268 . S
Sc446 O449 2.025 . S
Sc446 O456 2.105 . S
Sc446 O459 2.105 . S
Sc446 O462 2.105 . S
Sc446 O465 2.105 . S
Sc447 O449 2.025 . S
Sc447 O457 2.105 . S
Sc447 O461 2.105 . S
Sc447 O463 2.105 . S
Sc447 O467 2.105 . S
Sc448 O449 2.025 . S
Sc448 O458 2.105 . S
Sc448 O460 2.105 . S
Sc448 O464 2.105 . S
Sc448 O466 2.105 . S
O449 Sc446 2.025 . S
O449 Sc447 2.025 . S
O449 Sc448 2.025 . S
C450 O456 1.268 . S
C450 O466 1.268 . S
C451 O457 1.268 . S
C451 O465 1.268 . S
C452 O458 1.268 . S
C452 O467 1.268 . S
C453 O459 1.268 . S
C453 O463 1.268 . S
C454 O460 1.268 . S
C454 O462 1.268 . S
C455 O461 1.268 . S
C455 O464 1.268 . S
O456 Sc446 2.105 . S
O456 C450 1.268 . S
O457 Sc447 2.105 . S
O457 C451 1.268 . S
O458 Sc448 2.105 . S
O458 C452 1.268 . S
O459 Sc446 2.105 . S
O459 C453 1.268 . S
O460 Sc448 2.105 . S
O460 C454 1.268 . S
O461 Sc447 2.105 . S
O461 C455 1.268 . S
O462 Sc446 2.105 . S
O462 C454 1.268 . S
O463 Sc447 2.105 . S
O463 C453 1.268 . S
O464 Sc448 2.105 . S
O464 C455 1.268 . S
O465 Sc446 2.105 . S
O465 C451 1.268 . S
O466 Sc448 2.105 . S
O466 C450 1.268 . S
O467 Sc447 2.105 . S
O467 C452 1.268 . S
Sc468 O471 2.025 . S
Sc468 O478 2.105 . S
Sc468 O481 2.105 . S
Sc468 O484 2.105 . S
Sc468 O487 2.105 . S
Sc469 O471 2.025 . S
Sc469 O479 2.105 . S
Sc469 O483 2.105 . S
Sc469 O485 2.105 . S
Sc469 O489 2.105 . S
Sc470 O471 2.025 . S
Sc470 O480 2.105 . S
Sc470 O482 2.105 . S
Sc470 O486 2.105 . S
Sc470 O488 2.105 . S
O471 Sc468 2.025 . S
O471 Sc469 2.025 . S
O471 Sc470 2.025 . S
C472 O478 1.268 . S
C472 O488 1.268 . S
C473 O479 1.268 . S
C473 O487 1.268 . S
C474 O480 1.268 . S
C474 O489 1.268 . S
C475 O481 1.268 . S
C475 O485 1.268 . S
C476 O482 1.268 . S
C476 O484 1.268 . S
C477 O483 1.268 . S
C477 O486 1.268 . S
O478 Sc468 2.105 . S
O478 C472 1.268 . S
O479 Sc469 2.105 . S
O479 C473 1.268 . S
O480 Sc470 2.105 . S
O480 C474 1.268 . S
O481 Sc468 2.105 . S
O481 C475 1.268 . S
O482 Sc470 2.105 . S
O482 C476 1.268 . S
O483 Sc469 2.105 . S
O483 C477 1.268 . S
O484 Sc468 2.105 . S
O484 C476 1.268 . S
O485 Sc469 2.105 . S
O485 C475 1.268 . S
O486 Sc470 2.105 . S
O486 C477 1.268 . S
O487 Sc468 2.105 . S
O487 C473 1.268 . S
O488 Sc470 2.105 . S
O488 C472 1.268 . S
O489 Sc469 2.105 . S
O489 C474 1.268 . S
Sc490 O493 2.025 . S
Sc490 O500 2.105 . S
Sc490 O503 2.105 . S
Sc490 O506 2.105 . S
Sc490 O509 2.105 . S
Sc491 O493 2.025 . S
Sc491 O501 2.105 . S
Sc491 O505 2.105 . S
Sc491 O507 2.105 . S
Sc491 O511 2.105 . S
Sc492 O493 2.025 . S
Sc492 O502 2.105 . S
Sc492 O504 2.105 . S
Sc492 O508 2.105 . S
Sc492 O510 2.105 . S
O493 Sc490 2.025 . S
O493 Sc491 2.025 . S
O493 Sc492 2.025 . S
C494 O500 1.268 . S
C494 O510 1.268 . S
C495 O501 1.268 . S
C495 O509 1.268 . S
C496 O502 1.268 . S
C496 O511 1.268 . S
C497 O503 1.268 . S
C497 O507 1.268 . S
C498 O504 1.268 . S
C498 O506 1.268 . S
C499 O505 1.268 . S
C499 O508 1.268 . S
O500 Sc490 2.105 . S
O500 C494 1.268 . S
O501 Sc491 2.105 . S
O501 C495 1.268 . S
O502 Sc492 2.105 . S
O502 C496 1.268 . S
O503 Sc490 2.105 . S
O503 C497 1.268 . S
O504 Sc492 2.105 . S
O504 C498 1.268 . S
O505 Sc491 2.105 . S
O505 C499 1.268 . S
O506 Sc490 2.105 . S
O506 C498 1.268 . S
O507 Sc491 2.105 . S
O507 C497 1.268 . S
O508 Sc492 2.105 . S
O508 C499 1.268 . S
O509 Sc490 2.105 . S
O509 C495 1.268 . S
O510 Sc492 2.105 . S
O510 C494 1.268 . S
O511 Sc491 2.105 . S
O511 C496 1.268 . S
Sc512 O515 2.025 . S
Sc512 O522 2.105 . S
Sc512 O525 2.105 . S
Sc512 O528 2.105 . S
Sc512 O531 2.105 . S
Sc513 O515 2.025 . S
Sc513 O523 2.105 . S
Sc513 O527 2.105 . S
Sc513 O529 2.105 . S
Sc513 O533 2.105 . S
Sc514 O515 2.025 . S
Sc514 O524 2.105 . S
Sc514 O526 2.105 . S
Sc514 O530 2.105 . S
Sc514 O532 2.105 . S
O515 Sc512 2.025 . S
O515 Sc513 2.025 . S
O515 Sc514 2.025 . S
C516 O522 1.268 . S
C516 O532 1.268 . S
C517 O523 1.268 . S
C517 O531 1.268 . S
C518 O524 1.268 . S
C518 O533 1.268 . S
C519 O525 1.268 . S
C519 O529 1.268 . S
C520 O526 1.268 . S
C520 O528 1.268 . S
C521 O527 1.268 . S
C521 O530 1.268 . S
O522 Sc512 2.105 . S
O522 C516 1.268 . S
O523 Sc513 2.105 . S
O523 C517 1.268 . S
O524 Sc514 2.105 . S
O524 C518 1.268 . S
O525 Sc512 2.105 . S
O525 C519 1.268 . S
O526 Sc514 2.105 . S
O526 C520 1.268 . S
O527 Sc513 2.105 . S
O527 C521 1.268 . S
O528 Sc512 2.105 . S
O528 C520 1.268 . S
O529 Sc513 2.105 . S
O529 C519 1.268 . S
O530 Sc514 2.105 . S
O530 C521 1.268 . S
O531 Sc512 2.105 . S
O531 C517 1.268 . S
O532 Sc514 2.105 . S
O532 C516 1.268 . S
O533 Sc513 2.105 . S
O533 C518 1.268 . S
Sc534 O537 2.025 . S
Sc534 O544 2.105 . S
Sc534 O547 2.105 . S
Sc534 O550 2.105 . S
Sc534 O553 2.105 . S
Sc535 O537 2.025 . S
Sc535 O545 2.105 . S
Sc535 O549 2.105 . S
Sc535 O551 2.105 . S
Sc535 O555 2.105 . S
Sc536 O537 2.025 . S
Sc536 O546 2.105 . S
Sc536 O548 2.105 . S
Sc536 O552 2.105 . S
Sc536 O554 2.105 . S
O537 Sc534 2.025 . S
O537 Sc535 2.025 . S
O537 Sc536 2.025 . S
C538 O544 1.268 . S
C538 O554 1.268 . S
C539 O545 1.268 . S
C539 O553 1.268 . S
C540 O546 1.268 . S
C540 O555 1.268 . S
C541 O547 1.268 . S
C541 O551 1.268 . S
C542 O548 1.268 . S
C542 O550 1.268 . S
C543 O549 1.268 . S
C543 O552 1.268 . S
O544 Sc534 2.105 . S
O544 C538 1.268 . S
O545 Sc535 2.105 . S
O545 C539 1.268 . S
O546 Sc536 2.105 . S
O546 C540 1.268 . S
O547 Sc534 2.105 . S
O547 C541 1.268 . S
O548 Sc536 2.105 . S
O548 C542 1.268 . S
O549 Sc535 2.105 . S
O549 C543 1.268 . S
O550 Sc534 2.105 . S
O550 C542 1.268 . S
O551 Sc535 2.105 . S
O551 C541 1.268 . S
O552 Sc536 2.105 . S
O552 C543 1.268 . S
O553 Sc534 2.105 . S
O553 C539 1.268 . S
O554 Sc536 2.105 . S
O554 C538 1.268 . S
O555 Sc535 2.105 . S
O555 C540 1.268 . S
Sc556 O559 2.025 . S
Sc556 O566 2.105 . S
Sc556 O569 2.105 . S
Sc556 O572 2.105 . S
Sc556 O575 2.105 . S
Sc557 O559 2.025 . S
Sc557 O567 2.105 . S
Sc557 O571 2.105 . S
Sc557 O573 2.105 . S
Sc557 O577 2.105 . S
Sc558 O559 2.025 . S
Sc558 O568 2.105 . S
Sc558 O570 2.105 . S
Sc558 O574 2.105 . S
Sc558 O576 2.105 . S
O559 Sc556 2.025 . S
O559 Sc557 2.025 . S
O559 Sc558 2.025 . S
C560 O566 1.268 . S
C560 O576 1.268 . S
C561 O567 1.268 . S
C561 O575 1.268 . S
C562 O568 1.268 . S
C562 O577 1.268 . S
C563 O569 1.268 . S
C563 O573 1.268 . S
C564 O570 1.268 . S
C564 O572 1.268 . S
C565 O571 1.268 . S
C565 O574 1.268 . S
O566 Sc556 2.105 . S
O566 C560 1.268 . S
O567 Sc557 2.105 . S
O567 C561 1.268 . S
O568 Sc558 2.105 . S
O568 C562 1.268 . S
O569 Sc556 2.105 . S
O569 C563 1.268 . S
O570 Sc558 2.105 . S
O570 C564 1.268 . S
O571 Sc557 2.105 . S
O571 C565 1.268 . S
O572 Sc556 2.105 . S
O572 C564 1.268 . S
O573 Sc557 2.105 . S
O573 C563 1.268 . S
O574 Sc558 2.105 . S
O574 C565 1.268 . S
O575 Sc556 2.105 . S
O575 C561 1.268 . S
O576 Sc558 2.105 . S
O576 C560 1.268 . S
O577 Sc557 2.105 . S
O577 C562 1.268 . S
Sc578 O581 2.025 . S
Sc578 O588 2.105 . S
Sc578 O591 2.105 . S
Sc578 O594 2.105 . S
Sc578 O597 2.105 . S
Sc579 O581 2.025 . S
Sc579 O589 2.105 . S
Sc579 O593 2.105 . S
Sc579 O595 2.105 . S
Sc579 O599 2.105 . S
Sc580 O581 2.025 . S
Sc580 O590 2.105 . S
Sc580 O592 2.105 . S
Sc580 O596 2.105 . S
Sc580 O598 2.105 . S
O581 Sc578 2.025 . S
O581 Sc579 2.025 . S
O581 Sc580 2.025 . S
C582 O588 1.268 . S
C582 O598 1.268 . S
C583 O589 1.268 . S
C583 O597 1.268 . S
C584 O590 1.268 . S
C584 O599 1.268 . S
C585 O591 1.268 . S
C585 O595 1.268 . S
C586 O592 1.268 . S
C586 O594 1.268 . S
C587 O593 1.268 . S
C587 O596 1.268 . S
O588 Sc578 2.105 . S
O588 C582 1.268 . S
O589 Sc579 2.105 . S
O589 C583 1.268 . S
O590 Sc580 2.105 . S
O590 C584 1.268 . S
O591 Sc578 2.105 . S
O591 C585 1.268 . S
O592 Sc580 2.105 . S
O592 C586 1.268 . S
O593 Sc579 2.105 . S
O593 C587 1.268 . S
O594 Sc578 2.105 . S
O594 C586 1.268 . S
O595 Sc579 2.105 . S
O595 C585 1.268 . S
O596 Sc580 2.105 . S
O596 C587 1.268 . S
O597 Sc578 2.105 . S
O597 C583 1.268 . S
O598 Sc580 2.105 . S
O598 C582 1.268 . S
O599 Sc579 2.105 . S
O599 C584 1.268 . S
Sc600 O603 2.025 . S
Sc600 O610 2.105 . S
Sc600 O613 2.105 . S
Sc600 O616 2.105 . S
Sc600 O619 2.105 . S
Sc601 O603 2.025 . S
Sc601 O611 2.105 . S
Sc601 O615 2.105 . S
Sc601 O617 2.105 . S
Sc601 O621 2.105 . S
Sc602 O603 2.025 . S
Sc602 O612 2.105 . S
Sc602 O614 2.105 . S
Sc602 O618 2.105 . S
Sc602 O620 2.105 . S
O603 Sc600 2.025 . S
O603 Sc601 2.025 . S
O603 Sc602 2.025 . S
C604 O610 1.268 . S
C604 O620 1.268 . S
C605 O611 1.268 . S
C605 O619 1.268 . S
C606 O612 1.268 . S
C606 O621 1.268 . S
C607 O613 1.268 . S
C607 O617 1.268 . S
C608 O614 1.268 . S
C608 O616 1.268 . S
C609 O615 1.268 . S
C609 O618 1.268 . S
O610 Sc600 2.105 . S
O610 C604 1.268 . S
O611 Sc601 2.105 . S
O611 C605 1.268 . S
O612 Sc602 2.105 . S
O612 C606 1.268 . S
O613 Sc600 2.105 . S
O613 C607 1.268 . S
O614 Sc602 2.105 . S
O614 C608 1.268 . S
O615 Sc601 2.105 . S
O615 C609 1.268 . S
O616 Sc600 2.105 . S
O616 C608 1.268 . S
O617 Sc601 2.105 . S
O617 C607 1.268 . S
O618 Sc602 2.105 . S
O618 C609 1.268 . S
O619 Sc600 2.105 . S
O619 C605 1.268 . S
O620 Sc602 2.105 . S
O620 C604 1.268 . S
O621 Sc601 2.105 . S
O621 C606 1.268 . S
Sc622 O625 2.025 . S
Sc622 O632 2.105 . S
Sc622 O635 2.105 . S
Sc622 O638 2.105 . S
Sc622 O641 2.105 . S
Sc623 O625 2.025 . S
Sc623 O633 2.105 . S
Sc623 O637 2.105 . S
Sc623 O639 2.105 . S
Sc623 O643 2.105 . S
Sc624 O625 2.025 . S
Sc624 O634 2.105 . S
Sc624 O636 2.105 . S
Sc624 O640 2.105 . S
Sc624 O642 2.105 . S
O625 Sc622 2.025 . S
O625 Sc623 2.025 . S
O625 Sc624 2.025 . S
C626 O632 1.268 . S
C626 O642 1.268 . S
C627 O633 1.268 . S
C627 O641 1.268 . S
C628 O634 1.268 . S
C628 O643 1.268 . S
C629 O635 1.268 . S
C629 O639 1.268 . S
C630 O636 1.268 . S
C630 O638 1.268 . S
C631 O637 1.268 . S
C631 O640 1.268 . S
O632 Sc622 2.105 . S
O632 C626 1.268 . S
O633 Sc623 2.105 . S
O633 C627 1.268 . S
O634 Sc624 2.105 . S
O634 C628 1.268 . S
O635 Sc622 2.105 . S
O635 C629 1.268 . S
O636 Sc624 2.105 . S
O636 C630 1.268 . S
O637 Sc623 2.105 . S
O637 C631 1.268 . S
O638 Sc622 2.105 . S
O638 C630 1.268 . S
O639 Sc623 2.105 . S
O639 C629 1.268 . S
O640 Sc624 2.105 . S
O640 C631 1.268 . S
O641 Sc622 2.105 . S
O641 C627 1.268 . S
O642 Sc624 2.105 . S
O642 C626 1.268 . S
O643 Sc623 2.105 . S
O643 C628 1.268 . S
Sc644 O647 2.025 . S
Sc644 O654 2.105 . S
Sc644 O657 2.105 . S
Sc644 O660 2.105 . S
Sc644 O663 2.105 . S
Sc645 O647 2.025 . S
Sc645 O655 2.105 . S
Sc645 O659 2.105 . S
Sc645 O661 2.105 . S
Sc645 O665 2.105 . S
Sc646 O647 2.025 . S
Sc646 O656 2.105 . S
Sc646 O658 2.105 . S
Sc646 O662 2.105 . S
Sc646 O664 2.105 . S
O647 Sc644 2.025 . S
O647 Sc645 2.025 . S
O647 Sc646 2.025 . S
C648 O654 1.268 . S
C648 O664 1.268 . S
C649 O655 1.268 . S
C649 O663 1.268 . S
C650 O656 1.268 . S
C650 O665 1.268 . S
C651 O657 1.268 . S
C651 O661 1.268 . S
C652 O658 1.268 . S
C652 O660 1.268 . S
C653 O659 1.268 . S
C653 O662 1.268 . S
O654 Sc644 2.105 . S
O654 C648 1.268 . S
O655 Sc645 2.105 . S
O655 C649 1.268 . S
O656 Sc646 2.105 . S
O656 C650 1.268 . S
O657 Sc644 2.105 . S
O657 C651 1.268 . S
O658 Sc646 2.105 . S
O658 C652 1.268 . S
O659 Sc645 2.105 . S
O659 C653 1.268 . S
O660 Sc644 2.105 . S
O660 C652 1.268 . S
O661 Sc645 2.105 . S
O661 C651 1.268 . S
O662 Sc646 2.105 . S
O662 C653 1.268 . S
O663 Sc644 2.105 . S
O663 C649 1.268 . S
O664 Sc646 2.105 . S
O664 C648 1.268 . S
O665 Sc645 2.105 . S
O665 C650 1.268 . S
Sc666 O669 2.025 . S
Sc666 O676 2.105 . S
Sc666 O679 2.105 . S
Sc666 O682 2.105 . S
Sc666 O685 2.105 . S
Sc667 O669 2.025 . S
Sc667 O677 2.105 . S
Sc667 O681 2.105 . S
Sc667 O683 2.105 . S
Sc667 O687 2.105 . S
Sc668 O669 2.025 . S
Sc668 O678 2.105 . S
Sc668 O680 2.105 . S
Sc668 O684 2.105 . S
Sc668 O686 2.105 . S
O669 Sc666 2.025 . S
O669 Sc667 2.025 . S
O669 Sc668 2.025 . S
C670 O676 1.268 . S
C670 O686 1.268 . S
C671 O677 1.268 . S
C671 O685 1.268 . S
C672 O678 1.268 . S
C672 O687 1.268 . S
C673 O679 1.268 . S
C673 O683 1.268 . S
C674 O680 1.268 . S
C674 O682 1.268 . S
C675 O681 1.268 . S
C675 O684 1.268 . S
O676 Sc666 2.105 . S
O676 C670 1.268 . S
O677 Sc667 2.105 . S
O677 C671 1.268 . S
O678 Sc668 2.105 . S
O678 C672 1.268 . S
O679 Sc666 2.105 . S
O679 C673 1.268 . S
O680 Sc668 2.105 . S
O680 C674 1.268 . S
O681 Sc667 2.105 . S
O681 C675 1.268 . S
O682 Sc666 2.105 . S
O682 C674 1.268 . S
O683 Sc667 2.105 . S
O683 C673 1.268 . S
O684 Sc668 2.105 . S
O684 C675 1.268 . S
O685 Sc666 2.105 . S
O685 C671 1.268 . S
O686 Sc668 2.105 . S
O686 C670 1.268 . S
O687 Sc667 2.105 . S
O687 C672 1.268 . S
H688 C694 0.930 . S
H689 C697 0.930 . S
H690 C698 0.930 . S
H691 C699 0.930 . S
H692 C702 0.930 . S
H693 C703 0.930 . S
C694 H688 0.930 . S
C694 C695 1.355 . S
C694 C696 1.415 . S
C695 C694 1.355 . S
C695 C697 1.419 . S
C696 C694 1.415 . S
C696 C701 1.425 . S
C696 C703 1.409 . S
C697 H689 0.930 . S
C697 C695 1.419 . S
C697 C698 1.362 . S
C698 H690 0.930 . S
C698 C697 1.362 . S
C698 C701 1.409 . S
C699 H691 0.930 . S
C699 C700 1.355 . S
C699 C701 1.415 . S
C700 C699 1.355 . S
C700 C702 1.419 . S
C701 C696 1.425 . S
C701 C698 1.409 . S
C701 C699 1.415 . S
C702 H692 0.930 . S
C702 C700 1.419 . S
C702 C703 1.362 . S
C703 H693 0.930 . S
C703 C696 1.409 . S
C703 C702 1.362 . S
H704 C710 0.930 . S
H705 C713 0.930 . S
H706 C714 0.930 . S
H707 C715 0.930 . S
H708 C718 0.930 . S
H709 C719 0.930 . S
C710 H704 0.930 . S
C710 C711 1.355 . S
C710 C712 1.415 . S
C711 C710 1.355 . S
C711 C713 1.419 . S
C712 C710 1.415 . S
C712 C717 1.425 . S
C712 C719 1.409 . S
C713 H705 0.930 . S
C713 C711 1.419 . S
C713 C714 1.362 . S
C714 H706 0.930 . S
C714 C713 1.362 . S
C714 C717 1.409 . S
C715 H707 0.930 . S
C715 C716 1.355 . S
C715 C717 1.415 . S
C716 C715 1.355 . S
C716 C718 1.419 . S
C717 C712 1.425 . S
C717 C714 1.409 . S
C717 C715 1.415 . S
C718 H708 0.930 . S
C718 C716 1.419 . S
C718 C719 1.362 . S
C719 H709 0.930 . S
C719 C712 1.409 . S
C719 C718 1.362 . S
H720 C726 0.930 . S
H721 C729 0.930 . S
H722 C730 0.930 . S
H723 C731 0.930 . S
H724 C734 0.930 . S
H725 C735 0.930 . S
C726 H720 0.930 . S
C726 C727 1.355 . S
C726 C728 1.415 . S
C727 C726 1.355 . S
C727 C729 1.419 . S
C728 C726 1.415 . S
C728 C733 1.425 . S
C728 C735 1.409 . S
C729 H721 0.930 . S
C729 C727 1.419 . S
C729 C730 1.362 . S
C730 H722 0.930 . S
C730 C729 1.362 . S
C730 C733 1.409 . S
C731 H723 0.930 . S
C731 C732 1.355 . S
C731 C733 1.415 . S
C732 C731 1.355 . S
C732 C734 1.419 . S
C733 C728 1.425 . S
C733 C730 1.409 . S
C733 C731 1.415 . S
C734 H724 0.930 . S
C734 C732 1.419 . S
C734 C735 1.362 . S
C735 H725 0.930 . S
C735 C728 1.409 . S
C735 C734 1.362 . S
H736 C742 0.930 . S
H737 C745 0.930 . S
H738 C746 0.930 . S
H739 C747 0.930 . S
H740 C750 0.930 . S
H741 C751 0.930 . S
C742 H736 0.930 . S
C742 C743 1.355 . S
C742 C744 1.415 . S
C743 C742 1.355 . S
C743 C745 1.419 . S
C744 C742 1.415 . S
C744 C749 1.425 . S
C744 C751 1.409 1_554 S
C745 H737 0.930 . S
C745 C743 1.419 . S
C745 C746 1.362 . S
C746 H738 0.930 . S
C746 C745 1.362 . S
C746 C749 1.409 . S
C747 H739 0.930 . S
C747 C748 1.355 1_554 S
C747 C749 1.415 . S
C748 C747 1.355 1_556 S
C748 C750 1.419 . S
C749 C744 1.425 . S
C749 C746 1.409 . S
C749 C747 1.415 . S
C750 H740 0.930 . S
C750 C748 1.419 . S
C750 C751 1.362 . S
C751 H741 0.930 . S
C751 C744 1.409 1_556 S
C751 C750 1.362 . S
H752 C758 0.930 . S
H753 C761 0.930 . S
H754 C762 0.930 . S
H755 C763 0.930 . S
H756 C766 0.930 . S
H757 C767 0.930 . S
C758 H752 0.930 . S
C758 C759 1.355 . S
C758 C760 1.415 . S
C759 C758 1.355 . S
C759 C761 1.419 . S
C760 C758 1.415 . S
C760 C765 1.425 . S
C760 C767 1.409 . S
C761 H753 0.930 . S
C761 C759 1.419 . S
C761 C762 1.362 . S
C762 H754 0.930 . S
C762 C761 1.362 . S
C762 C765 1.409 . S
C763 H755 0.930 . S
C763 C764 1.355 . S
C763 C765 1.415 . S
C764 C763 1.355 . S
C764 C766 1.419 . S
C765 C760 1.425 . S
C765 C762 1.409 . S
C765 C763 1.415 . S
C766 H756 0.930 . S
C766 C764 1.419 . S
C766 C767 1.362 . S
C767 H757 0.930 . S
C767 C760 1.409 . S
C767 C766 1.362 . S
H768 C774 0.930 . S
H769 C777 0.930 . S
H770 C778 0.930 . S
H771 C779 0.930 . S
H772 C782 0.930 . S
H773 C783 0.930 . S
C774 H768 0.930 . S
C774 C775 1.355 . S
C774 C776 1.415 . S
C775 C774 1.355 . S
C775 C777 1.419 . S
C776 C774 1.415 . S
C776 C781 1.425 . S
C776 C783 1.409 . S
C777 H769 0.930 . S
C777 C775 1.419 . S
C777 C778 1.362 . S
C778 H770 0.930 . S
C778 C777 1.362 . S
C778 C781 1.409 . S
C779 H771 0.930 . S
C779 C780 1.355 . S
C779 C781 1.415 . S
C780 C779 1.355 . S
C780 C782 1.419 . S
C781 C776 1.425 . S
C781 C778 1.409 . S
C781 C779 1.415 . S
C782 H772 0.930 . S
C782 C780 1.419 . S
C782 C783 1.362 . S
C783 H773 0.930 . S
C783 C776 1.409 . S
C783 C782 1.362 . S
H784 C790 0.930 . S
H785 C793 0.930 . S
H786 C794 0.930 . S
H787 C795 0.930 . S
H788 C798 0.930 . S
H789 C799 0.930 . S
C790 H784 0.930 . S
C790 C791 1.355 . S
C790 C792 1.415 . S
C791 C790 1.355 . S
C791 C793 1.419 . S
C792 C790 1.415 . S
C792 C797 1.425 . S
C792 C799 1.409 . S
C793 H785 0.930 . S
C793 C791 1.419 . S
C793 C794 1.362 . S
C794 H786 0.930 . S
C794 C793 1.362 . S
C794 C797 1.409 . S
C795 H787 0.930 . S
C795 C796 1.355 . S
C795 C797 1.415 . S
C796 C795 1.355 . S
C796 C798 1.419 . S
C797 C792 1.425 . S
C797 C794 1.409 . S
C797 C795 1.415 . S
C798 H788 0.930 . S
C798 C796 1.419 . S
C798 C799 1.362 . S
C799 H789 0.930 . S
C799 C792 1.409 . S
C799 C798 1.362 . S
H800 C806 0.930 . S
H801 C809 0.930 . S
H802 C810 0.920 1_554 S
H803 C811 0.930 . S
H804 C814 0.930 . S
H805 C815 0.930 . S
C806 H800 0.930 . S
C806 C807 1.355 . S
C806 C808 1.415 . S
C807 C806 1.355 . S
C807 C809 1.419 . S
C808 C806 1.415 . S
C808 C813 1.425 1_556 S
C808 C815 1.409 . S
C809 H801 0.930 . S
C809 C807 1.419 . S
C809 C810 1.374 . S
C810 H802 0.920 1_556 S
C810 C809 1.374 . S
C810 C813 1.408 1_556 S
C811 H803 0.930 . S
C811 C812 1.355 . S
C811 C813 1.415 . S
C812 C811 1.355 . S
C812 C814 1.419 . S
C813 C808 1.425 1_554 S
C813 C810 1.408 1_554 S
C813 C811 1.415 . S
C814 H804 0.930 . S
C814 C812 1.419 . S
C814 C815 1.362 1_554 S
C815 H805 0.930 . S
C815 C808 1.409 . S
C815 C814 1.362 1_556 S
H816 C822 0.930 . S
H817 C825 0.930 . S
H818 C826 0.930 . S
H819 C827 0.930 . S
H820 C830 0.930 . S
H821 C831 0.930 . S
C822 H816 0.930 . S
C822 C823 1.355 . S
C822 C824 1.415 . S
C823 C822 1.355 . S
C823 C825 1.419 . S
C824 C822 1.415 . S
C824 C829 1.425 . S
C824 C831 1.409 . S
C825 H817 0.930 . S
C825 C823 1.419 . S
C825 C826 1.362 . S
C826 H818 0.930 . S
C826 C825 1.362 . S
C826 C829 1.409 . S
C827 H819 0.930 . S
C827 C828 1.355 . S
C827 C829 1.415 . S
C828 C827 1.355 . S
C828 C830 1.419 . S
C829 C824 1.425 . S
C829 C826 1.409 . S
C829 C827 1.415 . S
C830 H820 0.930 . S
C830 C828 1.419 . S
C830 C831 1.362 . S
C831 H821 0.930 . S
C831 C824 1.409 . S
C831 C830 1.362 . S
H832 C838 0.930 . S
H833 C841 0.930 . S
H834 C842 0.930 . S
H835 C843 0.930 . S
H836 C846 0.930 . S
H837 C847 0.931 . S
C838 H832 0.930 . S
C838 C839 1.355 . S
C838 C840 1.415 . S
C839 C838 1.355 . S
C839 C841 1.419 . S
C840 C838 1.415 . S
C840 C845 1.425 . S
C840 C847 1.417 . S
C841 H833 0.930 . S
C841 C839 1.419 . S
C841 C842 1.362 . S
C842 H834 0.930 . S
C842 C841 1.362 . S
C842 C845 1.409 . S
C843 H835 0.930 . S
C843 C844 1.355 . S
C843 C845 1.415 1_565 S
C844 C843 1.355 . S
C844 C846 1.419 . S
C845 C840 1.425 . S
C845 C842 1.409 . S
C845 C843 1.415 1_545 S
C846 H836 0.930 . S
C846 C844 1.419 . S
C846 C847 1.354 1_565 S
C847 H837 0.931 . S
C847 C840 1.417 . S
C847 C846 1.354 1_545 S
H848 C854 0.930 . S
H849 C857 0.930 . S
H850 C858 0.930 . S
H851 C859 0.930 . S
H852 C862 0.930 . S
H853 C863 0.930 . S
C854 H848 0.930 . S
C854 C855 1.355 . S
C854 C856 1.415 . S
C855 C854 1.355 . S
C855 C857 1.419 . S
C856 C854 1.415 . S
C856 C861 1.425 . S
C856 C863 1.409 . S
C857 H849 0.930 . S
C857 C855 1.419 . S
C857 C858 1.362 . S
C858 H850 0.930 . S
C858 C857 1.362 . S
C858 C861 1.409 . S
C859 H851 0.930 . S
C859 C860 1.355 . S
C859 C861 1.415 . S
C860 C859 1.355 . S
C860 C862 1.419 . S
C861 C856 1.425 . S
C861 C858 1.409 . S
C861 C859 1.415 . S
C862 H852 0.930 . S
C862 C860 1.419 . S
C862 C863 1.362 . S
C863 H853 0.930 . S
C863 C856 1.409 . S
C863 C862 1.362 . S
H864 C870 0.930 . S
H865 C873 0.930 . S
H866 C874 0.930 1_545 S
H867 C875 0.930 . S
H868 C878 0.930 . S
H869 C879 0.930 . S
C870 H864 0.930 . S
C870 C871 1.355 . S
C870 C872 1.415 . S
C871 C870 1.355 . S
C871 C873 1.419 . S
C872 C870 1.415 . S
C872 C877 1.425 . S
C872 C879 1.409 . S
C873 H865 0.930 . S
C873 C871 1.419 . S
C873 C874 1.362 . S
C874 H866 0.930 1_565 S
C874 C873 1.362 . S
C874 C877 1.409 . S
C875 H867 0.930 . S
C875 C876 1.355 . S
C875 C877 1.415 1_545 S
C876 C875 1.355 . S
C876 C878 1.419 . S
C877 C872 1.425 . S
C877 C874 1.409 . S
C877 C875 1.415 1_565 S
C878 H868 0.930 . S
C878 C876 1.419 . S
C878 C879 1.362 1_545 S
C879 H869 0.930 . S
C879 C872 1.409 . S
C879 C878 1.362 1_565 S
H880 C886 0.930 . S
H881 C889 0.930 1_545 S
H882 C890 0.930 . S
H883 C891 0.930 . S
H884 C894 0.930 . S
H885 C895 0.930 . S
C886 H880 0.930 . S
C886 C887 1.355 . S
C886 C888 1.415 . S
C887 C886 1.355 . S
C887 C889 1.419 . S
C888 C886 1.415 . S
C888 C893 1.425 . S
C888 C895 1.409 . S
C889 H881 0.930 1_565 S
C889 C887 1.419 . S
C889 C890 1.362 . S
C890 H882 0.930 . S
C890 C889 1.362 . S
C890 C893 1.409 . S
C891 H883 0.930 . S
C891 C892 1.355 . S
C891 C893 1.415 . S
C892 C891 1.355 . S
C892 C894 1.419 . S
C893 C888 1.425 . S
C893 C890 1.409 . S
C893 C891 1.415 . S
C894 H884 0.930 . S
C894 C892 1.419 . S
C894 C895 1.362 . S
C895 H885 0.930 . S
C895 C888 1.409 . S
C895 C894 1.362 . S
H896 C902 0.930 . S
H897 C905 0.930 . S
H898 C906 0.930 . S
H899 C907 0.930 . S
H900 C910 0.930 . S
H901 C911 0.930 . S
C902 H896 0.930 . S
C902 C903 1.355 . S
C902 C904 1.415 . S
C903 C902 1.355 . S
C903 C905 1.419 . S
C904 C902 1.415 . S
C904 C909 1.425 . S
C904 C911 1.409 1_545 S
C905 H897 0.930 . S
C905 C903 1.419 . S
C905 C906 1.362 . S
C906 H898 0.930 . S
C906 C905 1.362 . S
C906 C909 1.409 . S
C907 H899 0.930 . S
C907 C908 1.355 . S
C907 C909 1.415 1_565 S
C908 C907 1.355 . S
C908 C910 1.419 . S
C909 C904 1.425 . S
C909 C906 1.409 . S
C909 C907 1.415 1_545 S
C910 H900 0.930 . S
C910 C908 1.419 . S
C910 C911 1.362 . S
C911 H901 0.930 . S
C911 C904 1.409 1_565 S
C911 C910 1.362 . S
H912 C918 0.930 . S
H913 C921 0.930 . S
H914 C922 0.930 . S
H915 C923 0.930 . S
H916 C926 0.930 . S
H917 C927 0.930 . S
C918 H912 0.930 . S
C918 C919 1.355 . S
C918 C920 1.415 . S
C919 C918 1.355 . S
C919 C921 1.419 . S
C920 C918 1.415 . S
C920 C925 1.425 . S
C920 C927 1.409 . S
C921 H913 0.930 . S
C921 C919 1.419 . S
C921 C922 1.362 . S
C922 H914 0.930 . S
C922 C921 1.362 . S
C922 C925 1.409 . S
C923 H915 0.930 . S
C923 C924 1.355 . S
C923 C925 1.415 . S
C924 C923 1.355 . S
C924 C926 1.419 . S
C925 C920 1.425 . S
C925 C922 1.409 . S
C925 C923 1.415 . S
C926 H916 0.930 . S
C926 C924 1.419 . S
C926 C927 1.362 . S
C927 H917 0.930 . S
C927 C920 1.409 . S
C927 C926 1.362 . S
H928 C934 0.930 . S
H929 C937 0.930 . S
H930 C938 0.930 . S
H931 C939 0.930 . S
H932 C942 0.930 . S
H933 C943 0.930 . S
C934 H928 0.930 . S
C934 C935 1.355 . S
C934 C936 1.415 . S
C935 C934 1.355 . S
C935 C937 1.419 . S
C936 C934 1.415 . S
C936 C941 1.425 . S
C936 C943 1.409 1_565 S
C937 H929 0.930 . S
C937 C935 1.419 . S
C937 C938 1.362 . S
C938 H930 0.930 . S
C938 C937 1.362 . S
C938 C941 1.409 . S
C939 H931 0.930 . S
C939 C940 1.355 . S
C939 C941 1.415 1_545 S
C940 C939 1.355 . S
C940 C942 1.419 . S
C941 C936 1.425 . S
C941 C938 1.409 . S
C941 C939 1.415 1_565 S
C942 H932 0.930 . S
C942 C940 1.419 . S
C942 C943 1.362 . S
C943 H933 0.930 . S
C943 C936 1.409 1_545 S
C943 C942 1.362 . S
H944 C950 0.930 . S
H945 C953 0.892 1_556 S
H946 C954 0.930 . S
H947 C955 0.930 . S
H948 C958 0.930 . S
H949 C959 0.930 . S
C950 H944 0.930 . S
C950 C951 1.355 . S
C950 C952 1.415 . S
C951 C950 1.355 . S
C951 C953 1.419 . S
C952 C950 1.415 . S
C952 C957 1.425 . S
C952 C959 1.409 . S
C953 H945 0.892 1_554 S
C953 C951 1.419 . S
C953 C954 1.362 . S
C954 H946 0.930 . S
C954 C953 1.362 . S
C954 C957 1.409 . S
C955 H947 0.930 . S
C955 C956 1.355 . S
C955 C957 1.415 . S
C956 C955 1.355 . S
C956 C958 1.419 . S
C957 C952 1.425 . S
C957 C954 1.409 . S
C957 C955 1.415 . S
C958 H948 0.930 . S
C958 C956 1.419 . S
C958 C959 1.362 . S
C959 H949 0.930 . S
C959 C952 1.409 . S
C959 C958 1.362 . S
H960 C966 0.930 . S
H961 C969 0.930 . S
H962 C970 0.930 . S
H963 C971 0.930 . S
H964 C974 0.930 . S
H965 C975 0.930 . S
C966 H960 0.930 . S
C966 C967 1.355 . S
C966 C968 1.415 . S
C967 C966 1.355 . S
C967 C969 1.419 . S
C968 C966 1.415 . S
C968 C973 1.425 . S
C968 C975 1.409 . S
C969 H961 0.930 . S
C969 C967 1.419 . S
C969 C970 1.362 . S
C970 H962 0.930 . S
C970 C969 1.362 . S
C970 C973 1.409 . S
C971 H963 0.930 . S
C971 C972 1.355 . S
C971 C973 1.415 . S
C972 C971 1.355 . S
C972 C974 1.419 . S
C973 C968 1.425 . S
C973 C970 1.409 . S
C973 C971 1.415 . S
C974 H964 0.930 . S
C974 C972 1.419 . S
C974 C975 1.362 . S
C975 H965 0.930 . S
C975 C968 1.409 . S
C975 C974 1.362 . S
H976 C982 0.930 . S
H977 C985 0.930 . S
H978 C986 0.930 . S
H979 C987 0.930 . S
H980 C990 0.930 . S
H981 C991 0.930 . S
C982 H976 0.930 . S
C982 C983 1.355 . S
C982 C984 1.415 . S
C983 C982 1.355 . S
C983 C985 1.419 . S
C984 C982 1.415 . S
C984 C989 1.425 . S
C984 C991 1.409 1_455 S
C985 H977 0.930 . S
C985 C983 1.419 . S
C985 C986 1.362 . S
C986 H978 0.930 . S
C986 C985 1.362 . S
C986 C989 1.409 . S
C987 H979 0.930 . S
C987 C988 1.355 1_455 S
C987 C989 1.415 . S
C988 C987 1.355 1_655 S
C988 C990 1.419 . S
C989 C984 1.425 . S
C989 C986 1.409 . S
C989 C987 1.415 . S
C990 H980 0.930 . S
C990 C988 1.419 . S
C990 C991 1.362 . S
C991 H981 0.930 . S
C991 C984 1.409 1_655 S
C991 C990 1.362 . S
H992 C998 0.930 . S
H993 C1001 0.930 . S
H994 C1002 0.930 . S
H995 C1003 0.930 . S
H996 C1006 0.930 . S
H997 C1007 0.930 . S
C998 H992 0.930 . S
C998 C999 1.355 . S
C998 C1000 1.415 . S
C999 C998 1.355 . S
C999 C1001 1.419 . S
C1000 C998 1.415 . S
C1000 C1005 1.425 . S
C1000 C1007 1.409 . S
C1001 H993 0.930 . S
C1001 C999 1.419 . S
C1001 C1002 1.362 . S
C1002 H994 0.930 . S
C1002 C1001 1.362 . S
C1002 C1005 1.409 . S
C1003 H995 0.930 . S
C1003 C1004 1.355 . S
C1003 C1005 1.415 . S
C1004 C1003 1.355 . S
C1004 C1006 1.419 . S
C1005 C1000 1.425 . S
C1005 C1002 1.409 . S
C1005 C1003 1.415 . S
C1006 H996 0.930 . S
C1006 C1004 1.419 . S
C1006 C1007 1.362 . S
C1007 H997 0.930 . S
C1007 C1000 1.409 . S
C1007 C1006 1.362 . S
H1008 C1014 0.930 . S
H1009 C1017 0.930 . S
H1010 C1018 0.930 . S
H1011 C1019 0.930 . S
H1012 C1022 0.930 . S
H1013 C1023 0.930 . S
C1014 H1008 0.930 . S
C1014 C1015 1.355 . S
C1014 C1016 1.415 . S
C1015 C1014 1.355 . S
C1015 C1017 1.419 . S
C1016 C1014 1.415 . S
C1016 C1021 1.425 . S
C1016 C1023 1.409 1_655 S
C1017 H1009 0.930 . S
C1017 C1015 1.419 . S
C1017 C1018 1.362 . S
C1018 H1010 0.930 . S
C1018 C1017 1.362 . S
C1018 C1021 1.409 . S
C1019 H1011 0.930 . S
C1019 C1020 1.355 . S
C1019 C1021 1.415 1_455 S
C1020 C1019 1.355 . S
C1020 C1022 1.419 . S
C1021 C1016 1.425 . S
C1021 C1018 1.409 . S
C1021 C1019 1.415 1_655 S
C1022 H1012 0.930 . S
C1022 C1020 1.419 . S
C1022 C1023 1.362 . S
C1023 H1013 0.930 . S
C1023 C1016 1.409 1_455 S
C1023 C1022 1.362 . S
H1024 C1030 0.930 . S
H1025 C1033 0.930 . S
H1026 C1034 0.930 . S
H1027 C1035 0.930 . S
H1028 C1038 0.930 . S
H1029 C1039 0.930 . S
C1030 H1024 0.930 . S
C1030 C1031 1.355 . S
C1030 C1032 1.415 . S
C1031 C1030 1.355 . S
C1031 C1033 1.419 . S
C1032 C1030 1.415 . S
C1032 C1037 1.425 . S
C1032 C1039 1.409 . S
C1033 H1025 0.930 . S
C1033 C1031 1.419 . S
C1033 C1034 1.362 . S
C1034 H1026 0.930 . S
C1034 C1033 1.362 . S
C1034 C1037 1.409 . S
C1035 H1027 0.930 . S
C1035 C1036 1.355 . S
C1035 C1037 1.415 . S
C1036 C1035 1.355 . S
C1036 C1038 1.419 . S
C1037 C1032 1.425 . S
C1037 C1034 1.409 . S
C1037 C1035 1.415 . S
C1038 H1028 0.930 . S
C1038 C1036 1.419 . S
C1038 C1039 1.362 . S
C1039 H1029 0.930 . S
C1039 C1032 1.409 . S
C1039 C1038 1.362 . S
H1040 C1046 0.930 . S
H1041 C1049 0.930 . S
H1042 C1050 0.930 . S
H1043 C1051 0.930 1_455 S
H1044 C1054 0.930 . S
H1045 C1055 0.930 . S
C1046 H1040 0.930 . S
C1046 C1047 1.355 . S
C1046 C1048 1.415 . S
C1047 C1046 1.355 . S
C1047 C1049 1.419 . S
C1048 C1046 1.415 . S
C1048 C1053 1.425 . S
C1048 C1055 1.409 1_455 S
C1049 H1041 0.930 . S
C1049 C1047 1.419 . S
C1049 C1050 1.362 . S
C1050 H1042 0.930 . S
C1050 C1049 1.362 . S
C1050 C1053 1.409 . S
C1051 H1043 0.930 1_655 S
C1051 C1052 1.355 . S
C1051 C1053 1.415 1_655 S
C1052 C1051 1.355 . S
C1052 C1054 1.419 . S
C1053 C1048 1.425 . S
C1053 C1050 1.409 . S
C1053 C1051 1.415 1_455 S
C1054 H1044 0.930 . S
C1054 C1052 1.419 . S
C1054 C1055 1.362 . S
C1055 H1045 0.930 . S
C1055 C1048 1.409 1_655 S
C1055 C1054 1.362 . S
H1056 C1062 0.930 . S
H1057 C1065 0.930 . S
H1058 C1066 0.930 . S
H1059 C1067 0.930 . S
H1060 C1070 0.930 . S
H1061 C1071 0.930 . S
C1062 H1056 0.930 . S
C1062 C1063 1.355 . S
C1062 C1064 1.415 . S
C1063 C1062 1.355 . S
C1063 C1065 1.419 . S
C1064 C1062 1.415 . S
C1064 C1069 1.425 . S
C1064 C1071 1.409 . S
C1065 H1057 0.930 . S
C1065 C1063 1.419 . S
C1065 C1066 1.362 . S
C1066 H1058 0.930 . S
C1066 C1065 1.362 . S
C1066 C1069 1.409 . S
C1067 H1059 0.930 . S
C1067 C1068 1.355 . S
C1067 C1069 1.415 . S
C1068 C1067 1.355 . S
C1068 C1070 1.419 . S
C1069 C1064 1.425 . S
C1069 C1066 1.409 . S
C1069 C1067 1.415 . S
C1070 H1060 0.930 . S
C1070 C1068 1.419 . S
C1070 C1071 1.362 . S
C1071 H1061 0.930 . S
C1071 C1064 1.409 . S
C1071 C1070 1.362 . S
H1072 C1078 0.930 . S
H1073 C1081 0.930 . S
H1074 C1082 0.930 . S
H1075 C1083 0.930 . S
H1076 C1086 0.930 . S
H1077 C1087 0.930 . S
C1078 H1072 0.930 . S
C1078 C1079 1.355 . S
C1078 C1080 1.415 . S
C1079 C1078 1.355 . S
C1079 C1081 1.419 . S
C1080 C1078 1.415 . S
C1080 C1085 1.425 . S
C1080 C1087 1.409 . S
C1081 H1073 0.930 . S
C1081 C1079 1.419 . S
C1081 C1082 1.362 . S
C1082 H1074 0.930 . S
C1082 C1081 1.362 . S
C1082 C1085 1.409 . S
C1083 H1075 0.930 . S
C1083 C1084 1.355 . S
C1083 C1085 1.415 . S
C1084 C1083 1.355 . S
C1084 C1086 1.419 . S
C1085 C1080 1.425 . S
C1085 C1082 1.409 . S
C1085 C1083 1.415 . S
C1086 H1076 0.930 . S
C1086 C1084 1.419 . S
C1086 C1087 1.362 . S
C1087 H1077 0.930 . S
C1087 C1080 1.409 . S
C1087 C1086 1.362 . S
H1088 C1094 0.930 . S
H1089 C1097 0.930 . S
H1090 C1098 0.930 . S
H1091 C1099 0.930 . S
H1092 C1102 0.930 . S
H1093 C1103 0.930 . S
C1094 H1088 0.930 . S
C1094 C1095 1.355 . S
C1094 C1096 1.415 . S
C1095 C1094 1.355 . S
C1095 C1097 1.419 . S
C1096 C1094 1.415 . S
C1096 C1101 1.425 . S
C1096 C1103 1.409 . S
C1097 H1089 0.930 . S
C1097 C1095 1.419 . S
C1097 C1098 1.362 . S
C1098 H1090 0.930 . S
C1098 C1097 1.362 . S
C1098 C1101 1.409 . S
C1099 H1091 0.930 . S
C1099 C1100 1.355 . S
C1099 C1101 1.415 . S
C1100 C1099 1.355 . S
C1100 C1102 1.419 . S
C1101 C1096 1.425 . S
C1101 C1098 1.409 . S
C1101 C1099 1.415 . S
C1102 H1092 0.930 . S
C1102 C1100 1.419 . S
C1102 C1103 1.362 . S
C1103 H1093 0.930 . S
C1103 C1096 1.409 . S
C1103 C1102 1.362 . S
H1104 C1110 0.930 . S
H1105 C1113 0.930 . S
H1106 C1114 0.930 . S
H1107 C1115 0.930 . S
H1108 C1118 0.930 . S
H1109 C1119 0.930 . S
C1110 H1104 0.930 . S
C1110 C1111 1.355 . S
C1110 C1112 1.415 . S
C1111 C1110 1.355 . S
C1111 C1113 1.419 . S
C1112 C1110 1.415 . S
C1112 C1117 1.425 . S
C1112 C1119 1.409 . S
C1113 H1105 0.930 . S
C1113 C1111 1.419 . S
C1113 C1114 1.362 . S
C1114 H1106 0.930 . S
C1114 C1113 1.362 . S
C1114 C1117 1.409 . S
C1115 H1107 0.930 . S
C1115 C1116 1.355 . S
C1115 C1117 1.415 . S
C1116 C1115 1.355 . S
C1116 C1118 1.419 . S
C1117 C1112 1.425 . S
C1117 C1114 1.409 . S
C1117 C1115 1.415 . S
C1118 H1108 0.930 . S
C1118 C1116 1.419 . S
C1118 C1119 1.362 . S
C1119 H1109 0.930 . S
C1119 C1112 1.409 . S
C1119 C1118 1.362 . S
H1120 C1126 0.930 . S
H1121 C1129 0.930 . S
H1122 C1130 0.930 . S
H1123 C1131 0.930 . S
H1124 C1134 0.930 . S
H1125 C1135 0.930 . S
C1126 H1120 0.930 . S
C1126 C1127 1.355 . S
C1126 C1128 1.415 . S
C1127 C1126 1.355 . S
C1127 C1129 1.419 . S
C1128 C1126 1.415 . S
C1128 C1133 1.425 . S
C1128 C1135 1.409 1_556 S
C1129 H1121 0.930 . S
C1129 C1127 1.419 . S
C1129 C1130 1.362 . S
C1130 H1122 0.930 . S
C1130 C1129 1.362 . S
C1130 C1133 1.409 . S
C1131 H1123 0.930 . S
C1131 C1132 1.355 . S
C1131 C1133 1.415 1_554 S
C1132 C1131 1.355 . S
C1132 C1134 1.419 . S
C1133 C1128 1.425 . S
C1133 C1130 1.409 . S
C1133 C1131 1.415 1_556 S
C1134 H1124 0.930 . S
C1134 C1132 1.419 . S
C1134 C1135 1.362 . S
C1135 H1125 0.930 . S
C1135 C1128 1.409 1_554 S
C1135 C1134 1.362 . S
H1136 C1142 0.930 . S
H1137 C1145 0.930 . S
H1138 C1146 0.930 . S
H1139 C1147 0.930 . S
H1140 C1150 0.930 . S
H1141 C1151 0.930 . S
C1142 H1136 0.930 . S
C1142 C1143 1.355 . S
C1142 C1144 1.415 . S
C1143 C1142 1.355 . S
C1143 C1145 1.419 . S
C1144 C1142 1.415 . S
C1144 C1149 1.425 . S
C1144 C1151 1.409 . S
C1145 H1137 0.930 . S
C1145 C1143 1.419 . S
C1145 C1146 1.362 . S
C1146 H1138 0.930 . S
C1146 C1145 1.362 . S
C1146 C1149 1.409 . S
C1147 H1139 0.930 . S
C1147 C1148 1.355 . S
C1147 C1149 1.415 . S
C1148 C1147 1.355 . S
C1148 C1150 1.419 . S
C1149 C1144 1.425 . S
C1149 C1146 1.409 . S
C1149 C1147 1.415 . S
C1150 H1140 0.930 . S
C1150 C1148 1.419 . S
C1150 C1151 1.362 . S
C1151 H1141 0.930 . S
C1151 C1144 1.409 . S
C1151 C1150 1.362 . S
H1152 C1158 0.930 . S
H1153 C1161 0.930 . S
H1154 C1162 0.930 . S
H1155 C1163 0.930 . S
H1156 C1166 0.930 . S
H1157 C1167 0.930 . S
C1158 H1152 0.930 . S
C1158 C1159 1.355 . S
C1158 C1160 1.415 . S
C1159 C1158 1.355 . S
C1159 C1161 1.419 . S
C1160 C1158 1.415 . S
C1160 C1165 1.425 . S
C1160 C1167 1.409 . S
C1161 H1153 0.930 . S
C1161 C1159 1.419 . S
C1161 C1162 1.362 . S
C1162 H1154 0.930 . S
C1162 C1161 1.362 . S
C1162 C1165 1.409 . S
C1163 H1155 0.930 . S
C1163 C1164 1.355 . S
C1163 C1165 1.415 . S
C1164 C1163 1.355 . S
C1164 C1166 1.419 . S
C1165 C1160 1.425 . S
C1165 C1162 1.409 . S
C1165 C1163 1.415 . S
C1166 H1156 0.930 . S
C1166 C1164 1.419 . S
C1166 C1167 1.362 . S
C1167 H1157 0.930 . S
C1167 C1160 1.409 . S
C1167 C1166 1.362 . S
H1168 C1174 0.930 . S
H1169 C1177 0.930 . S
H1170 C1178 0.930 . S
H1171 C1179 0.930 . S
H1172 C1182 0.930 . S
H1173 C1183 0.930 . S
C1174 H1168 0.930 . S
C1174 C1175 1.355 . S
C1174 C1176 1.415 . S
C1175 C1174 1.355 . S
C1175 C1177 1.419 . S
C1176 C1174 1.415 . S
C1176 C1181 1.425 . S
C1176 C1183 1.409 . S
C1177 H1169 0.930 . S
C1177 C1175 1.419 . S
C1177 C1178 1.362 . S
C1178 H1170 0.930 . S
C1178 C1177 1.362 . S
C1178 C1181 1.409 . S
C1179 H1171 0.930 . S
C1179 C1180 1.355 . S
C1179 C1181 1.415 . S
C1180 C1179 1.355 . S
C1180 C1182 1.419 . S
C1181 C1176 1.425 . S
C1181 C1178 1.409 . S
C1181 C1179 1.415 . S
C1182 H1172 0.930 . S
C1182 C1180 1.419 . S
C1182 C1183 1.362 . S
C1183 H1173 0.930 . S
C1183 C1176 1.409 . S
C1183 C1182 1.362 . S
H1184 C1190 0.930 . S
H1185 C1193 0.933 . S
H1186 C1194 0.930 1_556 S
H1187 C1195 0.930 . S
H1188 C1198 0.926 1_556 S
H1189 C1199 0.930 . S
C1190 H1184 0.930 . S
C1190 C1191 1.355 . S
C1190 C1192 1.415 . S
C1191 C1190 1.355 . S
C1191 C1193 1.419 . S
C1192 C1190 1.415 . S
C1192 C1197 1.425 . S
C1192 C1199 1.409 . S
C1193 H1185 0.933 . S
C1193 C1191 1.419 . S
C1193 C1194 1.362 . S
C1194 H1186 0.930 1_554 S
C1194 C1193 1.362 . S
C1194 C1197 1.409 . S
C1195 H1187 0.930 . S
C1195 C1196 1.355 . S
C1195 C1197 1.415 1_556 S
C1196 C1195 1.355 . S
C1196 C1198 1.394 1_556 S
C1197 C1192 1.425 . S
C1197 C1194 1.409 . S
C1197 C1195 1.415 1_554 S
C1198 H1188 0.926 1_554 S
C1198 C1196 1.394 1_554 S
C1198 C1199 1.391 . S
C1199 H1189 0.930 . S
C1199 C1192 1.409 . S
C1199 C1198 1.391 . S
H1200 C1206 0.930 . S
H1201 C1209 0.930 . S
H1202 C1210 0.930 . S
H1203 C1211 0.930 . S
H1204 C1214 0.930 . S
H1205 C1215 0.930 . S
C1206 H1200 0.930 . S
C1206 C1207 1.355 . S
C1206 C1208 1.415 . S
C1207 C1206 1.355 . S
C1207 C1209 1.419 . S
C1208 C1206 1.415 . S
C1208 C1213 1.425 . S
C1208 C1215 1.409 . S
C1209 H1201 0.930 . S
C1209 C1207 1.419 . S
C1209 C1210 1.362 . S
C1210 H1202 0.930 . S
C1210 C1209 1.362 . S
C1210 C1213 1.409 . S
C1211 H1203 0.930 . S
C1211 C1212 1.355 . S
C1211 C1213 1.415 . S
C1212 C1211 1.355 . S
C1212 C1214 1.419 . S
C1213 C1208 1.425 . S
C1213 C1210 1.409 . S
C1213 C1211 1.415 . S
C1214 H1204 0.930 . S
C1214 C1212 1.419 . S
C1214 C1215 1.362 . S
C1215 H1205 0.930 . S
C1215 C1208 1.409 . S
C1215 C1214 1.362 . S
H1216 C1222 0.930 . S
H1217 C1225 0.930 . S
H1218 C1226 0.930 . S
H1219 C1227 0.930 . S
H1220 C1230 0.930 . S
H1221 C1231 0.930 . S
C1222 H1216 0.930 . S
C1222 C1223 1.355 . S
C1222 C1224 1.415 . S
C1223 C1222 1.355 . S
C1223 C1225 1.419 . S
C1224 C1222 1.415 . S
C1224 C1229 1.425 . S
C1224 C1231 1.409 1_565 S
C1225 H1217 0.930 . S
C1225 C1223 1.419 . S
C1225 C1226 1.362 . S
C1226 H1218 0.930 . S
C1226 C1225 1.362 . S
C1226 C1229 1.409 . S
C1227 H1219 0.930 . S
C1227 C1228 1.355 . S
C1227 C1229 1.415 1_545 S
C1228 C1227 1.355 . S
C1228 C1230 1.419 . S
C1229 C1224 1.425 . S
C1229 C1226 1.409 . S
C1229 C1227 1.415 1_565 S
C1230 H1220 0.930 . S
C1230 C1228 1.419 . S
C1230 C1231 1.362 . S
C1231 H1221 0.930 . S
C1231 C1224 1.409 1_545 S
C1231 C1230 1.362 . S
H1232 C1238 0.930 . S
H1233 C1241 0.930 . S
H1234 C1242 0.930 . S
H1235 C1243 0.930 . S
H1236 C1246 0.930 . S
H1237 C1247 0.930 . S
C1238 H1232 0.930 . S
C1238 C1239 1.355 . S
C1238 C1240 1.415 . S
C1239 C1238 1.355 . S
C1239 C1241 1.419 . S
C1240 C1238 1.415 . S
C1240 C1245 1.425 . S
C1240 C1247 1.409 . S
C1241 H1233 0.930 . S
C1241 C1239 1.419 . S
C1241 C1242 1.362 . S
C1242 H1234 0.930 . S
C1242 C1241 1.362 . S
C1242 C1245 1.409 . S
C1243 H1235 0.930 . S
C1243 C1244 1.355 . S
C1243 C1245 1.415 . S
C1244 C1243 1.355 . S
C1244 C1246 1.419 . S
C1245 C1240 1.425 . S
C1245 C1242 1.409 . S
C1245 C1243 1.415 . S
C1246 H1236 0.930 . S
C1246 C1244 1.419 . S
C1246 C1247 1.362 . S
C1247 H1237 0.930 . S
C1247 C1240 1.409 . S
C1247 C1246 1.362 . S
H1248 C1254 0.930 . S
H1249 C1257 0.930 . S
H1250 C1258 0.930 . S
H1251 C1259 0.930 . S
H1252 C1262 0.930 . S
H1253 C1263 0.930 1_545 S
C1254 H1248 0.930 . S
C1254 C1255 1.355 . S
C1254 C1256 1.415 . S
C1255 C1254 1.355 . S
C1255 C1257 1.419 . S
C1256 C1254 1.415 . S
C1256 C1261 1.425 . S
C1256 C1263 1.392 1_545 S
C1257 H1249 0.930 . S
C1257 C1255 1.419 . S
C1257 C1258 1.362 . S
C1258 H1250 0.930 . S
C1258 C1257 1.362 . S
C1258 C1261 1.409 . S
C1259 H1251 0.930 . S
C1259 C1260 1.355 . S
C1259 C1261 1.415 1_565 S
C1260 C1259 1.355 . S
C1260 C1262 1.419 . S
C1261 C1256 1.425 . S
C1261 C1258 1.409 . S
C1261 C1259 1.415 1_545 S
C1262 H1252 0.930 . S
C1262 C1260 1.419 . S
C1262 C1263 1.381 . S
C1263 H1253 0.930 1_565 S
C1263 C1256 1.392 1_565 S
C1263 C1262 1.381 . S
H1264 C1270 0.930 . S
H1265 C1273 0.930 . S
H1266 C1274 0.930 . S
H1267 C1275 0.930 . S
H1268 C1278 0.930 . S
H1269 C1279 0.930 . S
C1270 H1264 0.930 . S
C1270 C1271 1.355 . S
C1270 C1272 1.415 . S
C1271 C1270 1.355 . S
C1271 C1273 1.419 . S
C1272 C1270 1.415 . S
C1272 C1277 1.425 . S
C1272 C1279 1.409 . S
C1273 H1265 0.930 . S
C1273 C1271 1.419 . S
C1273 C1274 1.362 . S
C1274 H1266 0.930 . S
C1274 C1273 1.362 . S
C1274 C1277 1.409 . S
C1275 H1267 0.930 . S
C1275 C1276 1.355 . S
C1275 C1277 1.415 . S
C1276 C1275 1.355 . S
C1276 C1278 1.419 . S
C1277 C1272 1.425 . S
C1277 C1274 1.409 . S
C1277 C1275 1.415 . S
C1278 H1268 0.930 . S
C1278 C1276 1.419 . S
C1278 C1279 1.362 . S
C1279 H1269 0.930 . S
C1279 C1272 1.409 . S
C1279 C1278 1.362 . S
H1280 C1286 0.930 . S
H1281 C1289 0.930 . S
H1282 C1290 0.930 . S
H1283 C1291 0.930 . S
H1284 C1294 0.930 . S
H1285 C1295 0.930 . S
C1286 H1280 0.930 . S
C1286 C1287 1.355 . S
C1286 C1288 1.415 . S
C1287 C1286 1.355 . S
C1287 C1289 1.419 . S
C1288 C1286 1.415 . S
C1288 C1293 1.425 . S
C1288 C1295 1.409 1_565 S
C1289 H1281 0.930 . S
C1289 C1287 1.419 . S
C1289 C1290 1.362 . S
C1290 H1282 0.930 . S
C1290 C1289 1.362 . S
C1290 C1293 1.409 . S
C1291 H1283 0.930 . S
C1291 C1292 1.355 . S
C1291 C1293 1.415 1_545 S
C1292 C1291 1.355 . S
C1292 C1294 1.419 . S
C1293 C1288 1.425 . S
C1293 C1290 1.409 . S
C1293 C1291 1.415 1_565 S
C1294 H1284 0.930 . S
C1294 C1292 1.419 . S
C1294 C1295 1.362 . S
C1295 H1285 0.930 . S
C1295 C1288 1.409 1_545 S
C1295 C1294 1.362 . S
H1296 C1302 0.930 . S
H1297 C1305 0.930 . S
H1298 C1306 0.930 . S
H1299 C1307 0.930 . S
H1300 C1310 0.930 . S
H1301 C1311 0.930 . S
C1302 H1296 0.930 . S
C1302 C1303 1.355 . S
C1302 C1304 1.415 . S
C1303 C1302 1.355 . S
C1303 C1305 1.419 . S
C1304 C1302 1.415 . S
C1304 C1309 1.425 . S
C1304 C1311 1.409 . S
C1305 H1297 0.930 . S
C1305 C1303 1.419 . S
C1305 C1306 1.362 . S
C1306 H1298 0.930 . S
C1306 C1305 1.362 . S
C1306 C1309 1.409 . S
C1307 H1299 0.930 . S
C1307 C1308 1.355 . S
C1307 C1309 1.415 . S
C1308 C1307 1.355 . S
C1308 C1310 1.419 . S
C1309 C1304 1.425 . S
C1309 C1306 1.409 . S
C1309 C1307 1.415 . S
C1310 H1300 0.930 . S
C1310 C1308 1.419 . S
C1310 C1311 1.362 . S
C1311 H1301 0.930 . S
C1311 C1304 1.409 . S
C1311 C1310 1.362 . S
H1312 C1318 0.930 . S
H1313 C1321 0.930 . S
H1314 C1322 0.930 . S
H1315 C1323 0.931 . S
H1316 C1326 0.930 . S
H1317 C1327 0.930 . S
C1318 H1312 0.930 . S
C1318 C1319 1.355 . S
C1318 C1320 1.415 . S
C1319 C1318 1.355 . S
C1319 C1321 1.419 . S
C1320 C1318 1.415 . S
C1320 C1325 1.425 . S
C1320 C1327 1.409 1_545 S
C1321 H1313 0.930 . S
C1321 C1319 1.419 . S
C1321 C1322 1.362 . S
C1322 H1314 0.930 . S
C1322 C1321 1.362 . S
C1322 C1325 1.409 . S
C1323 H1315 0.931 . S
C1323 C1324 1.347 1_545 S
C1323 C1325 1.420 . S
C1324 C1323 1.347 1_565 S
C1324 C1326 1.419 . S
C1325 C1320 1.425 . S
C1325 C1322 1.409 . S
C1325 C1323 1.420 . S
C1326 H1316 0.930 . S
C1326 C1324 1.419 . S
C1326 C1327 1.362 . S
C1327 H1317 0.930 . S
C1327 C1320 1.409 1_565 S
C1327 C1326 1.362 . S
H1328 C1334 0.930 . S
H1329 C1337 0.930 . S
H1330 C1338 0.930 . S
H1331 C1339 0.930 . S
H1332 C1342 0.930 . S
H1333 C1343 0.930 . S
C1334 H1328 0.930 . S
C1334 C1335 1.355 . S
C1334 C1336 1.415 . S
C1335 C1334 1.355 . S
C1335 C1337 1.419 . S
C1336 C1334 1.415 . S
C1336 C1341 1.425 . S
C1336 C1343 1.409 . S
C1337 H1329 0.930 . S
C1337 C1335 1.419 . S
C1337 C1338 1.362 . S
C1338 H1330 0.930 . S
C1338 C1337 1.362 . S
C1338 C1341 1.409 . S
C1339 H1331 0.930 . S
C1339 C1340 1.355 . S
C1339 C1341 1.415 . S
C1340 C1339 1.355 . S
C1340 C1342 1.419 . S
C1341 C1336 1.425 . S
C1341 C1338 1.409 . S
C1341 C1339 1.415 . S
C1342 H1332 0.930 . S
C1342 C1340 1.419 . S
C1342 C1343 1.362 . S
C1343 H1333 0.930 . S
C1343 C1336 1.409 . S
C1343 C1342 1.362 . S
H1344 C1350 0.930 . S
H1345 C1353 0.930 . S
H1346 C1354 0.930 . S
H1347 C1355 0.930 . S
H1348 C1358 0.930 . S
H1349 C1359 0.930 . S
C1350 H1344 0.930 . S
C1350 C1351 1.355 . S
C1350 C1352 1.415 . S
C1351 C1350 1.355 . S
C1351 C1353 1.419 . S
C1352 C1350 1.415 . S
C1352 C1357 1.425 . S
C1352 C1359 1.409 . S
C1353 H1345 0.930 . S
C1353 C1351 1.419 . S
C1353 C1354 1.362 . S
C1354 H1346 0.930 . S
C1354 C1353 1.362 . S
C1354 C1357 1.409 . S
C1355 H1347 0.930 . S
C1355 C1356 1.355 . S
C1355 C1357 1.415 . S
C1356 C1355 1.355 . S
C1356 C1358 1.419 . S
C1357 C1352 1.425 . S
C1357 C1354 1.409 . S
C1357 C1355 1.415 . S
C1358 H1348 0.930 . S
C1358 C1356 1.419 . S
C1358 C1359 1.362 . S
C1359 H1349 0.930 . S
C1359 C1352 1.409 . S
C1359 C1358 1.362 . S
H1360 C1366 0.930 . S
H1361 C1369 0.930 . S
H1362 C1370 0.930 . S
H1363 C1371 0.930 1_655 S
H1364 C1374 0.930 . S
H1365 C1375 0.930 . S
C1366 H1360 0.930 . S
C1366 C1367 1.355 . S
C1366 C1368 1.415 . S
C1367 C1366 1.355 . S
C1367 C1369 1.419 . S
C1368 C1366 1.415 . S
C1368 C1373 1.425 . S
C1368 C1375 1.409 1_655 S
C1369 H1361 0.930 . S
C1369 C1367 1.419 . S
C1369 C1370 1.362 . S
C1370 H1362 0.930 . S
C1370 C1369 1.362 . S
C1370 C1373 1.409 . S
C1371 H1363 0.930 1_455 S
C1371 C1372 1.355 . S
C1371 C1373 1.415 1_455 S
C1372 C1371 1.355 . S
C1372 C1374 1.419 . S
C1373 C1368 1.425 . S
C1373 C1370 1.409 . S
C1373 C1371 1.415 1_655 S
C1374 H1364 0.930 . S
C1374 C1372 1.419 . S
C1374 C1375 1.362 . S
C1375 H1365 0.930 . S
C1375 C1368 1.409 1_455 S
C1375 C1374 1.362 . S
H1376 C1382 0.930 . S
H1377 C1385 0.930 . S
H1378 C1386 0.930 . S
H1379 C1387 0.930 . S
H1380 C1390 0.930 . S
H1381 C1391 0.930 . S
C1382 H1376 0.930 . S
C1382 C1383 1.355 . S
C1382 C1384 1.415 . S
C1383 C1382 1.355 . S
C1383 C1385 1.419 . S
C1384 C1382 1.415 . S
C1384 C1389 1.425 . S
C1384 C1391 1.409 . S
C1385 H1377 0.930 . S
C1385 C1383 1.419 . S
C1385 C1386 1.362 . S
C1386 H1378 0.930 . S
C1386 C1385 1.362 . S
C1386 C1389 1.409 . S
C1387 H1379 0.930 . S
C1387 C1388 1.355 . S
C1387 C1389 1.415 . S
C1388 C1387 1.355 . S
C1388 C1390 1.419 . S
C1389 C1384 1.425 . S
C1389 C1386 1.409 . S
C1389 C1387 1.415 . S
C1390 H1380 0.930 . S
C1390 C1388 1.419 . S
C1390 C1391 1.362 . S
C1391 H1381 0.930 . S
C1391 C1384 1.409 . S
C1391 C1390 1.362 . S
H1392 C1398 0.930 . S
H1393 C1401 0.930 . S
H1394 C1402 0.930 . S
H1395 C1403 0.930 . S
H1396 C1406 0.930 . S
H1397 C1407 0.930 . S
C1398 H1392 0.930 . S
C1398 C1399 1.355 . S
C1398 C1400 1.415 . S
C1399 C1398 1.355 . S
C1399 C1401 1.419 . S
C1400 C1398 1.415 . S
C1400 C1405 1.425 . S
C1400 C1407 1.409 1_455 S
C1401 H1393 0.930 . S
C1401 C1399 1.419 . S
C1401 C1402 1.362 . S
C1402 H1394 0.930 . S
C1402 C1401 1.362 . S
C1402 C1405 1.409 . S
C1403 H1395 0.930 . S
C1403 C1404 1.355 1_455 S
C1403 C1405 1.415 . S
C1404 C1403 1.355 1_655 S
C1404 C1406 1.419 . S
C1405 C1400 1.425 . S
C1405 C1402 1.409 . S
C1405 C1403 1.415 . S
C1406 H1396 0.930 . S
C1406 C1404 1.419 . S
C1406 C1407 1.362 . S
C1407 H1397 0.930 . S
C1407 C1400 1.409 1_655 S
C1407 C1406 1.362 . S
H1408 C1414 0.930 . S
H1409 C1417 0.930 . S
H1410 C1418 0.930 . S
H1411 C1419 0.930 . S
H1412 C1422 0.930 . S
H1413 C1423 0.930 . S
C1414 H1408 0.930 . S
C1414 C1415 1.355 . S
C1414 C1416 1.415 . S
C1415 C1414 1.355 . S
C1415 C1417 1.419 . S
C1416 C1414 1.415 . S
C1416 C1421 1.425 . S
C1416 C1423 1.409 . S
C1417 H1409 0.930 . S
C1417 C1415 1.419 . S
C1417 C1418 1.362 . S
C1418 H1410 0.930 . S
C1418 C1417 1.362 . S
C1418 C1421 1.409 . S
C1419 H1411 0.930 . S
C1419 C1420 1.355 . S
C1419 C1421 1.415 . S
C1420 C1419 1.355 . S
C1420 C1422 1.419 . S
C1421 C1416 1.425 . S
C1421 C1418 1.409 . S
C1421 C1419 1.415 . S
C1422 H1412 0.930 . S
C1422 C1420 1.419 . S
C1422 C1423 1.362 . S
C1423 H1413 0.930 . S
C1423 C1416 1.409 . S
C1423 C1422 1.362 . S
H1424 C1430 0.930 . S
H1425 C1433 0.930 . S
H1426 C1434 0.930 1_455 S
H1427 C1435 0.930 . S
H1428 C1438 0.930 . S
H1429 C1439 0.930 . S
C1430 H1424 0.930 . S
C1430 C1431 1.355 . S
C1430 C1432 1.415 . S
C1431 C1430 1.355 . S
C1431 C1433 1.419 . S
C1432 C1430 1.415 . S
C1432 C1437 1.425 . S
C1432 C1439 1.409 . S
C1433 H1425 0.930 . S
C1433 C1431 1.419 . S
C1433 C1434 1.362 . S
C1434 H1426 0.930 1_655 S
C1434 C1433 1.362 . S
C1434 C1437 1.409 . S
C1435 H1427 0.930 . S
C1435 C1436 1.355 . S
C1435 C1437 1.415 1_455 S
C1436 C1435 1.355 . S
C1436 C1438 1.419 . S
C1437 C1432 1.425 . S
C1437 C1434 1.409 . S
C1437 C1435 1.415 1_655 S
C1438 H1428 0.930 . S
C1438 C1436 1.419 . S
C1438 C1439 1.362 1_455 S
C1439 H1429 0.930 . S
C1439 C1432 1.409 . S
C1439 C1438 1.362 1_655 S
H1440 C1446 0.930 . S
H1441 C1449 0.930 . S
H1442 C1450 0.930 . S
H1443 C1451 0.930 . S
H1444 C1454 0.930 . S
H1445 C1455 0.930 . S
C1446 H1440 0.930 . S
C1446 C1447 1.355 . S
C1446 C1448 1.415 . S
C1447 C1446 1.355 . S
C1447 C1449 1.419 . S
C1448 C1446 1.415 . S
C1448 C1453 1.425 . S
C1448 C1455 1.409 . S
C1449 H1441 0.930 . S
C1449 C1447 1.419 . S
C1449 C1450 1.362 . S
C1450 H1442 0.930 . S
C1450 C1449 1.362 . S
C1450 C1453 1.409 . S
C1451 H1443 0.930 . S
C1451 C1452 1.355 . S
C1451 C1453 1.415 . S
C1452 C1451 1.355 . S
C1452 C1454 1.419 . S
C1453 C1448 1.425 . S
C1453 C1450 1.409 . S
C1453 C1451 1.415 . S
C1454 H1444 0.930 . S
C1454 C1452 1.419 . S
C1454 C1455 1.362 . S
C1455 H1445 0.930 . S
C1455 C1448 1.409 . S
C1455 C1454 1.362 . S
H1456 C1462 0.930 . S
H1457 C1465 0.930 . S
H1458 C1466 0.930 . S
H1459 C1467 0.930 . S
H1460 C1470 0.930 . S
H1461 C1471 0.930 . S
C1462 H1456 0.930 . S
C1462 C1463 1.355 . S
C1462 C1464 1.415 . S
C1463 C1462 1.355 . S
C1463 C1465 1.419 . S
C1464 C1462 1.415 . S
C1464 C1469 1.425 . S
C1464 C1471 1.409 . S
C1465 H1457 0.930 . S
C1465 C1463 1.419 . S
C1465 C1466 1.362 . S
C1466 H1458 0.930 . S
C1466 C1465 1.362 . S
C1466 C1469 1.409 . S
C1467 H1459 0.930 . S
C1467 C1468 1.355 . S
C1467 C1469 1.415 . S
C1468 C1467 1.355 . S
C1468 C1470 1.419 . S
C1469 C1464 1.425 . S
C1469 C1466 1.409 . S
C1469 C1467 1.415 . S
C1470 H1460 0.930 . S
C1470 C1468 1.419 . S
C1470 C1471 1.362 . S
C1471 H1461 0.930 . S
C1471 C1464 1.409 . S
C1471 C1470 1.362 . S
H1472 C1478 0.930 . S
H1473 C1481 0.930 . S
H1474 C1482 0.930 . S
H1475 C1483 0.930 . S
H1476 C1486 0.930 . S
H1477 C1487 0.930 . S
C1478 H1472 0.930 . S
C1478 C1479 1.355 . S
C1478 C1480 1.415 . S
C1479 C1478 1.355 . S
C1479 C1481 1.419 . S
C1480 C1478 1.415 . S
C1480 C1485 1.425 . S
C1480 C1487 1.409 . S
C1481 H1473 0.930 . S
C1481 C1479 1.419 . S
C1481 C1482 1.362 . S
C1482 H1474 0.930 . S
C1482 C1481 1.362 . S
C1482 C1485 1.409 . S
C1483 H1475 0.930 . S
C1483 C1484 1.355 . S
C1483 C1485 1.415 1_556 S
C1484 C1483 1.355 . S
C1484 C1486 1.419 . S
C1485 C1480 1.425 . S
C1485 C1482 1.409 . S
C1485 C1483 1.415 1_554 S
C1486 H1476 0.930 . S
C1486 C1484 1.419 . S
C1486 C1487 1.362 1_556 S
C1487 H1477 0.930 . S
C1487 C1480 1.409 . S
C1487 C1486 1.362 1_554 S
H1488 C1494 0.930 . S
H1489 C1497 0.930 . S
H1490 C1498 0.930 . S
H1491 C1499 0.930 . S
H1492 C1502 0.930 . S
H1493 C1503 0.930 . S
C1494 H1488 0.930 . S
C1494 C1495 1.355 . S
C1494 C1496 1.415 . S
C1495 C1494 1.355 . S
C1495 C1497 1.419 . S
C1496 C1494 1.415 . S
C1496 C1501 1.425 . S
C1496 C1503 1.409 . S
C1497 H1489 0.930 . S
C1497 C1495 1.419 . S
C1497 C1498 1.362 . S
C1498 H1490 0.930 . S
C1498 C1497 1.362 . S
C1498 C1501 1.409 . S
C1499 H1491 0.930 . S
C1499 C1500 1.355 . S
C1499 C1501 1.415 . S
C1500 C1499 1.355 . S
C1500 C1502 1.419 . S
C1501 C1496 1.425 . S
C1501 C1498 1.409 . S
C1501 C1499 1.415 . S
C1502 H1492 0.930 . S
C1502 C1500 1.419 . S
C1502 C1503 1.362 . S
C1503 H1493 0.930 . S
C1503 C1496 1.409 . S
C1503 C1502 1.362 . S
H1504 C1510 0.930 . S
H1505 C1513 0.930 . S
H1506 C1514 0.930 . S
H1507 C1515 0.930 . S
H1508 C1518 0.930 . S
H1509 C1519 0.930 . S
C1510 H1504 0.930 . S
C1510 C1511 1.355 . S
C1510 C1512 1.415 . S
C1511 C1510 1.355 . S
C1511 C1513 1.419 . S
C1512 C1510 1.415 . S
C1512 C1517 1.425 . S
C1512 C1519 1.409 . S
C1513 H1505 0.930 . S
C1513 C1511 1.419 . S
C1513 C1514 1.362 . S
C1514 H1506 0.930 . S
C1514 C1513 1.362 . S
C1514 C1517 1.409 . S
C1515 H1507 0.930 . S
C1515 C1516 1.355 . S
C1515 C1517 1.415 . S
C1516 C1515 1.355 . S
C1516 C1518 1.419 . S
C1517 C1512 1.425 . S
C1517 C1514 1.409 . S
C1517 C1515 1.415 . S
C1518 H1508 0.930 . S
C1518 C1516 1.419 . S
C1518 C1519 1.362 . S
C1519 H1509 0.930 . S
C1519 C1512 1.409 . S
C1519 C1518 1.362 . S
H1520 C1526 0.930 . S
H1521 C1529 0.930 . S
H1522 C1530 0.930 . S
H1523 C1531 0.930 . S
H1524 C1534 0.930 . S
H1525 C1535 0.930 . S
C1526 H1520 0.930 . S
C1526 C1527 1.355 . S
C1526 C1528 1.415 . S
C1527 C1526 1.355 . S
C1527 C1529 1.419 . S
C1528 C1526 1.415 . S
C1528 C1533 1.425 . S
C1528 C1535 1.409 . S
C1529 H1521 0.930 . S
C1529 C1527 1.419 . S
C1529 C1530 1.362 . S
C1530 H1522 0.930 . S
C1530 C1529 1.362 . S
C1530 C1533 1.409 . S
C1531 H1523 0.930 . S
C1531 C1532 1.355 . S
C1531 C1533 1.415 . S
C1532 C1531 1.355 . S
C1532 C1534 1.419 . S
C1533 C1528 1.425 . S
C1533 C1530 1.409 . S
C1533 C1531 1.415 . S
C1534 H1524 0.930 . S
C1534 C1532 1.419 . S
C1534 C1535 1.362 . S
C1535 H1525 0.930 . S
C1535 C1528 1.409 . S
C1535 C1534 1.362 . S
H1536 C1542 0.930 . S
H1537 C1545 0.930 . S
H1538 C1546 0.930 . S
H1539 C1547 0.930 . S
H1540 C1550 0.930 . S
H1541 C1551 0.930 . S
C1542 H1536 0.930 . S
C1542 C1543 1.355 . S
C1542 C1544 1.415 . S
C1543 C1542 1.355 . S
C1543 C1545 1.419 . S
C1544 C1542 1.415 . S
C1544 C1549 1.425 . S
C1544 C1551 1.409 . S
C1545 H1537 0.930 . S
C1545 C1543 1.419 . S
C1545 C1546 1.362 . S
C1546 H1538 0.930 . S
C1546 C1545 1.362 . S
C1546 C1549 1.409 . S
C1547 H1539 0.930 . S
C1547 C1548 1.355 . S
C1547 C1549 1.415 1_554 S
C1548 C1547 1.355 . S
C1548 C1550 1.419 . S
C1549 C1544 1.425 . S
C1549 C1546 1.409 . S
C1549 C1547 1.415 1_556 S
C1550 H1540 0.930 . S
C1550 C1548 1.419 . S
C1550 C1551 1.362 1_554 S
C1551 H1541 0.930 . S
C1551 C1544 1.409 . S
C1551 C1550 1.362 1_556 S
H1552 C1558 0.930 . S
H1553 C1561 0.930 . S
H1554 C1562 0.930 . S
H1555 C1563 0.930 . S
H1556 C1566 0.930 . S
H1557 C1567 0.930 . S
C1558 H1552 0.930 . S
C1558 C1559 1.355 . S
C1558 C1560 1.415 . S
C1559 C1558 1.355 . S
C1559 C1561 1.419 . S
C1560 C1558 1.415 . S
C1560 C1565 1.425 . S
C1560 C1567 1.409 . S
C1561 H1553 0.930 . S
C1561 C1559 1.419 . S
C1561 C1562 1.362 . S
C1562 H1554 0.930 . S
C1562 C1561 1.362 . S
C1562 C1565 1.409 . S
C1563 H1555 0.930 . S
C1563 C1564 1.355 . S
C1563 C1565 1.415 . S
C1564 C1563 1.355 . S
C1564 C1566 1.419 . S
C1565 C1560 1.425 . S
C1565 C1562 1.409 . S
C1565 C1563 1.415 . S
C1566 H1556 0.930 . S
C1566 C1564 1.419 . S
C1566 C1567 1.362 . S
C1567 H1557 0.930 . S
C1567 C1560 1.409 . S
C1567 C1566 1.362 . S
H1568 C1574 0.930 . S
H1569 C1577 0.930 . S
H1570 C1578 0.930 . S
H1571 C1579 0.930 . S
H1572 C1582 0.930 . S
H1573 C1583 0.930 . S
C1574 H1568 0.930 . S
C1574 C1575 1.355 . S
C1574 C1576 1.415 . S
C1575 C1574 1.355 . S
C1575 C1577 1.419 . S
C1576 C1574 1.415 . S
C1576 C1581 1.425 . S
C1576 C1583 1.409 . S
C1577 H1569 0.930 . S
C1577 C1575 1.419 . S
C1577 C1578 1.362 . S
C1578 H1570 0.930 . S
C1578 C1577 1.362 . S
C1578 C1581 1.409 . S
C1579 H1571 0.930 . S
C1579 C1580 1.355 . S
C1579 C1581 1.415 . S
C1580 C1579 1.355 . S
C1580 C1582 1.419 . S
C1581 C1576 1.425 . S
C1581 C1578 1.409 . S
C1581 C1579 1.415 . S
C1582 H1572 0.930 . S
C1582 C1580 1.419 . S
C1582 C1583 1.362 . S
C1583 H1573 0.930 . S
C1583 C1576 1.409 . S
C1583 C1582 1.362 . S
H1584 C1590 0.930 . S
H1585 C1593 0.930 . S
H1586 C1594 0.930 . S
H1587 C1595 0.930 . S
H1588 C1598 0.930 . S
H1589 C1599 0.930 . S
C1590 H1584 0.930 . S
C1590 C1591 1.355 . S
C1590 C1592 1.415 . S
C1591 C1590 1.355 . S
C1591 C1593 1.419 . S
C1592 C1590 1.415 . S
C1592 C1597 1.425 . S
C1592 C1599 1.409 . S
C1593 H1585 0.930 . S
C1593 C1591 1.419 . S
C1593 C1594 1.362 . S
C1594 H1586 0.930 . S
C1594 C1593 1.362 . S
C1594 C1597 1.409 . S
C1595 H1587 0.930 . S
C1595 C1596 1.355 . S
C1595 C1597 1.415 . S
C1596 C1595 1.355 . S
C1596 C1598 1.419 . S
C1597 C1592 1.425 . S
C1597 C1594 1.409 . S
C1597 C1595 1.415 . S
C1598 H1588 0.930 . S
C1598 C1596 1.419 . S
C1598 C1599 1.362 . S
C1599 H1589 0.930 . S
C1599 C1592 1.409 . S
C1599 C1598 1.362 . S
H1600 C1606 0.930 . S
H1601 C1609 0.930 . S
H1602 C1610 0.930 . S
H1603 C1611 0.930 . S
H1604 C1614 0.930 . S
H1605 C1615 0.930 . S
C1606 H1600 0.930 . S
C1606 C1607 1.355 . S
C1606 C1608 1.415 . S
C1607 C1606 1.355 . S
C1607 C1609 1.419 . S
C1608 C1606 1.415 . S
C1608 C1613 1.425 . S
C1608 C1615 1.409 . S
C1609 H1601 0.930 . S
C1609 C1607 1.419 . S
C1609 C1610 1.362 . S
C1610 H1602 0.930 . S
C1610 C1609 1.362 . S
C1610 C1613 1.409 . S
C1611 H1603 0.930 . S
C1611 C1612 1.355 . S
C1611 C1613 1.415 . S
C1612 C1611 1.355 . S
C1612 C1614 1.419 . S
C1613 C1608 1.425 . S
C1613 C1610 1.409 . S
C1613 C1611 1.415 . S
C1614 H1604 0.930 . S
C1614 C1612 1.419 . S
C1614 C1615 1.362 . S
C1615 H1605 0.930 . S
C1615 C1608 1.409 . S
C1615 C1614 1.362 . S
H1616 C1622 0.930 . S
H1617 C1625 0.930 . S
H1618 C1626 0.930 . S
H1619 C1627 0.930 . S
H1620 C1630 0.930 . S
H1621 C1631 0.930 . S
C1622 H1616 0.930 . S
C1622 C1623 1.355 . S
C1622 C1624 1.415 . S
C1623 C1622 1.355 . S
C1623 C1625 1.419 . S
C1624 C1622 1.415 . S
C1624 C1629 1.425 . S
C1624 C1631 1.409 . S
C1625 H1617 0.930 . S
C1625 C1623 1.419 . S
C1625 C1626 1.362 . S
C1626 H1618 0.930 . S
C1626 C1625 1.362 . S
C1626 C1629 1.409 . S
C1627 H1619 0.930 . S
C1627 C1628 1.355 . S
C1627 C1629 1.415 . S
C1628 C1627 1.355 . S
C1628 C1630 1.419 . S
C1629 C1624 1.425 . S
C1629 C1626 1.409 . S
C1629 C1627 1.415 . S
C1630 H1620 0.930 . S
C1630 C1628 1.419 . S
C1630 C1631 1.362 . S
C1631 H1621 0.930 . S
C1631 C1624 1.409 . S
C1631 C1630 1.362 . S
H1632 C1638 0.930 . S
H1633 C1641 0.930 . S
H1634 C1642 0.930 . S
H1635 C1643 0.930 . S
H1636 C1646 0.930 . S
H1637 C1647 0.930 . S
C1638 H1632 0.930 . S
C1638 C1639 1.355 . S
C1638 C1640 1.415 . S
C1639 C1638 1.355 . S
C1639 C1641 1.419 . S
C1640 C1638 1.415 . S
C1640 C1645 1.425 . S
C1640 C1647 1.409 . S
C1641 H1633 0.930 . S
C1641 C1639 1.419 . S
C1641 C1642 1.362 . S
C1642 H1634 0.930 . S
C1642 C1641 1.362 . S
C1642 C1645 1.409 . S
C1643 H1635 0.930 . S
C1643 C1644 1.355 . S
C1643 C1645 1.415 . S
C1644 C1643 1.355 . S
C1644 C1646 1.419 . S
C1645 C1640 1.425 . S
C1645 C1642 1.409 . S
C1645 C1643 1.415 . S
C1646 H1636 0.930 . S
C1646 C1644 1.419 . S
C1646 C1647 1.362 . S
C1647 H1637 0.930 . S
C1647 C1640 1.409 . S
C1647 C1646 1.362 . S
H1648 C1654 0.930 . S
H1649 C1657 0.930 . S
H1650 C1658 0.930 . S
H1651 C1659 0.930 . S
H1652 C1662 0.930 . S
H1653 C1663 0.930 . S
C1654 H1648 0.930 . S
C1654 C1655 1.355 . S
C1654 C1656 1.415 . S
C1655 C1654 1.355 . S
C1655 C1657 1.419 . S
C1656 C1654 1.415 . S
C1656 C1661 1.425 . S
C1656 C1663 1.409 . S
C1657 H1649 0.930 . S
C1657 C1655 1.419 . S
C1657 C1658 1.362 . S
C1658 H1650 0.930 . S
C1658 C1657 1.362 . S
C1658 C1661 1.409 . S
C1659 H1651 0.930 . S
C1659 C1660 1.355 . S
C1659 C1661 1.415 . S
C1660 C1659 1.355 . S
C1660 C1662 1.419 . S
C1661 C1656 1.425 . S
C1661 C1658 1.409 . S
C1661 C1659 1.415 . S
C1662 H1652 0.930 . S
C1662 C1660 1.419 . S
C1662 C1663 1.362 . S
C1663 H1653 0.930 . S
C1663 C1656 1.409 . S
C1663 C1662 1.362 . S
H1664 C1670 0.930 . S
H1665 C1673 0.930 . S
H1666 C1674 0.930 . S
H1667 C1675 0.930 . S
H1668 C1678 0.930 . S
H1669 C1679 0.930 . S
C1670 H1664 0.930 . S
C1670 C1671 1.355 . S
C1670 C1672 1.415 . S
C1671 C1670 1.355 . S
C1671 C1673 1.419 . S
C1672 C1670 1.415 . S
C1672 C1677 1.425 . S
C1672 C1679 1.409 . S
C1673 H1665 0.930 . S
C1673 C1671 1.419 . S
C1673 C1674 1.362 . S
C1674 H1666 0.930 . S
C1674 C1673 1.362 . S
C1674 C1677 1.409 . S
C1675 H1667 0.930 . S
C1675 C1676 1.355 . S
C1675 C1677 1.415 . S
C1676 C1675 1.355 . S
C1676 C1678 1.419 . S
C1677 C1672 1.425 . S
C1677 C1674 1.409 . S
C1677 C1675 1.415 . S
C1678 H1668 0.930 . S
C1678 C1676 1.419 . S
C1678 C1679 1.362 . S
C1679 H1669 0.930 . S
C1679 C1672 1.409 . S
C1679 C1678 1.362 . S
H1680 C1686 0.930 . S
H1681 C1689 0.930 . S
H1682 C1690 0.930 . S
H1683 C1691 0.930 . S
H1684 C1694 0.930 . S
H1685 C1695 0.930 . S
C1686 H1680 0.930 . S
C1686 C1687 1.355 . S
C1686 C1688 1.415 . S
C1687 C1686 1.355 . S
C1687 C1689 1.419 . S
C1688 C1686 1.415 . S
C1688 C1693 1.425 . S
C1688 C1695 1.409 . S
C1689 H1681 0.930 . S
C1689 C1687 1.419 . S
C1689 C1690 1.362 . S
C1690 H1682 0.930 . S
C1690 C1689 1.362 . S
C1690 C1693 1.409 . S
C1691 H1683 0.930 . S
C1691 C1692 1.355 . S
C1691 C1693 1.415 . S
C1692 C1691 1.355 . S
C1692 C1694 1.419 . S
C1693 C1688 1.425 . S
C1693 C1690 1.409 . S
C1693 C1691 1.415 . S
C1694 H1684 0.930 . S
C1694 C1692 1.419 . S
C1694 C1695 1.362 . S
C1695 H1685 0.930 . S
C1695 C1688 1.409 . S
C1695 C1694 1.362 . S
H1696 C1702 0.930 . S
H1697 C1705 0.930 . S
H1698 C1706 0.930 . S
H1699 C1707 0.930 . S
H1700 C1710 0.930 . S
H1701 C1711 0.930 . S
C1702 H1696 0.930 . S
C1702 C1703 1.355 . S
C1702 C1704 1.415 . S
C1703 C1702 1.355 . S
C1703 C1705 1.419 . S
C1704 C1702 1.415 . S
C1704 C1709 1.425 . S
C1704 C1711 1.409 . S
C1705 H1697 0.930 . S
C1705 C1703 1.419 . S
C1705 C1706 1.362 . S
C1706 H1698 0.930 . S
C1706 C1705 1.362 . S
C1706 C1709 1.409 . S
C1707 H1699 0.930 . S
C1707 C1708 1.355 . S
C1707 C1709 1.415 . S
C1708 C1707 1.355 . S
C1708 C1710 1.419 . S
C1709 C1704 1.425 . S
C1709 C1706 1.409 . S
C1709 C1707 1.415 . S
C1710 H1700 0.930 . S
C1710 C1708 1.419 . S
C1710 C1711 1.362 . S
C1711 H1701 0.930 . S
C1711 C1704 1.409 . S
C1711 C1710 1.362 . S
H1712 C1718 0.930 . S
H1713 C1721 0.930 . S
H1714 C1722 0.930 . S
H1715 C1723 0.930 . S
H1716 C1726 0.930 . S
H1717 C1727 0.930 . S
C1718 H1712 0.930 . S
C1718 C1719 1.355 . S
C1718 C1720 1.415 . S
C1719 C1718 1.355 . S
C1719 C1721 1.419 . S
C1720 C1718 1.415 . S
C1720 C1725 1.425 . S
C1720 C1727 1.409 . S
C1721 H1713 0.930 . S
C1721 C1719 1.419 . S
C1721 C1722 1.362 . S
C1722 H1714 0.930 . S
C1722 C1721 1.362 . S
C1722 C1725 1.409 . S
C1723 H1715 0.930 . S
C1723 C1724 1.355 . S
C1723 C1725 1.415 . S
C1724 C1723 1.355 . S
C1724 C1726 1.419 . S
C1725 C1720 1.425 . S
C1725 C1722 1.409 . S
C1725 C1723 1.415 . S
C1726 H1716 0.930 . S
C1726 C1724 1.419 . S
C1726 C1727 1.362 . S
C1727 H1717 0.930 . S
C1727 C1720 1.409 . S
C1727 C1726 1.362 . S
H1728 C1734 0.930 . S
H1729 C1737 0.930 . S
H1730 C1738 0.930 . S
H1731 C1739 0.930 . S
H1732 C1742 0.930 . S
H1733 C1743 0.930 . S
C1734 H1728 0.930 . S
C1734 C1735 1.355 . S
C1734 C1736 1.415 . S
C1735 C1734 1.355 . S
C1735 C1737 1.419 . S
C1736 C1734 1.415 . S
C1736 C1741 1.425 . S
C1736 C1743 1.409 . S
C1737 H1729 0.930 . S
C1737 C1735 1.419 . S
C1737 C1738 1.362 . S
C1738 H1730 0.930 . S
C1738 C1737 1.362 . S
C1738 C1741 1.409 . S
C1739 H1731 0.930 . S
C1739 C1740 1.355 . S
C1739 C1741 1.415 . S
C1740 C1739 1.355 . S
C1740 C1742 1.419 . S
C1741 C1736 1.425 . S
C1741 C1738 1.409 . S
C1741 C1739 1.415 . S
C1742 H1732 0.930 . S
C1742 C1740 1.419 . S
C1742 C1743 1.362 . S
C1743 H1733 0.930 . S
C1743 C1736 1.409 . S
C1743 C1742 1.362 . S
H1744 C1750 0.930 . S
H1745 C1753 0.930 . S
H1746 C1754 0.930 . S
H1747 C1755 0.930 . S
H1748 C1758 0.930 . S
H1749 C1759 0.930 . S
C1750 H1744 0.930 . S
C1750 C1751 1.355 . S
C1750 C1752 1.415 . S
C1751 C1750 1.355 . S
C1751 C1753 1.419 . S
C1752 C1750 1.415 . S
C1752 C1757 1.425 . S
C1752 C1759 1.409 . S
C1753 H1745 0.930 . S
C1753 C1751 1.419 . S
C1753 C1754 1.362 . S
C1754 H1746 0.930 . S
C1754 C1753 1.362 . S
C1754 C1757 1.409 . S
C1755 H1747 0.930 . S
C1755 C1756 1.355 . S
C1755 C1757 1.415 . S
C1756 C1755 1.355 . S
C1756 C1758 1.419 . S
C1757 C1752 1.425 . S
C1757 C1754 1.409 . S
C1757 C1755 1.415 . S
C1758 H1748 0.930 . S
C1758 C1756 1.419 . S
C1758 C1759 1.362 . S
C1759 H1749 0.930 . S
C1759 C1752 1.409 . S
C1759 C1758 1.362 . S
H1760 C1766 0.930 . S
H1761 C1769 0.930 . S
H1762 C1770 0.930 . S
H1763 C1771 0.930 . S
H1764 C1774 0.930 . S
H1765 C1775 0.930 . S
C1766 H1760 0.930 . S
C1766 C1767 1.355 . S
C1766 C1768 1.415 . S
C1767 C1766 1.355 . S
C1767 C1769 1.419 . S
C1768 C1766 1.415 . S
C1768 C1773 1.425 . S
C1768 C1775 1.409 . S
C1769 H1761 0.930 . S
C1769 C1767 1.419 . S
C1769 C1770 1.362 . S
C1770 H1762 0.930 . S
C1770 C1769 1.362 . S
C1770 C1773 1.409 . S
C1771 H1763 0.930 . S
C1771 C1772 1.355 . S
C1771 C1773 1.415 . S
C1772 C1771 1.355 . S
C1772 C1774 1.419 . S
C1773 C1768 1.425 . S
C1773 C1770 1.409 . S
C1773 C1771 1.415 . S
C1774 H1764 0.930 . S
C1774 C1772 1.419 . S
C1774 C1775 1.362 . S
C1775 H1765 0.930 . S
C1775 C1768 1.409 . S
C1775 C1774 1.362 . S
H1776 C1782 0.930 . S
H1777 C1785 0.930 . S
H1778 C1786 0.930 . S
H1779 C1787 0.930 . S
H1780 C1790 0.930 . S
H1781 C1791 0.930 . S
C1782 H1776 0.930 . S
C1782 C1783 1.355 . S
C1782 C1784 1.415 . S
C1783 C1782 1.355 . S
C1783 C1785 1.419 . S
C1784 C1782 1.415 . S
C1784 C1789 1.425 . S
C1784 C1791 1.409 . S
C1785 H1777 0.930 . S
C1785 C1783 1.419 . S
C1785 C1786 1.362 . S
C1786 H1778 0.930 . S
C1786 C1785 1.362 . S
C1786 C1789 1.409 . S
C1787 H1779 0.930 . S
C1787 C1788 1.355 . S
C1787 C1789 1.415 . S
C1788 C1787 1.355 . S
C1788 C1790 1.419 . S
C1789 C1784 1.425 . S
C1789 C1786 1.409 . S
C1789 C1787 1.415 . S
C1790 H1780 0.930 . S
C1790 C1788 1.419 . S
C1790 C1791 1.362 . S
C1791 H1781 0.930 . S
C1791 C1784 1.409 . S
C1791 C1790 1.362 . S
H1792 C1798 0.930 . S
H1793 C1801 0.930 . S
H1794 C1802 0.930 . S
H1795 C1803 0.930 . S
H1796 C1806 0.930 . S
H1797 C1807 0.930 . S
C1798 H1792 0.930 . S
C1798 C1799 1.355 . S
C1798 C1800 1.415 . S
C1799 C1798 1.355 . S
C1799 C1801 1.419 . S
C1800 C1798 1.415 . S
C1800 C1805 1.425 . S
C1800 C1807 1.409 . S
C1801 H1793 0.930 . S
C1801 C1799 1.419 . S
C1801 C1802 1.362 . S
C1802 H1794 0.930 . S
C1802 C1801 1.362 . S
C1802 C1805 1.409 . S
C1803 H1795 0.930 . S
C1803 C1804 1.355 . S
C1803 C1805 1.415 . S
C1804 C1803 1.355 . S
C1804 C1806 1.419 . S
C1805 C1800 1.425 . S
C1805 C1802 1.409 . S
C1805 C1803 1.415 . S
C1806 H1796 0.930 . S
C1806 C1804 1.419 . S
C1806 C1807 1.362 . S
C1807 H1797 0.930 . S
C1807 C1800 1.409 . S
C1807 C1806 1.362 . S
H1808 C1814 0.930 . S
H1809 C1817 0.930 . S
H1810 C1818 0.930 . S
H1811 C1819 0.930 . S
H1812 C1822 0.930 . S
H1813 C1823 0.930 . S
C1814 H1808 0.930 . S
C1814 C1815 1.355 . S
C1814 C1816 1.415 . S
C1815 C1814 1.355 . S
C1815 C1817 1.419 . S
C1816 C1814 1.415 . S
C1816 C1821 1.425 . S
C1816 C1823 1.409 . S
C1817 H1809 0.930 . S
C1817 C1815 1.419 . S
C1817 C1818 1.362 . S
C1818 H1810 0.930 . S
C1818 C1817 1.362 . S
C1818 C1821 1.409 . S
C1819 H1811 0.930 . S
C1819 C1820 1.355 . S
C1819 C1821 1.415 . S
C1820 C1819 1.355 . S
C1820 C1822 1.419 . S
C1821 C1816 1.425 . S
C1821 C1818 1.409 . S
C1821 C1819 1.415 . S
C1822 H1812 0.930 . S
C1822 C1820 1.419 . S
C1822 C1823 1.362 . S
C1823 H1813 0.930 . S
C1823 C1816 1.409 . S
C1823 C1822 1.362 . S
H1824 C1830 0.930 . S
H1825 C1833 0.930 . S
H1826 C1834 0.930 1_455 S
H1827 C1835 0.930 . S
H1828 C1838 0.930 . S
H1829 C1839 0.930 . S
C1830 H1824 0.930 . S
C1830 C1831 1.355 . S
C1830 C1832 1.415 . S
C1831 C1830 1.355 . S
C1831 C1833 1.419 . S
C1832 C1830 1.415 . S
C1832 C1837 1.425 . S
C1832 C1839 1.409 . S
C1833 H1825 0.930 . S
C1833 C1831 1.419 . S
C1833 C1834 1.362 . S
C1834 H1826 0.930 1_655 S
C1834 C1833 1.362 . S
C1834 C1837 1.409 . S
C1835 H1827 0.930 . S
C1835 C1836 1.355 . S
C1835 C1837 1.415 1_455 S
C1836 C1835 1.355 . S
C1836 C1838 1.419 . S
C1837 C1832 1.425 . S
C1837 C1834 1.409 . S
C1837 C1835 1.415 1_655 S
C1838 H1828 0.930 . S
C1838 C1836 1.419 . S
C1838 C1839 1.362 1_455 S
C1839 H1829 0.930 . S
C1839 C1832 1.409 . S
C1839 C1838 1.362 1_655 S
H1840 C1846 0.930 . S
H1841 C1849 0.930 . S
H1842 C1850 0.930 . S
H1843 C1851 0.930 . S
H1844 C1854 0.930 . S
H1845 C1855 0.930 . S
C1846 H1840 0.930 . S
C1846 C1847 1.355 . S
C1846 C1848 1.415 . S
C1847 C1846 1.355 . S
C1847 C1849 1.419 . S
C1848 C1846 1.415 . S
C1848 C1853 1.425 . S
C1848 C1855 1.409 . S
C1849 H1841 0.930 . S
C1849 C1847 1.419 . S
C1849 C1850 1.362 . S
C1850 H1842 0.930 . S
C1850 C1849 1.362 . S
C1850 C1853 1.409 . S
C1851 H1843 0.930 . S
C1851 C1852 1.355 . S
C1851 C1853 1.415 . S
C1852 C1851 1.355 . S
C1852 C1854 1.419 . S
C1853 C1848 1.425 . S
C1853 C1850 1.409 . S
C1853 C1851 1.415 . S
C1854 H1844 0.930 . S
C1854 C1852 1.419 . S
C1854 C1855 1.362 . S
C1855 H1845 0.930 . S
C1855 C1848 1.409 . S
C1855 C1854 1.362 . S
H1856 C1862 0.930 . S
H1857 C1865 0.930 . S
H1858 C1866 0.930 . S
H1859 C1867 0.930 . S
H1860 C1870 0.930 . S
H1861 C1871 0.930 . S
C1862 H1856 0.930 . S
C1862 C1863 1.355 . S
C1862 C1864 1.415 . S
C1863 C1862 1.355 . S
C1863 C1865 1.419 . S
C1864 C1862 1.415 . S
C1864 C1869 1.425 . S
C1864 C1871 1.409 1_556 S
C1865 H1857 0.930 . S
C1865 C1863 1.419 . S
C1865 C1866 1.362 . S
C1866 H1858 0.930 . S
C1866 C1865 1.362 . S
C1866 C1869 1.409 . S
C1867 H1859 0.930 . S
C1867 C1868 1.355 . S
C1867 C1869 1.415 1_554 S
C1868 C1867 1.355 . S
C1868 C1870 1.419 . S
C1869 C1864 1.425 . S
C1869 C1866 1.409 . S
C1869 C1867 1.415 1_556 S
C1870 H1860 0.930 . S
C1870 C1868 1.419 . S
C1870 C1871 1.362 . S
C1871 H1861 0.930 . S
C1871 C1864 1.409 1_554 S
C1871 C1870 1.362 . S
H1872 C1878 0.930 . S
H1873 C1881 0.930 . S
H1874 C1882 0.930 . S
H1875 C1883 0.930 . S
H1876 C1886 0.930 . S
H1877 C1887 0.930 . S
C1878 H1872 0.930 . S
C1878 C1879 1.355 . S
C1878 C1880 1.415 . S
C1879 C1878 1.355 . S
C1879 C1881 1.419 . S
C1880 C1878 1.415 . S
C1880 C1885 1.425 . S
C1880 C1887 1.409 . S
C1881 H1873 0.930 . S
C1881 C1879 1.419 . S
C1881 C1882 1.362 . S
C1882 H1874 0.930 . S
C1882 C1881 1.362 . S
C1882 C1885 1.409 . S
C1883 H1875 0.930 . S
C1883 C1884 1.355 . S
C1883 C1885 1.415 . S
C1884 C1883 1.355 . S
C1884 C1886 1.419 . S
C1885 C1880 1.425 . S
C1885 C1882 1.409 . S
C1885 C1883 1.415 . S
C1886 H1876 0.930 . S
C1886 C1884 1.419 . S
C1886 C1887 1.362 . S
C1887 H1877 0.930 . S
C1887 C1880 1.409 . S
C1887 C1886 1.362 . S
H1888 C1894 0.930 . S
H1889 C1897 0.930 . S
H1890 C1898 0.930 . S
H1891 C1899 0.930 . S
H1892 C1902 0.930 . S
H1893 C1903 0.930 . S
C1894 H1888 0.930 . S
C1894 C1895 1.355 . S
C1894 C1896 1.415 . S
C1895 C1894 1.355 . S
C1895 C1897 1.419 . S
C1896 C1894 1.415 . S
C1896 C1901 1.425 . S
C1896 C1903 1.409 . S
C1897 H1889 0.930 . S
C1897 C1895 1.419 . S
C1897 C1898 1.362 . S
C1898 H1890 0.930 . S
C1898 C1897 1.362 . S
C1898 C1901 1.409 . S
C1899 H1891 0.930 . S
C1899 C1900 1.355 . S
C1899 C1901 1.415 . S
C1900 C1899 1.355 . S
C1900 C1902 1.419 . S
C1901 C1896 1.425 . S
C1901 C1898 1.409 . S
C1901 C1899 1.415 . S
C1902 H1892 0.930 . S
C1902 C1900 1.419 . S
C1902 C1903 1.362 . S
C1903 H1893 0.930 . S
C1903 C1896 1.409 . S
C1903 C1902 1.362 . S
H1904 C1910 0.930 . S
H1905 C1913 0.930 . S
H1906 C1914 0.930 . S
H1907 C1915 0.930 . S
H1908 C1918 0.930 . S
H1909 C1919 0.930 . S
C1910 H1904 0.930 . S
C1910 C1911 1.355 . S
C1910 C1912 1.415 . S
C1911 C1910 1.355 . S
C1911 C1913 1.419 . S
C1912 C1910 1.415 . S
C1912 C1917 1.425 . S
C1912 C1919 1.409 . S
C1913 H1905 0.930 . S
C1913 C1911 1.419 . S
C1913 C1914 1.362 . S
C1914 H1906 0.930 . S
C1914 C1913 1.362 . S
C1914 C1917 1.409 . S
C1915 H1907 0.930 . S
C1915 C1916 1.355 . S
C1915 C1917 1.415 . S
C1916 C1915 1.355 . S
C1916 C1918 1.419 . S
C1917 C1912 1.425 . S
C1917 C1914 1.409 . S
C1917 C1915 1.415 . S
C1918 H1908 0.930 . S
C1918 C1916 1.419 . S
C1918 C1919 1.362 . S
C1919 H1909 0.930 . S
C1919 C1912 1.409 . S
C1919 C1918 1.362 . S
H1920 C1926 0.930 . S
H1921 C1929 0.930 . S
H1922 C1930 0.930 . S
H1923 C1931 0.930 . S
H1924 C1934 0.930 . S
H1925 C1935 0.930 . S
C1926 H1920 0.930 . S
C1926 C1927 1.355 . S
C1926 C1928 1.415 . S
C1927 C1926 1.355 . S
C1927 C1929 1.419 . S
C1928 C1926 1.415 . S
C1928 C1933 1.425 . S
C1928 C1935 1.409 1_554 S
C1929 H1921 0.930 . S
C1929 C1927 1.419 . S
C1929 C1930 1.362 . S
C1930 H1922 0.930 . S
C1930 C1929 1.362 . S
C1930 C1933 1.409 . S
C1931 H1923 0.930 . S
C1931 C1932 1.355 . S
C1931 C1933 1.415 1_556 S
C1932 C1931 1.355 . S
C1932 C1934 1.419 . S
C1933 C1928 1.425 . S
C1933 C1930 1.409 . S
C1933 C1931 1.415 1_554 S
C1934 H1924 0.930 . S
C1934 C1932 1.419 . S
C1934 C1935 1.362 . S
C1935 H1925 0.930 . S
C1935 C1928 1.409 1_556 S
C1935 C1934 1.362 . S
H1936 C1942 0.930 . S
H1937 C1945 0.930 . S
H1938 C1946 0.930 . S
H1939 C1947 0.930 . S
H1940 C1950 0.930 . S
H1941 C1951 0.930 . S
C1942 H1936 0.930 . S
C1942 C1943 1.355 . S
C1942 C1944 1.415 . S
C1943 C1942 1.355 . S
C1943 C1945 1.419 . S
C1944 C1942 1.415 . S
C1944 C1949 1.425 . S
C1944 C1951 1.409 . S
C1945 H1937 0.930 . S
C1945 C1943 1.419 . S
C1945 C1946 1.362 . S
C1946 H1938 0.930 . S
C1946 C1945 1.362 . S
C1946 C1949 1.409 . S
C1947 H1939 0.930 . S
C1947 C1948 1.355 . S
C1947 C1949 1.415 . S
C1948 C1947 1.355 . S
C1948 C1950 1.419 . S
C1949 C1944 1.425 . S
C1949 C1946 1.409 . S
C1949 C1947 1.415 . S
C1950 H1940 0.930 . S
C1950 C1948 1.419 . S
C1950 C1951 1.362 . S
C1951 H1941 0.930 . S
C1951 C1944 1.409 . S
C1951 C1950 1.362 . S
H1952 C1958 0.930 . S
H1953 C1961 0.930 . S
H1954 C1962 0.930 . S
H1955 C1963 0.930 . S
H1956 C1966 0.930 . S
H1957 C1967 0.930 . S
C1958 H1952 0.930 . S
C1958 C1959 1.355 . S
C1958 C1960 1.415 . S
C1959 C1958 1.355 . S
C1959 C1961 1.419 . S
C1960 C1958 1.415 . S
C1960 C1965 1.425 . S
C1960 C1967 1.409 . S
C1961 H1953 0.930 . S
C1961 C1959 1.419 . S
C1961 C1962 1.362 . S
C1962 H1954 0.930 . S
C1962 C1961 1.362 . S
C1962 C1965 1.409 . S
C1963 H1955 0.930 . S
C1963 C1964 1.355 . S
C1963 C1965 1.415 . S
C1964 C1963 1.355 . S
C1964 C1966 1.419 . S
C1965 C1960 1.425 . S
C1965 C1962 1.409 . S
C1965 C1963 1.415 . S
C1966 H1956 0.930 . S
C1966 C1964 1.419 . S
C1966 C1967 1.362 . S
C1967 H1957 0.930 . S
C1967 C1960 1.409 . S
C1967 C1966 1.362 . S
H1968 C1974 0.930 . S
H1969 C1977 0.930 . S
H1970 C1978 0.930 . S
H1971 C1979 0.930 . S
H1972 C1982 0.930 . S
H1973 C1983 0.930 . S
C1974 H1968 0.930 . S
C1974 C1975 1.355 . S
C1974 C1976 1.415 . S
C1975 C1974 1.355 . S
C1975 C1977 1.419 . S
C1976 C1974 1.415 . S
C1976 C1981 1.425 . S
C1976 C1983 1.409 . S
C1977 H1969 0.930 . S
C1977 C1975 1.419 . S
C1977 C1978 1.362 . S
C1978 H1970 0.930 . S
C1978 C1977 1.362 . S
C1978 C1981 1.409 . S
C1979 H1971 0.930 . S
C1979 C1980 1.355 . S
C1979 C1981 1.415 . S
C1980 C1979 1.355 . S
C1980 C1982 1.419 . S
C1981 C1976 1.425 . S
C1981 C1978 1.409 . S
C1981 C1979 1.415 . S
C1982 H1972 0.930 . S
C1982 C1980 1.419 . S
C1982 C1983 1.362 . S
C1983 H1973 0.930 . S
C1983 C1976 1.409 . S
C1983 C1982 1.362 . S
H1984 C1990 0.930 . S
H1985 C1993 0.930 . S
H1986 C1994 0.930 . S
H1987 C1995 0.930 . S
H1988 C1998 0.930 . S
H1989 C1999 0.930 . S
C1990 H1984 0.930 . S
C1990 C1991 1.355 . S
C1990 C1992 1.415 . S
C1991 C1990 1.355 . S
C1991 C1993 1.419 . S
C1992 C1990 1.415 . S
C1992 C1997 1.425 . S
C1992 C1999 1.409 . S
C1993 H1985 0.930 . S
C1993 C1991 1.419 . S
C1993 C1994 1.362 . S
C1994 H1986 0.930 . S
C1994 C1993 1.362 . S
C1994 C1997 1.409 . S
C1995 H1987 0.930 . S
C1995 C1996 1.355 . S
C1995 C1997 1.415 . S
C1996 C1995 1.355 . S
C1996 C1998 1.419 . S
C1997 C1992 1.425 . S
C1997 C1994 1.409 . S
C1997 C1995 1.415 . S
C1998 H1988 0.930 . S
C1998 C1996 1.419 . S
C1998 C1999 1.362 . S
C1999 H1989 0.930 . S
C1999 C1992 1.409 . S
C1999 C1998 1.362 . S
H2000 C2006 0.930 . S
H2001 C2009 0.930 . S
H2002 C2010 0.930 . S
H2003 C2011 0.930 . S
H2004 C2014 0.930 . S
H2005 C2015 0.930 . S
C2006 H2000 0.930 . S
C2006 C2007 1.355 . S
C2006 C2008 1.415 . S
C2007 C2006 1.355 . S
C2007 C2009 1.419 . S
C2008 C2006 1.415 . S
C2008 C2013 1.425 . S
C2008 C2015 1.409 . S
C2009 H2001 0.930 . S
C2009 C2007 1.419 . S
C2009 C2010 1.362 . S
C2010 H2002 0.930 . S
C2010 C2009 1.362 . S
C2010 C2013 1.409 . S
C2011 H2003 0.930 . S
C2011 C2012 1.355 . S
C2011 C2013 1.415 . S
C2012 C2011 1.355 . S
C2012 C2014 1.419 . S
C2013 C2008 1.425 . S
C2013 C2010 1.409 . S
C2013 C2011 1.415 . S
C2014 H2004 0.930 . S
C2014 C2012 1.419 . S
C2014 C2015 1.362 . S
C2015 H2005 0.930 . S
C2015 C2008 1.409 . S
C2015 C2014 1.362 . S
H2016 C2022 0.930 . S
H2017 C2025 0.930 . S
H2018 C2026 0.930 . S
H2019 C2027 0.930 . S
H2020 C2030 0.930 . S
H2021 C2031 0.930 . S
C2022 H2016 0.930 . S
C2022 C2023 1.355 . S
C2022 C2024 1.415 . S
C2023 C2022 1.355 . S
C2023 C2025 1.419 . S
C2024 C2022 1.415 . S
C2024 C2029 1.425 . S
C2024 C2031 1.409 . S
C2025 H2017 0.930 . S
C2025 C2023 1.419 . S
C2025 C2026 1.362 . S
C2026 H2018 0.930 . S
C2026 C2025 1.362 . S
C2026 C2029 1.409 . S
C2027 H2019 0.930 . S
C2027 C2028 1.355 . S
C2027 C2029 1.415 . S
C2028 C2027 1.355 . S
C2028 C2030 1.419 . S
C2029 C2024 1.425 . S
C2029 C2026 1.409 . S
C2029 C2027 1.415 . S
C2030 H2020 0.930 . S
C2030 C2028 1.419 . S
C2030 C2031 1.362 . S
C2031 H2021 0.930 . S
C2031 C2024 1.409 . S
C2031 C2030 1.362 . S
H2032 C2038 0.930 . S
H2033 C2041 0.930 . S
H2034 C2042 0.930 . S
H2035 C2043 0.930 . S
H2036 C2046 0.930 . S
H2037 C2047 0.930 . S
C2038 H2032 0.930 . S
C2038 C2039 1.355 . S
C2038 C2040 1.415 . S
C2039 C2038 1.355 . S
C2039 C2041 1.419 . S
C2040 C2038 1.415 . S
C2040 C2045 1.425 . S
C2040 C2047 1.409 . S
C2041 H2033 0.930 . S
C2041 C2039 1.419 . S
C2041 C2042 1.362 . S
C2042 H2034 0.930 . S
C2042 C2041 1.362 . S
C2042 C2045 1.409 . S
C2043 H2035 0.930 . S
C2043 C2044 1.355 . S
C2043 C2045 1.415 . S
C2044 C2043 1.355 . S
C2044 C2046 1.419 . S
C2045 C2040 1.425 . S
C2045 C2042 1.409 . S
C2045 C2043 1.415 . S
C2046 H2036 0.930 . S
C2046 C2044 1.419 . S
C2046 C2047 1.362 . S
C2047 H2037 0.930 . S
C2047 C2040 1.409 . S
C2047 C2046 1.362 . S
H2048 C2054 0.930 . S
H2049 C2057 0.930 . S
H2050 C2058 0.930 . S
H2051 C2059 0.930 . S
H2052 C2062 0.930 . S
H2053 C2063 0.930 . S
C2054 H2048 0.930 . S
C2054 C2055 1.355 . S
C2054 C2056 1.415 . S
C2055 C2054 1.355 . S
C2055 C2057 1.419 . S
C2056 C2054 1.415 . S
C2056 C2061 1.425 . S
C2056 C2063 1.409 . S
C2057 H2049 0.930 . S
C2057 C2055 1.419 . S
C2057 C2058 1.362 . S
C2058 H2050 0.930 . S
C2058 C2057 1.362 . S
C2058 C2061 1.409 . S
C2059 H2051 0.930 . S
C2059 C2060 1.355 . S
C2059 C2061 1.415 . S
C2060 C2059 1.355 . S
C2060 C2062 1.419 . S
C2061 C2056 1.425 . S
C2061 C2058 1.409 . S
C2061 C2059 1.415 . S
C2062 H2052 0.930 . S
C2062 C2060 1.419 . S
C2062 C2063 1.362 . S
C2063 H2053 0.930 . S
C2063 C2056 1.409 . S
C2063 C2062 1.362 . S
H2064 C2070 0.930 . S
H2065 C2073 0.930 . S
H2066 C2074 0.930 . S
H2067 C2075 0.930 . S
H2068 C2078 0.930 . S
H2069 C2079 0.930 . S
C2070 H2064 0.930 . S
C2070 C2071 1.355 . S
C2070 C2072 1.415 . S
C2071 C2070 1.355 . S
C2071 C2073 1.419 . S
C2072 C2070 1.415 . S
C2072 C2077 1.425 . S
C2072 C2079 1.409 . S
C2073 H2065 0.930 . S
C2073 C2071 1.419 . S
C2073 C2074 1.362 . S
C2074 H2066 0.930 . S
C2074 C2073 1.362 . S
C2074 C2077 1.409 . S
C2075 H2067 0.930 . S
C2075 C2076 1.355 . S
C2075 C2077 1.415 . S
C2076 C2075 1.355 . S
C2076 C2078 1.419 . S
C2077 C2072 1.425 . S
C2077 C2074 1.409 . S
C2077 C2075 1.415 . S
C2078 H2068 0.930 . S
C2078 C2076 1.419 . S
C2078 C2079 1.362 . S
C2079 H2069 0.930 . S
C2079 C2072 1.409 . S
C2079 C2078 1.362 . S
H2080 C2086 0.930 . S
H2081 C2089 0.930 . S
H2082 C2090 0.930 . S
H2083 C2091 0.930 . S
H2084 C2094 0.930 . S
H2085 C2095 0.930 . S
C2086 H2080 0.930 . S
C2086 C2087 1.355 . S
C2086 C2088 1.415 . S
C2087 C2086 1.355 . S
C2087 C2089 1.419 . S
C2088 C2086 1.415 . S
C2088 C2093 1.425 . S
C2088 C2095 1.409 . S
C2089 H2081 0.930 . S
C2089 C2087 1.419 . S
C2089 C2090 1.362 . S
C2090 H2082 0.930 . S
C2090 C2089 1.362 . S
C2090 C2093 1.409 . S
C2091 H2083 0.930 . S
C2091 C2092 1.355 . S
C2091 C2093 1.415 . S
C2092 C2091 1.355 . S
C2092 C2094 1.419 . S
C2093 C2088 1.425 . S
C2093 C2090 1.409 . S
C2093 C2091 1.415 . S
C2094 H2084 0.930 . S
C2094 C2092 1.419 . S
C2094 C2095 1.362 . S
C2095 H2085 0.930 . S
C2095 C2088 1.409 . S
C2095 C2094 1.362 . S
H2096 C2102 0.930 . S
H2097 C2105 0.930 . S
H2098 C2106 0.930 . S
H2099 C2107 0.930 . S
H2100 C2110 0.930 . S
H2101 C2111 0.930 . S
C2102 H2096 0.930 . S
C2102 C2103 1.355 . S
C2102 C2104 1.415 . S
C2103 C2102 1.355 . S
C2103 C2105 1.419 . S
C2104 C2102 1.415 . S
C2104 C2109 1.425 . S
C2104 C2111 1.409 . S
C2105 H2097 0.930 . S
C2105 C2103 1.419 . S
C2105 C2106 1.362 . S
C2106 H2098 0.930 . S
C2106 C2105 1.362 . S
C2106 C2109 1.409 . S
C2107 H2099 0.930 . S
C2107 C2108 1.355 . S
C2107 C2109 1.415 . S
C2108 C2107 1.355 . S
C2108 C2110 1.419 . S
C2109 C2104 1.425 . S
C2109 C2106 1.409 . S
C2109 C2107 1.415 . S
C2110 H2100 0.930 . S
C2110 C2108 1.419 . S
C2110 C2111 1.362 . S
C2111 H2101 0.930 . S
C2111 C2104 1.409 . S
C2111 C2110 1.362 . S
H2112 C2118 0.930 . S
H2113 C2121 0.930 . S
H2114 C2122 0.930 . S
H2115 C2123 0.930 . S
H2116 C2126 0.930 . S
H2117 C2127 0.930 . S
C2118 H2112 0.930 . S
C2118 C2119 1.355 . S
C2118 C2120 1.415 . S
C2119 C2118 1.355 . S
C2119 C2121 1.419 . S
C2120 C2118 1.415 . S
C2120 C2125 1.425 . S
C2120 C2127 1.409 . S
C2121 H2113 0.930 . S
C2121 C2119 1.419 . S
C2121 C2122 1.362 . S
C2122 H2114 0.930 . S
C2122 C2121 1.362 . S
C2122 C2125 1.409 . S
C2123 H2115 0.930 . S
C2123 C2124 1.355 . S
C2123 C2125 1.415 . S
C2124 C2123 1.355 . S
C2124 C2126 1.419 . S
C2125 C2120 1.425 . S
C2125 C2122 1.409 . S
C2125 C2123 1.415 . S
C2126 H2116 0.930 . S
C2126 C2124 1.419 . S
C2126 C2127 1.362 . S
C2127 H2117 0.930 . S
C2127 C2120 1.409 . S
C2127 C2126 1.362 . S
H2128 C2134 0.930 . S
H2129 C2137 0.930 . S
H2130 C2138 0.930 . S
H2131 C2139 0.930 . S
H2132 C2142 0.930 . S
H2133 C2143 0.930 . S
C2134 H2128 0.930 . S
C2134 C2135 1.355 . S
C2134 C2136 1.415 . S
C2135 C2134 1.355 . S
C2135 C2137 1.419 . S
C2136 C2134 1.415 . S
C2136 C2141 1.425 . S
C2136 C2143 1.409 . S
C2137 H2129 0.930 . S
C2137 C2135 1.419 . S
C2137 C2138 1.362 . S
C2138 H2130 0.930 . S
C2138 C2137 1.362 . S
C2138 C2141 1.409 . S
C2139 H2131 0.930 . S
C2139 C2140 1.355 . S
C2139 C2141 1.415 . S
C2140 C2139 1.355 . S
C2140 C2142 1.419 . S
C2141 C2136 1.425 . S
C2141 C2138 1.409 . S
C2141 C2139 1.415 . S
C2142 H2132 0.930 . S
C2142 C2140 1.419 . S
C2142 C2143 1.362 . S
C2143 H2133 0.930 . S
C2143 C2136 1.409 . S
C2143 C2142 1.362 . S
H2144 C2150 0.930 . S
H2145 C2153 0.930 . S
H2146 C2154 0.930 . S
H2147 C2155 0.930 . S
H2148 C2158 0.930 . S
H2149 C2159 0.930 . S
C2150 H2144 0.930 . S
C2150 C2151 1.355 . S
C2150 C2152 1.415 . S
C2151 C2150 1.355 . S
C2151 C2153 1.419 . S
C2152 C2150 1.415 . S
C2152 C2157 1.425 . S
C2152 C2159 1.409 . S
C2153 H2145 0.930 . S
C2153 C2151 1.419 . S
C2153 C2154 1.362 . S
C2154 H2146 0.930 . S
C2154 C2153 1.362 . S
C2154 C2157 1.409 . S
C2155 H2147 0.930 . S
C2155 C2156 1.355 . S
C2155 C2157 1.415 . S
C2156 C2155 1.355 . S
C2156 C2158 1.419 . S
C2157 C2152 1.425 . S
C2157 C2154 1.409 . S
C2157 C2155 1.415 . S
C2158 H2148 0.930 . S
C2158 C2156 1.419 . S
C2158 C2159 1.362 . S
C2159 H2149 0.930 . S
C2159 C2152 1.409 . S
C2159 C2158 1.362 . S
H2160 C2166 0.930 . S
H2161 C2169 0.930 . S
H2162 C2170 0.930 . S
H2163 C2171 0.930 . S
H2164 C2174 0.930 . S
H2165 C2175 0.930 . S
C2166 H2160 0.930 . S
C2166 C2167 1.355 . S
C2166 C2168 1.415 . S
C2167 C2166 1.355 . S
C2167 C2169 1.419 . S
C2168 C2166 1.415 . S
C2168 C2173 1.425 . S
C2168 C2175 1.409 . S
C2169 H2161 0.930 . S
C2169 C2167 1.419 . S
C2169 C2170 1.362 . S
C2170 H2162 0.930 . S
C2170 C2169 1.362 . S
C2170 C2173 1.409 . S
C2171 H2163 0.930 . S
C2171 C2172 1.355 . S
C2171 C2173 1.415 . S
C2172 C2171 1.355 . S
C2172 C2174 1.419 . S
C2173 C2168 1.425 . S
C2173 C2170 1.409 . S
C2173 C2171 1.415 . S
C2174 H2164 0.930 . S
C2174 C2172 1.419 . S
C2174 C2175 1.362 . S
C2175 H2165 0.930 . S
C2175 C2168 1.409 . S
C2175 C2174 1.362 . S
H2176 C2182 0.930 . S
H2177 C2185 0.930 . S
H2178 C2186 0.930 . S
H2179 C2187 0.930 . S
H2180 C2190 0.930 . S
H2181 C2191 0.930 . S
C2182 H2176 0.930 . S
C2182 C2183 1.355 . S
C2182 C2184 1.415 . S
C2183 C2182 1.355 . S
C2183 C2185 1.419 . S
C2184 C2182 1.415 . S
C2184 C2189 1.425 . S
C2184 C2191 1.409 . S
C2185 H2177 0.930 . S
C2185 C2183 1.419 . S
C2185 C2186 1.362 . S
C2186 H2178 0.930 . S
C2186 C2185 1.362 . S
C2186 C2189 1.409 . S
C2187 H2179 0.930 . S
C2187 C2188 1.355 . S
C2187 C2189 1.415 . S
C2188 C2187 1.355 . S
C2188 C2190 1.419 . S
C2189 C2184 1.425 . S
C2189 C2186 1.409 . S
C2189 C2187 1.415 . S
C2190 H2180 0.930 . S
C2190 C2188 1.419 . S
C2190 C2191 1.362 . S
C2191 H2181 0.930 . S
C2191 C2184 1.409 . S
C2191 C2190 1.362 . S
H2192 C2198 0.930 . S
H2193 C2201 0.930 . S
H2194 C2202 0.930 . S
H2195 C2203 0.930 . S
H2196 C2206 0.930 . S
H2197 C2207 0.930 . S
C2198 H2192 0.930 . S
C2198 C2199 1.355 . S
C2198 C2200 1.415 . S
C2199 C2198 1.355 . S
C2199 C2201 1.419 . S
C2200 C2198 1.415 . S
C2200 C2205 1.425 . S
C2200 C2207 1.409 . S
C2201 H2193 0.930 . S
C2201 C2199 1.419 . S
C2201 C2202 1.362 . S
C2202 H2194 0.930 . S
C2202 C2201 1.362 . S
C2202 C2205 1.409 . S
C2203 H2195 0.930 . S
C2203 C2204 1.355 . S
C2203 C2205 1.415 . S
C2204 C2203 1.355 . S
C2204 C2206 1.419 . S
C2205 C2200 1.425 . S
C2205 C2202 1.409 . S
C2205 C2203 1.415 . S
C2206 H2196 0.930 . S
C2206 C2204 1.419 . S
C2206 C2207 1.362 . S
C2207 H2197 0.930 . S
C2207 C2200 1.409 . S
C2207 C2206 1.362 . S
H2208 C2214 0.930 . S
H2209 C2217 0.930 . S
H2210 C2218 0.930 . S
H2211 C2219 0.930 . S
H2212 C2222 0.930 . S
H2213 C2223 0.937 . S
C2214 H2208 0.930 . S
C2214 C2215 1.355 . S
C2214 C2216 1.415 . S
C2215 C2214 1.355 . S
C2215 C2217 1.419 . S
C2216 C2214 1.415 . S
C2216 C2221 1.425 . S
C2216 C2223 1.426 . S
C2217 H2209 0.930 . S
C2217 C2215 1.419 . S
C2217 C2218 1.362 . S
C2218 H2210 0.930 . S
C2218 C2217 1.362 . S
C2218 C2221 1.409 . S
C2219 H2211 0.930 . S
C2219 C2220 1.355 . S
C2219 C2221 1.415 1_655 S
C2220 C2219 1.355 . S
C2220 C2222 1.419 . S
C2221 C2216 1.425 . S
C2221 C2218 1.409 . S
C2221 C2219 1.415 1_455 S
C2222 H2212 0.930 . S
C2222 C2220 1.419 . S
C2222 C2223 1.339 1_655 S
C2223 H2213 0.937 . S
C2223 C2216 1.426 . S
C2223 C2222 1.339 1_455 S
C700 C343 1.024 . S
C695 C11 1.112 . S
C711 C14 1.210 . S
C716 C363 1.228 . S
C732 C384 1.203 . S
C727 C37 1.313 . S
C748 C411 1.192 . S
C743 C47 1.271 . S
C764 C367 1.213 . S
C759 C61 1.270 . S
C775 C79 1.255 . S
C780 C387 1.197 . S
C796 C407 1.135 . S
C791 C84 1.220 . S
C807 C109 1.124 . S
C812 C340 1.131 . S
C823 C123 1.134 . S
C828 C345 1.140 . S
C844 C362 1.099 . S
C839 C131 1.204 . S
C860 C386 1.191 . S
C855 C140 1.242 . S
C876 C410 1.170 . S
C871 C163 1.182 . S
C892 C366 1.224 . S
C887 C121 1.201 . S
C908 C389 1.185 . S
C903 C126 1.266 . S
C919 C145 1.243 . S
C924 C406 1.140 . S
C940 C342 1.115 . S
C935 C165 1.189 . S
C951 C168 1.155 . S
C956 C344 1.174 . S
C967 C193 1.224 . S
C972 C431 1.171 . S
C988 C451 1.217 . S
C983 C205 1.296 . S
C1004 C474 1.241 . S
C999 C215 1.305 . S
C1015 C224 1.141 . S
C1020 C341 1.062 . S
C1031 C247 1.293 . S
C1036 C385 1.194 . S
C1052 C475 1.151 . S
C1047 C207 1.220 . S
C1068 C430 1.229 . S
C1063 C257 1.252 . S
C1084 C498 1.251 . S
C1079 C23 1.226 . S
C1100 C519 1.180 . S
C1095 C0 1.127 . S
C1111 C53 1.072 . S
C1116 C538 1.107 . S
C1127 C33 1.241 . S
C1132 C563 1.155 . S
C1143 C103 1.244 . S
C1148 C518 1.185 . S
C1159 C95 1.063 . S
C1164 C543 1.117 . S
C1180 C562 1.160 . S
C1175 C70 1.148 . S
C1191 C65 1.202 . S
C1196 C495 1.236 . S
C1207 C271 1.262 . S
C1212 C499 1.196 . S
C1228 C520 1.128 . S
C1223 C219 1.222 . S
C1244 C539 1.123 . S
C1239 C235 1.070 . S
C1260 C564 1.082 . S
C1255 C182 1.180 . S
C1276 C516 1.076 . S
C1271 C266 1.189 . S
C1292 C541 1.020 . S
C1287 C221 1.130 . S
C1308 C560 1.201 . S
C1303 C233 1.163 . S
C1319 C187 1.284 . S
C1324 C496 1.173 . S
C1340 C497 1.122 . S
C1335 C289 1.184 . S
C1351 C154 1.186 . S
C1356 C583 1.224 . S
C1372 C608 1.079 . S
C1367 C299 1.176 . S
C1383 C137 1.190 . S
C1388 C627 1.085 . S
C1404 C494 1.123 . S
C1399 C149 1.225 . S
C1420 C540 1.105 . S
C1415 C313 1.169 . S
C1436 C631 1.183 . S
C1431 C294 1.199 . S
C1447 C333 1.191 . S
C1452 C587 1.087 . S
C1463 C39 1.149 . S
C1468 C651 1.151 . S
C1479 C42 1.237 . S
C1484 C429 1.242 . S
C1500 C453 1.201 . S
C1495 C9 1.311 . S
C1511 C19 1.239 . S
C1516 C477 1.228 . S
C1527 C89 1.269 . S
C1532 C433 1.182 . S
C1543 C107 1.262 . S
C1548 C450 1.188 . S
C1564 C473 1.162 . S
C1559 C56 1.247 . S
C1580 C648 1.045 . S
C1575 C81 1.140 . S
C1596 C653 1.164 . S
C1591 C305 1.193 . S
C1612 C428 1.210 . S
C1607 C285 1.221 . S
C1628 C455 1.225 . S
C1623 C322 1.236 . S
C1639 C317 1.242 . S
C1644 C476 1.232 . S
C1660 C432 1.213 . S
C1655 C303 1.193 . S
C1671 C280 1.252 . S
C1676 C452 1.184 . S
C1692 C472 1.155 . S
C1687 C327 1.194 . S
C1703 C319 1.133 . S
C1708 C650 1.045 . S
C1724 C652 1.119 . S
C1719 C210 1.116 . S
C1735 C249 1.143 . S
C1740 C365 1.093 . S
C1756 C388 1.230 . S
C1751 C275 1.226 . S
C1767 C173 1.243 . S
C1772 C408 1.170 . S
C1788 C649 1.092 . S
C1783 C252 1.110 . S
C1804 C454 1.194 . S
C1799 C191 1.291 . S
C1820 C409 1.098 . S
C1815 C277 1.190 . S
C1836 C364 1.259 . S
C1831 C229 1.271 . S
C1847 C51 1.245 . S
C1852 C675 1.159 . S
C1863 C28 1.187 . S
C1868 C585 1.079 . S
C1879 C25 1.122 . S
C1884 C604 1.012 . S
C1900 C629 1.147 . S
C1895 C5 1.252 . S
C1916 C584 1.211 . S
C1911 C75 1.233 . S
C1927 C67 1.095 . S
C1932 C609 1.067 . S
C1948 C628 1.153 . S
C1943 C98 1.153 . S
C1959 C93 1.258 . S
C1964 C670 1.157 . S
C1980 C673 1.206 . S
C1975 C201 1.280 . S
C1991 C177 1.180 . S
C1996 C586 1.222 . S
C2007 C263 1.121 . S
C2012 C605 1.042 . S
C2028 C630 1.177 . S
C2023 C238 1.126 . S
C2044 C582 1.137 . S
C2039 C196 1.145 . S
C2055 C179 1.076 . S
C2060 C607 1.117 . S
C2076 C626 1.151 . S
C2071 C261 1.186 . S
C2092 C671 1.182 . S
C2087 C243 1.269 . S
C2108 C674 1.127 . S
C2103 C135 1.223 . S
C2124 C517 1.166 . S
C2119 C308 1.211 . S
C2135 C117 1.131 . S
C2140 C542 1.159 . S
C2151 C291 1.147 . S
C2156 C561 1.162 . S
C2172 C672 1.201 . S
C2167 C331 1.160 . S
C2188 C606 1.166 . S
C2183 C159 1.136 . S
C2204 C565 1.135 . S
C2199 C112 1.242 . S
C2220 C521 1.100 . S
C2215 C151 1.179 . S
