# Generated by pormake.
# Topology wbl, (4,4)-cn, num edge types: 1
# Building blocks:
#     Node 0, Type 0, BuildingBlock: MUDLON_clean_sbu_0, # of connection points: 4
#     Node 1, Type 0, BuildingBlock: MUDLON_clean_sbu_0, # of connection points: 4
#     Node 2, Type 0, BuildingBlock: MUDLON_clean_sbu_0, # of connection points: 4
#     Node 3, Type 0, BuildingBlock: MUDLON_clean_sbu_0, # of connection points: 4
#     Node 4, Type 0, BuildingBlock: MUDLON_clean_sbu_0, # of connection points: 4
#     Node 5, Type 0, BuildingBlock: MUDLON_clean_sbu_0, # of connection points: 4
#     Node 6, Type 0, BuildingBlock: MUDLON_clean_sbu_0, # of connection points: 4
#     Node 7, Type 0, BuildingBlock: MUDLON_clean_sbu_0, # of connection points: 4
#     Node 8, Type 1, BuildingBlock: QUQFOY_clean_sbu_3, # of connection points: 4
#     Node 9, Type 1, BuildingBlock: QUQFOY_clean_sbu_3, # of connection points: 4
#     Node 10, Type 1, BuildingBlock: QUQFOY_clean_sbu_3, # of connection points: 4
#     Node 11, Type 1, BuildingBlock: QUQFOY_clean_sbu_3, # of connection points: 4
#     Node 12, Type 1, BuildingBlock: QUQFOY_clean_sbu_3, # of connection points: 4
#     Node 13, Type 1, BuildingBlock: QUQFOY_clean_sbu_3, # of connection points: 4
#     Node 14, Type 1, BuildingBlock: QUQFOY_clean_sbu_3, # of connection points: 4
#     Node 15, Type 1, BuildingBlock: QUQFOY_clean_sbu_3, # of connection points: 4
#     Edge 16, Type (0, 1), BuildingBlock: KIFKEQ_clean_linker_1, # of connection points: 2
#     Edge 17, Type (0, 1), BuildingBlock: KIFKEQ_clean_linker_1, # of connection points: 2
#     Edge 18, Type (0, 1), BuildingBlock: KIFKEQ_clean_linker_1, # of connection points: 2
#     Edge 19, Type (0, 1), BuildingBlock: KIFKEQ_clean_linker_1, # of connection points: 2
#     Edge 20, Type (0, 1), BuildingBlock: KIFKEQ_clean_linker_1, # of connection points: 2
#     Edge 21, Type (0, 1), BuildingBlock: KIFKEQ_clean_linker_1, # of connection points: 2
#     Edge 22, Type (0, 1), BuildingBlock: KIFKEQ_clean_linker_1, # of connection points: 2
#     Edge 23, Type (0, 1), BuildingBlock: KIFKEQ_clean_linker_1, # of connection points: 2
#     Edge 24, Type (0, 1), BuildingBlock: KIFKEQ_clean_linker_1, # of connection points: 2
#     Edge 25, Type (0, 1), BuildingBlock: KIFKEQ_clean_linker_1, # of connection points: 2
#     Edge 26, Type (0, 1), BuildingBlock: KIFKEQ_clean_linker_1, # of connection points: 2
#     Edge 27, Type (0, 1), BuildingBlock: KIFKEQ_clean_linker_1, # of connection points: 2
#     Edge 28, Type (0, 1), BuildingBlock: KIFKEQ_clean_linker_1, # of connection points: 2
#     Edge 29, Type (0, 1), BuildingBlock: KIFKEQ_clean_linker_1, # of connection points: 2
#     Edge 30, Type (0, 1), BuildingBlock: KIFKEQ_clean_linker_1, # of connection points: 2
#     Edge 31, Type (0, 1), BuildingBlock: KIFKEQ_clean_linker_1, # of connection points: 2
#     Edge 32, Type (0, 1), BuildingBlock: KIFKEQ_clean_linker_1, # of connection points: 2
#     Edge 33, Type (0, 1), BuildingBlock: KIFKEQ_clean_linker_1, # of connection points: 2
#     Edge 34, Type (0, 1), BuildingBlock: KIFKEQ_clean_linker_1, # of connection points: 2
#     Edge 35, Type (0, 1), BuildingBlock: KIFKEQ_clean_linker_1, # of connection points: 2
#     Edge 36, Type (0, 1), BuildingBlock: KIFKEQ_clean_linker_1, # of connection points: 2
#     Edge 37, Type (0, 1), BuildingBlock: KIFKEQ_clean_linker_1, # of connection points: 2
#     Edge 38, Type (0, 1), BuildingBlock: KIFKEQ_clean_linker_1, # of connection points: 2
#     Edge 39, Type (0, 1), BuildingBlock: KIFKEQ_clean_linker_1, # of connection points: 2
#     Edge 40, Type (0, 1), BuildingBlock: KIFKEQ_clean_linker_1, # of connection points: 2
#     Edge 41, Type (0, 1), BuildingBlock: KIFKEQ_clean_linker_1, # of connection points: 2
#     Edge 42, Type (0, 1), BuildingBlock: KIFKEQ_clean_linker_1, # of connection points: 2
#     Edge 43, Type (0, 1), BuildingBlock: KIFKEQ_clean_linker_1, # of connection points: 2
#     Edge 44, Type (0, 1), BuildingBlock: KIFKEQ_clean_linker_1, # of connection points: 2
#     Edge 45, Type (0, 1), BuildingBlock: KIFKEQ_clean_linker_1, # of connection points: 2
#     Edge 46, Type (0, 1), BuildingBlock: KIFKEQ_clean_linker_1, # of connection points: 2
#     Edge 47, Type (0, 1), BuildingBlock: KIFKEQ_clean_linker_1, # of connection points: 2
# Relax obj value: 0.236
# Max RMSD: 0.222
# Mean RMSD: 0.173
data_MOF--net-wbl--node1-MUDLON_clean_sbu_0--node2-QUQFOY_clean_sbu_3--edge1-KIFKEQ_clean_linker_1
_symmetry_space_group_name_H-M    P1
_symmetry_Int_Tables_number       1
_symmetry_cell_setting            triclinic
loop_
_symmetry_equiv_pos_as_xyz
'x, y, z'
_cell_length_a     35.40179
_cell_length_b     35.900491
_cell_length_c     77.669489
_cell_angle_alpha  90.533204
_cell_angle_beta   90.209265
_cell_angle_gamma 89.850473
loop_
_atom_site_label
_atom_site_type_symbol
_atom_site_fract_x
_atom_site_fract_y
_atom_site_fract_z
_atom_type_partial_charge
Mg0 Mg 0.02311 0.0389 0.34262 0.0
C1 C 0.0291 0.96568 0.3596 0.0
O2 O 0.06359 0.9677 0.35351 0.0
C3 C 0.95628 0.05098 0.31876 0.0
O4 O 0.964 0.01635 0.31437 0.0
C5 C 0.07872 0.00799 0.31589 0.0
O6 O 0.05262 0.98242 0.31368 0.0
O7 O 0.07339 0.03397 0.32686 0.0
O8 O 0.00405 0.98723 0.35347 0.0
O9 O 0.03599 0.06709 0.36671 0.0
C10 C 0.00957 0.08512 0.37406 0.0
O11 O 0.97807 0.09117 0.36554 0.0
O12 O 0.97703 0.06735 0.32983 0.0
Mg13 Mg 0.12097 0.51299 0.58404 0.0
C14 C 0.19194 0.48157 0.59897 0.0
O15 O 0.17363 0.44988 0.59788 0.0
C16 C 0.06282 0.46054 0.5708 0.0
O17 O 0.0421 0.48525 0.57907 0.0
C18 C 0.13729 0.57354 0.55923 0.0
O19 O 0.16455 0.5498 0.55568 0.0
O20 O 0.11301 0.56498 0.57054 0.0
O21 O 0.18048 0.50871 0.58995 0.0
O22 O 0.09786 0.51471 0.61003 0.0
C23 C 0.09506 0.48346 0.6175 0.0
O24 O 0.1 0.45285 0.6084 0.0
O25 O 0.09835 0.46533 0.57015 0.0
Mg26 Mg 0.6541 0.60126 0.83559 0.0
C27 C 0.68433 0.6664 0.85584 0.0
O28 O 0.71523 0.6461 0.8557 0.0
C29 C 0.70666 0.54805 0.81843 0.0
O30 O 0.68157 0.52558 0.82515 0.0
C31 C 0.59599 0.59136 0.80653 0.0
O32 O 0.62602 0.58664 0.79686 0.0
O33 O 0.60004 0.59661 0.82263 0.0
O34 O 0.65752 0.65757 0.84568 0.0
O35 O 0.6533 0.57096 0.85964 0.0
C36 C 0.68488 0.56399 0.86675 0.0
O37 O 0.71599 0.56902 0.85791 0.0
O38 O 0.70202 0.58302 0.82019 0.0
Mg39 Mg 0.51593 0.15123 0.08133 0.0
C40 C 0.57575 0.15278 0.11079 0.0
O41 O 0.60056 0.16131 0.09893 0.0
C42 C 0.54756 0.0767 0.07036 0.0
O43 O 0.56932 0.08367 0.08373 0.0
C44 C 0.56907 0.19865 0.06075 0.0
O45 O 0.58518 0.16595 0.05853 0.0
O46 O 0.53853 0.20072 0.06928 0.0
O47 O 0.54181 0.14613 0.10647 0.0
O48 O 0.45841 0.1571 0.09016 0.0
C49 C 0.44239 0.12672 0.09409 0.0
O50 O 0.45419 0.09595 0.08653 0.0
O51 O 0.52295 0.10071 0.06601 0.0
Mg52 Mg 0.15637 0.5462 0.93927 0.0
C53 C 0.12733 0.55178 0.90297 0.0
O54 O 0.11386 0.51911 0.90715 0.0
C55 C 0.07469 0.54127 0.95048 0.0
O56 O 0.06985 0.54105 0.93373 0.0
C57 C 0.22182 0.56719 0.96342 0.0
O58 O 0.21206 0.53658 0.97139 0.0
O59 O 0.20336 0.57718 0.95018 0.0
O60 O 0.14379 0.57143 0.91447 0.0
O61 O 0.17327 0.49076 0.93095 0.0
C62 C 0.14928 0.4645 0.93118 0.0
O63 O 0.12051 0.46751 0.94175 0.0
O64 O 0.10795 0.5443 0.95657 0.0
Mg65 Mg 0.61819 0.63193 0.19308 0.0
C66 C 0.57144 0.64646 0.16181 0.0
O67 O 0.56566 0.67756 0.17046 0.0
C68 C 0.61995 0.57842 0.22403 0.0
O69 O 0.6093 0.60751 0.2332 0.0
C70 C 0.6077 0.70279 0.21431 0.0
O71 O 0.64438 0.69943 0.21644 0.0
O72 O 0.58995 0.67785 0.20591 0.0
O73 O 0.58944 0.62019 0.16902 0.0
O74 O 0.67236 0.64714 0.18258 0.0
C75 C 0.69679 0.62132 0.1812 0.0
O76 O 0.69297 0.59164 0.1908 0.0
O77 O 0.62415 0.58148 0.20787 0.0
Mg78 Mg 0.50701 0.12604 0.44096 0.0
C79 C 0.52749 0.1987 0.42548 0.0
O80 O 0.56031 0.19052 0.43245 0.0
C81 C 0.44299 0.11356 0.46743 0.0
O82 O 0.45786 0.14156 0.47608 0.0
C83 C 0.56847 0.14269 0.46746 0.0
O84 O 0.54609 0.17076 0.47135 0.0
O85 O 0.55876 0.12003 0.45559 0.0
O86 O 0.49847 0.18116 0.4305 0.0
O87 O 0.51105 0.09576 0.4169 0.0
C88 C 0.48185 0.10133 0.4077 0.0
O89 O 0.45354 0.12016 0.41443 0.0
O90 O 0.45792 0.10296 0.45338 0.0
Mg91 Mg 0.03279 0.99564 0.70248 0.0
C92 C 0.09422 0.99002 0.67571 0.0
O93 O 0.1053 0.96241 0.6855 0.0
C94 C 0.06146 0.06164 0.72153 0.0
O95 O 0.09177 0.05009 0.71332 0.0
C96 C 0.06509 0.93683 0.72781 0.0
O97 O 0.05705 0.9609 0.7401 0.0
O98 O 0.0565 0.94425 0.71232 0.0
O99 O 0.06712 0.01062 0.6807 0.0
O100 O 0.98065 0.98759 0.68845 0.0
C101 C 0.96032 0.01598 0.68538 0.0
O102 O 0.96515 0.04617 0.69481 0.0
O103 O 0.03132 0.04269 0.72015 0.0
C104 C 0.58018 0.70259 0.03674 0.0
O105 O 0.61289 0.70973 0.03102 0.0
Cd106 Cd 0.62082 0.74521 0.00518 0.0
O107 O 0.55097 0.71164 0.02811 0.0
Cd108 Cd 0.5331 0.73924 0.00013 0.0
C109 C 0.56557 0.82193 0.01483 0.0
O110 O 0.58537 0.71643 0.98229 0.0
O111 O 0.55119 0.76042 0.9715 0.0
O112 O 0.49117 0.68622 -0.00306 0.0
C113 C 0.57755 0.7368 0.96949 0.0
O114 O 0.59826 0.80795 0.01239 0.0
C115 C 0.46134 0.70484 0.99407 0.0
O116 O 0.53599 0.8025 0.0122 0.0
O117 O 0.46462 0.74012 0.99397 0.0
C118 C 0.43888 0.06315 0.21643 0.0
O119 O 0.47035 0.07097 0.22342 0.0
Cd120 Cd 0.49116 0.04311 0.24969 0.0
O121 O 0.4159 0.04139 0.22389 0.0
Cd122 Cd 0.41249 0.00817 0.25189 0.0
C123 C 0.4825 0.9495 0.24091 0.0
O124 O 0.44443 0.05219 0.27159 0.0
O125 O 0.43785 0.9957 0.28039 0.0
O126 O 0.34929 0.03349 0.25557 0.0
C127 C 0.44677 0.02911 0.28383 0.0
O128 O 0.50394 0.97727 0.24388 0.0
C129 C 0.33321 0.00271 0.2586 0.0
O130 O 0.44672 0.95298 0.24172 0.0
O131 O 0.35381 0.9737 0.2579 0.0
C132 C 0.08438 0.95059 0.48376 0.0
O133 O 0.07383 0.97852 0.49266 0.0
Cd134 Cd 0.10942 0.99554 0.51809 0.0
O135 O 0.10979 0.92877 0.48944 0.0
Cd136 Cd 0.14594 0.91825 0.51619 0.0
C137 C 0.20208 0.98809 0.50454 0.0
O138 O 0.10894 0.94785 0.53943 0.0
O139 O 0.16856 0.9384 0.54402 0.0
O140 O 0.11612 0.85787 0.51823 0.0
C141 C 0.13668 0.94826 0.5499 0.0
O142 O 0.17453 0.00853 0.5094 0.0
C143 C 0.14641 0.83901 0.51907 0.0
O144 O 0.19919 0.95269 0.50448 0.0
O145 O 0.17725 0.85697 0.51809 0.0
C146 C 0.21036 0.57121 0.78089 0.0
O147 O 0.21939 0.54073 0.77355 0.0
Cd148 Cd 0.25369 0.53859 0.74692 0.0
O149 O 0.21796 0.60218 0.77385 0.0
Cd150 Cd 0.24588 0.62722 0.74728 0.0
C151 C 0.33093 0.59179 0.75854 0.0
O152 O 0.2225 0.57949 0.72731 0.0
O153 O 0.26523 0.61629 0.71747 0.0
O154 O 0.19222 0.66946 0.7491 0.0
C155 C 0.24228 0.58986 0.71466 0.0
O156 O 0.31735 0.56037 0.75396 0.0
C157 C 0.21056 0.69897 0.74606 0.0
O158 O 0.31038 0.62103 0.75858 0.0
O159 O 0.24586 0.69538 0.74353 0.0
C160 C 0.95017 0.08896 0.49921 0.0
O161 O 0.93928 0.05812 0.50533 0.0
Cd162 Cd 0.90163 0.05496 0.53119 0.0
O163 O 0.94311 0.11929 0.5072 0.0
Cd164 Cd 0.91314 0.14183 0.53404 0.0
C165 C 0.82745 0.11164 0.52016 0.0
O166 O 0.93073 0.09126 0.55374 0.0
O167 O 0.89068 0.13221 0.56317 0.0
O168 O 0.96612 0.18418 0.53843 0.0
C169 C 0.91082 0.10371 0.56611 0.0
O170 O 0.83926 0.0789 0.52342 0.0
C171 C 0.94638 0.21376 0.53843 0.0
O172 O 0.84915 0.13964 0.52204 0.0
O173 O 0.91099 0.20994 0.53629 0.0
C174 C 0.08932 0.44131 0.74491 0.0
O175 O 0.1193 0.4315 0.75268 0.0
Cd176 Cd 0.11993 0.39992 0.77986 0.0
O177 O 0.05718 0.43588 0.75177 0.0
Cd178 Cd 0.03192 0.40931 0.7789 0.0
C179 C 0.06619 0.32374 0.76903 0.0
O180 O 0.07916 0.43038 0.80007 0.0
O181 O 0.04205 0.38615 0.80802 0.0
O182 O 0.98762 0.46099 0.7827 0.0
C183 C 0.06768 0.40931 0.812 0.0
O184 O 0.09808 0.33677 0.77372 0.0
C185 C 0.95795 0.44123 0.78219 0.0
O186 O 0.03711 0.34473 0.76837 0.0
O187 O 0.96252 0.40643 0.77983 0.0
C188 C 0.7187 0.5612 0.99475 0.0
O189 O 0.72875 0.59098 0.00241 0.0
Cd190 Cd 0.7609 0.59112 0.02971 0.0
O191 O 0.72339 0.52979 0.00195 0.0
Cd192 Cd 0.74771 0.50439 0.0294 0.0
C193 C 0.83446 0.53377 0.01792 0.0
O194 O 0.72823 0.55299 0.04985 0.0
O195 O 0.77183 0.51519 0.05845 0.0
O196 O 0.69173 0.46518 0.03038 0.0
C197 C 0.74922 0.54159 0.062 0.0
O198 O 0.82323 0.56591 0.0228 0.0
C199 C 0.70929 0.43466 0.03243 0.0
O200 O 0.81198 0.50607 0.01781 0.0
O201 O 0.74516 0.43631 0.03287 0.0
C202 C 0.59492 0.20757 0.30243 0.0
O203 O 0.58422 0.17887 0.29412 0.0
Cd204 Cd 0.61793 0.16021 0.26851 0.0
O205 O 0.61949 0.2293 0.29614 0.0
Cd206 Cd 0.6529 0.23862 0.26858 0.0
C207 C 0.71174 0.16997 0.28019 0.0
O208 O 0.61191 0.20738 0.24704 0.0
O209 O 0.66884 0.22116 0.23933 0.0
O210 O 0.62333 0.2996 0.26853 0.0
C211 C 0.6365 0.2089 0.23518 0.0
O212 O 0.68404 0.14867 0.27655 0.0
C213 C 0.6535 0.3179 0.2663 0.0
O214 O 0.70824 0.20521 0.2792 0.0
O215 O 0.68408 0.2993 0.26548 0.0
H216 H 0.13638 0.05822 0.31656 0.0
H217 H 0.10202 0.9542 0.29289 0.0
H218 H 0.19566 0.05548 0.30094 0.0
H219 H 0.16152 0.95178 0.27699 0.0
H220 H 0.29313 0.94269 0.27015 0.0
H221 H 0.22983 0.94319 0.28265 0.0
H222 H 0.21969 0.06057 0.27173 0.0
H223 H 0.28294 0.06023 0.25957 0.0
C224 C 0.14135 0.03484 0.30794 0.0
C225 C 0.1144 0.00643 0.30599 0.0
C226 C 0.17529 0.03342 0.29887 0.0
C227 C 0.18323 0.00353 0.28762 0.0
C228 C 0.15632 0.97506 0.28564 0.0
C229 C 0.12218 0.97655 0.29469 0.0
C230 C 0.27715 0.96845 0.27021 0.0
C231 C 0.29319 0.00149 0.26403 0.0
C232 C 0.24084 0.96872 0.27732 0.0
C233 C 0.21994 0.00204 0.27839 0.0
C234 C 0.23536 0.03461 0.27143 0.0
C235 C 0.27155 0.03436 0.26436 0.0
H236 H 0.18649 0.60094 0.53545 0.0
H237 H 0.08747 0.63064 0.56498 0.0
H238 H 0.18835 0.66363 0.52367 0.0
H239 H 0.0898 0.69344 0.55347 0.0
H240 H 0.08441 0.79426 0.51963 0.0
H241 H 0.08136 0.72879 0.52736 0.0
H242 H 0.20264 0.72655 0.53376 0.0
H243 H 0.20577 0.79203 0.52564 0.0
C244 C 0.165 0.62077 0.53937 0.0
C245 C 0.13687 0.6108 0.5512 0.0
C246 C 0.16624 0.65678 0.53269 0.0
C247 C 0.13933 0.6836 0.53766 0.0
C248 C 0.1107 0.67334 0.54919 0.0
C249 C 0.10946 0.63736 0.55587 0.0
C250 C 0.1105 0.77972 0.52251 0.0
C251 C 0.14534 0.7984 0.52213 0.0
C252 C 0.1087 0.74224 0.52704 0.0
C253 C 0.14169 0.72252 0.53136 0.0
C254 C 0.17671 0.74083 0.53037 0.0
C255 C 0.17852 0.7784 0.52579 0.0
H256 H 0.53013 0.61246 0.822 0.0
H257 H 0.57523 0.57264 0.77355 0.0
H258 H 0.46707 0.61452 0.80938 0.0
H259 H 0.51184 0.57475 0.76094 0.0
H260 H 0.38587 0.53905 0.75427 0.0
H261 H 0.45056 0.5404 0.76508 0.0
H262 H 0.43125 0.65 0.78669 0.0
H263 H 0.3663 0.64878 0.77588 0.0
C264 C 0.52662 0.60413 0.80865 0.0
C265 C 0.55772 0.59224 0.79879 0.0
C266 C 0.49051 0.60562 0.8014 0.0
C267 C 0.48457 0.59493 0.78417 0.0
C268 C 0.51559 0.58296 0.77429 0.0
C269 C 0.55186 0.58184 0.7815 0.0
C270 C 0.39541 0.56356 0.76125 0.0
C271 C 0.37083 0.59375 0.7643 0.0
C272 C 0.43257 0.56439 0.76733 0.0
C273 C 0.4459 0.59524 0.77676 0.0
C274 C 0.42158 0.62571 0.77959 0.0
C275 C 0.38448 0.62507 0.77333 0.0
H276 H 0.59856 0.02098 0.07591 0.0
H277 H 0.50313 0.05052 0.04392 0.0
H278 H 0.60224 0.96057 0.06157 0.0
H279 H 0.50724 0.99001 0.02935 0.0
H280 H 0.50121 0.86097 0.02313 0.0
H281 H 0.4969 0.92352 0.03564 0.0
H282 H 0.61838 0.93334 0.0337 0.0
H283 H 0.62283 0.87089 0.0215 0.0
C284 C 0.57852 0.01471 0.06572 0.0
C285 C 0.55056 0.04061 0.06106 0.0
C286 C 0.58076 0.98011 0.05743 0.0
C287 C 0.55509 0.9705 0.04428 0.0
C288 C 0.52721 0.99645 0.03954 0.0
C289 C 0.52503 0.0312 0.04781 0.0
C290 C 0.52698 0.87655 0.02528 0.0
C291 C 0.56238 0.86074 0.02141 0.0
C292 C 0.52449 0.91248 0.03237 0.0
C293 C 0.55733 0.9333 0.03577 0.0
C294 C 0.59259 0.9178 0.03151 0.0
C295 C 0.59509 0.88201 0.02442 0.0
H296 H 0.26918 0.55307 0.99058 0.0
H297 H 0.24961 0.63104 0.94941 0.0
H298 H 0.32535 0.58785 -0.00075 0.0
H299 H 0.30605 0.66528 0.95788 0.0
H300 H 0.39279 0.73659 0.98648 0.0
H301 H 0.33318 0.70468 0.98045 0.0
H302 H 0.38826 0.5985 0.98795 0.0
H303 H 0.44738 0.63026 0.99426 0.0
C304 C 0.27677 0.57765 0.9834 0.0
C305 C 0.25497 0.58914 0.96925 0.0
C306 C 0.30908 0.59748 0.98832 0.0
C307 C 0.3203 0.62927 0.97921 0.0
C308 C 0.298 0.6412 0.9653 0.0
C309 C 0.26575 0.62137 0.96037 0.0
C310 C 0.39206 0.70645 0.98692 0.0
C311 C 0.42483 0.68597 0.9908 0.0
C312 C 0.35798 0.68816 0.98339 0.0
C313 C 0.35594 0.64902 0.98372 0.0
C314 C 0.38866 0.62866 0.98783 0.0
C315 C 0.42266 0.6469 0.99132 0.0
H316 H 0.63494 0.75956 0.23452 0.0
H317 H 0.53553 0.7239 0.2065 0.0
H318 H 0.60363 0.81818 0.24176 0.0
H319 H 0.50478 0.78286 0.2132 0.0
H320 H 0.44796 0.88125 0.24014 0.0
H321 H 0.47733 0.82057 0.23525 0.0
H322 H 0.58519 0.8741 0.22777 0.0
H323 H 0.55615 0.93443 0.23322 0.0
C324 C 0.60638 0.76419 0.22994 0.0
C325 C 0.5878 0.73712 0.2199 0.0
C326 C 0.58851 0.79792 0.23397 0.0
C327 C 0.55177 0.80547 0.22793 0.0
C328 C 0.53288 0.77791 0.21825 0.0
C329 C 0.55063 0.7441 0.21434 0.0
C330 C 0.47792 0.88004 0.2374 0.0
C331 C 0.4997 0.9127 0.23708 0.0
C332 C 0.49477 0.84524 0.23456 0.0
C333 C 0.53372 0.84235 0.2312 0.0
C334 C 0.55532 0.87513 0.23068 0.0
C335 C 0.53856 0.90982 0.23365 0.0
H336 H 0.40158 0.12901 0.49647 0.0
H337 H 0.40652 0.05493 0.45232 0.0
H338 H 0.34417 0.09781 0.50606 0.0
H339 H 0.34914 0.02438 0.46174 0.0
H340 H 0.2665 0.95436 0.49252 0.0
H341 H 0.32572 0.98409 0.48452 0.0
H342 H 0.27796 0.0919 0.4968 0.0
H343 H 0.21905 0.06232 0.50504 0.0
C344 C 0.39048 0.10612 0.48882 0.0
C345 C 0.40863 0.09453 0.47362 0.0
C346 C 0.35751 0.08837 0.49426 0.0
C347 C 0.34212 0.05861 0.48465 0.0
C348 C 0.36053 0.04685 0.46956 0.0
C349 C 0.39334 0.06459 0.46411 0.0
C350 C 0.26862 0.9844 0.49352 0.0
C351 C 0.23795 0.00592 0.49937 0.0
C352 C 0.30251 0.00144 0.48888 0.0
C353 C 0.30653 0.04036 0.49004 0.0
C354 C 0.27595 0.06183 0.49598 0.0
C355 C 0.24205 0.04484 0.50056 0.0
H356 H 0.10283 0.89272 0.7049 0.0
H357 H 0.0767 0.90335 0.75904 0.0
H358 H 0.13993 0.83699 0.7107 0.0
H359 H 0.11362 0.84681 0.76477 0.0
H360 H 0.1413 0.7174 0.7588 0.0
H361 H 0.10728 0.77631 0.75564 0.0
H362 H 0.20153 0.82155 0.72771 0.0
H363 H 0.23594 0.76277 0.73108 0.0
C364 C 0.10487 0.88311 0.71805 0.0
C365 C 0.08673 0.90245 0.73152 0.0
C366 C 0.12639 0.85134 0.72136 0.0
C367 C 0.12979 0.83779 0.73818 0.0
C368 C 0.11137 0.85675 0.75167 0.0
C369 C 0.09032 0.88905 0.7484 0.0
C370 C 0.15491 0.74003 0.75212 0.0
C371 C 0.19121 0.73545 0.74511 0.0
C372 C 0.13551 0.77377 0.75041 0.0
C373 C 0.15176 0.80335 0.74139 0.0
C374 C 0.18832 0.79904 0.73464 0.0
C375 C 0.20803 0.76551 0.73662 0.0
H376 H 0.73053 0.47582 0.81838 0.0
H377 H 0.76193 0.58535 0.80097 0.0
H378 H 0.79006 0.45089 0.80796 0.0
H379 H 0.82116 0.56008 0.78983 0.0
H380 H 0.94141 0.51173 0.79325 0.0
H381 H 0.87974 0.53769 0.80018 0.0
H382 H 0.82696 0.4347 0.78386 0.0
H383 H 0.88899 0.40826 0.77763 0.0
C384 C 0.7499 0.49451 0.81205 0.0
C385 C 0.74154 0.53264 0.8106 0.0
C386 C 0.78406 0.48012 0.80594 0.0
C387 C 0.81066 0.5034 0.79805 0.0
C388 C 0.80172 0.54139 0.79611 0.0
C389 C 0.76763 0.55588 0.80239 0.0
C390 C 0.91661 0.49471 0.79103 0.0
C391 C 0.92011 0.45783 0.78501 0.0
C392 C 0.88112 0.5097 0.79489 0.0
C393 C 0.84818 0.48832 0.79267 0.0
C394 C 0.85169 0.4518 0.78608 0.0
C395 C 0.88725 0.43666 0.78239 0.0
H396 H 0.54786 0.27103 0.0665 0.0
H397 H 0.63341 0.20385 0.04153 0.0
H398 H 0.58162 0.32724 0.05854 0.0
H399 H 0.6667 0.26017 0.03314 0.0
H400 H 0.73842 0.36628 0.04056 0.0
H401 H 0.70372 0.30906 0.04618 0.0
H402 H 0.59878 0.36563 0.03478 0.0
H403 H 0.63337 0.42298 0.02965 0.0
C404 C 0.57362 0.26825 0.05911 0.0
C405 C 0.58798 0.23291 0.05471 0.0
C406 C 0.59292 0.30054 0.05446 0.0
C407 C 0.62699 0.29831 0.04522 0.0
C408 C 0.64088 0.26294 0.04049 0.0
C409 C 0.62163 0.23063 0.04519 0.0
C410 C 0.70796 0.36641 0.03916 0.0
C411 C 0.68865 0.39923 0.03475 0.0
C412 C 0.68805 0.33355 0.04229 0.0
C413 C 0.64838 0.33271 0.04101 0.0
C414 C 0.62923 0.36539 0.03619 0.0
C415 C 0.64911 0.39824 0.03314 0.0
H416 H 0.92813 0.11922 0.32802 0.0
H417 H 0.90722 0.02538 0.29408 0.0
H418 H 0.86982 0.14839 0.31827 0.0
H419 H 0.84934 0.05507 0.28398 0.0
H420 H 0.72736 0.09662 0.28616 0.0
H421 H 0.78725 0.06903 0.29471 0.0
H422 H 0.83943 0.17769 0.29413 0.0
H423 H 0.77911 0.20555 0.28601 0.0
C424 C 0.91133 0.105 0.31831 0.0
C425 C 0.92225 0.06986 0.31189 0.0
C426 C 0.87795 0.12185 0.31266 0.0
C427 C 0.85475 0.10403 0.3004 0.0
C428 C 0.86619 0.06928 0.29367 0.0
C429 C 0.89951 0.05236 0.29937 0.0
C430 C 0.75157 0.1147 0.28785 0.0
C431 C 0.74836 0.15335 0.28542 0.0
C432 C 0.78604 0.0988 0.29263 0.0
C433 C 0.81825 0.12109 0.29504 0.0
C434 C 0.81509 0.15975 0.29258 0.0
C435 C 0.78052 0.17571 0.28786 0.0
H436 H 0.98985 0.43784 0.57435 0.0
H437 H 0.0963 0.40521 0.55164 0.0
H438 H 0.96213 0.37912 0.56511 0.0
H439 H 0.06813 0.34677 0.54183 0.0
H440 H 0.01921 0.229 0.54761 0.0
H441 H 0.04708 0.28956 0.55382 0.0
H442 H 0.94108 0.34294 0.54116 0.0
H443 H 0.91286 0.28212 0.53555 0.0
C444 C 0.00721 0.41835 0.56715 0.0
C445 C 0.04536 0.42613 0.56382 0.0
C446 C 0.99121 0.3847 0.56174 0.0
C447 C 0.01287 0.35806 0.55275 0.0
C448 C 0.05078 0.36635 0.54898 0.0
C449 C 0.06688 0.39996 0.55451 0.0
C450 C 0.00191 0.25368 0.54608 0.0
C451 C 0.96376 0.25076 0.54121 0.0
C452 C 0.01797 0.28848 0.54952 0.0
C453 C 0.99635 0.32124 0.54803 0.0
C454 C 0.95841 0.31829 0.54273 0.0
C455 C 0.94226 0.28344 0.53942 0.0
H456 H 0.60035 0.18792 0.49212 0.0
H457 H 0.62027 0.08728 0.4625 0.0
H458 H 0.66203 0.18076 0.50595 0.0
H459 H 0.68186 0.08056 0.47606 0.0
H460 H 0.77329 0.05841 0.51539 0.0
H461 H 0.70985 0.06628 0.50385 0.0
H462 H 0.72945 0.18432 0.49854 0.0
H463 H 0.7929 0.17665 0.51041 0.0
C464 C 0.61782 0.16427 0.48858 0.0
C465 C 0.60536 0.13815 0.47622 0.0
C466 C 0.65323 0.1603 0.49643 0.0
C467 C 0.67681 0.13006 0.49213 0.0
C468 C 0.66417 0.10387 0.47986 0.0
C469 C 0.62891 0.10786 0.472 0.0
C470 C 0.76411 0.08611 0.51184 0.0
C471 C 0.78833 0.11687 0.51375 0.0
C472 C 0.72776 0.09057 0.50515 0.0
C473 C 0.7147 0.12587 0.50017 0.0
C474 C 0.73856 0.1568 0.5024 0.0
C475 C 0.775 0.15235 0.50911 0.0
H476 H 0.0029 0.09616 0.73846 0.0
H477 H 0.12035 0.10981 0.72498 0.0
H478 H 0.00271 0.15826 0.75163 0.0
H479 H 0.11988 0.17185 0.73763 0.0
H480 H 0.11905 0.26943 0.77385 0.0
H481 H 0.11665 0.20478 0.76443 0.0
H482 H 0.0054 0.22304 0.74298 0.0
H483 H 0.00734 0.28776 0.7529 0.0
C484 C 0.02871 0.11229 0.73839 0.0
C485 C 0.06165 0.09802 0.73067 0.0
C486 C 0.02851 0.14798 0.74581 0.0
C487 C 0.06125 0.17011 0.74568 0.0
C488 C 0.0943 0.15543 0.73823 0.0
C489 C 0.09452 0.11984 0.73086 0.0
C490 C 0.09395 0.25969 0.7672 0.0
C491 C 0.06351 0.28391 0.76399 0.0
C492 C 0.09265 0.22259 0.76173 0.0
C493 C 0.06102 0.20875 0.75278 0.0
C494 C 0.03008 0.23267 0.74998 0.0
C495 C 0.03127 0.26985 0.75557 0.0
H496 H 0.07108 0.55225 0.98545 0.0
H497 H 0.00392 0.51921 0.94133 0.0
H498 H 0.01557 0.54575 0.00392 0.0
H499 H 0.94889 0.51274 0.95971 0.0
H500 H 0.86334 0.47611 -0.00131 0.0
H501 H 0.92424 0.474 0.984 0.0
H502 H 0.95366 0.58047 0.00653 0.0
H503 H 0.89303 0.58265 0.02125 0.0
C504 C 0.04459 0.54344 0.97972 0.0
C505 C 0.04179 0.53654 0.96192 0.0
C506 C 0.01287 0.53976 0.99028 0.0
C507 C 0.97798 0.52859 0.98326 0.0
C508 C 0.97551 0.5209 0.96553 0.0
C509 C 0.00698 0.52499 0.95498 0.0
C510 C 0.88306 0.49875 0.00076 0.0
C511 C 0.87317 0.52974 0.01099 0.0
C512 C 0.91782 0.49762 0.99227 0.0
C513 C 0.94351 0.52723 0.99401 0.0
C514 C 0.93452 0.55716 0.00502 0.0
C515 C 0.89966 0.55849 0.01336 0.0
H516 H 0.60175 0.55623 0.25668 0.0
H517 H 0.65661 0.51885 0.20997 0.0
H518 H 0.61352 0.49521 0.26957 0.0
H519 H 0.66824 0.45837 0.2228 0.0
H520 H 0.71011 0.36265 0.2546 0.0
H521 H 0.70516 0.42816 0.24654 0.0
H522 H 0.58917 0.43025 0.26353 0.0
H523 H 0.59404 0.36494 0.27161 0.0
C524 C 0.61649 0.53514 0.24922 0.0
C525 C 0.62798 0.54226 0.23227 0.0
C526 C 0.62316 0.50026 0.25659 0.0
C527 C 0.64192 0.47213 0.24721 0.0
C528 C 0.65418 0.47965 0.23043 0.0
C529 C 0.64716 0.51422 0.22303 0.0
C530 C 0.68377 0.37728 0.25688 0.0
C531 C 0.65236 0.35858 0.26358 0.0
C532 C 0.68089 0.4147 0.25219 0.0
C533 C 0.64669 0.43419 0.25429 0.0
C534 C 0.61595 0.41603 0.26187 0.0
C535 C 0.6187 0.37856 0.26639 0.0
H536 H 0.06028 0.90405 0.37427 0.0
H537 H 0.98934 -0.00083 0.38525 0.0
H538 H 0.06554 0.89167 0.405 0.0
H539 H 0.99718 0.98934 0.41575 0.0
H540 H 0.12076 0.91933 0.45664 0.0
H541 H 0.09987 0.91556 0.42702 0.0
H542 H 0.99156 0.96209 0.44175 0.0
H543 H 0.01432 0.96879 0.4713 0.0
C544 C 0.04527 0.92186 0.38329 0.0
C545 C 0.02449 0.95249 0.37739 0.0
C546 C 0.04877 0.91527 0.40094 0.0
C547 C 0.03284 0.94013 0.41311 0.0
C548 C 0.00972 0.9692 0.40703 0.0
C549 C 0.00521 0.97498 0.38939 0.0
C550 C 0.09237 0.92848 0.45354 0.0
C551 C 0.0693 0.94469 0.46621 0.0
C552 C 0.08006 0.92594 0.4365 0.0
C553 C 0.04383 0.9386 0.43171 0.0
C554 C 0.01998 0.95295 0.4447 0.0
C555 C 0.03283 0.95657 0.4617 0.0
H556 H 0.23198 0.54465 0.60623 0.0
H557 H 0.19786 0.43987 0.62822 0.0
H558 H 0.24944 0.56753 0.63467 0.0
H559 H 0.21631 0.46246 0.65667 0.0
H560 H 0.191 0.53791 0.70383 0.0
H561 H 0.18745 0.50725 0.67577 0.0
H562 H 0.28814 0.56521 0.65983 0.0
H563 H 0.29076 0.59701 0.68767 0.0
C564 C 0.22939 0.52603 0.61706 0.0
C565 C 0.21297 0.49066 0.61496 0.0
C566 C 0.23948 0.53914 0.63341 0.0
C567 C 0.23358 0.51709 0.64802 0.0
C568 C 0.2204 0.48045 0.64572 0.0
C569 C 0.21029 0.46732 0.62935 0.0
C570 C 0.21245 0.54398 0.69435 0.0
C571 C 0.24095 0.57013 0.69789 0.0
C572 C 0.21069 0.52607 0.67833 0.0
C573 C 0.23765 0.53359 0.66555 0.0
C574 C 0.2667 0.55908 0.66929 0.0
C575 C 0.26822 0.57727 0.68526 0.0
H576 H 0.72755 0.67673 0.88479 0.0
H577 H 0.6204 0.70723 0.86201 0.0
H578 H 0.70613 0.7006 0.91255 0.0
H579 H 0.5987 0.73011 0.88979 0.0
H580 H 0.57111 0.78087 0.94113 0.0
H581 H 0.60269 0.77314 0.91347 0.0
H582 H 0.66145 0.67645 0.93289 0.0
H583 H 0.63076 0.68489 0.96065 0.0
C584 C 0.69978 0.68936 0.88557 0.0
C585 C 0.67549 0.68956 0.8712 0.0
C586 C 0.68734 0.70266 0.90156 0.0
C587 C 0.65041 0.71655 0.9035 0.0
C588 C 0.62736 0.71971 0.8888 0.0
C589 C 0.63979 0.70646 0.87282 0.0
C590 C 0.59105 0.75819 0.93953 0.0
C591 C 0.59823 0.73332 0.95303 0.0
C592 C 0.60909 0.75371 0.92366 0.0
C593 C 0.63457 0.72415 0.92091 0.0
C594 C 0.6425 0.69992 0.93461 0.0
C595 C 0.62462 0.70452 0.9505 0.0
H596 H 0.40945 0.0655 0.10819 0.0
H597 H 0.43581 0.18085 0.11909 0.0
H598 H 0.39958 0.0549 0.13873 0.0
H599 H 0.42548 0.17023 0.14963 0.0
H600 H 0.37839 0.04614 0.19562 0.0
H601 H 0.36684 0.06714 0.16621 0.0
H602 H 0.46739 0.1349 0.16891 0.0
H603 H 0.47871 0.11442 0.1982 0.0
C604 C 0.41185 0.08893 0.11701 0.0
C605 C 0.4243 0.12378 0.11121 0.0
C606 C 0.4061 0.08285 0.13456 0.0
C607 C 0.41265 0.11153 0.14664 0.0
C608 C 0.42103 0.14739 0.14065 0.0
C609 C 0.42662 0.15352 0.12309 0.0
C610 C 0.39772 0.06594 0.19001 0.0
C611 C 0.42968 0.07832 0.19922 0.0
C612 C 0.3911 0.0779 0.17316 0.0
C613 C 0.41612 0.10272 0.16523 0.0
C614 C 0.44718 0.11626 0.17472 0.0
C615 C 0.4539 0.10418 0.19148 0.0
H616 H 0.09404 0.51626 0.87575 0.0
H617 H 0.16763 0.60847 0.8885 0.0
H618 H 0.10792 0.52433 0.84534 0.0
H619 H 0.18233 0.61576 0.85807 0.0
H620 H 0.19212 0.51075 0.80031 0.0
H621 H 0.16574 0.51055 0.82917 0.0
H622 H 0.15955 0.6307 0.82895 0.0
H623 H 0.18685 0.63111 0.80016 0.0
C624 C 0.1127 0.53866 0.87206 0.0
C625 C 0.13006 0.5615 0.88456 0.0
C626 C 0.12088 0.54304 0.85464 0.0
C627 C 0.1468 0.57014 0.84935 0.0
C628 C 0.16216 0.59466 0.86173 0.0
C629 C 0.1538 0.59043 0.87919 0.0
C630 C 0.18487 0.53715 0.80632 0.0
C631 C 0.19184 0.57094 0.79794 0.0
C632 C 0.16939 0.537 0.82282 0.0
C633 C 0.16034 0.57061 0.8313 0.0
C634 C 0.16649 0.60439 0.82279 0.0
C635 C 0.18204 0.60456 0.80628 0.0
H636 H 0.52644 0.69257 0.14304 0.0
H637 H 0.60327 0.59941 0.13799 0.0
H638 H 0.52548 0.69929 0.11186 0.0
H639 H 0.60221 0.60613 0.10673 0.0
H640 H 0.51463 0.69127 0.05442 0.0
H641 H 0.50774 0.67012 0.08397 0.0
H642 H 0.62857 0.65523 0.08776 0.0
H643 H 0.63559 0.67615 0.05816 0.0
C644 C 0.54242 0.67299 0.13525 0.0
C645 C 0.56503 0.64561 0.14299 0.0
C646 C 0.54178 0.67674 0.11737 0.0
C647 C 0.564 0.65339 0.10686 0.0
C648 C 0.58509 0.62473 0.11453 0.0
C649 C 0.58541 0.62071 0.13242 0.0
C650 C 0.53973 0.68303 0.06145 0.0
C651 C 0.57573 0.68582 0.05397 0.0
C652 C 0.53573 0.67102 0.0784 0.0
C653 C 0.5676 0.66126 0.08821 0.0
C654 C 0.60343 0.66228 0.08048 0.0
C655 C 0.60747 0.67453 0.06355 0.0
H656 H 0.43388 0.12773 0.38338 0.0
H657 H 0.52788 0.05223 0.39035 0.0
H658 H 0.4315 0.1117 0.35294 0.0
H659 H 0.5252 0.03589 0.35962 0.0
H660 H 0.46284 0.98391 0.31089 0.0
H661 H 0.47657 0.00242 0.34055 0.0
H662 H 0.47132 0.11816 0.32609 0.0
H663 H 0.4575 0.09972 0.29634 0.0
C664 C 0.45401 0.10759 0.37842 0.0
C665 C 0.48085 0.09092 0.38929 0.0
C666 C 0.45289 0.09877 0.36093 0.0
C667 C 0.47827 0.07271 0.35393 0.0
C668 C 0.50526 0.05603 0.36474 0.0
C669 C 0.50678 0.06533 0.38227 0.0
C670 C 0.46503 0.01331 0.31399 0.0
C671 C 0.45868 0.0404 0.30134 0.0
C672 C 0.47317 0.02385 0.33094 0.0
C673 C 0.47478 0.06168 0.3356 0.0
C674 C 0.46986 0.08879 0.32283 0.0
C675 C 0.46206 0.07824 0.30583 0.0
H676 H 0.06762 0.03552 0.6503 0.0
H677 H 0.14851 0.9477 0.66007 0.0
H678 H 0.08036 0.03044 0.61955 0.0
H679 H 0.16065 0.94222 0.62935 0.0
H680 H 0.19252 0.95572 0.57384 0.0
H681 H 0.18621 0.97232 0.60414 0.0
H682 H 0.06549 0.98352 0.59746 0.0
H683 H 0.0719 0.96764 0.56697 0.0
C684 C 0.08862 0.01559 0.64593 0.0
C685 C 0.10689 0.9918 0.65763 0.0
C686 C 0.09562 0.01247 0.62829 0.0
C687 C 0.12115 0.98564 0.622 0.0
C688 C 0.141 0.96336 0.63379 0.0
C689 C 0.13396 0.96643 0.65141 0.0
C690 C 0.16463 0.96197 0.5788 0.0
C691 C 0.13263 0.9601 0.56805 0.0
C692 C 0.16104 0.97138 0.59618 0.0
C693 C 0.12537 0.97908 0.60322 0.0
C694 C 0.09344 0.97819 0.59237 0.0
C695 C 0.09705 0.96881 0.57494 0.0
H696 H 0.74601 0.5755 0.88733 0.0
H697 H 0.62854 0.54311 0.88886 0.0
H698 H 0.74834 0.57589 0.91865 0.0
H699 H 0.63139 0.54274 0.92048 0.0
H700 H 0.68565 0.5054 0.97573 0.0
H701 H 0.67344 0.50489 0.94467 0.0
H702 H 0.71104 0.61883 0.94169 0.0
H703 H 0.72278 0.61981 0.97268 0.0
C704 C 0.72084 0.5678 0.89433 0.0
C705 C 0.68709 0.55916 0.88561 0.0
C706 C 0.72213 0.56842 0.91226 0.0
C707 C 0.68993 0.55976 0.92188 0.0
C708 C 0.65652 0.54963 0.91327 0.0
C709 C 0.65497 0.54974 0.89524 0.0
C710 C 0.69064 0.53058 0.96851 0.0
C711 C 0.70556 0.56254 0.97665 0.0
C712 C 0.68354 0.53025 0.95078 0.0
C713 C 0.69177 0.56166 0.94088 0.0
C714 C 0.70484 0.59416 0.9491 0.0
C715 C 0.71138 0.59471 0.96683 0.0
H716 H 0.52732 0.15646 0.13794 0.0
H717 H 0.64616 0.15497 0.1255 0.0
H718 H 0.54247 0.16733 0.168 0.0
H719 H 0.66164 0.16375 0.15588 0.0
H720 H 0.67527 0.22738 0.2064 0.0
H721 H 0.66122 0.21032 0.17676 0.0
H722 H 0.56594 0.14529 0.19389 0.0
H723 H 0.57901 0.16436 0.22355 0.0
C724 C 0.55681 0.15772 0.14169 0.0
C725 C 0.58559 0.15521 0.12929 0.0
C726 C 0.56554 0.16373 0.15903 0.0
C727 C 0.60334 0.16677 0.1645 0.0
C728 C 0.63217 0.16255 0.15215 0.0
C729 C 0.62338 0.15719 0.13472 0.0
C730 C 0.65134 0.2094 0.20382 0.0
C731 C 0.62812 0.19736 0.21727 0.0
C732 C 0.64344 0.19926 0.1868 0.0
C733 C 0.61249 0.1762 0.18279 0.0
C734 C 0.58963 0.1636 0.19637 0.0
C735 C 0.59717 0.17436 0.2134 0.0
H736 H 0.05373 0.0502 0.39803 0.0
H737 H 0.96644 0.13362 0.39262 0.0
H738 H 0.0466 0.05288 0.42933 0.0
H739 H 0.95955 0.13649 0.42381 0.0
H740 H 0.97148 0.03025 0.47849 0.0
H741 H 0.99365 0.03298 0.44879 0.0
H742 H 0.99212 0.15311 0.45136 0.0
H743 H 0.96982 0.15062 0.48096 0.0
C744 C 0.03377 0.06984 0.40353 0.0
C745 C 0.01059 0.09172 0.39287 0.0
C746 C 0.02948 0.07112 0.42144 0.0
C747 C 0.00246 0.09481 0.42901 0.0
C748 C 0.98087 0.1182 0.41837 0.0
C749 C 0.98473 0.1165 0.4005 0.0
C750 C 0.97641 0.05725 0.47282 0.0
C751 C 0.9684 0.0902 0.48206 0.0
C752 C 0.98936 0.05878 0.45584 0.0
C753 C 0.99435 0.09326 0.44773 0.0
C754 C 0.9881 0.12615 0.45722 0.0
C755 C 0.97542 0.12466 0.47421 0.0
H756 H 0.11797 0.42596 0.63735 0.0
H757 H 0.06919 0.53624 0.64057 0.0
H758 H 0.11848 0.42221 0.66859 0.0
H759 H 0.06905 0.532 0.67218 0.0
H760 H 0.03262 0.47195 0.72539 0.0
H761 H 0.03483 0.48733 0.69476 0.0
H762 H 0.153 0.45778 0.69345 0.0
H763 H 0.15118 0.44289 0.72399 0.0
C764 C 0.10696 0.4493 0.64473 0.0
C765 C 0.09316 0.48128 0.63649 0.0
C766 C 0.10765 0.44727 0.66264 0.0
C767 C 0.094 0.47689 0.67277 0.0
C768 C 0.07972 0.50879 0.66461 0.0
C769 C 0.07975 0.51117 0.64659 0.0
C770 C 0.05925 0.46939 0.71865 0.0
C771 C 0.09162 0.45577 0.72711 0.0
C772 C 0.06051 0.47837 0.70115 0.0
C773 C 0.09399 0.47343 0.69176 0.0
C774 C 0.12675 0.46158 0.70039 0.0
C775 C 0.12567 0.45312 0.7179 0.0
H776 H 0.57486 0.25105 0.41227 0.0
H777 H 0.48072 0.18049 0.39881 0.0
H778 H 0.58551 0.26334 0.38193 0.0
H779 H 0.49386 0.18835 0.36874 0.0
H780 H 0.52227 0.20218 0.31373 0.0
H781 H 0.49916 0.21269 0.34285 0.0
H782 H 0.6137 0.23604 0.3597 0.0
H783 H 0.63522 0.22939 0.33033 0.0
C784 C 0.5562 0.23848 0.40279 0.0
C785 C 0.52744 0.21428 0.40792 0.0
C786 C 0.56273 0.24479 0.3853 0.0
C787 C 0.54178 0.22563 0.3725 0.0
C788 C 0.51091 0.20391 0.37785 0.0
C789 C 0.50339 0.19902 0.3953 0.0
C790 C 0.54215 0.21013 0.32374 0.0
C791 C 0.58045 0.21488 0.31989 0.0
C792 C 0.52908 0.21588 0.34055 0.0
C793 C 0.55435 0.22494 0.35406 0.0
C794 C 0.59276 0.23011 0.3499 0.0
C795 C 0.60543 0.22581 0.333 0.0
H796 H 0.90009 0.05917 0.67618 0.0
H797 H 0.98308 0.98279 0.6556 0.0
H798 H 0.88077 0.07534 0.64701 0.0
H799 H 0.96638 0.00084 0.62665 0.0
H800 H 0.9266 0.03146 0.57421 0.0
H801 H 0.92926 0.00402 0.60278 0.0
H802 H 0.90262 0.11164 0.62536 0.0
H803 H 0.89717 0.1378 0.5968 0.0
C804 C 0.91376 0.04545 0.66539 0.0
C805 C 0.94295 0.01971 0.66816 0.0
C806 C 0.90319 0.05511 0.64863 0.0
C807 C 0.92252 0.04018 0.63427 0.0
C808 C 0.95029 0.01276 0.63717 0.0
C809 C 0.96002 0.00234 0.65389 0.0
C810 C 0.921 0.04899 0.58535 0.0
C811 C 0.91187 0.08674 0.58333 0.0
C812 C 0.9227 0.03337 0.60178 0.0
C813 C 0.91639 0.05546 0.61661 0.0
C814 C 0.90681 0.09325 0.61441 0.0
C815 C 0.9041 0.10852 0.59799 0.0
H816 H 0.19946 0.45633 0.90461 0.0
H817 H 0.08899 0.42158 0.92155 0.0
H818 H 0.18433 0.43554 0.87546 0.0
H819 H 0.07345 0.4021 0.89242 0.0
H820 H 0.1195 0.45855 0.82481 0.0
H821 H 0.14493 0.46195 0.85395 0.0
H822 H 0.08077 0.36433 0.86757 0.0
H823 H 0.0546 0.36166 0.83852 0.0
C824 C 0.17232 0.44335 0.90224 0.0
C825 C 0.14518 0.4413 0.91538 0.0
C826 C 0.16345 0.43188 0.88545 0.0
C827 C 0.12727 0.41812 0.88145 0.0
C828 C 0.1016 0.41254 0.89496 0.0
C829 C 0.11055 0.42376 0.91176 0.0
C830 C 0.11104 0.43772 0.83401 0.0
C831 C 0.08475 0.41013 0.82942 0.0
C832 C 0.12587 0.43941 0.8507 0.0
C833 C 0.11485 0.41346 0.8632 0.0
C834 C 0.08946 0.38512 0.85839 0.0
C835 C 0.07451 0.38354 0.84172 0.0
H836 H 0.70007 0.67109 0.15465 0.0
H837 H 0.74257 0.56407 0.171 0.0
H838 H 0.72059 0.65743 0.12536 0.0
H839 H 0.76181 0.54996 0.14175 0.0
H840 H 0.69751 0.59092 0.07489 0.0
H841 H 0.69454 0.61658 0.10397 0.0
H842 H 0.79855 0.55966 0.11683 0.0
H843 H 0.80057 0.53282 0.08792 0.0
C844 C 0.71464 0.64505 0.15211 0.0
C845 C 0.71894 0.61832 0.16511 0.0
C846 C 0.72601 0.63705 0.13526 0.0
C847 C 0.74192 0.6022 0.13108 0.0
C848 C 0.74967 0.5771 0.14444 0.0
C849 C 0.73849 0.58517 0.16128 0.0
C850 C 0.71987 0.58415 0.0839 0.0
C851 C 0.74898 0.55948 0.07921 0.0
C852 C 0.71844 0.59917 0.10054 0.0
C853 C 0.74633 0.59018 0.11281 0.0
C854 C 0.77631 0.56672 0.10782 0.0
C855 C 0.77749 0.55138 0.09124 0.0
loop_
_geom_bond_atom_site_label_1
_geom_bond_atom_site_label_2
_geom_bond_distance
_geom_bond_site_symmetry_2
_ccdc_geom_bond_type
Mg0 O7 2.141 . S
Mg0 O8 2.048 1_545 S
Mg0 O9 2.048 1_455 S
Mg0 O12 2.141 1_455 S
C1 O2 1.313 . S
C1 O8 1.195 . S
O2 C1 1.313 . S
C3 O4 1.245 . S
C3 O12 1.289 . S
O4 C3 1.245 . S
C5 O6 1.245 . S
C5 O7 1.289 1_565 S
O6 C5 1.245 . S
O7 Mg0 2.141 . S
O7 C5 1.289 1_545 S
O8 Mg0 2.048 1_565 S
O8 C1 1.195 . S
O9 Mg0 2.048 1_655 S
O9 C10 1.195 . S
C10 O9 1.195 . S
C10 O11 1.313 1_545 S
O11 C10 1.313 1_565 S
O12 Mg0 2.141 1_655 S
O12 C3 1.289 . S
Mg13 O20 2.141 . S
Mg13 O21 2.048 . S
Mg13 O22 2.048 . S
Mg13 O25 2.141 . S
C14 O15 1.313 . S
C14 O21 1.195 . S
O15 C14 1.313 . S
C16 O17 1.245 . S
C16 O25 1.289 . S
O17 C16 1.245 . S
C18 O19 1.245 . S
C18 O20 1.289 . S
O19 C18 1.245 . S
O20 Mg13 2.141 . S
O20 C18 1.289 . S
O21 Mg13 2.048 . S
O21 C14 1.195 . S
O22 Mg13 2.048 . S
O22 C23 1.195 . S
C23 O22 1.195 . S
C23 O24 1.313 . S
O24 C23 1.313 . S
O25 Mg13 2.141 . S
O25 C16 1.289 . S
Mg26 O33 2.141 . S
Mg26 O34 2.048 . S
Mg26 O35 2.048 . S
Mg26 O38 2.141 . S
C27 O28 1.313 . S
C27 O34 1.195 . S
O28 C27 1.313 . S
C29 O30 1.245 . S
C29 O38 1.289 . S
O30 C29 1.245 . S
C31 O32 1.245 . S
C31 O33 1.289 . S
O32 C31 1.245 . S
O33 Mg26 2.141 . S
O33 C31 1.289 . S
O34 Mg26 2.048 . S
O34 C27 1.195 . S
O35 Mg26 2.048 . S
O35 C36 1.195 . S
C36 O35 1.195 . S
C36 O37 1.313 . S
O37 C36 1.313 . S
O38 Mg26 2.141 . S
O38 C29 1.289 . S
Mg39 O46 2.141 . S
Mg39 O47 2.048 . S
Mg39 O48 2.048 . S
Mg39 O51 2.141 . S
C40 O41 1.313 . S
C40 O47 1.195 . S
O41 C40 1.313 . S
C42 O43 1.245 . S
C42 O51 1.289 . S
O43 C42 1.245 . S
C44 O45 1.245 . S
C44 O46 1.289 . S
O45 C44 1.245 . S
O46 Mg39 2.141 . S
O46 C44 1.289 . S
O47 Mg39 2.048 . S
O47 C40 1.195 . S
O48 Mg39 2.048 . S
O48 C49 1.195 . S
C49 O48 1.195 . S
C49 O50 1.313 . S
O50 C49 1.313 . S
O51 Mg39 2.141 . S
O51 C42 1.289 . S
Mg52 O59 2.141 . S
Mg52 O60 2.048 . S
Mg52 O61 2.048 . S
Mg52 O64 2.141 . S
C53 O54 1.313 . S
C53 O60 1.195 . S
O54 C53 1.313 . S
C55 O56 1.245 . S
C55 O64 1.289 . S
O56 C55 1.245 . S
C57 O58 1.245 . S
C57 O59 1.289 . S
O58 C57 1.245 . S
O59 Mg52 2.141 . S
O59 C57 1.289 . S
O60 Mg52 2.048 . S
O60 C53 1.195 . S
O61 Mg52 2.048 . S
O61 C62 1.195 . S
C62 O61 1.195 . S
C62 O63 1.313 . S
O63 C62 1.313 . S
O64 Mg52 2.141 . S
O64 C55 1.289 . S
Mg65 O72 2.141 . S
Mg65 O73 2.048 . S
Mg65 O74 2.048 . S
Mg65 O77 2.141 . S
C66 O67 1.313 . S
C66 O73 1.195 . S
O67 C66 1.313 . S
C68 O69 1.245 . S
C68 O77 1.289 . S
O69 C68 1.245 . S
C70 O71 1.245 . S
C70 O72 1.289 . S
O71 C70 1.245 . S
O72 Mg65 2.141 . S
O72 C70 1.289 . S
O73 Mg65 2.048 . S
O73 C66 1.195 . S
O74 Mg65 2.048 . S
O74 C75 1.195 . S
C75 O74 1.195 . S
C75 O76 1.313 . S
O76 C75 1.313 . S
O77 Mg65 2.141 . S
O77 C68 1.289 . S
Mg78 O85 2.141 . S
Mg78 O86 2.048 . S
Mg78 O87 2.048 . S
Mg78 O90 2.141 . S
C79 O80 1.313 . S
C79 O86 1.195 . S
O80 C79 1.313 . S
C81 O82 1.245 . S
C81 O90 1.289 . S
O82 C81 1.245 . S
C83 O84 1.245 . S
C83 O85 1.289 . S
O84 C83 1.245 . S
O85 Mg78 2.141 . S
O85 C83 1.289 . S
O86 Mg78 2.048 . S
O86 C79 1.195 . S
O87 Mg78 2.048 . S
O87 C88 1.195 . S
C88 O87 1.195 . S
C88 O89 1.313 . S
O89 C88 1.313 . S
O90 Mg78 2.141 . S
O90 C81 1.289 . S
Mg91 O98 2.141 . S
Mg91 O99 2.048 . S
Mg91 O100 2.048 1_465 S
Mg91 O103 2.141 1_465 S
C92 O93 1.313 . S
C92 O99 1.195 . S
O93 C92 1.313 . S
C94 O95 1.245 1_655 S
C94 O103 1.289 . S
O95 C94 1.245 1_455 S
C96 O97 1.245 . S
C96 O98 1.289 . S
O97 C96 1.245 . S
O98 Mg91 2.141 . S
O98 C96 1.289 . S
O99 Mg91 2.048 . S
O99 C92 1.195 . S
O100 Mg91 2.048 1_645 S
O100 C101 1.195 . S
C101 O100 1.195 . S
C101 O102 1.313 1_655 S
O102 C101 1.313 1_455 S
O103 Mg91 2.141 1_645 S
O103 C94 1.289 . S
C104 O105 1.306 . S
C104 O107 1.160 . S
O105 C104 1.306 . S
O105 Cd106 2.228 . S
Cd106 O105 2.228 . S
Cd106 O110 2.273 1_554 S
Cd106 O114 2.277 . S
O107 C104 1.160 . S
O107 Cd108 2.203 . S
Cd108 O107 2.203 . S
Cd108 O110 2.411 1_554 S
Cd108 O111 2.333 1_554 S
Cd108 O112 2.352 . S
Cd108 O116 2.277 . S
Cd108 O117 2.356 . S
C109 O114 1.209 . S
C109 O116 1.226 . S
O110 Cd106 2.273 1_556 S
O110 Cd108 2.411 1_556 S
O110 C113 1.320 . S
O111 Cd108 2.333 1_556 S
O111 C113 1.214 . S
O112 Cd108 2.352 . S
O112 C115 1.258 . S
C113 O110 1.320 . S
C113 O111 1.214 . S
O114 Cd106 2.277 . S
O114 C109 1.209 . S
C115 O112 1.258 . S
C115 O117 1.282 . S
O116 Cd108 2.277 . S
O116 C109 1.226 . S
O117 Cd108 2.356 . S
O117 C115 1.282 . S
C118 O119 1.306 . S
C118 O121 1.160 . S
O119 C118 1.306 . S
O119 Cd120 2.228 . S
Cd120 O119 2.228 . S
Cd120 O124 2.273 . S
Cd120 O128 2.277 . S
O121 C118 1.160 . S
O121 Cd122 2.203 . S
Cd122 O121 2.203 . S
Cd122 O124 2.411 . S
Cd122 O125 2.333 . S
Cd122 O126 2.352 . S
Cd122 O130 2.277 . S
Cd122 O131 2.356 . S
C123 O128 1.209 . S
C123 O130 1.226 . S
O124 Cd120 2.273 . S
O124 Cd122 2.411 . S
O124 C127 1.320 . S
O125 Cd122 2.333 . S
O125 C127 1.214 . S
O126 Cd122 2.352 . S
O126 C129 1.258 . S
C127 O124 1.320 . S
C127 O125 1.214 . S
O128 Cd120 2.277 . S
O128 C123 1.209 . S
C129 O126 1.258 . S
C129 O131 1.282 . S
O130 Cd122 2.277 . S
O130 C123 1.226 . S
O131 Cd122 2.356 . S
O131 C129 1.282 . S
C132 O133 1.306 . S
C132 O135 1.160 . S
O133 C132 1.306 . S
O133 Cd134 2.228 . S
Cd134 O133 2.228 . S
Cd134 O138 2.273 . S
Cd134 O142 2.277 . S
O135 C132 1.160 . S
O135 Cd136 2.203 . S
Cd136 O135 2.203 . S
Cd136 O138 2.411 . S
Cd136 O139 2.333 . S
Cd136 O140 2.352 . S
Cd136 O144 2.277 . S
Cd136 O145 2.356 . S
C137 O142 1.209 . S
C137 O144 1.226 . S
O138 Cd134 2.273 . S
O138 Cd136 2.411 . S
O138 C141 1.320 . S
O139 Cd136 2.333 . S
O139 C141 1.214 . S
O140 Cd136 2.352 . S
O140 C143 1.258 . S
C141 O138 1.320 . S
C141 O139 1.214 . S
O142 Cd134 2.277 . S
O142 C137 1.209 . S
C143 O140 1.258 . S
C143 O145 1.282 . S
O144 Cd136 2.277 . S
O144 C137 1.226 . S
O145 Cd136 2.356 . S
O145 C143 1.282 . S
C146 O147 1.306 . S
C146 O149 1.160 . S
O147 C146 1.306 . S
O147 Cd148 2.228 . S
Cd148 O147 2.228 . S
Cd148 O152 2.273 . S
Cd148 O156 2.277 . S
O149 C146 1.160 . S
O149 Cd150 2.203 . S
Cd150 O149 2.203 . S
Cd150 O152 2.411 . S
Cd150 O153 2.333 . S
Cd150 O154 2.352 . S
Cd150 O158 2.277 . S
Cd150 O159 2.356 . S
C151 O156 1.209 . S
C151 O158 1.226 . S
O152 Cd148 2.273 . S
O152 Cd150 2.411 . S
O152 C155 1.320 . S
O153 Cd150 2.333 . S
O153 C155 1.214 . S
O154 Cd150 2.352 . S
O154 C157 1.258 . S
C155 O152 1.320 . S
C155 O153 1.214 . S
O156 Cd148 2.277 . S
O156 C151 1.209 . S
C157 O154 1.258 . S
C157 O159 1.282 . S
O158 Cd150 2.277 . S
O158 C151 1.226 . S
O159 Cd150 2.356 . S
O159 C157 1.282 . S
C160 O161 1.306 . S
C160 O163 1.160 . S
O161 C160 1.306 . S
O161 Cd162 2.228 . S
Cd162 O161 2.228 . S
Cd162 O166 2.273 . S
Cd162 O170 2.277 . S
O163 C160 1.160 . S
O163 Cd164 2.203 . S
Cd164 O163 2.203 . S
Cd164 O166 2.411 . S
Cd164 O167 2.333 . S
Cd164 O168 2.352 . S
Cd164 O172 2.277 . S
Cd164 O173 2.356 . S
C165 O170 1.209 . S
C165 O172 1.226 . S
O166 Cd162 2.273 . S
O166 Cd164 2.411 . S
O166 C169 1.320 . S
O167 Cd164 2.333 . S
O167 C169 1.214 . S
O168 Cd164 2.352 . S
O168 C171 1.258 . S
C169 O166 1.320 . S
C169 O167 1.214 . S
O170 Cd162 2.277 . S
O170 C165 1.209 . S
C171 O168 1.258 . S
C171 O173 1.282 . S
O172 Cd164 2.277 . S
O172 C165 1.226 . S
O173 Cd164 2.356 . S
O173 C171 1.282 . S
C174 O175 1.306 1_655 S
C174 O177 1.160 . S
O175 C174 1.306 1_455 S
O175 Cd176 2.228 . S
Cd176 O175 2.228 . S
Cd176 O180 2.273 1_455 S
Cd176 O184 2.277 1_455 S
O177 C174 1.160 . S
O177 Cd178 2.203 . S
Cd178 O177 2.203 . S
Cd178 O180 2.411 . S
Cd178 O181 2.333 . S
Cd178 O182 2.352 . S
Cd178 O186 2.277 . S
Cd178 O187 2.356 . S
C179 O184 1.209 . S
C179 O186 1.226 . S
O180 Cd176 2.273 1_655 S
O180 Cd178 2.411 . S
O180 C183 1.320 . S
O181 Cd178 2.333 . S
O181 C183 1.214 . S
O182 Cd178 2.352 . S
O182 C185 1.258 . S
C183 O180 1.320 . S
C183 O181 1.214 . S
O184 Cd176 2.277 1_655 S
O184 C179 1.209 . S
C185 O182 1.258 . S
C185 O187 1.282 . S
O186 Cd178 2.277 . S
O186 C179 1.226 . S
O187 Cd178 2.356 . S
O187 C185 1.282 . S
C188 O189 1.306 1_556 S
C188 O191 1.160 1_556 S
O189 C188 1.306 1_554 S
O189 Cd190 2.228 . S
Cd190 O189 2.228 . S
Cd190 O194 2.273 . S
Cd190 O198 2.277 . S
O191 C188 1.160 1_554 S
O191 Cd192 2.203 . S
Cd192 O191 2.203 . S
Cd192 O194 2.411 . S
Cd192 O195 2.333 . S
Cd192 O196 2.352 . S
Cd192 O200 2.277 . S
Cd192 O201 2.356 . S
C193 O198 1.209 . S
C193 O200 1.226 . S
O194 Cd190 2.273 . S
O194 Cd192 2.411 . S
O194 C197 1.320 . S
O195 Cd192 2.333 . S
O195 C197 1.214 . S
O196 Cd192 2.352 . S
O196 C199 1.258 . S
C197 O194 1.320 . S
C197 O195 1.214 . S
O198 Cd190 2.277 . S
O198 C193 1.209 . S
C199 O196 1.258 . S
C199 O201 1.282 . S
O200 Cd192 2.277 . S
O200 C193 1.226 . S
O201 Cd192 2.356 . S
O201 C199 1.282 . S
C202 O203 1.306 . S
C202 O205 1.160 . S
O203 C202 1.306 . S
O203 Cd204 2.228 . S
Cd204 O203 2.228 . S
Cd204 O208 2.273 . S
Cd204 O212 2.277 . S
O205 C202 1.160 . S
O205 Cd206 2.203 . S
Cd206 O205 2.203 . S
Cd206 O208 2.411 . S
Cd206 O209 2.333 . S
Cd206 O210 2.352 . S
Cd206 O214 2.277 . S
Cd206 O215 2.356 . S
C207 O212 1.209 . S
C207 O214 1.226 . S
O208 Cd204 2.273 . S
O208 Cd206 2.411 . S
O208 C211 1.320 . S
O209 Cd206 2.333 . S
O209 C211 1.214 . S
O210 Cd206 2.352 . S
O210 C213 1.258 . S
C211 O208 1.320 . S
C211 O209 1.214 . S
O212 Cd204 2.277 . S
O212 C207 1.209 . S
C213 O210 1.258 . S
C213 O215 1.282 . S
O214 Cd206 2.277 . S
O214 C207 1.226 . S
O215 Cd206 2.356 . S
O215 C213 1.282 . S
H216 C224 0.950 1_545 S
H217 C229 0.950 . S
H218 C226 0.950 1_545 S
H219 C228 0.950 . S
H220 C230 0.950 . S
H221 C232 0.950 . S
H222 C234 0.950 . S
H223 C235 0.950 . S
C224 H216 0.950 1_565 S
C224 C225 1.386 . S
C224 C226 1.391 . S
C225 C224 1.386 . S
C225 C229 1.393 . S
C226 H218 0.950 1_565 S
C226 C224 1.391 . S
C226 C227 1.400 . S
C227 C226 1.400 . S
C227 C228 1.398 . S
C227 C233 1.491 . S
C228 H219 0.950 . S
C228 C227 1.398 . S
C228 C229 1.391 . S
C229 H217 0.950 . S
C229 C225 1.393 . S
C229 C228 1.391 . S
C230 H220 0.950 . S
C230 C231 1.386 . S
C230 C232 1.391 . S
C231 C230 1.386 . S
C231 C235 1.393 . S
C232 H221 0.950 . S
C232 C230 1.391 . S
C232 C233 1.400 . S
C233 C227 1.491 . S
C233 C232 1.400 . S
C233 C234 1.398 . S
C234 H222 0.950 . S
C234 C233 1.398 . S
C234 C235 1.391 . S
C235 H223 0.950 . S
C235 C231 1.393 . S
C235 C234 1.391 . S
H236 C244 0.950 . S
H237 C249 0.950 . S
H238 C246 0.950 . S
H239 C248 0.950 . S
H240 C250 0.950 . S
H241 C252 0.950 . S
H242 C254 0.950 . S
H243 C255 0.950 . S
C244 H236 0.950 . S
C244 C245 1.386 . S
C244 C246 1.391 . S
C245 C244 1.386 . S
C245 C249 1.393 . S
C246 H238 0.950 . S
C246 C244 1.391 . S
C246 C247 1.400 . S
C247 C246 1.400 . S
C247 C248 1.398 . S
C247 C253 1.491 . S
C248 H239 0.950 . S
C248 C247 1.398 . S
C248 C249 1.391 . S
C249 H237 0.950 . S
C249 C245 1.393 . S
C249 C248 1.391 . S
C250 H240 0.950 . S
C250 C251 1.386 . S
C250 C252 1.391 . S
C251 C250 1.386 . S
C251 C255 1.393 . S
C252 H241 0.950 . S
C252 C250 1.391 . S
C252 C253 1.400 . S
C253 C247 1.491 . S
C253 C252 1.400 . S
C253 C254 1.398 . S
C254 H242 0.950 . S
C254 C253 1.398 . S
C254 C255 1.391 . S
C255 H243 0.950 . S
C255 C251 1.393 . S
C255 C254 1.391 . S
H256 C264 0.950 . S
H257 C269 0.950 . S
H258 C266 0.950 . S
H259 C268 0.950 . S
H260 C270 0.950 . S
H261 C272 0.950 . S
H262 C274 0.950 . S
H263 C275 0.950 . S
C264 H256 0.950 . S
C264 C265 1.386 . S
C264 C266 1.391 . S
C265 C264 1.386 . S
C265 C269 1.393 . S
C266 H258 0.950 . S
C266 C264 1.391 . S
C266 C267 1.400 . S
C267 C266 1.400 . S
C267 C268 1.398 . S
C267 C273 1.491 . S
C268 H259 0.950 . S
C268 C267 1.398 . S
C268 C269 1.391 . S
C269 H257 0.950 . S
C269 C265 1.393 . S
C269 C268 1.391 . S
C270 H260 0.950 . S
C270 C271 1.386 . S
C270 C272 1.391 . S
C271 C270 1.386 . S
C271 C275 1.393 . S
C272 H261 0.950 . S
C272 C270 1.391 . S
C272 C273 1.400 . S
C273 C267 1.491 . S
C273 C272 1.400 . S
C273 C274 1.398 . S
C274 H262 0.950 . S
C274 C273 1.398 . S
C274 C275 1.391 . S
C275 H263 0.950 . S
C275 C271 1.393 . S
C275 C274 1.391 . S
H276 C284 0.950 . S
H277 C289 0.950 . S
H278 C286 0.950 1_565 S
H279 C288 0.950 . S
H280 C290 0.950 . S
H281 C292 0.950 . S
H282 C294 0.950 . S
H283 C295 0.950 . S
C284 H276 0.950 . S
C284 C285 1.386 . S
C284 C286 1.391 . S
C285 C284 1.386 . S
C285 C289 1.393 . S
C286 H278 0.950 1_545 S
C286 C284 1.391 . S
C286 C287 1.400 . S
C287 C286 1.400 . S
C287 C288 1.398 . S
C287 C293 1.491 1_545 S
C288 H279 0.950 . S
C288 C287 1.398 . S
C288 C289 1.391 . S
C289 H277 0.950 . S
C289 C285 1.393 . S
C289 C288 1.391 . S
C290 H280 0.950 . S
C290 C291 1.386 . S
C290 C292 1.391 . S
C291 C290 1.386 . S
C291 C295 1.393 . S
C292 H281 0.950 . S
C292 C290 1.391 . S
C292 C293 1.400 . S
C293 C287 1.491 1_565 S
C293 C292 1.400 . S
C293 C294 1.398 . S
C294 H282 0.950 . S
C294 C293 1.398 . S
C294 C295 1.391 . S
C295 H283 0.950 . S
C295 C291 1.393 . S
C295 C294 1.391 . S
H296 C304 0.950 . S
H297 C309 0.950 . S
H298 C306 0.962 . S
H299 C308 0.950 . S
H300 C310 0.950 . S
H301 C312 0.950 . S
H302 C314 0.950 . S
H303 C315 0.950 . S
C304 H296 0.950 . S
C304 C305 1.386 . S
C304 C306 1.391 . S
C305 C304 1.386 . S
C305 C309 1.393 . S
C306 H298 0.962 . S
C306 C304 1.391 . S
C306 C307 1.400 . S
C307 C306 1.400 . S
C307 C308 1.398 . S
C307 C313 1.491 . S
C308 H299 0.950 . S
C308 C307 1.398 . S
C308 C309 1.391 . S
C309 H297 0.950 . S
C309 C305 1.393 . S
C309 C308 1.391 . S
C310 H300 0.950 . S
C310 C311 1.386 . S
C310 C312 1.391 . S
C311 C310 1.386 . S
C311 C315 1.393 1_556 S
C312 H301 0.950 . S
C312 C310 1.391 . S
C312 C313 1.400 . S
C313 C307 1.491 . S
C313 C312 1.400 . S
C313 C314 1.398 1_556 S
C314 H302 0.950 . S
C314 C313 1.398 1_554 S
C314 C315 1.391 . S
C315 H303 0.950 . S
C315 C311 1.393 1_554 S
C315 C314 1.391 . S
H316 C324 0.950 . S
H317 C329 0.950 . S
H318 C326 0.950 . S
H319 C328 0.950 . S
H320 C330 0.950 . S
H321 C332 0.950 . S
H322 C334 0.950 . S
H323 C335 0.950 . S
C324 H316 0.950 . S
C324 C325 1.386 . S
C324 C326 1.391 . S
C325 C324 1.386 . S
C325 C329 1.393 . S
C326 H318 0.950 . S
C326 C324 1.391 . S
C326 C327 1.400 . S
C327 C326 1.400 . S
C327 C328 1.398 . S
C327 C333 1.491 . S
C328 H319 0.950 . S
C328 C327 1.398 . S
C328 C329 1.391 . S
C329 H317 0.950 . S
C329 C325 1.393 . S
C329 C328 1.391 . S
C330 H320 0.950 . S
C330 C331 1.386 . S
C330 C332 1.391 . S
C331 C330 1.386 . S
C331 C335 1.393 . S
C332 H321 0.950 . S
C332 C330 1.391 . S
C332 C333 1.400 . S
C333 C327 1.491 . S
C333 C332 1.400 . S
C333 C334 1.398 . S
C334 H322 0.950 . S
C334 C333 1.398 . S
C334 C335 1.391 . S
C335 H323 0.950 . S
C335 C331 1.393 . S
C335 C334 1.391 . S
H336 C344 0.950 . S
H337 C349 0.950 . S
H338 C346 0.950 . S
H339 C348 0.950 1_565 S
H340 C350 0.950 . S
H341 C352 0.950 . S
H342 C354 0.950 1_545 S
H343 C355 0.950 . S
C344 H336 0.950 . S
C344 C345 1.386 . S
C344 C346 1.391 . S
C345 C344 1.386 . S
C345 C349 1.393 . S
C346 H338 0.950 . S
C346 C344 1.391 . S
C346 C347 1.400 . S
C347 C346 1.400 . S
C347 C348 1.398 . S
C347 C353 1.491 1_545 S
C348 H339 0.950 1_545 S
C348 C347 1.398 . S
C348 C349 1.391 . S
C349 H337 0.950 . S
C349 C345 1.393 . S
C349 C348 1.391 . S
C350 H340 0.950 . S
C350 C351 1.386 . S
C350 C352 1.391 . S
C351 C350 1.386 . S
C351 C355 1.393 . S
C352 H341 0.950 . S
C352 C350 1.391 . S
C352 C353 1.400 . S
C353 C347 1.491 1_565 S
C353 C352 1.400 . S
C353 C354 1.398 . S
C354 H342 0.950 1_565 S
C354 C353 1.398 . S
C354 C355 1.391 . S
C355 H343 0.950 . S
C355 C351 1.393 . S
C355 C354 1.391 . S
H356 C364 0.950 . S
H357 C369 0.950 . S
H358 C366 0.950 . S
H359 C368 0.950 . S
H360 C370 0.950 . S
H361 C372 0.950 . S
H362 C374 0.950 . S
H363 C375 0.950 . S
C364 H356 0.950 . S
C364 C365 1.386 . S
C364 C366 1.391 . S
C365 C364 1.386 . S
C365 C369 1.393 . S
C366 H358 0.950 . S
C366 C364 1.391 . S
C366 C367 1.400 . S
C367 C366 1.400 . S
C367 C368 1.398 . S
C367 C373 1.491 . S
C368 H359 0.950 . S
C368 C367 1.398 . S
C368 C369 1.391 . S
C369 H357 0.950 . S
C369 C365 1.393 . S
C369 C368 1.391 . S
C370 H360 0.950 . S
C370 C371 1.386 . S
C370 C372 1.391 . S
C371 C370 1.386 . S
C371 C375 1.393 . S
C372 H361 0.950 . S
C372 C370 1.391 . S
C372 C373 1.400 . S
C373 C367 1.491 . S
C373 C372 1.400 . S
C373 C374 1.398 . S
C374 H362 0.950 . S
C374 C373 1.398 . S
C374 C375 1.391 . S
C375 H363 0.950 . S
C375 C371 1.393 . S
C375 C374 1.391 . S
H376 C384 0.950 . S
H377 C389 0.950 . S
H378 C386 0.950 . S
H379 C388 0.950 . S
H380 C390 0.950 . S
H381 C392 0.950 . S
H382 C394 0.950 . S
H383 C395 0.950 . S
C384 H376 0.950 . S
C384 C385 1.386 . S
C384 C386 1.391 . S
C385 C384 1.386 . S
C385 C389 1.393 . S
C386 H378 0.950 . S
C386 C384 1.391 . S
C386 C387 1.400 . S
C387 C386 1.400 . S
C387 C388 1.398 . S
C387 C393 1.491 . S
C388 H379 0.950 . S
C388 C387 1.398 . S
C388 C389 1.391 . S
C389 H377 0.950 . S
C389 C385 1.393 . S
C389 C388 1.391 . S
C390 H380 0.950 . S
C390 C391 1.386 . S
C390 C392 1.391 . S
C391 C390 1.386 . S
C391 C395 1.393 . S
C392 H381 0.950 . S
C392 C390 1.391 . S
C392 C393 1.400 . S
C393 C387 1.491 . S
C393 C392 1.400 . S
C393 C394 1.398 . S
C394 H382 0.950 . S
C394 C393 1.398 . S
C394 C395 1.391 . S
C395 H383 0.950 . S
C395 C391 1.393 . S
C395 C394 1.391 . S
H396 C404 0.950 . S
H397 C409 0.950 . S
H398 C406 0.950 . S
H399 C408 0.950 . S
H400 C410 0.950 . S
H401 C412 0.950 . S
H402 C414 0.950 . S
H403 C415 0.950 . S
C404 H396 0.950 . S
C404 C405 1.386 . S
C404 C406 1.391 . S
C405 C404 1.386 . S
C405 C409 1.393 . S
C406 H398 0.950 . S
C406 C404 1.391 . S
C406 C407 1.400 . S
C407 C406 1.400 . S
C407 C408 1.398 . S
C407 C413 1.491 . S
C408 H399 0.950 . S
C408 C407 1.398 . S
C408 C409 1.391 . S
C409 H397 0.950 . S
C409 C405 1.393 . S
C409 C408 1.391 . S
C410 H400 0.950 . S
C410 C411 1.386 . S
C410 C412 1.391 . S
C411 C410 1.386 . S
C411 C415 1.393 . S
C412 H401 0.950 . S
C412 C410 1.391 . S
C412 C413 1.400 . S
C413 C407 1.491 . S
C413 C412 1.400 . S
C413 C414 1.398 . S
C414 H402 0.950 . S
C414 C413 1.398 . S
C414 C415 1.391 . S
C415 H403 0.950 . S
C415 C411 1.393 . S
C415 C414 1.391 . S
H416 C424 0.950 . S
H417 C429 0.950 . S
H418 C426 0.950 . S
H419 C428 0.950 . S
H420 C430 0.950 . S
H421 C432 0.950 . S
H422 C434 0.950 . S
H423 C435 0.950 . S
C424 H416 0.950 . S
C424 C425 1.386 . S
C424 C426 1.391 . S
C425 C424 1.386 . S
C425 C429 1.393 . S
C426 H418 0.950 . S
C426 C424 1.391 . S
C426 C427 1.400 . S
C427 C426 1.400 . S
C427 C428 1.398 . S
C427 C433 1.491 . S
C428 H419 0.950 . S
C428 C427 1.398 . S
C428 C429 1.391 . S
C429 H417 0.950 . S
C429 C425 1.393 . S
C429 C428 1.391 . S
C430 H420 0.950 . S
C430 C431 1.386 . S
C430 C432 1.391 . S
C431 C430 1.386 . S
C431 C435 1.393 . S
C432 H421 0.950 . S
C432 C430 1.391 . S
C432 C433 1.400 . S
C433 C427 1.491 . S
C433 C432 1.400 . S
C433 C434 1.398 . S
C434 H422 0.950 . S
C434 C433 1.398 . S
C434 C435 1.391 . S
C435 H423 0.950 . S
C435 C431 1.393 . S
C435 C434 1.391 . S
H436 C444 0.950 . S
H437 C449 0.950 . S
H438 C446 0.950 . S
H439 C448 0.950 . S
H440 C450 0.950 . S
H441 C452 0.950 . S
H442 C454 0.950 . S
H443 C455 0.950 . S
C444 H436 0.950 . S
C444 C445 1.386 . S
C444 C446 1.391 . S
C445 C444 1.386 . S
C445 C449 1.393 . S
C446 H438 0.950 . S
C446 C444 1.391 . S
C446 C447 1.400 . S
C447 C446 1.400 . S
C447 C448 1.398 . S
C447 C453 1.498 . S
C448 H439 0.950 . S
C448 C447 1.398 . S
C448 C449 1.391 . S
C449 H437 0.950 . S
C449 C445 1.393 . S
C449 C448 1.391 . S
C450 H440 0.950 . S
C450 C451 1.386 . S
C450 C452 1.391 . S
C451 C450 1.386 . S
C451 C455 1.393 . S
C452 H441 0.950 . S
C452 C450 1.391 . S
C452 C453 1.396 1_655 S
C453 C447 1.498 . S
C453 C452 1.396 1_455 S
C453 C454 1.395 1_455 S
C454 H442 0.950 . S
C454 C453 1.395 1_655 S
C454 C455 1.391 . S
C455 H443 0.950 . S
C455 C451 1.393 . S
C455 C454 1.391 . S
H456 C464 0.950 . S
H457 C469 0.950 . S
H458 C466 0.950 . S
H459 C468 0.950 . S
H460 C470 0.950 . S
H461 C472 0.950 . S
H462 C474 0.950 . S
H463 C475 0.950 . S
C464 H456 0.950 . S
C464 C465 1.386 . S
C464 C466 1.391 . S
C465 C464 1.386 . S
C465 C469 1.393 . S
C466 H458 0.950 . S
C466 C464 1.391 . S
C466 C467 1.400 . S
C467 C466 1.400 . S
C467 C468 1.398 . S
C467 C473 1.491 . S
C468 H459 0.950 . S
C468 C467 1.398 . S
C468 C469 1.391 . S
C469 H457 0.950 . S
C469 C465 1.393 . S
C469 C468 1.391 . S
C470 H460 0.950 . S
C470 C471 1.386 . S
C470 C472 1.391 . S
C471 C470 1.386 . S
C471 C475 1.393 . S
C472 H461 0.950 . S
C472 C470 1.391 . S
C472 C473 1.400 . S
C473 C467 1.491 . S
C473 C472 1.400 . S
C473 C474 1.398 . S
C474 H462 0.950 . S
C474 C473 1.398 . S
C474 C475 1.391 . S
C475 H463 0.950 . S
C475 C471 1.393 . S
C475 C474 1.391 . S
H476 C484 0.950 . S
H477 C489 0.950 . S
H478 C486 0.950 . S
H479 C488 0.950 . S
H480 C490 0.950 . S
H481 C492 0.950 . S
H482 C494 0.950 . S
H483 C495 0.950 . S
C484 H476 0.950 . S
C484 C485 1.386 . S
C484 C486 1.391 . S
C485 C484 1.386 . S
C485 C489 1.393 . S
C486 H478 0.950 . S
C486 C484 1.391 . S
C486 C487 1.400 . S
C487 C486 1.400 . S
C487 C488 1.398 . S
C487 C493 1.491 . S
C488 H479 0.950 . S
C488 C487 1.398 . S
C488 C489 1.391 . S
C489 H477 0.950 . S
C489 C485 1.393 . S
C489 C488 1.391 . S
C490 H480 0.950 . S
C490 C491 1.386 . S
C490 C492 1.391 . S
C491 C490 1.386 . S
C491 C495 1.393 . S
C492 H481 0.950 . S
C492 C490 1.391 . S
C492 C493 1.400 . S
C493 C487 1.491 . S
C493 C492 1.400 . S
C493 C494 1.398 . S
C494 H482 0.950 . S
C494 C493 1.398 . S
C494 C495 1.391 . S
C495 H483 0.950 . S
C495 C491 1.393 . S
C495 C494 1.391 . S
H496 C504 0.950 . S
H497 C509 0.950 . S
H498 C506 0.950 1_554 S
H499 C508 0.950 1_655 S
H500 C510 0.950 . S
H501 C512 0.950 . S
H502 C514 0.950 1_455 S
H503 C515 0.950 . S
C504 H496 0.950 . S
C504 C505 1.386 . S
C504 C506 1.391 . S
C505 C504 1.386 . S
C505 C509 1.393 . S
C506 H498 0.950 1_556 S
C506 C504 1.391 . S
C506 C507 1.400 . S
C507 C506 1.400 . S
C507 C508 1.398 . S
C507 C513 1.491 1_455 S
C508 H499 0.950 1_455 S
C508 C507 1.398 . S
C508 C509 1.391 . S
C509 H497 0.950 . S
C509 C505 1.393 . S
C509 C508 1.391 . S
C510 H500 0.950 . S
C510 C511 1.386 1_556 S
C510 C512 1.391 . S
C511 C510 1.386 1_554 S
C511 C515 1.393 . S
C512 H501 0.950 . S
C512 C510 1.391 . S
C512 C513 1.400 . S
C513 C507 1.491 1_655 S
C513 C512 1.400 . S
C513 C514 1.398 1_556 S
C514 H502 0.950 1_655 S
C514 C513 1.398 1_554 S
C514 C515 1.391 . S
C515 H503 0.950 . S
C515 C511 1.393 . S
C515 C514 1.391 . S
H516 C524 0.950 . S
H517 C529 0.950 . S
H518 C526 0.950 . S
H519 C528 0.950 . S
H520 C530 0.950 . S
H521 C532 0.950 . S
H522 C534 0.950 . S
H523 C535 0.950 . S
C524 H516 0.950 . S
C524 C525 1.386 . S
C524 C526 1.391 . S
C525 C524 1.386 . S
C525 C529 1.393 . S
C526 H518 0.950 . S
C526 C524 1.391 . S
C526 C527 1.400 . S
C527 C526 1.400 . S
C527 C528 1.398 . S
C527 C533 1.491 . S
C528 H519 0.950 . S
C528 C527 1.398 . S
C528 C529 1.391 . S
C529 H517 0.950 . S
C529 C525 1.393 . S
C529 C528 1.391 . S
C530 H520 0.950 . S
C530 C531 1.386 . S
C530 C532 1.391 . S
C531 C530 1.386 . S
C531 C535 1.393 . S
C532 H521 0.950 . S
C532 C530 1.391 . S
C532 C533 1.400 . S
C533 C527 1.491 . S
C533 C532 1.400 . S
C533 C534 1.398 . S
C534 H522 0.950 . S
C534 C533 1.398 . S
C534 C535 1.391 . S
C535 H523 0.950 . S
C535 C531 1.393 . S
C535 C534 1.391 . S
H536 C544 0.950 . S
H537 C549 0.950 . S
H538 C546 0.950 . S
H539 C548 0.950 . S
H540 C550 0.950 . S
H541 C552 0.950 . S
H542 C554 0.950 . S
H543 C555 0.950 . S
C544 H536 0.950 . S
C544 C545 1.386 . S
C544 C546 1.391 . S
C545 C544 1.386 . S
C545 C549 1.393 . S
C546 H538 0.950 . S
C546 C544 1.391 . S
C546 C547 1.400 . S
C547 C546 1.400 . S
C547 C548 1.398 . S
C547 C553 1.491 . S
C548 H539 0.950 . S
C548 C547 1.398 . S
C548 C549 1.391 . S
C549 H537 0.950 . S
C549 C545 1.393 . S
C549 C548 1.391 . S
C550 H540 0.950 . S
C550 C551 1.386 . S
C550 C552 1.391 . S
C551 C550 1.386 . S
C551 C555 1.393 . S
C552 H541 0.950 . S
C552 C550 1.391 . S
C552 C553 1.400 . S
C553 C547 1.491 . S
C553 C552 1.400 . S
C553 C554 1.398 . S
C554 H542 0.950 . S
C554 C553 1.398 . S
C554 C555 1.391 . S
C555 H543 0.950 . S
C555 C551 1.393 . S
C555 C554 1.391 . S
H556 C564 0.950 . S
H557 C569 0.950 . S
H558 C566 0.950 . S
H559 C568 0.950 . S
H560 C570 0.950 . S
H561 C572 0.950 . S
H562 C574 0.950 . S
H563 C575 0.950 . S
C564 H556 0.950 . S
C564 C565 1.386 . S
C564 C566 1.391 . S
C565 C564 1.386 . S
C565 C569 1.393 . S
C566 H558 0.950 . S
C566 C564 1.391 . S
C566 C567 1.400 . S
C567 C566 1.400 . S
C567 C568 1.398 . S
C567 C573 1.491 . S
C568 H559 0.950 . S
C568 C567 1.398 . S
C568 C569 1.391 . S
C569 H557 0.950 . S
C569 C565 1.393 . S
C569 C568 1.391 . S
C570 H560 0.950 . S
C570 C571 1.386 . S
C570 C572 1.391 . S
C571 C570 1.386 . S
C571 C575 1.393 . S
C572 H561 0.950 . S
C572 C570 1.391 . S
C572 C573 1.400 . S
C573 C567 1.491 . S
C573 C572 1.400 . S
C573 C574 1.398 . S
C574 H562 0.950 . S
C574 C573 1.398 . S
C574 C575 1.391 . S
C575 H563 0.950 . S
C575 C571 1.393 . S
C575 C574 1.391 . S
H576 C584 0.950 . S
H577 C589 0.950 . S
H578 C586 0.950 . S
H579 C588 0.950 . S
H580 C590 0.950 . S
H581 C592 0.950 . S
H582 C594 0.950 . S
H583 C595 0.950 . S
C584 H576 0.950 . S
C584 C585 1.386 . S
C584 C586 1.391 . S
C585 C584 1.386 . S
C585 C589 1.393 . S
C586 H578 0.950 . S
C586 C584 1.391 . S
C586 C587 1.400 . S
C587 C586 1.400 . S
C587 C588 1.398 . S
C587 C593 1.491 . S
C588 H579 0.950 . S
C588 C587 1.398 . S
C588 C589 1.391 . S
C589 H577 0.950 . S
C589 C585 1.393 . S
C589 C588 1.391 . S
C590 H580 0.950 . S
C590 C591 1.386 . S
C590 C592 1.391 . S
C591 C590 1.386 . S
C591 C595 1.393 . S
C592 H581 0.950 . S
C592 C590 1.391 . S
C592 C593 1.400 . S
C593 C587 1.491 . S
C593 C592 1.400 . S
C593 C594 1.398 . S
C594 H582 0.950 . S
C594 C593 1.398 . S
C594 C595 1.391 . S
C595 H583 0.950 . S
C595 C591 1.393 . S
C595 C594 1.391 . S
H596 C604 0.950 . S
H597 C609 0.950 . S
H598 C606 0.926 1_565 S
H599 C608 0.950 . S
H600 C610 0.950 . S
H601 C612 0.950 . S
H602 C614 0.950 . S
H603 C615 0.950 . S
C604 H596 0.950 . S
C604 C605 1.386 . S
C604 C606 1.391 . S
C605 C604 1.386 . S
C605 C609 1.393 . S
C606 H598 0.926 1_545 S
C606 C604 1.391 . S
C606 C607 1.400 . S
C607 C606 1.400 . S
C607 C608 1.398 . S
C607 C613 1.491 . S
C608 H599 0.950 . S
C608 C607 1.398 . S
C608 C609 1.391 . S
C609 H597 0.950 . S
C609 C605 1.393 . S
C609 C608 1.391 . S
C610 H600 0.950 . S
C610 C611 1.386 1_545 S
C610 C612 1.391 . S
C611 C610 1.386 1_565 S
C611 C615 1.393 . S
C612 H601 0.950 . S
C612 C610 1.391 . S
C612 C613 1.400 . S
C613 C607 1.491 . S
C613 C612 1.400 . S
C613 C614 1.398 1_545 S
C614 H602 0.950 . S
C614 C613 1.398 1_565 S
C614 C615 1.391 . S
C615 H603 0.950 . S
C615 C611 1.393 . S
C615 C614 1.391 . S
H616 C624 0.950 . S
H617 C629 0.950 . S
H618 C626 0.950 . S
H619 C628 0.950 . S
H620 C630 0.950 . S
H621 C632 0.950 . S
H622 C634 0.950 . S
H623 C635 0.950 . S
C624 H616 0.950 . S
C624 C625 1.386 . S
C624 C626 1.391 . S
C625 C624 1.386 . S
C625 C629 1.393 . S
C626 H618 0.950 . S
C626 C624 1.391 . S
C626 C627 1.400 . S
C627 C626 1.400 . S
C627 C628 1.398 . S
C627 C633 1.491 . S
C628 H619 0.950 . S
C628 C627 1.398 . S
C628 C629 1.391 . S
C629 H617 0.950 . S
C629 C625 1.393 . S
C629 C628 1.391 . S
C630 H620 0.950 . S
C630 C631 1.386 . S
C630 C632 1.391 . S
C631 C630 1.386 . S
C631 C635 1.393 . S
C632 H621 0.950 . S
C632 C630 1.391 . S
C632 C633 1.400 . S
C633 C627 1.491 . S
C633 C632 1.400 . S
C633 C634 1.398 . S
C634 H622 0.950 . S
C634 C633 1.398 . S
C634 C635 1.391 . S
C635 H623 0.950 . S
C635 C631 1.393 . S
C635 C634 1.391 . S
H636 C644 0.950 . S
H637 C649 0.950 . S
H638 C646 0.950 . S
H639 C648 0.950 . S
H640 C650 0.950 . S
H641 C652 0.950 . S
H642 C654 0.950 . S
H643 C655 0.950 . S
C644 H636 0.950 . S
C644 C645 1.386 . S
C644 C646 1.391 . S
C645 C644 1.386 . S
C645 C649 1.393 . S
C646 H638 0.950 . S
C646 C644 1.391 . S
C646 C647 1.400 . S
C647 C646 1.400 . S
C647 C648 1.398 . S
C647 C653 1.491 . S
C648 H639 0.950 . S
C648 C647 1.398 . S
C648 C649 1.391 . S
C649 H637 0.950 . S
C649 C645 1.393 . S
C649 C648 1.391 . S
C650 H640 0.950 . S
C650 C651 1.386 . S
C650 C652 1.391 . S
C651 C650 1.386 . S
C651 C655 1.393 . S
C652 H641 0.950 . S
C652 C650 1.391 . S
C652 C653 1.400 . S
C653 C647 1.491 . S
C653 C652 1.400 . S
C653 C654 1.398 . S
C654 H642 0.950 . S
C654 C653 1.398 . S
C654 C655 1.391 . S
C655 H643 0.950 . S
C655 C651 1.393 . S
C655 C654 1.391 . S
H656 C664 0.950 . S
H657 C669 0.950 . S
H658 C666 0.950 . S
H659 C668 0.950 . S
H660 C670 0.950 . S
H661 C672 0.950 . S
H662 C674 0.950 . S
H663 C675 0.950 . S
C664 H656 0.950 . S
C664 C665 1.386 . S
C664 C666 1.391 . S
C665 C664 1.386 . S
C665 C669 1.393 . S
C666 H658 0.950 . S
C666 C664 1.391 . S
C666 C667 1.400 . S
C667 C666 1.400 . S
C667 C668 1.398 . S
C667 C673 1.491 . S
C668 H659 0.950 . S
C668 C667 1.398 . S
C668 C669 1.391 . S
C669 H657 0.950 . S
C669 C665 1.393 . S
C669 C668 1.391 . S
C670 H660 0.950 . S
C670 C671 1.386 . S
C670 C672 1.391 . S
C671 C670 1.386 . S
C671 C675 1.393 . S
C672 H661 0.950 . S
C672 C670 1.391 . S
C672 C673 1.400 1_565 S
C673 C667 1.491 . S
C673 C672 1.400 1_545 S
C673 C674 1.398 . S
C674 H662 0.950 . S
C674 C673 1.398 . S
C674 C675 1.391 1_545 S
C675 H663 0.950 . S
C675 C671 1.393 . S
C675 C674 1.391 1_565 S
H676 C684 0.950 . S
H677 C689 0.950 . S
H678 C686 0.950 . S
H679 C688 0.950 . S
H680 C690 0.950 . S
H681 C692 0.950 . S
H682 C694 0.950 . S
H683 C695 0.950 . S
C684 H676 0.950 . S
C684 C685 1.386 . S
C684 C686 1.391 . S
C685 C684 1.386 . S
C685 C689 1.393 . S
C686 H678 0.950 . S
C686 C684 1.391 . S
C686 C687 1.400 . S
C687 C686 1.400 . S
C687 C688 1.398 . S
C687 C693 1.491 . S
C688 H679 0.950 . S
C688 C687 1.398 . S
C688 C689 1.391 . S
C689 H677 0.950 . S
C689 C685 1.393 . S
C689 C688 1.391 . S
C690 H680 0.950 . S
C690 C691 1.386 . S
C690 C692 1.391 . S
C691 C690 1.386 . S
C691 C695 1.393 . S
C692 H681 0.950 . S
C692 C690 1.391 . S
C692 C693 1.400 . S
C693 C687 1.491 . S
C693 C692 1.400 . S
C693 C694 1.398 . S
C694 H682 0.950 . S
C694 C693 1.398 . S
C694 C695 1.391 . S
C695 H683 0.950 . S
C695 C691 1.393 . S
C695 C694 1.391 . S
H696 C704 0.950 . S
H697 C709 0.950 . S
H698 C706 0.950 . S
H699 C708 0.950 . S
H700 C710 0.950 . S
H701 C712 0.950 . S
H702 C714 0.950 . S
H703 C715 0.950 . S
C704 H696 0.950 . S
C704 C705 1.386 . S
C704 C706 1.391 . S
C705 C704 1.386 . S
C705 C709 1.393 . S
C706 H698 0.950 . S
C706 C704 1.391 . S
C706 C707 1.400 . S
C707 C706 1.400 . S
C707 C708 1.398 . S
C707 C713 1.491 . S
C708 H699 0.950 . S
C708 C707 1.398 . S
C708 C709 1.391 . S
C709 H697 0.950 . S
C709 C705 1.393 . S
C709 C708 1.391 . S
C710 H700 0.950 . S
C710 C711 1.386 . S
C710 C712 1.391 . S
C711 C710 1.386 . S
C711 C715 1.393 . S
C712 H701 0.950 . S
C712 C710 1.391 . S
C712 C713 1.400 . S
C713 C707 1.491 . S
C713 C712 1.400 . S
C713 C714 1.398 . S
C714 H702 0.950 . S
C714 C713 1.398 . S
C714 C715 1.391 . S
C715 H703 0.950 . S
C715 C711 1.393 . S
C715 C714 1.391 . S
H716 C724 0.950 . S
H717 C729 0.950 . S
H718 C726 0.950 . S
H719 C728 0.950 . S
H720 C730 0.950 . S
H721 C732 0.950 . S
H722 C734 0.950 . S
H723 C735 0.950 . S
C724 H716 0.950 . S
C724 C725 1.386 . S
C724 C726 1.391 . S
C725 C724 1.386 . S
C725 C729 1.393 . S
C726 H718 0.950 . S
C726 C724 1.391 . S
C726 C727 1.400 . S
C727 C726 1.400 . S
C727 C728 1.398 . S
C727 C733 1.491 . S
C728 H719 0.950 . S
C728 C727 1.398 . S
C728 C729 1.391 . S
C729 H717 0.950 . S
C729 C725 1.393 . S
C729 C728 1.391 . S
C730 H720 0.950 . S
C730 C731 1.386 . S
C730 C732 1.391 . S
C731 C730 1.386 . S
C731 C735 1.393 . S
C732 H721 0.950 . S
C732 C730 1.391 . S
C732 C733 1.400 . S
C733 C727 1.491 . S
C733 C732 1.400 . S
C733 C734 1.398 . S
C734 H722 0.950 . S
C734 C733 1.398 . S
C734 C735 1.391 . S
C735 H723 0.950 . S
C735 C731 1.393 . S
C735 C734 1.391 . S
H736 C744 0.950 . S
H737 C749 0.950 . S
H738 C746 0.950 . S
H739 C748 0.950 . S
H740 C750 0.950 . S
H741 C752 0.950 . S
H742 C754 0.950 . S
H743 C755 0.950 . S
C744 H736 0.950 . S
C744 C745 1.386 . S
C744 C746 1.391 . S
C745 C744 1.386 . S
C745 C749 1.393 . S
C746 H738 0.950 . S
C746 C744 1.391 . S
C746 C747 1.400 . S
C747 C746 1.400 . S
C747 C748 1.398 . S
C747 C753 1.491 . S
C748 H739 0.950 . S
C748 C747 1.398 . S
C748 C749 1.391 . S
C749 H737 0.950 . S
C749 C745 1.393 . S
C749 C748 1.391 . S
C750 H740 0.950 . S
C750 C751 1.386 . S
C750 C752 1.391 . S
C751 C750 1.386 . S
C751 C755 1.393 . S
C752 H741 0.950 . S
C752 C750 1.391 . S
C752 C753 1.400 . S
C753 C747 1.491 . S
C753 C752 1.400 . S
C753 C754 1.398 . S
C754 H742 0.950 . S
C754 C753 1.398 . S
C754 C755 1.391 . S
C755 H743 0.950 . S
C755 C751 1.393 . S
C755 C754 1.391 . S
H756 C764 0.950 . S
H757 C769 0.950 . S
H758 C766 0.950 . S
H759 C768 0.950 . S
H760 C770 0.950 . S
H761 C772 0.948 1_655 S
H762 C774 0.950 . S
H763 C775 0.950 . S
C764 H756 0.950 . S
C764 C765 1.386 . S
C764 C766 1.391 . S
C765 C764 1.386 . S
C765 C769 1.393 . S
C766 H758 0.950 . S
C766 C764 1.391 . S
C766 C767 1.400 . S
C767 C766 1.400 . S
C767 C768 1.398 . S
C767 C773 1.491 . S
C768 H759 0.950 . S
C768 C767 1.398 . S
C768 C769 1.391 . S
C769 H757 0.950 . S
C769 C765 1.393 . S
C769 C768 1.391 . S
C770 H760 0.950 . S
C770 C771 1.386 . S
C770 C772 1.391 1_655 S
C771 C770 1.386 . S
C771 C775 1.393 1_655 S
C772 H761 0.948 1_455 S
C772 C770 1.391 1_455 S
C772 C773 1.400 . S
C773 C767 1.491 . S
C773 C772 1.400 . S
C773 C774 1.398 . S
C774 H762 0.950 . S
C774 C773 1.398 . S
C774 C775 1.391 . S
C775 H763 0.950 . S
C775 C771 1.393 1_455 S
C775 C774 1.391 . S
H776 C784 0.950 . S
H777 C789 0.950 . S
H778 C786 0.950 . S
H779 C788 0.950 . S
H780 C790 0.950 . S
H781 C792 0.950 . S
H782 C794 0.950 . S
H783 C795 0.950 . S
C784 H776 0.950 . S
C784 C785 1.386 . S
C784 C786 1.391 . S
C785 C784 1.386 . S
C785 C789 1.393 . S
C786 H778 0.950 . S
C786 C784 1.391 . S
C786 C787 1.400 . S
C787 C786 1.400 . S
C787 C788 1.398 . S
C787 C793 1.491 . S
C788 H779 0.950 . S
C788 C787 1.398 . S
C788 C789 1.391 . S
C789 H777 0.950 . S
C789 C785 1.393 . S
C789 C788 1.391 . S
C790 H780 0.950 . S
C790 C791 1.386 . S
C790 C792 1.391 . S
C791 C790 1.386 . S
C791 C795 1.393 . S
C792 H781 0.950 . S
C792 C790 1.391 . S
C792 C793 1.400 . S
C793 C787 1.491 . S
C793 C792 1.400 . S
C793 C794 1.398 . S
C794 H782 0.950 . S
C794 C793 1.398 . S
C794 C795 1.391 . S
C795 H783 0.950 . S
C795 C791 1.393 . S
C795 C794 1.391 . S
H796 C804 0.950 . S
H797 C809 0.950 1_455 S
H798 C806 0.950 . S
H799 C808 0.950 . S
H800 C810 0.950 . S
H801 C812 0.950 . S
H802 C814 0.950 . S
H803 C815 0.950 . S
C804 H796 0.950 . S
C804 C805 1.386 . S
C804 C806 1.391 . S
C805 C804 1.386 . S
C805 C809 1.393 . S
C806 H798 0.950 . S
C806 C804 1.391 . S
C806 C807 1.400 . S
C807 C806 1.400 . S
C807 C808 1.398 . S
C807 C813 1.491 . S
C808 H799 0.950 . S
C808 C807 1.398 . S
C808 C809 1.391 . S
C809 H797 0.950 1_655 S
C809 C805 1.393 . S
C809 C808 1.391 . S
C810 H800 0.950 . S
C810 C811 1.386 . S
C810 C812 1.391 . S
C811 C810 1.386 . S
C811 C815 1.393 . S
C812 H801 0.950 . S
C812 C810 1.391 . S
C812 C813 1.400 . S
C813 C807 1.491 . S
C813 C812 1.400 . S
C813 C814 1.398 . S
C814 H802 0.950 . S
C814 C813 1.398 . S
C814 C815 1.391 . S
C815 H803 0.950 . S
C815 C811 1.393 . S
C815 C814 1.391 . S
H816 C824 0.950 . S
H817 C829 0.950 . S
H818 C826 0.950 . S
H819 C828 0.950 . S
H820 C830 0.965 . S
H821 C832 0.950 . S
H822 C834 0.950 . S
H823 C835 0.950 . S
C824 H816 0.950 . S
C824 C825 1.386 . S
C824 C826 1.391 . S
C825 C824 1.386 . S
C825 C829 1.393 . S
C826 H818 0.950 . S
C826 C824 1.391 . S
C826 C827 1.400 . S
C827 C826 1.400 . S
C827 C828 1.398 . S
C827 C833 1.491 . S
C828 H819 0.950 . S
C828 C827 1.398 . S
C828 C829 1.391 . S
C829 H817 0.950 . S
C829 C825 1.393 . S
C829 C828 1.391 . S
C830 H820 0.965 . S
C830 C831 1.383 1_655 S
C830 C832 1.379 1_655 S
C831 C830 1.383 1_455 S
C831 C835 1.393 . S
C832 H821 0.950 . S
C832 C830 1.379 1_455 S
C832 C833 1.400 . S
C833 C827 1.491 . S
C833 C832 1.400 . S
C833 C834 1.398 . S
C834 H822 0.950 . S
C834 C833 1.398 . S
C834 C835 1.391 . S
C835 H823 0.950 . S
C835 C831 1.393 . S
C835 C834 1.391 . S
H836 C844 0.950 . S
H837 C849 0.950 . S
H838 C846 0.950 . S
H839 C848 0.950 . S
H840 C850 0.950 . S
H841 C852 0.950 . S
H842 C854 0.950 . S
H843 C855 0.950 . S
C844 H836 0.950 . S
C844 C845 1.386 . S
C844 C846 1.391 . S
C845 C844 1.386 . S
C845 C849 1.393 . S
C846 H838 0.950 . S
C846 C844 1.391 . S
C846 C847 1.400 . S
C847 C846 1.400 . S
C847 C848 1.398 . S
C847 C853 1.491 . S
C848 H839 0.950 . S
C848 C847 1.398 . S
C848 C849 1.391 . S
C849 H837 0.950 . S
C849 C845 1.393 . S
C849 C848 1.391 . S
C850 H840 0.950 . S
C850 C851 1.386 . S
C850 C852 1.391 . S
C851 C850 1.386 . S
C851 C855 1.393 . S
C852 H841 0.950 . S
C852 C850 1.391 . S
C852 C853 1.400 . S
C853 C847 1.491 . S
C853 C852 1.400 . S
C853 C854 1.398 . S
C854 H842 0.950 . S
C854 C853 1.398 . S
C854 C855 1.391 . S
C855 H843 0.950 . S
C855 C851 1.393 . S
C855 C854 1.391 . S
C231 C129 1.240 . S
C225 C5 1.232 . S
C251 C143 1.264 . S
C245 C18 1.287 . S
C271 C151 1.265 . S
C265 C31 1.277 . S
C285 C42 1.148 . S
C291 C109 1.201 . S
C305 C57 1.406 . S
C311 C115 1.433 1_556 S
C325 C70 1.456 . S
C331 C123 1.484 . S
C351 C137 1.497 . S
C345 C81 1.497 . S
C371 C157 1.453 . S
C365 C96 1.415 . S
C385 C29 1.424 . S
C391 C185 1.418 . S
C411 C199 1.460 . S
C405 C44 1.417 . S
C425 C3 1.466 . S
C431 C207 1.456 . S
C451 C171 1.441 . S
C445 C16 1.449 . S
C465 C83 1.241 . S
C471 C165 1.218 . S
C485 C94 1.217 . S
C491 C179 1.242 . S
C511 C193 1.277 . S
C505 C55 1.218 . S
C525 C68 1.252 . S
C531 C213 1.319 . S
C551 C132 1.330 . S
C545 C1 1.385 . S
C571 C155 1.369 . S
C565 C14 1.377 . S
C585 C27 1.356 . S
C591 C113 1.325 . S
C605 C49 1.340 . S
C611 C118 1.325 . S
C625 C53 1.629 . S
C631 C146 1.646 . S
C651 C104 1.681 . S
C645 C66 1.647 . S
C671 C127 1.687 . S
C665 C88 1.700 . S
C691 C141 1.685 . S
C685 C92 1.629 . S
C711 C188 1.645 . S
C705 C36 1.694 . S
C731 C211 1.660 . S
C725 C40 1.603 . S
C745 C10 1.699 . S
C751 C160 1.656 . S
C771 C174 1.642 . S
C765 C23 1.691 . S
C791 C202 1.345 . S
C785 C79 1.378 . S
C805 C101 1.353 . S
C811 C169 1.347 . S
C831 C183 1.343 1_455 S
C825 C62 1.361 . S
C851 C197 1.397 . S
C845 C75 1.399 . S
