# Generated by pormake.
# Topology cor, (4,6)-cn, num edge types: 1
# Building blocks:
#     Node 0, Type 0, BuildingBlock: CEKHIL_clean_sbu_0, # of connection points: 4
#     Node 1, Type 0, BuildingBlock: CEKHIL_clean_sbu_0, # of connection points: 4
#     Node 2, Type 0, BuildingBlock: CEKHIL_clean_sbu_0, # of connection points: 4
#     Node 3, Type 0, BuildingBlock: CEKHIL_clean_sbu_0, # of connection points: 4
#     Node 4, Type 0, BuildingBlock: CEKHIL_clean_sbu_0, # of connection points: 4
#     Node 5, Type 0, BuildingBlock: CEKHIL_clean_sbu_0, # of connection points: 4
#     Node 6, Type 0, BuildingBlock: CEKHIL_clean_sbu_0, # of connection points: 4
#     Node 7, Type 0, BuildingBlock: CEKHIL_clean_sbu_0, # of connection points: 4
#     Node 8, Type 0, BuildingBlock: CEKHIL_clean_sbu_0, # of connection points: 4
#     Node 9, Type 0, BuildingBlock: CEKHIL_clean_sbu_0, # of connection points: 4
#     Node 10, Type 0, BuildingBlock: CEKHIL_clean_sbu_0, # of connection points: 4
#     Node 11, Type 0, BuildingBlock: CEKHIL_clean_sbu_0, # of connection points: 4
#     Node 12, Type 0, BuildingBlock: CEKHIL_clean_sbu_0, # of connection points: 4
#     Node 13, Type 0, BuildingBlock: CEKHIL_clean_sbu_0, # of connection points: 4
#     Node 14, Type 0, BuildingBlock: CEKHIL_clean_sbu_0, # of connection points: 4
#     Node 15, Type 0, BuildingBlock: CEKHIL_clean_sbu_0, # of connection points: 4
#     Node 16, Type 0, BuildingBlock: CEKHIL_clean_sbu_0, # of connection points: 4
#     Node 17, Type 0, BuildingBlock: CEKHIL_clean_sbu_0, # of connection points: 4
#     Node 18, Type 1, BuildingBlock: MIDCAF_clean_sbu_0, # of connection points: 6
#     Node 19, Type 1, BuildingBlock: MIDCAF_clean_sbu_0, # of connection points: 6
#     Node 20, Type 1, BuildingBlock: MIDCAF_clean_sbu_0, # of connection points: 6
#     Node 21, Type 1, BuildingBlock: MIDCAF_clean_sbu_0, # of connection points: 6
#     Node 22, Type 1, BuildingBlock: MIDCAF_clean_sbu_0, # of connection points: 6
#     Node 23, Type 1, BuildingBlock: MIDCAF_clean_sbu_0, # of connection points: 6
#     Node 24, Type 1, BuildingBlock: MIDCAF_clean_sbu_0, # of connection points: 6
#     Node 25, Type 1, BuildingBlock: MIDCAF_clean_sbu_0, # of connection points: 6
#     Node 26, Type 1, BuildingBlock: MIDCAF_clean_sbu_0, # of connection points: 6
#     Node 27, Type 1, BuildingBlock: MIDCAF_clean_sbu_0, # of connection points: 6
#     Node 28, Type 1, BuildingBlock: MIDCAF_clean_sbu_0, # of connection points: 6
#     Node 29, Type 1, BuildingBlock: MIDCAF_clean_sbu_0, # of connection points: 6
#     Edge 30, Type (0, 1), BuildingBlock: ZUJKAS_clean_linker_0, # of connection points: 2
#     Edge 31, Type (0, 1), BuildingBlock: ZUJKAS_clean_linker_0, # of connection points: 2
#     Edge 32, Type (0, 1), BuildingBlock: ZUJKAS_clean_linker_0, # of connection points: 2
#     Edge 33, Type (0, 1), BuildingBlock: ZUJKAS_clean_linker_0, # of connection points: 2
#     Edge 34, Type (0, 1), BuildingBlock: ZUJKAS_clean_linker_0, # of connection points: 2
#     Edge 35, Type (0, 1), BuildingBlock: ZUJKAS_clean_linker_0, # of connection points: 2
#     Edge 36, Type (0, 1), BuildingBlock: ZUJKAS_clean_linker_0, # of connection points: 2
#     Edge 37, Type (0, 1), BuildingBlock: ZUJKAS_clean_linker_0, # of connection points: 2
#     Edge 38, Type (0, 1), BuildingBlock: ZUJKAS_clean_linker_0, # of connection points: 2
#     Edge 39, Type (0, 1), BuildingBlock: ZUJKAS_clean_linker_0, # of connection points: 2
#     Edge 40, Type (0, 1), BuildingBlock: ZUJKAS_clean_linker_0, # of connection points: 2
#     Edge 41, Type (0, 1), BuildingBlock: ZUJKAS_clean_linker_0, # of connection points: 2
#     Edge 42, Type (0, 1), BuildingBlock: ZUJKAS_clean_linker_0, # of connection points: 2
#     Edge 43, Type (0, 1), BuildingBlock: ZUJKAS_clean_linker_0, # of connection points: 2
#     Edge 44, Type (0, 1), BuildingBlock: ZUJKAS_clean_linker_0, # of connection points: 2
#     Edge 45, Type (0, 1), BuildingBlock: ZUJKAS_clean_linker_0, # of connection points: 2
#     Edge 46, Type (0, 1), BuildingBlock: ZUJKAS_clean_linker_0, # of connection points: 2
#     Edge 47, Type (0, 1), BuildingBlock: ZUJKAS_clean_linker_0, # of connection points: 2
#     Edge 48, Type (0, 1), BuildingBlock: ZUJKAS_clean_linker_0, # of connection points: 2
#     Edge 49, Type (0, 1), BuildingBlock: ZUJKAS_clean_linker_0, # of connection points: 2
#     Edge 50, Type (0, 1), BuildingBlock: ZUJKAS_clean_linker_0, # of connection points: 2
#     Edge 51, Type (0, 1), BuildingBlock: ZUJKAS_clean_linker_0, # of connection points: 2
#     Edge 52, Type (0, 1), BuildingBlock: ZUJKAS_clean_linker_0, # of connection points: 2
#     Edge 53, Type (0, 1), BuildingBlock: ZUJKAS_clean_linker_0, # of connection points: 2
#     Edge 54, Type (0, 1), BuildingBlock: ZUJKAS_clean_linker_0, # of connection points: 2
#     Edge 55, Type (0, 1), BuildingBlock: ZUJKAS_clean_linker_0, # of connection points: 2
#     Edge 56, Type (0, 1), BuildingBlock: ZUJKAS_clean_linker_0, # of connection points: 2
#     Edge 57, Type (0, 1), BuildingBlock: ZUJKAS_clean_linker_0, # of connection points: 2
#     Edge 58, Type (0, 1), BuildingBlock: ZUJKAS_clean_linker_0, # of connection points: 2
#     Edge 59, Type (0, 1), BuildingBlock: ZUJKAS_clean_linker_0, # of connection points: 2
#     Edge 60, Type (0, 1), BuildingBlock: ZUJKAS_clean_linker_0, # of connection points: 2
#     Edge 61, Type (0, 1), BuildingBlock: ZUJKAS_clean_linker_0, # of connection points: 2
#     Edge 62, Type (0, 1), BuildingBlock: ZUJKAS_clean_linker_0, # of connection points: 2
#     Edge 63, Type (0, 1), BuildingBlock: ZUJKAS_clean_linker_0, # of connection points: 2
#     Edge 64, Type (0, 1), BuildingBlock: ZUJKAS_clean_linker_0, # of connection points: 2
#     Edge 65, Type (0, 1), BuildingBlock: ZUJKAS_clean_linker_0, # of connection points: 2
#     Edge 66, Type (0, 1), BuildingBlock: ZUJKAS_clean_linker_0, # of connection points: 2
#     Edge 67, Type (0, 1), BuildingBlock: ZUJKAS_clean_linker_0, # of connection points: 2
#     Edge 68, Type (0, 1), BuildingBlock: ZUJKAS_clean_linker_0, # of connection points: 2
#     Edge 69, Type (0, 1), BuildingBlock: ZUJKAS_clean_linker_0, # of connection points: 2
#     Edge 70, Type (0, 1), BuildingBlock: ZUJKAS_clean_linker_0, # of connection points: 2
#     Edge 71, Type (0, 1), BuildingBlock: ZUJKAS_clean_linker_0, # of connection points: 2
#     Edge 72, Type (0, 1), BuildingBlock: ZUJKAS_clean_linker_0, # of connection points: 2
#     Edge 73, Type (0, 1), BuildingBlock: ZUJKAS_clean_linker_0, # of connection points: 2
#     Edge 74, Type (0, 1), BuildingBlock: ZUJKAS_clean_linker_0, # of connection points: 2
#     Edge 75, Type (0, 1), BuildingBlock: ZUJKAS_clean_linker_0, # of connection points: 2
#     Edge 76, Type (0, 1), BuildingBlock: ZUJKAS_clean_linker_0, # of connection points: 2
#     Edge 77, Type (0, 1), BuildingBlock: ZUJKAS_clean_linker_0, # of connection points: 2
#     Edge 78, Type (0, 1), BuildingBlock: ZUJKAS_clean_linker_0, # of connection points: 2
#     Edge 79, Type (0, 1), BuildingBlock: ZUJKAS_clean_linker_0, # of connection points: 2
#     Edge 80, Type (0, 1), BuildingBlock: ZUJKAS_clean_linker_0, # of connection points: 2
#     Edge 81, Type (0, 1), BuildingBlock: ZUJKAS_clean_linker_0, # of connection points: 2
#     Edge 82, Type (0, 1), BuildingBlock: ZUJKAS_clean_linker_0, # of connection points: 2
#     Edge 83, Type (0, 1), BuildingBlock: ZUJKAS_clean_linker_0, # of connection points: 2
#     Edge 84, Type (0, 1), BuildingBlock: ZUJKAS_clean_linker_0, # of connection points: 2
#     Edge 85, Type (0, 1), BuildingBlock: ZUJKAS_clean_linker_0, # of connection points: 2
#     Edge 86, Type (0, 1), BuildingBlock: ZUJKAS_clean_linker_0, # of connection points: 2
#     Edge 87, Type (0, 1), BuildingBlock: ZUJKAS_clean_linker_0, # of connection points: 2
#     Edge 88, Type (0, 1), BuildingBlock: ZUJKAS_clean_linker_0, # of connection points: 2
#     Edge 89, Type (0, 1), BuildingBlock: ZUJKAS_clean_linker_0, # of connection points: 2
#     Edge 90, Type (0, 1), BuildingBlock: ZUJKAS_clean_linker_0, # of connection points: 2
#     Edge 91, Type (0, 1), BuildingBlock: ZUJKAS_clean_linker_0, # of connection points: 2
#     Edge 92, Type (0, 1), BuildingBlock: ZUJKAS_clean_linker_0, # of connection points: 2
#     Edge 93, Type (0, 1), BuildingBlock: ZUJKAS_clean_linker_0, # of connection points: 2
#     Edge 94, Type (0, 1), BuildingBlock: ZUJKAS_clean_linker_0, # of connection points: 2
#     Edge 95, Type (0, 1), BuildingBlock: ZUJKAS_clean_linker_0, # of connection points: 2
#     Edge 96, Type (0, 1), BuildingBlock: ZUJKAS_clean_linker_0, # of connection points: 2
#     Edge 97, Type (0, 1), BuildingBlock: ZUJKAS_clean_linker_0, # of connection points: 2
#     Edge 98, Type (0, 1), BuildingBlock: ZUJKAS_clean_linker_0, # of connection points: 2
#     Edge 99, Type (0, 1), BuildingBlock: ZUJKAS_clean_linker_0, # of connection points: 2
#     Edge 100, Type (0, 1), BuildingBlock: ZUJKAS_clean_linker_0, # of connection points: 2
#     Edge 101, Type (0, 1), BuildingBlock: ZUJKAS_clean_linker_0, # of connection points: 2
# Relax obj value: 0.113
# Max RMSD: 0.161
# Mean RMSD: 0.107
data_MOF--net-cor--node1-CEKHIL_clean_sbu_0--node2-MIDCAF_clean_sbu_0--edge1-ZUJKAS_clean_linker_0
_symmetry_space_group_name_H-M    P1
_symmetry_Int_Tables_number       1
_symmetry_cell_setting            triclinic
loop_
_symmetry_equiv_pos_as_xyz
'x, y, z'
_cell_length_a     49.529189
_cell_length_b     49.292894
_cell_length_c     130.43023
_cell_angle_alpha  90.674563
_cell_angle_beta   89.696731
_cell_angle_gamma 120.70146
loop_
_atom_site_label
_atom_site_type_symbol
_atom_site_fract_x
_atom_site_fract_y
_atom_site_fract_z
_atom_type_partial_charge
Co0 Co 0.72388 0.01798 0.25287 0.0
O1 O 0.70458 0.03283 0.24342 0.0
O2 O 0.7462 0.06386 0.25291 0.0
C3 C 0.67956 0.98025 0.2605 0.0
O4 O 0.74925 0.01074 0.26379 0.0
Co5 Co 0.71084 0.94967 0.25056 0.0
O6 O 0.72979 0.95836 0.26446 0.0
C7 C 0.7525 0.99736 0.23575 0.0
C8 C 0.72622 0.06129 0.24596 0.0
C9 C 0.7469 0.98617 0.26812 0.0
O10 O 0.75196 0.01863 0.24142 0.0
O11 O 0.73581 0.96785 0.23766 0.0
O12 O 0.69212 0.00964 0.26332 0.0
O13 O 0.69186 0.9754 0.25243 0.0
Co14 Co 0.01942 0.72902 0.25206 0.0
O15 O 0.03548 0.70952 0.26093 0.0
O16 O 0.06507 0.75318 0.25223 0.0
C17 C 0.98306 0.68496 0.24374 0.0
O18 O 0.0108 0.75482 0.24174 0.0
Co19 Co 0.9504 0.71259 0.25459 0.0
O20 O 0.95842 0.73383 0.24115 0.0
C21 C 0.99705 0.75363 0.26993 0.0
C22 C 0.06341 0.73243 0.25869 0.0
C23 C 0.98587 0.75212 0.2376 0.0
O24 O 0.01877 0.75506 0.26409 0.0
O25 O 0.96779 0.73593 0.2679 0.0
O26 O 0.01238 0.69892 0.24099 0.0
O27 O 0.97763 0.69568 0.25211 0.0
Co28 Co 0.31799 0.32114 0.25366 0.0
O29 O 0.35271 0.34033 0.24423 0.0
O30 O 0.33997 0.29792 0.25338 0.0
C31 C 0.3259 0.36521 0.26183 0.0
O32 O 0.28447 0.29577 0.26445 0.0
Co33 Co 0.26418 0.33551 0.25161 0.0
O34 O 0.25305 0.31632 0.26543 0.0
C35 C 0.26902 0.29387 0.23642 0.0
C36 C 0.3582 0.31803 0.24652 0.0
C37 C 0.26277 0.29873 0.26892 0.0
O38 O 0.29001 0.29358 0.24211 0.0
O39 O 0.25727 0.31121 0.23843 0.0
O40 O 0.34218 0.35232 0.26433 0.0
O41 O 0.30894 0.3537 0.25365 0.0
Co42 Co 0.3124 0.02183 0.75526 0.0
O43 O 0.33142 0.00621 0.76453 0.0
O44 O 0.28881 0.97599 0.75534 0.0
C45 C 0.35658 0.0584 0.7473 0.0
O46 O 0.28712 0.02989 0.74455 0.0
Co47 Co 0.32796 0.09105 0.75755 0.0
O48 O 0.30811 0.08249 0.74379 0.0
C49 C 0.28683 0.04447 0.77273 0.0
C50 C 0.30899 0.978 0.76211 0.0
C51 C 0.29013 0.05474 0.74021 0.0
O52 O 0.28562 0.02255 0.76693 0.0
O53 O 0.30448 0.07383 0.77075 0.0
O54 O 0.34311 0.02885 0.74456 0.0
O55 O 0.3453 0.06396 0.75548 0.0
Co56 Co 0.02026 0.31578 0.75418 0.0
O57 O 0.00414 0.33501 0.74521 0.0
O58 O 0.97462 0.29179 0.75412 0.0
C59 C 0.0568 0.35995 0.76241 0.0
O60 O 0.029 0.29021 0.76456 0.0
Co61 Co 0.08924 0.3322 0.75144 0.0
O62 O 0.08121 0.30964 0.76463 0.0
C63 C 0.04235 0.29225 0.73604 0.0
C64 C 0.97622 0.31221 0.74753 0.0
C65 C 0.05388 0.29197 0.76838 0.0
O66 O 0.02072 0.28946 0.74221 0.0
O67 O 0.07162 0.31072 0.73788 0.0
O68 O 0.0275 0.34616 0.76518 0.0
O69 O 0.06205 0.34907 0.75405 0.0
Co70 Co 0.72036 0.7202 0.75528 0.0
O71 O 0.68625 0.70124 0.76499 0.0
O72 O 0.69677 0.74172 0.75514 0.0
C73 C 0.71363 0.67533 0.74802 0.0
O74 O 0.75261 0.74517 0.74406 0.0
Co75 Co 0.77684 0.70977 0.75683 0.0
O76 O 0.78306 0.72373 0.74235 0.0
C77 C 0.77182 0.75268 0.77156 0.0
C78 C 0.67945 0.72235 0.76229 0.0
C79 C 0.77266 0.74087 0.73903 0.0
O80 O 0.74829 0.74981 0.76647 0.0
O81 O 0.7858 0.73761 0.76926 0.0
O82 O 0.69641 0.68684 0.74515 0.0
O83 O 0.73145 0.68916 0.75588 0.0
Co84 Co 0.38899 0.35198 0.5889 0.0
O85 O 0.37082 0.36686 0.57903 0.0
O86 O 0.41218 0.39791 0.5886 0.0
C87 C 0.34381 0.31545 0.59644 0.0
O88 O 0.41304 0.3445 0.60022 0.0
Co89 Co 0.37369 0.28261 0.58724 0.0
O90 O 0.3921 0.29193 0.60123 0.0
C91 C 0.41805 0.32912 0.57262 0.0
C92 C 0.39253 0.39531 0.58151 0.0
C93 C 0.4097 0.31982 0.60477 0.0
O94 O 0.41765 0.35113 0.57792 0.0
O95 O 0.40012 0.29977 0.57457 0.0
O96 O 0.35681 0.34506 0.59904 0.0
O97 O 0.35624 0.30976 0.58859 0.0
Co98 Co 0.69258 0.06772 0.58477 0.0
O99 O 0.70776 0.04671 0.59332 0.0
O100 O 0.73821 0.09104 0.58504 0.0
C101 C 0.65563 0.02482 0.57611 0.0
O102 O 0.68493 0.09518 0.57489 0.0
Co103 Co 0.62412 0.05272 0.58761 0.0
O104 O 0.6329 0.07653 0.57464 0.0
C105 C 0.67109 0.09104 0.6032 0.0
C106 C 0.73593 0.06954 0.59129 0.0
C107 C 0.66048 0.09438 0.5711 0.0
O108 O 0.69248 0.09298 0.59709 0.0
O109 O 0.64174 0.0737 0.60125 0.0
O110 O 0.68495 0.03843 0.57337 0.0
O111 O 0.6505 0.03509 0.58463 0.0
Co112 Co 0.97914 0.65013 0.58835 0.0
O113 O 0.01503 0.66933 0.57936 0.0
O114 O 1.00021 0.62607 0.58829 0.0
C115 C 0.98695 0.69414 0.59658 0.0
O116 O 0.94452 0.62461 0.59879 0.0
Co117 Co 0.9262 0.66538 0.58571 0.0
O118 O 0.91221 0.64416 0.59918 0.0
C119 C 0.93192 0.62426 0.57056 0.0
C120 C 0.01955 0.64641 0.58168 0.0
C121 C 0.92178 0.62666 0.60284 0.0
O122 O 0.95216 0.62342 0.57649 0.0
O123 O 0.9203 0.6418 0.57243 0.0
O124 O 0.00248 0.68062 0.59928 0.0
O125 O 0.97077 0.68321 0.58822 0.0
Co126 Co 0.97994 0.35849 0.08733 0.0
O127 O 0.99937 0.34219 0.09615 0.0
O128 O 0.95605 0.31269 0.08716 0.0
C129 C 0.02361 0.39564 0.07931 0.0
O130 O 0.95425 0.36719 0.07702 0.0
Co131 Co 0.99516 0.42724 0.09058 0.0
O132 O 0.97264 0.41947 0.07734 0.0
C133 C 0.9545 0.37936 0.10539 0.0
C134 C 0.97652 0.3142 0.09372 0.0
C135 C 0.95548 0.39206 0.07339 0.0
O136 O 0.95353 0.35826 0.09926 0.0
O137 O 0.97201 0.40896 0.10377 0.0
O138 O 0.01012 0.36624 0.07639 0.0
O139 O 0.0128 0.40068 0.08772 0.0
Co140 Co 0.68302 0.64808 0.08807 0.0
O141 O 0.66813 0.66711 0.07852 0.0
O142 O 0.63739 0.62537 0.08789 0.0
C143 C 0.72025 0.6929 0.09582 0.0
O144 O 0.69031 0.62289 0.09903 0.0
Co145 Co 0.75123 0.66157 0.08634 0.0
O146 O 0.74272 0.64526 0.10057 0.0
C147 C 0.70424 0.61922 0.07121 0.0
C148 C 0.63986 0.64528 0.08094 0.0
C149 C 0.71491 0.6272 0.10387 0.0
O150 O 0.68282 0.61988 0.07665 0.0
O151 O 0.73352 0.6359 0.0734 0.0
O152 O 0.69097 0.68012 0.09853 0.0
O153 O 0.72529 0.68039 0.08782 0.0
Co154 Co 0.39198 0.05464 0.08933 0.0
O155 O 0.35642 0.03551 0.09845 0.0
O156 O 0.37067 0.0785 0.08944 0.0
C157 C 0.384 0.01057 0.0811 0.0
O158 O 0.42642 0.08007 0.07882 0.0
Co159 Co 0.44472 0.03883 0.09185 0.0
O160 O 0.45954 0.06142 0.07863 0.0
C161 C 0.43792 0.0785 0.1073 0.0
C162 C 0.35163 0.05824 0.09612 0.0
C163 C 0.44969 0.07865 0.07492 0.0
O164 O 0.41931 0.08135 0.10115 0.0
O165 O 0.44836 0.05993 0.10547 0.0
O166 O 0.36836 0.02401 0.07843 0.0
O167 O 0.4003 0.02162 0.08941 0.0
Co168 Co 0.05701 0.68697 0.91998 0.0
O169 O 0.03769 0.70261 0.91086 0.0
O170 O 0.08048 0.73287 0.91997 0.0
C171 C 0.01279 0.65009 0.92786 0.0
O172 O 0.08243 0.67876 0.93058 0.0
Co173 Co 0.04157 0.61786 0.91742 0.0
O174 O 0.06157 0.62614 0.93116 0.0
C175 C 0.08227 0.66485 0.9023 0.0
C176 C 0.06004 0.73083 0.91329 0.0
C177 C 0.0795 0.65381 0.93482 0.0
O178 O 0.08378 0.68663 0.90825 0.0
O179 O 0.06445 0.63542 0.90415 0.0
O180 O 0.02627 0.67951 0.93074 0.0
O181 O 0.0242 0.64485 0.91965 0.0
Co182 Co 0.35221 0.39338 0.92107 0.0
O183 O 0.3684 0.37402 0.92995 0.0
O184 O 0.3978 0.41746 0.92111 0.0
C185 C 0.31544 0.34926 0.91291 0.0
O186 O 0.34353 0.41907 0.91072 0.0
Co187 Co 0.28347 0.37769 0.92372 0.0
O188 O 0.29112 0.39775 0.91007 0.0
C189 C 0.33064 0.41887 0.9389 0.0
C190 C 0.39628 0.39695 0.92764 0.0
C191 C 0.31856 0.41599 0.9065 0.0
O192 O 0.35203 0.41976 0.93302 0.0
O193 O 0.30128 0.40152 0.93694 0.0
O194 O 0.34469 0.36292 0.91008 0.0
O195 O 0.31035 0.36031 0.92126 0.0
Co196 Co 0.65065 0.98594 0.92113 0.0
O197 O 0.68412 0.00509 0.91124 0.0
O198 O 0.67324 0.96332 0.92044 0.0
C199 C 0.65911 0.03043 0.92918 0.0
O200 O 0.61865 0.96068 0.93237 0.0
Co201 Co 0.59578 0.99903 0.92023 0.0
O202 O 0.58915 0.98311 0.93449 0.0
C203 C 0.59891 0.95678 0.90479 0.0
C204 C 0.69038 0.98323 0.91337 0.0
C205 C 0.59896 0.96518 0.93755 0.0
O206 O 0.62148 0.95769 0.90992 0.0
O207 O 0.58653 0.97327 0.90725 0.0
O208 O 0.67587 0.0179 0.93149 0.0
O209 O 0.64096 0.01805 0.9213 0.0
Co210 Co 0.64152 0.69371 0.42115 0.0
O211 O 0.66142 0.67932 0.43051 0.0
O212 O 0.62011 0.64792 0.42094 0.0
C213 C 0.68533 0.73238 0.41366 0.0
O214 O 0.6159 0.70064 0.41028 0.0
Co215 Co 0.65281 0.76126 0.42409 0.0
O216 O 0.6323 0.75249 0.41045 0.0
C217 C 0.61295 0.71239 0.43877 0.0
C218 C 0.64027 0.65078 0.42787 0.0
C219 C 0.61657 0.72501 0.40642 0.0
O220 O 0.6129 0.69175 0.43262 0.0
O221 O 0.62978 0.7421 0.43722 0.0
O222 O 0.67364 0.70317 0.41075 0.0
O223 O 0.67265 0.73649 0.42177 0.0
Co224 Co 0.35258 0.97649 0.41947 0.0
O225 O 0.33767 0.99591 0.41011 0.0
O226 O 0.30707 0.95553 0.42002 0.0
C227 C 0.39245 0.02107 0.42643 0.0
O228 O 0.36015 0.95144 0.4304 0.0
Co229 Co 0.41911 0.98634 0.41607 0.0
O230 O 0.41122 0.96586 0.42964 0.0
C231 C 0.36864 0.94637 0.40171 0.0
C232 C 0.30945 0.97508 0.41295 0.0
C233 C 0.38436 0.95121 0.43395 0.0
O234 O 0.34889 0.94642 0.40815 0.0
O235 O 0.39838 0.96328 0.40299 0.0
O236 O 0.36385 0.01024 0.42963 0.0
O237 O 0.39519 0.007 0.41842 0.0
Co238 Co 0.05626 0.39037 0.42351 0.0
O239 O 0.02175 0.37179 0.43306 0.0
O240 O 0.03555 0.41485 0.42416 0.0
C241 C 0.04619 0.34564 0.41521 0.0
O242 O 0.08978 0.41533 0.41265 0.0
Co243 Co 0.10836 0.37326 0.4248 0.0
O244 O 0.11791 0.39132 0.41078 0.0
C245 C 0.10545 0.41472 0.44059 0.0
C246 C 0.01704 0.39472 0.43097 0.0
C247 C 0.10956 0.41042 0.40769 0.0
O248 O 0.08523 0.4169 0.43505 0.0
O249 O 0.11579 0.39632 0.43829 0.0
O250 O 0.03094 0.35971 0.41282 0.0
O251 O 0.06373 0.35676 0.42327 0.0
Zn252 Zn 0.02176 0.0213 0.13265 0.0
Zn253 Zn 0.02061 0.02946 0.1717 0.0
Zn254 Zn 0.01972 0.02623 0.15218 0.0
C255 C 0.99286 0.96612 0.16755 0.0
C256 C 0.08252 0.06383 0.1665 0.0
O257 O 0.99759 0.05277 0.14597 0.0
O258 O 0.00668 0.05027 0.1295 0.0
C259 C 0.9828 0.9603 0.13911 0.0
O260 O 0.99846 0.97712 0.15835 0.0
O261 O 0.99922 0.98455 0.17512 0.0
O262 O 0.0658 0.05418 0.17444 0.0
O263 O 0.06969 0.05593 0.15753 0.0
O264 O 0.9928 0.97546 0.13088 0.0
O265 O 0.99147 0.97503 0.14781 0.0
O266 O 0.07017 0.04876 0.14713 0.0
O267 O 0.06684 0.0384 0.13049 0.0
C268 C 0.08336 0.05008 0.13843 0.0
O269 O 0.99086 0.0477 0.15671 0.0
O270 O 0.99664 0.05074 0.17357 0.0
C271 C 0.99713 0.06087 0.13662 0.0
C272 C 0.98489 0.05499 0.16564 0.0
Zn273 Zn 0.02331 0.02031 0.33789 0.0
Zn274 Zn 0.02404 0.02604 0.37324 0.0
Zn275 Zn 0.0223 0.02237 0.35502 0.0
C276 C 0.04124 0.08565 0.36754 0.0
C277 C 0.96284 0.97981 0.36805 0.0
O278 O 0.03901 0.98959 0.35041 0.0
O279 O 0.00986 0.97498 0.33649 0.0
C280 C 0.07396 0.07541 0.34199 0.0
O281 O 0.04403 0.07364 0.35904 0.0
O282 O 0.02933 0.06825 0.37525 0.0
O283 O 0.98233 0.9874 0.37528 0.0
O284 O 0.97201 0.99413 0.35941 0.0
O285 O 0.06857 0.05237 0.33626 0.0
O286 O 0.05472 0.07098 0.34936 0.0
O287 O 0.97334 0.0048 0.3494 0.0
O288 O 0.99191 0.03324 0.33549 0.0
C289 C 0.96917 0.01777 0.3415 0.0
O290 O 0.05057 1.00086 0.3602 0.0
O291 O 0.06177 0.02313 0.37553 0.0
C292 C 0.02579 0.96998 0.34288 0.0
C293 C 0.06662 0.00808 0.36859 0.0
Zn294 Zn 0.01868 0.0235 0.87458 0.0
Zn295 Zn 0.02236 0.01851 0.83539 0.0
Zn296 Zn 0.01931 0.02004 0.85467 0.0
C297 C 0.04873 0.08117 0.83953 0.0
C298 C 0.95881 0.98547 0.83977 0.0
O299 O 0.04211 0.99416 0.86085 0.0
O300 O 0.03905 0.99896 0.87762 0.0
C301 C 0.05431 0.0854 0.86802 0.0
O302 O 0.04048 0.06932 0.84858 0.0
O303 O 0.04558 0.06354 0.832 0.0
O304 O 0.97745 0.99603 0.83229 0.0
O305 O 0.9697 0.99147 0.84901 0.0
O306 O 0.04422 0.0699 0.87619 0.0
O307 O 0.04669 0.0709 0.85927 0.0
O308 O 0.96897 0.99678 0.85964 0.0
O309 O 0.97279 0.00241 0.87651 0.0
C310 C 0.95599 0.99288 0.86854 0.0
O311 O 0.04796 0.99809 0.85021 0.0
O312 O 0.04395 0.99496 0.83332 0.0
C313 C 0.04691 0.98825 0.87007 0.0
C314 C 0.05441 0.99019 0.84146 0.0
Zn315 Zn 0.01336 0.02599 0.67428 0.0
Zn316 Zn 0.01834 0.01416 0.63567 0.0
Zn317 Zn 0.01514 0.02048 0.65504 0.0
C318 C 0.99137 0.95378 0.64289 0.0
C319 C 0.07951 0.05554 0.64161 0.0
O320 O 0.99397 0.05062 0.65839 0.0
O321 O 0.99253 0.05044 0.67534 0.0
C322 C 0.97931 0.96204 0.67091 0.0
O323 O 0.99266 0.9687 0.65126 0.0
O324 O 0.00255 0.96877 0.6347 0.0
O325 O 0.06364 0.0439 0.63353 0.0
O326 O 0.06572 0.04818 0.65042 0.0
O327 O 0.98887 0.98172 0.67822 0.0
O328 O 0.98667 0.9717 0.66159 0.0
O329 O 0.06444 0.04295 0.66109 0.0
O330 O 0.05827 0.04779 0.67766 0.0
C331 C 0.07601 0.05114 0.67022 0.0
O332 O 0.98808 0.04089 0.64792 0.0
O333 O 0.98812 0.02692 0.63177 0.0
C334 C 0.98749 0.05951 0.66696 0.0
C335 C 0.97863 0.03855 0.63856 0.0
Zn336 Zn 0.6894 0.35033 0.51593 0.0
Zn337 Zn 0.69272 0.37033 0.46566 0.0
Zn338 Zn 0.68588 0.36051 0.4846 0.0
C339 C 0.75284 0.39252 0.47426 0.0
C340 C 0.65237 0.30479 0.46785 0.0
O341 O 0.65761 0.37966 0.49093 0.0
O342 O 0.67238 0.3652 0.50421 0.0
C343 C 0.74721 0.38847 0.50273 0.0
O344 O 0.73691 0.38421 0.48263 0.0
O345 O 0.73905 0.38872 0.46578 0.0
O346 O 0.66412 0.32592 0.4611 0.0
O347 O 0.65933 0.31244 0.47737 0.0
O348 O 0.73486 0.37644 0.51142 0.0
O349 O 0.73111 0.38339 0.49429 0.0
O350 O 0.66262 0.3096 0.48772 0.0
O351 O 0.6716 0.33399 0.50208 0.0
C352 C 0.66357 0.30843 0.49745 0.0
O353 O 0.6644 0.3899 0.4808 0.0
O354 O 0.67598 0.39893 0.46432 0.0
C355 C 0.65648 0.37655 0.50065 0.0
C356 C 0.664 0.40295 0.47233 0.0
Zn357 Zn 0.68332 0.34986 0.70862 0.0
Zn358 Zn 0.68819 0.34776 0.66891 0.0
Zn359 Zn 0.68571 0.34932 0.68857 0.0
C360 C 0.62528 0.32146 0.67328 0.0
C361 C 0.72227 0.41097 0.67409 0.0
O362 O 0.71153 0.32644 0.69467 0.0
O363 O 0.70741 0.32887 0.7115 0.0
C364 C 0.62119 0.31485 0.70188 0.0
O365 O 0.63673 0.32829 0.68245 0.0
O366 O 0.6431 0.32604 0.66574 0.0
O367 O 0.71246 0.39326 0.66628 0.0
O368 O 0.7149 0.39909 0.68315 0.0
O369 O 0.6371 0.32466 0.71004 0.0
O370 O 0.63514 0.32228 0.6931 0.0
O371 O 0.70859 0.39963 0.69368 0.0
O372 O 0.70455 0.39615 0.71057 0.0
C373 C 0.71304 0.41281 0.7026 0.0
O374 O 0.70702 0.32038 0.68403 0.0
O375 O 0.70975 0.3239 0.66712 0.0
C376 C 0.71772 0.32126 0.7038 0.0
C377 C 0.71443 0.31348 0.67528 0.0
Zn378 Zn 0.69044 0.35761 0.20805 0.0
Zn379 Zn 0.68218 0.34414 0.16849 0.0
Zn380 Zn 0.6866 0.35183 0.18797 0.0
C381 C 0.71073 0.40874 0.17156 0.0
C382 C 0.62125 0.31149 0.17511 0.0
O383 O 0.71024 0.32649 0.19382 0.0
O384 O 0.71084 0.33268 0.21064 0.0
C385 C 0.72394 0.4188 0.20011 0.0
O386 O 0.70688 0.39987 0.181 0.0
O387 O 0.7028 0.38855 0.16444 0.0
O388 O 0.63652 0.31935 0.16684 0.0
O389 O 0.63574 0.32117 0.18378 0.0
O390 O 0.71643 0.40426 0.20852 0.0
O391 O 0.71431 0.40333 0.19157 0.0
O392 O 0.6378 0.32984 0.19421 0.0
O393 O 0.64495 0.33756 0.21095 0.0
C394 C 0.62662 0.32731 0.20334 0.0
O395 O 0.71495 0.33031 0.18307 0.0
O396 O 0.70595 0.32248 0.1664 0.0
C397 C 0.7167 0.32103 0.20287 0.0
C398 C 0.71952 0.32082 0.17431 0.0
Zn399 Zn 0.6853 0.35907 0.00725 0.0
Zn400 Zn 0.68456 0.34761 0.96817 0.0
Zn401 Zn 0.68396 0.35436 0.98766 0.0
C402 C 0.65941 0.28756 0.9754 0.0
C403 C 0.74645 0.38939 0.97336 0.0
O404 O 0.66186 0.38294 0.99176 0.0
O405 O 0.66373 0.38291 0.00871 0.0
C406 C 0.65033 0.29533 1.00348 0.0
O407 O 0.66195 0.30273 0.98382 0.0
O408 O 0.66881 0.30224 0.96708 0.0
O409 O 0.72955 0.37727 0.9655 0.0
O410 O 0.73386 0.38247 0.98235 0.0
O411 O 0.66161 0.31431 0.01095 0.0
O412 O 0.65621 0.30571 0.99421 0.0
O413 O 0.73405 0.37767 0.99299 0.0
O414 O 0.73072 0.38176 0.00979 0.0
C415 C 0.74718 0.38591 1.00191 0.0
O416 O 0.65581 0.37446 0.98123 0.0
O417 O 0.65399 0.36051 0.96498 0.0
C418 C 0.65646 0.3913 1.0006 0.0
C419 C 0.64529 0.37213 0.97203 0.0
Zn420 Zn 0.35281 0.69516 0.84012 0.0
Zn421 Zn 0.34924 0.68641 0.8006 0.0
Zn422 Zn 0.35137 0.69034 0.82066 0.0
C423 C 0.41269 0.71707 0.80581 0.0
C424 C 0.31566 0.6245 0.8077 0.0
O425 O 0.32312 0.71213 0.82563 0.0
O426 O 0.33086 0.71848 0.84236 0.0
C427 C 0.41488 0.72731 0.83439 0.0
O428 O 0.40079 0.71296 0.81489 0.0
O429 O 0.395 0.70808 0.79804 0.0
O430 O 0.32446 0.63981 0.79946 0.0
O431 O 0.32393 0.63921 0.81641 0.0
O432 O 0.39829 0.71807 0.84238 0.0
O433 O 0.40179 0.71978 0.82546 0.0
O434 O 0.33055 0.64164 0.82706 0.0
O435 O 0.33001 0.65023 0.8437 0.0
C436 C 0.32425 0.63128 0.83632 0.0
O437 O 0.32779 0.71579 0.8149 0.0
O438 O 0.32748 0.70999 0.79805 0.0
C439 C 0.31818 0.72124 0.8344 0.0
C440 C 0.32113 0.7211 0.80585 0.0
Zn441 Zn 0.35084 0.68848 0.04043 0.0
Zn442 Zn 0.35524 0.68314 1.00106 0.0
Zn443 Zn 0.35325 0.68674 0.02044 0.0
C444 C 0.29253 0.65669 0.00516 0.0
C445 C 0.38858 0.74697 0.0054 0.0
O446 O 0.37923 0.66441 0.0269 0.0
O447 O 0.37502 0.66784 0.04369 0.0
C448 C 0.28873 0.65272 0.03381 0.0
O449 O 0.30409 0.66491 0.01429 0.0
O450 O 0.31029 0.66017 0.99771 0.0
O451 O 0.37839 0.72815 0.99785 0.0
O452 O 0.38189 0.73624 0.01461 0.0
O453 O 0.30469 0.66323 0.04193 0.0
O454 O 0.30264 0.65962 0.02501 0.0
O455 O 0.37602 0.73744 0.02517 0.0
O456 O 0.37185 0.73482 0.04206 0.0
C457 C 0.38037 0.75109 0.03401 0.0
O458 O 0.37535 0.6581 0.01629 0.0
O459 O 0.37805 0.66066 0.99938 0.0
C460 C 0.38537 0.65977 0.03611 0.0
C461 C 0.38311 0.65101 0.00764 0.0
Zn462 Zn 0.35915 0.69612 0.54268 0.0
Zn463 Zn 0.35045 0.68093 0.50396 0.0
Zn464 Zn 0.35331 0.68724 0.52349 0.0
C465 C 0.37692 0.74458 0.50697 0.0
C466 C 0.28887 0.64615 0.51054 0.0
O467 O 0.37622 0.66123 0.52959 0.0
O468 O 0.37293 0.66631 0.54631 0.0
C469 C 0.39552 0.75539 0.53494 0.0
O470 O 0.37298 0.73512 0.51635 0.0
O471 O 0.36984 0.72505 0.49969 0.0
O472 O 0.30482 0.65459 0.50241 0.0
O473 O 0.30248 0.65604 0.51934 0.0
O474 O 0.39018 0.74138 0.54338 0.0
O475 O 0.38252 0.73945 0.52666 0.0
O476 O 0.30421 0.66652 0.52962 0.0
O477 O 0.31559 0.68454 0.54553 0.0
C478 C 0.29547 0.67088 0.53852 0.0
O479 O 0.38141 0.66512 0.51893 0.0
O480 O 0.37519 0.66032 0.5021 0.0
C481 C 0.37998 0.65461 0.53884 0.0
C482 C 0.38714 0.6569 0.51013 0.0
Zn483 Zn 0.34918 0.67827 0.30032 0.0
Zn484 Zn 0.35199 0.69809 0.33882 0.0
Zn485 Zn 0.34866 0.6868 0.31971 0.0
C486 C 0.4128 0.72 0.33373 0.0
C487 C 0.31594 0.63279 0.33694 0.0
O488 O 0.32057 0.70599 0.31246 0.0
O489 O 0.31836 0.69023 0.2964 0.0
C490 C 0.4111 0.7206 0.30526 0.0
O491 O 0.39899 0.70991 0.32496 0.0
O492 O 0.39717 0.71926 0.34148 0.0
O493 O 0.32702 0.65455 0.3436 0.0
O494 O 0.32157 0.63962 0.32734 0.0
O495 O 0.39417 0.70793 0.29744 0.0
O496 O 0.39849 0.71413 0.31427 0.0
O497 O 0.32607 0.63472 0.31697 0.0
O498 O 0.33353 0.63282 0.3003 0.0
C499 C 0.32373 0.61885 0.30874 0.0
O500 O 0.32646 0.71601 0.32276 0.0
O501 O 0.33224 0.72355 0.33956 0.0
C502 C 0.30997 0.70278 0.30322 0.0
C503 C 0.3229 0.72803 0.33114 0.0
H504 H 0.22714 0.28915 0.22176 0.0
H505 H 0.2063 0.25215 0.20725 0.0
H506 H 0.26354 0.21332 0.21576 0.0
H507 H 0.28476 0.25025 0.23027 0.0
H508 H 0.24651 0.23668 0.19027 0.0
H509 H 0.16205 0.14186 0.21629 0.0
H510 H 0.17689 0.18304 0.21917 0.0
H511 H 0.20218 0.16717 0.22034 0.0
C512 C 0.23556 0.27297 0.22053 0.0
C513 C 0.25748 0.27259 0.22727 0.0
C514 C 0.22375 0.25198 0.21219 0.0
C515 C 0.23351 0.23017 0.21044 0.0
C516 C 0.25588 0.23014 0.21697 0.0
H517 H 0.12608 0.05637 0.17639 0.0
H518 H 0.17157 0.09873 0.18538 0.0
C519 C 0.26784 0.2512 0.22529 0.0
C520 C 0.21822 0.20564 0.20235 0.0
H521 H 0.15893 0.12971 0.19881 0.0
C522 C 0.22752 0.21315 0.1921 0.0
C523 C 0.1937 0.17504 0.20481 0.0
C524 C 0.18286 0.16603 0.21573 0.0
C525 C 0.21254 0.19072 0.18417 0.0
C526 C 0.1872 0.16032 0.18658 0.0
C527 C 0.1785 0.15284 0.19691 0.0
C528 C 0.16742 0.1364 0.17865 0.0
C529 C 0.22416 0.1998 0.17333 0.0
C530 C 0.15141 0.1435 0.17127 0.0
C531 C 0.126 0.11922 0.16587 0.0
C532 C 0.11586 0.08759 0.16797 0.0
C533 C 0.1338 0.08064 0.17454 0.0
C534 C 0.15957 0.10486 0.17976 0.0
H535 H 0.2495 0.21813 0.1732 0.0
H536 H 0.22057 0.17911 0.16873 0.0
H537 H 0.21111 0.20984 0.16963 0.0
H538 H 0.15643 0.16744 0.17038 0.0
H539 H 0.11203 0.12509 0.16102 0.0
H540 H 0.76573 0.96078 0.22309 0.0
H541 H 0.80268 0.97793 0.20876 0.0
H542 H 0.82461 0.07373 0.21344 0.0
H543 H 0.78775 0.05698 0.22785 0.0
H544 H 0.81146 0.03979 0.19033 0.0
H545 H 0.90382 0.04425 0.21573 0.0
H546 H 0.86428 0.01131 0.21688 0.0
H547 H 0.87292 0.05002 0.22064 0.0
C548 C 0.77815 0.98548 0.22105 0.0
C549 C 0.77385 0.0075 0.22671 0.0
C550 C 0.79918 0.99519 0.21282 0.0
C551 C 0.8162 0.02703 0.21003 0.0
C552 C 0.81149 0.04901 0.21545 0.0
H553 H 0.98994 0.10419 0.17664 0.0
H554 H 0.94665 0.10332 0.18599 0.0
C555 C 0.79055 0.03937 0.22372 0.0
C556 C 0.84077 0.03757 0.20202 0.0
H557 H 0.91518 0.0524 0.19815 0.0
C558 C 0.83427 0.04283 0.19201 0.0
C559 C 0.87046 0.04168 0.20428 0.0
C560 C 0.8786 0.03671 0.21496 0.0
C561 C 0.8567 0.0515 0.18412 0.0
C562 C 0.88617 0.05476 0.18634 0.0
C563 C 0.8927 0.05012 0.19643 0.0
C564 C 0.91034 0.06129 0.17837 0.0
C565 C 0.84876 0.05716 0.17352 0.0
C566 C 0.9042 0.03933 0.17043 0.0
C567 C 0.92902 0.04025 0.16491 0.0
C568 C 0.96024 0.06285 0.16737 0.0
C569 C 0.96605 0.0868 0.1745 0.0
C570 C 0.94132 0.08611 0.17992 0.0
H571 H 0.82976 0.06286 0.17373 0.0
H572 H 0.86967 0.07669 0.16972 0.0
H573 H 0.84045 0.03545 0.1688 0.0
H574 H 0.88062 0.01967 0.16918 0.0
H575 H 0.92398 0.02112 0.15961 0.0
H576 H 0.9386 0.75473 0.22787 0.0
H577 H 0.94164 0.7844 0.21277 0.0
H578 H 0.0413 0.82103 0.21082 0.0
H579 H 0.03864 0.79152 0.22622 0.0
H580 H 0.0274 0.86686 0.20878 0.0
H581 H 0.94953 0.76843 0.18292 0.0
H582 H 0.93042 0.76568 0.19489 0.0
H583 H 0.96505 0.76242 0.19462 0.0
C584 C 0.96127 0.76887 0.22425 0.0
C585 C 0.98842 0.7706 0.22832 0.0
C586 C 0.96285 0.78561 0.21549 0.0
C587 C 0.99151 0.8043 0.21045 0.0
C588 C 0.01881 0.80639 0.21449 0.0
H589 H 0.01643 0.93134 0.15927 0.0
H590 H 0.01632 0.88712 0.1679 0.0
C591 C 0.01728 0.78961 0.22332 0.0
C592 C 0.99291 0.82345 0.2015 0.0
H593 H 0.95525 0.81935 0.17908 0.0
C594 C 0.0122 0.85638 0.20217 0.0
C595 C 0.97322 0.80987 0.1928 0.0
C596 C 0.95366 0.77463 0.19121 0.0
C597 C 0.01076 0.87607 0.19477 0.0
C598 C 0.98938 0.86253 0.18651 0.0
C599 C 0.97141 0.82964 0.18547 0.0
C600 C 0.98341 0.88268 0.17966 0.0
C601 C 0.03097 0.91138 0.19607 0.0
C602 C 0.96361 0.89342 0.1831 0.0
C603 C 0.96373 0.91854 0.17823 0.0
C604 C 0.98347 0.93319 0.1698 0.0
C605 C 1.00067 0.92015 0.16566 0.0
C606 C 1.00082 0.8951 0.17063 0.0
H607 H 0.04903 0.91814 0.20214 0.0
H608 H 0.04289 0.92229 0.18874 0.0
H609 H 0.01592 0.92125 0.19817 0.0
H610 H 0.95002 0.88411 0.19005 0.0
H611 H 0.95043 0.9283 0.18161 0.0
H612 H 0.26618 0.24943 0.27726 0.0
H613 H 0.23858 0.21886 0.2925 0.0
H614 H 0.19907 0.27816 0.29751 0.0
H615 H 0.22593 0.30836 0.28232 0.0
H616 H 0.23892 0.23674 0.31346 0.0
H617 H 0.12156 0.18963 0.2955 0.0
H618 H 0.15748 0.20901 0.2882 0.0
H619 H 0.14554 0.23188 0.29572 0.0
C620 C 0.25169 0.25601 0.28162 0.0
C621 C 0.24787 0.28102 0.27844 0.0
C622 C 0.23601 0.23858 0.29035 0.0
C623 C 0.21632 0.2459 0.29603 0.0
C624 C 0.21356 0.27165 0.29311 0.0
H625 H 0.07674 0.13247 0.34263 0.0
H626 H 0.11518 0.18031 0.33351 0.0
C627 C 0.229 0.2889 0.2844 0.0
C628 C 0.1977 0.22598 0.30477 0.0
H629 H 0.12245 0.17615 0.31268 0.0
C630 C 0.21346 0.22358 0.31332 0.0
C631 C 0.16446 0.20903 0.30462 0.0
C632 C 0.14618 0.20971 0.29549 0.0
C633 C 0.19682 0.20435 0.32166 0.0
C634 C 0.1636 0.18675 0.32137 0.0
C635 C 0.1479 0.18993 0.31296 0.0
C636 C 0.14466 0.16164 0.32889 0.0
C637 C 0.21496 0.20289 0.33067 0.0
C638 C 0.14903 0.13578 0.3296 0.0
C639 C 0.1272 0.10867 0.33474 0.0
C640 C 0.10051 0.10678 0.33928 0.0
C641 C 0.09731 0.13349 0.3393 0.0
C642 C 0.11914 0.16069 0.33404 0.0
H643 H 0.23807 0.22502 0.33147 0.0
H644 H 0.20168 0.19873 0.33794 0.0
H645 H 0.21944 0.18321 0.32945 0.0
H646 H 0.16806 0.13559 0.32554 0.0
H647 H 0.13015 0.08834 0.33459 0.0
H648 H 0.74029 0.93925 0.28068 0.0
H649 H 0.77104 0.94349 0.29573 0.0
H650 H 0.82562 0.04449 0.29232 0.0
H651 H 0.79442 0.04055 0.27721 0.0
H652 H 0.83341 0.96537 0.29611 0.0
H653 H 0.80592 0.0361 0.3229 0.0
H654 H 0.78299 0.01742 0.31151 0.0
H655 H 0.81979 0.054 0.3106 0.0
C656 C 0.75866 0.96251 0.28313 0.0
C657 C 0.76493 0.98959 0.27764 0.0
C658 C 0.7762 0.96484 0.29179 0.0
C659 C 0.80047 0.99429 0.29525 0.0
C660 C 0.80658 0.02153 0.28993 0.0
H661 H 0.95911 0.06246 0.33399 0.0
H662 H 0.91332 0.05413 0.32441 0.0
C663 C 0.78886 0.01923 0.28124 0.0
C664 C 0.82068 0.9959 0.30394 0.0
H665 H 0.84876 0.02936 0.32752 0.0
C666 C 0.83643 0.97903 0.30304 0.0
C667 C 0.8246 0.01368 0.313 0.0
C668 C 0.80721 0.03111 0.31464 0.0
C669 C 0.85688 0.9804 0.31072 0.0
C670 C 0.86132 0.99868 0.3197 0.0
C671 C 0.84509 0.01507 0.32071 0.0
C672 C 0.88568 0.00412 0.32741 0.0
C673 C 0.87473 0.96346 0.30893 0.0
C674 C 0.88475 0.9791 0.33284 0.0
C675 C 0.91107 0.9839 0.33843 0.0
C676 C 0.93852 0.01376 0.33862 0.0
C677 C 0.93823 0.03918 0.33395 0.0
C678 C 0.91206 0.03445 0.32846 0.0
H679 H 0.87291 0.95525 0.30086 0.0
H680 H 0.89995 0.97908 0.31086 0.0
H681 H 0.86505 0.94252 0.31395 0.0
H682 H 0.8644 0.95556 0.33227 0.0
H683 H 0.9108 0.96387 0.34187 0.0
H684 H 0.95849 0.75941 0.28381 0.0
H685 H 0.97347 0.79366 0.29893 0.0
H686 H 0.07114 0.8273 0.29282 0.0
H687 H 0.05645 0.79333 0.27754 0.0
H688 H 0.00818 0.79729 0.31659 0.0
H689 H 0.06769 0.90864 0.29429 0.0
H690 H 0.04238 0.87077 0.28829 0.0
H691 H 0.08133 0.88152 0.29221 0.0
C692 C 0.98319 0.77401 0.28565 0.0
C693 C 0.00625 0.77376 0.27935 0.0
C694 C 0.99171 0.79353 0.29434 0.0
C695 C 0.02343 0.81331 0.29695 0.0
C696 C 0.04653 0.81261 0.29086 0.0
H697 H 0.08087 0.9703 0.34067 0.0
H698 H 0.0866 0.92954 0.33152 0.0
C699 C 0.03805 0.79309 0.28213 0.0
C700 C 0.0319 0.83527 0.30586 0.0
H701 H 0.06318 0.91319 0.312 0.0
C702 C 0.02063 0.82267 0.31562 0.0
C703 C 0.04844 0.8684 0.30463 0.0
C704 C 0.06054 0.8833 0.2943 0.0
C705 C 0.0242 0.84223 0.32406 0.0
C706 C 0.03897 0.87521 0.32268 0.0
C707 C 0.05197 0.88792 0.31307 0.0
C708 C 0.03662 0.8963 0.33042 0.0
C709 C 0.01135 0.8273 0.33432 0.0
C710 C 0.00678 0.89071 0.33317 0.0
C711 C 0.00358 0.91384 0.33832 0.0
C712 C 0.03011 0.94298 0.3409 0.0
C713 C 0.06011 0.94774 0.33895 0.0
C714 C 0.06335 0.92459 0.33365 0.0
H715 H 0.01196 0.80521 0.33514 0.0
H716 H 0.02473 0.84361 0.34074 0.0
H717 H 0.98646 0.82105 0.33492 0.0
H718 H 0.98578 0.86952 0.33057 0.0
H719 H 0.9802 0.9099 0.3396 0.0
H720 H 0.73709 0.76525 0.78505 0.0
H721 H 0.75573 0.79938 0.80031 0.0
H722 H 0.85081 0.82394 0.79328 0.0
H723 H 0.83194 0.78824 0.77847 0.0
H724 H 0.84208 0.81484 0.81254 0.0
H725 H 0.79502 0.89161 0.80192 0.0
H726 H 0.76546 0.85093 0.80342 0.0
H727 H 0.79382 0.86236 0.79324 0.0
C728 C 0.76198 0.77807 0.78677 0.0
C729 C 0.78312 0.77425 0.78055 0.0
C730 C 0.77266 0.79776 0.79547 0.0
C731 C 0.80483 0.8149 0.7979 0.0
C732 C 0.82588 0.81103 0.79163 0.0
H733 H 0.92743 0.98706 0.82321 0.0
H734 H 0.88165 0.94236 0.81559 0.0
C735 C 0.81512 0.7907 0.78313 0.0
C736 C 0.81708 0.83675 0.80694 0.0
H737 H 0.82292 0.90347 0.81738 0.0
C738 C 0.83777 0.83416 0.81363 0.0
C739 C 0.81118 0.86179 0.80846 0.0
C740 C 0.79039 0.86709 0.80134 0.0
C741 C 0.85465 0.85711 0.82121 0.0
C742 C 0.8495 0.88273 0.82255 0.0
C743 C 0.82681 0.88384 0.81641 0.0
C744 C 0.87167 0.91155 0.82856 0.0
C745 C 0.87962 0.85487 0.8271 0.0
C746 C 0.88012 0.91032 0.83878 0.0
C747 C 0.90706 0.93609 0.84314 0.0
C748 C 0.92534 0.96343 0.83736 0.0
C749 C 0.91411 0.96605 0.82778 0.0
C750 C 0.88776 0.94038 0.8234 0.0
H751 H 0.88422 0.83671 0.82381 0.0
H752 H 0.90206 0.87784 0.82713 0.0
H753 H 0.87185 0.84831 0.83514 0.0
H754 H 0.86729 0.88879 0.84311 0.0
H755 H 0.91503 0.93353 0.85059 0.0
H756 H 0.28341 0.08349 0.78716 0.0
H757 H 0.24857 0.06875 0.80196 0.0
H758 H 0.20875 0.97038 0.79412 0.0
H759 H 0.24395 0.98482 0.77936 0.0
H760 H 0.1853 0.03771 0.80104 0.0
H761 H 0.22222 0.96987 0.82488 0.0
H762 H 0.24596 0.99483 0.81453 0.0
H763 H 0.2132 0.95604 0.81185 0.0
C764 C 0.26752 0.05867 0.78861 0.0
C765 C 0.26649 0.03538 0.782 0.0
C766 C 0.24764 0.05029 0.79712 0.0
C767 C 0.22632 0.01845 0.79926 0.0
C768 C 0.22549 0.99508 0.79278 0.0
H769 H 0.05113 0.94341 0.82949 0.0
H770 H 0.09652 0.94615 0.821 0.0
C771 C 0.24546 0.00343 0.78427 0.0
C772 C 0.20302 0.01005 0.80767 0.0
H773 H 0.1737 0.96652 0.8295 0.0
C774 C 0.18307 0.02244 0.80731 0.0
C775 C 0.20002 0.99004 0.81586 0.0
C776 C 0.22167 0.97713 0.81689 0.0
C777 C 0.15989 0.01494 0.81477 0.0
C778 C 0.15638 0.99439 0.82281 0.0
C779 C 0.17649 0.98224 0.82331 0.0
C780 C 0.13073 0.98479 0.83038 0.0
C781 C 0.13875 0.02857 0.81391 0.0
C782 C 0.13503 0.00394 0.839 0.0
C783 C 0.10897 0.00203 0.844 0.0
C784 C 0.07856 0.98136 0.84027 0.0
C785 C 0.07435 0.9594 0.83255 0.0
C786 C 0.10029 0.96105 0.82765 0.0
H787 H 0.14577 0.04567 0.80755 0.0
H788 H 0.1142 0.00923 0.81256 0.0
H789 H 0.13912 0.04067 0.82119 0.0
H790 H 0.15839 0.02252 0.84117 0.0
H791 H 0.11286 0.01947 0.84984 0.0
H792 H 0.00368 0.25985 0.78156 0.0
H793 H 1.0019 0.23134 0.79713 0.0
H794 H 0.09656 0.25276 0.79136 0.0
H795 H 0.09882 0.28153 0.77609 0.0
H796 H 0.00736 0.18037 0.79966 0.0
H797 H 0.10423 0.27944 0.82085 0.0
H798 H 0.08672 0.28537 0.80964 0.0
H799 H 0.11702 0.27556 0.80833 0.0
C800 C 0.02412 0.25852 0.78364 0.0
C801 C 0.05146 0.27325 0.77758 0.0
C802 C 0.02313 0.24234 0.79256 0.0
C803 C 0.04945 0.24068 0.79561 0.0
C804 C 0.07636 0.25465 0.78942 0.0
H805 H 0.09285 0.12133 0.82623 0.0
H806 H 0.09293 0.16533 0.81774 0.0
C807 C 0.07745 0.27089 0.78059 0.0
C808 C 0.04862 0.22283 0.80488 0.0
H809 H 0.09238 0.22694 0.82571 0.0
C810 C 0.02547 0.19076 0.8055 0.0
C811 C 0.07213 0.23637 0.81258 0.0
C812 C 0.09619 0.27117 0.81288 0.0
C813 C 0.02652 0.17148 0.81316 0.0
C814 C 0.0513 0.18458 0.82039 0.0
C815 C 0.07347 0.21694 0.82013 0.0
C816 C 0.05651 0.164 0.82731 0.0
C817 C 1.00218 0.13675 0.81314 0.0
C818 C 0.03739 0.15004 0.83592 0.0
C819 C 0.03779 0.1252 0.84094 0.0
C820 C 0.0569 0.11378 0.83726 0.0
C821 C 0.07804 0.12981 0.82925 0.0
C822 C 0.07797 0.15483 0.82436 0.0
H823 H 0.98499 0.13 0.80678 0.0
H824 H 0.01383 0.12264 0.81242 0.0
H825 H 0.98922 0.13049 0.82052 0.0
H826 H 0.02068 0.15685 0.83831 0.0
H827 H 0.02096 0.11297 0.847 0.0
H828 H 0.79052 0.80153 0.73394 0.0
H829 H 0.81915 0.82979 0.71855 0.0
H830 H 0.81112 0.74414 0.70636 0.0
H831 H 0.78433 0.71654 0.72201 0.0
H832 H 0.86713 0.78688 0.70445 0.0
H833 H 0.79828 0.83764 0.69011 0.0
H834 H 0.8087 0.84945 0.7032 0.0
H835 H 0.78351 0.80821 0.7 0.0
C836 C 0.79437 0.78869 0.72787 0.0
C837 C 0.78535 0.75694 0.72916 0.0
C838 C 0.81053 0.80477 0.71901 0.0
C839 C 0.81703 0.78911 0.71114 0.0
C840 C 0.80655 0.7569 0.71227 0.0
H841 H 0.9264 0.9171 0.66072 0.0
H842 H 0.88448 0.86756 0.66818 0.0
C843 C 0.79118 0.7411 0.72122 0.0
C844 C 0.83766 0.80691 0.70232 0.0
H845 H 0.85369 0.8655 0.68532 0.0
C846 C 0.86365 0.80353 0.70014 0.0
C847 C 0.83306 0.82815 0.69639 0.0
C848 C 0.80413 0.83075 0.69748 0.0
C849 C 0.88614 0.82225 0.69279 0.0
C850 C 0.88335 0.84592 0.68772 0.0
C851 C 0.85622 0.84773 0.68931 0.0
C852 C 0.91019 0.87185 0.68208 0.0
C853 C 0.91307 0.81689 0.69073 0.0
C854 C 0.93888 0.8901 0.68721 0.0
C855 C 0.96261 0.91796 0.68297 0.0
C856 C 0.95822 0.92854 0.67352 0.0
C857 C 0.9305 0.90928 0.66796 0.0
C858 C 0.90648 0.88118 0.67227 0.0
H859 H 0.90543 0.79155 0.69154 0.0
H860 H 0.92294 0.8246 0.68293 0.0
H861 H 0.93191 0.83031 0.69646 0.0
H862 H 0.94224 0.88403 0.69487 0.0
H863 H 0.9837 0.93242 0.68743 0.0
H864 H 0.24277 1.00069 0.73091 0.0
H865 H 0.21195 0.99733 0.71574 0.0
H866 H 0.26545 0.09862 0.71313 0.0
H867 H 0.29637 0.10222 0.72801 0.0
H868 H 0.17463 0.02229 0.71388 0.0
H869 H 0.26522 0.07248 0.68368 0.0
H870 H 0.27179 0.05943 0.6958 0.0
H871 H 0.27657 0.09805 0.6947 0.0
C872 C 0.24823 0.0222 0.72702 0.0
C873 C 0.27202 0.05171 0.73075 0.0
C874 C 0.23063 0.02024 0.71833 0.0
C875 C 0.23676 0.04769 0.71315 0.0
C876 C 0.26077 0.07703 0.71679 0.0
H877 H 0.11482 0.09426 0.68421 0.0
H878 H 0.15768 0.09333 0.69305 0.0
C879 C 0.27823 0.07903 0.72543 0.0
C880 C 0.21627 0.04637 0.7046 0.0
H881 H 0.21816 0.07492 0.68062 0.0
C882 C 0.1841 0.03323 0.70654 0.0
C883 C 0.22847 0.06044 0.69495 0.0
C884 C 0.26236 0.07309 0.69212 0.0
C885 C 0.16425 0.03541 0.69938 0.0
C886 C 0.1769 0.0515 0.69007 0.0
C887 C 0.20864 0.06305 0.68783 0.0
C888 C 0.15746 0.05797 0.68303 0.0
C889 C 0.12994 0.02134 0.70197 0.0
C890 C 0.14475 0.04008 0.67401 0.0
C891 C 0.12043 0.04096 0.66882 0.0
C892 C 0.10846 0.05948 0.67269 0.0
C893 C 0.12362 0.07981 0.68106 0.0
C894 C 0.14796 0.07914 0.68616 0.0
H895 H 0.12252 0.00395 0.70826 0.0
H896 H 0.12572 0.04045 0.70448 0.0
H897 H 0.11501 0.00954 0.69514 0.0
H898 H 0.15185 0.02366 0.67147 0.0
H899 H 0.10893 0.0248 0.66245 0.0
H900 H 0.07893 0.29928 0.71932 0.0
H901 H 0.06459 0.26593 0.70398 0.0
H902 H 0.97104 0.207 0.71589 0.0
H903 H 0.98489 0.24089 0.73112 0.0
H904 H 0.04879 0.20663 0.70328 0.0
H905 H 0.95036 0.21444 0.68681 0.0
H906 H 0.97558 0.24118 0.69671 0.0
H907 H 0.94355 0.20261 0.69996 0.0
C908 C 0.05516 0.27945 0.71864 0.0
C909 C 0.03311 0.27274 0.7265 0.0
C910 C 0.04696 0.26043 0.70983 0.0
C911 C 0.01657 0.23415 0.70866 0.0
C912 C 0.99436 0.22761 0.71643 0.0
H913 H 0.94119 0.0596 0.67802 0.0
H914 H 0.94587 0.1069 0.686 0.0
C915 C 0.00244 0.24686 0.72521 0.0
C916 C 0.00927 0.21193 0.69985 0.0
H917 H 0.95574 0.17088 0.68087 0.0
C918 C 0.02878 0.19933 0.69826 0.0
C919 C 0.98305 0.20221 0.6933 0.0
C920 C 0.96213 0.21607 0.69421 0.0
C921 C 0.02223 0.1765 0.69063 0.0
C922 C 0.99557 0.16613 0.68428 0.0
C923 C 0.9763 0.17908 0.68569 0.0
C924 C 0.98602 0.13941 0.67698 0.0
C925 C 0.04315 0.16257 0.68974 0.0
C926 C 0.00537 0.14211 0.66866 0.0
C927 C 0.0025 0.11498 0.664 0.0
C928 C 0.98027 0.08498 0.66764 0.0
C929 C 0.95828 0.08246 0.675 0.0
C930 C 0.96108 0.10951 0.67962 0.0
H931 H 0.05984 0.16962 0.69627 0.0
H932 H 0.02886 0.1364 0.6894 0.0
H933 H 0.05701 0.17078 0.68256 0.0
H934 H 0.02466 0.16504 0.66647 0.0
H935 H 0.02005 0.11759 0.65847 0.0
H936 H 0.89091 0.6199 0.55561 0.0
H937 H 0.87067 0.58299 0.54106 0.0
H938 H 0.92772 0.54428 0.54995 0.0
H939 H 0.94821 0.58101 0.5645 0.0
H940 H 0.90601 0.56881 0.52407 0.0
H941 H 0.83174 0.47044 0.55059 0.0
H942 H 0.8473 0.51128 0.55414 0.0
H943 H 0.87264 0.49522 0.55377 0.0
C944 C 0.8994 0.60374 0.55445 0.0
C945 C 0.92097 0.60328 0.56133 0.0
C946 C 0.88793 0.5828 0.54608 0.0
C947 C 0.89766 0.5609 0.54445 0.0
C948 C 0.91989 0.56099 0.55109 0.0
H949 H 0.7965 0.38601 0.51061 0.0
H950 H 0.84206 0.43088 0.5187 0.0
C951 C 0.93149 0.58198 0.55943 0.0
C952 C 0.88257 0.53625 0.53637 0.0
H953 H 0.82834 0.45825 0.53311 0.0
C954 C 0.88919 0.54454 0.526 0.0
C955 C 0.86079 0.50466 0.53893 0.0
C956 C 0.85241 0.49467 0.54994 0.0
C957 C 0.87439 0.52191 0.51811 0.0
C958 C 0.85187 0.49041 0.52067 0.0
C959 C 0.84581 0.48223 0.53108 0.0
C960 C 0.83205 0.46582 0.51291 0.0
C961 C 0.8832 0.53199 0.50714 0.0
C962 C 0.81275 0.4707 0.50623 0.0
C963 C 0.78726 0.44505 0.50131 0.0
C964 C 0.78024 0.41416 0.50325 0.0
C965 C 0.80159 0.40965 0.50894 0.0
C966 C 0.82745 0.4353 0.51365 0.0
H967 H 0.90775 0.55206 0.5066 0.0
H968 H 0.88071 0.5123 0.50222 0.0
H969 H 0.86761 0.54005 0.5041 0.0
H970 H 0.81529 0.49377 0.50563 0.0
H971 H 0.77084 0.44909 0.49711 0.0
H972 H 0.41899 0.2913 0.55725 0.0
H973 H 0.45943 0.3048 0.54425 0.0
H974 H 0.51087 0.40021 0.556 0.0
H975 H 0.46996 0.38717 0.56887 0.0
H976 H 0.51271 0.39859 0.53504 0.0
H977 H 0.543 0.31401 0.55118 0.0
H978 H 0.50255 0.29554 0.54745 0.0
H979 H 0.51728 0.32441 0.55768 0.0
C980 C 0.43879 0.31523 0.55705 0.0
C981 C 0.44138 0.33802 0.56421 0.0
C982 C 0.46199 0.32287 0.54963 0.0
C983 C 0.48862 0.3533 0.5493 0.0
C984 C 0.49066 0.3765 0.55614 0.0
H985 H 0.66112 0.38593 0.52125 0.0
H986 H 0.62198 0.38528 0.53284 0.0
C987 C 0.46724 0.36898 0.56351 0.0
C988 C 0.51483 0.36047 0.54212 0.0
H989 H 0.56602 0.33653 0.53519 0.0
C990 C 0.52451 0.38515 0.53509 0.0
C991 C 0.53064 0.34333 0.5423 0.0
C992 C 0.52309 0.31807 0.55013 0.0
C993 C 0.54916 0.39273 0.52813 0.0
C994 C 0.56407 0.3747 0.52805 0.0
C995 C 0.55456 0.3503 0.53518 0.0
C996 C 0.58983 0.38053 0.52081 0.0
C997 C 0.55936 0.42036 0.52109 0.0
C998 C 0.58545 0.37921 0.51012 0.0
C999 C 0.60824 0.38024 0.50344 0.0
C1000 C 0.63542 0.38187 0.50736 0.0
C1001 C 0.64036 0.38458 0.51801 0.0
C1002 C 0.61793 0.3841 0.52465 0.0
H1003 H 0.55267 0.43721 0.52419 0.0
H1004 H 0.58514 0.43321 0.51984 0.0
H1005 H 0.54759 0.41162 0.51355 0.0
H1006 H 0.56375 0.37577 0.50695 0.0
H1007 H 0.6037 0.3778 0.49527 0.0
H1008 H 0.71366 0.13368 0.55989 0.0
H1009 H 0.71792 0.1671 0.54542 0.0
H1010 H 0.6193 0.13509 0.54804 0.0
H1011 H 0.61465 0.10146 0.56223 0.0
H1012 H 0.63703 0.13647 0.52802 0.0
H1013 H 0.7183 0.24961 0.54802 0.0
H1014 H 0.73171 0.22204 0.5469 0.0
H1015 H 0.69799 0.21255 0.55466 0.0
C1016 C 0.6929 0.13378 0.55739 0.0
C1017 C 0.66387 0.11496 0.56232 0.0
C1018 C 0.69539 0.15297 0.54913 0.0
C1019 C 0.66898 0.15389 0.5457 0.0
C1020 C 0.64 0.13479 0.55052 0.0
H1021 H 0.64566 0.29375 0.51715 0.0
H1022 H 0.64809 0.25451 0.52766 0.0
C1023 C 0.63746 0.11561 0.5587 0.0
C1024 C 0.67111 0.17516 0.53732 0.0
H1025 H 0.70188 0.25286 0.53147 0.0
C1026 C 0.65148 0.16194 0.5287 0.0
C1027 C 0.6898 0.20839 0.53825 0.0
C1028 C 0.71049 0.22413 0.54748 0.0
C1029 C 0.64924 0.181 0.5212 0.0
C1030 C 0.66747 0.2142 0.52225 0.0
C1031 C 0.68795 0.22738 0.53066 0.0
C1032 C 0.66358 0.23585 0.51537 0.0
C1033 C 0.62629 0.16549 0.51248 0.0
C1034 C 0.67073 0.23798 0.50484 0.0
C1035 C 0.6691 0.26045 0.49874 0.0
C1036 C 0.66066 0.28125 0.50314 0.0
C1037 C 0.65251 0.27823 0.51357 0.0
C1038 C 0.65394 0.25582 0.5196 0.0
H1039 H 0.60988 0.13995 0.51381 0.0
H1040 H 0.61237 0.17713 0.51134 0.0
H1041 H 0.63942 0.16793 0.5053 0.0
H1042 H 0.67862 0.22311 0.50142 0.0
H1043 H 0.67591 0.26255 0.49075 0.0
H1044 H 0.86807 0.61843 0.61172 0.0
H1045 H 0.84226 0.58963 0.62718 0.0
H1046 H 0.91371 0.56524 0.63103 0.0
H1047 H 0.93956 0.59364 0.61529 0.0
H1048 H 0.85667 0.51526 0.63365 0.0
H1049 H 0.86371 0.61312 0.65676 0.0
H1050 H 0.846 0.61043 0.64456 0.0
H1051 H 0.8862 0.61974 0.64516 0.0
C1052 C 0.87854 0.60714 0.61585 0.0
C1053 C 0.90604 0.60848 0.61223 0.0
C1054 C 0.86386 0.59092 0.62479 0.0
C1055 C 0.87648 0.576 0.63047 0.0
C1056 C 0.90374 0.57694 0.62686 0.0
H1057 H 0.78168 0.44552 0.68164 0.0
H1058 H 0.82475 0.49162 0.67306 0.0
C1059 C 0.91842 0.59306 0.61783 0.0
C1060 C 0.85966 0.55752 0.63972 0.0
H1061 H 0.82254 0.56037 0.66157 0.0
C1062 C 0.8499 0.52533 0.63988 0.0
C1063 C 0.8509 0.57063 0.64791 0.0
C1064 C 0.86257 0.60547 0.64865 0.0
C1065 C 0.83001 0.50557 0.64762 0.0
C1066 C 0.81959 0.51829 0.6554 0.0
C1067 C 0.83052 0.55071 0.65556 0.0
C1068 C 0.79436 0.49721 0.66254 0.0
C1069 C 0.81876 0.47077 0.64714 0.0
C1070 C 0.76311 0.48643 0.65984 0.0
C1071 C 0.73869 0.46016 0.66467 0.0
C1072 C 0.74513 0.44455 0.67235 0.0
C1073 C 0.77612 0.45753 0.67587 0.0
C1074 C 0.80071 0.48365 0.67091 0.0
H1075 H 0.82887 0.46453 0.64054 0.0
H1076 H 0.82529 0.46362 0.65431 0.0
H1077 H 0.79275 0.45695 0.64651 0.0
H1078 H 0.75778 0.49654 0.65338 0.0
H1079 H 0.71501 0.45031 0.66175 0.0
H1080 H 0.40153 0.27297 0.61763 0.0
H1081 H 0.43285 0.27669 0.6324 0.0
H1082 H 0.48933 0.3775 0.62875 0.0
H1083 H 0.45815 0.37395 0.61366 0.0
H1084 H 0.52485 0.351 0.63041 0.0
H1085 H 0.43772 0.30544 0.66168 0.0
H1086 H 0.4243 0.27878 0.65092 0.0
H1087 H 0.43021 0.3178 0.64957 0.0
C1088 C 0.42037 0.2961 0.61998 0.0
C1089 C 0.4274 0.32318 0.61436 0.0
C1090 C 0.43806 0.29819 0.62856 0.0
C1091 C 0.46312 0.32742 0.63185 0.0
C1092 C 0.46987 0.35469 0.62642 0.0
H1093 H 0.59245 0.34713 0.6816 0.0
H1094 H 0.54938 0.34891 0.67293 0.0
C1095 C 0.45204 0.35264 0.61779 0.0
C1096 C 0.48417 0.32857 0.64018 0.0
H1097 H 0.48386 0.30076 0.66415 0.0
C1098 C 0.51596 0.3406 0.63785 0.0
C1099 C 0.47276 0.31524 0.64996 0.0
C1100 C 0.43944 0.30391 0.65322 0.0
C1101 C 0.5361 0.33796 0.64476 0.0
C1102 C 0.52409 0.32244 0.6542 0.0
C1103 C 0.49285 0.3121 0.65683 0.0
C1104 C 0.54367 0.31548 0.66101 0.0
C1105 C 0.56999 0.35106 0.64177 0.0
C1106 C 0.5531 0.29451 0.65758 0.0
C1107 C 0.57754 0.29351 0.66249 0.0
C1108 C 0.5928 0.31324 0.67097 0.0
C1109 C 0.58086 0.33144 0.67514 0.0
C1110 C 0.55647 0.33268 0.67014 0.0
H1111 H 0.57732 0.36876 0.63559 0.0
H1112 H 0.58576 0.36222 0.64848 0.0
H1113 H 0.5731 0.33151 0.63893 0.0
H1114 H 0.54324 0.28076 0.65062 0.0
H1115 H 0.58633 0.27931 0.65911 0.0
H1116 H 0.73027 0.13826 0.60859 0.0
H1117 H 0.74581 0.17268 0.62374 0.0
H1118 H 0.65032 0.1227 0.63463 0.0
H1119 H 0.63436 0.08823 0.61946 0.0
H1120 H 0.71527 0.20966 0.62838 0.0
H1121 H 0.70689 0.13208 0.66032 0.0
H1122 H 0.71286 0.12457 0.64714 0.0
H1123 H 0.67476 0.11597 0.65134 0.0
C1124 C 0.71257 0.13427 0.61425 0.0
C1125 C 0.68097 0.11055 0.61274 0.0
C1126 C 0.72156 0.15393 0.62293 0.0
C1127 C 0.6993 0.14995 0.63036 0.0
C1128 C 0.66795 0.12579 0.62906 0.0
H1129 H 0.6776 0.25164 0.67945 0.0
H1130 H 0.67927 0.20994 0.66963 0.0
C1131 C 0.65884 0.1063 0.62033 0.0
C1132 C 0.70806 0.17324 0.63885 0.0
H1133 H 0.71341 0.18191 0.66493 0.0
C1134 C 0.71533 0.2038 0.63637 0.0
C1135 C 0.70767 0.16526 0.64924 0.0
C1136 C 0.70034 0.13275 0.65224 0.0
C1137 C 0.72109 0.22638 0.64401 0.0
C1138 C 0.72085 0.21859 0.65447 0.0
C1139 C 0.71408 0.18806 0.65694 0.0
C1140 C 0.72467 0.24111 0.66283 0.0
C1141 C 0.72561 0.25778 0.64076 0.0
C1142 C 0.75087 0.27188 0.66303 0.0
C1143 C 0.74965 0.2958 0.6685 0.0
C1144 C 0.72275 0.28896 0.67415 0.0
C1145 C 0.69878 0.25738 0.67526 0.0
C1146 C 0.69961 0.23357 0.66956 0.0
H1147 H 0.71738 0.25692 0.63279 0.0
H1148 H 0.71276 0.26537 0.64593 0.0
H1149 H 0.75096 0.27593 0.64107 0.0
H1150 H 0.7709 0.27804 0.65814 0.0
H1151 H 0.7683 0.32004 0.66748 0.0
H1152 H 0.43924 0.13392 0.11119 0.0
H1153 H 0.46048 0.1682 0.12633 0.0
H1154 H 0.47994 0.10101 0.14024 0.0
H1155 H 0.46013 0.06738 0.12494 0.0
H1156 H 0.44731 0.16349 0.14644 0.0
H1157 H 0.56522 0.17809 0.14098 0.0
H1158 H 0.53455 0.15894 0.13154 0.0
H1159 H 0.53489 0.13777 0.14265 0.0
C1160 C 0.44801 0.12643 0.11748 0.0
C1161 C 0.44855 0.0982 0.11677 0.0
C1162 C 0.46005 0.146 0.12616 0.0
C1163 C 0.47253 0.13759 0.13435 0.0
C1164 C 0.4714 0.10854 0.13389 0.0
H1165 H 0.59138 0.25466 0.1845 0.0
H1166 H 0.54641 0.2074 0.177 0.0
C1167 C 0.45996 0.08927 0.12515 0.0
C1168 C 0.48807 0.15991 0.14309 0.0
H1169 H 0.55818 0.20187 0.15565 0.0
C1170 C 0.47149 0.17172 0.1485 0.0
C1171 C 0.51972 0.17084 0.14577 0.0
C1172 C 0.53975 0.16103 0.13987 0.0
C1173 C 0.48587 0.19442 0.15638 0.0
C1174 C 0.5175 0.20542 0.15895 0.0
C1175 C 0.53371 0.19293 0.15379 0.0
C1176 C 0.53603 0.23298 0.16585 0.0
C1177 C 0.46739 0.2069 0.16178 0.0
C1178 C 0.54384 0.26305 0.16249 0.0
C1179 C 0.56961 0.28993 0.16671 0.0
C1180 C 0.58777 0.28714 0.17439 0.0
C1181 C 0.57745 0.25744 0.17869 0.0
C1182 C 0.55191 0.23042 0.17435 0.0
H1183 H 0.44169 0.19048 0.16096 0.0
H1184 H 0.47345 0.21096 0.17007 0.0
H1185 H 0.47328 0.22981 0.15838 0.0
H1186 H 0.53228 0.26563 0.15586 0.0
H1187 H 0.57737 0.31257 0.1632 0.0
H1188 H 0.91087 0.31879 0.1108 0.0
H1189 H 0.87408 0.30172 0.12518 0.0
H1190 H 0.91371 0.39832 0.13515 0.0
H1191 H 0.95063 0.41586 0.12077 0.0
H1192 H 0.8976 0.34366 0.15146 0.0
H1193 H 0.803 0.32867 0.12489 0.0
H1194 H 0.82745 0.31312 0.121 0.0
H1195 H 0.84405 0.35496 0.12207 0.0
C1196 C 0.91205 0.33649 0.11608 0.0
C1197 C 0.9336 0.3688 0.11453 0.0
C1198 C 0.89105 0.32662 0.12432 0.0
C1199 C 0.89125 0.34877 0.13121 0.0
C1200 C 0.91335 0.38088 0.12994 0.0
H1201 H 0.78021 0.35653 0.18031 0.0
H1202 H 0.82432 0.35849 0.17116 0.0
C1203 C 0.9343 0.39084 0.12167 0.0
C1204 C 0.86655 0.33871 0.13916 0.0
H1205 H 0.78989 0.31742 0.14217 0.0
C1206 C 0.87394 0.33768 0.14947 0.0
C1207 C 0.83578 0.33083 0.1365 0.0
C1208 C 0.82687 0.332 0.12554 0.0
C1209 C 0.85115 0.32894 0.15724 0.0
C1210 C 0.82046 0.32179 0.15461 0.0
C1211 C 0.81322 0.32252 0.14424 0.0
C1212 C 0.79575 0.3156 0.16235 0.0
C1213 C 0.86014 0.32717 0.16813 0.0
C1214 C 0.76504 0.29011 0.16087 0.0
C1215 C 0.73977 0.28941 0.16594 0.0
C1216 C 0.74483 0.31384 0.17274 0.0
C1217 C 0.77576 0.3371 0.17524 0.0
C1218 C 0.80106 0.33824 0.16997 0.0
H1219 H 0.87938 0.32184 0.16836 0.0
H1220 H 0.86876 0.35036 0.17197 0.0
H1221 H 0.83982 0.3089 0.17252 0.0
H1222 H 0.76028 0.27224 0.15509 0.0
H1223 H 0.7161 0.27138 0.16383 0.0
H1224 H 0.67294 0.56531 0.10833 0.0
H1225 H 0.67417 0.536 0.1232 0.0
H1226 H 0.75054 0.62201 0.13611 0.0
H1227 H 0.7505 0.65075 0.12098 0.0
H1228 H 0.76571 0.5808 0.13705 0.0
H1229 H 0.64467 0.52365 0.1518 0.0
H1230 H 0.64411 0.51356 0.13854 0.0
H1231 H 0.65879 0.55412 0.14226 0.0
C1232 C 0.68949 0.57796 0.11446 0.0
C1233 C 0.71165 0.61023 0.11351 0.0
C1234 C 0.69009 0.56126 0.12302 0.0
C1235 C 0.7122 0.57673 0.13093 0.0
C1236 C 0.73328 0.60936 0.13015 0.0
H1237 H 0.69992 0.45221 0.18131 0.0
H1238 H 0.70457 0.49959 0.17341 0.0
C1239 C 0.73321 0.62582 0.12151 0.0
C1240 C 0.7157 0.5586 0.13942 0.0
H1241 H 0.67442 0.49867 0.15629 0.0
C1242 C 0.74572 0.56331 0.14137 0.0
C1243 C 0.69001 0.53618 0.14534 0.0
C1244 C 0.65769 0.53188 0.14445 0.0
C1245 C 0.7504 0.54509 0.14856 0.0
C1246 C 0.72423 0.52057 0.15371 0.0
C1247 C 0.69452 0.51714 0.15227 0.0
C1248 C 0.72644 0.49582 0.15947 0.0
C1249 C 0.78341 0.55209 0.15042 0.0
C1250 C 0.73809 0.47857 0.15445 0.0
C1251 C 0.73572 0.45195 0.15895 0.0
C1252 C 0.72128 0.44155 0.16856 0.0
C1253 C 0.71149 0.45989 0.17395 0.0
C1254 C 0.71384 0.48674 0.16939 0.0
H1255 H 0.80066 0.57764 0.14947 0.0
H1256 H 0.78615 0.54504 0.15822 0.0
H1257 H 0.78922 0.53904 0.14469 0.0
H1258 H 0.74724 0.48445 0.14672 0.0
H1259 H 0.74337 0.43825 0.15458 0.0
H1260 H 0.42943 0.10721 0.06143 0.0
H1261 H 0.45568 0.13556 0.04572 0.0
H1262 H 0.53283 0.12105 0.05191 0.0
H1263 H 0.50661 0.0922 0.06733 0.0
H1264 H 0.51002 0.18829 0.04299 0.0
H1265 H 0.51681 0.09338 0.02258 0.0
H1266 H 0.49254 0.08592 0.03379 0.0
H1267 H 0.53375 0.09938 0.0351 0.0
C1268 C 0.45194 0.11 0.05942 0.0
C1269 C 0.46577 0.09721 0.06563 0.0
C1270 C 0.46686 0.12607 0.0504 0.0
C1271 C 0.49585 0.12966 0.04743 0.0
C1272 C 0.50996 0.11759 0.05378 0.0
H1273 H 0.65736 0.25926 0.01739 0.0
H1274 H 0.61476 0.21298 0.02578 0.0
C1275 C 0.49502 0.10135 0.06269 0.0
C1276 C 0.51264 0.14779 0.03813 0.0
H1277 H 0.55541 0.14701 0.01754 0.0
C1278 C 0.51923 0.17896 0.03728 0.0
C1279 C 0.52452 0.13563 0.03058 0.0
C1280 C 0.51621 0.10161 0.0305 0.0
C1281 C 0.53914 0.19888 0.02956 0.0
C1282 C 0.55284 0.18737 0.02252 0.0
C1283 C 0.54495 0.15577 0.02299 0.0
C1284 C 0.57858 0.20925 0.01566 0.0
C1285 C 0.54698 0.23275 0.02933 0.0
C1286 C 0.57252 0.22121 0.0068 0.0
C1287 C 0.59707 0.24738 1.00184 0.0
C1288 C 0.62769 0.26206 0.00584 0.0
C1289 C 0.63398 0.2482 0.01413 0.0
C1290 C 0.60965 0.22187 0.01895 0.0
H1291 H 0.53474 0.23819 0.03546 0.0
H1292 H 0.57269 0.24882 0.03024 0.0
H1293 H 0.54021 0.23771 0.02179 0.0
H1294 H 0.54862 0.21175 1.00417 0.0
H1295 H 0.59158 0.25794 0.99555 0.0
H1296 H 0.93913 0.43416 0.06701 0.0
H1297 H 0.91054 0.43193 0.05161 0.0
H1298 H 0.90202 0.34307 0.04308 0.0
H1299 H 0.92997 0.34466 0.05877 0.0
H1300 H 0.92455 0.43173 0.03178 0.0
H1301 H 0.81243 0.32135 0.04044 0.0
H1302 H 0.8431 0.34124 0.04986 0.0
H1303 H 0.84644 0.31731 0.04001 0.0
C1304 C 0.93102 0.41396 0.06192 0.0
C1305 C 0.93671 0.38946 0.06418 0.0
C1306 C 0.91474 0.4128 0.05306 0.0
C1307 C 0.90382 0.38724 0.04618 0.0
C1308 C 0.90958 0.36274 0.04836 0.0
H1309 H 0.77705 0.35616 0.99471 0.0
H1310 H 0.82186 0.35745 1.0032 0.0
C1311 C 0.92562 0.36369 0.05733 0.0
C1312 C 0.88649 0.38677 0.03681 0.0
H1313 H 0.81464 0.34701 0.02516 0.0
C1314 C 0.90062 0.413 0.03028 0.0
C1315 C 0.8553 0.36229 0.03477 0.0
C1316 C 0.83825 0.33407 0.04167 0.0
C1317 C 0.88404 0.416 0.02208 0.0
C1318 C 0.85252 0.39217 0.02033 0.0
C1319 C 0.83893 0.36516 0.02648 0.0
C1320 C 0.8317 0.39664 0.01327 0.0
C1321 C 0.90002 0.44504 0.01552 0.0
C1322 C 0.82337 0.41917 0.01578 0.0
C1323 C 0.79773 0.41827 0.01101 0.0
C1324 C 0.78019 0.39506 1.00358 0.0
C1325 C 0.79057 0.37467 1.00028 0.0
C1326 C 0.81594 0.37518 0.0052 0.0
H1327 H 0.92599 0.45639 0.01586 0.0
H1328 H 0.8923 0.43921 0.00741 0.0
H1329 H 0.89367 0.46238 0.01835 0.0
H1330 H 0.83486 0.43565 0.02207 0.0
H1331 H 0.78989 0.43392 0.01379 0.0
H1332 H 0.64546 0.58479 0.06264 0.0
H1333 H 0.62933 0.54818 0.048 0.0
H1334 H 0.7244 0.56857 0.04442 0.0
H1335 H 0.74094 0.60528 0.059 0.0
H1336 H 0.66469 0.56176 0.02534 0.0
H1337 H 0.6565 0.46703 0.05039 0.0
H1338 H 0.65115 0.49836 0.05533 0.0
H1339 H 0.6897 0.50638 0.05202 0.0
C1340 C 0.66304 0.58169 0.05872 0.0
C1341 C 0.69452 0.59789 0.06208 0.0
C1342 C 0.65377 0.5609 0.05031 0.0
C1343 C 0.67572 0.55585 0.04514 0.0
C1344 C 0.70718 0.57235 0.04831 0.0
H1345 H 0.68842 0.45235 0.99481 0.0
H1346 H 0.68683 0.49454 1.00432 0.0
C1347 C 0.71653 0.59324 0.05667 0.0
C1348 C 0.66549 0.53149 0.03695 0.0
H1349 H 0.65051 0.45675 0.03266 0.0
C1350 C 0.66126 0.53865 0.02691 0.0
C1351 C 0.66079 0.50138 0.03907 0.0
C1352 C 0.66457 0.49252 0.04978 0.0
C1353 C 0.65324 0.51653 0.01885 0.0
C1354 C 0.64962 0.48672 0.02092 0.0
C1355 C 0.65304 0.47947 0.03105 0.0
C1356 C 0.6446 0.4632 0.01277 0.0
C1357 C 0.64878 0.52525 0.00821 0.0
C1358 C 0.62043 0.43165 0.01387 0.0
C1359 C 0.62151 0.40756 0.00847 0.0
C1360 C 0.64656 0.41464 1.00182 0.0
C1361 C 0.66845 0.44635 0.99971 0.0
C1362 C 0.66762 0.47052 0.00521 0.0
H1363 H 0.64235 0.5438 0.00845 0.0
H1364 H 0.67113 0.53471 1.00391 0.0
H1365 H 0.6303 0.50438 1.00396 0.0
H1366 H 0.60243 0.4254 0.01964 0.0
H1367 H 0.6047 0.38326 0.01036 0.0
H1368 H 0.54651 0.94145 0.89339 0.0
H1369 H 0.525 0.90448 0.87891 0.0
H1370 H 0.60139 0.88668 0.88097 0.0
H1371 H 0.62322 0.92359 0.89549 0.0
H1372 H 0.58083 0.89667 0.85934 0.0
H1373 H 0.48763 0.80567 0.88419 0.0
H1374 H 0.49342 0.84477 0.88504 0.0
H1375 H 0.52378 0.83791 0.88933 0.0
C1376 C 0.55894 0.9299 0.89074 0.0
C1377 C 0.58648 0.93535 0.8957 0.0
C1378 C 0.54662 0.90882 0.88245 0.0
C1379 C 0.56162 0.89289 0.87889 0.0
C1380 C 0.58956 0.89887 0.88359 0.0
H1381 H 0.45655 0.71908 0.84512 0.0
H1382 H 0.50111 0.76136 0.85443 0.0
C1383 C 0.60184 0.91982 0.89194 0.0
C1384 C 0.54679 0.86832 0.87077 0.0
H1385 H 0.48367 0.7949 0.86644 0.0
C1386 C 0.55972 0.87428 0.86087 0.0
C1387 C 0.51951 0.83909 0.87284 0.0
C1388 C 0.50526 0.83118 0.88343 0.0
C1389 C 0.54539 0.8519 0.85288 0.0
C1390 C 0.51748 0.82302 0.85489 0.0
C1391 C 0.50516 0.81694 0.86489 0.0
C1392 C 0.49921 0.79909 0.8468 0.0
C1393 C 0.56019 0.85927 0.84238 0.0
C1394 C 0.48495 0.80627 0.83883 0.0
C1395 C 0.45984 0.78197 0.83331 0.0
C1396 C 0.44846 0.75034 0.83585 0.0
C1397 C 0.46517 0.7433 0.84294 0.0
C1398 C 0.49045 0.76748 0.84834 0.0
H1399 H 0.58554 0.8775 0.84277 0.0
H1400 H 0.55753 0.83777 0.83858 0.0
H1401 H 0.54835 0.86852 0.83756 0.0
H1402 H 0.49092 0.83039 0.83758 0.0
H1403 H 0.44691 0.78796 0.82803 0.0
H1404 H 0.13212 0.72329 0.89755 0.0
H1405 H 0.16722 0.73753 0.88279 0.0
H1406 H 0.11304 0.64219 0.87111 0.0
H1407 H 0.07849 0.62749 0.886 0.0
H1408 H 0.17265 0.66076 0.87111 0.0
H1409 H 0.16047 0.7553 0.85337 0.0
H1410 H 0.17135 0.76354 0.86663 0.0
H1411 H 0.13391 0.72991 0.86314 0.0
C1412 C 0.12744 0.7054 0.89179 0.0
C1413 C 0.10252 0.67417 0.89302 0.0
C1414 C 0.14739 0.71369 0.88328 0.0
C1415 C 0.14252 0.69112 0.8757 0.0
C1416 C 0.11724 0.66011 0.87681 0.0
H1417 H 0.26046 0.69288 0.82538 0.0
H1418 H 0.21361 0.68844 0.83352 0.0
C1419 C 0.09753 0.65171 0.88536 0.0
C1420 C 0.16542 0.6989 0.86717 0.0
H1421 H 0.20575 0.75221 0.84824 0.0
C1422 C 0.17938 0.68041 0.866 0.0
C1423 C 0.17437 0.72461 0.86048 0.0
C1424 C 0.15899 0.74426 0.86089 0.0
C1425 C 0.20269 0.68749 0.85862 0.0
C1426 C 0.21238 0.71377 0.85218 0.0
C1427 C 0.19812 0.73199 0.85316 0.0
C1428 C 0.23947 0.72383 0.84519 0.0
C1429 C 0.21777 0.66752 0.858 0.0
C1430 C 0.26944 0.74674 0.84862 0.0
C1431 C 0.29612 0.74916 0.84404 0.0
C1432 C 0.29319 0.72885 0.83591 0.0
C1433 C 0.26341 0.70901 0.83157 0.0
C1434 C 0.2366 0.70629 0.83626 0.0
H1435 H 0.20923 0.6494 0.86409 0.0
H1436 H 0.21252 0.65533 0.85044 0.0
H1437 H 0.24368 0.68266 0.85868 0.0
H1438 H 0.27213 0.76045 0.8555 0.0
H1439 H 0.31882 0.76462 0.84753 0.0
H1440 H 0.27072 0.41012 0.89454 0.0
H1441 H 0.27377 0.44105 0.87975 0.0
H1442 H 0.37474 0.49411 0.88216 0.0
H1443 H 0.37195 0.4633 0.89721 0.0
H1444 H 0.35007 0.53195 0.88051 0.0
H1445 H 0.29849 0.44013 0.8502 0.0
H1446 H 0.27366 0.42929 0.86129 0.0
H1447 H 0.31202 0.43382 0.86229 0.0
C1448 C 0.29372 0.42818 0.89193 0.0
C1449 C 0.32113 0.43426 0.89715 0.0
C1450 C 0.29539 0.44563 0.88335 0.0
C1451 C 0.32449 0.4695 0.87968 0.0
C1452 C 0.35201 0.47554 0.88478 0.0
H1453 H 0.3477 0.59561 0.82864 0.0
H1454 H 0.34754 0.55223 0.83785 0.0
C1455 C 0.35038 0.45796 0.8934 0.0
C1456 C 0.3256 0.48993 0.87117 0.0
H1457 H 0.29702 0.48778 0.84713 0.0
C1458 C 0.33899 0.52233 0.87315 0.0
C1459 C 0.31135 0.47752 0.8615 0.0
C1460 C 0.29837 0.44332 0.85865 0.0
C1461 C 0.337 0.54226 0.86598 0.0
C1462 C 0.32083 0.52944 0.85663 0.0
C1463 C 0.30894 0.49743 0.85437 0.0
C1464 C 0.31488 0.54909 0.84951 0.0
C1465 C 0.35153 0.57686 0.86859 0.0
C1466 C 0.29497 0.56007 0.85263 0.0
C1467 C 0.29507 0.58468 0.84742 0.0
C1468 C 0.31485 0.59856 0.83894 0.0
C1469 C 0.33198 0.58508 0.83509 0.0
C1470 C 0.33211 0.56051 0.84039 0.0
H1471 H 0.36917 0.5843 0.87484 0.0
H1472 H 0.36303 0.59163 0.86177 0.0
H1473 H 0.33285 0.58146 0.87119 0.0
H1474 H 0.28125 0.55132 0.85959 0.0
H1475 H 0.28172 0.59469 0.85056 0.0
H1476 H 0.59083 0.99013 0.95505 0.0
H1477 H 0.56367 0.96242 0.97065 0.0
H1478 H 0.54846 0.87503 0.95737 0.0
H1479 H 0.57745 0.90328 0.94202 0.0
H1480 H 0.50669 0.92244 0.97265 0.0
H1481 H 0.569 0.86298 0.98541 0.0
H1482 H 0.58507 0.8931 0.97575 0.0
H1483 H 0.55746 0.85257 0.9723 0.0
C1484 C 0.58234 0.96511 0.9556 0.0
C1485 C 0.58626 0.94879 0.94736 0.0
C1486 C 0.56675 0.94926 0.9645 0.0
C1487 C 0.55413 0.91655 0.96532 0.0
C1488 C 0.55873 0.90036 0.95715 0.0
H1489 H 0.38442 0.77956 0.98969 0.0
H1490 H 0.42713 0.82722 0.98229 0.0
C1491 C 0.57512 0.91645 0.94832 0.0
C1492 C 0.53332 0.89906 0.97414 0.0
H1493 H 0.51414 0.83842 0.9906 0.0
C1494 C 0.50887 0.90456 0.97671 0.0
C1495 C 0.53628 0.87622 0.97973 0.0
C1496 C 0.56363 0.87119 0.97823 0.0
C1497 C 0.48626 0.88651 0.98412 0.0
C1498 C 0.48728 0.86138 0.98886 0.0
C1499 C 0.51295 0.85734 0.98687 0.0
C1500 C 0.45996 0.83641 0.99462 0.0
C1501 C 0.46114 0.89424 0.98662 0.0
C1502 C 0.46366 0.82574 1.00419 0.0
C1503 C 0.43893 0.79808 0.00847 0.0
C1504 C 0.41043 0.78059 1.00313 0.0
C1505 C 0.40609 0.79269 0.994 0.0
C1506 C 0.43056 0.82012 0.98977 0.0
H1507 H 0.47053 0.92001 0.98603 0.0
H1508 H 0.44173 0.88225 0.98098 0.0
H1509 H 0.45152 0.88655 0.99445 0.0
H1510 H 0.48616 0.83783 0.00807 0.0
H1511 H 0.443 0.78904 0.01546 0.0
H1512 H 0.07329 0.60605 0.94687 0.0
H1513 H 0.10397 0.60936 0.96179 0.0
H1514 H 0.1573 0.71072 0.95945 0.0
H1515 H 0.12671 0.70766 0.94426 0.0
H1516 H 0.19468 0.68564 0.96132 0.0
H1517 H 0.10335 0.63501 0.9913 0.0
H1518 H 0.0923 0.60972 0.98021 0.0
H1519 H 0.09714 0.64838 0.97918 0.0
C1520 C 0.09135 0.62919 0.94952 0.0
C1521 C 0.09756 0.65662 0.94427 0.0
C1522 C 0.10867 0.63102 0.95818 0.0
C1523 C 0.13255 0.6603 0.96191 0.0
C1524 C 0.13872 0.68785 0.95679 0.0
H1525 H 0.25963 0.68317 0.01283 0.0
H1526 H 0.2168 0.68428 1.00374 0.0
C1527 C 0.12125 0.68607 0.94809 0.0
C1528 C 0.15283 0.66148 0.9705 0.0
H1529 H 0.1504 0.63272 0.99449 0.0
C1530 C 0.18505 0.67463 0.96864 0.0
C1531 C 0.14041 0.64731 0.98012 0.0
C1532 C 0.10645 0.63462 0.98286 0.0
C1533 C 0.20473 0.67239 0.97585 0.0
C1534 C 0.19188 0.65625 0.98514 0.0
C1535 C 0.16008 0.64465 0.9873 0.0
C1536 C 0.21118 0.64977 0.99225 0.0
C1537 C 0.2391 0.68646 0.97335 0.0
C1538 C 0.22063 0.62851 0.98919 0.0
C1539 C 0.24491 0.62785 0.99434 0.0
C1540 C 0.26006 0.6483 1.00268 0.0
C1541 C 0.24812 0.66691 0.00649 0.0
C1542 C 0.22386 0.66777 1.00125 0.0
H1543 H 0.24664 0.7038 0.96704 0.0
H1544 H 0.25388 0.69831 0.9802 0.0
H1545 H 0.24338 0.66733 0.9709 0.0
H1546 H 0.21094 0.61424 0.98231 0.0
H1547 H 0.2537 0.61334 0.99123 0.0
H1548 H 0.29352 0.42878 0.95229 0.0
H1549 H 0.31035 0.46537 0.96691 0.0
H1550 H 0.40662 0.49229 0.9613 0.0
H1551 H 0.39021 0.45582 0.94663 0.0
H1552 H 0.37388 0.47797 0.98487 0.0
H1553 H 0.37318 0.56776 0.95944 0.0
H1554 H 0.34157 0.52735 0.95835 0.0
H1555 H 0.38041 0.53767 0.95449 0.0
C1556 C 0.31826 0.44216 0.95421 0.0
C1557 C 0.34051 0.4395 0.94819 0.0
C1558 C 0.32778 0.46294 0.9626 0.0
C1559 C 0.35966 0.4813 0.96519 0.0
C1560 C 0.38187 0.47806 0.95946 0.0
H1561 H 0.43364 0.65732 0.99749 0.0
H1562 H 0.43478 0.61368 0.98887 0.0
C1563 C 0.37242 0.45736 0.95103 0.0
C1564 C 0.36993 0.50622 0.97317 0.0
H1565 H 0.38304 0.58049 0.97691 0.0
C1566 C 0.37616 0.50052 0.98316 0.0
C1567 C 0.37302 0.53556 0.97087 0.0
C1568 C 0.36686 0.54276 0.96021 0.0
C1569 C 0.38489 0.52348 0.99099 0.0
C1570 C 0.38723 0.5526 0.98872 0.0
C1571 C 0.38154 0.55829 0.97865 0.0
C1572 C 0.39366 0.57721 0.99661 0.0
C1573 C 0.39157 0.51647 1.00159 0.0
C1574 C 0.37178 0.57118 0.00446 0.0
C1575 C 0.37161 0.59626 0.00958 0.0
C1576 C 0.3929 0.6275 0.00674 0.0
C1577 C 0.41716 0.63342 0.99986 0.0
C1578 C 0.41763 0.60846 0.99487 0.0
H1579 H 0.39757 0.49762 1.00141 0.0
H1580 H 0.41113 0.53794 0.00525 0.0
H1581 H 0.37032 0.50826 0.00641 0.0
H1582 H 0.35281 0.54735 0.00585 0.0
H1583 H 0.35237 0.59112 0.01473 0.0
H1584 H 0.10471 0.46869 0.4453 0.0
H1585 H 0.12745 0.50309 0.46033 0.0
H1586 H 0.15488 0.43963 0.47244 0.0
H1587 H 0.13346 0.40589 0.45723 0.0
H1588 H 0.11736 0.49686 0.48056 0.0
H1589 H 0.23744 0.52006 0.47263 0.0
H1590 H 0.20574 0.49971 0.46359 0.0
H1591 H 0.20943 0.47897 0.47427 0.0
C1592 C 0.11562 0.46206 0.45115 0.0
C1593 C 0.11774 0.43479 0.44996 0.0
C1594 C 0.12852 0.48172 0.45978 0.0
C1595 C 0.14355 0.47439 0.46744 0.0
C1596 C 0.14433 0.44638 0.4665 0.0
H1597 H 0.26145 0.58733 0.51837 0.0
H1598 H 0.21823 0.54071 0.50995 0.0
C1599 C 0.13195 0.42702 0.4578 0.0
C1600 C 0.15929 0.4966 0.47621 0.0
H1601 H 0.2303 0.54078 0.48809 0.0
C1602 C 0.14203 0.50635 0.48223 0.0
C1603 C 0.19158 0.50923 0.47838 0.0
C1604 C 0.21221 0.50174 0.47182 0.0
C1605 C 0.15624 0.52844 0.49029 0.0
C1606 C 0.18841 0.54092 0.49242 0.0
C1607 C 0.20545 0.53069 0.48656 0.0
C1608 C 0.20622 0.56734 0.49979 0.0
C1609 C 0.13694 0.53857 0.49642 0.0
C1610 C 0.21256 0.59764 0.49729 0.0
C1611 C 0.23729 0.62422 0.50206 0.0
C1612 C 0.25585 0.62087 0.50947 0.0
C1613 C 0.24706 0.59052 0.51285 0.0
C1614 C 0.22257 0.56388 0.50796 0.0
H1615 H 0.11137 0.52161 0.49554 0.0
H1616 H 0.14319 0.54098 0.50468 0.0
H1617 H 0.14195 0.56195 0.4937 0.0
H1618 H 0.20063 0.60093 0.49091 0.0
H1619 H 0.24402 0.64737 0.49918 0.0
H1620 H 0.56959 0.65141 0.44394 0.0
H1621 H 0.53399 0.63342 0.45866 0.0
H1622 H 0.57371 0.72954 0.46919 0.0
H1623 H 0.60938 0.74793 0.4545 0.0
H1624 H 0.56116 0.67737 0.4851 0.0
H1625 H 0.46093 0.65578 0.46014 0.0
H1626 H 0.48531 0.64045 0.45595 0.0
H1627 H 0.50123 0.68228 0.45649 0.0
C1628 C 0.57096 0.66879 0.4494 0.0
C1629 C 0.59222 0.70121 0.44794 0.0
C1630 C 0.55063 0.65841 0.45783 0.0
C1631 C 0.55126 0.68017 0.46499 0.0
C1632 C 0.573 0.71238 0.46376 0.0
H1633 H 0.44841 0.69308 0.5152 0.0
H1634 H 0.49086 0.69319 0.50558 0.0
C1635 C 0.59322 0.72284 0.45531 0.0
C1636 C 0.52763 0.66966 0.47332 0.0
H1637 H 0.45096 0.6464 0.47764 0.0
C1638 C 0.53694 0.67029 0.48351 0.0
C1639 C 0.49612 0.66031 0.47119 0.0
C1640 C 0.4851 0.65972 0.46037 0.0
C1641 C 0.51546 0.66199 0.49167 0.0
C1642 C 0.4841 0.65366 0.48957 0.0
C1643 C 0.47484 0.65245 0.47931 0.0
C1644 C 0.46086 0.64871 0.49773 0.0
C1645 C 0.5266 0.66211 0.50241 0.0
C1646 C 0.42996 0.62298 0.49699 0.0
C1647 C 0.40561 0.6233 0.50235 0.0
C1648 C 0.41184 0.64902 0.50871 0.0
C1649 C 0.44313 0.67265 0.51052 0.0
C1650 C 0.46747 0.67274 0.50497 0.0
H1651 H 0.54597 0.65695 0.50238 0.0
H1652 H 0.53585 0.68591 0.50589 0.0
H1653 H 0.50727 0.64457 0.50731 0.0
H1654 H 0.42421 0.60408 0.49152 0.0
H1655 H 0.3816 0.60503 0.50073 0.0
H1656 H 0.33622 0.92549 0.44819 0.0
H1657 H 0.33448 0.89864 0.46417 0.0
H1658 H 0.42461 0.90972 0.45697 0.0
H1659 H 0.42687 0.93677 0.44129 0.0
H1660 H 0.33499 0.84493 0.46737 0.0
H1661 H 0.44013 0.94246 0.48592 0.0
H1662 H 0.42196 0.94845 0.4749 0.0
H1663 H 0.44951 0.93508 0.4733 0.0
C1664 C 0.35568 0.92226 0.45004 0.0
C1665 C 0.38179 0.9336 0.44346 0.0
C1666 C 0.35472 0.90703 0.4592 0.0
C1667 C 0.37988 0.90299 0.46195 0.0
C1668 C 0.40545 0.91356 0.45525 0.0
H1669 H 0.41842 0.7809 0.49245 0.0
H1670 H 0.41936 0.82505 0.48376 0.0
C1671 C 0.40652 0.92882 0.44619 0.0
C1672 C 0.37908 0.8861 0.47146 0.0
H1673 H 0.42534 0.88953 0.49143 0.0
C1674 C 0.35431 0.85498 0.4728 0.0
C1675 C 0.40417 0.89923 0.47863 0.0
C1676 C 0.43023 0.93327 0.47817 0.0
C1677 C 0.35518 0.83596 0.48059 0.0
C1678 C 0.38144 0.84838 0.48723 0.0
C1679 C 0.40529 0.88002 0.4863 0.0
C1680 C 0.38632 0.82743 0.49407 0.0
C1681 C 0.32898 0.80202 0.4813 0.0
C1682 C 0.36887 0.81544 0.50313 0.0
C1683 C 0.36884 0.79053 0.50826 0.0
C1684 C 0.38583 0.7771 0.50426 0.0
C1685 C 0.40531 0.79101 0.49572 0.0
C1686 C 0.40573 0.8161 0.49072 0.0
H1687 H 0.31062 0.79568 0.47537 0.0
H1688 H 0.3386 0.78612 0.48041 0.0
H1689 H 0.31784 0.79777 0.48898 0.0
H1690 H 0.35376 0.82394 0.50583 0.0
H1691 H 0.35326 0.77989 0.51473 0.0
H1692 H 0.12295 0.38773 0.39059 0.0
H1693 H 0.1519 0.41695 0.37541 0.0
H1694 H 0.15955 0.50172 0.38821 0.0
H1695 H 0.12892 0.47196 0.40319 0.0
H1696 H 0.15181 0.50015 0.36811 0.0
H1697 H 0.24462 0.47176 0.37587 0.0
H1698 H 0.20688 0.43744 0.37359 0.0
H1699 H 0.21294 0.462 0.38469 0.0
C1700 C 0.13056 0.41256 0.39011 0.0
C1701 C 0.12409 0.42772 0.39812 0.0
C1702 C 0.14731 0.4293 0.38146 0.0
C1703 C 0.15894 0.46184 0.38079 0.0
C1704 C 0.15112 0.4767 0.38857 0.0
H1705 H 0.32145 0.60914 0.35477 0.0
H1706 H 0.28116 0.56271 0.36347 0.0
C1707 C 0.13363 0.45972 0.39713 0.0
C1708 C 0.18038 0.48066 0.37227 0.0
H1709 H 0.25073 0.50104 0.36106 0.0
C1710 C 0.17337 0.50023 0.36652 0.0
C1711 C 0.20864 0.48088 0.37021 0.0
C1712 C 0.21893 0.46215 0.37647 0.0
C1713 C 0.19424 0.52077 0.35907 0.0
C1714 C 0.22256 0.5211 0.35706 0.0
C1715 C 0.22887 0.50052 0.3625 0.0
C1716 C 0.24831 0.54618 0.3508 0.0
C1717 C 0.1866 0.54323 0.35386 0.0
C1718 C 0.24419 0.55166 0.3405 0.0
C1719 C 0.26754 0.57863 0.33544 0.0
C1720 C 0.29519 0.60027 0.34065 0.0
C1721 C 0.30025 0.59306 0.35059 0.0
C1722 C 0.27714 0.56644 0.35559 0.0
H1723 H 0.16668 0.54379 0.35761 0.0
H1724 H 0.2073 0.56754 0.35391 0.0
H1725 H 0.18003 0.53567 0.34576 0.0
H1726 H 0.22249 0.53588 0.33652 0.0
H1727 H 0.26305 0.58361 0.32777 0.0
H1728 H 0.58783 0.67441 0.39289 0.0
H1729 H 0.56108 0.67165 0.37674 0.0
H1730 H 0.57824 0.76554 0.38234 0.0
H1731 H 0.60515 0.76876 0.39819 0.0
H1732 H 0.5093 0.67554 0.37321 0.0
H1733 H 0.60915 0.77402 0.35333 0.0
H1734 H 0.6142 0.75657 0.36472 0.0
H1735 H 0.60366 0.78652 0.36573 0.0
C1736 C 0.58595 0.69447 0.39066 0.0
C1737 C 0.59893 0.72189 0.39684 0.0
C1738 C 0.57077 0.69291 0.3814 0.0
C1739 C 0.56846 0.71877 0.37815 0.0
C1740 C 0.58069 0.74572 0.38445 0.0
H1741 H 0.45682 0.76658 0.34576 0.0
H1742 H 0.50019 0.76542 0.35415 0.0
C1743 C 0.59587 0.74736 0.39362 0.0
C1744 C 0.55167 0.71742 0.36853 0.0
H1745 H 0.55717 0.76152 0.3477 0.0
C1746 C 0.51998 0.69382 0.36747 0.0
C1747 C 0.56563 0.74116 0.36098 0.0
C1748 C 0.60014 0.76577 0.36119 0.0
C1749 C 0.50133 0.69476 0.35955 0.0
C1750 C 0.51477 0.71986 0.35247 0.0
C1751 C 0.54688 0.74236 0.35315 0.0
C1752 C 0.49473 0.7254 0.34539 0.0
C1753 C 0.46682 0.67011 0.35921 0.0
C1754 C 0.47876 0.7047 0.33717 0.0
C1755 C 0.45424 0.70575 0.33221 0.0
C1756 C 0.44521 0.7272 0.33554 0.0
C1757 C 0.46342 0.74993 0.34302 0.0
C1758 C 0.48809 0.74915 0.34786 0.0
H1759 H 0.4595 0.65375 0.3658 0.0
H1760 H 0.45251 0.6816 0.35922 0.0
H1761 H 0.46155 0.65604 0.35202 0.0
H1762 H 0.48371 0.68633 0.33511 0.0
H1763 H 0.44033 0.68772 0.32655 0.0
H1764 H 0.3072 0.90413 0.39667 0.0
H1765 H 0.28745 0.86894 0.38169 0.0
H1766 H 0.38213 0.90656 0.37077 0.0
H1767 H 0.40223 0.94183 0.38568 0.0
H1768 H 0.3322 0.89689 0.35515 0.0
H1769 H 0.3038 0.79277 0.37917 0.0
H1770 H 0.28958 0.81818 0.38333 0.0
H1771 H 0.33095 0.83262 0.38342 0.0
C1772 C 0.32389 0.90507 0.39108 0.0
C1773 C 0.3564 0.92563 0.39248 0.0
C1774 C 0.3125 0.88499 0.3825 0.0
C1775 C 0.33335 0.88516 0.37515 0.0
C1776 C 0.36567 0.90621 0.37635 0.0
H1777 H 0.35718 0.78945 0.32648 0.0
H1778 H 0.3517 0.82992 0.33546 0.0
C1779 C 0.37711 0.92619 0.38493 0.0
C1780 C 0.32193 0.86183 0.36662 0.0
H1781 H 0.29727 0.78473 0.3615 0.0
C1782 C 0.3241 0.87223 0.35651 0.0
C1783 C 0.31112 0.8297 0.36843 0.0
C1784 C 0.30878 0.81745 0.37915 0.0
C1785 C 0.31656 0.85136 0.34811 0.0
C1786 C 0.30745 0.81952 0.3499 0.0
C1787 C 0.30398 0.809 0.36007 0.0
C1788 C 0.30554 0.79757 0.3416 0.0
C1789 C 0.31875 0.86378 0.33745 0.0
C1790 C 0.28075 0.76599 0.3415 0.0
C1791 C 0.28421 0.74272 0.33647 0.0
C1792 C 0.31221 0.75081 0.33132 0.0
C1793 C 0.33505 0.78277 0.3302 0.0
C1794 C 0.33191 0.80599 0.33539 0.0
H1795 H 0.31277 0.88265 0.33745 0.0
H1796 H 0.34326 0.87433 0.33466 0.0
H1797 H 0.3029 0.84481 0.33201 0.0
H1798 H 0.26015 0.75885 0.34621 0.0
H1799 H 0.26657 0.71815 0.3376 0.0
H1800 H 0.33117 0.09908 0.09159 0.0
H1801 H 0.28996 0.10421 0.10036 0.0
H1802 H 0.27482 0.03037 0.12113 0.0
H1803 H 0.3156 0.02486 0.1124 0.0
H1804 H 0.22425 0.05097 0.10324 0.0
H1805 H 0.28583 0.10598 0.1399 0.0
H1806 H 0.30662 0.10823 0.12821 0.0
H1807 H 0.28758 0.07229 0.13535 0.0
C1808 C 0.3191 0.08398 0.09803 0.0
C1809 C 0.32661 0.0615 0.10127 0.0
C1810 C 0.29565 0.08701 0.10306 0.0
C1811 C 0.27969 0.068 0.1115 0.0
C1812 C 0.2872 0.04563 0.11475 0.0
H1813 H 0.12016 0.0338 0.14916 0.0
H1814 H 0.17089 0.04153 0.14328 0.0
C1815 C 0.31036 0.04236 0.10968 0.0
C1816 C 0.25384 0.0701 0.11653 0.0
H1817 H 0.23183 0.08978 0.13901 0.0
C1818 C 0.22597 0.0597 0.11102 0.0
C1819 C 0.25602 0.08103 0.12674 0.0
C1820 C 0.28565 0.09275 0.13292 0.0
C1821 C 0.19998 0.0594 0.1155 0.0
C1822 C 0.20224 0.0709 0.12568 0.0
C1823 C 0.23017 0.08126 0.1312 0.0
C1824 C 0.17548 0.0717 0.13063 0.0
C1825 C 0.16996 0.0457 0.10936 0.0
C1826 C 0.16235 0.08781 0.12595 0.0
C1827 C 0.13337 0.08308 0.12921 0.0
C1828 C 0.11744 0.06296 0.13742 0.0
C1829 C 0.13218 0.04968 0.14287 0.0
C1830 C 0.16103 0.05392 0.13946 0.0
H1831 H 0.16929 0.02994 0.10308 0.0
H1832 H 0.14906 0.03206 0.11431 0.0
H1833 H 0.16832 0.06516 0.10582 0.0
H1834 H 0.17351 0.10242 0.11933 0.0
H1835 H 0.12242 0.09355 0.12488 0.0
H1836 H 0.92426 0.25496 0.09474 0.0
H1837 H 0.91848 0.20935 0.10405 0.0
H1838 H 0.0159 0.26354 0.11304 0.0
H1839 H 0.02134 0.30935 0.10416 0.0
H1840 H 0.94307 0.17485 0.10168 0.0
H1841 H 0.97886 0.22852 0.14015 0.0
H1842 H 0.97113 0.24784 0.12988 0.0
H1843 H 0.0092 0.25165 0.13113 0.0
C1844 C 0.9444 0.25711 0.09873 0.0
C1845 C 0.97323 0.2858 0.09874 0.0
C1846 C 0.94105 0.23106 0.1041 0.0
C1847 C 0.9665 0.23311 0.10954 0.0
C1848 C 0.99552 0.26155 0.10928 0.0
H1849 H 0.0135 0.09503 0.11927 0.0
H1850 H 1.00061 0.13376 0.11386 0.0
C1851 C 0.99874 0.28768 0.10407 0.0
C1852 C 0.96348 0.2051 0.11493 0.0
H1853 H 0.98444 0.18289 0.13685 0.0
C1854 C 0.95159 0.17655 0.10945 0.0
C1855 C 0.97364 0.20664 0.12518 0.0
C1856 C 0.98355 0.23523 0.13195 0.0
C1857 C 0.95171 0.15049 0.11363 0.0
C1858 C 0.96507 0.15324 0.12345 0.0
C1859 C 0.97479 0.18089 0.12924 0.0
C1860 C 0.97255 0.12936 0.12719 0.0
C1861 C 0.93803 0.1204 0.10737 0.0
C1862 C 0.96232 0.11473 0.13679 0.0
C1863 C 0.97012 0.09241 0.14005 0.0
C1864 C 0.98828 0.08448 0.13375 0.0
C1865 C 0.99889 0.09984 0.12428 0.0
C1866 C 0.9914 0.12205 0.12111 0.0
H1867 H 0.91879 0.11779 0.10233 0.0
H1868 H 0.95656 0.12119 0.10234 0.0
H1869 H 0.92872 0.09932 0.11232 0.0
H1870 H 0.94807 0.12031 0.1417 0.0
H1871 H 0.96162 0.08114 0.14735 0.0
H1872 H 0.7164 0.71662 0.11451 0.0
H1873 H 0.75958 0.75676 0.12498 0.0
H1874 H 0.8259 0.76529 0.10183 0.0
H1875 H 0.78294 0.72466 0.09144 0.0
H1876 H 0.84597 0.76322 0.12123 0.0
H1877 H 0.80703 0.85079 0.11989 0.0
H1878 H 0.77847 0.813 0.12488 0.0
H1879 H 0.79039 0.81628 0.11169 0.0
C1880 C 0.74017 0.72715 0.11163 0.0
C1881 C 0.74622 0.71767 0.1021 0.0
C1882 C 0.76484 0.75019 0.11761 0.0
C1883 C 0.796 0.76446 0.11413 0.0
C1884 C 0.80207 0.7547 0.10467 0.0
H1885 H 0.97748 0.91911 0.1242 0.0
H1886 H 0.93167 0.86764 0.12036 0.0
C1887 C 0.77747 0.73156 0.09872 0.0
C1888 C 0.82239 0.78968 0.12024 0.0
H1889 H 0.85246 0.86485 0.1295 0.0
C1890 C 0.84726 0.78535 0.1231 0.0
C1891 C 0.82405 0.81852 0.12276 0.0
C1892 C 0.79873 0.82517 0.11959 0.0
C1893 C 0.87399 0.80931 0.12816 0.0
C1894 C 0.87609 0.83849 0.13035 0.0
C1895 C 0.85071 0.84237 0.12789 0.0
C1896 C 0.90579 0.86662 0.1339 0.0
C1897 C 0.90003 0.8034 0.13098 0.0
C1898 C 0.90688 0.88298 0.14295 0.0
C1899 C 0.93339 0.91249 0.14524 0.0
C1900 C 0.9588 0.92631 0.13837 0.0
C1901 C 0.95828 0.90902 0.12965 0.0
C1902 C 0.93211 0.8795 0.12745 0.0
H1903 H 0.89116 0.77778 0.13179 0.0
H1904 H 0.91798 0.81252 0.12482 0.0
H1905 H 0.91157 0.81568 0.13826 0.0
H1906 H 0.88672 0.87355 0.148 0.0
H1907 H 0.93298 0.92542 0.15195 0.0
H1908 H 0.01967 0.32558 0.39619 0.0
H1909 H 0.02251 0.28714 0.38483 0.0
H1910 H 0.07691 0.27294 0.40756 0.0
H1911 H 0.07478 0.31181 0.41883 0.0
H1912 H 0.10149 0.2793 0.38822 0.0
H1913 H 0.97328 0.19207 0.38769 0.0
H1914 H 0.98416 0.23103 0.38363 0.0
H1915 H 0.99079 0.22466 0.39669 0.0
C1916 C 0.03206 0.3141 0.39879 0.0
C1917 C 0.04677 0.32154 0.40845 0.0
C1918 C 0.03359 0.29206 0.3923 0.0
C1919 C 0.04954 0.27676 0.39539 0.0
C1920 C 0.06441 0.28436 0.40501 0.0
H1921 H 0.07442 0.1242 0.3832 0.0
H1922 H 0.08011 0.17506 0.38766 0.0
C1923 C 0.06306 0.3065 0.41146 0.0
C1924 C 0.05093 0.25282 0.38869 0.0
H1925 H 0.00562 0.17941 0.37802 0.0
C1926 C 0.08049 0.25759 0.38591 0.0
C1927 C 0.02354 0.22456 0.38559 0.0
C1928 C 0.99113 0.21752 0.3886 0.0
C1929 C 0.08342 0.2345 0.38043 0.0
C1930 C 0.05611 0.20575 0.37772 0.0
C1931 C 0.02653 0.20158 0.38004 0.0
C1932 C 0.05766 0.17806 0.37388 0.0
C1933 C 0.11577 0.24074 0.37778 0.0
C1934 C 0.0437 0.16302 0.36453 0.0
C1935 C 0.04081 0.13393 0.36189 0.0
C1936 C 0.05123 0.11931 0.36869 0.0
C1937 C 0.06647 0.13515 0.37778 0.0
C1938 C 0.06978 0.16426 0.38033 0.0
H1939 H 0.13306 0.26645 0.37741 0.0
H1940 H 0.12366 0.23062 0.38381 0.0
H1941 H 0.11571 0.22959 0.37033 0.0
H1942 H 0.03391 0.17314 0.35949 0.0
H1943 H 0.02847 0.12187 0.35492 0.0
H1944 H 0.72089 0.72967 0.39807 0.0
H1945 H 0.76328 0.77374 0.38873 0.0
H1946 H 0.74711 0.83911 0.4061 0.0
H1947 H 0.70547 0.79521 0.41573 0.0
H1948 H 0.76693 0.82014 0.37655 0.0
H1949 H 0.83864 0.87274 0.41171 0.0
H1950 H 0.80392 0.83404 0.41157 0.0
H1951 H 0.80055 0.86868 0.41228 0.0
C1952 C 0.7264 0.75344 0.39991 0.0
C1953 C 0.71017 0.75901 0.40775 0.0
C1954 C 0.75052 0.77861 0.39452 0.0
C1955 C 0.75879 0.80984 0.39682 0.0
C1956 C 0.74172 0.81532 0.40436 0.0
H1957 H 0.90633 0.97349 0.36208 0.0
H1958 H 0.85366 0.93266 0.36798 0.0
C1959 C 0.71785 0.79019 0.40985 0.0
C1960 C 0.78625 0.83653 0.39165 0.0
H1961 H 0.85894 0.90037 0.39637 0.0
C1962 C 0.78701 0.83782 0.38087 0.0
C1963 C 0.81254 0.8595 0.3973 0.0
C1964 C 0.81412 0.85862 0.40884 0.0
C1965 C 0.8136 0.86104 0.37561 0.0
C1966 C 0.83988 0.88377 0.38127 0.0
C1967 C 0.83868 0.88301 0.39203 0.0
C1968 C 0.87033 0.90639 0.37639 0.0
C1969 C 0.81396 0.86029 0.36405 0.0
C1970 C 0.89694 0.90487 0.37899 0.0
C1971 C 0.92663 0.92808 0.37576 0.0
C1972 C 0.93055 0.95332 0.36977 0.0
C1973 C 0.90385 0.95408 0.36661 0.0
C1974 C 0.87384 0.9308 0.36998 0.0
H1975 H 0.79385 0.83826 0.36085 0.0
H1976 H 0.81268 0.88061 0.36109 0.0
H1977 H 0.83616 0.86246 0.36121 0.0
H1978 H 0.89485 0.88621 0.38385 0.0
H1979 H 0.94679 0.92676 0.37823 0.0
H1980 H 0.24724 0.92929 0.41507 0.0
H1981 H 0.20214 0.92492 0.40579 0.0
H1982 H 0.26388 0.01162 0.39009 0.0
H1983 H 0.30882 0.01575 0.39912 0.0
H1984 H 0.17855 0.96285 0.4058 0.0
H1985 H 0.21484 0.95632 0.36622 0.0
H1986 H 0.23372 0.95141 0.37726 0.0
H1987 H 0.24511 0.99031 0.37282 0.0
C1988 C 0.25116 0.94737 0.40962 0.0
C1989 C 0.28165 0.97282 0.40782 0.0
C1990 C 0.22539 0.94477 0.40428 0.0
C1991 C 0.22963 0.96748 0.39701 0.0
C1992 C 0.26001 0.9932 0.39538 0.0
H1993 H 0.11891 0.04179 0.37988 0.0
H1994 H 0.15549 0.02628 0.38579 0.0
C1995 C 0.28571 0.99573 0.40066 0.0
C1996 C 0.2023 0.96572 0.39162 0.0
H1997 H 0.17719 0.9738 0.36805 0.0
C1998 C 0.17799 0.96457 0.39753 0.0
C1999 C 0.20103 0.96736 0.38079 0.0
C2000 C 0.22492 0.96605 0.37391 0.0
C2001 C 0.15383 0.9673 0.393 0.0
C2002 C 0.15418 0.97182 0.38229 0.0
C2003 C 0.17715 0.97073 0.37627 0.0
C2004 C 0.13336 0.98174 0.37757 0.0
C2005 C 0.12865 0.96646 0.39979 0.0
C2006 C 0.10957 0.96252 0.37052 0.0
C2007 C 0.08844 0.97152 0.36701 0.0
C2008 C 0.09099 0.99981 0.37055 0.0
C2009 C 0.116 0.01962 0.37713 0.0
C2010 C 0.13693 0.01077 0.38055 0.0
H2011 H 0.12607 0.9536 0.40701 0.0
H2012 H 0.13518 0.99097 0.40187 0.0
H2013 H 0.10563 0.95507 0.39579 0.0
H2014 H 0.10663 0.9401 0.36805 0.0
H2015 H 0.06932 0.95576 0.36199 0.0
H2016 H 0.72136 0.01513 0.89621 0.0
H2017 H 0.76064 0.01025 0.88631 0.0
H2018 H 0.75479 0.94107 0.90757 0.0
H2019 H 0.71451 0.94507 0.91734 0.0
H2020 H 0.81705 0.02349 0.8915 0.0
H2021 H 0.74886 0.89673 0.88103 0.0
H2022 H 0.73072 0.91731 0.88653 0.0
H2023 H 0.75009 0.90308 0.89463 0.0
C2024 C 0.72829 0.99874 0.89877 0.0
C2025 C 0.71476 0.98046 0.90758 0.0
C2026 C 0.75076 0.99592 0.89307 0.0
C2027 C 0.76038 0.97486 0.89604 0.0
C2028 C 0.74716 0.95681 0.90492 0.0
H2029 H 0.91903 0.957 0.88407 0.0
H2030 H 0.86788 0.94912 0.88898 0.0
C2031 C 0.72436 0.95936 0.91057 0.0
C2032 C 0.7855 0.9733 0.89017 0.0
H2033 H 0.80465 0.92273 0.87854 0.0
C2034 C 0.81409 0.00149 0.88854 0.0
C2035 C 0.78175 0.94462 0.88624 0.0
C2036 C 0.75108 0.91378 0.8871 0.0
C2037 C 0.83926 0.00167 0.88346 0.0
C2038 C 0.83583 0.97291 0.87984 0.0
C2039 C 0.80715 0.94476 0.88127 0.0
C2040 C 0.86303 0.97163 0.87557 0.0
C2041 C 0.86987 0.0325 0.88236 0.0
C2042 C 0.87652 0.98541 0.8661 0.0
C2043 C 0.90576 0.98961 0.86319 0.0
C2044 C 0.92193 0.98041 0.86979 0.0
C2045 C 0.90711 0.96438 0.87884 0.0
C2046 C 0.87788 0.95987 0.88167 0.0
H2047 H 0.86989 0.05209 0.88666 0.0
H2048 H 0.88971 0.0301 0.88513 0.0
H2049 H 0.87407 0.03893 0.87413 0.0
H2050 H 0.8653 0.99449 0.86126 0.0
H2051 H 0.91674 0.00226 0.85622 0.0
H2052 H 0.10783 0.79284 0.91465 0.0
H2053 H 0.11106 0.83853 0.90602 0.0
H2054 H 0.02084 0.77779 0.89201 0.0
H2055 H 0.01744 0.73222 0.9005 0.0
H2056 H 0.10246 0.84517 0.88257 0.0
H2057 H 0.01631 0.85053 0.90884 0.0
H2058 H 0.03828 0.83202 0.91242 0.0
H2059 H 0.00589 0.81237 0.90368 0.0
C2060 C 0.08868 0.78925 0.90974 0.0
C2061 C 0.0623 0.7589 0.90832 0.0
C2062 C 0.09065 0.81532 0.90477 0.0
C2063 C 0.06618 0.8115 0.89838 0.0
C2064 C 0.03996 0.78125 0.89692 0.0
H2065 H 0.04115 0.93848 0.85841 0.0
H2066 H 0.04982 0.89635 0.86438 0.0
C2067 C 0.03805 0.75524 0.90181 0.0
C2068 C 0.06721 0.83914 0.89353 0.0
H2069 H 0.03349 0.88463 0.8947 0.0
C2070 C 0.08747 0.85392 0.88521 0.0
C2071 C 0.04764 0.85045 0.89701 0.0
C2072 C 0.02587 0.83576 0.90602 0.0
C2073 C 0.08844 0.87965 0.88023 0.0
C2074 C 0.06864 0.89075 0.88368 0.0
C2075 C 0.04857 0.87602 0.89203 0.0
C2076 C 0.06897 0.91842 0.8791 0.0
C2077 C 0.11087 0.89514 0.87145 0.0
C2078 C 0.07773 0.94519 0.88524 0.0
C2079 C 0.07286 0.9691 0.88186 0.0
C2080 C 0.05896 0.96683 0.87226 0.0
C2081 C 0.05222 0.94111 0.86578 0.0
C2082 C 0.05708 0.91697 0.8692 0.0
H2083 H 0.12804 0.88707 0.87076 0.0
H2084 H 0.09738 0.88934 0.86418 0.0
H2085 H 0.12385 0.9212 0.87243 0.0
H2086 H 0.087 0.94688 0.89288 0.0
H2087 H 0.07848 0.98868 0.88702 0.0
H2088 H 0.31948 0.3263 0.89409 0.0
H2089 H 0.27622 0.28773 0.88326 0.0
H2090 H 0.20966 0.27946 0.90627 0.0
H2091 H 0.25263 0.31827 0.91704 0.0
H2092 H 0.23281 0.22658 0.88721 0.0
H2093 H 0.17205 0.29281 0.88071 0.0
H2094 H 0.21143 0.31125 0.88581 0.0
H2095 H 0.17806 0.28966 0.89409 0.0
C2096 C 0.29561 0.31634 0.89682 0.0
C2097 C 0.28948 0.32539 0.90642 0.0
C2098 C 0.27091 0.29436 0.89061 0.0
C2099 C 0.23961 0.28117 0.89384 0.0
C2100 C 0.23351 0.28994 0.90347 0.0
H2101 H 0.05983 0.12542 0.88342 0.0
H2102 H 0.10582 0.1766 0.88749 0.0
C2103 C 0.25815 0.31192 0.90967 0.0
C2104 C 0.21335 0.25689 0.88745 0.0
H2105 H 0.14161 0.2367 0.87755 0.0
C2106 C 0.21315 0.22903 0.88491 0.0
C2107 C 0.18775 0.26015 0.8844 0.0
C2108 C 0.18743 0.29023 0.8863 0.0
C2109 C 0.18725 0.20364 0.87998 0.0
C2110 C 0.16099 0.20633 0.87739 0.0
C2111 C 0.16176 0.23469 0.87953 0.0
C2112 C 0.1312 0.1786 0.87371 0.0
C2113 C 0.18743 0.17344 0.87812 0.0
C2114 C 0.12945 0.16348 0.86431 0.0
C2115 C 0.10293 0.13412 0.86191 0.0
C2116 C 0.07794 0.11949 0.86892 0.0
C2117 C 0.07879 0.136 0.87789 0.0
C2118 C 0.10508 0.16529 0.88024 0.0
H2119 H 0.20754 0.17368 0.88194 0.0
H2120 H 0.1653 0.15288 0.88093 0.0
H2121 H 0.18909 0.17009 0.86976 0.0
H2122 H 0.14921 0.1736 0.85909 0.0
H2123 H 0.10307 0.1219 0.85498 0.0
H2124 H 0.95629 0.726 0.59273 0.0
H2125 H 0.95278 0.7645 0.60384 0.0
H2126 H 0.00868 0.7532 0.62674 0.0
H2127 H 0.01284 0.71521 0.61558 0.0
H2128 H 0.9285 0.75855 0.62343 0.0
H2129 H 0.05601 0.84815 0.62311 0.0
H2130 H 0.03866 0.81507 0.61431 0.0
H2131 H 0.0465 0.80973 0.62734 0.0
C2132 C 0.96801 0.73186 0.6001 0.0
C2133 C 0.98513 0.71779 0.60322 0.0
C2134 C 0.96586 0.75377 0.60647 0.0
C2135 C 0.98081 0.76211 0.61608 0.0
C2136 C 0.9975 0.7477 0.61928 0.0
H2137 H 0.00469 0.91866 0.6558 0.0
H2138 H 0.99795 0.86669 0.6516 0.0
C2139 C 0.99978 0.72589 0.6129 0.0
C2140 C 0.97899 0.78603 0.62266 0.0
H2141 H 0.02355 0.85982 0.63312 0.0
C2142 C 0.94932 0.78059 0.62562 0.0
C2143 C 0.00615 0.81472 0.6256 0.0
C2144 C 0.03863 0.82252 0.62237 0.0
C2145 C 0.94603 0.80335 0.63119 0.0
C2146 C 0.97309 0.83248 0.63379 0.0
C2147 C 0.00282 0.83737 0.63122 0.0
C2148 C 0.97115 0.85985 0.63776 0.0
C2149 C 0.91357 0.79623 0.63411 0.0
C2150 C 0.95741 0.8727 0.6316 0.0
C2151 C 0.9614 0.90221 0.63395 0.0
C2152 C 0.97904 0.91947 0.64254 0.0
C2153 C 0.99058 0.90559 0.64922 0.0
C2154 C 0.98696 0.87606 0.64677 0.0
H2155 H 0.89704 0.77041 0.63476 0.0
H2156 H 0.91385 0.80782 0.6415 0.0
H2157 H 0.90451 0.80517 0.62807 0.0
H2158 H 0.94564 0.86105 0.62452 0.0
H2159 H 0.95255 0.91257 0.62863 0.0
H2160 H 0.31187 0.25211 0.59234 0.0
H2161 H 0.27148 0.20983 0.6028 0.0
H2162 H 0.28031 0.2784 0.62543 0.0
H2163 H 0.32019 0.32088 0.61488 0.0
H2164 H 0.274 0.19133 0.62232 0.0
H2165 H 0.18666 0.23009 0.62038 0.0
H2166 H 0.22079 0.24624 0.61221 0.0
H2167 H 0.22435 0.25932 0.62532 0.0
C2168 C 0.30506 0.25822 0.59951 0.0
C2169 C 0.31901 0.28989 0.60272 0.0
C2170 C 0.28205 0.23401 0.60551 0.0
C2171 C 0.27247 0.2409 0.61485 0.0
C2172 C 0.28674 0.27249 0.61816 0.0
H2173 H 0.11518 0.10757 0.65384 0.0
H2174 H 0.16625 0.15368 0.64933 0.0
C2175 C 0.30963 0.29676 0.61212 0.0
C2176 C 0.2476 0.21489 0.62107 0.0
H2177 H 0.17332 0.18566 0.63046 0.0
C2178 C 0.25207 0.19022 0.62415 0.0
C2179 C 0.21901 0.21346 0.62354 0.0
C2180 C 0.21218 0.23851 0.62013 0.0
C2181 C 0.22854 0.16392 0.6294 0.0
C2182 C 0.19964 0.16206 0.63157 0.0
C2183 C 0.1956 0.18724 0.62886 0.0
C2184 C 0.17194 0.13269 0.63542 0.0
C2185 C 0.23462 0.13811 0.63247 0.0
C2186 C 0.15862 0.10538 0.62926 0.0
C2187 C 0.12955 0.07929 0.63178 0.0
C2188 C 0.11315 0.07983 0.64054 0.0
C2189 C 0.12743 0.10634 0.64711 0.0
C2190 C 0.15648 0.13275 0.6445 0.0
H2191 H 0.26017 0.14707 0.63319 0.0
H2192 H 0.22298 0.12743 0.63985 0.0
H2193 H 0.22502 0.1193 0.62648 0.0
H2194 H 0.16979 0.10491 0.62216 0.0
H2195 H 0.11912 0.05924 0.62656 0.0
H2196 H 0.79696 0.11914 0.59159 0.0
H2197 H 0.84156 0.12258 0.6009 0.0
H2198 H 0.78194 0.02784 0.61185 0.0
H2199 H 0.73733 0.02458 0.60283 0.0
H2200 H 0.81893 0.06708 0.62711 0.0
H2201 H 0.89113 0.08153 0.59256 0.0
H2202 H 0.88019 0.11087 0.59419 0.0
H2203 H 0.85044 0.07049 0.59171 0.0
C2204 C 0.79345 0.09898 0.59592 0.0
C2205 C 0.76363 0.07149 0.59639 0.0
C2206 C 0.81898 0.10096 0.60124 0.0
C2207 C 0.81527 0.07533 0.60701 0.0
C2208 C 0.78546 0.04796 0.60748 0.0
H2209 H 0.93655 0.01111 0.62328 0.0
H2210 H 0.89923 0.02469 0.61677 0.0
C2211 C 0.75997 0.04606 0.60226 0.0
C2212 C 0.84219 0.07643 0.61248 0.0
H2213 H 0.91248 0.08069 0.60849 0.0
C2214 C 0.83956 0.07037 0.62307 0.0
C2215 C 0.86911 0.08066 0.6072 0.0
C2216 C 0.87292 0.086 0.59578 0.0
C2217 C 0.86242 0.0672 0.62842 0.0
C2218 C 0.88894 0.07071 0.62308 0.0
C2219 C 0.89222 0.07816 0.6126 0.0
C2220 C 0.91124 0.06248 0.62772 0.0
C2221 C 0.85721 0.05847 0.6396 0.0
C2222 C 0.93035 0.07889 0.63621 0.0
C2223 C 0.95189 0.07089 0.64006 0.0
C2224 C 0.95482 0.04667 0.6354 0.0
C2225 C 0.93525 0.03016 0.62702 0.0
C2226 C 0.9138 0.0379 0.62326 0.0
H2227 H 0.83314 0.05164 0.64216 0.0
H2228 H 0.86113 0.03861 0.64109 0.0
H2229 H 0.87424 0.07898 0.6443 0.0
H2230 H 0.92915 0.09828 0.63971 0.0
H2231 H 0.9669 0.0843 0.6464 0.0
H2232 H 0.99845 0.43774 0.42761 0.0
H2233 H 0.95808 0.44295 0.43693 0.0
H2234 H 0.9401 0.36475 0.45606 0.0
H2235 H 0.9802 0.35935 0.44683 0.0
H2236 H 0.8933 0.39472 0.43892 0.0
H2237 H 0.95136 0.43386 0.47694 0.0
H2238 H 0.9727 0.43655 0.46535 0.0
H2239 H 0.94981 0.3993 0.47162 0.0
C2240 C 0.98597 0.42174 0.43383 0.0
C2241 C 0.99255 0.39812 0.43646 0.0
C2242 C 0.96297 0.42479 0.43916 0.0
C2243 C 0.94644 0.40459 0.44732 0.0
C2244 C 0.95298 0.38102 0.44995 0.0
H2245 H 0.78347 0.36684 0.48386 0.0
H2246 H 0.83364 0.37264 0.47824 0.0
C2247 C 0.97576 0.37781 0.44459 0.0
C2248 C 0.92103 0.40684 0.45267 0.0
H2249 H 0.89789 0.42017 0.47604 0.0
C2250 C 0.89443 0.40056 0.44702 0.0
C2251 C 0.92235 0.41401 0.46327 0.0
C2252 C 0.95067 0.42157 0.46967 0.0
C2253 C 0.86889 0.40074 0.45167 0.0
C2254 C 0.8703 0.40837 0.46225 0.0
C2255 C 0.89689 0.41455 0.46794 0.0
C2256 C 0.84407 0.4097 0.46741 0.0
C2257 C 0.84019 0.39179 0.44525 0.0
C2258 C 0.83444 0.43009 0.46375 0.0
C2259 C 0.80583 0.4266 0.46688 0.0
C2260 C 0.78664 0.40319 0.47392 0.0
C2261 C 0.79796 0.38525 0.4785 0.0
C2262 C 0.8265 0.3884 0.47522 0.0
H2263 H 0.83937 0.37835 0.43824 0.0
H2264 H 0.8183 0.3773 0.44968 0.0
H2265 H 0.84076 0.41354 0.44278 0.0
H2266 H 0.84801 0.44728 0.45794 0.0
H2267 H 0.79765 0.44076 0.46324 0.0
H2268 H 0.67925 0.65141 0.44267 0.0
H2269 H 0.67628 0.60653 0.45149 0.0
H2270 H 0.5944 0.54282 0.43375 0.0
H2271 H 0.59735 0.58778 0.42479 0.0
H2272 H 0.62663 0.55912 0.46335 0.0
H2273 H 0.65425 0.50888 0.42926 0.0
H2274 H 0.66094 0.54847 0.42951 0.0
H2275 H 0.62194 0.51535 0.42774 0.0
C2276 C 0.66065 0.62786 0.44059 0.0
C2277 C 0.63865 0.62318 0.43295 0.0
C2278 C 0.65892 0.60222 0.44569 0.0
C2279 C 0.63529 0.5713 0.44324 0.0
C2280 C 0.61312 0.56647 0.43567 0.0
H2281 H 0.61416 0.39231 0.46097 0.0
H2282 H 0.60208 0.43205 0.45525 0.0
C2283 C 0.61481 0.59218 0.43056 0.0
C2284 C 0.63427 0.54426 0.44857 0.0
H2285 H 0.64296 0.48059 0.4446 0.0
C2286 C 0.63005 0.54182 0.45926 0.0
C2287 C 0.63875 0.52174 0.44324 0.0
C2288 C 0.64449 0.52373 0.43182 0.0
C2289 C 0.63002 0.51735 0.46474 0.0
C2290 C 0.63501 0.49509 0.45942 0.0
C2291 C 0.63891 0.49745 0.44871 0.0
C2292 C 0.63752 0.46975 0.46469 0.0
C2293 C 0.62422 0.5154 0.47615 0.0
C2294 C 0.66044 0.47717 0.47228 0.0
C2295 C 0.66675 0.45412 0.47576 0.0
C2296 C 0.65059 0.42351 0.47157 0.0
C2297 C 0.62649 0.41564 0.46445 0.0
C2298 C 0.61983 0.43843 0.46111 0.0
H2299 H 0.61076 0.52693 0.4784 0.0
H2300 H 0.61117 0.49054 0.47874 0.0
H2301 H 0.6471 0.52789 0.48021 0.0
H2302 H 0.67499 0.50123 0.475 0.0
H2303 H 0.68605 0.46093 0.48104 0.0
H2304 H 0.39465 0.06789 0.4384 0.0
H2305 H 0.44088 0.1122 0.44652 0.0
H2306 H 0.49792 0.07487 0.43551 0.0
H2307 H 0.45227 0.032 0.42678 0.0
H2308 H 0.47994 0.11942 0.46074 0.0
H2309 H 0.54823 0.1607 0.42473 0.0
H2310 H 0.50763 0.1298 0.42485 0.0
H2311 H 0.53808 0.12124 0.42772 0.0
C2312 C 0.41713 0.06931 0.43768 0.0
C2313 C 0.41999 0.04683 0.43182 0.0
C2314 C 0.44354 0.09456 0.44236 0.0
C2315 C 0.47324 0.09749 0.44143 0.0
C2316 C 0.47566 0.07398 0.43603 0.0
H2317 H 0.63073 0.24843 0.47811 0.0
H2318 H 0.58917 0.19572 0.47242 0.0
C2319 C 0.44946 0.04929 0.43109 0.0
C2320 C 0.50157 0.12549 0.44592 0.0
H2321 H 0.57503 0.18589 0.44 0.0
C2322 C 0.50072 0.13403 0.45619 0.0
C2323 C 0.52872 0.14476 0.43999 0.0
C2324 C 0.53065 0.13887 0.42869 0.0
C2325 C 0.52572 0.16161 0.46061 0.0
C2326 C 0.55302 0.18058 0.45471 0.0
C2327 C 0.55426 0.17135 0.44456 0.0
C2328 C 0.57908 0.21189 0.45835 0.0
C2329 C 0.52188 0.17084 0.47135 0.0
C2330 C 0.58822 0.2384 0.45222 0.0
C2331 C 0.6125 0.26805 0.45527 0.0
C2332 C 0.62811 0.27234 0.46465 0.0
C2333 C 0.61912 0.24592 0.47086 0.0
C2334 C 0.59511 0.21582 0.46765 0.0
H2335 H 0.49687 0.15831 0.47377 0.0
H2336 H 0.53493 0.16451 0.47677 0.0
H2337 H 0.53132 0.19662 0.47199 0.0
H2338 H 0.57629 0.23625 0.44505 0.0
H2339 H 0.61846 0.28786 0.45033 0.0
H2340 H 0.68436 0.64739 0.72986 0.0
H2341 H 0.68812 0.6066 0.72005 0.0
H2342 H 0.75168 0.60746 0.74268 0.0
H2343 H 0.748 0.64798 0.75252 0.0
H2344 H 0.74471 0.60666 0.71204 0.0
H2345 H 0.67712 0.51413 0.74089 0.0
H2346 H 0.67632 0.5503 0.74034 0.0
H2347 H 0.70922 0.55016 0.74602 0.0
C2348 C 0.69909 0.63884 0.73275 0.0
C2349 C 0.71563 0.65067 0.74203 0.0
C2350 C 0.70135 0.6157 0.72711 0.0
C2351 C 0.72 0.60388 0.73068 0.0
C2352 C 0.73692 0.61606 0.73984 0.0
H2353 H 0.75052 0.45157 0.71771 0.0
H2354 H 0.756 0.50176 0.72303 0.0
C2355 C 0.73476 0.6392 0.74545 0.0
C2356 C 0.72097 0.57793 0.72512 0.0
H2357 H 0.70251 0.50163 0.72788 0.0
C2358 C 0.73536 0.58359 0.71544 0.0
C2359 C 0.70856 0.54786 0.72956 0.0
C2360 C 0.69167 0.54002 0.73973 0.0
C2361 C 0.73872 0.56021 0.71026 0.0
C2362 C 0.72698 0.53038 0.71485 0.0
C2363 C 0.71187 0.52462 0.7244 0.0
C2364 C 0.73025 0.50456 0.71013 0.0
C2365 C 0.75559 0.56789 0.70011 0.0
C2366 C 0.7155 0.49026 0.70079 0.0
C2367 C 0.71287 0.46167 0.69762 0.0
C2368 C 0.72443 0.44682 0.70387 0.0
C2369 C 0.74137 0.46251 0.71276 0.0
C2370 C 0.74437 0.49112 0.71583 0.0
H2371 H 0.7697 0.59375 0.69884 0.0
H2372 H 0.77132 0.55803 0.69961 0.0
H2373 H 0.73805 0.55718 0.69384 0.0
H2374 H 0.70403 0.49989 0.69633 0.0
H2375 H 0.69936 0.44987 0.6908 0.0
H2376 H 0.3879 0.12181 0.75128 0.0
H2377 H 0.42698 0.1642 0.74057 0.0
H2378 H 0.41814 0.09573 0.71789 0.0
H2379 H 0.37941 0.05309 0.72869 0.0
H2380 H 0.47882 0.13865 0.72188 0.0
H2381 H 0.41494 0.20148 0.7148 0.0
H2382 H 0.41828 0.19627 0.72823 0.0
H2383 H 0.39602 0.16226 0.72006 0.0
C2384 C 0.3942 0.11576 0.744 0.0
C2385 C 0.38054 0.08408 0.74084 0.0
C2386 C 0.41633 0.14007 0.73782 0.0
C2387 C 0.42504 0.13328 0.7283 0.0
C2388 C 0.4116 0.10161 0.72516 0.0
H2389 H 0.58323 0.26541 0.68899 0.0
H2390 H 0.53144 0.22012 0.69331 0.0
C2391 C 0.38952 0.07725 0.73135 0.0
C2392 C 0.44947 0.15913 0.72192 0.0
H2393 H 0.47069 0.23084 0.71165 0.0
C2394 C 0.47679 0.15852 0.71946 0.0
C2395 C 0.44678 0.18501 0.71871 0.0
C2396 C 0.41727 0.18618 0.72049 0.0
C2397 C 0.50218 0.18384 0.71444 0.0
C2398 C 0.50006 0.21038 0.71167 0.0
C2399 C 0.47226 0.21046 0.71375 0.0
C2400 C 0.52788 0.23968 0.70785 0.0
C2401 C 0.53177 0.1828 0.71266 0.0
C2402 C 0.54206 0.26638 0.71428 0.0
C2403 C 0.57141 0.29214 0.71182 0.0
C2404 C 0.58712 0.29188 0.70284 0.0
C2405 C 0.57165 0.26637 0.69593 0.0
C2406 C 0.54223 0.24035 0.69845 0.0
H2407 H 0.53119 0.16261 0.71657 0.0
H2408 H 0.53474 0.18048 0.70431 0.0
H2409 H 0.55261 0.205 0.71541 0.0
H2410 H 0.53137 0.26649 0.72154 0.0
H2411 H 0.58267 0.31153 0.71727 0.0
H2412 H 0.91404 0.27198 0.75223 0.0
H2413 H 0.86789 0.26743 0.74357 0.0
H2414 H 0.92852 0.34043 0.72259 0.0
H2415 H 0.97457 0.34543 0.73122 0.0
H2416 H 0.85846 0.32339 0.7403 0.0
H2417 H 0.86092 0.26264 0.70439 0.0
H2418 H 0.87827 0.26004 0.71623 0.0
H2419 H 0.89759 0.29548 0.70885 0.0
C2420 C 0.91752 0.28702 0.74577 0.0
C2421 C 0.948 0.30914 0.74245 0.0
C2422 C 0.89116 0.28434 0.74081 0.0
C2423 C 0.89481 0.30331 0.73235 0.0
C2424 C 0.92517 0.32527 0.72901 0.0
H2425 H 0.77166 0.3355 0.69342 0.0
H2426 H 0.81413 0.32825 0.69986 0.0
C2427 C 0.95147 0.32822 0.73401 0.0
C2428 C 0.86708 0.30155 0.72734 0.0
H2429 H 0.82443 0.28013 0.7051 0.0
C2430 C 0.85081 0.31369 0.73264 0.0
C2431 C 0.85756 0.2894 0.71729 0.0
C2432 C 0.87428 0.27594 0.71132 0.0
C2433 C 0.82556 0.3145 0.72811 0.0
C2434 C 0.8155 0.30175 0.7181 0.0
C2435 C 0.83189 0.28965 0.71278 0.0
C2436 C 0.78821 0.30123 0.71311 0.0
C2437 C 0.81065 0.33006 0.734 0.0
C2438 C 0.75889 0.28677 0.71801 0.0
C2439 C 0.73491 0.29121 0.71443 0.0
C2440 C 0.73939 0.30949 0.7057 0.0
C2441 C 0.76752 0.32119 0.70015 0.0
C2442 C 0.79185 0.31721 0.70386 0.0
H2443 H 0.82666 0.34654 0.73999 0.0
H2444 H 0.80396 0.34338 0.72881 0.0
H2445 H 0.78916 0.31168 0.73788 0.0
H2446 H 0.7551 0.27343 0.72495 0.0
H2447 H 0.71337 0.2817 0.71881 0.0
H2448 H 0.38968 0.34839 0.22924 0.0
H2449 H 0.42975 0.34317 0.21998 0.0
H2450 H 0.42387 0.27668 0.24239 0.0
H2451 H 0.38269 0.28089 0.25149 0.0
H2452 H 0.4859 0.3579 0.22561 0.0
H2453 H 0.42022 0.22994 0.21675 0.0
H2454 H 0.4012 0.25037 0.22164 0.0
H2455 H 0.42096 0.23779 0.23023 0.0
C2456 C 0.39677 0.33251 0.23219 0.0
C2457 C 0.38298 0.31503 0.24111 0.0
C2458 C 0.41968 0.32949 0.22686 0.0
C2459 C 0.42955 0.30909 0.23034 0.0
C2460 C 0.41606 0.29185 0.23934 0.0
H2461 H 0.59302 0.2973 0.22026 0.0
H2462 H 0.54185 0.28915 0.22533 0.0
C2463 C 0.39275 0.29453 0.24461 0.0
C2464 C 0.45521 0.30744 0.22486 0.0
H2465 H 0.47614 0.2567 0.21446 0.0
C2466 C 0.4835 0.33577 0.22305 0.0
C2467 C 0.45221 0.27859 0.22146 0.0
C2468 C 0.42189 0.2475 0.22252 0.0
C2469 C 0.50906 0.33598 0.21825 0.0
C2470 C 0.50637 0.30712 0.21516 0.0
C2471 C 0.47804 0.27879 0.2168 0.0
C2472 C 0.53392 0.30615 0.21112 0.0
C2473 C 0.53924 0.367 0.21681 0.0
C2474 C 0.54576 0.3171 0.20126 0.0
C2475 C 0.575 0.3215 0.19828 0.0
C2476 C 0.59287 0.31536 0.20519 0.0
C2477 C 0.57984 0.30235 0.21478 0.0
C2478 C 0.55059 0.29764 0.21769 0.0
H2479 H 0.53844 0.38706 0.22047 0.0
H2480 H 0.55925 0.36582 0.2201 0.0
H2481 H 0.54382 0.37179 0.2085 0.0
H2482 H 0.53316 0.32378 0.19608 0.0
H2483 H 0.58455 0.33183 0.19089 0.0
H2484 H 0.69376 0.06114 0.22913 0.0
H2485 H 0.69789 0.10623 0.22015 0.0
H2486 H 0.76722 0.16945 0.24202 0.0
H2487 H 0.76395 0.12423 0.25087 0.0
H2488 H 0.68463 0.14888 0.22627 0.0
H2489 H 0.81062 0.21091 0.21589 0.0
H2490 H 0.79038 0.1713 0.22082 0.0
H2491 H 0.80442 0.20467 0.22942 0.0
C2492 C 0.71003 0.08464 0.23203 0.0
C2493 C 0.72858 0.08906 0.24073 0.0
C2494 C 0.71239 0.11046 0.22686 0.0
C2495 C 0.73328 0.14143 0.23025 0.0
C2496 C 0.75158 0.14593 0.23904 0.0
H2497 H 0.75131 0.32054 0.21888 0.0
H2498 H 0.75814 0.27701 0.22416 0.0
C2499 C 0.74947 0.12002 0.24417 0.0
C2500 C 0.73457 0.16865 0.22487 0.0
H2501 H 0.78423 0.23984 0.21375 0.0
C2502 C 0.7064 0.16854 0.22343 0.0
C2503 C 0.76293 0.19441 0.2211 0.0
C2504 C 0.79375 0.19525 0.22179 0.0
C2505 C 0.7059 0.19366 0.21863 0.0
C2506 C 0.7343 0.21968 0.2151 0.0
C2507 C 0.76246 0.21979 0.21642 0.0
C2508 C 0.73518 0.24795 0.21082 0.0
C2509 C 0.67508 0.19273 0.21765 0.0
C2510 C 0.7213 0.2467 0.20131 0.0
C2511 C 0.71765 0.27183 0.1982 0.0
C2512 C 0.72753 0.29839 0.20461 0.0
C2513 C 0.74336 0.30037 0.21378 0.0
C2514 C 0.74728 0.2755 0.21682 0.0
H2515 H 0.6559 0.17292 0.22197 0.0
H2516 H 0.67753 0.21522 0.22048 0.0
H2517 H 0.6682 0.1899 0.20945 0.0
H2518 H 0.71197 0.22569 0.19654 0.0
H2519 H 0.70513 0.26945 0.19115 0.0
H2520 H 0.9203 0.65181 0.24799 0.0
H2521 H 0.87785 0.61211 0.23723 0.0
H2522 H 0.94499 0.62458 0.21383 0.0
H2523 H 0.98768 0.66387 0.22466 0.0
H2524 H 0.85813 0.61637 0.21782 0.0
H2525 H 0.89857 0.52982 0.21793 0.0
H2526 H 0.91443 0.56332 0.22657 0.0
H2527 H 0.92682 0.5684 0.2134 0.0
C2528 C 0.92607 0.64599 0.24058 0.0
C2529 C 0.9574 0.66075 0.23723 0.0
C2530 C 0.90175 0.62338 0.23441 0.0
C2531 C 0.90821 0.61501 0.22477 0.0
C2532 C 0.93945 0.63013 0.22132 0.0
H2533 H 0.77237 0.45396 0.18686 0.0
H2534 H 0.81802 0.50653 0.19052 0.0
C2535 C 0.96383 0.65266 0.22752 0.0
C2536 C 0.88213 0.59025 0.21844 0.0
H2537 H 0.85277 0.51583 0.2086 0.0
C2538 C 0.85711 0.5945 0.21573 0.0
C2539 C 0.88084 0.56178 0.21562 0.0
C2540 C 0.90643 0.5553 0.21858 0.0
C2541 C 0.8305 0.57074 0.21056 0.0
C2542 C 0.82867 0.54181 0.20812 0.0
C2543 C 0.85429 0.53811 0.2104 0.0
C2544 C 0.79899 0.51358 0.2046 0.0
C2545 C 0.80431 0.57658 0.20791 0.0
C2546 C 0.77278 0.50059 0.21111 0.0
C2547 C 0.74697 0.4707 0.20907 0.0
C2548 C 0.74669 0.45314 0.20046 0.0
C2549 C 0.77179 0.46712 0.19349 0.0
C2550 C 0.79795 0.49702 0.19561 0.0
H2551 H 0.81317 0.60219 0.20708 0.0
H2552 H 0.79236 0.56418 0.20069 0.0
H2553 H 0.78672 0.56765 0.21418 0.0
H2554 H 0.77317 0.51257 0.21817 0.0
H2555 H 0.728 0.46046 0.2146 0.0
H2556 H 0.62714 0.06113 0.92584 0.0
H2557 H 0.6235 0.09908 0.93715 0.0
H2558 H 0.6824 0.08973 0.95935 0.0
H2559 H 0.68672 0.05227 0.94796 0.0
H2560 H 0.60055 0.09262 0.95687 0.0
H2561 H 0.72733 0.18455 0.95578 0.0
H2562 H 0.71013 0.15138 0.947 0.0
H2563 H 0.7189 0.14642 0.95996 0.0
C2564 C 0.63952 0.06732 0.9331 0.0
C2565 C 0.65752 0.05397 0.93594 0.0
C2566 C 0.63729 0.08891 0.93958 0.0
C2567 C 0.65299 0.09761 0.94906 0.0
C2568 C 0.67062 0.08393 0.95199 0.0
H2569 H 0.67455 0.25402 0.98839 0.0
H2570 H 0.66908 0.20246 0.98444 0.0
C2571 C 0.67301 0.06246 0.94548 0.0
C2572 C 0.65092 0.12115 0.95576 0.0
H2573 H 0.69457 0.19554 0.96587 0.0
C2574 C 0.62115 0.11501 0.95891 0.0
C2575 C 0.67781 0.15029 0.95852 0.0
C2576 C 0.71035 0.1588 0.95509 0.0
C2577 C 0.61748 0.13756 0.96446 0.0
C2578 C 0.64422 0.16716 0.96683 0.0
C2579 C 0.6741 0.17273 0.96412 0.0
C2580 C 0.64164 0.19427 0.97067 0.0
C2581 C 0.58493 0.12976 0.96754 0.0
C2582 C 0.62716 0.20621 0.96445 0.0
C2583 C 0.63045 0.23551 0.96665 0.0
C2584 C 0.64812 0.25345 0.97514 0.0
C2585 C 0.66043 0.24043 0.98188 0.0
C2586 C 0.65752 0.21114 0.97958 0.0
H2587 H 0.56893 0.10389 0.96833 0.0
H2588 H 0.5853 0.14153 0.9749 0.0
H2589 H 0.57515 0.13804 0.96152 0.0
H2590 H 0.6153 0.19402 0.95744 0.0
H2591 H 0.62096 0.24516 0.96129 0.0
H2592 H 0.9896 0.65406 0.9466 0.0
H2593 H 0.94808 0.61082 0.95658 0.0
H2594 H 0.93836 0.54439 0.933 0.0
H2595 H 0.97976 0.58734 0.923 0.0
H2596 H 0.88086 0.54202 0.93955 0.0
H2597 H 0.95051 0.53794 0.97224 0.0
H2598 H 0.95639 0.57588 0.96884 0.0
H2599 H 0.96827 0.55554 0.96011 0.0
C2600 C 0.9787 0.63021 0.94356 0.0
C2601 C 0.98789 0.62413 0.93399 0.0
C2602 C 0.95516 0.60552 0.94931 0.0
C2603 C 0.94041 0.57435 0.94558 0.0
C2604 C 0.9496 0.56825 0.93605 0.0
H2605 H 0.78443 0.39121 0.95804 0.0
H2606 H 0.8339 0.43681 0.95262 0.0
C2607 C 0.97321 0.59284 0.93033 0.0
C2608 C 0.91403 0.54821 0.95125 0.0
H2609 H 0.89569 0.5022 0.97257 0.0
C2610 C 0.8841 0.53339 0.94678 0.0
C2611 C 0.91826 0.53724 0.96075 0.0
C2612 C 0.95008 0.55225 0.96579 0.0
C2613 C 0.85834 0.50766 0.95146 0.0
C2614 C 0.86271 0.49581 0.96076 0.0
C2615 C 0.89245 0.51117 0.96542 0.0
C2616 C 0.83667 0.46661 0.96535 0.0
C2617 C 0.82655 0.49336 0.94639 0.0
C2618 C 0.82298 0.46747 0.97473 0.0
C2619 C 0.79475 0.44106 0.97797 0.0
C2620 C 0.77987 0.41366 0.9718 0.0
C2621 C 0.79518 0.41211 0.9629 0.0
C2622 C 0.82339 0.43821 0.95976 0.0
H2623 H 0.82536 0.51015 0.94106 0.0
H2624 H 0.82203 0.47222 0.94188 0.0
H2625 H 0.8076 0.48593 0.95218 0.0
H2626 H 0.83302 0.48912 0.97921 0.0
H2627 H 0.78341 0.44295 0.98484 0.0
H2628 H 0.45651 0.44786 0.9277 0.0
H2629 H 0.50224 0.45312 0.93678 0.0
H2630 H 0.44553 0.35829 0.94804 0.0
H2631 H 0.39975 0.35329 0.93928 0.0
H2632 H 0.4829 0.39783 0.96302 0.0
H2633 H 0.55353 0.41489 0.92785 0.0
H2634 H 0.54172 0.44346 0.92978 0.0
H2635 H 0.51254 0.40284 0.92733 0.0
C2636 C 0.45388 0.42809 0.93206 0.0
C2637 C 0.42455 0.40005 0.93269 0.0
C2638 C 0.48006 0.4311 0.93725 0.0
C2639 C 0.47752 0.40596 0.94301 0.0
C2640 C 0.44817 0.37806 0.94367 0.0
H2641 H 0.60159 0.3446 0.95724 0.0
H2642 H 0.56344 0.35795 0.95146 0.0
C2643 C 0.422 0.37516 0.93859 0.0
C2644 C 0.50527 0.40803 0.94822 0.0
H2645 H 0.5763 0.41462 0.94353 0.0
C2646 C 0.5035 0.40183 0.95879 0.0
C2647 C 0.53217 0.41323 0.9427 0.0
C2648 C 0.53514 0.41872 0.93128 0.0
C2649 C 0.52718 0.39936 0.96387 0.0
C2650 C 0.55361 0.40372 0.95827 0.0
C2651 C 0.55609 0.41145 0.94783 0.0
C2652 C 0.57645 0.39563 0.96253 0.0
C2653 C 0.52292 0.39037 0.97502 0.0
C2654 C 0.59638 0.41204 0.97087 0.0
C2655 C 0.61847 0.4042 0.9743 0.0
C2656 C 0.62105 0.38011 0.96936 0.0
C2657 C 0.60059 0.36356 0.96117 0.0
C2658 C 0.57866 0.37116 0.95783 0.0
H2659 H 0.4991 0.3835 0.97786 0.0
H2660 H 0.52693 0.37044 0.97625 0.0
H2661 H 0.54042 0.41072 0.97969 0.0
H2662 H 0.59539 0.43131 0.97456 0.0
H2663 H 0.63413 0.4176 0.98053 0.0
H2664 H 0.65509 0.75929 0.75704 0.0
H2665 H 0.6137 0.76379 0.76593 0.0
H2666 H 0.60581 0.69652 0.78832 0.0
H2667 H 0.64687 0.69163 0.77946 0.0
H2668 H 0.54959 0.70867 0.7704 0.0
H2669 H 0.61572 0.77534 0.80522 0.0
H2670 H 0.63506 0.77606 0.79334 0.0
H2671 H 0.61896 0.74193 0.80134 0.0
C2672 C 0.64457 0.74549 0.76386 0.0
C2673 C 0.6542 0.72502 0.76752 0.0
C2674 C 0.62101 0.74815 0.76894 0.0
C2675 C 0.60702 0.73082 0.77786 0.0
C2676 C 0.61664 0.71046 0.78154 0.0
H2677 H 0.45161 0.70397 0.81681 0.0
H2678 H 0.50144 0.7101 0.81065 0.0
C2679 C 0.63994 0.70753 0.77642 0.0
C2680 C 0.58111 0.73262 0.78297 0.0
H2681 H 0.56143 0.75774 0.8048 0.0
C2682 C 0.5522 0.71955 0.77789 0.0
C2683 C 0.58449 0.74639 0.79281 0.0
C2684 C 0.61524 0.76095 0.79852 0.0
C2685 C 0.52643 0.71957 0.78241 0.0
C2686 C 0.52991 0.73407 0.79216 0.0
C2687 C 0.55882 0.74692 0.7973 0.0
C2688 C 0.50356 0.73583 0.79703 0.0
C2689 C 0.49542 0.70322 0.77678 0.0
C2690 C 0.48936 0.75005 0.79181 0.0
C2691 C 0.46089 0.74625 0.79524 0.0
C2692 C 0.44643 0.72888 0.80412 0.0
C2693 C 0.46233 0.71761 0.80998 0.0
C2694 C 0.49069 0.72094 0.80642 0.0
H2695 H 0.49429 0.68573 0.77108 0.0
H2696 H 0.47545 0.69087 0.78218 0.0
H2697 H 0.49252 0.721 0.77258 0.0
H2698 H 0.49934 0.7625 0.78473 0.0
H2699 H 0.44923 0.75537 0.79062 0.0
H2700 H 0.34348 0.97701 0.77819 0.0
H2701 H 0.33906 0.93106 0.78677 0.0
H2702 H 0.26378 0.86935 0.76637 0.0
H2703 H 0.26789 0.91535 0.75773 0.0
H2704 H 0.28197 0.87674 0.79636 0.0
H2705 H 0.33327 0.84392 0.76384 0.0
H2706 H 0.33882 0.88294 0.76528 0.0
H2707 H 0.30189 0.85085 0.76084 0.0
C2708 C 0.32596 0.95369 0.7755 0.0
C2709 C 0.30617 0.94987 0.76721 0.0
C2710 C 0.32338 0.92745 0.78046 0.0
C2711 C 0.30119 0.89682 0.77719 0.0
C2712 C 0.28119 0.89283 0.76898 0.0
H2713 H 0.28056 0.7161 0.79109 0.0
H2714 H 0.27115 0.75744 0.78527 0.0
C2715 C 0.28358 0.91911 0.76405 0.0
C2716 C 0.29976 0.86916 0.78219 0.0
H2717 H 0.31655 0.81084 0.77816 0.0
C2718 C 0.28939 0.86218 0.79239 0.0
C2719 C 0.30954 0.85032 0.77701 0.0
C2720 C 0.32174 0.85734 0.76616 0.0
C2721 C 0.28811 0.8365 0.7975 0.0
C2722 C 0.29822 0.81779 0.79234 0.0
C2723 C 0.30859 0.82494 0.78213 0.0
C2724 C 0.29872 0.79083 0.79725 0.0
C2725 C 0.27536 0.82933 0.80828 0.0
C2726 C 0.31612 0.79508 0.80625 0.0
C2727 C 0.32093 0.77101 0.80974 0.0
C2728 C 0.30902 0.74264 0.80415 0.0
C2729 C 0.29004 0.73775 0.79555 0.0
C2730 C 0.28479 0.76146 0.79218 0.0
H2731 H 0.25977 0.83897 0.80987 0.0
H2732 H 0.262 0.80354 0.80967 0.0
H2733 H 0.2952 0.84051 0.81379 0.0
H2734 H 0.32766 0.81764 0.81022 0.0
H2735 H 0.33603 0.77559 0.81631 0.0
H2736 H 0.05241 0.3811 0.7815 0.0
H2737 H 0.09522 0.42027 0.79231 0.0
H2738 H 0.16215 0.43258 0.76886 0.0
H2739 H 0.11956 0.39296 0.75811 0.0
H2740 H 0.18203 0.42827 0.78817 0.0
H2741 H 0.14184 0.51497 0.78836 0.0
H2742 H 0.11344 0.47644 0.79288 0.0
H2743 H 0.12578 0.48152 0.77971 0.0
C2744 C 0.07624 0.39225 0.77862 0.0
C2745 C 0.08257 0.38413 0.7689 0.0
C2746 C 0.10069 0.41473 0.78481 0.0
C2747 C 0.1319 0.42977 0.78135 0.0
C2748 C 0.13827 0.42138 0.77169 0.0
H2749 H 0.31247 0.58417 0.79282 0.0
H2750 H 0.26745 0.5325 0.78864 0.0
C2751 C 0.11388 0.39881 0.76553 0.0
C2752 C 0.15805 0.45442 0.78769 0.0
H2753 H 0.18717 0.52836 0.79792 0.0
C2754 C 0.18302 0.45006 0.79037 0.0
C2755 C 0.15931 0.48279 0.79064 0.0
C2756 C 0.13383 0.48946 0.78769 0.0
C2757 C 0.20949 0.47356 0.79567 0.0
C2758 C 0.21123 0.50234 0.79828 0.0
C2759 C 0.18571 0.50618 0.79599 0.0
C2760 C 0.24068 0.53027 0.8021 0.0
C2761 C 0.2356 0.46757 0.7983 0.0
C2762 C 0.24109 0.54598 0.81123 0.0
C2763 C 0.26715 0.57563 0.8137 0.0
C2764 C 0.29279 0.59021 0.80695 0.0
C2765 C 0.29309 0.57347 0.79819 0.0
C2766 C 0.26735 0.54383 0.7958 0.0
H2767 H 0.22677 0.44191 0.79891 0.0
H2768 H 0.2535 0.47706 0.79212 0.0
H2769 H 0.24718 0.4794 0.80562 0.0
H2770 H 0.22067 0.53603 0.81617 0.0
H2771 H 0.2661 0.58814 0.82043 0.0
H2772 H 0.4155 0.97965 0.0849 0.0
H2773 H 0.42007 0.94198 0.07375 0.0
H2774 H 0.36283 0.95153 0.05094 0.0
H2775 H 0.35766 0.98886 0.06216 0.0
H2776 H 0.34447 0.89049 0.05411 0.0
H2777 H 0.47301 0.95784 0.04838 0.0
H2778 H 0.46283 0.95314 0.06172 0.0
H2779 H 0.45186 0.97555 0.05374 0.0
C2780 C 0.40394 0.9738 0.0775 0.0
C2781 C 0.38623 0.98726 0.07441 0.0
C2782 C 0.40685 0.95249 0.07108 0.0
C2783 C 0.39242 0.94443 0.06139 0.0
C2784 C 0.37445 0.95761 0.05833 0.0
H2785 H 0.37127 0.78912 0.02097 0.0
H2786 H 0.3776 0.8407 0.02542 0.0
C2787 C 0.37144 0.97887 0.06477 0.0
C2788 C 0.39468 0.92089 0.05474 0.0
H2789 H 0.44694 0.902 0.04465 0.0
C2790 C 0.36685 0.89328 0.05186 0.0
C2791 C 0.4239 0.92461 0.05173 0.0
C2792 C 0.45457 0.95455 0.05396 0.0
C2793 C 0.36747 0.8685 0.04664 0.0
C2794 C 0.39673 0.87155 0.04411 0.0
C2795 C 0.42454 0.89972 0.04657 0.0
C2796 C 0.39874 0.84417 0.04023 0.0
C2797 C 0.33684 0.83846 0.0444 0.0
C2798 C 0.41027 0.83007 0.04678 0.0
C2799 C 0.40676 0.80085 0.04426 0.0
C2800 C 0.39188 0.78522 0.03508 0.0
C2801 C 0.38298 0.80068 0.02806 0.0
C2802 C 0.38628 0.82997 0.03065 0.0
H2803 H 0.31651 0.83838 0.04808 0.0
H2804 H 0.33278 0.83578 0.036 0.0
H2805 H 0.33776 0.81768 0.04712 0.0
H2806 H 0.42012 0.84065 0.05418 0.0
H2807 H 0.41398 0.78956 0.04979 0.0
H2808 H 0.05508 0.45895 0.08361 0.0
H2809 H 0.09447 0.50176 0.07307 0.0
H2810 H 0.0853 0.43416 0.04999 0.0
H2811 H 0.0463 0.39116 0.0606 0.0
H2812 H 0.14609 0.47646 0.05419 0.0
H2813 H 0.08321 0.54056 0.0475 0.0
H2814 H 0.08644 0.53466 0.06088 0.0
H2815 H 0.06394 0.50109 0.05257 0.0
C2816 C 0.06137 0.4532 0.07628 0.0
C2817 C 0.04755 0.42165 0.07295 0.0
C2818 C 0.08368 0.47774 0.0702 0.0
C2819 C 0.09242 0.47131 0.06062 0.0
C2820 C 0.07877 0.43977 0.05731 0.0
H2821 H 0.25071 0.60247 0.02117 0.0
H2822 H 0.19904 0.55732 0.02568 0.0
C2823 C 0.05651 0.41521 0.0634 0.0
C2824 C 0.11708 0.49732 0.05434 0.0
H2825 H 0.13875 0.56924 0.04414 0.0
C2826 C 0.14425 0.49648 0.05183 0.0
C2827 C 0.11464 0.52341 0.0512 0.0
C2828 C 0.08534 0.52489 0.05308 0.0
C2829 C 0.1697 0.52173 0.04679 0.0
C2830 C 0.16778 0.5484 0.04404 0.0
C2831 C 0.14016 0.54876 0.04622 0.0
C2832 C 0.19561 0.57753 0.04011 0.0
C2833 C 0.19912 0.52039 0.04495 0.0
C2834 C 0.20982 0.60456 0.04639 0.0
C2835 C 0.23908 0.63026 0.04381 0.0
C2836 C 0.2547 0.62963 0.03486 0.0
C2837 C 0.23921 0.60373 0.02809 0.0
C2838 C 0.20986 0.57778 0.03072 0.0
H2839 H 0.19856 0.50036 0.04897 0.0
H2840 H 0.20168 0.51754 0.03662 0.0
H2841 H 0.22016 0.54266 0.04756 0.0
H2842 H 0.19921 0.60501 0.05363 0.0
H2843 H 0.25033 0.64995 0.04916 0.0
H2844 H 0.57742 0.60763 0.08582 0.0
H2845 H 0.53212 0.60423 0.07693 0.0
H2846 H 0.59439 0.67338 0.05519 0.0
H2847 H 0.63963 0.6772 0.06404 0.0
H2848 H 0.52531 0.66088 0.07293 0.0
H2849 H 0.52459 0.59608 0.03763 0.0
H2850 H 0.54195 0.59388 0.04952 0.0
H2851 H 0.56189 0.62856 0.0418 0.0
C2852 C 0.58144 0.62204 0.07913 0.0
C2853 C 0.61215 0.64276 0.07567 0.0
C2854 C 0.55555 0.62002 0.07405 0.0
C2855 C 0.55989 0.63825 0.06532 0.0
C2856 C 0.59048 0.65877 0.06182 0.0
H2857 H 0.43898 0.67245 0.02578 0.0
H2858 H 0.48089 0.66452 0.03236 0.0
C2859 C 0.61633 0.66107 0.06694 0.0
C2860 C 0.53269 0.63734 0.06021 0.0
H2861 H 0.48965 0.61553 0.03804 0.0
C2862 C 0.51732 0.65075 0.06534 0.0
C2863 C 0.52272 0.6246 0.05023 0.0
C2864 C 0.53843 0.60975 0.04444 0.0
C2865 C 0.49252 0.65219 0.06073 0.0
C2866 C 0.48197 0.63884 0.05082 0.0
C2867 C 0.49749 0.62552 0.04565 0.0
C2868 C 0.45496 0.63878 0.04579 0.0
C2869 C 0.47857 0.669 0.06644 0.0
C2870 C 0.4258 0.62527 0.05077 0.0
C2871 C 0.40215 0.63009 0.0471 0.0
C2872 C 0.40679 0.64781 0.03821 0.0
C2873 C 0.43473 0.65858 0.03262 0.0
C2874 C 0.45874 0.65421 0.03642 0.0
H2875 H 0.49502 0.68567 0.07231 0.0
H2876 H 0.47232 0.68235 0.06111 0.0
H2877 H 0.45694 0.65136 0.07045 0.0
H2878 H 0.4219 0.61236 0.05782 0.0
H2879 H 0.38073 0.62126 0.05152 0.0
H2880 H 0.02902 0.59622 0.58237 0.0
H2881 H 0.06958 0.59052 0.57343 0.0
H2882 H 0.10714 0.68324 0.56063 0.0
H2883 H 0.0663 0.68871 0.56928 0.0
H2884 H 0.10446 0.64089 0.54632 0.0
H2885 H 0.16046 0.63304 0.58213 0.0
H2886 H 0.1197 0.6036 0.58069 0.0
H2887 H 0.13116 0.6444 0.5822 0.0
C2888 C 0.04602 0.61543 0.57768 0.0
C2889 C 0.04461 0.64305 0.57662 0.0
C2890 C 0.06922 0.61216 0.57258 0.0
C2891 C 0.09172 0.63661 0.56644 0.0
C2892 C 0.09008 0.66402 0.56531 0.0
H2893 H 0.27832 0.70191 0.55158 0.0
H2894 H 0.22607 0.68815 0.55709 0.0
C2895 C 0.0668 0.6672 0.57032 0.0
C2896 C 0.11762 0.6344 0.56141 0.0
H2897 H 0.18354 0.63137 0.56659 0.0
C2898 C 0.12158 0.63842 0.55073 0.0
C2899 C 0.13998 0.63121 0.56716 0.0
C2900 C 0.13789 0.62807 0.57868 0.0
C2901 C 0.14792 0.64066 0.54574 0.0
C2902 C 0.17069 0.63843 0.55155 0.0
C2903 C 0.16592 0.63286 0.56213 0.0
C2904 C 0.20192 0.64687 0.54729 0.0
C2905 C 0.15218 0.64718 0.5344 0.0
C2906 C 0.20589 0.62858 0.53972 0.0
C2907 C 0.23623 0.63661 0.53645 0.0
C2908 C 0.26282 0.66279 0.54081 0.0
C2909 C 0.25842 0.68132 0.54815 0.0
C2910 C 0.22848 0.67351 0.55132 0.0
H2911 H 0.13405 0.6516 0.5312 0.0
H2912 H 0.17574 0.66797 0.53286 0.0
H2913 H 0.1507 0.6266 0.5303 0.0
H2914 H 0.18569 0.60771 0.53656 0.0
H2915 H 0.23891 0.62174 0.53088 0.0
H2916 H 0.43774 0.45815 0.58371 0.0
H2917 H 0.44005 0.50329 0.575 0.0
H2918 H 0.3546 0.44008 0.55878 0.0
H2919 H 0.35209 0.39509 0.56738 0.0
H2920 H 0.43788 0.51376 0.55204 0.0
H2921 H 0.33847 0.50567 0.57465 0.0
H2922 H 0.36081 0.4882 0.57888 0.0
H2923 H 0.33216 0.46956 0.56887 0.0
C2924 C 0.41947 0.45389 0.57829 0.0
C2925 C 0.39461 0.42301 0.57631 0.0
C2926 C 0.42092 0.47968 0.57327 0.0
C2927 C 0.39742 0.47503 0.56627 0.0
C2928 C 0.37288 0.44423 0.56419 0.0
H2929 H 0.3756 0.60606 0.5267 0.0
H2930 H 0.38312 0.56285 0.53235 0.0
C2931 C 0.37149 0.41853 0.56914 0.0
C2932 C 0.39762 0.50232 0.56143 0.0
H2933 H 0.35836 0.54261 0.56127 0.0
C2934 C 0.42051 0.5201 0.55404 0.0
C2935 C 0.37495 0.51055 0.56405 0.0
C2936 C 0.35028 0.49272 0.5721 0.0
C2937 C 0.42116 0.54586 0.54918 0.0
C2938 C 0.39844 0.55397 0.55182 0.0
C2939 C 0.37563 0.53618 0.55921 0.0
C2940 C 0.39891 0.58213 0.54761 0.0
C2941 C 0.44642 0.5647 0.54144 0.0
C2942 C 0.4061 0.6076 0.55418 0.0
C2943 C 0.40198 0.63216 0.55099 0.0
C2944 C 0.39034 0.63183 0.54113 0.0
C2945 C 0.38489 0.60722 0.53429 0.0
C2946 C 0.38907 0.58246 0.53753 0.0
H2947 H 0.46404 0.55717 0.5409 0.0
H2948 H 0.43555 0.56181 0.53378 0.0
H2949 H 0.45861 0.59018 0.54349 0.0
H2950 H 0.41376 0.60787 0.56197 0.0
H2951 H 0.40663 0.65081 0.55644 0.0
H2952 H 0.65999 0.00188 0.55733 0.0
H2953 H 0.617 0.96256 0.54657 0.0
H2954 H 0.55002 0.95419 0.56944 0.0
H2955 H 0.59271 0.99373 0.58012 0.0
H2956 H 0.57456 0.90146 0.55075 0.0
H2957 H 0.51125 0.96479 0.54371 0.0
H2958 H 0.55071 0.98429 0.54878 0.0
H2959 H 0.51751 0.96267 0.55713 0.0
C2960 C 0.63607 0.99179 0.56003 0.0
C2961 C 0.62976 1.00098 0.56957 0.0
C2962 C 0.61152 0.96937 0.55386 0.0
C2963 C 0.58017 0.95585 0.55707 0.0
C2964 C 0.57389 0.96488 0.56664 0.0
H2965 H 0.40263 0.79787 0.54949 0.0
H2966 H 0.44844 0.85016 0.55229 0.0
C2967 C 0.59838 0.9873 0.57279 0.0
C2968 C 0.55408 0.93086 0.5508 0.0
H2969 H 0.48139 0.90823 0.5412 0.0
C2970 C 0.55449 0.90319 0.54846 0.0
C2971 C 0.52796 0.93318 0.54772 0.0
C2972 C 0.52694 0.96299 0.54937 0.0
C2973 C 0.52862 0.87703 0.54379 0.0
C2974 C 0.50174 0.87872 0.54126 0.0
C2975 C 0.502 0.90696 0.54311 0.0
C2976 C 0.47173 0.85004 0.53823 0.0
C2977 C 0.52942 0.84707 0.5422 0.0
C2978 C 0.46873 0.83323 0.52909 0.0
C2979 C 0.44217 0.80321 0.52741 0.0
C2980 C 0.41855 0.78966 0.53491 0.0
C2981 C 0.42055 0.8077 0.54361 0.0
C2982 C 0.44676 0.83761 0.54522 0.0
H2983 H 0.55041 0.84843 0.54577 0.0
H2984 H 0.50805 0.82665 0.54548 0.0
H2985 H 0.52984 0.84254 0.53387 0.0
H2986 H 0.48758 0.84262 0.52353 0.0
H2987 H 0.44129 0.78972 0.52068 0.0
H2988 H 0.35484 0.38844 0.28033 0.0
H2989 H 0.34902 0.42438 0.29201 0.0
H2990 H 0.2856 0.42939 0.27064 0.0
H2991 H 0.29096 0.39315 0.25899 0.0
H2992 H 0.36343 0.48477 0.28876 0.0
H2993 H 0.23672 0.41087 0.29728 0.0
H2994 H 0.2589 0.3951 0.29132 0.0
H2995 H 0.24442 0.41533 0.28376 0.0
C2996 C 0.3396 0.39714 0.27812 0.0
C2997 C 0.32333 0.38791 0.26873 0.0
C2998 C 0.33621 0.4176 0.28483 0.0
C2999 C 0.31634 0.42908 0.28232 0.0
C3000 C 0.30039 0.42018 0.27288 0.0
H3001 H 0.28469 0.5758 0.29493 0.0
H3002 H 0.27982 0.52494 0.29116 0.0
C3003 C 0.30374 0.39972 0.26618 0.0
C3004 C 0.31369 0.45181 0.28925 0.0
H3005 H 0.26046 0.46651 0.30094 0.0
C3006 C 0.34101 0.48054 0.29161 0.0
C3007 C 0.28443 0.44618 0.29303 0.0
C3008 C 0.2545 0.41505 0.29131 0.0
C3009 C 0.33966 0.50461 0.29705 0.0
C3010 C 0.31019 0.49961 0.30037 0.0
C3011 C 0.28303 0.47028 0.29844 0.0
C3012 C 0.3068 0.52612 0.30433 0.0
C3013 C 0.36957 0.53593 0.29861 0.0
C3014 C 0.32179 0.54275 0.31338 0.0
C3015 C 0.32431 0.57192 0.31562 0.0
C3016 C 0.31203 0.58469 0.30877 0.0
C3017 C 0.29438 0.56644 0.30032 0.0
C3018 C 0.29165 0.53739 0.29815 0.0
H3019 H 0.38965 0.53732 0.2943 0.0
H3020 H 0.36633 0.55557 0.29613 0.0
H3021 H 0.37573 0.53945 0.30687 0.0
H3022 H 0.33323 0.5342 0.31834 0.0
H3023 H 0.33821 0.58565 0.32214 0.0
H3024 H 0.65482 0.98413 0.27889 0.0
H3025 H 0.61458 0.94078 0.2891 0.0
H3026 H 0.60776 0.87398 0.2661 0.0
H3027 H 0.64847 0.9171 0.25599 0.0
H3028 H 0.55454 0.89904 0.28452 0.0
H3029 H 0.61583 0.83365 0.29165 0.0
H3030 H 0.63578 0.87322 0.28667 0.0
H3031 H 0.61366 0.83988 0.27823 0.0
C3032 C 0.64487 0.96018 0.27603 0.0
C3033 C 0.6549 0.95405 0.26664 0.0
C3034 C 0.62188 0.93541 0.28189 0.0
C3035 C 0.60851 0.90398 0.27849 0.0
C3036 C 0.6183 0.89788 0.26905 0.0
H3037 H 0.44795 0.72522 0.28911 0.0
H3038 H 0.49868 0.77048 0.28443 0.0
C3039 C 0.64139 0.92262 0.26322 0.0
C3040 C 0.58316 0.87772 0.28452 0.0
H3041 H 0.55995 0.80506 0.29442 0.0
C3042 C 0.55596 0.87875 0.28685 0.0
C3043 C 0.58501 0.85126 0.28762 0.0
C3044 C 0.61429 0.84954 0.28601 0.0
C3045 C 0.53003 0.85342 0.29168 0.0
C3046 C 0.53139 0.82641 0.29437 0.0
C3047 C 0.55895 0.82579 0.29237 0.0
C3048 C 0.50323 0.79739 0.29819 0.0
C3049 C 0.50074 0.85507 0.29342 0.0
C3050 C 0.48953 0.79686 0.30771 0.0
C3051 C 0.46044 0.77074 0.31047 0.0
C3052 C 0.44459 0.74492 0.30369 0.0
C3053 C 0.45946 0.7448 0.29448 0.0
C3054 C 0.48849 0.77067 0.29179 0.0
H3055 H 0.50191 0.87563 0.28957 0.0
H3056 H 0.47975 0.83319 0.29055 0.0
H3057 H 0.49757 0.85712 0.30176 0.0
H3058 H 0.50071 0.81713 0.31283 0.0
H3059 H 0.44954 0.77167 0.31758 0.0
H3060 H 0.12449 0.78194 0.25813 0.0
H3061 H 0.17016 0.78608 0.26694 0.0
H3062 H 0.11153 0.69291 0.27923 0.0
H3063 H 0.06592 0.68897 0.27071 0.0
H3064 H 0.1512 0.73388 0.29376 0.0
H3065 H 0.21736 0.74281 0.25814 0.0
H3066 H 0.20709 0.77266 0.25976 0.0
H3067 H 0.17671 0.73216 0.25793 0.0
C3068 C 0.12141 0.7623 0.26267 0.0
C3069 C 0.09159 0.73503 0.26365 0.0
C3070 C 0.14755 0.76467 0.26769 0.0
C3071 C 0.14443 0.73965 0.27367 0.0
C3072 C 0.11461 0.71256 0.27469 0.0
H3073 H 0.26468 0.67332 0.28897 0.0
H3074 H 0.22711 0.68717 0.28284 0.0
C3075 C 0.08853 0.71028 0.26976 0.0
C3076 C 0.172 0.74099 0.27876 0.0
H3077 H 0.24082 0.74308 0.27375 0.0
C3078 C 0.171 0.73625 0.28941 0.0
C3079 C 0.19781 0.74399 0.27308 0.0
C3080 C 0.19985 0.74793 0.26159 0.0
C3081 C 0.19441 0.73322 0.29444 0.0
C3082 C 0.21976 0.73544 0.28871 0.0
C3083 C 0.22144 0.74155 0.27815 0.0
C3084 C 0.24233 0.72719 0.29309 0.0
C3085 C 0.19097 0.72599 0.30574 0.0
C3086 C 0.26339 0.74487 0.30105 0.0
C3087 C 0.28512 0.7368 0.30465 0.0
C3088 C 0.28616 0.71111 0.3003 0.0
C3089 C 0.26472 0.69341 0.29246 0.0
C3090 C 0.24315 0.7013 0.28893 0.0
H3091 H 0.16766 0.72041 0.30873 0.0
H3092 H 0.19424 0.70573 0.30727 0.0
H3093 H 0.20934 0.74674 0.31005 0.0
H3094 H 0.26355 0.76527 0.30428 0.0
H3095 H 0.30179 0.7513 0.31051 0.0
loop_
_geom_bond_atom_site_label_1
_geom_bond_atom_site_label_2
_geom_bond_distance
_geom_bond_site_symmetry_2
_ccdc_geom_bond_type
Co0 O1 2.216 . S
Co0 O2 2.091 . S
Co0 O4 2.004 . S
Co0 O10 2.021 . S
Co0 O12 2.137 . S
Co0 O13 2.244 1_545 S
O1 Co0 2.216 . S
O1 C8 1.247 . S
O2 Co0 2.091 . S
O2 C8 1.261 . S
C3 O12 1.247 1_565 S
C3 O13 1.272 . S
O4 Co0 2.004 . S
O4 C9 1.259 . S
Co5 O6 2.061 . S
Co5 O11 2.052 . S
Co5 O13 2.135 . S
O6 Co5 2.061 . S
O6 C9 1.235 1_565 S
C7 O10 1.238 . S
C7 O11 1.241 1_545 S
C8 O1 1.247 . S
C8 O2 1.261 . S
C9 O4 1.259 . S
C9 O6 1.235 1_545 S
O10 Co0 2.021 . S
O10 C7 1.238 . S
O11 Co5 2.052 . S
O11 C7 1.241 1_565 S
O12 Co0 2.137 . S
O12 C3 1.247 1_545 S
O13 Co0 2.244 1_565 S
O13 C3 1.272 . S
O13 Co5 2.135 . S
Co14 O15 2.216 . S
Co14 O16 2.091 . S
Co14 O18 2.004 . S
Co14 O24 2.021 . S
Co14 O26 2.137 . S
Co14 O27 2.244 1_455 S
O15 Co14 2.216 . S
O15 C22 1.247 . S
O16 Co14 2.091 . S
O16 C22 1.261 . S
C17 O26 1.247 1_655 S
C17 O27 1.272 . S
O18 Co14 2.004 . S
O18 C23 1.259 . S
Co19 O20 2.061 . S
Co19 O25 2.052 . S
Co19 O27 2.135 . S
O20 Co19 2.061 . S
O20 C23 1.235 1_655 S
C21 O24 1.238 . S
C21 O25 1.241 1_455 S
C22 O15 1.247 . S
C22 O16 1.261 . S
C23 O18 1.259 . S
C23 O20 1.235 1_455 S
O24 Co14 2.021 . S
O24 C21 1.238 . S
O25 Co19 2.052 . S
O25 C21 1.241 1_655 S
O26 Co14 2.137 . S
O26 C17 1.247 1_455 S
O27 Co14 2.244 1_655 S
O27 C17 1.272 . S
O27 Co19 2.135 . S
Co28 O29 2.216 . S
Co28 O30 2.091 . S
Co28 O32 2.004 . S
Co28 O38 2.021 . S
Co28 O40 2.137 . S
Co28 O41 2.244 . S
O29 Co28 2.216 . S
O29 C36 1.247 . S
O30 Co28 2.091 . S
O30 C36 1.261 . S
C31 O40 1.247 . S
C31 O41 1.272 . S
O32 Co28 2.004 . S
O32 C37 1.259 . S
Co33 O34 2.061 . S
Co33 O39 2.052 . S
Co33 O41 2.135 . S
O34 Co33 2.061 . S
O34 C37 1.235 . S
C35 O38 1.238 . S
C35 O39 1.241 . S
C36 O29 1.247 . S
C36 O30 1.261 . S
C37 O32 1.259 . S
C37 O34 1.235 . S
O38 Co28 2.021 . S
O38 C35 1.238 . S
O39 Co33 2.052 . S
O39 C35 1.241 . S
O40 Co28 2.137 . S
O40 C31 1.247 . S
O41 Co28 2.244 . S
O41 C31 1.272 . S
O41 Co33 2.135 . S
Co42 O43 2.216 . S
Co42 O44 2.091 1_545 S
Co42 O46 2.004 . S
Co42 O52 2.021 . S
Co42 O54 2.137 . S
Co42 O55 2.244 . S
O43 Co42 2.216 . S
O43 C50 1.247 1_545 S
O44 Co42 2.091 1_565 S
O44 C50 1.261 . S
C45 O54 1.247 . S
C45 O55 1.272 . S
O46 Co42 2.004 . S
O46 C51 1.259 . S
Co47 O48 2.061 . S
Co47 O53 2.052 . S
Co47 O55 2.135 . S
O48 Co47 2.061 . S
O48 C51 1.235 . S
C49 O52 1.238 . S
C49 O53 1.241 . S
C50 O43 1.247 1_565 S
C50 O44 1.261 . S
C51 O46 1.259 . S
C51 O48 1.235 . S
O52 Co42 2.021 . S
O52 C49 1.238 . S
O53 Co47 2.052 . S
O53 C49 1.241 . S
O54 Co42 2.137 . S
O54 C45 1.247 . S
O55 Co42 2.244 . S
O55 C45 1.272 . S
O55 Co47 2.135 . S
Co56 O57 2.218 . S
Co56 O58 2.091 1_455 S
Co56 O60 2.004 . S
Co56 O66 2.021 . S
Co56 O68 2.137 . S
Co56 O69 2.244 . S
O57 Co56 2.218 . S
O57 C64 1.243 1_455 S
O58 Co56 2.091 1_655 S
O58 C64 1.261 . S
C59 O68 1.247 . S
C59 O69 1.272 . S
O60 Co56 2.004 . S
O60 C65 1.259 . S
Co61 O62 2.061 . S
Co61 O67 2.052 . S
Co61 O69 2.135 . S
O62 Co61 2.061 . S
O62 C65 1.235 . S
C63 O66 1.238 . S
C63 O67 1.241 . S
C64 O57 1.243 1_655 S
C64 O58 1.261 . S
C65 O60 1.259 . S
C65 O62 1.235 . S
O66 Co56 2.021 . S
O66 C63 1.238 . S
O67 Co61 2.052 . S
O67 C63 1.241 . S
O68 Co56 2.137 . S
O68 C59 1.247 . S
O69 Co56 2.244 . S
O69 C59 1.272 . S
O69 Co61 2.135 . S
Co70 O71 2.216 . S
Co70 O72 2.091 . S
Co70 O74 2.004 . S
Co70 O80 2.021 . S
Co70 O82 2.137 . S
Co70 O83 2.244 . S
O71 Co70 2.216 . S
O71 C78 1.247 . S
O72 Co70 2.091 . S
O72 C78 1.261 . S
C73 O82 1.247 . S
C73 O83 1.272 . S
O74 Co70 2.004 . S
O74 C79 1.259 . S
Co75 O76 2.061 . S
Co75 O81 2.052 . S
Co75 O83 2.135 . S
O76 Co75 2.061 . S
O76 C79 1.235 . S
C77 O80 1.238 . S
C77 O81 1.241 . S
C78 O71 1.247 . S
C78 O72 1.261 . S
C79 O74 1.259 . S
C79 O76 1.235 . S
O80 Co70 2.021 . S
O80 C77 1.238 . S
O81 Co75 2.052 . S
O81 C77 1.241 . S
O82 Co70 2.137 . S
O82 C73 1.247 . S
O83 Co70 2.244 . S
O83 C73 1.272 . S
O83 Co75 2.135 . S
Co84 O85 2.216 . S
Co84 O86 2.091 . S
Co84 O88 2.004 . S
Co84 O94 2.021 . S
Co84 O96 2.137 . S
Co84 O97 2.244 . S
O85 Co84 2.216 . S
O85 C92 1.247 . S
O86 Co84 2.091 . S
O86 C92 1.261 . S
C87 O96 1.247 . S
C87 O97 1.272 . S
O88 Co84 2.004 . S
O88 C93 1.259 . S
Co89 O90 2.061 . S
Co89 O95 2.052 . S
Co89 O97 2.135 . S
O90 Co89 2.061 . S
O90 C93 1.235 . S
C91 O94 1.238 . S
C91 O95 1.241 . S
C92 O85 1.247 . S
C92 O86 1.261 . S
C93 O88 1.259 . S
C93 O90 1.235 . S
O94 Co84 2.021 . S
O94 C91 1.238 . S
O95 Co89 2.052 . S
O95 C91 1.241 . S
O96 Co84 2.137 . S
O96 C87 1.247 . S
O97 Co84 2.244 . S
O97 C87 1.272 . S
O97 Co89 2.135 . S
Co98 O99 2.216 . S
Co98 O100 2.091 . S
Co98 O102 2.004 . S
Co98 O108 2.021 . S
Co98 O110 2.137 . S
Co98 O111 2.244 . S
O99 Co98 2.216 . S
O99 C106 1.247 . S
O100 Co98 2.091 . S
O100 C106 1.261 . S
C101 O110 1.247 . S
C101 O111 1.272 . S
O102 Co98 2.004 . S
O102 C107 1.259 . S
Co103 O104 2.061 . S
Co103 O109 2.052 . S
Co103 O111 2.135 . S
O104 Co103 2.061 . S
O104 C107 1.235 . S
C105 O108 1.238 . S
C105 O109 1.241 . S
C106 O99 1.247 . S
C106 O100 1.261 . S
C107 O102 1.259 . S
C107 O104 1.235 . S
O108 Co98 2.021 . S
O108 C105 1.238 . S
O109 Co103 2.052 . S
O109 C105 1.241 . S
O110 Co98 2.137 . S
O110 C101 1.247 . S
O111 Co98 2.244 . S
O111 C101 1.272 . S
O111 Co103 2.135 . S
Co112 O113 2.216 1_655 S
Co112 O114 2.091 1_655 S
Co112 O116 2.004 . S
Co112 O122 2.021 . S
Co112 O124 2.138 . S
Co112 O125 2.244 . S
O113 Co112 2.216 1_455 S
O113 C120 1.247 . S
O114 Co112 2.091 1_455 S
O114 C120 1.261 . S
C115 O124 1.264 . S
C115 O125 1.272 . S
O116 Co112 2.004 . S
O116 C121 1.259 . S
Co117 O118 2.061 . S
Co117 O123 2.052 . S
Co117 O125 2.135 . S
O118 Co117 2.061 . S
O118 C121 1.235 . S
C119 O122 1.238 . S
C119 O123 1.241 . S
C120 O113 1.247 . S
C120 O114 1.261 . S
C121 O116 1.259 . S
C121 O118 1.235 . S
O122 Co112 2.021 . S
O122 C119 1.238 . S
O123 Co117 2.052 . S
O123 C119 1.241 . S
O124 Co112 2.138 . S
O124 C115 1.264 . S
O125 Co112 2.244 . S
O125 C115 1.272 . S
O125 Co117 2.135 . S
Co126 O127 2.216 . S
Co126 O128 2.091 . S
Co126 O130 2.004 . S
Co126 O136 2.021 . S
Co126 O138 2.137 1_655 S
Co126 O139 2.244 . S
O127 Co126 2.216 . S
O127 C134 1.247 . S
O128 Co126 2.091 . S
O128 C134 1.261 . S
C129 O138 1.247 . S
C129 O139 1.272 1_455 S
O130 Co126 2.004 . S
O130 C135 1.259 . S
Co131 O132 2.061 . S
Co131 O137 2.052 . S
Co131 O139 2.135 . S
O132 Co131 2.061 . S
O132 C135 1.235 . S
C133 O136 1.238 . S
C133 O137 1.241 . S
C134 O127 1.247 . S
C134 O128 1.261 . S
C135 O130 1.259 . S
C135 O132 1.235 . S
O136 Co126 2.021 . S
O136 C133 1.238 . S
O137 Co131 2.052 . S
O137 C133 1.241 . S
O138 Co126 2.137 1_455 S
O138 C129 1.247 . S
O139 Co126 2.244 . S
O139 C129 1.272 1_655 S
O139 Co131 2.135 . S
Co140 O141 2.216 . S
Co140 O142 2.091 . S
Co140 O144 2.004 . S
Co140 O150 2.021 . S
Co140 O152 2.137 . S
Co140 O153 2.244 . S
O141 Co140 2.216 . S
O141 C148 1.247 . S
O142 Co140 2.091 . S
O142 C148 1.261 . S
C143 O152 1.247 . S
C143 O153 1.272 . S
O144 Co140 2.004 . S
O144 C149 1.259 . S
Co145 O146 2.061 . S
Co145 O151 2.052 . S
Co145 O153 2.135 . S
O146 Co145 2.061 . S
O146 C149 1.235 . S
C147 O150 1.238 . S
C147 O151 1.241 . S
C148 O141 1.247 . S
C148 O142 1.261 . S
C149 O144 1.259 . S
C149 O146 1.235 . S
O150 Co140 2.021 . S
O150 C147 1.238 . S
O151 Co145 2.052 . S
O151 C147 1.241 . S
O152 Co140 2.137 . S
O152 C143 1.247 . S
O153 Co140 2.244 . S
O153 C143 1.272 . S
O153 Co145 2.135 . S
Co154 O155 2.216 . S
Co154 O156 2.091 . S
Co154 O158 2.004 . S
Co154 O164 2.021 . S
Co154 O166 2.137 . S
Co154 O167 2.244 . S
O155 Co154 2.216 . S
O155 C162 1.247 . S
O156 Co154 2.091 . S
O156 C162 1.261 . S
C157 O166 1.247 . S
C157 O167 1.272 . S
O158 Co154 2.004 . S
O158 C163 1.259 . S
Co159 O160 2.061 . S
Co159 O165 2.052 . S
Co159 O167 2.135 . S
O160 Co159 2.061 . S
O160 C163 1.235 . S
C161 O164 1.238 . S
C161 O165 1.241 . S
C162 O155 1.247 . S
C162 O156 1.261 . S
C163 O158 1.259 . S
C163 O160 1.235 . S
O164 Co154 2.021 . S
O164 C161 1.238 . S
O165 Co159 2.052 . S
O165 C161 1.241 . S
O166 Co154 2.137 . S
O166 C157 1.247 . S
O167 Co154 2.244 . S
O167 C157 1.272 . S
O167 Co159 2.135 . S
Co168 O169 2.216 . S
Co168 O170 2.091 . S
Co168 O172 2.004 . S
Co168 O178 2.021 . S
Co168 O180 2.137 . S
Co168 O181 2.244 . S
O169 Co168 2.216 . S
O169 C176 1.247 . S
O170 Co168 2.091 . S
O170 C176 1.261 . S
C171 O180 1.247 . S
C171 O181 1.272 . S
O172 Co168 2.004 . S
O172 C177 1.259 . S
Co173 O174 2.061 . S
Co173 O179 2.052 . S
Co173 O181 2.135 . S
O174 Co173 2.061 . S
O174 C177 1.235 . S
C175 O178 1.238 . S
C175 O179 1.241 . S
C176 O169 1.247 . S
C176 O170 1.261 . S
C177 O172 1.259 . S
C177 O174 1.235 . S
O178 Co168 2.021 . S
O178 C175 1.238 . S
O179 Co173 2.052 . S
O179 C175 1.241 . S
O180 Co168 2.137 . S
O180 C171 1.247 . S
O181 Co168 2.244 . S
O181 C171 1.272 . S
O181 Co173 2.135 . S
Co182 O183 2.216 . S
Co182 O184 2.091 . S
Co182 O186 2.004 . S
Co182 O192 2.021 . S
Co182 O194 2.137 . S
Co182 O195 2.244 . S
O183 Co182 2.216 . S
O183 C190 1.247 . S
O184 Co182 2.091 . S
O184 C190 1.261 . S
C185 O194 1.247 . S
C185 O195 1.272 . S
O186 Co182 2.004 . S
O186 C191 1.259 . S
Co187 O188 2.061 . S
Co187 O193 2.052 . S
Co187 O195 2.135 . S
O188 Co187 2.061 . S
O188 C191 1.235 . S
C189 O192 1.238 . S
C189 O193 1.241 . S
C190 O183 1.247 . S
C190 O184 1.261 . S
C191 O186 1.259 . S
C191 O188 1.235 . S
O192 Co182 2.021 . S
O192 C189 1.238 . S
O193 Co187 2.052 . S
O193 C189 1.241 . S
O194 Co182 2.137 . S
O194 C185 1.247 . S
O195 Co182 2.244 . S
O195 C185 1.272 . S
O195 Co187 2.135 . S
Co196 O197 2.216 . S
Co196 O198 2.091 . S
Co196 O200 2.004 . S
Co196 O206 2.021 . S
Co196 O208 2.137 1_565 S
Co196 O209 2.244 1_565 S
O197 Co196 2.216 . S
O197 C204 1.247 . S
O198 Co196 2.091 . S
O198 C204 1.261 . S
C199 O208 1.247 . S
C199 O209 1.272 . S
O200 Co196 2.004 . S
O200 C205 1.259 . S
Co201 O202 2.061 . S
Co201 O207 2.052 . S
Co201 O209 2.135 1_565 S
O202 Co201 2.061 . S
O202 C205 1.235 . S
C203 O206 1.238 . S
C203 O207 1.241 . S
C204 O197 1.247 . S
C204 O198 1.261 . S
C205 O200 1.259 . S
C205 O202 1.235 . S
O206 Co196 2.021 . S
O206 C203 1.238 . S
O207 Co201 2.052 . S
O207 C203 1.241 . S
O208 Co196 2.137 1_545 S
O208 C199 1.247 . S
O209 Co196 2.244 1_545 S
O209 C199 1.272 . S
O209 Co201 2.135 1_545 S
Co210 O211 2.216 . S
Co210 O212 2.091 . S
Co210 O214 2.004 . S
Co210 O220 2.021 . S
Co210 O222 2.137 . S
Co210 O223 2.244 . S
O211 Co210 2.216 . S
O211 C218 1.247 . S
O212 Co210 2.091 . S
O212 C218 1.261 . S
C213 O222 1.247 . S
C213 O223 1.272 . S
O214 Co210 2.004 . S
O214 C219 1.259 . S
Co215 O216 2.061 . S
Co215 O221 2.052 . S
Co215 O223 2.135 . S
O216 Co215 2.061 . S
O216 C219 1.235 . S
C217 O220 1.238 . S
C217 O221 1.241 . S
C218 O211 1.247 . S
C218 O212 1.261 . S
C219 O214 1.259 . S
C219 O216 1.235 . S
O220 Co210 2.021 . S
O220 C217 1.238 . S
O221 Co215 2.052 . S
O221 C217 1.241 . S
O222 Co210 2.137 . S
O222 C213 1.247 . S
O223 Co210 2.244 . S
O223 C213 1.272 . S
O223 Co215 2.135 . S
Co224 O225 2.216 . S
Co224 O226 2.091 . S
Co224 O228 2.004 . S
Co224 O234 2.021 . S
Co224 O236 2.137 1_565 S
Co224 O237 2.244 1_565 S
O225 Co224 2.216 . S
O225 C232 1.247 . S
O226 Co224 2.091 . S
O226 C232 1.261 . S
C227 O236 1.247 . S
C227 O237 1.272 . S
O228 Co224 2.004 . S
O228 C233 1.259 . S
Co229 O230 2.061 . S
Co229 O235 2.052 . S
Co229 O237 2.135 1_565 S
O230 Co229 2.061 . S
O230 C233 1.235 . S
C231 O234 1.238 . S
C231 O235 1.241 . S
C232 O225 1.247 . S
C232 O226 1.261 . S
C233 O228 1.259 . S
C233 O230 1.235 . S
O234 Co224 2.021 . S
O234 C231 1.238 . S
O235 Co229 2.052 . S
O235 C231 1.241 . S
O236 Co224 2.137 1_545 S
O236 C227 1.247 . S
O237 Co224 2.244 1_545 S
O237 C227 1.272 . S
O237 Co229 2.135 1_545 S
Co238 O239 2.216 . S
Co238 O240 2.091 . S
Co238 O242 2.004 . S
Co238 O248 2.021 . S
Co238 O250 2.137 . S
Co238 O251 2.244 . S
O239 Co238 2.216 . S
O239 C246 1.247 . S
O240 Co238 2.091 . S
O240 C246 1.261 . S
C241 O250 1.247 . S
C241 O251 1.272 . S
O242 Co238 2.004 . S
O242 C247 1.259 . S
Co243 O244 2.061 . S
Co243 O249 2.052 . S
Co243 O251 2.135 . S
O244 Co243 2.061 . S
O244 C247 1.235 . S
C245 O248 1.238 . S
C245 O249 1.241 . S
C246 O239 1.247 . S
C246 O240 1.261 . S
C247 O242 1.259 . S
C247 O244 1.235 . S
O248 Co238 2.021 . S
O248 C245 1.238 . S
O249 Co243 2.052 . S
O249 C245 1.241 . S
O250 Co238 2.137 . S
O250 C241 1.247 . S
O251 Co238 2.244 . S
O251 C241 1.272 . S
O251 Co243 2.135 . S
Zn252 O258 1.920 1_455 S
Zn252 O264 1.898 1_445 S
Zn252 O267 1.905 . S
Zn253 O261 1.905 1_545 S
Zn253 O262 1.898 . S
Zn253 O270 1.920 1_455 S
Zn254 O257 2.080 . S
Zn254 O260 2.114 1_545 S
Zn254 O263 2.120 . S
Zn254 O265 2.120 1_445 S
Zn254 O266 2.114 . S
Zn254 O269 2.080 1_455 S
C255 O260 1.166 . S
C255 O261 1.182 . S
C256 O262 1.167 . S
C256 O263 1.299 . S
O257 Zn254 2.080 . S
O257 C271 1.312 . S
O258 Zn252 1.920 1_655 S
O258 C271 1.236 1_655 S
C259 O264 1.167 . S
C259 O265 1.299 . S
O260 Zn254 2.114 1_565 S
O260 C255 1.166 . S
O261 Zn253 1.905 1_565 S
O261 C255 1.182 . S
O262 Zn253 1.898 . S
O262 C256 1.167 . S
O263 Zn254 2.120 . S
O263 C256 1.299 . S
O264 Zn252 1.898 1_665 S
O264 C259 1.167 . S
O265 Zn254 2.120 1_665 S
O265 C259 1.299 . S
O266 Zn254 2.114 . S
O266 C268 1.166 . S
O267 Zn252 1.905 . S
O267 C268 1.182 . S
C268 O266 1.166 . S
C268 O267 1.182 . S
O269 Zn254 2.080 1_655 S
O269 C272 1.305 . S
O270 Zn253 1.920 1_655 S
O270 C272 1.234 . S
C271 O257 1.312 . S
C271 O258 1.236 1_455 S
C272 O269 1.305 . S
C272 O270 1.234 . S
Zn273 O279 1.920 1_545 S
Zn273 O285 1.898 . S
Zn273 O288 1.905 1_455 S
Zn274 O282 1.905 . S
Zn274 O283 1.898 1_445 S
Zn274 O291 1.920 . S
Zn275 O278 2.080 1_545 S
Zn275 O281 2.114 . S
Zn275 O284 2.120 1_445 S
Zn275 O286 2.120 . S
Zn275 O287 2.114 1_455 S
Zn275 O290 2.080 . S
C276 O281 1.166 . S
C276 O282 1.182 . S
C277 O283 1.167 . S
C277 O284 1.299 . S
O278 Zn275 2.080 1_565 S
O278 C292 1.305 . S
O279 Zn273 1.920 1_565 S
O279 C292 1.234 . S
C280 O285 1.167 . S
C280 O286 1.299 . S
O281 Zn275 2.114 . S
O281 C276 1.166 . S
O282 Zn274 1.905 . S
O282 C276 1.182 . S
O283 Zn274 1.898 1_665 S
O283 C277 1.167 . S
O284 Zn275 2.120 1_665 S
O284 C277 1.299 . S
O285 Zn273 1.898 . S
O285 C280 1.167 . S
O286 Zn275 2.120 . S
O286 C280 1.299 . S
O287 Zn275 2.114 1_655 S
O287 C289 1.166 . S
O288 Zn273 1.905 1_655 S
O288 C289 1.182 . S
C289 O287 1.166 . S
C289 O288 1.182 . S
O290 Zn275 2.080 . S
O290 C293 1.305 . S
O291 Zn274 1.920 . S
O291 C293 1.234 . S
C292 O278 1.305 . S
C292 O279 1.234 . S
C293 O290 1.305 . S
C293 O291 1.234 . S
Zn294 O300 1.920 1_545 S
Zn294 O306 1.898 . S
Zn294 O309 1.905 1_455 S
Zn295 O303 1.905 . S
Zn295 O304 1.898 1_445 S
Zn295 O312 1.920 . S
Zn296 O299 2.080 1_545 S
Zn296 O302 2.114 . S
Zn296 O305 2.120 1_445 S
Zn296 O307 2.120 . S
Zn296 O308 2.114 1_455 S
Zn296 O311 2.080 . S
C297 O302 1.166 . S
C297 O303 1.182 . S
C298 O304 1.167 . S
C298 O305 1.299 . S
O299 Zn296 2.080 1_565 S
O299 C313 1.305 . S
O300 Zn294 1.920 1_565 S
O300 C313 1.234 . S
C301 O306 1.167 . S
C301 O307 1.299 . S
O302 Zn296 2.114 . S
O302 C297 1.166 . S
O303 Zn295 1.905 . S
O303 C297 1.182 . S
O304 Zn295 1.898 1_665 S
O304 C298 1.167 . S
O305 Zn296 2.120 1_665 S
O305 C298 1.299 . S
O306 Zn294 1.898 . S
O306 C301 1.167 . S
O307 Zn296 2.120 . S
O307 C301 1.299 . S
O308 Zn296 2.114 1_655 S
O308 C310 1.166 . S
O309 Zn294 1.905 1_655 S
O309 C310 1.182 . S
C310 O308 1.166 . S
C310 O309 1.182 . S
O311 Zn296 2.080 . S
O311 C314 1.305 . S
O312 Zn295 1.920 . S
O312 C314 1.234 . S
C313 O299 1.305 . S
C313 O300 1.234 . S
C314 O311 1.305 . S
C314 O312 1.234 . S
Zn315 O321 1.920 . S
Zn315 O327 1.898 1_445 S
Zn315 O330 1.905 . S
Zn316 O324 1.905 1_545 S
Zn316 O325 1.898 . S
Zn316 O333 1.920 1_455 S
Zn317 O320 2.080 . S
Zn317 O323 2.114 1_545 S
Zn317 O326 2.120 . S
Zn317 O328 2.120 1_445 S
Zn317 O329 2.114 . S
Zn317 O332 2.080 1_455 S
C318 O323 1.166 . S
C318 O324 1.182 . S
C319 O325 1.167 . S
C319 O326 1.299 . S
O320 Zn317 2.080 . S
O320 C334 1.305 . S
O321 Zn315 1.920 . S
O321 C334 1.234 . S
C322 O327 1.167 . S
C322 O328 1.299 . S
O323 Zn317 2.114 1_565 S
O323 C318 1.166 . S
O324 Zn316 1.905 1_565 S
O324 C318 1.182 . S
O325 Zn316 1.898 . S
O325 C319 1.167 . S
O326 Zn317 2.120 . S
O326 C319 1.299 . S
O327 Zn315 1.898 1_665 S
O327 C322 1.167 . S
O328 Zn317 2.120 1_665 S
O328 C322 1.299 . S
O329 Zn317 2.114 . S
O329 C331 1.166 . S
O330 Zn315 1.905 . S
O330 C331 1.182 . S
C331 O329 1.166 . S
C331 O330 1.182 . S
O332 Zn317 2.080 1_655 S
O332 C335 1.305 . S
O333 Zn316 1.920 1_655 S
O333 C335 1.234 . S
C334 O320 1.305 . S
C334 O321 1.234 . S
C335 O332 1.305 . S
C335 O333 1.234 . S
Zn336 O342 1.920 . S
Zn336 O348 1.898 . S
Zn336 O351 1.905 . S
Zn337 O345 1.905 . S
Zn337 O346 1.898 . S
Zn337 O354 1.920 . S
Zn338 O341 2.080 . S
Zn338 O344 2.114 . S
Zn338 O347 2.120 . S
Zn338 O349 2.120 . S
Zn338 O350 2.114 . S
Zn338 O353 2.080 . S
C339 O344 1.166 . S
C339 O345 1.182 . S
C340 O346 1.167 . S
C340 O347 1.299 . S
O341 Zn338 2.080 . S
O341 C355 1.305 . S
O342 Zn336 1.920 . S
O342 C355 1.234 . S
C343 O348 1.167 . S
C343 O349 1.299 . S
O344 Zn338 2.114 . S
O344 C339 1.166 . S
O345 Zn337 1.905 . S
O345 C339 1.182 . S
O346 Zn337 1.898 . S
O346 C340 1.167 . S
O347 Zn338 2.120 . S
O347 C340 1.299 . S
O348 Zn336 1.898 . S
O348 C343 1.167 . S
O349 Zn338 2.120 . S
O349 C343 1.299 . S
O350 Zn338 2.114 . S
O350 C352 1.166 . S
O351 Zn336 1.905 . S
O351 C352 1.182 . S
C352 O350 1.166 . S
C352 O351 1.182 . S
O353 Zn338 2.080 . S
O353 C356 1.305 . S
O354 Zn337 1.920 . S
O354 C356 1.234 . S
C355 O341 1.305 . S
C355 O342 1.234 . S
C356 O353 1.305 . S
C356 O354 1.234 . S
Zn357 O363 1.920 . S
Zn357 O369 1.898 . S
Zn357 O372 1.905 . S
Zn358 O366 1.905 . S
Zn358 O367 1.898 . S
Zn358 O375 1.920 . S
Zn359 O362 2.080 . S
Zn359 O365 2.114 . S
Zn359 O368 2.120 . S
Zn359 O370 2.120 . S
Zn359 O371 2.114 . S
Zn359 O374 2.080 . S
C360 O365 1.166 . S
C360 O366 1.182 . S
C361 O367 1.167 . S
C361 O368 1.299 . S
O362 Zn359 2.080 . S
O362 C376 1.305 . S
O363 Zn357 1.920 . S
O363 C376 1.234 . S
C364 O369 1.167 . S
C364 O370 1.299 . S
O365 Zn359 2.114 . S
O365 C360 1.166 . S
O366 Zn358 1.905 . S
O366 C360 1.182 . S
O367 Zn358 1.898 . S
O367 C361 1.167 . S
O368 Zn359 2.120 . S
O368 C361 1.299 . S
O369 Zn357 1.898 . S
O369 C364 1.167 . S
O370 Zn359 2.120 . S
O370 C364 1.299 . S
O371 Zn359 2.114 . S
O371 C373 1.166 . S
O372 Zn357 1.905 . S
O372 C373 1.182 . S
C373 O371 1.166 . S
C373 O372 1.182 . S
O374 Zn359 2.080 . S
O374 C377 1.305 . S
O375 Zn358 1.920 . S
O375 C377 1.234 . S
C376 O362 1.305 . S
C376 O363 1.234 . S
C377 O374 1.305 . S
C377 O375 1.234 . S
Zn378 O384 1.920 . S
Zn378 O390 1.898 . S
Zn378 O393 1.905 . S
Zn379 O387 1.905 . S
Zn379 O388 1.898 . S
Zn379 O396 1.920 . S
Zn380 O383 2.080 . S
Zn380 O386 2.114 . S
Zn380 O389 2.120 . S
Zn380 O391 2.120 . S
Zn380 O392 2.114 . S
Zn380 O395 2.080 . S
C381 O386 1.166 . S
C381 O387 1.182 . S
C382 O388 1.167 . S
C382 O389 1.299 . S
O383 Zn380 2.080 . S
O383 C397 1.305 . S
O384 Zn378 1.920 . S
O384 C397 1.234 . S
C385 O390 1.167 . S
C385 O391 1.299 . S
O386 Zn380 2.114 . S
O386 C381 1.166 . S
O387 Zn379 1.905 . S
O387 C381 1.182 . S
O388 Zn379 1.898 . S
O388 C382 1.167 . S
O389 Zn380 2.120 . S
O389 C382 1.299 . S
O390 Zn378 1.898 . S
O390 C385 1.167 . S
O391 Zn380 2.120 . S
O391 C385 1.299 . S
O392 Zn380 2.114 . S
O392 C394 1.166 . S
O393 Zn378 1.905 . S
O393 C394 1.182 . S
C394 O392 1.166 . S
C394 O393 1.182 . S
O395 Zn380 2.080 . S
O395 C398 1.305 . S
O396 Zn379 1.920 . S
O396 C398 1.234 . S
C397 O383 1.305 . S
C397 O384 1.234 . S
C398 O395 1.305 . S
C398 O396 1.234 . S
Zn399 O405 1.920 . S
Zn399 O411 1.898 . S
Zn399 O414 1.905 . S
Zn400 O408 1.905 . S
Zn400 O409 1.898 . S
Zn400 O417 1.920 . S
Zn401 O404 2.080 . S
Zn401 O407 2.114 . S
Zn401 O410 2.120 . S
Zn401 O412 2.120 . S
Zn401 O413 2.114 . S
Zn401 O416 2.080 . S
C402 O407 1.166 . S
C402 O408 1.182 . S
C403 O409 1.167 . S
C403 O410 1.299 . S
O404 Zn401 2.080 . S
O404 C418 1.311 . S
O405 Zn399 1.920 . S
O405 C418 1.227 1_554 S
C406 O411 1.149 1_556 S
C406 O412 1.315 . S
O407 Zn401 2.114 . S
O407 C402 1.166 . S
O408 Zn400 1.905 . S
O408 C402 1.182 . S
O409 Zn400 1.898 . S
O409 C403 1.167 . S
O410 Zn401 2.120 . S
O410 C403 1.299 . S
O411 Zn399 1.898 . S
O411 C406 1.149 1_554 S
O412 Zn401 2.120 . S
O412 C406 1.315 . S
O413 Zn401 2.114 . S
O413 C415 1.221 . S
O414 Zn399 1.905 . S
O414 C415 1.120 1_554 S
C415 O413 1.221 . S
C415 O414 1.120 1_556 S
O416 Zn401 2.080 . S
O416 C419 1.305 . S
O417 Zn400 1.920 . S
O417 C419 1.234 . S
C418 O404 1.311 . S
C418 O405 1.227 1_556 S
C419 O416 1.305 . S
C419 O417 1.234 . S
Zn420 O426 1.920 . S
Zn420 O432 1.898 . S
Zn420 O435 1.905 . S
Zn421 O429 1.905 . S
Zn421 O430 1.898 . S
Zn421 O438 1.920 . S
Zn422 O425 2.080 . S
Zn422 O428 2.114 . S
Zn422 O431 2.120 . S
Zn422 O433 2.120 . S
Zn422 O434 2.114 . S
Zn422 O437 2.080 . S
C423 O428 1.166 . S
C423 O429 1.182 . S
C424 O430 1.167 . S
C424 O431 1.299 . S
O425 Zn422 2.080 . S
O425 C439 1.305 . S
O426 Zn420 1.920 . S
O426 C439 1.234 . S
C427 O432 1.167 . S
C427 O433 1.299 . S
O428 Zn422 2.114 . S
O428 C423 1.166 . S
O429 Zn421 1.905 . S
O429 C423 1.182 . S
O430 Zn421 1.898 . S
O430 C424 1.167 . S
O431 Zn422 2.120 . S
O431 C424 1.299 . S
O432 Zn420 1.898 . S
O432 C427 1.167 . S
O433 Zn422 2.120 . S
O433 C427 1.299 . S
O434 Zn422 2.114 . S
O434 C436 1.166 . S
O435 Zn420 1.905 . S
O435 C436 1.182 . S
C436 O434 1.166 . S
C436 O435 1.182 . S
O437 Zn422 2.080 . S
O437 C440 1.305 . S
O438 Zn421 1.920 . S
O438 C440 1.234 . S
C439 O425 1.305 . S
C439 O426 1.234 . S
C440 O437 1.305 . S
C440 O438 1.234 . S
Zn441 O447 1.920 . S
Zn441 O453 1.898 . S
Zn441 O456 1.905 . S
Zn442 O450 1.905 . S
Zn442 O451 1.898 . S
Zn442 O459 1.920 . S
Zn443 O446 2.080 . S
Zn443 O449 2.114 . S
Zn443 O452 2.120 . S
Zn443 O454 2.120 . S
Zn443 O455 2.114 . S
Zn443 O458 2.080 . S
C444 O449 1.221 . S
C444 O450 1.121 1_554 S
C445 O451 1.149 1_554 S
C445 O452 1.314 . S
O446 Zn443 2.080 . S
O446 C460 1.305 . S
O447 Zn441 1.920 . S
O447 C460 1.234 . S
C448 O453 1.167 . S
C448 O454 1.299 . S
O449 Zn443 2.114 . S
O449 C444 1.221 . S
O450 Zn442 1.905 . S
O450 C444 1.121 1_556 S
O451 Zn442 1.898 . S
O451 C445 1.149 1_556 S
O452 Zn443 2.120 . S
O452 C445 1.314 . S
O453 Zn441 1.898 . S
O453 C448 1.167 . S
O454 Zn443 2.120 . S
O454 C448 1.299 . S
O455 Zn443 2.114 . S
O455 C457 1.166 . S
O456 Zn441 1.905 . S
O456 C457 1.182 . S
C457 O455 1.166 . S
C457 O456 1.182 . S
O458 Zn443 2.080 . S
O458 C461 1.310 . S
O459 Zn442 1.920 . S
O459 C461 1.227 1_556 S
C460 O446 1.305 . S
C460 O447 1.234 . S
C461 O458 1.310 . S
C461 O459 1.227 1_554 S
Zn462 O468 1.920 . S
Zn462 O474 1.898 . S
Zn462 O477 1.905 . S
Zn463 O471 1.905 . S
Zn463 O472 1.898 . S
Zn463 O480 1.920 . S
Zn464 O467 2.080 . S
Zn464 O470 2.114 . S
Zn464 O473 2.120 . S
Zn464 O475 2.120 . S
Zn464 O476 2.114 . S
Zn464 O479 2.080 . S
C465 O470 1.166 . S
C465 O471 1.182 . S
C466 O472 1.167 . S
C466 O473 1.299 . S
O467 Zn464 2.080 . S
O467 C481 1.305 . S
O468 Zn462 1.920 . S
O468 C481 1.234 . S
C469 O474 1.167 . S
C469 O475 1.299 . S
O470 Zn464 2.114 . S
O470 C465 1.166 . S
O471 Zn463 1.905 . S
O471 C465 1.182 . S
O472 Zn463 1.898 . S
O472 C466 1.167 . S
O473 Zn464 2.120 . S
O473 C466 1.299 . S
O474 Zn462 1.898 . S
O474 C469 1.167 . S
O475 Zn464 2.120 . S
O475 C469 1.299 . S
O476 Zn464 2.114 . S
O476 C478 1.166 . S
O477 Zn462 1.905 . S
O477 C478 1.182 . S
C478 O476 1.166 . S
C478 O477 1.182 . S
O479 Zn464 2.080 . S
O479 C482 1.305 . S
O480 Zn463 1.920 . S
O480 C482 1.234 . S
C481 O467 1.305 . S
C481 O468 1.234 . S
C482 O479 1.305 . S
C482 O480 1.234 . S
Zn483 O489 1.920 . S
Zn483 O495 1.898 . S
Zn483 O498 1.905 . S
Zn484 O492 1.905 . S
Zn484 O493 1.898 . S
Zn484 O501 1.920 . S
Zn485 O488 2.080 . S
Zn485 O491 2.114 . S
Zn485 O494 2.120 . S
Zn485 O496 2.120 . S
Zn485 O497 2.114 . S
Zn485 O500 2.080 . S
C486 O491 1.166 . S
C486 O492 1.182 . S
C487 O493 1.167 . S
C487 O494 1.299 . S
O488 Zn485 2.080 . S
O488 C502 1.305 . S
O489 Zn483 1.920 . S
O489 C502 1.234 . S
C490 O495 1.167 . S
C490 O496 1.299 . S
O491 Zn485 2.114 . S
O491 C486 1.166 . S
O492 Zn484 1.905 . S
O492 C486 1.182 . S
O493 Zn484 1.898 . S
O493 C487 1.167 . S
O494 Zn485 2.120 . S
O494 C487 1.299 . S
O495 Zn483 1.898 . S
O495 C490 1.167 . S
O496 Zn485 2.120 . S
O496 C490 1.299 . S
O497 Zn485 2.114 . S
O497 C499 1.166 . S
O498 Zn483 1.905 . S
O498 C499 1.182 . S
C499 O497 1.166 . S
C499 O498 1.182 . S
O500 Zn485 2.080 . S
O500 C503 1.305 . S
O501 Zn484 1.920 . S
O501 C503 1.234 . S
C502 O488 1.305 . S
C502 O489 1.234 . S
C503 O500 1.305 . S
C503 O501 1.234 . S
H504 C512 0.929 . S
H505 C514 0.930 . S
H506 C516 0.930 . S
H507 C519 0.929 . S
H508 C522 0.930 . S
H509 C524 0.960 . S
H510 C524 0.960 . S
H511 C524 0.960 . S
C512 H504 0.929 . S
C512 C513 1.377 . S
C512 C514 1.384 . S
C513 C512 1.377 . S
C513 C519 1.390 . S
C514 H505 0.930 . S
C514 C512 1.384 . S
C514 C515 1.372 . S
C515 C514 1.372 . S
C515 C516 1.400 . S
C515 C520 1.490 . S
C516 H506 0.930 . S
C516 C515 1.400 . S
C516 C519 1.386 . S
H517 C533 0.930 . S
H518 C534 0.931 . S
C519 H507 0.929 . S
C519 C513 1.390 . S
C519 C516 1.386 . S
C520 C515 1.490 . S
C520 C522 1.395 . S
C520 C523 1.403 . S
H521 C527 0.930 . S
C522 H508 0.930 . S
C522 C520 1.395 . S
C522 C525 1.403 . S
C523 C520 1.403 . S
C523 C524 1.524 . S
C523 C527 1.400 . S
C524 H509 0.960 . S
C524 H510 0.960 . S
C524 H511 0.960 . S
C524 C523 1.524 . S
C525 C522 1.403 . S
C525 C526 1.392 . S
C525 C529 1.495 . S
C526 C525 1.392 . S
C526 C527 1.385 . S
C526 C528 1.478 . S
C527 H521 0.930 . S
C527 C523 1.400 . S
C527 C526 1.385 . S
C528 C526 1.478 . S
C528 C530 1.381 . S
C528 C534 1.383 . S
C529 C525 1.495 . S
C529 H535 0.959 . S
C529 H536 0.961 . S
C529 H537 0.960 . S
C530 C528 1.381 . S
C530 C531 1.394 . S
C530 H538 0.930 . S
C531 C530 1.394 . S
C531 C532 1.383 . S
C531 H539 0.929 . S
C532 C531 1.383 . S
C532 C533 1.377 . S
C533 H517 0.930 . S
C533 C532 1.377 . S
C533 C534 1.379 . S
C534 H518 0.931 . S
C534 C528 1.383 . S
C534 C533 1.379 . S
H535 C529 0.959 . S
H536 C529 0.961 . S
H537 C529 0.960 . S
H538 C530 0.930 . S
H539 C531 0.929 . S
H540 C548 0.929 1_565 S
H541 C550 0.930 1_565 S
H542 C552 0.930 . S
H543 C555 0.929 . S
H544 C558 0.930 . S
H545 C560 0.960 . S
H546 C560 0.960 . S
H547 C560 0.960 1_545 S
C548 H540 0.929 1_545 S
C548 C549 1.377 . S
C548 C550 1.384 . S
C549 C548 1.377 . S
C549 C555 1.390 . S
C550 H541 0.930 1_545 S
C550 C548 1.384 . S
C550 C551 1.372 . S
C551 C550 1.372 . S
C551 C552 1.400 . S
C551 C556 1.490 . S
C552 H542 0.930 . S
C552 C551 1.400 . S
C552 C555 1.386 . S
H553 C569 0.930 . S
H554 C570 0.931 . S
C555 H543 0.929 . S
C555 C549 1.390 . S
C555 C552 1.386 . S
C556 C551 1.490 . S
C556 C558 1.395 . S
C556 C559 1.403 . S
H557 C563 0.930 . S
C558 H544 0.930 . S
C558 C556 1.395 . S
C558 C561 1.403 . S
C559 C556 1.403 . S
C559 C560 1.524 1_545 S
C559 C563 1.400 . S
C560 H545 0.960 . S
C560 H546 0.960 . S
C560 H547 0.960 1_565 S
C560 C559 1.524 1_565 S
C561 C558 1.403 . S
C561 C562 1.392 . S
C561 C565 1.495 . S
C562 C561 1.392 . S
C562 C563 1.385 . S
C562 C564 1.478 . S
C563 H557 0.930 . S
C563 C559 1.400 . S
C563 C562 1.385 . S
C564 C562 1.478 . S
C564 C566 1.381 . S
C564 C570 1.383 . S
C565 C561 1.495 . S
C565 H571 0.959 . S
C565 H572 0.961 . S
C565 H573 0.960 . S
C566 C564 1.381 . S
C566 C567 1.394 . S
C566 H574 0.930 . S
C567 C566 1.394 . S
C567 C568 1.383 . S
C567 H575 0.929 . S
C568 C567 1.383 . S
C568 C569 1.377 . S
C569 H553 0.930 . S
C569 C568 1.377 . S
C569 C570 1.379 . S
C570 H554 0.931 . S
C570 C564 1.383 . S
C570 C569 1.379 . S
H571 C565 0.959 . S
H572 C565 0.961 . S
H573 C565 0.960 . S
H574 C566 0.930 . S
H575 C567 0.929 . S
H576 C584 0.929 1_655 S
H577 C586 0.930 1_655 S
H578 C588 0.930 . S
H579 C591 0.929 . S
H580 C594 0.930 . S
H581 C596 0.960 . S
H582 C596 0.960 . S
H583 C596 0.960 . S
C584 H576 0.929 1_455 S
C584 C585 1.377 . S
C584 C586 1.384 . S
C585 C584 1.377 . S
C585 C591 1.390 . S
C586 H577 0.930 1_455 S
C586 C584 1.384 . S
C586 C587 1.372 . S
C587 C586 1.372 . S
C587 C588 1.400 . S
C587 C592 1.490 . S
C588 H578 0.930 . S
C588 C587 1.400 . S
C588 C591 1.386 . S
H589 C605 0.930 . S
H590 C606 0.931 . S
C591 H579 0.929 . S
C591 C585 1.390 . S
C591 C588 1.386 . S
C592 C587 1.490 . S
C592 C594 1.395 . S
C592 C595 1.403 1_455 S
H593 C599 0.930 . S
C594 H580 0.930 . S
C594 C592 1.395 . S
C594 C597 1.403 . S
C595 C592 1.403 1_655 S
C595 C596 1.524 . S
C595 C599 1.400 . S
C596 H581 0.960 . S
C596 H582 0.960 . S
C596 H583 0.960 . S
C596 C595 1.524 . S
C597 C594 1.403 . S
C597 C598 1.392 . S
C597 C601 1.495 . S
C598 C597 1.392 . S
C598 C599 1.385 1_455 S
C598 C600 1.478 . S
C599 H593 0.930 . S
C599 C595 1.400 . S
C599 C598 1.385 1_655 S
C600 C598 1.478 . S
C600 C602 1.381 1_455 S
C600 C606 1.383 . S
C601 C597 1.495 . S
C601 H607 0.959 . S
C601 H608 0.961 . S
C601 H609 0.960 . S
C602 C600 1.381 1_655 S
C602 C603 1.394 . S
C602 H610 0.930 . S
C603 C602 1.394 . S
C603 C604 1.383 1_655 S
C603 H611 0.929 . S
C604 C603 1.383 1_455 S
C604 C605 1.377 . S
C605 H589 0.930 . S
C605 C604 1.377 . S
C605 C606 1.379 . S
C606 H590 0.931 . S
C606 C600 1.383 . S
C606 C605 1.379 . S
H607 C601 0.959 . S
H608 C601 0.961 . S
H609 C601 0.960 . S
H610 C602 0.930 . S
H611 C603 0.929 . S
H612 C620 0.929 . S
H613 C622 0.930 . S
H614 C624 0.930 . S
H615 C627 0.929 . S
H616 C630 0.930 . S
H617 C632 0.960 . S
H618 C632 0.960 . S
H619 C632 0.960 . S
C620 H612 0.929 . S
C620 C621 1.377 . S
C620 C622 1.384 . S
C621 C620 1.377 . S
C621 C627 1.390 . S
C622 H613 0.930 . S
C622 C620 1.384 . S
C622 C623 1.372 . S
C623 C622 1.372 . S
C623 C624 1.400 . S
C623 C628 1.490 . S
C624 H614 0.930 . S
C624 C623 1.400 . S
C624 C627 1.386 . S
H625 C641 0.930 . S
H626 C642 0.931 . S
C627 H615 0.929 . S
C627 C621 1.390 . S
C627 C624 1.386 . S
C628 C623 1.490 . S
C628 C630 1.395 . S
C628 C631 1.403 . S
H629 C635 0.930 . S
C630 H616 0.930 . S
C630 C628 1.395 . S
C630 C633 1.403 . S
C631 C628 1.403 . S
C631 C632 1.524 . S
C631 C635 1.400 . S
C632 H617 0.960 . S
C632 H618 0.960 . S
C632 H619 0.960 . S
C632 C631 1.524 . S
C633 C630 1.403 . S
C633 C634 1.392 . S
C633 C637 1.495 . S
C634 C633 1.392 . S
C634 C635 1.385 . S
C634 C636 1.478 . S
C635 H629 0.930 . S
C635 C631 1.400 . S
C635 C634 1.385 . S
C636 C634 1.478 . S
C636 C638 1.381 . S
C636 C642 1.383 . S
C637 C633 1.495 . S
C637 H643 0.959 . S
C637 H644 0.961 . S
C637 H645 0.960 . S
C638 C636 1.381 . S
C638 C639 1.394 . S
C638 H646 0.930 . S
C639 C638 1.394 . S
C639 C640 1.383 . S
C639 H647 0.929 . S
C640 C639 1.383 . S
C640 C641 1.377 . S
C641 H625 0.930 . S
C641 C640 1.377 . S
C641 C642 1.379 . S
C642 H626 0.931 . S
C642 C636 1.383 . S
C642 C641 1.379 . S
H643 C637 0.959 . S
H644 C637 0.961 . S
H645 C637 0.960 . S
H646 C638 0.930 . S
H647 C639 0.929 . S
H648 C656 0.929 . S
H649 C658 0.930 . S
H650 C660 0.930 . S
H651 C663 0.929 . S
H652 C666 0.930 . S
H653 C668 0.960 . S
H654 C668 0.960 . S
H655 C668 0.960 . S
C656 H648 0.929 . S
C656 C657 1.377 1_565 S
C656 C658 1.384 . S
C657 C656 1.377 1_545 S
C657 C663 1.390 . S
C658 H649 0.930 . S
C658 C656 1.384 . S
C658 C659 1.372 1_565 S
C659 C658 1.372 1_545 S
C659 C660 1.400 . S
C659 C664 1.490 . S
C660 H650 0.930 . S
C660 C659 1.400 . S
C660 C663 1.386 . S
H661 C677 0.930 . S
H662 C678 0.931 . S
C663 H651 0.929 . S
C663 C657 1.390 . S
C663 C660 1.386 . S
C664 C659 1.490 . S
C664 C666 1.395 . S
C664 C667 1.403 . S
H665 C671 0.930 . S
C666 H652 0.930 . S
C666 C664 1.395 . S
C666 C669 1.403 . S
C667 C664 1.403 . S
C667 C668 1.524 . S
C667 C671 1.400 . S
C668 H653 0.960 . S
C668 H654 0.960 . S
C668 H655 0.960 . S
C668 C667 1.524 . S
C669 C666 1.403 . S
C669 C670 1.392 . S
C669 C673 1.495 . S
C670 C669 1.392 . S
C670 C671 1.385 . S
C670 C672 1.478 . S
C671 H665 0.930 . S
C671 C667 1.400 . S
C671 C670 1.385 . S
C672 C670 1.478 . S
C672 C674 1.381 1_545 S
C672 C678 1.383 . S
C673 C669 1.495 . S
C673 H679 0.959 . S
C673 H680 0.961 . S
C673 H681 0.960 1_545 S
C674 C672 1.381 1_565 S
C674 C675 1.394 . S
C674 H682 0.930 . S
C675 C674 1.394 . S
C675 C676 1.383 1_565 S
C675 H683 0.929 . S
C676 C675 1.383 1_545 S
C676 C677 1.377 . S
C677 H661 0.930 . S
C677 C676 1.377 . S
C677 C678 1.379 . S
C678 H662 0.931 . S
C678 C672 1.383 . S
C678 C677 1.379 . S
H679 C673 0.959 . S
H680 C673 0.961 . S
H681 C673 0.960 1_565 S
H682 C674 0.930 . S
H683 C675 0.929 . S
H684 C692 0.929 . S
H685 C694 0.930 . S
H686 C696 0.930 . S
H687 C699 0.929 . S
H688 C702 0.930 . S
H689 C704 0.960 . S
H690 C704 0.960 . S
H691 C704 0.960 . S
C692 H684 0.929 . S
C692 C693 1.377 1_655 S
C692 C694 1.384 . S
C693 C692 1.377 1_455 S
C693 C699 1.390 . S
C694 H685 0.930 . S
C694 C692 1.384 . S
C694 C695 1.372 1_655 S
C695 C694 1.372 1_455 S
C695 C696 1.400 . S
C695 C700 1.490 . S
C696 H686 0.930 . S
C696 C695 1.400 . S
C696 C699 1.386 . S
H697 C713 0.930 . S
H698 C714 0.931 . S
C699 H687 0.929 . S
C699 C693 1.390 . S
C699 C696 1.386 . S
C700 C695 1.490 . S
C700 C702 1.395 1_455 S
C700 C703 1.403 . S
H701 C707 0.930 . S
C702 H688 0.930 . S
C702 C700 1.395 1_655 S
C702 C705 1.403 . S
C703 C700 1.403 . S
C703 C704 1.524 . S
C703 C707 1.400 . S
C704 H689 0.960 . S
C704 H690 0.960 . S
C704 H691 0.960 . S
C704 C703 1.524 . S
C705 C702 1.403 . S
C705 C706 1.392 1_655 S
C705 C709 1.495 . S
C706 C705 1.392 1_455 S
C706 C707 1.385 . S
C706 C708 1.478 . S
C707 H701 0.930 . S
C707 C703 1.400 . S
C707 C706 1.385 . S
C708 C706 1.478 . S
C708 C710 1.381 1_455 S
C708 C714 1.383 . S
C709 C705 1.495 . S
C709 H715 0.959 . S
C709 H716 0.961 . S
C709 H717 0.960 . S
C710 C708 1.381 1_655 S
C710 C711 1.394 1_655 S
C710 H718 0.930 . S
C711 C710 1.394 1_455 S
C711 C712 1.383 . S
C711 H719 0.929 1_455 S
C712 C711 1.383 . S
C712 C713 1.377 . S
C713 H697 0.930 . S
C713 C712 1.377 . S
C713 C714 1.379 . S
C714 H698 0.931 . S
C714 C708 1.383 . S
C714 C713 1.379 . S
H715 C709 0.959 . S
H716 C709 0.961 . S
H717 C709 0.960 . S
H718 C710 0.930 . S
H719 C711 0.929 1_655 S
H720 C728 0.929 . S
H721 C730 0.930 . S
H722 C732 0.930 . S
H723 C735 0.929 . S
H724 C738 0.930 . S
H725 C740 0.960 . S
H726 C740 0.960 . S
H727 C740 0.960 . S
C728 H720 0.929 . S
C728 C729 1.377 . S
C728 C730 1.384 . S
C729 C728 1.377 . S
C729 C735 1.390 . S
C730 H721 0.930 . S
C730 C728 1.384 . S
C730 C731 1.372 . S
C731 C730 1.372 . S
C731 C732 1.400 . S
C731 C736 1.490 . S
C732 H722 0.930 . S
C732 C731 1.400 . S
C732 C735 1.386 . S
H733 C749 0.930 . S
H734 C750 0.931 . S
C735 H723 0.929 . S
C735 C729 1.390 . S
C735 C732 1.386 . S
C736 C731 1.490 . S
C736 C738 1.395 . S
C736 C739 1.403 . S
H737 C743 0.930 . S
C738 H724 0.930 . S
C738 C736 1.395 . S
C738 C741 1.403 . S
C739 C736 1.403 . S
C739 C740 1.524 . S
C739 C743 1.400 . S
C740 H725 0.960 . S
C740 H726 0.960 . S
C740 H727 0.960 . S
C740 C739 1.524 . S
C741 C738 1.403 . S
C741 C742 1.392 . S
C741 C745 1.495 . S
C742 C741 1.392 . S
C742 C743 1.385 . S
C742 C744 1.478 . S
C743 H737 0.930 . S
C743 C739 1.400 . S
C743 C742 1.385 . S
C744 C742 1.478 . S
C744 C746 1.381 . S
C744 C750 1.383 . S
C745 C741 1.495 . S
C745 H751 0.959 . S
C745 H752 0.961 . S
C745 H753 0.960 . S
C746 C744 1.381 . S
C746 C747 1.394 . S
C746 H754 0.930 . S
C747 C746 1.394 . S
C747 C748 1.383 . S
C747 H755 0.929 . S
C748 C747 1.383 . S
C748 C749 1.377 . S
C749 H733 0.930 . S
C749 C748 1.377 . S
C749 C750 1.379 . S
C750 H734 0.931 . S
C750 C744 1.383 . S
C750 C749 1.379 . S
H751 C745 0.959 . S
H752 C745 0.961 . S
H753 C745 0.960 . S
H754 C746 0.930 . S
H755 C747 0.929 . S
H756 C764 0.929 . S
H757 C766 0.930 . S
H758 C768 0.930 . S
H759 C771 0.966 . S
H760 C774 0.930 . S
H761 C776 0.960 . S
H762 C776 0.960 . S
H763 C776 0.999 . S
C764 H756 0.929 . S
C764 C765 1.377 . S
C764 C766 1.384 . S
C765 C764 1.377 . S
C765 C771 1.366 1_545 S
C766 H757 0.930 . S
C766 C764 1.384 . S
C766 C767 1.372 . S
C767 C766 1.372 . S
C767 C768 1.400 1_545 S
C767 C772 1.490 . S
C768 H758 0.930 . S
C768 C767 1.400 1_565 S
C768 C771 1.374 . S
H769 C785 0.930 . S
H770 C786 0.931 . S
C771 H759 0.966 . S
C771 C765 1.366 1_565 S
C771 C768 1.374 . S
C772 C767 1.490 . S
C772 C774 1.395 . S
C772 C775 1.403 . S
H773 C779 0.930 . S
C774 H760 0.930 . S
C774 C772 1.395 . S
C774 C777 1.403 . S
C775 C772 1.403 . S
C775 C776 1.524 . S
C775 C779 1.400 . S
C776 H761 0.960 . S
C776 H762 0.960 . S
C776 H763 0.999 . S
C776 C775 1.524 . S
C777 C774 1.403 . S
C777 C778 1.392 . S
C777 C781 1.495 . S
C778 C777 1.392 . S
C778 C779 1.385 . S
C778 C780 1.478 . S
C779 H773 0.930 . S
C779 C775 1.400 . S
C779 C778 1.385 . S
C780 C778 1.478 . S
C780 C782 1.381 . S
C780 C786 1.383 1_545 S
C781 C777 1.495 . S
C781 H787 0.959 . S
C781 H788 0.961 . S
C781 H789 0.960 . S
C782 C780 1.381 . S
C782 C783 1.394 . S
C782 H790 0.930 . S
C783 C782 1.394 . S
C783 C784 1.383 . S
C783 H791 0.929 . S
C784 C783 1.383 . S
C784 C785 1.377 1_545 S
C785 H769 0.930 . S
C785 C784 1.377 1_565 S
C785 C786 1.379 . S
C786 H770 0.931 . S
C786 C780 1.383 1_565 S
C786 C785 1.379 . S
H787 C781 0.959 . S
H788 C781 0.961 . S
H789 C781 0.960 . S
H790 C782 0.930 . S
H791 C783 0.929 . S
H792 C800 0.929 . S
H793 C802 0.930 . S
H794 C804 0.930 . S
H795 C807 0.929 . S
H796 C810 0.947 . S
H797 C812 0.960 . S
H798 C812 0.960 . S
H799 C812 0.960 . S
C800 H792 0.929 . S
C800 C801 1.377 1_655 S
C800 C802 1.384 . S
C801 C800 1.377 1_455 S
C801 C807 1.390 . S
C802 H793 0.930 . S
C802 C800 1.384 . S
C802 C803 1.372 1_655 S
C803 C802 1.372 1_455 S
C803 C804 1.400 . S
C803 C808 1.490 . S
C804 H794 0.930 . S
C804 C803 1.400 . S
C804 C807 1.386 . S
H805 C821 0.930 . S
H806 C822 0.931 . S
C807 H795 0.929 . S
C807 C801 1.390 . S
C807 C804 1.386 . S
C808 C803 1.490 . S
C808 C810 1.391 1_455 S
C808 C811 1.403 . S
H809 C815 0.930 . S
C810 H796 0.947 . S
C810 C808 1.391 1_655 S
C810 C813 1.399 . S
C811 C808 1.403 . S
C811 C812 1.524 . S
C811 C815 1.400 . S
C812 H797 0.960 . S
C812 H798 0.960 . S
C812 H799 0.960 . S
C812 C811 1.524 . S
C813 C810 1.399 . S
C813 C814 1.382 1_655 S
C813 C817 1.498 . S
C814 C813 1.382 1_455 S
C814 C815 1.385 . S
C814 C816 1.478 . S
C815 H809 0.930 . S
C815 C811 1.400 . S
C815 C814 1.385 . S
C816 C814 1.478 . S
C816 C818 1.381 1_455 S
C816 C822 1.383 . S
C817 C813 1.498 . S
C817 H823 0.959 . S
C817 H824 0.961 . S
C817 H825 0.960 . S
C818 C816 1.381 1_655 S
C818 C819 1.394 1_655 S
C818 H826 0.930 . S
C819 C818 1.394 1_455 S
C819 C820 1.383 . S
C819 H827 0.929 1_455 S
C820 C819 1.383 . S
C820 C821 1.377 . S
C821 H805 0.930 . S
C821 C820 1.377 . S
C821 C822 1.379 . S
C822 H806 0.931 . S
C822 C816 1.383 . S
C822 C821 1.379 . S
H823 C817 0.959 . S
H824 C817 0.961 . S
H825 C817 0.960 . S
H826 C818 0.930 . S
H827 C819 0.929 1_655 S
H828 C836 0.929 . S
H829 C838 0.930 . S
H830 C840 0.930 . S
H831 C843 0.929 . S
H832 C846 0.930 . S
H833 C848 0.960 . S
H834 C848 0.960 . S
H835 C848 0.960 . S
C836 H828 0.929 . S
C836 C837 1.377 . S
C836 C838 1.384 . S
C837 C836 1.377 . S
C837 C843 1.390 . S
C838 H829 0.930 . S
C838 C836 1.384 . S
C838 C839 1.372 . S
C839 C838 1.372 . S
C839 C840 1.400 . S
C839 C844 1.490 . S
C840 H830 0.930 . S
C840 C839 1.400 . S
C840 C843 1.386 . S
H841 C857 0.930 . S
H842 C858 0.931 . S
C843 H831 0.929 . S
C843 C837 1.390 . S
C843 C840 1.386 . S
C844 C839 1.490 . S
C844 C846 1.395 . S
C844 C847 1.403 . S
H845 C851 0.930 . S
C846 H832 0.930 . S
C846 C844 1.395 . S
C846 C849 1.403 . S
C847 C844 1.403 . S
C847 C848 1.524 . S
C847 C851 1.400 . S
C848 H833 0.960 . S
C848 H834 0.960 . S
C848 H835 0.960 . S
C848 C847 1.524 . S
C849 C846 1.403 . S
C849 C850 1.392 . S
C849 C853 1.495 . S
C850 C849 1.392 . S
C850 C851 1.385 . S
C850 C852 1.478 . S
C851 H845 0.930 . S
C851 C847 1.400 . S
C851 C850 1.385 . S
C852 C850 1.478 . S
C852 C854 1.381 . S
C852 C858 1.383 . S
C853 C849 1.495 . S
C853 H859 0.959 . S
C853 H860 0.961 . S
C853 H861 0.960 . S
C854 C852 1.381 . S
C854 C855 1.394 . S
C854 H862 0.930 . S
C855 C854 1.394 . S
C855 C856 1.383 . S
C855 H863 0.929 . S
C856 C855 1.383 . S
C856 C857 1.377 . S
C857 H841 0.930 . S
C857 C856 1.377 . S
C857 C858 1.379 . S
C858 H842 0.931 . S
C858 C852 1.383 . S
C858 C857 1.379 . S
H859 C853 0.959 . S
H860 C853 0.961 . S
H861 C853 0.960 . S
H862 C854 0.930 . S
H863 C855 0.929 . S
H864 C872 0.929 . S
H865 C874 0.930 . S
H866 C876 0.930 . S
H867 C879 0.929 . S
H868 C882 0.930 . S
H869 C884 0.960 . S
H870 C884 0.960 . S
H871 C884 0.960 . S
C872 H864 0.929 . S
C872 C873 1.377 1_565 S
C872 C874 1.384 . S
C873 C872 1.377 1_545 S
C873 C879 1.390 . S
C874 H865 0.930 . S
C874 C872 1.384 . S
C874 C875 1.372 1_565 S
C875 C874 1.372 1_545 S
C875 C876 1.400 . S
C875 C880 1.490 . S
C876 H866 0.930 . S
C876 C875 1.400 . S
C876 C879 1.386 . S
H877 C893 0.930 . S
H878 C894 0.931 . S
C879 H867 0.929 . S
C879 C873 1.390 . S
C879 C876 1.386 . S
C880 C875 1.490 . S
C880 C882 1.395 . S
C880 C883 1.403 . S
H881 C887 0.930 . S
C882 H868 0.930 . S
C882 C880 1.395 . S
C882 C885 1.403 . S
C883 C880 1.403 . S
C883 C884 1.524 . S
C883 C887 1.400 . S
C884 H869 0.960 . S
C884 H870 0.960 . S
C884 H871 0.960 . S
C884 C883 1.524 . S
C885 C882 1.403 . S
C885 C886 1.392 . S
C885 C889 1.495 . S
C886 C885 1.392 . S
C886 C887 1.385 . S
C886 C888 1.478 . S
C887 H881 0.930 . S
C887 C883 1.400 . S
C887 C886 1.385 . S
C888 C886 1.478 . S
C888 C890 1.381 . S
C888 C894 1.383 . S
C889 C885 1.495 . S
C889 H895 0.959 . S
C889 H896 0.961 . S
C889 H897 0.960 . S
C890 C888 1.381 . S
C890 C891 1.394 . S
C890 H898 0.930 1_545 S
C891 C890 1.394 . S
C891 C892 1.383 . S
C891 H899 0.929 1_545 S
C892 C891 1.383 . S
C892 C893 1.377 . S
C893 H877 0.930 . S
C893 C892 1.377 . S
C893 C894 1.379 . S
C894 H878 0.931 . S
C894 C888 1.383 . S
C894 C893 1.379 . S
H895 C889 0.959 . S
H896 C889 0.961 . S
H897 C889 0.960 . S
H898 C890 0.930 1_565 S
H899 C891 0.929 1_565 S
H900 C908 0.929 . S
H901 C910 0.930 . S
H902 C912 0.930 1_655 S
H903 C915 0.929 . S
H904 C918 0.930 . S
H905 C920 0.960 . S
H906 C920 0.960 . S
H907 C920 0.960 . S
C908 H900 0.929 . S
C908 C909 1.377 . S
C908 C910 1.384 . S
C909 C908 1.377 . S
C909 C915 1.390 . S
C910 H901 0.930 . S
C910 C908 1.384 . S
C910 C911 1.372 . S
C911 C910 1.372 . S
C911 C912 1.400 . S
C911 C916 1.490 . S
C912 H902 0.930 1_455 S
C912 C911 1.400 . S
C912 C915 1.386 . S
H913 C929 0.930 1_655 S
H914 C930 0.933 . S
C915 H903 0.929 . S
C915 C909 1.390 . S
C915 C912 1.386 . S
C916 C911 1.490 . S
C916 C918 1.395 . S
C916 C919 1.403 1_455 S
H917 C923 0.930 . S
C918 H904 0.930 . S
C918 C916 1.395 . S
C918 C921 1.403 . S
C919 C916 1.403 1_655 S
C919 C920 1.524 . S
C919 C923 1.400 . S
C920 H905 0.960 . S
C920 H906 0.960 . S
C920 H907 0.960 . S
C920 C919 1.524 . S
C921 C918 1.403 . S
C921 C922 1.392 . S
C921 C925 1.495 . S
C922 C921 1.392 . S
C922 C923 1.385 1_455 S
C922 C924 1.478 . S
C923 H917 0.930 . S
C923 C919 1.400 . S
C923 C922 1.385 1_655 S
C924 C922 1.478 . S
C924 C926 1.381 . S
C924 C930 1.383 . S
C925 C921 1.495 . S
C925 H931 0.959 . S
C925 H932 0.961 . S
C925 H933 0.960 . S
C926 C924 1.381 . S
C926 C927 1.394 . S
C926 H934 0.930 . S
C927 C926 1.394 . S
C927 C928 1.383 . S
C927 H935 0.929 . S
C928 C927 1.383 . S
C928 C929 1.377 . S
C929 H913 0.930 1_455 S
C929 C928 1.377 . S
C929 C930 1.379 . S
C930 H914 0.933 . S
C930 C924 1.383 . S
C930 C929 1.379 . S
H931 C925 0.959 . S
H932 C925 0.961 . S
H933 C925 0.960 . S
H934 C926 0.930 . S
H935 C927 0.929 . S
H936 C944 0.929 . S
H937 C946 0.930 . S
H938 C948 0.930 . S
H939 C951 0.929 . S
H940 C954 0.930 . S
H941 C956 0.960 . S
H942 C956 0.960 . S
H943 C956 0.960 . S
C944 H936 0.929 . S
C944 C945 1.377 . S
C944 C946 1.384 . S
C945 C944 1.377 . S
C945 C951 1.390 . S
C946 H937 0.930 . S
C946 C944 1.384 . S
C946 C947 1.372 . S
C947 C946 1.372 . S
C947 C948 1.400 . S
C947 C952 1.490 . S
C948 H938 0.930 . S
C948 C947 1.400 . S
C948 C951 1.386 . S
H949 C965 0.930 . S
H950 C966 0.931 . S
C951 H939 0.929 . S
C951 C945 1.390 . S
C951 C948 1.386 . S
C952 C947 1.490 . S
C952 C954 1.395 . S
C952 C955 1.403 . S
H953 C959 0.930 . S
C954 H940 0.930 . S
C954 C952 1.395 . S
C954 C957 1.403 . S
C955 C952 1.403 . S
C955 C956 1.524 . S
C955 C959 1.400 . S
C956 H941 0.960 . S
C956 H942 0.960 . S
C956 H943 0.960 . S
C956 C955 1.524 . S
C957 C954 1.403 . S
C957 C958 1.392 . S
C957 C961 1.495 . S
C958 C957 1.392 . S
C958 C959 1.385 . S
C958 C960 1.478 . S
C959 H953 0.930 . S
C959 C955 1.400 . S
C959 C958 1.385 . S
C960 C958 1.478 . S
C960 C962 1.381 . S
C960 C966 1.383 . S
C961 C957 1.495 . S
C961 H967 0.959 . S
C961 H968 0.961 . S
C961 H969 0.960 . S
C962 C960 1.381 . S
C962 C963 1.394 . S
C962 H970 0.930 . S
C963 C962 1.394 . S
C963 C964 1.383 . S
C963 H971 0.929 . S
C964 C963 1.383 . S
C964 C965 1.377 . S
C965 H949 0.930 . S
C965 C964 1.377 . S
C965 C966 1.379 . S
C966 H950 0.931 . S
C966 C960 1.383 . S
C966 C965 1.379 . S
H967 C961 0.959 . S
H968 C961 0.961 . S
H969 C961 0.960 . S
H970 C962 0.930 . S
H971 C963 0.929 . S
H972 C980 0.929 . S
H973 C982 0.930 . S
H974 C984 0.930 . S
H975 C987 0.929 . S
H976 C990 0.930 . S
H977 C992 0.960 . S
H978 C992 0.960 . S
H979 C992 0.960 . S
C980 H972 0.929 . S
C980 C981 1.377 . S
C980 C982 1.384 . S
C981 C980 1.377 . S
C981 C987 1.390 . S
C982 H973 0.930 . S
C982 C980 1.384 . S
C982 C983 1.372 . S
C983 C982 1.372 . S
C983 C984 1.400 . S
C983 C988 1.490 . S
C984 H974 0.930 . S
C984 C983 1.400 . S
C984 C987 1.386 . S
H985 C1001 0.930 . S
H986 C1002 0.931 . S
C987 H975 0.929 . S
C987 C981 1.390 . S
C987 C984 1.386 . S
C988 C983 1.490 . S
C988 C990 1.395 . S
C988 C991 1.403 . S
H989 C995 0.930 . S
C990 H976 0.930 . S
C990 C988 1.395 . S
C990 C993 1.403 . S
C991 C988 1.403 . S
C991 C992 1.524 . S
C991 C995 1.400 . S
C992 H977 0.960 . S
C992 H978 0.960 . S
C992 H979 0.960 . S
C992 C991 1.524 . S
C993 C990 1.403 . S
C993 C994 1.392 . S
C993 C997 1.495 . S
C994 C993 1.392 . S
C994 C995 1.385 . S
C994 C996 1.478 . S
C995 H989 0.930 . S
C995 C991 1.400 . S
C995 C994 1.385 . S
C996 C994 1.478 . S
C996 C998 1.381 . S
C996 C1002 1.383 . S
C997 C993 1.495 . S
C997 H1003 0.959 . S
C997 H1004 0.961 . S
C997 H1005 0.960 . S
C998 C996 1.381 . S
C998 C999 1.394 . S
C998 H1006 0.930 . S
C999 C998 1.394 . S
C999 C1000 1.383 . S
C999 H1007 0.929 . S
C1000 C999 1.383 . S
C1000 C1001 1.377 . S
C1001 H985 0.930 . S
C1001 C1000 1.377 . S
C1001 C1002 1.379 . S
C1002 H986 0.931 . S
C1002 C996 1.383 . S
C1002 C1001 1.379 . S
H1003 C997 0.959 . S
H1004 C997 0.961 . S
H1005 C997 0.960 . S
H1006 C998 0.930 . S
H1007 C999 0.929 . S
H1008 C1016 0.929 . S
H1009 C1018 0.930 . S
H1010 C1020 0.930 . S
H1011 C1023 0.929 . S
H1012 C1026 0.930 . S
H1013 C1028 0.960 . S
H1014 C1028 0.960 . S
H1015 C1028 0.960 . S
C1016 H1008 0.929 . S
C1016 C1017 1.377 . S
C1016 C1018 1.384 . S
C1017 C1016 1.377 . S
C1017 C1023 1.390 . S
C1018 H1009 0.930 . S
C1018 C1016 1.384 . S
C1018 C1019 1.372 . S
C1019 C1018 1.372 . S
C1019 C1020 1.400 . S
C1019 C1024 1.490 . S
C1020 H1010 0.930 . S
C1020 C1019 1.400 . S
C1020 C1023 1.386 . S
H1021 C1037 0.930 . S
H1022 C1038 0.931 . S
C1023 H1011 0.929 . S
C1023 C1017 1.390 . S
C1023 C1020 1.386 . S
C1024 C1019 1.490 . S
C1024 C1026 1.395 . S
C1024 C1027 1.403 . S
H1025 C1031 0.930 . S
C1026 H1012 0.930 . S
C1026 C1024 1.395 . S
C1026 C1029 1.403 . S
C1027 C1024 1.403 . S
C1027 C1028 1.524 . S
C1027 C1031 1.400 . S
C1028 H1013 0.960 . S
C1028 H1014 0.960 . S
C1028 H1015 0.960 . S
C1028 C1027 1.524 . S
C1029 C1026 1.403 . S
C1029 C1030 1.392 . S
C1029 C1033 1.495 . S
C1030 C1029 1.392 . S
C1030 C1031 1.385 . S
C1030 C1032 1.478 . S
C1031 H1025 0.930 . S
C1031 C1027 1.400 . S
C1031 C1030 1.385 . S
C1032 C1030 1.478 . S
C1032 C1034 1.381 . S
C1032 C1038 1.383 . S
C1033 C1029 1.495 . S
C1033 H1039 0.959 . S
C1033 H1040 0.961 . S
C1033 H1041 0.960 . S
C1034 C1032 1.381 . S
C1034 C1035 1.394 . S
C1034 H1042 0.930 . S
C1035 C1034 1.394 . S
C1035 C1036 1.383 . S
C1035 H1043 0.929 . S
C1036 C1035 1.383 . S
C1036 C1037 1.377 . S
C1037 H1021 0.930 . S
C1037 C1036 1.377 . S
C1037 C1038 1.379 . S
C1038 H1022 0.931 . S
C1038 C1032 1.383 . S
C1038 C1037 1.379 . S
H1039 C1033 0.959 . S
H1040 C1033 0.961 . S
H1041 C1033 0.960 . S
H1042 C1034 0.930 . S
H1043 C1035 0.929 . S
H1044 C1052 0.929 . S
H1045 C1054 0.930 . S
H1046 C1056 0.930 . S
H1047 C1059 0.929 . S
H1048 C1062 0.930 . S
H1049 C1064 0.960 . S
H1050 C1064 0.960 . S
H1051 C1064 0.960 . S
C1052 H1044 0.929 . S
C1052 C1053 1.377 . S
C1052 C1054 1.384 . S
C1053 C1052 1.377 . S
C1053 C1059 1.390 . S
C1054 H1045 0.930 . S
C1054 C1052 1.384 . S
C1054 C1055 1.372 . S
C1055 C1054 1.372 . S
C1055 C1056 1.400 . S
C1055 C1060 1.490 . S
C1056 H1046 0.930 . S
C1056 C1055 1.400 . S
C1056 C1059 1.386 . S
H1057 C1073 0.930 . S
H1058 C1074 0.931 . S
C1059 H1047 0.929 . S
C1059 C1053 1.390 . S
C1059 C1056 1.386 . S
C1060 C1055 1.490 . S
C1060 C1062 1.395 . S
C1060 C1063 1.403 . S
H1061 C1067 0.930 . S
C1062 H1048 0.930 . S
C1062 C1060 1.395 . S
C1062 C1065 1.403 . S
C1063 C1060 1.403 . S
C1063 C1064 1.524 . S
C1063 C1067 1.400 . S
C1064 H1049 0.960 . S
C1064 H1050 0.960 . S
C1064 H1051 0.960 . S
C1064 C1063 1.524 . S
C1065 C1062 1.403 . S
C1065 C1066 1.392 . S
C1065 C1069 1.495 . S
C1066 C1065 1.392 . S
C1066 C1067 1.385 . S
C1066 C1068 1.478 . S
C1067 H1061 0.930 . S
C1067 C1063 1.400 . S
C1067 C1066 1.385 . S
C1068 C1066 1.478 . S
C1068 C1070 1.381 . S
C1068 C1074 1.383 . S
C1069 C1065 1.495 . S
C1069 H1075 0.959 . S
C1069 H1076 0.961 . S
C1069 H1077 0.960 . S
C1070 C1068 1.381 . S
C1070 C1071 1.394 . S
C1070 H1078 0.930 . S
C1071 C1070 1.394 . S
C1071 C1072 1.383 . S
C1071 H1079 0.929 . S
C1072 C1071 1.383 . S
C1072 C1073 1.377 . S
C1073 H1057 0.930 . S
C1073 C1072 1.377 . S
C1073 C1074 1.379 . S
C1074 H1058 0.931 . S
C1074 C1068 1.383 . S
C1074 C1073 1.379 . S
H1075 C1069 0.959 . S
H1076 C1069 0.961 . S
H1077 C1069 0.960 . S
H1078 C1070 0.930 . S
H1079 C1071 0.929 . S
H1080 C1088 0.929 . S
H1081 C1090 0.930 . S
H1082 C1092 0.930 . S
H1083 C1095 0.929 . S
H1084 C1098 0.930 . S
H1085 C1100 0.960 . S
H1086 C1100 0.960 . S
H1087 C1100 0.960 . S
C1088 H1080 0.929 . S
C1088 C1089 1.377 . S
C1088 C1090 1.384 . S
C1089 C1088 1.377 . S
C1089 C1095 1.390 . S
C1090 H1081 0.930 . S
C1090 C1088 1.384 . S
C1090 C1091 1.372 . S
C1091 C1090 1.372 . S
C1091 C1092 1.400 . S
C1091 C1096 1.490 . S
C1092 H1082 0.930 . S
C1092 C1091 1.400 . S
C1092 C1095 1.386 . S
H1093 C1109 0.930 . S
H1094 C1110 0.931 . S
C1095 H1083 0.929 . S
C1095 C1089 1.390 . S
C1095 C1092 1.386 . S
C1096 C1091 1.490 . S
C1096 C1098 1.395 . S
C1096 C1099 1.403 . S
H1097 C1103 0.930 . S
C1098 H1084 0.930 . S
C1098 C1096 1.395 . S
C1098 C1101 1.403 . S
C1099 C1096 1.403 . S
C1099 C1100 1.524 . S
C1099 C1103 1.400 . S
C1100 H1085 0.960 . S
C1100 H1086 0.960 . S
C1100 H1087 0.960 . S
C1100 C1099 1.524 . S
C1101 C1098 1.403 . S
C1101 C1102 1.392 . S
C1101 C1105 1.495 . S
C1102 C1101 1.392 . S
C1102 C1103 1.385 . S
C1102 C1104 1.478 . S
C1103 H1097 0.930 . S
C1103 C1099 1.400 . S
C1103 C1102 1.385 . S
C1104 C1102 1.478 . S
C1104 C1106 1.381 . S
C1104 C1110 1.383 . S
C1105 C1101 1.495 . S
C1105 H1111 0.959 . S
C1105 H1112 0.961 . S
C1105 H1113 0.960 . S
C1106 C1104 1.381 . S
C1106 C1107 1.394 . S
C1106 H1114 0.930 . S
C1107 C1106 1.394 . S
C1107 C1108 1.383 . S
C1107 H1115 0.929 . S
C1108 C1107 1.383 . S
C1108 C1109 1.377 . S
C1109 H1093 0.930 . S
C1109 C1108 1.377 . S
C1109 C1110 1.379 . S
C1110 H1094 0.931 . S
C1110 C1104 1.383 . S
C1110 C1109 1.379 . S
H1111 C1105 0.959 . S
H1112 C1105 0.961 . S
H1113 C1105 0.960 . S
H1114 C1106 0.930 . S
H1115 C1107 0.929 . S
H1116 C1124 0.929 . S
H1117 C1126 0.930 . S
H1118 C1128 0.930 . S
H1119 C1131 0.929 . S
H1120 C1134 0.930 . S
H1121 C1136 0.960 . S
H1122 C1136 0.960 . S
H1123 C1136 0.960 . S
C1124 H1116 0.929 . S
C1124 C1125 1.377 . S
C1124 C1126 1.384 . S
C1125 C1124 1.377 . S
C1125 C1131 1.390 . S
C1126 H1117 0.930 . S
C1126 C1124 1.384 . S
C1126 C1127 1.372 . S
C1127 C1126 1.372 . S
C1127 C1128 1.400 . S
C1127 C1132 1.490 . S
C1128 H1118 0.930 . S
C1128 C1127 1.400 . S
C1128 C1131 1.386 . S
H1129 C1145 0.930 . S
H1130 C1146 0.931 . S
C1131 H1119 0.929 . S
C1131 C1125 1.390 . S
C1131 C1128 1.386 . S
C1132 C1127 1.490 . S
C1132 C1134 1.395 . S
C1132 C1135 1.403 . S
H1133 C1139 0.930 . S
C1134 H1120 0.930 . S
C1134 C1132 1.395 . S
C1134 C1137 1.403 . S
C1135 C1132 1.403 . S
C1135 C1136 1.524 . S
C1135 C1139 1.400 . S
C1136 H1121 0.960 . S
C1136 H1122 0.960 . S
C1136 H1123 0.960 . S
C1136 C1135 1.524 . S
C1137 C1134 1.403 . S
C1137 C1138 1.392 . S
C1137 C1141 1.495 . S
C1138 C1137 1.392 . S
C1138 C1139 1.385 . S
C1138 C1140 1.478 . S
C1139 H1133 0.930 . S
C1139 C1135 1.400 . S
C1139 C1138 1.385 . S
C1140 C1138 1.478 . S
C1140 C1142 1.381 . S
C1140 C1146 1.383 . S
C1141 C1137 1.495 . S
C1141 H1147 0.959 . S
C1141 H1148 0.961 . S
C1141 H1149 0.960 . S
C1142 C1140 1.381 . S
C1142 C1143 1.394 . S
C1142 H1150 0.930 . S
C1143 C1142 1.394 . S
C1143 C1144 1.383 . S
C1143 H1151 0.929 . S
C1144 C1143 1.383 . S
C1144 C1145 1.377 . S
C1145 H1129 0.930 . S
C1145 C1144 1.377 . S
C1145 C1146 1.379 . S
C1146 H1130 0.931 . S
C1146 C1140 1.383 . S
C1146 C1145 1.379 . S
H1147 C1141 0.959 . S
H1148 C1141 0.961 . S
H1149 C1141 0.960 . S
H1150 C1142 0.930 . S
H1151 C1143 0.929 . S
H1152 C1160 0.929 . S
H1153 C1162 0.930 . S
H1154 C1164 0.930 . S
H1155 C1167 0.929 . S
H1156 C1170 0.930 . S
H1157 C1172 0.960 . S
H1158 C1172 0.960 . S
H1159 C1172 0.960 . S
C1160 H1152 0.929 . S
C1160 C1161 1.377 . S
C1160 C1162 1.384 . S
C1161 C1160 1.377 . S
C1161 C1167 1.390 . S
C1162 H1153 0.930 . S
C1162 C1160 1.384 . S
C1162 C1163 1.372 . S
C1163 C1162 1.372 . S
C1163 C1164 1.400 . S
C1163 C1168 1.490 . S
C1164 H1154 0.930 . S
C1164 C1163 1.400 . S
C1164 C1167 1.386 . S
H1165 C1181 0.930 . S
H1166 C1182 0.931 . S
C1167 H1155 0.929 . S
C1167 C1161 1.390 . S
C1167 C1164 1.386 . S
C1168 C1163 1.490 . S
C1168 C1170 1.395 . S
C1168 C1171 1.403 . S
H1169 C1175 0.930 . S
C1170 H1156 0.930 . S
C1170 C1168 1.395 . S
C1170 C1173 1.403 . S
C1171 C1168 1.403 . S
C1171 C1172 1.524 . S
C1171 C1175 1.400 . S
C1172 H1157 0.960 . S
C1172 H1158 0.960 . S
C1172 H1159 0.960 . S
C1172 C1171 1.524 . S
C1173 C1170 1.403 . S
C1173 C1174 1.392 . S
C1173 C1177 1.495 . S
C1174 C1173 1.392 . S
C1174 C1175 1.385 . S
C1174 C1176 1.478 . S
C1175 H1169 0.930 . S
C1175 C1171 1.400 . S
C1175 C1174 1.385 . S
C1176 C1174 1.478 . S
C1176 C1178 1.381 . S
C1176 C1182 1.383 . S
C1177 C1173 1.495 . S
C1177 H1183 0.959 . S
C1177 H1184 0.961 . S
C1177 H1185 0.960 . S
C1178 C1176 1.381 . S
C1178 C1179 1.394 . S
C1178 H1186 0.930 . S
C1179 C1178 1.394 . S
C1179 C1180 1.383 . S
C1179 H1187 0.929 . S
C1180 C1179 1.383 . S
C1180 C1181 1.377 . S
C1181 H1165 0.930 . S
C1181 C1180 1.377 . S
C1181 C1182 1.379 . S
C1182 H1166 0.931 . S
C1182 C1176 1.383 . S
C1182 C1181 1.379 . S
H1183 C1177 0.959 . S
H1184 C1177 0.961 . S
H1185 C1177 0.960 . S
H1186 C1178 0.930 . S
H1187 C1179 0.929 . S
H1188 C1196 0.929 . S
H1189 C1198 0.930 . S
H1190 C1200 0.930 . S
H1191 C1203 0.929 . S
H1192 C1206 0.930 . S
H1193 C1208 0.960 . S
H1194 C1208 0.960 . S
H1195 C1208 0.960 . S
C1196 H1188 0.929 . S
C1196 C1197 1.377 . S
C1196 C1198 1.384 . S
C1197 C1196 1.377 . S
C1197 C1203 1.390 . S
C1198 H1189 0.930 . S
C1198 C1196 1.384 . S
C1198 C1199 1.372 . S
C1199 C1198 1.372 . S
C1199 C1200 1.400 . S
C1199 C1204 1.490 . S
C1200 H1190 0.930 . S
C1200 C1199 1.400 . S
C1200 C1203 1.386 . S
H1201 C1217 0.930 . S
H1202 C1218 0.931 . S
C1203 H1191 0.929 . S
C1203 C1197 1.390 . S
C1203 C1200 1.386 . S
C1204 C1199 1.490 . S
C1204 C1206 1.395 . S
C1204 C1207 1.403 . S
H1205 C1211 0.930 . S
C1206 H1192 0.930 . S
C1206 C1204 1.395 . S
C1206 C1209 1.403 . S
C1207 C1204 1.403 . S
C1207 C1208 1.524 . S
C1207 C1211 1.400 . S
C1208 H1193 0.960 . S
C1208 H1194 0.960 . S
C1208 H1195 0.960 . S
C1208 C1207 1.524 . S
C1209 C1206 1.403 . S
C1209 C1210 1.392 . S
C1209 C1213 1.495 . S
C1210 C1209 1.392 . S
C1210 C1211 1.385 . S
C1210 C1212 1.478 . S
C1211 H1205 0.930 . S
C1211 C1207 1.400 . S
C1211 C1210 1.385 . S
C1212 C1210 1.478 . S
C1212 C1214 1.381 . S
C1212 C1218 1.383 . S
C1213 C1209 1.495 . S
C1213 H1219 0.959 . S
C1213 H1220 0.961 . S
C1213 H1221 0.960 . S
C1214 C1212 1.381 . S
C1214 C1215 1.394 . S
C1214 H1222 0.930 . S
C1215 C1214 1.394 . S
C1215 C1216 1.383 . S
C1215 H1223 0.929 . S
C1216 C1215 1.383 . S
C1216 C1217 1.377 . S
C1217 H1201 0.930 . S
C1217 C1216 1.377 . S
C1217 C1218 1.379 . S
C1218 H1202 0.931 . S
C1218 C1212 1.383 . S
C1218 C1217 1.379 . S
H1219 C1213 0.959 . S
H1220 C1213 0.961 . S
H1221 C1213 0.960 . S
H1222 C1214 0.930 . S
H1223 C1215 0.929 . S
H1224 C1232 0.929 . S
H1225 C1234 0.930 . S
H1226 C1236 0.930 . S
H1227 C1239 0.929 . S
H1228 C1242 0.930 . S
H1229 C1244 0.960 . S
H1230 C1244 0.960 . S
H1231 C1244 0.960 . S
C1232 H1224 0.929 . S
C1232 C1233 1.377 . S
C1232 C1234 1.384 . S
C1233 C1232 1.377 . S
C1233 C1239 1.390 . S
C1234 H1225 0.930 . S
C1234 C1232 1.384 . S
C1234 C1235 1.372 . S
C1235 C1234 1.372 . S
C1235 C1236 1.400 . S
C1235 C1240 1.490 . S
C1236 H1226 0.930 . S
C1236 C1235 1.400 . S
C1236 C1239 1.386 . S
H1237 C1253 0.930 . S
H1238 C1254 0.931 . S
C1239 H1227 0.929 . S
C1239 C1233 1.390 . S
C1239 C1236 1.386 . S
C1240 C1235 1.490 . S
C1240 C1242 1.395 . S
C1240 C1243 1.403 . S
H1241 C1247 0.930 . S
C1242 H1228 0.930 . S
C1242 C1240 1.395 . S
C1242 C1245 1.403 . S
C1243 C1240 1.403 . S
C1243 C1244 1.524 . S
C1243 C1247 1.400 . S
C1244 H1229 0.960 . S
C1244 H1230 0.960 . S
C1244 H1231 0.960 . S
C1244 C1243 1.524 . S
C1245 C1242 1.403 . S
C1245 C1246 1.392 . S
C1245 C1249 1.495 . S
C1246 C1245 1.392 . S
C1246 C1247 1.385 . S
C1246 C1248 1.478 . S
C1247 H1241 0.930 . S
C1247 C1243 1.400 . S
C1247 C1246 1.385 . S
C1248 C1246 1.478 . S
C1248 C1250 1.381 . S
C1248 C1254 1.383 . S
C1249 C1245 1.495 . S
C1249 H1255 0.959 . S
C1249 H1256 0.961 . S
C1249 H1257 0.960 . S
C1250 C1248 1.381 . S
C1250 C1251 1.394 . S
C1250 H1258 0.930 . S
C1251 C1250 1.394 . S
C1251 C1252 1.383 . S
C1251 H1259 0.929 . S
C1252 C1251 1.383 . S
C1252 C1253 1.377 . S
C1253 H1237 0.930 . S
C1253 C1252 1.377 . S
C1253 C1254 1.379 . S
C1254 H1238 0.931 . S
C1254 C1248 1.383 . S
C1254 C1253 1.379 . S
H1255 C1249 0.959 . S
H1256 C1249 0.961 . S
H1257 C1249 0.960 . S
H1258 C1250 0.930 . S
H1259 C1251 0.929 . S
H1260 C1268 0.929 . S
H1261 C1270 0.930 . S
H1262 C1272 0.930 . S
H1263 C1275 0.929 . S
H1264 C1278 0.930 . S
H1265 C1280 0.960 . S
H1266 C1280 0.960 . S
H1267 C1280 0.960 . S
C1268 H1260 0.929 . S
C1268 C1269 1.377 . S
C1268 C1270 1.384 . S
C1269 C1268 1.377 . S
C1269 C1275 1.390 . S
C1270 H1261 0.930 . S
C1270 C1268 1.384 . S
C1270 C1271 1.372 . S
C1271 C1270 1.372 . S
C1271 C1272 1.400 . S
C1271 C1276 1.490 . S
C1272 H1262 0.930 . S
C1272 C1271 1.400 . S
C1272 C1275 1.386 . S
H1273 C1289 0.930 . S
H1274 C1290 0.931 . S
C1275 H1263 0.929 . S
C1275 C1269 1.390 . S
C1275 C1272 1.386 . S
C1276 C1271 1.490 . S
C1276 C1278 1.395 . S
C1276 C1279 1.403 . S
H1277 C1283 0.930 . S
C1278 H1264 0.930 . S
C1278 C1276 1.395 . S
C1278 C1281 1.403 . S
C1279 C1276 1.403 . S
C1279 C1280 1.524 . S
C1279 C1283 1.400 . S
C1280 H1265 0.960 . S
C1280 H1266 0.960 . S
C1280 H1267 0.960 . S
C1280 C1279 1.524 . S
C1281 C1278 1.403 . S
C1281 C1282 1.392 . S
C1281 C1285 1.495 . S
C1282 C1281 1.392 . S
C1282 C1283 1.385 . S
C1282 C1284 1.478 . S
C1283 H1277 0.930 . S
C1283 C1279 1.400 . S
C1283 C1282 1.385 . S
C1284 C1282 1.478 . S
C1284 C1286 1.381 . S
C1284 C1290 1.383 . S
C1285 C1281 1.495 . S
C1285 H1291 0.959 . S
C1285 H1292 0.961 . S
C1285 H1293 0.960 . S
C1286 C1284 1.381 . S
C1286 C1287 1.394 1_554 S
C1286 H1294 0.930 . S
C1287 C1286 1.394 1_556 S
C1287 C1288 1.370 1_556 S
C1287 H1295 0.929 . S
C1288 C1287 1.370 1_554 S
C1288 C1289 1.424 . S
C1289 H1273 0.930 . S
C1289 C1288 1.424 . S
C1289 C1290 1.379 . S
C1290 H1274 0.931 . S
C1290 C1284 1.383 . S
C1290 C1289 1.379 . S
H1291 C1285 0.959 . S
H1292 C1285 0.961 . S
H1293 C1285 0.960 . S
H1294 C1286 0.930 . S
H1295 C1287 0.929 . S
H1296 C1304 0.929 . S
H1297 C1306 0.930 . S
H1298 C1308 0.930 . S
H1299 C1311 0.929 . S
H1300 C1314 0.930 . S
H1301 C1316 0.960 . S
H1302 C1316 0.960 . S
H1303 C1316 0.960 . S
C1304 H1296 0.929 . S
C1304 C1305 1.377 . S
C1304 C1306 1.384 . S
C1305 C1304 1.377 . S
C1305 C1311 1.390 . S
C1306 H1297 0.930 . S
C1306 C1304 1.384 . S
C1306 C1307 1.372 . S
C1307 C1306 1.372 . S
C1307 C1308 1.400 . S
C1307 C1312 1.490 . S
C1308 H1298 0.930 . S
C1308 C1307 1.400 . S
C1308 C1311 1.386 . S
H1309 C1325 0.956 . S
H1310 C1326 0.931 . S
C1311 H1299 0.929 . S
C1311 C1305 1.390 . S
C1311 C1308 1.386 . S
C1312 C1307 1.490 . S
C1312 C1314 1.395 . S
C1312 C1315 1.403 . S
H1313 C1319 0.930 . S
C1314 H1300 0.930 . S
C1314 C1312 1.395 . S
C1314 C1317 1.403 . S
C1315 C1312 1.403 . S
C1315 C1316 1.524 . S
C1315 C1319 1.400 . S
C1316 H1301 0.960 . S
C1316 H1302 0.960 . S
C1316 H1303 0.960 . S
C1316 C1315 1.524 . S
C1317 C1314 1.403 . S
C1317 C1318 1.392 . S
C1317 C1321 1.495 . S
C1318 C1317 1.392 . S
C1318 C1319 1.385 . S
C1318 C1320 1.478 . S
C1319 H1313 0.930 . S
C1319 C1315 1.400 . S
C1319 C1318 1.385 . S
C1320 C1318 1.478 . S
C1320 C1322 1.381 . S
C1320 C1326 1.383 . S
C1321 C1317 1.495 . S
C1321 H1327 0.959 . S
C1321 H1328 0.961 . S
C1321 H1329 0.960 . S
C1322 C1320 1.381 . S
C1322 C1323 1.394 . S
C1322 H1330 0.930 . S
C1323 C1322 1.394 . S
C1323 C1324 1.408 . S
C1323 H1331 0.929 . S
C1324 C1323 1.408 . S
C1324 C1325 1.375 1_554 S
C1325 H1309 0.956 . S
C1325 C1324 1.375 1_556 S
C1325 C1326 1.356 1_556 S
C1326 H1310 0.931 . S
C1326 C1320 1.383 . S
C1326 C1325 1.356 1_554 S
H1327 C1321 0.959 . S
H1328 C1321 0.961 . S
H1329 C1321 0.960 . S
H1330 C1322 0.930 . S
H1331 C1323 0.929 . S
H1332 C1340 0.929 . S
H1333 C1342 0.930 . S
H1334 C1344 0.930 . S
H1335 C1347 0.929 . S
H1336 C1350 0.930 . S
H1337 C1352 0.960 . S
H1338 C1352 0.960 . S
H1339 C1352 0.960 . S
C1340 H1332 0.929 . S
C1340 C1341 1.377 . S
C1340 C1342 1.384 . S
C1341 C1340 1.377 . S
C1341 C1347 1.390 . S
C1342 H1333 0.930 . S
C1342 C1340 1.384 . S
C1342 C1343 1.372 . S
C1343 C1342 1.372 . S
C1343 C1344 1.400 . S
C1343 C1348 1.490 . S
C1344 H1334 0.930 . S
C1344 C1343 1.400 . S
C1344 C1347 1.386 . S
H1345 C1361 0.930 . S
H1346 C1362 0.931 . S
C1347 H1335 0.929 . S
C1347 C1341 1.390 . S
C1347 C1344 1.386 . S
C1348 C1343 1.490 . S
C1348 C1350 1.395 . S
C1348 C1351 1.403 . S
H1349 C1355 0.930 . S
C1350 H1336 0.930 . S
C1350 C1348 1.395 . S
C1350 C1353 1.403 . S
C1351 C1348 1.403 . S
C1351 C1352 1.524 . S
C1351 C1355 1.400 . S
C1352 H1337 0.960 . S
C1352 H1338 0.960 . S
C1352 H1339 0.960 . S
C1352 C1351 1.524 . S
C1353 C1350 1.403 . S
C1353 C1354 1.392 . S
C1353 C1357 1.495 . S
C1354 C1353 1.392 . S
C1354 C1355 1.385 . S
C1354 C1356 1.478 . S
C1355 H1349 0.930 . S
C1355 C1351 1.400 . S
C1355 C1354 1.385 . S
C1356 C1354 1.478 . S
C1356 C1358 1.381 . S
C1356 C1362 1.383 . S
C1357 C1353 1.495 . S
C1357 H1363 0.959 . S
C1357 H1364 0.961 . S
C1357 H1365 0.960 . S
C1358 C1356 1.381 . S
C1358 C1359 1.394 . S
C1358 H1366 0.930 . S
C1359 C1358 1.394 . S
C1359 C1360 1.392 . S
C1359 H1367 0.918 1_554 S
C1360 C1359 1.392 . S
C1360 C1361 1.393 . S
C1361 H1345 0.930 . S
C1361 C1360 1.393 . S
C1361 C1362 1.379 . S
C1362 H1346 0.931 . S
C1362 C1356 1.383 . S
C1362 C1361 1.379 . S
H1363 C1357 0.959 . S
H1364 C1357 0.961 . S
H1365 C1357 0.960 . S
H1366 C1358 0.930 . S
H1367 C1359 0.918 1_556 S
H1368 C1376 0.929 . S
H1369 C1378 0.930 . S
H1370 C1380 0.930 . S
H1371 C1383 0.929 . S
H1372 C1386 0.930 . S
H1373 C1388 0.960 . S
H1374 C1388 0.960 . S
H1375 C1388 0.960 . S
C1376 H1368 0.929 . S
C1376 C1377 1.377 . S
C1376 C1378 1.384 . S
C1377 C1376 1.377 . S
C1377 C1383 1.390 . S
C1378 H1369 0.930 . S
C1378 C1376 1.384 . S
C1378 C1379 1.372 . S
C1379 C1378 1.372 . S
C1379 C1380 1.400 . S
C1379 C1384 1.490 . S
C1380 H1370 0.930 . S
C1380 C1379 1.400 . S
C1380 C1383 1.386 . S
H1381 C1397 0.930 . S
H1382 C1398 0.931 . S
C1383 H1371 0.929 . S
C1383 C1377 1.390 . S
C1383 C1380 1.386 . S
C1384 C1379 1.490 . S
C1384 C1386 1.395 . S
C1384 C1387 1.403 . S
H1385 C1391 0.930 . S
C1386 H1372 0.930 . S
C1386 C1384 1.395 . S
C1386 C1389 1.403 . S
C1387 C1384 1.403 . S
C1387 C1388 1.524 . S
C1387 C1391 1.400 . S
C1388 H1373 0.960 . S
C1388 H1374 0.960 . S
C1388 H1375 0.960 . S
C1388 C1387 1.524 . S
C1389 C1386 1.403 . S
C1389 C1390 1.392 . S
C1389 C1393 1.495 . S
C1390 C1389 1.392 . S
C1390 C1391 1.385 . S
C1390 C1392 1.478 . S
C1391 H1385 0.930 . S
C1391 C1387 1.400 . S
C1391 C1390 1.385 . S
C1392 C1390 1.478 . S
C1392 C1394 1.381 . S
C1392 C1398 1.383 . S
C1393 C1389 1.495 . S
C1393 H1399 0.959 . S
C1393 H1400 0.961 . S
C1393 H1401 0.960 . S
C1394 C1392 1.381 . S
C1394 C1395 1.394 . S
C1394 H1402 0.930 . S
C1395 C1394 1.394 . S
C1395 C1396 1.383 . S
C1395 H1403 0.929 . S
C1396 C1395 1.383 . S
C1396 C1397 1.377 . S
C1397 H1381 0.930 . S
C1397 C1396 1.377 . S
C1397 C1398 1.379 . S
C1398 H1382 0.931 . S
C1398 C1392 1.383 . S
C1398 C1397 1.379 . S
H1399 C1393 0.959 . S
H1400 C1393 0.961 . S
H1401 C1393 0.960 . S
H1402 C1394 0.930 . S
H1403 C1395 0.929 . S
H1404 C1412 0.929 . S
H1405 C1414 0.930 . S
H1406 C1416 0.930 . S
H1407 C1419 0.929 . S
H1408 C1422 0.930 . S
H1409 C1424 0.960 . S
H1410 C1424 0.960 . S
H1411 C1424 0.960 . S
C1412 H1404 0.929 . S
C1412 C1413 1.377 . S
C1412 C1414 1.384 . S
C1413 C1412 1.377 . S
C1413 C1419 1.390 . S
C1414 H1405 0.930 . S
C1414 C1412 1.384 . S
C1414 C1415 1.372 . S
C1415 C1414 1.372 . S
C1415 C1416 1.400 . S
C1415 C1420 1.490 . S
C1416 H1406 0.930 . S
C1416 C1415 1.400 . S
C1416 C1419 1.386 . S
H1417 C1433 0.930 . S
H1418 C1434 0.931 . S
C1419 H1407 0.929 . S
C1419 C1413 1.390 . S
C1419 C1416 1.386 . S
C1420 C1415 1.490 . S
C1420 C1422 1.395 . S
C1420 C1423 1.403 . S
H1421 C1427 0.930 . S
C1422 H1408 0.930 . S
C1422 C1420 1.395 . S
C1422 C1425 1.403 . S
C1423 C1420 1.403 . S
C1423 C1424 1.524 . S
C1423 C1427 1.400 . S
C1424 H1409 0.960 . S
C1424 H1410 0.960 . S
C1424 H1411 0.960 . S
C1424 C1423 1.524 . S
C1425 C1422 1.403 . S
C1425 C1426 1.392 . S
C1425 C1429 1.495 . S
C1426 C1425 1.392 . S
C1426 C1427 1.385 . S
C1426 C1428 1.478 . S
C1427 H1421 0.930 . S
C1427 C1423 1.400 . S
C1427 C1426 1.385 . S
C1428 C1426 1.478 . S
C1428 C1430 1.381 . S
C1428 C1434 1.383 . S
C1429 C1425 1.495 . S
C1429 H1435 0.959 . S
C1429 H1436 0.961 . S
C1429 H1437 0.960 . S
C1430 C1428 1.381 . S
C1430 C1431 1.394 . S
C1430 H1438 0.930 . S
C1431 C1430 1.394 . S
C1431 C1432 1.383 . S
C1431 H1439 0.929 . S
C1432 C1431 1.383 . S
C1432 C1433 1.377 . S
C1433 H1417 0.930 . S
C1433 C1432 1.377 . S
C1433 C1434 1.379 . S
C1434 H1418 0.931 . S
C1434 C1428 1.383 . S
C1434 C1433 1.379 . S
H1435 C1429 0.959 . S
H1436 C1429 0.961 . S
H1437 C1429 0.960 . S
H1438 C1430 0.930 . S
H1439 C1431 0.929 . S
H1440 C1448 0.929 . S
H1441 C1450 0.930 . S
H1442 C1452 0.930 . S
H1443 C1455 0.929 . S
H1444 C1458 0.930 . S
H1445 C1460 0.960 . S
H1446 C1460 0.960 . S
H1447 C1460 0.960 . S
C1448 H1440 0.929 . S
C1448 C1449 1.377 . S
C1448 C1450 1.384 . S
C1449 C1448 1.377 . S
C1449 C1455 1.390 . S
C1450 H1441 0.930 . S
C1450 C1448 1.384 . S
C1450 C1451 1.372 . S
C1451 C1450 1.372 . S
C1451 C1452 1.400 . S
C1451 C1456 1.490 . S
C1452 H1442 0.930 . S
C1452 C1451 1.400 . S
C1452 C1455 1.386 . S
H1453 C1469 0.930 . S
H1454 C1470 0.931 . S
C1455 H1443 0.929 . S
C1455 C1449 1.390 . S
C1455 C1452 1.386 . S
C1456 C1451 1.490 . S
C1456 C1458 1.395 . S
C1456 C1459 1.403 . S
H1457 C1463 0.930 . S
C1458 H1444 0.930 . S
C1458 C1456 1.395 . S
C1458 C1461 1.403 . S
C1459 C1456 1.403 . S
C1459 C1460 1.524 . S
C1459 C1463 1.400 . S
C1460 H1445 0.960 . S
C1460 H1446 0.960 . S
C1460 H1447 0.960 . S
C1460 C1459 1.524 . S
C1461 C1458 1.403 . S
C1461 C1462 1.392 . S
C1461 C1465 1.495 . S
C1462 C1461 1.392 . S
C1462 C1463 1.385 . S
C1462 C1464 1.478 . S
C1463 H1457 0.930 . S
C1463 C1459 1.400 . S
C1463 C1462 1.385 . S
C1464 C1462 1.478 . S
C1464 C1466 1.381 . S
C1464 C1470 1.383 . S
C1465 C1461 1.495 . S
C1465 H1471 0.959 . S
C1465 H1472 0.961 . S
C1465 H1473 0.960 . S
C1466 C1464 1.381 . S
C1466 C1467 1.394 . S
C1466 H1474 0.930 . S
C1467 C1466 1.394 . S
C1467 C1468 1.383 . S
C1467 H1475 0.929 . S
C1468 C1467 1.383 . S
C1468 C1469 1.377 . S
C1469 H1453 0.930 . S
C1469 C1468 1.377 . S
C1469 C1470 1.379 . S
C1470 H1454 0.931 . S
C1470 C1464 1.383 . S
C1470 C1469 1.379 . S
H1471 C1465 0.959 . S
H1472 C1465 0.961 . S
H1473 C1465 0.960 . S
H1474 C1466 0.930 . S
H1475 C1467 0.929 . S
H1476 C1484 0.929 . S
H1477 C1486 0.930 . S
H1478 C1488 0.930 . S
H1479 C1491 0.929 . S
H1480 C1494 0.930 . S
H1481 C1496 0.960 . S
H1482 C1496 0.960 . S
H1483 C1496 0.960 . S
C1484 H1476 0.929 . S
C1484 C1485 1.377 . S
C1484 C1486 1.384 . S
C1485 C1484 1.377 . S
C1485 C1491 1.390 . S
C1486 H1477 0.930 . S
C1486 C1484 1.384 . S
C1486 C1487 1.372 . S
C1487 C1486 1.372 . S
C1487 C1488 1.400 . S
C1487 C1492 1.490 . S
C1488 H1478 0.930 . S
C1488 C1487 1.400 . S
C1488 C1491 1.386 . S
H1489 C1505 0.930 . S
H1490 C1506 0.931 . S
C1491 H1479 0.929 . S
C1491 C1485 1.390 . S
C1491 C1488 1.386 . S
C1492 C1487 1.490 . S
C1492 C1494 1.395 . S
C1492 C1495 1.403 . S
H1493 C1499 0.930 . S
C1494 H1480 0.930 . S
C1494 C1492 1.395 . S
C1494 C1497 1.403 . S
C1495 C1492 1.403 . S
C1495 C1496 1.524 . S
C1495 C1499 1.400 . S
C1496 H1481 0.960 . S
C1496 H1482 0.960 . S
C1496 H1483 0.960 . S
C1496 C1495 1.524 . S
C1497 C1494 1.403 . S
C1497 C1498 1.392 . S
C1497 C1501 1.495 . S
C1498 C1497 1.392 . S
C1498 C1499 1.385 . S
C1498 C1500 1.478 . S
C1499 H1493 0.930 . S
C1499 C1495 1.400 . S
C1499 C1498 1.385 . S
C1500 C1498 1.478 . S
C1500 C1502 1.381 . S
C1500 C1506 1.383 . S
C1501 C1497 1.495 . S
C1501 H1507 0.959 . S
C1501 H1508 0.961 . S
C1501 H1509 0.960 . S
C1502 C1500 1.381 . S
C1502 C1503 1.394 1_556 S
C1502 H1510 0.930 . S
C1503 C1502 1.394 1_554 S
C1503 C1504 1.368 1_554 S
C1503 H1511 0.929 . S
C1504 C1503 1.368 1_556 S
C1504 C1505 1.435 . S
C1505 H1489 0.930 . S
C1505 C1504 1.435 . S
C1505 C1506 1.379 . S
C1506 H1490 0.931 . S
C1506 C1500 1.383 . S
C1506 C1505 1.379 . S
H1507 C1501 0.959 . S
H1508 C1501 0.961 . S
H1509 C1501 0.960 . S
H1510 C1502 0.930 . S
H1511 C1503 0.929 . S
H1512 C1520 0.929 . S
H1513 C1522 0.930 . S
H1514 C1524 0.930 . S
H1515 C1527 0.929 . S
H1516 C1530 0.930 . S
H1517 C1532 0.960 . S
H1518 C1532 0.960 . S
H1519 C1532 0.960 . S
C1520 H1512 0.929 . S
C1520 C1521 1.377 . S
C1520 C1522 1.384 . S
C1521 C1520 1.377 . S
C1521 C1527 1.390 . S
C1522 H1513 0.930 . S
C1522 C1520 1.384 . S
C1522 C1523 1.372 . S
C1523 C1522 1.372 . S
C1523 C1524 1.400 . S
C1523 C1528 1.490 . S
C1524 H1514 0.930 . S
C1524 C1523 1.400 . S
C1524 C1527 1.386 . S
H1525 C1541 0.930 . S
H1526 C1542 0.931 . S
C1527 H1515 0.929 . S
C1527 C1521 1.390 . S
C1527 C1524 1.386 . S
C1528 C1523 1.490 . S
C1528 C1530 1.395 . S
C1528 C1531 1.403 . S
H1529 C1535 0.930 . S
C1530 H1516 0.930 . S
C1530 C1528 1.395 . S
C1530 C1533 1.403 . S
C1531 C1528 1.403 . S
C1531 C1532 1.524 . S
C1531 C1535 1.400 . S
C1532 H1517 0.960 . S
C1532 H1518 0.960 . S
C1532 H1519 0.960 . S
C1532 C1531 1.524 . S
C1533 C1530 1.403 . S
C1533 C1534 1.392 . S
C1533 C1537 1.495 . S
C1534 C1533 1.392 . S
C1534 C1535 1.385 . S
C1534 C1536 1.478 . S
C1535 H1529 0.930 . S
C1535 C1531 1.400 . S
C1535 C1534 1.385 . S
C1536 C1534 1.478 . S
C1536 C1538 1.381 . S
C1536 C1542 1.383 . S
C1537 C1533 1.495 . S
C1537 H1543 0.959 . S
C1537 H1544 0.961 . S
C1537 H1545 0.960 . S
C1538 C1536 1.381 . S
C1538 C1539 1.394 . S
C1538 H1546 0.930 . S
C1539 C1538 1.394 . S
C1539 C1540 1.383 . S
C1539 H1547 0.904 1_556 S
C1540 C1539 1.383 . S
C1540 C1541 1.377 . S
C1541 H1525 0.930 . S
C1541 C1540 1.377 . S
C1541 C1542 1.379 . S
C1542 H1526 0.931 . S
C1542 C1536 1.383 . S
C1542 C1541 1.379 . S
H1543 C1537 0.959 . S
H1544 C1537 0.961 . S
H1545 C1537 0.960 . S
H1546 C1538 0.930 . S
H1547 C1539 0.904 1_554 S
H1548 C1556 0.929 . S
H1549 C1558 0.930 . S
H1550 C1560 0.930 . S
H1551 C1563 0.929 . S
H1552 C1566 0.930 . S
H1553 C1568 0.960 . S
H1554 C1568 0.960 . S
H1555 C1568 0.960 . S
C1556 H1548 0.929 . S
C1556 C1557 1.377 . S
C1556 C1558 1.384 . S
C1557 C1556 1.377 . S
C1557 C1563 1.390 . S
C1558 H1549 0.930 . S
C1558 C1556 1.384 . S
C1558 C1559 1.372 . S
C1559 C1558 1.372 . S
C1559 C1560 1.400 . S
C1559 C1564 1.490 . S
C1560 H1550 0.930 . S
C1560 C1559 1.400 . S
C1560 C1563 1.386 . S
H1561 C1577 0.930 . S
H1562 C1578 0.931 . S
C1563 H1551 0.929 . S
C1563 C1557 1.390 . S
C1563 C1560 1.386 . S
C1564 C1559 1.490 . S
C1564 C1566 1.395 . S
C1564 C1567 1.403 . S
H1565 C1571 0.930 . S
C1566 H1552 0.930 . S
C1566 C1564 1.395 . S
C1566 C1569 1.403 . S
C1567 C1564 1.403 . S
C1567 C1568 1.524 . S
C1567 C1571 1.400 . S
C1568 H1553 0.960 . S
C1568 H1554 0.960 . S
C1568 H1555 0.960 . S
C1568 C1567 1.524 . S
C1569 C1566 1.403 . S
C1569 C1570 1.392 . S
C1569 C1573 1.495 . S
C1570 C1569 1.392 . S
C1570 C1571 1.385 . S
C1570 C1572 1.478 . S
C1571 H1565 0.930 . S
C1571 C1567 1.400 . S
C1571 C1570 1.385 . S
C1572 C1570 1.478 . S
C1572 C1574 1.381 . S
C1572 C1578 1.383 . S
C1573 C1569 1.495 . S
C1573 H1579 0.959 . S
C1573 H1580 0.961 . S
C1573 H1581 0.960 . S
C1574 C1572 1.381 . S
C1574 C1575 1.394 1_556 S
C1574 H1582 0.930 . S
C1575 C1574 1.394 1_554 S
C1575 C1576 1.370 1_554 S
C1575 H1583 0.929 . S
C1576 C1575 1.370 1_556 S
C1576 C1577 1.430 . S
C1577 H1561 0.930 . S
C1577 C1576 1.430 . S
C1577 C1578 1.379 . S
C1578 H1562 0.931 . S
C1578 C1572 1.383 . S
C1578 C1577 1.379 . S
H1579 C1573 0.959 . S
H1580 C1573 0.961 . S
H1581 C1573 0.960 . S
H1582 C1574 0.930 . S
H1583 C1575 0.929 . S
H1584 C1592 0.929 . S
H1585 C1594 0.930 . S
H1586 C1596 0.930 . S
H1587 C1599 0.929 . S
H1588 C1602 0.930 . S
H1589 C1604 0.960 . S
H1590 C1604 0.960 . S
H1591 C1604 0.960 . S
C1592 H1584 0.929 . S
C1592 C1593 1.377 . S
C1592 C1594 1.384 . S
C1593 C1592 1.377 . S
C1593 C1599 1.390 . S
C1594 H1585 0.930 . S
C1594 C1592 1.384 . S
C1594 C1595 1.372 . S
C1595 C1594 1.372 . S
C1595 C1596 1.400 . S
C1595 C1600 1.490 . S
C1596 H1586 0.930 . S
C1596 C1595 1.400 . S
C1596 C1599 1.386 . S
H1597 C1613 0.930 . S
H1598 C1614 0.931 . S
C1599 H1587 0.929 . S
C1599 C1593 1.390 . S
C1599 C1596 1.386 . S
C1600 C1595 1.490 . S
C1600 C1602 1.395 . S
C1600 C1603 1.403 . S
H1601 C1607 0.930 . S
C1602 H1588 0.930 . S
C1602 C1600 1.395 . S
C1602 C1605 1.403 . S
C1603 C1600 1.403 . S
C1603 C1604 1.524 . S
C1603 C1607 1.400 . S
C1604 H1589 0.960 . S
C1604 H1590 0.960 . S
C1604 H1591 0.960 . S
C1604 C1603 1.524 . S
C1605 C1602 1.403 . S
C1605 C1606 1.392 . S
C1605 C1609 1.495 . S
C1606 C1605 1.392 . S
C1606 C1607 1.385 . S
C1606 C1608 1.478 . S
C1607 H1601 0.930 . S
C1607 C1603 1.400 . S
C1607 C1606 1.385 . S
C1608 C1606 1.478 . S
C1608 C1610 1.381 . S
C1608 C1614 1.383 . S
C1609 C1605 1.495 . S
C1609 H1615 0.959 . S
C1609 H1616 0.961 . S
C1609 H1617 0.960 . S
C1610 C1608 1.381 . S
C1610 C1611 1.394 . S
C1610 H1618 0.930 . S
C1611 C1610 1.394 . S
C1611 C1612 1.383 . S
C1611 H1619 0.929 . S
C1612 C1611 1.383 . S
C1612 C1613 1.377 . S
C1613 H1597 0.930 . S
C1613 C1612 1.377 . S
C1613 C1614 1.379 . S
C1614 H1598 0.931 . S
C1614 C1608 1.383 . S
C1614 C1613 1.379 . S
H1615 C1609 0.959 . S
H1616 C1609 0.961 . S
H1617 C1609 0.960 . S
H1618 C1610 0.930 . S
H1619 C1611 0.929 . S
H1620 C1628 0.929 . S
H1621 C1630 0.930 . S
H1622 C1632 0.930 . S
H1623 C1635 0.929 . S
H1624 C1638 0.930 . S
H1625 C1640 0.960 . S
H1626 C1640 0.960 . S
H1627 C1640 0.960 . S
C1628 H1620 0.929 . S
C1628 C1629 1.377 . S
C1628 C1630 1.384 . S
C1629 C1628 1.377 . S
C1629 C1635 1.390 . S
C1630 H1621 0.930 . S
C1630 C1628 1.384 . S
C1630 C1631 1.372 . S
C1631 C1630 1.372 . S
C1631 C1632 1.400 . S
C1631 C1636 1.490 . S
C1632 H1622 0.930 . S
C1632 C1631 1.400 . S
C1632 C1635 1.386 . S
H1633 C1649 0.930 . S
H1634 C1650 0.931 . S
C1635 H1623 0.929 . S
C1635 C1629 1.390 . S
C1635 C1632 1.386 . S
C1636 C1631 1.490 . S
C1636 C1638 1.395 . S
C1636 C1639 1.403 . S
H1637 C1643 0.930 . S
C1638 H1624 0.930 . S
C1638 C1636 1.395 . S
C1638 C1641 1.403 . S
C1639 C1636 1.403 . S
C1639 C1640 1.524 . S
C1639 C1643 1.400 . S
C1640 H1625 0.960 . S
C1640 H1626 0.960 . S
C1640 H1627 0.960 . S
C1640 C1639 1.524 . S
C1641 C1638 1.403 . S
C1641 C1642 1.392 . S
C1641 C1645 1.495 . S
C1642 C1641 1.392 . S
C1642 C1643 1.385 . S
C1642 C1644 1.478 . S
C1643 H1637 0.930 . S
C1643 C1639 1.400 . S
C1643 C1642 1.385 . S
C1644 C1642 1.478 . S
C1644 C1646 1.381 . S
C1644 C1650 1.383 . S
C1645 C1641 1.495 . S
C1645 H1651 0.959 . S
C1645 H1652 0.961 . S
C1645 H1653 0.960 . S
C1646 C1644 1.381 . S
C1646 C1647 1.394 . S
C1646 H1654 0.930 . S
C1647 C1646 1.394 . S
C1647 C1648 1.383 . S
C1647 H1655 0.929 . S
C1648 C1647 1.383 . S
C1648 C1649 1.377 . S
C1649 H1633 0.930 . S
C1649 C1648 1.377 . S
C1649 C1650 1.379 . S
C1650 H1634 0.931 . S
C1650 C1644 1.383 . S
C1650 C1649 1.379 . S
H1651 C1645 0.959 . S
H1652 C1645 0.961 . S
H1653 C1645 0.960 . S
H1654 C1646 0.930 . S
H1655 C1647 0.929 . S
H1656 C1664 0.929 . S
H1657 C1666 0.930 . S
H1658 C1668 0.930 . S
H1659 C1671 0.929 . S
H1660 C1674 0.930 . S
H1661 C1676 0.960 . S
H1662 C1676 0.960 . S
H1663 C1676 0.960 . S
C1664 H1656 0.929 . S
C1664 C1665 1.377 . S
C1664 C1666 1.384 . S
C1665 C1664 1.377 . S
C1665 C1671 1.390 . S
C1666 H1657 0.930 . S
C1666 C1664 1.384 . S
C1666 C1667 1.372 . S
C1667 C1666 1.372 . S
C1667 C1668 1.400 . S
C1667 C1672 1.490 . S
C1668 H1658 0.930 . S
C1668 C1667 1.400 . S
C1668 C1671 1.386 . S
H1669 C1685 0.930 . S
H1670 C1686 0.931 . S
C1671 H1659 0.929 . S
C1671 C1665 1.390 . S
C1671 C1668 1.386 . S
C1672 C1667 1.490 . S
C1672 C1674 1.395 . S
C1672 C1675 1.403 . S
H1673 C1679 0.930 . S
C1674 H1660 0.930 . S
C1674 C1672 1.395 . S
C1674 C1677 1.403 . S
C1675 C1672 1.403 . S
C1675 C1676 1.524 . S
C1675 C1679 1.400 . S
C1676 H1661 0.960 . S
C1676 H1662 0.960 . S
C1676 H1663 0.960 . S
C1676 C1675 1.524 . S
C1677 C1674 1.403 . S
C1677 C1678 1.392 . S
C1677 C1681 1.495 . S
C1678 C1677 1.392 . S
C1678 C1679 1.385 . S
C1678 C1680 1.478 . S
C1679 H1673 0.930 . S
C1679 C1675 1.400 . S
C1679 C1678 1.385 . S
C1680 C1678 1.478 . S
C1680 C1682 1.381 . S
C1680 C1686 1.383 . S
C1681 C1677 1.495 . S
C1681 H1687 0.959 . S
C1681 H1688 0.961 . S
C1681 H1689 0.960 . S
C1682 C1680 1.381 . S
C1682 C1683 1.394 . S
C1682 H1690 0.930 . S
C1683 C1682 1.394 . S
C1683 C1684 1.383 . S
C1683 H1691 0.929 . S
C1684 C1683 1.383 . S
C1684 C1685 1.377 . S
C1685 H1669 0.930 . S
C1685 C1684 1.377 . S
C1685 C1686 1.379 . S
C1686 H1670 0.931 . S
C1686 C1680 1.383 . S
C1686 C1685 1.379 . S
H1687 C1681 0.959 . S
H1688 C1681 0.961 . S
H1689 C1681 0.960 . S
H1690 C1682 0.930 . S
H1691 C1683 0.929 . S
H1692 C1700 0.929 . S
H1693 C1702 0.930 . S
H1694 C1704 0.930 . S
H1695 C1707 0.929 . S
H1696 C1710 0.930 . S
H1697 C1712 0.960 . S
H1698 C1712 0.960 . S
H1699 C1712 0.960 . S
C1700 H1692 0.929 . S
C1700 C1701 1.377 . S
C1700 C1702 1.384 . S
C1701 C1700 1.377 . S
C1701 C1707 1.390 . S
C1702 H1693 0.930 . S
C1702 C1700 1.384 . S
C1702 C1703 1.372 . S
C1703 C1702 1.372 . S
C1703 C1704 1.400 . S
C1703 C1708 1.490 . S
C1704 H1694 0.930 . S
C1704 C1703 1.400 . S
C1704 C1707 1.386 . S
H1705 C1721 0.930 . S
H1706 C1722 0.931 . S
C1707 H1695 0.929 . S
C1707 C1701 1.390 . S
C1707 C1704 1.386 . S
C1708 C1703 1.490 . S
C1708 C1710 1.395 . S
C1708 C1711 1.403 . S
H1709 C1715 0.930 . S
C1710 H1696 0.930 . S
C1710 C1708 1.395 . S
C1710 C1713 1.403 . S
C1711 C1708 1.403 . S
C1711 C1712 1.524 . S
C1711 C1715 1.400 . S
C1712 H1697 0.960 . S
C1712 H1698 0.960 . S
C1712 H1699 0.960 . S
C1712 C1711 1.524 . S
C1713 C1710 1.403 . S
C1713 C1714 1.392 . S
C1713 C1717 1.495 . S
C1714 C1713 1.392 . S
C1714 C1715 1.385 . S
C1714 C1716 1.478 . S
C1715 H1709 0.930 . S
C1715 C1711 1.400 . S
C1715 C1714 1.385 . S
C1716 C1714 1.478 . S
C1716 C1718 1.381 . S
C1716 C1722 1.383 . S
C1717 C1713 1.495 . S
C1717 H1723 0.959 . S
C1717 H1724 0.961 . S
C1717 H1725 0.960 . S
C1718 C1716 1.381 . S
C1718 C1719 1.394 . S
C1718 H1726 0.930 . S
C1719 C1718 1.394 . S
C1719 C1720 1.383 . S
C1719 H1727 0.929 . S
C1720 C1719 1.383 . S
C1720 C1721 1.377 . S
C1721 H1705 0.930 . S
C1721 C1720 1.377 . S
C1721 C1722 1.379 . S
C1722 H1706 0.931 . S
C1722 C1716 1.383 . S
C1722 C1721 1.379 . S
H1723 C1717 0.959 . S
H1724 C1717 0.961 . S
H1725 C1717 0.960 . S
H1726 C1718 0.930 . S
H1727 C1719 0.929 . S
H1728 C1736 0.929 . S
H1729 C1738 0.930 . S
H1730 C1740 0.930 . S
H1731 C1743 0.929 . S
H1732 C1746 0.930 . S
H1733 C1748 0.960 . S
H1734 C1748 0.960 . S
H1735 C1748 0.960 . S
C1736 H1728 0.929 . S
C1736 C1737 1.377 . S
C1736 C1738 1.384 . S
C1737 C1736 1.377 . S
C1737 C1743 1.390 . S
C1738 H1729 0.930 . S
C1738 C1736 1.384 . S
C1738 C1739 1.372 . S
C1739 C1738 1.372 . S
C1739 C1740 1.400 . S
C1739 C1744 1.490 . S
C1740 H1730 0.930 . S
C1740 C1739 1.400 . S
C1740 C1743 1.386 . S
H1741 C1757 0.930 . S
H1742 C1758 0.931 . S
C1743 H1731 0.929 . S
C1743 C1737 1.390 . S
C1743 C1740 1.386 . S
C1744 C1739 1.490 . S
C1744 C1746 1.395 . S
C1744 C1747 1.403 . S
H1745 C1751 0.930 . S
C1746 H1732 0.930 . S
C1746 C1744 1.395 . S
C1746 C1749 1.403 . S
C1747 C1744 1.403 . S
C1747 C1748 1.524 . S
C1747 C1751 1.400 . S
C1748 H1733 0.960 . S
C1748 H1734 0.960 . S
C1748 H1735 0.960 . S
C1748 C1747 1.524 . S
C1749 C1746 1.403 . S
C1749 C1750 1.392 . S
C1749 C1753 1.495 . S
C1750 C1749 1.392 . S
C1750 C1751 1.385 . S
C1750 C1752 1.478 . S
C1751 H1745 0.930 . S
C1751 C1747 1.400 . S
C1751 C1750 1.385 . S
C1752 C1750 1.478 . S
C1752 C1754 1.381 . S
C1752 C1758 1.383 . S
C1753 C1749 1.495 . S
C1753 H1759 0.959 . S
C1753 H1760 0.961 . S
C1753 H1761 0.960 . S
C1754 C1752 1.381 . S
C1754 C1755 1.394 . S
C1754 H1762 0.930 . S
C1755 C1754 1.394 . S
C1755 C1756 1.383 . S
C1755 H1763 0.929 . S
C1756 C1755 1.383 . S
C1756 C1757 1.377 . S
C1757 H1741 0.930 . S
C1757 C1756 1.377 . S
C1757 C1758 1.379 . S
C1758 H1742 0.931 . S
C1758 C1752 1.383 . S
C1758 C1757 1.379 . S
H1759 C1753 0.959 . S
H1760 C1753 0.961 . S
H1761 C1753 0.960 . S
H1762 C1754 0.930 . S
H1763 C1755 0.929 . S
H1764 C1772 0.929 . S
H1765 C1774 0.930 . S
H1766 C1776 0.930 . S
H1767 C1779 0.929 . S
H1768 C1782 0.930 . S
H1769 C1784 0.960 . S
H1770 C1784 0.960 . S
H1771 C1784 0.960 . S
C1772 H1764 0.929 . S
C1772 C1773 1.377 . S
C1772 C1774 1.384 . S
C1773 C1772 1.377 . S
C1773 C1779 1.390 . S
C1774 H1765 0.930 . S
C1774 C1772 1.384 . S
C1774 C1775 1.372 . S
C1775 C1774 1.372 . S
C1775 C1776 1.400 . S
C1775 C1780 1.490 . S
C1776 H1766 0.930 . S
C1776 C1775 1.400 . S
C1776 C1779 1.386 . S
H1777 C1793 0.930 . S
H1778 C1794 0.931 . S
C1779 H1767 0.929 . S
C1779 C1773 1.390 . S
C1779 C1776 1.386 . S
C1780 C1775 1.490 . S
C1780 C1782 1.395 . S
C1780 C1783 1.403 . S
H1781 C1787 0.930 . S
C1782 H1768 0.930 . S
C1782 C1780 1.395 . S
C1782 C1785 1.403 . S
C1783 C1780 1.403 . S
C1783 C1784 1.524 . S
C1783 C1787 1.400 . S
C1784 H1769 0.960 . S
C1784 H1770 0.960 . S
C1784 H1771 0.960 . S
C1784 C1783 1.524 . S
C1785 C1782 1.403 . S
C1785 C1786 1.392 . S
C1785 C1789 1.495 . S
C1786 C1785 1.392 . S
C1786 C1787 1.385 . S
C1786 C1788 1.478 . S
C1787 H1781 0.930 . S
C1787 C1783 1.400 . S
C1787 C1786 1.385 . S
C1788 C1786 1.478 . S
C1788 C1790 1.381 . S
C1788 C1794 1.383 . S
C1789 C1785 1.495 . S
C1789 H1795 0.959 . S
C1789 H1796 0.961 . S
C1789 H1797 0.960 . S
C1790 C1788 1.381 . S
C1790 C1791 1.394 . S
C1790 H1798 0.930 . S
C1791 C1790 1.394 . S
C1791 C1792 1.383 . S
C1791 H1799 0.929 . S
C1792 C1791 1.383 . S
C1792 C1793 1.377 . S
C1793 H1777 0.930 . S
C1793 C1792 1.377 . S
C1793 C1794 1.379 . S
C1794 H1778 0.931 . S
C1794 C1788 1.383 . S
C1794 C1793 1.379 . S
H1795 C1789 0.959 . S
H1796 C1789 0.961 . S
H1797 C1789 0.960 . S
H1798 C1790 0.930 . S
H1799 C1791 0.929 . S
H1800 C1808 0.929 . S
H1801 C1810 0.930 . S
H1802 C1812 0.930 . S
H1803 C1815 0.929 . S
H1804 C1818 0.930 . S
H1805 C1820 0.960 . S
H1806 C1820 0.960 . S
H1807 C1820 0.960 . S
C1808 H1800 0.929 . S
C1808 C1809 1.377 . S
C1808 C1810 1.384 . S
C1809 C1808 1.377 . S
C1809 C1815 1.390 . S
C1810 H1801 0.930 . S
C1810 C1808 1.384 . S
C1810 C1811 1.372 . S
C1811 C1810 1.372 . S
C1811 C1812 1.400 . S
C1811 C1816 1.490 . S
C1812 H1802 0.930 . S
C1812 C1811 1.400 . S
C1812 C1815 1.386 . S
H1813 C1829 0.930 1_565 S
H1814 C1830 0.931 1_565 S
C1815 H1803 0.929 . S
C1815 C1809 1.390 . S
C1815 C1812 1.386 . S
C1816 C1811 1.490 . S
C1816 C1818 1.395 . S
C1816 C1819 1.403 . S
H1817 C1823 0.930 . S
C1818 H1804 0.930 . S
C1818 C1816 1.395 . S
C1818 C1821 1.403 . S
C1819 C1816 1.403 . S
C1819 C1820 1.524 . S
C1819 C1823 1.400 . S
C1820 H1805 0.960 . S
C1820 H1806 0.960 . S
C1820 H1807 0.960 . S
C1820 C1819 1.524 . S
C1821 C1818 1.403 . S
C1821 C1822 1.392 . S
C1821 C1825 1.495 . S
C1822 C1821 1.392 . S
C1822 C1823 1.385 . S
C1822 C1824 1.478 . S
C1823 H1817 0.930 . S
C1823 C1819 1.400 . S
C1823 C1822 1.385 . S
C1824 C1822 1.478 . S
C1824 C1826 1.381 . S
C1824 C1830 1.383 . S
C1825 C1821 1.495 . S
C1825 H1831 0.959 . S
C1825 H1832 0.961 . S
C1825 H1833 0.960 . S
C1826 C1824 1.381 . S
C1826 C1827 1.394 . S
C1826 H1834 0.930 . S
C1827 C1826 1.394 . S
C1827 C1828 1.383 . S
C1827 H1835 0.929 . S
C1828 C1827 1.383 . S
C1828 C1829 1.377 . S
C1829 H1813 0.930 1_545 S
C1829 C1828 1.377 . S
C1829 C1830 1.379 . S
C1830 H1814 0.931 1_545 S
C1830 C1824 1.383 . S
C1830 C1829 1.379 . S
H1831 C1825 0.959 . S
H1832 C1825 0.961 . S
H1833 C1825 0.960 . S
H1834 C1826 0.930 . S
H1835 C1827 0.929 . S
H1836 C1844 0.929 . S
H1837 C1846 0.930 . S
H1838 C1848 0.930 . S
H1839 C1851 0.929 . S
H1840 C1854 0.930 . S
H1841 C1856 0.960 . S
H1842 C1856 0.960 . S
H1843 C1856 0.960 . S
C1844 H1836 0.929 . S
C1844 C1845 1.377 . S
C1844 C1846 1.384 . S
C1845 C1844 1.377 . S
C1845 C1851 1.390 1_655 S
C1846 H1837 0.930 . S
C1846 C1844 1.384 . S
C1846 C1847 1.372 . S
C1847 C1846 1.372 . S
C1847 C1848 1.400 1_655 S
C1847 C1852 1.490 . S
C1848 H1838 0.930 . S
C1848 C1847 1.400 1_455 S
C1848 C1851 1.386 . S
H1849 C1865 0.930 . S
H1850 C1866 0.931 . S
C1851 H1839 0.929 . S
C1851 C1845 1.390 1_455 S
C1851 C1848 1.386 . S
C1852 C1847 1.490 . S
C1852 C1854 1.395 . S
C1852 C1855 1.403 1_655 S
H1853 C1859 0.930 . S
C1854 H1840 0.930 . S
C1854 C1852 1.395 . S
C1854 C1857 1.403 . S
C1855 C1852 1.403 1_455 S
C1855 C1856 1.524 . S
C1855 C1859 1.400 . S
C1856 H1841 0.960 . S
C1856 H1842 0.960 . S
C1856 H1843 0.960 . S
C1856 C1855 1.524 . S
C1857 C1854 1.403 . S
C1857 C1858 1.392 . S
C1857 C1861 1.495 . S
C1858 C1857 1.392 . S
C1858 C1859 1.385 1_655 S
C1858 C1860 1.478 . S
C1859 H1853 0.930 . S
C1859 C1855 1.400 . S
C1859 C1858 1.385 1_455 S
C1860 C1858 1.478 . S
C1860 C1862 1.381 . S
C1860 C1866 1.383 1_655 S
C1861 C1857 1.495 . S
C1861 H1867 0.959 . S
C1861 H1868 0.961 . S
C1861 H1869 0.960 . S
C1862 C1860 1.381 . S
C1862 C1863 1.394 . S
C1862 H1870 0.930 . S
C1863 C1862 1.394 . S
C1863 C1864 1.383 . S
C1863 H1871 0.929 . S
C1864 C1863 1.383 . S
C1864 C1865 1.377 1_655 S
C1865 H1849 0.930 . S
C1865 C1864 1.377 1_455 S
C1865 C1866 1.379 . S
C1866 H1850 0.931 . S
C1866 C1860 1.383 1_455 S
C1866 C1865 1.379 . S
H1867 C1861 0.959 . S
H1868 C1861 0.961 . S
H1869 C1861 0.960 . S
H1870 C1862 0.930 . S
H1871 C1863 0.929 . S
H1872 C1880 0.929 . S
H1873 C1882 0.930 . S
H1874 C1884 0.930 . S
H1875 C1887 0.929 . S
H1876 C1890 0.930 . S
H1877 C1892 0.960 . S
H1878 C1892 0.960 . S
H1879 C1892 0.960 . S
C1880 H1872 0.929 . S
C1880 C1881 1.377 . S
C1880 C1882 1.384 . S
C1881 C1880 1.377 . S
C1881 C1887 1.390 . S
C1882 H1873 0.930 . S
C1882 C1880 1.384 . S
C1882 C1883 1.372 . S
C1883 C1882 1.372 . S
C1883 C1884 1.400 . S
C1883 C1888 1.490 . S
C1884 H1874 0.930 . S
C1884 C1883 1.400 . S
C1884 C1887 1.386 . S
H1885 C1901 0.930 . S
H1886 C1902 0.931 . S
C1887 H1875 0.929 . S
C1887 C1881 1.390 . S
C1887 C1884 1.386 . S
C1888 C1883 1.490 . S
C1888 C1890 1.395 . S
C1888 C1891 1.403 . S
H1889 C1895 0.930 . S
C1890 H1876 0.930 . S
C1890 C1888 1.395 . S
C1890 C1893 1.403 . S
C1891 C1888 1.403 . S
C1891 C1892 1.524 . S
C1891 C1895 1.400 . S
C1892 H1877 0.960 . S
C1892 H1878 0.960 . S
C1892 H1879 0.960 . S
C1892 C1891 1.524 . S
C1893 C1890 1.403 . S
C1893 C1894 1.392 . S
C1893 C1897 1.495 . S
C1894 C1893 1.392 . S
C1894 C1895 1.385 . S
C1894 C1896 1.478 . S
C1895 H1889 0.930 . S
C1895 C1891 1.400 . S
C1895 C1894 1.385 . S
C1896 C1894 1.478 . S
C1896 C1898 1.381 . S
C1896 C1902 1.383 . S
C1897 C1893 1.495 . S
C1897 H1903 0.959 . S
C1897 H1904 0.961 . S
C1897 H1905 0.960 . S
C1898 C1896 1.381 . S
C1898 C1899 1.394 . S
C1898 H1906 0.930 . S
C1899 C1898 1.394 . S
C1899 C1900 1.383 . S
C1899 H1907 0.929 . S
C1900 C1899 1.383 . S
C1900 C1901 1.377 . S
C1901 H1885 0.930 . S
C1901 C1900 1.377 . S
C1901 C1902 1.379 . S
C1902 H1886 0.931 . S
C1902 C1896 1.383 . S
C1902 C1901 1.379 . S
H1903 C1897 0.959 . S
H1904 C1897 0.961 . S
H1905 C1897 0.960 . S
H1906 C1898 0.930 . S
H1907 C1899 0.929 . S
H1908 C1916 0.929 . S
H1909 C1918 0.930 . S
H1910 C1920 0.930 . S
H1911 C1923 0.929 . S
H1912 C1926 0.930 . S
H1913 C1928 0.960 . S
H1914 C1928 0.960 . S
H1915 C1928 0.960 . S
C1916 H1908 0.929 . S
C1916 C1917 1.377 . S
C1916 C1918 1.384 . S
C1917 C1916 1.377 . S
C1917 C1923 1.390 . S
C1918 H1909 0.930 . S
C1918 C1916 1.384 . S
C1918 C1919 1.372 . S
C1919 C1918 1.372 . S
C1919 C1920 1.400 . S
C1919 C1924 1.490 . S
C1920 H1910 0.930 . S
C1920 C1919 1.400 . S
C1920 C1923 1.386 . S
H1921 C1937 0.930 . S
H1922 C1938 0.931 . S
C1923 H1911 0.929 . S
C1923 C1917 1.390 . S
C1923 C1920 1.386 . S
C1924 C1919 1.490 . S
C1924 C1926 1.395 . S
C1924 C1927 1.403 . S
H1925 C1931 0.930 . S
C1926 H1912 0.930 . S
C1926 C1924 1.395 . S
C1926 C1929 1.403 . S
C1927 C1924 1.403 . S
C1927 C1928 1.524 1_455 S
C1927 C1931 1.400 . S
C1928 H1913 0.960 . S
C1928 H1914 0.960 . S
C1928 H1915 0.960 . S
C1928 C1927 1.524 1_655 S
C1929 C1926 1.403 . S
C1929 C1930 1.392 . S
C1929 C1933 1.495 . S
C1930 C1929 1.392 . S
C1930 C1931 1.385 . S
C1930 C1932 1.478 . S
C1931 H1925 0.930 . S
C1931 C1927 1.400 . S
C1931 C1930 1.385 . S
C1932 C1930 1.478 . S
C1932 C1934 1.381 . S
C1932 C1938 1.383 . S
C1933 C1929 1.495 . S
C1933 H1939 0.959 . S
C1933 H1940 0.961 . S
C1933 H1941 0.960 . S
C1934 C1932 1.381 . S
C1934 C1935 1.394 . S
C1934 H1942 0.930 . S
C1935 C1934 1.394 . S
C1935 C1936 1.383 . S
C1935 H1943 0.929 . S
C1936 C1935 1.383 . S
C1936 C1937 1.377 . S
C1937 H1921 0.930 . S
C1937 C1936 1.377 . S
C1937 C1938 1.379 . S
C1938 H1922 0.931 . S
C1938 C1932 1.383 . S
C1938 C1937 1.379 . S
H1939 C1933 0.959 . S
H1940 C1933 0.961 . S
H1941 C1933 0.960 . S
H1942 C1934 0.930 . S
H1943 C1935 0.929 . S
H1944 C1952 0.929 . S
H1945 C1954 0.930 . S
H1946 C1956 0.930 . S
H1947 C1959 0.929 . S
H1948 C1962 0.930 . S
H1949 C1964 0.960 . S
H1950 C1964 0.960 . S
H1951 C1964 0.960 . S
C1952 H1944 0.929 . S
C1952 C1953 1.377 . S
C1952 C1954 1.384 . S
C1953 C1952 1.377 . S
C1953 C1959 1.390 . S
C1954 H1945 0.930 . S
C1954 C1952 1.384 . S
C1954 C1955 1.372 . S
C1955 C1954 1.372 . S
C1955 C1956 1.400 . S
C1955 C1960 1.490 . S
C1956 H1946 0.930 . S
C1956 C1955 1.400 . S
C1956 C1959 1.386 . S
H1957 C1973 0.930 . S
H1958 C1974 0.931 . S
C1959 H1947 0.929 . S
C1959 C1953 1.390 . S
C1959 C1956 1.386 . S
C1960 C1955 1.490 . S
C1960 C1962 1.395 . S
C1960 C1963 1.403 . S
H1961 C1967 0.930 . S
C1962 H1948 0.930 . S
C1962 C1960 1.395 . S
C1962 C1965 1.403 . S
C1963 C1960 1.403 . S
C1963 C1964 1.524 . S
C1963 C1967 1.400 . S
C1964 H1949 0.960 . S
C1964 H1950 0.960 . S
C1964 H1951 0.960 . S
C1964 C1963 1.524 . S
C1965 C1962 1.403 . S
C1965 C1966 1.392 . S
C1965 C1969 1.495 . S
C1966 C1965 1.392 . S
C1966 C1967 1.385 . S
C1966 C1968 1.478 . S
C1967 H1961 0.930 . S
C1967 C1963 1.400 . S
C1967 C1966 1.385 . S
C1968 C1966 1.478 . S
C1968 C1970 1.381 . S
C1968 C1974 1.383 . S
C1969 C1965 1.495 . S
C1969 H1975 0.959 . S
C1969 H1976 0.961 . S
C1969 H1977 0.960 . S
C1970 C1968 1.381 . S
C1970 C1971 1.394 . S
C1970 H1978 0.930 . S
C1971 C1970 1.394 . S
C1971 C1972 1.383 . S
C1971 H1979 0.929 . S
C1972 C1971 1.383 . S
C1972 C1973 1.377 . S
C1973 H1957 0.930 . S
C1973 C1972 1.377 . S
C1973 C1974 1.379 . S
C1974 H1958 0.931 . S
C1974 C1968 1.383 . S
C1974 C1973 1.379 . S
H1975 C1969 0.959 . S
H1976 C1969 0.961 . S
H1977 C1969 0.960 . S
H1978 C1970 0.930 . S
H1979 C1971 0.929 . S
H1980 C1988 0.929 . S
H1981 C1990 0.930 . S
H1982 C1992 0.930 . S
H1983 C1995 0.929 . S
H1984 C1998 0.930 . S
H1985 C2000 0.960 . S
H1986 C2000 0.960 . S
H1987 C2000 0.960 . S
C1988 H1980 0.929 . S
C1988 C1989 1.377 . S
C1988 C1990 1.384 . S
C1989 C1988 1.377 . S
C1989 C1995 1.390 1_565 S
C1990 H1981 0.930 . S
C1990 C1988 1.384 . S
C1990 C1991 1.372 . S
C1991 C1990 1.372 . S
C1991 C1992 1.400 1_565 S
C1991 C1996 1.490 . S
C1992 H1982 0.930 . S
C1992 C1991 1.400 1_545 S
C1992 C1995 1.386 . S
H1993 C2009 0.930 . S
H1994 C2010 0.931 . S
C1995 H1983 0.929 . S
C1995 C1989 1.390 1_545 S
C1995 C1992 1.386 . S
C1996 C1991 1.490 . S
C1996 C1998 1.395 . S
C1996 C1999 1.403 1_565 S
H1997 C2003 0.930 . S
C1998 H1984 0.930 . S
C1998 C1996 1.395 . S
C1998 C2001 1.403 . S
C1999 C1996 1.403 1_545 S
C1999 C2000 1.524 . S
C1999 C2003 1.400 . S
C2000 H1985 0.960 . S
C2000 H1986 0.960 . S
C2000 H1987 0.960 . S
C2000 C1999 1.524 . S
C2001 C1998 1.403 . S
C2001 C2002 1.392 . S
C2001 C2005 1.495 . S
C2002 C2001 1.392 . S
C2002 C2003 1.385 1_565 S
C2002 C2004 1.478 . S
C2003 H1997 0.930 . S
C2003 C1999 1.400 . S
C2003 C2002 1.385 1_545 S
C2004 C2002 1.478 . S
C2004 C2006 1.381 . S
C2004 C2010 1.383 1_565 S
C2005 C2001 1.495 . S
C2005 H2011 0.959 . S
C2005 H2012 0.961 . S
C2005 H2013 0.960 . S
C2006 C2004 1.381 . S
C2006 C2007 1.394 . S
C2006 H2014 0.930 . S
C2007 C2006 1.394 . S
C2007 C2008 1.383 . S
C2007 H2015 0.929 . S
C2008 C2007 1.383 . S
C2008 C2009 1.377 1_565 S
C2009 H1993 0.930 . S
C2009 C2008 1.377 1_545 S
C2009 C2010 1.379 . S
C2010 H1994 0.931 . S
C2010 C2004 1.383 1_545 S
C2010 C2009 1.379 . S
H2011 C2005 0.959 . S
H2012 C2005 0.961 . S
H2013 C2005 0.960 . S
H2014 C2006 0.930 . S
H2015 C2007 0.929 . S
H2016 C2024 0.929 . S
H2017 C2026 0.930 . S
H2018 C2028 0.930 . S
H2019 C2031 0.929 . S
H2020 C2034 0.930 . S
H2021 C2036 0.960 . S
H2022 C2036 0.960 . S
H2023 C2036 0.960 . S
C2024 H2016 0.929 . S
C2024 C2025 1.377 1_545 S
C2024 C2026 1.384 . S
C2025 C2024 1.377 1_565 S
C2025 C2031 1.390 . S
C2026 H2017 0.930 . S
C2026 C2024 1.384 . S
C2026 C2027 1.372 1_545 S
C2027 C2026 1.372 1_565 S
C2027 C2028 1.400 . S
C2027 C2032 1.490 . S
C2028 H2018 0.930 . S
C2028 C2027 1.400 . S
C2028 C2031 1.386 . S
H2029 C2045 0.930 . S
H2030 C2046 0.931 . S
C2031 H2019 0.929 . S
C2031 C2025 1.390 . S
C2031 C2028 1.386 . S
C2032 C2027 1.490 . S
C2032 C2034 1.395 1_565 S
C2032 C2035 1.403 . S
H2033 C2039 0.930 . S
C2034 H2020 0.930 . S
C2034 C2032 1.395 1_545 S
C2034 C2037 1.403 . S
C2035 C2032 1.403 . S
C2035 C2036 1.524 . S
C2035 C2039 1.400 . S
C2036 H2021 0.960 . S
C2036 H2022 0.960 . S
C2036 H2023 0.960 . S
C2036 C2035 1.524 . S
C2037 C2034 1.403 . S
C2037 C2038 1.392 . S
C2037 C2041 1.495 . S
C2038 C2037 1.392 . S
C2038 C2039 1.385 1_545 S
C2038 C2040 1.478 . S
C2039 H2033 0.930 . S
C2039 C2035 1.400 . S
C2039 C2038 1.385 1_565 S
C2040 C2038 1.478 . S
C2040 C2042 1.381 . S
C2040 C2046 1.383 1_545 S
C2041 C2037 1.495 . S
C2041 H2047 0.959 . S
C2041 H2048 0.961 . S
C2041 H2049 0.960 . S
C2042 C2040 1.381 . S
C2042 C2043 1.394 . S
C2042 H2050 0.930 . S
C2043 C2042 1.394 . S
C2043 C2044 1.383 . S
C2043 H2051 0.929 . S
C2044 C2043 1.383 . S
C2044 C2045 1.377 1_545 S
C2045 H2029 0.930 . S
C2045 C2044 1.377 1_565 S
C2045 C2046 1.379 . S
C2046 H2030 0.931 . S
C2046 C2040 1.383 1_565 S
C2046 C2045 1.379 . S
H2047 C2041 0.959 . S
H2048 C2041 0.961 . S
H2049 C2041 0.960 . S
H2050 C2042 0.930 . S
H2051 C2043 0.929 . S
H2052 C2060 0.929 . S
H2053 C2062 0.930 . S
H2054 C2064 0.930 . S
H2055 C2067 0.929 . S
H2056 C2070 0.930 . S
H2057 C2072 0.960 . S
H2058 C2072 0.960 . S
H2059 C2072 0.960 1_655 S
C2060 H2052 0.929 . S
C2060 C2061 1.377 . S
C2060 C2062 1.384 . S
C2061 C2060 1.377 . S
C2061 C2067 1.390 . S
C2062 H2053 0.930 . S
C2062 C2060 1.384 . S
C2062 C2063 1.372 . S
C2063 C2062 1.372 . S
C2063 C2064 1.400 . S
C2063 C2068 1.490 . S
C2064 H2054 0.930 . S
C2064 C2063 1.400 . S
C2064 C2067 1.386 . S
H2065 C2081 0.930 1_655 S
H2066 C2082 0.931 . S
C2067 H2055 0.929 . S
C2067 C2061 1.390 . S
C2067 C2064 1.386 . S
C2068 C2063 1.490 . S
C2068 C2070 1.395 . S
C2068 C2071 1.403 . S
H2069 C2075 0.930 . S
C2070 H2056 0.930 . S
C2070 C2068 1.395 . S
C2070 C2073 1.403 . S
C2071 C2068 1.403 . S
C2071 C2072 1.524 . S
C2071 C2075 1.400 . S
C2072 H2057 0.960 . S
C2072 H2058 0.960 . S
C2072 H2059 0.960 1_455 S
C2072 C2071 1.524 . S
C2073 C2070 1.403 . S
C2073 C2074 1.392 . S
C2073 C2077 1.495 . S
C2074 C2073 1.392 . S
C2074 C2075 1.385 . S
C2074 C2076 1.478 . S
C2075 H2069 0.930 . S
C2075 C2071 1.400 . S
C2075 C2074 1.385 . S
C2076 C2074 1.478 . S
C2076 C2078 1.381 . S
C2076 C2082 1.383 . S
C2077 C2073 1.495 . S
C2077 H2083 0.959 . S
C2077 H2084 0.961 . S
C2077 H2085 0.960 . S
C2078 C2076 1.381 . S
C2078 C2079 1.394 . S
C2078 H2086 0.930 . S
C2079 C2078 1.394 . S
C2079 C2080 1.383 . S
C2079 H2087 0.929 . S
C2080 C2079 1.383 . S
C2080 C2081 1.377 . S
C2081 H2065 0.930 1_455 S
C2081 C2080 1.377 . S
C2081 C2082 1.379 . S
C2082 H2066 0.931 . S
C2082 C2076 1.383 . S
C2082 C2081 1.379 . S
H2083 C2077 0.959 . S
H2084 C2077 0.961 . S
H2085 C2077 0.960 . S
H2086 C2078 0.930 . S
H2087 C2079 0.929 . S
H2088 C2096 0.929 . S
H2089 C2098 0.930 . S
H2090 C2100 0.930 . S
H2091 C2103 0.929 . S
H2092 C2106 0.930 . S
H2093 C2108 0.960 . S
H2094 C2108 0.960 . S
H2095 C2108 0.960 . S
C2096 H2088 0.929 . S
C2096 C2097 1.377 . S
C2096 C2098 1.384 . S
C2097 C2096 1.377 . S
C2097 C2103 1.390 . S
C2098 H2089 0.930 . S
C2098 C2096 1.384 . S
C2098 C2099 1.372 . S
C2099 C2098 1.372 . S
C2099 C2100 1.400 . S
C2099 C2104 1.490 . S
C2100 H2090 0.930 . S
C2100 C2099 1.400 . S
C2100 C2103 1.386 . S
H2101 C2117 0.930 . S
H2102 C2118 0.931 . S
C2103 H2091 0.929 . S
C2103 C2097 1.390 . S
C2103 C2100 1.386 . S
C2104 C2099 1.490 . S
C2104 C2106 1.395 . S
C2104 C2107 1.403 . S
H2105 C2111 0.930 . S
C2106 H2092 0.930 . S
C2106 C2104 1.395 . S
C2106 C2109 1.403 . S
C2107 C2104 1.403 . S
C2107 C2108 1.524 . S
C2107 C2111 1.400 . S
C2108 H2093 0.960 . S
C2108 H2094 0.960 . S
C2108 H2095 0.960 . S
C2108 C2107 1.524 . S
C2109 C2106 1.403 . S
C2109 C2110 1.392 . S
C2109 C2113 1.495 . S
C2110 C2109 1.392 . S
C2110 C2111 1.385 . S
C2110 C2112 1.478 . S
C2111 H2105 0.930 . S
C2111 C2107 1.400 . S
C2111 C2110 1.385 . S
C2112 C2110 1.478 . S
C2112 C2114 1.381 . S
C2112 C2118 1.383 . S
C2113 C2109 1.495 . S
C2113 H2119 0.959 . S
C2113 H2120 0.961 . S
C2113 H2121 0.960 . S
C2114 C2112 1.381 . S
C2114 C2115 1.394 . S
C2114 H2122 0.930 . S
C2115 C2114 1.394 . S
C2115 C2116 1.383 . S
C2115 H2123 0.929 . S
C2116 C2115 1.383 . S
C2116 C2117 1.377 . S
C2117 H2101 0.930 . S
C2117 C2116 1.377 . S
C2117 C2118 1.379 . S
C2118 H2102 0.931 . S
C2118 C2112 1.383 . S
C2118 C2117 1.379 . S
H2119 C2113 0.959 . S
H2120 C2113 0.961 . S
H2121 C2113 0.960 . S
H2122 C2114 0.930 . S
H2123 C2115 0.929 . S
H2124 C2132 0.929 . S
H2125 C2134 0.930 . S
H2126 C2136 0.946 . S
H2127 C2139 0.906 1_455 S
H2128 C2142 0.930 . S
H2129 C2144 0.960 . S
H2130 C2144 0.960 . S
H2131 C2144 0.960 . S
C2132 H2124 0.929 . S
C2132 C2133 1.377 . S
C2132 C2134 1.384 . S
C2133 C2132 1.377 . S
C2133 C2139 1.401 . S
C2134 H2125 0.930 . S
C2134 C2132 1.384 . S
C2134 C2135 1.372 . S
C2135 C2134 1.372 . S
C2135 C2136 1.368 1_655 S
C2135 C2140 1.490 . S
C2136 H2126 0.946 . S
C2136 C2135 1.368 1_455 S
C2136 C2139 1.417 1_455 S
H2137 C2153 0.930 . S
H2138 C2154 0.931 . S
C2139 H2127 0.906 1_655 S
C2139 C2133 1.401 . S
C2139 C2136 1.417 1_655 S
C2140 C2135 1.490 . S
C2140 C2142 1.395 . S
C2140 C2143 1.403 1_655 S
H2141 C2147 0.930 . S
C2142 H2128 0.930 . S
C2142 C2140 1.395 . S
C2142 C2145 1.403 . S
C2143 C2140 1.403 1_455 S
C2143 C2144 1.524 . S
C2143 C2147 1.400 . S
C2144 H2129 0.960 . S
C2144 H2130 0.960 . S
C2144 H2131 0.960 . S
C2144 C2143 1.524 . S
C2145 C2142 1.403 . S
C2145 C2146 1.392 . S
C2145 C2149 1.495 . S
C2146 C2145 1.392 . S
C2146 C2147 1.385 1_655 S
C2146 C2148 1.478 . S
C2147 H2141 0.930 . S
C2147 C2143 1.400 . S
C2147 C2146 1.385 1_455 S
C2148 C2146 1.478 . S
C2148 C2150 1.381 . S
C2148 C2154 1.383 1_655 S
C2149 C2145 1.495 . S
C2149 H2155 0.959 . S
C2149 H2156 0.961 . S
C2149 H2157 0.960 . S
C2150 C2148 1.381 . S
C2150 C2151 1.394 . S
C2150 H2158 0.930 . S
C2151 C2150 1.394 . S
C2151 C2152 1.383 . S
C2151 H2159 0.929 . S
C2152 C2151 1.383 . S
C2152 C2153 1.377 1_655 S
C2153 H2137 0.930 . S
C2153 C2152 1.377 1_455 S
C2153 C2154 1.379 . S
C2154 H2138 0.931 . S
C2154 C2148 1.383 1_455 S
C2154 C2153 1.379 . S
H2155 C2149 0.959 . S
H2156 C2149 0.961 . S
H2157 C2149 0.960 . S
H2158 C2150 0.930 . S
H2159 C2151 0.929 . S
H2160 C2168 0.929 . S
H2161 C2170 0.930 . S
H2162 C2172 0.930 . S
H2163 C2175 0.929 . S
H2164 C2178 0.930 . S
H2165 C2180 0.960 . S
H2166 C2180 0.960 . S
H2167 C2180 0.960 . S
C2168 H2160 0.929 . S
C2168 C2169 1.377 . S
C2168 C2170 1.384 . S
C2169 C2168 1.377 . S
C2169 C2175 1.390 . S
C2170 H2161 0.930 . S
C2170 C2168 1.384 . S
C2170 C2171 1.372 . S
C2171 C2170 1.372 . S
C2171 C2172 1.400 . S
C2171 C2176 1.490 . S
C2172 H2162 0.930 . S
C2172 C2171 1.400 . S
C2172 C2175 1.386 . S
H2173 C2189 0.930 . S
H2174 C2190 0.931 . S
C2175 H2163 0.929 . S
C2175 C2169 1.390 . S
C2175 C2172 1.386 . S
C2176 C2171 1.490 . S
C2176 C2178 1.395 . S
C2176 C2179 1.403 . S
H2177 C2183 0.930 . S
C2178 H2164 0.930 . S
C2178 C2176 1.395 . S
C2178 C2181 1.403 . S
C2179 C2176 1.403 . S
C2179 C2180 1.524 . S
C2179 C2183 1.400 . S
C2180 H2165 0.960 . S
C2180 H2166 0.960 . S
C2180 H2167 0.960 . S
C2180 C2179 1.524 . S
C2181 C2178 1.403 . S
C2181 C2182 1.392 . S
C2181 C2185 1.495 . S
C2182 C2181 1.392 . S
C2182 C2183 1.385 . S
C2182 C2184 1.478 . S
C2183 H2177 0.930 . S
C2183 C2179 1.400 . S
C2183 C2182 1.385 . S
C2184 C2182 1.478 . S
C2184 C2186 1.381 . S
C2184 C2190 1.383 . S
C2185 C2181 1.495 . S
C2185 H2191 0.959 . S
C2185 H2192 0.961 . S
C2185 H2193 0.960 . S
C2186 C2184 1.381 . S
C2186 C2187 1.394 . S
C2186 H2194 0.930 . S
C2187 C2186 1.394 . S
C2187 C2188 1.383 . S
C2187 H2195 0.929 . S
C2188 C2187 1.383 . S
C2188 C2189 1.377 . S
C2189 H2173 0.930 . S
C2189 C2188 1.377 . S
C2189 C2190 1.379 . S
C2190 H2174 0.931 . S
C2190 C2184 1.383 . S
C2190 C2189 1.379 . S
H2191 C2185 0.959 . S
H2192 C2185 0.961 . S
H2193 C2185 0.960 . S
H2194 C2186 0.930 . S
H2195 C2187 0.929 . S
H2196 C2204 0.929 . S
H2197 C2206 0.930 . S
H2198 C2208 0.930 . S
H2199 C2211 0.929 . S
H2200 C2214 0.930 . S
H2201 C2216 0.960 . S
H2202 C2216 0.960 . S
H2203 C2216 0.960 . S
C2204 H2196 0.929 . S
C2204 C2205 1.377 . S
C2204 C2206 1.384 . S
C2205 C2204 1.377 . S
C2205 C2211 1.390 . S
C2206 H2197 0.930 . S
C2206 C2204 1.384 . S
C2206 C2207 1.372 . S
C2207 C2206 1.372 . S
C2207 C2208 1.400 . S
C2207 C2212 1.490 . S
C2208 H2198 0.930 . S
C2208 C2207 1.400 . S
C2208 C2211 1.386 . S
H2209 C2225 0.919 1_565 S
H2210 C2226 0.931 . S
C2211 H2199 0.929 . S
C2211 C2205 1.390 . S
C2211 C2208 1.386 . S
C2212 C2207 1.490 . S
C2212 C2214 1.395 . S
C2212 C2215 1.403 . S
H2213 C2219 0.930 . S
C2214 H2200 0.930 . S
C2214 C2212 1.395 . S
C2214 C2217 1.403 . S
C2215 C2212 1.403 . S
C2215 C2216 1.524 . S
C2215 C2219 1.400 . S
C2216 H2201 0.960 . S
C2216 H2202 0.960 . S
C2216 H2203 0.960 . S
C2216 C2215 1.524 . S
C2217 C2214 1.403 . S
C2217 C2218 1.392 . S
C2217 C2221 1.495 . S
C2218 C2217 1.392 . S
C2218 C2219 1.385 . S
C2218 C2220 1.478 . S
C2219 H2213 0.930 . S
C2219 C2215 1.400 . S
C2219 C2218 1.385 . S
C2220 C2218 1.478 . S
C2220 C2222 1.381 . S
C2220 C2226 1.383 . S
C2221 C2217 1.495 . S
C2221 H2227 0.959 . S
C2221 H2228 0.961 . S
C2221 H2229 0.960 . S
C2222 C2220 1.381 . S
C2222 C2223 1.394 . S
C2222 H2230 0.930 . S
C2223 C2222 1.394 . S
C2223 C2224 1.383 . S
C2223 H2231 0.929 . S
C2224 C2223 1.383 . S
C2224 C2225 1.377 . S
C2225 H2209 0.919 1_545 S
C2225 C2224 1.377 . S
C2225 C2226 1.379 . S
C2226 H2210 0.931 . S
C2226 C2220 1.383 . S
C2226 C2225 1.379 . S
H2227 C2221 0.959 . S
H2228 C2221 0.961 . S
H2229 C2221 0.960 . S
H2230 C2222 0.930 . S
H2231 C2223 0.929 . S
H2232 C2240 0.929 . S
H2233 C2242 0.930 . S
H2234 C2244 0.930 . S
H2235 C2247 0.929 . S
H2236 C2250 0.930 . S
H2237 C2252 0.960 . S
H2238 C2252 0.960 . S
H2239 C2252 0.960 . S
C2240 H2232 0.929 . S
C2240 C2241 1.377 . S
C2240 C2242 1.384 . S
C2241 C2240 1.377 . S
C2241 C2247 1.390 . S
C2242 H2233 0.930 . S
C2242 C2240 1.384 . S
C2242 C2243 1.372 . S
C2243 C2242 1.372 . S
C2243 C2244 1.400 . S
C2243 C2248 1.490 . S
C2244 H2234 0.930 . S
C2244 C2243 1.400 . S
C2244 C2247 1.386 . S
H2245 C2261 0.930 . S
H2246 C2262 0.931 . S
C2247 H2235 0.929 . S
C2247 C2241 1.390 . S
C2247 C2244 1.386 . S
C2248 C2243 1.490 . S
C2248 C2250 1.395 . S
C2248 C2251 1.403 . S
H2249 C2255 0.930 . S
C2250 H2236 0.930 . S
C2250 C2248 1.395 . S
C2250 C2253 1.403 . S
C2251 C2248 1.403 . S
C2251 C2252 1.524 . S
C2251 C2255 1.400 . S
C2252 H2237 0.960 . S
C2252 H2238 0.960 . S
C2252 H2239 0.960 . S
C2252 C2251 1.524 . S
C2253 C2250 1.403 . S
C2253 C2254 1.392 . S
C2253 C2257 1.495 . S
C2254 C2253 1.392 . S
C2254 C2255 1.385 . S
C2254 C2256 1.478 . S
C2255 H2249 0.930 . S
C2255 C2251 1.400 . S
C2255 C2254 1.385 . S
C2256 C2254 1.478 . S
C2256 C2258 1.381 . S
C2256 C2262 1.383 . S
C2257 C2253 1.495 . S
C2257 H2263 0.959 . S
C2257 H2264 0.961 . S
C2257 H2265 0.960 . S
C2258 C2256 1.381 . S
C2258 C2259 1.394 . S
C2258 H2266 0.930 . S
C2259 C2258 1.394 . S
C2259 C2260 1.383 . S
C2259 H2267 0.929 . S
C2260 C2259 1.383 . S
C2260 C2261 1.377 . S
C2261 H2245 0.930 . S
C2261 C2260 1.377 . S
C2261 C2262 1.379 . S
C2262 H2246 0.931 . S
C2262 C2256 1.383 . S
C2262 C2261 1.379 . S
H2263 C2257 0.959 . S
H2264 C2257 0.961 . S
H2265 C2257 0.960 . S
H2266 C2258 0.930 . S
H2267 C2259 0.929 . S
H2268 C2276 0.929 . S
H2269 C2278 0.930 . S
H2270 C2280 0.930 . S
H2271 C2283 0.929 . S
H2272 C2286 0.930 . S
H2273 C2288 0.960 . S
H2274 C2288 0.960 . S
H2275 C2288 0.960 . S
C2276 H2268 0.929 . S
C2276 C2277 1.377 . S
C2276 C2278 1.384 . S
C2277 C2276 1.377 . S
C2277 C2283 1.390 . S
C2278 H2269 0.930 . S
C2278 C2276 1.384 . S
C2278 C2279 1.372 . S
C2279 C2278 1.372 . S
C2279 C2280 1.400 . S
C2279 C2284 1.490 . S
C2280 H2270 0.930 . S
C2280 C2279 1.400 . S
C2280 C2283 1.386 . S
H2281 C2297 0.930 . S
H2282 C2298 0.931 . S
C2283 H2271 0.929 . S
C2283 C2277 1.390 . S
C2283 C2280 1.386 . S
C2284 C2279 1.490 . S
C2284 C2286 1.395 . S
C2284 C2287 1.403 . S
H2285 C2291 0.930 . S
C2286 H2272 0.930 . S
C2286 C2284 1.395 . S
C2286 C2289 1.403 . S
C2287 C2284 1.403 . S
C2287 C2288 1.524 . S
C2287 C2291 1.400 . S
C2288 H2273 0.960 . S
C2288 H2274 0.960 . S
C2288 H2275 0.960 . S
C2288 C2287 1.524 . S
C2289 C2286 1.403 . S
C2289 C2290 1.392 . S
C2289 C2293 1.495 . S
C2290 C2289 1.392 . S
C2290 C2291 1.385 . S
C2290 C2292 1.478 . S
C2291 H2285 0.930 . S
C2291 C2287 1.400 . S
C2291 C2290 1.385 . S
C2292 C2290 1.478 . S
C2292 C2294 1.381 . S
C2292 C2298 1.383 . S
C2293 C2289 1.495 . S
C2293 H2299 0.959 . S
C2293 H2300 0.961 . S
C2293 H2301 0.960 . S
C2294 C2292 1.381 . S
C2294 C2295 1.394 . S
C2294 H2302 0.930 . S
C2295 C2294 1.394 . S
C2295 C2296 1.383 . S
C2295 H2303 0.929 . S
C2296 C2295 1.383 . S
C2296 C2297 1.377 . S
C2297 H2281 0.930 . S
C2297 C2296 1.377 . S
C2297 C2298 1.379 . S
C2298 H2282 0.931 . S
C2298 C2292 1.383 . S
C2298 C2297 1.379 . S
H2299 C2293 0.959 . S
H2300 C2293 0.961 . S
H2301 C2293 0.960 . S
H2302 C2294 0.930 . S
H2303 C2295 0.929 . S
H2304 C2312 0.929 . S
H2305 C2314 0.930 . S
H2306 C2316 0.930 . S
H2307 C2319 0.929 . S
H2308 C2322 0.930 . S
H2309 C2324 0.960 . S
H2310 C2324 0.960 . S
H2311 C2324 0.960 . S
C2312 H2304 0.929 . S
C2312 C2313 1.377 . S
C2312 C2314 1.384 . S
C2313 C2312 1.377 . S
C2313 C2319 1.390 . S
C2314 H2305 0.930 . S
C2314 C2312 1.384 . S
C2314 C2315 1.372 . S
C2315 C2314 1.372 . S
C2315 C2316 1.400 . S
C2315 C2320 1.490 . S
C2316 H2306 0.930 . S
C2316 C2315 1.400 . S
C2316 C2319 1.386 . S
H2317 C2333 0.930 . S
H2318 C2334 0.931 . S
C2319 H2307 0.929 . S
C2319 C2313 1.390 . S
C2319 C2316 1.386 . S
C2320 C2315 1.490 . S
C2320 C2322 1.395 . S
C2320 C2323 1.403 . S
H2321 C2327 0.930 . S
C2322 H2308 0.930 . S
C2322 C2320 1.395 . S
C2322 C2325 1.403 . S
C2323 C2320 1.403 . S
C2323 C2324 1.524 . S
C2323 C2327 1.400 . S
C2324 H2309 0.960 . S
C2324 H2310 0.960 . S
C2324 H2311 0.960 . S
C2324 C2323 1.524 . S
C2325 C2322 1.403 . S
C2325 C2326 1.392 . S
C2325 C2329 1.495 . S
C2326 C2325 1.392 . S
C2326 C2327 1.385 . S
C2326 C2328 1.478 . S
C2327 H2321 0.930 . S
C2327 C2323 1.400 . S
C2327 C2326 1.385 . S
C2328 C2326 1.478 . S
C2328 C2330 1.381 . S
C2328 C2334 1.383 . S
C2329 C2325 1.495 . S
C2329 H2335 0.959 . S
C2329 H2336 0.961 . S
C2329 H2337 0.960 . S
C2330 C2328 1.381 . S
C2330 C2331 1.394 . S
C2330 H2338 0.930 . S
C2331 C2330 1.394 . S
C2331 C2332 1.383 . S
C2331 H2339 0.929 . S
C2332 C2331 1.383 . S
C2332 C2333 1.377 . S
C2333 H2317 0.930 . S
C2333 C2332 1.377 . S
C2333 C2334 1.379 . S
C2334 H2318 0.931 . S
C2334 C2328 1.383 . S
C2334 C2333 1.379 . S
H2335 C2329 0.959 . S
H2336 C2329 0.961 . S
H2337 C2329 0.960 . S
H2338 C2330 0.930 . S
H2339 C2331 0.929 . S
H2340 C2348 0.929 . S
H2341 C2350 0.930 . S
H2342 C2352 0.930 . S
H2343 C2355 0.929 . S
H2344 C2358 0.930 . S
H2345 C2360 0.960 . S
H2346 C2360 0.960 . S
H2347 C2360 0.960 . S
C2348 H2340 0.929 . S
C2348 C2349 1.377 . S
C2348 C2350 1.384 . S
C2349 C2348 1.377 . S
C2349 C2355 1.390 . S
C2350 H2341 0.930 . S
C2350 C2348 1.384 . S
C2350 C2351 1.372 . S
C2351 C2350 1.372 . S
C2351 C2352 1.400 . S
C2351 C2356 1.490 . S
C2352 H2342 0.930 . S
C2352 C2351 1.400 . S
C2352 C2355 1.386 . S
H2353 C2369 0.930 . S
H2354 C2370 0.931 . S
C2355 H2343 0.929 . S
C2355 C2349 1.390 . S
C2355 C2352 1.386 . S
C2356 C2351 1.490 . S
C2356 C2358 1.395 . S
C2356 C2359 1.403 . S
H2357 C2363 0.930 . S
C2358 H2344 0.930 . S
C2358 C2356 1.395 . S
C2358 C2361 1.403 . S
C2359 C2356 1.403 . S
C2359 C2360 1.524 . S
C2359 C2363 1.400 . S
C2360 H2345 0.960 . S
C2360 H2346 0.960 . S
C2360 H2347 0.960 . S
C2360 C2359 1.524 . S
C2361 C2358 1.403 . S
C2361 C2362 1.392 . S
C2361 C2365 1.495 . S
C2362 C2361 1.392 . S
C2362 C2363 1.385 . S
C2362 C2364 1.478 . S
C2363 H2357 0.930 . S
C2363 C2359 1.400 . S
C2363 C2362 1.385 . S
C2364 C2362 1.478 . S
C2364 C2366 1.381 . S
C2364 C2370 1.383 . S
C2365 C2361 1.495 . S
C2365 H2371 0.959 . S
C2365 H2372 0.961 . S
C2365 H2373 0.960 . S
C2366 C2364 1.381 . S
C2366 C2367 1.394 . S
C2366 H2374 0.930 . S
C2367 C2366 1.394 . S
C2367 C2368 1.383 . S
C2367 H2375 0.929 . S
C2368 C2367 1.383 . S
C2368 C2369 1.377 . S
C2369 H2353 0.930 . S
C2369 C2368 1.377 . S
C2369 C2370 1.379 . S
C2370 H2354 0.931 . S
C2370 C2364 1.383 . S
C2370 C2369 1.379 . S
H2371 C2365 0.959 . S
H2372 C2365 0.961 . S
H2373 C2365 0.960 . S
H2374 C2366 0.930 . S
H2375 C2367 0.929 . S
H2376 C2384 0.929 . S
H2377 C2386 0.930 . S
H2378 C2388 0.930 . S
H2379 C2391 0.929 . S
H2380 C2394 0.930 . S
H2381 C2396 0.960 . S
H2382 C2396 0.960 . S
H2383 C2396 0.960 . S
C2384 H2376 0.929 . S
C2384 C2385 1.377 . S
C2384 C2386 1.384 . S
C2385 C2384 1.377 . S
C2385 C2391 1.390 . S
C2386 H2377 0.930 . S
C2386 C2384 1.384 . S
C2386 C2387 1.372 . S
C2387 C2386 1.372 . S
C2387 C2388 1.400 . S
C2387 C2392 1.490 . S
C2388 H2378 0.930 . S
C2388 C2387 1.400 . S
C2388 C2391 1.386 . S
H2389 C2405 0.930 . S
H2390 C2406 0.931 . S
C2391 H2379 0.929 . S
C2391 C2385 1.390 . S
C2391 C2388 1.386 . S
C2392 C2387 1.490 . S
C2392 C2394 1.395 . S
C2392 C2395 1.403 . S
H2393 C2399 0.930 . S
C2394 H2380 0.930 . S
C2394 C2392 1.395 . S
C2394 C2397 1.403 . S
C2395 C2392 1.403 . S
C2395 C2396 1.524 . S
C2395 C2399 1.400 . S
C2396 H2381 0.960 . S
C2396 H2382 0.960 . S
C2396 H2383 0.960 . S
C2396 C2395 1.524 . S
C2397 C2394 1.403 . S
C2397 C2398 1.392 . S
C2397 C2401 1.495 . S
C2398 C2397 1.392 . S
C2398 C2399 1.385 . S
C2398 C2400 1.478 . S
C2399 H2393 0.930 . S
C2399 C2395 1.400 . S
C2399 C2398 1.385 . S
C2400 C2398 1.478 . S
C2400 C2402 1.381 . S
C2400 C2406 1.383 . S
C2401 C2397 1.495 . S
C2401 H2407 0.959 . S
C2401 H2408 0.961 . S
C2401 H2409 0.960 . S
C2402 C2400 1.381 . S
C2402 C2403 1.394 . S
C2402 H2410 0.930 . S
C2403 C2402 1.394 . S
C2403 C2404 1.383 . S
C2403 H2411 0.929 . S
C2404 C2403 1.383 . S
C2404 C2405 1.377 . S
C2405 H2389 0.930 . S
C2405 C2404 1.377 . S
C2405 C2406 1.379 . S
C2406 H2390 0.931 . S
C2406 C2400 1.383 . S
C2406 C2405 1.379 . S
H2407 C2401 0.959 . S
H2408 C2401 0.961 . S
H2409 C2401 0.960 . S
H2410 C2402 0.930 . S
H2411 C2403 0.929 . S
H2412 C2420 0.929 . S
H2413 C2422 0.930 . S
H2414 C2424 0.930 . S
H2415 C2427 0.929 . S
H2416 C2430 0.930 . S
H2417 C2432 0.960 . S
H2418 C2432 0.960 . S
H2419 C2432 0.960 . S
C2420 H2412 0.929 . S
C2420 C2421 1.377 . S
C2420 C2422 1.384 . S
C2421 C2420 1.377 . S
C2421 C2427 1.390 . S
C2422 H2413 0.930 . S
C2422 C2420 1.384 . S
C2422 C2423 1.372 . S
C2423 C2422 1.372 . S
C2423 C2424 1.400 . S
C2423 C2428 1.490 . S
C2424 H2414 0.930 . S
C2424 C2423 1.400 . S
C2424 C2427 1.386 . S
H2425 C2441 0.930 . S
H2426 C2442 0.931 . S
C2427 H2415 0.929 . S
C2427 C2421 1.390 . S
C2427 C2424 1.386 . S
C2428 C2423 1.490 . S
C2428 C2430 1.395 . S
C2428 C2431 1.403 . S
H2429 C2435 0.930 . S
C2430 H2416 0.930 . S
C2430 C2428 1.395 . S
C2430 C2433 1.403 . S
C2431 C2428 1.403 . S
C2431 C2432 1.524 . S
C2431 C2435 1.400 . S
C2432 H2417 0.960 . S
C2432 H2418 0.960 . S
C2432 H2419 0.960 . S
C2432 C2431 1.524 . S
C2433 C2430 1.403 . S
C2433 C2434 1.392 . S
C2433 C2437 1.495 . S
C2434 C2433 1.392 . S
C2434 C2435 1.385 . S
C2434 C2436 1.478 . S
C2435 H2429 0.930 . S
C2435 C2431 1.400 . S
C2435 C2434 1.385 . S
C2436 C2434 1.478 . S
C2436 C2438 1.381 . S
C2436 C2442 1.383 . S
C2437 C2433 1.495 . S
C2437 H2443 0.959 . S
C2437 H2444 0.961 . S
C2437 H2445 0.960 . S
C2438 C2436 1.381 . S
C2438 C2439 1.394 . S
C2438 H2446 0.930 . S
C2439 C2438 1.394 . S
C2439 C2440 1.383 . S
C2439 H2447 0.929 . S
C2440 C2439 1.383 . S
C2440 C2441 1.377 . S
C2441 H2425 0.930 . S
C2441 C2440 1.377 . S
C2441 C2442 1.379 . S
C2442 H2426 0.931 . S
C2442 C2436 1.383 . S
C2442 C2441 1.379 . S
H2443 C2437 0.959 . S
H2444 C2437 0.961 . S
H2445 C2437 0.960 . S
H2446 C2438 0.930 . S
H2447 C2439 0.929 . S
H2448 C2456 0.929 . S
H2449 C2458 0.930 . S
H2450 C2460 0.930 . S
H2451 C2463 0.929 . S
H2452 C2466 0.930 . S
H2453 C2468 0.960 . S
H2454 C2468 0.960 . S
H2455 C2468 0.960 . S
C2456 H2448 0.929 . S
C2456 C2457 1.377 . S
C2456 C2458 1.384 . S
C2457 C2456 1.377 . S
C2457 C2463 1.390 . S
C2458 H2449 0.930 . S
C2458 C2456 1.384 . S
C2458 C2459 1.372 . S
C2459 C2458 1.372 . S
C2459 C2460 1.400 . S
C2459 C2464 1.490 . S
C2460 H2450 0.930 . S
C2460 C2459 1.400 . S
C2460 C2463 1.386 . S
H2461 C2477 0.930 . S
H2462 C2478 0.931 . S
C2463 H2451 0.929 . S
C2463 C2457 1.390 . S
C2463 C2460 1.386 . S
C2464 C2459 1.490 . S
C2464 C2466 1.395 . S
C2464 C2467 1.403 . S
H2465 C2471 0.930 . S
C2466 H2452 0.930 . S
C2466 C2464 1.395 . S
C2466 C2469 1.403 . S
C2467 C2464 1.403 . S
C2467 C2468 1.524 . S
C2467 C2471 1.400 . S
C2468 H2453 0.960 . S
C2468 H2454 0.960 . S
C2468 H2455 0.960 . S
C2468 C2467 1.524 . S
C2469 C2466 1.403 . S
C2469 C2470 1.392 . S
C2469 C2473 1.495 . S
C2470 C2469 1.392 . S
C2470 C2471 1.385 . S
C2470 C2472 1.478 . S
C2471 H2465 0.930 . S
C2471 C2467 1.400 . S
C2471 C2470 1.385 . S
C2472 C2470 1.478 . S
C2472 C2474 1.381 . S
C2472 C2478 1.383 . S
C2473 C2469 1.495 . S
C2473 H2479 0.959 . S
C2473 H2480 0.961 . S
C2473 H2481 0.960 . S
C2474 C2472 1.381 . S
C2474 C2475 1.394 . S
C2474 H2482 0.930 . S
C2475 C2474 1.394 . S
C2475 C2476 1.383 . S
C2475 H2483 0.929 . S
C2476 C2475 1.383 . S
C2476 C2477 1.377 . S
C2477 H2461 0.930 . S
C2477 C2476 1.377 . S
C2477 C2478 1.379 . S
C2478 H2462 0.931 . S
C2478 C2472 1.383 . S
C2478 C2477 1.379 . S
H2479 C2473 0.959 . S
H2480 C2473 0.961 . S
H2481 C2473 0.960 . S
H2482 C2474 0.930 . S
H2483 C2475 0.929 . S
H2484 C2492 0.929 . S
H2485 C2494 0.930 . S
H2486 C2496 0.930 . S
H2487 C2499 0.929 . S
H2488 C2502 0.930 . S
H2489 C2504 0.960 . S
H2490 C2504 0.960 . S
H2491 C2504 0.960 . S
C2492 H2484 0.929 . S
C2492 C2493 1.377 . S
C2492 C2494 1.384 . S
C2493 C2492 1.377 . S
C2493 C2499 1.390 . S
C2494 H2485 0.930 . S
C2494 C2492 1.384 . S
C2494 C2495 1.372 . S
C2495 C2494 1.372 . S
C2495 C2496 1.400 . S
C2495 C2500 1.490 . S
C2496 H2486 0.930 . S
C2496 C2495 1.400 . S
C2496 C2499 1.386 . S
H2497 C2513 0.930 . S
H2498 C2514 0.931 . S
C2499 H2487 0.929 . S
C2499 C2493 1.390 . S
C2499 C2496 1.386 . S
C2500 C2495 1.490 . S
C2500 C2502 1.395 . S
C2500 C2503 1.403 . S
H2501 C2507 0.930 . S
C2502 H2488 0.930 . S
C2502 C2500 1.395 . S
C2502 C2505 1.403 . S
C2503 C2500 1.403 . S
C2503 C2504 1.524 . S
C2503 C2507 1.400 . S
C2504 H2489 0.960 . S
C2504 H2490 0.960 . S
C2504 H2491 0.960 . S
C2504 C2503 1.524 . S
C2505 C2502 1.403 . S
C2505 C2506 1.392 . S
C2505 C2509 1.495 . S
C2506 C2505 1.392 . S
C2506 C2507 1.385 . S
C2506 C2508 1.478 . S
C2507 H2501 0.930 . S
C2507 C2503 1.400 . S
C2507 C2506 1.385 . S
C2508 C2506 1.478 . S
C2508 C2510 1.381 . S
C2508 C2514 1.383 . S
C2509 C2505 1.495 . S
C2509 H2515 0.959 . S
C2509 H2516 0.961 . S
C2509 H2517 0.960 . S
C2510 C2508 1.381 . S
C2510 C2511 1.394 . S
C2510 H2518 0.930 . S
C2511 C2510 1.394 . S
C2511 C2512 1.383 . S
C2511 H2519 0.929 . S
C2512 C2511 1.383 . S
C2512 C2513 1.377 . S
C2513 H2497 0.930 . S
C2513 C2512 1.377 . S
C2513 C2514 1.379 . S
C2514 H2498 0.931 . S
C2514 C2508 1.383 . S
C2514 C2513 1.379 . S
H2515 C2509 0.959 . S
H2516 C2509 0.961 . S
H2517 C2509 0.960 . S
H2518 C2510 0.930 . S
H2519 C2511 0.929 . S
H2520 C2528 0.929 . S
H2521 C2530 0.930 . S
H2522 C2532 0.930 . S
H2523 C2535 0.929 . S
H2524 C2538 0.930 . S
H2525 C2540 0.960 . S
H2526 C2540 0.960 . S
H2527 C2540 0.960 . S
C2528 H2520 0.929 . S
C2528 C2529 1.377 . S
C2528 C2530 1.384 . S
C2529 C2528 1.377 . S
C2529 C2535 1.390 . S
C2530 H2521 0.930 . S
C2530 C2528 1.384 . S
C2530 C2531 1.372 . S
C2531 C2530 1.372 . S
C2531 C2532 1.400 . S
C2531 C2536 1.490 . S
C2532 H2522 0.930 . S
C2532 C2531 1.400 . S
C2532 C2535 1.386 . S
H2533 C2549 0.930 . S
H2534 C2550 0.931 . S
C2535 H2523 0.929 . S
C2535 C2529 1.390 . S
C2535 C2532 1.386 . S
C2536 C2531 1.490 . S
C2536 C2538 1.395 . S
C2536 C2539 1.403 . S
H2537 C2543 0.930 . S
C2538 H2524 0.930 . S
C2538 C2536 1.395 . S
C2538 C2541 1.403 . S
C2539 C2536 1.403 . S
C2539 C2540 1.524 . S
C2539 C2543 1.400 . S
C2540 H2525 0.960 . S
C2540 H2526 0.960 . S
C2540 H2527 0.960 . S
C2540 C2539 1.524 . S
C2541 C2538 1.403 . S
C2541 C2542 1.392 . S
C2541 C2545 1.495 . S
C2542 C2541 1.392 . S
C2542 C2543 1.385 . S
C2542 C2544 1.478 . S
C2543 H2537 0.930 . S
C2543 C2539 1.400 . S
C2543 C2542 1.385 . S
C2544 C2542 1.478 . S
C2544 C2546 1.381 . S
C2544 C2550 1.383 . S
C2545 C2541 1.495 . S
C2545 H2551 0.959 . S
C2545 H2552 0.961 . S
C2545 H2553 0.960 . S
C2546 C2544 1.381 . S
C2546 C2547 1.394 . S
C2546 H2554 0.930 . S
C2547 C2546 1.394 . S
C2547 C2548 1.383 . S
C2547 H2555 0.929 . S
C2548 C2547 1.383 . S
C2548 C2549 1.377 . S
C2549 H2533 0.930 . S
C2549 C2548 1.377 . S
C2549 C2550 1.379 . S
C2550 H2534 0.931 . S
C2550 C2544 1.383 . S
C2550 C2549 1.379 . S
H2551 C2545 0.959 . S
H2552 C2545 0.961 . S
H2553 C2545 0.960 . S
H2554 C2546 0.930 . S
H2555 C2547 0.929 . S
H2556 C2564 0.929 . S
H2557 C2566 0.930 . S
H2558 C2568 0.930 . S
H2559 C2571 0.929 . S
H2560 C2574 0.930 . S
H2561 C2576 0.960 . S
H2562 C2576 0.960 . S
H2563 C2576 0.960 . S
C2564 H2556 0.929 . S
C2564 C2565 1.377 . S
C2564 C2566 1.384 . S
C2565 C2564 1.377 . S
C2565 C2571 1.390 . S
C2566 H2557 0.930 . S
C2566 C2564 1.384 . S
C2566 C2567 1.372 . S
C2567 C2566 1.372 . S
C2567 C2568 1.400 . S
C2567 C2572 1.490 . S
C2568 H2558 0.930 . S
C2568 C2567 1.400 . S
C2568 C2571 1.386 . S
H2569 C2585 0.930 . S
H2570 C2586 0.931 . S
C2571 H2559 0.929 . S
C2571 C2565 1.390 . S
C2571 C2568 1.386 . S
C2572 C2567 1.490 . S
C2572 C2574 1.395 . S
C2572 C2575 1.403 . S
H2573 C2579 0.930 . S
C2574 H2560 0.930 . S
C2574 C2572 1.395 . S
C2574 C2577 1.403 . S
C2575 C2572 1.403 . S
C2575 C2576 1.524 . S
C2575 C2579 1.400 . S
C2576 H2561 0.960 . S
C2576 H2562 0.960 . S
C2576 H2563 0.960 . S
C2576 C2575 1.524 . S
C2577 C2574 1.403 . S
C2577 C2578 1.392 . S
C2577 C2581 1.495 . S
C2578 C2577 1.392 . S
C2578 C2579 1.385 . S
C2578 C2580 1.478 . S
C2579 H2573 0.930 . S
C2579 C2575 1.400 . S
C2579 C2578 1.385 . S
C2580 C2578 1.478 . S
C2580 C2582 1.381 . S
C2580 C2586 1.383 . S
C2581 C2577 1.495 . S
C2581 H2587 0.959 . S
C2581 H2588 0.961 . S
C2581 H2589 0.960 . S
C2582 C2580 1.381 . S
C2582 C2583 1.394 . S
C2582 H2590 0.930 . S
C2583 C2582 1.394 . S
C2583 C2584 1.383 . S
C2583 H2591 0.929 . S
C2584 C2583 1.383 . S
C2584 C2585 1.377 . S
C2585 H2569 0.930 . S
C2585 C2584 1.377 . S
C2585 C2586 1.379 . S
C2586 H2570 0.931 . S
C2586 C2580 1.383 . S
C2586 C2585 1.379 . S
H2587 C2581 0.959 . S
H2588 C2581 0.961 . S
H2589 C2581 0.960 . S
H2590 C2582 0.930 . S
H2591 C2583 0.929 . S
H2592 C2600 0.929 . S
H2593 C2602 0.930 . S
H2594 C2604 0.930 . S
H2595 C2607 0.929 1_455 S
H2596 C2610 0.930 . S
H2597 C2612 0.960 . S
H2598 C2612 0.960 . S
H2599 C2612 0.960 . S
C2600 H2592 0.929 . S
C2600 C2601 1.377 . S
C2600 C2602 1.384 . S
C2601 C2600 1.377 . S
C2601 C2607 1.390 . S
C2602 H2593 0.930 . S
C2602 C2600 1.384 . S
C2602 C2603 1.372 . S
C2603 C2602 1.372 . S
C2603 C2604 1.400 . S
C2603 C2608 1.490 . S
C2604 H2594 0.930 . S
C2604 C2603 1.400 . S
C2604 C2607 1.386 . S
H2605 C2621 0.930 . S
H2606 C2622 0.931 . S
C2607 H2595 0.929 1_655 S
C2607 C2601 1.390 . S
C2607 C2604 1.386 . S
C2608 C2603 1.490 . S
C2608 C2610 1.395 . S
C2608 C2611 1.403 . S
H2609 C2615 0.930 . S
C2610 H2596 0.930 . S
C2610 C2608 1.395 . S
C2610 C2613 1.403 . S
C2611 C2608 1.403 . S
C2611 C2612 1.524 . S
C2611 C2615 1.400 . S
C2612 H2597 0.960 . S
C2612 H2598 0.960 . S
C2612 H2599 0.960 . S
C2612 C2611 1.524 . S
C2613 C2610 1.403 . S
C2613 C2614 1.392 . S
C2613 C2617 1.495 . S
C2614 C2613 1.392 . S
C2614 C2615 1.385 . S
C2614 C2616 1.478 . S
C2615 H2609 0.930 . S
C2615 C2611 1.400 . S
C2615 C2614 1.385 . S
C2616 C2614 1.478 . S
C2616 C2618 1.381 . S
C2616 C2622 1.383 . S
C2617 C2613 1.495 . S
C2617 H2623 0.959 . S
C2617 H2624 0.961 . S
C2617 H2625 0.960 . S
C2618 C2616 1.381 . S
C2618 C2619 1.394 . S
C2618 H2626 0.930 . S
C2619 C2618 1.394 . S
C2619 C2620 1.383 . S
C2619 H2627 0.929 . S
C2620 C2619 1.383 . S
C2620 C2621 1.377 . S
C2621 H2605 0.930 . S
C2621 C2620 1.377 . S
C2621 C2622 1.379 . S
C2622 H2606 0.931 . S
C2622 C2616 1.383 . S
C2622 C2621 1.379 . S
H2623 C2617 0.959 . S
H2624 C2617 0.961 . S
H2625 C2617 0.960 . S
H2626 C2618 0.930 . S
H2627 C2619 0.929 . S
H2628 C2636 0.929 . S
H2629 C2638 0.930 . S
H2630 C2640 0.930 . S
H2631 C2643 0.929 . S
H2632 C2646 0.930 . S
H2633 C2648 0.960 . S
H2634 C2648 0.960 . S
H2635 C2648 0.960 . S
C2636 H2628 0.929 . S
C2636 C2637 1.377 . S
C2636 C2638 1.384 . S
C2637 C2636 1.377 . S
C2637 C2643 1.390 . S
C2638 H2629 0.930 . S
C2638 C2636 1.384 . S
C2638 C2639 1.372 . S
C2639 C2638 1.372 . S
C2639 C2640 1.400 . S
C2639 C2644 1.490 . S
C2640 H2630 0.930 . S
C2640 C2639 1.400 . S
C2640 C2643 1.386 . S
H2641 C2657 0.930 . S
H2642 C2658 0.931 . S
C2643 H2631 0.929 . S
C2643 C2637 1.390 . S
C2643 C2640 1.386 . S
C2644 C2639 1.490 . S
C2644 C2646 1.395 . S
C2644 C2647 1.403 . S
H2645 C2651 0.930 . S
C2646 H2632 0.930 . S
C2646 C2644 1.395 . S
C2646 C2649 1.403 . S
C2647 C2644 1.403 . S
C2647 C2648 1.524 . S
C2647 C2651 1.400 . S
C2648 H2633 0.960 . S
C2648 H2634 0.960 . S
C2648 H2635 0.960 . S
C2648 C2647 1.524 . S
C2649 C2646 1.403 . S
C2649 C2650 1.392 . S
C2649 C2653 1.495 . S
C2650 C2649 1.392 . S
C2650 C2651 1.385 . S
C2650 C2652 1.478 . S
C2651 H2645 0.930 . S
C2651 C2647 1.400 . S
C2651 C2650 1.385 . S
C2652 C2650 1.478 . S
C2652 C2654 1.381 . S
C2652 C2658 1.383 . S
C2653 C2649 1.495 . S
C2653 H2659 0.959 . S
C2653 H2660 0.961 . S
C2653 H2661 0.960 . S
C2654 C2652 1.381 . S
C2654 C2655 1.394 . S
C2654 H2662 0.930 . S
C2655 C2654 1.394 . S
C2655 C2656 1.383 . S
C2655 H2663 0.929 . S
C2656 C2655 1.383 . S
C2656 C2657 1.377 . S
C2657 H2641 0.930 . S
C2657 C2656 1.377 . S
C2657 C2658 1.379 . S
C2658 H2642 0.931 . S
C2658 C2652 1.383 . S
C2658 C2657 1.379 . S
H2659 C2653 0.959 . S
H2660 C2653 0.961 . S
H2661 C2653 0.960 . S
H2662 C2654 0.930 . S
H2663 C2655 0.929 . S
H2664 C2672 0.929 . S
H2665 C2674 0.930 . S
H2666 C2676 0.930 . S
H2667 C2679 0.929 . S
H2668 C2682 0.930 . S
H2669 C2684 0.960 . S
H2670 C2684 0.960 . S
H2671 C2684 0.960 . S
C2672 H2664 0.929 . S
C2672 C2673 1.377 . S
C2672 C2674 1.384 . S
C2673 C2672 1.377 . S
C2673 C2679 1.390 . S
C2674 H2665 0.930 . S
C2674 C2672 1.384 . S
C2674 C2675 1.372 . S
C2675 C2674 1.372 . S
C2675 C2676 1.400 . S
C2675 C2680 1.490 . S
C2676 H2666 0.930 . S
C2676 C2675 1.400 . S
C2676 C2679 1.386 . S
H2677 C2693 0.930 . S
H2678 C2694 0.931 . S
C2679 H2667 0.929 . S
C2679 C2673 1.390 . S
C2679 C2676 1.386 . S
C2680 C2675 1.490 . S
C2680 C2682 1.395 . S
C2680 C2683 1.403 . S
H2681 C2687 0.930 . S
C2682 H2668 0.930 . S
C2682 C2680 1.395 . S
C2682 C2685 1.403 . S
C2683 C2680 1.403 . S
C2683 C2684 1.524 . S
C2683 C2687 1.400 . S
C2684 H2669 0.960 . S
C2684 H2670 0.960 . S
C2684 H2671 0.960 . S
C2684 C2683 1.524 . S
C2685 C2682 1.403 . S
C2685 C2686 1.392 . S
C2685 C2689 1.495 . S
C2686 C2685 1.392 . S
C2686 C2687 1.385 . S
C2686 C2688 1.478 . S
C2687 H2681 0.930 . S
C2687 C2683 1.400 . S
C2687 C2686 1.385 . S
C2688 C2686 1.478 . S
C2688 C2690 1.381 . S
C2688 C2694 1.383 . S
C2689 C2685 1.495 . S
C2689 H2695 0.959 . S
C2689 H2696 0.961 . S
C2689 H2697 0.960 . S
C2690 C2688 1.381 . S
C2690 C2691 1.394 . S
C2690 H2698 0.930 . S
C2691 C2690 1.394 . S
C2691 C2692 1.383 . S
C2691 H2699 0.929 . S
C2692 C2691 1.383 . S
C2692 C2693 1.377 . S
C2693 H2677 0.930 . S
C2693 C2692 1.377 . S
C2693 C2694 1.379 . S
C2694 H2678 0.931 . S
C2694 C2688 1.383 . S
C2694 C2693 1.379 . S
H2695 C2689 0.959 . S
H2696 C2689 0.961 . S
H2697 C2689 0.960 . S
H2698 C2690 0.930 . S
H2699 C2691 0.929 . S
H2700 C2708 0.929 . S
H2701 C2710 0.930 . S
H2702 C2712 0.930 . S
H2703 C2715 0.929 . S
H2704 C2718 0.930 . S
H2705 C2720 0.960 . S
H2706 C2720 0.960 . S
H2707 C2720 0.960 . S
C2708 H2700 0.929 . S
C2708 C2709 1.377 . S
C2708 C2710 1.384 . S
C2709 C2708 1.377 . S
C2709 C2715 1.390 . S
C2710 H2701 0.930 . S
C2710 C2708 1.384 . S
C2710 C2711 1.372 . S
C2711 C2710 1.372 . S
C2711 C2712 1.400 . S
C2711 C2716 1.490 . S
C2712 H2702 0.930 . S
C2712 C2711 1.400 . S
C2712 C2715 1.386 . S
H2713 C2729 0.930 . S
H2714 C2730 0.931 . S
C2715 H2703 0.929 . S
C2715 C2709 1.390 . S
C2715 C2712 1.386 . S
C2716 C2711 1.490 . S
C2716 C2718 1.395 . S
C2716 C2719 1.403 . S
H2717 C2723 0.930 . S
C2718 H2704 0.930 . S
C2718 C2716 1.395 . S
C2718 C2721 1.403 . S
C2719 C2716 1.403 . S
C2719 C2720 1.524 . S
C2719 C2723 1.400 . S
C2720 H2705 0.960 . S
C2720 H2706 0.960 . S
C2720 H2707 0.960 . S
C2720 C2719 1.524 . S
C2721 C2718 1.403 . S
C2721 C2722 1.392 . S
C2721 C2725 1.495 . S
C2722 C2721 1.392 . S
C2722 C2723 1.385 . S
C2722 C2724 1.478 . S
C2723 H2717 0.930 . S
C2723 C2719 1.400 . S
C2723 C2722 1.385 . S
C2724 C2722 1.478 . S
C2724 C2726 1.381 . S
C2724 C2730 1.383 . S
C2725 C2721 1.495 . S
C2725 H2731 0.959 . S
C2725 H2732 0.961 . S
C2725 H2733 0.960 . S
C2726 C2724 1.381 . S
C2726 C2727 1.394 . S
C2726 H2734 0.930 . S
C2727 C2726 1.394 . S
C2727 C2728 1.383 . S
C2727 H2735 0.929 . S
C2728 C2727 1.383 . S
C2728 C2729 1.377 . S
C2729 H2713 0.930 . S
C2729 C2728 1.377 . S
C2729 C2730 1.379 . S
C2730 H2714 0.931 . S
C2730 C2724 1.383 . S
C2730 C2729 1.379 . S
H2731 C2725 0.959 . S
H2732 C2725 0.961 . S
H2733 C2725 0.960 . S
H2734 C2726 0.930 . S
H2735 C2727 0.929 . S
H2736 C2744 0.929 . S
H2737 C2746 0.930 . S
H2738 C2748 0.930 . S
H2739 C2751 0.929 . S
H2740 C2754 0.930 . S
H2741 C2756 0.960 . S
H2742 C2756 0.960 . S
H2743 C2756 0.960 . S
C2744 H2736 0.929 . S
C2744 C2745 1.377 . S
C2744 C2746 1.384 . S
C2745 C2744 1.377 . S
C2745 C2751 1.390 . S
C2746 H2737 0.930 . S
C2746 C2744 1.384 . S
C2746 C2747 1.372 . S
C2747 C2746 1.372 . S
C2747 C2748 1.400 . S
C2747 C2752 1.490 . S
C2748 H2738 0.930 . S
C2748 C2747 1.400 . S
C2748 C2751 1.386 . S
H2749 C2765 0.930 . S
H2750 C2766 0.931 . S
C2751 H2739 0.929 . S
C2751 C2745 1.390 . S
C2751 C2748 1.386 . S
C2752 C2747 1.490 . S
C2752 C2754 1.395 . S
C2752 C2755 1.403 . S
H2753 C2759 0.930 . S
C2754 H2740 0.930 . S
C2754 C2752 1.395 . S
C2754 C2757 1.403 . S
C2755 C2752 1.403 . S
C2755 C2756 1.524 . S
C2755 C2759 1.400 . S
C2756 H2741 0.960 . S
C2756 H2742 0.960 . S
C2756 H2743 0.960 . S
C2756 C2755 1.524 . S
C2757 C2754 1.403 . S
C2757 C2758 1.392 . S
C2757 C2761 1.495 . S
C2758 C2757 1.392 . S
C2758 C2759 1.385 . S
C2758 C2760 1.478 . S
C2759 H2753 0.930 . S
C2759 C2755 1.400 . S
C2759 C2758 1.385 . S
C2760 C2758 1.478 . S
C2760 C2762 1.381 . S
C2760 C2766 1.383 . S
C2761 C2757 1.495 . S
C2761 H2767 0.959 . S
C2761 H2768 0.961 . S
C2761 H2769 0.960 . S
C2762 C2760 1.381 . S
C2762 C2763 1.394 . S
C2762 H2770 0.930 . S
C2763 C2762 1.394 . S
C2763 C2764 1.383 . S
C2763 H2771 0.929 . S
C2764 C2763 1.383 . S
C2764 C2765 1.377 . S
C2765 H2749 0.930 . S
C2765 C2764 1.377 . S
C2765 C2766 1.379 . S
C2766 H2750 0.931 . S
C2766 C2760 1.383 . S
C2766 C2765 1.379 . S
H2767 C2761 0.959 . S
H2768 C2761 0.961 . S
H2769 C2761 0.960 . S
H2770 C2762 0.930 . S
H2771 C2763 0.929 . S
H2772 C2780 0.929 . S
H2773 C2782 0.930 . S
H2774 C2784 0.930 . S
H2775 C2787 0.929 1_545 S
H2776 C2790 0.930 . S
H2777 C2792 0.960 . S
H2778 C2792 0.960 . S
H2779 C2792 0.960 . S
C2780 H2772 0.929 . S
C2780 C2781 1.377 . S
C2780 C2782 1.384 . S
C2781 C2780 1.377 . S
C2781 C2787 1.390 . S
C2782 H2773 0.930 . S
C2782 C2780 1.384 . S
C2782 C2783 1.372 . S
C2783 C2782 1.372 . S
C2783 C2784 1.400 . S
C2783 C2788 1.490 . S
C2784 H2774 0.930 . S
C2784 C2783 1.400 . S
C2784 C2787 1.386 . S
H2785 C2801 0.930 . S
H2786 C2802 0.931 . S
C2787 H2775 0.929 1_565 S
C2787 C2781 1.390 . S
C2787 C2784 1.386 . S
C2788 C2783 1.490 . S
C2788 C2790 1.395 . S
C2788 C2791 1.403 . S
H2789 C2795 0.930 . S
C2790 H2776 0.930 . S
C2790 C2788 1.395 . S
C2790 C2793 1.403 . S
C2791 C2788 1.403 . S
C2791 C2792 1.524 . S
C2791 C2795 1.400 . S
C2792 H2777 0.960 . S
C2792 H2778 0.960 . S
C2792 H2779 0.960 . S
C2792 C2791 1.524 . S
C2793 C2790 1.403 . S
C2793 C2794 1.392 . S
C2793 C2797 1.495 . S
C2794 C2793 1.392 . S
C2794 C2795 1.385 . S
C2794 C2796 1.478 . S
C2795 H2789 0.930 . S
C2795 C2791 1.400 . S
C2795 C2794 1.385 . S
C2796 C2794 1.478 . S
C2796 C2798 1.381 . S
C2796 C2802 1.383 . S
C2797 C2793 1.495 . S
C2797 H2803 0.959 . S
C2797 H2804 0.961 . S
C2797 H2805 0.960 . S
C2798 C2796 1.381 . S
C2798 C2799 1.394 . S
C2798 H2806 0.930 . S
C2799 C2798 1.394 . S
C2799 C2800 1.383 . S
C2799 H2807 0.929 . S
C2800 C2799 1.383 . S
C2800 C2801 1.377 . S
C2801 H2785 0.930 . S
C2801 C2800 1.377 . S
C2801 C2802 1.379 . S
C2802 H2786 0.931 . S
C2802 C2796 1.383 . S
C2802 C2801 1.379 . S
H2803 C2797 0.959 . S
H2804 C2797 0.961 . S
H2805 C2797 0.960 . S
H2806 C2798 0.930 . S
H2807 C2799 0.929 . S
H2808 C2816 0.929 . S
H2809 C2818 0.930 . S
H2810 C2820 0.930 . S
H2811 C2823 0.929 . S
H2812 C2826 0.930 . S
H2813 C2828 0.960 . S
H2814 C2828 0.960 . S
H2815 C2828 0.960 . S
C2816 H2808 0.929 . S
C2816 C2817 1.377 . S
C2816 C2818 1.384 . S
C2817 C2816 1.377 . S
C2817 C2823 1.390 . S
C2818 H2809 0.930 . S
C2818 C2816 1.384 . S
C2818 C2819 1.372 . S
C2819 C2818 1.372 . S
C2819 C2820 1.400 . S
C2819 C2824 1.490 . S
C2820 H2810 0.930 . S
C2820 C2819 1.400 . S
C2820 C2823 1.386 . S
H2821 C2837 0.930 . S
H2822 C2838 0.931 . S
C2823 H2811 0.929 . S
C2823 C2817 1.390 . S
C2823 C2820 1.386 . S
C2824 C2819 1.490 . S
C2824 C2826 1.395 . S
C2824 C2827 1.403 . S
H2825 C2831 0.930 . S
C2826 H2812 0.930 . S
C2826 C2824 1.395 . S
C2826 C2829 1.403 . S
C2827 C2824 1.403 . S
C2827 C2828 1.524 . S
C2827 C2831 1.400 . S
C2828 H2813 0.960 . S
C2828 H2814 0.960 . S
C2828 H2815 0.960 . S
C2828 C2827 1.524 . S
C2829 C2826 1.403 . S
C2829 C2830 1.392 . S
C2829 C2833 1.495 . S
C2830 C2829 1.392 . S
C2830 C2831 1.385 . S
C2830 C2832 1.478 . S
C2831 H2825 0.930 . S
C2831 C2827 1.400 . S
C2831 C2830 1.385 . S
C2832 C2830 1.478 . S
C2832 C2834 1.381 . S
C2832 C2838 1.383 . S
C2833 C2829 1.495 . S
C2833 H2839 0.959 . S
C2833 H2840 0.961 . S
C2833 H2841 0.960 . S
C2834 C2832 1.381 . S
C2834 C2835 1.394 . S
C2834 H2842 0.930 . S
C2835 C2834 1.394 . S
C2835 C2836 1.383 . S
C2835 H2843 0.929 . S
C2836 C2835 1.383 . S
C2836 C2837 1.377 . S
C2837 H2821 0.930 . S
C2837 C2836 1.377 . S
C2837 C2838 1.379 . S
C2838 H2822 0.931 . S
C2838 C2832 1.383 . S
C2838 C2837 1.379 . S
H2839 C2833 0.959 . S
H2840 C2833 0.961 . S
H2841 C2833 0.960 . S
H2842 C2834 0.930 . S
H2843 C2835 0.929 . S
H2844 C2852 0.929 . S
H2845 C2854 0.930 . S
H2846 C2856 0.930 . S
H2847 C2859 0.929 . S
H2848 C2862 0.930 . S
H2849 C2864 0.960 . S
H2850 C2864 0.960 . S
H2851 C2864 0.960 . S
C2852 H2844 0.929 . S
C2852 C2853 1.377 . S
C2852 C2854 1.384 . S
C2853 C2852 1.377 . S
C2853 C2859 1.390 . S
C2854 H2845 0.930 . S
C2854 C2852 1.384 . S
C2854 C2855 1.372 . S
C2855 C2854 1.372 . S
C2855 C2856 1.400 . S
C2855 C2860 1.490 . S
C2856 H2846 0.930 . S
C2856 C2855 1.400 . S
C2856 C2859 1.386 . S
H2857 C2873 0.930 . S
H2858 C2874 0.931 . S
C2859 H2847 0.929 . S
C2859 C2853 1.390 . S
C2859 C2856 1.386 . S
C2860 C2855 1.490 . S
C2860 C2862 1.395 . S
C2860 C2863 1.403 . S
H2861 C2867 0.930 . S
C2862 H2848 0.930 . S
C2862 C2860 1.395 . S
C2862 C2865 1.403 . S
C2863 C2860 1.403 . S
C2863 C2864 1.524 . S
C2863 C2867 1.400 . S
C2864 H2849 0.960 . S
C2864 H2850 0.960 . S
C2864 H2851 0.960 . S
C2864 C2863 1.524 . S
C2865 C2862 1.403 . S
C2865 C2866 1.392 . S
C2865 C2869 1.495 . S
C2866 C2865 1.392 . S
C2866 C2867 1.385 . S
C2866 C2868 1.478 . S
C2867 H2861 0.930 . S
C2867 C2863 1.400 . S
C2867 C2866 1.385 . S
C2868 C2866 1.478 . S
C2868 C2870 1.381 . S
C2868 C2874 1.383 . S
C2869 C2865 1.495 . S
C2869 H2875 0.959 . S
C2869 H2876 0.961 . S
C2869 H2877 0.960 . S
C2870 C2868 1.381 . S
C2870 C2871 1.394 . S
C2870 H2878 0.930 . S
C2871 C2870 1.394 . S
C2871 C2872 1.383 . S
C2871 H2879 0.929 . S
C2872 C2871 1.383 . S
C2872 C2873 1.377 . S
C2873 H2857 0.930 . S
C2873 C2872 1.377 . S
C2873 C2874 1.379 . S
C2874 H2858 0.931 . S
C2874 C2868 1.383 . S
C2874 C2873 1.379 . S
H2875 C2869 0.959 . S
H2876 C2869 0.961 . S
H2877 C2869 0.960 . S
H2878 C2870 0.930 . S
H2879 C2871 0.929 . S
H2880 C2888 0.929 . S
H2881 C2890 0.930 . S
H2882 C2892 0.930 . S
H2883 C2895 0.929 . S
H2884 C2898 0.930 . S
H2885 C2900 0.960 . S
H2886 C2900 0.960 . S
H2887 C2900 0.960 . S
C2888 H2880 0.929 . S
C2888 C2889 1.377 . S
C2888 C2890 1.384 . S
C2889 C2888 1.377 . S
C2889 C2895 1.390 . S
C2890 H2881 0.930 . S
C2890 C2888 1.384 . S
C2890 C2891 1.372 . S
C2891 C2890 1.372 . S
C2891 C2892 1.400 . S
C2891 C2896 1.490 . S
C2892 H2882 0.930 . S
C2892 C2891 1.400 . S
C2892 C2895 1.386 . S
H2893 C2909 0.930 . S
H2894 C2910 0.931 . S
C2895 H2883 0.929 . S
C2895 C2889 1.390 . S
C2895 C2892 1.386 . S
C2896 C2891 1.490 . S
C2896 C2898 1.395 . S
C2896 C2899 1.403 . S
H2897 C2903 0.930 . S
C2898 H2884 0.930 . S
C2898 C2896 1.395 . S
C2898 C2901 1.403 . S
C2899 C2896 1.403 . S
C2899 C2900 1.524 . S
C2899 C2903 1.400 . S
C2900 H2885 0.960 . S
C2900 H2886 0.960 . S
C2900 H2887 0.960 . S
C2900 C2899 1.524 . S
C2901 C2898 1.403 . S
C2901 C2902 1.392 . S
C2901 C2905 1.495 . S
C2902 C2901 1.392 . S
C2902 C2903 1.385 . S
C2902 C2904 1.478 . S
C2903 H2897 0.930 . S
C2903 C2899 1.400 . S
C2903 C2902 1.385 . S
C2904 C2902 1.478 . S
C2904 C2906 1.381 . S
C2904 C2910 1.383 . S
C2905 C2901 1.495 . S
C2905 H2911 0.959 . S
C2905 H2912 0.961 . S
C2905 H2913 0.960 . S
C2906 C2904 1.381 . S
C2906 C2907 1.394 . S
C2906 H2914 0.930 . S
C2907 C2906 1.394 . S
C2907 C2908 1.383 . S
C2907 H2915 0.929 . S
C2908 C2907 1.383 . S
C2908 C2909 1.377 . S
C2909 H2893 0.930 . S
C2909 C2908 1.377 . S
C2909 C2910 1.379 . S
C2910 H2894 0.931 . S
C2910 C2904 1.383 . S
C2910 C2909 1.379 . S
H2911 C2905 0.959 . S
H2912 C2905 0.961 . S
H2913 C2905 0.960 . S
H2914 C2906 0.930 . S
H2915 C2907 0.929 . S
H2916 C2924 0.929 . S
H2917 C2926 0.930 . S
H2918 C2928 0.930 . S
H2919 C2931 0.929 . S
H2920 C2934 0.930 . S
H2921 C2936 0.960 . S
H2922 C2936 0.960 . S
H2923 C2936 0.960 . S
C2924 H2916 0.929 . S
C2924 C2925 1.377 . S
C2924 C2926 1.384 . S
C2925 C2924 1.377 . S
C2925 C2931 1.390 . S
C2926 H2917 0.930 . S
C2926 C2924 1.384 . S
C2926 C2927 1.372 . S
C2927 C2926 1.372 . S
C2927 C2928 1.400 . S
C2927 C2932 1.490 . S
C2928 H2918 0.930 . S
C2928 C2927 1.400 . S
C2928 C2931 1.386 . S
H2929 C2945 0.930 . S
H2930 C2946 0.931 . S
C2931 H2919 0.929 . S
C2931 C2925 1.390 . S
C2931 C2928 1.386 . S
C2932 C2927 1.490 . S
C2932 C2934 1.395 . S
C2932 C2935 1.403 . S
H2933 C2939 0.930 . S
C2934 H2920 0.930 . S
C2934 C2932 1.395 . S
C2934 C2937 1.403 . S
C2935 C2932 1.403 . S
C2935 C2936 1.524 . S
C2935 C2939 1.400 . S
C2936 H2921 0.960 . S
C2936 H2922 0.960 . S
C2936 H2923 0.960 . S
C2936 C2935 1.524 . S
C2937 C2934 1.403 . S
C2937 C2938 1.392 . S
C2937 C2941 1.495 . S
C2938 C2937 1.392 . S
C2938 C2939 1.385 . S
C2938 C2940 1.478 . S
C2939 H2933 0.930 . S
C2939 C2935 1.400 . S
C2939 C2938 1.385 . S
C2940 C2938 1.478 . S
C2940 C2942 1.381 . S
C2940 C2946 1.383 . S
C2941 C2937 1.495 . S
C2941 H2947 0.959 . S
C2941 H2948 0.961 . S
C2941 H2949 0.960 . S
C2942 C2940 1.381 . S
C2942 C2943 1.394 . S
C2942 H2950 0.930 . S
C2943 C2942 1.394 . S
C2943 C2944 1.383 . S
C2943 H2951 0.929 . S
C2944 C2943 1.383 . S
C2944 C2945 1.377 . S
C2945 H2929 0.930 . S
C2945 C2944 1.377 . S
C2945 C2946 1.379 . S
C2946 H2930 0.931 . S
C2946 C2940 1.383 . S
C2946 C2945 1.379 . S
H2947 C2941 0.959 . S
H2948 C2941 0.961 . S
H2949 C2941 0.960 . S
H2950 C2942 0.930 . S
H2951 C2943 0.929 . S
H2952 C2960 0.929 . S
H2953 C2962 0.930 . S
H2954 C2964 0.930 . S
H2955 C2967 0.929 . S
H2956 C2970 0.930 . S
H2957 C2972 0.960 . S
H2958 C2972 0.960 . S
H2959 C2972 0.960 . S
C2960 H2952 0.929 . S
C2960 C2961 1.377 . S
C2960 C2962 1.384 . S
C2961 C2960 1.377 . S
C2961 C2967 1.390 . S
C2962 H2953 0.930 . S
C2962 C2960 1.384 . S
C2962 C2963 1.372 . S
C2963 C2962 1.372 . S
C2963 C2964 1.400 . S
C2963 C2968 1.490 . S
C2964 H2954 0.930 . S
C2964 C2963 1.400 . S
C2964 C2967 1.386 . S
H2965 C2981 0.930 . S
H2966 C2982 0.931 . S
C2967 H2955 0.929 . S
C2967 C2961 1.390 . S
C2967 C2964 1.386 . S
C2968 C2963 1.490 . S
C2968 C2970 1.395 . S
C2968 C2971 1.403 . S
H2969 C2975 0.930 . S
C2970 H2956 0.930 . S
C2970 C2968 1.395 . S
C2970 C2973 1.403 . S
C2971 C2968 1.403 . S
C2971 C2972 1.524 . S
C2971 C2975 1.400 . S
C2972 H2957 0.960 . S
C2972 H2958 0.960 . S
C2972 H2959 0.960 . S
C2972 C2971 1.524 . S
C2973 C2970 1.403 . S
C2973 C2974 1.392 . S
C2973 C2977 1.495 . S
C2974 C2973 1.392 . S
C2974 C2975 1.385 . S
C2974 C2976 1.478 . S
C2975 H2969 0.930 . S
C2975 C2971 1.400 . S
C2975 C2974 1.385 . S
C2976 C2974 1.478 . S
C2976 C2978 1.381 . S
C2976 C2982 1.383 . S
C2977 C2973 1.495 . S
C2977 H2983 0.959 . S
C2977 H2984 0.961 . S
C2977 H2985 0.960 . S
C2978 C2976 1.381 . S
C2978 C2979 1.394 . S
C2978 H2986 0.930 . S
C2979 C2978 1.394 . S
C2979 C2980 1.383 . S
C2979 H2987 0.929 . S
C2980 C2979 1.383 . S
C2980 C2981 1.377 . S
C2981 H2965 0.930 . S
C2981 C2980 1.377 . S
C2981 C2982 1.379 . S
C2982 H2966 0.931 . S
C2982 C2976 1.383 . S
C2982 C2981 1.379 . S
H2983 C2977 0.959 . S
H2984 C2977 0.961 . S
H2985 C2977 0.960 . S
H2986 C2978 0.930 . S
H2987 C2979 0.929 . S
H2988 C2996 0.929 . S
H2989 C2998 0.930 . S
H2990 C3000 0.930 . S
H2991 C3003 0.929 . S
H2992 C3006 0.930 . S
H2993 C3008 0.960 . S
H2994 C3008 0.960 . S
H2995 C3008 0.960 . S
C2996 H2988 0.929 . S
C2996 C2997 1.377 . S
C2996 C2998 1.384 . S
C2997 C2996 1.377 . S
C2997 C3003 1.390 . S
C2998 H2989 0.930 . S
C2998 C2996 1.384 . S
C2998 C2999 1.372 . S
C2999 C2998 1.372 . S
C2999 C3000 1.400 . S
C2999 C3004 1.490 . S
C3000 H2990 0.930 . S
C3000 C2999 1.400 . S
C3000 C3003 1.386 . S
H3001 C3017 0.930 . S
H3002 C3018 0.931 . S
C3003 H2991 0.929 . S
C3003 C2997 1.390 . S
C3003 C3000 1.386 . S
C3004 C2999 1.490 . S
C3004 C3006 1.395 . S
C3004 C3007 1.403 . S
H3005 C3011 0.930 . S
C3006 H2992 0.930 . S
C3006 C3004 1.395 . S
C3006 C3009 1.403 . S
C3007 C3004 1.403 . S
C3007 C3008 1.524 . S
C3007 C3011 1.400 . S
C3008 H2993 0.960 . S
C3008 H2994 0.960 . S
C3008 H2995 0.960 . S
C3008 C3007 1.524 . S
C3009 C3006 1.403 . S
C3009 C3010 1.392 . S
C3009 C3013 1.495 . S
C3010 C3009 1.392 . S
C3010 C3011 1.385 . S
C3010 C3012 1.478 . S
C3011 H3005 0.930 . S
C3011 C3007 1.400 . S
C3011 C3010 1.385 . S
C3012 C3010 1.478 . S
C3012 C3014 1.381 . S
C3012 C3018 1.383 . S
C3013 C3009 1.495 . S
C3013 H3019 0.959 . S
C3013 H3020 0.961 . S
C3013 H3021 0.960 . S
C3014 C3012 1.381 . S
C3014 C3015 1.394 . S
C3014 H3022 0.930 . S
C3015 C3014 1.394 . S
C3015 C3016 1.383 . S
C3015 H3023 0.929 . S
C3016 C3015 1.383 . S
C3016 C3017 1.377 . S
C3017 H3001 0.930 . S
C3017 C3016 1.377 . S
C3017 C3018 1.379 . S
C3018 H3002 0.931 . S
C3018 C3012 1.383 . S
C3018 C3017 1.379 . S
H3019 C3013 0.959 . S
H3020 C3013 0.961 . S
H3021 C3013 0.960 . S
H3022 C3014 0.930 . S
H3023 C3015 0.929 . S
H3024 C3032 0.929 . S
H3025 C3034 0.930 . S
H3026 C3036 0.930 . S
H3027 C3039 0.929 . S
H3028 C3042 0.930 . S
H3029 C3044 0.960 . S
H3030 C3044 0.960 . S
H3031 C3044 0.960 . S
C3032 H3024 0.929 . S
C3032 C3033 1.377 . S
C3032 C3034 1.384 . S
C3033 C3032 1.377 . S
C3033 C3039 1.390 . S
C3034 H3025 0.930 . S
C3034 C3032 1.384 . S
C3034 C3035 1.372 . S
C3035 C3034 1.372 . S
C3035 C3036 1.400 . S
C3035 C3040 1.490 . S
C3036 H3026 0.930 . S
C3036 C3035 1.400 . S
C3036 C3039 1.386 . S
H3037 C3053 0.930 . S
H3038 C3054 0.931 . S
C3039 H3027 0.929 . S
C3039 C3033 1.390 . S
C3039 C3036 1.386 . S
C3040 C3035 1.490 . S
C3040 C3042 1.395 . S
C3040 C3043 1.403 . S
H3041 C3047 0.930 . S
C3042 H3028 0.930 . S
C3042 C3040 1.395 . S
C3042 C3045 1.403 . S
C3043 C3040 1.403 . S
C3043 C3044 1.524 . S
C3043 C3047 1.400 . S
C3044 H3029 0.960 . S
C3044 H3030 0.960 . S
C3044 H3031 0.960 . S
C3044 C3043 1.524 . S
C3045 C3042 1.403 . S
C3045 C3046 1.392 . S
C3045 C3049 1.495 . S
C3046 C3045 1.392 . S
C3046 C3047 1.385 . S
C3046 C3048 1.478 . S
C3047 H3041 0.930 . S
C3047 C3043 1.400 . S
C3047 C3046 1.385 . S
C3048 C3046 1.478 . S
C3048 C3050 1.381 . S
C3048 C3054 1.383 . S
C3049 C3045 1.495 . S
C3049 H3055 0.959 . S
C3049 H3056 0.961 . S
C3049 H3057 0.960 . S
C3050 C3048 1.381 . S
C3050 C3051 1.394 . S
C3050 H3058 0.930 . S
C3051 C3050 1.394 . S
C3051 C3052 1.383 . S
C3051 H3059 0.929 . S
C3052 C3051 1.383 . S
C3052 C3053 1.377 . S
C3053 H3037 0.930 . S
C3053 C3052 1.377 . S
C3053 C3054 1.379 . S
C3054 H3038 0.931 . S
C3054 C3048 1.383 . S
C3054 C3053 1.379 . S
H3055 C3049 0.959 . S
H3056 C3049 0.961 . S
H3057 C3049 0.960 . S
H3058 C3050 0.930 . S
H3059 C3051 0.929 . S
H3060 C3068 0.929 . S
H3061 C3070 0.930 . S
H3062 C3072 0.930 . S
H3063 C3075 0.929 . S
H3064 C3078 0.930 . S
H3065 C3080 0.960 . S
H3066 C3080 0.960 . S
H3067 C3080 0.960 . S
C3068 H3060 0.929 . S
C3068 C3069 1.377 . S
C3068 C3070 1.384 . S
C3069 C3068 1.377 . S
C3069 C3075 1.390 . S
C3070 H3061 0.930 . S
C3070 C3068 1.384 . S
C3070 C3071 1.372 . S
C3071 C3070 1.372 . S
C3071 C3072 1.400 . S
C3071 C3076 1.490 . S
C3072 H3062 0.930 . S
C3072 C3071 1.400 . S
C3072 C3075 1.386 . S
H3073 C3089 0.930 . S
H3074 C3090 0.931 . S
C3075 H3063 0.929 . S
C3075 C3069 1.390 . S
C3075 C3072 1.386 . S
C3076 C3071 1.490 . S
C3076 C3078 1.395 . S
C3076 C3079 1.403 . S
H3077 C3083 0.930 . S
C3078 H3064 0.930 . S
C3078 C3076 1.395 . S
C3078 C3081 1.403 . S
C3079 C3076 1.403 . S
C3079 C3080 1.524 . S
C3079 C3083 1.400 . S
C3080 H3065 0.960 . S
C3080 H3066 0.960 . S
C3080 H3067 0.960 . S
C3080 C3079 1.524 . S
C3081 C3078 1.403 . S
C3081 C3082 1.392 . S
C3081 C3085 1.495 . S
C3082 C3081 1.392 . S
C3082 C3083 1.385 . S
C3082 C3084 1.478 . S
C3083 H3077 0.930 . S
C3083 C3079 1.400 . S
C3083 C3082 1.385 . S
C3084 C3082 1.478 . S
C3084 C3086 1.381 . S
C3084 C3090 1.383 . S
C3085 C3081 1.495 . S
C3085 H3091 0.959 . S
C3085 H3092 0.961 . S
C3085 H3093 0.960 . S
C3086 C3084 1.381 . S
C3086 C3087 1.394 . S
C3086 H3094 0.930 . S
C3087 C3086 1.394 . S
C3087 C3088 1.383 . S
C3087 H3095 0.929 . S
C3088 C3087 1.383 . S
C3088 C3089 1.377 . S
C3089 H3073 0.930 . S
C3089 C3088 1.377 . S
C3089 C3090 1.379 . S
C3090 H3074 0.931 . S
C3090 C3084 1.383 . S
C3090 C3089 1.379 . S
H3091 C3085 0.959 . S
H3092 C3085 0.961 . S
H3093 C3085 0.960 . S
H3094 C3086 0.930 . S
H3095 C3087 0.929 . S
C513 C35 1.195 . S
C532 C256 1.112 . S
C549 C7 1.189 . S
C568 C272 1.111 . S
C604 C255 1.009 . S
C585 C23 1.194 . S
C640 C280 1.067 . S
C621 C37 1.187 . S
C657 C9 1.214 . S
C676 C289 1.023 . S
C712 C292 1.072 . S
C693 C21 1.190 . S
C729 C77 1.203 . S
C748 C298 1.056 . S
C784 C314 0.992 . S
C765 C49 1.190 . S
C820 C297 1.009 . S
C801 C65 1.202 . S
C837 C79 1.192 . S
C856 C322 1.023 . S
C892 C331 1.023 . S
C873 C51 1.223 . S
C928 C334 1.037 . S
C909 C63 1.199 . S
C964 C343 1.097 . S
C945 C119 1.195 . S
C1000 C355 1.096 . S
C981 C91 1.191 . S
C1036 C352 1.115 . S
C1017 C107 1.204 . S
C1053 C121 1.182 . S
C1072 C361 0.989 . S
C1108 C360 1.037 . S
C1089 C93 1.216 . S
C1125 C105 1.198 . S
C1144 C377 1.006 . S
C1180 C382 1.094 . S
C1161 C161 1.195 . S
C1216 C398 1.108 . S
C1197 C133 1.192 . S
C1233 C149 1.202 . S
C1252 C381 1.054 . S
C1288 C406 1.038 1_554 S
C1269 C163 1.187 . S
C1324 C415 1.120 1_554 S
C1305 C135 1.215 . S
C1341 C147 1.193 . S
C1360 C418 1.115 1_554 S
C1377 C203 1.196 . S
C1396 C427 1.117 . S
C1432 C439 0.992 . S
C1413 C175 1.193 . S
C1468 C436 1.035 . S
C1449 C191 1.199 . S
C1485 C205 1.193 . S
C1504 C445 1.069 1_556 S
C1540 C444 1.031 1_556 S
C1521 C177 1.217 . S
C1557 C189 1.192 . S
C1576 C461 1.107 1_556 S
C1612 C466 1.101 . S
C1593 C245 1.196 . S
C1648 C482 1.111 . S
C1629 C217 1.191 . S
C1665 C233 1.199 . S
C1684 C465 1.039 . S
C1720 C487 1.075 . S
C1701 C247 1.184 . S
C1756 C486 1.043 . S
C1737 C219 1.219 . S
C1792 C503 1.099 . S
C1773 C231 1.196 . S
C1828 C268 1.475 . S
C1809 C162 1.607 . S
C1845 C134 1.609 . S
C1864 C271 1.482 1_655 S
C1900 C259 1.474 . S
C1881 C143 1.559 . S
C1917 C241 1.609 . S
C1936 C276 1.509 . S
C1953 C213 1.602 . S
C1972 C277 1.486 . S
C2008 C293 1.496 1_565 S
C1989 C232 1.620 . S
C2044 C310 1.476 . S
C2025 C204 1.609 . S
C2080 C313 1.533 . S
C2061 C176 1.608 . S
C2097 C185 1.559 . S
C2116 C301 1.412 . S
C2152 C318 1.526 1_655 S
C2133 C115 1.611 . S
C2169 C87 1.602 . S
C2188 C319 1.516 . S
C2205 C106 1.619 . S
C2224 C335 1.543 . S
C2241 C246 1.607 1_655 S
C2260 C339 1.473 . S
C2277 C218 1.610 . S
C2296 C356 1.523 . S
C2332 C340 1.452 . S
C2313 C227 1.563 . S
C2368 C373 1.517 . S
C2349 C73 1.612 . S
C2404 C364 1.481 . S
C2385 C45 1.602 . S
C2421 C64 1.619 . S
C2440 C376 1.484 . S
C2476 C394 1.520 . S
C2457 C36 1.606 . S
C2512 C397 1.495 . S
C2493 C8 1.608 . S
C2529 C17 1.561 . S
C2548 C385 1.425 . S
C2584 C402 1.533 . S
C2565 C199 1.611 . S
C2620 C403 1.450 . S
C2601 C171 1.601 1_655 S
C2656 C419 1.539 . S
C2637 C190 1.619 . S
C2692 C423 1.473 . S
C2673 C78 1.607 . S
C2728 C440 1.528 . S
C2709 C50 1.610 . S
C2745 C59 1.559 . S
C2764 C424 1.462 . S
C2781 C157 1.611 1_565 S
C2800 C457 1.500 . S
C2817 C129 1.602 . S
C2836 C448 1.466 . S
C2872 C460 1.483 . S
C2853 C148 1.619 . S
C2889 C120 1.606 . S
C2908 C478 1.532 . S
C2925 C92 1.609 . S
C2944 C481 1.530 . S
C2980 C469 1.424 . S
C2961 C101 1.560 1_565 S
C3016 C499 1.473 . S
C2997 C31 1.609 . S
C3052 C490 1.505 . S
C3033 C3 1.601 . S
C3069 C22 1.618 . S
C3088 C502 1.533 . S
