# Generated by pormake.
# Topology scu, (8,4)-cn, num edge types: 1
# Building blocks:
#     Node 0, Type 0, BuildingBlock: GIZVER_clean_sbu_0, # of connection points: 8
#     Node 1, Type 1, BuildingBlock: NAWXER_clean_sbu_0, # of connection points: 4
#     Node 2, Type 1, BuildingBlock: NAWXER_clean_sbu_0, # of connection points: 4
#     Edge 3, Type (0, 1), BuildingBlock: ZUJKAS_clean_linker_0, # of connection points: 2
#     Edge 4, Type (0, 1), BuildingBlock: ZUJKAS_clean_linker_0, # of connection points: 2
#     Edge 5, Type (0, 1), BuildingBlock: ZUJKAS_clean_linker_0, # of connection points: 2
#     Edge 6, Type (0, 1), BuildingBlock: ZUJKAS_clean_linker_0, # of connection points: 2
#     Edge 7, Type (0, 1), BuildingBlock: ZUJKAS_clean_linker_0, # of connection points: 2
#     Edge 8, Type (0, 1), BuildingBlock: ZUJKAS_clean_linker_0, # of connection points: 2
#     Edge 9, Type (0, 1), BuildingBlock: ZUJKAS_clean_linker_0, # of connection points: 2
#     Edge 10, Type (0, 1), BuildingBlock: ZUJKAS_clean_linker_0, # of connection points: 2
# Relax obj value: 0.018
# Max RMSD: 0.085
# Mean RMSD: 0.061
data_MOF--net-scu--node1-GIZVER_clean_sbu_0--node2-NAWXER_clean_sbu_0--edge1-ZUJKAS_clean_linker_0
_symmetry_space_group_name_H-M    P1
_symmetry_Int_Tables_number       1
_symmetry_cell_setting            triclinic
loop_
_symmetry_equiv_pos_as_xyz
'x, y, z'
_cell_length_a     29.740918
_cell_length_b     30.278632
_cell_length_c     28.364953
_cell_angle_alpha  98.109505
_cell_angle_beta   83.663851
_cell_angle_gamma 113.58862
loop_
_atom_site_label
_atom_site_type_symbol
_atom_site_fract_x
_atom_site_fract_y
_atom_site_fract_z
_atom_type_partial_charge
Co0 Co 0.02141 0.96097 0.10864 0.0
Co1 Co 0.09532 0.03049 0.07139 0.0
Co2 Co 1.00217 1.011 1.01423 0.0
O3 O 0.03872 0.98152 0.04578 0.0
H4 H 0.04773 0.95858 0.02369 0.0
O5 O 0.96802 0.04297 0.98303 0.0
Co6 Co 0.99258 0.06537 0.92153 0.0
Co7 Co 0.9124 1.00075 0.95455 0.0
H8 H 0.96004 0.0667 1.0048 0.0
O9 O 0.14864 0.01728 0.08166 0.0
O10 O 0.08335 1.01245 0.13244 0.0
O11 O 0.10065 0.09678 0.08023 0.0
O12 O 0.02571 0.07449 0.05594 0.0
O13 O 0.06021 0.03318 0.96751 0.0
O14 O 0.0141 0.09019 0.86671 0.0
O15 O 0.97586 0.11783 0.92953 0.0
O16 O 0.01579 1.01504 0.90487 0.0
O17 O 0.97598 0.94646 0.97244 0.0
O18 O 0.90286 0.93406 0.9471 0.0
O19 O 0.92791 0.02409 0.8953 0.0
O20 O 0.8635 0.02117 0.9468 0.0
C21 C 0.03234 0.91227 0.14542 0.0
C22 C 0.94751 0.99534 0.1061 0.0
C23 C 0.06297 0.10554 0.07698 0.0
C24 C 0.12707 1.01179 0.12406 0.0
C25 C 0.99725 0.1223 0.88659 0.0
C26 C 0.05482 0.01952 0.92311 0.0
C27 C 0.93647 0.91938 0.95153 0.0
C28 C 0.88756 0.03166 0.90602 0.0
O29 O 0.00775 0.93794 0.16513 0.0
O30 O 0.05 0.9172 0.10128 0.0
O31 O 0.94428 0.98804 0.06089 0.0
O32 O 0.98749 1.00293 0.12451 0.0
C33 C 0.95783 0.55694 0.57942 0.0
C34 C 0.97747 0.44182 0.44606 0.0
O35 O 1.00224 0.5617 0.56767 0.0
Zn36 Zn 0.04316 0.53109 0.51743 0.0
O37 O 0.92304 0.52495 0.55583 0.0
Zn38 Zn 0.96416 0.49899 0.51156 0.0
O39 O 0.99156 0.46816 0.55919 0.0
O40 O 0.07225 0.50536 0.56003 0.0
O41 O 0.93691 0.44459 0.46238 0.0
O42 O 0.01758 0.47173 0.46393 0.0
O43 O 0.0821 0.58525 0.47977 0.0
O44 O 1.00271 0.55756 0.46981 0.0
C45 C 0.03223 0.47309 0.57499 0.0
C46 C 0.04658 0.58742 0.46022 0.0
C47 C 0.59034 0.07362 0.57397 0.0
C48 C 0.45866 0.05321 0.47311 0.0
O49 O 0.56305 0.02934 0.56139 0.0
Zn50 Zn 0.49979 0.98838 0.52197 0.0
O51 O 0.58031 0.1075 0.56214 0.0
Zn52 Zn 0.52389 0.0659 0.52545 0.0
O53 O 0.46973 0.03315 0.57943 0.0
O54 O 0.44993 0.95422 0.56962 0.0
O55 O 0.48938 0.09328 0.49159 0.0
O56 O 0.45966 1.01328 0.48196 0.0
O57 O 0.52703 0.95367 0.47199 0.0
O58 O 0.5567 0.03269 0.46768 0.0
C59 C 0.44425 0.99103 0.59266 0.0
C60 C 0.55525 0.99048 0.45118 0.0
H61 H 0.98735 0.13525 0.07783 0.0
H62 H 0.97022 0.19575 0.13464 0.0
H63 H 0.10737 0.23267 0.19851 0.0
H64 H 0.12507 0.17211 0.14168 0.0
H65 H 0.96082 0.19212 0.23415 0.0
H66 H 0.10568 0.36549 0.1842 0.0
H67 H 0.08875 0.30999 0.14444 0.0
H68 H 0.12827 0.32028 0.19193 0.0
C69 C 0.01455 0.1569 0.10322 0.0
C70 C 0.05768 0.14864 0.10512 0.0
C71 C 1.00448 0.19137 0.13582 0.0
C72 C 0.0375 0.21877 0.17071 0.0
C73 C 0.08166 0.21236 0.17143 0.0
H74 H 0.054 0.41469 0.42072 0.0
H75 H 0.06297 0.35912 0.35328 0.0
C76 C 0.09177 0.17771 0.13884 0.0
C77 C 0.02401 0.25126 0.20854 0.0
H78 H 0.06199 0.36834 0.25936 0.0
C79 C 0.98258 0.23078 0.23945 0.0
C80 C 0.05237 0.30159 0.21521 0.0
C81 C 0.09601 0.32584 0.18196 0.0
C82 C 0.97 0.25899 0.2782 0.0
C83 C 0.99915 0.30919 0.2856 0.0
C84 C 0.0397 0.32983 0.25374 0.0
C85 C 0.99094 0.34056 0.32805 0.0
C86 C 0.92697 0.23444 0.31198 0.0
C87 C 0.94701 0.3483 0.33688 0.0
C88 C 0.9415 0.38011 0.37608 0.0
C89 C 0.98014 0.40507 0.40655 0.0
C90 C 0.02359 0.39645 0.39783 0.0
C91 C 0.02886 0.36463 0.35918 0.0
H92 H 0.91512 0.19439 0.30718 0.0
H93 H 0.93624 0.24774 0.34962 0.0
H94 H 0.89543 0.24296 0.30522 0.0
H95 H 0.9175 0.33069 0.3129 0.0
H96 H 0.90773 0.38619 0.38171 0.0
H97 H 0.8593 0.99251 0.08188 0.0
H98 H 0.78857 0.9914 0.13591 0.0
H99 H 0.8673 0.99467 0.2561 0.0
H100 H 0.93809 0.99682 0.20294 0.0
H101 H 0.73157 0.92551 0.1982 0.0
H102 H 0.8242 0.10597 0.29722 0.0
H103 H 0.85027 0.08632 0.24189 0.0
H104 H 0.85682 0.06736 0.2972 0.0
C105 C 0.86162 0.99329 0.11987 0.0
C106 C 0.90455 0.99519 0.1381 0.0
C107 C 0.82115 0.99255 0.15064 0.0
C108 C 0.82298 0.99378 0.2001 0.0
C109 C 0.86548 0.99492 0.21821 0.0
H110 H 0.58526 0.91574 0.42043 0.0
H111 H 0.64721 0.91448 0.35611 0.0
C112 C 0.90592 0.99597 0.18765 0.0
C113 C 0.78037 0.9931 0.23303 0.0
H114 H 0.74817 0.05391 0.33264 0.0
C115 C 0.73498 0.95377 0.22738 0.0
C116 C 0.78472 0.03032 0.27068 0.0
C117 C 0.83148 0.07511 0.27688 0.0
C118 C 0.69416 0.95002 0.25919 0.0
C119 C 0.69924 0.98607 0.2982 0.0
C120 C 0.74435 0.02595 0.30307 0.0
C121 C 0.65837 0.98403 0.33422 0.0
C122 C 0.64589 0.90788 0.2503 0.0
C123 C 0.64418 0.0235 0.34352 0.0
C124 C 0.60954 0.02461 0.38056 0.0
C125 C 0.58805 0.98613 0.40913 0.0
C126 C 0.6009 0.94574 0.39882 0.0
C127 C 0.63613 0.94489 0.3619 0.0
H128 H 0.64422 0.89196 0.21244 0.0
H129 H 0.64175 0.87916 0.27277 0.0
H130 H 0.61443 0.91905 0.25963 0.0
H131 H 0.66074 0.05407 0.32268 0.0
H132 H 0.60023 0.05615 0.38732 0.0
H133 H 0.08428 0.85414 0.11858 0.0
H134 H 0.09938 0.8015 0.16785 0.0
H135 H 0.0177 0.84545 0.28692 0.0
H136 H 1.00297 0.89814 0.23853 0.0
H137 H 0.10467 0.84417 0.3127 0.0
H138 H 0.99573 0.67218 0.20635 0.0
H139 H 0.04439 0.71612 0.17375 0.0
H140 H 0.99258 0.72922 0.19959 0.0
C141 C 0.06942 0.85244 0.15521 0.0
C142 C 0.04188 0.87995 0.17433 0.0
C143 C 0.07803 0.82229 0.18331 0.0
C144 C 0.05916 0.81904 0.23097 0.0
C145 C 0.03256 0.84723 0.25027 0.0
H146 H 0.97612 0.60279 0.41965 0.0
H147 H 0.98631 0.66002 0.36337 0.0
C148 C 0.02395 0.87721 0.22235 0.0
C149 C 0.06575 0.7857 0.26095 0.0
H150 H 0.03149 0.66578 0.27352 0.0
C151 C 0.08922 0.80517 0.30392 0.0
C152 C 0.04509 0.73479 0.24968 0.0
C153 C 0.01766 0.71159 0.20507 0.0
C154 C 0.09146 0.77513 0.33646 0.0
C155 C 0.07024 0.72418 0.32544 0.0
C156 C 0.04805 0.70482 0.28182 0.0
C157 C 0.06576 0.69013 0.36053 0.0
C158 C 0.11435 0.79811 0.38335 0.0
C159 C 0.10716 0.68779 0.37801 0.0
C160 C 0.10147 0.65485 0.41078 0.0
C161 C 0.05426 0.6235 0.42634 0.0
C162 C 0.01311 0.62615 0.40858 0.0
C163 C 0.01881 0.65892 0.37618 0.0
H164 H 0.12064 0.83713 0.39005 0.0
H165 H 0.09066 0.77915 0.41337 0.0
H166 H 0.15036 0.79509 0.38295 0.0
H167 H 0.14382 0.71098 0.36591 0.0
H168 H 0.13392 0.65363 0.42352 0.0
H169 H 0.21353 0.9995 0.11726 0.0
H170 H 0.26348 1.00485 0.18212 0.0
H171 H 0.1535 0.02549 0.28493 0.0
H172 H 0.10254 0.01897 0.22006 0.0
H173 H 0.30197 0.08449 0.24509 0.0
H174 H 0.18507 0.92591 0.34138 0.0
H175 H 0.17331 0.93238 0.28219 0.0
H176 H 0.15542 0.96538 0.33328 0.0
C177 C 0.19955 1.00448 0.15367 0.0
C178 C 0.15429 1.0093 0.16352 0.0
C179 C 0.2282 1.00757 0.19071 0.0
C180 C 0.21225 1.01556 0.23835 0.0
C181 C 0.16624 0.01864 0.24846 0.0
H182 H 0.42924 0.12571 0.45942 0.0
H183 H 0.36667 0.11983 0.40638 0.0
C184 C 0.13728 1.01516 0.21133 0.0
C185 C 0.24566 0.02409 0.27678 0.0
H186 H 0.25784 0.98082 0.37729 0.0
C187 C 0.29234 0.06189 0.27409 0.0
C188 C 0.23295 0.99444 0.31441 0.0
C189 C 0.18417 0.95197 0.31794 0.0
C190 C 0.3272 0.07022 0.30733 0.0
C191 C 0.31448 0.04082 0.34521 0.0
C192 C 0.26735 1.00363 0.34849 0.0
C193 C 0.35092 0.04495 0.3791 0.0
C194 C 0.37796 0.10902 0.30023 0.0
C195 C 0.36186 1.0046 0.38232 0.0
C196 C 0.3968 1.00766 0.41289 0.0
C197 C 0.42192 0.0513 0.44088 0.0
C198 C 0.41086 0.09179 0.43794 0.0
C199 C 0.37525 0.08849 0.40757 0.0
H200 H 0.38512 0.12007 0.2635 0.0
H201 H 0.38146 0.14155 0.32552 0.0
H202 H 0.40668 0.09642 0.30715 0.0
H203 H 0.34372 0.9707 0.36064 0.0
H204 H 0.40445 0.97576 0.41414 0.0
H205 H 0.85471 0.84671 0.91475 0.0
H206 H 0.85189 0.77816 0.8567 0.0
H207 H 0.00702 0.81781 0.86731 0.0
H208 H 0.01043 0.88703 0.92511 0.0
H209 H 0.97886 0.81061 0.77436 0.0
H210 H 0.85984 0.64687 0.86254 0.0
H211 H 0.83487 0.69227 0.86469 0.0
H212 H 0.88914 0.70554 0.89556 0.0
C213 C 0.88807 0.84024 0.90568 0.0
C214 C 0.93285 0.87251 0.92456 0.0
C215 C 0.88627 0.8008 0.87262 0.0
C216 C 0.92914 0.79266 0.85791 0.0
C217 C 0.97343 0.82332 0.87842 0.0
H218 H 0.02441 0.61813 0.64139 0.0
H219 H 0.01282 0.67315 0.70794 0.0
C220 C 0.97526 0.86273 0.91168 0.0
C221 C 0.92893 0.75588 0.8173 0.0
H222 H 0.88049 0.63464 0.77974 0.0
C223 C 0.95748 0.77212 0.77564 0.0
C224 C 0.90026 0.7058 0.81872 0.0
C225 C 0.86954 0.68636 0.86287 0.0
C226 C 0.9585 0.73969 0.73546 0.0
C227 C 0.93094 0.68946 0.73724 0.0
C228 C 0.90146 0.67318 0.77848 0.0
C229 C 0.9359 0.65346 0.69801 0.0
C230 C 0.98905 0.75954 0.69132 0.0
C231 C 0.89588 0.62271 0.67114 0.0
C232 C 0.90229 0.59061 0.63267 0.0
C233 C 0.9488 0.58886 0.62079 0.0
C234 C 0.98818 0.61884 0.6489 0.0
C235 C 0.98173 0.65051 0.68707 0.0
H236 H 0.99578 0.79829 0.69059 0.0
H237 H 0.02527 0.75694 0.69097 0.0
H238 H 0.97095 0.73858 0.65843 0.0
H239 H 0.86006 0.62426 0.67933 0.0
H240 H 0.87119 0.56782 0.61192 0.0
H241 H 0.04795 0.97515 0.83193 0.0
H242 H 0.11227 0.95994 0.77967 0.0
H243 H 0.2133 0.02303 0.89184 0.0
H244 H 0.14866 0.03747 0.94489 0.0
H245 H 0.19703 0.02786 0.74935 0.0
H246 H 0.23784 0.90137 0.84412 0.0
H247 H 0.18337 0.9143 0.85863 0.0
H248 H 0.24138 0.95591 0.88082 0.0
C249 C 0.08372 0.98541 0.84575 0.0
C250 C 0.09324 1.00782 0.89256 0.0
C251 C 0.12042 0.97654 0.81579 0.0
C252 C 0.16752 0.98983 0.83189 0.0
C253 C 0.17697 1.01144 0.8789 0.0
H254 H 0.43615 0.06325 0.6572 0.0
H255 H 0.36901 0.05892 0.71637 0.0
C256 C 0.14008 0.02005 0.9091 0.0
C257 C 0.20755 0.9848 0.7981 0.0
H258 H 0.29582 0.93753 0.78097 0.0
C259 C 0.2183 1.00774 0.75617 0.0
C260 C 0.23504 0.95814 0.80666 0.0
C261 C 0.22358 0.93061 0.84976 0.0
C262 C 0.25645 1.00586 0.72325 0.0
C263 C 0.28536 0.98108 0.73281 0.0
C264 C 0.27388 0.95689 0.77399 0.0
C265 C 0.32865 0.98176 0.70097 0.0
C266 C 0.26553 0.03049 0.67838 0.0
C267 C 0.32934 0.93931 0.67412 0.0
C268 C 0.36807 0.94155 0.64015 0.0
C269 C 0.40656 0.98634 0.63265 0.0
C270 C 0.40682 0.02823 0.66155 0.0
C271 C 0.36841 0.0259 0.69541 0.0
H272 H 0.23287 0.03665 0.67041 0.0
H273 H 0.29661 0.06629 0.68306 0.0
H274 H 0.27534 1.0087 0.64725 0.0
H275 H 0.29903 0.90482 0.67812 0.0
H276 H 0.36684 0.90867 0.61851 0.0
H277 H 0.95745 0.19149 0.9093 0.0
H278 H 0.96321 0.25469 0.86021 0.0
H279 H 0.0523 0.20582 0.75278 0.0
H280 H 0.04663 0.14311 0.80076 0.0
H281 H 0.04957 0.33127 0.82119 0.0
H282 H 0.93673 0.20039 0.68057 0.0
H283 H 0.93916 0.18375 0.73863 0.0
H284 H 0.98772 0.18759 0.69363 0.0
C285 C 0.9784 0.19443 0.87532 0.0
C286 C 1.00136 0.16206 0.85895 0.0
C287 C 0.98169 0.23052 0.84735 0.0
C288 C 0.00771 0.23453 0.80258 0.0
C289 C 0.03141 0.20293 0.78682 0.0
H290 H 0.10991 0.46553 0.6138 0.0
H291 H 0.10516 0.40973 0.6711 0.0
C292 C 0.02815 0.16708 0.8145 0.0
C293 C 0.00988 0.27099 0.77146 0.0
H294 H 0.98142 0.28136 0.66126 0.0
C295 C 0.03439 0.3205 0.78635 0.0
C296 C 0.98984 0.25681 0.72613 0.0
C297 C 0.96146 0.20427 0.70889 0.0
C298 C 0.04024 0.35621 0.75663 0.0
C299 C 0.02159 0.3419 0.71063 0.0
C300 C 0.99626 0.29237 0.69626 0.0
C301 C 0.0256 0.37747 0.67747 0.0
C302 C 0.06565 0.4089 0.77495 0.0
C303 C 0.98267 0.37744 0.66145 0.0
C304 C 0.98529 0.40873 0.62861 0.0
C305 C 0.03099 0.44097 0.61069 0.0
C306 C 0.07416 0.44133 0.62697 0.0
C307 C 0.07147 0.40968 0.65996 0.0
H308 H 0.06717 0.41406 0.8144 0.0
H309 H 0.10392 0.42298 0.75914 0.0
H310 H 0.04669 0.43076 0.76458 0.0
H311 H 0.9469 0.35293 0.6743 0.0
H312 H 0.95116 0.40738 0.61715 0.0
H313 H 0.81186 0.06185 0.92195 0.0
H314 H 0.77299 0.08483 0.86366 0.0
H315 H 0.87909 0.06813 0.75384 0.0
H316 H 0.91884 0.04534 0.81227 0.0
H317 H 0.84737 0.15097 0.75041 0.0
H318 H 0.6952 0.97041 0.76409 0.0
H319 H 0.71191 1.00749 0.81978 0.0
H320 H 0.75493 0.98563 0.78584 0.0
C321 C 0.82737 0.06348 0.88554 0.0
C322 C 0.86773 0.05058 0.87148 0.0
C323 C 0.80524 0.07693 0.85236 0.0
C324 C 0.82278 0.07747 0.80444 0.0
C325 C 0.86499 0.06775 0.79073 0.0
H326 H 0.64291 0.01823 0.57002 0.0
H327 H 0.70591 0.0265 0.62249 0.0
C328 C 0.88739 0.05441 0.82406 0.0
C329 C 0.79325 0.082 0.76813 0.0
H330 H 0.68311 0.02278 0.71759 0.0
C331 C 0.81156 0.12299 0.74291 0.0
C332 C 0.74668 0.04522 0.75845 0.0
C333 C 0.72602 0.99947 0.7831 0.0
C334 C 0.78407 0.12817 0.70823 0.0
C335 C 0.73711 0.09164 0.69922 0.0
C336 C 0.71908 0.05082 0.72461 0.0
C337 C 0.70615 0.09301 0.66235 0.0
C338 C 0.80571 0.17198 0.68089 0.0
C339 C 0.68636 0.12859 0.66631 0.0
C340 C 0.65036 0.12416 0.63576 0.0
C341 C 0.63321 0.08361 0.60167 0.0
C342 C 0.65493 0.04953 0.59642 0.0
C343 C 0.69111 0.0543 0.62625 0.0
H344 H 0.84585 0.19145 0.68494 0.0
H345 H 0.7991 0.16139 0.64237 0.0
H346 H 0.78769 0.19744 0.69449 0.0
H347 H 0.69681 0.15831 0.69445 0.0
H348 H 0.63407 0.15084 0.64058 0.0
loop_
_geom_bond_atom_site_label_1
_geom_bond_atom_site_label_2
_geom_bond_distance
_geom_bond_site_symmetry_2
_ccdc_geom_bond_type
Co0 O3 2.042 . S
Co0 O10 2.264 1_565 S
Co0 O29 2.286 1_455 S
Co0 O30 2.069 . S
Co0 O32 2.015 1_455 S
Co1 O3 2.122 1_545 S
Co1 O9 2.073 . S
Co1 O10 2.327 . S
Co1 O11 1.976 . S
Co2 O3 2.094 1_545 S
Co2 O5 2.080 1_454 S
Co2 O12 2.134 . S
Co2 O13 2.142 1_554 S
Co2 O17 2.088 1_444 S
Co2 O31 2.145 1_445 S
O3 Co0 2.042 . S
O3 Co1 2.122 1_565 S
O3 Co2 2.094 1_565 S
O3 H4 0.980 . S
H4 O3 0.980 . S
O5 Co2 2.080 1_656 S
O5 Co6 2.042 . S
O5 Co7 2.122 1_545 S
O5 H8 0.980 . S
Co6 O5 2.042 . S
Co6 O14 2.286 1_655 S
Co6 O15 2.069 . S
Co6 O16 2.015 1_655 S
Co6 O19 2.266 . S
Co7 O5 2.122 1_565 S
Co7 O18 1.976 . S
Co7 O19 2.322 1_565 S
Co7 O20 2.073 . S
H8 O5 0.980 . S
O9 Co1 2.073 . S
O9 C24 1.245 1_545 S
O10 Co0 2.264 1_545 S
O10 Co1 2.327 . S
O10 C24 1.257 1_545 S
O11 Co1 1.976 . S
O11 C23 1.251 . S
O12 Co2 2.134 . S
O12 C23 1.274 . S
O13 Co2 2.142 1_556 S
O13 C26 1.246 . S
O14 Co6 2.286 1_455 S
O14 C25 1.259 1_455 S
O15 Co6 2.069 . S
O15 C25 1.289 . S
O16 Co6 2.015 1_455 S
O16 C26 1.257 . S
O17 Co2 2.088 1_666 S
O17 C27 1.274 . S
O18 Co7 1.976 . S
O18 C27 1.251 . S
O19 Co6 2.266 . S
O19 Co7 2.322 1_545 S
O19 C28 1.261 . S
O20 Co7 2.073 . S
O20 C28 1.245 1_565 S
C21 O29 1.259 1_455 S
C21 O30 1.289 . S
C22 O31 1.246 . S
C22 O32 1.257 . S
C23 O11 1.251 . S
C23 O12 1.274 . S
C24 O9 1.245 1_565 S
C24 O10 1.257 1_565 S
C25 O14 1.259 1_655 S
C25 O15 1.289 . S
C26 O13 1.246 . S
C26 O16 1.257 . S
C27 O17 1.274 . S
C27 O18 1.251 . S
C28 O19 1.261 . S
C28 O20 1.245 1_545 S
O29 Co0 2.286 1_655 S
O29 C21 1.259 1_655 S
O30 Co0 2.069 . S
O30 C21 1.289 . S
O31 Co2 2.145 1_665 S
O31 C22 1.246 . S
O32 Co0 2.015 1_655 S
O32 C22 1.257 . S
C33 O35 1.262 . S
C33 O37 1.248 1_455 S
C34 O41 1.242 1_455 S
C34 O42 1.262 . S
O35 C33 1.262 . S
O35 Zn36 2.028 . S
Zn36 O35 2.028 . S
Zn36 O40 2.035 . S
Zn36 O42 2.035 . S
Zn36 O43 2.028 . S
O37 C33 1.248 1_655 S
O37 Zn38 2.035 . S
Zn38 O37 2.035 . S
Zn38 O39 2.028 . S
Zn38 O41 2.028 . S
Zn38 O44 2.035 . S
O39 Zn38 2.028 . S
O39 C45 1.242 1_655 S
O40 Zn36 2.035 . S
O40 C45 1.261 . S
O41 C34 1.242 1_655 S
O41 Zn38 2.028 . S
O42 C34 1.262 . S
O42 Zn36 2.035 . S
O43 Zn36 2.028 . S
O43 C46 1.262 . S
O44 Zn38 2.035 . S
O44 C46 1.248 1_655 S
C45 O39 1.242 1_455 S
C45 O40 1.261 . S
C46 O43 1.262 . S
C46 O44 1.248 1_455 S
C47 O49 1.236 1_545 S
C47 O51 1.275 . S
C48 O55 1.247 . S
C48 O56 1.258 1_545 S
O49 C47 1.236 1_565 S
O49 Zn50 2.028 . S
Zn50 O49 2.028 . S
Zn50 O54 2.035 . S
Zn50 O56 2.035 . S
Zn50 O57 2.028 . S
O51 C47 1.275 . S
O51 Zn52 2.035 . S
Zn52 O51 2.035 . S
Zn52 O53 2.028 . S
Zn52 O55 2.028 . S
Zn52 O58 2.035 . S
O53 Zn52 2.028 . S
O53 C59 1.247 . S
O54 Zn50 2.035 . S
O54 C59 1.258 1_565 S
O55 C48 1.247 . S
O55 Zn52 2.028 . S
O56 C48 1.258 1_565 S
O56 Zn50 2.035 . S
O57 Zn50 2.028 . S
O57 C60 1.235 1_565 S
O58 Zn52 2.035 . S
O58 C60 1.274 . S
C59 O53 1.247 . S
C59 O54 1.258 1_545 S
C60 O57 1.235 1_545 S
C60 O58 1.274 . S
H61 C69 0.929 . S
H62 C71 0.930 . S
H63 C73 0.930 . S
H64 C76 0.929 . S
H65 C79 0.930 . S
H66 C81 0.960 . S
H67 C81 0.960 . S
H68 C81 0.960 . S
C69 H61 0.929 . S
C69 C70 1.377 1_655 S
C69 C71 1.384 . S
C70 C69 1.377 1_455 S
C70 C76 1.390 . S
C71 H62 0.930 . S
C71 C69 1.384 . S
C71 C72 1.372 1_655 S
C72 C71 1.372 1_455 S
C72 C73 1.400 . S
C72 C77 1.494 . S
C73 H63 0.930 . S
C73 C72 1.400 . S
C73 C76 1.386 . S
H74 C90 0.930 . S
H75 C91 0.931 . S
C76 H64 0.929 . S
C76 C70 1.390 . S
C76 C73 1.386 . S
C77 C72 1.494 . S
C77 C79 1.382 1_455 S
C77 C80 1.411 . S
H78 C84 0.930 . S
C79 H65 0.930 . S
C79 C77 1.382 1_655 S
C79 C82 1.403 . S
C80 C77 1.411 . S
C80 C81 1.524 . S
C80 C84 1.400 . S
C81 H66 0.960 . S
C81 H67 0.960 . S
C81 H68 0.960 . S
C81 C80 1.524 . S
C82 C79 1.403 . S
C82 C83 1.392 . S
C82 C86 1.495 . S
C83 C82 1.392 . S
C83 C84 1.385 1_655 S
C83 C85 1.478 . S
C84 H78 0.930 . S
C84 C80 1.400 . S
C84 C83 1.385 1_455 S
C85 C83 1.478 . S
C85 C87 1.381 . S
C85 C91 1.383 1_655 S
C86 C82 1.495 . S
C86 H92 0.959 . S
C86 H93 0.961 . S
C86 H94 0.960 . S
C87 C85 1.381 . S
C87 C88 1.394 . S
C87 H95 0.930 . S
C88 C87 1.394 . S
C88 C89 1.383 . S
C88 H96 0.929 . S
C89 C88 1.383 . S
C89 C90 1.377 1_655 S
C90 H74 0.930 . S
C90 C89 1.377 1_455 S
C90 C91 1.379 . S
C91 H75 0.931 . S
C91 C85 1.383 1_455 S
C91 C90 1.379 . S
H92 C86 0.959 . S
H93 C86 0.961 . S
H94 C86 0.960 . S
H95 C87 0.930 . S
H96 C88 0.929 . S
H97 C105 0.929 . S
H98 C107 0.930 . S
H99 C109 0.930 . S
H100 C112 0.929 . S
H101 C115 0.930 . S
H102 C117 0.960 . S
H103 C117 0.960 . S
H104 C117 0.960 1_565 S
C105 H97 0.929 . S
C105 C106 1.377 1_545 S
C105 C107 1.384 . S
C106 C105 1.377 1_565 S
C106 C112 1.390 . S
C107 H98 0.930 . S
C107 C105 1.384 . S
C107 C108 1.372 1_545 S
C108 C107 1.372 1_565 S
C108 C109 1.400 . S
C108 C113 1.490 . S
C109 H99 0.930 . S
C109 C108 1.400 . S
C109 C112 1.386 . S
H110 C126 0.930 . S
H111 C127 0.931 . S
C112 H100 0.929 . S
C112 C106 1.390 . S
C112 C109 1.386 . S
C113 C108 1.490 . S
C113 C115 1.395 . S
C113 C116 1.403 1_565 S
H114 C120 0.930 . S
C115 H101 0.930 . S
C115 C113 1.395 . S
C115 C118 1.403 . S
C116 C113 1.403 1_545 S
C116 C117 1.524 . S
C116 C120 1.400 . S
C117 H102 0.960 . S
C117 H103 0.960 . S
C117 H104 0.960 1_545 S
C117 C116 1.524 . S
C118 C115 1.403 . S
C118 C119 1.392 . S
C118 C122 1.495 . S
C119 C118 1.392 . S
C119 C120 1.385 1_565 S
C119 C121 1.478 . S
C120 H114 0.930 . S
C120 C116 1.400 . S
C120 C119 1.385 1_545 S
C121 C119 1.478 . S
C121 C123 1.381 1_565 S
C121 C127 1.383 . S
C122 C118 1.495 . S
C122 H128 0.959 . S
C122 H129 0.961 . S
C122 H130 0.960 1_565 S
C123 C121 1.381 1_545 S
C123 C124 1.394 . S
C123 H131 0.930 . S
C124 C123 1.394 . S
C124 C125 1.371 1_545 S
C124 H132 0.929 . S
C125 C124 1.371 1_565 S
C125 C126 1.392 . S
C126 H110 0.930 . S
C126 C125 1.392 . S
C126 C127 1.379 . S
C127 H111 0.931 . S
C127 C121 1.383 . S
C127 C126 1.379 . S
H128 C122 0.959 . S
H129 C122 0.961 . S
H130 C122 0.960 1_545 S
H131 C123 0.930 . S
H132 C124 0.929 . S
H133 C141 0.929 . S
H134 C143 0.930 . S
H135 C145 0.930 . S
H136 C148 0.929 . S
H137 C151 0.930 . S
H138 C153 0.960 . S
H139 C153 0.960 1_455 S
H140 C153 0.960 . S
C141 H133 0.929 . S
C141 C142 1.377 . S
C141 C143 1.384 . S
C142 C141 1.377 . S
C142 C148 1.390 1_455 S
C143 H134 0.930 . S
C143 C141 1.384 . S
C143 C144 1.372 . S
C144 C143 1.372 . S
C144 C145 1.400 1_455 S
C144 C149 1.490 . S
C145 H135 0.930 . S
C145 C144 1.400 1_655 S
C145 C148 1.386 . S
H146 C162 0.930 . S
H147 C163 0.931 . S
C148 H136 0.929 . S
C148 C142 1.390 1_655 S
C148 C145 1.386 . S
C149 C144 1.490 . S
C149 C151 1.395 . S
C149 C152 1.403 . S
H150 C156 0.936 1_655 S
C151 H137 0.930 . S
C151 C149 1.395 . S
C151 C154 1.403 . S
C152 C149 1.403 . S
C152 C153 1.524 1_455 S
C152 C156 1.393 . S
C153 H138 0.960 . S
C153 H139 0.960 1_655 S
C153 H140 0.960 . S
C153 C152 1.524 1_655 S
C154 C151 1.403 . S
C154 C155 1.392 . S
C154 C158 1.495 . S
C155 C154 1.392 . S
C155 C156 1.388 . S
C155 C157 1.478 . S
C156 H150 0.936 1_455 S
C156 C152 1.393 . S
C156 C155 1.388 . S
C157 C155 1.478 . S
C157 C159 1.381 . S
C157 C163 1.383 1_455 S
C158 C154 1.495 . S
C158 H164 0.959 . S
C158 H165 0.961 1_455 S
C158 H166 0.960 . S
C159 C157 1.381 . S
C159 C160 1.394 . S
C159 H167 0.930 . S
C160 C159 1.394 . S
C160 C161 1.383 . S
C160 H168 0.929 . S
C161 C160 1.383 . S
C161 C162 1.377 1_455 S
C162 H146 0.930 . S
C162 C161 1.377 1_655 S
C162 C163 1.379 . S
C163 H147 0.931 . S
C163 C157 1.383 1_655 S
C163 C162 1.379 . S
H164 C158 0.959 . S
H165 C158 0.961 1_655 S
H166 C158 0.960 . S
H167 C159 0.930 . S
H168 C160 0.929 . S
H169 C177 0.929 . S
H170 C179 0.930 . S
H171 C181 0.930 . S
H172 C184 0.929 . S
H173 C187 0.930 . S
H174 C189 0.960 . S
H175 C189 0.960 . S
H176 C189 0.960 . S
C177 H169 0.929 . S
C177 C178 1.377 . S
C177 C179 1.384 . S
C178 C177 1.377 . S
C178 C184 1.390 1_565 S
C179 H170 0.930 . S
C179 C177 1.384 . S
C179 C180 1.372 . S
C180 C179 1.372 . S
C180 C181 1.400 1_565 S
C180 C185 1.490 . S
C181 H171 0.930 . S
C181 C180 1.400 1_545 S
C181 C184 1.386 . S
H182 C198 0.930 . S
H183 C199 0.931 . S
C184 H172 0.929 . S
C184 C178 1.390 1_545 S
C184 C181 1.386 . S
C185 C180 1.490 . S
C185 C187 1.395 . S
C185 C188 1.403 . S
H186 C192 0.930 . S
C187 H173 0.930 . S
C187 C185 1.395 . S
C187 C190 1.403 . S
C188 C185 1.403 . S
C188 C189 1.524 . S
C188 C192 1.400 . S
C189 H174 0.960 . S
C189 H175 0.960 . S
C189 H176 0.960 . S
C189 C188 1.524 . S
C190 C187 1.403 . S
C190 C191 1.392 . S
C190 C194 1.495 1_565 S
C191 C190 1.392 . S
C191 C192 1.385 . S
C191 C193 1.478 . S
C192 H186 0.930 . S
C192 C188 1.400 . S
C192 C191 1.385 . S
C193 C191 1.478 . S
C193 C195 1.381 . S
C193 C199 1.383 1_565 S
C194 C190 1.495 1_545 S
C194 H200 0.959 . S
C194 H201 0.961 . S
C194 H202 0.960 1_545 S
C195 C193 1.381 . S
C195 C196 1.394 . S
C195 H203 0.930 . S
C196 C195 1.394 . S
C196 C197 1.377 1_565 S
C196 H204 0.929 . S
C197 C196 1.377 1_545 S
C197 C198 1.387 . S
C198 H182 0.930 . S
C198 C197 1.387 . S
C198 C199 1.379 . S
C199 H183 0.931 . S
C199 C193 1.383 1_545 S
C199 C198 1.379 . S
H200 C194 0.959 . S
H201 C194 0.961 . S
H202 C194 0.960 1_565 S
H203 C195 0.930 . S
H204 C196 0.929 . S
H205 C213 0.929 . S
H206 C215 0.930 . S
H207 C217 0.930 . S
H208 C220 0.929 . S
H209 C223 0.930 . S
H210 C225 0.960 . S
H211 C225 0.960 . S
H212 C225 0.960 . S
C213 H205 0.929 . S
C213 C214 1.377 . S
C213 C215 1.384 . S
C214 C213 1.377 . S
C214 C220 1.390 1_655 S
C215 H206 0.930 . S
C215 C213 1.384 . S
C215 C216 1.372 . S
C216 C215 1.372 . S
C216 C217 1.400 1_655 S
C216 C221 1.490 . S
C217 H207 0.930 . S
C217 C216 1.400 1_455 S
C217 C220 1.386 . S
H218 C234 0.930 . S
H219 C235 0.931 . S
C220 H208 0.929 . S
C220 C214 1.390 1_455 S
C220 C217 1.386 . S
C221 C216 1.490 . S
C221 C223 1.395 1_655 S
C221 C224 1.403 . S
H222 C228 0.930 . S
C223 H209 0.930 . S
C223 C221 1.395 1_455 S
C223 C226 1.403 . S
C224 C221 1.403 . S
C224 C225 1.524 . S
C224 C228 1.400 . S
C225 H210 0.960 . S
C225 H211 0.960 . S
C225 H212 0.960 . S
C225 C224 1.524 . S
C226 C223 1.403 . S
C226 C227 1.392 . S
C226 C230 1.495 . S
C227 C226 1.392 . S
C227 C228 1.385 1_455 S
C227 C229 1.478 . S
C228 H222 0.930 . S
C228 C224 1.400 . S
C228 C227 1.385 1_655 S
C229 C227 1.478 . S
C229 C231 1.381 1_455 S
C229 C235 1.383 . S
C230 C226 1.495 . S
C230 H236 0.959 . S
C230 H237 0.961 . S
C230 H238 0.960 . S
C231 C229 1.381 1_655 S
C231 C232 1.394 . S
C231 H239 0.930 . S
C232 C231 1.394 . S
C232 C233 1.383 1_655 S
C232 H240 0.929 . S
C233 C232 1.383 1_455 S
C233 C234 1.377 . S
C234 H218 0.930 . S
C234 C233 1.377 . S
C234 C235 1.379 . S
C235 H219 0.931 . S
C235 C229 1.383 . S
C235 C234 1.379 . S
H236 C230 0.959 . S
H237 C230 0.961 . S
H238 C230 0.960 . S
H239 C231 0.930 . S
H240 C232 0.929 . S
H241 C249 0.929 . S
H242 C251 0.930 . S
H243 C253 0.930 . S
H244 C256 0.929 . S
H245 C259 0.930 . S
H246 C261 0.960 . S
H247 C261 0.960 . S
H248 C261 0.960 1_545 S
C249 H241 0.929 . S
C249 C250 1.377 1_565 S
C249 C251 1.384 . S
C250 C249 1.377 1_545 S
C250 C256 1.390 . S
C251 H242 0.930 . S
C251 C249 1.384 . S
C251 C252 1.372 1_565 S
C252 C251 1.372 1_545 S
C252 C253 1.400 . S
C252 C257 1.490 . S
C253 H243 0.930 . S
C253 C252 1.400 . S
C253 C256 1.386 . S
H254 C270 0.930 . S
H255 C271 0.931 . S
C256 H244 0.929 . S
C256 C250 1.390 . S
C256 C253 1.386 . S
C257 C252 1.490 . S
C257 C259 1.395 . S
C257 C260 1.403 1_545 S
H258 C264 0.930 . S
C259 H245 0.930 . S
C259 C257 1.395 . S
C259 C262 1.403 . S
C260 C257 1.403 1_565 S
C260 C261 1.524 . S
C260 C264 1.400 . S
C261 H246 0.960 . S
C261 H247 0.960 . S
C261 H248 0.960 1_565 S
C261 C260 1.524 . S
C262 C259 1.403 . S
C262 C263 1.392 . S
C262 C266 1.495 . S
C263 C262 1.392 . S
C263 C264 1.385 1_545 S
C263 C265 1.478 . S
C264 H258 0.930 . S
C264 C260 1.400 . S
C264 C263 1.385 1_565 S
C265 C263 1.478 . S
C265 C267 1.381 1_545 S
C265 C271 1.383 . S
C266 C262 1.495 . S
C266 H272 0.959 . S
C266 H273 0.961 . S
C266 H274 0.960 . S
C267 C265 1.381 1_565 S
C267 C268 1.394 . S
C267 H275 0.930 . S
C268 C267 1.394 . S
C268 C269 1.383 1_565 S
C268 H276 0.929 . S
C269 C268 1.383 1_545 S
C269 C270 1.377 . S
C270 H254 0.930 . S
C270 C269 1.377 . S
C270 C271 1.379 . S
C271 H255 0.931 . S
C271 C265 1.383 . S
C271 C270 1.379 . S
H272 C266 0.959 . S
H273 C266 0.961 . S
H274 C266 0.960 . S
H275 C267 0.930 . S
H276 C268 0.929 . S
H277 C285 0.929 . S
H278 C287 0.930 . S
H279 C289 0.930 1_455 S
H280 C292 0.929 1_455 S
H281 C295 0.930 . S
H282 C297 0.960 . S
H283 C297 0.960 . S
H284 C297 0.960 . S
C285 H277 0.929 . S
C285 C286 1.377 . S
C285 C287 1.384 . S
C286 C285 1.377 . S
C286 C292 1.390 . S
C287 H278 0.930 . S
C287 C285 1.384 . S
C287 C288 1.372 . S
C288 C287 1.372 . S
C288 C289 1.400 . S
C288 C293 1.490 . S
C289 H279 0.930 1_655 S
C289 C288 1.400 . S
C289 C292 1.386 . S
H290 C306 0.930 . S
H291 C307 0.931 . S
C292 H280 0.929 1_655 S
C292 C286 1.390 . S
C292 C289 1.386 . S
C293 C288 1.490 . S
C293 C295 1.395 1_655 S
C293 C296 1.403 . S
H294 C300 0.930 . S
C295 H281 0.930 . S
C295 C293 1.395 1_455 S
C295 C298 1.403 . S
C296 C293 1.403 . S
C296 C297 1.524 . S
C296 C300 1.400 . S
C297 H282 0.960 . S
C297 H283 0.960 . S
C297 H284 0.960 . S
C297 C296 1.524 . S
C298 C295 1.403 . S
C298 C299 1.392 . S
C298 C302 1.495 . S
C299 C298 1.392 . S
C299 C300 1.385 1_455 S
C299 C301 1.478 . S
C300 H294 0.930 . S
C300 C296 1.400 . S
C300 C299 1.385 1_655 S
C301 C299 1.478 . S
C301 C303 1.381 1_455 S
C301 C307 1.383 . S
C302 C298 1.495 . S
C302 H308 0.959 . S
C302 H309 0.961 . S
C302 H310 0.960 . S
C303 C301 1.381 1_655 S
C303 C304 1.394 . S
C303 H311 0.930 . S
C304 C303 1.394 . S
C304 C305 1.383 1_655 S
C304 H312 0.929 . S
C305 C304 1.383 1_455 S
C305 C306 1.377 . S
C306 H290 0.930 . S
C306 C305 1.377 . S
C306 C307 1.379 . S
C307 H291 0.931 . S
C307 C301 1.383 . S
C307 C306 1.379 . S
H308 C302 0.959 . S
H309 C302 0.961 . S
H310 C302 0.960 . S
H311 C303 0.930 . S
H312 C304 0.929 . S
H313 C321 0.929 . S
H314 C323 0.930 . S
H315 C325 0.930 . S
H316 C328 0.929 . S
H317 C331 0.930 . S
H318 C333 0.960 . S
H319 C333 0.960 . S
H320 C333 0.960 . S
C321 H313 0.929 . S
C321 C322 1.377 . S
C321 C323 1.384 . S
C322 C321 1.377 . S
C322 C328 1.390 1_545 S
C323 H314 0.930 . S
C323 C321 1.384 . S
C323 C324 1.372 . S
C324 C323 1.372 . S
C324 C325 1.400 1_545 S
C324 C329 1.490 . S
C325 H315 0.930 . S
C325 C324 1.400 1_565 S
C325 C328 1.386 . S
H326 C342 0.930 . S
H327 C343 0.931 . S
C328 H316 0.929 . S
C328 C322 1.390 1_565 S
C328 C325 1.386 . S
C329 C324 1.490 . S
C329 C331 1.395 . S
C329 C332 1.403 1_545 S
H330 C336 0.930 . S
C331 H317 0.930 . S
C331 C329 1.395 . S
C331 C334 1.403 . S
C332 C329 1.403 1_565 S
C332 C333 1.524 . S
C332 C336 1.400 . S
C333 H318 0.960 . S
C333 H319 0.960 . S
C333 H320 0.960 . S
C333 C332 1.524 . S
C334 C331 1.403 . S
C334 C335 1.392 . S
C334 C338 1.495 . S
C335 C334 1.392 . S
C335 C336 1.385 1_545 S
C335 C337 1.478 . S
C336 H330 0.930 . S
C336 C332 1.400 . S
C336 C335 1.385 1_565 S
C337 C335 1.478 . S
C337 C339 1.381 . S
C337 C343 1.383 1_545 S
C338 C334 1.495 . S
C338 H344 0.959 . S
C338 H345 0.961 . S
C338 H346 0.960 . S
C339 C337 1.381 . S
C339 C340 1.394 . S
C339 H347 0.930 . S
C340 C339 1.394 . S
C340 C341 1.383 . S
C340 H348 0.929 . S
C341 C340 1.383 . S
C341 C342 1.377 1_545 S
C342 H326 0.930 . S
C342 C341 1.377 1_565 S
C342 C343 1.379 . S
C343 H327 0.931 . S
C343 C337 1.383 1_565 S
C343 C342 1.379 . S
H344 C338 0.959 . S
H345 C338 0.961 . S
H346 C338 0.960 . S
H347 C339 0.930 . S
H348 C340 0.929 . S
C70 C23 1.275 . S
C89 C34 1.349 1_655 S
C106 C22 1.403 . S
C125 C60 1.430 1_565 S
C142 C21 1.802 . S
C161 C46 1.809 . S
C178 C24 1.486 . S
C197 C48 1.528 . S
C214 C27 1.268 . S
C233 C33 1.351 . S
C250 C26 1.405 . S
C269 C59 1.451 . S
C305 C45 1.811 . S
C286 C25 1.802 . S
C322 C28 1.478 . S
C341 C47 1.533 . S
