# Generated by pormake.
# Topology nia, (6,6)-cn, num edge types: 1
# Building blocks:
#     Node 0, Type 0, BuildingBlock: KUMJIN_clean_sbu_1, # of connection points: 6
#     Node 1, Type 0, BuildingBlock: KUMJIN_clean_sbu_1, # of connection points: 6
#     Node 2, Type 1, BuildingBlock: MIDCAF_clean_sbu_0, # of connection points: 6
#     Node 3, Type 1, BuildingBlock: MIDCAF_clean_sbu_0, # of connection points: 6
#     Edge 4, Type (0, 1), BuildingBlock: KIFKEQ_clean_linker_1, # of connection points: 2
#     Edge 5, Type (0, 1), BuildingBlock: KIFKEQ_clean_linker_1, # of connection points: 2
#     Edge 6, Type (0, 1), BuildingBlock: KIFKEQ_clean_linker_1, # of connection points: 2
#     Edge 7, Type (0, 1), BuildingBlock: KIFKEQ_clean_linker_1, # of connection points: 2
#     Edge 8, Type (0, 1), BuildingBlock: KIFKEQ_clean_linker_1, # of connection points: 2
#     Edge 9, Type (0, 1), BuildingBlock: KIFKEQ_clean_linker_1, # of connection points: 2
#     Edge 10, Type (0, 1), BuildingBlock: KIFKEQ_clean_linker_1, # of connection points: 2
#     Edge 11, Type (0, 1), BuildingBlock: KIFKEQ_clean_linker_1, # of connection points: 2
#     Edge 12, Type (0, 1), BuildingBlock: KIFKEQ_clean_linker_1, # of connection points: 2
#     Edge 13, Type (0, 1), BuildingBlock: KIFKEQ_clean_linker_1, # of connection points: 2
#     Edge 14, Type (0, 1), BuildingBlock: KIFKEQ_clean_linker_1, # of connection points: 2
#     Edge 15, Type (0, 1), BuildingBlock: KIFKEQ_clean_linker_1, # of connection points: 2
# Relax obj value: 0.171
# Max RMSD: 0.279
# Mean RMSD: 0.201
data_MOF--net-nia--node1-KUMJIN_clean_sbu_1--node2-MIDCAF_clean_sbu_0--edge1-KIFKEQ_clean_linker_1
_symmetry_space_group_name_H-M    P1
_symmetry_Int_Tables_number       1
_symmetry_cell_setting            triclinic
loop_
_symmetry_equiv_pos_as_xyz
'x, y, z'
_cell_length_a     28.967436
_cell_length_b     28.924245
_cell_length_c     31.421725
_cell_angle_alpha  89.756398
_cell_angle_beta   89.831661
_cell_angle_gamma 135.49746
loop_
_atom_site_label
_atom_site_type_symbol
_atom_site_fract_x
_atom_site_fract_y
_atom_site_fract_z
_atom_type_partial_charge
Eu0 Eu 0.01656 0.96887 0.06705 0.0
C1 C 0.92313 0.95055 0.88461 0.0
N2 N 0.98392 0.00153 0.90113 0.0
C3 C 0.03521 0.00704 0.83861 0.0
C4 C 0.91634 0.92445 0.84458 0.0
C5 C 0.03962 0.03118 0.87844 0.0
C6 C 0.97333 0.95307 0.8218 0.0
C7 C 0.80422 0.86918 0.89226 0.0
C8 C 0.86766 0.9228 0.90866 0.0
C9 C 0.7974 0.84251 0.85267 0.0
C10 C 0.85325 0.87002 0.82893 0.0
Eu11 Eu 0.98683 0.03841 0.96869 0.0
N12 N 0.87552 0.94899 0.94733 0.0
C13 C 0.74932 0.84472 0.91566 0.0
C14 C 0.82208 0.92884 0.96821 0.0
C15 C 0.75838 0.87552 0.95335 0.0
H16 H 0.08737 0.07336 0.89124 0.0
H17 H 0.71629 0.85901 0.97061 0.0
H18 H 0.91924 0.93803 0.14538 0.0
H19 H 0.28701 0.14723 0.0615 0.0
H20 H 0.82755 0.95447 0.99568 0.0
H21 H 0.69985 0.80369 0.90411 0.0
H22 H 0.17475 0.0505 0.03864 0.0
H23 H 0.0795 0.02981 0.82107 0.0
H24 H 0.74902 0.80101 0.83987 0.0
H25 H 0.84712 0.84898 0.79839 0.0
H26 H 0.92976 0.98509 0.21454 0.0
H27 H 0.97001 0.93356 0.79139 0.0
H28 H 0.30615 0.20642 0.12655 0.0
N29 N 0.02229 0.00927 0.13389 0.0
C30 C 0.0837 0.06104 0.14927 0.0
C31 C 0.97342 0.00686 0.1966 0.0
C32 C 0.09205 0.08911 0.18879 0.0
C33 C 0.96747 0.98067 0.15733 0.0
C34 C 0.03595 0.06162 0.21227 0.0
N35 N 0.12878 0.05926 0.0865 0.0
C36 C 0.18136 0.07788 0.06537 0.0
C37 C 0.20227 0.14187 0.1398 0.0
C38 C 0.13819 0.08752 0.12456 0.0
C39 C 0.25623 0.16489 0.11591 0.0
C40 C 0.24565 0.1319 0.07902 0.0
H41 H 0.0404 0.08257 0.24234 0.0
H42 H 0.16308 0.16688 0.23331 0.0
H43 H 0.25954 0.21266 0.19069 0.0
O44 O 0.04826 0.91976 0.08167 0.0
O45 O 0.02331 0.05105 0.07984 0.0
O46 O 0.06415 0.11165 1.01774 0.0
O47 O 0.96188 0.8881 0.11275 0.0
O48 O 0.0753 -0.00082 1.00566 0.0
O49 O 0.08872 0.08394 0.98322 0.0
O50 O 0.95624 0.08914 0.95638 0.0
O51 O 0.97803 0.95495 0.95536 0.0
O52 O 0.9401 0.89483 1.01782 0.0
O53 O 0.04158 0.12016 0.92391 0.0
O54 O 0.92652 0.00602 0.02949 0.0
O55 O 0.91371 0.92214 0.05399 0.0
C56 C 0.05785 0.10713 0.05938 0.0
C57 C -0.01166 0.82891 0.13418 0.0
C58 C 0.02658 0.78408 0.16638 0.0
C59 C 0.96586 0.73647 0.18784 0.0
C60 C 0.92789 0.78046 0.15585 0.0
C61 C 0.91678 0.73449 0.18231 0.0
C62 C 0.03739 0.8299 0.13905 0.0
C63 C 0.1051 0.05181 0.98165 0.0
C64 C 0.00082 0.88056 0.10946 0.0
C65 C 0.15575 0.1443 0.20322 0.0
C66 C 0.21066 0.17058 0.17881 0.0
C67 C 0.94425 0.89907 0.97603 0.0
C68 C 0.01789 0.18257 0.90566 0.0
C69 C 0.98227 0.23048 0.87455 0.0
C70 C 0.04531 0.28115 0.85642 0.0
C71 C 0.08055 0.23393 0.88723 0.0
C72 C 0.96896 0.18152 0.89974 0.0
C73 C 0.0941 0.28295 0.86297 0.0
C74 C 0.89665 0.95379 0.05402 0.0
C75 C 0.0039 0.12906 0.92881 0.0
H76 H 0.95609 0.7002 0.20855 0.0
H77 H 0.88924 0.77843 0.15273 0.0
H78 H 0.87009 0.69747 0.19887 0.0
H79 H 0.08443 0.86736 0.12285 0.0
H80 H 0.05706 0.31986 0.83745 0.0
H81 H 0.11919 0.23612 0.89136 0.0
H82 H 0.92028 0.14179 0.91343 0.0
H83 H 0.14253 0.32229 0.84895 0.0
Eu84 Eu 0.02405 0.97553 0.47265 0.0
C85 C 0.0744 0.10042 0.6459 0.0
N86 N 0.01733 0.03965 0.633 0.0
C87 C 0.00954 0.99124 0.69817 0.0
C88 C 0.10203 0.10844 0.68555 0.0
C89 C 0.98396 0.98562 0.65871 0.0
C90 C 0.06888 0.05286 0.71168 0.0
C91 C 0.16643 0.21739 0.63098 0.0
C92 C 0.10662 0.15412 0.61845 0.0
C93 C 0.19434 0.22539 0.67029 0.0
C94 C 0.16229 0.17111 0.69746 0.0
Eu95 Eu 0.97862 0.03408 0.56546 0.0
N96 N 0.07915 0.14485 0.58004 0.0
C97 C 0.19592 0.27115 0.60403 0.0
C98 C 0.10489 0.19818 0.55565 0.0
C99 C 0.16433 0.26164 0.56663 0.0
H100 H 0.93743 0.93827 0.64875 0.0
H101 H 0.18508 0.30341 0.54662 0.0
H102 H 0.08353 0.07888 0.39049 0.0
H103 H 0.79908 0.70947 0.48461 0.0
H104 H 0.07922 0.19308 0.52838 0.0
H105 H 0.24178 0.3205 0.61255 0.0
H106 H 0.90644 0.81465 0.50755 0.0
H107 H 0.9835 0.94791 0.71793 0.0
H108 H 0.24049 0.27357 0.68017 0.0
H109 H 0.18449 0.17813 0.72766 0.0
H110 H 0.04987 0.07783 0.31815 0.0
H111 H 0.08881 0.05696 0.74219 0.0
H112 H 0.75541 0.70108 0.41442 0.0
N113 N -0.00272 0.97778 0.40256 0.0
C114 C 0.93991 0.91979 0.387 0.0
C115 C 0.01839 0.03307 0.33713 0.0
C116 C 0.91893 0.91676 0.34573 0.0
C117 C 0.03706 0.03379 0.37824 0.0
C118 C 0.95894 0.97437 0.32086 0.0
N119 N 0.92119 0.86898 0.45356 0.0
C120 C 0.88694 0.81356 0.47812 0.0
C121 C 0.83984 0.80386 0.39827 0.0
C122 C 0.90052 0.86412 0.41332 0.0
C123 C 0.80224 0.74823 0.42481 0.0
C124 C 0.82647 0.75289 0.46459 0.0
H125 H 0.94416 0.97404 0.28921 0.0
H126 H 0.84114 0.85386 0.29946 0.0
H127 H 0.77214 0.75497 0.3453 0.0
O128 O 0.05287 0.92327 0.47402 0.0
O129 O 0.94805 0.97664 0.45932 0.0
O130 O 0.89489 0.95039 0.52316 0.0
O131 O 0.09304 -0.00292 0.42564 0.0
O132 O -0.00947 0.92329 0.53734 0.0
O133 O 0.9174 0.92505 0.56442 0.0
O134 O 0.94009 0.0774 0.56709 0.0
O135 O 0.0551 0.03283 0.57752 0.0
O136 O 0.10761 0.06146 0.51338 0.0
O137 O 0.915 0.01149 0.61729 0.0
O138 O 0.01041 0.08535 0.50067 0.0
O139 O 0.08427 0.08467 0.47331 0.0
C140 C 0.89543 0.95014 0.48133 0.0
C141 C 0.15866 0.9814 0.44734 0.0
C142 C 0.23349 0.97053 0.43356 0.0
C143 C 0.28249 0.02864 0.45676 0.0
C144 C 0.208 0.03911 0.4703 0.0
C145 C 0.26965 0.06254 0.47501 0.0
C146 C 0.17145 0.94729 0.42902 0.0
C147 C 0.94253 0.9011 0.56373 0.0
C148 C 0.09369 0.95626 0.44203 0.0
C149 C 0.85822 0.857 0.331 0.0
C150 C 0.81881 0.80076 0.35718 0.0
C151 C 0.10812 0.06159 0.5551 0.0
C152 C 0.83895 0.0163 0.60387 0.0
C153 C 0.76245 0.01982 0.63125 0.0
C154 C 0.70978 0.95596 0.61518 0.0
C155 C 0.78604 0.95309 0.58776 0.0
C156 C 0.82714 0.04967 0.62491 0.0
C157 C 0.72171 0.92323 0.59333 0.0
C158 C 0.05854 0.10812 0.47421 0.0
C159 C 0.90648 0.04668 0.60203 0.0
H160 H 0.331 0.04831 0.46044 0.0
H161 H 0.19882 0.066 0.48431 0.0
H162 H 0.30766 0.10721 0.49273 0.0
H163 H 0.13274 0.9022 0.41178 0.0
H164 H 0.65926 0.93077 0.6199 0.0
H165 H 0.79444 0.92658 0.57161 0.0
H166 H 0.8688 0.09908 0.63634 0.0
H167 H 0.68085 0.87416 0.5812 0.0
Zn168 Zn 0.36221 0.65972 0.18879 0.0
Zn169 Zn 0.34762 0.64176 0.3437 0.0
Zn170 Zn 0.35855 0.65187 0.26707 0.0
C171 C 0.47256 0.69976 0.32745 0.0
C172 C 0.25532 0.51545 0.32131 0.0
O173 O 0.31623 0.68964 0.24585 0.0
O174 O 0.29933 0.66528 0.17748 0.0
C175 C 0.49169 0.75282 0.21176 0.0
O176 O 0.45864 0.70867 0.29141 0.0
O177 O 0.42815 0.66323 0.35542 0.0
O178 O 0.26352 0.54883 0.35181 0.0
O179 O 0.29011 0.5453 0.28699 0.0
O180 O 0.45649 0.74148 0.18138 0.0
O181 O 0.4641 0.72006 0.24695 0.0
O182 O 0.30035 0.55125 0.24278 0.0
O183 O 0.33476 0.57608 0.17593 0.0
C184 C 0.30316 0.53424 0.20582 0.0
O185 O 0.32439 0.6967 0.28998 0.0
O186 O 0.35001 0.70961 0.35798 0.0
C187 C 0.29303 0.68636 0.20963 0.0
C188 C 0.33079 0.71991 0.32696 0.0
Zn189 Zn 0.63159 0.33834 0.85059 0.0
Zn190 Zn 0.67203 0.36485 0.68841 0.0
Zn191 Zn 0.64414 0.35373 0.76819 0.0
C192 C 0.74139 0.49138 0.71374 0.0
C193 C 0.5343 0.28345 0.69747 0.0
O194 O 0.68698 0.31911 0.79497 0.0
O195 O 0.67977 0.31566 0.86526 0.0
C196 C 0.70082 0.47019 0.83122 0.0
O197 O 0.71076 0.46026 0.74895 0.0
O198 O 0.7344 0.46048 0.68194 0.0
O199 O 0.57977 0.30884 0.67058 0.0
O200 O 0.54745 0.29395 0.73752 0.0
O201 O 0.67221 0.42874 0.86147 0.0
O202 O 0.69962 0.45289 0.79321 0.0
O203 O 0.53681 0.28646 0.78322 0.0
O204 O 0.5352 0.26601 0.85152 0.0
C205 C 0.50491 0.25578 0.81823 0.0
O206 O 0.68147 0.30953 0.75072 0.0
O207 O 0.70712 0.3273 0.68214 0.0
C208 C 0.69839 0.30887 0.83174 0.0
C209 C 0.70246 0.30302 0.71724 0.0
H210 H 0.09304 0.7832 0.10533 0.0
H211 H 0.07357 0.78418 0.24146 0.0
H212 H 0.16463 0.76712 0.11583 0.0
H213 H 0.14539 0.76848 0.25202 0.0
H214 H 0.32122 0.78918 0.2476 0.0
H215 H 0.2638 0.82219 0.23783 0.0
H216 H 0.136 0.6669 0.14608 0.0
H217 H 0.19104 0.63232 0.15746 0.0
C218 C 0.10523 0.78135 0.13743 0.0
C219 C 0.07748 0.78437 0.17257 0.0
C220 C 0.14573 0.77172 0.14346 0.0
C221 C 0.15998 0.76596 0.18474 0.0
C222 C 0.13535 0.77292 0.21988 0.0
C223 C 0.09406 0.78153 0.21384 0.0
C224 C 0.27951 0.76102 0.22646 0.0
C225 C 0.25894 0.70677 0.20454 0.0
C226 C 0.24744 0.7805 0.2203 0.0
C227 C 0.19562 0.7472 0.19106 0.0
C228 C 0.17623 0.69393 0.16846 0.0
C229 C 0.20747 0.67391 0.17516 0.0
H230 H 0.1188 0.0328 0.63495 0.0
H231 H 0.23475 0.15969 0.5263 0.0
H232 H 0.21952 0.08478 0.67295 0.0
H233 H 0.33521 0.20949 0.56356 0.0
H234 H 0.48642 0.22043 0.62191 0.0
H235 H 0.38206 0.16586 0.58928 0.0
H236 H 0.32534 0.20104 0.70187 0.0
H237 H 0.43171 0.25792 0.73418 0.0
C238 C 0.16583 0.07214 0.61933 0.0
C239 C 0.16899 0.09236 0.57769 0.0
C240 C 0.22334 0.10164 0.64105 0.0
C241 C 0.28499 0.15086 0.62112 0.0
C242 C 0.28815 0.17108 0.57949 0.0
C243 C 0.23074 0.14242 0.55809 0.0
C244 C 0.45166 0.21626 0.63997 0.0
C245 C 0.46712 0.24321 0.68095 0.0
C246 C 0.392 0.18519 0.62114 0.0
C247 C 0.34603 0.17987 0.64287 0.0
C248 C 0.35993 0.20423 0.68454 0.0
C249 C 0.42032 0.23609 0.70328 0.0
H250 H 0.02449 0.11636 0.13786 0.0
H251 H 0.16758 0.23401 0.03655 0.0
H252 H 0.08614 0.2146 0.18149 0.0
H253 H 0.22651 0.33291 0.0784 0.0
H254 H 0.35497 0.49647 0.16751 0.0
H255 H 0.29553 0.38915 0.13719 0.0
H256 H 0.1133 0.3131 0.18906 0.0
H257 H 0.17437 0.4203 0.22154 0.0
C258 C 0.06935 0.16332 0.12504 0.0
C259 C 0.09219 0.16735 0.0843 0.0
C260 C 0.10421 0.2198 0.14979 0.0
C261 C 0.16203 0.28187 0.13387 0.0
C262 C 0.18341 0.28586 0.09239 0.0
C263 C 0.14907 0.22927 0.068 0.0
C264 C 0.30244 0.4561 0.17335 0.0
C265 C 0.26897 0.46629 0.19654 0.0
C266 C 0.26815 0.39485 0.15551 0.0
C267 C 0.19921 0.34285 0.15941 0.0
C268 C 0.16632 0.35189 0.18529 0.0
C269 C 0.20112 0.41317 0.20397 0.0
H270 H 0.6662 0.01587 0.61604 0.0
H271 H 0.83171 0.10608 0.69822 0.0
H272 H 0.65274 0.08173 0.64928 0.0
H273 H 0.8202 0.17482 0.72897 0.0
H274 H 0.80597 0.33401 0.67971 0.0
H275 H 0.82023 0.26093 0.66932 0.0
H276 H 0.64481 0.10949 0.74391 0.0
H277 H 0.63175 0.18376 0.75578 0.0
C278 C 0.69901 0.04862 0.64159 0.0
C279 C 0.75056 0.05585 0.65395 0.0
C280 C 0.69125 0.0864 0.66049 0.0
C281 C 0.73532 0.13279 0.69167 0.0
C282 C 0.78557 0.13903 0.70508 0.0
C283 C 0.79256 0.10026 0.68689 0.0
C284 C 0.77161 0.28582 0.69491 0.0
C285 C 0.7177 0.26418 0.71838 0.0
C286 C 0.77986 0.24428 0.68907 0.0
C287 C 0.73343 0.17994 0.70574 0.0
C288 C 0.68122 0.15918 0.73098 0.0
C289 C 0.67389 0.2015 0.73777 0.0
H290 H 0.87443 0.02494 0.08431 0.0
H291 H 0.80125 0.8327 0.0919 0.0
H292 H 0.78842 0.98842 0.1338 0.0
H293 H 0.71412 0.79544 0.14038 0.0
H294 H 0.56753 0.86144 0.1616 0.0
H295 H 0.67304 0.91716 0.13001 0.0
H296 H 0.68304 0.80238 0.20976 0.0
H297 H 0.57525 0.74479 0.24069 0.0
C298 C 0.83965 0.97472 0.09633 0.0
C299 C 0.84405 0.93143 0.08374 0.0
C300 C 0.79048 0.95381 0.12485 0.0
C301 C 0.74408 0.88887 0.14115 0.0
C302 C 0.74953 0.84609 0.12916 0.0
C303 C 0.79899 0.86717 0.10088 0.0
C304 C 0.59312 0.8494 0.17331 0.0
C305 C 0.56299 0.79845 0.20336 0.0
C306 C 0.65394 0.88159 0.15526 0.0
C307 C 0.68632 0.86366 0.16676 0.0
C308 C 0.65878 0.8165 0.19957 0.0
C309 C 0.59758 0.78421 0.21781 0.0
H310 H 0.81938 0.80545 0.5993 0.0
H311 H 0.01293 0.8822 0.60009 0.0
H312 H 0.77925 0.71615 0.64744 0.0
H313 H 0.97424 0.79543 0.64965 0.0
H314 H 0.85466 0.57634 0.66928 0.0
H315 H 0.90845 0.68299 0.64135 0.0
H316 H 0.77725 0.6755 0.71563 0.0
H317 H 0.72158 0.56599 0.74294 0.0
C318 C 0.85349 0.80367 0.61032 0.0
C319 C 0.91875 0.84959 0.59514 0.0
C320 C 0.83079 0.75299 0.63832 0.0
C321 C 0.87323 0.74787 0.65218 0.0
C322 C 0.93961 0.7966 0.63887 0.0
C323 C 0.96185 0.84632 0.61035 0.0
C324 C 0.83839 0.5982 0.68062 0.0
C325 C 0.78367 0.56272 0.70798 0.0
C326 C 0.86952 0.65981 0.66471 0.0
C327 C 0.84693 0.688 0.67575 0.0
C328 C 0.79523 0.65475 0.70588 0.0
C329 C 0.76392 0.59255 0.72202 0.0
H330 H 0.29957 0.94563 0.46964 0.0
H331 H 0.19692 0.91169 0.35518 0.0
H332 H 0.32307 0.88704 0.43919 0.0
H333 H 0.22039 0.85246 0.3246 0.0
H334 H 0.21748 0.68734 0.31206 0.0
H335 H 0.19312 0.74941 0.33475 0.0
H336 H 0.39122 0.90352 0.38263 0.0
H337 H 0.41462 0.84121 0.36047 0.0
C338 C 0.2826 0.92626 0.43777 0.0
C339 C 0.24685 0.93387 0.41476 0.0
C340 C 0.29606 0.89262 0.42028 0.0
C341 C 0.2742 0.8657 0.37927 0.0
C342 C 0.23756 0.87233 0.35636 0.0
C343 C 0.22411 0.90619 0.37391 0.0
C344 C 0.25585 0.73511 0.3267 0.0
C345 C 0.318 0.7601 0.33427 0.0
C346 C 0.24206 0.77058 0.3397 0.0
C347 C 0.29004 0.83099 0.361 0.0
C348 C 0.35284 0.85662 0.36705 0.0
C349 C 0.36646 0.82132 0.35411 0.0
H350 H 0.2106 0.17811 0.95634 0.0
H351 H 0.11744 0.97909 0.93872 0.0
H352 H 0.29686 0.21859 0.90612 0.0
H353 H 0.20198 0.01876 0.88633 0.0
H354 H 0.41583 0.13085 0.84777 0.0
H355 H 0.31172 0.07539 0.88197 0.0
H356 H 0.32958 0.22898 0.8364 0.0
H357 H 0.43669 0.28678 0.80522 0.0
C358 C 0.20844 0.14295 0.94132 0.0
C359 C 0.15799 0.07566 0.95182 0.0
C360 C 0.2574 0.16597 0.91191 0.0
C361 C 0.25659 0.12209 0.89155 0.0
C362 C 0.20508 0.05433 0.90167 0.0
C363 C 0.15667 0.03147 0.93179 0.0
C364 C 0.39603 0.15123 0.84368 0.0
C365 C 0.43354 0.21227 0.823 0.0
C366 C 0.33619 0.11949 0.86341 0.0
C367 C 0.31228 0.14808 0.86283 0.0
C368 C 0.34704 0.20617 0.83853 0.0
C369 C 0.40763 0.23852 0.81946 0.0
H370 H 0.18015 0.20296 0.43627 0.0
H371 H -0.0129 0.12735 0.44047 0.0
H372 H 0.21839 0.29185 0.38846 0.0
H373 H 0.02413 0.21417 0.39169 0.0
H374 H 0.14573 0.4343 0.37046 0.0
H375 H 0.09265 0.32828 0.39974 0.0
H376 H 0.21491 0.32881 0.31999 0.0
H377 H 0.2698 0.4372 0.29137 0.0
C378 C 0.14572 0.20486 0.42644 0.0
C379 C 0.08113 0.15919 0.44277 0.0
C380 C 0.16734 0.25535 0.39869 0.0
C381 C 0.12454 0.26072 0.38644 0.0
C382 C 0.05891 0.21258 0.40112 0.0
C383 C 0.03766 0.16283 0.42918 0.0
C384 C 0.16007 0.411 0.35825 0.0
C385 C 0.21205 0.44414 0.32875 0.0
C386 C 0.12941 0.34985 0.37497 0.0
C387 C 0.14987 0.32001 0.36267 0.0
C388 C 0.19865 0.3509 0.33068 0.0
C389 C 0.22939 0.41245 0.31376 0.0
H390 H 0.94706 0.24313 0.79854 0.0
H391 H 0.90356 0.21749 0.93306 0.0
H392 H 0.87279 0.2548 0.78615 0.0
H393 H 0.83042 0.2309 0.92109 0.0
H394 H 0.67031 0.21716 0.88498 0.0
H395 H 0.7312 0.18844 0.89324 0.0
H396 H 0.86948 0.33241 0.79615 0.0
H397 H 0.807 0.35906 0.78729 0.0
C398 C 0.92126 0.23973 0.82544 0.0
C399 C 0.93135 0.22986 0.86681 0.0
C400 C 0.87887 0.24668 0.81839 0.0
C401 C 0.84584 0.24443 0.85258 0.0
C402 C 0.85421 0.23209 0.89383 0.0
C403 C 0.89625 0.22453 0.90082 0.0
C404 C 0.71349 0.24209 0.86525 0.0
C405 C 0.73371 0.28974 0.83518 0.0
C406 C 0.74864 0.22599 0.8701 0.0
C407 C 0.80557 0.25811 0.8455 0.0
C408 C 0.82529 0.30558 0.81515 0.0
C409 C 0.78968 0.32112 0.81005 0.0
H410 H 0.88754 0.97709 0.40031 0.0
H411 H 0.76744 0.84992 0.50792 0.0
H412 H 0.78951 0.91495 0.35682 0.0
H413 H 0.66868 0.78988 0.46519 0.0
H414 H 0.50887 0.65105 0.37318 0.0
H415 H 0.61401 0.7134 0.40784 0.0
H416 H 0.69257 0.89158 0.34585 0.0
H417 H 0.58725 0.82794 0.30984 0.0
C418 C 0.83996 0.93598 0.41473 0.0
C419 C 0.83508 0.9175 0.45729 0.0
C420 C 0.78374 0.90079 0.38989 0.0
C421 C 0.7212 0.84679 0.40724 0.0
C422 C 0.71625 0.83016 0.45044 0.0
C423 C 0.77265 0.86511 0.4752 0.0
C424 C 0.54925 0.70329 0.36616 0.0
C425 C 0.54011 0.73491 0.33909 0.0
C426 C 0.60918 0.7392 0.38646 0.0
C427 C 0.6611 0.80783 0.38071 0.0
C428 C 0.65352 0.83877 0.35111 0.0
C429 C 0.59342 0.80244 0.3303 0.0
H430 H 0.97342 0.88948 0.89576 0.0
H431 H 0.83879 0.77181 1.00092 0.0
H432 H 0.91188 0.79029 0.85312 0.0
H433 H 0.78038 0.67234 0.95996 0.0
H434 H 0.64907 0.50536 0.87344 0.0
H435 H 0.70749 0.61254 0.90341 0.0
H436 H 0.88824 0.69362 0.84464 0.0
H437 H 0.82785 0.58622 0.81253 0.0
C438 C 0.93034 0.84238 0.90962 0.0
C439 C 0.90984 0.83861 0.95123 0.0
C440 C 0.89564 0.78535 0.88542 0.0
C441 C 0.84035 0.72303 0.90269 0.0
C442 C 0.82138 0.71943 0.94494 0.0
C443 C 0.85548 0.77646 0.9688 0.0
C444 C 0.70099 0.54668 0.86612 0.0
C445 C 0.73424 0.53782 0.84103 0.0
C446 C 0.73476 0.60793 0.88373 0.0
C447 C 0.80315 0.66147 0.87771 0.0
C448 C 0.83564 0.65361 0.85009 0.0
C449 C 0.80124 0.59222 0.83164 0.0
loop_
_geom_bond_atom_site_label_1
_geom_bond_atom_site_label_2
_geom_bond_distance
_geom_bond_site_symmetry_2
_ccdc_geom_bond_type
Eu0 N29 2.600 . S
Eu0 N35 2.562 1_565 S
Eu0 O44 2.462 . S
Eu0 O45 2.373 1_565 S
Eu0 O47 2.432 . S
Eu0 O48 2.291 1_564 S
Eu0 O52 2.322 1_454 S
Eu0 O55 2.372 1_455 S
Eu0 C64 2.787 . S
C1 N2 1.365 1_665 S
C1 C4 1.405 . S
C1 C8 1.448 . S
N2 C1 1.365 1_445 S
N2 C5 1.319 . S
N2 Eu11 2.600 1_455 S
C3 C5 1.397 . S
C3 C6 1.367 . S
C3 H23 0.931 . S
C4 C1 1.405 . S
C4 C6 1.403 1_665 S
C4 C10 1.439 . S
C5 N2 1.319 . S
C5 C3 1.397 . S
C5 H16 0.930 . S
C6 C3 1.367 . S
C6 C4 1.403 1_445 S
C6 H27 0.936 . S
C7 C8 1.430 . S
C7 C9 1.387 . S
C7 C13 1.404 . S
C8 C1 1.448 . S
C8 C7 1.430 . S
C8 N12 1.351 . S
C9 C7 1.387 . S
C9 C10 1.374 . S
C9 H24 0.931 . S
C10 C4 1.439 . S
C10 C9 1.374 . S
C10 H25 0.931 . S
Eu11 N2 2.600 1_655 S
Eu11 N12 2.562 1_545 S
Eu11 O46 2.335 1_656 S
Eu11 O49 2.372 1_655 S
Eu11 O50 2.462 . S
Eu11 O51 2.373 1_545 S
Eu11 O53 2.432 1_655 S
Eu11 O54 2.291 1_546 S
Eu11 C75 2.787 . S
N12 C8 1.351 . S
N12 Eu11 2.562 1_565 S
N12 C14 1.325 . S
C13 C7 1.404 . S
C13 C15 1.366 . S
C13 H21 0.930 . S
C14 N12 1.325 . S
C14 C15 1.416 . S
C14 H20 0.929 . S
C15 C13 1.366 . S
C15 C14 1.416 . S
C15 H17 0.930 . S
H16 C5 0.930 . S
H17 C15 0.930 . S
H18 C33 0.930 . S
H19 C40 0.930 . S
H20 C14 0.929 . S
H21 C13 0.930 . S
H22 C36 0.929 . S
H23 C3 0.931 . S
H24 C9 0.931 . S
H25 C10 0.931 . S
H26 C31 0.931 . S
H27 C6 0.936 . S
H28 C39 0.930 . S
N29 Eu0 2.600 . S
N29 C30 1.365 1_565 S
N29 C33 1.319 1_455 S
C30 N29 1.365 1_545 S
C30 C32 1.405 . S
C30 C38 1.448 . S
C31 H26 0.931 . S
C31 C33 1.397 . S
C31 C34 1.367 1_565 S
C32 C30 1.405 . S
C32 C34 1.403 1_455 S
C32 C65 1.439 . S
C33 H18 0.930 . S
C33 N29 1.319 1_655 S
C33 C31 1.397 . S
C34 C31 1.367 1_545 S
C34 C32 1.403 1_655 S
C34 H41 0.929 . S
N35 Eu0 2.562 1_545 S
N35 C36 1.325 . S
N35 C38 1.351 . S
C36 H22 0.929 . S
C36 N35 1.325 . S
C36 C40 1.416 . S
C37 C38 1.430 . S
C37 C39 1.404 . S
C37 C66 1.387 . S
C38 C30 1.448 . S
C38 N35 1.351 . S
C38 C37 1.430 . S
C39 H28 0.930 . S
C39 C37 1.404 . S
C39 C40 1.366 . S
C40 H19 0.930 . S
C40 C36 1.416 . S
C40 C39 1.366 . S
H41 C34 0.929 . S
H42 C65 0.931 . S
H43 C66 0.931 . S
O44 Eu0 2.462 . S
O44 C64 1.252 . S
O45 Eu0 2.373 1_545 S
O45 C56 1.249 . S
O46 Eu11 2.335 1_454 S
O46 C56 1.264 . S
O47 Eu0 2.432 . S
O47 C64 1.268 . S
O48 Eu0 2.291 1_546 S
O48 C63 1.255 . S
O49 Eu11 2.372 1_455 S
O49 C63 1.257 . S
O50 Eu11 2.462 . S
O50 C75 1.252 . S
O51 Eu11 2.373 1_565 S
O51 C67 1.249 . S
O52 Eu0 2.322 1_656 S
O52 C67 1.280 . S
O53 Eu11 2.432 1_455 S
O53 C75 1.268 1_455 S
O54 Eu11 2.291 1_564 S
O54 C74 1.255 . S
O55 Eu0 2.372 1_655 S
O55 C74 1.257 . S
C56 O45 1.249 . S
C56 O46 1.264 . S
C57 C60 1.382 . S
C57 C62 1.390 . S
C57 C64 1.506 . S
C58 C59 1.398 . S
C58 C62 1.392 . S
C59 C58 1.398 . S
C59 C61 1.372 . S
C59 H76 0.931 . S
C60 C57 1.382 . S
C60 C61 1.390 . S
C60 H77 0.931 1_455 S
C61 C59 1.372 . S
C61 C60 1.390 . S
C61 H78 0.929 . S
C62 C57 1.390 . S
C62 C58 1.392 . S
C62 H79 0.930 . S
C63 O48 1.255 . S
C63 O49 1.257 . S
C64 Eu0 2.787 . S
C64 O44 1.252 . S
C64 O47 1.268 . S
C64 C57 1.506 . S
C65 C32 1.439 . S
C65 H42 0.931 . S
C65 C66 1.374 . S
C66 C37 1.387 . S
C66 H43 0.931 . S
C66 C65 1.374 . S
C67 O51 1.249 . S
C67 O52 1.280 . S
C68 C71 1.382 . S
C68 C72 1.390 . S
C68 C75 1.506 . S
C69 C70 1.398 . S
C69 C72 1.392 . S
C70 C69 1.398 . S
C70 C73 1.372 . S
C70 H80 0.931 . S
C71 C68 1.382 . S
C71 C73 1.390 . S
C71 H81 0.931 1_655 S
C72 C68 1.390 . S
C72 C69 1.392 . S
C72 H82 0.930 . S
C73 C70 1.372 . S
C73 C71 1.390 . S
C73 H83 0.929 1_655 S
C74 O54 1.255 . S
C74 O55 1.257 . S
C75 Eu11 2.787 . S
C75 O50 1.252 . S
C75 O53 1.268 1_655 S
C75 C68 1.506 . S
H76 C59 0.931 . S
H77 C60 0.931 1_655 S
H78 C61 0.929 . S
H79 C62 0.930 . S
H80 C70 0.931 . S
H81 C71 0.931 1_455 S
H82 C72 0.930 . S
H83 C73 0.929 1_455 S
Eu84 N113 2.600 1_565 S
Eu84 N119 2.562 1_455 S
Eu84 O128 2.462 . S
Eu84 O129 2.373 1_455 S
Eu84 O131 2.432 1_565 S
Eu84 O132 2.291 1_455 S
Eu84 O136 2.335 1_565 S
Eu84 O139 2.372 1_565 S
Eu84 C148 2.787 . S
C85 N86 1.365 . S
C85 C88 1.405 . S
C85 C92 1.448 . S
N86 C85 1.365 . S
N86 C89 1.319 1_445 S
N86 Eu95 2.600 1_455 S
C87 C89 1.397 . S
C87 C90 1.367 1_665 S
C87 H107 0.931 . S
C88 C85 1.405 . S
C88 C90 1.403 . S
C88 C94 1.439 . S
C89 N86 1.319 1_665 S
C89 C87 1.397 . S
C89 H100 0.930 . S
C90 C87 1.367 1_445 S
C90 C88 1.403 . S
C90 H111 0.929 . S
C91 C92 1.430 . S
C91 C93 1.387 . S
C91 C97 1.404 . S
C92 C85 1.448 . S
C92 C91 1.430 . S
C92 N96 1.351 . S
C93 C91 1.387 . S
C93 C94 1.374 . S
C93 H108 0.931 . S
C94 C88 1.439 . S
C94 C93 1.374 . S
C94 H109 0.931 . S
Eu95 N86 2.600 1_655 S
Eu95 N96 2.562 1_655 S
Eu95 O130 2.335 1_545 S
Eu95 O133 2.372 1_545 S
Eu95 O134 2.462 . S
Eu95 O135 2.373 1_655 S
Eu95 O137 2.432 . S
Eu95 O138 2.291 1_655 S
Eu95 C159 2.787 . S
N96 C92 1.351 . S
N96 Eu95 2.562 1_455 S
N96 C98 1.325 . S
C97 C91 1.404 . S
C97 C99 1.366 . S
C97 H105 0.930 . S
C98 N96 1.325 . S
C98 C99 1.416 . S
C98 H104 0.929 . S
C99 C97 1.366 . S
C99 C98 1.416 . S
C99 H101 0.930 . S
H100 C89 0.930 . S
H101 C99 0.930 . S
H102 C117 0.930 . S
H103 C124 0.930 . S
H104 C98 0.929 . S
H105 C97 0.930 . S
H106 C120 0.929 . S
H107 C87 0.931 . S
H108 C93 0.931 . S
H109 C94 0.931 . S
H110 C115 0.931 . S
H111 C90 0.929 . S
H112 C123 0.930 . S
N113 Eu84 2.600 1_545 S
N113 C114 1.365 1_445 S
N113 C117 1.319 . S
C114 N113 1.365 1_665 S
C114 C116 1.405 . S
C114 C122 1.448 . S
C115 H110 0.931 . S
C115 C117 1.397 . S
C115 C118 1.367 . S
C116 C114 1.405 . S
C116 C118 1.403 1_665 S
C116 C149 1.439 . S
C117 H102 0.930 . S
C117 N113 1.319 . S
C117 C115 1.397 . S
C118 C115 1.367 . S
C118 C116 1.403 1_445 S
C118 H125 0.929 . S
N119 Eu84 2.562 1_655 S
N119 C120 1.325 . S
N119 C122 1.351 . S
C120 H106 0.929 . S
C120 N119 1.325 . S
C120 C124 1.416 . S
C121 C122 1.430 . S
C121 C123 1.404 . S
C121 C150 1.387 . S
C122 C114 1.448 . S
C122 N119 1.351 . S
C122 C121 1.430 . S
C123 H112 0.930 . S
C123 C121 1.404 . S
C123 C124 1.366 . S
C124 H103 0.930 . S
C124 C120 1.416 . S
C124 C123 1.366 . S
H125 C118 0.929 . S
H126 C149 0.931 . S
H127 C150 0.931 . S
O128 Eu84 2.462 . S
O128 C148 1.252 . S
O129 Eu84 2.373 1_655 S
O129 C140 1.249 . S
O130 Eu95 2.335 1_565 S
O130 C140 1.264 . S
O131 Eu84 2.432 1_545 S
O131 C148 1.268 1_545 S
O132 Eu84 2.291 1_655 S
O132 C147 1.255 . S
O133 Eu95 2.372 1_565 S
O133 C147 1.257 . S
O134 Eu95 2.462 . S
O134 C159 1.252 . S
O135 Eu95 2.373 1_455 S
O135 C151 1.249 . S
O136 Eu84 2.335 1_545 S
O136 C151 1.264 . S
O137 Eu95 2.432 . S
O137 C159 1.268 . S
O138 Eu95 2.291 1_455 S
O138 C158 1.255 . S
O139 Eu84 2.372 1_545 S
O139 C158 1.257 . S
C140 O129 1.249 . S
C140 O130 1.264 . S
C141 C144 1.382 . S
C141 C146 1.390 . S
C141 C148 1.506 . S
C142 C143 1.398 . S
C142 C146 1.392 . S
C143 C142 1.398 . S
C143 C145 1.372 . S
C143 H160 0.931 . S
C144 C141 1.382 . S
C144 C145 1.390 . S
C144 H161 0.931 1_565 S
C145 C143 1.372 . S
C145 C144 1.390 . S
C145 H162 0.929 1_565 S
C146 C141 1.390 . S
C146 C142 1.392 . S
C146 H163 0.930 . S
C147 O132 1.255 . S
C147 O133 1.257 . S
C148 Eu84 2.787 . S
C148 O128 1.252 . S
C148 O131 1.268 1_565 S
C148 C141 1.506 . S
C149 C116 1.439 . S
C149 H126 0.931 . S
C149 C150 1.374 . S
C150 C121 1.387 . S
C150 H127 0.931 . S
C150 C149 1.374 . S
C151 O135 1.249 . S
C151 O136 1.264 . S
C152 C155 1.382 . S
C152 C156 1.390 . S
C152 C159 1.506 . S
C153 C154 1.398 . S
C153 C156 1.392 . S
C154 C153 1.398 . S
C154 C157 1.372 . S
C154 H164 0.931 . S
C155 C152 1.382 . S
C155 C157 1.390 . S
C155 H165 0.931 . S
C156 C152 1.390 . S
C156 C153 1.392 . S
C156 H166 0.930 . S
C157 C154 1.372 . S
C157 C155 1.390 . S
C157 H167 0.929 . S
C158 O138 1.255 . S
C158 O139 1.257 . S
C159 Eu95 2.787 . S
C159 O134 1.252 . S
C159 O137 1.268 . S
C159 C152 1.506 . S
H160 C143 0.931 . S
H161 C144 0.931 1_545 S
H162 C145 0.929 1_545 S
H163 C146 0.930 . S
H164 C154 0.931 . S
H165 C155 0.931 . S
H166 C156 0.930 . S
H167 C157 0.929 . S
Zn168 O174 1.920 . S
Zn168 O180 1.898 . S
Zn168 O183 1.905 . S
Zn169 O177 1.905 . S
Zn169 O178 1.898 . S
Zn169 O186 1.920 . S
Zn170 O173 2.080 . S
Zn170 O176 2.114 . S
Zn170 O179 2.120 . S
Zn170 O181 2.120 . S
Zn170 O182 2.114 . S
Zn170 O185 2.080 . S
C171 O176 1.166 . S
C171 O177 1.182 . S
C172 O178 1.167 . S
C172 O179 1.299 . S
O173 Zn170 2.080 . S
O173 C187 1.305 . S
O174 Zn168 1.920 . S
O174 C187 1.234 . S
C175 O180 1.167 . S
C175 O181 1.299 . S
O176 Zn170 2.114 . S
O176 C171 1.166 . S
O177 Zn169 1.905 . S
O177 C171 1.182 . S
O178 Zn169 1.898 . S
O178 C172 1.167 . S
O179 Zn170 2.120 . S
O179 C172 1.299 . S
O180 Zn168 1.898 . S
O180 C175 1.167 . S
O181 Zn170 2.120 . S
O181 C175 1.299 . S
O182 Zn170 2.114 . S
O182 C184 1.166 . S
O183 Zn168 1.905 . S
O183 C184 1.182 . S
C184 O182 1.166 . S
C184 O183 1.182 . S
O185 Zn170 2.080 . S
O185 C188 1.305 . S
O186 Zn169 1.920 . S
O186 C188 1.234 . S
C187 O173 1.305 . S
C187 O174 1.234 . S
C188 O185 1.305 . S
C188 O186 1.234 . S
Zn189 O195 1.920 . S
Zn189 O201 1.898 . S
Zn189 O204 1.905 . S
Zn190 O198 1.905 . S
Zn190 O199 1.898 . S
Zn190 O207 1.920 . S
Zn191 O194 2.080 . S
Zn191 O197 2.114 . S
Zn191 O200 2.120 . S
Zn191 O202 2.120 . S
Zn191 O203 2.114 . S
Zn191 O206 2.080 . S
C192 O197 1.166 . S
C192 O198 1.182 . S
C193 O199 1.167 . S
C193 O200 1.299 . S
O194 Zn191 2.080 . S
O194 C208 1.305 . S
O195 Zn189 1.920 . S
O195 C208 1.234 . S
C196 O201 1.167 . S
C196 O202 1.299 . S
O197 Zn191 2.114 . S
O197 C192 1.166 . S
O198 Zn190 1.905 . S
O198 C192 1.182 . S
O199 Zn190 1.898 . S
O199 C193 1.167 . S
O200 Zn191 2.120 . S
O200 C193 1.299 . S
O201 Zn189 1.898 . S
O201 C196 1.167 . S
O202 Zn191 2.120 . S
O202 C196 1.299 . S
O203 Zn191 2.114 . S
O203 C205 1.166 . S
O204 Zn189 1.905 . S
O204 C205 1.182 . S
C205 O203 1.166 . S
C205 O204 1.182 . S
O206 Zn191 2.080 . S
O206 C209 1.305 . S
O207 Zn190 1.920 . S
O207 C209 1.234 . S
C208 O194 1.305 . S
C208 O195 1.234 . S
C209 O206 1.305 . S
C209 O207 1.234 . S
H210 C218 0.950 . S
H211 C223 0.950 . S
H212 C220 0.950 . S
H213 C222 0.950 . S
H214 C224 0.950 . S
H215 C226 0.950 . S
H216 C228 0.950 . S
H217 C229 0.950 . S
C218 H210 0.950 . S
C218 C219 1.386 . S
C218 C220 1.391 . S
C219 C218 1.386 . S
C219 C223 1.393 . S
C220 H212 0.950 . S
C220 C218 1.391 . S
C220 C221 1.400 . S
C221 C220 1.400 . S
C221 C222 1.398 . S
C221 C227 1.491 . S
C222 H213 0.950 . S
C222 C221 1.398 . S
C222 C223 1.391 . S
C223 H211 0.950 . S
C223 C219 1.393 . S
C223 C222 1.391 . S
C224 H214 0.950 . S
C224 C225 1.386 . S
C224 C226 1.391 . S
C225 C224 1.386 . S
C225 C229 1.393 . S
C226 H215 0.950 . S
C226 C224 1.391 . S
C226 C227 1.400 . S
C227 C221 1.491 . S
C227 C226 1.400 . S
C227 C228 1.398 . S
C228 H216 0.950 . S
C228 C227 1.398 . S
C228 C229 1.391 . S
C229 H217 0.950 . S
C229 C225 1.393 . S
C229 C228 1.391 . S
H230 C238 0.950 . S
H231 C243 0.950 . S
H232 C240 0.950 . S
H233 C242 0.950 . S
H234 C244 0.950 . S
H235 C246 0.950 . S
H236 C248 0.950 . S
H237 C249 0.950 . S
C238 H230 0.950 . S
C238 C239 1.386 . S
C238 C240 1.391 . S
C239 C238 1.386 . S
C239 C243 1.393 . S
C240 H232 0.950 . S
C240 C238 1.391 . S
C240 C241 1.400 . S
C241 C240 1.400 . S
C241 C242 1.398 . S
C241 C247 1.491 . S
C242 H233 0.950 . S
C242 C241 1.398 . S
C242 C243 1.391 . S
C243 H231 0.950 . S
C243 C239 1.393 . S
C243 C242 1.391 . S
C244 H234 0.950 . S
C244 C245 1.386 . S
C244 C246 1.391 . S
C245 C244 1.386 . S
C245 C249 1.393 . S
C246 H235 0.950 . S
C246 C244 1.391 . S
C246 C247 1.400 . S
C247 C241 1.491 . S
C247 C246 1.400 . S
C247 C248 1.398 . S
C248 H236 0.950 . S
C248 C247 1.398 . S
C248 C249 1.391 . S
C249 H237 0.950 . S
C249 C245 1.393 . S
C249 C248 1.391 . S
H250 C258 0.950 . S
H251 C263 0.950 . S
H252 C260 0.950 . S
H253 C262 0.950 . S
H254 C264 0.950 . S
H255 C266 0.950 . S
H256 C268 0.950 . S
H257 C269 0.950 . S
C258 H250 0.950 . S
C258 C259 1.386 . S
C258 C260 1.391 . S
C259 C258 1.386 . S
C259 C263 1.393 . S
C260 H252 0.950 . S
C260 C258 1.391 . S
C260 C261 1.400 . S
C261 C260 1.400 . S
C261 C262 1.398 . S
C261 C267 1.491 . S
C262 H253 0.950 . S
C262 C261 1.398 . S
C262 C263 1.391 . S
C263 H251 0.950 . S
C263 C259 1.393 . S
C263 C262 1.391 . S
C264 H254 0.950 . S
C264 C265 1.386 . S
C264 C266 1.391 . S
C265 C264 1.386 . S
C265 C269 1.393 . S
C266 H255 0.950 . S
C266 C264 1.391 . S
C266 C267 1.400 . S
C267 C261 1.491 . S
C267 C266 1.400 . S
C267 C268 1.398 . S
C268 H256 0.950 . S
C268 C267 1.398 . S
C268 C269 1.391 . S
C269 H257 0.950 . S
C269 C265 1.393 . S
C269 C268 1.391 . S
H270 C278 0.950 . S
H271 C283 0.950 . S
H272 C280 0.950 . S
H273 C282 0.950 . S
H274 C284 0.950 . S
H275 C286 0.950 . S
H276 C288 0.950 . S
H277 C289 0.950 . S
C278 H270 0.950 . S
C278 C279 1.386 . S
C278 C280 1.391 . S
C279 C278 1.386 . S
C279 C283 1.393 . S
C280 H272 0.950 . S
C280 C278 1.391 . S
C280 C281 1.400 . S
C281 C280 1.400 . S
C281 C282 1.398 . S
C281 C287 1.491 . S
C282 H273 0.950 . S
C282 C281 1.398 . S
C282 C283 1.391 . S
C283 H271 0.950 . S
C283 C279 1.393 . S
C283 C282 1.391 . S
C284 H274 0.950 . S
C284 C285 1.386 . S
C284 C286 1.391 . S
C285 C284 1.386 . S
C285 C289 1.393 . S
C286 H275 0.950 . S
C286 C284 1.391 . S
C286 C287 1.400 . S
C287 C281 1.491 . S
C287 C286 1.400 . S
C287 C288 1.398 . S
C288 H276 0.950 . S
C288 C287 1.398 . S
C288 C289 1.391 . S
C289 H277 0.950 . S
C289 C285 1.393 . S
C289 C288 1.391 . S
H290 C298 0.950 . S
H291 C303 0.950 . S
H292 C300 0.950 . S
H293 C302 0.950 . S
H294 C304 0.950 . S
H295 C306 0.950 . S
H296 C308 0.950 . S
H297 C309 0.950 . S
C298 H290 0.950 . S
C298 C299 1.386 . S
C298 C300 1.391 . S
C299 C298 1.386 . S
C299 C303 1.393 . S
C300 H292 0.950 . S
C300 C298 1.391 . S
C300 C301 1.400 . S
C301 C300 1.400 . S
C301 C302 1.398 . S
C301 C307 1.491 . S
C302 H293 0.950 . S
C302 C301 1.398 . S
C302 C303 1.391 . S
C303 H291 0.950 . S
C303 C299 1.393 . S
C303 C302 1.391 . S
C304 H294 0.950 . S
C304 C305 1.386 . S
C304 C306 1.391 . S
C305 C304 1.386 . S
C305 C309 1.393 . S
C306 H295 0.950 . S
C306 C304 1.391 . S
C306 C307 1.400 . S
C307 C301 1.491 . S
C307 C306 1.400 . S
C307 C308 1.398 . S
C308 H296 0.950 . S
C308 C307 1.398 . S
C308 C309 1.391 . S
C309 H297 0.950 . S
C309 C305 1.393 . S
C309 C308 1.391 . S
H310 C318 0.950 . S
H311 C323 0.950 1_455 S
H312 C320 0.950 . S
H313 C322 0.950 . S
H314 C324 0.950 . S
H315 C326 0.950 . S
H316 C328 0.950 . S
H317 C329 0.950 . S
C318 H310 0.950 . S
C318 C319 1.386 . S
C318 C320 1.391 . S
C319 C318 1.386 . S
C319 C323 1.393 . S
C320 H312 0.950 . S
C320 C318 1.391 . S
C320 C321 1.400 . S
C321 C320 1.400 . S
C321 C322 1.398 . S
C321 C327 1.491 . S
C322 H313 0.950 . S
C322 C321 1.398 . S
C322 C323 1.391 . S
C323 H311 0.950 1_655 S
C323 C319 1.393 . S
C323 C322 1.391 . S
C324 H314 0.950 . S
C324 C325 1.386 . S
C324 C326 1.391 . S
C325 C324 1.386 . S
C325 C329 1.393 . S
C326 H315 0.950 . S
C326 C324 1.391 . S
C326 C327 1.400 . S
C327 C321 1.491 . S
C327 C326 1.400 . S
C327 C328 1.398 . S
C328 H316 0.950 . S
C328 C327 1.398 . S
C328 C329 1.391 . S
C329 H317 0.950 . S
C329 C325 1.393 . S
C329 C328 1.391 . S
H330 C338 0.950 . S
H331 C343 0.950 . S
H332 C340 0.950 . S
H333 C342 0.950 . S
H334 C344 0.950 . S
H335 C346 0.950 . S
H336 C348 0.950 . S
H337 C349 0.950 . S
C338 H330 0.950 . S
C338 C339 1.386 . S
C338 C340 1.391 . S
C339 C338 1.386 . S
C339 C343 1.393 . S
C340 H332 0.950 . S
C340 C338 1.391 . S
C340 C341 1.400 . S
C341 C340 1.400 . S
C341 C342 1.398 . S
C341 C347 1.491 . S
C342 H333 0.950 . S
C342 C341 1.398 . S
C342 C343 1.391 . S
C343 H331 0.950 . S
C343 C339 1.393 . S
C343 C342 1.391 . S
C344 H334 0.950 . S
C344 C345 1.386 . S
C344 C346 1.391 . S
C345 C344 1.386 . S
C345 C349 1.393 . S
C346 H335 0.950 . S
C346 C344 1.391 . S
C346 C347 1.400 . S
C347 C341 1.491 . S
C347 C346 1.400 . S
C347 C348 1.398 . S
C348 H336 0.950 . S
C348 C347 1.398 . S
C348 C349 1.391 . S
C349 H337 0.950 . S
C349 C345 1.393 . S
C349 C348 1.391 . S
H350 C358 0.950 . S
H351 C363 0.950 . S
H352 C360 0.950 . S
H353 C362 0.950 . S
H354 C364 0.950 . S
H355 C366 0.950 . S
H356 C368 0.950 . S
H357 C369 0.950 . S
C358 H350 0.950 . S
C358 C359 1.386 . S
C358 C360 1.391 . S
C359 C358 1.386 . S
C359 C363 1.393 . S
C360 H352 0.950 . S
C360 C358 1.391 . S
C360 C361 1.400 . S
C361 C360 1.400 . S
C361 C362 1.398 . S
C361 C367 1.491 . S
C362 H353 0.950 . S
C362 C361 1.398 . S
C362 C363 1.391 . S
C363 H351 0.950 . S
C363 C359 1.393 . S
C363 C362 1.391 . S
C364 H354 0.950 . S
C364 C365 1.386 . S
C364 C366 1.391 . S
C365 C364 1.386 . S
C365 C369 1.393 . S
C366 H355 0.950 . S
C366 C364 1.391 . S
C366 C367 1.400 . S
C367 C361 1.491 . S
C367 C366 1.400 . S
C367 C368 1.398 . S
C368 H356 0.950 . S
C368 C367 1.398 . S
C368 C369 1.391 . S
C369 H357 0.950 . S
C369 C365 1.393 . S
C369 C368 1.391 . S
H370 C378 0.950 . S
H371 C383 0.950 . S
H372 C380 0.950 . S
H373 C382 0.950 . S
H374 C384 0.950 . S
H375 C386 0.950 . S
H376 C388 0.950 . S
H377 C389 0.950 . S
C378 H370 0.950 . S
C378 C379 1.386 . S
C378 C380 1.391 . S
C379 C378 1.386 . S
C379 C383 1.393 . S
C380 H372 0.950 . S
C380 C378 1.391 . S
C380 C381 1.400 . S
C381 C380 1.400 . S
C381 C382 1.398 . S
C381 C387 1.491 . S
C382 H373 0.950 . S
C382 C381 1.398 . S
C382 C383 1.391 . S
C383 H371 0.950 . S
C383 C379 1.393 . S
C383 C382 1.391 . S
C384 H374 0.950 . S
C384 C385 1.386 . S
C384 C386 1.391 . S
C385 C384 1.386 . S
C385 C389 1.393 . S
C386 H375 0.950 . S
C386 C384 1.391 . S
C386 C387 1.400 . S
C387 C381 1.491 . S
C387 C386 1.400 . S
C387 C388 1.398 . S
C388 H376 0.950 . S
C388 C387 1.398 . S
C388 C389 1.391 . S
C389 H377 0.950 . S
C389 C385 1.393 . S
C389 C388 1.391 . S
H390 C398 0.950 . S
H391 C403 0.950 . S
H392 C400 0.950 . S
H393 C402 0.950 . S
H394 C404 0.950 . S
H395 C406 0.950 . S
H396 C408 0.950 . S
H397 C409 0.950 . S
C398 H390 0.950 . S
C398 C399 1.386 . S
C398 C400 1.391 . S
C399 C398 1.386 . S
C399 C403 1.393 . S
C400 H392 0.950 . S
C400 C398 1.391 . S
C400 C401 1.400 . S
C401 C400 1.400 . S
C401 C402 1.398 . S
C401 C407 1.491 . S
C402 H393 0.950 . S
C402 C401 1.398 . S
C402 C403 1.391 . S
C403 H391 0.950 . S
C403 C399 1.393 . S
C403 C402 1.391 . S
C404 H394 0.950 . S
C404 C405 1.386 . S
C404 C406 1.391 . S
C405 C404 1.386 . S
C405 C409 1.393 . S
C406 H395 0.950 . S
C406 C404 1.391 . S
C406 C407 1.400 . S
C407 C401 1.491 . S
C407 C406 1.400 . S
C407 C408 1.398 . S
C408 H396 0.950 . S
C408 C407 1.398 . S
C408 C409 1.391 . S
C409 H397 0.950 . S
C409 C405 1.393 . S
C409 C408 1.391 . S
H410 C418 0.950 . S
H411 C423 0.950 . S
H412 C420 0.950 . S
H413 C422 0.950 . S
H414 C424 0.950 . S
H415 C426 0.950 . S
H416 C428 0.950 . S
H417 C429 0.950 . S
C418 H410 0.950 . S
C418 C419 1.386 . S
C418 C420 1.391 . S
C419 C418 1.386 . S
C419 C423 1.393 . S
C420 H412 0.950 . S
C420 C418 1.391 . S
C420 C421 1.400 . S
C421 C420 1.400 . S
C421 C422 1.398 . S
C421 C427 1.491 . S
C422 H413 0.950 . S
C422 C421 1.398 . S
C422 C423 1.391 . S
C423 H411 0.950 . S
C423 C419 1.393 . S
C423 C422 1.391 . S
C424 H414 0.950 . S
C424 C425 1.386 . S
C424 C426 1.391 . S
C425 C424 1.386 . S
C425 C429 1.393 . S
C426 H415 0.950 . S
C426 C424 1.391 . S
C426 C427 1.400 . S
C427 C421 1.491 . S
C427 C426 1.400 . S
C427 C428 1.398 . S
C428 H416 0.950 . S
C428 C427 1.398 . S
C428 C429 1.391 . S
C429 H417 0.950 . S
C429 C425 1.393 . S
C429 C428 1.391 . S
H430 C438 0.950 1_455 S
H431 C443 0.950 . S
H432 C440 0.950 . S
H433 C442 0.950 . S
H434 C444 0.950 . S
H435 C446 0.950 . S
H436 C448 0.950 . S
H437 C449 0.950 . S
C438 H430 0.950 1_655 S
C438 C439 1.386 . S
C438 C440 1.391 . S
C439 C438 1.386 . S
C439 C443 1.393 . S
C440 H432 0.950 . S
C440 C438 1.391 . S
C440 C441 1.400 . S
C441 C440 1.400 . S
C441 C442 1.398 . S
C441 C447 1.491 . S
C442 H433 0.950 . S
C442 C441 1.398 . S
C442 C443 1.391 . S
C443 H431 0.950 . S
C443 C439 1.393 . S
C443 C442 1.391 . S
C444 H434 0.950 . S
C444 C445 1.386 . S
C444 C446 1.391 . S
C445 C444 1.386 . S
C445 C449 1.393 . S
C446 H435 0.950 . S
C446 C444 1.391 . S
C446 C447 1.400 . S
C447 C441 1.491 . S
C447 C446 1.400 . S
C447 C448 1.398 . S
C448 H436 0.950 . S
C448 C447 1.398 . S
C448 C449 1.391 . S
C449 H437 0.950 . S
C449 C445 1.393 . S
C449 C448 1.391 . S
C219 C58 1.195 . S
C225 C187 1.285 . S
C239 C151 1.545 . S
C245 C193 1.395 . S
C259 C56 1.618 . S
C265 C184 1.475 . S
C279 C153 1.211 . S
C285 C209 1.253 . S
C299 C74 1.601 . S
C305 C175 1.449 . S
C325 C192 1.540 . S
C319 C147 1.632 . S
C339 C142 1.203 . S
C345 C188 1.289 . S
C365 C205 1.531 . S
C359 C63 1.617 . S
C385 C172 1.437 . S
C379 C158 1.589 . S
C405 C208 1.272 . S
C399 C69 1.241 . S
C425 C171 1.474 . S
C419 C140 1.616 . S
C445 C196 1.421 . S
C439 C67 1.553 . S
