# Generated by pormake.
# Topology anh, (6,3)-cn, num edge types: 1
# Building blocks:
#     Node 0, Type 0, BuildingBlock: PAMTUU_clean_sbu_0, # of connection points: 6
#     Node 1, Type 0, BuildingBlock: PAMTUU_clean_sbu_0, # of connection points: 6
#     Node 2, Type 0, BuildingBlock: PAMTUU_clean_sbu_0, # of connection points: 6
#     Node 3, Type 1, BuildingBlock: WUSLED_clean_sbu_0, # of connection points: 3
#     Node 4, Type 1, BuildingBlock: WUSLED_clean_sbu_0, # of connection points: 3
#     Node 5, Type 1, BuildingBlock: WUSLED_clean_sbu_0, # of connection points: 3
#     Node 6, Type 1, BuildingBlock: WUSLED_clean_sbu_0, # of connection points: 3
#     Node 7, Type 1, BuildingBlock: WUSLED_clean_sbu_0, # of connection points: 3
#     Node 8, Type 1, BuildingBlock: WUSLED_clean_sbu_0, # of connection points: 3
#     Edge 9, Type (0, 1), BuildingBlock: TEMPAE_clean_linker_10, # of connection points: 2
#     Edge 10, Type (0, 1), BuildingBlock: TEMPAE_clean_linker_10, # of connection points: 2
#     Edge 11, Type (0, 1), BuildingBlock: TEMPAE_clean_linker_10, # of connection points: 2
#     Edge 12, Type (0, 1), BuildingBlock: TEMPAE_clean_linker_10, # of connection points: 2
#     Edge 13, Type (0, 1), BuildingBlock: TEMPAE_clean_linker_10, # of connection points: 2
#     Edge 14, Type (0, 1), BuildingBlock: TEMPAE_clean_linker_10, # of connection points: 2
#     Edge 15, Type (0, 1), BuildingBlock: TEMPAE_clean_linker_10, # of connection points: 2
#     Edge 16, Type (0, 1), BuildingBlock: TEMPAE_clean_linker_10, # of connection points: 2
#     Edge 17, Type (0, 1), BuildingBlock: TEMPAE_clean_linker_10, # of connection points: 2
#     Edge 18, Type (0, 1), BuildingBlock: TEMPAE_clean_linker_10, # of connection points: 2
#     Edge 19, Type (0, 1), BuildingBlock: TEMPAE_clean_linker_10, # of connection points: 2
#     Edge 20, Type (0, 1), BuildingBlock: TEMPAE_clean_linker_10, # of connection points: 2
#     Edge 21, Type (0, 1), BuildingBlock: TEMPAE_clean_linker_10, # of connection points: 2
#     Edge 22, Type (0, 1), BuildingBlock: TEMPAE_clean_linker_10, # of connection points: 2
#     Edge 23, Type (0, 1), BuildingBlock: TEMPAE_clean_linker_10, # of connection points: 2
#     Edge 24, Type (0, 1), BuildingBlock: TEMPAE_clean_linker_10, # of connection points: 2
#     Edge 25, Type (0, 1), BuildingBlock: TEMPAE_clean_linker_10, # of connection points: 2
#     Edge 26, Type (0, 1), BuildingBlock: TEMPAE_clean_linker_10, # of connection points: 2
# Relax obj value: 0.217
# Max RMSD: 0.182
# Mean RMSD: 0.148
data_MOF--net-anh--node1-PAMTUU_clean_sbu_0--node2-WUSLED_clean_sbu_0--edge1-TEMPAE_clean_linker_10
_symmetry_space_group_name_H-M    P1
_symmetry_Int_Tables_number       1
_symmetry_cell_setting            triclinic
loop_
_symmetry_equiv_pos_as_xyz
'x, y, z'
_cell_length_a     40.574959
_cell_length_b     40.52194
_cell_length_c     70.96856
_cell_angle_alpha  93.142567
_cell_angle_beta   90.664032
_cell_angle_gamma 119.92483
loop_
_atom_site_label
_atom_site_type_symbol
_atom_site_fract_x
_atom_site_fract_y
_atom_site_fract_z
_atom_type_partial_charge
Tb0 Tb 0.07735 0.58072 0.16352 0.0
Tb1 Tb 0.11635 0.53417 0.16563 0.0
C2 C 0.09871 0.55474 0.12554 0.0
C3 C 1.01091 0.61142 0.16815 0.0
C4 C 0.93641 0.5837 0.17738 0.0
C5 C 0.94485 0.564 0.16329 0.0
C6 C 0.98202 0.5778 0.15866 0.0
C7 C 1.00257 0.6297 0.18309 0.0
C8 C 0.96502 0.61578 0.18771 0.0
C9 C 1.04991 0.62332 0.16454 0.0
O10 O 1.02453 0.52312 0.165 0.0
O11 O 1.0554 0.48945 0.16778 0.0
O12 O 0.12291 0.56108 0.19373 0.0
O13 O 0.06642 0.55813 0.19103 0.0
O14 O 0.13448 0.49902 0.15229 0.0
O15 O 0.13223 0.50353 0.18271 0.0
O16 O 0.16877 0.59209 0.16925 0.0
O17 O 0.13841 0.62609 0.16679 0.0
O18 O 0.07536 0.56361 0.13386 0.0
O19 O 0.12064 0.54647 0.13563 0.0
C20 C 1.02312 0.49006 0.16744 0.0
O21 O 0.06859 0.62088 0.17892 0.0
O22 O 1.05509 0.60883 0.14874 0.0
C23 C 0.09356 0.55972 0.2016 0.0
C24 C 0.18665 0.50965 0.1706 0.0
C25 C 0.26466 0.54577 0.17737 0.0
C26 C 0.24075 0.5114 0.18564 0.0
C27 C 0.20161 0.49352 0.18239 0.0
C28 C 0.21042 0.54477 0.16305 0.0
C29 C 0.24918 0.56317 0.16676 0.0
C30 C 0.14618 0.4939 0.16846 0.0
C31 C 0.1704 0.6256 0.16934 0.0
H32 H 0.92247 0.53908 0.15528 0.0
H33 H 0.98793 0.56215 0.14763 0.0
H34 H 1.025 0.65456 0.19107 0.0
H35 H 0.95813 0.63079 0.19865 0.0
H36 H 0.25238 0.49717 0.19359 0.0
H37 H 0.18321 0.46704 0.18875 0.0
H38 H 0.19917 0.55781 0.15401 0.0
H39 H 0.26728 0.58949 0.16019 0.0
Tb40 Tb 0.54262 0.04908 0.49468 0.0
Tb41 Tb 0.62778 0.08351 0.4996 0.0
C42 C 0.59246 0.07321 0.45933 0.0
C43 C 0.44944 0.97508 0.49581 0.0
C44 C 0.41141 0.90647 0.51296 0.0
C45 C 0.41512 0.90641 0.49332 0.0
C46 C 0.43357 0.9406 0.48476 0.0
C47 C 0.44801 0.97494 0.51565 0.0
C48 C 0.42859 0.94067 0.52416 0.0
C49 C 0.47367 1.0103 0.48696 0.0
O50 O 0.54993 0.99875 0.50185 0.0
O51 O 0.6131 1.02364 0.49811 0.0
O52 O 0.608 0.06731 0.52771 0.0
O53 O 0.5461 0.05295 0.52498 0.0
O54 O 0.68091 0.09959 0.48868 0.0
O55 O 0.67415 0.10414 0.51873 0.0
O56 O 0.62052 0.13601 0.50038 0.0
O57 O 0.556 0.10806 0.50275 0.0
O58 O 0.56535 0.07503 0.46818 0.0
O59 O 0.61766 0.06955 0.46917 0.0
C60 C 0.58023 0.99414 0.50137 0.0
O61 O 0.48816 0.04143 0.49812 0.0
O62 O 0.49885 1.00851 0.47631 0.0
C63 C 0.57575 0.0591 0.5352 0.0
C64 C 0.72565 0.15278 0.50663 0.0
C65 C 0.76971 0.23044 0.51426 0.0
C66 C 0.77568 0.20587 0.52509 0.0
C67 C 0.75365 0.16687 0.52119 0.0
C68 C 0.71915 0.17734 0.49607 0.0
C69 C 0.74133 0.21612 0.49979 0.0
C70 C 0.69788 0.11316 0.50525 0.0
C71 C 0.58963 0.13932 0.50314 0.0
H72 H 0.40104 0.87996 0.48449 0.0
H73 H 0.43556 0.94017 0.46953 0.0
H74 H 0.46144 1.00118 0.52462 0.0
H75 H 0.42511 0.9409 0.53927 0.0
H76 H 0.79773 0.21695 0.53625 0.0
H77 H 0.75759 0.14777 0.52984 0.0
H78 H 0.69648 0.16662 0.48523 0.0
H79 H 0.737 0.23483 0.49102 0.0
Tb80 Tb 0.59469 0.53842 0.83041 0.0
Tb81 Tb 0.6405 0.62395 0.83508 0.0
C82 C 0.61294 0.58604 0.79435 0.0
C83 C 0.56458 0.44177 0.83419 0.0
C84 C 0.60418 0.40436 0.84211 0.0
C85 C 0.57869 0.39205 0.82626 0.0
C86 C 0.55897 0.41074 0.82231 0.0
C87 C 0.58881 0.4531 0.8505 0.0
C88 C 0.6085 0.43432 0.85448 0.0
C89 C 0.55382 0.46789 0.82707 0.0
O90 O 0.65165 0.54366 0.83637 0.0
O91 O 0.68565 0.60789 0.83472 0.0
O92 O 0.61873 0.60485 0.86246 0.0
O93 O 0.61884 0.54949 0.85881 0.0
O94 O 0.68367 0.67512 0.82567 0.0
O95 O 0.6654 0.67135 0.85447 0.0
O96 O 0.58292 0.61906 0.83438 0.0
O97 O 0.55032 0.55469 0.8367 0.0
O98 O 0.6089 0.55525 0.80153 0.0
O99 O 0.61989 0.61577 0.80556 0.0
C100 C 0.68516 0.57554 0.8368 0.0
O101 O 0.54883 0.48903 0.83991 0.0
O102 O 0.57542 0.48758 0.81378 0.0
C103 C 0.61979 0.5767 0.86972 0.0
C104 C 0.67249 0.72142 0.8388 0.0
C105 C 0.63849 0.76537 0.83848 0.0
C106 C 0.66934 0.77595 0.85117 0.0
C107 C 0.68641 0.75367 0.85138 0.0
C108 C 0.64117 0.71077 0.82638 0.0
C109 C 0.62408 0.7326 0.82629 0.0
C110 C 0.68379 0.69375 0.84128 0.0
C111 C 0.55029 0.58737 0.8368 0.0
H112 H 0.57419 0.36809 0.81682 0.0
H113 H 0.54105 0.40238 0.8095 0.0
H114 H 0.59395 0.47751 0.85971 0.0
H115 H 0.62752 0.44354 0.86691 0.0
H116 H 0.68023 0.80139 0.86066 0.0
H117 H 0.70949 0.76083 0.86158 0.0
H118 H 0.62905 0.68487 0.81716 0.0
H119 H 0.59973 0.72407 0.8167 0.0
C120 C 0.6948 0.1594 0.19605 0.0
C121 C 0.71501 0.18665 0.21131 0.0
C122 C 0.76717 0.23158 0.19097 0.0
C123 C 0.75004 0.22156 0.20886 0.0
C124 C 0.74639 0.20359 0.1759 0.0
C125 C 0.71167 0.16906 0.17838 0.0
U126 U 0.59994 0.06644 0.21627 0.0
O127 O 0.54024 1.03603 0.20374 0.0
O128 O 0.57219 1.00608 0.20361 0.0
C129 C 0.53961 1.00386 0.19895 0.0
C130 C 0.65647 0.12144 0.1973 0.0
C131 C 0.50173 0.96498 0.19768 0.0
C132 C 0.45666 0.9052 0.17843 0.0
C133 C 0.49167 0.94055 0.18103 0.0
C134 C 0.43911 0.91617 0.20922 0.0
C135 C 0.42868 0.89134 0.19237 0.0
C136 C 0.47438 0.95184 0.21176 0.0
C137 C 0.60269 0.07387 0.27436 0.0
C138 C 0.56847 0.04452 0.3025 0.0
C139 C 0.63001 0.10184 0.30609 0.0
C140 C 0.63216 0.1022 0.28635 0.0
C141 C 0.59811 0.07311 0.31463 0.0
C142 C 0.57072 0.04491 0.28262 0.0
C143 C 0.6067 0.07611 0.25349 0.0
O144 O 0.65601 0.09051 0.20243 0.0
O145 O 0.62537 0.12164 0.20219 0.0
O146 O 0.58804 0.08806 0.24325 0.0
O147 O 0.61988 0.05703 0.2437 0.0
H148 H 0.70374 0.18114 0.22526 0.0
H149 H 0.7633 0.24072 0.22127 0.0
H150 H 0.75656 0.20764 0.16178 0.0
H151 H 0.69769 0.14952 0.1661 0.0
H152 H 0.4522 0.88902 0.16514 0.0
H153 H 0.51114 0.94904 0.16961 0.0
H154 H 0.42004 0.90859 0.22072 0.0
H155 H 0.48011 0.96924 0.22483 0.0
H156 H 0.54318 1.02204 0.30831 0.0
H157 H 0.65388 0.124 0.31464 0.0
H158 H 0.65719 0.12485 0.28041 0.0
H159 H 0.54748 1.02271 0.27375 0.0
C160 C 0.58314 0.66638 0.53165 0.0
C161 C 0.60176 0.69864 0.54476 0.0
C162 C 0.58306 0.7387 0.52624 0.0
C163 C 0.60157 0.73354 0.54219 0.0
C164 C 0.56451 0.70585 0.51328 0.0
C165 C 0.56462 0.67122 0.51592 0.0
U166 U 0.58636 0.57232 0.55052 0.0
O167 O 0.55509 0.51332 0.53623 0.0
O168 O 0.61683 0.54385 0.53762 0.0
C169 C 0.58578 0.51155 0.53225 0.0
C170 C 0.58426 0.6287 0.53271 0.0
C171 C 0.58507 0.47271 0.53196 0.0
C172 C 0.55572 0.40463 0.51928 0.0
C173 C 0.55535 0.43971 0.522 0.0
C174 C 0.61556 0.43301 0.53661 0.0
C175 C 0.58591 0.39975 0.52638 0.0
C176 C 0.61531 0.4683 0.53915 0.0
C177 C 0.58911 0.57737 0.60891 0.0
C178 C 0.57375 0.54505 0.63843 0.0
C179 C 0.60935 0.61386 0.63963 0.0
C180 C 0.60804 0.61242 0.61972 0.0
C181 C 0.59256 0.58018 0.64949 0.0
C182 C 0.57172 0.54373 0.61853 0.0
C183 C 0.58829 0.57587 0.58776 0.0
O184 O 0.61569 0.62917 0.53802 0.0
O185 O 0.5539 0.59691 0.53689 0.0
O186 O 0.55633 0.55788 0.57741 0.0
O187 O 0.61926 0.59219 0.5781 0.0
H188 H 0.61683 0.6971 0.55707 0.0
H189 H 0.61659 0.75656 0.55291 0.0
H190 H 0.54947 0.7061 0.50073 0.0
H191 H 0.55024 0.64787 0.50521 0.0
H192 H 0.5321 0.3816 0.51105 0.0
H193 H 0.53174 0.44123 0.51571 0.0
H194 H 0.63964 0.43234 0.54279 0.0
H195 H 0.63936 0.49247 0.54665 0.0
H196 H 0.56104 0.51823 0.64504 0.0
H197 H 0.62334 0.64166 0.64721 0.0
H198 H 0.62156 0.63889 0.61275 0.0
H199 H 0.55719 0.51622 0.61061 0.0
C200 C 1.02091 0.5814 0.86438 0.0
C201 C 1.00545 0.59318 0.87934 0.0
C202 C 0.9481 0.58163 0.85952 0.0
C203 C 0.97015 0.59316 0.87702 0.0
C204 C 0.96426 0.56987 0.84473 0.0
C205 C 0.99919 0.5698 0.84711 0.0
U206 U 0.11737 0.57964 0.88337 0.0
O207 O 0.14426 0.55002 0.86781 0.0
O208 O 0.17618 0.61172 0.87261 0.0
C209 C 0.17686 0.58129 0.86564 0.0
C210 C 1.0596 0.58221 0.86538 0.0
C211 C 0.21472 0.58025 0.86532 0.0
C212 C 0.25331 0.55437 0.85023 0.0
C213 C 0.21813 0.55382 0.85278 0.0
C214 C 0.28434 0.60793 0.87286 0.0
C215 C 0.28812 0.58157 0.86006 0.0
C216 C 0.24897 0.60744 0.87529 0.0
C217 C 0.11357 0.57093 0.9411 0.0
C218 C 0.14571 0.58664 0.97242 0.0
C219 C 0.07728 0.5475 0.96943 0.0
C220 C 0.07875 0.54966 0.94969 0.0
C221 C 0.11076 0.5658 0.98128 0.0
C222 C 0.147 0.58954 0.95272 0.0
C223 C 0.11496 0.57409 0.9202 0.0
O224 O 0.09065 0.61239 0.87275 0.0
O225 O 1.06069 0.55073 0.86755 0.0
O226 O 0.09864 0.54407 0.90805 0.0
O227 O 0.13268 0.60708 0.91255 0.0
H228 H 1.02071 0.60262 0.89296 0.0
H229 H 0.96062 0.60263 0.88921 0.0
H230 H 0.95033 0.56044 0.83089 0.0
H231 H 1.00956 0.56075 0.83503 0.0
H232 H 0.25252 0.53308 0.84014 0.0
H233 H 0.19328 0.53273 0.84438 0.0
H234 H 0.30879 0.62981 0.88108 0.0
H235 H 0.24873 0.62898 0.88492 0.0
H236 H 0.17242 0.60053 0.9806 0.0
H237 H 1.04958 0.53187 0.97533 0.0
H238 H 1.05244 0.53526 0.94113 0.0
H239 H 0.17433 0.60598 0.94652 0.0
C240 C 1.0048 0.5552 0.46788 0.0
C241 C 0.96799 0.53581 0.45948 0.0
C242 C 0.94926 0.49015 0.48311 0.0
C243 C 0.94012 0.50356 0.46724 0.0
C244 C 0.98571 0.51057 0.49195 0.0
C245 C 1.01341 0.54328 0.48439 0.0
U246 U 1.04943 0.59123 0.42208 0.0
O247 O 0.10851 0.61438 0.41397 0.0
O248 O 0.0828 0.65114 0.41504 0.0
C249 C 0.11427 0.64936 0.4158 0.0
C250 C 1.03568 0.58316 0.45775 0.0
C251 C 0.14039 0.67204 0.43165 0.0
C252 C 0.1625 0.67366 0.46378 0.0
C253 C 0.13698 0.65449 0.44865 0.0
C254 C 0.19335 0.72979 0.44576 0.0
C255 C 0.19196 0.71081 0.46208 0.0
C256 C 0.16765 0.71032 0.43049 0.0
C257 C 1.01395 0.54489 0.3752 0.0
C258 C 1.05319 0.58262 0.35054 0.0
C259 C 1.01324 0.51393 0.34497 0.0
C260 C 1.00045 0.51165 0.36329 0.0
C261 C 1.0396 0.54947 0.33851 0.0
C262 C 1.04067 0.5803 0.3688 0.0
C263 C 1.00526 0.54279 0.39511 0.0
O264 O 1.05452 0.56911 0.44871 0.0
O265 O 1.02736 0.60449 0.44764 0.0
O266 O 0.99998 0.57042 0.40229 0.0
O267 O 1.02843 0.53666 0.40551 0.0
H268 H 0.96131 0.54438 0.44644 0.0
H269 H 0.91197 0.48817 0.46036 0.0
H270 H 0.99339 0.50014 0.50402 0.0
H271 H 1.04209 0.55778 0.49067 0.0
H272 H 0.1607 0.65852 0.4762 0.0
H273 H 0.11585 0.62516 0.44996 0.0
H274 H 0.21544 0.75911 0.4445 0.0
H275 H 0.16978 0.7246 0.41773 0.0
H276 H 0.07396 0.6102 0.3459 0.0
H277 H 1.00244 0.48806 0.33581 0.0
H278 H 0.98072 0.48404 0.36827 0.0
H279 H 1.05253 0.60611 0.37809 0.0
C280 C 0.51946 0.98496 0.80207 0.0
C281 C 0.51225 0.95284 0.79044 0.0
C282 C 0.52971 0.92881 0.81667 0.0
C283 C 0.51734 0.9247 0.79775 0.0
C284 C 0.53461 0.95977 0.82858 0.0
C285 C 0.52949 0.98799 0.82124 0.0
U286 U 0.53206 1.03567 0.75828 0.0
O287 O 0.51142 0.07431 0.75071 0.0
O288 O 0.57292 0.09487 0.75267 0.0
C289 C 0.54601 0.10396 0.75294 0.0
C290 C 0.52471 1.01828 0.79335 0.0
C291 C 0.55071 0.13021 0.7689 0.0
C292 C 0.55946 0.14356 0.80287 0.0
C293 C 0.55472 0.12 0.78703 0.0
C294 C 0.55515 0.18789 0.78269 0.0
C295 C 0.5599 0.1777 0.80079 0.0
C296 C 0.55048 0.16406 0.76672 0.0
C297 C 0.53542 0.99749 0.71095 0.0
C298 C 0.55809 0.04422 0.68743 0.0
C299 C 0.52975 0.97674 0.67797 0.0
C300 C 0.52409 0.96809 0.69683 0.0
C301 C 0.54706 1.01492 0.67312 0.0
C302 C 0.55208 1.03551 0.70619 0.0
C303 C 0.5291 0.98927 0.7307 0.0
O304 O 0.55787 1.03646 0.78562 0.0
O305 O 0.4959 1.01311 0.78242 0.0
O306 O 0.49838 0.98849 0.73703 0.0
O307 O 0.55962 1.00953 0.74189 0.0
H308 H 0.50563 0.95103 0.77544 0.0
H309 H 0.51452 0.90137 0.78832 0.0
H310 H 0.54461 0.96317 0.84318 0.0
H311 H 0.53594 1.01328 0.83013 0.0
H312 H 0.56309 0.13531 0.81668 0.0
H313 H 0.55471 0.09396 0.78897 0.0
H314 H 0.55603 0.2147 0.7809 0.0
H315 H 0.54713 0.17212 0.75283 0.0
H316 H 0.57179 0.07388 0.68418 0.0
H317 H 0.52027 0.95353 0.66718 0.0
H318 H 0.51075 0.93861 0.70036 0.0
H319 H 0.5606 0.05852 0.71702 0.0
C320 C 0.60135 0.4633 0.13004 0.0
C321 C 0.63024 0.46302 0.1196 0.0
C322 C 0.66623 0.47304 0.14867 0.0
C323 C 0.66271 0.46794 0.1289 0.0
C324 C 0.63614 0.47072 0.15912 0.0
C325 C 0.60367 0.46597 0.14977 0.0
U326 U 0.56298 0.47974 0.08556 0.0
O327 O 0.54319 0.52003 0.08028 0.0
O328 O 0.50319 0.45817 0.07653 0.0
C329 C 0.50749 0.49241 0.07974 0.0
C330 C 0.5729 0.4683 0.12044 0.0
C331 C 0.48677 0.49557 0.09568 0.0
C332 C 0.48749 0.50843 0.12945 0.0
C333 C 0.50575 0.5064 0.11357 0.0
C334 C 0.43006 0.48794 0.10997 0.0
C335 C 0.4499 0.49999 0.12768 0.0
C336 C 0.44851 0.48549 0.09392 0.0
C337 C 0.60567 0.49245 0.03984 0.0
C338 C 0.57742 0.51435 0.01698 0.0
C339 C 0.62576 0.49869 0.00779 0.0
C340 C 0.62855 0.4894 0.02613 0.0
C341 C 0.60024 0.51128 0.00315 0.0
C342 C 0.58 0.50478 0.03521 0.0
C343 C 0.60784 0.483 0.05909 0.0
O344 O 0.58695 0.50244 0.11416 0.0
O345 O 0.55063 0.44044 0.10798 0.0
O346 O 0.57855 0.45054 0.06349 0.0
O347 O 0.61691 0.51159 0.07167 0.0
H348 H 0.62886 0.46186 0.10429 0.0
H349 H 0.68611 0.47067 0.12062 0.0
H350 H 0.63877 0.47487 0.17439 0.0
H351 H 0.5816 0.46687 0.15785 0.0
H352 H 0.50313 0.51812 0.14299 0.0
H353 H 0.53521 0.5144 0.11529 0.0
H354 H 0.40097 0.48204 0.10849 0.0
H355 H 0.43334 0.47648 0.08028 0.0
H356 H 0.55741 0.52375 0.01364 0.0
H357 H 0.64386 0.49654 0.99727 0.0
H358 H 0.64847 0.47997 0.02961 0.0
H359 H 0.56198 0.50703 0.04573 0.0
C360 C 0.31692 0.55811 0.15706 0.0
C361 C 0.30438 0.55701 0.17542 0.0
C362 C 0.3483 0.55405 0.1537 0.0
C363 C 0.36745 0.54941 0.16921 0.0
C364 C 0.35769 0.55291 0.18792 0.0
C365 C 0.32586 0.55676 0.19086 0.0
C366 C 0.35773 0.54995 0.13341 0.0
C367 C 0.37814 0.54834 0.20457 0.0
C368 C 0.39823 0.48347 0.14955 0.0
C369 C 0.43371 0.51016 0.14351 0.0
C370 C 0.37771 0.4956 0.16064 0.0
C371 C 0.39346 0.53523 0.16528 0.0
C372 C 0.43121 0.56155 0.16115 0.0
C373 C 0.45121 0.54851 0.15027 0.0
C374 C 0.33715 0.46684 0.1647 0.0
C375 C 0.44812 0.60399 0.16547 0.0
H376 H 0.29978 0.55771 0.14511 0.0
H377 H 0.31577 0.55607 0.205 0.0
H378 H 0.38866 0.56817 0.1315 0.0
H379 H 0.35006 0.51991 0.1297 0.0
H380 H 0.34208 0.55772 0.12327 0.0
H381 H 0.37052 0.55714 0.21818 0.0
H382 H 0.37042 0.51797 0.20483 0.0
H383 H 0.40941 0.56539 0.20328 0.0
H384 H 0.38538 0.4538 0.14432 0.0
H385 H 0.47887 0.56894 0.14541 0.0
H386 H 0.31753 0.4683 0.15417 0.0
H387 H 0.32972 0.47307 0.17892 0.0
H388 H 0.33223 0.43724 0.16372 0.0
H389 H 0.43879 0.61574 0.15412 0.0
H390 H 0.47972 0.61902 0.16604 0.0
H391 H 0.43836 0.61029 0.17903 0.0
C392 C 0.78412 0.29685 0.51468 0.0
C393 C 0.7969 0.2707 0.51563 0.0
C394 C 0.80923 0.33403 0.5105 0.0
C395 C 0.84755 0.34457 0.5078 0.0
C396 C 0.86107 0.31897 0.51005 0.0
C397 C 0.83524 0.28189 0.51389 0.0
C398 C 0.79435 0.36103 0.50755 0.0
C399 C 0.90204 0.3299 0.50711 0.0
C400 C 0.9021 0.42225 0.47607 0.0
C401 C 0.92198 0.45315 0.48942 0.0
C402 C 0.87703 0.38634 0.4819 0.0
C403 C 0.8731 0.38179 0.50146 0.0
C404 C 0.89348 0.41254 0.51499 0.0
C405 C 0.91746 0.44836 0.50874 0.0
C406 C 0.85504 0.35343 0.46726 0.0
C407 C 0.89004 0.40744 0.53595 0.0
H408 H 0.75412 0.28745 0.51592 0.0
H409 H 0.8445 0.261 0.51414 0.0
H410 H 0.81172 0.38828 0.51617 0.0
H411 H 0.7967 0.3679 0.49252 0.0
H412 H 0.76411 0.34873 0.51124 0.0
H413 H 0.90819 0.30725 0.51098 0.0
H414 H 0.9085 0.33518 0.49206 0.0
H415 H 0.92154 0.35669 0.51563 0.0
H416 H 0.90658 0.42604 0.46113 0.0
H417 H 0.93292 0.47254 0.51893 0.0
H418 H 0.82402 0.34059 0.46915 0.0
H419 H 0.86227 0.33073 0.46907 0.0
H420 H 0.86105 0.3624 0.45259 0.0
H421 H 0.86053 0.39848 0.53992 0.0
H422 H 0.90993 0.43403 0.54455 0.0
H423 H 0.89592 0.38452 0.53958 0.0
C424 C 0.62258 0.80313 0.81901 0.0
C425 C 0.62269 0.78973 0.83668 0.0
C426 C 0.60601 0.82525 0.81642 0.0
C427 C 0.58959 0.83374 0.832 0.0
C428 C 0.5897 0.82027 0.84992 0.0
C429 C 0.60655 0.7981 0.85209 0.0
C430 C 0.60647 0.83976 0.79718 0.0
C431 C 0.57212 0.82932 0.86662 0.0
C432 C 0.58134 0.92062 0.82931 0.0
C433 C 0.54332 0.90418 0.82288 0.0
C434 C 0.59679 0.89763 0.83271 0.0
C435 C 0.57323 0.85777 0.82963 0.0
C436 C 0.53471 0.84095 0.82344 0.0
C437 C 0.52008 0.86467 0.82006 0.0
C438 C 0.63844 0.91579 0.83882 0.0
C439 C 0.5096 0.79824 0.81978 0.0
H440 H 0.63548 0.79617 0.80728 0.0
H441 H 0.60669 0.78687 0.8656 0.0
H442 H 0.57711 0.83093 0.79207 0.0
H443 H 0.62291 0.87141 0.79816 0.0
H444 H 0.6194 0.82906 0.78651 0.0
H445 H 0.57426 0.81598 0.8795 0.0
H446 H 0.58645 0.86068 0.86977 0.0
H447 H 0.54165 0.81919 0.8632 0.0
H448 H 0.59932 0.95142 0.83085 0.0
H449 H 0.49087 0.85259 0.81475 0.0
H450 H 0.65375 0.90828 0.8281 0.0
H451 H 0.64146 0.90461 0.85227 0.0
H452 H 0.65256 0.94739 0.8408 0.0
H453 H 0.52097 0.78771 0.80825 0.0
H454 H 0.47979 0.78991 0.81573 0.0
H455 H 0.50958 0.78363 0.83255 0.0
C456 C 0.87489 0.5522 0.19205 0.0
C457 C 0.89765 0.57478 0.1782 0.0
C458 C 0.83559 0.53609 0.19007 0.0
C459 C 0.82002 0.54277 0.17379 0.0
C460 C 0.84342 0.56728 0.16027 0.0
C461 C 0.88241 0.58342 0.1628 0.0
C462 C 0.81071 0.50992 0.20456 0.0
C463 C 0.82741 0.57431 0.14254 0.0
C464 C 0.72465 0.46947 0.1531 0.0
C465 C 0.70341 0.48694 0.15792 0.0
C466 C 0.76278 0.4867 0.15897 0.0
C467 C 0.77922 0.52182 0.16995 0.0
C468 C 0.75762 0.53885 0.17551 0.0
C469 C 0.71958 0.52104 0.16938 0.0
C470 C 0.78601 0.4688 0.15238 0.0
C471 C 0.77535 0.5769 0.18687 0.0
H472 H 0.88761 0.54551 0.20369 0.0
H473 H 0.90099 0.60072 0.15211 0.0
H474 H 0.78928 0.5178 0.20903 0.0
H475 H 0.79497 0.48016 0.1982 0.0
H476 H 0.82752 0.5108 0.21724 0.0
H477 H 0.85005 0.59552 0.13397 0.0
H478 H 0.81108 0.54721 0.13365 0.0
H479 H 0.80749 0.58467 0.14622 0.0
H480 H 0.71181 0.44328 0.14404 0.0
H481 H 0.70315 0.53491 0.1726 0.0
H482 H 0.80182 0.46619 0.16452 0.0
H483 H 0.80739 0.48733 0.14248 0.0
H484 H 0.76807 0.44009 0.14504 0.0
H485 H 0.78885 0.57536 0.20023 0.0
H486 H 0.75423 0.5859 0.19029 0.0
H487 H 0.79818 0.59929 0.17889 0.0
C488 C 0.34435 0.87145 0.51721 0.0
C489 C 0.3793 0.87322 0.51988 0.0
C490 C 0.31179 0.83656 0.51271 0.0
C491 C 0.31432 0.80293 0.51284 0.0
C492 C 0.34818 0.80452 0.51935 0.0
C493 C 0.38119 0.8402 0.52212 0.0
C494 C 0.27719 0.83667 0.5045 0.0
C495 C 0.35076 0.76888 0.52073 0.0
C496 C 0.21835 0.72645 0.49546 0.0
C497 C 0.22395 0.72785 0.47599 0.0
C498 C 0.24943 0.74662 0.50834 0.0
C499 C 0.28585 0.76942 0.50132 0.0
C500 C 0.2919 0.76736 0.48176 0.0
C501 C 0.26072 0.74567 0.46941 0.0
C502 C 0.24288 0.74694 0.52922 0.0
C503 C 0.32996 0.79234 0.47339 0.0
H504 H 0.34375 0.89758 0.51531 0.0
H505 H 0.40865 0.84214 0.52415 0.0
H506 H 0.27288 0.82701 0.48926 0.0
H507 H 0.25123 0.81679 0.51162 0.0
H508 H 0.28009 0.86546 0.50578 0.0
H509 H 0.37464 0.7741 0.53056 0.0
H510 H 0.32378 0.74529 0.52559 0.0
H511 H 0.35592 0.7595 0.50665 0.0
H512 H 0.18979 0.71145 0.50058 0.0
H513 H 0.26491 0.74472 0.45436 0.0
H514 H 0.23958 0.7718 0.53359 0.0
H515 H 0.2675 0.74959 0.53758 0.0
H516 H 0.21663 0.72068 0.53273 0.0
H517 H 0.33634 0.8224 0.47453 0.0
H518 H 0.33019 0.78401 0.45823 0.0
H519 H 0.35317 0.79113 0.48107 0.0
C520 C 0.63862 0.37207 0.83173 0.0
C521 C 0.6224 0.38241 0.84647 0.0
C522 C 0.63513 0.33609 0.83072 0.0
C523 C 0.61692 0.31177 0.84544 0.0
C524 C 0.60897 0.32607 0.86229 0.0
C525 C 0.61158 0.36174 0.86258 0.0
C526 C 0.64354 0.32174 0.8123 0.0
C527 C 0.5911 0.30122 0.87844 0.0
C528 C 0.54587 0.22123 0.8198 0.0
C529 C 0.56814 0.20422 0.81723 0.0
C530 C 0.55955 0.25477 0.83124 0.0
C531 C 0.59602 0.2706 0.84049 0.0
C532 C 0.6156 0.25003 0.84035 0.0
C533 C 0.60148 0.21682 0.82844 0.0
C534 C 0.53768 0.27594 0.83079 0.0
C535 C 0.65379 0.26563 0.85061 0.0
H536 H 0.64776 0.38907 0.81954 0.0
H537 H 0.59972 0.3705 0.87413 0.0
H538 H 0.65806 0.30531 0.81488 0.0
H539 H 0.61639 0.3024 0.80418 0.0
H540 H 0.6616 0.34544 0.80338 0.0
H541 H 0.59544 0.31871 0.89183 0.0
H542 H 0.56 0.28299 0.87537 0.0
H543 H 0.603 0.28215 0.88034 0.0
H544 H 0.51954 0.21035 0.8114 0.0
H545 H 0.61833 0.20297 0.82659 0.0
H546 H 0.5521 0.30013 0.82165 0.0
H547 H 0.53667 0.2877 0.84509 0.0
H548 H 0.508 0.25735 0.82501 0.0
H549 H 0.67667 0.28347 0.84118 0.0
H550 H 0.65852 0.24214 0.85459 0.0
H551 H 0.6564 0.28369 0.86351 0.0
C552 C 0.60991 0.95043 0.50019 0.0
C553 C 0.57918 0.95607 0.50511 0.0
C554 C 0.61121 0.91662 0.50388 0.0
C555 C 0.58136 0.88631 0.51321 0.0
C556 C 0.55053 0.89205 0.51855 0.0
C557 C 0.54963 0.92603 0.51438 0.0
C558 C 0.64482 0.9133 0.49749 0.0
C559 C 0.51826 0.86211 0.52896 0.0
C560 C 0.56602 0.78211 0.50651 0.0
C561 C 0.58293 0.77705 0.52301 0.0
C562 C 0.56534 0.8165 0.50334 0.0
C563 C 0.58191 0.84864 0.51677 0.0
C564 C 0.59937 0.84435 0.53335 0.0
C565 C 0.59966 0.80954 0.53621 0.0
C566 C 0.54678 0.81849 0.48523 0.0
C567 C 0.61833 0.87701 0.54825 0.0
H568 H 0.63341 0.97272 0.49318 0.0
H569 H 0.52586 0.92929 0.51875 0.0
H570 H 0.65818 0.90721 0.50952 0.0
H571 H 0.63505 0.88905 0.4867 0.0
H572 H 0.66677 0.93964 0.49134 0.0
H573 H 0.49685 0.87053 0.53274 0.0
H574 H 0.50391 0.83479 0.52012 0.0
H575 H 0.52957 0.85687 0.54208 0.0
H576 H 0.55305 0.75924 0.49559 0.0
H577 H 0.6133 0.80828 0.54909 0.0
H578 H 0.56802 0.84206 0.47717 0.0
H579 H 0.5238 0.82493 0.48845 0.0
H580 H 0.5345 0.79151 0.47612 0.0
H581 H 0.64367 0.90109 0.54247 0.0
H582 H 0.6276 0.86884 0.56112 0.0
H583 H 0.59868 0.88752 0.55232 0.0
C584 C 0.75919 0.61004 0.83863 0.0
C585 C 0.72361 0.57637 0.84029 0.0
C586 C 0.79514 0.61202 0.84206 0.0
C587 C 0.79718 0.57971 0.84764 0.0
C588 C 0.76139 0.54586 0.84964 0.0
C589 C 0.72578 0.54454 0.84592 0.0
C590 C 0.83125 0.64903 0.83944 0.0
C591 C 0.76063 0.51055 0.85585 0.0
C592 C 0.8887 0.57135 0.83883 0.0
C593 C 0.90935 0.5817 0.85659 0.0
C594 C 0.85335 0.57085 0.83587 0.0
C595 C 0.83614 0.58089 0.85082 0.0
C596 C 0.8566 0.59182 0.8687 0.0
C597 C 0.89202 0.5921 0.87131 0.0
C598 C 0.83426 0.55953 0.81638 0.0
C599 C 0.8411 0.60367 0.88532 0.0
H600 H 0.75911 0.63533 0.83446 0.0
H601 H 0.69938 0.5183 0.84764 0.0
H602 H 0.85041 0.65792 0.85226 0.0
H603 H 0.84664 0.64492 0.82755 0.0
H604 H 0.82564 0.67244 0.83643 0.0
H605 H 0.73118 0.48675 0.85737 0.0
H606 H 0.77484 0.501 0.84543 0.0
H607 H 0.77676 0.51713 0.86958 0.0
H608 H 0.8998 0.56345 0.82677 0.0
H609 H 0.90589 0.6006 0.88522 0.0
H610 H 0.83147 0.58336 0.81114 0.0
H611 H 0.80509 0.53473 0.81694 0.0
H612 H 0.85026 0.55198 0.80609 0.0
H613 H 0.84144 0.63054 0.88261 0.0
H614 H 0.85789 0.60835 0.89866 0.0
H615 H 0.81105 0.58165 0.88719 0.0
C616 C 0.21074 0.69958 0.16939 0.0
C617 C 0.20845 0.6643 0.17276 0.0
C618 C 0.24506 0.73583 0.17268 0.0
C619 C 0.2794 0.7386 0.17996 0.0
C620 C 0.27714 0.70315 0.18366 0.0
C621 C 0.24253 0.66716 0.17994 0.0
C622 C 0.24456 0.77146 0.16804 0.0
C623 C 0.31163 0.70321 0.19177 0.0
C624 C 0.37925 0.82882 0.17197 0.0
C625 C 0.38987 0.85208 0.18924 0.0
C626 C 0.34437 0.79297 0.1689 0.0
C627 C 0.3174 0.77792 0.18324 0.0
C628 C 0.32728 0.80098 0.20061 0.0
C629 C 0.36246 0.8368 0.20335 0.0
C630 C 0.33627 0.77098 0.14996 0.0
C631 C 0.30031 0.78782 0.21654 0.0
H632 H 0.18539 0.69898 0.16393 0.0
H633 H 0.24213 0.64105 0.18295 0.0
H634 H 0.25538 0.79262 0.18039 0.0
H635 H 0.26378 0.78478 0.15635 0.0
H636 H 0.2156 0.76551 0.16372 0.0
H637 H 0.30577 0.67406 0.19446 0.0
H638 H 0.33517 0.71585 0.18191 0.0
H639 H 0.3216 0.72127 0.20524 0.0
H640 H 0.398 0.83826 0.16036 0.0
H641 H 0.36812 0.85263 0.21687 0.0
H642 H 0.30941 0.76688 0.1434 0.0
H643 H 0.33224 0.7422 0.15183 0.0
H644 H 0.3595 0.78563 0.1401 0.0
H645 H 0.27337 0.78666 0.2122 0.0
H646 H 0.31236 0.80702 0.2296 0.0
H647 H 0.29307 0.75854 0.21978 0.0
C648 C 0.60152 0.20523 0.49274 0.0
C649 C 0.59161 0.17866 0.50675 0.0
C650 C 0.59976 0.23985 0.49546 0.0
C651 C 0.58877 0.2502 0.51291 0.0
C652 C 0.57887 0.22348 0.52713 0.0
C653 C 0.57977 0.18854 0.52383 0.0
C654 C 0.60925 0.26536 0.47934 0.0
C655 C 0.56691 0.23171 0.54602 0.0
C656 C 0.61952 0.35819 0.52664 0.0
C657 C 0.58654 0.36112 0.52299 0.0
C658 C 0.62048 0.32325 0.52356 0.0
C659 C 0.58787 0.28851 0.51633 0.0
C660 C 0.55449 0.29096 0.51258 0.0
C661 C 0.55421 0.32622 0.5159 0.0
C662 C 0.65699 0.32356 0.52817 0.0
C663 C 0.51857 0.25606 0.50472 0.0
H664 H 0.60972 0.19841 0.47925 0.0
H665 H 0.57122 0.16875 0.53486 0.0
H666 H 0.58555 0.2708 0.47629 0.0
H667 H 0.63488 0.29337 0.48335 0.0
H668 H 0.61467 0.25282 0.46625 0.0
H669 H 0.56104 0.20929 0.55592 0.0
H670 H 0.58954 0.2596 0.55254 0.0
H671 H 0.54092 0.23392 0.54409 0.0
H672 H 0.64543 0.38349 0.53184 0.0
H673 H 0.52783 0.32581 0.51296 0.0
H674 H 0.6663 0.31383 0.51545 0.0
H675 H 0.65212 0.30327 0.53913 0.0
H676 H 0.68029 0.35231 0.53339 0.0
H677 H 0.52298 0.24825 0.49012 0.0
H678 H 0.49383 0.26075 0.50436 0.0
H679 H 0.51161 0.23143 0.51323 0.0
C680 C 0.48631 0.56393 0.85352 0.0
C681 C 0.51249 0.58758 0.84044 0.0
C682 C 0.45116 0.56328 0.85715 0.0
C683 C 0.43949 0.58555 0.84702 0.0
C684 C 0.46546 0.60887 0.83351 0.0
C685 C 0.50127 0.61025 0.83075 0.0
C686 C 0.42643 0.53867 0.87213 0.0
C687 C 0.45526 0.63253 0.82169 0.0
C688 C 0.33058 0.5562 0.84395 0.0
C689 C 0.3272 0.58251 0.85683 0.0
C690 C 0.36587 0.55687 0.84072 0.0
C691 C 0.40068 0.58445 0.85046 0.0
C692 C 0.39784 0.61098 0.8635 0.0
C693 C 0.36216 0.60972 0.86646 0.0
C694 C 0.36578 0.52765 0.82659 0.0
C695 C 0.43278 0.64075 0.87482 0.0
H696 H 0.49371 0.54615 0.86136 0.0
H697 H 0.52016 0.62854 0.82048 0.0
H698 H 0.42011 0.55608 0.88249 0.0
H699 H 0.39884 0.51593 0.86559 0.0
H700 H 0.44003 0.52507 0.87981 0.0
H701 H 0.4755 0.64557 0.81032 0.0
H702 H 0.42613 0.61469 0.81517 0.0
H703 H 0.45532 0.65565 0.83084 0.0
H704 H 0.30556 0.53443 0.83604 0.0
H705 H 0.36226 0.63064 0.87659 0.0
H706 H 0.37446 0.50939 0.83379 0.0
H707 H 0.38682 0.54218 0.81574 0.0
H708 H 0.33738 0.50903 0.8194 0.0
H709 H 0.44105 0.62663 0.88535 0.0
H710 H 0.42796 0.66257 0.88242 0.0
H711 H 0.45708 0.65535 0.86555 0.0
C712 C 0.98508 0.41818 0.17444 0.0
C713 C 0.98526 0.45245 0.17087 0.0
C714 C 0.95113 0.38323 0.17807 0.0
C715 C 0.91473 0.38071 0.17829 0.0
C716 C 0.91468 0.41519 0.17479 0.0
C717 C 0.94916 0.44989 0.17124 0.0
C718 C 0.95439 0.34858 0.18162 0.0
C719 C 0.87773 0.4155 0.17487 0.0
C720 C 0.82006 0.28085 0.16968 0.0
C721 C 0.80548 0.27003 0.18789 0.0
C722 C 0.85468 0.31555 0.16653 0.0
C723 C 0.87713 0.3424 0.18172 0.0
C724 C 0.86309 0.33201 0.20013 0.0
C725 C 0.82847 0.29685 0.20293 0.0
C726 C 0.86743 0.3234 0.14659 0.0
C727 C 0.88509 0.35809 0.21718 0.0
H728 H 1.01194 0.41851 0.17446 0.0
H729 H 0.94769 0.47528 0.16876 0.0
H730 H 0.94162 0.33708 0.19518 0.0
H731 H 0.93826 0.3258 0.17029 0.0
H732 H 0.9844 0.35497 0.1821 0.0
H733 H 0.88154 0.44383 0.17196 0.0
H734 H 0.85726 0.39383 0.16407 0.0
H735 H 0.86489 0.40762 0.1888 0.0
H736 H 0.80453 0.26239 0.1574 0.0
H737 H 0.8198 0.29067 0.21724 0.0
H738 H 0.89552 0.32523 0.14537 0.0
H739 H 0.87106 0.35133 0.14305 0.0
H740 H 0.84699 0.30095 0.13605 0.0
H741 H 0.91236 0.35832 0.21918 0.0
H742 H 0.86912 0.34901 0.23029 0.0
H743 H 0.89215 0.3878 0.21504 0.0
C744 C 0.11947 0.53934 0.09418 0.0
C745 C 0.10061 0.55521 0.10438 0.0
C746 C 0.12111 0.53988 0.07426 0.0
C747 C 0.10405 0.55725 0.06414 0.0
C748 C 0.08514 0.57343 0.07441 0.0
C749 C 0.08347 0.57201 0.09423 0.0
C750 C 0.14137 0.52202 0.06404 0.0
C751 C 0.06665 0.59243 0.06444 0.0
C752 C 0.13743 0.59259 0.01496 0.0
C753 C 0.10926 0.56332 1.00261 0.0
C754 C 0.13652 0.59055 0.03479 0.0
C755 C 0.1062 0.55893 0.04291 0.0
C756 C 0.07748 0.52947 0.03068 0.0
C757 C 0.07958 0.53174 0.01086 0.0
C758 C 0.16799 0.6226 0.04713 0.0
C759 C 1.0443 0.49539 0.03855 0.0
H760 H 0.13278 0.5262 0.10174 0.0
H761 H 0.06895 0.5846 0.10182 0.0
H762 H 0.1224 0.50103 0.05261 0.0
H763 H 0.16661 0.54438 0.05731 0.0
H764 H 0.1509 0.50739 0.07366 0.0
H765 H 1.05366 0.60431 0.07441 0.0
H766 H 0.088 0.61592 0.05639 0.0
H767 H 1.04418 0.57154 0.05412 0.0
H768 H 0.1602 0.61769 0.00922 0.0
H769 H 1.05788 0.50829 1.00188 0.0
H770 H 0.18173 0.6111 0.05626 0.0
H771 H 0.15601 0.63629 0.05659 0.0
H772 H 0.19015 0.64477 0.03875 0.0
H773 H 1.05479 0.4799 0.04693 0.0
H774 H 1.02377 0.47522 0.02729 0.0
H775 H 1.02897 0.50497 0.04823 0.0
C776 C 0.56461 0.07486 0.42753 0.0
C777 C 0.59393 0.07461 0.43819 0.0
C778 C 0.56472 0.07475 0.4076 0.0
C779 C 0.59493 0.0745 0.39783 0.0
C780 C 0.62483 0.0747 0.40854 0.0
C781 C 0.62396 0.0747 0.42847 0.0
C782 C 0.53216 0.07452 0.39698 0.0
C783 C 0.6579 0.07491 0.39893 0.0
C784 C 0.57895 1.03905 0.34523 0.0
C785 C 0.59627 0.07325 0.33599 0.0
C786 C 0.57815 1.03904 0.36518 0.0
C787 C 0.59523 0.07405 0.37647 0.0
C788 C 0.61256 0.10864 0.36729 0.0
C789 C 0.61267 0.10783 0.34734 0.0
C790 C 0.55918 1.0014 0.37421 0.0
C791 C 0.631 0.14671 0.37856 0.0
H792 H 0.54116 0.07472 0.43474 0.0
H793 H 0.64688 0.07466 0.43644 0.0
H794 H 0.54315 0.09934 0.38816 0.0
H795 H 0.51724 0.04838 0.3873 0.0
H796 H 0.51119 0.0755 0.40658 0.0
H797 H 0.67829 0.0738 0.4091 0.0
H798 H 0.6474 0.05018 0.38838 0.0
H799 H 0.67335 0.10114 0.39119 0.0
H800 H 0.56654 1.01205 0.3369 0.0
H801 H 0.62545 0.13461 0.34065 0.0
H802 H 0.53608 0.99949 0.38312 0.0
H803 H 0.58009 0.99945 0.38362 0.0
H804 H 0.54693 0.97661 0.36359 0.0
H805 H 0.60935 0.14947 0.38682 0.0
H806 H 0.6447 0.17109 0.36945 0.0
H807 H 0.65286 0.14865 0.38881 0.0
C808 C 0.62499 0.56847 0.76157 0.0
C809 C 0.61047 0.58687 0.77328 0.0
C810 C 0.62235 0.56797 0.74166 0.0
C811 C 0.60346 0.5851 0.73297 0.0
C812 C 0.58821 0.60324 0.74477 0.0
C813 C 0.59248 0.6045 0.76469 0.0
C814 C 0.64005 0.54921 0.72992 0.0
C815 C 0.56669 0.62073 0.73633 0.0
C816 C 0.62561 0.61233 0.68162 0.0
C817 C 0.59495 0.58168 0.671 0.0
C818 C 0.62826 0.6141 0.70159 0.0
C819 C 0.60004 0.58423 0.71162 0.0
C820 C 0.5691 0.55317 0.70112 0.0
C821 C 0.56677 0.55242 0.68116 0.0
C822 C 0.66172 0.64795 0.71201 0.0
C823 C 0.53839 0.52041 0.711 0.0
H824 H 0.63905 0.55486 0.76803 0.0
H825 H 0.58068 0.61831 0.77357 0.0
H826 H 0.61798 0.52559 0.72045 0.0
H827 H 0.66147 0.57018 0.72082 0.0
H828 H 0.65416 0.5376 0.73875 0.0
H829 H 0.55697 0.63421 0.74729 0.0
H830 H 0.58486 0.64257 0.72661 0.0
H831 H 0.54143 0.59839 0.72786 0.0
H832 H 0.64824 0.63493 0.67437 0.0
H833 H 0.54239 0.5288 0.67357 0.0
H834 H 0.67844 0.63821 0.72013 0.0
H835 H 0.65151 0.66205 0.72232 0.0
H836 H 0.68084 0.66939 0.70233 0.0
H837 H 0.5509 0.50576 0.71859 0.0
H838 H 0.51533 0.49911 0.70102 0.0
H839 H 0.52576 0.53127 0.72171 0.0
C840 C 0.53758 1.02986 0.56294 0.0
C841 C 0.57262 0.055 0.55563 0.0
C842 C 0.53456 1.0244 0.58228 0.0
C843 C 0.56718 0.04541 0.59455 0.0
C844 C 0.6025 0.07144 0.58731 0.0
C845 C 0.60491 0.07557 0.56783 0.0
C846 C 0.49665 0.99572 0.58954 0.0
C847 C 0.63765 0.09474 0.60011 0.0
C848 C 0.54762 0.05234 0.64612 0.0
C849 C 0.55384 1.02415 0.65319 0.0
C850 C 0.55307 0.06048 0.62712 0.0
C851 C 0.56433 1.03943 0.61494 0.0
C852 C 0.57133 1.01149 0.62207 0.0
C853 C 0.56634 1.00445 0.64118 0.0
C854 C 0.54614 0.09105 0.61999 0.0
C855 C 0.58308 0.98827 0.60944 0.0
H856 H 0.51273 1.01368 0.55346 0.0
H857 H 0.63199 0.0952 0.56215 0.0
H858 H 0.49968 0.97398 0.59703 0.0
H859 H 0.48689 1.01019 0.59987 0.0
H860 H 0.47437 0.98091 0.57801 0.0
H861 H 0.66247 0.11507 0.59232 0.0
H862 H 0.63194 0.11106 0.6114 0.0
H863 H 0.64529 0.07555 0.60716 0.0
H864 H 0.53774 0.06752 0.65534 0.0
H865 H 0.5721 0.98334 0.64671 0.0
H866 H 0.52198 0.07811 0.60937 0.0
H867 H 0.57153 0.11222 0.61286 0.0
H868 H 0.53959 0.10626 0.63153 0.0
H869 H 0.56037 0.97131 0.59837 0.0
H870 H 0.58848 0.96843 0.61739 0.0
H871 H 0.60924 1.00738 0.60216 0.0
C872 C 0.5795 0.55742 0.89712 0.0
C873 C 0.61561 0.57221 0.88983 0.0
C874 C 0.5741 0.54913 0.91608 0.0
C875 C 0.60583 0.5566 0.9278 0.0
C876 C 0.64272 0.57333 0.92058 0.0
C877 C 0.64711 0.58055 0.90146 0.0
C878 C 0.53436 0.53072 0.92331 0.0
C879 C 0.67721 0.58207 0.93283 0.0
C880 C 0.60101 0.55688 0.98087 0.0
C881 C 0.59783 0.52156 0.9839 0.0
C882 C 0.60242 0.56837 0.96252 0.0
C883 C 0.60019 0.54365 0.94709 0.0
C884 C 0.59506 0.50719 0.95011 0.0
C885 C 0.59405 0.49661 0.96856 0.0
C886 C 0.60814 0.60754 0.95971 0.0
C887 C 0.59204 0.4799 0.9339 0.0
H888 H 0.55536 0.55107 0.88781 0.0
H889 H 0.67494 0.59208 0.89553 0.0
H890 H 0.52587 0.50164 0.92749 0.0
H891 H 0.53354 0.5473 0.93608 0.0
H892 H 0.51309 0.52845 0.91254 0.0
H893 H 0.70418 0.59844 0.92551 0.0
H894 H 0.67848 0.59867 0.94605 0.0
H895 H 0.67506 0.55503 0.93688 0.0
H896 H 0.60394 0.57608 0.99286 0.0
H897 H 0.59088 0.46902 0.97105 0.0
H898 H 0.58659 0.6056 0.94927 0.0
H899 H 0.63653 0.62557 0.95396 0.0
H900 H 0.60632 0.62199 0.9731 0.0
H901 H 0.56949 0.47551 0.92341 0.0
H902 H 0.58554 0.45169 0.93867 0.0
H903 H 0.61927 0.4922 0.92658 0.0
C904 C 0.12031 0.57967 0.23462 0.0
C905 C 0.08939 0.557 0.22198 0.0
C906 C 0.11544 0.57904 0.25415 0.0
C907 C 0.07915 0.55426 0.26095 0.0
C908 C 1.04834 0.52999 0.24817 0.0
C909 C 1.05373 0.53213 0.22877 0.0
C910 C 0.14861 0.60576 0.26745 0.0
C911 C 1.00944 0.50259 0.25496 0.0
C912 C 0.06607 0.52893 0.31184 0.0
C913 C 1.05221 0.55228 0.31905 0.0
C914 C 0.07647 0.5303 0.29304 0.0
C915 C 0.07242 0.55531 0.28131 0.0
C916 C 1.05929 0.5796 0.28872 0.0
C917 C 1.04953 0.57793 0.3076 0.0
C918 C 0.09058 0.50418 0.28557 0.0
C919 C 1.05428 0.60638 0.27656 0.0
H920 H 0.14781 0.59892 0.2292 0.0
H921 H 1.03004 0.51425 0.21886 0.0
H922 H 0.14202 0.62614 0.27523 0.0
H923 H 0.15349 0.58946 0.27812 0.0
H924 H 0.17527 0.62227 0.25992 0.0
H925 H 0.98952 0.48349 0.24323 0.0
H926 H 1.01173 0.48471 0.26561 0.0
H927 H 0.99704 0.51884 0.26191 0.0
H928 H 0.06855 0.50952 0.3209 0.0
H929 H 1.03865 0.59585 0.31328 0.0
H930 H 0.11816 0.52085 0.27884 0.0
H931 H 0.07003 0.48332 0.27454 0.0
H932 H 0.09433 0.48822 0.29685 0.0
H933 H 0.08133 0.62527 0.26985 0.0
H934 H 1.0452 0.62442 0.28474 0.0
H935 H 1.03255 0.5897 0.26503 0.0
loop_
_geom_bond_atom_site_label_1
_geom_bond_atom_site_label_2
_geom_bond_distance
_geom_bond_site_symmetry_2
_ccdc_geom_bond_type
Tb0 C9 2.764 1_455 S
Tb0 O10 2.325 1_455 S
Tb0 O13 2.303 . S
Tb0 O17 2.322 . S
Tb0 O18 2.349 . S
Tb0 O21 2.415 1_455 S
Tb0 O22 2.399 1_455 S
Tb1 O11 2.330 . S
Tb1 O12 2.349 . S
Tb1 O14 2.415 . S
Tb1 O15 2.399 . S
Tb1 O16 2.325 . S
Tb1 O19 2.303 . S
Tb1 C30 2.764 . S
C2 O18 1.261 . S
C2 O19 1.257 . S
C3 C6 1.358 . S
C3 C7 1.332 . S
C3 C9 1.504 . S
C4 C5 1.373 . S
C4 C8 1.308 . S
C5 C4 1.373 . S
C5 C6 1.429 . S
C5 H32 0.932 . S
C6 C3 1.358 . S
C6 C5 1.429 . S
C6 H33 0.930 . S
C7 C3 1.332 . S
C7 C8 1.394 . S
C7 H34 0.932 . S
C8 C4 1.308 . S
C8 C7 1.394 . S
C8 H35 0.929 . S
C9 Tb0 2.764 1_655 S
C9 C3 1.504 . S
C9 O21 1.239 . S
C9 O22 1.263 . S
O10 Tb0 2.325 1_655 S
O10 C20 1.236 . S
O11 Tb1 2.330 . S
O11 C20 1.248 1_455 S
O12 Tb1 2.349 . S
O12 C23 1.261 . S
O13 Tb0 2.303 . S
O13 C23 1.257 . S
O14 Tb1 2.415 . S
O14 C30 1.239 . S
O15 Tb1 2.399 . S
O15 C30 1.263 . S
O16 Tb1 2.325 . S
O16 C31 1.236 . S
O17 Tb0 2.322 . S
O17 C31 1.257 . S
O18 Tb0 2.349 . S
O18 C2 1.261 . S
O19 Tb1 2.303 . S
O19 C2 1.257 . S
C20 O10 1.236 . S
C20 O11 1.248 1_655 S
O21 Tb0 2.415 1_655 S
O21 C9 1.239 . S
O22 Tb0 2.399 1_655 S
O22 C9 1.263 . S
C23 O12 1.261 . S
C23 O13 1.257 . S
C24 C27 1.358 . S
C24 C28 1.332 . S
C24 C30 1.504 . S
C25 C26 1.373 . S
C25 C29 1.308 . S
C26 C25 1.373 . S
C26 C27 1.429 . S
C26 H36 0.932 . S
C27 C24 1.358 . S
C27 C26 1.429 . S
C27 H37 0.930 . S
C28 C24 1.332 . S
C28 C29 1.394 . S
C28 H38 0.932 . S
C29 C25 1.308 . S
C29 C28 1.394 . S
C29 H39 0.929 . S
C30 Tb1 2.764 . S
C30 O14 1.239 . S
C30 O15 1.263 . S
C30 C24 1.504 . S
C31 O16 1.236 . S
C31 O17 1.257 . S
H32 C5 0.932 . S
H33 C6 0.930 . S
H34 C7 0.932 . S
H35 C8 0.929 . S
H36 C26 0.932 . S
H37 C27 0.930 . S
H38 C28 0.932 . S
H39 C29 0.929 . S
Tb40 C49 2.752 1_545 S
Tb40 O50 2.308 1_545 S
Tb40 O53 2.303 . S
Tb40 O57 2.340 . S
Tb40 O58 2.350 . S
Tb40 O61 2.403 1_545 S
Tb40 O62 2.389 1_545 S
Tb41 O51 2.322 1_545 S
Tb41 O52 2.349 . S
Tb41 O54 2.415 . S
Tb41 O55 2.399 . S
Tb41 O56 2.325 . S
Tb41 O59 2.303 . S
Tb41 C70 2.764 . S
C42 O58 1.261 . S
C42 O59 1.257 . S
C43 C46 1.358 . S
C43 C47 1.332 . S
C43 C49 1.504 . S
C44 C45 1.373 . S
C44 C48 1.308 . S
C45 C44 1.373 . S
C45 C46 1.429 . S
C45 H72 0.932 . S
C46 C43 1.358 . S
C46 C45 1.429 . S
C46 H73 0.930 . S
C47 C43 1.332 . S
C47 C48 1.394 . S
C47 H74 0.932 . S
C48 C44 1.308 . S
C48 C47 1.394 . S
C48 H75 0.929 . S
C49 Tb40 2.752 1_565 S
C49 C43 1.504 . S
C49 O61 1.239 . S
C49 O62 1.263 . S
O50 Tb40 2.308 1_565 S
O50 C60 1.236 . S
O51 Tb41 2.322 1_565 S
O51 C60 1.257 . S
O52 Tb41 2.349 . S
O52 C63 1.261 . S
O53 Tb40 2.303 . S
O53 C63 1.257 . S
O54 Tb41 2.415 . S
O54 C70 1.239 . S
O55 Tb41 2.399 . S
O55 C70 1.263 . S
O56 Tb41 2.325 . S
O56 C71 1.236 . S
O57 Tb40 2.340 . S
O57 C71 1.257 . S
O58 Tb40 2.350 . S
O58 C42 1.261 . S
O59 Tb41 2.303 . S
O59 C42 1.257 . S
C60 O50 1.236 . S
C60 O51 1.257 . S
O61 Tb40 2.403 1_565 S
O61 C49 1.239 . S
O62 Tb40 2.389 1_565 S
O62 C49 1.263 . S
C63 O52 1.261 . S
C63 O53 1.257 . S
C64 C67 1.358 . S
C64 C68 1.332 . S
C64 C70 1.504 . S
C65 C66 1.373 . S
C65 C69 1.308 . S
C66 C65 1.373 . S
C66 C67 1.429 . S
C66 H76 0.932 . S
C67 C64 1.358 . S
C67 C66 1.429 . S
C67 H77 0.930 . S
C68 C64 1.332 . S
C68 C69 1.394 . S
C68 H78 0.932 . S
C69 C65 1.308 . S
C69 C68 1.394 . S
C69 H79 0.929 . S
C70 Tb41 2.764 . S
C70 O54 1.239 . S
C70 O55 1.263 . S
C70 C64 1.504 . S
C71 O56 1.236 . S
C71 O57 1.257 . S
H72 C45 0.932 . S
H73 C46 0.930 . S
H74 C47 0.932 . S
H75 C48 0.929 . S
H76 C66 0.932 . S
H77 C67 0.930 . S
H78 C68 0.932 . S
H79 C69 0.929 . S
Tb80 C89 2.764 . S
Tb80 O90 2.325 . S
Tb80 O93 2.303 . S
Tb80 O97 2.322 . S
Tb80 O98 2.349 . S
Tb80 O101 2.415 . S
Tb80 O102 2.399 . S
Tb81 O91 2.322 . S
Tb81 O92 2.349 . S
Tb81 O94 2.415 . S
Tb81 O95 2.399 . S
Tb81 O96 2.325 . S
Tb81 O99 2.303 . S
Tb81 C110 2.764 . S
C82 O98 1.261 . S
C82 O99 1.257 . S
C83 C86 1.358 . S
C83 C87 1.332 . S
C83 C89 1.504 . S
C84 C85 1.373 . S
C84 C88 1.308 . S
C85 C84 1.373 . S
C85 C86 1.429 . S
C85 H112 0.932 . S
C86 C83 1.358 . S
C86 C85 1.429 . S
C86 H113 0.930 . S
C87 C83 1.332 . S
C87 C88 1.394 . S
C87 H114 0.932 . S
C88 C84 1.308 . S
C88 C87 1.394 . S
C88 H115 0.929 . S
C89 Tb80 2.764 . S
C89 C83 1.504 . S
C89 O101 1.239 . S
C89 O102 1.263 . S
O90 Tb80 2.325 . S
O90 C100 1.236 . S
O91 Tb81 2.322 . S
O91 C100 1.257 . S
O92 Tb81 2.349 . S
O92 C103 1.261 . S
O93 Tb80 2.303 . S
O93 C103 1.257 . S
O94 Tb81 2.415 . S
O94 C110 1.239 . S
O95 Tb81 2.399 . S
O95 C110 1.263 . S
O96 Tb81 2.325 . S
O96 C111 1.236 . S
O97 Tb80 2.322 . S
O97 C111 1.257 . S
O98 Tb80 2.349 . S
O98 C82 1.261 . S
O99 Tb81 2.303 . S
O99 C82 1.257 . S
C100 O90 1.236 . S
C100 O91 1.257 . S
O101 Tb80 2.415 . S
O101 C89 1.239 . S
O102 Tb80 2.399 . S
O102 C89 1.263 . S
C103 O92 1.261 . S
C103 O93 1.257 . S
C104 C107 1.358 . S
C104 C108 1.332 . S
C104 C110 1.504 . S
C105 C106 1.373 . S
C105 C109 1.308 . S
C106 C105 1.373 . S
C106 C107 1.429 . S
C106 H116 0.932 . S
C107 C104 1.358 . S
C107 C106 1.429 . S
C107 H117 0.930 . S
C108 C104 1.332 . S
C108 C109 1.394 . S
C108 H118 0.932 . S
C109 C105 1.308 . S
C109 C108 1.394 . S
C109 H119 0.929 . S
C110 Tb81 2.764 . S
C110 O94 1.239 . S
C110 O95 1.263 . S
C110 C104 1.504 . S
C111 O96 1.236 . S
C111 O97 1.257 . S
H112 C85 0.932 . S
H113 C86 0.930 . S
H114 C87 0.932 . S
H115 C88 0.929 . S
H116 C106 0.932 . S
H117 C107 0.930 . S
H118 C108 0.932 . S
H119 C109 0.929 . S
C120 C121 1.264 . S
C120 C125 1.479 . S
C120 C130 1.465 . S
C121 C120 1.264 . S
C121 C123 1.339 . S
C121 H148 0.931 . S
C122 C123 1.395 . S
C122 C124 1.320 . S
C123 C121 1.339 . S
C123 C122 1.395 . S
C123 H149 0.929 . S
C124 C122 1.320 . S
C124 C125 1.405 . S
C124 H150 0.930 . S
C125 C120 1.479 . S
C125 C124 1.405 . S
C125 H151 0.931 . S
U126 O127 2.454 1_545 S
U126 O128 2.458 1_545 S
U126 C129 2.984 1_545 S
U126 C130 2.847 . S
U126 C143 2.882 . S
U126 O144 2.441 . S
U126 O145 2.420 . S
U126 O146 2.455 . S
U126 O147 2.449 . S
O127 U126 2.454 1_565 S
O127 C129 1.353 . S
O128 U126 2.458 1_565 S
O128 C129 1.286 . S
C129 U126 2.984 1_565 S
C129 O127 1.353 . S
C129 O128 1.286 . S
C129 C131 1.363 . S
C130 C120 1.465 . S
C130 U126 2.847 . S
C130 O144 1.249 . S
C130 O145 1.202 . S
C131 C129 1.363 . S
C131 C133 1.408 . S
C131 C136 1.342 . S
C132 C133 1.310 . S
C132 C135 1.461 . S
C132 H152 0.932 . S
C133 C131 1.408 . S
C133 C132 1.310 . S
C133 H153 0.930 . S
C134 C135 1.474 . S
C134 C136 1.285 . S
C134 H154 0.929 . S
C135 C132 1.461 . S
C135 C134 1.474 . S
C136 C131 1.342 . S
C136 C134 1.285 . S
C136 H155 0.930 . S
C137 C140 1.424 . S
C137 C142 1.245 . S
C137 C143 1.428 . S
C138 C141 1.260 . S
C138 C142 1.477 . S
C138 H156 0.932 . S
C139 C140 1.384 . S
C139 C141 1.479 . S
C139 H157 0.929 . S
C140 C137 1.424 . S
C140 C139 1.384 . S
C140 H158 0.928 . S
C141 C138 1.260 . S
C141 C139 1.479 . S
C142 C137 1.245 . S
C142 C138 1.477 . S
C142 H159 0.932 1_545 S
C143 U126 2.882 . S
C143 C137 1.428 . S
C143 O146 1.301 . S
C143 O147 1.282 . S
O144 U126 2.441 . S
O144 C130 1.249 . S
O145 U126 2.420 . S
O145 C130 1.202 . S
O146 U126 2.455 . S
O146 C143 1.301 . S
O147 U126 2.449 . S
O147 C143 1.282 . S
H148 C121 0.931 . S
H149 C123 0.929 . S
H150 C124 0.930 . S
H151 C125 0.931 . S
H152 C132 0.932 . S
H153 C133 0.930 . S
H154 C134 0.929 . S
H155 C136 0.930 . S
H156 C138 0.932 . S
H157 C139 0.929 . S
H158 C140 0.928 . S
H159 C142 0.932 1_565 S
C160 C161 1.264 . S
C160 C165 1.479 . S
C160 C170 1.465 . S
C161 C160 1.264 . S
C161 C163 1.339 . S
C161 H188 0.931 . S
C162 C163 1.395 . S
C162 C164 1.320 . S
C163 C161 1.339 . S
C163 C162 1.395 . S
C163 H189 0.929 . S
C164 C162 1.320 . S
C164 C165 1.405 . S
C164 H190 0.930 . S
C165 C160 1.479 . S
C165 C164 1.405 . S
C165 H191 0.931 . S
U166 O167 2.454 . S
U166 O168 2.458 . S
U166 C169 2.984 . S
U166 C170 2.847 . S
U166 C183 2.882 . S
U166 O184 2.441 . S
U166 O185 2.420 . S
U166 O186 2.455 . S
U166 O187 2.449 . S
O167 U166 2.454 . S
O167 C169 1.353 . S
O168 U166 2.458 . S
O168 C169 1.286 . S
C169 U166 2.984 . S
C169 O167 1.353 . S
C169 O168 1.286 . S
C169 C171 1.363 . S
C170 C160 1.465 . S
C170 U166 2.847 . S
C170 O184 1.249 . S
C170 O185 1.202 . S
C171 C169 1.363 . S
C171 C173 1.408 . S
C171 C176 1.342 . S
C172 C173 1.310 . S
C172 C175 1.461 . S
C172 H192 0.932 . S
C173 C171 1.408 . S
C173 C172 1.310 . S
C173 H193 0.930 . S
C174 C175 1.474 . S
C174 C176 1.285 . S
C174 H194 0.929 . S
C175 C172 1.461 . S
C175 C174 1.474 . S
C176 C171 1.342 . S
C176 C174 1.285 . S
C176 H195 0.930 . S
C177 C180 1.424 . S
C177 C182 1.245 . S
C177 C183 1.428 . S
C178 C181 1.260 . S
C178 C182 1.477 . S
C178 H196 0.932 . S
C179 C180 1.384 . S
C179 C181 1.479 . S
C179 H197 0.929 . S
C180 C177 1.424 . S
C180 C179 1.384 . S
C180 H198 0.928 . S
C181 C178 1.260 . S
C181 C179 1.479 . S
C182 C177 1.245 . S
C182 C178 1.477 . S
C182 H199 0.932 . S
C183 U166 2.882 . S
C183 C177 1.428 . S
C183 O186 1.301 . S
C183 O187 1.282 . S
O184 U166 2.441 . S
O184 C170 1.249 . S
O185 U166 2.420 . S
O185 C170 1.202 . S
O186 U166 2.455 . S
O186 C183 1.301 . S
O187 U166 2.449 . S
O187 C183 1.282 . S
H188 C161 0.931 . S
H189 C163 0.929 . S
H190 C164 0.930 . S
H191 C165 0.931 . S
H192 C172 0.932 . S
H193 C173 0.930 . S
H194 C174 0.929 . S
H195 C176 0.930 . S
H196 C178 0.932 . S
H197 C179 0.929 . S
H198 C180 0.928 . S
H199 C182 0.932 . S
C200 C201 1.264 . S
C200 C205 1.479 . S
C200 C210 1.465 . S
C201 C200 1.264 . S
C201 C203 1.339 . S
C201 H228 0.931 . S
C202 C203 1.395 . S
C202 C204 1.320 . S
C203 C201 1.339 . S
C203 C202 1.395 . S
C203 H229 0.929 . S
C204 C202 1.320 . S
C204 C205 1.405 . S
C204 H230 0.930 . S
C205 C200 1.479 . S
C205 C204 1.405 . S
C205 H231 0.931 . S
U206 O207 2.454 . S
U206 O208 2.458 . S
U206 C209 2.984 . S
U206 C210 2.847 1_455 S
U206 C223 2.882 . S
U206 O224 2.441 . S
U206 O225 2.420 1_455 S
U206 O226 2.455 . S
U206 O227 2.449 . S
O207 U206 2.454 . S
O207 C209 1.353 . S
O208 U206 2.458 . S
O208 C209 1.286 . S
C209 U206 2.984 . S
C209 O207 1.353 . S
C209 O208 1.286 . S
C209 C211 1.363 . S
C210 C200 1.465 . S
C210 U206 2.847 1_655 S
C210 O224 1.249 1_655 S
C210 O225 1.202 . S
C211 C209 1.363 . S
C211 C213 1.408 . S
C211 C216 1.342 . S
C212 C213 1.310 . S
C212 C215 1.461 . S
C212 H232 0.932 . S
C213 C211 1.408 . S
C213 C212 1.310 . S
C213 H233 0.930 . S
C214 C215 1.474 . S
C214 C216 1.285 . S
C214 H234 0.929 . S
C215 C212 1.461 . S
C215 C214 1.474 . S
C216 C211 1.342 . S
C216 C214 1.285 . S
C216 H235 0.930 . S
C217 C220 1.424 . S
C217 C222 1.245 . S
C217 C223 1.428 . S
C218 C221 1.260 . S
C218 C222 1.477 . S
C218 H236 0.932 . S
C219 C220 1.384 . S
C219 C221 1.479 . S
C219 H237 0.929 . S
C220 C217 1.424 . S
C220 C219 1.384 . S
C220 H238 0.928 . S
C221 C218 1.260 . S
C221 C219 1.479 . S
C222 C217 1.245 . S
C222 C218 1.477 . S
C222 H239 0.932 . S
C223 U206 2.882 . S
C223 C217 1.428 . S
C223 O226 1.301 . S
C223 O227 1.282 . S
O224 U206 2.441 . S
O224 C210 1.249 1_455 S
O225 U206 2.420 1_655 S
O225 C210 1.202 . S
O226 U206 2.455 . S
O226 C223 1.301 . S
O227 U206 2.449 . S
O227 C223 1.282 . S
H228 C201 0.931 . S
H229 C203 0.929 . S
H230 C204 0.930 . S
H231 C205 0.931 . S
H232 C212 0.932 . S
H233 C213 0.930 . S
H234 C214 0.929 . S
H235 C216 0.930 . S
H236 C218 0.932 . S
H237 C219 0.929 . S
H238 C220 0.928 . S
H239 C222 0.932 . S
C240 C241 1.264 . S
C240 C245 1.479 . S
C240 C250 1.465 . S
C241 C240 1.264 . S
C241 C243 1.339 . S
C241 H268 0.931 . S
C242 C243 1.395 . S
C242 C244 1.320 . S
C243 C241 1.339 . S
C243 C242 1.395 . S
C243 H269 0.929 . S
C244 C242 1.320 . S
C244 C245 1.405 . S
C244 H270 0.930 . S
C245 C240 1.479 . S
C245 C244 1.405 . S
C245 H271 0.931 . S
U246 O247 2.454 1_655 S
U246 O248 2.458 1_655 S
U246 C249 2.984 1_655 S
U246 C250 2.847 . S
U246 C263 2.882 . S
U246 O264 2.441 . S
U246 O265 2.420 . S
U246 O266 2.455 1_655 S
U246 O267 2.449 . S
O247 U246 2.454 1_455 S
O247 C249 1.353 . S
O248 U246 2.458 1_455 S
O248 C249 1.286 . S
C249 U246 2.984 1_455 S
C249 O247 1.353 . S
C249 O248 1.286 . S
C249 C251 1.363 . S
C250 C240 1.465 . S
C250 U246 2.847 . S
C250 O264 1.249 . S
C250 O265 1.202 . S
C251 C249 1.363 . S
C251 C253 1.408 . S
C251 C256 1.342 . S
C252 C253 1.310 . S
C252 C255 1.461 . S
C252 H272 0.932 . S
C253 C251 1.408 . S
C253 C252 1.310 . S
C253 H273 0.930 . S
C254 C255 1.474 . S
C254 C256 1.285 . S
C254 H274 0.929 . S
C255 C252 1.461 . S
C255 C254 1.474 . S
C256 C251 1.342 . S
C256 C254 1.285 . S
C256 H275 0.930 . S
C257 C260 1.424 . S
C257 C262 1.245 1_655 S
C257 C263 1.428 . S
C258 C261 1.260 1_455 S
C258 C262 1.477 . S
C258 H276 0.932 . S
C259 C260 1.384 . S
C259 C261 1.479 . S
C259 H277 0.929 . S
C260 C257 1.424 . S
C260 C259 1.384 . S
C260 H278 0.928 . S
C261 C258 1.260 1_655 S
C261 C259 1.479 . S
C262 C257 1.245 1_455 S
C262 C258 1.477 . S
C262 H279 0.932 . S
C263 U246 2.882 . S
C263 C257 1.428 . S
C263 O266 1.301 1_655 S
C263 O267 1.282 . S
O264 U246 2.441 . S
O264 C250 1.249 . S
O265 U246 2.420 . S
O265 C250 1.202 . S
O266 U246 2.455 1_455 S
O266 C263 1.301 1_455 S
O267 U246 2.449 . S
O267 C263 1.282 . S
H268 C241 0.931 . S
H269 C243 0.929 . S
H270 C244 0.930 . S
H271 C245 0.931 . S
H272 C252 0.932 . S
H273 C253 0.930 . S
H274 C254 0.929 . S
H275 C256 0.930 . S
H276 C258 0.932 . S
H277 C259 0.929 . S
H278 C260 0.928 . S
H279 C262 0.932 . S
C280 C281 1.264 . S
C280 C285 1.479 . S
C280 C290 1.465 . S
C281 C280 1.264 . S
C281 C283 1.339 . S
C281 H308 0.931 . S
C282 C283 1.395 . S
C282 C284 1.320 . S
C283 C281 1.339 . S
C283 C282 1.395 . S
C283 H309 0.929 . S
C284 C282 1.320 . S
C284 C285 1.405 . S
C284 H310 0.930 . S
C285 C280 1.479 . S
C285 C284 1.405 . S
C285 H311 0.931 . S
U286 O287 2.454 1_565 S
U286 O288 2.458 1_565 S
U286 C289 2.984 1_565 S
U286 C290 2.847 . S
U286 C303 2.882 . S
U286 O304 2.441 . S
U286 O305 2.420 . S
U286 O306 2.455 1_565 S
U286 O307 2.449 . S
O287 U286 2.454 1_545 S
O287 C289 1.353 . S
O288 U286 2.458 1_545 S
O288 C289 1.286 . S
C289 U286 2.984 1_545 S
C289 O287 1.353 . S
C289 O288 1.286 . S
C289 C291 1.363 . S
C290 C280 1.465 . S
C290 U286 2.847 . S
C290 O304 1.249 . S
C290 O305 1.202 . S
C291 C289 1.363 . S
C291 C293 1.408 . S
C291 C296 1.342 . S
C292 C293 1.310 . S
C292 C295 1.461 . S
C292 H312 0.932 . S
C293 C291 1.408 . S
C293 C292 1.310 . S
C293 H313 0.930 . S
C294 C295 1.474 . S
C294 C296 1.285 . S
C294 H314 0.929 . S
C295 C292 1.461 . S
C295 C294 1.474 . S
C296 C291 1.342 . S
C296 C294 1.285 . S
C296 H315 0.930 . S
C297 C300 1.424 . S
C297 C302 1.245 1_565 S
C297 C303 1.428 . S
C298 C301 1.260 1_545 S
C298 C302 1.477 . S
C298 H316 0.932 . S
C299 C300 1.384 . S
C299 C301 1.479 . S
C299 H317 0.929 . S
C300 C297 1.424 . S
C300 C299 1.384 . S
C300 H318 0.928 . S
C301 C298 1.260 1_565 S
C301 C299 1.479 . S
C302 C297 1.245 1_545 S
C302 C298 1.477 . S
C302 H319 0.932 . S
C303 U286 2.882 . S
C303 C297 1.428 . S
C303 O306 1.301 1_565 S
C303 O307 1.282 . S
O304 U286 2.441 . S
O304 C290 1.249 . S
O305 U286 2.420 . S
O305 C290 1.202 . S
O306 U286 2.455 1_545 S
O306 C303 1.301 1_545 S
O307 U286 2.449 . S
O307 C303 1.282 . S
H308 C281 0.931 . S
H309 C283 0.929 . S
H310 C284 0.930 . S
H311 C285 0.931 . S
H312 C292 0.932 . S
H313 C293 0.930 . S
H314 C294 0.929 . S
H315 C296 0.930 . S
H316 C298 0.932 . S
H317 C299 0.929 . S
H318 C300 0.928 . S
H319 C302 0.932 . S
C320 C321 1.264 . S
C320 C325 1.479 . S
C320 C330 1.465 . S
C321 C320 1.264 . S
C321 C323 1.339 . S
C321 H348 0.931 . S
C322 C323 1.395 . S
C322 C324 1.320 . S
C323 C321 1.339 . S
C323 C322 1.395 . S
C323 H349 0.929 . S
C324 C322 1.320 . S
C324 C325 1.405 . S
C324 H350 0.930 . S
C325 C320 1.479 . S
C325 C324 1.405 . S
C325 H351 0.931 . S
U326 O327 2.454 . S
U326 O328 2.458 . S
U326 C329 2.984 . S
U326 C330 2.847 . S
U326 C343 2.882 . S
U326 O344 2.441 . S
U326 O345 2.420 . S
U326 O346 2.455 . S
U326 O347 2.449 . S
O327 U326 2.454 . S
O327 C329 1.353 . S
O328 U326 2.458 . S
O328 C329 1.286 . S
C329 U326 2.984 . S
C329 O327 1.353 . S
C329 O328 1.286 . S
C329 C331 1.363 . S
C330 C320 1.465 . S
C330 U326 2.847 . S
C330 O344 1.249 . S
C330 O345 1.202 . S
C331 C329 1.363 . S
C331 C333 1.408 . S
C331 C336 1.342 . S
C332 C333 1.310 . S
C332 C335 1.461 . S
C332 H352 0.932 . S
C333 C331 1.408 . S
C333 C332 1.310 . S
C333 H353 0.930 . S
C334 C335 1.474 . S
C334 C336 1.285 . S
C334 H354 0.929 . S
C335 C332 1.461 . S
C335 C334 1.474 . S
C336 C331 1.342 . S
C336 C334 1.285 . S
C336 H355 0.930 . S
C337 C340 1.424 . S
C337 C342 1.245 . S
C337 C343 1.428 . S
C338 C341 1.260 1_554 S
C338 C342 1.477 . S
C338 H356 0.932 1_554 S
C339 C340 1.384 . S
C339 C341 1.479 1_554 S
C339 H357 0.929 . S
C340 C337 1.424 . S
C340 C339 1.384 . S
C340 H358 0.928 . S
C341 C338 1.260 1_556 S
C341 C339 1.479 1_556 S
C342 C337 1.245 . S
C342 C338 1.477 . S
C342 H359 0.932 . S
C343 U326 2.882 . S
C343 C337 1.428 . S
C343 O346 1.301 . S
C343 O347 1.282 . S
O344 U326 2.441 . S
O344 C330 1.249 . S
O345 U326 2.420 . S
O345 C330 1.202 . S
O346 U326 2.455 . S
O346 C343 1.301 . S
O347 U326 2.449 . S
O347 C343 1.282 . S
H348 C321 0.931 . S
H349 C323 0.929 . S
H350 C324 0.930 . S
H351 C325 0.931 . S
H352 C332 0.932 . S
H353 C333 0.930 . S
H354 C334 0.929 . S
H355 C336 0.930 . S
H356 C338 0.932 1_556 S
H357 C339 0.929 . S
H358 C340 0.928 . S
H359 C342 0.932 . S
C360 C361 1.391 . S
C360 C362 1.394 . S
C360 H376 0.931 . S
C361 C360 1.391 . S
C361 C365 1.376 . S
C362 C360 1.394 . S
C362 C363 1.369 . S
C362 C366 1.531 . S
C363 C362 1.369 . S
C363 C364 1.410 . S
C363 C371 1.503 . S
C364 C363 1.410 . S
C364 C365 1.392 . S
C364 C367 1.511 . S
C365 C361 1.376 . S
C365 C364 1.392 . S
C365 H377 0.929 . S
C366 C362 1.531 . S
C366 H378 0.960 . S
C366 H379 0.962 . S
C366 H380 0.960 . S
C367 C364 1.511 . S
C367 H381 0.961 . S
C367 H382 0.961 . S
C367 H383 0.961 . S
C368 C369 1.370 . S
C368 C370 1.363 . S
C368 H384 0.931 . S
C369 C368 1.370 . S
C369 C373 1.408 . S
C370 C368 1.363 . S
C370 C371 1.370 . S
C370 C374 1.524 . S
C371 C363 1.503 . S
C371 C370 1.370 . S
C371 C372 1.403 . S
C372 C371 1.403 . S
C372 C373 1.404 . S
C372 C375 1.539 . S
C373 C369 1.408 . S
C373 C372 1.404 . S
C373 H385 0.930 . S
C374 C370 1.524 . S
C374 H386 0.956 . S
C374 H387 0.961 . S
C374 H388 0.961 . S
C375 C372 1.539 . S
C375 H389 0.958 . S
C375 H390 0.961 . S
C375 H391 0.960 . S
H376 C360 0.931 . S
H377 C365 0.929 . S
H378 C366 0.960 . S
H379 C366 0.962 . S
H380 C366 0.960 . S
H381 C367 0.961 . S
H382 C367 0.961 . S
H383 C367 0.961 . S
H384 C368 0.931 . S
H385 C373 0.930 . S
H386 C374 0.956 . S
H387 C374 0.961 . S
H388 C374 0.961 . S
H389 C375 0.958 . S
H390 C375 0.961 . S
H391 C375 0.960 . S
C392 C393 1.391 . S
C392 C394 1.394 . S
C392 H408 0.931 . S
C393 C392 1.391 . S
C393 C397 1.376 . S
C394 C392 1.394 . S
C394 C395 1.369 . S
C394 C398 1.531 . S
C395 C394 1.369 . S
C395 C396 1.410 . S
C395 C403 1.503 . S
C396 C395 1.410 . S
C396 C397 1.392 . S
C396 C399 1.511 . S
C397 C393 1.376 . S
C397 C396 1.392 . S
C397 H409 0.929 . S
C398 C394 1.531 . S
C398 H410 0.960 . S
C398 H411 0.962 . S
C398 H412 0.960 . S
C399 C396 1.511 . S
C399 H413 0.961 . S
C399 H414 0.961 . S
C399 H415 0.961 . S
C400 C401 1.370 . S
C400 C402 1.363 . S
C400 H416 0.931 . S
C401 C400 1.370 . S
C401 C405 1.408 . S
C402 C400 1.363 . S
C402 C403 1.370 . S
C402 C406 1.524 . S
C403 C395 1.503 . S
C403 C402 1.370 . S
C403 C404 1.403 . S
C404 C403 1.403 . S
C404 C405 1.404 . S
C404 C407 1.539 . S
C405 C401 1.408 . S
C405 C404 1.404 . S
C405 H417 0.930 . S
C406 C402 1.524 . S
C406 H418 0.956 . S
C406 H419 0.961 . S
C406 H420 0.961 . S
C407 C404 1.539 . S
C407 H421 0.958 . S
C407 H422 0.961 . S
C407 H423 0.960 . S
H408 C392 0.931 . S
H409 C397 0.929 . S
H410 C398 0.960 . S
H411 C398 0.962 . S
H412 C398 0.960 . S
H413 C399 0.961 . S
H414 C399 0.961 . S
H415 C399 0.961 . S
H416 C400 0.931 . S
H417 C405 0.930 . S
H418 C406 0.956 . S
H419 C406 0.961 . S
H420 C406 0.961 . S
H421 C407 0.958 . S
H422 C407 0.961 . S
H423 C407 0.960 . S
C424 C425 1.391 . S
C424 C426 1.394 . S
C424 H440 0.931 . S
C425 C424 1.391 . S
C425 C429 1.376 . S
C426 C424 1.394 . S
C426 C427 1.369 . S
C426 C430 1.531 . S
C427 C426 1.369 . S
C427 C428 1.410 . S
C427 C435 1.503 . S
C428 C427 1.410 . S
C428 C429 1.392 . S
C428 C431 1.511 . S
C429 C425 1.376 . S
C429 C428 1.392 . S
C429 H441 0.929 . S
C430 C426 1.531 . S
C430 H442 0.960 . S
C430 H443 0.962 . S
C430 H444 0.960 . S
C431 C428 1.511 . S
C431 H445 0.961 . S
C431 H446 0.961 . S
C431 H447 0.961 . S
C432 C433 1.370 . S
C432 C434 1.363 . S
C432 H448 0.931 . S
C433 C432 1.370 . S
C433 C437 1.408 . S
C434 C432 1.363 . S
C434 C435 1.370 . S
C434 C438 1.524 . S
C435 C427 1.503 . S
C435 C434 1.370 . S
C435 C436 1.403 . S
C436 C435 1.403 . S
C436 C437 1.404 . S
C436 C439 1.539 . S
C437 C433 1.408 . S
C437 C436 1.404 . S
C437 H449 0.930 . S
C438 C434 1.524 . S
C438 H450 0.956 . S
C438 H451 0.961 . S
C438 H452 0.961 . S
C439 C436 1.539 . S
C439 H453 0.958 . S
C439 H454 0.961 . S
C439 H455 0.960 . S
H440 C424 0.931 . S
H441 C429 0.929 . S
H442 C430 0.960 . S
H443 C430 0.962 . S
H444 C430 0.960 . S
H445 C431 0.961 . S
H446 C431 0.961 . S
H447 C431 0.961 . S
H448 C432 0.931 . S
H449 C437 0.930 . S
H450 C438 0.956 . S
H451 C438 0.961 . S
H452 C438 0.961 . S
H453 C439 0.958 . S
H454 C439 0.961 . S
H455 C439 0.960 . S
C456 C457 1.391 . S
C456 C458 1.394 . S
C456 H472 0.931 . S
C457 C456 1.391 . S
C457 C461 1.376 . S
C458 C456 1.394 . S
C458 C459 1.369 . S
C458 C462 1.531 . S
C459 C458 1.369 . S
C459 C460 1.410 . S
C459 C467 1.503 . S
C460 C459 1.410 . S
C460 C461 1.392 . S
C460 C463 1.511 . S
C461 C457 1.376 . S
C461 C460 1.392 . S
C461 H473 0.929 . S
C462 C458 1.531 . S
C462 H474 0.960 . S
C462 H475 0.962 . S
C462 H476 0.960 . S
C463 C460 1.511 . S
C463 H477 0.961 . S
C463 H478 0.961 . S
C463 H479 0.961 . S
C464 C465 1.370 . S
C464 C466 1.363 . S
C464 H480 0.931 . S
C465 C464 1.370 . S
C465 C469 1.408 . S
C466 C464 1.363 . S
C466 C467 1.370 . S
C466 C470 1.524 . S
C467 C459 1.503 . S
C467 C466 1.370 . S
C467 C468 1.403 . S
C468 C467 1.403 . S
C468 C469 1.404 . S
C468 C471 1.539 . S
C469 C465 1.408 . S
C469 C468 1.404 . S
C469 H481 0.930 . S
C470 C466 1.524 . S
C470 H482 0.956 . S
C470 H483 0.961 . S
C470 H484 0.961 . S
C471 C468 1.539 . S
C471 H485 0.958 . S
C471 H486 0.961 . S
C471 H487 0.960 . S
H472 C456 0.931 . S
H473 C461 0.929 . S
H474 C462 0.960 . S
H475 C462 0.962 . S
H476 C462 0.960 . S
H477 C463 0.961 . S
H478 C463 0.961 . S
H479 C463 0.961 . S
H480 C464 0.931 . S
H481 C469 0.930 . S
H482 C470 0.956 . S
H483 C470 0.961 . S
H484 C470 0.961 . S
H485 C471 0.958 . S
H486 C471 0.961 . S
H487 C471 0.960 . S
C488 C489 1.391 . S
C488 C490 1.394 . S
C488 H504 0.931 . S
C489 C488 1.391 . S
C489 C493 1.376 . S
C490 C488 1.394 . S
C490 C491 1.369 . S
C490 C494 1.531 . S
C491 C490 1.369 . S
C491 C492 1.410 . S
C491 C499 1.503 . S
C492 C491 1.410 . S
C492 C493 1.392 . S
C492 C495 1.511 . S
C493 C489 1.376 . S
C493 C492 1.392 . S
C493 H505 0.929 . S
C494 C490 1.531 . S
C494 H506 0.960 . S
C494 H507 0.962 . S
C494 H508 0.960 . S
C495 C492 1.511 . S
C495 H509 0.961 . S
C495 H510 0.961 . S
C495 H511 0.961 . S
C496 C497 1.370 . S
C496 C498 1.363 . S
C496 H512 0.931 . S
C497 C496 1.370 . S
C497 C501 1.408 . S
C498 C496 1.363 . S
C498 C499 1.370 . S
C498 C502 1.524 . S
C499 C491 1.503 . S
C499 C498 1.370 . S
C499 C500 1.403 . S
C500 C499 1.403 . S
C500 C501 1.404 . S
C500 C503 1.539 . S
C501 C497 1.408 . S
C501 C500 1.404 . S
C501 H513 0.930 . S
C502 C498 1.524 . S
C502 H514 0.956 . S
C502 H515 0.961 . S
C502 H516 0.961 . S
C503 C500 1.539 . S
C503 H517 0.958 . S
C503 H518 0.961 . S
C503 H519 0.960 . S
H504 C488 0.931 . S
H505 C493 0.929 . S
H506 C494 0.960 . S
H507 C494 0.962 . S
H508 C494 0.960 . S
H509 C495 0.961 . S
H510 C495 0.961 . S
H511 C495 0.961 . S
H512 C496 0.931 . S
H513 C501 0.930 . S
H514 C502 0.956 . S
H515 C502 0.961 . S
H516 C502 0.961 . S
H517 C503 0.958 . S
H518 C503 0.961 . S
H519 C503 0.960 . S
C520 C521 1.391 . S
C520 C522 1.394 . S
C520 H536 0.931 . S
C521 C520 1.391 . S
C521 C525 1.376 . S
C522 C520 1.394 . S
C522 C523 1.369 . S
C522 C526 1.531 . S
C523 C522 1.369 . S
C523 C524 1.410 . S
C523 C531 1.503 . S
C524 C523 1.410 . S
C524 C525 1.392 . S
C524 C527 1.511 . S
C525 C521 1.376 . S
C525 C524 1.392 . S
C525 H537 0.929 . S
C526 C522 1.531 . S
C526 H538 0.960 . S
C526 H539 0.962 . S
C526 H540 0.960 . S
C527 C524 1.511 . S
C527 H541 0.961 . S
C527 H542 0.961 . S
C527 H543 0.961 . S
C528 C529 1.370 . S
C528 C530 1.363 . S
C528 H544 0.931 . S
C529 C528 1.370 . S
C529 C533 1.408 . S
C530 C528 1.363 . S
C530 C531 1.370 . S
C530 C534 1.524 . S
C531 C523 1.503 . S
C531 C530 1.370 . S
C531 C532 1.403 . S
C532 C531 1.403 . S
C532 C533 1.404 . S
C532 C535 1.539 . S
C533 C529 1.408 . S
C533 C532 1.404 . S
C533 H545 0.930 . S
C534 C530 1.524 . S
C534 H546 0.956 . S
C534 H547 0.961 . S
C534 H548 0.961 . S
C535 C532 1.539 . S
C535 H549 0.958 . S
C535 H550 0.961 . S
C535 H551 0.960 . S
H536 C520 0.931 . S
H537 C525 0.929 . S
H538 C526 0.960 . S
H539 C526 0.962 . S
H540 C526 0.960 . S
H541 C527 0.961 . S
H542 C527 0.961 . S
H543 C527 0.961 . S
H544 C528 0.931 . S
H545 C533 0.930 . S
H546 C534 0.956 . S
H547 C534 0.961 . S
H548 C534 0.961 . S
H549 C535 0.958 . S
H550 C535 0.961 . S
H551 C535 0.960 . S
C552 C553 1.391 . S
C552 C554 1.394 . S
C552 H568 0.931 . S
C553 C552 1.391 . S
C553 C557 1.376 . S
C554 C552 1.394 . S
C554 C555 1.369 . S
C554 C558 1.531 . S
C555 C554 1.369 . S
C555 C556 1.410 . S
C555 C563 1.503 . S
C556 C555 1.410 . S
C556 C557 1.392 . S
C556 C559 1.511 . S
C557 C553 1.376 . S
C557 C556 1.392 . S
C557 H569 0.929 . S
C558 C554 1.531 . S
C558 H570 0.960 . S
C558 H571 0.962 . S
C558 H572 0.960 . S
C559 C556 1.511 . S
C559 H573 0.961 . S
C559 H574 0.961 . S
C559 H575 0.961 . S
C560 C561 1.370 . S
C560 C562 1.363 . S
C560 H576 0.931 . S
C561 C560 1.370 . S
C561 C565 1.408 . S
C562 C560 1.363 . S
C562 C563 1.370 . S
C562 C566 1.524 . S
C563 C555 1.503 . S
C563 C562 1.370 . S
C563 C564 1.403 . S
C564 C563 1.403 . S
C564 C565 1.404 . S
C564 C567 1.539 . S
C565 C561 1.408 . S
C565 C564 1.404 . S
C565 H577 0.930 . S
C566 C562 1.524 . S
C566 H578 0.956 . S
C566 H579 0.961 . S
C566 H580 0.961 . S
C567 C564 1.539 . S
C567 H581 0.958 . S
C567 H582 0.961 . S
C567 H583 0.960 . S
H568 C552 0.931 . S
H569 C557 0.929 . S
H570 C558 0.960 . S
H571 C558 0.962 . S
H572 C558 0.960 . S
H573 C559 0.961 . S
H574 C559 0.961 . S
H575 C559 0.961 . S
H576 C560 0.931 . S
H577 C565 0.930 . S
H578 C566 0.956 . S
H579 C566 0.961 . S
H580 C566 0.961 . S
H581 C567 0.958 . S
H582 C567 0.961 . S
H583 C567 0.960 . S
C584 C585 1.391 . S
C584 C586 1.394 . S
C584 H600 0.931 . S
C585 C584 1.391 . S
C585 C589 1.376 . S
C586 C584 1.394 . S
C586 C587 1.369 . S
C586 C590 1.531 . S
C587 C586 1.369 . S
C587 C588 1.410 . S
C587 C595 1.503 . S
C588 C587 1.410 . S
C588 C589 1.392 . S
C588 C591 1.511 . S
C589 C585 1.376 . S
C589 C588 1.392 . S
C589 H601 0.929 . S
C590 C586 1.531 . S
C590 H602 0.960 . S
C590 H603 0.962 . S
C590 H604 0.960 . S
C591 C588 1.511 . S
C591 H605 0.961 . S
C591 H606 0.961 . S
C591 H607 0.961 . S
C592 C593 1.370 . S
C592 C594 1.363 . S
C592 H608 0.931 . S
C593 C592 1.370 . S
C593 C597 1.408 . S
C594 C592 1.363 . S
C594 C595 1.370 . S
C594 C598 1.524 . S
C595 C587 1.503 . S
C595 C594 1.370 . S
C595 C596 1.403 . S
C596 C595 1.403 . S
C596 C597 1.404 . S
C596 C599 1.539 . S
C597 C593 1.408 . S
C597 C596 1.404 . S
C597 H609 0.930 . S
C598 C594 1.524 . S
C598 H610 0.956 . S
C598 H611 0.961 . S
C598 H612 0.961 . S
C599 C596 1.539 . S
C599 H613 0.958 . S
C599 H614 0.961 . S
C599 H615 0.960 . S
H600 C584 0.931 . S
H601 C589 0.929 . S
H602 C590 0.960 . S
H603 C590 0.962 . S
H604 C590 0.960 . S
H605 C591 0.961 . S
H606 C591 0.961 . S
H607 C591 0.961 . S
H608 C592 0.931 . S
H609 C597 0.930 . S
H610 C598 0.956 . S
H611 C598 0.961 . S
H612 C598 0.961 . S
H613 C599 0.958 . S
H614 C599 0.961 . S
H615 C599 0.960 . S
C616 C617 1.391 . S
C616 C618 1.394 . S
C616 H632 0.931 . S
C617 C616 1.391 . S
C617 C621 1.376 . S
C618 C616 1.394 . S
C618 C619 1.369 . S
C618 C622 1.531 . S
C619 C618 1.369 . S
C619 C620 1.410 . S
C619 C627 1.503 . S
C620 C619 1.410 . S
C620 C621 1.392 . S
C620 C623 1.511 . S
C621 C617 1.376 . S
C621 C620 1.392 . S
C621 H633 0.929 . S
C622 C618 1.531 . S
C622 H634 0.960 . S
C622 H635 0.962 . S
C622 H636 0.960 . S
C623 C620 1.511 . S
C623 H637 0.961 . S
C623 H638 0.961 . S
C623 H639 0.961 . S
C624 C625 1.370 . S
C624 C626 1.363 . S
C624 H640 0.931 . S
C625 C624 1.370 . S
C625 C629 1.408 . S
C626 C624 1.363 . S
C626 C627 1.370 . S
C626 C630 1.524 . S
C627 C619 1.503 . S
C627 C626 1.370 . S
C627 C628 1.403 . S
C628 C627 1.403 . S
C628 C629 1.404 . S
C628 C631 1.539 . S
C629 C625 1.408 . S
C629 C628 1.404 . S
C629 H641 0.930 . S
C630 C626 1.524 . S
C630 H642 0.956 . S
C630 H643 0.961 . S
C630 H644 0.961 . S
C631 C628 1.539 . S
C631 H645 0.958 . S
C631 H646 0.961 . S
C631 H647 0.960 . S
H632 C616 0.931 . S
H633 C621 0.929 . S
H634 C622 0.960 . S
H635 C622 0.962 . S
H636 C622 0.960 . S
H637 C623 0.961 . S
H638 C623 0.961 . S
H639 C623 0.961 . S
H640 C624 0.931 . S
H641 C629 0.930 . S
H642 C630 0.956 . S
H643 C630 0.961 . S
H644 C630 0.961 . S
H645 C631 0.958 . S
H646 C631 0.961 . S
H647 C631 0.960 . S
C648 C649 1.391 . S
C648 C650 1.394 . S
C648 H664 0.931 . S
C649 C648 1.391 . S
C649 C653 1.376 . S
C650 C648 1.394 . S
C650 C651 1.369 . S
C650 C654 1.531 . S
C651 C650 1.369 . S
C651 C652 1.410 . S
C651 C659 1.503 . S
C652 C651 1.410 . S
C652 C653 1.392 . S
C652 C655 1.511 . S
C653 C649 1.376 . S
C653 C652 1.392 . S
C653 H665 0.929 . S
C654 C650 1.531 . S
C654 H666 0.960 . S
C654 H667 0.962 . S
C654 H668 0.960 . S
C655 C652 1.511 . S
C655 H669 0.961 . S
C655 H670 0.961 . S
C655 H671 0.961 . S
C656 C657 1.370 . S
C656 C658 1.363 . S
C656 H672 0.931 . S
C657 C656 1.370 . S
C657 C661 1.408 . S
C658 C656 1.363 . S
C658 C659 1.370 . S
C658 C662 1.524 . S
C659 C651 1.503 . S
C659 C658 1.370 . S
C659 C660 1.403 . S
C660 C659 1.403 . S
C660 C661 1.404 . S
C660 C663 1.539 . S
C661 C657 1.408 . S
C661 C660 1.404 . S
C661 H673 0.930 . S
C662 C658 1.524 . S
C662 H674 0.956 . S
C662 H675 0.961 . S
C662 H676 0.961 . S
C663 C660 1.539 . S
C663 H677 0.958 . S
C663 H678 0.961 . S
C663 H679 0.960 . S
H664 C648 0.931 . S
H665 C653 0.929 . S
H666 C654 0.960 . S
H667 C654 0.962 . S
H668 C654 0.960 . S
H669 C655 0.961 . S
H670 C655 0.961 . S
H671 C655 0.961 . S
H672 C656 0.931 . S
H673 C661 0.930 . S
H674 C662 0.956 . S
H675 C662 0.961 . S
H676 C662 0.961 . S
H677 C663 0.958 . S
H678 C663 0.961 . S
H679 C663 0.960 . S
C680 C681 1.391 . S
C680 C682 1.394 . S
C680 H696 0.931 . S
C681 C680 1.391 . S
C681 C685 1.376 . S
C682 C680 1.394 . S
C682 C683 1.369 . S
C682 C686 1.531 . S
C683 C682 1.369 . S
C683 C684 1.410 . S
C683 C691 1.503 . S
C684 C683 1.410 . S
C684 C685 1.392 . S
C684 C687 1.511 . S
C685 C681 1.376 . S
C685 C684 1.392 . S
C685 H697 0.929 . S
C686 C682 1.531 . S
C686 H698 0.960 . S
C686 H699 0.962 . S
C686 H700 0.960 . S
C687 C684 1.511 . S
C687 H701 0.961 . S
C687 H702 0.961 . S
C687 H703 0.961 . S
C688 C689 1.370 . S
C688 C690 1.363 . S
C688 H704 0.931 . S
C689 C688 1.370 . S
C689 C693 1.408 . S
C690 C688 1.363 . S
C690 C691 1.370 . S
C690 C694 1.524 . S
C691 C683 1.503 . S
C691 C690 1.370 . S
C691 C692 1.403 . S
C692 C691 1.403 . S
C692 C693 1.404 . S
C692 C695 1.539 . S
C693 C689 1.408 . S
C693 C692 1.404 . S
C693 H705 0.930 . S
C694 C690 1.524 . S
C694 H706 0.956 . S
C694 H707 0.961 . S
C694 H708 0.961 . S
C695 C692 1.539 . S
C695 H709 0.958 . S
C695 H710 0.961 . S
C695 H711 0.960 . S
H696 C680 0.931 . S
H697 C685 0.929 . S
H698 C686 0.960 . S
H699 C686 0.962 . S
H700 C686 0.960 . S
H701 C687 0.961 . S
H702 C687 0.961 . S
H703 C687 0.961 . S
H704 C688 0.931 . S
H705 C693 0.930 . S
H706 C694 0.956 . S
H707 C694 0.961 . S
H708 C694 0.961 . S
H709 C695 0.958 . S
H710 C695 0.961 . S
H711 C695 0.960 . S
C712 C713 1.391 . S
C712 C714 1.394 . S
C712 H728 0.931 . S
C713 C712 1.391 . S
C713 C717 1.376 . S
C714 C712 1.394 . S
C714 C715 1.369 . S
C714 C718 1.531 . S
C715 C714 1.369 . S
C715 C716 1.410 . S
C715 C723 1.503 . S
C716 C715 1.410 . S
C716 C717 1.392 . S
C716 C719 1.511 . S
C717 C713 1.376 . S
C717 C716 1.392 . S
C717 H729 0.929 . S
C718 C714 1.531 . S
C718 H730 0.960 . S
C718 H731 0.962 . S
C718 H732 0.960 . S
C719 C716 1.511 . S
C719 H733 0.961 . S
C719 H734 0.961 . S
C719 H735 0.961 . S
C720 C721 1.370 . S
C720 C722 1.363 . S
C720 H736 0.931 . S
C721 C720 1.370 . S
C721 C725 1.408 . S
C722 C720 1.363 . S
C722 C723 1.370 . S
C722 C726 1.524 . S
C723 C715 1.503 . S
C723 C722 1.370 . S
C723 C724 1.403 . S
C724 C723 1.403 . S
C724 C725 1.404 . S
C724 C727 1.539 . S
C725 C721 1.408 . S
C725 C724 1.404 . S
C725 H737 0.930 . S
C726 C722 1.524 . S
C726 H738 0.956 . S
C726 H739 0.961 . S
C726 H740 0.961 . S
C727 C724 1.539 . S
C727 H741 0.958 . S
C727 H742 0.961 . S
C727 H743 0.960 . S
H728 C712 0.931 . S
H729 C717 0.929 . S
H730 C718 0.960 . S
H731 C718 0.962 . S
H732 C718 0.960 . S
H733 C719 0.961 . S
H734 C719 0.961 . S
H735 C719 0.961 . S
H736 C720 0.931 . S
H737 C725 0.930 . S
H738 C726 0.956 . S
H739 C726 0.961 . S
H740 C726 0.961 . S
H741 C727 0.958 . S
H742 C727 0.961 . S
H743 C727 0.960 . S
C744 C745 1.391 . S
C744 C746 1.394 . S
C744 H760 0.931 . S
C745 C744 1.391 . S
C745 C749 1.376 . S
C746 C744 1.394 . S
C746 C747 1.369 . S
C746 C750 1.531 . S
C747 C746 1.369 . S
C747 C748 1.410 . S
C747 C755 1.503 . S
C748 C747 1.410 . S
C748 C749 1.392 . S
C748 C751 1.511 . S
C749 C745 1.376 . S
C749 C748 1.392 . S
C749 H761 0.929 . S
C750 C746 1.531 . S
C750 H762 0.960 . S
C750 H763 0.962 . S
C750 H764 0.960 . S
C751 C748 1.511 . S
C751 H765 0.961 . S
C751 H766 0.961 . S
C751 H767 0.961 1_455 S
C752 C753 1.370 . S
C752 C754 1.363 . S
C752 H768 0.931 . S
C753 C752 1.370 . S
C753 C757 1.408 . S
C754 C752 1.363 . S
C754 C755 1.370 . S
C754 C758 1.524 . S
C755 C747 1.503 . S
C755 C754 1.370 . S
C755 C756 1.403 . S
C756 C755 1.403 . S
C756 C757 1.404 . S
C756 C759 1.539 1_455 S
C757 C753 1.408 . S
C757 C756 1.404 . S
C757 H769 0.930 . S
C758 C754 1.524 . S
C758 H770 0.956 . S
C758 H771 0.961 . S
C758 H772 0.961 . S
C759 C756 1.539 1_655 S
C759 H773 0.958 . S
C759 H774 0.961 . S
C759 H775 0.960 . S
H760 C744 0.931 . S
H761 C749 0.929 . S
H762 C750 0.960 . S
H763 C750 0.962 . S
H764 C750 0.960 . S
H765 C751 0.961 . S
H766 C751 0.961 . S
H767 C751 0.961 1_655 S
H768 C752 0.931 . S
H769 C757 0.930 . S
H770 C758 0.956 . S
H771 C758 0.961 . S
H772 C758 0.961 . S
H773 C759 0.958 . S
H774 C759 0.961 . S
H775 C759 0.960 . S
C776 C777 1.391 . S
C776 C778 1.394 . S
C776 H792 0.931 . S
C777 C776 1.391 . S
C777 C781 1.376 . S
C778 C776 1.394 . S
C778 C779 1.369 . S
C778 C782 1.531 . S
C779 C778 1.369 . S
C779 C780 1.410 . S
C779 C787 1.503 . S
C780 C779 1.410 . S
C780 C781 1.392 . S
C780 C783 1.511 . S
C781 C777 1.376 . S
C781 C780 1.392 . S
C781 H793 0.929 . S
C782 C778 1.531 . S
C782 H794 0.960 . S
C782 H795 0.962 . S
C782 H796 0.960 . S
C783 C780 1.511 . S
C783 H797 0.961 . S
C783 H798 0.961 . S
C783 H799 0.961 . S
C784 C785 1.370 . S
C784 C786 1.363 . S
C784 H800 0.931 1_545 S
C785 C784 1.370 . S
C785 C789 1.408 . S
C786 C784 1.363 . S
C786 C787 1.370 . S
C786 C790 1.524 1_545 S
C787 C779 1.503 . S
C787 C786 1.370 . S
C787 C788 1.403 . S
C788 C787 1.403 . S
C788 C789 1.404 . S
C788 C791 1.539 . S
C789 C785 1.408 . S
C789 C788 1.404 . S
C789 H801 0.930 . S
C790 C786 1.524 1_565 S
C790 H802 0.956 . S
C790 H803 0.961 . S
C790 H804 0.961 . S
C791 C788 1.539 . S
C791 H805 0.958 . S
C791 H806 0.961 . S
C791 H807 0.960 . S
H792 C776 0.931 . S
H793 C781 0.929 . S
H794 C782 0.960 . S
H795 C782 0.962 . S
H796 C782 0.960 . S
H797 C783 0.961 . S
H798 C783 0.961 . S
H799 C783 0.961 . S
H800 C784 0.931 1_565 S
H801 C789 0.930 . S
H802 C790 0.956 . S
H803 C790 0.961 . S
H804 C790 0.961 . S
H805 C791 0.958 . S
H806 C791 0.961 . S
H807 C791 0.960 . S
C808 C809 1.391 . S
C808 C810 1.394 . S
C808 H824 0.931 . S
C809 C808 1.391 . S
C809 C813 1.376 . S
C810 C808 1.394 . S
C810 C811 1.369 . S
C810 C814 1.531 . S
C811 C810 1.369 . S
C811 C812 1.410 . S
C811 C819 1.503 . S
C812 C811 1.410 . S
C812 C813 1.392 . S
C812 C815 1.511 . S
C813 C809 1.376 . S
C813 C812 1.392 . S
C813 H825 0.929 . S
C814 C810 1.531 . S
C814 H826 0.960 . S
C814 H827 0.962 . S
C814 H828 0.960 . S
C815 C812 1.511 . S
C815 H829 0.961 . S
C815 H830 0.961 . S
C815 H831 0.961 . S
C816 C817 1.370 . S
C816 C818 1.363 . S
C816 H832 0.931 . S
C817 C816 1.370 . S
C817 C821 1.408 . S
C818 C816 1.363 . S
C818 C819 1.370 . S
C818 C822 1.524 . S
C819 C811 1.503 . S
C819 C818 1.370 . S
C819 C820 1.403 . S
C820 C819 1.403 . S
C820 C821 1.404 . S
C820 C823 1.539 . S
C821 C817 1.408 . S
C821 C820 1.404 . S
C821 H833 0.930 . S
C822 C818 1.524 . S
C822 H834 0.956 . S
C822 H835 0.961 . S
C822 H836 0.961 . S
C823 C820 1.539 . S
C823 H837 0.958 . S
C823 H838 0.961 . S
C823 H839 0.960 . S
H824 C808 0.931 . S
H825 C813 0.929 . S
H826 C814 0.960 . S
H827 C814 0.962 . S
H828 C814 0.960 . S
H829 C815 0.961 . S
H830 C815 0.961 . S
H831 C815 0.961 . S
H832 C816 0.931 . S
H833 C821 0.930 . S
H834 C822 0.956 . S
H835 C822 0.961 . S
H836 C822 0.961 . S
H837 C823 0.958 . S
H838 C823 0.961 . S
H839 C823 0.960 . S
C840 C841 1.391 1_565 S
C840 C842 1.394 . S
C840 H856 0.931 . S
C841 C840 1.391 1_545 S
C841 C845 1.376 . S
C842 C840 1.394 . S
C842 C843 1.369 1_565 S
C842 C846 1.531 . S
C843 C842 1.369 1_545 S
C843 C844 1.410 . S
C843 C851 1.502 1_545 S
C844 C843 1.410 . S
C844 C845 1.392 . S
C844 C847 1.511 . S
C845 C841 1.376 . S
C845 C844 1.392 . S
C845 H857 0.929 . S
C846 C842 1.531 . S
C846 H858 0.960 . S
C846 H859 0.962 . S
C846 H860 0.960 . S
C847 C844 1.511 . S
C847 H861 0.961 . S
C847 H862 0.961 . S
C847 H863 0.961 . S
C848 C849 1.370 1_545 S
C848 C850 1.363 . S
C848 H864 0.931 . S
C849 C848 1.370 1_565 S
C849 C853 1.408 . S
C850 C848 1.363 . S
C850 C851 1.356 1_545 S
C850 C854 1.524 . S
C851 C843 1.502 1_565 S
C851 C850 1.356 1_565 S
C851 C852 1.419 . S
C852 C851 1.419 . S
C852 C853 1.404 . S
C852 C855 1.539 . S
C853 C849 1.408 . S
C853 C852 1.404 . S
C853 H865 0.930 . S
C854 C850 1.524 . S
C854 H866 0.956 . S
C854 H867 0.961 . S
C854 H868 0.961 . S
C855 C852 1.539 . S
C855 H869 0.958 . S
C855 H870 0.961 . S
C855 H871 0.960 . S
H856 C840 0.931 . S
H857 C845 0.929 . S
H858 C846 0.960 . S
H859 C846 0.962 . S
H860 C846 0.960 . S
H861 C847 0.961 . S
H862 C847 0.961 . S
H863 C847 0.961 . S
H864 C848 0.931 . S
H865 C853 0.930 . S
H866 C854 0.956 . S
H867 C854 0.961 . S
H868 C854 0.961 . S
H869 C855 0.958 . S
H870 C855 0.961 . S
H871 C855 0.960 . S
C872 C873 1.391 . S
C872 C874 1.394 . S
C872 H888 0.931 . S
C873 C872 1.391 . S
C873 C877 1.376 . S
C874 C872 1.394 . S
C874 C875 1.369 . S
C874 C878 1.531 . S
C875 C874 1.369 . S
C875 C876 1.410 . S
C875 C883 1.503 . S
C876 C875 1.410 . S
C876 C877 1.392 . S
C876 C879 1.511 . S
C877 C873 1.376 . S
C877 C876 1.392 . S
C877 H889 0.929 . S
C878 C874 1.531 . S
C878 H890 0.960 . S
C878 H891 0.962 . S
C878 H892 0.960 . S
C879 C876 1.511 . S
C879 H893 0.961 . S
C879 H894 0.961 . S
C879 H895 0.961 . S
C880 C881 1.370 . S
C880 C882 1.363 . S
C880 H896 0.931 . S
C881 C880 1.370 . S
C881 C885 1.408 . S
C882 C880 1.363 . S
C882 C883 1.370 . S
C882 C886 1.524 . S
C883 C875 1.503 . S
C883 C882 1.370 . S
C883 C884 1.403 . S
C884 C883 1.403 . S
C884 C885 1.404 . S
C884 C887 1.539 . S
C885 C881 1.408 . S
C885 C884 1.404 . S
C885 H897 0.930 . S
C886 C882 1.524 . S
C886 H898 0.956 . S
C886 H899 0.961 . S
C886 H900 0.961 . S
C887 C884 1.539 . S
C887 H901 0.958 . S
C887 H902 0.961 . S
C887 H903 0.960 . S
H888 C872 0.931 . S
H889 C877 0.929 . S
H890 C878 0.960 . S
H891 C878 0.962 . S
H892 C878 0.960 . S
H893 C879 0.961 . S
H894 C879 0.961 . S
H895 C879 0.961 . S
H896 C880 0.931 . S
H897 C885 0.930 . S
H898 C886 0.956 . S
H899 C886 0.961 . S
H900 C886 0.961 . S
H901 C887 0.958 . S
H902 C887 0.961 . S
H903 C887 0.960 . S
C904 C905 1.391 . S
C904 C906 1.394 . S
C904 H920 0.931 . S
C905 C904 1.391 . S
C905 C909 1.376 1_455 S
C906 C904 1.394 . S
C906 C907 1.369 . S
C906 C910 1.531 . S
C907 C906 1.369 . S
C907 C908 1.410 1_455 S
C907 C915 1.503 . S
C908 C907 1.410 1_655 S
C908 C909 1.392 . S
C908 C911 1.511 . S
C909 C905 1.376 1_655 S
C909 C908 1.392 . S
C909 H921 0.929 . S
C910 C906 1.531 . S
C910 H922 0.960 . S
C910 H923 0.962 . S
C910 H924 0.960 . S
C911 C908 1.511 . S
C911 H925 0.961 . S
C911 H926 0.961 . S
C911 H927 0.961 . S
C912 C913 1.370 1_455 S
C912 C914 1.363 . S
C912 H928 0.931 . S
C913 C912 1.370 1_655 S
C913 C917 1.408 . S
C914 C912 1.363 . S
C914 C915 1.370 . S
C914 C918 1.524 . S
C915 C907 1.503 . S
C915 C914 1.370 . S
C915 C916 1.403 1_455 S
C916 C915 1.403 1_655 S
C916 C917 1.404 . S
C916 C919 1.539 . S
C917 C913 1.408 . S
C917 C916 1.404 . S
C917 H929 0.930 . S
C918 C914 1.524 . S
C918 H930 0.956 . S
C918 H931 0.961 . S
C918 H932 0.961 . S
C919 C916 1.539 . S
C919 H933 0.958 . S
C919 H934 0.961 . S
C919 H935 0.960 . S
H920 C904 0.931 . S
H921 C909 0.929 . S
H922 C910 0.960 . S
H923 C910 0.962 . S
H924 C910 0.960 . S
H925 C911 0.961 . S
H926 C911 0.961 . S
H927 C911 0.961 . S
H928 C912 0.931 . S
H929 C917 0.930 . S
H930 C918 0.956 . S
H931 C918 0.961 . S
H932 C918 0.961 . S
H933 C919 0.958 . S
H934 C919 0.961 . S
H935 C919 0.960 . S
C361 C25 0.437 . S
C369 C335 0.397 . S
C393 C65 0.404 . S
C401 C242 0.138 . S
C425 C105 0.300 . S
C433 C282 0.244 . S
C457 C4 0.465 . S
C465 C322 0.201 . S
C497 C255 0.347 . S
C489 C44 0.327 . S
C529 C295 0.446 . S
C521 C84 0.491 . S
C553 C60 2.943 . S
C561 C162 2.908 . S
C585 C100 3.153 . S
C593 C202 3.102 . S
C617 C31 3.190 . S
C625 C135 3.111 . S
C657 C175 3.112 . S
C649 C71 3.180 . S
C689 C215 2.922 . S
C681 C111 2.968 . S
C713 C20 2.942 . S
C721 C122 2.908 . S
C753 C221 1.775 1_554 S
C745 C2 1.725 . S
C777 C42 1.765 . S
C785 C141 1.783 . S
C809 C82 1.727 . S
C817 C181 1.787 . S
C849 C301 1.113 . S
C841 C63 1.095 . S
C881 C341 1.134 . S
C873 C103 1.144 . S
C905 C23 1.108 . S
C913 C261 1.093 . S
