# Generated by pormake.
# Topology ocu, (6,8)-cn, num edge types: 1
# Building blocks:
#     Node 0, Type 0, BuildingBlock: KUMBOL_clean_sbu_0, # of connection points: 6
#     Node 1, Type 0, BuildingBlock: KUMBOL_clean_sbu_0, # of connection points: 6
#     Node 2, Type 0, BuildingBlock: KUMBOL_clean_sbu_0, # of connection points: 6
#     Node 3, Type 0, BuildingBlock: KUMBOL_clean_sbu_0, # of connection points: 6
#     Node 4, Type 0, BuildingBlock: KUMBOL_clean_sbu_0, # of connection points: 6
#     Node 5, Type 0, BuildingBlock: KUMBOL_clean_sbu_0, # of connection points: 6
#     Node 6, Type 0, BuildingBlock: KUMBOL_clean_sbu_0, # of connection points: 6
#     Node 7, Type 0, BuildingBlock: KUMBOL_clean_sbu_0, # of connection points: 6
#     Node 8, Type 1, BuildingBlock: GIZVER_clean_sbu_0, # of connection points: 8
#     Node 9, Type 1, BuildingBlock: GIZVER_clean_sbu_0, # of connection points: 8
#     Node 10, Type 1, BuildingBlock: GIZVER_clean_sbu_0, # of connection points: 8
#     Node 11, Type 1, BuildingBlock: GIZVER_clean_sbu_0, # of connection points: 8
#     Node 12, Type 1, BuildingBlock: GIZVER_clean_sbu_0, # of connection points: 8
#     Node 13, Type 1, BuildingBlock: GIZVER_clean_sbu_0, # of connection points: 8
#     Edge 14, Type (0, 1), BuildingBlock: UVAHIK_clean_linker_0, # of connection points: 2
#     Edge 15, Type (0, 1), BuildingBlock: UVAHIK_clean_linker_0, # of connection points: 2
#     Edge 16, Type (0, 1), BuildingBlock: UVAHIK_clean_linker_0, # of connection points: 2
#     Edge 17, Type (0, 1), BuildingBlock: UVAHIK_clean_linker_0, # of connection points: 2
#     Edge 18, Type (0, 1), BuildingBlock: UVAHIK_clean_linker_0, # of connection points: 2
#     Edge 19, Type (0, 1), BuildingBlock: UVAHIK_clean_linker_0, # of connection points: 2
#     Edge 20, Type (0, 1), BuildingBlock: UVAHIK_clean_linker_0, # of connection points: 2
#     Edge 21, Type (0, 1), BuildingBlock: UVAHIK_clean_linker_0, # of connection points: 2
#     Edge 22, Type (0, 1), BuildingBlock: UVAHIK_clean_linker_0, # of connection points: 2
#     Edge 23, Type (0, 1), BuildingBlock: UVAHIK_clean_linker_0, # of connection points: 2
#     Edge 24, Type (0, 1), BuildingBlock: UVAHIK_clean_linker_0, # of connection points: 2
#     Edge 25, Type (0, 1), BuildingBlock: UVAHIK_clean_linker_0, # of connection points: 2
#     Edge 26, Type (0, 1), BuildingBlock: UVAHIK_clean_linker_0, # of connection points: 2
#     Edge 27, Type (0, 1), BuildingBlock: UVAHIK_clean_linker_0, # of connection points: 2
#     Edge 28, Type (0, 1), BuildingBlock: UVAHIK_clean_linker_0, # of connection points: 2
#     Edge 29, Type (0, 1), BuildingBlock: UVAHIK_clean_linker_0, # of connection points: 2
#     Edge 30, Type (0, 1), BuildingBlock: UVAHIK_clean_linker_0, # of connection points: 2
#     Edge 31, Type (0, 1), BuildingBlock: UVAHIK_clean_linker_0, # of connection points: 2
#     Edge 32, Type (0, 1), BuildingBlock: UVAHIK_clean_linker_0, # of connection points: 2
#     Edge 33, Type (0, 1), BuildingBlock: UVAHIK_clean_linker_0, # of connection points: 2
#     Edge 34, Type (0, 1), BuildingBlock: UVAHIK_clean_linker_0, # of connection points: 2
#     Edge 35, Type (0, 1), BuildingBlock: UVAHIK_clean_linker_0, # of connection points: 2
#     Edge 36, Type (0, 1), BuildingBlock: UVAHIK_clean_linker_0, # of connection points: 2
#     Edge 37, Type (0, 1), BuildingBlock: UVAHIK_clean_linker_0, # of connection points: 2
#     Edge 38, Type (0, 1), BuildingBlock: UVAHIK_clean_linker_0, # of connection points: 2
#     Edge 39, Type (0, 1), BuildingBlock: UVAHIK_clean_linker_0, # of connection points: 2
#     Edge 40, Type (0, 1), BuildingBlock: UVAHIK_clean_linker_0, # of connection points: 2
#     Edge 41, Type (0, 1), BuildingBlock: UVAHIK_clean_linker_0, # of connection points: 2
#     Edge 42, Type (0, 1), BuildingBlock: UVAHIK_clean_linker_0, # of connection points: 2
#     Edge 43, Type (0, 1), BuildingBlock: UVAHIK_clean_linker_0, # of connection points: 2
#     Edge 44, Type (0, 1), BuildingBlock: UVAHIK_clean_linker_0, # of connection points: 2
#     Edge 45, Type (0, 1), BuildingBlock: UVAHIK_clean_linker_0, # of connection points: 2
#     Edge 46, Type (0, 1), BuildingBlock: UVAHIK_clean_linker_0, # of connection points: 2
#     Edge 47, Type (0, 1), BuildingBlock: UVAHIK_clean_linker_0, # of connection points: 2
#     Edge 48, Type (0, 1), BuildingBlock: UVAHIK_clean_linker_0, # of connection points: 2
#     Edge 49, Type (0, 1), BuildingBlock: UVAHIK_clean_linker_0, # of connection points: 2
#     Edge 50, Type (0, 1), BuildingBlock: UVAHIK_clean_linker_0, # of connection points: 2
#     Edge 51, Type (0, 1), BuildingBlock: UVAHIK_clean_linker_0, # of connection points: 2
#     Edge 52, Type (0, 1), BuildingBlock: UVAHIK_clean_linker_0, # of connection points: 2
#     Edge 53, Type (0, 1), BuildingBlock: UVAHIK_clean_linker_0, # of connection points: 2
#     Edge 54, Type (0, 1), BuildingBlock: UVAHIK_clean_linker_0, # of connection points: 2
#     Edge 55, Type (0, 1), BuildingBlock: UVAHIK_clean_linker_0, # of connection points: 2
#     Edge 56, Type (0, 1), BuildingBlock: UVAHIK_clean_linker_0, # of connection points: 2
#     Edge 57, Type (0, 1), BuildingBlock: UVAHIK_clean_linker_0, # of connection points: 2
#     Edge 58, Type (0, 1), BuildingBlock: UVAHIK_clean_linker_0, # of connection points: 2
#     Edge 59, Type (0, 1), BuildingBlock: UVAHIK_clean_linker_0, # of connection points: 2
#     Edge 60, Type (0, 1), BuildingBlock: UVAHIK_clean_linker_0, # of connection points: 2
#     Edge 61, Type (0, 1), BuildingBlock: UVAHIK_clean_linker_0, # of connection points: 2
# Relax obj value: 0.181
# Max RMSD: 0.301
# Mean RMSD: 0.218
data_MOF--net-ocu--node1-KUMBOL_clean_sbu_0--node2-GIZVER_clean_sbu_0--edge1-UVAHIK_clean_linker_0
_symmetry_space_group_name_H-M    P1
_symmetry_Int_Tables_number       1
_symmetry_cell_setting            triclinic
loop_
_symmetry_equiv_pos_as_xyz
'x, y, z'
_cell_length_a     53.803898
_cell_length_b     53.28187
_cell_length_c     42.865179
_cell_angle_alpha  84.144553
_cell_angle_beta   95.007501
_cell_angle_gamma 107.23087
loop_
_atom_site_label
_atom_site_type_symbol
_atom_site_fract_x
_atom_site_fract_y
_atom_site_fract_z
_atom_type_partial_charge
Gd0 Gd 0.28836 0.30956 0.30225 0.0
Gd1 Gd 0.27046 0.27144 0.23592 0.0
C2 C 0.25557 0.32225 0.14748 0.0
C3 C 0.20955 0.318 0.14928 0.0
C4 C 0.23138 0.29565 0.19041 0.0
C5 C 0.25478 0.3062 0.176 0.0
C6 C 0.20846 0.30118 0.17683 0.0
C7 C 0.23306 0.32857 0.13469 0.0
C8 C 0.27869 0.33063 0.13183 0.0
C9 C 0.29969 0.32152 0.1434 0.0
N10 N 0.27629 0.29953 0.18864 0.0
C11 C 0.29778 0.30515 0.17122 0.0
H12 H 0.31353 0.2967 0.1782 0.0
C13 C 0.20775 0.26778 0.23096 0.0
N14 N 0.23088 0.2799 0.21752 0.0
C15 C 0.18465 0.27266 0.21833 0.0
C16 C 0.18502 0.28963 0.19132 0.0
H17 H 0.20662 0.25374 0.25097 0.0
H18 H 0.23346 0.34108 0.11305 0.0
H19 H 0.26705 0.25655 0.35316 0.0
H20 H 0.28005 0.34297 0.10996 0.0
H21 H 0.31713 0.32653 0.13048 0.0
H22 H 0.19223 0.32272 0.13886 0.0
H23 H 0.33815 0.36611 0.2947 0.0
H24 H 0.33226 0.23831 0.40325 0.0
H25 H 0.28463 0.22864 0.39237 0.0
H26 H 0.4049 0.30863 0.36768 0.0
H27 H 0.1665 0.26313 0.22934 0.0
H28 H 0.16708 0.29343 0.18163 0.0
H29 H 0.37711 0.26764 0.39293 0.0
H30 H 0.38567 0.3811 0.30552 0.0
N31 N 0.30413 0.28105 0.33942 0.0
C32 C 0.32461 0.2505 0.38547 0.0
C33 C 0.29775 0.24493 0.37932 0.0
C34 C 0.34125 0.27221 0.36927 0.0
C35 C 0.33028 0.2875 0.34633 0.0
C36 C 0.28782 0.26061 0.35639 0.0
N37 N 0.33402 0.32666 0.31412 0.0
C38 C 0.3458 0.31075 0.33257 0.0
C39 C 0.37481 0.3611 0.31288 0.0
C40 C 0.38748 0.34415 0.32955 0.0
C41 C 0.34786 0.35233 0.3064 0.0
C42 C 0.37285 0.31902 0.34076 0.0
H43 H 0.40829 0.35117 0.33519 0.0
O44 O 0.29537 0.34442 0.32782 0.0
O45 O 0.25879 0.30294 0.25967 0.0
O46 O 0.31147 0.29779 0.23228 0.0
O47 O 0.31249 0.3316 0.26242 0.0
O48 O 0.27678 0.3414 0.26955 0.0
O49 O 0.26499 0.30944 0.3413 0.0
O50 O 0.24304 0.23471 0.22186 0.0
O51 O 0.29484 0.27458 0.28201 0.0
O52 O 0.24916 0.27945 0.30906 0.0
O53 O 0.24742 0.2476 0.27517 0.0
O54 O 0.29641 0.24546 0.25559 0.0
O55 O 0.28039 0.25023 0.20089 0.0
C56 C 0.25949 0.32724 0.25057 0.0
C57 C 0.38414 0.30275 0.36148 0.0
C58 C 0.36832 0.27947 0.37595 0.0
C59 C 0.27839 0.33296 0.34834 0.0
C60 C 0.28736 0.33605 0.38154 0.0
C61 C 0.30839 0.32737 0.39494 0.0
C62 C 0.27496 0.3483 0.40003 0.0
C63 C 0.28342 0.35186 0.43172 0.0
C64 C 0.31652 0.33029 0.42651 0.0
C65 C 0.30407 0.34244 0.44495 0.0
C66 C 0.32203 0.32179 0.24095 0.0
C67 C 0.30553 0.2556 0.28175 0.0
C68 C 0.25763 0.2327 0.20001 0.0
C69 C 0.24549 0.22713 0.1683 0.0
C70 C 0.21951 0.22656 0.15978 0.0
C71 C 0.26059 0.22206 0.14602 0.0
C72 C 0.25009 0.21618 0.11563 0.0
C73 C 0.20889 0.22055 0.12948 0.0
C74 C 0.22402 0.21514 0.1075 0.0
C75 C 0.23932 0.25549 0.29949 0.0
H76 H 0.3187 0.31861 0.38107 0.0
H77 H 0.25874 0.35511 0.3897 0.0
H78 H 0.33273 0.32343 0.43659 0.0
H79 H 0.31099 0.34506 0.46924 0.0
H80 H 0.20744 0.23061 0.17642 0.0
H81 H 0.2806 0.22229 0.15252 0.0
H82 H 0.18884 0.22001 0.12306 0.0
H83 H 0.21552 0.21041 0.0842 0.0
Gd84 Gd 0.75192 0.31591 0.29418 0.0
Gd85 Gd 0.79919 0.28386 0.27022 0.0
C86 C 0.88779 0.3141 0.27767 0.0
C87 C 0.89716 0.33831 0.22678 0.0
C88 C 0.85228 0.3166 0.23963 0.0
C89 C 0.8609 0.30816 0.26915 0.0
C90 C 0.87039 0.33133 0.2179 0.0
C91 C 0.90584 0.32968 0.25657 0.0
C92 C 0.89576 0.30352 0.30675 0.0
C93 C 0.87712 0.2869 0.32615 0.0
N94 N 0.843 0.29309 0.28903 0.0
C95 C 0.85067 0.28153 0.31667 0.0
H96 H 0.83627 0.26851 0.33158 0.0
C97 C 0.81731 0.31406 0.20144 0.0
N98 N 0.82631 0.30918 0.23153 0.0
C99 C 0.83449 0.32885 0.17917 0.0
C100 C 0.86111 0.33786 0.18756 0.0
H101 H 0.79677 0.30701 0.19472 0.0
H102 H 0.92658 0.33464 0.26279 0.0
H103 H 0.70737 0.32883 0.24117 0.0
H104 H 0.91626 0.30751 0.31407 0.0
H105 H 0.88313 0.27808 0.34829 0.0
H106 H 0.91134 0.34979 0.21048 0.0
H107 H 0.76237 0.29737 0.3731 0.0
H108 H 0.63146 0.28474 0.27002 0.0
H109 H 0.65948 0.31518 0.2311 0.0
H110 H 0.64905 0.24757 0.37302 0.0
H111 H 0.82719 0.33329 0.15556 0.0
H112 H 0.87439 0.34923 0.17022 0.0
H113 H 0.62781 0.25923 0.32281 0.0
H114 H 0.73725 0.27165 0.41572 0.0
N115 N 0.70641 0.30565 0.28471 0.0
C116 C 0.65244 0.29065 0.27447 0.0
C117 C 0.66816 0.30785 0.25249 0.0
C118 C 0.66394 0.28203 0.30245 0.0
C119 C 0.69137 0.2903 0.30712 0.0
C120 C 0.69522 0.31552 0.25825 0.0
N121 N 0.7298 0.29332 0.33941 0.0
C122 C 0.70338 0.28403 0.3354 0.0
C123 C 0.72745 0.27487 0.39318 0.0
C124 C 0.7006 0.26406 0.38873 0.0
C125 C 0.74175 0.28967 0.3684 0.0
C126 C 0.68815 0.26891 0.35977 0.0
H127 H 0.68963 0.25249 0.40796 0.0
O128 O 0.77588 0.35241 0.31311 0.0
O129 O 0.78577 0.31941 0.26729 0.0
O130 O 0.81994 0.3137 0.30381 0.0
O131 O 0.78546 0.31699 0.33113 0.0
O132 O 0.75919 0.33718 0.24576 0.0
O133 O 0.73651 0.34918 0.29567 0.0
O134 O 0.80164 0.26088 0.23208 0.0
O135 O 0.76276 0.27926 0.29305 0.0
O136 O 0.73237 0.29143 0.2537 0.0
O137 O 0.76542 0.27825 0.23352 0.0
O138 O 0.78686 0.25839 0.31511 0.0
O139 O 0.79984 0.24344 0.28013 0.0
C140 C 0.78181 0.33403 0.24369 0.0
C141 C 0.66096 0.25948 0.35471 0.0
C142 C 0.64886 0.26606 0.32611 0.0
C143 C 0.75906 0.36512 0.30376 0.0
C144 C 0.76885 0.38934 0.28282 0.0
C145 C 0.79117 0.40917 0.29205 0.0
C146 C 0.75765 0.39145 0.25218 0.0
C147 C 0.76891 0.41244 0.23031 0.0
C148 C 0.8022 0.4305 0.27082 0.0
C149 C 0.79132 0.4321 0.24008 0.0
C150 C 0.8107 0.32065 0.32805 0.0
C151 C 0.76475 0.26311 0.31579 0.0
C152 C 0.80592 0.24195 0.25169 0.0
C153 C 0.8307 0.23569 0.24928 0.0
C154 C 0.84353 0.2416 0.22108 0.0
C155 C 0.8432 0.22657 0.27633 0.0
C156 C 0.86857 0.22455 0.27587 0.0
C157 C 0.86863 0.23916 0.22032 0.0
C158 C 0.88126 0.23098 0.24763 0.0
C159 C 0.7413 0.2801 0.2327 0.0
H160 H 0.80037 0.40785 0.31543 0.0
H161 H 0.74078 0.37588 0.24484 0.0
H162 H 0.81951 0.44567 0.27807 0.0
H163 H 0.8004 0.44875 0.22413 0.0
H164 H 0.83448 0.24878 0.19985 0.0
H165 H 0.83371 0.22221 0.29835 0.0
H166 H 0.87849 0.24402 0.1986 0.0
H167 H 0.90081 0.22947 0.24663 0.0
Gd168 Gd 0.76753 0.7703 0.30509 0.0
Gd169 Gd 0.78915 0.81825 0.24077 0.0
C170 C 0.85947 0.82329 0.18514 0.0
C171 C 0.89028 0.86436 0.20012 0.0
C172 C 0.84739 0.84907 0.22137 0.0
C173 C 0.84145 0.82675 0.20515 0.0
C174 C 0.87179 0.86829 0.21883 0.0
C175 C 0.8841 0.84193 0.18323 0.0
C176 C 0.85184 0.80172 0.16678 0.0
C177 C 0.82653 0.78477 0.16791 0.0
N178 N 0.81744 0.80921 0.20742 0.0
C179 C 0.80944 0.78901 0.18821 0.0
H180 H 0.78992 0.77586 0.18869 0.0
C181 C 0.83332 0.87507 0.25354 0.0
N182 N 0.82895 0.85234 0.23896 0.0
C183 C 0.85728 0.8946 0.2519 0.0
C184 C 0.87669 0.89111 0.23468 0.0
H185 H 0.81865 0.87802 0.26715 0.0
H186 H 0.89827 0.83949 0.16822 0.0
H187 H 0.77116 0.81141 0.36066 0.0
H188 H 0.86507 0.79839 0.15108 0.0
H189 H 0.82019 0.76836 0.15329 0.0
H190 H 0.90918 0.87884 0.19801 0.0
H191 H 0.73596 0.71021 0.28146 0.0
H192 H 0.69693 0.79283 0.39982 0.0
H193 H 0.74293 0.82 0.39781 0.0
H194 H 0.64766 0.71481 0.35121 0.0
H195 H 0.86078 0.9123 0.26399 0.0
H196 H 0.89521 0.90631 0.23338 0.0
H197 H 0.66124 0.75388 0.38165 0.0
H198 H 0.6929 0.67739 0.28558 0.0
N199 N 0.74142 0.78027 0.34062 0.0
C200 C 0.70926 0.78902 0.38329 0.0
C201 C 0.73522 0.80432 0.38231 0.0
C202 C 0.69985 0.76826 0.36385 0.0
C203 C 0.71675 0.76412 0.34281 0.0
C204 C 0.75119 0.79941 0.36103 0.0
N205 N 0.72706 0.73742 0.30862 0.0
C206 C 0.70932 0.74192 0.32626 0.0
C207 C 0.69723 0.69548 0.2971 0.0
C208 C 0.67841 0.70037 0.3141 0.0
C209 C 0.72168 0.71415 0.2949 0.0
C210 C 0.68448 0.72358 0.32944 0.0
H211 H 0.65953 0.68581 0.31592 0.0
O212 O 0.7741 0.73573 0.33186 0.0
O213 O 0.79566 0.78086 0.26567 0.0
O214 O 0.75939 0.78125 0.2256 0.0
O215 O 0.7344 0.76563 0.26833 0.0
O216 O 0.77902 0.74179 0.27631 0.0
O217 O 0.79346 0.77468 0.34707 0.0
O218 O 0.77972 0.8521 0.2155 0.0
O219 O 0.76091 0.80724 0.28015 0.0
O220 O 0.79752 0.80779 0.31933 0.0
O221 O 0.82262 0.82202 0.27653 0.0
O222 O 0.77633 0.84629 0.26918 0.0
O223 O 0.76835 0.81453 0.19499 0.0
C224 C 0.79526 0.75789 0.25798 0.0
C225 C 0.6669 0.72854 0.34867 0.0
C226 C 0.67461 0.75082 0.36594 0.0
C227 C 0.78904 0.74945 0.35344 0.0
C228 C 0.78447 0.7397 0.38624 0.0
C229 C 0.7603 0.73536 0.399 0.0
C230 C 0.80507 0.73429 0.40497 0.0
C231 C 0.80153 0.72319 0.43601 0.0
C232 C 0.75693 0.72563 0.43037 0.0
C233 C 0.77737 0.71936 0.44881 0.0
C234 C 0.73767 0.76679 0.23809 0.0
C235 C 0.76056 0.82994 0.28781 0.0
C236 C 0.76991 0.83947 0.19073 0.0
C237 C 0.77821 0.85316 0.16008 0.0
C238 C 0.79634 0.84673 0.14309 0.0
C239 C 0.76715 0.87288 0.1473 0.0
C240 C 0.77392 0.88616 0.1178 0.0
C241 C 0.80316 0.8598 0.11374 0.0
C242 C 0.79193 0.87938 0.101 0.0
C243 C 0.81971 0.82095 0.30681 0.0
H244 H 0.74405 0.73918 0.38481 0.0
H245 H 0.82376 0.73802 0.39492 0.0
H246 H 0.73823 0.72224 0.44014 0.0
H247 H 0.77392 0.71057 0.47254 0.0
H248 H 0.80511 0.83157 0.15214 0.0
H249 H 0.75281 0.87753 0.16018 0.0
H250 H 0.81711 0.85468 0.1008 0.0
H251 H 0.79747 0.88936 0.07826 0.0
Gd252 Gd 0.26282 0.80603 0.27071 0.0
Gd253 Gd 0.30242 0.76113 0.28408 0.0
C254 C 0.27641 0.6927 0.3589 0.0
C255 C 0.31051 0.7047 0.40033 0.0
C256 C 0.31271 0.73195 0.35094 0.0
C257 C 0.28913 0.71554 0.34021 0.0
C258 C 0.32418 0.7261 0.38061 0.0
C259 C 0.28663 0.688 0.38948 0.0
C260 C 0.25465 0.67452 0.34572 0.0
C261 C 0.24701 0.67861 0.31415 0.0
N262 N 0.28002 0.72045 0.31034 0.0
C263 C 0.26017 0.70161 0.29662 0.0
H264 H 0.25397 0.70402 0.27232 0.0
C265 C 0.3513 0.76507 0.33779 0.0
N266 N 0.32563 0.75213 0.33107 0.0
C267 C 0.36342 0.76024 0.36704 0.0
C268 C 0.34959 0.74109 0.38887 0.0
H269 H 0.36212 0.77997 0.32115 0.0
H270 H 0.27686 0.67084 0.40436 0.0
H271 H 0.24338 0.82649 0.33418 0.0
H272 H 0.24435 0.65674 0.35926 0.0
H273 H 0.23084 0.66415 0.30332 0.0
H274 H 0.3188 0.70016 0.42341 0.0
H275 H 0.27831 0.82546 0.1943 0.0
H276 H 0.27605 0.90997 0.33339 0.0
H277 H 0.25006 0.86777 0.3589 0.0
H278 H 0.31265 0.93392 0.23315 0.0
H279 H 0.38342 0.77129 0.37271 0.0
H280 H 0.35908 0.73722 0.41144 0.0
H281 H 0.29983 0.9344 0.28667 0.0
H282 H 0.29825 0.8661 0.16292 0.0
N283 N 0.26659 0.84465 0.29554 0.0
C284 C 0.27338 0.8918 0.32248 0.0
C285 C 0.25869 0.86805 0.33694 0.0
C286 C 0.28335 0.892 0.29335 0.0
C287 C 0.27927 0.86781 0.28005 0.0
C288 C 0.25506 0.84461 0.32283 0.0
N289 N 0.28069 0.844 0.23693 0.0
C290 C 0.28641 0.8675 0.24984 0.0
C291 C 0.29521 0.86677 0.18741 0.0
C292 C 0.30268 0.89079 0.20089 0.0
C293 C 0.28395 0.84352 0.20568 0.0
C294 C 0.29788 0.89147 0.23226 0.0
H295 H 0.31151 0.90874 0.18667 0.0
O296 O 0.22425 0.77983 0.25943 0.0
O297 O 0.2634 0.7655 0.29017 0.0
O298 O 0.26727 0.74734 0.2508 0.0
O299 O 0.26697 0.78761 0.22707 0.0
O300 O 0.24889 0.78694 0.31787 0.0
O301 O 0.23091 0.82162 0.25216 0.0
O302 O 0.31775 0.76155 0.23866 0.0
O303 O 0.29913 0.79893 0.25863 0.0
O304 O 0.28994 0.81882 0.31343 0.0
O305 O 0.31104 0.78587 0.32574 0.0
O306 O 0.33495 0.79946 0.28121 0.0
O307 O 0.32315 0.73318 0.27575 0.0
C308 C 0.2537 0.76485 0.31625 0.0
C309 C 0.30348 0.91542 0.24616 0.0
C310 C 0.29622 0.91569 0.27664 0.0
C311 C 0.21353 0.79874 0.2543 0.0
C312 C 0.19111 0.79592 0.27322 0.0
C313 C 0.17124 0.77188 0.2751 0.0
C314 C 0.19085 0.81577 0.29232 0.0
C315 C 0.17186 0.81115 0.31431 0.0
C316 C 0.1519 0.76747 0.29642 0.0
C317 C 0.15237 0.78685 0.31626 0.0
C318 C 0.26177 0.76195 0.22602 0.0
C319 C 0.32201 0.81344 0.26456 0.0
C320 C 0.32889 0.74336 0.24757 0.0
C321 C 0.3563 0.74942 0.2402 0.0
C322 C 0.37536 0.77068 0.25284 0.0
C323 C 0.36344 0.73413 0.21979 0.0
C324 C 0.38955 0.73997 0.21205 0.0
C325 C 0.40124 0.77654 0.24536 0.0
C326 C 0.40837 0.7613 0.22517 0.0
C327 C 0.30557 0.80756 0.33154 0.0
H328 H 0.17112 0.75626 0.26072 0.0
H329 H 0.20597 0.83444 0.29111 0.0
H330 H 0.13681 0.74879 0.298 0.0
H331 H 0.13743 0.78295 0.33298 0.0
H332 H 0.37036 0.78282 0.26839 0.0
H333 H 0.34862 0.71795 0.20969 0.0
H334 H 0.41585 0.7929 0.25533 0.0
H335 H 0.42871 0.76599 0.2202 0.0
Gd336 Gd 0.26773 0.80956 0.77657 0.0
Gd337 Gd 0.30747 0.76588 0.79067 0.0
C338 C 0.38764 0.80514 0.75075 0.0
C339 C 0.37997 0.79391 0.69663 0.0
C340 C 0.34519 0.77774 0.73298 0.0
C341 C 0.36152 0.79092 0.75657 0.0
C342 C 0.35453 0.77862 0.70292 0.0
C343 C 0.39652 0.80708 0.72053 0.0
C344 C 0.40418 0.81682 0.77553 0.0
C345 C 0.39503 0.81306 0.80553 0.0
N346 N 0.35222 0.78921 0.78543 0.0
C347 C 0.36917 0.79861 0.81021 0.0
H348 H 0.36335 0.79449 0.83402 0.0
C349 C 0.30598 0.74624 0.71859 0.0
N350 N 0.32057 0.76329 0.73966 0.0
C351 C 0.31416 0.74673 0.68842 0.0
C352 C 0.33829 0.76351 0.68026 0.0
H353 H 0.28833 0.7314 0.72481 0.0
H354 H 0.41632 0.81832 0.71555 0.0
H355 H 0.21958 0.79538 0.71857 0.0
H356 H 0.42428 0.82795 0.77197 0.0
H357 H 0.40802 0.82088 0.82524 0.0
H358 H 0.38725 0.7951 0.67358 0.0
H359 H 0.27757 0.83021 0.85152 0.0
H360 H 0.1477 0.75631 0.76066 0.0
H361 H 0.17288 0.77182 0.71332 0.0
H362 H 0.16853 0.76909 0.86969 0.0
H363 H 0.30206 0.73368 0.67172 0.0
H364 H 0.34471 0.76368 0.65695 0.0
H365 H 0.14633 0.7552 0.81904 0.0
H366 H 0.25456 0.82137 0.89955 0.0
N367 N 0.22192 0.79101 0.76875 0.0
C368 C 0.16841 0.76623 0.76317 0.0
C369 C 0.18254 0.7749 0.73643 0.0
C370 C 0.1809 0.77175 0.79273 0.0
C371 C 0.20796 0.78468 0.79473 0.0
C372 C 0.2092 0.7879 0.73962 0.0
N373 N 0.24625 0.80592 0.82392 0.0
C374 C 0.22042 0.79262 0.82312 0.0
C375 C 0.24479 0.81276 0.87835 0.0
C376 C 0.21886 0.79747 0.87836 0.0
C377 C 0.25807 0.81722 0.85077 0.0
C378 C 0.20616 0.78766 0.85041 0.0
H379 H 0.20863 0.79405 0.89978 0.0
O380 O 0.28407 0.85173 0.78072 0.0
O381 O 0.30719 0.80584 0.76807 0.0
O382 O 0.3198 0.79264 0.82984 0.0
O383 O 0.30118 0.82588 0.81118 0.0
O384 O 0.28487 0.81553 0.7293 0.0
O385 O 0.24881 0.83718 0.75195 0.0
O386 O 0.29861 0.72357 0.78836 0.0
O387 O 0.26859 0.77011 0.79975 0.0
O388 O 0.25699 0.78217 0.73796 0.0
O389 O 0.26986 0.74712 0.76294 0.0
O390 O 0.28923 0.75736 0.83782 0.0
O391 O 0.33128 0.74429 0.81804 0.0
C392 C 0.30765 0.81328 0.73879 0.0
C393 C 0.17961 0.77347 0.84887 0.0
C394 C 0.16699 0.76551 0.82007 0.0
C395 C 0.26843 0.85752 0.75813 0.0
C396 C 0.28059 0.8741 0.73046 0.0
C397 C 0.30766 0.88609 0.7303 0.0
C398 C 0.26517 0.87561 0.70265 0.0
C399 C 0.27626 0.88864 0.67476 0.0
C400 C 0.31892 0.89896 0.70264 0.0
C401 C 0.30338 0.90018 0.67495 0.0
C402 C 0.31705 0.81629 0.83081 0.0
C403 C 0.26725 0.76177 0.82866 0.0
C404 C 0.31629 0.72145 0.81037 0.0
C405 C 0.30831 0.70061 0.83612 0.0
C406 C 0.28961 0.67671 0.83006 0.0
C407 C 0.32101 0.70359 0.86619 0.0
C408 C 0.31727 0.6822 0.88935 0.0
C409 C 0.28429 0.65595 0.85335 0.0
C410 C 0.29829 0.65837 0.88242 0.0
C411 C 0.25626 0.75723 0.74063 0.0
H412 H 0.32022 0.88501 0.75125 0.0
H413 H 0.2444 0.8658 0.70251 0.0
H414 H 0.3398 0.90787 0.70261 0.0
H415 H 0.31252 0.91049 0.65392 0.0
H416 H 0.27949 0.67387 0.80712 0.0
H417 H 0.33447 0.72251 0.87086 0.0
H418 H 0.27002 0.63745 0.84838 0.0
H419 H 0.29474 0.64096 0.89861 0.0
Gd420 Gd 0.30264 0.29317 0.74056 0.0
Gd421 Gd 0.27144 0.28673 0.81735 0.0
C422 C 0.29899 0.24252 0.9045 0.0
C423 C 0.26079 0.20513 0.91363 0.0
C424 C 0.25999 0.23825 0.87039 0.0
C425 C 0.2855 0.25166 0.87816 0.0
C426 C 0.24696 0.21538 0.88874 0.0
C427 C 0.28681 0.21868 0.92148 0.0
C428 C 0.32381 0.25818 0.9138 0.0
C429 C 0.33403 0.2828 0.89785 0.0
N430 N 0.29639 0.27482 0.86152 0.0
C431 C 0.31985 0.29102 0.87193 0.0
H432 H 0.32823 0.31006 0.85996 0.0
C433 C 0.22067 0.23974 0.84233 0.0
N434 N 0.24715 0.2491 0.84676 0.0
C435 C 0.20685 0.21691 0.85962 0.0
C436 C 0.22016 0.20435 0.88252 0.0
H437 H 0.21036 0.24946 0.82462 0.0
H438 H 0.297 0.21114 0.94147 0.0
H439 H 0.24523 0.26729 0.70005 0.0
H440 H 0.33484 0.25187 0.93385 0.0
H441 H 0.35292 0.29542 0.90536 0.0
H442 H 0.25124 0.18737 0.92772 0.0
H443 H 0.36248 0.33305 0.7308 0.0
H444 H 0.23426 0.32402 0.62653 0.0
H445 H 0.21861 0.28035 0.65565 0.0
H446 H 0.31563 0.39208 0.63007 0.0
H447 H 0.18598 0.20907 0.85531 0.0
H448 H 0.20941 0.1868 0.89608 0.0
H449 H 0.27035 0.36607 0.61769 0.0
H450 H 0.3843 0.3745 0.70002 0.0
N451 N 0.27585 0.30353 0.69733 0.0
C452 C 0.24616 0.31841 0.64613 0.0
C453 C 0.23731 0.29373 0.66246 0.0
C454 C 0.27072 0.33511 0.65454 0.0
C455 C 0.28537 0.32687 0.68036 0.0
C456 C 0.25259 0.28642 0.68783 0.0
N457 N 0.3247 0.33155 0.71042 0.0
C458 C 0.31065 0.3415 0.68733 0.0
C459 C 0.3635 0.36561 0.69643 0.0
C460 C 0.34888 0.37723 0.67415 0.0
C461 C 0.35112 0.34227 0.71388 0.0
C462 C 0.32223 0.36476 0.66872 0.0
H463 H 0.35853 0.39514 0.66038 0.0
O464 O 0.3354 0.28232 0.72512 0.0
O465 O 0.30068 0.27708 0.79053 0.0
O466 O 0.30673 0.32239 0.81287 0.0
O467 O 0.31797 0.33284 0.76042 0.0
O468 O 0.33741 0.29125 0.77319 0.0
O469 O 0.29604 0.26035 0.71169 0.0
O470 O 0.23958 0.30079 0.82922 0.0
O471 O 0.27361 0.30298 0.76744 0.0
O472 O 0.26837 0.25661 0.74622 0.0
O473 O 0.25672 0.24656 0.79858 0.0
O474 O 0.23678 0.28814 0.78432 0.0
O475 O 0.27866 0.31853 0.84805 0.0
C476 C 0.32461 0.27999 0.79736 0.0
C477 C 0.30721 0.37405 0.64436 0.0
C478 C 0.28145 0.35922 0.63728 0.0
C479 C 0.32069 0.26388 0.70832 0.0
C480 C 0.328 0.26405 0.67585 0.0
C481 C 0.32262 0.28246 0.6525 0.0
C482 C 0.33959 0.24525 0.66773 0.0
C483 C 0.34529 0.24463 0.63629 0.0
C484 C 0.32843 0.28212 0.62152 0.0
C485 C 0.33958 0.26333 0.61339 0.0
C486 C 0.31941 0.33844 0.79005 0.0
C487 C 0.24968 0.29981 0.76036 0.0
C488 C 0.2542 0.31758 0.8481 0.0
C489 C 0.24411 0.31741 0.87906 0.0
C490 C 0.24401 0.29667 0.90198 0.0
C491 C 0.23452 0.33806 0.88587 0.0
C492 C 0.22476 0.33795 0.9155 0.0
C493 C 0.23428 0.29628 0.93116 0.0
C494 C 0.22466 0.31662 0.93789 0.0
C495 C 0.2557 0.24061 0.76913 0.0
H496 H 0.31371 0.29697 0.65815 0.0
H497 H 0.34362 0.23085 0.68565 0.0
H498 H 0.32419 0.29643 0.60369 0.0
H499 H 0.34402 0.26361 0.58917 0.0
H500 H 0.25143 0.28076 0.89732 0.0
H501 H 0.23497 0.35425 0.86824 0.0
H502 H 0.23409 0.28006 0.94863 0.0
H503 H 0.21676 0.31538 0.96057 0.0
Gd504 Gd 0.77702 0.29963 0.76797 0.0
Gd505 Gd 0.80524 0.24846 0.80482 0.0
C506 C 0.76861 0.16008 0.82443 0.0
C507 C 0.74828 0.15773 0.8735 0.0
C508 C 0.77213 0.20022 0.84876 0.0
C509 C 0.77694 0.18783 0.82404 0.0
C510 C 0.75819 0.18521 0.8741 0.0
C511 C 0.75359 0.14517 0.84879 0.0
C512 C 0.77666 0.14811 0.80114 0.0
C513 C 0.7935 0.16368 0.77905 0.0
N514 N 0.79155 0.20273 0.8009 0.0
C515 C 0.8012 0.19111 0.77966 0.0
H516 H 0.81439 0.20318 0.7627 0.0
C517 C 0.78109 0.23925 0.87483 0.0
N518 N 0.78229 0.22679 0.84889 0.0
C519 C 0.76721 0.22524 0.90034 0.0
C520 C 0.75533 0.19817 0.89976 0.0
H521 H 0.79008 0.26016 0.8756 0.0
H522 H 0.74671 0.12386 0.84926 0.0
H523 H 0.77472 0.3477 0.81089 0.0
H524 H 0.77082 0.12685 0.80074 0.0
H525 H 0.80062 0.15459 0.76165 0.0
H526 H 0.73726 0.14592 0.89258 0.0
H527 H 0.78883 0.2838 0.69736 0.0
H528 H 0.81748 0.4216 0.76605 0.0
H529 H 0.79059 0.39642 0.80916 0.0
H530 H 0.84248 0.39706 0.6718 0.0
H531 H 0.76565 0.23535 0.9204 0.0
H532 H 0.74465 0.18736 0.91959 0.0
H533 H 0.83724 0.42158 0.71516 0.0
H534 H 0.81073 0.30624 0.64997 0.0
N535 N 0.7934 0.34552 0.76994 0.0
C536 C 0.81069 0.40027 0.76681 0.0
C537 C 0.79553 0.38615 0.79119 0.0
C538 C 0.81599 0.3868 0.74299 0.0
C539 C 0.80649 0.35903 0.74489 0.0
C540 C 0.78663 0.35865 0.79213 0.0
N541 N 0.79808 0.31864 0.72175 0.0
C542 C 0.80893 0.34522 0.72013 0.0
C543 C 0.81041 0.31743 0.66955 0.0
C544 C 0.82262 0.34452 0.66805 0.0
C545 C 0.79793 0.30477 0.69657 0.0
C546 C 0.82164 0.35884 0.69328 0.0
H547 H 0.83229 0.35426 0.64709 0.0
O548 O 0.74929 0.30306 0.72889 0.0
O549 O 0.76967 0.26184 0.79736 0.0
O550 O 0.77617 0.22808 0.76643 0.0
O551 O 0.76208 0.26255 0.73974 0.0
O552 O 0.75656 0.29081 0.81324 0.0
O553 O 0.74169 0.30893 0.77609 0.0
O554 O 0.83132 0.24569 0.8459 0.0
O555 O 0.81205 0.28591 0.77546 0.0
O556 O 0.80873 0.32001 0.80368 0.0
O557 O 0.818 0.28473 0.83451 0.0
O558 O 0.82761 0.25851 0.76056 0.0
O559 O 0.84261 0.24233 0.79953 0.0
C560 C 0.7569 0.26662 0.81818 0.0
C561 C 0.83243 0.38633 0.69211 0.0
C562 C 0.82952 0.40029 0.71684 0.0
C563 C 0.73581 0.31252 0.7461 0.0
C564 C 0.73249 0.3387 0.73505 0.0
C565 C 0.73465 0.34806 0.70325 0.0
C566 C 0.72939 0.35549 0.75679 0.0
C567 C 0.72963 0.38162 0.7474 0.0
C568 C 0.73438 0.37383 0.69362 0.0
C569 C 0.7321 0.39061 0.71552 0.0
C570 C 0.76269 0.23748 0.74293 0.0
C571 C 0.82579 0.28218 0.75509 0.0
C572 C 0.847 0.23823 0.82974 0.0
C573 C 0.85188 0.21269 0.84019 0.0
C574 C 0.84159 0.19787 0.86763 0.0
C575 C 0.86458 0.20161 0.82048 0.0
C576 C 0.86607 0.17572 0.82706 0.0
C577 C 0.84349 0.17228 0.87466 0.0
C578 C 0.8554 0.1611 0.85435 0.0
C579 C 0.82024 0.31044 0.82891 0.0
H580 H 0.73708 0.33566 0.68592 0.0
H581 H 0.72797 0.3486 0.78142 0.0
H582 H 0.73623 0.38092 0.66911 0.0
H583 H 0.73199 0.41051 0.70743 0.0
H584 H 0.83148 0.20572 0.88323 0.0
H585 H 0.87211 0.21271 0.79897 0.0
H586 H 0.83527 0.16089 0.89564 0.0
H587 H 0.85633 0.14109 0.85996 0.0
Gd588 Gd 0.78643 0.80723 0.82063 0.0
Gd589 Gd 0.77832 0.77086 0.7503 0.0
C590 C 0.7218 0.77919 0.66662 0.0
C591 C 0.68882 0.73664 0.67038 0.0
C592 C 0.72624 0.74609 0.70805 0.0
C593 C 0.73535 0.77117 0.69363 0.0
C594 C 0.7031 0.72834 0.69631 0.0
C595 C 0.69818 0.76202 0.65553 0.0
C596 C 0.73283 0.80386 0.65099 0.0
C597 C 0.75719 0.81943 0.66174 0.0
N598 N 0.75836 0.78714 0.70481 0.0
C599 C 0.76991 0.81056 0.68857 0.0
H600 H 0.78868 0.82284 0.69658 0.0
C601 C 0.73395 0.71317 0.74571 0.0
N602 N 0.74068 0.73865 0.73279 0.0
C603 C 0.71104 0.69491 0.73508 0.0
C604 C 0.69537 0.7026 0.7105 0.0
H605 H 0.74584 0.70712 0.76488 0.0
H606 H 0.68734 0.76793 0.63502 0.0
H607 H 0.77529 0.75562 0.87485 0.0
H608 H 0.72301 0.81078 0.63021 0.0
H609 H 0.76615 0.83833 0.64948 0.0
H610 H 0.67088 0.72337 0.66115 0.0
H611 H 0.81971 0.87083 0.80668 0.0
H612 H 0.84243 0.76528 0.93872 0.0
H613 H 0.79814 0.73923 0.92109 0.0
H614 H 0.89635 0.85163 0.90672 0.0
H615 H 0.70545 0.67495 0.74591 0.0
H616 H 0.67768 0.68839 0.70222 0.0
H617 H 0.87924 0.80716 0.93282 0.0
H618 H 0.86118 0.90203 0.82472 0.0
N619 N 0.80655 0.79027 0.86551 0.0
C620 C 0.83249 0.77258 0.91832 0.0
C621 C 0.80747 0.75786 0.9085 0.0
C622 C 0.84398 0.79699 0.90239 0.0
C623 C 0.83021 0.80552 0.87591 0.0
C624 C 0.79458 0.76722 0.88216 0.0
N625 N 0.82492 0.83867 0.8376 0.0
C626 C 0.83966 0.8306 0.86157 0.0
C627 C 0.8554 0.88197 0.83522 0.0
C628 C 0.87139 0.87358 0.85888 0.0
C629 C 0.83189 0.86428 0.82515 0.0
C630 C 0.86339 0.84776 0.87276 0.0
H631 H 0.88953 0.88736 0.86675 0.0
O632 O 0.77153 0.83837 0.83329 0.0
O633 O 0.76596 0.80095 0.77279 0.0
O634 O 0.80915 0.8106 0.74638 0.0
O635 O 0.82463 0.8185 0.79782 0.0
O636 O 0.77849 0.8391 0.78504 0.0
O637 O 0.75939 0.79956 0.85772 0.0
O638 O 0.79425 0.74039 0.73788 0.0
O639 O 0.79844 0.77705 0.79814 0.0
O640 O 0.75517 0.7675 0.82432 0.0
O641 O 0.74003 0.75959 0.7727 0.0
O642 O 0.78632 0.73894 0.78603 0.0
O643 O 0.80628 0.77959 0.7142 0.0
C644 C 0.7662 0.8244 0.76328 0.0
C645 C 0.87794 0.83884 0.89796 0.0
C646 C 0.86823 0.8135 0.91278 0.0
C647 C 0.75896 0.82401 0.8566 0.0
C648 C 0.76319 0.83627 0.88679 0.0
C649 C 0.78316 0.83301 0.90868 0.0
C650 C 0.74742 0.85166 0.89374 0.0
C651 C 0.75153 0.86359 0.92248 0.0
C652 C 0.78758 0.845 0.93686 0.0
C653 C 0.77197 0.8602 0.94374 0.0
C654 C 0.82734 0.82241 0.76727 0.0
C655 C 0.79836 0.7537 0.80785 0.0
C656 C 0.80743 0.75538 0.71537 0.0
C657 C 0.80514 0.74364 0.68514 0.0
C658 C 0.78659 0.74722 0.66136 0.0
C659 C 0.82165 0.72851 0.68005 0.0
C660 C 0.81974 0.71702 0.65134 0.0
C661 C 0.78448 0.73584 0.63299 0.0
C662 C 0.80087 0.72084 0.62795 0.0
C663 C 0.7374 0.75516 0.80325 0.0
H664 H 0.79536 0.82119 0.90413 0.0
H665 H 0.73176 0.85395 0.87704 0.0
H666 H 0.80317 0.84248 0.95346 0.0
H667 H 0.77605 0.86946 0.96571 0.0
H668 H 0.77377 0.75881 0.66462 0.0
H669 H 0.83619 0.72604 0.69831 0.0
H670 H 0.77003 0.73862 0.61482 0.0
H671 H 0.79852 0.71197 0.60584 0.0
Co672 Co 0.0646 0.99109 0.50922 0.0
Co673 Co 0.07949 1.00264 0.56685 0.0
Co674 Co 0.03843 0.03255 0.5397 0.0
O675 O 0.06924 0.02132 0.53184 0.0
H676 H 0.08377 0.03596 0.52515 0.0
O677 O 1.00793 0.04413 0.54745 0.0
Co678 Co 1.01113 0.07528 0.56763 0.0
Co679 Co 0.99779 0.06127 0.5116 0.0
H680 H 0.99343 0.02956 0.55438 0.0
O681 O 0.11301 1.00003 0.57157 0.0
O682 O 0.07805 0.97315 0.54684 0.0
O683 O 0.05702 0.99355 0.60135 0.0
O684 O 1.02402 1.00251 0.57187 0.0
O685 O 0.05956 0.05308 0.57344 0.0
O686 O 1.0107 0.1024 0.58811 0.0
O687 O 0.97805 0.06559 0.57899 0.0
O688 O 0.04723 0.08889 0.56006 0.0
O689 O 0.05294 0.06281 0.50799 0.0
O690 O 1.01957 0.06799 0.47645 0.0
O691 O 1.00115 0.09326 0.52721 0.0
O692 O 0.96505 0.06531 0.50532 0.0
C693 C 0.08648 0.97856 0.48111 0.0
C694 C 1.01382 0.98686 0.50651 0.0
C695 C 0.03308 0.99237 0.59699 0.0
C696 C 0.10266 0.97928 0.55613 0.0
C697 C 0.9869 0.08781 0.59214 0.0
C698 C 0.06287 0.0775 0.57515 0.0
C699 C 0.04382 0.07141 0.48197 0.0
C700 C 0.97759 0.08863 0.51399 0.0
O701 O 0.06287 0.9646 0.48707 0.0
O702 O 0.09654 1.00114 0.4933 0.0
O703 O 1.01684 1.01148 0.50607 0.0
O704 O 1.03036 0.97698 0.52192 0.0
Co705 Co 0.55091 0.01747 0.02609 0.0
Co706 Co 0.55404 0.03712 0.08001 0.0
Co707 Co 0.51664 0.06076 0.0309 0.0
O708 O 0.54919 0.05016 0.03929 0.0
H709 H 0.56447 0.06448 0.03407 0.0
O710 O 0.48452 0.07198 0.02109 0.0
Co711 Co 0.48153 0.10545 0.03013 0.0
Co712 Co 0.48088 0.08297 0.97836 0.0
H713 H 0.4692 0.05784 0.02665 0.0
O714 O 0.58751 0.04071 0.09649 0.0
O715 O 0.56114 1.00736 0.06991 0.0
O716 O 0.52444 0.02695 0.10459 0.0
O717 O 0.49668 0.03685 0.06688 0.0
O718 O 0.53176 0.08946 0.05917 0.0
O719 O 0.475 0.13477 0.03853 0.0
O720 O 0.44652 0.09493 0.03134 0.0
O721 O 0.51845 0.121 0.0312 0.0
O722 O 0.53675 0.08423 0.99567 0.0
O723 O 0.51059 0.08883 0.95373 0.0
O724 O 0.47842 0.11596 0.98445 0.0
O725 O 0.44888 0.08448 0.95871 0.0
C726 C 0.57863 1.0037 0.00903 0.0
C727 C 0.49897 1.00783 0.01259 0.0
C728 C 0.50142 0.02614 0.09416 0.0
C729 C 0.58362 0.01856 0.08394 0.0
C730 C 0.45107 0.11963 0.03667 0.0
C731 C 0.5348 0.11372 0.05059 0.0
C732 C 0.53322 0.09156 0.96669 0.0
C733 C 0.45689 0.10847 0.96701 0.0
O734 O 0.55512 0.98858 0.01328 0.0
O735 O 0.58499 0.02819 0.01618 0.0
O736 O 0.50154 0.03182 0.00291 0.0
O737 O 0.51526 1.00189 0.03315 0.0
Co738 Co 0.0519 0.50763 0.04661 0.0
Co739 Co 0.0558 0.51879 0.10203 0.0
Co740 Co 1.02067 0.55735 0.05741 0.0
O741 O 0.0521 0.54062 0.06453 0.0
H742 H 0.06842 0.55408 0.06117 0.0
O743 O 0.98863 0.57398 0.05351 0.0
Co744 Co 0.98546 0.60695 0.07435 0.0
Co745 Co 0.99021 0.59903 0.01963 0.0
H746 H 0.97213 0.56037 0.05258 0.0
O747 O 0.08777 0.51455 0.12279 0.0
O748 O 0.06194 0.48755 0.08904 0.0
O749 O 1.02456 0.51119 0.12469 0.0
O750 O 1.0025 0.53576 0.09454 0.0
O751 O 0.04017 0.58654 0.08384 0.0
O752 O 0.98146 0.63521 0.09445 0.0
O753 O 0.94885 0.60014 0.08359 0.0
O754 O 1.02244 0.62012 0.07087 0.0
O755 O 0.04086 0.57963 0.01964 0.0
O756 O 1.02311 0.61138 1.00021 0.0
O757 O 0.97815 0.62605 0.03185 0.0
O758 O 0.96103 0.59771 0.9941 0.0
C759 C 0.07799 0.49379 0.02596 0.0
C760 C 0.99858 0.50278 0.03304 0.0
C761 C 1.00459 0.51946 0.1181 0.0
C762 C 0.08241 0.49246 0.10973 0.0
C763 C 0.95672 0.62314 0.09599 0.0
C764 C 0.04209 0.61111 0.07749 0.0
C765 C 0.04152 0.60083 1.00159 0.0
C766 C 0.96195 0.61902 0.00711 0.0
O767 O 0.05362 0.48027 0.02767 0.0
O768 O 0.08615 0.51685 0.03751 0.0
O769 O 1.00035 0.52767 0.02962 0.0
O770 O 1.0149 0.49427 0.05156 0.0
Co771 Co 0.59323 0.49401 0.97551 0.0
Co772 Co 0.57826 0.46925 0.02451 0.0
Co773 Co 0.55733 0.51706 0.02253 0.0
O774 O 0.58719 0.50412 0.0156 0.0
H775 H 0.603 0.5129 0.02735 0.0
O776 O 0.52737 0.52978 0.03034 0.0
Co777 Co 0.53318 0.5649 0.04157 0.0
Co778 Co 0.51236 0.53931 0.99157 0.0
H779 H 0.5145 0.51688 0.04255 0.0
O780 O 0.60342 0.45836 0.04607 0.0
O781 O 0.59224 0.45695 0.99354 0.0
O782 O 0.54497 0.4536 0.04302 0.0
O783 O 0.54762 0.49212 0.06095 0.0
O784 O 0.58148 0.544 0.04874 0.0
O785 O 0.53588 0.59649 0.05333 0.0
O786 O 0.50298 0.55909 0.06026 0.0
O787 O 0.56593 0.5749 0.02462 0.0
O788 O 0.56769 0.54139 0.98371 0.0
O789 O 0.5314 0.54162 0.95468 0.0
O790 O 0.51659 0.57351 1.00056 0.0
O791 O 0.47887 0.54323 0.98826 0.0
C792 C 0.62534 0.49771 0.95142 0.0
C793 C 0.53494 0.48017 0.97306 0.0
C794 C 0.53809 0.46702 0.0618 0.0
C795 C 0.60501 0.45021 0.01894 0.0
C796 C 0.51312 0.58419 0.06382 0.0
C797 C 0.58315 0.56836 0.04304 0.0
C798 C 0.55595 0.54595 0.95747 0.0
C799 C 0.49147 0.56707 0.99491 0.0
O800 O 0.60194 0.4873 0.93942 0.0
O801 O 0.6286 0.50492 0.9801 0.0
O802 O 0.53212 0.4912 0.99676 0.0
O803 O 0.55726 0.4815 0.96443 0.0
Co804 Co 0.09826 0.49672 0.56489 0.0
Co805 Co 0.07629 0.49402 0.50712 0.0
Co806 Co 0.04791 0.52264 0.54892 0.0
O807 O 0.06365 0.49372 0.54626 0.0
H808 H 0.05161 0.47662 0.55151 0.0
O809 O 0.03287 0.55189 0.55261 0.0
Co810 Co 0.99751 0.54995 0.54097 0.0
Co811 Co 1.02525 0.55049 0.59469 0.0
H812 H 0.04468 0.56889 0.54645 0.0
O813 O 0.08419 0.46469 0.49433 0.0
O814 O 0.11005 0.49643 0.52287 0.0
O815 O 0.07804 0.52491 0.47917 0.0
O816 O 0.07063 0.54794 0.51623 0.0
O817 O 1.02073 0.50756 0.51601 0.0
O818 O 0.96565 0.55117 0.53016 0.0
O819 O 1.00182 0.58509 0.53758 0.0
O820 O 0.98835 0.51263 0.54121 0.0
O821 O 1.02531 0.49738 0.58086 0.0
O822 O 1.02608 0.51966 0.62197 0.0
O823 O 0.99043 0.54855 0.58643 0.0
O824 O 1.0214 0.57945 0.6117 0.0
C825 C 0.1176 0.47043 0.58421 0.0
C826 C 0.0977 0.54692 0.57598 0.0
C827 C 0.07883 0.54671 0.48932 0.0
C828 C 0.10657 0.47518 0.50871 0.0
C829 C 0.9767 0.57633 0.53129 0.0
C830 C 0.99653 0.50138 0.52104 0.0
C831 C 1.02106 0.49799 0.60958 0.0
C832 C 0.99712 0.56928 0.60262 0.0
O833 O 0.129 0.4957 0.58259 0.0
O834 O 0.09357 0.46163 0.57283 0.0
O835 O 0.07407 0.53747 0.58242 0.0
O836 O 0.10809 0.53421 0.56023 0.0
Co837 Co 0.59611 0.9901 0.5213 0.0
Co838 Co 0.57751 0.98714 0.46557 0.0
Co839 Co 0.54388 0.02229 0.49876 0.0
O840 O 0.56048 0.99046 0.5015 0.0
H841 H 0.54755 0.97399 0.50695 0.0
O842 O 0.52882 0.05549 0.49294 0.0
Co843 Co 0.49438 0.06027 0.46989 0.0
Co844 Co 0.51144 0.05751 0.52731 0.0
H845 H 0.54285 0.0716 0.48993 0.0
O846 O 0.57825 0.95539 0.45101 0.0
O847 O 0.61075 0.98233 0.47912 0.0
O848 O 0.58152 0.01704 0.43564 0.0
O849 O 0.56385 0.04129 0.46161 0.0
O850 O 0.51347 1.00339 0.47119 0.0
O851 O 0.46386 0.06587 0.44866 0.0
O852 O 0.4997 0.09813 0.45771 0.0
O853 O 0.48205 0.02275 0.47694 0.0
O854 O 0.52229 1.0016 0.53666 0.0
O855 O 0.50109 0.02671 0.55478 0.0
O856 O 0.48152 0.06541 0.51035 0.0
O857 O 0.51441 0.08929 0.54154 0.0
C858 C 0.61368 0.96264 0.54701 0.0
C859 C 0.59869 0.04437 0.52862 0.0
C860 C 0.57613 0.03828 0.43869 0.0
C861 C 0.60276 0.96237 0.46052 0.0
C862 C 0.47533 0.09111 0.44587 0.0
C863 C 0.48964 1.00233 0.47478 0.0
C864 C 0.50603 1.00488 0.55535 0.0
C865 C 0.49106 0.08512 0.52814 0.0
O866 O 0.62603 0.98752 0.54192 0.0
O867 O 0.58973 0.95427 0.53467 0.0
O868 O 0.574 0.04183 0.52754 0.0
O869 O 0.6078 0.02886 0.51467 0.0
C870 C 0.20756 0.24371 0.34196 0.0
C871 C 0.21768 0.23658 0.31618 0.0
C872 C 0.18743 0.22546 0.35788 0.0
C873 C 0.15797 0.15411 0.37281 0.0
H874 H 0.10039 0.17412 0.40079 0.0
C875 C 0.05383 0.10324 0.43424 0.0
C876 C 0.06231 0.08818 0.45948 0.0
C877 C 0.07183 0.12063 0.41463 0.0
C878 C 0.11621 0.16819 0.39282 0.0
H879 H 0.21424 0.20477 0.28661 0.0
H880 H 0.17918 0.17321 0.31422 0.0
H881 H 0.13358 0.20656 0.37058 0.0
H882 H 0.09621 0.07893 0.48331 0.0
H883 H 0.12744 0.1092 0.44923 0.0
H884 H 0.14063 0.11576 0.39491 0.0
C885 C 0.187 0.19276 0.32237 0.0
C886 C 0.13535 0.18683 0.37588 0.0
C887 C 0.20705 0.21094 0.30647 0.0
C888 C 0.08902 0.09029 0.46413 0.0
C889 C 0.10693 0.10753 0.44449 0.0
C890 C 0.13891 0.13553 0.3898 0.0
C891 C 0.1771 0.19975 0.34835 0.0
C892 C 0.15648 0.17999 0.36584 0.0
C893 C 0.09858 0.12311 0.41978 0.0
C894 C 0.11793 0.14242 0.40017 0.0
H895 H 0.21531 0.26328 0.35007 0.0
H896 H 0.18033 0.23131 0.37805 0.0
H897 H 0.17415 0.14832 0.36563 0.0
H898 H 0.03339 0.10207 0.43002 0.0
H899 H 0.06484 0.13221 0.39553 0.0
C900 C 0.8681 0.19487 0.32497 0.0
C901 C 0.88168 0.21634 0.30528 0.0
C902 C 0.87981 0.18761 0.35335 0.0
C903 C 0.90365 0.18348 0.41922 0.0
H904 H 0.97328 0.17661 0.41809 0.0
C905 C 0.98335 0.13637 0.49798 0.0
C906 C 0.96673 0.11067 0.50346 0.0
C907 C 0.97399 0.15578 0.48072 0.0
C908 C 0.95408 0.17902 0.41915 0.0
H909 H 0.91804 0.24737 0.30005 0.0
H910 H 0.93875 0.23452 0.34981 0.0
H911 H 0.9552 0.19816 0.37272 0.0
H912 H 0.92685 0.08586 0.49828 0.0
H913 H 0.91052 0.11962 0.46852 0.0
H914 H 0.90209 0.16304 0.46504 0.0
C915 C 0.91906 0.22318 0.34308 0.0
C916 C 0.94369 0.19133 0.39307 0.0
C917 C 0.9073 0.23045 0.31456 0.0
C918 C 0.94015 0.10544 0.49414 0.0
C919 C 0.93076 0.12487 0.47723 0.0
C920 C 0.91402 0.1711 0.44524 0.0
C921 C 0.9054 0.20169 0.36282 0.0
C922 C 0.918 0.19282 0.39237 0.0
C923 C 0.94782 0.14987 0.46911 0.0
C924 C 0.939 0.16792 0.44502 0.0
H925 H 0.84842 0.18347 0.31825 0.0
H926 H 0.86896 0.17056 0.36759 0.0
H927 H 0.88402 0.1849 0.41967 0.0
H928 H 1.00394 0.141 0.50496 0.0
H929 H 0.98749 0.17499 0.47511 0.0
C930 C 0.86546 0.84977 0.31549 0.0
C931 C 0.84068 0.83738 0.32681 0.0
C932 C 0.88464 0.86667 0.33388 0.0
C933 C 0.89235 0.90749 0.40032 0.0
H934 H 0.96363 0.90408 0.40718 0.0
C935 C 0.99142 0.94356 0.48494 0.0
C936 C 0.99322 0.9703 0.4862 0.0
C937 C 0.97299 0.92814 0.46448 0.0
C938 C 0.94376 0.90517 0.40556 0.0
H939 H 0.81697 0.83221 0.36678 0.0
H940 H 0.85046 0.86122 0.39889 0.0
H941 H 0.93119 0.87514 0.37328 0.0
H942 H 0.97684 1.00175 0.46738 0.0
H943 H 0.94458 0.97469 0.43151 0.0
H944 H 0.90475 0.93704 0.43319 0.0
C945 C 0.85487 0.8584 0.37554 0.0
C946 C 0.92529 0.88883 0.38592 0.0
C947 C 0.83574 0.84158 0.3572 0.0
C948 C 0.97589 0.98119 0.46697 0.0
C949 C 0.9574 0.96571 0.4465 0.0
C950 C 0.91082 0.92387 0.41991 0.0
C951 C 0.8794 0.87135 0.36395 0.0
C952 C 0.89934 0.88962 0.38341 0.0
C953 C 0.95594 0.93909 0.44489 0.0
C954 C 0.93663 0.92265 0.42298 0.0
H955 H 0.86997 0.84665 0.29232 0.0
H956 H 0.90339 0.87645 0.32434 0.0
H957 H 0.87254 0.90875 0.3985 0.0
H958 H 1.00442 0.93454 0.49954 0.0
H959 H 0.97199 0.90756 0.46413 0.0
C960 C 0.17214 0.82514 0.36822 0.0
C961 C 0.17277 0.8315 0.33569 0.0
C962 C 0.1714 0.84392 0.38831 0.0
C963 C 0.14669 0.87741 0.41974 0.0
H964 H 0.17198 0.95305 0.40021 0.0
C965 C 0.08954 0.9441 0.4482 0.0
C966 C 0.10217 0.9669 0.46359 0.0
C967 C 0.10385 0.92997 0.43599 0.0
C968 C 0.1652 0.93201 0.40631 0.0
H969 H 0.17443 0.8626 0.29858 0.0
H970 H 0.17179 0.89509 0.33331 0.0
H971 H 0.18919 0.92365 0.37377 0.0
H972 H 0.13982 0.99359 0.47686 0.0
H973 H 0.16512 0.96866 0.45488 0.0
H974 H 0.12247 0.8857 0.45183 0.0
C975 C 0.17261 0.87593 0.34364 0.0
C976 C 0.17478 0.91513 0.39096 0.0
C977 C 0.17382 0.85726 0.32364 0.0
C978 C 0.12957 0.97614 0.46495 0.0
C979 C 0.14403 0.96186 0.45258 0.0
C980 C 0.1373 0.89421 0.43511 0.0
C981 C 0.17072 0.8693 0.37618 0.0
C982 C 0.16482 0.88756 0.39657 0.0
C983 C 0.13118 0.93824 0.4388 0.0
C984 C 0.14556 0.92154 0.42751 0.0
H985 H 0.17194 0.80553 0.37808 0.0
H986 H 0.17064 0.83829 0.41328 0.0
H987 H 0.13835 0.85638 0.42467 0.0
H988 H 0.06847 0.93659 0.44639 0.0
H989 H 0.09345 0.91221 0.42471 0.0
C990 C 0.26646 0.88775 0.61596 0.0
C991 C 0.25906 0.89017 0.64601 0.0
C992 C 0.24939 0.88851 0.5894 0.0
C993 C 0.18004 0.88069 0.56702 0.0
H994 H 0.20207 0.94589 0.51442 0.0
C995 C 0.10856 0.93879 0.53614 0.0
C996 C 0.11935 0.96388 0.54735 0.0
C997 C 0.12477 0.92409 0.52921 0.0
C998 C 0.19557 0.92726 0.52834 0.0
H999 H 0.22839 0.89638 0.67132 0.0
H1000 H 0.19878 0.89685 0.62576 0.0
H1001 H 0.23475 0.92689 0.54188 0.0
H1002 H 0.15547 0.99398 0.55788 0.0
H1003 H 0.18346 0.96827 0.5473 0.0
H1004 H 0.14121 0.88279 0.55736 0.0
C1005 C 0.21742 0.89376 0.62267 0.0
C1006 C 0.21432 0.91625 0.54378 0.0
C1007 C 0.23447 0.89354 0.64883 0.0
C1008 C 0.14653 0.97452 0.54986 0.0
C1009 C 0.16264 0.9599 0.54304 0.0
C1010 C 0.16135 0.89185 0.55197 0.0
C1011 C 0.22458 0.89113 0.59275 0.0
C1012 C 0.20664 0.89432 0.56556 0.0
C1013 C 0.15203 0.93416 0.53359 0.0
C1014 C 0.16918 0.91669 0.53517 0.0
H1015 H 0.28525 0.88502 0.61301 0.0
H1016 H 0.25547 0.88699 0.56641 0.0
H1017 H 0.17371 0.8634 0.58327 0.0
H1018 H 0.08763 0.93027 0.53345 0.0
H1019 H 0.11596 0.90444 0.52169 0.0
C1020 C 0.21334 0.20488 0.77205 0.0
C1021 C 0.23782 0.21549 0.75948 0.0
C1022 C 0.19429 0.18477 0.75767 0.0
C1023 C 0.15397 0.16327 0.706 0.0
H1024 H 0.16819 0.11007 0.66086 0.0
C1025 C 0.08788 0.11868 0.60056 0.0
C1026 C 0.08335 0.09168 0.59756 0.0
C1027 C 0.10634 0.13139 0.62319 0.0
C1028 C 0.16373 0.12459 0.6736 0.0
H1029 H 0.26246 0.21182 0.72381 0.0
H1030 H 0.22932 0.17733 0.69839 0.0
H1031 H 0.20089 0.13326 0.69903 0.0
H1032 H 0.0947 0.05684 0.6159 0.0
H1033 H 0.12633 0.07883 0.6555 0.0
H1034 H 0.11674 0.15446 0.68078 0.0
C1035 C 0.22467 0.18423 0.71943 0.0
C1036 C 0.18257 0.13801 0.6953 0.0
C1037 C 0.24364 0.20421 0.73385 0.0
C1038 C 0.0978 0.07772 0.61741 0.0
C1039 C 0.11604 0.09035 0.64011 0.0
C1040 C 0.13506 0.14972 0.68446 0.0
C1041 C 0.19945 0.17503 0.73042 0.0
C1042 C 0.17812 0.1579 0.71123 0.0
C1043 C 0.12048 0.11729 0.64335 0.0
C1044 C 0.13994 0.13061 0.66756 0.0
H1045 H 0.20814 0.21328 0.79142 0.0
H1046 H 0.17515 0.17777 0.76698 0.0
H1047 H 0.15002 0.17872 0.71755 0.0
H1048 H 0.07708 0.12996 0.58559 0.0
H1049 H 0.10965 0.1523 0.62473 0.0
C1050 C 0.86445 0.13884 0.79417 0.0
C1051 C 0.87756 0.16392 0.80425 0.0
C1052 C 0.87392 0.12911 0.77003 0.0
C1053 C 0.9149 0.15263 0.70251 0.0
H1054 H 0.91913 0.08098 0.70631 0.0
C1055 C 0.9464 0.07915 0.62139 0.0
C1056 C 0.97039 0.09634 0.61215 0.0
C1057 C 0.93211 0.08657 0.6427 0.0
C1058 C 0.91765 0.10091 0.70466 0.0
H1059 H 0.91144 0.19787 0.79818 0.0
H1060 H 0.92803 0.18088 0.75627 0.0
H1061 H 0.90037 0.09496 0.74906 0.0
H1062 H 0.99773 0.13511 0.61711 0.0
H1063 H 0.97294 0.14794 0.65413 0.0
H1064 H 0.93246 0.15877 0.65844 0.0
C1065 C 0.91017 0.16896 0.76648 0.0
C1066 C 0.90698 0.10892 0.72917 0.0
C1067 C 0.90075 0.17864 0.79056 0.0
C1068 C 0.97934 0.12138 0.62377 0.0
C1069 C 0.96504 0.12881 0.64487 0.0
C1070 C 0.9255 0.14464 0.67806 0.0
C1071 C 0.89661 0.14433 0.75553 0.0
C1072 C 0.90602 0.13503 0.72863 0.0
C1073 C 0.94145 0.11138 0.65492 0.0
C1074 C 0.92749 0.11886 0.67916 0.0
H1075 H 0.84635 0.12722 0.80408 0.0
H1076 H 0.86302 0.11009 0.76198 0.0
H1077 H 0.91384 0.17271 0.70109 0.0
H1078 H 0.93899 0.05972 0.61283 0.0
H1079 H 0.91386 0.07283 0.6498 0.0
C1080 C 0.85009 0.85524 0.72592 0.0
C1081 C 0.85087 0.84215 0.75592 0.0
C1082 C 0.87207 0.87444 0.71524 0.0
C1083 C 0.94165 0.89346 0.71984 0.0
H1084 H 0.93513 0.96055 0.68152 0.0
C1085 C 1.02348 0.96732 0.64963 0.0
C1086 C 1.01468 0.97786 0.62082 0.0
C1087 C 1.00574 0.95354 0.67182 0.0
C1088 C 0.93727 0.9419 0.69209 0.0
H1089 H 0.87519 0.83866 0.79831 0.0
H1090 H 0.91413 0.87199 0.77903 0.0
H1091 H 0.89936 0.9307 0.71023 0.0
H1092 H 0.98032 0.98228 0.59287 0.0
H1093 H 0.94962 0.95794 0.63097 0.0
H1094 H 0.97888 0.90385 0.70007 0.0
C1095 C 0.89631 0.86748 0.76411 0.0
C1096 C 0.91688 0.92494 0.70863 0.0
C1097 C 0.87411 0.84851 0.77506 0.0
C1098 C 0.98785 0.97453 0.61481 0.0
C1099 C 0.97021 0.96075 0.63686 0.0
C1100 C 0.962 0.91032 0.70294 0.0
C1101 C 0.89534 0.88066 0.73418 0.0
C1102 C 0.9186 0.90028 0.72176 0.0
C1103 C 0.97889 0.95009 0.6656 0.0
C1104 C 0.9596 0.93431 0.68797 0.0
H1105 H 0.83241 0.85092 0.71079 0.0
H1106 H 0.871 0.88419 0.69191 0.0
H1107 H 0.94329 0.87443 0.72973 0.0
H1108 H 0.04405 0.96968 0.65504 0.0
H1109 H 1.01302 0.94565 0.69384 0.0
C1110 C 0.26075 0.18514 0.08266 0.0
C1111 C 0.26674 0.21038 0.09341 0.0
C1112 C 0.27953 0.17767 0.06822 0.0
C1113 C 0.35061 0.19402 0.07223 0.0
H1114 H 0.33944 0.14371 0.00941 0.0
C1115 C 0.43455 0.15842 0.03946 0.0
C1116 C 0.42932 0.13112 0.03788 0.0
C1117 C 0.41426 0.16958 0.04033 0.0
C1118 C 0.34277 0.15768 0.02709 0.0
H1119 H 0.29574 0.24839 0.09506 0.0
H1120 H 0.32824 0.23575 0.06896 0.0
H1121 H 0.30404 0.16152 0.01949 0.0
H1122 H 0.39859 0.09425 0.03466 0.0
H1123 H 0.36304 0.11373 0.03709 0.0
H1124 H 0.38888 0.18981 0.08061 0.0
C1125 C 0.30944 0.22142 0.07241 0.0
C1126 C 0.32256 0.16791 0.03279 0.0
C1127 C 0.29082 0.22875 0.0871 0.0
C1128 C 0.40326 0.11531 0.0363 0.0
C1129 C 0.38289 0.12651 0.03731 0.0
C1130 C 0.37069 0.18385 0.06657 0.0
C1131 C 0.30449 0.19542 0.06422 0.0
C1132 C 0.32623 0.18607 0.05563 0.0
C1133 C 0.38822 0.15373 0.03983 0.0
C1134 C 0.367 0.16541 0.04415 0.0
H1135 H 0.24232 0.17062 0.08753 0.0
H1136 H 0.27512 0.15747 0.0623 0.0
H1137 H 0.35397 0.20741 0.09057 0.0
H1138 H 0.45437 0.17128 0.04003 0.0
H1139 H 0.419 0.19069 0.04163 0.0
C1140 C 0.80013 0.36851 0.20103 0.0
C1141 C 0.80288 0.35611 0.23106 0.0
C1142 C 0.82084 0.38915 0.18938 0.0
C1143 C 0.89088 0.41216 0.19726 0.0
H1144 H 0.88632 0.48155 0.16554 0.0
C1145 C 0.98293 0.49264 0.16484 0.0
C1146 C 0.98126 0.50727 0.13602 0.0
C1147 C 0.96031 0.47749 0.17892 0.0
C1148 C 0.88783 0.46218 0.17408 0.0
H1149 H 0.82784 0.35749 0.27378 0.0
H1150 H 0.86382 0.39277 0.2534 0.0
H1151 H 0.84709 0.44753 0.18263 0.0
H1152 H 0.95461 0.51894 0.1004 0.0
H1153 H 0.91536 0.49187 0.12433 0.0
H1154 H 0.93111 0.42599 0.18809 0.0
C1155 C 0.8462 0.38611 0.23848 0.0
C1156 C 0.86541 0.44281 0.18372 0.0
C1157 C 0.8257 0.36569 0.24999 0.0
C1158 C 0.9566 0.50784 0.12263 0.0
C1159 C 0.93401 0.49239 0.13644 0.0
C1160 C 0.9131 0.43127 0.18728 0.0
C1161 C 0.84412 0.39769 0.20796 0.0
C1162 C 0.86693 0.41778 0.19559 0.0
C1163 C 0.93563 0.47634 0.16416 0.0
C1164 C 0.91193 0.45659 0.17584 0.0
H1165 H 0.78237 0.36178 0.1864 0.0
H1166 H 0.81898 0.39792 0.16568 0.0
H1167 H 0.89238 0.39288 0.20622 0.0
H1168 H 1.00168 0.49214 0.17595 0.0
H1169 H 0.96219 0.46591 0.20081 0.0
C1170 C 0.75061 0.90663 0.07378 0.0
C1171 C 0.76157 0.90663 0.10477 0.0
C1172 C 0.73559 0.92359 0.06335 0.0
C1173 C 0.7158 0.98032 0.08669 0.0
H1174 H 0.64913 0.94472 0.04647 0.0
C1175 C 0.63079 0.0255 0.07867 0.0
C1176 C 0.60573 1.00806 0.08194 0.0
C1177 C 0.65165 0.01604 0.07428 0.0
C1178 C 0.66759 0.95495 0.0578 0.0
H1179 H 0.7673 0.92566 0.14823 0.0
H1180 H 0.74064 0.95443 0.13068 0.0
H1181 H 0.68425 0.92439 0.05065 0.0
H1182 H 0.58256 0.96718 0.08315 0.0
H1183 H 0.61924 0.95026 0.07794 0.0
H1184 H 0.69869 1.00966 0.09641 0.0
C1185 C 0.7437 0.94176 0.11409 0.0
C1186 C 0.68795 0.94349 0.0597 0.0
C1187 C 0.75872 0.92498 0.12439 0.0
C1188 C 0.60181 0.98096 0.08094 0.0
C1189 C 0.62283 0.97138 0.07741 0.0
C1190 C 0.69536 0.99153 0.08526 0.0
C1191 C 0.73135 0.9408 0.08376 0.0
C1192 C 0.71196 0.95557 0.0753 0.0
C1193 C 0.64807 0.98881 0.07398 0.0
C1194 C 0.6707 0.97859 0.07168 0.0
H1195 H 0.75255 0.89265 0.05816 0.0
H1196 H 0.72661 0.92263 0.03971 0.0
H1197 H 0.73426 0.99046 0.09819 0.0
H1198 H 0.63414 0.04659 0.07851 0.0
H1199 H 0.67051 0.03019 0.07079 0.0
C1200 C 0.24091 0.76427 0.17158 0.0
C1201 C 0.24691 0.74919 0.19843 0.0
C1202 C 0.22441 0.75201 0.14703 0.0
C1203 C 0.17319 0.72379 0.11426 0.0
H1204 H 0.16254 0.64994 0.10368 0.0
C1205 C 0.07159 0.65423 0.09272 0.0
C1206 C 0.06811 0.63014 0.08005 0.0
C1207 C 0.09653 0.67159 0.09689 0.0
C1208 C 0.16532 0.67072 0.10544 0.0
H1209 H 0.24161 0.70938 0.21966 0.0
H1210 H 0.21214 0.68827 0.17824 0.0
H1211 H 0.20327 0.67535 0.1277 0.0
H1212 H 0.08733 0.60599 0.05943 0.0
H1213 H 0.13077 0.63692 0.06487 0.0
H1214 H 0.13555 0.71939 0.09111 0.0
C1215 C 0.22052 0.70945 0.17534 0.0
C1216 C 0.18865 0.68524 0.11984 0.0
C1217 C 0.23724 0.72164 0.19952 0.0
C1218 C 0.0897 0.62428 0.06989 0.0
C1219 C 0.11457 0.642 0.07313 0.0
C1220 C 0.15012 0.70946 0.09904 0.0
C1221 C 0.21336 0.72447 0.14907 0.0
C1222 C 0.19219 0.71147 0.12623 0.0
C1223 C 0.11846 0.66556 0.08759 0.0
C1224 C 0.14521 0.68232 0.0962 0.0
H1225 H 0.24836 0.78556 0.16983 0.0
H1226 H 0.21976 0.76419 0.1269 0.0
H1227 H 0.17516 0.744 0.11849 0.0
H1228 H 0.05517 0.65915 0.10069 0.0
H1229 H 0.09856 0.68915 0.10871 0.0
C1230 C 0.3355 0.86096 0.85008 0.0
C1231 C 0.33363 0.83397 0.85364 0.0
C1232 C 0.35241 0.87833 0.86989 0.0
C1233 C 0.3903 0.88348 0.94558 0.0
H1234 H 0.4315 0.94873 0.90388 0.0
C1235 C 0.47643 0.96007 0.00634 0.0
C1236 C 0.47806 0.98675 0.99829 0.0
C1237 C 0.45784 0.94029 0.99092 0.0
C1238 C 0.41994 0.93074 0.91591 0.0
H1239 H 0.34703 0.80381 0.88195 0.0
H1240 H 0.37719 0.83451 0.91639 0.0
H1241 H 0.40108 0.91588 0.87289 0.0
H1242 H 0.46067 1.01353 0.96892 0.0
H1243 H 0.42824 0.97902 0.94221 0.0
H1244 H 0.40944 0.89854 0.98869 0.0
C1245 C 0.36543 0.84207 0.89816 0.0
C1246 C 0.40255 0.91192 0.89817 0.0
C1247 C 0.34837 0.82457 0.87828 0.0
C1248 C 0.46013 0.99319 0.97542 0.0
C1249 C 0.44162 0.97345 0.96003 0.0
C1250 C 0.40783 0.90238 0.96341 0.0
C1251 C 0.36794 0.86918 0.8937 0.0
C1252 C 0.38728 0.88828 0.91283 0.0
C1253 C 0.44063 0.94686 0.96718 0.0
C1254 C 0.42253 0.92633 0.94871 0.0
H1255 H 0.32433 0.86893 0.83152 0.0
H1256 H 0.35354 0.89905 0.86632 0.0
H1257 H 0.37868 0.86544 0.95745 0.0
H1258 H 0.48992 0.95448 0.02397 0.0
H1259 H 0.45755 0.91995 0.99679 0.0
C1260 C 0.19935 0.37097 0.90076 0.0
C1261 C 0.21422 0.35948 0.92327 0.0
C1262 C 0.18763 0.38944 0.90902 0.0
C1263 C 0.18624 0.43213 0.97323 0.0
H1264 H 0.11611 0.42524 0.93751 0.0
C1265 C 0.12243 0.49536 0.00879 0.0
C1266 C 0.0959 0.48192 0.01209 0.0
C1267 C 0.13874 0.4833 0.99583 0.0
C1268 C 0.13563 0.42739 0.94791 0.0
H1269 H 0.22958 0.35988 0.97181 0.0
H1270 H 0.20844 0.39098 0.98642 0.0
H1271 H 0.14125 0.39924 0.91924 0.0
H1272 H 0.06598 0.445 0.00482 0.0
H1273 H 0.0941 0.42418 0.98315 0.0
H1274 H 0.17992 0.45935 0.00308 0.0
C1275 C 0.20598 0.38607 0.96223 0.0
C1276 C 0.15029 0.4127 0.93702 0.0
C1277 C 0.21784 0.3678 0.95393 0.0
C1278 C 0.08621 0.45619 0.00238 0.0
C1279 C 0.10238 0.44421 0.98965 0.0
C1280 C 0.17146 0.44673 0.9843 0.0
C1281 C 0.19032 0.39687 0.94007 0.0
C1282 C 0.17568 0.41447 0.94984 0.0
C1283 C 0.12885 0.45756 0.98593 0.0
C1284 C 0.14573 0.44416 0.97222 0.0
H1285 H 0.196 0.36507 0.87696 0.0
H1286 H 0.17615 0.39762 0.89107 0.0
H1287 H 0.20586 0.43446 0.98336 0.0
H1288 H 0.13057 0.51515 0.01611 0.0
H1289 H 0.159 0.49426 0.99325 0.0
C1290 C 0.72345 0.25355 0.85821 0.0
C1291 C 0.73513 0.24669 0.83362 0.0
C1292 C 0.70205 0.23542 0.87204 0.0
C1293 C 0.66783 0.1649 0.88473 0.0
H1294 H 0.6082 0.18904 0.89642 0.0
C1295 C 0.58163 0.10645 0.96092 0.0
C1296 C 0.55635 0.10598 0.94875 0.0
C1297 C 0.60356 0.12191 0.94542 0.0
C1298 C 0.62462 0.18194 0.89313 0.0
H1299 H 0.73295 0.21581 0.80337 0.0
H1300 H 0.6959 0.18381 0.82811 0.0
H1301 H 0.64653 0.21956 0.87284 0.0
H1302 H 0.5344 0.12095 0.91021 0.0
H1303 H 0.57266 0.14806 0.88341 0.0
H1304 H 0.64589 0.12729 0.90538 0.0
C1305 C 0.70354 0.20313 0.83693 0.0
C1306 C 0.64666 0.19948 0.87991 0.0
C1307 C 0.72475 0.22142 0.82281 0.0
C1308 C 0.55353 0.1208 0.92027 0.0
C1309 C 0.57546 0.13648 0.905 0.0
C1310 C 0.64586 0.14739 0.89838 0.0
C1311 C 0.69183 0.21002 0.86153 0.0
C1312 C 0.6685 0.19118 0.87556 0.0
C1313 C 0.60072 0.13749 0.91761 0.0
C1314 C 0.62398 0.15573 0.90264 0.0
H1315 H 0.73091 0.27299 0.86677 0.0
H1316 H 0.69351 0.24123 0.89106 0.0
H1317 H 0.68445 0.15801 0.8818 0.0
H1318 H 0.58455 0.09523 0.98275 0.0
H1319 H 0.62277 0.12238 0.95582 0.0
C1320 C 0.84222 0.7587 0.83874 0.0
C1321 C 0.81588 0.74446 0.83287 0.0
C1322 C 0.85894 0.74791 0.85974 0.0
C1323 C 0.85974 0.69662 0.92653 0.0
H1324 H 0.92705 0.69852 0.89911 0.0
C1325 C 0.93659 0.65337 0.0053 0.0
C1326 C 0.94695 0.63682 0.99 0.0
C1327 C 0.92136 0.66846 0.98821 0.0
C1328 C 0.90838 0.69786 0.90733 0.0
H1329 H 0.78686 0.70748 0.84436 0.0
H1330 H 0.81546 0.68922 0.88154 0.0
H1331 H 0.89944 0.72122 0.86628 0.0
H1332 H 0.94966 0.62415 0.94422 0.0
H1333 H 0.92432 0.65072 0.91492 0.0
H1334 H 0.86877 0.67323 0.96763 0.0
C1335 C 0.82333 0.70874 0.87012 0.0
C1336 C 0.89253 0.71109 0.88847 0.0
C1337 C 0.80686 0.71923 0.84867 0.0
C1338 C 0.94207 0.63646 0.95711 0.0
C1339 C 0.92754 0.65191 0.94009 0.0
C1340 C 0.87587 0.68386 0.94574 0.0
C1341 C 0.84978 0.72269 0.87583 0.0
C1342 C 0.8677 0.71036 0.89741 0.0
C1343 C 0.91666 0.66806 0.9552 0.0
C1344 C 0.90032 0.68383 0.93625 0.0
H1345 H 0.85008 0.77791 0.82653 0.0
H1346 H 0.87911 0.75938 0.8634 0.0
H1347 H 0.8409 0.69565 0.93447 0.0
H1348 H 0.93972 0.65418 0.03052 0.0
H1349 H 0.91343 0.68065 1.00083 0.0
C1350 C 0.24519 0.35957 0.20781 0.0
C1351 C 0.23843 0.33945 0.23273 0.0
C1352 C 0.22766 0.37387 0.1936 0.0
C1353 C 0.16651 0.39453 0.20749 0.0
H1354 H 0.16658 0.41777 0.1189 0.0
C1355 C 0.11074 0.47352 0.15306 0.0
C1356 C 0.09829 0.47244 0.12228 0.0
C1357 C 0.1263 0.45665 0.16549 0.0
C1358 C 0.16595 0.41162 0.14375 0.0
H1359 H 0.2068 0.32112 0.263 0.0
H1360 H 0.17684 0.34597 0.2392 0.0
H1361 H 0.19507 0.39112 0.14148 0.0
H1362 H 0.09442 0.45125 0.0808 0.0
H1363 H 0.12196 0.42276 0.10173 0.0
H1364 H 0.13796 0.41557 0.21001 0.0
C1365 C 0.19573 0.35022 0.22962 0.0
C1366 C 0.18279 0.39613 0.15705 0.0
C1367 C 0.2131 0.33541 0.24333 0.0
C1368 C 0.10292 0.45322 0.10458 0.0
C1369 C 0.1192 0.4367 0.11681 0.0
C1370 C 0.15019 0.41056 0.19437 0.0
C1371 C 0.20235 0.37005 0.20418 0.0
C1372 C 0.18368 0.38687 0.18945 0.0
C1373 C 0.1314 0.4377 0.14788 0.0
C1374 C 0.14917 0.41971 0.16196 0.0
H1375 H 0.26449 0.36449 0.19913 0.0
H1376 H 0.23452 0.38875 0.17467 0.0
H1377 H 0.16597 0.38853 0.23238 0.0
H1378 H 0.10839 0.48768 0.16812 0.0
H1379 H 0.13493 0.45904 0.18917 0.0
C1380 C 0.22046 0.73157 0.82823 0.0
C1381 C 0.24297 0.74624 0.84481 0.0
C1382 C 0.19881 0.71523 0.84425 0.0
C1383 C 0.17947 0.68162 0.92469 0.0
H1384 H 0.10932 0.67182 0.88786 0.0
C1385 C 0.08816 0.60785 0.98491 0.0
C1386 C 0.06467 0.61481 0.98211 0.0
C1387 C 0.1099 0.62266 0.96775 0.0
C1388 C 0.12869 0.67435 0.89888 0.0
H1389 H 0.26032 0.75443 0.89145 0.0
H1390 H 0.2228 0.72679 0.91924 0.0
H1391 H 0.14607 0.70037 0.85993 0.0
H1392 H 0.04635 0.64335 0.95832 0.0
H1393 H 0.08346 0.66869 0.92938 0.0
H1394 H 0.162 0.65621 0.96407 0.0
C1395 C 0.22166 0.72753 0.89385 0.0
C1396 C 0.15004 0.69064 0.88242 0.0
C1397 C 0.24324 0.74373 0.87785 0.0
C1398 C 0.06378 0.63693 0.9613 0.0
C1399 C 0.08531 0.65159 0.94427 0.0
C1400 C 0.1581 0.66535 0.94118 0.0
C1401 C 0.19898 0.71273 0.87749 0.0
C1402 C 0.17594 0.69479 0.895 0.0
C1403 C 0.10892 0.64493 0.94705 0.0
C1404 C 0.13217 0.66147 0.92877 0.0
H1405 H 0.21974 0.73235 0.80283 0.0
H1406 H 0.18215 0.70408 0.83045 0.0
H1407 H 0.1989 0.68369 0.93532 0.0
H1408 H 0.08992 0.59118 1.0007 0.0
H1409 H 0.12744 0.61647 0.97064 0.0
C1410 C 0.36154 0.27466 0.83355 0.0
C1411 C 0.33576 0.26428 0.82179 0.0
C1412 C 0.37347 0.2593 0.8545 0.0
C1413 C 0.36077 0.19579 0.9051 0.0
H1414 H 0.43346 0.20465 0.89238 0.0
C1415 C 0.41579 0.11795 0.94408 0.0
C1416 C 0.44153 0.12712 0.95684 0.0
C1417 C 0.4018 0.13568 0.93283 0.0
C1418 C 0.41328 0.20218 0.89657 0.0
H1419 H 0.30243 0.2295 0.82153 0.0
H1420 H 0.32345 0.2022 0.85746 0.0
H1421 H 0.41115 0.23348 0.86224 0.0
H1422 H 0.47232 0.16201 0.96918 0.0
H1423 H 0.44805 0.193 0.94889 0.0
H1424 H 0.36293 0.16346 0.93852 0.0
C1425 C 0.33421 0.22255 0.85161 0.0
C1426 C 0.40043 0.21879 0.87934 0.0
C1427 C 0.32214 0.23812 0.83096 0.0
C1428 C 0.45263 0.15433 0.95917 0.0
C1429 C 0.43875 0.17207 0.94758 0.0
C1430 C 0.3736 0.17888 0.92209 0.0
C1431 C 0.36018 0.23285 0.86338 0.0
C1432 C 0.37395 0.21578 0.88317 0.0
C1433 C 0.41337 0.16296 0.93376 0.0
C1434 C 0.39996 0.18185 0.91782 0.0
H1435 H 0.37246 0.29476 0.82654 0.0
H1436 H 0.39325 0.26815 0.86348 0.0
H1437 H 0.34051 0.19314 0.90908 0.0
H1438 H 0.40656 0.09707 0.94232 0.0
H1439 H 0.38231 0.12811 0.92218 0.0
C1440 C 0.8489 0.32142 0.87969 0.0
C1441 C 0.83769 0.32984 0.85101 0.0
C1442 C 0.86557 0.33973 0.8997 0.0
C1443 C 0.88537 0.41163 0.91673 0.0
H1444 H 0.94534 0.39594 0.96143 0.0
C1445 C 0.96366 0.49134 0.98771 0.0
C1446 C 0.97836 0.4832 0.01356 0.0
C1447 C 0.94625 0.47286 0.96848 0.0
C1448 C 0.92851 0.40076 0.94971 0.0
H1449 H 0.8367 0.36491 0.82109 0.0
H1450 H 0.86479 0.39637 0.85577 0.0
H1451 H 0.91608 0.36389 0.9283 0.0
H1452 H 0.98517 0.44843 0.03928 0.0
H1453 H 0.95469 0.41666 0.00701 0.0
H1454 H 0.89746 0.4483 0.93838 0.0
C1455 C 0.86043 0.37558 0.86325 0.0
C1456 C 0.91157 0.38212 0.93038 0.0
C1457 C 0.84403 0.35731 0.84318 0.0
C1458 C 0.9745 0.4558 0.01967 0.0
C1459 C 0.95698 0.43736 1.00068 0.0
C1460 C 0.90217 0.43018 0.93629 0.0
C1461 C 0.87164 0.36726 0.89197 0.0
C1462 C 0.88965 0.38715 0.91334 0.0
C1463 C 0.9426 0.44537 0.97435 0.0
C1464 C 0.92424 0.42527 0.95326 0.0
H1465 H 0.84481 0.30057 0.88679 0.0
H1466 H 0.87346 0.33222 0.92154 0.0
H1467 H 0.86864 0.41641 0.90459 0.0
H1468 H 0.96603 0.51213 0.98182 0.0
H1469 H 0.93613 0.48038 0.94847 0.0
C1470 C 0.72659 0.89701 0.90851 0.0
C1471 C 0.73458 0.87927 0.93084 0.0
C1472 C 0.71126 0.91215 0.91696 0.0
C1473 C 0.66556 0.91268 0.97613 0.0
H1474 H 0.67699 0.98601 0.94541 0.0
C1475 C 0.62457 1.00585 0.99725 0.0
C1476 C 0.5979 0.99206 0.99798 0.0
C1477 C 0.64246 0.99347 0.98883 0.0
C1478 C 0.67367 0.96561 0.95438 0.0
H1479 H 0.73227 0.86332 0.97951 0.0
H1480 H 0.70599 0.88981 0.99423 0.0
H1481 H 0.70617 0.96182 0.93148 0.0
H1482 H 0.56911 0.95475 0.98923 0.0
H1483 H 0.59985 0.93371 0.97408 0.0
H1484 H 0.63328 0.91627 0.9991 0.0
C1485 C 0.71144 0.89201 0.97014 0.0
C1486 C 0.69022 0.95167 0.94613 0.0
C1487 C 0.72675 0.87697 0.96174 0.0
C1488 C 0.5895 0.96599 0.98926 0.0
C1489 C 0.60722 0.95377 0.98076 0.0
C1490 C 0.64899 0.9265 0.98415 0.0
C1491 C 0.70342 0.90976 0.94788 0.0
C1492 C 0.68628 0.92498 0.95683 0.0
C1493 C 0.63398 0.96713 0.98086 0.0
C1494 C 0.65266 0.95309 0.97323 0.0
H1495 H 0.73247 0.89947 0.88459 0.0
H1496 H 0.70521 0.92544 0.89915 0.0
H1497 H 0.66179 0.89213 0.98463 0.0
H1498 H 0.63169 0.02592 0.00391 0.0
H1499 H 0.66298 1.00428 0.98941 0.0
C1500 C 0.84029 0.75801 0.23681 0.0
C1501 C 0.81283 0.74751 0.23839 0.0
C1502 C 0.85552 0.74539 0.22119 0.0
C1503 C 0.85167 0.67914 0.18543 0.0
H1504 H 0.91889 0.7178 0.1548 0.0
C1505 C 0.91171 0.6257 0.1145 0.0
C1506 C 0.93901 0.63644 0.11168 0.0
C1507 C 0.89653 0.63891 0.12928 0.0
C1508 C 0.90033 0.70608 0.16331 0.0
H1509 H 0.78107 0.71418 0.22444 0.0
H1510 H 0.80656 0.6931 0.19757 0.0
H1511 H 0.89409 0.74042 0.18054 0.0
H1512 H 0.97066 0.67075 0.12356 0.0
H1513 H 0.94527 0.69285 0.14878 0.0
H1514 H 0.85787 0.6448 0.16836 0.0
C1515 C 0.81692 0.71105 0.20835 0.0
C1516 C 0.8857 0.71949 0.17847 0.0
C1517 C 0.80186 0.72358 0.2238 0.0
C1518 C 0.94994 0.6612 0.1246 0.0
C1519 C 0.93491 0.67432 0.13928 0.0
C1520 C 0.8663 0.66573 0.17032 0.0
C1521 C 0.84439 0.72122 0.20659 0.0
C1522 C 0.86074 0.70658 0.19012 0.0
C1523 C 0.90757 0.66382 0.14225 0.0
C1524 C 0.89126 0.67861 0.15863 0.0
H1525 H 0.85019 0.77588 0.24808 0.0
H1526 H 0.87635 0.75452 0.22129 0.0
H1527 H 0.83311 0.66744 0.19397 0.0
H1528 H 0.90185 0.60692 0.10518 0.0
H1529 H 0.87582 0.62942 0.13009 0.0
C1530 C 0.34494 0.86169 0.26164 0.0
C1531 C 0.33536 0.8382 0.24674 0.0
C1532 C 0.3597 0.88471 0.24536 0.0
C1533 C 0.38022 0.91347 0.16428 0.0
H1534 H 0.43611 0.96107 0.21124 0.0
C1535 C 0.45335 1.00423 0.1018 0.0
C1536 C 0.47958 1.00959 0.1132 0.0
C1537 C 0.43345 0.98614 0.11869 0.0
C1538 C 0.42077 0.94793 0.19757 0.0
H1539 H 0.33498 0.81957 0.20418 0.0
H1540 H 0.3615 0.85923 0.17599 0.0
H1541 H 0.40666 0.92362 0.23877 0.0
H1542 H 0.5051 1.00039 0.15197 0.0
H1543 H 0.4711 0.96886 0.18043 0.0
H1544 H 0.3955 0.93691 0.12284 0.0
C1545 C 0.35662 0.8606 0.19959 0.0
C1546 C 0.40345 0.92653 0.21356 0.0
C1547 C 0.34149 0.83776 0.21573 0.0
C1548 C 0.48521 0.99698 0.1423 0.0
C1549 C 0.46549 0.97888 0.15893 0.0
C1550 C 0.39782 0.93469 0.14822 0.0
C1551 C 0.36598 0.88451 0.2141 0.0
C1552 C 0.38314 0.90864 0.19716 0.0
C1553 C 0.4393 0.97288 0.14734 0.0
C1554 C 0.41872 0.95197 0.16456 0.0
H1555 H 0.34086 0.86226 0.28583 0.0
H1556 H 0.36612 0.90264 0.25737 0.0
H1557 H 0.36451 0.90063 0.15075 0.0
H1558 H 0.44822 1.01349 0.07948 0.0
H1559 H 0.41352 0.98241 0.10911 0.0
C1560 C 0.72457 0.24378 0.19712 0.0
C1561 C 0.72271 0.26719 0.20772 0.0
C1562 C 0.70554 0.22992 0.17585 0.0
C1563 C 0.63691 0.22227 0.14712 0.0
H1564 H 0.65277 0.18002 0.0874 0.0
C1565 C 0.55801 0.16022 0.06278 0.0
C1566 C 0.55771 0.13369 0.06361 0.0
C1567 C 0.57908 0.1787 0.0768 0.0
C1568 C 0.64809 0.19175 0.10398 0.0
H1569 H 0.7006 0.29546 0.20268 0.0
H1570 H 0.66763 0.27169 0.16508 0.0
H1571 H 0.68824 0.20915 0.11765 0.0
H1572 H 0.57969 0.10594 0.07869 0.0
H1573 H 0.61656 0.13829 0.10277 0.0
H1574 H 0.59674 0.20483 0.13324 0.0
C1575 C 0.68324 0.26344 0.174 0.0
C1576 C 0.66838 0.20835 0.12144 0.0
C1577 C 0.70212 0.27711 0.19558 0.0
C1578 C 0.57926 0.1262 0.07784 0.0
C1579 C 0.60046 0.14474 0.09142 0.0
C1580 C 0.61668 0.20591 0.12937 0.0
C1581 C 0.68439 0.23936 0.16434 0.0
C1582 C 0.66304 0.22348 0.14367 0.0
C1583 C 0.60042 0.17109 0.09143 0.0
C1584 C 0.62204 0.19016 0.10804 0.0
H1585 H 0.74017 0.23557 0.20626 0.0
H1586 H 0.70695 0.21129 0.16939 0.0
H1587 H 0.63194 0.23322 0.16434 0.0
H1588 H 0.54169 0.16659 0.05199 0.0
H1589 H 0.57866 0.19894 0.07632 0.0
C1590 C 0.71906 0.71729 0.84165 0.0
C1591 C 0.71567 0.73272 0.81399 0.0
C1592 C 0.69984 0.69408 0.84992 0.0
C1593 C 0.6312 0.66163 0.84413 0.0
H1594 H 0.65171 0.59783 0.86617 0.0
C1595 C 0.56062 0.57065 0.90419 0.0
C1596 C 0.57191 0.56002 0.93118 0.0
C1597 C 0.57638 0.58766 0.882 0.0
C1598 C 0.64564 0.61545 0.86014 0.0
H1599 H 0.6894 0.73647 0.7736 0.0
H1600 H 0.6552 0.69607 0.78882 0.0
H1601 H 0.68304 0.63729 0.84375 0.0
H1602 H 0.60848 0.55695 0.95458 0.0
H1603 H 0.63576 0.58693 0.9167 0.0
H1604 H 0.59446 0.64063 0.86245 0.0
C1605 C 0.67292 0.70189 0.80375 0.0
C1606 C 0.66355 0.63796 0.84724 0.0
C1607 C 0.69237 0.72495 0.79518 0.0
C1608 C 0.59912 0.5651 0.93429 0.0
C1609 C 0.61483 0.58214 0.91228 0.0
C1610 C 0.61337 0.63924 0.85751 0.0
C1611 C 0.67674 0.68608 0.83092 0.0
C1612 C 0.65669 0.66141 0.84003 0.0
C1613 C 0.60371 0.59436 0.88643 0.0
C1614 C 0.62068 0.61614 0.86663 0.0
H1615 H 0.73696 0.72257 0.85631 0.0
H1616 H 0.70303 0.6823 0.87119 0.0
H1617 H 0.62555 0.67957 0.83877 0.0
H1618 H 0.53968 0.56685 0.90089 0.0
H1619 H 0.56719 0.5963 0.862 0.0
C1620 C 0.3602 0.70237 0.91952 0.0
C1621 C 0.33536 0.68358 0.91842 0.0
C1622 C 0.37932 0.69979 0.94268 0.0
C1623 C 0.39447 0.65246 0.00817 0.0
H1624 H 0.45483 0.66367 0.95955 0.0
C1625 C 0.45047 0.57763 0.00338 0.0
C1626 C 0.47721 0.58627 0.9984 0.0
C1627 C 0.43689 0.59581 0.00627 0.0
C1628 C 0.43855 0.66089 0.97403 0.0
H1629 H 0.31041 0.65032 0.94571 0.0
H1630 H 0.3445 0.64378 0.98289 0.0
H1631 H 0.42319 0.68649 0.94245 0.0
H1632 H 0.51108 0.62053 0.9942 0.0
H1633 H 0.48719 0.65237 0.99859 0.0
H1634 H 0.4093 0.6246 0.03798 0.0
C1635 C 0.34918 0.66084 0.96609 0.0
C1636 C 0.4202 0.67418 0.96427 0.0
C1637 C 0.32958 0.66418 0.94383 0.0
C1638 C 0.49036 0.61335 0.99757 0.0
C1639 C 0.47676 0.63154 1.0003 0.0
C1640 C 0.41276 0.63878 0.01768 0.0
C1641 C 0.37481 0.67761 0.96443 0.0
C1642 C 0.3972 0.6692 0.98024 0.0
C1643 C 0.44977 0.62298 0.00393 0.0
C1644 C 0.43431 0.64201 0.99976 0.0
H1645 H 0.36616 0.71817 0.90142 0.0
H1646 H 0.3984 0.71407 0.9417 0.0
H1647 H 0.37748 0.64869 0.02169 0.0
H1648 H 0.43992 0.55684 0.00465 0.0
H1649 H 0.41604 0.58864 0.0086 0.0
C1650 C 0.36394 0.37013 0.78991 0.0
C1651 C 0.3385 0.36269 0.79998 0.0
C1652 C 0.38379 0.38871 0.80542 0.0
C1653 C 0.39925 0.40949 0.88486 0.0
H1654 H 0.46176 0.45655 0.84937 0.0
C1655 C 0.48664 0.46694 0.9618 0.0
C1656 C 0.5115 0.46744 0.95345 0.0
C1657 C 0.46467 0.45718 0.94192 0.0
C1658 C 0.44444 0.44337 0.85956 0.0
H1659 H 0.31319 0.37033 0.83215 0.0
H1660 H 0.34775 0.40326 0.85887 0.0
H1661 H 0.42401 0.43693 0.81455 0.0
H1662 H 0.53268 0.45767 0.91786 0.0
H1663 H 0.49418 0.44017 0.88344 0.0
H1664 H 0.41977 0.41534 0.92973 0.0
C1665 C 0.35253 0.39438 0.83945 0.0
C1666 C 0.42283 0.43225 0.83967 0.0
C1667 C 0.33275 0.37568 0.82407 0.0
C1668 C 0.51382 0.45752 0.92504 0.0
C1669 C 0.49182 0.44778 0.90514 0.0
C1670 C 0.42078 0.42062 0.90469 0.0
C1671 C 0.37846 0.40014 0.83126 0.0
C1672 C 0.40016 0.41486 0.8521 0.0
C1673 C 0.46707 0.44771 0.91328 0.0
C1674 C 0.44374 0.43731 0.89223 0.0
H1675 H 0.36906 0.35998 0.77207 0.0
H1676 H 0.4036 0.39248 0.79874 0.0
H1677 H 0.38231 0.39572 0.89519 0.0
H1678 H 0.48414 0.47458 0.98342 0.0
H1679 H 0.44585 0.45752 0.94871 0.0
C1680 C 0.71057 0.38979 0.79543 0.0
C1681 C 0.72763 0.3994 0.77107 0.0
C1682 C 0.70855 0.40631 0.81773 0.0
C1683 C 0.71536 0.47505 0.82727 0.0
H1684 H 0.70344 0.44851 0.91404 0.0
C1685 C 0.67187 0.49831 0.94671 0.0
C1686 C 0.64759 0.49936 0.93258 0.0
C1687 C 0.69032 0.49344 0.92881 0.0
C1688 C 0.70736 0.45658 0.89013 0.0
H1689 H 0.75653 0.43388 0.75162 0.0
H1690 H 0.75243 0.46301 0.79026 0.0
H1691 H 0.7195 0.42367 0.87976 0.0
H1692 H 0.62503 0.49993 0.88817 0.0
H1693 H 0.6572 0.49227 0.8571 0.0
H1694 H 0.7019 0.50726 0.83725 0.0
C1695 C 0.74065 0.4426 0.79197 0.0
C1696 C 0.71624 0.44217 0.87039 0.0
C1697 C 0.74283 0.42597 0.76973 0.0
C1698 C 0.64336 0.49864 0.89985 0.0
C1699 C 0.66193 0.49447 0.88195 0.0
C1700 C 0.70633 0.48939 0.84697 0.0
C1701 C 0.72342 0.43294 0.81616 0.0
C1702 C 0.71928 0.45071 0.83844 0.0
C1703 C 0.68508 0.49059 0.89639 0.0
C1704 C 0.7012 0.47971 0.87824 0.0
H1705 H 0.69828 0.36957 0.79692 0.0
H1706 H 0.69467 0.3984 0.83565 0.0
H1707 H 0.7175 0.48215 0.80278 0.0
H1708 H 0.67578 0.49917 0.97186 0.0
H1709 H 0.70813 0.49072 0.94049 0.0
C1710 C 0.77367 0.42218 0.17169 0.0
C1711 C 0.75766 0.41273 0.19724 0.0
C1712 C 0.76298 0.42026 0.1407 0.0
C1713 C 0.70551 0.3839 0.09374 0.0
H1714 H 0.70923 0.45005 0.04485 0.0
C1715 C 0.61942 0.41238 0.04236 0.0
C1716 C 0.62135 0.43258 0.01827 0.0
C1717 C 0.64012 0.40188 0.05032 0.0
C1718 C 0.70858 0.43115 0.05733 0.0
H1719 H 0.71745 0.39555 0.20967 0.0
H1720 H 0.69926 0.39155 0.15615 0.0
H1721 H 0.74064 0.44877 0.08902 0.0
H1722 H 0.64433 0.45484 0.98058 0.0
H1723 H 0.68156 0.43744 0.99527 0.0
H1724 H 0.67219 0.36667 0.0637 0.0
C1725 C 0.72016 0.39976 0.16012 0.0
C1726 C 0.72655 0.43051 0.08279 0.0
C1727 C 0.73067 0.40208 0.19088 0.0
C1728 C 0.64281 0.43967 0.99956 0.0
C1729 C 0.664 0.42965 0.00798 0.0
C1730 C 0.68769 0.38449 0.06817 0.0
C1731 C 0.73618 0.40857 0.13474 0.0
C1732 C 0.72392 0.40728 0.10247 0.0
C1733 C 0.66342 0.41185 0.03473 0.0
C1734 C 0.6878 0.40855 0.05128 0.0
H1735 H 0.79451 0.43057 0.17553 0.0
H1736 H 0.77565 0.42759 0.12144 0.0
H1737 H 0.70343 0.36563 0.10832 0.0
H1738 H 0.60289 0.40649 0.05701 0.0
H1739 H 0.6389 0.38826 0.07108 0.0
C1740 C 0.72674 0.74158 0.19057 0.0
C1741 C 0.71884 0.74771 0.21852 0.0
C1742 C 0.7107 0.72124 0.1738 0.0
C1743 C 0.68186 0.66593 0.15782 0.0
H1744 H 0.6098 0.66076 0.13184 0.0
C1745 C 0.61479 0.58032 0.0895 0.0
C1746 C 0.59998 0.58798 0.06366 0.0
C1747 C 0.62853 0.59861 0.11064 0.0
C1748 C 0.62991 0.66198 0.13901 0.0
H1749 H 0.6871 0.73857 0.2496 0.0
H1750 H 0.65876 0.70271 0.21992 0.0
H1751 H 0.63471 0.69558 0.16503 0.0
H1752 H 0.58885 0.62109 0.03903 0.0
H1753 H 0.6128 0.65284 0.07583 0.0
H1754 H 0.67738 0.63282 0.13127 0.0
C1755 C 0.67764 0.71359 0.21142 0.0
C1756 C 0.64403 0.68171 0.15818 0.0
C1757 C 0.69385 0.73398 0.22841 0.0
C1758 C 0.59983 0.61444 0.05889 0.0
C1759 C 0.61337 0.63262 0.08009 0.0
C1760 C 0.66772 0.64611 0.13889 0.0
C1761 C 0.68627 0.70668 0.1844 0.0
C1762 C 0.6703 0.6842 0.16712 0.0
C1763 C 0.62759 0.62483 0.10636 0.0
C1764 C 0.64179 0.6443 0.12876 0.0
H1765 H 0.74571 0.75183 0.18202 0.0
H1766 H 0.71756 0.71671 0.15263 0.0
H1767 H 0.70204 0.66727 0.16475 0.0
H1768 H 0.6153 0.56008 0.09383 0.0
H1769 H 0.63939 0.59212 0.13072 0.0
C1770 C 0.41631 0.7356 0.16905 0.0
C1771 C 0.39749 0.72366 0.19096 0.0
C1772 C 0.42601 0.72024 0.15166 0.0
C1773 C 0.45721 0.68296 0.14282 0.0
H1774 H 0.41662 0.62247 0.09895 0.0
C1775 C 0.50763 0.62704 0.07526 0.0
C1776 C 0.49814 0.59942 0.07689 0.0
C1777 C 0.49339 0.6419 0.08631 0.0
C1778 C 0.4282 0.63915 0.11138 0.0
H1779 H 0.37309 0.6862 0.21057 0.0
H1780 H 0.3899 0.65935 0.17973 0.0
H1781 H 0.39437 0.64914 0.12271 0.0
H1782 H 0.466 0.56569 0.09088 0.0
H1783 H 0.44155 0.59169 0.11166 0.0
H1784 H 0.49093 0.67277 0.13282 0.0
C1785 C 0.39708 0.68062 0.17614 0.0
C1786 C 0.41546 0.65443 0.12482 0.0
C1787 C 0.38747 0.69601 0.19376 0.0
C1788 C 0.47394 0.58695 0.08962 0.0
C1789 C 0.45979 0.60187 0.10116 0.0
C1790 C 0.46987 0.6676 0.12978 0.0
C1791 C 0.41695 0.69262 0.1556 0.0
C1792 C 0.42992 0.67654 0.14052 0.0
C1793 C 0.46953 0.62953 0.0999 0.0
C1794 C 0.45559 0.64559 0.11374 0.0
H1795 H 0.42396 0.75685 0.16577 0.0
H1796 H 0.44106 0.72995 0.13559 0.0
H1797 H 0.46879 0.69957 0.15538 0.0
H1798 H 0.52595 0.63736 0.06498 0.0
H1799 H 0.50115 0.66317 0.08411 0.0
C1800 C 0.36159 0.32623 0.21214 0.0
C1801 C 0.34591 0.33817 0.22628 0.0
C1802 C 0.38406 0.34156 0.19792 0.0
C1803 C 0.4141 0.4083 0.16249 0.0
H1804 H 0.47601 0.38454 0.16816 0.0
C1805 C 0.50794 0.46803 0.10264 0.0
C1806 C 0.51866 0.45344 0.08489 0.0
C1807 C 0.48848 0.45519 0.12313 0.0
C1808 C 0.45882 0.39136 0.16632 0.0
H1809 H 0.34143 0.37551 0.23673 0.0
H1810 H 0.3811 0.40235 0.21247 0.0
H1811 H 0.43885 0.35997 0.19846 0.0
H1812 H 0.51781 0.41396 0.07532 0.0
H1813 H 0.48386 0.39162 0.11109 0.0
H1814 H 0.43403 0.43954 0.13009 0.0
C1815 C 0.37583 0.38112 0.21207 0.0
C1816 C 0.43755 0.37729 0.18359 0.0
C1817 C 0.35326 0.36575 0.22621 0.0
C1818 C 0.50995 0.42577 0.08863 0.0
C1819 C 0.49063 0.41296 0.10926 0.0
C1820 C 0.43544 0.42244 0.14533 0.0
C1821 C 0.39141 0.36918 0.19766 0.0
C1822 C 0.41479 0.38535 0.18144 0.0
C1823 C 0.47951 0.42754 0.12644 0.0
C1824 C 0.45783 0.41385 0.14669 0.0
H1825 H 0.35653 0.30498 0.21204 0.0
H1826 H 0.39541 0.33176 0.18662 0.0
H1827 H 0.39674 0.41484 0.16001 0.0
H1828 H 0.51421 0.48938 0.10032 0.0
H1829 H 0.48038 0.4669 0.1363 0.0
C1830 C 0.84739 0.70289 0.61606 0.0
C1831 C 0.83722 0.70101 0.64567 0.0
C1832 C 0.86345 0.68762 0.61053 0.0
C1833 C 0.8826 0.62785 0.64135 0.0
H1834 H 0.94352 0.66042 0.59364 0.0
C1835 C 0.95089 0.5696 0.60715 0.0
C1836 C 0.97772 0.58275 0.60854 0.0
C1837 C 0.93278 0.58307 0.61134 0.0
C1838 C 0.92665 0.65102 0.60712 0.0
H1839 H 0.83589 0.68123 0.69255 0.0
H1840 H 0.8644 0.65508 0.68315 0.0
H1841 H 0.91397 0.68575 0.6015 0.0
H1842 H 1.00664 0.62017 0.61602 0.0
H1843 H 0.97531 0.64346 0.62349 0.0
H1844 H 0.89568 0.59329 0.64751 0.0
C1845 C 0.85966 0.66815 0.66406 0.0
C1846 C 0.90952 0.66548 0.61135 0.0
C1847 C 0.84358 0.68344 0.66959 0.0
C1848 C 0.98609 0.60944 0.61477 0.0
C1849 C 0.96807 0.6229 0.61871 0.0
C1850 C 0.89971 0.61333 0.63699 0.0
C1851 C 0.86982 0.67006 0.63447 0.0
C1852 C 0.88741 0.65419 0.62881 0.0
C1853 C 0.94116 0.61001 0.61672 0.0
C1854 C 0.92213 0.62485 0.62012 0.0
H1855 H 0.84314 0.71639 0.59714 0.0
H1856 H 0.87072 0.68943 0.58737 0.0
H1857 H 0.86557 0.61841 0.65456 0.0
H1858 H 0.94386 0.54903 0.60238 0.0
H1859 H 0.9122 0.57257 0.60939 0.0
C1860 C 0.35345 0.84584 0.73674 0.0
C1861 C 0.33089 0.82988 0.72146 0.0
C1862 C 0.37404 0.86265 0.71935 0.0
C1863 C 0.38696 0.90051 0.6422 0.0
H1864 H 0.45976 0.90409 0.66073 0.0
C1865 C 0.47058 0.98778 0.5937 0.0
C1866 C 0.48968 0.98263 0.57663 0.0
C1867 C 0.45284 0.96773 0.61109 0.0
C1868 C 0.43952 0.90322 0.65509 0.0
H1869 H 0.31197 0.8205 0.67573 0.0
H1870 H 0.34725 0.85005 0.64565 0.0
H1871 H 0.42588 0.87274 0.69214 0.0
H1872 H 0.50483 0.95127 0.56596 0.0
H1873 H 0.47414 0.91606 0.59772 0.0
H1874 H 0.40045 0.93147 0.60602 0.0
C1875 C 0.34947 0.84909 0.67106 0.0
C1876 C 0.42008 0.88539 0.67331 0.0
C1877 C 0.32922 0.83202 0.68837 0.0
C1878 C 0.49073 0.95632 0.57875 0.0
C1879 C 0.47305 0.93608 0.59695 0.0
C1880 C 0.40634 0.91863 0.62454 0.0
C1881 C 0.3723 0.86471 0.68616 0.0
C1882 C 0.39343 0.88374 0.66713 0.0
C1883 C 0.45347 0.94149 0.6129 0.0
C1884 C 0.43297 0.92038 0.63062 0.0
H1885 H 0.35509 0.84547 0.76213 0.0
H1886 H 0.39107 0.87459 0.73191 0.0
H1887 H 0.3668 0.90004 0.63672 0.0
H1888 H 0.46869 1.0075 0.59313 0.0
H1889 H 0.43837 0.97285 0.62317 0.0
C1890 C 0.25318 0.34266 0.72863 0.0
C1891 C 0.2388 0.31659 0.73703 0.0
C1892 C 0.24179 0.3591 0.70852 0.0
C1893 C 0.18617 0.35887 0.65088 0.0
H1894 H 0.19606 0.42914 0.67614 0.0
C1895 C 0.12067 0.42484 0.60178 0.0
C1896 C 0.13256 0.45215 0.5976 0.0
C1897 C 0.13497 0.40802 0.61558 0.0
C1898 C 0.19339 0.40975 0.66838 0.0
H1899 H 0.20119 0.28743 0.73226 0.0
H1900 H 0.18122 0.31607 0.69705 0.0
H1901 H 0.21911 0.40062 0.70576 0.0
H1902 H 0.16915 0.48302 0.60303 0.0
H1903 H 0.19395 0.45383 0.6265 0.0
H1904 H 0.16018 0.368 0.61362 0.0
C1905 C 0.20144 0.32367 0.70525 0.0
C1906 C 0.20664 0.39339 0.68541 0.0
C1907 C 0.21278 0.30734 0.72551 0.0
C1908 C 0.1592 0.46214 0.60644 0.0
C1909 C 0.17347 0.44539 0.61999 0.0
C1910 C 0.17294 0.3753 0.63373 0.0
C1911 C 0.21575 0.3498 0.69671 0.0
C1912 C 0.203 0.36768 0.67708 0.0
C1913 C 0.16145 0.41819 0.62533 0.0
C1914 C 0.17623 0.40089 0.64245 0.0
H1915 H 0.27309 0.35043 0.73789 0.0
H1916 H 0.25335 0.37911 0.70227 0.0
H1917 H 0.18323 0.33924 0.64367 0.0
H1918 H 0.10023 0.4165 0.59499 0.0
H1919 H 0.12505 0.38718 0.6195 0.0
C1920 C 0.75252 0.19524 0.71466 0.0
C1921 C 0.74654 0.21855 0.71948 0.0
C1922 C 0.73732 0.17725 0.69342 0.0
C1923 C 0.68303 0.16918 0.62772 0.0
H1924 H 0.68199 0.09585 0.64049 0.0
C1925 C 0.60854 0.08617 0.5576 0.0
C1926 C 0.61693 0.06555 0.548 0.0
C1927 C 0.62467 0.10507 0.57722 0.0
C1928 C 0.68214 0.11627 0.63621 0.0
H1929 H 0.71913 0.24071 0.70479 0.0
H1930 H 0.69226 0.20936 0.66887 0.0
H1931 H 0.70805 0.12716 0.67668 0.0
H1932 H 0.6496 0.04926 0.55233 0.0
H1933 H 0.67746 0.08182 0.58669 0.0
H1934 H 0.65635 0.15781 0.58769 0.0
C1935 C 0.7092 0.20499 0.68089 0.0
C1936 C 0.69737 0.13457 0.65716 0.0
C1937 C 0.72468 0.22318 0.70189 0.0
C1938 C 0.64227 0.06475 0.55881 0.0
C1939 C 0.65827 0.08344 0.5789 0.0
C1940 C 0.6675 0.15077 0.60705 0.0
C1941 C 0.71507 0.18147 0.6761 0.0
C1942 C 0.69834 0.16158 0.65346 0.0
C1943 C 0.6498 0.104 0.58862 0.0
C1944 C 0.66675 0.12391 0.61075 0.0
H1945 H 0.76935 0.19096 0.72693 0.0
H1946 H 0.74348 0.16013 0.69039 0.0
H1947 H 0.68319 0.18955 0.62301 0.0
H1948 H 0.58926 0.08769 0.55008 0.0
H1949 H 0.61706 0.12022 0.58412 0.0
C1950 C 0.82353 0.3358 0.38232 0.0
C1951 C 0.82996 0.33519 0.35145 0.0
C1952 C 0.84189 0.35043 0.40377 0.0
C1953 C 0.91301 0.38768 0.41405 0.0
H1954 H 0.888 0.42153 0.47534 0.0
C1955 C 0.98512 0.45861 0.49615 0.0
C1956 C 0.97777 0.48003 0.50458 0.0
C1957 C 0.96705 0.4384 0.48066 0.0
C1958 C 0.89545 0.41258 0.45809 0.0
H1959 H 0.86059 0.34959 0.3187 0.0
H1960 H 0.89177 0.37612 0.35506 0.0
H1961 H 0.85697 0.39182 0.44177 0.0
H1962 H 0.94609 0.4975 0.50317 0.0
H1963 H 0.91514 0.46345 0.47446 0.0
H1964 H 0.9514 0.41012 0.42846 0.0
C1965 C 0.87313 0.36451 0.36354 0.0
C1966 C 0.87751 0.39497 0.43916 0.0
C1967 C 0.85506 0.34941 0.34245 0.0
C1968 C 0.95216 0.48104 0.49715 0.0
C1969 C 0.93433 0.46128 0.48092 0.0
C1970 C 0.93091 0.40583 0.43237 0.0
C1971 C 0.86687 0.36533 0.39456 0.0
C1972 C 0.886 0.38251 0.41653 0.0
C1973 C 0.94143 0.43957 0.47249 0.0
C1974 C 0.92241 0.41884 0.45442 0.0
H1975 H 0.80442 0.32486 0.39001 0.0
H1976 H 0.8364 0.35002 0.42755 0.0
H1977 H 0.92049 0.37802 0.39759 0.0
H1978 H 1.00471 0.45725 0.50199 0.0
H1979 H 0.97324 0.42184 0.4753 0.0
C1980 C 0.71679 0.82886 0.31298 0.0
C1981 C 0.74399 0.83975 0.30951 0.0
C1982 C 0.70221 0.84106 0.33025 0.0
C1983 C 0.7099 0.90243 0.37971 0.0
H1984 H 0.63512 0.87481 0.38115 0.0
C1985 C 0.64818 0.954 0.45166 0.0
C1986 C 0.62074 0.94856 0.44601 0.0
C1987 C 0.66325 0.94083 0.43646 0.0
C1988 C 0.65597 0.88354 0.38117 0.0
H1989 H 0.7759 0.87355 0.32162 0.0
H1990 H 0.75169 0.89413 0.35067 0.0
H1991 H 0.65909 0.85321 0.35339 0.0
H1992 H 0.58888 0.92381 0.41833 0.0
H1993 H 0.614 0.90225 0.39259 0.0
H1994 H 0.70658 0.93303 0.40718 0.0
C1995 C 0.74094 0.87583 0.34101 0.0
C1996 C 0.67026 0.8705 0.3649 0.0
C1997 C 0.75534 0.8637 0.32389 0.0
C1998 C 0.60966 0.92914 0.42427 0.0
C1999 C 0.62453 0.91621 0.40915 0.0
C2000 C 0.69558 0.91553 0.3959 0.0
C2001 C 0.71369 0.86522 0.3449 0.0
C2002 C 0.69787 0.87939 0.3633 0.0
C2003 C 0.65196 0.92136 0.4145 0.0
C2004 C 0.66797 0.90673 0.39722 0.0
H2005 H 0.70652 0.81101 0.30187 0.0
H2006 H 0.68164 0.83122 0.33175 0.0
H2007 H 0.73079 0.91087 0.38041 0.0
H2008 H 0.65822 0.96855 0.46786 0.0
H2009 H 0.684 0.94604 0.44235 0.0
C2010 C 0.2408 0.73845 0.36677 0.0
C2011 C 0.23804 0.74099 0.33384 0.0
C2012 C 0.22353 0.71779 0.38397 0.0
C2013 C 0.17772 0.65172 0.37829 0.0
H2014 H 0.14458 0.66782 0.44739 0.0
C2015 C 0.09509 0.57149 0.43867 0.0
C2016 C 0.09333 0.57123 0.47123 0.0
C2017 C 0.11176 0.59299 0.42207 0.0
C2018 C 0.15387 0.66278 0.42851 0.0
H2019 H 0.21419 0.72517 0.29307 0.0
H2020 H 0.18437 0.68856 0.32298 0.0
H2021 H 0.17667 0.70299 0.41897 0.0
H2022 H 0.10744 0.59373 0.5118 0.0
H2023 H 0.13715 0.63088 0.48318 0.0
H2024 H 0.15582 0.61152 0.38813 0.0
C2025 C 0.20021 0.70215 0.33552 0.0
C2026 C 0.17225 0.68304 0.41215 0.0
C2027 C 0.21733 0.72295 0.31839 0.0
C2028 C 0.10807 0.59343 0.48664 0.0
C2029 C 0.12516 0.6148 0.47012 0.0
C2030 C 0.15968 0.6314 0.39493 0.0
C2031 C 0.20301 0.69941 0.36852 0.0
C2032 C 0.18421 0.67777 0.38669 0.0
C2033 C 0.12766 0.61471 0.43762 0.0
C2034 C 0.14722 0.63659 0.42015 0.0
H2035 H 0.25615 0.75266 0.3792 0.0
H2036 H 0.22617 0.7162 0.40936 0.0
H2037 H 0.18687 0.64699 0.35904 0.0
H2038 H 0.08388 0.55477 0.42604 0.0
H2039 H 0.11234 0.59234 0.397 0.0
C2040 C 0.3142 0.21845 0.3213 0.0
C2041 C 0.32401 0.24337 0.3045 0.0
C2042 C 0.33067 0.20373 0.33723 0.0
C2043 C 0.40392 0.20541 0.35924 0.0
H2044 H 0.37273 0.13196 0.38517 0.0
C2045 C 0.46908 0.13834 0.42767 0.0
C2046 C 0.45972 0.11032 0.42995 0.0
C2047 C 0.45356 0.15488 0.41318 0.0
C2048 C 0.3825 0.15231 0.37812 0.0
H2049 H 0.36057 0.27003 0.28961 0.0
H2050 H 0.38897 0.24518 0.31695 0.0
H2051 H 0.3459 0.1581 0.35968 0.0
H2052 H 0.42522 0.07905 0.41736 0.0
H2053 H 0.39933 0.10665 0.39254 0.0
H2054 H 0.44072 0.19922 0.37725 0.0
C2055 C 0.36822 0.23714 0.31931 0.0
C2056 C 0.36645 0.16797 0.36336 0.0
C2057 C 0.35162 0.25192 0.30344 0.0
C2058 C 0.4339 0.1002 0.41672 0.0
C2059 C 0.41853 0.11656 0.40228 0.0
C2060 C 0.42004 0.18966 0.37402 0.0
C2061 C 0.35841 0.21226 0.33671 0.0
C2062 C 0.37639 0.19521 0.35322 0.0
C2063 C 0.42754 0.14463 0.39992 0.0
C2064 C 0.41002 0.16237 0.384 0.0
H2065 H 0.29329 0.20992 0.32187 0.0
H2066 H 0.32113 0.18525 0.34987 0.0
H2067 H 0.41342 0.22595 0.35272 0.0
H2068 H 0.48852 0.14769 0.43732 0.0
H2069 H 0.46217 0.17598 0.41283 0.0
C2070 C 0.75874 0.86037 0.72442 0.0
C2071 C 0.7495 0.83428 0.73769 0.0
C2072 C 0.74301 0.87182 0.70312 0.0
C2073 C 0.68112 0.85815 0.65046 0.0
H2074 H 0.69067 0.93245 0.65689 0.0
C2075 C 0.61521 0.91836 0.57675 0.0
C2076 C 0.62748 0.94499 0.56704 0.0
C2077 C 0.62868 0.90317 0.59691 0.0
C2078 C 0.6878 0.91178 0.65421 0.0
H2079 H 0.71566 0.8 0.73905 0.0
H2080 H 0.68802 0.8199 0.70163 0.0
H2081 H 0.71608 0.90955 0.69196 0.0
H2082 H 0.66426 0.97579 0.57082 0.0
H2083 H 0.68726 0.94982 0.60479 0.0
H2084 H 0.65257 0.86065 0.61254 0.0
C2085 C 0.70783 0.83146 0.70734 0.0
C2086 C 0.70258 0.89847 0.67459 0.0
C2087 C 0.72374 0.81991 0.72882 0.0
C2088 C 0.65375 0.95555 0.57773 0.0
C2089 C 0.66708 0.94053 0.59769 0.0
C2090 C 0.66622 0.87157 0.62991 0.0
C2091 C 0.71704 0.85788 0.69444 0.0
C2092 C 0.69991 0.87146 0.67297 0.0
C2093 C 0.65485 0.91412 0.60818 0.0
C2094 C 0.66954 0.89882 0.63106 0.0
H2095 H 0.77834 0.87217 0.73078 0.0
H2096 H 0.75135 0.89188 0.69352 0.0
H2097 H 0.67834 0.83744 0.6481 0.0
H2098 H 0.59506 0.90935 0.56921 0.0
H2099 H 0.61832 0.883 0.60427 0.0
C2100 C 0.71818 0.23695 0.31175 0.0
C2101 C 0.74229 0.24325 0.32904 0.0
C2102 C 0.69737 0.2164 0.32273 0.0
C2103 C 0.68522 0.15412 0.36992 0.0
H2104 H 0.61358 0.15646 0.3656 0.0
C2105 C 0.58557 0.08651 0.42322 0.0
C2106 C 0.58767 0.0617 0.41748 0.0
C2107 C 0.60114 0.10943 0.40806 0.0
C2108 C 0.6335 0.15558 0.36684 0.0
H2109 H 0.76394 0.23313 0.3709 0.0
H2110 H 0.72736 0.19689 0.39036 0.0
H2111 H 0.64848 0.19654 0.3517 0.0
H2112 H 0.60546 0.04135 0.38862 0.0
H2113 H 0.63238 0.08141 0.36192 0.0
H2114 H 0.67057 0.11347 0.38555 0.0
C2115 C 0.72455 0.20804 0.36843 0.0
C2116 C 0.65339 0.17842 0.35888 0.0
C2117 C 0.74538 0.22869 0.35744 0.0
C2118 C 0.6037 0.06015 0.394 0.0
C2119 C 0.6192 0.08307 0.3788 0.0
C2120 C 0.66541 0.13136 0.37774 0.0
C2121 C 0.7005 0.20148 0.35089 0.0
C2122 C 0.67942 0.17784 0.36048 0.0
C2123 C 0.61895 0.1079 0.38681 0.0
C2124 C 0.63937 0.13184 0.37626 0.0
H2125 H 0.71551 0.24746 0.28937 0.0
H2126 H 0.67918 0.21151 0.30853 0.0
H2127 H 0.70507 0.15305 0.37089 0.0
H2128 H 0.57319 0.08842 0.4409 0.0
H2129 H 0.60053 0.12832 0.41466 0.0
C2130 C 0.8275 0.71431 0.4858 0.0
C2131 C 0.82206 0.71289 0.45317 0.0
C2132 C 0.84554 0.70238 0.5016 0.0
C2133 C 0.86697 0.646 0.495 0.0
H2134 H 0.933 0.67786 0.53936 0.0
C2135 C 0.9702 0.62148 0.52464 0.0
C2136 C 0.96001 0.59398 0.52931 0.0
C2137 C 0.95359 0.63753 0.52288 0.0
C2138 C 0.91456 0.66867 0.52716 0.0
H2139 H 0.83155 0.69808 0.41166 0.0
H2140 H 0.86303 0.67817 0.43889 0.0
H2141 H 0.90324 0.70446 0.52219 0.0
H2142 H 0.92496 0.56189 0.5385 0.0
H2143 H 0.89673 0.58961 0.53754 0.0
H2144 H 0.87827 0.611 0.49745 0.0
C2145 C 0.85346 0.68846 0.45223 0.0
C2146 C 0.8975 0.68382 0.5177 0.0
C2147 C 0.83555 0.70011 0.43662 0.0
C2148 C 0.93334 0.58296 0.53383 0.0
C2149 C 0.91707 0.59892 0.53327 0.0
C2150 C 0.88384 0.63102 0.50423 0.0
C2151 C 0.8581 0.68888 0.48484 0.0
C2152 C 0.87398 0.67265 0.50074 0.0
C2153 C 0.92669 0.62629 0.52653 0.0
C2154 C 0.90808 0.64219 0.51996 0.0
H2155 H 0.81755 0.7242 0.49911 0.0
H2156 H 0.84889 0.70277 0.52686 0.0
H2157 H 0.84888 0.63705 0.48188 0.0
H2158 H 0.99079 0.63048 0.52154 0.0
H2159 H 0.96168 0.65854 0.51751 0.0
C2160 C 0.34664 0.8238 0.36359 0.0
C2161 C 0.32001 0.82138 0.35839 0.0
C2162 C 0.36124 0.83802 0.38775 0.0
C2163 C 0.36346 0.89401 0.42991 0.0
H2164 H 0.42415 0.87751 0.47221 0.0
C2165 C 0.44485 0.97415 0.4859 0.0
C2166 C 0.46928 0.97675 0.47444 0.0
C2167 C 0.42448 0.95109 0.48282 0.0
C2168 C 0.40716 0.88228 0.46079 0.0
H2169 H 0.28741 0.8314 0.37454 0.0
H2170 H 0.31318 0.85701 0.41688 0.0
H2171 H 0.39015 0.84319 0.44661 0.0
H2172 H 0.49218 0.95647 0.4532 0.0
H2173 H 0.45631 0.91629 0.44708 0.0
H2174 H 0.38096 0.93334 0.44262 0.0
C2175 C 0.32269 0.84765 0.40229 0.0
C2176 C 0.38772 0.86269 0.44619 0.0
C2177 C 0.30801 0.83321 0.37802 0.0
C2178 C 0.47348 0.95514 0.46189 0.0
C2179 C 0.453 0.93205 0.45867 0.0
C2180 C 0.38281 0.91353 0.44462 0.0
C2181 C 0.34956 0.85041 0.40713 0.0
C2182 C 0.36631 0.86872 0.42934 0.0
C2183 C 0.42808 0.93017 0.46818 0.0
C2184 C 0.40537 0.90814 0.459 0.0
H2185 H 0.35657 0.81588 0.34796 0.0
H2186 H 0.38202 0.84046 0.3901 0.0
H2187 H 0.34734 0.89936 0.4169 0.0
H2188 H 0.44121 0.99021 0.49654 0.0
H2189 H 0.40562 0.94999 0.49087 0.0
C2190 C 0.26613 0.38949 0.43742 0.0
C2191 C 0.27106 0.3661 0.45048 0.0
C2192 C 0.25299 0.40225 0.45393 0.0
C2193 C 0.20448 0.38799 0.51195 0.0
H2194 H 0.21759 0.46379 0.49977 0.0
C2195 C 0.12276 0.43696 0.50103 0.0
C2196 C 0.1276 0.46245 0.51062 0.0
C2197 C 0.14269 0.42492 0.50334 0.0
C2198 C 0.21382 0.44266 0.50415 0.0
H2199 H 0.26712 0.33816 0.49153 0.0
H2200 H 0.244 0.36066 0.52069 0.0
H2201 H 0.25064 0.44423 0.4877 0.0
H2202 H 0.15698 0.49518 0.53068 0.0
H2203 H 0.19149 0.47393 0.53546 0.0
H2204 H 0.16745 0.38642 0.52799 0.0
C2205 C 0.25022 0.36897 0.49754 0.0
C2206 C 0.2327 0.43144 0.49689 0.0
C2207 C 0.26352 0.3562 0.48096 0.0
C2208 C 0.15263 0.47551 0.523 0.0
C2209 C 0.17245 0.46337 0.52569 0.0
C2210 C 0.18565 0.39925 0.51951 0.0
C2211 C 0.24452 0.39193 0.48395 0.0
C2212 C 0.22767 0.40393 0.49917 0.0
C2213 C 0.16783 0.43809 0.51545 0.0
C2214 C 0.18963 0.4266 0.51421 0.0
H2215 H 0.2721 0.39775 0.41416 0.0
H2216 H 0.24855 0.41965 0.44256 0.0
H2217 H 0.20007 0.36671 0.51405 0.0
H2218 H 0.10364 0.42635 0.49153 0.0
H2219 H 0.13857 0.40564 0.49464 0.0
C2220 C 0.34766 0.2116 0.59958 0.0
C2221 C 0.35727 0.22484 0.62686 0.0
C2222 C 0.36012 0.19471 0.58896 0.0
C2223 C 0.4097 0.1587 0.6133 0.0
H2224 H 0.41381 0.15874 0.52337 0.0
C2225 C 0.48337 0.11793 0.56118 0.0
C2226 C 0.47447 0.10103 0.53679 0.0
C2227 C 0.46762 0.13174 0.57136 0.0
C2228 C 0.41258 0.15828 0.54852 0.0
H2229 H 0.38733 0.23036 0.66464 0.0
H2230 H 0.40949 0.20138 0.64589 0.0
H2231 H 0.38931 0.18496 0.54338 0.0
H2232 H 0.44206 0.08614 0.50335 0.0
H2233 H 0.41459 0.11091 0.52084 0.0
H2234 H 0.4337 0.13266 0.61832 0.0
C2235 C 0.39196 0.20355 0.63292 0.0
C2236 C 0.39845 0.17328 0.56009 0.0
C2237 C 0.3793 0.22025 0.64372 0.0
C2238 C 0.44954 0.09892 0.52221 0.0
C2239 C 0.43382 0.11313 0.53219 0.0
C2240 C 0.42402 0.14397 0.60173 0.0
C2241 C 0.38274 0.19074 0.60514 0.0
C2242 C 0.39696 0.1739 0.59271 0.0
C2243 C 0.44257 0.12937 0.55728 0.0
C2244 C 0.42586 0.14376 0.56922 0.0
H2245 H 0.3305 0.21443 0.58628 0.0
H2246 H 0.35196 0.1848 0.56797 0.0
H2247 H 0.4086 0.15809 0.63848 0.0
H2248 H 0.50244 0.1202 0.57301 0.0
H2249 H 0.47514 0.14441 0.59034 0.0
C2250 C 0.85754 0.29887 0.71303 0.0
C2251 C 0.84667 0.30332 0.7398 0.0
C2252 C 0.87737 0.31893 0.69865 0.0
C2253 C 0.90712 0.39157 0.69494 0.0
H2254 H 0.96485 0.37629 0.66047 0.0
C2255 C 0.99713 0.47451 0.65675 0.0
C2256 C 1.00559 0.47356 0.62687 0.0
C2257 C 0.97919 0.45263 0.67095 0.0
C2258 C 0.94875 0.38081 0.66982 0.0
H2259 H 0.84963 0.33144 0.77405 0.0
H2260 H 0.88404 0.36609 0.7495 0.0
H2261 H 0.93014 0.34023 0.68373 0.0
H2262 H 1.00281 0.44822 0.58933 0.0
H2263 H 0.9716 0.41 0.61434 0.0
H2264 H 0.92578 0.4321 0.68136 0.0
C2265 C 0.87666 0.34761 0.73865 0.0
C2266 C 0.9288 0.36016 0.68303 0.0
C2267 C 0.85684 0.32768 0.75282 0.0
C2268 C 0.99674 0.44968 0.61235 0.0
C2269 C 0.97886 0.42774 0.62668 0.0
C2270 C 0.92708 0.41215 0.68194 0.0
C2271 C 0.88702 0.34365 0.71118 0.0
C2272 C 0.90782 0.36532 0.69597 0.0
C2273 C 0.96936 0.42922 0.65574 0.0
C2274 C 0.94823 0.40706 0.66944 0.0
H2275 H 0.8503 0.28008 0.70284 0.0
H2276 H 0.8848 0.3152 0.67746 0.0
H2277 H 0.89102 0.39628 0.70403 0.0
H2278 H 1.00359 0.49247 0.66874 0.0
H2279 H 0.97261 0.45422 0.69364 0.0
C2280 C 0.23051 0.74902 0.68942 0.0
C2281 C 0.23826 0.73943 0.71929 0.0
C2282 C 0.21338 0.73186 0.66934 0.0
C2283 C 0.16277 0.66891 0.67045 0.0
H2284 H 0.18158 0.66336 0.58661 0.0
C2285 C 0.09859 0.58939 0.59608 0.0
C2286 C 0.11201 0.57369 0.58444 0.0
C2287 C 0.11214 0.61387 0.60658 0.0
C2288 C 0.17605 0.66487 0.60988 0.0
H2289 H 0.23427 0.70469 0.75179 0.0
H2290 H 0.20425 0.67482 0.71686 0.0
H2291 H 0.20903 0.69837 0.61809 0.0
H2292 H 0.14983 0.57198 0.5727 0.0
H2293 H 0.17371 0.61462 0.592 0.0
H2294 H 0.13056 0.63495 0.66316 0.0
C2295 C 0.21135 0.69553 0.70899 0.0
C2296 C 0.19158 0.68493 0.62772 0.0
C2297 C 0.22864 0.71255 0.72884 0.0
C2298 C 0.13906 0.58358 0.58185 0.0
C2299 C 0.15267 0.60808 0.59259 0.0
C2300 C 0.14722 0.64904 0.65265 0.0
C2301 C 0.20356 0.70503 0.67914 0.0
C2302 C 0.1854 0.68657 0.65846 0.0
C2303 C 0.13938 0.62306 0.6059 0.0
C2304 C 0.15404 0.64642 0.6225 0.0
H2305 H 0.23788 0.76969 0.68149 0.0
H2306 H 0.20759 0.73953 0.64637 0.0
H2307 H 0.15756 0.66999 0.69403 0.0
H2308 H 0.07765 0.58255 0.5978 0.0
H2309 H 0.10138 0.62524 0.61623 0.0
loop_
_geom_bond_atom_site_label_1
_geom_bond_atom_site_label_2
_geom_bond_distance
_geom_bond_site_symmetry_2
_ccdc_geom_bond_type
Gd0 N31 2.661 . S
Gd0 N37 2.601 . S
Gd0 O44 2.545 . S
Gd0 O45 2.606 . S
Gd0 O47 2.429 . S
Gd0 O48 2.545 . S
Gd0 O49 2.412 . S
Gd0 O51 2.362 . S
Gd0 O52 2.324 . S
Gd0 C59 2.828 . S
Gd1 N10 2.661 . S
Gd1 N14 2.601 . S
Gd1 O45 2.362 . S
Gd1 O46 2.324 . S
Gd1 O50 2.545 . S
Gd1 O51 2.606 . S
Gd1 O53 2.429 . S
Gd1 O54 2.545 . S
Gd1 O55 2.412 . S
Gd1 C68 2.828 . S
C2 C5 1.417 . S
C2 C7 1.431 . S
C2 C8 1.412 . S
C3 C6 1.437 . S
C3 C7 1.317 . S
C3 H22 0.929 . S
C4 C5 1.426 . S
C4 C6 1.413 . S
C4 N14 1.359 . S
C5 C2 1.417 . S
C5 C4 1.426 . S
C5 N10 1.350 . S
C6 C3 1.437 . S
C6 C4 1.413 . S
C6 C16 1.391 . S
C7 C2 1.431 . S
C7 C3 1.317 . S
C7 H18 0.930 . S
C8 C2 1.412 . S
C8 C9 1.355 . S
C8 H20 0.930 . S
C9 C8 1.355 . S
C9 C11 1.402 . S
C9 H21 0.930 . S
N10 Gd1 2.661 . S
N10 C5 1.350 . S
N10 C11 1.307 . S
C11 C9 1.402 . S
C11 N10 1.307 . S
C11 H12 0.930 . S
H12 C11 0.930 . S
C13 N14 1.334 . S
C13 C15 1.394 . S
C13 H17 0.930 . S
N14 Gd1 2.601 . S
N14 C4 1.359 . S
N14 C13 1.334 . S
C15 C13 1.394 . S
C15 C16 1.359 . S
C15 H27 0.930 . S
C16 C6 1.391 . S
C16 C15 1.359 . S
C16 H28 0.929 . S
H17 C13 0.930 . S
H18 C7 0.930 . S
H19 C36 0.930 . S
H20 C8 0.930 . S
H21 C9 0.930 . S
H22 C3 0.929 . S
H23 C41 0.930 . S
H24 C32 0.930 . S
H25 C33 0.930 . S
H26 C57 0.929 . S
H27 C15 0.930 . S
H28 C16 0.929 . S
H29 C58 0.930 . S
H30 C39 0.930 . S
N31 Gd0 2.661 . S
N31 C35 1.350 . S
N31 C36 1.307 . S
C32 H24 0.930 . S
C32 C33 1.355 . S
C32 C34 1.412 . S
C33 H25 0.930 . S
C33 C32 1.355 . S
C33 C36 1.402 . S
C34 C32 1.412 . S
C34 C35 1.417 . S
C34 C58 1.431 . S
C35 N31 1.350 . S
C35 C34 1.417 . S
C35 C38 1.426 . S
C36 H19 0.930 . S
C36 N31 1.307 . S
C36 C33 1.402 . S
N37 Gd0 2.601 . S
N37 C38 1.359 . S
N37 C41 1.334 . S
C38 C35 1.426 . S
C38 N37 1.359 . S
C38 C42 1.413 . S
C39 H30 0.930 . S
C39 C40 1.359 . S
C39 C41 1.394 . S
C40 C39 1.359 . S
C40 C42 1.391 . S
C40 H43 0.929 . S
C41 H23 0.930 . S
C41 N37 1.334 . S
C41 C39 1.394 . S
C42 C38 1.413 . S
C42 C40 1.391 . S
C42 C57 1.437 . S
H43 C40 0.929 . S
O44 Gd0 2.545 . S
O44 C59 1.258 . S
O45 Gd0 2.606 . S
O45 Gd1 2.362 . S
O45 C56 1.284 . S
O46 Gd1 2.324 . S
O46 C66 1.254 . S
O47 Gd0 2.429 . S
O47 C66 1.268 . S
O48 Gd0 2.545 . S
O48 C56 1.250 . S
O49 Gd0 2.412 . S
O49 C59 1.252 . S
O50 Gd1 2.545 . S
O50 C68 1.258 . S
O51 Gd0 2.362 . S
O51 Gd1 2.606 . S
O51 C67 1.284 . S
O52 Gd0 2.324 . S
O52 C75 1.254 . S
O53 Gd1 2.429 . S
O53 C75 1.268 . S
O54 Gd1 2.545 . S
O54 C67 1.250 . S
O55 Gd1 2.412 . S
O55 C68 1.252 . S
C56 O45 1.284 . S
C56 O48 1.250 . S
C57 H26 0.929 . S
C57 C42 1.437 . S
C57 C58 1.317 . S
C58 H29 0.930 . S
C58 C34 1.431 . S
C58 C57 1.317 . S
C59 Gd0 2.828 . S
C59 O44 1.258 . S
C59 O49 1.252 . S
C59 C60 1.497 . S
C60 C59 1.497 . S
C60 C61 1.395 . S
C60 C62 1.380 . S
C61 C60 1.395 . S
C61 C64 1.398 . S
C61 H76 0.930 . S
C62 C60 1.380 . S
C62 C63 1.391 . S
C62 H77 0.930 . S
C63 C62 1.391 . S
C63 C65 1.387 . S
C64 C61 1.398 . S
C64 C65 1.380 . S
C64 H78 0.930 . S
C65 C63 1.387 . S
C65 C64 1.380 . S
C65 H79 0.930 . S
C66 O46 1.254 . S
C66 O47 1.268 . S
C67 O51 1.284 . S
C67 O54 1.250 . S
C68 Gd1 2.828 . S
C68 O50 1.258 . S
C68 O55 1.252 . S
C68 C69 1.497 . S
C69 C68 1.497 . S
C69 C70 1.395 . S
C69 C71 1.380 . S
C70 C69 1.395 . S
C70 C73 1.398 . S
C70 H80 0.930 . S
C71 C69 1.380 . S
C71 C72 1.391 . S
C71 H81 0.930 . S
C72 C71 1.391 . S
C72 C74 1.387 . S
C73 C70 1.398 . S
C73 C74 1.380 . S
C73 H82 0.930 . S
C74 C72 1.387 . S
C74 C73 1.380 . S
C74 H83 0.930 . S
C75 O52 1.254 . S
C75 O53 1.268 . S
H76 C61 0.930 . S
H77 C62 0.930 . S
H78 C64 0.930 . S
H79 C65 0.930 . S
H80 C70 0.930 . S
H81 C71 0.930 . S
H82 C73 0.930 . S
H83 C74 0.930 . S
Gd84 N115 2.661 . S
Gd84 N121 2.601 . S
Gd84 O128 2.545 . S
Gd84 O129 2.606 . S
Gd84 O131 2.429 . S
Gd84 O132 2.545 . S
Gd84 O133 2.412 . S
Gd84 O135 2.362 . S
Gd84 O136 2.324 . S
Gd84 C143 2.828 . S
Gd85 N94 2.661 . S
Gd85 N98 2.601 . S
Gd85 O129 2.362 . S
Gd85 O130 2.324 . S
Gd85 O134 2.545 . S
Gd85 O135 2.606 . S
Gd85 O137 2.429 . S
Gd85 O138 2.545 . S
Gd85 O139 2.412 . S
Gd85 C152 2.828 . S
C86 C89 1.417 . S
C86 C91 1.431 . S
C86 C92 1.412 . S
C87 C90 1.437 . S
C87 C91 1.317 . S
C87 H106 0.929 . S
C88 C89 1.426 . S
C88 C90 1.413 . S
C88 N98 1.359 . S
C89 C86 1.417 . S
C89 C88 1.426 . S
C89 N94 1.350 . S
C90 C87 1.437 . S
C90 C88 1.413 . S
C90 C100 1.391 . S
C91 C86 1.431 . S
C91 C87 1.317 . S
C91 H102 0.930 . S
C92 C86 1.412 . S
C92 C93 1.355 . S
C92 H104 0.930 . S
C93 C92 1.355 . S
C93 C95 1.402 . S
C93 H105 0.930 . S
N94 Gd85 2.661 . S
N94 C89 1.350 . S
N94 C95 1.307 . S
C95 C93 1.402 . S
C95 N94 1.307 . S
C95 H96 0.930 . S
H96 C95 0.930 . S
C97 N98 1.334 . S
C97 C99 1.394 . S
C97 H101 0.930 . S
N98 Gd85 2.601 . S
N98 C88 1.359 . S
N98 C97 1.334 . S
C99 C97 1.394 . S
C99 C100 1.359 . S
C99 H111 0.930 . S
C100 C90 1.391 . S
C100 C99 1.359 . S
C100 H112 0.929 . S
H101 C97 0.930 . S
H102 C91 0.930 . S
H103 C120 0.930 . S
H104 C92 0.930 . S
H105 C93 0.930 . S
H106 C87 0.929 . S
H107 C125 0.930 . S
H108 C116 0.930 . S
H109 C117 0.930 . S
H110 C141 0.929 . S
H111 C99 0.930 . S
H112 C100 0.929 . S
H113 C142 0.930 . S
H114 C123 0.930 . S
N115 Gd84 2.661 . S
N115 C119 1.350 . S
N115 C120 1.307 . S
C116 H108 0.930 . S
C116 C117 1.355 . S
C116 C118 1.412 . S
C117 H109 0.930 . S
C117 C116 1.355 . S
C117 C120 1.402 . S
C118 C116 1.412 . S
C118 C119 1.417 . S
C118 C142 1.431 . S
C119 N115 1.350 . S
C119 C118 1.417 . S
C119 C122 1.426 . S
C120 H103 0.930 . S
C120 N115 1.307 . S
C120 C117 1.402 . S
N121 Gd84 2.601 . S
N121 C122 1.359 . S
N121 C125 1.334 . S
C122 C119 1.426 . S
C122 N121 1.359 . S
C122 C126 1.413 . S
C123 H114 0.930 . S
C123 C124 1.359 . S
C123 C125 1.394 . S
C124 C123 1.359 . S
C124 C126 1.391 . S
C124 H127 0.929 . S
C125 H107 0.930 . S
C125 N121 1.334 . S
C125 C123 1.394 . S
C126 C122 1.413 . S
C126 C124 1.391 . S
C126 C141 1.437 . S
H127 C124 0.929 . S
O128 Gd84 2.545 . S
O128 C143 1.258 . S
O129 Gd84 2.606 . S
O129 Gd85 2.362 . S
O129 C140 1.284 . S
O130 Gd85 2.324 . S
O130 C150 1.254 . S
O131 Gd84 2.429 . S
O131 C150 1.268 . S
O132 Gd84 2.545 . S
O132 C140 1.250 . S
O133 Gd84 2.412 . S
O133 C143 1.252 . S
O134 Gd85 2.545 . S
O134 C152 1.258 . S
O135 Gd84 2.362 . S
O135 Gd85 2.606 . S
O135 C151 1.284 . S
O136 Gd84 2.324 . S
O136 C159 1.254 . S
O137 Gd85 2.429 . S
O137 C159 1.268 . S
O138 Gd85 2.545 . S
O138 C151 1.250 . S
O139 Gd85 2.412 . S
O139 C152 1.252 . S
C140 O129 1.284 . S
C140 O132 1.250 . S
C141 H110 0.929 . S
C141 C126 1.437 . S
C141 C142 1.317 . S
C142 H113 0.930 . S
C142 C118 1.431 . S
C142 C141 1.317 . S
C143 Gd84 2.828 . S
C143 O128 1.258 . S
C143 O133 1.252 . S
C143 C144 1.497 . S
C144 C143 1.497 . S
C144 C145 1.395 . S
C144 C146 1.380 . S
C145 C144 1.395 . S
C145 C148 1.398 . S
C145 H160 0.930 . S
C146 C144 1.380 . S
C146 C147 1.391 . S
C146 H161 0.930 . S
C147 C146 1.391 . S
C147 C149 1.387 . S
C148 C145 1.398 . S
C148 C149 1.380 . S
C148 H162 0.930 . S
C149 C147 1.387 . S
C149 C148 1.380 . S
C149 H163 0.930 . S
C150 O130 1.254 . S
C150 O131 1.268 . S
C151 O135 1.284 . S
C151 O138 1.250 . S
C152 Gd85 2.828 . S
C152 O134 1.258 . S
C152 O139 1.252 . S
C152 C153 1.497 . S
C153 C152 1.497 . S
C153 C154 1.395 . S
C153 C155 1.380 . S
C154 C153 1.395 . S
C154 C157 1.398 . S
C154 H164 0.930 . S
C155 C153 1.380 . S
C155 C156 1.391 . S
C155 H165 0.930 . S
C156 C155 1.391 . S
C156 C158 1.387 . S
C157 C154 1.398 . S
C157 C158 1.380 . S
C157 H166 0.930 . S
C158 C156 1.387 . S
C158 C157 1.380 . S
C158 H167 0.930 . S
C159 O136 1.254 . S
C159 O137 1.268 . S
H160 C145 0.930 . S
H161 C146 0.930 . S
H162 C148 0.930 . S
H163 C149 0.930 . S
H164 C154 0.930 . S
H165 C155 0.930 . S
H166 C157 0.930 . S
H167 C158 0.930 . S
Gd168 N199 2.661 . S
Gd168 N205 2.601 . S
Gd168 O212 2.545 . S
Gd168 O213 2.606 . S
Gd168 O215 2.429 . S
Gd168 O216 2.545 . S
Gd168 O217 2.412 . S
Gd168 O219 2.362 . S
Gd168 O220 2.324 . S
Gd168 C227 2.828 . S
Gd169 N178 2.661 . S
Gd169 N182 2.601 . S
Gd169 O213 2.362 . S
Gd169 O214 2.324 . S
Gd169 O218 2.545 . S
Gd169 O219 2.606 . S
Gd169 O221 2.429 . S
Gd169 O222 2.545 . S
Gd169 O223 2.412 . S
Gd169 C236 2.828 . S
C170 C173 1.417 . S
C170 C175 1.431 . S
C170 C176 1.412 . S
C171 C174 1.437 . S
C171 C175 1.317 . S
C171 H190 0.929 . S
C172 C173 1.426 . S
C172 C174 1.413 . S
C172 N182 1.359 . S
C173 C170 1.417 . S
C173 C172 1.426 . S
C173 N178 1.350 . S
C174 C171 1.437 . S
C174 C172 1.413 . S
C174 C184 1.391 . S
C175 C170 1.431 . S
C175 C171 1.317 . S
C175 H186 0.930 . S
C176 C170 1.412 . S
C176 C177 1.355 . S
C176 H188 0.930 . S
C177 C176 1.355 . S
C177 C179 1.402 . S
C177 H189 0.930 . S
N178 Gd169 2.661 . S
N178 C173 1.350 . S
N178 C179 1.307 . S
C179 C177 1.402 . S
C179 N178 1.307 . S
C179 H180 0.930 . S
H180 C179 0.930 . S
C181 N182 1.334 . S
C181 C183 1.394 . S
C181 H185 0.930 . S
N182 Gd169 2.601 . S
N182 C172 1.359 . S
N182 C181 1.334 . S
C183 C181 1.394 . S
C183 C184 1.359 . S
C183 H195 0.930 . S
C184 C174 1.391 . S
C184 C183 1.359 . S
C184 H196 0.929 . S
H185 C181 0.930 . S
H186 C175 0.930 . S
H187 C204 0.930 . S
H188 C176 0.930 . S
H189 C177 0.930 . S
H190 C171 0.929 . S
H191 C209 0.930 . S
H192 C200 0.930 . S
H193 C201 0.930 . S
H194 C225 0.929 . S
H195 C183 0.930 . S
H196 C184 0.929 . S
H197 C226 0.930 . S
H198 C207 0.930 . S
N199 Gd168 2.661 . S
N199 C203 1.350 . S
N199 C204 1.307 . S
C200 H192 0.930 . S
C200 C201 1.355 . S
C200 C202 1.412 . S
C201 H193 0.930 . S
C201 C200 1.355 . S
C201 C204 1.402 . S
C202 C200 1.412 . S
C202 C203 1.417 . S
C202 C226 1.431 . S
C203 N199 1.350 . S
C203 C202 1.417 . S
C203 C206 1.426 . S
C204 H187 0.930 . S
C204 N199 1.307 . S
C204 C201 1.402 . S
N205 Gd168 2.601 . S
N205 C206 1.359 . S
N205 C209 1.334 . S
C206 C203 1.426 . S
C206 N205 1.359 . S
C206 C210 1.413 . S
C207 H198 0.930 . S
C207 C208 1.359 . S
C207 C209 1.394 . S
C208 C207 1.359 . S
C208 C210 1.391 . S
C208 H211 0.929 . S
C209 H191 0.930 . S
C209 N205 1.334 . S
C209 C207 1.394 . S
C210 C206 1.413 . S
C210 C208 1.391 . S
C210 C225 1.437 . S
H211 C208 0.929 . S
O212 Gd168 2.545 . S
O212 C227 1.258 . S
O213 Gd168 2.606 . S
O213 Gd169 2.362 . S
O213 C224 1.284 . S
O214 Gd169 2.324 . S
O214 C234 1.254 . S
O215 Gd168 2.429 . S
O215 C234 1.268 . S
O216 Gd168 2.545 . S
O216 C224 1.250 . S
O217 Gd168 2.412 . S
O217 C227 1.252 . S
O218 Gd169 2.545 . S
O218 C236 1.258 . S
O219 Gd168 2.362 . S
O219 Gd169 2.606 . S
O219 C235 1.284 . S
O220 Gd168 2.324 . S
O220 C243 1.254 . S
O221 Gd169 2.429 . S
O221 C243 1.268 . S
O222 Gd169 2.545 . S
O222 C235 1.250 . S
O223 Gd169 2.412 . S
O223 C236 1.252 . S
C224 O213 1.284 . S
C224 O216 1.250 . S
C225 H194 0.929 . S
C225 C210 1.437 . S
C225 C226 1.317 . S
C226 H197 0.930 . S
C226 C202 1.431 . S
C226 C225 1.317 . S
C227 Gd168 2.828 . S
C227 O212 1.258 . S
C227 O217 1.252 . S
C227 C228 1.497 . S
C228 C227 1.497 . S
C228 C229 1.395 . S
C228 C230 1.380 . S
C229 C228 1.395 . S
C229 C232 1.398 . S
C229 H244 0.930 . S
C230 C228 1.380 . S
C230 C231 1.391 . S
C230 H245 0.930 . S
C231 C230 1.391 . S
C231 C233 1.387 . S
C232 C229 1.398 . S
C232 C233 1.380 . S
C232 H246 0.930 . S
C233 C231 1.387 . S
C233 C232 1.380 . S
C233 H247 0.930 . S
C234 O214 1.254 . S
C234 O215 1.268 . S
C235 O219 1.284 . S
C235 O222 1.250 . S
C236 Gd169 2.828 . S
C236 O218 1.258 . S
C236 O223 1.252 . S
C236 C237 1.497 . S
C237 C236 1.497 . S
C237 C238 1.395 . S
C237 C239 1.380 . S
C238 C237 1.395 . S
C238 C241 1.398 . S
C238 H248 0.930 . S
C239 C237 1.380 . S
C239 C240 1.391 . S
C239 H249 0.930 . S
C240 C239 1.391 . S
C240 C242 1.387 . S
C241 C238 1.398 . S
C241 C242 1.380 . S
C241 H250 0.930 . S
C242 C240 1.387 . S
C242 C241 1.380 . S
C242 H251 0.930 . S
C243 O220 1.254 . S
C243 O221 1.268 . S
H244 C229 0.930 . S
H245 C230 0.930 . S
H246 C232 0.930 . S
H247 C233 0.930 . S
H248 C238 0.930 . S
H249 C239 0.930 . S
H250 C241 0.930 . S
H251 C242 0.930 . S
Gd252 N283 2.661 . S
Gd252 N289 2.601 . S
Gd252 O296 2.545 . S
Gd252 O297 2.606 . S
Gd252 O299 2.429 . S
Gd252 O300 2.545 . S
Gd252 O301 2.412 . S
Gd252 O303 2.362 . S
Gd252 O304 2.324 . S
Gd252 C311 2.828 . S
Gd253 N262 2.661 . S
Gd253 N266 2.601 . S
Gd253 O297 2.362 . S
Gd253 O298 2.324 . S
Gd253 O302 2.545 . S
Gd253 O303 2.606 . S
Gd253 O305 2.429 . S
Gd253 O306 2.545 . S
Gd253 O307 2.412 . S
Gd253 C320 2.828 . S
C254 C257 1.417 . S
C254 C259 1.431 . S
C254 C260 1.412 . S
C255 C258 1.437 . S
C255 C259 1.317 . S
C255 H274 0.929 . S
C256 C257 1.426 . S
C256 C258 1.413 . S
C256 N266 1.359 . S
C257 C254 1.417 . S
C257 C256 1.426 . S
C257 N262 1.350 . S
C258 C255 1.437 . S
C258 C256 1.413 . S
C258 C268 1.391 . S
C259 C254 1.431 . S
C259 C255 1.317 . S
C259 H270 0.930 . S
C260 C254 1.412 . S
C260 C261 1.355 . S
C260 H272 0.930 . S
C261 C260 1.355 . S
C261 C263 1.402 . S
C261 H273 0.930 . S
N262 Gd253 2.661 . S
N262 C257 1.350 . S
N262 C263 1.307 . S
C263 C261 1.402 . S
C263 N262 1.307 . S
C263 H264 0.930 . S
H264 C263 0.930 . S
C265 N266 1.334 . S
C265 C267 1.394 . S
C265 H269 0.930 . S
N266 Gd253 2.601 . S
N266 C256 1.359 . S
N266 C265 1.334 . S
C267 C265 1.394 . S
C267 C268 1.359 . S
C267 H279 0.930 . S
C268 C258 1.391 . S
C268 C267 1.359 . S
C268 H280 0.929 . S
H269 C265 0.930 . S
H270 C259 0.930 . S
H271 C288 0.930 . S
H272 C260 0.930 . S
H273 C261 0.930 . S
H274 C255 0.929 . S
H275 C293 0.930 . S
H276 C284 0.930 . S
H277 C285 0.930 . S
H278 C309 0.929 . S
H279 C267 0.930 . S
H280 C268 0.929 . S
H281 C310 0.930 . S
H282 C291 0.930 . S
N283 Gd252 2.661 . S
N283 C287 1.350 . S
N283 C288 1.307 . S
C284 H276 0.930 . S
C284 C285 1.355 . S
C284 C286 1.412 . S
C285 H277 0.930 . S
C285 C284 1.355 . S
C285 C288 1.402 . S
C286 C284 1.412 . S
C286 C287 1.417 . S
C286 C310 1.431 . S
C287 N283 1.350 . S
C287 C286 1.417 . S
C287 C290 1.426 . S
C288 H271 0.930 . S
C288 N283 1.307 . S
C288 C285 1.402 . S
N289 Gd252 2.601 . S
N289 C290 1.359 . S
N289 C293 1.334 . S
C290 C287 1.426 . S
C290 N289 1.359 . S
C290 C294 1.413 . S
C291 H282 0.930 . S
C291 C292 1.359 . S
C291 C293 1.394 . S
C292 C291 1.359 . S
C292 C294 1.391 . S
C292 H295 0.929 . S
C293 H275 0.930 . S
C293 N289 1.334 . S
C293 C291 1.394 . S
C294 C290 1.413 . S
C294 C292 1.391 . S
C294 C309 1.437 . S
H295 C292 0.929 . S
O296 Gd252 2.545 . S
O296 C311 1.258 . S
O297 Gd252 2.606 . S
O297 Gd253 2.362 . S
O297 C308 1.284 . S
O298 Gd253 2.324 . S
O298 C318 1.254 . S
O299 Gd252 2.429 . S
O299 C318 1.268 . S
O300 Gd252 2.545 . S
O300 C308 1.250 . S
O301 Gd252 2.412 . S
O301 C311 1.252 . S
O302 Gd253 2.545 . S
O302 C320 1.258 . S
O303 Gd252 2.362 . S
O303 Gd253 2.606 . S
O303 C319 1.284 . S
O304 Gd252 2.324 . S
O304 C327 1.254 . S
O305 Gd253 2.429 . S
O305 C327 1.268 . S
O306 Gd253 2.545 . S
O306 C319 1.250 . S
O307 Gd253 2.412 . S
O307 C320 1.252 . S
C308 O297 1.284 . S
C308 O300 1.250 . S
C309 H278 0.929 . S
C309 C294 1.437 . S
C309 C310 1.317 . S
C310 H281 0.930 . S
C310 C286 1.431 . S
C310 C309 1.317 . S
C311 Gd252 2.828 . S
C311 O296 1.258 . S
C311 O301 1.252 . S
C311 C312 1.497 . S
C312 C311 1.497 . S
C312 C313 1.395 . S
C312 C314 1.380 . S
C313 C312 1.395 . S
C313 C316 1.398 . S
C313 H328 0.930 . S
C314 C312 1.380 . S
C314 C315 1.391 . S
C314 H329 0.930 . S
C315 C314 1.391 . S
C315 C317 1.387 . S
C316 C313 1.398 . S
C316 C317 1.380 . S
C316 H330 0.930 . S
C317 C315 1.387 . S
C317 C316 1.380 . S
C317 H331 0.930 . S
C318 O298 1.254 . S
C318 O299 1.268 . S
C319 O303 1.284 . S
C319 O306 1.250 . S
C320 Gd253 2.828 . S
C320 O302 1.258 . S
C320 O307 1.252 . S
C320 C321 1.497 . S
C321 C320 1.497 . S
C321 C322 1.395 . S
C321 C323 1.380 . S
C322 C321 1.395 . S
C322 C325 1.398 . S
C322 H332 0.930 . S
C323 C321 1.380 . S
C323 C324 1.391 . S
C323 H333 0.930 . S
C324 C323 1.391 . S
C324 C326 1.387 . S
C325 C322 1.398 . S
C325 C326 1.380 . S
C325 H334 0.930 . S
C326 C324 1.387 . S
C326 C325 1.380 . S
C326 H335 0.930 . S
C327 O304 1.254 . S
C327 O305 1.268 . S
H328 C313 0.930 . S
H329 C314 0.930 . S
H330 C316 0.930 . S
H331 C317 0.930 . S
H332 C322 0.930 . S
H333 C323 0.930 . S
H334 C325 0.930 . S
H335 C326 0.930 . S
Gd336 N367 2.661 . S
Gd336 N373 2.601 . S
Gd336 O380 2.545 . S
Gd336 O381 2.606 . S
Gd336 O383 2.429 . S
Gd336 O384 2.545 . S
Gd336 O385 2.412 . S
Gd336 O387 2.362 . S
Gd336 O388 2.324 . S
Gd336 C395 2.828 . S
Gd337 N346 2.661 . S
Gd337 N350 2.601 . S
Gd337 O381 2.362 . S
Gd337 O382 2.324 . S
Gd337 O386 2.545 . S
Gd337 O387 2.606 . S
Gd337 O389 2.429 . S
Gd337 O390 2.545 . S
Gd337 O391 2.412 . S
Gd337 C404 2.828 . S
C338 C341 1.417 . S
C338 C343 1.431 . S
C338 C344 1.412 . S
C339 C342 1.437 . S
C339 C343 1.317 . S
C339 H358 0.929 . S
C340 C341 1.426 . S
C340 C342 1.413 . S
C340 N350 1.359 . S
C341 C338 1.417 . S
C341 C340 1.426 . S
C341 N346 1.350 . S
C342 C339 1.437 . S
C342 C340 1.413 . S
C342 C352 1.391 . S
C343 C338 1.431 . S
C343 C339 1.317 . S
C343 H354 0.930 . S
C344 C338 1.412 . S
C344 C345 1.355 . S
C344 H356 0.930 . S
C345 C344 1.355 . S
C345 C347 1.402 . S
C345 H357 0.930 . S
N346 Gd337 2.661 . S
N346 C341 1.350 . S
N346 C347 1.307 . S
C347 C345 1.402 . S
C347 N346 1.307 . S
C347 H348 0.930 . S
H348 C347 0.930 . S
C349 N350 1.334 . S
C349 C351 1.394 . S
C349 H353 0.930 . S
N350 Gd337 2.601 . S
N350 C340 1.359 . S
N350 C349 1.334 . S
C351 C349 1.394 . S
C351 C352 1.359 . S
C351 H363 0.930 . S
C352 C342 1.391 . S
C352 C351 1.359 . S
C352 H364 0.929 . S
H353 C349 0.930 . S
H354 C343 0.930 . S
H355 C372 0.930 . S
H356 C344 0.930 . S
H357 C345 0.930 . S
H358 C339 0.929 . S
H359 C377 0.930 . S
H360 C368 0.930 . S
H361 C369 0.930 . S
H362 C393 0.929 . S
H363 C351 0.930 . S
H364 C352 0.929 . S
H365 C394 0.930 . S
H366 C375 0.930 . S
N367 Gd336 2.661 . S
N367 C371 1.350 . S
N367 C372 1.307 . S
C368 H360 0.930 . S
C368 C369 1.355 . S
C368 C370 1.412 . S
C369 H361 0.930 . S
C369 C368 1.355 . S
C369 C372 1.402 . S
C370 C368 1.412 . S
C370 C371 1.417 . S
C370 C394 1.431 . S
C371 N367 1.350 . S
C371 C370 1.417 . S
C371 C374 1.426 . S
C372 H355 0.930 . S
C372 N367 1.307 . S
C372 C369 1.402 . S
N373 Gd336 2.601 . S
N373 C374 1.359 . S
N373 C377 1.334 . S
C374 C371 1.426 . S
C374 N373 1.359 . S
C374 C378 1.413 . S
C375 H366 0.930 . S
C375 C376 1.359 . S
C375 C377 1.394 . S
C376 C375 1.359 . S
C376 C378 1.391 . S
C376 H379 0.929 . S
C377 H359 0.930 . S
C377 N373 1.334 . S
C377 C375 1.394 . S
C378 C374 1.413 . S
C378 C376 1.391 . S
C378 C393 1.437 . S
H379 C376 0.929 . S
O380 Gd336 2.545 . S
O380 C395 1.258 . S
O381 Gd336 2.606 . S
O381 Gd337 2.362 . S
O381 C392 1.284 . S
O382 Gd337 2.324 . S
O382 C402 1.254 . S
O383 Gd336 2.429 . S
O383 C402 1.268 . S
O384 Gd336 2.545 . S
O384 C392 1.250 . S
O385 Gd336 2.412 . S
O385 C395 1.252 . S
O386 Gd337 2.545 . S
O386 C404 1.258 . S
O387 Gd336 2.362 . S
O387 Gd337 2.606 . S
O387 C403 1.284 . S
O388 Gd336 2.324 . S
O388 C411 1.254 . S
O389 Gd337 2.429 . S
O389 C411 1.268 . S
O390 Gd337 2.545 . S
O390 C403 1.250 . S
O391 Gd337 2.412 . S
O391 C404 1.252 . S
C392 O381 1.284 . S
C392 O384 1.250 . S
C393 H362 0.929 . S
C393 C378 1.437 . S
C393 C394 1.317 . S
C394 H365 0.930 . S
C394 C370 1.431 . S
C394 C393 1.317 . S
C395 Gd336 2.828 . S
C395 O380 1.258 . S
C395 O385 1.252 . S
C395 C396 1.497 . S
C396 C395 1.497 . S
C396 C397 1.395 . S
C396 C398 1.380 . S
C397 C396 1.395 . S
C397 C400 1.398 . S
C397 H412 0.930 . S
C398 C396 1.380 . S
C398 C399 1.391 . S
C398 H413 0.930 . S
C399 C398 1.391 . S
C399 C401 1.387 . S
C400 C397 1.398 . S
C400 C401 1.380 . S
C400 H414 0.930 . S
C401 C399 1.387 . S
C401 C400 1.380 . S
C401 H415 0.930 . S
C402 O382 1.254 . S
C402 O383 1.268 . S
C403 O387 1.284 . S
C403 O390 1.250 . S
C404 Gd337 2.828 . S
C404 O386 1.258 . S
C404 O391 1.252 . S
C404 C405 1.497 . S
C405 C404 1.497 . S
C405 C406 1.395 . S
C405 C407 1.380 . S
C406 C405 1.395 . S
C406 C409 1.398 . S
C406 H416 0.930 . S
C407 C405 1.380 . S
C407 C408 1.391 . S
C407 H417 0.930 . S
C408 C407 1.391 . S
C408 C410 1.387 . S
C409 C406 1.398 . S
C409 C410 1.380 . S
C409 H418 0.930 . S
C410 C408 1.387 . S
C410 C409 1.380 . S
C410 H419 0.930 . S
C411 O388 1.254 . S
C411 O389 1.268 . S
H412 C397 0.930 . S
H413 C398 0.930 . S
H414 C400 0.930 . S
H415 C401 0.930 . S
H416 C406 0.930 . S
H417 C407 0.930 . S
H418 C409 0.930 . S
H419 C410 0.930 . S
Gd420 N451 2.661 . S
Gd420 N457 2.601 . S
Gd420 O464 2.545 . S
Gd420 O465 2.606 . S
Gd420 O467 2.429 . S
Gd420 O468 2.545 . S
Gd420 O469 2.412 . S
Gd420 O471 2.362 . S
Gd420 O472 2.324 . S
Gd420 C479 2.828 . S
Gd421 N430 2.661 . S
Gd421 N434 2.601 . S
Gd421 O465 2.362 . S
Gd421 O466 2.324 . S
Gd421 O470 2.545 . S
Gd421 O471 2.606 . S
Gd421 O473 2.429 . S
Gd421 O474 2.545 . S
Gd421 O475 2.412 . S
Gd421 C488 2.828 . S
C422 C425 1.417 . S
C422 C427 1.431 . S
C422 C428 1.412 . S
C423 C426 1.437 . S
C423 C427 1.317 . S
C423 H442 0.929 . S
C424 C425 1.426 . S
C424 C426 1.413 . S
C424 N434 1.359 . S
C425 C422 1.417 . S
C425 C424 1.426 . S
C425 N430 1.350 . S
C426 C423 1.437 . S
C426 C424 1.413 . S
C426 C436 1.391 . S
C427 C422 1.431 . S
C427 C423 1.317 . S
C427 H438 0.930 . S
C428 C422 1.412 . S
C428 C429 1.355 . S
C428 H440 0.930 . S
C429 C428 1.355 . S
C429 C431 1.402 . S
C429 H441 0.930 . S
N430 Gd421 2.661 . S
N430 C425 1.350 . S
N430 C431 1.307 . S
C431 C429 1.402 . S
C431 N430 1.307 . S
C431 H432 0.930 . S
H432 C431 0.930 . S
C433 N434 1.334 . S
C433 C435 1.394 . S
C433 H437 0.930 . S
N434 Gd421 2.601 . S
N434 C424 1.359 . S
N434 C433 1.334 . S
C435 C433 1.394 . S
C435 C436 1.359 . S
C435 H447 0.930 . S
C436 C426 1.391 . S
C436 C435 1.359 . S
C436 H448 0.929 . S
H437 C433 0.930 . S
H438 C427 0.930 . S
H439 C456 0.930 . S
H440 C428 0.930 . S
H441 C429 0.930 . S
H442 C423 0.929 . S
H443 C461 0.930 . S
H444 C452 0.930 . S
H445 C453 0.930 . S
H446 C477 0.929 . S
H447 C435 0.930 . S
H448 C436 0.929 . S
H449 C478 0.930 . S
H450 C459 0.930 . S
N451 Gd420 2.661 . S
N451 C455 1.350 . S
N451 C456 1.307 . S
C452 H444 0.930 . S
C452 C453 1.355 . S
C452 C454 1.412 . S
C453 H445 0.930 . S
C453 C452 1.355 . S
C453 C456 1.402 . S
C454 C452 1.412 . S
C454 C455 1.417 . S
C454 C478 1.431 . S
C455 N451 1.350 . S
C455 C454 1.417 . S
C455 C458 1.426 . S
C456 H439 0.930 . S
C456 N451 1.307 . S
C456 C453 1.402 . S
N457 Gd420 2.601 . S
N457 C458 1.359 . S
N457 C461 1.334 . S
C458 C455 1.426 . S
C458 N457 1.359 . S
C458 C462 1.413 . S
C459 H450 0.930 . S
C459 C460 1.359 . S
C459 C461 1.394 . S
C460 C459 1.359 . S
C460 C462 1.391 . S
C460 H463 0.929 . S
C461 H443 0.930 . S
C461 N457 1.334 . S
C461 C459 1.394 . S
C462 C458 1.413 . S
C462 C460 1.391 . S
C462 C477 1.437 . S
H463 C460 0.929 . S
O464 Gd420 2.545 . S
O464 C479 1.258 . S
O465 Gd420 2.606 . S
O465 Gd421 2.362 . S
O465 C476 1.284 . S
O466 Gd421 2.324 . S
O466 C486 1.254 . S
O467 Gd420 2.429 . S
O467 C486 1.268 . S
O468 Gd420 2.545 . S
O468 C476 1.250 . S
O469 Gd420 2.412 . S
O469 C479 1.252 . S
O470 Gd421 2.545 . S
O470 C488 1.258 . S
O471 Gd420 2.362 . S
O471 Gd421 2.606 . S
O471 C487 1.284 . S
O472 Gd420 2.324 . S
O472 C495 1.254 . S
O473 Gd421 2.429 . S
O473 C495 1.268 . S
O474 Gd421 2.545 . S
O474 C487 1.250 . S
O475 Gd421 2.412 . S
O475 C488 1.252 . S
C476 O465 1.284 . S
C476 O468 1.250 . S
C477 H446 0.929 . S
C477 C462 1.437 . S
C477 C478 1.317 . S
C478 H449 0.930 . S
C478 C454 1.431 . S
C478 C477 1.317 . S
C479 Gd420 2.828 . S
C479 O464 1.258 . S
C479 O469 1.252 . S
C479 C480 1.497 . S
C480 C479 1.497 . S
C480 C481 1.395 . S
C480 C482 1.380 . S
C481 C480 1.395 . S
C481 C484 1.398 . S
C481 H496 0.930 . S
C482 C480 1.380 . S
C482 C483 1.391 . S
C482 H497 0.930 . S
C483 C482 1.391 . S
C483 C485 1.387 . S
C484 C481 1.398 . S
C484 C485 1.380 . S
C484 H498 0.930 . S
C485 C483 1.387 . S
C485 C484 1.380 . S
C485 H499 0.930 . S
C486 O466 1.254 . S
C486 O467 1.268 . S
C487 O471 1.284 . S
C487 O474 1.250 . S
C488 Gd421 2.828 . S
C488 O470 1.258 . S
C488 O475 1.252 . S
C488 C489 1.497 . S
C489 C488 1.497 . S
C489 C490 1.395 . S
C489 C491 1.380 . S
C490 C489 1.395 . S
C490 C493 1.398 . S
C490 H500 0.930 . S
C491 C489 1.380 . S
C491 C492 1.391 . S
C491 H501 0.930 . S
C492 C491 1.391 . S
C492 C494 1.387 . S
C493 C490 1.398 . S
C493 C494 1.380 . S
C493 H502 0.930 . S
C494 C492 1.387 . S
C494 C493 1.380 . S
C494 H503 0.930 . S
C495 O472 1.254 . S
C495 O473 1.268 . S
H496 C481 0.930 . S
H497 C482 0.930 . S
H498 C484 0.930 . S
H499 C485 0.930 . S
H500 C490 0.930 . S
H501 C491 0.930 . S
H502 C493 0.930 . S
H503 C494 0.930 . S
Gd504 N535 2.661 . S
Gd504 N541 2.601 . S
Gd504 O548 2.545 . S
Gd504 O549 2.606 . S
Gd504 O551 2.429 . S
Gd504 O552 2.545 . S
Gd504 O553 2.412 . S
Gd504 O555 2.362 . S
Gd504 O556 2.324 . S
Gd504 C563 2.828 . S
Gd505 N514 2.661 . S
Gd505 N518 2.601 . S
Gd505 O549 2.362 . S
Gd505 O550 2.324 . S
Gd505 O554 2.545 . S
Gd505 O555 2.606 . S
Gd505 O557 2.429 . S
Gd505 O558 2.545 . S
Gd505 O559 2.412 . S
Gd505 C572 2.828 . S
C506 C509 1.417 . S
C506 C511 1.431 . S
C506 C512 1.412 . S
C507 C510 1.437 . S
C507 C511 1.317 . S
C507 H526 0.929 . S
C508 C509 1.426 . S
C508 C510 1.413 . S
C508 N518 1.359 . S
C509 C506 1.417 . S
C509 C508 1.426 . S
C509 N514 1.350 . S
C510 C507 1.437 . S
C510 C508 1.413 . S
C510 C520 1.391 . S
C511 C506 1.431 . S
C511 C507 1.317 . S
C511 H522 0.930 . S
C512 C506 1.412 . S
C512 C513 1.355 . S
C512 H524 0.930 . S
C513 C512 1.355 . S
C513 C515 1.402 . S
C513 H525 0.930 . S
N514 Gd505 2.661 . S
N514 C509 1.350 . S
N514 C515 1.307 . S
C515 C513 1.402 . S
C515 N514 1.307 . S
C515 H516 0.930 . S
H516 C515 0.930 . S
C517 N518 1.334 . S
C517 C519 1.394 . S
C517 H521 0.930 . S
N518 Gd505 2.601 . S
N518 C508 1.359 . S
N518 C517 1.334 . S
C519 C517 1.394 . S
C519 C520 1.359 . S
C519 H531 0.930 . S
C520 C510 1.391 . S
C520 C519 1.359 . S
C520 H532 0.929 . S
H521 C517 0.930 . S
H522 C511 0.930 . S
H523 C540 0.930 . S
H524 C512 0.930 . S
H525 C513 0.930 . S
H526 C507 0.929 . S
H527 C545 0.930 . S
H528 C536 0.930 . S
H529 C537 0.930 . S
H530 C561 0.929 . S
H531 C519 0.930 . S
H532 C520 0.929 . S
H533 C562 0.930 . S
H534 C543 0.930 . S
N535 Gd504 2.661 . S
N535 C539 1.350 . S
N535 C540 1.307 . S
C536 H528 0.930 . S
C536 C537 1.355 . S
C536 C538 1.412 . S
C537 H529 0.930 . S
C537 C536 1.355 . S
C537 C540 1.402 . S
C538 C536 1.412 . S
C538 C539 1.417 . S
C538 C562 1.431 . S
C539 N535 1.350 . S
C539 C538 1.417 . S
C539 C542 1.426 . S
C540 H523 0.930 . S
C540 N535 1.307 . S
C540 C537 1.402 . S
N541 Gd504 2.601 . S
N541 C542 1.359 . S
N541 C545 1.334 . S
C542 C539 1.426 . S
C542 N541 1.359 . S
C542 C546 1.413 . S
C543 H534 0.930 . S
C543 C544 1.359 . S
C543 C545 1.394 . S
C544 C543 1.359 . S
C544 C546 1.391 . S
C544 H547 0.929 . S
C545 H527 0.930 . S
C545 N541 1.334 . S
C545 C543 1.394 . S
C546 C542 1.413 . S
C546 C544 1.391 . S
C546 C561 1.437 . S
H547 C544 0.929 . S
O548 Gd504 2.545 . S
O548 C563 1.258 . S
O549 Gd504 2.606 . S
O549 Gd505 2.362 . S
O549 C560 1.284 . S
O550 Gd505 2.324 . S
O550 C570 1.254 . S
O551 Gd504 2.429 . S
O551 C570 1.268 . S
O552 Gd504 2.545 . S
O552 C560 1.250 . S
O553 Gd504 2.412 . S
O553 C563 1.252 . S
O554 Gd505 2.545 . S
O554 C572 1.258 . S
O555 Gd504 2.362 . S
O555 Gd505 2.606 . S
O555 C571 1.284 . S
O556 Gd504 2.324 . S
O556 C579 1.254 . S
O557 Gd505 2.429 . S
O557 C579 1.268 . S
O558 Gd505 2.545 . S
O558 C571 1.250 . S
O559 Gd505 2.412 . S
O559 C572 1.252 . S
C560 O549 1.284 . S
C560 O552 1.250 . S
C561 H530 0.929 . S
C561 C546 1.437 . S
C561 C562 1.317 . S
C562 H533 0.930 . S
C562 C538 1.431 . S
C562 C561 1.317 . S
C563 Gd504 2.828 . S
C563 O548 1.258 . S
C563 O553 1.252 . S
C563 C564 1.497 . S
C564 C563 1.497 . S
C564 C565 1.395 . S
C564 C566 1.380 . S
C565 C564 1.395 . S
C565 C568 1.398 . S
C565 H580 0.930 . S
C566 C564 1.380 . S
C566 C567 1.391 . S
C566 H581 0.930 . S
C567 C566 1.391 . S
C567 C569 1.387 . S
C568 C565 1.398 . S
C568 C569 1.380 . S
C568 H582 0.930 . S
C569 C567 1.387 . S
C569 C568 1.380 . S
C569 H583 0.930 . S
C570 O550 1.254 . S
C570 O551 1.268 . S
C571 O555 1.284 . S
C571 O558 1.250 . S
C572 Gd505 2.828 . S
C572 O554 1.258 . S
C572 O559 1.252 . S
C572 C573 1.497 . S
C573 C572 1.497 . S
C573 C574 1.395 . S
C573 C575 1.380 . S
C574 C573 1.395 . S
C574 C577 1.398 . S
C574 H584 0.930 . S
C575 C573 1.380 . S
C575 C576 1.391 . S
C575 H585 0.930 . S
C576 C575 1.391 . S
C576 C578 1.387 . S
C577 C574 1.398 . S
C577 C578 1.380 . S
C577 H586 0.930 . S
C578 C576 1.387 . S
C578 C577 1.380 . S
C578 H587 0.930 . S
C579 O556 1.254 . S
C579 O557 1.268 . S
H580 C565 0.930 . S
H581 C566 0.930 . S
H582 C568 0.930 . S
H583 C569 0.930 . S
H584 C574 0.930 . S
H585 C575 0.930 . S
H586 C577 0.930 . S
H587 C578 0.930 . S
Gd588 N619 2.661 . S
Gd588 N625 2.601 . S
Gd588 O632 2.545 . S
Gd588 O633 2.606 . S
Gd588 O635 2.429 . S
Gd588 O636 2.545 . S
Gd588 O637 2.412 . S
Gd588 O639 2.362 . S
Gd588 O640 2.324 . S
Gd588 C647 2.828 . S
Gd589 N598 2.661 . S
Gd589 N602 2.601 . S
Gd589 O633 2.362 . S
Gd589 O634 2.324 . S
Gd589 O638 2.545 . S
Gd589 O639 2.606 . S
Gd589 O641 2.429 . S
Gd589 O642 2.545 . S
Gd589 O643 2.412 . S
Gd589 C656 2.828 . S
C590 C593 1.417 . S
C590 C595 1.431 . S
C590 C596 1.412 . S
C591 C594 1.437 . S
C591 C595 1.317 . S
C591 H610 0.929 . S
C592 C593 1.426 . S
C592 C594 1.413 . S
C592 N602 1.359 . S
C593 C590 1.417 . S
C593 C592 1.426 . S
C593 N598 1.350 . S
C594 C591 1.437 . S
C594 C592 1.413 . S
C594 C604 1.391 . S
C595 C590 1.431 . S
C595 C591 1.317 . S
C595 H606 0.930 . S
C596 C590 1.412 . S
C596 C597 1.355 . S
C596 H608 0.930 . S
C597 C596 1.355 . S
C597 C599 1.402 . S
C597 H609 0.930 . S
N598 Gd589 2.661 . S
N598 C593 1.350 . S
N598 C599 1.307 . S
C599 C597 1.402 . S
C599 N598 1.307 . S
C599 H600 0.930 . S
H600 C599 0.930 . S
C601 N602 1.334 . S
C601 C603 1.394 . S
C601 H605 0.930 . S
N602 Gd589 2.601 . S
N602 C592 1.359 . S
N602 C601 1.334 . S
C603 C601 1.394 . S
C603 C604 1.359 . S
C603 H615 0.930 . S
C604 C594 1.391 . S
C604 C603 1.359 . S
C604 H616 0.929 . S
H605 C601 0.930 . S
H606 C595 0.930 . S
H607 C624 0.930 . S
H608 C596 0.930 . S
H609 C597 0.930 . S
H610 C591 0.929 . S
H611 C629 0.930 . S
H612 C620 0.930 . S
H613 C621 0.930 . S
H614 C645 0.929 . S
H615 C603 0.930 . S
H616 C604 0.929 . S
H617 C646 0.930 . S
H618 C627 0.930 . S
N619 Gd588 2.661 . S
N619 C623 1.350 . S
N619 C624 1.307 . S
C620 H612 0.930 . S
C620 C621 1.355 . S
C620 C622 1.412 . S
C621 H613 0.930 . S
C621 C620 1.355 . S
C621 C624 1.402 . S
C622 C620 1.412 . S
C622 C623 1.417 . S
C622 C646 1.431 . S
C623 N619 1.350 . S
C623 C622 1.417 . S
C623 C626 1.426 . S
C624 H607 0.930 . S
C624 N619 1.307 . S
C624 C621 1.402 . S
N625 Gd588 2.601 . S
N625 C626 1.359 . S
N625 C629 1.334 . S
C626 C623 1.426 . S
C626 N625 1.359 . S
C626 C630 1.413 . S
C627 H618 0.930 . S
C627 C628 1.359 . S
C627 C629 1.394 . S
C628 C627 1.359 . S
C628 C630 1.391 . S
C628 H631 0.929 . S
C629 H611 0.930 . S
C629 N625 1.334 . S
C629 C627 1.394 . S
C630 C626 1.413 . S
C630 C628 1.391 . S
C630 C645 1.437 . S
H631 C628 0.929 . S
O632 Gd588 2.545 . S
O632 C647 1.258 . S
O633 Gd588 2.606 . S
O633 Gd589 2.362 . S
O633 C644 1.284 . S
O634 Gd589 2.324 . S
O634 C654 1.254 . S
O635 Gd588 2.429 . S
O635 C654 1.268 . S
O636 Gd588 2.545 . S
O636 C644 1.250 . S
O637 Gd588 2.412 . S
O637 C647 1.252 . S
O638 Gd589 2.545 . S
O638 C656 1.258 . S
O639 Gd588 2.362 . S
O639 Gd589 2.606 . S
O639 C655 1.284 . S
O640 Gd588 2.324 . S
O640 C663 1.254 . S
O641 Gd589 2.429 . S
O641 C663 1.268 . S
O642 Gd589 2.545 . S
O642 C655 1.250 . S
O643 Gd589 2.412 . S
O643 C656 1.252 . S
C644 O633 1.284 . S
C644 O636 1.250 . S
C645 H614 0.929 . S
C645 C630 1.437 . S
C645 C646 1.317 . S
C646 H617 0.930 . S
C646 C622 1.431 . S
C646 C645 1.317 . S
C647 Gd588 2.828 . S
C647 O632 1.258 . S
C647 O637 1.252 . S
C647 C648 1.497 . S
C648 C647 1.497 . S
C648 C649 1.395 . S
C648 C650 1.380 . S
C649 C648 1.395 . S
C649 C652 1.398 . S
C649 H664 0.930 . S
C650 C648 1.380 . S
C650 C651 1.391 . S
C650 H665 0.930 . S
C651 C650 1.391 . S
C651 C653 1.387 . S
C652 C649 1.398 . S
C652 C653 1.380 . S
C652 H666 0.930 . S
C653 C651 1.387 . S
C653 C652 1.380 . S
C653 H667 0.930 . S
C654 O634 1.254 . S
C654 O635 1.268 . S
C655 O639 1.284 . S
C655 O642 1.250 . S
C656 Gd589 2.828 . S
C656 O638 1.258 . S
C656 O643 1.252 . S
C656 C657 1.497 . S
C657 C656 1.497 . S
C657 C658 1.395 . S
C657 C659 1.380 . S
C658 C657 1.395 . S
C658 C661 1.398 . S
C658 H668 0.930 . S
C659 C657 1.380 . S
C659 C660 1.391 . S
C659 H669 0.930 . S
C660 C659 1.391 . S
C660 C662 1.387 . S
C661 C658 1.398 . S
C661 C662 1.380 . S
C661 H670 0.930 . S
C662 C660 1.387 . S
C662 C661 1.380 . S
C662 H671 0.930 . S
C663 O640 1.254 . S
C663 O641 1.268 . S
H664 C649 0.930 . S
H665 C650 0.930 . S
H666 C652 0.930 . S
H667 C653 0.930 . S
H668 C658 0.930 . S
H669 C659 0.930 . S
H670 C661 0.930 . S
H671 C662 0.930 . S
Co672 O675 2.042 . S
Co672 O682 2.264 . S
Co672 O701 2.286 . S
Co672 O702 2.069 . S
Co672 O704 2.015 1_455 S
Co673 O675 2.122 . S
Co673 O681 2.073 . S
Co673 O682 2.327 . S
Co673 O683 1.976 1_455 S
Co674 O675 2.087 1_545 S
Co674 O677 2.087 1_455 S
Co674 O684 2.111 1_445 S
Co674 O685 2.143 . S
Co674 O689 2.111 . S
Co674 O703 2.143 1_445 S
O675 Co672 2.042 . S
O675 Co673 2.122 . S
O675 Co674 2.087 1_565 S
O675 H676 0.980 1_565 S
H676 O675 0.980 1_545 S
O677 Co674 2.087 1_655 S
O677 Co678 2.042 . S
O677 Co679 2.122 . S
O677 H680 0.980 . S
Co678 O677 2.042 . S
Co678 O686 2.286 . S
Co678 O687 2.069 . S
Co678 O688 2.015 1_655 S
Co678 O691 2.264 . S
Co679 O677 2.122 . S
Co679 O690 1.976 1_655 S
Co679 O691 2.327 . S
Co679 O692 2.073 . S
H680 O677 0.980 . S
O681 Co673 2.073 . S
O681 C696 1.245 . S
O682 Co672 2.264 . S
O682 Co673 2.327 . S
O682 C696 1.257 . S
O683 Co673 1.976 1_655 S
O683 C695 1.251 . S
O684 Co674 2.111 1_665 S
O684 C695 1.274 . S
O685 Co674 2.143 . S
O685 C698 1.246 . S
O686 Co678 2.286 . S
O686 C697 1.259 . S
O687 Co678 2.069 . S
O687 C697 1.289 . S
O688 Co678 2.015 1_455 S
O688 C698 1.257 . S
O689 Co674 2.111 . S
O689 C699 1.274 . S
O690 Co679 1.976 1_455 S
O690 C699 1.251 . S
O691 Co678 2.264 . S
O691 Co679 2.327 . S
O691 C700 1.257 . S
O692 Co679 2.073 . S
O692 C700 1.245 . S
C693 O701 1.259 . S
C693 O702 1.289 . S
C694 O703 1.246 . S
C694 O704 1.257 . S
C695 O683 1.251 . S
C695 O684 1.274 . S
C696 O681 1.245 . S
C696 O682 1.257 . S
C697 O686 1.259 . S
C697 O687 1.289 . S
C698 O685 1.246 . S
C698 O688 1.257 . S
C699 O689 1.274 . S
C699 O690 1.251 . S
C700 O691 1.257 . S
C700 O692 1.245 . S
O701 Co672 2.286 . S
O701 C693 1.259 . S
O702 Co672 2.069 . S
O702 C693 1.289 . S
O703 Co674 2.143 1_665 S
O703 C694 1.246 . S
O704 Co672 2.015 1_655 S
O704 C694 1.257 . S
Co705 O708 2.042 1_566 S
Co705 O715 2.264 1_556 S
Co705 O734 2.286 . S
Co705 O735 2.069 . S
Co705 O737 2.015 . S
Co706 O708 2.122 1_565 S
Co706 O714 2.073 . S
Co706 O715 2.327 . S
Co706 O716 1.976 . S
Co707 O708 2.087 . S
Co707 O710 2.087 1_554 S
Co707 O717 2.111 . S
Co707 O718 2.143 . S
Co707 O722 2.111 1_554 S
Co707 O736 2.143 1_554 S
O708 Co705 2.042 1_544 S
O708 Co706 2.122 1_545 S
O708 Co707 2.087 . S
O708 H709 0.980 . S
H709 O708 0.980 . S
O710 Co707 2.087 1_556 S
O710 Co711 2.042 1_556 S
O710 Co712 2.122 . S
O710 H713 0.980 . S
Co711 O710 2.042 1_554 S
Co711 O719 2.286 . S
Co711 O720 2.069 . S
Co711 O721 2.015 . S
Co711 O724 2.264 1_554 S
Co712 O710 2.122 . S
Co712 O723 1.976 . S
Co712 O724 2.327 . S
Co712 O725 2.073 . S
H713 O710 0.980 . S
O714 Co706 2.073 . S
O714 C729 1.245 . S
O715 Co705 2.264 1_554 S
O715 Co706 2.327 . S
O715 C729 1.257 . S
O716 Co706 1.976 . S
O716 C728 1.251 . S
O717 Co707 2.111 . S
O717 C728 1.274 1_545 S
O718 Co707 2.143 . S
O718 C731 1.246 . S
O719 Co711 2.286 . S
O719 C730 1.259 . S
O720 Co711 2.069 . S
O720 C730 1.289 . S
O721 Co711 2.015 . S
O721 C731 1.257 . S
O722 Co707 2.111 1_556 S
O722 C732 1.274 . S
O723 Co712 1.976 . S
O723 C732 1.251 . S
O724 Co711 2.264 1_556 S
O724 Co712 2.327 . S
O724 C733 1.257 . S
O725 Co712 2.073 . S
O725 C733 1.245 . S
C726 O734 1.259 . S
C726 O735 1.289 . S
C727 O736 1.246 1_565 S
C727 O737 1.257 . S
C728 O716 1.251 . S
C728 O717 1.274 1_565 S
C729 O714 1.245 . S
C729 O715 1.257 . S
C730 O719 1.259 . S
C730 O720 1.289 . S
C731 O718 1.246 . S
C731 O721 1.257 . S
C732 O722 1.274 . S
C732 O723 1.251 . S
C733 O724 1.257 . S
C733 O725 1.245 . S
O734 Co705 2.286 . S
O734 C726 1.259 . S
O735 Co705 2.069 . S
O735 C726 1.289 . S
O736 Co707 2.143 1_556 S
O736 C727 1.246 1_545 S
O737 Co705 2.015 . S
O737 C727 1.257 . S
Co738 O741 2.042 . S
Co738 O748 2.264 . S
Co738 O767 2.286 . S
Co738 O768 2.069 . S
Co738 O770 2.015 1_455 S
Co739 O741 2.122 . S
Co739 O747 2.073 . S
Co739 O748 2.327 . S
Co739 O749 1.976 1_455 S
Co740 O741 2.087 . S
Co740 O743 2.087 1_455 S
Co740 O750 2.111 1_455 S
Co740 O751 2.143 . S
Co740 O755 2.111 . S
Co740 O769 2.143 1_455 S
O741 Co738 2.042 . S
O741 Co739 2.122 . S
O741 Co740 2.087 . S
O741 H742 0.980 . S
H742 O741 0.980 . S
O743 Co740 2.087 1_655 S
O743 Co744 2.042 . S
O743 Co745 2.122 1_554 S
O743 H746 0.980 . S
Co744 O743 2.042 . S
Co744 O752 2.286 . S
Co744 O753 2.069 . S
Co744 O754 2.015 1_655 S
Co744 O757 2.264 . S
Co745 O743 2.122 1_556 S
Co745 O756 1.976 1_655 S
Co745 O757 2.327 1_556 S
Co745 O758 2.073 . S
H746 O743 0.980 . S
O747 Co739 2.073 . S
O747 C762 1.245 . S
O748 Co738 2.264 . S
O748 Co739 2.327 . S
O748 C762 1.257 . S
O749 Co739 1.976 1_655 S
O749 C761 1.251 . S
O750 Co740 2.111 1_655 S
O750 C761 1.274 . S
O751 Co740 2.143 . S
O751 C764 1.246 . S
O752 Co744 2.286 . S
O752 C763 1.259 . S
O753 Co744 2.069 . S
O753 C763 1.289 . S
O754 Co744 2.015 1_455 S
O754 C764 1.257 . S
O755 Co740 2.111 . S
O755 C765 1.274 . S
O756 Co745 1.976 1_455 S
O756 C765 1.251 1_556 S
O757 Co744 2.264 . S
O757 Co745 2.327 1_554 S
O757 C766 1.257 . S
O758 Co745 2.073 . S
O758 C766 1.245 1_556 S
C759 O767 1.259 . S
C759 O768 1.289 . S
C760 O769 1.246 . S
C760 O770 1.257 . S
C761 O749 1.251 . S
C761 O750 1.274 . S
C762 O747 1.245 . S
C762 O748 1.257 . S
C763 O752 1.259 . S
C763 O753 1.289 . S
C764 O751 1.246 . S
C764 O754 1.257 . S
C765 O755 1.274 . S
C765 O756 1.251 1_554 S
C766 O757 1.257 . S
C766 O758 1.245 1_554 S
O767 Co738 2.286 . S
O767 C759 1.259 . S
O768 Co738 2.069 . S
O768 C759 1.289 . S
O769 Co740 2.143 1_655 S
O769 C760 1.246 . S
O770 Co738 2.015 1_655 S
O770 C760 1.257 . S
Co771 O774 2.042 . S
Co771 O781 2.264 . S
Co771 O800 2.286 1_554 S
Co771 O801 2.066 1_554 S
Co771 O803 2.015 1_554 S
Co772 O774 2.122 . S
Co772 O780 2.073 . S
Co772 O781 2.327 . S
Co772 O782 1.976 . S
Co773 O774 2.087 . S
Co773 O776 2.087 . S
Co773 O783 2.111 . S
Co773 O784 2.143 . S
Co773 O788 2.111 1_554 S
Co773 O802 2.143 1_554 S
O774 Co771 2.042 . S
O774 Co772 2.122 . S
O774 Co773 2.087 . S
O774 H775 0.980 . S
H775 O774 0.980 . S
O776 Co773 2.087 . S
O776 Co777 2.042 . S
O776 Co778 2.122 1_554 S
O776 H779 0.980 . S
Co777 O776 2.042 . S
Co777 O785 2.286 . S
Co777 O786 2.069 . S
Co777 O787 2.015 . S
Co777 O790 2.264 1_554 S
Co778 O776 2.122 1_556 S
Co778 O789 1.976 . S
Co778 O790 2.327 . S
Co778 O791 2.073 . S
H779 O776 0.980 . S
O780 Co772 2.073 . S
O780 C795 1.245 . S
O781 Co771 2.264 . S
O781 Co772 2.327 . S
O781 C795 1.257 . S
O782 Co772 1.976 . S
O782 C794 1.251 . S
O783 Co773 2.111 . S
O783 C794 1.274 . S
O784 Co773 2.143 . S
O784 C797 1.246 . S
O785 Co777 2.286 . S
O785 C796 1.259 . S
O786 Co777 2.069 . S
O786 C796 1.289 . S
O787 Co777 2.015 . S
O787 C797 1.257 . S
O788 Co773 2.111 1_556 S
O788 C798 1.274 . S
O789 Co778 1.976 . S
O789 C798 1.251 . S
O790 Co777 2.264 1_556 S
O790 Co778 2.327 . S
O790 C799 1.257 . S
O791 Co778 2.073 . S
O791 C799 1.245 . S
C792 O800 1.259 . S
C792 O801 1.296 . S
C793 O802 1.246 . S
C793 O803 1.257 . S
C794 O782 1.251 . S
C794 O783 1.274 . S
C795 O780 1.245 . S
C795 O781 1.257 . S
C796 O785 1.259 . S
C796 O786 1.289 . S
C797 O784 1.246 . S
C797 O787 1.257 . S
C798 O788 1.274 . S
C798 O789 1.251 . S
C799 O790 1.257 . S
C799 O791 1.245 . S
O800 Co771 2.286 1_556 S
O800 C792 1.259 . S
O801 Co771 2.066 1_556 S
O801 C792 1.296 . S
O802 Co773 2.143 1_556 S
O802 C793 1.246 . S
O803 Co771 2.015 1_556 S
O803 C793 1.257 . S
Co804 O807 2.042 . S
Co804 O814 2.264 . S
Co804 O833 2.286 . S
Co804 O834 2.069 . S
Co804 O836 2.015 . S
Co805 O807 2.122 . S
Co805 O813 2.073 . S
Co805 O814 2.327 . S
Co805 O815 1.976 . S
Co806 O807 2.087 . S
Co806 O809 2.087 . S
Co806 O816 2.111 . S
Co806 O817 2.143 1_455 S
Co806 O821 2.111 . S
Co806 O835 2.143 . S
O807 Co804 2.042 . S
O807 Co805 2.122 . S
O807 Co806 2.087 . S
O807 H808 0.980 . S
H808 O807 0.980 . S
O809 Co806 2.087 . S
O809 Co810 2.042 1_455 S
O809 Co811 2.122 1_455 S
O809 H812 0.980 . S
Co810 O809 2.042 1_655 S
Co810 O818 2.286 . S
Co810 O819 2.069 . S
Co810 O820 2.015 . S
Co810 O823 2.264 . S
Co811 O809 2.122 1_655 S
Co811 O822 1.976 . S
Co811 O823 2.327 . S
Co811 O824 2.073 . S
H812 O809 0.980 . S
O813 Co805 2.073 . S
O813 C828 1.245 . S
O814 Co804 2.264 . S
O814 Co805 2.327 . S
O814 C828 1.257 . S
O815 Co805 1.976 . S
O815 C827 1.251 . S
O816 Co806 2.111 . S
O816 C827 1.274 . S
O817 Co806 2.143 1_655 S
O817 C830 1.246 . S
O818 Co810 2.286 . S
O818 C829 1.259 . S
O819 Co810 2.069 . S
O819 C829 1.289 . S
O820 Co810 2.015 . S
O820 C830 1.257 . S
O821 Co806 2.111 . S
O821 C831 1.274 1_455 S
O822 Co811 1.976 . S
O822 C831 1.251 . S
O823 Co810 2.264 . S
O823 Co811 2.327 . S
O823 C832 1.257 . S
O824 Co811 2.073 . S
O824 C832 1.245 . S
C825 O833 1.259 . S
C825 O834 1.289 . S
C826 O835 1.246 . S
C826 O836 1.257 . S
C827 O815 1.251 . S
C827 O816 1.274 . S
C828 O813 1.245 . S
C828 O814 1.257 . S
C829 O818 1.259 . S
C829 O819 1.289 . S
C830 O817 1.246 . S
C830 O820 1.257 . S
C831 O821 1.274 1_655 S
C831 O822 1.251 . S
C832 O823 1.257 . S
C832 O824 1.245 . S
O833 Co804 2.286 . S
O833 C825 1.259 . S
O834 Co804 2.069 . S
O834 C825 1.289 . S
O835 Co806 2.143 . S
O835 C826 1.246 . S
O836 Co804 2.015 . S
O836 C826 1.257 . S
Co837 O840 2.042 . S
Co837 O847 2.264 . S
Co837 O866 2.286 . S
Co837 O867 2.069 . S
Co837 O869 2.015 1_565 S
Co838 O840 2.122 . S
Co838 O846 2.095 . S
Co838 O847 2.337 . S
Co838 O848 1.956 1_565 S
Co839 O840 2.087 1_545 S
Co839 O842 2.087 . S
Co839 O849 2.111 . S
Co839 O850 2.143 1_545 S
Co839 O854 2.111 1_545 S
Co839 O868 2.143 . S
O840 Co837 2.042 . S
O840 Co838 2.122 . S
O840 Co839 2.087 1_565 S
O840 H841 0.980 . S
H841 O840 0.980 . S
O842 Co839 2.087 . S
O842 Co843 2.042 . S
O842 Co844 2.122 . S
O842 H845 0.980 . S
Co843 O842 2.042 . S
Co843 O851 2.286 . S
Co843 O852 2.069 . S
Co843 O853 2.015 1_545 S
Co843 O856 2.264 . S
Co844 O842 2.122 . S
Co844 O855 1.976 1_545 S
Co844 O856 2.327 . S
Co844 O857 2.073 . S
H845 O842 0.980 . S
O846 Co838 2.095 . S
O846 C861 1.245 . S
O847 Co837 2.264 . S
O847 Co838 2.337 . S
O847 C861 1.257 . S
O848 Co838 1.956 1_545 S
O848 C860 1.251 . S
O849 Co839 2.111 . S
O849 C860 1.274 . S
O850 Co839 2.143 1_565 S
O850 C863 1.246 . S
O851 Co843 2.286 . S
O851 C862 1.259 . S
O852 Co843 2.069 . S
O852 C862 1.289 . S
O853 Co843 2.015 1_565 S
O853 C863 1.257 . S
O854 Co839 2.111 1_565 S
O854 C864 1.274 . S
O855 Co844 1.976 1_565 S
O855 C864 1.251 . S
O856 Co843 2.264 . S
O856 Co844 2.327 . S
O856 C865 1.257 . S
O857 Co844 2.073 . S
O857 C865 1.245 . S
C858 O866 1.259 . S
C858 O867 1.289 . S
C859 O868 1.246 . S
C859 O869 1.257 . S
C860 O848 1.251 . S
C860 O849 1.274 . S
C861 O846 1.245 . S
C861 O847 1.257 . S
C862 O851 1.259 . S
C862 O852 1.289 . S
C863 O850 1.246 . S
C863 O853 1.257 . S
C864 O854 1.274 . S
C864 O855 1.251 . S
C865 O856 1.257 . S
C865 O857 1.245 . S
O866 Co837 2.286 . S
O866 C858 1.259 . S
O867 Co837 2.069 . S
O867 C858 1.289 . S
O868 Co839 2.143 . S
O868 C859 1.246 . S
O869 Co837 2.015 1_545 S
O869 C859 1.257 . S
C870 C871 1.349 . S
C870 C872 1.327 . S
C870 H895 0.950 . S
C871 C870 1.349 . S
C871 C887 1.349 . S
C872 C870 1.327 . S
C872 C891 1.429 . S
C872 H896 0.950 . S
C873 C890 1.574 . S
C873 C892 1.368 . S
C873 H897 0.949 . S
H874 C878 0.949 . S
C875 C876 1.349 . S
C875 C877 1.327 . S
C875 H898 0.950 . S
C876 C875 1.349 . S
C876 C888 1.349 . S
C877 C875 1.327 . S
C877 C893 1.429 . S
C877 H899 0.950 . S
C878 H874 0.949 . S
C878 C886 1.574 . S
C878 C894 1.368 . S
H879 C887 0.950 . S
H880 C885 0.950 . S
H881 C886 0.949 . S
H882 C888 0.950 . S
H883 C889 0.950 . S
H884 C890 0.949 . S
C885 H880 0.950 . S
C885 C887 1.327 . S
C885 C891 1.429 . S
C886 C878 1.574 . S
C886 H881 0.949 . S
C886 C892 1.368 . S
C887 C871 1.349 . S
C887 H879 0.950 . S
C887 C885 1.327 . S
C888 C876 1.349 . S
C888 H882 0.950 . S
C888 C889 1.327 . S
C889 H883 0.950 . S
C889 C888 1.327 . S
C889 C893 1.429 . S
C890 C873 1.574 . S
C890 H884 0.949 . S
C890 C894 1.368 . S
C891 C872 1.429 . S
C891 C885 1.429 . S
C891 C892 1.523 . S
C892 C873 1.368 . S
C892 C886 1.368 . S
C892 C891 1.523 . S
C893 C877 1.429 . S
C893 C889 1.429 . S
C893 C894 1.523 . S
C894 C878 1.368 . S
C894 C890 1.368 . S
C894 C893 1.523 . S
H895 C870 0.950 . S
H896 C872 0.950 . S
H897 C873 0.949 . S
H898 C875 0.950 . S
H899 C877 0.950 . S
C900 C901 1.349 . S
C900 C902 1.327 . S
C900 H925 0.950 . S
C901 C900 1.349 . S
C901 C917 1.349 . S
C902 C900 1.327 . S
C902 C921 1.429 . S
C902 H926 0.950 . S
C903 C920 1.574 . S
C903 C922 1.368 . S
C903 H927 0.949 . S
H904 C908 0.949 . S
C905 C906 1.349 . S
C905 C907 1.327 . S
C905 H928 0.950 . S
C906 C905 1.349 . S
C906 C918 1.349 . S
C907 C905 1.327 . S
C907 C923 1.429 . S
C907 H929 0.950 . S
C908 H904 0.949 . S
C908 C916 1.574 . S
C908 C924 1.368 . S
H909 C917 0.950 . S
H910 C915 0.950 . S
H911 C916 0.949 . S
H912 C918 0.950 . S
H913 C919 0.950 . S
H914 C920 0.949 . S
C915 H910 0.950 . S
C915 C917 1.327 . S
C915 C921 1.429 . S
C916 C908 1.574 . S
C916 H911 0.949 . S
C916 C922 1.368 . S
C917 C901 1.349 . S
C917 H909 0.950 . S
C917 C915 1.327 . S
C918 C906 1.349 . S
C918 H912 0.950 . S
C918 C919 1.327 . S
C919 H913 0.950 . S
C919 C918 1.327 . S
C919 C923 1.429 . S
C920 C903 1.574 . S
C920 H914 0.949 . S
C920 C924 1.368 . S
C921 C902 1.429 . S
C921 C915 1.429 . S
C921 C922 1.523 . S
C922 C903 1.368 . S
C922 C916 1.368 . S
C922 C921 1.523 . S
C923 C907 1.429 . S
C923 C919 1.429 . S
C923 C924 1.523 . S
C924 C908 1.368 . S
C924 C920 1.368 . S
C924 C923 1.523 . S
H925 C900 0.950 . S
H926 C902 0.950 . S
H927 C903 0.949 . S
H928 C905 0.950 . S
H929 C907 0.950 . S
C930 C931 1.349 . S
C930 C932 1.327 . S
C930 H955 0.950 . S
C931 C930 1.349 . S
C931 C947 1.349 . S
C932 C930 1.327 . S
C932 C951 1.429 . S
C932 H956 0.950 . S
C933 C950 1.574 . S
C933 C952 1.368 . S
C933 H957 0.949 . S
H934 C938 0.949 . S
C935 C936 1.349 . S
C935 C937 1.327 . S
C935 H958 0.950 . S
C936 C935 1.349 . S
C936 C948 1.349 . S
C937 C935 1.327 . S
C937 C953 1.429 . S
C937 H959 0.950 . S
C938 H934 0.949 . S
C938 C946 1.574 . S
C938 C954 1.368 . S
H939 C947 0.950 . S
H940 C945 0.950 . S
H941 C946 0.949 . S
H942 C948 0.950 . S
H943 C949 0.950 . S
H944 C950 0.949 . S
C945 H940 0.950 . S
C945 C947 1.327 . S
C945 C951 1.429 . S
C946 C938 1.574 . S
C946 H941 0.949 . S
C946 C952 1.368 . S
C947 C931 1.349 . S
C947 H939 0.950 . S
C947 C945 1.327 . S
C948 C936 1.349 . S
C948 H942 0.950 . S
C948 C949 1.327 . S
C949 H943 0.950 . S
C949 C948 1.327 . S
C949 C953 1.429 . S
C950 C933 1.574 . S
C950 H944 0.949 . S
C950 C954 1.368 . S
C951 C932 1.429 . S
C951 C945 1.429 . S
C951 C952 1.523 . S
C952 C933 1.368 . S
C952 C946 1.368 . S
C952 C951 1.523 . S
C953 C937 1.429 . S
C953 C949 1.429 . S
C953 C954 1.523 . S
C954 C938 1.368 . S
C954 C950 1.368 . S
C954 C953 1.523 . S
H955 C930 0.950 . S
H956 C932 0.950 . S
H957 C933 0.949 . S
H958 C935 0.950 . S
H959 C937 0.950 . S
C960 C961 1.349 . S
C960 C962 1.327 . S
C960 H985 0.950 . S
C961 C960 1.349 . S
C961 C977 1.349 . S
C962 C960 1.327 . S
C962 C981 1.429 . S
C962 H986 0.950 . S
C963 C980 1.574 . S
C963 C982 1.368 . S
C963 H987 0.949 . S
H964 C968 0.949 . S
C965 C966 1.349 . S
C965 C967 1.327 . S
C965 H988 0.950 . S
C966 C965 1.349 . S
C966 C978 1.349 . S
C967 C965 1.327 . S
C967 C983 1.429 . S
C967 H989 0.950 . S
C968 H964 0.949 . S
C968 C976 1.574 . S
C968 C984 1.368 . S
H969 C977 0.950 . S
H970 C975 0.950 . S
H971 C976 0.949 . S
H972 C978 0.950 . S
H973 C979 0.950 . S
H974 C980 0.949 . S
C975 H970 0.950 . S
C975 C977 1.327 . S
C975 C981 1.429 . S
C976 C968 1.574 . S
C976 H971 0.949 . S
C976 C982 1.368 . S
C977 C961 1.349 . S
C977 H969 0.950 . S
C977 C975 1.327 . S
C978 C966 1.349 . S
C978 H972 0.950 . S
C978 C979 1.327 . S
C979 H973 0.950 . S
C979 C978 1.327 . S
C979 C983 1.429 . S
C980 C963 1.574 . S
C980 H974 0.949 . S
C980 C984 1.368 . S
C981 C962 1.429 . S
C981 C975 1.429 . S
C981 C982 1.523 . S
C982 C963 1.368 . S
C982 C976 1.368 . S
C982 C981 1.523 . S
C983 C967 1.429 . S
C983 C979 1.429 . S
C983 C984 1.523 . S
C984 C968 1.368 . S
C984 C980 1.368 . S
C984 C983 1.523 . S
H985 C960 0.950 . S
H986 C962 0.950 . S
H987 C963 0.949 . S
H988 C965 0.950 . S
H989 C967 0.950 . S
C990 C991 1.349 . S
C990 C992 1.327 . S
C990 H1015 0.950 . S
C991 C990 1.349 . S
C991 C1007 1.349 . S
C992 C990 1.327 . S
C992 C1011 1.429 . S
C992 H1016 0.950 . S
C993 C1010 1.574 . S
C993 C1012 1.368 . S
C993 H1017 0.949 . S
H994 C998 0.949 . S
C995 C996 1.349 . S
C995 C997 1.327 . S
C995 H1018 0.950 . S
C996 C995 1.349 . S
C996 C1008 1.349 . S
C997 C995 1.327 . S
C997 C1013 1.429 . S
C997 H1019 0.950 . S
C998 H994 0.949 . S
C998 C1006 1.574 . S
C998 C1014 1.368 . S
H999 C1007 0.950 . S
H1000 C1005 0.950 . S
H1001 C1006 0.949 . S
H1002 C1008 0.950 . S
H1003 C1009 0.950 . S
H1004 C1010 0.949 . S
C1005 H1000 0.950 . S
C1005 C1007 1.327 . S
C1005 C1011 1.429 . S
C1006 C998 1.574 . S
C1006 H1001 0.949 . S
C1006 C1012 1.368 . S
C1007 C991 1.349 . S
C1007 H999 0.950 . S
C1007 C1005 1.327 . S
C1008 C996 1.349 . S
C1008 H1002 0.950 . S
C1008 C1009 1.327 . S
C1009 H1003 0.950 . S
C1009 C1008 1.327 . S
C1009 C1013 1.429 . S
C1010 C993 1.574 . S
C1010 H1004 0.949 . S
C1010 C1014 1.368 . S
C1011 C992 1.429 . S
C1011 C1005 1.429 . S
C1011 C1012 1.523 . S
C1012 C993 1.368 . S
C1012 C1006 1.368 . S
C1012 C1011 1.523 . S
C1013 C997 1.429 . S
C1013 C1009 1.429 . S
C1013 C1014 1.523 . S
C1014 C998 1.368 . S
C1014 C1010 1.368 . S
C1014 C1013 1.523 . S
H1015 C990 0.950 . S
H1016 C992 0.950 . S
H1017 C993 0.949 . S
H1018 C995 0.950 . S
H1019 C997 0.950 . S
C1020 C1021 1.349 . S
C1020 C1022 1.327 . S
C1020 H1045 0.950 . S
C1021 C1020 1.349 . S
C1021 C1037 1.349 . S
C1022 C1020 1.327 . S
C1022 C1041 1.429 . S
C1022 H1046 0.950 . S
C1023 C1040 1.574 . S
C1023 C1042 1.368 . S
C1023 H1047 0.949 . S
H1024 C1028 0.949 . S
C1025 C1026 1.349 . S
C1025 C1027 1.327 . S
C1025 H1048 0.950 . S
C1026 C1025 1.349 . S
C1026 C1038 1.349 . S
C1027 C1025 1.327 . S
C1027 C1043 1.429 . S
C1027 H1049 0.950 . S
C1028 H1024 0.949 . S
C1028 C1036 1.574 . S
C1028 C1044 1.368 . S
H1029 C1037 0.950 . S
H1030 C1035 0.950 . S
H1031 C1036 0.949 . S
H1032 C1038 0.950 . S
H1033 C1039 0.950 . S
H1034 C1040 0.949 . S
C1035 H1030 0.950 . S
C1035 C1037 1.327 . S
C1035 C1041 1.429 . S
C1036 C1028 1.574 . S
C1036 H1031 0.949 . S
C1036 C1042 1.368 . S
C1037 C1021 1.349 . S
C1037 H1029 0.950 . S
C1037 C1035 1.327 . S
C1038 C1026 1.349 . S
C1038 H1032 0.950 . S
C1038 C1039 1.327 . S
C1039 H1033 0.950 . S
C1039 C1038 1.327 . S
C1039 C1043 1.429 . S
C1040 C1023 1.574 . S
C1040 H1034 0.949 . S
C1040 C1044 1.368 . S
C1041 C1022 1.429 . S
C1041 C1035 1.429 . S
C1041 C1042 1.523 . S
C1042 C1023 1.368 . S
C1042 C1036 1.368 . S
C1042 C1041 1.523 . S
C1043 C1027 1.429 . S
C1043 C1039 1.429 . S
C1043 C1044 1.523 . S
C1044 C1028 1.368 . S
C1044 C1040 1.368 . S
C1044 C1043 1.523 . S
H1045 C1020 0.950 . S
H1046 C1022 0.950 . S
H1047 C1023 0.949 . S
H1048 C1025 0.950 . S
H1049 C1027 0.950 . S
C1050 C1051 1.349 . S
C1050 C1052 1.327 . S
C1050 H1075 0.950 . S
C1051 C1050 1.349 . S
C1051 C1067 1.349 . S
C1052 C1050 1.327 . S
C1052 C1071 1.429 . S
C1052 H1076 0.950 . S
C1053 C1070 1.574 . S
C1053 C1072 1.368 . S
C1053 H1077 0.949 . S
H1054 C1058 0.949 . S
C1055 C1056 1.349 . S
C1055 C1057 1.327 . S
C1055 H1078 0.950 . S
C1056 C1055 1.349 . S
C1056 C1068 1.349 . S
C1057 C1055 1.327 . S
C1057 C1073 1.429 . S
C1057 H1079 0.950 . S
C1058 H1054 0.949 . S
C1058 C1066 1.574 . S
C1058 C1074 1.368 . S
H1059 C1067 0.950 . S
H1060 C1065 0.950 . S
H1061 C1066 0.949 . S
H1062 C1068 0.950 . S
H1063 C1069 0.950 . S
H1064 C1070 0.949 . S
C1065 H1060 0.950 . S
C1065 C1067 1.327 . S
C1065 C1071 1.429 . S
C1066 C1058 1.574 . S
C1066 H1061 0.949 . S
C1066 C1072 1.368 . S
C1067 C1051 1.349 . S
C1067 H1059 0.950 . S
C1067 C1065 1.327 . S
C1068 C1056 1.349 . S
C1068 H1062 0.950 . S
C1068 C1069 1.327 . S
C1069 H1063 0.950 . S
C1069 C1068 1.327 . S
C1069 C1073 1.429 . S
C1070 C1053 1.574 . S
C1070 H1064 0.949 . S
C1070 C1074 1.368 . S
C1071 C1052 1.429 . S
C1071 C1065 1.429 . S
C1071 C1072 1.523 . S
C1072 C1053 1.368 . S
C1072 C1066 1.368 . S
C1072 C1071 1.523 . S
C1073 C1057 1.429 . S
C1073 C1069 1.429 . S
C1073 C1074 1.523 . S
C1074 C1058 1.368 . S
C1074 C1070 1.368 . S
C1074 C1073 1.523 . S
H1075 C1050 0.950 . S
H1076 C1052 0.950 . S
H1077 C1053 0.949 . S
H1078 C1055 0.950 . S
H1079 C1057 0.950 . S
C1080 C1081 1.349 . S
C1080 C1082 1.327 . S
C1080 H1105 0.950 . S
C1081 C1080 1.349 . S
C1081 C1097 1.349 . S
C1082 C1080 1.327 . S
C1082 C1101 1.429 . S
C1082 H1106 0.950 . S
C1083 C1100 1.574 . S
C1083 C1102 1.368 . S
C1083 H1107 0.949 . S
H1084 C1088 0.949 . S
C1085 C1086 1.349 . S
C1085 C1087 1.327 . S
C1085 H1108 0.950 . S
C1086 C1085 1.349 . S
C1086 C1098 1.349 . S
C1087 C1085 1.327 . S
C1087 C1103 1.429 . S
C1087 H1109 0.950 . S
C1088 H1084 0.949 . S
C1088 C1096 1.574 . S
C1088 C1104 1.368 . S
H1089 C1097 0.950 . S
H1090 C1095 0.950 . S
H1091 C1096 0.949 . S
H1092 C1098 0.950 . S
H1093 C1099 0.950 . S
H1094 C1100 0.949 . S
C1095 H1090 0.950 . S
C1095 C1097 1.327 . S
C1095 C1101 1.429 . S
C1096 C1088 1.574 . S
C1096 H1091 0.949 . S
C1096 C1102 1.368 . S
C1097 C1081 1.349 . S
C1097 H1089 0.950 . S
C1097 C1095 1.327 . S
C1098 C1086 1.349 . S
C1098 H1092 0.950 . S
C1098 C1099 1.327 . S
C1099 H1093 0.950 . S
C1099 C1098 1.327 . S
C1099 C1103 1.429 . S
C1100 C1083 1.574 . S
C1100 H1094 0.949 . S
C1100 C1104 1.368 . S
C1101 C1082 1.429 . S
C1101 C1095 1.429 . S
C1101 C1102 1.523 . S
C1102 C1083 1.368 . S
C1102 C1096 1.368 . S
C1102 C1101 1.523 . S
C1103 C1087 1.429 . S
C1103 C1099 1.429 . S
C1103 C1104 1.523 . S
C1104 C1088 1.368 . S
C1104 C1100 1.368 . S
C1104 C1103 1.523 . S
H1105 C1080 0.950 . S
H1106 C1082 0.950 . S
H1107 C1083 0.949 . S
H1108 C1085 0.950 . S
H1109 C1087 0.950 . S
C1110 C1111 1.349 . S
C1110 C1112 1.327 . S
C1110 H1135 0.950 . S
C1111 C1110 1.349 . S
C1111 C1127 1.349 . S
C1112 C1110 1.327 . S
C1112 C1131 1.429 . S
C1112 H1136 0.950 . S
C1113 C1130 1.574 . S
C1113 C1132 1.368 . S
C1113 H1137 0.949 . S
H1114 C1118 0.949 . S
C1115 C1116 1.349 . S
C1115 C1117 1.327 . S
C1115 H1138 0.950 . S
C1116 C1115 1.349 . S
C1116 C1128 1.349 . S
C1117 C1115 1.327 . S
C1117 C1133 1.429 . S
C1117 H1139 0.950 . S
C1118 H1114 0.949 . S
C1118 C1126 1.574 . S
C1118 C1134 1.368 . S
H1119 C1127 0.950 . S
H1120 C1125 0.950 . S
H1121 C1126 0.949 . S
H1122 C1128 0.950 . S
H1123 C1129 0.950 . S
H1124 C1130 0.949 . S
C1125 H1120 0.950 . S
C1125 C1127 1.327 . S
C1125 C1131 1.429 . S
C1126 C1118 1.574 . S
C1126 H1121 0.949 . S
C1126 C1132 1.368 . S
C1127 C1111 1.349 . S
C1127 H1119 0.950 . S
C1127 C1125 1.327 . S
C1128 C1116 1.349 . S
C1128 H1122 0.950 . S
C1128 C1129 1.327 . S
C1129 H1123 0.950 . S
C1129 C1128 1.327 . S
C1129 C1133 1.429 . S
C1130 C1113 1.574 . S
C1130 H1124 0.949 . S
C1130 C1134 1.368 . S
C1131 C1112 1.429 . S
C1131 C1125 1.429 . S
C1131 C1132 1.523 . S
C1132 C1113 1.368 . S
C1132 C1126 1.368 . S
C1132 C1131 1.523 . S
C1133 C1117 1.429 . S
C1133 C1129 1.429 . S
C1133 C1134 1.523 . S
C1134 C1118 1.368 . S
C1134 C1130 1.368 . S
C1134 C1133 1.523 . S
H1135 C1110 0.950 . S
H1136 C1112 0.950 . S
H1137 C1113 0.949 . S
H1138 C1115 0.950 . S
H1139 C1117 0.950 . S
C1140 C1141 1.349 . S
C1140 C1142 1.327 . S
C1140 H1165 0.950 . S
C1141 C1140 1.349 . S
C1141 C1157 1.349 . S
C1142 C1140 1.327 . S
C1142 C1161 1.429 . S
C1142 H1166 0.950 . S
C1143 C1160 1.574 . S
C1143 C1162 1.368 . S
C1143 H1167 0.949 . S
H1144 C1148 0.949 . S
C1145 C1146 1.349 . S
C1145 C1147 1.327 . S
C1145 H1168 0.950 . S
C1146 C1145 1.349 . S
C1146 C1158 1.349 . S
C1147 C1145 1.327 . S
C1147 C1163 1.429 . S
C1147 H1169 0.950 . S
C1148 H1144 0.949 . S
C1148 C1156 1.574 . S
C1148 C1164 1.368 . S
H1149 C1157 0.950 . S
H1150 C1155 0.950 . S
H1151 C1156 0.949 . S
H1152 C1158 0.950 . S
H1153 C1159 0.950 . S
H1154 C1160 0.949 . S
C1155 H1150 0.950 . S
C1155 C1157 1.327 . S
C1155 C1161 1.429 . S
C1156 C1148 1.574 . S
C1156 H1151 0.949 . S
C1156 C1162 1.368 . S
C1157 C1141 1.349 . S
C1157 H1149 0.950 . S
C1157 C1155 1.327 . S
C1158 C1146 1.349 . S
C1158 H1152 0.950 . S
C1158 C1159 1.327 . S
C1159 H1153 0.950 . S
C1159 C1158 1.327 . S
C1159 C1163 1.429 . S
C1160 C1143 1.574 . S
C1160 H1154 0.949 . S
C1160 C1164 1.368 . S
C1161 C1142 1.429 . S
C1161 C1155 1.429 . S
C1161 C1162 1.523 . S
C1162 C1143 1.368 . S
C1162 C1156 1.368 . S
C1162 C1161 1.523 . S
C1163 C1147 1.429 . S
C1163 C1159 1.429 . S
C1163 C1164 1.523 . S
C1164 C1148 1.368 . S
C1164 C1160 1.368 . S
C1164 C1163 1.523 . S
H1165 C1140 0.950 . S
H1166 C1142 0.950 . S
H1167 C1143 0.949 . S
H1168 C1145 0.950 . S
H1169 C1147 0.950 . S
C1170 C1171 1.349 . S
C1170 C1172 1.327 . S
C1170 H1195 0.950 . S
C1171 C1170 1.349 . S
C1171 C1187 1.349 . S
C1172 C1170 1.327 . S
C1172 C1191 1.429 . S
C1172 H1196 0.950 . S
C1173 C1190 1.574 . S
C1173 C1192 1.368 . S
C1173 H1197 0.949 . S
H1174 C1178 0.949 . S
C1175 C1176 1.349 . S
C1175 C1177 1.327 . S
C1175 H1198 0.950 . S
C1176 C1175 1.349 . S
C1176 C1188 1.349 . S
C1177 C1175 1.327 . S
C1177 C1193 1.429 . S
C1177 H1199 0.950 . S
C1178 H1174 0.949 . S
C1178 C1186 1.574 . S
C1178 C1194 1.368 . S
H1179 C1187 0.950 . S
H1180 C1185 0.950 . S
H1181 C1186 0.949 . S
H1182 C1188 0.950 . S
H1183 C1189 0.950 . S
H1184 C1190 0.949 . S
C1185 H1180 0.950 . S
C1185 C1187 1.327 . S
C1185 C1191 1.429 . S
C1186 C1178 1.574 . S
C1186 H1181 0.949 . S
C1186 C1192 1.368 . S
C1187 C1171 1.349 . S
C1187 H1179 0.950 . S
C1187 C1185 1.327 . S
C1188 C1176 1.349 . S
C1188 H1182 0.950 . S
C1188 C1189 1.327 . S
C1189 H1183 0.950 . S
C1189 C1188 1.327 . S
C1189 C1193 1.429 . S
C1190 C1173 1.574 . S
C1190 H1184 0.949 . S
C1190 C1194 1.368 . S
C1191 C1172 1.429 . S
C1191 C1185 1.429 . S
C1191 C1192 1.523 . S
C1192 C1173 1.368 . S
C1192 C1186 1.368 . S
C1192 C1191 1.523 . S
C1193 C1177 1.429 . S
C1193 C1189 1.429 . S
C1193 C1194 1.523 . S
C1194 C1178 1.368 . S
C1194 C1190 1.368 . S
C1194 C1193 1.523 . S
H1195 C1170 0.950 . S
H1196 C1172 0.950 . S
H1197 C1173 0.949 . S
H1198 C1175 0.950 . S
H1199 C1177 0.950 . S
C1200 C1201 1.349 . S
C1200 C1202 1.327 . S
C1200 H1225 0.950 . S
C1201 C1200 1.349 . S
C1201 C1217 1.349 . S
C1202 C1200 1.327 . S
C1202 C1221 1.429 . S
C1202 H1226 0.950 . S
C1203 C1220 1.574 . S
C1203 C1222 1.368 . S
C1203 H1227 0.949 . S
H1204 C1208 0.949 . S
C1205 C1206 1.349 . S
C1205 C1207 1.327 . S
C1205 H1228 0.950 . S
C1206 C1205 1.349 . S
C1206 C1218 1.349 . S
C1207 C1205 1.327 . S
C1207 C1223 1.429 . S
C1207 H1229 0.950 . S
C1208 H1204 0.949 . S
C1208 C1216 1.574 . S
C1208 C1224 1.368 . S
H1209 C1217 0.950 . S
H1210 C1215 0.950 . S
H1211 C1216 0.949 . S
H1212 C1218 0.950 . S
H1213 C1219 0.950 . S
H1214 C1220 0.949 . S
C1215 H1210 0.950 . S
C1215 C1217 1.327 . S
C1215 C1221 1.429 . S
C1216 C1208 1.574 . S
C1216 H1211 0.949 . S
C1216 C1222 1.368 . S
C1217 C1201 1.349 . S
C1217 H1209 0.950 . S
C1217 C1215 1.327 . S
C1218 C1206 1.349 . S
C1218 H1212 0.950 . S
C1218 C1219 1.327 . S
C1219 H1213 0.950 . S
C1219 C1218 1.327 . S
C1219 C1223 1.429 . S
C1220 C1203 1.574 . S
C1220 H1214 0.949 . S
C1220 C1224 1.368 . S
C1221 C1202 1.429 . S
C1221 C1215 1.429 . S
C1221 C1222 1.523 . S
C1222 C1203 1.368 . S
C1222 C1216 1.368 . S
C1222 C1221 1.523 . S
C1223 C1207 1.429 . S
C1223 C1219 1.429 . S
C1223 C1224 1.523 . S
C1224 C1208 1.368 . S
C1224 C1220 1.368 . S
C1224 C1223 1.523 . S
H1225 C1200 0.950 . S
H1226 C1202 0.950 . S
H1227 C1203 0.949 . S
H1228 C1205 0.950 . S
H1229 C1207 0.950 . S
C1230 C1231 1.349 . S
C1230 C1232 1.327 . S
C1230 H1255 0.950 . S
C1231 C1230 1.349 . S
C1231 C1247 1.349 . S
C1232 C1230 1.327 . S
C1232 C1251 1.429 . S
C1232 H1256 0.950 . S
C1233 C1250 1.574 . S
C1233 C1252 1.368 . S
C1233 H1257 0.949 . S
H1234 C1238 0.949 . S
C1235 C1236 1.349 . S
C1235 C1237 1.327 . S
C1235 H1258 0.950 . S
C1236 C1235 1.349 . S
C1236 C1248 1.349 . S
C1237 C1235 1.327 . S
C1237 C1253 1.429 . S
C1237 H1259 0.950 . S
C1238 H1234 0.949 . S
C1238 C1246 1.574 . S
C1238 C1254 1.368 . S
H1239 C1247 0.950 . S
H1240 C1245 0.950 . S
H1241 C1246 0.949 . S
H1242 C1248 0.950 . S
H1243 C1249 0.950 . S
H1244 C1250 0.949 . S
C1245 H1240 0.950 . S
C1245 C1247 1.327 . S
C1245 C1251 1.429 . S
C1246 C1238 1.574 . S
C1246 H1241 0.949 . S
C1246 C1252 1.368 . S
C1247 C1231 1.349 . S
C1247 H1239 0.950 . S
C1247 C1245 1.327 . S
C1248 C1236 1.349 . S
C1248 H1242 0.950 . S
C1248 C1249 1.327 . S
C1249 H1243 0.950 . S
C1249 C1248 1.327 . S
C1249 C1253 1.429 . S
C1250 C1233 1.574 . S
C1250 H1244 0.949 . S
C1250 C1254 1.368 . S
C1251 C1232 1.429 . S
C1251 C1245 1.429 . S
C1251 C1252 1.523 . S
C1252 C1233 1.368 . S
C1252 C1246 1.368 . S
C1252 C1251 1.523 . S
C1253 C1237 1.429 . S
C1253 C1249 1.429 . S
C1253 C1254 1.523 . S
C1254 C1238 1.368 . S
C1254 C1250 1.368 . S
C1254 C1253 1.523 . S
H1255 C1230 0.950 . S
H1256 C1232 0.950 . S
H1257 C1233 0.949 . S
H1258 C1235 0.950 . S
H1259 C1237 0.950 . S
C1260 C1261 1.349 . S
C1260 C1262 1.327 . S
C1260 H1285 0.950 . S
C1261 C1260 1.349 . S
C1261 C1277 1.349 . S
C1262 C1260 1.327 . S
C1262 C1281 1.429 . S
C1262 H1286 0.950 . S
C1263 C1280 1.574 . S
C1263 C1282 1.368 . S
C1263 H1287 0.949 . S
H1264 C1268 0.949 . S
C1265 C1266 1.349 1_554 S
C1265 C1267 1.327 1_554 S
C1265 H1288 0.950 . S
C1266 C1265 1.349 1_556 S
C1266 C1278 1.349 . S
C1267 C1265 1.327 1_556 S
C1267 C1283 1.429 . S
C1267 H1289 0.948 1_556 S
C1268 H1264 0.949 . S
C1268 C1276 1.574 . S
C1268 C1284 1.368 . S
H1269 C1277 0.950 . S
H1270 C1275 0.950 . S
H1271 C1276 0.949 . S
H1272 C1278 0.950 . S
H1273 C1279 0.950 . S
H1274 C1280 0.949 . S
C1275 H1270 0.950 . S
C1275 C1277 1.327 . S
C1275 C1281 1.429 . S
C1276 C1268 1.574 . S
C1276 H1271 0.949 . S
C1276 C1282 1.368 . S
C1277 C1261 1.349 . S
C1277 H1269 0.950 . S
C1277 C1275 1.327 . S
C1278 C1266 1.349 . S
C1278 H1272 0.950 . S
C1278 C1279 1.327 . S
C1279 H1273 0.950 . S
C1279 C1278 1.327 . S
C1279 C1283 1.429 . S
C1280 C1263 1.574 . S
C1280 H1274 0.949 . S
C1280 C1284 1.368 . S
C1281 C1262 1.429 . S
C1281 C1275 1.429 . S
C1281 C1282 1.523 . S
C1282 C1263 1.368 . S
C1282 C1276 1.368 . S
C1282 C1281 1.523 . S
C1283 C1267 1.429 . S
C1283 C1279 1.429 . S
C1283 C1284 1.523 . S
C1284 C1268 1.368 . S
C1284 C1280 1.368 . S
C1284 C1283 1.523 . S
H1285 C1260 0.950 . S
H1286 C1262 0.950 . S
H1287 C1263 0.949 . S
H1288 C1265 0.950 . S
H1289 C1267 0.948 1_554 S
C1290 C1291 1.349 . S
C1290 C1292 1.327 . S
C1290 H1315 0.950 . S
C1291 C1290 1.349 . S
C1291 C1307 1.349 . S
C1292 C1290 1.327 . S
C1292 C1311 1.429 . S
C1292 H1316 0.950 . S
C1293 C1310 1.574 . S
C1293 C1312 1.368 . S
C1293 H1317 0.949 . S
H1294 C1298 0.949 . S
C1295 C1296 1.349 . S
C1295 C1297 1.327 . S
C1295 H1318 0.950 . S
C1296 C1295 1.349 . S
C1296 C1308 1.349 . S
C1297 C1295 1.327 . S
C1297 C1313 1.429 . S
C1297 H1319 0.950 . S
C1298 H1294 0.949 . S
C1298 C1306 1.574 . S
C1298 C1314 1.368 . S
H1299 C1307 0.950 . S
H1300 C1305 0.950 . S
H1301 C1306 0.949 . S
H1302 C1308 0.950 . S
H1303 C1309 0.950 . S
H1304 C1310 0.949 . S
C1305 H1300 0.950 . S
C1305 C1307 1.327 . S
C1305 C1311 1.429 . S
C1306 C1298 1.574 . S
C1306 H1301 0.949 . S
C1306 C1312 1.368 . S
C1307 C1291 1.349 . S
C1307 H1299 0.950 . S
C1307 C1305 1.327 . S
C1308 C1296 1.349 . S
C1308 H1302 0.950 . S
C1308 C1309 1.327 . S
C1309 H1303 0.950 . S
C1309 C1308 1.327 . S
C1309 C1313 1.429 . S
C1310 C1293 1.574 . S
C1310 H1304 0.949 . S
C1310 C1314 1.368 . S
C1311 C1292 1.429 . S
C1311 C1305 1.429 . S
C1311 C1312 1.523 . S
C1312 C1293 1.368 . S
C1312 C1306 1.368 . S
C1312 C1311 1.523 . S
C1313 C1297 1.429 . S
C1313 C1309 1.429 . S
C1313 C1314 1.523 . S
C1314 C1298 1.368 . S
C1314 C1310 1.368 . S
C1314 C1313 1.523 . S
H1315 C1290 0.950 . S
H1316 C1292 0.950 . S
H1317 C1293 0.949 . S
H1318 C1295 0.950 . S
H1319 C1297 0.950 . S
C1320 C1321 1.349 . S
C1320 C1322 1.327 . S
C1320 H1345 0.950 . S
C1321 C1320 1.349 . S
C1321 C1337 1.349 . S
C1322 C1320 1.327 . S
C1322 C1341 1.429 . S
C1322 H1346 0.950 . S
C1323 C1340 1.574 . S
C1323 C1342 1.368 . S
C1323 H1347 0.949 . S
H1324 C1328 0.949 . S
C1325 C1326 1.349 . S
C1325 C1327 1.327 . S
C1325 H1348 0.950 1_556 S
C1326 C1325 1.349 . S
C1326 C1338 1.349 . S
C1327 C1325 1.327 . S
C1327 C1343 1.429 . S
C1327 H1349 0.950 . S
C1328 H1324 0.949 . S
C1328 C1336 1.574 . S
C1328 C1344 1.368 . S
H1329 C1337 0.950 . S
H1330 C1335 0.950 . S
H1331 C1336 0.949 . S
H1332 C1338 0.950 . S
H1333 C1339 0.950 . S
H1334 C1340 0.949 . S
C1335 H1330 0.950 . S
C1335 C1337 1.327 . S
C1335 C1341 1.429 . S
C1336 C1328 1.574 . S
C1336 H1331 0.949 . S
C1336 C1342 1.368 . S
C1337 C1321 1.349 . S
C1337 H1329 0.950 . S
C1337 C1335 1.327 . S
C1338 C1326 1.349 . S
C1338 H1332 0.950 . S
C1338 C1339 1.327 . S
C1339 H1333 0.950 . S
C1339 C1338 1.327 . S
C1339 C1343 1.429 . S
C1340 C1323 1.574 . S
C1340 H1334 0.949 . S
C1340 C1344 1.368 . S
C1341 C1322 1.429 . S
C1341 C1335 1.429 . S
C1341 C1342 1.523 . S
C1342 C1323 1.368 . S
C1342 C1336 1.368 . S
C1342 C1341 1.523 . S
C1343 C1327 1.429 . S
C1343 C1339 1.429 . S
C1343 C1344 1.523 . S
C1344 C1328 1.368 . S
C1344 C1340 1.368 . S
C1344 C1343 1.523 . S
H1345 C1320 0.950 . S
H1346 C1322 0.950 . S
H1347 C1323 0.949 . S
H1348 C1325 0.950 1_554 S
H1349 C1327 0.950 . S
C1350 C1351 1.349 . S
C1350 C1352 1.327 . S
C1350 H1375 0.950 . S
C1351 C1350 1.349 . S
C1351 C1367 1.349 . S
C1352 C1350 1.327 . S
C1352 C1371 1.429 . S
C1352 H1376 0.950 . S
C1353 C1370 1.574 . S
C1353 C1372 1.368 . S
C1353 H1377 0.949 . S
H1354 C1358 0.949 . S
C1355 C1356 1.349 . S
C1355 C1357 1.327 . S
C1355 H1378 0.950 . S
C1356 C1355 1.349 . S
C1356 C1368 1.349 . S
C1357 C1355 1.327 . S
C1357 C1373 1.429 . S
C1357 H1379 0.950 . S
C1358 H1354 0.949 . S
C1358 C1366 1.574 . S
C1358 C1374 1.368 . S
H1359 C1367 0.950 . S
H1360 C1365 0.950 . S
H1361 C1366 0.949 . S
H1362 C1368 0.950 . S
H1363 C1369 0.950 . S
H1364 C1370 0.949 . S
C1365 H1360 0.950 . S
C1365 C1367 1.327 . S
C1365 C1371 1.429 . S
C1366 C1358 1.574 . S
C1366 H1361 0.949 . S
C1366 C1372 1.368 . S
C1367 C1351 1.349 . S
C1367 H1359 0.950 . S
C1367 C1365 1.327 . S
C1368 C1356 1.349 . S
C1368 H1362 0.950 . S
C1368 C1369 1.327 . S
C1369 H1363 0.950 . S
C1369 C1368 1.327 . S
C1369 C1373 1.429 . S
C1370 C1353 1.574 . S
C1370 H1364 0.949 . S
C1370 C1374 1.368 . S
C1371 C1352 1.429 . S
C1371 C1365 1.429 . S
C1371 C1372 1.523 . S
C1372 C1353 1.368 . S
C1372 C1366 1.368 . S
C1372 C1371 1.523 . S
C1373 C1357 1.429 . S
C1373 C1369 1.429 . S
C1373 C1374 1.523 . S
C1374 C1358 1.368 . S
C1374 C1370 1.368 . S
C1374 C1373 1.523 . S
H1375 C1350 0.950 . S
H1376 C1352 0.950 . S
H1377 C1353 0.949 . S
H1378 C1355 0.950 . S
H1379 C1357 0.950 . S
C1380 C1381 1.349 . S
C1380 C1382 1.327 . S
C1380 H1405 0.950 . S
C1381 C1380 1.349 . S
C1381 C1397 1.349 . S
C1382 C1380 1.327 . S
C1382 C1401 1.429 . S
C1382 H1406 0.950 . S
C1383 C1400 1.574 . S
C1383 C1402 1.368 . S
C1383 H1407 0.949 . S
H1384 C1388 0.949 . S
C1385 C1386 1.349 1_554 S
C1385 C1387 1.327 1_554 S
C1385 H1408 0.950 . S
C1386 C1385 1.349 1_556 S
C1386 C1398 1.349 . S
C1387 C1385 1.327 1_556 S
C1387 C1403 1.429 . S
C1387 H1409 0.950 . S
C1388 H1384 0.949 . S
C1388 C1396 1.574 . S
C1388 C1404 1.368 . S
H1389 C1397 0.950 . S
H1390 C1395 0.950 . S
H1391 C1396 0.949 . S
H1392 C1398 0.950 . S
H1393 C1399 0.950 . S
H1394 C1400 0.949 . S
C1395 H1390 0.950 . S
C1395 C1397 1.327 . S
C1395 C1401 1.429 . S
C1396 C1388 1.574 . S
C1396 H1391 0.949 . S
C1396 C1402 1.368 . S
C1397 C1381 1.349 . S
C1397 H1389 0.950 . S
C1397 C1395 1.327 . S
C1398 C1386 1.349 . S
C1398 H1392 0.950 . S
C1398 C1399 1.327 . S
C1399 H1393 0.950 . S
C1399 C1398 1.327 . S
C1399 C1403 1.429 . S
C1400 C1383 1.574 . S
C1400 H1394 0.949 . S
C1400 C1404 1.368 . S
C1401 C1382 1.429 . S
C1401 C1395 1.429 . S
C1401 C1402 1.523 . S
C1402 C1383 1.368 . S
C1402 C1396 1.368 . S
C1402 C1401 1.523 . S
C1403 C1387 1.429 . S
C1403 C1399 1.429 . S
C1403 C1404 1.523 . S
C1404 C1388 1.368 . S
C1404 C1400 1.368 . S
C1404 C1403 1.523 . S
H1405 C1380 0.950 . S
H1406 C1382 0.950 . S
H1407 C1383 0.949 . S
H1408 C1385 0.950 . S
H1409 C1387 0.950 . S
C1410 C1411 1.349 . S
C1410 C1412 1.327 . S
C1410 H1435 0.950 . S
C1411 C1410 1.349 . S
C1411 C1427 1.349 . S
C1412 C1410 1.327 . S
C1412 C1431 1.429 . S
C1412 H1436 0.950 . S
C1413 C1430 1.574 . S
C1413 C1432 1.368 . S
C1413 H1437 0.949 . S
H1414 C1418 0.949 . S
C1415 C1416 1.349 . S
C1415 C1417 1.327 . S
C1415 H1438 0.950 . S
C1416 C1415 1.349 . S
C1416 C1428 1.349 . S
C1417 C1415 1.327 . S
C1417 C1433 1.429 . S
C1417 H1439 0.950 . S
C1418 H1414 0.949 . S
C1418 C1426 1.574 . S
C1418 C1434 1.368 . S
H1419 C1427 0.950 . S
H1420 C1425 0.950 . S
H1421 C1426 0.949 . S
H1422 C1428 0.950 . S
H1423 C1429 0.950 . S
H1424 C1430 0.949 . S
C1425 H1420 0.950 . S
C1425 C1427 1.327 . S
C1425 C1431 1.429 . S
C1426 C1418 1.574 . S
C1426 H1421 0.949 . S
C1426 C1432 1.368 . S
C1427 C1411 1.349 . S
C1427 H1419 0.950 . S
C1427 C1425 1.327 . S
C1428 C1416 1.349 . S
C1428 H1422 0.950 . S
C1428 C1429 1.327 . S
C1429 H1423 0.950 . S
C1429 C1428 1.327 . S
C1429 C1433 1.429 . S
C1430 C1413 1.574 . S
C1430 H1424 0.949 . S
C1430 C1434 1.368 . S
C1431 C1412 1.429 . S
C1431 C1425 1.429 . S
C1431 C1432 1.523 . S
C1432 C1413 1.368 . S
C1432 C1426 1.368 . S
C1432 C1431 1.523 . S
C1433 C1417 1.429 . S
C1433 C1429 1.429 . S
C1433 C1434 1.523 . S
C1434 C1418 1.368 . S
C1434 C1430 1.368 . S
C1434 C1433 1.523 . S
H1435 C1410 0.950 . S
H1436 C1412 0.950 . S
H1437 C1413 0.949 . S
H1438 C1415 0.950 . S
H1439 C1417 0.950 . S
C1440 C1441 1.349 . S
C1440 C1442 1.327 . S
C1440 H1465 0.950 . S
C1441 C1440 1.349 . S
C1441 C1457 1.349 . S
C1442 C1440 1.327 . S
C1442 C1461 1.429 . S
C1442 H1466 0.950 . S
C1443 C1460 1.574 . S
C1443 C1462 1.368 . S
C1443 H1467 0.949 . S
H1444 C1448 0.949 . S
C1445 C1446 1.349 1_556 S
C1445 C1447 1.327 . S
C1445 H1468 0.950 . S
C1446 C1445 1.349 1_554 S
C1446 C1458 1.349 1_554 S
C1447 C1445 1.327 . S
C1447 C1463 1.429 . S
C1447 H1469 0.950 . S
C1448 H1444 0.949 . S
C1448 C1456 1.574 . S
C1448 C1464 1.368 . S
H1449 C1457 0.950 . S
H1450 C1455 0.950 . S
H1451 C1456 0.949 . S
H1452 C1458 0.954 . S
H1453 C1459 0.950 . S
H1454 C1460 0.949 . S
C1455 H1450 0.950 . S
C1455 C1457 1.327 . S
C1455 C1461 1.429 . S
C1456 C1448 1.574 . S
C1456 H1451 0.949 . S
C1456 C1462 1.368 . S
C1457 C1441 1.349 . S
C1457 H1449 0.950 . S
C1457 C1455 1.327 . S
C1458 C1446 1.349 1_556 S
C1458 H1452 0.954 . S
C1458 C1459 1.327 . S
C1459 H1453 0.950 . S
C1459 C1458 1.327 . S
C1459 C1463 1.429 . S
C1460 C1443 1.574 . S
C1460 H1454 0.949 . S
C1460 C1464 1.368 . S
C1461 C1442 1.429 . S
C1461 C1455 1.429 . S
C1461 C1462 1.523 . S
C1462 C1443 1.368 . S
C1462 C1456 1.368 . S
C1462 C1461 1.523 . S
C1463 C1447 1.429 . S
C1463 C1459 1.429 . S
C1463 C1464 1.523 . S
C1464 C1448 1.368 . S
C1464 C1460 1.368 . S
C1464 C1463 1.523 . S
H1465 C1440 0.950 . S
H1466 C1442 0.950 . S
H1467 C1443 0.949 . S
H1468 C1445 0.950 . S
H1469 C1447 0.950 . S
C1470 C1471 1.349 . S
C1470 C1472 1.327 . S
C1470 H1495 0.950 . S
C1471 C1470 1.349 . S
C1471 C1487 1.349 . S
C1472 C1470 1.327 . S
C1472 C1491 1.429 . S
C1472 H1496 0.950 . S
C1473 C1490 1.574 . S
C1473 C1492 1.368 . S
C1473 H1497 0.949 . S
H1474 C1478 0.949 . S
C1475 C1476 1.349 . S
C1475 C1477 1.327 . S
C1475 H1498 0.950 . S
C1476 C1475 1.349 . S
C1476 C1488 1.349 . S
C1477 C1475 1.327 . S
C1477 C1493 1.429 . S
C1477 H1499 0.950 . S
C1478 H1474 0.949 . S
C1478 C1486 1.574 . S
C1478 C1494 1.368 . S
H1479 C1487 0.950 . S
H1480 C1485 0.950 . S
H1481 C1486 0.949 . S
H1482 C1488 0.950 . S
H1483 C1489 0.950 . S
H1484 C1490 0.949 . S
C1485 H1480 0.950 . S
C1485 C1487 1.327 . S
C1485 C1491 1.429 . S
C1486 C1478 1.574 . S
C1486 H1481 0.949 . S
C1486 C1492 1.368 . S
C1487 C1471 1.349 . S
C1487 H1479 0.950 . S
C1487 C1485 1.327 . S
C1488 C1476 1.349 . S
C1488 H1482 0.950 . S
C1488 C1489 1.327 . S
C1489 H1483 0.950 . S
C1489 C1488 1.327 . S
C1489 C1493 1.429 . S
C1490 C1473 1.574 . S
C1490 H1484 0.949 . S
C1490 C1494 1.368 . S
C1491 C1472 1.429 . S
C1491 C1485 1.429 . S
C1491 C1492 1.523 . S
C1492 C1473 1.368 . S
C1492 C1486 1.368 . S
C1492 C1491 1.523 . S
C1493 C1477 1.429 . S
C1493 C1489 1.429 . S
C1493 C1494 1.523 . S
C1494 C1478 1.368 . S
C1494 C1490 1.368 . S
C1494 C1493 1.523 . S
H1495 C1470 0.950 . S
H1496 C1472 0.950 . S
H1497 C1473 0.949 . S
H1498 C1475 0.950 . S
H1499 C1477 0.950 . S
C1500 C1501 1.349 . S
C1500 C1502 1.327 . S
C1500 H1525 0.950 . S
C1501 C1500 1.349 . S
C1501 C1517 1.349 . S
C1502 C1500 1.327 . S
C1502 C1521 1.429 . S
C1502 H1526 0.950 . S
C1503 C1520 1.574 . S
C1503 C1522 1.368 . S
C1503 H1527 0.949 . S
H1504 C1508 0.949 . S
C1505 C1506 1.349 . S
C1505 C1507 1.327 . S
C1505 H1528 0.950 . S
C1506 C1505 1.349 . S
C1506 C1518 1.349 . S
C1507 C1505 1.327 . S
C1507 C1523 1.429 . S
C1507 H1529 0.950 . S
C1508 H1504 0.949 . S
C1508 C1516 1.574 . S
C1508 C1524 1.368 . S
H1509 C1517 0.950 . S
H1510 C1515 0.950 . S
H1511 C1516 0.949 . S
H1512 C1518 0.950 . S
H1513 C1519 0.950 . S
H1514 C1520 0.949 . S
C1515 H1510 0.950 . S
C1515 C1517 1.327 . S
C1515 C1521 1.429 . S
C1516 C1508 1.574 . S
C1516 H1511 0.949 . S
C1516 C1522 1.368 . S
C1517 C1501 1.349 . S
C1517 H1509 0.950 . S
C1517 C1515 1.327 . S
C1518 C1506 1.349 . S
C1518 H1512 0.950 . S
C1518 C1519 1.327 . S
C1519 H1513 0.950 . S
C1519 C1518 1.327 . S
C1519 C1523 1.429 . S
C1520 C1503 1.574 . S
C1520 H1514 0.949 . S
C1520 C1524 1.368 . S
C1521 C1502 1.429 . S
C1521 C1515 1.429 . S
C1521 C1522 1.523 . S
C1522 C1503 1.368 . S
C1522 C1516 1.368 . S
C1522 C1521 1.523 . S
C1523 C1507 1.429 . S
C1523 C1519 1.429 . S
C1523 C1524 1.523 . S
C1524 C1508 1.368 . S
C1524 C1520 1.368 . S
C1524 C1523 1.523 . S
H1525 C1500 0.950 . S
H1526 C1502 0.950 . S
H1527 C1503 0.949 . S
H1528 C1505 0.950 . S
H1529 C1507 0.950 . S
C1530 C1531 1.349 . S
C1530 C1532 1.327 . S
C1530 H1555 0.950 . S
C1531 C1530 1.349 . S
C1531 C1547 1.349 . S
C1532 C1530 1.327 . S
C1532 C1551 1.429 . S
C1532 H1556 0.950 . S
C1533 C1550 1.574 . S
C1533 C1552 1.368 . S
C1533 H1557 0.949 . S
H1534 C1538 0.949 . S
C1535 C1536 1.349 . S
C1535 C1537 1.327 . S
C1535 H1558 0.950 . S
C1536 C1535 1.349 . S
C1536 C1548 1.349 . S
C1537 C1535 1.327 . S
C1537 C1553 1.429 . S
C1537 H1559 0.950 . S
C1538 H1534 0.949 . S
C1538 C1546 1.574 . S
C1538 C1554 1.368 . S
H1539 C1547 0.950 . S
H1540 C1545 0.950 . S
H1541 C1546 0.949 . S
H1542 C1548 0.950 . S
H1543 C1549 0.950 . S
H1544 C1550 0.949 . S
C1545 H1540 0.950 . S
C1545 C1547 1.327 . S
C1545 C1551 1.429 . S
C1546 C1538 1.574 . S
C1546 H1541 0.949 . S
C1546 C1552 1.368 . S
C1547 C1531 1.349 . S
C1547 H1539 0.950 . S
C1547 C1545 1.327 . S
C1548 C1536 1.349 . S
C1548 H1542 0.950 . S
C1548 C1549 1.327 . S
C1549 H1543 0.950 . S
C1549 C1548 1.327 . S
C1549 C1553 1.429 . S
C1550 C1533 1.574 . S
C1550 H1544 0.949 . S
C1550 C1554 1.368 . S
C1551 C1532 1.429 . S
C1551 C1545 1.429 . S
C1551 C1552 1.523 . S
C1552 C1533 1.368 . S
C1552 C1546 1.368 . S
C1552 C1551 1.523 . S
C1553 C1537 1.429 . S
C1553 C1549 1.429 . S
C1553 C1554 1.523 . S
C1554 C1538 1.368 . S
C1554 C1550 1.368 . S
C1554 C1553 1.523 . S
H1555 C1530 0.950 . S
H1556 C1532 0.950 . S
H1557 C1533 0.949 . S
H1558 C1535 0.950 . S
H1559 C1537 0.950 . S
C1560 C1561 1.349 . S
C1560 C1562 1.327 . S
C1560 H1585 0.950 . S
C1561 C1560 1.349 . S
C1561 C1577 1.349 . S
C1562 C1560 1.327 . S
C1562 C1581 1.429 . S
C1562 H1586 0.950 . S
C1563 C1580 1.574 . S
C1563 C1582 1.368 . S
C1563 H1587 0.949 . S
H1564 C1568 0.949 . S
C1565 C1566 1.349 . S
C1565 C1567 1.327 . S
C1565 H1588 0.950 . S
C1566 C1565 1.349 . S
C1566 C1578 1.349 . S
C1567 C1565 1.327 . S
C1567 C1583 1.429 . S
C1567 H1589 0.950 . S
C1568 H1564 0.949 . S
C1568 C1576 1.574 . S
C1568 C1584 1.368 . S
H1569 C1577 0.950 . S
H1570 C1575 0.950 . S
H1571 C1576 0.949 . S
H1572 C1578 0.950 . S
H1573 C1579 0.950 . S
H1574 C1580 0.949 . S
C1575 H1570 0.950 . S
C1575 C1577 1.327 . S
C1575 C1581 1.429 . S
C1576 C1568 1.574 . S
C1576 H1571 0.949 . S
C1576 C1582 1.368 . S
C1577 C1561 1.349 . S
C1577 H1569 0.950 . S
C1577 C1575 1.327 . S
C1578 C1566 1.349 . S
C1578 H1572 0.950 . S
C1578 C1579 1.327 . S
C1579 H1573 0.950 . S
C1579 C1578 1.327 . S
C1579 C1583 1.429 . S
C1580 C1563 1.574 . S
C1580 H1574 0.949 . S
C1580 C1584 1.368 . S
C1581 C1562 1.429 . S
C1581 C1575 1.429 . S
C1581 C1582 1.523 . S
C1582 C1563 1.368 . S
C1582 C1576 1.368 . S
C1582 C1581 1.523 . S
C1583 C1567 1.429 . S
C1583 C1579 1.429 . S
C1583 C1584 1.523 . S
C1584 C1568 1.368 . S
C1584 C1580 1.368 . S
C1584 C1583 1.523 . S
H1585 C1560 0.950 . S
H1586 C1562 0.950 . S
H1587 C1563 0.949 . S
H1588 C1565 0.950 . S
H1589 C1567 0.950 . S
C1590 C1591 1.349 . S
C1590 C1592 1.327 . S
C1590 H1615 0.950 . S
C1591 C1590 1.349 . S
C1591 C1607 1.349 . S
C1592 C1590 1.327 . S
C1592 C1611 1.429 . S
C1592 H1616 0.950 . S
C1593 C1610 1.574 . S
C1593 C1612 1.368 . S
C1593 H1617 0.949 . S
H1594 C1598 0.949 . S
C1595 C1596 1.349 . S
C1595 C1597 1.327 . S
C1595 H1618 0.950 . S
C1596 C1595 1.349 . S
C1596 C1608 1.349 . S
C1597 C1595 1.327 . S
C1597 C1613 1.429 . S
C1597 H1619 0.950 . S
C1598 H1594 0.949 . S
C1598 C1606 1.574 . S
C1598 C1614 1.368 . S
H1599 C1607 0.950 . S
H1600 C1605 0.950 . S
H1601 C1606 0.949 . S
H1602 C1608 0.950 . S
H1603 C1609 0.950 . S
H1604 C1610 0.949 . S
C1605 H1600 0.950 . S
C1605 C1607 1.327 . S
C1605 C1611 1.429 . S
C1606 C1598 1.574 . S
C1606 H1601 0.949 . S
C1606 C1612 1.368 . S
C1607 C1591 1.349 . S
C1607 H1599 0.950 . S
C1607 C1605 1.327 . S
C1608 C1596 1.349 . S
C1608 H1602 0.950 . S
C1608 C1609 1.327 . S
C1609 H1603 0.950 . S
C1609 C1608 1.327 . S
C1609 C1613 1.429 . S
C1610 C1593 1.574 . S
C1610 H1604 0.949 . S
C1610 C1614 1.368 . S
C1611 C1592 1.429 . S
C1611 C1605 1.429 . S
C1611 C1612 1.523 . S
C1612 C1593 1.368 . S
C1612 C1606 1.368 . S
C1612 C1611 1.523 . S
C1613 C1597 1.429 . S
C1613 C1609 1.429 . S
C1613 C1614 1.523 . S
C1614 C1598 1.368 . S
C1614 C1610 1.368 . S
C1614 C1613 1.523 . S
H1615 C1590 0.950 . S
H1616 C1592 0.950 . S
H1617 C1593 0.949 . S
H1618 C1595 0.950 . S
H1619 C1597 0.950 . S
C1620 C1621 1.349 . S
C1620 C1622 1.327 . S
C1620 H1645 0.950 . S
C1621 C1620 1.349 . S
C1621 C1637 1.349 . S
C1622 C1620 1.327 . S
C1622 C1641 1.429 . S
C1622 H1646 0.950 . S
C1623 C1640 1.574 . S
C1623 C1642 1.368 . S
C1623 H1647 0.949 . S
H1624 C1628 0.949 . S
C1625 C1626 1.349 1_554 S
C1625 C1627 1.327 1_554 S
C1625 H1648 0.950 . S
C1626 C1625 1.349 1_556 S
C1626 C1638 1.349 . S
C1627 C1625 1.327 1_556 S
C1627 C1643 1.429 . S
C1627 H1649 0.950 1_556 S
C1628 H1624 0.949 . S
C1628 C1636 1.574 . S
C1628 C1644 1.368 . S
H1629 C1637 0.950 . S
H1630 C1635 0.950 . S
H1631 C1636 0.949 . S
H1632 C1638 0.950 . S
H1633 C1639 0.950 . S
H1634 C1640 0.949 . S
C1635 H1630 0.950 . S
C1635 C1637 1.327 . S
C1635 C1641 1.429 . S
C1636 C1628 1.574 . S
C1636 H1631 0.949 . S
C1636 C1642 1.368 . S
C1637 C1621 1.349 . S
C1637 H1629 0.950 . S
C1637 C1635 1.327 . S
C1638 C1626 1.349 . S
C1638 H1632 0.950 . S
C1638 C1639 1.327 . S
C1639 H1633 0.950 . S
C1639 C1638 1.327 . S
C1639 C1643 1.429 . S
C1640 C1623 1.574 . S
C1640 H1634 0.949 . S
C1640 C1644 1.368 . S
C1641 C1622 1.429 . S
C1641 C1635 1.429 . S
C1641 C1642 1.523 . S
C1642 C1623 1.368 . S
C1642 C1636 1.368 . S
C1642 C1641 1.523 . S
C1643 C1627 1.429 . S
C1643 C1639 1.429 . S
C1643 C1644 1.523 . S
C1644 C1628 1.368 . S
C1644 C1640 1.368 . S
C1644 C1643 1.523 . S
H1645 C1620 0.950 . S
H1646 C1622 0.950 . S
H1647 C1623 0.949 . S
H1648 C1625 0.950 . S
H1649 C1627 0.950 1_554 S
C1650 C1651 1.349 . S
C1650 C1652 1.327 . S
C1650 H1675 0.950 . S
C1651 C1650 1.349 . S
C1651 C1667 1.349 . S
C1652 C1650 1.327 . S
C1652 C1671 1.429 . S
C1652 H1676 0.950 . S
C1653 C1670 1.574 . S
C1653 C1672 1.368 . S
C1653 H1677 0.949 . S
H1654 C1658 0.949 . S
C1655 C1656 1.349 . S
C1655 C1657 1.327 . S
C1655 H1678 0.950 . S
C1656 C1655 1.349 . S
C1656 C1668 1.349 . S
C1657 C1655 1.327 . S
C1657 C1673 1.429 . S
C1657 H1679 0.950 . S
C1658 H1654 0.949 . S
C1658 C1666 1.574 . S
C1658 C1674 1.368 . S
H1659 C1667 0.950 . S
H1660 C1665 0.950 . S
H1661 C1666 0.949 . S
H1662 C1668 0.950 . S
H1663 C1669 0.950 . S
H1664 C1670 0.949 . S
C1665 H1660 0.950 . S
C1665 C1667 1.327 . S
C1665 C1671 1.429 . S
C1666 C1658 1.574 . S
C1666 H1661 0.949 . S
C1666 C1672 1.368 . S
C1667 C1651 1.349 . S
C1667 H1659 0.950 . S
C1667 C1665 1.327 . S
C1668 C1656 1.349 . S
C1668 H1662 0.950 . S
C1668 C1669 1.327 . S
C1669 H1663 0.950 . S
C1669 C1668 1.327 . S
C1669 C1673 1.429 . S
C1670 C1653 1.574 . S
C1670 H1664 0.949 . S
C1670 C1674 1.368 . S
C1671 C1652 1.429 . S
C1671 C1665 1.429 . S
C1671 C1672 1.523 . S
C1672 C1653 1.368 . S
C1672 C1666 1.368 . S
C1672 C1671 1.523 . S
C1673 C1657 1.429 . S
C1673 C1669 1.429 . S
C1673 C1674 1.523 . S
C1674 C1658 1.368 . S
C1674 C1670 1.368 . S
C1674 C1673 1.523 . S
H1675 C1650 0.950 . S
H1676 C1652 0.950 . S
H1677 C1653 0.949 . S
H1678 C1655 0.950 . S
H1679 C1657 0.950 . S
C1680 C1681 1.349 . S
C1680 C1682 1.327 . S
C1680 H1705 0.950 . S
C1681 C1680 1.349 . S
C1681 C1697 1.349 . S
C1682 C1680 1.327 . S
C1682 C1701 1.429 . S
C1682 H1706 0.950 . S
C1683 C1700 1.574 . S
C1683 C1702 1.368 . S
C1683 H1707 0.949 . S
H1684 C1688 0.949 . S
C1685 C1686 1.349 . S
C1685 C1687 1.327 . S
C1685 H1708 0.950 . S
C1686 C1685 1.349 . S
C1686 C1698 1.349 . S
C1687 C1685 1.327 . S
C1687 C1703 1.429 . S
C1687 H1709 0.950 . S
C1688 H1684 0.949 . S
C1688 C1696 1.574 . S
C1688 C1704 1.368 . S
H1689 C1697 0.950 . S
H1690 C1695 0.950 . S
H1691 C1696 0.949 . S
H1692 C1698 0.950 1_554 S
H1693 C1699 0.950 . S
H1694 C1700 0.949 . S
C1695 H1690 0.950 . S
C1695 C1697 1.327 . S
C1695 C1701 1.429 . S
C1696 C1688 1.574 . S
C1696 H1691 0.949 . S
C1696 C1702 1.368 . S
C1697 C1681 1.349 . S
C1697 H1689 0.950 . S
C1697 C1695 1.327 . S
C1698 C1686 1.349 . S
C1698 H1692 0.950 1_556 S
C1698 C1699 1.327 . S
C1699 H1693 0.950 . S
C1699 C1698 1.327 . S
C1699 C1703 1.429 . S
C1700 C1683 1.574 . S
C1700 H1694 0.949 . S
C1700 C1704 1.368 . S
C1701 C1682 1.429 . S
C1701 C1695 1.429 . S
C1701 C1702 1.523 . S
C1702 C1683 1.368 . S
C1702 C1696 1.368 . S
C1702 C1701 1.523 . S
C1703 C1687 1.429 . S
C1703 C1699 1.429 . S
C1703 C1704 1.523 . S
C1704 C1688 1.368 . S
C1704 C1700 1.368 . S
C1704 C1703 1.523 . S
H1705 C1680 0.950 . S
H1706 C1682 0.950 . S
H1707 C1683 0.949 . S
H1708 C1685 0.950 . S
H1709 C1687 0.950 . S
C1710 C1711 1.349 . S
C1710 C1712 1.327 . S
C1710 H1735 0.950 . S
C1711 C1710 1.349 . S
C1711 C1727 1.349 . S
C1712 C1710 1.327 . S
C1712 C1731 1.429 . S
C1712 H1736 0.950 . S
C1713 C1730 1.574 . S
C1713 C1732 1.368 . S
C1713 H1737 0.949 . S
H1714 C1718 0.949 . S
C1715 C1716 1.349 . S
C1715 C1717 1.327 . S
C1715 H1738 0.950 . S
C1716 C1715 1.349 . S
C1716 C1728 1.349 . S
C1717 C1715 1.327 . S
C1717 C1733 1.429 . S
C1717 H1739 0.950 . S
C1718 H1714 0.949 . S
C1718 C1726 1.574 . S
C1718 C1734 1.368 . S
H1719 C1727 0.950 . S
H1720 C1725 0.950 . S
H1721 C1726 0.949 . S
H1722 C1728 0.950 . S
H1723 C1729 0.950 . S
H1724 C1730 0.949 . S
C1725 H1720 0.950 . S
C1725 C1727 1.327 . S
C1725 C1731 1.429 . S
C1726 C1718 1.574 . S
C1726 H1721 0.949 . S
C1726 C1732 1.368 . S
C1727 C1711 1.349 . S
C1727 H1719 0.950 . S
C1727 C1725 1.327 . S
C1728 C1716 1.349 . S
C1728 H1722 0.950 . S
C1728 C1729 1.327 . S
C1729 H1723 0.950 . S
C1729 C1728 1.327 . S
C1729 C1733 1.429 . S
C1730 C1713 1.574 . S
C1730 H1724 0.949 . S
C1730 C1734 1.368 . S
C1731 C1712 1.429 . S
C1731 C1725 1.429 . S
C1731 C1732 1.523 . S
C1732 C1713 1.368 . S
C1732 C1726 1.368 . S
C1732 C1731 1.523 . S
C1733 C1717 1.429 . S
C1733 C1729 1.429 . S
C1733 C1734 1.523 . S
C1734 C1718 1.368 . S
C1734 C1730 1.368 . S
C1734 C1733 1.523 . S
H1735 C1710 0.950 . S
H1736 C1712 0.950 . S
H1737 C1713 0.949 . S
H1738 C1715 0.950 . S
H1739 C1717 0.950 . S
C1740 C1741 1.349 . S
C1740 C1742 1.327 . S
C1740 H1765 0.950 . S
C1741 C1740 1.349 . S
C1741 C1757 1.349 . S
C1742 C1740 1.327 . S
C1742 C1761 1.429 . S
C1742 H1766 0.950 . S
C1743 C1760 1.574 . S
C1743 C1762 1.368 . S
C1743 H1767 0.949 . S
H1744 C1748 0.949 . S
C1745 C1746 1.349 . S
C1745 C1747 1.327 . S
C1745 H1768 0.950 . S
C1746 C1745 1.349 . S
C1746 C1758 1.349 . S
C1747 C1745 1.327 . S
C1747 C1763 1.429 . S
C1747 H1769 0.950 . S
C1748 H1744 0.949 . S
C1748 C1756 1.574 . S
C1748 C1764 1.368 . S
H1749 C1757 0.950 . S
H1750 C1755 0.950 . S
H1751 C1756 0.949 . S
H1752 C1758 0.950 . S
H1753 C1759 0.950 . S
H1754 C1760 0.949 . S
C1755 H1750 0.950 . S
C1755 C1757 1.327 . S
C1755 C1761 1.429 . S
C1756 C1748 1.574 . S
C1756 H1751 0.949 . S
C1756 C1762 1.368 . S
C1757 C1741 1.349 . S
C1757 H1749 0.950 . S
C1757 C1755 1.327 . S
C1758 C1746 1.349 . S
C1758 H1752 0.950 . S
C1758 C1759 1.327 . S
C1759 H1753 0.950 . S
C1759 C1758 1.327 . S
C1759 C1763 1.429 . S
C1760 C1743 1.574 . S
C1760 H1754 0.949 . S
C1760 C1764 1.368 . S
C1761 C1742 1.429 . S
C1761 C1755 1.429 . S
C1761 C1762 1.523 . S
C1762 C1743 1.368 . S
C1762 C1756 1.368 . S
C1762 C1761 1.523 . S
C1763 C1747 1.429 . S
C1763 C1759 1.429 . S
C1763 C1764 1.523 . S
C1764 C1748 1.368 . S
C1764 C1760 1.368 . S
C1764 C1763 1.523 . S
H1765 C1740 0.950 . S
H1766 C1742 0.950 . S
H1767 C1743 0.949 . S
H1768 C1745 0.950 . S
H1769 C1747 0.950 . S
C1770 C1771 1.349 . S
C1770 C1772 1.327 . S
C1770 H1795 0.950 . S
C1771 C1770 1.349 . S
C1771 C1787 1.349 . S
C1772 C1770 1.327 . S
C1772 C1791 1.429 . S
C1772 H1796 0.950 . S
C1773 C1790 1.574 . S
C1773 C1792 1.368 . S
C1773 H1797 0.949 . S
H1774 C1778 0.949 . S
C1775 C1776 1.349 . S
C1775 C1777 1.327 . S
C1775 H1798 0.950 . S
C1776 C1775 1.349 . S
C1776 C1788 1.349 . S
C1777 C1775 1.327 . S
C1777 C1793 1.429 . S
C1777 H1799 0.950 . S
C1778 H1774 0.949 . S
C1778 C1786 1.574 . S
C1778 C1794 1.368 . S
H1779 C1787 0.950 . S
H1780 C1785 0.950 . S
H1781 C1786 0.949 . S
H1782 C1788 0.950 . S
H1783 C1789 0.950 . S
H1784 C1790 0.949 . S
C1785 H1780 0.950 . S
C1785 C1787 1.327 . S
C1785 C1791 1.429 . S
C1786 C1778 1.574 . S
C1786 H1781 0.949 . S
C1786 C1792 1.368 . S
C1787 C1771 1.349 . S
C1787 H1779 0.950 . S
C1787 C1785 1.327 . S
C1788 C1776 1.349 . S
C1788 H1782 0.950 . S
C1788 C1789 1.327 . S
C1789 H1783 0.950 . S
C1789 C1788 1.327 . S
C1789 C1793 1.429 . S
C1790 C1773 1.574 . S
C1790 H1784 0.949 . S
C1790 C1794 1.368 . S
C1791 C1772 1.429 . S
C1791 C1785 1.429 . S
C1791 C1792 1.523 . S
C1792 C1773 1.368 . S
C1792 C1786 1.368 . S
C1792 C1791 1.523 . S
C1793 C1777 1.429 . S
C1793 C1789 1.429 . S
C1793 C1794 1.523 . S
C1794 C1778 1.368 . S
C1794 C1790 1.368 . S
C1794 C1793 1.523 . S
H1795 C1770 0.950 . S
H1796 C1772 0.950 . S
H1797 C1773 0.949 . S
H1798 C1775 0.950 . S
H1799 C1777 0.950 . S
C1800 C1801 1.349 . S
C1800 C1802 1.327 . S
C1800 H1825 0.950 . S
C1801 C1800 1.349 . S
C1801 C1817 1.349 . S
C1802 C1800 1.327 . S
C1802 C1821 1.429 . S
C1802 H1826 0.950 . S
C1803 C1820 1.574 . S
C1803 C1822 1.368 . S
C1803 H1827 0.949 . S
H1804 C1808 0.949 . S
C1805 C1806 1.349 . S
C1805 C1807 1.327 . S
C1805 H1828 0.950 . S
C1806 C1805 1.349 . S
C1806 C1818 1.349 . S
C1807 C1805 1.327 . S
C1807 C1823 1.429 . S
C1807 H1829 0.950 . S
C1808 H1804 0.949 . S
C1808 C1816 1.574 . S
C1808 C1824 1.368 . S
H1809 C1817 0.950 . S
H1810 C1815 0.950 . S
H1811 C1816 0.949 . S
H1812 C1818 0.950 . S
H1813 C1819 0.950 . S
H1814 C1820 0.949 . S
C1815 H1810 0.950 . S
C1815 C1817 1.327 . S
C1815 C1821 1.429 . S
C1816 C1808 1.574 . S
C1816 H1811 0.949 . S
C1816 C1822 1.368 . S
C1817 C1801 1.349 . S
C1817 H1809 0.950 . S
C1817 C1815 1.327 . S
C1818 C1806 1.349 . S
C1818 H1812 0.950 . S
C1818 C1819 1.327 . S
C1819 H1813 0.950 . S
C1819 C1818 1.327 . S
C1819 C1823 1.429 . S
C1820 C1803 1.574 . S
C1820 H1814 0.949 . S
C1820 C1824 1.368 . S
C1821 C1802 1.429 . S
C1821 C1815 1.429 . S
C1821 C1822 1.523 . S
C1822 C1803 1.368 . S
C1822 C1816 1.368 . S
C1822 C1821 1.523 . S
C1823 C1807 1.429 . S
C1823 C1819 1.429 . S
C1823 C1824 1.523 . S
C1824 C1808 1.368 . S
C1824 C1820 1.368 . S
C1824 C1823 1.523 . S
H1825 C1800 0.950 . S
H1826 C1802 0.950 . S
H1827 C1803 0.949 . S
H1828 C1805 0.950 . S
H1829 C1807 0.950 . S
C1830 C1831 1.349 . S
C1830 C1832 1.327 . S
C1830 H1855 0.950 . S
C1831 C1830 1.349 . S
C1831 C1847 1.349 . S
C1832 C1830 1.327 . S
C1832 C1851 1.429 . S
C1832 H1856 0.950 . S
C1833 C1850 1.574 . S
C1833 C1852 1.368 . S
C1833 H1857 0.949 . S
H1834 C1838 0.949 . S
C1835 C1836 1.349 . S
C1835 C1837 1.327 . S
C1835 H1858 0.950 . S
C1836 C1835 1.349 . S
C1836 C1848 1.349 . S
C1837 C1835 1.327 . S
C1837 C1853 1.429 . S
C1837 H1859 0.950 . S
C1838 H1834 0.949 . S
C1838 C1846 1.574 . S
C1838 C1854 1.368 . S
H1839 C1847 0.950 . S
H1840 C1845 0.950 . S
H1841 C1846 0.949 . S
H1842 C1848 0.950 . S
H1843 C1849 0.950 . S
H1844 C1850 0.949 . S
C1845 H1840 0.950 . S
C1845 C1847 1.327 . S
C1845 C1851 1.429 . S
C1846 C1838 1.574 . S
C1846 H1841 0.949 . S
C1846 C1852 1.368 . S
C1847 C1831 1.349 . S
C1847 H1839 0.950 . S
C1847 C1845 1.327 . S
C1848 C1836 1.349 . S
C1848 H1842 0.950 . S
C1848 C1849 1.327 . S
C1849 H1843 0.950 . S
C1849 C1848 1.327 . S
C1849 C1853 1.429 . S
C1850 C1833 1.574 . S
C1850 H1844 0.949 . S
C1850 C1854 1.368 . S
C1851 C1832 1.429 . S
C1851 C1845 1.429 . S
C1851 C1852 1.523 . S
C1852 C1833 1.368 . S
C1852 C1846 1.368 . S
C1852 C1851 1.523 . S
C1853 C1837 1.429 . S
C1853 C1849 1.429 . S
C1853 C1854 1.523 . S
C1854 C1838 1.368 . S
C1854 C1850 1.368 . S
C1854 C1853 1.523 . S
H1855 C1830 0.950 . S
H1856 C1832 0.950 . S
H1857 C1833 0.949 . S
H1858 C1835 0.950 . S
H1859 C1837 0.950 . S
C1860 C1861 1.349 . S
C1860 C1862 1.327 . S
C1860 H1885 0.950 . S
C1861 C1860 1.349 . S
C1861 C1877 1.349 . S
C1862 C1860 1.327 . S
C1862 C1881 1.429 . S
C1862 H1886 0.950 . S
C1863 C1880 1.574 . S
C1863 C1882 1.368 . S
C1863 H1887 0.949 . S
H1864 C1868 0.949 . S
C1865 C1866 1.349 . S
C1865 C1867 1.327 . S
C1865 H1888 0.950 . S
C1866 C1865 1.349 . S
C1866 C1878 1.349 . S
C1867 C1865 1.327 . S
C1867 C1883 1.429 . S
C1867 H1889 0.950 . S
C1868 H1864 0.949 . S
C1868 C1876 1.574 . S
C1868 C1884 1.368 . S
H1869 C1877 0.950 . S
H1870 C1875 0.950 . S
H1871 C1876 0.949 . S
H1872 C1878 0.950 . S
H1873 C1879 0.950 . S
H1874 C1880 0.949 . S
C1875 H1870 0.950 . S
C1875 C1877 1.327 . S
C1875 C1881 1.429 . S
C1876 C1868 1.574 . S
C1876 H1871 0.949 . S
C1876 C1882 1.368 . S
C1877 C1861 1.349 . S
C1877 H1869 0.950 . S
C1877 C1875 1.327 . S
C1878 C1866 1.349 . S
C1878 H1872 0.950 . S
C1878 C1879 1.327 . S
C1879 H1873 0.950 . S
C1879 C1878 1.327 . S
C1879 C1883 1.429 . S
C1880 C1863 1.574 . S
C1880 H1874 0.949 . S
C1880 C1884 1.368 . S
C1881 C1862 1.429 . S
C1881 C1875 1.429 . S
C1881 C1882 1.523 . S
C1882 C1863 1.368 . S
C1882 C1876 1.368 . S
C1882 C1881 1.523 . S
C1883 C1867 1.429 . S
C1883 C1879 1.429 . S
C1883 C1884 1.523 . S
C1884 C1868 1.368 . S
C1884 C1880 1.368 . S
C1884 C1883 1.523 . S
H1885 C1860 0.950 . S
H1886 C1862 0.950 . S
H1887 C1863 0.949 . S
H1888 C1865 0.950 . S
H1889 C1867 0.950 . S
C1890 C1891 1.349 . S
C1890 C1892 1.327 . S
C1890 H1915 0.950 . S
C1891 C1890 1.349 . S
C1891 C1907 1.349 . S
C1892 C1890 1.327 . S
C1892 C1911 1.429 . S
C1892 H1916 0.950 . S
C1893 C1910 1.574 . S
C1893 C1912 1.368 . S
C1893 H1917 0.949 . S
H1894 C1898 0.949 . S
C1895 C1896 1.349 . S
C1895 C1897 1.327 . S
C1895 H1918 0.950 . S
C1896 C1895 1.349 . S
C1896 C1908 1.349 . S
C1897 C1895 1.327 . S
C1897 C1913 1.429 . S
C1897 H1919 0.950 . S
C1898 H1894 0.949 . S
C1898 C1906 1.574 . S
C1898 C1914 1.368 . S
H1899 C1907 0.950 . S
H1900 C1905 0.950 . S
H1901 C1906 0.949 . S
H1902 C1908 0.950 . S
H1903 C1909 0.950 . S
H1904 C1910 0.949 . S
C1905 H1900 0.950 . S
C1905 C1907 1.327 . S
C1905 C1911 1.429 . S
C1906 C1898 1.574 . S
C1906 H1901 0.949 . S
C1906 C1912 1.368 . S
C1907 C1891 1.349 . S
C1907 H1899 0.950 . S
C1907 C1905 1.327 . S
C1908 C1896 1.349 . S
C1908 H1902 0.950 . S
C1908 C1909 1.327 . S
C1909 H1903 0.950 . S
C1909 C1908 1.327 . S
C1909 C1913 1.429 . S
C1910 C1893 1.574 . S
C1910 H1904 0.949 . S
C1910 C1914 1.368 . S
C1911 C1892 1.429 . S
C1911 C1905 1.429 . S
C1911 C1912 1.523 . S
C1912 C1893 1.368 . S
C1912 C1906 1.368 . S
C1912 C1911 1.523 . S
C1913 C1897 1.429 . S
C1913 C1909 1.429 . S
C1913 C1914 1.523 . S
C1914 C1898 1.368 . S
C1914 C1910 1.368 . S
C1914 C1913 1.523 . S
H1915 C1890 0.950 . S
H1916 C1892 0.950 . S
H1917 C1893 0.949 . S
H1918 C1895 0.950 . S
H1919 C1897 0.950 . S
C1920 C1921 1.349 . S
C1920 C1922 1.327 . S
C1920 H1945 0.950 . S
C1921 C1920 1.349 . S
C1921 C1937 1.349 . S
C1922 C1920 1.327 . S
C1922 C1941 1.429 . S
C1922 H1946 0.950 . S
C1923 C1940 1.574 . S
C1923 C1942 1.368 . S
C1923 H1947 0.949 . S
H1924 C1928 0.949 . S
C1925 C1926 1.349 . S
C1925 C1927 1.327 . S
C1925 H1948 0.950 . S
C1926 C1925 1.349 . S
C1926 C1938 1.349 . S
C1927 C1925 1.327 . S
C1927 C1943 1.429 . S
C1927 H1949 0.950 . S
C1928 H1924 0.949 . S
C1928 C1936 1.574 . S
C1928 C1944 1.368 . S
H1929 C1937 0.950 . S
H1930 C1935 0.950 . S
H1931 C1936 0.949 . S
H1932 C1938 0.950 . S
H1933 C1939 0.950 . S
H1934 C1940 0.949 . S
C1935 H1930 0.950 . S
C1935 C1937 1.327 . S
C1935 C1941 1.429 . S
C1936 C1928 1.574 . S
C1936 H1931 0.949 . S
C1936 C1942 1.368 . S
C1937 C1921 1.349 . S
C1937 H1929 0.950 . S
C1937 C1935 1.327 . S
C1938 C1926 1.349 . S
C1938 H1932 0.950 . S
C1938 C1939 1.327 . S
C1939 H1933 0.950 . S
C1939 C1938 1.327 . S
C1939 C1943 1.429 . S
C1940 C1923 1.574 . S
C1940 H1934 0.949 . S
C1940 C1944 1.368 . S
C1941 C1922 1.429 . S
C1941 C1935 1.429 . S
C1941 C1942 1.523 . S
C1942 C1923 1.368 . S
C1942 C1936 1.368 . S
C1942 C1941 1.523 . S
C1943 C1927 1.429 . S
C1943 C1939 1.429 . S
C1943 C1944 1.523 . S
C1944 C1928 1.368 . S
C1944 C1940 1.368 . S
C1944 C1943 1.523 . S
H1945 C1920 0.950 . S
H1946 C1922 0.950 . S
H1947 C1923 0.949 . S
H1948 C1925 0.950 . S
H1949 C1927 0.950 . S
C1950 C1951 1.349 . S
C1950 C1952 1.327 . S
C1950 H1975 0.950 . S
C1951 C1950 1.349 . S
C1951 C1967 1.349 . S
C1952 C1950 1.327 . S
C1952 C1971 1.429 . S
C1952 H1976 0.950 . S
C1953 C1970 1.574 . S
C1953 C1972 1.368 . S
C1953 H1977 0.949 . S
H1954 C1958 0.949 . S
C1955 C1956 1.349 . S
C1955 C1957 1.327 . S
C1955 H1978 0.950 . S
C1956 C1955 1.349 . S
C1956 C1968 1.349 . S
C1957 C1955 1.327 . S
C1957 C1973 1.429 . S
C1957 H1979 0.950 . S
C1958 H1954 0.949 . S
C1958 C1966 1.574 . S
C1958 C1974 1.368 . S
H1959 C1967 0.950 . S
H1960 C1965 0.950 . S
H1961 C1966 0.949 . S
H1962 C1968 0.950 . S
H1963 C1969 0.950 . S
H1964 C1970 0.949 . S
C1965 H1960 0.950 . S
C1965 C1967 1.327 . S
C1965 C1971 1.429 . S
C1966 C1958 1.574 . S
C1966 H1961 0.949 . S
C1966 C1972 1.368 . S
C1967 C1951 1.349 . S
C1967 H1959 0.950 . S
C1967 C1965 1.327 . S
C1968 C1956 1.349 . S
C1968 H1962 0.950 . S
C1968 C1969 1.327 . S
C1969 H1963 0.950 . S
C1969 C1968 1.327 . S
C1969 C1973 1.429 . S
C1970 C1953 1.574 . S
C1970 H1964 0.949 . S
C1970 C1974 1.368 . S
C1971 C1952 1.429 . S
C1971 C1965 1.429 . S
C1971 C1972 1.523 . S
C1972 C1953 1.368 . S
C1972 C1966 1.368 . S
C1972 C1971 1.523 . S
C1973 C1957 1.429 . S
C1973 C1969 1.429 . S
C1973 C1974 1.523 . S
C1974 C1958 1.368 . S
C1974 C1970 1.368 . S
C1974 C1973 1.523 . S
H1975 C1950 0.950 . S
H1976 C1952 0.950 . S
H1977 C1953 0.949 . S
H1978 C1955 0.950 . S
H1979 C1957 0.950 . S
C1980 C1981 1.349 . S
C1980 C1982 1.327 . S
C1980 H2005 0.950 . S
C1981 C1980 1.349 . S
C1981 C1997 1.349 . S
C1982 C1980 1.327 . S
C1982 C2001 1.429 . S
C1982 H2006 0.950 . S
C1983 C2000 1.574 . S
C1983 C2002 1.368 . S
C1983 H2007 0.949 . S
H1984 C1988 0.949 . S
C1985 C1986 1.349 . S
C1985 C1987 1.327 . S
C1985 H2008 0.950 . S
C1986 C1985 1.349 . S
C1986 C1998 1.349 . S
C1987 C1985 1.327 . S
C1987 C2003 1.429 . S
C1987 H2009 0.950 . S
C1988 H1984 0.949 . S
C1988 C1996 1.574 . S
C1988 C2004 1.368 . S
H1989 C1997 0.950 . S
H1990 C1995 0.950 . S
H1991 C1996 0.949 . S
H1992 C1998 0.950 . S
H1993 C1999 0.950 . S
H1994 C2000 0.949 . S
C1995 H1990 0.950 . S
C1995 C1997 1.327 . S
C1995 C2001 1.429 . S
C1996 C1988 1.574 . S
C1996 H1991 0.949 . S
C1996 C2002 1.368 . S
C1997 C1981 1.349 . S
C1997 H1989 0.950 . S
C1997 C1995 1.327 . S
C1998 C1986 1.349 . S
C1998 H1992 0.950 . S
C1998 C1999 1.327 . S
C1999 H1993 0.950 . S
C1999 C1998 1.327 . S
C1999 C2003 1.429 . S
C2000 C1983 1.574 . S
C2000 H1994 0.949 . S
C2000 C2004 1.368 . S
C2001 C1982 1.429 . S
C2001 C1995 1.429 . S
C2001 C2002 1.523 . S
C2002 C1983 1.368 . S
C2002 C1996 1.368 . S
C2002 C2001 1.523 . S
C2003 C1987 1.429 . S
C2003 C1999 1.429 . S
C2003 C2004 1.523 . S
C2004 C1988 1.368 . S
C2004 C2000 1.368 . S
C2004 C2003 1.523 . S
H2005 C1980 0.950 . S
H2006 C1982 0.950 . S
H2007 C1983 0.949 . S
H2008 C1985 0.950 . S
H2009 C1987 0.950 . S
C2010 C2011 1.349 . S
C2010 C2012 1.327 . S
C2010 H2035 0.950 . S
C2011 C2010 1.349 . S
C2011 C2027 1.349 . S
C2012 C2010 1.327 . S
C2012 C2031 1.429 . S
C2012 H2036 0.950 . S
C2013 C2030 1.574 . S
C2013 C2032 1.368 . S
C2013 H2037 0.949 . S
H2014 C2018 0.949 . S
C2015 C2016 1.349 . S
C2015 C2017 1.327 . S
C2015 H2038 0.950 . S
C2016 C2015 1.349 . S
C2016 C2028 1.349 . S
C2017 C2015 1.327 . S
C2017 C2033 1.429 . S
C2017 H2039 0.950 . S
C2018 H2014 0.949 . S
C2018 C2026 1.574 . S
C2018 C2034 1.368 . S
H2019 C2027 0.950 . S
H2020 C2025 0.950 . S
H2021 C2026 0.949 . S
H2022 C2028 0.950 . S
H2023 C2029 0.950 . S
H2024 C2030 0.949 . S
C2025 H2020 0.950 . S
C2025 C2027 1.327 . S
C2025 C2031 1.429 . S
C2026 C2018 1.574 . S
C2026 H2021 0.949 . S
C2026 C2032 1.368 . S
C2027 C2011 1.349 . S
C2027 H2019 0.950 . S
C2027 C2025 1.327 . S
C2028 C2016 1.349 . S
C2028 H2022 0.950 . S
C2028 C2029 1.327 . S
C2029 H2023 0.950 . S
C2029 C2028 1.327 . S
C2029 C2033 1.429 . S
C2030 C2013 1.574 . S
C2030 H2024 0.949 . S
C2030 C2034 1.368 . S
C2031 C2012 1.429 . S
C2031 C2025 1.429 . S
C2031 C2032 1.523 . S
C2032 C2013 1.368 . S
C2032 C2026 1.368 . S
C2032 C2031 1.523 . S
C2033 C2017 1.429 . S
C2033 C2029 1.429 . S
C2033 C2034 1.523 . S
C2034 C2018 1.368 . S
C2034 C2030 1.368 . S
C2034 C2033 1.523 . S
H2035 C2010 0.950 . S
H2036 C2012 0.950 . S
H2037 C2013 0.949 . S
H2038 C2015 0.950 . S
H2039 C2017 0.950 . S
C2040 C2041 1.349 . S
C2040 C2042 1.327 . S
C2040 H2065 0.950 . S
C2041 C2040 1.349 . S
C2041 C2057 1.349 . S
C2042 C2040 1.327 . S
C2042 C2061 1.429 . S
C2042 H2066 0.950 . S
C2043 C2060 1.574 . S
C2043 C2062 1.368 . S
C2043 H2067 0.949 . S
H2044 C2048 0.949 . S
C2045 C2046 1.349 . S
C2045 C2047 1.327 . S
C2045 H2068 0.950 . S
C2046 C2045 1.349 . S
C2046 C2058 1.349 . S
C2047 C2045 1.327 . S
C2047 C2063 1.429 . S
C2047 H2069 0.950 . S
C2048 H2044 0.949 . S
C2048 C2056 1.574 . S
C2048 C2064 1.368 . S
H2049 C2057 0.950 . S
H2050 C2055 0.950 . S
H2051 C2056 0.949 . S
H2052 C2058 0.950 . S
H2053 C2059 0.950 . S
H2054 C2060 0.949 . S
C2055 H2050 0.950 . S
C2055 C2057 1.327 . S
C2055 C2061 1.429 . S
C2056 C2048 1.574 . S
C2056 H2051 0.949 . S
C2056 C2062 1.368 . S
C2057 C2041 1.349 . S
C2057 H2049 0.950 . S
C2057 C2055 1.327 . S
C2058 C2046 1.349 . S
C2058 H2052 0.950 . S
C2058 C2059 1.327 . S
C2059 H2053 0.950 . S
C2059 C2058 1.327 . S
C2059 C2063 1.429 . S
C2060 C2043 1.574 . S
C2060 H2054 0.949 . S
C2060 C2064 1.368 . S
C2061 C2042 1.429 . S
C2061 C2055 1.429 . S
C2061 C2062 1.523 . S
C2062 C2043 1.368 . S
C2062 C2056 1.368 . S
C2062 C2061 1.523 . S
C2063 C2047 1.429 . S
C2063 C2059 1.429 . S
C2063 C2064 1.523 . S
C2064 C2048 1.368 . S
C2064 C2060 1.368 . S
C2064 C2063 1.523 . S
H2065 C2040 0.950 . S
H2066 C2042 0.950 . S
H2067 C2043 0.949 . S
H2068 C2045 0.950 . S
H2069 C2047 0.950 . S
C2070 C2071 1.349 . S
C2070 C2072 1.327 . S
C2070 H2095 0.950 . S
C2071 C2070 1.349 . S
C2071 C2087 1.349 . S
C2072 C2070 1.327 . S
C2072 C2091 1.429 . S
C2072 H2096 0.950 . S
C2073 C2090 1.574 . S
C2073 C2092 1.368 . S
C2073 H2097 0.949 . S
H2074 C2078 0.949 . S
C2075 C2076 1.349 . S
C2075 C2077 1.327 . S
C2075 H2098 0.950 . S
C2076 C2075 1.349 . S
C2076 C2088 1.349 . S
C2077 C2075 1.327 . S
C2077 C2093 1.429 . S
C2077 H2099 0.950 . S
C2078 H2074 0.949 . S
C2078 C2086 1.574 . S
C2078 C2094 1.368 . S
H2079 C2087 0.950 . S
H2080 C2085 0.950 . S
H2081 C2086 0.949 . S
H2082 C2088 0.950 . S
H2083 C2089 0.950 . S
H2084 C2090 0.949 . S
C2085 H2080 0.950 . S
C2085 C2087 1.327 . S
C2085 C2091 1.429 . S
C2086 C2078 1.574 . S
C2086 H2081 0.949 . S
C2086 C2092 1.368 . S
C2087 C2071 1.349 . S
C2087 H2079 0.950 . S
C2087 C2085 1.327 . S
C2088 C2076 1.349 . S
C2088 H2082 0.950 . S
C2088 C2089 1.327 . S
C2089 H2083 0.950 . S
C2089 C2088 1.327 . S
C2089 C2093 1.429 . S
C2090 C2073 1.574 . S
C2090 H2084 0.949 . S
C2090 C2094 1.368 . S
C2091 C2072 1.429 . S
C2091 C2085 1.429 . S
C2091 C2092 1.523 . S
C2092 C2073 1.368 . S
C2092 C2086 1.368 . S
C2092 C2091 1.523 . S
C2093 C2077 1.429 . S
C2093 C2089 1.429 . S
C2093 C2094 1.523 . S
C2094 C2078 1.368 . S
C2094 C2090 1.368 . S
C2094 C2093 1.523 . S
H2095 C2070 0.950 . S
H2096 C2072 0.950 . S
H2097 C2073 0.949 . S
H2098 C2075 0.950 . S
H2099 C2077 0.950 . S
C2100 C2101 1.349 . S
C2100 C2102 1.327 . S
C2100 H2125 0.950 . S
C2101 C2100 1.349 . S
C2101 C2117 1.349 . S
C2102 C2100 1.327 . S
C2102 C2121 1.429 . S
C2102 H2126 0.950 . S
C2103 C2120 1.574 . S
C2103 C2122 1.368 . S
C2103 H2127 0.949 . S
H2104 C2108 0.949 . S
C2105 C2106 1.349 . S
C2105 C2107 1.327 . S
C2105 H2128 0.950 . S
C2106 C2105 1.349 . S
C2106 C2118 1.349 . S
C2107 C2105 1.327 . S
C2107 C2123 1.429 . S
C2107 H2129 0.950 . S
C2108 H2104 0.949 . S
C2108 C2116 1.574 . S
C2108 C2124 1.368 . S
H2109 C2117 0.950 . S
H2110 C2115 0.950 . S
H2111 C2116 0.949 . S
H2112 C2118 0.950 . S
H2113 C2119 0.950 . S
H2114 C2120 0.949 . S
C2115 H2110 0.950 . S
C2115 C2117 1.327 . S
C2115 C2121 1.429 . S
C2116 C2108 1.574 . S
C2116 H2111 0.949 . S
C2116 C2122 1.368 . S
C2117 C2101 1.349 . S
C2117 H2109 0.950 . S
C2117 C2115 1.327 . S
C2118 C2106 1.349 . S
C2118 H2112 0.950 . S
C2118 C2119 1.327 . S
C2119 H2113 0.950 . S
C2119 C2118 1.327 . S
C2119 C2123 1.429 . S
C2120 C2103 1.574 . S
C2120 H2114 0.949 . S
C2120 C2124 1.368 . S
C2121 C2102 1.429 . S
C2121 C2115 1.429 . S
C2121 C2122 1.523 . S
C2122 C2103 1.368 . S
C2122 C2116 1.368 . S
C2122 C2121 1.523 . S
C2123 C2107 1.429 . S
C2123 C2119 1.429 . S
C2123 C2124 1.523 . S
C2124 C2108 1.368 . S
C2124 C2120 1.368 . S
C2124 C2123 1.523 . S
H2125 C2100 0.950 . S
H2126 C2102 0.950 . S
H2127 C2103 0.949 . S
H2128 C2105 0.950 . S
H2129 C2107 0.950 . S
C2130 C2131 1.349 . S
C2130 C2132 1.327 . S
C2130 H2155 0.950 . S
C2131 C2130 1.349 . S
C2131 C2147 1.349 . S
C2132 C2130 1.327 . S
C2132 C2151 1.429 . S
C2132 H2156 0.950 . S
C2133 C2150 1.574 . S
C2133 C2152 1.368 . S
C2133 H2157 0.949 . S
H2134 C2138 0.949 . S
C2135 C2136 1.349 . S
C2135 C2137 1.327 . S
C2135 H2158 0.950 . S
C2136 C2135 1.349 . S
C2136 C2148 1.349 . S
C2137 C2135 1.327 . S
C2137 C2153 1.429 . S
C2137 H2159 0.950 . S
C2138 H2134 0.949 . S
C2138 C2146 1.574 . S
C2138 C2154 1.368 . S
H2139 C2147 0.950 . S
H2140 C2145 0.950 . S
H2141 C2146 0.949 . S
H2142 C2148 0.950 . S
H2143 C2149 0.950 . S
H2144 C2150 0.949 . S
C2145 H2140 0.950 . S
C2145 C2147 1.327 . S
C2145 C2151 1.429 . S
C2146 C2138 1.574 . S
C2146 H2141 0.949 . S
C2146 C2152 1.368 . S
C2147 C2131 1.349 . S
C2147 H2139 0.950 . S
C2147 C2145 1.327 . S
C2148 C2136 1.349 . S
C2148 H2142 0.950 . S
C2148 C2149 1.327 . S
C2149 H2143 0.950 . S
C2149 C2148 1.327 . S
C2149 C2153 1.429 . S
C2150 C2133 1.574 . S
C2150 H2144 0.949 . S
C2150 C2154 1.368 . S
C2151 C2132 1.429 . S
C2151 C2145 1.429 . S
C2151 C2152 1.523 . S
C2152 C2133 1.368 . S
C2152 C2146 1.368 . S
C2152 C2151 1.523 . S
C2153 C2137 1.429 . S
C2153 C2149 1.429 . S
C2153 C2154 1.523 . S
C2154 C2138 1.368 . S
C2154 C2150 1.368 . S
C2154 C2153 1.523 . S
H2155 C2130 0.950 . S
H2156 C2132 0.950 . S
H2157 C2133 0.949 . S
H2158 C2135 0.950 . S
H2159 C2137 0.950 . S
C2160 C2161 1.349 . S
C2160 C2162 1.327 . S
C2160 H2185 0.950 . S
C2161 C2160 1.349 . S
C2161 C2177 1.349 . S
C2162 C2160 1.327 . S
C2162 C2181 1.429 . S
C2162 H2186 0.950 . S
C2163 C2180 1.574 . S
C2163 C2182 1.368 . S
C2163 H2187 0.949 . S
H2164 C2168 0.949 . S
C2165 C2166 1.349 . S
C2165 C2167 1.327 . S
C2165 H2188 0.950 . S
C2166 C2165 1.349 . S
C2166 C2178 1.349 . S
C2167 C2165 1.327 . S
C2167 C2183 1.429 . S
C2167 H2189 0.950 . S
C2168 H2164 0.949 . S
C2168 C2176 1.574 . S
C2168 C2184 1.368 . S
H2169 C2177 0.950 . S
H2170 C2175 0.950 . S
H2171 C2176 0.949 . S
H2172 C2178 0.950 . S
H2173 C2179 0.950 . S
H2174 C2180 0.949 . S
C2175 H2170 0.950 . S
C2175 C2177 1.327 . S
C2175 C2181 1.429 . S
C2176 C2168 1.574 . S
C2176 H2171 0.949 . S
C2176 C2182 1.368 . S
C2177 C2161 1.349 . S
C2177 H2169 0.950 . S
C2177 C2175 1.327 . S
C2178 C2166 1.349 . S
C2178 H2172 0.950 . S
C2178 C2179 1.327 . S
C2179 H2173 0.950 . S
C2179 C2178 1.327 . S
C2179 C2183 1.429 . S
C2180 C2163 1.574 . S
C2180 H2174 0.949 . S
C2180 C2184 1.368 . S
C2181 C2162 1.429 . S
C2181 C2175 1.429 . S
C2181 C2182 1.523 . S
C2182 C2163 1.368 . S
C2182 C2176 1.368 . S
C2182 C2181 1.523 . S
C2183 C2167 1.429 . S
C2183 C2179 1.429 . S
C2183 C2184 1.523 . S
C2184 C2168 1.368 . S
C2184 C2180 1.368 . S
C2184 C2183 1.523 . S
H2185 C2160 0.950 . S
H2186 C2162 0.950 . S
H2187 C2163 0.949 . S
H2188 C2165 0.950 . S
H2189 C2167 0.950 . S
C2190 C2191 1.349 . S
C2190 C2192 1.327 . S
C2190 H2215 0.950 . S
C2191 C2190 1.349 . S
C2191 C2207 1.349 . S
C2192 C2190 1.327 . S
C2192 C2211 1.429 . S
C2192 H2216 0.950 . S
C2193 C2210 1.574 . S
C2193 C2212 1.368 . S
C2193 H2217 0.949 . S
H2194 C2198 0.949 . S
C2195 C2196 1.349 . S
C2195 C2197 1.327 . S
C2195 H2218 0.950 . S
C2196 C2195 1.349 . S
C2196 C2208 1.349 . S
C2197 C2195 1.327 . S
C2197 C2213 1.429 . S
C2197 H2219 0.950 . S
C2198 H2194 0.949 . S
C2198 C2206 1.574 . S
C2198 C2214 1.368 . S
H2199 C2207 0.950 . S
H2200 C2205 0.950 . S
H2201 C2206 0.949 . S
H2202 C2208 0.950 . S
H2203 C2209 0.950 . S
H2204 C2210 0.949 . S
C2205 H2200 0.950 . S
C2205 C2207 1.327 . S
C2205 C2211 1.429 . S
C2206 C2198 1.574 . S
C2206 H2201 0.949 . S
C2206 C2212 1.368 . S
C2207 C2191 1.349 . S
C2207 H2199 0.950 . S
C2207 C2205 1.327 . S
C2208 C2196 1.349 . S
C2208 H2202 0.950 . S
C2208 C2209 1.327 . S
C2209 H2203 0.950 . S
C2209 C2208 1.327 . S
C2209 C2213 1.429 . S
C2210 C2193 1.574 . S
C2210 H2204 0.949 . S
C2210 C2214 1.368 . S
C2211 C2192 1.429 . S
C2211 C2205 1.429 . S
C2211 C2212 1.523 . S
C2212 C2193 1.368 . S
C2212 C2206 1.368 . S
C2212 C2211 1.523 . S
C2213 C2197 1.429 . S
C2213 C2209 1.429 . S
C2213 C2214 1.523 . S
C2214 C2198 1.368 . S
C2214 C2210 1.368 . S
C2214 C2213 1.523 . S
H2215 C2190 0.950 . S
H2216 C2192 0.950 . S
H2217 C2193 0.949 . S
H2218 C2195 0.950 . S
H2219 C2197 0.950 . S
C2220 C2221 1.349 . S
C2220 C2222 1.327 . S
C2220 H2245 0.950 . S
C2221 C2220 1.349 . S
C2221 C2237 1.349 . S
C2222 C2220 1.327 . S
C2222 C2241 1.429 . S
C2222 H2246 0.950 . S
C2223 C2240 1.574 . S
C2223 C2242 1.368 . S
C2223 H2247 0.949 . S
H2224 C2228 0.949 . S
C2225 C2226 1.349 . S
C2225 C2227 1.327 . S
C2225 H2248 0.950 . S
C2226 C2225 1.349 . S
C2226 C2238 1.349 . S
C2227 C2225 1.327 . S
C2227 C2243 1.429 . S
C2227 H2249 0.950 . S
C2228 H2224 0.949 . S
C2228 C2236 1.574 . S
C2228 C2244 1.368 . S
H2229 C2237 0.950 . S
H2230 C2235 0.950 . S
H2231 C2236 0.949 . S
H2232 C2238 0.950 . S
H2233 C2239 0.950 . S
H2234 C2240 0.949 . S
C2235 H2230 0.950 . S
C2235 C2237 1.327 . S
C2235 C2241 1.429 . S
C2236 C2228 1.574 . S
C2236 H2231 0.949 . S
C2236 C2242 1.368 . S
C2237 C2221 1.349 . S
C2237 H2229 0.950 . S
C2237 C2235 1.327 . S
C2238 C2226 1.349 . S
C2238 H2232 0.950 . S
C2238 C2239 1.327 . S
C2239 H2233 0.950 . S
C2239 C2238 1.327 . S
C2239 C2243 1.429 . S
C2240 C2223 1.574 . S
C2240 H2234 0.949 . S
C2240 C2244 1.368 . S
C2241 C2222 1.429 . S
C2241 C2235 1.429 . S
C2241 C2242 1.523 . S
C2242 C2223 1.368 . S
C2242 C2236 1.368 . S
C2242 C2241 1.523 . S
C2243 C2227 1.429 . S
C2243 C2239 1.429 . S
C2243 C2244 1.523 . S
C2244 C2228 1.368 . S
C2244 C2240 1.368 . S
C2244 C2243 1.523 . S
H2245 C2220 0.950 . S
H2246 C2222 0.950 . S
H2247 C2223 0.949 . S
H2248 C2225 0.950 . S
H2249 C2227 0.950 . S
C2250 C2251 1.349 . S
C2250 C2252 1.327 . S
C2250 H2275 0.950 . S
C2251 C2250 1.349 . S
C2251 C2267 1.349 . S
C2252 C2250 1.327 . S
C2252 C2271 1.429 . S
C2252 H2276 0.950 . S
C2253 C2270 1.574 . S
C2253 C2272 1.368 . S
C2253 H2277 0.949 . S
H2254 C2258 0.949 . S
C2255 C2256 1.349 . S
C2255 C2257 1.327 . S
C2255 H2278 0.950 . S
C2256 C2255 1.349 . S
C2256 C2268 1.349 . S
C2257 C2255 1.327 . S
C2257 C2273 1.429 . S
C2257 H2279 0.950 . S
C2258 H2254 0.949 . S
C2258 C2266 1.574 . S
C2258 C2274 1.368 . S
H2259 C2267 0.950 . S
H2260 C2265 0.950 . S
H2261 C2266 0.949 . S
H2262 C2268 0.950 . S
H2263 C2269 0.950 . S
H2264 C2270 0.949 . S
C2265 H2260 0.950 . S
C2265 C2267 1.327 . S
C2265 C2271 1.429 . S
C2266 C2258 1.574 . S
C2266 H2261 0.949 . S
C2266 C2272 1.368 . S
C2267 C2251 1.349 . S
C2267 H2259 0.950 . S
C2267 C2265 1.327 . S
C2268 C2256 1.349 . S
C2268 H2262 0.950 . S
C2268 C2269 1.327 . S
C2269 H2263 0.950 . S
C2269 C2268 1.327 . S
C2269 C2273 1.429 . S
C2270 C2253 1.574 . S
C2270 H2264 0.949 . S
C2270 C2274 1.368 . S
C2271 C2252 1.429 . S
C2271 C2265 1.429 . S
C2271 C2272 1.523 . S
C2272 C2253 1.368 . S
C2272 C2266 1.368 . S
C2272 C2271 1.523 . S
C2273 C2257 1.429 . S
C2273 C2269 1.429 . S
C2273 C2274 1.523 . S
C2274 C2258 1.368 . S
C2274 C2270 1.368 . S
C2274 C2273 1.523 . S
H2275 C2250 0.950 . S
H2276 C2252 0.950 . S
H2277 C2253 0.949 . S
H2278 C2255 0.950 . S
H2279 C2257 0.950 . S
C2280 C2281 1.349 . S
C2280 C2282 1.327 . S
C2280 H2305 0.950 . S
C2281 C2280 1.349 . S
C2281 C2297 1.349 . S
C2282 C2280 1.327 . S
C2282 C2301 1.429 . S
C2282 H2306 0.950 . S
C2283 C2300 1.574 . S
C2283 C2302 1.368 . S
C2283 H2307 0.949 . S
H2284 C2288 0.949 . S
C2285 C2286 1.349 . S
C2285 C2287 1.327 . S
C2285 H2308 0.950 . S
C2286 C2285 1.349 . S
C2286 C2298 1.349 . S
C2287 C2285 1.327 . S
C2287 C2303 1.429 . S
C2287 H2309 0.950 . S
C2288 H2284 0.949 . S
C2288 C2296 1.574 . S
C2288 C2304 1.368 . S
H2289 C2297 0.950 . S
H2290 C2295 0.950 . S
H2291 C2296 0.949 . S
H2292 C2298 0.950 . S
H2293 C2299 0.950 . S
H2294 C2300 0.949 . S
C2295 H2290 0.950 . S
C2295 C2297 1.327 . S
C2295 C2301 1.429 . S
C2296 C2288 1.574 . S
C2296 H2291 0.949 . S
C2296 C2302 1.368 . S
C2297 C2281 1.349 . S
C2297 H2289 0.950 . S
C2297 C2295 1.327 . S
C2298 C2286 1.349 . S
C2298 H2292 0.950 . S
C2298 C2299 1.327 . S
C2299 H2293 0.950 . S
C2299 C2298 1.327 . S
C2299 C2303 1.429 . S
C2300 C2283 1.574 . S
C2300 H2294 0.949 . S
C2300 C2304 1.368 . S
C2301 C2282 1.429 . S
C2301 C2295 1.429 . S
C2301 C2302 1.523 . S
C2302 C2283 1.368 . S
C2302 C2296 1.368 . S
C2302 C2301 1.523 . S
C2303 C2287 1.429 . S
C2303 C2299 1.429 . S
C2303 C2304 1.523 . S
C2304 C2288 1.368 . S
C2304 C2300 1.368 . S
C2304 C2303 1.523 . S
H2305 C2280 0.950 . S
H2306 C2282 0.950 . S
H2307 C2283 0.949 . S
H2308 C2285 0.950 . S
H2309 C2287 0.950 . S
C876 C699 1.185 . S
C871 C75 1.212 . S
C906 C700 1.114 . S
C901 C156 1.001 . S
C936 C694 1.318 . S
C931 C243 1.286 . S
C961 C315 0.668 . S
C966 C693 0.573 . S
C991 C399 0.708 . S
C996 C696 0.517 . S
C1026 C698 1.100 . S
C1021 C495 1.068 . S
C1051 C576 1.109 . S
C1056 C697 1.208 . S
C1081 C654 1.144 . S
C1086 C695 1.125 . S
C1116 C730 1.114 . S
C1111 C72 1.030 . S
C1141 C140 1.388 . S
C1146 C761 1.380 . S
C1176 C729 1.043 . S
C1171 C240 0.994 . S
C1206 C764 0.701 . S
C1201 C318 0.713 . S
C1231 C402 1.000 . S
C1236 C727 1.025 . S
C1266 C759 1.867 1_556 S
C1261 C492 1.716 . S
C1291 C560 1.034 . S
C1296 C732 1.083 . S
C1321 C655 2.720 . S
C1326 C766 2.743 1_556 S
C1351 C56 3.127 . S
C1356 C762 3.210 . S
C1381 C403 1.693 . S
C1386 C765 1.649 1_556 S
C1416 C733 2.233 . S
C1411 C476 2.136 . S
C1446 C760 1.501 . S
C1441 C579 1.445 . S
C1471 C651 1.432 . S
C1476 C726 1.567 . S
C1501 C224 3.133 . S
C1506 C763 3.286 . S
C1536 C728 1.264 . S
C1531 C319 1.273 . S
C1561 C159 1.803 . S
C1566 C731 1.860 . S
C1591 C663 1.136 . S
C1596 C798 1.111 . S
C1621 C408 0.899 . S
C1626 C799 0.504 . S
C1656 C793 1.232 . S
C1651 C486 1.201 . S
C1686 C792 1.635 . S
C1681 C567 1.444 . S
C1711 C147 0.675 . S
C1716 C795 0.635 . S
C1746 C797 1.196 . S
C1741 C234 1.162 . S
C1771 C324 0.923 . S
C1776 C796 1.044 . S
C1801 C66 1.145 . S
C1806 C794 1.111 . S
C1831 C660 1.464 . S
C1836 C832 1.565 . S
C1866 C864 1.216 . S
C1861 C392 1.253 . S
C1891 C487 2.046 . S
C1896 C825 2.174 . S
C1921 C570 1.754 . S
C1926 C859 1.829 . S
C1956 C830 1.562 . S
C1951 C150 1.488 . S
C1981 C235 3.356 . S
C1986 C861 3.443 . S
C2016 C827 1.591 . S
C2011 C308 1.640 . S
C2046 C862 3.121 . S
C2041 C67 2.913 . S
C2076 C858 2.629 . S
C2071 C644 2.459 . S
C2101 C151 1.010 . S
C2106 C860 1.030 . S
C2131 C231 0.901 . S
C2136 C829 0.966 . S
C2166 C863 1.038 . S
C2161 C327 1.007 . S
C2191 C63 1.088 . S
C2196 C828 1.149 . S
C2221 C483 1.904 . S
C2226 C865 1.986 . S
C2256 C831 1.328 . S
C2251 C571 1.335 . S
C2286 C826 0.680 . S
C2281 C411 0.703 . S
