# Generated by pormake.
# Topology ssa, (4,4)-cn, num edge types: 1
# Building blocks:
#     Node 0, Type 0, BuildingBlock: KOZSID_clean_sbu_0, # of connection points: 4
#     Node 1, Type 0, BuildingBlock: KOZSID_clean_sbu_0, # of connection points: 4
#     Node 2, Type 0, BuildingBlock: KOZSID_clean_sbu_0, # of connection points: 4
#     Node 3, Type 0, BuildingBlock: KOZSID_clean_sbu_0, # of connection points: 4
#     Node 4, Type 0, BuildingBlock: KOZSID_clean_sbu_0, # of connection points: 4
#     Node 5, Type 0, BuildingBlock: KOZSID_clean_sbu_0, # of connection points: 4
#     Node 6, Type 1, BuildingBlock: KOZSID_clean_sbu_0, # of connection points: 4
#     Node 7, Type 1, BuildingBlock: KOZSID_clean_sbu_0, # of connection points: 4
#     Node 8, Type 1, BuildingBlock: KOZSID_clean_sbu_0, # of connection points: 4
#     Node 9, Type 1, BuildingBlock: KOZSID_clean_sbu_0, # of connection points: 4
#     Node 10, Type 1, BuildingBlock: KOZSID_clean_sbu_0, # of connection points: 4
#     Node 11, Type 1, BuildingBlock: KOZSID_clean_sbu_0, # of connection points: 4
#     Edge 12, Type (0, 1), BuildingBlock: EZIPEK_clean_linker_0, # of connection points: 2
#     Edge 13, Type (0, 1), BuildingBlock: EZIPEK_clean_linker_0, # of connection points: 2
#     Edge 14, Type (0, 1), BuildingBlock: EZIPEK_clean_linker_0, # of connection points: 2
#     Edge 15, Type (0, 1), BuildingBlock: EZIPEK_clean_linker_0, # of connection points: 2
#     Edge 16, Type (0, 1), BuildingBlock: EZIPEK_clean_linker_0, # of connection points: 2
#     Edge 17, Type (0, 1), BuildingBlock: EZIPEK_clean_linker_0, # of connection points: 2
#     Edge 18, Type (0, 1), BuildingBlock: EZIPEK_clean_linker_0, # of connection points: 2
#     Edge 19, Type (0, 1), BuildingBlock: EZIPEK_clean_linker_0, # of connection points: 2
#     Edge 20, Type (0, 1), BuildingBlock: EZIPEK_clean_linker_0, # of connection points: 2
#     Edge 21, Type (0, 1), BuildingBlock: EZIPEK_clean_linker_0, # of connection points: 2
#     Edge 22, Type (0, 1), BuildingBlock: EZIPEK_clean_linker_0, # of connection points: 2
#     Edge 23, Type (0, 1), BuildingBlock: EZIPEK_clean_linker_0, # of connection points: 2
#     Edge 24, Type (0, 1), BuildingBlock: EZIPEK_clean_linker_0, # of connection points: 2
#     Edge 25, Type (0, 1), BuildingBlock: EZIPEK_clean_linker_0, # of connection points: 2
#     Edge 26, Type (0, 1), BuildingBlock: EZIPEK_clean_linker_0, # of connection points: 2
#     Edge 27, Type (0, 1), BuildingBlock: EZIPEK_clean_linker_0, # of connection points: 2
#     Edge 28, Type (0, 1), BuildingBlock: EZIPEK_clean_linker_0, # of connection points: 2
#     Edge 29, Type (0, 1), BuildingBlock: EZIPEK_clean_linker_0, # of connection points: 2
#     Edge 30, Type (0, 1), BuildingBlock: EZIPEK_clean_linker_0, # of connection points: 2
#     Edge 31, Type (0, 1), BuildingBlock: EZIPEK_clean_linker_0, # of connection points: 2
#     Edge 32, Type (0, 1), BuildingBlock: EZIPEK_clean_linker_0, # of connection points: 2
#     Edge 33, Type (0, 1), BuildingBlock: EZIPEK_clean_linker_0, # of connection points: 2
#     Edge 34, Type (0, 1), BuildingBlock: EZIPEK_clean_linker_0, # of connection points: 2
#     Edge 35, Type (0, 1), BuildingBlock: EZIPEK_clean_linker_0, # of connection points: 2
# Relax obj value: 0.013
# Max RMSD: 0.042
# Mean RMSD: 0.021
data_MOF--net-ssa--node1-KOZSID_clean_sbu_0--node2-KOZSID_clean_sbu_0--edge1-EZIPEK_clean_linker_0
_symmetry_space_group_name_H-M    P1
_symmetry_Int_Tables_number       1
_symmetry_cell_setting            triclinic
loop_
_symmetry_equiv_pos_as_xyz
'x, y, z'
_cell_length_a     45.167868
_cell_length_b     46.532707
_cell_length_c     32.484615
_cell_angle_alpha  90.698109
_cell_angle_beta   93.760877
_cell_angle_gamma 123.00366
loop_
_atom_site_label
_atom_site_type_symbol
_atom_site_fract_x
_atom_site_fract_y
_atom_site_fract_z
_atom_type_partial_charge
C0 C 0.95081 0.52767 0.98283 0.0
C1 C 0.92794 0.53194 0.00478 0.0
C2 C 0.93083 0.52354 0.04425 0.0
C3 C 0.95557 0.51518 0.04437 0.0
N4 N 0.96941 0.51855 0.0077 0.0
Co5 Co 0.0075 0.51039 0.99544 0.0
N6 N 0.01172 0.49777 0.05351 0.0
C7 C 0.9927 0.49681 0.08455 0.0
C8 C 1.0047 0.49272 0.12243 0.0
C9 C 0.03324 0.49119 0.11541 0.0
C10 C 0.03674 0.49367 0.07321 0.0
N11 N 0.04557 0.50215 0.98328 0.0
C12 C 0.06387 0.4926 0.00807 0.0
C13 C 0.08622 0.4877 0.98589 0.0
C14 C 0.0835 0.49633 0.94648 0.0
C15 C 0.05927 0.50534 0.94654 0.0
N16 N 1.00339 0.5231 0.93743 0.0
C17 C 0.02257 0.52431 0.90647 0.0
C18 C 0.01113 0.52932 0.86877 0.0
C19 C 0.98276 0.53116 0.87587 0.0
C20 C 0.97873 0.52772 0.91788 0.0
N21 N 0.04468 0.55901 0.01254 0.0
C22 C 0.10277 0.61984 0.05099 0.0
C23 C 0.10606 0.60624 0.01435 0.0
C24 C 0.07639 0.57631 0.99502 0.0
C25 C 0.06937 0.60505 0.06523 0.0
C26 C 0.04095 0.57483 0.04582 0.0
N27 N 0.97019 0.46182 0.97813 0.0
C28 C 0.94509 0.41614 0.92482 0.0
C29 C 0.91163 0.40145 0.93896 0.0
C30 C 0.90848 0.41522 0.97559 0.0
C31 C 0.93834 0.44473 0.99535 0.0
C32 C 0.9737 0.44613 0.94452 0.0
H33 H 0.9347 0.45406 0.02347 0.0
H34 H 0.99782 0.45681 0.93049 0.0
H35 H 0.08018 0.56672 0.96721 0.0
H36 H 0.01692 0.56395 0.06007 0.0
C37 C 0.96714 0.50476 0.07846 0.0
C38 C 0.95099 0.52889 0.93773 0.0
C39 C 0.06404 0.49165 0.0533 0.0
C40 C 0.04791 0.51603 0.91249 0.0
H41 H 0.91008 0.53925 0.99317 0.0
H42 H 0.91635 0.52322 0.06969 0.0
H43 H 0.99502 0.49273 0.15205 0.0
H44 H 0.04991 0.48919 0.13905 0.0
H45 H 0.1037 0.47989 0.99732 0.0
H46 H 0.09772 0.49632 0.92094 0.0
H47 H 0.02111 0.52983 0.8392 0.0
H48 H 0.96652 0.53398 0.85246 0.0
H49 H 0.13163 0.61746 1.0021 0.0
H50 H 0.06584 0.61521 0.09337 0.0
H51 H 0.9487 0.40567 0.89701 0.0
H52 H 0.883 0.40394 0.9881 0.0
C53 C 0.56209 0.02191 0.57332 0.0
C54 C 0.56777 0.00917 0.60929 0.0
C55 C 0.53599 0.98017 0.61612 0.0
C56 C 0.51292 0.97663 0.58377 0.0
N57 N 0.52822 1.00138 0.55655 0.0
Co58 Co 0.50485 0.00441 0.50379 0.0
N59 N 0.4578 0.96403 0.5157 0.0
C60 C 0.44939 0.94881 0.55193 0.0
C61 C 0.41393 0.92437 0.55272 0.0
C62 C 0.39905 0.92373 0.51437 0.0
C63 C 0.42657 0.94739 0.49206 0.0
N64 N 0.48211 0.0049 0.44893 0.0
C65 C 0.45163 0.97916 0.42808 0.0
C66 C 0.45018 0.98576 0.38661 0.0
C67 C 0.47983 0.01717 0.38159 0.0
C68 C 0.49832 0.02752 0.41967 0.0
N69 N 0.55126 0.04699 0.4937 0.0
C70 C 0.55726 0.06729 0.46178 0.0
C71 C 0.58959 0.09774 0.46587 0.0
C72 C 0.60496 0.09725 0.50316 0.0
C73 C 0.5812 0.06609 0.51946 0.0
N74 N 0.51735 0.97437 0.47602 0.0
C75 C 0.53012 0.92973 0.43196 0.0
C76 C 0.54631 0.96419 0.42267 0.0
C77 C 0.53933 0.98579 0.44455 0.0
C78 C 0.5084 0.91843 0.4647 0.0
C79 C 0.50296 0.94112 0.48665 0.0
N80 N 0.49234 0.03468 0.53173 0.0
C81 C 0.47918 0.07889 0.5298 0.0
C82 C 0.48282 0.08296 0.57306 0.0
C83 C 0.48945 0.06111 0.59497 0.0
C84 C 0.49285 0.03673 0.57401 0.0
C85 C 0.48459 0.05525 0.50991 0.0
H86 H 0.49677 0.02043 0.59316 0.0
H87 H 0.48271 0.05439 0.47685 0.0
H88 H 0.55159 0.01155 0.4351 0.0
H89 H 0.4864 0.93104 0.51167 0.0
C90 C 0.47606 0.95423 0.58158 0.0
C91 C 0.58783 0.05604 0.55984 0.0
C92 C 0.42329 0.94883 0.44705 0.0
C93 C 0.53229 0.05661 0.42804 0.0
H94 H 0.59182 0.02083 0.62978 0.0
H95 H 0.52996 0.96476 0.64277 0.0
H96 H 0.40079 0.9076 0.5773 0.0
H97 H 0.37155 0.90614 0.50315 0.0
H98 H 0.43031 0.96958 0.36201 0.0
H99 H 0.48781 0.03013 0.35308 0.0
H100 H 0.60045 0.11811 0.44457 0.0
H101 H 0.63055 0.11785 0.51687 0.0
H102 H 0.56363 0.97419 0.39786 0.0
H103 H 0.49553 0.89206 0.47327 0.0
H104 H 0.47325 0.09467 0.51137 0.0
H105 H 0.49201 0.0628 0.62845 0.0
C106 C 0.57043 0.53873 0.95512 0.0
C107 C 0.58113 0.55677 0.91962 0.0
C108 C 0.55495 0.56154 0.90598 0.0
C109 C 0.52981 0.54613 0.93374 0.0
N110 N 0.53867 0.53241 0.96479 0.0
Co111 Co 0.50851 0.50492 0.00956 0.0
N112 N 0.46742 0.50675 0.98544 0.0
C113 C 0.4661 0.52178 0.95058 0.0
C114 C 0.4354 0.52094 0.94329 0.0
C115 C 0.41623 0.50512 0.97594 0.0
C116 C 0.43645 0.49716 1.00127 0.0
N117 N 0.47849 0.47769 0.05452 0.0
C118 C 0.4466 0.47115 0.06394 0.0
C119 C 0.43594 0.45335 0.0996 0.0
C120 C 0.46244 0.44921 0.11383 0.0
C121 C 0.48764 0.46463 0.08612 0.0
N122 N 0.54945 0.50278 0.03341 0.0
C123 C 0.55075 0.48759 0.06811 0.0
C124 C 0.58154 0.48857 0.07539 0.0
C125 C 0.60073 0.50458 0.0428 0.0
C126 C 0.58039 0.5124 0.01752 0.0
N127 N 0.52576 0.54807 0.04431 0.0
C128 C 0.54023 0.60397 0.09765 0.0
C129 C 0.54934 0.58094 0.11032 0.0
C130 C 0.54114 0.55299 0.08386 0.0
C131 C 0.52602 0.5998 0.05677 0.0
C132 C 0.52016 0.57266 0.03057 0.0
N133 N 0.49131 0.46185 0.97486 0.0
C134 C 0.48985 0.40936 0.96369 0.0
C135 C 0.47959 0.40709 0.9215 0.0
C136 C 0.47228 0.43112 0.90753 0.0
C137 C 0.47904 0.45841 0.93414 0.0
C138 C 0.49439 0.43604 0.98978 0.0
H139 H 0.47517 0.47697 0.92059 0.0
H140 H 0.50187 0.43603 0.02161 0.0
H141 H 0.54683 0.53538 0.09661 0.0
H142 H 0.51024 0.57173 0.9996 0.0
C143 C 0.49591 0.54012 0.92837 0.0
C144 C 0.59012 0.52613 0.97703 0.0
C145 C 0.42663 0.48327 0.04171 0.0
C146 C 0.52138 0.47024 0.09118 0.0
H147 H 0.60476 0.56454 0.9043 0.0
H148 H 0.55353 0.57319 0.8779 0.0
H149 H 0.42862 0.53219 0.91844 0.0
H150 H 0.39094 0.50123 0.98138 0.0
H151 H 0.41205 0.4453 0.11451 0.0
H152 H 0.46388 0.43773 0.14205 0.0
H153 H 0.58852 0.4776 0.1004 0.0
H154 H 0.62617 0.50881 0.03731 0.0
H155 H 0.56132 0.58359 0.1413 0.0
H156 H 0.51928 0.61741 0.04504 0.0
H157 H 0.49516 0.39104 0.97641 0.0
H158 H 0.4632 0.42992 0.87547 0.0
C159 C 0.94176 0.43256 0.52517 0.0
C160 C 0.90737 0.41106 0.50712 0.0
C161 C 0.90322 0.42784 0.47526 0.0
C162 C 0.93501 0.45874 0.47558 0.0
N163 N 0.9595 0.46235 0.50499 0.0
Co164 Co 0.00727 0.5058 0.51835 0.0
N165 N 1.004 0.52697 0.46665 0.0
C166 C 0.97443 0.51564 0.44152 0.0
C167 C 0.98056 0.53385 0.40665 0.0
C168 C 0.01628 0.55821 0.40999 0.0
C169 C 0.02998 0.55364 0.44697 0.0
N170 N 0.05457 0.54924 0.532 0.0
C171 C 0.07568 0.57504 0.5077 0.0
C172 C 0.10648 0.60063 0.53004 0.0
C173 C 0.10477 0.59036 0.56963 0.0
C174 C 0.07307 0.55925 0.56927 0.0
N175 N 0.01121 0.4847 0.57009 0.0
C176 C 0.03658 0.50123 0.60157 0.0
C177 C 0.03402 0.48033 0.63244 0.0
C178 C 1.00467 0.44872 0.62035 0.0
C179 C 0.99048 0.45223 0.58298 0.0
N180 N 0.02977 0.48674 0.48861 0.0
C181 C 0.06945 0.47533 0.43617 0.0
C182 C 0.08309 0.48917 0.4766 0.0
C183 C 0.06258 0.49417 0.50257 0.0
C184 C 0.03428 0.4639 0.42409 0.0
C185 C 0.01503 0.47016 0.45059 0.0
N186 N 0.98475 0.52546 0.54729 0.0
C187 C 0.94027 0.5173 0.5913 0.0
C188 C 0.95078 0.55131 0.58847 0.0
C189 C 0.97854 0.57255 0.56431 0.0
C190 C 0.99517 0.559 0.54375 0.0
C191 C 0.95737 0.50503 0.57048 0.0
H192 H 0.0162 0.57555 0.52486 0.0
H193 H 0.94776 0.47873 0.57286 0.0
H194 H 0.07425 0.5061 0.53292 0.0
H195 H 0.98909 0.46349 0.43904 0.0
C196 C 0.94325 0.48444 0.44796 0.0
C197 C 0.95426 0.42614 0.56526 0.0
C198 C 0.06729 0.57633 0.46361 0.0
C199 C 0.06338 0.5359 0.60019 0.0
H200 H 0.8867 0.38649 0.51707 0.0
H201 H 0.87954 0.41886 0.45485 0.0
H202 H 0.96166 0.52898 0.38088 0.0
H203 H 0.03059 0.57711 0.38775 0.0
H204 H 0.12816 0.62395 0.5187 0.0
H205 H 0.12513 0.60315 0.595 0.0
H206 H 0.05124 0.48732 0.6606 0.0
H207 H 0.99366 0.42615 0.63824 0.0
H208 H 0.11 0.49763 0.48729 0.0
H209 H 0.02263 0.4524 0.39332 0.0
H210 H 0.9187 0.50012 0.60949 0.0
H211 H 0.98717 0.59912 0.56138 0.0
C212 C 0.45458 0.97793 0.07875 0.0
C213 C 0.4605 0.98705 0.12083 0.0
C214 C 0.49526 0.0131 0.12827 0.0
C215 C 0.50898 0.01842 0.09072 0.0
N216 N 0.48496 0.99793 0.05949 0.0
Co217 Co 0.49673 0.99466 1.00174 0.0
N218 N 0.5456 0.03677 0.01135 0.0
C219 C 0.56271 0.05171 0.04849 0.0
C220 C 0.59641 0.07984 0.04611 0.0
C221 C 0.60092 0.08288 0.00476 0.0
C222 C 0.56952 0.05644 0.98422 0.0
N223 N 0.50845 0.9917 0.9442 0.0
C224 C 0.53431 0.01618 0.9221 0.0
C225 C 0.53049 0.00409 0.88157 0.0
C226 C 0.50193 0.97084 0.87846 0.0
C227 C 0.48953 0.96449 0.91692 0.0
N228 N 0.4479 0.95209 0.99209 0.0
C229 C 0.43566 0.92999 0.95865 0.0
C230 C 0.40054 0.90424 0.95857 0.0
C231 C 0.39007 0.90969 0.9948 0.0
C232 C 0.4197 0.93817 0.01552 0.0
N233 N 0.47898 0.02278 0.98256 0.0
C234 C 0.46865 0.06948 0.94174 0.0
C235 C 0.45059 0.03527 0.92683 0.0
C236 C 0.45636 0.01244 0.94747 0.0
C237 C 0.48896 0.07906 0.97976 0.0
C238 C 0.49324 0.05505 1.00011 0.0
N239 N 0.51529 0.96703 0.02045 0.0
C240 C 0.51152 0.92501 0.06581 0.0
C241 C 0.54382 0.93163 0.05487 0.0
C242 C 0.56142 0.95549 0.02518 0.0
C243 C 0.54647 0.97286 0.00806 0.0
C244 C 0.49798 0.94299 0.04849 0.0
H245 H 0.56066 0.99168 0.98586 0.0
H246 H 0.47419 0.93825 0.0593 0.0
H247 H 0.44431 0.98718 0.93319 0.0
H248 H 0.51001 0.06333 0.02859 0.0
C249 C 0.54442 0.04179 0.08391 0.0
C250 C 0.42156 0.94671 0.05995 0.0
C251 C 0.56395 0.05025 0.93906 0.0
C252 C 0.45654 0.93657 0.92577 0.0
H253 H 0.44238 0.97502 0.14447 0.0
H254 H 0.50922 0.02576 0.15788 0.0
H255 H 0.615 0.09687 0.07129 0.0
H256 H 0.62454 0.10241 0.99127 0.0
H257 H 0.54642 0.01784 0.85666 0.0
H258 H 0.49035 0.954 0.85076 0.0
H259 H 0.38438 0.88403 0.93485 0.0
H260 H 0.36413 0.89335 0.00585 0.0
H261 H 0.43423 0.02691 0.89779 0.0
H262 H 0.50281 0.10527 0.99254 0.0
H263 H 0.49735 0.9068 0.08886 0.0
H264 H 0.58668 0.96122 0.01621 0.0
C265 C 0.50969 0.56943 0.50123 0.0
C266 C 0.49851 0.58652 0.5244 0.0
C267 C 0.48088 0.56579 0.55524 0.0
C268 C 0.48213 0.5373 0.54901 0.0
N269 N 0.50016 0.53883 0.5166 0.0
Co270 Co 0.50476 0.50136 0.49367 0.0
N271 N 0.47662 0.46989 0.53732 0.0
C272 C 0.46205 0.47666 0.56799 0.0
C273 C 0.44655 0.45107 0.59505 0.0
C274 C 0.45243 0.42687 0.58156 0.0
C275 C 0.47122 0.43922 0.54692 0.0
N276 N 0.5086 0.46355 0.47031 0.0
C277 C 0.49994 0.43336 0.48629 0.0
C278 C 0.50885 0.4152 0.46152 0.0
C279 C 0.52426 0.4349 0.429 0.0
C280 C 0.52392 0.46388 0.43581 0.0
N281 N 0.53399 0.53319 0.45095 0.0
C282 C 0.54917 0.52657 0.42087 0.0
C283 C 0.56695 0.55316 0.39559 0.0
C284 C 0.56231 0.57803 0.40994 0.0
C285 C 0.54173 0.56499 0.44311 0.0
N286 N 0.54877 0.5179 0.53065 0.0
C287 C 0.60452 0.52573 0.5863 0.0
C288 C 0.60587 0.52486 0.5431 0.0
C289 C 0.57756 0.51973 0.51632 0.0
C290 C 0.57857 0.53102 0.5995 0.0
C291 C 0.55084 0.52621 0.57175 0.0
N292 N 0.46053 0.48477 0.45639 0.0
C293 C 0.43294 0.48016 0.38774 0.0
C294 C 0.40189 0.47344 0.40374 0.0
C295 C 0.39976 0.46968 0.44635 0.0
C296 C 0.42925 0.47601 0.47192 0.0
C297 C 0.46115 0.48461 0.41417 0.0
H298 H 0.42628 0.4745 0.50422 0.0
H299 H 0.48368 0.48915 0.39964 0.0
H300 H 0.57919 0.51647 0.48419 0.0
H301 H 0.53095 0.52863 0.58427 0.0
C302 C 0.4651 0.50807 0.5717 0.0
C303 C 0.52737 0.58233 0.46351 0.0
C304 C 0.48575 0.42221 0.52622 0.0
C305 C 0.5428 0.49381 0.41452 0.0
H306 H 0.5019 0.61099 0.51891 0.0
H307 H 0.46769 0.57043 0.57857 0.0
H308 H 0.43371 0.45067 0.62222 0.0
H309 H 0.44489 0.40335 0.59632 0.0
H310 H 0.50579 0.39089 0.46729 0.0
H311 H 0.53626 0.42967 0.40469 0.0
H312 H 0.58025 0.55377 0.36877 0.0
H313 H 0.57168 0.60242 0.39646 0.0
H314 H 0.62821 0.52763 0.52907 0.0
H315 H 0.57891 0.53854 0.63119 0.0
H316 H 0.4358 0.48271 0.35489 0.0
H317 H 0.37593 0.46353 0.46019 0.0
C318 C 0.20558 0.51483 0.17113 0.0
C319 C 0.21131 0.54725 0.16838 0.0
C320 C 0.24381 0.57001 0.18823 0.0
C321 C 0.25573 0.55033 0.203 0.0
N322 N 0.23309 0.51636 0.19345 0.0
Co323 Co 0.23592 0.47864 0.21879 0.0
N324 N 0.28079 0.51196 0.25362 0.0
C325 C 0.30027 0.54637 0.2509 0.0
C326 C 0.33236 0.5627 0.27374 0.0
C327 C 0.33378 0.53714 0.2918 0.0
C328 C 0.30204 0.50653 0.2794 0.0
N329 N 0.23668 0.44084 0.24692 0.0
C330 C 0.25944 0.44207 0.27755 0.0
C331 C 0.24838 0.40946 0.28982 0.0
C332 C 0.21828 0.38687 0.26528 0.0
C333 C 0.21229 0.40686 0.23993 0.0
N334 N 0.19272 0.44557 0.18158 0.0
C335 C 0.17797 0.41139 0.17707 0.0
C336 C 0.15032 0.39536 0.14694 0.0
C337 C 0.14702 0.42082 0.13166 0.0
C338 C 0.17251 0.45102 0.15395 0.0
N339 N 0.26596 0.47924 0.17596 0.0
C340 C 0.31607 0.48254 0.12532 0.0
C341 C 0.29314 0.45263 0.14459 0.0
C342 C 0.26808 0.45129 0.16877 0.0
C343 C 0.31219 0.51024 0.12969 0.0
C344 C 0.28726 0.50816 0.15522 0.0
N345 N 0.20629 0.47781 0.26162 0.0
C346 C 0.15195 0.44754 0.29544 0.0
C347 C 0.16281 0.47681 0.32029 0.0
C348 C 0.19591 0.50652 0.31586 0.0
C349 C 0.21717 0.50648 0.28646 0.0
C350 C 0.174 0.44853 0.26658 0.0
H351 H 0.24216 0.52994 0.28398 0.0
H352 H 0.16425 0.42537 0.24835 0.0
H353 H 0.25131 0.42736 0.18191 0.0
H354 H 0.28627 0.5305 0.15832 0.0
C355 C 0.28699 0.56267 0.22803 0.0
C356 C 0.1744 0.48351 0.15054 0.0
C357 C 0.2933 0.47307 0.29325 0.0
C358 C 0.18703 0.39472 0.20589 0.0
H359 H 0.19385 0.554 0.15382 0.0
H360 H 0.25666 0.59753 0.19262 0.0
H361 H 0.35242 0.58995 0.27677 0.0
H362 H 0.35585 0.54077 0.3117 0.0
H363 H 0.26151 0.4026 0.31294 0.0
H364 H 0.20335 0.35913 0.26488 0.0
H365 H 0.13343 0.36816 0.13849 0.0
H366 H 0.12707 0.41725 0.10806 0.0
H367 H 0.29484 0.43037 0.14138 0.0
H368 H 0.32915 0.53375 0.11459 0.0
H369 H 0.12639 0.42408 0.2981 0.0
H370 H 0.20508 0.5297 0.3347 0.0
C371 C 0.70259 0.19559 0.66869 0.0
C372 C 0.67838 0.19899 0.64426 0.0
C373 C 0.67877 0.22614 0.66134 0.0
C374 C 0.70336 0.23792 0.69479 0.0
N375 N 0.71896 0.22017 0.69985 0.0
Co376 Co 0.75739 0.22974 0.74317 0.0
N377 N 0.7555 0.26739 0.7707 0.0
C378 C 0.7322 0.27639 0.76073 0.0
C379 C 0.73605 0.30191 0.78663 0.0
C380 C 0.7635 0.3097 0.81486 0.0
C381 C 0.77499 0.28856 0.80425 0.0
N382 N 0.79736 0.24069 0.78499 0.0
C383 C 0.81501 0.26642 0.81478 0.0
C384 C 0.84336 0.26665 0.8346 0.0
C385 C 0.84343 0.23996 0.81696 0.0
C386 C 0.81553 0.22527 0.78721 0.0
N387 N 0.75774 0.19066 0.71697 0.0
C388 C 0.77841 0.17917 0.72968 0.0
C389 C 0.77 0.14952 0.70888 0.0
C390 C 0.74182 0.14116 0.68164 0.0
C391 C 0.73496 0.16656 0.68712 0.0
N392 N 0.79334 0.26308 0.70627 0.0
C393 C 0.84622 0.31284 0.65777 0.0
C394 C 0.84781 0.28552 0.67248 0.0
C395 C 0.82118 0.26097 0.69608 0.0
C396 C 0.81727 0.31432 0.66714 0.0
C397 C 0.79156 0.28962 0.69129 0.0
N398 N 0.72146 0.19657 0.78026 0.0
C399 C 0.70489 0.15654 0.83494 0.0
C400 C 0.67036 0.14926 0.83245 0.0
C401 C 0.66202 0.1663 0.80339 0.0
C402 C 0.68783 0.19006 0.7785 0.0
C403 C 0.72953 0.17951 0.80841 0.0
H404 H 0.67971 0.20263 0.7578 0.0
H405 H 0.75497 0.18295 0.81128 0.0
H406 H 0.82393 0.24074 0.70627 0.0
H407 H 0.77072 0.29286 0.69798 0.0
C408 C 0.70932 0.26269 0.72474 0.0
C409 C 0.70611 0.16639 0.66386 0.0
C410 C 0.80593 0.29112 0.82534 0.0
C411 C 0.80502 0.19641 0.76175 0.0
H412 H 0.66111 0.18257 0.61791 0.0
H413 H 0.66202 0.23523 0.65162 0.0
H414 H 0.72133 0.31406 0.78456 0.0
H415 H 0.77445 0.32931 0.83979 0.0
H416 H 0.86214 0.28426 0.85925 0.0
H417 H 0.86169 0.23224 0.8248 0.0
H418 H 0.7824 0.13527 0.71359 0.0
H419 H 0.72771 0.1187 0.66049 0.0
H420 H 0.8698 0.28335 0.66621 0.0
H421 H 0.81494 0.33507 0.65665 0.0
H422 H 0.71273 0.1441 0.857 0.0
H423 H 0.63567 0.16156 0.80019 0.0
C424 C 0.51595 0.70877 0.20902 0.0
C425 C 0.48381 0.68231 0.18981 0.0
C426 C 0.45821 0.6859 0.2041 0.0
C427 C 0.47605 0.71431 0.23094 0.0
N428 N 0.51159 0.72939 0.23445 0.0
Co429 Co 0.54724 0.77112 0.27069 0.0
N430 N 0.50932 0.77633 0.29162 0.0
C431 C 0.47404 0.7558 0.28105 0.0
C432 C 0.45444 0.76561 0.30002 0.0
C433 C 0.47862 0.79444 0.32381 0.0
C434 C 0.51176 0.80069 0.31781 0.0
N435 N 0.58274 0.81265 0.30735 0.0
C436 C 0.57847 0.83415 0.33133 0.0
C437 C 0.61061 0.86083 0.35017 0.0
C438 C 0.63603 0.85607 0.33783 0.0
C439 C 0.61815 0.82696 0.31208 0.0
N440 N 0.58517 0.7662 0.24918 0.0
C441 C 0.62046 0.7868 0.25967 0.0
C442 C 0.63992 0.77655 0.24124 0.0
C443 C 0.61567 0.74757 0.21761 0.0
C444 C 0.58264 0.74182 0.22288 0.0
N445 N 0.55246 0.80124 0.22526 0.0
C446 C 0.56003 0.84611 0.16379 0.0
C447 C 0.58972 0.85002 0.18547 0.0
C448 C 0.58536 0.82757 0.21606 0.0
C449 C 0.52653 0.81888 0.17217 0.0
C450 C 0.52336 0.79673 0.20271 0.0
N451 N 0.5422 0.7408 0.31603 0.0
C452 C 0.56793 0.71709 0.36022 0.0
C453 C 0.53459 0.6915 0.37121 0.0
C454 C 0.50532 0.69227 0.35641 0.0
C455 C 0.50961 0.71665 0.32852 0.0
C456 C 0.57118 0.74182 0.33373 0.0
H457 H 0.48606 0.71483 0.3168 0.0
H458 H 0.59741 0.76098 0.32737 0.0
H459 H 0.609 0.83239 0.23221 0.0
H460 H 0.49715 0.77645 0.2079 0.0
C461 C 0.46016 0.72749 0.25312 0.0
C462 C 0.54964 0.71245 0.20284 0.0
C463 C 0.54472 0.83072 0.33678 0.0
C464 C 0.63416 0.81418 0.2892 0.0
H465 H 0.47927 0.66225 0.16802 0.0
H466 H 0.42992 0.66962 0.19603 0.0
H467 H 0.42598 0.7534 0.29668 0.0
H468 H 0.47255 0.8094 0.34306 0.0
H469 H 0.61528 0.88185 0.3703 0.0
H470 H 0.66433 0.87248 0.34572 0.0
H471 H 0.66829 0.78827 0.24529 0.0
H472 H 0.6216 0.73215 0.19905 0.0
H473 H 0.61612 0.87089 0.17957 0.0
H474 H 0.5029 0.81506 0.15565 0.0
H475 H 0.59139 0.71779 0.3717 0.0
H476 H 0.47905 0.67313 0.36486 0.0
C477 C 0.74336 0.56912 0.72847 0.0
C478 C 0.74701 0.6006 0.72541 0.0
C479 C 0.76884 0.62094 0.75901 0.0
C480 C 0.77759 0.60097 0.78044 0.0
N481 N 0.76322 0.56948 0.76211 0.0
Co482 Co 0.76958 0.53294 0.78357 0.0
N483 N 0.80963 0.56574 0.82418 0.0
C484 C 0.81715 0.59681 0.83704 0.0
C485 C 0.84488 0.61306 0.8671 0.0
C486 C 0.85548 0.59081 0.87368 0.0
C487 C 0.83377 0.56223 0.84686 0.0
N488 N 0.77626 0.49666 0.80489 0.0
C489 C 0.80533 0.49969 0.82489 0.0
C490 C 0.80075 0.46773 0.8275 0.0
C491 C 0.76721 0.44396 0.81066 0.0
C492 C 0.75341 0.46255 0.79757 0.0
N493 N 0.72926 0.49977 0.7432 0.0
C494 C 0.71113 0.46531 0.7441 0.0
C495 C 0.6834 0.44856 0.71424 0.0
C496 C 0.68348 0.47396 0.6935 0.0
C497 C 0.71148 0.50502 0.7119 0.0
N498 N 0.80316 0.54255 0.74239 0.0
C499 C 0.85439 0.55594 0.68837 0.0
C500 C 0.82583 0.52238 0.69242 0.0
C501 C 0.80049 0.51623 0.71954 0.0
C502 C 0.85636 0.58284 0.71077 0.0
C503 C 0.83041 0.57559 0.73755 0.0
N504 N 0.7361 0.5238 0.82508 0.0
C505 C 0.68307 0.52012 0.8419 0.0
C506 C 0.6923 0.52126 0.8839 0.0
C507 C 0.7229 0.52177 0.8962 0.0
C508 C 0.74435 0.5227 0.86614 0.0
C509 C 0.70515 0.52128 0.8132 0.0
H510 H 0.768 0.52343 0.87619 0.0
H511 H 0.69742 0.52103 0.78141 0.0
H512 H 0.77919 0.49007 0.72264 0.0
H513 H 0.83288 0.59672 0.75497 0.0
C514 C 0.80121 0.61166 0.8159 0.0
C515 C 0.71681 0.53835 0.70252 0.0
C516 C 0.83616 0.53188 0.84481 0.0
C517 C 0.72312 0.44965 0.77047 0.0
H518 H 0.73386 0.60751 0.70237 0.0
H519 H 0.77731 0.64717 0.76685 0.0
H520 H 0.85677 0.63851 0.88154 0.0
H521 H 0.87684 0.5952 0.89559 0.0
H522 H 0.81956 0.46191 0.84004 0.0
H523 H 0.75524 0.41659 0.80604 0.0
H524 H 0.66536 0.42113 0.7081 0.0
H525 H 0.66423 0.46991 0.66862 0.0
H526 H 0.8236 0.50102 0.67542 0.0
H527 H 0.87817 0.60911 0.70821 0.0
H528 H 0.65923 0.5191 0.83132 0.0
H529 H 0.73038 0.52199 0.92862 0.0
C530 C 0.27415 0.82554 0.33281 0.0
C531 C 0.26097 0.84217 0.35315 0.0
C532 C 0.22671 0.8278 0.3369 0.0
C533 C 0.22077 0.80309 0.30797 0.0
N534 N 0.24914 0.80104 0.30489 0.0
Co535 Co 0.25022 0.76614 0.27057 0.0
N536 N 0.2071 0.75495 0.23531 0.0
C537 C 0.18375 0.76289 0.24507 0.0
C538 C 0.15545 0.75043 0.21606 0.0
C539 C 0.161 0.73309 0.18639 0.0
C540 C 0.19259 0.73603 0.19897 0.0
N541 N 0.25137 0.73104 0.23642 0.0
C542 C 0.23475 0.71591 0.1988 0.0
C543 C 0.24502 0.69454 0.18476 0.0
C544 C 0.26782 0.69539 0.21532 0.0
C545 C 0.27062 0.71751 0.24594 0.0
N546 N 0.29333 0.77743 0.30582 0.0
C547 C 0.3081 0.75887 0.30754 0.0
C548 C 0.34095 0.77599 0.32882 0.0
C549 C 0.34713 0.80705 0.34155 0.0
C550 C 0.31702 0.80679 0.32856 0.0
N551 N 0.21972 0.73069 0.30868 0.0
C552 C 0.17272 0.68172 0.362 0.0
C553 C 0.20411 0.71204 0.37782 0.0
C554 C 0.22711 0.73621 0.35073 0.0
C555 C 0.16574 0.67629 0.31909 0.0
C556 C 0.18948 0.70081 0.29325 0.0
N557 N 0.28044 0.80161 0.23251 0.0
C558 C 0.33366 0.83078 0.19638 0.0
C559 C 0.32305 0.85063 0.17616 0.0
C560 C 0.29062 0.84559 0.18543 0.0
C561 C 0.2703 0.82174 0.21437 0.0
C562 C 0.31176 0.80602 0.22325 0.0
H563 H 0.24609 0.81931 0.22156 0.0
H564 H 0.32026 0.79024 0.23615 0.0
H565 H 0.25054 0.75962 0.36391 0.0
H566 H 0.18273 0.69588 0.26068 0.0
C567 C 0.19086 0.78437 0.27988 0.0
C568 C 0.31012 0.83299 0.34159 0.0
C569 C 0.20535 0.71689 0.17847 0.0
C570 C 0.29556 0.7306 0.28005 0.0
H571 H 0.27463 0.86253 0.37719 0.0
H572 H 0.20863 0.83512 0.34456 0.0
H573 H 0.13346 0.75363 0.21632 0.0
H574 H 0.14318 0.71897 0.1593 0.0
H575 H 0.23608 0.6791 0.15599 0.0
H576 H 0.28161 0.68234 0.21467 0.0
H577 H 0.35944 0.76803 0.33187 0.0
H578 H 0.37131 0.82745 0.35822 0.0
H579 H 0.21051 0.71726 0.41088 0.0
H580 H 0.14185 0.65324 0.30554 0.0
H581 H 0.35837 0.83355 0.19029 0.0
H582 H 0.28103 0.86001 0.17043 0.0
C583 C 0.44283 0.27495 0.79036 0.0
C584 C 0.40973 0.26805 0.79803 0.0
C585 C 0.38529 0.23938 0.77407 0.0
C586 C 0.40465 0.23038 0.75305 0.0
N587 N 0.44007 0.25164 0.76201 0.0
Co588 Co 0.47756 0.24784 0.73722 0.0
N589 N 0.44163 0.20707 0.70001 0.0
C590 C 0.40656 0.19412 0.69469 0.0
C591 C 0.38853 0.16718 0.66572 0.0
C592 C 0.41358 0.16251 0.6518 0.0
C593 C 0.44555 0.18675 0.67348 0.0
N594 N 0.51485 0.24252 0.71462 0.0
C595 C 0.51167 0.21687 0.69014 0.0
C596 C 0.54437 0.22136 0.68628 0.0
C597 C 0.56906 0.251 0.70847 0.0
C598 C 0.55013 0.26266 0.72511 0.0
N599 N 0.51373 0.28978 0.77275 0.0
C600 C 0.5493 0.30612 0.77303 0.0
C601 C 0.56771 0.33453 0.79984 0.0
C602 C 0.54241 0.33683 0.8174 0.0
C603 C 0.50982 0.30967 0.80005 0.0
N604 N 0.47397 0.21746 0.78148 0.0
C605 C 0.47034 0.171 0.83842 0.0
C606 C 0.50226 0.20199 0.83429 0.0
C607 C 0.50347 0.22481 0.80591 0.0
C608 C 0.43994 0.16409 0.81503 0.0
C609 C 0.44229 0.18765 0.787 0.0
N610 N 0.48111 0.27831 0.69247 0.0
C611 C 0.51469 0.31974 0.64237 0.0
C612 C 0.48647 0.32334 0.6317 0.0
C613 C 0.45533 0.3035 0.65096 0.0
C614 C 0.45304 0.28101 0.68046 0.0
C615 C 0.51166 0.29759 0.67301 0.0
H616 H 0.42817 0.26635 0.6931 0.0
H617 H 0.53455 0.29687 0.68055 0.0
H618 H 0.5287 0.24786 0.80354 0.0
H619 H 0.41835 0.1809 0.76942 0.0
C620 C 0.39087 0.20521 0.72071 0.0
C621 C 0.47606 0.30454 0.80983 0.0
C622 C 0.47847 0.1882 0.6693 0.0
C623 C 0.56454 0.29224 0.75091 0.0
H624 H 0.40381 0.28265 0.81815 0.0
H625 H 0.35685 0.22735 0.77107 0.0
H626 H 0.36033 0.15196 0.6568 0.0
H627 H 0.40871 0.14289 0.62906 0.0
H628 H 0.54994 0.20495 0.66927 0.0
H629 H 0.59738 0.26244 0.71247 0.0
H630 H 0.59614 0.3512 0.80645 0.0
H631 H 0.54745 0.35636 0.84038 0.0
H632 H 0.52632 0.20811 0.85213 0.0
H633 H 0.41473 0.14024 0.81761 0.0
H634 H 0.53928 0.33466 0.62789 0.0
H635 H 0.43277 0.30541 0.64329 0.0
C636 C 0.0829 0.4622 0.10534 0.0
C637 C 0.09228 0.48929 0.07846 0.0
C638 C 0.15447 0.50731 0.09207 0.0
C639 C 0.14575 0.48489 0.12497 0.0
N640 N 0.10048 0.44615 0.16842 0.0
N641 N 0.13964 0.54304 0.05476 0.0
C642 C 0.10957 0.46385 0.13332 0.0
C643 C 0.12891 0.51359 0.07451 0.0
N644 N 0.04889 0.43432 0.10345 0.0
N645 N 0.18673 0.52194 0.07661 0.0
H646 H 0.122 0.54924 0.04259 0.0
H647 H 0.16628 0.56266 0.05428 0.0
H648 H 0.20546 0.51661 0.08724 0.0
H649 H 0.19312 0.53638 0.05052 0.0
H650 H 0.04156 0.41277 0.12024 0.0
H651 H 0.02904 0.43141 0.08208 0.0
H652 H 0.07464 0.43268 0.17721 0.0
H653 H 0.11922 0.44789 0.19063 0.0
C654 C 0.6133 0.09388 0.62603 0.0
C655 C 0.61886 0.08177 0.58882 0.0
C656 C 0.68264 0.12455 0.60111 0.0
C657 C 0.67709 0.13475 0.63964 0.0
N658 N 0.63848 0.1217 0.69401 0.0
N659 N 0.65982 0.07925 0.54726 0.0
C660 C 0.64281 0.11684 0.65386 0.0
C661 C 0.65395 0.09496 0.57852 0.0
N662 N 0.58012 0.08498 0.63398 0.0
N663 N 0.71473 0.14383 0.58523 0.0
H664 H 0.6393 0.05735 0.53036 0.0
H665 H 0.6851 0.0861 0.5408 0.0
H666 H 0.73625 0.16588 0.60074 0.0
H667 H 0.71902 0.13942 0.55533 0.0
H668 H 0.57526 0.09599 0.6586 0.0
H669 H 0.55792 0.06921 0.61372 0.0
H670 H 0.61432 0.10711 0.70689 0.0
H671 H 0.65986 0.13765 0.71546 0.0
C672 C 0.5645 0.66684 0.11476 0.0
C673 C 0.54531 0.63225 0.12659 0.0
C674 C 0.5359 0.65218 0.19225 0.0
C675 C 0.5499 0.68531 0.17722 0.0
N676 N 0.57278 0.72279 0.12097 0.0
N677 N 0.50748 0.59157 0.17504 0.0
C678 C 0.56286 0.69225 0.13752 0.0
C679 C 0.52975 0.62479 0.16509 0.0
N680 N 0.5856 0.67582 0.08281 0.0
N681 N 0.52876 0.6469 0.23269 0.0
H682 H 0.50122 0.57048 0.1561 0.0
H683 H 0.49238 0.58482 0.20034 0.0
H684 H 0.53301 0.66636 0.25343 0.0
H685 H 0.52192 0.62423 0.24655 0.0
H686 H 0.60265 0.70116 0.07531 0.0
H687 H 0.5891 0.65843 0.06685 0.0
H688 H 0.57885 0.72776 0.09042 0.0
H689 H 0.57203 0.74205 0.13666 0.0
C690 C 0.90058 0.55946 0.59316 0.0
C691 C 0.93193 0.56332 0.61178 0.0
C692 C 0.91466 0.56686 0.68058 0.0
C693 C 0.88293 0.56239 0.66209 0.0
N694 N 0.84923 0.56244 0.60154 0.0
N695 N 0.97344 0.57944 0.67128 0.0
C696 C 0.87714 0.56144 0.61851 0.0
C697 C 0.94057 0.57023 0.65495 0.0
N698 N 0.89242 0.55211 0.55153 0.0
N699 N 0.91902 0.56573 0.72243 0.0
H700 H 0.99274 0.58185 0.65295 0.0
H701 H 0.9827 0.58773 0.70207 0.0
H702 H 0.9005 0.56306 0.74215 0.0
H703 H 0.93961 0.56491 0.73743 0.0
H704 H 0.86798 0.5447 0.53659 0.0
H705 H 0.90976 0.55192 0.53201 0.0
H706 H 0.84525 0.56492 0.57021 0.0
H707 H 0.83151 0.56362 0.61942 0.0
C708 C 0.38443 0.88629 0.08873 0.0
C709 C 0.39346 0.92088 0.08725 0.0
C710 C 0.35654 0.91 0.14533 0.0
C711 C 0.34516 0.87478 0.14394 0.0
N712 N 0.3392 0.82809 0.10283 0.0
N713 N 0.37819 0.96113 0.10674 0.0
C714 C 0.35632 0.86256 0.1121 0.0
C715 C 0.37613 0.93117 0.11304 0.0
N716 N 0.40304 0.87573 0.06923 0.0
N717 N 0.35066 0.92401 0.17845 0.0
H718 H 0.39173 0.97691 0.0831 0.0
H719 H 0.36364 0.96841 0.12239 0.0
H720 H 0.33847 0.91019 0.20388 0.0
H721 H 0.36135 0.95025 0.18257 0.0
H722 H 0.39984 0.8521 0.0739 0.0
H723 H 0.42339 0.89109 0.05103 0.0
H724 H 0.3443 0.81804 0.0774 0.0
H725 H 0.31704 0.80988 0.11732 0.0
C726 C 0.51644 0.40747 0.58089 0.0
C727 C 0.48927 0.39612 0.5485 0.0
C728 C 0.46598 0.33654 0.56474 0.0
C729 C 0.48939 0.34837 0.60137 0.0
N730 N 0.53334 0.39606 0.64771 0.0
N731 N 0.4361 0.34994 0.51102 0.0
C732 C 0.51396 0.38411 0.61024 0.0
C733 C 0.46351 0.3606 0.54061 0.0
N734 N 0.54484 0.4406 0.5834 0.0
N735 N 0.44675 0.30244 0.55256 0.0
H736 H 0.43402 0.36685 0.49215 0.0
H737 H 0.4143 0.3247 0.50708 0.0
H738 H 0.44863 0.28428 0.56896 0.0
H739 H 0.43169 0.29272 0.52426 0.0
H740 H 0.56739 0.44927 0.6035 0.0
H741 H 0.5473 0.45817 0.56212 0.0
H742 H 0.54882 0.42204 0.65715 0.0
H743 H 0.53139 0.38008 0.67104 0.0
C744 C 0.54992 0.88813 0.42719 0.0
C745 C 0.53549 0.90549 0.40732 0.0
C746 C 0.53375 0.87864 0.34055 0.0
C747 C 0.54347 0.85787 0.3612 0.0
N748 N 0.5548 0.83874 0.42547 0.0
N749 N 0.50664 0.91121 0.34554 0.0
C750 C 0.54984 0.86145 0.40494 0.0
C751 C 0.5256 0.89921 0.36403 0.0
N752 N 0.565 0.89796 0.46688 0.0
N753 N 0.53258 0.87898 0.29843 0.0
H754 H 0.49859 0.92493 0.36175 0.0
H755 H 0.49571 0.90446 0.31501 0.0
H756 H 0.53847 0.86435 0.28028 0.0
H757 H 0.52909 0.89613 0.28192 0.0
H758 H 0.57896 0.88849 0.4815 0.0
H759 H 0.56681 0.91817 0.48371 0.0
H760 H 0.55579 0.83786 0.45753 0.0
H761 H 0.55487 0.81887 0.41036 0.0
C762 C 0.65243 0.55462 0.95535 0.0
C763 C 0.61811 0.52452 0.95665 0.0
C764 C 0.6369 0.49112 0.92046 0.0
C765 C 0.6693 0.52198 0.91405 0.0
N766 N 0.70763 0.58363 0.92258 0.0
N767 N 0.57645 0.46437 0.93836 0.0
C768 C 0.67719 0.55389 0.9311 0.0
C769 C 0.61011 0.49272 0.93895 0.0
N770 N 0.66142 0.58374 0.97774 0.0
N771 N 0.63189 0.46033 0.90877 0.0
H772 H 0.55613 0.46499 0.95067 0.0
H773 H 0.56786 0.44099 0.92308 0.0
H774 H 0.65107 0.45849 0.89496 0.0
H775 H 0.6103 0.43666 0.91585 0.0
H776 H 0.68706 0.60554 0.98151 0.0
H777 H 0.64372 0.58518 0.99538 0.0
H778 H 0.7129 0.60795 0.92974 0.0
H779 H 0.72686 0.58404 0.90601 0.0
C780 C 0.12216 0.60093 0.42386 0.0
C781 C 0.09514 0.60425 0.43859 0.0
C782 C 0.12198 0.66077 0.40781 0.0
C783 C 0.14683 0.65569 0.38984 0.0
N784 N 0.16866 0.61955 0.37747 0.0
N785 N 0.06993 0.63794 0.4467 0.0
C786 C 0.14637 0.62539 0.39705 0.0
C787 C 0.09533 0.63447 0.4312 0.0
N788 N 0.12558 0.57498 0.43682 0.0
N789 N 0.12419 0.69102 0.40275 0.0
H790 H 0.05193 0.62067 0.46645 0.0
H791 H 0.0656 0.65709 0.43923 0.0
H792 H 0.14226 0.71006 0.38459 0.0
H793 H 0.10948 0.69831 0.4178 0.0
H794 H 0.1471 0.57331 0.43154 0.0
H795 H 0.10799 0.55616 0.45545 0.0
H796 H 0.16651 0.5961 0.37678 0.0
H797 H 0.18806 0.63751 0.35951 0.0
C798 C 0.45267 0.11288 0.92797 0.0
C799 C 0.46887 0.09561 0.91554 0.0
C800 C 0.48245 0.12521 0.85075 0.0
C801 C 0.46936 0.14483 0.86499 0.0
N802 N 0.44648 0.16114 0.91919 0.0
N803 N 0.50475 0.08966 0.86837 0.0
C804 C 0.45571 0.13974 0.90423 0.0
C805 C 0.48531 0.10296 0.8778 0.0
N806 N 0.43326 0.10272 0.96155 0.0
N807 N 0.49114 0.12705 0.81087 0.0
H808 H 0.50758 0.0731 0.88704 0.0
H809 H 0.52079 0.09744 0.8439 0.0
H810 H 0.48954 0.14313 0.79003 0.0
H811 H 0.49694 0.11048 0.79729 0.0
H812 H 0.41774 0.11182 0.96964 0.0
H813 H 0.43018 0.08294 0.97942 0.0
H814 H 0.44003 0.1612 0.94937 0.0
H815 H 0.44794 0.18078 0.90239 0.0
C816 C 0.35907 0.49207 0.38651 0.0
C817 C 0.37253 0.47165 0.37632 0.0
C818 C 0.33596 0.45405 0.3099 0.0
C819 C 0.31934 0.47086 0.32265 0.0
N820 N 0.30925 0.49838 0.37841 0.0
N821 N 0.3655 0.42573 0.33223 0.0
C822 C 0.32888 0.48725 0.36282 0.0
C823 C 0.35853 0.45039 0.33912 0.0
N824 N 0.37634 0.51776 0.41691 0.0
N825 N 0.33125 0.44251 0.26965 0.0
H826 H 0.38006 0.42078 0.35388 0.0
H827 H 0.35344 0.40772 0.30723 0.0
H828 H 0.31573 0.44545 0.24706 0.0
H829 H 0.3455 0.43304 0.25806 0.0
H830 H 0.3692 0.53518 0.42276 0.0
H831 H 0.40022 0.52435 0.43278 0.0
H832 H 0.3134 0.50789 0.40891 0.0
H833 H 0.28672 0.49491 0.36213 0.0
C834 C 0.87359 0.38133 0.87225 0.0
C835 C 0.88027 0.3739 0.91277 0.0
C836 C 0.83148 0.3139 0.89855 0.0
C837 C 0.82969 0.32027 0.85614 0.0
N838 N 0.85238 0.35957 0.80137 0.0
N839 N 0.86783 0.33213 0.96361 0.0
C840 C 0.8515 0.35393 0.84261 0.0
C841 C 0.85955 0.33996 0.92598 0.0
N842 N 0.88801 0.41463 0.86232 0.0
N843 N 0.80645 0.28294 0.91246 0.0
H844 H 0.88849 0.35037 0.98437 0.0
H845 H 0.85605 0.30709 0.97284 0.0
H846 H 0.78564 0.26333 0.893 0.0
H847 H 0.80452 0.27792 0.94366 0.0
H848 H 0.8814 0.42139 0.83438 0.0
H849 H 0.90365 0.43539 0.88368 0.0
H850 H 0.87067 0.38304 0.78976 0.0
H851 H 0.83699 0.34011 0.77845 0.0
C852 C 0.88584 0.50382 0.91638 0.0
C853 C 0.92195 0.52982 0.91269 0.0
C854 C 0.90215 0.55594 0.86161 0.0
C855 C 0.86619 0.53221 0.86933 0.0
N856 N 0.82703 0.49256 0.91731 0.0
N857 N 0.96337 0.58643 0.89016 0.0
C858 C 0.85899 0.50892 0.90087 0.0
C859 C 0.92985 0.5577 0.88777 0.0
N860 N 0.87692 0.47402 0.93421 0.0
N861 N 0.91006 0.57651 0.82908 0.0
H862 H 0.98394 0.58919 0.91009 0.0
H863 H 0.96971 0.60863 0.8754 0.0
H864 H 0.89067 0.57593 0.80915 0.0
H865 H 0.93567 0.59187 0.81995 0.0
H866 H 0.8507 0.4534 0.93466 0.0
H867 H 0.89573 0.46872 0.94452 0.0
H868 H 0.82172 0.4773 0.94254 0.0
H869 H 0.80748 0.49731 0.90859 0.0
C870 C 0.37063 0.92394 0.39257 0.0
C871 C 0.39232 0.91902 0.42142 0.0
C872 C 0.35104 0.8573 0.40743 0.0
C873 C 0.33647 0.86286 0.37082 0.0
N874 N 0.33688 0.90426 0.32599 0.0
N875 N 0.40589 0.87872 0.44859 0.0
C876 C 0.34746 0.89706 0.36255 0.0
C877 C 0.38333 0.88497 0.42676 0.0
N878 N 0.37129 0.95358 0.39438 0.0
N879 N 0.3342 0.82592 0.42393 0.0
H880 H 0.43116 0.89827 0.46052 0.0
H881 H 0.40075 0.85405 0.45055 0.0
H882 H 0.30942 0.80551 0.41156 0.0
H883 H 0.34335 0.8217 0.45207 0.0
H884 H 0.35398 0.95704 0.37556 0.0
H885 H 0.38665 0.97301 0.41739 0.0
H886 H 0.34665 0.92935 0.3179 0.0
H887 H 0.32114 0.88551 0.30245 0.0
C888 C 0.45827 0.34519 0.90105 0.0
C889 C 0.47756 0.3805 0.89207 0.0
C890 C 0.49015 0.36457 0.82584 0.0
C891 C 0.47576 0.33053 0.83799 0.0
N892 N 0.45232 0.29046 0.89173 0.0
N893 N 0.51942 0.42415 0.84906 0.0
C894 C 0.46175 0.32147 0.87705 0.0
C895 C 0.49555 0.39033 0.85524 0.0
N896 N 0.4352 0.33381 0.93112 0.0
N897 N 0.49835 0.37235 0.78606 0.0
H898 H 0.52603 0.44401 0.87049 0.0
H899 H 0.53566 0.43219 0.82474 0.0
H900 H 0.49433 0.35413 0.76351 0.0
H901 H 0.5058 0.39602 0.77463 0.0
H902 H 0.41826 0.30788 0.93632 0.0
H903 H 0.43001 0.34978 0.94751 0.0
H904 H 0.44519 0.28398 0.92172 0.0
H905 H 0.45477 0.27257 0.87529 0.0
C906 C 0.10073 0.49536 0.37084 0.0
C907 C 0.09264 0.47494 0.40581 0.0
C908 C 0.13332 0.45847 0.38662 0.0
C909 C 0.13896 0.47646 0.34999 0.0
N910 N 0.12287 0.50647 0.30305 0.0
N911 N 0.09567 0.43168 0.44236 0.0
C912 C 0.12118 0.49333 0.3409 0.0
C913 C 0.10742 0.45498 0.41244 0.0
N914 N 0.09002 0.51767 0.36686 0.0
N915 N 0.15342 0.44551 0.39733 0.0
H916 H 0.07613 0.42783 0.46124 0.0
H917 H 0.10274 0.41391 0.44587 0.0
H918 H 0.17264 0.44755 0.37918 0.0
H919 H 0.15323 0.43539 0.4258 0.0
H920 H 0.09888 0.53611 0.34487 0.0
H921 H 0.07486 0.5201 0.38773 0.0
H922 H 0.10723 0.51555 0.29287 0.0
H923 H 0.13757 0.50553 0.28021 0.0
C924 C 0.61301 0.06779 0.89098 0.0
C925 C 0.5917 0.07599 0.91207 0.0
C926 C 0.62615 0.13427 0.88644 0.0
C927 C 0.6432 0.12403 0.86007 0.0
N928 N 0.64611 0.07753 0.83141 0.0
N929 N 0.57594 0.11678 0.92637 0.0
C930 C 0.63475 0.08978 0.86074 0.0
C931 C 0.59765 0.10917 0.90865 0.0
N932 N 0.6135 0.03958 0.90073 0.0
N933 N 0.63833 0.16823 0.89211 0.0
H934 H 0.55538 0.09949 0.94355 0.0
H935 H 0.57641 0.13905 0.92106 0.0
H936 H 0.66014 0.18757 0.87819 0.0
H937 H 0.62929 0.17757 0.914 0.0
H938 H 0.63105 0.03426 0.88901 0.0
H939 H 0.59901 0.02356 0.92373 0.0
H940 H 0.63786 0.05182 0.82834 0.0
H941 H 0.66048 0.09203 0.8074 0.0
C942 C 0.50372 0.60222 0.40642 0.0
C943 C 0.52682 0.61046 0.44253 0.0
C944 C 0.54926 0.67125 0.43644 0.0
C945 C 0.53049 0.66337 0.39676 0.0
N946 N 0.4955 0.6211 0.34034 0.0
N947 N 0.57512 0.65325 0.4895 0.0
C948 C 0.50908 0.62873 0.38072 0.0
C949 C 0.55065 0.64515 0.45694 0.0
N950 N 0.47631 0.56909 0.39702 0.0
N951 N 0.56476 0.7033 0.4551 0.0
H952 H 0.59559 0.67838 0.49848 0.0
H953 H 0.57658 0.63471 0.50554 0.0
H954 H 0.56311 0.72269 0.44168 0.0
H955 H 0.57602 0.70951 0.48551 0.0
H956 H 0.45677 0.56205 0.37293 0.0
H957 H 0.47097 0.54939 0.41633 0.0
H958 H 0.48269 0.59644 0.3264 0.0
H959 H 0.50023 0.63973 0.31953 0.0
C960 C 0.45705 0.10041 0.62811 0.0
C961 C 0.48 0.1098 0.59577 0.0
C962 C 0.49636 0.16937 0.60678 0.0
C963 C 0.47825 0.16087 0.64327 0.0
N964 N 0.44667 0.11855 0.69284 0.0
N965 N 0.52817 0.15594 0.56159 0.0
C966 C 0.46016 0.12643 0.6552 0.0
C967 C 0.50142 0.14505 0.5869 0.0
N968 N 0.43123 0.06675 0.63204 0.0
N969 N 0.50858 0.20057 0.59083 0.0
H970 H 0.53464 0.13966 0.54864 0.0
H971 H 0.54649 0.18182 0.55737 0.0
H972 H 0.50497 0.21883 0.60423 0.0
H973 H 0.51913 0.20682 0.56227 0.0
H974 H 0.41194 0.05889 0.65286 0.0
H975 H 0.42659 0.04712 0.61135 0.0
H976 H 0.43632 0.09444 0.70464 0.0
H977 H 0.44891 0.1369 0.71387 0.0
C978 C 0.40732 0.51019 0.09232 0.0
C979 C 0.39803 0.48396 0.06176 0.0
C980 C 0.33515 0.4613 0.06725 0.0
C981 C 0.34445 0.4846 0.10177 0.0
N982 N 0.38993 0.52704 0.15209 0.0
N983 N 0.35306 0.43169 0.02349 0.0
C984 C 0.38071 0.5081 0.11554 0.0
C985 C 0.36187 0.45863 0.05019 0.0
N986 N 0.44153 0.53757 0.09869 0.0
N987 N 0.30099 0.44256 0.0499 0.0
H988 H 0.37197 0.42925 0.00998 0.0
H989 H 0.32723 0.4105 0.0173 0.0
H990 H 0.28098 0.44466 0.06076 0.0
H991 H 0.29326 0.42759 0.02239 0.0
H992 H 0.44865 0.5597 0.11612 0.0
H993 H 0.46205 0.53949 0.08338 0.0
H994 H 0.41592 0.54183 0.16549 0.0
H995 H 0.37146 0.52547 0.17111 0.0
C996 C 0.91229 0.36201 0.57586 0.0
C997 C 0.92834 0.39671 0.5909 0.0
C998 C 0.89571 0.37509 0.65343 0.0
C999 C 0.87566 0.34117 0.63521 0.0
N1000 N 0.86192 0.30306 0.57585 0.0
N1001 N 0.93099 0.43574 0.64365 0.0
C1002 C 0.88328 0.33478 0.59559 0.0
C1003 C 0.91886 0.40308 0.6296 0.0
N1004 N 0.9252 0.35495 0.54306 0.0
N1005 N 0.89386 0.38059 0.69438 0.0
H1006 H 0.94993 0.45749 0.62999 0.0
H1007 H 0.92059 0.44122 0.66801 0.0
H1008 H 0.87816 0.3608 0.71329 0.0
H1009 H 0.91075 0.40416 0.71065 0.0
H1010 H 0.94648 0.37405 0.52818 0.0
H1011 H 0.91701 0.33012 0.53316 0.0
H1012 H 0.86377 0.29783 0.54519 0.0
H1013 H 0.84028 0.2827 0.58887 0.0
C1014 C 0.57363 0.92722 0.11893 0.0
C1015 C 0.55912 0.91473 0.07781 0.0
C1016 C 0.55566 0.86131 0.09082 0.0
C1017 C 0.56367 0.87128 0.13361 0.0
N1018 N 0.57821 0.91291 0.18943 0.0
N1019 N 0.53635 0.87042 0.02351 0.0
C1020 C 0.57279 0.90431 0.14796 0.0
C1021 C 0.55073 0.88211 0.06318 0.0
N1022 N 0.58744 0.96087 0.13018 0.0
N1023 N 0.55287 0.83205 0.07681 0.0
H1024 H 0.53387 0.88574 1.00219 0.0
H1025 H 0.5255 0.84528 0.01229 0.0
H1026 H 0.55641 0.81638 0.09645 0.0
H1027 H 0.55011 0.82487 0.04562 0.0
H1028 H 0.60122 0.97246 0.15873 0.0
H1029 H 0.58806 0.97803 0.1093 0.0
H1030 H 0.58081 0.93498 0.20184 0.0
H1031 H 0.57741 0.89676 0.21191 0.0
C1032 C 0.65841 0.52047 0.60331 0.0
C1033 C 0.63094 0.5238 0.61674 0.0
C1034 C 0.65917 0.5354 0.68772 0.0
C1035 C 0.68959 0.53836 0.67281 0.0
N1036 N 0.71928 0.53677 0.61476 0.0
N1037 N 0.59594 0.50643 0.67535 0.0
C1038 C 0.68964 0.53223 0.63 0.0
C1039 C 0.62845 0.52371 0.66019 0.0
N1040 N 0.65175 0.49957 0.56941 0.0
N1041 N 0.65914 0.54353 0.72819 0.0
H1042 H 0.57266 0.49107 0.6562 0.0
H1043 H 0.59244 0.50263 0.70667 0.0
H1044 H 0.68097 0.55275 0.74951 0.0
H1045 H 0.63862 0.54463 0.73933 0.0
H1046 H 0.66975 0.49386 0.56019 0.0
H1047 H 0.62614 0.48332 0.55528 0.0
H1048 H 0.72151 0.53528 0.58317 0.0
H1049 H 0.74253 0.54508 0.63348 0.0
C1050 C 0.14111 0.63238 0.11559 0.0
C1051 C 0.13405 0.64474 0.07914 0.0
C1052 C 0.18008 0.70369 0.1039 0.0
C1053 C 0.18264 0.69161 0.14311 0.0
N1054 N 0.16129 0.64388 0.18774 0.0
N1055 N 0.14507 0.69198 0.03847 0.0
C1056 C 0.16221 0.65578 0.1493 0.0
C1057 C 0.15333 0.68038 0.07296 0.0
N1058 N 0.12757 0.59809 0.11798 0.0
N1059 N 0.20331 0.73734 0.09634 0.0
H1060 H 0.12619 0.67544 0.01495 0.0
H1061 H 0.15531 0.71782 0.03433 0.0
H1062 H 0.22305 0.75498 0.11846 0.0
H1063 H 0.20492 0.7471 0.06731 0.0
H1064 H 0.13513 0.5881 0.14195 0.0
H1065 H 0.11141 0.57995 0.09406 0.0
H1066 H 0.14313 0.61863 0.19469 0.0
H1067 H 0.17678 0.65947 0.21354 0.0
loop_
_geom_bond_atom_site_label_1
_geom_bond_atom_site_label_2
_geom_bond_distance
_geom_bond_site_symmetry_2
_ccdc_geom_bond_type
C0 C1 1.443 . S
C0 N4 1.376 1_556 S
C0 C38 1.389 . S
C1 C0 1.443 . S
C1 C2 1.340 1_556 S
C1 H41 0.951 . S
C2 C1 1.340 1_554 S
C2 C3 1.439 . S
C2 H42 0.950 . S
C3 C2 1.439 . S
C3 N4 1.374 . S
C3 C37 1.395 . S
N4 C0 1.376 1_554 S
N4 C3 1.374 . S
N4 Co5 1.987 1_655 S
Co5 N4 1.987 1_455 S
Co5 N6 2.005 1_455 S
Co5 N11 2.029 1_554 S
Co5 N16 1.985 1_554 S
Co5 N21 2.288 . S
Co5 N27 2.277 1_454 S
N6 Co5 2.005 1_655 S
N6 C7 1.376 . S
N6 C10 1.383 1_655 S
C7 N6 1.376 . S
C7 C8 1.446 . S
C7 C37 1.391 . S
C8 C7 1.446 . S
C8 C9 1.339 1_655 S
C8 H43 0.949 . S
C9 C8 1.339 1_455 S
C9 C10 1.439 . S
C9 H44 0.950 . S
C10 N6 1.383 1_455 S
C10 C9 1.439 . S
C10 C39 1.392 . S
N11 Co5 2.029 1_556 S
N11 C12 1.376 1_556 S
N11 C15 1.374 . S
C12 N11 1.376 1_554 S
C12 C13 1.443 . S
C12 C39 1.389 . S
C13 C12 1.443 . S
C13 C14 1.340 1_554 S
C13 H45 0.951 . S
C14 C13 1.340 1_556 S
C14 C15 1.439 . S
C14 H46 0.950 . S
C15 N11 1.374 . S
C15 C14 1.439 . S
C15 C40 1.395 . S
N16 Co5 1.985 1_556 S
N16 C17 1.376 . S
N16 C20 1.383 1_455 S
C17 N16 1.376 . S
C17 C18 1.446 . S
C17 C40 1.391 . S
C18 C17 1.446 . S
C18 C19 1.339 1_455 S
C18 H47 0.949 . S
C19 C18 1.339 1_655 S
C19 C20 1.439 . S
C19 H48 0.950 . S
C20 N16 1.383 1_655 S
C20 C19 1.439 . S
C20 C38 1.392 . S
N21 Co5 2.288 . S
N21 C24 1.332 . S
N21 C26 1.332 . S
C22 C23 1.386 . S
C22 C25 1.388 . S
C23 C22 1.386 . S
C23 C24 1.382 . S
C23 H49 0.950 . S
C24 N21 1.332 . S
C24 C23 1.382 . S
C24 H35 0.952 . S
C25 C22 1.388 . S
C25 C26 1.382 . S
C25 H50 0.950 . S
C26 N21 1.332 . S
C26 C25 1.382 . S
C26 H36 0.948 . S
N27 Co5 2.277 1_656 S
N27 C31 1.332 . S
N27 C32 1.332 . S
C28 C29 1.388 . S
C28 C32 1.382 . S
C28 H51 0.950 . S
C29 C28 1.388 . S
C29 C30 1.386 . S
C30 C29 1.386 . S
C30 C31 1.382 . S
C30 H52 0.950 . S
C31 N27 1.332 . S
C31 C30 1.382 . S
C31 H33 0.961 . S
C32 N27 1.332 . S
C32 C28 1.382 . S
C32 H34 0.948 . S
H33 C31 0.961 . S
H34 C32 0.948 . S
H35 C24 0.952 . S
H36 C26 0.948 . S
C37 C3 1.395 . S
C37 C7 1.391 . S
C38 C0 1.389 . S
C38 C20 1.392 . S
C39 C10 1.392 . S
C39 C12 1.389 . S
C40 C15 1.395 . S
C40 C17 1.391 . S
H41 C1 0.951 . S
H42 C2 0.950 . S
H43 C8 0.949 . S
H44 C9 0.950 . S
H45 C13 0.951 . S
H46 C14 0.950 . S
H47 C18 0.949 . S
H48 C19 0.950 . S
H49 C23 0.950 . S
H50 C25 0.950 . S
H51 C28 0.950 . S
H52 C30 0.950 . S
C53 C54 1.443 . S
C53 N57 1.383 . S
C53 C91 1.389 . S
C54 C53 1.443 . S
C54 C55 1.340 1_545 S
C54 H94 0.951 . S
C55 C54 1.340 1_565 S
C55 C56 1.439 . S
C55 H95 0.950 . S
C56 C55 1.439 . S
C56 N57 1.364 1_565 S
C56 C90 1.395 . S
N57 C53 1.383 . S
N57 C56 1.364 1_545 S
N57 Co58 2.013 . S
Co58 N57 2.013 . S
Co58 N59 1.995 1_545 S
Co58 N64 2.008 . S
Co58 N69 1.995 . S
Co58 N74 2.282 1_545 S
Co58 N80 2.282 . S
N59 Co58 1.995 1_565 S
N59 C60 1.376 . S
N59 C63 1.383 . S
C60 N59 1.376 . S
C60 C61 1.446 . S
C60 C90 1.391 . S
C61 C60 1.446 . S
C61 C62 1.339 . S
C61 H96 0.949 . S
C62 C61 1.339 . S
C62 C63 1.439 . S
C62 H97 0.950 . S
C63 N59 1.383 . S
C63 C62 1.439 . S
C63 C92 1.392 . S
N64 Co58 2.008 . S
N64 C65 1.376 1_545 S
N64 C68 1.374 . S
C65 N64 1.376 1_565 S
C65 C66 1.443 . S
C65 C92 1.389 . S
C66 C65 1.443 . S
C66 C67 1.340 1_565 S
C66 H98 0.951 . S
C67 C66 1.340 1_545 S
C67 C68 1.439 . S
C67 H99 0.950 . S
C68 N64 1.374 . S
C68 C67 1.439 . S
C68 C93 1.395 . S
N69 Co58 1.995 . S
N69 C70 1.376 . S
N69 C73 1.383 . S
C70 N69 1.376 . S
C70 C71 1.446 . S
C70 C93 1.391 . S
C71 C70 1.446 . S
C71 C72 1.339 . S
C71 H100 0.949 . S
C72 C71 1.339 . S
C72 C73 1.439 . S
C72 H101 0.950 . S
C73 N69 1.383 . S
C73 C72 1.439 . S
C73 C91 1.392 . S
N74 Co58 2.282 1_565 S
N74 C77 1.332 . S
N74 C79 1.332 . S
C75 C76 1.386 . S
C75 C78 1.388 . S
C76 C75 1.386 . S
C76 C77 1.382 . S
C76 H102 0.950 . S
C77 N74 1.332 . S
C77 C76 1.382 . S
C77 H88 0.952 1_565 S
C78 C75 1.388 . S
C78 C79 1.382 . S
C78 H103 0.950 . S
C79 N74 1.332 . S
C79 C78 1.382 . S
C79 H89 0.948 . S
N80 Co58 2.282 . S
N80 C84 1.332 . S
N80 C85 1.332 . S
C81 C82 1.388 . S
C81 C85 1.382 . S
C81 H104 0.950 . S
C82 C81 1.388 . S
C82 C83 1.386 . S
C83 C82 1.386 . S
C83 C84 1.382 . S
C83 H105 0.950 . S
C84 N80 1.332 . S
C84 C83 1.382 . S
C84 H86 0.952 1_545 S
C85 N80 1.332 . S
C85 C81 1.382 . S
C85 H87 0.948 . S
H86 C84 0.952 1_565 S
H87 C85 0.948 . S
H88 C77 0.952 1_545 S
H89 C79 0.948 . S
C90 C56 1.395 . S
C90 C60 1.391 . S
C91 C53 1.389 . S
C91 C73 1.392 . S
C92 C63 1.392 . S
C92 C65 1.389 . S
C93 C68 1.395 . S
C93 C70 1.391 . S
H94 C54 0.951 . S
H95 C55 0.950 . S
H96 C61 0.949 . S
H97 C62 0.950 . S
H98 C66 0.951 . S
H99 C67 0.950 . S
H100 C71 0.949 . S
H101 C72 0.950 . S
H102 C76 0.950 . S
H103 C78 0.950 . S
H104 C81 0.950 . S
H105 C83 0.950 . S
C106 C107 1.443 . S
C106 N110 1.376 . S
C106 C144 1.389 . S
C107 C106 1.443 . S
C107 C108 1.340 . S
C107 H147 0.951 . S
C108 C107 1.340 . S
C108 C109 1.439 . S
C108 H148 0.950 . S
C109 C108 1.439 . S
C109 N110 1.374 . S
C109 C143 1.395 . S
N110 C106 1.376 . S
N110 C109 1.374 . S
N110 Co111 2.002 1_556 S
Co111 N110 2.002 1_554 S
Co111 N112 1.993 1_554 S
Co111 N117 2.015 . S
Co111 N122 1.996 . S
Co111 N127 2.286 . S
Co111 N133 2.279 1_554 S
N112 Co111 1.993 1_556 S
N112 C113 1.376 . S
N112 C116 1.383 1_556 S
C113 N112 1.376 . S
C113 C114 1.446 . S
C113 C143 1.391 . S
C114 C113 1.446 . S
C114 C115 1.339 . S
C114 H149 0.949 . S
C115 C114 1.339 . S
C115 C116 1.439 1_556 S
C115 H150 0.950 1_556 S
C116 N112 1.383 1_554 S
C116 C115 1.439 1_554 S
C116 C145 1.392 . S
N117 Co111 2.015 . S
N117 C118 1.376 . S
N117 C121 1.374 . S
C118 N117 1.376 . S
C118 C119 1.443 . S
C118 C145 1.389 . S
C119 C118 1.443 . S
C119 C120 1.340 . S
C119 H151 0.951 . S
C120 C119 1.340 . S
C120 C121 1.439 . S
C120 H152 0.950 . S
C121 N117 1.374 . S
C121 C120 1.439 . S
C121 C146 1.395 . S
N122 Co111 1.996 . S
N122 C123 1.376 . S
N122 C126 1.383 1_554 S
C123 N122 1.376 . S
C123 C124 1.446 . S
C123 C146 1.391 . S
C124 C123 1.446 . S
C124 C125 1.339 . S
C124 H153 0.949 . S
C125 C124 1.339 . S
C125 C126 1.439 1_554 S
C125 H154 0.950 1_554 S
C126 N122 1.383 1_556 S
C126 C125 1.439 1_556 S
C126 C144 1.392 . S
N127 Co111 2.286 . S
N127 C130 1.332 . S
N127 C132 1.332 . S
C128 C129 1.386 . S
C128 C131 1.388 . S
C129 C128 1.386 . S
C129 C130 1.382 . S
C129 H155 0.950 . S
C130 N127 1.332 . S
C130 C129 1.382 . S
C130 H141 0.952 . S
C131 C128 1.388 . S
C131 C132 1.382 . S
C131 H156 0.950 . S
C132 N127 1.332 . S
C132 C131 1.382 . S
C132 H142 0.948 . S
N133 Co111 2.279 1_556 S
N133 C137 1.332 . S
N133 C138 1.332 . S
C134 C135 1.388 . S
C134 C138 1.382 . S
C134 H157 0.950 . S
C135 C134 1.388 . S
C135 C136 1.386 . S
C136 C135 1.386 . S
C136 C137 1.382 . S
C136 H158 0.950 . S
C137 N133 1.332 . S
C137 C136 1.382 . S
C137 H139 0.952 . S
C138 N133 1.332 . S
C138 C134 1.382 . S
C138 H140 0.948 . S
H139 C137 0.952 . S
H140 C138 0.948 . S
H141 C130 0.952 . S
H142 C132 0.948 . S
C143 C109 1.395 . S
C143 C113 1.391 . S
C144 C106 1.389 . S
C144 C126 1.392 . S
C145 C116 1.392 . S
C145 C118 1.389 . S
C146 C121 1.395 . S
C146 C123 1.391 . S
H147 C107 0.951 . S
H148 C108 0.950 . S
H149 C114 0.949 . S
H150 C115 0.950 1_554 S
H151 C119 0.951 . S
H152 C120 0.950 . S
H153 C124 0.949 . S
H154 C125 0.950 1_556 S
H155 C129 0.950 . S
H156 C131 0.950 . S
H157 C134 0.950 . S
H158 C136 0.950 . S
C159 C160 1.443 . S
C159 N163 1.376 . S
C159 C197 1.389 . S
C160 C159 1.443 . S
C160 C161 1.340 . S
C160 H200 0.951 . S
C161 C160 1.340 . S
C161 C162 1.439 . S
C161 H201 0.950 . S
C162 C161 1.439 . S
C162 N163 1.374 . S
C162 C196 1.395 . S
N163 C159 1.376 . S
N163 C162 1.374 . S
N163 Co164 1.994 1_655 S
Co164 N163 1.994 1_455 S
Co164 N165 1.986 1_455 S
Co164 N170 2.022 . S
Co164 N175 2.004 . S
Co164 N180 2.300 . S
Co164 N186 2.265 1_455 S
N165 Co164 1.986 1_655 S
N165 C166 1.376 . S
N165 C169 1.383 1_655 S
C166 N165 1.376 . S
C166 C167 1.446 . S
C166 C196 1.391 . S
C167 C166 1.446 . S
C167 C168 1.339 1_655 S
C167 H202 0.949 . S
C168 C167 1.339 1_455 S
C168 C169 1.439 . S
C168 H203 0.950 . S
C169 N165 1.383 1_455 S
C169 C168 1.439 . S
C169 C198 1.392 . S
N170 Co164 2.022 . S
N170 C171 1.376 . S
N170 C174 1.374 . S
C171 N170 1.376 . S
C171 C172 1.443 . S
C171 C198 1.389 . S
C172 C171 1.443 . S
C172 C173 1.340 . S
C172 H204 0.951 . S
C173 C172 1.340 . S
C173 C174 1.439 . S
C173 H205 0.950 . S
C174 N170 1.374 . S
C174 C173 1.439 . S
C174 C199 1.395 . S
N175 Co164 2.004 . S
N175 C176 1.376 . S
N175 C179 1.383 1_455 S
C176 N175 1.376 . S
C176 C177 1.446 . S
C176 C199 1.391 . S
C177 C176 1.446 . S
C177 C178 1.328 1_455 S
C177 H206 0.949 . S
C178 C177 1.328 1_655 S
C178 C179 1.447 . S
C178 H207 0.952 . S
C179 N175 1.383 1_655 S
C179 C178 1.447 . S
C179 C197 1.392 . S
N180 Co164 2.300 . S
N180 C183 1.332 . S
N180 C185 1.332 . S
C181 C182 1.386 . S
C181 C184 1.388 . S
C182 C181 1.386 . S
C182 C183 1.382 . S
C182 H208 0.950 . S
C183 N180 1.332 . S
C183 C182 1.382 . S
C183 H194 0.952 . S
C184 C181 1.388 . S
C184 C185 1.382 . S
C184 H209 0.950 . S
C185 N180 1.332 . S
C185 C184 1.382 . S
C185 H195 0.948 1_455 S
N186 Co164 2.265 1_655 S
N186 C190 1.332 . S
N186 C191 1.332 . S
C187 C188 1.388 . S
C187 C191 1.382 . S
C187 H210 0.950 . S
C188 C187 1.388 . S
C188 C189 1.386 . S
C189 C188 1.386 . S
C189 C190 1.382 . S
C189 H211 0.950 . S
C190 N186 1.332 . S
C190 C189 1.382 . S
C190 H192 0.952 . S
C191 N186 1.332 . S
C191 C187 1.382 . S
C191 H193 0.948 1_655 S
H192 C190 0.952 . S
H193 C191 0.948 1_455 S
H194 C183 0.952 . S
H195 C185 0.948 1_655 S
C196 C162 1.395 . S
C196 C166 1.391 . S
C197 C159 1.389 . S
C197 C179 1.392 . S
C198 C169 1.392 . S
C198 C171 1.389 . S
C199 C174 1.395 . S
C199 C176 1.391 . S
H200 C160 0.951 . S
H201 C161 0.950 . S
H202 C167 0.949 . S
H203 C168 0.950 . S
H204 C172 0.951 . S
H205 C173 0.950 . S
H206 C177 0.949 . S
H207 C178 0.952 . S
H208 C182 0.950 . S
H209 C184 0.950 . S
H210 C187 0.950 . S
H211 C189 0.950 . S
C212 C213 1.443 . S
C212 N216 1.376 1_565 S
C212 C250 1.389 . S
C213 C212 1.443 . S
C213 C214 1.340 1_565 S
C213 H253 0.951 . S
C214 C213 1.340 1_545 S
C214 C215 1.439 . S
C214 H254 0.950 . S
C215 C214 1.439 . S
C215 N216 1.374 . S
C215 C249 1.395 . S
N216 C212 1.376 1_545 S
N216 C215 1.374 . S
N216 Co217 2.015 . S
Co217 N216 2.015 . S
Co217 N218 1.995 . S
Co217 N223 2.001 1_544 S
Co217 N228 1.994 1_544 S
Co217 N233 2.279 1_554 S
Co217 N239 2.286 1_545 S
N218 Co217 1.995 . S
N218 C219 1.376 . S
N218 C222 1.383 1_554 S
C219 N218 1.376 . S
C219 C220 1.446 . S
C219 C249 1.391 . S
C220 C219 1.446 . S
C220 C221 1.339 1_554 S
C220 H255 0.949 . S
C221 C220 1.339 1_556 S
C221 C222 1.439 . S
C221 H256 0.950 . S
C222 N218 1.383 1_556 S
C222 C221 1.439 . S
C222 C251 1.392 . S
N223 Co217 2.001 1_566 S
N223 C224 1.376 1_565 S
N223 C227 1.374 . S
C224 N223 1.376 1_545 S
C224 C225 1.443 . S
C224 C251 1.389 . S
C225 C224 1.443 . S
C225 C226 1.340 1_545 S
C225 H257 0.951 . S
C226 C225 1.340 1_565 S
C226 C227 1.439 . S
C226 H258 0.950 . S
C227 N223 1.374 . S
C227 C226 1.439 . S
C227 C252 1.395 . S
N228 Co217 1.994 1_566 S
N228 C229 1.376 . S
N228 C232 1.383 1_556 S
C229 N228 1.376 . S
C229 C230 1.446 . S
C229 C252 1.391 . S
C230 C229 1.446 . S
C230 C231 1.339 1_556 S
C230 H259 0.949 . S
C231 C230 1.339 1_554 S
C231 C232 1.439 . S
C231 H260 0.950 . S
C232 N228 1.383 1_554 S
C232 C231 1.439 . S
C232 C250 1.392 . S
N233 Co217 2.279 1_556 S
N233 C236 1.332 . S
N233 C238 1.332 . S
C234 C235 1.386 . S
C234 C237 1.388 . S
C235 C234 1.386 . S
C235 C236 1.382 . S
C235 H261 0.950 . S
C236 N233 1.332 . S
C236 C235 1.382 . S
C236 H247 0.952 1_545 S
C237 C234 1.388 . S
C237 C238 1.382 . S
C237 H262 0.950 . S
C238 N233 1.332 . S
C238 C237 1.382 . S
C238 H248 0.948 . S
N239 Co217 2.286 1_565 S
N239 C243 1.332 . S
N239 C244 1.332 . S
C240 C241 1.388 . S
C240 C244 1.382 . S
C240 H263 0.950 . S
C241 C240 1.388 . S
C241 C242 1.386 . S
C242 C241 1.386 . S
C242 C243 1.382 . S
C242 H264 0.950 . S
C243 N239 1.332 . S
C243 C242 1.382 . S
C243 H245 0.952 1_565 S
C244 N239 1.332 . S
C244 C240 1.382 . S
C244 H246 0.948 . S
H245 C243 0.952 1_545 S
H246 C244 0.948 . S
H247 C236 0.952 1_565 S
H248 C238 0.948 . S
C249 C215 1.395 . S
C249 C219 1.391 . S
C250 C212 1.389 . S
C250 C232 1.392 . S
C251 C222 1.392 . S
C251 C224 1.389 . S
C252 C227 1.395 . S
C252 C229 1.391 . S
H253 C213 0.951 . S
H254 C214 0.950 . S
H255 C220 0.949 . S
H256 C221 0.950 . S
H257 C225 0.951 . S
H258 C226 0.950 . S
H259 C230 0.949 . S
H260 C231 0.950 . S
H261 C235 0.950 . S
H262 C237 0.950 . S
H263 C240 0.950 . S
H264 C242 0.950 . S
C265 C266 1.443 . S
C265 N269 1.376 . S
C265 C303 1.389 . S
C266 C265 1.443 . S
C266 C267 1.340 . S
C266 H306 0.951 . S
C267 C266 1.340 . S
C267 C268 1.439 . S
C267 H307 0.950 . S
C268 C267 1.439 . S
C268 N269 1.374 . S
C268 C302 1.395 . S
N269 C265 1.376 . S
N269 C268 1.374 . S
N269 Co270 2.008 . S
Co270 N269 2.008 . S
Co270 N271 1.995 . S
Co270 N276 2.008 . S
Co270 N281 1.995 . S
Co270 N286 2.282 . S
Co270 N292 2.282 . S
N271 Co270 1.995 . S
N271 C272 1.376 . S
N271 C275 1.383 . S
C272 N271 1.376 . S
C272 C273 1.446 . S
C272 C302 1.391 . S
C273 C272 1.446 . S
C273 C274 1.339 . S
C273 H308 0.949 . S
C274 C273 1.339 . S
C274 C275 1.439 . S
C274 H309 0.950 . S
C275 N271 1.383 . S
C275 C274 1.439 . S
C275 C304 1.392 . S
N276 Co270 2.008 . S
N276 C277 1.376 . S
N276 C280 1.374 . S
C277 N276 1.376 . S
C277 C278 1.443 . S
C277 C304 1.389 . S
C278 C277 1.443 . S
C278 C279 1.340 . S
C278 H310 0.951 . S
C279 C278 1.340 . S
C279 C280 1.439 . S
C279 H311 0.950 . S
C280 N276 1.374 . S
C280 C279 1.439 . S
C280 C305 1.395 . S
N281 Co270 1.995 . S
N281 C282 1.376 . S
N281 C285 1.383 . S
C282 N281 1.376 . S
C282 C283 1.446 . S
C282 C305 1.391 . S
C283 C282 1.446 . S
C283 C284 1.339 . S
C283 H312 0.949 . S
C284 C283 1.339 . S
C284 C285 1.439 . S
C284 H313 0.950 . S
C285 N281 1.383 . S
C285 C284 1.439 . S
C285 C303 1.392 . S
N286 Co270 2.282 . S
N286 C289 1.332 . S
N286 C291 1.332 . S
C287 C288 1.386 . S
C287 C290 1.388 . S
C288 C287 1.386 . S
C288 C289 1.382 . S
C288 H314 0.950 . S
C289 N286 1.332 . S
C289 C288 1.382 . S
C289 H300 0.952 . S
C290 C287 1.388 . S
C290 C291 1.382 . S
C290 H315 0.950 . S
C291 N286 1.332 . S
C291 C290 1.382 . S
C291 H301 0.948 . S
N292 Co270 2.282 . S
N292 C296 1.332 . S
N292 C297 1.332 . S
C293 C294 1.388 . S
C293 C297 1.382 . S
C293 H316 0.950 . S
C294 C293 1.388 . S
C294 C295 1.386 . S
C295 C294 1.386 . S
C295 C296 1.382 . S
C295 H317 0.950 . S
C296 N292 1.332 . S
C296 C295 1.382 . S
C296 H298 0.952 . S
C297 N292 1.332 . S
C297 C293 1.382 . S
C297 H299 0.948 . S
H298 C296 0.952 . S
H299 C297 0.948 . S
H300 C289 0.952 . S
H301 C291 0.948 . S
C302 C268 1.395 . S
C302 C272 1.391 . S
C303 C265 1.389 . S
C303 C285 1.392 . S
C304 C275 1.392 . S
C304 C277 1.389 . S
C305 C280 1.395 . S
C305 C282 1.391 . S
H306 C266 0.951 . S
H307 C267 0.950 . S
H308 C273 0.949 . S
H309 C274 0.950 . S
H310 C278 0.951 . S
H311 C279 0.950 . S
H312 C283 0.949 . S
H313 C284 0.950 . S
H314 C288 0.950 . S
H315 C290 0.950 . S
H316 C293 0.950 . S
H317 C295 0.950 . S
C318 C319 1.443 . S
C318 N322 1.376 . S
C318 C356 1.389 . S
C319 C318 1.443 . S
C319 C320 1.340 . S
C319 H359 0.951 . S
C320 C319 1.340 . S
C320 C321 1.439 . S
C320 H360 0.950 . S
C321 C320 1.439 . S
C321 N322 1.374 . S
C321 C355 1.395 . S
N322 C318 1.376 . S
N322 C321 1.374 . S
N322 Co323 2.008 . S
Co323 N322 2.008 . S
Co323 N324 1.995 . S
Co323 N329 2.008 . S
Co323 N334 1.995 . S
Co323 N339 2.282 . S
Co323 N345 2.282 . S
N324 Co323 1.995 . S
N324 C325 1.376 . S
N324 C328 1.383 . S
C325 N324 1.376 . S
C325 C326 1.446 . S
C325 C355 1.391 . S
C326 C325 1.446 . S
C326 C327 1.339 . S
C326 H361 0.949 . S
C327 C326 1.339 . S
C327 C328 1.439 . S
C327 H362 0.950 . S
C328 N324 1.383 . S
C328 C327 1.439 . S
C328 C357 1.392 . S
N329 Co323 2.008 . S
N329 C330 1.376 . S
N329 C333 1.374 . S
C330 N329 1.376 . S
C330 C331 1.443 . S
C330 C357 1.389 . S
C331 C330 1.443 . S
C331 C332 1.340 . S
C331 H363 0.951 . S
C332 C331 1.340 . S
C332 C333 1.439 . S
C332 H364 0.950 . S
C333 N329 1.374 . S
C333 C332 1.439 . S
C333 C358 1.395 . S
N334 Co323 1.995 . S
N334 C335 1.376 . S
N334 C338 1.383 . S
C335 N334 1.376 . S
C335 C336 1.446 . S
C335 C358 1.391 . S
C336 C335 1.446 . S
C336 C337 1.339 . S
C336 H365 0.949 . S
C337 C336 1.339 . S
C337 C338 1.439 . S
C337 H366 0.950 . S
C338 N334 1.383 . S
C338 C337 1.439 . S
C338 C356 1.392 . S
N339 Co323 2.282 . S
N339 C342 1.332 . S
N339 C344 1.332 . S
C340 C341 1.386 . S
C340 C343 1.388 . S
C341 C340 1.386 . S
C341 C342 1.382 . S
C341 H367 0.950 . S
C342 N339 1.332 . S
C342 C341 1.382 . S
C342 H353 0.952 . S
C343 C340 1.388 . S
C343 C344 1.382 . S
C343 H368 0.950 . S
C344 N339 1.332 . S
C344 C343 1.382 . S
C344 H354 0.948 . S
N345 Co323 2.282 . S
N345 C349 1.332 . S
N345 C350 1.332 . S
C346 C347 1.388 . S
C346 C350 1.382 . S
C346 H369 0.950 . S
C347 C346 1.388 . S
C347 C348 1.386 . S
C348 C347 1.386 . S
C348 C349 1.382 . S
C348 H370 0.950 . S
C349 N345 1.332 . S
C349 C348 1.382 . S
C349 H351 0.952 . S
C350 N345 1.332 . S
C350 C346 1.382 . S
C350 H352 0.948 . S
H351 C349 0.952 . S
H352 C350 0.948 . S
H353 C342 0.952 . S
H354 C344 0.948 . S
C355 C321 1.395 . S
C355 C325 1.391 . S
C356 C318 1.389 . S
C356 C338 1.392 . S
C357 C328 1.392 . S
C357 C330 1.389 . S
C358 C333 1.395 . S
C358 C335 1.391 . S
H359 C319 0.951 . S
H360 C320 0.950 . S
H361 C326 0.949 . S
H362 C327 0.950 . S
H363 C331 0.951 . S
H364 C332 0.950 . S
H365 C336 0.949 . S
H366 C337 0.950 . S
H367 C341 0.950 . S
H368 C343 0.950 . S
H369 C346 0.950 . S
H370 C348 0.950 . S
C371 C372 1.443 . S
C371 N375 1.376 . S
C371 C409 1.389 . S
C372 C371 1.443 . S
C372 C373 1.340 . S
C372 H412 0.951 . S
C373 C372 1.340 . S
C373 C374 1.439 . S
C373 H413 0.950 . S
C374 C373 1.439 . S
C374 N375 1.374 . S
C374 C408 1.395 . S
N375 C371 1.376 . S
N375 C374 1.374 . S
N375 Co376 2.008 . S
Co376 N375 2.008 . S
Co376 N377 1.995 . S
Co376 N382 2.008 . S
Co376 N387 1.995 . S
Co376 N392 2.282 . S
Co376 N398 2.282 . S
N377 Co376 1.995 . S
N377 C378 1.376 . S
N377 C381 1.383 . S
C378 N377 1.376 . S
C378 C379 1.446 . S
C378 C408 1.391 . S
C379 C378 1.446 . S
C379 C380 1.339 . S
C379 H414 0.949 . S
C380 C379 1.339 . S
C380 C381 1.439 . S
C380 H415 0.950 . S
C381 N377 1.383 . S
C381 C380 1.439 . S
C381 C410 1.392 . S
N382 Co376 2.008 . S
N382 C383 1.376 . S
N382 C386 1.374 . S
C383 N382 1.376 . S
C383 C384 1.443 . S
C383 C410 1.389 . S
C384 C383 1.443 . S
C384 C385 1.340 . S
C384 H416 0.951 . S
C385 C384 1.340 . S
C385 C386 1.439 . S
C385 H417 0.950 . S
C386 N382 1.374 . S
C386 C385 1.439 . S
C386 C411 1.395 . S
N387 Co376 1.995 . S
N387 C388 1.376 . S
N387 C391 1.383 . S
C388 N387 1.376 . S
C388 C389 1.446 . S
C388 C411 1.391 . S
C389 C388 1.446 . S
C389 C390 1.339 . S
C389 H418 0.949 . S
C390 C389 1.339 . S
C390 C391 1.439 . S
C390 H419 0.950 . S
C391 N387 1.383 . S
C391 C390 1.439 . S
C391 C409 1.392 . S
N392 Co376 2.282 . S
N392 C395 1.332 . S
N392 C397 1.332 . S
C393 C394 1.386 . S
C393 C396 1.388 . S
C394 C393 1.386 . S
C394 C395 1.382 . S
C394 H420 0.950 . S
C395 N392 1.332 . S
C395 C394 1.382 . S
C395 H406 0.952 . S
C396 C393 1.388 . S
C396 C397 1.382 . S
C396 H421 0.950 . S
C397 N392 1.332 . S
C397 C396 1.382 . S
C397 H407 0.948 . S
N398 Co376 2.282 . S
N398 C402 1.332 . S
N398 C403 1.332 . S
C399 C400 1.388 . S
C399 C403 1.382 . S
C399 H422 0.950 . S
C400 C399 1.388 . S
C400 C401 1.386 . S
C401 C400 1.386 . S
C401 C402 1.382 . S
C401 H423 0.950 . S
C402 N398 1.332 . S
C402 C401 1.382 . S
C402 H404 0.952 . S
C403 N398 1.332 . S
C403 C399 1.382 . S
C403 H405 0.948 . S
H404 C402 0.952 . S
H405 C403 0.948 . S
H406 C395 0.952 . S
H407 C397 0.948 . S
C408 C374 1.395 . S
C408 C378 1.391 . S
C409 C371 1.389 . S
C409 C391 1.392 . S
C410 C381 1.392 . S
C410 C383 1.389 . S
C411 C386 1.395 . S
C411 C388 1.391 . S
H412 C372 0.951 . S
H413 C373 0.950 . S
H414 C379 0.949 . S
H415 C380 0.950 . S
H416 C384 0.951 . S
H417 C385 0.950 . S
H418 C389 0.949 . S
H419 C390 0.950 . S
H420 C394 0.950 . S
H421 C396 0.950 . S
H422 C399 0.950 . S
H423 C401 0.950 . S
C424 C425 1.443 . S
C424 N428 1.376 . S
C424 C462 1.389 . S
C425 C424 1.443 . S
C425 C426 1.340 . S
C425 H465 0.951 . S
C426 C425 1.340 . S
C426 C427 1.439 . S
C426 H466 0.950 . S
C427 C426 1.439 . S
C427 N428 1.374 . S
C427 C461 1.395 . S
N428 C424 1.376 . S
N428 C427 1.374 . S
N428 Co429 2.008 . S
Co429 N428 2.008 . S
Co429 N430 1.995 . S
Co429 N435 2.008 . S
Co429 N440 1.995 . S
Co429 N445 2.282 . S
Co429 N451 2.282 . S
N430 Co429 1.995 . S
N430 C431 1.376 . S
N430 C434 1.383 . S
C431 N430 1.376 . S
C431 C432 1.446 . S
C431 C461 1.391 . S
C432 C431 1.446 . S
C432 C433 1.339 . S
C432 H467 0.949 . S
C433 C432 1.339 . S
C433 C434 1.439 . S
C433 H468 0.950 . S
C434 N430 1.383 . S
C434 C433 1.439 . S
C434 C463 1.392 . S
N435 Co429 2.008 . S
N435 C436 1.376 . S
N435 C439 1.374 . S
C436 N435 1.376 . S
C436 C437 1.443 . S
C436 C463 1.389 . S
C437 C436 1.443 . S
C437 C438 1.340 . S
C437 H469 0.951 . S
C438 C437 1.340 . S
C438 C439 1.439 . S
C438 H470 0.950 . S
C439 N435 1.374 . S
C439 C438 1.439 . S
C439 C464 1.395 . S
N440 Co429 1.995 . S
N440 C441 1.376 . S
N440 C444 1.383 . S
C441 N440 1.376 . S
C441 C442 1.446 . S
C441 C464 1.391 . S
C442 C441 1.446 . S
C442 C443 1.339 . S
C442 H471 0.949 . S
C443 C442 1.339 . S
C443 C444 1.439 . S
C443 H472 0.950 . S
C444 N440 1.383 . S
C444 C443 1.439 . S
C444 C462 1.392 . S
N445 Co429 2.282 . S
N445 C448 1.332 . S
N445 C450 1.332 . S
C446 C447 1.386 . S
C446 C449 1.388 . S
C447 C446 1.386 . S
C447 C448 1.382 . S
C447 H473 0.950 . S
C448 N445 1.332 . S
C448 C447 1.382 . S
C448 H459 0.952 . S
C449 C446 1.388 . S
C449 C450 1.382 . S
C449 H474 0.950 . S
C450 N445 1.332 . S
C450 C449 1.382 . S
C450 H460 0.948 . S
N451 Co429 2.282 . S
N451 C455 1.332 . S
N451 C456 1.332 . S
C452 C453 1.388 . S
C452 C456 1.382 . S
C452 H475 0.950 . S
C453 C452 1.388 . S
C453 C454 1.386 . S
C454 C453 1.386 . S
C454 C455 1.382 . S
C454 H476 0.950 . S
C455 N451 1.332 . S
C455 C454 1.382 . S
C455 H457 0.952 . S
C456 N451 1.332 . S
C456 C452 1.382 . S
C456 H458 0.948 . S
H457 C455 0.952 . S
H458 C456 0.948 . S
H459 C448 0.952 . S
H460 C450 0.948 . S
C461 C427 1.395 . S
C461 C431 1.391 . S
C462 C424 1.389 . S
C462 C444 1.392 . S
C463 C434 1.392 . S
C463 C436 1.389 . S
C464 C439 1.395 . S
C464 C441 1.391 . S
H465 C425 0.951 . S
H466 C426 0.950 . S
H467 C432 0.949 . S
H468 C433 0.950 . S
H469 C437 0.951 . S
H470 C438 0.950 . S
H471 C442 0.949 . S
H472 C443 0.950 . S
H473 C447 0.950 . S
H474 C449 0.950 . S
H475 C452 0.950 . S
H476 C454 0.950 . S
C477 C478 1.443 . S
C477 N481 1.376 . S
C477 C515 1.389 . S
C478 C477 1.443 . S
C478 C479 1.340 . S
C478 H518 0.951 . S
C479 C478 1.340 . S
C479 C480 1.439 . S
C479 H519 0.950 . S
C480 C479 1.439 . S
C480 N481 1.374 . S
C480 C514 1.395 . S
N481 C477 1.376 . S
N481 C480 1.374 . S
N481 Co482 2.008 . S
Co482 N481 2.008 . S
Co482 N483 1.995 . S
Co482 N488 2.008 . S
Co482 N493 1.995 . S
Co482 N498 2.282 . S
Co482 N504 2.282 . S
N483 Co482 1.995 . S
N483 C484 1.376 . S
N483 C487 1.383 . S
C484 N483 1.376 . S
C484 C485 1.446 . S
C484 C514 1.391 . S
C485 C484 1.446 . S
C485 C486 1.339 . S
C485 H520 0.949 . S
C486 C485 1.339 . S
C486 C487 1.439 . S
C486 H521 0.950 . S
C487 N483 1.383 . S
C487 C486 1.439 . S
C487 C516 1.392 . S
N488 Co482 2.008 . S
N488 C489 1.376 . S
N488 C492 1.374 . S
C489 N488 1.376 . S
C489 C490 1.443 . S
C489 C516 1.389 . S
C490 C489 1.443 . S
C490 C491 1.340 . S
C490 H522 0.951 . S
C491 C490 1.340 . S
C491 C492 1.439 . S
C491 H523 0.950 . S
C492 N488 1.374 . S
C492 C491 1.439 . S
C492 C517 1.395 . S
N493 Co482 1.995 . S
N493 C494 1.376 . S
N493 C497 1.383 . S
C494 N493 1.376 . S
C494 C495 1.446 . S
C494 C517 1.391 . S
C495 C494 1.446 . S
C495 C496 1.339 . S
C495 H524 0.949 . S
C496 C495 1.339 . S
C496 C497 1.439 . S
C496 H525 0.950 . S
C497 N493 1.383 . S
C497 C496 1.439 . S
C497 C515 1.392 . S
N498 Co482 2.282 . S
N498 C501 1.332 . S
N498 C503 1.332 . S
C499 C500 1.386 . S
C499 C502 1.388 . S
C500 C499 1.386 . S
C500 C501 1.382 . S
C500 H526 0.950 . S
C501 N498 1.332 . S
C501 C500 1.382 . S
C501 H512 0.952 . S
C502 C499 1.388 . S
C502 C503 1.382 . S
C502 H527 0.950 . S
C503 N498 1.332 . S
C503 C502 1.382 . S
C503 H513 0.948 . S
N504 Co482 2.282 . S
N504 C508 1.332 . S
N504 C509 1.332 . S
C505 C506 1.388 . S
C505 C509 1.382 . S
C505 H528 0.950 . S
C506 C505 1.388 . S
C506 C507 1.386 . S
C507 C506 1.386 . S
C507 C508 1.382 . S
C507 H529 0.950 . S
C508 N504 1.332 . S
C508 C507 1.382 . S
C508 H510 0.952 . S
C509 N504 1.332 . S
C509 C505 1.382 . S
C509 H511 0.948 . S
H510 C508 0.952 . S
H511 C509 0.948 . S
H512 C501 0.952 . S
H513 C503 0.948 . S
C514 C480 1.395 . S
C514 C484 1.391 . S
C515 C477 1.389 . S
C515 C497 1.392 . S
C516 C487 1.392 . S
C516 C489 1.389 . S
C517 C492 1.395 . S
C517 C494 1.391 . S
H518 C478 0.951 . S
H519 C479 0.950 . S
H520 C485 0.949 . S
H521 C486 0.950 . S
H522 C490 0.951 . S
H523 C491 0.950 . S
H524 C495 0.949 . S
H525 C496 0.950 . S
H526 C500 0.950 . S
H527 C502 0.950 . S
H528 C505 0.950 . S
H529 C507 0.950 . S
C530 C531 1.443 . S
C530 N534 1.376 . S
C530 C568 1.389 . S
C531 C530 1.443 . S
C531 C532 1.340 . S
C531 H571 0.951 . S
C532 C531 1.340 . S
C532 C533 1.439 . S
C532 H572 0.950 . S
C533 C532 1.439 . S
C533 N534 1.374 . S
C533 C567 1.395 . S
N534 C530 1.376 . S
N534 C533 1.374 . S
N534 Co535 2.008 . S
Co535 N534 2.008 . S
Co535 N536 1.995 . S
Co535 N541 2.008 . S
Co535 N546 1.995 . S
Co535 N551 2.282 . S
Co535 N557 2.282 . S
N536 Co535 1.995 . S
N536 C537 1.376 . S
N536 C540 1.383 . S
C537 N536 1.376 . S
C537 C538 1.446 . S
C537 C567 1.391 . S
C538 C537 1.446 . S
C538 C539 1.339 . S
C538 H573 0.949 . S
C539 C538 1.339 . S
C539 C540 1.439 . S
C539 H574 0.950 . S
C540 N536 1.383 . S
C540 C539 1.439 . S
C540 C569 1.392 . S
N541 Co535 2.008 . S
N541 C542 1.376 . S
N541 C545 1.374 . S
C542 N541 1.376 . S
C542 C543 1.443 . S
C542 C569 1.389 . S
C543 C542 1.443 . S
C543 C544 1.340 . S
C543 H575 0.951 . S
C544 C543 1.340 . S
C544 C545 1.439 . S
C544 H576 0.950 . S
C545 N541 1.374 . S
C545 C544 1.439 . S
C545 C570 1.395 . S
N546 Co535 1.995 . S
N546 C547 1.376 . S
N546 C550 1.383 . S
C547 N546 1.376 . S
C547 C548 1.446 . S
C547 C570 1.391 . S
C548 C547 1.446 . S
C548 C549 1.339 . S
C548 H577 0.949 . S
C549 C548 1.339 . S
C549 C550 1.439 . S
C549 H578 0.950 . S
C550 N546 1.383 . S
C550 C549 1.439 . S
C550 C568 1.392 . S
N551 Co535 2.282 . S
N551 C554 1.332 . S
N551 C556 1.332 . S
C552 C553 1.386 . S
C552 C555 1.388 . S
C553 C552 1.386 . S
C553 C554 1.382 . S
C553 H579 0.950 . S
C554 N551 1.332 . S
C554 C553 1.382 . S
C554 H565 0.952 . S
C555 C552 1.388 . S
C555 C556 1.382 . S
C555 H580 0.950 . S
C556 N551 1.332 . S
C556 C555 1.382 . S
C556 H566 0.948 . S
N557 Co535 2.282 . S
N557 C561 1.332 . S
N557 C562 1.332 . S
C558 C559 1.388 . S
C558 C562 1.382 . S
C558 H581 0.950 . S
C559 C558 1.388 . S
C559 C560 1.386 . S
C560 C559 1.386 . S
C560 C561 1.382 . S
C560 H582 0.950 . S
C561 N557 1.332 . S
C561 C560 1.382 . S
C561 H563 0.952 . S
C562 N557 1.332 . S
C562 C558 1.382 . S
C562 H564 0.948 . S
H563 C561 0.952 . S
H564 C562 0.948 . S
H565 C554 0.952 . S
H566 C556 0.948 . S
C567 C533 1.395 . S
C567 C537 1.391 . S
C568 C530 1.389 . S
C568 C550 1.392 . S
C569 C540 1.392 . S
C569 C542 1.389 . S
C570 C545 1.395 . S
C570 C547 1.391 . S
H571 C531 0.951 . S
H572 C532 0.950 . S
H573 C538 0.949 . S
H574 C539 0.950 . S
H575 C543 0.951 . S
H576 C544 0.950 . S
H577 C548 0.949 . S
H578 C549 0.950 . S
H579 C553 0.950 . S
H580 C555 0.950 . S
H581 C558 0.950 . S
H582 C560 0.950 . S
C583 C584 1.443 . S
C583 N587 1.376 . S
C583 C621 1.389 . S
C584 C583 1.443 . S
C584 C585 1.340 . S
C584 H624 0.951 . S
C585 C584 1.340 . S
C585 C586 1.439 . S
C585 H625 0.950 . S
C586 C585 1.439 . S
C586 N587 1.374 . S
C586 C620 1.395 . S
N587 C583 1.376 . S
N587 C586 1.374 . S
N587 Co588 2.008 . S
Co588 N587 2.008 . S
Co588 N589 1.995 . S
Co588 N594 2.008 . S
Co588 N599 1.995 . S
Co588 N604 2.282 . S
Co588 N610 2.282 . S
N589 Co588 1.995 . S
N589 C590 1.376 . S
N589 C593 1.383 . S
C590 N589 1.376 . S
C590 C591 1.446 . S
C590 C620 1.391 . S
C591 C590 1.446 . S
C591 C592 1.339 . S
C591 H626 0.949 . S
C592 C591 1.339 . S
C592 C593 1.439 . S
C592 H627 0.950 . S
C593 N589 1.383 . S
C593 C592 1.439 . S
C593 C622 1.392 . S
N594 Co588 2.008 . S
N594 C595 1.376 . S
N594 C598 1.374 . S
C595 N594 1.376 . S
C595 C596 1.443 . S
C595 C622 1.389 . S
C596 C595 1.443 . S
C596 C597 1.340 . S
C596 H628 0.951 . S
C597 C596 1.340 . S
C597 C598 1.439 . S
C597 H629 0.950 . S
C598 N594 1.374 . S
C598 C597 1.439 . S
C598 C623 1.395 . S
N599 Co588 1.995 . S
N599 C600 1.376 . S
N599 C603 1.383 . S
C600 N599 1.376 . S
C600 C601 1.446 . S
C600 C623 1.391 . S
C601 C600 1.446 . S
C601 C602 1.339 . S
C601 H630 0.949 . S
C602 C601 1.339 . S
C602 C603 1.439 . S
C602 H631 0.950 . S
C603 N599 1.383 . S
C603 C602 1.439 . S
C603 C621 1.392 . S
N604 Co588 2.282 . S
N604 C607 1.332 . S
N604 C609 1.332 . S
C605 C606 1.386 . S
C605 C608 1.388 . S
C606 C605 1.386 . S
C606 C607 1.382 . S
C606 H632 0.950 . S
C607 N604 1.332 . S
C607 C606 1.382 . S
C607 H618 0.952 . S
C608 C605 1.388 . S
C608 C609 1.382 . S
C608 H633 0.950 . S
C609 N604 1.332 . S
C609 C608 1.382 . S
C609 H619 0.948 . S
N610 Co588 2.282 . S
N610 C614 1.332 . S
N610 C615 1.332 . S
C611 C612 1.388 . S
C611 C615 1.382 . S
C611 H634 0.950 . S
C612 C611 1.388 . S
C612 C613 1.386 . S
C613 C612 1.386 . S
C613 C614 1.382 . S
C613 H635 0.950 . S
C614 N610 1.332 . S
C614 C613 1.382 . S
C614 H616 0.952 . S
C615 N610 1.332 . S
C615 C611 1.382 . S
C615 H617 0.948 . S
H616 C614 0.952 . S
H617 C615 0.948 . S
H618 C607 0.952 . S
H619 C609 0.948 . S
C620 C586 1.395 . S
C620 C590 1.391 . S
C621 C583 1.389 . S
C621 C603 1.392 . S
C622 C593 1.392 . S
C622 C595 1.389 . S
C623 C598 1.395 . S
C623 C600 1.391 . S
H624 C584 0.951 . S
H625 C585 0.950 . S
H626 C591 0.949 . S
H627 C592 0.950 . S
H628 C596 0.951 . S
H629 C597 0.950 . S
H630 C601 0.949 . S
H631 C602 0.950 . S
H632 C606 0.950 . S
H633 C608 0.950 . S
H634 C611 0.950 . S
H635 C613 0.950 . S
C636 C637 1.363 . S
C636 C642 1.379 . S
C636 N644 1.356 . S
C637 C636 1.363 . S
C637 C643 1.363 . S
C638 C639 1.363 . S
C638 C643 1.379 . S
C638 N645 1.356 . S
C639 C638 1.363 . S
C639 C642 1.363 . S
N640 C642 1.356 . S
N640 H652 0.984 . S
N640 H653 0.985 . S
N641 C643 1.356 . S
N641 H646 0.984 . S
N641 H647 0.985 . S
C642 C636 1.379 . S
C642 C639 1.363 . S
C642 N640 1.356 . S
C643 C637 1.363 . S
C643 C638 1.379 . S
C643 N641 1.356 . S
N644 C636 1.356 . S
N644 H650 0.984 . S
N644 H651 0.984 . S
N645 C638 1.356 . S
N645 H648 0.984 . S
N645 H649 0.985 . S
H646 N641 0.984 . S
H647 N641 0.985 . S
H648 N645 0.984 . S
H649 N645 0.985 . S
H650 N644 0.984 . S
H651 N644 0.984 . S
H652 N640 0.984 . S
H653 N640 0.985 . S
C654 C655 1.363 . S
C654 C660 1.379 . S
C654 N662 1.356 . S
C655 C654 1.363 . S
C655 C661 1.363 . S
C656 C657 1.363 . S
C656 C661 1.379 . S
C656 N663 1.356 . S
C657 C656 1.363 . S
C657 C660 1.363 . S
N658 C660 1.356 . S
N658 H670 0.984 . S
N658 H671 0.985 . S
N659 C661 1.356 . S
N659 H664 0.984 . S
N659 H665 0.985 . S
C660 C654 1.379 . S
C660 C657 1.363 . S
C660 N658 1.356 . S
C661 C655 1.363 . S
C661 C656 1.379 . S
C661 N659 1.356 . S
N662 C654 1.356 . S
N662 H668 0.984 . S
N662 H669 0.984 . S
N663 C656 1.356 . S
N663 H666 0.984 . S
N663 H667 0.985 . S
H664 N659 0.984 . S
H665 N659 0.985 . S
H666 N663 0.984 . S
H667 N663 0.985 . S
H668 N662 0.984 . S
H669 N662 0.984 . S
H670 N658 0.984 . S
H671 N658 0.985 . S
C672 C673 1.363 . S
C672 C678 1.379 . S
C672 N680 1.356 . S
C673 C672 1.363 . S
C673 C679 1.363 . S
C674 C675 1.363 . S
C674 C679 1.379 . S
C674 N681 1.356 . S
C675 C674 1.363 . S
C675 C678 1.363 . S
N676 C678 1.356 . S
N676 H688 0.984 . S
N676 H689 0.985 . S
N677 C679 1.356 . S
N677 H682 0.984 . S
N677 H683 0.985 . S
C678 C672 1.379 . S
C678 C675 1.363 . S
C678 N676 1.356 . S
C679 C673 1.363 . S
C679 C674 1.379 . S
C679 N677 1.356 . S
N680 C672 1.356 . S
N680 H686 0.984 . S
N680 H687 0.984 . S
N681 C674 1.356 . S
N681 H684 0.984 . S
N681 H685 0.985 . S
H682 N677 0.984 . S
H683 N677 0.985 . S
H684 N681 0.984 . S
H685 N681 0.985 . S
H686 N680 0.984 . S
H687 N680 0.984 . S
H688 N676 0.984 . S
H689 N676 0.985 . S
C690 C691 1.363 . S
C690 C696 1.379 . S
C690 N698 1.356 . S
C691 C690 1.363 . S
C691 C697 1.363 . S
C692 C693 1.363 . S
C692 C697 1.379 . S
C692 N699 1.356 . S
C693 C692 1.363 . S
C693 C696 1.363 . S
N694 C696 1.356 . S
N694 H706 0.984 . S
N694 H707 0.985 . S
N695 C697 1.356 . S
N695 H700 0.984 . S
N695 H701 0.985 . S
C696 C690 1.379 . S
C696 C693 1.363 . S
C696 N694 1.356 . S
C697 C691 1.363 . S
C697 C692 1.379 . S
C697 N695 1.356 . S
N698 C690 1.356 . S
N698 H704 0.984 . S
N698 H705 0.984 . S
N699 C692 1.356 . S
N699 H702 0.984 . S
N699 H703 0.985 . S
H700 N695 0.984 . S
H701 N695 0.985 . S
H702 N699 0.984 . S
H703 N699 0.985 . S
H704 N698 0.984 . S
H705 N698 0.984 . S
H706 N694 0.984 . S
H707 N694 0.985 . S
C708 C709 1.363 . S
C708 C714 1.379 . S
C708 N716 1.356 . S
C709 C708 1.363 . S
C709 C715 1.363 . S
C710 C711 1.363 . S
C710 C715 1.379 . S
C710 N717 1.356 . S
C711 C710 1.363 . S
C711 C714 1.363 . S
N712 C714 1.356 . S
N712 H724 0.984 . S
N712 H725 0.985 . S
N713 C715 1.356 . S
N713 H718 0.984 . S
N713 H719 0.985 1_565 S
C714 C708 1.379 . S
C714 C711 1.363 . S
C714 N712 1.356 . S
C715 C709 1.363 . S
C715 C710 1.379 . S
C715 N713 1.356 . S
N716 C708 1.356 . S
N716 H722 0.984 . S
N716 H723 0.984 . S
N717 C710 1.356 . S
N717 H720 0.984 . S
N717 H721 0.985 . S
H718 N713 0.984 . S
H719 N713 0.985 1_545 S
H720 N717 0.984 . S
H721 N717 0.985 . S
H722 N716 0.984 . S
H723 N716 0.984 . S
H724 N712 0.984 . S
H725 N712 0.985 . S
C726 C727 1.363 . S
C726 C732 1.379 . S
C726 N734 1.356 . S
C727 C726 1.363 . S
C727 C733 1.363 . S
C728 C729 1.363 . S
C728 C733 1.379 . S
C728 N735 1.356 . S
C729 C728 1.363 . S
C729 C732 1.363 . S
N730 C732 1.356 . S
N730 H742 0.984 . S
N730 H743 0.985 . S
N731 C733 1.356 . S
N731 H736 0.984 . S
N731 H737 0.985 . S
C732 C726 1.379 . S
C732 C729 1.363 . S
C732 N730 1.356 . S
C733 C727 1.363 . S
C733 C728 1.379 . S
C733 N731 1.356 . S
N734 C726 1.356 . S
N734 H740 0.984 . S
N734 H741 0.984 . S
N735 C728 1.356 . S
N735 H738 0.984 . S
N735 H739 0.985 . S
H736 N731 0.984 . S
H737 N731 0.985 . S
H738 N735 0.984 . S
H739 N735 0.985 . S
H740 N734 0.984 . S
H741 N734 0.984 . S
H742 N730 0.984 . S
H743 N730 0.985 . S
C744 C745 1.363 . S
C744 C750 1.379 . S
C744 N752 1.356 . S
C745 C744 1.363 . S
C745 C751 1.363 . S
C746 C747 1.363 . S
C746 C751 1.379 . S
C746 N753 1.356 . S
C747 C746 1.363 . S
C747 C750 1.363 . S
N748 C750 1.356 . S
N748 H760 0.984 . S
N748 H761 0.985 . S
N749 C751 1.356 . S
N749 H754 0.984 . S
N749 H755 0.985 . S
C750 C744 1.379 . S
C750 C747 1.363 . S
C750 N748 1.356 . S
C751 C745 1.363 . S
C751 C746 1.379 . S
C751 N749 1.356 . S
N752 C744 1.356 . S
N752 H758 0.984 . S
N752 H759 0.984 . S
N753 C746 1.356 . S
N753 H756 0.984 . S
N753 H757 0.985 . S
H754 N749 0.984 . S
H755 N749 0.985 . S
H756 N753 0.984 . S
H757 N753 0.985 . S
H758 N752 0.984 . S
H759 N752 0.984 . S
H760 N748 0.984 . S
H761 N748 0.985 . S
C762 C763 1.363 . S
C762 C768 1.379 . S
C762 N770 1.356 . S
C763 C762 1.363 . S
C763 C769 1.363 . S
C764 C765 1.363 . S
C764 C769 1.379 . S
C764 N771 1.356 . S
C765 C764 1.363 . S
C765 C768 1.363 . S
N766 C768 1.356 . S
N766 H778 0.984 . S
N766 H779 0.985 . S
N767 C769 1.356 . S
N767 H772 0.984 . S
N767 H773 0.985 . S
C768 C762 1.379 . S
C768 C765 1.363 . S
C768 N766 1.356 . S
C769 C763 1.363 . S
C769 C764 1.379 . S
C769 N767 1.356 . S
N770 C762 1.356 . S
N770 H776 0.984 . S
N770 H777 0.984 . S
N771 C764 1.356 . S
N771 H774 0.984 . S
N771 H775 0.985 . S
H772 N767 0.984 . S
H773 N767 0.985 . S
H774 N771 0.984 . S
H775 N771 0.985 . S
H776 N770 0.984 . S
H777 N770 0.984 . S
H778 N766 0.984 . S
H779 N766 0.985 . S
C780 C781 1.363 . S
C780 C786 1.379 . S
C780 N788 1.356 . S
C781 C780 1.363 . S
C781 C787 1.363 . S
C782 C783 1.363 . S
C782 C787 1.379 . S
C782 N789 1.356 . S
C783 C782 1.363 . S
C783 C786 1.363 . S
N784 C786 1.356 . S
N784 H796 0.984 . S
N784 H797 0.985 . S
N785 C787 1.356 . S
N785 H790 0.984 . S
N785 H791 0.985 . S
C786 C780 1.379 . S
C786 C783 1.363 . S
C786 N784 1.356 . S
C787 C781 1.363 . S
C787 C782 1.379 . S
C787 N785 1.356 . S
N788 C780 1.356 . S
N788 H794 0.984 . S
N788 H795 0.984 . S
N789 C782 1.356 . S
N789 H792 0.984 . S
N789 H793 0.985 . S
H790 N785 0.984 . S
H791 N785 0.985 . S
H792 N789 0.984 . S
H793 N789 0.985 . S
H794 N788 0.984 . S
H795 N788 0.984 . S
H796 N784 0.984 . S
H797 N784 0.985 . S
C798 C799 1.363 . S
C798 C804 1.379 . S
C798 N806 1.356 . S
C799 C798 1.363 . S
C799 C805 1.363 . S
C800 C801 1.363 . S
C800 C805 1.379 . S
C800 N807 1.356 . S
C801 C800 1.363 . S
C801 C804 1.363 . S
N802 C804 1.356 . S
N802 H814 0.984 . S
N802 H815 0.985 . S
N803 C805 1.356 . S
N803 H808 0.984 . S
N803 H809 0.985 . S
C804 C798 1.379 . S
C804 C801 1.363 . S
C804 N802 1.356 . S
C805 C799 1.363 . S
C805 C800 1.379 . S
C805 N803 1.356 . S
N806 C798 1.356 . S
N806 H812 0.984 . S
N806 H813 0.984 . S
N807 C800 1.356 . S
N807 H810 0.984 . S
N807 H811 0.985 . S
H808 N803 0.984 . S
H809 N803 0.985 . S
H810 N807 0.984 . S
H811 N807 0.985 . S
H812 N806 0.984 . S
H813 N806 0.984 . S
H814 N802 0.984 . S
H815 N802 0.985 . S
C816 C817 1.363 . S
C816 C822 1.379 . S
C816 N824 1.356 . S
C817 C816 1.363 . S
C817 C823 1.363 . S
C818 C819 1.363 . S
C818 C823 1.379 . S
C818 N825 1.356 . S
C819 C818 1.363 . S
C819 C822 1.363 . S
N820 C822 1.356 . S
N820 H832 0.984 . S
N820 H833 0.985 . S
N821 C823 1.356 . S
N821 H826 0.984 . S
N821 H827 0.985 . S
C822 C816 1.379 . S
C822 C819 1.363 . S
C822 N820 1.356 . S
C823 C817 1.363 . S
C823 C818 1.379 . S
C823 N821 1.356 . S
N824 C816 1.356 . S
N824 H830 0.984 . S
N824 H831 0.984 . S
N825 C818 1.356 . S
N825 H828 0.984 . S
N825 H829 0.985 . S
H826 N821 0.984 . S
H827 N821 0.985 . S
H828 N825 0.984 . S
H829 N825 0.985 . S
H830 N824 0.984 . S
H831 N824 0.984 . S
H832 N820 0.984 . S
H833 N820 0.985 . S
C834 C835 1.363 . S
C834 C840 1.379 . S
C834 N842 1.356 . S
C835 C834 1.363 . S
C835 C841 1.363 . S
C836 C837 1.363 . S
C836 C841 1.379 . S
C836 N843 1.356 . S
C837 C836 1.363 . S
C837 C840 1.363 . S
N838 C840 1.356 . S
N838 H850 0.984 . S
N838 H851 0.985 . S
N839 C841 1.356 . S
N839 H844 0.984 . S
N839 H845 0.985 . S
C840 C834 1.379 . S
C840 C837 1.363 . S
C840 N838 1.356 . S
C841 C835 1.363 . S
C841 C836 1.379 . S
C841 N839 1.356 . S
N842 C834 1.356 . S
N842 H848 0.984 . S
N842 H849 0.984 . S
N843 C836 1.356 . S
N843 H846 0.984 . S
N843 H847 0.985 . S
H844 N839 0.984 . S
H845 N839 0.985 . S
H846 N843 0.984 . S
H847 N843 0.985 . S
H848 N842 0.984 . S
H849 N842 0.984 . S
H850 N838 0.984 . S
H851 N838 0.985 . S
C852 C853 1.363 . S
C852 C858 1.379 . S
C852 N860 1.356 . S
C853 C852 1.363 . S
C853 C859 1.363 . S
C854 C855 1.363 . S
C854 C859 1.379 . S
C854 N861 1.356 . S
C855 C854 1.363 . S
C855 C858 1.363 . S
N856 C858 1.356 . S
N856 H868 0.984 . S
N856 H869 0.985 . S
N857 C859 1.356 . S
N857 H862 0.984 . S
N857 H863 0.985 . S
C858 C852 1.379 . S
C858 C855 1.363 . S
C858 N856 1.356 . S
C859 C853 1.363 . S
C859 C854 1.379 . S
C859 N857 1.356 . S
N860 C852 1.356 . S
N860 H866 0.984 . S
N860 H867 0.984 . S
N861 C854 1.356 . S
N861 H864 0.984 . S
N861 H865 0.985 . S
H862 N857 0.984 . S
H863 N857 0.985 . S
H864 N861 0.984 . S
H865 N861 0.985 . S
H866 N860 0.984 . S
H867 N860 0.984 . S
H868 N856 0.984 . S
H869 N856 0.985 . S
C870 C871 1.363 . S
C870 C876 1.379 . S
C870 N878 1.356 . S
C871 C870 1.363 . S
C871 C877 1.363 . S
C872 C873 1.363 . S
C872 C877 1.379 . S
C872 N879 1.356 . S
C873 C872 1.363 . S
C873 C876 1.363 . S
N874 C876 1.356 . S
N874 H886 0.984 . S
N874 H887 0.985 . S
N875 C877 1.356 . S
N875 H880 0.984 . S
N875 H881 0.985 . S
C876 C870 1.379 . S
C876 C873 1.363 . S
C876 N874 1.356 . S
C877 C871 1.363 . S
C877 C872 1.379 . S
C877 N875 1.356 . S
N878 C870 1.356 . S
N878 H884 0.984 . S
N878 H885 0.984 . S
N879 C872 1.356 . S
N879 H882 0.984 . S
N879 H883 0.985 . S
H880 N875 0.984 . S
H881 N875 0.985 . S
H882 N879 0.984 . S
H883 N879 0.985 . S
H884 N878 0.984 . S
H885 N878 0.984 . S
H886 N874 0.984 . S
H887 N874 0.985 . S
C888 C889 1.363 . S
C888 C894 1.379 . S
C888 N896 1.356 . S
C889 C888 1.363 . S
C889 C895 1.363 . S
C890 C891 1.363 . S
C890 C895 1.379 . S
C890 N897 1.356 . S
C891 C890 1.363 . S
C891 C894 1.363 . S
N892 C894 1.356 . S
N892 H904 0.984 . S
N892 H905 0.985 . S
N893 C895 1.356 . S
N893 H898 0.984 . S
N893 H899 0.985 . S
C894 C888 1.379 . S
C894 C891 1.363 . S
C894 N892 1.356 . S
C895 C889 1.363 . S
C895 C890 1.379 . S
C895 N893 1.356 . S
N896 C888 1.356 . S
N896 H902 0.984 . S
N896 H903 0.984 . S
N897 C890 1.356 . S
N897 H900 0.984 . S
N897 H901 0.985 . S
H898 N893 0.984 . S
H899 N893 0.985 . S
H900 N897 0.984 . S
H901 N897 0.985 . S
H902 N896 0.984 . S
H903 N896 0.984 . S
H904 N892 0.984 . S
H905 N892 0.985 . S
C906 C907 1.363 . S
C906 C912 1.379 . S
C906 N914 1.356 . S
C907 C906 1.363 . S
C907 C913 1.363 . S
C908 C909 1.363 . S
C908 C913 1.379 . S
C908 N915 1.356 . S
C909 C908 1.363 . S
C909 C912 1.363 . S
N910 C912 1.356 . S
N910 H922 0.984 . S
N910 H923 0.985 . S
N911 C913 1.356 . S
N911 H916 0.984 . S
N911 H917 0.985 . S
C912 C906 1.379 . S
C912 C909 1.363 . S
C912 N910 1.356 . S
C913 C907 1.363 . S
C913 C908 1.379 . S
C913 N911 1.356 . S
N914 C906 1.356 . S
N914 H920 0.984 . S
N914 H921 0.984 . S
N915 C908 1.356 . S
N915 H918 0.984 . S
N915 H919 0.985 . S
H916 N911 0.984 . S
H917 N911 0.985 . S
H918 N915 0.984 . S
H919 N915 0.985 . S
H920 N914 0.984 . S
H921 N914 0.984 . S
H922 N910 0.984 . S
H923 N910 0.985 . S
C924 C925 1.363 . S
C924 C930 1.379 . S
C924 N932 1.356 . S
C925 C924 1.363 . S
C925 C931 1.363 . S
C926 C927 1.363 . S
C926 C931 1.379 . S
C926 N933 1.356 . S
C927 C926 1.363 . S
C927 C930 1.363 . S
N928 C930 1.356 . S
N928 H940 0.984 . S
N928 H941 0.985 . S
N929 C931 1.356 . S
N929 H934 0.984 . S
N929 H935 0.985 . S
C930 C924 1.379 . S
C930 C927 1.363 . S
C930 N928 1.356 . S
C931 C925 1.363 . S
C931 C926 1.379 . S
C931 N929 1.356 . S
N932 C924 1.356 . S
N932 H938 0.984 1_545 S
N932 H939 0.984 . S
N933 C926 1.356 . S
N933 H936 0.984 . S
N933 H937 0.985 . S
H934 N929 0.984 . S
H935 N929 0.985 . S
H936 N933 0.984 . S
H937 N933 0.985 . S
H938 N932 0.984 1_565 S
H939 N932 0.984 . S
H940 N928 0.984 . S
H941 N928 0.985 . S
C942 C943 1.363 . S
C942 C948 1.379 . S
C942 N950 1.356 . S
C943 C942 1.363 . S
C943 C949 1.363 . S
C944 C945 1.363 . S
C944 C949 1.379 . S
C944 N951 1.356 . S
C945 C944 1.363 . S
C945 C948 1.363 . S
N946 C948 1.356 . S
N946 H958 0.984 . S
N946 H959 0.985 . S
N947 C949 1.356 . S
N947 H952 0.984 . S
N947 H953 0.985 . S
C948 C942 1.379 . S
C948 C945 1.363 . S
C948 N946 1.356 . S
C949 C943 1.363 . S
C949 C944 1.379 . S
C949 N947 1.356 . S
N950 C942 1.356 . S
N950 H956 0.984 . S
N950 H957 0.984 . S
N951 C944 1.356 . S
N951 H954 0.984 . S
N951 H955 0.985 . S
H952 N947 0.984 . S
H953 N947 0.985 . S
H954 N951 0.984 . S
H955 N951 0.985 . S
H956 N950 0.984 . S
H957 N950 0.984 . S
H958 N946 0.984 . S
H959 N946 0.985 . S
C960 C961 1.363 . S
C960 C966 1.379 . S
C960 N968 1.356 . S
C961 C960 1.363 . S
C961 C967 1.363 . S
C962 C963 1.363 . S
C962 C967 1.379 . S
C962 N969 1.356 . S
C963 C962 1.363 . S
C963 C966 1.363 . S
N964 C966 1.356 . S
N964 H976 0.984 . S
N964 H977 0.985 . S
N965 C967 1.356 . S
N965 H970 0.984 . S
N965 H971 0.985 . S
C966 C960 1.379 . S
C966 C963 1.363 . S
C966 N964 1.356 . S
C967 C961 1.363 . S
C967 C962 1.379 . S
C967 N965 1.356 . S
N968 C960 1.356 . S
N968 H974 0.984 . S
N968 H975 0.984 . S
N969 C962 1.356 . S
N969 H972 0.984 . S
N969 H973 0.985 . S
H970 N965 0.984 . S
H971 N965 0.985 . S
H972 N969 0.984 . S
H973 N969 0.985 . S
H974 N968 0.984 . S
H975 N968 0.984 . S
H976 N964 0.984 . S
H977 N964 0.985 . S
C978 C979 1.363 . S
C978 C984 1.379 . S
C978 N986 1.356 . S
C979 C978 1.363 . S
C979 C985 1.363 . S
C980 C981 1.363 . S
C980 C985 1.379 . S
C980 N987 1.356 . S
C981 C980 1.363 . S
C981 C984 1.363 . S
N982 C984 1.356 . S
N982 H994 0.984 . S
N982 H995 0.985 . S
N983 C985 1.356 . S
N983 H988 0.984 . S
N983 H989 0.985 1_554 S
C984 C978 1.379 . S
C984 C981 1.363 . S
C984 N982 1.356 . S
C985 C979 1.363 . S
C985 C980 1.379 . S
C985 N983 1.356 . S
N986 C978 1.356 . S
N986 H992 0.984 . S
N986 H993 0.984 . S
N987 C980 1.356 . S
N987 H990 0.984 . S
N987 H991 0.985 . S
H988 N983 0.984 . S
H989 N983 0.985 1_556 S
H990 N987 0.984 . S
H991 N987 0.985 . S
H992 N986 0.984 . S
H993 N986 0.984 . S
H994 N982 0.984 . S
H995 N982 0.985 . S
C996 C997 1.363 . S
C996 C1002 1.379 . S
C996 N1004 1.356 . S
C997 C996 1.363 . S
C997 C1003 1.363 . S
C998 C999 1.363 . S
C998 C1003 1.379 . S
C998 N1005 1.356 . S
C999 C998 1.363 . S
C999 C1002 1.363 . S
N1000 C1002 1.356 . S
N1000 H1012 0.984 . S
N1000 H1013 0.985 . S
N1001 C1003 1.356 . S
N1001 H1006 0.984 . S
N1001 H1007 0.985 . S
C1002 C996 1.379 . S
C1002 C999 1.363 . S
C1002 N1000 1.356 . S
C1003 C997 1.363 . S
C1003 C998 1.379 . S
C1003 N1001 1.356 . S
N1004 C996 1.356 . S
N1004 H1010 0.984 . S
N1004 H1011 0.984 . S
N1005 C998 1.356 . S
N1005 H1008 0.984 . S
N1005 H1009 0.985 . S
H1006 N1001 0.984 . S
H1007 N1001 0.985 . S
H1008 N1005 0.984 . S
H1009 N1005 0.985 . S
H1010 N1004 0.984 . S
H1011 N1004 0.984 . S
H1012 N1000 0.984 . S
H1013 N1000 0.985 . S
C1014 C1015 1.363 . S
C1014 C1020 1.379 . S
C1014 N1022 1.356 . S
C1015 C1014 1.363 . S
C1015 C1021 1.363 . S
C1016 C1017 1.363 . S
C1016 C1021 1.379 . S
C1016 N1023 1.356 . S
C1017 C1016 1.363 . S
C1017 C1020 1.363 . S
N1018 C1020 1.356 . S
N1018 H1030 0.984 . S
N1018 H1031 0.985 . S
N1019 C1021 1.356 . S
N1019 H1024 0.984 . S
N1019 H1025 0.985 . S
C1020 C1014 1.379 . S
C1020 C1017 1.363 . S
C1020 N1018 1.356 . S
C1021 C1015 1.363 . S
C1021 C1016 1.379 . S
C1021 N1019 1.356 . S
N1022 C1014 1.356 . S
N1022 H1028 0.984 . S
N1022 H1029 0.984 . S
N1023 C1016 1.356 . S
N1023 H1026 0.984 . S
N1023 H1027 0.985 . S
H1024 N1019 0.984 . S
H1025 N1019 0.985 . S
H1026 N1023 0.984 . S
H1027 N1023 0.985 . S
H1028 N1022 0.984 . S
H1029 N1022 0.984 . S
H1030 N1018 0.984 . S
H1031 N1018 0.985 . S
C1032 C1033 1.363 . S
C1032 C1038 1.379 . S
C1032 N1040 1.356 . S
C1033 C1032 1.363 . S
C1033 C1039 1.363 . S
C1034 C1035 1.363 . S
C1034 C1039 1.379 . S
C1034 N1041 1.356 . S
C1035 C1034 1.363 . S
C1035 C1038 1.363 . S
N1036 C1038 1.356 . S
N1036 H1048 0.984 . S
N1036 H1049 0.985 . S
N1037 C1039 1.356 . S
N1037 H1042 0.984 . S
N1037 H1043 0.985 . S
C1038 C1032 1.379 . S
C1038 C1035 1.363 . S
C1038 N1036 1.356 . S
C1039 C1033 1.363 . S
C1039 C1034 1.379 . S
C1039 N1037 1.356 . S
N1040 C1032 1.356 . S
N1040 H1046 0.984 . S
N1040 H1047 0.984 . S
N1041 C1034 1.356 . S
N1041 H1044 0.984 . S
N1041 H1045 0.985 . S
H1042 N1037 0.984 . S
H1043 N1037 0.985 . S
H1044 N1041 0.984 . S
H1045 N1041 0.985 . S
H1046 N1040 0.984 . S
H1047 N1040 0.984 . S
H1048 N1036 0.984 . S
H1049 N1036 0.985 . S
C1050 C1051 1.363 . S
C1050 C1056 1.379 . S
C1050 N1058 1.356 . S
C1051 C1050 1.363 . S
C1051 C1057 1.363 . S
C1052 C1053 1.363 . S
C1052 C1057 1.379 . S
C1052 N1059 1.356 . S
C1053 C1052 1.363 . S
C1053 C1056 1.363 . S
N1054 C1056 1.356 . S
N1054 H1066 0.984 . S
N1054 H1067 0.985 . S
N1055 C1057 1.356 . S
N1055 H1060 0.984 . S
N1055 H1061 0.985 . S
C1056 C1050 1.379 . S
C1056 C1053 1.363 . S
C1056 N1054 1.356 . S
C1057 C1051 1.363 . S
C1057 C1052 1.379 . S
C1057 N1055 1.356 . S
N1058 C1050 1.356 . S
N1058 H1064 0.984 . S
N1058 H1065 0.984 . S
N1059 C1052 1.356 . S
N1059 H1062 0.984 . S
N1059 H1063 0.985 . S
H1060 N1055 0.984 . S
H1061 N1055 0.985 . S
H1062 N1059 0.984 . S
H1063 N1059 0.985 . S
H1064 N1058 0.984 . S
H1065 N1058 0.984 . S
H1066 N1054 0.984 . S
H1067 N1054 0.985 . S
C637 C39 1.986 . S
C639 C356 1.956 . S
C655 C91 1.645 . S
C657 C409 1.621 . S
C675 C462 1.675 . S
C673 C128 1.711 . S
C693 C499 1.329 . S
C691 C188 1.351 . S
C711 C559 1.690 . S
C709 C250 1.719 . S
C729 C612 1.574 . S
C727 C304 1.616 . S
C745 C75 1.846 . S
C747 C463 1.821 . S
C763 C144 1.622 . S
C765 C506 1.590 . S
C783 C552 1.739 . S
C781 C198 1.759 . S
C801 C605 1.346 . S
C799 C234 1.373 . S
C817 C294 1.655 . S
C819 C357 1.632 . S
C837 C410 1.475 . S
C835 C29 1.489 . S
C855 C516 1.956 . S
C853 C38 1.985 . S
C871 C92 1.645 . S
C873 C568 1.628 . S
C891 C621 1.683 . S
C889 C135 1.711 . S
C907 C181 1.351 . S
C909 C347 1.329 . S
C925 C251 1.719 . S
C927 C400 1.696 . S
C943 C303 1.616 . S
C945 C453 1.582 . S
C961 C82 1.846 . S
C963 C622 1.813 . S
C981 C340 1.590 . S
C979 C145 1.622 . S
C997 C197 1.759 . S
C999 C393 1.734 . S
C1015 C241 1.373 . S
C1017 C446 1.340 . S
C1033 C287 1.655 . S
C1035 C515 1.632 . S
C1051 C22 1.489 . S
C1053 C569 1.468 . S
