# Generated by pormake.
# Topology nia, (6,6)-cn, num edge types: 1
# Building blocks:
#     Node 0, Type 0, BuildingBlock: VOLQOD_clean_sbu_1, # of connection points: 6
#     Node 1, Type 0, BuildingBlock: VOLQOD_clean_sbu_1, # of connection points: 6
#     Node 2, Type 1, BuildingBlock: MIDCAF_clean_sbu_0, # of connection points: 6
#     Node 3, Type 1, BuildingBlock: MIDCAF_clean_sbu_0, # of connection points: 6
#     Edge 4, Type (0, 1), BuildingBlock: CIFDUS_clean_linker_0, # of connection points: 2
#     Edge 5, Type (0, 1), BuildingBlock: CIFDUS_clean_linker_0, # of connection points: 2
#     Edge 6, Type (0, 1), BuildingBlock: CIFDUS_clean_linker_0, # of connection points: 2
#     Edge 7, Type (0, 1), BuildingBlock: CIFDUS_clean_linker_0, # of connection points: 2
#     Edge 8, Type (0, 1), BuildingBlock: CIFDUS_clean_linker_0, # of connection points: 2
#     Edge 9, Type (0, 1), BuildingBlock: CIFDUS_clean_linker_0, # of connection points: 2
#     Edge 10, Type (0, 1), BuildingBlock: CIFDUS_clean_linker_0, # of connection points: 2
#     Edge 11, Type (0, 1), BuildingBlock: CIFDUS_clean_linker_0, # of connection points: 2
#     Edge 12, Type (0, 1), BuildingBlock: CIFDUS_clean_linker_0, # of connection points: 2
#     Edge 13, Type (0, 1), BuildingBlock: CIFDUS_clean_linker_0, # of connection points: 2
#     Edge 14, Type (0, 1), BuildingBlock: CIFDUS_clean_linker_0, # of connection points: 2
#     Edge 15, Type (0, 1), BuildingBlock: CIFDUS_clean_linker_0, # of connection points: 2
# Relax obj value: 0.144
# Max RMSD: 0.235
# Mean RMSD: 0.189
data_MOF--net-nia--node1-VOLQOD_clean_sbu_1--node2-MIDCAF_clean_sbu_0--edge1-CIFDUS_clean_linker_0
_symmetry_space_group_name_H-M    P1
_symmetry_Int_Tables_number       1
_symmetry_cell_setting            triclinic
loop_
_symmetry_equiv_pos_as_xyz
'x, y, z'
_cell_length_a     22.211353
_cell_length_b     22.140607
_cell_length_c     28.929146
_cell_angle_alpha  90.081401
_cell_angle_beta   89.963529
_cell_angle_gamma 122.3201
loop_
_atom_site_label
_atom_site_type_symbol
_atom_site_fract_x
_atom_site_fract_y
_atom_site_fract_z
_atom_type_partial_charge
O0 O 0.04808 0.04546 0.96835 0.0
Zn1 Zn -0.0543 -0.02025 0.98769 0.0
O2 O 0.9355 -0.02315 1.05542 0.0
Zn3 Zn 0.89955 0.88061 0.07925 0.0
Zn4 Zn 0.02699 0.04321 0.08406 0.0
Zn5 Zn 0.86973 0.006 0.07126 0.0
O6 O 0.80779 0.84306 0.11528 0.0
O7 O 0.79163 0.93361 0.11152 0.0
O8 O 0.90881 0.88114 0.96252 0.0
O9 O 0.88095 0.81398 1.02577 0.0
O10 O -0.0296 0.8792 0.12271 0.0
O11 O 0.05993 -0.00732 0.12456 0.0
O12 O 0.02435 0.11733 0.12239 0.0
O13 O 0.88993 0.01631 0.9565 0.0
O14 O 0.918 0.09854 0.10633 0.0
O15 O 0.82669 0.02012 1.01465 0.0
C16 C 0.10279 0.09067 0.99137 0.0
C17 C 0.77289 0.87173 0.12597 0.0
C18 C 0.03172 0.92798 0.13723 0.0
C19 C 0.88595 0.82106 0.9819 0.0
C20 C -0.02167 0.13454 0.12612 0.0
C21 C 0.84218 0.02621 0.97185 0.0
O22 O 0.10073 0.0959 1.0351 0.0
O23 O 0.05075 0.14026 0.52348 0.0
Zn24 Zn 0.00652 0.07997 0.57956 0.0
O25 O -0.05533 -0.01946 0.56277 0.0
Zn26 Zn 0.85238 0.94281 0.5913 0.0
Zn27 Zn 0.93364 -0.02586 0.49483 0.0
Zn28 Zn -0.01329 0.92823 0.58621 0.0
O29 O 0.82865 0.86266 0.63415 0.0
O30 O 0.91676 0.84378 0.62643 0.0
O31 O -0.04677 0.1157 0.61307 0.0
O32 O 0.84703 0.01827 0.62646 0.0
O33 O 0.77582 0.89885 0.54322 0.0
O34 O 0.83048 0.92144 0.47525 0.0
O35 O -0.02448 0.91995 0.4692 0.0
O36 O 0.08433 0.09621 0.62224 0.0
O37 O 0.01675 0.89421 0.53153 0.0
O38 O 0.07411 -0.00891 0.62561 0.0
C39 C 0.03591 0.13163 0.48056 0.0
C40 C 0.85689 0.82713 0.64363 0.0
C41 C 0.77387 0.89375 0.49934 0.0
C42 C 0.89152 0.08514 0.63106 0.0
C43 C 0.00814 0.89336 0.48787 0.0
C44 C 0.10525 0.05659 0.63734 0.0
O45 O -0.01277 0.07164 0.46419 0.0
Zn46 Zn 0.25777 0.66048 0.21962 0.0
Zn47 Zn 0.25872 0.63223 0.39396 0.0
Zn48 Zn 0.26258 0.65228 0.30977 0.0
C49 C 0.40054 0.69988 0.37198 0.0
C50 C 0.1788 0.49901 0.36496 0.0
O51 O 0.20741 0.70939 0.29345 0.0
O52 O 0.22336 0.72603 0.21781 0.0
C53 C 0.39983 0.72058 0.24342 0.0
O54 O 0.37591 0.70613 0.33313 0.0
O55 O 0.35797 0.66323 0.40393 0.0
O56 O 0.19025 0.53067 0.40314 0.0
O57 O 0.20346 0.53531 0.32729 0.0
O58 O 0.35996 0.69966 0.20834 0.0
O59 O 0.37355 0.71072 0.28442 0.0
O60 O 0.20315 0.54376 0.27969 0.0
O61 O 0.18886 0.55835 0.20569 0.0
C62 C 0.17748 0.5176 0.23945 0.0
O63 O 0.21516 0.70912 0.34167 0.0
O64 O 0.23418 0.69959 0.41546 0.0
C65 C 0.20037 0.73521 0.25533 0.0
C66 C 0.21415 0.72488 0.38444 0.0
Zn67 Zn 0.60384 0.29303 0.89774 0.0
Zn68 Zn 0.62797 0.3139 0.73391 0.0
Zn69 Zn 0.61632 0.3031 0.81663 0.0
C70 C 0.6814 0.44921 0.76088 0.0
C71 C 0.48727 0.21985 0.74645 0.0
O72 O 0.65144 0.23119 0.84086 0.0
O73 O 0.5956 0.20081 0.90778 0.0
C74 C 0.71397 0.42811 0.88724 0.0
O75 O 0.68239 0.41877 0.79856 0.0
O76 O 0.64828 0.4117 0.72609 0.0
O77 O 0.5329 0.23228 0.71587 0.0
O78 O 0.50749 0.24918 0.78664 0.0
O79 O 0.69381 0.37947 0.91701 0.0
O80 O 0.68551 0.41214 0.84667 0.0
O81 O 0.50225 0.2574 0.83386 0.0
O82 O 0.51634 0.29389 0.90609 0.0
C83 C 0.47637 0.26578 0.87145 0.0
O84 O 0.66792 0.24666 0.79377 0.0
O85 O 0.70831 0.30013 0.7265 0.0
C86 C 0.63082 0.19184 0.8774 0.0
C87 C 0.7062 0.25895 0.75742 0.0
H88 H -0.01865 0.81069 0.1926 0.0
H89 H 0.17539 0.00283 0.14937 0.0
H90 H 0.24582 0.96534 0.19037 0.0
H91 H 0.25241 0.87014 0.22861 0.0
H92 H 0.05993 0.67809 0.27216 0.0
H93 H -0.0114 0.72398 0.24229 0.0
C94 C 0.03901 0.84468 0.19266 0.0
C95 C 0.07306 0.90873 0.16713 0.0
C96 C 0.07941 0.82298 0.21663 0.0
C97 C 0.14779 0.95296 0.16833 0.0
C98 C 0.18821 0.93157 0.19176 0.0
C99 C 0.195 0.83977 0.23306 0.0
C100 C 0.16119 0.77146 0.25284 0.0
C101 C 0.15466 0.86576 0.21477 0.0
C102 C 0.08687 0.73154 0.25784 0.0
C103 C 0.04616 0.75731 0.2401 0.0
H104 H 0.19382 0.00908 0.65245 0.0
H105 H 0.15922 0.17693 0.68994 0.0
H106 H 0.27072 0.23771 0.73339 0.0
H107 H 0.38466 0.25003 0.75343 0.0
H108 H 0.4232 0.08739 0.71019 0.0
H109 H 0.30358 0.0172 0.67692 0.0
C110 C 0.21018 0.05839 0.6707 0.0
C111 C 0.16871 0.08876 0.66759 0.0
C112 C 0.27535 0.09414 0.69451 0.0
C113 C 0.19072 0.15288 0.6913 0.0
C114 C 0.25443 0.18767 0.71623 0.0
C115 C 0.36586 0.19843 0.73763 0.0
C116 C 0.41171 0.17324 0.7344 0.0
C117 C 0.29812 0.15982 0.71704 0.0
C118 C 0.38805 0.10719 0.71314 0.0
C119 C 0.31997 0.06734 0.69399 0.0
H120 H 0.07615 0.2003 0.19459 0.0
H121 H 0.92408 0.21785 0.11236 0.0
H122 H -0.03174 0.33658 0.1441 0.0
H123 H 0.05914 0.44041 0.1882 0.0
H124 H 0.20939 0.42282 0.27197 0.0
H125 H 0.15615 0.29844 0.24738 0.0
C126 C 0.05218 0.22985 0.18411 0.0
C127 C -0.00212 0.20105 0.15062 0.0
C128 C 0.0776 0.29794 0.20265 0.0
C129 C -0.03377 0.23911 0.13793 0.0
C130 C -0.00837 0.3071 0.15589 0.0
C131 C 0.07926 0.40872 0.20156 0.0
C132 C 0.13808 0.44018 0.23143 0.0
C133 C 0.04861 0.33776 0.18718 0.0
C134 C 0.16374 0.3991 0.24906 0.0
C135 C 0.13372 0.32835 0.23474 0.0
H136 H 0.78383 0.03917 0.69339 0.0
H137 H -0.04478 0.2295 0.62823 0.0
H138 H 0.91827 0.30184 0.66748 0.0
H139 H 0.83066 0.30942 0.71385 0.0
H140 H 0.65757 0.12014 0.77798 0.0
H141 H 0.70307 0.0491 0.74684 0.0
C142 C 0.81319 0.0965 0.68797 0.0
C143 C 0.87132 0.12875 0.65732 0.0
C144 C 0.79181 0.13795 0.71077 0.0
C145 C 0.90987 0.20327 0.65134 0.0
C146 C 0.88888 0.24475 0.67378 0.0
C147 C 0.80385 0.25284 0.7217 0.0
C148 C 0.74124 0.2198 0.74808 0.0
C149 C 0.82909 0.21243 0.7027 0.0
C150 C 0.7066 0.14667 0.75823 0.0
C151 C 0.73204 0.106 0.73994 0.0
H152 H 0.71009 0.92783 0.17457 0.0
H153 H 0.69038 0.72764 0.14215 0.0
H154 H 0.57553 0.66262 0.1821 0.0
H155 H 0.47461 0.6627 0.21798 0.0
H156 H 0.49388 0.86282 0.24807 0.0
H157 H 0.61577 0.92841 0.21782 0.0
C158 C 0.68099 0.86997 0.17654 0.0
C159 C 0.70799 0.83248 0.15469 0.0
C160 C 0.61513 0.83316 0.19924 0.0
C161 C 0.67042 0.75767 0.15839 0.0
C162 C 0.60472 0.72049 0.18111 0.0
C163 C 0.50663 0.72066 0.21902 0.0
C164 C 0.4767 0.7584 0.23575 0.0
C165 C 0.57576 0.75763 0.20057 0.0
C166 C 0.51709 0.83325 0.2361 0.0
C167 C 0.58625 0.87051 0.21845 0.0
H168 H 0.90582 0.76145 0.69867 0.0
H169 H 0.71348 0.74541 0.65118 0.0
H170 H 0.64142 0.63058 0.68949 0.0
H171 H 0.63295 0.52838 0.7283 0.0
H172 H 0.82247 0.54275 0.77871 0.0
H173 H 0.89578 0.6652 0.74873 0.0
C174 C 0.84816 0.73301 0.69722 0.0
C175 C 0.81513 0.76139 0.6715 0.0
C176 C 0.80657 0.66693 0.72001 0.0
C177 C 0.74033 0.72469 0.67056 0.0
C178 C 0.69893 0.65888 0.69241 0.0
C179 C 0.69016 0.55929 0.7338 0.0
C180 C 0.72263 0.52724 0.75536 0.0
C181 C 0.73146 0.62874 0.71617 0.0
C182 C 0.7966 0.56706 0.76242 0.0
C183 C 0.83842 0.63659 0.74481 0.0
H184 H 0.13443 0.90826 0.50099 0.0
H185 H -0.04457 0.81599 0.40784 0.0
H186 H 0.00797 0.76143 0.36246 0.0
H187 H 0.09969 0.72984 0.35535 0.0
H188 H 0.27892 0.82712 0.44858 0.0
H189 H 0.23207 0.89083 0.48763 0.0
C190 C 0.10708 0.87635 0.47065 0.0
C191 C 0.04071 0.86447 0.45824 0.0
C192 C 0.13783 0.8464 0.44475 0.0
C193 C 0.00644 0.82489 0.41819 0.0
C194 C 0.0364 0.79382 0.39234 0.0
C195 C 0.12936 0.76694 0.38307 0.0
C196 C 0.19227 0.77378 0.39927 0.0
C197 C 0.1015 0.80297 0.40592 0.0
C198 C 0.22995 0.82081 0.43589 0.0
C199 C 0.20314 0.85698 0.45836 0.0
H200 H 0.14978 0.06561 0.91083 0.0
H201 H 0.20799 0.22284 1.01841 0.0
H202 H 0.32584 0.29788 0.98441 0.0
H203 H 0.41641 0.31175 0.93059 0.0
H204 H 0.3648 0.14898 0.8286 0.0
H205 H 0.23971 0.08469 0.85233 0.0
C206 C 0.18803 0.11682 0.92629 0.0
C207 C 0.17075 0.13832 0.96738 0.0
C208 C 0.25668 0.15887 0.90731 0.0
C209 C 0.2206 0.20467 0.98721 0.0
C210 C 0.28785 0.24772 0.96772 0.0
C211 C 0.37745 0.26288 0.91293 0.0
C212 C 0.3995 0.23546 0.87759 0.0
C213 C 0.3071 0.22429 0.92872 0.0
C214 C 0.3487 0.17223 0.85495 0.0
C215 C 0.27744 0.13474 0.8692 0.0
H216 H -0.01424 0.17462 0.40997 0.0
H217 H 0.17678 0.22841 0.48404 0.0
H218 H 0.24251 0.34387 0.44536 0.0
H219 H 0.24018 0.43649 0.40202 0.0
H220 H 0.04852 0.3907 0.33321 0.0
H221 H -0.01152 0.26466 0.35702 0.0
C222 C 0.04217 0.21111 0.41655 0.0
C223 C 0.07648 0.19388 0.45009 0.0
C224 C 0.07909 0.27887 0.39541 0.0
C225 C 0.14936 0.2413 0.45874 0.0
C226 C 0.1869 0.3072 0.43669 0.0
C227 C 0.18588 0.39814 0.39114 0.0
C228 C 0.14835 0.42183 0.36625 0.0
C229 C 0.15154 0.32763 0.40665 0.0
C230 C 0.0781 0.3728 0.3523 0.0
C231 C 0.04382 0.30119 0.36631 0.0
H232 H 0.70608 -0.00933 0.97594 0.0
H233 H 0.89981 0.11584 0.89774 0.0
H234 H 0.84735 0.1729 0.85566 0.0
H235 H 0.75291 0.2001 0.85086 0.0
H236 H 0.55872 0.07147 0.92836 0.0
H237 H 0.6047 0.00259 0.96095 0.0
C238 C 0.73627 0.02956 0.9491 0.0
C239 C 0.80686 0.05014 0.94042 0.0
C240 C 0.70594 0.06193 0.92531 0.0
C241 C 0.8453 0.09952 0.90506 0.0
C242 C 0.81551 0.13241 0.88125 0.0
C243 C 0.71972 0.15519 0.87341 0.0
C244 C 0.65272 0.14101 0.88734 0.0
C245 C 0.74673 0.11586 0.89232 0.0
C246 C 0.61076 0.08369 0.91744 0.0
C247 C 0.63702 0.04439 0.9362 0.0
H248 H 0.72691 0.91416 0.41673 0.0
H249 H 0.66532 0.76955 0.53226 0.0
H250 H 0.54801 0.69147 0.49845 0.0
H251 H 0.46092 0.66818 0.43989 0.0
H252 H 0.51232 0.8186 0.32953 0.0
H253 H 0.63647 0.88922 0.35606 0.0
C254 C 0.68765 0.86532 0.43414 0.0
C255 C 0.70417 0.84772 0.47705 0.0
C256 C 0.61902 0.8215 0.41513 0.0
C257 C 0.65323 0.78457 0.49955 0.0
C258 C 0.58637 0.73972 0.48014 0.0
C259 C 0.49924 0.71613 0.42123 0.0
C260 C 0.47762 0.73771 0.38232 0.0
C261 C 0.56841 0.75829 0.43848 0.0
C262 C 0.52816 0.79975 0.35861 0.0
C263 C 0.59877 0.84076 0.37441 0.0
H264 H 0.89728 0.70862 1.00143 0.0
H265 H 0.82096 0.79105 0.8975 0.0
H266 H 0.76722 0.67808 0.85472 0.0
H267 H 0.72904 0.55061 0.85311 0.0
H268 H 0.81072 0.47182 0.95611 0.0
H269 H 0.87555 0.58873 0.99292 0.0
C270 C 0.86949 0.702 0.96916 0.0
C271 C 0.8618 0.75717 0.95301 0.0
C272 C 0.83943 0.63752 0.94475 0.0
C273 C 0.82708 0.74885 0.91069 0.0
C274 C 0.79617 0.68428 0.88634 0.0
C275 C 0.76313 0.55982 0.88249 0.0
C276 C 0.7647 0.50255 0.90194 0.0
C277 C 0.80034 0.62748 0.90375 0.0
C278 C 0.80801 0.51491 0.94074 0.0
C279 C 0.84499 0.58169 0.96195 0.0
loop_
_geom_bond_atom_site_label_1
_geom_bond_atom_site_label_2
_geom_bond_distance
_geom_bond_site_symmetry_2
_ccdc_geom_bond_type
O0 Zn1 1.953 1_545 S
O0 C16 1.225 . S
Zn1 O0 1.953 1_565 S
Zn1 O2 1.949 1_566 S
Zn1 O8 1.919 1_455 S
Zn1 O13 1.924 1_465 S
O2 Zn1 1.949 1_544 S
O2 Zn3 1.923 1_445 S
O2 Zn4 1.950 . S
O2 Zn5 1.945 1_455 S
Zn3 O2 1.923 1_665 S
Zn3 O6 1.933 . S
Zn3 O9 1.941 1_554 S
Zn3 O10 1.965 1_655 S
Zn4 O2 1.950 . S
Zn4 O11 1.938 . S
Zn4 O12 1.906 . S
Zn4 O22 1.953 1_554 S
Zn5 O2 1.945 1_655 S
Zn5 O7 1.932 1_545 S
Zn5 O14 1.977 1_655 S
Zn5 O15 1.910 1_554 S
O6 Zn3 1.933 . S
O6 C17 1.226 . S
O7 Zn5 1.932 1_565 S
O7 C17 1.307 . S
O8 Zn1 1.919 1_655 S
O8 C19 1.253 . S
O9 Zn3 1.941 1_556 S
O9 C19 1.283 . S
O10 Zn3 1.965 1_455 S
O10 C18 1.303 . S
O11 Zn4 1.938 . S
O11 C18 1.247 1_545 S
O12 Zn4 1.906 . S
O12 C20 1.304 . S
O13 Zn1 1.924 1_645 S
O13 C21 1.311 . S
O14 Zn5 1.977 1_455 S
O14 C20 1.272 . S
O15 Zn5 1.910 1_556 S
O15 C21 1.231 . S
C16 O0 1.225 . S
C16 O22 1.298 . S
C17 O6 1.226 . S
C17 O7 1.307 . S
C18 O10 1.303 . S
C18 O11 1.247 1_565 S
C19 O8 1.253 . S
C19 O9 1.283 . S
C20 O12 1.304 . S
C20 O14 1.272 . S
C21 O13 1.311 . S
C21 O15 1.231 . S
O22 Zn4 1.953 1_556 S
O22 C16 1.298 . S
O23 Zn24 1.953 . S
O23 C39 1.225 . S
Zn24 O23 1.953 . S
Zn24 O25 1.949 . S
Zn24 O31 1.919 1_455 S
Zn24 O36 1.924 . S
O25 Zn24 1.949 . S
O25 Zn26 1.923 1_445 S
O25 Zn27 1.950 . S
O25 Zn28 1.945 1_545 S
Zn26 O25 1.923 1_665 S
Zn26 O29 1.933 . S
Zn26 O32 1.941 1_565 S
Zn26 O33 1.965 . S
Zn27 O25 1.950 . S
Zn27 O34 1.938 1_445 S
Zn27 O35 1.906 1_545 S
Zn27 O45 1.953 . S
Zn28 O25 1.945 1_565 S
Zn28 O30 1.932 1_455 S
Zn28 O37 1.977 . S
Zn28 O38 1.910 1_565 S
O29 Zn26 1.933 . S
O29 C40 1.226 . S
O30 Zn28 1.932 1_655 S
O30 C40 1.307 . S
O31 Zn24 1.919 1_655 S
O31 C42 1.253 . S
O32 Zn26 1.941 1_545 S
O32 C42 1.283 . S
O33 Zn26 1.965 . S
O33 C41 1.303 . S
O34 Zn27 1.938 1_665 S
O34 C41 1.247 . S
O35 Zn27 1.906 1_565 S
O35 C43 1.304 . S
O36 Zn24 1.924 . S
O36 C44 1.311 . S
O37 Zn28 1.977 . S
O37 C43 1.272 . S
O38 Zn28 1.910 1_545 S
O38 C44 1.231 . S
C39 O23 1.225 . S
C39 O45 1.298 . S
C40 O29 1.226 . S
C40 O30 1.307 . S
C41 O33 1.303 . S
C41 O34 1.247 . S
C42 O31 1.253 . S
C42 O32 1.283 . S
C43 O35 1.304 . S
C43 O37 1.272 . S
C44 O36 1.311 . S
C44 O38 1.231 . S
O45 Zn27 1.953 . S
O45 C39 1.298 . S
Zn46 O52 1.920 . S
Zn46 O58 1.898 . S
Zn46 O61 1.905 . S
Zn47 O55 1.905 . S
Zn47 O56 1.898 . S
Zn47 O64 1.920 . S
Zn48 O51 2.080 . S
Zn48 O54 2.114 . S
Zn48 O57 2.120 . S
Zn48 O59 2.120 . S
Zn48 O60 2.114 . S
Zn48 O63 2.080 . S
C49 O54 1.166 . S
C49 O55 1.182 . S
C50 O56 1.167 . S
C50 O57 1.299 . S
O51 Zn48 2.080 . S
O51 C65 1.305 . S
O52 Zn46 1.920 . S
O52 C65 1.234 . S
C53 O58 1.167 . S
C53 O59 1.299 . S
O54 Zn48 2.114 . S
O54 C49 1.166 . S
O55 Zn47 1.905 . S
O55 C49 1.182 . S
O56 Zn47 1.898 . S
O56 C50 1.167 . S
O57 Zn48 2.120 . S
O57 C50 1.299 . S
O58 Zn46 1.898 . S
O58 C53 1.167 . S
O59 Zn48 2.120 . S
O59 C53 1.299 . S
O60 Zn48 2.114 . S
O60 C62 1.166 . S
O61 Zn46 1.905 . S
O61 C62 1.182 . S
C62 O60 1.166 . S
C62 O61 1.182 . S
O63 Zn48 2.080 . S
O63 C66 1.305 . S
O64 Zn47 1.920 . S
O64 C66 1.234 . S
C65 O51 1.305 . S
C65 O52 1.234 . S
C66 O63 1.305 . S
C66 O64 1.234 . S
Zn67 O73 1.920 . S
Zn67 O79 1.898 . S
Zn67 O82 1.905 . S
Zn68 O76 1.905 . S
Zn68 O77 1.898 . S
Zn68 O85 1.920 . S
Zn69 O72 2.080 . S
Zn69 O75 2.114 . S
Zn69 O78 2.120 . S
Zn69 O80 2.120 . S
Zn69 O81 2.114 . S
Zn69 O84 2.080 . S
C70 O75 1.166 . S
C70 O76 1.182 . S
C71 O77 1.167 . S
C71 O78 1.299 . S
O72 Zn69 2.080 . S
O72 C86 1.305 . S
O73 Zn67 1.920 . S
O73 C86 1.234 . S
C74 O79 1.167 . S
C74 O80 1.299 . S
O75 Zn69 2.114 . S
O75 C70 1.166 . S
O76 Zn68 1.905 . S
O76 C70 1.182 . S
O77 Zn68 1.898 . S
O77 C71 1.167 . S
O78 Zn69 2.120 . S
O78 C71 1.299 . S
O79 Zn67 1.898 . S
O79 C74 1.167 . S
O80 Zn69 2.120 . S
O80 C74 1.299 . S
O81 Zn69 2.114 . S
O81 C83 1.166 . S
O82 Zn67 1.905 . S
O82 C83 1.182 . S
C83 O81 1.166 . S
C83 O82 1.182 . S
O84 Zn69 2.080 . S
O84 C87 1.305 . S
O85 Zn68 1.920 . S
O85 C87 1.234 . S
C86 O72 1.305 . S
C86 O73 1.234 . S
C87 O84 1.305 . S
C87 O85 1.234 . S
H88 C94 0.930 . S
H89 C97 0.930 1_545 S
H90 C98 0.930 . S
H91 C99 0.930 . S
H92 C102 0.930 . S
H93 C103 0.930 . S
C94 H88 0.930 . S
C94 C95 1.355 . S
C94 C96 1.415 . S
C95 C94 1.355 . S
C95 C97 1.419 . S
C96 C94 1.415 . S
C96 C101 1.425 . S
C96 C103 1.409 . S
C97 H89 0.930 1_565 S
C97 C95 1.419 . S
C97 C98 1.362 . S
C98 H90 0.930 . S
C98 C97 1.362 . S
C98 C101 1.409 . S
C99 H91 0.930 . S
C99 C100 1.355 . S
C99 C101 1.415 . S
C100 C99 1.355 . S
C100 C102 1.419 . S
C101 C96 1.425 . S
C101 C98 1.409 . S
C101 C99 1.415 . S
C102 H92 0.930 . S
C102 C100 1.419 . S
C102 C103 1.362 . S
C103 H93 0.930 . S
C103 C96 1.409 . S
C103 C102 1.362 . S
H104 C110 0.930 . S
H105 C113 0.930 . S
H106 C114 0.930 . S
H107 C115 0.930 . S
H108 C118 0.930 . S
H109 C119 0.930 . S
C110 H104 0.930 . S
C110 C111 1.355 . S
C110 C112 1.415 . S
C111 C110 1.355 . S
C111 C113 1.419 . S
C112 C110 1.415 . S
C112 C117 1.425 . S
C112 C119 1.409 . S
C113 H105 0.930 . S
C113 C111 1.419 . S
C113 C114 1.362 . S
C114 H106 0.930 . S
C114 C113 1.362 . S
C114 C117 1.409 . S
C115 H107 0.930 . S
C115 C116 1.355 . S
C115 C117 1.415 . S
C116 C115 1.355 . S
C116 C118 1.419 . S
C117 C112 1.425 . S
C117 C114 1.409 . S
C117 C115 1.415 . S
C118 H108 0.930 . S
C118 C116 1.419 . S
C118 C119 1.362 . S
C119 H109 0.930 . S
C119 C112 1.409 . S
C119 C118 1.362 . S
H120 C126 0.930 . S
H121 C129 0.930 . S
H122 C130 0.930 . S
H123 C131 0.930 . S
H124 C134 0.930 . S
H125 C135 0.930 . S
C126 H120 0.930 . S
C126 C127 1.355 . S
C126 C128 1.415 . S
C127 C126 1.355 . S
C127 C129 1.419 . S
C128 C126 1.415 . S
C128 C133 1.425 . S
C128 C135 1.409 . S
C129 H121 0.930 . S
C129 C127 1.419 . S
C129 C130 1.362 . S
C130 H122 0.930 . S
C130 C129 1.362 . S
C130 C133 1.409 . S
C131 H123 0.930 . S
C131 C132 1.355 . S
C131 C133 1.415 . S
C132 C131 1.355 . S
C132 C134 1.419 . S
C133 C128 1.425 . S
C133 C130 1.409 . S
C133 C131 1.415 . S
C134 H124 0.930 . S
C134 C132 1.419 . S
C134 C135 1.362 . S
C135 H125 0.930 . S
C135 C128 1.409 . S
C135 C134 1.362 . S
H136 C142 0.930 . S
H137 C145 0.930 . S
H138 C146 0.930 . S
H139 C147 0.930 . S
H140 C150 0.930 . S
H141 C151 0.930 . S
C142 H136 0.930 . S
C142 C143 1.355 . S
C142 C144 1.415 . S
C143 C142 1.355 . S
C143 C145 1.419 . S
C144 C142 1.415 . S
C144 C149 1.425 . S
C144 C151 1.409 . S
C145 H137 0.930 . S
C145 C143 1.419 . S
C145 C146 1.362 . S
C146 H138 0.930 . S
C146 C145 1.362 . S
C146 C149 1.409 . S
C147 H139 0.930 . S
C147 C148 1.355 . S
C147 C149 1.415 . S
C148 C147 1.355 . S
C148 C150 1.419 . S
C149 C144 1.425 . S
C149 C146 1.409 . S
C149 C147 1.415 . S
C150 H140 0.930 . S
C150 C148 1.419 . S
C150 C151 1.362 . S
C151 H141 0.930 . S
C151 C144 1.409 . S
C151 C150 1.362 . S
H152 C158 0.930 . S
H153 C161 0.930 . S
H154 C162 0.930 . S
H155 C163 0.930 . S
H156 C166 0.930 . S
H157 C167 0.930 . S
C158 H152 0.930 . S
C158 C159 1.355 . S
C158 C160 1.415 . S
C159 C158 1.355 . S
C159 C161 1.419 . S
C160 C158 1.415 . S
C160 C165 1.425 . S
C160 C167 1.409 . S
C161 H153 0.930 . S
C161 C159 1.419 . S
C161 C162 1.362 . S
C162 H154 0.930 . S
C162 C161 1.362 . S
C162 C165 1.409 . S
C163 H155 0.930 . S
C163 C164 1.355 . S
C163 C165 1.415 . S
C164 C163 1.355 . S
C164 C166 1.419 . S
C165 C160 1.425 . S
C165 C162 1.409 . S
C165 C163 1.415 . S
C166 H156 0.930 . S
C166 C164 1.419 . S
C166 C167 1.362 . S
C167 H157 0.930 . S
C167 C160 1.409 . S
C167 C166 1.362 . S
H168 C174 0.930 . S
H169 C177 0.930 . S
H170 C178 0.930 . S
H171 C179 0.930 . S
H172 C182 0.930 . S
H173 C183 0.930 . S
C174 H168 0.930 . S
C174 C175 1.355 . S
C174 C176 1.415 . S
C175 C174 1.355 . S
C175 C177 1.419 . S
C176 C174 1.415 . S
C176 C181 1.425 . S
C176 C183 1.409 . S
C177 H169 0.930 . S
C177 C175 1.419 . S
C177 C178 1.362 . S
C178 H170 0.930 . S
C178 C177 1.362 . S
C178 C181 1.409 . S
C179 H171 0.930 . S
C179 C180 1.355 . S
C179 C181 1.415 . S
C180 C179 1.355 . S
C180 C182 1.419 . S
C181 C176 1.425 . S
C181 C178 1.409 . S
C181 C179 1.415 . S
C182 H172 0.930 . S
C182 C180 1.419 . S
C182 C183 1.362 . S
C183 H173 0.930 . S
C183 C176 1.409 . S
C183 C182 1.362 . S
H184 C190 0.930 . S
H185 C193 0.930 . S
H186 C194 0.930 . S
H187 C195 0.930 . S
H188 C198 0.930 . S
H189 C199 0.930 . S
C190 H184 0.930 . S
C190 C191 1.355 . S
C190 C192 1.415 . S
C191 C190 1.355 . S
C191 C193 1.419 . S
C192 C190 1.415 . S
C192 C197 1.425 . S
C192 C199 1.409 . S
C193 H185 0.930 . S
C193 C191 1.419 . S
C193 C194 1.362 . S
C194 H186 0.930 . S
C194 C193 1.362 . S
C194 C197 1.409 . S
C195 H187 0.930 . S
C195 C196 1.355 . S
C195 C197 1.415 . S
C196 C195 1.355 . S
C196 C198 1.419 . S
C197 C192 1.425 . S
C197 C194 1.409 . S
C197 C195 1.415 . S
C198 H188 0.930 . S
C198 C196 1.419 . S
C198 C199 1.362 . S
C199 H189 0.930 . S
C199 C192 1.409 . S
C199 C198 1.362 . S
H200 C206 0.930 . S
H201 C209 0.930 . S
H202 C210 0.930 . S
H203 C211 0.930 . S
H204 C214 0.930 . S
H205 C215 0.930 . S
C206 H200 0.930 . S
C206 C207 1.355 . S
C206 C208 1.415 . S
C207 C206 1.355 . S
C207 C209 1.419 . S
C208 C206 1.415 . S
C208 C213 1.425 . S
C208 C215 1.409 . S
C209 H201 0.930 . S
C209 C207 1.419 . S
C209 C210 1.362 . S
C210 H202 0.930 . S
C210 C209 1.362 . S
C210 C213 1.409 . S
C211 H203 0.930 . S
C211 C212 1.355 . S
C211 C213 1.415 . S
C212 C211 1.355 . S
C212 C214 1.419 . S
C213 C208 1.425 . S
C213 C210 1.409 . S
C213 C211 1.415 . S
C214 H204 0.930 . S
C214 C212 1.419 . S
C214 C215 1.362 . S
C215 H205 0.930 . S
C215 C208 1.409 . S
C215 C214 1.362 . S
H216 C222 0.930 . S
H217 C225 0.930 . S
H218 C226 0.930 . S
H219 C227 0.930 . S
H220 C230 0.930 . S
H221 C231 0.930 . S
C222 H216 0.930 . S
C222 C223 1.355 . S
C222 C224 1.415 . S
C223 C222 1.355 . S
C223 C225 1.419 . S
C224 C222 1.415 . S
C224 C229 1.425 . S
C224 C231 1.409 . S
C225 H217 0.930 . S
C225 C223 1.419 . S
C225 C226 1.362 . S
C226 H218 0.930 . S
C226 C225 1.362 . S
C226 C229 1.409 . S
C227 H219 0.930 . S
C227 C228 1.355 . S
C227 C229 1.415 . S
C228 C227 1.355 . S
C228 C230 1.419 . S
C229 C224 1.425 . S
C229 C226 1.409 . S
C229 C227 1.415 . S
C230 H220 0.930 . S
C230 C228 1.419 . S
C230 C231 1.362 . S
C231 H221 0.930 . S
C231 C224 1.409 . S
C231 C230 1.362 . S
H232 C238 0.930 . S
H233 C241 0.930 . S
H234 C242 0.930 . S
H235 C243 0.930 . S
H236 C246 0.930 . S
H237 C247 0.930 . S
C238 H232 0.930 . S
C238 C239 1.355 . S
C238 C240 1.415 . S
C239 C238 1.355 . S
C239 C241 1.419 . S
C240 C238 1.415 . S
C240 C245 1.425 . S
C240 C247 1.409 . S
C241 H233 0.930 . S
C241 C239 1.419 . S
C241 C242 1.362 . S
C242 H234 0.930 . S
C242 C241 1.362 . S
C242 C245 1.409 . S
C243 H235 0.930 . S
C243 C244 1.355 . S
C243 C245 1.415 . S
C244 C243 1.355 . S
C244 C246 1.419 . S
C245 C240 1.425 . S
C245 C242 1.409 . S
C245 C243 1.415 . S
C246 H236 0.930 . S
C246 C244 1.419 . S
C246 C247 1.362 . S
C247 H237 0.930 . S
C247 C240 1.409 . S
C247 C246 1.362 . S
H248 C254 0.930 . S
H249 C257 0.930 . S
H250 C258 0.930 . S
H251 C259 0.930 . S
H252 C262 0.930 . S
H253 C263 0.930 . S
C254 H248 0.930 . S
C254 C255 1.355 . S
C254 C256 1.415 . S
C255 C254 1.355 . S
C255 C257 1.419 . S
C256 C254 1.415 . S
C256 C261 1.425 . S
C256 C263 1.409 . S
C257 H249 0.930 . S
C257 C255 1.419 . S
C257 C258 1.362 . S
C258 H250 0.930 . S
C258 C257 1.362 . S
C258 C261 1.409 . S
C259 H251 0.930 . S
C259 C260 1.355 . S
C259 C261 1.415 . S
C260 C259 1.355 . S
C260 C262 1.419 . S
C261 C256 1.425 . S
C261 C258 1.409 . S
C261 C259 1.415 . S
C262 H252 0.930 . S
C262 C260 1.419 . S
C262 C263 1.362 . S
C263 H253 0.930 . S
C263 C256 1.409 . S
C263 C262 1.362 . S
H264 C270 0.930 . S
H265 C273 0.930 . S
H266 C274 0.930 . S
H267 C275 0.930 . S
H268 C278 0.930 . S
H269 C279 0.930 . S
C270 H264 0.930 . S
C270 C271 1.355 . S
C270 C272 1.415 . S
C271 C270 1.355 . S
C271 C273 1.419 . S
C272 C270 1.415 . S
C272 C277 1.425 . S
C272 C279 1.409 . S
C273 H265 0.930 . S
C273 C271 1.419 . S
C273 C274 1.362 . S
C274 H266 0.930 . S
C274 C273 1.362 . S
C274 C277 1.409 . S
C275 H267 0.930 . S
C275 C276 1.355 . S
C275 C277 1.415 . S
C276 C275 1.355 . S
C276 C278 1.419 . S
C277 C272 1.425 . S
C277 C274 1.409 . S
C277 C275 1.415 . S
C278 H268 0.930 . S
C278 C276 1.419 . S
C278 C279 1.362 . S
C279 H269 0.930 . S
C279 C272 1.409 . S
C279 C278 1.362 . S
C95 C18 1.505 . S
C100 C65 1.379 . S
C111 C44 1.482 . S
C116 C71 1.346 . S
C127 C20 1.478 . S
C132 C62 1.329 . S
C143 C42 1.493 . S
C148 C87 1.384 . S
C159 C17 1.474 . S
C164 C53 1.301 . S
C180 C70 1.405 . S
C175 C40 1.495 . S
C191 C43 1.480 . S
C196 C66 1.309 . S
C212 C83 1.314 . S
C207 C16 1.507 . S
C228 C50 1.368 . S
C223 C39 1.514 . S
C244 C86 1.341 . S
C239 C21 1.455 . S
C260 C49 1.442 . S
C255 C41 1.444 . S
C276 C74 1.293 . S
C271 C19 1.423 . S
