# Generated by pormake.
# Topology pth, (4,4)-cn, num edge types: 1
# Building blocks:
#     Node 0, Type 0, BuildingBlock: NAHDIM_clean_sbu_0, # of connection points: 4
#     Node 1, Type 0, BuildingBlock: NAHDIM_clean_sbu_0, # of connection points: 4
#     Node 2, Type 0, BuildingBlock: NAHDIM_clean_sbu_0, # of connection points: 4
#     Node 3, Type 1, BuildingBlock: KOZSID_clean_sbu_0, # of connection points: 4
#     Node 4, Type 1, BuildingBlock: KOZSID_clean_sbu_0, # of connection points: 4
#     Node 5, Type 1, BuildingBlock: KOZSID_clean_sbu_0, # of connection points: 4
#     Edge 6, Type (0, 1), BuildingBlock: TEMPAE_clean_linker_10, # of connection points: 2
#     Edge 7, Type (0, 1), BuildingBlock: TEMPAE_clean_linker_10, # of connection points: 2
#     Edge 8, Type (0, 1), BuildingBlock: TEMPAE_clean_linker_10, # of connection points: 2
#     Edge 9, Type (0, 1), BuildingBlock: TEMPAE_clean_linker_10, # of connection points: 2
#     Edge 10, Type (0, 1), BuildingBlock: TEMPAE_clean_linker_10, # of connection points: 2
#     Edge 11, Type (0, 1), BuildingBlock: TEMPAE_clean_linker_10, # of connection points: 2
#     Edge 12, Type (0, 1), BuildingBlock: TEMPAE_clean_linker_10, # of connection points: 2
#     Edge 13, Type (0, 1), BuildingBlock: TEMPAE_clean_linker_10, # of connection points: 2
#     Edge 14, Type (0, 1), BuildingBlock: TEMPAE_clean_linker_10, # of connection points: 2
#     Edge 15, Type (0, 1), BuildingBlock: TEMPAE_clean_linker_10, # of connection points: 2
#     Edge 16, Type (0, 1), BuildingBlock: TEMPAE_clean_linker_10, # of connection points: 2
#     Edge 17, Type (0, 1), BuildingBlock: TEMPAE_clean_linker_10, # of connection points: 2
# Relax obj value: 0.042
# Max RMSD: 0.170
# Mean RMSD: 0.086
data_MOF--net-pth--node1-NAHDIM_clean_sbu_0--node2-KOZSID_clean_sbu_0--edge1-TEMPAE_clean_linker_10
_symmetry_space_group_name_H-M    P1
_symmetry_Int_Tables_number       1
_symmetry_cell_setting            triclinic
loop_
_symmetry_equiv_pos_as_xyz
'x, y, z'
_cell_length_a     26.858787
_cell_length_b     27.000046
_cell_length_c     60.103557
_cell_angle_alpha  89.325162
_cell_angle_beta   87.35378
_cell_angle_gamma 120.6538
loop_
_atom_site_label
_atom_site_type_symbol
_atom_site_fract_x
_atom_site_fract_y
_atom_site_fract_z
_atom_type_partial_charge
C0 C 0.02019 0.96448 0.06445 0.0
O1 O 0.97173 0.96313 0.06063 0.0
O2 O 0.0247 0.09667 0.05025 0.0
Zn3 Zn 0.05734 0.05493 0.03316 0.0
O4 O 0.00083 0.00306 0.0115 0.0
C5 C 0.16451 0.16214 0.02538 0.0
O6 O 0.14964 0.17212 0.0452 0.0
O7 O 0.06717 0.00339 0.05452 0.0
C8 C 0.99443 0.01749 0.99213 0.0
O9 O 0.02652 0.07138 0.9848 0.0
C10 C 0.02381 0.13909 0.04132 0.0
O11 O 0.04134 0.15348 0.02023 0.0
O12 O 0.13296 0.1134 0.01706 0.0
C13 C 0.02438 0.17034 0.34009 0.0
O14 O 0.97554 0.12971 0.35004 0.0
O15 O 0.047 0.03702 0.34808 0.0
Zn16 Zn 0.06546 0.10878 0.36424 0.0
O17 O 0.00382 0.09225 0.3882 0.0
C18 C 0.17727 0.12344 0.37109 0.0
O19 O 0.16884 0.09807 0.35197 0.0
O20 O 0.07096 0.17043 0.34321 0.0
C21 C 0.0137 0.13329 0.40085 0.0
O22 O 0.06385 0.18169 0.39828 0.0
C23 C 0.02076 0.02163 0.33015 0.0
O24 O 0.00087 0.05244 0.32138 0.0
O25 O 0.13995 0.13512 0.37906 0.0
C26 C 0.15309 0.0513 0.67529 0.0
O27 O 0.16106 0.10101 0.68175 0.0
O28 O 0.99608 0.02904 0.67565 0.0
Zn29 Zn 0.04377 0.01612 0.69705 0.0
O30 O 0.08337 0.08289 0.71705 0.0
C31 C 0.94769 0.95299 0.7259 0.0
O32 O 0.94938 0.00212 0.72284 0.0
O33 O 0.10441 0.00587 0.6801 0.0
C34 C 0.10372 0.07449 0.73442 0.0
O35 O 0.09609 0.0231 0.73858 0.0
C36 C 0.01342 0.07024 0.66129 0.0
O37 O 0.06853 0.11044 0.65941 0.0
O38 O 0.98702 0.94664 0.71616 0.0
C39 C 0.06574 0.65303 0.16195 0.0
C40 C 0.1183 0.69649 0.15227 0.0
C41 C 0.16064 0.69299 0.16258 0.0
C42 C 0.13157 0.64785 0.17787 0.0
N43 N 0.07316 0.62151 0.1777 0.0
Co44 Co 0.01412 0.55633 0.19801 0.0
N45 N 0.07645 0.55394 0.21431 0.0
C46 C 0.13445 0.58695 0.20987 0.0
C47 C 0.16625 0.57371 0.22329 0.0
C48 C 0.12625 0.529 0.23695 0.0
C49 C 0.07213 0.51772 0.23107 0.0
N50 N 0.95512 0.4924 0.21877 0.0
C51 C 0.96252 0.46295 0.23542 0.0
C52 C 0.90998 0.42187 0.24595 0.0
C53 C 0.86772 0.42488 0.23533 0.0
C54 C 0.89676 0.4676 0.21908 0.0
N55 N 0.95185 0.5577 0.18129 0.0
C56 C 0.89388 0.52185 0.1846 0.0
C57 C 0.8622 0.53408 0.17067 0.0
C58 C 0.90227 0.58092 0.15786 0.0
C59 C 0.95624 0.59456 0.16479 0.0
N60 N 0.01317 0.49918 0.17724 0.0
C61 C 0.01079 0.41892 0.14703 0.0
C62 C 0.96034 0.40897 0.15886 0.0
C63 C 0.96245 0.44933 0.17364 0.0
C64 C 0.06265 0.4695 0.15083 0.0
C65 C 0.06291 0.50845 0.16598 0.0
N66 N 0.0148 0.61347 0.2186 0.0
C67 C 0.96361 0.65265 0.23878 0.0
C68 C 0.01566 0.69907 0.2452 0.0
C69 C 0.06726 0.70115 0.23852 0.0
C70 C 0.06584 0.65821 0.22535 0.0
C71 C 0.96416 0.61063 0.22569 0.0
H72 H 0.10661 0.66247 0.22062 0.0
H73 H 0.92306 0.5768 0.22121 0.0
H74 H 0.92234 0.43901 0.18194 0.0
H75 H 0.1039 0.5458 0.16819 0.0
C76 C 0.15778 0.63 0.19297 0.0
C77 C 0.01012 0.64503 0.15628 0.0
C78 C 0.01798 0.47059 0.24122 0.0
C79 C 0.87048 0.48174 0.2026 0.0
H80 H 0.12524 0.72808 0.13937 0.0
H81 H 0.20706 0.72077 0.1596 0.0
H82 H 0.21294 0.59369 0.22298 0.0
H83 H 0.13583 0.50666 0.24957 0.0
H84 H 0.90296 0.39199 0.25957 0.0
H85 H 0.8213 0.39794 0.23862 0.0
H86 H 0.81548 0.51302 0.17051 0.0
H87 H 0.89281 0.60359 0.14534 0.0
H88 H 0.91921 0.3699 0.15692 0.0
H89 H 0.10295 0.4796 0.14195 0.0
H90 H 0.92249 0.64932 0.24334 0.0
H91 H 0.10867 0.73576 0.24341 0.0
C92 C 0.46763 0.02094 0.56255 0.0
C93 C 0.42571 0.96424 0.56837 0.0
C94 C 0.43493 0.93061 0.55401 0.0
C95 C 0.48174 0.9685 0.54032 0.0
N96 N 0.50334 0.02441 0.54515 0.0
Co97 Co 0.57093 0.09375 0.52943 0.0
N98 N 0.58325 0.04415 0.50797 0.0
C99 C 0.55052 0.98627 0.50657 0.0
C100 C 0.571 0.9645 0.49046 0.0
C101 C 0.6204 0.01112 0.48131 0.0
C102 C 0.62716 0.05866 0.49249 0.0
N103 N 0.63911 0.16294 0.51388 0.0
C104 C 0.67814 0.16569 0.49806 0.0
C105 C 0.72137 0.22212 0.49264 0.0
C106 C 0.70969 0.25632 0.50576 0.0
C107 C 0.66036 0.21895 0.51843 0.0
N108 N 0.55825 0.14338 0.5508 0.0
C109 C 0.58906 0.20161 0.55129 0.0
C110 C 0.56931 0.22341 0.56764 0.0
C111 C 0.52274 0.17641 0.57811 0.0
C112 C 0.51679 0.12848 0.56746 0.0
N113 N 0.62424 0.08838 0.54969 0.0
C114 C 0.70882 0.08434 0.57422 0.0
C115 C 0.70799 0.13535 0.57175 0.0
C116 C 0.66563 0.13638 0.55955 0.0
C117 C 0.66533 0.03481 0.56492 0.0
C118 C 0.62344 0.03766 0.55296 0.0
N119 N 0.51805 0.09949 0.50885 0.0
C120 C 0.48914 0.15738 0.48831 0.0
C121 C 0.44697 0.10896 0.47804 0.0
C122 C 0.44005 0.05546 0.48385 0.0
C123 C 0.47553 0.05171 0.49923 0.0
C124 C 0.52379 0.15171 0.5035 0.0
H125 H 0.46785 0.00973 0.50294 0.0
H126 H 0.55492 0.19035 0.51063 0.0
H127 H 0.66812 0.17685 0.55789 0.0
H128 H 0.59146 0.99859 0.54617 0.0
C129 C 0.50458 0.95307 0.52216 0.0
C130 C 0.47006 0.06996 0.57339 0.0
C131 C 0.678 0.11592 0.48896 0.0
C132 C 0.63589 0.23466 0.53597 0.0
H133 H 0.39139 0.94888 0.58141 0.0
H134 H 0.40979 0.88413 0.55333 0.0
H135 H 0.55355 0.91981 0.48653 0.0
H136 H 0.64933 0.01009 0.46841 0.0
H137 H 0.7585 0.23694 0.48094 0.0
H138 H 0.73544 0.30272 0.50662 0.0
H139 H 0.58637 0.26817 0.57136 0.0
H140 H 0.49577 0.17727 0.59187 0.0
H141 H 0.7409 0.17484 0.57866 0.0
H142 H 0.66362 0.99401 0.56684 0.0
H143 H 0.49528 0.19964 0.48479 0.0
H144 H 0.40806 0.01659 0.4763 0.0
C145 C 0.62516 0.58759 0.82857 0.0
C146 C 0.66693 0.57693 0.81932 0.0
C147 C 0.66418 0.53336 0.83205 0.0
C148 C 0.62107 0.52007 0.84822 0.0
N149 N 0.59522 0.55164 0.84635 0.0
Co150 Co 0.53291 0.5491 0.86693 0.0
N151 N 0.53312 0.48941 0.88711 0.0
C152 C 0.56593 0.46479 0.88421 0.0
C153 C 0.55414 0.42269 0.89999 0.0
C154 C 0.51088 0.41971 0.91373 0.0
C155 C 0.49904 0.46088 0.90565 0.0
N156 N 0.47136 0.54733 0.88771 0.0
C157 C 0.44474 0.51494 0.90666 0.0
C158 C 0.40537 0.5283 0.91643 0.0
C159 C 0.40609 0.56957 0.90288 0.0
C160 C 0.44602 0.57943 0.8858 0.0
N161 N 0.53223 0.60817 0.84655 0.0
C162 C 0.497 0.63025 0.84853 0.0
C163 C 0.50834 0.6715 0.83235 0.0
C164 C 0.55412 0.67675 0.81947 0.0
C165 C 0.568 0.6382 0.8286 0.0
N166 N 0.47222 0.48678 0.84978 0.0
C167 C 0.38689 0.39928 0.82492 0.0
C168 C 0.38024 0.44424 0.83261 0.0
C169 C 0.42302 0.48711 0.84491 0.0
C170 C 0.43662 0.39847 0.83009 0.0
C171 C 0.47827 0.44216 0.84244 0.0
N172 N 0.59351 0.61154 0.88389 0.0
C173 C 0.63446 0.70563 0.89945 0.0
C174 C 0.68271 0.70347 0.90575 0.0
C175 C 0.68519 0.65412 0.90118 0.0
C176 C 0.64045 0.609 0.89034 0.0
C177 C 0.5907 0.65956 0.88871 0.0
H178 H 0.64493 0.57267 0.88722 0.0
H179 H 0.55538 0.66415 0.88422 0.0
H180 H 0.41521 0.52006 0.85021 0.0
H181 H 0.51484 0.43869 0.84584 0.0
C182 C 0.60607 0.48057 0.86605 0.0
C183 C 0.61802 0.63457 0.82073 0.0
C184 C 0.45351 0.4696 0.91559 0.0
C185 C 0.45856 0.61638 0.86719 0.0
H186 H 0.69726 0.59947 0.80521 0.0
H187 H 0.69155 0.51484 0.83016 0.0
H188 H 0.57373 0.39632 0.90106 0.0
H189 H 0.48981 0.38956 0.92781 0.0
H190 H 0.3782 0.50942 0.93159 0.0
H191 H 0.37985 0.58927 0.90503 0.0
H192 H 0.48759 0.69667 0.83073 0.0
H193 H 0.57609 0.7069 0.80543 0.0
H194 H 0.34258 0.44693 0.8289 0.0
H195 H 0.44323 0.36389 0.82483 0.0
H196 H 0.63076 0.74316 0.90243 0.0
H197 H 0.72126 0.65001 0.90608 0.0
C198 C 0.03269 0.23419 0.04814 0.0
C199 C 0.01275 0.17726 0.05546 0.0
C200 C 0.02935 0.27321 0.06244 0.0
C201 C 0.00474 0.25453 0.08445 0.0
C202 C 0.98198 0.19637 0.09156 0.0
C203 C 0.98663 0.15849 0.07702 0.0
C204 C 0.05458 0.33505 0.05434 0.0
C205 C 0.95454 0.17466 0.11478 0.0
C206 C 0.05456 0.36527 0.12912 0.0
C207 C 0.00921 0.37681 0.13092 0.0
C208 C 0.05376 0.32586 0.11395 0.0
C209 C 0.00604 0.29662 0.10044 0.0
C210 C 0.95991 0.30764 0.10224 0.0
C211 C 0.96225 0.34792 0.11733 0.0
C212 C 0.10397 0.31546 0.11239 0.0
C213 C 0.90812 0.27689 0.08823 0.0
H214 H 0.05321 0.24905 0.03154 0.0
H215 H 0.97083 0.11441 0.0827 0.0
H216 H 0.02222 0.34864 0.05707 0.0
H217 H 0.0924 0.36355 0.06403 0.0
H218 H 0.06894 0.34181 0.03636 0.0
H219 H 0.93462 0.12725 0.11708 0.0
H220 H 0.98784 0.19583 0.12717 0.0
H221 H 0.9207 0.18588 0.11847 0.0
H222 H 0.09053 0.38656 0.13979 0.0
H223 H 0.92743 0.35718 0.11832 0.0
H224 H 0.12334 0.32453 0.09504 0.0
H225 H 0.0884 0.26957 0.11666 0.0
H226 H 0.1384 0.3427 0.1237 0.0
H227 H 0.92227 0.28665 0.07029 0.0
H228 H 0.87522 0.28941 0.092 0.0
H229 H 0.88734 0.22959 0.09109 0.0
C230 C 0.97737 0.17629 0.42916 0.0
C231 C 0.96733 0.12921 0.4164 0.0
C232 C 0.9324 0.17523 0.44238 0.0
C233 C 0.87614 0.12592 0.44285 0.0
C234 C 0.86616 0.07746 0.43066 0.0
C235 C 0.91191 0.07968 0.41757 0.0
C236 C 0.94466 0.2276 0.45526 0.0
C237 C 0.80671 0.02399 0.43085 0.0
C238 C 0.76376 0.10381 0.48861 0.0
C239 C 0.73099 0.12224 0.47757 0.0
C240 C 0.81189 0.10561 0.47764 0.0
C241 C 0.82699 0.12607 0.45512 0.0
C242 C 0.79418 0.14544 0.44404 0.0
C243 C 0.74628 0.14313 0.45545 0.0
C244 C 0.84582 0.08465 0.48998 0.0
C245 C 0.809 0.16756 0.42004 0.0
H246 H 0.02011 0.21465 0.42842 0.0
H247 H 0.90383 0.04306 0.40782 0.0
H248 H 0.92011 0.2468 0.44861 0.0
H249 H 0.92984 0.21511 0.47305 0.0
H250 H 0.99148 0.26103 0.45425 0.0
H251 H 0.80693 0.98881 0.42154 0.0
H252 H 0.78977 0.00805 0.44824 0.0
H253 H 0.77616 0.03448 0.42324 0.0
H254 H 0.75112 0.0873 0.50575 0.0
H255 H 0.72014 0.15675 0.44703 0.0
H256 H 0.89236 0.1186 0.48935 0.0
H257 H 0.84279 0.04666 0.4818 0.0
H258 H 0.82981 0.07239 0.50772 0.0
H259 H 0.85452 0.20383 0.41802 0.0
H260 H 0.78012 0.18253 0.41411 0.0
H261 H 0.80537 0.13299 0.40922 0.0
C262 C 0.85528 0.9133 0.74932 0.0
C263 C 0.89992 0.90605 0.74001 0.0
C264 C 0.80901 0.86929 0.76247 0.0
C265 C 0.80739 0.81676 0.76648 0.0
C266 C 0.85239 0.80914 0.75725 0.0
C267 C 0.89817 0.85392 0.74407 0.0
C268 C 0.76176 0.87895 0.77203 0.0
C269 C 0.85208 0.75367 0.76127 0.0
C270 C 0.71539 0.72306 0.81671 0.0
C271 C 0.66546 0.68214 0.8068 0.0
C272 C 0.76213 0.76717 0.80376 0.0
C273 C 0.75852 0.76988 0.78038 0.0
C274 C 0.70785 0.72836 0.77035 0.0
C275 C 0.66174 0.68475 0.78375 0.0
C276 C 0.8153 0.81073 0.81506 0.0
C277 C 0.70247 0.72996 0.74549 0.0
H278 H 0.85621 0.95341 0.74625 0.0
H279 H 0.93254 0.84804 0.73695 0.0
H280 H 0.71926 0.84602 0.7661 0.0
H281 H 0.75859 0.87407 0.79048 0.0
H282 H 0.76951 0.92235 0.76734 0.0
H283 H 0.89044 0.75468 0.75298 0.0
H284 H 0.8514 0.74519 0.77942 0.0
H285 H 0.81226 0.71705 0.755 0.0
H286 H 0.7178 0.72025 0.83461 0.0
H287 H 0.62293 0.6524 0.77627 0.0
H288 H 0.82311 0.85472 0.81175 0.0
H289 H 0.854 0.81014 0.80815 0.0
H290 H 0.81116 0.80231 0.83339 0.0
H291 H 0.70701 0.77157 0.74008 0.0
H292 H 0.66025 0.69433 0.74034 0.0
H293 H 0.7379 0.72696 0.73659 0.0
C294 C 0.96623 0.87536 0.08903 0.0
C295 C 0.01903 0.91931 0.07903 0.0
C296 C 0.96364 0.83061 0.10205 0.0
C297 C 0.0151 0.82982 0.10517 0.0
C298 C 0.0687 0.87445 0.09542 0.0
C299 C 0.07004 0.91873 0.08245 0.0
C300 C 0.90571 0.78375 0.11223 0.0
C301 C 0.12447 0.875 0.09847 0.0
C302 C 0.01727 0.74038 0.15385 0.0
C303 C 0.0088 0.69106 0.14328 0.0
C304 C 0.01916 0.78593 0.14165 0.0
C305 C 0.01266 0.78174 0.11838 0.0
C306 C 0.0038 0.73157 0.1077 0.0
C307 C 0.002 0.68665 0.12035 0.0
C308 C 0.02852 0.83862 0.15361 0.0
C309 C 0.99673 0.72561 0.08293 0.0
H310 H 0.9266 0.87547 0.08649 0.0
H311 H 0.11099 0.95254 0.07479 0.0
H312 H 0.89546 0.74147 0.10574 0.0
H313 H 0.90747 0.78078 0.13057 0.0
H314 H 0.86991 0.79134 0.10859 0.0
H315 H 0.1627 0.91348 0.09019 0.0
H316 H 0.13156 0.87422 0.11647 0.0
H317 H 0.12156 0.83579 0.0915 0.0
H318 H 0.02285 0.74332 0.17164 0.0
H319 H 0.99591 0.64831 0.11235 0.0
H320 H 0.99205 0.84589 0.15105 0.0
H321 H 0.06869 0.87728 0.1466 0.0
H322 H 0.03213 0.8347 0.17181 0.0
H323 H 0.95937 0.72976 0.07845 0.0
H324 H 0.98972 0.68362 0.07726 0.0
H325 H 0.03589 0.76076 0.0737 0.0
C326 C 0.23456 0.15882 0.40492 0.0
C327 C 0.22468 0.13045 0.38477 0.0
C328 C 0.27429 0.15946 0.41943 0.0
C329 C 0.30452 0.13072 0.4137 0.0
C330 C 0.29664 0.10418 0.39296 0.0
C331 C 0.25697 0.10459 0.37868 0.0
C332 C 0.28215 0.18889 0.44129 0.0
C333 C 0.32807 0.07303 0.3863 0.0
C334 C 0.4351 0.16077 0.44568 0.0
C335 C 0.41059 0.11438 0.46142 0.0
C336 C 0.40116 0.16677 0.43003 0.0
C337 C 0.34139 0.12515 0.43003 0.0
C338 C 0.31643 0.07804 0.44576 0.0
C339 C 0.35129 0.07334 0.46131 0.0
C340 C 0.42919 0.21761 0.41353 0.0
C341 C 0.2528 0.0327 0.44623 0.0
H342 H 0.21007 0.17926 0.40967 0.0
H343 H 0.24963 0.0826 0.36314 0.0
H344 H 0.26534 0.15622 0.45529 0.0
H345 H 0.32887 0.21896 0.44352 0.0
H346 H 0.25913 0.2133 0.44241 0.0
H347 H 0.32046 0.05838 0.36893 0.0
H348 H 0.37538 0.10136 0.38784 0.0
H349 H 0.31318 0.03482 0.3977 0.0
H350 H 0.48107 0.1922 0.44544 0.0
H351 H 0.33187 0.03785 0.47361 0.0
H352 H 0.40744 0.24309 0.41524 0.0
H353 H 0.42394 0.20232 0.39627 0.0
H354 H 0.47616 0.24641 0.41585 0.0
H355 H 0.2262 0.05289 0.4494 0.0
H356 H 0.24038 0.99821 0.45927 0.0
H357 H 0.24188 0.01267 0.4298 0.0
C358 C 0.16142 0.11268 0.76794 0.0
C359 C 0.13938 0.12266 0.74878 0.0
C360 C 0.19889 0.15833 0.78085 0.0
C361 C 0.21476 0.21535 0.77444 0.0
C362 C 0.19127 0.22561 0.75553 0.0
C363 C 0.15377 0.17908 0.74292 0.0
C364 C 0.22293 0.1457 0.80097 0.0
C365 C 0.20714 0.28587 0.74824 0.0
C366 C 0.28322 0.32924 0.81756 0.0
C367 C 0.34246 0.35352 0.81158 0.0
C368 C 0.24098 0.28487 0.80538 0.0
C369 C 0.25849 0.26436 0.78683 0.0
C370 C 0.31816 0.28935 0.7805 0.0
C371 C 0.3594 0.33365 0.79294 0.0
C372 C 0.17772 0.25919 0.81261 0.0
C373 C 0.33849 0.26875 0.76075 0.0
H374 H 0.15027 0.06919 0.77266 0.0
H375 H 0.13682 0.18714 0.72816 0.0
H376 H 0.27061 0.1658 0.79827 0.0
H377 H 0.21466 0.16473 0.81593 0.0
H378 H 0.20374 0.09874 0.80443 0.0
H379 H 0.18223 0.28617 0.73403 0.0
H380 H 0.19917 0.30767 0.7623 0.0
H381 H 0.25406 0.31158 0.74315 0.0
H382 H 0.26991 0.34407 0.83208 0.0
H383 H 0.40508 0.35294 0.78802 0.0
H384 H 0.15862 0.21313 0.81774 0.0
H385 H 0.15345 0.26098 0.79848 0.0
H386 H 0.17121 0.28185 0.82675 0.0
H387 H 0.32458 0.22268 0.76357 0.0
H388 H 0.38638 0.29383 0.75767 0.0
H389 H 0.31841 0.27211 0.74552 0.0
C390 C 0.98827 0.1182 0.63147 0.0
C391 C 0.9709 0.07277 0.64722 0.0
C392 C 0.94758 0.12127 0.61855 0.0
C393 C 0.8883 0.07794 0.62151 0.0
C394 C 0.87068 0.03162 0.63715 0.0
C395 C 0.91215 0.02958 0.64979 0.0
C396 C 0.96785 0.17122 0.60195 0.0
C397 C 0.80784 0.98456 0.64078 0.0
C398 C 0.77228 0.11072 0.60641 0.0
C399 C 0.75527 0.0832 0.58618 0.0
C400 C 0.81634 0.11024 0.61786 0.0
C401 C 0.84409 0.08168 0.60883 0.0
C402 C 0.82763 0.05445 0.58827 0.0
C403 C 0.78325 0.05542 0.5772 0.0
C404 C 0.83248 0.13945 0.63983 0.0
C405 C 0.85647 0.02382 0.57808 0.0
H406 H 0.03357 0.15163 0.62934 0.0
H407 H 0.89826 0.9942 0.66188 0.0
H408 H 0.95413 0.15506 0.58512 0.0
H409 H 0.94746 0.19679 0.60662 0.0
H410 H 0.01571 0.20017 0.60105 0.0
H411 H 0.80153 0.95076 0.6532 0.0
H412 H 0.78143 0.00332 0.64664 0.0
H413 H 0.79091 0.96393 0.62483 0.0
H414 H 0.75041 0.13184 0.61347 0.0
H415 H 0.77081 0.03491 0.56138 0.0
H416 H 0.87959 0.17157 0.63925 0.0
H417 H 0.82342 0.10713 0.65337 0.0
H418 H 0.80821 0.16158 0.64414 0.0
H419 H 0.9041 0.0535 0.57619 0.0
H420 H 0.84041 0.00705 0.56151 0.0
H421 H 0.84838 0.9872 0.5893 0.0
C422 C 0.93588 0.98901 0.95834 0.0
C423 C 0.95084 0.9733 0.97816 0.0
C424 C 0.89332 0.94711 0.94541 0.0
C425 C 0.86561 0.88826 0.95242 0.0
C426 C 0.88126 0.87215 0.97221 0.0
C427 C 0.92347 0.91484 0.98487 0.0
C428 C 0.87736 0.96582 0.92447 0.0
C429 C 0.85302 0.80978 0.98013 0.0
C430 C 0.71655 0.78057 0.9337 0.0
C431 C 0.72984 0.75222 0.91714 0.0
C432 C 0.76048 0.82602 0.94488 0.0
C433 C 0.8191 0.84331 0.93946 0.0
C434 C 0.83293 0.8155 0.92254 0.0
C435 C 0.78811 0.77033 0.91155 0.0
C436 C 0.74406 0.85468 0.96283 0.0
C437 C 0.89497 0.83275 0.91635 0.0
H438 H 0.95679 0.0341 0.95308 0.0
H439 H 0.93501 0.90226 0.0001 0.0
H440 H 0.88297 0.94375 0.90996 0.0
H441 H 0.83099 0.95318 0.92602 0.0
H442 H 0.904 0.01312 0.92102 0.0
H443 H 0.87136 0.80436 0.99554 0.0
H444 H 0.80575 0.79145 0.9835 0.0
H445 H 0.85855 0.78425 0.96695 0.0
H446 H 0.67162 0.76639 0.9383 0.0
H447 H 0.79871 0.74926 0.8985 0.0
H448 H 0.76762 0.90199 0.95945 0.0
H449 H 0.75691 0.84689 0.97919 0.0
H450 H 0.69676 0.83845 0.96411 0.0
H451 H 0.92101 0.87947 0.91178 0.0
H452 H 0.89854 0.8084 0.9022 0.0
H453 H 0.91443 0.82501 0.93091 0.0
C454 C 0.04616 0.94497 0.32605 0.0
C455 C 0.01665 0.97179 0.31849 0.0
C456 C 0.04547 0.89977 0.31454 0.0
C457 C 0.01415 0.88062 0.2951 0.0
C458 C 0.98335 0.9067 0.28761 0.0
C459 C 0.98512 0.95216 0.29936 0.0
C460 C 0.07912 0.87322 0.32297 0.0
C461 C 0.9491 0.88705 0.26703 0.0
C462 C 0.0578 0.80343 0.2532 0.0
C463 C 0.01598 0.7455 0.25833 0.0
C464 C 0.05773 0.84782 0.26506 0.0
C465 C 0.0146 0.83398 0.28238 0.0
C466 C 0.9723 0.77567 0.28768 0.0
C467 C 0.97362 0.73211 0.27564 0.0
C468 C 0.10367 0.90956 0.25899 0.0
C469 C 0.92563 0.75929 0.30604 0.0
H470 H 0.07081 0.95996 0.34077 0.0
H471 H 0.9621 0.97255 0.29345 0.0
H472 H 0.04987 0.82615 0.32611 0.0
H473 H 0.11297 0.87924 0.31011 0.0
H474 H 0.1004 0.89239 0.33858 0.0
H475 H 0.9261 0.91063 0.2638 0.0
H476 H 0.97851 0.8936 0.25228 0.0
H477 H 0.91672 0.84027 0.2688 0.0
H478 H 0.09008 0.81417 0.23962 0.0
H479 H 0.94163 0.68743 0.27989 0.0
H480 H 0.12847 0.93045 0.27374 0.0
H481 H 0.08299 0.93409 0.25381 0.0
H482 H 0.13453 0.91299 0.24525 0.0
H483 H 0.94564 0.77496 0.32214 0.0
H484 H 0.89543 0.71197 0.30786 0.0
H485 H 0.90023 0.78023 0.30262 0.0
C486 C 0.19056 0.99762 0.65309 0.0
C487 C 0.19956 0.04935 0.6618 0.0
C488 C 0.2337 0.99653 0.63932 0.0
C489 C 0.2869 0.04835 0.6342 0.0
C490 C 0.2967 0.10036 0.64339 0.0
C491 C 0.25295 0.10021 0.65707 0.0
C492 C 0.2219 0.94026 0.62984 0.0
C493 C 0.35294 0.15651 0.63835 0.0
C494 C 0.42106 0.04806 0.61152 0.0
C495 C 0.42148 0.06087 0.58889 0.0
C496 C 0.37641 0.04205 0.62646 0.0
C497 C 0.33158 0.04918 0.61842 0.0
C498 C 0.33146 0.06086 0.59538 0.0
C499 C 0.37664 0.06667 0.58087 0.0
C500 C 0.37802 0.02966 0.65089 0.0
C501 C 0.28451 0.0688 0.58617 0.0
H502 H 0.14948 0.95812 0.65672 0.0
H503 H 0.26047 0.14035 0.66381 0.0
H504 H 0.22176 0.94301 0.61141 0.0
H505 H 0.25683 0.93169 0.63379 0.0
H506 H 0.17964 0.90328 0.63639 0.0
H507 H 0.35459 0.19272 0.64755 0.0
H508 H 0.39017 0.15207 0.64277 0.0
H509 H 0.35854 0.16768 0.62023 0.0
H510 H 0.45614 0.04367 0.6175 0.0
H511 H 0.37752 0.07656 0.56326 0.0
H512 H 0.33624 0.99159 0.65709 0.0
H513 H 0.384 0.06678 0.66063 0.0
H514 H 0.41368 0.02157 0.65419 0.0
H515 H 0.2412 0.03106 0.59107 0.0
H516 H 0.28905 0.07447 0.56771 0.0
H517 H 0.28604 0.10724 0.59331 0.0
C518 C 0.24312 0.19846 0.9951 0.0
C519 C 0.21188 0.20966 0.01152 0.0
C520 C 0.28527 0.24293 0.98072 0.0
C521 C 0.2948 0.29939 0.98238 0.0
C522 C 0.26374 0.31098 -0.00087 0.0
C523 C 0.22321 0.26605 0.01374 0.0
C524 C 0.31873 0.22928 0.96346 0.0
C525 C 0.27145 0.3702 0.00101 0.0
C526 C 0.43167 0.42445 0.95416 0.0
C527 C 0.41231 0.42856 0.93337 0.0
C528 C 0.39391 0.38255 0.97035 0.0
C529 C 0.33507 0.34552 0.96584 0.0
C530 C 0.31484 0.35146 0.9452 0.0
C531 C 0.35398 0.39247 0.92907 0.0
C532 C 0.41733 0.37671 0.99196 0.0
C533 C 0.25206 0.31394 0.94001 0.0
H534 H 0.23444 0.15484 0.99346 0.0
H535 H 0.19847 0.27459 0.02627 0.0
H536 H 0.30696 0.23471 0.94654 0.0
H537 H 0.36599 0.25966 0.96433 0.0
H538 H 0.30992 0.18455 0.96568 0.0
H539 H 0.24533 0.37248 0.01541 0.0
H540 H 0.31772 0.40282 0.00278 0.0
H541 H 0.2583 0.3821 0.98554 0.0
H542 H 0.47683 0.45294 0.95743 0.0
H543 H 0.33921 0.39605 0.91297 0.0
H544 H 0.41177 0.33316 0.99364 0.0
H545 H 0.39265 0.38115 0.00632 0.0
H546 H 0.46401 0.40938 0.99297 0.0
H547 H 0.24087 0.2684 0.93925 0.0
H548 H 0.24257 0.32701 0.9239 0.0
H549 H 0.22346 0.31593 0.95346 0.0
C550 C 0.9733 0.21627 0.32364 0.0
C551 C 0.02458 0.21516 0.32562 0.0
C552 C 0.97233 0.25835 0.31011 0.0
C553 C 0.02385 0.30026 0.2982 0.0
C554 C 0.07582 0.29953 0.30012 0.0
C555 C 0.0756 0.25699 0.31386 0.0
C556 C 0.91612 0.25789 0.30852 0.0
C557 C 0.13154 0.34354 0.28759 0.0
C558 C 0.00798 0.37463 0.2474 0.0
C559 C 0.01918 0.42701 0.25595 0.0
C560 C 0.00983 0.33306 0.26095 0.0
C561 C 0.02303 0.34445 0.28354 0.0
C562 C 0.03428 0.39754 0.29221 0.0
C563 C 0.03221 0.43836 0.27823 0.0
C564 C 0.99758 0.27699 0.25112 0.0
C565 C 0.04825 0.41106 0.31621 0.0
H566 H 0.9337 0.18425 0.33273 0.0
H567 H 0.11537 0.2564 0.31531 0.0
H568 H 0.92174 0.29962 0.31376 0.0
H569 H 0.9037 0.25268 0.29098 0.0
H570 H 0.88001 0.22267 0.31905 0.0
H571 H 0.16831 0.3373 0.29102 0.0
H572 H 0.12573 0.34092 0.2694 0.0
H573 H 0.14299 0.38761 0.29223 0.0
H574 H 0.99803 0.36646 0.23007 0.0
H575 H 0.04083 0.4792 0.28464 0.0
H576 H 0.95946 0.24037 0.26027 0.0
H577 H 0.035 0.27084 0.253 0.0
H578 H 0.98889 0.27532 0.23317 0.0
H579 H 0.01179 0.37862 0.32743 0.0
H580 H 0.05649 0.45457 0.32025 0.0
H581 H 0.0871 0.40862 0.31982 0.0
loop_
_geom_bond_atom_site_label_1
_geom_bond_atom_site_label_2
_geom_bond_distance
_geom_bond_site_symmetry_2
_ccdc_geom_bond_type
C0 O1 1.160 . S
C0 O7 1.185 1_565 S
O1 C0 1.160 . S
O2 Zn3 1.899 . S
O2 C10 1.284 . S
Zn3 O2 1.899 . S
Zn3 O4 2.032 . S
Zn3 O7 2.086 . S
Zn3 O12 1.977 . S
O4 Zn3 2.032 . S
O4 C8 1.278 1_455 S
C5 O6 1.203 . S
C5 O12 1.267 . S
O6 C5 1.203 . S
O7 C0 1.185 1_545 S
O7 Zn3 2.086 . S
C8 O4 1.278 1_655 S
C8 O9 1.211 1_654 S
O9 C8 1.211 1_456 S
C10 O2 1.284 . S
C10 O11 1.273 . S
O11 C10 1.273 . S
O12 Zn3 1.977 . S
O12 C5 1.267 . S
C13 O14 1.160 . S
C13 O20 1.185 . S
O14 C13 1.160 . S
O15 Zn16 1.899 . S
O15 C23 1.284 . S
Zn16 O15 1.899 . S
Zn16 O17 2.032 1_455 S
Zn16 O20 2.086 . S
Zn16 O25 1.977 . S
O17 Zn16 2.032 1_655 S
O17 C21 1.278 . S
C18 O19 1.203 . S
C18 O25 1.267 . S
O19 C18 1.203 . S
O20 C13 1.185 . S
O20 Zn16 2.086 . S
C21 O17 1.278 . S
C21 O22 1.211 . S
O22 C21 1.211 . S
C23 O15 1.284 . S
C23 O24 1.273 1_445 S
O24 C23 1.273 1_665 S
O25 Zn16 1.977 . S
O25 C18 1.267 . S
C26 O27 1.160 . S
C26 O33 1.185 1_545 S
O27 C26 1.160 . S
O28 Zn29 1.899 . S
O28 C36 1.284 1_455 S
Zn29 O28 1.899 . S
Zn29 O30 2.032 . S
Zn29 O33 2.086 1_545 S
Zn29 O38 1.977 1_545 S
O30 Zn29 2.032 . S
O30 C34 1.278 . S
C31 O32 1.203 . S
C31 O38 1.267 1_655 S
O32 C31 1.203 . S
O33 C26 1.185 1_565 S
O33 Zn29 2.086 1_565 S
C34 O30 1.278 . S
C34 O35 1.211 . S
O35 C34 1.211 . S
C36 O28 1.284 1_655 S
C36 O37 1.273 1_655 S
O37 C36 1.273 1_455 S
O38 Zn29 1.977 1_565 S
O38 C31 1.267 1_455 S
C39 C40 1.443 . S
C39 N43 1.376 . S
C39 C77 1.389 . S
C40 C39 1.443 . S
C40 C41 1.340 . S
C40 H80 0.951 . S
C41 C40 1.340 . S
C41 C42 1.439 . S
C41 H81 0.950 . S
C42 C41 1.439 . S
C42 N43 1.374 . S
C42 C76 1.395 . S
N43 C39 1.376 . S
N43 C42 1.374 . S
N43 Co44 2.008 . S
Co44 N43 2.008 . S
Co44 N45 1.995 . S
Co44 N50 2.008 1_455 S
Co44 N55 1.995 1_455 S
Co44 N60 2.282 . S
Co44 N66 2.282 . S
N45 Co44 1.995 . S
N45 C46 1.376 . S
N45 C49 1.383 . S
C46 N45 1.376 . S
C46 C47 1.446 . S
C46 C76 1.391 . S
C47 C46 1.446 . S
C47 C48 1.339 . S
C47 H82 0.949 . S
C48 C47 1.339 . S
C48 C49 1.439 . S
C48 H83 0.950 . S
C49 N45 1.383 . S
C49 C48 1.439 . S
C49 C78 1.392 . S
N50 Co44 2.008 1_655 S
N50 C51 1.376 . S
N50 C54 1.374 . S
C51 N50 1.376 . S
C51 C52 1.443 . S
C51 C78 1.389 1_655 S
C52 C51 1.443 . S
C52 C53 1.340 . S
C52 H84 0.951 . S
C53 C52 1.340 . S
C53 C54 1.439 . S
C53 H85 0.950 . S
C54 N50 1.374 . S
C54 C53 1.439 . S
C54 C79 1.395 . S
N55 Co44 1.995 1_655 S
N55 C56 1.376 . S
N55 C59 1.383 . S
C56 N55 1.376 . S
C56 C57 1.446 . S
C56 C79 1.391 . S
C57 C56 1.446 . S
C57 C58 1.339 . S
C57 H86 0.949 . S
C58 C57 1.339 . S
C58 C59 1.439 . S
C58 H87 0.950 . S
C59 N55 1.383 . S
C59 C58 1.439 . S
C59 C77 1.392 1_655 S
N60 Co44 2.282 . S
N60 C63 1.332 1_455 S
N60 C65 1.332 . S
C61 C62 1.386 1_455 S
C61 C64 1.388 . S
C62 C61 1.386 1_655 S
C62 C63 1.382 . S
C62 H88 0.950 . S
C63 N60 1.332 1_655 S
C63 C62 1.382 . S
C63 H74 0.952 . S
C64 C61 1.388 . S
C64 C65 1.382 . S
C64 H89 0.950 . S
C65 N60 1.332 . S
C65 C64 1.382 . S
C65 H75 0.948 . S
N66 Co44 2.282 . S
N66 C70 1.332 . S
N66 C71 1.332 1_455 S
C67 C68 1.388 1_655 S
C67 C71 1.382 . S
C67 H90 0.950 . S
C68 C67 1.388 1_455 S
C68 C69 1.386 . S
C69 C68 1.386 . S
C69 C70 1.382 . S
C69 H91 0.950 . S
C70 N66 1.332 . S
C70 C69 1.382 . S
C70 H72 0.952 . S
C71 N66 1.332 1_655 S
C71 C67 1.382 . S
C71 H73 0.948 . S
H72 C70 0.952 . S
H73 C71 0.948 . S
H74 C63 0.952 . S
H75 C65 0.948 . S
C76 C42 1.395 . S
C76 C46 1.391 . S
C77 C39 1.389 . S
C77 C59 1.392 1_455 S
C78 C49 1.392 . S
C78 C51 1.389 1_455 S
C79 C54 1.395 . S
C79 C56 1.391 . S
H80 C40 0.951 . S
H81 C41 0.950 . S
H82 C47 0.949 . S
H83 C48 0.950 . S
H84 C52 0.951 . S
H85 C53 0.950 . S
H86 C57 0.949 . S
H87 C58 0.950 . S
H88 C62 0.950 . S
H89 C64 0.950 . S
H90 C67 0.950 . S
H91 C69 0.950 . S
C92 C93 1.443 1_545 S
C92 N96 1.376 . S
C92 C130 1.389 . S
C93 C92 1.443 1_565 S
C93 C94 1.340 . S
C93 H133 0.951 . S
C94 C93 1.340 . S
C94 C95 1.439 . S
C94 H134 0.950 . S
C95 C94 1.439 . S
C95 N96 1.374 1_565 S
C95 C129 1.395 . S
N96 C92 1.376 . S
N96 C95 1.374 1_545 S
N96 Co97 2.008 . S
Co97 N96 2.008 . S
Co97 N98 1.995 . S
Co97 N103 2.008 . S
Co97 N108 1.995 . S
Co97 N113 2.282 . S
Co97 N119 2.282 . S
N98 Co97 1.995 . S
N98 C99 1.376 1_545 S
N98 C102 1.383 . S
C99 N98 1.376 1_565 S
C99 C100 1.446 . S
C99 C129 1.391 . S
C100 C99 1.446 . S
C100 C101 1.339 . S
C100 H135 0.949 . S
C101 C100 1.339 . S
C101 C102 1.439 1_565 S
C101 H136 0.950 . S
C102 N98 1.383 . S
C102 C101 1.439 1_545 S
C102 C131 1.392 . S
N103 Co97 2.008 . S
N103 C104 1.376 . S
N103 C107 1.374 . S
C104 N103 1.376 . S
C104 C105 1.443 . S
C104 C131 1.389 . S
C105 C104 1.443 . S
C105 C106 1.340 . S
C105 H137 0.951 . S
C106 C105 1.340 . S
C106 C107 1.439 . S
C106 H138 0.950 . S
C107 N103 1.374 . S
C107 C106 1.439 . S
C107 C132 1.395 . S
N108 Co97 1.995 . S
N108 C109 1.376 . S
N108 C112 1.383 . S
C109 N108 1.376 . S
C109 C110 1.446 . S
C109 C132 1.391 . S
C110 C109 1.446 . S
C110 C111 1.339 . S
C110 H139 0.949 . S
C111 C110 1.339 . S
C111 C112 1.439 . S
C111 H140 0.950 . S
C112 N108 1.383 . S
C112 C111 1.439 . S
C112 C130 1.392 . S
N113 Co97 2.282 . S
N113 C116 1.332 . S
N113 C118 1.332 . S
C114 C115 1.386 . S
C114 C117 1.388 . S
C115 C114 1.386 . S
C115 C116 1.382 . S
C115 H141 0.950 . S
C116 N113 1.332 . S
C116 C115 1.382 . S
C116 H127 0.952 . S
C117 C114 1.388 . S
C117 C118 1.382 . S
C117 H142 0.950 1_545 S
C118 N113 1.332 . S
C118 C117 1.382 . S
C118 H128 0.948 1_545 S
N119 Co97 2.282 . S
N119 C123 1.332 . S
N119 C124 1.332 . S
C120 C121 1.388 . S
C120 C124 1.382 . S
C120 H143 0.950 . S
C121 C120 1.388 . S
C121 C122 1.386 . S
C122 C121 1.386 . S
C122 C123 1.382 . S
C122 H144 0.950 . S
C123 N119 1.332 . S
C123 C122 1.382 . S
C123 H125 0.952 . S
C124 N119 1.332 . S
C124 C120 1.382 . S
C124 H126 0.948 . S
H125 C123 0.952 . S
H126 C124 0.948 . S
H127 C116 0.952 . S
H128 C118 0.948 1_565 S
C129 C95 1.395 . S
C129 C99 1.391 . S
C130 C92 1.389 . S
C130 C112 1.392 . S
C131 C102 1.392 . S
C131 C104 1.389 . S
C132 C107 1.395 . S
C132 C109 1.391 . S
H133 C93 0.951 . S
H134 C94 0.950 . S
H135 C100 0.949 . S
H136 C101 0.950 . S
H137 C105 0.951 . S
H138 C106 0.950 . S
H139 C110 0.949 . S
H140 C111 0.950 . S
H141 C115 0.950 . S
H142 C117 0.950 1_565 S
H143 C120 0.950 . S
H144 C122 0.950 . S
C145 C146 1.443 . S
C145 N149 1.376 . S
C145 C183 1.389 . S
C146 C145 1.443 . S
C146 C147 1.340 . S
C146 H186 0.951 . S
C147 C146 1.340 . S
C147 C148 1.439 . S
C147 H187 0.950 . S
C148 C147 1.439 . S
C148 N149 1.374 . S
C148 C182 1.395 . S
N149 C145 1.376 . S
N149 C148 1.374 . S
N149 Co150 2.008 . S
Co150 N149 2.008 . S
Co150 N151 1.995 . S
Co150 N156 2.008 . S
Co150 N161 1.995 . S
Co150 N166 2.282 . S
Co150 N172 2.282 . S
N151 Co150 1.995 . S
N151 C152 1.376 . S
N151 C155 1.383 . S
C152 N151 1.376 . S
C152 C153 1.446 . S
C152 C182 1.391 . S
C153 C152 1.446 . S
C153 C154 1.339 . S
C153 H188 0.949 . S
C154 C153 1.339 . S
C154 C155 1.439 . S
C154 H189 0.950 . S
C155 N151 1.383 . S
C155 C154 1.439 . S
C155 C184 1.392 . S
N156 Co150 2.008 . S
N156 C157 1.376 . S
N156 C160 1.374 . S
C157 N156 1.376 . S
C157 C158 1.443 . S
C157 C184 1.389 . S
C158 C157 1.443 . S
C158 C159 1.340 . S
C158 H190 0.951 . S
C159 C158 1.340 . S
C159 C160 1.439 . S
C159 H191 0.950 . S
C160 N156 1.374 . S
C160 C159 1.439 . S
C160 C185 1.395 . S
N161 Co150 1.995 . S
N161 C162 1.376 . S
N161 C165 1.383 . S
C162 N161 1.376 . S
C162 C163 1.446 . S
C162 C185 1.391 . S
C163 C162 1.446 . S
C163 C164 1.339 . S
C163 H192 0.949 . S
C164 C163 1.339 . S
C164 C165 1.439 . S
C164 H193 0.950 . S
C165 N161 1.383 . S
C165 C164 1.439 . S
C165 C183 1.392 . S
N166 Co150 2.282 . S
N166 C169 1.332 . S
N166 C171 1.332 . S
C167 C168 1.386 . S
C167 C170 1.388 . S
C168 C167 1.386 . S
C168 C169 1.382 . S
C168 H194 0.950 . S
C169 N166 1.332 . S
C169 C168 1.382 . S
C169 H180 0.952 . S
C170 C167 1.388 . S
C170 C171 1.382 . S
C170 H195 0.950 . S
C171 N166 1.332 . S
C171 C170 1.382 . S
C171 H181 0.948 . S
N172 Co150 2.282 . S
N172 C176 1.332 . S
N172 C177 1.332 . S
C173 C174 1.388 . S
C173 C177 1.382 . S
C173 H196 0.950 . S
C174 C173 1.388 . S
C174 C175 1.386 . S
C175 C174 1.386 . S
C175 C176 1.382 . S
C175 H197 0.950 . S
C176 N172 1.332 . S
C176 C175 1.382 . S
C176 H178 0.952 . S
C177 N172 1.332 . S
C177 C173 1.382 . S
C177 H179 0.948 . S
H178 C176 0.952 . S
H179 C177 0.948 . S
H180 C169 0.952 . S
H181 C171 0.948 . S
C182 C148 1.395 . S
C182 C152 1.391 . S
C183 C145 1.389 . S
C183 C165 1.392 . S
C184 C155 1.392 . S
C184 C157 1.389 . S
C185 C160 1.395 . S
C185 C162 1.391 . S
H186 C146 0.951 . S
H187 C147 0.950 . S
H188 C153 0.949 . S
H189 C154 0.950 . S
H190 C158 0.951 . S
H191 C159 0.950 . S
H192 C163 0.949 . S
H193 C164 0.950 . S
H194 C168 0.950 . S
H195 C170 0.950 . S
H196 C173 0.950 . S
H197 C175 0.950 . S
C198 C199 1.391 . S
C198 C200 1.394 . S
C198 H214 0.931 . S
C199 C198 1.391 . S
C199 C203 1.376 . S
C200 C198 1.394 . S
C200 C201 1.369 . S
C200 C204 1.531 . S
C201 C200 1.369 . S
C201 C202 1.410 . S
C201 C209 1.503 . S
C202 C201 1.410 . S
C202 C203 1.392 . S
C202 C205 1.511 1_455 S
C203 C199 1.376 . S
C203 C202 1.392 . S
C203 H215 0.929 . S
C204 C200 1.531 . S
C204 H216 0.960 . S
C204 H217 0.962 . S
C204 H218 0.960 . S
C205 C202 1.511 1_655 S
C205 H219 0.961 . S
C205 H220 0.961 1_655 S
C205 H221 0.961 . S
C206 C207 1.370 . S
C206 C208 1.363 . S
C206 H222 0.931 . S
C207 C206 1.370 . S
C207 C211 1.408 1_455 S
C208 C206 1.363 . S
C208 C209 1.370 . S
C208 C212 1.524 . S
C209 C201 1.503 . S
C209 C208 1.370 . S
C209 C210 1.403 1_455 S
C210 C209 1.403 1_655 S
C210 C211 1.404 . S
C210 C213 1.539 . S
C211 C207 1.408 1_655 S
C211 C210 1.404 . S
C211 H223 0.930 . S
C212 C208 1.524 . S
C212 H224 0.956 . S
C212 H225 0.961 . S
C212 H226 0.961 . S
C213 C210 1.539 . S
C213 H227 0.958 . S
C213 H228 0.961 . S
C213 H229 0.960 . S
H214 C198 0.931 . S
H215 C203 0.929 . S
H216 C204 0.960 . S
H217 C204 0.962 . S
H218 C204 0.960 . S
H219 C205 0.961 . S
H220 C205 0.961 1_455 S
H221 C205 0.961 . S
H222 C206 0.931 . S
H223 C211 0.930 . S
H224 C212 0.956 . S
H225 C212 0.961 . S
H226 C212 0.961 . S
H227 C213 0.958 . S
H228 C213 0.961 . S
H229 C213 0.960 . S
C230 C231 1.391 . S
C230 C232 1.394 . S
C230 H246 0.931 . S
C231 C230 1.391 . S
C231 C235 1.376 . S
C232 C230 1.394 . S
C232 C233 1.369 . S
C232 C236 1.531 . S
C233 C232 1.369 . S
C233 C234 1.410 . S
C233 C241 1.503 . S
C234 C233 1.410 . S
C234 C235 1.392 . S
C234 C237 1.511 . S
C235 C231 1.376 . S
C235 C234 1.392 . S
C235 H247 0.929 . S
C236 C232 1.531 . S
C236 H248 0.960 . S
C236 H249 0.962 . S
C236 H250 0.960 . S
C237 C234 1.511 . S
C237 H251 0.961 1_545 S
C237 H252 0.961 . S
C237 H253 0.961 . S
C238 C239 1.370 . S
C238 C240 1.363 . S
C238 H254 0.931 . S
C239 C238 1.370 . S
C239 C243 1.408 . S
C240 C238 1.363 . S
C240 C241 1.370 . S
C240 C244 1.524 . S
C241 C233 1.503 . S
C241 C240 1.370 . S
C241 C242 1.403 . S
C242 C241 1.403 . S
C242 C243 1.404 . S
C242 C245 1.539 . S
C243 C239 1.408 . S
C243 C242 1.404 . S
C243 H255 0.930 . S
C244 C240 1.524 . S
C244 H256 0.956 . S
C244 H257 0.961 1_545 S
C244 H258 0.961 1_545 S
C245 C242 1.539 . S
C245 H259 0.958 . S
C245 H260 0.961 . S
C245 H261 0.960 . S
H246 C230 0.931 . S
H247 C235 0.929 . S
H248 C236 0.960 . S
H249 C236 0.962 . S
H250 C236 0.960 . S
H251 C237 0.961 1_565 S
H252 C237 0.961 . S
H253 C237 0.961 . S
H254 C238 0.931 . S
H255 C243 0.930 . S
H256 C244 0.956 . S
H257 C244 0.961 1_565 S
H258 C244 0.961 1_565 S
H259 C245 0.958 . S
H260 C245 0.961 . S
H261 C245 0.960 . S
C262 C263 1.391 . S
C262 C264 1.394 . S
C262 H278 0.931 . S
C263 C262 1.391 . S
C263 C267 1.376 . S
C264 C262 1.394 . S
C264 C265 1.369 . S
C264 C268 1.531 . S
C265 C264 1.369 . S
C265 C266 1.410 . S
C265 C273 1.503 . S
C266 C265 1.410 . S
C266 C267 1.392 . S
C266 C269 1.511 . S
C267 C263 1.376 . S
C267 C266 1.392 . S
C267 H279 0.929 . S
C268 C264 1.531 . S
C268 H280 0.960 . S
C268 H281 0.962 . S
C268 H282 0.960 . S
C269 C266 1.511 . S
C269 H283 0.961 . S
C269 H284 0.961 . S
C269 H285 0.961 . S
C270 C271 1.370 . S
C270 C272 1.363 . S
C270 H286 0.931 . S
C271 C270 1.370 . S
C271 C275 1.408 . S
C272 C270 1.363 . S
C272 C273 1.370 . S
C272 C276 1.524 . S
C273 C265 1.503 . S
C273 C272 1.370 . S
C273 C274 1.403 . S
C274 C273 1.403 . S
C274 C275 1.404 . S
C274 C277 1.539 . S
C275 C271 1.408 . S
C275 C274 1.404 . S
C275 H287 0.930 . S
C276 C272 1.524 . S
C276 H288 0.956 . S
C276 H289 0.961 . S
C276 H290 0.961 . S
C277 C274 1.539 . S
C277 H291 0.958 . S
C277 H292 0.961 . S
C277 H293 0.960 . S
H278 C262 0.931 . S
H279 C267 0.929 . S
H280 C268 0.960 . S
H281 C268 0.962 . S
H282 C268 0.960 . S
H283 C269 0.961 . S
H284 C269 0.961 . S
H285 C269 0.961 . S
H286 C270 0.931 . S
H287 C275 0.930 . S
H288 C276 0.956 . S
H289 C276 0.961 . S
H290 C276 0.961 . S
H291 C277 0.958 . S
H292 C277 0.961 . S
H293 C277 0.960 . S
C294 C295 1.391 . S
C294 C296 1.394 . S
C294 H310 0.931 1_455 S
C295 C294 1.391 . S
C295 C299 1.376 . S
C296 C294 1.394 . S
C296 C297 1.369 . S
C296 C300 1.531 1_455 S
C297 C296 1.369 . S
C297 C298 1.410 . S
C297 C305 1.503 . S
C298 C297 1.410 . S
C298 C299 1.392 . S
C298 C301 1.511 . S
C299 C295 1.376 . S
C299 C298 1.392 . S
C299 H311 0.929 . S
C300 C296 1.531 1_655 S
C300 H312 0.960 . S
C300 H313 0.962 . S
C300 H314 0.960 . S
C301 C298 1.511 . S
C301 H315 0.961 . S
C301 H316 0.961 . S
C301 H317 0.961 . S
C302 C303 1.370 . S
C302 C304 1.363 . S
C302 H318 0.931 . S
C303 C302 1.370 . S
C303 C307 1.408 . S
C304 C302 1.363 . S
C304 C305 1.370 . S
C304 C308 1.524 . S
C305 C297 1.503 . S
C305 C304 1.370 . S
C305 C306 1.403 . S
C306 C305 1.403 . S
C306 C307 1.404 . S
C306 C309 1.539 . S
C307 C303 1.408 . S
C307 C306 1.404 . S
C307 H319 0.930 . S
C308 C304 1.524 . S
C308 H320 0.956 . S
C308 H321 0.961 . S
C308 H322 0.961 . S
C309 C306 1.539 . S
C309 H323 0.958 . S
C309 H324 0.961 . S
C309 H325 0.960 . S
H310 C294 0.931 1_655 S
H311 C299 0.929 . S
H312 C300 0.960 . S
H313 C300 0.962 . S
H314 C300 0.960 . S
H315 C301 0.961 . S
H316 C301 0.961 . S
H317 C301 0.961 . S
H318 C302 0.931 . S
H319 C307 0.930 . S
H320 C308 0.956 . S
H321 C308 0.961 . S
H322 C308 0.961 . S
H323 C309 0.958 . S
H324 C309 0.961 . S
H325 C309 0.960 . S
C326 C327 1.391 . S
C326 C328 1.394 . S
C326 H342 0.931 . S
C327 C326 1.391 . S
C327 C331 1.376 . S
C328 C326 1.394 . S
C328 C329 1.369 . S
C328 C332 1.531 . S
C329 C328 1.369 . S
C329 C330 1.410 . S
C329 C337 1.503 . S
C330 C329 1.410 . S
C330 C331 1.392 . S
C330 C333 1.511 . S
C331 C327 1.376 . S
C331 C330 1.392 . S
C331 H343 0.929 . S
C332 C328 1.531 . S
C332 H344 0.960 . S
C332 H345 0.962 . S
C332 H346 0.960 . S
C333 C330 1.511 . S
C333 H347 0.961 . S
C333 H348 0.961 . S
C333 H349 0.961 . S
C334 C335 1.370 . S
C334 C336 1.363 . S
C334 H350 0.931 . S
C335 C334 1.370 . S
C335 C339 1.408 . S
C336 C334 1.363 . S
C336 C337 1.370 . S
C336 C340 1.524 . S
C337 C329 1.503 . S
C337 C336 1.370 . S
C337 C338 1.403 . S
C338 C337 1.403 . S
C338 C339 1.404 . S
C338 C341 1.539 1_545 S
C339 C335 1.408 . S
C339 C338 1.404 . S
C339 H351 0.930 . S
C340 C336 1.524 . S
C340 H352 0.956 . S
C340 H353 0.961 . S
C340 H354 0.961 . S
C341 C338 1.539 1_565 S
C341 H355 0.958 . S
C341 H356 0.961 . S
C341 H357 0.960 . S
H342 C326 0.931 . S
H343 C331 0.929 . S
H344 C332 0.960 . S
H345 C332 0.962 . S
H346 C332 0.960 . S
H347 C333 0.961 . S
H348 C333 0.961 . S
H349 C333 0.961 . S
H350 C334 0.931 . S
H351 C339 0.930 . S
H352 C340 0.956 . S
H353 C340 0.961 . S
H354 C340 0.961 . S
H355 C341 0.958 . S
H356 C341 0.961 . S
H357 C341 0.960 . S
C358 C359 1.391 . S
C358 C360 1.394 . S
C358 H374 0.931 . S
C359 C358 1.391 . S
C359 C363 1.376 . S
C360 C358 1.394 . S
C360 C361 1.369 . S
C360 C364 1.531 . S
C361 C360 1.369 . S
C361 C362 1.410 . S
C361 C369 1.503 . S
C362 C361 1.410 . S
C362 C363 1.392 . S
C362 C365 1.511 . S
C363 C359 1.376 . S
C363 C362 1.392 . S
C363 H375 0.929 . S
C364 C360 1.531 . S
C364 H376 0.960 . S
C364 H377 0.962 . S
C364 H378 0.960 . S
C365 C362 1.511 . S
C365 H379 0.961 . S
C365 H380 0.961 . S
C365 H381 0.961 . S
C366 C367 1.370 . S
C366 C368 1.363 . S
C366 H382 0.931 . S
C367 C366 1.370 . S
C367 C371 1.408 . S
C368 C366 1.363 . S
C368 C369 1.370 . S
C368 C372 1.524 . S
C369 C361 1.503 . S
C369 C368 1.370 . S
C369 C370 1.403 . S
C370 C369 1.403 . S
C370 C371 1.404 . S
C370 C373 1.539 . S
C371 C367 1.408 . S
C371 C370 1.404 . S
C371 H383 0.930 . S
C372 C368 1.524 . S
C372 H384 0.956 . S
C372 H385 0.961 . S
C372 H386 0.961 . S
C373 C370 1.539 . S
C373 H387 0.958 . S
C373 H388 0.961 . S
C373 H389 0.960 . S
H374 C358 0.931 . S
H375 C363 0.929 . S
H376 C364 0.960 . S
H377 C364 0.962 . S
H378 C364 0.960 . S
H379 C365 0.961 . S
H380 C365 0.961 . S
H381 C365 0.961 . S
H382 C366 0.931 . S
H383 C371 0.930 . S
H384 C372 0.956 . S
H385 C372 0.961 . S
H386 C372 0.961 . S
H387 C373 0.958 . S
H388 C373 0.961 . S
H389 C373 0.960 . S
C390 C391 1.391 . S
C390 C392 1.394 . S
C390 H406 0.931 1_655 S
C391 C390 1.391 . S
C391 C395 1.376 . S
C392 C390 1.394 . S
C392 C393 1.369 . S
C392 C396 1.531 . S
C393 C392 1.369 . S
C393 C394 1.410 . S
C393 C401 1.503 . S
C394 C393 1.410 . S
C394 C395 1.392 . S
C394 C397 1.511 1_545 S
C395 C391 1.376 . S
C395 C394 1.392 . S
C395 H407 0.929 1_545 S
C396 C392 1.531 . S
C396 H408 0.960 . S
C396 H409 0.962 . S
C396 H410 0.960 . S
C397 C394 1.511 1_565 S
C397 H411 0.961 . S
C397 H412 0.961 . S
C397 H413 0.961 . S
C398 C399 1.370 . S
C398 C400 1.363 . S
C398 H414 0.931 . S
C399 C398 1.370 . S
C399 C403 1.408 . S
C400 C398 1.363 . S
C400 C401 1.370 . S
C400 C404 1.524 . S
C401 C393 1.503 . S
C401 C400 1.370 . S
C401 C402 1.403 . S
C402 C401 1.403 . S
C402 C403 1.404 . S
C402 C405 1.539 1_545 S
C403 C399 1.408 . S
C403 C402 1.404 . S
C403 H415 0.930 . S
C404 C400 1.524 . S
C404 H416 0.956 . S
C404 H417 0.961 . S
C404 H418 0.961 . S
C405 C402 1.539 1_565 S
C405 H419 0.958 1_565 S
C405 H420 0.961 . S
C405 H421 0.960 . S
H406 C390 0.931 1_455 S
H407 C395 0.929 1_565 S
H408 C396 0.960 . S
H409 C396 0.962 . S
H410 C396 0.960 . S
H411 C397 0.961 . S
H412 C397 0.961 . S
H413 C397 0.961 . S
H414 C398 0.931 . S
H415 C403 0.930 . S
H416 C404 0.956 . S
H417 C404 0.961 . S
H418 C404 0.961 . S
H419 C405 0.958 1_545 S
H420 C405 0.961 . S
H421 C405 0.960 . S
C422 C423 1.391 . S
C422 C424 1.394 . S
C422 H438 0.931 1_565 S
C423 C422 1.391 . S
C423 C427 1.376 . S
C424 C422 1.394 . S
C424 C425 1.369 . S
C424 C428 1.531 . S
C425 C424 1.369 . S
C425 C426 1.410 . S
C425 C433 1.503 . S
C426 C425 1.410 . S
C426 C427 1.392 . S
C426 C429 1.511 . S
C427 C423 1.376 . S
C427 C426 1.392 . S
C427 H439 0.929 . S
C428 C424 1.531 . S
C428 H440 0.960 . S
C428 H441 0.962 . S
C428 H442 0.960 . S
C429 C426 1.511 . S
C429 H443 0.961 . S
C429 H444 0.961 . S
C429 H445 0.961 . S
C430 C431 1.370 . S
C430 C432 1.363 . S
C430 H446 0.931 . S
C431 C430 1.370 . S
C431 C435 1.408 . S
C432 C430 1.363 . S
C432 C433 1.370 . S
C432 C436 1.524 . S
C433 C425 1.503 . S
C433 C432 1.370 . S
C433 C434 1.403 . S
C434 C433 1.403 . S
C434 C435 1.404 . S
C434 C437 1.539 . S
C435 C431 1.408 . S
C435 C434 1.404 . S
C435 H447 0.930 . S
C436 C432 1.524 . S
C436 H448 0.956 . S
C436 H449 0.961 . S
C436 H450 0.961 . S
C437 C434 1.539 . S
C437 H451 0.958 . S
C437 H452 0.961 . S
C437 H453 0.960 . S
H438 C422 0.931 1_545 S
H439 C427 0.929 . S
H440 C428 0.960 . S
H441 C428 0.962 . S
H442 C428 0.960 . S
H443 C429 0.961 . S
H444 C429 0.961 . S
H445 C429 0.961 . S
H446 C430 0.931 . S
H447 C435 0.930 . S
H448 C436 0.956 . S
H449 C436 0.961 . S
H450 C436 0.961 . S
H451 C437 0.958 . S
H452 C437 0.961 . S
H453 C437 0.960 . S
C454 C455 1.391 . S
C454 C456 1.394 . S
C454 H470 0.931 . S
C455 C454 1.391 . S
C455 C459 1.376 1_455 S
C456 C454 1.394 . S
C456 C457 1.369 . S
C456 C460 1.531 . S
C457 C456 1.369 . S
C457 C458 1.410 1_455 S
C457 C465 1.503 . S
C458 C457 1.410 1_655 S
C458 C459 1.392 . S
C458 C461 1.511 . S
C459 C455 1.376 1_655 S
C459 C458 1.392 . S
C459 H471 0.929 . S
C460 C456 1.531 . S
C460 H472 0.960 . S
C460 H473 0.962 . S
C460 H474 0.960 . S
C461 C458 1.511 . S
C461 H475 0.961 . S
C461 H476 0.961 . S
C461 H477 0.961 . S
C462 C463 1.370 . S
C462 C464 1.363 . S
C462 H478 0.931 . S
C463 C462 1.370 . S
C463 C467 1.408 1_455 S
C464 C462 1.363 . S
C464 C465 1.370 . S
C464 C468 1.524 . S
C465 C457 1.503 . S
C465 C464 1.370 . S
C465 C466 1.403 1_455 S
C466 C465 1.403 1_655 S
C466 C467 1.404 . S
C466 C469 1.539 . S
C467 C463 1.408 1_655 S
C467 C466 1.404 . S
C467 H479 0.930 . S
C468 C464 1.524 . S
C468 H480 0.956 . S
C468 H481 0.961 . S
C468 H482 0.961 . S
C469 C466 1.539 . S
C469 H483 0.958 . S
C469 H484 0.961 . S
C469 H485 0.960 . S
H470 C454 0.931 . S
H471 C459 0.929 . S
H472 C460 0.960 . S
H473 C460 0.962 . S
H474 C460 0.960 . S
H475 C461 0.961 . S
H476 C461 0.961 . S
H477 C461 0.961 . S
H478 C462 0.931 . S
H479 C467 0.930 . S
H480 C468 0.956 . S
H481 C468 0.961 . S
H482 C468 0.961 . S
H483 C469 0.958 . S
H484 C469 0.961 . S
H485 C469 0.960 . S
C486 C487 1.391 1_565 S
C486 C488 1.394 . S
C486 H502 0.931 . S
C487 C486 1.391 1_545 S
C487 C491 1.376 . S
C488 C486 1.394 . S
C488 C489 1.369 1_565 S
C488 C492 1.531 . S
C489 C488 1.369 1_545 S
C489 C490 1.410 . S
C489 C497 1.503 . S
C490 C489 1.410 . S
C490 C491 1.392 . S
C490 C493 1.511 . S
C491 C487 1.376 . S
C491 C490 1.392 . S
C491 H503 0.929 . S
C492 C488 1.531 . S
C492 H504 0.960 . S
C492 H505 0.962 . S
C492 H506 0.960 . S
C493 C490 1.511 . S
C493 H507 0.961 . S
C493 H508 0.961 . S
C493 H509 0.961 . S
C494 C495 1.370 . S
C494 C496 1.363 . S
C494 H510 0.931 . S
C495 C494 1.370 . S
C495 C499 1.408 . S
C496 C494 1.363 . S
C496 C497 1.370 . S
C496 C500 1.524 . S
C497 C489 1.503 . S
C497 C496 1.370 . S
C497 C498 1.403 . S
C498 C497 1.403 . S
C498 C499 1.404 . S
C498 C501 1.539 . S
C499 C495 1.408 . S
C499 C498 1.404 . S
C499 H511 0.930 . S
C500 C496 1.524 . S
C500 H512 0.956 1_545 S
C500 H513 0.961 . S
C500 H514 0.961 . S
C501 C498 1.539 . S
C501 H515 0.958 . S
C501 H516 0.961 . S
C501 H517 0.960 . S
H502 C486 0.931 . S
H503 C491 0.929 . S
H504 C492 0.960 . S
H505 C492 0.962 . S
H506 C492 0.960 . S
H507 C493 0.961 . S
H508 C493 0.961 . S
H509 C493 0.961 . S
H510 C494 0.931 . S
H511 C499 0.930 . S
H512 C500 0.956 1_565 S
H513 C500 0.961 . S
H514 C500 0.961 . S
H515 C501 0.958 . S
H516 C501 0.961 . S
H517 C501 0.960 . S
C518 C519 1.391 . S
C518 C520 1.394 . S
C518 H534 0.931 . S
C519 C518 1.391 . S
C519 C523 1.376 . S
C520 C518 1.394 . S
C520 C521 1.369 . S
C520 C524 1.531 . S
C521 C520 1.369 . S
C521 C522 1.410 . S
C521 C529 1.503 . S
C522 C521 1.410 . S
C522 C523 1.392 . S
C522 C525 1.511 . S
C523 C519 1.376 . S
C523 C522 1.392 . S
C523 H535 0.929 1_556 S
C524 C520 1.531 . S
C524 H536 0.960 . S
C524 H537 0.962 . S
C524 H538 0.960 . S
C525 C522 1.511 . S
C525 H539 0.961 1_556 S
C525 H540 0.961 . S
C525 H541 0.961 . S
C526 C527 1.370 . S
C526 C528 1.363 . S
C526 H542 0.931 . S
C527 C526 1.370 . S
C527 C531 1.408 . S
C528 C526 1.363 . S
C528 C529 1.370 . S
C528 C532 1.524 . S
C529 C521 1.503 . S
C529 C528 1.370 . S
C529 C530 1.403 . S
C530 C529 1.403 . S
C530 C531 1.404 . S
C530 C533 1.539 . S
C531 C527 1.408 . S
C531 C530 1.404 . S
C531 H543 0.930 . S
C532 C528 1.524 . S
C532 H544 0.956 . S
C532 H545 0.961 . S
C532 H546 0.961 . S
C533 C530 1.539 . S
C533 H547 0.958 . S
C533 H548 0.961 . S
C533 H549 0.960 . S
H534 C518 0.931 . S
H535 C523 0.929 1_554 S
H536 C524 0.960 . S
H537 C524 0.962 . S
H538 C524 0.960 . S
H539 C525 0.961 1_554 S
H540 C525 0.961 . S
H541 C525 0.961 . S
H542 C526 0.931 . S
H543 C531 0.930 . S
H544 C532 0.956 . S
H545 C532 0.961 . S
H546 C532 0.961 . S
H547 C533 0.958 . S
H548 C533 0.961 . S
H549 C533 0.960 . S
C550 C551 1.391 . S
C550 C552 1.394 . S
C550 H566 0.931 . S
C551 C550 1.391 . S
C551 C555 1.376 . S
C552 C550 1.394 . S
C552 C553 1.369 . S
C552 C556 1.531 1_455 S
C553 C552 1.369 . S
C553 C554 1.410 . S
C553 C561 1.503 . S
C554 C553 1.410 . S
C554 C555 1.392 . S
C554 C557 1.511 . S
C555 C551 1.376 . S
C555 C554 1.392 . S
C555 H567 0.929 . S
C556 C552 1.531 1_655 S
C556 H568 0.960 . S
C556 H569 0.962 . S
C556 H570 0.960 . S
C557 C554 1.511 . S
C557 H571 0.961 . S
C557 H572 0.961 . S
C557 H573 0.961 . S
C558 C559 1.370 1_655 S
C558 C560 1.363 1_655 S
C558 H574 0.931 . S
C559 C558 1.370 1_455 S
C559 C563 1.408 . S
C560 C558 1.363 1_455 S
C560 C561 1.370 . S
C560 C564 1.524 1_455 S
C561 C553 1.503 . S
C561 C560 1.370 . S
C561 C562 1.403 . S
C562 C561 1.403 . S
C562 C563 1.404 . S
C562 C565 1.539 . S
C563 C559 1.408 . S
C563 C562 1.404 . S
C563 H575 0.930 . S
C564 C560 1.524 1_655 S
C564 H576 0.956 . S
C564 H577 0.961 1_655 S
C564 H578 0.961 . S
C565 C562 1.539 . S
C565 H579 0.958 . S
C565 H580 0.961 . S
C565 H581 0.960 . S
H566 C550 0.931 . S
H567 C555 0.929 . S
H568 C556 0.960 . S
H569 C556 0.962 . S
H570 C556 0.960 . S
H571 C557 0.961 . S
H572 C557 0.961 . S
H573 C557 0.961 . S
H574 C558 0.931 . S
H575 C563 0.930 . S
H576 C564 0.956 . S
H577 C564 0.961 1_455 S
H578 C564 0.961 . S
H579 C565 0.958 . S
H580 C565 0.961 . S
H581 C565 0.960 . S
C207 C61 1.420 . S
C199 C10 1.408 . S
C231 C21 1.438 . S
C239 C131 1.462 . S
C263 C31 1.394 . S
C271 C183 1.446 . S
C295 C0 1.419 . S
C303 C77 1.437 . S
C335 C121 1.444 . S
C327 C18 1.344 . S
C359 C34 1.399 . S
C367 C167 1.428 . S
C399 C114 1.402 . S
C391 C36 1.403 . S
C423 C8 1.376 1_566 S
C431 C174 1.433 . S
C463 C68 1.420 . S
C455 C23 1.410 1_565 S
C495 C130 1.387 . S
C487 C26 1.301 . S
C527 C184 1.458 . S
C519 C5 1.347 1_556 S
C551 C13 1.422 . S
C559 C78 1.436 . S
