# Generated by pormake.
# Topology gar, (4,6)-cn, num edge types: 1
# Building blocks:
#     Node 0, Type 0, BuildingBlock: AZAVOO_clean_sbu_0, # of connection points: 4
#     Node 1, Type 0, BuildingBlock: AZAVOO_clean_sbu_0, # of connection points: 4
#     Node 2, Type 0, BuildingBlock: AZAVOO_clean_sbu_0, # of connection points: 4
#     Node 3, Type 0, BuildingBlock: AZAVOO_clean_sbu_0, # of connection points: 4
#     Node 4, Type 0, BuildingBlock: AZAVOO_clean_sbu_0, # of connection points: 4
#     Node 5, Type 0, BuildingBlock: AZAVOO_clean_sbu_0, # of connection points: 4
#     Node 6, Type 0, BuildingBlock: AZAVOO_clean_sbu_0, # of connection points: 4
#     Node 7, Type 0, BuildingBlock: AZAVOO_clean_sbu_0, # of connection points: 4
#     Node 8, Type 0, BuildingBlock: AZAVOO_clean_sbu_0, # of connection points: 4
#     Node 9, Type 0, BuildingBlock: AZAVOO_clean_sbu_0, # of connection points: 4
#     Node 10, Type 0, BuildingBlock: AZAVOO_clean_sbu_0, # of connection points: 4
#     Node 11, Type 0, BuildingBlock: AZAVOO_clean_sbu_0, # of connection points: 4
#     Node 12, Type 0, BuildingBlock: AZAVOO_clean_sbu_0, # of connection points: 4
#     Node 13, Type 0, BuildingBlock: AZAVOO_clean_sbu_0, # of connection points: 4
#     Node 14, Type 0, BuildingBlock: AZAVOO_clean_sbu_0, # of connection points: 4
#     Node 15, Type 0, BuildingBlock: AZAVOO_clean_sbu_0, # of connection points: 4
#     Node 16, Type 0, BuildingBlock: AZAVOO_clean_sbu_0, # of connection points: 4
#     Node 17, Type 0, BuildingBlock: AZAVOO_clean_sbu_0, # of connection points: 4
#     Node 18, Type 0, BuildingBlock: AZAVOO_clean_sbu_0, # of connection points: 4
#     Node 19, Type 0, BuildingBlock: AZAVOO_clean_sbu_0, # of connection points: 4
#     Node 20, Type 0, BuildingBlock: AZAVOO_clean_sbu_0, # of connection points: 4
#     Node 21, Type 0, BuildingBlock: AZAVOO_clean_sbu_0, # of connection points: 4
#     Node 22, Type 0, BuildingBlock: AZAVOO_clean_sbu_0, # of connection points: 4
#     Node 23, Type 0, BuildingBlock: AZAVOO_clean_sbu_0, # of connection points: 4
#     Node 24, Type 1, BuildingBlock: CUWYAW_clean_sbu_0, # of connection points: 6
#     Node 25, Type 1, BuildingBlock: CUWYAW_clean_sbu_0, # of connection points: 6
#     Node 26, Type 1, BuildingBlock: CUWYAW_clean_sbu_0, # of connection points: 6
#     Node 27, Type 1, BuildingBlock: CUWYAW_clean_sbu_0, # of connection points: 6
#     Node 28, Type 1, BuildingBlock: CUWYAW_clean_sbu_0, # of connection points: 6
#     Node 29, Type 1, BuildingBlock: CUWYAW_clean_sbu_0, # of connection points: 6
#     Node 30, Type 1, BuildingBlock: CUWYAW_clean_sbu_0, # of connection points: 6
#     Node 31, Type 1, BuildingBlock: CUWYAW_clean_sbu_0, # of connection points: 6
#     Node 32, Type 1, BuildingBlock: CUWYAW_clean_sbu_0, # of connection points: 6
#     Node 33, Type 1, BuildingBlock: CUWYAW_clean_sbu_0, # of connection points: 6
#     Node 34, Type 1, BuildingBlock: CUWYAW_clean_sbu_0, # of connection points: 6
#     Node 35, Type 1, BuildingBlock: CUWYAW_clean_sbu_0, # of connection points: 6
#     Node 36, Type 1, BuildingBlock: CUWYAW_clean_sbu_0, # of connection points: 6
#     Node 37, Type 1, BuildingBlock: CUWYAW_clean_sbu_0, # of connection points: 6
#     Node 38, Type 1, BuildingBlock: CUWYAW_clean_sbu_0, # of connection points: 6
#     Node 39, Type 1, BuildingBlock: CUWYAW_clean_sbu_0, # of connection points: 6
#     Edge 40, Type (0, 1), None
#     Edge 41, Type (0, 1), None
#     Edge 42, Type (0, 1), None
#     Edge 43, Type (0, 1), None
#     Edge 44, Type (0, 1), None
#     Edge 45, Type (0, 1), None
#     Edge 46, Type (0, 1), None
#     Edge 47, Type (0, 1), None
#     Edge 48, Type (0, 1), None
#     Edge 49, Type (0, 1), None
#     Edge 50, Type (0, 1), None
#     Edge 51, Type (0, 1), None
#     Edge 52, Type (0, 1), None
#     Edge 53, Type (0, 1), None
#     Edge 54, Type (0, 1), None
#     Edge 55, Type (0, 1), None
#     Edge 56, Type (0, 1), None
#     Edge 57, Type (0, 1), None
#     Edge 58, Type (0, 1), None
#     Edge 59, Type (0, 1), None
#     Edge 60, Type (0, 1), None
#     Edge 61, Type (0, 1), None
#     Edge 62, Type (0, 1), None
#     Edge 63, Type (0, 1), None
#     Edge 64, Type (0, 1), None
#     Edge 65, Type (0, 1), None
#     Edge 66, Type (0, 1), None
#     Edge 67, Type (0, 1), None
#     Edge 68, Type (0, 1), None
#     Edge 69, Type (0, 1), None
#     Edge 70, Type (0, 1), None
#     Edge 71, Type (0, 1), None
#     Edge 72, Type (0, 1), None
#     Edge 73, Type (0, 1), None
#     Edge 74, Type (0, 1), None
#     Edge 75, Type (0, 1), None
#     Edge 76, Type (0, 1), None
#     Edge 77, Type (0, 1), None
#     Edge 78, Type (0, 1), None
#     Edge 79, Type (0, 1), None
#     Edge 80, Type (0, 1), None
#     Edge 81, Type (0, 1), None
#     Edge 82, Type (0, 1), None
#     Edge 83, Type (0, 1), None
#     Edge 84, Type (0, 1), None
#     Edge 85, Type (0, 1), None
#     Edge 86, Type (0, 1), None
#     Edge 87, Type (0, 1), None
#     Edge 88, Type (0, 1), None
#     Edge 89, Type (0, 1), None
#     Edge 90, Type (0, 1), None
#     Edge 91, Type (0, 1), None
#     Edge 92, Type (0, 1), None
#     Edge 93, Type (0, 1), None
#     Edge 94, Type (0, 1), None
#     Edge 95, Type (0, 1), None
#     Edge 96, Type (0, 1), None
#     Edge 97, Type (0, 1), None
#     Edge 98, Type (0, 1), None
#     Edge 99, Type (0, 1), None
#     Edge 100, Type (0, 1), None
#     Edge 101, Type (0, 1), None
#     Edge 102, Type (0, 1), None
#     Edge 103, Type (0, 1), None
#     Edge 104, Type (0, 1), None
#     Edge 105, Type (0, 1), None
#     Edge 106, Type (0, 1), None
#     Edge 107, Type (0, 1), None
#     Edge 108, Type (0, 1), None
#     Edge 109, Type (0, 1), None
#     Edge 110, Type (0, 1), None
#     Edge 111, Type (0, 1), None
#     Edge 112, Type (0, 1), None
#     Edge 113, Type (0, 1), None
#     Edge 114, Type (0, 1), None
#     Edge 115, Type (0, 1), None
#     Edge 116, Type (0, 1), None
#     Edge 117, Type (0, 1), None
#     Edge 118, Type (0, 1), None
#     Edge 119, Type (0, 1), None
#     Edge 120, Type (0, 1), None
#     Edge 121, Type (0, 1), None
#     Edge 122, Type (0, 1), None
#     Edge 123, Type (0, 1), None
#     Edge 124, Type (0, 1), None
#     Edge 125, Type (0, 1), None
#     Edge 126, Type (0, 1), None
#     Edge 127, Type (0, 1), None
#     Edge 128, Type (0, 1), None
#     Edge 129, Type (0, 1), None
#     Edge 130, Type (0, 1), None
#     Edge 131, Type (0, 1), None
#     Edge 132, Type (0, 1), None
#     Edge 133, Type (0, 1), None
#     Edge 134, Type (0, 1), None
#     Edge 135, Type (0, 1), None
# Relax obj value: 0.541
# Max RMSD: 0.458
# Mean RMSD: 0.243
data_MOF--net-gar--node1-AZAVOO_clean_sbu_0--node2-CUWYAW_clean_sbu_0--edge1-none
_symmetry_space_group_name_H-M    P1
_symmetry_Int_Tables_number       1
_symmetry_cell_setting            triclinic
loop_
_symmetry_equiv_pos_as_xyz
'x, y, z'
_cell_length_a     34.964104
_cell_length_b     24.889994
_cell_length_c     25.981226
_cell_angle_alpha  107.92054
_cell_angle_beta   96.123148
_cell_angle_gamma 99.942893
loop_
_atom_site_label
_atom_site_type_symbol
_atom_site_fract_x
_atom_site_fract_y
_atom_site_fract_z
_atom_type_partial_charge
Mg0 Mg 0.19226 0.3815 0.57455 0.0
O1 O 0.2203 0.46939 0.63783 0.0
O2 O 0.1733 0.46833 0.68525 0.0
Mg3 Mg 0.10701 0.42691 0.65389 0.0
C4 C 0.19081 0.4891 0.65282 0.0
C5 C 0.20314 0.40725 0.46184 0.0
O6 O 0.21148 0.44638 0.43868 0.0
O7 O 0.18904 0.34226 0.64311 0.0
O8 O 0.16279 0.40958 0.6917 0.0
O9 O 0.14074 0.31186 0.51268 0.0
O10 O 0.12744 0.3859 0.57099 0.0
C11 C 0.16489 0.35696 0.67526 0.0
C12 C 0.11444 0.33943 0.53014 0.0
O13 O 0.19866 0.42456 0.51155 0.0
Mg14 Mg 1.04731 0.67787 0.67778 0.0
O15 O 1.00946 0.59141 0.63263 0.0
O16 O 0.98349 0.58372 0.55178 0.0
Mg17 Mg 0.95159 0.64866 0.60337 0.0
C18 C 1.01159 0.57798 0.58226 0.0
C19 C 0.10908 0.80084 0.7544 0.0
O20 O 0.11646 0.85756 0.77104 0.0
O21 O 0.05531 0.696 0.5998 0.0
O22 O 0.99437 0.70016 0.5666 0.0
O23 O 1.02182 0.67634 0.74993 0.0
O24 O 0.99392 0.70463 0.68535 0.0
C25 C 1.03141 0.7063 0.56557 0.0
C26 C 0.9972 0.70382 0.73501 0.0
O27 O 0.07683 0.77289 0.72294 0.0
Mg28 Mg 0.65649 0.83395 0.95625 0.0
O29 O 0.68613 0.92518 0.00681 0.0
O30 O 0.62276 0.9023 0.00563 0.0
Mg31 Mg 0.5926 0.88501 0.07168 0.0
C32 C 0.65558 0.93791 0.02547 0.0
C33 C 0.64666 0.85101 0.83955 0.0
O34 O 0.63381 0.87255 0.80249 0.0
O35 O 0.66974 0.80404 0.03114 0.0
O36 O 0.65611 0.87796 0.09276 0.0
O37 O 0.60085 0.76089 0.91736 0.0
O38 O 0.60007 0.83983 0.98273 0.0
C39 C 0.65931 0.82612 0.07764 0.0
C40 C 0.58123 0.79121 0.94918 0.0
O41 O 0.63918 0.86952 0.88776 0.0
Mg42 Mg 0.5697 0.1984 0.20645 0.0
O43 O 0.53254 0.11054 0.16218 0.0
O44 O 0.5003 0.09959 0.0834 0.0
Mg45 Mg 0.46993 0.167 0.13593 0.0
C46 C 0.52949 0.09127 0.1104 0.0
C47 C 0.63222 0.32698 0.26465 0.0
O48 O 0.63671 0.38351 0.28253 0.0
O49 O 0.57469 0.21023 0.12637 0.0
O50 O 0.51281 0.21502 0.09708 0.0
O51 O 0.54539 0.20066 0.28174 0.0
O52 O 0.51535 0.22115 0.21379 0.0
C53 C 0.54946 0.22022 0.09357 0.0
C54 C 0.51818 0.2225 0.26386 0.0
O55 O 0.59764 0.29563 0.24813 0.0
Mg56 Mg 0.18264 0.85737 0.23973 0.0
O57 O 0.16553 0.75946 0.1829 0.0
O58 O 0.12681 0.75562 0.10946 0.0
Mg59 Mg 0.07481 0.77337 0.14946 0.0
C60 C 0.14662 0.73061 0.13463 0.0
C61 C 0.26382 0.85136 0.3032 0.0
O62 O 0.27076 0.89779 0.28883 0.0
O63 O 0.14634 0.90508 0.1893 0.0
O64 O 0.0874 0.86075 0.13717 0.0
O65 O 0.14145 0.85604 0.30909 0.0
O66 O 0.11904 0.80583 0.22753 0.0
C67 C 0.11613 0.90444 0.15581 0.0
C68 C 0.1124 0.82141 0.27546 0.0
O69 O 0.22805 0.82187 0.2916 0.0
Mg70 Mg 0.52716 0.73962 0.47375 0.0
O71 O 0.55841 0.83382 0.52258 0.0
O72 O 0.52421 0.84672 0.58909 0.0
Mg73 Mg 0.51519 0.75048 0.55093 0.0
C74 C 0.54845 0.86754 0.56387 0.0
C75 C 0.59679 0.774 0.4107 0.0
O76 O 0.57071 0.79796 0.39101 0.0
O77 O 0.56134 0.69013 0.52286 0.0
O78 O 0.56765 0.74342 0.6084 0.0
O79 O 0.48616 0.77806 0.42785 0.0
O80 O 0.46266 0.74959 0.4926 0.0
C81 C 0.57616 0.70127 0.57311 0.0
C82 C 0.45713 0.76988 0.45309 0.0
O83 O 0.58614 0.74274 0.4394 0.0
Mg84 Mg 0.67546 0.35194 0.73473 0.0
O85 O 0.66037 0.25636 0.68052 0.0
O86 O 0.61755 0.24852 0.60911 0.0
Mg87 Mg 0.56585 0.27269 0.64849 0.0
C88 C 0.64034 0.22638 0.63357 0.0
C89 C 0.75516 0.31797 0.77711 0.0
O90 O 0.76636 0.34113 0.74059 0.0
O91 O 0.6422 0.39506 0.67783 0.0
O92 O 0.58222 0.35431 0.62734 0.0
O93 O 0.63641 0.34998 0.80755 0.0
O94 O 0.6088 0.31136 0.72688 0.0
C95 C 0.61312 0.39462 0.64281 0.0
C96 C 0.60472 0.32226 0.77579 0.0
O97 O 0.71935 0.31521 0.78575 0.0
Mg98 Mg 1.03008 0.24028 0.97159 0.0
O99 O 0.06119 0.33592 0.01985 0.0
O100 O 1.02293 0.34972 0.08126 0.0
Mg101 Mg 1.01305 0.25314 0.04343 0.0
C102 C 0.04933 0.37031 0.05885 0.0
C103 C 0.1 0.26432 0.90724 0.0
O104 O 0.07363 0.28342 0.88188 0.0
O105 O 0.06229 0.19276 0.02446 0.0
O106 O 0.06215 0.24563 0.10773 0.0
O107 O 0.99575 0.27624 0.91766 0.0
O108 O 0.96352 0.25431 0.9788 0.0
C109 C 0.07444 0.20517 0.07562 0.0
C110 C 0.96343 0.27108 0.93648 0.0
O111 O 0.08977 0.23982 0.94137 0.0
Mg112 Mg 0.49985 0.07543 0.36271 0.0
O113 O 0.44924 0.98319 0.34634 0.0
O114 O 0.42714 1.01938 0.42265 0.0
Mg115 Mg 0.46425 0.1067 0.42754 0.0
C116 C 0.42719 0.97533 0.38174 0.0
C117 C 0.56899 0.06852 0.2632 0.0
O118 O 0.59536 0.09663 0.30759 0.0
O119 O 0.45237 0.1439 0.34193 0.0
O120 O 0.41169 0.13976 0.39926 0.0
O121 O 0.54537 0.03214 0.40038 0.0
O122 O 0.51756 0.08217 0.46246 0.0
C123 C 0.42139 0.15946 0.36195 0.0
C124 C 0.54305 0.05102 0.45134 0.0
O125 O 0.53201 0.05566 0.27051 0.0
Mg126 Mg 0.28235 0.19202 0.56886 0.0
O127 O 0.30757 0.2301 0.6667 0.0
O128 O 0.37378 0.2529 0.68396 0.0
Mg129 Mg 0.38473 0.27661 0.61222 0.0
C130 C 0.34074 0.24319 0.69945 0.0
C131 C 0.19521 0.11518 0.55249 0.0
O132 O 0.20005 0.11281 0.50246 0.0
O133 O 0.3214 0.25193 0.52153 0.0
O134 O 0.38404 0.29983 0.53894 0.0
O135 O 0.31476 0.11435 0.56284 0.0
O136 O 0.34623 0.19429 0.56248 0.0
C137 C 0.35015 0.28416 0.50936 0.0
C138 C 0.34811 0.14509 0.56512 0.0
O139 O 0.22415 0.14302 0.5916 0.0
Mg140 Mg 0.21369 1.01724 0.87424 0.0
O141 O 0.26424 0.11055 0.87803 0.0
O142 O 0.31598 0.09555 0.92057 0.0
Mg143 Mg 0.26125 0.04947 0.94316 0.0
C144 C 0.30229 0.12481 0.89373 0.0
C145 C 0.14941 1.00063 0.74685 0.0
O146 O 0.12184 0.96958 0.7627 0.0
O147 O 0.25591 0.93879 0.85519 0.0
O148 O 0.28902 0.97001 0.93863 0.0
O149 O 0.16596 0.05341 0.92997 0.0
O150 O 0.20412 1.01352 0.96857 0.0
C151 C 0.28104 0.93084 0.89179 0.0
C152 C 0.17312 0.03539 0.9707 0.0
O153 O 0.18421 1.01981 0.77827 0.0
Mg154 Mg 0.29372 0.83117 0.10963 0.0
O155 O 0.26839 0.79523 0.02035 0.0
O156 O 0.29667 0.72191 0.01023 0.0
Mg157 Mg 0.36292 0.74308 0.03261 0.0
C158 C 0.28075 0.75416 0.98979 0.0
C159 C 0.21598 0.88606 0.12232 0.0
O160 O 0.1784 0.87338 0.10213 0.0
O161 O 0.27711 0.74187 0.1195 0.0
O162 O 0.30529 0.69778 0.05424 0.0
O163 O 0.32963 0.90834 0.09497 0.0
O164 O 0.35187 0.82911 0.08868 0.0
C165 C 0.30429 0.71532 0.10546 0.0
C166 C 0.35776 0.88071 0.08651 0.0
O167 O 0.23303 0.84427 0.11657 0.0
Mg168 Mg 0.41867 0.42476 0.16834 0.0
O169 O 0.38537 0.3699 0.08022 0.0
O170 O 0.42122 0.30556 0.06979 0.0
Mg171 Mg 0.43521 0.34736 0.16271 0.0
C172 C 0.39584 0.32701 0.04904 0.0
C173 C 0.35427 0.49186 0.13614 0.0
O174 O 0.38491 0.51605 0.11973 0.0
O175 O 0.3867 0.37273 0.22509 0.0
O176 O 0.38679 0.28368 0.1778 0.0
O177 O 0.45963 0.47359 0.12508 0.0
O178 O 0.48478 0.41219 0.15512 0.0
C179 C 0.37651 0.31851 0.218 0.0
C180 C 0.48952 0.45147 0.1324 0.0
O181 O 0.3594 0.45772 0.16295 0.0
Mg182 Mg 0.93676 0.2957 0.1988 0.0
O183 O 0.90787 0.37398 0.22779 0.0
O184 O 0.96085 0.39267 0.28451 0.0
Mg185 Mg 0.96951 0.32423 0.20718 0.0
C186 C 0.92353 0.38585 0.2768 0.0
C187 C 0.86275 0.20401 0.11256 0.0
O188 O 0.88542 0.1772 0.08141 0.0
O189 O 0.91857 0.36972 0.17379 0.0
O190 O 0.97822 0.38911 0.16024 0.0
O191 O 0.95448 0.20983 0.19178 0.0
O192 O 0.96625 0.24773 0.12948 0.0
C193 C 0.94406 0.39909 0.15646 0.0
C194 C 0.96295 0.20303 0.14409 0.0
O195 O 0.87686 0.24546 0.15676 0.0
Mg196 Mg 0.20828 0.51924 0.35059 0.0
O197 O 0.26014 0.59905 0.34328 0.0
O198 O 0.28304 0.6329 0.43098 0.0
Mg199 Mg 0.25117 0.54238 0.43075 0.0
C200 C 0.28245 0.64002 0.38451 0.0
C201 C 0.15694 0.54106 0.23885 0.0
O202 O 0.18447 0.5192 0.2145 0.0
O203 O 0.25399 0.44643 0.36111 0.0
O204 O 0.30577 0.50197 0.41901 0.0
O205 O 0.1559 0.48369 0.39755 0.0
O206 O 0.19169 0.56717 0.44149 0.0
C207 C 0.28966 0.4516 0.38591 0.0
C208 C 0.16187 0.5284 0.44078 0.0
O209 O 0.15841 0.54809 0.29112 0.0
Mg210 Mg 0.92127 0.92246 0.66748 0.0
O211 O 0.88664 0.87313 0.58 0.0
O212 O 0.92218 0.8083 0.5633 0.0
Mg213 Mg 0.93883 0.843 0.65615 0.0
C214 C 0.89639 0.83157 0.54607 0.0
C215 C 0.85523 0.98868 0.64183 0.0
O216 O 0.88551 1.01594 0.62714 0.0
O217 O 0.891 0.86465 0.71884 0.0
O218 O 0.8926 0.77671 0.6688 0.0
O219 O 0.96118 0.97444 0.62623 0.0
O220 O 0.98652 0.90998 0.65135 0.0
C221 C 0.88237 0.81003 0.71004 0.0
C222 C 0.99079 0.95095 0.63098 0.0
O223 O 0.86129 0.95342 0.66684 0.0
Mg224 Mg 0.98745 0.06002 0.34657 0.0
O225 O 0.93541 0.97118 0.33608 0.0
O226 O 0.91788 1.00555 0.41527 0.0
Mg227 Mg 0.95284 0.09159 0.40628 0.0
C228 C 0.9161 0.96157 0.37335 0.0
C229 C 1.04093 0.07025 0.23338 0.0
O230 O 1.00625 0.05122 0.20217 0.0
O231 O 0.94747 0.13315 0.32744 0.0
O232 O 0.89887 0.11698 0.37028 0.0
O233 O 1.02776 1.01244 0.39184 0.0
O234 O 1.01157 0.08522 0.44655 0.0
C235 C 0.91384 0.14383 0.34023 0.0
C236 C 1.03021 0.04493 0.4415 0.0
O237 O 1.04217 0.07799 0.2862 0.0
Mg238 Mg 0.41198 0.76444 0.67111 0.0
O239 O 0.36246 0.77699 0.71094 0.0
O240 O 0.41276 0.83986 0.76755 0.0
Mg241 Mg 0.44267 0.79196 0.70283 0.0
C242 C 0.37707 0.81239 0.75789 0.0
C243 C 0.33875 0.73393 0.5717 0.0
O244 O 0.32642 0.72467 0.51985 0.0
O245 O 0.40733 0.85198 0.66971 0.0
O246 O 0.47035 0.87746 0.68879 0.0
O247 O 0.41618 0.67547 0.66111 0.0
O248 O 0.46035 0.73028 0.63211 0.0
C249 C 0.43769 0.8906 0.67857 0.0
C250 C 0.44403 0.67958 0.63286 0.0
O251 O 0.37513 0.73774 0.58716 0.0
Mg252 Mg 0.48003 0.54997 0.84247 0.0
O253 O 0.43301 0.45645 0.832 0.0
O254 O 0.41741 0.48476 0.91351 0.0
Mg255 Mg 0.44333 0.57262 0.90363 0.0
C256 C 0.4164 0.44318 0.87005 0.0
C257 C 0.53497 0.55361 0.72284 0.0
O258 O 0.50329 0.52042 0.68872 0.0
O259 O 0.43074 0.6173 0.83116 0.0
O260 O 0.38365 0.5847 0.86966 0.0
O261 O 0.52576 0.50832 0.88746 0.0
O262 O 0.50464 0.57571 0.94201 0.0
C263 C 0.3955 0.61859 0.84406 0.0
C264 C 0.52616 0.53891 0.93723 0.0
O265 O 0.53304 0.56877 0.77613 0.0
Mg266 Mg 0.70859 1.01541 0.85129 0.0
O267 O 0.76123 0.08881 0.83725 0.0
O268 O 0.78823 0.12186 0.9237 0.0
Mg269 Mg 0.75303 0.03572 0.92791 0.0
C270 C 0.78627 0.12795 0.87671 0.0
C271 C 0.65534 0.0374 0.74126 0.0
O272 O 0.68294 1.01658 0.71634 0.0
O273 O 0.75004 0.93685 0.85782 0.0
O274 O 0.80425 0.98957 0.91162 0.0
O275 O 0.65877 0.98792 0.90373 0.0
O276 O 0.6974 0.06985 0.94401 0.0
C277 C 0.78613 0.9398 0.87949 0.0
C278 C 0.66642 0.03444 0.94528 0.0
O279 O 0.65768 0.04446 0.79357 0.0
Mg280 Mg 0.78795 0.6918 0.06515 0.0
O281 O 0.79881 0.71584 0.16193 0.0
O282 O 0.86232 0.76308 0.18586 0.0
Mg283 Mg 0.86814 0.7842 0.11137 0.0
C284 C 0.83046 0.74014 0.19764 0.0
C285 C 0.70153 0.6086 0.064 0.0
O286 O 0.72467 0.57291 0.06667 0.0
O287 O 0.80333 0.73051 0.9909 0.0
O288 O 0.86015 0.79669 0.03154 0.0
O289 O 0.81744 0.61126 0.05951 0.0
O290 O 0.85001 0.69404 0.06599 0.0
C291 C 0.8325 0.77106 0.99055 0.0
C292 C 0.85126 0.64467 0.06863 0.0
O293 O 0.71668 0.6574 0.05878 0.0
Mg294 Mg 0.99693 0.57055 0.85586 0.0
O295 O 0.94873 0.47365 0.83208 0.0
O296 O 0.9225 0.5034 0.90566 0.0
Mg297 Mg 0.95751 0.59374 0.915 0.0
C298 C 0.92506 0.46159 0.86422 0.0
C299 C 0.06317 0.57801 0.75894 0.0
O300 O 0.08883 0.60627 0.80385 0.0
O301 O 0.94937 0.63587 0.83362 0.0
O302 O 0.90376 0.62173 0.88164 0.0
O303 O 1.04447 0.53187 0.89508 0.0
O304 O 1.01217 0.57538 0.95512 0.0
C305 C 0.91617 0.64645 0.84885 0.0
C306 C 1.04059 0.54929 0.94562 0.0
O307 O 1.02713 0.55834 0.76525 0.0
Mg308 Mg 0.77318 0.28684 0.49057 0.0
O309 O 0.76857 0.20093 0.42535 0.0
O310 O 0.8203 0.16451 0.41065 0.0
Mg311 Mg 0.84621 0.18546 0.49964 0.0
C312 C 0.80147 0.20332 0.40935 0.0
C313 C 0.74907 0.3844 0.57929 0.0
O314 O 0.71926 0.34149 0.57308 0.0
O315 O 0.76026 0.2423 0.55396 0.0
O316 O 0.7806 0.16875 0.50375 0.0
O317 O 0.82619 0.36359 0.54391 0.0
O318 O 0.83709 0.27964 0.52285 0.0
C319 C 0.77422 0.19733 0.54992 0.0
C320 C 0.85155 0.3332 0.54541 0.0
O321 O 0.77704 0.37527 0.55273 0.0
Mg322 Mg 0.72129 0.5246 0.37359 0.0
O323 O 0.76658 0.62211 0.37648 0.0
O324 O 0.81924 0.6138 0.42293 0.0
Mg325 Mg 0.76654 0.56165 0.44439 0.0
C326 C 0.80438 0.64032 0.39405 0.0
C327 C 0.65248 0.5174 0.25476 0.0
O328 O 0.62749 0.52159 0.28935 0.0
O329 O 0.7732 0.45952 0.35929 0.0
O330 O 0.8025 0.4897 0.44465 0.0
O331 O 0.66867 0.5525 0.42381 0.0
O332 O 0.70923 0.51995 0.46741 0.0
C333 C 0.79933 0.4541 0.39652 0.0
C334 C 0.67593 0.53621 0.4657 0.0
O335 O 0.68873 0.51661 0.27382 0.0
C336 C 0.2163 0.11601 0.18786 0.0
Eu337 Eu 0.14212 0.09386 0.15114 0.0
C338 C 0.23674 0.06669 0.17722 0.0
C339 C 0.23946 0.03785 0.21594 0.0
C340 C 0.23902 0.9785 0.19881 0.0
C341 C 0.23663 0.94735 0.14298 0.0
C342 C 0.24022 0.97777 0.10585 0.0
C343 C 0.24081 0.0371 0.1229 0.0
C344 C 0.07716 0.08108 0.20429 0.0
C345 C 0.11467 0.95372 0.13462 0.0
C346 C 1.00149 0.99394 0.02075 0.0
Eu347 Eu 0.075 1.01751 0.06116 0.0
C348 C 0.97799 0.03804 0.04202 0.0
C349 C 0.97832 0.08395 0.02101 0.0
C350 C 0.9712 0.13661 0.05297 0.0
C351 C 0.96512 0.14531 0.10713 0.0
C352 C 0.95923 0.09722 0.12508 0.0
C353 C 0.96497 0.04383 0.09241 0.0
C354 C 0.14064 0.02542 0.00705 0.0
C355 C 0.08948 0.15977 0.09347 0.0
O356 O 0.20285 0.12824 0.14471 0.0
O357 O 0.19016 0.11543 0.22032 0.0
O358 O 0.1116 0.11456 0.22826 0.0
O359 O 0.07923 0.06 0.1526 0.0
O360 O 0.14082 1.0033 0.15768 0.0
O361 O 0.08637 0.94675 0.09363 0.0
O362 O 1.01491 0.97015 0.05551 0.0
O363 O 1.02863 1.009 0.99385 0.0
O364 O 0.10584 0.99229 0.98558 0.0
O365 O 0.13956 0.04899 0.05901 0.0
O366 O 0.06945 0.10726 0.06566 0.0
O367 O 0.12116 0.16919 0.13096 0.0
H368 H 0.23654 0.0591 0.25807 0.0
H369 H 0.23546 0.95582 0.22809 0.0
H370 H 0.23794 0.95456 0.06247 0.0
H371 H 0.23927 0.05766 0.09179 0.0
H372 H 0.98692 0.08073 0.98152 0.0
H373 H 0.97136 0.17063 0.03558 0.0
H374 H 0.95157 0.10128 0.16521 0.0
H375 H 0.96237 1.0084 0.10858 0.0
C376 C 0.33843 0.88909 0.52641 0.0
Eu377 Eu 0.34737 0.8372 0.42662 0.0
C378 C 0.3714 0.91806 0.57177 0.0
C379 C 0.36544 0.94301 0.62552 0.0
C380 C 0.39661 0.95552 0.66899 0.0
C381 C 0.43195 0.93729 0.65813 0.0
C382 C 0.44049 0.92688 0.6051 0.0
C383 C 0.4097 0.91422 0.56171 0.0
C384 C 0.29624 0.84412 0.34185 0.0
C385 C 0.30706 0.69621 0.38054 0.0
C386 C 0.40425 0.74582 0.25917 0.0
Eu387 Eu 0.3688 0.77959 0.34287 0.0
C388 C 0.41043 0.76735 0.21391 0.0
C389 C 0.40767 0.72253 0.16486 0.0
C390 C 0.37275 0.70645 0.12753 0.0
C391 C 0.34348 0.73892 0.13843 0.0
C392 C 0.35317 0.79346 0.1797 0.0
C393 C 0.38994 0.81068 0.21285 0.0
C394 C 0.41658 0.77366 0.43119 0.0
C395 C 0.40436 0.91635 0.38118 0.0
O396 O 0.33644 0.91273 0.4883 0.0
O397 O 0.33486 0.83325 0.50592 0.0
O398 O 0.31471 0.88674 0.3843 0.0
O399 O 0.30712 0.79803 0.34238 0.0
O400 O 0.31567 0.74486 0.42336 0.0
O401 O 0.32244 0.69831 0.33675 0.0
O402 O 0.36742 0.72391 0.25955 0.0
O403 O 0.42234 0.78039 0.30712 0.0
O404 O 0.39432 0.72966 0.39304 0.0
O405 O 0.40792 0.81897 0.42512 0.0
O406 O 0.38638 0.87255 0.33707 0.0
O407 O 0.39902 0.90821 0.42762 0.0
H408 H 0.33637 0.94809 0.63403 0.0
H409 H 0.39011 0.96691 0.71037 0.0
H410 H 0.46773 0.91426 0.59566 0.0
H411 H 0.41508 0.89565 0.52052 0.0
H412 H 0.42682 0.69219 0.16174 0.0
H413 H 0.36715 0.66623 0.09346 0.0
H414 H 0.3327 0.82189 0.18694 0.0
H415 H 0.39719 0.85186 0.24534 0.0
C416 C 0.49569 0.09963 0.6518 0.0
Eu417 Eu 0.56054 0.06265 0.6336 0.0
C418 C 0.4584 0.10775 0.62396 0.0
C419 C 0.4221 0.07973 0.63129 0.0
C420 C 0.38638 0.08953 0.60986 0.0
C421 C 0.386 0.13007 0.58231 0.0
C422 C 0.42241 0.15897 0.57525 0.0
C423 C 0.45816 0.14759 0.59534 0.0
C424 C 0.62197 0.04998 0.70606 0.0
C425 C 0.62751 0.16522 0.62458 0.0
C426 C 0.70225 1.01639 0.55667 0.0
Eu427 Eu 0.63158 0.03152 0.57099 0.0
C428 C 0.73899 1.00153 0.57646 0.0
C429 C 0.77186 1.01448 0.55276 0.0
C430 C 0.80899 1.00989 0.57429 0.0
C431 C 0.81449 0.99164 0.62015 0.0
C432 C 0.78094 0.97501 0.64215 0.0
C433 C 0.74341 0.98028 0.62058 0.0
C434 C 0.5723 0.04176 0.49512 0.0
C435 C 0.5645 0.92951 0.57988 0.0
O436 O 0.52876 0.13232 0.65026 0.0
O437 O 0.49942 0.04714 0.64848 0.0
O438 O 0.58873 0.06163 0.71976 0.0
O439 O 0.61929 0.04647 0.65577 0.0
O440 O 0.59558 0.15006 0.64366 0.0
O441 O 0.64675 0.12853 0.59645 0.0
O442 O 0.69479 0.06516 0.58635 0.0
O443 O 0.67043 0.97552 0.5338 0.0
O444 O 0.60505 0.02637 0.48434 0.0
O445 O 0.57172 0.048 0.54616 0.0
O446 O 0.60144 0.94569 0.57447 0.0
O447 O 0.54094 0.96587 0.59415 0.0
H448 H 0.42163 0.05209 0.65591 0.0
H449 H 0.35913 0.06731 0.61725 0.0
H450 H 0.42329 0.19089 0.5547 0.0
H451 H 0.48556 0.17124 0.58977 0.0
H452 H 0.76898 0.02986 0.51807 0.0
H453 H 0.83364 0.02112 0.55485 0.0
H454 H 0.7838 0.9592 0.67651 0.0
H455 H 0.71815 0.96855 0.63861 0.0
C456 C 0.46043 0.22928 0.84382 0.0
Eu457 Eu 0.39342 0.25634 0.86922 0.0
C458 C 0.49658 0.25361 0.82509 0.0
C459 C 0.5334 0.24599 0.84569 0.0
C460 C 0.56831 0.26959 0.83073 0.0
C461 C 0.56744 0.30059 0.79378 0.0
C462 C 0.53054 0.30779 0.77246 0.0
C463 C 0.49555 0.28525 0.78849 0.0
C464 C 0.33162 0.17609 0.8867 0.0
C465 C 0.34372 0.25055 0.75828 0.0
C466 C 0.26415 0.33701 0.89568 0.0
Eu467 Eu 0.3294 0.30179 0.87588 0.0
C468 C 0.22283 0.31712 0.90015 0.0
C469 C 0.19474 0.34465 0.88302 0.0
C470 C 0.15494 0.32631 0.88426 0.0
C471 C 0.14227 0.28038 0.90341 0.0
C472 C 0.1706 0.25322 0.92162 0.0
C473 C 0.21065 0.27119 0.91959 0.0
C474 C 0.39086 0.38315 0.86138 0.0
C475 C 0.38435 0.30992 0.98902 0.0
O476 O 0.45557 0.25704 0.89322 0.0
O477 O 0.42701 0.21034 0.80962 0.0
O478 O 0.36888 0.18719 0.90594 0.0
O479 O 0.32778 0.206 0.85488 0.0
O480 O 0.37929 0.26459 0.78649 0.0
O481 O 0.31392 0.24996 0.7848 0.0
O482 O 0.27338 0.31918 0.84706 0.0
O483 O 0.29184 0.33793 0.93387 0.0
O484 O 0.35442 0.37017 0.83852 0.0
O485 O 0.39328 0.35267 0.89296 0.0
O486 O 0.34834 0.30769 0.96568 0.0
O487 O 0.41143 0.29988 0.95885 0.0
H488 H 0.53523 0.22173 0.87374 0.0
H489 H 0.59604 0.2624 0.84719 0.0
H490 H 0.52882 0.33145 0.74389 0.0
H491 H 0.46777 0.29248 0.77225 0.0
H492 H 0.2036 0.38042 0.86829 0.0
H493 H 0.13416 0.34897 0.87098 0.0
H494 H 0.16181 0.21803 0.9371 0.0
H495 H 0.23194 0.24929 0.93297 0.0
C496 C 0.11867 0.88678 0.51307 0.0
Eu497 Eu 0.10408 0.98671 0.56257 0.0
C498 C 0.09546 0.83604 0.51925 0.0
C499 C 0.1022 0.78034 0.49765 0.0
C500 C 0.07929 0.73491 0.50929 0.0
C501 C 0.04915 0.74591 0.5404 0.0
C502 C 1.04217 0.80128 0.5601 0.0
C503 C 0.06544 0.8459 0.55016 0.0
C504 C 0.15753 0.08045 0.55901 0.0
C505 C 0.13706 1.01394 0.69357 0.0
C506 C 0.0637 0.16604 0.67215 0.0
Eu507 Eu 0.08594 0.07063 0.62501 0.0
C508 C 0.07305 0.21988 0.66149 0.0
C509 C 0.07606 0.27209 0.70371 0.0
C510 C 0.10372 0.32048 0.70548 0.0
C511 C 0.12839 0.31491 0.66573 0.0
C512 C 0.12019 0.26548 0.61913 0.0
C513 C 0.09218 0.21855 0.61669 0.0
C514 C 1.03141 0.97872 0.62702 0.0
C515 C 0.05281 0.03708 0.49197 0.0
O516 O 0.09753 0.91255 0.48831 0.0
O517 O 0.14014 0.9226 0.5588 0.0
O518 O 0.13701 0.03881 0.51756 0.0
O519 O 0.14708 0.07464 0.60264 0.0
O520 O 0.12178 0.97182 0.64635 0.0
O521 O 0.13033 0.0649 0.69532 0.0
O522 O 0.09467 0.15181 0.6922 0.0
O523 O 1.04183 0.12345 0.63148 0.0
O524 O 0.05335 1.01741 0.66964 0.0
O525 O 1.04263 0.98554 0.58408 0.0
O526 O 0.06574 0.0801 0.53917 0.0
O527 O 0.05955 0.98693 0.49162 0.0
H528 H 0.12552 0.7726 0.47384 0.0
H529 H 0.08569 0.69217 0.49573 0.0
H530 H 1.02052 0.81097 0.58663 0.0
H531 H 0.06063 0.88885 0.56795 0.0
H532 H 0.06093 0.27358 0.73824 0.0
H533 H 0.1088 0.35958 0.7407 0.0
H534 H 0.13799 0.2605 0.58703 0.0
H535 H 0.0905 0.17906 0.58381 0.0
C536 C 0.23075 0.68218 0.78773 0.0
Eu537 Eu 0.29897 0.73721 0.83973 0.0
C538 C 0.19955 0.7142 0.78411 0.0
C539 C 0.16153 0.6939 0.79176 0.0
C540 C 0.13137 0.72206 0.78234 0.0
C541 C 0.13983 0.77182 0.76736 0.0
C542 C 0.1786 0.79484 0.76468 0.0
C543 C 0.20807 0.76614 0.77261 0.0
C544 C 0.29454 0.76433 0.94399 0.0
C545 C 0.30038 0.87699 0.88313 0.0
C546 C 0.43476 0.84976 0.95957 0.0
Eu547 Eu 0.3676 0.80309 0.90267 0.0
C548 C 0.46953 0.82396 0.95081 0.0
C549 C 0.48743 0.82197 0.90442 0.0
C550 C 0.52157 0.80038 0.89861 0.0
C551 C 0.53859 0.78167 0.93953 0.0
C552 C 0.519 0.77896 0.98315 0.0
C553 C 0.48434 0.79911 0.98828 0.0
C554 C 0.36638 0.79035 0.79856 0.0
C555 C 0.37468 0.67007 0.84783 0.0
O556 O 0.24232 0.68219 0.83703 0.0
O557 O 0.26013 0.69238 0.76207 0.0
O558 O 0.27145 0.77723 0.91023 0.0
O559 O 0.32243 0.74456 0.92391 0.0
O560 O 0.28568 0.82748 0.84221 0.0
O561 O 0.33132 0.87694 0.91853 0.0
O562 O 0.40727 0.82268 0.97895 0.0
O563 O 0.42103 0.87034 0.92235 0.0
O564 O 0.3924 0.77544 0.82678 0.0
O565 O 0.33919 0.80343 0.82283 0.0
O566 O 0.39149 0.72027 0.88498 0.0
O567 O 0.33801 0.66521 0.82262 0.0
H568 H 0.15532 0.6553 0.80288 0.0
H569 H 0.10163 0.70523 0.78641 0.0
H570 H 0.18583 0.83331 0.75331 0.0
H571 H 0.23665 0.78186 0.76421 0.0
H572 H 0.47619 0.83935 0.8739 0.0
H573 H 0.53701 0.80444 0.86548 0.0
H574 H 0.53235 0.76613 0.01585 0.0
H575 H 0.47031 0.79804 0.02321 0.0
C576 C 0.71288 0.16553 0.16333 0.0
Eu577 Eu 0.65203 0.0895 0.13058 0.0
C578 C 0.748 0.16669 0.13752 0.0
C579 C 0.77185 0.12671 0.13797 0.0
C580 C 0.80825 0.13391 0.1212 0.0
C581 C 0.82092 0.18104 0.10411 0.0
C582 C 0.79571 0.21779 0.09892 0.0
C583 C 0.75923 0.21051 0.11541 0.0
C584 C 0.65852 0.98317 0.07713 0.0
C585 C 0.64356 0.04455 0.99497 0.0
C586 C 0.50811 0.9484 0.03425 0.0
Eu587 Eu 0.57516 0.02103 0.06855 0.0
C588 C 0.47208 0.94469 0.05884 0.0
C589 C 0.44027 0.96711 0.04246 0.0
C590 C 0.40273 0.94892 0.05359 0.0
C591 C 0.39705 0.90839 0.0811 0.0
C592 C 0.4297 0.89131 0.10235 0.0
C593 C 0.46689 0.90979 0.09193 0.0
C594 C 0.5657 0.0832 0.08545 0.0
C595 C 0.58498 0.05841 0.20699 0.0
O596 O 0.68187 0.17542 0.13724 0.0
O597 O 0.70565 0.12712 0.18878 0.0
O598 O 0.6884 0.02572 0.09475 0.0
O599 O 0.62903 0.99675 0.09787 0.0
O600 O 0.65895 0.08781 0.04151 0.0
O601 O 0.61089 1.00761 0.99523 0.0
O602 O 0.53872 0.93856 0.06009 0.0
O603 O 0.51693 0.98968 0.01385 0.0
O604 O 0.56455 0.09401 0.03865 0.0
O605 O 0.59551 0.11178 0.12202 0.0
O606 O 0.56308 0.02503 0.15864 0.0
O607 O 0.62147 0.08674 0.2068 0.0
H608 H 0.76373 0.09231 0.15468 0.0
H609 H 0.82809 0.10651 0.12718 0.0
H610 H 0.80579 0.25534 0.08718 0.0
H611 H 0.74112 0.24156 0.11461 0.0
H612 H 0.44356 0.99436 0.01706 0.0
H613 H 0.37794 0.96313 0.03741 0.0
H614 H 0.4262 0.86128 0.12501 0.0
H615 H 0.49085 0.8926 0.10604 0.0
C616 C 0.46195 0.398 0.41277 0.0
Eu617 Eu 0.39011 0.34785 0.39604 0.0
C618 C 0.48739 0.36607 0.3791 0.0
C619 C 0.50541 0.3275 0.39765 0.0
C620 C 0.51422 0.27949 0.36011 0.0
C621 C 0.50573 0.26977 0.3035 0.0
C622 C 0.49078 0.31092 0.28542 0.0
C623 C 0.4824 0.359 0.3228 0.0
C624 C 0.346 0.30655 0.46247 0.0
C625 C 0.39938 0.20628 0.35099 0.0
C626 C 0.24939 0.20957 0.33469 0.0
Eu627 Eu 0.31992 0.2584 0.33306 0.0
C628 C 0.22416 0.24529 0.36621 0.0
C629 C 0.20398 0.27749 0.34138 0.0
C630 C 0.19436 0.32797 0.37338 0.0
C631 C 0.20395 0.34692 0.43092 0.0
C632 C 0.21953 0.31126 0.45618 0.0
C633 C 0.22945 0.26066 0.42405 0.0
C634 C 0.3551 0.29678 0.25742 0.0
C635 C 0.31278 0.40129 0.37839 0.0
O636 O 0.43503 0.41469 0.38593 0.0
O637 O 0.44793 0.37495 0.44785 0.0
O638 O 0.36209 0.3609 0.47244 0.0
O639 O 0.35379 0.27843 0.41662 0.0
O640 O 0.416 0.26269 0.37586 0.0
O641 O 0.36072 0.19208 0.33016 0.0
O642 O 0.27983 0.20324 0.36435 0.0
O643 O 0.25896 0.22152 0.29134 0.0
O644 O 0.32634 0.2512 0.24381 0.0
O645 O 0.36603 0.31333 0.30886 0.0
O646 O 0.29513 0.34508 0.35604 0.0
O647 O 0.35133 0.41445 0.39685 0.0
H648 H 0.50963 0.3317 0.44075 0.0
H649 H 0.52696 0.24946 0.37537 0.0
H650 H 0.48525 0.30604 0.2422 0.0
H651 H 0.46891 0.38798 0.30684 0.0
H652 H 0.19923 0.26714 0.29721 0.0
H653 H 0.18186 0.35442 0.35285 0.0
H654 H 0.22724 0.32483 0.50044 0.0
H655 H 0.24476 0.23684 0.44479 0.0
C656 C 0.62146 0.39146 0.01609 0.0
Eu657 Eu 0.60543 0.49054 0.06365 0.0
C658 C 0.60463 0.34395 0.0326 0.0
C659 C 0.61007 0.28763 0.01028 0.0
C660 C 0.59085 0.2446 0.02851 0.0
C661 C 0.56544 0.25872 0.06665 0.0
C662 C 0.56042 0.31492 0.08833 0.0
C663 C 0.58015 0.35717 0.0718 0.0
C664 C 0.65813 0.58774 0.06277 0.0
C665 C 0.63745 0.52453 0.19874 0.0
C666 C 0.56832 0.67434 0.16145 0.0
Eu667 Eu 0.58293 0.57279 0.1239 0.0
C668 C 0.58294 0.71475 0.13484 0.0
C669 C 0.58649 0.77403 0.15835 0.0
C670 C 0.61111 0.81101 0.13906 0.0
C671 C 0.63175 0.78822 0.09613 0.0
C672 C 0.62549 0.72889 0.07064 0.0
C673 C 0.60191 0.6929 0.09052 0.0
C674 C 0.53054 0.48062 0.12945 0.0
C675 C 0.55008 0.53401 0.98836 0.0
O676 O 0.59433 0.411 0.99372 0.0
O677 O 0.64627 0.43243 0.0553 0.0
O678 O 0.63879 0.54575 0.02032 0.0
O679 O 0.64514 0.57871 0.10399 0.0
O680 O 0.63213 0.48366 0.1496 0.0
O681 O 0.62041 0.56801 0.19997 0.0
O682 O 0.59679 0.65871 0.18573 0.0
O683 O 0.54156 0.63013 0.12961 0.0
O684 O 0.54941 0.52426 0.17103 0.0
O685 O 0.54297 0.48449 0.08578 0.0
O686 O 0.55133 0.57078 0.03805 0.0
O687 O 0.56901 0.4926 0.98573 0.0
H688 H 0.62902 0.27742 0.97989 0.0
H689 H 0.59581 0.20112 0.01346 0.0
H690 H 0.54241 0.32674 0.11985 0.0
H691 H 0.57597 0.40057 0.0895 0.0
H692 H 0.57258 0.79148 0.19329 0.0
H693 H 0.61505 0.8572 0.15904 0.0
H694 H 0.64062 0.70992 0.03755 0.0
H695 H 0.60231 0.64811 0.07473 0.0
C696 C 0.76966 0.22945 0.25933 0.0
Eu697 Eu 0.83407 0.27581 0.32325 0.0
C698 C 0.73521 0.25667 0.26329 0.0
C699 C 0.70238 0.23291 0.28242 0.0
C700 C 0.66819 0.25451 0.28107 0.0
C701 C 0.66701 0.3017 0.26287 0.0
C702 C 0.70023 0.32709 0.246 0.0
C703 C 0.73392 0.30428 0.24546 0.0
C704 C 0.82404 0.26022 0.41527 0.0
C705 C 0.82402 0.40536 0.38484 0.0
C706 C 0.96984 0.37472 0.44277 0.0
Eu707 Eu 0.89781 0.33467 0.39358 0.0
C708 C 1.00444 0.34699 0.44643 0.0
C709 C 1.0403 0.37217 0.43497 0.0
C710 C 0.07602 0.36351 0.45755 0.0
C711 C 0.07672 0.33164 0.49365 0.0
C712 C 1.04093 0.29923 0.49824 0.0
C713 C 1.00492 0.30512 0.4727 0.0
C714 C 0.90328 0.34289 0.29645 0.0
C715 C 0.90002 0.19978 0.33975 0.0
O716 O 0.79994 0.25336 0.242 0.0
O717 O 0.77929 0.2107 0.29933 0.0
O718 O 0.80451 0.29162 0.39668 0.0
O719 O 0.85619 0.26027 0.39847 0.0
O720 O 0.8119 0.36035 0.33978 0.0
O721 O 0.85633 0.40415 0.4183 0.0
O722 O 0.95811 0.38 0.39592 0.0
O723 O 0.94052 0.3631 0.46789 0.0
O724 O 0.92251 0.31188 0.31587 0.0
O725 O 0.87468 0.35142 0.31976 0.0
O726 O 0.90913 0.24422 0.38581 0.0
O727 O 0.87239 0.20358 0.30181 0.0
H728 H 0.70273 0.19637 0.29665 0.0
H729 H 0.64299 0.2351 0.29516 0.0
H730 H 0.69986 0.36398 0.23228 0.0
H731 H 0.75872 0.32359 0.23062 0.0
H732 H 1.04105 0.40283 0.41298 0.0
H733 H 0.1034 0.38545 0.45031 0.0
H734 H 1.04063 0.27258 0.52427 0.0
H735 H 0.9776 0.28212 0.47903 0.0
C736 C 0.19841 0.69071 0.65985 0.0
Eu737 Eu 0.14101 0.60086 0.61884 0.0
C738 C 0.23782 0.70754 0.64583 0.0
C739 C 0.2661 0.6733 0.64565 0.0
C740 C 0.30159 0.68626 0.62735 0.0
C741 C 0.3091 0.73273 0.60762 0.0
C742 C 0.28215 0.76903 0.61078 0.0
C743 C 0.24704 0.75702 0.63057 0.0
C744 C 0.16538 0.50337 0.61341 0.0
C745 C 0.13851 0.53483 0.4901 0.0
C746 C 1.01511 0.4222 0.55899 0.0
Eu747 Eu 0.07775 0.50253 0.57265 0.0
C748 C 0.97667 0.40769 0.57779 0.0
C749 C 0.94875 0.44251 0.57906 0.0
C750 C 0.90835 0.41907 0.57323 0.0
C751 C 0.89455 0.3599 0.56503 0.0
C752 C 0.92262 0.32679 0.57014 0.0
C753 C 0.96327 0.35101 0.578 0.0
C754 C 0.05079 0.58629 0.56712 0.0
C755 C 0.07828 0.56985 0.7029 0.0
O756 O 0.1671 0.69101 0.62727 0.0
O757 O 0.19333 0.64635 0.67711 0.0
O758 O 0.18134 0.53987 0.592 0.0
O759 O 0.13363 0.51484 0.62684 0.0
O760 O 0.14433 0.58662 0.52777 0.0
O761 O 0.11615 0.49057 0.50051 0.0
O762 O 1.01828 0.45844 0.53179 0.0
O763 O 0.04867 0.42389 0.5872 0.0
O764 O 0.05491 0.55018 0.52123 0.0
O765 O 0.07724 0.59358 0.60703 0.0
O766 O 0.05909 0.52797 0.65824 0.0
O767 O 0.11143 0.60379 0.69821 0.0
H768 H 0.26025 0.63493 0.6574 0.0
H769 H 0.32181 0.65743 0.62477 0.0
H770 H 0.28732 0.80491 0.59526 0.0
H771 H 0.22617 0.78462 0.6312 0.0
H772 H 0.95738 0.48615 0.5789 0.0
H773 H 0.88773 0.44631 0.57032 0.0
H774 H 0.91318 0.2814 0.56507 0.0
H775 H 0.98394 0.32334 0.57838 0.0
C776 C 0.95865 0.77332 0.33526 0.0
Eu777 Eu 0.89052 0.77421 0.36656 0.0
C778 C 0.99662 0.77567 0.31431 0.0
C779 C 1.02977 0.76633 0.34321 0.0
C780 C 0.06757 0.78174 0.33111 0.0
C781 C 0.07275 0.80549 0.28909 0.0
C782 C 1.03937 0.81225 0.25853 0.0
C783 C 1.00184 0.79809 0.27132 0.0
C784 C 0.83239 0.69197 0.38545 0.0
C785 C 0.83231 0.74555 0.25525 0.0
C786 C 0.76093 0.85186 0.399 0.0
Eu787 Eu 0.82691 0.81924 0.37772 0.0
C788 C 0.71994 0.83136 0.40505 0.0
C789 C 0.69126 0.85871 0.38915 0.0
C790 C 0.65153 0.83899 0.38999 0.0
C791 C 0.63927 0.79156 0.40738 0.0
C792 C 0.66822 0.76447 0.42435 0.0
C793 C 0.70828 0.78398 0.42279 0.0
C794 C 0.88836 0.90253 0.36555 0.0
C795 C 0.88396 0.81873 0.48704 0.0
O796 O 0.93437 0.80383 0.32336 0.0
O797 O 0.94501 0.73908 0.36195 0.0
O798 O 0.87042 0.70244 0.40154 0.0
O799 O 0.82575 0.7234 0.35555 0.0
O800 O 0.86442 0.73653 0.27815 0.0
O801 O 0.81045 0.77552 0.28535 0.0
O802 O 0.76927 0.83235 0.35009 0.0
O803 O 0.78985 0.85578 0.43691 0.0
O804 O 0.85211 0.88964 0.34187 0.0
O805 O 0.88993 0.87064 0.39589 0.0
O806 O 0.84843 0.82189 0.46613 0.0
O807 O 0.91005 0.80701 0.45564 0.0
H808 H 1.02679 0.75001 0.37705 0.0
H809 H 0.09278 0.77529 0.35472 0.0
H810 H 1.04245 0.83058 0.226 0.0
H811 H 0.97704 0.80658 0.24864 0.0
H812 H 0.69958 0.89529 0.37531 0.0
H813 H 0.63042 0.86162 0.37748 0.0
H814 H 0.65992 0.72816 0.43851 0.0
H815 H 0.72995 0.76195 0.43495 0.0
C816 C 0.83005 0.38222 0.98994 0.0
Eu817 Eu 0.84195 0.31386 0.89877 0.0
C818 C 0.86069 0.39487 0.03629 0.0
C819 C 0.86444 0.43936 0.0858 0.0
C820 C 0.89721 0.44936 0.12609 0.0
C821 C 0.92748 0.41869 0.11459 0.0
C822 C 0.92486 0.37888 0.06269 0.0
C823 C 0.89044 0.36413 0.02608 0.0
C824 C 0.78548 0.30079 0.81053 0.0
C825 C 0.81121 0.18266 0.87128 0.0
C826 C 0.8801 0.20119 0.72957 0.0
Eu827 Eu 0.86838 0.26656 0.82215 0.0
C828 C 0.86071 0.20441 0.67956 0.0
C829 C 0.85207 0.1566 0.63207 0.0
C830 C 0.82329 0.15424 0.58996 0.0
C831 C 0.80267 0.19918 0.59581 0.0
C832 C 0.81301 0.24822 0.64272 0.0
C833 C 0.84221 0.25101 0.68405 0.0
C834 C 0.92799 0.28284 0.90673 0.0
C835 C 0.9021 0.40068 0.85883 0.0
O836 O 0.84315 0.4011 0.95234 0.0
O837 O 0.81195 0.32796 0.96998 0.0
O838 O 0.77877 0.28514 0.85201 0.0
O839 O 0.82229 0.31722 0.81382 0.0
O840 O 0.82465 0.22866 0.91466 0.0
O841 O 0.81963 0.189 0.82473 0.0
O842 O 0.85519 0.18289 0.75742 0.0
O843 O 0.90534 0.24816 0.75924 0.0
O844 O 0.93165 0.29654 0.86366 0.0
O845 O 0.8914 0.26493 0.90647 0.0
O846 O 0.88992 0.35658 0.81285 0.0
O847 O 0.89199 0.39028 0.90292 0.0
H848 H 0.84146 0.46335 0.09423 0.0
H849 H 0.89678 0.47573 0.16772 0.0
H850 H 0.94591 0.35136 0.05391 0.0
H851 H 0.88672 0.32791 0.98958 0.0
H852 H 0.86628 0.1206 0.62862 0.0
H853 H 0.81735 0.11753 0.55259 0.0
H854 H 0.7987 0.28434 0.64764 0.0
H855 H 0.8486 0.28823 0.72101 0.0
C856 C 0.95506 0.88378 0.89583 0.0
Eu857 Eu 0.88321 0.83067 0.87786 0.0
C858 C 0.97998 0.85275 0.8598 0.0
C859 C 0.99654 0.81073 0.87436 0.0
C860 C 1.00146 0.76169 0.83379 0.0
C861 C 0.99066 0.75433 0.77796 0.0
C862 C 0.97885 0.79966 0.76366 0.0
C863 C 0.9743 0.84879 0.80411 0.0
C864 C 0.8367 0.79181 0.94334 0.0
C865 C 0.89424 0.69256 0.83723 0.0
C866 C 0.74707 0.6933 0.78344 0.0
Eu867 Eu 0.81874 0.74847 0.81528 0.0
C868 C 0.71468 0.72194 0.79825 0.0
C869 C 0.68807 0.72842 0.75727 0.0
C870 C 0.66476 0.76909 0.77087 0.0
C871 C 0.66906 0.80551 0.82529 0.0
C872 C 0.69622 0.79969 0.86583 0.0
C873 C 0.71731 0.75657 0.85306 0.0
C874 C 0.86385 0.78662 0.74984 0.0
C875 C 0.80829 0.88848 0.86892 0.0
O876 O 0.92739 0.90024 0.87033 0.0
O877 O 0.94146 0.85893 0.9299 0.0
O878 O 0.85425 0.84548 0.95315 0.0
O879 O 0.84585 0.76119 0.89983 0.0
O880 O 0.91171 0.7485 0.85542 0.0
O881 O 0.85539 0.67994 0.82119 0.0
O882 O 0.76939 0.68707 0.82388 0.0
O883 O 0.76733 0.71214 0.75068 0.0
O884 O 0.84983 0.73212 0.74104 0.0
O885 O 0.85477 0.81755 0.79329 0.0
O886 O 0.79098 0.83265 0.84251 0.0
O887 O 0.84657 0.90036 0.88789 0.0
H888 H 1.0017 0.81258 0.91679 0.0
H889 H 1.01253 0.72876 0.84627 0.0
H890 H 0.97242 0.79692 0.72112 0.0
H891 H 0.96253 0.88093 0.79113 0.0
H892 H 0.68698 0.70509 0.71446 0.0
H893 H 0.64468 0.77369 0.73852 0.0
H894 H 0.70372 0.83106 0.90658 0.0
H895 H 0.73885 0.75498 0.88552 0.0
C896 C 0.71187 0.60118 0.68025 0.0
Eu897 Eu 0.63835 0.58415 0.64466 0.0
C898 C 0.73288 0.55322 0.66451 0.0
C899 C 0.72656 0.50897 0.68787 0.0
C900 C 0.73314 0.45437 0.661 0.0
C901 C 0.74778 0.4437 0.61162 0.0
C902 C 0.75816 0.48926 0.59112 0.0
C903 C 0.75055 0.54358 0.61719 0.0
C904 C 0.57204 0.56915 0.69565 0.0
C905 C 0.61366 0.44353 0.62148 0.0
C906 C 0.50277 0.48638 0.51552 0.0
Eu907 Eu 0.57635 0.51211 0.55322 0.0
C908 C 0.47816 0.52853 0.53602 0.0
C909 C 0.48311 0.5792 0.52201 0.0
C910 C 0.47142 0.62757 0.55346 0.0
C911 C 0.45448 0.62684 0.59943 0.0
C912 C 0.44558 0.57468 0.61063 0.0
C913 C 0.45734 0.52567 0.57894 0.0
C914 C 0.64253 0.52388 0.50069 0.0
C915 C 0.59096 0.65432 0.58789 0.0
O916 O 0.6994 0.61966 0.64079 0.0
O917 O 0.68545 0.59607 0.71161 0.0
O918 O 0.60613 0.60341 0.72082 0.0
O919 O 0.57512 0.54954 0.64406 0.0
O920 O 0.6367 0.49406 0.65004 0.0
O921 O 0.5883 0.4371 0.57771 0.0
O922 O 0.51714 0.46424 0.55092 0.0
O923 O 0.52885 0.50083 0.48679 0.0
O924 O 0.60776 0.49098 0.47781 0.0
O925 O 0.64096 0.54567 0.55283 0.0
O926 O 0.57239 0.60216 0.55637 0.0
O927 O 0.61963 0.66233 0.629 0.0
H928 H 0.71324 0.51477 0.72443 0.0
H929 H 0.72546 0.41989 0.67777 0.0
H930 H 0.76947 0.48178 0.55286 0.0
H931 H 0.75566 0.5765 0.59794 0.0
H932 H 0.49824 0.58299 0.48863 0.0
H933 H 0.4755 0.66554 0.54151 0.0
H934 H 0.43093 0.57233 0.64485 0.0
H935 H 0.45242 0.48686 0.59013 0.0
C936 C 0.99701 0.59685 0.15529 0.0
Eu937 Eu 0.0627 0.5668 0.13045 0.0
C938 C 0.96038 0.60915 0.13113 0.0
C939 C 0.92456 0.58797 0.14504 0.0
C940 C 0.88892 0.59675 0.12244 0.0
C941 C 0.88859 0.63035 0.08789 0.0
C942 C 0.92473 0.65404 0.07572 0.0
C943 C 0.96027 0.64272 0.09634 0.0
C944 C 0.12431 0.55435 0.20307 0.0
C945 C 0.1308 0.66873 0.12335 0.0
C946 C 0.19974 0.51198 0.04522 0.0
Eu947 Eu 0.1319 0.53549 0.06675 0.0
C948 C 0.23832 0.50682 0.07104 0.0
C949 C 0.27245 0.53056 0.055 0.0
C950 C 0.30963 0.52664 0.07733 0.0
C951 C 0.314 0.49837 0.11628 0.0
C952 C 0.27963 0.47431 0.13251 0.0
C953 C 0.24211 0.47861 0.11015 0.0
C954 C 0.07108 0.54373 0.99056 0.0
C955 C 0.06557 0.43267 0.07541 0.0
O956 O 1.03023 0.6339 0.1624 0.0
O957 O 1.00098 0.54312 0.13889 0.0
O958 O 0.09162 0.56761 0.21677 0.0
O959 O 0.1217 0.55009 0.15261 0.0
O960 O 0.09328 0.65231 0.12562 0.0
O961 O 0.15372 0.63166 0.11008 0.0
O962 O 0.19262 0.56397 0.0575 0.0
O963 O 0.16841 0.4723 0.0406 0.0
O964 O 0.10437 0.5304 0.98035 0.0
O965 O 0.07118 0.55111 0.04187 0.0
O966 O 0.10218 0.44897 0.06913 0.0
O967 O 1.04261 0.46951 0.09165 0.0
H968 H 0.92447 0.56579 0.17476 0.0
H969 H 0.86182 0.57948 0.13404 0.0
H970 H 0.92545 0.68105 0.05 0.0
H971 H 0.98756 0.66081 0.08574 0.0
H972 H 0.27037 0.55209 0.02466 0.0
H973 H 0.33505 0.54515 0.0631 0.0
H974 H 0.28169 0.45189 0.16207 0.0
H975 H 0.21619 0.45963 0.1231 0.0
loop_
_geom_bond_atom_site_label_1
_geom_bond_atom_site_label_2
_geom_bond_distance
_geom_bond_site_symmetry_2
_ccdc_geom_bond_type
Mg0 O1 2.028 . S
Mg0 O7 1.986 . S
Mg0 O9 2.114 . S
Mg0 O10 2.251 . S
Mg0 O13 2.010 . S
O1 Mg0 2.028 . S
O1 C4 1.250 . S
O2 Mg3 2.028 . S
O2 C4 1.248 . S
Mg3 O2 2.028 . S
Mg3 O8 2.032 . S
Mg3 O10 2.079 . S
C4 O1 1.250 . S
C4 O2 1.248 . S
C5 O6 1.264 . S
C5 O13 1.249 . S
O6 C5 1.264 . S
O7 Mg0 1.986 . S
O7 C11 1.246 . S
O8 Mg3 2.032 . S
O8 C11 1.259 . S
O9 Mg0 2.114 . S
O9 C12 1.252 . S
O10 Mg0 2.251 . S
O10 Mg3 2.079 . S
O10 C12 1.273 . S
C11 O7 1.246 . S
C11 O8 1.259 . S
C12 O9 1.252 . S
C12 O10 1.273 . S
O13 Mg0 2.010 . S
O13 C5 1.249 . S
Mg14 O15 2.028 . S
Mg14 O21 1.986 . S
Mg14 O23 2.114 1_455 S
Mg14 O24 2.251 1_455 S
Mg14 O27 2.010 . S
O15 Mg14 2.028 . S
O15 C18 1.250 1_455 S
O16 Mg17 2.028 . S
O16 C18 1.248 . S
Mg17 O16 2.028 . S
Mg17 O22 2.032 . S
Mg17 O24 2.079 . S
C18 O15 1.250 1_655 S
C18 O16 1.248 . S
C19 O20 1.264 . S
C19 O27 1.249 . S
O20 C19 1.264 . S
O21 Mg14 1.986 . S
O21 C25 1.246 1_455 S
O22 Mg17 2.032 . S
O22 C25 1.259 . S
O23 Mg14 2.114 1_655 S
O23 C26 1.252 . S
O24 Mg14 2.251 1_655 S
O24 Mg17 2.079 . S
O24 C26 1.273 . S
C25 O21 1.246 1_655 S
C25 O22 1.259 . S
C26 O23 1.252 . S
C26 O24 1.273 . S
O27 Mg14 2.010 . S
O27 C19 1.249 . S
Mg28 O29 2.028 1_556 S
Mg28 O35 1.986 1_556 S
Mg28 O37 2.114 . S
Mg28 O38 2.251 . S
Mg28 O41 2.010 . S
O29 Mg28 2.028 1_554 S
O29 C32 1.250 1_565 S
O30 Mg31 2.028 1_545 S
O30 C32 1.248 . S
Mg31 O30 2.028 1_565 S
Mg31 O36 2.032 . S
Mg31 O38 2.079 1_554 S
C32 O29 1.250 1_545 S
C32 O30 1.248 . S
C33 O34 1.264 . S
C33 O41 1.249 . S
O34 C33 1.264 . S
O35 Mg28 1.986 1_554 S
O35 C39 1.246 . S
O36 Mg31 2.032 . S
O36 C39 1.259 . S
O37 Mg28 2.114 . S
O37 C40 1.252 . S
O38 Mg28 2.251 . S
O38 Mg31 2.079 1_556 S
O38 C40 1.273 . S
C39 O35 1.246 . S
C39 O36 1.259 . S
C40 O37 1.252 . S
C40 O38 1.273 . S
O41 Mg28 2.010 . S
O41 C33 1.249 . S
Mg42 O43 2.028 . S
Mg42 O49 1.986 . S
Mg42 O51 2.114 . S
Mg42 O52 2.251 . S
Mg42 O55 2.010 . S
O43 Mg42 2.028 . S
O43 C46 1.250 . S
O44 Mg45 2.028 . S
O44 C46 1.248 . S
Mg45 O44 2.028 . S
Mg45 O50 2.032 . S
Mg45 O52 2.079 . S
C46 O43 1.250 . S
C46 O44 1.248 . S
C47 O48 1.264 . S
C47 O55 1.249 . S
O48 C47 1.264 . S
O49 Mg42 1.986 . S
O49 C53 1.246 . S
O50 Mg45 2.032 . S
O50 C53 1.259 . S
O51 Mg42 2.114 . S
O51 C54 1.252 . S
O52 Mg42 2.251 . S
O52 Mg45 2.079 . S
O52 C54 1.273 . S
C53 O49 1.246 . S
C53 O50 1.259 . S
C54 O51 1.252 . S
C54 O52 1.273 . S
O55 Mg42 2.010 . S
O55 C47 1.249 . S
Mg56 O57 2.028 . S
Mg56 O63 1.986 . S
Mg56 O65 2.114 . S
Mg56 O66 2.251 . S
Mg56 O69 2.010 . S
O57 Mg56 2.028 . S
O57 C60 1.250 . S
O58 Mg59 2.028 . S
O58 C60 1.248 . S
Mg59 O58 2.028 . S
Mg59 O64 2.032 . S
Mg59 O66 2.079 . S
C60 O57 1.250 . S
C60 O58 1.248 . S
C61 O62 1.264 . S
C61 O69 1.249 . S
O62 C61 1.264 . S
O63 Mg56 1.986 . S
O63 C67 1.246 . S
O64 Mg59 2.032 . S
O64 C67 1.259 . S
O65 Mg56 2.114 . S
O65 C68 1.252 . S
O66 Mg56 2.251 . S
O66 Mg59 2.079 . S
O66 C68 1.273 . S
C67 O63 1.246 . S
C67 O64 1.259 . S
C68 O65 1.252 . S
C68 O66 1.273 . S
O69 Mg56 2.010 . S
O69 C61 1.249 . S
Mg70 O71 2.028 . S
Mg70 O77 1.986 . S
Mg70 O79 2.114 . S
Mg70 O80 2.251 . S
Mg70 O83 2.010 . S
O71 Mg70 2.028 . S
O71 C74 1.250 . S
O72 Mg73 2.028 . S
O72 C74 1.248 . S
Mg73 O72 2.028 . S
Mg73 O78 2.032 . S
Mg73 O80 2.079 . S
C74 O71 1.250 . S
C74 O72 1.248 . S
C75 O76 1.264 . S
C75 O83 1.249 . S
O76 C75 1.264 . S
O77 Mg70 1.986 . S
O77 C81 1.246 . S
O78 Mg73 2.032 . S
O78 C81 1.259 . S
O79 Mg70 2.114 . S
O79 C82 1.252 . S
O80 Mg70 2.251 . S
O80 Mg73 2.079 . S
O80 C82 1.273 . S
C81 O77 1.246 . S
C81 O78 1.259 . S
C82 O79 1.252 . S
C82 O80 1.273 . S
O83 Mg70 2.010 . S
O83 C75 1.249 . S
Mg84 O85 2.028 . S
Mg84 O91 1.986 . S
Mg84 O93 2.114 . S
Mg84 O94 2.251 . S
Mg84 O97 2.010 . S
O85 Mg84 2.028 . S
O85 C88 1.250 . S
O86 Mg87 2.028 . S
O86 C88 1.248 . S
Mg87 O86 2.028 . S
Mg87 O92 2.032 . S
Mg87 O94 2.079 . S
C88 O85 1.250 . S
C88 O86 1.248 . S
C89 O90 1.264 . S
C89 O97 1.249 . S
O90 C89 1.264 . S
O91 Mg84 1.986 . S
O91 C95 1.246 . S
O92 Mg87 2.032 . S
O92 C95 1.259 . S
O93 Mg84 2.114 . S
O93 C96 1.252 . S
O94 Mg84 2.251 . S
O94 Mg87 2.079 . S
O94 C96 1.273 . S
C95 O91 1.246 . S
C95 O92 1.259 . S
C96 O93 1.252 . S
C96 O94 1.273 . S
O97 Mg84 2.010 . S
O97 C89 1.249 . S
Mg98 O99 2.030 1_556 S
Mg98 O105 1.993 1_556 S
Mg98 O107 2.095 1_455 S
Mg98 O108 2.218 1_455 S
Mg98 O111 2.041 . S
O99 Mg98 2.030 1_554 S
O99 C102 1.250 . S
O100 Mg101 2.028 . S
O100 C102 1.248 1_655 S
Mg101 O100 2.028 . S
Mg101 O106 2.032 . S
Mg101 O108 2.079 1_554 S
C102 O99 1.250 . S
C102 O100 1.248 1_455 S
C103 O104 1.264 . S
C103 O111 1.249 . S
O104 C103 1.264 . S
O105 Mg98 1.993 1_554 S
O105 C109 1.246 1_455 S
O106 Mg101 2.032 . S
O106 C109 1.259 . S
O107 Mg98 2.095 1_655 S
O107 C110 1.252 . S
O108 Mg98 2.218 1_655 S
O108 Mg101 2.079 1_556 S
O108 C110 1.273 . S
C109 O105 1.246 1_655 S
C109 O106 1.259 . S
C110 O107 1.252 . S
C110 O108 1.273 . S
O111 Mg98 2.041 . S
O111 C103 1.249 . S
Mg112 O113 2.028 1_545 S
Mg112 O119 1.986 . S
Mg112 O121 2.114 . S
Mg112 O122 2.251 . S
Mg112 O125 2.010 . S
O113 Mg112 2.028 1_565 S
O113 C116 1.250 . S
O114 Mg115 2.028 1_565 S
O114 C116 1.248 . S
Mg115 O114 2.028 1_545 S
Mg115 O120 2.032 . S
Mg115 O122 2.079 . S
C116 O113 1.250 . S
C116 O114 1.248 . S
C117 O118 1.264 . S
C117 O125 1.249 . S
O118 C117 1.264 . S
O119 Mg112 1.986 . S
O119 C123 1.246 . S
O120 Mg115 2.032 . S
O120 C123 1.259 . S
O121 Mg112 2.114 . S
O121 C124 1.252 . S
O122 Mg112 2.251 . S
O122 Mg115 2.079 . S
O122 C124 1.273 . S
C123 O119 1.246 . S
C123 O120 1.259 . S
C124 O121 1.252 . S
C124 O122 1.273 . S
O125 Mg112 2.010 . S
O125 C117 1.249 . S
Mg126 O127 2.028 . S
Mg126 O133 1.986 . S
Mg126 O135 2.114 . S
Mg126 O136 2.251 . S
Mg126 O139 2.010 . S
O127 Mg126 2.028 . S
O127 C130 1.250 . S
O128 Mg129 2.028 . S
O128 C130 1.248 . S
Mg129 O128 2.028 . S
Mg129 O134 2.032 . S
Mg129 O136 2.079 . S
C130 O127 1.250 . S
C130 O128 1.248 . S
C131 O132 1.264 . S
C131 O139 1.249 . S
O132 C131 1.264 . S
O133 Mg126 1.986 . S
O133 C137 1.246 . S
O134 Mg129 2.032 . S
O134 C137 1.259 . S
O135 Mg126 2.114 . S
O135 C138 1.252 . S
O136 Mg126 2.251 . S
O136 Mg129 2.079 . S
O136 C138 1.273 . S
C137 O133 1.246 . S
C137 O134 1.259 . S
C138 O135 1.252 . S
C138 O136 1.273 . S
O139 Mg126 2.010 . S
O139 C131 1.249 . S
Mg140 O141 2.028 1_565 S
Mg140 O147 1.986 . S
Mg140 O149 2.114 1_565 S
Mg140 O150 2.251 1_565 S
Mg140 O153 2.010 . S
O141 Mg140 2.028 1_545 S
O141 C144 1.250 . S
O142 Mg143 2.028 . S
O142 C144 1.248 . S
Mg143 O142 2.028 . S
Mg143 O148 2.032 1_545 S
Mg143 O150 2.079 . S
C144 O141 1.250 . S
C144 O142 1.248 . S
C145 O146 1.264 . S
C145 O153 1.249 . S
O146 C145 1.264 . S
O147 Mg140 1.986 . S
O147 C151 1.246 . S
O148 Mg143 2.032 1_565 S
O148 C151 1.259 . S
O149 Mg140 2.114 1_545 S
O149 C152 1.252 . S
O150 Mg140 2.251 1_545 S
O150 Mg143 2.079 . S
O150 C152 1.273 . S
C151 O147 1.246 . S
C151 O148 1.259 . S
C152 O149 1.252 . S
C152 O150 1.273 . S
O153 Mg140 2.010 . S
O153 C145 1.249 . S
Mg154 O155 2.028 1_554 S
Mg154 O161 1.986 . S
Mg154 O163 2.114 . S
Mg154 O164 2.251 . S
Mg154 O167 2.010 . S
O155 Mg154 2.028 1_556 S
O155 C158 1.250 . S
O156 Mg157 2.028 . S
O156 C158 1.248 . S
Mg157 O156 2.028 . S
Mg157 O162 2.032 1_556 S
Mg157 O164 2.079 1_556 S
C158 O155 1.250 . S
C158 O156 1.248 . S
C159 O160 1.264 . S
C159 O167 1.249 . S
O160 C159 1.264 . S
O161 Mg154 1.986 . S
O161 C165 1.246 . S
O162 Mg157 2.032 1_554 S
O162 C165 1.259 . S
O163 Mg154 2.114 . S
O163 C166 1.252 . S
O164 Mg154 2.251 . S
O164 Mg157 2.079 1_554 S
O164 C166 1.273 . S
C165 O161 1.246 . S
C165 O162 1.259 . S
C166 O163 1.252 . S
C166 O164 1.273 . S
O167 Mg154 2.010 . S
O167 C159 1.249 . S
Mg168 O169 2.028 . S
Mg168 O175 1.986 . S
Mg168 O177 2.114 . S
Mg168 O178 2.251 . S
Mg168 O181 2.010 . S
O169 Mg168 2.028 . S
O169 C172 1.250 . S
O170 Mg171 2.028 . S
O170 C172 1.248 . S
Mg171 O170 2.028 . S
Mg171 O176 2.032 . S
Mg171 O178 2.079 . S
C172 O169 1.250 . S
C172 O170 1.248 . S
C173 O174 1.264 . S
C173 O181 1.249 . S
O174 C173 1.264 . S
O175 Mg168 1.986 . S
O175 C179 1.246 . S
O176 Mg171 2.032 . S
O176 C179 1.259 . S
O177 Mg168 2.114 . S
O177 C180 1.252 . S
O178 Mg168 2.251 . S
O178 Mg171 2.079 . S
O178 C180 1.273 . S
C179 O175 1.246 . S
C179 O176 1.259 . S
C180 O177 1.252 . S
C180 O178 1.273 . S
O181 Mg168 2.010 . S
O181 C173 1.249 . S
Mg182 O183 2.028 . S
Mg182 O189 1.986 . S
Mg182 O191 2.114 . S
Mg182 O192 2.251 . S
Mg182 O195 2.010 . S
O183 Mg182 2.028 . S
O183 C186 1.250 . S
O184 Mg185 2.028 . S
O184 C186 1.248 . S
Mg185 O184 2.028 . S
Mg185 O190 2.032 . S
Mg185 O192 2.079 . S
C186 O183 1.250 . S
C186 O184 1.248 . S
C187 O188 1.264 . S
C187 O195 1.249 . S
O188 C187 1.264 . S
O189 Mg182 1.986 . S
O189 C193 1.246 . S
O190 Mg185 2.032 . S
O190 C193 1.259 . S
O191 Mg182 2.114 . S
O191 C194 1.252 . S
O192 Mg182 2.251 . S
O192 Mg185 2.079 . S
O192 C194 1.273 . S
C193 O189 1.246 . S
C193 O190 1.259 . S
C194 O191 1.252 . S
C194 O192 1.273 . S
O195 Mg182 2.010 . S
O195 C187 1.249 . S
Mg196 O197 2.028 . S
Mg196 O203 1.986 . S
Mg196 O205 2.114 . S
Mg196 O206 2.251 . S
Mg196 O209 2.010 . S
O197 Mg196 2.028 . S
O197 C200 1.250 . S
O198 Mg199 2.028 . S
O198 C200 1.248 . S
Mg199 O198 2.028 . S
Mg199 O204 2.032 . S
Mg199 O206 2.079 . S
C200 O197 1.250 . S
C200 O198 1.248 . S
C201 O202 1.264 . S
C201 O209 1.249 . S
O202 C201 1.264 . S
O203 Mg196 1.986 . S
O203 C207 1.246 . S
O204 Mg199 2.032 . S
O204 C207 1.259 . S
O205 Mg196 2.114 . S
O205 C208 1.252 . S
O206 Mg196 2.251 . S
O206 Mg199 2.079 . S
O206 C208 1.273 . S
C207 O203 1.246 . S
C207 O204 1.259 . S
C208 O205 1.252 . S
C208 O206 1.273 . S
O209 Mg196 2.010 . S
O209 C201 1.249 . S
Mg210 O211 2.028 . S
Mg210 O217 1.986 . S
Mg210 O219 2.114 . S
Mg210 O220 2.251 . S
Mg210 O223 2.010 . S
O211 Mg210 2.028 . S
O211 C214 1.250 . S
O212 Mg213 2.028 . S
O212 C214 1.248 . S
Mg213 O212 2.028 . S
Mg213 O218 2.032 . S
Mg213 O220 2.079 . S
C214 O211 1.250 . S
C214 O212 1.248 . S
C215 O216 1.264 1_565 S
C215 O223 1.249 . S
O216 C215 1.264 1_545 S
O217 Mg210 1.986 . S
O217 C221 1.246 . S
O218 Mg213 2.032 . S
O218 C221 1.259 . S
O219 Mg210 2.114 . S
O219 C222 1.252 . S
O220 Mg210 2.251 . S
O220 Mg213 2.079 . S
O220 C222 1.273 . S
C221 O217 1.246 . S
C221 O218 1.259 . S
C222 O219 1.252 . S
C222 O220 1.273 . S
O223 Mg210 2.010 . S
O223 C215 1.249 . S
Mg224 O225 2.028 1_545 S
Mg224 O231 1.986 . S
Mg224 O233 2.114 . S
Mg224 O234 2.251 . S
Mg224 O237 2.010 . S
O225 Mg224 2.028 1_565 S
O225 C228 1.250 . S
O226 Mg227 2.028 1_565 S
O226 C228 1.248 . S
Mg227 O226 2.028 1_545 S
Mg227 O232 2.032 . S
Mg227 O234 2.079 . S
C228 O225 1.250 . S
C228 O226 1.248 . S
C229 O230 1.264 1_655 S
C229 O237 1.249 . S
O230 C229 1.264 1_455 S
O231 Mg224 1.986 . S
O231 C235 1.246 . S
O232 Mg227 2.032 . S
O232 C235 1.259 . S
O233 Mg224 2.114 . S
O233 C236 1.252 . S
O234 Mg224 2.251 . S
O234 Mg227 2.079 . S
O234 C236 1.273 . S
C235 O231 1.246 . S
C235 O232 1.259 . S
C236 O233 1.252 . S
C236 O234 1.273 . S
O237 Mg224 2.010 . S
O237 C229 1.249 . S
Mg238 O239 2.028 . S
Mg238 O245 1.986 . S
Mg238 O247 2.114 . S
Mg238 O248 2.251 . S
Mg238 O251 2.010 . S
O239 Mg238 2.028 . S
O239 C242 1.250 . S
O240 Mg241 2.028 . S
O240 C242 1.248 . S
Mg241 O240 2.028 . S
Mg241 O246 2.032 . S
Mg241 O248 2.079 . S
C242 O239 1.250 . S
C242 O240 1.248 . S
C243 O244 1.264 . S
C243 O251 1.249 . S
O244 C243 1.264 . S
O245 Mg238 1.986 . S
O245 C249 1.246 . S
O246 Mg241 2.032 . S
O246 C249 1.259 . S
O247 Mg238 2.114 . S
O247 C250 1.252 . S
O248 Mg238 2.251 . S
O248 Mg241 2.079 . S
O248 C250 1.273 . S
C249 O245 1.246 . S
C249 O246 1.259 . S
C250 O247 1.252 . S
C250 O248 1.273 . S
O251 Mg238 2.010 . S
O251 C243 1.249 . S
Mg252 O253 2.028 . S
Mg252 O259 1.986 . S
Mg252 O261 2.114 . S
Mg252 O262 2.251 . S
Mg252 O265 2.010 . S
O253 Mg252 2.028 . S
O253 C256 1.250 . S
O254 Mg255 2.028 . S
O254 C256 1.248 . S
Mg255 O254 2.028 . S
Mg255 O260 2.032 . S
Mg255 O262 2.079 . S
C256 O253 1.250 . S
C256 O254 1.248 . S
C257 O258 1.264 . S
C257 O265 1.249 . S
O258 C257 1.264 . S
O259 Mg252 1.986 . S
O259 C263 1.246 . S
O260 Mg255 2.032 . S
O260 C263 1.259 . S
O261 Mg252 2.114 . S
O261 C264 1.252 . S
O262 Mg252 2.251 . S
O262 Mg255 2.079 . S
O262 C264 1.273 . S
C263 O259 1.246 . S
C263 O260 1.259 . S
C264 O261 1.252 . S
C264 O262 1.273 . S
O265 Mg252 2.010 . S
O265 C257 1.249 . S
Mg266 O267 2.028 1_565 S
Mg266 O273 1.986 . S
Mg266 O275 2.114 1_565 S
Mg266 O276 2.251 1_565 S
Mg266 O279 2.010 . S
O267 Mg266 2.028 1_545 S
O267 C270 1.250 . S
O268 Mg269 2.028 . S
O268 C270 1.248 . S
Mg269 O268 2.028 . S
Mg269 O274 2.032 1_545 S
Mg269 O276 2.079 . S
C270 O267 1.250 . S
C270 O268 1.248 . S
C271 O272 1.264 . S
C271 O279 1.249 . S
O272 C271 1.264 . S
O273 Mg266 1.986 . S
O273 C277 1.246 . S
O274 Mg269 2.032 1_565 S
O274 C277 1.259 . S
O275 Mg266 2.114 1_545 S
O275 C278 1.252 . S
O276 Mg266 2.251 1_545 S
O276 Mg269 2.079 . S
O276 C278 1.273 . S
C277 O273 1.246 . S
C277 O274 1.259 . S
C278 O275 1.252 . S
C278 O276 1.273 . S
O279 Mg266 2.010 . S
O279 C271 1.249 . S
Mg280 O281 2.028 . S
Mg280 O287 1.986 . S
Mg280 O289 2.114 . S
Mg280 O290 2.251 . S
Mg280 O293 2.010 . S
O281 Mg280 2.028 . S
O281 C284 1.250 . S
O282 Mg283 2.028 . S
O282 C284 1.248 . S
Mg283 O282 2.028 . S
Mg283 O288 2.032 . S
Mg283 O290 2.079 . S
C284 O281 1.250 . S
C284 O282 1.248 . S
C285 O286 1.264 1_554 S
C285 O293 1.249 . S
O286 C285 1.264 1_556 S
O287 Mg280 1.986 . S
O287 C291 1.246 . S
O288 Mg283 2.032 . S
O288 C291 1.259 . S
O289 Mg280 2.114 . S
O289 C292 1.252 . S
O290 Mg280 2.251 . S
O290 Mg283 2.079 . S
O290 C292 1.273 . S
C291 O287 1.246 . S
C291 O288 1.259 . S
C292 O289 1.252 . S
C292 O290 1.273 . S
O293 Mg280 2.010 . S
O293 C285 1.249 . S
Mg294 O295 2.028 . S
Mg294 O301 1.986 . S
Mg294 O303 2.114 . S
Mg294 O304 2.251 . S
Mg294 O307 2.010 . S
O295 Mg294 2.028 . S
O295 C298 1.250 . S
O296 Mg297 2.028 . S
O296 C298 1.248 . S
Mg297 O296 2.028 . S
Mg297 O302 2.032 . S
Mg297 O304 2.079 . S
C298 O295 1.250 . S
C298 O296 1.248 . S
C299 O300 1.264 1_655 S
C299 O307 1.249 . S
O300 C299 1.264 1_455 S
O301 Mg294 1.986 . S
O301 C305 1.246 . S
O302 Mg297 2.032 . S
O302 C305 1.259 . S
O303 Mg294 2.114 . S
O303 C306 1.252 . S
O304 Mg294 2.251 . S
O304 Mg297 2.079 . S
O304 C306 1.273 . S
C305 O301 1.246 . S
C305 O302 1.259 . S
C306 O303 1.252 . S
C306 O304 1.273 . S
O307 Mg294 2.010 . S
O307 C299 1.249 . S
Mg308 O309 2.028 . S
Mg308 O315 1.986 . S
Mg308 O317 2.114 . S
Mg308 O318 2.251 . S
Mg308 O321 2.010 . S
O309 Mg308 2.028 . S
O309 C312 1.250 . S
O310 Mg311 2.028 . S
O310 C312 1.248 . S
Mg311 O310 2.028 . S
Mg311 O316 2.032 . S
Mg311 O318 2.079 . S
C312 O309 1.250 . S
C312 O310 1.248 . S
C313 O314 1.264 . S
C313 O321 1.249 . S
O314 C313 1.264 . S
O315 Mg308 1.986 . S
O315 C319 1.246 . S
O316 Mg311 2.032 . S
O316 C319 1.259 . S
O317 Mg308 2.114 . S
O317 C320 1.252 . S
O318 Mg308 2.251 . S
O318 Mg311 2.079 . S
O318 C320 1.273 . S
C319 O315 1.246 . S
C319 O316 1.259 . S
C320 O317 1.252 . S
C320 O318 1.273 . S
O321 Mg308 2.010 . S
O321 C313 1.249 . S
Mg322 O323 2.028 . S
Mg322 O329 1.986 . S
Mg322 O331 2.114 . S
Mg322 O332 2.251 . S
Mg322 O335 2.010 . S
O323 Mg322 2.028 . S
O323 C326 1.250 . S
O324 Mg325 2.028 . S
O324 C326 1.248 . S
Mg325 O324 2.028 . S
Mg325 O330 2.032 . S
Mg325 O332 2.079 . S
C326 O323 1.250 . S
C326 O324 1.248 . S
C327 O328 1.264 . S
C327 O335 1.249 . S
O328 C327 1.264 . S
O329 Mg322 1.986 . S
O329 C333 1.246 . S
O330 Mg325 2.032 . S
O330 C333 1.259 . S
O331 Mg322 2.114 . S
O331 C334 1.252 . S
O332 Mg322 2.251 . S
O332 Mg325 2.079 . S
O332 C334 1.273 . S
C333 O329 1.246 . S
C333 O330 1.259 . S
C334 O331 1.252 . S
C334 O332 1.273 . S
O335 Mg322 2.010 . S
O335 C327 1.249 . S
C336 Eu337 2.835 . S
C336 C338 1.500 1_545 S
C336 O356 1.257 . S
C336 O357 1.260 . S
Eu337 C336 2.835 . S
Eu337 O356 2.473 . S
Eu337 O357 2.480 . S
Eu337 O358 2.430 . S
Eu337 O359 2.670 . S
Eu337 O360 2.394 1_545 S
Eu337 O365 2.355 . S
Eu337 O367 2.374 . S
C338 C336 1.500 1_565 S
C338 C339 1.377 1_565 S
C338 C343 1.377 . S
C339 C338 1.377 1_545 S
C339 C340 1.395 1_545 S
C339 H368 0.931 . S
C340 C339 1.395 1_565 S
C340 C341 1.383 . S
C340 H369 0.931 . S
C341 C340 1.383 . S
C341 C342 1.394 . S
C342 C341 1.394 . S
C342 C343 1.378 . S
C342 H370 0.931 . S
C343 C338 1.377 . S
C343 C342 1.378 . S
C343 H371 0.931 . S
C344 O358 1.259 . S
C344 O359 1.270 . S
C345 O360 1.251 . S
C345 O361 1.251 . S
C346 Eu347 2.835 1_655 S
C346 C348 1.500 . S
C346 O362 1.257 . S
C346 O363 1.260 . S
Eu347 C346 2.835 1_455 S
Eu347 O359 2.355 . S
Eu347 O361 2.374 1_545 S
Eu347 O362 2.473 1_455 S
Eu347 O363 2.480 1_455 S
Eu347 O364 2.430 1_544 S
Eu347 O365 2.670 . S
Eu347 O366 2.394 . S
C348 C346 1.500 . S
C348 C349 1.377 . S
C348 C353 1.377 . S
C349 C348 1.377 . S
C349 C350 1.395 1_554 S
C349 H372 0.931 1_554 S
C350 C349 1.395 1_556 S
C350 C351 1.383 1_556 S
C350 H373 0.931 . S
C351 C350 1.383 1_554 S
C351 C352 1.394 . S
C352 C351 1.394 . S
C352 C353 1.378 . S
C352 H374 0.931 . S
C353 C348 1.377 . S
C353 C352 1.378 . S
C353 H375 0.931 . S
C354 O364 1.262 1_544 S
C354 O365 1.266 . S
C355 O366 1.251 . S
C355 O367 1.251 . S
O356 C336 1.257 . S
O356 Eu337 2.473 . S
O357 C336 1.260 . S
O357 Eu337 2.480 . S
O358 Eu337 2.430 . S
O358 C344 1.259 . S
O359 Eu337 2.670 . S
O359 C344 1.270 . S
O359 Eu347 2.355 . S
O360 Eu337 2.394 1_565 S
O360 C345 1.251 . S
O361 C345 1.251 . S
O361 Eu347 2.374 1_565 S
O362 C346 1.257 . S
O362 Eu347 2.473 1_655 S
O363 C346 1.260 . S
O363 Eu347 2.480 1_655 S
O364 Eu347 2.430 1_566 S
O364 C354 1.262 1_566 S
O365 Eu337 2.355 . S
O365 Eu347 2.670 . S
O365 C354 1.266 . S
O366 Eu347 2.394 . S
O366 C355 1.251 . S
O367 Eu337 2.374 . S
O367 C355 1.251 . S
H368 C339 0.931 . S
H369 C340 0.931 . S
H370 C342 0.931 . S
H371 C343 0.931 . S
H372 C349 0.931 1_556 S
H373 C350 0.931 . S
H374 C352 0.931 . S
H375 C353 0.931 . S
C376 Eu377 2.835 . S
C376 C378 1.500 . S
C376 O396 1.257 . S
C376 O397 1.260 . S
Eu377 C376 2.835 . S
Eu377 O396 2.473 . S
Eu377 O397 2.480 . S
Eu377 O398 2.430 . S
Eu377 O399 2.670 . S
Eu377 O400 2.394 . S
Eu377 O405 2.355 . S
Eu377 O407 2.374 . S
C378 C376 1.500 . S
C378 C379 1.377 . S
C378 C383 1.377 . S
C379 C378 1.377 . S
C379 C380 1.395 . S
C379 H408 0.931 . S
C380 C379 1.395 . S
C380 C381 1.383 . S
C380 H409 0.931 . S
C381 C380 1.383 . S
C381 C382 1.394 . S
C382 C381 1.394 . S
C382 C383 1.378 . S
C382 H410 0.931 . S
C383 C378 1.377 . S
C383 C382 1.378 . S
C383 H411 0.931 . S
C384 O398 1.259 . S
C384 O399 1.270 . S
C385 O400 1.251 . S
C385 O401 1.251 . S
C386 Eu387 2.835 . S
C386 C388 1.500 . S
C386 O402 1.257 . S
C386 O403 1.260 . S
Eu387 C386 2.835 . S
Eu387 O399 2.355 . S
Eu387 O401 2.374 . S
Eu387 O402 2.473 . S
Eu387 O403 2.480 . S
Eu387 O404 2.430 . S
Eu387 O405 2.670 . S
Eu387 O406 2.394 . S
C388 C386 1.500 . S
C388 C389 1.377 . S
C388 C393 1.377 . S
C389 C388 1.377 . S
C389 C390 1.395 . S
C389 H412 0.931 . S
C390 C389 1.395 . S
C390 C391 1.383 . S
C390 H413 0.931 . S
C391 C390 1.383 . S
C391 C392 1.394 . S
C392 C391 1.394 . S
C392 C393 1.378 . S
C392 H414 0.931 . S
C393 C388 1.377 . S
C393 C392 1.378 . S
C393 H415 0.931 . S
C394 O404 1.259 . S
C394 O405 1.270 . S
C395 O406 1.251 . S
C395 O407 1.251 . S
O396 C376 1.257 . S
O396 Eu377 2.473 . S
O397 C376 1.260 . S
O397 Eu377 2.480 . S
O398 Eu377 2.430 . S
O398 C384 1.259 . S
O399 Eu377 2.670 . S
O399 C384 1.270 . S
O399 Eu387 2.355 . S
O400 Eu377 2.394 . S
O400 C385 1.251 . S
O401 C385 1.251 . S
O401 Eu387 2.374 . S
O402 C386 1.257 . S
O402 Eu387 2.473 . S
O403 C386 1.260 . S
O403 Eu387 2.480 . S
O404 Eu387 2.430 . S
O404 C394 1.259 . S
O405 Eu377 2.355 . S
O405 Eu387 2.670 . S
O405 C394 1.270 . S
O406 Eu387 2.394 . S
O406 C395 1.251 . S
O407 Eu377 2.374 . S
O407 C395 1.251 . S
H408 C379 0.931 . S
H409 C380 0.931 . S
H410 C382 0.931 . S
H411 C383 0.931 . S
H412 C389 0.931 . S
H413 C390 0.931 . S
H414 C392 0.931 . S
H415 C393 0.931 . S
C416 Eu417 2.835 . S
C416 C418 1.500 . S
C416 O436 1.257 . S
C416 O437 1.260 . S
Eu417 C416 2.835 . S
Eu417 O436 2.473 . S
Eu417 O437 2.480 . S
Eu417 O438 2.430 . S
Eu417 O439 2.670 . S
Eu417 O440 2.394 . S
Eu417 O445 2.355 . S
Eu417 O447 2.374 1_545 S
C418 C416 1.500 . S
C418 C419 1.377 . S
C418 C423 1.377 . S
C419 C418 1.377 . S
C419 C420 1.395 . S
C419 H448 0.931 . S
C420 C419 1.395 . S
C420 C421 1.383 . S
C420 H449 0.931 . S
C421 C420 1.383 . S
C421 C422 1.394 . S
C422 C421 1.394 . S
C422 C423 1.378 . S
C422 H450 0.931 . S
C423 C418 1.377 . S
C423 C422 1.378 . S
C423 H451 0.931 . S
C424 O438 1.259 . S
C424 O439 1.270 . S
C425 O440 1.251 . S
C425 O441 1.251 . S
C426 Eu427 2.835 1_565 S
C426 C428 1.500 . S
C426 O442 1.257 . S
C426 O443 1.260 . S
Eu427 C426 2.835 1_545 S
Eu427 O439 2.355 . S
Eu427 O441 2.374 . S
Eu427 O442 2.473 1_545 S
Eu427 O443 2.480 1_545 S
Eu427 O444 2.430 . S
Eu427 O445 2.670 . S
Eu427 O446 2.394 1_545 S
C428 C426 1.500 . S
C428 C429 1.377 . S
C428 C433 1.377 . S
C429 C428 1.377 . S
C429 C430 1.395 . S
C429 H452 0.931 . S
C430 C429 1.395 . S
C430 C431 1.383 . S
C430 H453 0.931 . S
C431 C430 1.383 . S
C431 C432 1.394 . S
C432 C431 1.394 . S
C432 C433 1.378 . S
C432 H454 0.931 . S
C433 C428 1.377 . S
C433 C432 1.378 . S
C433 H455 0.931 . S
C434 O444 1.259 . S
C434 O445 1.270 . S
C435 O446 1.251 . S
C435 O447 1.251 . S
O436 C416 1.257 . S
O436 Eu417 2.473 . S
O437 C416 1.260 . S
O437 Eu417 2.480 . S
O438 Eu417 2.430 . S
O438 C424 1.259 . S
O439 Eu417 2.670 . S
O439 C424 1.270 . S
O439 Eu427 2.355 . S
O440 Eu417 2.394 . S
O440 C425 1.251 . S
O441 C425 1.251 . S
O441 Eu427 2.374 . S
O442 C426 1.257 . S
O442 Eu427 2.473 1_565 S
O443 C426 1.260 . S
O443 Eu427 2.480 1_565 S
O444 Eu427 2.430 . S
O444 C434 1.259 . S
O445 Eu417 2.355 . S
O445 Eu427 2.670 . S
O445 C434 1.270 . S
O446 Eu427 2.394 1_565 S
O446 C435 1.251 . S
O447 Eu417 2.374 1_565 S
O447 C435 1.251 . S
H448 C419 0.931 . S
H449 C420 0.931 . S
H450 C422 0.931 . S
H451 C423 0.931 . S
H452 C429 0.931 . S
H453 C430 0.931 . S
H454 C432 0.931 . S
H455 C433 0.931 . S
C456 Eu457 2.835 . S
C456 C458 1.500 . S
C456 O476 1.257 . S
C456 O477 1.260 . S
Eu457 C456 2.835 . S
Eu457 O476 2.473 . S
Eu457 O477 2.480 . S
Eu457 O478 2.430 . S
Eu457 O479 2.670 . S
Eu457 O480 2.394 . S
Eu457 O485 2.355 . S
Eu457 O487 2.374 . S
C458 C456 1.500 . S
C458 C459 1.377 . S
C458 C463 1.377 . S
C459 C458 1.377 . S
C459 C460 1.395 . S
C459 H488 0.931 . S
C460 C459 1.395 . S
C460 C461 1.383 . S
C460 H489 0.931 . S
C461 C460 1.383 . S
C461 C462 1.394 . S
C462 C461 1.394 . S
C462 C463 1.378 . S
C462 H490 0.931 . S
C463 C458 1.377 . S
C463 C462 1.378 . S
C463 H491 0.931 . S
C464 O478 1.259 . S
C464 O479 1.270 . S
C465 O480 1.251 . S
C465 O481 1.251 . S
C466 Eu467 2.835 . S
C466 C468 1.500 . S
C466 O482 1.257 . S
C466 O483 1.260 . S
Eu467 C466 2.835 . S
Eu467 O479 2.355 . S
Eu467 O481 2.374 . S
Eu467 O482 2.473 . S
Eu467 O483 2.480 . S
Eu467 O484 2.430 . S
Eu467 O485 2.670 . S
Eu467 O486 2.394 . S
C468 C466 1.500 . S
C468 C469 1.377 . S
C468 C473 1.377 . S
C469 C468 1.377 . S
C469 C470 1.395 . S
C469 H492 0.931 . S
C470 C469 1.395 . S
C470 C471 1.383 . S
C470 H493 0.931 . S
C471 C470 1.383 . S
C471 C472 1.394 . S
C472 C471 1.394 . S
C472 C473 1.378 . S
C472 H494 0.931 1_556 S
C473 C468 1.377 . S
C473 C472 1.378 . S
C473 H495 0.931 . S
C474 O484 1.259 . S
C474 O485 1.270 . S
C475 O486 1.251 . S
C475 O487 1.251 . S
O476 C456 1.257 . S
O476 Eu457 2.473 . S
O477 C456 1.260 . S
O477 Eu457 2.480 . S
O478 Eu457 2.430 . S
O478 C464 1.259 . S
O479 Eu457 2.670 . S
O479 C464 1.270 . S
O479 Eu467 2.355 . S
O480 Eu457 2.394 . S
O480 C465 1.251 . S
O481 C465 1.251 . S
O481 Eu467 2.374 . S
O482 C466 1.257 . S
O482 Eu467 2.473 . S
O483 C466 1.260 . S
O483 Eu467 2.480 . S
O484 Eu467 2.430 . S
O484 C474 1.259 . S
O485 Eu457 2.355 . S
O485 Eu467 2.670 . S
O485 C474 1.270 . S
O486 Eu467 2.394 . S
O486 C475 1.251 . S
O487 Eu457 2.374 . S
O487 C475 1.251 . S
H488 C459 0.931 . S
H489 C460 0.931 . S
H490 C462 0.931 . S
H491 C463 0.931 . S
H492 C469 0.931 . S
H493 C470 0.931 . S
H494 C472 0.931 1_554 S
H495 C473 0.931 . S
C496 Eu497 2.835 . S
C496 C498 1.500 . S
C496 O516 1.257 . S
C496 O517 1.260 . S
Eu497 C496 2.835 . S
Eu497 O516 2.473 . S
Eu497 O517 2.480 . S
Eu497 O518 2.430 . S
Eu497 O519 2.670 1_565 S
Eu497 O520 2.394 . S
Eu497 O525 2.355 . S
Eu497 O527 2.374 . S
C498 C496 1.500 . S
C498 C499 1.377 . S
C498 C503 1.377 . S
C499 C498 1.377 . S
C499 C500 1.395 . S
C499 H528 0.931 . S
C500 C499 1.395 . S
C500 C501 1.383 . S
C500 H529 0.931 . S
C501 C500 1.383 . S
C501 C502 1.394 . S
C502 C501 1.394 . S
C502 C503 1.378 . S
C502 H530 0.931 . S
C503 C498 1.377 . S
C503 C502 1.378 . S
C503 H531 0.931 . S
C504 O518 1.259 1_545 S
C504 O519 1.270 . S
C505 O520 1.251 1_545 S
C505 O521 1.251 . S
C506 Eu507 2.835 . S
C506 C508 1.500 . S
C506 O522 1.257 . S
C506 O523 1.260 . S
Eu507 C506 2.835 . S
Eu507 O519 2.355 . S
Eu507 O521 2.374 . S
Eu507 O522 2.473 . S
Eu507 O523 2.480 . S
Eu507 O524 2.430 1_455 S
Eu507 O525 2.670 1_545 S
Eu507 O526 2.394 . S
C508 C506 1.500 . S
C508 C509 1.377 . S
C508 C513 1.377 . S
C509 C508 1.377 . S
C509 C510 1.395 . S
C509 H532 0.952 . S
C510 C509 1.395 . S
C510 C511 1.383 . S
C510 H533 0.931 . S
C511 C510 1.383 . S
C511 C512 1.394 . S
C512 C511 1.394 . S
C512 C513 1.378 . S
C512 H534 0.931 . S
C513 C508 1.377 . S
C513 C512 1.378 . S
C513 H535 0.931 . S
C514 O524 1.259 . S
C514 O525 1.270 1_645 S
C515 O526 1.251 . S
C515 O527 1.251 1_545 S
O516 C496 1.257 . S
O516 Eu497 2.473 . S
O517 C496 1.260 . S
O517 Eu497 2.480 . S
O518 Eu497 2.430 . S
O518 C504 1.259 1_565 S
O519 Eu497 2.670 1_545 S
O519 C504 1.270 . S
O519 Eu507 2.355 . S
O520 Eu497 2.394 . S
O520 C505 1.251 1_565 S
O521 C505 1.251 . S
O521 Eu507 2.374 . S
O522 C506 1.257 . S
O522 Eu507 2.473 . S
O523 C506 1.260 . S
O523 Eu507 2.480 . S
O524 Eu507 2.430 1_655 S
O524 C514 1.259 . S
O525 Eu497 2.355 . S
O525 Eu507 2.670 1_565 S
O525 C514 1.270 1_465 S
O526 Eu507 2.394 . S
O526 C515 1.251 . S
O527 Eu497 2.374 . S
O527 C515 1.251 1_565 S
H528 C499 0.931 . S
H529 C500 0.931 . S
H530 C502 0.931 . S
H531 C503 0.931 . S
H532 C509 0.952 . S
H533 C510 0.931 . S
H534 C512 0.931 . S
H535 C513 0.931 . S
C536 Eu537 2.835 . S
C536 C538 1.500 . S
C536 O556 1.257 . S
C536 O557 1.260 . S
Eu537 C536 2.835 . S
Eu537 O556 2.473 . S
Eu537 O557 2.480 . S
Eu537 O558 2.430 . S
Eu537 O559 2.670 . S
Eu537 O560 2.394 . S
Eu537 O565 2.355 . S
Eu537 O567 2.374 . S
C538 C536 1.500 . S
C538 C539 1.377 . S
C538 C543 1.377 . S
C539 C538 1.377 . S
C539 C540 1.395 . S
C539 H568 0.931 . S
C540 C539 1.395 . S
C540 C541 1.383 . S
C540 H569 0.931 . S
C541 C540 1.383 . S
C541 C542 1.394 . S
C542 C541 1.394 . S
C542 C543 1.378 . S
C542 H570 0.931 . S
C543 C538 1.377 . S
C543 C542 1.378 . S
C543 H571 0.931 . S
C544 O558 1.259 . S
C544 O559 1.270 . S
C545 O560 1.251 . S
C545 O561 1.251 . S
C546 Eu547 2.835 . S
C546 C548 1.500 . S
C546 O562 1.257 . S
C546 O563 1.260 . S
Eu547 C546 2.835 . S
Eu547 O559 2.355 . S
Eu547 O561 2.374 . S
Eu547 O562 2.473 . S
Eu547 O563 2.480 . S
Eu547 O564 2.430 . S
Eu547 O565 2.670 . S
Eu547 O566 2.394 . S
C548 C546 1.500 . S
C548 C549 1.377 . S
C548 C553 1.377 1_556 S
C549 C548 1.377 . S
C549 C550 1.395 1_556 S
C549 H572 0.931 . S
C550 C549 1.395 1_554 S
C550 C551 1.383 . S
C550 H573 0.931 . S
C551 C550 1.383 . S
C551 C552 1.394 . S
C552 C551 1.394 . S
C552 C553 1.378 . S
C552 H574 0.931 . S
C553 C548 1.377 1_554 S
C553 C552 1.378 . S
C553 H575 0.931 . S
C554 O564 1.259 . S
C554 O565 1.270 . S
C555 O566 1.251 . S
C555 O567 1.251 . S
O556 C536 1.257 . S
O556 Eu537 2.473 . S
O557 C536 1.260 . S
O557 Eu537 2.480 . S
O558 Eu537 2.430 . S
O558 C544 1.259 . S
O559 Eu537 2.670 . S
O559 C544 1.270 . S
O559 Eu547 2.355 . S
O560 Eu537 2.394 . S
O560 C545 1.251 . S
O561 C545 1.251 . S
O561 Eu547 2.374 . S
O562 C546 1.257 . S
O562 Eu547 2.473 . S
O563 C546 1.260 . S
O563 Eu547 2.480 . S
O564 Eu547 2.430 . S
O564 C554 1.259 . S
O565 Eu537 2.355 . S
O565 Eu547 2.670 . S
O565 C554 1.270 . S
O566 Eu547 2.394 . S
O566 C555 1.251 . S
O567 Eu537 2.374 . S
O567 C555 1.251 . S
H568 C539 0.931 . S
H569 C540 0.931 . S
H570 C542 0.931 . S
H571 C543 0.931 . S
H572 C549 0.931 . S
H573 C550 0.931 . S
H574 C552 0.931 . S
H575 C553 0.931 . S
C576 Eu577 2.835 . S
C576 C578 1.500 . S
C576 O596 1.257 . S
C576 O597 1.260 . S
Eu577 C576 2.835 . S
Eu577 O596 2.473 . S
Eu577 O597 2.480 . S
Eu577 O598 2.430 1_545 S
Eu577 O599 2.670 1_545 S
Eu577 O600 2.394 . S
Eu577 O605 2.355 . S
Eu577 O607 2.374 . S
C578 C576 1.500 . S
C578 C579 1.377 . S
C578 C583 1.377 . S
C579 C578 1.377 . S
C579 C580 1.395 . S
C579 H608 0.931 . S
C580 C579 1.395 . S
C580 C581 1.383 . S
C580 H609 0.931 . S
C581 C580 1.383 . S
C581 C582 1.394 . S
C582 C581 1.394 . S
C582 C583 1.378 . S
C582 H610 0.931 . S
C583 C578 1.377 . S
C583 C582 1.378 . S
C583 H611 0.931 . S
C584 O598 1.259 . S
C584 O599 1.270 . S
C585 O600 1.251 . S
C585 O601 1.251 . S
C586 Eu587 2.835 . S
C586 C588 1.500 . S
C586 O602 1.257 . S
C586 O603 1.260 . S
Eu587 C586 2.835 . S
Eu587 O599 2.355 . S
Eu587 O601 2.374 1_565 S
Eu587 O602 2.473 . S
Eu587 O603 2.480 . S
Eu587 O604 2.430 1_565 S
Eu587 O605 2.670 1_565 S
Eu587 O606 2.394 1_565 S
C588 C586 1.500 . S
C588 C589 1.377 . S
C588 C593 1.377 . S
C589 C588 1.377 . S
C589 C590 1.395 . S
C589 H612 0.931 . S
C590 C589 1.395 . S
C590 C591 1.383 . S
C590 H613 0.931 . S
C591 C590 1.383 . S
C591 C592 1.394 . S
C592 C591 1.394 . S
C592 C593 1.378 . S
C592 H614 0.931 . S
C593 C588 1.377 . S
C593 C592 1.378 . S
C593 H615 0.931 . S
C594 O604 1.259 . S
C594 O605 1.270 . S
C595 O606 1.251 . S
C595 O607 1.251 . S
O596 C576 1.257 . S
O596 Eu577 2.473 . S
O597 C576 1.260 . S
O597 Eu577 2.480 . S
O598 Eu577 2.430 1_565 S
O598 C584 1.259 . S
O599 Eu577 2.670 1_565 S
O599 C584 1.270 . S
O599 Eu587 2.355 . S
O600 Eu577 2.394 . S
O600 C585 1.251 . S
O601 C585 1.251 . S
O601 Eu587 2.374 1_545 S
O602 C586 1.257 . S
O602 Eu587 2.473 . S
O603 C586 1.260 . S
O603 Eu587 2.480 . S
O604 Eu587 2.430 1_545 S
O604 C594 1.259 . S
O605 Eu577 2.355 . S
O605 Eu587 2.670 1_545 S
O605 C594 1.270 . S
O606 Eu587 2.394 1_545 S
O606 C595 1.251 . S
O607 Eu577 2.374 . S
O607 C595 1.251 . S
H608 C579 0.931 . S
H609 C580 0.931 . S
H610 C582 0.931 . S
H611 C583 0.931 . S
H612 C589 0.931 . S
H613 C590 0.931 . S
H614 C592 0.931 . S
H615 C593 0.931 . S
C616 Eu617 2.835 . S
C616 C618 1.500 . S
C616 O636 1.257 . S
C616 O637 1.260 . S
Eu617 C616 2.835 . S
Eu617 O636 2.473 . S
Eu617 O637 2.480 . S
Eu617 O638 2.430 . S
Eu617 O639 2.670 . S
Eu617 O640 2.394 . S
Eu617 O645 2.355 . S
Eu617 O647 2.374 . S
C618 C616 1.500 . S
C618 C619 1.377 . S
C618 C623 1.377 . S
C619 C618 1.377 . S
C619 C620 1.395 . S
C619 H648 0.931 . S
C620 C619 1.395 . S
C620 C621 1.383 . S
C620 H649 0.931 . S
C621 C620 1.383 . S
C621 C622 1.394 . S
C622 C621 1.394 . S
C622 C623 1.378 . S
C622 H650 0.931 . S
C623 C618 1.377 . S
C623 C622 1.378 . S
C623 H651 0.931 . S
C624 O638 1.259 . S
C624 O639 1.270 . S
C625 O640 1.251 . S
C625 O641 1.251 . S
C626 Eu627 2.835 . S
C626 C628 1.500 . S
C626 O642 1.257 . S
C626 O643 1.260 . S
Eu627 C626 2.835 . S
Eu627 O639 2.355 . S
Eu627 O641 2.374 . S
Eu627 O642 2.473 . S
Eu627 O643 2.480 . S
Eu627 O644 2.430 . S
Eu627 O645 2.670 . S
Eu627 O646 2.394 . S
C628 C626 1.500 . S
C628 C629 1.377 . S
C628 C633 1.377 . S
C629 C628 1.377 . S
C629 C630 1.395 . S
C629 H652 0.931 . S
C630 C629 1.395 . S
C630 C631 1.383 . S
C630 H653 0.931 . S
C631 C630 1.383 . S
C631 C632 1.394 . S
C632 C631 1.394 . S
C632 C633 1.378 . S
C632 H654 0.931 . S
C633 C628 1.377 . S
C633 C632 1.378 . S
C633 H655 0.931 . S
C634 O644 1.259 . S
C634 O645 1.270 . S
C635 O646 1.251 . S
C635 O647 1.251 . S
O636 C616 1.257 . S
O636 Eu617 2.473 . S
O637 C616 1.260 . S
O637 Eu617 2.480 . S
O638 Eu617 2.430 . S
O638 C624 1.259 . S
O639 Eu617 2.670 . S
O639 C624 1.270 . S
O639 Eu627 2.355 . S
O640 Eu617 2.394 . S
O640 C625 1.251 . S
O641 C625 1.251 . S
O641 Eu627 2.374 . S
O642 C626 1.257 . S
O642 Eu627 2.473 . S
O643 C626 1.260 . S
O643 Eu627 2.480 . S
O644 Eu627 2.430 . S
O644 C634 1.259 . S
O645 Eu617 2.355 . S
O645 Eu627 2.670 . S
O645 C634 1.270 . S
O646 Eu627 2.394 . S
O646 C635 1.251 . S
O647 Eu617 2.374 . S
O647 C635 1.251 . S
H648 C619 0.931 . S
H649 C620 0.931 . S
H650 C622 0.931 . S
H651 C623 0.931 . S
H652 C629 0.931 . S
H653 C630 0.931 . S
H654 C632 0.931 . S
H655 C633 0.931 . S
C656 Eu657 2.835 . S
C656 C658 1.500 . S
C656 O676 1.257 . S
C656 O677 1.260 . S
Eu657 C656 2.835 . S
Eu657 O676 2.473 . S
Eu657 O677 2.480 . S
Eu657 O678 2.430 . S
Eu657 O679 2.670 . S
Eu657 O680 2.394 . S
Eu657 O685 2.355 . S
Eu657 O687 2.374 1_554 S
C658 C656 1.500 . S
C658 C659 1.377 . S
C658 C663 1.377 . S
C659 C658 1.377 . S
C659 C660 1.395 . S
C659 H688 0.931 . S
C660 C659 1.395 . S
C660 C661 1.383 . S
C660 H689 0.931 . S
C661 C660 1.383 . S
C661 C662 1.394 . S
C662 C661 1.394 . S
C662 C663 1.378 . S
C662 H690 0.931 . S
C663 C658 1.377 . S
C663 C662 1.378 . S
C663 H691 0.931 . S
C664 O678 1.259 . S
C664 O679 1.270 . S
C665 O680 1.251 . S
C665 O681 1.251 . S
C666 Eu667 2.835 . S
C666 C668 1.500 . S
C666 O682 1.257 . S
C666 O683 1.260 . S
Eu667 C666 2.835 . S
Eu667 O679 2.355 . S
Eu667 O681 2.374 . S
Eu667 O682 2.473 . S
Eu667 O683 2.480 . S
Eu667 O684 2.430 . S
Eu667 O685 2.670 . S
Eu667 O686 2.394 . S
C668 C666 1.500 . S
C668 C669 1.377 . S
C668 C673 1.377 . S
C669 C668 1.377 . S
C669 C670 1.395 . S
C669 H692 0.931 . S
C670 C669 1.395 . S
C670 C671 1.383 . S
C670 H693 0.931 . S
C671 C670 1.383 . S
C671 C672 1.394 . S
C672 C671 1.394 . S
C672 C673 1.378 . S
C672 H694 0.931 . S
C673 C668 1.377 . S
C673 C672 1.378 . S
C673 H695 0.931 . S
C674 O684 1.259 . S
C674 O685 1.270 . S
C675 O686 1.251 1_556 S
C675 O687 1.251 . S
O676 C656 1.257 . S
O676 Eu657 2.473 . S
O677 C656 1.260 . S
O677 Eu657 2.480 . S
O678 Eu657 2.430 . S
O678 C664 1.259 . S
O679 Eu657 2.670 . S
O679 C664 1.270 . S
O679 Eu667 2.355 . S
O680 Eu657 2.394 . S
O680 C665 1.251 . S
O681 C665 1.251 . S
O681 Eu667 2.374 . S
O682 C666 1.257 . S
O682 Eu667 2.473 . S
O683 C666 1.260 . S
O683 Eu667 2.480 . S
O684 Eu667 2.430 . S
O684 C674 1.259 . S
O685 Eu657 2.355 . S
O685 Eu667 2.670 . S
O685 C674 1.270 . S
O686 Eu667 2.394 . S
O686 C675 1.251 1_554 S
O687 Eu657 2.374 1_556 S
O687 C675 1.251 . S
H688 C659 0.931 . S
H689 C660 0.931 . S
H690 C662 0.931 . S
H691 C663 0.931 . S
H692 C669 0.931 . S
H693 C670 0.931 . S
H694 C672 0.931 . S
H695 C673 0.931 . S
C696 Eu697 2.835 . S
C696 C698 1.500 . S
C696 O716 1.257 . S
C696 O717 1.260 . S
Eu697 C696 2.835 . S
Eu697 O716 2.473 . S
Eu697 O717 2.480 . S
Eu697 O718 2.430 . S
Eu697 O719 2.670 . S
Eu697 O720 2.394 . S
Eu697 O725 2.355 . S
Eu697 O727 2.374 . S
C698 C696 1.500 . S
C698 C699 1.377 . S
C698 C703 1.377 . S
C699 C698 1.377 . S
C699 C700 1.395 . S
C699 H728 0.931 . S
C700 C699 1.395 . S
C700 C701 1.383 . S
C700 H729 0.931 . S
C701 C700 1.383 . S
C701 C702 1.394 . S
C702 C701 1.394 . S
C702 C703 1.378 . S
C702 H730 0.931 . S
C703 C698 1.377 . S
C703 C702 1.378 . S
C703 H731 0.931 . S
C704 O718 1.259 . S
C704 O719 1.270 . S
C705 O720 1.251 . S
C705 O721 1.251 . S
C706 Eu707 2.835 . S
C706 C708 1.500 . S
C706 O722 1.257 . S
C706 O723 1.260 . S
Eu707 C706 2.835 . S
Eu707 O719 2.355 . S
Eu707 O721 2.374 . S
Eu707 O722 2.473 . S
Eu707 O723 2.480 . S
Eu707 O724 2.430 . S
Eu707 O725 2.670 . S
Eu707 O726 2.394 . S
C708 C706 1.500 . S
C708 C709 1.377 . S
C708 C713 1.377 . S
C709 C708 1.377 . S
C709 C710 1.395 1_655 S
C709 H732 0.931 . S
C710 C709 1.395 1_455 S
C710 C711 1.383 . S
C710 H733 0.931 . S
C711 C710 1.383 . S
C711 C712 1.394 1_455 S
C712 C711 1.394 1_655 S
C712 C713 1.378 . S
C712 H734 0.931 . S
C713 C708 1.377 . S
C713 C712 1.378 . S
C713 H735 0.931 . S
C714 O724 1.259 . S
C714 O725 1.270 . S
C715 O726 1.251 . S
C715 O727 1.251 . S
O716 C696 1.257 . S
O716 Eu697 2.473 . S
O717 C696 1.260 . S
O717 Eu697 2.480 . S
O718 Eu697 2.430 . S
O718 C704 1.259 . S
O719 Eu697 2.670 . S
O719 C704 1.270 . S
O719 Eu707 2.355 . S
O720 Eu697 2.394 . S
O720 C705 1.251 . S
O721 C705 1.251 . S
O721 Eu707 2.374 . S
O722 C706 1.257 . S
O722 Eu707 2.473 . S
O723 C706 1.260 . S
O723 Eu707 2.480 . S
O724 Eu707 2.430 . S
O724 C714 1.259 . S
O725 Eu697 2.355 . S
O725 Eu707 2.670 . S
O725 C714 1.270 . S
O726 Eu707 2.394 . S
O726 C715 1.251 . S
O727 Eu697 2.374 . S
O727 C715 1.251 . S
H728 C699 0.931 . S
H729 C700 0.931 . S
H730 C702 0.931 . S
H731 C703 0.931 . S
H732 C709 0.931 . S
H733 C710 0.931 . S
H734 C712 0.931 . S
H735 C713 0.931 . S
C736 Eu737 2.835 . S
C736 C738 1.500 . S
C736 O756 1.257 . S
C736 O757 1.260 . S
Eu737 C736 2.835 . S
Eu737 O756 2.473 . S
Eu737 O757 2.480 . S
Eu737 O758 2.430 . S
Eu737 O759 2.670 . S
Eu737 O760 2.394 . S
Eu737 O765 2.355 . S
Eu737 O767 2.374 . S
C738 C736 1.500 . S
C738 C739 1.377 . S
C738 C743 1.377 . S
C739 C738 1.377 . S
C739 C740 1.395 . S
C739 H768 0.931 . S
C740 C739 1.395 . S
C740 C741 1.383 . S
C740 H769 0.931 . S
C741 C740 1.383 . S
C741 C742 1.394 . S
C742 C741 1.394 . S
C742 C743 1.378 . S
C742 H770 0.931 . S
C743 C738 1.377 . S
C743 C742 1.378 . S
C743 H771 0.931 . S
C744 O758 1.259 . S
C744 O759 1.270 . S
C745 O760 1.251 . S
C745 O761 1.251 . S
C746 Eu747 2.835 1_655 S
C746 C748 1.500 . S
C746 O762 1.257 . S
C746 O763 1.260 . S
Eu747 C746 2.835 1_455 S
Eu747 O759 2.355 . S
Eu747 O761 2.374 . S
Eu747 O762 2.473 1_455 S
Eu747 O763 2.480 1_455 S
Eu747 O764 2.430 1_455 S
Eu747 O765 2.670 . S
Eu747 O766 2.394 1_455 S
C748 C746 1.500 . S
C748 C749 1.377 . S
C748 C753 1.377 . S
C749 C748 1.377 . S
C749 C750 1.395 . S
C749 H772 0.931 . S
C750 C749 1.395 . S
C750 C751 1.383 . S
C750 H773 0.931 . S
C751 C750 1.383 . S
C751 C752 1.394 . S
C752 C751 1.394 . S
C752 C753 1.378 . S
C752 H774 0.931 . S
C753 C748 1.377 . S
C753 C752 1.378 . S
C753 H775 0.931 . S
C754 O764 1.259 1_455 S
C754 O765 1.270 . S
C755 O766 1.251 1_455 S
C755 O767 1.251 . S
O756 C736 1.257 . S
O756 Eu737 2.473 . S
O757 C736 1.260 . S
O757 Eu737 2.480 . S
O758 Eu737 2.430 . S
O758 C744 1.259 . S
O759 Eu737 2.670 . S
O759 C744 1.270 . S
O759 Eu747 2.355 . S
O760 Eu737 2.394 . S
O760 C745 1.251 . S
O761 C745 1.251 . S
O761 Eu747 2.374 . S
O762 C746 1.257 . S
O762 Eu747 2.473 1_655 S
O763 C746 1.260 . S
O763 Eu747 2.480 1_655 S
O764 Eu747 2.430 1_655 S
O764 C754 1.259 1_655 S
O765 Eu737 2.355 . S
O765 Eu747 2.670 . S
O765 C754 1.270 . S
O766 Eu747 2.394 1_655 S
O766 C755 1.251 1_655 S
O767 Eu737 2.374 . S
O767 C755 1.251 . S
H768 C739 0.931 . S
H769 C740 0.931 . S
H770 C742 0.931 . S
H771 C743 0.931 . S
H772 C749 0.931 . S
H773 C750 0.931 . S
H774 C752 0.931 . S
H775 C753 0.931 . S
C776 Eu777 2.835 . S
C776 C778 1.500 . S
C776 O796 1.257 . S
C776 O797 1.260 . S
Eu777 C776 2.835 . S
Eu777 O796 2.473 . S
Eu777 O797 2.480 . S
Eu777 O798 2.430 . S
Eu777 O799 2.670 . S
Eu777 O800 2.394 . S
Eu777 O805 2.355 . S
Eu777 O807 2.374 . S
C778 C776 1.500 . S
C778 C779 1.377 . S
C778 C783 1.377 . S
C779 C778 1.377 . S
C779 C780 1.395 . S
C779 H808 0.931 . S
C780 C779 1.395 . S
C780 C781 1.383 . S
C780 H809 0.931 . S
C781 C780 1.383 . S
C781 C782 1.394 . S
C782 C781 1.394 . S
C782 C783 1.378 . S
C782 H810 0.931 . S
C783 C778 1.377 . S
C783 C782 1.378 . S
C783 H811 0.931 . S
C784 O798 1.259 . S
C784 O799 1.270 . S
C785 O800 1.251 . S
C785 O801 1.251 . S
C786 Eu787 2.835 . S
C786 C788 1.500 . S
C786 O802 1.257 . S
C786 O803 1.260 . S
Eu787 C786 2.835 . S
Eu787 O799 2.355 . S
Eu787 O801 2.374 . S
Eu787 O802 2.473 . S
Eu787 O803 2.480 . S
Eu787 O804 2.430 . S
Eu787 O805 2.670 . S
Eu787 O806 2.394 . S
C788 C786 1.500 . S
C788 C789 1.377 . S
C788 C793 1.377 . S
C789 C788 1.377 . S
C789 C790 1.395 . S
C789 H812 0.931 . S
C790 C789 1.395 . S
C790 C791 1.383 . S
C790 H813 0.931 . S
C791 C790 1.383 . S
C791 C792 1.394 . S
C792 C791 1.394 . S
C792 C793 1.378 . S
C792 H814 0.931 . S
C793 C788 1.377 . S
C793 C792 1.378 . S
C793 H815 0.931 . S
C794 O804 1.259 . S
C794 O805 1.270 . S
C795 O806 1.251 . S
C795 O807 1.251 . S
O796 C776 1.257 . S
O796 Eu777 2.473 . S
O797 C776 1.260 . S
O797 Eu777 2.480 . S
O798 Eu777 2.430 . S
O798 C784 1.259 . S
O799 Eu777 2.670 . S
O799 C784 1.270 . S
O799 Eu787 2.355 . S
O800 Eu777 2.394 . S
O800 C785 1.251 . S
O801 C785 1.251 . S
O801 Eu787 2.374 . S
O802 C786 1.257 . S
O802 Eu787 2.473 . S
O803 C786 1.260 . S
O803 Eu787 2.480 . S
O804 Eu787 2.430 . S
O804 C794 1.259 . S
O805 Eu777 2.355 . S
O805 Eu787 2.670 . S
O805 C794 1.270 . S
O806 Eu787 2.394 . S
O806 C795 1.251 . S
O807 Eu777 2.374 . S
O807 C795 1.251 . S
H808 C779 0.931 . S
H809 C780 0.931 . S
H810 C782 0.931 . S
H811 C783 0.931 . S
H812 C789 0.931 . S
H813 C790 0.931 . S
H814 C792 0.931 . S
H815 C793 0.931 . S
C816 Eu817 2.835 1_554 S
C816 C818 1.500 . S
C816 O836 1.257 1_554 S
C816 O837 1.260 1_554 S
Eu817 C816 2.835 1_556 S
Eu817 O836 2.473 . S
Eu817 O837 2.480 . S
Eu817 O838 2.430 . S
Eu817 O839 2.670 . S
Eu817 O840 2.394 . S
Eu817 O845 2.355 . S
Eu817 O847 2.374 . S
C818 C816 1.500 . S
C818 C819 1.377 . S
C818 C823 1.377 . S
C819 C818 1.377 . S
C819 C820 1.395 . S
C819 H848 0.931 . S
C820 C819 1.395 . S
C820 C821 1.383 . S
C820 H849 0.931 . S
C821 C820 1.383 . S
C821 C822 1.394 . S
C822 C821 1.394 . S
C822 C823 1.378 . S
C822 H850 0.931 . S
C823 C818 1.377 . S
C823 C822 1.378 . S
C823 H851 0.931 . S
C824 O838 1.259 . S
C824 O839 1.270 . S
C825 O840 1.251 . S
C825 O841 1.251 . S
C826 Eu827 2.835 . S
C826 C828 1.500 . S
C826 O842 1.257 . S
C826 O843 1.260 . S
Eu827 C826 2.835 . S
Eu827 O839 2.355 . S
Eu827 O841 2.374 . S
Eu827 O842 2.473 . S
Eu827 O843 2.480 . S
Eu827 O844 2.430 . S
Eu827 O845 2.670 . S
Eu827 O846 2.394 . S
C828 C826 1.500 . S
C828 C829 1.377 . S
C828 C833 1.377 . S
C829 C828 1.377 . S
C829 C830 1.395 . S
C829 H852 0.931 . S
C830 C829 1.395 . S
C830 C831 1.383 . S
C830 H853 0.931 . S
C831 C830 1.383 . S
C831 C832 1.394 . S
C832 C831 1.394 . S
C832 C833 1.378 . S
C832 H854 0.931 . S
C833 C828 1.377 . S
C833 C832 1.378 . S
C833 H855 0.931 . S
C834 O844 1.259 . S
C834 O845 1.270 . S
C835 O846 1.251 . S
C835 O847 1.251 . S
O836 C816 1.257 1_556 S
O836 Eu817 2.473 . S
O837 C816 1.260 1_556 S
O837 Eu817 2.480 . S
O838 Eu817 2.430 . S
O838 C824 1.259 . S
O839 Eu817 2.670 . S
O839 C824 1.270 . S
O839 Eu827 2.355 . S
O840 Eu817 2.394 . S
O840 C825 1.251 . S
O841 C825 1.251 . S
O841 Eu827 2.374 . S
O842 C826 1.257 . S
O842 Eu827 2.473 . S
O843 C826 1.260 . S
O843 Eu827 2.480 . S
O844 Eu827 2.430 . S
O844 C834 1.259 . S
O845 Eu817 2.355 . S
O845 Eu827 2.670 . S
O845 C834 1.270 . S
O846 Eu827 2.394 . S
O846 C835 1.251 . S
O847 Eu817 2.374 . S
O847 C835 1.251 . S
H848 C819 0.931 . S
H849 C820 0.931 . S
H850 C822 0.931 . S
H851 C823 0.931 . S
H852 C829 0.931 . S
H853 C830 0.931 . S
H854 C832 0.931 . S
H855 C833 0.931 . S
C856 Eu857 2.835 . S
C856 C858 1.500 . S
C856 O876 1.257 . S
C856 O877 1.260 . S
Eu857 C856 2.835 . S
Eu857 O876 2.473 . S
Eu857 O877 2.480 . S
Eu857 O878 2.430 . S
Eu857 O879 2.670 . S
Eu857 O880 2.394 . S
Eu857 O885 2.355 . S
Eu857 O887 2.374 . S
C858 C856 1.500 . S
C858 C859 1.377 . S
C858 C863 1.377 . S
C859 C858 1.377 . S
C859 C860 1.395 1_655 S
C859 H888 0.931 . S
C860 C859 1.395 1_455 S
C860 C861 1.383 . S
C860 H889 0.931 . S
C861 C860 1.383 . S
C861 C862 1.394 1_455 S
C862 C861 1.394 1_655 S
C862 C863 1.378 . S
C862 H890 0.931 . S
C863 C858 1.377 . S
C863 C862 1.378 . S
C863 H891 0.931 . S
C864 O878 1.259 . S
C864 O879 1.270 . S
C865 O880 1.251 . S
C865 O881 1.251 . S
C866 Eu867 2.835 . S
C866 C868 1.500 . S
C866 O882 1.257 . S
C866 O883 1.260 . S
Eu867 C866 2.835 . S
Eu867 O879 2.355 . S
Eu867 O881 2.374 . S
Eu867 O882 2.473 . S
Eu867 O883 2.480 . S
Eu867 O884 2.430 . S
Eu867 O885 2.670 . S
Eu867 O886 2.394 . S
C868 C866 1.500 . S
C868 C869 1.377 . S
C868 C873 1.377 . S
C869 C868 1.377 . S
C869 C870 1.395 . S
C869 H892 0.931 . S
C870 C869 1.395 . S
C870 C871 1.383 . S
C870 H893 0.931 . S
C871 C870 1.383 . S
C871 C872 1.394 . S
C872 C871 1.394 . S
C872 C873 1.378 . S
C872 H894 0.931 . S
C873 C868 1.377 . S
C873 C872 1.378 . S
C873 H895 0.931 . S
C874 O884 1.259 . S
C874 O885 1.270 . S
C875 O886 1.251 . S
C875 O887 1.251 . S
O876 C856 1.257 . S
O876 Eu857 2.473 . S
O877 C856 1.260 . S
O877 Eu857 2.480 . S
O878 Eu857 2.430 . S
O878 C864 1.259 . S
O879 Eu857 2.670 . S
O879 C864 1.270 . S
O879 Eu867 2.355 . S
O880 Eu857 2.394 . S
O880 C865 1.251 . S
O881 C865 1.251 . S
O881 Eu867 2.374 . S
O882 C866 1.257 . S
O882 Eu867 2.473 . S
O883 C866 1.260 . S
O883 Eu867 2.480 . S
O884 Eu867 2.430 . S
O884 C874 1.259 . S
O885 Eu857 2.355 . S
O885 Eu867 2.670 . S
O885 C874 1.270 . S
O886 Eu867 2.394 . S
O886 C875 1.251 . S
O887 Eu857 2.374 . S
O887 C875 1.251 . S
H888 C859 0.931 . S
H889 C860 0.931 . S
H890 C862 0.931 . S
H891 C863 0.931 . S
H892 C869 0.931 . S
H893 C870 0.931 . S
H894 C872 0.931 . S
H895 C873 0.931 . S
C896 Eu897 2.835 . S
C896 C898 1.500 . S
C896 O916 1.257 . S
C896 O917 1.260 . S
Eu897 C896 2.835 . S
Eu897 O916 2.473 . S
Eu897 O917 2.480 . S
Eu897 O918 2.430 . S
Eu897 O919 2.670 . S
Eu897 O920 2.394 . S
Eu897 O925 2.355 . S
Eu897 O927 2.374 . S
C898 C896 1.500 . S
C898 C899 1.377 . S
C898 C903 1.377 . S
C899 C898 1.377 . S
C899 C900 1.395 . S
C899 H928 0.931 . S
C900 C899 1.395 . S
C900 C901 1.383 . S
C900 H929 0.931 . S
C901 C900 1.383 . S
C901 C902 1.394 . S
C902 C901 1.394 . S
C902 C903 1.378 . S
C902 H930 0.931 . S
C903 C898 1.377 . S
C903 C902 1.378 . S
C903 H931 0.931 . S
C904 O918 1.259 . S
C904 O919 1.270 . S
C905 O920 1.251 . S
C905 O921 1.251 . S
C906 Eu907 2.835 . S
C906 C908 1.500 . S
C906 O922 1.257 . S
C906 O923 1.260 . S
Eu907 C906 2.835 . S
Eu907 O919 2.355 . S
Eu907 O921 2.374 . S
Eu907 O922 2.473 . S
Eu907 O923 2.480 . S
Eu907 O924 2.430 . S
Eu907 O925 2.670 . S
Eu907 O926 2.394 . S
C908 C906 1.500 . S
C908 C909 1.377 . S
C908 C913 1.377 . S
C909 C908 1.377 . S
C909 C910 1.395 . S
C909 H932 0.931 . S
C910 C909 1.395 . S
C910 C911 1.383 . S
C910 H933 0.931 . S
C911 C910 1.383 . S
C911 C912 1.394 . S
C912 C911 1.394 . S
C912 C913 1.378 . S
C912 H934 0.931 . S
C913 C908 1.377 . S
C913 C912 1.378 . S
C913 H935 0.931 . S
C914 O924 1.259 . S
C914 O925 1.270 . S
C915 O926 1.251 . S
C915 O927 1.251 . S
O916 C896 1.257 . S
O916 Eu897 2.473 . S
O917 C896 1.260 . S
O917 Eu897 2.480 . S
O918 Eu897 2.430 . S
O918 C904 1.259 . S
O919 Eu897 2.670 . S
O919 C904 1.270 . S
O919 Eu907 2.355 . S
O920 Eu897 2.394 . S
O920 C905 1.251 . S
O921 C905 1.251 . S
O921 Eu907 2.374 . S
O922 C906 1.257 . S
O922 Eu907 2.473 . S
O923 C906 1.260 . S
O923 Eu907 2.480 . S
O924 Eu907 2.430 . S
O924 C914 1.259 . S
O925 Eu897 2.355 . S
O925 Eu907 2.670 . S
O925 C914 1.270 . S
O926 Eu907 2.394 . S
O926 C915 1.251 . S
O927 Eu897 2.374 . S
O927 C915 1.251 . S
H928 C899 0.931 . S
H929 C900 0.931 . S
H930 C902 0.931 . S
H931 C903 0.931 . S
H932 C909 0.931 . S
H933 C910 0.931 . S
H934 C912 0.931 . S
H935 C913 0.931 . S
C936 Eu937 2.835 1_655 S
C936 C938 1.500 . S
C936 O956 1.257 . S
C936 O957 1.260 . S
Eu937 C936 2.835 1_455 S
Eu937 O956 2.473 1_455 S
Eu937 O957 2.480 1_455 S
Eu937 O958 2.430 . S
Eu937 O959 2.670 . S
Eu937 O960 2.394 . S
Eu937 O965 2.355 . S
Eu937 O967 2.374 . S
C938 C936 1.500 . S
C938 C939 1.377 . S
C938 C943 1.377 . S
C939 C938 1.377 . S
C939 C940 1.395 . S
C939 H968 0.931 . S
C940 C939 1.395 . S
C940 C941 1.383 . S
C940 H969 0.931 . S
C941 C940 1.383 . S
C941 C942 1.394 . S
C942 C941 1.394 . S
C942 C943 1.378 . S
C942 H970 0.931 . S
C943 C938 1.377 . S
C943 C942 1.378 . S
C943 H971 0.931 . S
C944 O958 1.259 . S
C944 O959 1.270 . S
C945 O960 1.251 . S
C945 O961 1.251 . S
C946 Eu947 2.835 . S
C946 C948 1.500 . S
C946 O962 1.257 . S
C946 O963 1.260 . S
Eu947 C946 2.835 . S
Eu947 O959 2.355 . S
Eu947 O961 2.374 . S
Eu947 O962 2.473 . S
Eu947 O963 2.480 . S
Eu947 O964 2.430 1_554 S
Eu947 O965 2.670 . S
Eu947 O966 2.394 . S
C948 C946 1.500 . S
C948 C949 1.377 1_554 S
C948 C953 1.377 . S
C949 C948 1.377 1_556 S
C949 C950 1.395 . S
C949 H972 0.931 . S
C950 C949 1.395 . S
C950 C951 1.383 1_556 S
C950 H973 0.931 . S
C951 C950 1.383 1_554 S
C951 C952 1.394 . S
C952 C951 1.394 . S
C952 C953 1.378 . S
C952 H974 0.931 . S
C953 C948 1.377 . S
C953 C952 1.378 . S
C953 H975 0.931 . S
C954 O964 1.259 1_554 S
C954 O965 1.270 . S
C955 O966 1.251 . S
C955 O967 1.251 . S
O956 C936 1.257 . S
O956 Eu937 2.473 1_655 S
O957 C936 1.260 . S
O957 Eu937 2.480 1_655 S
O958 Eu937 2.430 . S
O958 C944 1.259 . S
O959 Eu937 2.670 . S
O959 C944 1.270 . S
O959 Eu947 2.355 . S
O960 Eu937 2.394 . S
O960 C945 1.251 . S
O961 C945 1.251 . S
O961 Eu947 2.374 . S
O962 C946 1.257 . S
O962 Eu947 2.473 . S
O963 C946 1.260 . S
O963 Eu947 2.480 . S
O964 Eu947 2.430 1_556 S
O964 C954 1.259 1_556 S
O965 Eu937 2.355 . S
O965 Eu947 2.670 . S
O965 C954 1.270 . S
O966 Eu947 2.394 . S
O966 C955 1.251 . S
O967 Eu937 2.374 . S
O967 C955 1.251 . S
H968 C939 0.931 . S
H969 C940 0.931 . S
H970 C942 0.931 . S
H971 C943 0.931 . S
H972 C949 0.931 . S
H973 C950 0.931 . S
H974 C952 0.931 . S
H975 C953 0.931 . S
C109 C355 3.267 1_655 S
C61 C384 3.112 . S
C74 C435 2.015 . S
C461 C96 3.417 . S
C25 C501 2.436 1_655 S
C551 C40 3.986 1_554 S
C594 C46 2.830 . S
C5 C631 3.941 . S
C344 C229 3.014 1_455 S
C249 C381 2.784 . S
C424 C271 2.879 1_545 S
C475 C172 2.297 1_556 S
C236 C515 2.663 1_655 S
C554 C242 2.915 . S
C585 C278 3.108 1_554 S
C634 C179 3.337 . S
C341 C159 4.124 . S
C285 C664 2.917 . S
C705 C333 3.340 . S
C751 C320 2.816 . S
C123 C625 3.717 . S
C138 C421 3.472 . S
C326 C784 3.314 . S
C835 C298 2.509 . S
C345 C67 2.891 . S
C834 C110 3.083 . S
C88 C425 1.697 . S
C75 C791 3.521 . S
C511 C11 2.153 . S
C47 C701 2.463 . S
C584 C32 2.369 1_565 S
C861 C26 5.023 1_455 S
C354 C152 3.930 1_554 S
C831 C319 2.739 . S
C124 C434 3.010 . S
C284 C785 2.311 . S
C145 C505 2.566 1_565 S
C704 C312 2.399 . S
C117 C595 2.270 . S
C291 C864 3.085 1_554 S
C194 C351 5.667 . S
C180 C674 3.052 . S
C263 C555 3.018 . S
C243 C741 2.911 . S
C875 C277 3.587 . S
C215 C431 3.477 . S
C474 C256 2.808 . S
C385 C200 3.023 . S
C81 C915 3.117 . S
C824 C89 3.180 . S
C102 C955 2.028 . S
C68 C781 3.319 1_455 S
C53 C661 2.637 . S
C711 C12 2.134 . S
C754 C18 2.359 1_455 S
C871 C33 3.179 . S
C904 C257 2.976 . S
C193 C821 3.285 . S
C944 C201 3.030 . S
C795 C214 2.272 . S
C675 C264 2.507 . S
C186 C714 2.126 . S
C745 C208 2.874 . S
C221 C874 3.226 . S
C901 C313 4.740 . S
C131 C504 3.128 . S
C545 C151 3.367 . S
C591 C166 0.877 . S
C865 C305 3.742 . S
C292 C941 3.184 . S
C464 C144 3.359 . S
C395 C116 2.601 . S
C95 C905 3.110 . S
C394 C82 3.072 . S
C60 C945 1.824 . S
C103 C471 3.412 . S
C39 C671 1.428 . S
C541 C19 1.200 . S
C4 C744 2.543 . S
C54 C621 5.117 . S
C914 C334 4.128 . S
C165 C391 3.106 . S
C954 C306 3.201 1_454 S
C130 C465 2.309 . S
C327 C665 2.746 . S
C544 C158 1.078 . S
C299 C755 1.972 1_655 S
C624 C137 3.208 . S
C911 C250 5.940 . S
C514 C222 2.896 1_545 S
C235 C715 3.200 . S
C581 C187 1.123 . S
C207 C635 3.716 . S
C173 C951 3.499 . S
C794 C228 2.792 . S
C825 C270 2.955 . S
