# Generated by pormake.
# Topology iac, (4,6)-cn, num edge types: 1
# Building blocks:
#     Node 0, Type 0, BuildingBlock: AZAVOO_clean_sbu_0, # of connection points: 4
#     Node 1, Type 0, BuildingBlock: AZAVOO_clean_sbu_0, # of connection points: 4
#     Node 2, Type 0, BuildingBlock: AZAVOO_clean_sbu_0, # of connection points: 4
#     Node 3, Type 0, BuildingBlock: AZAVOO_clean_sbu_0, # of connection points: 4
#     Node 4, Type 0, BuildingBlock: AZAVOO_clean_sbu_0, # of connection points: 4
#     Node 5, Type 0, BuildingBlock: AZAVOO_clean_sbu_0, # of connection points: 4
#     Node 6, Type 0, BuildingBlock: AZAVOO_clean_sbu_0, # of connection points: 4
#     Node 7, Type 0, BuildingBlock: AZAVOO_clean_sbu_0, # of connection points: 4
#     Node 8, Type 0, BuildingBlock: AZAVOO_clean_sbu_0, # of connection points: 4
#     Node 9, Type 0, BuildingBlock: AZAVOO_clean_sbu_0, # of connection points: 4
#     Node 10, Type 0, BuildingBlock: AZAVOO_clean_sbu_0, # of connection points: 4
#     Node 11, Type 0, BuildingBlock: AZAVOO_clean_sbu_0, # of connection points: 4
#     Node 12, Type 0, BuildingBlock: AZAVOO_clean_sbu_0, # of connection points: 4
#     Node 13, Type 0, BuildingBlock: AZAVOO_clean_sbu_0, # of connection points: 4
#     Node 14, Type 0, BuildingBlock: AZAVOO_clean_sbu_0, # of connection points: 4
#     Node 15, Type 0, BuildingBlock: AZAVOO_clean_sbu_0, # of connection points: 4
#     Node 16, Type 0, BuildingBlock: AZAVOO_clean_sbu_0, # of connection points: 4
#     Node 17, Type 0, BuildingBlock: AZAVOO_clean_sbu_0, # of connection points: 4
#     Node 18, Type 0, BuildingBlock: AZAVOO_clean_sbu_0, # of connection points: 4
#     Node 19, Type 0, BuildingBlock: AZAVOO_clean_sbu_0, # of connection points: 4
#     Node 20, Type 0, BuildingBlock: AZAVOO_clean_sbu_0, # of connection points: 4
#     Node 21, Type 0, BuildingBlock: AZAVOO_clean_sbu_0, # of connection points: 4
#     Node 22, Type 0, BuildingBlock: AZAVOO_clean_sbu_0, # of connection points: 4
#     Node 23, Type 0, BuildingBlock: AZAVOO_clean_sbu_0, # of connection points: 4
#     Node 24, Type 1, BuildingBlock: CIFDUS_clean_sbu_1, # of connection points: 6
#     Node 25, Type 1, BuildingBlock: CIFDUS_clean_sbu_1, # of connection points: 6
#     Node 26, Type 1, BuildingBlock: CIFDUS_clean_sbu_1, # of connection points: 6
#     Node 27, Type 1, BuildingBlock: CIFDUS_clean_sbu_1, # of connection points: 6
#     Node 28, Type 1, BuildingBlock: CIFDUS_clean_sbu_1, # of connection points: 6
#     Node 29, Type 1, BuildingBlock: CIFDUS_clean_sbu_1, # of connection points: 6
#     Node 30, Type 1, BuildingBlock: CIFDUS_clean_sbu_1, # of connection points: 6
#     Node 31, Type 1, BuildingBlock: CIFDUS_clean_sbu_1, # of connection points: 6
#     Node 32, Type 1, BuildingBlock: CIFDUS_clean_sbu_1, # of connection points: 6
#     Node 33, Type 1, BuildingBlock: CIFDUS_clean_sbu_1, # of connection points: 6
#     Node 34, Type 1, BuildingBlock: CIFDUS_clean_sbu_1, # of connection points: 6
#     Node 35, Type 1, BuildingBlock: CIFDUS_clean_sbu_1, # of connection points: 6
#     Node 36, Type 1, BuildingBlock: CIFDUS_clean_sbu_1, # of connection points: 6
#     Node 37, Type 1, BuildingBlock: CIFDUS_clean_sbu_1, # of connection points: 6
#     Node 38, Type 1, BuildingBlock: CIFDUS_clean_sbu_1, # of connection points: 6
#     Node 39, Type 1, BuildingBlock: CIFDUS_clean_sbu_1, # of connection points: 6
#     Edge 40, Type (0, 1), BuildingBlock: AJUNOK_clean_linker_0, # of connection points: 2
#     Edge 41, Type (0, 1), BuildingBlock: AJUNOK_clean_linker_0, # of connection points: 2
#     Edge 42, Type (0, 1), BuildingBlock: AJUNOK_clean_linker_0, # of connection points: 2
#     Edge 43, Type (0, 1), BuildingBlock: AJUNOK_clean_linker_0, # of connection points: 2
#     Edge 44, Type (0, 1), BuildingBlock: AJUNOK_clean_linker_0, # of connection points: 2
#     Edge 45, Type (0, 1), BuildingBlock: AJUNOK_clean_linker_0, # of connection points: 2
#     Edge 46, Type (0, 1), BuildingBlock: AJUNOK_clean_linker_0, # of connection points: 2
#     Edge 47, Type (0, 1), BuildingBlock: AJUNOK_clean_linker_0, # of connection points: 2
#     Edge 48, Type (0, 1), BuildingBlock: AJUNOK_clean_linker_0, # of connection points: 2
#     Edge 49, Type (0, 1), BuildingBlock: AJUNOK_clean_linker_0, # of connection points: 2
#     Edge 50, Type (0, 1), BuildingBlock: AJUNOK_clean_linker_0, # of connection points: 2
#     Edge 51, Type (0, 1), BuildingBlock: AJUNOK_clean_linker_0, # of connection points: 2
#     Edge 52, Type (0, 1), BuildingBlock: AJUNOK_clean_linker_0, # of connection points: 2
#     Edge 53, Type (0, 1), BuildingBlock: AJUNOK_clean_linker_0, # of connection points: 2
#     Edge 54, Type (0, 1), BuildingBlock: AJUNOK_clean_linker_0, # of connection points: 2
#     Edge 55, Type (0, 1), BuildingBlock: AJUNOK_clean_linker_0, # of connection points: 2
#     Edge 56, Type (0, 1), BuildingBlock: AJUNOK_clean_linker_0, # of connection points: 2
#     Edge 57, Type (0, 1), BuildingBlock: AJUNOK_clean_linker_0, # of connection points: 2
#     Edge 58, Type (0, 1), BuildingBlock: AJUNOK_clean_linker_0, # of connection points: 2
#     Edge 59, Type (0, 1), BuildingBlock: AJUNOK_clean_linker_0, # of connection points: 2
#     Edge 60, Type (0, 1), BuildingBlock: AJUNOK_clean_linker_0, # of connection points: 2
#     Edge 61, Type (0, 1), BuildingBlock: AJUNOK_clean_linker_0, # of connection points: 2
#     Edge 62, Type (0, 1), BuildingBlock: AJUNOK_clean_linker_0, # of connection points: 2
#     Edge 63, Type (0, 1), BuildingBlock: AJUNOK_clean_linker_0, # of connection points: 2
#     Edge 64, Type (0, 1), BuildingBlock: AJUNOK_clean_linker_0, # of connection points: 2
#     Edge 65, Type (0, 1), BuildingBlock: AJUNOK_clean_linker_0, # of connection points: 2
#     Edge 66, Type (0, 1), BuildingBlock: AJUNOK_clean_linker_0, # of connection points: 2
#     Edge 67, Type (0, 1), BuildingBlock: AJUNOK_clean_linker_0, # of connection points: 2
#     Edge 68, Type (0, 1), BuildingBlock: AJUNOK_clean_linker_0, # of connection points: 2
#     Edge 69, Type (0, 1), BuildingBlock: AJUNOK_clean_linker_0, # of connection points: 2
#     Edge 70, Type (0, 1), BuildingBlock: AJUNOK_clean_linker_0, # of connection points: 2
#     Edge 71, Type (0, 1), BuildingBlock: AJUNOK_clean_linker_0, # of connection points: 2
#     Edge 72, Type (0, 1), BuildingBlock: AJUNOK_clean_linker_0, # of connection points: 2
#     Edge 73, Type (0, 1), BuildingBlock: AJUNOK_clean_linker_0, # of connection points: 2
#     Edge 74, Type (0, 1), BuildingBlock: AJUNOK_clean_linker_0, # of connection points: 2
#     Edge 75, Type (0, 1), BuildingBlock: AJUNOK_clean_linker_0, # of connection points: 2
#     Edge 76, Type (0, 1), BuildingBlock: AJUNOK_clean_linker_0, # of connection points: 2
#     Edge 77, Type (0, 1), BuildingBlock: AJUNOK_clean_linker_0, # of connection points: 2
#     Edge 78, Type (0, 1), BuildingBlock: AJUNOK_clean_linker_0, # of connection points: 2
#     Edge 79, Type (0, 1), BuildingBlock: AJUNOK_clean_linker_0, # of connection points: 2
#     Edge 80, Type (0, 1), BuildingBlock: AJUNOK_clean_linker_0, # of connection points: 2
#     Edge 81, Type (0, 1), BuildingBlock: AJUNOK_clean_linker_0, # of connection points: 2
#     Edge 82, Type (0, 1), BuildingBlock: AJUNOK_clean_linker_0, # of connection points: 2
#     Edge 83, Type (0, 1), BuildingBlock: AJUNOK_clean_linker_0, # of connection points: 2
#     Edge 84, Type (0, 1), BuildingBlock: AJUNOK_clean_linker_0, # of connection points: 2
#     Edge 85, Type (0, 1), BuildingBlock: AJUNOK_clean_linker_0, # of connection points: 2
#     Edge 86, Type (0, 1), BuildingBlock: AJUNOK_clean_linker_0, # of connection points: 2
#     Edge 87, Type (0, 1), BuildingBlock: AJUNOK_clean_linker_0, # of connection points: 2
#     Edge 88, Type (0, 1), BuildingBlock: AJUNOK_clean_linker_0, # of connection points: 2
#     Edge 89, Type (0, 1), BuildingBlock: AJUNOK_clean_linker_0, # of connection points: 2
#     Edge 90, Type (0, 1), BuildingBlock: AJUNOK_clean_linker_0, # of connection points: 2
#     Edge 91, Type (0, 1), BuildingBlock: AJUNOK_clean_linker_0, # of connection points: 2
#     Edge 92, Type (0, 1), BuildingBlock: AJUNOK_clean_linker_0, # of connection points: 2
#     Edge 93, Type (0, 1), BuildingBlock: AJUNOK_clean_linker_0, # of connection points: 2
#     Edge 94, Type (0, 1), BuildingBlock: AJUNOK_clean_linker_0, # of connection points: 2
#     Edge 95, Type (0, 1), BuildingBlock: AJUNOK_clean_linker_0, # of connection points: 2
#     Edge 96, Type (0, 1), BuildingBlock: AJUNOK_clean_linker_0, # of connection points: 2
#     Edge 97, Type (0, 1), BuildingBlock: AJUNOK_clean_linker_0, # of connection points: 2
#     Edge 98, Type (0, 1), BuildingBlock: AJUNOK_clean_linker_0, # of connection points: 2
#     Edge 99, Type (0, 1), BuildingBlock: AJUNOK_clean_linker_0, # of connection points: 2
#     Edge 100, Type (0, 1), BuildingBlock: AJUNOK_clean_linker_0, # of connection points: 2
#     Edge 101, Type (0, 1), BuildingBlock: AJUNOK_clean_linker_0, # of connection points: 2
#     Edge 102, Type (0, 1), BuildingBlock: AJUNOK_clean_linker_0, # of connection points: 2
#     Edge 103, Type (0, 1), BuildingBlock: AJUNOK_clean_linker_0, # of connection points: 2
#     Edge 104, Type (0, 1), BuildingBlock: AJUNOK_clean_linker_0, # of connection points: 2
#     Edge 105, Type (0, 1), BuildingBlock: AJUNOK_clean_linker_0, # of connection points: 2
#     Edge 106, Type (0, 1), BuildingBlock: AJUNOK_clean_linker_0, # of connection points: 2
#     Edge 107, Type (0, 1), BuildingBlock: AJUNOK_clean_linker_0, # of connection points: 2
#     Edge 108, Type (0, 1), BuildingBlock: AJUNOK_clean_linker_0, # of connection points: 2
#     Edge 109, Type (0, 1), BuildingBlock: AJUNOK_clean_linker_0, # of connection points: 2
#     Edge 110, Type (0, 1), BuildingBlock: AJUNOK_clean_linker_0, # of connection points: 2
#     Edge 111, Type (0, 1), BuildingBlock: AJUNOK_clean_linker_0, # of connection points: 2
#     Edge 112, Type (0, 1), BuildingBlock: AJUNOK_clean_linker_0, # of connection points: 2
#     Edge 113, Type (0, 1), BuildingBlock: AJUNOK_clean_linker_0, # of connection points: 2
#     Edge 114, Type (0, 1), BuildingBlock: AJUNOK_clean_linker_0, # of connection points: 2
#     Edge 115, Type (0, 1), BuildingBlock: AJUNOK_clean_linker_0, # of connection points: 2
#     Edge 116, Type (0, 1), BuildingBlock: AJUNOK_clean_linker_0, # of connection points: 2
#     Edge 117, Type (0, 1), BuildingBlock: AJUNOK_clean_linker_0, # of connection points: 2
#     Edge 118, Type (0, 1), BuildingBlock: AJUNOK_clean_linker_0, # of connection points: 2
#     Edge 119, Type (0, 1), BuildingBlock: AJUNOK_clean_linker_0, # of connection points: 2
#     Edge 120, Type (0, 1), BuildingBlock: AJUNOK_clean_linker_0, # of connection points: 2
#     Edge 121, Type (0, 1), BuildingBlock: AJUNOK_clean_linker_0, # of connection points: 2
#     Edge 122, Type (0, 1), BuildingBlock: AJUNOK_clean_linker_0, # of connection points: 2
#     Edge 123, Type (0, 1), BuildingBlock: AJUNOK_clean_linker_0, # of connection points: 2
#     Edge 124, Type (0, 1), BuildingBlock: AJUNOK_clean_linker_0, # of connection points: 2
#     Edge 125, Type (0, 1), BuildingBlock: AJUNOK_clean_linker_0, # of connection points: 2
#     Edge 126, Type (0, 1), BuildingBlock: AJUNOK_clean_linker_0, # of connection points: 2
#     Edge 127, Type (0, 1), BuildingBlock: AJUNOK_clean_linker_0, # of connection points: 2
#     Edge 128, Type (0, 1), BuildingBlock: AJUNOK_clean_linker_0, # of connection points: 2
#     Edge 129, Type (0, 1), BuildingBlock: AJUNOK_clean_linker_0, # of connection points: 2
#     Edge 130, Type (0, 1), BuildingBlock: AJUNOK_clean_linker_0, # of connection points: 2
#     Edge 131, Type (0, 1), BuildingBlock: AJUNOK_clean_linker_0, # of connection points: 2
#     Edge 132, Type (0, 1), BuildingBlock: AJUNOK_clean_linker_0, # of connection points: 2
#     Edge 133, Type (0, 1), BuildingBlock: AJUNOK_clean_linker_0, # of connection points: 2
#     Edge 134, Type (0, 1), BuildingBlock: AJUNOK_clean_linker_0, # of connection points: 2
#     Edge 135, Type (0, 1), BuildingBlock: AJUNOK_clean_linker_0, # of connection points: 2
# Relax obj value: 0.130
# Max RMSD: 0.178
# Mean RMSD: 0.151
data_MOF--net-iac--node1-AZAVOO_clean_sbu_0--node2-CIFDUS_clean_sbu_1--edge1-AJUNOK_clean_linker_0
_symmetry_space_group_name_H-M    P1
_symmetry_Int_Tables_number       1
_symmetry_cell_setting            triclinic
loop_
_symmetry_equiv_pos_as_xyz
'x, y, z'
_cell_length_a     41.690615
_cell_length_b     39.537765
_cell_length_c     40.659968
_cell_angle_alpha  92.522319
_cell_angle_beta   89.618922
_cell_angle_gamma 90.944086
loop_
_atom_site_label
_atom_site_type_symbol
_atom_site_fract_x
_atom_site_fract_y
_atom_site_fract_z
_atom_type_partial_charge
Mg0 Mg -0.00559 0.25924 0.14298 0.0
O1 O -0.00065 0.21124 0.10872 0.0
O2 O 0.95681 0.21069 0.0758 0.0
Mg3 Mg 0.92211 0.2527 0.09314 0.0
C4 C 0.98341 0.19833 0.08449 0.0
C5 C 0.05664 0.25286 0.18463 0.0
O6 O 0.0358 0.24985 0.20873 0.0
O7 O 0.00462 0.29505 0.1018 0.0
O8 O 0.95698 0.29359 0.07672 0.0
O9 O 0.96836 0.2302 0.18035 0.0
O10 O 0.94479 0.25851 0.14161 0.0
C11 C 0.9852 0.30605 0.08072 0.0
C12 C 0.94236 0.24018 0.16674 0.0
O13 O 0.04667 0.25566 0.15543 0.0
Mg14 Mg -0.00573 0.73381 0.35196 0.0
O15 O -0.00703 0.7829 0.38447 0.0
O16 O 0.94738 0.77889 0.41345 0.0
Mg17 Mg 0.92051 0.72975 0.40094 0.0
C18 C 0.97286 0.79501 0.40556 0.0
C19 C 0.05667 0.7467 0.31079 0.0
O20 O 0.03581 0.751 0.28734 0.0
O21 O 0.00708 0.70264 0.39517 0.0
O22 O 0.96063 0.69806 0.42214 0.0
O23 O 0.96807 0.76014 0.31409 0.0
O24 O 0.94481 0.73096 0.35312 0.0
C25 C -0.00977 0.69084 0.41842 0.0
C26 C 0.94211 0.75107 0.32929 0.0
O27 O 0.0468 0.7412 0.33975 0.0
Mg28 Mg 0.49583 0.75946 0.64056 0.0
O29 O 0.49598 0.70795 0.61076 0.0
O30 O 0.45053 0.70809 0.58206 0.0
Mg31 Mg 0.42041 0.75506 0.59503 0.0
C32 C 0.47657 0.694 0.58995 0.0
C33 C 0.55464 0.7594 0.68367 0.0
O34 O 0.53135 0.76888 0.70374 0.0
O35 O 0.50603 0.79004 0.59564 0.0
O36 O 0.4567 0.79318 0.57487 0.0
O37 O 0.46979 0.73796 0.68285 0.0
O38 O 0.44596 0.76165 0.64174 0.0
C39 C 0.48598 0.80308 0.57638 0.0
C40 C 0.44358 0.74783 0.66962 0.0
O41 O 0.54823 0.75362 0.65336 0.0
Mg42 Mg 0.49528 0.2312 0.85494 0.0
O43 O 0.49628 0.28265 0.88307 0.0
O44 O 0.45162 0.28268 0.9139 0.0
Mg45 Mg 0.42322 0.23322 0.90622 0.0
C46 C 0.47697 0.29736 0.90338 0.0
C47 C 0.55677 0.24698 0.81358 0.0
O48 O 0.53582 0.26044 0.79431 0.0
O49 O 0.50842 0.2038 0.89979 0.0
O50 O 0.46245 0.1992 0.92766 0.0
O51 O 0.47018 0.2549 0.81552 0.0
O52 O 0.44536 0.23083 0.8569 0.0
C53 C 0.492 0.19192 0.92322 0.0
C54 C 0.44378 0.24895 0.83132 0.0
O55 O 0.5477 0.23491 0.8406 0.0
Mg56 Mg 0.11543 0.98153 0.25689 0.0
O57 O 0.14299 0.03251 0.25083 0.0
O58 O 0.1767 0.03412 0.29336 0.0
Mg59 Mg 0.16243 -0.00509 0.33163 0.0
C60 C 0.16673 0.04593 0.26655 0.0
C61 C 0.07494 0.98776 0.19389 0.0
O62 O 0.05553 0.00123 0.2162 0.0
O63 O 0.15994 0.95173 0.24856 0.0
O64 O 0.18035 0.95012 0.29922 0.0
O65 O 0.07476 0.00628 0.2813 0.0
O66 O 0.11585 0.98621 0.30798 0.0
C67 C 0.1781 0.93857 0.26947 0.0
C68 C 0.08886 0.00133 0.30891 0.0
O69 O 0.10261 0.97851 0.20251 0.0
Mg70 Mg 0.25509 0.88604 0.50931 0.0
O71 O 0.25621 0.85356 0.46217 0.0
O72 O 0.30191 0.82481 0.46459 0.0
Mg73 Mg 0.32712 0.83528 0.51375 0.0
C74 C 0.27689 0.83357 0.44941 0.0
C75 C 0.19837 0.93008 0.50996 0.0
O76 O 0.22164 0.94799 0.52415 0.0
O77 O 0.23976 0.84222 0.5398 0.0
O78 O 0.28625 0.8165 0.54748 0.0
O79 O 0.28373 0.9241 0.48322 0.0
O80 O 0.30431 0.88461 0.51362 0.0
C81 C 0.25655 0.82068 0.5542 0.0
C82 C 0.30859 0.9086 0.49364 0.0
O83 O 0.20407 0.89996 0.49977 0.0
Mg84 Mg 0.39106 0.01253 0.75508 0.0
O85 O 0.36641 0.9616 0.75039 0.0
O86 O 0.3316 0.96159 0.7925 0.0
Mg87 Mg 0.33798 0.00863 0.82631 0.0
C88 C 0.34436 0.94763 0.76685 0.0
C89 C 0.43596 0.0081 0.69566 0.0
O90 O 0.45693 0.01677 0.71861 0.0
O91 O 0.34636 0.03924 0.74075 0.0
O92 O 0.31876 0.04401 0.7881 0.0
O93 O 0.42862 0.9888 0.78294 0.0
O94 O 0.38588 0.01478 0.80481 0.0
C95 C 0.3234 0.05143 0.7582 0.0
C96 C 0.41093 -0.00314 0.80833 0.0
O97 O 0.40656 0.00509 0.70317 0.0
Mg98 Mg 0.25469 0.10853 0.98422 0.0
O99 O 0.25426 0.13626 0.03497 0.0
O100 O 0.30122 0.16434 0.03784 0.0
Mg101 Mg 0.33183 0.1535 -0.00879 0.0
C102 C 0.27437 0.15557 0.05042 0.0
C103 C 0.18657 0.07651 -0.00134 0.0
O104 O 0.20416 0.0531 0.01128 0.0
O105 O 0.24856 0.15619 0.95735 0.0
O106 O 0.29862 0.17664 0.95298 0.0
O107 O 0.27768 0.06427 0.00649 0.0
O108 O 0.30444 0.10599 0.98364 0.0
C109 C 0.26931 0.17527 0.94394 0.0
C110 C 0.30484 0.07841 -0.00105 0.0
O111 O 0.20026 0.10194 0.98642 0.0
Mg112 Mg 0.75508 0.38701 0.01327 0.0
O113 O 0.75596 0.35667 0.96342 0.0
O114 O 0.80313 0.33053 0.96393 0.0
Mg115 Mg 0.83145 0.34186 0.01063 0.0
C116 C 0.77714 0.33769 0.94955 0.0
C117 C 0.69365 0.42691 -0.0026 0.0
O118 O 0.71501 0.44578 0.98262 0.0
O119 O 0.74421 0.33996 0.04235 0.0
O120 O 0.79298 0.31782 0.04311 0.0
O121 O 0.77971 0.42973 0.98958 0.0
O122 O 0.80501 0.38862 0.01323 0.0
C123 C 0.7637 0.31815 0.05247 0.0
C124 C 0.80629 0.41505 -0.00397 0.0
O125 O 0.70219 0.39959 0.00999 0.0
Mg126 Mg 0.89341 0.51111 0.25398 0.0
O127 O 0.86352 0.46238 0.2569 0.0
O128 O 0.84002 0.46501 0.30643 0.0
Mg129 Mg 0.85136 0.51465 0.33377 0.0
C130 C 0.8459 0.44944 0.27898 0.0
C131 C 0.93225 0.49193 0.19256 0.0
O132 O 0.95411 0.49112 0.21556 0.0
O133 O 0.84907 0.54191 0.24327 0.0
O134 O 0.82769 0.54317 0.29385 0.0
O135 O 0.93198 0.48548 0.28073 0.0
O136 O 0.89443 0.51751 0.30421 0.0
C137 C 0.82763 0.55179 0.26402 0.0
C138 C 0.91778 0.49738 0.30707 0.0
O139 O 0.90359 0.49921 0.20037 0.0
Mg140 Mg 0.75528 0.61122 0.48065 0.0
O141 O 0.7571 0.63737 0.53259 0.0
O142 O 0.80419 0.66483 0.53651 0.0
Mg143 Mg 0.83255 0.65641 0.48795 0.0
C144 C 0.7774 0.65567 0.54901 0.0
C145 C 0.69011 0.57668 0.49694 0.0
O146 O 0.71053 0.55337 0.50464 0.0
O147 O 0.74791 0.65945 0.45444 0.0
O148 O 0.79714 0.68298 0.45405 0.0
O149 O 0.78003 0.56527 0.4985 0.0
O150 O 0.80517 0.60924 0.47811 0.0
C151 C 0.76789 0.68168 0.44474 0.0
C152 C 0.80668 0.58018 0.49057 0.0
O153 O 0.70099 0.60417 0.4861 0.0
Mg154 Mg 0.61391 0.48357 0.7563 0.0
O155 O 0.64444 0.53503 0.75592 0.0
O156 O 0.67029 0.52999 0.80304 0.0
Mg157 Mg 0.65759 0.48632 0.83536 0.0
C158 C 0.6652 0.54607 0.77708 0.0
C159 C 0.57296 0.49715 0.69459 0.0
O160 O 0.55474 0.51055 0.718 0.0
O161 O 0.65747 0.45022 0.74739 0.0
O162 O 0.67845 0.44811 0.79811 0.0
O163 O 0.57195 0.50506 0.78507 0.0
O164 O 0.61403 0.48242 0.80716 0.0
C165 C 0.67697 0.43811 0.7679 0.0
C166 C 0.58658 0.49569 0.811 0.0
O167 O 0.60011 0.48532 0.70197 0.0
Mg168 Mg 0.00221 0.73542 0.85249 0.0
O169 O -0.00139 0.78389 0.88594 0.0
O170 O 0.95264 0.78291 0.91458 0.0
Mg171 Mg 0.92631 0.73319 0.89823 0.0
C172 C 0.97896 0.79745 0.90672 0.0
C173 C 0.06538 0.73129 0.81587 0.0
O174 O 0.04472 0.71451 0.79684 0.0
O175 O 0.01406 0.70337 0.89577 0.0
O176 O 0.96514 0.69772 0.91783 0.0
O177 O 0.97583 0.75846 0.81075 0.0
O178 O 0.95233 0.73159 0.85097 0.0
C179 C -0.00517 0.68998 0.91607 0.0
C180 C 0.94971 0.74765 0.82439 0.0
O181 O 0.05552 0.74465 0.84298 0.0
Mg182 Mg 0.00148 0.26312 0.63985 0.0
O183 O 0.00918 0.21095 0.61465 0.0
O184 O 0.97111 0.20894 0.57623 0.0
Mg185 Mg 0.93435 0.24976 0.58401 0.0
C186 C -0.0043 0.19675 0.58953 0.0
C187 C 0.0599 0.24942 0.68106 0.0
O188 O 0.0369 0.23579 0.69853 0.0
O189 O 0.01592 0.28884 0.59331 0.0
O190 O 0.96905 0.28981 0.56731 0.0
O191 O 0.9722 0.24128 0.68106 0.0
O192 O 0.95189 0.25845 0.63509 0.0
C193 C -0.00214 0.30019 0.57135 0.0
C194 C 0.94709 0.24574 0.66336 0.0
O195 O 0.0531 0.26439 0.65526 0.0
Mg196 Mg 0.50236 0.23423 0.35686 0.0
O197 O 0.50046 0.28387 0.3896 0.0
O198 O 0.45783 0.27949 0.42292 0.0
Mg199 Mg 0.43132 0.22986 0.41 0.0
C200 C 0.48228 0.29577 0.41265 0.0
C201 C 0.56656 0.23123 0.31753 0.0
O202 O 0.54752 0.21218 0.29862 0.0
O203 O 0.51858 0.2012 0.39926 0.0
O204 O 0.47269 0.19901 0.42753 0.0
O205 O 0.47107 0.25722 0.31802 0.0
O206 O 0.45192 0.22947 0.35961 0.0
C207 C 0.50179 0.19042 0.42311 0.0
C208 C 0.44629 0.24609 0.3338 0.0
O209 O 0.5552 0.24497 0.34385 0.0
Mg210 Mg 0.49893 0.75909 0.14107 0.0
O211 O 0.50451 0.70861 0.11453 0.0
O212 O 0.46228 0.70216 0.08103 0.0
Mg213 Mg 0.42651 0.74434 0.09287 0.0
C214 C 0.4889 0.69228 0.0922 0.0
C215 C 0.55922 0.74567 0.1778 0.0
O216 O 0.53698 0.73648 0.19866 0.0
O217 O 0.50807 0.78567 0.09395 0.0
O218 O 0.45929 0.78539 0.07154 0.0
O219 O 0.47539 0.73501 0.18377 0.0
O220 O 0.44976 0.75379 0.14107 0.0
C221 C 0.48819 0.79649 0.07336 0.0
C222 C 0.44866 0.73919 0.16875 0.0
O223 O 0.55155 0.75872 0.15119 0.0
Mg224 Mg 0.88803 0.0045 0.74858 0.0
O225 O 0.86051 0.95341 0.74821 0.0
O226 O 0.82523 0.95574 0.7895 0.0
Mg227 Mg 0.8331 0.00599 0.81857 0.0
C228 C 0.83835 0.93972 0.76521 0.0
C229 C 0.9308 -0.00708 0.68789 0.0
O230 O 0.95241 -0.00519 0.7113 0.0
O231 O 0.84649 0.0354 0.73151 0.0
O232 O 0.81906 0.04205 0.77856 0.0
O233 O 0.92663 0.98479 0.7818 0.0
O234 O 0.88267 0.01001 0.79878 0.0
C235 C 0.82491 0.04994 0.74898 0.0
C236 C 0.90937 -0.00331 0.80611 0.0
O237 O 0.90146 -0.00501 0.69543 0.0
Mg238 Mg 0.75585 0.11224 0.48427 0.0
O239 O 0.75162 0.13683 0.53596 0.0
O240 O 0.79393 0.17215 0.5408 0.0
Mg241 Mg 0.82585 0.1672 0.49488 0.0
C242 C 0.7685 0.15865 0.5524 0.0
C243 C 0.69376 0.07223 0.49982 0.0
O244 O 0.71497 0.05256 0.51266 0.0
O245 O 0.74296 0.16072 0.46044 0.0
O246 O 0.79026 0.18737 0.45747 0.0
O247 O 0.78271 0.06883 0.50383 0.0
O248 O 0.80591 0.11509 0.48606 0.0
C249 C 0.76117 0.18322 0.44837 0.0
C250 C 0.80885 0.08601 0.49884 0.0
O251 O 0.7031 0.0984 0.48545 0.0
Mg252 Mg 0.61584 0.99013 0.24992 0.0
O253 O 0.64051 0.04229 0.24641 0.0
O254 O 0.66868 0.04789 0.29282 0.0
Mg255 Mg 0.65933 0.00669 0.32746 0.0
C256 C 0.66065 0.0583 0.26496 0.0
C257 C 0.57776 -0.00052 0.18866 0.0
O258 O 0.55706 0.00607 0.21244 0.0
O259 O 0.6634 0.96325 0.24171 0.0
O260 O 0.68414 0.96968 0.29217 0.0
O261 O 0.5718 0.01055 0.27725 0.0
O262 O 0.61559 -0.00662 0.30031 0.0
C263 C 0.68462 0.95652 0.26293 0.0
C264 C 0.587 0.0041 0.3038 0.0
O265 O 0.60574 0.99026 0.19556 0.0
Mg266 Mg 0.73989 0.88346 0.02044 0.0
O267 O 0.73845 0.85034 0.9711 0.0
O268 O 0.78594 0.82531 0.96466 0.0
Mg269 Mg 0.8076 0.82712 0.01673 0.0
C270 C 0.75868 0.83344 0.95346 0.0
C271 C 0.67857 0.92645 0.02473 0.0
O272 O 0.70002 0.9472 0.03841 0.0
O273 O 0.72431 0.8429 0.05525 0.0
O274 O 0.75931 0.80613 0.03576 0.0
O275 O 0.77288 0.9217 -0.00286 0.0
O276 O 0.79075 0.87946 0.02479 0.0
C277 C 0.74072 0.81661 0.05895 0.0
C278 C 0.79708 0.90552 0.00806 0.0
O279 O 0.68749 0.89774 0.01312 0.0
Mg280 Mg 0.25532 0.61175 0.98596 0.0
O281 O 0.25274 0.63976 0.03549 0.0
O282 O 0.29659 0.67267 0.04087 0.0
Mg283 Mg 0.32917 0.66193 -0.00407 0.0
C284 C 0.26992 0.66129 0.0517 0.0
C285 C 0.19445 0.57067 0.98441 0.0
O286 O 0.21649 0.55111 0.97082 0.0
O287 O 0.24653 0.659 0.95727 0.0
O288 O 0.29512 0.68356 0.95851 0.0
O289 O 0.2805 0.56808 0.00808 0.0
O290 O 0.30537 0.61194 0.98719 0.0
C291 C 0.26663 0.68111 0.94726 0.0
C292 C 0.30716 0.58374 0.00162 0.0
O293 O 0.20188 0.60115 -0.00805 0.0
Mg294 Mg 0.11586 0.49286 0.74765 0.0
O295 O 0.13986 0.54395 0.75076 0.0
O296 O 0.17053 0.54529 0.79536 0.0
Mg297 Mg 0.16103 0.49878 0.82447 0.0
C298 C 0.1603 0.55873 0.76959 0.0
C299 C 0.08329 0.48303 0.68306 0.0
O300 O 0.07211 0.45836 0.70074 0.0
O301 O 0.1628 0.46722 0.73453 0.0
O302 O 0.18387 0.46448 0.78473 0.0
O303 O 0.07288 0.51145 0.77648 0.0
O304 O 0.11587 0.48952 0.79771 0.0
C305 C 0.18339 0.45578 0.75412 0.0
C306 C 0.08781 0.50175 0.80217 0.0
O307 O 0.10509 0.50232 0.69502 0.0
Mg308 Mg 0.24164 0.38615 0.51815 0.0
O309 O 0.23837 0.3551 0.46863 0.0
O310 O 0.28077 0.32138 0.46612 0.0
Mg311 Mg 0.31165 0.33185 0.51246 0.0
C312 C 0.2552 0.33251 0.4537 0.0
C313 C 0.1792 0.42772 0.52616 0.0
O314 O 0.19961 0.44694 0.54326 0.0
O315 O 0.22737 0.34271 0.55022 0.0
O316 O 0.27336 0.31439 0.54983 0.0
O317 O 0.27181 0.42633 0.49514 0.0
O318 O 0.29241 0.38325 0.51953 0.0
C319 C 0.24497 0.31961 0.5609 0.0
C320 C 0.29707 0.41073 0.50443 0.0
O321 O 0.18901 0.40024 0.51249 0.0
Mg322 Mg 0.39005 0.50249 0.247 0.0
O323 O 0.35766 0.4554 0.252 0.0
O324 O 0.32975 0.46091 0.29886 0.0
Mg325 Mg 0.34671 0.51113 0.32425 0.0
C326 C 0.33719 0.44414 0.27248 0.0
C327 C 0.42195 0.50315 0.18117 0.0
O328 O 0.44213 0.52023 0.2005 0.0
O329 O 0.34936 0.53688 0.23511 0.0
O330 O 0.32535 0.54382 0.28419 0.0
O331 O 0.42939 0.47683 0.27263 0.0
O332 O 0.39307 0.50979 0.2972 0.0
C333 C 0.32816 0.55044 0.25379 0.0
C334 C 0.41778 0.49093 0.29937 0.0
O335 O 0.397 0.48992 0.1934 0.0
O336 O 0.03389 0.0275 -0.00495 0.0
Mn337 Mn -0.00708 -0.00406 -0.00017 0.0
O338 O 0.06916 -0.00232 0.96792 0.0
Mn339 Mn 0.052 0.96321 -0.00859 0.0
O340 O 0.94891 0.96824 0.00718 0.0
O341 O 0.97473 0.04153 0.01733 0.0
Mn342 Mn 0.93763 0.04352 -0.00241 0.0
O343 O 0.97836 0.00287 0.95136 0.0
O344 O 0.91108 0.00808 0.00725 0.0
O345 O 0.00832 0.98661 0.04747 0.0
O346 O 0.05702 0.96572 0.03674 0.0
O347 O 0.93797 0.08113 0.02398 0.0
O348 O 0.94698 0.04782 0.95391 0.0
C349 C 0.0279 0.92283 0.96993 0.0
C350 C 0.06027 0.02595 0.97921 0.0
C351 C 0.91927 0.97753 0.00951 0.0
C352 C 0.96708 0.07171 0.02934 0.0
C353 C 0.96057 0.0241 0.93751 0.0
C354 C 0.03528 0.97518 0.05709 0.0
O355 O 0.0119 0.94984 0.98084 0.0
O356 O 0.05889 0.92335 0.97226 0.0
O357 O 0.30622 0.74383 0.23866 0.0
Mn358 Mn 0.25741 0.74518 0.25015 0.0
O359 O 0.31765 0.78656 0.20643 0.0
Mn360 Mn 0.27555 0.79071 0.19512 0.0
O361 O 0.20862 0.74346 0.26307 0.0
O362 O 0.26432 0.70021 0.26988 0.0
Mn363 Mn 0.24873 0.70097 0.31001 0.0
O364 O 0.26658 0.7719 0.29506 0.0
O365 O 0.20552 0.7082 0.30521 0.0
O366 O 0.24773 0.71955 0.20451 0.0
O367 O 0.25945 0.75779 0.16657 0.0
O368 O 0.26493 0.65864 0.30354 0.0
O369 O 0.27023 0.73403 0.33422 0.0
C370 C 0.2441 0.82151 0.22123 0.0
C371 C 0.3262 0.76165 0.22262 0.0
C372 C 0.19253 0.72759 0.28502 0.0
C373 C 0.27153 0.66913 0.27448 0.0
C374 C 0.27182 0.76416 0.32487 0.0
C375 C 0.24915 0.72883 0.17449 0.0
O376 O 0.251 0.7913 0.2305 0.0
O377 O 0.25821 0.83188 0.19489 0.0
O378 O 0.45475 0.97024 0.48201 0.0
Mn379 Mn 0.49709 -0.00268 0.49354 0.0
O380 O 0.41589 0.00724 0.47446 0.0
Mn381 Mn 0.43728 0.04083 0.49874 0.0
O382 O 0.53984 0.02278 0.50526 0.0
O383 O 0.5165 0.95077 0.50346 0.0
Mn384 Mn 0.54781 0.95031 0.47408 0.0
O385 O 0.5104 -0.0025 0.4441 0.0
O386 O 0.57574 0.98645 0.48321 0.0
O387 O 0.48301 0.00098 0.54229 0.0
O388 O 0.43962 0.03454 0.54374 0.0
O389 O 0.55439 0.91182 0.49413 0.0
O390 O 0.52852 0.94668 0.43359 0.0
C391 C 0.47235 0.07363 0.47806 0.0
C392 C 0.4262 0.97722 0.47331 0.0
C393 C 0.56864 0.01461 0.49757 0.0
C394 C 0.52866 0.92131 0.50982 0.0
C395 C 0.51986 0.9747 0.42347 0.0
C396 C 0.46047 0.01677 0.55766 0.0
O397 O 0.47759 0.04252 0.48501 0.0
O398 O 0.44302 0.08306 0.48299 0.0
O399 O 0.29722 0.26449 0.77639 0.0
Mn400 Mn 0.25327 0.2529 0.75295 0.0
O401 O 0.33461 0.2578 0.73658 0.0
Mn402 Mn 0.30808 0.24204 0.70356 0.0
O403 O 0.21016 0.24198 0.72835 0.0
O404 O 0.23463 0.24414 0.79877 0.0
Mn405 Mn 0.19533 0.25997 0.79669 0.0
O406 O 0.24096 0.30349 0.7563 0.0
O407 O 0.17273 0.2335 0.76649 0.0
O408 O 0.26584 0.20184 0.74851 0.0
O409 O 0.29726 0.19677 0.70355 0.0
O410 O 0.19722 0.24609 0.8381 0.0
O411 O 0.19708 0.30543 0.78843 0.0
C412 C 0.27628 0.27229 0.67842 0.0
C413 C 0.32645 0.26575 0.76605 0.0
C414 C 0.18183 0.23268 0.73673 0.0
C415 C 0.22565 0.23693 0.82859 0.0
C416 C 0.21748 0.3194 0.76971 0.0
C417 C 0.28151 0.18393 0.72694 0.0
O418 O 0.27167 0.26306 0.70832 0.0
O419 O 0.30403 0.26463 0.66587 0.0
O420 O 0.98528 0.95394 0.46924 0.0
Mn421 Mn 4e-05 -0.00265 0.49651 0.0
O422 O 0.01856 0.91849 0.49051 0.0
Mn423 Mn 0.01802 0.94075 0.53135 0.0
O424 O 0.01382 0.04099 0.5239 0.0
O425 O 0.01099 0.01937 0.45092 0.0
Mn426 Mn 0.98177 0.05093 0.45926 0.0
O427 O 0.95129 0.01183 0.50132 0.0
O428 O -0.00835 0.08024 0.49429 0.0
O429 O 0.04919 0.98346 0.49535 0.0
O430 O 0.057 0.95831 0.54226 0.0
O431 O -0.00309 0.06493 0.42241 0.0
O432 O 0.94094 0.03437 0.45488 0.0
C433 C 0.97581 0.95264 0.55755 0.0
C434 C -0.00071 0.92553 0.4683 0.0
C435 C 0.007 0.07181 0.51929 0.0
C436 C 0.01395 0.03803 0.42458 0.0
C437 C 0.93091 0.02293 0.48128 0.0
C438 C 0.0681 0.97372 0.51798 0.0
O439 O -0.0082 0.97549 0.5413 0.0
O440 O 0.98751 0.92249 0.55631 0.0
O441 O 0.28559 0.79271 0.75341 0.0
Mn442 Mn 0.25584 0.74936 0.74957 0.0
O443 O 0.25501 0.82914 0.78074 0.0
Mn444 Mn 0.22094 0.81562 0.75495 0.0
O445 O 0.2263 0.70611 0.74475 0.0
O446 O 0.29698 0.7244 0.73733 0.0
Mn447 Mn 0.2895 0.68269 0.74962 0.0
O448 O 0.26333 0.73902 0.79817 0.0
O449 O 0.25716 0.66653 0.72254 0.0
O450 O 0.2473 0.7616 0.70121 0.0
O451 O 0.22693 0.81389 0.70938 0.0
O452 O 0.33028 0.68162 0.73388 0.0
O453 O 0.28108 0.68552 0.79504 0.0
C454 C 0.1867 0.78228 0.77423 0.0
C455 C 0.28196 0.82131 0.76868 0.0
C456 C 0.22961 0.67688 0.73048 0.0
C457 C 0.32502 0.71309 0.72856 0.0
C458 C 0.27107 0.71163 0.81148 0.0
C459 C 0.2366 0.7894 0.69032 0.0
O460 O 0.21498 0.77328 0.76402 0.0
O461 O 0.18062 0.81414 0.77257 0.0
O462 O 0.46482 0.98742 0.9568 0.0
Mn463 Mn 0.49243 -0.00442 -0.00099 0.0
O464 O 0.4973 0.96635 0.91773 0.0
Mn465 Mn 0.53117 -0.00905 0.9354 0.0
O466 O 0.52119 0.00428 0.04102 0.0
O467 O 0.45032 0.01451 0.02104 0.0
Mn468 Mn 0.46112 -0.00179 0.06009 0.0
O469 O 0.48396 0.94581 0.01015 0.0
O470 O 0.48974 0.02856 0.07859 0.0
O471 O 0.50245 0.04459 0.98571 0.0
O472 O 0.52861 0.03818 0.93733 0.0
O473 O 0.41879 6e-05 0.06304 0.0
O474 O 0.47409 0.95391 0.06311 0.0
C475 C 0.56187 0.96847 0.96888 0.0
C476 C 0.46944 0.97245 0.92864 0.0
C477 C 0.51758 0.0215 0.06824 0.0
C478 C 0.42119 0.01066 0.0334 0.0
C479 C 0.48143 0.93458 0.0388 0.0
C480 C 0.51648 0.05687 0.96062 0.0
O481 O 0.5335 0.9795 0.97658 0.0
O482 O 0.57003 0.97097 0.9383 0.0
O483 O 0.30239 0.24061 0.2641 0.0
Mn484 Mn 0.25386 0.24494 0.25096 0.0
O485 O 0.30422 0.19992 0.3003 0.0
Mn486 Mn 0.26048 0.19893 0.30645 0.0
O487 O 0.2059 0.2514 0.23678 0.0
O488 O 0.26765 0.2909 0.23283 0.0
Mn489 Mn 0.25406 0.28806 0.19186 0.0
O490 O 0.26094 0.21732 0.20557 0.0
O491 O 0.21013 0.28337 0.19258 0.0
O492 O 0.24552 0.27168 0.29738 0.0
O493 O 0.24502 0.23196 0.3349 0.0
O494 O 0.27231 0.32959 0.1948 0.0
O495 O 0.2749 0.25456 0.16846 0.0
C496 C 0.23148 0.16757 0.27692 0.0
C497 C 0.318 0.22236 0.2836 0.0
C498 C 0.19337 0.2665 0.21256 0.0
C499 C 0.2778 0.32095 0.22461 0.0
C500 C 0.26992 0.22438 0.17634 0.0
C501 C 0.24211 0.2625 0.32741 0.0
O502 O 0.24064 0.19789 0.26801 0.0
O503 O 0.24028 0.15871 0.30581 0.0
O504 O 0.48555 0.45518 0.96668 0.0
Mn505 Mn 0.49778 0.49776 -0.00396 0.0
O506 O 0.51378 0.41646 0.99037 0.0
Mn507 Mn 0.51132 0.43691 0.03187 0.0
O508 O 0.50904 0.54232 0.02379 0.0
O509 O 0.50748 0.52078 0.95375 0.0
Mn510 Mn 0.48807 0.55971 0.95393 0.0
O511 O 0.44961 0.51243 -0.00429 0.0
O512 O 0.50599 0.58459 0.98845 0.0
O513 O 0.54699 0.48371 -0.00143 0.0
O514 O 0.55031 0.45391 0.0439 0.0
O515 O 0.50912 0.55703 0.91448 0.0
O516 O 0.44466 0.55133 0.95753 0.0
C517 C 0.46775 0.4555 0.05377 0.0
C518 C 0.49872 0.42638 0.966 0.0
C519 C 0.51207 0.57369 0.01673 0.0
C520 C 0.51865 0.52856 0.92526 0.0
C521 C 0.43271 0.53252 0.97918 0.0
C522 C 0.56376 0.47043 0.02137 0.0
O523 O 0.48855 0.47467 0.0391 0.0
O524 O 0.47548 0.42398 0.05366 0.0
O525 O 0.77963 0.29557 0.2557 0.0
Mn526 Mn 0.75398 0.2499 0.24879 0.0
O527 O 0.74607 0.33687 0.24344 0.0
Mn528 Mn 0.71018 0.31041 0.23491 0.0
O529 O 0.72675 0.20407 0.2424 0.0
O530 O 0.79974 0.22907 0.23933 0.0
Mn531 Mn 0.78599 0.1899 0.25415 0.0
O532 O 0.75636 0.24325 0.29917 0.0
O533 O 0.76231 0.1705 0.22065 0.0
O534 O 0.74989 0.25795 0.19856 0.0
O535 O 0.70842 0.29301 0.19187 0.0
O536 O 0.82699 0.18174 0.2516 0.0
O537 O 0.76968 0.18925 0.29673 0.0
C538 C 0.68873 0.28287 0.2756 0.0
C539 C 0.77338 0.32674 0.25177 0.0
C540 C 0.73351 0.176 0.2272 0.0
C541 C 0.82616 0.21071 0.23782 0.0
C542 C 0.75987 0.21519 0.31292 0.0
C543 C 0.73027 0.27345 0.18018 0.0
O544 O 0.71103 0.27215 0.25577 0.0
O545 O 0.67954 0.31256 0.26799 0.0
O546 O 0.96562 0.48744 0.45703 0.0
Mn547 Mn -0.00837 0.49771 0.5001 0.0
O548 O 0.0001 0.46884 0.41857 0.0
Mn549 Mn 0.03295 0.49391 0.43792 0.0
O550 O 0.0162 0.50797 0.54475 0.0
O551 O 0.94971 0.5138 0.52151 0.0
Mn552 Mn 0.95005 0.49694 0.56136 0.0
O553 O 0.98496 0.44824 0.51226 0.0
O554 O 0.97864 0.52763 0.57993 0.0
O555 O 0.00048 0.54678 0.48625 0.0
O556 O 0.02979 0.54098 0.43959 0.0
O557 O 0.90805 0.49884 0.54961 0.0
O558 O 0.96493 0.45324 0.56301 0.0
C559 C 0.06243 0.47157 0.47254 0.0
C560 C 0.97166 0.47287 0.42896 0.0
C561 C 0.00787 0.52158 0.57292 0.0
C562 C 0.91881 0.50908 0.52183 0.0
C563 C 0.97848 0.4361 0.54 0.0
C564 C 0.01592 0.55927 0.46203 0.0
O565 O 0.03385 0.48263 0.47927 0.0
O566 O 0.07193 0.47445 0.44241 0.0
O567 O 0.79462 0.76394 0.27475 0.0
Mn568 Mn 0.75172 0.75146 0.2515 0.0
O569 O 0.83258 0.7439 0.24058 0.0
Mn570 Mn 0.80637 0.7306 0.20601 0.0
O571 O 0.70811 0.74034 0.22816 0.0
O572 O 0.73321 0.74835 0.29929 0.0
Mn573 Mn 0.69456 0.76518 0.2946 0.0
O574 O 0.74228 0.80246 0.25078 0.0
O575 O 0.6714 0.73593 0.2675 0.0
O576 O 0.76182 0.69945 0.25106 0.0
O577 O 0.79144 0.68682 0.20589 0.0
O578 O 0.69466 0.7564 0.33737 0.0
O579 O 0.69891 0.80984 0.28321 0.0
C580 C 0.78525 0.77082 0.18152 0.0
C581 C 0.8239 0.7591 0.26711 0.0
C582 C 0.67976 0.73255 0.23767 0.0
C583 C 0.7231 0.74565 0.32989 0.0
C584 C 0.72078 0.82103 0.26439 0.0
C585 C 0.77503 0.67785 0.23059 0.0
O586 O 0.77058 0.75417 0.20451 0.0
O587 O 0.81228 0.75784 0.17202 0.0
O588 O 0.80438 0.24596 0.73771 0.0
Mn589 Mn 0.75536 0.24486 0.75076 0.0
O590 O 0.81031 0.28967 0.70503 0.0
Mn591 Mn 0.7682 0.28922 0.69225 0.0
O592 O 0.70645 0.24188 0.76307 0.0
O593 O 0.76398 0.20176 0.77293 0.0
Mn594 Mn 0.74315 0.19985 0.81051 0.0
O595 O 0.76363 0.2732 0.79475 0.0
O596 O 0.7004 0.20062 0.79921 0.0
O597 O 0.74714 0.21639 0.70683 0.0
O598 O 0.75427 0.25273 0.66613 0.0
O599 O 0.76585 0.16026 0.80594 0.0
O600 O 0.75691 0.23704 0.83591 0.0
C601 C 0.73757 0.31889 0.7211 0.0
C602 C 0.82184 0.2652 0.72 0.0
C603 C 0.68886 0.2223 0.78047 0.0
C604 C 0.77466 0.1721 0.77806 0.0
C605 C 0.76286 0.26638 0.8254 0.0
C606 C 0.74739 0.22349 0.67626 0.0
O607 O 0.7464 0.28899 0.72901 0.0
O608 O 0.7474 0.32906 0.69285 0.0
O609 O 0.80324 0.73997 0.75792 0.0
Mn610 Mn 0.75349 0.74436 0.75077 0.0
O611 O 0.80295 0.73075 0.8106 0.0
Mn612 Mn 0.76269 0.71074 0.80877 0.0
O613 O 0.70399 0.74944 0.7409 0.0
O614 O 0.76585 0.78828 0.72858 0.0
Mn615 Mn 0.74219 0.78889 0.69273 0.0
O616 O 0.75838 0.71574 0.70562 0.0
O617 O 0.70002 0.79096 0.70532 0.0
O618 O 0.74778 0.77356 0.79707 0.0
O619 O 0.73514 0.73575 0.83416 0.0
O620 O 0.76635 0.82733 0.69136 0.0
O621 O 0.75129 0.75205 0.66529 0.0
C622 C 0.74809 0.66829 0.77848 0.0
C623 C 0.81784 0.73922 0.7853 0.0
C624 C 0.68731 0.76903 0.72341 0.0
C625 C 0.77732 0.81717 0.71893 0.0
C626 C 0.75632 0.7225 0.67494 0.0
C627 C 0.73736 0.76635 0.82627 0.0
O628 O 0.73971 0.69923 0.77209 0.0
O629 O 0.76733 0.6661 0.80307 0.0
O630 O 0.53661 0.52612 0.49347 0.0
Mn631 Mn 0.4934 0.49754 0.49722 0.0
O632 O 0.5718 0.49113 0.47146 0.0
Mn633 Mn 0.55347 0.45823 0.49612 0.0
O634 O 0.44708 0.47327 0.50321 0.0
O635 O 0.47279 0.54246 0.51073 0.0
Mn636 Mn 0.43907 0.54568 0.4844 0.0
O637 O 0.48522 0.49992 0.44696 0.0
O638 O 0.4125 0.51699 0.50636 0.0
O639 O 0.5053 0.49174 0.54663 0.0
O640 O 0.55313 0.46598 0.54148 0.0
O641 O 0.45505 0.58855 0.49227 0.0
O642 O 0.44289 0.53225 0.44086 0.0
C643 C 0.52415 0.42176 0.47377 0.0
C644 C 0.56421 0.52079 0.48054 0.0
C645 C 0.4185 0.48555 0.50862 0.0
C646 C 0.47688 0.575 0.50953 0.0
C647 C 0.4639 0.51255 0.42919 0.0
C648 C 0.53101 0.47981 0.55901 0.0
O649 O 0.51342 0.4516 0.48336 0.0
O650 O 0.55403 0.41554 0.47919 0.0
O651 O 0.95309 0.47331 0.98101 0.0
Mn652 Mn -0.00159 0.49594 -0.00786 0.0
O653 O 0.9216 0.51653 0.9712 0.0
Mn654 Mn 0.94264 0.54492 0.00115 0.0
O655 O 0.04384 0.51657 0.00354 0.0
O656 O 0.01555 0.44841 -0.00039 0.0
Mn657 Mn 0.04455 0.4445 0.96831 0.0
O658 O 0.01112 0.49727 0.94232 0.0
O659 O 0.07504 0.4782 0.97692 0.0
O660 O 0.98485 0.49726 0.04117 0.0
O661 O 0.94264 0.53245 0.04461 0.0
O662 O 0.04825 0.40522 0.98832 0.0
O663 O 0.022 0.44444 0.92976 0.0
C664 C 0.97938 0.5751 0.98125 0.0
C665 C 0.92608 0.48497 0.97194 0.0
C666 C 0.07149 0.50576 -0.00604 0.0
C667 C 0.02504 0.41803 0.00588 0.0
C668 C 0.01738 0.47395 0.92072 0.0
C669 C 0.962 0.51199 0.05715 0.0
O670 O 0.98262 0.54356 0.98763 0.0
O671 O 0.95207 0.58807 0.98969 0.0
C672 C 0.98791 0.16107 0.03365 0.0
C673 C -0.00613 0.16627 0.06746 0.0
C674 C 0.98711 0.12837 0.01892 0.0
C675 C -0.00994 0.09957 0.03791 0.0
H676 H 0.9811 0.18208 0.01908 0.0
H677 H 0.97884 0.12546 -0.0063 0.0
S678 S 0.01818 0.1003 0.12397 0.0
N679 N 0.01309 0.14071 0.11685 0.0
N680 N 0.00861 0.07889 0.08949 0.0
C681 C 0.00144 0.10471 0.0701 0.0
C682 C 0.00374 0.13827 0.08491 0.0
C683 C 0.10861 0.7195 0.32022 0.0
C684 C 0.09098 0.74269 0.30286 0.0
C685 C 0.14098 0.71428 0.31337 0.0
C686 C 0.15746 0.73244 0.28915 0.0
H687 H 0.09724 0.70487 0.33912 0.0
H688 H 0.15313 0.69597 0.3277 0.0
S689 S 0.12195 0.79672 0.23708 0.0
N690 N 0.09179 0.78394 0.26029 0.0
N691 N 0.15333 0.77485 0.24783 0.0
C692 C 0.14001 0.75568 0.27142 0.0
C693 C 0.10664 0.76062 0.27816 0.0
C694 C 0.52521 0.85025 0.56714 0.0
C695 C 0.49554 0.83436 0.55962 0.0
C696 C 0.53419 0.88081 0.55341 0.0
C697 C 0.51391 0.89693 0.53176 0.0
H698 H 0.54194 0.8389 0.5835 0.0
H699 H 0.55798 0.89112 0.55853 0.0
S700 S 0.43422 0.86587 0.50313 0.0
N701 N 0.44576 0.83742 0.52886 0.0
N702 N 0.46324 0.89482 0.50282 0.0
C703 C 0.48391 0.88203 0.52456 0.0
C704 C 0.47466 0.8507 0.53845 0.0
C705 C 0.38377 0.25278 0.8347 0.0
C706 C 0.41301 0.26176 0.81949 0.0
C707 C 0.35429 0.25827 0.81941 0.0
C708 C 0.35342 0.27306 0.78864 0.0
H709 H 0.38367 0.23914 0.85721 0.0
H710 H 0.33259 0.24787 0.83006 0.0
S711 S 0.42245 0.30783 0.7422 0.0
N712 N 0.43857 0.29109 0.7745 0.0
N713 N 0.38341 0.30227 0.74668 0.0
C714 C 0.38212 0.28619 0.77559 0.0
C715 C 0.41194 0.28016 0.79069 0.0
C716 C -0.00227 0.85342 0.40486 0.0
C717 C 0.97808 0.82949 0.42051 0.0
C718 C 0.00243 0.8863 0.41883 0.0
C719 C 0.98717 0.89634 0.44847 0.0
H720 H 0.00991 0.84658 0.38197 0.0
H721 H 0.01913 0.90341 0.4072 0.0
S722 S 0.93539 0.84314 0.50036 0.0
N723 N 0.94464 0.81814 0.46825 0.0
N724 N 0.95297 0.87991 0.49368 0.0
C725 C 0.96727 0.87293 0.46404 0.0
C726 C 0.96284 0.83952 0.45027 0.0
C727 C 0.38345 0.74734 0.6689 0.0
C728 C 0.41228 0.74484 0.68651 0.0
C729 C 0.35363 0.74165 0.68406 0.0
C730 C 0.35187 0.73389 0.71732 0.0
H731 H 0.38388 0.75182 0.64286 0.0
H732 H 0.33222 0.74045 0.66905 0.0
S733 S 0.41939 0.73164 0.77592 0.0
N734 N 0.43655 0.73939 0.74027 0.0
N735 N 0.3805 0.72889 0.76858 0.0
C736 C 0.38013 0.73481 0.7359 0.0
C737 C 0.4104 0.74015 0.72052 0.0
C738 C 0.52472 0.14027 0.91943 0.0
C739 C 0.5049 0.16184 0.93873 0.0
C740 C 0.53013 0.10711 0.92804 0.0
C741 C 0.5163 0.09408 0.95656 0.0
H742 H 0.53407 0.14793 0.89592 0.0
H743 H 0.54374 0.09108 0.91097 0.0
S744 S 0.47127 0.1438 0.02084 0.0
N745 N 0.47714 0.17043 -0.00893 0.0
N746 N 0.48826 0.10805 0.00813 0.0
C747 C 0.49998 0.11676 0.97836 0.0
C748 C 0.49397 0.15063 0.9692 0.0
C749 C 0.10428 0.244 0.22061 0.0
C750 C 0.09136 0.25611 0.19155 0.0
C751 C 0.13721 0.24749 0.22751 0.0
C752 C 0.15833 0.26356 0.20574 0.0
H753 H 0.0889 0.23147 0.23805 0.0
H754 H 0.14611 0.23758 0.25006 0.0
S755 S 0.13575 0.30079 0.12649 0.0
N756 N 0.10189 0.28543 0.1412 0.0
N757 N 0.1632 0.2922 0.15373 0.0
C758 C 0.14537 0.27604 0.1766 0.0
C759 C 0.11208 0.27224 0.16961 0.0
C760 C 0.03908 0.00227 0.14771 0.0
C761 C 0.06409 0.98265 0.15942 0.0
C762 C 0.02865 -0.00157 0.11501 0.0
C763 C 0.04305 0.97508 0.09268 0.0
H764 H 0.02785 0.0213 0.16373 0.0
H765 H 0.00986 0.0146 0.10694 0.0
S766 S 0.10563 0.91336 0.11274 0.0
N767 N 0.10027 0.93607 0.14731 0.0
N768 N 0.08094 0.92893 0.08586 0.0
C769 C 0.06694 0.95397 0.10462 0.0
C770 C 0.07747 0.95782 0.13793 0.0
C771 C 0.24535 0.805 0.40447 0.0
C772 C 0.27331 0.82222 0.4149 0.0
C773 C 0.24407 0.78898 0.37318 0.0
C774 C 0.27053 0.79018 0.35149 0.0
H775 H 0.22532 0.80193 0.42127 0.0
H776 H 0.22311 0.77356 0.36672 0.0
S777 S 0.34524 0.84048 0.3643 0.0
N778 N 0.32521 0.84566 0.39933 0.0
N779 N 0.32265 0.81539 0.3401 0.0
C780 C 0.29701 0.81066 0.36023 0.0
C781 C 0.29843 0.82677 0.39222 0.0
C782 C 0.47142 0.02522 0.64953 0.0
C783 C 0.44524 0.00594 0.66081 0.0
C784 C 0.47701 0.02803 0.61573 0.0
C785 C 0.45647 0.0117 0.59268 0.0
H786 H 0.48672 0.03944 0.66677 0.0
H787 H 0.49668 0.04392 0.60762 0.0
S788 S 0.3884 0.95371 0.60945 0.0
N789 N 0.40159 0.96651 0.6462 0.0
N790 N 0.4115 0.97309 0.58278 0.0
C791 C 0.43149 -0.00905 0.60357 0.0
C792 C 0.42607 0.98763 0.63773 0.0
C793 C 0.27655 0.21881 0.90091 0.0
C794 C 0.26055 0.18991 0.9124 0.0
C795 C 0.26799 0.23245 0.87084 0.0
C796 C 0.24398 0.21689 0.85105 0.0
H797 H 0.29476 0.23175 0.91587 0.0
H798 H 0.27861 0.2564 0.86416 0.0
S799 S 0.19805 0.13838 0.86741 0.0
N800 N 0.22152 0.14458 0.89969 0.0
N801 N 0.20652 0.16978 0.84321 0.0
C802 C 0.22968 0.18672 0.86105 0.0
C803 C 0.2376 0.17337 0.89177 0.0
C804 C 0.07433 -0.0073 0.3679 0.0
C805 C 0.07392 0.01268 0.34005 0.0
C806 C 0.05538 0.00109 0.39578 0.0
C807 C 0.03584 0.02981 0.3965 0.0
H808 H 0.08816 0.96972 0.36755 0.0
H809 H 0.05544 0.98464 0.4164 0.0
S810 S 0.02965 0.09168 0.32993 0.0
N811 N 0.05484 0.06302 0.31541 0.0
N812 N 0.01949 0.07941 0.36684 0.0
C813 C 0.03674 0.05065 0.36894 0.0
C814 C 0.05575 0.04192 0.34095 0.0
C815 C 0.25449 0.77803 0.5983 0.0
C816 C 0.2447 0.80901 0.58621 0.0
C817 C 0.25021 0.77088 0.63168 0.0
C818 C 0.2367 0.79483 0.65425 0.0
H819 H 0.26677 0.75987 0.58219 0.0
H820 H 0.259 0.74714 0.64007 0.0
S821 S 0.20662 0.87975 0.63433 0.0
N822 N 0.21991 0.86326 0.59903 0.0
N823 N 0.21221 0.85043 0.66119 0.0
C824 C 0.22551 0.82531 0.64189 0.0
C825 C 0.22942 0.83223 0.60803 0.0
C826 C 0.42861 0.01586 0.86299 0.0
C827 C 0.4206 0.98891 0.84106 0.0
C828 C 0.44166 0.00971 0.89342 0.0
C829 C 0.44587 0.9765 0.90319 0.0
H830 H 0.42657 0.04182 0.8558 0.0
H831 H 0.45035 0.03114 0.9086 0.0
S832 S 0.42508 0.89744 0.85542 0.0
N833 N 0.41543 0.92807 0.83109 0.0
N834 N 0.43924 0.91634 0.88954 0.0
C835 C 0.43615 0.94928 0.88214 0.0
C836 C 0.4235 0.95557 0.85067 0.0
C837 C 0.28691 0.15672 0.1104 0.0
C838 C 0.26741 0.16716 0.08464 0.0
C839 C 0.28555 0.1728 0.14198 0.0
C840 C 0.26482 0.19991 0.14832 0.0
H841 H 0.30454 0.13727 0.10558 0.0
H842 H 0.30242 0.16578 0.16054 0.0
S843 S 0.20547 0.23315 0.09072 0.0
N844 N 0.22417 0.20324 0.06876 0.0
N845 N 0.22144 0.23343 0.1278 0.0
C846 C 0.2431 0.20823 0.1236 0.0
C847 C 0.24445 0.19188 0.09171 0.0
C848 C 0.13505 0.05469 0.02141 0.0
C849 C 0.15136 0.07182 -0.00336 0.0
C850 C 0.10296 0.04439 0.01748 0.0
C851 C 0.08642 0.04994 0.98819 0.0
H852 H 0.14764 0.04767 0.04327 0.0
H853 H 0.09208 0.02899 0.03608 0.0
S854 S 0.11636 0.0987 0.91845 0.0
N855 N 0.14703 0.09843 0.94399 0.0
N856 N 0.08693 0.07757 0.9362 0.0
C857 C 0.10138 0.06971 0.96463 0.0
C858 C 0.1339 0.08099 0.96893 0.0
C859 C 0.64382 0.45487 0.9793 0.0
C860 C 0.66142 0.44022 0.0042 0.0
C861 C 0.61277 0.46696 0.98547 0.0
C862 C 0.59867 0.46536 0.01694 0.0
H863 H 0.65364 0.45585 0.95462 0.0
H864 H 0.59927 0.47612 0.96509 0.0
S865 S 0.63765 0.4345 0.09179 0.0
N866 N 0.66428 0.42795 0.06207 0.0
N867 N 0.60667 0.45176 0.07426 0.0
C868 C 0.6172 0.4529 0.04257 0.0
C869 C 0.64835 0.43994 0.03604 0.0
C870 C 0.80426 0.40679 0.29257 0.0
C871 C 0.83054 0.41584 0.27274 0.0
C872 C 0.78759 0.37637 0.2868 0.0
C873 C 0.79658 0.35352 0.26123 0.0
H874 H 0.79558 0.42386 0.31208 0.0
H875 H 0.76649 0.37131 0.30165 0.0
S876 S 0.86445 0.3637 0.20305 0.0
N877 N 0.86582 0.39846 0.22718 0.0
N878 N 0.83369 0.34097 0.2162 0.0
C879 C 0.82336 0.36134 0.24174 0.0
C880 C 0.84052 0.39264 0.24752 0.0
C881 C 0.85902 0.57745 0.51908 0.0
C882 C 0.83789 0.56447 0.49488 0.0
C883 C 0.88819 0.56155 0.52447 0.0
C884 C 0.89703 0.53213 0.50592 0.0
H885 H 0.85232 0.59902 0.53488 0.0
H886 H 0.90267 0.57059 0.5452 0.0
S887 S 0.85261 0.49305 0.43506 0.0
N888 N 0.8297 0.52448 0.4486 0.0
N889 N 0.88414 0.49365 0.45958 0.0
C890 C 0.87719 0.52072 0.4799 0.0
C891 C 0.8476 0.53713 0.47423 0.0
C892 C 0.21697 0.07834 0.25568 0.0
C893 C 0.18333 0.07674 0.25468 0.0
C894 C 0.23356 0.10939 0.25507 0.0
C895 C 0.21713 0.14027 0.25535 0.0
H896 H 0.23047 0.05571 0.25972 0.0
H897 H 0.25918 0.10946 0.25952 0.0
S898 S 0.12998 0.14904 0.24169 0.0
N899 N 0.13476 0.10781 0.2445 0.0
N900 N 0.16605 0.16668 0.24604 0.0
C901 C 0.18399 0.13871 0.24925 0.0
C902 C 0.16702 0.10674 0.24856 0.0
C903 C 0.36473 0.92068 0.50914 0.0
C904 C 0.34115 0.91919 0.48467 0.0
C905 C 0.39432 0.93644 0.50359 0.0
C906 C 0.40148 0.95054 0.47328 0.0
H907 H 0.35948 0.9119 0.53351 0.0
H908 H 0.41082 0.93981 0.52397 0.0
S909 S 0.35052 0.9461 0.39901 0.0
N910 N 0.3284 0.9281 0.42747 0.0
N911 N 0.38472 0.95752 0.41698 0.0
C912 C 0.37929 0.9463 0.44763 0.0
C913 C 0.34888 0.93057 0.45335 0.0
C914 C 0.79731 0.58583 0.22419 0.0
C915 C 0.80726 0.58052 0.25647 0.0
C916 C 0.78356 0.61661 0.21632 0.0
C917 C 0.77968 0.64297 0.24044 0.0
H918 H 0.80157 0.56682 0.20471 0.0
H919 H 0.77783 0.62063 0.19084 0.0
S920 S 0.80471 0.64258 0.32765 0.0
N921 N 0.81279 0.60442 0.31242 0.0
N922 N 0.78835 0.66218 0.29719 0.0
C923 C 0.78859 0.63743 0.27289 0.0
C924 C 0.80209 0.6062 0.281 0.0
C925 C 0.67447 0.37863 0.74677 0.0
C926 C 0.69304 0.40644 0.75879 0.0
C927 C 0.68857 0.34743 0.73898 0.0
C928 C 0.72157 0.34325 0.74304 0.0
H929 H 0.64895 0.38121 0.74287 0.0
H930 H 0.67405 0.32731 0.72742 0.0
S931 S 0.78025 0.40763 0.77522 0.0
N932 N 0.74557 0.42732 0.77637 0.0
N933 N 0.77231 0.36867 0.76085 0.0
C934 C 0.74004 0.37027 0.75673 0.0
C935 C 0.7257 0.40198 0.76482 0.0
C936 C 0.97067 0.85865 0.92607 0.0
C937 C 0.98922 0.82904 0.92492 0.0
C938 C 0.98238 0.88918 0.94154 0.0
C939 C 0.01274 0.89064 0.95666 0.0
H940 H 0.94758 0.85851 0.91401 0.0
H941 H 0.96813 0.9118 0.94078 0.0
S942 S 0.06798 0.81818 0.96415 0.0
N943 N 0.03763 0.80234 0.94239 0.0
N944 N 0.05919 0.85818 0.97226 0.0
C945 C 0.03038 0.86037 0.95701 0.0
C946 C 0.01876 0.82998 0.94094 0.0
C947 C 0.90924 0.23944 0.71145 0.0
C948 C 0.91415 0.24209 0.67717 0.0
C949 C 0.87878 0.24483 0.72596 0.0
C950 C 0.85262 0.25298 0.70642 0.0
H951 H 0.92936 0.23538 0.72743 0.0
H952 H 0.87619 0.24462 0.75247 0.0
S953 S 0.85082 0.25516 0.61529 0.0
N954 N 0.88847 0.24773 0.62422 0.0
N955 N 0.83204 0.25737 0.65102 0.0
C956 C 0.85657 0.25203 0.67205 0.0
C957 C 0.88715 0.24671 0.6575 0.0
C958 C 0.50034 0.16167 0.47547 0.0
C959 C 0.51279 0.16263 0.44335 0.0
C960 C 0.49278 0.13088 0.48936 0.0
C961 C 0.49686 0.09999 0.47149 0.0
H962 H 0.49215 0.18469 0.48807 0.0
H963 H 0.47933 0.13155 0.51229 0.0
S964 S 0.54323 0.08897 0.39372 0.0
N965 N 0.54003 0.13046 0.39944 0.0
N966 N 0.52439 0.07196 0.42509 0.0
C967 C 0.51531 0.10037 0.4424 0.0
C968 C 0.52375 0.13208 0.42848 0.0
C969 C 0.60723 0.71144 0.18637 0.0
C970 C 0.59265 0.74325 0.18673 0.0
C971 C 0.63752 0.70783 0.20043 0.0
C972 C 0.65356 0.73612 0.2148 0.0
H973 H 0.59447 0.68912 0.17665 0.0
H974 H 0.64749 0.6828 0.20179 0.0
S975 S 0.62501 0.82441 0.22197 0.0
N976 N 0.59611 0.80312 0.20219 0.0
N977 N 0.6531 0.79656 0.22834 0.0
C978 C 0.63959 0.76814 0.21396 0.0
C979 C 0.60898 0.77172 0.19991 0.0
C980 C 0.03253 0.15184 0.56593 0.0
C981 C 0.00284 0.16154 0.57971 0.0
C982 C 0.03551 0.12012 0.54897 0.0
C983 C 0.00905 0.09755 0.5462 0.0
H984 H 0.0525 0.16972 0.56589 0.0
H985 H 0.05761 0.11441 0.53586 0.0
S986 S 0.92722 0.11151 0.57923 0.0
N987 N 0.9476 0.14589 0.59096 0.0
N988 N 0.9532 0.08681 0.55949 0.0
C989 C 0.98027 0.10634 0.56201 0.0
C990 C 0.97719 0.13826 0.57874 0.0
C991 C 0.62507 0.24381 0.32913 0.0
C992 C 0.59968 0.23926 0.30648 0.0
C993 C 0.65587 0.25454 0.31884 0.0
C994 C 0.66215 0.26047 0.28554 0.0
H995 H 0.62081 0.24014 0.35505 0.0
H996 H 0.6742 0.26001 0.33717 0.0
S997 S 0.6036 0.25481 0.21728 0.0
N998 N 0.58291 0.24307 0.24972 0.0
N999 N 0.64049 0.26209 0.23047 0.0
C1000 C 0.63725 0.25482 0.26274 0.0
C1001 C 0.60606 0.24455 0.27316 0.0
C1002 C 0.48384 0.83874 0.02954 0.0
C1003 C 0.4947 0.8302 0.06074 0.0
C1004 C 0.48141 0.87282 0.02145 0.0
C1005 C 0.48857 0.89905 0.0449 0.0
H1006 H 0.47572 0.81908 0.01199 0.0
H1007 H 0.47197 0.8786 -0.00237 0.0
S1008 S 0.52064 0.88975 0.12895 0.0
N1009 N 0.51547 0.85066 0.1139 0.0
N1010 N 0.50968 0.91419 0.09933 0.0
C1011 C 0.50123 0.89067 0.07538 0.0
C1012 C 0.50465 0.85631 0.08314 0.0
C1013 C 0.89419 0.76931 0.82712 0.0
C1014 C 0.91794 0.75149 0.80946 0.0
C1015 C 0.86209 0.76733 0.81712 0.0
C1016 C 0.85245 0.7474 0.7892 0.0
H1017 H 0.90021 0.78347 0.84973 0.0
H1018 H 0.84432 0.77984 0.8326 0.0
S1019 S 0.90562 0.69476 0.73548 0.0
N1020 N 0.93005 0.71305 0.763 0.0
N1021 N 0.86946 0.70924 0.74432 0.0
C1022 C 0.87622 0.73042 0.77064 0.0
C1023 C 0.90906 0.73246 0.78082 0.0
C1024 C 0.952 0.98846 0.84892 0.0
C1025 C 0.92142 4e-05 0.84043 0.0
C1026 C 0.9651 -0.00379 0.88033 0.0
C1027 C 0.94818 0.01622 0.90392 0.0
H1028 H 0.96616 0.97401 0.83103 0.0
H1029 H 0.98868 0.987 0.88596 0.0
S1030 S 0.8656 0.04904 0.89546 0.0
N1031 N 0.87397 0.03033 0.85959 0.0
N1032 N 0.89773 0.04388 0.91776 0.0
C1033 C 0.91704 0.0264 0.8961 0.0
C1034 C 0.90388 0.01855 0.8646 0.0
C1035 C 0.72989 0.1827 0.59394 0.0
C1036 C 0.75949 0.16758 0.58667 0.0
C1037 C 0.72383 0.19747 0.62536 0.0
C1038 C 0.74673 0.19641 0.65052 0.0
H1039 H 0.7125 0.18556 0.57462 0.0
H1040 H 0.70231 0.21216 0.62921 0.0
S1041 S 0.82588 0.15537 0.64494 0.0
N1042 N 0.81055 0.14947 0.60771 0.0
N1043 N 0.79848 0.17593 0.66708 0.0
C1044 C 0.77495 0.17833 0.64434 0.0
C1045 C 0.78157 0.1643 0.61222 0.0
C1046 C 0.53842 0.0112 0.34045 0.0
C1047 C 0.57097 0.00263 0.33629 0.0
C1048 C 0.52145 0.00308 0.3692 0.0
C1049 C 0.5367 0.986 0.39412 0.0
H1050 H 0.52568 0.02293 0.32093 0.0
H1051 H 0.49626 0.00909 0.37143 0.0
S1052 S 0.62225 0.96223 0.39783 0.0
N1053 N 0.61785 0.9784 0.36158 0.0
N1054 N 0.58667 0.96519 0.41525 0.0
C1055 C 0.56961 0.97982 0.39136 0.0
C1056 C 0.5866 0.98759 0.36247 0.0
C1057 C 0.78074 0.81649 0.10366 0.0
C1058 C 0.74929 0.80961 0.09313 0.0
C1059 C 0.79055 0.80851 0.13514 0.0
C1060 C 0.76973 0.79186 0.15695 0.0
H1061 H 0.79819 0.82735 0.0871 0.0
H1062 H 0.81562 0.81263 0.14127 0.0
S1063 S 0.683 0.77538 0.14335 0.0
N1064 N 0.69563 0.79168 0.10877 0.0
N1065 N 0.71467 0.77424 0.16751 0.0
C1066 C 0.73736 0.78798 0.1479 0.0
C1067 C 0.72706 0.79723 0.11596 0.0
C1068 C 0.96111 0.95616 0.64916 0.0
C1069 C 0.9401 0.98304 0.65408 0.0
C1070 C 0.9709 0.94579 0.61762 0.0
C1071 C 0.96074 0.96245 0.58956 0.0
H1072 H 0.97001 0.94286 0.66991 0.0
H1073 H 0.98762 0.92513 0.61557 0.0
S1074 S 0.90138 0.03103 0.58941 0.0
N1075 N 0.90615 0.02388 0.6288 0.0
N1076 N 0.92568 0.00501 0.56881 0.0
C1077 C 0.93867 0.9887 0.59406 0.0
C1078 C 0.92801 -0.00121 0.6265 0.0
C1079 C 0.76465 0.22734 0.40572 0.0
C1080 C 0.75221 0.19617 0.41609 0.0
C1081 C 0.76445 0.23516 0.37225 0.0
C1082 C 0.75267 0.21157 0.3482 0.0
H1083 H 0.7763 0.24483 0.42326 0.0
H1084 H 0.77589 0.25848 0.36494 0.0
S1085 S 0.715 0.12785 0.36256 0.0
N1086 N 0.72511 0.14307 0.39954 0.0
N1087 N 0.72573 0.15741 0.33711 0.0
C1088 C 0.7382 0.1815 0.35852 0.0
C1089 C 0.73768 0.17389 0.39239 0.0
C1090 C 0.56855 0.98172 0.13011 0.0
C1091 C 0.56966 0.00733 0.15504 0.0
C1092 C 0.55513 0.98795 0.09953 0.0
C1093 C 0.54225 0.0198 0.09349 0.0
H1094 H 0.576 0.95629 0.13499 0.0
H1095 H 0.55213 0.96691 0.08175 0.0
S1096 S 0.54611 0.0966 0.1488 0.0
N1097 N 0.562 0.06667 0.17031 0.0
N1098 N 0.53615 0.07829 0.11291 0.0
C1099 C 0.54616 0.04627 0.11722 0.0
C1100 C 0.55993 0.03998 0.14815 0.0
C1101 C 0.72188 0.80363 0.91232 0.0
C1102 C 0.7503 0.82226 0.91902 0.0
C1103 C 0.71619 0.78823 0.8809 0.0
C1104 C 0.73819 0.79169 0.85463 0.0
H1105 H 0.70494 0.79905 0.932 0.0
H1106 H 0.69528 0.77183 0.87764 0.0
S1107 S 0.8138 0.84255 0.85838 0.0
N1108 N 0.79906 0.84626 0.89615 0.0
N1109 N 0.78796 0.81836 0.83707 0.0
C1110 C 0.76535 0.81268 0.86046 0.0
C1111 C 0.77154 0.8276 0.89265 0.0
C1112 C 0.85575 0.90876 -0.00884 0.0
C1113 C 0.82954 0.92142 0.00977 0.0
C1114 C 0.88635 0.92494 -0.00697 0.0
C1115 C 0.89171 0.95365 0.01427 0.0
H1116 H 0.85228 0.88708 0.97426 0.0
H1117 H 0.90524 0.91613 0.97653 0.0
S1118 S 0.83162 -0.00646 0.07099 0.0
N1119 N 0.81155 0.96247 0.05155 0.0
N1120 N 0.8686 -0.00834 0.05636 0.0
C1121 C 0.86596 0.96475 0.03446 0.0
C1122 C 0.83501 0.94902 0.03187 0.0
C1123 C 0.34284 0.53377 -0.00563 0.0
C1124 C 0.33866 0.5678 0.00526 0.0
C1125 C 0.37368 0.52107 0.9876 0.0
C1126 C 0.40087 0.54223 -0.00842 0.0
H1127 H 0.32216 0.51772 0.98859 0.0
H1128 H 0.37609 0.49548 0.97735 0.0
S1129 S 0.4033 0.63013 0.02711 0.0
N1130 N 0.36477 0.61977 0.02592 0.0
N1131 N 0.42228 0.59661 0.01186 0.0
C1132 C 0.39709 0.57511 0.00528 0.0
C1133 C 0.36603 0.58773 0.01259 0.0
C1134 C 0.20061 0.60458 0.77848 0.0
C1135 C 0.17452 0.59128 0.76022 0.0
C1136 C 0.21696 0.63333 0.76892 0.0
C1137 C 0.20795 0.65015 0.74089 0.0
H1138 H 0.20936 0.59217 0.79981 0.0
H1139 H 0.23773 0.6417 0.78301 0.0
S1140 S 0.14061 0.62727 0.68517 0.0
N1141 N 0.1394 0.5982 0.71317 0.0
N1142 N 0.17113 0.6528 0.69521 0.0
C1143 C 0.18152 0.63813 0.72268 0.0
C1144 C 0.16453 0.60853 0.73242 0.0
C1145 C 0.12127 0.41646 0.51222 0.0
C1146 C 0.14647 0.43976 0.51951 0.0
C1147 C 0.09149 0.42738 0.50099 0.0
C1148 C 0.086 0.46188 0.49683 0.0
H1149 H 0.1251 0.38953 0.51367 0.0
H1150 H 0.07365 0.40856 0.49304 0.0
S1151 S 0.1441 0.53269 0.511 0.0
N1152 N 0.16358 0.49888 0.52164 0.0
N1153 N 0.10786 0.51901 0.50033 0.0
C1154 C 0.11036 0.4854 0.50543 0.0
C1155 C 0.14057 0.47444 0.51685 0.0
C1156 C 0.80257 0.88916 0.7753 0.0
C1157 C 0.82749 0.90417 0.7569 0.0
C1158 C 0.789 0.85753 0.76558 0.0
C1159 C 0.79997 0.83966 0.73729 0.0
H1160 H 0.79214 0.9027 0.79638 0.0
H1161 H 0.76784 0.84866 0.77843 0.0
S1162 S 0.86822 0.86403 0.68392 0.0
N1163 N 0.86549 0.89573 0.71157 0.0
N1164 N 0.83966 0.83665 0.69343 0.0
C1165 C 0.82676 0.85264 0.72057 0.0
C1166 C 0.84058 0.88481 0.7303 0.0
C1167 C 0.6401 0.06543 0.47369 0.0
C1168 C 0.65941 0.06377 0.50173 0.0
C1169 C 0.60852 0.05283 0.47387 0.0
C1170 C 0.59525 0.03887 0.5022 0.0
H1171 H 0.65007 0.07434 0.45091 0.0
H1172 H 0.59521 0.05162 0.45101 0.0
S1173 S 0.63429 0.03494 0.58348 0.0
N1174 N 0.66205 0.05149 0.55958 0.0
N1175 N 0.60234 0.02812 0.56006 0.0
C1176 C 0.6134 0.03992 0.53116 0.0
C1177 C 0.64569 0.05228 0.53084 0.0
C1178 C 0.16995 0.39631 0.75296 0.0
C1179 C 0.1935 0.42109 0.74723 0.0
C1180 C 0.17832 0.36352 0.75959 0.0
C1181 C 0.21061 0.35394 0.76008 0.0
H1182 H 0.14488 0.40305 0.7552 0.0
H1183 H 0.1592 0.34577 0.76529 0.0
S1184 S 0.2808 0.40773 0.73886 0.0
N1185 N 0.24994 0.43341 0.73783 0.0
N1186 N 0.26601 0.37037 0.74856 0.0
C1187 C 0.23433 0.37758 0.75103 0.0
C1188 C 0.2257 0.41161 0.74511 0.0
C1189 C 0.33017 0.61059 0.23975 0.0
C1190 C 0.31188 0.58057 0.2428 0.0
C1191 C 0.31566 0.64237 0.24329 0.0
C1192 C 0.28254 0.6445 0.24924 0.0
H1193 H 0.35613 0.60964 0.239 0.0
H1194 H 0.33086 0.6648 0.24616 0.0
S1195 S 0.2236 0.57383 0.25031 0.0
N1196 N 0.2587 0.5552 0.24634 0.0
N1197 N 0.23131 0.6149 0.25003 0.0
C1198 C 0.2637 0.61487 0.24594 0.0
C1199 C 0.27845 0.58267 0.24401 0.0
C1200 C 0.50968 0.64958 0.5591 0.0
C1201 C 0.4818 0.65881 0.57695 0.0
C1202 C 0.51065 0.6188 0.54003 0.0
C1203 C 0.48434 0.59596 0.53953 0.0
H1204 H 0.52952 0.66747 0.55741 0.0
H1205 H 0.53074 0.6143 0.52346 0.0
S1206 S 0.4079 0.60652 0.58558 0.0
N1207 N 0.42876 0.64138 0.59507 0.0
N1208 N 0.43152 0.58311 0.5615 0.0
C1209 C 0.45824 0.60329 0.56059 0.0
C1210 C 0.45663 0.63494 0.57856 0.0
C1211 C 0.61027 0.26717 0.79404 0.0
C1212 C 0.58937 0.24036 0.80153 0.0
C1213 C 0.64225 0.26096 0.78496 0.0
C1214 C 0.65403 0.22776 0.78294 0.0
H1215 H 0.60224 0.29308 0.79655 0.0
H1216 H 0.65823 0.28236 0.78126 0.0
S1217 S 0.60697 0.14879 0.79538 0.0
N1218 N 0.58129 0.17952 0.80317 0.0
N1219 N 0.64123 0.16765 0.7858 0.0
C1220 C 0.63265 0.20069 0.78856 0.0
C1221 C 0.60031 0.20706 0.79798 0.0
C1222 C 0.01838 0.35877 0.07424 0.0
C1223 C -0.00599 0.33638 0.06248 0.0
C1224 C 0.02617 0.38819 0.05769 0.0
C1225 C 0.0094 0.39642 0.02937 0.0
H1226 H 0.0319 0.3533 0.09599 0.0
H1227 H 0.0465 0.40363 0.06604 0.0
S1228 S 0.94514 0.34596 0.98763 0.0
N1229 N 0.95411 0.32426 0.01994 0.0
N1230 N 0.96841 0.38012 0.98974 0.0
C1231 C 0.98462 0.37495 0.01792 0.0
C1232 C 0.97704 0.34473 0.03422 0.0
C1233 C 0.88236 0.74873 0.33356 0.0
C1234 C 0.91028 0.76238 0.31909 0.0
C1235 C 0.85227 0.75223 0.31918 0.0
C1236 C 0.8495 0.76927 0.28991 0.0
H1237 H 0.88389 0.73277 0.3544 0.0
H1238 H 0.83191 0.73833 0.32885 0.0
S1239 S 0.91322 0.81684 0.24707 0.0
N1240 N 0.9318 0.79938 0.27763 0.0
N1241 N 0.87512 0.80543 0.25053 0.0
C1242 C 0.87624 0.78681 0.27782 0.0
C1243 C 0.90681 0.78339 0.29239 0.0
C1244 C 0.45665 0.35251 0.92645 0.0
C1245 C 0.48252 0.33339 0.91362 0.0
C1246 C 0.46127 0.38557 0.9394 0.0
C1247 C 0.49193 0.4005 0.94018 0.0
H1248 H 0.43276 0.34144 0.92779 0.0
H1249 H 0.44132 0.39825 0.95158 0.0
S1250 S 0.56671 0.36406 0.90536 0.0
N1251 N 0.53926 0.33394 0.89876 0.0
N1252 N 0.54783 0.39603 0.92392 0.0
C1253 C 0.51747 0.38303 0.92501 0.0
C1254 C 0.51281 0.34942 0.91154 0.0
C1255 C 0.8912 0.25915 0.19276 0.0
C1256 C 0.91091 0.23266 0.18084 0.0
C1257 C 0.86292 0.25229 0.21044 0.0
C1258 C 0.8537 0.21878 0.21628 0.0
H1259 H 0.89844 0.28527 0.18965 0.0
H1260 H 0.84897 0.27315 0.22061 0.0
S1261 S 0.89412 0.1409 0.18321 0.0
N1262 N 0.91753 0.17238 0.17179 0.0
N1263 N 0.86405 0.15884 0.20358 0.0
C1264 C 0.87217 0.1922 0.20188 0.0
C1265 C 0.90096 0.19931 0.18452 0.0
C1266 C 0.98354 0.64773 0.46115 0.0
C1267 C 0.00307 0.66274 0.43723 0.0
C1268 C 0.98946 0.61507 0.47135 0.0
C1269 C 0.0151 0.59625 0.45793 0.0
H1270 H 0.96201 0.66009 0.47019 0.0
H1271 H 0.97231 0.60361 0.4878 0.0
S1272 S 0.07908 0.62798 0.40272 0.0
N1273 N 0.05346 0.65931 0.40654 0.0
N1274 N 0.06433 0.59778 0.42547 0.0
C1275 C 0.03727 0.61267 0.43754 0.0
C1276 C 0.0314 0.64606 0.42736 0.0
C1277 C 0.61318 0.75275 0.67294 0.0
C1278 C 0.58805 0.75762 0.69574 0.0
C1279 C 0.64513 0.75457 0.68297 0.0
C1280 C 0.65339 0.76102 0.71618 0.0
H1281 H 0.60831 0.74877 0.6469 0.0
H1282 H 0.66371 0.75214 0.66427 0.0
S1283 S 0.59695 0.77147 0.78629 0.0
N1284 N 0.57362 0.7661 0.75373 0.0
N1285 N 0.63421 0.76945 0.7723 0.0
C1286 C 0.62875 0.76385 0.73962 0.0
C1287 C 0.59594 0.76221 0.72942 0.0
C1288 C 0.5675 0.4634 0.64161 0.0
C1289 C 0.56055 0.4929 0.66063 0.0
C1290 C 0.55605 0.45862 0.60942 0.0
C1291 C 0.53735 0.48324 0.59482 0.0
H1292 H 0.5819 0.44381 0.65167 0.0
H1293 H 0.56255 0.43571 0.59552 0.0
S1294 S 0.5135 0.56554 0.63395 0.0
N1295 N 0.53392 0.54718 0.66275 0.0
N1296 N 0.51303 0.53852 0.60178 0.0
C1297 C 0.52981 0.51264 0.61376 0.0
C1298 C 0.54129 0.51739 0.64676 0.0
C1299 C 0.80006 0.31077 0.89826 0.0
C1300 C 0.77323 0.32478 0.91495 0.0
C1301 C 0.7973 0.2951 0.86695 0.0
C1302 C 0.76777 0.29321 0.85087 0.0
H1303 H 0.82333 0.3106 0.90994 0.0
H1304 H 0.81793 0.28236 0.85621 0.0
S1305 S 0.69105 0.32953 0.88093 0.0
N1306 N 0.71665 0.33866 0.91103 0.0
N1307 N 0.71174 0.30899 0.8518 0.0
C1308 C 0.74125 0.30923 0.86582 0.0
C1309 C 0.74391 0.32515 0.89795 0.0
C1310 C 0.95201 0.52714 0.14826 0.0
C1311 C 0.94237 0.4951 0.15849 0.0
C1312 C 0.95911 0.5322 0.11525 0.0
C1313 C 0.9574 0.50518 0.0918 0.0
H1314 H 0.95319 0.54859 0.16578 0.0
H1315 H 0.9656 0.55745 0.1079 0.0
S1316 S 0.93304 0.41653 0.10629 0.0
N1317 N 0.93107 0.43608 0.14304 0.0
N1318 N 0.94518 0.44545 0.0806 0.0
C1319 C 0.94835 0.47284 0.10178 0.0
C1320 C 0.94062 0.46781 0.13538 0.0
C1321 C 0.7544 0.68078 0.38555 0.0
C1322 C 0.75932 0.6997 0.41526 0.0
C1323 C 0.74556 0.69642 0.35672 0.0
C1324 C 0.7416 0.73151 0.35658 0.0
H1325 H 0.75662 0.65348 0.38484 0.0
H1326 H 0.73956 0.68071 0.33509 0.0
S1327 S 0.74748 0.79159 0.42917 0.0
N1328 N 0.75741 0.75478 0.44357 0.0
N1329 N 0.74024 0.78433 0.38954 0.0
C1330 C 0.74598 0.75061 0.38639 0.0
C1331 C 0.75514 0.73469 0.41569 0.0
C1332 C 0.58657 0.51873 0.86867 0.0
C1333 C 0.57205 0.49838 0.84372 0.0
C1334 C 0.57109 0.52405 0.89905 0.0
C1335 C 0.54113 0.50867 0.90527 0.0
H1336 H 0.60876 0.53237 0.86389 0.0
H1337 H 0.58095 0.54299 0.91642 0.0
S1338 S 0.49824 0.44585 0.85098 0.0
N1339 N 0.52979 0.45754 0.82914 0.0
N1340 N 0.50084 0.46739 0.88665 0.0
C1341 C 0.52873 0.48485 0.88208 0.0
C1342 C 0.54411 0.47988 0.85097 0.0
C1343 C 0.72196 0.29641 0.09146 0.0
C1344 C 0.75417 0.2975 0.08079 0.0
C1345 C 0.71374 0.28532 0.12279 0.0
C1346 C 0.73741 0.27484 0.14454 0.0
H1347 H 0.70319 0.30629 0.07647 0.0
H1348 H 0.68897 0.28709 0.13083 0.0
S1349 S 0.82472 0.2689 0.12719 0.0
N1350 N 0.80939 0.2835 0.09344 0.0
N1351 N 0.7939 0.26307 0.15199 0.0
C1352 C 0.76921 0.27277 0.13301 0.0
C1353 C 0.7776 0.284 0.1012 0.0
C1354 C 0.92286 0.51109 0.36636 0.0
C1355 C 0.92593 0.48721 0.33997 0.0
C1356 C 0.93334 0.50393 0.39767 0.0
C1357 C 0.94733 0.47273 0.40336 0.0
H1358 H 0.91427 0.5363 0.36238 0.0
H1359 H 0.9337 0.52425 0.41646 0.0
S1360 S 0.95103 0.39831 0.34492 0.0
N1361 N 0.93663 0.42878 0.323 0.0
N1362 N 0.95703 0.41527 0.38233 0.0
C1363 C 0.94669 0.4472 0.37823 0.0
C1364 C 0.93598 0.45453 0.34623 0.0
C1365 C 0.79516 0.6704 0.6069 0.0
C1366 C 0.77011 0.66649 0.58378 0.0
C1367 C 0.78981 0.68476 0.63871 0.0
C1368 C 0.75928 0.69597 0.64841 0.0
H1369 H 0.81939 0.66355 0.59991 0.0
H1370 H 0.81015 0.68961 0.65479 0.0
S1371 S 0.6849 0.68828 0.59888 0.0
N1372 N 0.71295 0.67207 0.57429 0.0
N1373 N 0.70313 0.69957 0.6337 0.0
C1374 C 0.73362 0.68994 0.62648 0.0
C1375 C 0.73895 0.67504 0.59426 0.0
C1376 C 0.64443 0.54177 0.51632 0.0
C1377 C 0.65517 0.56918 0.49819 0.0
C1378 C 0.61323 0.52896 0.51294 0.0
C1379 C 0.59161 0.54264 0.4909 0.0
H1380 H 0.66073 0.5288 0.53194 0.0
H1381 H 0.60677 0.50637 0.52578 0.0
S1382 S 0.60487 0.62004 0.4444 0.0
N1383 N 0.63958 0.61409 0.46254 0.0
N1384 N 0.58069 0.58897 0.45562 0.0
C1385 C 0.60054 0.57243 0.47555 0.0
C1386 C 0.63249 0.58595 0.47932 0.0
C1387 C 0.14028 0.92248 0.49709 0.0
C1388 C 0.16572 0.94384 0.508 0.0
C1389 C 0.10871 0.93367 0.49811 0.0
C1390 C 0.10147 0.96656 0.50991 0.0
H1391 H 0.14453 0.89649 0.48889 0.0
H1392 H 0.08959 0.91589 0.49117 0.0
S1393 S 0.15892 0.03332 0.53893 0.0
N1394 N 0.18148 0.00045 0.52885 0.0
N1395 N 0.12157 0.02092 0.53131 0.0
C1396 C 0.12644 0.98868 0.51963 0.0
C1397 C 0.15877 0.97744 0.51847 0.0
C1398 C 0.30118 0.9099 0.74702 0.0
C1399 C 0.33309 0.9138 0.75674 0.0
C1400 C 0.28597 0.87846 0.74788 0.0
C1401 C 0.30197 0.85024 0.75948 0.0
H1402 H 0.28724 0.93171 0.74113 0.0
H1403 H 0.26068 0.87685 0.74184 0.0
S1404 S 0.38832 0.84614 0.77895 0.0
N1405 N 0.38246 0.88631 0.77128 0.0
N1406 N 0.35318 0.82657 0.77397 0.0
C1407 C 0.33504 0.85285 0.76511 0.0
C1408 C 0.35079 0.88505 0.76364 0.0
C1409 C 0.34478 0.06117 0.03951 0.0
C1410 C 0.33548 0.06332 0.00681 0.0
C1411 C 0.37339 0.04551 0.04721 0.0
C1412 C 0.39355 0.03074 0.02256 0.0
H1413 H 0.3298 0.07154 0.05925 0.0
H1414 H 0.3794 0.04451 0.07302 0.0
S1415 S 0.37917 0.03208 0.93273 0.0
N1416 N 0.34838 0.05217 0.94938 0.0
N1417 N 0.40201 0.02122 0.96358 0.0
C1418 C 0.38485 0.03412 0.9895 0.0
C1419 C 0.35577 0.05072 0.98175 0.0
C1420 C 0.70285 0.58905 0.80136 0.0
C1421 C 0.68403 0.57871 0.77407 0.0
C1422 C 0.72246 0.6176 0.8016 0.0
C1423 C 0.72509 0.63861 0.77459 0.0
H1424 H 0.70285 0.57489 0.82357 0.0
H1425 H 0.73563 0.62308 0.82413 0.0
S1426 S 0.67872 0.62601 0.69711 0.0
N1427 N 0.66744 0.59355 0.71911 0.0
N1428 N 0.70496 0.64846 0.71976 0.0
C1429 C 0.70554 0.62994 0.74707 0.0
C1430 C 0.68504 0.59986 0.74674 0.0
C1431 C 0.84296 0.46358 0.00121 0.0
C1432 C 0.83703 0.43095 0.98804 0.0
C1433 C 0.87204 0.47995 -0.00436 0.0
C1434 C 0.89635 0.46471 0.97609 0.0
H1435 H 0.82513 0.47639 0.01653 0.0
H1436 H 0.87555 0.50494 0.00722 0.0
S1437 S 0.89092 0.37991 0.9336 0.0
N1438 N 0.85648 0.38372 0.95369 0.0
N1439 N 0.91178 0.41513 0.94233 0.0
C1440 C 0.89069 0.43186 0.96245 0.0
C1441 C 0.86076 0.41486 0.96857 0.0
C1442 C 0.27835 0.09058 0.74592 0.0
C1443 C 0.31128 0.08393 0.74839 0.0
C1444 C 0.26803 0.12324 0.73887 0.0
C1445 C 0.29057 0.14958 0.73456 0.0
H1446 H 0.26072 0.07062 0.74945 0.0
H1447 H 0.24262 0.12788 0.73665 0.0
S1448 S 0.37881 0.1458 0.74409 0.0
N1449 N 0.36572 0.10684 0.74949 0.0
N1450 N 0.34654 0.16766 0.73654 0.0
C1451 C 0.3233 0.14318 0.73816 0.0
C1452 C 0.33363 0.11042 0.74504 0.0
C1453 C 0.18763 0.89223 0.22769 0.0
C1454 C 0.19331 0.9062 0.25958 0.0
C1455 C 0.20115 0.86177 0.21707 0.0
C1456 C 0.22124 0.84419 0.23764 0.0
H1457 H 0.17324 0.9052 0.21025 0.0
H1458 H 0.19765 0.85309 0.19165 0.0
S1459 S 0.24024 0.86669 0.32466 0.0
N1460 N 0.21732 0.89764 0.3131 0.0
N1461 N 0.24374 0.84043 0.29214 0.0
C1462 C 0.22539 0.85619 0.27023 0.0
C1463 C 0.21135 0.88735 0.28137 0.0
C1464 C 0.49822 0.35707 0.40908 0.0
C1465 C 0.48947 0.32956 0.42826 0.0
C1466 C 0.50585 0.38897 0.42395 0.0
C1467 C 0.50465 0.39438 0.45836 0.0
H1468 H 0.49982 0.35372 0.38253 0.0
H1469 H 0.51456 0.40893 0.4086 0.0
S1470 S 0.48578 0.33027 0.51942 0.0
N1471 N 0.48134 0.30971 0.48344 0.0
N1472 N 0.4957 0.36957 0.51104 0.0
C1473 C 0.49548 0.36733 0.47759 0.0
C1474 C 0.48783 0.33494 0.46263 0.0
C1475 C 0.39011 0.73108 0.16515 0.0
C1476 C 0.41759 0.73318 0.18484 0.0
C1477 C 0.36006 0.73779 0.17867 0.0
C1478 C 0.35653 0.7466 0.2123 0.0
H1479 H 0.39202 0.72685 0.13874 0.0
H1480 H 0.33968 0.73837 0.16227 0.0
S1481 S 0.41952 0.74643 0.27577 0.0
N1482 N 0.43863 0.73777 0.24073 0.0
N1483 N 0.38137 0.75061 0.26614 0.0
C1484 C 0.38292 0.7444 0.23306 0.0
C1485 C 0.41379 0.73742 0.21926 0.0
C1486 C -0.00814 0.62784 0.91266 0.0
C1487 C 0.00363 0.65734 0.92927 0.0
C1488 C -0.00902 0.59683 0.92794 0.0
C1489 C 0.00092 0.59474 0.96068 0.0
H1490 H 0.98054 0.62936 0.88885 0.0
H1491 H 0.9779 0.57586 0.91594 0.0
S1492 S 0.04298 0.66187 0.0107 0.0
N1493 N 0.0328 0.68068 0.97683 0.0
N1494 N 0.03007 0.6222 0.00606 0.0
C1495 C 0.0173 0.62266 0.97546 0.0
C1496 C 0.01858 0.6543 0.95977 0.0
C1497 C 0.11476 0.27152 0.69354 0.0
C1498 C 0.09339 0.24395 0.68925 0.0
C1499 C 0.14573 0.26669 0.70529 0.0
C1500 C 0.156 0.23424 0.7129 0.0
H1501 H 0.10688 0.29704 0.68977 0.0
H1502 H 0.16073 0.28879 0.71115 0.0
S1503 S 0.11088 0.15357 0.6991 0.0
N1504 N 0.0858 0.18296 0.68828 0.0
N1505 N 0.14406 0.1739 0.7111 0.0
C1506 C 0.13569 0.20631 0.70608 0.0
C1507 C 0.10425 0.21121 0.69405 0.0
C1508 C 0.52216 0.66171 0.05076 0.0
C1509 C 0.50222 0.66089 0.0785 0.0
C1510 C 0.52984 0.63173 0.03326 0.0
C1511 C 0.51712 0.60029 0.04269 0.0
H1512 H 0.53005 0.68569 0.04132 0.0
H1513 H 0.54304 0.63354 0.01033 0.0
S1514 S 0.47044 0.5852 0.11863 0.0
N1515 N 0.47511 0.62675 0.11854 0.0
N1516 N 0.48897 0.56994 0.08525 0.0
C1517 C 0.50058 0.59905 0.07282 0.0
C1518 C 0.49293 0.62966 0.0907 0.0
C1519 C 0.12459 0.73932 0.82532 0.0
C1520 C 0.09822 0.7382 0.80378 0.0
C1521 C 0.15524 0.74957 0.8145 0.0
C1522 C 0.16021 0.75908 0.78193 0.0
H1523 H 0.12124 0.73345 0.85091 0.0
H1524 H 0.17449 0.7525 0.83224 0.0
S1525 S 0.09913 0.76131 0.71643 0.0
N1526 N 0.07936 0.74729 0.74854 0.0
N1527 N 0.13665 0.76671 0.72851 0.0
C1528 C 0.13438 0.75668 0.76002 0.0
C1529 C 0.1034 0.74621 0.77087 0.0
C1530 C -0.00155 0.34326 0.52883 0.0
C1531 C 0.00409 0.33464 0.56141 0.0
C1532 C -0.00829 0.37672 0.52153 0.0
C1533 C 0.98917 0.40194 0.54689 0.0
H1534 H -0.00284 0.32369 0.50935 0.0
H1535 H 0.98643 0.38239 0.49633 0.0
S1536 S 0.00434 0.39225 0.63588 0.0
N1537 N 0.00943 0.35416 0.61866 0.0
N1538 N -0.00423 0.41659 0.60533 0.0
C1539 C -0.00324 0.39386 0.57923 0.0
C1540 C 0.00457 0.36026 0.58639 0.0
C1541 C 0.40736 0.24634 0.28639 0.0
C1542 C 0.41304 0.24806 0.32069 0.0
C1543 C 0.37631 0.2394 0.27368 0.0
C1544 C 0.35031 0.23348 0.29502 0.0
H1545 H 0.42726 0.24838 0.26929 0.0
H1546 H 0.37302 0.23694 0.24728 0.0
S1547 S 0.35058 0.24468 0.38606 0.0
N1548 N 0.38818 0.25129 0.37487 0.0
N1549 N 0.33106 0.23607 0.35154 0.0
C1550 C 0.35525 0.23836 0.32904 0.0
C1551 C 0.3863 0.24623 0.34175 0.0
C1552 C 0.44789 0.52491 0.34081 0.0
C1553 C 0.4363 0.49291 0.32982 0.0
C1554 C 0.46042 0.53015 0.37234 0.0
C1555 C 0.46174 0.50357 0.39394 0.0
H1556 H 0.44564 0.5465 0.3255 0.0
H1557 H 0.46698 0.55572 0.38073 0.0
S1558 S 0.43602 0.41442 0.37607 0.0
N1559 N 0.42869 0.43367 0.34168 0.0
N1560 N 0.45175 0.44362 0.40182 0.0
C1561 C 0.45208 0.47085 0.38257 0.0
C1562 C 0.43942 0.46547 0.35016 0.0
C1563 C 0.2688 0.65982 0.11288 0.0
C1564 C 0.25814 0.67398 0.08386 0.0
C1565 C 0.26145 0.67498 0.14387 0.0
C1566 C 0.24356 0.70482 0.14637 0.0
H1567 H 0.28437 0.63813 0.11152 0.0
H1568 H 0.27256 0.66537 0.16553 0.0
S1569 S 0.20617 0.74821 0.07754 0.0
N1570 N 0.22577 0.71647 0.05945 0.0
N1571 N 0.21179 0.74507 0.11746 0.0
C1572 C 0.23014 0.71694 0.11752 0.0
C1573 C 0.2377 0.70162 0.0862 0.0
C1574 C 0.04111 0.51307 0.84031 0.0
C1575 C 0.07174 0.4993 0.83449 0.0
C1576 C 0.02339 0.50563 0.86874 0.0
C1577 C 0.03562 0.48359 0.89151 0.0
H1578 H 0.0304 0.52886 0.8224 0.0
H1579 H -0.00026 0.51616 0.87235 0.0
S1580 S 0.11613 0.44454 0.89022 0.0
N1581 N 0.1145 0.46527 0.85604 0.0
N1582 N 0.08142 0.45137 0.90863 0.0
C1583 C 0.06687 0.47134 0.88691 0.0
C1584 C 0.08491 0.47918 0.85857 0.0
C1585 C 0.24297 0.27027 0.59632 0.0
C1586 C 0.23655 0.30451 0.59245 0.0
C1587 C 0.2489 0.25825 0.62745 0.0
C1588 C 0.25093 0.2805 0.65535 0.0
H1589 H 0.24668 0.25345 0.57493 0.0
H1590 H 0.25709 0.23245 0.62879 0.0
S1591 S 0.22703 0.37038 0.65952 0.0
N1592 N 0.22411 0.35864 0.62012 0.0
N1593 N 0.2389 0.33662 0.67846 0.0
C1594 C 0.24015 0.31366 0.65266 0.0
C1595 C 0.23225 0.32556 0.62102 0.0
C1596 C 0.45186 0.46395 0.14494 0.0
C1597 C 0.43212 0.49201 0.14823 0.0
C1598 C 0.46215 0.45215 0.11403 0.0
C1599 C 0.45333 0.46816 0.08512 0.0
H1600 H 0.45951 0.45107 0.16647 0.0
H1601 H 0.47797 0.43065 0.11306 0.0
S1602 S 0.40027 0.54216 0.08153 0.0
N1603 N 0.40258 0.53506 0.12117 0.0
N1604 N 0.42276 0.51335 0.06225 0.0
C1605 C 0.43324 0.49631 0.08822 0.0
C1606 C 0.42232 0.50806 0.12004 0.0
C1607 C 0.24158 0.67846 0.8919 0.0
C1608 C 0.26069 0.69658 0.91533 0.0
C1609 C 0.24451 0.68428 0.8583 0.0
C1610 C 0.26586 0.70907 0.84704 0.0
H1611 H 0.22634 0.65756 0.89907 0.0
H1612 H 0.23081 0.66844 0.8409 0.0
S1613 S 0.31623 0.76819 0.89833 0.0
N1614 N 0.29832 0.74369 0.92502 0.0
N1615 N 0.30288 0.75516 0.86167 0.0
C1616 C 0.2825 0.72982 0.8702 0.0
C1617 C 0.28002 0.72353 0.90446 0.0
C1618 C 0.03246 0.48694 0.65309 0.0
C1619 C 0.06561 0.49311 0.65407 0.0
C1620 C 0.01411 0.49812 0.62744 0.0
C1621 C 0.02824 0.51526 0.60125 0.0
H1622 H 0.02036 0.4738 0.67257 0.0
H1623 H 0.98865 0.49213 0.62767 0.0
S1624 S 0.1141 0.53842 0.59264 0.0
N1625 N 0.112 0.51853 0.6275 0.0
N1626 N 0.07723 0.5383 0.5779 0.0
C1627 C 0.06139 0.52163 0.60174 0.0
C1628 C 0.08014 0.51094 0.62855 0.0
C1629 C 0.22612 0.29123 0.41577 0.0
C1630 C 0.24606 0.31992 0.42011 0.0
C1631 C 0.22202 0.27523 0.38449 0.0
C1632 C 0.23805 0.28692 0.35625 0.0
H1633 H 0.21498 0.27999 0.43692 0.0
H1634 H 0.20792 0.25195 0.38282 0.0
S1635 S 0.29029 0.3637 0.35468 0.0
N1636 N 0.27937 0.36169 0.39368 0.0
N1637 N 0.27261 0.33108 0.33496 0.0
C1638 C 0.25621 0.31715 0.36007 0.0
C1639 C 0.26013 0.33362 0.39203 0.0
C1640 C 0.35748 0.41258 0.4968 0.0
C1641 C 0.32865 0.42846 0.50644 0.0
C1642 C 0.38735 0.43004 0.49953 0.0
C1643 C 0.38935 0.4635 0.51306 0.0
H1644 H 0.3568 0.387 0.48612 0.0
H1645 H 0.40866 0.41783 0.48976 0.0
S1646 S 0.32098 0.51312 0.54824 0.0
N1647 N 0.30429 0.47768 0.53322 0.0
N1648 N 0.35975 0.50934 0.54093 0.0
C1649 C 0.36067 0.47816 0.52539 0.0
C1650 C 0.33053 0.46103 0.52133 0.0
C1651 C 0.84348 0.03513 0.50445 0.0
C1652 C 0.84081 0.07063 0.50278 0.0
C1653 C 0.87325 0.01913 0.49993 0.0
C1654 C 0.90108 0.03831 0.49385 0.0
H1655 H 0.8222 0.01936 0.50702 0.0
H1656 H 0.87414 -0.00826 0.49914 0.0
S1657 S 0.90821 0.13191 0.49248 0.0
N1658 N 0.86982 0.1242 0.49928 0.0
N1659 N 0.92493 0.09442 0.48988 0.0
C1660 C 0.89909 0.07377 0.49489 0.0
C1661 C 0.86916 0.08991 0.49967 0.0
C1662 C 0.66466 0.11224 0.23419 0.0
C1663 C 0.67893 0.08738 0.25284 0.0
C1664 C 0.68223 0.14131 0.2255 0.0
C1665 C 0.71455 0.14553 0.23456 0.0
H1666 H 0.63967 0.10972 0.22725 0.0
H1667 H 0.67057 0.16049 0.21182 0.0
S1668 S 0.76338 0.08601 0.28114 0.0
N1669 N 0.72761 0.06787 0.27813 0.0
N1670 N 0.76034 0.12171 0.26208 0.0
C1671 C 0.72918 0.12005 0.25217 0.0
C1672 C 0.71144 0.09109 0.26115 0.0
C1673 C 0.64413 0.97078 0.0035 0.0
C1674 C 0.64643 0.93896 0.01714 0.0
C1675 C 0.61508 0.98163 -0.00887 0.0
C1676 C 0.58711 0.96139 -0.00756 0.0
H1677 H 0.66539 0.98646 0.0003 0.0
H1678 H 0.615 0.00509 0.9783 0.0
S1679 S 0.57914 0.87859 0.03102 0.0
N1680 N 0.61755 0.88899 0.0351 0.0
N1681 N 0.5625 0.90982 0.01181 0.0
C1682 C 0.58834 0.93074 0.00843 0.0
C1683 C 0.6182 0.91937 0.02074 0.0
C1684 C 0.34057 0.38506 0.24828 0.0
C1685 C 0.32272 0.40996 0.26574 0.0
C1686 C 0.32677 0.35357 0.23879 0.0
C1687 C 0.29466 0.34574 0.24641 0.0
H1688 H 0.36507 0.39036 0.24082 0.0
H1689 H 0.34062 0.33621 0.22322 0.0
S1690 S 0.23752 0.40164 0.29155 0.0
N1691 N 0.27133 0.42404 0.29106 0.0
N1692 N 0.24538 0.36504 0.27227 0.0
C1693 C 0.27693 0.36972 0.2649 0.0
C1694 C 0.29099 0.40177 0.27486 0.0
C1695 C 0.13467 0.57547 -0.00688 0.0
C1696 C 0.16286 0.55621 -0.00659 0.0
C1697 C 0.10423 0.55992 -0.00318 0.0
C1698 C 0.1015 0.52492 0.00143 0.0
H1699 H 0.136 0.60209 0.98787 0.0
H1700 H 0.08294 0.57469 -0.00649 0.0
S1701 S 0.16837 0.46579 0.01289 0.0
N1702 N 0.18614 0.50202 0.00454 0.0
N1703 N 0.12957 0.47332 0.01283 0.0
C1704 C 0.12972 0.50668 0.00588 0.0
C1705 C 0.1603 0.52215 0.00138 0.0
C1706 C 0.72055 0.91364 0.28477 0.0
C1707 C 0.7046 0.92614 0.25739 0.0
C1708 C 0.72801 0.8795 0.2859 0.0
C1709 C 0.72136 0.8572 0.25913 0.0
H1710 H 0.72424 0.92931 0.307 0.0
H1711 H 0.73705 0.87008 0.30865 0.0
S1712 S 0.6892 0.87838 0.1782 0.0
N1713 N 0.68855 0.91444 0.20036 0.0
N1714 N 0.70437 0.85022 0.20231 0.0
C1715 C 0.70999 0.86995 0.22993 0.0
C1716 C 0.70145 0.90465 0.22896 0.0
C1717 C 0.78406 0.09131 0.73294 0.0
C1718 C 0.81586 0.08431 0.74079 0.0
C1719 C 0.77199 0.12397 0.73873 0.0
C1720 C 0.79101 0.1499 0.75382 0.0
H1721 H 0.76767 0.07088 0.72555 0.0
H1722 H 0.74644 0.12754 0.73597 0.0
S1723 S 0.87732 0.1455 0.77346 0.0
N1724 N 0.86766 0.10706 0.75881 0.0
N1725 N 0.84429 0.16787 0.77151 0.0
C1726 C 0.8238 0.14424 0.75777 0.0
C1727 C 0.83636 0.11135 0.75099 0.0
loop_
_geom_bond_atom_site_label_1
_geom_bond_atom_site_label_2
_geom_bond_distance
_geom_bond_site_symmetry_2
_ccdc_geom_bond_type
Mg0 O1 2.028 . S
Mg0 O7 1.986 . S
Mg0 O9 2.114 1_455 S
Mg0 O10 2.251 1_455 S
Mg0 O13 2.010 . S
O1 Mg0 2.028 . S
O1 C4 1.250 1_455 S
O2 Mg3 2.028 . S
O2 C4 1.247 . S
Mg3 O2 2.028 . S
Mg3 O8 2.032 . S
Mg3 O10 2.079 . S
C4 O1 1.250 1_655 S
C4 O2 1.247 . S
C5 O6 1.264 . S
C5 O13 1.249 . S
O6 C5 1.264 . S
O7 Mg0 1.986 . S
O7 C11 1.246 . S
O8 Mg3 2.032 . S
O8 C11 1.259 1_655 S
O9 Mg0 2.114 1_655 S
O9 C12 1.252 . S
O10 Mg0 2.251 1_655 S
O10 Mg3 2.079 . S
O10 C12 1.273 . S
C11 O7 1.246 . S
C11 O8 1.259 1_455 S
C12 O9 1.252 . S
C12 O10 1.273 . S
O13 Mg0 2.010 . S
O13 C5 1.249 . S
Mg14 O15 2.028 . S
Mg14 O21 1.986 . S
Mg14 O23 2.114 1_455 S
Mg14 O24 2.251 1_455 S
Mg14 O27 2.010 . S
O15 Mg14 2.028 . S
O15 C18 1.250 . S
O16 Mg17 2.028 . S
O16 C18 1.248 1_655 S
Mg17 O16 2.028 . S
Mg17 O22 2.032 . S
Mg17 O24 2.079 . S
C18 O15 1.250 . S
C18 O16 1.248 1_455 S
C19 O20 1.264 . S
C19 O27 1.249 . S
O20 C19 1.264 . S
O21 Mg14 1.986 . S
O21 C25 1.246 . S
O22 Mg17 2.032 . S
O22 C25 1.259 1_655 S
O23 Mg14 2.114 1_655 S
O23 C26 1.252 . S
O24 Mg14 2.251 1_655 S
O24 Mg17 2.079 . S
O24 C26 1.273 . S
C25 O21 1.246 . S
C25 O22 1.259 1_455 S
C26 O23 1.252 . S
C26 O24 1.273 . S
O27 Mg14 2.010 . S
O27 C19 1.249 . S
Mg28 O29 2.028 . S
Mg28 O35 1.986 . S
Mg28 O37 2.114 . S
Mg28 O38 2.251 . S
Mg28 O41 2.010 . S
O29 Mg28 2.028 . S
O29 C32 1.250 . S
O30 Mg31 2.028 . S
O30 C32 1.248 . S
Mg31 O30 2.028 . S
Mg31 O36 2.032 . S
Mg31 O38 2.079 . S
C32 O29 1.250 . S
C32 O30 1.248 . S
C33 O34 1.264 . S
C33 O41 1.249 . S
O34 C33 1.264 . S
O35 Mg28 1.986 . S
O35 C39 1.246 . S
O36 Mg31 2.032 . S
O36 C39 1.259 . S
O37 Mg28 2.114 . S
O37 C40 1.252 . S
O38 Mg28 2.251 . S
O38 Mg31 2.079 . S
O38 C40 1.273 . S
C39 O35 1.246 . S
C39 O36 1.259 . S
C40 O37 1.252 . S
C40 O38 1.273 . S
O41 Mg28 2.010 . S
O41 C33 1.249 . S
Mg42 O43 2.028 . S
Mg42 O49 1.986 . S
Mg42 O51 2.114 . S
Mg42 O52 2.251 . S
Mg42 O55 2.010 . S
O43 Mg42 2.028 . S
O43 C46 1.250 . S
O44 Mg45 2.028 . S
O44 C46 1.248 . S
Mg45 O44 2.028 . S
Mg45 O50 2.032 . S
Mg45 O52 2.079 . S
C46 O43 1.250 . S
C46 O44 1.248 . S
C47 O48 1.264 . S
C47 O55 1.249 . S
O48 C47 1.264 . S
O49 Mg42 1.986 . S
O49 C53 1.246 . S
O50 Mg45 2.032 . S
O50 C53 1.259 . S
O51 Mg42 2.114 . S
O51 C54 1.252 . S
O52 Mg42 2.251 . S
O52 Mg45 2.079 . S
O52 C54 1.273 . S
C53 O49 1.246 . S
C53 O50 1.259 . S
C54 O51 1.252 . S
C54 O52 1.273 . S
O55 Mg42 2.010 . S
O55 C47 1.249 . S
Mg56 O57 2.028 1_565 S
Mg56 O63 1.986 . S
Mg56 O65 2.114 1_565 S
Mg56 O66 2.251 . S
Mg56 O69 2.010 . S
O57 Mg56 2.028 1_545 S
O57 C60 1.250 . S
O58 Mg59 2.028 . S
O58 C60 1.248 . S
Mg59 O58 2.028 . S
Mg59 O64 2.032 1_545 S
Mg59 O66 2.079 1_545 S
C60 O57 1.250 . S
C60 O58 1.248 . S
C61 O62 1.264 . S
C61 O69 1.249 . S
O62 C61 1.264 . S
O63 Mg56 1.986 . S
O63 C67 1.246 . S
O64 Mg59 2.032 1_565 S
O64 C67 1.259 . S
O65 Mg56 2.114 1_545 S
O65 C68 1.252 . S
O66 Mg56 2.251 . S
O66 Mg59 2.079 1_565 S
O66 C68 1.273 1_565 S
C67 O63 1.246 . S
C67 O64 1.259 . S
C68 O65 1.252 . S
C68 O66 1.273 1_545 S
O69 Mg56 2.010 . S
O69 C61 1.249 . S
Mg70 O71 2.028 . S
Mg70 O77 1.986 . S
Mg70 O79 2.114 . S
Mg70 O80 2.251 . S
Mg70 O83 2.010 . S
O71 Mg70 2.028 . S
O71 C74 1.250 . S
O72 Mg73 2.028 . S
O72 C74 1.248 . S
Mg73 O72 2.028 . S
Mg73 O78 2.032 . S
Mg73 O80 2.079 . S
C74 O71 1.250 . S
C74 O72 1.248 . S
C75 O76 1.264 . S
C75 O83 1.249 . S
O76 C75 1.264 . S
O77 Mg70 1.986 . S
O77 C81 1.246 . S
O78 Mg73 2.032 . S
O78 C81 1.259 . S
O79 Mg70 2.114 . S
O79 C82 1.252 . S
O80 Mg70 2.251 . S
O80 Mg73 2.079 . S
O80 C82 1.273 . S
C81 O77 1.246 . S
C81 O78 1.259 . S
C82 O79 1.252 . S
C82 O80 1.273 . S
O83 Mg70 2.010 . S
O83 C75 1.249 . S
Mg84 O85 2.028 1_545 S
Mg84 O91 1.986 . S
Mg84 O93 2.114 1_545 S
Mg84 O94 2.251 . S
Mg84 O97 2.010 . S
O85 Mg84 2.028 1_565 S
O85 C88 1.250 . S
O86 Mg87 2.028 1_565 S
O86 C88 1.248 . S
Mg87 O86 2.028 1_545 S
Mg87 O92 2.032 . S
Mg87 O94 2.079 . S
C88 O85 1.250 . S
C88 O86 1.248 . S
C89 O90 1.264 . S
C89 O97 1.249 . S
O90 C89 1.264 . S
O91 Mg84 1.986 . S
O91 C95 1.246 . S
O92 Mg87 2.032 . S
O92 C95 1.259 . S
O93 Mg84 2.114 1_565 S
O93 C96 1.252 1_565 S
O94 Mg84 2.251 . S
O94 Mg87 2.079 . S
O94 C96 1.273 . S
C95 O91 1.246 . S
C95 O92 1.259 . S
C96 O93 1.252 1_545 S
C96 O94 1.273 . S
O97 Mg84 2.010 . S
O97 C89 1.249 . S
Mg98 O99 2.017 1_556 S
Mg98 O105 1.995 . S
Mg98 O107 2.108 1_556 S
Mg98 O108 2.251 1_556 S
Mg98 O111 2.011 . S
O99 Mg98 2.017 1_554 S
O99 C102 1.250 . S
O100 Mg101 2.028 . S
O100 C102 1.248 . S
Mg101 O100 2.028 . S
Mg101 O106 2.032 1_554 S
Mg101 O108 2.079 . S
C102 O99 1.250 . S
C102 O100 1.248 . S
C103 O104 1.264 1_554 S
C103 O111 1.249 1_554 S
O104 C103 1.264 1_556 S
O105 Mg98 1.995 . S
O105 C109 1.246 . S
O106 Mg101 2.032 1_556 S
O106 C109 1.259 . S
O107 Mg98 2.108 1_554 S
O107 C110 1.252 . S
O108 Mg98 2.251 1_554 S
O108 Mg101 2.079 . S
O108 C110 1.273 . S
C109 O105 1.246 . S
C109 O106 1.259 . S
C110 O107 1.252 . S
C110 O108 1.273 . S
O111 Mg98 2.011 . S
O111 C103 1.249 1_556 S
Mg112 O113 2.028 1_554 S
Mg112 O119 1.986 . S
Mg112 O121 2.114 1_554 S
Mg112 O122 2.251 . S
Mg112 O125 2.010 . S
O113 Mg112 2.028 1_556 S
O113 C116 1.250 . S
O114 Mg115 2.028 1_556 S
O114 C116 1.248 . S
Mg115 O114 2.028 1_554 S
Mg115 O120 2.032 . S
Mg115 O122 2.079 . S
C116 O113 1.250 . S
C116 O114 1.248 . S
C117 O118 1.264 . S
C117 O125 1.249 . S
O118 C117 1.264 . S
O119 Mg112 1.986 . S
O119 C123 1.246 . S
O120 Mg115 2.032 . S
O120 C123 1.259 . S
O121 Mg112 2.114 1_556 S
O121 C124 1.252 1_556 S
O122 Mg112 2.251 . S
O122 Mg115 2.079 . S
O122 C124 1.273 . S
C123 O119 1.246 . S
C123 O120 1.259 . S
C124 O121 1.252 1_554 S
C124 O122 1.273 . S
O125 Mg112 2.010 . S
O125 C117 1.249 . S
Mg126 O127 2.028 . S
Mg126 O133 1.986 . S
Mg126 O135 2.114 . S
Mg126 O136 2.251 . S
Mg126 O139 2.010 . S
O127 Mg126 2.028 . S
O127 C130 1.250 . S
O128 Mg129 2.028 . S
O128 C130 1.248 . S
Mg129 O128 2.028 . S
Mg129 O134 2.032 . S
Mg129 O136 2.079 . S
C130 O127 1.250 . S
C130 O128 1.248 . S
C131 O132 1.264 . S
C131 O139 1.249 . S
O132 C131 1.264 . S
O133 Mg126 1.986 . S
O133 C137 1.246 . S
O134 Mg129 2.032 . S
O134 C137 1.259 . S
O135 Mg126 2.114 . S
O135 C138 1.252 . S
O136 Mg126 2.251 . S
O136 Mg129 2.079 . S
O136 C138 1.273 . S
C137 O133 1.246 . S
C137 O134 1.259 . S
C138 O135 1.252 . S
C138 O136 1.273 . S
O139 Mg126 2.010 . S
O139 C131 1.249 . S
Mg140 O141 2.028 . S
Mg140 O147 1.986 . S
Mg140 O149 2.114 . S
Mg140 O150 2.251 . S
Mg140 O153 2.010 . S
O141 Mg140 2.028 . S
O141 C144 1.250 . S
O142 Mg143 2.028 . S
O142 C144 1.248 . S
Mg143 O142 2.028 . S
Mg143 O148 2.032 . S
Mg143 O150 2.079 . S
C144 O141 1.250 . S
C144 O142 1.248 . S
C145 O146 1.264 . S
C145 O153 1.249 . S
O146 C145 1.264 . S
O147 Mg140 1.986 . S
O147 C151 1.246 . S
O148 Mg143 2.032 . S
O148 C151 1.259 . S
O149 Mg140 2.114 . S
O149 C152 1.252 . S
O150 Mg140 2.251 . S
O150 Mg143 2.079 . S
O150 C152 1.273 . S
C151 O147 1.246 . S
C151 O148 1.259 . S
C152 O149 1.252 . S
C152 O150 1.273 . S
O153 Mg140 2.010 . S
O153 C145 1.249 . S
Mg154 O155 2.028 . S
Mg154 O161 1.986 . S
Mg154 O163 2.114 . S
Mg154 O164 2.251 . S
Mg154 O167 2.010 . S
O155 Mg154 2.028 . S
O155 C158 1.250 . S
O156 Mg157 2.028 . S
O156 C158 1.248 . S
Mg157 O156 2.028 . S
Mg157 O162 2.032 . S
Mg157 O164 2.079 . S
C158 O155 1.250 . S
C158 O156 1.248 . S
C159 O160 1.264 . S
C159 O167 1.249 . S
O160 C159 1.264 . S
O161 Mg154 1.986 . S
O161 C165 1.246 . S
O162 Mg157 2.032 . S
O162 C165 1.259 . S
O163 Mg154 2.114 . S
O163 C166 1.252 . S
O164 Mg154 2.251 . S
O164 Mg157 2.079 . S
O164 C166 1.273 . S
C165 O161 1.246 . S
C165 O162 1.259 . S
C166 O163 1.252 . S
C166 O164 1.273 . S
O167 Mg154 2.010 . S
O167 C159 1.249 . S
Mg168 O169 2.028 . S
Mg168 O175 1.986 . S
Mg168 O177 2.114 1_455 S
Mg168 O178 2.251 1_455 S
Mg168 O181 2.010 . S
O169 Mg168 2.028 . S
O169 C172 1.250 . S
O170 Mg171 2.028 . S
O170 C172 1.248 1_655 S
Mg171 O170 2.028 . S
Mg171 O176 2.032 . S
Mg171 O178 2.079 . S
C172 O169 1.250 . S
C172 O170 1.248 1_455 S
C173 O174 1.264 . S
C173 O181 1.249 . S
O174 C173 1.264 . S
O175 Mg168 1.986 . S
O175 C179 1.246 . S
O176 Mg171 2.032 . S
O176 C179 1.259 1_655 S
O177 Mg168 2.114 1_655 S
O177 C180 1.252 . S
O178 Mg168 2.251 1_655 S
O178 Mg171 2.079 . S
O178 C180 1.273 . S
C179 O175 1.246 . S
C179 O176 1.259 1_455 S
C180 O177 1.252 . S
C180 O178 1.273 . S
O181 Mg168 2.010 . S
O181 C173 1.249 . S
Mg182 O183 2.028 . S
Mg182 O189 1.986 . S
Mg182 O191 2.114 1_455 S
Mg182 O192 2.251 1_455 S
Mg182 O195 2.010 . S
O183 Mg182 2.028 . S
O183 C186 1.250 . S
O184 Mg185 2.028 . S
O184 C186 1.248 1_655 S
Mg185 O184 2.028 . S
Mg185 O190 2.032 . S
Mg185 O192 2.079 . S
C186 O183 1.250 . S
C186 O184 1.248 1_455 S
C187 O188 1.264 . S
C187 O195 1.249 . S
O188 C187 1.264 . S
O189 Mg182 1.986 . S
O189 C193 1.267 . S
O190 Mg185 2.032 . S
O190 C193 1.230 1_655 S
O191 Mg182 2.114 1_655 S
O191 C194 1.252 . S
O192 Mg182 2.251 1_655 S
O192 Mg185 2.079 . S
O192 C194 1.273 . S
C193 O189 1.267 . S
C193 O190 1.230 1_455 S
C194 O191 1.252 . S
C194 O192 1.273 . S
O195 Mg182 2.010 . S
O195 C187 1.249 . S
Mg196 O197 2.028 . S
Mg196 O203 1.986 . S
Mg196 O205 2.114 . S
Mg196 O206 2.251 . S
Mg196 O209 2.010 . S
O197 Mg196 2.028 . S
O197 C200 1.250 . S
O198 Mg199 2.028 . S
O198 C200 1.248 . S
Mg199 O198 2.028 . S
Mg199 O204 2.032 . S
Mg199 O206 2.079 . S
C200 O197 1.250 . S
C200 O198 1.248 . S
C201 O202 1.264 . S
C201 O209 1.249 . S
O202 C201 1.264 . S
O203 Mg196 1.986 . S
O203 C207 1.246 . S
O204 Mg199 2.032 . S
O204 C207 1.259 . S
O205 Mg196 2.114 . S
O205 C208 1.252 . S
O206 Mg196 2.251 . S
O206 Mg199 2.079 . S
O206 C208 1.273 . S
C207 O203 1.246 . S
C207 O204 1.259 . S
C208 O205 1.252 . S
C208 O206 1.273 . S
O209 Mg196 2.010 . S
O209 C201 1.249 . S
Mg210 O211 2.028 . S
Mg210 O217 1.986 . S
Mg210 O219 2.114 . S
Mg210 O220 2.251 . S
Mg210 O223 2.010 . S
O211 Mg210 2.028 . S
O211 C214 1.250 . S
O212 Mg213 2.028 . S
O212 C214 1.248 . S
Mg213 O212 2.028 . S
Mg213 O218 2.032 . S
Mg213 O220 2.079 . S
C214 O211 1.250 . S
C214 O212 1.248 . S
C215 O216 1.264 . S
C215 O223 1.249 . S
O216 C215 1.264 . S
O217 Mg210 1.986 . S
O217 C221 1.246 . S
O218 Mg213 2.032 . S
O218 C221 1.259 . S
O219 Mg210 2.114 . S
O219 C222 1.252 . S
O220 Mg210 2.251 . S
O220 Mg213 2.079 . S
O220 C222 1.273 . S
C221 O217 1.246 . S
C221 O218 1.259 . S
C222 O219 1.252 . S
C222 O220 1.273 . S
O223 Mg210 2.010 . S
O223 C215 1.249 . S
Mg224 O225 2.028 1_545 S
Mg224 O231 1.986 . S
Mg224 O233 2.114 1_545 S
Mg224 O234 2.251 . S
Mg224 O237 2.010 . S
O225 Mg224 2.028 1_565 S
O225 C228 1.250 . S
O226 Mg227 2.028 1_565 S
O226 C228 1.248 . S
Mg227 O226 2.028 1_545 S
Mg227 O232 2.032 . S
Mg227 O234 2.079 . S
C228 O225 1.250 . S
C228 O226 1.248 . S
C229 O230 1.264 . S
C229 O237 1.249 . S
O230 C229 1.264 . S
O231 Mg224 1.986 . S
O231 C235 1.246 . S
O232 Mg227 2.032 . S
O232 C235 1.259 . S
O233 Mg224 2.114 1_565 S
O233 C236 1.261 . S
O234 Mg224 2.251 . S
O234 Mg227 2.079 . S
O234 C236 1.260 1_545 S
C235 O231 1.246 . S
C235 O232 1.259 . S
C236 O233 1.261 . S
C236 O234 1.260 1_565 S
O237 Mg224 2.010 . S
O237 C229 1.249 . S
Mg238 O239 2.028 . S
Mg238 O245 1.986 . S
Mg238 O247 2.114 . S
Mg238 O248 2.251 . S
Mg238 O251 2.010 . S
O239 Mg238 2.028 . S
O239 C242 1.250 . S
O240 Mg241 2.028 . S
O240 C242 1.248 . S
Mg241 O240 2.028 . S
Mg241 O246 2.032 . S
Mg241 O248 2.079 . S
C242 O239 1.250 . S
C242 O240 1.248 . S
C243 O244 1.264 . S
C243 O251 1.249 . S
O244 C243 1.264 . S
O245 Mg238 1.986 . S
O245 C249 1.246 . S
O246 Mg241 2.032 . S
O246 C249 1.259 . S
O247 Mg238 2.114 . S
O247 C250 1.252 . S
O248 Mg238 2.251 . S
O248 Mg241 2.079 . S
O248 C250 1.273 . S
C249 O245 1.246 . S
C249 O246 1.259 . S
C250 O247 1.252 . S
C250 O248 1.273 . S
O251 Mg238 2.010 . S
O251 C243 1.249 . S
Mg252 O253 2.028 1_565 S
Mg252 O259 1.986 . S
Mg252 O261 2.114 1_565 S
Mg252 O262 2.251 1_565 S
Mg252 O265 2.010 . S
O253 Mg252 2.028 1_545 S
O253 C256 1.250 . S
O254 Mg255 2.028 . S
O254 C256 1.248 . S
Mg255 O254 2.028 . S
Mg255 O260 2.032 1_545 S
Mg255 O262 2.079 . S
C256 O253 1.250 . S
C256 O254 1.248 . S
C257 O258 1.264 . S
C257 O265 1.249 . S
O258 C257 1.264 . S
O259 Mg252 1.986 . S
O259 C263 1.246 . S
O260 Mg255 2.032 1_565 S
O260 C263 1.259 . S
O261 Mg252 2.114 1_545 S
O261 C264 1.252 . S
O262 Mg252 2.251 1_545 S
O262 Mg255 2.079 . S
O262 C264 1.273 . S
C263 O259 1.246 . S
C263 O260 1.259 . S
C264 O261 1.252 . S
C264 O262 1.273 . S
O265 Mg252 2.010 . S
O265 C257 1.249 . S
Mg266 O267 2.028 1_554 S
Mg266 O273 1.986 . S
Mg266 O275 2.114 . S
Mg266 O276 2.251 . S
Mg266 O279 2.010 . S
O267 Mg266 2.028 1_556 S
O267 C270 1.250 . S
O268 Mg269 2.028 1_556 S
O268 C270 1.248 . S
Mg269 O268 2.028 1_554 S
Mg269 O274 2.032 . S
Mg269 O276 2.079 . S
C270 O267 1.250 . S
C270 O268 1.248 . S
C271 O272 1.264 . S
C271 O279 1.249 . S
O272 C271 1.264 . S
O273 Mg266 1.986 . S
O273 C277 1.246 . S
O274 Mg269 2.032 . S
O274 C277 1.259 . S
O275 Mg266 2.114 . S
O275 C278 1.252 . S
O276 Mg266 2.251 . S
O276 Mg269 2.079 . S
O276 C278 1.273 . S
C277 O273 1.246 . S
C277 O274 1.259 . S
C278 O275 1.252 . S
C278 O276 1.273 . S
O279 Mg266 2.010 . S
O279 C271 1.249 . S
Mg280 O281 2.028 1_556 S
Mg280 O287 1.986 . S
Mg280 O289 2.114 1_556 S
Mg280 O290 2.251 . S
Mg280 O293 2.010 . S
O281 Mg280 2.028 1_554 S
O281 C284 1.250 . S
O282 Mg283 2.028 . S
O282 C284 1.248 . S
Mg283 O282 2.028 . S
Mg283 O288 2.032 1_554 S
Mg283 O290 2.079 1_554 S
C284 O281 1.250 . S
C284 O282 1.248 . S
C285 O286 1.264 . S
C285 O293 1.249 . S
O286 C285 1.264 . S
O287 Mg280 1.986 . S
O287 C291 1.246 . S
O288 Mg283 2.032 1_556 S
O288 C291 1.259 . S
O289 Mg280 2.114 1_554 S
O289 C292 1.252 . S
O290 Mg280 2.251 . S
O290 Mg283 2.079 1_556 S
O290 C292 1.273 1_556 S
C291 O287 1.246 . S
C291 O288 1.259 . S
C292 O289 1.252 . S
C292 O290 1.273 1_554 S
O293 Mg280 2.010 . S
O293 C285 1.249 . S
Mg294 O295 2.028 . S
Mg294 O301 1.986 . S
Mg294 O303 2.114 . S
Mg294 O304 2.251 . S
Mg294 O307 2.010 . S
O295 Mg294 2.028 . S
O295 C298 1.250 . S
O296 Mg297 2.028 . S
O296 C298 1.248 . S
Mg297 O296 2.028 . S
Mg297 O302 2.032 . S
Mg297 O304 2.079 . S
C298 O295 1.250 . S
C298 O296 1.248 . S
C299 O300 1.264 . S
C299 O307 1.249 . S
O300 C299 1.264 . S
O301 Mg294 1.986 . S
O301 C305 1.246 . S
O302 Mg297 2.032 . S
O302 C305 1.259 . S
O303 Mg294 2.114 . S
O303 C306 1.252 . S
O304 Mg294 2.251 . S
O304 Mg297 2.079 . S
O304 C306 1.273 . S
C305 O301 1.246 . S
C305 O302 1.259 . S
C306 O303 1.252 . S
C306 O304 1.273 . S
O307 Mg294 2.010 . S
O307 C299 1.249 . S
Mg308 O309 2.028 . S
Mg308 O315 1.986 . S
Mg308 O317 2.114 . S
Mg308 O318 2.251 . S
Mg308 O321 2.010 . S
O309 Mg308 2.028 . S
O309 C312 1.250 . S
O310 Mg311 2.028 . S
O310 C312 1.248 . S
Mg311 O310 2.028 . S
Mg311 O316 2.032 . S
Mg311 O318 2.079 . S
C312 O309 1.250 . S
C312 O310 1.248 . S
C313 O314 1.264 . S
C313 O321 1.249 . S
O314 C313 1.264 . S
O315 Mg308 1.986 . S
O315 C319 1.246 . S
O316 Mg311 2.032 . S
O316 C319 1.259 . S
O317 Mg308 2.114 . S
O317 C320 1.252 . S
O318 Mg308 2.251 . S
O318 Mg311 2.079 . S
O318 C320 1.273 . S
C319 O315 1.246 . S
C319 O316 1.259 . S
C320 O317 1.252 . S
C320 O318 1.273 . S
O321 Mg308 2.010 . S
O321 C313 1.249 . S
Mg322 O323 2.028 . S
Mg322 O329 1.986 . S
Mg322 O331 2.114 . S
Mg322 O332 2.251 . S
Mg322 O335 2.010 . S
O323 Mg322 2.028 . S
O323 C326 1.250 . S
O324 Mg325 2.028 . S
O324 C326 1.248 . S
Mg325 O324 2.028 . S
Mg325 O330 2.032 . S
Mg325 O332 2.079 . S
C326 O323 1.250 . S
C326 O324 1.248 . S
C327 O328 1.264 . S
C327 O335 1.249 . S
O328 C327 1.264 . S
O329 Mg322 1.986 . S
O329 C333 1.246 . S
O330 Mg325 2.032 . S
O330 C333 1.259 . S
O331 Mg322 2.114 . S
O331 C334 1.252 . S
O332 Mg322 2.251 . S
O332 Mg325 2.079 . S
O332 C334 1.273 . S
C333 O329 1.246 . S
C333 O330 1.259 . S
C334 O331 1.252 . S
C334 O332 1.273 . S
O335 Mg322 2.010 . S
O335 C327 1.249 . S
O336 Mn337 2.163 . S
O336 C350 1.244 . S
Mn337 O336 2.163 . S
Mn337 O340 2.160 1_445 S
Mn337 O341 2.221 1_455 S
Mn337 O343 2.163 1_454 S
Mn337 O345 2.160 1_545 S
Mn337 O355 2.227 1_545 S
O338 Mn339 2.087 1_556 S
O338 C350 1.256 1_566 S
Mn339 O338 2.087 1_554 S
Mn339 O346 2.089 . S
Mn339 O355 2.300 . S
Mn339 O356 2.251 1_554 S
O340 Mn337 2.160 1_665 S
O340 C351 1.239 . S
O341 Mn337 2.221 1_655 S
O341 Mn342 2.302 . S
O341 C352 1.278 . S
Mn342 O341 2.302 . S
Mn342 O344 2.093 . S
Mn342 O347 2.255 . S
Mn342 O348 2.066 1_554 S
O343 Mn337 2.163 1_656 S
O343 C353 1.244 . S
O344 Mn342 2.093 . S
O344 C351 1.256 1_545 S
O345 Mn337 2.160 1_565 S
O345 C354 1.239 . S
O346 Mn339 2.089 . S
O346 C354 1.256 . S
O347 Mn342 2.255 . S
O347 C352 1.241 . S
O348 Mn342 2.066 1_556 S
O348 C353 1.256 . S
C349 O355 1.256 1_556 S
C349 O356 1.241 . S
C350 O336 1.244 . S
C350 O338 1.256 1_544 S
C351 O340 1.239 . S
C351 O344 1.256 1_565 S
C352 O341 1.278 . S
C352 O347 1.241 . S
C353 O343 1.244 . S
C353 O348 1.256 . S
C354 O345 1.239 . S
C354 O346 1.256 . S
O355 Mn337 2.227 1_565 S
O355 Mn339 2.300 . S
O355 C349 1.256 1_554 S
O356 Mn339 2.251 1_556 S
O356 C349 1.241 . S
O357 Mn358 2.163 . S
O357 C371 1.244 . S
Mn358 O357 2.163 . S
Mn358 O361 2.160 . S
Mn358 O362 2.221 . S
Mn358 O364 2.163 . S
Mn358 O366 2.160 . S
Mn358 O376 2.221 . S
O359 Mn360 2.087 . S
O359 C371 1.256 . S
Mn360 O359 2.087 . S
Mn360 O367 2.089 . S
Mn360 O376 2.290 . S
Mn360 O377 2.251 . S
O361 Mn358 2.160 . S
O361 C372 1.239 . S
O362 Mn358 2.221 . S
O362 Mn363 2.290 . S
O362 C373 1.278 . S
Mn363 O362 2.290 . S
Mn363 O365 2.089 . S
Mn363 O368 2.251 . S
Mn363 O369 2.087 . S
O364 Mn358 2.163 . S
O364 C374 1.244 . S
O365 Mn363 2.089 . S
O365 C372 1.256 . S
O366 Mn358 2.160 . S
O366 C375 1.239 . S
O367 Mn360 2.089 . S
O367 C375 1.256 . S
O368 Mn363 2.251 . S
O368 C373 1.241 . S
O369 Mn363 2.087 . S
O369 C374 1.256 . S
C370 O376 1.278 . S
C370 O377 1.241 . S
C371 O357 1.244 . S
C371 O359 1.256 . S
C372 O361 1.239 . S
C372 O365 1.256 . S
C373 O362 1.278 . S
C373 O368 1.241 . S
C374 O364 1.244 . S
C374 O369 1.256 . S
C375 O366 1.239 . S
C375 O367 1.256 . S
O376 Mn358 2.221 . S
O376 Mn360 2.290 . S
O376 C370 1.278 . S
O377 Mn360 2.251 . S
O377 C370 1.241 . S
O378 Mn379 2.163 1_565 S
O378 C392 1.244 . S
Mn379 O378 2.163 1_545 S
Mn379 O382 2.160 . S
Mn379 O383 2.221 1_545 S
Mn379 O385 2.163 . S
Mn379 O387 2.160 . S
Mn379 O397 2.221 . S
O380 Mn381 2.087 . S
O380 C392 1.256 1_545 S
Mn381 O380 2.087 . S
Mn381 O388 2.089 . S
Mn381 O397 2.290 . S
Mn381 O398 2.251 . S
O382 Mn379 2.160 . S
O382 C393 1.239 . S
O383 Mn379 2.221 1_565 S
O383 Mn384 2.290 . S
O383 C394 1.278 . S
Mn384 O383 2.290 . S
Mn384 O386 2.089 1_565 S
Mn384 O389 2.251 . S
Mn384 O390 2.087 . S
O385 Mn379 2.163 . S
O385 C395 1.244 1_545 S
O386 Mn384 2.089 1_545 S
O386 C393 1.256 . S
O387 Mn379 2.160 . S
O387 C396 1.239 . S
O388 Mn381 2.089 . S
O388 C396 1.256 . S
O389 Mn384 2.251 . S
O389 C394 1.241 . S
O390 Mn384 2.087 . S
O390 C395 1.256 . S
C391 O397 1.278 . S
C391 O398 1.241 . S
C392 O378 1.244 . S
C392 O380 1.256 1_565 S
C393 O382 1.239 . S
C393 O386 1.256 . S
C394 O383 1.278 . S
C394 O389 1.241 . S
C395 O385 1.244 1_565 S
C395 O390 1.256 . S
C396 O387 1.239 . S
C396 O388 1.256 . S
O397 Mn379 2.221 . S
O397 Mn381 2.290 . S
O397 C391 1.278 . S
O398 Mn381 2.251 . S
O398 C391 1.241 . S
O399 Mn400 2.163 . S
O399 C413 1.244 . S
Mn400 O399 2.163 . S
Mn400 O403 2.160 . S
Mn400 O404 2.221 . S
Mn400 O406 2.163 . S
Mn400 O408 2.160 . S
Mn400 O418 2.221 . S
O401 Mn402 2.087 . S
O401 C413 1.256 . S
Mn402 O401 2.087 . S
Mn402 O409 2.089 . S
Mn402 O418 2.290 . S
Mn402 O419 2.251 . S
O403 Mn400 2.160 . S
O403 C414 1.239 . S
O404 Mn400 2.221 . S
O404 Mn405 2.290 . S
O404 C415 1.278 . S
Mn405 O404 2.290 . S
Mn405 O407 2.089 . S
Mn405 O410 2.251 . S
Mn405 O411 2.087 . S
O406 Mn400 2.163 . S
O406 C416 1.244 . S
O407 Mn405 2.089 . S
O407 C414 1.256 . S
O408 Mn400 2.160 . S
O408 C417 1.239 . S
O409 Mn402 2.089 . S
O409 C417 1.256 . S
O410 Mn405 2.251 . S
O410 C415 1.241 . S
O411 Mn405 2.087 . S
O411 C416 1.256 . S
C412 O418 1.278 . S
C412 O419 1.241 . S
C413 O399 1.244 . S
C413 O401 1.256 . S
C414 O403 1.239 . S
C414 O407 1.256 . S
C415 O404 1.278 . S
C415 O410 1.241 . S
C416 O406 1.244 . S
C416 O411 1.256 . S
C417 O408 1.239 . S
C417 O409 1.256 . S
O418 Mn400 2.221 . S
O418 Mn402 2.290 . S
O418 C412 1.278 . S
O419 Mn402 2.251 . S
O419 C412 1.241 . S
O420 Mn421 2.163 1_565 S
O420 C434 1.244 . S
Mn421 O420 2.163 1_545 S
Mn421 O424 2.160 . S
Mn421 O425 2.221 . S
Mn421 O427 2.163 1_455 S
Mn421 O429 2.160 1_545 S
Mn421 O439 2.221 1_545 S
O422 Mn423 2.086 . S
O422 C434 1.256 . S
Mn423 O422 2.086 . S
Mn423 O430 2.089 . S
Mn423 O439 2.290 . S
Mn423 O440 2.251 1_455 S
O424 Mn421 2.160 . S
O424 C435 1.239 . S
O425 Mn421 2.221 . S
O425 Mn426 2.290 . S
O425 C436 1.278 . S
Mn426 O425 2.290 . S
Mn426 O428 2.089 . S
Mn426 O431 2.251 . S
Mn426 O432 2.087 1_455 S
O427 Mn421 2.163 1_655 S
O427 C437 1.244 . S
O428 Mn426 2.089 . S
O428 C435 1.256 . S
O429 Mn421 2.160 1_565 S
O429 C438 1.239 . S
O430 Mn423 2.089 . S
O430 C438 1.256 . S
O431 Mn426 2.251 . S
O431 C436 1.241 . S
O432 Mn426 2.087 1_655 S
O432 C437 1.256 . S
C433 O439 1.278 1_655 S
C433 O440 1.241 . S
C434 O420 1.244 . S
C434 O422 1.256 . S
C435 O424 1.239 . S
C435 O428 1.256 . S
C436 O425 1.278 . S
C436 O431 1.241 . S
C437 O427 1.244 . S
C437 O432 1.256 . S
C438 O429 1.239 . S
C438 O430 1.256 . S
O439 Mn421 2.221 1_565 S
O439 Mn423 2.290 . S
O439 C433 1.278 1_455 S
O440 Mn423 2.251 1_655 S
O440 C433 1.241 . S
O441 Mn442 2.163 . S
O441 C455 1.244 . S
Mn442 O441 2.163 . S
Mn442 O445 2.160 . S
Mn442 O446 2.221 . S
Mn442 O448 2.163 . S
Mn442 O450 2.160 . S
Mn442 O460 2.221 . S
O443 Mn444 2.087 . S
O443 C455 1.256 . S
Mn444 O443 2.087 . S
Mn444 O451 2.089 . S
Mn444 O460 2.290 . S
Mn444 O461 2.251 . S
O445 Mn442 2.160 . S
O445 C456 1.239 . S
O446 Mn442 2.221 . S
O446 Mn447 2.290 . S
O446 C457 1.278 . S
Mn447 O446 2.290 . S
Mn447 O449 2.089 . S
Mn447 O452 2.251 . S
Mn447 O453 2.087 . S
O448 Mn442 2.163 . S
O448 C458 1.244 . S
O449 Mn447 2.089 . S
O449 C456 1.256 . S
O450 Mn442 2.160 . S
O450 C459 1.239 . S
O451 Mn444 2.089 . S
O451 C459 1.256 . S
O452 Mn447 2.251 . S
O452 C457 1.241 . S
O453 Mn447 2.087 . S
O453 C458 1.256 . S
C454 O460 1.278 . S
C454 O461 1.241 . S
C455 O441 1.244 . S
C455 O443 1.256 . S
C456 O445 1.239 . S
C456 O449 1.256 . S
C457 O446 1.278 . S
C457 O452 1.241 . S
C458 O448 1.244 . S
C458 O453 1.256 . S
C459 O450 1.239 . S
C459 O451 1.256 . S
O460 Mn442 2.221 . S
O460 Mn444 2.290 . S
O460 C454 1.278 . S
O461 Mn444 2.251 . S
O461 C454 1.241 . S
O462 Mn463 2.160 1_566 S
O462 C476 1.247 . S
Mn463 O462 2.160 1_544 S
Mn463 O466 2.160 . S
Mn463 O467 2.221 . S
Mn463 O469 2.163 1_545 S
Mn463 O471 2.160 1_554 S
Mn463 O481 2.215 1_544 S
O464 Mn465 2.087 1_565 S
O464 C476 1.256 . S
Mn465 O464 2.087 1_545 S
Mn465 O472 2.089 . S
Mn465 O481 2.279 1_545 S
Mn465 O482 2.251 1_545 S
O466 Mn463 2.160 . S
O466 C477 1.239 . S
O467 Mn463 2.221 . S
O467 Mn468 2.290 1_545 S
O467 C478 1.278 . S
Mn468 O467 2.290 1_565 S
Mn468 O470 2.089 1_565 S
Mn468 O473 2.251 1_565 S
Mn468 O474 2.087 . S
O469 Mn463 2.163 1_565 S
O469 C479 1.244 . S
O470 Mn468 2.089 1_545 S
O470 C477 1.256 . S
O471 Mn463 2.160 1_556 S
O471 C480 1.239 . S
O472 Mn465 2.089 . S
O472 C480 1.256 . S
O473 Mn468 2.251 1_545 S
O473 C478 1.241 . S
O474 Mn468 2.087 . S
O474 C479 1.256 . S
C475 O481 1.303 . S
C475 O482 1.241 . S
C476 O462 1.247 . S
C476 O464 1.256 . S
C477 O466 1.239 . S
C477 O470 1.256 . S
C478 O467 1.278 . S
C478 O473 1.241 . S
C479 O469 1.244 . S
C479 O474 1.256 . S
C480 O471 1.239 . S
C480 O472 1.256 . S
O481 Mn463 2.215 1_566 S
O481 Mn465 2.279 1_565 S
O481 C475 1.303 . S
O482 Mn465 2.251 1_565 S
O482 C475 1.241 . S
O483 Mn484 2.163 . S
O483 C497 1.244 . S
Mn484 O483 2.163 . S
Mn484 O487 2.160 . S
Mn484 O488 2.221 . S
Mn484 O490 2.163 . S
Mn484 O492 2.160 . S
Mn484 O502 2.221 . S
O485 Mn486 2.087 . S
O485 C497 1.256 . S
Mn486 O485 2.087 . S
Mn486 O493 2.089 . S
Mn486 O502 2.290 . S
Mn486 O503 2.251 . S
O487 Mn484 2.160 . S
O487 C498 1.239 . S
O488 Mn484 2.221 . S
O488 Mn489 2.290 . S
O488 C499 1.278 . S
Mn489 O488 2.290 . S
Mn489 O491 2.089 . S
Mn489 O494 2.251 . S
Mn489 O495 2.087 . S
O490 Mn484 2.163 . S
O490 C500 1.244 . S
O491 Mn489 2.089 . S
O491 C498 1.256 . S
O492 Mn484 2.160 . S
O492 C501 1.239 . S
O493 Mn486 2.089 . S
O493 C501 1.256 . S
O494 Mn489 2.251 . S
O494 C499 1.241 . S
O495 Mn489 2.087 . S
O495 C500 1.256 . S
C496 O502 1.278 . S
C496 O503 1.241 . S
C497 O483 1.244 . S
C497 O485 1.256 . S
C498 O487 1.239 . S
C498 O491 1.256 . S
C499 O488 1.278 . S
C499 O494 1.241 . S
C500 O490 1.244 . S
C500 O495 1.256 . S
C501 O492 1.239 . S
C501 O493 1.256 . S
O502 Mn484 2.221 . S
O502 Mn486 2.290 . S
O502 C496 1.278 . S
O503 Mn486 2.251 . S
O503 C496 1.241 . S
O504 Mn505 2.163 1_556 S
O504 C518 1.244 . S
Mn505 O504 2.163 1_554 S
Mn505 O508 2.160 . S
Mn505 O509 2.221 1_554 S
Mn505 O511 2.163 . S
Mn505 O513 2.160 . S
Mn505 O523 2.221 . S
O506 Mn507 2.087 . S
O506 C518 1.256 1_554 S
Mn507 O506 2.087 . S
Mn507 O514 2.089 . S
Mn507 O523 2.290 . S
Mn507 O524 2.251 . S
O508 Mn505 2.160 . S
O508 C519 1.239 . S
O509 Mn505 2.221 1_556 S
O509 Mn510 2.290 . S
O509 C520 1.278 . S
Mn510 O509 2.290 . S
Mn510 O512 2.089 1_556 S
Mn510 O515 2.251 . S
Mn510 O516 2.087 . S
O511 Mn505 2.163 . S
O511 C521 1.244 1_554 S
O512 Mn510 2.089 1_554 S
O512 C519 1.256 . S
O513 Mn505 2.160 . S
O513 C522 1.239 . S
O514 Mn507 2.089 . S
O514 C522 1.256 . S
O515 Mn510 2.251 . S
O515 C520 1.241 . S
O516 Mn510 2.087 . S
O516 C521 1.256 . S
C517 O523 1.278 . S
C517 O524 1.241 . S
C518 O504 1.244 . S
C518 O506 1.256 1_556 S
C519 O508 1.239 . S
C519 O512 1.256 . S
C520 O509 1.278 . S
C520 O515 1.241 . S
C521 O511 1.244 1_556 S
C521 O516 1.256 . S
C522 O513 1.239 . S
C522 O514 1.256 . S
O523 Mn505 2.221 . S
O523 Mn507 2.290 . S
O523 C517 1.278 . S
O524 Mn507 2.251 . S
O524 C517 1.241 . S
O525 Mn526 2.163 . S
O525 C539 1.244 . S
Mn526 O525 2.163 . S
Mn526 O529 2.160 . S
Mn526 O530 2.221 . S
Mn526 O532 2.163 . S
Mn526 O534 2.160 . S
Mn526 O544 2.221 . S
O527 Mn528 2.087 . S
O527 C539 1.256 . S
Mn528 O527 2.087 . S
Mn528 O535 2.089 . S
Mn528 O544 2.290 . S
Mn528 O545 2.251 . S
O529 Mn526 2.160 . S
O529 C540 1.239 . S
O530 Mn526 2.221 . S
O530 Mn531 2.290 . S
O530 C541 1.278 . S
Mn531 O530 2.290 . S
Mn531 O533 2.089 . S
Mn531 O536 2.251 . S
Mn531 O537 2.087 . S
O532 Mn526 2.163 . S
O532 C542 1.244 . S
O533 Mn531 2.089 . S
O533 C540 1.256 . S
O534 Mn526 2.160 . S
O534 C543 1.239 . S
O535 Mn528 2.089 . S
O535 C543 1.256 . S
O536 Mn531 2.251 . S
O536 C541 1.241 . S
O537 Mn531 2.087 . S
O537 C542 1.256 . S
C538 O544 1.278 . S
C538 O545 1.241 . S
C539 O525 1.244 . S
C539 O527 1.256 . S
C540 O529 1.239 . S
C540 O533 1.256 . S
C541 O530 1.278 . S
C541 O536 1.241 . S
C542 O532 1.244 . S
C542 O537 1.256 . S
C543 O534 1.239 . S
C543 O535 1.256 . S
O544 Mn526 2.221 . S
O544 Mn528 2.290 . S
O544 C538 1.278 . S
O545 Mn528 2.251 . S
O545 C538 1.241 . S
O546 Mn547 2.163 1_655 S
O546 C560 1.244 . S
Mn547 O546 2.163 1_455 S
Mn547 O550 2.160 . S
Mn547 O551 2.221 1_455 S
Mn547 O553 2.163 . S
Mn547 O555 2.160 . S
Mn547 O565 2.221 . S
O548 Mn549 2.087 . S
O548 C560 1.256 1_455 S
Mn549 O548 2.087 . S
Mn549 O556 2.089 . S
Mn549 O565 2.290 . S
Mn549 O566 2.251 . S
O550 Mn547 2.160 . S
O550 C561 1.239 . S
O551 Mn547 2.221 1_655 S
O551 Mn552 2.290 . S
O551 C562 1.278 . S
Mn552 O551 2.290 . S
Mn552 O554 2.073 1_655 S
Mn552 O557 2.251 . S
Mn552 O558 2.087 . S
O553 Mn547 2.163 . S
O553 C563 1.244 1_455 S
O554 Mn552 2.073 1_455 S
O554 C561 1.269 . S
O555 Mn547 2.160 . S
O555 C564 1.239 . S
O556 Mn549 2.089 . S
O556 C564 1.256 . S
O557 Mn552 2.251 . S
O557 C562 1.241 . S
O558 Mn552 2.087 . S
O558 C563 1.256 . S
C559 O565 1.278 . S
C559 O566 1.241 . S
C560 O546 1.244 . S
C560 O548 1.256 1_655 S
C561 O550 1.239 . S
C561 O554 1.269 . S
C562 O551 1.278 . S
C562 O557 1.241 . S
C563 O553 1.244 1_655 S
C563 O558 1.256 . S
C564 O555 1.239 . S
C564 O556 1.256 . S
O565 Mn547 2.221 . S
O565 Mn549 2.290 . S
O565 C559 1.278 . S
O566 Mn549 2.251 . S
O566 C559 1.241 . S
O567 Mn568 2.163 . S
O567 C581 1.244 . S
Mn568 O567 2.163 . S
Mn568 O571 2.160 . S
Mn568 O572 2.221 . S
Mn568 O574 2.163 . S
Mn568 O576 2.160 . S
Mn568 O586 2.221 . S
O569 Mn570 2.087 . S
O569 C581 1.256 . S
Mn570 O569 2.087 . S
Mn570 O577 2.089 . S
Mn570 O586 2.290 . S
Mn570 O587 2.251 . S
O571 Mn568 2.160 . S
O571 C582 1.239 . S
O572 Mn568 2.221 . S
O572 Mn573 2.290 . S
O572 C583 1.278 . S
Mn573 O572 2.290 . S
Mn573 O575 2.089 . S
Mn573 O578 2.251 . S
Mn573 O579 2.087 . S
O574 Mn568 2.163 . S
O574 C584 1.244 . S
O575 Mn573 2.089 . S
O575 C582 1.256 . S
O576 Mn568 2.160 . S
O576 C585 1.239 . S
O577 Mn570 2.089 . S
O577 C585 1.256 . S
O578 Mn573 2.251 . S
O578 C583 1.241 . S
O579 Mn573 2.087 . S
O579 C584 1.256 . S
C580 O586 1.278 . S
C580 O587 1.241 . S
C581 O567 1.244 . S
C581 O569 1.256 . S
C582 O571 1.239 . S
C582 O575 1.256 . S
C583 O572 1.278 . S
C583 O578 1.241 . S
C584 O574 1.244 . S
C584 O579 1.256 . S
C585 O576 1.239 . S
C585 O577 1.256 . S
O586 Mn568 2.221 . S
O586 Mn570 2.290 . S
O586 C580 1.278 . S
O587 Mn570 2.251 . S
O587 C580 1.241 . S
O588 Mn589 2.163 . S
O588 C602 1.244 . S
Mn589 O588 2.163 . S
Mn589 O592 2.160 . S
Mn589 O593 2.221 . S
Mn589 O595 2.163 . S
Mn589 O597 2.160 . S
Mn589 O607 2.221 . S
O590 Mn591 2.087 . S
O590 C602 1.256 . S
Mn591 O590 2.087 . S
Mn591 O598 2.089 . S
Mn591 O607 2.290 . S
Mn591 O608 2.251 . S
O592 Mn589 2.160 . S
O592 C603 1.239 . S
O593 Mn589 2.221 . S
O593 Mn594 2.290 . S
O593 C604 1.278 . S
Mn594 O593 2.290 . S
Mn594 O596 2.089 . S
Mn594 O599 2.251 . S
Mn594 O600 2.087 . S
O595 Mn589 2.163 . S
O595 C605 1.244 . S
O596 Mn594 2.089 . S
O596 C603 1.256 . S
O597 Mn589 2.160 . S
O597 C606 1.239 . S
O598 Mn591 2.089 . S
O598 C606 1.256 . S
O599 Mn594 2.251 . S
O599 C604 1.241 . S
O600 Mn594 2.087 . S
O600 C605 1.256 . S
C601 O607 1.278 . S
C601 O608 1.241 . S
C602 O588 1.244 . S
C602 O590 1.256 . S
C603 O592 1.239 . S
C603 O596 1.256 . S
C604 O593 1.278 . S
C604 O599 1.241 . S
C605 O595 1.244 . S
C605 O600 1.256 . S
C606 O597 1.239 . S
C606 O598 1.256 . S
O607 Mn589 2.221 . S
O607 Mn591 2.290 . S
O607 C601 1.278 . S
O608 Mn591 2.251 . S
O608 C601 1.241 . S
O609 Mn610 2.163 . S
O609 C623 1.244 . S
Mn610 O609 2.163 . S
Mn610 O613 2.160 . S
Mn610 O614 2.221 . S
Mn610 O616 2.163 . S
Mn610 O618 2.160 . S
Mn610 O628 2.221 . S
O611 Mn612 2.087 . S
O611 C623 1.256 . S
Mn612 O611 2.087 . S
Mn612 O619 2.089 . S
Mn612 O628 2.290 . S
Mn612 O629 2.251 . S
O613 Mn610 2.160 . S
O613 C624 1.239 . S
O614 Mn610 2.221 . S
O614 Mn615 2.290 . S
O614 C625 1.278 . S
Mn615 O614 2.290 . S
Mn615 O617 2.089 . S
Mn615 O620 2.251 . S
Mn615 O621 2.087 . S
O616 Mn610 2.163 . S
O616 C626 1.244 . S
O617 Mn615 2.089 . S
O617 C624 1.256 . S
O618 Mn610 2.160 . S
O618 C627 1.239 . S
O619 Mn612 2.089 . S
O619 C627 1.256 . S
O620 Mn615 2.251 . S
O620 C625 1.241 . S
O621 Mn615 2.087 . S
O621 C626 1.256 . S
C622 O628 1.278 . S
C622 O629 1.241 . S
C623 O609 1.244 . S
C623 O611 1.256 . S
C624 O613 1.239 . S
C624 O617 1.256 . S
C625 O614 1.278 . S
C625 O620 1.241 . S
C626 O616 1.244 . S
C626 O621 1.256 . S
C627 O618 1.239 . S
C627 O619 1.256 . S
O628 Mn610 2.221 . S
O628 Mn612 2.290 . S
O628 C622 1.278 . S
O629 Mn612 2.251 . S
O629 C622 1.241 . S
O630 Mn631 2.163 . S
O630 C644 1.244 . S
Mn631 O630 2.163 . S
Mn631 O634 2.160 . S
Mn631 O635 2.221 . S
Mn631 O637 2.163 . S
Mn631 O639 2.160 . S
Mn631 O649 2.221 . S
O632 Mn633 2.087 . S
O632 C644 1.256 . S
Mn633 O632 2.087 . S
Mn633 O640 2.089 . S
Mn633 O649 2.290 . S
Mn633 O650 2.251 . S
O634 Mn631 2.160 . S
O634 C645 1.239 . S
O635 Mn631 2.221 . S
O635 Mn636 2.290 . S
O635 C646 1.278 . S
Mn636 O635 2.290 . S
Mn636 O638 2.089 . S
Mn636 O641 2.251 . S
Mn636 O642 2.087 . S
O637 Mn631 2.163 . S
O637 C647 1.244 . S
O638 Mn636 2.089 . S
O638 C645 1.256 . S
O639 Mn631 2.160 . S
O639 C648 1.239 . S
O640 Mn633 2.089 . S
O640 C648 1.256 . S
O641 Mn636 2.251 . S
O641 C646 1.241 . S
O642 Mn636 2.087 . S
O642 C647 1.256 . S
C643 O649 1.278 . S
C643 O650 1.241 . S
C644 O630 1.244 . S
C644 O632 1.256 . S
C645 O634 1.239 . S
C645 O638 1.256 . S
C646 O635 1.278 . S
C646 O641 1.241 . S
C647 O637 1.244 . S
C647 O642 1.256 . S
C648 O639 1.239 . S
C648 O640 1.256 . S
O649 Mn631 2.221 . S
O649 Mn633 2.290 . S
O649 C643 1.278 . S
O650 Mn633 2.251 . S
O650 C643 1.241 . S
O651 Mn652 2.160 1_656 S
O651 C665 1.247 . S
Mn652 O651 2.160 1_454 S
Mn652 O655 2.160 . S
Mn652 O656 2.221 . S
Mn652 O658 2.163 1_554 S
Mn652 O660 2.160 1_455 S
Mn652 O670 2.217 1_454 S
O653 Mn654 2.087 1_556 S
O653 C665 1.256 . S
Mn654 O653 2.087 1_554 S
Mn654 O661 2.089 . S
Mn654 O670 2.283 1_554 S
Mn654 O671 2.251 1_554 S
O655 Mn652 2.160 . S
O655 C666 1.239 . S
O656 Mn652 2.221 . S
O656 Mn657 2.290 1_554 S
O656 C667 1.278 . S
Mn657 O656 2.290 1_556 S
Mn657 O659 2.089 1_556 S
Mn657 O662 2.251 1_556 S
Mn657 O663 2.087 . S
O658 Mn652 2.163 1_556 S
O658 C668 1.244 . S
O659 Mn657 2.089 1_554 S
O659 C666 1.256 . S
O660 Mn652 2.160 1_655 S
O660 C669 1.239 . S
O661 Mn654 2.089 . S
O661 C669 1.256 . S
O662 Mn657 2.251 1_554 S
O662 C667 1.241 . S
O663 Mn657 2.087 . S
O663 C668 1.256 . S
C664 O670 1.294 . S
C664 O671 1.241 . S
C665 O651 1.247 . S
C665 O653 1.256 . S
C666 O655 1.239 . S
C666 O659 1.256 . S
C667 O656 1.278 . S
C667 O662 1.241 . S
C668 O658 1.244 . S
C668 O663 1.256 . S
C669 O660 1.239 . S
C669 O661 1.256 . S
O670 Mn652 2.217 1_656 S
O670 Mn654 2.283 1_556 S
O670 C664 1.294 . S
O671 Mn654 2.251 1_556 S
O671 C664 1.241 . S
C672 C673 1.369 1_655 S
C672 C674 1.419 . S
C672 H676 0.930 . S
C673 C672 1.369 1_455 S
C673 C682 1.429 . S
C674 C672 1.419 . S
C674 C675 1.363 . S
C674 H677 0.929 . S
C675 C674 1.363 . S
C675 C681 1.428 1_655 S
H676 C672 0.930 . S
H677 C674 0.929 . S
S678 N679 1.613 . S
S678 N680 1.610 . S
N679 S678 1.613 . S
N679 C682 1.350 . S
N680 S678 1.610 . S
N680 C681 1.351 . S
C681 C675 1.428 1_455 S
C681 N680 1.351 . S
C681 C682 1.434 . S
C682 C673 1.429 . S
C682 N679 1.350 . S
C682 C681 1.434 . S
C683 C684 1.369 . S
C683 C685 1.419 . S
C683 H687 0.930 . S
C684 C683 1.369 . S
C684 C693 1.429 . S
C685 C683 1.419 . S
C685 C686 1.363 . S
C685 H688 0.929 . S
C686 C685 1.363 . S
C686 C692 1.428 . S
H687 C683 0.930 . S
H688 C685 0.929 . S
S689 N690 1.613 . S
S689 N691 1.610 . S
N690 S689 1.613 . S
N690 C693 1.350 . S
N691 S689 1.610 . S
N691 C692 1.351 . S
C692 C686 1.428 . S
C692 N691 1.351 . S
C692 C693 1.434 . S
C693 C684 1.429 . S
C693 N690 1.350 . S
C693 C692 1.434 . S
C694 C695 1.369 . S
C694 C696 1.419 . S
C694 H698 0.930 . S
C695 C694 1.369 . S
C695 C704 1.429 . S
C696 C694 1.419 . S
C696 C697 1.363 . S
C696 H699 0.929 . S
C697 C696 1.363 . S
C697 C703 1.428 . S
H698 C694 0.930 . S
H699 C696 0.929 . S
S700 N701 1.613 . S
S700 N702 1.610 . S
N701 S700 1.613 . S
N701 C704 1.350 . S
N702 S700 1.610 . S
N702 C703 1.351 . S
C703 C697 1.428 . S
C703 N702 1.351 . S
C703 C704 1.434 . S
C704 C695 1.429 . S
C704 N701 1.350 . S
C704 C703 1.434 . S
C705 C706 1.369 . S
C705 C707 1.419 . S
C705 H709 0.930 . S
C706 C705 1.369 . S
C706 C715 1.429 . S
C707 C705 1.419 . S
C707 C708 1.363 . S
C707 H710 0.929 . S
C708 C707 1.363 . S
C708 C714 1.428 . S
H709 C705 0.930 . S
H710 C707 0.929 . S
S711 N712 1.613 . S
S711 N713 1.610 . S
N712 S711 1.613 . S
N712 C715 1.350 . S
N713 S711 1.610 . S
N713 C714 1.351 . S
C714 C708 1.428 . S
C714 N713 1.351 . S
C714 C715 1.434 . S
C715 C706 1.429 . S
C715 N712 1.350 . S
C715 C714 1.434 . S
C716 C717 1.369 . S
C716 C718 1.419 . S
C716 H720 0.930 . S
C717 C716 1.369 . S
C717 C726 1.429 1_455 S
C718 C716 1.419 . S
C718 C719 1.363 . S
C718 H721 0.929 . S
C719 C718 1.363 . S
C719 C725 1.428 1_455 S
H720 C716 0.930 . S
H721 C718 0.929 . S
S722 N723 1.613 . S
S722 N724 1.610 . S
N723 S722 1.613 . S
N723 C726 1.350 . S
N724 S722 1.610 . S
N724 C725 1.351 . S
C725 C719 1.428 1_655 S
C725 N724 1.351 . S
C725 C726 1.434 . S
C726 C717 1.429 1_655 S
C726 N723 1.350 . S
C726 C725 1.434 . S
C727 C728 1.369 . S
C727 C729 1.419 . S
C727 H731 0.930 . S
C728 C727 1.369 . S
C728 C737 1.429 . S
C729 C727 1.419 . S
C729 C730 1.363 . S
C729 H732 0.929 . S
C730 C729 1.363 . S
C730 C736 1.428 . S
H731 C727 0.930 . S
H732 C729 0.929 . S
S733 N734 1.613 . S
S733 N735 1.610 . S
N734 S733 1.613 . S
N734 C737 1.350 . S
N735 S733 1.610 . S
N735 C736 1.351 . S
C736 C730 1.428 . S
C736 N735 1.351 . S
C736 C737 1.434 . S
C737 C728 1.429 . S
C737 N734 1.350 . S
C737 C736 1.434 . S
C738 C739 1.369 . S
C738 C740 1.419 . S
C738 H742 0.930 . S
C739 C738 1.369 . S
C739 C748 1.429 . S
C740 C738 1.419 . S
C740 C741 1.363 . S
C740 H743 0.929 . S
C741 C740 1.363 . S
C741 C747 1.428 . S
H742 C738 0.930 . S
H743 C740 0.929 . S
S744 N745 1.613 1_554 S
S744 N746 1.610 . S
N745 S744 1.613 1_556 S
N745 C748 1.350 . S
N746 S744 1.610 . S
N746 C747 1.351 1_554 S
C747 C741 1.428 . S
C747 N746 1.351 1_556 S
C747 C748 1.434 . S
C748 C739 1.429 . S
C748 N745 1.350 . S
C748 C747 1.434 . S
C749 C750 1.369 . S
C749 C751 1.419 . S
C749 H753 0.930 . S
C750 C749 1.369 . S
C750 C759 1.429 . S
C751 C749 1.419 . S
C751 C752 1.363 . S
C751 H754 0.929 . S
C752 C751 1.363 . S
C752 C758 1.428 . S
H753 C749 0.930 . S
H754 C751 0.929 . S
S755 N756 1.613 . S
S755 N757 1.610 . S
N756 S755 1.613 . S
N756 C759 1.350 . S
N757 S755 1.610 . S
N757 C758 1.351 . S
C758 C752 1.428 . S
C758 N757 1.351 . S
C758 C759 1.434 . S
C759 C750 1.429 . S
C759 N756 1.350 . S
C759 C758 1.434 . S
C760 C761 1.369 . S
C760 C762 1.419 . S
C760 H764 0.930 . S
C761 C760 1.369 . S
C761 C770 1.429 1_545 S
C762 C760 1.419 . S
C762 C763 1.363 1_545 S
C762 H765 0.929 . S
C763 C762 1.363 1_565 S
C763 C769 1.428 . S
H764 C760 0.930 . S
H765 C762 0.929 . S
S766 N767 1.613 . S
S766 N768 1.610 . S
N767 S766 1.613 . S
N767 C770 1.350 . S
N768 S766 1.610 . S
N768 C769 1.351 . S
C769 C763 1.428 . S
C769 N768 1.351 . S
C769 C770 1.434 . S
C770 C761 1.429 1_565 S
C770 N767 1.350 . S
C770 C769 1.434 . S
C771 C772 1.369 . S
C771 C773 1.419 . S
C771 H775 0.930 . S
C772 C771 1.369 . S
C772 C781 1.429 . S
C773 C771 1.419 . S
C773 C774 1.363 . S
C773 H776 0.929 . S
C774 C773 1.363 . S
C774 C780 1.428 . S
H775 C771 0.930 . S
H776 C773 0.929 . S
S777 N778 1.613 . S
S777 N779 1.610 . S
N778 S777 1.613 . S
N778 C781 1.350 . S
N779 S777 1.610 . S
N779 C780 1.351 . S
C780 C774 1.428 . S
C780 N779 1.351 . S
C780 C781 1.434 . S
C781 C772 1.429 . S
C781 N778 1.350 . S
C781 C780 1.434 . S
C782 C783 1.389 . S
C782 C784 1.419 . S
C782 H786 0.930 . S
C783 C782 1.389 . S
C783 C792 1.418 1_545 S
C784 C782 1.419 . S
C784 C785 1.363 . S
C784 H787 0.929 . S
C785 C784 1.363 . S
C785 C791 1.428 1_545 S
H786 C782 0.930 . S
H787 C784 0.929 . S
S788 N789 1.613 . S
S788 N790 1.610 . S
N789 S788 1.613 . S
N789 C792 1.350 . S
N790 S788 1.610 . S
N790 C791 1.351 . S
C791 C785 1.428 1_565 S
C791 N790 1.351 . S
C791 C792 1.434 . S
C792 C783 1.418 1_565 S
C792 N789 1.350 . S
C792 C791 1.434 . S
C793 C794 1.369 . S
C793 C795 1.419 . S
C793 H797 0.930 . S
C794 C793 1.369 . S
C794 C803 1.429 . S
C795 C793 1.419 . S
C795 C796 1.363 . S
C795 H798 0.929 . S
C796 C795 1.363 . S
C796 C802 1.428 . S
H797 C793 0.930 . S
H798 C795 0.929 . S
S799 N800 1.613 . S
S799 N801 1.610 . S
N800 S799 1.613 . S
N800 C803 1.350 . S
N801 S799 1.610 . S
N801 C802 1.351 . S
C802 C796 1.428 . S
C802 N801 1.351 . S
C802 C803 1.434 . S
C803 C794 1.429 . S
C803 N800 1.350 . S
C803 C802 1.434 . S
C804 C805 1.369 1_565 S
C804 C806 1.419 . S
C804 H808 0.930 . S
C805 C804 1.369 1_545 S
C805 C814 1.429 . S
C806 C804 1.419 . S
C806 C807 1.363 1_565 S
C806 H809 0.929 . S
C807 C806 1.363 1_545 S
C807 C813 1.428 . S
H808 C804 0.930 . S
H809 C806 0.929 . S
S810 N811 1.613 . S
S810 N812 1.610 . S
N811 S810 1.613 . S
N811 C814 1.350 . S
N812 S810 1.610 . S
N812 C813 1.351 . S
C813 C807 1.428 . S
C813 N812 1.351 . S
C813 C814 1.434 . S
C814 C805 1.429 . S
C814 N811 1.350 . S
C814 C813 1.434 . S
C815 C816 1.369 . S
C815 C817 1.419 . S
C815 H819 0.930 . S
C816 C815 1.369 . S
C816 C825 1.429 . S
C817 C815 1.419 . S
C817 C818 1.363 . S
C817 H820 0.929 . S
C818 C817 1.363 . S
C818 C824 1.428 . S
H819 C815 0.930 . S
H820 C817 0.929 . S
S821 N822 1.613 . S
S821 N823 1.610 . S
N822 S821 1.613 . S
N822 C825 1.350 . S
N823 S821 1.610 . S
N823 C824 1.351 . S
C824 C818 1.428 . S
C824 N823 1.351 . S
C824 C825 1.434 . S
C825 C816 1.429 . S
C825 N822 1.350 . S
C825 C824 1.434 . S
C826 C827 1.369 . S
C826 C828 1.419 . S
C826 H830 0.930 . S
C827 C826 1.369 . S
C827 C836 1.429 1_545 S
C828 C826 1.419 . S
C828 C829 1.363 1_545 S
C828 H831 0.929 . S
C829 C828 1.363 1_565 S
C829 C835 1.428 . S
H830 C826 0.930 . S
H831 C828 0.929 . S
S832 N833 1.613 . S
S832 N834 1.610 . S
N833 S832 1.613 . S
N833 C836 1.350 . S
N834 S832 1.610 . S
N834 C835 1.351 . S
C835 C829 1.428 . S
C835 N834 1.351 . S
C835 C836 1.434 . S
C836 C827 1.429 1_565 S
C836 N833 1.350 . S
C836 C835 1.434 . S
C837 C838 1.369 . S
C837 C839 1.419 . S
C837 H841 0.930 . S
C838 C837 1.369 . S
C838 C847 1.429 . S
C839 C837 1.419 . S
C839 C840 1.363 . S
C839 H842 0.929 . S
C840 C839 1.363 . S
C840 C846 1.428 . S
H841 C837 0.930 . S
H842 C839 0.929 . S
S843 N844 1.613 . S
S843 N845 1.610 . S
N844 S843 1.613 . S
N844 C847 1.350 . S
N845 S843 1.610 . S
N845 C846 1.351 . S
C846 C840 1.428 . S
C846 N845 1.351 . S
C846 C847 1.434 . S
C847 C838 1.429 . S
C847 N844 1.350 . S
C847 C846 1.434 . S
C848 C849 1.369 . S
C848 C850 1.419 . S
C848 H852 0.930 . S
C849 C848 1.369 . S
C849 C858 1.429 1_554 S
C850 C848 1.419 . S
C850 C851 1.363 . S
C850 H853 0.929 . S
C851 C850 1.363 . S
C851 C857 1.428 1_554 S
H852 C848 0.930 . S
H853 C850 0.929 . S
S854 N855 1.613 . S
S854 N856 1.610 . S
N855 S854 1.613 . S
N855 C858 1.350 . S
N856 S854 1.610 . S
N856 C857 1.351 . S
C857 C851 1.428 1_556 S
C857 N856 1.351 . S
C857 C858 1.434 . S
C858 C849 1.429 1_556 S
C858 N855 1.350 . S
C858 C857 1.434 . S
C859 C860 1.369 1_556 S
C859 C861 1.419 . S
C859 H863 0.930 . S
C860 C859 1.369 1_554 S
C860 C869 1.429 . S
C861 C859 1.419 . S
C861 C862 1.363 1_556 S
C861 H864 0.929 . S
C862 C861 1.363 1_554 S
C862 C868 1.428 . S
H863 C859 0.930 . S
H864 C861 0.929 . S
S865 N866 1.613 . S
S865 N867 1.610 . S
N866 S865 1.613 . S
N866 C869 1.350 . S
N867 S865 1.610 . S
N867 C868 1.351 . S
C868 C862 1.428 . S
C868 N867 1.351 . S
C868 C869 1.434 . S
C869 C860 1.429 . S
C869 N866 1.350 . S
C869 C868 1.434 . S
C870 C871 1.369 . S
C870 C872 1.419 . S
C870 H874 0.930 . S
C871 C870 1.369 . S
C871 C880 1.429 . S
C872 C870 1.419 . S
C872 C873 1.363 . S
C872 H875 0.929 . S
C873 C872 1.363 . S
C873 C879 1.428 . S
H874 C870 0.930 . S
H875 C872 0.929 . S
S876 N877 1.613 . S
S876 N878 1.610 . S
N877 S876 1.613 . S
N877 C880 1.350 . S
N878 S876 1.610 . S
N878 C879 1.351 . S
C879 C873 1.428 . S
C879 N878 1.351 . S
C879 C880 1.434 . S
C880 C871 1.429 . S
C880 N877 1.350 . S
C880 C879 1.434 . S
C881 C882 1.369 . S
C881 C883 1.419 . S
C881 H885 0.930 . S
C882 C881 1.369 . S
C882 C891 1.429 . S
C883 C881 1.419 . S
C883 C884 1.363 . S
C883 H886 0.929 . S
C884 C883 1.363 . S
C884 C890 1.428 . S
H885 C881 0.930 . S
H886 C883 0.929 . S
S887 N888 1.613 . S
S887 N889 1.610 . S
N888 S887 1.613 . S
N888 C891 1.350 . S
N889 S887 1.610 . S
N889 C890 1.351 . S
C890 C884 1.428 . S
C890 N889 1.351 . S
C890 C891 1.434 . S
C891 C882 1.429 . S
C891 N888 1.350 . S
C891 C890 1.434 . S
C892 C893 1.369 . S
C892 C894 1.419 . S
C892 H896 0.930 . S
C893 C892 1.369 . S
C893 C902 1.429 . S
C894 C892 1.419 . S
C894 C895 1.363 . S
C894 H897 0.929 . S
C895 C894 1.363 . S
C895 C901 1.428 . S
H896 C892 0.930 . S
H897 C894 0.929 . S
S898 N899 1.613 . S
S898 N900 1.610 . S
N899 S898 1.613 . S
N899 C902 1.350 . S
N900 S898 1.610 . S
N900 C901 1.351 . S
C901 C895 1.428 . S
C901 N900 1.351 . S
C901 C902 1.434 . S
C902 C893 1.429 . S
C902 N899 1.350 . S
C902 C901 1.434 . S
C903 C904 1.369 . S
C903 C905 1.419 . S
C903 H907 0.930 . S
C904 C903 1.369 . S
C904 C913 1.429 . S
C905 C903 1.419 . S
C905 C906 1.363 . S
C905 H908 0.929 . S
C906 C905 1.363 . S
C906 C912 1.428 . S
H907 C903 0.930 . S
H908 C905 0.929 . S
S909 N910 1.613 . S
S909 N911 1.610 . S
N910 S909 1.613 . S
N910 C913 1.350 . S
N911 S909 1.610 . S
N911 C912 1.351 . S
C912 C906 1.428 . S
C912 N911 1.351 . S
C912 C913 1.434 . S
C913 C904 1.429 . S
C913 N910 1.350 . S
C913 C912 1.434 . S
C914 C915 1.369 . S
C914 C916 1.419 . S
C914 H918 0.930 . S
C915 C914 1.369 . S
C915 C924 1.429 . S
C916 C914 1.419 . S
C916 C917 1.363 . S
C916 H919 0.929 . S
C917 C916 1.363 . S
C917 C923 1.428 . S
H918 C914 0.930 . S
H919 C916 0.929 . S
S920 N921 1.613 . S
S920 N922 1.610 . S
N921 S920 1.613 . S
N921 C924 1.350 . S
N922 S920 1.610 . S
N922 C923 1.351 . S
C923 C917 1.428 . S
C923 N922 1.351 . S
C923 C924 1.434 . S
C924 C915 1.429 . S
C924 N921 1.350 . S
C924 C923 1.434 . S
C925 C926 1.369 . S
C925 C927 1.419 . S
C925 H929 0.930 . S
C926 C925 1.369 . S
C926 C935 1.429 . S
C927 C925 1.419 . S
C927 C928 1.363 . S
C927 H930 0.929 . S
C928 C927 1.363 . S
C928 C934 1.428 . S
H929 C925 0.930 . S
H930 C927 0.929 . S
S931 N932 1.613 . S
S931 N933 1.610 . S
N932 S931 1.613 . S
N932 C935 1.350 . S
N933 S931 1.610 . S
N933 C934 1.351 . S
C934 C928 1.428 . S
C934 N933 1.351 . S
C934 C935 1.434 . S
C935 C926 1.429 . S
C935 N932 1.350 . S
C935 C934 1.434 . S
C936 C937 1.369 1_655 S
C936 C938 1.419 . S
C936 H940 0.930 . S
C937 C936 1.369 1_455 S
C937 C946 1.429 . S
C938 C936 1.419 . S
C938 C939 1.363 1_655 S
C938 H941 0.929 . S
C939 C938 1.363 1_455 S
C939 C945 1.428 . S
H940 C936 0.930 . S
H941 C938 0.929 . S
S942 N943 1.613 . S
S942 N944 1.610 . S
N943 S942 1.613 . S
N943 C946 1.350 . S
N944 S942 1.610 . S
N944 C945 1.351 . S
C945 C939 1.428 . S
C945 N944 1.351 . S
C945 C946 1.434 . S
C946 C937 1.429 . S
C946 N943 1.350 . S
C946 C945 1.434 . S
C947 C948 1.369 . S
C947 C949 1.419 . S
C947 H951 0.930 . S
C948 C947 1.369 . S
C948 C957 1.429 . S
C949 C947 1.419 . S
C949 C950 1.363 . S
C949 H952 0.929 . S
C950 C949 1.363 . S
C950 C956 1.428 . S
H951 C947 0.930 . S
H952 C949 0.929 . S
S953 N954 1.613 . S
S953 N955 1.610 . S
N954 S953 1.613 . S
N954 C957 1.350 . S
N955 S953 1.610 . S
N955 C956 1.351 . S
C956 C950 1.428 . S
C956 N955 1.351 . S
C956 C957 1.434 . S
C957 C948 1.429 . S
C957 N954 1.350 . S
C957 C956 1.434 . S
C958 C959 1.369 . S
C958 C960 1.419 . S
C958 H962 0.930 . S
C959 C958 1.369 . S
C959 C968 1.429 . S
C960 C958 1.419 . S
C960 C961 1.363 . S
C960 H963 0.929 . S
C961 C960 1.363 . S
C961 C967 1.428 . S
H962 C958 0.930 . S
H963 C960 0.929 . S
S964 N965 1.613 . S
S964 N966 1.610 . S
N965 S964 1.613 . S
N965 C968 1.350 . S
N966 S964 1.610 . S
N966 C967 1.351 . S
C967 C961 1.428 . S
C967 N966 1.351 . S
C967 C968 1.434 . S
C968 C959 1.429 . S
C968 N965 1.350 . S
C968 C967 1.434 . S
C969 C970 1.369 . S
C969 C971 1.419 . S
C969 H973 0.930 . S
C970 C969 1.369 . S
C970 C979 1.429 . S
C971 C969 1.419 . S
C971 C972 1.363 . S
C971 H974 0.929 . S
C972 C971 1.363 . S
C972 C978 1.428 . S
H973 C969 0.930 . S
H974 C971 0.929 . S
S975 N976 1.613 . S
S975 N977 1.610 . S
N976 S975 1.613 . S
N976 C979 1.350 . S
N977 S975 1.610 . S
N977 C978 1.351 . S
C978 C972 1.428 . S
C978 N977 1.351 . S
C978 C979 1.434 . S
C979 C970 1.429 . S
C979 N976 1.350 . S
C979 C978 1.434 . S
C980 C981 1.369 . S
C980 C982 1.419 . S
C980 H984 0.930 . S
C981 C980 1.369 . S
C981 C990 1.429 1_455 S
C982 C980 1.419 . S
C982 C983 1.363 . S
C982 H985 0.929 . S
C983 C982 1.363 . S
C983 C989 1.428 1_455 S
H984 C980 0.930 . S
H985 C982 0.929 . S
S986 N987 1.613 . S
S986 N988 1.610 . S
N987 S986 1.613 . S
N987 C990 1.350 . S
N988 S986 1.610 . S
N988 C989 1.351 . S
C989 C983 1.428 1_655 S
C989 N988 1.351 . S
C989 C990 1.434 . S
C990 C981 1.429 1_655 S
C990 N987 1.350 . S
C990 C989 1.434 . S
C991 C992 1.369 . S
C991 C993 1.419 . S
C991 H995 0.930 . S
C992 C991 1.369 . S
C992 C1001 1.429 . S
C993 C991 1.419 . S
C993 C994 1.363 . S
C993 H996 0.929 . S
C994 C993 1.363 . S
C994 C1000 1.428 . S
H995 C991 0.930 . S
H996 C993 0.929 . S
S997 N998 1.613 . S
S997 N999 1.610 . S
N998 S997 1.613 . S
N998 C1001 1.350 . S
N999 S997 1.610 . S
N999 C1000 1.351 . S
C1000 C994 1.428 . S
C1000 N999 1.351 . S
C1000 C1001 1.434 . S
C1001 C992 1.429 . S
C1001 N998 1.350 . S
C1001 C1000 1.434 . S
C1002 C1003 1.369 . S
C1002 C1004 1.419 . S
C1002 H1006 0.930 . S
C1003 C1002 1.369 . S
C1003 C1012 1.429 . S
C1004 C1002 1.419 . S
C1004 C1005 1.363 . S
C1004 H1007 0.929 . S
C1005 C1004 1.363 . S
C1005 C1011 1.428 . S
H1006 C1002 0.930 . S
H1007 C1004 0.929 . S
S1008 N1009 1.613 . S
S1008 N1010 1.610 . S
N1009 S1008 1.613 . S
N1009 C1012 1.350 . S
N1010 S1008 1.610 . S
N1010 C1011 1.351 . S
C1011 C1005 1.428 . S
C1011 N1010 1.351 . S
C1011 C1012 1.434 . S
C1012 C1003 1.429 . S
C1012 N1009 1.350 . S
C1012 C1011 1.434 . S
C1013 C1014 1.369 . S
C1013 C1015 1.419 . S
C1013 H1017 0.930 . S
C1014 C1013 1.369 . S
C1014 C1023 1.429 . S
C1015 C1013 1.419 . S
C1015 C1016 1.363 . S
C1015 H1018 0.929 . S
C1016 C1015 1.363 . S
C1016 C1022 1.428 . S
H1017 C1013 0.930 . S
H1018 C1015 0.929 . S
S1019 N1020 1.613 . S
S1019 N1021 1.610 . S
N1020 S1019 1.613 . S
N1020 C1023 1.350 . S
N1021 S1019 1.610 . S
N1021 C1022 1.351 . S
C1022 C1016 1.428 . S
C1022 N1021 1.351 . S
C1022 C1023 1.434 . S
C1023 C1014 1.429 . S
C1023 N1020 1.350 . S
C1023 C1022 1.434 . S
C1024 C1025 1.369 1_565 S
C1024 C1026 1.419 . S
C1024 H1028 0.930 . S
C1025 C1024 1.369 1_545 S
C1025 C1034 1.429 . S
C1026 C1024 1.419 . S
C1026 C1027 1.363 1_565 S
C1026 H1029 0.929 . S
C1027 C1026 1.363 1_545 S
C1027 C1033 1.428 . S
H1028 C1024 0.930 . S
H1029 C1026 0.929 . S
S1030 N1031 1.613 . S
S1030 N1032 1.610 . S
N1031 S1030 1.613 . S
N1031 C1034 1.350 . S
N1032 S1030 1.610 . S
N1032 C1033 1.351 . S
C1033 C1027 1.428 . S
C1033 N1032 1.351 . S
C1033 C1034 1.434 . S
C1034 C1025 1.429 . S
C1034 N1031 1.350 . S
C1034 C1033 1.434 . S
C1035 C1036 1.369 . S
C1035 C1037 1.419 . S
C1035 H1039 0.930 . S
C1036 C1035 1.369 . S
C1036 C1045 1.429 . S
C1037 C1035 1.419 . S
C1037 C1038 1.363 . S
C1037 H1040 0.929 . S
C1038 C1037 1.363 . S
C1038 C1044 1.428 . S
H1039 C1035 0.930 . S
H1040 C1037 0.929 . S
S1041 N1042 1.613 . S
S1041 N1043 1.610 . S
N1042 S1041 1.613 . S
N1042 C1045 1.350 . S
N1043 S1041 1.610 . S
N1043 C1044 1.351 . S
C1044 C1038 1.428 . S
C1044 N1043 1.351 . S
C1044 C1045 1.434 . S
C1045 C1036 1.429 . S
C1045 N1042 1.350 . S
C1045 C1044 1.434 . S
C1046 C1047 1.369 . S
C1046 C1048 1.419 . S
C1046 H1050 0.930 . S
C1047 C1046 1.369 . S
C1047 C1056 1.429 1_545 S
C1048 C1046 1.419 . S
C1048 C1049 1.363 1_545 S
C1048 H1051 0.929 . S
C1049 C1048 1.363 1_565 S
C1049 C1055 1.428 . S
H1050 C1046 0.930 . S
H1051 C1048 0.929 . S
S1052 N1053 1.613 . S
S1052 N1054 1.610 . S
N1053 S1052 1.613 . S
N1053 C1056 1.350 . S
N1054 S1052 1.610 . S
N1054 C1055 1.351 . S
C1055 C1049 1.428 . S
C1055 N1054 1.351 . S
C1055 C1056 1.434 . S
C1056 C1047 1.429 1_565 S
C1056 N1053 1.350 . S
C1056 C1055 1.434 . S
C1057 C1058 1.369 . S
C1057 C1059 1.419 . S
C1057 H1061 0.930 . S
C1058 C1057 1.369 . S
C1058 C1067 1.429 . S
C1059 C1057 1.419 . S
C1059 C1060 1.363 . S
C1059 H1062 0.929 . S
C1060 C1059 1.363 . S
C1060 C1066 1.428 . S
H1061 C1057 0.930 . S
H1062 C1059 0.929 . S
S1063 N1064 1.613 . S
S1063 N1065 1.610 . S
N1064 S1063 1.613 . S
N1064 C1067 1.350 . S
N1065 S1063 1.610 . S
N1065 C1066 1.351 . S
C1066 C1060 1.428 . S
C1066 N1065 1.351 . S
C1066 C1067 1.434 . S
C1067 C1058 1.429 . S
C1067 N1064 1.350 . S
C1067 C1066 1.434 . S
C1068 C1069 1.369 . S
C1068 C1070 1.419 . S
C1068 H1072 0.930 . S
C1069 C1068 1.369 . S
C1069 C1078 1.429 1_565 S
C1070 C1068 1.419 . S
C1070 C1071 1.363 . S
C1070 H1073 0.929 . S
C1071 C1070 1.363 . S
C1071 C1077 1.428 1_565 S
H1072 C1068 0.930 . S
H1073 C1070 0.929 . S
S1074 N1075 1.613 . S
S1074 N1076 1.610 . S
N1075 S1074 1.613 . S
N1075 C1078 1.350 . S
N1076 S1074 1.610 . S
N1076 C1077 1.351 . S
C1077 C1071 1.428 1_545 S
C1077 N1076 1.351 . S
C1077 C1078 1.434 . S
C1078 C1069 1.429 1_545 S
C1078 N1075 1.350 . S
C1078 C1077 1.434 . S
C1079 C1080 1.369 . S
C1079 C1081 1.419 . S
C1079 H1083 0.930 . S
C1080 C1079 1.369 . S
C1080 C1089 1.429 . S
C1081 C1079 1.419 . S
C1081 C1082 1.363 . S
C1081 H1084 0.929 . S
C1082 C1081 1.363 . S
C1082 C1088 1.428 . S
H1083 C1079 0.930 . S
H1084 C1081 0.929 . S
S1085 N1086 1.613 . S
S1085 N1087 1.610 . S
N1086 S1085 1.613 . S
N1086 C1089 1.350 . S
N1087 S1085 1.610 . S
N1087 C1088 1.351 . S
C1088 C1082 1.428 . S
C1088 N1087 1.351 . S
C1088 C1089 1.434 . S
C1089 C1080 1.429 . S
C1089 N1086 1.350 . S
C1089 C1088 1.434 . S
C1090 C1091 1.369 1_565 S
C1090 C1092 1.419 . S
C1090 H1094 0.930 . S
C1091 C1090 1.369 1_545 S
C1091 C1100 1.429 . S
C1092 C1090 1.419 . S
C1092 C1093 1.363 1_565 S
C1092 H1095 0.929 . S
C1093 C1092 1.363 1_545 S
C1093 C1099 1.428 . S
H1094 C1090 0.930 . S
H1095 C1092 0.929 . S
S1096 N1097 1.613 . S
S1096 N1098 1.610 . S
N1097 S1096 1.613 . S
N1097 C1100 1.350 . S
N1098 S1096 1.610 . S
N1098 C1099 1.351 . S
C1099 C1093 1.428 . S
C1099 N1098 1.351 . S
C1099 C1100 1.434 . S
C1100 C1091 1.429 . S
C1100 N1097 1.350 . S
C1100 C1099 1.434 . S
C1101 C1102 1.369 . S
C1101 C1103 1.419 . S
C1101 H1105 0.930 . S
C1102 C1101 1.369 . S
C1102 C1111 1.429 . S
C1103 C1101 1.419 . S
C1103 C1104 1.363 . S
C1103 H1106 0.929 . S
C1104 C1103 1.363 . S
C1104 C1110 1.428 . S
H1105 C1101 0.930 . S
H1106 C1103 0.929 . S
S1107 N1108 1.613 . S
S1107 N1109 1.610 . S
N1108 S1107 1.613 . S
N1108 C1111 1.350 . S
N1109 S1107 1.610 . S
N1109 C1110 1.351 . S
C1110 C1104 1.428 . S
C1110 N1109 1.351 . S
C1110 C1111 1.434 . S
C1111 C1102 1.429 . S
C1111 N1108 1.350 . S
C1111 C1110 1.434 . S
C1112 C1113 1.369 1_556 S
C1112 C1114 1.423 . S
C1112 H1116 0.930 . S
C1113 C1112 1.369 1_554 S
C1113 C1122 1.429 . S
C1114 C1112 1.423 . S
C1114 C1115 1.342 1_556 S
C1114 H1117 0.948 . S
C1115 C1114 1.342 1_554 S
C1115 C1121 1.428 . S
H1116 C1112 0.930 . S
H1117 C1114 0.948 . S
S1118 N1119 1.613 1_545 S
S1118 N1120 1.610 . S
N1119 S1118 1.613 1_565 S
N1119 C1122 1.350 . S
N1120 S1118 1.610 . S
N1120 C1121 1.351 1_545 S
C1121 C1115 1.428 . S
C1121 N1120 1.351 1_565 S
C1121 C1122 1.434 . S
C1122 C1113 1.429 . S
C1122 N1119 1.350 . S
C1122 C1121 1.434 . S
C1123 C1124 1.369 1_556 S
C1123 C1125 1.419 . S
C1123 H1127 0.930 . S
C1124 C1123 1.369 1_554 S
C1124 C1133 1.429 . S
C1125 C1123 1.419 . S
C1125 C1126 1.363 . S
C1125 H1128 0.929 . S
C1126 C1125 1.363 . S
C1126 C1132 1.428 1_556 S
H1127 C1123 0.930 . S
H1128 C1125 0.929 . S
S1129 N1130 1.613 . S
S1129 N1131 1.610 . S
N1130 S1129 1.613 . S
N1130 C1133 1.350 . S
N1131 S1129 1.610 . S
N1131 C1132 1.351 . S
C1132 C1126 1.428 1_554 S
C1132 N1131 1.351 . S
C1132 C1133 1.434 . S
C1133 C1124 1.429 . S
C1133 N1130 1.350 . S
C1133 C1132 1.434 . S
C1134 C1135 1.369 . S
C1134 C1136 1.419 . S
C1134 H1138 0.930 . S
C1135 C1134 1.369 . S
C1135 C1144 1.429 . S
C1136 C1134 1.419 . S
C1136 C1137 1.363 . S
C1136 H1139 0.929 . S
C1137 C1136 1.363 . S
C1137 C1143 1.428 . S
H1138 C1134 0.930 . S
H1139 C1136 0.929 . S
S1140 N1141 1.613 . S
S1140 N1142 1.610 . S
N1141 S1140 1.613 . S
N1141 C1144 1.350 . S
N1142 S1140 1.610 . S
N1142 C1143 1.351 . S
C1143 C1137 1.428 . S
C1143 N1142 1.351 . S
C1143 C1144 1.434 . S
C1144 C1135 1.429 . S
C1144 N1141 1.350 . S
C1144 C1143 1.434 . S
C1145 C1146 1.369 . S
C1145 C1147 1.419 . S
C1145 H1149 0.930 . S
C1146 C1145 1.369 . S
C1146 C1155 1.429 . S
C1147 C1145 1.419 . S
C1147 C1148 1.363 . S
C1147 H1150 0.929 . S
C1148 C1147 1.363 . S
C1148 C1154 1.428 . S
H1149 C1145 0.930 . S
H1150 C1147 0.929 . S
S1151 N1152 1.613 . S
S1151 N1153 1.610 . S
N1152 S1151 1.613 . S
N1152 C1155 1.350 . S
N1153 S1151 1.610 . S
N1153 C1154 1.351 . S
C1154 C1148 1.428 . S
C1154 N1153 1.351 . S
C1154 C1155 1.434 . S
C1155 C1146 1.429 . S
C1155 N1152 1.350 . S
C1155 C1154 1.434 . S
C1156 C1157 1.369 . S
C1156 C1158 1.419 . S
C1156 H1160 0.930 . S
C1157 C1156 1.369 . S
C1157 C1166 1.429 . S
C1158 C1156 1.419 . S
C1158 C1159 1.363 . S
C1158 H1161 0.929 . S
C1159 C1158 1.363 . S
C1159 C1165 1.428 . S
H1160 C1156 0.930 . S
H1161 C1158 0.929 . S
S1162 N1163 1.613 . S
S1162 N1164 1.610 . S
N1163 S1162 1.613 . S
N1163 C1166 1.350 . S
N1164 S1162 1.610 . S
N1164 C1165 1.351 . S
C1165 C1159 1.428 . S
C1165 N1164 1.351 . S
C1165 C1166 1.434 . S
C1166 C1157 1.429 . S
C1166 N1163 1.350 . S
C1166 C1165 1.434 . S
C1167 C1168 1.369 . S
C1167 C1169 1.419 . S
C1167 H1171 0.930 . S
C1168 C1167 1.369 . S
C1168 C1177 1.429 . S
C1169 C1167 1.419 . S
C1169 C1170 1.363 . S
C1169 H1172 0.929 . S
C1170 C1169 1.363 . S
C1170 C1176 1.428 . S
H1171 C1167 0.930 . S
H1172 C1169 0.929 . S
S1173 N1174 1.613 . S
S1173 N1175 1.610 . S
N1174 S1173 1.613 . S
N1174 C1177 1.350 . S
N1175 S1173 1.610 . S
N1175 C1176 1.351 . S
C1176 C1170 1.428 . S
C1176 N1175 1.351 . S
C1176 C1177 1.434 . S
C1177 C1168 1.429 . S
C1177 N1174 1.350 . S
C1177 C1176 1.434 . S
C1178 C1179 1.369 . S
C1178 C1180 1.419 . S
C1178 H1182 0.930 . S
C1179 C1178 1.369 . S
C1179 C1188 1.429 . S
C1180 C1178 1.419 . S
C1180 C1181 1.363 . S
C1180 H1183 0.929 . S
C1181 C1180 1.363 . S
C1181 C1187 1.428 . S
H1182 C1178 0.930 . S
H1183 C1180 0.929 . S
S1184 N1185 1.613 . S
S1184 N1186 1.610 . S
N1185 S1184 1.613 . S
N1185 C1188 1.350 . S
N1186 S1184 1.610 . S
N1186 C1187 1.351 . S
C1187 C1181 1.428 . S
C1187 N1186 1.351 . S
C1187 C1188 1.434 . S
C1188 C1179 1.429 . S
C1188 N1185 1.350 . S
C1188 C1187 1.434 . S
C1189 C1190 1.369 . S
C1189 C1191 1.419 . S
C1189 H1193 0.930 . S
C1190 C1189 1.369 . S
C1190 C1199 1.429 . S
C1191 C1189 1.419 . S
C1191 C1192 1.363 . S
C1191 H1194 0.929 . S
C1192 C1191 1.363 . S
C1192 C1198 1.428 . S
H1193 C1189 0.930 . S
H1194 C1191 0.929 . S
S1195 N1196 1.613 . S
S1195 N1197 1.610 . S
N1196 S1195 1.613 . S
N1196 C1199 1.350 . S
N1197 S1195 1.610 . S
N1197 C1198 1.351 . S
C1198 C1192 1.428 . S
C1198 N1197 1.351 . S
C1198 C1199 1.434 . S
C1199 C1190 1.429 . S
C1199 N1196 1.350 . S
C1199 C1198 1.434 . S
C1200 C1201 1.369 . S
C1200 C1202 1.419 . S
C1200 H1204 0.930 . S
C1201 C1200 1.369 . S
C1201 C1210 1.429 . S
C1202 C1200 1.419 . S
C1202 C1203 1.363 . S
C1202 H1205 0.929 . S
C1203 C1202 1.363 . S
C1203 C1209 1.428 . S
H1204 C1200 0.930 . S
H1205 C1202 0.929 . S
S1206 N1207 1.613 . S
S1206 N1208 1.610 . S
N1207 S1206 1.613 . S
N1207 C1210 1.350 . S
N1208 S1206 1.610 . S
N1208 C1209 1.351 . S
C1209 C1203 1.428 . S
C1209 N1208 1.351 . S
C1209 C1210 1.434 . S
C1210 C1201 1.429 . S
C1210 N1207 1.350 . S
C1210 C1209 1.434 . S
C1211 C1212 1.369 . S
C1211 C1213 1.419 . S
C1211 H1215 0.930 . S
C1212 C1211 1.369 . S
C1212 C1221 1.429 . S
C1213 C1211 1.419 . S
C1213 C1214 1.363 . S
C1213 H1216 0.929 . S
C1214 C1213 1.363 . S
C1214 C1220 1.428 . S
H1215 C1211 0.930 . S
H1216 C1213 0.929 . S
S1217 N1218 1.613 . S
S1217 N1219 1.610 . S
N1218 S1217 1.613 . S
N1218 C1221 1.350 . S
N1219 S1217 1.610 . S
N1219 C1220 1.351 . S
C1220 C1214 1.428 . S
C1220 N1219 1.351 . S
C1220 C1221 1.434 . S
C1221 C1212 1.429 . S
C1221 N1218 1.350 . S
C1221 C1220 1.434 . S
C1222 C1223 1.369 . S
C1222 C1224 1.419 . S
C1222 H1226 0.930 . S
C1223 C1222 1.369 . S
C1223 C1232 1.429 1_455 S
C1224 C1222 1.419 . S
C1224 C1225 1.363 . S
C1224 H1227 0.929 . S
C1225 C1224 1.363 . S
C1225 C1231 1.428 1_455 S
H1226 C1222 0.930 . S
H1227 C1224 0.929 . S
S1228 N1229 1.613 . S
S1228 N1230 1.610 . S
N1229 S1228 1.613 . S
N1229 C1232 1.350 . S
N1230 S1228 1.610 . S
N1230 C1231 1.351 . S
C1231 C1225 1.428 1_655 S
C1231 N1230 1.351 . S
C1231 C1232 1.434 . S
C1232 C1223 1.429 1_655 S
C1232 N1229 1.350 . S
C1232 C1231 1.434 . S
C1233 C1234 1.369 . S
C1233 C1235 1.419 . S
C1233 H1237 0.930 . S
C1234 C1233 1.369 . S
C1234 C1243 1.429 . S
C1235 C1233 1.419 . S
C1235 C1236 1.363 . S
C1235 H1238 0.929 . S
C1236 C1235 1.363 . S
C1236 C1242 1.428 . S
H1237 C1233 0.930 . S
H1238 C1235 0.929 . S
S1239 N1240 1.613 . S
S1239 N1241 1.610 . S
N1240 S1239 1.613 . S
N1240 C1243 1.350 . S
N1241 S1239 1.610 . S
N1241 C1242 1.351 . S
C1242 C1236 1.428 . S
C1242 N1241 1.351 . S
C1242 C1243 1.434 . S
C1243 C1234 1.429 . S
C1243 N1240 1.350 . S
C1243 C1242 1.434 . S
C1244 C1245 1.369 . S
C1244 C1246 1.419 . S
C1244 H1248 0.930 . S
C1245 C1244 1.369 . S
C1245 C1254 1.429 . S
C1246 C1244 1.419 . S
C1246 C1247 1.363 . S
C1246 H1249 0.929 . S
C1247 C1246 1.363 . S
C1247 C1253 1.428 . S
H1248 C1244 0.930 . S
H1249 C1246 0.929 . S
S1250 N1251 1.613 . S
S1250 N1252 1.610 . S
N1251 S1250 1.613 . S
N1251 C1254 1.350 . S
N1252 S1250 1.610 . S
N1252 C1253 1.351 . S
C1253 C1247 1.428 . S
C1253 N1252 1.351 . S
C1253 C1254 1.434 . S
C1254 C1245 1.429 . S
C1254 N1251 1.350 . S
C1254 C1253 1.434 . S
C1255 C1256 1.369 . S
C1255 C1257 1.419 . S
C1255 H1259 0.930 . S
C1256 C1255 1.369 . S
C1256 C1265 1.429 . S
C1257 C1255 1.419 . S
C1257 C1258 1.363 . S
C1257 H1260 0.929 . S
C1258 C1257 1.363 . S
C1258 C1264 1.428 . S
H1259 C1255 0.930 . S
H1260 C1257 0.929 . S
S1261 N1262 1.613 . S
S1261 N1263 1.610 . S
N1262 S1261 1.613 . S
N1262 C1265 1.350 . S
N1263 S1261 1.610 . S
N1263 C1264 1.351 . S
C1264 C1258 1.428 . S
C1264 N1263 1.351 . S
C1264 C1265 1.434 . S
C1265 C1256 1.429 . S
C1265 N1262 1.350 . S
C1265 C1264 1.434 . S
C1266 C1267 1.369 1_655 S
C1266 C1268 1.419 . S
C1266 H1270 0.930 . S
C1267 C1266 1.369 1_455 S
C1267 C1276 1.429 . S
C1268 C1266 1.419 . S
C1268 C1269 1.363 1_655 S
C1268 H1271 0.929 . S
C1269 C1268 1.363 1_455 S
C1269 C1275 1.428 . S
H1270 C1266 0.930 . S
H1271 C1268 0.929 . S
S1272 N1273 1.613 . S
S1272 N1274 1.610 . S
N1273 S1272 1.613 . S
N1273 C1276 1.350 . S
N1274 S1272 1.610 . S
N1274 C1275 1.351 . S
C1275 C1269 1.428 . S
C1275 N1274 1.351 . S
C1275 C1276 1.434 . S
C1276 C1267 1.429 . S
C1276 N1273 1.350 . S
C1276 C1275 1.434 . S
C1277 C1278 1.369 . S
C1277 C1279 1.419 . S
C1277 H1281 0.930 . S
C1278 C1277 1.369 . S
C1278 C1287 1.429 . S
C1279 C1277 1.419 . S
C1279 C1280 1.363 . S
C1279 H1282 0.929 . S
C1280 C1279 1.363 . S
C1280 C1286 1.428 . S
H1281 C1277 0.930 . S
H1282 C1279 0.929 . S
S1283 N1284 1.613 . S
S1283 N1285 1.610 . S
N1284 S1283 1.613 . S
N1284 C1287 1.350 . S
N1285 S1283 1.610 . S
N1285 C1286 1.351 . S
C1286 C1280 1.428 . S
C1286 N1285 1.351 . S
C1286 C1287 1.434 . S
C1287 C1278 1.429 . S
C1287 N1284 1.350 . S
C1287 C1286 1.434 . S
C1288 C1289 1.369 . S
C1288 C1290 1.419 . S
C1288 H1292 0.930 . S
C1289 C1288 1.369 . S
C1289 C1298 1.429 . S
C1290 C1288 1.419 . S
C1290 C1291 1.363 . S
C1290 H1293 0.929 . S
C1291 C1290 1.363 . S
C1291 C1297 1.428 . S
H1292 C1288 0.930 . S
H1293 C1290 0.929 . S
S1294 N1295 1.613 . S
S1294 N1296 1.610 . S
N1295 S1294 1.613 . S
N1295 C1298 1.350 . S
N1296 S1294 1.610 . S
N1296 C1297 1.351 . S
C1297 C1291 1.428 . S
C1297 N1296 1.351 . S
C1297 C1298 1.434 . S
C1298 C1289 1.429 . S
C1298 N1295 1.350 . S
C1298 C1297 1.434 . S
C1299 C1300 1.369 . S
C1299 C1301 1.419 . S
C1299 H1303 0.930 . S
C1300 C1299 1.369 . S
C1300 C1309 1.429 . S
C1301 C1299 1.419 . S
C1301 C1302 1.363 . S
C1301 H1304 0.929 . S
C1302 C1301 1.363 . S
C1302 C1308 1.428 . S
H1303 C1299 0.930 . S
H1304 C1301 0.929 . S
S1305 N1306 1.613 . S
S1305 N1307 1.610 . S
N1306 S1305 1.613 . S
N1306 C1309 1.350 . S
N1307 S1305 1.610 . S
N1307 C1308 1.351 . S
C1308 C1302 1.428 . S
C1308 N1307 1.351 . S
C1308 C1309 1.434 . S
C1309 C1300 1.429 . S
C1309 N1306 1.350 . S
C1309 C1308 1.434 . S
C1310 C1311 1.369 . S
C1310 C1312 1.419 . S
C1310 H1314 0.930 . S
C1311 C1310 1.369 . S
C1311 C1320 1.429 . S
C1312 C1310 1.419 . S
C1312 C1313 1.363 . S
C1312 H1315 0.929 . S
C1313 C1312 1.363 . S
C1313 C1319 1.428 . S
H1314 C1310 0.930 . S
H1315 C1312 0.929 . S
S1316 N1317 1.613 . S
S1316 N1318 1.610 . S
N1317 S1316 1.613 . S
N1317 C1320 1.350 . S
N1318 S1316 1.610 . S
N1318 C1319 1.351 . S
C1319 C1313 1.428 . S
C1319 N1318 1.351 . S
C1319 C1320 1.434 . S
C1320 C1311 1.429 . S
C1320 N1317 1.350 . S
C1320 C1319 1.434 . S
C1321 C1322 1.369 . S
C1321 C1323 1.419 . S
C1321 H1325 0.930 . S
C1322 C1321 1.369 . S
C1322 C1331 1.429 . S
C1323 C1321 1.419 . S
C1323 C1324 1.363 . S
C1323 H1326 0.929 . S
C1324 C1323 1.363 . S
C1324 C1330 1.428 . S
H1325 C1321 0.930 . S
H1326 C1323 0.929 . S
S1327 N1328 1.613 . S
S1327 N1329 1.610 . S
N1328 S1327 1.613 . S
N1328 C1331 1.350 . S
N1329 S1327 1.610 . S
N1329 C1330 1.351 . S
C1330 C1324 1.428 . S
C1330 N1329 1.351 . S
C1330 C1331 1.434 . S
C1331 C1322 1.429 . S
C1331 N1328 1.350 . S
C1331 C1330 1.434 . S
C1332 C1333 1.369 . S
C1332 C1334 1.419 . S
C1332 H1336 0.930 . S
C1333 C1332 1.369 . S
C1333 C1342 1.429 . S
C1334 C1332 1.419 . S
C1334 C1335 1.363 . S
C1334 H1337 0.929 . S
C1335 C1334 1.363 . S
C1335 C1341 1.428 . S
H1336 C1332 0.930 . S
H1337 C1334 0.929 . S
S1338 N1339 1.613 . S
S1338 N1340 1.610 . S
N1339 S1338 1.613 . S
N1339 C1342 1.350 . S
N1340 S1338 1.610 . S
N1340 C1341 1.351 . S
C1341 C1335 1.428 . S
C1341 N1340 1.351 . S
C1341 C1342 1.434 . S
C1342 C1333 1.429 . S
C1342 N1339 1.350 . S
C1342 C1341 1.434 . S
C1343 C1344 1.369 . S
C1343 C1345 1.419 . S
C1343 H1347 0.930 . S
C1344 C1343 1.369 . S
C1344 C1353 1.429 . S
C1345 C1343 1.419 . S
C1345 C1346 1.363 . S
C1345 H1348 0.929 . S
C1346 C1345 1.363 . S
C1346 C1352 1.428 . S
H1347 C1343 0.930 . S
H1348 C1345 0.929 . S
S1349 N1350 1.613 . S
S1349 N1351 1.610 . S
N1350 S1349 1.613 . S
N1350 C1353 1.350 . S
N1351 S1349 1.610 . S
N1351 C1352 1.351 . S
C1352 C1346 1.428 . S
C1352 N1351 1.351 . S
C1352 C1353 1.434 . S
C1353 C1344 1.429 . S
C1353 N1350 1.350 . S
C1353 C1352 1.434 . S
C1354 C1355 1.369 . S
C1354 C1356 1.419 . S
C1354 H1358 0.930 . S
C1355 C1354 1.369 . S
C1355 C1364 1.429 . S
C1356 C1354 1.419 . S
C1356 C1357 1.363 . S
C1356 H1359 0.929 . S
C1357 C1356 1.363 . S
C1357 C1363 1.428 . S
H1358 C1354 0.930 . S
H1359 C1356 0.929 . S
S1360 N1361 1.613 . S
S1360 N1362 1.610 . S
N1361 S1360 1.613 . S
N1361 C1364 1.350 . S
N1362 S1360 1.610 . S
N1362 C1363 1.351 . S
C1363 C1357 1.428 . S
C1363 N1362 1.351 . S
C1363 C1364 1.434 . S
C1364 C1355 1.429 . S
C1364 N1361 1.350 . S
C1364 C1363 1.434 . S
C1365 C1366 1.369 . S
C1365 C1367 1.419 . S
C1365 H1369 0.930 . S
C1366 C1365 1.369 . S
C1366 C1375 1.429 . S
C1367 C1365 1.419 . S
C1367 C1368 1.363 . S
C1367 H1370 0.929 . S
C1368 C1367 1.363 . S
C1368 C1374 1.428 . S
H1369 C1365 0.930 . S
H1370 C1367 0.929 . S
S1371 N1372 1.613 . S
S1371 N1373 1.610 . S
N1372 S1371 1.613 . S
N1372 C1375 1.350 . S
N1373 S1371 1.610 . S
N1373 C1374 1.351 . S
C1374 C1368 1.428 . S
C1374 N1373 1.351 . S
C1374 C1375 1.434 . S
C1375 C1366 1.429 . S
C1375 N1372 1.350 . S
C1375 C1374 1.434 . S
C1376 C1377 1.369 . S
C1376 C1378 1.419 . S
C1376 H1380 0.930 . S
C1377 C1376 1.369 . S
C1377 C1386 1.429 . S
C1378 C1376 1.419 . S
C1378 C1379 1.363 . S
C1378 H1381 0.929 . S
C1379 C1378 1.363 . S
C1379 C1385 1.428 . S
H1380 C1376 0.930 . S
H1381 C1378 0.929 . S
S1382 N1383 1.613 . S
S1382 N1384 1.610 . S
N1383 S1382 1.613 . S
N1383 C1386 1.350 . S
N1384 S1382 1.610 . S
N1384 C1385 1.351 . S
C1385 C1379 1.428 . S
C1385 N1384 1.351 . S
C1385 C1386 1.434 . S
C1386 C1377 1.429 . S
C1386 N1383 1.350 . S
C1386 C1385 1.434 . S
C1387 C1388 1.369 . S
C1387 C1389 1.419 . S
C1387 H1391 0.930 . S
C1388 C1387 1.369 . S
C1388 C1397 1.429 . S
C1389 C1387 1.419 . S
C1389 C1390 1.363 . S
C1389 H1392 0.929 . S
C1390 C1389 1.363 . S
C1390 C1396 1.428 . S
H1391 C1387 0.930 . S
H1392 C1389 0.929 . S
S1393 N1394 1.613 1_545 S
S1393 N1395 1.610 . S
N1394 S1393 1.613 1_565 S
N1394 C1397 1.350 . S
N1395 S1393 1.610 . S
N1395 C1396 1.351 1_545 S
C1396 C1390 1.428 . S
C1396 N1395 1.351 1_565 S
C1396 C1397 1.434 . S
C1397 C1388 1.429 . S
C1397 N1394 1.350 . S
C1397 C1396 1.434 . S
C1398 C1399 1.369 . S
C1398 C1400 1.419 . S
C1398 H1402 0.930 . S
C1399 C1398 1.369 . S
C1399 C1408 1.429 . S
C1400 C1398 1.419 . S
C1400 C1401 1.363 . S
C1400 H1403 0.929 . S
C1401 C1400 1.363 . S
C1401 C1407 1.428 . S
H1402 C1398 0.930 . S
H1403 C1400 0.929 . S
S1404 N1405 1.613 . S
S1404 N1406 1.610 . S
N1405 S1404 1.613 . S
N1405 C1408 1.350 . S
N1406 S1404 1.610 . S
N1406 C1407 1.351 . S
C1407 C1401 1.428 . S
C1407 N1406 1.351 . S
C1407 C1408 1.434 . S
C1408 C1399 1.429 . S
C1408 N1405 1.350 . S
C1408 C1407 1.434 . S
C1409 C1410 1.369 . S
C1409 C1411 1.419 . S
C1409 H1413 0.930 . S
C1410 C1409 1.369 . S
C1410 C1419 1.429 1_554 S
C1411 C1409 1.419 . S
C1411 C1412 1.363 . S
C1411 H1414 0.929 . S
C1412 C1411 1.363 . S
C1412 C1418 1.428 1_554 S
H1413 C1409 0.930 . S
H1414 C1411 0.929 . S
S1415 N1416 1.613 . S
S1415 N1417 1.610 . S
N1416 S1415 1.613 . S
N1416 C1419 1.350 . S
N1417 S1415 1.610 . S
N1417 C1418 1.351 . S
C1418 C1412 1.428 1_556 S
C1418 N1417 1.351 . S
C1418 C1419 1.434 . S
C1419 C1410 1.429 1_556 S
C1419 N1416 1.350 . S
C1419 C1418 1.434 . S
C1420 C1421 1.369 . S
C1420 C1422 1.419 . S
C1420 H1424 0.930 . S
C1421 C1420 1.369 . S
C1421 C1430 1.429 . S
C1422 C1420 1.419 . S
C1422 C1423 1.363 . S
C1422 H1425 0.929 . S
C1423 C1422 1.363 . S
C1423 C1429 1.428 . S
H1424 C1420 0.930 . S
H1425 C1422 0.929 . S
S1426 N1427 1.613 . S
S1426 N1428 1.610 . S
N1427 S1426 1.613 . S
N1427 C1430 1.350 . S
N1428 S1426 1.610 . S
N1428 C1429 1.351 . S
C1429 C1423 1.428 . S
C1429 N1428 1.351 . S
C1429 C1430 1.434 . S
C1430 C1421 1.429 . S
C1430 N1427 1.350 . S
C1430 C1429 1.434 . S
C1431 C1432 1.369 . S
C1431 C1433 1.419 . S
C1431 H1435 0.930 . S
C1432 C1431 1.369 . S
C1432 C1441 1.429 1_554 S
C1433 C1431 1.419 . S
C1433 C1434 1.363 1_554 S
C1433 H1436 0.929 . S
C1434 C1433 1.363 1_556 S
C1434 C1440 1.428 . S
H1435 C1431 0.930 . S
H1436 C1433 0.929 . S
S1437 N1438 1.613 . S
S1437 N1439 1.610 . S
N1438 S1437 1.613 . S
N1438 C1441 1.350 . S
N1439 S1437 1.610 . S
N1439 C1440 1.351 . S
C1440 C1434 1.428 . S
C1440 N1439 1.351 . S
C1440 C1441 1.434 . S
C1441 C1432 1.429 1_556 S
C1441 N1438 1.350 . S
C1441 C1440 1.434 . S
C1442 C1443 1.369 . S
C1442 C1444 1.419 . S
C1442 H1446 0.930 . S
C1443 C1442 1.369 . S
C1443 C1452 1.429 . S
C1444 C1442 1.419 . S
C1444 C1445 1.363 . S
C1444 H1447 0.929 . S
C1445 C1444 1.363 . S
C1445 C1451 1.428 . S
H1446 C1442 0.930 . S
H1447 C1444 0.929 . S
S1448 N1449 1.613 . S
S1448 N1450 1.610 . S
N1449 S1448 1.613 . S
N1449 C1452 1.350 . S
N1450 S1448 1.610 . S
N1450 C1451 1.351 . S
C1451 C1445 1.428 . S
C1451 N1450 1.351 . S
C1451 C1452 1.434 . S
C1452 C1443 1.429 . S
C1452 N1449 1.350 . S
C1452 C1451 1.434 . S
C1453 C1454 1.369 . S
C1453 C1455 1.419 . S
C1453 H1457 0.930 . S
C1454 C1453 1.369 . S
C1454 C1463 1.429 . S
C1455 C1453 1.419 . S
C1455 C1456 1.363 . S
C1455 H1458 0.929 . S
C1456 C1455 1.363 . S
C1456 C1462 1.428 . S
H1457 C1453 0.930 . S
H1458 C1455 0.929 . S
S1459 N1460 1.613 . S
S1459 N1461 1.610 . S
N1460 S1459 1.613 . S
N1460 C1463 1.350 . S
N1461 S1459 1.610 . S
N1461 C1462 1.351 . S
C1462 C1456 1.428 . S
C1462 N1461 1.351 . S
C1462 C1463 1.434 . S
C1463 C1454 1.429 . S
C1463 N1460 1.350 . S
C1463 C1462 1.434 . S
C1464 C1465 1.369 . S
C1464 C1466 1.419 . S
C1464 H1468 0.930 . S
C1465 C1464 1.369 . S
C1465 C1474 1.429 . S
C1466 C1464 1.419 . S
C1466 C1467 1.363 . S
C1466 H1469 0.929 . S
C1467 C1466 1.363 . S
C1467 C1473 1.428 . S
H1468 C1464 0.930 . S
H1469 C1466 0.929 . S
S1470 N1471 1.613 . S
S1470 N1472 1.610 . S
N1471 S1470 1.613 . S
N1471 C1474 1.350 . S
N1472 S1470 1.610 . S
N1472 C1473 1.351 . S
C1473 C1467 1.428 . S
C1473 N1472 1.351 . S
C1473 C1474 1.434 . S
C1474 C1465 1.429 . S
C1474 N1471 1.350 . S
C1474 C1473 1.434 . S
C1475 C1476 1.369 . S
C1475 C1477 1.419 . S
C1475 H1479 0.930 . S
C1476 C1475 1.369 . S
C1476 C1485 1.429 . S
C1477 C1475 1.419 . S
C1477 C1478 1.363 . S
C1477 H1480 0.929 . S
C1478 C1477 1.363 . S
C1478 C1484 1.428 . S
H1479 C1475 0.930 . S
H1480 C1477 0.929 . S
S1481 N1482 1.613 . S
S1481 N1483 1.610 . S
N1482 S1481 1.613 . S
N1482 C1485 1.350 . S
N1483 S1481 1.610 . S
N1483 C1484 1.351 . S
C1484 C1478 1.428 . S
C1484 N1483 1.351 . S
C1484 C1485 1.434 . S
C1485 C1476 1.429 . S
C1485 N1482 1.350 . S
C1485 C1484 1.434 . S
C1486 C1487 1.369 1_655 S
C1486 C1488 1.419 . S
C1486 H1490 0.930 . S
C1487 C1486 1.369 1_455 S
C1487 C1496 1.429 . S
C1488 C1486 1.419 . S
C1488 C1489 1.363 . S
C1488 H1491 0.929 . S
C1489 C1488 1.363 . S
C1489 C1495 1.428 1_655 S
H1490 C1486 0.930 . S
H1491 C1488 0.929 . S
S1492 N1493 1.613 1_554 S
S1492 N1494 1.610 . S
N1493 S1492 1.613 1_556 S
N1493 C1496 1.350 . S
N1494 S1492 1.610 . S
N1494 C1495 1.351 1_554 S
C1495 C1489 1.428 1_455 S
C1495 N1494 1.351 1_556 S
C1495 C1496 1.434 . S
C1496 C1487 1.429 . S
C1496 N1493 1.350 . S
C1496 C1495 1.434 . S
C1497 C1498 1.369 . S
C1497 C1499 1.419 . S
C1497 H1501 0.930 . S
C1498 C1497 1.369 . S
C1498 C1507 1.429 . S
C1499 C1497 1.419 . S
C1499 C1500 1.363 . S
C1499 H1502 0.929 . S
C1500 C1499 1.363 . S
C1500 C1506 1.428 . S
H1501 C1497 0.930 . S
H1502 C1499 0.929 . S
S1503 N1504 1.613 . S
S1503 N1505 1.610 . S
N1504 S1503 1.613 . S
N1504 C1507 1.350 . S
N1505 S1503 1.610 . S
N1505 C1506 1.351 . S
C1506 C1500 1.428 . S
C1506 N1505 1.351 . S
C1506 C1507 1.434 . S
C1507 C1498 1.429 . S
C1507 N1504 1.350 . S
C1507 C1506 1.434 . S
C1508 C1509 1.369 . S
C1508 C1510 1.419 . S
C1508 H1512 0.930 . S
C1509 C1508 1.369 . S
C1509 C1518 1.429 . S
C1510 C1508 1.419 . S
C1510 C1511 1.363 . S
C1510 H1513 0.929 . S
C1511 C1510 1.363 . S
C1511 C1517 1.428 . S
H1512 C1508 0.930 . S
H1513 C1510 0.929 . S
S1514 N1515 1.613 . S
S1514 N1516 1.610 . S
N1515 S1514 1.613 . S
N1515 C1518 1.350 . S
N1516 S1514 1.610 . S
N1516 C1517 1.351 . S
C1517 C1511 1.428 . S
C1517 N1516 1.351 . S
C1517 C1518 1.434 . S
C1518 C1509 1.429 . S
C1518 N1515 1.350 . S
C1518 C1517 1.434 . S
C1519 C1520 1.369 . S
C1519 C1521 1.419 . S
C1519 H1523 0.930 . S
C1520 C1519 1.369 . S
C1520 C1529 1.429 . S
C1521 C1519 1.419 . S
C1521 C1522 1.363 . S
C1521 H1524 0.929 . S
C1522 C1521 1.363 . S
C1522 C1528 1.428 . S
H1523 C1519 0.930 . S
H1524 C1521 0.929 . S
S1525 N1526 1.613 . S
S1525 N1527 1.610 . S
N1526 S1525 1.613 . S
N1526 C1529 1.350 . S
N1527 S1525 1.610 . S
N1527 C1528 1.351 . S
C1528 C1522 1.428 . S
C1528 N1527 1.351 . S
C1528 C1529 1.434 . S
C1529 C1520 1.429 . S
C1529 N1526 1.350 . S
C1529 C1528 1.434 . S
C1530 C1531 1.369 . S
C1530 C1532 1.419 1_455 S
C1530 H1534 0.930 . S
C1531 C1530 1.369 . S
C1531 C1540 1.429 1_455 S
C1532 C1530 1.419 1_655 S
C1532 C1533 1.363 . S
C1532 H1535 0.929 . S
C1533 C1532 1.363 . S
C1533 C1539 1.428 . S
H1534 C1530 0.930 . S
H1535 C1532 0.929 . S
S1536 N1537 1.613 . S
S1536 N1538 1.610 . S
N1537 S1536 1.613 . S
N1537 C1540 1.350 . S
N1538 S1536 1.610 . S
N1538 C1539 1.351 . S
C1539 C1533 1.428 . S
C1539 N1538 1.351 . S
C1539 C1540 1.434 . S
C1540 C1531 1.429 1_655 S
C1540 N1537 1.350 . S
C1540 C1539 1.434 . S
C1541 C1542 1.369 . S
C1541 C1543 1.419 . S
C1541 H1545 0.930 . S
C1542 C1541 1.369 . S
C1542 C1551 1.429 . S
C1543 C1541 1.419 . S
C1543 C1544 1.363 . S
C1543 H1546 0.929 . S
C1544 C1543 1.363 . S
C1544 C1550 1.428 . S
H1545 C1541 0.930 . S
H1546 C1543 0.929 . S
S1547 N1548 1.613 . S
S1547 N1549 1.610 . S
N1548 S1547 1.613 . S
N1548 C1551 1.350 . S
N1549 S1547 1.610 . S
N1549 C1550 1.351 . S
C1550 C1544 1.428 . S
C1550 N1549 1.351 . S
C1550 C1551 1.434 . S
C1551 C1542 1.429 . S
C1551 N1548 1.350 . S
C1551 C1550 1.434 . S
C1552 C1553 1.369 . S
C1552 C1554 1.419 . S
C1552 H1556 0.930 . S
C1553 C1552 1.369 . S
C1553 C1562 1.429 . S
C1554 C1552 1.419 . S
C1554 C1555 1.363 . S
C1554 H1557 0.929 . S
C1555 C1554 1.363 . S
C1555 C1561 1.428 . S
H1556 C1552 0.930 . S
H1557 C1554 0.929 . S
S1558 N1559 1.613 . S
S1558 N1560 1.610 . S
N1559 S1558 1.613 . S
N1559 C1562 1.350 . S
N1560 S1558 1.610 . S
N1560 C1561 1.351 . S
C1561 C1555 1.428 . S
C1561 N1560 1.351 . S
C1561 C1562 1.434 . S
C1562 C1553 1.429 . S
C1562 N1559 1.350 . S
C1562 C1561 1.434 . S
C1563 C1564 1.369 . S
C1563 C1565 1.419 . S
C1563 H1567 0.930 . S
C1564 C1563 1.369 . S
C1564 C1573 1.429 . S
C1565 C1563 1.419 . S
C1565 C1566 1.363 . S
C1565 H1568 0.929 . S
C1566 C1565 1.363 . S
C1566 C1572 1.428 . S
H1567 C1563 0.930 . S
H1568 C1565 0.929 . S
S1569 N1570 1.613 . S
S1569 N1571 1.610 . S
N1570 S1569 1.613 . S
N1570 C1573 1.350 . S
N1571 S1569 1.610 . S
N1571 C1572 1.351 . S
C1572 C1566 1.428 . S
C1572 N1571 1.351 . S
C1572 C1573 1.434 . S
C1573 C1564 1.429 . S
C1573 N1570 1.350 . S
C1573 C1572 1.434 . S
C1574 C1575 1.369 . S
C1574 C1576 1.419 . S
C1574 H1578 0.930 . S
C1575 C1574 1.369 . S
C1575 C1584 1.429 . S
C1576 C1574 1.419 . S
C1576 C1577 1.363 . S
C1576 H1579 0.929 . S
C1577 C1576 1.363 . S
C1577 C1583 1.428 . S
H1578 C1574 0.930 . S
H1579 C1576 0.929 . S
S1580 N1581 1.613 . S
S1580 N1582 1.610 . S
N1581 S1580 1.613 . S
N1581 C1584 1.350 . S
N1582 S1580 1.610 . S
N1582 C1583 1.351 . S
C1583 C1577 1.428 . S
C1583 N1582 1.351 . S
C1583 C1584 1.434 . S
C1584 C1575 1.429 . S
C1584 N1581 1.350 . S
C1584 C1583 1.434 . S
C1585 C1586 1.369 . S
C1585 C1587 1.419 . S
C1585 H1589 0.930 . S
C1586 C1585 1.369 . S
C1586 C1595 1.429 . S
C1587 C1585 1.419 . S
C1587 C1588 1.363 . S
C1587 H1590 0.929 . S
C1588 C1587 1.363 . S
C1588 C1594 1.428 . S
H1589 C1585 0.930 . S
H1590 C1587 0.929 . S
S1591 N1592 1.613 . S
S1591 N1593 1.610 . S
N1592 S1591 1.613 . S
N1592 C1595 1.350 . S
N1593 S1591 1.610 . S
N1593 C1594 1.351 . S
C1594 C1588 1.428 . S
C1594 N1593 1.351 . S
C1594 C1595 1.434 . S
C1595 C1586 1.429 . S
C1595 N1592 1.350 . S
C1595 C1594 1.434 . S
C1596 C1597 1.369 . S
C1596 C1598 1.419 . S
C1596 H1600 0.930 . S
C1597 C1596 1.369 . S
C1597 C1606 1.429 . S
C1598 C1596 1.419 . S
C1598 C1599 1.363 . S
C1598 H1601 0.929 . S
C1599 C1598 1.363 . S
C1599 C1605 1.428 . S
H1600 C1596 0.930 . S
H1601 C1598 0.929 . S
S1602 N1603 1.613 . S
S1602 N1604 1.610 . S
N1603 S1602 1.613 . S
N1603 C1606 1.350 . S
N1604 S1602 1.610 . S
N1604 C1605 1.351 . S
C1605 C1599 1.428 . S
C1605 N1604 1.351 . S
C1605 C1606 1.434 . S
C1606 C1597 1.429 . S
C1606 N1603 1.350 . S
C1606 C1605 1.434 . S
C1607 C1608 1.369 . S
C1607 C1609 1.419 . S
C1607 H1611 0.930 . S
C1608 C1607 1.369 . S
C1608 C1617 1.429 . S
C1609 C1607 1.419 . S
C1609 C1610 1.363 . S
C1609 H1612 0.929 . S
C1610 C1609 1.363 . S
C1610 C1616 1.428 . S
H1611 C1607 0.930 . S
H1612 C1609 0.929 . S
S1613 N1614 1.613 . S
S1613 N1615 1.610 . S
N1614 S1613 1.613 . S
N1614 C1617 1.350 . S
N1615 S1613 1.610 . S
N1615 C1616 1.351 . S
C1616 C1610 1.428 . S
C1616 N1615 1.351 . S
C1616 C1617 1.434 . S
C1617 C1608 1.429 . S
C1617 N1614 1.350 . S
C1617 C1616 1.434 . S
C1618 C1619 1.369 . S
C1618 C1620 1.419 . S
C1618 H1622 0.930 . S
C1619 C1618 1.369 . S
C1619 C1628 1.429 . S
C1620 C1618 1.419 . S
C1620 C1621 1.363 . S
C1620 H1623 0.929 . S
C1621 C1620 1.363 . S
C1621 C1627 1.428 . S
H1622 C1618 0.930 . S
H1623 C1620 0.929 . S
S1624 N1625 1.613 . S
S1624 N1626 1.610 . S
N1625 S1624 1.613 . S
N1625 C1628 1.350 . S
N1626 S1624 1.610 . S
N1626 C1627 1.351 . S
C1627 C1621 1.428 . S
C1627 N1626 1.351 . S
C1627 C1628 1.434 . S
C1628 C1619 1.429 . S
C1628 N1625 1.350 . S
C1628 C1627 1.434 . S
C1629 C1630 1.369 . S
C1629 C1631 1.419 . S
C1629 H1633 0.930 . S
C1630 C1629 1.369 . S
C1630 C1639 1.429 . S
C1631 C1629 1.419 . S
C1631 C1632 1.363 . S
C1631 H1634 0.929 . S
C1632 C1631 1.363 . S
C1632 C1638 1.428 . S
H1633 C1629 0.930 . S
H1634 C1631 0.929 . S
S1635 N1636 1.613 . S
S1635 N1637 1.610 . S
N1636 S1635 1.613 . S
N1636 C1639 1.350 . S
N1637 S1635 1.610 . S
N1637 C1638 1.351 . S
C1638 C1632 1.428 . S
C1638 N1637 1.351 . S
C1638 C1639 1.434 . S
C1639 C1630 1.429 . S
C1639 N1636 1.350 . S
C1639 C1638 1.434 . S
C1640 C1641 1.369 . S
C1640 C1642 1.419 . S
C1640 H1644 0.930 . S
C1641 C1640 1.369 . S
C1641 C1650 1.429 . S
C1642 C1640 1.419 . S
C1642 C1643 1.363 . S
C1642 H1645 0.929 . S
C1643 C1642 1.363 . S
C1643 C1649 1.428 . S
H1644 C1640 0.930 . S
H1645 C1642 0.929 . S
S1646 N1647 1.613 . S
S1646 N1648 1.610 . S
N1647 S1646 1.613 . S
N1647 C1650 1.350 . S
N1648 S1646 1.610 . S
N1648 C1649 1.351 . S
C1649 C1643 1.428 . S
C1649 N1648 1.351 . S
C1649 C1650 1.434 . S
C1650 C1641 1.429 . S
C1650 N1647 1.350 . S
C1650 C1649 1.434 . S
C1651 C1652 1.369 . S
C1651 C1653 1.419 . S
C1651 H1655 0.930 . S
C1652 C1651 1.369 . S
C1652 C1661 1.429 . S
C1653 C1651 1.419 . S
C1653 C1654 1.363 . S
C1653 H1656 0.929 . S
C1654 C1653 1.363 . S
C1654 C1660 1.428 . S
H1655 C1651 0.930 . S
H1656 C1653 0.929 . S
S1657 N1658 1.613 . S
S1657 N1659 1.610 . S
N1658 S1657 1.613 . S
N1658 C1661 1.350 . S
N1659 S1657 1.610 . S
N1659 C1660 1.351 . S
C1660 C1654 1.428 . S
C1660 N1659 1.351 . S
C1660 C1661 1.434 . S
C1661 C1652 1.429 . S
C1661 N1658 1.350 . S
C1661 C1660 1.434 . S
C1662 C1663 1.369 . S
C1662 C1664 1.419 . S
C1662 H1666 0.930 . S
C1663 C1662 1.369 . S
C1663 C1672 1.429 . S
C1664 C1662 1.419 . S
C1664 C1665 1.363 . S
C1664 H1667 0.929 . S
C1665 C1664 1.363 . S
C1665 C1671 1.428 . S
H1666 C1662 0.930 . S
H1667 C1664 0.929 . S
S1668 N1669 1.613 . S
S1668 N1670 1.610 . S
N1669 S1668 1.613 . S
N1669 C1672 1.350 . S
N1670 S1668 1.610 . S
N1670 C1671 1.351 . S
C1671 C1665 1.428 . S
C1671 N1670 1.351 . S
C1671 C1672 1.434 . S
C1672 C1663 1.429 . S
C1672 N1669 1.350 . S
C1672 C1671 1.434 . S
C1673 C1674 1.369 1_556 S
C1673 C1675 1.419 . S
C1673 H1677 0.930 . S
C1674 C1673 1.369 1_554 S
C1674 C1683 1.429 . S
C1675 C1673 1.419 . S
C1675 C1676 1.363 . S
C1675 H1678 0.929 . S
C1676 C1675 1.363 . S
C1676 C1682 1.428 1_556 S
H1677 C1673 0.930 . S
H1678 C1675 0.929 . S
S1679 N1680 1.613 . S
S1679 N1681 1.610 . S
N1680 S1679 1.613 . S
N1680 C1683 1.350 . S
N1681 S1679 1.610 . S
N1681 C1682 1.351 . S
C1682 C1676 1.428 1_554 S
C1682 N1681 1.351 . S
C1682 C1683 1.434 . S
C1683 C1674 1.429 . S
C1683 N1680 1.350 . S
C1683 C1682 1.434 . S
C1684 C1685 1.369 . S
C1684 C1686 1.419 . S
C1684 H1688 0.930 . S
C1685 C1684 1.369 . S
C1685 C1694 1.429 . S
C1686 C1684 1.419 . S
C1686 C1687 1.363 . S
C1686 H1689 0.929 . S
C1687 C1686 1.363 . S
C1687 C1693 1.428 . S
H1688 C1684 0.930 . S
H1689 C1686 0.929 . S
S1690 N1691 1.613 . S
S1690 N1692 1.610 . S
N1691 S1690 1.613 . S
N1691 C1694 1.350 . S
N1692 S1690 1.610 . S
N1692 C1693 1.351 . S
C1693 C1687 1.428 . S
C1693 N1692 1.351 . S
C1693 C1694 1.434 . S
C1694 C1685 1.429 . S
C1694 N1691 1.350 . S
C1694 C1693 1.434 . S
C1695 C1696 1.369 . S
C1695 C1697 1.419 . S
C1695 H1699 0.930 . S
C1696 C1695 1.369 . S
C1696 C1705 1.429 . S
C1697 C1695 1.419 . S
C1697 C1698 1.363 . S
C1697 H1700 0.929 . S
C1698 C1697 1.363 . S
C1698 C1704 1.428 . S
H1699 C1695 0.930 . S
H1700 C1697 0.929 . S
S1701 N1702 1.613 . S
S1701 N1703 1.610 . S
N1702 S1701 1.613 . S
N1702 C1705 1.350 . S
N1703 S1701 1.610 . S
N1703 C1704 1.351 . S
C1704 C1698 1.428 . S
C1704 N1703 1.351 . S
C1704 C1705 1.434 . S
C1705 C1696 1.429 . S
C1705 N1702 1.350 . S
C1705 C1704 1.434 . S
C1706 C1707 1.369 . S
C1706 C1708 1.419 . S
C1706 H1710 0.930 . S
C1707 C1706 1.369 . S
C1707 C1716 1.429 . S
C1708 C1706 1.419 . S
C1708 C1709 1.363 . S
C1708 H1711 0.929 . S
C1709 C1708 1.363 . S
C1709 C1715 1.428 . S
H1710 C1706 0.930 . S
H1711 C1708 0.929 . S
S1712 N1713 1.613 . S
S1712 N1714 1.610 . S
N1713 S1712 1.613 . S
N1713 C1716 1.350 . S
N1714 S1712 1.610 . S
N1714 C1715 1.351 . S
C1715 C1709 1.428 . S
C1715 N1714 1.351 . S
C1715 C1716 1.434 . S
C1716 C1707 1.429 . S
C1716 N1713 1.350 . S
C1716 C1715 1.434 . S
C1717 C1718 1.369 . S
C1717 C1719 1.419 . S
C1717 H1721 0.930 . S
C1718 C1717 1.369 . S
C1718 C1727 1.429 . S
C1719 C1717 1.419 . S
C1719 C1720 1.363 . S
C1719 H1722 0.929 . S
C1720 C1719 1.363 . S
C1720 C1726 1.428 . S
H1721 C1717 0.930 . S
H1722 C1719 0.929 . S
S1723 N1724 1.613 . S
S1723 N1725 1.610 . S
N1724 S1723 1.613 . S
N1724 C1727 1.350 . S
N1725 S1723 1.610 . S
N1725 C1726 1.351 . S
C1726 C1720 1.428 . S
C1726 N1725 1.351 . S
C1726 C1727 1.434 . S
C1727 C1718 1.429 . S
C1727 N1724 1.350 . S
C1727 C1726 1.434 . S
C675 C352 1.269 . S
C673 C4 1.336 1_455 S
C684 C19 1.016 . S
C686 C372 1.238 . S
C695 C39 1.301 . S
C697 C394 1.217 . S
C708 C413 1.290 . S
C706 C54 1.342 . S
C717 C18 1.311 . S
C719 C434 1.312 . S
C730 C457 1.296 . S
C728 C40 1.403 . S
C741 C480 1.194 . S
C739 C53 1.214 . S
C750 C5 1.079 . S
C752 C498 1.293 . S
C761 C61 1.018 1_545 S
C763 C354 1.226 . S
C772 C74 1.373 . S
C774 C374 1.375 . S
C785 C396 1.174 . S
C783 C89 0.986 . S
C796 C415 1.293 . S
C794 C109 1.397 . S
C805 C68 1.366 . S
C807 C436 1.264 . S
C818 C459 1.252 . S
C816 C81 1.268 . S
C829 C476 1.259 . S
C827 C96 1.300 . S
C840 C500 1.369 . S
C838 C102 1.391 . S
C851 C350 1.268 . S
C849 C103 1.076 . S
C862 C522 1.216 . S
C860 C117 1.000 . S
C871 C130 1.324 . S
C873 C539 1.321 . S
C884 C562 1.294 . S
C882 C152 1.403 . S
C893 C60 1.377 . S
C895 C496 1.298 . S
C906 C392 1.290 . S
C904 C82 1.330 . S
C915 C137 1.200 . S
C917 C585 1.182 . S
C928 C601 1.204 . S
C926 C165 1.296 . S
C937 C172 1.388 . S
C939 C349 1.270 . S
C950 C602 1.313 . S
C948 C194 1.322 . S
C959 C207 1.366 . S
C961 C391 1.286 . S
C970 C215 1.122 . S
C972 C582 1.226 . S
C983 C435 1.287 . S
C981 C186 1.332 . S
C994 C538 1.295 . S
C992 C201 1.257 . S
C1005 C479 1.308 . S
C1003 C221 1.293 . S
C1016 C623 1.408 . S
C1014 C180 1.407 . S
C1027 C353 1.349 . S
C1025 C236 1.352 1_545 S
C1036 C242 1.403 . S
C1038 C606 1.344 . S
C1049 C395 1.305 . S
C1047 C264 1.313 . S
C1058 C277 1.423 . S
C1060 C580 1.362 . S
C1069 C229 1.143 1_565 S
C1071 C433 1.204 . S
C1080 C249 1.334 . S
C1082 C542 1.338 . S
C1093 C477 1.187 . S
C1091 C257 1.081 1_545 S
C1102 C270 1.382 . S
C1104 C627 1.346 . S
C1113 C278 1.289 . S
C1115 C351 1.234 . S
C1124 C292 1.374 . S
C1126 C521 1.364 . S
C1135 C298 1.385 . S
C1137 C456 1.339 . S
C1146 C313 1.273 . S
C1148 C559 1.320 . S
C1159 C625 1.301 . S
C1157 C228 1.418 . S
C1170 C393 1.195 . S
C1168 C243 1.114 . S
C1181 C416 1.286 . S
C1179 C305 1.271 . S
C1192 C373 1.242 . S
C1190 C333 1.343 . S
C1201 C32 1.329 . S
C1203 C646 1.259 . S
C1214 C603 1.236 . S
C1212 C47 1.005 . S
C1225 C667 1.215 . S
C1223 C11 1.301 . S
C1234 C26 1.341 . S
C1236 C581 1.291 . S
C1245 C46 1.321 . S
C1247 C518 1.312 . S
C1258 C541 1.296 . S
C1256 C12 1.404 . S
C1269 C564 1.187 . S
C1267 C25 1.214 . S
C1280 C624 1.299 . S
C1278 C33 1.066 . S
C1291 C648 1.232 . S
C1289 C159 1.023 . S
C1300 C116 1.380 . S
C1302 C605 1.370 . S
C1311 C131 0.970 . S
C1313 C669 1.176 . S
C1324 C583 1.289 . S
C1322 C151 1.398 . S
C1335 C520 1.270 . S
C1333 C166 1.365 . S
C1344 C123 1.269 . S
C1346 C543 1.256 . S
C1357 C560 1.258 . S
C1355 C138 1.301 . S
C1366 C144 1.393 . S
C1368 C626 1.370 . S
C1379 C644 1.268 . S
C1377 C145 1.081 . S
C1390 C438 1.219 . S
C1388 C75 0.996 . S
C1401 C455 1.324 . S
C1399 C88 1.321 . S
C1410 C110 1.402 . S
C1412 C478 1.296 . S
C1423 C622 1.298 . S
C1421 C158 1.377 . S
C1432 C124 1.330 . S
C1434 C665 1.292 . S
C1445 C417 1.179 . S
C1443 C95 1.200 . S
C1456 C370 1.211 . S
C1454 C67 1.294 . S
C1465 C200 1.385 . S
C1467 C643 1.275 . S
C1478 C371 1.318 . S
C1476 C222 1.326 . S
C1489 C664 1.283 . S
C1487 C179 1.369 . S
C1498 C187 1.135 . S
C1500 C414 1.231 . S
C1509 C214 1.333 . S
C1511 C519 1.289 . S
C1520 C173 1.257 . S
C1522 C454 1.295 . S
C1531 C193 1.294 . S
C1533 C563 1.308 . S
C1542 C208 1.403 . S
C1544 C497 1.405 . S
C1555 C647 1.352 . S
C1553 C334 1.356 . S
C1564 C284 1.405 . S
C1566 C375 1.340 . S
C1577 C668 1.306 . S
C1575 C306 1.313 . S
C1586 C319 1.418 . S
C1588 C412 1.361 . S
C1597 C327 1.142 . S
C1599 C517 1.204 . S
C1610 C458 1.340 . S
C1608 C291 1.335 . S
C1619 C299 1.084 . S
C1621 C561 1.189 . S
C1632 C501 1.349 . S
C1630 C312 1.384 . S
C1643 C645 1.233 . S
C1641 C320 1.290 . S
C1654 C437 1.364 . S
C1652 C250 1.373 . S
C1663 C256 1.381 . S
C1665 C540 1.331 . S
C1676 C475 1.326 . S
C1674 C271 1.282 . S
C1687 C499 1.307 . S
C1685 C326 1.412 . S
C1696 C285 1.100 1_554 S
C1698 C666 1.189 . S
C1709 C584 1.283 . S
C1707 C263 1.269 . S
C1720 C604 1.245 . S
C1718 C235 1.336 . S
