# Generated by pormake.
# Topology ocu, (6,8)-cn, num edge types: 1
# Building blocks:
#     Node 0, Type 0, BuildingBlock: KUMJIN_clean_sbu_1, # of connection points: 6
#     Node 1, Type 0, BuildingBlock: KUMJIN_clean_sbu_1, # of connection points: 6
#     Node 2, Type 0, BuildingBlock: KUMJIN_clean_sbu_1, # of connection points: 6
#     Node 3, Type 0, BuildingBlock: KUMJIN_clean_sbu_1, # of connection points: 6
#     Node 4, Type 0, BuildingBlock: KUMJIN_clean_sbu_1, # of connection points: 6
#     Node 5, Type 0, BuildingBlock: KUMJIN_clean_sbu_1, # of connection points: 6
#     Node 6, Type 0, BuildingBlock: KUMJIN_clean_sbu_1, # of connection points: 6
#     Node 7, Type 0, BuildingBlock: KUMJIN_clean_sbu_1, # of connection points: 6
#     Node 8, Type 1, BuildingBlock: VETTIZ_charged_sbu_0, # of connection points: 8
#     Node 9, Type 1, BuildingBlock: VETTIZ_charged_sbu_0, # of connection points: 8
#     Node 10, Type 1, BuildingBlock: VETTIZ_charged_sbu_0, # of connection points: 8
#     Node 11, Type 1, BuildingBlock: VETTIZ_charged_sbu_0, # of connection points: 8
#     Node 12, Type 1, BuildingBlock: VETTIZ_charged_sbu_0, # of connection points: 8
#     Node 13, Type 1, BuildingBlock: VETTIZ_charged_sbu_0, # of connection points: 8
#     Edge 14, Type (0, 1), BuildingBlock: TEMPAE_clean_linker_10, # of connection points: 2
#     Edge 15, Type (0, 1), BuildingBlock: TEMPAE_clean_linker_10, # of connection points: 2
#     Edge 16, Type (0, 1), BuildingBlock: TEMPAE_clean_linker_10, # of connection points: 2
#     Edge 17, Type (0, 1), BuildingBlock: TEMPAE_clean_linker_10, # of connection points: 2
#     Edge 18, Type (0, 1), BuildingBlock: TEMPAE_clean_linker_10, # of connection points: 2
#     Edge 19, Type (0, 1), BuildingBlock: TEMPAE_clean_linker_10, # of connection points: 2
#     Edge 20, Type (0, 1), BuildingBlock: TEMPAE_clean_linker_10, # of connection points: 2
#     Edge 21, Type (0, 1), BuildingBlock: TEMPAE_clean_linker_10, # of connection points: 2
#     Edge 22, Type (0, 1), BuildingBlock: TEMPAE_clean_linker_10, # of connection points: 2
#     Edge 23, Type (0, 1), BuildingBlock: TEMPAE_clean_linker_10, # of connection points: 2
#     Edge 24, Type (0, 1), BuildingBlock: TEMPAE_clean_linker_10, # of connection points: 2
#     Edge 25, Type (0, 1), BuildingBlock: TEMPAE_clean_linker_10, # of connection points: 2
#     Edge 26, Type (0, 1), BuildingBlock: TEMPAE_clean_linker_10, # of connection points: 2
#     Edge 27, Type (0, 1), BuildingBlock: TEMPAE_clean_linker_10, # of connection points: 2
#     Edge 28, Type (0, 1), BuildingBlock: TEMPAE_clean_linker_10, # of connection points: 2
#     Edge 29, Type (0, 1), BuildingBlock: TEMPAE_clean_linker_10, # of connection points: 2
#     Edge 30, Type (0, 1), BuildingBlock: TEMPAE_clean_linker_10, # of connection points: 2
#     Edge 31, Type (0, 1), BuildingBlock: TEMPAE_clean_linker_10, # of connection points: 2
#     Edge 32, Type (0, 1), BuildingBlock: TEMPAE_clean_linker_10, # of connection points: 2
#     Edge 33, Type (0, 1), BuildingBlock: TEMPAE_clean_linker_10, # of connection points: 2
#     Edge 34, Type (0, 1), BuildingBlock: TEMPAE_clean_linker_10, # of connection points: 2
#     Edge 35, Type (0, 1), BuildingBlock: TEMPAE_clean_linker_10, # of connection points: 2
#     Edge 36, Type (0, 1), BuildingBlock: TEMPAE_clean_linker_10, # of connection points: 2
#     Edge 37, Type (0, 1), BuildingBlock: TEMPAE_clean_linker_10, # of connection points: 2
#     Edge 38, Type (0, 1), BuildingBlock: TEMPAE_clean_linker_10, # of connection points: 2
#     Edge 39, Type (0, 1), BuildingBlock: TEMPAE_clean_linker_10, # of connection points: 2
#     Edge 40, Type (0, 1), BuildingBlock: TEMPAE_clean_linker_10, # of connection points: 2
#     Edge 41, Type (0, 1), BuildingBlock: TEMPAE_clean_linker_10, # of connection points: 2
#     Edge 42, Type (0, 1), BuildingBlock: TEMPAE_clean_linker_10, # of connection points: 2
#     Edge 43, Type (0, 1), BuildingBlock: TEMPAE_clean_linker_10, # of connection points: 2
#     Edge 44, Type (0, 1), BuildingBlock: TEMPAE_clean_linker_10, # of connection points: 2
#     Edge 45, Type (0, 1), BuildingBlock: TEMPAE_clean_linker_10, # of connection points: 2
#     Edge 46, Type (0, 1), BuildingBlock: TEMPAE_clean_linker_10, # of connection points: 2
#     Edge 47, Type (0, 1), BuildingBlock: TEMPAE_clean_linker_10, # of connection points: 2
#     Edge 48, Type (0, 1), BuildingBlock: TEMPAE_clean_linker_10, # of connection points: 2
#     Edge 49, Type (0, 1), BuildingBlock: TEMPAE_clean_linker_10, # of connection points: 2
#     Edge 50, Type (0, 1), BuildingBlock: TEMPAE_clean_linker_10, # of connection points: 2
#     Edge 51, Type (0, 1), BuildingBlock: TEMPAE_clean_linker_10, # of connection points: 2
#     Edge 52, Type (0, 1), BuildingBlock: TEMPAE_clean_linker_10, # of connection points: 2
#     Edge 53, Type (0, 1), BuildingBlock: TEMPAE_clean_linker_10, # of connection points: 2
#     Edge 54, Type (0, 1), BuildingBlock: TEMPAE_clean_linker_10, # of connection points: 2
#     Edge 55, Type (0, 1), BuildingBlock: TEMPAE_clean_linker_10, # of connection points: 2
#     Edge 56, Type (0, 1), BuildingBlock: TEMPAE_clean_linker_10, # of connection points: 2
#     Edge 57, Type (0, 1), BuildingBlock: TEMPAE_clean_linker_10, # of connection points: 2
#     Edge 58, Type (0, 1), BuildingBlock: TEMPAE_clean_linker_10, # of connection points: 2
#     Edge 59, Type (0, 1), BuildingBlock: TEMPAE_clean_linker_10, # of connection points: 2
#     Edge 60, Type (0, 1), BuildingBlock: TEMPAE_clean_linker_10, # of connection points: 2
#     Edge 61, Type (0, 1), BuildingBlock: TEMPAE_clean_linker_10, # of connection points: 2
# Relax obj value: 0.071
# Max RMSD: 0.135
# Mean RMSD: 0.100
data_MOF--net-ocu--node1-KUMJIN_clean_sbu_1--node2-VETTIZ_charged_sbu_0--edge1-TEMPAE_clean_linker_10
_symmetry_space_group_name_H-M    P1
_symmetry_Int_Tables_number       1
_symmetry_cell_setting            triclinic
loop_
_symmetry_equiv_pos_as_xyz
'x, y, z'
_cell_length_a     39.943891
_cell_length_b     40.774679
_cell_length_c     42.174144
_cell_angle_alpha  99.867576
_cell_angle_beta   80.561764
_cell_angle_gamma 103.93392
loop_
_atom_site_label
_atom_site_type_symbol
_atom_site_fract_x
_atom_site_fract_y
_atom_site_fract_z
_atom_type_partial_charge
Eu0 Eu 0.23603 0.24908 0.23282 0.0
C1 C 0.31571 0.33087 0.34744 0.0
N2 N 0.32908 0.31778 0.31742 0.0
C3 C 0.37305 0.36922 0.31389 0.0
C4 C 0.33031 0.36413 0.36153 0.0
C5 C 0.35793 0.33605 0.30096 0.0
C6 C 0.35907 0.38342 0.34419 0.0
C7 C 0.27339 0.32356 0.39567 0.0
C8 C 0.28756 0.31076 0.36446 0.0
C9 C 0.28772 0.3568 0.40954 0.0
C10 C 0.31606 0.37701 0.39252 0.0
Eu11 Eu 0.30119 0.26143 0.29838 0.0
N12 N 0.27351 0.27895 0.35013 0.0
C13 C 0.24508 0.30261 0.41195 0.0
C14 C 0.24702 0.25791 0.36641 0.0
C15 C 0.23204 0.26953 0.39735 0.0
H16 H 0.36993 0.32503 0.27811 0.0
H17 H 0.21064 0.25288 0.41002 0.0
H18 H 0.16366 0.19024 0.25614 0.0
H19 H 0.31441 0.25539 0.11481 0.0
H20 H 0.23772 0.23209 0.35572 0.0
H21 H 0.23338 0.31158 0.43591 0.0
H22 H 0.29523 0.27581 0.17212 0.0
H23 H 0.39574 0.38368 0.30063 0.0
H24 H 0.27705 0.36713 0.43342 0.0
H25 H 0.32689 0.40256 0.40364 0.0
H26 H 0.132 0.13344 0.23464 0.0
H27 H 0.37101 0.40907 0.3542 0.0
H28 H 0.28528 0.19861 0.08929 0.0
N29 N 0.20238 0.19474 0.2148 0.0
C30 C 0.2122 0.18116 0.18383 0.0
C31 C 0.15474 0.14641 0.22024 0.0
C32 C 0.19385 0.14919 0.17012 0.0
C33 C 0.17329 0.17845 0.23261 0.0
C34 C 0.16524 0.13156 0.18899 0.0
N35 N 0.2576 0.23031 0.17918 0.0
C36 C 0.28317 0.25073 0.16129 0.0
C37 C 0.24962 0.18729 0.13258 0.0
C38 C 0.23996 0.19983 0.16527 0.0
C39 C 0.27704 0.20738 0.11445 0.0
C40 C 0.29369 0.23937 0.12881 0.0
H41 H 0.15055 0.1069 0.17936 0.0
H42 H 0.19035 0.11158 0.12702 0.0
H43 H 0.23905 0.145 0.09415 0.0
O44 O 0.23123 0.29473 0.21461 0.0
O45 O 0.27972 0.21819 0.21622 0.0
O46 O 0.32352 0.23613 0.24954 0.0
O47 O 0.18891 0.25044 0.21352 0.0
O48 O 0.27841 0.29766 0.24026 0.0
O49 O 0.32621 0.28306 0.25207 0.0
O50 O 0.3084 0.2234 0.32617 0.0
O51 O 0.26137 0.29675 0.30692 0.0
O52 O 0.21252 0.26633 0.28437 0.0
O53 O 0.35195 0.26362 0.31229 0.0
O54 O 0.26183 0.2108 0.29035 0.0
O55 O 0.21344 0.22438 0.27849 0.0
C56 C 0.31095 0.21799 0.22328 0.0
C57 C 0.17451 0.30407 0.21773 0.0
C58 C 0.14309 0.34344 0.20411 0.0
C59 C 0.12623 0.3459 0.23621 0.0
C60 C 0.15727 0.30686 0.24946 0.0
C61 C 0.1333 0.32771 0.25863 0.0
C62 C 0.16735 0.32232 0.1951 0.0
C63 C 0.31212 0.2998 0.23594 0.0
C64 C 0.19964 0.28189 0.20781 0.0
C65 C 0.20408 0.13615 0.13787 0.0
C66 C 0.23177 0.15521 0.11911 0.0
C67 C 0.22739 0.29062 0.30585 0.0
C68 C 0.35344 0.24077 0.35982 0.0
C69 C 0.37899 0.2167 0.39675 0.0
C70 C 0.38212 0.24774 0.41768 0.0
C71 C 0.3567 0.27155 0.38109 0.0
C72 C 0.3642 0.21324 0.36797 0.0
C73 C 0.37076 0.27487 0.40996 0.0
C74 C 0.22789 0.20623 0.29294 0.0
C75 C 0.34107 0.23753 0.32817 0.0
H76 H 0.10707 0.36143 0.24388 0.0
H77 H 0.16218 0.29268 0.26696 0.0
H78 H 0.11993 0.32955 0.28315 0.0
H79 H 0.18086 0.32024 0.1706 0.0
H80 H 0.39337 0.25097 0.44001 0.0
H81 H 0.34906 0.29319 0.37517 0.0
H82 H 0.36224 0.18958 0.35138 0.0
H83 H 0.37335 0.29873 0.42618 0.0
Eu84 Eu 0.73893 0.29065 0.27145 0.0
C85 C 0.86527 0.23028 0.20629 0.0
N86 N 0.83074 0.2158 0.2104 0.0
C87 C 0.83351 0.19141 0.15439 0.0
C88 C 0.88503 0.22707 0.17543 0.0
C89 C 0.815 0.19525 0.18545 0.0
C90 C 0.86856 0.20778 0.14925 0.0
C91 C 0.91689 0.26269 0.22971 0.0
C92 C 0.88091 0.248 0.23315 0.0
C93 C 0.93648 0.26035 0.19885 0.0
C94 C 0.92057 0.24269 0.17177 0.0
Eu95 Eu 0.80119 0.2245 0.26334 0.0
N96 N 0.86124 0.25013 0.26269 0.0
C97 C 0.93221 0.27901 0.25744 0.0
C98 C 0.8766 0.2639 0.29005 0.0
C99 C 0.91206 0.27918 0.28779 0.0
H100 H 0.78798 0.18239 0.18942 0.0
H101 H 0.92391 0.29067 0.30951 0.0
H102 H 0.77393 0.35771 0.32523 0.0
H103 H 0.60713 0.21257 0.2818 0.0
H104 H 0.8618 0.26275 0.31381 0.0
H105 H 0.95973 0.29072 0.25579 0.0
H106 H 0.66451 0.23829 0.25345 0.0
H107 H 0.82076 0.1758 0.13446 0.0
H108 H 0.96404 0.27183 0.19571 0.0
H109 H 0.9361 0.24079 0.14819 0.0
H110 H 0.76437 0.37788 0.38369 0.0
H111 H 0.88284 0.20475 0.12516 0.0
H112 H 0.59386 0.22748 0.34125 0.0
N113 N 0.72994 0.31595 0.32649 0.0
C114 C 0.69999 0.30183 0.34431 0.0
C115 C 0.74628 0.35613 0.37303 0.0
C116 C 0.69289 0.31324 0.37772 0.0
C117 C 0.75195 0.34414 0.33991 0.0
C118 C 0.71697 0.34018 0.39218 0.0
N119 N 0.68302 0.26687 0.29654 0.0
C120 C 0.65853 0.24509 0.27934 0.0
C121 C 0.64342 0.26284 0.34598 0.0
C122 C 0.6755 0.27703 0.32875 0.0
C123 C 0.61879 0.23904 0.32888 0.0
C124 C 0.6262 0.23052 0.29531 0.0
H125 H 0.71254 0.34966 0.41778 0.0
H126 H 0.65596 0.30621 0.42115 0.0
H127 H 0.61263 0.26203 0.39332 0.0
O128 O 0.71367 0.29888 0.23233 0.0
O129 O 0.72224 0.23967 0.29106 0.0
O130 O 0.76933 0.2353 0.31204 0.0
O131 O 0.72362 0.33895 0.27227 0.0
O132 O 0.73553 0.24968 0.22716 0.0
O133 O 0.74999 0.2027 0.24118 0.0
O134 O 0.83226 0.1922 0.27561 0.0
O135 O 0.8039 0.25507 0.22193 0.0
O136 O 0.79349 0.30716 0.24584 0.0
O137 O 0.77948 0.17029 0.266 0.0
O138 O 0.80484 0.26734 0.30641 0.0
O139 O 0.793 0.31287 0.28773 0.0
C140 C 0.73576 0.23282 0.31474 0.0
C141 C 0.72497 0.35475 0.22055 0.0
C142 C 0.71236 0.38481 0.18009 0.0
C143 C 0.7483 0.39721 0.1721 0.0
C144 C 0.76067 0.3675 0.21233 0.0
C145 C 0.77219 0.38869 0.18825 0.0
C146 C 0.70088 0.36361 0.20455 0.0
C147 C 0.73271 0.2164 0.22452 0.0
C148 C 0.71264 0.33028 0.24398 0.0
C149 C 0.66164 0.29809 0.39539 0.0
C150 C 0.63692 0.27299 0.37953 0.0
C151 C 0.81041 0.28839 0.22352 0.0
C152 C 0.80167 0.1448 0.30269 0.0
C153 C 0.82304 0.12758 0.34752 0.0
C154 C 0.79371 0.10015 0.34853 0.0
C155 C 0.77265 0.11754 0.30492 0.0
C156 C 0.82661 0.14999 0.32438 0.0
C157 C 0.76866 0.09558 0.3278 0.0
C158 C 0.8093 0.3004 0.30614 0.0
C159 C 0.807 0.1653 0.2757 0.0
H160 H 0.7579 0.41387 0.15362 0.0
H161 H 0.7796 0.36078 0.22428 0.0
H162 H 0.79973 0.39846 0.18197 0.0
H163 H 0.6733 0.35335 0.2106 0.0
H164 H 0.79031 0.08136 0.36471 0.0
H165 H 0.75335 0.11267 0.2884 0.0
H166 H 0.84884 0.1712 0.32291 0.0
H167 H 0.74643 0.07431 0.32892 0.0
Eu168 Eu 0.76021 0.72138 0.29706 0.0
C169 C 0.85585 0.82246 0.1987 0.0
N170 N 0.83926 0.8303 0.22889 0.0
C171 C 0.88683 0.87725 0.24043 0.0
C172 C 0.88906 0.84162 0.18836 0.0
C173 C 0.85377 0.85773 0.24946 0.0
C174 C 0.90469 0.86901 0.20984 0.0
C175 C 0.85491 0.78791 0.14573 0.0
C176 C 0.83905 0.79589 0.17764 0.0
C177 C 0.88826 0.80652 0.13555 0.0
C178 C 0.90531 0.83326 0.15682 0.0
Eu179 Eu 0.78376 0.79571 0.24202 0.0
N180 N 0.80696 0.77799 0.18833 0.0
C181 C 0.83662 0.76163 0.12496 0.0
C182 C 0.78828 0.75362 0.1677 0.0
C183 C 0.80302 0.74466 0.13591 0.0
H184 H 0.83945 0.86509 0.2725 0.0
H185 H 0.78836 0.72487 0.11979 0.0
H186 H 0.69495 0.66169 0.26545 0.0
H187 H 0.76108 0.80101 0.41534 0.0
H188 H 0.76203 0.74115 0.17574 0.0
H189 H 0.84795 0.75466 0.10029 0.0
H190 H 0.78673 0.77668 0.36188 0.0
H191 H 0.89833 0.89889 0.25691 0.0
H192 H 0.90097 0.80063 0.11119 0.0
H193 H 0.93088 0.84762 0.1485 0.0
H194 H 0.63205 0.6402 0.27976 0.0
H195 H 0.93018 0.88436 0.2028 0.0
H196 H 0.69814 0.78221 0.43318 0.0
N197 N 0.70027 0.69746 0.30842 0.0
C198 C 0.68467 0.70911 0.33805 0.0
C199 C 0.64648 0.65977 0.29623 0.0
C200 C 0.64883 0.69707 0.3474 0.0
C201 C 0.68206 0.67242 0.28796 0.0
C202 C 0.62973 0.6723 0.32596 0.0
N203 N 0.73883 0.74585 0.34899 0.0
C204 C 0.75929 0.76885 0.36913 0.0
C205 C 0.68871 0.74673 0.38942 0.0
C206 C 0.70448 0.73368 0.35899 0.0
C207 C 0.70932 0.7715 0.40966 0.0
C208 C 0.74483 0.78232 0.39961 0.0
H209 H 0.60214 0.66243 0.33226 0.0
H210 H 0.6056 0.70124 0.38519 0.0
H211 H 0.64041 0.74474 0.42182 0.0
O212 O 0.79026 0.70579 0.32864 0.0
O213 O 0.72531 0.76118 0.30331 0.0
O214 O 0.76258 0.81171 0.29468 0.0
O215 O 0.74876 0.66885 0.30708 0.0
O216 O 0.81312 0.75763 0.29874 0.0
O217 O 0.80602 0.80957 0.2902 0.0
O218 O 0.73972 0.80497 0.22245 0.0
O219 O 0.81785 0.75508 0.22546 0.0
O220 O 0.79373 0.70587 0.24942 0.0
O221 O 0.78317 0.84657 0.23232 0.0
O222 O 0.73379 0.75436 0.23954 0.0
O223 O 0.74608 0.70426 0.24647 0.0
C224 C 0.73359 0.79484 0.30941 0.0
C225 C 0.79689 0.6488 0.31578 0.0
C226 C 0.83513 0.61809 0.33215 0.0
C227 C 0.83968 0.60139 0.30031 0.0
C228 C 0.80145 0.63157 0.28408 0.0
C229 C 0.82286 0.60811 0.27642 0.0
C230 C 0.81381 0.64193 0.33985 0.0
C231 C 0.82106 0.7911 0.30383 0.0
C232 C 0.77448 0.67375 0.32399 0.0
C233 C 0.63313 0.71012 0.37769 0.0
C234 C 0.65298 0.73488 0.39859 0.0
C235 C 0.81669 0.72274 0.22803 0.0
C236 C 0.75276 0.84906 0.1893 0.0
C237 C 0.72292 0.87191 0.15459 0.0
C238 C 0.75112 0.87083 0.12999 0.0
C239 C 0.78074 0.84878 0.16441 0.0
C240 C 0.72384 0.86107 0.18443 0.0
C241 C 0.77986 0.85951 0.13497 0.0
C242 C 0.7302 0.72118 0.2323 0.0
C243 C 0.7538 0.83698 0.22021 0.0
H244 H 0.8561 0.58301 0.29402 0.0
H245 H 0.78824 0.63607 0.26535 0.0
H246 H 0.82628 0.59494 0.25196 0.0
H247 H 0.81035 0.65495 0.36444 0.0
H248 H 0.75103 0.87916 0.10695 0.0
H249 H 0.80343 0.84046 0.16772 0.0
H250 H 0.70215 0.86168 0.20353 0.0
H251 H 0.80161 0.85912 0.11595 0.0
Eu252 Eu 0.24812 0.79158 0.26073 0.0
C253 C 0.31178 0.68949 0.32361 0.0
N254 N 0.3278 0.71855 0.31085 0.0
C255 C 0.36651 0.73407 0.35146 0.0
C256 C 0.32296 0.68136 0.35078 0.0
C257 C 0.35482 0.74079 0.32427 0.0
C258 C 0.35061 0.70413 0.36471 0.0
C259 C 0.26599 0.63814 0.32312 0.0
C260 C 0.28335 0.66836 0.31017 0.0
C261 C 0.27782 0.62934 0.3494 0.0
C262 C 0.30605 0.65103 0.36337 0.0
Eu263 Eu 0.30762 0.72684 0.26383 0.0
N264 N 0.27154 0.67825 0.28563 0.0
C265 C 0.23664 0.61808 0.30983 0.0
C266 C 0.24105 0.66033 0.27488 0.0
C267 C 0.22353 0.62974 0.28626 0.0
H268 H 0.36818 0.76307 0.31324 0.0
H269 H 0.19968 0.61543 0.27714 0.0
H270 H 0.20643 0.77492 0.19528 0.0
H271 H 0.32564 0.91675 0.30739 0.0
H272 H 0.2293 0.66993 0.25847 0.0
H273 H 0.22305 0.59432 0.31858 0.0
H274 H 0.2843 0.862 0.31205 0.0
H275 H 0.38807 0.75174 0.3619 0.0
H276 H 0.26476 0.60623 0.35961 0.0
H277 H 0.31442 0.64427 0.38409 0.0
H278 H 0.21203 0.79575 0.14251 0.0
H279 H 0.35985 0.69887 0.38567 0.0
H280 H 0.34257 0.93774 0.25416 0.0
N281 N 0.24805 0.81338 0.21225 0.0
C282 C 0.27078 0.84316 0.20731 0.0
C283 C 0.22905 0.80913 0.16031 0.0
C284 C 0.27419 0.85672 0.17801 0.0
C285 C 0.22641 0.79695 0.18984 0.0
C286 C 0.25344 0.83891 0.15415 0.0
N287 N 0.2832 0.84821 0.26108 0.0
C288 C 0.29374 0.86916 0.28826 0.0
C289 C 0.31083 0.89344 0.22891 0.0
C290 C 0.28918 0.86097 0.23236 0.0
C291 C 0.32566 0.91279 0.25585 0.0
C292 C 0.31629 0.90097 0.28588 0.0
H293 H 0.25533 0.84847 0.13133 0.0
H294 H 0.30052 0.89867 0.15144 0.0
H295 H 0.33187 0.93131 0.19636 0.0
O296 O 0.21252 0.80663 0.303 0.0
O297 O 0.28568 0.78002 0.21556 0.0
O298 O 0.3303 0.77454 0.23982 0.0
O299 O 0.19982 0.80483 0.2551 0.0
O300 O 0.28222 0.80325 0.30248 0.0
O301 O 0.33047 0.78263 0.27945 0.0
O302 O 0.32535 0.694 0.22117 0.0
O303 O 0.26893 0.73573 0.30856 0.0
O304 O 0.22643 0.74195 0.28208 0.0
O305 O 0.35875 0.71446 0.25847 0.0
O306 O 0.26992 0.70712 0.22514 0.0
O307 O 0.22907 0.74089 0.23011 0.0
C308 C 0.31899 0.78219 0.21518 0.0
C309 C 0.15524 0.78038 0.29342 0.0
C310 C 0.10839 0.75886 0.33426 0.0
C311 C 0.09396 0.73287 0.31084 0.0
C312 C 0.14116 0.75362 0.2702 0.0
C313 C 0.11065 0.73002 0.27898 0.0
C314 C 0.13898 0.78246 0.32531 0.0
C315 C 0.31538 0.80298 0.30177 0.0
C316 C 0.18802 0.80492 0.28553 0.0
C317 C 0.29731 0.88799 0.17386 0.0
C318 C 0.31535 0.90645 0.19936 0.0
C319 C 0.23623 0.73599 0.30836 0.0
C320 C 0.38425 0.71778 0.2041 0.0
C321 C 0.40134 0.7306 0.1481 0.0
C322 C 0.4306 0.75469 0.15833 0.0
C323 C 0.41406 0.7414 0.21341 0.0
C324 C 0.37857 0.71223 0.17154 0.0
C325 C 0.43709 0.75955 0.19057 0.0
C326 C 0.24188 0.71392 0.21689 0.0
C327 C 0.35715 0.70119 0.22832 0.0
H328 H 0.06974 0.71515 0.31714 0.0
H329 H 0.15366 0.75082 0.24539 0.0
H330 H 0.09973 0.70974 0.26096 0.0
H331 H 0.14963 0.80337 0.34304 0.0
H332 H 0.44896 0.7695 0.14155 0.0
H333 H 0.4193 0.74635 0.23838 0.0
H334 H 0.35651 0.69252 0.16468 0.0
H335 H 0.45999 0.77773 0.19796 0.0
Eu336 Eu 0.24379 0.79147 0.77094 0.0
C337 C 0.35266 0.71568 0.68843 0.0
N338 N 0.3195 0.70186 0.70055 0.0
C339 C 0.31016 0.66745 0.64934 0.0
C340 C 0.36556 0.7064 0.65575 0.0
C341 C 0.2984 0.67765 0.68179 0.0
C342 C 0.34381 0.68202 0.6362 0.0
C343 C 0.40762 0.75527 0.6964 0.0
C344 C 0.37331 0.7401 0.70853 0.0
C345 C 0.42037 0.74641 0.66376 0.0
C346 C 0.39942 0.72203 0.64351 0.0
Eu347 Eu 0.30123 0.72143 0.7552 0.0
N348 N 0.36001 0.74878 0.73991 0.0
C349 C 0.42834 0.77852 0.71757 0.0
C350 C 0.38121 0.76909 0.76117 0.0
C351 C 0.41529 0.78491 0.75024 0.0
H352 H 0.27262 0.66586 0.69194 0.0
H353 H 0.43166 0.80156 0.76717 0.0
H354 H 0.27077 0.84398 0.83637 0.0
H355 H 0.11522 0.70914 0.7548 0.0
H356 H 0.37265 0.7724 0.78677 0.0
H357 H 0.45481 0.79071 0.7092 0.0
H358 H 0.1741 0.74009 0.73697 0.0
H359 H 0.29327 0.64835 0.63451 0.0
H360 H 0.44655 0.75805 0.65401 0.0
H361 H 0.40966 0.71543 0.61841 0.0
H362 H 0.24902 0.85811 0.89425 0.0
H363 H 0.35276 0.67424 0.61098 0.0
H364 H 0.09099 0.71687 0.81274 0.0
N365 N 0.22458 0.80769 0.82605 0.0
C366 C 0.19156 0.79249 0.83735 0.0
C367 C 0.23268 0.83949 0.87855 0.0
C368 C 0.17815 0.79968 0.87022 0.0
C369 C 0.245 0.83132 0.84584 0.0
C370 C 0.19919 0.82346 0.89085 0.0
N371 N 0.18558 0.76171 0.78465 0.0
C372 C 0.16506 0.74205 0.7625 0.0
C373 C 0.13739 0.75241 0.82731 0.0
C374 C 0.17163 0.76874 0.81613 0.0
C375 C 0.11736 0.72992 0.80511 0.0
C376 C 0.13105 0.72524 0.77245 0.0
H377 H 0.18981 0.82971 0.91625 0.0
H378 H 0.13376 0.7878 0.90674 0.0
H379 H 0.09801 0.74665 0.86916 0.0
O380 O 0.21625 0.81041 0.73954 0.0
O381 O 0.24336 0.75994 0.81071 0.0
O382 O 0.24695 0.70779 0.7826 0.0
O383 O 0.23996 0.8451 0.77942 0.0
O384 O 0.23691 0.75113 0.72574 0.0
O385 O 0.24695 0.70265 0.74021 0.0
O386 O 0.32545 0.70136 0.78932 0.0
O387 O 0.30492 0.75378 0.71505 0.0
O388 O 0.29692 0.80572 0.7419 0.0
O389 O 0.30422 0.66817 0.74756 0.0
O390 O 0.31051 0.76379 0.79877 0.0
O391 O 0.29844 0.81189 0.78484 0.0
C392 C 0.23423 0.72669 0.80782 0.0
C393 C 0.20929 0.86907 0.74675 0.0
C394 C 0.17213 0.88909 0.71707 0.0
C395 C 0.18495 0.92267 0.73144 0.0
C396 C 0.22143 0.90274 0.7609 0.0
C397 C 0.20936 0.92935 0.75316 0.0
C398 C 0.18471 0.86235 0.7247 0.0
C399 C 0.23289 0.71759 0.72207 0.0
C400 C 0.22182 0.84107 0.75555 0.0
C401 C 0.14443 0.78277 0.88152 0.0
C402 C 0.1241 0.75925 0.86013 0.0
C403 C 0.31107 0.78713 0.71719 0.0
C404 C 0.32928 0.641 0.78169 0.0
C405 C 0.35986 0.61535 0.81319 0.0
C406 C 0.34813 0.58336 0.79527 0.0
C407 C 0.31789 0.60863 0.76423 0.0
C408 C 0.34999 0.64422 0.80662 0.0
C409 C 0.32718 0.58006 0.7711 0.0
C410 C 0.31481 0.79739 0.80143 0.0
C411 C 0.31975 0.67084 0.77292 0.0
H412 H 0.17653 0.94396 0.72546 0.0
H413 H 0.24036 0.90856 0.77788 0.0
H414 H 0.21904 0.95529 0.76396 0.0
H415 H 0.17497 0.83637 0.71392 0.0
H416 H 0.355 0.56076 0.80021 0.0
H417 H 0.30179 0.60529 0.7451 0.0
H418 H 0.35901 0.66898 0.82029 0.0
H419 H 0.31822 0.55527 0.75754 0.0
Eu420 Eu 0.26557 0.22375 0.79133 0.0
C421 C 0.35435 0.30615 0.6895 0.0
N422 N 0.33791 0.31856 0.71831 0.0
C423 C 0.39065 0.35895 0.72952 0.0
C424 C 0.39022 0.31851 0.68044 0.0
C425 C 0.35494 0.34628 0.7371 0.0
C426 C 0.40855 0.3445 0.70142 0.0
C427 C 0.35036 0.27137 0.6368 0.0
C428 C 0.33478 0.28285 0.66787 0.0
C429 C 0.3864 0.2821 0.62846 0.0
C430 C 0.40631 0.30556 0.65027 0.0
Eu431 Eu 0.2782 0.29225 0.73034 0.0
N432 N 0.30013 0.27207 0.67695 0.0
C433 C 0.32905 0.25009 0.6148 0.0
C434 C 0.27887 0.2532 0.65503 0.0
C435 C 0.29306 0.24154 0.62375 0.0
H436 H 0.34113 0.35883 0.75801 0.0
H437 H 0.27631 0.22575 0.6067 0.0
H438 H 0.19249 0.16774 0.77164 0.0
H439 H 0.29185 0.3065 0.90546 0.0
H440 H 0.25109 0.24651 0.66213 0.0
H441 H 0.34003 0.24077 0.59067 0.0
H442 H 0.30676 0.27949 0.84987 0.0
H443 H 0.40423 0.38017 0.74513 0.0
H444 H 0.39898 0.27311 0.60491 0.0
H445 H 0.43392 0.31442 0.64313 0.0
H446 H 0.13255 0.14777 0.79719 0.0
H447 H 0.43613 0.35463 0.6954 0.0
H448 H 0.23217 0.29041 0.93372 0.0
N449 N 0.20749 0.20319 0.81282 0.0
C450 C 0.19841 0.21544 0.84442 0.0
C451 C 0.15072 0.16703 0.81061 0.0
C452 C 0.16437 0.20462 0.85993 0.0
C453 C 0.18462 0.17872 0.79607 0.0
C454 C 0.14047 0.18017 0.84259 0.0
N455 N 0.25544 0.25066 0.84523 0.0
C456 C 0.28032 0.27336 0.86117 0.0
C457 C 0.21343 0.25425 0.89313 0.0
C458 C 0.22285 0.24003 0.86092 0.0
C459 C 0.23843 0.27886 0.909 0.0
C460 C 0.27209 0.28818 0.89306 0.0
H461 H 0.1141 0.17119 0.85369 0.0
H462 H 0.12899 0.21091 0.90421 0.0
H463 H 0.17179 0.25437 0.93316 0.0
O464 O 0.28653 0.20173 0.8257 0.0
O465 O 0.22633 0.2599 0.80054 0.0
O466 O 0.25571 0.31062 0.78258 0.0
O467 O 0.26267 0.1688 0.7861 0.0
O468 O 0.31641 0.26366 0.78989 0.0
O469 O 0.30067 0.3105 0.77803 0.0
O470 O 0.23601 0.30184 0.70865 0.0
O471 O 0.29617 0.24138 0.71089 0.0
O472 O 0.31503 0.22809 0.75433 0.0
O473 O 0.28215 0.34138 0.71411 0.0
O474 O 0.22777 0.25319 0.73748 0.0
O475 O 0.24248 0.20403 0.74345 0.0
C476 C 0.23061 0.29344 0.80201 0.0
C477 C 0.31048 0.15382 0.80323 0.0
C478 C 0.35314 0.1296 0.82241 0.0
C479 C 0.36854 0.12369 0.79009 0.0
C480 C 0.32661 0.14747 0.7713 0.0
C481 C 0.35528 0.13241 0.76488 0.0
C482 C 0.32371 0.14453 0.82881 0.0
C483 C 0.32168 0.29674 0.78984 0.0
C484 C 0.2807 0.17103 0.80988 0.0
C485 C 0.15509 0.21879 0.892 0.0
C486 C 0.17947 0.24358 0.90848 0.0
C487 C 0.31663 0.22669 0.72272 0.0
C488 C 0.22931 0.35844 0.71605 0.0
C489 C 0.1919 0.39234 0.70319 0.0
C490 C 0.18446 0.40345 0.73651 0.0
C491 C 0.2219 0.37009 0.74912 0.0
C492 C 0.21458 0.36987 0.69309 0.0
C493 C 0.19957 0.39252 0.75928 0.0
C494 C 0.22497 0.22027 0.7298 0.0
C495 C 0.25115 0.33329 0.70533 0.0
H496 H 0.39074 0.11185 0.78422 0.0
H497 H 0.31714 0.15424 0.75121 0.0
H498 H 0.36735 0.12749 0.74019 0.0
H499 H 0.31161 0.14951 0.85357 0.0
H500 H 0.16716 0.42082 0.74488 0.0
H501 H 0.23324 0.36167 0.76698 0.0
H502 H 0.22008 0.36068 0.66751 0.0
H503 H 0.19382 0.40131 0.78488 0.0
Eu504 Eu 0.73532 0.29808 0.76152 0.0
C505 C 0.78448 0.19455 0.82614 0.0
N506 N 0.80141 0.22606 0.81893 0.0
C507 C 0.82107 0.24088 0.87131 0.0
C508 C 0.7849 0.18521 0.85676 0.0
C509 C 0.82003 0.249 0.84068 0.0
C510 C 0.80332 0.20889 0.87945 0.0
C511 C 0.74931 0.13862 0.80978 0.0
C512 C 0.76656 0.17166 0.80287 0.0
C513 C 0.7494 0.12943 0.84037 0.0
C514 C 0.76703 0.15267 0.86381 0.0
Eu515 Eu 0.79801 0.23771 0.76687 0.0
N516 N 0.76729 0.18099 0.77315 0.0
C517 C 0.73335 0.11531 0.78541 0.0
C518 C 0.75467 0.15712 0.74854 0.0
C519 C 0.73661 0.12442 0.7545 0.0
H520 H 0.83437 0.27341 0.83419 0.0
H521 H 0.72597 0.10598 0.73499 0.0
H522 H 0.70414 0.26304 0.6915 0.0
H523 H 0.8077 0.42867 0.7971 0.0
H524 H 0.75931 0.16244 0.72394 0.0
H525 H 0.71973 0.08979 0.78983 0.0
H526 H 0.77392 0.37191 0.80636 0.0
H527 H 0.8357 0.25921 0.88856 0.0
H528 H 0.73616 0.10422 0.84604 0.0
H529 H 0.76691 0.14513 0.88725 0.0
H530 H 0.70613 0.27832 0.63687 0.0
H531 H 0.80417 0.20265 0.90323 0.0
H532 H 0.81602 0.44633 0.74269 0.0
N533 N 0.73639 0.31013 0.70861 0.0
C534 C 0.75374 0.34186 0.70238 0.0
C535 C 0.71972 0.29635 0.655 0.0
C536 C 0.75478 0.35195 0.6718 0.0
C537 C 0.71882 0.28765 0.68581 0.0
C538 C 0.73787 0.32861 0.64792 0.0
N539 N 0.76795 0.3544 0.75646 0.0
C540 C 0.77961 0.37773 0.78187 0.0
C541 C 0.78761 0.39776 0.72095 0.0
C542 C 0.77027 0.36438 0.72676 0.0
C543 C 0.8024 0.42056 0.74625 0.0
C544 C 0.79793 0.41064 0.77695 0.0
H545 H 0.73828 0.3354 0.6241 0.0
H546 H 0.77293 0.39334 0.64287 0.0
H547 H 0.80166 0.4334 0.68582 0.0
O548 O 0.70285 0.32799 0.79529 0.0
O549 O 0.77476 0.28722 0.71743 0.0
O550 O 0.81918 0.28604 0.74386 0.0
O551 O 0.68363 0.29932 0.7517 0.0
O552 O 0.76736 0.31331 0.80505 0.0
O553 O 0.81701 0.29386 0.78423 0.0
O554 O 0.84743 0.22867 0.77472 0.0
O555 O 0.75837 0.24659 0.81132 0.0
O556 O 0.71264 0.25243 0.78837 0.0
O557 O 0.8326 0.21734 0.72646 0.0
O558 O 0.76355 0.22077 0.72538 0.0
O559 O 0.71492 0.24178 0.74658 0.0
C560 C 0.80813 0.29125 0.7181 0.0
C561 C 0.64477 0.29597 0.8001 0.0
C562 C 0.61525 0.283 0.85343 0.0
C563 C 0.59005 0.25751 0.83854 0.0
C564 C 0.61955 0.27001 0.7855 0.0
C565 C 0.59238 0.25097 0.8047 0.0
C566 C 0.64213 0.30232 0.83397 0.0
C567 C 0.80064 0.3141 0.80551 0.0
C568 C 0.67544 0.31456 0.78056 0.0
C569 C 0.77212 0.38505 0.66612 0.0
C570 C 0.78856 0.40784 0.69057 0.0
C571 C 0.72487 0.24379 0.81195 0.0
C572 C 0.88982 0.24798 0.73238 0.0
C573 C 0.93583 0.26451 0.68903 0.0
C574 C 0.94828 0.29523 0.70829 0.0
C575 C 0.90254 0.27889 0.75166 0.0
C576 C 0.90641 0.24123 0.70101 0.0
C577 C 0.93134 0.30251 0.7395 0.0
C578 C 0.73043 0.22083 0.72541 0.0
C579 C 0.85812 0.22377 0.74391 0.0
H580 H 0.56852 0.24293 0.85304 0.0
H581 H 0.62099 0.26419 0.75934 0.0
H582 H 0.57303 0.2311 0.79329 0.0
H583 H 0.66082 0.32304 0.84532 0.0
H584 H 0.9714 0.31301 0.69949 0.0
H585 H 0.89029 0.28473 0.77612 0.0
H586 H 0.89717 0.21714 0.68628 0.0
H587 H 0.9409 0.32619 0.75453 0.0
Eu588 Eu 0.74354 0.76139 0.72831 0.0
C589 C 0.8198 0.83915 0.84054 0.0
N590 N 0.83307 0.82673 0.81025 0.0
C591 C 0.87197 0.88116 0.80522 0.0
C592 C 0.83094 0.87364 0.8536 0.0
C593 C 0.86052 0.84668 0.79357 0.0
C594 C 0.85662 0.8949 0.83506 0.0
C595 C 0.78448 0.82809 0.89187 0.0
C596 C 0.79688 0.81676 0.85957 0.0
C597 C 0.79409 0.86275 0.90429 0.0
C598 C 0.81723 0.88549 0.88518 0.0
Eu599 Eu 0.80962 0.76816 0.79223 0.0
N600 N 0.78748 0.78349 0.84673 0.0
C601 C 0.76342 0.80405 0.9109 0.0
C602 C 0.76844 0.75963 0.86554 0.0
C603 C 0.75582 0.76959 0.89781 0.0
H604 H 0.87441 0.8362 0.77154 0.0
H605 H 0.74009 0.75074 0.9125 0.0
H606 H 0.68336 0.68974 0.74473 0.0
H607 H 0.82224 0.79169 0.61392 0.0
H608 H 0.76259 0.73305 0.85529 0.0
H609 H 0.75344 0.81174 0.93585 0.0
H610 H 0.79887 0.80332 0.6714 0.0
H611 H 0.89314 0.89694 0.79144 0.0
H612 H 0.78447 0.87206 0.92891 0.0
H613 H 0.82522 0.91198 0.89541 0.0
H614 H 0.65996 0.63317 0.71637 0.0
H615 H 0.8659 0.92152 0.84421 0.0
H616 H 0.80173 0.73546 0.58237 0.0
N617 N 0.71968 0.70564 0.70435 0.0
C618 C 0.73053 0.69819 0.67211 0.0
C619 C 0.68013 0.65103 0.70376 0.0
C620 C 0.71707 0.66618 0.65473 0.0
C621 C 0.69407 0.68304 0.72001 0.0
C622 C 0.69184 0.64245 0.67106 0.0
N623 N 0.76815 0.75328 0.67352 0.0
C624 C 0.79113 0.77821 0.65851 0.0
C625 C 0.7671 0.71523 0.623 0.0
C626 C 0.75526 0.72262 0.6563 0.0
C627 C 0.79196 0.7402 0.60787 0.0
C628 C 0.80379 0.7719 0.62565 0.0
H629 H 0.68083 0.61765 0.65853 0.0
H630 H 0.71889 0.63441 0.60798 0.0
H631 H 0.76272 0.67722 0.58028 0.0
O632 O 0.72517 0.79262 0.70079 0.0
O633 O 0.78232 0.72496 0.71395 0.0
O634 O 0.83059 0.7498 0.74013 0.0
O635 O 0.68778 0.7585 0.73011 0.0
O636 O 0.78552 0.81015 0.73257 0.0
O637 O 0.83182 0.794 0.74674 0.0
O638 O 0.82151 0.72516 0.81016 0.0
O639 O 0.75729 0.78417 0.81203 0.0
O640 O 0.74669 0.80622 0.76961 0.0
O641 O 0.86043 0.77159 0.80652 0.0
O642 O 0.7688 0.71889 0.78281 0.0
O643 O 0.72097 0.73572 0.7734 0.0
C644 C 0.81554 0.728 0.71696 0.0
C645 C 0.67023 0.77188 0.68322 0.0
C646 C 0.64245 0.79252 0.64538 0.0
C647 C 0.62896 0.75849 0.63275 0.0
C648 C 0.65656 0.73813 0.6703 0.0
C649 C 0.63606 0.73156 0.64513 0.0
C650 C 0.66319 0.79891 0.67062 0.0
C651 C 0.81911 0.81352 0.7321 0.0
C652 C 0.69245 0.78001 0.70932 0.0
C653 C 0.72892 0.65889 0.62163 0.0
C654 C 0.75385 0.6833 0.60584 0.0
C655 C 0.7415 0.80387 0.8008 0.0
C656 C 0.86252 0.7404 0.84806 0.0
C657 C 0.88796 0.71253 0.88207 0.0
C658 C 0.88731 0.74049 0.90663 0.0
C659 C 0.86194 0.76796 0.87308 0.0
C660 C 0.87512 0.7124 0.85286 0.0
C661 C 0.8741 0.76786 0.90221 0.0
C662 C 0.7349 0.7163 0.78699 0.0
C663 C 0.85243 0.74179 0.81627 0.0
H664 H 0.61315 0.75271 0.61312 0.0
H665 H 0.66166 0.71692 0.67958 0.0
H666 H 0.62563 0.70548 0.63518 0.0
H667 H 0.67351 0.82498 0.68088 0.0
H668 H 0.89686 0.74101 0.92936 0.0
H669 H 0.85274 0.78991 0.86989 0.0
H670 H 0.87591 0.69112 0.83363 0.0
H671 H 0.8737 0.78928 0.92128 0.0
Fe672 Fe 0.03041 0.04816 0.51193 0.0
O673 O 0.99611 1.00535 0.49759 0.0
Fe674 Fe 0.104 0.01787 0.51531 0.0
Fe675 Fe 0.94486 1.00054 0.51057 0.0
O676 O 0.05415 0.01631 0.52613 0.0
O677 O 0.05288 0.01318 0.52801 0.0
O678 O 0.9947 1.00203 0.49967 0.0
Fe679 Fe 1.01816 0.97048 0.51467 0.0
C680 C 0.9733 0.05952 0.56113 0.0
O681 O 1.00002 0.07535 0.49341 0.0
O682 O 0.95348 0.03332 0.47677 0.0
O683 O 0.04623 0.96689 0.46982 0.0
O684 O 0.09955 0.97414 0.48143 0.0
O685 O 0.11163 0.04954 0.47995 0.0
O686 O 0.05965 0.04766 0.46643 0.0
O687 O 0.94119 0.95563 0.47934 0.0
O688 O 0.97958 0.92942 0.49565 0.0
C689 C 0.0927 0.05578 0.46119 0.0
O690 O 0.04791 0.9433 0.53342 0.0
O691 O 0.09567 0.98433 0.54826 0.0
O692 O 1.00184 0.05025 0.55659 0.0
O693 O 0.9494 0.04469 0.54376 0.0
C694 C 0.97391 0.06336 0.47644 0.0
C695 C 0.9545 0.92958 0.47929 0.0
C696 C 0.95652 0.96434 0.56581 0.0
O697 O 0.93743 0.96995 0.54684 0.0
O698 O 0.98954 0.97252 0.56038 0.0
C699 C 0.07505 0.95809 0.46511 0.0
O700 O 0.10682 0.06159 0.5479 0.0
O701 O 0.06873 0.08896 0.53265 0.0
C702 C 0.07527 0.95432 0.5487 0.0
C703 C 0.09283 0.08753 0.54976 0.0
Fe704 Fe 0.52334 0.96911 1.00704 0.0
O705 O 0.55189 0.01093 0.98867 0.0
Fe706 Fe 0.44513 0.99611 0.03691 0.0
Fe707 Fe 0.60314 0.02337 0.98558 0.0
O708 O 0.49615 1.00328 0.03234 0.0
O709 O 0.49631 1.0077 0.03357 0.0
O710 O 0.55209 0.01547 0.98995 0.0
Fe711 Fe 0.52504 0.04955 0.01563 0.0
C712 C 0.58633 0.97937 0.04114 0.0
O713 O 0.5584 0.93971 0.9762 0.0
O714 O 0.59924 0.98055 0.9506 0.0
O715 O 0.49472 0.04171 0.97836 0.0
O716 O 0.44204 0.02978 1.00643 0.0
O717 O 0.44006 0.95709 0.99847 0.0
O718 O 0.49218 0.95755 0.96954 0.0
O719 O 0.599 0.0586 0.95785 0.0
O720 O 0.55997 0.08797 0.99014 0.0
C721 C 0.45892 0.94903 0.97219 0.0
O722 O 0.49029 0.07908 0.04699 0.0
O723 O 0.45006 0.03803 0.07263 0.0
O724 O 0.55362 0.97726 0.04438 0.0
O725 O 0.60635 0.99098 0.01696 0.0
C726 C 0.58532 0.94894 0.95436 0.0
C727 C 0.58412 0.08446 0.96536 0.0
C728 C 0.58934 0.06982 0.05022 0.0
O729 O 0.60787 0.06329 0.02332 0.0
O730 O 0.55615 0.06027 0.05321 0.0
C731 C 0.46216 0.04032 0.98188 0.0
O732 O 0.44886 0.96016 0.06403 0.0
O733 O 0.48862 0.93087 0.03285 0.0
C734 C 0.46417 0.06974 0.06956 0.0
C735 C 0.46422 0.93464 0.05732 0.0
Fe736 Fe 0.02672 0.54719 0.01772 0.0
O737 O 0.99375 0.50796 0.0369 0.0
Fe738 Fe 0.0995 0.51104 0.98746 0.0
Fe739 Fe 0.94261 0.50172 0.04048 0.0
O740 O 0.04926 0.50947 0.99236 0.0
O741 O 0.04849 0.50507 0.99089 0.0
O742 O 0.99289 0.50351 0.03526 0.0
Fe743 Fe 1.01537 0.46584 1.00974 0.0
C744 C 0.96892 0.57486 0.07152 0.0
O745 O 0.99675 0.54187 0.98076 0.0
O746 O 0.9444 0.53652 1.00967 0.0
O747 O 0.04635 0.43178 0.979 0.0
O748 O 0.09099 0.46843 0.9523 0.0
O749 O 0.10048 0.54811 0.95962 0.0
O750 O 0.06516 0.58217 0.99105 0.0
O751 O 0.93341 0.46235 1.00254 0.0
O752 O 0.98438 0.45848 0.9727 0.0
C753 C 0.08924 0.57626 0.96686 0.0
O754 O 0.04461 0.47073 0.04666 0.0
O755 O 0.09782 0.47695 0.01944 0.0
O756 O 0.99579 0.58107 0.04874 0.0
O757 O 0.95134 0.54431 0.07573 0.0
C758 C 0.96556 0.54561 0.9851 0.0
C759 C 0.95119 0.45315 0.97601 0.0
C760 C 0.95385 0.43687 0.06106 0.0
O761 O 0.94181 0.46453 0.06804 0.0
O762 O 0.97697 0.43063 0.03612 0.0
C763 C 0.07342 0.43793 0.95644 0.0
O764 O 0.10855 0.55062 0.02473 0.0
O765 O 0.05821 0.55564 0.05481 0.0
C766 C 0.07597 0.46788 0.04369 0.0
C767 C 0.09149 0.5612 0.05115 0.0
Fe768 Fe 0.52828 0.50715 0.97643 0.0
O769 O 0.54846 0.53809 0.01411 0.0
Fe770 Fe 0.44517 0.47132 1.01012 0.0
Fe771 Fe 0.59856 0.5505 0.01809 0.0
O772 O 0.49538 0.48414 1.01122 0.0
O773 O 0.49524 0.48355 0.01475 0.0
O774 O 0.54817 0.53775 0.01759 0.0
Fe775 Fe 0.51519 0.51479 0.05244 0.0
C776 C 0.5923 0.48081 0.9772 0.0
O777 O 0.56664 0.53661 0.9447 0.0
O778 O 0.59987 0.57623 0.97951 0.0
O779 O 0.48314 0.54691 0.05169 0.0
O780 O 0.43262 0.5105 0.04385 0.0
O781 O 0.44657 0.50084 0.97437 0.0
O782 O 0.49643 0.53952 0.97487 0.0
O783 O 0.58456 0.58619 0.05551 0.0
O784 O 0.54157 0.55229 0.08699 0.0
C785 C 0.46536 0.52964 0.96822 0.0
O786 O 0.4768 0.48518 0.08385 0.0
O787 O 0.44343 0.44571 0.04881 0.0
O788 O 0.55967 0.47476 0.97709 0.0
O789 O 0.61075 0.51054 0.98423 0.0
C790 C 0.5896 0.56501 0.95118 0.0
C791 C 0.56585 0.57987 0.08298 0.0
C792 C 0.57846 0.49379 0.06217 0.0
O793 O 0.59752 0.52172 0.05413 0.0
O794 O 0.54756 0.483 0.05501 0.0
C795 C 0.4505 0.54038 0.05095 0.0
O796 O 0.45929 0.43581 0.97292 0.0
O797 O 0.5018 0.46989 0.9415 0.0
C798 C 0.45326 0.45723 0.0773 0.0
C799 C 0.47766 0.44216 0.94538 0.0
Fe800 Fe 1.02082 0.46952 0.50881 0.0
O801 O 0.99932 0.50628 0.5374 0.0
Fe802 Fe 0.04934 0.50548 0.43789 0.0
Fe803 Fe 0.99536 0.51388 0.58529 0.0
O804 O 0.04581 0.50876 0.48517 0.0
O805 O 0.04639 0.51337 0.48595 0.0
O806 O 0.99979 0.51068 0.53809 0.0
Fe807 Fe 0.02433 0.55 0.5144 0.0
C808 C 0.96579 0.43785 0.56371 0.0
O809 O 0.06078 0.47844 0.53655 0.0
O810 O 0.03286 0.48738 0.58678 0.0
O811 O 0.0551 0.58571 0.48311 0.0
O812 O 0.08391 0.55164 0.44384 0.0
O813 O 0.08226 0.47357 0.43885 0.0
O814 O 0.04963 0.43694 0.47401 0.0
O815 O 0.03243 0.55876 0.59103 0.0
O816 O 0.06488 0.56298 0.54315 0.0
C817 C 0.07471 0.44454 0.45009 0.0
O818 O 0.98421 0.53979 0.48672 0.0
O819 O 1.01281 0.53322 0.43677 0.0
O820 O 0.99008 0.43366 0.53933 0.0
O821 O 0.96135 0.46719 0.57928 0.0
C822 C 0.05868 0.47992 0.5672 0.0
C823 C 0.06089 0.57027 0.57406 0.0
C824 C 0.96861 0.57371 0.57226 0.0
O825 O 0.96169 0.54466 0.58341 0.0
O826 O 0.99427 0.58203 0.54892 0.0
C827 C 0.07926 0.58125 0.4585 0.0
O828 O 1.01115 0.46121 0.43227 0.0
O829 O 0.97995 0.45779 0.48079 0.0
C830 C 0.98646 0.53943 0.45625 0.0
C831 C 0.98285 0.45086 0.44995 0.0
Fe832 Fe 0.52137 0.96896 0.50956 0.0
O833 O 0.49942 1.00435 0.53994 0.0
Fe834 Fe 0.55122 0.01048 0.44128 0.0
Fe835 Fe 0.49514 1.00782 0.58783 0.0
O836 O 0.54665 1.00963 0.48806 0.0
O837 O 0.54731 0.01393 0.48915 0.0
O838 O 0.49995 1.00877 0.54097 0.0
Fe839 Fe 0.52602 0.04954 0.51985 0.0
C840 C 0.46487 0.93427 0.56168 0.0
O841 O 0.56077 0.9768 0.53759 0.0
O842 O 0.52968 0.97696 0.58652 0.0
O843 O 0.55854 0.08687 0.4915 0.0
O844 O 0.58788 0.05458 0.45066 0.0
O845 O 0.58205 0.97534 0.43925 0.0
O846 O 0.55048 0.93769 0.47384 0.0
O847 O 0.53523 0.04989 0.59632 0.0
O848 O 0.56596 0.05926 0.54837 0.0
C849 C 0.5753 0.94606 0.45 0.0
O850 O 0.48674 0.04272 0.49189 0.0
O851 O 0.5174 0.04213 0.44279 0.0
O852 O 0.49035 0.93169 0.53813 0.0
O853 O 0.45905 0.96272 0.57843 0.0
C854 C 0.55623 0.97131 0.56694 0.0
C855 C 0.56319 0.06272 0.57926 0.0
C856 C 0.47134 0.07216 0.57908 0.0
O857 O 0.46391 0.04256 0.58936 0.0
O858 O 0.49709 0.08088 0.55602 0.0
C859 C 0.58386 0.0834 0.46782 0.0
O860 O 0.51054 0.9691 0.43303 0.0
O861 O 0.48112 0.95804 0.48115 0.0
C862 C 0.49097 0.0479 0.46247 0.0
C863 C 0.48318 0.95548 0.45034 0.0
C864 C 0.21677 0.15367 0.32046 0.0
C865 C 0.20537 0.18171 0.31438 0.0
C866 C 0.19673 0.13173 0.34239 0.0
C867 C 0.16496 0.13852 0.35971 0.0
C868 C 0.15328 0.16676 0.3535 0.0
C869 C 0.17327 0.18759 0.33061 0.0
C870 C 0.20994 0.10156 0.34749 0.0
C871 C 0.12042 0.17596 0.37211 0.0
C872 C 0.09996 0.06947 0.40374 0.0
C873 C 0.11015 0.0768 0.43494 0.0
C874 C 0.11766 0.08904 0.37892 0.0
C875 C 0.14532 0.11748 0.38575 0.0
C876 C 0.15475 0.12558 0.41761 0.0
C877 C 0.13759 0.10485 0.44149 0.0
C878 C 0.10729 0.07883 0.3452 0.0
C879 C 0.18299 0.1563 0.42659 0.0
H880 H 0.24147 0.14886 0.30804 0.0
H881 H 0.16447 0.20949 0.32648 0.0
H882 H 0.21712 0.10541 0.37238 0.0
H883 H 0.1892 0.07798 0.34511 0.0
H884 H 0.23308 0.09771 0.3299 0.0
H885 H 0.11416 0.1979 0.36367 0.0
H886 H 0.09812 0.15383 0.36973 0.0
H887 H 0.12335 0.18263 0.3983 0.0
H888 H 0.07883 0.04784 0.39851 0.0
H889 H 0.14526 0.11103 0.46568 0.0
H890 H 0.12992 0.07325 0.32779 0.0
H891 H 0.09935 0.10016 0.33742 0.0
H892 H 0.08553 0.056 0.34367 0.0
H893 H 0.20834 0.15291 0.4128 0.0
H894 H 0.18546 0.16062 0.45292 0.0
H895 H 0.17753 0.17953 0.41997 0.0
C896 C 0.8858 0.1441 0.3595 0.0
C897 C 0.85032 0.13102 0.36937 0.0
C898 C 0.91166 0.14267 0.378 0.0
C899 C 0.90213 0.1263 0.4062 0.0
C900 C 0.86642 0.11521 0.41743 0.0
C901 C 0.84112 0.11865 0.39948 0.0
C902 C 0.9493 0.15685 0.36624 0.0
C903 C 0.8548 0.09715 0.4471 0.0
C904 C 0.95526 0.06859 0.42496 0.0
C905 C 0.96507 0.08456 0.45523 0.0
C906 C 0.937 0.08325 0.40763 0.0
C907 C 0.92862 0.11511 0.42065 0.0
C908 C 0.94162 0.13307 0.44966 0.0
C909 C 0.95957 0.11741 0.46684 0.0
C910 C 0.92382 0.06294 0.37693 0.0
C911 C 0.93453 0.16765 0.46381 0.0
H912 H 0.89379 0.15404 0.33658 0.0
H913 H 0.81396 0.11016 0.40857 0.0
H914 H 0.96407 0.16869 0.38697 0.0
H915 H 0.96134 0.1359 0.35263 0.0
H916 H 0.95193 0.17617 0.34982 0.0
H917 H 0.82607 0.09131 0.45342 0.0
H918 H 0.86374 0.07281 0.44268 0.0
H919 H 0.8666 0.11293 0.46826 0.0
H920 H 0.95979 0.04327 0.41586 0.0
H921 H 0.967 0.12979 0.49032 0.0
H922 H 0.93117 0.07861 0.35683 0.0
H923 H 0.89499 0.05543 0.38087 0.0
H924 H 0.93418 0.03945 0.36923 0.0
H925 H 0.93458 0.18296 0.44442 0.0
H926 H 0.95407 0.18204 0.47998 0.0
H927 H 0.90854 0.16443 0.4785 0.0
C928 C 0.86098 0.78888 0.34357 0.0
C929 C 0.84575 0.80825 0.32778 0.0
C930 C 0.88142 0.8043 0.3686 0.0
C931 C 0.88749 0.84009 0.37773 0.0
C932 C 0.87341 0.8599 0.36101 0.0
C933 C 0.85234 0.84374 0.33671 0.0
C934 C 0.89535 0.78215 0.38613 0.0
C935 C 0.87971 0.89823 0.36944 0.0
C936 C 0.90465 0.88436 0.46224 0.0
C937 C 0.9403 0.89891 0.45734 0.0
C938 C 0.88763 0.86301 0.43714 0.0
C939 C 0.90657 0.85688 0.40604 0.0
C940 C 0.94303 0.87004 0.40149 0.0
C941 C 0.95958 0.89056 0.4274 0.0
C942 C 0.84885 0.84926 0.44327 0.0
C943 C 0.96395 0.86484 0.36856 0.0
H944 H 0.85602 0.76141 0.33715 0.0
H945 H 0.8403 0.85901 0.32538 0.0
H946 H 0.92381 0.79148 0.3863 0.0
H947 H 0.88316 0.78364 0.4118 0.0
H948 H 0.8901 0.75499 0.37494 0.0
H949 H 0.87009 0.91022 0.352 0.0
H950 H 0.86633 0.90492 0.39408 0.0
H951 H 0.9079 0.90938 0.3698 0.0
H952 H 0.88965 0.89138 0.48521 0.0
H953 H 0.98702 0.90248 0.42339 0.0
H954 H 0.84211 0.82176 0.43353 0.0
H955 H 0.8353 0.86284 0.43051 0.0
H956 H 0.83881 0.85256 0.46952 0.0
H957 H 0.96121 0.8372 0.35984 0.0
H958 H 0.99196 0.87698 0.36886 0.0
H959 H 0.95384 0.87585 0.35075 0.0
C960 C 0.10732 0.77542 0.39352 0.0
C961 C 0.08918 0.76647 0.36643 0.0
C962 C 0.09904 0.80076 0.41841 0.0
C963 C 0.07276 0.81732 0.41518 0.0
C964 C 0.04982 0.80293 0.39173 0.0
C965 C 0.05819 0.77707 0.36754 0.0
C966 C 0.12134 0.81289 0.4455 0.0
C967 C 1.01972 0.81825 0.38919 0.0
C968 C 0.05083 0.89647 0.46664 0.0
C969 C 0.07486 0.92237 0.45185 0.0
C970 C 0.05141 0.86214 0.45674 0.0
C971 C 0.07497 0.85336 0.42966 0.0
C972 C 0.09901 0.8795 0.41411 0.0
C973 C 0.09935 0.91385 0.42615 0.0
C974 C 0.02651 0.83594 0.47557 0.0
C975 C 0.12381 0.8713 0.38424 0.0
H976 H 0.13073 0.76619 0.39305 0.0
H977 H 0.04363 0.76928 0.34694 0.0
H978 H 0.14305 0.8342 0.43869 0.0
H979 H 0.10599 0.82233 0.46818 0.0
H980 H 0.13274 0.79214 0.45018 0.0
H981 H 1.00395 0.80343 0.36999 0.0
H982 H 1.00252 0.81929 0.41263 0.0
H983 H 0.0297 0.84477 0.38365 0.0
H984 H 0.03178 0.90282 0.48655 0.0
H985 H 0.118 0.93399 0.41493 0.0
H986 H 0.02767 0.84393 0.50199 0.0
H987 H 0.03194 0.81003 0.46907 0.0
H988 H 0.99952 0.83486 0.47137 0.0
H989 H 0.14313 0.85885 0.39062 0.0
H990 H 0.13812 0.89447 0.37331 0.0
H991 H 0.10945 0.85327 0.36563 0.0
C992 C 0.15133 0.86193 0.6635 0.0
C993 C 0.1468 0.88284 0.69329 0.0
C994 C 0.13252 0.86229 0.63819 0.0
C995 C 0.10939 0.88461 0.64268 0.0
C996 C 0.10153 0.90224 0.67398 0.0
C997 C 0.12023 0.90099 0.69894 0.0
C998 C 0.14024 0.84166 0.60567 0.0
C999 C 0.0767 0.926 0.68016 0.0
C1000 C 0.11775 0.94143 0.579 0.0
C1001 C 0.08469 0.93203 0.56864 0.0
C1002 C 0.12647 0.92489 0.60178 0.0
C1003 C 0.10182 0.89738 0.61419 0.0
C1004 C 0.06934 0.88573 0.60196 0.0
C1005 C 0.06104 0.90333 0.57927 0.0
C1006 C 0.16146 0.93851 0.61402 0.0
C1007 C 0.04324 0.85522 0.61324 0.0
H1008 H 0.17139 0.8473 0.65904 0.0
H1009 H 0.11566 0.91616 0.72233 0.0
H1010 H 0.11658 0.83247 0.59328 0.0
H1011 H 0.16009 0.85788 0.58995 0.0
H1012 H 0.15061 0.81941 0.6082 0.0
H1013 H 0.06927 0.93342 0.70651 0.0
H1014 H 0.0893 0.94952 0.66914 0.0
H1015 H 0.05273 0.91405 0.6688 0.0
H1016 H 0.13674 0.96287 0.57025 0.0
H1017 H 0.03571 0.89541 0.57086 0.0
H1018 H 0.17617 0.91803 0.61028 0.0
H1019 H 0.15774 0.94754 0.64046 0.0
H1020 H 0.17762 0.96004 0.60163 0.0
H1021 H 0.05389 0.83202 0.60487 0.0
H1022 H 1.01803 0.85131 0.60371 0.0
H1023 H 0.03845 0.85798 0.64012 0.0
C1024 C 0.17224 0.21329 0.70227 0.0
C1025 C 0.20222 0.20211 0.7048 0.0
C1026 C 0.15146 0.19824 0.67742 0.0
C1027 C 0.16132 0.17189 0.65387 0.0
C1028 C 0.19191 0.16085 0.65608 0.0
C1029 C 0.2117 0.17576 0.68174 0.0
C1030 C 0.1188 0.21035 0.67653 0.0
C1031 C 0.20382 0.13331 0.63122 0.0
C1032 C 0.09519 0.10535 0.60827 0.0
C1033 C 0.10268 0.11462 0.57692 0.0
C1034 C 0.11285 0.12467 0.63383 0.0
C1035 C 0.1387 0.15432 0.6281 0.0
C1036 C 0.14443 0.16535 0.59706 0.0
C1037 C 0.12656 0.14514 0.57165 0.0
C1038 C 0.10565 0.1118 0.66634 0.0
C1039 C 0.17113 0.19722 0.59007 0.0
H1040 H 0.16486 0.23378 0.71999 0.0
H1041 H 0.23525 0.16758 0.68316 0.0
H1042 H 0.11953 0.21882 0.65275 0.0
H1043 H 0.09576 0.189 0.67921 0.0
H1044 H 0.11522 0.23172 0.69608 0.0
H1045 H 0.22901 0.12881 0.63535 0.0
H1046 H 0.18395 0.10909 0.63193 0.0
H1047 H 0.20671 0.14039 0.6065 0.0
H1048 H 0.07712 0.08143 0.61224 0.0
H1049 H 0.13295 0.15201 0.54732 0.0
H1050 H 0.10137 0.1326 0.6862 0.0
H1051 H 0.12855 0.10297 0.67056 0.0
H1052 H 0.08258 0.09026 0.66779 0.0
H1053 H 0.168 0.21869 0.60958 0.0
H1054 H 0.16925 0.20482 0.56647 0.0
H1055 H 0.19759 0.19279 0.58945 0.0
C1056 C 0.98553 0.24102 0.66205 0.0
C1057 C 0.95618 0.25267 0.65902 0.0
C1058 C 0.99477 0.21376 0.64024 0.0
C1059 C 0.97452 0.19902 0.61476 0.0
C1060 C 0.94953 0.21538 0.60806 0.0
C1061 C 0.94007 0.24189 0.63082 0.0
C1062 C 0.02274 0.19781 0.6472 0.0
C1063 C 0.92979 0.20212 0.57925 0.0
C1064 C 0.99838 0.12122 0.56224 0.0
C1065 C 0.97368 0.09485 0.57567 0.0
C1066 C 0.99829 0.15539 0.57368 0.0
C1067 C 0.97387 0.16327 0.60035 0.0
C1068 C 0.94902 0.13665 0.61439 0.0
C1069 C 0.94875 0.10259 0.6013 0.0
C1070 C 0.02462 0.18247 0.55705 0.0
C1071 C 0.92295 0.14409 0.64345 0.0
H1072 H 0.99803 0.24976 0.68389 0.0
H1073 H 0.91751 0.25132 0.62853 0.0
H1074 H 1.01058 0.17291 0.65589 0.0
H1075 H 0.04065 0.19289 0.62478 0.0
H1076 H 0.03818 0.21426 0.66595 0.0
H1077 H 0.91772 0.22182 0.57331 0.0
H1078 H 0.94723 0.19371 0.55764 0.0
H1079 H 0.90877 0.17975 0.58479 0.0
H1080 H 1.01739 0.11532 0.54209 0.0
H1081 H 0.92956 0.08205 0.61138 0.0
H1082 H 0.0501 0.18579 0.56582 0.0
H1083 H 1.01706 0.20749 0.56156 0.0
H1084 H 0.02835 0.17433 0.53042 0.0
H1085 H 0.90721 0.12048 0.65277 0.0
H1086 H 0.90502 0.15802 0.6368 0.0
H1087 H 0.93654 0.16066 0.66333 0.0
C1088 C 0.87523 0.832 0.69601 0.0
C1089 C 0.84336 0.83855 0.71216 0.0
C1090 C 0.89615 0.85318 0.67377 0.0
C1091 C 0.88541 0.88214 0.66794 0.0
C1092 C 0.85405 0.8897 0.68544 0.0
C1093 C 0.83332 0.86771 0.70695 0.0
C1094 C 0.92885 0.84351 0.65527 0.0
C1095 C 0.84172 0.92049 0.68061 0.0
C1096 C 0.95028 0.95072 0.6232 0.0
C1097 C 0.93941 0.94351 0.59227 0.0
C1098 C 0.93302 0.93114 0.64814 0.0
C1099 C 0.90511 0.90284 0.64168 0.0
C1100 C 0.89504 0.89486 0.61007 0.0
C1101 C 0.91181 0.91554 0.58607 0.0
C1102 C 0.94412 0.94118 0.6816 0.0
C1103 C 0.8666 0.86422 0.60144 0.0
H1104 H 0.88305 0.80935 0.69958 0.0
H1105 H 0.80882 0.87307 0.71937 0.0
H1106 H 0.92551 0.83586 0.62923 0.0
H1107 H 0.95126 0.86564 0.65679 0.0
H1108 H 0.93519 0.82204 0.66441 0.0
H1109 H 0.81897 0.92495 0.69847 0.0
H1110 H 0.86301 0.94363 0.68275 0.0
H1111 H 0.83422 0.91688 0.65585 0.0
H1112 H 0.97161 0.97224 0.62813 0.0
H1113 H 0.90371 0.90937 0.56204 0.0
H1114 H 0.95184 0.91961 0.68917 0.0
H1115 H 0.92191 0.94717 0.69937 0.0
H1116 H 0.96623 0.96371 0.68277 0.0
H1117 H 0.87334 0.84082 0.60622 0.0
H1118 H 0.86242 0.8609 0.57557 0.0
H1119 H 0.84177 0.86668 0.61686 0.0
C1120 C 0.36886 0.19947 0.20604 0.0
C1121 C 0.33499 0.19843 0.19956 0.0
C1122 C 0.39176 0.18132 0.18471 0.0
C1123 C 0.3814 0.16159 0.15533 0.0
C1124 C 0.34753 0.16085 0.14833 0.0
C1125 C 0.32489 0.17867 0.17049 0.0
C1126 C 0.42697 0.18268 0.19413 0.0
C1127 C 0.33489 0.1407 0.11745 0.0
C1128 C 0.45 0.1295 0.08754 0.0
C1129 C 0.44635 0.09547 0.09264 0.0
C1130 C 0.42959 0.15138 0.10768 0.0
C1131 C 0.4045 0.1393 0.13371 0.0
C1132 C 0.40135 0.1053 0.13924 0.0
C1133 C 0.42205 0.08426 0.1191 0.0
C1134 C 0.43436 0.18735 0.10066 0.0
C1135 C 0.37544 0.09067 0.16635 0.0
H1136 H 0.37759 0.21425 0.22824 0.0
H1137 H 0.29897 0.17663 0.16512 0.0
H1138 H 0.42863 0.15684 0.1978 0.0
H1139 H 0.44773 0.1908 0.17432 0.0
H1140 H 0.43214 0.20044 0.21677 0.0
H1141 H 0.30869 0.14372 0.11459 0.0
H1142 H 0.35341 0.149 0.09619 0.0
H1143 H 0.33382 0.11323 0.11723 0.0
H1144 H 0.46815 0.13884 0.06731 0.0
H1145 H 0.41855 0.05833 0.12398 0.0
H1146 H 0.44013 0.20573 0.12275 0.0
H1147 H 0.40987 0.19079 0.09385 0.0
H1148 H 0.4557 0.19366 0.08071 0.0
H1149 H 0.38055 0.10652 0.18992 0.0
H1150 H 0.37631 0.06399 0.168 0.0
H1151 H 0.34872 0.0911 0.16253 0.0
C1152 C 0.86976 0.31496 0.19879 0.0
C1153 C 0.83394 0.30509 0.19728 0.0
C1154 C 0.89245 0.3321 0.17468 0.0
C1155 C 0.87872 0.34098 0.14919 0.0
C1156 C 0.84232 0.33114 0.14778 0.0
C1157 C 0.82043 0.31297 0.17166 0.0
C1158 C 0.93102 0.34141 0.17694 0.0
C1159 C 0.82627 0.34134 0.122 0.0
C1160 C 0.92489 0.42299 0.11557 0.0
C1161 C 0.93893 0.41137 0.08399 0.0
C1162 C 0.90608 0.40037 0.13697 0.0
C1163 C 0.9014 0.36481 0.12707 0.0
C1164 C 0.91721 0.35268 0.09598 0.0
C1165 C 0.93576 0.37613 0.07468 0.0
C1166 C 0.89035 0.41471 0.16999 0.0
C1167 C 0.91367 0.31497 0.08496 0.0
H1168 H 0.87993 0.31019 0.21936 0.0
H1169 H 0.79258 0.30581 0.17089 0.0
H1170 H 0.94486 0.32828 0.15536 0.0
H1171 H 0.94125 0.36923 0.17694 0.0
H1172 H 0.93733 0.33416 0.19911 0.0
H1173 H 0.7978 0.33062 0.12348 0.0
H1174 H 0.83079 0.36957 0.12468 0.0
H1175 H 0.83877 0.33267 0.09754 0.0
H1176 H 0.92786 0.45015 0.12348 0.0
H1177 H 0.94662 0.36686 0.05048 0.0
H1178 H 0.90128 0.40685 0.1893 0.0
H1179 H 0.86188 0.40437 0.17333 0.0
H1180 H 0.89521 0.44301 0.17346 0.0
H1181 H 0.92106 0.30277 0.10357 0.0
H1182 H 0.93004 0.30965 0.06153 0.0
H1183 H 0.88612 0.30289 0.08203 0.0
C1184 C 0.67375 0.86677 0.12325 0.0
C1185 C 0.69323 0.88466 0.14804 0.0
C1186 C 0.65128 0.88175 0.11091 0.0
C1187 C 0.64861 0.91575 0.12329 0.0
C1188 C 0.66634 0.933 0.14999 0.0
C1189 C 0.68845 0.91721 0.16209 0.0
C1190 C 0.63277 0.86216 0.0827 0.0
C1191 C 0.66423 0.96917 0.16405 0.0
C1192 C 0.63783 0.96656 0.05946 0.0
C1193 C 0.60196 0.96564 0.06452 0.0
C1194 C 0.65319 0.95129 0.07898 0.0
C1195 C 0.63244 0.93476 0.10471 0.0
C1196 C 0.59643 0.93476 0.11088 0.0
C1197 C 0.58157 0.95007 0.09065 0.0
C1198 C 0.69163 0.95188 0.07126 0.0
C1199 C 0.57346 0.91782 0.13829 0.0
H1200 H 0.67759 0.84166 0.11228 0.0
H1201 H 0.70381 0.93121 0.18103 0.0
H1202 H 0.60529 0.86458 0.08637 0.0
H1203 H 0.64552 0.87292 0.06016 0.0
H1204 H 0.63334 0.83465 0.07912 0.0
H1205 H 0.67429 0.97681 0.18789 0.0
H1206 H 0.67992 0.98681 0.14713 0.0
H1207 H 0.63702 0.97234 0.16705 0.0
H1208 H 0.65405 0.97856 0.03954 0.0
H1209 H 0.55389 0.94924 0.09494 0.0
H1210 H 0.69555 0.92543 0.06424 0.0
H1211 H 0.70489 0.96303 0.09303 0.0
H1212 H 0.70438 0.96682 0.05117 0.0
H1213 H 0.57191 0.88992 0.13341 0.0
H1214 H 0.54668 0.92232 0.14156 0.0
H1215 H 0.5848 0.9274 0.16133 0.0
C1216 C 0.20979 0.70224 0.16819 0.0
C1217 C 0.22222 0.68952 0.19178 0.0
C1218 C 0.18757 0.68094 0.14672 0.0
C1219 C 0.17747 0.64543 0.14832 0.0
C1220 C 0.19111 0.632 0.17113 0.0
C1221 C 0.21376 0.65403 0.19208 0.0
C1222 C 0.17511 0.69655 0.12209 0.0
C1223 C 0.18151 0.59432 0.1736 0.0
C1224 C 0.09717 0.59557 0.10746 0.0
C1225 C 0.11249 0.58174 0.0773 0.0
C1226 C 0.11785 0.61565 0.13112 0.0
C1227 C 0.15477 0.62233 0.12455 0.0
C1228 C 0.17024 0.60813 0.09434 0.0
C1229 C 0.14912 0.5881 0.0714 0.0
C1230 C 0.1002 0.6301 0.16304 0.0
C1231 C 0.20932 0.61471 0.08581 0.0
H1232 H 0.21818 0.72893 0.16586 0.0
H1233 H 0.22421 0.64327 0.20894 0.0
H1234 H 0.18436 0.68556 0.09719 0.0
H1235 H 0.14627 0.69044 0.12477 0.0
H1236 H 0.18444 0.72472 0.12458 0.0
H1237 H 0.19255 0.58803 0.19375 0.0
H1238 H 0.15279 0.58551 0.17747 0.0
H1239 H 0.19107 0.57983 0.15055 0.0
H1240 H 0.06907 0.59095 0.11253 0.0
H1241 H 0.16168 0.57774 0.04839 0.0
H1242 H 0.10701 0.65839 0.16568 0.0
H1243 H 0.1096 0.62243 0.18342 0.0
H1244 H 0.07144 0.62147 0.16518 0.0
H1245 H 0.22013 0.64245 0.08578 0.0
H1246 H 0.21738 0.60115 0.06163 0.0
H1247 H 0.22118 0.60653 0.10429 0.0
C1248 C 0.34829 0.80647 0.84935 0.0
C1249 C 0.33836 0.8198 0.82461 0.0
C1250 C 0.3699 0.82738 0.87168 0.0
C1251 C 0.38236 0.86265 0.8693 0.0
C1252 C 0.37299 0.87613 0.84398 0.0
C1253 C 0.35107 0.8547 0.82216 0.0
C1254 C 0.37866 0.8118 0.89841 0.0
C1255 C 0.38568 0.91342 0.84023 0.0
C1256 C 0.40389 0.9224 0.94716 0.0
C1257 C 0.44039 0.92804 0.94463 0.0
C1258 C 0.38506 0.90165 0.92285 0.0
C1259 C 0.40281 0.88582 0.89477 0.0
C1260 C 0.4397 0.8918 0.89159 0.0
C1261 C 0.45803 0.91279 0.91646 0.0
C1262 C 0.34589 0.89628 0.92753 0.0
C1263 C 0.45979 0.87569 0.86203 0.0
H1264 H 0.33868 0.77965 0.85164 0.0
H1265 H 0.34391 0.86536 0.80307 0.0
H1266 H 0.40725 0.81721 0.89827 0.0
H1267 H 0.36749 0.82347 0.92231 0.0
H1268 H 0.36847 0.78375 0.89607 0.0
H1269 H 0.37814 0.91956 0.81808 0.0
H1270 H 0.37475 0.92925 0.86167 0.0
H1271 H 0.41442 0.9208 0.83909 0.0
H1272 H 0.38968 0.93408 0.96849 0.0
H1273 H 0.4861 0.91682 0.91403 0.0
H1274 H 0.33389 0.86876 0.92766 0.0
H1275 H 0.33716 0.90443 0.90705 0.0
H1276 H 0.33593 0.91065 0.95054 0.0
H1277 H 0.45181 0.84749 0.86024 0.0
H1278 H 0.48834 0.88344 0.86265 0.0
H1279 H 0.45372 0.8829 0.83976 0.0
C1280 C 0.17343 0.29515 0.84024 0.0
C1281 C 0.20575 0.31244 0.82562 0.0
C1282 C 0.15 0.31262 0.86198 0.0
C1283 C 0.15827 0.34884 0.86975 0.0
C1284 C 0.19091 0.36641 0.85509 0.0
C1285 C 0.21396 0.34826 0.8337 0.0
C1286 C 0.11612 0.29207 0.87664 0.0
C1287 C 0.2017 0.40473 0.86208 0.0
C1288 C 0.08739 0.40212 0.90198 0.0
C1289 C 0.089 0.40938 0.93569 0.0
C1290 C 0.1084 0.38157 0.88079 0.0
C1291 C 0.13308 0.36836 0.89284 0.0
C1292 C 0.13448 0.37531 0.92696 0.0
C1293 C 0.11268 0.3954 0.94768 0.0
C1294 C 0.10492 0.37491 0.84506 0.0
C1295 C 0.16035 0.36283 0.94155 0.0
H1296 H 0.16603 0.26772 0.83432 0.0
H1297 H 0.23877 0.36237 0.82336 0.0
H1298 H 0.11548 0.29499 0.90335 0.0
H1299 H 0.094 0.30172 0.87179 0.0
H1300 H 0.11232 0.26449 0.867 0.0
H1301 H 0.22759 0.41491 0.84892 0.0
H1302 H 0.18226 0.41655 0.85499 0.0
H1303 H 0.20253 0.41265 0.88851 0.0
H1304 H 0.0703 0.41345 0.89192 0.0
H1305 H 0.1155 0.4017 0.97328 0.0
H1306 H 0.10093 0.34715 0.83631 0.0
H1307 H 0.12927 0.38765 0.83122 0.0
H1308 H 0.08292 0.38435 0.83957 0.0
H1309 H 0.15765 0.33494 0.93433 0.0
H1310 H 0.15712 0.36833 0.96847 0.0
H1311 H 0.18715 0.37532 0.93212 0.0
C1312 C 0.71167 0.22238 0.86611 0.0
C1313 C 0.70003 0.22715 0.83798 0.0
C1314 C 0.68938 0.2032 0.88903 0.0
C1315 C 0.65423 0.18894 0.88415 0.0
C1316 C 0.64174 0.1956 0.85687 0.0
C1317 C 0.66471 0.21466 0.83419 0.0
C1318 C 0.70418 0.19609 0.91721 0.0
C1319 C 0.60439 0.18136 0.85097 0.0
C1320 C 0.61587 0.10306 0.91319 0.0
C1321 C 0.59759 0.1116 0.94381 0.0
C1322 C 0.63367 0.12788 0.89362 0.0
C1323 C 0.63269 0.1625 0.90421 0.0
C1324 C 0.61247 0.17132 0.93407 0.0
C1325 C 0.5953 0.14577 0.95371 0.0
C1326 C 0.65405 0.11685 0.86169 0.0
C1327 C 0.60969 0.20781 0.94553 0.0
H1328 H 0.73853 0.23292 0.86986 0.0
H1329 H 0.65519 0.21863 0.81283 0.0
H1330 H 0.6874 0.20152 0.94029 0.0
H1331 H 0.70486 0.16865 0.91401 0.0
H1332 H 0.73097 0.21144 0.91929 0.0
H1333 H 0.59917 0.187 0.82764 0.0
H1334 H 0.59754 0.15331 0.8507 0.0
H1335 H 0.58695 0.19232 0.87109 0.0
H1336 H 0.61713 0.0767 0.90461 0.0
H1337 H 0.5811 0.15271 0.97712 0.0
H1338 H 0.68043 0.13347 0.859 0.0
H1339 H 0.64084 0.11935 0.84134 0.0
H1340 H 0.65663 0.08998 0.85931 0.0
H1341 H 0.63535 0.22344 0.95131 0.0
H1342 H 0.59031 0.2101 0.96747 0.0
H1343 H 0.60228 0.2187 0.926 0.0
C1344 C 0.93636 0.69015 0.8949 0.0
C1345 C 0.90222 0.68391 0.88756 0.0
C1346 C 0.9487 0.66489 0.9054 0.0
C1347 C 0.92606 0.63285 0.90933 0.0
C1348 C 0.89219 0.6258 0.90008 0.0
C1349 C 0.88073 0.65141 0.88909 0.0
C1350 C 0.98512 0.67342 0.91456 0.0
C1351 C 0.86716 0.59212 0.90407 0.0
C1352 C 0.9638 0.56293 0.93093 0.0
C1353 C 0.95521 0.56669 0.96473 0.0
C1354 C 0.9537 0.58361 0.91222 0.0
C1355 C 0.93574 0.60925 0.92793 0.0
C1356 C 0.92752 0.61323 0.96212 0.0
C1357 C 0.93696 0.59166 0.97992 0.0
C1358 C 0.96231 0.57815 0.8758 0.0
C1359 C 0.90922 0.64069 0.98013 0.0
H1360 H 0.95301 0.71529 0.89353 0.0
H1361 H 0.85427 0.6467 0.88356 0.0
H1362 H 0.98385 0.67674 0.94137 0.0
H1363 H 0.99858 0.65233 0.90457 0.0
H1364 H 1.00095 0.69726 0.90573 0.0
H1365 H 0.84389 0.58877 0.89159 0.0
H1366 H 0.88014 0.5706 0.89447 0.0
H1367 H 0.85835 0.59074 0.93027 0.0
H1368 H 0.97789 0.54356 0.91915 0.0
H1369 H 0.93088 0.59499 1.00603 0.0
H1370 H 0.98062 0.60113 0.8676 0.0
H1371 H 0.93842 0.5744 0.86417 0.0
H1372 H 0.97423 0.55572 0.86717 0.0
H1373 H 0.92491 0.66617 0.97527 0.0
H1374 H 0.9048 0.64034 1.00679 0.0
H1375 H 0.88372 0.63746 0.97144 0.0
C1376 C 0.13031 0.34696 0.14838 0.0
C1377 C 0.13491 0.36257 0.1802 0.0
C1378 C 0.12125 0.36433 0.12607 0.0
C1379 C 0.11679 0.39822 0.13569 0.0
C1380 C 0.12183 0.41427 0.16762 0.0
C1381 C 0.13078 0.39629 0.18944 0.0
C1382 C 0.11594 0.34621 0.09232 0.0
C1383 C 0.11757 0.45042 0.17882 0.0
C1384 C 0.12187 0.45306 0.06953 0.0
C1385 C 0.08661 0.45126 0.06805 0.0
C1386 C 0.13206 0.43624 0.09162 0.0
C1387 C 0.1064 0.41675 0.1125 0.0
C1388 C 0.07077 0.4149 0.11118 0.0
C1389 C 0.06134 0.43232 0.08918 0.0
C1390 C 0.17031 0.43919 0.09249 0.0
C1391 C 0.04252 0.39416 0.13273 0.0
H1392 H 0.133 0.32082 0.14111 0.0
H1393 H 0.13474 0.40875 0.2138 0.0
H1394 H 0.08885 0.34438 0.08797 0.0
H1395 H 0.13345 0.36102 0.07399 0.0
H1396 H 0.12097 0.32009 0.08843 0.0
H1397 H 0.12304 0.45948 0.20422 0.0
H1398 H 0.13534 0.46786 0.16278 0.0
H1399 H 0.09064 0.45215 0.17713 0.0
H1400 H 0.14159 0.46767 0.05341 0.0
H1401 H 0.034 0.43047 0.08811 0.0
H1402 H 0.1765 0.41356 0.0864 0.0
H1403 H 0.17697 0.44954 0.11732 0.0
H1404 H 0.18703 0.45597 0.07524 0.0
H1405 H 0.04477 0.36711 0.12822 0.0
H1406 H 1.01602 0.39521 0.12866 0.0
H1407 H 0.04559 0.40358 0.1586 0.0
C1408 C 0.17878 0.68632 0.82413 0.0
C1409 C 0.20839 0.71037 0.83292 0.0
C1410 C 0.15442 0.66988 0.84765 0.0
C1411 C 0.16095 0.67609 0.88045 0.0
C1412 C 0.19022 0.70149 0.88952 0.0
C1413 C 0.21317 0.71889 0.8657 0.0
C1414 C 0.12267 0.64449 0.83705 0.0
C1415 C 0.1989 0.70838 0.92387 0.0
C1416 C 0.09502 0.63306 0.94638 0.0
C1417 C 0.10681 0.60309 0.94568 0.0
C1418 C 0.11207 0.65725 0.92526 0.0
C1419 C 0.14175 0.65146 0.90328 0.0
C1420 C 0.15371 0.62143 0.90271 0.0
C1421 C 0.13626 0.59788 0.92367 0.0
C1422 C 0.09828 0.68881 0.92628 0.0
C1423 C 0.18512 0.6139 0.87975 0.0
H1424 H 0.17462 0.68047 0.79881 0.0
H1425 H 0.23592 0.73784 0.87246 0.0
H1426 H 0.12648 0.61822 0.8359 0.0
H1427 H 0.09933 0.64713 0.85476 0.0
H1428 H 0.11768 0.64772 0.81273 0.0
H1429 H 0.21987 0.73157 0.92787 0.0
H1430 H 0.17557 0.71145 0.94139 0.0
H1431 H 0.20765 0.68626 0.92917 0.0
H1432 H 0.07235 0.63746 0.9631 0.0
H1433 H 0.14611 0.57514 0.92266 0.0
H1434 H 0.09418 0.69159 0.90157 0.0
H1435 H 0.11763 0.71175 0.93484 0.0
H1436 H 0.07339 0.68825 0.94263 0.0
H1437 H 0.18009 0.6115 0.85427 0.0
H1438 H 0.19187 0.58997 0.88319 0.0
H1439 H 0.20801 0.63522 0.8833 0.0
C1440 C 0.4045 0.12793 0.84907 0.0
C1441 C 0.3683 0.11979 0.8487 0.0
C1442 C 0.4199 0.11599 0.87127 0.0
C1443 C 0.39874 0.09502 0.89369 0.0
C1444 C 0.36208 0.08741 0.89404 0.0
C1445 C 0.3473 0.10005 0.87171 0.0
C1446 C 0.45897 0.12539 0.87032 0.0
C1447 C 0.3385 0.06506 0.91739 0.0
C1448 C 0.44227 0.03689 0.9278 0.0
C1449 C 0.4474 0.05464 0.95873 0.0
C1450 C 0.42595 0.0494 0.90662 0.0
C1451 C 0.41512 0.08078 0.91638 0.0
C1452 C 0.4207 0.09887 0.9476 0.0
C1453 C 0.43635 0.08536 0.96851 0.0
C1454 C 0.42 0.02889 0.87389 0.0
C1455 C 0.41025 0.13258 0.95893 0.0
H1456 H 0.42093 0.14349 0.83162 0.0
H1457 H 0.31938 0.09338 0.87144 0.0
H1458 H 0.46607 0.13749 0.89465 0.0
H1459 H 0.46961 0.10202 0.86385 0.0
H1460 H 0.47166 0.14317 0.85247 0.0
H1461 H 0.31056 0.06231 0.91533 0.0
H1462 H 0.34451 0.03933 0.91264 0.0
H1463 H 0.3431 0.07578 0.9427 0.0
H1464 H 0.45035 0.01285 0.92049 0.0
H1465 H 0.44013 0.09892 0.99257 0.0
H1466 H 0.43434 0.04391 0.85437 0.0
H1467 H 0.39197 0.02328 0.87104 0.0
H1468 H 0.42857 1.00439 0.87046 0.0
H1469 H 0.4237 0.15111 0.94202 0.0
H1470 H 0.4166 0.14359 0.98377 0.0
H1471 H 0.38189 0.12932 0.95878 0.0
C1472 C 0.80654 0.35623 0.85773 0.0
C1473 C 0.82171 0.33863 0.82958 0.0
C1474 C 0.82717 0.37704 0.8811 0.0
C1475 C 0.86376 0.37959 0.8768 0.0
C1476 C 0.87908 0.36234 0.84816 0.0
C1477 C 0.85814 0.34303 0.82482 0.0
C1478 C 0.80972 0.39586 0.91065 0.0
C1479 C 0.91763 0.3633 0.84252 0.0
C1480 C 0.92695 0.45016 0.92396 0.0
C1481 C 0.93147 0.4338 0.94911 0.0
C1482 C 0.90439 0.43325 0.90079 0.0
C1483 C 0.88613 0.39893 0.90252 0.0
C1484 C 0.89095 0.38235 0.92787 0.0
C1485 C 0.91312 0.4001 0.95102 0.0
C1486 C 0.89975 0.45229 0.8747 0.0
C1487 C 0.87281 0.3457 0.93049 0.0
H1488 H 0.77855 0.35338 0.86177 0.0
H1489 H 0.87053 0.33067 0.80287 0.0
H1490 H 0.81136 0.38504 0.9326 0.0
H1491 H 0.82331 0.42314 0.91399 0.0
H1492 H 0.78189 0.39421 0.90892 0.0
H1493 H 0.92546 0.34797 0.81926 0.0
H1494 H 0.93263 0.38997 0.84237 0.0
H1495 H 0.92505 0.35328 0.86262 0.0
H1496 H 0.94037 0.47653 0.92294 0.0
H1497 H 0.91599 0.38764 0.97085 0.0
H1498 H 0.87172 0.45139 0.8749 0.0
H1499 H 0.90922 0.43987 0.8505 0.0
H1500 H 0.914 0.4794 0.87782 0.0
H1501 H 0.84422 0.34301 0.93333 0.0
H1502 H 0.87953 0.33631 0.95134 0.0
H1503 H 0.87997 0.32911 0.90787 0.0
C1504 C 0.70496 0.81566 0.85564 0.0
C1505 C 0.71653 0.82292 0.82366 0.0
C1506 C 0.68205 0.83344 0.87743 0.0
C1507 C 0.66945 0.85934 0.8674 0.0
C1508 C 0.68048 0.86631 0.8349 0.0
C1509 C 0.70359 0.84824 0.81368 0.0
C1510 C 0.67182 0.82482 0.91157 0.0
C1511 C 0.66821 0.89342 0.82257 0.0
C1512 C 0.58952 0.89217 0.91713 0.0
C1513 C 0.60529 0.92334 0.93426 0.0
C1514 C 0.60976 0.87104 0.89561 0.0
C1515 C 0.64688 0.88062 0.89128 0.0
C1516 C 0.66268 0.91143 0.90951 0.0
C1517 C 0.64199 0.93221 0.93017 0.0
C1518 C 0.59133 0.83876 0.87681 0.0
C1519 C 0.70179 0.92293 0.90683 0.0
H1520 H 0.71367 0.79574 0.86373 0.0
H1521 H 0.71181 0.85427 0.78917 0.0
H1522 H 0.68256 0.84704 0.92895 0.0
H1523 H 0.64311 0.81929 0.91762 0.0
H1524 H 0.6815 0.8025 0.91511 0.0
H1525 H 0.67727 0.89468 0.79636 0.0
H1526 H 0.63938 0.88843 0.82643 0.0
H1527 H 0.67796 0.91871 0.83643 0.0
H1528 H 0.56137 0.88489 0.91959 0.0
H1529 H 0.65483 0.95596 0.94326 0.0
H1530 H 0.60051 0.81659 0.88138 0.0
H1531 H 0.59769 0.84036 0.85042 0.0
H1532 H 0.56264 0.83407 0.88327 0.0
H1533 H 0.71328 0.90254 0.91208 0.0
H1534 H 0.71029 0.9465 0.92372 0.0
H1535 H 0.71248 0.92786 0.88168 0.0
C1536 C 0.83662 0.66771 0.2017 0.0
C1537 C 0.84142 0.70349 0.20447 0.0
C1538 C 0.85918 0.64923 0.18012 0.0
C1539 C 0.88781 0.66632 0.15978 0.0
C1540 C 0.89271 0.70243 0.1622 0.0
C1541 C 0.87002 0.72034 0.18445 0.0
C1542 C 0.85236 0.61109 0.17936 0.0
C1543 C 0.9218 0.7223 0.14083 0.0
C1544 C 0.9623 0.61857 0.12259 0.0
C1545 C 0.95301 0.60345 0.09171 0.0
C1546 C 0.94225 0.63969 0.14438 0.0
C1547 C 0.91166 0.64625 0.13563 0.0
C1548 C 0.90281 0.63167 0.10413 0.0
C1549 C 0.92294 0.61031 0.08318 0.0
C1550 C 0.95307 0.65389 0.17747 0.0
C1551 C 0.87099 0.63744 0.09289 0.0
H1552 H 0.81479 0.6538 0.21631 0.0
H1553 H 0.875 0.7478 0.18627 0.0
H1554 H 0.85215 0.59798 0.15406 0.0
H1555 H 0.8736 0.60464 0.18941 0.0
H1556 H 0.82721 0.60092 0.19371 0.0
H1557 H 0.92359 0.75024 0.14651 0.0
H1558 H 0.94703 0.71688 0.14353 0.0
H1559 H 0.91758 0.71414 0.11504 0.0
H1560 H 0.98453 0.61274 0.13032 0.0
H1561 H 0.91413 0.59766 0.06038 0.0
H1562 H 0.93299 0.64241 0.19631 0.0
H1563 H 0.95499 0.68186 0.18213 0.0
H1564 H 0.97844 0.64869 0.18014 0.0
H1565 H 0.84726 0.62464 0.10751 0.0
H1566 H 0.86929 0.62738 0.06687 0.0
H1567 H 0.87112 0.66508 0.09663 0.0
C1568 C 0.33347 0.80415 0.16122 0.0
C1569 C 0.34442 0.79897 0.18955 0.0
C1570 C 0.35655 0.82282 0.13832 0.0
C1571 C 0.39191 0.83577 0.14321 0.0
C1572 C 0.40344 0.82933 0.1711 0.0
C1573 C 0.3796 0.81122 0.19395 0.0
C1574 C 0.34244 0.83078 0.11012 0.0
C1575 C 0.44066 0.84308 0.17758 0.0
C1576 C 0.45057 0.87378 0.07073 0.0
C1577 C 0.4514 0.90867 0.08007 0.0
C1578 C 0.43273 0.84964 0.09167 0.0
C1579 C 0.41493 0.86067 0.12224 0.0
C1580 C 0.41772 0.89607 0.13232 0.0
C1581 C 0.43625 0.91933 0.11147 0.0
C1582 C 0.4329 0.8124 0.08119 0.0
C1583 C 0.40106 0.91037 0.16492 0.0
H1584 H 0.30649 0.79451 0.15737 0.0
H1585 H 0.38842 0.80752 0.21578 0.0
H1586 H 0.34431 0.85869 0.11258 0.0
H1587 H 0.35812 0.82342 0.08691 0.0
H1588 H 0.31485 0.81747 0.10879 0.0
H1589 H 0.44619 0.83418 0.19922 0.0
H1590 H 0.45863 0.83535 0.15612 0.0
H1591 H 0.44632 0.87135 0.18175 0.0
H1592 H 0.46269 0.86526 0.0468 0.0
H1593 H 0.43777 0.94631 0.11965 0.0
H1594 H 0.40595 0.79683 0.08177 0.0
H1595 H 0.44566 0.80343 0.09852 0.0
H1596 H 0.44696 0.80768 0.05643 0.0
H1597 H 0.38088 0.89124 0.17718 0.0
H1598 H 0.38924 0.93159 0.16219 0.0
H1599 H 0.42153 0.92131 0.18103 0.0
C1600 C 0.69259 0.20795 0.18182 0.0
C1601 C 0.70952 0.1937 0.20104 0.0
C1602 C 0.67107 0.18741 0.15929 0.0
C1603 C 0.66587 0.15137 0.15559 0.0
C1604 C 0.68228 0.13672 0.17534 0.0
C1605 C 0.70385 0.15793 0.19766 0.0
C1606 C 0.65454 0.20444 0.13879 0.0
C1607 C 0.67754 0.09852 0.17247 0.0
C1608 C 0.59072 0.09766 0.10929 0.0
C1609 C 0.60805 0.09027 0.07797 0.0
C1610 C 0.60908 0.11695 0.13491 0.0
C1611 C 0.64569 0.12943 0.12926 0.0
C1612 C 0.6632 0.12187 0.09779 0.0
C1613 C 0.64438 0.10252 0.07283 0.0
C1614 C 0.58925 0.12413 0.16804 0.0
C1615 C 0.70203 0.13462 0.09024 0.0
H1616 H 0.69641 0.23543 0.18406 0.0
H1617 H 0.71645 0.1464 0.21236 0.0
H1618 H 0.66496 0.19889 0.11286 0.0
H1619 H 0.62603 0.19408 0.14102 0.0
H1620 H 0.65944 0.23255 0.14575 0.0
H1621 H 0.68984 0.0909 0.19103 0.0
H1622 H 0.64945 0.08618 0.17503 0.0
H1623 H 0.68916 0.08856 0.14806 0.0
H1624 H 0.56281 0.08838 0.11383 0.0
H1625 H 0.65844 0.09719 0.04897 0.0
H1626 H 0.592 0.15205 0.17504 0.0
H1627 H 0.60028 0.1148 0.18639 0.0
H1628 H 0.56114 0.11189 0.16893 0.0
H1629 H 0.70868 0.16292 0.09463 0.0
H1630 H 0.71197 0.12615 0.06472 0.0
H1631 H 0.7158 0.12541 0.10657 0.0
C1632 C 0.72525 0.66899 0.82147 0.0
C1633 C 0.71178 0.69171 0.80824 0.0
C1634 C 0.70401 0.64693 0.84274 0.0
C1635 C 0.66818 0.64728 0.85112 0.0
C1636 C 0.65428 0.66965 0.83732 0.0
C1637 C 0.67614 0.69153 0.81623 0.0
C1638 C 0.72017 0.62383 0.85697 0.0
C1639 C 0.61642 0.67121 0.84557 0.0
C1640 C 0.60775 0.573 0.89171 0.0
C1641 C 0.60694 0.58628 0.92478 0.0
C1642 C 0.62713 0.59256 0.86741 0.0
C1643 C 0.64604 0.62633 0.87624 0.0
C1644 C 0.64437 0.64014 0.90948 0.0
C1645 C 0.62502 0.62012 0.93312 0.0
C1646 C 0.62804 0.57682 0.8323 0.0
C1647 C 0.66367 0.67602 0.92025 0.0
H1648 H 0.75266 0.66878 0.81562 0.0
H1649 H 0.66528 0.70898 0.80643 0.0
H1650 H 0.71889 0.63124 0.88365 0.0
H1651 H 0.70541 0.59705 0.85257 0.0
H1652 H 0.7478 0.625 0.84664 0.0
H1653 H 0.60894 0.68794 0.831 0.0
H1654 H 0.59965 0.64528 0.84146 0.0
H1655 H 0.61102 0.68108 0.87166 0.0
H1656 H 0.59409 0.54699 0.88482 0.0
H1657 H 0.62446 0.63108 0.95845 0.0
H1658 H 0.65504 0.5749 0.82209 0.0
H1659 H 0.61993 0.59331 0.81797 0.0
H1660 H 0.61085 0.55096 0.82916 0.0
H1661 H 0.69203 0.67835 0.91291 0.0
H1662 H 0.65904 0.68338 0.94694 0.0
H1663 H 0.65559 0.69449 0.90822 0.0
C1664 C 0.37118 0.62784 0.87124 0.0
C1665 C 0.38218 0.61739 0.83857 0.0
C1666 C 0.38751 0.62142 0.896 0.0
C1667 C 0.41529 0.60417 0.88767 0.0
C1668 C 0.42861 0.59689 0.85462 0.0
C1669 C 0.41182 0.60352 0.8305 0.0
C1670 C 0.37324 0.63053 0.93094 0.0
C1671 C 0.45837 0.57889 0.84454 0.0
C1672 C 0.46809 0.58439 0.9467 0.0
C1673 C 0.45125 0.55052 0.95028 0.0
C1674 C 0.45551 0.60325 0.92807 0.0
C1675 C 0.42584 0.58762 0.9122 0.0
C1676 C 0.40802 0.55396 0.91689 0.0
C1677 C 0.42079 0.53599 0.93596 0.0
C1678 C 0.47468 0.63939 0.92448 0.0
C1679 C 0.37629 0.53616 0.90047 0.0
H1680 H 0.34831 0.63869 0.87747 0.0
H1681 H 0.42054 0.59583 0.80517 0.0
H1682 H 0.35891 0.60697 0.94114 0.0
H1683 H 0.39474 0.64279 0.94557 0.0
H1684 H 0.3552 0.64801 0.93353 0.0
H1685 H 0.46856 0.5792 0.81842 0.0
H1686 H 0.47998 0.59088 0.85911 0.0
H1687 H 0.44936 0.55192 0.84899 0.0
H1688 H 0.49131 0.59605 0.95815 0.0
H1689 H 0.40737 0.50997 0.93872 0.0
H1690 H 0.45618 0.65618 0.92613 0.0
H1691 H 0.49043 0.63992 0.90026 0.0
H1692 H 0.49242 0.65 0.94325 0.0
H1693 H 0.35633 0.55181 0.90623 0.0
H1694 H 0.36447 0.51059 0.90792 0.0
H1695 H 0.38354 0.53295 0.87374 0.0
C1696 C 0.34468 0.34955 0.82645 0.0
C1697 C 0.35005 0.31934 0.80697 0.0
C1698 C 0.37019 0.36978 0.84512 0.0
C1699 C 0.40232 0.36011 0.84351 0.0
C1700 C 0.40859 0.33065 0.82231 0.0
C1701 C 0.38212 0.31025 0.80476 0.0
C1702 C 0.36194 0.40045 0.86794 0.0
C1703 C 0.44285 0.32009 0.81894 0.0
C1704 C 0.4706 0.42846 0.88573 0.0
C1705 C 0.46553 0.41816 0.9166 0.0
C1706 C 0.45191 0.40867 0.86076 0.0
C1707 C 0.42715 0.37835 0.86705 0.0
C1708 C 0.42377 0.36678 0.89742 0.0
C1709 C 0.44337 0.38644 0.92147 0.0
C1710 C 0.45721 0.42127 0.82831 0.0
C1711 C 0.39747 0.3349 0.90552 0.0
H1712 H 0.31982 0.35652 0.82824 0.0
H1713 H 0.38645 0.28711 0.78931 0.0
H1714 H 0.36123 0.39628 0.89339 0.0
H1715 H 0.38254 0.4235 0.8637 0.0
H1716 H 0.33652 0.40548 0.86515 0.0
H1717 H 0.44562 0.29991 0.79796 0.0
H1718 H 0.46483 0.34238 0.81595 0.0
H1719 H 0.4449 0.31017 0.84128 0.0
H1720 H 0.48762 0.45282 0.88159 0.0
H1721 H 0.4396 0.37782 0.94499 0.0
H1722 H 0.43526 0.43283 0.8265 0.0
H1723 H 0.45768 0.39983 0.8082 0.0
H1724 H 0.48175 0.44084 0.82501 0.0
H1725 H 0.37082 0.33832 0.90502 0.0
H1726 H 0.39894 0.32874 0.92984 0.0
H1727 H 0.40148 0.31277 0.88717 0.0
C1728 C 0.64145 0.30586 0.90446 0.0
C1729 C 0.61147 0.29407 0.88882 0.0
C1730 C 0.64303 0.33325 0.92965 0.0
C1731 C 0.61361 0.34774 0.93954 0.0
C1732 C 0.58116 0.33008 0.92941 0.0
C1733 C 0.58049 0.30329 0.90373 0.0
C1734 C 0.67755 0.35004 0.94147 0.0
C1735 C 0.54848 0.34327 0.94135 0.0
C1736 C 0.60574 0.43037 0.9927 0.0
C1737 C 0.60852 0.45149 0.96911 0.0
C1738 C 0.61096 0.39711 0.98402 0.0
C1739 C 0.6184 0.3848 0.95084 0.0
C1740 C 0.6245 0.40734 0.92722 0.0
C1741 C 0.61927 0.44054 0.93673 0.0
C1742 C 0.60528 0.37468 1.01022 0.0
C1743 C 0.63319 0.39549 0.89148 0.0
H1744 H 0.66509 0.29739 0.8938 0.0
H1745 H 0.55689 0.29336 0.89246 0.0
H1746 H 0.69138 0.37023 0.9264 0.0
H1747 H 0.67402 0.36217 0.96708 0.0
H1748 H 0.69422 0.33132 0.93931 0.0
H1749 H 0.5248 0.32349 0.93608 0.0
H1750 H 0.54658 0.35189 0.96786 0.0
H1751 H 0.54915 0.36548 0.92908 0.0
H1752 H 0.59703 0.43895 0.01766 0.0
H1753 H 0.62096 0.45699 0.9186 0.0
H1754 H 0.61841 0.35299 1.00283 0.0
H1755 H 0.57699 0.36438 0.01619 0.0
H1756 H 0.61491 0.38987 0.03265 0.0
H1757 H 0.65524 0.38251 0.88746 0.0
H1758 H 0.64018 0.41695 0.87686 0.0
H1759 H 0.61045 0.37687 0.88234 0.0
C1760 C 0.69276 0.39311 0.12915 0.0
C1761 C 0.68716 0.3944 0.163 0.0
C1762 C 0.67134 0.40537 0.11286 0.0
C1763 C 0.64356 0.41928 0.13086 0.0
C1764 C 0.63671 0.41904 0.16488 0.0
C1765 C 0.65854 0.40651 0.18054 0.0
C1766 C 0.67901 0.40405 0.07644 0.0
C1767 C 0.60762 0.43393 0.18502 0.0
C1768 C 0.62331 0.49071 0.09564 0.0
C1769 C 0.59317 0.47449 0.08129 0.0
C1770 C 0.63923 0.47316 0.11243 0.0
C1771 C 0.625 0.43823 0.11481 0.0
C1772 C 0.59414 0.42173 0.10105 0.0
C1773 C 0.57831 0.44018 0.08474 0.0
C1774 C 0.67197 0.49188 0.12688 0.0
C1775 C 0.57836 0.38446 0.1029 0.0
H1776 H 0.71437 0.38299 0.11544 0.0
H1777 H 0.65415 0.40762 0.20672 0.0
H1778 H 0.65799 0.385 0.06506 0.0
H1779 H 0.67974 0.42908 0.06905 0.0
H1780 H 0.70411 0.39665 0.06667 0.0
H1781 H 0.6031 0.4282 0.21039 0.0
H1782 H 0.61415 0.46204 0.18554 0.0
H1783 H 0.58309 0.42396 0.17408 0.0
H1784 H 0.63476 0.51734 0.09365 0.0
H1785 H 0.555 0.42747 0.0738 0.0
H1786 H 0.69411 0.48048 0.1146 0.0
H1787 H 0.66896 0.48925 0.153 0.0
H1788 H 0.67862 0.51948 0.12442 0.0
H1789 H 0.59741 0.36892 0.091 0.0
H1790 H 0.5543 0.37539 0.09103 0.0
H1791 H 0.57211 0.37994 0.12862 0.0
C1792 C 0.70875 0.67635 0.18788 0.0
C1793 C 0.70203 0.70147 0.2136 0.0
C1794 C 0.68228 0.65736 0.16971 0.0
C1795 C 0.64794 0.66267 0.1784 0.0
C1796 C 0.64085 0.68722 0.20526 0.0
C1797 C 0.66818 0.70688 0.22213 0.0
C1798 C 0.69128 0.63215 0.14075 0.0
C1799 C 0.60444 0.69265 0.21617 0.0
C1800 C 0.59421 0.63741 0.10839 0.0
C1801 C 0.57808 0.60335 0.11176 0.0
C1802 C 0.61523 0.65775 0.13112 0.0
C1803 C 0.62019 0.6438 0.15806 0.0
C1804 C 0.60151 0.61044 0.16315 0.0
C1805 C 0.58063 0.59054 0.13988 0.0
C1806 C 0.6345 0.69317 0.12469 0.0
C1807 C 0.60562 0.59478 0.19181 0.0
H1808 H 0.73499 0.67222 0.18148 0.0
H1809 H 0.66296 0.7259 0.24254 0.0
H1810 H 0.67558 0.60621 0.14382 0.0
H1811 H 0.68486 0.63906 0.11847 0.0
H1812 H 0.71926 0.63132 0.13707 0.0
H1813 H 0.60289 0.71107 0.23878 0.0
H1814 H 0.59525 0.70231 0.19687 0.0
H1815 H 0.58638 0.66802 0.22045 0.0
H1816 H 0.59221 0.64749 0.08675 0.0
H1817 H 0.56858 0.56415 0.14249 0.0
H1818 H 0.66267 0.69363 0.11818 0.0
H1819 H 0.63161 0.71194 0.14676 0.0
H1820 H 0.62518 0.70146 0.10458 0.0
H1821 H 0.63115 0.58742 0.18764 0.0
H1822 H 0.58491 0.5716 0.19559 0.0
H1823 H 0.60516 0.6134 0.21431 0.0
C1824 C 0.3662 0.69791 0.10421 0.0
C1825 C 0.3975 0.71954 0.11289 0.0
C1826 C 0.36746 0.66799 0.08243 0.0
C1827 C 0.40023 0.66304 0.06664 0.0
C1828 C 0.42853 0.69148 0.06584 0.0
C1829 C 0.42738 0.71957 0.09001 0.0
C1830 C 0.33527 0.63979 0.08061 0.0
C1831 C 0.46232 0.68907 0.04465 0.0
C1832 C 0.43754 0.59254 0.08459 0.0
C1833 C 0.43312 0.56892 0.05679 0.0
C1834 C 0.42422 0.62189 0.08905 0.0
C1835 C 0.40846 0.62898 0.06375 0.0
C1836 C 0.40312 0.60448 0.0359 0.0
C1837 C 0.41453 0.57406 0.03333 0.0
C1838 C 0.42792 0.64546 0.12071 0.0
C1839 C 0.38614 0.61003 1.00844 0.0
H1840 H 0.34174 0.70067 0.1187 0.0
H1841 H 0.45138 0.73803 0.09357 0.0
H1842 H 0.33081 0.63143 0.05493 0.0
H1843 H 0.33879 0.61747 0.0905 0.0
H1844 H 0.31175 0.64793 0.09439 0.0
H1845 H 0.47666 0.71459 0.03853 0.0
H1846 H 0.47893 0.67936 0.0579 0.0
H1847 H 0.4577 0.67129 0.02191 0.0
H1848 H 0.45146 0.58798 0.10287 0.0
H1849 H 0.41047 0.55511 1.01215 0.0
H1850 H 0.40337 0.65392 0.1302 0.0
H1851 H 0.449 0.66826 0.11687 0.0
H1852 H 0.43453 0.63296 0.13957 0.0
H1853 H 0.35858 0.59595 1.01089 0.0
H1854 H 0.39883 0.59943 0.98479 0.0
H1855 H 0.38696 0.63732 1.00795 0.0
C1856 C 0.33195 0.35873 0.22022 0.0
C1857 C 0.33541 0.32481 0.2159 0.0
C1858 C 0.35368 0.3824 0.20082 0.0
C1859 C 0.37847 0.37156 0.17554 0.0
C1860 C 0.38211 0.33725 0.17136 0.0
C1861 C 0.36109 0.31455 0.19206 0.0
C1862 C 0.34953 0.41885 0.20689 0.0
C1863 C 0.40707 0.32404 0.14408 0.0
C1864 C 0.40083 0.41701 0.10058 0.0
C1865 C 0.43441 0.43705 0.10387 0.0
C1866 C 0.38246 0.39617 0.12384 0.0
C1867 C 0.39783 0.39493 0.15142 0.0
C1868 C 0.43151 0.41544 0.15532 0.0
C1869 C 0.44935 0.43641 0.1316 0.0
C1870 C 0.34663 0.37504 0.11855 0.0
C1871 C 0.44887 0.41485 0.18433 0.0
H1872 H 0.31241 0.3668 0.23899 0.0
H1873 H 0.36367 0.28825 0.18866 0.0
H1874 H 0.37525 0.43665 0.20829 0.0
H1875 H 0.33844 0.42427 0.1864 0.0
H1876 H 0.33218 0.42419 0.22969 0.0
H1877 H 0.40811 0.29725 0.14509 0.0
H1878 H 0.39895 0.32523 0.12043 0.0
H1879 H 0.43361 0.34029 0.14484 0.0
H1880 H 0.38866 0.41755 0.07957 0.0
H1881 H 0.47525 0.45163 0.13438 0.0
H1882 H 0.32727 0.38171 0.1392 0.0
H1883 H 0.34621 0.34756 0.11748 0.0
H1884 H 0.33832 0.37886 0.09582 0.0
H1885 H 0.43184 0.42104 0.20706 0.0
H1886 H 0.47443 0.43317 0.1846 0.0
H1887 H 0.45291 0.38886 0.18425 0.0
C1888 C 0.82509 0.68419 0.66639 0.0
C1889 C 0.83805 0.70728 0.69276 0.0
C1890 C 0.84634 0.66494 0.64406 0.0
C1891 C 0.88165 0.66771 0.64817 0.0
C1892 C 0.89486 0.69097 0.67472 0.0
C1893 C 0.87331 0.71042 0.6962 0.0
C1894 C 0.83074 0.64113 0.61614 0.0
C1895 C 0.93173 0.69458 0.68117 0.0
C1896 C 0.9227 0.58967 0.61773 0.0
C1897 C 0.94615 0.59855 0.58992 0.0
C1898 C 0.90191 0.61155 0.63622 0.0
C1899 C 0.90349 0.64385 0.62717 0.0
C1900 C 0.92659 0.65309 0.5989 0.0
C1901 C 0.94767 0.63064 0.58085 0.0
C1902 C 0.87846 0.60009 0.66606 0.0
C1903 C 0.92914 0.68691 0.58777 0.0
H1904 H 0.7981 0.68069 0.6633 0.0
H1905 H 0.88418 0.72781 0.71626 0.0
H1906 H 0.84645 0.64751 0.59287 0.0
H1907 H 0.83129 0.61447 0.61802 0.0
H1908 H 0.80345 0.64247 0.61541 0.0
H1909 H 0.93888 0.71477 0.70172 0.0
H1910 H 0.93496 0.67002 0.68685 0.0
H1911 H 0.95019 0.70069 0.65921 0.0
H1912 H 0.92072 0.56534 0.62574 0.0
H1913 H 0.96529 0.63828 0.55968 0.0
H1914 H 0.85107 0.59976 0.66393 0.0
H1915 H 0.88568 0.61837 0.68784 0.0
H1916 H 0.87995 0.57426 0.67 0.0
H1917 H 0.90292 0.68962 0.58468 0.0
H1918 H 0.94651 0.68982 0.56452 0.0
H1919 H 0.93923 0.70798 0.60651 0.0
C1920 C 0.35053 0.83904 0.69688 0.0
C1921 C 0.33443 0.80441 0.69087 0.0
C1922 C 0.37258 0.85595 0.67235 0.0
C1923 C 0.37863 0.83793 0.64084 0.0
C1924 C 0.3628 0.80282 0.63471 0.0
C1925 C 0.34078 0.78654 0.65974 0.0
C1926 C 0.38929 0.89327 0.68017 0.0
C1927 C 0.3689 0.78254 0.60167 0.0
C1928 C 0.40675 0.89823 0.57738 0.0
C1929 C 0.44303 0.90312 0.57388 0.0
C1930 C 0.38528 0.87474 0.59694 0.0
C1931 C 0.40051 0.85653 0.61432 0.0
C1932 C 0.4371 0.85977 0.60913 0.0
C1933 C 0.45794 0.88294 0.5888 0.0
C1934 C 0.34641 0.87136 0.60087 0.0
C1935 C 0.45469 0.84122 0.62721 0.0
H1936 H 0.34603 0.85299 0.72092 0.0
H1937 H 0.32804 0.75991 0.65474 0.0
H1938 H 0.41797 0.89718 0.6743 0.0
H1939 H 0.38041 0.90846 0.66507 0.0
H1940 H 0.38299 0.90329 0.70612 0.0
H1941 H 0.35492 0.75538 0.6009 0.0
H1942 H 0.36022 0.79393 0.58322 0.0
H1943 H 0.39711 0.78353 0.59475 0.0
H1944 H 0.39525 0.9141 0.5661 0.0
H1945 H 0.48605 0.88725 0.58672 0.0
H1946 H 0.33771 0.88397 0.62527 0.0
H1947 H 0.33278 0.84409 0.59908 0.0
H1948 H 0.33841 0.88325 0.58234 0.0
H1949 H 0.45922 0.85644 0.65119 0.0
H1950 H 0.48023 0.83793 0.61375 0.0
H1951 H 0.43853 0.81577 0.63146 0.0
C1952 C 0.19564 0.4191 0.65303 0.0
C1953 C 0.17538 0.40379 0.67925 0.0
C1954 C 0.18026 0.43199 0.6315 0.0
C1955 C 0.14373 0.42884 0.63599 0.0
C1956 C 0.12313 0.41224 0.66178 0.0
C1957 C 0.13924 0.40027 0.68328 0.0
C1958 C 0.20314 0.44992 0.60461 0.0
C1959 C 0.08404 0.40764 0.66705 0.0
C1960 C 0.09895 0.48924 0.60856 0.0
C1961 C 0.08549 0.46959 0.58101 0.0
C1962 C 0.12008 0.47721 0.62536 0.0
C1963 C 0.12689 0.44424 0.61495 0.0
C1964 C 0.1145 0.42491 0.58627 0.0
C1965 C 0.09427 0.43806 0.56936 0.0
C1966 C 0.13371 0.49915 0.65515 0.0
C1967 C 0.12049 0.38939 0.57469 0.0
H1968 H 0.22362 0.42194 0.65001 0.0
H1969 H 0.12355 0.38808 0.70334 0.0
H1970 H 0.19398 0.43858 0.58088 0.0
H1971 H 0.20154 0.47714 0.60862 0.0
H1972 H 0.2308 0.44857 0.60326 0.0
H1973 H 0.07162 0.39205 0.68675 0.0
H1974 H 0.07707 0.43292 0.67342 0.0
H1975 H 0.073 0.39514 0.64437 0.0
H1976 H 0.09221 0.51372 0.61739 0.0
H1977 H 0.08346 0.42274 0.54823 0.0
H1978 H 0.16214 0.5013 0.6536 0.0
H1979 H 0.1212 0.4871 0.67706 0.0
H1980 H 0.12859 0.52519 0.65835 0.0
H1981 H 0.14818 0.3889 0.57436 0.0
H1982 H 0.11294 0.37948 0.55004 0.0
H1983 H 0.10485 0.37189 0.59176 0.0
C1984 C 0.72328 0.17469 0.67639 0.0
C1985 C 0.70885 0.1963 0.70181 0.0
C1986 C 0.70238 0.15173 0.65452 0.0
C1987 C 0.6663 0.15103 0.65731 0.0
C1988 C 0.65183 0.17336 0.68242 0.0
C1989 C 0.673 0.19518 0.70443 0.0
C1990 C 0.71883 0.12791 0.62865 0.0
C1991 C 0.61379 0.17428 0.68616 0.0
C1992 C 0.61296 0.11392 0.58646 0.0
C1993 C 0.59259 0.08351 0.59673 0.0
C1994 C 0.63777 0.13572 0.60537 0.0
C1995 C 0.64314 0.12648 0.63484 0.0
C1996 C 0.62393 0.09482 0.64426 0.0
C1997 C 0.59863 0.0741 0.62545 0.0
C1998 C 0.6569 0.16949 0.59467 0.0
C1999 C 0.62925 0.08327 0.67487 0.0
H2000 H 0.75092 0.17561 0.67355 0.0
H2001 H 0.66125 0.21174 0.72368 0.0
H2002 H 0.70557 0.10107 0.6312 0.0
H2003 H 0.71557 0.13246 0.60427 0.0
H2004 H 0.74701 0.13107 0.62995 0.0
H2005 H 0.60695 0.19449 0.70569 0.0
H2006 H 0.60696 0.17876 0.66303 0.0
H2007 H 0.59753 0.14931 0.69187 0.0
H2008 H 0.60829 0.12151 0.56445 0.0
H2009 H 0.58324 0.05048 0.63342 0.0
H2010 H 0.68532 0.17274 0.59433 0.0
H2011 H 0.64879 0.19057 0.61229 0.0
H2012 H 0.6517 0.17197 0.5702 0.0
H2013 H 0.65737 0.08583 0.67582 0.0
H2014 H 0.6156 0.05637 0.67672 0.0
H2015 H 0.6193 0.09971 0.69635 0.0
C2016 C 0.82638 0.32162 0.3619 0.0
C2017 C 0.83207 0.32424 0.32864 0.0
C2018 C 0.84848 0.34314 0.38345 0.0
C2019 C 0.87791 0.36707 0.37135 0.0
C2020 C 0.88371 0.36966 0.33763 0.0
C2021 C 0.86041 0.34866 0.31682 0.0
C2022 C 0.84058 0.33993 0.41915 0.0
C2023 C 0.91513 0.39392 0.32331 0.0
C2024 C 0.9253 0.44076 0.42902 0.0
C2025 C 0.95374 0.42828 0.43348 0.0
C2026 C 0.90027 0.42114 0.40916 0.0
C2027 C 0.90352 0.38805 0.3936 0.0
C2028 C 0.93191 0.37519 0.39879 0.0
C2029 C 0.95678 0.39556 0.41828 0.0
C2030 C 0.8709 0.43625 0.40409 0.0
C2031 C 0.93665 0.34022 0.3829 0.0
H2032 H 0.80436 0.30285 0.37111 0.0
H2033 H 0.8651 0.35041 0.29104 0.0
H2034 H 0.86162 0.33084 0.42686 0.0
H2035 H 0.83963 0.36524 0.43354 0.0
H2036 H 0.81545 0.32192 0.42504 0.0
H2037 H 0.91551 0.39357 0.29686 0.0
H2038 H 0.91573 0.42031 0.33569 0.0
H2039 H 0.93919 0.38695 0.32726 0.0
H2040 H 0.92334 0.46638 0.4401 0.0
H2041 H 0.97909 0.38612 0.42123 0.0
H2042 H 0.84553 0.41882 0.41037 0.0
H2043 H 0.87287 0.43918 0.37814 0.0
H2044 H 0.87113 0.46162 0.41887 0.0
H2045 H 0.91272 0.32068 0.38867 0.0
H2046 H 0.95889 0.33315 0.39075 0.0
H2047 H 0.94122 0.33951 0.35615 0.0
C2048 C 0.67343 0.80626 0.33113 0.0
C2049 C 0.70944 0.81402 0.33277 0.0
C2050 C 0.65083 0.82548 0.35158 0.0
C2051 C 0.66384 0.8524 0.37576 0.0
C2052 C 0.69997 0.85894 0.37863 0.0
C2053 C 0.72224 0.84047 0.35677 0.0
C2054 C 0.61314 0.81782 0.34633 0.0
C2055 C 0.71536 0.8859 0.40465 0.0
C2056 C 0.61842 0.92821 0.40252 0.0
C2057 C 0.5974 0.921 0.432 0.0
C2058 C 0.6395 0.9063 0.38443 0.0
C2059 C 0.64069 0.87575 0.3956 0.0
C2060 C 0.61983 0.86815 0.42545 0.0
C2061 C 0.59839 0.89051 0.44303 0.0
C2062 C 0.66054 0.91598 0.35292 0.0
C2063 C 0.62041 0.83644 0.43903 0.0
H2064 H 0.66306 0.78591 0.31283 0.0
H2065 H 0.74982 0.84644 0.35881 0.0
H2066 H 0.59612 0.81247 0.36925 0.0
H2067 H 0.60715 0.84046 0.33904 0.0
H2068 H 0.60662 0.79568 0.32729 0.0
H2069 H 0.74231 0.8846 0.40697 0.0
H2070 H 0.71585 0.91155 0.39887 0.0
H2071 H 0.69909 0.88307 0.42844 0.0
H2072 H 0.61832 0.95125 0.39305 0.0
H2073 H 0.58273 0.88423 0.4656 0.0
H2074 H 0.65393 0.89512 0.33278 0.0
H2075 H 0.68867 0.91957 0.35449 0.0
H2076 H 0.65603 0.93984 0.34674 0.0
H2077 H 0.61034 0.81348 0.42214 0.0
H2078 H 0.60451 0.8348 0.46315 0.0
H2079 H 0.64755 0.83592 0.44132 0.0
C2080 C 0.17553 0.70696 0.33025 0.0
C2081 C 0.2102 0.72174 0.33503 0.0
C2082 C 0.15225 0.68948 0.35399 0.0
C2083 C 0.16353 0.68747 0.38371 0.0
C2084 C 0.19776 0.70464 0.38951 0.0
C2085 C 0.22071 0.72109 0.36506 0.0
C2086 C 0.11613 0.67157 0.34653 0.0
C2087 C 0.21097 0.70384 0.42084 0.0
C2088 C 0.09643 0.64407 0.44931 0.0
C2089 C 0.10246 0.61082 0.44318 0.0
C2090 C 0.11656 0.66985 0.43093 0.0
C2091 C 0.14263 0.66198 0.40535 0.0
C2092 C 0.149 0.62873 0.39969 0.0
C2093 C 0.12967 0.60417 0.41889 0.0
C2094 C 0.10921 0.70511 0.43828 0.0
C2095 C 0.17551 0.61846 0.37231 0.0
H2096 H 0.16707 0.70743 0.30724 0.0
H2097 H 0.2473 0.73278 0.36925 0.0
H2098 H 0.11011 0.64469 0.35125 0.0
H2099 H 0.09687 0.68449 0.3626 0.0
H2100 H 0.11286 0.67165 0.3209 0.0
H2101 H 0.23526 0.72345 0.42426 0.0
H2102 H 0.191 0.70798 0.44186 0.0
H2103 H 0.21651 0.67843 0.4207 0.0
H2104 H 0.07559 0.64976 0.46781 0.0
H2105 H 0.13539 0.57899 0.41381 0.0
H2106 H 0.09373 0.7084 0.41996 0.0
H2107 H 0.13376 0.7249 0.43693 0.0
H2108 H 0.09422 0.70935 0.46268 0.0
H2109 H 0.16916 0.62291 0.34897 0.0
H2110 H 0.17658 0.5912 0.37033 0.0
H2111 H 0.20169 0.63429 0.37593 0.0
C2112 C 0.37117 0.15596 0.40579 0.0
C2113 C 0.39253 0.18859 0.40448 0.0
C2114 C 0.38354 0.12967 0.41453 0.0
C2115 C 0.41823 0.13614 0.42151 0.0
C2116 C 0.44013 0.16886 0.41929 0.0
C2117 C 0.4269 0.19475 0.4111 0.0
C2118 C 0.35937 0.09523 0.41689 0.0
C2119 C 0.47752 0.17663 0.42582 0.0
C2120 C 0.44796 0.08547 0.47492 0.0
C2121 C 0.46746 0.06589 0.45195 0.0
C2122 C 0.43028 0.10723 0.46525 0.0
C2123 C 0.43182 0.10918 0.43181 0.0
C2124 C 0.44947 0.08774 0.40846 0.0
C2125 C 0.46722 0.06649 0.41882 0.0
C2126 C 0.41174 0.12965 0.49094 0.0
C2127 C 0.45141 0.08869 0.37257 0.0
H2128 H 0.34454 0.15128 0.40075 0.0
H2129 H 0.44352 0.2199 0.40967 0.0
H2130 H 0.37107 0.07497 0.40134 0.0
H2131 H 0.35545 0.08957 0.44222 0.0
H2132 H 0.33358 0.09395 0.40951 0.0
H2133 H 0.49137 0.20306 0.42211 0.0
H2134 H 0.47853 0.1732 0.45116 0.0
H2135 H 0.49168 0.15857 0.40959 0.0
H2136 H 0.44801 0.08524 0.50059 0.0
H2137 H 0.4819 0.05113 0.40091 0.0
H2138 H 0.3851 0.12794 0.48546 0.0
H2139 H 0.42592 0.15665 0.49106 0.0
H2140 H 0.40998 0.12268 0.5156 0.0
H2141 H 0.42537 0.08777 0.36604 0.0
H2142 H 0.46174 0.0672 0.35764 0.0
H2143 H 0.46871 0.11299 0.36622 0.0
C2144 C 0.60023 0.81978 0.62738 0.0
C2145 C 0.63429 0.82125 0.63277 0.0
C2146 C 0.59178 0.84679 0.61603 0.0
C2147 C 0.61803 0.87605 0.6098 0.0
C2148 C 0.65254 0.87771 0.61508 0.0
C2149 C 0.66025 0.8503 0.62656 0.0
C2150 C 0.55458 0.84413 0.61108 0.0
C2151 C 0.68121 0.90845 0.60872 0.0
C2152 C 0.59396 0.9287 0.55452 0.0
C2153 C 0.57859 0.95196 0.57721 0.0
C2154 C 0.60884 0.90499 0.56469 0.0
C2155 C 0.60877 0.90492 0.59829 0.0
C2156 C 0.59589 0.93022 0.62108 0.0
C2157 C 0.58067 0.95323 0.61028 0.0
C2158 C 0.62219 0.87843 0.53956 0.0
C2159 C 0.59599 0.93158 0.65706 0.0
H2160 H 0.57994 0.79768 0.63262 0.0
H2161 H 0.68671 0.85146 0.63041 0.0
H2162 H 0.5442 0.86495 0.62714 0.0
H2163 H 0.55332 0.84721 0.5857 0.0
H2164 H 0.53744 0.81933 0.61635 0.0
H2165 H 0.70666 0.90586 0.61417 0.0
H2166 H 0.68395 0.91232 0.58293 0.0
H2167 H 0.67454 0.93172 0.6237 0.0
H2168 H 0.59231 0.92745 0.52892 0.0
H2169 H 0.56915 0.97142 0.62787 0.0
H2170 H 0.60382 0.85335 0.54087 0.0
H2171 H 0.64777 0.87563 0.54436 0.0
H2172 H 0.62488 0.88476 0.51453 0.0
H2173 H 0.57614 0.90986 0.66593 0.0
H2174 H 0.59005 0.95565 0.67101 0.0
H2175 H 0.62159 0.92916 0.66219 0.0
C2176 C 0.72216 0.22552 0.37357 0.0
C2177 C 0.71285 0.2174 0.34209 0.0
C2178 C 0.70077 0.21027 0.39951 0.0
C2179 C 0.66998 0.18552 0.39356 0.0
C2180 C 0.65998 0.17827 0.3619 0.0
C2181 C 0.68143 0.19444 0.33665 0.0
C2182 C 0.71167 0.21986 0.43306 0.0
C2183 C 0.62753 0.15206 0.35424 0.0
C2184 C 0.64128 0.10934 0.43941 0.0
C2185 C 0.60895 0.11379 0.45636 0.0
C2186 C 0.66211 0.13335 0.42026 0.0
C2187 C 0.65108 0.16343 0.41866 0.0
C2188 C 0.62024 0.16986 0.43832 0.0
C2189 C 0.59926 0.14475 0.45675 0.0
C2190 C 0.69449 0.125 0.39958 0.0
C2191 C 0.60821 0.2022 0.43833 0.0
H2192 H 0.74616 0.24383 0.3779 0.0
H2193 H 0.67417 0.18822 0.31231 0.0
H2194 H 0.6891 0.22377 0.45135 0.0
H2195 H 0.72146 0.19884 0.43933 0.0
H2196 H 0.73256 0.24343 0.43482 0.0
H2197 H 0.62243 0.15077 0.32888 0.0
H2198 H 0.63015 0.12652 0.35788 0.0
H2199 H 0.60464 0.15806 0.37092 0.0
H2200 H 0.64937 0.08578 0.43939 0.0
H2201 H 0.5744 0.1485 0.46973 0.0
H2202 H 0.71733 0.14619 0.40361 0.0
H2203 H 0.69116 0.12175 0.37352 0.0
H2204 H 0.70029 0.10125 0.40472 0.0
H2205 H 0.63058 0.22439 0.4369 0.0
H2206 H 0.58986 0.20751 0.46041 0.0
H2207 H 0.59456 0.19955 0.41685 0.0
C2208 C 0.83672 0.58304 0.3745 0.0
C2209 C 0.8528 0.61012 0.35701 0.0
C2210 C 0.85513 0.57175 0.39463 0.0
C2211 C 0.89042 0.58789 0.39701 0.0
C2212 C 0.90615 0.61637 0.38048 0.0
C2213 C 0.88711 0.62707 0.36053 0.0
C2214 C 0.83743 0.5414 0.41187 0.0
C2215 C 0.94367 0.63433 0.3824 0.0
C2216 C 0.93935 0.57171 0.46103 0.0
C2217 C 0.95879 0.54893 0.44269 0.0
C2218 C 0.91615 0.58402 0.44682 0.0
C2219 C 0.91205 0.57287 0.41368 0.0
C2220 C 0.93028 0.54847 0.39564 0.0
C2221 C 0.95356 0.537 0.4103 0.0
C2222 C 0.89718 0.60996 0.46685 0.0
C2223 C 0.92617 0.53536 0.36044 0.0
H2224 H 0.81018 0.56989 0.37143 0.0
H2225 H 0.89943 0.64787 0.3467 0.0
H2226 H 0.84872 0.51914 0.40062 0.0
H2227 H 0.84185 0.54674 0.43772 0.0
H2228 H 0.80897 0.53433 0.41064 0.0
H2229 H 0.95093 0.65798 0.37078 0.0
H2230 H 0.9487 0.64102 0.40807 0.0
H2231 H 0.96086 0.617 0.37007 0.0
H2232 H 0.94339 0.58107 0.48608 0.0
H2233 H 0.96815 0.51898 0.39619 0.0
H2234 H 0.86897 0.60209 0.46468 0.0
H2235 H 0.90699 0.63487 0.45759 0.0
H2236 H 0.90068 0.61361 0.49292 0.0
H2237 H 0.89829 0.52525 0.35759 0.0
H2238 H 0.94051 0.51485 0.35049 0.0
H2239 H 0.93598 0.55661 0.34571 0.0
C2240 C 0.37361 0.8316 0.32006 0.0
C2241 C 0.33718 0.82685 0.32557 0.0
C2242 C 0.39491 0.85218 0.34261 0.0
C2243 C 0.37989 0.87037 0.37088 0.0
C2244 C 0.34322 0.86672 0.37617 0.0
C2245 C 0.3223 0.84446 0.35392 0.0
C2246 C 0.43364 0.85424 0.33617 0.0
C2247 C 0.32611 0.88667 0.40514 0.0
C2248 C 0.43567 0.90281 0.44056 0.0
C2249 C 0.45343 0.93525 0.43311 0.0
C2250 C 0.41098 0.88172 0.42111 0.0
C2251 C 0.40295 0.89372 0.39416 0.0
C2252 C 0.41941 0.9273 0.38784 0.0
C2253 C 0.4448 0.9473 0.40693 0.0
C2254 C 0.39497 0.84586 0.42831 0.0
C2255 C 0.41105 0.94181 0.3602 0.0
H2256 H 0.38572 0.81881 0.29807 0.0
H2257 H 0.29427 0.84098 0.35873 0.0
H2258 H 0.44755 0.88053 0.33223 0.0
H2259 H 0.44285 0.84828 0.35752 0.0
H2260 H 0.44092 0.83636 0.31455 0.0
H2261 H 0.29753 0.88207 0.40523 0.0
H2262 H 0.33124 0.8797 0.42788 0.0
H2263 H 0.33737 0.91437 0.40524 0.0
H2264 H 0.44245 0.89322 0.46054 0.0
H2265 H 0.45825 0.97245 0.40117 0.0
H2266 H 0.40371 0.82736 0.40799 0.0
H2267 H 0.36622 0.84093 0.43028 0.0
H2268 H 0.40223 0.84098 0.45112 0.0
H2269 H 0.4217 0.92885 0.33674 0.0
H2270 H 0.42221 0.96965 0.3613 0.0
H2271 H 0.38248 0.93723 0.36044 0.0
C2272 C 0.21914 0.34193 0.34848 0.0
C2273 C 0.20478 0.31111 0.32994 0.0
C2274 C 0.19801 0.36142 0.37055 0.0
C2275 C 0.16109 0.3507 0.37403 0.0
C2276 C 0.14648 0.31945 0.35555 0.0
C2277 C 0.16827 0.30004 0.33435 0.0
C2278 C 0.21532 0.39396 0.38985 0.0
C2279 C 0.10757 0.30686 0.35744 0.0
C2280 C 0.10318 0.39286 0.44553 0.0
C2281 C 0.09511 0.41854 0.43154 0.0
C2282 C 0.1246 0.37078 0.42746 0.0
C2283 C 0.13792 0.37367 0.39426 0.0
C2284 C 0.12898 0.39895 0.38002 0.0
C2285 C 0.10824 0.42083 0.3986 0.0
C2286 C 0.13346 0.34464 0.44408 0.0
C2287 C 0.14152 0.40311 0.34484 0.0
H2288 H 0.24707 0.35131 0.34536 0.0
H2289 H 0.15645 0.27615 0.32081 0.0
H2290 H 0.20719 0.416 0.38366 0.0
H2291 H 0.20695 0.39294 0.41615 0.0
H2292 H 0.24414 0.39849 0.3853 0.0
H2293 H 0.10007 0.28177 0.34233 0.0
H2294 H 0.09603 0.3045 0.38294 0.0
H2295 H 0.09608 0.32562 0.34914 0.0
H2296 H 0.0936 0.3906 0.4708 0.0
H2297 H 0.10214 0.44001 0.38697 0.0
H2298 H 0.16212 0.34858 0.44259 0.0
H2299 H 0.12381 0.31866 0.4315 0.0
H2300 H 0.12205 0.3459 0.47 0.0
H2301 H 0.17036 0.4098 0.34089 0.0
H2302 H 0.13162 0.42323 0.33692 0.0
H2303 H 0.13304 0.37869 0.32914 0.0
C2304 C 0.36997 0.19978 0.70998 0.0
C2305 C 0.3406 0.20642 0.69988 0.0
C2306 C 0.39207 0.18024 0.68912 0.0
C2307 C 0.38522 0.16653 0.65682 0.0
C2308 C 0.35582 0.17357 0.6464 0.0
C2309 C 0.33407 0.19298 0.66785 0.0
C2310 C 0.42283 0.17405 0.70185 0.0
C2311 C 0.34686 0.16001 0.61255 0.0
C2312 C 0.45763 0.13247 0.59487 0.0
C2313 C 0.44878 0.0971 0.59658 0.0
C2314 C 0.43727 0.1552 0.61374 0.0
C2315 C 0.40695 0.14277 0.63511 0.0
C2316 C 0.39753 0.10707 0.63616 0.0
C2317 C 0.41821 0.08512 0.61729 0.0
C2318 C 0.44861 0.19278 0.61119 0.0
C2319 C 0.36565 0.09184 0.6579 0.0
H2320 H 0.37573 0.20983 0.73446 0.0
H2321 H 0.31123 0.19691 0.65967 0.0
H2322 H 0.42161 0.14627 0.69937 0.0
H2323 H 0.44723 0.18553 0.68724 0.0
H2324 H 0.4241 0.18504 0.72773 0.0
H2325 H 0.32406 0.1685 0.60752 0.0
H2326 H 0.36942 0.1686 0.59445 0.0
H2327 H 0.34106 0.13171 0.60906 0.0
H2328 H 0.48091 0.1426 0.57932 0.0
H2329 H 0.41029 0.0581 0.61916 0.0
H2330 H 0.45583 0.207 0.63486 0.0
H2331 H 0.42682 0.20238 0.60555 0.0
H2332 H 0.47121 0.1985 0.59224 0.0
H2333 H 0.369 0.10184 0.6836 0.0
H2334 H 0.36059 0.06354 0.65497 0.0
H2335 H 0.34242 0.09937 0.6527 0.0
C2336 C 0.82578 0.29816 0.65925 0.0
C2337 C 0.83345 0.30556 0.69132 0.0
C2338 C 0.84907 0.31283 0.63396 0.0
C2339 C 0.88002 0.3368 0.64109 0.0
C2340 C 0.88829 0.34345 0.67339 0.0
C2341 C 0.86524 0.32729 0.69792 0.0
C2342 C 0.83969 0.30365 0.59984 0.0
C2343 C 0.92026 0.36951 0.68261 0.0
C2344 C 0.95209 0.3776 0.57824 0.0
C2345 C 0.94176 0.40796 0.57722 0.0
C2346 C 0.93146 0.35305 0.59759 0.0
C2347 C 0.90025 0.35935 0.61663 0.0
C2348 C 0.88908 0.38906 0.61407 0.0
C2349 C 0.90948 0.41246 0.59412 0.0
C2350 C 0.94342 0.32086 0.59838 0.0
C2351 C 0.85633 0.39723 0.63381 0.0
H2352 H 0.80147 0.28094 0.65392 0.0
H2353 H 0.8713 0.33309 0.72268 0.0
H2354 H 0.8275 0.32338 0.5943 0.0
H2355 H 0.86318 0.30249 0.58188 0.0
H2356 H 0.82086 0.27872 0.5968 0.0
H2357 H 0.92426 0.37001 0.70816 0.0
H2358 H 0.94376 0.36418 0.6665 0.0
H2359 H 0.9177 0.39524 0.67949 0.0
H2360 H 0.97693 0.37381 0.56527 0.0
H2361 H 0.90085 0.43547 0.5931 0.0
H2362 H 0.92277 0.2983 0.59151 0.0
H2363 H 0.94796 0.31953 0.62333 0.0
H2364 H 0.96772 0.31922 0.58167 0.0
H2365 H 0.83373 0.3768 0.62729 0.0
H2366 H 0.8517 0.42193 0.62984 0.0
H2367 H 0.85776 0.3982 0.66002 0.0
C2368 C 0.20256 0.71024 0.67239 0.0
C2369 C 0.21092 0.69594 0.69732 0.0
C2370 C 0.18083 0.69043 0.64968 0.0
C2371 C 0.1667 0.65534 0.65186 0.0
C2372 C 0.17566 0.64062 0.67657 0.0
C2373 C 0.1976 0.66097 0.69884 0.0
C2374 C 0.17223 0.70733 0.62382 0.0
C2375 C 0.16125 0.60344 0.68004 0.0
C2376 C 0.07936 0.61331 0.62143 0.0
C2377 C 0.08882 0.59394 0.5918 0.0
C2378 C 0.10438 0.63377 0.64058 0.0
C2379 C 0.14017 0.63485 0.63034 0.0
C2380 C 0.15008 0.61581 0.60018 0.0
C2381 C 0.12434 0.59579 0.58115 0.0
C2382 C 0.09234 0.65378 0.67222 0.0
C2383 C 0.18785 0.6159 0.58842 0.0
H2384 H 0.21283 0.73712 0.67074 0.0
H2385 H 0.20372 0.64955 0.71796 0.0
H2386 H 0.17761 0.69274 0.59952 0.0
H2387 H 0.1441 0.70743 0.62784 0.0
H2388 H 0.18729 0.73406 0.62373 0.0
H2389 H 0.17188 0.59538 0.69948 0.0
H2390 H 0.13251 0.59858 0.68573 0.0
H2391 H 0.16732 0.58728 0.65681 0.0
H2392 H 0.05204 0.61233 0.62988 0.0
H2393 H 0.13196 0.58071 0.55853 0.0
H2394 H 0.10496 0.68123 0.67266 0.0
H2395 H 0.10013 0.64487 0.69277 0.0
H2396 H 0.06368 0.6512 0.67622 0.0
H2397 H 0.20311 0.64247 0.58794 0.0
H2398 H 0.19156 0.60131 0.5638 0.0
H2399 H 0.19862 0.60451 0.60548 0.0
loop_
_geom_bond_atom_site_label_1
_geom_bond_atom_site_label_2
_geom_bond_distance
_geom_bond_site_symmetry_2
_ccdc_geom_bond_type
Eu0 N29 2.600 . S
Eu0 N35 2.562 . S
Eu0 O44 2.462 . S
Eu0 O45 2.373 . S
Eu0 O47 2.432 . S
Eu0 O48 2.291 . S
Eu0 O52 2.335 . S
Eu0 O55 2.372 . S
Eu0 C64 2.787 . S
C1 N2 1.365 . S
C1 C4 1.405 . S
C1 C8 1.448 . S
N2 C1 1.365 . S
N2 C5 1.319 . S
N2 Eu11 2.600 . S
C3 C5 1.397 . S
C3 C6 1.367 . S
C3 H23 0.931 . S
C4 C1 1.405 . S
C4 C6 1.403 . S
C4 C10 1.439 . S
C5 N2 1.319 . S
C5 C3 1.397 . S
C5 H16 0.930 . S
C6 C3 1.367 . S
C6 C4 1.403 . S
C6 H27 0.929 . S
C7 C8 1.430 . S
C7 C9 1.387 . S
C7 C13 1.404 . S
C8 C1 1.448 . S
C8 C7 1.430 . S
C8 N12 1.351 . S
C9 C7 1.387 . S
C9 C10 1.374 . S
C9 H24 0.931 . S
C10 C4 1.439 . S
C10 C9 1.374 . S
C10 H25 0.931 . S
Eu11 N2 2.600 . S
Eu11 N12 2.562 . S
Eu11 O46 2.335 . S
Eu11 O49 2.372 . S
Eu11 O50 2.462 . S
Eu11 O51 2.373 . S
Eu11 O53 2.432 . S
Eu11 O54 2.291 . S
Eu11 C75 2.787 . S
N12 C8 1.351 . S
N12 Eu11 2.562 . S
N12 C14 1.325 . S
C13 C7 1.404 . S
C13 C15 1.366 . S
C13 H21 0.930 . S
C14 N12 1.325 . S
C14 C15 1.416 . S
C14 H20 0.929 . S
C15 C13 1.366 . S
C15 C14 1.416 . S
C15 H17 0.930 . S
H16 C5 0.930 . S
H17 C15 0.930 . S
H18 C33 0.930 . S
H19 C40 0.930 . S
H20 C14 0.929 . S
H21 C13 0.930 . S
H22 C36 0.929 . S
H23 C3 0.931 . S
H24 C9 0.931 . S
H25 C10 0.931 . S
H26 C31 0.931 . S
H27 C6 0.929 . S
H28 C39 0.930 . S
N29 Eu0 2.600 . S
N29 C30 1.365 . S
N29 C33 1.319 . S
C30 N29 1.365 . S
C30 C32 1.405 . S
C30 C38 1.448 . S
C31 H26 0.931 . S
C31 C33 1.397 . S
C31 C34 1.367 . S
C32 C30 1.405 . S
C32 C34 1.403 . S
C32 C65 1.439 . S
C33 H18 0.930 . S
C33 N29 1.319 . S
C33 C31 1.397 . S
C34 C31 1.367 . S
C34 C32 1.403 . S
C34 H41 0.929 . S
N35 Eu0 2.562 . S
N35 C36 1.325 . S
N35 C38 1.351 . S
C36 H22 0.929 . S
C36 N35 1.325 . S
C36 C40 1.416 . S
C37 C38 1.430 . S
C37 C39 1.404 . S
C37 C66 1.387 . S
C38 C30 1.448 . S
C38 N35 1.351 . S
C38 C37 1.430 . S
C39 H28 0.930 . S
C39 C37 1.404 . S
C39 C40 1.366 . S
C40 H19 0.930 . S
C40 C36 1.416 . S
C40 C39 1.366 . S
H41 C34 0.929 . S
H42 C65 0.931 . S
H43 C66 0.931 . S
O44 Eu0 2.462 . S
O44 C64 1.252 . S
O45 Eu0 2.373 . S
O45 C56 1.249 . S
O46 Eu11 2.335 . S
O46 C56 1.264 . S
O47 Eu0 2.432 . S
O47 C64 1.268 . S
O48 Eu0 2.291 . S
O48 C63 1.255 . S
O49 Eu11 2.372 . S
O49 C63 1.257 . S
O50 Eu11 2.462 . S
O50 C75 1.252 . S
O51 Eu11 2.373 . S
O51 C67 1.249 . S
O52 Eu0 2.335 . S
O52 C67 1.264 . S
O53 Eu11 2.432 . S
O53 C75 1.268 . S
O54 Eu11 2.291 . S
O54 C74 1.255 . S
O55 Eu0 2.372 . S
O55 C74 1.257 . S
C56 O45 1.249 . S
C56 O46 1.264 . S
C57 C60 1.382 . S
C57 C62 1.390 . S
C57 C64 1.506 . S
C58 C59 1.398 . S
C58 C62 1.392 . S
C59 C58 1.398 . S
C59 C61 1.372 . S
C59 H76 0.931 . S
C60 C57 1.382 . S
C60 C61 1.390 . S
C60 H77 0.931 . S
C61 C59 1.372 . S
C61 C60 1.390 . S
C61 H78 0.929 . S
C62 C57 1.390 . S
C62 C58 1.392 . S
C62 H79 0.930 . S
C63 O48 1.255 . S
C63 O49 1.257 . S
C64 Eu0 2.787 . S
C64 O44 1.252 . S
C64 O47 1.268 . S
C64 C57 1.506 . S
C65 C32 1.439 . S
C65 H42 0.931 . S
C65 C66 1.374 . S
C66 C37 1.387 . S
C66 H43 0.931 . S
C66 C65 1.374 . S
C67 O51 1.249 . S
C67 O52 1.264 . S
C68 C71 1.382 . S
C68 C72 1.390 . S
C68 C75 1.506 . S
C69 C70 1.398 . S
C69 C72 1.392 . S
C70 C69 1.398 . S
C70 C73 1.372 . S
C70 H80 0.931 . S
C71 C68 1.382 . S
C71 C73 1.390 . S
C71 H81 0.931 . S
C72 C68 1.390 . S
C72 C69 1.392 . S
C72 H82 0.930 . S
C73 C70 1.372 . S
C73 C71 1.390 . S
C73 H83 0.929 . S
C74 O54 1.255 . S
C74 O55 1.257 . S
C75 Eu11 2.787 . S
C75 O50 1.252 . S
C75 O53 1.268 . S
C75 C68 1.506 . S
H76 C59 0.931 . S
H77 C60 0.931 . S
H78 C61 0.929 . S
H79 C62 0.930 . S
H80 C70 0.931 . S
H81 C71 0.931 . S
H82 C72 0.930 . S
H83 C73 0.929 . S
Eu84 N113 2.600 . S
Eu84 N119 2.562 . S
Eu84 O128 2.462 . S
Eu84 O129 2.373 . S
Eu84 O131 2.432 . S
Eu84 O132 2.291 . S
Eu84 O136 2.335 . S
Eu84 O139 2.372 . S
Eu84 C148 2.787 . S
C85 N86 1.365 . S
C85 C88 1.405 . S
C85 C92 1.448 . S
N86 C85 1.365 . S
N86 C89 1.319 . S
N86 Eu95 2.600 . S
C87 C89 1.397 . S
C87 C90 1.367 . S
C87 H107 0.931 . S
C88 C85 1.405 . S
C88 C90 1.403 . S
C88 C94 1.439 . S
C89 N86 1.319 . S
C89 C87 1.397 . S
C89 H100 0.930 . S
C90 C87 1.367 . S
C90 C88 1.403 . S
C90 H111 0.929 . S
C91 C92 1.430 . S
C91 C93 1.387 . S
C91 C97 1.404 . S
C92 C85 1.448 . S
C92 C91 1.430 . S
C92 N96 1.351 . S
C93 C91 1.387 . S
C93 C94 1.374 . S
C93 H108 0.931 . S
C94 C88 1.439 . S
C94 C93 1.374 . S
C94 H109 0.931 . S
Eu95 N86 2.600 . S
Eu95 N96 2.562 . S
Eu95 O130 2.335 . S
Eu95 O133 2.372 . S
Eu95 O134 2.462 . S
Eu95 O135 2.373 . S
Eu95 O137 2.432 . S
Eu95 O138 2.291 . S
Eu95 C159 2.787 . S
N96 C92 1.351 . S
N96 Eu95 2.562 . S
N96 C98 1.325 . S
C97 C91 1.404 . S
C97 C99 1.366 . S
C97 H105 0.930 . S
C98 N96 1.325 . S
C98 C99 1.416 . S
C98 H104 0.929 . S
C99 C97 1.366 . S
C99 C98 1.416 . S
C99 H101 0.930 . S
H100 C89 0.930 . S
H101 C99 0.930 . S
H102 C117 0.930 . S
H103 C124 0.930 . S
H104 C98 0.929 . S
H105 C97 0.930 . S
H106 C120 0.929 . S
H107 C87 0.931 . S
H108 C93 0.931 . S
H109 C94 0.931 . S
H110 C115 0.931 . S
H111 C90 0.929 . S
H112 C123 0.930 . S
N113 Eu84 2.600 . S
N113 C114 1.365 . S
N113 C117 1.319 . S
C114 N113 1.365 . S
C114 C116 1.405 . S
C114 C122 1.448 . S
C115 H110 0.931 . S
C115 C117 1.397 . S
C115 C118 1.367 . S
C116 C114 1.405 . S
C116 C118 1.403 . S
C116 C149 1.439 . S
C117 H102 0.930 . S
C117 N113 1.319 . S
C117 C115 1.397 . S
C118 C115 1.367 . S
C118 C116 1.403 . S
C118 H125 0.929 . S
N119 Eu84 2.562 . S
N119 C120 1.325 . S
N119 C122 1.351 . S
C120 H106 0.929 . S
C120 N119 1.325 . S
C120 C124 1.416 . S
C121 C122 1.430 . S
C121 C123 1.404 . S
C121 C150 1.387 . S
C122 C114 1.448 . S
C122 N119 1.351 . S
C122 C121 1.430 . S
C123 H112 0.930 . S
C123 C121 1.404 . S
C123 C124 1.366 . S
C124 H103 0.930 . S
C124 C120 1.416 . S
C124 C123 1.366 . S
H125 C118 0.929 . S
H126 C149 0.931 . S
H127 C150 0.931 . S
O128 Eu84 2.462 . S
O128 C148 1.252 . S
O129 Eu84 2.373 . S
O129 C140 1.249 . S
O130 Eu95 2.335 . S
O130 C140 1.264 . S
O131 Eu84 2.432 . S
O131 C148 1.268 . S
O132 Eu84 2.291 . S
O132 C147 1.255 . S
O133 Eu95 2.372 . S
O133 C147 1.257 . S
O134 Eu95 2.462 . S
O134 C159 1.252 . S
O135 Eu95 2.373 . S
O135 C151 1.249 . S
O136 Eu84 2.335 . S
O136 C151 1.264 . S
O137 Eu95 2.432 . S
O137 C159 1.268 . S
O138 Eu95 2.291 . S
O138 C158 1.255 . S
O139 Eu84 2.372 . S
O139 C158 1.257 . S
C140 O129 1.249 . S
C140 O130 1.264 . S
C141 C144 1.382 . S
C141 C146 1.390 . S
C141 C148 1.506 . S
C142 C143 1.398 . S
C142 C146 1.392 . S
C143 C142 1.398 . S
C143 C145 1.372 . S
C143 H160 0.931 . S
C144 C141 1.382 . S
C144 C145 1.390 . S
C144 H161 0.931 . S
C145 C143 1.372 . S
C145 C144 1.390 . S
C145 H162 0.929 . S
C146 C141 1.390 . S
C146 C142 1.392 . S
C146 H163 0.930 . S
C147 O132 1.255 . S
C147 O133 1.257 . S
C148 Eu84 2.787 . S
C148 O128 1.252 . S
C148 O131 1.268 . S
C148 C141 1.506 . S
C149 C116 1.439 . S
C149 H126 0.931 . S
C149 C150 1.374 . S
C150 C121 1.387 . S
C150 H127 0.931 . S
C150 C149 1.374 . S
C151 O135 1.249 . S
C151 O136 1.264 . S
C152 C155 1.382 . S
C152 C156 1.390 . S
C152 C159 1.506 . S
C153 C154 1.398 . S
C153 C156 1.392 . S
C154 C153 1.398 . S
C154 C157 1.372 . S
C154 H164 0.931 . S
C155 C152 1.382 . S
C155 C157 1.390 . S
C155 H165 0.931 . S
C156 C152 1.390 . S
C156 C153 1.392 . S
C156 H166 0.930 . S
C157 C154 1.372 . S
C157 C155 1.390 . S
C157 H167 0.929 . S
C158 O138 1.255 . S
C158 O139 1.257 . S
C159 Eu95 2.787 . S
C159 O134 1.252 . S
C159 O137 1.268 . S
C159 C152 1.506 . S
H160 C143 0.931 . S
H161 C144 0.931 . S
H162 C145 0.929 . S
H163 C146 0.930 . S
H164 C154 0.931 . S
H165 C155 0.931 . S
H166 C156 0.930 . S
H167 C157 0.929 . S
Eu168 N197 2.600 . S
Eu168 N203 2.562 . S
Eu168 O212 2.462 . S
Eu168 O213 2.373 . S
Eu168 O215 2.432 . S
Eu168 O216 2.291 . S
Eu168 O220 2.335 . S
Eu168 O223 2.372 . S
Eu168 C232 2.787 . S
C169 N170 1.365 . S
C169 C172 1.405 . S
C169 C176 1.448 . S
N170 C169 1.365 . S
N170 C173 1.319 . S
N170 Eu179 2.600 . S
C171 C173 1.397 . S
C171 C174 1.367 . S
C171 H191 0.931 . S
C172 C169 1.405 . S
C172 C174 1.403 . S
C172 C178 1.439 . S
C173 N170 1.319 . S
C173 C171 1.397 . S
C173 H184 0.930 . S
C174 C171 1.367 . S
C174 C172 1.403 . S
C174 H195 0.929 . S
C175 C176 1.430 . S
C175 C177 1.387 . S
C175 C181 1.404 . S
C176 C169 1.448 . S
C176 C175 1.430 . S
C176 N180 1.351 . S
C177 C175 1.387 . S
C177 C178 1.374 . S
C177 H192 0.931 . S
C178 C172 1.439 . S
C178 C177 1.374 . S
C178 H193 0.931 . S
Eu179 N170 2.600 . S
Eu179 N180 2.562 . S
Eu179 O214 2.335 . S
Eu179 O217 2.372 . S
Eu179 O218 2.462 . S
Eu179 O219 2.373 . S
Eu179 O221 2.432 . S
Eu179 O222 2.291 . S
Eu179 C243 2.787 . S
N180 C176 1.351 . S
N180 Eu179 2.562 . S
N180 C182 1.325 . S
C181 C175 1.404 . S
C181 C183 1.366 . S
C181 H189 0.930 . S
C182 N180 1.325 . S
C182 C183 1.416 . S
C182 H188 0.929 . S
C183 C181 1.366 . S
C183 C182 1.416 . S
C183 H185 0.930 . S
H184 C173 0.930 . S
H185 C183 0.930 . S
H186 C201 0.930 . S
H187 C208 0.930 . S
H188 C182 0.929 . S
H189 C181 0.930 . S
H190 C204 0.929 . S
H191 C171 0.931 . S
H192 C177 0.931 . S
H193 C178 0.931 . S
H194 C199 0.931 . S
H195 C174 0.929 . S
H196 C207 0.930 . S
N197 Eu168 2.600 . S
N197 C198 1.365 . S
N197 C201 1.319 . S
C198 N197 1.365 . S
C198 C200 1.405 . S
C198 C206 1.448 . S
C199 H194 0.931 . S
C199 C201 1.397 . S
C199 C202 1.367 . S
C200 C198 1.405 . S
C200 C202 1.403 . S
C200 C233 1.439 . S
C201 H186 0.930 . S
C201 N197 1.319 . S
C201 C199 1.397 . S
C202 C199 1.367 . S
C202 C200 1.403 . S
C202 H209 0.929 . S
N203 Eu168 2.562 . S
N203 C204 1.325 . S
N203 C206 1.351 . S
C204 H190 0.929 . S
C204 N203 1.325 . S
C204 C208 1.416 . S
C205 C206 1.430 . S
C205 C207 1.404 . S
C205 C234 1.387 . S
C206 C198 1.448 . S
C206 N203 1.351 . S
C206 C205 1.430 . S
C207 H196 0.930 . S
C207 C205 1.404 . S
C207 C208 1.366 . S
C208 H187 0.930 . S
C208 C204 1.416 . S
C208 C207 1.366 . S
H209 C202 0.929 . S
H210 C233 0.931 . S
H211 C234 0.931 . S
O212 Eu168 2.462 . S
O212 C232 1.252 . S
O213 Eu168 2.373 . S
O213 C224 1.249 . S
O214 Eu179 2.335 . S
O214 C224 1.264 . S
O215 Eu168 2.432 . S
O215 C232 1.268 . S
O216 Eu168 2.291 . S
O216 C231 1.255 . S
O217 Eu179 2.372 . S
O217 C231 1.257 . S
O218 Eu179 2.462 . S
O218 C243 1.252 . S
O219 Eu179 2.373 . S
O219 C235 1.249 . S
O220 Eu168 2.335 . S
O220 C235 1.264 . S
O221 Eu179 2.432 . S
O221 C243 1.268 . S
O222 Eu179 2.291 . S
O222 C242 1.255 . S
O223 Eu168 2.372 . S
O223 C242 1.257 . S
C224 O213 1.249 . S
C224 O214 1.264 . S
C225 C228 1.382 . S
C225 C230 1.390 . S
C225 C232 1.506 . S
C226 C227 1.398 . S
C226 C230 1.392 . S
C227 C226 1.398 . S
C227 C229 1.372 . S
C227 H244 0.931 . S
C228 C225 1.382 . S
C228 C229 1.390 . S
C228 H245 0.931 . S
C229 C227 1.372 . S
C229 C228 1.390 . S
C229 H246 0.929 . S
C230 C225 1.390 . S
C230 C226 1.392 . S
C230 H247 0.930 . S
C231 O216 1.255 . S
C231 O217 1.257 . S
C232 Eu168 2.787 . S
C232 O212 1.252 . S
C232 O215 1.268 . S
C232 C225 1.506 . S
C233 C200 1.439 . S
C233 H210 0.931 . S
C233 C234 1.374 . S
C234 C205 1.387 . S
C234 H211 0.931 . S
C234 C233 1.374 . S
C235 O219 1.249 . S
C235 O220 1.264 . S
C236 C239 1.382 . S
C236 C240 1.390 . S
C236 C243 1.506 . S
C237 C238 1.398 . S
C237 C240 1.392 . S
C238 C237 1.398 . S
C238 C241 1.372 . S
C238 H248 0.931 . S
C239 C236 1.382 . S
C239 C241 1.390 . S
C239 H249 0.931 . S
C240 C236 1.390 . S
C240 C237 1.392 . S
C240 H250 0.930 . S
C241 C238 1.372 . S
C241 C239 1.390 . S
C241 H251 0.929 . S
C242 O222 1.255 . S
C242 O223 1.257 . S
C243 Eu179 2.787 . S
C243 O218 1.252 . S
C243 O221 1.268 . S
C243 C236 1.506 . S
H244 C227 0.931 . S
H245 C228 0.931 . S
H246 C229 0.929 . S
H247 C230 0.930 . S
H248 C238 0.931 . S
H249 C239 0.931 . S
H250 C240 0.930 . S
H251 C241 0.929 . S
Eu252 N281 2.600 . S
Eu252 N287 2.562 . S
Eu252 O296 2.462 . S
Eu252 O297 2.373 . S
Eu252 O299 2.432 . S
Eu252 O300 2.291 . S
Eu252 O304 2.335 . S
Eu252 O307 2.372 . S
Eu252 C316 2.787 . S
C253 N254 1.365 . S
C253 C256 1.405 . S
C253 C260 1.448 . S
N254 C253 1.365 . S
N254 C257 1.319 . S
N254 Eu263 2.600 . S
C255 C257 1.397 . S
C255 C258 1.367 . S
C255 H275 0.931 . S
C256 C253 1.405 . S
C256 C258 1.403 . S
C256 C262 1.439 . S
C257 N254 1.319 . S
C257 C255 1.397 . S
C257 H268 0.930 . S
C258 C255 1.367 . S
C258 C256 1.403 . S
C258 H279 0.929 . S
C259 C260 1.430 . S
C259 C261 1.387 . S
C259 C265 1.404 . S
C260 C253 1.448 . S
C260 C259 1.430 . S
C260 N264 1.351 . S
C261 C259 1.387 . S
C261 C262 1.374 . S
C261 H276 0.931 . S
C262 C256 1.439 . S
C262 C261 1.374 . S
C262 H277 0.931 . S
Eu263 N254 2.600 . S
Eu263 N264 2.562 . S
Eu263 O298 2.335 . S
Eu263 O301 2.372 . S
Eu263 O302 2.462 . S
Eu263 O303 2.373 . S
Eu263 O305 2.432 . S
Eu263 O306 2.291 . S
Eu263 C327 2.787 . S
N264 C260 1.351 . S
N264 Eu263 2.562 . S
N264 C266 1.325 . S
C265 C259 1.404 . S
C265 C267 1.366 . S
C265 H273 0.930 . S
C266 N264 1.325 . S
C266 C267 1.416 . S
C266 H272 0.929 . S
C267 C265 1.366 . S
C267 C266 1.416 . S
C267 H269 0.930 . S
H268 C257 0.930 . S
H269 C267 0.930 . S
H270 C285 0.930 . S
H271 C292 0.930 . S
H272 C266 0.929 . S
H273 C265 0.930 . S
H274 C288 0.929 . S
H275 C255 0.931 . S
H276 C261 0.931 . S
H277 C262 0.931 . S
H278 C283 0.931 . S
H279 C258 0.929 . S
H280 C291 0.930 . S
N281 Eu252 2.600 . S
N281 C282 1.365 . S
N281 C285 1.319 . S
C282 N281 1.365 . S
C282 C284 1.405 . S
C282 C290 1.448 . S
C283 H278 0.931 . S
C283 C285 1.397 . S
C283 C286 1.367 . S
C284 C282 1.405 . S
C284 C286 1.403 . S
C284 C317 1.439 . S
C285 H270 0.930 . S
C285 N281 1.319 . S
C285 C283 1.397 . S
C286 C283 1.367 . S
C286 C284 1.403 . S
C286 H293 0.929 . S
N287 Eu252 2.562 . S
N287 C288 1.325 . S
N287 C290 1.351 . S
C288 H274 0.929 . S
C288 N287 1.325 . S
C288 C292 1.416 . S
C289 C290 1.430 . S
C289 C291 1.404 . S
C289 C318 1.387 . S
C290 C282 1.448 . S
C290 N287 1.351 . S
C290 C289 1.430 . S
C291 H280 0.930 . S
C291 C289 1.404 . S
C291 C292 1.366 . S
C292 H271 0.930 . S
C292 C288 1.416 . S
C292 C291 1.366 . S
H293 C286 0.929 . S
H294 C317 0.931 . S
H295 C318 0.931 . S
O296 Eu252 2.462 . S
O296 C316 1.252 . S
O297 Eu252 2.373 . S
O297 C308 1.249 . S
O298 Eu263 2.335 . S
O298 C308 1.264 . S
O299 Eu252 2.432 . S
O299 C316 1.268 . S
O300 Eu252 2.291 . S
O300 C315 1.255 . S
O301 Eu263 2.372 . S
O301 C315 1.257 . S
O302 Eu263 2.462 . S
O302 C327 1.252 . S
O303 Eu263 2.373 . S
O303 C319 1.249 . S
O304 Eu252 2.335 . S
O304 C319 1.264 . S
O305 Eu263 2.432 . S
O305 C327 1.268 . S
O306 Eu263 2.291 . S
O306 C326 1.255 . S
O307 Eu252 2.372 . S
O307 C326 1.257 . S
C308 O297 1.249 . S
C308 O298 1.264 . S
C309 C312 1.382 . S
C309 C314 1.390 . S
C309 C316 1.506 . S
C310 C311 1.398 . S
C310 C314 1.392 . S
C311 C310 1.398 . S
C311 C313 1.372 . S
C311 H328 0.931 . S
C312 C309 1.382 . S
C312 C313 1.390 . S
C312 H329 0.931 . S
C313 C311 1.372 . S
C313 C312 1.390 . S
C313 H330 0.929 . S
C314 C309 1.390 . S
C314 C310 1.392 . S
C314 H331 0.930 . S
C315 O300 1.255 . S
C315 O301 1.257 . S
C316 Eu252 2.787 . S
C316 O296 1.252 . S
C316 O299 1.268 . S
C316 C309 1.506 . S
C317 C284 1.439 . S
C317 H294 0.931 . S
C317 C318 1.374 . S
C318 C289 1.387 . S
C318 H295 0.931 . S
C318 C317 1.374 . S
C319 O303 1.249 . S
C319 O304 1.264 . S
C320 C323 1.382 . S
C320 C324 1.390 . S
C320 C327 1.506 . S
C321 C322 1.398 . S
C321 C324 1.392 . S
C322 C321 1.398 . S
C322 C325 1.372 . S
C322 H332 0.931 . S
C323 C320 1.382 . S
C323 C325 1.390 . S
C323 H333 0.931 . S
C324 C320 1.390 . S
C324 C321 1.392 . S
C324 H334 0.930 . S
C325 C322 1.372 . S
C325 C323 1.390 . S
C325 H335 0.929 . S
C326 O306 1.255 . S
C326 O307 1.257 . S
C327 Eu263 2.787 . S
C327 O302 1.252 . S
C327 O305 1.268 . S
C327 C320 1.506 . S
H328 C311 0.931 . S
H329 C312 0.931 . S
H330 C313 0.929 . S
H331 C314 0.930 . S
H332 C322 0.931 . S
H333 C323 0.931 . S
H334 C324 0.930 . S
H335 C325 0.929 . S
Eu336 N365 2.600 . S
Eu336 N371 2.562 . S
Eu336 O380 2.462 . S
Eu336 O381 2.373 . S
Eu336 O383 2.432 . S
Eu336 O384 2.291 . S
Eu336 O388 2.335 . S
Eu336 O391 2.372 . S
Eu336 C400 2.787 . S
C337 N338 1.365 . S
C337 C340 1.405 . S
C337 C344 1.448 . S
N338 C337 1.365 . S
N338 C341 1.319 . S
N338 Eu347 2.600 . S
C339 C341 1.397 . S
C339 C342 1.367 . S
C339 H359 0.931 . S
C340 C337 1.405 . S
C340 C342 1.403 . S
C340 C346 1.439 . S
C341 N338 1.319 . S
C341 C339 1.397 . S
C341 H352 0.930 . S
C342 C339 1.367 . S
C342 C340 1.403 . S
C342 H363 0.929 . S
C343 C344 1.430 . S
C343 C345 1.387 . S
C343 C349 1.404 . S
C344 C337 1.448 . S
C344 C343 1.430 . S
C344 N348 1.351 . S
C345 C343 1.387 . S
C345 C346 1.374 . S
C345 H360 0.931 . S
C346 C340 1.439 . S
C346 C345 1.374 . S
C346 H361 0.931 . S
Eu347 N338 2.600 . S
Eu347 N348 2.562 . S
Eu347 O382 2.335 . S
Eu347 O385 2.372 . S
Eu347 O386 2.462 . S
Eu347 O387 2.373 . S
Eu347 O389 2.432 . S
Eu347 O390 2.291 . S
Eu347 C411 2.787 . S
N348 C344 1.351 . S
N348 Eu347 2.562 . S
N348 C350 1.325 . S
C349 C343 1.404 . S
C349 C351 1.366 . S
C349 H357 0.930 . S
C350 N348 1.325 . S
C350 C351 1.416 . S
C350 H356 0.929 . S
C351 C349 1.366 . S
C351 C350 1.416 . S
C351 H353 0.930 . S
H352 C341 0.930 . S
H353 C351 0.930 . S
H354 C369 0.930 . S
H355 C376 0.930 . S
H356 C350 0.929 . S
H357 C349 0.930 . S
H358 C372 0.929 . S
H359 C339 0.931 . S
H360 C345 0.931 . S
H361 C346 0.931 . S
H362 C367 0.931 . S
H363 C342 0.929 . S
H364 C375 0.930 . S
N365 Eu336 2.600 . S
N365 C366 1.365 . S
N365 C369 1.319 . S
C366 N365 1.365 . S
C366 C368 1.405 . S
C366 C374 1.448 . S
C367 H362 0.931 . S
C367 C369 1.397 . S
C367 C370 1.367 . S
C368 C366 1.405 . S
C368 C370 1.403 . S
C368 C401 1.439 . S
C369 H354 0.930 . S
C369 N365 1.319 . S
C369 C367 1.397 . S
C370 C367 1.367 . S
C370 C368 1.403 . S
C370 H377 0.929 . S
N371 Eu336 2.562 . S
N371 C372 1.325 . S
N371 C374 1.351 . S
C372 H358 0.929 . S
C372 N371 1.325 . S
C372 C376 1.416 . S
C373 C374 1.430 . S
C373 C375 1.404 . S
C373 C402 1.387 . S
C374 C366 1.448 . S
C374 N371 1.351 . S
C374 C373 1.430 . S
C375 H364 0.930 . S
C375 C373 1.404 . S
C375 C376 1.366 . S
C376 H355 0.930 . S
C376 C372 1.416 . S
C376 C375 1.366 . S
H377 C370 0.929 . S
H378 C401 0.931 . S
H379 C402 0.931 . S
O380 Eu336 2.462 . S
O380 C400 1.252 . S
O381 Eu336 2.373 . S
O381 C392 1.249 . S
O382 Eu347 2.335 . S
O382 C392 1.264 . S
O383 Eu336 2.432 . S
O383 C400 1.268 . S
O384 Eu336 2.291 . S
O384 C399 1.255 . S
O385 Eu347 2.372 . S
O385 C399 1.257 . S
O386 Eu347 2.462 . S
O386 C411 1.252 . S
O387 Eu347 2.373 . S
O387 C403 1.249 . S
O388 Eu336 2.335 . S
O388 C403 1.264 . S
O389 Eu347 2.432 . S
O389 C411 1.268 . S
O390 Eu347 2.291 . S
O390 C410 1.255 . S
O391 Eu336 2.372 . S
O391 C410 1.257 . S
C392 O381 1.249 . S
C392 O382 1.264 . S
C393 C396 1.382 . S
C393 C398 1.390 . S
C393 C400 1.506 . S
C394 C395 1.398 . S
C394 C398 1.392 . S
C395 C394 1.398 . S
C395 C397 1.372 . S
C395 H412 0.931 . S
C396 C393 1.382 . S
C396 C397 1.390 . S
C396 H413 0.931 . S
C397 C395 1.372 . S
C397 C396 1.390 . S
C397 H414 0.929 . S
C398 C393 1.390 . S
C398 C394 1.392 . S
C398 H415 0.930 . S
C399 O384 1.255 . S
C399 O385 1.257 . S
C400 Eu336 2.787 . S
C400 O380 1.252 . S
C400 O383 1.268 . S
C400 C393 1.506 . S
C401 C368 1.439 . S
C401 H378 0.931 . S
C401 C402 1.374 . S
C402 C373 1.387 . S
C402 H379 0.931 . S
C402 C401 1.374 . S
C403 O387 1.249 . S
C403 O388 1.264 . S
C404 C407 1.382 . S
C404 C408 1.390 . S
C404 C411 1.506 . S
C405 C406 1.398 . S
C405 C408 1.392 . S
C406 C405 1.398 . S
C406 C409 1.372 . S
C406 H416 0.931 . S
C407 C404 1.382 . S
C407 C409 1.390 . S
C407 H417 0.931 . S
C408 C404 1.390 . S
C408 C405 1.392 . S
C408 H418 0.930 . S
C409 C406 1.372 . S
C409 C407 1.390 . S
C409 H419 0.929 . S
C410 O390 1.255 . S
C410 O391 1.257 . S
C411 Eu347 2.787 . S
C411 O386 1.252 . S
C411 O389 1.268 . S
C411 C404 1.506 . S
H412 C395 0.931 . S
H413 C396 0.931 . S
H414 C397 0.929 . S
H415 C398 0.930 . S
H416 C406 0.931 . S
H417 C407 0.931 . S
H418 C408 0.930 . S
H419 C409 0.929 . S
Eu420 N449 2.600 . S
Eu420 N455 2.562 . S
Eu420 O464 2.462 . S
Eu420 O465 2.373 . S
Eu420 O467 2.432 . S
Eu420 O468 2.291 . S
Eu420 O472 2.335 . S
Eu420 O475 2.372 . S
Eu420 C484 2.787 . S
C421 N422 1.365 . S
C421 C424 1.405 . S
C421 C428 1.448 . S
N422 C421 1.365 . S
N422 C425 1.319 . S
N422 Eu431 2.600 . S
C423 C425 1.397 . S
C423 C426 1.367 . S
C423 H443 0.931 . S
C424 C421 1.405 . S
C424 C426 1.403 . S
C424 C430 1.439 . S
C425 N422 1.319 . S
C425 C423 1.397 . S
C425 H436 0.930 . S
C426 C423 1.367 . S
C426 C424 1.403 . S
C426 H447 0.929 . S
C427 C428 1.430 . S
C427 C429 1.387 . S
C427 C433 1.404 . S
C428 C421 1.448 . S
C428 C427 1.430 . S
C428 N432 1.351 . S
C429 C427 1.387 . S
C429 C430 1.374 . S
C429 H444 0.931 . S
C430 C424 1.439 . S
C430 C429 1.374 . S
C430 H445 0.931 . S
Eu431 N422 2.600 . S
Eu431 N432 2.562 . S
Eu431 O466 2.335 . S
Eu431 O469 2.372 . S
Eu431 O470 2.462 . S
Eu431 O471 2.373 . S
Eu431 O473 2.432 . S
Eu431 O474 2.291 . S
Eu431 C495 2.787 . S
N432 C428 1.351 . S
N432 Eu431 2.562 . S
N432 C434 1.325 . S
C433 C427 1.404 . S
C433 C435 1.366 . S
C433 H441 0.930 . S
C434 N432 1.325 . S
C434 C435 1.416 . S
C434 H440 0.929 . S
C435 C433 1.366 . S
C435 C434 1.416 . S
C435 H437 0.930 . S
H436 C425 0.930 . S
H437 C435 0.930 . S
H438 C453 0.930 . S
H439 C460 0.930 . S
H440 C434 0.929 . S
H441 C433 0.930 . S
H442 C456 0.929 . S
H443 C423 0.931 . S
H444 C429 0.931 . S
H445 C430 0.931 . S
H446 C451 0.931 . S
H447 C426 0.929 . S
H448 C459 0.930 . S
N449 Eu420 2.600 . S
N449 C450 1.365 . S
N449 C453 1.319 . S
C450 N449 1.365 . S
C450 C452 1.405 . S
C450 C458 1.448 . S
C451 H446 0.931 . S
C451 C453 1.397 . S
C451 C454 1.367 . S
C452 C450 1.405 . S
C452 C454 1.403 . S
C452 C485 1.439 . S
C453 H438 0.930 . S
C453 N449 1.319 . S
C453 C451 1.397 . S
C454 C451 1.367 . S
C454 C452 1.403 . S
C454 H461 0.929 . S
N455 Eu420 2.562 . S
N455 C456 1.325 . S
N455 C458 1.351 . S
C456 H442 0.929 . S
C456 N455 1.325 . S
C456 C460 1.416 . S
C457 C458 1.430 . S
C457 C459 1.404 . S
C457 C486 1.387 . S
C458 C450 1.448 . S
C458 N455 1.351 . S
C458 C457 1.430 . S
C459 H448 0.930 . S
C459 C457 1.404 . S
C459 C460 1.366 . S
C460 H439 0.930 . S
C460 C456 1.416 . S
C460 C459 1.366 . S
H461 C454 0.929 . S
H462 C485 0.931 . S
H463 C486 0.931 . S
O464 Eu420 2.462 . S
O464 C484 1.252 . S
O465 Eu420 2.373 . S
O465 C476 1.249 . S
O466 Eu431 2.335 . S
O466 C476 1.264 . S
O467 Eu420 2.432 . S
O467 C484 1.268 . S
O468 Eu420 2.291 . S
O468 C483 1.255 . S
O469 Eu431 2.372 . S
O469 C483 1.257 . S
O470 Eu431 2.462 . S
O470 C495 1.252 . S
O471 Eu431 2.373 . S
O471 C487 1.249 . S
O472 Eu420 2.335 . S
O472 C487 1.264 . S
O473 Eu431 2.432 . S
O473 C495 1.268 . S
O474 Eu431 2.291 . S
O474 C494 1.255 . S
O475 Eu420 2.372 . S
O475 C494 1.257 . S
C476 O465 1.249 . S
C476 O466 1.264 . S
C477 C480 1.382 . S
C477 C482 1.390 . S
C477 C484 1.506 . S
C478 C479 1.398 . S
C478 C482 1.392 . S
C479 C478 1.398 . S
C479 C481 1.372 . S
C479 H496 0.931 . S
C480 C477 1.382 . S
C480 C481 1.390 . S
C480 H497 0.931 . S
C481 C479 1.372 . S
C481 C480 1.390 . S
C481 H498 0.929 . S
C482 C477 1.390 . S
C482 C478 1.392 . S
C482 H499 0.930 . S
C483 O468 1.255 . S
C483 O469 1.257 . S
C484 Eu420 2.787 . S
C484 O464 1.252 . S
C484 O467 1.268 . S
C484 C477 1.506 . S
C485 C452 1.439 . S
C485 H462 0.931 . S
C485 C486 1.374 . S
C486 C457 1.387 . S
C486 H463 0.931 . S
C486 C485 1.374 . S
C487 O471 1.249 . S
C487 O472 1.264 . S
C488 C491 1.382 . S
C488 C492 1.390 . S
C488 C495 1.506 . S
C489 C490 1.398 . S
C489 C492 1.392 . S
C490 C489 1.398 . S
C490 C493 1.372 . S
C490 H500 0.931 . S
C491 C488 1.382 . S
C491 C493 1.390 . S
C491 H501 0.931 . S
C492 C488 1.390 . S
C492 C489 1.392 . S
C492 H502 0.930 . S
C493 C490 1.372 . S
C493 C491 1.390 . S
C493 H503 0.929 . S
C494 O474 1.255 . S
C494 O475 1.257 . S
C495 Eu431 2.787 . S
C495 O470 1.252 . S
C495 O473 1.268 . S
C495 C488 1.506 . S
H496 C479 0.931 . S
H497 C480 0.931 . S
H498 C481 0.929 . S
H499 C482 0.930 . S
H500 C490 0.931 . S
H501 C491 0.931 . S
H502 C492 0.930 . S
H503 C493 0.929 . S
Eu504 N533 2.600 . S
Eu504 N539 2.562 . S
Eu504 O548 2.462 . S
Eu504 O549 2.373 . S
Eu504 O551 2.432 . S
Eu504 O552 2.291 . S
Eu504 O556 2.335 . S
Eu504 O559 2.372 . S
Eu504 C568 2.787 . S
C505 N506 1.365 . S
C505 C508 1.405 . S
C505 C512 1.448 . S
N506 C505 1.365 . S
N506 C509 1.319 . S
N506 Eu515 2.600 . S
C507 C509 1.397 . S
C507 C510 1.367 . S
C507 H527 0.931 . S
C508 C505 1.405 . S
C508 C510 1.403 . S
C508 C514 1.439 . S
C509 N506 1.319 . S
C509 C507 1.397 . S
C509 H520 0.930 . S
C510 C507 1.367 . S
C510 C508 1.403 . S
C510 H531 0.929 . S
C511 C512 1.430 . S
C511 C513 1.387 . S
C511 C517 1.404 . S
C512 C505 1.448 . S
C512 C511 1.430 . S
C512 N516 1.351 . S
C513 C511 1.387 . S
C513 C514 1.374 . S
C513 H528 0.931 . S
C514 C508 1.439 . S
C514 C513 1.374 . S
C514 H529 0.931 . S
Eu515 N506 2.600 . S
Eu515 N516 2.562 . S
Eu515 O550 2.335 . S
Eu515 O553 2.372 . S
Eu515 O554 2.462 . S
Eu515 O555 2.373 . S
Eu515 O557 2.432 . S
Eu515 O558 2.291 . S
Eu515 C579 2.787 . S
N516 C512 1.351 . S
N516 Eu515 2.562 . S
N516 C518 1.325 . S
C517 C511 1.404 . S
C517 C519 1.366 . S
C517 H525 0.930 . S
C518 N516 1.325 . S
C518 C519 1.416 . S
C518 H524 0.929 . S
C519 C517 1.366 . S
C519 C518 1.416 . S
C519 H521 0.930 . S
H520 C509 0.930 . S
H521 C519 0.930 . S
H522 C537 0.930 . S
H523 C544 0.930 . S
H524 C518 0.929 . S
H525 C517 0.930 . S
H526 C540 0.929 . S
H527 C507 0.931 . S
H528 C513 0.931 . S
H529 C514 0.931 . S
H530 C535 0.931 . S
H531 C510 0.929 . S
H532 C543 0.930 . S
N533 Eu504 2.600 . S
N533 C534 1.365 . S
N533 C537 1.319 . S
C534 N533 1.365 . S
C534 C536 1.405 . S
C534 C542 1.448 . S
C535 H530 0.931 . S
C535 C537 1.397 . S
C535 C538 1.367 . S
C536 C534 1.405 . S
C536 C538 1.403 . S
C536 C569 1.439 . S
C537 H522 0.930 . S
C537 N533 1.319 . S
C537 C535 1.397 . S
C538 C535 1.367 . S
C538 C536 1.403 . S
C538 H545 0.929 . S
N539 Eu504 2.562 . S
N539 C540 1.325 . S
N539 C542 1.351 . S
C540 H526 0.929 . S
C540 N539 1.325 . S
C540 C544 1.416 . S
C541 C542 1.430 . S
C541 C543 1.404 . S
C541 C570 1.387 . S
C542 C534 1.448 . S
C542 N539 1.351 . S
C542 C541 1.430 . S
C543 H532 0.930 . S
C543 C541 1.404 . S
C543 C544 1.366 . S
C544 H523 0.930 . S
C544 C540 1.416 . S
C544 C543 1.366 . S
H545 C538 0.929 . S
H546 C569 0.931 . S
H547 C570 0.931 . S
O548 Eu504 2.462 . S
O548 C568 1.252 . S
O549 Eu504 2.373 . S
O549 C560 1.249 . S
O550 Eu515 2.335 . S
O550 C560 1.264 . S
O551 Eu504 2.432 . S
O551 C568 1.268 . S
O552 Eu504 2.291 . S
O552 C567 1.255 . S
O553 Eu515 2.372 . S
O553 C567 1.257 . S
O554 Eu515 2.462 . S
O554 C579 1.252 . S
O555 Eu515 2.373 . S
O555 C571 1.249 . S
O556 Eu504 2.335 . S
O556 C571 1.264 . S
O557 Eu515 2.432 . S
O557 C579 1.268 . S
O558 Eu515 2.291 . S
O558 C578 1.255 . S
O559 Eu504 2.372 . S
O559 C578 1.257 . S
C560 O549 1.249 . S
C560 O550 1.264 . S
C561 C564 1.382 . S
C561 C566 1.390 . S
C561 C568 1.506 . S
C562 C563 1.398 . S
C562 C566 1.392 . S
C563 C562 1.398 . S
C563 C565 1.372 . S
C563 H580 0.931 . S
C564 C561 1.382 . S
C564 C565 1.390 . S
C564 H581 0.931 . S
C565 C563 1.372 . S
C565 C564 1.390 . S
C565 H582 0.929 . S
C566 C561 1.390 . S
C566 C562 1.392 . S
C566 H583 0.930 . S
C567 O552 1.255 . S
C567 O553 1.257 . S
C568 Eu504 2.787 . S
C568 O548 1.252 . S
C568 O551 1.268 . S
C568 C561 1.506 . S
C569 C536 1.439 . S
C569 H546 0.931 . S
C569 C570 1.374 . S
C570 C541 1.387 . S
C570 H547 0.931 . S
C570 C569 1.374 . S
C571 O555 1.249 . S
C571 O556 1.264 . S
C572 C575 1.382 . S
C572 C576 1.390 . S
C572 C579 1.506 . S
C573 C574 1.398 . S
C573 C576 1.392 . S
C574 C573 1.398 . S
C574 C577 1.372 . S
C574 H584 0.931 . S
C575 C572 1.382 . S
C575 C577 1.390 . S
C575 H585 0.931 . S
C576 C572 1.390 . S
C576 C573 1.392 . S
C576 H586 0.930 . S
C577 C574 1.372 . S
C577 C575 1.390 . S
C577 H587 0.929 . S
C578 O558 1.255 . S
C578 O559 1.257 . S
C579 Eu515 2.787 . S
C579 O554 1.252 . S
C579 O557 1.268 . S
C579 C572 1.506 . S
H580 C563 0.931 . S
H581 C564 0.931 . S
H582 C565 0.929 . S
H583 C566 0.930 . S
H584 C574 0.931 . S
H585 C575 0.931 . S
H586 C576 0.930 . S
H587 C577 0.929 . S
Eu588 N617 2.600 . S
Eu588 N623 2.562 . S
Eu588 O632 2.462 . S
Eu588 O633 2.373 . S
Eu588 O635 2.432 . S
Eu588 O636 2.291 . S
Eu588 O640 2.335 . S
Eu588 O643 2.372 . S
Eu588 C652 2.787 . S
C589 N590 1.365 . S
C589 C592 1.405 . S
C589 C596 1.448 . S
N590 C589 1.365 . S
N590 C593 1.319 . S
N590 Eu599 2.600 . S
C591 C593 1.397 . S
C591 C594 1.367 . S
C591 H611 0.931 . S
C592 C589 1.405 . S
C592 C594 1.403 . S
C592 C598 1.439 . S
C593 N590 1.319 . S
C593 C591 1.397 . S
C593 H604 0.930 . S
C594 C591 1.367 . S
C594 C592 1.403 . S
C594 H615 0.929 . S
C595 C596 1.430 . S
C595 C597 1.387 . S
C595 C601 1.404 . S
C596 C589 1.448 . S
C596 C595 1.430 . S
C596 N600 1.351 . S
C597 C595 1.387 . S
C597 C598 1.374 . S
C597 H612 0.931 . S
C598 C592 1.439 . S
C598 C597 1.374 . S
C598 H613 0.931 . S
Eu599 N590 2.600 . S
Eu599 N600 2.562 . S
Eu599 O634 2.335 . S
Eu599 O637 2.372 . S
Eu599 O638 2.462 . S
Eu599 O639 2.373 . S
Eu599 O641 2.432 . S
Eu599 O642 2.291 . S
Eu599 C663 2.787 . S
N600 C596 1.351 . S
N600 Eu599 2.562 . S
N600 C602 1.325 . S
C601 C595 1.404 . S
C601 C603 1.366 . S
C601 H609 0.930 . S
C602 N600 1.325 . S
C602 C603 1.416 . S
C602 H608 0.929 . S
C603 C601 1.366 . S
C603 C602 1.416 . S
C603 H605 0.930 . S
H604 C593 0.930 . S
H605 C603 0.930 . S
H606 C621 0.930 . S
H607 C628 0.930 . S
H608 C602 0.929 . S
H609 C601 0.930 . S
H610 C624 0.929 . S
H611 C591 0.931 . S
H612 C597 0.931 . S
H613 C598 0.931 . S
H614 C619 0.931 . S
H615 C594 0.929 . S
H616 C627 0.930 . S
N617 Eu588 2.600 . S
N617 C618 1.365 . S
N617 C621 1.319 . S
C618 N617 1.365 . S
C618 C620 1.405 . S
C618 C626 1.448 . S
C619 H614 0.931 . S
C619 C621 1.397 . S
C619 C622 1.367 . S
C620 C618 1.405 . S
C620 C622 1.403 . S
C620 C653 1.439 . S
C621 H606 0.930 . S
C621 N617 1.319 . S
C621 C619 1.397 . S
C622 C619 1.367 . S
C622 C620 1.403 . S
C622 H629 0.929 . S
N623 Eu588 2.562 . S
N623 C624 1.325 . S
N623 C626 1.351 . S
C624 H610 0.929 . S
C624 N623 1.325 . S
C624 C628 1.416 . S
C625 C626 1.430 . S
C625 C627 1.404 . S
C625 C654 1.387 . S
C626 C618 1.448 . S
C626 N623 1.351 . S
C626 C625 1.430 . S
C627 H616 0.930 . S
C627 C625 1.404 . S
C627 C628 1.366 . S
C628 H607 0.930 . S
C628 C624 1.416 . S
C628 C627 1.366 . S
H629 C622 0.929 . S
H630 C653 0.931 . S
H631 C654 0.931 . S
O632 Eu588 2.462 . S
O632 C652 1.252 . S
O633 Eu588 2.373 . S
O633 C644 1.249 . S
O634 Eu599 2.335 . S
O634 C644 1.264 . S
O635 Eu588 2.432 . S
O635 C652 1.268 . S
O636 Eu588 2.291 . S
O636 C651 1.255 . S
O637 Eu599 2.372 . S
O637 C651 1.257 . S
O638 Eu599 2.462 . S
O638 C663 1.252 . S
O639 Eu599 2.373 . S
O639 C655 1.249 . S
O640 Eu588 2.335 . S
O640 C655 1.264 . S
O641 Eu599 2.432 . S
O641 C663 1.268 . S
O642 Eu599 2.291 . S
O642 C662 1.255 . S
O643 Eu588 2.372 . S
O643 C662 1.257 . S
C644 O633 1.249 . S
C644 O634 1.264 . S
C645 C648 1.382 . S
C645 C650 1.390 . S
C645 C652 1.506 . S
C646 C647 1.398 . S
C646 C650 1.392 . S
C647 C646 1.398 . S
C647 C649 1.372 . S
C647 H664 0.931 . S
C648 C645 1.382 . S
C648 C649 1.390 . S
C648 H665 0.931 . S
C649 C647 1.372 . S
C649 C648 1.390 . S
C649 H666 0.929 . S
C650 C645 1.390 . S
C650 C646 1.392 . S
C650 H667 0.930 . S
C651 O636 1.255 . S
C651 O637 1.257 . S
C652 Eu588 2.787 . S
C652 O632 1.252 . S
C652 O635 1.268 . S
C652 C645 1.506 . S
C653 C620 1.439 . S
C653 H630 0.931 . S
C653 C654 1.374 . S
C654 C625 1.387 . S
C654 H631 0.931 . S
C654 C653 1.374 . S
C655 O639 1.249 . S
C655 O640 1.264 . S
C656 C659 1.382 . S
C656 C660 1.390 . S
C656 C663 1.506 . S
C657 C658 1.398 . S
C657 C660 1.392 . S
C658 C657 1.398 . S
C658 C661 1.372 . S
C658 H668 0.931 . S
C659 C656 1.382 . S
C659 C661 1.390 . S
C659 H669 0.931 . S
C660 C656 1.390 . S
C660 C657 1.392 . S
C660 H670 0.930 . S
C661 C658 1.372 . S
C661 C659 1.390 . S
C661 H671 0.929 . S
C662 O642 1.255 . S
C662 O643 1.257 . S
C663 Eu599 2.787 . S
C663 O638 1.252 . S
C663 O641 1.268 . S
C663 C656 1.506 . S
H664 C647 0.931 . S
H665 C648 0.931 . S
H666 C649 0.929 . S
H667 C650 0.930 . S
H668 C658 0.931 . S
H669 C659 0.931 . S
H670 C660 0.930 . S
H671 C661 0.929 . S
Fe672 O673 1.886 1_455 S
Fe672 O676 1.715 . S
Fe672 O681 2.077 1_455 S
Fe672 O686 1.935 . S
Fe672 O692 2.077 1_455 S
Fe672 O701 1.935 . S
O673 Fe672 1.886 1_655 S
O673 Fe675 1.715 1_545 S
Fe674 O676 1.886 . S
Fe674 O677 1.715 1_545 S
Fe674 O684 1.935 1_545 S
Fe674 O685 2.077 . S
Fe674 O691 1.935 1_545 S
Fe674 O700 2.077 . S
Fe675 O673 1.715 1_565 S
Fe675 O678 1.886 . S
Fe675 O682 1.935 1_565 S
Fe675 O687 2.077 . S
Fe675 O693 1.935 1_565 S
Fe675 O697 2.077 . S
O676 Fe672 1.715 . S
O676 Fe674 1.886 . S
O677 Fe674 1.715 1_565 S
O677 Fe679 1.886 1_455 S
O678 Fe675 1.886 . S
O678 Fe679 1.715 . S
Fe679 O677 1.886 1_655 S
Fe679 O678 1.715 . S
Fe679 O683 2.077 1_655 S
Fe679 O688 1.935 . S
Fe679 O690 2.077 1_655 S
Fe679 O698 1.935 . S
C680 O692 1.381 . S
C680 O693 1.421 . S
O681 Fe672 2.077 1_655 S
O681 C694 1.381 . S
O682 Fe675 1.935 1_545 S
O682 C694 1.421 . S
O683 Fe679 2.077 1_455 S
O683 C699 1.381 . S
O684 Fe674 1.935 1_565 S
O684 C699 1.421 . S
O685 Fe674 2.077 . S
O685 C689 1.381 . S
O686 Fe672 1.935 . S
O686 C689 1.421 . S
O687 Fe675 2.077 . S
O687 C695 1.381 . S
O688 Fe679 1.935 . S
O688 C695 1.421 . S
C689 O685 1.381 . S
C689 O686 1.421 . S
O690 Fe679 2.077 1_455 S
O690 C702 1.381 . S
O691 Fe674 1.935 1_565 S
O691 C702 1.421 . S
O692 Fe672 2.077 1_655 S
O692 C680 1.381 . S
O693 Fe675 1.935 1_545 S
O693 C680 1.421 . S
C694 O681 1.381 . S
C694 O682 1.421 . S
C695 O687 1.381 . S
C695 O688 1.421 . S
C696 O697 1.381 . S
C696 O698 1.421 . S
O697 Fe675 2.077 . S
O697 C696 1.381 . S
O698 Fe679 1.935 . S
O698 C696 1.421 . S
C699 O683 1.381 . S
C699 O684 1.421 . S
O700 Fe674 2.077 . S
O700 C703 1.381 . S
O701 Fe672 1.935 . S
O701 C703 1.421 . S
C702 O690 1.381 . S
C702 O691 1.421 . S
C703 O700 1.381 . S
C703 O701 1.421 . S
Fe704 O705 1.886 . S
Fe704 O708 1.715 . S
Fe704 O713 2.077 . S
Fe704 O718 1.935 . S
Fe704 O724 2.077 1_556 S
Fe704 O733 1.935 1_556 S
O705 Fe704 1.886 . S
O705 Fe707 1.715 1_565 S
Fe706 O708 1.886 1_554 S
Fe706 O709 1.715 1_565 S
Fe706 O716 1.935 1_564 S
Fe706 O717 2.077 1_554 S
Fe706 O723 1.935 1_565 S
Fe706 O732 2.077 . S
Fe707 O705 1.715 1_545 S
Fe707 O710 1.887 1_556 S
Fe707 O714 1.935 1_545 S
Fe707 O719 2.077 . S
Fe707 O725 1.935 1_546 S
Fe707 O729 2.077 1_556 S
O708 Fe704 1.715 . S
O708 Fe706 1.886 1_556 S
O709 Fe706 1.715 1_545 S
O709 Fe711 1.886 . S
O710 Fe707 1.887 1_554 S
O710 Fe711 1.714 . S
Fe711 O709 1.886 . S
Fe711 O710 1.714 . S
Fe711 O715 2.077 1_554 S
Fe711 O720 1.935 1_554 S
Fe711 O722 2.077 . S
Fe711 O730 1.935 . S
C712 O724 1.381 . S
C712 O725 1.421 . S
O713 Fe704 2.077 . S
O713 C726 1.381 . S
O714 Fe707 1.935 1_565 S
O714 C726 1.421 . S
O715 Fe711 2.077 1_556 S
O715 C731 1.381 . S
O716 Fe706 1.935 1_546 S
O716 C731 1.421 . S
O717 Fe706 2.077 1_556 S
O717 C721 1.381 . S
O718 Fe704 1.935 . S
O718 C721 1.421 . S
O719 Fe707 2.077 . S
O719 C727 1.381 . S
O720 Fe711 1.935 1_556 S
O720 C727 1.421 . S
C721 O717 1.381 . S
C721 O718 1.421 . S
O722 Fe711 2.077 . S
O722 C734 1.381 . S
O723 Fe706 1.935 1_545 S
O723 C734 1.421 . S
O724 Fe704 2.077 1_554 S
O724 C712 1.381 . S
O725 Fe707 1.935 1_564 S
O725 C712 1.421 . S
C726 O713 1.381 . S
C726 O714 1.421 . S
C727 O719 1.381 . S
C727 O720 1.421 . S
C728 O729 1.381 . S
C728 O730 1.421 . S
O729 Fe707 2.077 1_554 S
O729 C728 1.381 . S
O730 Fe711 1.935 . S
O730 C728 1.421 . S
C731 O715 1.381 . S
C731 O716 1.421 . S
O732 Fe706 2.077 . S
O732 C735 1.381 . S
O733 Fe704 1.935 1_554 S
O733 C735 1.421 . S
C734 O722 1.381 . S
C734 O723 1.421 . S
C735 O732 1.381 . S
C735 O733 1.421 . S
Fe736 O737 1.886 1_455 S
Fe736 O740 1.714 . S
Fe736 O745 2.077 1_454 S
Fe736 O750 1.935 1_554 S
Fe736 O756 2.077 1_455 S
Fe736 O765 1.935 . S
O737 Fe736 1.886 1_655 S
O737 Fe739 1.715 . S
Fe738 O740 1.887 1_556 S
Fe738 O741 1.715 . S
Fe738 O748 1.935 . S
Fe738 O749 2.077 . S
Fe738 O755 1.935 1_556 S
Fe738 O764 2.077 1_556 S
Fe739 O737 1.715 . S
Fe739 O742 1.886 1_554 S
Fe739 O746 1.935 1_554 S
Fe739 O751 2.077 1_554 S
Fe739 O757 1.935 . S
Fe739 O761 2.077 . S
O740 Fe736 1.714 . S
O740 Fe738 1.887 1_554 S
O741 Fe738 1.715 . S
O741 Fe743 1.886 1_455 S
O742 Fe739 1.886 1_556 S
O742 Fe743 1.715 . S
Fe743 O741 1.886 1_655 S
Fe743 O742 1.715 . S
Fe743 O747 2.077 1_655 S
Fe743 O752 1.935 . S
Fe743 O754 2.077 1_656 S
Fe743 O762 1.935 1_556 S
C744 O756 1.381 . S
C744 O757 1.421 . S
O745 Fe736 2.077 1_656 S
O745 C758 1.381 . S
O746 Fe739 1.935 1_556 S
O746 C758 1.421 . S
O747 Fe743 2.077 1_455 S
O747 C763 1.381 . S
O748 Fe738 1.935 . S
O748 C763 1.421 . S
O749 Fe738 2.077 . S
O749 C753 1.381 . S
O750 Fe736 1.935 1_556 S
O750 C753 1.421 . S
O751 Fe739 2.077 1_556 S
O751 C759 1.381 . S
O752 Fe743 1.935 . S
O752 C759 1.421 . S
C753 O749 1.381 . S
C753 O750 1.421 . S
O754 Fe743 2.077 1_454 S
O754 C766 1.381 . S
O755 Fe738 1.935 1_554 S
O755 C766 1.421 . S
O756 Fe736 2.077 1_655 S
O756 C744 1.381 . S
O757 Fe739 1.935 . S
O757 C744 1.421 . S
C758 O745 1.381 . S
C758 O746 1.421 . S
C759 O751 1.381 . S
C759 O752 1.421 . S
C760 O761 1.381 . S
C760 O762 1.421 . S
O761 Fe739 2.077 . S
O761 C760 1.381 . S
O762 Fe743 1.935 1_554 S
O762 C760 1.421 . S
C763 O747 1.381 . S
C763 O748 1.421 . S
O764 Fe738 2.077 1_554 S
O764 C767 1.381 . S
O765 Fe736 1.935 . S
O765 C767 1.421 . S
C766 O754 1.381 . S
C766 O755 1.421 . S
C767 O764 1.381 . S
C767 O765 1.421 . S
Fe768 O769 1.886 . S
Fe768 O772 1.715 . S
Fe768 O777 2.077 . S
Fe768 O782 1.935 . S
Fe768 O788 2.077 . S
Fe768 O797 1.935 . S
O769 Fe768 1.886 . S
O769 Fe771 1.715 . S
Fe770 O772 1.886 1_554 S
Fe770 O773 1.715 . S
Fe770 O780 1.935 . S
Fe770 O781 2.077 1_554 S
Fe770 O787 1.935 . S
Fe770 O796 2.077 1_554 S
Fe771 O769 1.715 . S
Fe771 O774 1.886 1_556 S
Fe771 O778 1.935 . S
Fe771 O783 2.077 1_556 S
Fe771 O789 1.935 . S
Fe771 O793 2.077 1_556 S
O772 Fe768 1.715 . S
O772 Fe770 1.886 1_556 S
O773 Fe770 1.715 . S
O773 Fe775 1.886 . S
O774 Fe771 1.886 1_554 S
O774 Fe775 1.715 . S
Fe775 O773 1.886 . S
Fe775 O774 1.715 . S
Fe775 O779 2.077 . S
Fe775 O784 1.935 . S
Fe775 O786 2.077 . S
Fe775 O794 1.935 . S
C776 O788 1.381 . S
C776 O789 1.421 . S
O777 Fe768 2.077 . S
O777 C790 1.381 . S
O778 Fe771 1.935 . S
O778 C790 1.421 . S
O779 Fe775 2.077 . S
O779 C795 1.381 . S
O780 Fe770 1.935 . S
O780 C795 1.421 . S
O781 Fe770 2.077 1_556 S
O781 C785 1.381 . S
O782 Fe768 1.935 . S
O782 C785 1.421 . S
O783 Fe771 2.077 1_554 S
O783 C791 1.381 . S
O784 Fe775 1.935 . S
O784 C791 1.421 . S
C785 O781 1.381 . S
C785 O782 1.421 . S
O786 Fe775 2.077 . S
O786 C798 1.381 . S
O787 Fe770 1.935 . S
O787 C798 1.421 . S
O788 Fe768 2.077 . S
O788 C776 1.381 . S
O789 Fe771 1.935 . S
O789 C776 1.421 . S
C790 O777 1.381 . S
C790 O778 1.421 . S
C791 O783 1.381 . S
C791 O784 1.421 . S
C792 O793 1.381 . S
C792 O794 1.421 . S
O793 Fe771 2.077 1_554 S
O793 C792 1.381 . S
O794 Fe775 1.935 . S
O794 C792 1.421 . S
C795 O779 1.381 . S
C795 O780 1.421 . S
O796 Fe770 2.077 1_556 S
O796 C799 1.381 . S
O797 Fe768 1.935 . S
O797 C799 1.421 . S
C798 O786 1.381 . S
C798 O787 1.421 . S
C799 O796 1.381 . S
C799 O797 1.421 . S
Fe800 O801 1.886 . S
Fe800 O804 1.715 . S
Fe800 O809 2.077 1_655 S
Fe800 O814 1.935 1_655 S
Fe800 O820 2.077 . S
Fe800 O829 1.935 . S
O801 Fe800 1.886 . S
O801 Fe803 1.715 . S
Fe802 O804 1.886 1_455 S
Fe802 O805 1.715 . S
Fe802 O812 1.935 . S
Fe802 O813 2.077 . S
Fe802 O819 1.935 1_455 S
Fe802 O828 2.077 1_455 S
Fe803 O801 1.715 . S
Fe803 O806 1.886 1_655 S
Fe803 O810 1.935 1_655 S
Fe803 O815 2.077 1_655 S
Fe803 O821 1.935 . S
Fe803 O825 2.077 . S
O804 Fe800 1.715 . S
O804 Fe802 1.886 1_655 S
O805 Fe802 1.715 . S
O805 Fe807 1.886 . S
O806 Fe803 1.886 1_455 S
O806 Fe807 1.715 . S
Fe807 O805 1.886 . S
Fe807 O806 1.715 . S
Fe807 O811 2.077 . S
Fe807 O816 1.935 . S
Fe807 O818 2.077 1_455 S
Fe807 O826 1.935 1_455 S
C808 O820 1.381 . S
C808 O821 1.421 . S
O809 Fe800 2.077 1_455 S
O809 C822 1.381 . S
O810 Fe803 1.935 1_455 S
O810 C822 1.421 . S
O811 Fe807 2.077 . S
O811 C827 1.381 . S
O812 Fe802 1.935 . S
O812 C827 1.421 . S
O813 Fe802 2.077 . S
O813 C817 1.381 . S
O814 Fe800 1.935 1_455 S
O814 C817 1.421 . S
O815 Fe803 2.077 1_455 S
O815 C823 1.381 . S
O816 Fe807 1.935 . S
O816 C823 1.421 . S
C817 O813 1.381 . S
C817 O814 1.421 . S
O818 Fe807 2.077 1_655 S
O818 C830 1.381 . S
O819 Fe802 1.935 1_655 S
O819 C830 1.421 . S
O820 Fe800 2.077 . S
O820 C808 1.381 . S
O821 Fe803 1.935 . S
O821 C808 1.421 . S
C822 O809 1.381 . S
C822 O810 1.421 . S
C823 O815 1.381 . S
C823 O816 1.421 . S
C824 O825 1.381 . S
C824 O826 1.421 . S
O825 Fe803 2.077 . S
O825 C824 1.381 . S
O826 Fe807 1.935 1_655 S
O826 C824 1.421 . S
C827 O811 1.381 . S
C827 O812 1.421 . S
O828 Fe802 2.077 1_655 S
O828 C831 1.381 . S
O829 Fe800 1.935 . S
O829 C831 1.421 . S
C830 O818 1.381 . S
C830 O819 1.421 . S
C831 O828 1.381 . S
C831 O829 1.421 . S
Fe832 O833 1.886 . S
Fe832 O836 1.715 . S
Fe832 O841 2.077 . S
Fe832 O846 1.935 . S
Fe832 O852 2.077 . S
Fe832 O861 1.935 . S
O833 Fe832 1.886 . S
O833 Fe835 1.715 1_565 S
Fe834 O836 1.886 . S
Fe834 O837 1.715 1_565 S
Fe834 O844 1.935 1_565 S
Fe834 O845 2.077 . S
Fe834 O851 1.935 1_565 S
Fe834 O860 2.077 . S
Fe835 O833 1.715 1_545 S
Fe835 O838 1.886 . S
Fe835 O842 1.935 1_545 S
Fe835 O847 2.077 . S
Fe835 O853 1.935 1_545 S
Fe835 O857 2.077 . S
O836 Fe832 1.715 . S
O836 Fe834 1.886 . S
O837 Fe834 1.715 1_545 S
O837 Fe839 1.886 . S
O838 Fe835 1.886 . S
O838 Fe839 1.715 . S
Fe839 O837 1.886 . S
Fe839 O838 1.715 . S
Fe839 O843 2.077 . S
Fe839 O848 1.935 . S
Fe839 O850 2.077 . S
Fe839 O858 1.935 . S
C840 O852 1.381 . S
C840 O853 1.421 . S
O841 Fe832 2.077 . S
O841 C854 1.381 . S
O842 Fe835 1.935 1_565 S
O842 C854 1.421 . S
O843 Fe839 2.077 . S
O843 C859 1.381 . S
O844 Fe834 1.935 1_545 S
O844 C859 1.421 . S
O845 Fe834 2.077 . S
O845 C849 1.381 . S
O846 Fe832 1.935 . S
O846 C849 1.421 . S
O847 Fe835 2.077 . S
O847 C855 1.381 . S
O848 Fe839 1.935 . S
O848 C855 1.421 . S
C849 O845 1.381 . S
C849 O846 1.421 . S
O850 Fe839 2.077 . S
O850 C862 1.381 . S
O851 Fe834 1.935 1_545 S
O851 C862 1.421 . S
O852 Fe832 2.077 . S
O852 C840 1.381 . S
O853 Fe835 1.935 1_565 S
O853 C840 1.421 . S
C854 O841 1.381 . S
C854 O842 1.421 . S
C855 O847 1.381 . S
C855 O848 1.421 . S
C856 O857 1.381 . S
C856 O858 1.421 . S
O857 Fe835 2.077 . S
O857 C856 1.381 . S
O858 Fe839 1.935 . S
O858 C856 1.421 . S
C859 O843 1.381 . S
C859 O844 1.421 . S
O860 Fe834 2.077 . S
O860 C863 1.381 . S
O861 Fe832 1.935 . S
O861 C863 1.421 . S
C862 O850 1.381 . S
C862 O851 1.421 . S
C863 O860 1.381 . S
C863 O861 1.421 . S
C864 C865 1.391 . S
C864 C866 1.394 . S
C864 H880 0.931 . S
C865 C864 1.391 . S
C865 C869 1.376 . S
C866 C864 1.394 . S
C866 C867 1.369 . S
C866 C870 1.531 . S
C867 C866 1.369 . S
C867 C868 1.410 . S
C867 C875 1.503 . S
C868 C867 1.410 . S
C868 C869 1.392 . S
C868 C871 1.511 . S
C869 C865 1.376 . S
C869 C868 1.392 . S
C869 H881 0.929 . S
C870 C866 1.531 . S
C870 H882 0.960 . S
C870 H883 0.962 . S
C870 H884 0.960 . S
C871 C868 1.511 . S
C871 H885 0.961 . S
C871 H886 0.961 . S
C871 H887 0.961 . S
C872 C873 1.370 . S
C872 C874 1.363 . S
C872 H888 0.931 . S
C873 C872 1.370 . S
C873 C877 1.408 . S
C874 C872 1.363 . S
C874 C875 1.370 . S
C874 C878 1.524 . S
C875 C867 1.503 . S
C875 C874 1.370 . S
C875 C876 1.403 . S
C876 C875 1.403 . S
C876 C877 1.404 . S
C876 C879 1.539 . S
C877 C873 1.408 . S
C877 C876 1.404 . S
C877 H889 0.930 . S
C878 C874 1.524 . S
C878 H890 0.956 . S
C878 H891 0.961 . S
C878 H892 0.961 . S
C879 C876 1.539 . S
C879 H893 0.958 . S
C879 H894 0.961 . S
C879 H895 0.960 . S
H880 C864 0.931 . S
H881 C869 0.929 . S
H882 C870 0.960 . S
H883 C870 0.962 . S
H884 C870 0.960 . S
H885 C871 0.961 . S
H886 C871 0.961 . S
H887 C871 0.961 . S
H888 C872 0.931 . S
H889 C877 0.930 . S
H890 C878 0.956 . S
H891 C878 0.961 . S
H892 C878 0.961 . S
H893 C879 0.958 . S
H894 C879 0.961 . S
H895 C879 0.960 . S
C896 C897 1.391 . S
C896 C898 1.394 . S
C896 H912 0.931 . S
C897 C896 1.391 . S
C897 C901 1.376 . S
C898 C896 1.394 . S
C898 C899 1.369 . S
C898 C902 1.531 . S
C899 C898 1.369 . S
C899 C900 1.410 . S
C899 C907 1.503 . S
C900 C899 1.410 . S
C900 C901 1.392 . S
C900 C903 1.511 . S
C901 C897 1.376 . S
C901 C900 1.392 . S
C901 H913 0.929 . S
C902 C898 1.531 . S
C902 H914 0.960 . S
C902 H915 0.962 . S
C902 H916 0.960 . S
C903 C900 1.511 . S
C903 H917 0.961 . S
C903 H918 0.961 . S
C903 H919 0.961 . S
C904 C905 1.370 . S
C904 C906 1.363 . S
C904 H920 0.931 . S
C905 C904 1.370 . S
C905 C909 1.408 . S
C906 C904 1.363 . S
C906 C907 1.370 . S
C906 C910 1.524 . S
C907 C899 1.503 . S
C907 C906 1.370 . S
C907 C908 1.403 . S
C908 C907 1.403 . S
C908 C909 1.404 . S
C908 C911 1.539 . S
C909 C905 1.408 . S
C909 C908 1.404 . S
C909 H921 0.930 . S
C910 C906 1.524 . S
C910 H922 0.956 . S
C910 H923 0.961 . S
C910 H924 0.961 . S
C911 C908 1.539 . S
C911 H925 0.958 . S
C911 H926 0.961 . S
C911 H927 0.960 . S
H912 C896 0.931 . S
H913 C901 0.929 . S
H914 C902 0.960 . S
H915 C902 0.962 . S
H916 C902 0.960 . S
H917 C903 0.961 . S
H918 C903 0.961 . S
H919 C903 0.961 . S
H920 C904 0.931 . S
H921 C909 0.930 . S
H922 C910 0.956 . S
H923 C910 0.961 . S
H924 C910 0.961 . S
H925 C911 0.958 . S
H926 C911 0.961 . S
H927 C911 0.960 . S
C928 C929 1.391 . S
C928 C930 1.394 . S
C928 H944 0.931 . S
C929 C928 1.391 . S
C929 C933 1.376 . S
C930 C928 1.394 . S
C930 C931 1.369 . S
C930 C934 1.531 . S
C931 C930 1.369 . S
C931 C932 1.410 . S
C931 C939 1.503 . S
C932 C931 1.410 . S
C932 C933 1.392 . S
C932 C935 1.511 . S
C933 C929 1.376 . S
C933 C932 1.392 . S
C933 H945 0.929 . S
C934 C930 1.531 . S
C934 H946 0.960 . S
C934 H947 0.962 . S
C934 H948 0.960 . S
C935 C932 1.511 . S
C935 H949 0.961 . S
C935 H950 0.961 . S
C935 H951 0.961 . S
C936 C937 1.370 . S
C936 C938 1.363 . S
C936 H952 0.931 . S
C937 C936 1.370 . S
C937 C941 1.408 . S
C938 C936 1.363 . S
C938 C939 1.370 . S
C938 C942 1.524 . S
C939 C931 1.503 . S
C939 C938 1.370 . S
C939 C940 1.403 . S
C940 C939 1.403 . S
C940 C941 1.404 . S
C940 C943 1.539 . S
C941 C937 1.408 . S
C941 C940 1.404 . S
C941 H953 0.930 . S
C942 C938 1.524 . S
C942 H954 0.956 . S
C942 H955 0.961 . S
C942 H956 0.961 . S
C943 C940 1.539 . S
C943 H957 0.958 . S
C943 H958 0.961 . S
C943 H959 0.960 . S
H944 C928 0.931 . S
H945 C933 0.929 . S
H946 C934 0.960 . S
H947 C934 0.962 . S
H948 C934 0.960 . S
H949 C935 0.961 . S
H950 C935 0.961 . S
H951 C935 0.961 . S
H952 C936 0.931 . S
H953 C941 0.930 . S
H954 C942 0.956 . S
H955 C942 0.961 . S
H956 C942 0.961 . S
H957 C943 0.958 . S
H958 C943 0.961 . S
H959 C943 0.960 . S
C960 C961 1.391 . S
C960 C962 1.394 . S
C960 H976 0.931 . S
C961 C960 1.391 . S
C961 C965 1.376 . S
C962 C960 1.394 . S
C962 C963 1.369 . S
C962 C966 1.531 . S
C963 C962 1.369 . S
C963 C964 1.410 . S
C963 C971 1.503 . S
C964 C963 1.410 . S
C964 C965 1.392 . S
C964 C967 1.511 . S
C965 C961 1.376 . S
C965 C964 1.392 . S
C965 H977 0.929 . S
C966 C962 1.531 . S
C966 H978 0.960 . S
C966 H979 0.962 . S
C966 H980 0.960 . S
C967 C964 1.511 . S
C967 H981 0.961 . S
C967 H982 0.961 . S
C967 H983 0.961 . S
C968 C969 1.370 . S
C968 C970 1.363 . S
C968 H984 0.931 . S
C969 C968 1.370 . S
C969 C973 1.408 . S
C970 C968 1.363 . S
C970 C971 1.370 . S
C970 C974 1.524 . S
C971 C963 1.503 . S
C971 C970 1.370 . S
C971 C972 1.403 . S
C972 C971 1.403 . S
C972 C973 1.404 . S
C972 C975 1.539 . S
C973 C969 1.408 . S
C973 C972 1.404 . S
C973 H985 0.930 . S
C974 C970 1.524 . S
C974 H986 0.956 . S
C974 H987 0.961 . S
C974 H988 0.961 . S
C975 C972 1.539 . S
C975 H989 0.958 . S
C975 H990 0.961 . S
C975 H991 0.960 . S
H976 C960 0.931 . S
H977 C965 0.929 . S
H978 C966 0.960 . S
H979 C966 0.962 . S
H980 C966 0.960 . S
H981 C967 0.961 . S
H982 C967 0.961 . S
H983 C967 0.961 . S
H984 C968 0.931 . S
H985 C973 0.930 . S
H986 C974 0.956 . S
H987 C974 0.961 . S
H988 C974 0.961 . S
H989 C975 0.958 . S
H990 C975 0.961 . S
H991 C975 0.960 . S
C992 C993 1.391 . S
C992 C994 1.394 . S
C992 H1008 0.931 . S
C993 C992 1.391 . S
C993 C997 1.376 . S
C994 C992 1.394 . S
C994 C995 1.369 . S
C994 C998 1.531 . S
C995 C994 1.369 . S
C995 C996 1.410 . S
C995 C1003 1.503 . S
C996 C995 1.410 . S
C996 C997 1.392 . S
C996 C999 1.511 . S
C997 C993 1.376 . S
C997 C996 1.392 . S
C997 H1009 0.929 . S
C998 C994 1.531 . S
C998 H1010 0.960 . S
C998 H1011 0.962 . S
C998 H1012 0.960 . S
C999 C996 1.511 . S
C999 H1013 0.961 . S
C999 H1014 0.961 . S
C999 H1015 0.961 . S
C1000 C1001 1.370 . S
C1000 C1002 1.363 . S
C1000 H1016 0.931 . S
C1001 C1000 1.370 . S
C1001 C1005 1.408 . S
C1002 C1000 1.363 . S
C1002 C1003 1.370 . S
C1002 C1006 1.524 . S
C1003 C995 1.503 . S
C1003 C1002 1.370 . S
C1003 C1004 1.403 . S
C1004 C1003 1.403 . S
C1004 C1005 1.404 . S
C1004 C1007 1.539 . S
C1005 C1001 1.408 . S
C1005 C1004 1.404 . S
C1005 H1017 0.930 . S
C1006 C1002 1.524 . S
C1006 H1018 0.956 . S
C1006 H1019 0.961 . S
C1006 H1020 0.961 . S
C1007 C1004 1.539 . S
C1007 H1021 0.958 . S
C1007 H1022 0.961 . S
C1007 H1023 0.960 . S
H1008 C992 0.931 . S
H1009 C997 0.929 . S
H1010 C998 0.960 . S
H1011 C998 0.962 . S
H1012 C998 0.960 . S
H1013 C999 0.961 . S
H1014 C999 0.961 . S
H1015 C999 0.961 . S
H1016 C1000 0.931 . S
H1017 C1005 0.930 . S
H1018 C1006 0.956 . S
H1019 C1006 0.961 . S
H1020 C1006 0.961 . S
H1021 C1007 0.958 . S
H1022 C1007 0.961 . S
H1023 C1007 0.960 . S
C1024 C1025 1.391 . S
C1024 C1026 1.394 . S
C1024 H1040 0.931 . S
C1025 C1024 1.391 . S
C1025 C1029 1.376 . S
C1026 C1024 1.394 . S
C1026 C1027 1.369 . S
C1026 C1030 1.531 . S
C1027 C1026 1.369 . S
C1027 C1028 1.410 . S
C1027 C1035 1.503 . S
C1028 C1027 1.410 . S
C1028 C1029 1.392 . S
C1028 C1031 1.511 . S
C1029 C1025 1.376 . S
C1029 C1028 1.392 . S
C1029 H1041 0.929 . S
C1030 C1026 1.531 . S
C1030 H1042 0.960 . S
C1030 H1043 0.962 . S
C1030 H1044 0.960 . S
C1031 C1028 1.511 . S
C1031 H1045 0.961 . S
C1031 H1046 0.961 . S
C1031 H1047 0.961 . S
C1032 C1033 1.370 . S
C1032 C1034 1.363 . S
C1032 H1048 0.931 . S
C1033 C1032 1.370 . S
C1033 C1037 1.408 . S
C1034 C1032 1.363 . S
C1034 C1035 1.370 . S
C1034 C1038 1.524 . S
C1035 C1027 1.503 . S
C1035 C1034 1.370 . S
C1035 C1036 1.403 . S
C1036 C1035 1.403 . S
C1036 C1037 1.404 . S
C1036 C1039 1.539 . S
C1037 C1033 1.408 . S
C1037 C1036 1.404 . S
C1037 H1049 0.930 . S
C1038 C1034 1.524 . S
C1038 H1050 0.956 . S
C1038 H1051 0.961 . S
C1038 H1052 0.961 . S
C1039 C1036 1.539 . S
C1039 H1053 0.958 . S
C1039 H1054 0.961 . S
C1039 H1055 0.960 . S
H1040 C1024 0.931 . S
H1041 C1029 0.929 . S
H1042 C1030 0.960 . S
H1043 C1030 0.962 . S
H1044 C1030 0.960 . S
H1045 C1031 0.961 . S
H1046 C1031 0.961 . S
H1047 C1031 0.961 . S
H1048 C1032 0.931 . S
H1049 C1037 0.930 . S
H1050 C1038 0.956 . S
H1051 C1038 0.961 . S
H1052 C1038 0.961 . S
H1053 C1039 0.958 . S
H1054 C1039 0.961 . S
H1055 C1039 0.960 . S
C1056 C1057 1.391 . S
C1056 C1058 1.394 . S
C1056 H1072 0.931 . S
C1057 C1056 1.391 . S
C1057 C1061 1.376 . S
C1058 C1056 1.394 . S
C1058 C1059 1.369 . S
C1058 C1062 1.531 . S
C1059 C1058 1.369 . S
C1059 C1060 1.410 . S
C1059 C1067 1.503 . S
C1060 C1059 1.410 . S
C1060 C1061 1.392 . S
C1060 C1063 1.511 . S
C1061 C1057 1.376 . S
C1061 C1060 1.392 . S
C1061 H1073 0.929 . S
C1062 C1058 1.531 . S
C1062 H1074 0.960 . S
C1062 H1075 0.962 . S
C1062 H1076 0.960 . S
C1063 C1060 1.511 . S
C1063 H1077 0.961 . S
C1063 H1078 0.961 . S
C1063 H1079 0.961 . S
C1064 C1065 1.370 . S
C1064 C1066 1.363 . S
C1064 H1080 0.931 . S
C1065 C1064 1.370 . S
C1065 C1069 1.408 . S
C1066 C1064 1.363 . S
C1066 C1067 1.370 . S
C1066 C1070 1.524 . S
C1067 C1059 1.503 . S
C1067 C1066 1.370 . S
C1067 C1068 1.403 . S
C1068 C1067 1.403 . S
C1068 C1069 1.404 . S
C1068 C1071 1.539 . S
C1069 C1065 1.408 . S
C1069 C1068 1.404 . S
C1069 H1081 0.930 . S
C1070 C1066 1.524 . S
C1070 H1082 0.956 . S
C1070 H1083 0.961 . S
C1070 H1084 0.961 . S
C1071 C1068 1.539 . S
C1071 H1085 0.958 . S
C1071 H1086 0.961 . S
C1071 H1087 0.960 . S
H1072 C1056 0.931 . S
H1073 C1061 0.929 . S
H1074 C1062 0.960 . S
H1075 C1062 0.962 . S
H1076 C1062 0.960 . S
H1077 C1063 0.961 . S
H1078 C1063 0.961 . S
H1079 C1063 0.961 . S
H1080 C1064 0.931 . S
H1081 C1069 0.930 . S
H1082 C1070 0.956 . S
H1083 C1070 0.961 . S
H1084 C1070 0.961 . S
H1085 C1071 0.958 . S
H1086 C1071 0.961 . S
H1087 C1071 0.960 . S
C1088 C1089 1.391 . S
C1088 C1090 1.394 . S
C1088 H1104 0.931 . S
C1089 C1088 1.391 . S
C1089 C1093 1.376 . S
C1090 C1088 1.394 . S
C1090 C1091 1.369 . S
C1090 C1094 1.531 . S
C1091 C1090 1.369 . S
C1091 C1092 1.410 . S
C1091 C1099 1.503 . S
C1092 C1091 1.410 . S
C1092 C1093 1.392 . S
C1092 C1095 1.511 . S
C1093 C1089 1.376 . S
C1093 C1092 1.392 . S
C1093 H1105 0.929 . S
C1094 C1090 1.531 . S
C1094 H1106 0.960 . S
C1094 H1107 0.962 . S
C1094 H1108 0.960 . S
C1095 C1092 1.511 . S
C1095 H1109 0.961 . S
C1095 H1110 0.961 . S
C1095 H1111 0.961 . S
C1096 C1097 1.370 . S
C1096 C1098 1.363 . S
C1096 H1112 0.931 . S
C1097 C1096 1.370 . S
C1097 C1101 1.408 . S
C1098 C1096 1.363 . S
C1098 C1099 1.370 . S
C1098 C1102 1.524 . S
C1099 C1091 1.503 . S
C1099 C1098 1.370 . S
C1099 C1100 1.403 . S
C1100 C1099 1.403 . S
C1100 C1101 1.404 . S
C1100 C1103 1.539 . S
C1101 C1097 1.408 . S
C1101 C1100 1.404 . S
C1101 H1113 0.930 . S
C1102 C1098 1.524 . S
C1102 H1114 0.956 . S
C1102 H1115 0.961 . S
C1102 H1116 0.961 . S
C1103 C1100 1.539 . S
C1103 H1117 0.958 . S
C1103 H1118 0.961 . S
C1103 H1119 0.960 . S
H1104 C1088 0.931 . S
H1105 C1093 0.929 . S
H1106 C1094 0.960 . S
H1107 C1094 0.962 . S
H1108 C1094 0.960 . S
H1109 C1095 0.961 . S
H1110 C1095 0.961 . S
H1111 C1095 0.961 . S
H1112 C1096 0.931 . S
H1113 C1101 0.930 . S
H1114 C1102 0.956 . S
H1115 C1102 0.961 . S
H1116 C1102 0.961 . S
H1117 C1103 0.958 . S
H1118 C1103 0.961 . S
H1119 C1103 0.960 . S
C1120 C1121 1.391 . S
C1120 C1122 1.394 . S
C1120 H1136 0.931 . S
C1121 C1120 1.391 . S
C1121 C1125 1.376 . S
C1122 C1120 1.394 . S
C1122 C1123 1.369 . S
C1122 C1126 1.531 . S
C1123 C1122 1.369 . S
C1123 C1124 1.410 . S
C1123 C1131 1.503 . S
C1124 C1123 1.410 . S
C1124 C1125 1.392 . S
C1124 C1127 1.511 . S
C1125 C1121 1.376 . S
C1125 C1124 1.392 . S
C1125 H1137 0.929 . S
C1126 C1122 1.531 . S
C1126 H1138 0.960 . S
C1126 H1139 0.962 . S
C1126 H1140 0.960 . S
C1127 C1124 1.511 . S
C1127 H1141 0.961 . S
C1127 H1142 0.961 . S
C1127 H1143 0.961 . S
C1128 C1129 1.370 . S
C1128 C1130 1.363 . S
C1128 H1144 0.931 . S
C1129 C1128 1.370 . S
C1129 C1133 1.408 . S
C1130 C1128 1.363 . S
C1130 C1131 1.370 . S
C1130 C1134 1.524 . S
C1131 C1123 1.503 . S
C1131 C1130 1.370 . S
C1131 C1132 1.403 . S
C1132 C1131 1.403 . S
C1132 C1133 1.404 . S
C1132 C1135 1.539 . S
C1133 C1129 1.408 . S
C1133 C1132 1.404 . S
C1133 H1145 0.930 . S
C1134 C1130 1.524 . S
C1134 H1146 0.956 . S
C1134 H1147 0.961 . S
C1134 H1148 0.961 . S
C1135 C1132 1.539 . S
C1135 H1149 0.958 . S
C1135 H1150 0.961 . S
C1135 H1151 0.960 . S
H1136 C1120 0.931 . S
H1137 C1125 0.929 . S
H1138 C1126 0.960 . S
H1139 C1126 0.962 . S
H1140 C1126 0.960 . S
H1141 C1127 0.961 . S
H1142 C1127 0.961 . S
H1143 C1127 0.961 . S
H1144 C1128 0.931 . S
H1145 C1133 0.930 . S
H1146 C1134 0.956 . S
H1147 C1134 0.961 . S
H1148 C1134 0.961 . S
H1149 C1135 0.958 . S
H1150 C1135 0.961 . S
H1151 C1135 0.960 . S
C1152 C1153 1.391 . S
C1152 C1154 1.394 . S
C1152 H1168 0.931 . S
C1153 C1152 1.391 . S
C1153 C1157 1.376 . S
C1154 C1152 1.394 . S
C1154 C1155 1.369 . S
C1154 C1158 1.531 . S
C1155 C1154 1.369 . S
C1155 C1156 1.410 . S
C1155 C1163 1.503 . S
C1156 C1155 1.410 . S
C1156 C1157 1.392 . S
C1156 C1159 1.511 . S
C1157 C1153 1.376 . S
C1157 C1156 1.392 . S
C1157 H1169 0.929 . S
C1158 C1154 1.531 . S
C1158 H1170 0.960 . S
C1158 H1171 0.962 . S
C1158 H1172 0.960 . S
C1159 C1156 1.511 . S
C1159 H1173 0.961 . S
C1159 H1174 0.961 . S
C1159 H1175 0.961 . S
C1160 C1161 1.370 . S
C1160 C1162 1.363 . S
C1160 H1176 0.931 . S
C1161 C1160 1.370 . S
C1161 C1165 1.408 . S
C1162 C1160 1.363 . S
C1162 C1163 1.370 . S
C1162 C1166 1.524 . S
C1163 C1155 1.503 . S
C1163 C1162 1.370 . S
C1163 C1164 1.403 . S
C1164 C1163 1.403 . S
C1164 C1165 1.404 . S
C1164 C1167 1.539 . S
C1165 C1161 1.408 . S
C1165 C1164 1.404 . S
C1165 H1177 0.930 . S
C1166 C1162 1.524 . S
C1166 H1178 0.956 . S
C1166 H1179 0.961 . S
C1166 H1180 0.961 . S
C1167 C1164 1.539 . S
C1167 H1181 0.958 . S
C1167 H1182 0.961 . S
C1167 H1183 0.960 . S
H1168 C1152 0.931 . S
H1169 C1157 0.929 . S
H1170 C1158 0.960 . S
H1171 C1158 0.962 . S
H1172 C1158 0.960 . S
H1173 C1159 0.961 . S
H1174 C1159 0.961 . S
H1175 C1159 0.961 . S
H1176 C1160 0.931 . S
H1177 C1165 0.930 . S
H1178 C1166 0.956 . S
H1179 C1166 0.961 . S
H1180 C1166 0.961 . S
H1181 C1167 0.958 . S
H1182 C1167 0.961 . S
H1183 C1167 0.960 . S
C1184 C1185 1.391 . S
C1184 C1186 1.394 . S
C1184 H1200 0.931 . S
C1185 C1184 1.391 . S
C1185 C1189 1.376 . S
C1186 C1184 1.394 . S
C1186 C1187 1.369 . S
C1186 C1190 1.531 . S
C1187 C1186 1.369 . S
C1187 C1188 1.410 . S
C1187 C1195 1.503 . S
C1188 C1187 1.410 . S
C1188 C1189 1.392 . S
C1188 C1191 1.511 . S
C1189 C1185 1.376 . S
C1189 C1188 1.392 . S
C1189 H1201 0.929 . S
C1190 C1186 1.531 . S
C1190 H1202 0.960 . S
C1190 H1203 0.962 . S
C1190 H1204 0.960 . S
C1191 C1188 1.511 . S
C1191 H1205 0.961 . S
C1191 H1206 0.961 . S
C1191 H1207 0.961 . S
C1192 C1193 1.370 . S
C1192 C1194 1.363 . S
C1192 H1208 0.931 . S
C1193 C1192 1.370 . S
C1193 C1197 1.408 . S
C1194 C1192 1.363 . S
C1194 C1195 1.370 . S
C1194 C1198 1.524 . S
C1195 C1187 1.503 . S
C1195 C1194 1.370 . S
C1195 C1196 1.403 . S
C1196 C1195 1.403 . S
C1196 C1197 1.404 . S
C1196 C1199 1.539 . S
C1197 C1193 1.408 . S
C1197 C1196 1.404 . S
C1197 H1209 0.930 . S
C1198 C1194 1.524 . S
C1198 H1210 0.956 . S
C1198 H1211 0.961 . S
C1198 H1212 0.961 . S
C1199 C1196 1.539 . S
C1199 H1213 0.958 . S
C1199 H1214 0.961 . S
C1199 H1215 0.960 . S
H1200 C1184 0.931 . S
H1201 C1189 0.929 . S
H1202 C1190 0.960 . S
H1203 C1190 0.962 . S
H1204 C1190 0.960 . S
H1205 C1191 0.961 . S
H1206 C1191 0.961 . S
H1207 C1191 0.961 . S
H1208 C1192 0.931 . S
H1209 C1197 0.930 . S
H1210 C1198 0.956 . S
H1211 C1198 0.961 . S
H1212 C1198 0.961 . S
H1213 C1199 0.958 . S
H1214 C1199 0.961 . S
H1215 C1199 0.960 . S
C1216 C1217 1.391 . S
C1216 C1218 1.394 . S
C1216 H1232 0.931 . S
C1217 C1216 1.391 . S
C1217 C1221 1.376 . S
C1218 C1216 1.394 . S
C1218 C1219 1.369 . S
C1218 C1222 1.531 . S
C1219 C1218 1.369 . S
C1219 C1220 1.410 . S
C1219 C1227 1.503 . S
C1220 C1219 1.410 . S
C1220 C1221 1.392 . S
C1220 C1223 1.511 . S
C1221 C1217 1.376 . S
C1221 C1220 1.392 . S
C1221 H1233 0.929 . S
C1222 C1218 1.531 . S
C1222 H1234 0.960 . S
C1222 H1235 0.962 . S
C1222 H1236 0.960 . S
C1223 C1220 1.511 . S
C1223 H1237 0.961 . S
C1223 H1238 0.961 . S
C1223 H1239 0.961 . S
C1224 C1225 1.370 . S
C1224 C1226 1.363 . S
C1224 H1240 0.931 . S
C1225 C1224 1.370 . S
C1225 C1229 1.408 . S
C1226 C1224 1.363 . S
C1226 C1227 1.370 . S
C1226 C1230 1.524 . S
C1227 C1219 1.503 . S
C1227 C1226 1.370 . S
C1227 C1228 1.403 . S
C1228 C1227 1.403 . S
C1228 C1229 1.404 . S
C1228 C1231 1.539 . S
C1229 C1225 1.408 . S
C1229 C1228 1.404 . S
C1229 H1241 0.930 . S
C1230 C1226 1.524 . S
C1230 H1242 0.956 . S
C1230 H1243 0.961 . S
C1230 H1244 0.961 . S
C1231 C1228 1.539 . S
C1231 H1245 0.958 . S
C1231 H1246 0.961 . S
C1231 H1247 0.960 . S
H1232 C1216 0.931 . S
H1233 C1221 0.929 . S
H1234 C1222 0.960 . S
H1235 C1222 0.962 . S
H1236 C1222 0.960 . S
H1237 C1223 0.961 . S
H1238 C1223 0.961 . S
H1239 C1223 0.961 . S
H1240 C1224 0.931 . S
H1241 C1229 0.930 . S
H1242 C1230 0.956 . S
H1243 C1230 0.961 . S
H1244 C1230 0.961 . S
H1245 C1231 0.958 . S
H1246 C1231 0.961 . S
H1247 C1231 0.960 . S
C1248 C1249 1.391 . S
C1248 C1250 1.394 . S
C1248 H1264 0.931 . S
C1249 C1248 1.391 . S
C1249 C1253 1.376 . S
C1250 C1248 1.394 . S
C1250 C1251 1.369 . S
C1250 C1254 1.531 . S
C1251 C1250 1.369 . S
C1251 C1252 1.410 . S
C1251 C1259 1.503 . S
C1252 C1251 1.410 . S
C1252 C1253 1.392 . S
C1252 C1255 1.511 . S
C1253 C1249 1.376 . S
C1253 C1252 1.392 . S
C1253 H1265 0.929 . S
C1254 C1250 1.531 . S
C1254 H1266 0.960 . S
C1254 H1267 0.962 . S
C1254 H1268 0.960 . S
C1255 C1252 1.511 . S
C1255 H1269 0.961 . S
C1255 H1270 0.961 . S
C1255 H1271 0.961 . S
C1256 C1257 1.370 . S
C1256 C1258 1.363 . S
C1256 H1272 0.931 . S
C1257 C1256 1.370 . S
C1257 C1261 1.408 . S
C1258 C1256 1.363 . S
C1258 C1259 1.370 . S
C1258 C1262 1.524 . S
C1259 C1251 1.503 . S
C1259 C1258 1.370 . S
C1259 C1260 1.403 . S
C1260 C1259 1.403 . S
C1260 C1261 1.404 . S
C1260 C1263 1.539 . S
C1261 C1257 1.408 . S
C1261 C1260 1.404 . S
C1261 H1273 0.930 . S
C1262 C1258 1.524 . S
C1262 H1274 0.956 . S
C1262 H1275 0.961 . S
C1262 H1276 0.961 . S
C1263 C1260 1.539 . S
C1263 H1277 0.958 . S
C1263 H1278 0.961 . S
C1263 H1279 0.960 . S
H1264 C1248 0.931 . S
H1265 C1253 0.929 . S
H1266 C1254 0.960 . S
H1267 C1254 0.962 . S
H1268 C1254 0.960 . S
H1269 C1255 0.961 . S
H1270 C1255 0.961 . S
H1271 C1255 0.961 . S
H1272 C1256 0.931 . S
H1273 C1261 0.930 . S
H1274 C1262 0.956 . S
H1275 C1262 0.961 . S
H1276 C1262 0.961 . S
H1277 C1263 0.958 . S
H1278 C1263 0.961 . S
H1279 C1263 0.960 . S
C1280 C1281 1.391 . S
C1280 C1282 1.394 . S
C1280 H1296 0.931 . S
C1281 C1280 1.391 . S
C1281 C1285 1.376 . S
C1282 C1280 1.394 . S
C1282 C1283 1.369 . S
C1282 C1286 1.531 . S
C1283 C1282 1.369 . S
C1283 C1284 1.410 . S
C1283 C1291 1.503 . S
C1284 C1283 1.410 . S
C1284 C1285 1.392 . S
C1284 C1287 1.511 . S
C1285 C1281 1.376 . S
C1285 C1284 1.392 . S
C1285 H1297 0.929 . S
C1286 C1282 1.531 . S
C1286 H1298 0.960 . S
C1286 H1299 0.962 . S
C1286 H1300 0.960 . S
C1287 C1284 1.511 . S
C1287 H1301 0.961 . S
C1287 H1302 0.961 . S
C1287 H1303 0.961 . S
C1288 C1289 1.370 . S
C1288 C1290 1.363 . S
C1288 H1304 0.931 . S
C1289 C1288 1.370 . S
C1289 C1293 1.408 . S
C1290 C1288 1.363 . S
C1290 C1291 1.370 . S
C1290 C1294 1.524 . S
C1291 C1283 1.503 . S
C1291 C1290 1.370 . S
C1291 C1292 1.403 . S
C1292 C1291 1.403 . S
C1292 C1293 1.404 . S
C1292 C1295 1.539 . S
C1293 C1289 1.408 . S
C1293 C1292 1.404 . S
C1293 H1305 0.930 . S
C1294 C1290 1.524 . S
C1294 H1306 0.956 . S
C1294 H1307 0.961 . S
C1294 H1308 0.961 . S
C1295 C1292 1.539 . S
C1295 H1309 0.958 . S
C1295 H1310 0.961 . S
C1295 H1311 0.960 . S
H1296 C1280 0.931 . S
H1297 C1285 0.929 . S
H1298 C1286 0.960 . S
H1299 C1286 0.962 . S
H1300 C1286 0.960 . S
H1301 C1287 0.961 . S
H1302 C1287 0.961 . S
H1303 C1287 0.961 . S
H1304 C1288 0.931 . S
H1305 C1293 0.930 . S
H1306 C1294 0.956 . S
H1307 C1294 0.961 . S
H1308 C1294 0.961 . S
H1309 C1295 0.958 . S
H1310 C1295 0.961 . S
H1311 C1295 0.960 . S
C1312 C1313 1.391 . S
C1312 C1314 1.394 . S
C1312 H1328 0.931 . S
C1313 C1312 1.391 . S
C1313 C1317 1.376 . S
C1314 C1312 1.394 . S
C1314 C1315 1.369 . S
C1314 C1318 1.531 . S
C1315 C1314 1.369 . S
C1315 C1316 1.410 . S
C1315 C1323 1.503 . S
C1316 C1315 1.410 . S
C1316 C1317 1.392 . S
C1316 C1319 1.511 . S
C1317 C1313 1.376 . S
C1317 C1316 1.392 . S
C1317 H1329 0.929 . S
C1318 C1314 1.531 . S
C1318 H1330 0.960 . S
C1318 H1331 0.962 . S
C1318 H1332 0.960 . S
C1319 C1316 1.511 . S
C1319 H1333 0.961 . S
C1319 H1334 0.961 . S
C1319 H1335 0.961 . S
C1320 C1321 1.370 . S
C1320 C1322 1.363 . S
C1320 H1336 0.931 . S
C1321 C1320 1.370 . S
C1321 C1325 1.408 . S
C1322 C1320 1.363 . S
C1322 C1323 1.370 . S
C1322 C1326 1.524 . S
C1323 C1315 1.503 . S
C1323 C1322 1.370 . S
C1323 C1324 1.403 . S
C1324 C1323 1.403 . S
C1324 C1325 1.404 . S
C1324 C1327 1.539 . S
C1325 C1321 1.408 . S
C1325 C1324 1.404 . S
C1325 H1337 0.930 . S
C1326 C1322 1.524 . S
C1326 H1338 0.956 . S
C1326 H1339 0.961 . S
C1326 H1340 0.961 . S
C1327 C1324 1.539 . S
C1327 H1341 0.958 . S
C1327 H1342 0.961 . S
C1327 H1343 0.960 . S
H1328 C1312 0.931 . S
H1329 C1317 0.929 . S
H1330 C1318 0.960 . S
H1331 C1318 0.962 . S
H1332 C1318 0.960 . S
H1333 C1319 0.961 . S
H1334 C1319 0.961 . S
H1335 C1319 0.961 . S
H1336 C1320 0.931 . S
H1337 C1325 0.930 . S
H1338 C1326 0.956 . S
H1339 C1326 0.961 . S
H1340 C1326 0.961 . S
H1341 C1327 0.958 . S
H1342 C1327 0.961 . S
H1343 C1327 0.960 . S
C1344 C1345 1.391 . S
C1344 C1346 1.394 . S
C1344 H1360 0.931 . S
C1345 C1344 1.391 . S
C1345 C1349 1.376 . S
C1346 C1344 1.394 . S
C1346 C1347 1.369 . S
C1346 C1350 1.531 . S
C1347 C1346 1.369 . S
C1347 C1348 1.410 . S
C1347 C1355 1.503 . S
C1348 C1347 1.410 . S
C1348 C1349 1.392 . S
C1348 C1351 1.511 . S
C1349 C1345 1.376 . S
C1349 C1348 1.392 . S
C1349 H1361 0.929 . S
C1350 C1346 1.531 . S
C1350 H1362 0.960 . S
C1350 H1363 0.962 . S
C1350 H1364 0.960 . S
C1351 C1348 1.511 . S
C1351 H1365 0.961 . S
C1351 H1366 0.961 . S
C1351 H1367 0.961 . S
C1352 C1353 1.370 . S
C1352 C1354 1.363 . S
C1352 H1368 0.931 . S
C1353 C1352 1.370 . S
C1353 C1357 1.408 . S
C1354 C1352 1.363 . S
C1354 C1355 1.370 . S
C1354 C1358 1.524 . S
C1355 C1347 1.503 . S
C1355 C1354 1.370 . S
C1355 C1356 1.403 . S
C1356 C1355 1.403 . S
C1356 C1357 1.404 . S
C1356 C1359 1.539 . S
C1357 C1353 1.408 . S
C1357 C1356 1.404 . S
C1357 H1369 0.930 . S
C1358 C1354 1.524 . S
C1358 H1370 0.956 . S
C1358 H1371 0.961 . S
C1358 H1372 0.961 . S
C1359 C1356 1.539 . S
C1359 H1373 0.958 . S
C1359 H1374 0.961 . S
C1359 H1375 0.960 . S
H1360 C1344 0.931 . S
H1361 C1349 0.929 . S
H1362 C1350 0.960 . S
H1363 C1350 0.962 . S
H1364 C1350 0.960 . S
H1365 C1351 0.961 . S
H1366 C1351 0.961 . S
H1367 C1351 0.961 . S
H1368 C1352 0.931 . S
H1369 C1357 0.930 . S
H1370 C1358 0.956 . S
H1371 C1358 0.961 . S
H1372 C1358 0.961 . S
H1373 C1359 0.958 . S
H1374 C1359 0.961 . S
H1375 C1359 0.960 . S
C1376 C1377 1.391 . S
C1376 C1378 1.394 . S
C1376 H1392 0.931 . S
C1377 C1376 1.391 . S
C1377 C1381 1.376 . S
C1378 C1376 1.394 . S
C1378 C1379 1.369 . S
C1378 C1382 1.531 . S
C1379 C1378 1.369 . S
C1379 C1380 1.410 . S
C1379 C1387 1.503 . S
C1380 C1379 1.410 . S
C1380 C1381 1.392 . S
C1380 C1383 1.511 . S
C1381 C1377 1.376 . S
C1381 C1380 1.392 . S
C1381 H1393 0.929 . S
C1382 C1378 1.531 . S
C1382 H1394 0.960 . S
C1382 H1395 0.962 . S
C1382 H1396 0.960 . S
C1383 C1380 1.511 . S
C1383 H1397 0.961 . S
C1383 H1398 0.961 . S
C1383 H1399 0.961 . S
C1384 C1385 1.370 . S
C1384 C1386 1.363 . S
C1384 H1400 0.931 . S
C1385 C1384 1.370 . S
C1385 C1389 1.408 . S
C1386 C1384 1.363 . S
C1386 C1387 1.370 . S
C1386 C1390 1.524 . S
C1387 C1379 1.503 . S
C1387 C1386 1.370 . S
C1387 C1388 1.403 . S
C1388 C1387 1.403 . S
C1388 C1389 1.404 . S
C1388 C1391 1.539 . S
C1389 C1385 1.408 . S
C1389 C1388 1.404 . S
C1389 H1401 0.930 . S
C1390 C1386 1.524 . S
C1390 H1402 0.956 . S
C1390 H1403 0.961 . S
C1390 H1404 0.961 . S
C1391 C1388 1.539 . S
C1391 H1405 0.958 . S
C1391 H1406 0.961 . S
C1391 H1407 0.960 . S
H1392 C1376 0.931 . S
H1393 C1381 0.929 . S
H1394 C1382 0.960 . S
H1395 C1382 0.962 . S
H1396 C1382 0.960 . S
H1397 C1383 0.961 . S
H1398 C1383 0.961 . S
H1399 C1383 0.961 . S
H1400 C1384 0.931 . S
H1401 C1389 0.930 . S
H1402 C1390 0.956 . S
H1403 C1390 0.961 . S
H1404 C1390 0.961 . S
H1405 C1391 0.958 . S
H1406 C1391 0.961 . S
H1407 C1391 0.960 . S
C1408 C1409 1.391 . S
C1408 C1410 1.394 . S
C1408 H1424 0.931 . S
C1409 C1408 1.391 . S
C1409 C1413 1.376 . S
C1410 C1408 1.394 . S
C1410 C1411 1.369 . S
C1410 C1414 1.531 . S
C1411 C1410 1.369 . S
C1411 C1412 1.410 . S
C1411 C1419 1.503 . S
C1412 C1411 1.410 . S
C1412 C1413 1.392 . S
C1412 C1415 1.511 . S
C1413 C1409 1.376 . S
C1413 C1412 1.392 . S
C1413 H1425 0.929 . S
C1414 C1410 1.531 . S
C1414 H1426 0.960 . S
C1414 H1427 0.962 . S
C1414 H1428 0.960 . S
C1415 C1412 1.511 . S
C1415 H1429 0.961 . S
C1415 H1430 0.961 . S
C1415 H1431 0.961 . S
C1416 C1417 1.370 . S
C1416 C1418 1.363 . S
C1416 H1432 0.931 . S
C1417 C1416 1.370 . S
C1417 C1421 1.408 . S
C1418 C1416 1.363 . S
C1418 C1419 1.370 . S
C1418 C1422 1.524 . S
C1419 C1411 1.503 . S
C1419 C1418 1.370 . S
C1419 C1420 1.403 . S
C1420 C1419 1.403 . S
C1420 C1421 1.404 . S
C1420 C1423 1.539 . S
C1421 C1417 1.408 . S
C1421 C1420 1.404 . S
C1421 H1433 0.930 . S
C1422 C1418 1.524 . S
C1422 H1434 0.956 . S
C1422 H1435 0.961 . S
C1422 H1436 0.961 . S
C1423 C1420 1.539 . S
C1423 H1437 0.958 . S
C1423 H1438 0.961 . S
C1423 H1439 0.960 . S
H1424 C1408 0.931 . S
H1425 C1413 0.929 . S
H1426 C1414 0.960 . S
H1427 C1414 0.962 . S
H1428 C1414 0.960 . S
H1429 C1415 0.961 . S
H1430 C1415 0.961 . S
H1431 C1415 0.961 . S
H1432 C1416 0.931 . S
H1433 C1421 0.930 . S
H1434 C1422 0.956 . S
H1435 C1422 0.961 . S
H1436 C1422 0.961 . S
H1437 C1423 0.958 . S
H1438 C1423 0.961 . S
H1439 C1423 0.960 . S
C1440 C1441 1.391 . S
C1440 C1442 1.394 . S
C1440 H1456 0.931 . S
C1441 C1440 1.391 . S
C1441 C1445 1.376 . S
C1442 C1440 1.394 . S
C1442 C1443 1.369 . S
C1442 C1446 1.531 . S
C1443 C1442 1.369 . S
C1443 C1444 1.410 . S
C1443 C1451 1.503 . S
C1444 C1443 1.410 . S
C1444 C1445 1.392 . S
C1444 C1447 1.511 . S
C1445 C1441 1.376 . S
C1445 C1444 1.392 . S
C1445 H1457 0.929 . S
C1446 C1442 1.531 . S
C1446 H1458 0.960 . S
C1446 H1459 0.962 . S
C1446 H1460 0.960 . S
C1447 C1444 1.511 . S
C1447 H1461 0.961 . S
C1447 H1462 0.961 . S
C1447 H1463 0.961 . S
C1448 C1449 1.370 . S
C1448 C1450 1.363 . S
C1448 H1464 0.931 . S
C1449 C1448 1.370 . S
C1449 C1453 1.408 . S
C1450 C1448 1.363 . S
C1450 C1451 1.370 . S
C1450 C1454 1.524 . S
C1451 C1443 1.503 . S
C1451 C1450 1.370 . S
C1451 C1452 1.403 . S
C1452 C1451 1.403 . S
C1452 C1453 1.404 . S
C1452 C1455 1.539 . S
C1453 C1449 1.408 . S
C1453 C1452 1.404 . S
C1453 H1465 0.930 . S
C1454 C1450 1.524 . S
C1454 H1466 0.956 . S
C1454 H1467 0.961 . S
C1454 H1468 0.961 . S
C1455 C1452 1.539 . S
C1455 H1469 0.958 . S
C1455 H1470 0.961 . S
C1455 H1471 0.960 . S
H1456 C1440 0.931 . S
H1457 C1445 0.929 . S
H1458 C1446 0.960 . S
H1459 C1446 0.962 . S
H1460 C1446 0.960 . S
H1461 C1447 0.961 . S
H1462 C1447 0.961 . S
H1463 C1447 0.961 . S
H1464 C1448 0.931 . S
H1465 C1453 0.930 . S
H1466 C1454 0.956 . S
H1467 C1454 0.961 . S
H1468 C1454 0.961 . S
H1469 C1455 0.958 . S
H1470 C1455 0.961 . S
H1471 C1455 0.960 . S
C1472 C1473 1.391 . S
C1472 C1474 1.394 . S
C1472 H1488 0.931 . S
C1473 C1472 1.391 . S
C1473 C1477 1.376 . S
C1474 C1472 1.394 . S
C1474 C1475 1.369 . S
C1474 C1478 1.531 . S
C1475 C1474 1.369 . S
C1475 C1476 1.410 . S
C1475 C1483 1.503 . S
C1476 C1475 1.410 . S
C1476 C1477 1.392 . S
C1476 C1479 1.511 . S
C1477 C1473 1.376 . S
C1477 C1476 1.392 . S
C1477 H1489 0.929 . S
C1478 C1474 1.531 . S
C1478 H1490 0.960 . S
C1478 H1491 0.962 . S
C1478 H1492 0.960 . S
C1479 C1476 1.511 . S
C1479 H1493 0.961 . S
C1479 H1494 0.961 . S
C1479 H1495 0.961 . S
C1480 C1481 1.370 . S
C1480 C1482 1.363 . S
C1480 H1496 0.931 . S
C1481 C1480 1.370 . S
C1481 C1485 1.408 . S
C1482 C1480 1.363 . S
C1482 C1483 1.370 . S
C1482 C1486 1.524 . S
C1483 C1475 1.503 . S
C1483 C1482 1.370 . S
C1483 C1484 1.403 . S
C1484 C1483 1.403 . S
C1484 C1485 1.404 . S
C1484 C1487 1.539 . S
C1485 C1481 1.408 . S
C1485 C1484 1.404 . S
C1485 H1497 0.930 . S
C1486 C1482 1.524 . S
C1486 H1498 0.956 . S
C1486 H1499 0.961 . S
C1486 H1500 0.961 . S
C1487 C1484 1.539 . S
C1487 H1501 0.958 . S
C1487 H1502 0.961 . S
C1487 H1503 0.960 . S
H1488 C1472 0.931 . S
H1489 C1477 0.929 . S
H1490 C1478 0.960 . S
H1491 C1478 0.962 . S
H1492 C1478 0.960 . S
H1493 C1479 0.961 . S
H1494 C1479 0.961 . S
H1495 C1479 0.961 . S
H1496 C1480 0.931 . S
H1497 C1485 0.930 . S
H1498 C1486 0.956 . S
H1499 C1486 0.961 . S
H1500 C1486 0.961 . S
H1501 C1487 0.958 . S
H1502 C1487 0.961 . S
H1503 C1487 0.960 . S
C1504 C1505 1.391 . S
C1504 C1506 1.394 . S
C1504 H1520 0.931 . S
C1505 C1504 1.391 . S
C1505 C1509 1.376 . S
C1506 C1504 1.394 . S
C1506 C1507 1.369 . S
C1506 C1510 1.531 . S
C1507 C1506 1.369 . S
C1507 C1508 1.410 . S
C1507 C1515 1.503 . S
C1508 C1507 1.410 . S
C1508 C1509 1.392 . S
C1508 C1511 1.511 . S
C1509 C1505 1.376 . S
C1509 C1508 1.392 . S
C1509 H1521 0.929 . S
C1510 C1506 1.531 . S
C1510 H1522 0.960 . S
C1510 H1523 0.962 . S
C1510 H1524 0.960 . S
C1511 C1508 1.511 . S
C1511 H1525 0.961 . S
C1511 H1526 0.961 . S
C1511 H1527 0.961 . S
C1512 C1513 1.370 . S
C1512 C1514 1.363 . S
C1512 H1528 0.931 . S
C1513 C1512 1.370 . S
C1513 C1517 1.408 . S
C1514 C1512 1.363 . S
C1514 C1515 1.370 . S
C1514 C1518 1.524 . S
C1515 C1507 1.503 . S
C1515 C1514 1.370 . S
C1515 C1516 1.403 . S
C1516 C1515 1.403 . S
C1516 C1517 1.404 . S
C1516 C1519 1.539 . S
C1517 C1513 1.408 . S
C1517 C1516 1.404 . S
C1517 H1529 0.930 . S
C1518 C1514 1.524 . S
C1518 H1530 0.956 . S
C1518 H1531 0.961 . S
C1518 H1532 0.961 . S
C1519 C1516 1.539 . S
C1519 H1533 0.958 . S
C1519 H1534 0.961 . S
C1519 H1535 0.960 . S
H1520 C1504 0.931 . S
H1521 C1509 0.929 . S
H1522 C1510 0.960 . S
H1523 C1510 0.962 . S
H1524 C1510 0.960 . S
H1525 C1511 0.961 . S
H1526 C1511 0.961 . S
H1527 C1511 0.961 . S
H1528 C1512 0.931 . S
H1529 C1517 0.930 . S
H1530 C1518 0.956 . S
H1531 C1518 0.961 . S
H1532 C1518 0.961 . S
H1533 C1519 0.958 . S
H1534 C1519 0.961 . S
H1535 C1519 0.960 . S
C1536 C1537 1.391 . S
C1536 C1538 1.394 . S
C1536 H1552 0.931 . S
C1537 C1536 1.391 . S
C1537 C1541 1.376 . S
C1538 C1536 1.394 . S
C1538 C1539 1.369 . S
C1538 C1542 1.531 . S
C1539 C1538 1.369 . S
C1539 C1540 1.410 . S
C1539 C1547 1.503 . S
C1540 C1539 1.410 . S
C1540 C1541 1.392 . S
C1540 C1543 1.511 . S
C1541 C1537 1.376 . S
C1541 C1540 1.392 . S
C1541 H1553 0.929 . S
C1542 C1538 1.531 . S
C1542 H1554 0.960 . S
C1542 H1555 0.962 . S
C1542 H1556 0.960 . S
C1543 C1540 1.511 . S
C1543 H1557 0.961 . S
C1543 H1558 0.961 . S
C1543 H1559 0.961 . S
C1544 C1545 1.370 . S
C1544 C1546 1.363 . S
C1544 H1560 0.931 . S
C1545 C1544 1.370 . S
C1545 C1549 1.408 . S
C1546 C1544 1.363 . S
C1546 C1547 1.370 . S
C1546 C1550 1.524 . S
C1547 C1539 1.503 . S
C1547 C1546 1.370 . S
C1547 C1548 1.403 . S
C1548 C1547 1.403 . S
C1548 C1549 1.404 . S
C1548 C1551 1.539 . S
C1549 C1545 1.408 . S
C1549 C1548 1.404 . S
C1549 H1561 0.930 . S
C1550 C1546 1.524 . S
C1550 H1562 0.956 . S
C1550 H1563 0.961 . S
C1550 H1564 0.961 . S
C1551 C1548 1.539 . S
C1551 H1565 0.958 . S
C1551 H1566 0.961 . S
C1551 H1567 0.960 . S
H1552 C1536 0.931 . S
H1553 C1541 0.929 . S
H1554 C1542 0.960 . S
H1555 C1542 0.962 . S
H1556 C1542 0.960 . S
H1557 C1543 0.961 . S
H1558 C1543 0.961 . S
H1559 C1543 0.961 . S
H1560 C1544 0.931 . S
H1561 C1549 0.930 . S
H1562 C1550 0.956 . S
H1563 C1550 0.961 . S
H1564 C1550 0.961 . S
H1565 C1551 0.958 . S
H1566 C1551 0.961 . S
H1567 C1551 0.960 . S
C1568 C1569 1.391 . S
C1568 C1570 1.394 . S
C1568 H1584 0.931 . S
C1569 C1568 1.391 . S
C1569 C1573 1.376 . S
C1570 C1568 1.394 . S
C1570 C1571 1.369 . S
C1570 C1574 1.531 . S
C1571 C1570 1.369 . S
C1571 C1572 1.410 . S
C1571 C1579 1.503 . S
C1572 C1571 1.410 . S
C1572 C1573 1.392 . S
C1572 C1575 1.511 . S
C1573 C1569 1.376 . S
C1573 C1572 1.392 . S
C1573 H1585 0.929 . S
C1574 C1570 1.531 . S
C1574 H1586 0.960 . S
C1574 H1587 0.962 . S
C1574 H1588 0.960 . S
C1575 C1572 1.511 . S
C1575 H1589 0.961 . S
C1575 H1590 0.961 . S
C1575 H1591 0.961 . S
C1576 C1577 1.370 . S
C1576 C1578 1.363 . S
C1576 H1592 0.931 . S
C1577 C1576 1.370 . S
C1577 C1581 1.408 . S
C1578 C1576 1.363 . S
C1578 C1579 1.370 . S
C1578 C1582 1.524 . S
C1579 C1571 1.503 . S
C1579 C1578 1.370 . S
C1579 C1580 1.403 . S
C1580 C1579 1.403 . S
C1580 C1581 1.404 . S
C1580 C1583 1.539 . S
C1581 C1577 1.408 . S
C1581 C1580 1.404 . S
C1581 H1593 0.930 . S
C1582 C1578 1.524 . S
C1582 H1594 0.956 . S
C1582 H1595 0.961 . S
C1582 H1596 0.961 . S
C1583 C1580 1.539 . S
C1583 H1597 0.958 . S
C1583 H1598 0.961 . S
C1583 H1599 0.960 . S
H1584 C1568 0.931 . S
H1585 C1573 0.929 . S
H1586 C1574 0.960 . S
H1587 C1574 0.962 . S
H1588 C1574 0.960 . S
H1589 C1575 0.961 . S
H1590 C1575 0.961 . S
H1591 C1575 0.961 . S
H1592 C1576 0.931 . S
H1593 C1581 0.930 . S
H1594 C1582 0.956 . S
H1595 C1582 0.961 . S
H1596 C1582 0.961 . S
H1597 C1583 0.958 . S
H1598 C1583 0.961 . S
H1599 C1583 0.960 . S
C1600 C1601 1.391 . S
C1600 C1602 1.394 . S
C1600 H1616 0.931 . S
C1601 C1600 1.391 . S
C1601 C1605 1.376 . S
C1602 C1600 1.394 . S
C1602 C1603 1.369 . S
C1602 C1606 1.531 . S
C1603 C1602 1.369 . S
C1603 C1604 1.410 . S
C1603 C1611 1.503 . S
C1604 C1603 1.410 . S
C1604 C1605 1.392 . S
C1604 C1607 1.511 . S
C1605 C1601 1.376 . S
C1605 C1604 1.392 . S
C1605 H1617 0.929 . S
C1606 C1602 1.531 . S
C1606 H1618 0.960 . S
C1606 H1619 0.962 . S
C1606 H1620 0.960 . S
C1607 C1604 1.511 . S
C1607 H1621 0.961 . S
C1607 H1622 0.961 . S
C1607 H1623 0.961 . S
C1608 C1609 1.370 . S
C1608 C1610 1.363 . S
C1608 H1624 0.931 . S
C1609 C1608 1.370 . S
C1609 C1613 1.408 . S
C1610 C1608 1.363 . S
C1610 C1611 1.370 . S
C1610 C1614 1.524 . S
C1611 C1603 1.503 . S
C1611 C1610 1.370 . S
C1611 C1612 1.403 . S
C1612 C1611 1.403 . S
C1612 C1613 1.404 . S
C1612 C1615 1.539 . S
C1613 C1609 1.408 . S
C1613 C1612 1.404 . S
C1613 H1625 0.930 . S
C1614 C1610 1.524 . S
C1614 H1626 0.956 . S
C1614 H1627 0.961 . S
C1614 H1628 0.961 . S
C1615 C1612 1.539 . S
C1615 H1629 0.958 . S
C1615 H1630 0.961 . S
C1615 H1631 0.960 . S
H1616 C1600 0.931 . S
H1617 C1605 0.929 . S
H1618 C1606 0.960 . S
H1619 C1606 0.962 . S
H1620 C1606 0.960 . S
H1621 C1607 0.961 . S
H1622 C1607 0.961 . S
H1623 C1607 0.961 . S
H1624 C1608 0.931 . S
H1625 C1613 0.930 . S
H1626 C1614 0.956 . S
H1627 C1614 0.961 . S
H1628 C1614 0.961 . S
H1629 C1615 0.958 . S
H1630 C1615 0.961 . S
H1631 C1615 0.960 . S
C1632 C1633 1.391 . S
C1632 C1634 1.394 . S
C1632 H1648 0.931 . S
C1633 C1632 1.391 . S
C1633 C1637 1.376 . S
C1634 C1632 1.394 . S
C1634 C1635 1.369 . S
C1634 C1638 1.531 . S
C1635 C1634 1.369 . S
C1635 C1636 1.410 . S
C1635 C1643 1.503 . S
C1636 C1635 1.410 . S
C1636 C1637 1.392 . S
C1636 C1639 1.511 . S
C1637 C1633 1.376 . S
C1637 C1636 1.392 . S
C1637 H1649 0.929 . S
C1638 C1634 1.531 . S
C1638 H1650 0.960 . S
C1638 H1651 0.962 . S
C1638 H1652 0.960 . S
C1639 C1636 1.511 . S
C1639 H1653 0.961 . S
C1639 H1654 0.961 . S
C1639 H1655 0.961 . S
C1640 C1641 1.370 . S
C1640 C1642 1.363 . S
C1640 H1656 0.931 . S
C1641 C1640 1.370 . S
C1641 C1645 1.408 . S
C1642 C1640 1.363 . S
C1642 C1643 1.370 . S
C1642 C1646 1.524 . S
C1643 C1635 1.503 . S
C1643 C1642 1.370 . S
C1643 C1644 1.403 . S
C1644 C1643 1.403 . S
C1644 C1645 1.404 . S
C1644 C1647 1.539 . S
C1645 C1641 1.408 . S
C1645 C1644 1.404 . S
C1645 H1657 0.930 . S
C1646 C1642 1.524 . S
C1646 H1658 0.956 . S
C1646 H1659 0.961 . S
C1646 H1660 0.961 . S
C1647 C1644 1.539 . S
C1647 H1661 0.958 . S
C1647 H1662 0.961 . S
C1647 H1663 0.960 . S
H1648 C1632 0.931 . S
H1649 C1637 0.929 . S
H1650 C1638 0.960 . S
H1651 C1638 0.962 . S
H1652 C1638 0.960 . S
H1653 C1639 0.961 . S
H1654 C1639 0.961 . S
H1655 C1639 0.961 . S
H1656 C1640 0.931 . S
H1657 C1645 0.930 . S
H1658 C1646 0.956 . S
H1659 C1646 0.961 . S
H1660 C1646 0.961 . S
H1661 C1647 0.958 . S
H1662 C1647 0.961 . S
H1663 C1647 0.960 . S
C1664 C1665 1.391 . S
C1664 C1666 1.394 . S
C1664 H1680 0.931 . S
C1665 C1664 1.391 . S
C1665 C1669 1.376 . S
C1666 C1664 1.394 . S
C1666 C1667 1.369 . S
C1666 C1670 1.531 . S
C1667 C1666 1.369 . S
C1667 C1668 1.410 . S
C1667 C1675 1.503 . S
C1668 C1667 1.410 . S
C1668 C1669 1.392 . S
C1668 C1671 1.511 . S
C1669 C1665 1.376 . S
C1669 C1668 1.392 . S
C1669 H1681 0.929 . S
C1670 C1666 1.531 . S
C1670 H1682 0.960 . S
C1670 H1683 0.962 . S
C1670 H1684 0.960 . S
C1671 C1668 1.511 . S
C1671 H1685 0.961 . S
C1671 H1686 0.961 . S
C1671 H1687 0.961 . S
C1672 C1673 1.370 . S
C1672 C1674 1.363 . S
C1672 H1688 0.931 . S
C1673 C1672 1.370 . S
C1673 C1677 1.408 . S
C1674 C1672 1.363 . S
C1674 C1675 1.370 . S
C1674 C1678 1.524 . S
C1675 C1667 1.503 . S
C1675 C1674 1.370 . S
C1675 C1676 1.403 . S
C1676 C1675 1.403 . S
C1676 C1677 1.404 . S
C1676 C1679 1.539 . S
C1677 C1673 1.408 . S
C1677 C1676 1.404 . S
C1677 H1689 0.930 . S
C1678 C1674 1.524 . S
C1678 H1690 0.956 . S
C1678 H1691 0.961 . S
C1678 H1692 0.961 . S
C1679 C1676 1.539 . S
C1679 H1693 0.958 . S
C1679 H1694 0.961 . S
C1679 H1695 0.960 . S
H1680 C1664 0.931 . S
H1681 C1669 0.929 . S
H1682 C1670 0.960 . S
H1683 C1670 0.962 . S
H1684 C1670 0.960 . S
H1685 C1671 0.961 . S
H1686 C1671 0.961 . S
H1687 C1671 0.961 . S
H1688 C1672 0.931 . S
H1689 C1677 0.930 . S
H1690 C1678 0.956 . S
H1691 C1678 0.961 . S
H1692 C1678 0.961 . S
H1693 C1679 0.958 . S
H1694 C1679 0.961 . S
H1695 C1679 0.960 . S
C1696 C1697 1.391 . S
C1696 C1698 1.394 . S
C1696 H1712 0.931 . S
C1697 C1696 1.391 . S
C1697 C1701 1.376 . S
C1698 C1696 1.394 . S
C1698 C1699 1.369 . S
C1698 C1702 1.531 . S
C1699 C1698 1.369 . S
C1699 C1700 1.410 . S
C1699 C1707 1.503 . S
C1700 C1699 1.410 . S
C1700 C1701 1.392 . S
C1700 C1703 1.511 . S
C1701 C1697 1.376 . S
C1701 C1700 1.392 . S
C1701 H1713 0.929 . S
C1702 C1698 1.531 . S
C1702 H1714 0.960 . S
C1702 H1715 0.962 . S
C1702 H1716 0.960 . S
C1703 C1700 1.511 . S
C1703 H1717 0.961 . S
C1703 H1718 0.961 . S
C1703 H1719 0.961 . S
C1704 C1705 1.370 . S
C1704 C1706 1.363 . S
C1704 H1720 0.931 . S
C1705 C1704 1.370 . S
C1705 C1709 1.408 . S
C1706 C1704 1.363 . S
C1706 C1707 1.370 . S
C1706 C1710 1.524 . S
C1707 C1699 1.503 . S
C1707 C1706 1.370 . S
C1707 C1708 1.403 . S
C1708 C1707 1.403 . S
C1708 C1709 1.404 . S
C1708 C1711 1.539 . S
C1709 C1705 1.408 . S
C1709 C1708 1.404 . S
C1709 H1721 0.930 . S
C1710 C1706 1.524 . S
C1710 H1722 0.956 . S
C1710 H1723 0.961 . S
C1710 H1724 0.961 . S
C1711 C1708 1.539 . S
C1711 H1725 0.958 . S
C1711 H1726 0.961 . S
C1711 H1727 0.960 . S
H1712 C1696 0.931 . S
H1713 C1701 0.929 . S
H1714 C1702 0.960 . S
H1715 C1702 0.962 . S
H1716 C1702 0.960 . S
H1717 C1703 0.961 . S
H1718 C1703 0.961 . S
H1719 C1703 0.961 . S
H1720 C1704 0.931 . S
H1721 C1709 0.930 . S
H1722 C1710 0.956 . S
H1723 C1710 0.961 . S
H1724 C1710 0.961 . S
H1725 C1711 0.958 . S
H1726 C1711 0.961 . S
H1727 C1711 0.960 . S
C1728 C1729 1.391 . S
C1728 C1730 1.394 . S
C1728 H1744 0.931 . S
C1729 C1728 1.391 . S
C1729 C1733 1.376 . S
C1730 C1728 1.394 . S
C1730 C1731 1.369 . S
C1730 C1734 1.531 . S
C1731 C1730 1.369 . S
C1731 C1732 1.410 . S
C1731 C1739 1.503 . S
C1732 C1731 1.410 . S
C1732 C1733 1.392 . S
C1732 C1735 1.511 . S
C1733 C1729 1.376 . S
C1733 C1732 1.392 . S
C1733 H1745 0.929 . S
C1734 C1730 1.531 . S
C1734 H1746 0.960 . S
C1734 H1747 0.962 . S
C1734 H1748 0.960 . S
C1735 C1732 1.511 . S
C1735 H1749 0.961 . S
C1735 H1750 0.961 . S
C1735 H1751 0.961 . S
C1736 C1737 1.370 . S
C1736 C1738 1.363 . S
C1736 H1752 0.931 . S
C1737 C1736 1.370 . S
C1737 C1741 1.408 . S
C1738 C1736 1.363 . S
C1738 C1739 1.370 . S
C1738 C1742 1.524 . S
C1739 C1731 1.503 . S
C1739 C1738 1.370 . S
C1739 C1740 1.403 . S
C1740 C1739 1.403 . S
C1740 C1741 1.404 . S
C1740 C1743 1.539 . S
C1741 C1737 1.408 . S
C1741 C1740 1.404 . S
C1741 H1753 0.930 . S
C1742 C1738 1.524 . S
C1742 H1754 0.956 . S
C1742 H1755 0.961 . S
C1742 H1756 0.961 . S
C1743 C1740 1.539 . S
C1743 H1757 0.958 . S
C1743 H1758 0.961 . S
C1743 H1759 0.960 . S
H1744 C1728 0.931 . S
H1745 C1733 0.929 . S
H1746 C1734 0.960 . S
H1747 C1734 0.962 . S
H1748 C1734 0.960 . S
H1749 C1735 0.961 . S
H1750 C1735 0.961 . S
H1751 C1735 0.961 . S
H1752 C1736 0.931 . S
H1753 C1741 0.930 . S
H1754 C1742 0.956 . S
H1755 C1742 0.961 . S
H1756 C1742 0.961 . S
H1757 C1743 0.958 . S
H1758 C1743 0.961 . S
H1759 C1743 0.960 . S
C1760 C1761 1.391 . S
C1760 C1762 1.394 . S
C1760 H1776 0.931 . S
C1761 C1760 1.391 . S
C1761 C1765 1.376 . S
C1762 C1760 1.394 . S
C1762 C1763 1.369 . S
C1762 C1766 1.531 . S
C1763 C1762 1.369 . S
C1763 C1764 1.410 . S
C1763 C1771 1.503 . S
C1764 C1763 1.410 . S
C1764 C1765 1.392 . S
C1764 C1767 1.511 . S
C1765 C1761 1.376 . S
C1765 C1764 1.392 . S
C1765 H1777 0.929 . S
C1766 C1762 1.531 . S
C1766 H1778 0.960 . S
C1766 H1779 0.962 . S
C1766 H1780 0.960 . S
C1767 C1764 1.511 . S
C1767 H1781 0.961 . S
C1767 H1782 0.961 . S
C1767 H1783 0.961 . S
C1768 C1769 1.370 . S
C1768 C1770 1.363 . S
C1768 H1784 0.931 . S
C1769 C1768 1.370 . S
C1769 C1773 1.408 . S
C1770 C1768 1.363 . S
C1770 C1771 1.370 . S
C1770 C1774 1.524 . S
C1771 C1763 1.503 . S
C1771 C1770 1.370 . S
C1771 C1772 1.403 . S
C1772 C1771 1.403 . S
C1772 C1773 1.404 . S
C1772 C1775 1.539 . S
C1773 C1769 1.408 . S
C1773 C1772 1.404 . S
C1773 H1785 0.930 . S
C1774 C1770 1.524 . S
C1774 H1786 0.956 . S
C1774 H1787 0.961 . S
C1774 H1788 0.961 . S
C1775 C1772 1.539 . S
C1775 H1789 0.958 . S
C1775 H1790 0.961 . S
C1775 H1791 0.960 . S
H1776 C1760 0.931 . S
H1777 C1765 0.929 . S
H1778 C1766 0.960 . S
H1779 C1766 0.962 . S
H1780 C1766 0.960 . S
H1781 C1767 0.961 . S
H1782 C1767 0.961 . S
H1783 C1767 0.961 . S
H1784 C1768 0.931 . S
H1785 C1773 0.930 . S
H1786 C1774 0.956 . S
H1787 C1774 0.961 . S
H1788 C1774 0.961 . S
H1789 C1775 0.958 . S
H1790 C1775 0.961 . S
H1791 C1775 0.960 . S
C1792 C1793 1.391 . S
C1792 C1794 1.394 . S
C1792 H1808 0.931 . S
C1793 C1792 1.391 . S
C1793 C1797 1.376 . S
C1794 C1792 1.394 . S
C1794 C1795 1.369 . S
C1794 C1798 1.531 . S
C1795 C1794 1.369 . S
C1795 C1796 1.410 . S
C1795 C1803 1.503 . S
C1796 C1795 1.410 . S
C1796 C1797 1.392 . S
C1796 C1799 1.511 . S
C1797 C1793 1.376 . S
C1797 C1796 1.392 . S
C1797 H1809 0.929 . S
C1798 C1794 1.531 . S
C1798 H1810 0.960 . S
C1798 H1811 0.962 . S
C1798 H1812 0.960 . S
C1799 C1796 1.511 . S
C1799 H1813 0.961 . S
C1799 H1814 0.961 . S
C1799 H1815 0.961 . S
C1800 C1801 1.370 . S
C1800 C1802 1.363 . S
C1800 H1816 0.931 . S
C1801 C1800 1.370 . S
C1801 C1805 1.408 . S
C1802 C1800 1.363 . S
C1802 C1803 1.370 . S
C1802 C1806 1.524 . S
C1803 C1795 1.503 . S
C1803 C1802 1.370 . S
C1803 C1804 1.403 . S
C1804 C1803 1.403 . S
C1804 C1805 1.404 . S
C1804 C1807 1.539 . S
C1805 C1801 1.408 . S
C1805 C1804 1.404 . S
C1805 H1817 0.930 . S
C1806 C1802 1.524 . S
C1806 H1818 0.956 . S
C1806 H1819 0.961 . S
C1806 H1820 0.961 . S
C1807 C1804 1.539 . S
C1807 H1821 0.958 . S
C1807 H1822 0.961 . S
C1807 H1823 0.960 . S
H1808 C1792 0.931 . S
H1809 C1797 0.929 . S
H1810 C1798 0.960 . S
H1811 C1798 0.962 . S
H1812 C1798 0.960 . S
H1813 C1799 0.961 . S
H1814 C1799 0.961 . S
H1815 C1799 0.961 . S
H1816 C1800 0.931 . S
H1817 C1805 0.930 . S
H1818 C1806 0.956 . S
H1819 C1806 0.961 . S
H1820 C1806 0.961 . S
H1821 C1807 0.958 . S
H1822 C1807 0.961 . S
H1823 C1807 0.960 . S
C1824 C1825 1.391 . S
C1824 C1826 1.394 . S
C1824 H1840 0.931 . S
C1825 C1824 1.391 . S
C1825 C1829 1.376 . S
C1826 C1824 1.394 . S
C1826 C1827 1.369 . S
C1826 C1830 1.531 . S
C1827 C1826 1.369 . S
C1827 C1828 1.410 . S
C1827 C1835 1.503 . S
C1828 C1827 1.410 . S
C1828 C1829 1.392 . S
C1828 C1831 1.511 . S
C1829 C1825 1.376 . S
C1829 C1828 1.392 . S
C1829 H1841 0.929 . S
C1830 C1826 1.531 . S
C1830 H1842 0.960 . S
C1830 H1843 0.962 . S
C1830 H1844 0.960 . S
C1831 C1828 1.511 . S
C1831 H1845 0.961 . S
C1831 H1846 0.961 . S
C1831 H1847 0.961 . S
C1832 C1833 1.370 . S
C1832 C1834 1.363 . S
C1832 H1848 0.931 . S
C1833 C1832 1.370 . S
C1833 C1837 1.408 . S
C1834 C1832 1.363 . S
C1834 C1835 1.370 . S
C1834 C1838 1.524 . S
C1835 C1827 1.503 . S
C1835 C1834 1.370 . S
C1835 C1836 1.403 . S
C1836 C1835 1.403 . S
C1836 C1837 1.404 . S
C1836 C1839 1.539 . S
C1837 C1833 1.408 . S
C1837 C1836 1.404 . S
C1837 H1849 0.930 . S
C1838 C1834 1.524 . S
C1838 H1850 0.956 . S
C1838 H1851 0.961 . S
C1838 H1852 0.961 . S
C1839 C1836 1.539 . S
C1839 H1853 0.958 . S
C1839 H1854 0.961 . S
C1839 H1855 0.960 . S
H1840 C1824 0.931 . S
H1841 C1829 0.929 . S
H1842 C1830 0.960 . S
H1843 C1830 0.962 . S
H1844 C1830 0.960 . S
H1845 C1831 0.961 . S
H1846 C1831 0.961 . S
H1847 C1831 0.961 . S
H1848 C1832 0.931 . S
H1849 C1837 0.930 . S
H1850 C1838 0.956 . S
H1851 C1838 0.961 . S
H1852 C1838 0.961 . S
H1853 C1839 0.958 . S
H1854 C1839 0.961 . S
H1855 C1839 0.960 . S
C1856 C1857 1.391 . S
C1856 C1858 1.394 . S
C1856 H1872 0.931 . S
C1857 C1856 1.391 . S
C1857 C1861 1.376 . S
C1858 C1856 1.394 . S
C1858 C1859 1.369 . S
C1858 C1862 1.531 . S
C1859 C1858 1.369 . S
C1859 C1860 1.410 . S
C1859 C1867 1.503 . S
C1860 C1859 1.410 . S
C1860 C1861 1.392 . S
C1860 C1863 1.511 . S
C1861 C1857 1.376 . S
C1861 C1860 1.392 . S
C1861 H1873 0.929 . S
C1862 C1858 1.531 . S
C1862 H1874 0.960 . S
C1862 H1875 0.962 . S
C1862 H1876 0.960 . S
C1863 C1860 1.511 . S
C1863 H1877 0.961 . S
C1863 H1878 0.961 . S
C1863 H1879 0.961 . S
C1864 C1865 1.370 . S
C1864 C1866 1.363 . S
C1864 H1880 0.931 . S
C1865 C1864 1.370 . S
C1865 C1869 1.408 . S
C1866 C1864 1.363 . S
C1866 C1867 1.370 . S
C1866 C1870 1.524 . S
C1867 C1859 1.503 . S
C1867 C1866 1.370 . S
C1867 C1868 1.403 . S
C1868 C1867 1.403 . S
C1868 C1869 1.404 . S
C1868 C1871 1.539 . S
C1869 C1865 1.408 . S
C1869 C1868 1.404 . S
C1869 H1881 0.930 . S
C1870 C1866 1.524 . S
C1870 H1882 0.956 . S
C1870 H1883 0.961 . S
C1870 H1884 0.961 . S
C1871 C1868 1.539 . S
C1871 H1885 0.958 . S
C1871 H1886 0.961 . S
C1871 H1887 0.960 . S
H1872 C1856 0.931 . S
H1873 C1861 0.929 . S
H1874 C1862 0.960 . S
H1875 C1862 0.962 . S
H1876 C1862 0.960 . S
H1877 C1863 0.961 . S
H1878 C1863 0.961 . S
H1879 C1863 0.961 . S
H1880 C1864 0.931 . S
H1881 C1869 0.930 . S
H1882 C1870 0.956 . S
H1883 C1870 0.961 . S
H1884 C1870 0.961 . S
H1885 C1871 0.958 . S
H1886 C1871 0.961 . S
H1887 C1871 0.960 . S
C1888 C1889 1.391 . S
C1888 C1890 1.394 . S
C1888 H1904 0.931 . S
C1889 C1888 1.391 . S
C1889 C1893 1.376 . S
C1890 C1888 1.394 . S
C1890 C1891 1.369 . S
C1890 C1894 1.531 . S
C1891 C1890 1.369 . S
C1891 C1892 1.410 . S
C1891 C1899 1.503 . S
C1892 C1891 1.410 . S
C1892 C1893 1.392 . S
C1892 C1895 1.511 . S
C1893 C1889 1.376 . S
C1893 C1892 1.392 . S
C1893 H1905 0.929 . S
C1894 C1890 1.531 . S
C1894 H1906 0.960 . S
C1894 H1907 0.962 . S
C1894 H1908 0.960 . S
C1895 C1892 1.511 . S
C1895 H1909 0.961 . S
C1895 H1910 0.961 . S
C1895 H1911 0.961 . S
C1896 C1897 1.370 . S
C1896 C1898 1.363 . S
C1896 H1912 0.931 . S
C1897 C1896 1.370 . S
C1897 C1901 1.408 . S
C1898 C1896 1.363 . S
C1898 C1899 1.370 . S
C1898 C1902 1.524 . S
C1899 C1891 1.503 . S
C1899 C1898 1.370 . S
C1899 C1900 1.403 . S
C1900 C1899 1.403 . S
C1900 C1901 1.404 . S
C1900 C1903 1.539 . S
C1901 C1897 1.408 . S
C1901 C1900 1.404 . S
C1901 H1913 0.930 . S
C1902 C1898 1.524 . S
C1902 H1914 0.956 . S
C1902 H1915 0.961 . S
C1902 H1916 0.961 . S
C1903 C1900 1.539 . S
C1903 H1917 0.958 . S
C1903 H1918 0.961 . S
C1903 H1919 0.960 . S
H1904 C1888 0.931 . S
H1905 C1893 0.929 . S
H1906 C1894 0.960 . S
H1907 C1894 0.962 . S
H1908 C1894 0.960 . S
H1909 C1895 0.961 . S
H1910 C1895 0.961 . S
H1911 C1895 0.961 . S
H1912 C1896 0.931 . S
H1913 C1901 0.930 . S
H1914 C1902 0.956 . S
H1915 C1902 0.961 . S
H1916 C1902 0.961 . S
H1917 C1903 0.958 . S
H1918 C1903 0.961 . S
H1919 C1903 0.960 . S
C1920 C1921 1.391 . S
C1920 C1922 1.394 . S
C1920 H1936 0.931 . S
C1921 C1920 1.391 . S
C1921 C1925 1.376 . S
C1922 C1920 1.394 . S
C1922 C1923 1.369 . S
C1922 C1926 1.531 . S
C1923 C1922 1.369 . S
C1923 C1924 1.410 . S
C1923 C1931 1.503 . S
C1924 C1923 1.410 . S
C1924 C1925 1.392 . S
C1924 C1927 1.511 . S
C1925 C1921 1.376 . S
C1925 C1924 1.392 . S
C1925 H1937 0.929 . S
C1926 C1922 1.531 . S
C1926 H1938 0.960 . S
C1926 H1939 0.962 . S
C1926 H1940 0.960 . S
C1927 C1924 1.511 . S
C1927 H1941 0.961 . S
C1927 H1942 0.961 . S
C1927 H1943 0.961 . S
C1928 C1929 1.370 . S
C1928 C1930 1.363 . S
C1928 H1944 0.931 . S
C1929 C1928 1.370 . S
C1929 C1933 1.408 . S
C1930 C1928 1.363 . S
C1930 C1931 1.370 . S
C1930 C1934 1.524 . S
C1931 C1923 1.503 . S
C1931 C1930 1.370 . S
C1931 C1932 1.403 . S
C1932 C1931 1.403 . S
C1932 C1933 1.404 . S
C1932 C1935 1.539 . S
C1933 C1929 1.408 . S
C1933 C1932 1.404 . S
C1933 H1945 0.930 . S
C1934 C1930 1.524 . S
C1934 H1946 0.956 . S
C1934 H1947 0.961 . S
C1934 H1948 0.961 . S
C1935 C1932 1.539 . S
C1935 H1949 0.958 . S
C1935 H1950 0.961 . S
C1935 H1951 0.960 . S
H1936 C1920 0.931 . S
H1937 C1925 0.929 . S
H1938 C1926 0.960 . S
H1939 C1926 0.962 . S
H1940 C1926 0.960 . S
H1941 C1927 0.961 . S
H1942 C1927 0.961 . S
H1943 C1927 0.961 . S
H1944 C1928 0.931 . S
H1945 C1933 0.930 . S
H1946 C1934 0.956 . S
H1947 C1934 0.961 . S
H1948 C1934 0.961 . S
H1949 C1935 0.958 . S
H1950 C1935 0.961 . S
H1951 C1935 0.960 . S
C1952 C1953 1.391 . S
C1952 C1954 1.394 . S
C1952 H1968 0.931 . S
C1953 C1952 1.391 . S
C1953 C1957 1.376 . S
C1954 C1952 1.394 . S
C1954 C1955 1.369 . S
C1954 C1958 1.531 . S
C1955 C1954 1.369 . S
C1955 C1956 1.410 . S
C1955 C1963 1.503 . S
C1956 C1955 1.410 . S
C1956 C1957 1.392 . S
C1956 C1959 1.511 . S
C1957 C1953 1.376 . S
C1957 C1956 1.392 . S
C1957 H1969 0.929 . S
C1958 C1954 1.531 . S
C1958 H1970 0.960 . S
C1958 H1971 0.962 . S
C1958 H1972 0.960 . S
C1959 C1956 1.511 . S
C1959 H1973 0.961 . S
C1959 H1974 0.961 . S
C1959 H1975 0.961 . S
C1960 C1961 1.370 . S
C1960 C1962 1.363 . S
C1960 H1976 0.931 . S
C1961 C1960 1.370 . S
C1961 C1965 1.408 . S
C1962 C1960 1.363 . S
C1962 C1963 1.370 . S
C1962 C1966 1.524 . S
C1963 C1955 1.503 . S
C1963 C1962 1.370 . S
C1963 C1964 1.403 . S
C1964 C1963 1.403 . S
C1964 C1965 1.404 . S
C1964 C1967 1.539 . S
C1965 C1961 1.408 . S
C1965 C1964 1.404 . S
C1965 H1977 0.930 . S
C1966 C1962 1.524 . S
C1966 H1978 0.956 . S
C1966 H1979 0.961 . S
C1966 H1980 0.961 . S
C1967 C1964 1.539 . S
C1967 H1981 0.958 . S
C1967 H1982 0.961 . S
C1967 H1983 0.960 . S
H1968 C1952 0.931 . S
H1969 C1957 0.929 . S
H1970 C1958 0.960 . S
H1971 C1958 0.962 . S
H1972 C1958 0.960 . S
H1973 C1959 0.961 . S
H1974 C1959 0.961 . S
H1975 C1959 0.961 . S
H1976 C1960 0.931 . S
H1977 C1965 0.930 . S
H1978 C1966 0.956 . S
H1979 C1966 0.961 . S
H1980 C1966 0.961 . S
H1981 C1967 0.958 . S
H1982 C1967 0.961 . S
H1983 C1967 0.960 . S
C1984 C1985 1.391 . S
C1984 C1986 1.394 . S
C1984 H2000 0.931 . S
C1985 C1984 1.391 . S
C1985 C1989 1.376 . S
C1986 C1984 1.394 . S
C1986 C1987 1.369 . S
C1986 C1990 1.531 . S
C1987 C1986 1.369 . S
C1987 C1988 1.410 . S
C1987 C1995 1.503 . S
C1988 C1987 1.410 . S
C1988 C1989 1.392 . S
C1988 C1991 1.511 . S
C1989 C1985 1.376 . S
C1989 C1988 1.392 . S
C1989 H2001 0.929 . S
C1990 C1986 1.531 . S
C1990 H2002 0.960 . S
C1990 H2003 0.962 . S
C1990 H2004 0.960 . S
C1991 C1988 1.511 . S
C1991 H2005 0.961 . S
C1991 H2006 0.961 . S
C1991 H2007 0.961 . S
C1992 C1993 1.370 . S
C1992 C1994 1.363 . S
C1992 H2008 0.931 . S
C1993 C1992 1.370 . S
C1993 C1997 1.408 . S
C1994 C1992 1.363 . S
C1994 C1995 1.370 . S
C1994 C1998 1.524 . S
C1995 C1987 1.503 . S
C1995 C1994 1.370 . S
C1995 C1996 1.403 . S
C1996 C1995 1.403 . S
C1996 C1997 1.404 . S
C1996 C1999 1.539 . S
C1997 C1993 1.408 . S
C1997 C1996 1.404 . S
C1997 H2009 0.930 . S
C1998 C1994 1.524 . S
C1998 H2010 0.956 . S
C1998 H2011 0.961 . S
C1998 H2012 0.961 . S
C1999 C1996 1.539 . S
C1999 H2013 0.958 . S
C1999 H2014 0.961 . S
C1999 H2015 0.960 . S
H2000 C1984 0.931 . S
H2001 C1989 0.929 . S
H2002 C1990 0.960 . S
H2003 C1990 0.962 . S
H2004 C1990 0.960 . S
H2005 C1991 0.961 . S
H2006 C1991 0.961 . S
H2007 C1991 0.961 . S
H2008 C1992 0.931 . S
H2009 C1997 0.930 . S
H2010 C1998 0.956 . S
H2011 C1998 0.961 . S
H2012 C1998 0.961 . S
H2013 C1999 0.958 . S
H2014 C1999 0.961 . S
H2015 C1999 0.960 . S
C2016 C2017 1.391 . S
C2016 C2018 1.394 . S
C2016 H2032 0.931 . S
C2017 C2016 1.391 . S
C2017 C2021 1.376 . S
C2018 C2016 1.394 . S
C2018 C2019 1.369 . S
C2018 C2022 1.531 . S
C2019 C2018 1.369 . S
C2019 C2020 1.410 . S
C2019 C2027 1.503 . S
C2020 C2019 1.410 . S
C2020 C2021 1.392 . S
C2020 C2023 1.511 . S
C2021 C2017 1.376 . S
C2021 C2020 1.392 . S
C2021 H2033 0.929 . S
C2022 C2018 1.531 . S
C2022 H2034 0.960 . S
C2022 H2035 0.962 . S
C2022 H2036 0.960 . S
C2023 C2020 1.511 . S
C2023 H2037 0.961 . S
C2023 H2038 0.961 . S
C2023 H2039 0.961 . S
C2024 C2025 1.370 . S
C2024 C2026 1.363 . S
C2024 H2040 0.931 . S
C2025 C2024 1.370 . S
C2025 C2029 1.408 . S
C2026 C2024 1.363 . S
C2026 C2027 1.370 . S
C2026 C2030 1.524 . S
C2027 C2019 1.503 . S
C2027 C2026 1.370 . S
C2027 C2028 1.403 . S
C2028 C2027 1.403 . S
C2028 C2029 1.404 . S
C2028 C2031 1.539 . S
C2029 C2025 1.408 . S
C2029 C2028 1.404 . S
C2029 H2041 0.930 . S
C2030 C2026 1.524 . S
C2030 H2042 0.956 . S
C2030 H2043 0.961 . S
C2030 H2044 0.961 . S
C2031 C2028 1.539 . S
C2031 H2045 0.958 . S
C2031 H2046 0.961 . S
C2031 H2047 0.960 . S
H2032 C2016 0.931 . S
H2033 C2021 0.929 . S
H2034 C2022 0.960 . S
H2035 C2022 0.962 . S
H2036 C2022 0.960 . S
H2037 C2023 0.961 . S
H2038 C2023 0.961 . S
H2039 C2023 0.961 . S
H2040 C2024 0.931 . S
H2041 C2029 0.930 . S
H2042 C2030 0.956 . S
H2043 C2030 0.961 . S
H2044 C2030 0.961 . S
H2045 C2031 0.958 . S
H2046 C2031 0.961 . S
H2047 C2031 0.960 . S
C2048 C2049 1.391 . S
C2048 C2050 1.394 . S
C2048 H2064 0.931 . S
C2049 C2048 1.391 . S
C2049 C2053 1.376 . S
C2050 C2048 1.394 . S
C2050 C2051 1.369 . S
C2050 C2054 1.531 . S
C2051 C2050 1.369 . S
C2051 C2052 1.410 . S
C2051 C2059 1.503 . S
C2052 C2051 1.410 . S
C2052 C2053 1.392 . S
C2052 C2055 1.511 . S
C2053 C2049 1.376 . S
C2053 C2052 1.392 . S
C2053 H2065 0.929 . S
C2054 C2050 1.531 . S
C2054 H2066 0.960 . S
C2054 H2067 0.962 . S
C2054 H2068 0.960 . S
C2055 C2052 1.511 . S
C2055 H2069 0.961 . S
C2055 H2070 0.961 . S
C2055 H2071 0.961 . S
C2056 C2057 1.370 . S
C2056 C2058 1.363 . S
C2056 H2072 0.931 . S
C2057 C2056 1.370 . S
C2057 C2061 1.408 . S
C2058 C2056 1.363 . S
C2058 C2059 1.370 . S
C2058 C2062 1.524 . S
C2059 C2051 1.503 . S
C2059 C2058 1.370 . S
C2059 C2060 1.403 . S
C2060 C2059 1.403 . S
C2060 C2061 1.404 . S
C2060 C2063 1.539 . S
C2061 C2057 1.408 . S
C2061 C2060 1.404 . S
C2061 H2073 0.930 . S
C2062 C2058 1.524 . S
C2062 H2074 0.956 . S
C2062 H2075 0.961 . S
C2062 H2076 0.961 . S
C2063 C2060 1.539 . S
C2063 H2077 0.958 . S
C2063 H2078 0.961 . S
C2063 H2079 0.960 . S
H2064 C2048 0.931 . S
H2065 C2053 0.929 . S
H2066 C2054 0.960 . S
H2067 C2054 0.962 . S
H2068 C2054 0.960 . S
H2069 C2055 0.961 . S
H2070 C2055 0.961 . S
H2071 C2055 0.961 . S
H2072 C2056 0.931 . S
H2073 C2061 0.930 . S
H2074 C2062 0.956 . S
H2075 C2062 0.961 . S
H2076 C2062 0.961 . S
H2077 C2063 0.958 . S
H2078 C2063 0.961 . S
H2079 C2063 0.960 . S
C2080 C2081 1.391 . S
C2080 C2082 1.394 . S
C2080 H2096 0.931 . S
C2081 C2080 1.391 . S
C2081 C2085 1.376 . S
C2082 C2080 1.394 . S
C2082 C2083 1.369 . S
C2082 C2086 1.531 . S
C2083 C2082 1.369 . S
C2083 C2084 1.410 . S
C2083 C2091 1.503 . S
C2084 C2083 1.410 . S
C2084 C2085 1.392 . S
C2084 C2087 1.511 . S
C2085 C2081 1.376 . S
C2085 C2084 1.392 . S
C2085 H2097 0.929 . S
C2086 C2082 1.531 . S
C2086 H2098 0.960 . S
C2086 H2099 0.962 . S
C2086 H2100 0.960 . S
C2087 C2084 1.511 . S
C2087 H2101 0.961 . S
C2087 H2102 0.961 . S
C2087 H2103 0.961 . S
C2088 C2089 1.370 . S
C2088 C2090 1.363 . S
C2088 H2104 0.931 . S
C2089 C2088 1.370 . S
C2089 C2093 1.408 . S
C2090 C2088 1.363 . S
C2090 C2091 1.370 . S
C2090 C2094 1.524 . S
C2091 C2083 1.503 . S
C2091 C2090 1.370 . S
C2091 C2092 1.403 . S
C2092 C2091 1.403 . S
C2092 C2093 1.404 . S
C2092 C2095 1.539 . S
C2093 C2089 1.408 . S
C2093 C2092 1.404 . S
C2093 H2105 0.930 . S
C2094 C2090 1.524 . S
C2094 H2106 0.956 . S
C2094 H2107 0.961 . S
C2094 H2108 0.961 . S
C2095 C2092 1.539 . S
C2095 H2109 0.958 . S
C2095 H2110 0.961 . S
C2095 H2111 0.960 . S
H2096 C2080 0.931 . S
H2097 C2085 0.929 . S
H2098 C2086 0.960 . S
H2099 C2086 0.962 . S
H2100 C2086 0.960 . S
H2101 C2087 0.961 . S
H2102 C2087 0.961 . S
H2103 C2087 0.961 . S
H2104 C2088 0.931 . S
H2105 C2093 0.930 . S
H2106 C2094 0.956 . S
H2107 C2094 0.961 . S
H2108 C2094 0.961 . S
H2109 C2095 0.958 . S
H2110 C2095 0.961 . S
H2111 C2095 0.960 . S
C2112 C2113 1.391 . S
C2112 C2114 1.394 . S
C2112 H2128 0.931 . S
C2113 C2112 1.391 . S
C2113 C2117 1.376 . S
C2114 C2112 1.394 . S
C2114 C2115 1.369 . S
C2114 C2118 1.531 . S
C2115 C2114 1.369 . S
C2115 C2116 1.410 . S
C2115 C2123 1.503 . S
C2116 C2115 1.410 . S
C2116 C2117 1.392 . S
C2116 C2119 1.511 . S
C2117 C2113 1.376 . S
C2117 C2116 1.392 . S
C2117 H2129 0.929 . S
C2118 C2114 1.531 . S
C2118 H2130 0.960 . S
C2118 H2131 0.962 . S
C2118 H2132 0.960 . S
C2119 C2116 1.511 . S
C2119 H2133 0.961 . S
C2119 H2134 0.961 . S
C2119 H2135 0.961 . S
C2120 C2121 1.370 . S
C2120 C2122 1.363 . S
C2120 H2136 0.931 . S
C2121 C2120 1.370 . S
C2121 C2125 1.408 . S
C2122 C2120 1.363 . S
C2122 C2123 1.370 . S
C2122 C2126 1.524 . S
C2123 C2115 1.503 . S
C2123 C2122 1.370 . S
C2123 C2124 1.403 . S
C2124 C2123 1.403 . S
C2124 C2125 1.404 . S
C2124 C2127 1.539 . S
C2125 C2121 1.408 . S
C2125 C2124 1.404 . S
C2125 H2137 0.930 . S
C2126 C2122 1.524 . S
C2126 H2138 0.956 . S
C2126 H2139 0.961 . S
C2126 H2140 0.961 . S
C2127 C2124 1.539 . S
C2127 H2141 0.958 . S
C2127 H2142 0.961 . S
C2127 H2143 0.960 . S
H2128 C2112 0.931 . S
H2129 C2117 0.929 . S
H2130 C2118 0.960 . S
H2131 C2118 0.962 . S
H2132 C2118 0.960 . S
H2133 C2119 0.961 . S
H2134 C2119 0.961 . S
H2135 C2119 0.961 . S
H2136 C2120 0.931 . S
H2137 C2125 0.930 . S
H2138 C2126 0.956 . S
H2139 C2126 0.961 . S
H2140 C2126 0.961 . S
H2141 C2127 0.958 . S
H2142 C2127 0.961 . S
H2143 C2127 0.960 . S
C2144 C2145 1.391 . S
C2144 C2146 1.394 . S
C2144 H2160 0.931 . S
C2145 C2144 1.391 . S
C2145 C2149 1.376 . S
C2146 C2144 1.394 . S
C2146 C2147 1.369 . S
C2146 C2150 1.531 . S
C2147 C2146 1.369 . S
C2147 C2148 1.410 . S
C2147 C2155 1.503 . S
C2148 C2147 1.410 . S
C2148 C2149 1.392 . S
C2148 C2151 1.511 . S
C2149 C2145 1.376 . S
C2149 C2148 1.392 . S
C2149 H2161 0.929 . S
C2150 C2146 1.531 . S
C2150 H2162 0.960 . S
C2150 H2163 0.962 . S
C2150 H2164 0.960 . S
C2151 C2148 1.511 . S
C2151 H2165 0.961 . S
C2151 H2166 0.961 . S
C2151 H2167 0.961 . S
C2152 C2153 1.370 . S
C2152 C2154 1.363 . S
C2152 H2168 0.931 . S
C2153 C2152 1.370 . S
C2153 C2157 1.408 . S
C2154 C2152 1.363 . S
C2154 C2155 1.370 . S
C2154 C2158 1.524 . S
C2155 C2147 1.503 . S
C2155 C2154 1.370 . S
C2155 C2156 1.403 . S
C2156 C2155 1.403 . S
C2156 C2157 1.404 . S
C2156 C2159 1.539 . S
C2157 C2153 1.408 . S
C2157 C2156 1.404 . S
C2157 H2169 0.930 . S
C2158 C2154 1.524 . S
C2158 H2170 0.956 . S
C2158 H2171 0.961 . S
C2158 H2172 0.961 . S
C2159 C2156 1.539 . S
C2159 H2173 0.958 . S
C2159 H2174 0.961 . S
C2159 H2175 0.960 . S
H2160 C2144 0.931 . S
H2161 C2149 0.929 . S
H2162 C2150 0.960 . S
H2163 C2150 0.962 . S
H2164 C2150 0.960 . S
H2165 C2151 0.961 . S
H2166 C2151 0.961 . S
H2167 C2151 0.961 . S
H2168 C2152 0.931 . S
H2169 C2157 0.930 . S
H2170 C2158 0.956 . S
H2171 C2158 0.961 . S
H2172 C2158 0.961 . S
H2173 C2159 0.958 . S
H2174 C2159 0.961 . S
H2175 C2159 0.960 . S
C2176 C2177 1.391 . S
C2176 C2178 1.394 . S
C2176 H2192 0.931 . S
C2177 C2176 1.391 . S
C2177 C2181 1.376 . S
C2178 C2176 1.394 . S
C2178 C2179 1.369 . S
C2178 C2182 1.531 . S
C2179 C2178 1.369 . S
C2179 C2180 1.410 . S
C2179 C2187 1.503 . S
C2180 C2179 1.410 . S
C2180 C2181 1.392 . S
C2180 C2183 1.511 . S
C2181 C2177 1.376 . S
C2181 C2180 1.392 . S
C2181 H2193 0.929 . S
C2182 C2178 1.531 . S
C2182 H2194 0.960 . S
C2182 H2195 0.962 . S
C2182 H2196 0.960 . S
C2183 C2180 1.511 . S
C2183 H2197 0.961 . S
C2183 H2198 0.961 . S
C2183 H2199 0.961 . S
C2184 C2185 1.370 . S
C2184 C2186 1.363 . S
C2184 H2200 0.931 . S
C2185 C2184 1.370 . S
C2185 C2189 1.408 . S
C2186 C2184 1.363 . S
C2186 C2187 1.370 . S
C2186 C2190 1.524 . S
C2187 C2179 1.503 . S
C2187 C2186 1.370 . S
C2187 C2188 1.403 . S
C2188 C2187 1.403 . S
C2188 C2189 1.404 . S
C2188 C2191 1.539 . S
C2189 C2185 1.408 . S
C2189 C2188 1.404 . S
C2189 H2201 0.930 . S
C2190 C2186 1.524 . S
C2190 H2202 0.956 . S
C2190 H2203 0.961 . S
C2190 H2204 0.961 . S
C2191 C2188 1.539 . S
C2191 H2205 0.958 . S
C2191 H2206 0.961 . S
C2191 H2207 0.960 . S
H2192 C2176 0.931 . S
H2193 C2181 0.929 . S
H2194 C2182 0.960 . S
H2195 C2182 0.962 . S
H2196 C2182 0.960 . S
H2197 C2183 0.961 . S
H2198 C2183 0.961 . S
H2199 C2183 0.961 . S
H2200 C2184 0.931 . S
H2201 C2189 0.930 . S
H2202 C2190 0.956 . S
H2203 C2190 0.961 . S
H2204 C2190 0.961 . S
H2205 C2191 0.958 . S
H2206 C2191 0.961 . S
H2207 C2191 0.960 . S
C2208 C2209 1.391 . S
C2208 C2210 1.394 . S
C2208 H2224 0.931 . S
C2209 C2208 1.391 . S
C2209 C2213 1.376 . S
C2210 C2208 1.394 . S
C2210 C2211 1.369 . S
C2210 C2214 1.531 . S
C2211 C2210 1.369 . S
C2211 C2212 1.410 . S
C2211 C2219 1.503 . S
C2212 C2211 1.410 . S
C2212 C2213 1.392 . S
C2212 C2215 1.511 . S
C2213 C2209 1.376 . S
C2213 C2212 1.392 . S
C2213 H2225 0.929 . S
C2214 C2210 1.531 . S
C2214 H2226 0.960 . S
C2214 H2227 0.962 . S
C2214 H2228 0.960 . S
C2215 C2212 1.511 . S
C2215 H2229 0.961 . S
C2215 H2230 0.961 . S
C2215 H2231 0.961 . S
C2216 C2217 1.370 . S
C2216 C2218 1.363 . S
C2216 H2232 0.931 . S
C2217 C2216 1.370 . S
C2217 C2221 1.408 . S
C2218 C2216 1.363 . S
C2218 C2219 1.370 . S
C2218 C2222 1.524 . S
C2219 C2211 1.503 . S
C2219 C2218 1.370 . S
C2219 C2220 1.403 . S
C2220 C2219 1.403 . S
C2220 C2221 1.404 . S
C2220 C2223 1.539 . S
C2221 C2217 1.408 . S
C2221 C2220 1.404 . S
C2221 H2233 0.930 . S
C2222 C2218 1.524 . S
C2222 H2234 0.956 . S
C2222 H2235 0.961 . S
C2222 H2236 0.961 . S
C2223 C2220 1.539 . S
C2223 H2237 0.958 . S
C2223 H2238 0.961 . S
C2223 H2239 0.960 . S
H2224 C2208 0.931 . S
H2225 C2213 0.929 . S
H2226 C2214 0.960 . S
H2227 C2214 0.962 . S
H2228 C2214 0.960 . S
H2229 C2215 0.961 . S
H2230 C2215 0.961 . S
H2231 C2215 0.961 . S
H2232 C2216 0.931 . S
H2233 C2221 0.930 . S
H2234 C2222 0.956 . S
H2235 C2222 0.961 . S
H2236 C2222 0.961 . S
H2237 C2223 0.958 . S
H2238 C2223 0.961 . S
H2239 C2223 0.960 . S
C2240 C2241 1.391 . S
C2240 C2242 1.394 . S
C2240 H2256 0.931 . S
C2241 C2240 1.391 . S
C2241 C2245 1.376 . S
C2242 C2240 1.394 . S
C2242 C2243 1.369 . S
C2242 C2246 1.531 . S
C2243 C2242 1.369 . S
C2243 C2244 1.410 . S
C2243 C2251 1.503 . S
C2244 C2243 1.410 . S
C2244 C2245 1.392 . S
C2244 C2247 1.511 . S
C2245 C2241 1.376 . S
C2245 C2244 1.392 . S
C2245 H2257 0.929 . S
C2246 C2242 1.531 . S
C2246 H2258 0.960 . S
C2246 H2259 0.962 . S
C2246 H2260 0.960 . S
C2247 C2244 1.511 . S
C2247 H2261 0.961 . S
C2247 H2262 0.961 . S
C2247 H2263 0.961 . S
C2248 C2249 1.370 . S
C2248 C2250 1.363 . S
C2248 H2264 0.931 . S
C2249 C2248 1.370 . S
C2249 C2253 1.408 . S
C2250 C2248 1.363 . S
C2250 C2251 1.370 . S
C2250 C2254 1.524 . S
C2251 C2243 1.503 . S
C2251 C2250 1.370 . S
C2251 C2252 1.403 . S
C2252 C2251 1.403 . S
C2252 C2253 1.404 . S
C2252 C2255 1.539 . S
C2253 C2249 1.408 . S
C2253 C2252 1.404 . S
C2253 H2265 0.930 . S
C2254 C2250 1.524 . S
C2254 H2266 0.956 . S
C2254 H2267 0.961 . S
C2254 H2268 0.961 . S
C2255 C2252 1.539 . S
C2255 H2269 0.958 . S
C2255 H2270 0.961 . S
C2255 H2271 0.960 . S
H2256 C2240 0.931 . S
H2257 C2245 0.929 . S
H2258 C2246 0.960 . S
H2259 C2246 0.962 . S
H2260 C2246 0.960 . S
H2261 C2247 0.961 . S
H2262 C2247 0.961 . S
H2263 C2247 0.961 . S
H2264 C2248 0.931 . S
H2265 C2253 0.930 . S
H2266 C2254 0.956 . S
H2267 C2254 0.961 . S
H2268 C2254 0.961 . S
H2269 C2255 0.958 . S
H2270 C2255 0.961 . S
H2271 C2255 0.960 . S
C2272 C2273 1.391 . S
C2272 C2274 1.394 . S
C2272 H2288 0.931 . S
C2273 C2272 1.391 . S
C2273 C2277 1.376 . S
C2274 C2272 1.394 . S
C2274 C2275 1.369 . S
C2274 C2278 1.531 . S
C2275 C2274 1.369 . S
C2275 C2276 1.410 . S
C2275 C2283 1.503 . S
C2276 C2275 1.410 . S
C2276 C2277 1.392 . S
C2276 C2279 1.511 . S
C2277 C2273 1.376 . S
C2277 C2276 1.392 . S
C2277 H2289 0.929 . S
C2278 C2274 1.531 . S
C2278 H2290 0.960 . S
C2278 H2291 0.962 . S
C2278 H2292 0.960 . S
C2279 C2276 1.511 . S
C2279 H2293 0.961 . S
C2279 H2294 0.961 . S
C2279 H2295 0.961 . S
C2280 C2281 1.370 . S
C2280 C2282 1.363 . S
C2280 H2296 0.931 . S
C2281 C2280 1.370 . S
C2281 C2285 1.408 . S
C2282 C2280 1.363 . S
C2282 C2283 1.370 . S
C2282 C2286 1.524 . S
C2283 C2275 1.503 . S
C2283 C2282 1.370 . S
C2283 C2284 1.403 . S
C2284 C2283 1.403 . S
C2284 C2285 1.404 . S
C2284 C2287 1.539 . S
C2285 C2281 1.408 . S
C2285 C2284 1.404 . S
C2285 H2297 0.930 . S
C2286 C2282 1.524 . S
C2286 H2298 0.956 . S
C2286 H2299 0.961 . S
C2286 H2300 0.961 . S
C2287 C2284 1.539 . S
C2287 H2301 0.958 . S
C2287 H2302 0.961 . S
C2287 H2303 0.960 . S
H2288 C2272 0.931 . S
H2289 C2277 0.929 . S
H2290 C2278 0.960 . S
H2291 C2278 0.962 . S
H2292 C2278 0.960 . S
H2293 C2279 0.961 . S
H2294 C2279 0.961 . S
H2295 C2279 0.961 . S
H2296 C2280 0.931 . S
H2297 C2285 0.930 . S
H2298 C2286 0.956 . S
H2299 C2286 0.961 . S
H2300 C2286 0.961 . S
H2301 C2287 0.958 . S
H2302 C2287 0.961 . S
H2303 C2287 0.960 . S
C2304 C2305 1.391 . S
C2304 C2306 1.394 . S
C2304 H2320 0.931 . S
C2305 C2304 1.391 . S
C2305 C2309 1.376 . S
C2306 C2304 1.394 . S
C2306 C2307 1.369 . S
C2306 C2310 1.531 . S
C2307 C2306 1.369 . S
C2307 C2308 1.410 . S
C2307 C2315 1.503 . S
C2308 C2307 1.410 . S
C2308 C2309 1.392 . S
C2308 C2311 1.511 . S
C2309 C2305 1.376 . S
C2309 C2308 1.392 . S
C2309 H2321 0.929 . S
C2310 C2306 1.531 . S
C2310 H2322 0.960 . S
C2310 H2323 0.962 . S
C2310 H2324 0.960 . S
C2311 C2308 1.511 . S
C2311 H2325 0.961 . S
C2311 H2326 0.961 . S
C2311 H2327 0.961 . S
C2312 C2313 1.370 . S
C2312 C2314 1.363 . S
C2312 H2328 0.931 . S
C2313 C2312 1.370 . S
C2313 C2317 1.408 . S
C2314 C2312 1.363 . S
C2314 C2315 1.370 . S
C2314 C2318 1.524 . S
C2315 C2307 1.503 . S
C2315 C2314 1.370 . S
C2315 C2316 1.403 . S
C2316 C2315 1.403 . S
C2316 C2317 1.404 . S
C2316 C2319 1.539 . S
C2317 C2313 1.408 . S
C2317 C2316 1.404 . S
C2317 H2329 0.930 . S
C2318 C2314 1.524 . S
C2318 H2330 0.956 . S
C2318 H2331 0.961 . S
C2318 H2332 0.961 . S
C2319 C2316 1.539 . S
C2319 H2333 0.958 . S
C2319 H2334 0.961 . S
C2319 H2335 0.960 . S
H2320 C2304 0.931 . S
H2321 C2309 0.929 . S
H2322 C2310 0.960 . S
H2323 C2310 0.962 . S
H2324 C2310 0.960 . S
H2325 C2311 0.961 . S
H2326 C2311 0.961 . S
H2327 C2311 0.961 . S
H2328 C2312 0.931 . S
H2329 C2317 0.930 . S
H2330 C2318 0.956 . S
H2331 C2318 0.961 . S
H2332 C2318 0.961 . S
H2333 C2319 0.958 . S
H2334 C2319 0.961 . S
H2335 C2319 0.960 . S
C2336 C2337 1.391 . S
C2336 C2338 1.394 . S
C2336 H2352 0.931 . S
C2337 C2336 1.391 . S
C2337 C2341 1.376 . S
C2338 C2336 1.394 . S
C2338 C2339 1.369 . S
C2338 C2342 1.531 . S
C2339 C2338 1.369 . S
C2339 C2340 1.410 . S
C2339 C2347 1.503 . S
C2340 C2339 1.410 . S
C2340 C2341 1.392 . S
C2340 C2343 1.511 . S
C2341 C2337 1.376 . S
C2341 C2340 1.392 . S
C2341 H2353 0.929 . S
C2342 C2338 1.531 . S
C2342 H2354 0.960 . S
C2342 H2355 0.962 . S
C2342 H2356 0.960 . S
C2343 C2340 1.511 . S
C2343 H2357 0.961 . S
C2343 H2358 0.961 . S
C2343 H2359 0.961 . S
C2344 C2345 1.370 . S
C2344 C2346 1.363 . S
C2344 H2360 0.931 . S
C2345 C2344 1.370 . S
C2345 C2349 1.408 . S
C2346 C2344 1.363 . S
C2346 C2347 1.370 . S
C2346 C2350 1.524 . S
C2347 C2339 1.503 . S
C2347 C2346 1.370 . S
C2347 C2348 1.403 . S
C2348 C2347 1.403 . S
C2348 C2349 1.404 . S
C2348 C2351 1.539 . S
C2349 C2345 1.408 . S
C2349 C2348 1.404 . S
C2349 H2361 0.930 . S
C2350 C2346 1.524 . S
C2350 H2362 0.956 . S
C2350 H2363 0.961 . S
C2350 H2364 0.961 . S
C2351 C2348 1.539 . S
C2351 H2365 0.958 . S
C2351 H2366 0.961 . S
C2351 H2367 0.960 . S
H2352 C2336 0.931 . S
H2353 C2341 0.929 . S
H2354 C2342 0.960 . S
H2355 C2342 0.962 . S
H2356 C2342 0.960 . S
H2357 C2343 0.961 . S
H2358 C2343 0.961 . S
H2359 C2343 0.961 . S
H2360 C2344 0.931 . S
H2361 C2349 0.930 . S
H2362 C2350 0.956 . S
H2363 C2350 0.961 . S
H2364 C2350 0.961 . S
H2365 C2351 0.958 . S
H2366 C2351 0.961 . S
H2367 C2351 0.960 . S
C2368 C2369 1.391 . S
C2368 C2370 1.394 . S
C2368 H2384 0.931 . S
C2369 C2368 1.391 . S
C2369 C2373 1.376 . S
C2370 C2368 1.394 . S
C2370 C2371 1.369 . S
C2370 C2374 1.531 . S
C2371 C2370 1.369 . S
C2371 C2372 1.410 . S
C2371 C2379 1.503 . S
C2372 C2371 1.410 . S
C2372 C2373 1.392 . S
C2372 C2375 1.511 . S
C2373 C2369 1.376 . S
C2373 C2372 1.392 . S
C2373 H2385 0.929 . S
C2374 C2370 1.531 . S
C2374 H2386 0.960 . S
C2374 H2387 0.962 . S
C2374 H2388 0.960 . S
C2375 C2372 1.511 . S
C2375 H2389 0.961 . S
C2375 H2390 0.961 . S
C2375 H2391 0.961 . S
C2376 C2377 1.370 . S
C2376 C2378 1.363 . S
C2376 H2392 0.931 . S
C2377 C2376 1.370 . S
C2377 C2381 1.408 . S
C2378 C2376 1.363 . S
C2378 C2379 1.370 . S
C2378 C2382 1.524 . S
C2379 C2371 1.503 . S
C2379 C2378 1.370 . S
C2379 C2380 1.403 . S
C2380 C2379 1.403 . S
C2380 C2381 1.404 . S
C2380 C2383 1.539 . S
C2381 C2377 1.408 . S
C2381 C2380 1.404 . S
C2381 H2393 0.930 . S
C2382 C2378 1.524 . S
C2382 H2394 0.956 . S
C2382 H2395 0.961 . S
C2382 H2396 0.961 . S
C2383 C2380 1.539 . S
C2383 H2397 0.958 . S
C2383 H2398 0.961 . S
C2383 H2399 0.960 . S
H2384 C2368 0.931 . S
H2385 C2373 0.929 . S
H2386 C2374 0.960 . S
H2387 C2374 0.962 . S
H2388 C2374 0.960 . S
H2389 C2375 0.961 . S
H2390 C2375 0.961 . S
H2391 C2375 0.961 . S
H2392 C2376 0.931 . S
H2393 C2381 0.930 . S
H2394 C2382 0.956 . S
H2395 C2382 0.961 . S
H2396 C2382 0.961 . S
H2397 C2383 0.958 . S
H2398 C2383 0.961 . S
H2399 C2383 0.960 . S
C873 C689 1.648 . S
C865 C74 1.624 . S
C905 C694 1.242 . S
C897 C153 1.236 . S
C937 C695 1.607 . S
C929 C231 1.608 . S
C961 C310 0.791 . S
C969 C699 0.649 . S
C993 C394 1.227 . S
C1001 C702 1.257 . S
C1033 C703 1.603 . S
C1025 C494 1.603 . S
C1057 C573 0.820 . S
C1065 C680 0.632 . S
C1089 C651 1.621 . S
C1097 C696 1.650 . S
C1129 C734 2.352 . S
C1121 C56 2.438 . S
C1153 C151 1.570 . S
C1161 C760 1.531 . S
C1193 C712 1.257 . S
C1185 C237 1.202 . S
C1225 C767 1.551 . S
C1217 C326 1.565 . S
C1249 C410 1.571 . S
C1257 C721 1.575 . S
C1289 C763 2.338 . S
C1281 C476 2.425 . S
C1313 C571 1.596 . S
C1321 C727 1.555 . S
C1345 C657 1.176 . S
C1353 C758 1.225 . S
C1377 C58 1.130 . S
C1385 C766 1.243 . S
C1409 C392 1.574 . S
C1417 C753 1.551 . S
C1449 C731 1.228 . S
C1441 C478 1.230 . S
C1481 C759 1.550 . S
C1473 C567 1.564 . S
C1505 C655 2.442 . S
C1513 C726 2.348 . S
C1537 C235 2.425 . S
C1545 C744 2.336 . S
C1577 C735 1.571 . S
C1569 C308 1.589 . S
C1601 C147 1.585 . S
C1609 C728 1.556 . S
C1633 C662 1.582 . S
C1641 C790 1.602 . S
C1665 C405 1.108 . S
C1673 C785 1.215 . S
C1705 C799 1.535 . S
C1697 C483 1.557 . S
C1737 C776 0.380 . S
C1729 C562 0.827 . S
C1761 C142 1.205 . S
C1769 C792 1.239 . S
C1801 C791 1.512 . S
C1793 C242 1.533 . S
C1825 C321 0.943 . S
C1833 C795 0.373 . S
C1857 C63 1.583 . S
C1865 C798 1.596 . S
C1889 C644 2.445 . S
C1897 C824 2.402 . S
C1929 C840 1.494 . S
C1921 C403 1.587 . S
C1953 C489 1.244 . S
C1961 C822 1.260 . S
C1985 C578 1.546 . S
C1993 C855 1.559 . S
C2025 C831 1.533 . S
C2017 C158 1.572 . S
C2049 C224 2.460 . S
C2057 C849 2.387 . S
C2089 C827 1.495 . S
C2081 C319 1.577 . S
C2121 C862 1.257 . S
C2113 C69 1.212 . S
C2153 C854 1.265 . S
C2145 C646 1.224 . S
C2177 C140 1.579 . S
C2185 C859 1.505 . S
C2209 C226 1.166 . S
C2217 C830 1.260 . S
C2249 C863 1.561 . S
C2241 C315 1.544 . S
C2273 C67 2.446 . S
C2281 C817 2.406 . S
C2305 C487 2.455 . S
C2313 C856 2.398 . S
C2345 C808 1.511 . S
C2337 C560 1.567 . S
C2377 C823 1.548 . S
C2369 C399 1.544 . S
