# Generated by pormake.
# Topology ocu, (6,8)-cn, num edge types: 1
# Building blocks:
#     Node 0, Type 0, BuildingBlock: KUMBOL_clean_sbu_0, # of connection points: 6
#     Node 1, Type 0, BuildingBlock: KUMBOL_clean_sbu_0, # of connection points: 6
#     Node 2, Type 0, BuildingBlock: KUMBOL_clean_sbu_0, # of connection points: 6
#     Node 3, Type 0, BuildingBlock: KUMBOL_clean_sbu_0, # of connection points: 6
#     Node 4, Type 0, BuildingBlock: KUMBOL_clean_sbu_0, # of connection points: 6
#     Node 5, Type 0, BuildingBlock: KUMBOL_clean_sbu_0, # of connection points: 6
#     Node 6, Type 0, BuildingBlock: KUMBOL_clean_sbu_0, # of connection points: 6
#     Node 7, Type 0, BuildingBlock: KUMBOL_clean_sbu_0, # of connection points: 6
#     Node 8, Type 1, BuildingBlock: GIZVER_clean_sbu_0, # of connection points: 8
#     Node 9, Type 1, BuildingBlock: GIZVER_clean_sbu_0, # of connection points: 8
#     Node 10, Type 1, BuildingBlock: GIZVER_clean_sbu_0, # of connection points: 8
#     Node 11, Type 1, BuildingBlock: GIZVER_clean_sbu_0, # of connection points: 8
#     Node 12, Type 1, BuildingBlock: GIZVER_clean_sbu_0, # of connection points: 8
#     Node 13, Type 1, BuildingBlock: GIZVER_clean_sbu_0, # of connection points: 8
#     Edge 14, Type (0, 1), BuildingBlock: XUDNAN_clean_linker_2, # of connection points: 2
#     Edge 15, Type (0, 1), BuildingBlock: XUDNAN_clean_linker_2, # of connection points: 2
#     Edge 16, Type (0, 1), BuildingBlock: XUDNAN_clean_linker_2, # of connection points: 2
#     Edge 17, Type (0, 1), BuildingBlock: XUDNAN_clean_linker_2, # of connection points: 2
#     Edge 18, Type (0, 1), BuildingBlock: XUDNAN_clean_linker_2, # of connection points: 2
#     Edge 19, Type (0, 1), BuildingBlock: XUDNAN_clean_linker_2, # of connection points: 2
#     Edge 20, Type (0, 1), BuildingBlock: XUDNAN_clean_linker_2, # of connection points: 2
#     Edge 21, Type (0, 1), BuildingBlock: XUDNAN_clean_linker_2, # of connection points: 2
#     Edge 22, Type (0, 1), BuildingBlock: XUDNAN_clean_linker_2, # of connection points: 2
#     Edge 23, Type (0, 1), BuildingBlock: XUDNAN_clean_linker_2, # of connection points: 2
#     Edge 24, Type (0, 1), BuildingBlock: XUDNAN_clean_linker_2, # of connection points: 2
#     Edge 25, Type (0, 1), BuildingBlock: XUDNAN_clean_linker_2, # of connection points: 2
#     Edge 26, Type (0, 1), BuildingBlock: XUDNAN_clean_linker_2, # of connection points: 2
#     Edge 27, Type (0, 1), BuildingBlock: XUDNAN_clean_linker_2, # of connection points: 2
#     Edge 28, Type (0, 1), BuildingBlock: XUDNAN_clean_linker_2, # of connection points: 2
#     Edge 29, Type (0, 1), BuildingBlock: XUDNAN_clean_linker_2, # of connection points: 2
#     Edge 30, Type (0, 1), BuildingBlock: XUDNAN_clean_linker_2, # of connection points: 2
#     Edge 31, Type (0, 1), BuildingBlock: XUDNAN_clean_linker_2, # of connection points: 2
#     Edge 32, Type (0, 1), BuildingBlock: XUDNAN_clean_linker_2, # of connection points: 2
#     Edge 33, Type (0, 1), BuildingBlock: XUDNAN_clean_linker_2, # of connection points: 2
#     Edge 34, Type (0, 1), BuildingBlock: XUDNAN_clean_linker_2, # of connection points: 2
#     Edge 35, Type (0, 1), BuildingBlock: XUDNAN_clean_linker_2, # of connection points: 2
#     Edge 36, Type (0, 1), BuildingBlock: XUDNAN_clean_linker_2, # of connection points: 2
#     Edge 37, Type (0, 1), BuildingBlock: XUDNAN_clean_linker_2, # of connection points: 2
#     Edge 38, Type (0, 1), BuildingBlock: XUDNAN_clean_linker_2, # of connection points: 2
#     Edge 39, Type (0, 1), BuildingBlock: XUDNAN_clean_linker_2, # of connection points: 2
#     Edge 40, Type (0, 1), BuildingBlock: XUDNAN_clean_linker_2, # of connection points: 2
#     Edge 41, Type (0, 1), BuildingBlock: XUDNAN_clean_linker_2, # of connection points: 2
#     Edge 42, Type (0, 1), BuildingBlock: XUDNAN_clean_linker_2, # of connection points: 2
#     Edge 43, Type (0, 1), BuildingBlock: XUDNAN_clean_linker_2, # of connection points: 2
#     Edge 44, Type (0, 1), BuildingBlock: XUDNAN_clean_linker_2, # of connection points: 2
#     Edge 45, Type (0, 1), BuildingBlock: XUDNAN_clean_linker_2, # of connection points: 2
#     Edge 46, Type (0, 1), BuildingBlock: XUDNAN_clean_linker_2, # of connection points: 2
#     Edge 47, Type (0, 1), BuildingBlock: XUDNAN_clean_linker_2, # of connection points: 2
#     Edge 48, Type (0, 1), BuildingBlock: XUDNAN_clean_linker_2, # of connection points: 2
#     Edge 49, Type (0, 1), BuildingBlock: XUDNAN_clean_linker_2, # of connection points: 2
#     Edge 50, Type (0, 1), BuildingBlock: XUDNAN_clean_linker_2, # of connection points: 2
#     Edge 51, Type (0, 1), BuildingBlock: XUDNAN_clean_linker_2, # of connection points: 2
#     Edge 52, Type (0, 1), BuildingBlock: XUDNAN_clean_linker_2, # of connection points: 2
#     Edge 53, Type (0, 1), BuildingBlock: XUDNAN_clean_linker_2, # of connection points: 2
#     Edge 54, Type (0, 1), BuildingBlock: XUDNAN_clean_linker_2, # of connection points: 2
#     Edge 55, Type (0, 1), BuildingBlock: XUDNAN_clean_linker_2, # of connection points: 2
#     Edge 56, Type (0, 1), BuildingBlock: XUDNAN_clean_linker_2, # of connection points: 2
#     Edge 57, Type (0, 1), BuildingBlock: XUDNAN_clean_linker_2, # of connection points: 2
#     Edge 58, Type (0, 1), BuildingBlock: XUDNAN_clean_linker_2, # of connection points: 2
#     Edge 59, Type (0, 1), BuildingBlock: XUDNAN_clean_linker_2, # of connection points: 2
#     Edge 60, Type (0, 1), BuildingBlock: XUDNAN_clean_linker_2, # of connection points: 2
#     Edge 61, Type (0, 1), BuildingBlock: XUDNAN_clean_linker_2, # of connection points: 2
# Relax obj value: 0.190
# Max RMSD: 0.299
# Mean RMSD: 0.217
data_MOF--net-ocu--node1-KUMBOL_clean_sbu_0--node2-GIZVER_clean_sbu_0--edge1-XUDNAN_clean_linker_2
_symmetry_space_group_name_H-M    P1
_symmetry_Int_Tables_number       1
_symmetry_cell_setting            triclinic
loop_
_symmetry_equiv_pos_as_xyz
'x, y, z'
_cell_length_a     43.653445
_cell_length_b     43.376643
_cell_length_c     34.51994
_cell_angle_alpha  83.266092
_cell_angle_beta   96.069033
_cell_angle_gamma 111.81514
loop_
_atom_site_label
_atom_site_type_symbol
_atom_site_fract_x
_atom_site_fract_y
_atom_site_fract_z
_atom_type_partial_charge
Gd0 Gd 0.30216 0.32314 0.31212 0.0
Gd1 Gd 0.27207 0.26433 0.24326 0.0
C2 C 0.2401 0.29486 0.11968 0.0
C3 C 0.18347 0.28911 0.12673 0.0
C4 C 0.21788 0.27974 0.18386 0.0
C5 C 0.2443 0.287 0.16039 0.0
C6 C 0.18729 0.28087 0.16701 0.0
C7 C 0.20977 0.29612 0.1032 0.0
C8 C 0.26617 0.30026 0.0963 0.0
C9 C 0.29507 0.29639 0.11311 0.0
N10 N 0.27344 0.28515 0.17676 0.0
C11 C 0.29795 0.2879 0.15323 0.0
H12 H 0.31953 0.28248 0.16493 0.0
C13 C 0.19663 0.2653 0.24659 0.0
N14 N 0.22198 0.27183 0.22294 0.0
C15 C 0.16626 0.26674 0.23117 0.0
C16 C 0.16147 0.27432 0.19121 0.0
H17 H 0.19953 0.2594 0.27751 0.0
H18 H 0.20628 0.30216 0.07209 0.0
H19 H 0.30469 0.26538 0.38419 0.0
H20 H 0.26379 0.30625 0.06502 0.0
H21 H 0.31482 0.299 0.095 0.0
H22 H 0.16022 0.29022 0.11348 0.0
H23 H 0.34424 0.40284 0.27884 0.0
H24 H 0.40506 0.28399 0.42529 0.0
H25 H 0.3454 0.25136 0.43004 0.0
H26 H 0.46538 0.38253 0.34763 0.0
H27 H 0.14647 0.26181 0.25017 0.0
H28 H 0.13782 0.27531 0.17937 0.0
H29 H 0.44977 0.33171 0.39263 0.0
H30 H 0.40216 0.44112 0.27313 0.0
N31 N 0.34043 0.30502 0.35235 0.0
C32 C 0.38719 0.29025 0.4049 0.0
C33 C 0.35357 0.27179 0.40767 0.0
C34 C 0.3973 0.31704 0.37637 0.0
C35 C 0.37297 0.32432 0.35064 0.0
C36 C 0.33046 0.27976 0.38132 0.0
N37 N 0.35699 0.36254 0.30737 0.0
C38 C 0.38159 0.35354 0.32647 0.0
C39 C 0.3968 0.41641 0.2878 0.0
C40 C 0.42247 0.40647 0.30466 0.0
C41 C 0.36407 0.39451 0.29068 0.0
C42 C 0.41499 0.3753 0.32574 0.0
H43 H 0.4478 0.42376 0.30318 0.0
O44 O 0.31761 0.36492 0.34775 0.0
O45 O 0.26432 0.31237 0.25844 0.0
O46 O 0.32178 0.30176 0.22687 0.0
O47 O 0.31882 0.34653 0.25289 0.0
O48 O 0.26959 0.35325 0.28549 0.0
O49 O 0.27377 0.32184 0.36083 0.0
O50 O 0.23275 0.21781 0.2286 0.0
O51 O 0.30884 0.27477 0.29777 0.0
O52 O 0.2638 0.27813 0.3401 0.0
O53 O 0.24318 0.23857 0.29488 0.0
O54 O 0.30233 0.2328 0.27237 0.0
O55 O 0.28231 0.23067 0.20993 0.0
C56 C 0.25274 0.33726 0.25614 0.0
C57 C 0.43961 0.36632 0.3482 0.0
C58 C 0.43073 0.33742 0.37385 0.0
C59 C 0.29479 0.3501 0.37209 0.0
C60 C 0.30547 0.35101 0.41391 0.0
C61 C 0.33561 0.34818 0.42881 0.0
C62 C 0.2856 0.35675 0.43909 0.0
C63 C 0.29561 0.36016 0.47889 0.0
C64 C 0.34522 0.35038 0.46864 0.0
C65 C 0.32544 0.35662 0.49367 0.0
C66 C 0.33082 0.33405 0.22811 0.0
C67 C 0.31948 0.2493 0.30102 0.0
C68 C 0.25144 0.21087 0.20645 0.0
C69 C 0.23876 0.20251 0.16615 0.0
C70 C 0.20817 0.20344 0.1499 0.0
C71 C 0.25874 0.19448 0.14298 0.0
C72 C 0.24889 0.18771 0.10393 0.0
C73 C 0.19817 0.19676 0.1109 0.0
C74 C 0.21832 0.18874 0.08797 0.0
C75 C 0.24428 0.24864 0.32959 0.0
H76 H 0.35208 0.34508 0.40979 0.0
H77 H 0.26307 0.3604 0.42709 0.0
H78 H 0.36848 0.34815 0.4799 0.0
H79 H 0.3337 0.3594 0.52422 0.0
H80 H 0.19214 0.2095 0.16709 0.0
H81 H 0.28203 0.193 0.15569 0.0
H82 H 0.17467 0.19768 0.09845 0.0
H83 H 0.2101 0.18333 0.05795 0.0
Gd84 Gd 0.75575 0.32003 0.29636 0.0
Gd85 Gd 0.80687 0.27601 0.26746 0.0
C86 C 0.9186 0.30258 0.28362 0.0
C87 C 0.93736 0.33926 0.22514 0.0
C88 C 0.87871 0.31501 0.23629 0.0
C89 C 0.8857 0.29924 0.2715 0.0
C90 C 0.90441 0.33428 0.21213 0.0
C91 C 0.94444 0.3234 0.26079 0.0
C92 C 0.92446 0.284 0.3176 0.0
C93 C 0.89783 0.26228 0.33816 0.0
N94 N 0.86015 0.27909 0.29276 0.0
C95 C 0.86566 0.26001 0.32521 0.0
H96 H 0.84536 0.24363 0.34184 0.0
C97 C 0.83831 0.31911 0.18683 0.0
N98 N 0.8466 0.3093 0.2242 0.0
C99 C 0.86287 0.33801 0.16169 0.0
C100 C 0.89612 0.34643 0.17475 0.0
H101 H 0.81266 0.31254 0.17638 0.0
H102 H 0.96989 0.32656 0.26985 0.0
H103 H 0.70241 0.33542 0.22668 0.0
H104 H 0.94935 0.28569 0.32772 0.0
H105 H 0.90208 0.24751 0.36421 0.0
H106 H 0.95744 0.35431 0.20717 0.0
H107 H 0.7674 0.29411 0.39383 0.0
H108 H 0.60447 0.28541 0.26451 0.0
H109 H 0.64196 0.32084 0.21479 0.0
H110 H 0.62214 0.2393 0.39386 0.0
H111 H 0.85607 0.34584 0.13221 0.0
H112 H 0.91512 0.36107 0.15518 0.0
H113 H 0.59731 0.25479 0.33103 0.0
H114 H 0.73337 0.26285 0.44685 0.0
N115 N 0.69892 0.30862 0.28276 0.0
C116 C 0.63095 0.29203 0.27008 0.0
C117 C 0.65205 0.31212 0.24195 0.0
C118 C 0.64425 0.28138 0.30546 0.0
C119 C 0.6789 0.2906 0.31133 0.0
C120 C 0.68619 0.32053 0.24892 0.0
N121 N 0.72666 0.2921 0.35228 0.0
C122 C 0.69309 0.28224 0.34703 0.0
C123 C 0.72172 0.26813 0.41892 0.0
C124 C 0.68739 0.25659 0.41335 0.0
C125 C 0.74107 0.2862 0.38822 0.0
C126 C 0.67263 0.26393 0.37735 0.0
H127 H 0.67253 0.24241 0.43719 0.0
O128 O 0.79009 0.36755 0.31561 0.0
O129 O 0.79711 0.32247 0.26413 0.0
O130 O 0.83662 0.30713 0.3166 0.0
O131 O 0.79792 0.32337 0.34306 0.0
O132 O 0.77007 0.34886 0.23717 0.0
O133 O 0.73841 0.35958 0.30464 0.0
O134 O 0.81092 0.2507 0.2184 0.0
O135 O 0.7633 0.27261 0.29686 0.0
O136 O 0.72599 0.28627 0.24888 0.0
O137 O 0.76702 0.27693 0.21938 0.0
O138 O 0.78931 0.24371 0.323 0.0
O139 O 0.78618 0.22204 0.26886 0.0
C140 C 0.79715 0.34359 0.23596 0.0
C141 C 0.63812 0.25363 0.371 0.0
C142 C 0.62397 0.26239 0.3352 0.0
C143 C 0.76815 0.38147 0.31004 0.0
C144 C 0.77683 0.41202 0.28314 0.0
C145 C 0.80257 0.44143 0.29287 0.0
C146 C 0.76093 0.41067 0.24572 0.0
C147 C 0.77012 0.43777 0.2173 0.0
C148 C 0.81187 0.46904 0.26525 0.0
C149 C 0.79584 0.46733 0.22771 0.0
C150 C 0.82769 0.32134 0.34337 0.0
C151 C 0.76373 0.25157 0.32499 0.0
C152 C 0.79893 0.22128 0.23674 0.0
C153 C 0.81995 0.20121 0.23939 0.0
C154 C 0.82948 0.19306 0.20564 0.0
C155 C 0.83365 0.19343 0.27595 0.0
C156 C 0.85846 0.17996 0.27932 0.0
C157 C 0.85308 0.178 0.20871 0.0
C158 C 0.86793 0.17191 0.2453 0.0
C159 C 0.7358 0.27409 0.221 0.0
H160 H 0.81563 0.44289 0.32149 0.0
H161 H 0.74192 0.38753 0.23852 0.0
H162 H 0.83171 0.4918 0.27287 0.0
H163 H 0.80346 0.48926 0.2073 0.0
H164 H 0.81928 0.199 0.17701 0.0
H165 H 0.82617 0.1996 0.30191 0.0
H166 H 0.86052 0.17186 0.1826 0.0
H167 H 0.88677 0.16106 0.24695 0.0
Gd168 Gd 0.7842 0.76909 0.32792 0.0
Gd169 Gd 0.79481 0.82855 0.24747 0.0
C170 C 0.87887 0.83891 0.17215 0.0
C171 C 0.91808 0.89428 0.18402 0.0
C172 C 0.86556 0.87221 0.21456 0.0
C173 C 0.85756 0.8424 0.19801 0.0
C174 C 0.89538 0.89892 0.20649 0.0
C175 C 0.90976 0.86435 0.16672 0.0
C176 C 0.86768 0.81095 0.15062 0.0
C177 C 0.83549 0.78808 0.15391 0.0
N178 N 0.8273 0.81844 0.20341 0.0
C179 C 0.81544 0.79242 0.18021 0.0
H180 H 0.79055 0.77461 0.18177 0.0
C181 C 0.84588 0.9077 0.24299 0.0
N182 N 0.84246 0.87641 0.23458 0.0
C183 C 0.87534 0.93469 0.23659 0.0
C184 C 0.90055 0.9301 0.21907 0.0
H185 H 0.82617 0.91135 0.25607 0.0
H186 H 0.9267 0.86179 0.14763 0.0
H187 H 0.78731 0.82018 0.39413 0.0
H188 H 0.88319 0.80749 0.13029 0.0
H189 H 0.82613 0.76695 0.13639 0.0
H190 H 0.94132 0.91433 0.17804 0.0
H191 H 0.74966 0.68964 0.30297 0.0
H192 H 0.69881 0.77985 0.45533 0.0
H193 H 0.753 0.82451 0.4441 0.0
H194 H 0.64455 0.67218 0.40723 0.0
H195 H 0.87845 0.95905 0.24484 0.0
H196 H 0.92314 0.95118 0.21352 0.0
H197 H 0.65828 0.72297 0.44114 0.0
H198 H 0.70092 0.63954 0.31696 0.0
N199 N 0.75212 0.77471 0.3754 0.0
C200 C 0.71361 0.77805 0.43301 0.0
C201 C 0.74415 0.8033 0.42673 0.0
C202 C 0.70335 0.74996 0.41178 0.0
C203 C 0.72366 0.74886 0.38316 0.0
C204 C 0.76339 0.80093 0.39807 0.0
N205 N 0.73755 0.71964 0.33905 0.0
C206 C 0.71622 0.72025 0.36459 0.0
C207 C 0.70487 0.66211 0.3305 0.0
C208 C 0.68217 0.66283 0.35563 0.0
C209 C 0.73262 0.69076 0.32266 0.0
C210 C 0.68785 0.69201 0.37338 0.0
H211 H 0.6607 0.64059 0.36164 0.0
O212 O 0.79997 0.72975 0.35727 0.0
O213 O 0.81505 0.78712 0.27311 0.0
O214 O 0.76085 0.7771 0.23375 0.0
O215 O 0.73622 0.75598 0.29112 0.0
O216 O 0.7969 0.73733 0.28731 0.0
O217 O 0.81858 0.77876 0.37889 0.0
O218 O 0.79177 0.86266 0.19751 0.0
O219 O 0.77194 0.81567 0.30686 0.0
O220 O 0.82389 0.8165 0.34684 0.0
O221 O 0.83179 0.85552 0.29334 0.0
O222 O 0.77044 0.85808 0.27783 0.0
O223 O 0.74778 0.82097 0.21381 0.0
C224 C 0.81502 0.75893 0.26231 0.0
C225 C 0.66658 0.69353 0.40031 0.0
C226 C 0.67434 0.72247 0.41952 0.0
C227 C 0.81789 0.7484 0.38429 0.0
C228 C 0.81661 0.7334 0.42455 0.0
C229 C 0.79621 0.73661 0.45144 0.0
C230 C 0.83882 0.71756 0.4368 0.0
C231 C 0.84168 0.70543 0.47584 0.0
C232 C 0.79888 0.72448 0.4906 0.0
C233 C 0.82191 0.7093 0.50298 0.0
C234 C 0.73548 0.75706 0.2529 0.0
C235 C 0.76088 0.8398 0.30991 0.0
C236 C 0.7607 0.84629 0.18882 0.0
C237 C 0.75037 0.84254 0.14728 0.0
C238 C 0.76775 0.83348 0.12147 0.0
C239 C 0.72433 0.85249 0.13255 0.0
C240 C 0.71663 0.85569 0.09218 0.0
C241 C 0.7585 0.83404 0.08134 0.0
C242 C 0.73312 0.84542 0.06653 0.0
C243 C 0.83868 0.84644 0.32974 0.0
H244 H 0.77885 0.74889 0.44253 0.0
H245 H 0.85496 0.71578 0.41598 0.0
H246 H 0.78345 0.72728 0.51147 0.0
H247 H 0.82426 0.70059 0.53339 0.0
H248 H 0.7889 0.82707 0.13185 0.0
H249 H 0.71122 0.85982 0.15262 0.0
H250 H 0.77195 0.82702 0.06153 0.0
H251 H 0.72743 0.84757 0.03524 0.0
Gd252 Gd 0.2651 0.81119 0.2774 0.0
Gd253 Gd 0.30684 0.75155 0.28094 0.0
C254 C 0.25516 0.63804 0.29236 0.0
C255 C 0.24933 0.6261 0.36224 0.0
C256 C 0.27435 0.6834 0.33445 0.0
C257 C 0.26968 0.67245 0.29751 0.0
C258 C 0.26465 0.66023 0.36731 0.0
C259 C 0.24444 0.61503 0.3248 0.0
C260 C 0.25284 0.62766 0.25495 0.0
C261 C 0.26649 0.65116 0.22429 0.0
N262 N 0.28049 0.69527 0.2668 0.0
C263 C 0.28121 0.68483 0.23111 0.0
H264 H 0.29342 0.70267 0.20785 0.0
C265 C 0.29383 0.72821 0.3746 0.0
N266 N 0.28848 0.71665 0.33834 0.0
C267 C 0.28526 0.70616 0.40802 0.0
C268 C 0.27088 0.672 0.40439 0.0
H269 H 0.30468 0.75438 0.37832 0.0
H270 H 0.23301 0.58857 0.32135 0.0
H271 H 0.33184 0.87869 0.29487 0.0
H272 H 0.24182 0.6015 0.24979 0.0
H273 H 0.26629 0.64332 0.1956 0.0
H274 H 0.2414 0.60804 0.38712 0.0
H275 H 0.18886 0.79563 0.23722 0.0
H276 H 0.34569 0.94931 0.19492 0.0
H277 H 0.36301 0.93341 0.26239 0.0
H278 H 0.24634 0.90299 0.11498 0.0
H279 H 0.28983 0.71554 0.43661 0.0
H280 H 0.26481 0.6549 0.43035 0.0
H281 H 0.30214 0.93723 0.13931 0.0
H282 H 0.16021 0.81392 0.17871 0.0
N283 N 0.29747 0.86288 0.24612 0.0
C284 C 0.33196 0.92506 0.20895 0.0
C285 C 0.34167 0.91628 0.24712 0.0
C286 C 0.3033 0.90339 0.19046 0.0
C287 C 0.28625 0.87215 0.21018 0.0
C288 C 0.32388 0.88507 0.26546 0.0
N289 N 0.2369 0.82748 0.22133 0.0
C290 C 0.25462 0.8534 0.197 0.0
C291 C 0.18686 0.82489 0.18311 0.0
C292 C 0.20515 0.84929 0.15576 0.0
C293 C 0.20316 0.8148 0.21635 0.0
C294 C 0.23927 0.86495 0.1634 0.0
H295 H 0.19239 0.85749 0.1304 0.0
O296 O 0.22393 0.82019 0.29829 0.0
O297 O 0.26655 0.7621 0.30517 0.0
O298 O 0.26569 0.7386 0.23323 0.0
O299 O 0.25007 0.78525 0.22154 0.0
O300 O 0.22036 0.76508 0.29299 0.0
O301 O 0.27317 0.84358 0.32371 0.0
O302 O 0.35089 0.74746 0.31314 0.0
O303 O 0.31116 0.80451 0.26389 0.0
O304 O 0.30488 0.82227 0.32596 0.0
O305 O 0.33555 0.78847 0.32478 0.0
O306 O 0.32548 0.78209 0.22397 0.0
O307 O 0.34182 0.73909 0.25173 0.0
C308 C 0.23563 0.74549 0.30686 0.0
C309 C 0.25757 0.89393 0.1411 0.0
C310 C 0.28945 0.91338 0.1549 0.0
C311 C 0.24304 0.8427 0.32077 0.0
C312 C 0.24004 0.87556 0.3151 0.0
C313 C 0.2438 0.89365 0.27836 0.0
C314 C 0.23575 0.89015 0.34708 0.0
C315 C 0.23584 0.92277 0.34229 0.0
C316 C 0.24503 0.9264 0.27379 0.0
C317 C 0.24126 0.9411 0.30576 0.0
C318 C 0.25002 0.75645 0.21222 0.0
C319 C 0.3235 0.80986 0.2309 0.0
C320 C 0.36217 0.74144 0.28251 0.0
C321 C 0.39748 0.75893 0.27606 0.0
C322 C 0.41619 0.78882 0.29273 0.0
C323 C 0.41269 0.74497 0.25284 0.0
C324 C 0.44657 0.76034 0.24647 0.0
C325 C 0.44984 0.80417 0.28682 0.0
C326 C 0.46501 0.79002 0.26411 0.0
C327 C 0.32957 0.81252 0.33902 0.0
H328 H 0.24572 0.8826 0.2532 0.0
H329 H 0.23197 0.87613 0.37546 0.0
H330 H 0.24826 0.94012 0.24528 0.0
H331 H 0.24091 0.96612 0.30157 0.0
H332 H 0.40491 0.80022 0.31038 0.0
H333 H 0.39783 0.72232 0.23929 0.0
H334 H 0.46428 0.82707 0.30002 0.0
H335 H 0.49127 0.80229 0.26068 0.0
Gd336 Gd 0.26127 0.80783 0.75869 0.0
Gd337 Gd 0.30896 0.76661 0.8114 0.0
C338 C 0.41079 0.80998 0.76033 0.0
C339 C 0.40679 0.7693 0.71561 0.0
C340 C 0.36062 0.76108 0.75483 0.0
C341 C 0.37829 0.79088 0.77108 0.0
C342 C 0.37525 0.74953 0.72782 0.0
C343 C 0.42455 0.79944 0.7319 0.0
C344 C 0.42868 0.83904 0.77868 0.0
C345 C 0.4145 0.84808 0.8076 0.0
N346 N 0.36406 0.80098 0.79782 0.0
C347 C 0.38229 0.82851 0.81717 0.0
H348 H 0.37279 0.83544 0.8407 0.0
C349 C 0.31594 0.70968 0.7587 0.0
N350 N 0.33024 0.74229 0.76742 0.0
C351 C 0.32903 0.69742 0.73146 0.0
C352 C 0.35842 0.71776 0.71514 0.0
H353 H 0.29409 0.69271 0.77242 0.0
H354 H 0.44919 0.8141 0.72287 0.0
H355 H 0.21004 0.76083 0.68809 0.0
H356 H 0.45367 0.85424 0.77134 0.0
H357 H 0.42845 0.87003 0.82282 0.0
H358 H 0.4181 0.761 0.6945 0.0
H359 H 0.25739 0.85566 0.82964 0.0
H360 H 0.11651 0.70652 0.73471 0.0
H361 H 0.15445 0.71846 0.68197 0.0
H362 H 0.12289 0.75852 0.85141 0.0
H363 H 0.31671 0.67207 0.7236 0.0
H364 H 0.36878 0.70806 0.69439 0.0
H365 H 0.10503 0.72164 0.79797 0.0
H366 H 0.22085 0.8521 0.87991 0.0
N367 N 0.20596 0.77069 0.74628 0.0
C368 C 0.14136 0.7248 0.73805 0.0
C369 C 0.1627 0.73135 0.70834 0.0
C370 C 0.15169 0.74334 0.77066 0.0
C371 C 0.18442 0.76679 0.7737 0.0
C372 C 0.19467 0.75507 0.71245 0.0
N373 N 0.22576 0.81067 0.80502 0.0
C374 C 0.19447 0.78762 0.8037 0.0
C375 C 0.2133 0.83336 0.85913 0.0
C376 C 0.18219 0.80817 0.86008 0.0
C377 C 0.23451 0.8347 0.83082 0.0
C378 C 0.17208 0.78538 0.83161 0.0
H379 H 0.16578 0.80724 0.88201 0.0
O380 O 0.27179 0.86096 0.74675 0.0
O381 O 0.31516 0.81208 0.76787 0.0
O382 O 0.31558 0.80872 0.84714 0.0
O383 O 0.29618 0.84218 0.80202 0.0
O384 O 0.29424 0.8113 0.71089 0.0
O385 O 0.23623 0.82637 0.70907 0.0
O386 O 0.30181 0.7174 0.84023 0.0
O387 O 0.25598 0.7633 0.80268 0.0
O388 O 0.26154 0.76892 0.72152 0.0
O389 O 0.26883 0.73211 0.77174 0.0
O390 O 0.27579 0.76382 0.85938 0.0
O391 O 0.34213 0.76037 0.86052 0.0
C392 C 0.32178 0.8159 0.73161 0.0
C393 C 0.14018 0.76087 0.82992 0.0
C394 C 0.13001 0.73986 0.79952 0.0
C395 C 0.25485 0.85723 0.71315 0.0
C396 C 0.27247 0.87526 0.67846 0.0
C397 C 0.30693 0.8852 0.6779 0.0
C398 C 0.25421 0.88027 0.64433 0.0
C399 C 0.27003 0.89547 0.60998 0.0
C400 C 0.32257 0.89884 0.64319 0.0
C401 C 0.30427 0.90463 0.60935 0.0
C402 C 0.31146 0.83704 0.83588 0.0
C403 C 0.24846 0.75935 0.8384 0.0
C404 C 0.32505 0.72882 0.86744 0.0
C405 C 0.31688 0.71769 0.90828 0.0
C406 C 0.28438 0.70707 0.91991 0.0
C407 C 0.3425 0.7176 0.93618 0.0
C408 C 0.336 0.70632 0.97533 0.0
C409 C 0.27788 0.6967 0.95909 0.0
C410 C 0.30351 0.69597 0.98671 0.0
C411 C 0.26019 0.73897 0.7349 0.0
H412 H 0.32155 0.88216 0.70419 0.0
H413 H 0.22767 0.87345 0.64488 0.0
H414 H 0.34889 0.90532 0.64258 0.0
H415 H 0.31679 0.91688 0.58318 0.0
H416 H 0.26399 0.70636 0.89885 0.0
H417 H 0.36739 0.7248 0.92694 0.0
H418 H 0.25281 0.68845 0.96787 0.0
H419 H 0.29791 0.68661 0.01665 0.0
Gd420 Gd 0.32328 0.30132 0.74833 0.0
Gd421 Gd 0.27271 0.287 0.83421 0.0
C422 C 0.27686 0.216 0.94192 0.0
C423 C 0.22239 0.17244 0.9368 0.0
C424 C 0.23777 0.21993 0.88814 0.0
C425 C 0.26872 0.23273 0.90714 0.0
C426 C 0.21397 0.18999 0.90315 0.0
C427 C 0.2538 0.18543 0.95614 0.0
C428 C 0.30756 0.2309 0.96191 0.0
C429 C 0.32883 0.26219 0.94775 0.0
N430 N 0.29024 0.26246 0.89273 0.0
C431 C 0.31953 0.27792 0.91329 0.0
H432 H 0.33631 0.3021 0.90286 0.0
C433 C 0.19882 0.2283 0.83918 0.0
N434 N 0.23032 0.2378 0.85615 0.0
C435 C 0.17445 0.19857 0.85267 0.0
C436 C 0.18215 0.17911 0.88455 0.0
H437 H 0.19278 0.24322 0.81445 0.0
H438 H 0.25975 0.17206 0.98253 0.0
H439 H 0.26077 0.29274 0.68012 0.0
H440 H 0.3147 0.21883 0.9887 0.0
H441 H 0.35244 0.2742 0.96333 0.0
H442 H 0.20455 0.14925 0.94863 0.0
H443 H 0.40475 0.33933 0.76731 0.0
H444 H 0.28496 0.38047 0.60157 0.0
H445 H 0.24545 0.32493 0.62309 0.0
H446 H 0.39809 0.44193 0.64134 0.0
H447 H 0.14976 0.19071 0.8385 0.0
H448 H 0.16318 0.1562 0.89512 0.0
H449 H 0.34224 0.42401 0.60812 0.0
H450 H 0.44984 0.39102 0.74582 0.0
N451 N 0.30789 0.32973 0.69173 0.0
C452 C 0.29189 0.36627 0.62638 0.0
C453 C 0.2695 0.33495 0.63852 0.0
C454 C 0.32321 0.37847 0.64592 0.0
C455 C 0.33058 0.35922 0.6788 0.0
C456 C 0.27823 0.31671 0.671 0.0
N457 N 0.36804 0.34912 0.72768 0.0
C458 C 0.36177 0.36925 0.69736 0.0
C459 C 0.42513 0.38529 0.73203 0.0
C460 C 0.41867 0.40703 0.70198 0.0
C461 C 0.39951 0.35602 0.74415 0.0
C462 C 0.38677 0.39889 0.68379 0.0
H463 H 0.43858 0.4296 0.69248 0.0
O464 O 0.35729 0.2779 0.73614 0.0
O465 O 0.31068 0.27501 0.80731 0.0
O466 O 0.32284 0.32763 0.84096 0.0
O467 O 0.34271 0.34856 0.77901 0.0
O468 O 0.35938 0.28992 0.79464 0.0
O469 O 0.31029 0.26685 0.70298 0.0
O470 O 0.23574 0.30697 0.84488 0.0
O471 O 0.28541 0.31395 0.77549 0.0
O472 O 0.27159 0.26281 0.74128 0.0
O473 O 0.25566 0.23984 0.80384 0.0
O474 O 0.2364 0.29754 0.7878 0.0
O475 O 0.28315 0.32251 0.87787 0.0
C476 C 0.3387 0.27482 0.82084 0.0
C477 C 0.37931 0.41892 0.65202 0.0
C478 C 0.34752 0.40874 0.63313 0.0
C479 C 0.33828 0.2621 0.70754 0.0
C480 C 0.3543 0.26262 0.67154 0.0
C481 C 0.3604 0.28969 0.64317 0.0
C482 C 0.36357 0.23571 0.66545 0.0
C483 C 0.37938 0.23588 0.63145 0.0
C484 C 0.37554 0.29 0.60938 0.0
C485 C 0.38508 0.26354 0.60357 0.0
C486 C 0.34168 0.35118 0.81662 0.0
C487 C 0.25722 0.31406 0.76217 0.0
C488 C 0.25386 0.32443 0.87288 0.0
C489 C 0.23716 0.32255 0.90849 0.0
C490 C 0.22938 0.29401 0.93489 0.0
C491 C 0.22812 0.34924 0.91572 0.0
C492 C 0.21067 0.34705 0.94866 0.0
C493 C 0.21244 0.29189 0.96781 0.0
C494 C 0.20289 0.31807 0.97454 0.0
C495 C 0.2527 0.23896 0.76547 0.0
H496 H 0.35348 0.31057 0.64715 0.0
H497 H 0.35828 0.21465 0.68725 0.0
H498 H 0.38027 0.3111 0.58769 0.0
H499 H 0.39768 0.26529 0.57758 0.0
H500 H 0.2362 0.27333 0.92994 0.0
H501 H 0.23395 0.37128 0.89529 0.0
H502 H 0.20648 0.26977 0.98805 0.0
H503 H 0.18957 0.3158 1.00013 0.0
Gd504 Gd 0.77367 0.30454 0.7697 0.0
Gd505 Gd 0.81227 0.2495 0.81856 0.0
C506 C 0.77233 0.19673 0.93504 0.0
C507 C 0.81844 0.22217 0.98131 0.0
C508 C 0.82274 0.23882 0.91171 0.0
C509 C 0.79053 0.21739 0.90425 0.0
C510 C 0.8375 0.24036 0.95017 0.0
C511 C 0.78587 0.20034 0.97375 0.0
C512 C 0.74214 0.17148 0.92579 0.0
C513 C 0.73157 0.16637 0.88667 0.0
N514 N 0.77859 0.21373 0.86647 0.0
C515 C 0.75061 0.18743 0.8572 0.0
H516 H 0.74269 0.18304 0.82698 0.0
C517 C 0.87441 0.27029 0.88593 0.0
N518 N 0.84073 0.25532 0.88084 0.0
C519 C 0.89015 0.27247 0.92349 0.0
C520 C 0.87147 0.25831 0.95587 0.0
H521 H 0.88907 0.28101 0.86105 0.0
H522 H 0.77202 0.18511 0.99784 0.0
H523 H 0.7724 0.36347 0.82285 0.0
H524 H 0.72775 0.15467 0.94854 0.0
H525 H 0.7089 0.14611 0.87918 0.0
H526 H 0.82918 0.22345 0.01113 0.0
H527 H 0.78966 0.2854 0.68456 0.0
H528 H 0.82066 0.45866 0.76203 0.0
H529 H 0.79062 0.42496 0.81858 0.0
H530 H 0.84718 0.43045 0.64318 0.0
H531 H 0.91668 0.28495 0.9274 0.0
H532 H 0.88378 0.25992 0.98492 0.0
H533 H 0.84149 0.46043 0.69654 0.0
H534 H 0.81403 0.31472 0.62329 0.0
N535 N 0.79467 0.3628 0.77118 0.0
C536 C 0.81341 0.4318 0.76424 0.0
C537 C 0.79643 0.41289 0.79619 0.0
C538 C 0.8194 0.41574 0.7346 0.0
C539 C 0.80937 0.38068 0.73879 0.0
C540 C 0.78638 0.37819 0.79867 0.0
N541 N 0.7998 0.32988 0.71212 0.0
C542 C 0.81208 0.36373 0.70843 0.0
C543 C 0.81361 0.3288 0.64699 0.0
C544 C 0.82686 0.36357 0.64292 0.0
C545 C 0.79977 0.31226 0.68183 0.0
C546 C 0.82571 0.38149 0.67355 0.0
H547 H 0.83733 0.37631 0.61577 0.0
O548 O 0.7382 0.30875 0.72193 0.0
O549 O 0.76476 0.25768 0.8083 0.0
O550 O 0.77485 0.22044 0.77109 0.0
O551 O 0.75205 0.25669 0.73531 0.0
O552 O 0.75273 0.29402 0.82904 0.0
O553 O 0.72813 0.31026 0.78129 0.0
O554 O 0.84572 0.236 0.78771 0.0
O555 O 0.81431 0.28614 0.76676 0.0
O556 O 0.81625 0.33487 0.81202 0.0
O557 O 0.82834 0.29505 0.8556 0.0
O558 O 0.85872 0.29079 0.79903 0.0
O559 O 0.81496 0.20025 0.82963 0.0
C560 C 0.75053 0.26343 0.83525 0.0
C561 C 0.83669 0.41642 0.66978 0.0
C562 C 0.83354 0.43351 0.70022 0.0
C563 C 0.72109 0.31729 0.74458 0.0
C564 C 0.71785 0.35033 0.73458 0.0
C565 C 0.72606 0.36748 0.6977 0.0
C566 C 0.71066 0.36683 0.76341 0.0
C567 C 0.7137 0.40049 0.75632 0.0
C568 C 0.7283 0.40056 0.69028 0.0
C569 C 0.7226 0.41712 0.71946 0.0
C570 C 0.75564 0.22708 0.7411 0.0
C571 C 0.84525 0.30332 0.76951 0.0
C572 C 0.83934 0.20732 0.80767 0.0
C573 C 0.86812 0.19957 0.82455 0.0
C574 C 0.87499 0.19469 0.86507 0.0
C575 C 0.8896 0.19761 0.79878 0.0
C576 C 0.91788 0.191 0.81271 0.0
C577 C 0.90346 0.18812 0.87914 0.0
C578 C 0.92499 0.18619 0.85296 0.0
C579 C 0.83144 0.32661 0.84503 0.0
H580 H 0.73182 0.35573 0.67491 0.0
H581 H 0.70456 0.35415 0.79212 0.0
H582 H 0.73513 0.41364 0.66197 0.0
H583 H 0.72492 0.44292 0.71311 0.0
H584 H 0.85859 0.19599 0.88572 0.0
H585 H 0.88424 0.20117 0.76747 0.0
H586 H 0.90877 0.18442 0.91031 0.0
H587 H 0.94682 0.18085 0.86395 0.0
Gd588 Gd 0.7871 0.80483 0.82581 0.0
Gd589 Gd 0.77819 0.7492 0.74874 0.0
C590 C 0.69588 0.72378 0.65147 0.0
C591 C 0.66253 0.66642 0.67186 0.0
C592 C 0.71214 0.69647 0.71092 0.0
C593 C 0.71745 0.72449 0.68502 0.0
C594 C 0.6846 0.6671 0.70476 0.0
C595 C 0.6682 0.69468 0.64521 0.0
C596 C 0.70314 0.75213 0.6249 0.0
C597 C 0.73169 0.77995 0.63182 0.0
N598 N 0.74443 0.75213 0.692 0.0
C599 C 0.75231 0.7794 0.66559 0.0
H600 H 0.77439 0.80096 0.6708 0.0
C601 C 0.73026 0.67089 0.76843 0.0
N602 N 0.73394 0.6981 0.74242 0.0
C603 C 0.70316 0.64124 0.76374 0.0
C604 C 0.68018 0.63934 0.73182 0.0
H605 H 0.74769 0.67234 0.79341 0.0
H606 H 0.65123 0.69367 0.6197 0.0
H607 H 0.76726 0.75227 0.90635 0.0
H608 H 0.6872 0.75261 0.59875 0.0
H609 H 0.73774 0.80185 0.61125 0.0
H610 H 0.64116 0.6441 0.6666 0.0
H611 H 0.83187 0.88413 0.79729 0.0
H612 H 0.85091 0.77625 0.98932 0.0
H613 H 0.79314 0.74122 0.97067 0.0
H614 H 0.92671 0.87791 0.93075 0.0
H615 H 0.69996 0.61992 0.78481 0.0
H616 H 0.65923 0.61633 0.72825 0.0
H617 H 0.90124 0.8269 0.97353 0.0
H618 H 0.8861 0.92705 0.8145 0.0
N619 N 0.81001 0.79296 0.88811 0.0
C620 C 0.83964 0.78129 0.96099 0.0
C621 C 0.807 0.76157 0.95065 0.0
C622 C 0.85672 0.80833 0.93543 0.0
C623 C 0.84075 0.81387 0.89904 0.0
C624 C 0.79244 0.76791 0.91398 0.0
N625 N 0.83684 0.84845 0.8429 0.0
C626 C 0.85474 0.84265 0.87549 0.0
C627 C 0.87764 0.90336 0.83187 0.0
C628 C 0.89733 0.89689 0.86398 0.0
C629 C 0.84693 0.87904 0.82225 0.0
C630 C 0.88555 0.86658 0.88692 0.0
H631 H 0.92097 0.91587 0.8716 0.0
O632 O 0.76765 0.84372 0.82978 0.0
O633 O 0.76204 0.78979 0.76624 0.0
O634 O 0.81263 0.80142 0.73504 0.0
O635 O 0.83456 0.81881 0.79621 0.0
O636 O 0.77768 0.83934 0.77494 0.0
O637 O 0.74952 0.79784 0.86641 0.0
O638 O 0.80461 0.71772 0.73803 0.0
O639 O 0.79843 0.76189 0.81005 0.0
O640 O 0.74915 0.75228 0.83628 0.0
O641 O 0.72957 0.73521 0.77414 0.0
O642 O 0.80213 0.72016 0.79388 0.0
O643 O 0.80797 0.76124 0.69824 0.0
C644 C 0.76183 0.81804 0.75 0.0
C645 C 0.90282 0.86004 0.92165 0.0
C646 C 0.88836 0.83097 0.94597 0.0
C647 C 0.7486 0.82752 0.85767 0.0
C648 C 0.74903 0.84687 0.89033 0.0
C649 C 0.77549 0.85481 0.91883 0.0
C650 C 0.72315 0.85857 0.89225 0.0
C651 C 0.72362 0.8782 0.9224 0.0
C652 C 0.7761 0.87406 0.94884 0.0
C653 C 0.75047 0.88575 0.95064 0.0
C654 C 0.83546 0.82166 0.75787 0.0
C655 C 0.80995 0.73891 0.82225 0.0
C656 C 0.81592 0.73478 0.70555 0.0
C657 C 0.81379 0.71493 0.67258 0.0
C658 C 0.78539 0.70502 0.647 0.0
C659 C 0.84005 0.70449 0.66769 0.0
C660 C 0.838 0.68415 0.63755 0.0
C661 C 0.78301 0.6848 0.61734 0.0
C662 C 0.80892 0.67426 0.61274 0.0
C663 C 0.72583 0.73417 0.8116 0.0
H664 H 0.79571 0.84626 0.91777 0.0
H665 H 0.70289 0.85274 0.86992 0.0
H666 H 0.79653 0.87994 0.97087 0.0
H667 H 0.75139 0.90022 0.97457 0.0
H668 H 0.76498 0.71271 0.64999 0.0
H669 H 0.86183 0.71183 0.6878 0.0
H670 H 0.76095 0.67726 0.59774 0.0
H671 H 0.80639 0.65889 0.58917 0.0
Co672 Co 0.06946 0.9979 0.52597 0.0
Co673 Co 0.07071 0.99866 0.60095 0.0
Co674 Co 1.03633 0.04799 0.55476 0.0
O675 O 0.07068 0.02899 0.55996 0.0
H676 H 0.09223 0.04656 0.56159 0.0
O677 O 1.00323 0.069 0.54965 0.0
Co678 Co 1.01463 0.11245 0.56711 0.0
Co679 Co 1.0051 0.08894 0.49932 0.0
H680 H 0.98119 0.05368 0.55494 0.0
O681 O 0.1098 0.99288 0.6194 0.0
O682 O 0.07309 0.96716 0.5716 0.0
O683 O 1.03268 0.98472 0.62994 0.0
O684 O 1.00546 1.01204 0.58992 0.0
O685 O 0.05779 0.07219 0.60045 0.0
O686 O 1.02148 0.15109 0.58366 0.0
O687 O 0.9729 0.10908 0.5718 0.0
O688 O 0.0607 0.12059 0.56963 0.0
O689 O 0.06795 0.0838 0.52071 0.0
O690 O 0.03914 0.09074 0.46619 0.0
O691 O 1.01281 0.13167 0.51151 0.0
O692 O 0.9692 0.09598 0.47702 0.0
C693 C 0.10449 0.99107 0.49826 0.0
C694 C 1.00518 0.99251 0.50705 0.0
C695 C 1.00706 0.9917 0.61945 0.0
C696 C 0.10071 0.97192 0.59258 0.0
C697 C 0.98964 0.13791 0.58544 0.0
C698 C 0.0699 0.10372 0.59816 0.0
C699 C 0.06658 0.09398 0.48475 0.0
C700 C 0.9854 0.12534 0.48915 0.0
O701 O 0.07375 0.97111 0.49364 0.0
O702 O 0.11278 0.01459 0.52177 0.0
O703 O 1.01357 0.0237 0.50845 0.0
O704 O 1.02283 0.97722 0.52529 0.0
Co705 Co 0.54079 1.00289 0.00676 0.0
Co706 Co 0.55069 0.01853 0.07914 0.0
Co707 Co 0.51368 0.06307 0.02703 0.0
O708 O 0.54871 0.04304 0.03228 0.0
H709 H 0.57039 0.05962 0.02784 0.0
O710 O 0.47865 0.0823 0.01907 0.0
Co711 Co 0.47006 0.11232 0.04822 0.0
Co712 Co 0.48287 0.11464 0.9784 0.0
H713 H 0.45789 0.06435 0.01377 0.0
O714 O 0.58788 1.00889 0.09752 0.0
O715 O 0.54533 0.97941 0.058 0.0
O716 O 0.51525 1.00883 0.11106 0.0
O717 O 0.48325 0.02788 0.06748 0.0
O718 O 0.53855 0.09392 0.06858 0.0
O719 O 0.45592 0.13777 0.07439 0.0
O720 O 0.42654 0.0938 0.04014 0.0
O721 O 0.51723 0.1346 0.06157 0.0
O722 O 0.54425 0.0964 0.98762 0.0
O723 O 0.52454 0.1338 0.95595 0.0
O724 O 0.47086 0.14459 0.9999 0.0
O725 O 0.44567 0.11432 0.94847 0.0
C726 C 0.56929 0.98241 0.98162 0.0
C727 C 0.47823 1.00285 0.98955 0.0
C728 C 0.48731 1.01028 0.09934 0.0
C729 C 0.57305 0.98281 0.07816 0.0
C730 C 0.42747 0.11781 0.05999 0.0
C731 C 0.54085 0.12388 0.07256 0.0
C732 C 0.5473 0.12213 0.96357 0.0
C733 C 0.44845 0.13778 0.97037 0.0
O734 O 0.5374 0.96782 0.98268 0.0
O735 O 0.58394 1.0108 0.99731 0.0
O736 O 0.48902 0.0344 0.98443 0.0
O737 O 0.49469 0.98845 0.01188 0.0
Co738 Co 0.06105 0.49762 0.04845 0.0
Co739 Co 0.06559 0.50637 0.1192 0.0
Co740 Co 1.0221 0.55837 0.0645 0.0
O741 O 0.06092 0.53726 0.07396 0.0
H742 H 0.08213 0.555 0.07108 0.0
O743 O 0.98298 0.58032 0.05999 0.0
Co744 Co 0.98049 0.62287 0.08821 0.0
Co745 Co 0.98942 0.61586 0.01875 0.0
H746 H 0.96129 0.5633 0.05646 0.0
O747 O 0.10487 0.49761 0.1477 0.0
O748 O 0.07296 0.46814 0.10062 0.0
O749 O 1.02428 0.49542 0.14384 0.0
O750 O 0.99797 0.52805 0.10983 0.0
O751 O 0.0464 0.59472 0.09911 0.0
O752 O 0.97877 0.66012 0.11498 0.0
O753 O 0.93373 0.61861 0.10293 0.0
O754 O 1.02827 0.63788 0.08383 0.0
O755 O 0.04904 0.58896 0.01765 0.0
O756 O 1.03374 0.63261 0.99669 0.0
O757 O 0.97322 0.64788 0.03483 0.0
O758 O 0.95354 0.61642 0.98362 0.0
C759 C 0.09507 0.48485 0.02356 0.0
C760 C 0.99241 0.49017 0.02755 0.0
C761 C 0.99998 0.50567 0.13711 0.0
C762 C 0.09823 0.47176 0.12821 0.0
C763 C 0.94707 0.64753 0.11848 0.0
C764 C 0.05148 0.62571 0.08943 0.0
C765 C 0.05388 0.6174 0.99703 0.0
C766 C 0.95301 0.64017 0.00292 0.0
O767 O 0.06381 0.4664 0.02192 0.0
O768 O 0.10507 0.51268 0.04062 0.0
O769 O 0.99591 0.5213 0.02809 0.0
O770 O 1.01209 0.47774 0.04869 0.0
Co771 Co 0.59164 0.4939 0.98219 0.0
Co772 Co 0.57942 0.46968 0.04867 0.0
Co773 Co 0.55997 0.53204 0.04406 0.0
O774 O 0.5926 0.51315 0.0307 0.0
H775 H 0.61485 0.52541 0.04061 0.0
O776 O 0.52855 0.55217 0.05867 0.0
Co777 Co 0.5451 0.59837 0.07128 0.0
Co778 Co 0.5103 0.56575 0.01179 0.0
H779 H 0.51125 0.5372 0.07452 0.0
O780 O 0.6118 0.45884 0.07441 0.0
O781 O 0.59153 0.45073 0.01118 0.0
O782 O 0.53718 0.45055 0.07155 0.0
O783 O 0.5461 0.50006 0.09199 0.0
O784 O 0.5962 0.56381 0.07566 0.0
O785 O 0.55804 0.63972 0.08377 0.0
O786 O 0.51139 0.59713 0.09959 0.0
O787 O 0.58313 0.60503 0.04623 0.0
O788 O 0.57395 0.56276 0.99595 0.0
O789 O 0.52818 0.56488 0.96323 0.0
O790 O 0.52128 0.60941 0.02251 0.0
O791 O 0.47054 0.57022 0.01135 0.0
C792 C 0.62513 0.49109 0.94662 0.0
C793 C 0.52049 0.48088 0.98888 0.0
C794 C 0.52994 0.46856 0.09281 0.0
C795 C 0.61158 0.44746 0.04108 0.0
C796 C 0.53052 0.62852 0.10102 0.0
C797 C 0.60252 0.59506 0.06992 0.0
C798 C 0.55847 0.56871 0.96431 0.0
C799 C 0.4891 0.60046 0.0189 0.0
O800 O 0.59353 0.47795 0.93839 0.0
O801 O 0.63619 0.50774 0.9777 0.0
O802 O 0.52216 0.50153 0.01295 0.0
O803 O 0.54593 0.47742 0.97869 0.0
Co804 Co 0.12731 0.48819 0.57703 0.0
Co805 Co 0.10072 0.47919 0.50501 0.0
Co806 Co 0.06291 0.51457 0.54875 0.0
O807 O 0.08312 0.47954 0.55167 0.0
H808 H 0.06776 0.45756 0.55948 0.0
O809 O 0.0446 0.54991 0.54807 0.0
Co810 Co 1.00899 0.55514 0.51594 0.0
Co811 Co 1.0204 0.54712 0.58924 0.0
H812 H 0.06275 0.57114 0.54827 0.0
O813 O 0.11113 0.44298 0.49378 0.0
O814 O 0.14314 0.48658 0.52667 0.0
O815 O 0.10362 0.51576 0.4667 0.0
O816 O 0.09341 0.54729 0.50643 0.0
O817 O 1.0294 0.49142 0.50673 0.0
O818 O 0.97815 0.56499 0.48519 0.0
O819 O 1.02575 0.59957 0.51291 0.0
O820 O 0.98726 0.50752 0.51392 0.0
O821 O 1.03153 0.4817 0.58888 0.0
O822 O 1.00623 0.50633 0.62078 0.0
O823 O 0.98485 0.55571 0.56363 0.0
O824 O 1.02279 0.58478 0.60909 0.0
C825 C 0.15377 0.45984 0.60635 0.0
C826 C 0.12623 0.5494 0.58613 0.0
C827 C 0.10419 0.54395 0.47418 0.0
C828 C 0.13922 0.45924 0.51173 0.0
C829 C 0.99789 0.59505 0.49236 0.0
C830 C 0.99846 0.48685 0.50267 0.0
C831 C 1.01176 0.48073 0.61471 0.0
C832 C 0.99506 0.57928 0.58798 0.0
O833 O 0.16659 0.49218 0.60111 0.0
O834 O 0.12335 0.44462 0.5924 0.0
O835 O 0.09544 0.53779 0.5912 0.0
O836 O 0.13827 0.53456 0.56603 0.0
Co837 Co 0.61861 0.97841 0.54104 0.0
Co838 Co 0.60325 0.98314 0.46877 0.0
Co839 Co 0.55484 0.02114 0.51061 0.0
O840 O 0.57577 0.98194 0.51113 0.0
H841 H 0.5582 0.96035 0.51334 0.0
O842 O 0.53427 0.06103 0.50458 0.0
Co843 Co 0.49057 0.06924 0.4719 0.0
Co844 Co 0.50591 0.05471 0.54421 0.0
H845 H 0.55216 0.08231 0.5065 0.0
O846 O 0.60667 0.94684 0.4426 0.0
O847 O 0.64272 0.97394 0.48938 0.0
O848 O 0.61501 0.02708 0.44192 0.0
O849 O 0.58366 0.0498 0.46822 0.0
O850 O 0.51808 1.00041 0.47123 0.0
O851 O 0.45113 0.07842 0.44219 0.0
O852 O 0.49488 0.1187 0.46091 0.0
O853 O 0.47589 0.01988 0.47283 0.0
O854 O 0.52386 0.9894 0.55423 0.0
O855 O 0.49112 1.01228 0.57543 0.0
O856 O 0.47081 0.06759 0.52258 0.0
O857 O 0.51124 0.09077 0.56915 0.0
C858 C 0.6364 0.94016 0.57206 0.0
C859 C 0.62409 0.04794 0.55629 0.0
C860 C 0.605 0.05081 0.44478 0.0
C861 C 0.63551 0.95261 0.4611 0.0
C862 C 0.46501 0.11068 0.44279 0.0
C863 C 0.48716 0.99623 0.471 0.0
C864 C 0.50046 0.98782 0.57602 0.0
C865 C 0.48295 0.08797 0.55052 0.0
O866 O 0.65382 0.97192 0.57165 0.0
O867 O 0.60748 0.93174 0.55203 0.0
O868 O 0.59294 0.04458 0.55114 0.0
O869 O 0.63568 0.02865 0.54092 0.0
H870 H 0.18497 0.19777 0.31604 0.0
H871 H 0.25336 0.24927 0.40889 0.0
H872 H 0.21719 0.21164 0.45794 0.0
H873 H 0.11294 0.18997 0.36175 0.0
H874 H 0.08824 0.14974 0.34501 0.0
H875 H 0.12128 0.17813 0.3168 0.0
H876 H 0.14729 0.13298 0.31948 0.0
H877 H 0.11434 0.10445 0.34784 0.0
H878 H 0.15678 0.11404 0.36623 0.0
H879 H 0.17449 0.16946 0.49684 0.0
H880 H 0.12368 0.12933 0.52416 0.0
H881 H 0.07941 0.10804 0.40683 0.0
C882 C 0.19253 0.20072 0.34672 0.0
C883 C 0.22241 0.22587 0.35867 0.0
C884 C 0.23098 0.22976 0.39901 0.0
C885 C 0.2106 0.20849 0.42716 0.0
C886 C 0.18142 0.18393 0.41446 0.0
C887 C 0.172 0.18023 0.37529 0.0
C888 C 0.1378 0.15382 0.36975 0.0
C889 C 0.11364 0.16882 0.34699 0.0
C890 C 0.13915 0.12459 0.34963 0.0
C891 C 0.12948 0.14353 0.41198 0.0
C892 C 0.15539 0.16079 0.43715 0.0
C893 C 0.15397 0.15576 0.47752 0.0
C894 C 0.12501 0.1328 0.4927 0.0
C895 C 0.09762 0.11563 0.46754 0.0
C896 C 0.09998 0.12091 0.42664 0.0
H897 H 0.92481 0.19329 0.29661 0.0
H898 H 0.83099 0.15993 0.3502 0.0
H899 H 0.8599 0.16023 0.41521 0.0
H900 H 0.95508 0.13978 0.35443 0.0
H901 H 0.99752 0.16819 0.357 0.0
H902 H 0.97009 0.17252 0.31606 0.0
H903 H 0.98413 0.23395 0.33038 0.0
H904 H 1.01077 0.22912 0.37243 0.0
H905 H 0.97737 0.24294 0.37772 0.0
H906 H 0.89617 0.15604 0.47261 0.0
H907 H 0.93426 0.13524 0.51548 0.0
H908 H 1.00495 0.16884 0.42658 0.0
C909 C 0.91035 0.1861 0.32202 0.0
C910 C 0.87568 0.17712 0.31822 0.0
C911 C 0.85769 0.16778 0.35229 0.0
C912 C 0.87393 0.16814 0.38945 0.0
C913 C 0.90819 0.17767 0.39223 0.0
C914 C 0.92614 0.18583 0.35941 0.0
C915 C 0.9618 0.18964 0.37007 0.0
C916 C 0.97166 0.16611 0.34814 0.0
C917 C 0.98488 0.22609 0.36218 0.0
C918 C 0.96035 0.17952 0.4136 0.0
C919 C 0.92959 0.17447 0.42607 0.0
C920 C 0.92063 0.16073 0.46363 0.0
C921 C 0.94252 0.14927 0.48801 0.0
C922 C 0.97266 0.15142 0.47442 0.0
C923 C 0.9826 0.1685 0.43793 0.0
H924 H 0.8826 0.84002 0.39039 0.0
H925 H 0.84454 0.91113 0.32441 0.0
H926 H 0.88128 0.95531 0.36466 0.0
H927 H 0.89181 0.87275 0.48487 0.0
H928 H 0.92985 0.86607 0.49986 0.0
H929 H 0.89979 0.83939 0.46655 0.0
H930 H 0.94427 0.85339 0.41647 0.0
H931 H 0.97449 0.87998 0.44966 0.0
H932 H 0.96683 0.89635 0.40069 0.0
H933 H 0.92153 0.99163 0.41114 0.0
H934 H 0.96631 0.01955 0.459 0.0
H935 H 0.97987 0.92573 0.49495 0.0
C936 C 0.8821 0.86492 0.38456 0.0
C937 C 0.86128 0.87244 0.35385 0.0
C938 C 0.86112 0.90518 0.34696 0.0
C939 C 0.88153 0.93032 0.37003 0.0
C940 C 0.90199 0.92228 0.39986 0.0
C941 C 0.90268 0.89052 0.40712 0.0
C942 C 0.92804 0.8891 0.44015 0.0
C943 C 0.91137 0.86542 0.47492 0.0
C944 C 0.955 0.87913 0.42587 0.0
C945 C 0.94157 0.92509 0.44996 0.0
C946 C 0.92584 0.94361 0.42661 0.0
C947 C 0.9341 0.97747 0.42967 0.0
C948 C 0.95957 0.99308 0.45699 0.0
C949 C 0.97671 0.97487 0.48064 0.0
C950 C 0.96725 0.94032 0.47731 0.0
H951 H 0.1779 0.89505 0.3755 0.0
H952 H 0.26928 0.98105 0.37612 0.0
H953 H 0.24655 1.00685 0.42072 0.0
H954 H 0.12687 0.9409 0.36774 0.0
H955 H 0.09551 0.91106 0.39715 0.0
H956 H 0.12072 0.89725 0.37068 0.0
H957 H 0.13835 0.86917 0.43464 0.0
H958 H 0.11356 0.88292 0.46205 0.0
H959 H 0.15706 0.89355 0.47546 0.0
H960 H 0.21149 0.02537 0.45828 0.0
H961 H 0.16806 0.03416 0.49082 0.0
H962 H 0.09897 0.93661 0.46201 0.0
C963 C 0.19347 0.91877 0.38626 0.0
C964 C 0.22541 0.93596 0.37348 0.0
C965 C 0.24486 0.96754 0.38644 0.0
C966 C 0.23216 0.98226 0.41155 0.0
C967 C 0.2 0.96506 0.42267 0.0
C968 C 0.18097 0.93398 0.41051 0.0
C969 C 0.14611 0.92217 0.42311 0.0
C970 C 0.12084 0.9176 0.38755 0.0
C971 C 0.13828 0.89003 0.45046 0.0
C972 C 0.14847 0.95142 0.44448 0.0
C973 C 0.17968 0.97592 0.44386 0.0
C974 C 0.18716 1.00609 0.45976 0.0
C975 C 0.16233 1.0109 0.47792 0.0
C976 C 0.13028 0.98598 0.4789 0.0
C977 C 0.1233 0.95603 0.46175 0.0
H978 H 0.27353 0.95782 0.59459 0.0
H979 H 0.22073 0.85784 0.56134 0.0
H980 H 0.17217 0.8724 0.53846 0.0
H981 H 0.21536 0.95713 0.64274 0.0
H982 H 0.21931 1.00021 0.63417 0.0
H983 H 0.25436 0.98898 0.63051 0.0
H984 H 0.26143 0.01732 0.56164 0.0
H985 H 0.22544 0.0284 0.5615 0.0
H986 H 0.22884 1.00439 0.52398 0.0
H987 H 0.12572 0.89122 0.53886 0.0
H988 H 0.08606 0.91371 0.5591 0.0
H989 H 0.16765 0.99947 0.59942 0.0
C990 C 0.25268 0.94012 0.57919 0.0
C991 C 0.25079 0.90716 0.57856 0.0
C992 C 0.2227 0.88354 0.56066 0.0
C993 C 0.19496 0.89167 0.54782 0.0
C994 C 0.19602 0.92349 0.55302 0.0
C995 C 0.22446 0.94759 0.56792 0.0
C996 C 0.21718 0.97619 0.58079 0.0
C997 C 0.22712 0.98083 0.62461 0.0
C998 C 0.23417 1.00852 0.55547 0.0
C999 C 0.1801 0.96354 0.57305 0.0
C1000 C 0.16841 0.93361 0.55608 0.0
C1001 C 0.13465 0.91512 0.55101 0.0
C1002 C 0.11234 0.92774 0.56317 0.0
C1003 C 0.12401 0.95798 0.58124 0.0
C1004 C 0.15821 0.97614 0.58588 0.0
H1005 H 0.22149 0.24491 0.69459 0.0
H1006 H 0.21756 0.176 0.79734 0.0
H1007 H 0.16779 0.1343 0.76658 0.0
H1008 H 0.13439 0.22399 0.67587 0.0
H1009 H 0.13646 0.22893 0.62351 0.0
H1010 H 0.17112 0.25301 0.65416 0.0
H1011 H 0.2096 0.23088 0.62337 0.0
H1012 H 0.17529 0.20678 0.59241 0.0
H1013 H 0.19921 0.18655 0.62373 0.0
H1014 H 0.12091 0.1 0.72282 0.0
H1015 H 0.07927 0.07507 0.67043 0.0
H1016 H 0.11429 0.1681 0.59706 0.0
C1017 C 0.21066 0.22102 0.71058 0.0
C1018 C 0.22368 0.21342 0.74799 0.0
C1019 C 0.20795 0.18211 0.76844 0.0
C1020 C 0.17976 0.15844 0.75126 0.0
C1021 C 0.16779 0.16689 0.71403 0.0
C1022 C 0.18271 0.1975 0.69408 0.0
C1023 C 0.16542 0.20065 0.65436 0.0
C1024 C 0.15097 0.22827 0.65186 0.0
C1025 C 0.18877 0.20654 0.62155 0.0
C1026 C 0.13857 0.16658 0.65457 0.0
C1027 C 0.14033 0.14755 0.68929 0.0
C1028 C 0.11911 0.1147 0.69569 0.0
C1029 C 0.09567 0.10081 0.66565 0.0
C1030 C 0.09367 0.11979 0.62973 0.0
C1031 C 0.1151 0.15321 0.62436 0.0
H1032 H 0.91006 0.13556 0.77894 0.0
H1033 H 0.96767 0.24119 0.77818 0.0
H1034 H 0.98758 0.24026 0.71388 0.0
H1035 H 0.96857 0.11242 0.72966 0.0
H1036 H 0.93534 0.08185 0.70355 0.0
H1037 H 0.92935 0.09131 0.75091 0.0
H1038 H 0.87802 0.10423 0.72045 0.0
H1039 H 0.88497 0.09651 0.67259 0.0
H1040 H 0.88276 0.13598 0.68042 0.0
H1041 H 0.99781 0.22838 0.64851 0.0
H1042 H 1.00728 0.20411 0.59181 0.0
H1043 H 0.94058 0.10662 0.63414 0.0
C1044 C 0.92809 0.15805 0.76592 0.0
C1045 C 0.93836 0.18823 0.78353 0.0
C1046 C 0.96066 0.21771 0.76531 0.0
C1047 C 0.97148 0.21749 0.72863 0.0
C1048 C 0.95938 0.18762 0.71088 0.0
C1049 C 0.93886 0.15827 0.72929 0.0
C1050 C 0.92903 0.12969 0.7037 0.0
C1051 C 0.94132 0.10221 0.72309 0.0
C1052 C 0.89146 0.1158 0.69372 0.0
C1053 C 0.94747 0.14748 0.66806 0.0
C1054 C 0.96443 0.18099 0.67261 0.0
C1055 C 0.98462 0.20223 0.64452 0.0
C1056 C 0.98955 0.18834 0.61225 0.0
C1057 C 0.97437 0.15366 0.60869 0.0
C1058 C 0.9517 0.13335 0.63571 0.0
H1059 H 0.90145 0.85537 0.77366 0.0
H1060 H 0.81598 0.85815 0.69909 0.0
H1061 H 0.8504 0.9099 0.66374 0.0
H1062 H 0.94759 0.94905 0.77174 0.0
H1063 H 0.9867 0.9445 0.7691 0.0
H1064 H 0.95429 0.9125 0.79515 0.0
H1065 H 0.95777 0.8685 0.75276 0.0
H1066 H 0.98995 0.90022 0.72657 0.0
H1067 H 0.95296 0.87483 0.70024 0.0
H1068 H 0.89365 0.95489 0.63025 0.0
H1069 H 0.94416 0.98865 0.59725 0.0
H1070 H 1.00298 0.95575 0.69051 0.0
C1071 C 0.89012 0.86756 0.75053 0.0
C1072 C 0.85633 0.85327 0.73904 0.0
C1073 C 0.84198 0.86903 0.7082 0.0
C1074 C 0.86122 0.89858 0.68826 0.0
C1075 C 0.89476 0.91178 0.69938 0.0
C1076 C 0.90924 0.8968 0.72965 0.0
C1077 C 0.94649 0.91308 0.73141 0.0
C1078 C 0.95954 0.93085 0.76908 0.0
C1079 C 0.96272 0.88764 0.72748 0.0
C1080 C 0.95057 0.93785 0.69581 0.0
C1081 C 0.9204 0.9375 0.67871 0.0
C1082 C 0.91754 0.956 0.64368 0.0
C1083 C 0.94635 0.97494 0.62506 0.0
C1084 C 0.9774 0.9746 0.64125 0.0
C1085 C 0.97953 0.95646 0.67752 0.0
H1086 H 0.31508 0.21877 0.09563 0.0
H1087 H 0.23029 0.13179 0.06504 0.0
H1088 H 0.26753 0.10671 0.044 0.0
H1089 H 0.36947 0.21497 0.01593 0.0
H1090 H 0.40563 0.2295 0.04901 0.0
H1091 H 0.37178 0.24345 0.0512 0.0
H1092 H 0.36989 0.2228 0.12514 0.0
H1093 H 0.40235 0.20724 0.12226 0.0
H1094 H 0.36313 0.17956 0.13958 0.0
H1095 H 0.31327 0.08672 0.03921 0.0
H1096 H 0.3647 0.07525 0.04342 0.0
H1097 H 0.42056 0.17495 0.07821 0.0
C1098 C 0.30442 0.19502 0.083 0.0
C1099 C 0.26993 0.17714 0.08176 0.0
C1100 C 0.25663 0.14599 0.06566 0.0
C1101 C 0.27761 0.13154 0.05382 0.0
C1102 C 0.31168 0.14889 0.05774 0.0
C1103 C 0.32503 0.18036 0.07096 0.0
C1104 C 0.36246 0.19221 0.07613 0.0
C1105 C 0.37826 0.22179 0.0463 0.0
C1106 C 0.37517 0.20094 0.11828 0.0
C1107 C 0.36784 0.16143 0.06688 0.0
C1108 C 0.33829 0.13709 0.05542 0.0
C1109 C 0.33662 0.10582 0.04736 0.0
C1110 C 0.36597 0.09945 0.05027 0.0
C1111 C 0.39664 0.12414 0.06145 0.0
C1112 C 0.39747 0.15549 0.06998 0.0
H1113 H 0.81395 0.3864 0.1684 0.0
H1114 H 0.84996 0.367 0.28712 0.0
H1115 H 0.90304 0.41112 0.2766 0.0
H1116 H 0.89032 0.40459 0.12239 0.0
H1117 H 0.8837 0.43693 0.08924 0.0
H1118 H 0.84878 0.40338 0.10884 0.0
H1119 H 0.83224 0.4503 0.13025 0.0
H1120 H 0.86998 0.48289 0.11565 0.0
H1121 H 0.85876 0.47784 0.16545 0.0
H1122 H 0.9541 0.45058 0.25237 0.0
H1123 H 1.00132 0.48634 0.21461 0.0
H1124 H 0.93463 0.48533 0.11184 0.0
C1125 C 0.83302 0.39183 0.19208 0.0
C1126 C 0.82808 0.37227 0.2283 0.0
C1127 C 0.85339 0.38039 0.25878 0.0
C1128 C 0.88368 0.40593 0.25325 0.0
C1129 C 0.8884 0.42386 0.21708 0.0
C1130 C 0.86396 0.41754 0.18688 0.0
C1131 C 0.87685 0.44013 0.15043 0.0
C1132 C 0.87472 0.41998 0.11574 0.0
C1133 C 0.85838 0.46427 0.13988 0.0
C1134 C 0.91257 0.4584 0.16463 0.0
C1135 C 0.91836 0.4488 0.2034 0.0
C1136 C 0.94991 0.45907 0.22224 0.0
C1137 C 0.97656 0.47919 0.20061 0.0
C1138 C 0.97139 0.4889 0.16072 0.0
C1139 C 0.93895 0.47905 0.14272 0.0
H1140 H 0.71795 0.91317 0.11591 0.0
H1141 H 0.66363 0.83682 0.03754 0.0
H1142 H 0.62002 0.86145 0.02488 0.0
H1143 H 0.64619 0.90791 0.15966 0.0
H1144 H 0.66145 0.95139 0.16828 0.0
H1145 H 0.69002 0.93042 0.16732 0.0
H1146 H 0.7213 0.97373 0.11244 0.0
H1147 H 0.6938 0.99535 0.1163 0.0
H1148 H 0.69796 0.98335 0.06978 0.0
H1149 H 0.57875 0.88899 0.03045 0.0
H1150 H 0.54853 0.92509 0.04088 0.0
H1151 H 0.63197 0.98366 0.11443 0.0
C1152 C 0.69706 0.90183 0.09566 0.0
C1153 C 0.69365 0.87288 0.0781 0.0
C1154 C 0.66642 0.85899 0.05131 0.0
C1155 C 0.64151 0.87257 0.04436 0.0
C1156 C 0.64457 0.89973 0.06461 0.0
C1157 C 0.67201 0.91454 0.08916 0.0
C1158 C 0.66874 0.94201 0.10952 0.0
C1159 C 0.66646 0.93234 0.1538 0.0
C1160 C 0.69712 0.97554 0.10144 0.0
C1161 C 0.63606 0.94199 0.09054 0.0
C1162 C 0.62186 0.91663 0.06597 0.0
C1163 C 0.59011 0.90964 0.04848 0.0
C1164 C 0.57319 0.93028 0.05463 0.0
C1165 C 0.58863 0.95817 0.07688 0.0
C1166 C 0.61999 0.96329 0.09608 0.0
H1167 H 0.19274 0.76336 0.18481 0.0
H1168 H 0.25842 0.71501 0.16256 0.0
H1169 H 0.21677 0.68328 0.11369 0.0
H1170 H 0.12542 0.70507 0.18622 0.0
H1171 H 0.09823 0.72422 0.15987 0.0
H1172 H 0.13611 0.74959 0.18356 0.0
H1173 H 0.15476 0.78481 0.11783 0.0
H1174 H 0.11591 0.75991 0.09443 0.0
H1175 H 0.1543 0.7641 0.07545 0.0
H1176 H 0.16339 0.64755 0.08309 0.0
H1177 H 0.10469 0.61269 0.07194 0.0
H1178 H 0.07606 0.69001 0.10761 0.0
C1179 C 0.19974 0.74854 0.1676 0.0
C1180 C 0.22896 0.74217 0.17752 0.0
C1181 C 0.23582 0.7198 0.15629 0.0
C1182 C 0.21259 0.70227 0.12774 0.0
C1183 C 0.18332 0.70854 0.11975 0.0
C1184 C 0.17739 0.7321 0.13828 0.0
C1185 C 0.14235 0.73099 0.12936 0.0
C1186 C 0.12453 0.7272 0.16697 0.0
C1187 C 0.1418 0.76178 0.10269 0.0
C1188 C 0.12818 0.7002 0.10739 0.0
C1189 C 0.15242 0.68832 0.10072 0.0
C1190 C 0.14444 0.65721 0.08691 0.0
C1191 C 0.11101 0.63738 0.08118 0.0
C1192 C 0.08605 0.64874 0.08927 0.0
C1193 C 0.09477 0.6811 0.10064 0.0
H1194 H 0.35001 0.83782 0.90405 0.0
H1195 H 0.31261 0.90117 0.82137 0.0
H1196 H 0.34681 0.94985 0.857 0.0
H1197 H 0.36181 0.88319 0.99278 0.0
H1198 H 0.39965 0.87593 0.00734 0.0
H1199 H 0.36683 0.84634 0.97977 0.0
H1200 H 0.40943 0.8525 0.92912 0.0
H1201 H 0.44134 0.88338 0.95611 0.0
H1202 H 0.43098 0.89308 0.90539 0.0
H1203 H 0.3894 0.99245 0.89723 0.0
H1204 H 0.43792 0.02573 0.93762 0.0
H1205 H 0.44962 0.93472 0.99135 0.0
C1206 C 0.34828 0.86175 0.89389 0.0
C1207 C 0.32834 0.86551 0.86001 0.0
C1208 C 0.32738 0.89747 0.84745 0.0
C1209 C 0.34676 0.92533 0.86751 0.0
C1210 C 0.36706 0.92087 0.89992 0.0
C1211 C 0.36795 0.88985 0.913 0.0
C1212 C 0.39471 0.89219 0.94543 0.0
C1213 C 0.37982 0.87331 0.9836 0.0
C1214 C 0.42064 0.87955 0.93327 0.0
C1215 C 0.40895 0.92946 0.94842 0.0
C1216 C 0.39244 0.94553 0.92222 0.0
C1217 C 0.40228 0.98013 0.91815 0.0
C1218 C 0.42994 0.99881 0.94116 0.0
C1219 C 0.44762 0.98286 0.96762 0.0
C1220 C 0.43657 0.94769 0.97158 0.0
H1221 H 0.14818 0.34214 0.96045 0.0
H1222 H 0.24849 0.41331 0.95368 0.0
H1223 H 0.23034 0.45777 0.97039 0.0
H1224 H 0.10795 0.39928 0.91718 0.0
H1225 H 0.07372 0.38126 0.94801 0.0
H1226 H 0.09499 0.35587 0.9349 0.0
H1227 H 0.10576 0.33963 0.00813 0.0
H1228 H 0.08513 0.36535 0.02185 0.0
H1229 H 0.12699 0.37181 0.04053 0.0
H1230 H 0.20069 0.49351 0.99305 0.0
H1231 H 0.16211 0.51739 0.01415 0.0
H1232 H 0.0814 0.4227 1.00117 0.0
C1233 C 0.16627 0.36715 0.9623 0.0
C1234 C 0.19974 0.37436 0.95597 0.0
C1235 C 0.22269 0.40739 0.95829 0.0
C1236 C 0.21261 0.4327 0.96789 0.0
C1237 C 0.17937 0.42466 0.97442 0.0
C1238 C 0.15653 0.3927 0.97112 0.0
C1239 C 0.12227 0.39028 0.97909 0.0
C1240 C 0.09833 0.38114 0.94262 0.0
C1241 C 0.10929 0.3653 0.01451 0.0
C1242 C 0.12936 0.42569 0.98807 0.0
C1243 C 0.16239 0.44525 0.98553 0.0
C1244 C 0.17469 0.47846 0.99456 0.0
C1245 C 0.15262 0.49186 0.0065 0.0
C1246 C 0.11862 0.47216 0.00887 0.0
C1247 C 0.10709 0.43877 0.99907 0.0
H1248 H 0.7259 0.25527 0.90811 0.0
H1249 H 0.70313 0.2167 0.79394 0.0
H1250 H 0.65072 0.1748 0.816 0.0
H1251 H 0.68822 0.17522 0.9677 0.0
H1252 H 0.67319 0.19474 1.00054 0.0
H1253 H 0.70999 0.21863 0.97543 0.0
H1254 H 0.68099 0.26103 0.94986 0.0
H1255 H 0.64402 0.23497 0.97333 0.0
H1256 H 0.64196 0.24649 0.92151 0.0
H1257 H 0.6009 0.13696 0.84958 0.0
H1258 H 0.55413 0.10828 0.89151 0.0
H1259 H 0.60656 0.17134 0.98403 0.0
C1260 C 0.7099 0.23776 0.88803 0.0
C1261 C 0.71911 0.23851 0.84967 0.0
C1262 C 0.69707 0.21596 0.82373 0.0
C1263 C 0.6672 0.19205 0.83601 0.0
C1264 C 0.65918 0.19126 0.87421 0.0
C1265 C 0.67962 0.21367 0.89983 0.0
C1266 C 0.66381 0.20841 0.93856 0.0
C1267 C 0.68512 0.19871 0.97254 0.0
C1268 C 0.65731 0.23958 0.94625 0.0
C1269 C 0.63159 0.17941 0.93068 0.0
C1270 C 0.62965 0.16988 0.89339 0.0
C1271 C 0.6022 0.14409 0.8789 0.0
C1272 C 0.57584 0.12783 0.9029 0.0
C1273 C 0.57705 0.13729 0.94098 0.0
C1274 C 0.60536 0.16331 0.95517 0.0
H1275 H 0.87544 0.74318 0.83125 0.0
H1276 H 0.78651 0.70726 0.89328 0.0
H1277 H 0.81504 0.68474 0.94878 0.0
H1278 H 0.89087 0.66775 0.8572 0.0
H1279 H 0.93531 0.68713 0.85907 0.0
H1280 H 0.91027 0.70622 0.82806 0.0
H1281 H 0.9388 0.76079 0.86196 0.0
H1282 H 0.96401 0.7419 0.8931 0.0
H1283 H 0.93911 0.75978 0.91435 0.0
H1284 H 0.8556 0.66485 0.99964 0.0
H1285 H 0.89705 0.6419 0.03212 0.0
H1286 H 0.95652 0.68088 0.93233 0.0
C1287 C 0.86251 0.73221 0.85747 0.0
C1288 C 0.82947 0.73122 0.8594 0.0
C1289 C 0.81269 0.71248 0.89248 0.0
C1290 C 0.82872 0.69867 0.92402 0.0
C1291 C 0.86154 0.70128 0.92176 0.0
C1292 C 0.87789 0.71687 0.88856 0.0
C1293 C 0.91109 0.71183 0.8905 0.0
C1294 C 0.91193 0.69207 0.8567 0.0
C1295 C 0.93997 0.74558 0.88994 0.0
C1296 C 0.91128 0.69151 0.93007 0.0
C1297 C 0.88273 0.68629 0.94809 0.0
C1298 C 0.87779 0.66884 0.98529 0.0
C1299 C 0.90182 0.65597 0.00392 0.0
C1300 C 0.93078 0.65959 0.98564 0.0
C1301 C 0.93515 0.67779 0.94787 0.0
H1302 H 0.21061 0.37173 0.27484 0.0
H1303 H 0.24032 0.34657 0.17152 0.0
H1304 H 0.20341 0.37096 0.13079 0.0
H1305 H 0.12455 0.36482 0.24159 0.0
H1306 H 0.12698 0.40173 0.26291 0.0
H1307 H 0.1523 0.37847 0.28393 0.0
H1308 H 0.20447 0.43139 0.2769 0.0
H1309 H 0.17932 0.45483 0.25593 0.0
H1310 H 0.21269 0.45433 0.22972 0.0
H1311 H 0.1566 0.40103 0.09798 0.0
H1312 H 0.12027 0.43387 0.08195 0.0
H1313 H 0.12738 0.45102 0.2039 0.0
C1314 C 0.20888 0.37015 0.2436 0.0
C1315 C 0.22727 0.35214 0.22839 0.0
C1316 C 0.22479 0.35504 0.1864 0.0
C1317 C 0.20394 0.37048 0.16226 0.0
C1318 C 0.1854 0.38626 0.17846 0.0
C1319 C 0.18873 0.38689 0.21872 0.0
C1320 C 0.16906 0.40835 0.2292 0.0
C1321 C 0.1416 0.38709 0.25604 0.0
C1322 C 0.19279 0.43904 0.24916 0.0
C1323 C 0.1536 0.41942 0.18931 0.0
C1324 C 0.16289 0.40582 0.16025 0.0
C1325 C 0.15015 0.41149 0.12143 0.0
C1326 C 0.12874 0.43077 0.11215 0.0
C1327 C 0.11917 0.44678 0.14035 0.0
C1328 C 0.13289 0.44023 0.18006 0.0
H1329 H 0.22174 0.75906 0.90896 0.0
H1330 H 0.20167 0.70316 0.8073 0.0
H1331 H 0.15239 0.66073 0.8371 0.0
H1332 H 0.19513 0.68899 0.98228 0.0
H1333 H 0.17625 0.70843 0.01085 0.0
H1334 H 0.21018 0.73376 0.98185 0.0
H1335 H 0.17408 0.76584 0.94652 0.0
H1336 H 0.14048 0.74052 0.97599 0.0
H1337 H 0.13432 0.74282 0.92345 0.0
H1338 H 0.10572 0.62094 0.88191 0.0
H1339 H 0.06359 0.59366 0.93048 0.0
H1340 H 0.10932 0.67735 1.00093 0.0
C1341 C 0.2068 0.73803 0.89274 0.0
C1342 C 0.21603 0.73507 0.85509 0.0
C1343 C 0.19549 0.70672 0.83558 0.0
C1344 C 0.16732 0.68219 0.85263 0.0
C1345 C 0.15905 0.68582 0.88964 0.0
C1346 C 0.17796 0.71353 0.90912 0.0
C1347 C 0.16299 0.71216 0.94794 0.0
C1348 C 0.18761 0.71077 0.98279 0.0
C1349 C 0.15234 0.74212 0.9485 0.0
C1350 C 0.13286 0.67942 0.94753 0.0
C1351 C 0.13144 0.66425 0.91394 0.0
C1352 C 0.10671 0.63305 0.90794 0.0
C1353 C 0.08279 0.61743 0.93605 0.0
C1354 C 0.08264 0.63277 0.97014 0.0
C1355 C 0.10837 0.66448 0.97554 0.0
H1356 H 0.39674 0.28523 0.86446 0.0
H1357 H 0.29852 0.21145 0.84562 0.0
H1358 H 0.31407 0.17088 0.89216 0.0
H1359 H 0.43901 0.23248 0.86384 0.0
H1360 H 0.4708 0.25095 0.90099 0.0
H1361 H 0.45017 0.27569 0.87219 0.0
H1362 H 0.43386 0.29071 0.93518 0.0
H1363 H 0.45405 0.26567 0.96467 0.0
H1364 H 0.41114 0.25803 0.96996 0.0
H1365 H 0.34262 0.1362 0.93268 0.0
H1366 H 0.38188 0.10958 0.96142 0.0
H1367 H 0.46222 0.20542 0.95536 0.0
C1368 C 0.37826 0.26079 0.87113 0.0
C1369 C 0.34602 0.2518 0.85253 0.0
C1370 C 0.3229 0.21923 0.86062 0.0
C1371 C 0.33162 0.19602 0.88695 0.0
C1372 C 0.36367 0.20565 0.90481 0.0
C1373 C 0.38663 0.23735 0.8973 0.0
C1374 C 0.42037 0.24039 0.91696 0.0
C1375 C 0.44661 0.25045 0.88668 0.0
C1376 C 0.43045 0.26516 0.94858 0.0
C1377 C 0.41334 0.20496 0.93505 0.0
C1378 C 0.38027 0.18554 0.92833 0.0
C1379 C 0.36835 0.15133 0.93876 0.0
C1380 C 0.39084 0.1364 0.9551 0.0
C1381 C 0.42492 0.15552 0.96133 0.0
C1382 C 0.43613 0.19041 0.95216 0.0
H1383 H 0.86507 0.32458 0.92069 0.0
H1384 H 0.85293 0.39408 0.82479 0.0
H1385 H 0.88903 0.44087 0.86151 0.0
H1386 H 0.87107 0.37509 1.00077 0.0
H1387 H 0.90345 0.36455 0.02914 0.0
H1388 H 0.87489 0.33561 0.99674 0.0
H1389 H 0.92373 0.33405 0.96273 0.0
H1390 H 0.95284 0.36353 0.99395 0.0
H1391 H 0.95315 0.37214 0.94158 0.0
H1392 H 0.92604 0.48175 0.90934 0.0
H1393 H 0.96492 0.51276 0.96064 0.0
H1394 H 0.9607 0.41944 0.02543 0.0
C1395 C 0.87007 0.34956 0.90722 0.0
C1396 C 0.85471 0.35482 0.86941 0.0
C1397 C 0.86264 0.38849 0.85373 0.0
C1398 C 0.88371 0.41562 0.87446 0.0
C1399 C 0.89802 0.40961 0.91133 0.0
C1400 C 0.89201 0.37738 0.92748 0.0
C1401 C 0.91215 0.37837 0.96708 0.0
C1402 C 0.88901 0.36245 1.00041 0.0
C1403 C 0.93695 0.36099 0.96626 0.0
C1404 C 0.93024 0.416 0.97053 0.0
C1405 C 0.92114 0.43337 0.93809 0.0
C1406 C 0.93342 0.46821 0.93462 0.0
C1407 C 0.95564 0.48579 0.96436 0.0
C1408 C 0.9666 0.46919 0.99779 0.0
C1409 C 0.95338 0.43341 1.00055 0.0
H1410 H 0.72709 0.94006 0.9403 0.0
H1411 H 0.6572 0.84284 0.91179 0.0
H1412 H 0.61097 0.86087 0.91944 0.0
H1413 H 0.68464 0.95215 0.01328 0.0
H1414 H 0.69317 0.99601 1.00058 0.0
H1415 H 0.72143 0.97744 0.98915 0.0
H1416 H 0.71655 0.99772 0.91647 0.0
H1417 H 0.68881 0.01716 0.92745 0.0
H1418 H 0.6763 0.9876 0.89089 0.0
H1419 H 0.57245 0.88834 0.93188 0.0
H1420 H 0.54343 0.92194 0.95191 0.0
H1421 H 0.6375 1.00155 0.97586 0.0
C1422 C 0.70204 0.92262 0.93545 0.0
C1423 C 0.69585 0.88999 0.9252 0.0
C1424 C 0.66267 0.86806 0.91899 0.0
C1425 C 0.63621 0.87807 0.92338 0.0
C1426 C 0.64319 0.91026 0.93363 0.0
C1427 C 0.67524 0.93233 0.93937 0.0
C1428 C 0.67572 0.96519 0.9513 0.0
C1429 C 0.69489 0.97318 0.99098 0.0
C1430 C 0.69021 0.9936 0.91964 0.0
C1431 C 0.63896 0.95747 0.95358 0.0
C1432 C 0.62077 0.92593 0.9421 0.0
C1433 C 0.58644 0.91305 0.94094 0.0
C1434 C 0.57016 0.93253 0.9524 0.0
C1435 C 0.58803 0.96454 0.96575 0.0
C1436 C 0.62303 0.97727 0.96587 0.0
H1437 H 0.80499 0.6992 0.22437 0.0
H1438 H 0.88347 0.79285 0.24737 0.0
H1439 H 0.92184 0.77537 0.21488 0.0
H1440 H 0.85582 0.64682 0.2393 0.0
H1441 H 0.83468 0.62055 0.2006 0.0
H1442 H 0.81315 0.64042 0.22471 0.0
H1443 H 0.79842 0.66712 0.15834 0.0
H1444 H 0.81986 0.64732 0.13396 0.0
H1445 H 0.83092 0.69189 0.12711 0.0
H1446 H 0.95463 0.74515 0.17832 0.0
H1447 H 0.97527 0.71026 0.14533 0.0
H1448 H 0.87746 0.63335 0.14243 0.0
C1449 C 0.83022 0.71651 0.22241 0.0
C1450 C 0.83972 0.74874 0.23888 0.0
C1451 C 0.87384 0.7689 0.23524 0.0
C1452 C 0.89634 0.7587 0.21655 0.0
C1453 C 0.88596 0.72737 0.20056 0.0
C1454 C 0.85332 0.70655 0.20332 0.0
C1455 C 0.84843 0.67397 0.1838 0.0
C1456 C 0.83733 0.64362 0.21388 0.0
C1457 C 0.82286 0.6698 0.14873 0.0
C1458 C 0.88314 0.67914 0.1698 0.0
C1459 C 0.90432 0.71039 0.17999 0.0
C1460 C 0.93756 0.72092 0.17065 0.0
C1461 C 0.94938 0.70023 0.15129 0.0
C1462 C 0.92931 0.66766 0.13963 0.0
C1463 C 0.89487 0.65753 0.14971 0.0
H1464 H 0.33296 0.84028 0.15466 0.0
H1465 H 0.37505 0.85099 0.27397 0.0
H1466 H 0.41726 0.90514 0.25302 0.0
H1467 H 0.41499 0.87527 0.11446 0.0
H1468 H 0.4022 0.89553 0.07069 0.0
H1469 H 0.3731 0.85808 0.09354 0.0
H1470 H 0.33195 0.88819 0.10115 0.0
H1471 H 0.36027 0.92319 0.07358 0.0
H1472 H 0.34902 0.92872 0.12007 0.0
H1473 H 0.45127 0.96085 0.22091 0.0
H1474 H 0.48589 1.00708 0.17756 0.0
H1475 H 0.42781 0.95988 0.07626 0.0
C1476 C 0.35084 0.85435 0.17635 0.0
C1477 C 0.34931 0.84227 0.2166 0.0
C1478 C 0.37459 0.86035 0.2435 0.0
C1479 C 0.39877 0.8912 0.23177 0.0
C1480 C 0.39829 0.90355 0.19257 0.0
C1481 C 0.37583 0.88521 0.16487 0.0
C1482 C 0.38371 0.90286 0.12397 0.0
C1483 C 0.3941 0.88163 0.0992 0.0
C1484 C 0.35441 0.91113 0.1035 0.0
C1485 C 0.41282 0.9347 0.13334 0.0
C1486 C 0.42033 0.93454 0.17328 0.0
C1487 C 0.44575 0.96103 0.18959 0.0
C1488 C 0.46506 0.98754 0.16464 0.0
C1489 C 0.4594 0.98787 0.12337 0.0
C1490 C 0.43229 0.96117 0.1076 0.0
H1491 H 0.66739 0.25807 0.21412 0.0
H1492 H 0.74663 0.24411 0.16095 0.0
H1493 H 0.70566 0.20657 0.1165 0.0
H1494 H 0.60994 0.1761 0.21161 0.0
H1495 H 0.57393 0.18705 0.19889 0.0
H1496 H 0.60939 0.21474 0.22527 0.0
H1497 H 0.61267 0.26277 0.17202 0.0
H1498 H 0.57702 0.23544 0.14545 0.0
H1499 H 0.61499 0.25702 0.12169 0.0
H1500 H 0.65632 0.16618 0.08192 0.0
H1501 H 0.60191 0.12919 0.05572 0.0
H1502 H 0.55321 0.1711 0.12652 0.0
C1503 C 0.67626 0.24785 0.19253 0.0
C1504 C 0.71062 0.25458 0.19119 0.0
C1505 C 0.72073 0.2398 0.1628 0.0
C1506 C 0.69754 0.21826 0.1373 0.0
C1507 C 0.66402 0.21177 0.13985 0.0
C1508 C 0.65332 0.22652 0.16627 0.0
C1509 C 0.61567 0.21482 0.16306 0.0
C1510 C 0.6014 0.19713 0.20203 0.0
C1511 C 0.60442 0.24426 0.14976 0.0
C1512 C 0.60689 0.19049 0.13148 0.0
C1513 C 0.63532 0.18918 0.11869 0.0
C1514 C 0.63394 0.16733 0.09138 0.0
C1515 C 0.60285 0.14623 0.07678 0.0
C1516 C 0.57322 0.14722 0.08883 0.0
C1517 C 0.57538 0.17002 0.11633 0.0
H1518 H 0.72265 0.69359 0.87817 0.0
H1519 H 0.66359 0.71523 0.7773 0.0
H1520 H 0.61395 0.66923 0.80115 0.0
H1521 H 0.67946 0.60209 0.88072 0.0
H1522 H 0.68344 0.59702 0.93335 0.0
H1523 H 0.71452 0.63041 0.90708 0.0
H1524 H 0.7063 0.6737 0.94673 0.0
H1525 H 0.67572 0.64053 0.97351 0.0
H1526 H 0.66539 0.67446 0.94802 0.0
H1527 H 0.57024 0.62568 0.84027 0.0
H1528 H 0.53597 0.58735 0.89117 0.0
H1529 H 0.62526 0.59113 0.96252 0.0
C1530 C 0.69918 0.68865 0.86134 0.0
C1531 C 0.69639 0.70807 0.8266 0.0
C1532 C 0.66574 0.70061 0.80443 0.0
C1533 C 0.63763 0.67446 0.8175 0.0
C1534 C 0.6411 0.65561 0.85203 0.0
C1535 C 0.6712 0.6621 0.87334 0.0
C1536 C 0.66827 0.63868 0.90982 0.0
C1537 C 0.68757 0.61569 0.90759 0.0
C1538 C 0.67956 0.658 0.94667 0.0
C1539 C 0.63144 0.6195 0.90707 0.0
C1540 C 0.61619 0.6292 0.8733 0.0
C1541 C 0.58189 0.61728 0.86644 0.0
C1542 C 0.56265 0.5956 0.89549 0.0
C1543 C 0.57794 0.58629 0.93077 0.0
C1544 C 0.61276 0.59746 0.93574 0.0
H1545 H 0.33341 0.64781 0.01346 0.0
H1546 H 0.39848 0.75045 0.99232 0.0
H1547 H 0.44658 0.73512 0.01701 0.0
H1548 H 0.38582 0.62156 0.09894 0.0
H1549 H 0.37571 0.58194 0.07951 0.0
H1550 H 0.34588 0.60211 0.07428 0.0
H1551 H 0.34077 0.59875 0.99965 0.0
H1552 H 0.37059 0.57904 0.00392 0.0
H1553 H 0.37731 0.61688 0.9725 0.0
H1554 H 0.48741 0.70692 0.02531 0.0
H1555 H 0.51672 0.66878 0.0193 0.0
H1556 H 0.42492 0.58431 0.03332 0.0
C1557 C 0.35757 0.6673 0.01654 0.0
C1558 C 0.36239 0.70027 1.00177 0.0
C1559 C 0.39444 0.72509 0.00419 0.0
C1560 C 0.42184 0.71657 0.01818 0.0
C1561 C 0.41663 0.68318 0.02966 0.0
C1562 C 0.3851 0.65896 0.02961 0.0
C1563 C 0.38623 0.62429 0.03521 0.0
C1564 C 0.37262 0.60643 0.07432 0.0
C1565 C 0.36766 0.60359 1.00077 0.0
C1566 C 0.42308 0.6327 0.03569 0.0
C1567 C 0.44037 0.66671 0.03351 0.0
C1568 C 0.47424 0.68024 0.02818 0.0
C1569 C 0.49064 0.65846 0.02443 0.0
C1570 C 0.47302 0.62367 0.02569 0.0
C1571 C 0.43908 0.61081 0.03237 0.0
H1572 H 0.40683 0.36422 0.82938 0.0
H1573 H 0.32885 0.39829 0.84924 0.0
H1574 H 0.36666 0.43665 0.89618 0.0
H1575 H 0.43471 0.35942 0.92562 0.0
H1576 H 0.47797 0.37252 0.91737 0.0
H1577 H 0.44713 0.35236 0.88032 0.0
H1578 H 0.47177 0.40242 0.8294 0.0
H1579 H 0.50353 0.42227 0.86587 0.0
H1580 H 0.47802 0.44392 0.84088 0.0
H1581 H 0.41148 0.4668 0.94556 0.0
H1582 H 0.46154 0.49022 0.98954 0.0
H1583 H 0.50808 0.4329 0.9389 0.0
C1584 C 0.39845 0.38114 0.84202 0.0
C1585 C 0.36573 0.37971 0.83482 0.0
C1586 C 0.35445 0.40028 0.85372 0.0
C1587 C 0.37557 0.42177 0.88057 0.0
C1588 C 0.40753 0.42176 0.8883 0.0
C1589 C 0.41901 0.40223 0.86924 0.0
C1590 C 0.45318 0.40436 0.88524 0.0
C1591 C 0.45322 0.37014 0.90319 0.0
C1592 C 0.4781 0.41914 0.85346 0.0
C1593 C 0.45913 0.42807 0.91633 0.0
C1594 C 0.43262 0.43788 0.91774 0.0
C1595 C 0.43254 0.45952 0.94455 0.0
C1596 C 0.46091 0.47242 0.96964 0.0
C1597 C 0.48873 0.46347 0.96759 0.0
C1598 C 0.48731 0.44038 0.94118 0.0
H1599 H 0.6612 0.38069 0.80232 0.0
H1600 H 0.75395 0.46161 0.77993 0.0
H1601 H 0.74392 0.49297 0.82968 0.0
H1602 H 0.61591 0.4316 0.81139 0.0
H1603 H 0.59124 0.40443 0.84924 0.0
H1604 H 0.60746 0.38744 0.81473 0.0
H1605 H 0.63579 0.36102 0.87177 0.0
H1606 H 0.61958 0.37795 0.90647 0.0
H1607 H 0.66343 0.38709 0.90746 0.0
H1608 H 0.72221 0.51617 0.88194 0.0
H1609 H 0.68903 0.5298 0.92712 0.0
H1610 H 0.61021 0.43445 0.91156 0.0
C1611 C 0.67964 0.40476 0.80838 0.0
C1612 C 0.70843 0.41864 0.78749 0.0
C1613 C 0.73166 0.45056 0.7956 0.0
C1614 C 0.72625 0.46847 0.82395 0.0
C1615 C 0.69736 0.45424 0.84379 0.0
C1616 C 0.6744 0.42313 0.83612 0.0
C1617 C 0.64433 0.41417 0.85931 0.0
C1618 C 0.61289 0.40913 0.83204 0.0
C1619 C 0.64058 0.38322 0.88795 0.0
C1620 C 0.65367 0.44518 0.88081 0.0
C1621 C 0.68454 0.46792 0.87217 0.0
C1622 C 0.69799 0.49848 0.88885 0.0
C1623 C 0.67911 0.50604 0.9145 0.0
C1624 C 0.647 0.48338 0.92242 0.0
C1625 C 0.63455 0.45251 0.90564 0.0
H1626 H 0.70635 0.39667 0.19707 0.0
H1627 H 0.79258 0.47219 0.1463 0.0
H1628 H 0.76182 0.46692 0.08204 0.0
H1629 H 0.67799 0.34682 0.10265 0.0
H1630 H 0.63603 0.33538 0.11563 0.0
H1631 H 0.66889 0.33905 0.15326 0.0
H1632 H 0.6504 0.38072 0.18496 0.0
H1633 H 0.61879 0.37714 0.14678 0.0
H1634 H 0.64916 0.41768 0.1559 0.0
H1635 H 0.71849 0.46422 0.0297 0.0
H1636 H 0.66754 0.47068 1.00115 0.0
H1637 H 0.61068 0.39097 0.08116 0.0
C1638 C 0.72 0.4107 0.17247 0.0
C1639 C 0.75262 0.4342 0.17741 0.0
C1640 C 0.76782 0.45381 0.14396 0.0
C1641 C 0.7507 0.45048 0.10695 0.0
C1642 C 0.71872 0.4267 0.10342 0.0
C1643 C 0.70379 0.40674 0.13542 0.0
C1644 C 0.6677 0.38677 0.12581 0.0
C1645 C 0.66232 0.34982 0.12424 0.0
C1646 C 0.64528 0.39093 0.15503 0.0
C1647 C 0.66325 0.40271 0.0853 0.0
C1648 C 0.69338 0.42415 0.07185 0.0
C1649 C 0.69496 0.44667 0.03912 0.0
C1650 C 0.66555 0.44998 0.02251 0.0
C1651 C 0.63517 0.43104 0.03889 0.0
C1652 C 0.63371 0.40493 0.06773 0.0
H1653 H 0.72823 0.75172 0.17408 0.0
H1654 H 0.68006 0.70743 0.28148 0.0
H1655 H 0.64069 0.66066 0.24612 0.0
H1656 H 0.65064 0.72802 0.11047 0.0
H1657 H 0.67079 0.72183 0.0707 0.0
H1658 H 0.69376 0.7523 0.10457 0.0
H1659 H 0.73684 0.72371 0.11862 0.0
H1660 H 0.71374 0.69272 0.08552 0.0
H1661 H 0.72338 0.6801 0.1355 0.0
H1662 H 0.61158 0.6156 0.20065 0.0
H1663 H 0.58829 0.57969 0.14601 0.0
H1664 H 0.65197 0.65621 0.0671 0.0
C1665 C 0.70925 0.73241 0.19025 0.0
C1666 C 0.70822 0.73233 0.23107 0.0
C1667 C 0.68228 0.70715 0.25065 0.0
C1668 C 0.65963 0.68067 0.2307 0.0
C1669 C 0.66255 0.68059 0.19089 0.0
C1670 C 0.68604 0.70634 0.17063 0.0
C1671 C 0.68385 0.70054 0.12786 0.0
C1672 C 0.67417 0.72726 0.10187 0.0
C1673 C 0.71638 0.69918 0.11622 0.0
C1674 C 0.65623 0.66676 0.12747 0.0
C1675 C 0.6444 0.65563 0.16418 0.0
C1676 C 0.62027 0.62424 0.17168 0.0
C1677 C 0.60751 0.60391 0.14068 0.0
C1678 C 0.61871 0.61527 0.10273 0.0
C1679 C 0.64319 0.6471 0.096 0.0
H1680 H 0.43392 0.6937 0.23847 0.0
H1681 H 0.49503 0.794 0.19596 0.0
H1682 H 0.52225 0.77069 0.15477 0.0
H1683 H 0.49404 0.65592 0.241 0.0
H1684 H 0.46555 0.6174 0.22323 0.0
H1685 H 0.45084 0.64173 0.25007 0.0
H1686 H 0.40809 0.64324 0.19278 0.0
H1687 H 0.42282 0.61947 0.165 0.0
H1688 H 0.42206 0.65947 0.14466 0.0
H1689 H 0.54417 0.73738 0.12006 0.0
H1690 H 0.55843 0.69589 0.09117 0.0
H1691 H 0.48085 0.61612 0.15161 0.0
C1692 C 0.45276 0.71085 0.22023 0.0
C1693 C 0.46249 0.74586 0.22102 0.0
C1694 C 0.48758 0.76719 0.19684 0.0
C1695 C 0.50303 0.75418 0.17298 0.0
C1696 C 0.49294 0.71972 0.17312 0.0
C1697 C 0.46825 0.69828 0.19581 0.0
C1698 C 0.46189 0.66219 0.18985 0.0
C1699 C 0.46848 0.6432 0.22833 0.0
C1700 C 0.42661 0.64505 0.17202 0.0
C1701 C 0.48738 0.66676 0.16086 0.0
C1702 C 0.50494 0.70024 0.15177 0.0
C1703 C 0.53048 0.7111 0.12675 0.0
C1704 C 0.53846 0.68719 0.11063 0.0
C1705 C 0.52083 0.65261 0.11916 0.0
C1706 C 0.49471 0.6423 0.14443 0.0
H1707 H 0.37764 0.3221 0.1904 0.0
H1708 H 0.34087 0.3993 0.20823 0.0
H1709 H 0.38931 0.44178 0.17862 0.0
H1710 H 0.46221 0.36623 0.20757 0.0
H1711 H 0.47576 0.3515 0.1683 0.0
H1712 H 0.43777 0.32616 0.19018 0.0
H1713 H 0.40529 0.3233 0.12257 0.0
H1714 H 0.44329 0.34793 0.10024 0.0
H1715 H 0.40853 0.36139 0.09304 0.0
H1716 H 0.44507 0.47622 0.15741 0.0
H1717 H 0.49852 0.50083 0.12784 0.0
H1718 H 0.49574 0.40181 0.11248 0.0
C1719 C 0.37947 0.34784 0.18729 0.0
C1720 C 0.35622 0.35761 0.20305 0.0
C1721 C 0.35913 0.39144 0.19783 0.0
C1722 C 0.38648 0.41578 0.18092 0.0
C1723 C 0.40999 0.40569 0.16782 0.0
C1724 C 0.4062 0.37251 0.16917 0.0
C1725 C 0.43465 0.36868 0.15109 0.0
C1726 C 0.45372 0.35217 0.18109 0.0
C1727 C 0.4222 0.34918 0.11456 0.0
C1728 C 0.45528 0.40496 0.14047 0.0
C1729 C 0.4408 0.42577 0.15122 0.0
C1730 C 0.45618 0.46027 0.14749 0.0
C1731 C 0.4866 0.47403 0.1306 0.0
C1732 C 0.50079 0.45338 0.1164 0.0
C1733 C 0.48517 0.41831 0.12223 0.0
H1734 H 0.83566 0.62366 0.61565 0.0
H1735 H 0.90444 0.72139 0.64439 0.0
H1736 H 0.95105 0.70525 0.63307 0.0
H1737 H 0.88648 0.57736 0.65984 0.0
H1738 H 0.87444 0.54862 0.6224 0.0
H1739 H 0.84641 0.56748 0.63387 0.0
H1740 H 0.84211 0.58914 0.56157 0.0
H1741 H 0.87086 0.57136 0.54952 0.0
H1742 H 0.879 0.61529 0.53821 0.0
H1743 H 0.99023 0.67806 0.62186 0.0
H1744 H 1.02001 0.64275 0.60811 0.0
H1745 H 0.9267 0.56351 0.58085 0.0
C1746 C 0.86049 0.64182 0.61936 0.0
C1747 C 0.86619 0.67386 0.63128 0.0
C1748 C 0.89924 0.69653 0.63613 0.0
C1749 C 0.92595 0.68766 0.62947 0.0
C1750 C 0.9194 0.656 0.61778 0.0
C1751 C 0.88754 0.6334 0.61272 0.0
C1752 C 0.88749 0.60096 0.59997 0.0
C1753 C 0.87284 0.57189 0.63086 0.0
C1754 C 0.86875 0.59374 0.55989 0.0
C1755 C 0.92435 0.6091 0.59791 0.0
C1756 C 0.94217 0.64085 0.60906 0.0
C1757 C 0.97654 0.65336 0.61263 0.0
C1758 C 0.99324 0.63299 0.60479 0.0
C1759 C 0.9758 0.60049 0.59276 0.0
C1760 C 0.94077 0.58853 0.58891 0.0
H1761 H 0.3728 0.87988 0.74358 0.0
H1762 H 0.34295 0.79768 0.67049 0.0
H1763 H 0.38797 0.82973 0.62761 0.0
H1764 H 0.39323 0.94785 0.66516 0.0
H1765 H 0.42728 0.97366 0.69453 0.0
H1766 H 0.39314 0.94171 0.71779 0.0
H1767 H 0.43878 0.92126 0.75616 0.0
H1768 H 0.47043 0.95214 0.72795 0.0
H1769 H 0.46446 0.90874 0.72864 0.0
H1770 H 0.436 0.87248 0.58901 0.0
H1771 H 0.47763 0.92234 0.55692 0.0
H1772 H 0.47453 0.98037 0.64934 0.0
C1773 C 0.37635 0.86825 0.71922 0.0
C1774 C 0.35425 0.83517 0.71164 0.0
C1775 C 0.3595 0.82218 0.67805 0.0
C1776 C 0.38516 0.84047 0.65314 0.0
C1777 C 0.40592 0.87288 0.6608 0.0
C1778 C 0.40171 0.88686 0.69299 0.0
C1779 C 0.42651 0.92306 0.69296 0.0
C1780 C 0.4089 0.94792 0.69261 0.0
C1781 C 0.45151 0.9265 0.72856 0.0
C1782 C 0.44372 0.92768 0.6548 0.0
C1783 C 0.43228 0.89798 0.6375 0.0
C1784 C 0.44496 0.89577 0.60257 0.0
C1785 C 0.46905 0.9244 0.58445 0.0
C1786 C 0.48025 0.95584 0.60015 0.0
C1787 C 0.46715 0.95697 0.63627 0.0
H1788 H 0.19832 0.30769 0.72214 0.0
H1789 H 0.29857 0.37786 0.74016 0.0
H1790 H 0.28353 0.42126 0.69832 0.0
H1791 H 0.1839 0.33647 0.62259 0.0
H1792 H 0.14162 0.33285 0.62575 0.0
H1793 H 0.15806 0.30513 0.65617 0.0
H1794 H 0.14554 0.32126 0.71972 0.0
H1795 H 0.12591 0.34728 0.69152 0.0
H1796 H 0.15852 0.36461 0.72832 0.0
H1797 H 0.25625 0.4581 0.65945 0.0
H1798 H 0.21998 0.48595 0.62566 0.0
H1799 H 0.13626 0.39221 0.63213 0.0
C1800 C 0.21725 0.33206 0.7166 0.0
C1801 C 0.24995 0.33914 0.73338 0.0
C1802 C 0.27375 0.37156 0.72653 0.0
C1803 C 0.26529 0.39641 0.70306 0.0
C1804 C 0.23277 0.38862 0.68707 0.0
C1805 C 0.20911 0.35721 0.69356 0.0
C1806 C 0.17555 0.35575 0.67461 0.0
C1807 C 0.16405 0.3311 0.64284 0.0
C1808 C 0.14987 0.3467 0.70538 0.0
C1809 C 0.18376 0.3915 0.65703 0.0
C1810 C 0.21698 0.4099 0.66452 0.0
C1811 C 0.2303 0.44383 0.65319 0.0
C1812 C 0.20927 0.45949 0.63411 0.0
C1813 C 0.17501 0.44145 0.62608 0.0
C1814 C 0.16226 0.40678 0.63747 0.0
H1815 H 0.69396 0.20908 0.69303 0.0
H1816 H 0.77966 0.18113 0.72362 0.0
H1817 H 0.75666 0.1357 0.68021 0.0
H1818 H 0.63434 0.12302 0.68987 0.0
H1819 H 0.60874 0.13207 0.64909 0.0
H1820 H 0.63209 0.16395 0.68118 0.0
H1821 H 0.65968 0.20283 0.62201 0.0
H1822 H 0.63641 0.17103 0.58978 0.0
H1823 H 0.68089 0.1886 0.59012 0.0
H1824 H 0.72522 0.09255 0.63184 0.0
H1825 H 0.68651 0.05339 0.58714 0.0
H1826 H 0.617 0.10345 0.58762 0.0
C1827 C 0.70804 0.19359 0.6904 0.0
C1828 C 0.73933 0.19966 0.71244 0.0
C1829 C 0.75599 0.1778 0.70785 0.0
C1830 C 0.74302 0.15162 0.68285 0.0
C1831 C 0.71248 0.14621 0.66197 0.0
C1832 C 0.69488 0.16633 0.66567 0.0
C1833 C 0.6618 0.1536 0.64072 0.0
C1834 C 0.6325 0.14251 0.66676 0.0
C1835 C 0.65956 0.18063 0.60876 0.0
C1836 C 0.66375 0.12354 0.62253 0.0
C1837 C 0.69356 0.1202 0.63509 0.0
C1838 C 0.70179 0.09503 0.62213 0.0
C1839 C 0.67935 0.07266 0.59626 0.0
C1840 C 0.648 0.0744 0.58294 0.0
C1841 C 0.64041 0.10071 0.59672 0.0
H1842 H 0.83423 0.37799 0.3786 0.0
H1843 H 0.88151 0.30667 0.37468 0.0
H1844 H 0.9287 0.33983 0.41637 0.0
H1845 H 0.90733 0.44996 0.37268 0.0
H1846 H 0.89581 0.47255 0.40557 0.0
H1847 H 0.8643 0.44188 0.37777 0.0
H1848 H 0.83765 0.41081 0.44154 0.0
H1849 H 0.86896 0.4415 0.46961 0.0
H1850 H 0.86251 0.39794 0.48034 0.0
H1851 H 0.97265 0.38252 0.45537 0.0
H1852 H 1.00956 0.43086 0.48988 0.0
H1853 H 0.93457 0.47547 0.46993 0.0
C1854 C 0.85415 0.36892 0.38716 0.0
C1855 C 0.85395 0.33938 0.373 0.0
C1856 C 0.88101 0.32909 0.38448 0.0
C1857 C 0.90798 0.34782 0.40848 0.0
C1858 C 0.9078 0.37711 0.42108 0.0
C1859 C 0.88152 0.38759 0.41105 0.0
C1860 C 0.88835 0.4209 0.42718 0.0
C1861 C 0.88899 0.44792 0.39381 0.0
C1862 C 0.86285 0.41757 0.45641 0.0
C1863 C 0.92259 0.42751 0.44763 0.0
C1864 C 0.93325 0.40184 0.44372 0.0
C1865 C 0.96443 0.40264 0.45885 0.0
C1866 C 0.98533 0.43036 0.47838 0.0
C1867 C 0.97516 0.45714 0.48291 0.0
C1868 C 0.94311 0.45537 0.46743 0.0
H1869 H 0.69434 0.84005 0.31759 0.0
H1870 H 0.79278 0.87783 0.37355 0.0
H1871 H 0.77373 0.9078 0.41677 0.0
H1872 H 0.67714 0.91609 0.3193 0.0
H1873 H 0.63401 0.89547 0.32829 0.0
H1874 H 0.6546 0.87493 0.30378 0.0
H1875 H 0.63722 0.82479 0.35535 0.0
H1876 H 0.61646 0.8451 0.37998 0.0
H1877 H 0.64761 0.83137 0.40642 0.0
H1878 H 0.74098 0.93776 0.45734 0.0
H1879 H 0.70348 0.9608 0.48293 0.0
H1880 H 0.62522 0.90684 0.40099 0.0
C1881 C 0.71194 0.85351 0.33987 0.0
C1882 C 0.74559 0.85318 0.3425 0.0
C1883 C 0.76684 0.87444 0.37098 0.0
C1884 C 0.75595 0.89244 0.39599 0.0
C1885 C 0.72292 0.89137 0.3932 0.0
C1886 C 0.70121 0.8722 0.36535 0.0
C1887 C 0.66725 0.87635 0.36685 0.0
C1888 C 0.65766 0.89159 0.32719 0.0
C1889 C 0.64053 0.84238 0.37777 0.0
C1890 C 0.67281 0.90054 0.39942 0.0
C1891 C 0.70524 0.90889 0.41449 0.0
C1892 C 0.71576 0.93081 0.44493 0.0
C1893 C 0.69374 0.94419 0.45982 0.0
C1894 C 0.65999 0.9368 0.44535 0.0
C1895 C 0.65025 0.91406 0.41408 0.0
H1896 H 0.22003 0.72974 0.38485 0.0
H1897 H 0.20647 0.68628 0.27469 0.0
H1898 H 0.17095 0.63197 0.30539 0.0
H1899 H 0.21748 0.65502 0.45457 0.0
H1900 H 0.19454 0.66613 0.48698 0.0
H1901 H 0.22237 0.69815 0.45559 0.0
H1902 H 0.17064 0.71478 0.43233 0.0
H1903 H 0.14388 0.67945 0.46101 0.0
H1904 H 0.13485 0.68474 0.40905 0.0
H1905 H 0.13691 0.58234 0.34728 0.0
H1906 H 0.10641 0.54003 0.39688 0.0
H1907 H 0.13821 0.61356 0.48238 0.0
C1908 C 0.21031 0.70844 0.36761 0.0
C1909 C 0.21778 0.71191 0.32764 0.0
C1910 C 0.20256 0.68402 0.30554 0.0
C1911 C 0.18207 0.65307 0.32279 0.0
C1912 C 0.17572 0.65026 0.36221 0.0
C1913 C 0.18921 0.67718 0.3845 0.0
C1914 C 0.1761 0.66755 0.42555 0.0
C1915 C 0.20437 0.67207 0.45749 0.0
C1916 C 0.15513 0.68785 0.43238 0.0
C1917 C 0.15452 0.63065 0.42337 0.0
C1918 C 0.15453 0.62163 0.38621 0.0
C1919 C 0.13686 0.58922 0.37641 0.0
C1920 C 0.11948 0.56519 0.40514 0.0
C1921 C 0.11951 0.57285 0.44412 0.0
C1922 C 0.13706 0.60655 0.45303 0.0
H1923 H 0.31347 0.18441 0.34293 0.0
H1924 H 0.39005 0.27895 0.31326 0.0
H1925 H 0.43202 0.25709 0.34632 0.0
H1926 H 0.35243 0.16178 0.4386 0.0
H1927 H 0.3401 0.11825 0.43119 0.0
H1928 H 0.31559 0.14182 0.40839 0.0
H1929 H 0.32071 0.12561 0.34084 0.0
H1930 H 0.34489 0.10157 0.36316 0.0
H1931 H 0.36111 0.13374 0.3246 0.0
H1932 H 0.4696 0.22113 0.38751 0.0
H1933 H 0.49318 0.17995 0.41965 0.0
H1934 H 0.39496 0.10423 0.4185 0.0
C1935 C 0.33898 0.20132 0.34433 0.0
C1936 C 0.34642 0.23594 0.32733 0.0
C1937 C 0.3814 0.25423 0.32821 0.0
C1938 C 0.40618 0.24121 0.34676 0.0
C1939 C 0.39773 0.20796 0.36427 0.0
C1940 C 0.36449 0.18809 0.36246 0.0
C1941 C 0.36186 0.15237 0.38101 0.0
C1942 C 0.34124 0.14296 0.41692 0.0
C1943 C 0.34618 0.12679 0.3506 0.0
C1944 C 0.39828 0.15473 0.3936 0.0
C1945 C 0.41862 0.1874 0.38409 0.0
C1946 C 0.45302 0.19576 0.39411 0.0
C1947 C 0.4667 0.17148 0.41304 0.0
C1948 C 0.44749 0.137 0.4228 0.0
C1949 C 0.41198 0.12944 0.41217 0.0
H1950 H 0.77056 0.87935 0.71065 0.0
H1951 H 0.69828 0.77886 0.71929 0.0
H1952 H 0.65931 0.79766 0.67358 0.0
H1953 H 0.71381 0.92068 0.71116 0.0
H1954 H 0.73528 0.95537 0.67771 0.0
H1955 H 0.7578 0.93312 0.70802 0.0
H1956 H 0.77997 0.92183 0.64673 0.0
H1957 H 0.75771 0.94427 0.61619 0.0
H1958 H 0.75123 0.90203 0.6076 0.0
H1959 H 0.62641 0.83062 0.62609 0.0
H1960 H 0.60524 0.87115 0.58673 0.0
H1961 H 0.69866 0.9506 0.61162 0.0
C1962 C 0.74681 0.86092 0.7023 0.0
C1963 C 0.73849 0.82697 0.71797 0.0
C1964 C 0.70629 0.80454 0.70707 0.0
C1965 C 0.68373 0.81528 0.68116 0.0
C1966 C 0.69293 0.84896 0.66636 0.0
C1967 C 0.72395 0.87136 0.67682 0.0
C1968 C 0.72784 0.90649 0.65874 0.0
C1969 C 0.73405 0.93032 0.69082 0.0
C1970 C 0.75585 0.91942 0.63065 0.0
C1971 C 0.69421 0.90086 0.63647 0.0
C1972 C 0.67433 0.86746 0.6409 0.0
C1973 C 0.64215 0.85667 0.6228 0.0
C1974 C 0.63016 0.8801 0.6002 0.0
C1975 C 0.64981 0.91466 0.5954 0.0
C1976 C 0.68249 0.92467 0.61416 0.0
H1977 H 0.76092 0.21059 0.39088 0.0
H1978 H 0.69986 0.23467 0.2939 0.0
H1979 H 0.65081 0.18897 0.31817 0.0
H1980 H 0.72573 0.12564 0.38597 0.0
H1981 H 0.72805 0.11462 0.43791 0.0
H1982 H 0.75714 0.15307 0.41744 0.0
H1983 H 0.74036 0.18617 0.46376 0.0
H1984 H 0.71131 0.14777 0.48477 0.0
H1985 H 0.6975 0.181 0.46448 0.0
H1986 H 0.60913 0.13803 0.3505 0.0
H1987 H 0.57907 0.08348 0.38606 0.0
H1988 H 0.66865 0.08995 0.45749 0.0
C1989 C 0.737 0.20672 0.3755 0.0
C1990 C 0.73382 0.22694 0.34157 0.0
C1991 C 0.70255 0.22036 0.32093 0.0
C1992 C 0.67455 0.19433 0.33442 0.0
C1993 C 0.6785 0.17474 0.36805 0.0
C1994 C 0.70898 0.1805 0.3882 0.0
C1995 C 0.70741 0.1536 0.42077 0.0
C1996 C 0.73097 0.13568 0.41515 0.0
C1997 C 0.71456 0.16799 0.46082 0.0
C1998 C 0.67163 0.13114 0.4148 0.0
C1999 C 0.65509 0.14416 0.38497 0.0
C2000 C 0.62177 0.12758 0.37396 0.0
C2001 C 0.60499 0.09673 0.394 0.0
C2002 C 0.622 0.08281 0.42365 0.0
C2003 C 0.65551 0.1002 0.43435 0.0
H2004 H 0.84942 0.65596 0.44184 0.0
H2005 H 0.89143 0.72281 0.53369 0.0
H2006 H 0.94111 0.70724 0.54073 0.0
H2007 H 0.87884 0.5896 0.48025 0.0
H2008 H 0.88538 0.58323 0.43186 0.0
H2009 H 0.85421 0.59947 0.43895 0.0
H2010 H 0.88368 0.64856 0.38769 0.0
H2011 H 0.91628 0.63292 0.38519 0.0
H2012 H 0.92616 0.67474 0.3982 0.0
H2013 H 0.98784 0.68816 0.53288 0.0
H2014 H 1.02065 0.65356 0.52697 0.0
H2015 H 0.94621 0.59772 0.44203 0.0
C2016 C 0.86886 0.66681 0.46394 0.0
C2017 C 0.86696 0.69062 0.48715 0.0
C2018 C 0.89259 0.70438 0.51585 0.0
C2019 C 0.92101 0.69616 0.5195 0.0
C2020 C 0.92303 0.67423 0.49424 0.0
C2021 C 0.89721 0.65899 0.46783 0.0
C2022 C 0.90502 0.63562 0.44475 0.0
C2023 C 0.87933 0.59992 0.44931 0.0
C2024 C 0.90796 0.64876 0.4014 0.0
C2025 C 0.93837 0.63822 0.46433 0.0
C2026 C 0.94907 0.66188 0.49128 0.0
C2027 C 0.97946 0.6691 0.51247 0.0
C2028 C 0.99804 0.64953 0.5086 0.0
C2029 C 0.98538 0.62243 0.48486 0.0
C2030 C 0.95621 0.61803 0.46076 0.0
H2031 H 0.32988 0.86897 0.36668 0.0
H2032 H 0.38242 0.80031 0.37921 0.0
H2033 H 0.42445 0.83691 0.42423 0.0
H2034 H 0.39787 0.93911 0.35695 0.0
H2035 H 0.38364 0.96473 0.3824 0.0
H2036 H 0.35421 0.93004 0.35849 0.0
H2037 H 0.32615 0.90553 0.42344 0.0
H2038 H 0.35539 0.94034 0.44773 0.0
H2039 H 0.3506 0.89836 0.46653 0.0
H2040 H 0.46372 0.88383 0.46025 0.0
H2041 H 0.49943 0.93863 0.4814 0.0
H2042 H 0.42214 0.97782 0.44214 0.0
C2043 C 0.34968 0.86097 0.37948 0.0
C2044 C 0.35283 0.83169 0.36938 0.0
C2045 C 0.37949 0.82261 0.38655 0.0
C2046 C 0.40332 0.84312 0.41234 0.0
C2047 C 0.39991 0.87238 0.42059 0.0
C2048 C 0.37372 0.88126 0.40462 0.0
C2049 C 0.37791 0.91599 0.4135 0.0
C2050 C 0.37846 0.93879 0.37559 0.0
C2051 C 0.35091 0.91498 0.43935 0.0
C2052 C 0.41136 0.92595 0.43573 0.0
C2053 C 0.42319 0.90013 0.44031 0.0
C2054 C 0.45457 0.90407 0.45726 0.0
C2055 C 0.47474 0.93543 0.46887 0.0
C2056 C 0.46366 0.96263 0.46303 0.0
C2057 C 0.43117 0.95749 0.4473 0.0
H2058 H 0.22894 0.33622 0.48351 0.0
H2059 H 0.31975 0.41223 0.52449 0.0
H2060 H 0.28749 0.44207 0.54689 0.0
H2061 H 0.19618 0.39036 0.43957 0.0
H2062 H 0.15353 0.36675 0.44883 0.0
H2063 H 0.18163 0.34552 0.44707 0.0
H2064 H 0.16839 0.31684 0.51673 0.0
H2065 H 0.1391 0.33702 0.51794 0.0
H2066 H 0.17159 0.34194 0.55605 0.0
H2067 H 0.24797 0.46983 0.54985 0.0
H2068 H 0.20285 0.49155 0.53926 0.0
H2069 H 0.13712 0.39828 0.49482 0.0
C2070 C 0.24182 0.35829 0.49895 0.0
C2071 C 0.27667 0.37182 0.50275 0.0
C2072 C 0.293 0.40119 0.52203 0.0
C2073 C 0.27486 0.41839 0.5346 0.0
C2074 C 0.24056 0.40559 0.52797 0.0
C2075 C 0.2241 0.37592 0.51107 0.0
C2076 C 0.18802 0.37059 0.50072 0.0
C2077 C 0.17937 0.36819 0.45644 0.0
C2078 C 0.16543 0.33975 0.52427 0.0
C2079 C 0.187 0.40234 0.51337 0.0
C2080 C 0.21747 0.42203 0.52929 0.0
C2081 C 0.22371 0.45421 0.53867 0.0
C2082 C 0.19796 0.46639 0.53228 0.0
C2083 C 0.1663 0.44632 0.51694 0.0
C2084 C 0.16087 0.41393 0.50731 0.0
H2085 H 0.38448 0.21102 0.56199 0.0
H2086 H 0.40315 0.19874 0.68806 0.0
H2087 H 0.42574 0.15607 0.67988 0.0
H2088 H 0.36429 0.12326 0.54311 0.0
H2089 H 0.38536 0.13415 0.49846 0.0
H2090 H 0.3671 0.16138 0.51392 0.0
H2091 H 0.42362 0.21017 0.51059 0.0
H2092 H 0.44178 0.18287 0.49533 0.0
H2093 H 0.45945 0.20552 0.53786 0.0
H2094 H 0.45021 0.11822 0.65923 0.0
H2095 H 0.47661 0.08787 0.62707 0.0
H2096 H 0.44451 0.12391 0.51341 0.0
C2097 C 0.3932 0.19938 0.588 0.0
C2098 C 0.39144 0.2084 0.62591 0.0
C2099 C 0.40312 0.19205 0.65883 0.0
C2100 C 0.41633 0.16779 0.65447 0.0
C2101 C 0.41794 0.15987 0.61695 0.0
C2102 C 0.40677 0.1751 0.58416 0.0
C2103 C 0.41321 0.163 0.54709 0.0
C2104 C 0.38054 0.14433 0.5243 0.0
C2105 C 0.43587 0.19213 0.52121 0.0
C2106 C 0.43054 0.1393 0.56433 0.0
C2107 C 0.43254 0.13778 0.60474 0.0
C2108 C 0.44856 0.119 0.62766 0.0
C2109 C 0.46356 0.10186 0.60903 0.0
C2110 C 0.46261 0.1033 0.56769 0.0
C2111 C 0.44525 0.12182 0.54499 0.0
H2112 H 0.88365 0.3695 0.77262 0.0
H2113 H 0.85716 0.28739 0.70005 0.0
H2114 H 0.89891 0.32257 0.654 0.0
H2115 H 0.90259 0.43933 0.69345 0.0
H2116 H 0.93543 0.46469 0.72483 0.0
H2117 H 0.90023 0.43244 0.74588 0.0
H2118 H 0.944 0.41103 0.78669 0.0
H2119 H 0.97747 0.4415 0.76075 0.0
H2120 H 0.97029 0.39779 0.76107 0.0
H2121 H 0.94551 0.36716 0.61641 0.0
H2122 H 0.98889 0.41793 0.58851 0.0
H2123 H 0.98537 0.47075 0.6861 0.0
C2124 C 0.88605 0.35934 0.74639 0.0
C2125 C 0.86605 0.32618 0.73885 0.0
C2126 C 0.87119 0.31315 0.70542 0.0
C2127 C 0.89512 0.33288 0.67935 0.0
C2128 C 0.91439 0.36556 0.68744 0.0
C2129 C 0.90991 0.37878 0.72006 0.0
C2130 C 0.93471 0.41413 0.72298 0.0
C2131 C 0.91712 0.43907 0.72177 0.0
C2132 C 0.95799 0.41622 0.76008 0.0
C2133 C 0.95313 0.41913 0.68634 0.0
C2134 C 0.94146 0.39068 0.66652 0.0
C2135 C 0.95475 0.38954 0.63178 0.0
C2136 C 0.97968 0.41845 0.61627 0.0
C2137 C 0.99089 0.44841 0.6351 0.0
C2138 C 0.97763 0.44828 0.671 0.0
H2139 H 0.20899 0.67958 0.7477 0.0
H2140 H 0.2776 0.73964 0.66202 0.0
H2141 H 0.25023 0.69772 0.61422 0.0
H2142 H 0.20018 0.59815 0.72092 0.0
H2143 H 0.15648 0.58011 0.72771 0.0
H2144 H 0.18283 0.61375 0.75585 0.0
H2145 H 0.14592 0.64813 0.73095 0.0
H2146 H 0.11947 0.61427 0.70315 0.0
H2147 H 0.13776 0.65538 0.67906 0.0
H2148 H 0.2161 0.64946 0.57635 0.0
H2149 H 0.17619 0.59812 0.54964 0.0
H2150 H 0.12623 0.57133 0.65761 0.0
C2151 C 0.2185 0.68342 0.71909 0.0
C2152 C 0.24564 0.71231 0.70844 0.0
C2153 C 0.25697 0.71734 0.67052 0.0
C2154 C 0.24156 0.69378 0.64328 0.0
C2155 C 0.21444 0.66576 0.6543 0.0
C2156 C 0.2028 0.66054 0.69116 0.0
C2157 C 0.17221 0.62911 0.69476 0.0
C2158 C 0.1783 0.60378 0.7267 0.0
C2159 C 0.14207 0.63723 0.70244 0.0
C2160 C 0.16875 0.61725 0.65432 0.0
C2161 C 0.19354 0.63872 0.6316 0.0
C2162 C 0.19646 0.63256 0.59373 0.0
C2163 C 0.17373 0.60339 0.57884 0.0
C2164 C 0.14811 0.58108 0.60151 0.0
C2165 C 0.14531 0.58834 0.63951 0.0
loop_
_geom_bond_atom_site_label_1
_geom_bond_atom_site_label_2
_geom_bond_distance
_geom_bond_site_symmetry_2
_ccdc_geom_bond_type
Gd0 N31 2.661 . S
Gd0 N37 2.601 . S
Gd0 O44 2.545 . S
Gd0 O45 2.606 . S
Gd0 O47 2.429 . S
Gd0 O48 2.545 . S
Gd0 O49 2.412 . S
Gd0 O51 2.362 . S
Gd0 O52 2.324 . S
Gd0 C59 2.828 . S
Gd1 N10 2.661 . S
Gd1 N14 2.601 . S
Gd1 O45 2.362 . S
Gd1 O46 2.324 . S
Gd1 O50 2.545 . S
Gd1 O51 2.606 . S
Gd1 O53 2.429 . S
Gd1 O54 2.545 . S
Gd1 O55 2.412 . S
Gd1 C68 2.828 . S
C2 C5 1.417 . S
C2 C7 1.431 . S
C2 C8 1.412 . S
C3 C6 1.437 . S
C3 C7 1.317 . S
C3 H22 0.929 . S
C4 C5 1.426 . S
C4 C6 1.413 . S
C4 N14 1.359 . S
C5 C2 1.417 . S
C5 C4 1.426 . S
C5 N10 1.350 . S
C6 C3 1.437 . S
C6 C4 1.413 . S
C6 C16 1.391 . S
C7 C2 1.431 . S
C7 C3 1.317 . S
C7 H18 0.930 . S
C8 C2 1.412 . S
C8 C9 1.355 . S
C8 H20 0.930 . S
C9 C8 1.355 . S
C9 C11 1.402 . S
C9 H21 0.930 . S
N10 Gd1 2.661 . S
N10 C5 1.350 . S
N10 C11 1.307 . S
C11 C9 1.402 . S
C11 N10 1.307 . S
C11 H12 0.930 . S
H12 C11 0.930 . S
C13 N14 1.334 . S
C13 C15 1.394 . S
C13 H17 0.930 . S
N14 Gd1 2.601 . S
N14 C4 1.359 . S
N14 C13 1.334 . S
C15 C13 1.394 . S
C15 C16 1.359 . S
C15 H27 0.930 . S
C16 C6 1.391 . S
C16 C15 1.359 . S
C16 H28 0.929 . S
H17 C13 0.930 . S
H18 C7 0.930 . S
H19 C36 0.930 . S
H20 C8 0.930 . S
H21 C9 0.930 . S
H22 C3 0.929 . S
H23 C41 0.930 . S
H24 C32 0.930 . S
H25 C33 0.930 . S
H26 C57 0.929 . S
H27 C15 0.930 . S
H28 C16 0.929 . S
H29 C58 0.930 . S
H30 C39 0.930 . S
N31 Gd0 2.661 . S
N31 C35 1.350 . S
N31 C36 1.307 . S
C32 H24 0.930 . S
C32 C33 1.355 . S
C32 C34 1.412 . S
C33 H25 0.930 . S
C33 C32 1.355 . S
C33 C36 1.402 . S
C34 C32 1.412 . S
C34 C35 1.417 . S
C34 C58 1.431 . S
C35 N31 1.350 . S
C35 C34 1.417 . S
C35 C38 1.426 . S
C36 H19 0.930 . S
C36 N31 1.307 . S
C36 C33 1.402 . S
N37 Gd0 2.601 . S
N37 C38 1.359 . S
N37 C41 1.334 . S
C38 C35 1.426 . S
C38 N37 1.359 . S
C38 C42 1.413 . S
C39 H30 0.930 . S
C39 C40 1.359 . S
C39 C41 1.394 . S
C40 C39 1.359 . S
C40 C42 1.391 . S
C40 H43 0.929 . S
C41 H23 0.930 . S
C41 N37 1.334 . S
C41 C39 1.394 . S
C42 C38 1.413 . S
C42 C40 1.391 . S
C42 C57 1.437 . S
H43 C40 0.929 . S
O44 Gd0 2.545 . S
O44 C59 1.258 . S
O45 Gd0 2.606 . S
O45 Gd1 2.362 . S
O45 C56 1.284 . S
O46 Gd1 2.324 . S
O46 C66 1.254 . S
O47 Gd0 2.429 . S
O47 C66 1.268 . S
O48 Gd0 2.545 . S
O48 C56 1.250 . S
O49 Gd0 2.412 . S
O49 C59 1.252 . S
O50 Gd1 2.545 . S
O50 C68 1.258 . S
O51 Gd0 2.362 . S
O51 Gd1 2.606 . S
O51 C67 1.284 . S
O52 Gd0 2.324 . S
O52 C75 1.254 . S
O53 Gd1 2.429 . S
O53 C75 1.268 . S
O54 Gd1 2.545 . S
O54 C67 1.250 . S
O55 Gd1 2.412 . S
O55 C68 1.252 . S
C56 O45 1.284 . S
C56 O48 1.250 . S
C57 H26 0.929 . S
C57 C42 1.437 . S
C57 C58 1.317 . S
C58 H29 0.930 . S
C58 C34 1.431 . S
C58 C57 1.317 . S
C59 Gd0 2.828 . S
C59 O44 1.258 . S
C59 O49 1.252 . S
C59 C60 1.497 . S
C60 C59 1.497 . S
C60 C61 1.395 . S
C60 C62 1.380 . S
C61 C60 1.395 . S
C61 C64 1.398 . S
C61 H76 0.930 . S
C62 C60 1.380 . S
C62 C63 1.391 . S
C62 H77 0.930 . S
C63 C62 1.391 . S
C63 C65 1.387 . S
C64 C61 1.398 . S
C64 C65 1.380 . S
C64 H78 0.930 . S
C65 C63 1.387 . S
C65 C64 1.380 . S
C65 H79 0.930 . S
C66 O46 1.254 . S
C66 O47 1.268 . S
C67 O51 1.284 . S
C67 O54 1.250 . S
C68 Gd1 2.828 . S
C68 O50 1.258 . S
C68 O55 1.252 . S
C68 C69 1.497 . S
C69 C68 1.497 . S
C69 C70 1.395 . S
C69 C71 1.380 . S
C70 C69 1.395 . S
C70 C73 1.398 . S
C70 H80 0.930 . S
C71 C69 1.380 . S
C71 C72 1.391 . S
C71 H81 0.930 . S
C72 C71 1.391 . S
C72 C74 1.387 . S
C73 C70 1.398 . S
C73 C74 1.380 . S
C73 H82 0.930 . S
C74 C72 1.387 . S
C74 C73 1.380 . S
C74 H83 0.930 . S
C75 O52 1.254 . S
C75 O53 1.268 . S
H76 C61 0.930 . S
H77 C62 0.930 . S
H78 C64 0.930 . S
H79 C65 0.930 . S
H80 C70 0.930 . S
H81 C71 0.930 . S
H82 C73 0.930 . S
H83 C74 0.930 . S
Gd84 N115 2.661 . S
Gd84 N121 2.601 . S
Gd84 O128 2.545 . S
Gd84 O129 2.606 . S
Gd84 O131 2.429 . S
Gd84 O132 2.545 . S
Gd84 O133 2.412 . S
Gd84 O135 2.362 . S
Gd84 O136 2.324 . S
Gd84 C143 2.828 . S
Gd85 N94 2.661 . S
Gd85 N98 2.601 . S
Gd85 O129 2.362 . S
Gd85 O130 2.324 . S
Gd85 O134 2.545 . S
Gd85 O135 2.606 . S
Gd85 O137 2.429 . S
Gd85 O138 2.545 . S
Gd85 O139 2.412 . S
Gd85 C152 2.828 . S
C86 C89 1.417 . S
C86 C91 1.431 . S
C86 C92 1.412 . S
C87 C90 1.437 . S
C87 C91 1.317 . S
C87 H106 0.929 . S
C88 C89 1.426 . S
C88 C90 1.413 . S
C88 N98 1.359 . S
C89 C86 1.417 . S
C89 C88 1.426 . S
C89 N94 1.350 . S
C90 C87 1.437 . S
C90 C88 1.413 . S
C90 C100 1.391 . S
C91 C86 1.431 . S
C91 C87 1.317 . S
C91 H102 0.930 . S
C92 C86 1.412 . S
C92 C93 1.355 . S
C92 H104 0.930 . S
C93 C92 1.355 . S
C93 C95 1.402 . S
C93 H105 0.930 . S
N94 Gd85 2.661 . S
N94 C89 1.350 . S
N94 C95 1.307 . S
C95 C93 1.402 . S
C95 N94 1.307 . S
C95 H96 0.930 . S
H96 C95 0.930 . S
C97 N98 1.334 . S
C97 C99 1.394 . S
C97 H101 0.930 . S
N98 Gd85 2.601 . S
N98 C88 1.359 . S
N98 C97 1.334 . S
C99 C97 1.394 . S
C99 C100 1.359 . S
C99 H111 0.930 . S
C100 C90 1.391 . S
C100 C99 1.359 . S
C100 H112 0.929 . S
H101 C97 0.930 . S
H102 C91 0.930 . S
H103 C120 0.930 . S
H104 C92 0.930 . S
H105 C93 0.930 . S
H106 C87 0.929 . S
H107 C125 0.930 . S
H108 C116 0.930 . S
H109 C117 0.930 . S
H110 C141 0.929 . S
H111 C99 0.930 . S
H112 C100 0.929 . S
H113 C142 0.930 . S
H114 C123 0.930 . S
N115 Gd84 2.661 . S
N115 C119 1.350 . S
N115 C120 1.307 . S
C116 H108 0.930 . S
C116 C117 1.355 . S
C116 C118 1.412 . S
C117 H109 0.930 . S
C117 C116 1.355 . S
C117 C120 1.402 . S
C118 C116 1.412 . S
C118 C119 1.417 . S
C118 C142 1.431 . S
C119 N115 1.350 . S
C119 C118 1.417 . S
C119 C122 1.426 . S
C120 H103 0.930 . S
C120 N115 1.307 . S
C120 C117 1.402 . S
N121 Gd84 2.601 . S
N121 C122 1.359 . S
N121 C125 1.334 . S
C122 C119 1.426 . S
C122 N121 1.359 . S
C122 C126 1.413 . S
C123 H114 0.930 . S
C123 C124 1.359 . S
C123 C125 1.394 . S
C124 C123 1.359 . S
C124 C126 1.391 . S
C124 H127 0.929 . S
C125 H107 0.930 . S
C125 N121 1.334 . S
C125 C123 1.394 . S
C126 C122 1.413 . S
C126 C124 1.391 . S
C126 C141 1.437 . S
H127 C124 0.929 . S
O128 Gd84 2.545 . S
O128 C143 1.258 . S
O129 Gd84 2.606 . S
O129 Gd85 2.362 . S
O129 C140 1.284 . S
O130 Gd85 2.324 . S
O130 C150 1.254 . S
O131 Gd84 2.429 . S
O131 C150 1.268 . S
O132 Gd84 2.545 . S
O132 C140 1.250 . S
O133 Gd84 2.412 . S
O133 C143 1.252 . S
O134 Gd85 2.545 . S
O134 C152 1.258 . S
O135 Gd84 2.362 . S
O135 Gd85 2.606 . S
O135 C151 1.284 . S
O136 Gd84 2.324 . S
O136 C159 1.254 . S
O137 Gd85 2.429 . S
O137 C159 1.268 . S
O138 Gd85 2.545 . S
O138 C151 1.250 . S
O139 Gd85 2.412 . S
O139 C152 1.252 . S
C140 O129 1.284 . S
C140 O132 1.250 . S
C141 H110 0.929 . S
C141 C126 1.437 . S
C141 C142 1.317 . S
C142 H113 0.930 . S
C142 C118 1.431 . S
C142 C141 1.317 . S
C143 Gd84 2.828 . S
C143 O128 1.258 . S
C143 O133 1.252 . S
C143 C144 1.497 . S
C144 C143 1.497 . S
C144 C145 1.395 . S
C144 C146 1.380 . S
C145 C144 1.395 . S
C145 C148 1.398 . S
C145 H160 0.930 . S
C146 C144 1.380 . S
C146 C147 1.391 . S
C146 H161 0.930 . S
C147 C146 1.391 . S
C147 C149 1.387 . S
C148 C145 1.398 . S
C148 C149 1.380 . S
C148 H162 0.930 . S
C149 C147 1.387 . S
C149 C148 1.380 . S
C149 H163 0.930 . S
C150 O130 1.254 . S
C150 O131 1.268 . S
C151 O135 1.284 . S
C151 O138 1.250 . S
C152 Gd85 2.828 . S
C152 O134 1.258 . S
C152 O139 1.252 . S
C152 C153 1.497 . S
C153 C152 1.497 . S
C153 C154 1.395 . S
C153 C155 1.380 . S
C154 C153 1.395 . S
C154 C157 1.398 . S
C154 H164 0.930 . S
C155 C153 1.380 . S
C155 C156 1.391 . S
C155 H165 0.930 . S
C156 C155 1.391 . S
C156 C158 1.387 . S
C157 C154 1.398 . S
C157 C158 1.380 . S
C157 H166 0.930 . S
C158 C156 1.387 . S
C158 C157 1.380 . S
C158 H167 0.930 . S
C159 O136 1.254 . S
C159 O137 1.268 . S
H160 C145 0.930 . S
H161 C146 0.930 . S
H162 C148 0.930 . S
H163 C149 0.930 . S
H164 C154 0.930 . S
H165 C155 0.930 . S
H166 C157 0.930 . S
H167 C158 0.930 . S
Gd168 N199 2.661 . S
Gd168 N205 2.601 . S
Gd168 O212 2.545 . S
Gd168 O213 2.606 . S
Gd168 O215 2.429 . S
Gd168 O216 2.545 . S
Gd168 O217 2.412 . S
Gd168 O219 2.362 . S
Gd168 O220 2.324 . S
Gd168 C227 2.828 . S
Gd169 N178 2.661 . S
Gd169 N182 2.601 . S
Gd169 O213 2.362 . S
Gd169 O214 2.324 . S
Gd169 O218 2.545 . S
Gd169 O219 2.606 . S
Gd169 O221 2.429 . S
Gd169 O222 2.545 . S
Gd169 O223 2.412 . S
Gd169 C236 2.828 . S
C170 C173 1.417 . S
C170 C175 1.431 . S
C170 C176 1.412 . S
C171 C174 1.437 . S
C171 C175 1.317 . S
C171 H190 0.929 . S
C172 C173 1.426 . S
C172 C174 1.413 . S
C172 N182 1.359 . S
C173 C170 1.417 . S
C173 C172 1.426 . S
C173 N178 1.350 . S
C174 C171 1.437 . S
C174 C172 1.413 . S
C174 C184 1.391 . S
C175 C170 1.431 . S
C175 C171 1.317 . S
C175 H186 0.930 . S
C176 C170 1.412 . S
C176 C177 1.355 . S
C176 H188 0.930 . S
C177 C176 1.355 . S
C177 C179 1.402 . S
C177 H189 0.930 . S
N178 Gd169 2.661 . S
N178 C173 1.350 . S
N178 C179 1.307 . S
C179 C177 1.402 . S
C179 N178 1.307 . S
C179 H180 0.930 . S
H180 C179 0.930 . S
C181 N182 1.334 . S
C181 C183 1.394 . S
C181 H185 0.930 . S
N182 Gd169 2.601 . S
N182 C172 1.359 . S
N182 C181 1.334 . S
C183 C181 1.394 . S
C183 C184 1.359 . S
C183 H195 0.930 . S
C184 C174 1.391 . S
C184 C183 1.359 . S
C184 H196 0.929 . S
H185 C181 0.930 . S
H186 C175 0.930 . S
H187 C204 0.930 . S
H188 C176 0.930 . S
H189 C177 0.930 . S
H190 C171 0.929 . S
H191 C209 0.930 . S
H192 C200 0.930 . S
H193 C201 0.930 . S
H194 C225 0.929 . S
H195 C183 0.930 . S
H196 C184 0.929 . S
H197 C226 0.930 . S
H198 C207 0.930 . S
N199 Gd168 2.661 . S
N199 C203 1.350 . S
N199 C204 1.307 . S
C200 H192 0.930 . S
C200 C201 1.355 . S
C200 C202 1.412 . S
C201 H193 0.930 . S
C201 C200 1.355 . S
C201 C204 1.402 . S
C202 C200 1.412 . S
C202 C203 1.417 . S
C202 C226 1.431 . S
C203 N199 1.350 . S
C203 C202 1.417 . S
C203 C206 1.426 . S
C204 H187 0.930 . S
C204 N199 1.307 . S
C204 C201 1.402 . S
N205 Gd168 2.601 . S
N205 C206 1.359 . S
N205 C209 1.334 . S
C206 C203 1.426 . S
C206 N205 1.359 . S
C206 C210 1.413 . S
C207 H198 0.930 . S
C207 C208 1.359 . S
C207 C209 1.394 . S
C208 C207 1.359 . S
C208 C210 1.391 . S
C208 H211 0.929 . S
C209 H191 0.930 . S
C209 N205 1.334 . S
C209 C207 1.394 . S
C210 C206 1.413 . S
C210 C208 1.391 . S
C210 C225 1.437 . S
H211 C208 0.929 . S
O212 Gd168 2.545 . S
O212 C227 1.258 . S
O213 Gd168 2.606 . S
O213 Gd169 2.362 . S
O213 C224 1.284 . S
O214 Gd169 2.324 . S
O214 C234 1.254 . S
O215 Gd168 2.429 . S
O215 C234 1.268 . S
O216 Gd168 2.545 . S
O216 C224 1.250 . S
O217 Gd168 2.412 . S
O217 C227 1.252 . S
O218 Gd169 2.545 . S
O218 C236 1.258 . S
O219 Gd168 2.362 . S
O219 Gd169 2.606 . S
O219 C235 1.284 . S
O220 Gd168 2.324 . S
O220 C243 1.254 . S
O221 Gd169 2.429 . S
O221 C243 1.268 . S
O222 Gd169 2.545 . S
O222 C235 1.250 . S
O223 Gd169 2.412 . S
O223 C236 1.252 . S
C224 O213 1.284 . S
C224 O216 1.250 . S
C225 H194 0.929 . S
C225 C210 1.437 . S
C225 C226 1.317 . S
C226 H197 0.930 . S
C226 C202 1.431 . S
C226 C225 1.317 . S
C227 Gd168 2.828 . S
C227 O212 1.258 . S
C227 O217 1.252 . S
C227 C228 1.497 . S
C228 C227 1.497 . S
C228 C229 1.395 . S
C228 C230 1.380 . S
C229 C228 1.395 . S
C229 C232 1.398 . S
C229 H244 0.930 . S
C230 C228 1.380 . S
C230 C231 1.391 . S
C230 H245 0.930 . S
C231 C230 1.391 . S
C231 C233 1.387 . S
C232 C229 1.398 . S
C232 C233 1.380 . S
C232 H246 0.930 . S
C233 C231 1.387 . S
C233 C232 1.380 . S
C233 H247 0.930 . S
C234 O214 1.254 . S
C234 O215 1.268 . S
C235 O219 1.284 . S
C235 O222 1.250 . S
C236 Gd169 2.828 . S
C236 O218 1.258 . S
C236 O223 1.252 . S
C236 C237 1.497 . S
C237 C236 1.497 . S
C237 C238 1.395 . S
C237 C239 1.380 . S
C238 C237 1.395 . S
C238 C241 1.398 . S
C238 H248 0.930 . S
C239 C237 1.380 . S
C239 C240 1.391 . S
C239 H249 0.930 . S
C240 C239 1.391 . S
C240 C242 1.387 . S
C241 C238 1.398 . S
C241 C242 1.380 . S
C241 H250 0.930 . S
C242 C240 1.387 . S
C242 C241 1.380 . S
C242 H251 0.930 . S
C243 O220 1.254 . S
C243 O221 1.268 . S
H244 C229 0.930 . S
H245 C230 0.930 . S
H246 C232 0.930 . S
H247 C233 0.930 . S
H248 C238 0.930 . S
H249 C239 0.930 . S
H250 C241 0.930 . S
H251 C242 0.930 . S
Gd252 N283 2.661 . S
Gd252 N289 2.601 . S
Gd252 O296 2.545 . S
Gd252 O297 2.606 . S
Gd252 O299 2.429 . S
Gd252 O300 2.545 . S
Gd252 O301 2.412 . S
Gd252 O303 2.362 . S
Gd252 O304 2.324 . S
Gd252 C311 2.828 . S
Gd253 N262 2.661 . S
Gd253 N266 2.601 . S
Gd253 O297 2.362 . S
Gd253 O298 2.324 . S
Gd253 O302 2.545 . S
Gd253 O303 2.606 . S
Gd253 O305 2.429 . S
Gd253 O306 2.545 . S
Gd253 O307 2.412 . S
Gd253 C320 2.828 . S
C254 C257 1.417 . S
C254 C259 1.431 . S
C254 C260 1.412 . S
C255 C258 1.437 . S
C255 C259 1.317 . S
C255 H274 0.929 . S
C256 C257 1.426 . S
C256 C258 1.413 . S
C256 N266 1.359 . S
C257 C254 1.417 . S
C257 C256 1.426 . S
C257 N262 1.350 . S
C258 C255 1.437 . S
C258 C256 1.413 . S
C258 C268 1.391 . S
C259 C254 1.431 . S
C259 C255 1.317 . S
C259 H270 0.930 . S
C260 C254 1.412 . S
C260 C261 1.355 . S
C260 H272 0.930 . S
C261 C260 1.355 . S
C261 C263 1.402 . S
C261 H273 0.930 . S
N262 Gd253 2.661 . S
N262 C257 1.350 . S
N262 C263 1.307 . S
C263 C261 1.402 . S
C263 N262 1.307 . S
C263 H264 0.930 . S
H264 C263 0.930 . S
C265 N266 1.334 . S
C265 C267 1.394 . S
C265 H269 0.930 . S
N266 Gd253 2.601 . S
N266 C256 1.359 . S
N266 C265 1.334 . S
C267 C265 1.394 . S
C267 C268 1.359 . S
C267 H279 0.930 . S
C268 C258 1.391 . S
C268 C267 1.359 . S
C268 H280 0.929 . S
H269 C265 0.930 . S
H270 C259 0.930 . S
H271 C288 0.930 . S
H272 C260 0.930 . S
H273 C261 0.930 . S
H274 C255 0.929 . S
H275 C293 0.930 . S
H276 C284 0.930 . S
H277 C285 0.930 . S
H278 C309 0.929 . S
H279 C267 0.930 . S
H280 C268 0.929 . S
H281 C310 0.930 . S
H282 C291 0.930 . S
N283 Gd252 2.661 . S
N283 C287 1.350 . S
N283 C288 1.307 . S
C284 H276 0.930 . S
C284 C285 1.355 . S
C284 C286 1.412 . S
C285 H277 0.930 . S
C285 C284 1.355 . S
C285 C288 1.402 . S
C286 C284 1.412 . S
C286 C287 1.417 . S
C286 C310 1.431 . S
C287 N283 1.350 . S
C287 C286 1.417 . S
C287 C290 1.426 . S
C288 H271 0.930 . S
C288 N283 1.307 . S
C288 C285 1.402 . S
N289 Gd252 2.601 . S
N289 C290 1.359 . S
N289 C293 1.334 . S
C290 C287 1.426 . S
C290 N289 1.359 . S
C290 C294 1.413 . S
C291 H282 0.930 . S
C291 C292 1.359 . S
C291 C293 1.394 . S
C292 C291 1.359 . S
C292 C294 1.391 . S
C292 H295 0.929 . S
C293 H275 0.930 . S
C293 N289 1.334 . S
C293 C291 1.394 . S
C294 C290 1.413 . S
C294 C292 1.391 . S
C294 C309 1.437 . S
H295 C292 0.929 . S
O296 Gd252 2.545 . S
O296 C311 1.258 . S
O297 Gd252 2.606 . S
O297 Gd253 2.362 . S
O297 C308 1.284 . S
O298 Gd253 2.324 . S
O298 C318 1.254 . S
O299 Gd252 2.429 . S
O299 C318 1.268 . S
O300 Gd252 2.545 . S
O300 C308 1.250 . S
O301 Gd252 2.412 . S
O301 C311 1.252 . S
O302 Gd253 2.545 . S
O302 C320 1.258 . S
O303 Gd252 2.362 . S
O303 Gd253 2.606 . S
O303 C319 1.284 . S
O304 Gd252 2.324 . S
O304 C327 1.254 . S
O305 Gd253 2.429 . S
O305 C327 1.268 . S
O306 Gd253 2.545 . S
O306 C319 1.250 . S
O307 Gd253 2.412 . S
O307 C320 1.252 . S
C308 O297 1.284 . S
C308 O300 1.250 . S
C309 H278 0.929 . S
C309 C294 1.437 . S
C309 C310 1.317 . S
C310 H281 0.930 . S
C310 C286 1.431 . S
C310 C309 1.317 . S
C311 Gd252 2.828 . S
C311 O296 1.258 . S
C311 O301 1.252 . S
C311 C312 1.497 . S
C312 C311 1.497 . S
C312 C313 1.395 . S
C312 C314 1.380 . S
C313 C312 1.395 . S
C313 C316 1.398 . S
C313 H328 0.930 . S
C314 C312 1.380 . S
C314 C315 1.391 . S
C314 H329 0.930 . S
C315 C314 1.391 . S
C315 C317 1.387 . S
C316 C313 1.398 . S
C316 C317 1.380 . S
C316 H330 0.930 . S
C317 C315 1.387 . S
C317 C316 1.380 . S
C317 H331 0.930 . S
C318 O298 1.254 . S
C318 O299 1.268 . S
C319 O303 1.284 . S
C319 O306 1.250 . S
C320 Gd253 2.828 . S
C320 O302 1.258 . S
C320 O307 1.252 . S
C320 C321 1.497 . S
C321 C320 1.497 . S
C321 C322 1.395 . S
C321 C323 1.380 . S
C322 C321 1.395 . S
C322 C325 1.398 . S
C322 H332 0.930 . S
C323 C321 1.380 . S
C323 C324 1.391 . S
C323 H333 0.930 . S
C324 C323 1.391 . S
C324 C326 1.387 . S
C325 C322 1.398 . S
C325 C326 1.380 . S
C325 H334 0.930 . S
C326 C324 1.387 . S
C326 C325 1.380 . S
C326 H335 0.930 . S
C327 O304 1.254 . S
C327 O305 1.268 . S
H328 C313 0.930 . S
H329 C314 0.930 . S
H330 C316 0.930 . S
H331 C317 0.930 . S
H332 C322 0.930 . S
H333 C323 0.930 . S
H334 C325 0.930 . S
H335 C326 0.930 . S
Gd336 N367 2.661 . S
Gd336 N373 2.601 . S
Gd336 O380 2.545 . S
Gd336 O381 2.606 . S
Gd336 O383 2.429 . S
Gd336 O384 2.545 . S
Gd336 O385 2.412 . S
Gd336 O387 2.362 . S
Gd336 O388 2.324 . S
Gd336 C395 2.828 . S
Gd337 N346 2.661 . S
Gd337 N350 2.601 . S
Gd337 O381 2.362 . S
Gd337 O382 2.324 . S
Gd337 O386 2.545 . S
Gd337 O387 2.606 . S
Gd337 O389 2.429 . S
Gd337 O390 2.545 . S
Gd337 O391 2.412 . S
Gd337 C404 2.828 . S
C338 C341 1.417 . S
C338 C343 1.431 . S
C338 C344 1.412 . S
C339 C342 1.437 . S
C339 C343 1.317 . S
C339 H358 0.929 . S
C340 C341 1.426 . S
C340 C342 1.413 . S
C340 N350 1.359 . S
C341 C338 1.417 . S
C341 C340 1.426 . S
C341 N346 1.350 . S
C342 C339 1.437 . S
C342 C340 1.413 . S
C342 C352 1.391 . S
C343 C338 1.431 . S
C343 C339 1.317 . S
C343 H354 0.930 . S
C344 C338 1.412 . S
C344 C345 1.355 . S
C344 H356 0.930 . S
C345 C344 1.355 . S
C345 C347 1.402 . S
C345 H357 0.930 . S
N346 Gd337 2.661 . S
N346 C341 1.350 . S
N346 C347 1.307 . S
C347 C345 1.402 . S
C347 N346 1.307 . S
C347 H348 0.930 . S
H348 C347 0.930 . S
C349 N350 1.334 . S
C349 C351 1.394 . S
C349 H353 0.930 . S
N350 Gd337 2.601 . S
N350 C340 1.359 . S
N350 C349 1.334 . S
C351 C349 1.394 . S
C351 C352 1.359 . S
C351 H363 0.930 . S
C352 C342 1.391 . S
C352 C351 1.359 . S
C352 H364 0.929 . S
H353 C349 0.930 . S
H354 C343 0.930 . S
H355 C372 0.930 . S
H356 C344 0.930 . S
H357 C345 0.930 . S
H358 C339 0.929 . S
H359 C377 0.930 . S
H360 C368 0.930 . S
H361 C369 0.930 . S
H362 C393 0.929 . S
H363 C351 0.930 . S
H364 C352 0.929 . S
H365 C394 0.930 . S
H366 C375 0.930 . S
N367 Gd336 2.661 . S
N367 C371 1.350 . S
N367 C372 1.307 . S
C368 H360 0.930 . S
C368 C369 1.355 . S
C368 C370 1.412 . S
C369 H361 0.930 . S
C369 C368 1.355 . S
C369 C372 1.402 . S
C370 C368 1.412 . S
C370 C371 1.417 . S
C370 C394 1.431 . S
C371 N367 1.350 . S
C371 C370 1.417 . S
C371 C374 1.426 . S
C372 H355 0.930 . S
C372 N367 1.307 . S
C372 C369 1.402 . S
N373 Gd336 2.601 . S
N373 C374 1.359 . S
N373 C377 1.334 . S
C374 C371 1.426 . S
C374 N373 1.359 . S
C374 C378 1.413 . S
C375 H366 0.930 . S
C375 C376 1.359 . S
C375 C377 1.394 . S
C376 C375 1.359 . S
C376 C378 1.391 . S
C376 H379 0.929 . S
C377 H359 0.930 . S
C377 N373 1.334 . S
C377 C375 1.394 . S
C378 C374 1.413 . S
C378 C376 1.391 . S
C378 C393 1.437 . S
H379 C376 0.929 . S
O380 Gd336 2.545 . S
O380 C395 1.258 . S
O381 Gd336 2.606 . S
O381 Gd337 2.362 . S
O381 C392 1.284 . S
O382 Gd337 2.324 . S
O382 C402 1.254 . S
O383 Gd336 2.429 . S
O383 C402 1.268 . S
O384 Gd336 2.545 . S
O384 C392 1.250 . S
O385 Gd336 2.412 . S
O385 C395 1.252 . S
O386 Gd337 2.545 . S
O386 C404 1.258 . S
O387 Gd336 2.362 . S
O387 Gd337 2.606 . S
O387 C403 1.284 . S
O388 Gd336 2.324 . S
O388 C411 1.254 . S
O389 Gd337 2.429 . S
O389 C411 1.268 . S
O390 Gd337 2.545 . S
O390 C403 1.250 . S
O391 Gd337 2.412 . S
O391 C404 1.252 . S
C392 O381 1.284 . S
C392 O384 1.250 . S
C393 H362 0.929 . S
C393 C378 1.437 . S
C393 C394 1.317 . S
C394 H365 0.930 . S
C394 C370 1.431 . S
C394 C393 1.317 . S
C395 Gd336 2.828 . S
C395 O380 1.258 . S
C395 O385 1.252 . S
C395 C396 1.497 . S
C396 C395 1.497 . S
C396 C397 1.395 . S
C396 C398 1.380 . S
C397 C396 1.395 . S
C397 C400 1.398 . S
C397 H412 0.930 . S
C398 C396 1.380 . S
C398 C399 1.391 . S
C398 H413 0.930 . S
C399 C398 1.391 . S
C399 C401 1.387 . S
C400 C397 1.398 . S
C400 C401 1.380 . S
C400 H414 0.930 . S
C401 C399 1.387 . S
C401 C400 1.380 . S
C401 H415 0.930 . S
C402 O382 1.254 . S
C402 O383 1.268 . S
C403 O387 1.284 . S
C403 O390 1.250 . S
C404 Gd337 2.828 . S
C404 O386 1.258 . S
C404 O391 1.252 . S
C404 C405 1.497 . S
C405 C404 1.497 . S
C405 C406 1.395 . S
C405 C407 1.380 . S
C406 C405 1.395 . S
C406 C409 1.398 . S
C406 H416 0.930 . S
C407 C405 1.380 . S
C407 C408 1.391 . S
C407 H417 0.930 . S
C408 C407 1.391 . S
C408 C410 1.387 . S
C409 C406 1.398 . S
C409 C410 1.380 . S
C409 H418 0.930 . S
C410 C408 1.387 . S
C410 C409 1.380 . S
C410 H419 0.930 . S
C411 O388 1.254 . S
C411 O389 1.268 . S
H412 C397 0.930 . S
H413 C398 0.930 . S
H414 C400 0.930 . S
H415 C401 0.930 . S
H416 C406 0.930 . S
H417 C407 0.930 . S
H418 C409 0.930 . S
H419 C410 0.930 . S
Gd420 N451 2.661 . S
Gd420 N457 2.601 . S
Gd420 O464 2.545 . S
Gd420 O465 2.606 . S
Gd420 O467 2.429 . S
Gd420 O468 2.545 . S
Gd420 O469 2.412 . S
Gd420 O471 2.362 . S
Gd420 O472 2.324 . S
Gd420 C479 2.828 . S
Gd421 N430 2.661 . S
Gd421 N434 2.601 . S
Gd421 O465 2.362 . S
Gd421 O466 2.324 . S
Gd421 O470 2.545 . S
Gd421 O471 2.606 . S
Gd421 O473 2.429 . S
Gd421 O474 2.545 . S
Gd421 O475 2.412 . S
Gd421 C488 2.828 . S
C422 C425 1.417 . S
C422 C427 1.431 . S
C422 C428 1.412 . S
C423 C426 1.437 . S
C423 C427 1.317 . S
C423 H442 0.929 . S
C424 C425 1.426 . S
C424 C426 1.413 . S
C424 N434 1.359 . S
C425 C422 1.417 . S
C425 C424 1.426 . S
C425 N430 1.350 . S
C426 C423 1.437 . S
C426 C424 1.413 . S
C426 C436 1.391 . S
C427 C422 1.431 . S
C427 C423 1.317 . S
C427 H438 0.930 . S
C428 C422 1.412 . S
C428 C429 1.355 . S
C428 H440 0.930 . S
C429 C428 1.355 . S
C429 C431 1.402 . S
C429 H441 0.930 . S
N430 Gd421 2.661 . S
N430 C425 1.350 . S
N430 C431 1.307 . S
C431 C429 1.402 . S
C431 N430 1.307 . S
C431 H432 0.930 . S
H432 C431 0.930 . S
C433 N434 1.334 . S
C433 C435 1.394 . S
C433 H437 0.930 . S
N434 Gd421 2.601 . S
N434 C424 1.359 . S
N434 C433 1.334 . S
C435 C433 1.394 . S
C435 C436 1.359 . S
C435 H447 0.930 . S
C436 C426 1.391 . S
C436 C435 1.359 . S
C436 H448 0.929 . S
H437 C433 0.930 . S
H438 C427 0.930 . S
H439 C456 0.930 . S
H440 C428 0.930 . S
H441 C429 0.930 . S
H442 C423 0.929 . S
H443 C461 0.930 . S
H444 C452 0.930 . S
H445 C453 0.930 . S
H446 C477 0.929 . S
H447 C435 0.930 . S
H448 C436 0.929 . S
H449 C478 0.930 . S
H450 C459 0.930 . S
N451 Gd420 2.661 . S
N451 C455 1.350 . S
N451 C456 1.307 . S
C452 H444 0.930 . S
C452 C453 1.355 . S
C452 C454 1.412 . S
C453 H445 0.930 . S
C453 C452 1.355 . S
C453 C456 1.402 . S
C454 C452 1.412 . S
C454 C455 1.417 . S
C454 C478 1.431 . S
C455 N451 1.350 . S
C455 C454 1.417 . S
C455 C458 1.426 . S
C456 H439 0.930 . S
C456 N451 1.307 . S
C456 C453 1.402 . S
N457 Gd420 2.601 . S
N457 C458 1.359 . S
N457 C461 1.334 . S
C458 C455 1.426 . S
C458 N457 1.359 . S
C458 C462 1.413 . S
C459 H450 0.930 . S
C459 C460 1.359 . S
C459 C461 1.394 . S
C460 C459 1.359 . S
C460 C462 1.391 . S
C460 H463 0.929 . S
C461 H443 0.930 . S
C461 N457 1.334 . S
C461 C459 1.394 . S
C462 C458 1.413 . S
C462 C460 1.391 . S
C462 C477 1.437 . S
H463 C460 0.929 . S
O464 Gd420 2.545 . S
O464 C479 1.258 . S
O465 Gd420 2.606 . S
O465 Gd421 2.362 . S
O465 C476 1.284 . S
O466 Gd421 2.324 . S
O466 C486 1.254 . S
O467 Gd420 2.429 . S
O467 C486 1.268 . S
O468 Gd420 2.545 . S
O468 C476 1.250 . S
O469 Gd420 2.412 . S
O469 C479 1.252 . S
O470 Gd421 2.545 . S
O470 C488 1.258 . S
O471 Gd420 2.362 . S
O471 Gd421 2.606 . S
O471 C487 1.284 . S
O472 Gd420 2.324 . S
O472 C495 1.254 . S
O473 Gd421 2.429 . S
O473 C495 1.268 . S
O474 Gd421 2.545 . S
O474 C487 1.250 . S
O475 Gd421 2.412 . S
O475 C488 1.252 . S
C476 O465 1.284 . S
C476 O468 1.250 . S
C477 H446 0.929 . S
C477 C462 1.437 . S
C477 C478 1.317 . S
C478 H449 0.930 . S
C478 C454 1.431 . S
C478 C477 1.317 . S
C479 Gd420 2.828 . S
C479 O464 1.258 . S
C479 O469 1.252 . S
C479 C480 1.497 . S
C480 C479 1.497 . S
C480 C481 1.395 . S
C480 C482 1.380 . S
C481 C480 1.395 . S
C481 C484 1.398 . S
C481 H496 0.930 . S
C482 C480 1.380 . S
C482 C483 1.391 . S
C482 H497 0.930 . S
C483 C482 1.391 . S
C483 C485 1.387 . S
C484 C481 1.398 . S
C484 C485 1.380 . S
C484 H498 0.930 . S
C485 C483 1.387 . S
C485 C484 1.380 . S
C485 H499 0.930 . S
C486 O466 1.254 . S
C486 O467 1.268 . S
C487 O471 1.284 . S
C487 O474 1.250 . S
C488 Gd421 2.828 . S
C488 O470 1.258 . S
C488 O475 1.252 . S
C488 C489 1.497 . S
C489 C488 1.497 . S
C489 C490 1.395 . S
C489 C491 1.380 . S
C490 C489 1.395 . S
C490 C493 1.398 . S
C490 H500 0.930 . S
C491 C489 1.380 . S
C491 C492 1.391 . S
C491 H501 0.930 . S
C492 C491 1.391 . S
C492 C494 1.387 . S
C493 C490 1.398 . S
C493 C494 1.380 . S
C493 H502 0.930 . S
C494 C492 1.387 . S
C494 C493 1.380 . S
C494 H503 0.930 . S
C495 O472 1.254 . S
C495 O473 1.268 . S
H496 C481 0.930 . S
H497 C482 0.930 . S
H498 C484 0.930 . S
H499 C485 0.930 . S
H500 C490 0.930 . S
H501 C491 0.930 . S
H502 C493 0.930 . S
H503 C494 0.930 . S
Gd504 N535 2.661 . S
Gd504 N541 2.601 . S
Gd504 O548 2.545 . S
Gd504 O549 2.606 . S
Gd504 O551 2.429 . S
Gd504 O552 2.545 . S
Gd504 O553 2.412 . S
Gd504 O555 2.362 . S
Gd504 O556 2.324 . S
Gd504 C563 2.828 . S
Gd505 N514 2.661 . S
Gd505 N518 2.601 . S
Gd505 O549 2.362 . S
Gd505 O550 2.324 . S
Gd505 O554 2.545 . S
Gd505 O555 2.606 . S
Gd505 O557 2.429 . S
Gd505 O558 2.545 . S
Gd505 O559 2.412 . S
Gd505 C572 2.828 . S
C506 C509 1.417 . S
C506 C511 1.431 . S
C506 C512 1.412 . S
C507 C510 1.437 . S
C507 C511 1.317 . S
C507 H526 0.929 . S
C508 C509 1.426 . S
C508 C510 1.413 . S
C508 N518 1.359 . S
C509 C506 1.417 . S
C509 C508 1.426 . S
C509 N514 1.350 . S
C510 C507 1.437 . S
C510 C508 1.413 . S
C510 C520 1.391 . S
C511 C506 1.431 . S
C511 C507 1.317 . S
C511 H522 0.930 . S
C512 C506 1.412 . S
C512 C513 1.355 . S
C512 H524 0.930 . S
C513 C512 1.355 . S
C513 C515 1.402 . S
C513 H525 0.930 . S
N514 Gd505 2.661 . S
N514 C509 1.350 . S
N514 C515 1.307 . S
C515 C513 1.402 . S
C515 N514 1.307 . S
C515 H516 0.930 . S
H516 C515 0.930 . S
C517 N518 1.334 . S
C517 C519 1.394 . S
C517 H521 0.930 . S
N518 Gd505 2.601 . S
N518 C508 1.359 . S
N518 C517 1.334 . S
C519 C517 1.394 . S
C519 C520 1.359 . S
C519 H531 0.930 . S
C520 C510 1.391 . S
C520 C519 1.359 . S
C520 H532 0.929 . S
H521 C517 0.930 . S
H522 C511 0.930 . S
H523 C540 0.930 . S
H524 C512 0.930 . S
H525 C513 0.930 . S
H526 C507 0.929 . S
H527 C545 0.930 . S
H528 C536 0.930 . S
H529 C537 0.930 . S
H530 C561 0.929 . S
H531 C519 0.930 . S
H532 C520 0.929 . S
H533 C562 0.930 . S
H534 C543 0.930 . S
N535 Gd504 2.661 . S
N535 C539 1.350 . S
N535 C540 1.307 . S
C536 H528 0.930 . S
C536 C537 1.355 . S
C536 C538 1.412 . S
C537 H529 0.930 . S
C537 C536 1.355 . S
C537 C540 1.402 . S
C538 C536 1.412 . S
C538 C539 1.417 . S
C538 C562 1.431 . S
C539 N535 1.350 . S
C539 C538 1.417 . S
C539 C542 1.426 . S
C540 H523 0.930 . S
C540 N535 1.307 . S
C540 C537 1.402 . S
N541 Gd504 2.601 . S
N541 C542 1.359 . S
N541 C545 1.334 . S
C542 C539 1.426 . S
C542 N541 1.359 . S
C542 C546 1.413 . S
C543 H534 0.930 . S
C543 C544 1.359 . S
C543 C545 1.394 . S
C544 C543 1.359 . S
C544 C546 1.391 . S
C544 H547 0.929 . S
C545 H527 0.930 . S
C545 N541 1.334 . S
C545 C543 1.394 . S
C546 C542 1.413 . S
C546 C544 1.391 . S
C546 C561 1.437 . S
H547 C544 0.929 . S
O548 Gd504 2.545 . S
O548 C563 1.258 . S
O549 Gd504 2.606 . S
O549 Gd505 2.362 . S
O549 C560 1.284 . S
O550 Gd505 2.324 . S
O550 C570 1.254 . S
O551 Gd504 2.429 . S
O551 C570 1.268 . S
O552 Gd504 2.545 . S
O552 C560 1.250 . S
O553 Gd504 2.412 . S
O553 C563 1.252 . S
O554 Gd505 2.545 . S
O554 C572 1.258 . S
O555 Gd504 2.362 . S
O555 Gd505 2.606 . S
O555 C571 1.284 . S
O556 Gd504 2.324 . S
O556 C579 1.254 . S
O557 Gd505 2.429 . S
O557 C579 1.268 . S
O558 Gd505 2.545 . S
O558 C571 1.250 . S
O559 Gd505 2.412 . S
O559 C572 1.252 . S
C560 O549 1.284 . S
C560 O552 1.250 . S
C561 H530 0.929 . S
C561 C546 1.437 . S
C561 C562 1.317 . S
C562 H533 0.930 . S
C562 C538 1.431 . S
C562 C561 1.317 . S
C563 Gd504 2.828 . S
C563 O548 1.258 . S
C563 O553 1.252 . S
C563 C564 1.497 . S
C564 C563 1.497 . S
C564 C565 1.395 . S
C564 C566 1.380 . S
C565 C564 1.395 . S
C565 C568 1.398 . S
C565 H580 0.930 . S
C566 C564 1.380 . S
C566 C567 1.391 . S
C566 H581 0.930 . S
C567 C566 1.391 . S
C567 C569 1.387 . S
C568 C565 1.398 . S
C568 C569 1.380 . S
C568 H582 0.930 . S
C569 C567 1.387 . S
C569 C568 1.380 . S
C569 H583 0.930 . S
C570 O550 1.254 . S
C570 O551 1.268 . S
C571 O555 1.284 . S
C571 O558 1.250 . S
C572 Gd505 2.828 . S
C572 O554 1.258 . S
C572 O559 1.252 . S
C572 C573 1.497 . S
C573 C572 1.497 . S
C573 C574 1.395 . S
C573 C575 1.380 . S
C574 C573 1.395 . S
C574 C577 1.398 . S
C574 H584 0.930 . S
C575 C573 1.380 . S
C575 C576 1.391 . S
C575 H585 0.930 . S
C576 C575 1.391 . S
C576 C578 1.387 . S
C577 C574 1.398 . S
C577 C578 1.380 . S
C577 H586 0.930 . S
C578 C576 1.387 . S
C578 C577 1.380 . S
C578 H587 0.930 . S
C579 O556 1.254 . S
C579 O557 1.268 . S
H580 C565 0.930 . S
H581 C566 0.930 . S
H582 C568 0.930 . S
H583 C569 0.930 . S
H584 C574 0.930 . S
H585 C575 0.930 . S
H586 C577 0.930 . S
H587 C578 0.930 . S
Gd588 N619 2.661 . S
Gd588 N625 2.601 . S
Gd588 O632 2.545 . S
Gd588 O633 2.606 . S
Gd588 O635 2.429 . S
Gd588 O636 2.545 . S
Gd588 O637 2.412 . S
Gd588 O639 2.362 . S
Gd588 O640 2.324 . S
Gd588 C647 2.828 . S
Gd589 N598 2.661 . S
Gd589 N602 2.601 . S
Gd589 O633 2.362 . S
Gd589 O634 2.324 . S
Gd589 O638 2.545 . S
Gd589 O639 2.606 . S
Gd589 O641 2.429 . S
Gd589 O642 2.545 . S
Gd589 O643 2.412 . S
Gd589 C656 2.828 . S
C590 C593 1.417 . S
C590 C595 1.431 . S
C590 C596 1.412 . S
C591 C594 1.437 . S
C591 C595 1.317 . S
C591 H610 0.929 . S
C592 C593 1.426 . S
C592 C594 1.413 . S
C592 N602 1.359 . S
C593 C590 1.417 . S
C593 C592 1.426 . S
C593 N598 1.350 . S
C594 C591 1.437 . S
C594 C592 1.413 . S
C594 C604 1.391 . S
C595 C590 1.431 . S
C595 C591 1.317 . S
C595 H606 0.930 . S
C596 C590 1.412 . S
C596 C597 1.355 . S
C596 H608 0.930 . S
C597 C596 1.355 . S
C597 C599 1.402 . S
C597 H609 0.930 . S
N598 Gd589 2.661 . S
N598 C593 1.350 . S
N598 C599 1.307 . S
C599 C597 1.402 . S
C599 N598 1.307 . S
C599 H600 0.930 . S
H600 C599 0.930 . S
C601 N602 1.334 . S
C601 C603 1.394 . S
C601 H605 0.930 . S
N602 Gd589 2.601 . S
N602 C592 1.359 . S
N602 C601 1.334 . S
C603 C601 1.394 . S
C603 C604 1.359 . S
C603 H615 0.930 . S
C604 C594 1.391 . S
C604 C603 1.359 . S
C604 H616 0.929 . S
H605 C601 0.930 . S
H606 C595 0.930 . S
H607 C624 0.930 . S
H608 C596 0.930 . S
H609 C597 0.930 . S
H610 C591 0.929 . S
H611 C629 0.930 . S
H612 C620 0.930 . S
H613 C621 0.930 . S
H614 C645 0.929 . S
H615 C603 0.930 . S
H616 C604 0.929 . S
H617 C646 0.930 . S
H618 C627 0.930 . S
N619 Gd588 2.661 . S
N619 C623 1.350 . S
N619 C624 1.307 . S
C620 H612 0.930 . S
C620 C621 1.355 . S
C620 C622 1.412 . S
C621 H613 0.930 . S
C621 C620 1.355 . S
C621 C624 1.402 . S
C622 C620 1.412 . S
C622 C623 1.417 . S
C622 C646 1.431 . S
C623 N619 1.350 . S
C623 C622 1.417 . S
C623 C626 1.426 . S
C624 H607 0.930 . S
C624 N619 1.307 . S
C624 C621 1.402 . S
N625 Gd588 2.601 . S
N625 C626 1.359 . S
N625 C629 1.334 . S
C626 C623 1.426 . S
C626 N625 1.359 . S
C626 C630 1.413 . S
C627 H618 0.930 . S
C627 C628 1.359 . S
C627 C629 1.394 . S
C628 C627 1.359 . S
C628 C630 1.391 . S
C628 H631 0.929 . S
C629 H611 0.930 . S
C629 N625 1.334 . S
C629 C627 1.394 . S
C630 C626 1.413 . S
C630 C628 1.391 . S
C630 C645 1.437 . S
H631 C628 0.929 . S
O632 Gd588 2.545 . S
O632 C647 1.258 . S
O633 Gd588 2.606 . S
O633 Gd589 2.362 . S
O633 C644 1.284 . S
O634 Gd589 2.324 . S
O634 C654 1.254 . S
O635 Gd588 2.429 . S
O635 C654 1.268 . S
O636 Gd588 2.545 . S
O636 C644 1.250 . S
O637 Gd588 2.412 . S
O637 C647 1.252 . S
O638 Gd589 2.545 . S
O638 C656 1.258 . S
O639 Gd588 2.362 . S
O639 Gd589 2.606 . S
O639 C655 1.284 . S
O640 Gd588 2.324 . S
O640 C663 1.254 . S
O641 Gd589 2.429 . S
O641 C663 1.268 . S
O642 Gd589 2.545 . S
O642 C655 1.250 . S
O643 Gd589 2.412 . S
O643 C656 1.252 . S
C644 O633 1.284 . S
C644 O636 1.250 . S
C645 H614 0.929 . S
C645 C630 1.437 . S
C645 C646 1.317 . S
C646 H617 0.930 . S
C646 C622 1.431 . S
C646 C645 1.317 . S
C647 Gd588 2.828 . S
C647 O632 1.258 . S
C647 O637 1.252 . S
C647 C648 1.497 . S
C648 C647 1.497 . S
C648 C649 1.395 . S
C648 C650 1.380 . S
C649 C648 1.395 . S
C649 C652 1.398 . S
C649 H664 0.930 . S
C650 C648 1.380 . S
C650 C651 1.391 . S
C650 H665 0.930 . S
C651 C650 1.391 . S
C651 C653 1.387 . S
C652 C649 1.398 . S
C652 C653 1.380 . S
C652 H666 0.930 . S
C653 C651 1.387 . S
C653 C652 1.380 . S
C653 H667 0.930 . S
C654 O634 1.254 . S
C654 O635 1.268 . S
C655 O639 1.284 . S
C655 O642 1.250 . S
C656 Gd589 2.828 . S
C656 O638 1.258 . S
C656 O643 1.252 . S
C656 C657 1.497 . S
C657 C656 1.497 . S
C657 C658 1.395 . S
C657 C659 1.380 . S
C658 C657 1.395 . S
C658 C661 1.398 . S
C658 H668 0.930 . S
C659 C657 1.380 . S
C659 C660 1.391 . S
C659 H669 0.930 . S
C660 C659 1.391 . S
C660 C662 1.387 . S
C661 C658 1.398 . S
C661 C662 1.380 . S
C661 H670 0.930 . S
C662 C660 1.387 . S
C662 C661 1.380 . S
C662 H671 0.930 . S
C663 O640 1.254 . S
C663 O641 1.268 . S
H664 C649 0.930 . S
H665 C650 0.930 . S
H666 C652 0.930 . S
H667 C653 0.930 . S
H668 C658 0.930 . S
H669 C659 0.930 . S
H670 C661 0.930 . S
H671 C662 0.930 . S
Co672 O675 2.042 . S
Co672 O682 2.264 . S
Co672 O701 2.286 . S
Co672 O702 2.069 . S
Co672 O704 2.015 1_455 S
Co673 O675 2.122 . S
Co673 O681 2.073 . S
Co673 O682 2.327 . S
Co673 O683 1.976 1_455 S
Co674 O675 2.087 1_545 S
Co674 O677 2.087 1_455 S
Co674 O684 2.111 1_445 S
Co674 O685 2.143 . S
Co674 O689 2.111 . S
Co674 O703 2.143 1_445 S
O675 Co672 2.042 . S
O675 Co673 2.122 . S
O675 Co674 2.087 1_565 S
O675 H676 0.980 1_565 S
H676 O675 0.980 1_545 S
O677 Co674 2.087 1_655 S
O677 Co678 2.042 . S
O677 Co679 2.122 . S
O677 H680 0.980 . S
Co678 O677 2.042 . S
Co678 O686 2.286 . S
Co678 O687 2.069 . S
Co678 O688 2.015 1_655 S
Co678 O691 2.264 . S
Co679 O677 2.122 . S
Co679 O690 1.976 1_655 S
Co679 O691 2.327 . S
Co679 O692 2.073 . S
H680 O677 0.980 . S
O681 Co673 2.073 . S
O681 C696 1.245 . S
O682 Co672 2.264 . S
O682 Co673 2.327 . S
O682 C696 1.257 . S
O683 Co673 1.976 1_655 S
O683 C695 1.251 . S
O684 Co674 2.111 1_665 S
O684 C695 1.274 . S
O685 Co674 2.143 . S
O685 C698 1.246 . S
O686 Co678 2.286 . S
O686 C697 1.259 . S
O687 Co678 2.069 . S
O687 C697 1.289 . S
O688 Co678 2.015 1_455 S
O688 C698 1.257 . S
O689 Co674 2.111 . S
O689 C699 1.274 . S
O690 Co679 1.976 1_455 S
O690 C699 1.251 . S
O691 Co678 2.264 . S
O691 Co679 2.327 . S
O691 C700 1.257 . S
O692 Co679 2.073 . S
O692 C700 1.245 . S
C693 O701 1.259 . S
C693 O702 1.289 . S
C694 O703 1.246 . S
C694 O704 1.257 . S
C695 O683 1.251 . S
C695 O684 1.274 . S
C696 O681 1.245 . S
C696 O682 1.257 . S
C697 O686 1.259 . S
C697 O687 1.289 . S
C698 O685 1.246 . S
C698 O688 1.257 . S
C699 O689 1.274 . S
C699 O690 1.251 . S
C700 O691 1.257 . S
C700 O692 1.245 . S
O701 Co672 2.286 . S
O701 C693 1.259 . S
O702 Co672 2.069 . S
O702 C693 1.289 . S
O703 Co674 2.143 1_665 S
O703 C694 1.246 . S
O704 Co672 2.015 1_655 S
O704 C694 1.257 . S
Co705 O708 2.042 1_566 S
Co705 O715 2.264 1_556 S
Co705 O734 2.286 . S
Co705 O735 2.069 . S
Co705 O737 2.015 . S
Co706 O708 2.122 1_565 S
Co706 O714 2.073 . S
Co706 O715 2.327 . S
Co706 O716 1.976 . S
Co707 O708 2.087 . S
Co707 O710 2.087 1_554 S
Co707 O717 2.111 . S
Co707 O718 2.143 . S
Co707 O722 2.111 1_554 S
Co707 O736 2.143 1_554 S
O708 Co705 2.042 1_544 S
O708 Co706 2.122 1_545 S
O708 Co707 2.087 . S
O708 H709 0.980 . S
H709 O708 0.980 . S
O710 Co707 2.087 1_556 S
O710 Co711 2.042 1_556 S
O710 Co712 2.122 . S
O710 H713 0.980 . S
Co711 O710 2.042 1_554 S
Co711 O719 2.286 . S
Co711 O720 2.069 . S
Co711 O721 2.015 . S
Co711 O724 2.264 1_554 S
Co712 O710 2.122 . S
Co712 O723 1.976 . S
Co712 O724 2.327 . S
Co712 O725 2.073 . S
H713 O710 0.980 . S
O714 Co706 2.073 . S
O714 C729 1.245 . S
O715 Co705 2.264 1_554 S
O715 Co706 2.327 . S
O715 C729 1.257 . S
O716 Co706 1.976 . S
O716 C728 1.251 . S
O717 Co707 2.111 . S
O717 C728 1.274 1_545 S
O718 Co707 2.143 . S
O718 C731 1.246 . S
O719 Co711 2.286 . S
O719 C730 1.259 . S
O720 Co711 2.069 . S
O720 C730 1.289 . S
O721 Co711 2.015 . S
O721 C731 1.257 . S
O722 Co707 2.111 1_556 S
O722 C732 1.274 . S
O723 Co712 1.976 . S
O723 C732 1.251 . S
O724 Co711 2.264 1_556 S
O724 Co712 2.327 . S
O724 C733 1.257 . S
O725 Co712 2.073 . S
O725 C733 1.245 . S
C726 O734 1.259 . S
C726 O735 1.289 . S
C727 O736 1.246 1_565 S
C727 O737 1.257 . S
C728 O716 1.251 . S
C728 O717 1.274 1_565 S
C729 O714 1.245 . S
C729 O715 1.257 . S
C730 O719 1.259 . S
C730 O720 1.289 . S
C731 O718 1.246 . S
C731 O721 1.257 . S
C732 O722 1.274 . S
C732 O723 1.251 . S
C733 O724 1.257 . S
C733 O725 1.245 . S
O734 Co705 2.286 . S
O734 C726 1.259 . S
O735 Co705 2.069 . S
O735 C726 1.289 . S
O736 Co707 2.143 1_556 S
O736 C727 1.246 1_545 S
O737 Co705 2.015 . S
O737 C727 1.257 . S
Co738 O741 2.042 . S
Co738 O748 2.264 . S
Co738 O767 2.286 . S
Co738 O768 2.069 . S
Co738 O770 2.015 1_455 S
Co739 O741 2.122 . S
Co739 O747 2.073 . S
Co739 O748 2.327 . S
Co739 O749 1.976 1_455 S
Co740 O741 2.087 . S
Co740 O743 2.087 1_455 S
Co740 O750 2.111 1_455 S
Co740 O751 2.143 . S
Co740 O755 2.111 . S
Co740 O769 2.143 1_455 S
O741 Co738 2.042 . S
O741 Co739 2.122 . S
O741 Co740 2.087 . S
O741 H742 0.980 . S
H742 O741 0.980 . S
O743 Co740 2.087 1_655 S
O743 Co744 2.042 . S
O743 Co745 2.122 1_554 S
O743 H746 0.980 . S
Co744 O743 2.042 . S
Co744 O752 2.286 . S
Co744 O753 2.069 . S
Co744 O754 2.015 1_655 S
Co744 O757 2.264 . S
Co745 O743 2.122 1_556 S
Co745 O756 1.976 1_655 S
Co745 O757 2.327 1_556 S
Co745 O758 2.073 . S
H746 O743 0.980 . S
O747 Co739 2.073 . S
O747 C762 1.245 . S
O748 Co738 2.264 . S
O748 Co739 2.327 . S
O748 C762 1.257 . S
O749 Co739 1.976 1_655 S
O749 C761 1.251 . S
O750 Co740 2.111 1_655 S
O750 C761 1.274 . S
O751 Co740 2.143 . S
O751 C764 1.246 . S
O752 Co744 2.286 . S
O752 C763 1.259 . S
O753 Co744 2.069 . S
O753 C763 1.289 . S
O754 Co744 2.015 1_455 S
O754 C764 1.257 . S
O755 Co740 2.111 . S
O755 C765 1.274 . S
O756 Co745 1.976 1_455 S
O756 C765 1.251 1_556 S
O757 Co744 2.264 . S
O757 Co745 2.327 1_554 S
O757 C766 1.262 . S
O758 Co745 2.073 . S
O758 C766 1.238 1_556 S
C759 O767 1.259 . S
C759 O768 1.289 . S
C760 O769 1.246 . S
C760 O770 1.257 . S
C761 O749 1.251 . S
C761 O750 1.274 . S
C762 O747 1.245 . S
C762 O748 1.257 . S
C763 O752 1.259 . S
C763 O753 1.289 . S
C764 O751 1.246 . S
C764 O754 1.257 . S
C765 O755 1.274 . S
C765 O756 1.251 1_554 S
C766 O757 1.262 . S
C766 O758 1.238 1_554 S
O767 Co738 2.286 . S
O767 C759 1.259 . S
O768 Co738 2.069 . S
O768 C759 1.289 . S
O769 Co740 2.143 1_655 S
O769 C760 1.246 . S
O770 Co738 2.015 1_655 S
O770 C760 1.257 . S
Co771 O774 2.042 . S
Co771 O781 2.264 . S
Co771 O800 2.286 1_554 S
Co771 O801 2.069 1_554 S
Co771 O803 2.015 1_554 S
Co772 O774 2.122 . S
Co772 O780 2.073 . S
Co772 O781 2.327 . S
Co772 O782 1.976 . S
Co773 O774 2.087 . S
Co773 O776 2.087 . S
Co773 O783 2.111 . S
Co773 O784 2.143 . S
Co773 O788 2.111 1_554 S
Co773 O802 2.143 1_554 S
O774 Co771 2.042 . S
O774 Co772 2.122 . S
O774 Co773 2.087 . S
O774 H775 0.980 . S
H775 O774 0.980 . S
O776 Co773 2.087 . S
O776 Co777 2.042 . S
O776 Co778 2.122 1_554 S
O776 H779 0.980 . S
Co777 O776 2.042 . S
Co777 O785 2.286 . S
Co777 O786 2.069 . S
Co777 O787 2.015 . S
Co777 O790 2.264 1_554 S
Co778 O776 2.122 1_556 S
Co778 O789 1.976 . S
Co778 O790 2.327 . S
Co778 O791 2.073 . S
H779 O776 0.980 . S
O780 Co772 2.073 . S
O780 C795 1.245 . S
O781 Co771 2.264 . S
O781 Co772 2.327 . S
O781 C795 1.257 . S
O782 Co772 1.976 . S
O782 C794 1.251 . S
O783 Co773 2.111 . S
O783 C794 1.274 . S
O784 Co773 2.143 . S
O784 C797 1.246 . S
O785 Co777 2.286 . S
O785 C796 1.259 . S
O786 Co777 2.069 . S
O786 C796 1.289 . S
O787 Co777 2.015 . S
O787 C797 1.257 . S
O788 Co773 2.111 1_556 S
O788 C798 1.274 . S
O789 Co778 1.976 . S
O789 C798 1.251 . S
O790 Co777 2.264 1_556 S
O790 Co778 2.327 . S
O790 C799 1.257 . S
O791 Co778 2.073 . S
O791 C799 1.245 . S
C792 O800 1.259 . S
C792 O801 1.289 . S
C793 O802 1.246 . S
C793 O803 1.257 . S
C794 O782 1.251 . S
C794 O783 1.274 . S
C795 O780 1.245 . S
C795 O781 1.257 . S
C796 O785 1.259 . S
C796 O786 1.289 . S
C797 O784 1.246 . S
C797 O787 1.257 . S
C798 O788 1.274 . S
C798 O789 1.251 . S
C799 O790 1.257 . S
C799 O791 1.245 . S
O800 Co771 2.286 1_556 S
O800 C792 1.259 . S
O801 Co771 2.069 1_556 S
O801 C792 1.289 . S
O802 Co773 2.143 1_556 S
O802 C793 1.246 . S
O803 Co771 2.015 1_556 S
O803 C793 1.257 . S
Co804 O807 2.042 . S
Co804 O814 2.264 . S
Co804 O833 2.286 . S
Co804 O834 2.069 . S
Co804 O836 2.015 . S
Co805 O807 2.122 . S
Co805 O813 2.073 . S
Co805 O814 2.327 . S
Co805 O815 1.976 . S
Co806 O807 2.087 . S
Co806 O809 2.087 . S
Co806 O816 2.111 . S
Co806 O817 2.143 1_455 S
Co806 O821 2.111 . S
Co806 O835 2.143 . S
O807 Co804 2.042 . S
O807 Co805 2.122 . S
O807 Co806 2.087 . S
O807 H808 0.980 . S
H808 O807 0.980 . S
O809 Co806 2.087 . S
O809 Co810 2.042 1_455 S
O809 Co811 2.122 1_455 S
O809 H812 0.980 . S
Co810 O809 2.042 1_655 S
Co810 O818 2.286 . S
Co810 O819 2.069 . S
Co810 O820 2.015 . S
Co810 O823 2.264 . S
Co811 O809 2.122 1_655 S
Co811 O822 1.976 . S
Co811 O823 2.327 . S
Co811 O824 2.073 . S
H812 O809 0.980 . S
O813 Co805 2.073 . S
O813 C828 1.245 . S
O814 Co804 2.264 . S
O814 Co805 2.327 . S
O814 C828 1.257 . S
O815 Co805 1.976 . S
O815 C827 1.251 . S
O816 Co806 2.111 . S
O816 C827 1.274 . S
O817 Co806 2.143 1_655 S
O817 C830 1.246 . S
O818 Co810 2.286 . S
O818 C829 1.259 . S
O819 Co810 2.069 . S
O819 C829 1.289 . S
O820 Co810 2.015 . S
O820 C830 1.257 . S
O821 Co806 2.111 . S
O821 C831 1.274 1_455 S
O822 Co811 1.976 . S
O822 C831 1.251 . S
O823 Co810 2.264 . S
O823 Co811 2.327 . S
O823 C832 1.257 . S
O824 Co811 2.073 . S
O824 C832 1.245 . S
C825 O833 1.259 . S
C825 O834 1.289 . S
C826 O835 1.246 . S
C826 O836 1.257 . S
C827 O815 1.251 . S
C827 O816 1.274 . S
C828 O813 1.245 . S
C828 O814 1.257 . S
C829 O818 1.259 . S
C829 O819 1.289 . S
C830 O817 1.246 . S
C830 O820 1.257 . S
C831 O821 1.274 1_655 S
C831 O822 1.251 . S
C832 O823 1.257 . S
C832 O824 1.245 . S
O833 Co804 2.286 . S
O833 C825 1.259 . S
O834 Co804 2.069 . S
O834 C825 1.289 . S
O835 Co806 2.143 . S
O835 C826 1.246 . S
O836 Co804 2.015 . S
O836 C826 1.257 . S
Co837 O840 2.042 . S
Co837 O847 2.264 . S
Co837 O866 2.286 . S
Co837 O867 2.069 . S
Co837 O869 2.015 1_565 S
Co838 O840 2.122 . S
Co838 O846 2.104 . S
Co838 O847 2.342 . S
Co838 O848 1.949 1_565 S
Co839 O840 2.087 1_545 S
Co839 O842 2.087 . S
Co839 O849 2.111 . S
Co839 O850 2.143 1_545 S
Co839 O854 2.111 1_545 S
Co839 O868 2.143 . S
O840 Co837 2.042 . S
O840 Co838 2.122 . S
O840 Co839 2.087 1_565 S
O840 H841 0.980 . S
H841 O840 0.980 . S
O842 Co839 2.087 . S
O842 Co843 2.042 . S
O842 Co844 2.122 . S
O842 H845 0.980 . S
Co843 O842 2.042 . S
Co843 O851 2.286 . S
Co843 O852 2.069 . S
Co843 O853 2.015 1_545 S
Co843 O856 2.264 . S
Co844 O842 2.122 . S
Co844 O855 1.976 1_545 S
Co844 O856 2.327 . S
Co844 O857 2.073 . S
H845 O842 0.980 . S
O846 Co838 2.104 . S
O846 C861 1.245 . S
O847 Co837 2.264 . S
O847 Co838 2.342 . S
O847 C861 1.257 . S
O848 Co838 1.949 1_545 S
O848 C860 1.251 . S
O849 Co839 2.111 . S
O849 C860 1.274 . S
O850 Co839 2.143 1_565 S
O850 C863 1.246 . S
O851 Co843 2.286 . S
O851 C862 1.259 . S
O852 Co843 2.069 . S
O852 C862 1.289 . S
O853 Co843 2.015 1_565 S
O853 C863 1.257 . S
O854 Co839 2.111 1_565 S
O854 C864 1.274 . S
O855 Co844 1.976 1_565 S
O855 C864 1.251 . S
O856 Co843 2.264 . S
O856 Co844 2.327 . S
O856 C865 1.257 . S
O857 Co844 2.073 . S
O857 C865 1.245 . S
C858 O866 1.259 . S
C858 O867 1.289 . S
C859 O868 1.246 . S
C859 O869 1.257 . S
C860 O848 1.251 . S
C860 O849 1.274 . S
C861 O846 1.245 . S
C861 O847 1.257 . S
C862 O851 1.259 . S
C862 O852 1.289 . S
C863 O850 1.246 . S
C863 O853 1.257 . S
C864 O854 1.274 . S
C864 O855 1.251 . S
C865 O856 1.257 . S
C865 O857 1.245 . S
O866 Co837 2.286 . S
O866 C858 1.259 . S
O867 Co837 2.069 . S
O867 C858 1.289 . S
O868 Co839 2.143 . S
O868 C859 1.246 . S
O869 Co837 2.015 1_545 S
O869 C859 1.257 . S
H870 C882 0.930 . S
H871 C884 0.930 . S
H872 C885 0.930 . S
H873 C889 0.959 . S
H874 C889 0.959 . S
H875 C889 0.961 . S
H876 C890 0.960 . S
H877 C890 0.961 . S
H878 C890 0.959 . S
H879 C893 0.929 . S
H880 C894 0.931 . S
H881 C896 0.930 . S
C882 H870 0.930 . S
C882 C883 1.399 . S
C882 C887 1.399 . S
C883 C882 1.399 . S
C883 C884 1.376 . S
C884 H871 0.930 . S
C884 C883 1.376 . S
C884 C885 1.388 . S
C885 H872 0.930 . S
C885 C884 1.388 . S
C885 C886 1.390 . S
C886 C885 1.390 . S
C886 C887 1.394 . S
C886 C892 1.465 . S
C887 C882 1.399 . S
C887 C886 1.394 . S
C887 C888 1.516 . S
C888 C887 1.516 . S
C888 C889 1.502 . S
C888 C890 1.561 . S
C888 C891 1.526 . S
C889 H873 0.959 . S
C889 H874 0.959 . S
C889 H875 0.961 . S
C889 C888 1.502 . S
C890 H876 0.960 . S
C890 H877 0.961 . S
C890 H878 0.959 . S
C890 C888 1.561 . S
C891 C888 1.526 . S
C891 C892 1.396 . S
C891 C896 1.390 . S
C892 C886 1.465 . S
C892 C891 1.396 . S
C892 C893 1.399 . S
C893 H879 0.929 . S
C893 C892 1.399 . S
C893 C894 1.385 . S
C894 H880 0.931 . S
C894 C893 1.385 . S
C894 C895 1.389 . S
C895 C894 1.389 . S
C895 C896 1.387 . S
C896 H881 0.930 . S
C896 C891 1.390 . S
C896 C895 1.387 . S
H897 C909 0.930 . S
H898 C911 0.930 . S
H899 C912 0.930 . S
H900 C916 0.959 . S
H901 C916 0.959 . S
H902 C916 0.961 . S
H903 C917 0.960 . S
H904 C917 0.961 . S
H905 C917 0.959 . S
H906 C920 0.929 . S
H907 C921 0.931 . S
H908 C923 0.930 . S
C909 H897 0.930 . S
C909 C910 1.399 . S
C909 C914 1.399 . S
C910 C909 1.399 . S
C910 C911 1.376 . S
C911 H898 0.930 . S
C911 C910 1.376 . S
C911 C912 1.388 . S
C912 H899 0.930 . S
C912 C911 1.388 . S
C912 C913 1.390 . S
C913 C912 1.390 . S
C913 C914 1.394 . S
C913 C919 1.465 . S
C914 C909 1.399 . S
C914 C913 1.394 . S
C914 C915 1.516 . S
C915 C914 1.516 . S
C915 C916 1.502 . S
C915 C917 1.561 . S
C915 C918 1.526 . S
C916 H900 0.959 . S
C916 H901 0.959 . S
C916 H902 0.961 . S
C916 C915 1.502 . S
C917 H903 0.960 . S
C917 H904 0.961 . S
C917 H905 0.959 . S
C917 C915 1.561 . S
C918 C915 1.526 . S
C918 C919 1.396 . S
C918 C923 1.390 . S
C919 C913 1.465 . S
C919 C918 1.396 . S
C919 C920 1.399 . S
C920 H906 0.929 . S
C920 C919 1.399 . S
C920 C921 1.385 . S
C921 H907 0.931 . S
C921 C920 1.385 . S
C921 C922 1.389 . S
C922 C921 1.389 . S
C922 C923 1.387 . S
C923 H908 0.930 . S
C923 C918 1.390 . S
C923 C922 1.387 . S
H924 C936 0.930 . S
H925 C938 0.930 . S
H926 C939 0.930 . S
H927 C943 0.959 . S
H928 C943 0.959 . S
H929 C943 0.961 . S
H930 C944 0.960 . S
H931 C944 0.961 . S
H932 C944 0.959 . S
H933 C947 0.929 . S
H934 C948 0.931 . S
H935 C950 0.930 . S
C936 H924 0.930 . S
C936 C937 1.399 . S
C936 C941 1.399 . S
C937 C936 1.399 . S
C937 C938 1.376 . S
C938 H925 0.930 . S
C938 C937 1.376 . S
C938 C939 1.388 . S
C939 H926 0.930 . S
C939 C938 1.388 . S
C939 C940 1.390 . S
C940 C939 1.390 . S
C940 C941 1.394 . S
C940 C946 1.465 . S
C941 C936 1.399 . S
C941 C940 1.394 . S
C941 C942 1.516 . S
C942 C941 1.516 . S
C942 C943 1.502 . S
C942 C944 1.561 . S
C942 C945 1.526 . S
C943 H927 0.959 . S
C943 H928 0.959 . S
C943 H929 0.961 . S
C943 C942 1.502 . S
C944 H930 0.960 . S
C944 H931 0.961 . S
C944 H932 0.959 . S
C944 C942 1.561 . S
C945 C942 1.526 . S
C945 C946 1.396 . S
C945 C950 1.390 . S
C946 C940 1.465 . S
C946 C945 1.396 . S
C946 C947 1.399 . S
C947 H933 0.929 . S
C947 C946 1.399 . S
C947 C948 1.385 . S
C948 H934 0.931 . S
C948 C947 1.385 . S
C948 C949 1.389 . S
C949 C948 1.389 . S
C949 C950 1.387 . S
C950 H935 0.930 . S
C950 C945 1.390 . S
C950 C949 1.387 . S
H951 C963 0.930 . S
H952 C965 0.930 . S
H953 C966 0.930 . S
H954 C970 0.959 . S
H955 C970 0.959 . S
H956 C970 0.961 . S
H957 C971 0.960 . S
H958 C971 0.961 . S
H959 C971 0.959 . S
H960 C974 0.929 . S
H961 C975 0.931 . S
H962 C977 0.930 . S
C963 H951 0.930 . S
C963 C964 1.399 . S
C963 C968 1.399 . S
C964 C963 1.399 . S
C964 C965 1.376 . S
C965 H952 0.930 . S
C965 C964 1.376 . S
C965 C966 1.388 . S
C966 H953 0.930 . S
C966 C965 1.388 . S
C966 C967 1.390 . S
C967 C966 1.390 . S
C967 C968 1.394 . S
C967 C973 1.465 . S
C968 C963 1.399 . S
C968 C967 1.394 . S
C968 C969 1.516 . S
C969 C968 1.516 . S
C969 C970 1.502 . S
C969 C971 1.561 . S
C969 C972 1.526 . S
C970 H954 0.959 . S
C970 H955 0.959 . S
C970 H956 0.961 . S
C970 C969 1.502 . S
C971 H957 0.960 . S
C971 H958 0.961 . S
C971 H959 0.959 . S
C971 C969 1.561 . S
C972 C969 1.526 . S
C972 C973 1.396 . S
C972 C977 1.390 . S
C973 C967 1.465 . S
C973 C972 1.396 . S
C973 C974 1.399 . S
C974 H960 0.929 . S
C974 C973 1.399 . S
C974 C975 1.385 . S
C975 H961 0.931 . S
C975 C974 1.385 . S
C975 C976 1.389 . S
C976 C975 1.389 . S
C976 C977 1.387 . S
C977 H962 0.930 . S
C977 C972 1.390 . S
C977 C976 1.387 . S
H978 C990 0.930 . S
H979 C992 0.930 . S
H980 C993 0.930 . S
H981 C997 0.959 . S
H982 C997 0.959 . S
H983 C997 0.961 . S
H984 C998 0.960 . S
H985 C998 0.961 . S
H986 C998 0.959 . S
H987 C1001 0.929 . S
H988 C1002 0.931 . S
H989 C1004 0.930 . S
C990 H978 0.930 . S
C990 C991 1.399 . S
C990 C995 1.399 . S
C991 C990 1.399 . S
C991 C992 1.376 . S
C992 H979 0.930 . S
C992 C991 1.376 . S
C992 C993 1.388 . S
C993 H980 0.930 . S
C993 C992 1.388 . S
C993 C994 1.390 . S
C994 C993 1.390 . S
C994 C995 1.394 . S
C994 C1000 1.465 . S
C995 C990 1.399 . S
C995 C994 1.394 . S
C995 C996 1.516 . S
C996 C995 1.516 . S
C996 C997 1.502 . S
C996 C998 1.561 . S
C996 C999 1.526 . S
C997 H981 0.959 . S
C997 H982 0.959 . S
C997 H983 0.961 . S
C997 C996 1.502 . S
C998 H984 0.960 . S
C998 H985 0.961 . S
C998 H986 0.959 . S
C998 C996 1.561 . S
C999 C996 1.526 . S
C999 C1000 1.396 . S
C999 C1004 1.390 . S
C1000 C994 1.465 . S
C1000 C999 1.396 . S
C1000 C1001 1.399 . S
C1001 H987 0.929 . S
C1001 C1000 1.399 . S
C1001 C1002 1.385 . S
C1002 H988 0.931 . S
C1002 C1001 1.385 . S
C1002 C1003 1.389 . S
C1003 C1002 1.389 . S
C1003 C1004 1.387 . S
C1004 H989 0.930 . S
C1004 C999 1.390 . S
C1004 C1003 1.387 . S
H1005 C1017 0.930 . S
H1006 C1019 0.930 . S
H1007 C1020 0.930 . S
H1008 C1024 0.959 . S
H1009 C1024 0.959 . S
H1010 C1024 0.961 . S
H1011 C1025 0.960 . S
H1012 C1025 0.961 . S
H1013 C1025 0.959 . S
H1014 C1028 0.929 . S
H1015 C1029 0.931 . S
H1016 C1031 0.930 . S
C1017 H1005 0.930 . S
C1017 C1018 1.399 . S
C1017 C1022 1.399 . S
C1018 C1017 1.399 . S
C1018 C1019 1.376 . S
C1019 H1006 0.930 . S
C1019 C1018 1.376 . S
C1019 C1020 1.388 . S
C1020 H1007 0.930 . S
C1020 C1019 1.388 . S
C1020 C1021 1.390 . S
C1021 C1020 1.390 . S
C1021 C1022 1.394 . S
C1021 C1027 1.465 . S
C1022 C1017 1.399 . S
C1022 C1021 1.394 . S
C1022 C1023 1.516 . S
C1023 C1022 1.516 . S
C1023 C1024 1.502 . S
C1023 C1025 1.561 . S
C1023 C1026 1.526 . S
C1024 H1008 0.959 . S
C1024 H1009 0.959 . S
C1024 H1010 0.961 . S
C1024 C1023 1.502 . S
C1025 H1011 0.960 . S
C1025 H1012 0.961 . S
C1025 H1013 0.959 . S
C1025 C1023 1.561 . S
C1026 C1023 1.526 . S
C1026 C1027 1.396 . S
C1026 C1031 1.390 . S
C1027 C1021 1.465 . S
C1027 C1026 1.396 . S
C1027 C1028 1.399 . S
C1028 H1014 0.929 . S
C1028 C1027 1.399 . S
C1028 C1029 1.385 . S
C1029 H1015 0.931 . S
C1029 C1028 1.385 . S
C1029 C1030 1.389 . S
C1030 C1029 1.389 . S
C1030 C1031 1.387 . S
C1031 H1016 0.930 . S
C1031 C1026 1.390 . S
C1031 C1030 1.387 . S
H1032 C1044 0.930 . S
H1033 C1046 0.930 . S
H1034 C1047 0.930 . S
H1035 C1051 0.959 . S
H1036 C1051 0.959 . S
H1037 C1051 0.961 . S
H1038 C1052 0.960 . S
H1039 C1052 0.961 . S
H1040 C1052 0.959 . S
H1041 C1055 0.929 . S
H1042 C1056 0.931 . S
H1043 C1058 0.930 . S
C1044 H1032 0.930 . S
C1044 C1045 1.399 . S
C1044 C1049 1.399 . S
C1045 C1044 1.399 . S
C1045 C1046 1.376 . S
C1046 H1033 0.930 . S
C1046 C1045 1.376 . S
C1046 C1047 1.388 . S
C1047 H1034 0.930 . S
C1047 C1046 1.388 . S
C1047 C1048 1.390 . S
C1048 C1047 1.390 . S
C1048 C1049 1.394 . S
C1048 C1054 1.465 . S
C1049 C1044 1.399 . S
C1049 C1048 1.394 . S
C1049 C1050 1.516 . S
C1050 C1049 1.516 . S
C1050 C1051 1.502 . S
C1050 C1052 1.561 . S
C1050 C1053 1.526 . S
C1051 H1035 0.959 . S
C1051 H1036 0.959 . S
C1051 H1037 0.961 . S
C1051 C1050 1.502 . S
C1052 H1038 0.960 . S
C1052 H1039 0.961 . S
C1052 H1040 0.959 . S
C1052 C1050 1.561 . S
C1053 C1050 1.526 . S
C1053 C1054 1.396 . S
C1053 C1058 1.390 . S
C1054 C1048 1.465 . S
C1054 C1053 1.396 . S
C1054 C1055 1.399 . S
C1055 H1041 0.929 . S
C1055 C1054 1.399 . S
C1055 C1056 1.385 . S
C1056 H1042 0.931 . S
C1056 C1055 1.385 . S
C1056 C1057 1.389 . S
C1057 C1056 1.389 . S
C1057 C1058 1.387 . S
C1058 H1043 0.930 . S
C1058 C1053 1.390 . S
C1058 C1057 1.387 . S
H1059 C1071 0.930 . S
H1060 C1073 0.930 . S
H1061 C1074 0.930 . S
H1062 C1078 0.959 . S
H1063 C1078 0.959 . S
H1064 C1078 0.961 . S
H1065 C1079 0.960 . S
H1066 C1079 0.961 . S
H1067 C1079 0.959 . S
H1068 C1082 0.929 . S
H1069 C1083 0.931 . S
H1070 C1085 0.930 . S
C1071 H1059 0.930 . S
C1071 C1072 1.399 . S
C1071 C1076 1.399 . S
C1072 C1071 1.399 . S
C1072 C1073 1.376 . S
C1073 H1060 0.930 . S
C1073 C1072 1.376 . S
C1073 C1074 1.388 . S
C1074 H1061 0.930 . S
C1074 C1073 1.388 . S
C1074 C1075 1.390 . S
C1075 C1074 1.390 . S
C1075 C1076 1.394 . S
C1075 C1081 1.465 . S
C1076 C1071 1.399 . S
C1076 C1075 1.394 . S
C1076 C1077 1.516 . S
C1077 C1076 1.516 . S
C1077 C1078 1.502 . S
C1077 C1079 1.561 . S
C1077 C1080 1.526 . S
C1078 H1062 0.959 . S
C1078 H1063 0.959 . S
C1078 H1064 0.961 . S
C1078 C1077 1.502 . S
C1079 H1065 0.960 . S
C1079 H1066 0.961 . S
C1079 H1067 0.959 . S
C1079 C1077 1.561 . S
C1080 C1077 1.526 . S
C1080 C1081 1.396 . S
C1080 C1085 1.390 . S
C1081 C1075 1.465 . S
C1081 C1080 1.396 . S
C1081 C1082 1.399 . S
C1082 H1068 0.929 . S
C1082 C1081 1.399 . S
C1082 C1083 1.385 . S
C1083 H1069 0.931 . S
C1083 C1082 1.385 . S
C1083 C1084 1.389 . S
C1084 C1083 1.389 . S
C1084 C1085 1.387 . S
C1085 H1070 0.930 . S
C1085 C1080 1.390 . S
C1085 C1084 1.387 . S
H1086 C1098 0.930 . S
H1087 C1100 0.930 . S
H1088 C1101 0.930 . S
H1089 C1105 0.959 . S
H1090 C1105 0.959 . S
H1091 C1105 0.961 . S
H1092 C1106 0.960 . S
H1093 C1106 0.961 . S
H1094 C1106 0.959 . S
H1095 C1109 0.929 . S
H1096 C1110 0.931 . S
H1097 C1112 0.930 . S
C1098 H1086 0.930 . S
C1098 C1099 1.399 . S
C1098 C1103 1.399 . S
C1099 C1098 1.399 . S
C1099 C1100 1.376 . S
C1100 H1087 0.930 . S
C1100 C1099 1.376 . S
C1100 C1101 1.388 . S
C1101 H1088 0.930 . S
C1101 C1100 1.388 . S
C1101 C1102 1.390 . S
C1102 C1101 1.390 . S
C1102 C1103 1.394 . S
C1102 C1108 1.465 . S
C1103 C1098 1.399 . S
C1103 C1102 1.394 . S
C1103 C1104 1.516 . S
C1104 C1103 1.516 . S
C1104 C1105 1.502 . S
C1104 C1106 1.561 . S
C1104 C1107 1.526 . S
C1105 H1089 0.959 . S
C1105 H1090 0.959 . S
C1105 H1091 0.961 . S
C1105 C1104 1.502 . S
C1106 H1092 0.960 . S
C1106 H1093 0.961 . S
C1106 H1094 0.959 . S
C1106 C1104 1.561 . S
C1107 C1104 1.526 . S
C1107 C1108 1.396 . S
C1107 C1112 1.390 . S
C1108 C1102 1.465 . S
C1108 C1107 1.396 . S
C1108 C1109 1.399 . S
C1109 H1095 0.929 . S
C1109 C1108 1.399 . S
C1109 C1110 1.385 . S
C1110 H1096 0.931 . S
C1110 C1109 1.385 . S
C1110 C1111 1.389 . S
C1111 C1110 1.389 . S
C1111 C1112 1.387 . S
C1112 H1097 0.930 . S
C1112 C1107 1.390 . S
C1112 C1111 1.387 . S
H1113 C1125 0.930 . S
H1114 C1127 0.930 . S
H1115 C1128 0.930 . S
H1116 C1132 0.959 . S
H1117 C1132 0.959 . S
H1118 C1132 0.961 . S
H1119 C1133 0.960 . S
H1120 C1133 0.961 . S
H1121 C1133 0.959 . S
H1122 C1136 0.929 . S
H1123 C1137 0.931 . S
H1124 C1139 0.930 . S
C1125 H1113 0.930 . S
C1125 C1126 1.399 . S
C1125 C1130 1.399 . S
C1126 C1125 1.399 . S
C1126 C1127 1.376 . S
C1127 H1114 0.930 . S
C1127 C1126 1.376 . S
C1127 C1128 1.388 . S
C1128 H1115 0.930 . S
C1128 C1127 1.388 . S
C1128 C1129 1.390 . S
C1129 C1128 1.390 . S
C1129 C1130 1.394 . S
C1129 C1135 1.465 . S
C1130 C1125 1.399 . S
C1130 C1129 1.394 . S
C1130 C1131 1.516 . S
C1131 C1130 1.516 . S
C1131 C1132 1.502 . S
C1131 C1133 1.561 . S
C1131 C1134 1.526 . S
C1132 H1116 0.959 . S
C1132 H1117 0.959 . S
C1132 H1118 0.961 . S
C1132 C1131 1.502 . S
C1133 H1119 0.960 . S
C1133 H1120 0.961 . S
C1133 H1121 0.959 . S
C1133 C1131 1.561 . S
C1134 C1131 1.526 . S
C1134 C1135 1.396 . S
C1134 C1139 1.390 . S
C1135 C1129 1.465 . S
C1135 C1134 1.396 . S
C1135 C1136 1.399 . S
C1136 H1122 0.929 . S
C1136 C1135 1.399 . S
C1136 C1137 1.385 . S
C1137 H1123 0.931 . S
C1137 C1136 1.385 . S
C1137 C1138 1.389 . S
C1138 C1137 1.389 . S
C1138 C1139 1.387 . S
C1139 H1124 0.930 . S
C1139 C1134 1.390 . S
C1139 C1138 1.387 . S
H1140 C1152 0.930 . S
H1141 C1154 0.930 . S
H1142 C1155 0.930 . S
H1143 C1159 0.959 . S
H1144 C1159 0.959 . S
H1145 C1159 0.961 . S
H1146 C1160 0.960 . S
H1147 C1160 0.961 . S
H1148 C1160 0.959 . S
H1149 C1163 0.929 . S
H1150 C1164 0.931 . S
H1151 C1166 0.930 . S
C1152 H1140 0.930 . S
C1152 C1153 1.399 . S
C1152 C1157 1.399 . S
C1153 C1152 1.399 . S
C1153 C1154 1.376 . S
C1154 H1141 0.930 . S
C1154 C1153 1.376 . S
C1154 C1155 1.388 . S
C1155 H1142 0.930 . S
C1155 C1154 1.388 . S
C1155 C1156 1.390 . S
C1156 C1155 1.390 . S
C1156 C1157 1.394 . S
C1156 C1162 1.465 . S
C1157 C1152 1.399 . S
C1157 C1156 1.394 . S
C1157 C1158 1.516 . S
C1158 C1157 1.516 . S
C1158 C1159 1.502 . S
C1158 C1160 1.561 . S
C1158 C1161 1.526 . S
C1159 H1143 0.959 . S
C1159 H1144 0.959 . S
C1159 H1145 0.961 . S
C1159 C1158 1.502 . S
C1160 H1146 0.960 . S
C1160 H1147 0.961 . S
C1160 H1148 0.959 . S
C1160 C1158 1.561 . S
C1161 C1158 1.526 . S
C1161 C1162 1.396 . S
C1161 C1166 1.390 . S
C1162 C1156 1.465 . S
C1162 C1161 1.396 . S
C1162 C1163 1.399 . S
C1163 H1149 0.929 . S
C1163 C1162 1.399 . S
C1163 C1164 1.385 . S
C1164 H1150 0.931 . S
C1164 C1163 1.385 . S
C1164 C1165 1.389 . S
C1165 C1164 1.389 . S
C1165 C1166 1.387 . S
C1166 H1151 0.930 . S
C1166 C1161 1.390 . S
C1166 C1165 1.387 . S
H1167 C1179 0.930 . S
H1168 C1181 0.930 . S
H1169 C1182 0.930 . S
H1170 C1186 0.959 . S
H1171 C1186 0.959 . S
H1172 C1186 0.961 . S
H1173 C1187 0.960 . S
H1174 C1187 0.961 . S
H1175 C1187 0.959 . S
H1176 C1190 0.929 . S
H1177 C1191 0.931 . S
H1178 C1193 0.930 . S
C1179 H1167 0.930 . S
C1179 C1180 1.399 . S
C1179 C1184 1.399 . S
C1180 C1179 1.399 . S
C1180 C1181 1.376 . S
C1181 H1168 0.930 . S
C1181 C1180 1.376 . S
C1181 C1182 1.388 . S
C1182 H1169 0.930 . S
C1182 C1181 1.388 . S
C1182 C1183 1.390 . S
C1183 C1182 1.390 . S
C1183 C1184 1.394 . S
C1183 C1189 1.465 . S
C1184 C1179 1.399 . S
C1184 C1183 1.394 . S
C1184 C1185 1.516 . S
C1185 C1184 1.516 . S
C1185 C1186 1.502 . S
C1185 C1187 1.561 . S
C1185 C1188 1.526 . S
C1186 H1170 0.959 . S
C1186 H1171 0.959 . S
C1186 H1172 0.961 . S
C1186 C1185 1.502 . S
C1187 H1173 0.960 . S
C1187 H1174 0.961 . S
C1187 H1175 0.959 . S
C1187 C1185 1.561 . S
C1188 C1185 1.526 . S
C1188 C1189 1.396 . S
C1188 C1193 1.390 . S
C1189 C1183 1.465 . S
C1189 C1188 1.396 . S
C1189 C1190 1.399 . S
C1190 H1176 0.929 . S
C1190 C1189 1.399 . S
C1190 C1191 1.385 . S
C1191 H1177 0.931 . S
C1191 C1190 1.385 . S
C1191 C1192 1.389 . S
C1192 C1191 1.389 . S
C1192 C1193 1.387 . S
C1193 H1178 0.930 . S
C1193 C1188 1.390 . S
C1193 C1192 1.387 . S
H1194 C1206 0.930 . S
H1195 C1208 0.930 . S
H1196 C1209 0.930 . S
H1197 C1213 0.959 . S
H1198 C1213 0.959 . S
H1199 C1213 0.961 . S
H1200 C1214 0.960 . S
H1201 C1214 0.961 . S
H1202 C1214 0.959 . S
H1203 C1217 0.929 . S
H1204 C1218 0.931 . S
H1205 C1220 0.930 . S
C1206 H1194 0.930 . S
C1206 C1207 1.399 . S
C1206 C1211 1.399 . S
C1207 C1206 1.399 . S
C1207 C1208 1.376 . S
C1208 H1195 0.930 . S
C1208 C1207 1.376 . S
C1208 C1209 1.388 . S
C1209 H1196 0.930 . S
C1209 C1208 1.388 . S
C1209 C1210 1.390 . S
C1210 C1209 1.390 . S
C1210 C1211 1.394 . S
C1210 C1216 1.465 . S
C1211 C1206 1.399 . S
C1211 C1210 1.394 . S
C1211 C1212 1.516 . S
C1212 C1211 1.516 . S
C1212 C1213 1.502 . S
C1212 C1214 1.561 . S
C1212 C1215 1.526 . S
C1213 H1197 0.959 . S
C1213 H1198 0.959 . S
C1213 H1199 0.961 . S
C1213 C1212 1.502 . S
C1214 H1200 0.960 . S
C1214 H1201 0.961 . S
C1214 H1202 0.959 . S
C1214 C1212 1.561 . S
C1215 C1212 1.526 . S
C1215 C1216 1.396 . S
C1215 C1220 1.390 . S
C1216 C1210 1.465 . S
C1216 C1215 1.396 . S
C1216 C1217 1.399 . S
C1217 H1203 0.929 . S
C1217 C1216 1.399 . S
C1217 C1218 1.385 . S
C1218 H1204 0.931 . S
C1218 C1217 1.385 . S
C1218 C1219 1.389 . S
C1219 C1218 1.389 . S
C1219 C1220 1.387 . S
C1220 H1205 0.930 . S
C1220 C1215 1.390 . S
C1220 C1219 1.387 . S
H1221 C1233 0.930 . S
H1222 C1235 0.930 . S
H1223 C1236 0.930 1_554 S
H1224 C1240 0.959 . S
H1225 C1240 0.959 . S
H1226 C1240 0.961 . S
H1227 C1241 0.960 . S
H1228 C1241 0.961 . S
H1229 C1241 0.959 . S
H1230 C1244 0.929 . S
H1231 C1245 0.931 . S
H1232 C1247 0.930 . S
C1233 H1221 0.930 . S
C1233 C1234 1.399 . S
C1233 C1238 1.399 . S
C1234 C1233 1.399 . S
C1234 C1235 1.376 . S
C1235 H1222 0.930 . S
C1235 C1234 1.376 . S
C1235 C1236 1.388 . S
C1236 H1223 0.930 1_556 S
C1236 C1235 1.388 . S
C1236 C1237 1.390 . S
C1237 C1236 1.390 . S
C1237 C1238 1.394 . S
C1237 C1243 1.465 . S
C1238 C1233 1.399 . S
C1238 C1237 1.394 . S
C1238 C1239 1.516 . S
C1239 C1238 1.516 . S
C1239 C1240 1.502 . S
C1239 C1241 1.561 . S
C1239 C1242 1.526 . S
C1240 H1224 0.959 . S
C1240 H1225 0.959 . S
C1240 H1226 0.961 . S
C1240 C1239 1.502 . S
C1241 H1227 0.960 . S
C1241 H1228 0.961 . S
C1241 H1229 0.959 . S
C1241 C1239 1.561 . S
C1242 C1239 1.526 . S
C1242 C1243 1.396 . S
C1242 C1247 1.390 . S
C1243 C1237 1.465 . S
C1243 C1242 1.396 . S
C1243 C1244 1.399 1_556 S
C1244 H1230 0.929 . S
C1244 C1243 1.399 1_554 S
C1244 C1245 1.385 . S
C1245 H1231 0.931 . S
C1245 C1244 1.385 . S
C1245 C1246 1.386 1_554 S
C1246 C1245 1.386 1_556 S
C1246 C1247 1.391 . S
C1247 H1232 0.930 . S
C1247 C1242 1.390 . S
C1247 C1246 1.391 . S
H1248 C1260 0.930 . S
H1249 C1262 0.930 . S
H1250 C1263 0.930 . S
H1251 C1267 0.959 . S
H1252 C1267 0.959 . S
H1253 C1267 0.961 . S
H1254 C1268 0.960 . S
H1255 C1268 0.961 1_554 S
H1256 C1268 0.959 . S
H1257 C1271 0.929 . S
H1258 C1272 0.931 . S
H1259 C1274 0.930 . S
C1260 H1248 0.930 . S
C1260 C1261 1.399 . S
C1260 C1265 1.399 . S
C1261 C1260 1.399 . S
C1261 C1262 1.376 . S
C1262 H1249 0.930 . S
C1262 C1261 1.376 . S
C1262 C1263 1.388 . S
C1263 H1250 0.930 . S
C1263 C1262 1.388 . S
C1263 C1264 1.390 . S
C1264 C1263 1.390 . S
C1264 C1265 1.394 . S
C1264 C1270 1.465 . S
C1265 C1260 1.399 . S
C1265 C1264 1.394 . S
C1265 C1266 1.516 . S
C1266 C1265 1.516 . S
C1266 C1267 1.502 . S
C1266 C1268 1.561 . S
C1266 C1269 1.526 . S
C1267 H1251 0.959 . S
C1267 H1252 0.959 . S
C1267 H1253 0.961 . S
C1267 C1266 1.502 . S
C1268 H1254 0.960 . S
C1268 H1255 0.961 1_556 S
C1268 H1256 0.959 . S
C1268 C1266 1.561 . S
C1269 C1266 1.526 . S
C1269 C1270 1.396 . S
C1269 C1274 1.390 . S
C1270 C1264 1.465 . S
C1270 C1269 1.396 . S
C1270 C1271 1.399 . S
C1271 H1257 0.929 . S
C1271 C1270 1.399 . S
C1271 C1272 1.385 . S
C1272 H1258 0.931 . S
C1272 C1271 1.385 . S
C1272 C1273 1.389 . S
C1273 C1272 1.389 . S
C1273 C1274 1.387 . S
C1274 H1259 0.930 . S
C1274 C1269 1.390 . S
C1274 C1273 1.387 . S
H1275 C1287 0.930 . S
H1276 C1289 0.930 . S
H1277 C1290 0.930 . S
H1278 C1294 0.959 . S
H1279 C1294 0.959 . S
H1280 C1294 0.961 . S
H1281 C1295 0.960 . S
H1282 C1295 0.961 1_554 S
H1283 C1295 0.959 . S
H1284 C1298 0.929 . S
H1285 C1299 0.931 . S
H1286 C1301 0.930 . S
C1287 H1275 0.930 . S
C1287 C1288 1.399 . S
C1287 C1292 1.399 . S
C1288 C1287 1.399 . S
C1288 C1289 1.376 . S
C1289 H1276 0.930 . S
C1289 C1288 1.376 . S
C1289 C1290 1.388 . S
C1290 H1277 0.930 . S
C1290 C1289 1.388 . S
C1290 C1291 1.390 . S
C1291 C1290 1.390 . S
C1291 C1292 1.394 . S
C1291 C1297 1.465 . S
C1292 C1287 1.399 . S
C1292 C1291 1.394 . S
C1292 C1293 1.516 . S
C1293 C1292 1.516 . S
C1293 C1294 1.502 . S
C1293 C1295 1.561 . S
C1293 C1296 1.526 . S
C1294 H1278 0.959 . S
C1294 H1279 0.959 . S
C1294 H1280 0.961 . S
C1294 C1293 1.502 . S
C1295 H1281 0.960 . S
C1295 H1282 0.961 1_556 S
C1295 H1283 0.959 . S
C1295 C1293 1.561 . S
C1296 C1293 1.526 . S
C1296 C1297 1.396 . S
C1296 C1301 1.390 . S
C1297 C1291 1.465 . S
C1297 C1296 1.396 . S
C1297 C1298 1.399 . S
C1298 H1284 0.929 . S
C1298 C1297 1.399 . S
C1298 C1299 1.385 . S
C1299 H1285 0.931 . S
C1299 C1298 1.385 . S
C1299 C1300 1.389 . S
C1300 C1299 1.389 . S
C1300 C1301 1.387 . S
C1301 H1286 0.930 . S
C1301 C1296 1.390 . S
C1301 C1300 1.387 . S
H1302 C1314 0.930 . S
H1303 C1316 0.930 . S
H1304 C1317 0.930 . S
H1305 C1321 0.959 . S
H1306 C1321 0.959 . S
H1307 C1321 0.961 . S
H1308 C1322 0.960 . S
H1309 C1322 0.961 . S
H1310 C1322 0.959 . S
H1311 C1325 0.929 . S
H1312 C1326 0.931 . S
H1313 C1328 0.930 . S
C1314 H1302 0.930 . S
C1314 C1315 1.399 . S
C1314 C1319 1.399 . S
C1315 C1314 1.399 . S
C1315 C1316 1.376 . S
C1316 H1303 0.930 . S
C1316 C1315 1.376 . S
C1316 C1317 1.388 . S
C1317 H1304 0.930 . S
C1317 C1316 1.388 . S
C1317 C1318 1.390 . S
C1318 C1317 1.390 . S
C1318 C1319 1.394 . S
C1318 C1324 1.465 . S
C1319 C1314 1.399 . S
C1319 C1318 1.394 . S
C1319 C1320 1.516 . S
C1320 C1319 1.516 . S
C1320 C1321 1.502 . S
C1320 C1322 1.561 . S
C1320 C1323 1.526 . S
C1321 H1305 0.959 . S
C1321 H1306 0.959 . S
C1321 H1307 0.961 . S
C1321 C1320 1.502 . S
C1322 H1308 0.960 . S
C1322 H1309 0.961 . S
C1322 H1310 0.959 . S
C1322 C1320 1.561 . S
C1323 C1320 1.526 . S
C1323 C1324 1.396 . S
C1323 C1328 1.390 . S
C1324 C1318 1.465 . S
C1324 C1323 1.396 . S
C1324 C1325 1.399 . S
C1325 H1311 0.929 . S
C1325 C1324 1.399 . S
C1325 C1326 1.385 . S
C1326 H1312 0.931 . S
C1326 C1325 1.385 . S
C1326 C1327 1.389 . S
C1327 C1326 1.389 . S
C1327 C1328 1.387 . S
C1328 H1313 0.930 . S
C1328 C1323 1.390 . S
C1328 C1327 1.387 . S
H1329 C1341 0.930 . S
H1330 C1343 0.930 . S
H1331 C1344 0.930 . S
H1332 C1348 0.959 . S
H1333 C1348 0.959 . S
H1334 C1348 0.961 . S
H1335 C1349 0.960 . S
H1336 C1349 0.961 . S
H1337 C1349 0.959 . S
H1338 C1352 0.929 . S
H1339 C1353 0.931 . S
H1340 C1355 0.930 . S
C1341 H1329 0.930 . S
C1341 C1342 1.399 . S
C1341 C1346 1.399 . S
C1342 C1341 1.399 . S
C1342 C1343 1.376 . S
C1343 H1330 0.930 . S
C1343 C1342 1.376 . S
C1343 C1344 1.388 . S
C1344 H1331 0.930 . S
C1344 C1343 1.388 . S
C1344 C1345 1.390 . S
C1345 C1344 1.390 . S
C1345 C1346 1.394 . S
C1345 C1351 1.465 . S
C1346 C1341 1.399 . S
C1346 C1345 1.394 . S
C1346 C1347 1.516 . S
C1347 C1346 1.516 . S
C1347 C1348 1.502 . S
C1347 C1349 1.561 . S
C1347 C1350 1.526 . S
C1348 H1332 0.959 . S
C1348 H1333 0.959 . S
C1348 H1334 0.961 . S
C1348 C1347 1.502 . S
C1349 H1335 0.960 . S
C1349 H1336 0.961 . S
C1349 H1337 0.959 . S
C1349 C1347 1.561 . S
C1350 C1347 1.526 . S
C1350 C1351 1.396 . S
C1350 C1355 1.390 . S
C1351 C1345 1.465 . S
C1351 C1350 1.396 . S
C1351 C1352 1.399 . S
C1352 H1338 0.929 . S
C1352 C1351 1.399 . S
C1352 C1353 1.385 . S
C1353 H1339 0.931 . S
C1353 C1352 1.385 . S
C1353 C1354 1.389 . S
C1354 C1353 1.389 . S
C1354 C1355 1.387 . S
C1355 H1340 0.930 . S
C1355 C1350 1.390 . S
C1355 C1354 1.387 . S
H1356 C1368 0.930 . S
H1357 C1370 0.930 . S
H1358 C1371 0.930 . S
H1359 C1375 0.959 . S
H1360 C1375 0.959 . S
H1361 C1375 0.961 . S
H1362 C1376 0.960 . S
H1363 C1376 0.961 . S
H1364 C1376 0.959 . S
H1365 C1379 0.929 . S
H1366 C1380 0.931 . S
H1367 C1382 0.930 . S
C1368 H1356 0.930 . S
C1368 C1369 1.399 . S
C1368 C1373 1.399 . S
C1369 C1368 1.399 . S
C1369 C1370 1.376 . S
C1370 H1357 0.930 . S
C1370 C1369 1.376 . S
C1370 C1371 1.388 . S
C1371 H1358 0.930 . S
C1371 C1370 1.388 . S
C1371 C1372 1.390 . S
C1372 C1371 1.390 . S
C1372 C1373 1.394 . S
C1372 C1378 1.465 . S
C1373 C1368 1.399 . S
C1373 C1372 1.394 . S
C1373 C1374 1.516 . S
C1374 C1373 1.516 . S
C1374 C1375 1.502 . S
C1374 C1376 1.561 . S
C1374 C1377 1.526 . S
C1375 H1359 0.959 . S
C1375 H1360 0.959 . S
C1375 H1361 0.961 . S
C1375 C1374 1.502 . S
C1376 H1362 0.960 . S
C1376 H1363 0.961 . S
C1376 H1364 0.959 . S
C1376 C1374 1.561 . S
C1377 C1374 1.526 . S
C1377 C1378 1.396 . S
C1377 C1382 1.390 . S
C1378 C1372 1.465 . S
C1378 C1377 1.396 . S
C1378 C1379 1.399 . S
C1379 H1365 0.929 . S
C1379 C1378 1.399 . S
C1379 C1380 1.385 . S
C1380 H1366 0.931 . S
C1380 C1379 1.385 . S
C1380 C1381 1.389 . S
C1381 C1380 1.389 . S
C1381 C1382 1.387 . S
C1382 H1367 0.930 . S
C1382 C1377 1.390 . S
C1382 C1381 1.387 . S
H1383 C1395 0.930 . S
H1384 C1397 0.930 . S
H1385 C1398 0.930 . S
H1386 C1402 0.959 1_556 S
H1387 C1402 0.959 . S
H1388 C1402 0.961 . S
H1389 C1403 0.960 . S
H1390 C1403 0.961 . S
H1391 C1403 0.959 1_556 S
H1392 C1406 0.929 . S
H1393 C1407 0.931 . S
H1394 C1409 0.930 . S
C1395 H1383 0.930 . S
C1395 C1396 1.399 . S
C1395 C1400 1.399 . S
C1396 C1395 1.399 . S
C1396 C1397 1.376 . S
C1397 H1384 0.930 . S
C1397 C1396 1.376 . S
C1397 C1398 1.388 . S
C1398 H1385 0.930 . S
C1398 C1397 1.388 . S
C1398 C1399 1.390 . S
C1399 C1398 1.390 . S
C1399 C1400 1.394 . S
C1399 C1405 1.465 . S
C1400 C1395 1.399 . S
C1400 C1399 1.394 . S
C1400 C1401 1.516 . S
C1401 C1400 1.516 . S
C1401 C1402 1.502 1_556 S
C1401 C1403 1.561 1_556 S
C1401 C1404 1.526 . S
C1402 H1386 0.959 1_554 S
C1402 H1387 0.959 . S
C1402 H1388 0.961 . S
C1402 C1401 1.502 1_554 S
C1403 H1389 0.960 . S
C1403 H1390 0.961 . S
C1403 H1391 0.959 1_554 S
C1403 C1401 1.561 1_554 S
C1404 C1401 1.526 . S
C1404 C1405 1.396 . S
C1404 C1409 1.390 1_556 S
C1405 C1399 1.465 . S
C1405 C1404 1.396 . S
C1405 C1406 1.399 . S
C1406 H1392 0.929 . S
C1406 C1405 1.399 . S
C1406 C1407 1.385 . S
C1407 H1393 0.931 . S
C1407 C1406 1.385 . S
C1407 C1408 1.389 . S
C1408 C1407 1.389 . S
C1408 C1409 1.387 1_556 S
C1409 H1394 0.930 . S
C1409 C1404 1.390 1_554 S
C1409 C1408 1.387 1_554 S
H1410 C1422 0.930 . S
H1411 C1424 0.930 . S
H1412 C1425 0.930 . S
H1413 C1429 0.959 . S
H1414 C1429 0.959 . S
H1415 C1429 0.961 . S
H1416 C1430 0.960 . S
H1417 C1430 0.961 . S
H1418 C1430 0.959 . S
H1419 C1433 0.929 1_554 S
H1420 C1434 0.931 1_554 S
H1421 C1436 0.930 . S
C1422 H1410 0.930 . S
C1422 C1423 1.399 . S
C1422 C1427 1.399 . S
C1423 C1422 1.399 . S
C1423 C1424 1.376 . S
C1424 H1411 0.930 . S
C1424 C1423 1.376 . S
C1424 C1425 1.388 . S
C1425 H1412 0.930 . S
C1425 C1424 1.388 . S
C1425 C1426 1.390 . S
C1426 C1425 1.390 . S
C1426 C1427 1.394 . S
C1426 C1432 1.465 . S
C1427 C1422 1.399 . S
C1427 C1426 1.394 . S
C1427 C1428 1.516 . S
C1428 C1427 1.516 . S
C1428 C1429 1.502 . S
C1428 C1430 1.561 . S
C1428 C1431 1.526 . S
C1429 H1413 0.959 . S
C1429 H1414 0.959 . S
C1429 H1415 0.961 . S
C1429 C1428 1.502 . S
C1430 H1416 0.960 . S
C1430 H1417 0.961 . S
C1430 H1418 0.959 . S
C1430 C1428 1.561 . S
C1431 C1428 1.526 . S
C1431 C1432 1.396 . S
C1431 C1436 1.390 . S
C1432 C1426 1.465 . S
C1432 C1431 1.396 . S
C1432 C1433 1.399 . S
C1433 H1419 0.929 1_556 S
C1433 C1432 1.399 . S
C1433 C1434 1.385 . S
C1434 H1420 0.931 1_556 S
C1434 C1433 1.385 . S
C1434 C1435 1.389 . S
C1435 C1434 1.389 . S
C1435 C1436 1.387 . S
C1436 H1421 0.930 . S
C1436 C1431 1.390 . S
C1436 C1435 1.387 . S
H1437 C1449 0.930 . S
H1438 C1451 0.930 . S
H1439 C1452 0.930 . S
H1440 C1456 0.959 . S
H1441 C1456 0.959 . S
H1442 C1456 0.961 . S
H1443 C1457 0.960 . S
H1444 C1457 0.961 . S
H1445 C1457 0.959 . S
H1446 C1460 0.929 . S
H1447 C1461 0.931 . S
H1448 C1463 0.930 . S
C1449 H1437 0.930 . S
C1449 C1450 1.399 . S
C1449 C1454 1.399 . S
C1450 C1449 1.399 . S
C1450 C1451 1.376 . S
C1451 H1438 0.930 . S
C1451 C1450 1.376 . S
C1451 C1452 1.388 . S
C1452 H1439 0.930 . S
C1452 C1451 1.388 . S
C1452 C1453 1.390 . S
C1453 C1452 1.390 . S
C1453 C1454 1.394 . S
C1453 C1459 1.465 . S
C1454 C1449 1.399 . S
C1454 C1453 1.394 . S
C1454 C1455 1.516 . S
C1455 C1454 1.516 . S
C1455 C1456 1.502 . S
C1455 C1457 1.561 . S
C1455 C1458 1.526 . S
C1456 H1440 0.959 . S
C1456 H1441 0.959 . S
C1456 H1442 0.961 . S
C1456 C1455 1.502 . S
C1457 H1443 0.960 . S
C1457 H1444 0.961 . S
C1457 H1445 0.959 . S
C1457 C1455 1.561 . S
C1458 C1455 1.526 . S
C1458 C1459 1.396 . S
C1458 C1463 1.390 . S
C1459 C1453 1.465 . S
C1459 C1458 1.396 . S
C1459 C1460 1.399 . S
C1460 H1446 0.929 . S
C1460 C1459 1.399 . S
C1460 C1461 1.385 . S
C1461 H1447 0.931 . S
C1461 C1460 1.385 . S
C1461 C1462 1.389 . S
C1462 C1461 1.389 . S
C1462 C1463 1.387 . S
C1463 H1448 0.930 . S
C1463 C1458 1.390 . S
C1463 C1462 1.387 . S
H1464 C1476 0.930 . S
H1465 C1478 0.930 . S
H1466 C1479 0.930 . S
H1467 C1483 0.959 . S
H1468 C1483 0.959 . S
H1469 C1483 0.961 . S
H1470 C1484 0.960 . S
H1471 C1484 0.961 . S
H1472 C1484 0.959 . S
H1473 C1487 0.929 . S
H1474 C1488 0.931 . S
H1475 C1490 0.930 . S
C1476 H1464 0.930 . S
C1476 C1477 1.399 . S
C1476 C1481 1.399 . S
C1477 C1476 1.399 . S
C1477 C1478 1.376 . S
C1478 H1465 0.930 . S
C1478 C1477 1.376 . S
C1478 C1479 1.388 . S
C1479 H1466 0.930 . S
C1479 C1478 1.388 . S
C1479 C1480 1.390 . S
C1480 C1479 1.390 . S
C1480 C1481 1.394 . S
C1480 C1486 1.465 . S
C1481 C1476 1.399 . S
C1481 C1480 1.394 . S
C1481 C1482 1.516 . S
C1482 C1481 1.516 . S
C1482 C1483 1.502 . S
C1482 C1484 1.561 . S
C1482 C1485 1.526 . S
C1483 H1467 0.959 . S
C1483 H1468 0.959 . S
C1483 H1469 0.961 . S
C1483 C1482 1.502 . S
C1484 H1470 0.960 . S
C1484 H1471 0.961 . S
C1484 H1472 0.959 . S
C1484 C1482 1.561 . S
C1485 C1482 1.526 . S
C1485 C1486 1.396 . S
C1485 C1490 1.390 . S
C1486 C1480 1.465 . S
C1486 C1485 1.396 . S
C1486 C1487 1.399 . S
C1487 H1473 0.929 . S
C1487 C1486 1.399 . S
C1487 C1488 1.385 . S
C1488 H1474 0.931 . S
C1488 C1487 1.385 . S
C1488 C1489 1.389 . S
C1489 C1488 1.389 . S
C1489 C1490 1.387 . S
C1490 H1475 0.930 . S
C1490 C1485 1.390 . S
C1490 C1489 1.387 . S
H1491 C1503 0.930 . S
H1492 C1505 0.930 . S
H1493 C1506 0.930 . S
H1494 C1510 0.959 . S
H1495 C1510 0.959 . S
H1496 C1510 0.961 . S
H1497 C1511 0.960 . S
H1498 C1511 0.961 . S
H1499 C1511 0.959 . S
H1500 C1514 0.929 . S
H1501 C1515 0.931 . S
H1502 C1517 0.930 . S
C1503 H1491 0.930 . S
C1503 C1504 1.399 . S
C1503 C1508 1.399 . S
C1504 C1503 1.399 . S
C1504 C1505 1.376 . S
C1505 H1492 0.930 . S
C1505 C1504 1.376 . S
C1505 C1506 1.388 . S
C1506 H1493 0.930 . S
C1506 C1505 1.388 . S
C1506 C1507 1.390 . S
C1507 C1506 1.390 . S
C1507 C1508 1.394 . S
C1507 C1513 1.465 . S
C1508 C1503 1.399 . S
C1508 C1507 1.394 . S
C1508 C1509 1.516 . S
C1509 C1508 1.516 . S
C1509 C1510 1.502 . S
C1509 C1511 1.561 . S
C1509 C1512 1.526 . S
C1510 H1494 0.959 . S
C1510 H1495 0.959 . S
C1510 H1496 0.961 . S
C1510 C1509 1.502 . S
C1511 H1497 0.960 . S
C1511 H1498 0.961 . S
C1511 H1499 0.959 . S
C1511 C1509 1.561 . S
C1512 C1509 1.526 . S
C1512 C1513 1.396 . S
C1512 C1517 1.390 . S
C1513 C1507 1.465 . S
C1513 C1512 1.396 . S
C1513 C1514 1.399 . S
C1514 H1500 0.929 . S
C1514 C1513 1.399 . S
C1514 C1515 1.385 . S
C1515 H1501 0.931 . S
C1515 C1514 1.385 . S
C1515 C1516 1.389 . S
C1516 C1515 1.389 . S
C1516 C1517 1.387 . S
C1517 H1502 0.930 . S
C1517 C1512 1.390 . S
C1517 C1516 1.387 . S
H1518 C1530 0.930 . S
H1519 C1532 0.930 . S
H1520 C1533 0.930 . S
H1521 C1537 0.959 . S
H1522 C1537 0.959 . S
H1523 C1537 0.961 . S
H1524 C1538 0.960 . S
H1525 C1538 0.961 . S
H1526 C1538 0.959 . S
H1527 C1541 0.929 . S
H1528 C1542 0.931 . S
H1529 C1544 0.930 . S
C1530 H1518 0.930 . S
C1530 C1531 1.399 . S
C1530 C1535 1.399 . S
C1531 C1530 1.399 . S
C1531 C1532 1.376 . S
C1532 H1519 0.930 . S
C1532 C1531 1.376 . S
C1532 C1533 1.388 . S
C1533 H1520 0.930 . S
C1533 C1532 1.388 . S
C1533 C1534 1.390 . S
C1534 C1533 1.390 . S
C1534 C1535 1.394 . S
C1534 C1540 1.465 . S
C1535 C1530 1.399 . S
C1535 C1534 1.394 . S
C1535 C1536 1.516 . S
C1536 C1535 1.516 . S
C1536 C1537 1.502 . S
C1536 C1538 1.561 . S
C1536 C1539 1.526 . S
C1537 H1521 0.959 . S
C1537 H1522 0.959 . S
C1537 H1523 0.961 . S
C1537 C1536 1.502 . S
C1538 H1524 0.960 . S
C1538 H1525 0.961 . S
C1538 H1526 0.959 . S
C1538 C1536 1.561 . S
C1539 C1536 1.526 . S
C1539 C1540 1.396 . S
C1539 C1544 1.390 . S
C1540 C1534 1.465 . S
C1540 C1539 1.396 . S
C1540 C1541 1.399 . S
C1541 H1527 0.929 . S
C1541 C1540 1.399 . S
C1541 C1542 1.385 . S
C1542 H1528 0.931 . S
C1542 C1541 1.385 . S
C1542 C1543 1.389 . S
C1543 C1542 1.389 . S
C1543 C1544 1.387 . S
C1544 H1529 0.930 . S
C1544 C1539 1.390 . S
C1544 C1543 1.387 . S
H1545 C1557 0.930 . S
H1546 C1559 0.930 . S
H1547 C1560 0.930 . S
H1548 C1564 0.959 . S
H1549 C1564 0.959 . S
H1550 C1564 0.961 . S
H1551 C1565 0.960 . S
H1552 C1565 0.961 . S
H1553 C1565 0.959 . S
H1554 C1568 0.929 . S
H1555 C1569 0.931 . S
H1556 C1571 0.930 . S
C1557 H1545 0.930 . S
C1557 C1558 1.399 . S
C1557 C1562 1.399 . S
C1558 C1557 1.399 . S
C1558 C1559 1.376 . S
C1559 H1546 0.930 . S
C1559 C1558 1.376 . S
C1559 C1560 1.388 . S
C1560 H1547 0.930 . S
C1560 C1559 1.388 . S
C1560 C1561 1.390 . S
C1561 C1560 1.390 . S
C1561 C1562 1.394 . S
C1561 C1567 1.465 . S
C1562 C1557 1.399 . S
C1562 C1561 1.394 . S
C1562 C1563 1.516 . S
C1563 C1562 1.516 . S
C1563 C1564 1.502 . S
C1563 C1565 1.561 . S
C1563 C1566 1.526 . S
C1564 H1548 0.959 . S
C1564 H1549 0.959 . S
C1564 H1550 0.961 . S
C1564 C1563 1.502 . S
C1565 H1551 0.960 . S
C1565 H1552 0.961 . S
C1565 H1553 0.959 . S
C1565 C1563 1.561 . S
C1566 C1563 1.526 . S
C1566 C1567 1.396 . S
C1566 C1571 1.390 . S
C1567 C1561 1.465 . S
C1567 C1566 1.396 . S
C1567 C1568 1.399 . S
C1568 H1554 0.929 . S
C1568 C1567 1.399 . S
C1568 C1569 1.385 . S
C1569 H1555 0.931 . S
C1569 C1568 1.385 . S
C1569 C1570 1.389 . S
C1570 C1569 1.389 . S
C1570 C1571 1.387 . S
C1571 H1556 0.930 . S
C1571 C1566 1.390 . S
C1571 C1570 1.387 . S
H1572 C1584 0.930 . S
H1573 C1586 0.930 . S
H1574 C1587 0.930 . S
H1575 C1591 0.959 . S
H1576 C1591 0.959 . S
H1577 C1591 0.961 . S
H1578 C1592 0.960 . S
H1579 C1592 0.961 . S
H1580 C1592 0.959 . S
H1581 C1595 0.929 . S
H1582 C1596 0.946 . S
H1583 C1598 0.930 . S
C1584 H1572 0.930 . S
C1584 C1585 1.399 . S
C1584 C1589 1.399 . S
C1585 C1584 1.399 . S
C1585 C1586 1.376 . S
C1586 H1573 0.930 . S
C1586 C1585 1.376 . S
C1586 C1587 1.388 . S
C1587 H1574 0.930 . S
C1587 C1586 1.388 . S
C1587 C1588 1.390 . S
C1588 C1587 1.390 . S
C1588 C1589 1.394 . S
C1588 C1594 1.465 . S
C1589 C1584 1.399 . S
C1589 C1588 1.394 . S
C1589 C1590 1.516 . S
C1590 C1589 1.516 . S
C1590 C1591 1.502 . S
C1590 C1592 1.561 . S
C1590 C1593 1.526 . S
C1591 H1575 0.959 . S
C1591 H1576 0.959 . S
C1591 H1577 0.961 . S
C1591 C1590 1.502 . S
C1592 H1578 0.960 . S
C1592 H1579 0.961 . S
C1592 H1580 0.959 . S
C1592 C1590 1.561 . S
C1593 C1590 1.526 . S
C1593 C1594 1.396 . S
C1593 C1598 1.390 . S
C1594 C1588 1.465 . S
C1594 C1593 1.396 . S
C1594 C1595 1.399 . S
C1595 H1581 0.929 . S
C1595 C1594 1.399 . S
C1595 C1596 1.385 . S
C1596 H1582 0.946 . S
C1596 C1595 1.385 . S
C1596 C1597 1.389 . S
C1597 C1596 1.389 . S
C1597 C1598 1.387 . S
C1598 H1583 0.930 . S
C1598 C1593 1.390 . S
C1598 C1597 1.387 . S
H1599 C1611 0.930 . S
H1600 C1613 0.930 . S
H1601 C1614 0.930 . S
H1602 C1618 0.959 1_556 S
H1603 C1618 0.959 . S
H1604 C1618 0.961 . S
H1605 C1619 0.960 . S
H1606 C1619 0.961 . S
H1607 C1619 0.959 1_556 S
H1608 C1622 0.929 . S
H1609 C1623 0.931 . S
H1610 C1625 0.930 1_554 S
C1611 H1599 0.930 . S
C1611 C1612 1.399 . S
C1611 C1616 1.399 . S
C1612 C1611 1.399 . S
C1612 C1613 1.376 . S
C1613 H1600 0.930 . S
C1613 C1612 1.376 . S
C1613 C1614 1.388 . S
C1614 H1601 0.930 . S
C1614 C1613 1.388 . S
C1614 C1615 1.390 . S
C1615 C1614 1.390 . S
C1615 C1616 1.394 . S
C1615 C1621 1.465 . S
C1616 C1611 1.399 . S
C1616 C1615 1.394 . S
C1616 C1617 1.516 . S
C1617 C1616 1.516 . S
C1617 C1618 1.502 1_556 S
C1617 C1619 1.561 1_556 S
C1617 C1620 1.526 . S
C1618 H1602 0.959 1_554 S
C1618 H1603 0.959 . S
C1618 H1604 0.961 . S
C1618 C1617 1.502 1_554 S
C1619 H1605 0.960 . S
C1619 H1606 0.961 . S
C1619 H1607 0.959 1_554 S
C1619 C1617 1.561 1_554 S
C1620 C1617 1.526 . S
C1620 C1621 1.396 . S
C1620 C1625 1.390 . S
C1621 C1615 1.465 . S
C1621 C1620 1.396 . S
C1621 C1622 1.399 . S
C1622 H1608 0.929 . S
C1622 C1621 1.399 . S
C1622 C1623 1.385 . S
C1623 H1609 0.931 . S
C1623 C1622 1.385 . S
C1623 C1624 1.389 . S
C1624 C1623 1.389 . S
C1624 C1625 1.387 . S
C1625 H1610 0.930 1_556 S
C1625 C1620 1.390 . S
C1625 C1624 1.387 . S
H1626 C1638 0.930 . S
H1627 C1640 0.930 . S
H1628 C1641 0.930 . S
H1629 C1645 0.959 . S
H1630 C1645 0.959 . S
H1631 C1645 0.961 . S
H1632 C1646 0.960 . S
H1633 C1646 0.961 . S
H1634 C1646 0.959 . S
H1635 C1649 0.929 . S
H1636 C1650 0.931 . S
H1637 C1652 0.930 . S
C1638 H1626 0.930 . S
C1638 C1639 1.399 . S
C1638 C1643 1.399 . S
C1639 C1638 1.399 . S
C1639 C1640 1.376 . S
C1640 H1627 0.930 . S
C1640 C1639 1.376 . S
C1640 C1641 1.388 . S
C1641 H1628 0.930 . S
C1641 C1640 1.388 . S
C1641 C1642 1.390 . S
C1642 C1641 1.390 . S
C1642 C1643 1.394 . S
C1642 C1648 1.465 . S
C1643 C1638 1.399 . S
C1643 C1642 1.394 . S
C1643 C1644 1.516 . S
C1644 C1643 1.516 . S
C1644 C1645 1.502 . S
C1644 C1646 1.561 . S
C1644 C1647 1.526 . S
C1645 H1629 0.959 . S
C1645 H1630 0.959 . S
C1645 H1631 0.961 . S
C1645 C1644 1.502 . S
C1646 H1632 0.960 . S
C1646 H1633 0.961 . S
C1646 H1634 0.959 . S
C1646 C1644 1.561 . S
C1647 C1644 1.526 . S
C1647 C1648 1.396 . S
C1647 C1652 1.390 . S
C1648 C1642 1.465 . S
C1648 C1647 1.396 . S
C1648 C1649 1.399 . S
C1649 H1635 0.929 . S
C1649 C1648 1.399 . S
C1649 C1650 1.385 . S
C1650 H1636 0.931 . S
C1650 C1649 1.385 . S
C1650 C1651 1.389 . S
C1651 C1650 1.389 . S
C1651 C1652 1.387 . S
C1652 H1637 0.930 . S
C1652 C1647 1.390 . S
C1652 C1651 1.387 . S
H1653 C1665 0.930 . S
H1654 C1667 0.930 . S
H1655 C1668 0.930 . S
H1656 C1672 0.959 . S
H1657 C1672 0.959 . S
H1658 C1672 0.961 . S
H1659 C1673 0.960 . S
H1660 C1673 0.961 . S
H1661 C1673 0.959 . S
H1662 C1676 0.929 . S
H1663 C1677 0.931 . S
H1664 C1679 0.930 . S
C1665 H1653 0.930 . S
C1665 C1666 1.399 . S
C1665 C1670 1.399 . S
C1666 C1665 1.399 . S
C1666 C1667 1.376 . S
C1667 H1654 0.930 . S
C1667 C1666 1.376 . S
C1667 C1668 1.388 . S
C1668 H1655 0.930 . S
C1668 C1667 1.388 . S
C1668 C1669 1.390 . S
C1669 C1668 1.390 . S
C1669 C1670 1.394 . S
C1669 C1675 1.465 . S
C1670 C1665 1.399 . S
C1670 C1669 1.394 . S
C1670 C1671 1.516 . S
C1671 C1670 1.516 . S
C1671 C1672 1.502 . S
C1671 C1673 1.561 . S
C1671 C1674 1.526 . S
C1672 H1656 0.959 . S
C1672 H1657 0.959 . S
C1672 H1658 0.961 . S
C1672 C1671 1.502 . S
C1673 H1659 0.960 . S
C1673 H1660 0.961 . S
C1673 H1661 0.959 . S
C1673 C1671 1.561 . S
C1674 C1671 1.526 . S
C1674 C1675 1.396 . S
C1674 C1679 1.390 . S
C1675 C1669 1.465 . S
C1675 C1674 1.396 . S
C1675 C1676 1.399 . S
C1676 H1662 0.929 . S
C1676 C1675 1.399 . S
C1676 C1677 1.385 . S
C1677 H1663 0.931 . S
C1677 C1676 1.385 . S
C1677 C1678 1.389 . S
C1678 C1677 1.389 . S
C1678 C1679 1.387 . S
C1679 H1664 0.930 . S
C1679 C1674 1.390 . S
C1679 C1678 1.387 . S
H1680 C1692 0.930 . S
H1681 C1694 0.930 . S
H1682 C1695 0.930 . S
H1683 C1699 0.959 . S
H1684 C1699 0.959 . S
H1685 C1699 0.961 . S
H1686 C1700 0.960 . S
H1687 C1700 0.961 . S
H1688 C1700 0.959 . S
H1689 C1703 0.929 . S
H1690 C1704 0.931 . S
H1691 C1706 0.930 . S
C1692 H1680 0.930 . S
C1692 C1693 1.399 . S
C1692 C1697 1.399 . S
C1693 C1692 1.399 . S
C1693 C1694 1.376 . S
C1694 H1681 0.930 . S
C1694 C1693 1.376 . S
C1694 C1695 1.388 . S
C1695 H1682 0.930 . S
C1695 C1694 1.388 . S
C1695 C1696 1.390 . S
C1696 C1695 1.390 . S
C1696 C1697 1.394 . S
C1696 C1702 1.465 . S
C1697 C1692 1.399 . S
C1697 C1696 1.394 . S
C1697 C1698 1.516 . S
C1698 C1697 1.516 . S
C1698 C1699 1.502 . S
C1698 C1700 1.561 . S
C1698 C1701 1.526 . S
C1699 H1683 0.959 . S
C1699 H1684 0.959 . S
C1699 H1685 0.961 . S
C1699 C1698 1.502 . S
C1700 H1686 0.960 . S
C1700 H1687 0.961 . S
C1700 H1688 0.959 . S
C1700 C1698 1.561 . S
C1701 C1698 1.526 . S
C1701 C1702 1.396 . S
C1701 C1706 1.390 . S
C1702 C1696 1.465 . S
C1702 C1701 1.396 . S
C1702 C1703 1.399 . S
C1703 H1689 0.929 . S
C1703 C1702 1.399 . S
C1703 C1704 1.385 . S
C1704 H1690 0.931 . S
C1704 C1703 1.385 . S
C1704 C1705 1.389 . S
C1705 C1704 1.389 . S
C1705 C1706 1.387 . S
C1706 H1691 0.930 . S
C1706 C1701 1.390 . S
C1706 C1705 1.387 . S
H1707 C1719 0.930 . S
H1708 C1721 0.930 . S
H1709 C1722 0.930 . S
H1710 C1726 0.959 . S
H1711 C1726 0.959 . S
H1712 C1726 0.961 . S
H1713 C1727 0.960 . S
H1714 C1727 0.961 . S
H1715 C1727 0.959 . S
H1716 C1730 0.929 . S
H1717 C1731 0.931 . S
H1718 C1733 0.930 . S
C1719 H1707 0.930 . S
C1719 C1720 1.399 . S
C1719 C1724 1.399 . S
C1720 C1719 1.399 . S
C1720 C1721 1.376 . S
C1721 H1708 0.930 . S
C1721 C1720 1.376 . S
C1721 C1722 1.388 . S
C1722 H1709 0.930 . S
C1722 C1721 1.388 . S
C1722 C1723 1.390 . S
C1723 C1722 1.390 . S
C1723 C1724 1.394 . S
C1723 C1729 1.465 . S
C1724 C1719 1.399 . S
C1724 C1723 1.394 . S
C1724 C1725 1.516 . S
C1725 C1724 1.516 . S
C1725 C1726 1.502 . S
C1725 C1727 1.561 . S
C1725 C1728 1.526 . S
C1726 H1710 0.959 . S
C1726 H1711 0.959 . S
C1726 H1712 0.961 . S
C1726 C1725 1.502 . S
C1727 H1713 0.960 . S
C1727 H1714 0.961 . S
C1727 H1715 0.959 . S
C1727 C1725 1.561 . S
C1728 C1725 1.526 . S
C1728 C1729 1.396 . S
C1728 C1733 1.390 . S
C1729 C1723 1.465 . S
C1729 C1728 1.396 . S
C1729 C1730 1.399 . S
C1730 H1716 0.929 . S
C1730 C1729 1.399 . S
C1730 C1731 1.385 . S
C1731 H1717 0.931 . S
C1731 C1730 1.385 . S
C1731 C1732 1.389 . S
C1732 C1731 1.389 . S
C1732 C1733 1.387 . S
C1733 H1718 0.930 . S
C1733 C1728 1.390 . S
C1733 C1732 1.387 . S
H1734 C1746 0.930 . S
H1735 C1748 0.930 . S
H1736 C1749 0.930 . S
H1737 C1753 0.959 . S
H1738 C1753 0.959 . S
H1739 C1753 0.961 . S
H1740 C1754 0.960 . S
H1741 C1754 0.961 . S
H1742 C1754 0.959 . S
H1743 C1757 0.929 . S
H1744 C1758 0.931 . S
H1745 C1760 0.930 . S
C1746 H1734 0.930 . S
C1746 C1747 1.399 . S
C1746 C1751 1.399 . S
C1747 C1746 1.399 . S
C1747 C1748 1.376 . S
C1748 H1735 0.930 . S
C1748 C1747 1.376 . S
C1748 C1749 1.388 . S
C1749 H1736 0.930 . S
C1749 C1748 1.388 . S
C1749 C1750 1.390 . S
C1750 C1749 1.390 . S
C1750 C1751 1.394 . S
C1750 C1756 1.465 . S
C1751 C1746 1.399 . S
C1751 C1750 1.394 . S
C1751 C1752 1.516 . S
C1752 C1751 1.516 . S
C1752 C1753 1.502 . S
C1752 C1754 1.561 . S
C1752 C1755 1.526 . S
C1753 H1737 0.959 . S
C1753 H1738 0.959 . S
C1753 H1739 0.961 . S
C1753 C1752 1.502 . S
C1754 H1740 0.960 . S
C1754 H1741 0.961 . S
C1754 H1742 0.959 . S
C1754 C1752 1.561 . S
C1755 C1752 1.526 . S
C1755 C1756 1.396 . S
C1755 C1760 1.390 . S
C1756 C1750 1.465 . S
C1756 C1755 1.396 . S
C1756 C1757 1.399 . S
C1757 H1743 0.929 . S
C1757 C1756 1.399 . S
C1757 C1758 1.385 . S
C1758 H1744 0.931 . S
C1758 C1757 1.385 . S
C1758 C1759 1.389 . S
C1759 C1758 1.389 . S
C1759 C1760 1.387 . S
C1760 H1745 0.930 . S
C1760 C1755 1.390 . S
C1760 C1759 1.387 . S
H1761 C1773 0.930 . S
H1762 C1775 0.930 . S
H1763 C1776 0.930 . S
H1764 C1780 0.959 . S
H1765 C1780 0.959 . S
H1766 C1780 0.961 . S
H1767 C1781 0.960 . S
H1768 C1781 0.961 . S
H1769 C1781 0.959 . S
H1770 C1784 0.929 . S
H1771 C1785 0.931 . S
H1772 C1787 0.930 . S
C1773 H1761 0.930 . S
C1773 C1774 1.399 . S
C1773 C1778 1.399 . S
C1774 C1773 1.399 . S
C1774 C1775 1.376 . S
C1775 H1762 0.930 . S
C1775 C1774 1.376 . S
C1775 C1776 1.388 . S
C1776 H1763 0.930 . S
C1776 C1775 1.388 . S
C1776 C1777 1.390 . S
C1777 C1776 1.390 . S
C1777 C1778 1.394 . S
C1777 C1783 1.465 . S
C1778 C1773 1.399 . S
C1778 C1777 1.394 . S
C1778 C1779 1.516 . S
C1779 C1778 1.516 . S
C1779 C1780 1.502 . S
C1779 C1781 1.561 . S
C1779 C1782 1.526 . S
C1780 H1764 0.959 . S
C1780 H1765 0.959 . S
C1780 H1766 0.961 . S
C1780 C1779 1.502 . S
C1781 H1767 0.960 . S
C1781 H1768 0.961 . S
C1781 H1769 0.959 . S
C1781 C1779 1.561 . S
C1782 C1779 1.526 . S
C1782 C1783 1.396 . S
C1782 C1787 1.390 . S
C1783 C1777 1.465 . S
C1783 C1782 1.396 . S
C1783 C1784 1.399 . S
C1784 H1770 0.929 . S
C1784 C1783 1.399 . S
C1784 C1785 1.385 . S
C1785 H1771 0.931 . S
C1785 C1784 1.385 . S
C1785 C1786 1.389 . S
C1786 C1785 1.389 . S
C1786 C1787 1.387 . S
C1787 H1772 0.930 . S
C1787 C1782 1.390 . S
C1787 C1786 1.387 . S
H1788 C1800 0.930 . S
H1789 C1802 0.930 . S
H1790 C1803 0.930 . S
H1791 C1807 0.959 . S
H1792 C1807 0.959 . S
H1793 C1807 0.961 . S
H1794 C1808 0.960 . S
H1795 C1808 0.961 . S
H1796 C1808 0.959 . S
H1797 C1811 0.929 . S
H1798 C1812 0.931 . S
H1799 C1814 0.930 . S
C1800 H1788 0.930 . S
C1800 C1801 1.399 . S
C1800 C1805 1.399 . S
C1801 C1800 1.399 . S
C1801 C1802 1.376 . S
C1802 H1789 0.930 . S
C1802 C1801 1.376 . S
C1802 C1803 1.388 . S
C1803 H1790 0.930 . S
C1803 C1802 1.388 . S
C1803 C1804 1.390 . S
C1804 C1803 1.390 . S
C1804 C1805 1.394 . S
C1804 C1810 1.465 . S
C1805 C1800 1.399 . S
C1805 C1804 1.394 . S
C1805 C1806 1.516 . S
C1806 C1805 1.516 . S
C1806 C1807 1.502 . S
C1806 C1808 1.561 . S
C1806 C1809 1.526 . S
C1807 H1791 0.959 . S
C1807 H1792 0.959 . S
C1807 H1793 0.961 . S
C1807 C1806 1.502 . S
C1808 H1794 0.960 . S
C1808 H1795 0.961 . S
C1808 H1796 0.959 . S
C1808 C1806 1.561 . S
C1809 C1806 1.526 . S
C1809 C1810 1.396 . S
C1809 C1814 1.390 . S
C1810 C1804 1.465 . S
C1810 C1809 1.396 . S
C1810 C1811 1.399 . S
C1811 H1797 0.929 . S
C1811 C1810 1.399 . S
C1811 C1812 1.385 . S
C1812 H1798 0.931 . S
C1812 C1811 1.385 . S
C1812 C1813 1.389 . S
C1813 C1812 1.389 . S
C1813 C1814 1.387 . S
C1814 H1799 0.930 . S
C1814 C1809 1.390 . S
C1814 C1813 1.387 . S
H1815 C1827 0.930 . S
H1816 C1829 0.930 . S
H1817 C1830 0.930 . S
H1818 C1834 0.959 . S
H1819 C1834 0.959 . S
H1820 C1834 0.961 . S
H1821 C1835 0.960 . S
H1822 C1835 0.961 . S
H1823 C1835 0.959 . S
H1824 C1838 0.929 . S
H1825 C1839 0.931 . S
H1826 C1841 0.930 . S
C1827 H1815 0.930 . S
C1827 C1828 1.399 . S
C1827 C1832 1.399 . S
C1828 C1827 1.399 . S
C1828 C1829 1.376 . S
C1829 H1816 0.930 . S
C1829 C1828 1.376 . S
C1829 C1830 1.388 . S
C1830 H1817 0.930 . S
C1830 C1829 1.388 . S
C1830 C1831 1.390 . S
C1831 C1830 1.390 . S
C1831 C1832 1.394 . S
C1831 C1837 1.465 . S
C1832 C1827 1.399 . S
C1832 C1831 1.394 . S
C1832 C1833 1.516 . S
C1833 C1832 1.516 . S
C1833 C1834 1.502 . S
C1833 C1835 1.561 . S
C1833 C1836 1.526 . S
C1834 H1818 0.959 . S
C1834 H1819 0.959 . S
C1834 H1820 0.961 . S
C1834 C1833 1.502 . S
C1835 H1821 0.960 . S
C1835 H1822 0.961 . S
C1835 H1823 0.959 . S
C1835 C1833 1.561 . S
C1836 C1833 1.526 . S
C1836 C1837 1.396 . S
C1836 C1841 1.390 . S
C1837 C1831 1.465 . S
C1837 C1836 1.396 . S
C1837 C1838 1.399 . S
C1838 H1824 0.929 . S
C1838 C1837 1.399 . S
C1838 C1839 1.385 . S
C1839 H1825 0.931 . S
C1839 C1838 1.385 . S
C1839 C1840 1.389 . S
C1840 C1839 1.389 . S
C1840 C1841 1.387 . S
C1841 H1826 0.930 . S
C1841 C1836 1.390 . S
C1841 C1840 1.387 . S
H1842 C1854 0.930 . S
H1843 C1856 0.930 . S
H1844 C1857 0.930 . S
H1845 C1861 0.959 . S
H1846 C1861 0.959 . S
H1847 C1861 0.961 . S
H1848 C1862 0.960 . S
H1849 C1862 0.961 . S
H1850 C1862 0.959 . S
H1851 C1865 0.929 . S
H1852 C1866 0.931 . S
H1853 C1868 0.930 . S
C1854 H1842 0.930 . S
C1854 C1855 1.399 . S
C1854 C1859 1.399 . S
C1855 C1854 1.399 . S
C1855 C1856 1.376 . S
C1856 H1843 0.930 . S
C1856 C1855 1.376 . S
C1856 C1857 1.388 . S
C1857 H1844 0.930 . S
C1857 C1856 1.388 . S
C1857 C1858 1.390 . S
C1858 C1857 1.390 . S
C1858 C1859 1.394 . S
C1858 C1864 1.465 . S
C1859 C1854 1.399 . S
C1859 C1858 1.394 . S
C1859 C1860 1.516 . S
C1860 C1859 1.516 . S
C1860 C1861 1.502 . S
C1860 C1862 1.561 . S
C1860 C1863 1.526 . S
C1861 H1845 0.959 . S
C1861 H1846 0.959 . S
C1861 H1847 0.961 . S
C1861 C1860 1.502 . S
C1862 H1848 0.960 . S
C1862 H1849 0.961 . S
C1862 H1850 0.959 . S
C1862 C1860 1.561 . S
C1863 C1860 1.526 . S
C1863 C1864 1.396 . S
C1863 C1868 1.390 . S
C1864 C1858 1.465 . S
C1864 C1863 1.396 . S
C1864 C1865 1.399 . S
C1865 H1851 0.929 . S
C1865 C1864 1.399 . S
C1865 C1866 1.385 . S
C1866 H1852 0.931 . S
C1866 C1865 1.385 . S
C1866 C1867 1.389 . S
C1867 C1866 1.389 . S
C1867 C1868 1.387 . S
C1868 H1853 0.930 . S
C1868 C1863 1.390 . S
C1868 C1867 1.387 . S
H1869 C1881 0.930 . S
H1870 C1883 0.930 . S
H1871 C1884 0.930 . S
H1872 C1888 0.959 . S
H1873 C1888 0.959 . S
H1874 C1888 0.961 . S
H1875 C1889 0.960 . S
H1876 C1889 0.961 . S
H1877 C1889 0.959 . S
H1878 C1892 0.929 . S
H1879 C1893 0.931 . S
H1880 C1895 0.930 . S
C1881 H1869 0.930 . S
C1881 C1882 1.399 . S
C1881 C1886 1.399 . S
C1882 C1881 1.399 . S
C1882 C1883 1.376 . S
C1883 H1870 0.930 . S
C1883 C1882 1.376 . S
C1883 C1884 1.388 . S
C1884 H1871 0.930 . S
C1884 C1883 1.388 . S
C1884 C1885 1.390 . S
C1885 C1884 1.390 . S
C1885 C1886 1.394 . S
C1885 C1891 1.465 . S
C1886 C1881 1.399 . S
C1886 C1885 1.394 . S
C1886 C1887 1.516 . S
C1887 C1886 1.516 . S
C1887 C1888 1.502 . S
C1887 C1889 1.561 . S
C1887 C1890 1.526 . S
C1888 H1872 0.959 . S
C1888 H1873 0.959 . S
C1888 H1874 0.961 . S
C1888 C1887 1.502 . S
C1889 H1875 0.960 . S
C1889 H1876 0.961 . S
C1889 H1877 0.959 . S
C1889 C1887 1.561 . S
C1890 C1887 1.526 . S
C1890 C1891 1.396 . S
C1890 C1895 1.390 . S
C1891 C1885 1.465 . S
C1891 C1890 1.396 . S
C1891 C1892 1.399 . S
C1892 H1878 0.929 . S
C1892 C1891 1.399 . S
C1892 C1893 1.385 . S
C1893 H1879 0.931 . S
C1893 C1892 1.385 . S
C1893 C1894 1.389 . S
C1894 C1893 1.389 . S
C1894 C1895 1.387 . S
C1895 H1880 0.930 . S
C1895 C1890 1.390 . S
C1895 C1894 1.387 . S
H1896 C1908 0.930 . S
H1897 C1910 0.930 . S
H1898 C1911 0.930 . S
H1899 C1915 0.959 . S
H1900 C1915 0.959 . S
H1901 C1915 0.961 . S
H1902 C1916 0.960 . S
H1903 C1916 0.961 . S
H1904 C1916 0.959 . S
H1905 C1919 0.929 . S
H1906 C1920 0.931 . S
H1907 C1922 0.930 . S
C1908 H1896 0.930 . S
C1908 C1909 1.399 . S
C1908 C1913 1.399 . S
C1909 C1908 1.399 . S
C1909 C1910 1.376 . S
C1910 H1897 0.930 . S
C1910 C1909 1.376 . S
C1910 C1911 1.388 . S
C1911 H1898 0.930 . S
C1911 C1910 1.388 . S
C1911 C1912 1.390 . S
C1912 C1911 1.390 . S
C1912 C1913 1.394 . S
C1912 C1918 1.465 . S
C1913 C1908 1.399 . S
C1913 C1912 1.394 . S
C1913 C1914 1.516 . S
C1914 C1913 1.516 . S
C1914 C1915 1.502 . S
C1914 C1916 1.561 . S
C1914 C1917 1.526 . S
C1915 H1899 0.959 . S
C1915 H1900 0.959 . S
C1915 H1901 0.961 . S
C1915 C1914 1.502 . S
C1916 H1902 0.960 . S
C1916 H1903 0.961 . S
C1916 H1904 0.959 . S
C1916 C1914 1.561 . S
C1917 C1914 1.526 . S
C1917 C1918 1.396 . S
C1917 C1922 1.390 . S
C1918 C1912 1.465 . S
C1918 C1917 1.396 . S
C1918 C1919 1.399 . S
C1919 H1905 0.929 . S
C1919 C1918 1.399 . S
C1919 C1920 1.385 . S
C1920 H1906 0.931 . S
C1920 C1919 1.385 . S
C1920 C1921 1.389 . S
C1921 C1920 1.389 . S
C1921 C1922 1.387 . S
C1922 H1907 0.930 . S
C1922 C1917 1.390 . S
C1922 C1921 1.387 . S
H1923 C1935 0.930 . S
H1924 C1937 0.930 . S
H1925 C1938 0.930 . S
H1926 C1942 0.959 . S
H1927 C1942 0.959 . S
H1928 C1942 0.961 . S
H1929 C1943 0.960 . S
H1930 C1943 0.961 . S
H1931 C1943 0.959 . S
H1932 C1946 0.929 . S
H1933 C1947 0.931 . S
H1934 C1949 0.930 . S
C1935 H1923 0.930 . S
C1935 C1936 1.399 . S
C1935 C1940 1.399 . S
C1936 C1935 1.399 . S
C1936 C1937 1.376 . S
C1937 H1924 0.930 . S
C1937 C1936 1.376 . S
C1937 C1938 1.388 . S
C1938 H1925 0.930 . S
C1938 C1937 1.388 . S
C1938 C1939 1.390 . S
C1939 C1938 1.390 . S
C1939 C1940 1.394 . S
C1939 C1945 1.465 . S
C1940 C1935 1.399 . S
C1940 C1939 1.394 . S
C1940 C1941 1.516 . S
C1941 C1940 1.516 . S
C1941 C1942 1.502 . S
C1941 C1943 1.561 . S
C1941 C1944 1.526 . S
C1942 H1926 0.959 . S
C1942 H1927 0.959 . S
C1942 H1928 0.961 . S
C1942 C1941 1.502 . S
C1943 H1929 0.960 . S
C1943 H1930 0.961 . S
C1943 H1931 0.959 . S
C1943 C1941 1.561 . S
C1944 C1941 1.526 . S
C1944 C1945 1.396 . S
C1944 C1949 1.390 . S
C1945 C1939 1.465 . S
C1945 C1944 1.396 . S
C1945 C1946 1.399 . S
C1946 H1932 0.929 . S
C1946 C1945 1.399 . S
C1946 C1947 1.385 . S
C1947 H1933 0.931 . S
C1947 C1946 1.385 . S
C1947 C1948 1.389 . S
C1948 C1947 1.389 . S
C1948 C1949 1.387 . S
C1949 H1934 0.930 . S
C1949 C1944 1.390 . S
C1949 C1948 1.387 . S
H1950 C1962 0.930 . S
H1951 C1964 0.930 . S
H1952 C1965 0.930 . S
H1953 C1969 0.959 . S
H1954 C1969 0.959 . S
H1955 C1969 0.961 . S
H1956 C1970 0.960 . S
H1957 C1970 0.961 . S
H1958 C1970 0.959 . S
H1959 C1973 0.929 . S
H1960 C1974 0.931 . S
H1961 C1976 0.930 . S
C1962 H1950 0.930 . S
C1962 C1963 1.399 . S
C1962 C1967 1.399 . S
C1963 C1962 1.399 . S
C1963 C1964 1.376 . S
C1964 H1951 0.930 . S
C1964 C1963 1.376 . S
C1964 C1965 1.388 . S
C1965 H1952 0.930 . S
C1965 C1964 1.388 . S
C1965 C1966 1.390 . S
C1966 C1965 1.390 . S
C1966 C1967 1.394 . S
C1966 C1972 1.465 . S
C1967 C1962 1.399 . S
C1967 C1966 1.394 . S
C1967 C1968 1.516 . S
C1968 C1967 1.516 . S
C1968 C1969 1.502 . S
C1968 C1970 1.561 . S
C1968 C1971 1.526 . S
C1969 H1953 0.959 . S
C1969 H1954 0.959 . S
C1969 H1955 0.961 . S
C1969 C1968 1.502 . S
C1970 H1956 0.960 . S
C1970 H1957 0.961 . S
C1970 H1958 0.959 . S
C1970 C1968 1.561 . S
C1971 C1968 1.526 . S
C1971 C1972 1.396 . S
C1971 C1976 1.390 . S
C1972 C1966 1.465 . S
C1972 C1971 1.396 . S
C1972 C1973 1.399 . S
C1973 H1959 0.929 . S
C1973 C1972 1.399 . S
C1973 C1974 1.385 . S
C1974 H1960 0.931 . S
C1974 C1973 1.385 . S
C1974 C1975 1.389 . S
C1975 C1974 1.389 . S
C1975 C1976 1.387 . S
C1976 H1961 0.930 . S
C1976 C1971 1.390 . S
C1976 C1975 1.387 . S
H1977 C1989 0.930 . S
H1978 C1991 0.930 . S
H1979 C1992 0.930 . S
H1980 C1996 0.959 . S
H1981 C1996 0.959 . S
H1982 C1996 0.961 . S
H1983 C1997 0.960 . S
H1984 C1997 0.961 . S
H1985 C1997 0.959 . S
H1986 C2000 0.929 . S
H1987 C2001 0.931 . S
H1988 C2003 0.930 . S
C1989 H1977 0.930 . S
C1989 C1990 1.399 . S
C1989 C1994 1.399 . S
C1990 C1989 1.399 . S
C1990 C1991 1.376 . S
C1991 H1978 0.930 . S
C1991 C1990 1.376 . S
C1991 C1992 1.388 . S
C1992 H1979 0.930 . S
C1992 C1991 1.388 . S
C1992 C1993 1.390 . S
C1993 C1992 1.390 . S
C1993 C1994 1.394 . S
C1993 C1999 1.465 . S
C1994 C1989 1.399 . S
C1994 C1993 1.394 . S
C1994 C1995 1.516 . S
C1995 C1994 1.516 . S
C1995 C1996 1.502 . S
C1995 C1997 1.561 . S
C1995 C1998 1.526 . S
C1996 H1980 0.959 . S
C1996 H1981 0.959 . S
C1996 H1982 0.961 . S
C1996 C1995 1.502 . S
C1997 H1983 0.960 . S
C1997 H1984 0.961 . S
C1997 H1985 0.959 . S
C1997 C1995 1.561 . S
C1998 C1995 1.526 . S
C1998 C1999 1.396 . S
C1998 C2003 1.390 . S
C1999 C1993 1.465 . S
C1999 C1998 1.396 . S
C1999 C2000 1.399 . S
C2000 H1986 0.929 . S
C2000 C1999 1.399 . S
C2000 C2001 1.385 . S
C2001 H1987 0.931 . S
C2001 C2000 1.385 . S
C2001 C2002 1.389 . S
C2002 C2001 1.389 . S
C2002 C2003 1.387 . S
C2003 H1988 0.930 . S
C2003 C1998 1.390 . S
C2003 C2002 1.387 . S
H2004 C2016 0.930 . S
H2005 C2018 0.930 . S
H2006 C2019 0.930 . S
H2007 C2023 0.959 . S
H2008 C2023 0.959 . S
H2009 C2023 0.961 . S
H2010 C2024 0.960 . S
H2011 C2024 0.961 . S
H2012 C2024 0.959 . S
H2013 C2027 0.929 . S
H2014 C2028 0.931 . S
H2015 C2030 0.930 . S
C2016 H2004 0.930 . S
C2016 C2017 1.399 . S
C2016 C2021 1.399 . S
C2017 C2016 1.399 . S
C2017 C2018 1.376 . S
C2018 H2005 0.930 . S
C2018 C2017 1.376 . S
C2018 C2019 1.388 . S
C2019 H2006 0.930 . S
C2019 C2018 1.388 . S
C2019 C2020 1.390 . S
C2020 C2019 1.390 . S
C2020 C2021 1.394 . S
C2020 C2026 1.465 . S
C2021 C2016 1.399 . S
C2021 C2020 1.394 . S
C2021 C2022 1.516 . S
C2022 C2021 1.516 . S
C2022 C2023 1.502 . S
C2022 C2024 1.561 . S
C2022 C2025 1.526 . S
C2023 H2007 0.959 . S
C2023 H2008 0.959 . S
C2023 H2009 0.961 . S
C2023 C2022 1.502 . S
C2024 H2010 0.960 . S
C2024 H2011 0.961 . S
C2024 H2012 0.959 . S
C2024 C2022 1.561 . S
C2025 C2022 1.526 . S
C2025 C2026 1.396 . S
C2025 C2030 1.390 . S
C2026 C2020 1.465 . S
C2026 C2025 1.396 . S
C2026 C2027 1.399 . S
C2027 H2013 0.929 . S
C2027 C2026 1.399 . S
C2027 C2028 1.385 . S
C2028 H2014 0.931 . S
C2028 C2027 1.385 . S
C2028 C2029 1.389 . S
C2029 C2028 1.389 . S
C2029 C2030 1.387 . S
C2030 H2015 0.930 . S
C2030 C2025 1.390 . S
C2030 C2029 1.387 . S
H2031 C2043 0.930 . S
H2032 C2045 0.930 . S
H2033 C2046 0.930 . S
H2034 C2050 0.959 . S
H2035 C2050 0.959 . S
H2036 C2050 0.961 . S
H2037 C2051 0.960 . S
H2038 C2051 0.961 . S
H2039 C2051 0.959 . S
H2040 C2054 0.929 . S
H2041 C2055 0.931 . S
H2042 C2057 0.930 . S
C2043 H2031 0.930 . S
C2043 C2044 1.399 . S
C2043 C2048 1.399 . S
C2044 C2043 1.399 . S
C2044 C2045 1.376 . S
C2045 H2032 0.930 . S
C2045 C2044 1.376 . S
C2045 C2046 1.388 . S
C2046 H2033 0.930 . S
C2046 C2045 1.388 . S
C2046 C2047 1.390 . S
C2047 C2046 1.390 . S
C2047 C2048 1.394 . S
C2047 C2053 1.465 . S
C2048 C2043 1.399 . S
C2048 C2047 1.394 . S
C2048 C2049 1.516 . S
C2049 C2048 1.516 . S
C2049 C2050 1.502 . S
C2049 C2051 1.561 . S
C2049 C2052 1.526 . S
C2050 H2034 0.959 . S
C2050 H2035 0.959 . S
C2050 H2036 0.961 . S
C2050 C2049 1.502 . S
C2051 H2037 0.960 . S
C2051 H2038 0.961 . S
C2051 H2039 0.959 . S
C2051 C2049 1.561 . S
C2052 C2049 1.526 . S
C2052 C2053 1.396 . S
C2052 C2057 1.390 . S
C2053 C2047 1.465 . S
C2053 C2052 1.396 . S
C2053 C2054 1.399 . S
C2054 H2040 0.929 . S
C2054 C2053 1.399 . S
C2054 C2055 1.385 . S
C2055 H2041 0.931 . S
C2055 C2054 1.385 . S
C2055 C2056 1.389 . S
C2056 C2055 1.389 . S
C2056 C2057 1.387 . S
C2057 H2042 0.930 . S
C2057 C2052 1.390 . S
C2057 C2056 1.387 . S
H2058 C2070 0.930 . S
H2059 C2072 0.930 . S
H2060 C2073 0.930 . S
H2061 C2077 0.959 . S
H2062 C2077 0.959 . S
H2063 C2077 0.961 . S
H2064 C2078 0.960 . S
H2065 C2078 0.961 . S
H2066 C2078 0.959 . S
H2067 C2081 0.929 . S
H2068 C2082 0.931 . S
H2069 C2084 0.930 . S
C2070 H2058 0.930 . S
C2070 C2071 1.399 . S
C2070 C2075 1.399 . S
C2071 C2070 1.399 . S
C2071 C2072 1.376 . S
C2072 H2059 0.930 . S
C2072 C2071 1.376 . S
C2072 C2073 1.388 . S
C2073 H2060 0.930 . S
C2073 C2072 1.388 . S
C2073 C2074 1.390 . S
C2074 C2073 1.390 . S
C2074 C2075 1.394 . S
C2074 C2080 1.465 . S
C2075 C2070 1.399 . S
C2075 C2074 1.394 . S
C2075 C2076 1.516 . S
C2076 C2075 1.516 . S
C2076 C2077 1.502 . S
C2076 C2078 1.561 . S
C2076 C2079 1.526 . S
C2077 H2061 0.959 . S
C2077 H2062 0.959 . S
C2077 H2063 0.961 . S
C2077 C2076 1.502 . S
C2078 H2064 0.960 . S
C2078 H2065 0.961 . S
C2078 H2066 0.959 . S
C2078 C2076 1.561 . S
C2079 C2076 1.526 . S
C2079 C2080 1.396 . S
C2079 C2084 1.390 . S
C2080 C2074 1.465 . S
C2080 C2079 1.396 . S
C2080 C2081 1.399 . S
C2081 H2067 0.929 . S
C2081 C2080 1.399 . S
C2081 C2082 1.385 . S
C2082 H2068 0.931 . S
C2082 C2081 1.385 . S
C2082 C2083 1.389 . S
C2083 C2082 1.389 . S
C2083 C2084 1.387 . S
C2084 H2069 0.930 . S
C2084 C2079 1.390 . S
C2084 C2083 1.387 . S
H2085 C2097 0.930 . S
H2086 C2099 0.930 . S
H2087 C2100 0.930 . S
H2088 C2104 0.959 . S
H2089 C2104 0.959 . S
H2090 C2104 0.961 . S
H2091 C2105 0.960 . S
H2092 C2105 0.961 . S
H2093 C2105 0.959 . S
H2094 C2108 0.929 . S
H2095 C2109 0.931 . S
H2096 C2111 0.930 . S
C2097 H2085 0.930 . S
C2097 C2098 1.399 . S
C2097 C2102 1.399 . S
C2098 C2097 1.399 . S
C2098 C2099 1.376 . S
C2099 H2086 0.930 . S
C2099 C2098 1.376 . S
C2099 C2100 1.388 . S
C2100 H2087 0.930 . S
C2100 C2099 1.388 . S
C2100 C2101 1.390 . S
C2101 C2100 1.390 . S
C2101 C2102 1.394 . S
C2101 C2107 1.465 . S
C2102 C2097 1.399 . S
C2102 C2101 1.394 . S
C2102 C2103 1.516 . S
C2103 C2102 1.516 . S
C2103 C2104 1.502 . S
C2103 C2105 1.561 . S
C2103 C2106 1.526 . S
C2104 H2088 0.959 . S
C2104 H2089 0.959 . S
C2104 H2090 0.961 . S
C2104 C2103 1.502 . S
C2105 H2091 0.960 . S
C2105 H2092 0.961 . S
C2105 H2093 0.959 . S
C2105 C2103 1.561 . S
C2106 C2103 1.526 . S
C2106 C2107 1.396 . S
C2106 C2111 1.390 . S
C2107 C2101 1.465 . S
C2107 C2106 1.396 . S
C2107 C2108 1.399 . S
C2108 H2094 0.929 . S
C2108 C2107 1.399 . S
C2108 C2109 1.385 . S
C2109 H2095 0.931 . S
C2109 C2108 1.385 . S
C2109 C2110 1.389 . S
C2110 C2109 1.389 . S
C2110 C2111 1.387 . S
C2111 H2096 0.930 . S
C2111 C2106 1.390 . S
C2111 C2110 1.387 . S
H2112 C2124 0.930 . S
H2113 C2126 0.930 . S
H2114 C2127 0.930 . S
H2115 C2131 0.959 . S
H2116 C2131 0.959 . S
H2117 C2131 0.961 . S
H2118 C2132 0.960 . S
H2119 C2132 0.961 . S
H2120 C2132 0.959 . S
H2121 C2135 0.929 . S
H2122 C2136 0.931 . S
H2123 C2138 0.930 . S
C2124 H2112 0.930 . S
C2124 C2125 1.399 . S
C2124 C2129 1.399 . S
C2125 C2124 1.399 . S
C2125 C2126 1.376 . S
C2126 H2113 0.930 . S
C2126 C2125 1.376 . S
C2126 C2127 1.388 . S
C2127 H2114 0.930 . S
C2127 C2126 1.388 . S
C2127 C2128 1.390 . S
C2128 C2127 1.390 . S
C2128 C2129 1.394 . S
C2128 C2134 1.465 . S
C2129 C2124 1.399 . S
C2129 C2128 1.394 . S
C2129 C2130 1.516 . S
C2130 C2129 1.516 . S
C2130 C2131 1.502 . S
C2130 C2132 1.561 . S
C2130 C2133 1.526 . S
C2131 H2115 0.959 . S
C2131 H2116 0.959 . S
C2131 H2117 0.961 . S
C2131 C2130 1.502 . S
C2132 H2118 0.960 . S
C2132 H2119 0.961 . S
C2132 H2120 0.959 . S
C2132 C2130 1.561 . S
C2133 C2130 1.526 . S
C2133 C2134 1.396 . S
C2133 C2138 1.390 . S
C2134 C2128 1.465 . S
C2134 C2133 1.396 . S
C2134 C2135 1.399 . S
C2135 H2121 0.929 . S
C2135 C2134 1.399 . S
C2135 C2136 1.385 . S
C2136 H2122 0.931 . S
C2136 C2135 1.385 . S
C2136 C2137 1.389 . S
C2137 C2136 1.389 . S
C2137 C2138 1.387 . S
C2138 H2123 0.930 . S
C2138 C2133 1.390 . S
C2138 C2137 1.387 . S
H2139 C2151 0.930 . S
H2140 C2153 0.930 . S
H2141 C2154 0.930 . S
H2142 C2158 0.959 . S
H2143 C2158 0.959 . S
H2144 C2158 0.961 . S
H2145 C2159 0.960 . S
H2146 C2159 0.961 . S
H2147 C2159 0.959 . S
H2148 C2162 0.929 . S
H2149 C2163 0.931 . S
H2150 C2165 0.930 . S
C2151 H2139 0.930 . S
C2151 C2152 1.399 . S
C2151 C2156 1.399 . S
C2152 C2151 1.399 . S
C2152 C2153 1.376 . S
C2153 H2140 0.930 . S
C2153 C2152 1.376 . S
C2153 C2154 1.388 . S
C2154 H2141 0.930 . S
C2154 C2153 1.388 . S
C2154 C2155 1.390 . S
C2155 C2154 1.390 . S
C2155 C2156 1.394 . S
C2155 C2161 1.465 . S
C2156 C2151 1.399 . S
C2156 C2155 1.394 . S
C2156 C2157 1.516 . S
C2157 C2156 1.516 . S
C2157 C2158 1.502 . S
C2157 C2159 1.561 . S
C2157 C2160 1.526 . S
C2158 H2142 0.959 . S
C2158 H2143 0.959 . S
C2158 H2144 0.961 . S
C2158 C2157 1.502 . S
C2159 H2145 0.960 . S
C2159 H2146 0.961 . S
C2159 H2147 0.959 . S
C2159 C2157 1.561 . S
C2160 C2157 1.526 . S
C2160 C2161 1.396 . S
C2160 C2165 1.390 . S
C2161 C2155 1.465 . S
C2161 C2160 1.396 . S
C2161 C2162 1.399 . S
C2162 H2148 0.929 . S
C2162 C2161 1.399 . S
C2162 C2163 1.385 . S
C2163 H2149 0.931 . S
C2163 C2162 1.385 . S
C2163 C2164 1.389 . S
C2164 C2163 1.389 . S
C2164 C2165 1.387 . S
C2165 H2150 0.930 . S
C2165 C2160 1.390 . S
C2165 C2164 1.387 . S
C895 C699 1.323 . S
C883 C75 1.310 . S
C922 C700 0.945 . S
C910 C156 0.812 . S
C949 C694 1.484 . S
C937 C243 1.355 . S
C964 C315 0.815 . S
C976 C693 0.642 . S
C991 C399 0.841 . S
C1003 C696 0.617 . S
C1030 C698 1.280 . S
C1018 C495 1.236 . S
C1045 C576 1.103 . S
C1057 C697 1.117 . S
C1072 C654 1.298 . S
C1084 C695 1.237 . S
C1111 C730 1.034 . S
C1099 C72 0.892 . S
C1126 C140 1.452 . S
C1138 C761 1.417 . S
C1165 C729 1.032 . S
C1153 C240 1.066 . S
C1192 C764 0.936 . S
C1180 C318 0.940 . S
C1207 C402 1.055 . S
C1219 C727 1.173 . S
C1246 C759 1.756 1_556 S
C1234 C492 1.597 . S
C1261 C560 1.078 . S
C1273 C732 1.186 . S
C1288 C655 2.656 . S
C1300 C766 2.683 1_556 S
C1315 C56 3.101 . S
C1327 C762 3.218 . S
C1342 C403 1.803 . S
C1354 C765 1.766 1_556 S
C1381 C733 2.253 . S
C1369 C476 2.172 . S
C1408 C760 1.571 1_556 S
C1396 C579 1.490 . S
C1423 C651 1.417 . S
C1435 C726 1.508 . S
C1450 C224 3.065 . S
C1462 C763 3.216 . S
C1489 C728 1.351 . S
C1477 C319 1.400 . S
C1504 C159 1.851 . S
C1516 C731 1.932 . S
C1531 C663 1.261 . S
C1543 C798 1.228 . S
C1558 C408 0.865 . S
C1570 C799 0.354 . S
C1597 C793 1.407 . S
C1585 C486 1.368 . S
C1624 C792 1.400 . S
C1612 C567 1.204 . S
C1639 C147 0.647 . S
C1651 C795 0.654 . S
C1678 C797 1.310 . S
C1666 C234 1.281 . S
C1693 C324 0.971 . S
C1705 C796 0.985 . S
C1720 C66 1.230 . S
C1732 C794 1.209 . S
C1747 C660 1.471 . S
C1759 C832 1.512 . S
C1786 C864 1.413 . S
C1774 C392 1.461 . S
C1801 C487 2.075 . S
C1813 C825 2.170 . S
C1828 C570 1.817 . S
C1840 C859 1.879 . S
C1867 C830 1.700 . S
C1855 C150 1.641 . S
C1882 C235 3.257 . S
C1894 C861 3.375 . S
C1921 C827 1.660 . S
C1909 C308 1.764 . S
C1948 C862 3.133 . S
C1936 C67 2.927 . S
C1975 C858 2.604 . S
C1963 C644 2.423 . S
C1990 C151 1.097 . S
C2002 C860 1.113 . S
C2017 C231 0.954 . S
C2029 C829 0.959 . S
C2056 C863 1.187 . S
C2044 C327 1.085 . S
C2071 C63 0.952 . S
C2083 C828 0.999 . S
C2098 C483 1.810 . S
C2110 C865 1.845 . S
C2137 C831 1.433 . S
C2125 C571 1.363 . S
C2164 C826 0.923 . S
C2152 C411 0.810 . S
