# Generated by pormake.
# Topology pyr, (3,6)-cn, num edge types: 1
# Building blocks:
#     Node 0, Type 0, BuildingBlock: WUSLED_clean_sbu_0, # of connection points: 3
#     Node 1, Type 0, BuildingBlock: WUSLED_clean_sbu_0, # of connection points: 3
#     Node 2, Type 0, BuildingBlock: WUSLED_clean_sbu_0, # of connection points: 3
#     Node 3, Type 0, BuildingBlock: WUSLED_clean_sbu_0, # of connection points: 3
#     Node 4, Type 0, BuildingBlock: WUSLED_clean_sbu_0, # of connection points: 3
#     Node 5, Type 0, BuildingBlock: WUSLED_clean_sbu_0, # of connection points: 3
#     Node 6, Type 0, BuildingBlock: WUSLED_clean_sbu_0, # of connection points: 3
#     Node 7, Type 0, BuildingBlock: WUSLED_clean_sbu_0, # of connection points: 3
#     Node 8, Type 1, BuildingBlock: LEVNOQ01_clean_sbu_1, # of connection points: 6
#     Node 9, Type 1, BuildingBlock: LEVNOQ01_clean_sbu_1, # of connection points: 6
#     Node 10, Type 1, BuildingBlock: LEVNOQ01_clean_sbu_1, # of connection points: 6
#     Node 11, Type 1, BuildingBlock: LEVNOQ01_clean_sbu_1, # of connection points: 6
#     Edge 12, Type (0, 1), BuildingBlock: OJICUG_clean_linker_0, # of connection points: 2
#     Edge 13, Type (0, 1), BuildingBlock: OJICUG_clean_linker_0, # of connection points: 2
#     Edge 14, Type (0, 1), BuildingBlock: OJICUG_clean_linker_0, # of connection points: 2
#     Edge 15, Type (0, 1), BuildingBlock: OJICUG_clean_linker_0, # of connection points: 2
#     Edge 16, Type (0, 1), BuildingBlock: OJICUG_clean_linker_0, # of connection points: 2
#     Edge 17, Type (0, 1), BuildingBlock: OJICUG_clean_linker_0, # of connection points: 2
#     Edge 18, Type (0, 1), BuildingBlock: OJICUG_clean_linker_0, # of connection points: 2
#     Edge 19, Type (0, 1), BuildingBlock: OJICUG_clean_linker_0, # of connection points: 2
#     Edge 20, Type (0, 1), BuildingBlock: OJICUG_clean_linker_0, # of connection points: 2
#     Edge 21, Type (0, 1), BuildingBlock: OJICUG_clean_linker_0, # of connection points: 2
#     Edge 22, Type (0, 1), BuildingBlock: OJICUG_clean_linker_0, # of connection points: 2
#     Edge 23, Type (0, 1), BuildingBlock: OJICUG_clean_linker_0, # of connection points: 2
#     Edge 24, Type (0, 1), BuildingBlock: OJICUG_clean_linker_0, # of connection points: 2
#     Edge 25, Type (0, 1), BuildingBlock: OJICUG_clean_linker_0, # of connection points: 2
#     Edge 26, Type (0, 1), BuildingBlock: OJICUG_clean_linker_0, # of connection points: 2
#     Edge 27, Type (0, 1), BuildingBlock: OJICUG_clean_linker_0, # of connection points: 2
#     Edge 28, Type (0, 1), BuildingBlock: OJICUG_clean_linker_0, # of connection points: 2
#     Edge 29, Type (0, 1), BuildingBlock: OJICUG_clean_linker_0, # of connection points: 2
#     Edge 30, Type (0, 1), BuildingBlock: OJICUG_clean_linker_0, # of connection points: 2
#     Edge 31, Type (0, 1), BuildingBlock: OJICUG_clean_linker_0, # of connection points: 2
#     Edge 32, Type (0, 1), BuildingBlock: OJICUG_clean_linker_0, # of connection points: 2
#     Edge 33, Type (0, 1), BuildingBlock: OJICUG_clean_linker_0, # of connection points: 2
#     Edge 34, Type (0, 1), BuildingBlock: OJICUG_clean_linker_0, # of connection points: 2
#     Edge 35, Type (0, 1), BuildingBlock: OJICUG_clean_linker_0, # of connection points: 2
# Relax obj value: 0.034
# Max RMSD: 0.109
# Mean RMSD: 0.044
data_MOF--net-pry--node1-WUSLED_clean_sbu_0--node2-LEVNOQ01_clean_sbu_1--edge1-OJICUG_clean_linker_0
_symmetry_space_group_name_H-M    P1
_symmetry_Int_Tables_number       1
_symmetry_cell_setting            triclinic
loop_
_symmetry_equiv_pos_as_xyz
'x, y, z'
_cell_length_a     38.314908
_cell_length_b     36.948434
_cell_length_c     36.401204
_cell_angle_alpha  92.104216
_cell_angle_beta   91.605123
_cell_angle_gamma 93.404726
loop_
_atom_site_label
_atom_site_type_symbol
_atom_site_fract_x
_atom_site_fract_y
_atom_site_fract_z
_atom_type_partial_charge
C0 C 0.14525 0.25456 0.11258 0.0
C1 C 0.11004 0.25457 0.12229 0.0
C2 C 0.10406 0.313 0.09384 0.0
C3 C 0.08967 0.28331 0.11287 0.0
C4 C 0.1393 0.31261 0.0839 0.0
C5 C 0.15959 0.28371 0.09312 0.0
U6 U 0.17431 0.17926 0.17567 0.0
O7 O 0.18842 0.12369 0.16036 0.0
O8 O 0.22701 0.16191 0.18874 0.0
C9 C 0.22107 0.12985 0.17208 0.0
C10 C 0.16727 0.22432 0.12184 0.0
C11 C 0.24833 0.11783 0.14705 0.0
C12 C 0.29588 0.13091 0.10561 0.0
C13 C 0.26865 0.14267 0.12712 0.0
C14 C 0.28243 0.0691 0.12276 0.0
C15 C 0.30336 0.09395 0.10325 0.0
C16 C 0.25528 0.08095 0.1444 0.0
C17 C 0.12766 0.16665 0.26827 0.0
C18 C 0.1462 0.13129 0.31975 0.0
C19 C 0.08825 0.15402 0.3182 0.0
C20 C 0.09528 0.16997 0.28468 0.0
C21 C 0.11354 0.13432 0.33624 0.0
C22 C 0.15318 0.14726 0.28609 0.0
C23 C 0.13405 0.18414 0.23296 0.0
O24 O 0.18981 0.23058 0.14957 0.0
O25 O 0.15132 0.19181 0.12189 0.0
O26 O 0.125 0.16461 0.20293 0.0
O27 O 0.16406 0.20291 0.23042 0.0
H28 H 0.09825 0.23238 0.13721 0.0
H29 H 0.06256 0.28221 0.12059 0.0
H30 H 0.15157 0.33509 0.06981 0.0
H31 H 0.18668 0.28427 0.08528 0.0
H32 H 0.31167 0.15107 0.09162 0.0
H33 H 0.26392 0.1713 0.12869 0.0
H34 H 0.28698 0.04045 0.12135 0.0
H35 H 0.23993 0.06127 0.15951 0.0
H36 H 0.16646 0.11662 0.33287 0.0
H37 H 0.0626 0.15641 0.32947 0.0
H38 H 0.0752 0.1848 0.27139 0.0
H39 H 0.17843 0.14444 0.27399 0.0
C40 C 0.27831 0.89411 0.5839 0.0
C41 C 0.2773 0.92962 0.59869 0.0
C42 C 0.21731 0.9327 0.57538 0.0
C43 C 0.24722 0.94879 0.59425 0.0
C44 C 0.21869 0.8973 0.56004 0.0
C45 C 0.24895 0.8782 0.56429 0.0
U46 U 0.35708 0.87366 0.64329 0.0
O47 O 0.37796 0.82185 0.65807 0.0
O48 O 0.41062 0.86137 0.62854 0.0
C49 C 0.40734 0.82841 0.64098 0.0
C50 C 0.30919 0.87302 0.59026 0.0
C51 C 0.41956 0.79878 0.61691 0.0
C52 C 0.41501 0.73584 0.59393 0.0
C53 C 0.40045 0.76515 0.61209 0.0
C54 C 0.46716 0.77374 0.58325 0.0
C55 C 0.449 0.73948 0.58027 0.0
C56 C 0.45267 0.80296 0.60151 0.0
C57 C 0.37378 0.92807 0.73429 0.0
C58 C 0.42015 0.91504 0.77783 0.0
C59 C 0.38074 0.96196 0.79281 0.0
C60 C 0.36318 0.95513 0.7588 0.0
C61 C 0.4092 0.9417 0.80295 0.0
C62 C 0.40257 0.90827 0.74382 0.0
C63 C 0.35376 0.91985 0.6996 0.0
O64 O 0.33968 0.89122 0.58906 0.0
O65 O 0.30709 0.85134 0.61805 0.0
O66 O 0.33653 0.88799 0.69735 0.0
O67 O 0.37007 0.92773 0.66936 0.0
H68 H 0.29961 0.9424 0.61409 0.0
H69 H 0.24735 0.97619 0.60591 0.0
H70 H 0.19605 0.88391 0.54575 0.0
H71 H 0.24919 0.85071 0.55289 0.0
H72 H 0.40041 0.70979 0.59255 0.0
H73 H 0.37486 0.76093 0.62366 0.0
H74 H 0.4932 0.77763 0.57266 0.0
H75 H 0.46801 0.82853 0.60485 0.0
H76 H 0.44227 0.89931 0.78449 0.0
H77 H 0.37136 0.98237 0.81158 0.0
H78 H 0.3409 0.97059 0.75189 0.0
H79 H 0.41115 0.88729 0.72516 0.0
C80 C 0.64817 0.34217 0.74205 0.0
C81 C 0.66905 0.37433 0.7389 0.0
C82 C 0.62844 0.3946 0.69222 0.0
C83 C 0.65935 0.40026 0.7141 0.0
C84 C 0.60823 0.36175 0.69484 0.0
C85 C 0.61804 0.33582 0.71953 0.0
U86 U 0.69952 0.31512 0.82714 0.0
O87 O 0.68264 0.28663 0.87586 0.0
O88 O 0.71982 0.26189 0.8392 0.0
C89 C 0.69927 0.25754 0.86723 0.0
C90 C 0.65663 0.31573 0.76964 0.0
C91 C 0.67791 0.22302 0.86775 0.0
C92 C 0.62064 0.19108 0.86643 0.0
C93 C 0.64187 0.22194 0.85956 0.0
C94 C 0.6716 0.16042 0.8862 0.0
C95 C 0.63497 0.16021 0.88109 0.0
C96 C 0.69281 0.19167 0.87989 0.0
C97 C 0.76619 0.38318 0.87549 0.0
C98 C 0.80729 0.36737 0.92351 0.0
C99 C 0.80238 0.43033 0.90882 0.0
C100 C 0.77642 0.4199 0.88214 0.0
C101 C 0.81866 0.40413 0.9293 0.0
C102 C 0.78118 0.35698 0.89688 0.0
C103 C 0.74044 0.37275 0.8457 0.0
O104 O 0.68811 0.30351 0.76818 0.0
O105 O 0.64747 0.32401 0.8033 0.0
O106 O 0.70786 0.36855 0.85579 0.0
O107 O 0.74928 0.34716 0.82225 0.0
H108 H 0.69247 0.37965 0.7561 0.0
H109 H 0.67572 0.42504 0.71255 0.0
H110 H 0.58399 0.35667 0.67898 0.0
H111 H 0.60158 0.31115 0.72171 0.0
H112 H 0.59268 0.19266 0.86251 0.0
H113 H 0.62976 0.2457 0.84979 0.0
H114 H 0.68382 0.13703 0.8966 0.0
H115 H 0.72066 0.19183 0.88597 0.0
H116 H 0.81914 0.34657 0.939 0.0
H117 H 0.81084 0.45878 0.91211 0.0
H118 H 0.76498 0.44049 0.86599 0.0
H119 H 0.77327 0.32848 0.89239 0.0
C120 C 0.76699 0.60807 0.37775 0.0
C121 C 0.76355 0.61895 0.41475 0.0
C122 C 0.71187 0.57766 0.41843 0.0
C123 C 0.73613 0.60384 0.43499 0.0
C124 C 0.71572 0.56695 0.38132 0.0
C125 C 0.74306 0.58198 0.36124 0.0
U126 U 0.84438 0.67598 0.36408 0.0
O127 O 0.89307 0.66886 0.33479 0.0
O128 O 0.85609 0.70752 0.3153 0.0
C129 C 0.8843 0.69019 0.30837 0.0
C130 C 0.79465 0.62424 0.35547 0.0
C131 C 0.8859 0.67395 0.271 0.0
C132 C 0.86376 0.62945 0.22387 0.0
C133 C 0.85988 0.64813 0.25752 0.0
C134 C 0.91894 0.66339 0.21611 0.0
C135 C 0.89388 0.63606 0.20325 0.0
C136 C 0.91497 0.6821 0.24969 0.0
C137 C 0.87819 0.74268 0.44145 0.0
C138 C 0.93635 0.77281 0.44655 0.0
C139 C 0.88714 0.80238 0.47183 0.0
C140 C 0.86501 0.77228 0.46063 0.0
C141 C 0.92296 0.80337 0.46415 0.0
C142 C 0.91419 0.74289 0.43509 0.0
C143 C 0.85384 0.71275 0.427 0.0
O144 O 0.79063 0.65792 0.34658 0.0
O145 O 0.82685 0.61833 0.36595 0.0
O146 O 0.86748 0.68146 0.42011 0.0
O147 O 0.83152 0.72143 0.40116 0.0
H148 H 0.78189 0.63922 0.42782 0.0
H149 H 0.73399 0.61251 0.46354 0.0
H150 H 0.69712 0.54749 0.36743 0.0
H151 H 0.74524 0.57353 0.33261 0.0
H152 H 0.84384 0.60881 0.21472 0.0
H153 H 0.8372 0.64148 0.27366 0.0
H154 H 0.94277 0.66881 0.20142 0.0
H155 H 0.93537 0.70185 0.25976 0.0
H156 H 0.96388 0.77243 0.44067 0.0
H157 H 0.87581 0.82556 0.48486 0.0
H158 H 0.83733 0.77262 0.46588 0.0
H159 H 0.92512 0.72038 0.42044 0.0
C160 C 0.87104 0.78059 0.93221 0.0
C161 C 0.88853 0.76162 0.90492 0.0
C162 C 0.90779 0.71879 0.94995 0.0
C163 C 0.90668 0.73105 0.91369 0.0
C164 C 0.89104 0.73862 0.97734 0.0
C165 C 0.87284 0.76912 0.96851 0.0
U166 U 0.84377 0.85748 0.87014 0.0
O167 O 0.79148 0.87567 0.8568 0.0
O168 O 0.83007 0.913 0.88636 0.0
C169 C 0.79758 0.90748 0.87391 0.0
C170 C 0.84995 0.81158 0.92335 0.0
C171 C 0.76988 0.91967 0.8983 0.0
C172 C 0.72065 0.9068 0.93762 0.0
C173 C 0.74857 0.8949 0.91725 0.0
C174 C 0.73537 0.96863 0.92133 0.0
C175 C 0.71343 0.94384 0.93979 0.0
C176 C 0.76322 0.95664 0.90083 0.0
C177 C 0.89013 0.87241 0.77851 0.0
C178 C 0.88001 0.92223 0.73842 0.0
C179 C 0.92401 0.88013 0.72344 0.0
C180 C 0.91579 0.86084 0.75478 0.0
C181 C 0.90673 0.91154 0.71517 0.0
C182 C 0.87184 0.90289 0.76981 0.0
C183 C 0.88408 0.85325 0.81286 0.0
O184 O 0.86687 0.84358 0.92364 0.0
O185 O 0.82739 0.80626 0.89551 0.0
O186 O 0.8539 0.8347 0.81488 0.0
O187 O 0.8933 0.87178 0.84346 0.0
H188 H 0.88775 0.77014 0.87676 0.0
H189 H 0.91971 0.71686 0.89195 0.0
H190 H 0.89098 0.72991 1.00542 0.0
H191 H 0.85954 0.7834 0.99001 0.0
H192 H 0.7041 0.88669 0.95081 0.0
H193 H 0.75301 0.8662 0.91568 0.0
H194 H 0.73101 0.99732 0.92263 0.0
H195 H 0.77929 0.97627 0.88639 0.0
H196 H 0.86583 0.946 0.73274 0.0
H197 H 0.94503 0.87132 0.70664 0.0
H198 H 0.93023 0.83737 0.76105 0.0
H199 H 0.85181 0.91217 0.78771 0.0
C200 C 0.60739 0.14471 0.30578 0.0
C201 C 0.63221 0.14641 0.27804 0.0
C202 C 0.59105 0.11344 0.23492 0.0
C203 C 0.62403 0.13109 0.24294 0.0
C204 C 0.56691 0.11014 0.26316 0.0
C205 C 0.57496 0.12582 0.29821 0.0
U206 U 0.66324 0.16586 0.39362 0.0
O207 O 0.67949 0.2184 0.42115 0.0
O208 O 0.64834 0.17764 0.45062 0.0
C209 C 0.66147 0.21138 0.45053 0.0
C210 C 0.61409 0.16411 0.34184 0.0
C211 C 0.63866 0.2402 0.46276 0.0
C212 C 0.58167 0.26151 0.47809 0.0
C213 C 0.60257 0.23336 0.46729 0.0
C214 C 0.63253 0.3037 0.48003 0.0
C215 C 0.59632 0.29715 0.48436 0.0
C216 C 0.6534 0.27555 0.46957 0.0
C217 C 0.74779 0.11368 0.40276 0.0
C218 C 0.79653 0.12654 0.44651 0.0
C219 C 0.79746 0.07601 0.40225 0.0
C220 C 0.76469 0.08404 0.38828 0.0
C221 C 0.81406 0.09749 0.43106 0.0
C222 C 0.76359 0.13472 0.43229 0.0
C223 C 0.71469 0.12273 0.38501 0.0
O224 O 0.61172 0.14431 0.37106 0.0
O225 O 0.64078 0.18824 0.34387 0.0
O226 O 0.71438 0.15507 0.37121 0.0
O227 O 0.68589 0.11323 0.40193 0.0
H228 H 0.65763 0.16042 0.28306 0.0
H229 H 0.64324 0.13377 0.22177 0.0
H230 H 0.54118 0.09697 0.25767 0.0
H231 H 0.55542 0.12411 0.31912 0.0
H232 H 0.554 0.25528 0.48149 0.0
H233 H 0.59038 0.20636 0.46227 0.0
H234 H 0.64477 0.3308 0.48377 0.0
H235 H 0.68114 0.28156 0.46623 0.0
H236 H 0.80874 0.14355 0.4687 0.0
H237 H 0.81001 0.05306 0.39023 0.0
H238 H 0.75279 0.06744 0.36559 0.0
H239 H 0.75082 0.15776 0.44378 0.0
C240 C 0.26202 0.65231 0.18623 0.0
C241 C 0.24062 0.67862 0.17253 0.0
C242 C 0.20561 0.6318 0.13685 0.0
C243 C 0.21254 0.66841 0.14819 0.0
C244 C 0.22826 0.6059 0.14917 0.0
C245 C 0.25613 0.61608 0.17372 0.0
U246 U 0.33326 0.71791 0.23086 0.0
O247 O 0.34806 0.729 0.28921 0.0
O248 O 0.38599 0.70716 0.25157 0.0
C249 C 0.37883 0.7155 0.28585 0.0
C250 C 0.2898 0.66175 0.21435 0.0
C251 C 0.3874 0.68827 0.3126 0.0
C252 C 0.37794 0.62819 0.3368 0.0
C253 C 0.36828 0.65471 0.31265 0.0
C254 C 0.42533 0.66891 0.36179 0.0
C255 C 0.40697 0.63474 0.36126 0.0
C256 C 0.41562 0.6954 0.33763 0.0
C257 C 0.35315 0.81007 0.18786 0.0
C258 C 0.40949 0.84226 0.18046 0.0
C259 C 0.35622 0.87259 0.16883 0.0
C260 C 0.33651 0.84133 0.1783 0.0
C261 C 0.393 0.87294 0.16821 0.0
C262 C 0.38981 0.81132 0.19039 0.0
C263 C 0.33229 0.77547 0.19079 0.0
O264 O 0.32174 0.66482 0.20218 0.0
O265 O 0.28327 0.68733 0.2389 0.0
O266 O 0.31351 0.77172 0.22024 0.0
O267 O 0.34826 0.74616 0.18138 0.0
H268 H 0.24501 0.70687 0.18142 0.0
H269 H 0.19567 0.68899 0.13897 0.0
H270 H 0.22337 0.57743 0.14138 0.0
H271 H 0.27249 0.59543 0.18382 0.0
H272 H 0.36299 0.60235 0.33594 0.0
H273 H 0.34628 0.64881 0.29358 0.0
H274 H 0.44808 0.67472 0.37984 0.0
H275 H 0.43067 0.72119 0.33792 0.0
H276 H 0.43761 0.84093 0.18002 0.0
H277 H 0.34253 0.89584 0.16039 0.0
H278 H 0.30822 0.84104 0.17648 0.0
H279 H 0.40334 0.78765 0.19799 0.0
C280 C 0.09032 0.32065 0.64828 0.0
C281 C 0.11154 0.29716 0.62914 0.0
C282 C 0.05995 0.26134 0.60484 0.0
C283 C 0.09655 0.26772 0.60786 0.0
C284 C 0.03883 0.28678 0.62169 0.0
C285 C 0.05391 0.31599 0.64343 0.0
U286 U 0.16585 0.38673 0.67815 0.0
O287 O 0.16842 0.44112 0.70542 0.0
O288 O 0.19361 0.39641 0.73155 0.0
C289 C 0.18531 0.43038 0.73462 0.0
C290 C 0.10596 0.3485 0.67488 0.0
C291 C 0.17202 0.44207 0.77038 0.0
C292 C 0.13376 0.43317 0.82179 0.0
C293 C 0.14635 0.42103 0.78806 0.0
C294 C 0.17266 0.48725 0.82066 0.0
C295 C 0.14648 0.46665 0.83824 0.0
C296 C 0.18536 0.47499 0.78708 0.0
C297 C 0.24344 0.39744 0.61682 0.0
C298 C 0.29816 0.42774 0.63951 0.0
C299 C 0.28682 0.41842 0.57389 0.0
C300 C 0.25425 0.40129 0.58067 0.0
C301 C 0.30916 0.43192 0.60326 0.0
C302 C 0.26552 0.41087 0.64621 0.0
C303 C 0.20864 0.38076 0.62365 0.0
O304 O 0.13364 0.3389 0.69345 0.0
O305 O 0.10947 0.38171 0.66313 0.0
O306 O 0.18341 0.40334 0.62392 0.0
O307 O 0.20722 0.3582 0.65076 0.0
H308 H 0.13978 0.30054 0.63204 0.0
H309 H 0.11384 0.24875 0.59582 0.0
H310 H 0.01059 0.28329 0.61939 0.0
H311 H 0.03708 0.33417 0.65752 0.0
H312 H 0.11311 0.417 0.83427 0.0
H313 H 0.13568 0.39555 0.77553 0.0
H314 H 0.18298 0.51309 0.83265 0.0
H315 H 0.20533 0.49149 0.77388 0.0
H316 H 0.31486 0.43728 0.66279 0.0
H317 H 0.29422 0.42165 0.54565 0.0
H318 H 0.23732 0.39139 0.55767 0.0
H319 H 0.25748 0.40839 0.67436 0.0
O320 O 0.99411 0.02854 0.62844 0.0
Mg321 Mg 0.03438 0.05195 0.59912 0.0
O322 O 0.98091 0.99733 0.57695 0.0
Mg323 Mg 0.01207 0.02765 0.52875 0.0
O324 O 0.02226 0.08657 0.55813 0.0
O325 O 0.04106 0.1038 0.61581 0.0
O326 O 0.04263 0.06193 0.48162 0.0
O327 O 0.95869 0.04819 0.50979 0.0
Mg328 Mg 0.00995 1.00612 0.4655 0.0
O329 O 0.99818 0.96705 0.50171 0.0
O330 O 0.06191 0.0168 0.45027 0.0
O331 O 0.96982 0.04142 0.4513 0.0
O332 O 0.99618 0.95824 0.44024 0.0
C333 C 0.08872 1.00822 0.5717 0.0
C334 C 0.97634 1.00323 0.61135 0.0
C335 C 0.03059 0.11193 0.58337 0.0
C336 C 0.06303 0.05039 0.45718 0.0
C337 C 0.95028 0.05272 0.47626 0.0
C338 C 0.99248 0.94572 0.47251 0.0
O339 O 0.08219 0.02766 0.59959 0.0
O340 O 0.06682 1.00506 0.54451 0.0
O341 O 0.44543 0.095 0.01936 0.0
Mg342 Mg 0.49996 0.10267 0.01914 0.0
O343 O 0.45041 0.03815 0.03455 0.0
Mg344 Mg 0.50705 0.01892 0.01874 0.0
O345 O 0.5238 0.06823 0.98447 0.0
O346 O 0.52171 0.12754 0.97539 0.0
O347 O 0.56406 1.00002 1.00327 0.0
O348 O 0.48167 0.99319 0.96358 0.0
Mg349 Mg 0.51321 0.93683 1.01541 0.0
O350 O 0.49005 0.96926 0.0532 0.0
O351 O 0.56769 0.94232 1.01574 0.0
O352 O 0.48599 0.93376 0.96386 0.0
O353 O 0.4923 0.90905 0.05737 0.0
C354 C 0.53756 0.07794 0.08737 0.0
C355 C 0.43193 0.06572 0.03102 0.0
C356 C 0.5327 0.09637 0.96572 0.0
C357 C 0.58201 0.97195 1.00594 0.0
C358 C 0.47617 0.96165 0.94811 0.0
C359 C 0.48229 0.93962 0.07021 0.0
O360 O 0.52784 0.10521 0.07038 0.0
O361 O 0.53193 0.04565 0.07366 0.0
O362 O 0.52594 0.59638 0.59004 0.0
Mg363 Mg 0.5128 0.54277 0.60204 0.0
O364 O 0.50049 0.57661 0.53804 0.0
Mg365 Mg 0.51543 0.51489 0.52907 0.0
O366 O 0.54561 0.50424 0.58521 0.0
O367 O 0.54368 0.52685 0.64329 0.0
O368 O 0.53148 0.45353 0.52042 0.0
O369 O 0.56831 0.53559 0.50587 0.0
Mg370 Mg 0.51324 0.48273 0.46213 0.0
O371 O 0.48451 0.52632 0.47336 0.0
O372 O 0.4965 0.43017 0.47653 0.0
O373 O 0.5679 0.49615 0.45876 0.0
O374 O 0.48557 0.49782 0.41788 0.0
C375 C 0.44567 0.5014 0.57948 0.0
C376 C 0.51034 0.60295 0.56039 0.0
C377 C 0.55668 0.5051 0.61951 0.0
C378 C 0.51858 0.42561 0.50193 0.0
C379 C 0.58367 0.52109 0.47892 0.0
C380 C 0.47426 0.52317 0.43886 0.0
O381 O 0.4594 0.52341 0.6041 0.0
O382 O 0.46249 0.49327 0.55092 0.0
O383 O 0.02287 0.45957 0.10661 0.0
Mg384 Mg 0.01816 0.51491 0.10613 0.0
O385 O 0.03197 0.46511 0.04791 0.0
Mg386 Mg 0.01037 0.52263 0.03027 0.0
O387 O 0.97624 0.53762 0.08221 0.0
O388 O 0.98264 0.52747 0.14265 0.0
O389 O 0.98987 0.57836 1.01037 0.0
O390 O 0.9561 0.48851 1.01252 0.0
Mg391 Mg 0.99505 0.51119 0.96438 0.0
O392 O 0.04717 0.51246 0.97796 0.0
O393 O 0.96423 0.55649 0.95935 0.0
O394 O 0.97065 0.45939 0.96276 0.0
O395 O 0.02461 0.51438 0.92028 0.0
C396 C 0.07617 0.56328 0.08377 0.0
C397 C 0.0325 0.44605 0.07663 0.0
C398 C 0.96517 0.54021 0.11579 0.0
C399 C 0.97018 0.58276 0.98223 0.0
C400 C 0.94954 0.46297 0.98821 0.0
C401 C 0.05108 0.51245 0.94244 0.0
O402 O 0.06311 0.5497 0.11201 0.0
O403 O 0.06186 0.55639 0.05195 0.0
C404 C 0.11602 0.08023 0.37623 0.0
C405 C 0.1049 0.11527 0.37079 0.0
H406 H 0.1122 0.03278 0.4081 0.0
C407 C 0.08346 0.13066 0.39736 0.0
H408 H 0.13226 0.06724 0.35643 0.0
C409 C 0.07177 0.11067 0.42723 0.0
C410 C 0.08115 0.07479 0.43115 0.0
H411 H 0.0749 0.15785 0.39454 0.0
H412 H 0.05393 0.12266 0.44607 0.0
C413 C 0.10434 0.06033 0.40594 0.0
C414 C 0.433 0.98231 0.85635 0.0
C415 C 0.42652 0.9473 0.84007 0.0
H416 H 0.45379 0.01446 0.9031 0.0
C417 C 0.43619 0.91732 0.85985 0.0
H418 H 0.42614 1.00602 0.84175 0.0
C419 C 0.45205 0.92214 0.89483 0.0
C420 C 0.4587 0.95709 0.91112 0.0
H421 H 0.43103 0.88995 0.84853 0.0
H422 H 0.45904 0.89828 0.90911 0.0
C423 C 0.44894 0.98716 0.89147 0.0
C424 C 0.59736 0.41621 0.6357 0.0
C425 C 0.61538 0.42406 0.66961 0.0
H426 H 0.56434 0.43602 0.59323 0.0
C427 C 0.61776 0.46007 0.68375 0.0
H428 H 0.59532 0.38884 0.62379 0.0
C429 C 0.60068 0.48699 0.66578 0.0
C430 C 0.58086 0.47865 0.63321 0.0
H431 H 0.63098 0.46716 0.70993 0.0
H432 H 0.60155 0.51405 0.67844 0.0
C433 C 0.58018 0.44329 0.61773 0.0
C434 C 0.92095 0.62361 0.1419 0.0
C435 C 0.90212 0.61099 0.17208 0.0
H436 H 0.95511 0.60996 0.09837 0.0
C437 C 0.8966 0.57333 0.17567 0.0
H438 H 0.92512 0.65244 0.13794 0.0
C439 C 0.91341 0.5492 0.15283 0.0
C440 C 0.93586 0.56215 0.12583 0.0
H441 H 0.88241 0.56248 0.19853 0.0
H442 H 0.91192 0.52066 0.15894 0.0
C443 C 0.93764 0.59928 0.11879 0.0
C444 C 0.3424 0.09897 0.04882 0.0
C445 C 0.33356 0.08193 0.0815 0.0
H446 H 0.37993 0.10658 1.00696 0.0
C447 C 0.35513 0.05502 0.09417 0.0
H448 H 0.32606 0.11898 0.03748 0.0
C449 C 0.38589 0.04725 0.076 0.0
C450 C 0.39587 0.06645 0.04498 0.0
H451 H 0.34936 0.04132 0.11927 0.0
H452 H 0.40296 0.02803 0.08767 0.0
C453 C 0.37316 0.09151 0.031 0.0
C454 C 0.16246 0.95008 0.54174 0.0
C455 C 0.18439 0.95218 0.57356 0.0
H456 H 0.11501 0.96624 0.51593 0.0
C457 C 0.17443 0.97276 0.60431 0.0
H458 H 0.16948 0.93467 0.51745 0.0
C459 C 0.14361 0.99095 0.60332 0.0
C460 C 0.12161 0.98895 0.57164 0.0
H461 H 0.19017 0.97439 0.62956 0.0
H462 H 0.13692 1.00636 0.62775 0.0
C463 C 0.13135 0.96829 0.54078 0.0
C464 C 0.88022 0.39517 0.94997 0.0
C465 C 0.85014 0.41493 0.95295 0.0
H466 H 0.93549 0.39488 0.95972 0.0
C467 C 0.85216 0.44745 0.97457 0.0
H468 H 0.87971 0.37017 0.93342 0.0
C469 C 0.88429 0.4615 0.99001 0.0
C470 C 0.91489 0.44342 0.98364 0.0
H471 H 0.8293 0.46303 0.97779 0.0
H472 H 0.88564 0.48793 1.00406 0.0
C473 C 0.91225 0.40935 0.96502 0.0
C474 C 0.66249 0.58429 0.46202 0.0
C475 C 0.68184 0.56215 0.43892 0.0
H476 H 0.61611 0.58849 0.49328 0.0
C477 C 0.67066 0.52543 0.43313 0.0
H478 H 0.67033 0.61273 0.46694 0.0
C479 C 0.63954 0.5118 0.44772 0.0
C480 C 0.61909 0.53442 0.4689 0.0
H481 H 0.68544 0.50738 0.41634 0.0
H482 H 0.63097 0.48371 0.44149 0.0
C483 C 0.63141 0.57046 0.47705 0.0
C484 C 0.05982 0.35703 0.11302 0.0
C485 C 0.0831 0.34516 0.08663 0.0
H486 H 0.0253 0.39711 0.13002 0.0
C487 C 0.08715 0.36532 0.05462 0.0
H488 H 0.05622 0.34284 0.13826 0.0
C489 C 0.06937 0.39721 0.04995 0.0
C490 C 0.04725 0.40963 0.07726 0.0
H491 H 0.10446 0.35678 0.0334 0.0
H492 H 0.07398 0.41278 0.02573 0.0
C493 C 0.04216 0.38856 0.10834 0.0
C494 C 0.577 0.12401 0.88147 0.0
C495 C 0.61129 0.131 0.8961 0.0
H496 H 0.52414 0.10655 0.89275 0.0
C497 C 0.6203 0.11502 0.92939 0.0
H498 H 0.56927 0.13444 0.85525 0.0
C499 C 0.59459 0.09728 0.94989 0.0
C500 C 0.55949 0.09581 0.93778 0.0
H501 H 0.64625 0.1195 0.94181 0.0
H502 H 0.60149 0.08907 0.97731 0.0
C503 C 0.55116 0.10725 0.90251 0.0
C504 C 0.96813 0.8488 0.44291 0.0
C505 C 0.94521 0.8376 0.4703 0.0
H506 H 1.00141 0.8914 0.4227 0.0
C507 C 0.94153 0.86093 0.5013 0.0
H508 H 0.97139 0.83191 0.41845 0.0
C509 C 0.9589 0.89552 0.50369 0.0
C510 C 0.97988 0.90733 0.47492 0.0
H511 H 0.92438 0.85292 0.5231 0.0
H512 H 0.95432 0.91366 0.52688 0.0
C513 C 0.9852 0.88316 0.44521 0.0
C514 C 0.5016 0.70242 0.57995 0.0
C515 C 0.46704 0.70679 0.56767 0.0
H516 H 0.54258 0.66618 0.58647 0.0
C517 C 0.44906 0.67805 0.54715 0.0
H518 H 0.51618 0.7237 0.59613 0.0
C519 C 0.46445 0.64485 0.54146 0.0
C520 C 0.49789 0.63978 0.55653 0.0
H521 H 0.42255 0.68068 0.53694 0.0
H522 H 0.44915 0.62243 0.52778 0.0
C523 C 0.51677 0.66933 0.57452 0.0
C524 C 0.92226 0.97285 0.69076 0.0
C525 C 0.91911 0.93499 0.68489 0.0
H526 H 0.94214 0.0238 0.67179 0.0
C527 C 0.93092 0.92008 0.65152 0.0
H528 H 0.91391 0.98544 0.71611 0.0
C529 C 0.94728 0.94239 0.62575 0.0
C530 C 0.95243 0.97994 0.63312 0.0
H531 H 0.92852 0.89105 0.64585 0.0
H532 H 0.95771 0.93005 0.60127 0.0
C533 C 0.93871 0.99492 0.66533 0.0
C534 C 0.5861 0.12643 0.16826 0.0
C535 C 0.58057 0.10199 0.19645 0.0
H536 H 0.57683 0.13786 0.11182 0.0
C537 C 0.56303 0.06806 0.18787 0.0
H538 H 0.59922 0.15289 0.17407 0.0
C539 C 0.55051 0.05919 0.15187 0.0
C540 C 0.55466 0.08447 0.12416 0.0
H541 H 0.55855 0.04867 0.2091 0.0
H542 H 0.53629 0.03329 0.14611 0.0
C543 C 0.57308 0.11789 0.13264 0.0
C544 C 0.42121 0.56999 0.36785 0.0
C545 C 0.41997 0.60512 0.38368 0.0
H546 H 0.43881 0.51663 0.37304 0.0
C547 C 0.43364 0.61204 0.41976 0.0
H548 H 0.41134 0.56371 0.34003 0.0
C549 C 0.44961 0.58483 0.43883 0.0
C550 C 0.45242 0.5503 0.42204 0.0
H551 H 0.43273 0.63872 0.43293 0.0
H552 H 0.46116 0.59133 0.46593 0.0
C553 C 0.43723 0.54298 0.38675 0.0
C554 C 0.12036 0.45939 0.90051 0.0
C555 C 0.12969 0.48165 0.87134 0.0
H556 H 0.08871 0.45283 0.94787 0.0
C557 C 0.11894 0.51736 0.87169 0.0
H558 H 0.12857 0.43187 0.90112 0.0
C559 C 0.09634 0.52924 0.89838 0.0
C560 C 0.08457 0.50592 0.92557 0.0
H561 H 0.12545 0.53511 0.84953 0.0
H562 H 0.08564 0.55558 0.89588 0.0
C563 C 0.09808 0.47156 0.92761 0.0
C564 C 0.67216 0.93879 0.99231 0.0
C565 C 0.68244 0.95598 0.96017 0.0
H566 H 0.6328 0.931 0.03224 0.0
C567 C 0.66153 0.98305 0.94662 0.0
H568 H 0.68795 0.91866 1.00432 0.0
C569 C 0.63001 0.9908 0.96333 0.0
C570 C 0.61865 0.97138 0.9937 0.0
H571 H 0.66843 0.99687 0.92189 0.0
H572 H 0.61348 0.0101 0.95097 0.0
C573 C 0.64067 0.94621 1.00865 0.0
C574 C 0.87523 0.08273 0.41745 0.0
C575 C 0.85002 0.08986 0.4436 0.0
H576 H 0.9265 0.06603 0.40721 0.0
C577 C 0.85905 0.0878 0.48115 0.0
H578 H 0.86928 0.08479 0.38836 0.0
C579 C 0.89213 0.07696 0.49213 0.0
C580 C 0.91676 0.06826 0.46572 0.0
H581 H 0.84011 0.09316 0.50189 0.0
H582 H 0.89798 0.07433 0.52115 0.0
C583 C 0.90814 0.07213 0.42834 0.0
C584 C 0.17185 0.5926 0.08821 0.0
C585 C 0.17256 0.61978 0.11645 0.0
H586 H 0.13997 0.55384 0.05449 0.0
C587 C 0.14074 0.63212 0.12867 0.0
H588 H 0.19599 0.58272 0.07813 0.0
C589 C 0.10901 0.6155 0.11539 0.0
C590 C 0.10838 0.58675 0.08909 0.0
H591 H 0.14033 0.65271 0.1506 0.0
H592 H 0.08496 0.62364 0.12733 0.0
C593 C 0.1399 0.57635 0.07441 0.0
C594 C 0.35637 0.4807 0.61827 0.0
C595 C 0.34372 0.45041 0.59625 0.0
H596 H 0.39832 0.52051 0.63025 0.0
C597 C 0.36455 0.43772 0.56787 0.0
H598 H 0.34076 0.49168 0.63988 0.0
C599 C 0.39741 0.45464 0.56198 0.0
C600 C 0.41028 0.48444 0.58453 0.0
H601 H 0.35582 0.4142 0.55067 0.0
H602 H 0.41299 0.44389 0.54022 0.0
C603 C 0.38931 0.4974 0.61259 0.0
C604 C 0.94407 0.68096 0.9917 0.0
C605 C 0.92463 0.68443 0.95864 0.0
H606 H 0.9739 0.6464 0.02524 0.0
C607 C 0.92045 0.65422 0.934 0.0
H608 H 0.94802 0.70372 1.01128 0.0
C609 C 0.93518 0.62161 0.94198 0.0
C610 C 0.9547 0.61801 0.97488 0.0
H611 H 0.90515 0.65546 0.90866 0.0
H612 H 0.9311 0.59909 0.92213 0.0
C613 C 0.95904 0.64815 0.99969 0.0
C614 C 0.44934 0.91017 0.15962 0.0
C615 C 0.41385 0.90211 0.14968 0.0
H616 H 0.49963 0.92949 0.14152 0.0
C617 C 0.40038 0.91713 0.11756 0.0
H618 H 0.4605 0.90023 0.1847 0.0
C619 C 0.42271 0.93533 0.09369 0.0
C620 C 0.45883 0.93846 0.1013 0.0
H621 H 0.37333 0.91164 0.10868 0.0
H622 H 0.41231 0.94295 0.06726 0.0
C623 C 0.47175 0.92762 0.1353 0.0
C624 C 0.06092 0.20614 0.56155 0.0
C625 C 0.04454 0.22561 0.58965 0.0
H626 H 0.06845 0.15367 0.53645 0.0
C627 C 0.01683 0.20792 0.60782 0.0
H628 H 0.08178 0.21905 0.54633 0.0
C629 C 0.00885 0.17088 0.60149 0.0
C630 C 0.02822 0.15069 0.57686 0.0
H631 H 1.00361 0.22156 0.62974 0.0
H632 H 0.98995 0.15728 0.61871 0.0
C633 C 0.05291 0.16883 0.55531 0.0
C634 C 0.58689 0.35715 0.51681 0.0
C635 C 0.57397 0.32783 0.49353 0.0
H636 H 0.57992 0.41107 0.53733 0.0
C637 C 0.54049 0.32937 0.47695 0.0
H638 H 0.61223 0.35673 0.53067 0.0
C639 C 0.52137 0.36021 0.48187 0.0
C640 C 0.53533 0.39042 0.50325 0.0
H641 H 0.5297 0.30759 0.45857 0.0
H642 H 0.49637 0.36104 0.46737 0.0
C643 C 0.56796 0.38815 0.52135 0.0
loop_
_geom_bond_atom_site_label_1
_geom_bond_atom_site_label_2
_geom_bond_distance
_geom_bond_site_symmetry_2
_ccdc_geom_bond_type
C0 C1 1.264 . S
C0 C5 1.479 . S
C0 C10 1.465 . S
C1 C0 1.264 . S
C1 C3 1.339 . S
C1 H28 0.931 . S
C2 C3 1.395 . S
C2 C4 1.320 . S
C3 C1 1.339 . S
C3 C2 1.395 . S
C3 H29 0.929 . S
C4 C2 1.320 . S
C4 C5 1.405 . S
C4 H30 0.930 . S
C5 C0 1.479 . S
C5 C4 1.405 . S
C5 H31 0.931 . S
U6 O7 2.454 . S
U6 O8 2.458 . S
U6 C9 2.984 . S
U6 C10 2.847 . S
U6 C23 2.882 . S
U6 O24 2.441 . S
U6 O25 2.420 . S
U6 O26 2.455 . S
U6 O27 2.449 . S
O7 U6 2.454 . S
O7 C9 1.353 . S
O8 U6 2.458 . S
O8 C9 1.286 . S
C9 U6 2.984 . S
C9 O7 1.353 . S
C9 O8 1.286 . S
C9 C11 1.363 . S
C10 C0 1.465 . S
C10 U6 2.847 . S
C10 O24 1.249 . S
C10 O25 1.202 . S
C11 C9 1.363 . S
C11 C13 1.408 . S
C11 C16 1.342 . S
C12 C13 1.310 . S
C12 C15 1.461 . S
C12 H32 0.932 . S
C13 C11 1.408 . S
C13 C12 1.310 . S
C13 H33 0.930 . S
C14 C15 1.474 . S
C14 C16 1.285 . S
C14 H34 0.929 . S
C15 C12 1.461 . S
C15 C14 1.474 . S
C16 C11 1.342 . S
C16 C14 1.285 . S
C16 H35 0.930 . S
C17 C20 1.424 . S
C17 C22 1.245 . S
C17 C23 1.428 . S
C18 C21 1.260 . S
C18 C22 1.477 . S
C18 H36 0.932 . S
C19 C20 1.384 . S
C19 C21 1.479 . S
C19 H37 0.929 . S
C20 C17 1.424 . S
C20 C19 1.384 . S
C20 H38 0.928 . S
C21 C18 1.260 . S
C21 C19 1.479 . S
C22 C17 1.245 . S
C22 C18 1.477 . S
C22 H39 0.932 . S
C23 U6 2.882 . S
C23 C17 1.428 . S
C23 O26 1.301 . S
C23 O27 1.282 . S
O24 U6 2.441 . S
O24 C10 1.249 . S
O25 U6 2.420 . S
O25 C10 1.202 . S
O26 U6 2.455 . S
O26 C23 1.301 . S
O27 U6 2.449 . S
O27 C23 1.282 . S
H28 C1 0.931 . S
H29 C3 0.929 . S
H30 C4 0.930 . S
H31 C5 0.931 . S
H32 C12 0.932 . S
H33 C13 0.930 . S
H34 C14 0.929 . S
H35 C16 0.930 . S
H36 C18 0.932 . S
H37 C19 0.929 . S
H38 C20 0.928 . S
H39 C22 0.932 . S
C40 C41 1.264 . S
C40 C45 1.479 . S
C40 C50 1.465 . S
C41 C40 1.264 . S
C41 C43 1.339 . S
C41 H68 0.931 . S
C42 C43 1.395 . S
C42 C44 1.320 . S
C43 C41 1.339 . S
C43 C42 1.395 . S
C43 H69 0.929 . S
C44 C42 1.320 . S
C44 C45 1.405 . S
C44 H70 0.930 . S
C45 C40 1.479 . S
C45 C44 1.405 . S
C45 H71 0.931 . S
U46 O47 2.454 . S
U46 O48 2.458 . S
U46 C49 2.984 . S
U46 C50 2.847 . S
U46 C63 2.882 . S
U46 O64 2.441 . S
U46 O65 2.420 . S
U46 O66 2.455 . S
U46 O67 2.449 . S
O47 U46 2.454 . S
O47 C49 1.353 . S
O48 U46 2.458 . S
O48 C49 1.286 . S
C49 U46 2.984 . S
C49 O47 1.353 . S
C49 O48 1.286 . S
C49 C51 1.363 . S
C50 C40 1.465 . S
C50 U46 2.847 . S
C50 O64 1.249 . S
C50 O65 1.202 . S
C51 C49 1.363 . S
C51 C53 1.408 . S
C51 C56 1.342 . S
C52 C53 1.310 . S
C52 C55 1.461 . S
C52 H72 0.932 . S
C53 C51 1.408 . S
C53 C52 1.310 . S
C53 H73 0.930 . S
C54 C55 1.474 . S
C54 C56 1.285 . S
C54 H74 0.929 . S
C55 C52 1.461 . S
C55 C54 1.474 . S
C56 C51 1.342 . S
C56 C54 1.285 . S
C56 H75 0.930 . S
C57 C60 1.424 . S
C57 C62 1.245 . S
C57 C63 1.428 . S
C58 C61 1.260 . S
C58 C62 1.477 . S
C58 H76 0.932 . S
C59 C60 1.384 . S
C59 C61 1.479 . S
C59 H77 0.929 . S
C60 C57 1.424 . S
C60 C59 1.384 . S
C60 H78 0.928 . S
C61 C58 1.260 . S
C61 C59 1.479 . S
C62 C57 1.245 . S
C62 C58 1.477 . S
C62 H79 0.932 . S
C63 U46 2.882 . S
C63 C57 1.428 . S
C63 O66 1.301 . S
C63 O67 1.282 . S
O64 U46 2.441 . S
O64 C50 1.249 . S
O65 U46 2.420 . S
O65 C50 1.202 . S
O66 U46 2.455 . S
O66 C63 1.301 . S
O67 U46 2.449 . S
O67 C63 1.282 . S
H68 C41 0.931 . S
H69 C43 0.929 . S
H70 C44 0.930 . S
H71 C45 0.931 . S
H72 C52 0.932 . S
H73 C53 0.930 . S
H74 C54 0.929 . S
H75 C56 0.930 . S
H76 C58 0.932 . S
H77 C59 0.929 . S
H78 C60 0.928 . S
H79 C62 0.932 . S
C80 C81 1.264 . S
C80 C85 1.479 . S
C80 C90 1.465 . S
C81 C80 1.264 . S
C81 C83 1.339 . S
C81 H108 0.931 . S
C82 C83 1.395 . S
C82 C84 1.320 . S
C83 C81 1.339 . S
C83 C82 1.395 . S
C83 H109 0.929 . S
C84 C82 1.320 . S
C84 C85 1.405 . S
C84 H110 0.930 . S
C85 C80 1.479 . S
C85 C84 1.405 . S
C85 H111 0.931 . S
U86 O87 2.454 . S
U86 O88 2.458 . S
U86 C89 2.984 . S
U86 C90 2.847 . S
U86 C103 2.882 . S
U86 O104 2.441 . S
U86 O105 2.420 . S
U86 O106 2.455 . S
U86 O107 2.449 . S
O87 U86 2.454 . S
O87 C89 1.353 . S
O88 U86 2.458 . S
O88 C89 1.286 . S
C89 U86 2.984 . S
C89 O87 1.353 . S
C89 O88 1.286 . S
C89 C91 1.363 . S
C90 C80 1.465 . S
C90 U86 2.847 . S
C90 O104 1.249 . S
C90 O105 1.202 . S
C91 C89 1.363 . S
C91 C93 1.408 . S
C91 C96 1.342 . S
C92 C93 1.310 . S
C92 C95 1.461 . S
C92 H112 0.932 . S
C93 C91 1.408 . S
C93 C92 1.310 . S
C93 H113 0.930 . S
C94 C95 1.474 . S
C94 C96 1.285 . S
C94 H114 0.929 . S
C95 C92 1.461 . S
C95 C94 1.474 . S
C96 C91 1.342 . S
C96 C94 1.285 . S
C96 H115 0.930 . S
C97 C100 1.424 . S
C97 C102 1.245 . S
C97 C103 1.428 . S
C98 C101 1.260 . S
C98 C102 1.477 . S
C98 H116 0.932 . S
C99 C100 1.384 . S
C99 C101 1.479 . S
C99 H117 0.929 . S
C100 C97 1.424 . S
C100 C99 1.384 . S
C100 H118 0.928 . S
C101 C98 1.260 . S
C101 C99 1.479 . S
C102 C97 1.245 . S
C102 C98 1.477 . S
C102 H119 0.932 . S
C103 U86 2.882 . S
C103 C97 1.428 . S
C103 O106 1.301 . S
C103 O107 1.282 . S
O104 U86 2.441 . S
O104 C90 1.249 . S
O105 U86 2.420 . S
O105 C90 1.202 . S
O106 U86 2.455 . S
O106 C103 1.301 . S
O107 U86 2.449 . S
O107 C103 1.282 . S
H108 C81 0.931 . S
H109 C83 0.929 . S
H110 C84 0.930 . S
H111 C85 0.931 . S
H112 C92 0.932 . S
H113 C93 0.930 . S
H114 C94 0.929 . S
H115 C96 0.930 . S
H116 C98 0.932 . S
H117 C99 0.929 . S
H118 C100 0.928 . S
H119 C102 0.932 . S
C120 C121 1.264 . S
C120 C125 1.479 . S
C120 C130 1.465 . S
C121 C120 1.264 . S
C121 C123 1.339 . S
C121 H148 0.931 . S
C122 C123 1.395 . S
C122 C124 1.320 . S
C123 C121 1.339 . S
C123 C122 1.395 . S
C123 H149 0.929 . S
C124 C122 1.320 . S
C124 C125 1.405 . S
C124 H150 0.930 . S
C125 C120 1.479 . S
C125 C124 1.405 . S
C125 H151 0.931 . S
U126 O127 2.454 . S
U126 O128 2.458 . S
U126 C129 2.984 . S
U126 C130 2.847 . S
U126 C143 2.882 . S
U126 O144 2.441 . S
U126 O145 2.420 . S
U126 O146 2.455 . S
U126 O147 2.449 . S
O127 U126 2.454 . S
O127 C129 1.353 . S
O128 U126 2.458 . S
O128 C129 1.286 . S
C129 U126 2.984 . S
C129 O127 1.353 . S
C129 O128 1.286 . S
C129 C131 1.363 . S
C130 C120 1.465 . S
C130 U126 2.847 . S
C130 O144 1.249 . S
C130 O145 1.202 . S
C131 C129 1.363 . S
C131 C133 1.408 . S
C131 C136 1.342 . S
C132 C133 1.310 . S
C132 C135 1.461 . S
C132 H152 0.932 . S
C133 C131 1.408 . S
C133 C132 1.310 . S
C133 H153 0.930 . S
C134 C135 1.474 . S
C134 C136 1.285 . S
C134 H154 0.929 . S
C135 C132 1.461 . S
C135 C134 1.474 . S
C136 C131 1.342 . S
C136 C134 1.285 . S
C136 H155 0.930 . S
C137 C140 1.424 . S
C137 C142 1.245 . S
C137 C143 1.428 . S
C138 C141 1.260 . S
C138 C142 1.477 . S
C138 H156 0.932 . S
C139 C140 1.384 . S
C139 C141 1.479 . S
C139 H157 0.929 . S
C140 C137 1.424 . S
C140 C139 1.384 . S
C140 H158 0.928 . S
C141 C138 1.260 . S
C141 C139 1.479 . S
C142 C137 1.245 . S
C142 C138 1.477 . S
C142 H159 0.932 . S
C143 U126 2.882 . S
C143 C137 1.428 . S
C143 O146 1.301 . S
C143 O147 1.282 . S
O144 U126 2.441 . S
O144 C130 1.249 . S
O145 U126 2.420 . S
O145 C130 1.202 . S
O146 U126 2.455 . S
O146 C143 1.301 . S
O147 U126 2.449 . S
O147 C143 1.282 . S
H148 C121 0.931 . S
H149 C123 0.929 . S
H150 C124 0.930 . S
H151 C125 0.931 . S
H152 C132 0.932 . S
H153 C133 0.930 . S
H154 C134 0.929 . S
H155 C136 0.930 . S
H156 C138 0.932 . S
H157 C139 0.929 . S
H158 C140 0.928 . S
H159 C142 0.932 . S
C160 C161 1.264 . S
C160 C165 1.479 . S
C160 C170 1.465 . S
C161 C160 1.264 . S
C161 C163 1.339 . S
C161 H188 0.931 . S
C162 C163 1.395 . S
C162 C164 1.320 . S
C163 C161 1.339 . S
C163 C162 1.395 . S
C163 H189 0.929 . S
C164 C162 1.320 . S
C164 C165 1.405 . S
C164 H190 0.930 . S
C165 C160 1.479 . S
C165 C164 1.405 . S
C165 H191 0.931 . S
U166 O167 2.454 . S
U166 O168 2.458 . S
U166 C169 2.984 . S
U166 C170 2.847 . S
U166 C183 2.882 . S
U166 O184 2.441 . S
U166 O185 2.420 . S
U166 O186 2.455 . S
U166 O187 2.449 . S
O167 U166 2.454 . S
O167 C169 1.353 . S
O168 U166 2.458 . S
O168 C169 1.286 . S
C169 U166 2.984 . S
C169 O167 1.353 . S
C169 O168 1.286 . S
C169 C171 1.363 . S
C170 C160 1.465 . S
C170 U166 2.847 . S
C170 O184 1.249 . S
C170 O185 1.202 . S
C171 C169 1.363 . S
C171 C173 1.408 . S
C171 C176 1.342 . S
C172 C173 1.310 . S
C172 C175 1.461 . S
C172 H192 0.932 . S
C173 C171 1.408 . S
C173 C172 1.310 . S
C173 H193 0.930 . S
C174 C175 1.474 . S
C174 C176 1.285 . S
C174 H194 0.929 . S
C175 C172 1.461 . S
C175 C174 1.474 . S
C176 C171 1.342 . S
C176 C174 1.285 . S
C176 H195 0.930 . S
C177 C180 1.424 . S
C177 C182 1.245 . S
C177 C183 1.428 . S
C178 C181 1.260 . S
C178 C182 1.477 . S
C178 H196 0.932 . S
C179 C180 1.384 . S
C179 C181 1.479 . S
C179 H197 0.929 . S
C180 C177 1.424 . S
C180 C179 1.384 . S
C180 H198 0.928 . S
C181 C178 1.260 . S
C181 C179 1.479 . S
C182 C177 1.245 . S
C182 C178 1.477 . S
C182 H199 0.932 . S
C183 U166 2.882 . S
C183 C177 1.428 . S
C183 O186 1.301 . S
C183 O187 1.282 . S
O184 U166 2.441 . S
O184 C170 1.249 . S
O185 U166 2.420 . S
O185 C170 1.202 . S
O186 U166 2.455 . S
O186 C183 1.301 . S
O187 U166 2.449 . S
O187 C183 1.282 . S
H188 C161 0.931 . S
H189 C163 0.929 . S
H190 C164 0.930 . S
H191 C165 0.931 . S
H192 C172 0.932 . S
H193 C173 0.930 . S
H194 C174 0.929 . S
H195 C176 0.930 . S
H196 C178 0.932 . S
H197 C179 0.929 . S
H198 C180 0.928 . S
H199 C182 0.932 . S
C200 C201 1.264 . S
C200 C205 1.479 . S
C200 C210 1.465 . S
C201 C200 1.264 . S
C201 C203 1.339 . S
C201 H228 0.931 . S
C202 C203 1.395 . S
C202 C204 1.320 . S
C203 C201 1.339 . S
C203 C202 1.395 . S
C203 H229 0.929 . S
C204 C202 1.320 . S
C204 C205 1.405 . S
C204 H230 0.930 . S
C205 C200 1.479 . S
C205 C204 1.405 . S
C205 H231 0.931 . S
U206 O207 2.454 . S
U206 O208 2.458 . S
U206 C209 2.984 . S
U206 C210 2.847 . S
U206 C223 2.882 . S
U206 O224 2.441 . S
U206 O225 2.420 . S
U206 O226 2.455 . S
U206 O227 2.449 . S
O207 U206 2.454 . S
O207 C209 1.353 . S
O208 U206 2.458 . S
O208 C209 1.286 . S
C209 U206 2.984 . S
C209 O207 1.353 . S
C209 O208 1.286 . S
C209 C211 1.363 . S
C210 C200 1.465 . S
C210 U206 2.847 . S
C210 O224 1.249 . S
C210 O225 1.202 . S
C211 C209 1.363 . S
C211 C213 1.408 . S
C211 C216 1.342 . S
C212 C213 1.310 . S
C212 C215 1.461 . S
C212 H232 0.932 . S
C213 C211 1.408 . S
C213 C212 1.310 . S
C213 H233 0.930 . S
C214 C215 1.474 . S
C214 C216 1.285 . S
C214 H234 0.929 . S
C215 C212 1.461 . S
C215 C214 1.474 . S
C216 C211 1.342 . S
C216 C214 1.285 . S
C216 H235 0.930 . S
C217 C220 1.424 . S
C217 C222 1.245 . S
C217 C223 1.428 . S
C218 C221 1.260 . S
C218 C222 1.477 . S
C218 H236 0.932 . S
C219 C220 1.384 . S
C219 C221 1.479 . S
C219 H237 0.929 . S
C220 C217 1.424 . S
C220 C219 1.384 . S
C220 H238 0.928 . S
C221 C218 1.260 . S
C221 C219 1.479 . S
C222 C217 1.245 . S
C222 C218 1.477 . S
C222 H239 0.932 . S
C223 U206 2.882 . S
C223 C217 1.428 . S
C223 O226 1.301 . S
C223 O227 1.282 . S
O224 U206 2.441 . S
O224 C210 1.249 . S
O225 U206 2.420 . S
O225 C210 1.202 . S
O226 U206 2.455 . S
O226 C223 1.301 . S
O227 U206 2.449 . S
O227 C223 1.282 . S
H228 C201 0.931 . S
H229 C203 0.929 . S
H230 C204 0.930 . S
H231 C205 0.931 . S
H232 C212 0.932 . S
H233 C213 0.930 . S
H234 C214 0.929 . S
H235 C216 0.930 . S
H236 C218 0.932 . S
H237 C219 0.929 . S
H238 C220 0.928 . S
H239 C222 0.932 . S
C240 C241 1.264 . S
C240 C245 1.479 . S
C240 C250 1.465 . S
C241 C240 1.264 . S
C241 C243 1.339 . S
C241 H268 0.931 . S
C242 C243 1.395 . S
C242 C244 1.320 . S
C243 C241 1.339 . S
C243 C242 1.395 . S
C243 H269 0.929 . S
C244 C242 1.320 . S
C244 C245 1.405 . S
C244 H270 0.930 . S
C245 C240 1.479 . S
C245 C244 1.405 . S
C245 H271 0.931 . S
U246 O247 2.454 . S
U246 O248 2.458 . S
U246 C249 2.984 . S
U246 C250 2.847 . S
U246 C263 2.882 . S
U246 O264 2.441 . S
U246 O265 2.420 . S
U246 O266 2.455 . S
U246 O267 2.449 . S
O247 U246 2.454 . S
O247 C249 1.353 . S
O248 U246 2.458 . S
O248 C249 1.286 . S
C249 U246 2.984 . S
C249 O247 1.353 . S
C249 O248 1.286 . S
C249 C251 1.363 . S
C250 C240 1.465 . S
C250 U246 2.847 . S
C250 O264 1.249 . S
C250 O265 1.202 . S
C251 C249 1.363 . S
C251 C253 1.408 . S
C251 C256 1.342 . S
C252 C253 1.310 . S
C252 C255 1.461 . S
C252 H272 0.932 . S
C253 C251 1.408 . S
C253 C252 1.310 . S
C253 H273 0.930 . S
C254 C255 1.474 . S
C254 C256 1.285 . S
C254 H274 0.929 . S
C255 C252 1.461 . S
C255 C254 1.474 . S
C256 C251 1.342 . S
C256 C254 1.285 . S
C256 H275 0.930 . S
C257 C260 1.424 . S
C257 C262 1.245 . S
C257 C263 1.428 . S
C258 C261 1.260 . S
C258 C262 1.477 . S
C258 H276 0.932 . S
C259 C260 1.384 . S
C259 C261 1.479 . S
C259 H277 0.929 . S
C260 C257 1.424 . S
C260 C259 1.384 . S
C260 H278 0.928 . S
C261 C258 1.260 . S
C261 C259 1.479 . S
C262 C257 1.245 . S
C262 C258 1.477 . S
C262 H279 0.932 . S
C263 U246 2.882 . S
C263 C257 1.428 . S
C263 O266 1.301 . S
C263 O267 1.282 . S
O264 U246 2.441 . S
O264 C250 1.249 . S
O265 U246 2.420 . S
O265 C250 1.202 . S
O266 U246 2.455 . S
O266 C263 1.301 . S
O267 U246 2.449 . S
O267 C263 1.282 . S
H268 C241 0.931 . S
H269 C243 0.929 . S
H270 C244 0.930 . S
H271 C245 0.931 . S
H272 C252 0.932 . S
H273 C253 0.930 . S
H274 C254 0.929 . S
H275 C256 0.930 . S
H276 C258 0.932 . S
H277 C259 0.929 . S
H278 C260 0.928 . S
H279 C262 0.932 . S
C280 C281 1.264 . S
C280 C285 1.479 . S
C280 C290 1.465 . S
C281 C280 1.264 . S
C281 C283 1.339 . S
C281 H308 0.931 . S
C282 C283 1.395 . S
C282 C284 1.320 . S
C283 C281 1.339 . S
C283 C282 1.395 . S
C283 H309 0.929 . S
C284 C282 1.320 . S
C284 C285 1.405 . S
C284 H310 0.930 . S
C285 C280 1.479 . S
C285 C284 1.405 . S
C285 H311 0.931 . S
U286 O287 2.454 . S
U286 O288 2.458 . S
U286 C289 2.984 . S
U286 C290 2.847 . S
U286 C303 2.882 . S
U286 O304 2.441 . S
U286 O305 2.420 . S
U286 O306 2.455 . S
U286 O307 2.449 . S
O287 U286 2.454 . S
O287 C289 1.353 . S
O288 U286 2.458 . S
O288 C289 1.286 . S
C289 U286 2.984 . S
C289 O287 1.353 . S
C289 O288 1.286 . S
C289 C291 1.363 . S
C290 C280 1.465 . S
C290 U286 2.847 . S
C290 O304 1.249 . S
C290 O305 1.202 . S
C291 C289 1.363 . S
C291 C293 1.408 . S
C291 C296 1.342 . S
C292 C293 1.310 . S
C292 C295 1.461 . S
C292 H312 0.932 . S
C293 C291 1.408 . S
C293 C292 1.310 . S
C293 H313 0.930 . S
C294 C295 1.474 . S
C294 C296 1.285 . S
C294 H314 0.929 . S
C295 C292 1.461 . S
C295 C294 1.474 . S
C296 C291 1.342 . S
C296 C294 1.285 . S
C296 H315 0.930 . S
C297 C300 1.424 . S
C297 C302 1.245 . S
C297 C303 1.428 . S
C298 C301 1.260 . S
C298 C302 1.477 . S
C298 H316 0.932 . S
C299 C300 1.384 . S
C299 C301 1.479 . S
C299 H317 0.929 . S
C300 C297 1.424 . S
C300 C299 1.384 . S
C300 H318 0.928 . S
C301 C298 1.260 . S
C301 C299 1.479 . S
C302 C297 1.245 . S
C302 C298 1.477 . S
C302 H319 0.932 . S
C303 U286 2.882 . S
C303 C297 1.428 . S
C303 O306 1.301 . S
C303 O307 1.282 . S
O304 U286 2.441 . S
O304 C290 1.249 . S
O305 U286 2.420 . S
O305 C290 1.202 . S
O306 U286 2.455 . S
O306 C303 1.301 . S
O307 U286 2.449 . S
O307 C303 1.282 . S
H308 C281 0.931 . S
H309 C283 0.929 . S
H310 C284 0.930 . S
H311 C285 0.931 . S
H312 C292 0.932 . S
H313 C293 0.930 . S
H314 C294 0.929 . S
H315 C296 0.930 . S
H316 C298 0.932 . S
H317 C299 0.929 . S
H318 C300 0.928 . S
H319 C302 0.932 . S
O320 Mg321 1.990 . S
O320 C334 1.253 1_445 S
Mg321 O320 1.990 . S
Mg321 O324 2.180 . S
Mg321 O325 2.117 . S
Mg321 O339 2.030 1_545 S
O322 Mg323 2.072 1_665 S
O322 C334 1.260 . S
Mg323 O322 2.072 1_445 S
Mg323 O324 2.099 . S
Mg323 O326 2.079 . S
Mg323 O327 2.072 1_455 S
Mg323 O329 2.099 1_445 S
Mg323 O340 2.079 1_545 S
O324 Mg321 2.180 . S
O324 Mg323 2.099 . S
O324 C335 1.279 . S
O325 Mg321 2.117 . S
O325 C335 1.250 . S
O326 Mg323 2.079 . S
O326 C336 1.264 . S
O327 Mg323 2.072 1_655 S
O327 C337 1.260 . S
Mg328 O329 2.180 . S
Mg328 O330 2.030 1_565 S
Mg328 O331 1.990 1_565 S
Mg328 O332 2.117 . S
O329 Mg323 2.099 1_665 S
O329 Mg328 2.180 . S
O329 C338 1.279 . S
O330 Mg328 2.030 1_545 S
O330 C336 1.248 1_655 S
O331 Mg328 1.990 1_545 S
O331 C337 1.253 . S
O332 Mg328 2.117 . S
O332 C338 1.250 . S
C333 O339 1.248 . S
C333 O340 1.264 . S
C334 O320 1.253 1_665 S
C334 O322 1.260 . S
C335 O324 1.279 . S
C335 O325 1.250 . S
C336 O326 1.264 . S
C336 O330 1.248 1_455 S
C337 O327 1.260 . S
C337 O331 1.253 . S
C338 O329 1.279 . S
C338 O332 1.250 . S
O339 Mg321 2.030 1_565 S
O339 C333 1.248 . S
O340 Mg323 2.079 1_565 S
O340 C333 1.264 . S
O341 Mg342 1.990 . S
O341 C355 1.253 . S
Mg342 O341 1.990 . S
Mg342 O345 2.180 . S
Mg342 O346 2.117 1_554 S
Mg342 O360 2.030 . S
O343 Mg344 2.072 . S
O343 C355 1.260 . S
Mg344 O343 2.072 . S
Mg344 O345 2.099 . S
Mg344 O347 2.082 1_554 S
Mg344 O348 2.072 1_554 S
Mg344 O350 2.099 1_545 S
Mg344 O361 2.079 . S
O345 Mg342 2.180 . S
O345 Mg344 2.099 . S
O345 C356 1.279 1_554 S
O346 Mg342 2.117 1_556 S
O346 C356 1.250 . S
O347 Mg344 2.082 1_556 S
O347 C357 1.255 1_545 S
O348 Mg344 2.072 1_556 S
O348 C358 1.260 1_545 S
Mg349 O350 2.180 1_556 S
Mg349 O351 2.030 . S
Mg349 O352 1.990 . S
Mg349 O353 2.117 1_556 S
O350 Mg344 2.099 1_565 S
O350 Mg349 2.180 1_554 S
O350 C359 1.279 . S
O351 Mg349 2.030 . S
O351 C357 1.248 . S
O352 Mg349 1.990 . S
O352 C358 1.253 . S
O353 Mg349 2.117 1_554 S
O353 C359 1.250 . S
C354 O360 1.248 . S
C354 O361 1.264 . S
C355 O341 1.253 . S
C355 O343 1.260 . S
C356 O345 1.279 1_556 S
C356 O346 1.250 . S
C357 O347 1.255 1_565 S
C357 O351 1.248 . S
C358 O348 1.260 1_565 S
C358 O352 1.253 . S
C359 O350 1.279 . S
C359 O353 1.250 . S
O360 Mg342 2.030 . S
O360 C354 1.248 . S
O361 Mg344 2.079 . S
O361 C354 1.264 . S
O362 Mg363 1.990 . S
O362 C376 1.253 . S
Mg363 O362 1.990 . S
Mg363 O366 2.180 . S
Mg363 O367 2.117 . S
Mg363 O381 2.030 . S
O364 Mg365 2.072 . S
O364 C376 1.260 . S
Mg365 O364 2.072 . S
Mg365 O366 2.099 . S
Mg365 O368 2.079 . S
Mg365 O369 2.072 . S
Mg365 O371 2.099 . S
Mg365 O382 2.079 . S
O366 Mg363 2.180 . S
O366 Mg365 2.099 . S
O366 C377 1.279 . S
O367 Mg363 2.117 . S
O367 C377 1.250 . S
O368 Mg365 2.079 . S
O368 C378 1.264 . S
O369 Mg365 2.072 . S
O369 C379 1.260 . S
Mg370 O371 2.180 . S
Mg370 O372 2.030 . S
Mg370 O373 1.990 . S
Mg370 O374 2.117 . S
O371 Mg365 2.099 . S
O371 Mg370 2.180 . S
O371 C380 1.279 . S
O372 Mg370 2.030 . S
O372 C378 1.248 . S
O373 Mg370 1.990 . S
O373 C379 1.253 . S
O374 Mg370 2.117 . S
O374 C380 1.250 . S
C375 O381 1.248 . S
C375 O382 1.264 . S
C376 O362 1.253 . S
C376 O364 1.260 . S
C377 O366 1.279 . S
C377 O367 1.250 . S
C378 O368 1.264 . S
C378 O372 1.248 . S
C379 O369 1.260 . S
C379 O373 1.253 . S
C380 O371 1.279 . S
C380 O374 1.250 . S
O381 Mg363 2.030 . S
O381 C375 1.248 . S
O382 Mg365 2.079 . S
O382 C375 1.264 . S
O383 Mg384 1.990 . S
O383 C397 1.253 . S
Mg384 O383 1.990 . S
Mg384 O387 2.158 1_455 S
Mg384 O388 2.117 1_455 S
Mg384 O402 2.030 . S
O385 Mg386 2.072 . S
O385 C397 1.260 . S
Mg386 O385 2.072 . S
Mg386 O387 2.093 1_455 S
Mg386 O389 2.079 1_454 S
Mg386 O390 2.072 1_455 S
Mg386 O392 2.099 1_554 S
Mg386 O403 2.079 . S
O387 Mg384 2.158 1_655 S
O387 Mg386 2.093 1_655 S
O387 C398 1.300 . S
O388 Mg384 2.117 1_655 S
O388 C398 1.250 . S
O389 Mg386 2.079 1_656 S
O389 C399 1.264 . S
O390 Mg386 2.072 1_655 S
O390 C400 1.260 1_554 S
Mg391 O392 2.180 1_655 S
Mg391 O393 2.030 . S
Mg391 O394 1.990 . S
Mg391 O395 2.119 1_655 S
O392 Mg386 2.099 1_556 S
O392 Mg391 2.180 1_455 S
O392 C401 1.279 . S
O393 Mg391 2.030 . S
O393 C399 1.248 . S
O394 Mg391 1.990 . S
O394 C400 1.253 . S
O395 Mg391 2.119 1_455 S
O395 C401 1.248 . S
C396 O402 1.248 . S
C396 O403 1.264 . S
C397 O383 1.253 . S
C397 O385 1.260 . S
C398 O387 1.300 . S
C398 O388 1.250 . S
C399 O389 1.264 . S
C399 O393 1.248 . S
C400 O390 1.260 1_556 S
C400 O394 1.253 . S
C401 O392 1.279 . S
C401 O395 1.248 . S
O402 Mg384 2.030 . S
O402 C396 1.248 . S
O403 Mg386 2.079 . S
O403 C396 1.264 . S
C404 C405 1.387 . S
C404 H408 0.950 . S
C404 C413 1.390 . S
C405 C404 1.387 . S
C405 C407 1.387 . S
H406 C413 0.950 1_565 S
C407 C405 1.387 . S
C407 C409 1.390 . S
C407 H411 0.950 . S
H408 C404 0.950 . S
C409 C407 1.390 . S
C409 C410 1.387 . S
C409 H412 0.950 . S
C410 C409 1.387 . S
C410 C413 1.387 . S
H411 C407 0.950 . S
H412 C409 0.950 . S
C413 C404 1.390 . S
C413 H406 0.950 1_545 S
C413 C410 1.387 . S
C414 C415 1.387 1_545 S
C414 H418 0.950 . S
C414 C423 1.390 . S
C415 C414 1.387 1_565 S
C415 C417 1.387 . S
H416 C423 0.950 . S
C417 C415 1.387 . S
C417 C419 1.390 . S
C417 H421 0.950 . S
H418 C414 0.950 . S
C419 C417 1.390 . S
C419 C420 1.387 . S
C419 H422 0.950 . S
C420 C419 1.387 . S
C420 C423 1.387 1_565 S
H421 C417 0.950 . S
H422 C419 0.950 . S
C423 C414 1.390 . S
C423 H416 0.950 . S
C423 C420 1.387 1_545 S
C424 C425 1.387 . S
C424 H428 0.950 . S
C424 C433 1.390 . S
C425 C424 1.387 . S
C425 C427 1.387 . S
H426 C433 0.950 . S
C427 C425 1.387 . S
C427 C429 1.390 . S
C427 H431 0.950 . S
H428 C424 0.950 . S
C429 C427 1.390 . S
C429 C430 1.387 . S
C429 H432 0.950 . S
C430 C429 1.387 . S
C430 C433 1.387 . S
H431 C427 0.950 . S
H432 C429 0.950 . S
C433 C424 1.390 . S
C433 H426 0.950 . S
C433 C430 1.387 . S
C434 C435 1.387 . S
C434 H438 0.950 . S
C434 C443 1.390 . S
C435 C434 1.387 . S
C435 C437 1.387 . S
H436 C443 0.950 . S
C437 C435 1.387 . S
C437 C439 1.390 . S
C437 H441 0.950 . S
H438 C434 0.950 . S
C439 C437 1.390 . S
C439 C440 1.387 . S
C439 H442 0.950 . S
C440 C439 1.387 . S
C440 C443 1.387 . S
H441 C437 0.950 . S
H442 C439 0.950 . S
C443 C434 1.390 . S
C443 H436 0.950 . S
C443 C440 1.387 . S
C444 C445 1.387 . S
C444 H448 0.950 . S
C444 C453 1.390 . S
C445 C444 1.387 . S
C445 C447 1.387 . S
H446 C453 0.967 . S
C447 C445 1.387 . S
C447 C449 1.390 . S
C447 H451 0.950 . S
H448 C444 0.950 . S
C449 C447 1.390 . S
C449 C450 1.387 . S
C449 H452 0.950 . S
C450 C449 1.387 . S
C450 C453 1.387 . S
H451 C447 0.950 . S
H452 C449 0.950 . S
C453 C444 1.390 . S
C453 H446 0.967 . S
C453 C450 1.387 . S
C454 C455 1.387 . S
C454 H458 0.950 . S
C454 C463 1.390 . S
C455 C454 1.387 . S
C455 C457 1.387 . S
H456 C463 0.950 . S
C457 C455 1.387 . S
C457 C459 1.390 . S
C457 H461 0.950 . S
H458 C454 0.950 . S
C459 C457 1.390 . S
C459 C460 1.387 . S
C459 H462 0.950 . S
C460 C459 1.387 . S
C460 C463 1.387 . S
H461 C457 0.950 . S
H462 C459 0.950 . S
C463 C454 1.390 . S
C463 H456 0.950 . S
C463 C460 1.387 . S
C464 C465 1.387 . S
C464 H468 0.950 . S
C464 C473 1.390 . S
C465 C464 1.387 . S
C465 C467 1.387 . S
H466 C473 0.950 1_554 S
C467 C465 1.387 . S
C467 C469 1.390 . S
C467 H471 0.950 . S
H468 C464 0.950 . S
C469 C467 1.390 . S
C469 C470 1.387 . S
C469 H472 0.950 . S
C470 C469 1.387 . S
C470 C473 1.387 . S
H471 C467 0.950 . S
H472 C469 0.950 . S
C473 C464 1.390 . S
C473 H466 0.950 1_556 S
C473 C470 1.387 . S
C474 C475 1.387 . S
C474 H478 0.950 . S
C474 C483 1.390 . S
C475 C474 1.387 . S
C475 C477 1.387 . S
H476 C483 0.950 . S
C477 C475 1.387 . S
C477 C479 1.390 . S
C477 H481 0.950 . S
H478 C474 0.950 . S
C479 C477 1.390 . S
C479 C480 1.387 . S
C479 H482 0.950 . S
C480 C479 1.387 . S
C480 C483 1.387 . S
H481 C477 0.950 . S
H482 C479 0.950 . S
C483 C474 1.390 . S
C483 H476 0.950 . S
C483 C480 1.387 . S
C484 C485 1.387 . S
C484 H488 0.950 . S
C484 C493 1.390 . S
C485 C484 1.387 . S
C485 C487 1.387 . S
H486 C493 0.950 . S
C487 C485 1.387 . S
C487 C489 1.390 . S
C487 H491 0.950 1_554 S
H488 C484 0.950 . S
C489 C487 1.390 . S
C489 C490 1.387 . S
C489 H492 0.950 1_554 S
C490 C489 1.387 . S
C490 C493 1.387 . S
H491 C487 0.950 1_556 S
H492 C489 0.950 1_556 S
C493 C484 1.390 . S
C493 H486 0.950 . S
C493 C490 1.387 . S
C494 C495 1.387 . S
C494 H498 0.950 . S
C494 C503 1.390 . S
C495 C494 1.387 . S
C495 C497 1.387 . S
H496 C503 0.950 . S
C497 C495 1.387 . S
C497 C499 1.390 . S
C497 H501 0.950 1_556 S
H498 C494 0.950 . S
C499 C497 1.390 . S
C499 C500 1.387 . S
C499 H502 0.950 1_556 S
C500 C499 1.387 . S
C500 C503 1.387 . S
H501 C497 0.950 1_554 S
H502 C499 0.950 1_554 S
C503 C494 1.390 . S
C503 H496 0.950 . S
C503 C500 1.387 . S
C504 C505 1.387 . S
C504 H508 0.950 . S
C504 C513 1.390 . S
C505 C504 1.387 . S
C505 C507 1.387 . S
H506 C513 0.950 . S
C507 C505 1.387 . S
C507 C509 1.390 . S
C507 H511 0.950 . S
H508 C504 0.950 . S
C509 C507 1.390 . S
C509 C510 1.387 . S
C509 H512 0.950 . S
C510 C509 1.387 . S
C510 C513 1.387 . S
H511 C507 0.950 . S
H512 C509 0.950 . S
C513 C504 1.390 . S
C513 H506 0.950 . S
C513 C510 1.387 . S
C514 C515 1.387 . S
C514 H518 0.950 . S
C514 C523 1.390 . S
C515 C514 1.387 . S
C515 C517 1.387 . S
H516 C523 0.950 . S
C517 C515 1.387 . S
C517 C519 1.390 . S
C517 H521 0.950 . S
H518 C514 0.950 . S
C519 C517 1.390 . S
C519 C520 1.387 . S
C519 H522 0.950 . S
C520 C519 1.387 . S
C520 C523 1.387 . S
H521 C517 0.950 . S
H522 C519 0.950 . S
C523 C514 1.390 . S
C523 H516 0.950 . S
C523 C520 1.387 . S
C524 C525 1.387 . S
C524 H528 0.950 1_565 S
C524 C533 1.387 1_565 S
C525 C524 1.387 . S
C525 C527 1.387 . S
H526 C533 0.975 . S
C527 C525 1.387 . S
C527 C529 1.390 . S
C527 H531 0.950 . S
H528 C524 0.950 1_545 S
C529 C527 1.390 . S
C529 C530 1.387 . S
C529 H532 0.950 . S
C530 C529 1.387 . S
C530 C533 1.366 1_565 S
H531 C527 0.950 . S
H532 C529 0.950 . S
C533 C524 1.387 1_545 S
C533 H526 0.975 . S
C533 C530 1.366 1_545 S
C534 C535 1.387 . S
C534 H538 0.950 . S
C534 C543 1.390 . S
C535 C534 1.387 . S
C535 C537 1.387 . S
H536 C543 0.950 . S
C537 C535 1.387 . S
C537 C539 1.390 . S
C537 H541 0.950 . S
H538 C534 0.950 . S
C539 C537 1.390 . S
C539 C540 1.387 . S
C539 H542 0.950 1_545 S
C540 C539 1.387 . S
C540 C543 1.387 . S
H541 C537 0.950 . S
H542 C539 0.950 1_565 S
C543 C534 1.390 . S
C543 H536 0.950 . S
C543 C540 1.387 . S
C544 C545 1.387 . S
C544 H548 0.950 . S
C544 C553 1.390 . S
C545 C544 1.387 . S
C545 C547 1.387 . S
H546 C553 0.950 . S
C547 C545 1.387 . S
C547 C549 1.390 . S
C547 H551 0.950 . S
H548 C544 0.950 . S
C549 C547 1.390 . S
C549 C550 1.387 . S
C549 H552 0.950 . S
C550 C549 1.387 . S
C550 C553 1.387 . S
H551 C547 0.950 . S
H552 C549 0.950 . S
C553 C544 1.390 . S
C553 H546 0.950 . S
C553 C550 1.387 . S
C554 C555 1.387 . S
C554 H558 0.950 . S
C554 C563 1.390 . S
C555 C554 1.387 . S
C555 C557 1.387 . S
H556 C563 0.950 . S
C557 C555 1.387 . S
C557 C559 1.390 . S
C557 H561 0.950 . S
H558 C554 0.950 . S
C559 C557 1.390 . S
C559 C560 1.387 . S
C559 H562 0.950 . S
C560 C559 1.387 . S
C560 C563 1.387 . S
H561 C557 0.950 . S
H562 C559 0.950 . S
C563 C554 1.390 . S
C563 H556 0.950 . S
C563 C560 1.387 . S
C564 C565 1.387 . S
C564 H568 0.952 . S
C564 C573 1.390 . S
C565 C564 1.387 . S
C565 C567 1.387 . S
H566 C573 0.950 1_554 S
C567 C565 1.387 . S
C567 C569 1.390 . S
C567 H571 0.958 . S
H568 C564 0.952 . S
C569 C567 1.390 . S
C569 C570 1.387 . S
C569 H572 0.950 1_565 S
C570 C569 1.387 . S
C570 C573 1.387 . S
H571 C567 0.958 . S
H572 C569 0.950 1_545 S
C573 C564 1.390 . S
C573 H566 0.950 1_556 S
C573 C570 1.387 . S
C574 C575 1.387 . S
C574 H578 0.950 . S
C574 C583 1.390 . S
C575 C574 1.387 . S
C575 C577 1.387 . S
H576 C583 0.950 . S
C577 C575 1.387 . S
C577 C579 1.390 . S
C577 H581 0.950 . S
H578 C574 0.950 . S
C579 C577 1.390 . S
C579 C580 1.387 . S
C579 H582 0.950 . S
C580 C579 1.387 . S
C580 C583 1.387 . S
H581 C577 0.950 . S
H582 C579 0.950 . S
C583 C574 1.390 . S
C583 H576 0.950 . S
C583 C580 1.387 . S
C584 C585 1.387 . S
C584 H588 0.950 . S
C584 C593 1.390 . S
C585 C584 1.387 . S
C585 C587 1.387 . S
H586 C593 0.950 . S
C587 C585 1.387 . S
C587 C589 1.390 . S
C587 H591 0.950 . S
H588 C584 0.950 . S
C589 C587 1.390 . S
C589 C590 1.387 . S
C589 H592 0.950 . S
C590 C589 1.387 . S
C590 C593 1.387 . S
H591 C587 0.950 . S
H592 C589 0.950 . S
C593 C584 1.390 . S
C593 H586 0.950 . S
C593 C590 1.387 . S
C594 C595 1.387 . S
C594 H598 0.950 . S
C594 C603 1.390 . S
C595 C594 1.387 . S
C595 C597 1.387 . S
H596 C603 0.950 . S
C597 C595 1.387 . S
C597 C599 1.390 . S
C597 H601 0.950 . S
H598 C594 0.950 . S
C599 C597 1.390 . S
C599 C600 1.387 . S
C599 H602 0.950 . S
C600 C599 1.387 . S
C600 C603 1.387 . S
H601 C597 0.950 . S
H602 C599 0.950 . S
C603 C594 1.390 . S
C603 H596 0.950 . S
C603 C600 1.387 . S
C604 C605 1.387 . S
C604 H608 0.950 1_556 S
C604 C613 1.390 1_556 S
C605 C604 1.387 . S
C605 C607 1.387 . S
H606 C613 0.950 . S
C607 C605 1.387 . S
C607 C609 1.390 . S
C607 H611 0.950 . S
H608 C604 0.950 1_554 S
C609 C607 1.390 . S
C609 C610 1.387 . S
C609 H612 0.950 . S
C610 C609 1.387 . S
C610 C613 1.387 1_556 S
H611 C607 0.950 . S
H612 C609 0.950 . S
C613 C604 1.390 1_554 S
C613 H606 0.950 . S
C613 C610 1.387 1_554 S
C614 C615 1.387 . S
C614 H618 0.950 . S
C614 C623 1.390 . S
C615 C614 1.387 . S
C615 C617 1.387 . S
H616 C623 0.950 . S
C617 C615 1.387 . S
C617 C619 1.390 . S
C617 H621 0.950 . S
H618 C614 0.950 . S
C619 C617 1.390 . S
C619 C620 1.387 . S
C619 H622 0.950 1_554 S
C620 C619 1.387 . S
C620 C623 1.387 . S
H621 C617 0.950 . S
H622 C619 0.950 1_556 S
C623 C614 1.390 . S
C623 H616 0.950 . S
C623 C620 1.387 . S
C624 C625 1.387 . S
C624 H628 0.950 . S
C624 C633 1.390 . S
C625 C624 1.387 . S
C625 C627 1.387 . S
H626 C633 0.950 . S
C627 C625 1.387 . S
C627 C629 1.390 . S
C627 H631 0.950 . S
H628 C624 0.950 . S
C629 C627 1.390 . S
C629 C630 1.387 . S
C629 H632 0.950 . S
C630 C629 1.387 . S
C630 C633 1.387 . S
H631 C627 0.950 . S
H632 C629 0.950 . S
C633 C624 1.390 . S
C633 H626 0.950 . S
C633 C630 1.387 . S
C634 C635 1.387 . S
C634 H638 0.950 . S
C634 C643 1.390 . S
C635 C634 1.387 . S
C635 C637 1.387 . S
H636 C643 0.950 . S
C637 C635 1.387 . S
C637 C639 1.390 . S
C637 H641 0.950 . S
H638 C634 0.950 . S
C639 C637 1.390 . S
C639 C640 1.387 . S
C639 H642 0.950 . S
C640 C639 1.387 . S
C640 C643 1.387 . S
H641 C637 0.950 . S
H642 C639 0.950 . S
C643 C634 1.390 . S
C643 H636 0.950 . S
C643 C640 1.387 . S
C405 C21 1.654 . S
C410 C336 1.577 . S
C415 C61 1.506 . S
C420 C358 1.534 . S
C430 C377 1.161 . S
C425 C82 1.496 . S
C435 C135 1.910 . S
C440 C398 1.479 . S
C450 C355 1.778 . S
C445 C15 1.817 . S
C460 C333 1.731 . S
C455 C42 1.705 . S
C470 C400 1.374 . S
C465 C101 1.444 . S
C480 C379 1.555 . S
C475 C122 1.597 . S
C485 C2 1.786 . S
C490 C397 1.744 . S
C500 C356 1.252 . S
C495 C95 1.624 . S
C505 C141 1.801 . S
C510 C338 1.694 . S
C515 C55 1.571 . S
C520 C376 1.604 . S
C530 C334 1.585 . S
C525 C181 1.629 . S
C535 C202 1.340 . S
C540 C354 1.375 . S
C545 C255 1.526 . S
C550 C380 1.228 . S
C555 C295 1.819 . S
C560 C401 1.402 . S
C565 C175 1.728 . S
C570 C357 1.735 . S
C580 C337 1.792 . S
C575 C221 1.787 . S
C590 C396 1.214 . S
C585 C242 1.237 . S
C600 C375 1.648 . S
C595 C301 1.701 . S
C605 C162 1.527 . S
C610 C399 1.567 . S
C620 C359 1.240 . S
C615 C261 1.497 . S
C630 C335 1.517 . S
C625 C282 1.609 . S
C635 C215 1.544 . S
C640 C378 1.577 . S
