# Generated by pormake.
# Topology gar, (4,6)-cn, num edge types: 1
# Building blocks:
#     Node 0, Type 0, BuildingBlock: QUQFOY_clean_sbu_1, # of connection points: 4
#     Node 1, Type 0, BuildingBlock: QUQFOY_clean_sbu_1, # of connection points: 4
#     Node 2, Type 0, BuildingBlock: QUQFOY_clean_sbu_1, # of connection points: 4
#     Node 3, Type 0, BuildingBlock: QUQFOY_clean_sbu_1, # of connection points: 4
#     Node 4, Type 0, BuildingBlock: QUQFOY_clean_sbu_1, # of connection points: 4
#     Node 5, Type 0, BuildingBlock: QUQFOY_clean_sbu_1, # of connection points: 4
#     Node 6, Type 0, BuildingBlock: QUQFOY_clean_sbu_1, # of connection points: 4
#     Node 7, Type 0, BuildingBlock: QUQFOY_clean_sbu_1, # of connection points: 4
#     Node 8, Type 0, BuildingBlock: QUQFOY_clean_sbu_1, # of connection points: 4
#     Node 9, Type 0, BuildingBlock: QUQFOY_clean_sbu_1, # of connection points: 4
#     Node 10, Type 0, BuildingBlock: QUQFOY_clean_sbu_1, # of connection points: 4
#     Node 11, Type 0, BuildingBlock: QUQFOY_clean_sbu_1, # of connection points: 4
#     Node 12, Type 0, BuildingBlock: QUQFOY_clean_sbu_1, # of connection points: 4
#     Node 13, Type 0, BuildingBlock: QUQFOY_clean_sbu_1, # of connection points: 4
#     Node 14, Type 0, BuildingBlock: QUQFOY_clean_sbu_1, # of connection points: 4
#     Node 15, Type 0, BuildingBlock: QUQFOY_clean_sbu_1, # of connection points: 4
#     Node 16, Type 0, BuildingBlock: QUQFOY_clean_sbu_1, # of connection points: 4
#     Node 17, Type 0, BuildingBlock: QUQFOY_clean_sbu_1, # of connection points: 4
#     Node 18, Type 0, BuildingBlock: QUQFOY_clean_sbu_1, # of connection points: 4
#     Node 19, Type 0, BuildingBlock: QUQFOY_clean_sbu_1, # of connection points: 4
#     Node 20, Type 0, BuildingBlock: QUQFOY_clean_sbu_1, # of connection points: 4
#     Node 21, Type 0, BuildingBlock: QUQFOY_clean_sbu_1, # of connection points: 4
#     Node 22, Type 0, BuildingBlock: QUQFOY_clean_sbu_1, # of connection points: 4
#     Node 23, Type 0, BuildingBlock: QUQFOY_clean_sbu_1, # of connection points: 4
#     Node 24, Type 1, BuildingBlock: KUMBOL_clean_sbu_0, # of connection points: 6
#     Node 25, Type 1, BuildingBlock: KUMBOL_clean_sbu_0, # of connection points: 6
#     Node 26, Type 1, BuildingBlock: KUMBOL_clean_sbu_0, # of connection points: 6
#     Node 27, Type 1, BuildingBlock: KUMBOL_clean_sbu_0, # of connection points: 6
#     Node 28, Type 1, BuildingBlock: KUMBOL_clean_sbu_0, # of connection points: 6
#     Node 29, Type 1, BuildingBlock: KUMBOL_clean_sbu_0, # of connection points: 6
#     Node 30, Type 1, BuildingBlock: KUMBOL_clean_sbu_0, # of connection points: 6
#     Node 31, Type 1, BuildingBlock: KUMBOL_clean_sbu_0, # of connection points: 6
#     Node 32, Type 1, BuildingBlock: KUMBOL_clean_sbu_0, # of connection points: 6
#     Node 33, Type 1, BuildingBlock: KUMBOL_clean_sbu_0, # of connection points: 6
#     Node 34, Type 1, BuildingBlock: KUMBOL_clean_sbu_0, # of connection points: 6
#     Node 35, Type 1, BuildingBlock: KUMBOL_clean_sbu_0, # of connection points: 6
#     Node 36, Type 1, BuildingBlock: KUMBOL_clean_sbu_0, # of connection points: 6
#     Node 37, Type 1, BuildingBlock: KUMBOL_clean_sbu_0, # of connection points: 6
#     Node 38, Type 1, BuildingBlock: KUMBOL_clean_sbu_0, # of connection points: 6
#     Node 39, Type 1, BuildingBlock: KUMBOL_clean_sbu_0, # of connection points: 6
#     Edge 40, Type (0, 1), BuildingBlock: ZUJKAS_clean_linker_0, # of connection points: 2
#     Edge 41, Type (0, 1), BuildingBlock: ZUJKAS_clean_linker_0, # of connection points: 2
#     Edge 42, Type (0, 1), BuildingBlock: ZUJKAS_clean_linker_0, # of connection points: 2
#     Edge 43, Type (0, 1), BuildingBlock: ZUJKAS_clean_linker_0, # of connection points: 2
#     Edge 44, Type (0, 1), BuildingBlock: ZUJKAS_clean_linker_0, # of connection points: 2
#     Edge 45, Type (0, 1), BuildingBlock: ZUJKAS_clean_linker_0, # of connection points: 2
#     Edge 46, Type (0, 1), BuildingBlock: ZUJKAS_clean_linker_0, # of connection points: 2
#     Edge 47, Type (0, 1), BuildingBlock: ZUJKAS_clean_linker_0, # of connection points: 2
#     Edge 48, Type (0, 1), BuildingBlock: ZUJKAS_clean_linker_0, # of connection points: 2
#     Edge 49, Type (0, 1), BuildingBlock: ZUJKAS_clean_linker_0, # of connection points: 2
#     Edge 50, Type (0, 1), BuildingBlock: ZUJKAS_clean_linker_0, # of connection points: 2
#     Edge 51, Type (0, 1), BuildingBlock: ZUJKAS_clean_linker_0, # of connection points: 2
#     Edge 52, Type (0, 1), BuildingBlock: ZUJKAS_clean_linker_0, # of connection points: 2
#     Edge 53, Type (0, 1), BuildingBlock: ZUJKAS_clean_linker_0, # of connection points: 2
#     Edge 54, Type (0, 1), BuildingBlock: ZUJKAS_clean_linker_0, # of connection points: 2
#     Edge 55, Type (0, 1), BuildingBlock: ZUJKAS_clean_linker_0, # of connection points: 2
#     Edge 56, Type (0, 1), BuildingBlock: ZUJKAS_clean_linker_0, # of connection points: 2
#     Edge 57, Type (0, 1), BuildingBlock: ZUJKAS_clean_linker_0, # of connection points: 2
#     Edge 58, Type (0, 1), BuildingBlock: ZUJKAS_clean_linker_0, # of connection points: 2
#     Edge 59, Type (0, 1), BuildingBlock: ZUJKAS_clean_linker_0, # of connection points: 2
#     Edge 60, Type (0, 1), BuildingBlock: ZUJKAS_clean_linker_0, # of connection points: 2
#     Edge 61, Type (0, 1), BuildingBlock: ZUJKAS_clean_linker_0, # of connection points: 2
#     Edge 62, Type (0, 1), BuildingBlock: ZUJKAS_clean_linker_0, # of connection points: 2
#     Edge 63, Type (0, 1), BuildingBlock: ZUJKAS_clean_linker_0, # of connection points: 2
#     Edge 64, Type (0, 1), BuildingBlock: ZUJKAS_clean_linker_0, # of connection points: 2
#     Edge 65, Type (0, 1), BuildingBlock: ZUJKAS_clean_linker_0, # of connection points: 2
#     Edge 66, Type (0, 1), BuildingBlock: ZUJKAS_clean_linker_0, # of connection points: 2
#     Edge 67, Type (0, 1), BuildingBlock: ZUJKAS_clean_linker_0, # of connection points: 2
#     Edge 68, Type (0, 1), BuildingBlock: ZUJKAS_clean_linker_0, # of connection points: 2
#     Edge 69, Type (0, 1), BuildingBlock: ZUJKAS_clean_linker_0, # of connection points: 2
#     Edge 70, Type (0, 1), BuildingBlock: ZUJKAS_clean_linker_0, # of connection points: 2
#     Edge 71, Type (0, 1), BuildingBlock: ZUJKAS_clean_linker_0, # of connection points: 2
#     Edge 72, Type (0, 1), BuildingBlock: ZUJKAS_clean_linker_0, # of connection points: 2
#     Edge 73, Type (0, 1), BuildingBlock: ZUJKAS_clean_linker_0, # of connection points: 2
#     Edge 74, Type (0, 1), BuildingBlock: ZUJKAS_clean_linker_0, # of connection points: 2
#     Edge 75, Type (0, 1), BuildingBlock: ZUJKAS_clean_linker_0, # of connection points: 2
#     Edge 76, Type (0, 1), BuildingBlock: ZUJKAS_clean_linker_0, # of connection points: 2
#     Edge 77, Type (0, 1), BuildingBlock: ZUJKAS_clean_linker_0, # of connection points: 2
#     Edge 78, Type (0, 1), BuildingBlock: ZUJKAS_clean_linker_0, # of connection points: 2
#     Edge 79, Type (0, 1), BuildingBlock: ZUJKAS_clean_linker_0, # of connection points: 2
#     Edge 80, Type (0, 1), BuildingBlock: ZUJKAS_clean_linker_0, # of connection points: 2
#     Edge 81, Type (0, 1), BuildingBlock: ZUJKAS_clean_linker_0, # of connection points: 2
#     Edge 82, Type (0, 1), BuildingBlock: ZUJKAS_clean_linker_0, # of connection points: 2
#     Edge 83, Type (0, 1), BuildingBlock: ZUJKAS_clean_linker_0, # of connection points: 2
#     Edge 84, Type (0, 1), BuildingBlock: ZUJKAS_clean_linker_0, # of connection points: 2
#     Edge 85, Type (0, 1), BuildingBlock: ZUJKAS_clean_linker_0, # of connection points: 2
#     Edge 86, Type (0, 1), BuildingBlock: ZUJKAS_clean_linker_0, # of connection points: 2
#     Edge 87, Type (0, 1), BuildingBlock: ZUJKAS_clean_linker_0, # of connection points: 2
#     Edge 88, Type (0, 1), BuildingBlock: ZUJKAS_clean_linker_0, # of connection points: 2
#     Edge 89, Type (0, 1), BuildingBlock: ZUJKAS_clean_linker_0, # of connection points: 2
#     Edge 90, Type (0, 1), BuildingBlock: ZUJKAS_clean_linker_0, # of connection points: 2
#     Edge 91, Type (0, 1), BuildingBlock: ZUJKAS_clean_linker_0, # of connection points: 2
#     Edge 92, Type (0, 1), BuildingBlock: ZUJKAS_clean_linker_0, # of connection points: 2
#     Edge 93, Type (0, 1), BuildingBlock: ZUJKAS_clean_linker_0, # of connection points: 2
#     Edge 94, Type (0, 1), BuildingBlock: ZUJKAS_clean_linker_0, # of connection points: 2
#     Edge 95, Type (0, 1), BuildingBlock: ZUJKAS_clean_linker_0, # of connection points: 2
#     Edge 96, Type (0, 1), BuildingBlock: ZUJKAS_clean_linker_0, # of connection points: 2
#     Edge 97, Type (0, 1), BuildingBlock: ZUJKAS_clean_linker_0, # of connection points: 2
#     Edge 98, Type (0, 1), BuildingBlock: ZUJKAS_clean_linker_0, # of connection points: 2
#     Edge 99, Type (0, 1), BuildingBlock: ZUJKAS_clean_linker_0, # of connection points: 2
#     Edge 100, Type (0, 1), BuildingBlock: ZUJKAS_clean_linker_0, # of connection points: 2
#     Edge 101, Type (0, 1), BuildingBlock: ZUJKAS_clean_linker_0, # of connection points: 2
#     Edge 102, Type (0, 1), BuildingBlock: ZUJKAS_clean_linker_0, # of connection points: 2
#     Edge 103, Type (0, 1), BuildingBlock: ZUJKAS_clean_linker_0, # of connection points: 2
#     Edge 104, Type (0, 1), BuildingBlock: ZUJKAS_clean_linker_0, # of connection points: 2
#     Edge 105, Type (0, 1), BuildingBlock: ZUJKAS_clean_linker_0, # of connection points: 2
#     Edge 106, Type (0, 1), BuildingBlock: ZUJKAS_clean_linker_0, # of connection points: 2
#     Edge 107, Type (0, 1), BuildingBlock: ZUJKAS_clean_linker_0, # of connection points: 2
#     Edge 108, Type (0, 1), BuildingBlock: ZUJKAS_clean_linker_0, # of connection points: 2
#     Edge 109, Type (0, 1), BuildingBlock: ZUJKAS_clean_linker_0, # of connection points: 2
#     Edge 110, Type (0, 1), BuildingBlock: ZUJKAS_clean_linker_0, # of connection points: 2
#     Edge 111, Type (0, 1), BuildingBlock: ZUJKAS_clean_linker_0, # of connection points: 2
#     Edge 112, Type (0, 1), BuildingBlock: ZUJKAS_clean_linker_0, # of connection points: 2
#     Edge 113, Type (0, 1), BuildingBlock: ZUJKAS_clean_linker_0, # of connection points: 2
#     Edge 114, Type (0, 1), BuildingBlock: ZUJKAS_clean_linker_0, # of connection points: 2
#     Edge 115, Type (0, 1), BuildingBlock: ZUJKAS_clean_linker_0, # of connection points: 2
#     Edge 116, Type (0, 1), BuildingBlock: ZUJKAS_clean_linker_0, # of connection points: 2
#     Edge 117, Type (0, 1), BuildingBlock: ZUJKAS_clean_linker_0, # of connection points: 2
#     Edge 118, Type (0, 1), BuildingBlock: ZUJKAS_clean_linker_0, # of connection points: 2
#     Edge 119, Type (0, 1), BuildingBlock: ZUJKAS_clean_linker_0, # of connection points: 2
#     Edge 120, Type (0, 1), BuildingBlock: ZUJKAS_clean_linker_0, # of connection points: 2
#     Edge 121, Type (0, 1), BuildingBlock: ZUJKAS_clean_linker_0, # of connection points: 2
#     Edge 122, Type (0, 1), BuildingBlock: ZUJKAS_clean_linker_0, # of connection points: 2
#     Edge 123, Type (0, 1), BuildingBlock: ZUJKAS_clean_linker_0, # of connection points: 2
#     Edge 124, Type (0, 1), BuildingBlock: ZUJKAS_clean_linker_0, # of connection points: 2
#     Edge 125, Type (0, 1), BuildingBlock: ZUJKAS_clean_linker_0, # of connection points: 2
#     Edge 126, Type (0, 1), BuildingBlock: ZUJKAS_clean_linker_0, # of connection points: 2
#     Edge 127, Type (0, 1), BuildingBlock: ZUJKAS_clean_linker_0, # of connection points: 2
#     Edge 128, Type (0, 1), BuildingBlock: ZUJKAS_clean_linker_0, # of connection points: 2
#     Edge 129, Type (0, 1), BuildingBlock: ZUJKAS_clean_linker_0, # of connection points: 2
#     Edge 130, Type (0, 1), BuildingBlock: ZUJKAS_clean_linker_0, # of connection points: 2
#     Edge 131, Type (0, 1), BuildingBlock: ZUJKAS_clean_linker_0, # of connection points: 2
#     Edge 132, Type (0, 1), BuildingBlock: ZUJKAS_clean_linker_0, # of connection points: 2
#     Edge 133, Type (0, 1), BuildingBlock: ZUJKAS_clean_linker_0, # of connection points: 2
#     Edge 134, Type (0, 1), BuildingBlock: ZUJKAS_clean_linker_0, # of connection points: 2
#     Edge 135, Type (0, 1), BuildingBlock: ZUJKAS_clean_linker_0, # of connection points: 2
# Relax obj value: 0.126
# Max RMSD: 0.317
# Mean RMSD: 0.177
data_MOF--net-gar--node1-QUQFOY_clean_sbu_1--node2-KUMBOL_clean_sbu_0--edge1-ZUJKAS_clean_linker_0
_symmetry_space_group_name_H-M    P1
_symmetry_Int_Tables_number       1
_symmetry_cell_setting            triclinic
loop_
_symmetry_equiv_pos_as_xyz
'x, y, z'
_cell_length_a     78.141891
_cell_length_b     72.830016
_cell_length_c     72.953199
_cell_angle_alpha  99.976131
_cell_angle_beta   93.442105
_cell_angle_gamma 104.07996
loop_
_atom_site_label
_atom_site_type_symbol
_atom_site_fract_x
_atom_site_fract_y
_atom_site_fract_z
_atom_type_partial_charge
O0 O 0.07984 0.25157 0.37527 0.0
Cd1 Cd 0.08134 0.27034 0.3569 0.0
Cd2 Cd 0.08326 0.29882 0.38759 0.0
O3 O 0.08635 0.27599 0.39928 0.0
O4 O 0.09764 0.26709 0.33731 0.0
O5 O 0.10313 0.29194 0.36115 0.0
C6 C 0.108 0.2833 0.34616 0.0
C7 C 0.09717 0.32873 0.40608 0.0
C8 C 0.08366 0.2581 0.39273 0.0
C9 C 0.05221 0.28931 0.3569 0.0
O10 O 0.05969 0.29848 0.37295 0.0
O11 O 0.05879 0.27692 0.34737 0.0
O12 O 0.08363 0.31736 0.41094 0.0
O13 O 0.10309 0.32324 0.3905 0.0
O14 O 1.0049 0.72871 0.65631 0.0
Cd15 Cd 0.00991 0.75439 0.6751 0.0
Cd16 Cd 0.02999 0.76955 0.65012 0.0
O17 O 0.02042 0.74172 0.63545 0.0
O18 O 0.99067 0.75225 0.69158 0.0
O19 O 0.9959 0.77374 0.6731 0.0
C20 C 0.9867 0.76646 0.68549 0.0
C21 C 0.03245 0.79281 0.6314 0.0
C22 C 0.01078 0.7271 0.64044 0.0
C23 C 0.04832 0.77006 0.68788 0.0
O24 O 0.04979 0.77444 0.67182 0.0
O25 O 0.03324 0.76202 0.6923 0.0
O26 O 0.04291 0.78161 0.63086 0.0
O27 O 0.02061 0.79118 0.64304 0.0
O28 O 0.63303 0.80577 0.88885 0.0
Cd29 Cd 0.61354 0.80941 0.90576 0.0
Cd30 Cd 0.59802 0.81641 0.87418 0.0
O31 O 0.61936 0.80901 0.86272 0.0
O32 O 0.61825 0.79826 0.92789 0.0
O33 O 0.5933 0.78747 0.90884 0.0
C34 C 0.60271 0.7865 0.92367 0.0
C35 C 0.57021 0.80667 0.85692 0.0
C36 C 0.63269 0.80609 0.87148 0.0
C37 C 0.60858 0.84886 0.90773 0.0
O38 O 0.60244 0.84341 0.89062 0.0
O39 O 0.61348 0.83725 0.9167 0.0
O40 O 0.58327 0.81877 0.85208 0.0
O41 O 0.57316 0.79914 0.8712 0.0
O42 O 0.50108 0.23728 0.17078 0.0
Cd43 Cd 0.50449 0.26323 0.18866 0.0
Cd44 Cd 0.5198 0.27919 0.16067 0.0
O45 O 0.51261 0.25048 0.14785 0.0
O46 O 0.48716 0.25907 0.2072 0.0
O47 O 0.48676 0.27881 0.18727 0.0
C48 C 0.47987 0.27105 0.20069 0.0
C49 C 0.51776 0.3001 0.14004 0.0
C50 C 0.50554 0.23561 0.15426 0.0
C51 C 0.54262 0.28421 0.19714 0.0
O52 O 0.54145 0.28795 0.1808 0.0
O53 O 0.52912 0.27461 0.20331 0.0
O54 O 0.52982 0.29084 0.13968 0.0
O55 O 0.50681 0.29786 0.15253 0.0
O56 O 0.07747 0.78932 0.12186 0.0
Cd57 Cd 0.08191 0.81449 0.14168 0.0
Cd58 Cd 0.09821 0.82986 0.1123 0.0
O59 O 0.08923 0.80073 0.098 0.0
O60 O 0.06713 0.80618 0.16192 0.0
O61 O 0.0622 0.82809 0.14644 0.0
C62 C 0.05767 0.81781 0.15896 0.0
C63 C 0.0907 0.85652 0.10123 0.0
C64 C 0.08157 0.78644 0.10517 0.0
C65 C 0.12196 0.83112 0.14768 0.0
O66 O 0.12107 0.83471 0.13116 0.0
O67 O 0.1078 0.82427 0.15472 0.0
O68 O 0.1026 0.84865 0.09422 0.0
O69 O 0.08277 0.84912 0.11432 0.0
O70 O 0.56264 0.78009 0.42069 0.0
Cd71 Cd 0.54733 0.78028 0.44312 0.0
Cd72 Cd 0.52477 0.79329 0.41122 0.0
O73 O 0.54664 0.78762 0.39823 0.0
O74 O 0.55941 0.76827 0.46175 0.0
O75 O 0.5326 0.75426 0.44768 0.0
C76 C 0.54579 0.75356 0.45888 0.0
C77 C 0.49817 0.79082 0.39193 0.0
C78 C 0.56053 0.78316 0.4041 0.0
C79 C 0.53787 0.81965 0.45061 0.0
O80 O 0.52966 0.81573 0.43423 0.0
O81 O 0.54545 0.80781 0.45668 0.0
O82 O 0.51251 0.804 0.39189 0.0
O83 O 0.4989 0.77847 0.4025 0.0
O84 O 0.58311 0.28901 0.62429 0.0
Cd85 Cd 0.5878 0.31365 0.64489 0.0
Cd86 Cd 0.60502 0.32932 0.61564 0.0
O87 O 0.59532 0.30062 0.60073 0.0
O88 O 0.57246 0.30449 0.66445 0.0
O89 O 0.56833 0.32758 0.65024 0.0
C90 C 0.5633 0.31655 0.66204 0.0
C91 C 0.59864 0.35628 0.60416 0.0
C92 C 0.58718 0.28631 0.60757 0.0
C93 C 0.62802 0.32911 0.65133 0.0
O94 O 0.62744 0.33299 0.6349 0.0
O95 O 0.61367 0.32258 0.65823 0.0
O96 O 0.6107 0.34825 0.59784 0.0
O97 O 0.59007 0.34902 0.61696 0.0
O98 O 0.03159 0.24319 0.92316 0.0
Cd99 Cd 0.03266 0.26388 0.90609 0.0
Cd100 Cd 0.01951 0.28221 0.93866 0.0
O101 O 0.02443 0.2584 0.94937 0.0
O102 O 0.04711 0.25639 0.88537 0.0
O103 O 0.0561 0.28367 0.90591 0.0
C104 C 0.05912 0.27228 0.89151 0.0
C105 C 0.02908 0.31489 0.95481 0.0
C106 C 0.0286 0.24373 0.94024 0.0
C107 C 0.99641 0.27259 0.90106 0.0
O108 O 0.99771 0.27767 0.91881 0.0
O109 O 0.00908 0.26731 0.89322 0.0
O110 O 0.016 0.3027 0.95962 0.0
O111 O 0.03756 0.30827 0.94159 0.0
O112 O 0.43631 0.07808 0.25169 0.0
Cd113 Cd 0.41505 0.07718 0.267 0.0
Cd114 Cd 0.44001 0.07354 0.29631 0.0
O115 O 0.45575 0.08297 0.27636 0.0
O116 O 0.41187 0.10225 0.28082 0.0
O117 O 0.39841 0.08744 0.25266 0.0
C118 C 0.40143 0.10206 0.26631 0.0
C119 C 0.45706 0.07988 0.32532 0.0
C120 C 0.45224 0.08235 0.25903 0.0
C121 C 0.40663 0.04047 0.28105 0.0
O122 O 0.4216 0.04682 0.29088 0.0
O123 O 0.40093 0.05086 0.27113 0.0
O124 O 0.45898 0.06731 0.31148 0.0
O125 O 0.44501 0.08889 0.32303 0.0
O126 O 0.31169 0.20416 0.54704 0.0
Cd127 Cd 0.31019 0.18415 0.52263 0.0
Cd128 Cd 0.29512 0.2129 0.50889 0.0
O129 O 0.30237 0.22718 0.53658 0.0
O130 O 0.3213 0.16484 0.53174 0.0
O131 O 0.33249 0.18113 0.5106 0.0
C132 C 0.33347 0.16852 0.5208 0.0
C133 C 0.30063 0.2292 0.48374 0.0
C134 C 0.30815 0.22052 0.55006 0.0
C135 C 0.27159 0.17244 0.50572 0.0
O136 O 0.27283 0.18987 0.50429 0.0
O137 O 0.28507 0.16734 0.51159 0.0
O138 O 0.289 0.23229 0.49488 0.0
O139 O 0.30966 0.21726 0.48718 0.0
O140 O 0.17337 0.01241 0.73659 0.0
Cd141 Cd 0.19504 0.0135 0.75716 0.0
Cd142 Cd 0.16578 0.03427 0.78109 0.0
O143 O 0.1538 0.02542 0.75209 0.0
O144 O 0.21223 0.99708 0.74566 0.0
O145 O 0.19861 0.99021 0.76963 0.0
C146 C 0.20946 0.98602 0.75784 0.0
C147 C 0.15006 0.03448 0.81004 0.0
C148 C 0.15896 0.01818 0.73655 0.0
C149 C 0.20469 0.05816 0.77632 0.0
O150 O 0.1895 0.05629 0.78264 0.0
O151 O 0.20914 0.04346 0.76725 0.0
O152 O 0.14928 0.04618 0.79877 0.0
O153 O 0.15901 0.02208 0.80477 0.0
O154 O 0.31947 0.94576 0.05814 0.0
Cd155 Cd 0.32102 0.9593 0.0355 0.0
Cd156 Cd 0.32093 0.92479 0.01621 0.0
O157 O 0.31451 0.91656 0.04105 0.0
O158 O 0.31068 0.98164 0.04157 0.0
O159 O 0.29877 0.95633 0.01891 0.0
C160 C 0.29805 0.97279 0.02846 0.0
C161 C 0.30675 0.90391 0.98862 0.0
C162 C 0.31581 0.92759 0.05687 0.0
C163 C 0.35429 0.95712 0.01919 0.0
O164 O 0.34695 0.93914 0.01456 0.0
O165 O 0.34573 0.96853 0.027 0.0
O166 O 0.31842 0.89968 0.99919 0.0
O167 O 0.30273 0.92006 0.99393 0.0
O168 O 0.30209 0.41343 0.07172 0.0
Cd169 Cd 0.30635 0.4308 0.05178 0.0
Cd170 Cd 0.3158 0.39837 0.03327 0.0
O171 O 0.30699 0.3867 0.05614 0.0
O172 O 0.29332 0.45096 0.05955 0.0
O173 O 0.28687 0.43089 0.03219 0.0
C174 C 0.28361 0.44492 0.04371 0.0
C175 C 0.30905 0.38066 1.00237 0.0
C176 C 0.30282 0.39603 0.0709 0.0
C177 C 0.34433 0.4364 0.04421 0.0
O178 O 0.34018 0.41832 0.03783 0.0
O179 O 0.33256 0.44478 0.04988 0.0
O180 O 0.3199 0.37688 0.01431 0.0
O181 O 0.3012 0.39394 0.00823 0.0
O182 O 0.82308 0.1705 0.05096 0.0
Cd183 Cd 0.81567 0.14683 0.02941 0.0
Cd184 Cd 0.8065 0.17125 0.00995 0.0
O185 O 0.81844 0.19115 0.03368 0.0
O186 O 0.83101 0.12906 0.03198 0.0
O187 O 0.83114 0.14506 0.00871 0.0
C188 C 0.83744 0.13335 0.01689 0.0
C189 C 0.8105 0.18031 0.98099 0.0
C190 C 0.82349 0.18769 0.04931 0.0
C191 C 0.77725 0.13876 0.01793 0.0
O192 O 0.78157 0.15416 0.01145 0.0
O193 O 0.78914 0.13227 0.02529 0.0
O194 O 0.8015 0.18812 0.99277 0.0
O195 O 0.81772 0.16744 0.98577 0.0
O196 O 0.1836 0.53102 0.22516 0.0
Cd197 Cd 0.20203 0.54025 0.2484 0.0
Cd198 Cd 0.17699 0.5546 0.26481 0.0
O199 O 0.16206 0.53869 0.24046 0.0
O200 O 0.21655 0.52151 0.24986 0.0
O201 O 0.19742 0.52704 0.2701 0.0
C202 C 0.20883 0.51767 0.26444 0.0
C203 C 0.16195 0.55747 0.29147 0.0
C204 C 0.16741 0.5312 0.22556 0.0
C205 C 0.21114 0.58256 0.25861 0.0
O206 O 0.19552 0.57973 0.26348 0.0
O207 O 0.21733 0.56832 0.25259 0.0
O208 O 0.15886 0.56538 0.27762 0.0
O209 O 0.17344 0.54736 0.29011 0.0
O210 O 0.80866 0.90771 0.57359 0.0
Cd211 Cd 0.81238 0.92443 0.5531 0.0
Cd212 Cd 0.82196 0.89195 0.53496 0.0
O213 O 0.81352 0.88086 0.55819 0.0
O214 O 0.80036 0.94541 0.56103 0.0
O215 O 0.79197 0.92422 0.53452 0.0
C216 C 0.78972 0.939 0.54582 0.0
C217 C 0.81438 0.87404 0.50428 0.0
C218 C 0.80948 0.89036 0.57292 0.0
C219 C 0.8502 0.92996 0.54451 0.0
O220 O 0.84632 0.9118 0.53874 0.0
O221 O 0.83832 0.93821 0.55007 0.0
O222 O 0.82536 0.87011 0.51596 0.0
O223 O 0.80687 0.88757 0.51033 0.0
O224 O 0.94279 0.08072 0.24201 0.0
Cd225 Cd 0.92137 0.08251 0.25954 0.0
Cd226 Cd 0.95534 0.06484 0.28314 0.0
O227 O 0.96455 0.07119 0.25645 0.0
O228 O 0.90275 0.09505 0.24731 0.0
O229 O 0.91825 0.1094 0.27382 0.0
C230 C 0.90635 0.10984 0.2609 0.0
C231 C 0.97326 0.06459 0.31271 0.0
C232 C 0.95785 0.07625 0.24197 0.0
C233 C 0.91396 0.04169 0.27296 0.0
O234 O 0.93028 0.04488 0.27931 0.0
O235 O 0.90829 0.05441 0.26574 0.0
O236 O 0.97165 0.05174 0.29764 0.0
O237 O 0.96585 0.07834 0.31093 0.0
O238 O 0.3218 0.66519 0.56118 0.0
Cd239 Cd 0.31059 0.64337 0.53863 0.0
Cd240 Cd 0.30426 0.67159 0.52292 0.0
O241 O 0.32018 0.68861 0.54619 0.0
O242 O 0.32097 0.62135 0.54025 0.0
O243 O 0.32458 0.63772 0.51719 0.0
C244 C 0.32764 0.62393 0.52484 0.0
C245 C 0.30834 0.68161 0.49449 0.0
C246 C 0.32503 0.68306 0.56076 0.0
C247 C 0.27266 0.64223 0.53097 0.0
O248 O 0.27832 0.65833 0.52602 0.0
O249 O 0.28351 0.63304 0.53579 0.0
O250 O 0.30153 0.69082 0.50757 0.0
O251 O 0.31317 0.66659 0.4976 0.0
O252 O 0.44486 0.58067 0.74472 0.0
Cd253 Cd 0.42346 0.58265 0.76225 0.0
Cd254 Cd 0.45678 0.56481 0.78616 0.0
O255 O 0.46615 0.57072 0.7595 0.0
O256 O 0.40452 0.5949 0.75029 0.0
O257 O 0.42133 0.61016 0.77582 0.0
C258 C 0.40891 0.61021 0.7633 0.0
C259 C 0.47431 0.56475 0.81594 0.0
C260 C 0.45981 0.57593 0.74493 0.0
C261 C 0.4155 0.54199 0.77607 0.0
O262 O 0.4318 0.545 0.78233 0.0
O263 O 0.40999 0.55484 0.76889 0.0
O264 O 0.47284 0.55179 0.80099 0.0
O265 O 0.46701 0.57851 0.8139 0.0
O266 O 0.69422 0.01678 0.71148 0.0
Cd267 Cd 0.71249 0.02191 0.73457 0.0
Cd268 Cd 0.68875 0.03608 0.75477 0.0
O269 O 0.67511 0.02785 0.72838 0.0
O270 O 0.72493 1.00108 0.73503 0.0
O271 O 0.70558 1.00723 0.75474 0.0
C272 C 0.71642 0.99713 0.74912 0.0
C273 C 0.67019 0.03237 0.77856 0.0
C274 C 0.67921 0.02049 0.7127 0.0
C275 C 0.72545 0.06258 0.75418 0.0
O276 O 0.71047 0.05973 0.76063 0.0
O277 O 0.72924 0.04925 0.74274 0.0
O278 O 0.67096 0.04589 0.76916 0.0
O279 O 0.68031 0.02094 0.77473 0.0
O280 O 0.80995 0.70557 0.05074 0.0
Cd281 Cd 0.80769 0.68411 0.0273 0.0
Cd282 Cd 0.79259 0.71122 0.01171 0.0
O283 O 0.79939 0.72702 0.03884 0.0
O284 O 0.81932 0.6658 0.03751 0.0
O285 O 0.82945 0.6802 0.01472 0.0
C286 C 0.83097 0.66857 0.02586 0.0
C287 C 0.79945 0.72582 0.9858 0.0
C288 C 0.80592 0.72167 0.05279 0.0
C289 C 0.769 0.67133 0.01055 0.0
O290 O 0.77025 0.68831 0.00764 0.0
O291 O 0.78243 0.66683 0.0174 0.0
O292 O 0.78726 0.72949 0.9959 0.0
O293 O 0.80815 0.71413 0.99065 0.0
O294 O 0.95261 0.55139 0.73744 0.0
Cd295 Cd 0.931 0.54695 0.75246 0.0
Cd296 Cd 0.95564 0.54396 0.78102 0.0
O297 O 0.97186 0.55173 0.76093 0.0
O298 O 0.91289 0.55691 0.74004 0.0
O299 O 0.92564 0.56947 0.76895 0.0
C300 C 0.91449 0.56962 0.75517 0.0
C301 C 0.97021 0.55489 0.81126 0.0
C302 C 0.96849 0.55361 0.74423 0.0
C303 C 0.92371 0.50978 0.76626 0.0
O304 O 0.93797 0.51701 0.77716 0.0
O305 O 0.91849 0.51939 0.75513 0.0
O306 O 0.97389 0.5413 0.7997 0.0
O307 O 0.95792 0.56238 0.80577 0.0
O308 O 0.81117 0.43871 0.55967 0.0
Cd309 Cd 0.81512 0.45624 0.54018 0.0
Cd310 Cd 0.81506 0.42068 0.51607 0.0
O311 O 0.80761 0.41096 0.54009 0.0
O312 O 0.80912 0.48031 0.55173 0.0
O313 O 0.79407 0.4607 0.52614 0.0
C314 C 0.79619 0.47623 0.53864 0.0
C315 C 0.80543 0.39835 0.48795 0.0
C316 C 0.80763 0.42041 0.55647 0.0
C317 C 0.84838 0.45454 0.52296 0.0
O318 O 0.8406 0.4371 0.5158 0.0
O319 O 0.84035 0.4651 0.53293 0.0
O320 O 0.81723 0.39652 0.50006 0.0
O321 O 0.79839 0.41264 0.49203 0.0
O322 O 0.67222 0.5138 0.24045 0.0
Cd323 Cd 0.69401 0.51503 0.26086 0.0
Cd324 Cd 0.66475 0.53452 0.28508 0.0
O325 O 0.65231 0.5258 0.25628 0.0
O326 O 0.71115 0.49877 0.249 0.0
O327 O 0.69759 0.49148 0.2729 0.0
C328 C 0.70835 0.48743 0.26094 0.0
C329 C 0.64976 0.53346 0.31441 0.0
C330 C 0.65757 0.51907 0.24061 0.0
C331 C 0.70314 0.55959 0.28014 0.0
O332 O 0.68789 0.55722 0.28639 0.0
O333 O 0.70797 0.5451 0.27115 0.0
O334 O 0.64818 0.54528 0.30349 0.0
O335 O 0.65913 0.52166 0.30858 0.0
Gd336 Gd 0.07793 0.06734 0.03915 0.0
Gd337 Gd 0.03603 0.03845 0.01626 0.0
C338 C 1.00574 0.98454 0.03644 0.0
C339 C 0.02201 0.96111 0.02528 0.0
C340 C 0.03073 0.99366 0.01888 0.0
C341 C 0.01734 0.99847 0.02859 0.0
C342 C 0.03306 0.97479 0.01689 0.0
C343 C 0.00837 0.96598 0.03505 0.0
C344 C 0.99155 0.98952 0.04505 0.0
C345 C 0.98879 1.00771 0.04502 0.0
N346 N 0.01519 0.01653 0.02972 0.0
C347 C 1.00054 0.02093 0.03691 0.0
H348 H 0.99813 0.03491 0.03677 0.0
C349 C 0.05437 1.00279 1.00092 0.0
N350 N 0.04146 1.00737 0.01133 0.0
C351 C 0.057 0.98423 0.99832 0.0
C352 C 0.0464 0.9702 0.00647 0.0
H353 H 0.06308 0.01336 0.99486 0.0
H354 H 0.99972 0.95517 0.04117 0.0
H355 H 0.08694 0.09068 1.00224 0.0
H356 H 0.98237 0.97924 0.05125 0.0
H357 H 0.97756 0.01155 0.05115 0.0
H358 H 0.02377 0.94666 0.0241 0.0
H359 H 0.08664 0.07454 0.08595 0.0
H360 H 0.09105 0.15025 0.02133 0.0
H361 H 0.09185 0.12308 0.99611 0.0
H362 H 0.08831 0.15614 0.08713 0.0
H363 H 0.06739 0.98085 0.99025 0.0
H364 H 0.04862 0.95591 1.00464 0.0
H365 H 0.08883 0.16225 0.05505 0.0
H366 H 0.0903 0.10071 0.11341 0.0
N367 N 0.08314 0.09837 0.03114 0.0
C368 C 0.08884 0.13581 0.02422 0.0
C369 C 0.08935 0.12056 0.01001 0.0
C370 C 0.08635 0.13242 0.04224 0.0
C371 C 0.08384 0.11338 0.0454 0.0
C372 C 0.08655 0.10193 0.0137 0.0
N373 N 0.08305 0.09194 0.06616 0.0
C374 C 0.08367 0.11002 0.06346 0.0
C375 C 0.08834 0.10353 0.09945 0.0
C376 C 0.0877 0.12191 0.09694 0.0
C377 C 0.08639 0.08877 0.08384 0.0
C378 C 0.08583 0.12549 0.07879 0.0
H379 H 0.08936 0.13339 0.10905 0.0
O380 O 0.09757 0.05184 0.03073 0.0
O381 O 0.0612 0.03697 0.03111 0.0
O382 O 0.03097 0.04753 0.04704 0.0
O383 O 0.05774 0.06843 0.06138 0.0
O384 O 0.07278 0.046 0.05848 0.0
O385 O 0.1057 0.07869 0.05043 0.0
O386 O 0.02789 0.0291 0.98634 0.0
O387 O 0.05508 0.06763 0.01963 0.0
O388 O 0.08194 0.06008 0.00785 0.0
O389 O 0.05441 0.04207 0.99274 0.0
O390 O 0.02936 0.06715 0.02434 0.0
O391 O 0.00959 0.0378 1.00471 0.0
C392 C 0.06295 0.03151 0.04665 0.0
C393 C 0.08692 0.14416 0.07556 0.0
C394 C 0.08721 0.14763 0.0573 0.0
C395 C 0.11042 0.06372 0.04213 0.0
C396 C 0.12086 0.05482 0.05368 0.0
C397 C 0.11601 0.05126 0.07119 0.0
C398 C 0.13549 0.04909 0.04671 0.0
C399 C 0.1454 0.04002 0.05725 0.0
C400 C 0.12578 0.04229 0.08172 0.0
C401 C 0.14041 0.03672 0.07485 0.0
C402 C 0.04078 0.05937 0.06201 0.0
C403 C 0.04461 0.07836 0.02315 0.0
C404 C 0.01294 0.03386 0.98748 0.0
C405 C 0.00898 0.04695 0.97535 0.0
C406 C 0.0209 0.0541 0.963 0.0
C407 C 0.99343 0.05328 0.97695 0.0
C408 C 0.98993 0.06695 0.9668 0.0
C409 C 0.01745 0.06758 0.95278 0.0
C410 C 1.00214 0.07409 0.95472 0.0
C411 C 0.07154 0.05037 0.99231 0.0
H412 H 0.10466 0.05526 0.07669 0.0
H413 H 0.13921 0.05179 0.03315 0.0
H414 H 0.12194 0.03954 0.09519 0.0
H415 H 0.14766 0.02955 0.08316 0.0
H416 H 0.03304 0.04961 0.96149 0.0
H417 H 0.9843 0.048 0.98663 0.0
H418 H 0.02679 0.07314 0.94344 0.0
H419 H 0.99977 0.08458 0.94669 0.0
Gd420 Gd 0.30257 0.81869 0.28879 0.0
Gd421 Gd 0.3213 0.8019 0.24682 0.0
C422 C 0.2904 0.76524 0.1922 0.0
C423 C 0.28872 0.73272 0.19704 0.0
C424 C 0.30438 0.7604 0.22097 0.0
C425 C 0.30008 0.77275 0.21002 0.0
C426 C 0.29945 0.74028 0.21412 0.0
C427 C 0.28416 0.74518 0.18612 0.0
C428 C 0.28802 0.77805 0.18063 0.0
C429 C 0.29593 0.79774 0.18649 0.0
N430 N 0.30668 0.79208 0.21605 0.0
C431 C 0.30554 0.80452 0.20416 0.0
H432 H 0.31133 0.81981 0.20854 0.0
C433 C 0.32283 0.7567 0.24618 0.0
N434 N 0.31497 0.76811 0.23733 0.0
C435 C 0.3184 0.73672 0.23987 0.0
C436 C 0.30634 0.72842 0.22403 0.0
H437 H 0.33253 0.7627 0.25816 0.0
H438 H 0.27649 0.73917 0.17261 0.0
H439 H 0.33997 0.8505 0.31286 0.0
H440 H 0.28067 0.77283 0.16687 0.0
H441 H 0.29461 0.80772 0.17743 0.0
H442 H 0.28455 0.71729 0.19175 0.0
H443 H 0.25772 0.80967 0.28435 0.0
H444 H 0.33027 0.90618 0.32375 0.0
H445 H 0.35034 0.88498 0.32568 0.0
H446 H 0.26843 0.89397 0.30437 0.0
H447 H 0.32436 0.72774 0.24722 0.0
H448 H 0.30311 0.71294 0.21908 0.0
H449 H 0.29975 0.90942 0.31548 0.0
H450 H 0.23511 0.82805 0.28579 0.0
N451 N 0.31423 0.85167 0.3022 0.0
C452 C 0.32559 0.89093 0.31773 0.0
C453 C 0.33694 0.87901 0.31889 0.0
C454 C 0.30809 0.88289 0.30966 0.0
C455 C 0.30262 0.8629 0.30211 0.0
C456 C 0.33095 0.85929 0.31131 0.0
N457 N 0.27963 0.83465 0.29061 0.0
C458 C 0.28483 0.85415 0.29611 0.0
C459 C 0.24904 0.83558 0.2886 0.0
C460 C 0.25422 0.85569 0.29299 0.0
C461 C 0.26193 0.82521 0.28785 0.0
C462 C 0.27224 0.8652 0.29728 0.0
H463 H 0.24418 0.86368 0.2937 0.0
O464 O 0.30513 0.79841 0.30681 0.0
O465 O 0.30554 0.7928 0.26928 0.0
O466 O 0.29365 0.80473 0.23755 0.0
O467 O 0.2858 0.82282 0.26393 0.0
O468 O 0.28024 0.79243 0.27649 0.0
O469 O 0.29524 0.82282 0.31725 0.0
O470 O 0.34902 0.81811 0.25209 0.0
O471 O 0.32196 0.82731 0.26906 0.0
O472 O 0.33181 0.8201 0.29453 0.0
O473 O 0.33229 0.79352 0.27274 0.0
O474 O 0.3213 0.83148 0.24154 0.0
O475 O 0.34077 0.79446 0.22876 0.0
C476 C 0.28965 0.78285 0.26688 0.0
C477 C 0.27789 0.88525 0.30356 0.0
C478 C 0.29575 0.89405 0.30984 0.0
C479 C 0.29779 0.80658 0.32023 0.0
C480 C 0.28341 0.79359 0.32744 0.0
C481 C 0.26559 0.79368 0.32378 0.0
C482 C 0.28761 0.78035 0.33763 0.0
C483 C 0.27418 0.7672 0.34419 0.0
C484 C 0.25217 0.78062 0.33016 0.0
C485 C 0.25639 0.76743 0.3403 0.0
C486 C 0.28326 0.81487 0.24586 0.0
C487 C 0.32151 0.83951 0.25879 0.0
C488 C 0.35377 0.80861 0.23747 0.0
C489 C 0.36449 0.82038 0.22585 0.0
C490 C 0.38291 0.82296 0.2273 0.0
C491 C 0.35652 0.82957 0.21374 0.0
C492 C 0.3668 0.84122 0.20289 0.0
C493 C 0.39327 0.83463 0.21665 0.0
C494 C 0.38529 0.84374 0.2045 0.0
C495 C 0.33903 0.80583 0.28853 0.0
H496 H 0.26201 0.80377 0.316 0.0
H497 H 0.30141 0.78051 0.34066 0.0
H498 H 0.23845 0.78071 0.32724 0.0
H499 H 0.24575 0.75737 0.34503 0.0
H500 H 0.38926 0.81603 0.23672 0.0
H501 H 0.34235 0.82783 0.21296 0.0
H502 H 0.4075 0.83658 0.21778 0.0
H503 H 0.39354 0.85249 0.19616 0.0
Gd504 Gd 0.54115 0.04681 0.53147 0.0
Gd505 Gd 0.58611 0.06117 0.51682 0.0
C506 C 0.6173 0.12371 0.5206 0.0
C507 C 0.61844 0.12591 0.48782 0.0
C508 C 0.60349 0.09576 0.49651 0.0
C509 C 0.60736 0.10431 0.51523 0.0
C510 C 0.60925 0.10635 0.48258 0.0
C511 C 0.62249 0.13457 0.5068 0.0
C512 C 0.6222 0.13141 0.53966 0.0
C513 C 0.61734 0.1198 0.5528 0.0
N514 N 0.60227 0.09336 0.52819 0.0
C515 C 0.60752 0.10064 0.54678 0.0
H516 H 0.60395 0.09185 0.55711 0.0
C517 C 0.59255 0.06712 0.47381 0.0
N518 N 0.59492 0.07676 0.49198 0.0
C519 C 0.59784 0.07704 0.45946 0.0
C520 C 0.60606 0.09679 0.46384 0.0
H521 H 0.58616 0.05186 0.47033 0.0
H522 H 0.62998 0.14954 0.51067 0.0
H523 H 0.52339 0.01637 0.49086 0.0
H524 H 0.63008 0.14613 0.54434 0.0
H525 H 0.62124 0.12556 0.56757 0.0
H526 H 0.62287 0.13433 0.47732 0.0
H527 H 0.54077 0.05554 0.57792 0.0
H528 H 0.49895 0.96123 0.50295 0.0
H529 H 0.50712 0.98238 0.48004 0.0
H530 H 0.50496 0.97269 0.57004 0.0
H531 H 0.59559 0.06944 0.44505 0.0
H532 H 0.61025 0.10442 0.45272 0.0
H533 H 0.49834 0.9577 0.5366 0.0
H534 H 0.5315 0.03753 0.60295 0.0
N535 N 0.52494 0.01464 0.51975 0.0
C536 C 0.5061 0.9762 0.50783 0.0
C537 C 0.51067 0.9881 0.49486 0.0
C538 C 0.51048 0.9839 0.52696 0.0
C539 C 0.5199 1.00346 0.53254 0.0
C540 C 0.51992 1.00744 0.5011 0.0
N541 N 0.53207 0.03086 0.55602 0.0
C542 C 0.52362 0.01184 0.55129 0.0
C543 C 0.52926 0.03011 0.58848 0.0
C544 C 0.52119 0.01032 0.58389 0.0
C545 C 0.53444 0.04027 0.57427 0.0
C546 C 0.51805 1.00098 0.56508 0.0
H547 H 0.51714 1.00249 0.59491 0.0
O548 O 0.524 0.06378 0.54404 0.0
O549 O 0.56385 0.07127 0.52904 0.0
O550 O 0.5862 0.05888 0.54752 0.0
O551 O 0.55968 0.03695 0.55012 0.0
O552 O 0.5516 0.07441 0.55308 0.0
O553 O 0.51749 0.04848 0.5153 0.0
O554 O 0.60297 0.04376 0.50442 0.0
O555 O 0.56349 0.03677 0.51943 0.0
O556 O 0.54119 0.049 0.50079 0.0
O557 O 0.56759 0.07106 0.49816 0.0
O558 O 0.5758 0.03333 0.49547 0.0
O559 O 0.61032 0.06035 0.53263 0.0
C560 C 0.56383 0.08291 0.54406 0.0
C561 C 0.50922 0.98132 0.55965 0.0
C562 C 0.50545 0.97279 0.54061 0.0
C563 C 0.51257 0.05919 0.52917 0.0
C564 C 0.4937 0.05367 0.5322 0.0
C565 C 0.48656 0.03647 0.53831 0.0
C566 C 0.48269 0.06572 0.52891 0.0
C567 C 0.46455 0.06064 0.53169 0.0
C568 C 0.46866 0.03135 0.54115 0.0
C569 C 0.45773 0.0433 0.53792 0.0
C570 C 0.57648 0.04593 0.55598 0.0
C571 C 0.56361 0.02492 0.50459 0.0
C572 C 0.61486 0.04908 0.51892 0.0
C573 C 0.63351 0.05439 0.51502 0.0
C574 C 0.64023 0.07115 0.50802 0.0
C575 C 0.64465 0.04242 0.5181 0.0
C576 C 0.66249 0.0471 0.51415 0.0
C577 C 0.65783 0.07588 0.50404 0.0
C578 C 0.66887 0.06397 0.50701 0.0
C579 C 0.5508 0.06205 0.49234 0.0
H580 H 0.4948 0.02704 0.5409 0.0
H581 H 0.48824 0.0789 0.52397 0.0
H582 H 0.46325 0.01809 0.54596 0.0
H583 H 0.44398 0.03907 0.54057 0.0
H584 H 0.63189 0.08051 0.50557 0.0
H585 H 0.63943 0.0296 0.52373 0.0
H586 H 0.6629 0.08879 0.49852 0.0
H587 H 0.68236 0.06788 0.50345 0.0
Gd588 Gd 0.33009 0.2978 0.78009 0.0
Gd589 Gd 0.28515 0.30309 0.77193 0.0
C590 C 0.2423 0.26165 0.72842 0.0
C591 C 0.24845 0.27447 0.70021 0.0
C592 C 0.26641 0.29013 0.72976 0.0
C593 C 0.25677 0.27623 0.73847 0.0
C594 C 0.26211 0.28964 0.71058 0.0
C595 C 0.23853 0.26052 0.70912 0.0
C596 C 0.23162 0.24918 0.73821 0.0
C597 C 0.23499 0.25201 0.75765 0.0
N598 N 0.26073 0.27779 0.7571 0.0
C599 C 0.24942 0.26677 0.76698 0.0
H600 H 0.25203 0.26896 0.78203 0.0
C601 C 0.28796 0.3198 0.73263 0.0
N602 N 0.27941 0.30467 0.74024 0.0
C603 C 0.28411 0.32 0.71369 0.0
C604 C 0.27134 0.3047 0.70254 0.0
H605 H 0.29805 0.3316 0.7409 0.0
H606 H 0.22762 0.24927 0.7011 0.0
H607 H 0.34333 0.33726 0.81362 0.0
H608 H 0.22037 0.23781 0.73101 0.0
H609 H 0.22647 0.24287 0.76545 0.0
H610 H 0.24512 0.27372 0.68542 0.0
H611 H 0.33532 0.25351 0.76574 0.0
H612 H 0.35879 0.32086 0.86441 0.0
H613 H 0.35465 0.34614 0.84708 0.0
H614 H 0.35428 0.2534 0.84539 0.0
H615 H 0.29116 0.33185 0.70767 0.0
H616 H 0.26847 0.30484 0.68785 0.0
H617 H 0.35788 0.28604 0.86384 0.0
H618 H 0.34218 0.22703 0.77948 0.0
N619 N 0.34071 0.30726 0.81204 0.0
C620 C 0.35368 0.3169 0.84975 0.0
C621 C 0.35147 0.3312 0.83999 0.0
C622 C 0.34998 0.29773 0.84026 0.0
C623 C 0.34361 0.29337 0.82111 0.0
C624 C 0.34507 0.32611 0.82099 0.0
N625 N 0.33705 0.27211 0.7921 0.0
C626 C 0.34166 0.27512 0.81078 0.0
C627 C 0.34195 0.24043 0.78847 0.0
C628 C 0.34558 0.24288 0.80785 0.0
C629 C 0.3381 0.25544 0.78074 0.0
C630 C 0.34591 0.26057 0.81924 0.0
H631 H 0.34874 0.23132 0.8138 0.0
O632 O 0.34888 0.29203 0.76019 0.0
O633 O 0.30955 0.3005 0.75867 0.0
O634 O 0.28394 0.27076 0.76772 0.0
O635 O 0.31013 0.27012 0.78446 0.0
O636 O 0.32159 0.27796 0.75226 0.0
O637 O 0.3566 0.31695 0.78229 0.0
O638 O 0.27176 0.32592 0.7711 0.0
O639 O 0.30871 0.30905 0.79313 0.0
O640 O 0.33245 0.32975 0.77999 0.0
O641 O 0.30389 0.3333 0.77373 0.0
O642 O 0.28449 0.29432 0.79996 0.0
O643 O 0.26596 0.30794 0.79158 0.0
C644 C 0.31027 0.28627 0.74621 0.0
C645 C 0.35114 0.26445 0.83857 0.0
C646 C 0.3532 0.28303 0.84908 0.0
C647 C 0.36181 0.30645 0.76855 0.0
C648 C 0.37918 0.30228 0.77223 0.0
C649 C 0.38311 0.29614 0.7888 0.0
C650 C 0.392 0.30452 0.75932 0.0
C651 C 0.40859 0.3005 0.76298 0.0
C652 C 0.39941 0.29226 0.79254 0.0
C653 C 0.41205 0.29444 0.77983 0.0
C654 C 0.2938 0.26143 0.7761 0.0
C655 C 0.30091 0.30208 0.80607 0.0
C656 C 0.26116 0.32065 0.78345 0.0
C657 C 0.24178 0.31718 0.77827 0.0
C658 C 0.23514 0.31495 0.75945 0.0
C659 C 0.22969 0.3156 0.792 0.0
C660 C 0.21125 0.3123 0.78694 0.0
C661 C 0.217 0.31153 0.7544 0.0
C662 C 0.20517 0.3103 0.76798 0.0
C663 C 0.32144 0.3405 0.77691 0.0
H664 H 0.37362 0.29452 0.79896 0.0
H665 H 0.38898 0.30917 0.74645 0.0
H666 H 0.40233 0.28765 0.80545 0.0
H667 H 0.4247 0.29164 0.7834 0.0
H668 H 0.24395 0.31578 0.74855 0.0
H669 H 0.23462 0.31716 0.80654 0.0
H670 H 0.21206 0.30979 0.73986 0.0
H671 H 0.19113 0.30748 0.76357 0.0
Gd672 Gd 0.06699 0.0182 0.51198 0.0
Gd673 Gd 0.06272 0.06336 0.53775 0.0
C674 C 0.06946 0.07935 0.60165 0.0
C675 C 0.03968 0.08059 0.60854 0.0
C676 C 0.04609 0.0731 0.57628 0.0
C677 C 0.06351 0.07441 0.58236 0.0
C678 C 0.03405 0.07655 0.58929 0.0
C679 C 0.05736 0.08199 0.61471 0.0
C680 C 0.08749 0.08206 0.60721 0.0
C681 C 0.09918 0.0805 0.59364 0.0
N682 N 0.07487 0.07193 0.56935 0.0
C683 C 0.09264 0.07565 0.57468 0.0
H684 H 0.10185 0.07443 0.56438 0.0
C685 C 0.02464 0.07013 0.55093 0.0
N686 N 0.04116 0.0694 0.55759 0.0
C687 C 0.01219 0.07334 0.56328 0.0
C688 C 0.01684 0.07634 0.58254 0.0
H689 H 0.02086 0.06776 0.53608 0.0
H690 H 0.06164 0.0856 0.62959 0.0
H691 H 0.02788 1.0069 0.48528 0.0
H692 H 0.09259 0.08581 0.62189 0.0
H693 H 0.11321 0.08291 0.59776 0.0
H694 H 0.03058 0.08312 0.61875 0.0
H695 H 0.10882 0.01368 0.51361 0.0
H696 H 0.03721 0.99593 0.42779 0.0
H697 H 0.01655 0.9986 0.45191 0.0
H698 H 0.0992 0.99856 0.43095 0.0
H699 H 0.99901 0.07347 0.55792 0.0
H700 H 0.00718 0.07889 0.59208 0.0
H701 H 0.06816 0.99618 0.42009 0.0
H702 H 0.13066 1.00795 0.4918 0.0
N703 N 0.05487 1.00959 0.48034 0.0
C704 C 0.04229 0.99962 0.44247 0.0
C705 C 0.03058 1.00104 0.45604 0.0
C706 C 0.06031 1.00233 0.44803 0.0
C707 C 0.06624 1.00719 0.46733 0.0
C708 C 0.0371 1.00578 0.475 0.0
N709 N 0.0885 0.01203 0.4921 0.0
C710 C 0.08362 1.0084 0.47341 0.0
C711 C 0.11749 1.0081 0.48643 0.0
C712 C 0.11287 1.00515 0.46717 0.0
C713 C 0.10503 0.01131 0.49877 0.0
C714 C 0.09568 1.00499 0.46041 0.0
H715 H 0.12254 1.0026 0.45764 0.0
O716 O 0.07323 0.99388 0.52174 0.0
O717 O 0.06899 0.03565 0.54123 0.0
O718 O 0.09098 0.06441 0.53121 0.0
O719 O 0.08859 0.04135 0.50432 0.0
O720 O 0.08849 0.02178 0.53574 0.0
O721 O 0.04702 0.99089 0.50799 0.0
O722 O 0.05665 0.08725 0.5271 0.0
O723 O 0.06082 0.04592 0.50859 0.0
O724 O 0.03863 0.01732 0.51835 0.0
O725 O 0.04112 0.0403 0.54532 0.0
O726 O 0.04126 0.05976 0.51384 0.0
O727 O 0.08211 0.09122 0.54295 0.0
C728 C 0.08285 0.03231 0.54881 0.0
C729 C 0.09009 1.00105 0.44115 0.0
C730 C 0.07243 0.99972 0.43497 0.0
C731 C 0.0577 0.98234 0.51545 0.0
C732 C 0.05751 0.96285 0.50599 0.0
C733 C 0.0602 0.95856 0.48708 0.0
C734 C 0.05507 0.94836 0.51659 0.0
C735 C 0.05559 0.92953 0.50866 0.0
C736 C 0.06043 0.93979 0.47892 0.0
C737 C 0.05818 0.92532 0.48962 0.0
C738 C 0.09738 0.05734 0.51593 0.0
C739 C 0.04701 0.04919 0.50086 0.0
C740 C 0.07164 0.09929 0.53448 0.0
C741 C 0.0706 0.11848 0.54348 0.0
C742 C 0.06521 0.12222 0.56145 0.0
C743 C 0.07387 0.13303 0.53301 0.0
C744 C 0.07136 0.15123 0.54002 0.0
C745 C 0.06286 0.14045 0.56864 0.0
C746 C 0.06571 0.15489 0.55788 0.0
C747 C 0.03214 0.02462 0.53348 0.0
H748 H 0.06215 0.96965 0.47871 0.0
H749 H 0.05272 0.95185 0.53113 0.0
H750 H 0.06254 0.93647 0.46432 0.0
H751 H 0.05878 0.91099 0.4831 0.0
H752 H 0.06257 0.11106 0.56971 0.0
H753 H 0.07771 0.12994 0.51897 0.0
H754 H 0.05856 0.1433 0.58243 0.0
H755 H 0.06352 0.16882 0.56345 0.0
Gd756 Gd 0.28931 0.78298 0.76162 0.0
Gd757 Gd 0.3307 0.81726 0.77472 0.0
C758 C 0.32762 0.87878 0.77291 0.0
C759 C 0.3468 0.88701 0.74894 0.0
C760 C 0.34225 0.85553 0.7576 0.0
C761 C 0.33079 0.86028 0.77021 0.0
C762 C 0.35094 0.86912 0.74737 0.0
C763 C 0.33515 0.89184 0.76171 0.0
C764 C 0.31771 0.88392 0.78739 0.0
C765 C 0.31179 0.871 0.79913 0.0
N766 N 0.32405 0.84746 0.78104 0.0
C767 C 0.3152 0.8528 0.79582 0.0
H768 H 0.31062 0.84302 0.80501 0.0
C769 C 0.36045 0.83487 0.74801 0.0
N770 N 0.3463 0.83836 0.75683 0.0
C771 C 0.3693 0.84772 0.73738 0.0
C772 C 0.36425 0.86474 0.73671 0.0
H773 H 0.36456 0.82187 0.74883 0.0
H774 H 0.33265 0.906 0.76338 0.0
H775 H 0.27184 0.76741 0.71679 0.0
H776 H 0.31511 0.89803 0.79005 0.0
H777 H 0.30451 0.87501 0.81068 0.0
H778 H 0.35314 0.89754 0.74099 0.0
H779 H 0.29615 0.76805 0.80183 0.0
H780 H 0.27829 0.71063 0.69825 0.0
H781 H 0.26854 0.7389 0.69157 0.0
H782 H 0.29732 0.69366 0.75514 0.0
H783 H 0.3801 0.84457 0.72986 0.0
H784 H 0.37127 0.8748 0.72867 0.0
H785 H 0.28935 0.69394 0.72208 0.0
H786 H 0.3003 0.7389 0.81224 0.0
N787 N 0.28474 0.75603 0.73697 0.0
C788 C 0.28003 0.72322 0.70924 0.0
C789 C 0.27447 0.73912 0.70543 0.0
C790 C 0.28678 0.72332 0.72748 0.0
C791 C 0.28884 0.74012 0.74126 0.0
C792 C 0.27643 0.75524 0.71969 0.0
N793 N 0.29429 0.75607 0.77283 0.0
C794 C 0.29343 0.73999 0.75983 0.0
C795 C 0.29854 0.73906 0.79744 0.0
C796 C 0.29862 0.72275 0.78423 0.0
C797 C 0.29633 0.75566 0.79147 0.0
C798 C 0.29592 0.72301 0.76515 0.0
H799 H 0.30047 0.70995 0.78889 0.0
O800 O 0.26768 0.77325 0.77781 0.0
O801 O 0.30131 0.8151 0.77003 0.0
O802 O 0.3193 0.80977 0.80087 0.0
O803 O 0.28942 0.79813 0.79126 0.0
O804 O 0.28361 0.80574 0.74613 0.0
O805 O 0.26195 0.77849 0.75014 0.0
O806 O 0.35675 0.81442 0.78382 0.0
O807 O 0.31763 0.78542 0.77262 0.0
O808 O 0.30339 0.78461 0.73561 0.0
O809 O 0.32683 0.81242 0.74315 0.0
O810 O 0.34094 0.79263 0.76018 0.0
O811 O 0.34561 0.83515 0.80044 0.0
C812 C 0.29316 0.82104 0.75729 0.0
C813 C 0.29508 0.70669 0.75135 0.0
C814 C 0.29059 0.70687 0.73252 0.0
C815 C 0.25544 0.77222 0.76454 0.0
C816 C 0.24071 0.75475 0.76062 0.0
C817 C 0.24359 0.73625 0.75796 0.0
C818 C 0.22336 0.75679 0.75954 0.0
C819 C 0.20881 0.74048 0.75569 0.0
C820 C 0.22918 0.71994 0.75404 0.0
C821 C 0.21185 0.722 0.75282 0.0
C822 C 0.30269 0.80544 0.80452 0.0
C823 C 0.32913 0.7783 0.76381 0.0
C824 C 0.35958 0.82873 0.79791 0.0
C825 C 0.37676 0.84304 0.79961 0.0
C826 C 0.37807 0.86167 0.79608 0.0
C827 C 0.39222 0.83752 0.80403 0.0
C828 C 0.409 0.85033 0.80484 0.0
C829 C 0.39472 0.87451 0.79687 0.0
C830 C 0.41013 0.8689 0.80117 0.0
C831 C 0.31654 0.79766 0.73103 0.0
H832 H 0.25688 0.73439 0.75895 0.0
H833 H 0.22121 0.77113 0.7614 0.0
H834 H 0.23146 0.70569 0.75195 0.0
H835 H 0.20084 0.7092 0.74982 0.0
H836 H 0.3663 0.86624 0.7926 0.0
H837 H 0.39115 0.823 0.80641 0.0
H838 H 0.39568 0.88883 0.7941 0.0
H839 H 0.4229 0.87912 0.8018 0.0
Gd840 Gd 0.55835 0.05478 0.00959 0.0
Gd841 Gd 0.57565 0.04181 0.05283 0.0
C842 C 0.63388 0.06044 0.07678 0.0
C843 C 0.64185 0.02985 0.07279 0.0
C844 C 0.61197 0.03089 0.06253 0.0
C845 C 0.61664 0.05072 0.0682 0.0
C846 C 0.62443 0.02017 0.06503 0.0
C847 C 0.64655 0.04995 0.07871 0.0
C848 C 0.6377 0.08031 0.08367 0.0
C849 C 0.62453 0.09 0.08188 0.0
N850 N 0.60407 0.06042 0.06615 0.0
C851 C 0.60765 0.07975 0.07322 0.0
H852 H 0.59761 0.08747 0.07212 0.0
C853 C 0.58916 1.00228 0.05177 0.0
N854 N 0.59496 0.02198 0.05548 0.0
C855 C 0.60107 0.99102 0.05374 0.0
C856 C 0.61884 1.00001 0.06022 0.0
H857 H 0.57541 0.99531 0.04682 0.0
H858 H 0.65991 0.05719 0.08511 0.0
H859 H 0.53496 0.01021 0.98847 0.0
H860 H 0.65063 0.08822 0.09078 0.0
H861 H 0.62732 0.10535 0.08731 0.0
H862 H 0.65165 0.02189 0.07472 0.0
H863 H 0.56052 0.10187 0.01628 0.0
H864 H 0.48163 0.01183 0.97384 0.0
H865 H 0.50446 0.99359 0.97458 0.0
H866 H 0.48363 0.07892 0.99126 0.0
H867 H 0.59654 0.97544 0.05033 0.0
H868 H 0.62802 0.99126 0.06189 0.0
H869 H 0.47388 0.04368 0.98047 0.0
H870 H 0.54036 0.12302 0.01409 0.0
N871 N 0.52952 0.03762 0.99608 0.0
C872 C 0.49503 0.01923 0.98001 0.0
C873 C 0.50789 1.0089 0.98035 0.0
C874 C 0.49974 0.03909 0.98717 0.0
C875 C 0.51737 0.04801 0.99504 0.0
C876 C 0.52521 0.01841 0.98828 0.0
N877 N 0.54011 0.07589 0.00755 0.0
C878 C 0.52282 0.06778 1.00104 0.0
C879 C 0.53524 0.1075 0.01044 0.0
C880 C 0.51722 0.09934 1.00454 0.0
C881 C 0.54662 0.09551 0.01162 0.0
C882 C 0.51085 0.07925 0.99947 0.0
H883 H 0.50845 0.10866 1.00356 0.0
O884 O 0.57002 0.07157 0.98953 0.0
O885 O 0.58167 0.05668 0.02918 0.0
O886 O 0.56815 0.07047 0.05835 0.0
O887 O 0.54693 0.06902 0.03391 0.0
O888 O 0.58213 0.08085 0.01836 0.0
O889 O 0.5621 0.04021 0.98222 0.0
O890 O 0.56407 0.02436 0.07239 0.0
O891 O 0.55247 0.03962 0.03311 0.0
O892 O 0.5646 0.02549 1.00416 0.0
O893 O 0.58604 0.02659 0.0283 0.0
O894 O 0.55202 0.01555 0.04432 0.0
O895 O 0.57201 0.0557 0.08055 0.0
C896 C 0.591 0.07332 0.02906 0.0
C897 C 0.49308 0.07037 0.99242 0.0
C898 C 0.48753 0.05031 0.98628 0.0
C899 C 0.56791 0.05631 0.97638 0.0
C900 C 0.55991 0.057 0.95791 0.0
C901 C 0.54479 0.06392 0.95581 0.0
C902 C 0.56734 0.05002 0.94206 0.0
C903 C 0.55986 0.0499 0.92403 0.0
C904 C 0.53723 0.06383 0.93794 0.0
C905 C 0.54471 0.05689 0.9221 0.0
C906 C 0.55455 0.07586 0.05123 0.0
C907 C 0.54327 0.02295 0.03337 0.0
C908 C 0.56646 0.0393 0.08596 0.0
C909 C 0.57473 0.03801 0.10412 0.0
C910 C 0.5873 0.02731 0.10562 0.0
C911 C 0.56974 0.04773 0.12034 0.0
C912 C 0.57682 0.04648 0.13806 0.0
C913 C 0.5945 0.02614 0.12327 0.0
C914 C 0.58917 0.03552 0.13947 0.0
C915 C 0.57794 0.01961 0.01118 0.0
H916 H 0.53886 0.06937 0.96789 0.0
H917 H 0.57917 0.04493 0.94383 0.0
H918 H 0.52555 0.06915 0.93636 0.0
H919 H 0.5386 0.05688 0.90837 0.0
H920 H 0.59141 0.01973 0.09326 0.0
H921 H 0.55991 0.05585 0.11917 0.0
H922 H 0.6041 0.01778 0.12438 0.0
H923 H 0.59464 0.03425 0.15305 0.0
Gd924 Gd 0.28528 0.29295 0.26785 0.0
Gd925 Gd 0.31545 0.34031 0.29057 0.0
C926 C 0.36221 0.37887 0.26928 0.0
C927 C 0.38712 0.36783 0.28044 0.0
C928 C 0.35721 0.35315 0.28698 0.0
C929 C 0.35066 0.36513 0.27733 0.0
C930 C 0.37561 0.35468 0.28902 0.0
C931 C 0.38042 0.37985 0.27052 0.0
C932 C 0.35518 0.39164 0.26075 0.0
C933 C 0.33718 0.39093 0.26098 0.0
N934 N 0.33308 0.36404 0.27668 0.0
C935 C 0.3263 0.37715 0.2693 0.0
H936 H 0.31234 0.37654 0.26937 0.0
C937 C 0.35198 0.33016 0.30655 0.0
N938 N 0.34573 0.34073 0.29522 0.0
C939 C 0.37008 0.33113 0.30894 0.0
C940 C 0.38194 0.34336 0.30007 0.0
H941 H 0.34315 0.32062 0.31361 0.0
H942 H 0.38949 0.39021 0.26431 0.0
H943 H 0.28823 0.25699 0.28932 0.0
H944 H 0.36361 0.40239 0.25438 0.0
H945 H 0.33166 0.40096 0.25474 0.0
H946 H 0.40126 0.36908 0.28173 0.0
H947 H 0.25784 0.31418 0.24593 0.0
H948 H 0.23606 0.22663 0.29804 0.0
H949 H 0.26852 0.23063 0.30121 0.0
H950 H 0.19854 0.2587 0.26873 0.0
H951 H 0.37487 0.32245 0.31768 0.0
H952 H 0.39598 0.3442 0.3021 0.0
H953 H 0.21003 0.2371 0.28574 0.0
H954 H 0.22612 0.3108 0.23961 0.0
N955 N 0.26721 0.26834 0.28039 0.0
C956 C 0.24467 0.23835 0.29303 0.0
C957 C 0.26297 0.24052 0.2948 0.0
C958 C 0.23766 0.25099 0.28431 0.0
C959 C 0.24946 0.26609 0.27811 0.0
C960 C 0.27408 0.25547 0.28809 0.0
N961 N 0.25487 0.29214 0.26228 0.0
C962 C 0.24307 0.27833 0.26869 0.0
C963 C 0.23069 0.30155 0.24782 0.0
C964 C 0.21849 0.28777 0.25475 0.0
C965 C 0.24886 0.30338 0.25151 0.0
C966 C 0.22458 0.27571 0.26504 0.0
H967 H 0.20442 0.28632 0.25177 0.0
O968 O 0.28306 0.28643 0.23738 0.0
O969 O 0.3127 0.31146 0.27351 0.0
O970 O 0.31438 0.33828 0.25918 0.0
O971 O 0.28763 0.315 0.24888 0.0
O972 O 0.30976 0.28306 0.27522 0.0
O973 O 0.28725 0.26517 0.25328 0.0
O974 O 0.32058 0.34825 0.32092 0.0
O975 O 0.2883 0.32164 0.28514 0.0
O976 O 0.28618 0.29477 0.2992 0.0
O977 O 0.31266 0.31845 0.30994 0.0
O978 O 0.29045 0.35004 0.28464 0.0
O979 O 0.31281 0.36791 0.30495 0.0
C980 C 0.32116 0.29934 0.27603 0.0
C981 C 0.21275 0.26086 0.27136 0.0
C982 C 0.21929 0.24859 0.28107 0.0
C983 C 0.28796 0.27051 0.23714 0.0
C984 C 0.30382 0.26863 0.22761 0.0
C985 C 0.31097 0.28114 0.21573 0.0
C986 C 0.31287 0.25516 0.23179 0.0
C987 C 0.3292 0.25462 0.22502 0.0
C988 C 0.32702 0.28034 0.20852 0.0
C989 C 0.33618 0.26724 0.2132 0.0
C990 C 0.30102 0.32912 0.24617 0.0
C991 C 0.27934 0.3335 0.28349 0.0
C992 C 0.31454 0.36353 0.32143 0.0
C993 C 0.29986 0.36513 0.33305 0.0
C994 C 0.2946 0.35256 0.34548 0.0
C995 C 0.29003 0.37848 0.33059 0.0
C996 C 0.27476 0.37886 0.33973 0.0
C997 C 0.27948 0.35295 0.35471 0.0
C998 C 0.26946 0.36587 0.35171 0.0
C999 C 0.29946 0.30391 0.31234 0.0
H1000 H 0.30437 0.29176 0.21228 0.0
H1001 H 0.30734 0.24524 0.24069 0.0
H1002 H 0.33254 0.29016 0.19955 0.0
H1003 H 0.34883 0.26723 0.20791 0.0
H1004 H 0.30188 0.34212 0.34774 0.0
H1005 H 0.29389 0.38817 0.32097 0.0
H1006 H 0.27538 0.34303 0.36403 0.0
H1007 H 0.25771 0.36585 0.35886 0.0
Gd1008 Gd 0.56347 0.51826 0.01704 0.0
Gd1009 Gd 0.55963 0.56393 0.04219 0.0
C1010 C 0.56632 0.58027 0.10606 0.0
C1011 C 0.53657 0.58181 0.11286 0.0
C1012 C 0.54301 0.57406 0.08064 0.0
C1013 C 0.56039 0.57524 0.08676 0.0
C1014 C 0.53098 0.57772 0.09359 0.0
C1015 C 0.55422 0.58309 0.11908 0.0
C1016 C 0.58434 0.58297 0.11166 0.0
C1017 C 0.59604 0.58133 0.09811 0.0
N1018 N 0.57176 0.57266 0.07379 0.0
C1019 C 0.58953 0.5764 0.07915 0.0
H1020 H 0.59875 0.57514 0.06887 0.0
C1021 C 0.52171 0.57129 0.05521 0.0
N1022 N 0.53812 0.5703 0.06194 0.0
C1023 C 0.50927 0.57472 0.0675 0.0
C1024 C 0.51385 0.57771 0.08678 0.0
H1025 H 0.518 0.56891 0.04034 0.0
H1026 H 0.55848 0.58676 0.13396 0.0
H1027 H 0.52407 0.50672 0.99071 0.0
H1028 H 0.58941 0.58679 0.12634 0.0
H1029 H 0.61006 0.58375 0.10226 0.0
H1030 H 0.52749 0.5845 0.12303 0.0
H1031 H 0.6051 0.51331 0.0183 0.0
H1032 H 0.53266 0.4946 0.93312 0.0
H1033 H 0.51235 0.49781 0.95753 0.0
H1034 H 0.59456 0.49685 0.93564 0.0
H1035 H 0.49616 0.57503 0.06209 0.0
H1036 H 0.50421 0.58044 0.09627 0.0
H1037 H 0.56346 0.49454 0.92507 0.0
H1038 H 0.62663 0.50698 0.99629 0.0
N1039 N 0.55098 0.50913 0.9855 0.0
C1040 C 0.53792 0.49854 0.94775 0.0
C1041 C 0.52642 0.50028 0.96147 0.0
C1042 C 0.55598 0.50124 0.95311 0.0
C1043 C 0.56214 0.5064 0.97235 0.0
C1044 C 0.53317 0.50534 0.98037 0.0
N1045 N 0.5846 0.51142 0.99692 0.0
C1046 C 0.57953 0.50757 0.97826 0.0
C1047 C 0.61344 0.50715 0.99102 0.0
C1048 C 0.60861 0.50392 0.97177 0.0
C1049 C 0.60115 0.51069 1.00346 0.0
C1050 C 0.59141 0.50382 0.96515 0.0
H1051 H 0.61814 0.50113 0.96216 0.0
O1052 O 0.56978 0.49301 0.02477 0.0
O1053 O 0.56583 0.53624 0.0461 0.0
O1054 O 0.58786 0.56475 0.03583 0.0
O1055 O 0.58537 0.54117 0.00932 0.0
O1056 O 0.58494 0.52177 0.04078 0.0
O1057 O 0.54252 0.4923 0.01621 0.0
O1058 O 0.55342 0.58767 0.03125 0.0
O1059 O 0.55787 0.5461 0.01321 0.0
O1060 O 0.53513 0.51799 0.02314 0.0
O1061 O 0.53774 0.54124 0.04991 0.0
O1062 O 0.53836 0.56012 0.01801 0.0
O1063 O 0.57891 0.59184 0.04705 0.0
C1064 C 0.57961 0.53276 0.05371 0.0
C1065 C 0.5856 0.49961 0.94593 0.0
C1066 C 0.5679 0.49831 0.93992 0.0
C1067 C 0.55339 0.48268 0.02134 0.0
C1068 C 0.55035 0.46274 0.01136 0.0
C1069 C 0.55438 0.45826 0.99292 0.0
C1070 C 0.54327 0.44789 0.02075 0.0
C1071 C 0.54029 0.42847 0.01197 0.0
C1072 C 0.55144 0.43896 0.98405 0.0
C1073 C 0.5445 0.42411 0.99352 0.0
C1074 C 0.59427 0.55724 0.02076 0.0
C1075 C 0.54419 0.5494 1.00525 0.0
C1076 C 0.56833 0.59985 0.03865 0.0
C1077 C 0.56703 0.61891 0.04791 0.0
C1078 C 0.56383 0.62278 0.06671 0.0
C1079 C 0.56835 0.63332 0.03725 0.0
C1080 C 0.56649 0.65165 0.04514 0.0
C1081 C 0.56189 0.64096 0.07468 0.0
C1082 C 0.56315 0.65534 0.06397 0.0
C1083 C 0.52863 0.52558 0.03814 0.0
H1084 H 0.55984 0.4696 0.98548 0.0
H1085 H 0.54043 0.45151 0.03511 0.0
H1086 H 0.55459 0.43551 0.96982 0.0
H1087 H 0.54233 0.40926 0.98641 0.0
H1088 H 0.56273 0.6118 0.07514 0.0
H1089 H 0.57051 0.63008 0.02261 0.0
H1090 H 0.55939 0.64392 0.08919 0.0
H1091 H 0.56172 0.66936 0.07044 0.0
Gd1092 Gd 0.78527 0.27987 0.26167 0.0
Gd1093 Gd 0.82609 0.31572 0.26346 0.0
C1094 C 0.82864 0.37536 0.25014 0.0
C1095 C 0.84378 0.3745 0.222 0.0
C1096 C 0.83805 0.34688 0.23742 0.0
C1097 C 0.8296 0.35635 0.25063 0.0
C1098 C 0.8456 0.35601 0.22319 0.0
C1099 C 0.83531 0.38416 0.23546 0.0
C1100 C 0.82169 0.38526 0.26484 0.0
C1101 C 0.81662 0.37647 0.2799 0.0
N1102 N 0.82359 0.34755 0.26479 0.0
C1103 C 0.81793 0.35763 0.27978 0.0
H1104 H 0.81392 0.35105 0.29152 0.0
C1105 C 0.85001 0.32034 0.22789 0.0
N1106 N 0.83979 0.32916 0.23916 0.0
C1107 C 0.85768 0.32877 0.21351 0.0
C1108 C 0.85525 0.34656 0.21097 0.0
H1109 H 0.85197 0.30657 0.22963 0.0
H1110 H 0.83451 0.39867 0.23473 0.0
H1111 H 0.79817 0.24461 0.23435 0.0
H1112 H 0.82068 0.39986 0.26497 0.0
H1113 H 0.81162 0.38414 0.29157 0.0
H1114 H 0.84933 0.38167 0.21106 0.0
H1115 H 0.75795 0.28864 0.29404 0.0
H1116 H 0.79051 0.19581 0.26097 0.0
H1117 H 0.80032 0.21151 0.23458 0.0
H1118 H 0.76014 0.21381 0.31352 0.0
H1119 H 0.86541 0.3215 0.20436 0.0
H1120 H 0.86126 0.35309 0.19986 0.0
H1121 H 0.77581 0.19696 0.29066 0.0
H1122 H 0.74338 0.27348 0.31862 0.0
N1123 N 0.78793 0.24816 0.26076 0.0
C1124 C 0.78961 0.21043 0.261 0.0
C1125 C 0.79509 0.2192 0.24605 0.0
C1126 C 0.78231 0.22032 0.27539 0.0
C1127 C 0.78148 0.23936 0.27477 0.0
C1128 C 0.79388 0.23805 0.24602 0.0
N1129 N 0.77096 0.26648 0.28564 0.0
C1130 C 0.77263 0.24878 0.28758 0.0
C1131 C 0.75169 0.26644 0.31009 0.0
C1132 C 0.75415 0.24877 0.31299 0.0
C1133 C 0.76004 0.27502 0.29613 0.0
C1134 C 0.76444 0.23953 0.30145 0.0
H1135 H 0.74761 0.24212 0.32377 0.0
O1136 O 0.75889 0.28235 0.25356 0.0
O1137 O 0.79654 0.31069 0.25797 0.0
O1138 O 0.81448 0.31766 0.29128 0.0
O1139 O 0.79627 0.28749 0.2919 0.0
O1140 O 0.77517 0.3059 0.2731 0.0
O1141 O 0.76861 0.2595 0.23823 0.0
O1142 O 0.85322 0.31472 0.27022 0.0
O1143 O 0.81494 0.28483 0.26706 0.0
O1144 O 0.79705 0.2778 0.23397 0.0
O1145 O 0.81431 0.3084 0.23348 0.0
O1146 O 0.83641 0.28986 0.25211 0.0
O1147 O 0.84194 0.33466 0.28812 0.0
C1148 C 0.78576 0.31907 0.26652 0.0
C1149 C 0.76618 0.22106 0.30284 0.0
C1150 C 0.77511 0.21147 0.28983 0.0
C1151 C 0.7549 0.26633 0.24128 0.0
C1152 C 0.7381 0.25263 0.24312 0.0
C1153 C 0.73762 0.23447 0.24746 0.0
C1154 C 0.72236 0.25849 0.24169 0.0
C1155 C 0.70617 0.24659 0.24485 0.0
C1156 C 0.72157 0.22246 0.25045 0.0
C1157 C 0.70592 0.22845 0.2492 0.0
C1158 C 0.80574 0.30478 0.30042 0.0
C1159 C 0.82587 0.27657 0.25858 0.0
C1160 C 0.85616 0.32904 0.2844 0.0
C1161 C 0.87275 0.34402 0.2853 0.0
C1162 C 0.8732 0.36162 0.27971 0.0
C1163 C 0.88859 0.34011 0.29125 0.0
C1164 C 0.90496 0.35351 0.29161 0.0
C1165 C 0.88946 0.37503 0.27997 0.0
C1166 C 0.90531 0.371 0.2858 0.0
C1167 C 0.80538 0.29094 0.22487 0.0
H1168 H 0.74959 0.22962 0.24872 0.0
H1169 H 0.72278 0.27244 0.23813 0.0
H1170 H 0.72129 0.20853 0.25391 0.0
H1171 H 0.6937 0.21901 0.25188 0.0
H1172 H 0.86111 0.36495 0.2751 0.0
H1173 H 0.88817 0.32633 0.29522 0.0
H1174 H 0.88977 0.38856 0.27559 0.0
H1175 H 0.91777 0.38159 0.28596 0.0
Gd1176 Gd 0.0547 0.53345 0.50251 0.0
Gd1177 Gd 0.07165 0.52572 0.54889 0.0
C1178 C 0.08924 0.56493 0.60627 0.0
C1179 C 0.1213 0.57084 0.60795 0.0
C1180 C 0.1028 0.55188 0.57971 0.0
C1181 C 0.08776 0.55421 0.58792 0.0
C1182 C 0.11971 0.55976 0.58985 0.0
C1183 C 0.10609 0.57348 0.61612 0.0
C1184 C 0.07371 0.5663 0.6144 0.0
C1185 C 0.05725 0.55684 0.60439 0.0
N1186 N 0.07165 0.54527 0.57825 0.0
C1187 C 0.05644 0.5462 0.58632 0.0
H1188 H 0.0436 0.53902 0.57878 0.0
C1189 C 0.11509 0.53601 0.55482 0.0
N1190 N 0.10083 0.54084 0.56232 0.0
C1191 C 0.1321 0.54341 0.56433 0.0
C1192 C 0.13446 0.55551 0.58186 0.0
H1193 H 0.11328 0.52605 0.5416 0.0
H1194 H 0.10748 0.58174 0.63023 0.0
H1195 H 0.07669 0.5138 0.46982 0.0
H1196 H 0.07429 0.57434 0.62849 0.0
H1197 H 0.04516 0.55766 0.61062 0.0
H1198 H 0.13419 0.57706 0.6159 0.0
H1199 H 0.01611 0.54397 0.51087 0.0
H1200 H 0.0391 0.47357 0.42758 0.0
H1201 H 0.07022 0.48972 0.44035 0.0
H1202 H 0.9833 0.48285 0.44534 0.0
H1203 H 0.14331 0.53949 0.55825 0.0
H1204 H 0.14762 0.561 0.58935 0.0
H1205 H 1.00662 0.47084 0.42974 0.0
H1206 H 0.98476 0.53325 0.4978 0.0
N1207 N 0.04952 0.51085 0.4741 0.0
C1208 C 0.04187 0.48406 0.44058 0.0
C1209 C 0.05945 0.4932 0.44769 0.0
C1210 C 0.02809 0.48911 0.44997 0.0
C1211 C 0.03242 0.5028 0.46688 0.0
C1212 C 0.06306 0.50688 0.46438 0.0
N1213 N 0.02427 0.52326 0.49145 0.0
C1214 C 0.01936 0.50931 0.47579 0.0
C1215 C 0.99432 0.52626 0.49155 0.0
C1216 C 0.98893 0.51121 0.47605 0.0
C1217 C 0.01215 0.53225 0.49898 0.0
C1218 C 1.00152 0.50265 0.46785 0.0
H1219 H 0.97516 0.50672 0.47018 0.0
O1220 O 0.04713 0.56006 0.49983 0.0
O1221 O 0.07697 0.54117 0.52525 0.0
O1222 O 0.06773 0.55569 0.55252 0.0
O1223 O 0.04593 0.55095 0.52748 0.0
O1224 O 0.08383 0.5399 0.49827 0.0
O1225 O 0.06736 0.55074 0.48357 0.0
O1226 O 0.08617 0.50449 0.5529 0.0
O1227 O 0.0496 0.51939 0.52665 0.0
O1228 O 0.05755 0.50306 0.50031 0.0
O1229 O 0.08049 0.50841 0.5241 0.0
O1230 O 0.04257 0.51408 0.55225 0.0
O1231 O 0.06068 0.50298 0.56371 0.0
C1232 C 0.0899 0.54362 0.51564 0.0
C1233 C 0.99696 0.48831 0.45151 0.0
C1234 C 0.01023 0.48149 0.44262 0.0
C1235 C 0.0584 0.56357 0.48758 0.0
C1236 C 0.06102 0.58046 0.4785 0.0
C1237 C 0.05274 0.59531 0.48398 0.0
C1238 C 0.07199 0.58168 0.46402 0.0
C1239 C 0.07479 0.59746 0.45492 0.0
C1240 C 0.05542 0.61109 0.47496 0.0
C1241 C 0.06632 0.61216 0.46044 0.0
C1242 C 0.05463 0.56069 0.54387 0.0
C1243 C 0.0366 0.51334 0.53528 0.0
C1244 C 0.07558 0.49786 0.56476 0.0
C1245 C 0.08409 0.49942 0.58381 0.0
C1246 C 0.10076 0.49564 0.58648 0.0
C1247 C 0.07666 0.50718 0.59942 0.0
C1248 C 0.08583 0.51173 0.61738 0.0
C1249 C 0.10992 0.49999 0.60442 0.0
C1250 C 0.10261 0.50821 0.61981 0.0
C1251 C 0.07111 0.49827 0.50828 0.0
H1252 H 0.04423 0.59472 0.49517 0.0
H1253 H 0.0781 0.57005 0.45946 0.0
H1254 H 0.04899 0.6225 0.47921 0.0
H1255 H 0.06822 0.62449 0.45363 0.0
H1256 H 0.1069 0.48987 0.57465 0.0
H1257 H 0.06397 0.51054 0.59759 0.0
H1258 H 0.12285 0.49724 0.60635 0.0
H1259 H 0.10993 0.51162 0.63358 0.0
Gd1260 Gd 0.82839 0.79809 0.28284 0.0
Gd1261 Gd 0.78394 0.80485 0.27064 0.0
C1262 C 0.76245 0.79957 0.20965 0.0
C1263 C 0.76108 0.83238 0.20875 0.0
C1264 C 0.77109 0.82419 0.23776 0.0
C1265 C 0.76903 0.8054 0.22876 0.0
C1266 C 0.76662 0.83779 0.22803 0.0
C1267 C 0.75902 0.81329 0.19956 0.0
C1268 C 0.75886 0.78001 0.20145 0.0
C1269 C 0.76109 0.76675 0.2125 0.0
N1270 N 0.77222 0.79253 0.23905 0.0
C1271 C 0.76753 0.77325 0.23142 0.0
H1272 H 0.76924 0.76276 0.23963 0.0
C1273 C 0.77567 0.84627 0.26653 0.0
N1274 N 0.77617 0.82877 0.25641 0.0
C1275 C 0.77144 0.8603 0.25751 0.0
C1276 C 0.76719 0.85615 0.23812 0.0
H1277 H 0.7791 0.8496 0.28151 0.0
H1278 H 0.75418 0.80913 0.18482 0.0
H1279 H 0.84322 0.83991 0.31409 0.0
H1280 H 0.75386 0.77494 0.18681 0.0
H1281 H 0.75794 0.75152 0.20642 0.0
H1282 H 0.7578 0.84267 0.20096 0.0
H1283 H 0.83324 0.75336 0.27152 0.0
H1284 H 0.85853 0.8272 0.36671 0.0
H1285 H 0.85458 0.85087 0.34734 0.0
H1286 H 0.85435 0.75944 0.35197 0.0
H1287 H 0.77153 0.87431 0.26552 0.0
H1288 H 0.76385 0.86701 0.23116 0.0
H1289 H 0.85806 0.7929 0.36839 0.0
H1290 H 0.84076 0.72844 0.28723 0.0
N1291 N 0.84009 0.81009 0.31447 0.0
C1292 C 0.8535 0.82226 0.35206 0.0
C1293 C 0.85135 0.83566 0.34115 0.0
C1294 C 0.84981 0.80273 0.34372 0.0
C1295 C 0.8432 0.79707 0.32461 0.0
C1296 C 0.84488 0.82933 0.32222 0.0
N1297 N 0.83604 0.77392 0.29679 0.0
C1298 C 0.84109 0.77832 0.31545 0.0
C1299 C 0.8408 0.74237 0.29536 0.0
C1300 C 0.84499 0.74631 0.31476 0.0
C1301 C 0.8366 0.75652 0.28651 0.0
C1302 C 0.84554 0.7646 0.32502 0.0
H1303 H 0.84833 0.73537 0.32159 0.0
O1304 O 0.84764 0.79027 0.2646 0.0
O1305 O 0.80855 0.79912 0.26013 0.0
O1306 O 0.78254 0.77283 0.2712 0.0
O1307 O 0.80821 0.77168 0.28867 0.0
O1308 O 0.82122 0.77715 0.2553 0.0
O1309 O 0.85371 0.81854 0.2822 0.0
O1310 O 0.76454 0.81301 0.2885 0.0
O1311 O 0.80382 0.80396 0.29336 0.0
O1312 O 0.82984 0.83008 0.28236 0.0
O1313 O 0.8042 0.8313 0.26489 0.0
O1314 O 0.7911 0.8259 0.29811 0.0
O1315 O 0.7589 0.78425 0.27195 0.0
C1316 C 0.80999 0.78496 0.24816 0.0
C1317 C 0.85108 0.76983 0.3443 0.0
C1318 C 0.8532 0.78888 0.35365 0.0
C1319 C 0.85959 0.80651 0.27042 0.0
C1320 C 0.87781 0.80511 0.27514 0.0
C1321 C 0.88239 0.80023 0.29219 0.0
C1322 C 0.89075 0.8086 0.26256 0.0
C1323 C 0.90824 0.80734 0.26709 0.0
C1324 C 0.89953 0.79877 0.29668 0.0
C1325 C 0.91235 0.80225 0.28429 0.0
C1326 C 0.79176 0.76346 0.28048 0.0
C1327 C 0.80238 0.81817 0.30529 0.0
C1328 C 0.75282 0.79651 0.28324 0.0
C1329 C 0.73444 0.79728 0.27829 0.0
C1330 C 0.72942 0.80048 0.26059 0.0
C1331 C 0.72173 0.79466 0.29123 0.0
C1332 C 0.70401 0.79497 0.28636 0.0
C1333 C 0.71203 0.80099 0.25575 0.0
C1334 C 0.69942 0.79824 0.26846 0.0
C1335 C 0.82067 0.83947 0.27305 0.0
H1336 H 0.87271 0.79756 0.30203 0.0
H1337 H 0.88725 0.81255 0.24945 0.0
H1338 H 0.90291 0.79487 0.30984 0.0
H1339 H 0.92545 0.8007 0.28812 0.0
H1340 H 0.73894 0.80251 0.25048 0.0
H1341 H 0.72555 0.79207 0.30489 0.0
H1342 H 0.7083 0.80353 0.24206 0.0
H1343 H 0.68607 0.79891 0.26434 0.0
Gd1344 Gd 0.8013 0.30227 0.79353 0.0
Gd1345 Gd 0.81623 0.27866 0.75082 0.0
C1346 C 0.77972 0.21816 0.7293 0.0
C1347 C 0.80052 0.19824 0.72834 0.0
C1348 C 0.81054 0.23276 0.74112 0.0
C1349 C 0.79363 0.23465 0.73703 0.0
C1350 C 0.81405 0.2144 0.7372 0.0
C1351 C 0.78342 0.20016 0.72424 0.0
C1352 C 0.76235 0.22002 0.72775 0.0
C1353 C 0.75907 0.23769 0.73485 0.0
N1354 N 0.79047 0.25225 0.74221 0.0
C1355 C 0.77326 0.25357 0.7424 0.0
H1356 H 0.7701 0.26657 0.74886 0.0
C1357 C 0.84003 0.24698 0.75466 0.0
N1358 N 0.8233 0.24863 0.74987 0.0
C1359 C 0.844 0.22908 0.75134 0.0
C1360 C 0.83099 0.21272 0.74249 0.0
H1361 H 0.85074 0.25943 0.76047 0.0
H1362 H 0.77297 0.18746 0.71791 0.0
H1363 H 0.81389 0.29313 0.83517 0.0
H1364 H 0.75131 0.20768 0.72206 0.0
H1365 H 0.74558 0.23906 0.73479 0.0
H1366 H 0.80304 0.18412 0.72503 0.0
H1367 H 0.78094 0.33594 0.78195 0.0
H1368 H 0.84532 0.34577 0.86929 0.0
H1369 H 0.83255 0.31048 0.86445 0.0
H1370 H 0.83409 0.39362 0.83631 0.0
H1371 H 0.85725 0.228 0.75527 0.0
H1372 H 0.83415 0.19887 0.73981 0.0
H1373 H 0.84643 0.37684 0.85822 0.0
H1374 H 0.7873 0.37109 0.78601 0.0
N1375 N 0.81661 0.31819 0.82314 0.0
C1376 C 0.83724 0.33819 0.85634 0.0
C1377 C 0.82995 0.31831 0.85372 0.0
C1378 C 0.83306 0.34822 0.84271 0.0
C1379 C 0.82247 0.33764 0.8261 0.0
C1380 C 0.81934 0.30853 0.8371 0.0
N1381 N 0.8039 0.33606 0.79924 0.0
C1382 C 0.81584 0.34699 0.81364 0.0
C1383 C 0.79589 0.36457 0.79345 0.0
C1384 C 0.80957 0.37609 0.8067 0.0
C1385 C 0.79279 0.3445 0.79048 0.0
C1386 C 0.81927 0.36731 0.81759 0.0
H1387 H 0.81154 0.3916 0.80943 0.0
O1388 O 0.77299 0.28986 0.78593 0.0
O1389 O 0.80068 0.27467 0.77458 0.0
O1390 O 0.79362 0.28943 0.73983 0.0
O1391 O 0.78809 0.30895 0.76692 0.0
O1392 O 0.80366 0.27494 0.80302 0.0
O1393 O 0.78317 0.30002 0.81499 0.0
O1394 O 0.84141 0.28068 0.73959 0.0
O1395 O 0.81943 0.30525 0.77196 0.0
O1396 O 0.82956 0.30042 0.80199 0.0
O1397 O 0.83772 0.28309 0.77513 0.0
O1398 O 0.82382 0.30936 0.74539 0.0
O1399 O 0.81716 0.27423 0.72072 0.0
C1400 C 0.80275 0.26465 0.7866 0.0
C1401 C 0.8311 0.37801 0.83319 0.0
C1402 C 0.83808 0.36846 0.84571 0.0
C1403 C 0.76966 0.28991 0.80316 0.0
C1404 C 0.76004 0.27111 0.80704 0.0
C1405 C 0.7437 0.26115 0.79672 0.0
C1406 C 0.76772 0.26225 0.81981 0.0
C1407 C 0.75945 0.24346 0.82203 0.0
C1408 C 0.73532 0.24251 0.79894 0.0
C1409 C 0.74317 0.23364 0.81142 0.0
C1410 C 0.78528 0.30176 0.7485 0.0
C1411 C 0.82387 0.31795 0.76232 0.0
C1412 C 0.83454 0.27885 0.72242 0.0
C1413 C 0.84375 0.29356 0.71227 0.0
C1414 C 0.86235 0.29805 0.71315 0.0
C1415 C 0.83445 0.30388 0.70259 0.0
C1416 C 0.84369 0.31878 0.6942 0.0
C1417 C 0.87155 0.31285 0.70487 0.0
C1418 C 0.86232 0.32324 0.69552 0.0
C1419 C 0.84073 0.29166 0.79312 0.0
H1420 H 0.73761 0.26763 0.78668 0.0
H1421 H 0.78045 0.26971 0.82764 0.0
H1422 H 0.72277 0.23486 0.79085 0.0
H1423 H 0.7364 0.21921 0.81294 0.0
H1424 H 0.86978 0.29026 0.72049 0.0
H1425 H 0.8201 0.30063 0.70183 0.0
H1426 H 0.88589 0.31628 0.70571 0.0
H1427 H 0.86972 0.33451 0.68898 0.0
Gd1428 Gd 0.80068 0.78421 0.76774 0.0
Gd1429 Gd 0.82945 0.83216 0.79134 0.0
C1430 C 0.87708 0.87153 0.77166 0.0
C1431 C 0.90178 0.86051 0.78333 0.0
C1432 C 0.87156 0.84501 0.7883 0.0
C1433 C 0.86528 0.85729 0.77893 0.0
C1434 C 0.88996 0.84663 0.79084 0.0
C1435 C 0.89534 0.87284 0.77362 0.0
C1436 C 0.87024 0.88449 0.76326 0.0
C1437 C 0.85219 0.88359 0.76305 0.0
N1438 N 0.84766 0.85594 0.77776 0.0
C1439 C 0.84114 0.86947 0.77083 0.0
H1440 H 0.82726 0.86915 0.77112 0.0
C1441 C 0.86561 0.82008 0.80561 0.0
N1442 N 0.85972 0.83187 0.79542 0.0
C1443 C 0.88371 0.82118 0.80856 0.0
C1444 C 0.89595 0.83452 0.80116 0.0
H1445 H 0.85659 0.80952 0.81143 0.0
H1446 H 0.90462 0.88366 0.76811 0.0
H1447 H 0.76706 0.78122 0.79459 0.0
H1448 H 0.87886 0.8956 0.75747 0.0
H1449 H 0.84682 0.89391 0.75713 0.0
H1450 H 0.91595 0.86202 0.78519 0.0
H1451 H 0.80879 0.76505 0.72421 0.0
H1452 H 0.71923 0.77622 0.76016 0.0
H1453 H 0.73463 0.77776 0.79093 0.0
H1454 H 0.7366 0.7674 0.69826 0.0
H1455 H 0.88821 0.81171 0.81655 0.0
H1456 H 0.90997 0.83543 0.80362 0.0
H1457 H 0.72019 0.77312 0.72551 0.0
H1458 H 0.79452 0.75744 0.69206 0.0
N1459 N 0.76987 0.78156 0.76581 0.0
C1460 C 0.7334 0.77762 0.76154 0.0
C1461 C 0.74213 0.77854 0.77902 0.0
C1462 C 0.74283 0.77722 0.74588 0.0
C1463 C 0.7612 0.77874 0.74846 0.0
C1464 C 0.76047 0.78051 0.78096 0.0
N1465 N 0.78743 0.77453 0.73632 0.0
C1466 C 0.77029 0.77512 0.73318 0.0
C1467 C 0.78763 0.76266 0.70346 0.0
C1468 C 0.77054 0.76473 0.6999 0.0
C1469 C 0.79577 0.76725 0.72186 0.0
C1470 C 0.76144 0.77046 0.71488 0.0
H1471 H 0.76421 0.76101 0.68565 0.0
O1472 O 0.81358 0.76125 0.77026 0.0
O1473 O 0.82805 0.80264 0.77733 0.0
O1474 O 0.82437 0.83191 0.76012 0.0
O1475 O 0.80194 0.80379 0.74664 0.0
O1476 O 0.82465 0.78305 0.75228 0.0
O1477 O 0.78557 0.75649 0.77241 0.0
O1478 O 0.83277 0.83909 0.82186 0.0
O1479 O 0.80236 0.81246 0.78594 0.0
O1480 O 0.79976 0.78909 0.79915 0.0
O1481 O 0.82719 0.81003 0.81022 0.0
O1482 O 0.80423 0.84059 0.78427 0.0
O1483 O 0.82816 0.86016 0.80627 0.0
C1484 C 0.83578 0.79679 0.76365 0.0
C1485 C 0.74356 0.77069 0.71221 0.0
C1486 C 0.73423 0.77399 0.72772 0.0
C1487 C 0.79883 0.7487 0.771 0.0
C1488 C 0.79574 0.73005 0.75808 0.0
C1489 C 0.78257 0.72458 0.74276 0.0
C1490 C 0.80654 0.71778 0.76087 0.0
C1491 C 0.80444 0.70014 0.74843 0.0
C1492 C 0.78028 0.707 0.73045 0.0
C1493 C 0.79113 0.69483 0.73322 0.0
C1494 C 0.81274 0.82081 0.74606 0.0
C1495 C 0.79324 0.82405 0.78343 0.0
C1496 C 0.82867 0.85542 0.8226 0.0
C1497 C 0.81437 0.85875 0.83417 0.0
C1498 C 0.81121 0.85015 0.8499 0.0
C1499 C 0.80329 0.87006 0.82915 0.0
C1500 C 0.789 0.87244 0.83927 0.0
C1501 C 0.79694 0.85239 0.85999 0.0
C1502 C 0.78578 0.86336 0.85465 0.0
C1503 C 0.81334 0.79618 0.81228 0.0
H1504 H 0.77413 0.73388 0.74025 0.0
H1505 H 0.8166 0.72202 0.7728 0.0
H1506 H 0.77016 0.70287 0.71863 0.0
H1507 H 0.78932 0.68145 0.72326 0.0
H1508 H 0.81957 0.84146 0.85421 0.0
H1509 H 0.80551 0.87672 0.81702 0.0
H1510 H 0.79447 0.84552 0.87193 0.0
H1511 H 0.77483 0.86495 0.86266 0.0
Gd1512 Gd 0.58014 0.56721 0.54417 0.0
Gd1513 Gd 0.53873 0.5352 0.52037 0.0
C1514 C 0.5271 0.46936 0.51 0.0
C1515 C 0.52503 0.46095 0.47609 0.0
C1516 C 0.53109 0.49454 0.49176 0.0
C1517 C 0.53102 0.48909 0.50895 0.0
C1518 C 0.52759 0.4805 0.4751 0.0
C1519 C 0.52472 0.45537 0.49353 0.0
C1520 C 0.52468 0.46421 0.52742 0.0
C1521 C 0.52574 0.47852 0.54317 0.0
N1522 N 0.53299 0.50294 0.52454 0.0
C1523 C 0.52962 0.49788 0.54141 0.0
H1524 H 0.53024 0.50875 0.55369 0.0
C1525 C 0.53004 0.51911 0.47474 0.0
N1526 N 0.53296 0.51345 0.49135 0.0
C1527 C 0.5268 0.50578 0.45783 0.0
C1528 C 0.52588 0.48643 0.45799 0.0
H1529 H 0.53068 0.53401 0.47444 0.0
H1530 H 0.52195 0.44017 0.49409 0.0
H1531 H 0.59239 0.59187 0.50998 0.0
H1532 H 0.52125 0.4492 0.52871 0.0
H1533 H 0.52346 0.47467 0.55666 0.0
H1534 H 0.52252 0.44997 0.46345 0.0
H1535 H 0.58539 0.57055 0.59067 0.0
H1536 H 0.6018 0.65204 0.53185 0.0
H1537 H 0.60122 0.62518 0.50563 0.0
H1538 H 0.59631 0.65466 0.59717 0.0
H1539 H 0.525 0.51044 0.44471 0.0
H1540 H 0.5232 0.47609 0.44489 0.0
H1541 H 0.59932 0.66285 0.56597 0.0
H1542 H 0.58997 0.59537 0.61945 0.0
N1543 N 0.58789 0.59907 0.53858 0.0
C1544 C 0.59795 0.63728 0.53392 0.0
C1545 C 0.59759 0.62221 0.5191 0.0
C1546 C 0.59419 0.63313 0.55147 0.0
C1547 C 0.58948 0.61364 0.55344 0.0
C1548 C 0.59261 0.60316 0.5217 0.0
N1549 N 0.58542 0.59034 0.57233 0.0
C1550 C 0.58806 0.6091 0.57093 0.0
C1551 C 0.58938 0.59944 0.60589 0.0
C1552 C 0.59114 0.6187 0.60463 0.0
C1553 C 0.58684 0.58543 0.58954 0.0
C1554 C 0.59093 0.62381 0.58701 0.0
H1555 H 0.59327 0.62956 0.61731 0.0
O1556 O 0.60304 0.56224 0.55898 0.0
O1557 O 0.5649 0.53617 0.53506 0.0
O1558 O 0.53677 0.5429 0.55234 0.0
O1559 O 0.55854 0.57142 0.56356 0.0
O1560 O 0.57772 0.54448 0.56188 0.0
O1561 O 0.60472 0.56925 0.53139 0.0
O1562 O 0.51618 0.5437 0.50892 0.0
O1563 O 0.55411 0.56606 0.52975 0.0
O1564 O 0.58185 0.55929 0.51205 0.0
O1565 O 0.55943 0.53147 0.49995 0.0
O1566 O 0.54058 0.55855 0.50328 0.0
O1567 O 0.51308 0.52705 0.53087 0.0
C1568 C 0.56829 0.53001 0.54983 0.0
C1569 C 0.59428 0.64317 0.58501 0.0
C1570 C 0.59596 0.64783 0.56725 0.0
C1571 C 0.61317 0.56593 0.54586 0.0
C1572 C 0.63107 0.57839 0.55189 0.0
C1573 C 0.63405 0.59816 0.55912 0.0
C1574 C 0.64544 0.57015 0.55029 0.0
C1575 C 0.6629 0.58142 0.55601 0.0
C1576 C 0.65136 0.60954 0.56469 0.0
C1577 C 0.66574 0.60126 0.56316 0.0
C1578 C 0.54388 0.55841 0.56572 0.0
C1579 C 0.55059 0.57265 0.51533 0.0
C1580 C 0.50519 0.53448 0.51893 0.0
C1581 C 0.48822 0.52257 0.50886 0.0
C1582 C 0.48591 0.50309 0.50076 0.0
C1583 C 0.47419 0.53116 0.507 0.0
C1584 C 0.45775 0.52046 0.49723 0.0
C1585 C 0.46968 0.49238 0.49085 0.0
C1586 C 0.45565 0.50098 0.48904 0.0
C1587 C 0.57429 0.54434 0.49819 0.0
H1588 H 0.62308 0.60474 0.56044 0.0
H1589 H 0.64298 0.5549 0.54439 0.0
H1590 H 0.65364 0.6248 0.57029 0.0
H1591 H 0.679 0.61031 0.56783 0.0
H1592 H 0.49658 0.49618 0.50208 0.0
H1593 H 0.47619 0.54632 0.51305 0.0
H1594 H 0.46794 0.47735 0.48461 0.0
H1595 H 0.44311 0.49233 0.48154 0.0
Gd1596 Gd 0.0389 0.548 0.03261 0.0
Gd1597 Gd 0.08396 0.55699 0.01968 0.0
C1598 C 0.13186 0.59811 0.05688 0.0
C1599 C 0.13089 0.62906 0.04925 0.0
C1600 C 0.10883 0.59978 0.03396 0.0
C1601 C 0.11649 0.58913 0.04431 0.0
C1602 C 0.11626 0.61981 0.03591 0.0
C1603 C 0.13869 0.61822 0.05972 0.0
C1604 C 0.14032 0.58651 0.06556 0.0
C1605 C 0.1339 0.56645 0.06097 0.0
N1606 N 0.10967 0.56975 0.04104 0.0
C1607 C 0.11868 0.55824 0.0483 0.0
H1608 H 0.11368 0.54272 0.04477 0.0
C1609 C 0.08837 0.59984 0.0088 0.0
N1610 N 0.09484 0.59034 0.02106 0.0
C1611 C 0.09535 0.61968 0.0101 0.0
C1612 C 0.10918 0.62977 0.02389 0.0
H1613 H 0.07764 0.5923 0.99814 0.0
H1614 H 0.15036 0.62542 0.06949 0.0
H1615 H 0.02453 0.5236 0.98901 0.0
H1616 H 0.15217 0.59284 0.0753 0.0
H1617 H 0.14064 0.55731 0.06717 0.0
H1618 H 0.13663 0.64447 0.05113 0.0
H1619 H 0.03339 0.54989 0.07798 0.0
H1620 H 0.99611 0.46621 0.99156 0.0
H1621 H 0.00723 0.49119 0.97309 0.0
H1622 H 0.9981 0.46652 0.0574 0.0
H1623 H 0.08998 0.62719 1.00053 0.0
H1624 H 0.11462 0.64511 0.02478 0.0
H1625 H 0.9936 0.45678 0.02308 0.0
H1626 H 0.02153 0.5276 0.09894 0.0
N1627 N 0.02358 0.51705 0.0163 0.0
C1628 C 1.00392 0.48035 0.99865 0.0
C1629 C 0.01006 0.49446 0.98818 0.0
C1630 C 0.00749 0.48483 0.01817 0.0
C1631 C 0.0173 0.50364 0.02671 0.0
C1632 C 0.01989 0.51285 0.99728 0.0
N1633 N 0.02791 0.52781 0.05356 0.0
C1634 C 0.01977 0.50913 0.04598 0.0
C1635 C 0.02108 0.52218 0.08409 0.0
C1636 C 0.01369 0.50263 0.07665 0.0
C1637 C 0.02775 0.53473 0.07222 0.0
C1638 C 0.01253 0.49597 0.05731 0.0
H1639 H 0.00831 0.49296 0.08583 0.0
O1640 O 0.02223 0.56404 0.04778 0.0
O1641 O 0.06256 0.57099 0.02883 0.0
O1642 O 0.08486 0.55834 0.05092 0.0
O1643 O 0.0565 0.54054 0.05446 0.0
O1644 O 0.05162 0.57491 0.05398 0.0
O1645 O 0.01467 0.55102 0.01865 0.0
O1646 O 0.09674 0.561 0.99449 0.0
O1647 O 0.05778 0.53474 0.01648 0.0
O1648 O 0.03871 0.55715 1.00482 0.0
O1649 O 0.06621 0.5572 0.99412 0.0
O1650 O 0.08048 0.52691 0.02501 0.0
O1651 O 0.09974 0.53781 0.00816 0.0
C1652 C 0.06355 0.58271 0.04421 0.0
C1653 C 1.00362 0.4769 0.04892 0.0
C1654 C 1.00104 0.47135 0.02938 0.0
C1655 C 0.01029 0.56066 0.03355 0.0
C1656 C 0.99159 0.55478 0.03714 0.0
C1657 C 0.98459 0.53682 0.0419 0.0
C1658 C 0.98049 0.56711 0.03535 0.0
C1659 C 0.96244 0.56159 0.03838 0.0
C1660 C 0.96678 0.53123 0.04493 0.0
C1661 C 0.95576 0.54346 0.04317 0.0
C1662 C 0.07348 0.54824 0.06046 0.0
C1663 C 0.06358 0.52092 0.02067 0.0
C1664 C 0.10489 0.54748 0.99522 0.0
C1665 C 0.12404 0.55192 0.99245 0.0
C1666 C 0.13059 0.56517 0.98108 0.0
C1667 C 0.13559 0.54209 0.99983 0.0
C1668 C 0.15342 0.54528 0.99564 0.0
C1669 C 0.14812 0.56849 0.97698 0.0
C1670 C 0.15937 0.55856 0.98399 0.0
C1671 C 0.04974 0.5587 0.99186 0.0
H1672 H 0.99283 0.52708 0.04317 0.0
H1673 H 0.98597 0.58104 0.03176 0.0
H1674 H 0.96145 0.5173 0.04852 0.0
H1675 H 0.94191 0.53854 0.04526 0.0
H1676 H 0.12205 0.57276 0.97503 0.0
H1677 H 0.13066 0.53196 0.00873 0.0
H1678 H 0.15294 0.57858 0.968 0.0
H1679 H 0.17268 0.56105 0.97983 0.0
H1680 H 0.03532 0.20948 0.92411 0.0
H1681 H 0.03757 0.1821 0.93839 0.0
H1682 H 0.02783 0.21214 0.99143 0.0
H1683 H 0.02514 0.23952 0.97706 0.0
H1684 H 0.06005 0.17837 0.96482 0.0
H1685 H 0.99365 0.16092 0.98976 0.0
H1686 H 0.99944 0.17763 0.97416 0.0
H1687 H 1.006 0.18534 0.99893 0.0
C1688 C 0.03353 0.21032 0.93881 0.0
C1689 C 0.02995 0.22691 0.94931 0.0
C1690 C 0.03484 0.19452 0.94702 0.0
C1691 C 0.03259 0.19461 0.96604 0.0
C1692 C 0.02917 0.21123 0.97664 0.0
H1693 H 0.03913 0.11259 0.04063 0.0
H1694 H 0.03688 0.14059 0.0269 0.0
C1695 C 0.02777 0.22707 0.9684 0.0
C1696 C 0.03458 0.17767 0.97473 0.0
H1697 H 0.01424 0.14479 1.00034 0.0
C1698 C 0.04995 0.17102 0.97251 0.0
C1699 C 0.0215 0.16781 0.98483 0.0
C1700 C 1.00414 0.17313 0.98693 0.0
C1701 C 0.05277 0.15535 0.98025 0.0
C1702 C 0.03979 0.14556 0.99051 0.0
C1703 C 0.02437 0.15218 0.9927 0.0
C1704 C 0.04188 0.12854 0.99907 0.0
C1705 C 0.07 0.14988 0.97776 0.0
C1706 C 0.04536 0.11209 0.98822 0.0
C1707 C 0.047 0.09622 0.99622 0.0
C1708 C 0.04505 0.09617 0.01528 0.0
C1709 C 0.04115 0.11234 0.02604 0.0
C1710 C 0.03974 0.12834 0.01811 0.0
H1711 H 0.08044 0.16193 0.97456 0.0
H1712 H 0.0749 0.14568 0.99053 0.0
H1713 H 0.06789 0.13748 0.96591 0.0
H1714 H 0.04645 0.11127 0.9734 0.0
H1715 H 0.04948 0.08378 0.98739 0.0
H1716 H 0.12875 0.82571 0.18347 0.0
H1717 H 0.15686 0.82455 0.19919 0.0
H1718 H 0.18326 0.83798 0.15114 0.0
H1719 H 0.1552 0.8395 0.1354 0.0
H1720 H 0.17709 0.80017 0.189 0.0
H1721 H 0.21728 0.87505 0.19287 0.0
H1722 H 0.19351 0.86801 0.18709 0.0
H1723 H 0.20787 0.86292 0.16958 0.0
C1724 C 0.14056 0.82876 0.1763 0.0
C1725 C 0.13959 0.83282 0.15812 0.0
C1726 C 0.15669 0.82799 0.18533 0.0
C1727 C 0.17237 0.83131 0.17652 0.0
C1728 C 0.17153 0.83574 0.1585 0.0
H1729 H 0.26574 0.79285 0.21231 0.0
H1730 H 0.23959 0.79679 0.19463 0.0
C1731 C 0.15539 0.83657 0.14945 0.0
C1732 C 0.18925 0.82917 0.18586 0.0
H1733 H 0.23266 0.85276 0.20113 0.0
C1734 C 0.18923 0.8117 0.19163 0.0
C1735 C 0.20515 0.84421 0.18954 0.0
C1736 C 0.20599 0.86367 0.18462 0.0
C1737 C 0.2045 0.80884 0.20083 0.0
C1738 C 0.22051 0.82372 0.20413 0.0
C1739 C 0.22052 0.84123 0.19845 0.0
C1740 C 0.23708 0.82173 0.21424 0.0
C1741 C 0.20316 0.79006 0.20742 0.0
C1742 C 0.24496 0.83481 0.23082 0.0
C1743 C 0.26007 0.83274 0.24079 0.0
C1744 C 0.26777 0.81751 0.23451 0.0
C1745 C 0.26021 0.80473 0.21761 0.0
C1746 C 0.24508 0.80685 0.20758 0.0
H1747 H 0.18916 0.78236 0.2082 0.0
H1748 H 0.20888 0.78052 0.1974 0.0
H1749 H 0.21066 0.79251 0.22142 0.0
H1750 H 0.23924 0.84653 0.23625 0.0
H1751 H 0.26573 0.84315 0.25348 0.0
H1752 H 0.56813 0.84729 0.46589 0.0
H1753 H 0.57082 0.88147 0.47823 0.0
H1754 H 0.51372 0.87036 0.4731 0.0
H1755 H 0.51121 0.83658 0.45932 0.0
H1756 H 0.52427 0.89972 0.46075 0.0
H1757 H 0.56823 0.91311 0.52615 0.0
H1758 H 0.579 0.90406 0.50692 0.0
H1759 H 0.55886 0.88908 0.51282 0.0
C1760 C 0.55618 0.8521 0.46789 0.0
C1761 C 0.53945 0.83918 0.46192 0.0
C1762 C 0.55769 0.87172 0.47506 0.0
C1763 C 0.54249 0.87881 0.47707 0.0
C1764 C 0.52575 0.86557 0.47178 0.0
H1765 H 0.55668 1.00135 0.53074 0.0
H1766 H 0.54945 0.96595 0.52497 0.0
C1767 C 0.52427 0.84613 0.46406 0.0
C1768 C 0.54392 0.9001 0.483 0.0
H1769 H 0.56661 0.94129 0.51364 0.0
C1770 C 0.53338 0.90864 0.47253 0.0
C1771 C 0.55546 0.91209 0.49859 0.0
C1772 C 0.56584 0.90404 0.51187 0.0
C1773 C 0.5344 0.92853 0.47677 0.0
C1774 C 0.54703 0.94076 0.49132 0.0
C1775 C 0.55714 0.93219 0.50223 0.0
C1776 C 0.55038 0.9624 0.49496 0.0
C1777 C 0.52153 0.93604 0.46575 0.0
C1778 C 0.55342 0.97251 0.48019 0.0
C1779 C 0.55692 0.99267 0.48342 0.0
C1780 C 0.55786 1.00344 0.50157 0.0
C1781 C 0.55537 0.99349 0.5165 0.0
C1782 C 0.55148 0.97319 0.51321 0.0
H1783 H 0.50892 0.92474 0.46093 0.0
H1784 H 0.51836 0.94879 0.47414 0.0
H1785 H 0.52738 0.94015 0.4531 0.0
H1786 H 0.55348 0.96486 0.46609 0.0
H1787 H 0.55929 0.99991 0.47168 0.0
H1788 H 0.54093 0.34047 0.66069 0.0
H1789 H 0.51427 0.34037 0.67697 0.0
H1790 H 0.52241 0.29313 0.70174 0.0
H1791 H 0.54907 0.29341 0.68595 0.0
H1792 H 0.4832 0.31235 0.67522 0.0
H1793 H 0.5167 0.33021 0.74735 0.0
H1794 H 0.52881 0.33268 0.72725 0.0
H1795 H 0.52167 0.30951 0.73383 0.0
C1796 C 0.53712 0.33018 0.66975 0.0
C1797 C 0.5473 0.31708 0.67212 0.0
C1798 C 0.52183 0.3301 0.67901 0.0
C1799 C 0.51643 0.31698 0.69092 0.0
C1800 C 0.52647 0.30376 0.69307 0.0
H1801 H 0.43029 0.27676 0.75337 0.0
H1802 H 0.45559 0.28217 0.73514 0.0
C1803 C 0.54173 0.30387 0.68391 0.0
C1804 C 0.50015 0.31668 0.70082 0.0
H1805 H 0.48518 0.31693 0.74398 0.0
C1806 C 0.48367 0.31363 0.69028 0.0
C1807 C 0.50067 0.31847 0.72052 0.0
C1808 C 0.51794 0.3231 0.73291 0.0
C1809 C 0.46773 0.31142 0.69879 0.0
C1810 C 0.46824 0.31238 0.71837 0.0
C1811 C 0.48474 0.31603 0.72895 0.0
C1812 C 0.45184 0.30867 0.72813 0.0
C1813 C 0.45035 0.30733 0.68675 0.0
C1814 C 0.44105 0.32164 0.73011 0.0
C1815 C 0.42654 0.31867 0.74077 0.0
C1816 C 0.42258 0.30271 0.74973 0.0
C1817 C 0.43308 0.28942 0.74705 0.0
C1818 C 0.44755 0.29244 0.73652 0.0
H1819 H 0.45194 0.30429 0.67158 0.0
H1820 H 0.44065 0.29481 0.69017 0.0
H1821 H 0.44475 0.32002 0.68965 0.0
H1822 H 0.44418 0.33438 0.72393 0.0
H1823 H 0.41888 0.32929 0.74262 0.0
H1824 H 0.05026 0.79303 0.60062 0.0
H1825 H 0.05339 0.81592 0.57958 0.0
H1826 H 0.02166 0.84715 0.61235 0.0
H1827 H 0.01792 0.82374 0.63326 0.0
H1828 H 0.01279 0.8432 0.57514 0.0
H1829 H 0.08574 0.8695 0.59099 0.0
H1830 H 0.07877 0.84388 0.5829 0.0
H1831 H 0.0722 0.85448 0.60466 0.0
C1832 C 0.04397 0.80479 0.60342 0.0
C1833 C 0.03401 0.80674 0.61872 0.0
C1834 C 0.04586 0.81792 0.59141 0.0
C1835 C 0.03815 0.83351 0.59467 0.0
C1836 C 0.02785 0.83529 0.6097 0.0
H1837 H 0.06955 0.93407 0.54488 0.0
H1838 H 0.0643 0.9107 0.56536 0.0
C1839 C 0.02574 0.82196 0.62163 0.0
C1840 C 0.04086 0.84782 0.58226 0.0
H1841 H 0.07306 0.8781 0.56421 0.0
C1842 C 0.02595 0.85095 0.57283 0.0
C1843 C 0.05805 0.85811 0.57947 0.0
C1844 C 0.07458 0.85649 0.5902 0.0
C1845 C 0.02778 0.86388 0.56043 0.0
C1846 C 0.04499 0.87348 0.55699 0.0
C1847 C 0.05987 0.87052 0.56663 0.0
C1848 C 0.04799 0.88744 0.5442 0.0
C1849 C 0.01126 0.86745 0.5515 0.0
C1850 C 0.04083 0.88206 0.52534 0.0
C1851 C 0.04351 0.89558 0.51361 0.0
C1852 C 0.05359 0.91464 0.52051 0.0
C1853 C 0.06132 0.91968 0.53921 0.0
C1854 C 0.05846 0.90627 0.55093 0.0
H1855 H 0.99973 0.86335 0.55951 0.0
H1856 H 0.01332 0.88286 0.55048 0.0
H1857 H 0.00788 0.85858 0.53717 0.0
H1858 H 0.03312 0.86744 0.5197 0.0
H1859 H 0.03737 0.89123 0.4993 0.0
H1860 H 0.53854 0.79188 0.86979 0.0
H1861 H 0.50939 0.79478 0.85827 0.0
H1862 H 0.53204 0.81826 0.81218 0.0
H1863 H 0.56114 0.81561 0.82366 0.0
H1864 H 0.51616 0.84257 0.83584 0.0
H1865 H 0.47115 0.76893 0.81333 0.0
H1866 H 0.48387 0.77354 0.83578 0.0
H1867 H 0.49504 0.77349 0.81499 0.0
C1868 C 0.53717 0.79704 0.85686 0.0
C1869 C 0.55214 0.80371 0.84773 0.0
C1870 C 0.52051 0.79866 0.85028 0.0
C1871 C 0.5186 0.80674 0.83439 0.0
C1872 C 0.53327 0.81199 0.82448 0.0
H1873 H 0.4393 0.85578 0.78737 0.0
H1874 H 0.46577 0.84477 0.79421 0.0
C1875 C 0.54988 0.81047 0.83106 0.0
C1876 C 0.50221 0.81244 0.82969 0.0
H1877 H 0.45787 0.79521 0.81567 0.0
C1878 C 0.50342 0.83221 0.8313 0.0
C1879 C 0.48564 0.79889 0.82402 0.0
C1880 C 0.48377 0.7775 0.82176 0.0
C1881 C 0.48846 0.83886 0.82754 0.0
C1882 C 0.4719 0.82533 0.82163 0.0
C1883 C 0.47063 0.80553 0.82012 0.0
C1884 C 0.45573 0.83154 0.81713 0.0
C1885 C 0.49045 0.86034 0.83037 0.0
C1886 C 0.44123 0.8274 0.8275 0.0
C1887 C 0.42611 0.83365 0.82361 0.0
C1888 C 0.42523 0.8441 0.80922 0.0
C1889 C 0.43974 0.84808 0.79875 0.0
C1890 C 0.45483 0.84175 0.80261 0.0
H1891 H 0.50275 0.86863 0.83952 0.0
H1892 H 0.49119 0.86486 0.81662 0.0
H1893 H 0.47891 0.86423 0.83667 0.0
H1894 H 0.4417 0.81955 0.83878 0.0
H1895 H 0.41518 0.83049 0.832 0.0
H1896 H 0.50087 0.20144 0.16651 0.0
H1897 H 0.50602 0.17148 0.14963 0.0
H1898 H 0.51347 0.19629 0.10021 0.0
H1899 H 0.50866 0.22635 0.117 0.0
H1900 H 0.4918 0.14496 0.11511 0.0
H1901 H 0.56168 0.18583 0.11473 0.0
H1902 H 0.54648 0.19525 0.12895 0.0
H1903 H 0.54569 0.1961 0.10443 0.0
C1904 C 0.5032 0.20037 0.15192 0.0
C1905 C 0.50469 0.21636 0.14317 0.0
C1906 C 0.50616 0.18326 0.14232 0.0
C1907 C 0.51054 0.18193 0.12387 0.0
C1908 C 0.51048 0.19725 0.1146 0.0
H1909 H 0.52448 0.08716 0.04345 0.0
H1910 H 0.51338 0.11173 0.06247 0.0
C1911 C 0.50768 0.21438 0.1242 0.0
C1912 C 0.51682 0.16538 0.11485 0.0
H1913 H 0.55294 0.15409 0.09658 0.0
C1914 C 0.50518 0.14687 0.11112 0.0
C1915 C 0.53442 0.16793 0.11012 0.0
C1916 C 0.54787 0.18731 0.11491 0.0
C1917 C 0.51053 0.13086 0.1021 0.0
C1918 C 0.52785 0.13363 0.09648 0.0
C1919 C 0.53963 0.15205 0.10079 0.0
C1920 C 0.53397 0.11784 0.08553 0.0
C1921 C 0.49766 0.11117 0.09881 0.0
C1922 C 0.54949 0.11342 0.09199 0.0
C1923 C 0.55616 0.09967 0.08093 0.0
C1924 C 0.54744 0.09018 0.06317 0.0
C1925 C 0.53171 0.09441 0.05691 0.0
C1926 C 0.52515 0.10824 0.06791 0.0
H1927 H 0.48748 0.11056 0.10884 0.0
H1928 H 0.49069 0.10792 0.08447 0.0
H1929 H 0.50464 0.0998 0.1001 0.0
H1930 H 0.55656 0.12079 0.10552 0.0
H1931 H 0.56825 0.09669 0.08622 0.0
H1932 H 0.13363 0.31544 0.36334 0.0
H1933 H 0.16281 0.32796 0.35338 0.0
H1934 H 0.1502 0.28282 0.3041 0.0
H1935 H 0.12112 0.26997 0.3141 0.0
H1936 H 0.18145 0.28509 0.32467 0.0
H1937 H 0.17917 0.3575 0.31196 0.0
H1938 H 0.17328 0.35281 0.33445 0.0
H1939 H 0.15944 0.33908 0.31362 0.0
C1940 C 0.13699 0.3083 0.35026 0.0
C1941 C 0.12513 0.29164 0.33954 0.0
C1942 C 0.15361 0.31559 0.34453 0.0
C1943 C 0.15855 0.30647 0.32789 0.0
C1944 C 0.14656 0.29013 0.31694 0.0
H1945 H 0.25041 0.34399 0.27028 0.0
H1946 H 0.22136 0.33871 0.28253 0.0
C1947 C 0.12999 0.28277 0.3227 0.0
C1948 C 0.1768 0.31264 0.3228 0.0
H1949 H 0.20709 0.35008 0.31127 0.0
C1950 C 0.18705 0.29925 0.3216 0.0
C1951 C 0.18403 0.33117 0.31899 0.0
C1952 C 0.17339 0.34595 0.31965 0.0
C1953 C 0.20429 0.30368 0.31641 0.0
C1954 C 0.2117 0.32231 0.31265 0.0
C1955 C 0.20146 0.33582 0.31409 0.0
C1956 C 0.22968 0.32765 0.3064 0.0
C1957 C 0.21403 0.28802 0.31478 0.0
C1958 C 0.24422 0.32415 0.31614 0.0
C1959 C 0.26026 0.32585 0.30843 0.0
C1960 C 0.2624 0.33224 0.29146 0.0
C1961 C 0.2487 0.33823 0.28297 0.0
C1962 C 0.23223 0.33543 0.2901 0.0
H1963 H 0.20466 0.27343 0.31144 0.0
H1964 H 0.22328 0.28912 0.30389 0.0
H1965 H 0.22175 0.28922 0.3284 0.0
H1966 H 0.24299 0.31936 0.32935 0.0
H1967 H 0.27102 0.32226 0.31585 0.0
H1968 H 0.99196 0.07203 0.23553 0.0
H1969 H 1.00595 0.07025 0.20618 0.0
H1970 H 0.9584 0.07563 0.17702 0.0
H1971 H 0.94484 0.07838 0.2063 0.0
H1972 H 1.0027 0.04789 0.17474 0.0
H1973 H 0.98971 0.11278 0.15393 0.0
H1974 H 0.98539 0.10722 0.17657 0.0
H1975 H 0.96928 0.0963 0.15642 0.0
C1976 C 0.98451 0.07317 0.22296 0.0
C1977 C 0.96715 0.07572 0.22386 0.0
C1978 C 0.99259 0.07203 0.2059 0.0
C1979 C 0.98374 0.07329 0.18877 0.0
C1980 C 0.96624 0.07541 0.18967 0.0
H1981 H 1.00536 0.05592 0.06847 0.0
H1982 H 0.99223 0.05918 0.09829 0.0
C1983 C 0.95828 0.07682 0.20671 0.0
C1984 C 0.99245 0.07181 0.17015 0.0
H1985 H 0.99836 0.09105 0.13007 0.0
C1986 C 1.00178 0.05756 0.16519 0.0
C1987 C 0.99172 0.08421 0.15706 0.0
C1988 C 0.98366 0.1011 0.16135 0.0
C1989 C 0.00968 0.05514 0.14803 0.0
C1990 C 0.00854 0.06724 0.13484 0.0
C1991 C 0.9993 0.08149 0.13974 0.0
C1992 C 0.01687 0.06539 0.11613 0.0
C1993 C 0.01891 0.03919 0.14393 0.0
C1994 C 0.03535 0.06794 0.11545 0.0
C1995 C 0.04299 0.06628 0.09819 0.0
C1996 C 0.03256 0.06184 0.08067 0.0
C1997 C 0.01406 0.05926 0.08137 0.0
C1998 C 1.00645 0.06121 0.09864 0.0
H1999 H 0.01522 0.02838 0.15301 0.0
H2000 H 0.01567 0.03171 0.12906 0.0
H2001 H 0.03347 0.04547 0.14649 0.0
H2002 H 0.04403 0.07137 0.12838 0.0
H2003 H 0.05715 0.06808 0.09866 0.0
H2004 H 0.30603 0.71618 0.48711 0.0
H2005 H 0.30447 0.72549 0.45668 0.0
H2006 H 0.31174 0.67061 0.43017 0.0
H2007 H 0.31336 0.66107 0.46085 0.0
H2008 H 0.32917 0.72627 0.42753 0.0
H2009 H 0.2624 0.67492 0.40638 0.0
H2010 H 0.27177 0.68217 0.43055 0.0
H2011 H 0.28046 0.66603 0.41456 0.0
C2012 C 0.30751 0.70613 0.47486 0.0
C2013 C 0.30964 0.68782 0.47632 0.0
C2014 C 0.30669 0.71152 0.4575 0.0
C2015 C 0.30785 0.69867 0.44124 0.0
C2016 C 0.31072 0.68065 0.44262 0.0
H2017 H 0.29882 0.74619 0.33858 0.0
H2018 H 0.30816 0.72639 0.35923 0.0
C2019 C 0.3117 0.67527 0.46011 0.0
C2020 C 0.3047 0.704 0.42295 0.0
H2021 H 0.27159 0.69829 0.38813 0.0
C2022 C 0.31681 0.71988 0.41857 0.0
C2023 C 0.28845 0.69567 0.41152 0.0
C2024 C 0.27491 0.67879 0.4159 0.0
C2025 C 0.31266 0.72836 0.40361 0.0
C2026 C 0.29602 0.72062 0.39276 0.0
C2027 C 0.28434 0.70409 0.39649 0.0
C2028 C 0.28958 0.73102 0.37925 0.0
C2029 C 0.32554 0.74632 0.40032 0.0
C2030 C 0.27575 0.73969 0.38348 0.0
C2031 C 0.27045 0.75102 0.37182 0.0
C2032 C 0.27886 0.75384 0.35567 0.0
C2033 C 0.2923 0.74455 0.35111 0.0
C2034 C 0.29762 0.7332 0.36282 0.0
H2035 H 0.33691 0.75177 0.41142 0.0
H2036 H 0.33082 0.74311 0.38668 0.0
H2037 H 0.31869 0.75793 0.39969 0.0
H2038 H 0.26944 0.73819 0.39616 0.0
H2039 H 0.26019 0.75813 0.37583 0.0
H2040 H 0.64397 0.01849 0.71152 0.0
H2041 H 0.62378 0.01778 0.68446 0.0
H2042 H 0.66562 0.01548 0.64883 0.0
H2043 H 0.68589 0.01577 0.6759 0.0
H2044 H 0.62918 0.04626 0.66467 0.0
H2045 H 0.62336 0.97621 0.61735 0.0
H2046 H 0.63194 0.98101 0.64173 0.0
H2047 H 0.6459 0.98975 0.62472 0.0
C2048 C 0.64882 0.01748 0.69788 0.0
C2049 C 0.66658 0.01735 0.69586 0.0
C2050 C 0.63724 0.01703 0.68242 0.0
C2051 C 0.64315 0.01648 0.66462 0.0
C2052 C 0.66067 0.01552 0.66238 0.0
H2053 H 0.60897 0.06452 0.57486 0.0
H2054 H 0.62369 0.05623 0.60146 0.0
C2055 C 0.67227 0.0158 0.67787 0.0
C2056 C 0.63162 0.01922 0.64901 0.0
H2057 H 0.61341 1.00013 0.60393 0.0
C2058 C 0.62557 0.03605 0.65147 0.0
C2059 C 0.6268 1.00582 0.63186 0.0
C2060 C 0.63218 0.98708 0.62877 0.0
C2061 C 0.61531 0.04013 0.63706 0.0
C2062 C 0.61121 0.02721 0.61964 0.0
C2063 C 0.61672 0.01006 0.61731 0.0
C2064 C 0.60208 0.03189 0.60344 0.0
C2065 C 0.60902 0.05833 0.64055 0.0
C2066 C 0.58512 0.02075 0.59561 0.0
C2067 C 0.57659 0.02545 0.58034 0.0
C2068 C 0.585 0.04128 0.57261 0.0
C2069 C 0.60205 0.0523 0.58048 0.0
C2070 C 0.6105 0.04762 0.59573 0.0
H2071 H 0.60927 0.06398 0.65574 0.0
H2072 H 0.6179 0.06959 0.63453 0.0
H2073 H 0.59533 0.05578 0.63374 0.0
H2074 H 0.57847 1.0085 0.60138 0.0
H2075 H 0.56354 0.01654 0.57447 0.0
H2076 H 0.2868 0.38458 0.97341 0.0
H2077 H 0.2854 0.37064 0.94002 0.0
H2078 H 0.32522 0.3415 0.95259 0.0
H2079 H 0.32665 0.35518 0.98585 0.0
H2080 H 0.33177 0.36497 0.92332 0.0
H2081 H 0.2654 0.31243 0.91215 0.0
H2082 H 0.2668 0.33655 0.92434 0.0
H2083 H 0.27774 0.32148 0.93503 0.0
C2084 C 0.29508 0.37499 0.9691 0.0
C2085 C 0.30681 0.37098 0.98235 0.0
C2086 C 0.29425 0.36702 0.95001 0.0
C2087 C 0.30517 0.35497 0.94384 0.0
C2088 C 0.31666 0.35072 0.95705 0.0
H2089 H 0.30116 0.28266 0.83458 0.0
H2090 H 0.30347 0.29595 0.86826 0.0
C2091 C 0.31741 0.35854 0.97609 0.0
C2092 C 0.30532 0.34749 0.92356 0.0
H2093 H 0.28079 0.31584 0.88555 0.0
C2094 C 0.32062 0.35426 0.91502 0.0
C2095 C 0.29082 0.33341 0.91284 0.0
C2096 C 0.27425 0.32537 0.92149 0.0
C2097 C 0.32179 0.3474 0.89601 0.0
C2098 C 0.30724 0.33339 0.8852 0.0
C2099 C 0.29196 0.32656 0.89381 0.0
C2100 C 0.30753 0.32562 0.86494 0.0
C2101 C 0.33876 0.35488 0.88781 0.0
C2102 C 0.30918 0.33785 0.85184 0.0
C2103 C 0.30805 0.33028 0.83266 0.0
C2104 C 0.30533 0.31035 0.82624 0.0
C2105 C 0.30373 0.29812 0.83928 0.0
C2106 C 0.30494 0.3057 0.85847 0.0
H2107 H 0.34996 0.36217 0.89882 0.0
H2108 H 0.34242 0.34291 0.87871 0.0
H2109 H 0.33686 0.36548 0.87914 0.0
H2110 H 0.3107 0.35318 0.85638 0.0
H2111 H 0.30869 0.3399 0.82279 0.0
H2112 H 0.98695 0.03494 0.32157 0.0
H2113 H 1.00036 0.03158 0.35169 0.0
H2114 H 0.99398 0.08704 0.37724 0.0
H2115 H 0.98053 0.09045 0.34704 0.0
H2116 H 0.02649 0.08301 0.39064 0.0
H2117 H 0.97583 0.01695 0.39621 0.0
H2118 H 0.9865 0.0146 0.37514 0.0
H2119 H 0.97291 0.03132 0.37904 0.0
C2120 C 0.98837 0.04652 0.33352 0.0
C2121 C 0.98243 0.063 0.33143 0.0
C2122 C 0.99602 0.04449 0.35102 0.0
C2123 C 0.99815 0.05884 0.36739 0.0
C2124 C 0.99261 0.07554 0.36522 0.0
H2125 H 0.01374 0.04643 0.48532 0.0
H2126 H 1.00318 0.04832 0.45361 0.0
C2127 C 0.98482 0.0775 0.34773 0.0
C2128 C 1.00601 0.05646 0.38652 0.0
H2129 H 1.00082 0.0267 0.41898 0.0
C2130 C 0.02081 0.0706 0.3967 0.0
C2131 C 0.99885 0.04049 0.3951 0.0
C2132 C 0.98255 0.02505 0.38595 0.0
C2133 C 0.02852 0.06916 0.41453 0.0
C2134 C 0.02152 0.05304 0.42295 0.0
C2135 C 1.0066 0.03902 0.41285 0.0
C2136 C 0.02854 0.05107 0.44257 0.0
C2137 C 0.04389 0.08537 0.42448 0.0
C2138 C 0.0465 0.05147 0.44766 0.0
C2139 C 0.05264 0.05013 0.46612 0.0
C2140 C 0.04105 0.04829 0.48025 0.0
C2141 C 0.02316 0.04765 0.47501 0.0
C2142 C 0.01703 0.04877 0.45666 0.0
H2143 H 0.04508 0.09864 0.41856 0.0
H2144 H 0.04247 0.0889 0.43965 0.0
H2145 H 0.05639 0.08086 0.42296 0.0
H2146 H 0.05587 0.05281 0.43734 0.0
H2147 H 0.06653 0.05093 0.46941 0.0
H2148 H 0.32267 0.67809 0.59669 0.0
H2149 H 0.32796 0.70339 0.6246 0.0
H2150 H 0.34912 0.74611 0.59194 0.0
H2151 H 0.34287 0.72087 0.56367 0.0
H2152 H 0.35415 0.7302 0.64456 0.0
H2153 H 0.30878 0.76559 0.61068 0.0
H2154 H 0.31186 0.74258 0.59999 0.0
H2155 H 0.32819 0.76452 0.59907 0.0
C2156 C 0.32876 0.69282 0.5955 0.0
C2157 C 0.33208 0.69758 0.57798 0.0
C2158 C 0.33177 0.7073 0.61147 0.0
C2159 C 0.33841 0.72674 0.61025 0.0
C2160 C 0.34337 0.7313 0.59308 0.0
H2161 H 0.34966 0.80447 0.71929 0.0
H2162 H 0.35768 0.7918 0.68877 0.0
C2163 C 0.33996 0.71686 0.57699 0.0
C2164 C 0.33863 0.74204 0.62666 0.0
H2165 H 0.32007 0.77908 0.64184 0.0
C2166 C 0.34686 0.74104 0.64396 0.0
C2167 C 0.32893 0.75605 0.62584 0.0
C2168 C 0.3188 0.7572 0.60796 0.0
C2169 C 0.34494 0.75293 0.6606 0.0
C2170 C 0.33515 0.76685 0.65977 0.0
C2171 C 0.32768 0.76852 0.64237 0.0
C2172 C 0.33058 0.778 0.67692 0.0
C2173 C 0.35239 0.74954 0.67894 0.0
C2174 C 0.31268 0.7759 0.67987 0.0
C2175 C 0.30809 0.78383 0.69708 0.0
C2176 C 0.32129 0.79375 0.71174 0.0
C2177 C 0.33917 0.79714 0.70829 0.0
C2178 C 0.34379 0.78952 0.69092 0.0
H2179 H 0.35591 0.7355 0.67731 0.0
H2180 H 0.36463 0.76112 0.68444 0.0
H2181 H 0.34274 0.74979 0.6895 0.0
H2182 H 0.30222 0.76729 0.66917 0.0
H2183 H 0.29421 0.78152 0.69914 0.0
H2184 H 0.66566 1.00611 0.80186 0.0
H2185 H 0.6446 1.0026 0.82551 0.0
H2186 H 0.62592 0.04996 0.81135 0.0
H2187 H 0.64664 0.0535 0.78782 0.0
H2188 H 0.64263 0.03117 0.8565 0.0
H2189 H 0.57996 1.00748 0.80927 0.0
H2190 H 0.60114 1.00626 0.80119 0.0
H2191 H 0.59478 0.02866 0.80436 0.0
C2192 C 0.65699 0.01569 0.80376 0.0
C2193 C 0.65777 0.03004 0.79296 0.0
C2194 C 0.64498 0.01364 0.81721 0.0
C2195 C 0.63349 0.02576 0.81985 0.0
C2196 C 0.63437 0.04015 0.80919 0.0
H2197 H 0.56609 0.06649 0.89344 0.0
H2198 H 0.58285 0.05715 0.86772 0.0
C2199 C 0.64635 0.04225 0.79584 0.0
C2200 C 0.6212 0.02437 0.83446 0.0
H2201 H 0.57785 0.02121 0.8413 0.0
C2202 C 0.62841 0.02858 0.85324 0.0
C2203 C 0.60269 0.02097 0.83007 0.0
C2204 C 0.59415 0.0154 0.81011 0.0
C2205 C 0.6177 0.03073 0.8678 0.0
C2206 C 0.59931 0.02829 0.86337 0.0
C2207 C 0.59198 0.02315 0.84461 0.0
C2208 C 0.58776 0.03254 0.87795 0.0
C2209 C 0.62626 0.03663 0.88776 0.0
C2210 C 0.58458 0.02142 0.89185 0.0
C2211 C 0.57497 0.02667 0.90651 0.0
C2212 C 0.56835 0.0431 0.90745 0.0
C2213 C 0.5709 0.05369 0.89302 0.0
C2214 C 0.58052 0.04843 0.87838 0.0
H2215 H 0.64097 0.04112 0.88857 0.0
H2216 H 0.62158 0.04872 0.89543 0.0
H2217 H 0.62248 0.02427 0.895 0.0
H2218 H 0.58981 1.00891 0.89154 0.0
H2219 H 0.57292 0.01803 0.91726 0.0
H2220 H 0.30228 0.35893 0.07469 0.0
H2221 H 0.30029 0.34565 0.10338 0.0
H2222 H 0.29658 0.40035 0.13441 0.0
H2223 H 0.29803 0.4135 0.10586 0.0
H2224 H 0.32232 0.35613 0.135 0.0
H2225 H 0.25642 0.36461 0.1523 0.0
H2226 H 0.26413 0.36724 0.12985 0.0
H2227 H 0.27084 0.38701 0.14959 0.0
C2228 C 0.30075 0.36804 0.08756 0.0
C2229 C 0.30019 0.38727 0.08786 0.0
C2230 C 0.29968 0.36044 0.10399 0.0
C2231 C 0.29801 0.37187 0.12108 0.0
C2232 C 0.29737 0.39103 0.12137 0.0
H2233 H 0.32717 0.35452 0.23279 0.0
H2234 H 0.32634 0.36438 0.20248 0.0
C2235 C 0.2983 0.39858 0.10497 0.0
C2236 C 0.29781 0.36417 0.13878 0.0
H2237 H 0.27511 0.35931 0.17702 0.0
C2238 C 0.3119 0.35667 0.1441 0.0
C2239 C 0.28412 0.36457 0.1506 0.0
C2240 C 0.26794 0.3711 0.14521 0.0
C2241 C 0.31292 0.35008 0.16107 0.0
C2242 C 0.29972 0.35147 0.17336 0.0
C2243 C 0.28539 0.35848 0.1678 0.0
C2244 C 0.30035 0.34555 0.19194 0.0
C2245 C 0.32799 0.34139 0.16547 0.0
C2246 C 0.28583 0.3321 0.19647 0.0
C2247 C 0.28608 0.3268 0.21402 0.0
C2248 C 0.30086 0.33486 0.22754 0.0
C2249 C 0.31544 0.34825 0.22293 0.0
C2250 C 0.31511 0.35368 0.20541 0.0
H2251 H 0.3335 0.33592 0.15255 0.0
H2252 H 0.33883 0.35264 0.17449 0.0
H2253 H 0.32365 0.32933 0.173 0.0
H2254 H 0.27427 0.32561 0.18638 0.0
H2255 H 0.27462 0.31637 0.21693 0.0
H2256 H 0.2682 0.95692 1.00358 0.0
H2257 H 0.24157 0.96887 1.00121 0.0
H2258 H 0.2664 0.01823 0.04453 0.0
H2259 H 0.29303 1.00667 0.04672 0.0
H2260 H 0.22091 0.97356 0.02911 0.0
H2261 H 0.24498 0.04349 0.00736 0.0
H2262 H 0.25745 0.02548 1.00529 0.0
H2263 H 0.25875 0.0418 0.02723 0.0
C2264 C 0.2681 0.97052 0.01232 0.0
C2265 C 0.28272 0.98084 0.02536 0.0
C2266 C 0.25288 0.97732 0.01095 0.0
C2267 C 0.25209 0.99459 0.02248 0.0
C2268 C 0.26686 1.00514 0.03513 0.0
H2269 H 0.17793 0.04488 0.07602 0.0
H2270 H 0.20293 0.03331 0.06442 0.0
C2271 C 0.28204 0.99841 0.03648 0.0
C2272 C 0.2353 1.00063 0.02294 0.0
H2273 H 0.21866 0.04 0.02394 0.0
C2274 C 0.22028 0.98792 0.02752 0.0
C2275 C 0.23448 0.01937 0.02082 0.0
C2276 C 0.24974 0.03322 0.0147 0.0
C2277 C 0.20485 0.99388 0.03119 0.0
C2278 C 0.20449 0.01297 0.03027 0.0
C2279 C 0.21911 0.02539 0.02476 0.0
C2280 C 0.18963 0.0207 0.03662 0.0
C2281 C 0.18929 0.98012 0.03698 0.0
C2282 C 0.17402 0.01751 0.02469 0.0
C2283 C 0.1597 0.02408 0.03128 0.0
C2284 C 0.16081 0.03382 0.04991 0.0
C2285 C 0.17662 0.03722 0.06168 0.0
C2286 C 0.19092 0.03075 0.05506 0.0
H2287 H 0.19158 0.96562 0.03681 0.0
H2288 H 0.1867 0.98607 0.05131 0.0
H2289 H 0.17721 0.97853 0.0274 0.0
H2290 H 0.17285 1.0097 0.01042 0.0
H2291 H 0.14763 0.02112 0.02195 0.0
H2292 H 0.76171 0.63262 0.0109 0.0
H2293 H 0.73256 0.6098 0.00816 0.0
H2294 H 0.7074 0.65499 1.00084 0.0
H2295 H 0.73643 0.67769 1.00297 0.0
H2296 H 0.70803 0.6109 0.031 0.0
H2297 H 0.67863 0.61225 0.96066 0.0
H2298 H 0.70196 0.62234 0.96828 0.0
H2299 H 0.68617 0.63614 0.97448 0.0
C2300 C 0.74998 0.63763 0.00837 0.0
C2301 C 0.75144 0.65701 0.00714 0.0
C2302 C 0.7333 0.62455 0.00682 0.0
C2303 C 0.71773 0.63056 1.00402 0.0
C2304 C 0.71917 0.64981 1.00246 0.0
H2305 H 0.61736 0.58873 0.04275 0.0
H2306 H 0.64732 0.60465 0.03748 0.0
C2307 C 0.73583 0.66285 1.00382 0.0
C2308 C 0.70005 0.61725 1.0045 0.0
H2309 H 0.65796 0.60083 0.98207 0.0
C2310 C 0.69717 0.60849 0.02014 0.0
C2311 C 0.68589 0.61377 0.99022 0.0
C2312 C 0.68837 0.62146 0.97238 0.0
C2313 C 0.6804 0.59714 0.02232 0.0
C2314 C 0.66595 0.59488 0.00874 0.0
C2315 C 0.66897 0.60282 0.99264 0.0
C2316 C 0.64749 0.58517 0.01151 0.0
C2317 C 0.67836 0.58773 0.03922 0.0
C2318 C 0.63728 0.56934 0.99827 0.0
C2319 C 0.61991 0.56029 1.00111 0.0
C2320 C 0.61248 0.5669 0.01727 0.0
C2321 C 0.62266 0.58304 0.03026 0.0
C2322 C 0.6399 0.59211 0.02734 0.0
H2323 H 0.69113 0.58544 0.0446 0.0
H2324 H 0.67406 0.59729 0.05057 0.0
H2325 H 0.66828 0.57361 0.03593 0.0
H2326 H 0.64279 0.56389 0.98581 0.0
H2327 H 0.61235 0.54817 0.99063 0.0
H2328 H 0.706 0.46136 0.2853 0.0
H2329 H 0.71997 0.43455 0.28518 0.0
H2330 H 0.74422 0.44712 0.2358 0.0
H2331 H 0.73067 0.4742 0.23622 0.0
H2332 H 0.71807 0.40152 0.26435 0.0
H2333 H 0.78737 0.44159 0.26221 0.0
H2334 H 0.76998 0.45371 0.26599 0.0
H2335 H 0.77312 0.44304 0.24263 0.0
C2336 C 0.71441 0.45861 0.27444 0.0
C2337 C 0.71709 0.47051 0.26087 0.0
C2338 C 0.7225 0.443 0.27434 0.0
C2339 C 0.73383 0.43843 0.26073 0.0
C2340 C 0.73626 0.45017 0.24699 0.0
H2341 H 0.78935 0.34174 0.23799 0.0
H2342 H 0.77742 0.37002 0.23603 0.0
C2343 C 0.72822 0.46581 0.24712 0.0
C2344 C 0.74244 0.42126 0.26069 0.0
H2345 H 0.78176 0.40742 0.25729 0.0
C2346 C 0.73205 0.40308 0.26289 0.0
C2347 C 0.76077 0.42244 0.25872 0.0
C2348 C 0.77351 0.44127 0.25744 0.0
C2349 C 0.73905 0.38665 0.26292 0.0
C2350 C 0.75737 0.38786 0.26104 0.0
C2351 C 0.76777 0.40595 0.25866 0.0
C2352 C 0.76584 0.37087 0.26233 0.0
C2353 C 0.72642 0.36786 0.26452 0.0
C2354 C 0.76416 0.36167 0.27789 0.0
C2355 C 0.77113 0.3456 0.27907 0.0
C2356 C 0.78046 0.33783 0.26492 0.0
C2357 C 0.78256 0.34718 0.2494 0.0
C2358 C 0.77557 0.36348 0.24825 0.0
H2359 H 0.71252 0.36738 0.25975 0.0
H2360 H 0.73002 0.35534 0.25618 0.0
H2361 H 0.72693 0.36635 0.2794 0.0
H2362 H 0.75732 0.36689 0.28934 0.0
H2363 H 0.76905 0.33905 0.29127 0.0
H2364 H 0.87064 0.48947 0.53961 0.0
H2365 H 0.90257 0.50046 0.53788 0.0
H2366 H 0.9009 0.44782 0.49938 0.0
H2367 H 0.86899 0.43669 0.50091 0.0
H2368 H 0.9265 0.47871 0.54826 0.0
H2369 H 0.93106 0.49096 0.47534 0.0
H2370 H 0.91114 0.49037 0.48686 0.0
H2371 H 0.91681 0.46831 0.47791 0.0
C2372 C 0.87699 0.48035 0.53053 0.0
C2373 C 0.86728 0.46215 0.52047 0.0
C2374 C 0.89522 0.48666 0.52957 0.0
C2375 C 0.904 0.47501 0.51839 0.0
C2376 C 0.89428 0.45714 0.50785 0.0
H2377 H 0.01658 0.48403 0.50835 0.0
H2378 H 0.98388 0.47413 0.50326 0.0
C2379 C 0.87607 0.45077 0.50885 0.0
C2380 C 0.92355 0.48069 0.5192 0.0
H2381 H 0.95795 0.4927 0.4932 0.0
C2382 C 0.9334 0.4819 0.53626 0.0
C2383 C 0.93242 0.48449 0.50341 0.0
C2384 C 0.92237 0.48362 0.48484 0.0
C2385 C 0.95197 0.48682 0.538 0.0
C2386 C 0.96091 0.49112 0.52235 0.0
C2387 C 0.95106 0.48957 0.50518 0.0
C2388 C 0.98048 0.49786 0.52389 0.0
C2389 C 0.96183 0.48704 0.55652 0.0
C2390 C 0.98926 0.51474 0.53667 0.0
C2391 C 0.00771 0.52022 0.53964 0.0
C2392 C 0.01768 0.50932 0.52937 0.0
C2393 C 0.00902 0.49283 0.51605 0.0
C2394 C 0.99045 0.48716 0.51325 0.0
H2395 H 0.95334 0.47798 0.56499 0.0
H2396 H 0.97392 0.48179 0.55447 0.0
H2397 H 0.96594 0.50204 0.56467 0.0
H2398 H 0.98181 0.52338 0.54475 0.0
H2399 H 0.01423 0.53282 0.5502 0.0
H2400 H 0.37643 0.1036 0.23942 0.0
H2401 H 0.36562 0.13141 0.23495 0.0
H2402 H 0.3984 0.16558 0.28473 0.0
H2403 H 0.40941 0.1377 0.28934 0.0
H2404 H 0.34842 0.15409 0.26044 0.0
H2405 H 0.41233 0.19642 0.24195 0.0
H2406 H 0.40771 0.17078 0.24138 0.0
H2407 H 0.41307 0.18742 0.26338 0.0
C2408 C 0.3813 0.11698 0.24951 0.0
C2409 C 0.39384 0.11849 0.2647 0.0
C2410 C 0.3751 0.13285 0.24691 0.0
C2411 C 0.38142 0.15056 0.25936 0.0
C2412 C 0.39359 0.15206 0.27483 0.0
H2413 H 0.33447 0.24734 0.26003 0.0
H2414 H 0.34837 0.22325 0.2693 0.0
C2415 C 0.39975 0.1361 0.27751 0.0
C2416 C 0.37518 0.16737 0.25589 0.0
H2417 H 0.38825 0.21068 0.24207 0.0
C2418 C 0.35713 0.16654 0.25657 0.0
C2419 C 0.3866 0.18342 0.25061 0.0
C2420 C 0.406 0.18464 0.24912 0.0
C2421 C 0.35012 0.18135 0.252 0.0
C2422 C 0.36153 0.19744 0.24679 0.0
C2423 C 0.37961 0.19833 0.24617 0.0
C2424 C 0.35471 0.21321 0.24151 0.0
C2425 C 0.33047 0.17945 0.2523 0.0
C2426 C 0.35424 0.21592 0.22293 0.0
C2427 C 0.34642 0.2298 0.21758 0.0
C2428 C 0.33889 0.24106 0.23077 0.0
C2429 C 0.33996 0.23871 0.24951 0.0
C2430 C 0.34789 0.22498 0.25484 0.0
H2431 H 0.32303 0.16452 0.2529 0.0
H2432 H 0.32825 0.18928 0.26483 0.0
H2433 H 0.32494 0.18361 0.23972 0.0
H2434 H 0.35951 0.20695 0.21247 0.0
H2435 H 0.34574 0.23127 0.20306 0.0
H2436 H 0.36272 0.17439 0.50113 0.0
H2437 H 0.38685 0.1582 0.5013 0.0
H2438 H 0.3611 0.12396 0.53933 0.0
H2439 H 0.33725 0.1402 0.53951 0.0
H2440 H 0.3964 0.13913 0.55043 0.0
H2441 H 0.38604 0.10369 0.47536 0.0
H2442 H 0.38933 0.12942 0.47967 0.0
H2443 H 0.36988 0.11442 0.48657 0.0
C2444 C 0.36217 0.16335 0.50946 0.0
C2445 C 0.34801 0.15858 0.52027 0.0
C2446 C 0.37594 0.15403 0.50946 0.0
C2447 C 0.37572 0.13967 0.52016 0.0
C2448 C 0.36159 0.13495 0.53095 0.0
H2449 H 0.43 0.04976 0.5158 0.0
H2450 H 0.40984 0.0702 0.51269 0.0
C2451 C 0.34792 0.14426 0.531 0.0
C2452 C 0.39027 0.12972 0.52061 0.0
H2453 H 0.41041 0.09969 0.4936 0.0
C2454 C 0.39953 0.1306 0.53798 0.0
C2455 C 0.39425 0.11842 0.50439 0.0
C2456 C 0.38428 0.11623 0.48544 0.0
C2457 C 0.41244 0.12032 0.53965 0.0
C2458 C 0.41652 0.10911 0.52343 0.0
C2459 C 0.40741 0.10841 0.50601 0.0
C2460 C 0.4293 0.09701 0.52445 0.0
C2461 C 0.42109 0.12097 0.5589 0.0
C2462 C 0.44712 0.10526 0.53173 0.0
C2463 C 0.45868 0.09355 0.53374 0.0
C2464 C 0.4527 0.07333 0.5284 0.0
C2465 C 0.43501 0.06522 0.52045 0.0
C2466 C 0.42347 0.07691 0.5185 0.0
H2467 H 0.41353 0.12639 0.57013 0.0
H2468 H 0.42228 0.10644 0.56056 0.0
H2469 H 0.43462 0.13082 0.5609 0.0
H2470 H 0.45205 0.12075 0.53609 0.0
H2471 H 0.47217 0.10032 0.53996 0.0
H2472 H 0.73451 0.57334 0.26461 0.0
H2473 H 0.75072 0.60704 0.26544 0.0
H2474 H 0.7131 0.62666 0.29948 0.0
H2475 H 0.69719 0.59333 0.29904 0.0
H2476 H 0.74204 0.63627 0.25273 0.0
H2477 H 0.75748 0.66028 0.32922 0.0
H2478 H 0.74906 0.63516 0.31843 0.0
H2479 H 0.73412 0.65039 0.32275 0.0
C2480 C 0.72984 0.58478 0.27259 0.0
C2481 C 0.71448 0.5802 0.28194 0.0
C2482 C 0.73912 0.60423 0.27296 0.0
C2483 C 0.73352 0.61987 0.2828 0.0
C2484 C 0.71824 0.61525 0.29217 0.0
H2485 H 0.76024 0.73937 0.26164 0.0
H2486 H 0.74686 0.70544 0.26211 0.0
C2487 C 0.709 0.59591 0.29181 0.0
C2488 C 0.74309 0.64084 0.28275 0.0
H2489 H 0.76082 0.68525 0.31132 0.0
C2490 C 0.7462 0.64688 0.26561 0.0
C2491 C 0.74896 0.65508 0.29942 0.0
C2492 C 0.74742 0.64988 0.31849 0.0
C2493 C 0.75437 0.66635 0.26465 0.0
C2494 C 0.75948 0.68076 0.28128 0.0
C2495 C 0.75682 0.67462 0.29844 0.0
C2496 C 0.76768 0.70207 0.28121 0.0
C2497 C 0.75781 0.67114 0.24568 0.0
C2498 C 0.78368 0.7124 0.29234 0.0
C2499 C 0.79135 0.73212 0.29226 0.0
C2500 C 0.78333 0.74241 0.28108 0.0
C2501 C 0.76711 0.73218 0.2703 0.0
C2502 C 0.75944 0.71249 0.27041 0.0
H2503 H 0.75854 0.65821 0.23545 0.0
H2504 H 0.74673 0.67646 0.24026 0.0
H2505 H 0.77037 0.68249 0.24647 0.0
H2506 H 0.79042 0.70513 0.30104 0.0
H2507 H 0.80357 0.73933 0.30111 0.0
H2508 H 0.93093 0.48503 0.78813 0.0
H2509 H 0.91276 0.45295 0.7896 0.0
H2510 H 0.8737 0.45827 0.74789 0.0
H2511 H 0.89185 0.49024 0.7461 0.0
H2512 H 0.87789 0.44253 0.79883 0.0
H2513 H 0.88348 0.40641 0.72678 0.0
H2514 H 0.89797 0.42953 0.73783 0.0
H2515 H 0.87595 0.42793 0.72781 0.0
C2516 C 0.91853 0.47935 0.77917 0.0
C2517 C 0.9129 0.49018 0.76691 0.0
C2518 C 0.90815 0.46103 0.78007 0.0
C2519 C 0.89202 0.45316 0.76869 0.0
C2520 C 0.88629 0.46394 0.75653 0.0
H2521 H 0.81337 0.34441 0.74609 0.0
H2522 H 0.82855 0.3787 0.75049 0.0
C2523 C 0.89665 0.48225 0.75559 0.0
C2524 C 0.88101 0.43379 0.76976 0.0
H2525 H 0.86246 0.3889 0.74366 0.0
C2526 C 0.87455 0.43073 0.78682 0.0
C2527 C 0.87675 0.41848 0.75406 0.0
C2528 C 0.88402 0.42063 0.73562 0.0
C2529 C 0.86351 0.41286 0.78847 0.0
C2530 C 0.859 0.39762 0.77269 0.0
C2531 C 0.86571 0.40066 0.75571 0.0
C2532 C 0.84751 0.37823 0.7732 0.0
C2533 C 0.85631 0.41069 0.80688 0.0
C2534 C 0.85261 0.36673 0.78505 0.0
C2535 C 0.84365 0.3472 0.78277 0.0
C2536 C 0.82966 0.33894 0.76851 0.0
C2537 C 0.82398 0.35062 0.75736 0.0
C2538 C 0.8327 0.37015 0.75981 0.0
H2539 H 0.85751 0.42488 0.81611 0.0
H2540 H 0.84218 0.40258 0.80449 0.0
H2541 H 0.8638 0.40255 0.81431 0.0
H2542 H 0.86422 0.37246 0.79516 0.0
H2543 H 0.8485 0.33827 0.79119 0.0
H2544 H 0.06671 0.87697 0.11358 0.0
H2545 H 0.06046 0.90517 0.10311 0.0
H2546 H 0.09939 0.90367 0.06386 0.0
H2547 H 0.10548 0.87537 0.07405 0.0
H2548 H 0.08119 0.94109 0.10419 0.0
H2549 H 0.05852 0.90771 0.0299 0.0
H2550 H 0.06132 0.8936 0.04736 0.0
H2551 H 0.08021 0.90561 0.03707 0.0
C2552 C 0.07386 0.88252 0.10261 0.0
C2553 C 0.08655 0.87364 0.09464 0.0
C2554 C 0.07028 0.89875 0.09662 0.0
C2555 C 0.07916 0.90658 0.08236 0.0
C2556 C 0.09193 0.8978 0.07449 0.0
H2557 H 0.08417 1.00894 0.03239 0.0
H2558 H 0.08727 0.97853 0.04074 0.0
C2559 C 0.09552 0.88159 0.08047 0.0
C2560 C 0.07552 0.92422 0.07622 0.0
H2561 H 0.06411 0.94193 0.03782 0.0
C2562 C 0.07732 0.94115 0.08968 0.0
C2563 C 0.07048 0.92461 0.05727 0.0
C2564 C 0.06734 0.90687 0.04208 0.0
C2565 C 0.07472 0.95832 0.08476 0.0
C2566 C 0.06979 0.95874 0.06581 0.0
C2567 C 0.06789 0.9418 0.05234 0.0
C2568 C 0.06692 0.97666 0.0597 0.0
C2569 C 0.07785 0.97611 0.09991 0.0
C2570 C 0.05417 0.98578 0.06712 0.0
C2571 C 0.05233 1.00314 0.06222 0.0
C2572 C 0.06281 0.0116 0.04935 0.0
C2573 C 0.07541 1.00241 0.04176 0.0
C2574 C 0.07729 0.98507 0.04668 0.0
H2575 H 0.08593 0.97495 0.11251 0.0
H2576 H 0.08468 0.98921 0.09481 0.0
H2577 H 0.06489 0.97797 0.10418 0.0
H2578 H 0.04576 0.9796 0.07694 0.0
H2579 H 0.04283 0.01013 0.06868 0.0
H2580 H 0.99002 0.26692 0.86257 0.0
H2581 H 0.96426 0.27062 0.84403 0.0
H2582 H 0.94022 0.28406 0.89459 0.0
H2583 H 0.96599 0.28083 0.91319 0.0
H2584 H 0.92927 0.25233 0.83948 0.0
H2585 H 0.93683 0.32905 0.87092 0.0
H2586 H 0.95383 0.31684 0.87478 0.0
H2587 H 0.93499 0.31396 0.88807 0.0
C2588 C 0.97926 0.27066 0.86978 0.0
C2589 C 0.98027 0.2737 0.88948 0.0
C2590 C 0.96449 0.27279 0.85912 0.0
C2591 C 0.95033 0.27808 0.86783 0.0
C2592 C 0.95109 0.28055 0.88745 0.0
H2593 H 0.8476 0.29434 0.83109 0.0
H2594 H 0.87417 0.29139 0.84849 0.0
C2595 C 0.96586 0.27852 0.89811 0.0
C2596 C 0.93472 0.28079 0.85647 0.0
H2597 H 0.90973 0.31279 0.85187 0.0
C2598 C 0.92511 0.26562 0.84213 0.0
C2599 C 0.92915 0.29813 0.85976 0.0
C2600 C 0.93934 0.31549 0.87409 0.0
C2601 C 0.90998 0.26709 0.83146 0.0
C2602 C 0.9043 0.28433 0.83494 0.0
C2603 C 0.91396 0.29954 0.84917 0.0
C2604 C 0.88825 0.28676 0.82418 0.0
C2605 C 0.89988 0.24993 0.81687 0.0
C2606 C 0.88726 0.28562 0.80468 0.0
C2607 C 0.87204 0.28759 0.7947 0.0
C2608 C 0.85739 0.29081 0.80393 0.0
C2609 C 0.8586 0.29229 0.82349 0.0
C2610 C 0.87382 0.2904 0.83348 0.0
H2611 H 0.90322 0.23642 0.81903 0.0
H2612 H 0.88534 0.24789 0.81703 0.0
H2613 H 0.90333 0.25239 0.80281 0.0
H2614 H 0.8983 0.28327 0.79714 0.0
H2615 H 0.87182 0.28667 0.77971 0.0
H2616 H 0.59761 0.27276 0.57321 0.0
H2617 H 0.59384 0.23895 0.5579 0.0
H2618 H 0.56585 0.22002 0.60318 0.0
H2619 H 0.56914 0.25337 0.61819 0.0
H2620 H 0.60599 0.21074 0.56978 0.0
H2621 H 0.53287 0.18655 0.55952 0.0
H2622 H 0.5446 0.21175 0.56561 0.0
H2623 H 0.54055 0.19744 0.58349 0.0
C2624 C 0.59035 0.2614 0.57971 0.0
C2625 C 0.58358 0.26596 0.59692 0.0
C2626 C 0.58828 0.24202 0.57098 0.0
C2627 C 0.57928 0.22675 0.57916 0.0
C2628 C 0.57242 0.23136 0.59622 0.0
H2629 H 0.57012 0.10742 0.57748 0.0
H2630 H 0.57505 0.14257 0.5837 0.0
C2631 C 0.57443 0.25059 0.6049 0.0
C2632 C 0.57777 0.20604 0.5706 0.0
H2633 H 0.54821 0.16146 0.55926 0.0
C2634 C 0.59331 0.20005 0.5672 0.0
C2635 C 0.56123 0.19191 0.56698 0.0
C2636 C 0.54387 0.19728 0.5689 0.0
C2637 C 0.59281 0.18039 0.56129 0.0
C2638 C 0.57641 0.16627 0.55873 0.0
C2639 C 0.56082 0.17226 0.56138 0.0
C2640 C 0.57524 0.14514 0.55465 0.0
C2641 C 0.60981 0.17465 0.55821 0.0
C2642 C 0.57397 0.13483 0.53621 0.0
C2643 C 0.5711 0.11461 0.5326 0.0
C2644 C 0.56964 0.10439 0.54739 0.0
C2645 C 0.57139 0.11488 0.56581 0.0
C2646 C 0.57418 0.13497 0.56939 0.0
H2647 H 0.62161 0.18724 0.56124 0.0
H2648 H 0.61148 0.16428 0.56726 0.0
H2649 H 0.6091 0.16726 0.54343 0.0
H2650 H 0.57464 0.14235 0.52459 0.0
H2651 H 0.56939 0.10696 0.51823 0.0
H2652 H 0.56304 0.79288 0.36936 0.0
H2653 H 0.58771 0.79354 0.35009 0.0
H2654 H 0.61586 0.77315 0.39161 0.0
H2655 H 0.59128 0.77233 0.41094 0.0
H2656 H 0.62343 0.81497 0.35976 0.0
H2657 H 0.61817 0.73636 0.34271 0.0
H2658 H 0.60045 0.74595 0.35175 0.0
H2659 H 0.6193 0.74619 0.36724 0.0
C2660 C 0.57438 0.78833 0.37435 0.0
C2661 C 0.57505 0.78248 0.39175 0.0
C2662 C 0.58852 0.78879 0.36331 0.0
C2663 C 0.60361 0.78323 0.36927 0.0
C2664 C 0.60427 0.77722 0.38653 0.0
H2665 H 0.70687 0.81024 0.32406 0.0
H2666 H 0.68324 0.8072 0.34495 0.0
C2667 C 0.59018 0.77684 0.39762 0.0
C2668 C 0.61885 0.7843 0.35773 0.0
H2669 H 0.64332 0.75702 0.3337 0.0
C2670 C 0.62779 0.8023 0.35408 0.0
C2671 C 0.62449 0.76776 0.35018 0.0
C2672 C 0.61504 0.74792 0.35299 0.0
C2673 C 0.64221 0.80422 0.34323 0.0
C2674 C 0.64804 0.78773 0.33593 0.0
C2675 C 0.63902 0.76971 0.33946 0.0
C2676 C 0.66281 0.78876 0.32375 0.0
C2677 C 0.65084 0.82384 0.33928 0.0
C2678 C 0.6594 0.77891 0.30506 0.0
C2679 C 0.67287 0.78056 0.29315 0.0
C2680 C 0.69017 0.792 0.29965 0.0
C2681 C 0.69374 0.80128 0.31859 0.0
C2682 C 0.68019 0.79971 0.3305 0.0
H2683 H 0.64251 0.83413 0.34248 0.0
H2684 H 0.66374 0.82985 0.34809 0.0
H2685 H 0.65345 0.82277 0.32439 0.0
H2686 H 0.64616 0.77025 0.29954 0.0
H2687 H 0.66968 0.77295 0.27875 0.0
H2688 H 0.06431 0.22066 0.38983 0.0
H2689 H 0.0615 0.20196 0.41502 0.0
H2690 H 0.10137 0.24788 0.45072 0.0
H2691 H 0.10382 0.26672 0.426 0.0
H2692 H 0.08425 0.1884 0.43576 0.0
H2693 H 0.05967 0.24318 0.48147 0.0
H2694 H 0.06174 0.2434 0.457 0.0
H2695 H 0.08081 0.25337 0.47413 0.0
C2696 C 0.07264 0.22657 0.40297 0.0
C2697 C 0.08409 0.2452 0.40611 0.0
C2698 C 0.07097 0.21596 0.41735 0.0
C2699 C 0.08082 0.22385 0.43491 0.0
C2700 C 0.09321 0.24183 0.4375 0.0
H2701 H 0.10065 0.16518 0.52349 0.0
H2702 H 0.10242 0.18355 0.49825 0.0
C2703 C 0.0947 0.25249 0.42332 0.0
C2704 C 0.07798 0.21367 0.45077 0.0
H2705 H 0.06895 0.21983 0.49631 0.0
C2706 C 0.08076 0.19518 0.44896 0.0
C2707 C 0.07301 0.22239 0.46783 0.0
C2708 C 0.06844 0.24159 0.47018 0.0
C2709 C 0.0794 0.18545 0.46401 0.0
C2710 C 0.07566 0.19475 0.48146 0.0
C2711 C 0.07217 0.21291 0.48304 0.0
C2712 C 0.07529 0.18582 0.49821 0.0
C2713 C 0.08182 0.16524 0.461 0.0
C2714 C 0.05989 0.18227 0.50743 0.0
C2715 C 0.05902 0.1722 0.52215 0.0
C2716 C 0.07353 0.16553 0.52775 0.0
C2717 C 0.08929 0.17016 0.5193 0.0
C2718 C 0.09022 0.1804 0.50477 0.0
H2719 H 0.07914 0.1582 0.44597 0.0
H2720 H 0.09575 0.16586 0.46571 0.0
H2721 H 0.07293 0.15611 0.46909 0.0
H2722 H 0.04829 0.18653 0.5027 0.0
H2723 H 0.0467 0.16861 0.52838 0.0
H2724 H 0.55138 0.27022 0.22781 0.0
H2725 H 0.58105 0.27027 0.24006 0.0
H2726 H 0.60374 0.30737 0.20283 0.0
H2727 H 0.57399 0.30688 0.19 0.0
H2728 H 0.61456 0.27563 0.19776 0.0
H2729 H 0.62299 0.30492 0.27373 0.0
H2730 H 0.60273 0.28631 0.26714 0.0
H2731 H 0.60565 0.30829 0.25816 0.0
C2732 C 0.56267 0.2789 0.2226 0.0
C2733 C 0.56031 0.28834 0.20774 0.0
C2734 C 0.57968 0.27901 0.22975 0.0
C2735 C 0.59466 0.28889 0.22244 0.0
C2736 C 0.59237 0.29963 0.20867 0.0
H2737 H 0.70187 0.28269 0.25751 0.0
H2738 H 0.67536 0.29416 0.25247 0.0
C2739 C 0.57535 0.29935 0.20136 0.0
C2740 C 0.61222 0.28543 0.22692 0.0
H2741 H 0.64138 0.28365 0.26295 0.0
C2742 C 0.62055 0.27771 0.21202 0.0
C2743 C 0.62014 0.28822 0.24549 0.0
C2744 C 0.61249 0.29759 0.26201 0.0
C2745 C 0.63617 0.27203 0.21519 0.0
C2746 C 0.64342 0.27361 0.2338 0.0
C2747 C 0.63558 0.2821 0.24871 0.0
C2748 C 0.65908 0.26638 0.23794 0.0
C2749 C 0.64474 0.26435 0.19855 0.0
C2750 C 0.65854 0.24686 0.23187 0.0
C2751 C 0.67371 0.2403 0.23448 0.0
C2752 C 0.68966 0.25315 0.24339 0.0
C2753 C 0.6899 0.27253 0.25022 0.0
C2754 C 0.67474 0.27908 0.24751 0.0
H2755 H 0.64069 0.26929 0.18577 0.0
H2756 H 0.65944 0.26895 0.20128 0.0
H2757 H 0.64052 0.24835 0.19565 0.0
H2758 H 0.64644 0.23675 0.22478 0.0
H2759 H 0.67307 0.22532 0.22901 0.0
H2760 H 0.59355 0.87504 0.89504 0.0
H2761 H 0.59248 0.90652 0.91222 0.0
H2762 H 0.62431 0.89899 0.95939 0.0
H2763 H 0.62505 0.86719 0.94249 0.0
H2764 H 0.59487 0.90878 0.96941 0.0
H2765 H 0.62813 0.9583 0.92518 0.0
H2766 H 0.61043 0.93914 0.91205 0.0
H2767 H 0.62957 0.93363 0.92253 0.0
C2768 C 0.60055 0.88019 0.90897 0.0
C2769 C 0.60932 0.86861 0.91745 0.0
C2770 C 0.60005 0.89826 0.9187 0.0
C2771 C 0.60856 0.90521 0.93695 0.0
C2772 C 0.61774 0.89391 0.94526 0.0
H2773 H 0.60783 1.00768 0.01797 0.0
H2774 H 0.61654 0.98059 0.99986 0.0
C2775 C 0.61812 0.87575 0.9356 0.0
C2776 C 0.60634 0.92333 0.94799 0.0
H2777 H 0.61016 0.9709 0.94728 0.0
C2778 C 0.59846 0.92242 0.96471 0.0
C2779 C 0.61102 0.94108 0.94178 0.0
C2780 C 0.62042 0.94317 0.9245 0.0
C2781 C 0.59461 0.93868 0.9751 0.0
C2782 C 0.59874 0.95619 0.96855 0.0
C2783 C 0.60693 0.9573 0.95208 0.0
C2784 C 0.59422 0.97336 0.9786 0.0
C2785 C 0.58575 0.93701 0.99278 0.0
C2786 C 0.57891 0.97824 0.97236 0.0
C2787 C 0.57372 0.99352 0.98279 0.0
C2788 C 0.58381 1.0041 0.99958 0.0
C2789 C 0.59952 0.99954 1.00536 0.0
C2790 C 0.60463 0.9842 0.99497 0.0
H2791 H 0.58212 0.92195 0.99515 0.0
H2792 H 0.59484 0.94623 1.00498 0.0
H2793 H 0.57357 0.94229 0.99214 0.0
H2794 H 0.57077 0.96991 0.9597 0.0
H2795 H 0.56163 0.99676 0.97789 0.0
H2796 H 0.96579 0.75397 0.71161 0.0
H2797 H 0.9425 0.76724 0.7249 0.0
H2798 H 0.95156 0.81008 0.69005 0.0
H2799 H 0.97504 0.79677 0.67645 0.0
H2800 H 0.94711 0.80728 0.74375 0.0
H2801 H 0.89675 0.78353 0.68118 0.0
H2802 H 0.91486 0.77244 0.68358 0.0
H2803 H 0.91901 0.79623 0.67844 0.0
C2804 C 0.96283 0.76616 0.70666 0.0
C2805 C 0.97225 0.77431 0.69295 0.0
C2806 C 0.94954 0.77374 0.71431 0.0
C2807 C 0.94533 0.78955 0.70839 0.0
C2808 C 0.95457 0.79774 0.69464 0.0
H2809 H 0.84974 0.82228 0.74185 0.0
H2810 H 0.87888 0.82651 0.73016 0.0
C2811 C 0.96796 0.79015 0.68694 0.0
C2812 C 0.93134 0.79735 0.71702 0.0
H2813 H 0.88778 0.79692 0.70939 0.0
C2814 C 0.9342 0.80533 0.73621 0.0
C2815 C 0.91464 0.79495 0.70706 0.0
C2816 C 0.91096 0.78626 0.68643 0.0
C2817 C 0.92049 0.81013 0.74594 0.0
C2818 C 0.90341 0.80655 0.73627 0.0
C2819 C 0.90087 0.79967 0.71682 0.0
C2820 C 0.88756 0.80745 0.74621 0.0
C2821 C 0.92436 0.81871 0.76652 0.0
C2822 C 0.88288 0.79564 0.75939 0.0
C2823 C 0.86638 0.79348 0.76627 0.0
C2824 C 0.85436 0.80322 0.76027 0.0
C2825 C 0.8591 0.81531 0.74737 0.0
C2826 C 0.87568 0.81761 0.74056 0.0
H2827 H 0.93864 0.8262 0.77038 0.0
H2828 H 0.9164 0.82913 0.77047 0.0
H2829 H 0.92092 0.80708 0.77472 0.0
H2830 H 0.89147 0.78706 0.76342 0.0
H2831 H 0.86262 0.78338 0.77554 0.0
H2832 H 0.12941 0.05866 0.82445 0.0
H2833 H 0.11625 0.06114 0.85415 0.0
H2834 H 0.1382 0.01595 0.86822 0.0
H2835 H 0.151 0.0131 0.83822 0.0
H2836 H 0.10691 0.01047 0.88 0.0
H2837 H 0.13729 0.08824 0.90509 0.0
H2838 H 0.12386 0.08373 0.88319 0.0
H2839 H 0.14348 0.07494 0.88447 0.0
C2840 C 0.13151 0.04919 0.8338 0.0
C2841 C 0.14151 0.03569 0.82853 0.0
C2842 C 0.12404 0.05078 0.85114 0.0
C2843 C 0.12634 0.03913 0.86428 0.0
C2844 C 0.13606 0.02537 0.85883 0.0
H2845 H 0.10592 0.06623 0.98432 0.0
H2846 H 0.11863 0.06315 0.95432 0.0
C2847 C 0.1435 0.02373 0.84145 0.0
C2848 C 0.1185 0.04098 0.88329 0.0
H2849 H 0.11466 0.07359 0.92233 0.0
C2850 C 0.10872 0.02436 0.88916 0.0
C2851 C 0.12079 0.0589 0.896 0.0
C2852 C 0.13207 0.07743 0.892 0.0
C2853 C 0.10114 0.02511 0.90655 0.0
C2854 C 0.10281 0.04311 0.91889 0.0
C2855 C 0.11289 0.05969 0.9132 0.0
C2856 C 0.09466 0.04504 0.93773 0.0
C2857 C 0.09187 1.0063 0.91172 0.0
C2858 C 0.07663 0.03628 0.93921 0.0
C2859 C 0.06928 0.03797 0.95661 0.0
C2860 C 0.07947 0.04873 0.97347 0.0
C2861 C 0.09742 0.05776 0.97195 0.0
C2862 C 0.10479 0.05602 0.95455 0.0
H2863 H 0.09659 0.99409 0.90434 0.0
H2864 H 0.09397 1.0069 0.92702 0.0
H2865 H 0.07742 1.0032 0.9075 0.0
H2866 H 0.06803 0.02817 0.92679 0.0
H2867 H 0.05547 0.0307 0.9568 0.0
H2868 H 0.81741 0.43493 0.59377 0.0
H2869 H 0.81737 0.41657 0.61886 0.0
H2870 H 0.79128 0.3641 0.57984 0.0
H2871 H 0.79185 0.38223 0.55455 0.0
H2872 H 0.79278 0.39184 0.63493 0.0
H2873 H 0.83741 0.35333 0.5971 0.0
H2874 H 0.83192 0.37394 0.59012 0.0
H2875 H 0.81652 0.35048 0.58385 0.0
C2876 C 0.81143 0.41952 0.59059 0.0
C2877 C 0.80495 0.40995 0.57213 0.0
C2878 C 0.81139 0.40906 0.60494 0.0
C2879 C 0.80472 0.38892 0.60109 0.0
C2880 C 0.79692 0.37957 0.58299 0.0
H2881 H 0.81573 0.30325 0.66732 0.0
H2882 H 0.80275 0.32008 0.64608 0.0
C2883 C 0.79721 0.38995 0.56858 0.0
C2884 C 0.8074 0.37761 0.61553 0.0
H2885 H 0.82839 0.34379 0.62496 0.0
C2886 C 0.80048 0.38127 0.63274 0.0
C2887 C 0.81764 0.36396 0.61269 0.0
C2888 C 0.82645 0.36029 0.59503 0.0
C2889 C 0.80355 0.37158 0.64719 0.0
C2890 C 0.81373 0.35797 0.64424 0.0
C2891 C 0.82039 0.35411 0.627 0.0
C2892 C 0.81887 0.34846 0.65919 0.0
C2893 C 0.79601 0.37592 0.66551 0.0
C2894 C 0.832 0.35896 0.6737 0.0
C2895 C 0.83955 0.34939 0.6857 0.0
C2896 C 0.83401 0.32919 0.68336 0.0
C2897 C 0.82014 0.31883 0.66948 0.0
C2898 C 0.81273 0.3284 0.65737 0.0
H2899 H 0.7859 0.38421 0.66447 0.0
H2900 H 0.78992 0.36233 0.67023 0.0
H2901 H 0.8069 0.38456 0.67636 0.0
H2902 H 0.83706 0.37443 0.67512 0.0
H2903 H 0.85011 0.35769 0.69641 0.0
H2904 H 0.44969 0.09249 0.36095 0.0
H2905 H 0.46748 0.09363 0.39027 0.0
H2906 H 0.50801 0.07681 0.35868 0.0
H2907 H 0.4901 0.07495 0.32959 0.0
H2908 H 0.49799 0.05376 0.3823 0.0
H2909 H 0.51192 0.12963 0.42008 0.0
H2910 H 0.48874 0.11861 0.41315 0.0
H2911 H 0.50372 0.12231 0.39556 0.0
C2912 C 0.46255 0.08941 0.36036 0.0
C2913 C 0.46846 0.08344 0.34307 0.0
C2914 C 0.47275 0.09017 0.37709 0.0
C2915 C 0.48914 0.08542 0.37667 0.0
C2916 C 0.4954 0.08049 0.35935 0.0
H2917 H 0.56457 0.08933 0.47173 0.0
H2918 H 0.55016 0.09572 0.44359 0.0
C2919 C 0.48513 0.0794 0.34274 0.0
C2920 C 0.49893 0.08334 0.39392 0.0
H2921 H 0.51814 0.10676 0.43773 0.0
C2922 C 0.5025 0.06543 0.39435 0.0
C2923 C 0.50495 0.0986 0.40957 0.0
C2924 C 0.50231 0.11843 0.40955 0.0
C2925 C 0.51173 0.06225 0.41004 0.0
C2926 C 0.51709 0.07722 0.42598 0.0
C2927 C 0.51385 0.09527 0.42551 0.0
C2928 C 0.52564 0.07404 0.44339 0.0
C2929 C 0.51578 0.04291 0.40931 0.0
C2930 C 0.51651 0.05996 0.45267 0.0
C2931 C 0.52474 0.05606 0.4685 0.0
C2932 C 0.54225 0.06634 0.47551 0.0
C2933 C 0.55121 0.08088 0.46649 0.0
C2934 C 0.54296 0.08469 0.45053 0.0
H2935 H 0.51543 0.03528 0.39466 0.0
H2936 H 0.52903 0.04452 0.41677 0.0
H2937 H 0.50566 0.0337 0.41616 0.0
H2938 H 0.50301 0.05185 0.44758 0.0
H2939 H 0.51733 0.04492 0.47516 0.0
H2940 H 0.82319 0.71724 0.08481 0.0
H2941 H 0.82273 0.7337 0.11687 0.0
H2942 H 0.79145 0.76874 0.09663 0.0
H2943 H 0.79183 0.75233 0.06437 0.0
H2944 H 0.83324 0.77518 0.13401 0.0
H2945 H 0.76148 0.73986 0.13419 0.0
H2946 H 0.77473 0.73074 0.11715 0.0
H2947 H 0.76792 0.75223 0.11536 0.0
C2948 C 0.81637 0.72859 0.08709 0.0
C2949 C 0.80746 0.73336 0.07197 0.0
C2950 C 0.81614 0.73801 0.10545 0.0
C2951 C 0.80688 0.75227 0.10915 0.0
C2952 C 0.79852 0.75762 0.09409 0.0
H2953 H 0.8095 0.81239 0.22663 0.0
H2954 H 0.80734 0.80732 0.19216 0.0
C2955 C 0.79885 0.74829 0.07565 0.0
C2956 C 0.80542 0.76074 0.12885 0.0
H2957 H 0.77681 0.75863 0.16257 0.0
C2958 C 0.82085 0.77189 0.14021 0.0
C2959 C 0.78924 0.75629 0.1369 0.0
C2960 C 0.77236 0.74405 0.12539 0.0
C2961 C 0.82065 0.77818 0.15952 0.0
C2962 C 0.8046 0.77318 0.16766 0.0
C2963 C 0.78904 0.76258 0.15622 0.0
C2964 C 0.8043 0.7765 0.18826 0.0
C2965 C 0.83774 0.78928 0.17133 0.0
C2966 C 0.80296 0.76085 0.19736 0.0
C2967 C 0.80423 0.76371 0.21685 0.0
C2968 C 0.80646 0.78222 0.22765 0.0
C2969 C 0.80741 0.79792 0.21857 0.0
C2970 C 0.8063 0.79505 0.19896 0.0
H2971 H 0.84931 0.79095 0.16304 0.0
H2972 H 0.83661 0.80385 0.17775 0.0
H2973 H 0.84026 0.78183 0.18288 0.0
H2974 H 0.8015 0.74645 0.18937 0.0
H2975 H 0.80369 0.75144 0.22356 0.0
H2976 H 0.16844 1.00965 0.70044 0.0
H2977 H 0.15432 0.01272 0.67065 0.0
H2978 H 0.11235 0.02988 0.6991 0.0
H2979 H 0.12685 0.02756 0.72906 0.0
H2980 H 0.1264 0.99694 0.64847 0.0
H2981 H 0.12 0.0712 0.67043 0.0
H2982 H 0.13215 0.06028 0.68525 0.0
H2983 H 0.10831 0.05525 0.68429 0.0
C2984 C 0.15617 0.01406 0.70051 0.0
C2985 C 0.14904 0.01833 0.71767 0.0
C2986 C 0.14798 0.01587 0.68319 0.0
C2987 C 0.13221 0.0221 0.682 0.0
C2988 C 0.12475 0.02577 0.69909 0.0
H2989 H 0.06414 0.03296 0.58111 0.0
H2990 H 0.07504 0.03085 0.6131 0.0
C2991 C 0.13303 0.02413 0.71647 0.0
C2992 C 0.12365 0.02426 0.66302 0.0
H2993 H 0.10547 0.05438 0.64056 0.0
C2994 C 0.12195 1.00964 0.64696 0.0
C2995 C 0.11753 0.04067 0.66025 0.0
C2996 C 0.11974 0.05783 0.6759 0.0
C2997 C 0.1145 0.0108 0.62897 0.0
C2998 C 0.10841 0.02715 0.62625 0.0
C2999 C 0.10985 0.04169 0.64225 0.0
C3000 C 0.10155 0.02969 0.60681 0.0
C3001 C 0.11302 0.99419 0.61292 0.0
C3002 C 0.11259 0.03032 0.59222 0.0
C3003 C 0.10644 0.03185 0.57404 0.0
C3004 C 0.08893 0.03295 0.56936 0.0
C3005 C 0.07779 0.03256 0.58396 0.0
C3006 C 0.08406 0.03121 0.60239 0.0
H3007 H 0.11356 0.98076 0.61792 0.0
H3008 H 0.10047 0.99137 0.60367 0.0
H3009 H 0.12426 0.99783 0.60446 0.0
H3010 H 0.12615 0.02952 0.59485 0.0
H3011 H 0.11553 0.03195 0.56339 0.0
H3012 H 0.77625 0.39133 0.46227 0.0
H3013 H 0.77079 0.37048 0.43109 0.0
H3014 H 0.82072 0.35636 0.44068 0.0
H3015 H 0.82564 0.37604 0.4719 0.0
H3016 H 0.78716 0.37378 0.40253 0.0
H3017 H 0.79183 0.30422 0.41879 0.0
H3018 H 0.79023 0.32391 0.43681 0.0
H3019 H 0.81153 0.32207 0.42947 0.0
C3020 C 0.78584 0.38343 0.45779 0.0
C3021 C 0.80127 0.38516 0.46956 0.0
C3022 C 0.78273 0.37153 0.44 0.0
C3023 C 0.79513 0.3614 0.43363 0.0
C3024 C 0.81056 0.36328 0.44544 0.0
H3025 H 0.82197 0.33987 0.32234 0.0
H3026 H 0.81756 0.35186 0.35444 0.0
C3027 C 0.81346 0.37476 0.46328 0.0
C3028 C 0.79302 0.35041 0.4141 0.0
H3029 H 0.80042 0.30991 0.3881 0.0
C3030 C 0.78969 0.35963 0.3994 0.0
C3031 C 0.79579 0.33168 0.40981 0.0
C3032 C 0.79732 0.31986 0.42461 0.0
C3033 C 0.79024 0.35125 0.38071 0.0
C3034 C 0.79512 0.33359 0.37664 0.0
C3035 C 0.79721 0.32372 0.3912 0.0
C3036 C 0.79879 0.32558 0.35756 0.0
C3037 C 0.78558 0.36151 0.36557 0.0
C3038 C 0.79092 0.30625 0.3491 0.0
C3039 C 0.79399 0.29907 0.33087 0.0
C3040 C 0.80461 0.31121 0.32062 0.0
C3041 C 0.81329 0.33021 0.32957 0.0
C3042 C 0.81059 0.33721 0.3479 0.0
H3043 H 0.77596 0.36997 0.37 0.0
H3044 H 0.79774 0.37182 0.36288 0.0
H3045 H 0.77978 0.35122 0.35232 0.0
H3046 H 0.78212 0.2968 0.35643 0.0
H3047 H 0.78777 0.28414 0.32475 0.0
H3048 H 0.48643 0.1029 0.2701 0.0
H3049 H 0.51167 0.10495 0.25164 0.0
H3050 H 0.47682 0.06961 0.2036 0.0
H3051 H 0.45146 0.06834 0.22174 0.0
H3052 H 0.52461 0.07704 0.23809 0.0
H3053 H 0.50619 0.10846 0.17875 0.0
H3054 H 0.49438 0.1088 0.19927 0.0
H3055 H 0.48872 0.08795 0.18049 0.0
C3056 C 0.48412 0.09593 0.25547 0.0
C3057 C 0.46701 0.08545 0.24732 0.0
C3058 C 0.49855 0.09711 0.24495 0.0
C3059 C 0.49615 0.08764 0.22615 0.0
C3060 C 0.47897 0.07755 0.21789 0.0
H3061 H 0.56133 0.02895 0.16494 0.0
H3062 H 0.54473 0.0423 0.18883 0.0
C3063 C 0.46448 0.07669 0.22831 0.0
C3064 C 0.51173 0.08651 0.21581 0.0
H3065 H 0.52663 0.08817 0.17304 0.0
C3066 C 0.52523 0.07988 0.224 0.0
C3067 C 0.51287 0.09063 0.19761 0.0
C3068 C 0.49984 0.09957 0.18865 0.0
C3069 C 0.53919 0.07609 0.21406 0.0
C3070 C 0.53928 0.07831 0.19519 0.0
C3071 C 0.52644 0.08613 0.18741 0.0
C3072 C 0.55152 0.07115 0.18273 0.0
C3073 C 0.55355 0.06958 0.22387 0.0
C3074 C 0.56083 0.08284 0.17127 0.0
C3075 C 0.56997 0.07507 0.15733 0.0
C3076 C 0.57011 0.05556 0.15481 0.0
C3077 C 0.56165 0.04413 0.16689 0.0
C3078 C 0.55224 0.0518 0.1806 0.0
H3079 H 0.55557 0.0759 0.23908 0.0
H3080 H 0.54946 0.05365 0.22241 0.0
H3081 H 0.56637 0.07367 0.21793 0.0
H3082 H 0.56041 0.09777 0.1726 0.0
H3083 H 0.57638 0.0841 0.14807 0.0
H3084 H 0.81568 0.71308 0.95563 0.0
H3085 H 0.81877 0.7256 0.92662 0.0
H3086 H 0.79408 0.77046 0.94875 0.0
H3087 H 0.79019 0.75741 0.97734 0.0
H3088 H 0.78051 0.75604 0.91486 0.0
H3089 H 0.85328 0.77034 0.91455 0.0
H3090 H 0.84336 0.74556 0.91515 0.0
H3091 H 0.8423 0.76419 0.93453 0.0
C3092 C 0.8111 0.72575 0.95438 0.0
C3093 C 0.80275 0.73429 0.96882 0.0
C3094 C 0.81298 0.73299 0.9378 0.0
C3095 C 0.80697 0.74926 0.9355 0.0
C3096 C 0.79886 0.75794 0.95009 0.0
H3097 H 0.83437 0.81253 0.84541 0.0
H3098 H 0.83228 0.80172 0.87528 0.0
C3099 C 0.79669 0.75049 0.96649 0.0
C3100 C 0.80828 0.7567 0.91764 0.0
H3101 H 0.83687 0.77084 0.88601 0.0
C3102 C 0.7929 0.7594 0.90866 0.0
C3103 C 0.82445 0.76143 0.90956 0.0
C3104 C 0.84181 0.76043 0.91906 0.0
C3105 C 0.79315 0.76641 0.89186 0.0
C3106 C 0.80911 0.77016 0.88328 0.0
C3107 C 0.82456 0.76774 0.89238 0.0
C3108 C 0.81014 0.77682 0.86502 0.0
C3109 C 0.77637 0.7702 0.8838 0.0
C3110 C 0.79854 0.76639 0.84913 0.0
C3111 C 0.79949 0.77277 0.83209 0.0
C3112 C 0.81235 0.78949 0.8304 0.0
C3113 C 0.82424 0.79965 0.84619 0.0
C3114 C 0.82309 0.79344 0.86331 0.0
H3115 H 0.76751 0.77275 0.8948 0.0
H3116 H 0.77933 0.78289 0.87691 0.0
H3117 H 0.76899 0.75738 0.87326 0.0
H3118 H 0.78881 0.75318 0.84982 0.0
H3119 H 0.79026 0.76443 0.82016 0.0
H3120 H 0.85446 0.14034 0.9861 0.0
H3121 H 0.87992 0.12907 0.97542 0.0
H3122 H 0.87903 0.09777 0.02055 0.0
H3123 H 0.85373 0.10908 0.03144 0.0
H3124 H 0.91258 0.12124 0.01742 0.0
H3125 H 0.88155 0.07474 0.9491 0.0
H3126 H 0.87887 0.09889 0.95276 0.0
H3127 H 0.86866 0.0826 0.96719 0.0
C3128 C 0.85958 0.13091 0.99365 0.0
C3129 C 0.85207 0.1256 0.00962 0.0
C3130 C 0.87407 0.12442 0.98747 0.0
C3131 C 0.88124 0.11245 0.99709 0.0
C3132 C 0.87365 0.10696 0.0129 0.0
H3133 H 0.95619 0.04576 0.96828 0.0
H3134 H 0.93007 0.05768 0.97488 0.0
C3135 C 0.85918 0.11342 0.01908 0.0
C3136 C 0.89716 0.10633 0.99129 0.0
H3137 H 0.91257 0.07976 0.95582 0.0
C3138 C 0.91261 0.1122 1.00394 0.0
C3139 C 0.89707 0.09443 0.97375 0.0
C3140 C 0.88063 0.08712 0.95994 0.0
C3141 C 0.928 0.10647 0.99954 0.0
C3142 C 0.928 0.09479 0.9819 0.0
C3143 C 0.91255 0.08889 0.96924 0.0
C3144 C 0.94365 0.08772 0.97679 0.0
C3145 C 0.94398 0.11253 0.014 0.0
C3146 C 0.95983 0.10066 0.97531 0.0
C3147 C 0.97481 0.0939 0.97164 0.0
C3148 C 0.97381 0.07407 0.96934 0.0
C3149 C 0.95742 0.06113 0.97025 0.0
C3150 C 0.94248 0.06789 0.97389 0.0
H3151 H 0.94054 0.11784 0.02817 0.0
H3152 H 0.95005 0.10034 0.01468 0.0
H3153 H 0.95407 0.12439 0.01007 0.0
H3154 H 0.96094 0.116 0.97725 0.0
H3155 H 0.98727 0.10424 0.97114 0.0
H3156 H 0.37286 0.4221 0.03644 0.0
H3157 H 0.40388 0.43983 0.03832 0.0
H3158 H 0.38991 0.49338 0.05617 0.0
H3159 H 0.35859 0.47569 0.05432 0.0
H3160 H 0.4129 0.49331 0.02664 0.0
H3161 H 0.43775 0.46609 0.0867 0.0
H3162 H 0.42451 0.44745 0.06833 0.0
H3163 H 0.41454 0.46469 0.08129 0.0
C3164 C 0.3763 0.43765 0.04082 0.0
C3165 C 0.36317 0.44745 0.04528 0.0
C3166 C 0.3941 0.44775 0.04199 0.0
C3167 C 0.39923 0.46788 0.04767 0.0
C3168 C 0.38621 0.47781 0.0519 0.0
H3169 H 0.51134 0.53316 0.06914 0.0
H3170 H 0.4798 0.52085 0.07246 0.0
C3171 C 0.36834 0.46768 0.05084 0.0
C3172 C 0.41817 0.47841 0.04852 0.0
H3173 H 0.45959 0.48125 0.06867 0.0
C3174 C 0.4231 0.49087 0.03598 0.0
C3175 C 0.43144 0.47536 0.06085 0.0
C3176 C 0.42683 0.46281 0.07519 0.0
C3177 C 0.44102 0.49968 0.03487 0.0
C3178 C 0.45433 0.4958 0.04651 0.0
C3179 C 0.44937 0.48404 0.05963 0.0
C3180 C 0.47347 0.50316 0.04467 0.0
C3181 C 0.44561 0.51295 0.02114 0.0
C3182 C 0.48043 0.49696 0.02812 0.0
C3183 C 0.4984 0.50393 0.02618 0.0
C3184 C 0.50981 0.51731 0.04075 0.0
C3185 C 0.50288 0.52312 0.05753 0.0
C3186 C 0.48487 0.51606 0.05948 0.0
H3187 H 0.43412 0.51829 0.01683 0.0
H3188 H 0.45691 0.52553 0.02721 0.0
H3189 H 0.44957 0.50496 0.00841 0.0
H3190 H 0.47192 0.4867 0.01666 0.0
H3191 H 0.50324 0.49898 0.01312 0.0
H3192 H 0.42285 0.6494 0.7782 0.0
H3193 H 0.40943 0.67638 0.77793 0.0
H3194 H 0.36075 0.63681 0.75029 0.0
H3195 H 0.3749 0.61009 0.74903 0.0
H3196 H 0.35982 0.66468 0.73788 0.0
H3197 H 0.38255 0.70135 0.8107 0.0
H3198 H 0.40145 0.70035 0.7983 0.0
H3199 H 0.38637 0.67829 0.80163 0.0
C3200 C 0.40925 0.64633 0.77209 0.0
C3201 C 0.40014 0.62712 0.76376 0.0
C3202 C 0.40128 0.66203 0.77218 0.0
C3203 C 0.38342 0.65937 0.76474 0.0
C3204 C 0.37439 0.64005 0.75633 0.0
H3205 H 0.33401 0.75952 0.79351 0.0
H3206 H 0.34508 0.73066 0.79335 0.0
C3207 C 0.38257 0.62445 0.75567 0.0
C3208 C 0.37439 0.67638 0.76511 0.0
H3209 H 0.37167 0.7199 0.79114 0.0
C3210 C 0.36244 0.67655 0.74976 0.0
C3211 C 0.37686 0.69229 0.7805 0.0
C3212 C 0.38733 0.69297 0.79877 0.0
C3213 C 0.35349 0.69149 0.74921 0.0
C3214 C 0.35706 0.70812 0.76397 0.0
C3215 C 0.36878 0.70781 0.77945 0.0
C3216 C 0.3488 0.7256 0.76383 0.0
C3217 C 0.3396 0.68852 0.73295 0.0
C3218 C 0.34676 0.73339 0.74754 0.0
C3219 C 0.33948 0.74951 0.74753 0.0
C3220 C 0.33401 0.75908 0.76383 0.0
C3221 C 0.33677 0.75201 0.78034 0.0
C3222 C 0.34365 0.73552 0.78028 0.0
H3223 H 0.33362 0.67291 0.72735 0.0
H3224 H 0.32875 0.69528 0.73699 0.0
H3225 H 0.34589 0.69483 0.72144 0.0
H3226 H 0.35133 0.72746 0.7347 0.0
H3227 H 0.33857 0.7549 0.73466 0.0
H3228 H 0.25588 0.60697 0.53787 0.0
H3229 H 0.22408 0.59358 0.53805 0.0
H3230 H 0.21403 0.64599 0.52551 0.0
H3231 H 0.24586 0.65942 0.52492 0.0
H3232 H 0.20039 0.60713 0.56012 0.0
H3233 H 0.18193 0.60416 0.48462 0.0
H3234 H 0.20461 0.60819 0.49435 0.0
H3235 H 0.1938 0.62745 0.49785 0.0
C3236 C 0.24693 0.61566 0.5351 0.0
C3237 C 0.2534 0.63421 0.53124 0.0
C3238 C 0.22877 0.608 0.53527 0.0
C3239 C 0.21672 0.61872 0.53159 0.0
C3240 C 0.2231 0.63736 0.52804 0.0
H3241 H 0.10235 0.57616 0.54265 0.0
H3242 H 0.1331 0.59635 0.54885 0.0
C3243 C 0.24129 0.64502 0.52777 0.0
C3244 C 0.19748 0.61012 0.53136 0.0
H3245 H 0.15885 0.59303 0.50237 0.0
C3246 C 0.1912 0.60426 0.54759 0.0
C3247 C 0.18565 0.60628 0.51491 0.0
C3248 C 0.19179 0.61169 0.49687 0.0
C3249 C 0.17348 0.5941 0.54768 0.0
C3250 C 0.16175 0.58981 0.53109 0.0
C3251 C 0.16789 0.59634 0.51507 0.0
C3252 C 0.14357 0.57702 0.52928 0.0
C3253 C 0.1679 0.5867 0.56499 0.0
C3254 C 0.13928 0.55961 0.51618 0.0
C3255 C 0.12182 0.54837 0.51243 0.0
C3256 C 0.1084 0.55409 0.52201 0.0
C3257 C 0.11265 0.57126 0.53549 0.0
C3258 C 0.13017 0.58272 0.53905 0.0
H3259 H 0.17846 0.59209 0.57696 0.0
H3260 H 0.15585 0.591 0.5693 0.0
H3261 H 0.16478 0.57074 0.56184 0.0
H3262 H 0.14938 0.55503 0.50839 0.0
H3263 H 0.11872 0.53533 0.50176 0.0
H3264 H 0.70025 0.98517 0.77881 0.0
H3265 H 0.70666 0.96132 0.79623 0.0
H3266 H 0.74584 0.95095 0.75934 0.0
H3267 H 0.73936 0.97452 0.74168 0.0
H3268 H 0.72401 0.91698 0.76794 0.0
H3269 H 0.75259 0.97306 0.83168 0.0
H3270 H 0.73025 0.97158 0.82274 0.0
H3271 H 0.74821 0.97911 0.80921 0.0
C3272 C 0.71015 0.97771 0.77432 0.0
C3273 C 0.71942 0.98186 0.75895 0.0
C3274 C 0.71382 0.96414 0.78433 0.0
C3275 C 0.72688 0.95458 0.77922 0.0
C3276 C 0.73571 0.95821 0.76352 0.0
H3277 H 0.7998 0.908 0.83076 0.0
H3278 H 0.78154 0.92656 0.81797 0.0
C3279 C 0.73203 0.97172 0.75348 0.0
C3280 C 0.73212 0.9415 0.79064 0.0
H3281 H 0.75406 0.94145 0.83251 0.0
C3282 C 0.73034 0.9222 0.78217 0.0
C3283 C 0.74042 0.94844 0.80917 0.0
C3284 C 0.74314 0.9692 0.81877 0.0
C3285 C 0.73731 0.90984 0.79147 0.0
C3286 C 0.74612 0.91698 0.80977 0.0
C3287 C 0.74718 0.93602 0.81853 0.0
C3288 C 0.75658 0.90599 0.81889 0.0
C3289 C 0.73613 0.8896 0.78128 0.0
C3290 C 0.74854 0.88843 0.82403 0.0
C3291 C 0.75901 0.87772 0.83132 0.0
C3292 C 0.77762 0.88443 0.83348 0.0
C3293 C 0.7855 0.90235 0.82898 0.0
C3294 C 0.77509 0.91301 0.82178 0.0
H3295 H 0.73103 0.88722 0.76628 0.0
H3296 H 0.74937 0.88653 0.78219 0.0
H3297 H 0.72705 0.8791 0.78795 0.0
H3298 H 0.73424 0.8829 0.82214 0.0
H3299 H 0.75262 0.86395 0.8347 0.0
H3300 H 0.78004 0.96771 0.56874 0.0
H3301 H 0.75678 0.9835 0.56214 0.0
H3302 H 0.74372 0.94768 0.50705 0.0
H3303 H 0.76708 0.93169 0.51355 0.0
H3304 H 0.74782 0.98831 0.50825 0.0
H3305 H 0.70232 0.96042 0.55843 0.0
H3306 H 0.72494 0.97094 0.56834 0.0
H3307 H 0.71962 0.94939 0.55058 0.0
C3308 C 0.7722 0.96309 0.55523 0.0
C3309 C 0.77542 0.94837 0.54169 0.0
C3310 C 0.75882 0.97208 0.55152 0.0
C3311 C 0.74834 0.9666 0.53421 0.0
C3312 C 0.75158 0.95204 0.52056 0.0
H3313 H 0.65447 1.00737 0.50797 0.0
H3314 H 0.6746 0.98698 0.51217 0.0
C3315 C 0.76492 0.94291 0.52431 0.0
C3316 C 0.73446 0.9766 0.53024 0.0
H3317 H 0.69655 0.98651 0.54551 0.0
C3318 C 0.73652 0.98779 0.51628 0.0
C3319 C 0.71963 0.97577 0.5406 0.0
C3320 C 0.71634 0.96335 0.55522 0.0
C3321 C 0.7245 0.99869 0.51286 0.0
C3322 C 0.71011 0.99851 0.52378 0.0
C3323 C 0.70768 0.98678 0.53727 0.0
C3324 C 0.69775 0.01083 0.52171 0.0
C3325 C 0.72732 0.01038 0.49762 0.0
C3326 C 0.70399 0.031 0.5261 0.0
C3327 C 0.69251 0.04269 0.52393 0.0
C3328 C 0.67448 0.03449 0.51728 0.0
C3329 C 0.66819 0.01423 0.51328 0.0
C3330 C 0.67971 1.00253 0.51555 0.0
H3331 H 0.73616 1.00535 0.48762 0.0
H3332 H 0.71448 1.00963 0.48974 0.0
H3333 H 0.7336 0.02571 0.50403 0.0
H3334 H 0.71778 0.03772 0.53126 0.0
H3335 H 0.69778 0.0582 0.52759 0.0
H3336 H 0.42379 0.51265 0.79088 0.0
H3337 H 0.40597 0.48021 0.79043 0.0
H3338 H 0.36138 0.49295 0.76242 0.0
H3339 H 0.37955 0.52573 0.76232 0.0
H3340 H 0.37819 0.46542 0.80559 0.0
H3341 H 0.35935 0.44291 0.72907 0.0
H3342 H 0.37561 0.46511 0.73923 0.0
H3343 H 0.3523 0.46369 0.73936 0.0
C3344 C 0.4102 0.50877 0.78453 0.0
C3345 C 0.40336 0.52225 0.77655 0.0
C3346 C 0.39989 0.48993 0.78432 0.0
C3347 C 0.38219 0.48349 0.77609 0.0
C3348 C 0.37507 0.497 0.76844 0.0
H3349 H 0.30538 0.36791 0.76646 0.0
H3350 H 0.31897 0.40214 0.76637 0.0
C3351 C 0.38549 0.516 0.76858 0.0
C3352 C 0.37154 0.46285 0.77603 0.0
H3353 H 0.34692 0.42058 0.74773 0.0
C3354 C 0.3714 0.45573 0.79285 0.0
C3355 C 0.36243 0.44974 0.75957 0.0
C3356 C 0.36251 0.45563 0.74075 0.0
C3357 C 0.3627 0.4364 0.79369 0.0
C3358 C 0.35386 0.42324 0.77721 0.0
C3359 C 0.35361 0.4304 0.76045 0.0
C3360 C 0.34536 0.40202 0.77709 0.0
C3361 C 0.36291 0.43034 0.81243 0.0
C3362 C 0.35544 0.39001 0.78289 0.0
C3363 C 0.34769 0.37034 0.78288 0.0
C3364 C 0.32948 0.36178 0.77709 0.0
C3365 C 0.31937 0.37377 0.77117 0.0
C3366 C 0.3272 0.39348 0.77104 0.0
H3367 H 0.36544 0.44294 0.82417 0.0
H3368 H 0.35015 0.42011 0.81374 0.0
H3369 H 0.37369 0.42302 0.81386 0.0
H3370 H 0.3695 0.3958 0.78729 0.0
H3371 H 0.3561 0.36182 0.78747 0.0
H3372 H 0.24327 0.59499 0.24524 0.0
H3373 H 0.25958 0.6285 0.24569 0.0
H3374 H 0.21885 0.64875 0.274 0.0
H3375 H 0.20262 0.61563 0.27378 0.0
H3376 H 0.2467 0.65677 0.2299 0.0
H3377 H 0.26525 0.6797 0.30649 0.0
H3378 H 0.25816 0.65464 0.29501 0.0
H3379 H 0.24206 0.66823 0.30013 0.0
C3380 C 0.2379 0.6066 0.25172 0.0
C3381 C 0.22167 0.60262 0.25952 0.0
C3382 C 0.24719 0.6257 0.25191 0.0
C3383 C 0.24049 0.64105 0.26007 0.0
C3384 C 0.22438 0.63711 0.26792 0.0
H3385 H 0.26062 0.75956 0.24481 0.0
H3386 H 0.2495 0.7245 0.24184 0.0
C3387 C 0.21509 0.61813 0.26769 0.0
C3388 C 0.2499 0.66127 0.25998 0.0
H3389 H 0.26763 0.70474 0.28893 0.0
C3390 C 0.25155 0.66727 0.24276 0.0
C3391 C 0.25623 0.67485 0.27678 0.0
C3392 C 0.25551 0.66903 0.29566 0.0
C3393 C 0.25891 0.68669 0.2419 0.0
C3394 C 0.26458 0.70048 0.25878 0.0
C3395 C 0.26331 0.69427 0.27597 0.0
C3396 C 0.27176 0.72144 0.2592 0.0
C3397 C 0.2604 0.69202 0.22288 0.0
C3398 C 0.28767 0.73153 0.27035 0.0
C3399 C 0.29373 0.7515 0.27236 0.0
C3400 C 0.28429 0.76171 0.26284 0.0
C3401 C 0.26839 0.75178 0.25172 0.0
C3402 C 0.26213 0.73178 0.24995 0.0
H3403 H 0.26228 0.67987 0.21237 0.0
H3404 H 0.2479 0.6953 0.21815 0.0
H3405 H 0.27153 0.70483 0.22315 0.0
H3406 H 0.29526 0.72399 0.27782 0.0
H3407 H 0.30568 0.75903 0.2816 0.0
H3408 H 0.52 0.71906 0.454 0.0
H3409 H 0.52125 0.69005 0.46625 0.0
H3410 H 0.57293 0.71942 0.49529 0.0
H3411 H 0.57188 0.74829 0.48287 0.0
H3412 H 0.57316 0.68454 0.47709 0.0
H3413 H 0.51467 0.67604 0.51701 0.0
H3414 H 0.5094 0.6771 0.49299 0.0
H3415 H 0.52378 0.6978 0.50842 0.0
C3416 C 0.53156 0.71946 0.46318 0.0
C3417 C 0.54581 0.73619 0.46743 0.0
C3418 C 0.53221 0.70281 0.47032 0.0
C3419 C 0.54709 0.70241 0.48203 0.0
C3420 C 0.56123 0.71919 0.48641 0.0
H3421 H 0.55016 0.60567 0.54112 0.0
H3422 H 0.55053 0.63785 0.53434 0.0
C3423 C 0.56059 0.7358 0.47928 0.0
C3424 C 0.5485 0.68429 0.48876 0.0
H3425 H 0.52763 0.6493 0.51188 0.0
C3426 C 0.56321 0.67695 0.48479 0.0
C3427 C 0.53574 0.67431 0.49909 0.0
C3428 C 0.5201 0.68179 0.50481 0.0
C3429 C 0.56531 0.65992 0.49034 0.0
C3430 C 0.55221 0.64944 0.5 0.0
C3431 C 0.5377 0.65706 0.50443 0.0
C3432 C 0.5529 0.63018 0.50472 0.0
C3433 C 0.58185 0.65359 0.48603 0.0
C3434 C 0.55402 0.61492 0.49051 0.0
C3435 C 0.55402 0.59673 0.49443 0.0
C3436 C 0.55292 0.59303 0.5127 0.0
C3437 C 0.5516 0.60815 0.52701 0.0
C3438 C 0.55162 0.62652 0.52306 0.0
H3439 H 0.59276 0.66581 0.48396 0.0
H3440 H 0.5865 0.6473 0.49752 0.0
H3441 H 0.57896 0.64253 0.47295 0.0
H3442 H 0.55439 0.61687 0.47615 0.0
H3443 H 0.5546 0.58531 0.48296 0.0
H3444 H 0.66093 0.33356 0.6383 0.0
H3445 H 0.68834 0.33039 0.6541 0.0
H3446 H 0.66236 0.3237 0.7039 0.0
H3447 H 0.63481 0.32625 0.68803 0.0
H3448 H 0.71083 0.34913 0.68414 0.0
H3449 H 0.67987 0.27607 0.69631 0.0
H3450 H 0.66862 0.28809 0.68176 0.0
H3451 H 0.66895 0.29358 0.70684 0.0
C3452 C 0.66105 0.3316 0.65268 0.0
C3453 C 0.64548 0.33002 0.66176 0.0
C3454 C 0.6768 0.32973 0.66173 0.0
C3455 C 0.67746 0.32624 0.68012 0.0
C3456 C 0.66219 0.32572 0.68954 0.0
H3457 H 0.77476 0.33585 0.75236 0.0
H3458 H 0.74915 0.34188 0.73594 0.0
C3459 C 0.64641 0.3274 0.68046 0.0
C3460 C 0.69392 0.32283 0.68928 0.0
H3461 H 0.70878 0.29119 0.71185 0.0
C3462 C 0.71035 0.33641 0.69014 0.0
C3463 C 0.69359 0.30606 0.69684 0.0
C3464 C 0.67686 0.29002 0.69524 0.0
C3465 C 0.72619 0.33393 0.69859 0.0
C3466 C 0.72568 0.3176 0.70693 0.0
C3467 C 0.70931 0.30385 0.70574 0.0
C3468 C 0.74185 0.31429 0.71679 0.0
C3469 C 0.74338 0.34865 0.69804 0.0
C3470 C 0.74644 0.29666 0.71193 0.0
C3471 C 0.76086 0.29297 0.7218 0.0
C3472 C 0.77105 0.30669 0.73701 0.0
C3473 C 0.76682 0.32455 0.74145 0.0
C3474 C 0.75234 0.32822 0.73164 0.0
H3475 H 0.74252 0.35639 0.6863 0.0
H3476 H 0.74633 0.35953 0.71126 0.0
H3477 H 0.75461 0.34182 0.69653 0.0
H3478 H 0.73873 0.28561 0.70055 0.0
H3479 H 0.7637 0.27909 0.71779 0.0
H3480 H 0.05492 0.34478 0.94681 0.0
H3481 H 0.05987 0.37946 0.95883 0.0
H3482 H 0.01747 0.3676 0.99369 0.0
H3483 H 0.01235 0.33298 0.98163 0.0
H3484 H 0.01468 0.39615 0.97448 0.0
H3485 H 0.08314 0.41224 0.0093 0.0
H3486 H 0.0806 0.40047 0.98518 0.0
H3487 H 0.06933 0.38793 1.00195 0.0
C3488 C 0.0468 0.34951 0.95722 0.0
C3489 C 0.03329 0.33595 0.96329 0.0
C3490 C 0.04969 0.36941 0.96416 0.0
C3491 C 0.03919 0.3763 0.97738 0.0
C3492 C 0.02581 0.36277 0.98356 0.0
H3493 H 0.05936 0.49396 0.04258 0.0
H3494 H 0.05213 0.45871 0.03232 0.0
C3495 C 0.02294 0.3429 0.97668 0.0
C3496 C 0.04161 0.39755 0.98422 0.0
H3497 H 0.07175 0.43919 0.00654 0.0
C3498 C 0.02718 0.40553 0.98147 0.0
C3499 C 0.05781 0.4099 0.99363 0.0
C3500 C 0.07357 0.40222 0.99788 0.0
C3501 C 0.02861 0.42539 0.98752 0.0
C3502 C 0.04491 0.4378 0.99651 0.0
C3503 C 0.05926 0.42979 0.99954 0.0
C3504 C 0.04739 0.4591 1.00289 0.0
C3505 C 0.01249 0.43289 0.98485 0.0
C3506 C 0.04697 0.4712 0.98986 0.0
C3507 C 0.05105 0.49136 0.99575 0.0
C3508 C 0.05532 0.49987 0.01482 0.0
C3509 C 0.05552 0.48776 0.02786 0.0
C3510 C 0.05152 0.46763 0.02198 0.0
H3511 H 1.00027 0.42109 0.97981 0.0
H3512 H 0.01049 0.44143 0.99831 0.0
H3513 H 0.01454 0.44253 0.97452 0.0
H3514 H 0.04424 0.46512 0.97503 0.0
H3515 H 0.05163 0.50035 0.98531 0.0
H3516 H 0.04659 0.79925 0.1873 0.0
H3517 H 0.02007 0.79922 0.20334 0.0
H3518 H 1.00602 0.83778 0.16994 0.0
H3519 H 0.03286 0.83817 0.15396 0.0
H3520 H 1.00103 0.84826 0.2067 0.0
H3521 H 0.96975 0.77031 0.18244 0.0
H3522 H 0.99165 0.77479 0.19411 0.0
H3523 H 0.98867 0.78295 0.1725 0.0
C3524 C 0.0379 0.80777 0.18333 0.0
C3525 C 0.04185 0.81863 0.16922 0.0
C3526 C 0.02262 0.80761 0.19245 0.0
C3527 C 0.01075 0.81812 0.18759 0.0
C3528 C 0.01486 0.8294 0.17384 0.0
H3529 H 0.90523 0.79644 0.22864 0.0
H3530 H 0.92899 0.80063 0.20803 0.0
C3531 C 0.03023 0.82962 0.16472 0.0
C3532 C 0.99424 0.81747 0.19709 0.0
H3533 H 0.95764 0.78631 0.20802 0.0
C3534 C 0.99146 0.83473 0.20683 0.0
C3535 C 0.98148 0.79988 0.19701 0.0
C3536 C 0.98291 0.78096 0.18579 0.0
C3537 C 0.97674 0.83479 0.21709 0.0
C3538 C 0.9646 0.81707 0.21798 0.0
C3539 C 0.96699 0.7999 0.20758 0.0
C3540 C 0.94984 0.81587 0.23022 0.0
C3541 C 0.97435 0.8539 0.22681 0.0
C3542 C 0.95351 0.82306 0.24957 0.0
C3543 C 0.93995 0.82084 0.26133 0.0
C3544 C 0.92231 0.81111 0.25413 0.0
C3545 C 0.91857 0.80418 0.23468 0.0
C3546 C 0.9322 0.80645 0.22288 0.0
H3547 H 0.98079 0.8658 0.21983 0.0
H3548 H 0.96009 0.85356 0.2271 0.0
H3549 H 0.98067 0.85723 0.24144 0.0
H3550 H 0.967 0.83001 0.25571 0.0
H3551 H 0.94336 0.82658 0.27617 0.0
H3552 H 0.49559 0.32398 0.13798 0.0
H3553 H 0.4942 0.34443 0.1147 0.0
H3554 H 0.53588 0.32462 0.08786 0.0
H3555 H 0.53735 0.3043 0.1108 0.0
H3556 H 0.52301 0.37411 0.10716 0.0
H3557 H 0.49698 0.3168 0.04431 0.0
H3558 H 0.49519 0.31245 0.06786 0.0
H3559 H 0.51564 0.31329 0.05755 0.0
C3560 C 0.50438 0.32394 0.12705 0.0
C3561 C 0.51656 0.31251 0.12622 0.0
C3562 C 0.50355 0.33558 0.11378 0.0
C3563 C 0.51471 0.33573 0.09939 0.0
C3564 C 0.52688 0.32438 0.0986 0.0
H3565 H 0.55242 0.39668 0.01427 0.0
H3566 H 0.54359 0.37363 0.03491 0.0
C3567 C 0.52779 0.31288 0.11185 0.0
C3568 C 0.51458 0.34851 0.08571 0.0
H3569 H 0.51093 0.34824 0.03878 0.0
C3570 C 0.52006 0.36852 0.09222 0.0
C3571 C 0.51079 0.3411 0.06625 0.0
C3572 C 0.50416 0.31973 0.05855 0.0
C3573 C 0.52276 0.38134 0.07972 0.0
C3574 C 0.51953 0.37389 0.06021 0.0
C3575 C 0.51344 0.35389 0.05373 0.0
C3576 C 0.52342 0.38659 0.04637 0.0
C3577 C 0.52991 0.40266 0.08748 0.0
C3578 C 0.51456 0.40106 0.04551 0.0
C3579 C 0.51959 0.41423 0.03377 0.0
C3580 C 0.53346 0.41305 0.02255 0.0
C3581 C 0.54164 0.39789 0.02267 0.0
C3582 C 0.53665 0.38477 0.0345 0.0
H3583 H 0.5353 0.40557 0.10244 0.0
H3584 H 0.54056 0.40922 0.07937 0.0
H3585 H 0.51905 0.40992 0.08641 0.0
H3586 H 0.50403 0.40243 0.05424 0.0
H3587 H 0.51284 0.42558 0.03371 0.0
H3588 H 0.03471 0.2762 0.32151 0.0
H3589 H 0.01059 0.28725 0.30768 0.0
H3590 H 0.0102 0.32474 0.36026 0.0
H3591 H 0.03429 0.31402 0.37414 0.0
H3592 H 0.97646 0.28623 0.31858 0.0
H3593 H 0.01632 0.3613 0.32264 0.0
H3594 H 0.02624 0.34179 0.32519 0.0
H3595 H 0.01705 0.3534 0.34459 0.0
C3596 C 0.02941 0.2867 0.33016 0.0
C3597 C 0.03652 0.29435 0.34888 0.0
C3598 C 0.01569 0.29303 0.32222 0.0
C3599 C 0.00896 0.30713 0.33285 0.0
C3600 C 0.01556 0.31421 0.3517 0.0
H3601 H 0.91138 0.33838 0.3221 0.0
H3602 H 0.93726 0.3271 0.3304 0.0
C3603 C 0.02924 0.30794 0.35964 0.0
C3604 C 0.99486 0.31436 0.32445 0.0
H3605 H 0.98477 0.35575 0.31719 0.0
C3606 C 0.97831 0.30138 0.31805 0.0
C3607 C 0.99745 0.33407 0.32351 0.0
C3608 C 0.01528 0.34843 0.32917 0.0
C3609 C 0.96397 0.30779 0.31157 0.0
C3610 C 0.96626 0.32771 0.31179 0.0
C3611 C 0.98304 0.34053 0.3173 0.0
C3612 C 0.95116 0.33555 0.30719 0.0
C3613 C 0.94644 0.29323 0.30473 0.0
C3614 C 0.95082 0.34481 0.29188 0.0
C3615 C 0.93605 0.35135 0.28713 0.0
C3616 C 0.92148 0.34874 0.2977 0.0
C3617 C 0.92228 0.34024 0.31351 0.0
C3618 C 0.93701 0.33375 0.31823 0.0
H3619 H 0.94816 0.27844 0.3005 0.0
H3620 H 0.93771 0.29307 0.31618 0.0
H3621 H 0.93965 0.29702 0.29265 0.0
H3622 H 0.96175 0.34648 0.28332 0.0
H3623 H 0.93573 0.35778 0.27483 0.0
H3624 H 1.00324 0.69217 0.65127 0.0
H3625 H 0.00728 0.66196 0.6337 0.0
H3626 H 0.01764 0.68841 0.5856 0.0
H3627 H 0.01409 0.71877 0.60318 0.0
H3628 H 0.99376 0.63657 0.59949 0.0
H3629 H 0.06432 0.67568 0.5999 0.0
H3630 H 0.04923 0.68572 0.61374 0.0
H3631 H 0.04891 0.68637 0.58919 0.0
C3632 C 1.00593 0.6914 0.6368 0.0
C3633 C 0.00869 0.7079 0.62869 0.0
C3634 C 0.00826 0.67416 0.6268 0.0
C3635 C 0.01324 0.6732 0.60857 0.0
C3636 C 0.01424 0.68907 0.59984 0.0
H3637 H 0.02671 0.57392 0.53228 0.0
H3638 H 0.01621 0.60052 0.54849 0.0
C3639 C 0.01213 0.70635 0.60987 0.0
C3640 C 0.01915 0.65641 0.59943 0.0
H3641 H 0.05522 0.64381 0.58231 0.0
C3642 C 0.00718 0.63809 0.59572 0.0
C3643 C 0.03681 0.65845 0.59498 0.0
C3644 C 0.05063 0.67757 0.59981 0.0
C3645 C 0.01233 0.62173 0.58726 0.0
C3646 C 0.02979 0.62393 0.5821 0.0
C3647 C 0.04181 0.64221 0.58614 0.0
C3648 C 0.03595 0.60753 0.57245 0.0
C3649 C 0.99917 0.60224 0.58425 0.0
C3650 C 0.05097 0.60311 0.58022 0.0
C3651 C 0.05724 0.5881 0.57082 0.0
C3652 C 0.0485 0.57711 0.55354 0.0
C3653 C 0.03363 0.58183 0.54567 0.0
C3654 C 0.02747 0.59695 0.555 0.0
H3655 H 0.98853 0.60225 0.5937 0.0
H3656 H 0.99279 0.59847 0.56962 0.0
H3657 H 1.0058 0.59085 0.58659 0.0
H3658 H 0.05785 0.6113 0.59358 0.0
H3659 H 0.06893 0.58515 0.57713 0.0
H3660 H 0.66571 0.80798 0.88744 0.0
H3661 H 0.69314 0.81216 0.87253 0.0
H3662 H 0.66367 0.80721 0.81918 0.0
H3663 H 0.63616 0.80356 0.83408 0.0
H3664 H 0.70391 0.78968 0.84529 0.0
H3665 H 0.70072 0.85775 0.82283 0.0
H3666 H 0.68628 0.84733 0.83881 0.0
H3667 H 0.6815 0.83823 0.814 0.0
C3668 C 0.66501 0.80759 0.8725 0.0
C3669 C 0.64877 0.8056 0.86196 0.0
C3670 C 0.68072 0.81008 0.86402 0.0
C3671 C 0.68048 0.81054 0.84487 0.0
C3672 C 0.6642 0.80753 0.83411 0.0
H3673 H 0.76127 0.82691 0.76853 0.0
H3674 H 0.73408 0.82454 0.78431 0.0
C3675 C 0.64847 0.80521 0.8426 0.0
C3676 C 0.6973 0.81388 0.83619 0.0
H3677 H 0.72304 0.84331 0.81131 0.0
C3678 C 0.70814 0.8014 0.83784 0.0
C3679 C 0.70284 0.82936 0.82676 0.0
C3680 C 0.69233 0.84406 0.82564 0.0
C3681 C 0.72423 0.80358 0.82994 0.0
C3682 C 0.72966 0.81885 0.82004 0.0
C3683 C 0.71882 0.83147 0.8186 0.0
C3684 C 0.74633 0.82194 0.81093 0.0
C3685 C 0.73492 0.7893 0.83256 0.0
C3686 C 0.76238 0.82229 0.82082 0.0
C3687 C 0.77748 0.82267 0.81159 0.0
C3688 C 0.77708 0.82381 0.79259 0.0
C3689 C 0.76163 0.82554 0.78309 0.0
C3690 C 0.74622 0.82434 0.79216 0.0
H3691 H 0.72609 0.77492 0.83293 0.0
H3692 H 0.74376 0.78739 0.82152 0.0
H3693 H 0.74323 0.79445 0.84624 0.0
H3694 H 0.76313 0.82162 0.83554 0.0
H3695 H 0.78948 0.82193 0.8193 0.0
H3696 H 0.48957 0.56226 0.73668 0.0
H3697 H 0.50364 0.55957 0.70754 0.0
H3698 H 0.46641 0.58552 0.68276 0.0
H3699 H 0.45198 0.58766 0.71167 0.0
H3700 H 0.47037 0.55904 0.65675 0.0
H3701 H 0.53916 0.5959 0.68654 0.0
H3702 H 0.53047 0.57532 0.69672 0.0
H3703 H 0.52074 0.59556 0.70032 0.0
C3704 C 0.48441 0.56764 0.72517 0.0
C3705 C 0.4695 0.5754 0.7271 0.0
C3706 C 0.49267 0.5662 0.70826 0.0
C3707 C 0.48665 0.57269 0.69242 0.0
C3708 C 0.47172 0.58038 0.69436 0.0
H3709 H 0.55026 0.59022 0.59531 0.0
H3710 H 0.53669 0.59351 0.62482 0.0
C3711 C 0.4634 0.58171 0.7112 0.0
C3712 C 0.49535 0.57098 0.67385 0.0
H3713 H 0.53542 0.5791 0.65493 0.0
C3714 C 0.48463 0.56352 0.65655 0.0
C3715 C 0.51402 0.57701 0.67277 0.0
C3716 C 0.52676 0.58658 0.69004 0.0
C3717 C 0.49173 0.56167 0.63891 0.0
C3718 C 0.51045 0.5669 0.63789 0.0
C3719 C 0.52116 0.5747 0.65515 0.0
C3720 C 0.51905 0.56472 0.6193 0.0
C3721 C 0.47882 0.55465 0.62143 0.0
C3722 C 0.51431 0.5474 0.60571 0.0
C3723 C 0.52212 0.54552 0.58858 0.0
C3724 C 0.53533 0.56074 0.58418 0.0
C3725 C 0.54031 0.57799 0.59786 0.0
C3726 C 0.53242 0.5799 0.61498 0.0
H3727 H 0.46574 0.55752 0.62392 0.0
H3728 H 0.4839 0.56166 0.60978 0.0
H3729 H 0.47662 0.53882 0.61704 0.0
H3730 H 0.50464 0.53502 0.60838 0.0
H3731 H 0.51786 0.53186 0.57882 0.0
H3732 H 0.80443 0.21238 0.97073 0.0
H3733 H 0.80153 0.21877 0.9391 0.0
H3734 H 0.81505 0.16586 0.91709 0.0
H3735 H 0.81821 0.15937 0.94897 0.0
H3736 H 0.82808 0.21725 0.90758 0.0
H3737 H 0.76134 0.1648 0.89452 0.0
H3738 H 0.77083 0.1763 0.91811 0.0
H3739 H 0.78018 0.15867 0.90502 0.0
C3740 C 0.8071 0.20224 0.95922 0.0
C3741 C 0.81141 0.1853 0.96227 0.0
C3742 C 0.80549 0.20595 0.94119 0.0
C3743 C 0.80799 0.19273 0.92587 0.0
C3744 C 0.81309 0.17621 0.92884 0.0
H3745 H 0.76216 0.20604 0.81733 0.0
H3746 H 0.77608 0.19125 0.83988 0.0
C3747 C 0.81492 0.17256 0.947 0.0
C3748 C 0.80356 0.19573 0.90686 0.0
H3749 H 0.76795 0.18666 0.8742 0.0
C3750 C 0.81512 0.21026 0.89998 0.0
C3751 C 0.78671 0.18644 0.89698 0.0
C3752 C 0.77394 0.17065 0.90391 0.0
C3753 C 0.80982 0.21655 0.88395 0.0
C3754 C 0.79234 0.20848 0.87504 0.0
C3755 C 0.78129 0.19294 0.88114 0.0
C3756 C 0.78456 0.2174 0.86096 0.0
C3757 C 0.82284 0.23215 0.87705 0.0
C3758 C 0.7842 0.2368 0.8656 0.0
C3759 C 0.77603 0.24517 0.85297 0.0
C3760 C 0.76794 0.23429 0.83541 0.0
C3761 C 0.76814 0.21477 0.83082 0.0
C3762 C 0.77626 0.20636 0.84357 0.0
H3763 H 0.83671 0.23151 0.88046 0.0
H3764 H 0.82031 0.23094 0.86169 0.0
H3765 H 0.82162 0.24647 0.88413 0.0
H3766 H 0.78989 0.24541 0.87922 0.0
H3767 H 0.77577 0.26011 0.85711 0.0
H3768 H 0.17576 0.52568 0.18949 0.0
H3769 H 0.15614 0.52336 0.16131 0.0
H3770 H 0.11173 0.52076 0.19399 0.0
H3771 H 0.13128 0.52351 0.2223 0.0
H3772 H 0.12387 0.49873 0.14226 0.0
H3773 H 0.11691 0.57123 0.17449 0.0
H3774 H 0.13302 0.56046 0.18404 0.0
H3775 H 0.11011 0.55279 0.18796 0.0
C3776 C 0.16174 0.52414 0.19062 0.0
C3777 C 0.15512 0.52518 0.20816 0.0
C3778 C 0.15055 0.52282 0.1745 0.0
C3779 C 0.13261 0.52239 0.1757 0.0
C3780 C 0.12564 0.52153 0.19288 0.0
H3781 H 0.05966 0.51836 0.07777 0.0
H3782 H 0.07248 0.511 0.10623 0.0
C3783 C 0.13682 0.52304 0.20902 0.0
C3784 C 0.12181 0.52508 0.15952 0.0
H3785 H 0.10168 0.55734 0.14464 0.0
C3786 C 0.11886 0.51144 0.14277 0.0
C3787 C 0.11558 0.54186 0.16023 0.0
C3788 C 0.11916 0.55753 0.17757 0.0
C3789 C 0.10995 0.51424 0.1266 0.0
C3790 C 0.10367 0.53098 0.12738 0.0
C3791 C 0.10641 0.54445 0.14419 0.0
C3792 C 0.09539 0.53558 0.11059 0.0
C3793 C 0.10794 0.49967 0.10865 0.0
C3794 C 0.1037 0.55221 0.10408 0.0
C3795 C 0.09629 0.5566 0.08806 0.0
C3796 C 0.08044 0.54443 0.07825 0.0
C3797 C 0.07185 0.52806 0.08509 0.0
C3798 C 0.07926 0.5237 0.10119 0.0
H3799 H 0.11662 0.48975 0.10948 0.0
H3800 H 0.09397 0.49087 0.10573 0.0
H3801 H 0.11112 0.50703 0.09668 0.0
H3802 H 0.11608 0.56165 0.11126 0.0
H3803 H 0.10302 0.5695 0.08331 0.0
H3804 H 0.82979 0.84648 0.48752 0.0
H3805 H 0.82813 0.83322 0.4541 0.0
H3806 H 0.79167 0.86654 0.44209 0.0
H3807 H 0.7932 0.87989 0.47558 0.0
H3808 H 0.78272 0.82678 0.4214 0.0
H3809 H 0.85237 0.86685 0.41746 0.0
H3810 H 0.84906 0.85224 0.43509 0.0
H3811 H 0.84016 0.87293 0.43687 0.0
C3812 C 0.82125 0.85086 0.47783 0.0
C3813 C 0.8117 0.86436 0.48425 0.0
C3814 C 0.82039 0.84331 0.4587 0.0
C3815 C 0.80999 0.84911 0.44559 0.0
C3816 C 0.79984 0.86194 0.45198 0.0
H3817 H 0.80883 0.85189 0.3296 0.0
H3818 H 0.81154 0.85732 0.36382 0.0
C3819 C 0.80072 0.86955 0.47113 0.0
C3820 C 0.81024 0.84244 0.42518 0.0
H3821 H 0.83672 0.84676 0.38968 0.0
C3822 C 0.79455 0.83098 0.41447 0.0
C3823 C 0.82569 0.84805 0.41617 0.0
C3824 C 0.84278 0.86081 0.42689 0.0
C3825 C 0.79386 0.82519 0.39495 0.0
C3826 C 0.80926 0.83097 0.38595 0.0
C3827 C 0.825 0.84218 0.39668 0.0
C3828 C 0.80874 0.82734 0.36524 0.0
C3829 C 0.77651 0.81353 0.38394 0.0
C3830 C 0.80656 0.80868 0.35469 0.0
C3831 C 0.80516 0.80556 0.33506 0.0
C3832 C 0.80602 0.82111 0.32581 0.0
C3833 C 0.80836 0.83973 0.33644 0.0
C3834 C 0.8099 0.84284 0.35595 0.0
H3835 H 0.76533 0.81205 0.39275 0.0
H3836 H 0.77333 0.82037 0.37215 0.0
H3837 H 0.77771 0.79889 0.37791 0.0
H3838 H 0.80573 0.79654 0.36163 0.0
H3839 H 0.80299 0.79102 0.32714 0.0
H3840 H 0.48081 0.59063 0.85014 0.0
H3841 H 0.4937 0.58743 0.88061 0.0
H3842 H 0.50065 0.53198 0.85582 0.0
H3843 H 0.48771 0.53513 0.82536 0.0
H3844 H 0.48826 0.52962 0.88924 0.0
H3845 H 0.54425 0.59498 0.90157 0.0
H3846 H 0.52316 0.60012 0.89763 0.0
H3847 H 0.53118 0.58574 0.87914 0.0
C3848 C 0.48523 0.5778 0.85102 0.0
C3849 C 0.48319 0.56327 0.83482 0.0
C3850 C 0.49279 0.57599 0.86866 0.0
C3851 C 0.49867 0.55954 0.87102 0.0
C3852 C 0.49649 0.54495 0.85485 0.0
H3853 H 0.56409 0.55041 0.9741 0.0
H3854 H 0.55391 0.55208 0.94176 0.0
C3855 C 0.48906 0.54682 0.83719 0.0
C3856 C 0.5065 0.55724 0.89018 0.0
H3857 H 0.53844 0.57936 0.92752 0.0
C3858 C 0.49927 0.54058 0.89746 0.0
C3859 C 0.52115 0.57113 0.90135 0.0
C3860 C 0.53053 0.58891 0.89449 0.0
C3861 C 0.50571 0.53777 0.91523 0.0
C3862 C 0.51993 0.55196 0.92668 0.0
C3863 C 0.52752 0.56837 0.9192 0.0
C3864 C 0.5265 0.55031 0.94653 0.0
C3865 C 0.49727 0.51928 0.92149 0.0
C3866 C 0.51486 0.54875 0.96056 0.0
C3867 C 0.52071 0.54786 0.97906 0.0
C3868 C 0.53848 0.54822 0.98455 0.0
C3869 C 0.55025 0.54967 0.97056 0.0
C3870 C 0.54439 0.5508 0.95196 0.0
H3871 H 0.49034 0.50775 0.90948 0.0
H3872 H 0.50735 0.51406 0.92901 0.0
H3873 H 0.48734 0.52193 0.93118 0.0
H3874 H 0.50113 0.5487 0.95735 0.0
H3875 H 0.5112 0.54708 0.98929 0.0
H3876 H 0.83167 0.18506 0.08562 0.0
H3877 H 0.83208 0.20912 0.11363 0.0
H3878 H 0.8246 0.24964 0.07923 0.0
H3879 H 0.82405 0.22568 0.05108 0.0
H3880 H 0.85176 0.24963 0.12778 0.0
H3881 H 0.77945 0.23858 0.10782 0.0
H3882 H 0.7917 0.22223 0.09723 0.0
H3883 H 0.79422 0.24533 0.09074 0.0
C3884 C 0.83051 0.19922 0.08397 0.0
C3885 C 0.82751 0.20332 0.06609 0.0
C3886 C 0.83078 0.21296 0.10001 0.0
C3887 C 0.82806 0.23098 0.09842 0.0
C3888 C 0.82648 0.23569 0.08068 0.0
H3889 H 0.81992 0.31322 0.20005 0.0
H3890 H 0.82626 0.30168 0.16817 0.0
C3891 C 0.82621 0.22197 0.06462 0.0
C3892 C 0.8249 0.24381 0.11518 0.0
H3893 H 0.79154 0.25823 0.1369 0.0
C3894 C 0.8387 0.25186 0.12969 0.0
C3895 C 0.80776 0.24646 0.1176 0.0
C3896 C 0.79235 0.23763 0.10262 0.0
C3897 C 0.83566 0.26206 0.14683 0.0
C3898 C 0.81841 0.26417 0.1494 0.0
C3899 C 0.80477 0.25669 0.1347 0.0
C3900 C 0.81375 0.27169 0.16801 0.0
C3901 C 0.85059 0.26964 0.16246 0.0
C3902 C 0.80422 0.25869 0.17811 0.0
C3903 C 0.80083 0.26513 0.19631 0.0
C3904 C 0.80691 0.28476 0.20476 0.0
C3905 C 0.81557 0.29794 0.19416 0.0
C3906 C 0.81912 0.29142 0.17594 0.0
H3907 H 0.86303 0.26595 0.15849 0.0
H3908 H 0.85326 0.28558 0.16637 0.0
H3909 H 0.84671 0.26363 0.17504 0.0
H3910 H 0.79987 0.24341 0.1721 0.0
H3911 H 0.79392 0.25457 0.2039 0.0
H3912 H 0.13443 0.57397 0.29589 0.0
H3913 H 0.12089 0.58175 0.32452 0.0
H3914 H 0.15566 0.55657 0.35439 0.0
H3915 H 0.1694 0.54866 0.32565 0.0
H3916 H 0.10432 0.55519 0.34804 0.0
H3917 H 0.16264 0.61321 0.38463 0.0
H3918 H 0.15992 0.60475 0.35958 0.0
H3919 H 0.16659 0.59035 0.37488 0.0
C3920 C 0.13918 0.56999 0.30851 0.0
C3921 C 0.15304 0.56077 0.30855 0.0
C3922 C 0.13142 0.57446 0.32484 0.0
C3923 C 0.13746 0.56996 0.34154 0.0
C3924 C 0.15102 0.56037 0.34162 0.0
H3925 H 0.10689 0.58903 0.45353 0.0
H3926 H 0.12252 0.58355 0.42589 0.0
C3927 C 0.15875 0.55576 0.32521 0.0
C3928 C 0.1294 0.57534 0.35879 0.0
H3929 H 0.13757 0.60605 0.40118 0.0
C3930 C 0.11155 0.5663 0.35969 0.0
C3931 C 0.13895 0.58983 0.37386 0.0
C3932 C 0.15806 0.60025 0.37327 0.0
C3933 C 0.10297 0.57122 0.37543 0.0
C3934 C 0.11242 0.58596 0.39042 0.0
C3935 C 0.13034 0.59491 0.38956 0.0
C3936 C 0.10408 0.5916 0.40745 0.0
C3937 C 0.084 0.56027 0.37605 0.0
C3938 C 0.08897 0.59874 0.40639 0.0
C3939 C 0.07991 0.60174 0.42214 0.0
C3940 C 0.08592 0.59772 0.43918 0.0
C3941 C 0.10178 0.5919 0.44047 0.0
C3942 C 0.11076 0.58885 0.42474 0.0
H3943 H 0.08024 0.54643 0.36574 0.0
H3944 H 0.08184 0.55713 0.39021 0.0
H3945 H 0.07501 0.56916 0.37262 0.0
H3946 H 0.08385 0.60137 0.39323 0.0
H3947 H 0.06774 0.60622 0.42072 0.0
H3948 H 0.81096 0.85403 0.57736 0.0
H3949 H 0.80977 0.84125 0.6063 0.0
H3950 H 0.80235 0.89473 0.63628 0.0
H3951 H 0.80316 0.90746 0.60745 0.0
H3952 H 0.8324 0.85523 0.63828 0.0
H3953 H 0.76413 0.85591 0.65431 0.0
H3954 H 0.77154 0.85856 0.63173 0.0
H3955 H 0.77693 0.87888 0.65095 0.0
C3956 C 0.80878 0.86298 0.59003 0.0
C3957 C 0.80709 0.88178 0.59 0.0
C3958 C 0.80816 0.85565 0.6066 0.0
C3959 C 0.80575 0.86691 0.62346 0.0
C3960 C 0.8038 0.88557 0.6234 0.0
H3961 H 0.81128 0.85662 0.7407 0.0
H3962 H 0.80996 0.86777 0.71087 0.0
C3963 C 0.80437 0.89288 0.60687 0.0
C3964 C 0.80636 0.85964 0.64131 0.0
H3965 H 0.78346 0.85157 0.67889 0.0
C3966 C 0.82162 0.85427 0.64707 0.0
C3967 C 0.79234 0.85846 0.65285 0.0
C3968 C 0.77524 0.86308 0.64708 0.0
C3969 C 0.82339 0.84815 0.66418 0.0
C3970 C 0.80946 0.84716 0.67577 0.0
C3971 C 0.79417 0.85244 0.67002 0.0
C3972 C 0.81044 0.84048 0.69385 0.0
C3973 C 0.84035 0.84322 0.66992 0.0
C3974 C 0.81108 0.82144 0.69419 0.0
C3975 C 0.81192 0.81513 0.7112 0.0
C3976 C 0.81208 0.82769 0.72818 0.0
C3977 C 0.81145 0.84674 0.72785 0.0
C3978 C 0.81053 0.85305 0.71082 0.0
H3979 H 0.85125 0.84896 0.66171 0.0
H3980 H 0.8447 0.84902 0.68504 0.0
H3981 H 0.83801 0.8273 0.66753 0.0
H3982 H 0.81086 0.81143 0.68128 0.0
H3983 H 0.8128 0.80055 0.71108 0.0
H3984 H 0.80063 0.51232 0.55925 0.0
H3985 H 0.77942 0.53208 0.56115 0.0
H3986 H 0.74258 0.48821 0.5202 0.0
H3987 H 0.76399 0.46848 0.51786 0.0
H3988 H 0.74389 0.52514 0.5147 0.0
H3989 H 0.73574 0.51973 0.58879 0.0
H3990 H 0.75826 0.52952 0.58473 0.0
H3991 H 0.74706 0.50497 0.57418 0.0
C3992 C 0.78806 0.5069 0.55055 0.0
C3993 C 0.78388 0.48874 0.53855 0.0
C3994 C 0.77593 0.51819 0.55172 0.0
C3995 C 0.75928 0.51141 0.54115 0.0
C3996 C 0.75533 0.49363 0.52858 0.0
H3997 H 0.66423 0.54653 0.56409 0.0
H3998 H 0.68803 0.5304 0.55978 0.0
C3999 C 0.76755 0.48238 0.52726 0.0
C4000 C 0.7458 0.52257 0.54366 0.0
H4001 H 0.72171 0.5409 0.57628 0.0
C4002 C 0.73901 0.52861 0.52815 0.0
C4003 C 0.73932 0.52684 0.56119 0.0
C4004 C 0.74532 0.51978 0.57814 0.0
C4005 C 0.72594 0.53888 0.5297 0.0
C4006 C 0.71979 0.54354 0.54734 0.0
C4007 C 0.72659 0.53749 0.56283 0.0
C4008 C 0.70555 0.55367 0.54988 0.0
C4009 C 0.71846 0.54413 0.51235 0.0
C4010 C 0.7076 0.57227 0.54602 0.0
C4011 C 0.69387 0.58147 0.54824 0.0
C4012 C 0.67792 0.57226 0.5545 0.0
C4013 C 0.67618 0.55386 0.55886 0.0
C4014 C 0.68982 0.54467 0.55654 0.0
H4015 H 0.72135 0.53547 0.49937 0.0
H4016 H 0.70387 0.54197 0.51202 0.0
H4017 H 0.72455 0.55958 0.51235 0.0
H4018 H 0.71979 0.57966 0.54126 0.0
H4019 H 0.69562 0.59561 0.54471 0.0
H4020 H 0.26415 0.13336 0.50401 0.0
H4021 H 0.23493 0.11063 0.50111 0.0
H4022 H 0.20999 0.15669 0.49703 0.0
H4023 H 0.23906 0.17936 0.49937 0.0
H4024 H 0.211 0.11129 0.52502 0.0
H4025 H 0.18031 0.11522 0.45608 0.0
H4026 H 0.20377 0.12485 0.46324 0.0
H4027 H 0.18833 0.13873 0.47057 0.0
C4028 C 0.25245 0.13859 0.50214 0.0
C4029 C 0.25398 0.15821 0.50193 0.0
C4030 C 0.23574 0.12557 0.50049 0.0
C4031 C 0.22021 0.13186 0.4986 0.0
C4032 C 0.22171 0.15134 0.49796 0.0
H4033 H 0.12047 0.08861 0.53825 0.0
H4034 H 0.15027 0.10497 0.53284 0.0
C4035 C 0.2384 0.16434 0.49944 0.0
C4036 C 0.20256 0.11854 0.49914 0.0
H4037 H 0.16015 0.10288 0.47751 0.0
C4038 C 0.19996 0.10926 0.51447 0.0
C4039 C 0.18817 0.11559 0.48526 0.0
C4040 C 0.19033 0.12397 0.46776 0.0
C4041 C 0.18326 0.09783 0.51673 0.0
C4042 C 0.1686 0.09601 0.50356 0.0
C4043 C 0.17133 0.10453 0.48776 0.0
C4044 C 0.15026 0.08608 0.50644 0.0
C4045 C 0.18148 0.08786 0.53328 0.0
C4046 C 0.14002 0.07041 0.49305 0.0
C4047 C 0.12277 0.0611 0.49599 0.0
C4048 C 0.11547 0.06729 0.5124 0.0
C4049 C 0.12567 0.08326 0.52556 0.0
C4050 C 0.14282 0.09259 0.52256 0.0
H4051 H 0.19435 0.08553 0.53833 0.0
H4052 H 0.1772 0.09706 0.54496 0.0
H4053 H 0.17148 0.0737 0.52974 0.0
H4054 H 0.14543 0.06529 0.4804 0.0
H4055 H 0.11519 0.04909 0.4854 0.0
H4056 H 0.23206 0.97249 0.73361 0.0
H4057 H 0.24605 0.94577 0.73417 0.0
H4058 H 0.22201 0.93472 0.78406 0.0
H4059 H 0.20765 0.96102 0.78319 0.0
H4060 H 0.26975 0.93709 0.75493 0.0
H4061 H 0.2092 0.8806 0.75828 0.0
H4062 H 0.20826 0.90404 0.75418 0.0
H4063 H 0.2127 0.90041 0.77765 0.0
C4064 C 0.22957 0.96434 0.74469 0.0
C4065 C 0.21835 0.96926 0.75825 0.0
C4066 C 0.23774 0.94884 0.74504 0.0
C4067 C 0.2351 0.93727 0.75891 0.0
C4068 C 0.22412 0.94246 0.77267 0.0
H4069 H 0.27389 0.8365 0.78418 0.0
H4070 H 0.26087 0.8642 0.7848 0.0
C4071 C 0.21591 0.9579 0.77228 0.0
C4072 C 0.24404 0.92037 0.75914 0.0
H4073 H 0.23652 0.87262 0.76379 0.0
C4074 C 0.26229 0.92302 0.75677 0.0
C4075 C 0.23487 0.90153 0.76152 0.0
C4076 C 0.21516 0.89636 0.76286 0.0
C4077 C 0.27137 0.90816 0.75712 0.0
C4078 C 0.26221 0.88936 0.7596 0.0
C4079 C 0.24398 0.88671 0.76199 0.0
C4080 C 0.27108 0.8724 0.75962 0.0
C4081 C 0.29101 0.91316 0.75539 0.0
C4082 C 0.28138 0.86686 0.74531 0.0
C4083 C 0.28901 0.85092 0.74507 0.0
C4084 C 0.28699 0.83974 0.75922 0.0
C4085 C 0.27645 0.84498 0.77335 0.0
C4086 C 0.26877 0.8609 0.77358 0.0
H4087 H 0.29712 0.92889 0.76001 0.0
H4088 H 0.29797 0.90532 0.76378 0.0
H4089 H 0.29318 0.90915 0.7405 0.0
H4090 H 0.28318 0.87453 0.73385 0.0
H4091 H 0.29638 0.84714 0.73351 0.0
H4092 H 0.37438 0.99456 0.02749 0.0
H4093 H 0.40635 1.00616 0.02647 0.0
H4094 H 0.40914 0.94807 1.00495 0.0
H4095 H 0.37719 0.93637 1.00559 0.0
H4096 H 0.43116 0.99487 0.04683 0.0
H4097 H 0.43934 0.97843 0.97125 0.0
H4098 H 0.41813 0.97873 0.97967 0.0
H4099 H 0.4269 0.9581 0.97983 0.0
C4100 C 0.38173 0.98429 0.02222 0.0
C4101 C 0.37323 0.96452 0.01668 0.0
C4102 C 0.4 0.99095 0.02165 0.0
C4103 C 0.41009 0.97801 0.01546 0.0
C4104 C 0.40157 0.95837 0.0094 0.0
H4105 H 0.52331 0.98613 0.02166 0.0
H4106 H 0.49071 0.97492 0.01681 0.0
C4107 C 0.38329 0.95169 0.00991 0.0
C4108 C 0.42968 0.98475 0.01709 0.0
H4109 H 0.4657 0.98654 0.99249 0.0
C4110 C 0.4387 0.99322 0.03492 0.0
C4111 C 0.43948 0.98241 1.00154 0.0
C4112 C 0.43048 0.97408 0.98196 0.0
C4113 C 0.45727 0.99918 0.03769 0.0
C4114 C 0.46706 0.99682 0.02217 0.0
C4115 C 0.4581 0.98831 1.00434 0.0
C4116 C 0.48662 1.0035 0.02426 0.0
C4117 C 0.46628 1.00763 0.05727 0.0
C4118 C 0.49497 0.02321 0.0299 0.0
C4119 C 0.51342 0.02955 0.03268 0.0
C4120 C 0.52385 0.01634 0.02946 0.0
C4121 C 0.5155 0.99658 0.02391 0.0
C4122 C 0.49697 0.99021 0.0211 0.0
H4123 H 0.45721 1.00415 0.06806 0.0
H4124 H 0.47817 1.00224 0.05984 0.0
H4125 H 0.47069 0.02357 0.05901 0.0
H4126 H 0.4872 0.03369 0.0323 0.0
H4127 H 0.51945 0.04476 0.03759 0.0
H4128 H 0.91463 0.59871 0.78472 0.0
H4129 H 0.8969 0.6224 0.78619 0.0
H4130 H 0.87247 0.59625 0.73012 0.0
H4131 H 0.89014 0.57278 0.72843 0.0
H4132 H 0.8852 0.63659 0.73621 0.0
H4133 H 0.84303 0.61265 0.79084 0.0
H4134 H 0.86661 0.61778 0.79672 0.0
H4135 H 0.85568 0.59781 0.77836 0.0
C4136 C 0.90543 0.59799 0.77274 0.0
C4137 C 0.90377 0.58386 0.75647 0.0
C4138 C 0.89527 0.61146 0.77365 0.0
C4139 C 0.88327 0.61092 0.75832 0.0
C4140 C 0.88164 0.59687 0.7421 0.0
H4141 H 0.7956 0.66079 0.74444 0.0
H4142 H 0.81554 0.64009 0.74789 0.0
C4143 C 0.89175 0.58345 0.74118 0.0
C4144 C 0.87264 0.62521 0.75878 0.0
H4145 H 0.83868 0.63964 0.77918 0.0
C4146 C 0.8751 0.63737 0.74568 0.0
C4147 C 0.85939 0.626 0.77105 0.0
C4148 C 0.85585 0.61279 0.78497 0.0
C4149 C 0.86448 0.65016 0.74431 0.0
C4150 C 0.85126 0.65101 0.7566 0.0
C4151 C 0.84891 0.639 0.76986 0.0
C4152 C 0.83923 0.66368 0.75532 0.0
C4153 C 0.86712 0.6622 0.72931 0.0
C4154 C 0.84595 0.68378 0.75859 0.0
C4155 C 0.83464 0.69562 0.75645 0.0
C4156 C 0.81636 0.68756 0.75113 0.0
C4157 C 0.80963 0.66742 0.74826 0.0
C4158 C 0.82097 0.65559 0.75039 0.0
H4159 H 0.87498 0.65669 0.71844 0.0
H4160 H 0.85417 0.66251 0.72241 0.0
H4161 H 0.87439 0.67724 0.73579 0.0
H4162 H 0.85997 0.6903 0.76265 0.0
H4163 H 0.84027 0.71106 0.75861 0.0
H4164 H 0.83731 0.64441 0.04857 0.0
H4165 H 0.86096 0.6279 0.04844 0.0
H4166 H 0.88112 0.65319 1.00228 0.0
H4167 H 0.8575 0.67013 1.00249 0.0
H4168 H 0.86773 0.60126 0.01999 0.0
H4169 H 0.92569 0.6653 0.03931 0.0
H4170 H 0.90321 0.66683 0.04189 0.0
H4171 H 0.91111 0.66502 0.01919 0.0
C4172 C 0.84679 0.64658 0.03841 0.0
C4173 C 0.84551 0.65866 0.02556 0.0
C4174 C 0.86032 0.63709 0.03836 0.0
C4175 C 0.87297 0.63946 0.02551 0.0
C4176 C 0.87173 0.65143 0.01257 0.0
H4177 H 0.96106 0.58406 0.01187 0.0
H4178 H 0.93995 0.60343 0.0077 0.0
C4179 C 0.85815 0.661 0.01262 0.0
C4180 C 0.88701 0.62882 0.02553 0.0
H4181 H 0.9318 0.63472 0.03348 0.0
C4182 C 0.88174 0.6086 0.02287 0.0
C4183 C 0.90531 0.63837 0.0292 0.0
C4184 C 0.91175 0.66008 0.03272 0.0
C4185 C 0.89419 0.5977 0.02403 0.0
C4186 C 0.91243 0.60727 0.02823 0.0
C4187 C 0.9178 0.62744 0.03032 0.0
C4188 C 0.92594 0.59653 0.03131 0.0
C4189 C 0.8877 0.576 0.02077 0.0
C4190 C 0.92537 0.58667 0.04626 0.0
C4191 C 0.93745 0.57574 0.04876 0.0
C4192 C 0.95042 0.5744 0.03637 0.0
C4193 C 0.95134 0.58484 0.02175 0.0
C4194 C 0.93923 0.59585 0.01928 0.0
H4195 H 0.87423 0.57072 0.01298 0.0
H4196 H 0.89691 0.56905 0.01284 0.0
H4197 H 0.88704 0.57137 0.03448 0.0
H4198 H 0.91546 0.58733 0.05595 0.0
H4199 H 0.93658 0.56829 0.06043 0.0
H4200 H 0.23289 0.07153 0.75636 0.0
H4201 H 0.24888 0.10501 0.75645 0.0
H4202 H 0.21912 0.12491 0.80007 0.0
H4203 H 0.20273 0.09163 0.79952 0.0
H4204 H 0.22021 0.14724 0.77677 0.0
H4205 H 0.28932 0.14241 0.78819 0.0
H4206 H 0.27763 0.12591 0.7676 0.0
H4207 H 0.27067 0.12296 0.79026 0.0
C4208 C 0.22995 0.08297 0.76625 0.0
C4209 C 0.21646 0.07851 0.77804 0.0
C4210 C 0.23923 0.10233 0.76635 0.0
C4211 C 0.23564 0.118 0.77849 0.0
C4212 C 0.22239 0.11346 0.79049 0.0
H4213 H 0.30308 0.23878 0.80002 0.0
H4214 H 0.28927 0.20479 0.8006 0.0
C4215 C 0.213 0.09419 0.79025 0.0
C4216 C 0.24485 0.13903 0.77819 0.0
H4217 H 0.28547 0.17117 0.77907 0.0
C4218 C 0.23451 0.15234 0.77735 0.0
C4219 C 0.2636 0.14633 0.77923 0.0
C4220 C 0.27597 0.13371 0.78157 0.0
C4221 C 0.2421 0.17214 0.77731 0.0
C4222 C 0.26078 0.17926 0.77751 0.0
C4223 C 0.27118 0.16604 0.77864 0.0
C4224 C 0.2697 0.20024 0.77683 0.0
C4225 C 0.22986 0.18533 0.77768 0.0
C4226 C 0.26391 0.20948 0.76306 0.0
C4227 C 0.27176 0.22907 0.76281 0.0
C4228 C 0.28595 0.24023 0.77613 0.0
C4229 C 0.29221 0.23085 0.78951 0.0
C4230 C 0.28424 0.21125 0.78985 0.0
H4231 H 0.21744 0.17947 0.78373 0.0
H4232 H 0.23633 0.19995 0.78596 0.0
H4233 H 0.2261 0.18664 0.76315 0.0
H4234 H 0.2533 0.20151 0.7523 0.0
H4235 H 0.26676 0.23543 0.75196 0.0
H4236 H 0.41535 0.01369 0.29933 0.0
H4237 H 0.39904 0.98001 0.29674 0.0
H4238 H 0.35808 0.98799 0.25894 0.0
H4239 H 0.37422 0.0218 0.26149 0.0
H4240 H 0.34556 0.96693 0.28762 0.0
H4241 H 0.39569 0.93843 0.24903 0.0
H4242 H 0.40451 0.95517 0.27057 0.0
H4243 H 0.3948 0.96327 0.25153 0.0
C4244 C 0.40283 1.00836 0.29053 0.0
C4245 C 0.39617 0.02043 0.28049 0.0
C4246 C 0.39358 0.98908 0.28901 0.0
C4247 C 0.37754 0.98149 0.27742 0.0
C4248 C 0.37052 0.9936 0.26787 0.0
H4249 H 0.30492 0.86586 0.24995 0.0
H4250 H 0.31747 0.90091 0.25492 0.0
C4251 C 0.37978 0.0129 0.26934 0.0
C4252 C 0.36827 0.96081 0.27504 0.0
H4253 H 0.37301 0.91565 0.25917 0.0
C4254 C 0.35149 0.95566 0.28136 0.0
C4255 C 0.37603 0.94623 0.26674 0.0
C4256 C 0.39368 0.95098 0.25891 0.0
C4257 C 0.34248 0.93622 0.28019 0.0
C4258 C 0.35038 0.92158 0.27219 0.0
C4259 C 0.36704 0.92683 0.26553 0.0
C4260 C 0.34186 0.9007 0.2706 0.0
C4261 C 0.32485 0.93167 0.28801 0.0
C4262 C 0.35145 0.88885 0.27744 0.0
C4263 C 0.34439 0.8689 0.27435 0.0
C4264 C 0.32746 0.86051 0.26475 0.0
C4265 C 0.31776 0.87223 0.25798 0.0
C4266 C 0.3249 0.89221 0.26089 0.0
H4267 H 0.32347 0.94387 0.29879 0.0
H4268 H 0.31402 0.92891 0.27653 0.0
H4269 H 0.32312 0.91867 0.29431 0.0
H4270 H 0.36462 0.895 0.2848 0.0
H4271 H 0.35235 0.85997 0.27901 0.0
H4272 H 0.61692 0.37705 0.58006 0.0
H4273 H 0.61119 0.405 0.56873 0.0
H4274 H 0.56618 0.40227 0.60043 0.0
H4275 H 0.57188 0.3743 0.6119 0.0
H4276 H 0.55945 0.40798 0.5627 0.0
H4277 H 0.62077 0.46046 0.59974 0.0
H4278 H 0.62403 0.43906 0.58553 0.0
H4279 H 0.61232 0.43718 0.60585 0.0
C4280 C 0.60579 0.38236 0.58468 0.0
C4281 C 0.59494 0.37331 0.59704 0.0
C4282 C 0.60256 0.39848 0.57821 0.0
C4283 C 0.58833 0.40606 0.5838 0.0
C4284 C 0.57728 0.39686 0.59588 0.0
H4285 H 0.56739 0.51702 0.58217 0.0
H4286 H 0.57175 0.48658 0.58862 0.0
C4287 C 0.5806 0.38082 0.60249 0.0
C4288 C 0.58503 0.42355 0.57718 0.0
H4289 H 0.60297 0.47195 0.57947 0.0
C4290 C 0.56904 0.42192 0.56627 0.0
C4291 C 0.5974 0.44192 0.58188 0.0
C4292 C 0.61455 0.44493 0.59401 0.0
C4293 C 0.56519 0.43797 0.55999 0.0
C4294 C 0.57754 0.45632 0.56468 0.0
C4295 C 0.59351 0.45793 0.5756 0.0
C4296 C 0.57359 0.47432 0.55988 0.0
C4297 C 0.5476 0.43542 0.54893 0.0
C4298 C 0.57294 0.4778 0.54142 0.0
C4299 C 0.57051 0.4955 0.53764 0.0
C4300 C 0.56843 0.50998 0.55224 0.0
C4301 C 0.56875 0.50618 0.57054 0.0
C4302 C 0.5713 0.48873 0.57429 0.0
H4303 H 0.53895 0.42054 0.54729 0.0
H4304 H 0.54061 0.44574 0.55605 0.0
H4305 H 0.54983 0.43865 0.53482 0.0
H4306 H 0.57484 0.46708 0.53 0.0
H4307 H 0.57073 0.49805 0.52346 0.0
H4308 H 0.49445 0.81016 0.36361 0.0
H4309 H 0.46711 0.81154 0.34649 0.0
H4310 H 0.43644 0.7731 0.37823 0.0
H4311 H 0.46392 0.77107 0.39496 0.0
H4312 H 0.42234 0.76394 0.34315 0.0
H4313 H 0.43432 0.8429 0.36502 0.0
H4314 H 0.45202 0.83676 0.35288 0.0
H4315 H 0.44788 0.82955 0.37497 0.0
C4316 C 0.4819 0.80193 0.36694 0.0
C4317 C 0.48143 0.7906 0.38079 0.0
C4318 C 0.4662 0.80288 0.35722 0.0
C4319 C 0.44954 0.7929 0.36137 0.0
C4320 C 0.44905 0.78111 0.37483 0.0
H4321 H 0.35175 0.82195 0.32519 0.0
H4322 H 0.37761 0.81791 0.3432 0.0
C4323 C 0.4648 0.77994 0.3844 0.0
C4324 C 0.43273 0.7947 0.35159 0.0
H4325 H 0.41134 0.82764 0.3401 0.0
C4326 C 0.41991 0.77788 0.34261 0.0
C4327 C 0.42921 0.81284 0.3511 0.0
C4328 C 0.44149 0.83151 0.36168 0.0
C4329 C 0.40405 0.7787 0.33285 0.0
C4330 C 0.40102 0.79688 0.33146 0.0
C4331 C 0.41364 0.81367 0.34083 0.0
C4332 C 0.38491 0.79888 0.32049 0.0
C4333 C 0.39054 0.75999 0.32453 0.0
C4334 C 0.3803 0.78976 0.30158 0.0
C4335 C 0.36535 0.79185 0.29133 0.0
C4336 C 0.35478 0.80347 0.29957 0.0
C4337 C 0.35956 0.81289 0.31838 0.0
C4338 C 0.37439 0.81059 0.32871 0.0
H4339 H 0.39197 0.74826 0.33195 0.0
H4340 H 0.37679 0.76155 0.32509 0.0
H4341 H 0.39261 0.75548 0.30968 0.0
H4342 H 0.38842 0.7812 0.29461 0.0
H4343 H 0.36226 0.78462 0.2768 0.0
H4344 H 0.09556 0.77244 0.07324 0.0
H4345 H 0.09333 0.73851 0.05945 0.0
H4346 H 0.05967 0.7202 0.10106 0.0
H4347 H 0.06164 0.75373 0.11468 0.0
H4348 H 0.1038 0.71067 0.0761 0.0
H4349 H 0.03177 0.68623 0.05336 0.0
H4350 H 0.04346 0.71144 0.05964 0.0
H4351 H 0.03657 0.69789 0.07753 0.0
C4352 C 0.08739 0.76118 0.07922 0.0
C4353 C 0.07869 0.76598 0.09504 0.0
C4354 C 0.08623 0.74174 0.07139 0.0
C4355 C 0.07616 0.72662 0.07903 0.0
C4356 C 0.06725 0.73143 0.0946 0.0
H4357 H 0.08421 0.60832 0.07355 0.0
H4358 H 0.08845 0.64342 0.0808 0.0
C4359 C 0.06846 0.75074 0.10245 0.0
C4360 C 0.07548 0.70589 0.07142 0.0
H4361 H 0.04666 0.66149 0.05538 0.0
C4362 C 0.09132 0.69995 0.07137 0.0
C4363 C 0.05925 0.69178 0.06504 0.0
C4364 C 0.04182 0.69716 0.0637 0.0
C4365 C 0.09132 0.68038 0.06574 0.0
C4366 C 0.075 0.66612 0.06021 0.0
C4367 C 0.05922 0.6722 0.05971 0.0
C4368 C 0.0738 0.64487 0.05514 0.0
C4369 C 0.10891 0.67529 0.0657 0.0
C4370 C 0.06392 0.63361 0.03844 0.0
C4371 C 0.06137 0.61349 0.03441 0.0
C4372 C 0.06889 0.60411 0.0468 0.0
C4373 C 0.0788 0.61526 0.06344 0.0
C4374 C 0.08128 0.63539 0.06755 0.0
H4375 H 0.11975 0.68766 0.06378 0.0
H4376 H 0.11224 0.6716 0.07938 0.0
H4377 H 0.10849 0.66275 0.05449 0.0
H4378 H 0.05781 0.64036 0.02865 0.0
H4379 H 0.0531 0.60518 0.02181 0.0
H4380 H 0.07032 0.24924 0.86356 0.0
H4381 H 0.09746 0.25673 0.8483 0.0
H4382 H 0.11269 0.31376 0.88271 0.0
H4383 H 0.0857 0.30613 0.89844 0.0
H4384 H 0.10827 0.28241 0.82746 0.0
H4385 H 0.15827 0.29827 0.88898 0.0
H4386 H 0.13507 0.28735 0.88993 0.0
H4387 H 0.14291 0.31303 0.89166 0.0
C4388 C 0.07947 0.26336 0.86801 0.0
C4389 C 0.07578 0.27705 0.88232 0.0
C4390 C 0.09505 0.26763 0.85923 0.0
C4391 C 0.10741 0.28573 0.86447 0.0
C4392 C 0.1037 0.29951 0.87868 0.0
H4393 H 0.18458 0.33042 0.79102 0.0
H4394 H 0.16033 0.32463 0.81067 0.0
C4395 C 0.08814 0.29518 0.88758 0.0
C4396 C 0.12366 0.29028 0.85442 0.0
H4397 H 0.16906 0.30619 0.86068 0.0
C4398 C 0.12154 0.28756 0.83478 0.0
C4399 C 0.14111 0.29673 0.86381 0.0
C4400 C 0.14454 0.29884 0.88474 0.0
C4401 C 0.13617 0.29129 0.82437 0.0
C4402 C 0.15357 0.29851 0.8338 0.0
C4403 C 0.15577 0.30092 0.85341 0.0
C4404 C 0.16951 0.30356 0.82342 0.0
C4405 C 0.13281 0.28703 0.80328 0.0
C4406 C 0.18345 0.29456 0.82475 0.0
C4407 C 0.19758 0.29809 0.81365 0.0
C4408 C 0.198 0.31066 0.80095 0.0
C4409 C 0.18452 0.32041 0.80042 0.0
C4410 C 0.17056 0.31702 0.81159 0.0
H4411 H 0.11984 0.27642 0.79827 0.0
H4412 H 0.1325 0.30054 0.79834 0.0
H4413 H 0.14342 0.2813 0.79679 0.0
H4414 H 0.18308 0.28424 0.83388 0.0
H4415 H 0.20771 0.29032 0.81436 0.0
H4416 H 0.57011 0.76045 0.91985 0.0
H4417 H 0.55911 0.73823 0.94079 0.0
H4418 H 0.60909 0.75908 0.9756 0.0
H4419 H 0.62006 0.78134 0.95507 0.0
H4420 H 0.5727 0.70897 0.94994 0.0
H4421 H 0.57343 0.7629 0.01365 0.0
H4422 H 0.57475 0.76901 0.99072 0.0
H4423 H 0.5943 0.76737 1.00403 0.0
C4424 C 0.57871 0.76033 0.93202 0.0
C4425 C 0.59593 0.7727 0.93584 0.0
C4426 C 0.57239 0.74768 0.94397 0.0
C4427 C 0.58315 0.74734 0.95996 0.0
C4428 C 0.6004 0.75949 0.96363 0.0
H4429 H 0.59118 0.66094 0.02117 0.0
H4430 H 0.59252 0.68387 1.00022 0.0
C4431 C 0.60669 0.77209 0.95176 0.0
C4432 C 0.57693 0.7336 0.9724 0.0
H4433 H 0.57391 0.73103 0.01842 0.0
C4434 C 0.57265 0.71377 0.96487 0.0
C4435 C 0.57656 0.73988 0.99181 0.0
C4436 C 0.57982 0.76096 1.0005 0.0
C4437 C 0.56913 0.70008 0.97642 0.0
C4438 C 0.57024 0.70644 0.99602 0.0
C4439 C 0.57336 0.72621 1.00342 0.0
C4440 C 0.56941 0.6929 0.0091 0.0
C4441 C 0.56457 0.67893 0.96758 0.0
C4442 C 0.5564 0.69097 0.02159 0.0
C4443 C 0.55564 0.67789 0.03369 0.0
C4444 C 0.56794 0.66662 0.03348 0.0
C4445 C 0.5813 0.66912 0.02137 0.0
C4446 C 0.58205 0.68217 0.00936 0.0
H4447 H 0.55885 0.67637 0.95276 0.0
H4448 H 0.57684 0.67382 0.96775 0.0
H4449 H 0.55498 0.6702 0.97536 0.0
H4450 H 0.54665 0.69931 0.02172 0.0
H4451 H 0.54517 0.67621 0.04281 0.0
H4452 H 0.05022 0.76294 0.72349 0.0
H4453 H 0.07666 0.76163 0.74238 0.0
H4454 H 0.10904 0.78001 0.69974 0.0
H4455 H 0.08286 0.78181 0.68102 0.0
H4456 H 0.09633 0.73734 0.73158 0.0
H4457 H 0.13953 0.81156 0.74627 0.0
H4458 H 0.1162 0.80619 0.73827 0.0
H4459 H 0.13218 0.80388 0.72177 0.0
C4460 C 0.06303 0.76717 0.71834 0.0
C4461 C 0.06442 0.77237 0.70068 0.0
C4462 C 0.07811 0.7664 0.72916 0.0
C4463 C 0.09483 0.77088 0.72256 0.0
C4464 C 0.09635 0.77693 0.70534 0.0
H4465 H 0.18194 0.7221 0.72816 0.0
H4466 H 0.15309 0.72902 0.72353 0.0
C4467 C 0.08131 0.77781 0.69457 0.0
C4468 C 0.11031 0.76695 0.73234 0.0
H4469 H 0.15446 0.78595 0.74625 0.0
C4470 C 0.10896 0.74808 0.73517 0.0
C4471 C 0.1267 0.781 0.73729 0.0
C4472 C 0.12868 0.80184 0.73593 0.0
C4473 C 0.12384 0.74259 0.74169 0.0
C4474 C 0.14055 0.75623 0.74503 0.0
C4475 C 0.14168 0.7754 0.74339 0.0
C4476 C 0.15721 0.75068 0.74894 0.0
C4477 C 0.12155 0.72216 0.74462 0.0
C4478 C 0.16915 0.76066 0.76465 0.0
C4479 C 0.1857 0.75684 0.76721 0.0
C4480 C 0.19059 0.743 0.75406 0.0
C4481 C 0.17841 0.73262 0.73864 0.0
C4482 C 0.16191 0.73653 0.73603 0.0
H4483 H 0.10788 0.71592 0.74786 0.0
H4484 H 0.12377 0.71308 0.73158 0.0
H4485 H 0.13113 0.72143 0.75617 0.0
H4486 H 0.1658 0.77167 0.77474 0.0
H4487 H 0.19481 0.76495 0.7793 0.0
H4488 H 0.10527 0.36293 0.39434 0.0
H4489 H 0.10774 0.39453 0.41395 0.0
H4490 H 0.10759 0.36931 0.46334 0.0
H4491 H 0.10412 0.33762 0.44366 0.0
H4492 H 0.0809 0.38442 0.46048 0.0
H4493 H 0.14112 0.4382 0.44997 0.0
H4494 H 0.1287 0.42531 0.42813 0.0
H4495 H 0.13851 0.41254 0.44311 0.0
C4496 C 0.10652 0.36437 0.40943 0.0
C4497 C 0.1044 0.348 0.41759 0.0
C4498 C 0.108 0.38243 0.42065 0.0
C4499 C 0.10785 0.38429 0.44014 0.0
C4500 C 0.10767 0.36819 0.44834 0.0
H4501 H 0.1024 0.48916 0.5154 0.0
H4502 H 0.11208 0.46178 0.49925 0.0
C4503 C 0.10573 0.35013 0.43713 0.0
C4504 C 0.10425 0.40163 0.4514 0.0
H4505 H 0.11716 0.45084 0.46176 0.0
C4506 C 0.08904 0.39891 0.46097 0.0
C4507 C 0.11482 0.42053 0.45207 0.0
C4508 C 0.13179 0.42432 0.44292 0.0
C4509 C 0.08386 0.41454 0.47084 0.0
C4510 C 0.09386 0.43346 0.47065 0.0
C4511 C 0.10938 0.43627 0.46159 0.0
C4512 C 0.08829 0.45043 0.47983 0.0
C4513 C 0.06775 0.4106 0.48143 0.0
C4514 C 0.07176 0.45314 0.4741 0.0
C4515 C 0.06605 0.46857 0.48347 0.0
C4516 C 0.07693 0.48176 0.49848 0.0
C4517 C 0.09363 0.47918 0.50396 0.0
C4518 C 0.09927 0.46365 0.49467 0.0
H4519 H 0.06475 0.39583 0.48457 0.0
H4520 H 0.06963 0.42117 0.4948 0.0
H4521 H 0.05606 0.41181 0.47276 0.0
H4522 H 0.06321 0.4432 0.46247 0.0
H4523 H 0.05307 0.47008 0.47901 0.0
H4524 H 0.46375 0.25813 0.22977 0.0
H4525 H 0.43702 0.26455 0.24207 0.0
H4526 H 0.4329 0.30001 0.20123 0.0
H4527 H 0.45993 0.29386 0.18892 0.0
H4528 H 0.4279 0.31662 0.23717 0.0
H4529 H 0.38651 0.24159 0.21678 0.0
H4530 H 0.40626 0.24316 0.23146 0.0
H4531 H 0.40791 0.24931 0.20864 0.0
C4532 C 0.45718 0.26729 0.22336 0.0
C4533 C 0.4639 0.27541 0.20829 0.0
C4534 C 0.44184 0.27084 0.23035 0.0
C4535 C 0.43282 0.28244 0.22232 0.0
C4536 C 0.43963 0.29089 0.20751 0.0
H4537 H 0.33782 0.3191 0.25084 0.0
H4538 H 0.3653 0.31616 0.23789 0.0
C4539 C 0.45505 0.28737 0.20051 0.0
C4540 C 0.41646 0.28596 0.22972 0.0
H4541 H 0.37537 0.26295 0.23901 0.0
C4542 C 0.4163 0.30494 0.23739 0.0
C4543 C 0.4014 0.27067 0.22998 0.0
C4544 C 0.40045 0.25007 0.22111 0.0
C4545 C 0.40167 0.30899 0.24595 0.0
C4546 C 0.38674 0.29364 0.24661 0.0
C4547 C 0.38683 0.2747 0.2386 0.0
C4548 C 0.37083 0.29676 0.25549 0.0
C4549 C 0.40269 0.32954 0.25491 0.0
C4550 C 0.3646 0.28661 0.2695 0.0
C4551 C 0.34874 0.2881 0.27674 0.0
C4552 C 0.33898 0.29993 0.27028 0.0
C4553 C 0.34537 0.31036 0.25652 0.0
C4554 C 0.36111 0.3087 0.24911 0.0
H4555 H 0.41658 0.33864 0.25751 0.0
H4556 H 0.39509 0.33591 0.24553 0.0
H4557 H 0.39686 0.33003 0.26838 0.0
H4558 H 0.3718 0.27717 0.27451 0.0
H4559 H 0.3439 0.27971 0.28713 0.0
H4560 H 0.62795 0.55583 0.32982 0.0
H4561 H 0.61572 0.55724 0.36014 0.0
H4562 H 0.64057 0.51347 0.37238 0.0
H4563 H 0.65292 0.51213 0.34214 0.0
H4564 H 0.59288 0.53263 0.37653 0.0
H4565 H 0.6571 0.5518 0.4205 0.0
H4566 H 0.6557 0.5522 0.3958 0.0
H4567 H 0.6537 0.52976 0.40372 0.0
C4568 C 0.63089 0.54645 0.3389 0.0
C4569 C 0.64165 0.53389 0.33313 0.0
C4570 C 0.62378 0.54727 0.35645 0.0
C4571 C 0.62726 0.53576 0.36928 0.0
C4572 C 0.63782 0.523 0.36339 0.0
H4573 H 0.56496 0.51477 0.46656 0.0
H4574 H 0.57703 0.51267 0.43627 0.0
C4575 C 0.64484 0.52209 0.34579 0.0
C4576 C 0.61975 0.53699 0.38844 0.0
H4577 H 0.63127 0.54378 0.43607 0.0
C4578 C 0.6014 0.53505 0.38948 0.0
C4579 C 0.63049 0.54047 0.40584 0.0
C4580 C 0.65035 0.54388 0.40652 0.0
C4581 C 0.59368 0.53609 0.40678 0.0
C4582 C 0.60435 0.539 0.42413 0.0
C4583 C 0.62275 0.54131 0.42313 0.0
C4584 C 0.59681 0.54009 0.44328 0.0
C4585 C 0.57405 0.53455 0.40625 0.0
C4586 C 0.60391 0.55583 0.45829 0.0
C4587 C 0.59685 0.55709 0.47587 0.0
C4588 C 0.5824 0.5426 0.47944 0.0
C4589 C 0.57566 0.52659 0.46459 0.0
C4590 C 0.58265 0.52538 0.44698 0.0
H4591 H 0.5688 0.53807 0.39317 0.0
H4592 H 0.56691 0.51952 0.40678 0.0
H4593 H 0.57107 0.54434 0.41838 0.0
H4594 H 0.61486 0.56745 0.45635 0.0
H4595 H 0.60275 0.56964 0.48668 0.0
H4596 H 0.30154 0.89012 0.0593 0.0
H4597 H 0.30447 0.87519 0.08642 0.0
H4598 H 0.33176 0.9308 0.11971 0.0
H4599 H 0.32837 0.94592 0.09282 0.0
H4600 H 0.33591 0.87484 0.10171 0.0
H4601 H 0.30114 0.90834 0.15681 0.0
H4602 H 0.29764 0.9102 0.13258 0.0
H4603 H 0.31655 0.92603 0.14752 0.0
C4604 C 0.30776 0.89924 0.07253 0.0
C4605 C 0.31484 0.91917 0.07391 0.0
C4606 C 0.30941 0.89069 0.08802 0.0
C4607 C 0.31824 0.90188 0.10513 0.0
C4608 C 0.32453 0.92193 0.1068 0.0
H4609 H 0.37759 0.87811 0.19682 0.0
H4610 H 0.36399 0.89255 0.17373 0.0
C4611 C 0.32269 0.93054 0.09136 0.0
C4612 C 0.32303 0.89229 0.12028 0.0
H4613 H 0.32273 0.89259 0.16714 0.0
C4614 C 0.33275 0.87852 0.11594 0.0
C4615 C 0.31901 0.89717 0.13887 0.0
C4616 C 0.30786 0.9111 0.14419 0.0
C4617 C 0.33899 0.8699 0.12977 0.0
C4618 C 0.33542 0.8752 0.1484 0.0
C4619 C 0.32547 0.88869 0.15279 0.0
C4620 C 0.34246 0.86712 0.16347 0.0
C4621 C 0.34979 0.85556 0.12455 0.0
C4622 C 0.33466 0.84816 0.16533 0.0
C4623 C 0.34242 0.83985 0.17837 0.0
C4624 C 0.35814 0.85039 0.18969 0.0
C4625 C 0.36564 0.86958 0.18808 0.0
C4626 C 0.35782 0.87789 0.17508 0.0
H4627 H 0.35279 0.85436 0.10976 0.0
H4628 H 0.36248 0.85979 0.13382 0.0
H4629 H 0.34236 0.84112 0.12659 0.0
H4630 H 0.32283 0.83966 0.15637 0.0
H4631 H 0.3364 0.825 0.17919 0.0
H4632 H 0.96048 0.57517 0.84246 0.0
H4633 H 0.97522 0.58214 0.87457 0.0
H4634 H 0.01594 0.55542 0.85473 0.0
H4635 H 1.00139 0.54836 0.82289 0.0
H4636 H 0.98129 0.55111 0.89225 0.0
H4637 H 0.04376 0.60641 0.8903 0.0
H4638 H 0.02438 0.60223 0.87378 0.0
H4639 H 0.03873 0.58627 0.87098 0.0
C4640 C 0.97275 0.57113 0.84495 0.0
C4641 C 0.97974 0.56113 0.83024 0.0
C4642 C 0.98113 0.57511 0.86323 0.0
C4643 C 0.99676 0.5695 0.8669 0.0
C4644 C 1.00407 0.56018 0.85211 0.0
H4645 H 0.06259 0.55285 0.95775 0.0
H4646 H 0.04965 0.55734 0.92787 0.0
C4647 C 0.99564 0.55601 0.83396 0.0
C4648 C 1.00443 0.5712 0.88628 0.0
H4649 H 0.04283 0.58933 0.9156 0.0
C4650 C 0.99462 0.55972 0.89754 0.0
C4651 C 0.0219 0.58223 0.89291 0.0
C4652 C 0.03279 0.59512 0.88144 0.0
C4653 C 1.0021 0.55833 0.91502 0.0
C4654 C 0.0197 0.56916 0.92158 0.0
C4655 C 0.02936 0.58103 0.9105 0.0
C4656 C 0.02835 0.56795 0.93976 0.0
C4657 C 0.99135 0.54459 0.92589 0.0
C4658 C 0.02094 0.57295 0.95632 0.0
C4659 C 0.02811 0.57017 0.97325 0.0
C4660 C 0.04303 0.56264 0.974 0.0
C4661 C 0.05102 0.55857 0.95756 0.0
C4662 C 0.04368 0.56115 0.94053 0.0
H4663 H 0.98019 0.53377 0.91682 0.0
H4664 H 0.99977 0.53681 0.93261 0.0
H4665 H 0.98563 0.55287 0.93705 0.0
H4666 H 0.0094 0.5787 0.95609 0.0
H4667 H 0.02185 0.57384 0.98574 0.0
H4668 H 0.32009 0.21043 0.58193 0.0
H4669 H 0.3192 0.22541 0.61432 0.0
H4670 H 0.29812 0.26927 0.59561 0.0
H4671 H 0.29866 0.25414 0.56296 0.0
H4672 H 0.33523 0.26148 0.63451 0.0
H4673 H 0.26188 0.24848 0.63001 0.0
H4674 H 0.27293 0.23714 0.61202 0.0
H4675 H 0.27245 0.26189 0.61346 0.0
C4676 C 0.31534 0.22333 0.58462 0.0
C4677 C 0.30935 0.23098 0.56974 0.0
C4678 C 0.31484 0.23188 0.60321 0.0
C4679 C 0.30828 0.24826 0.60745 0.0
C4680 C 0.30286 0.25638 0.5927 0.0
H4681 H 0.32366 0.31132 0.72397 0.0
H4682 H 0.32197 0.30434 0.68965 0.0
C4683 C 0.30334 0.24781 0.57402 0.0
C4684 C 0.30716 0.25661 0.62737 0.0
H4685 H 0.27801 0.26499 0.65904 0.0
C4686 C 0.32274 0.26239 0.63984 0.0
C4687 C 0.29081 0.25758 0.63438 0.0
C4688 C 0.27352 0.25081 0.62185 0.0
C4689 C 0.32242 0.26882 0.65909 0.0
C4690 C 0.30609 0.26991 0.6661 0.0
C4691 C 0.29053 0.26435 0.65362 0.0
C4692 C 0.30486 0.27549 0.6865 0.0
C4693 C 0.33948 0.27365 0.67187 0.0
C4694 C 0.29509 0.26199 0.69609 0.0
C4695 C 0.29587 0.26608 0.71564 0.0
C4696 C 0.30603 0.28392 0.72588 0.0
C4697 C 0.31527 0.2977 0.71629 0.0
C4698 C 0.31449 0.29362 0.69673 0.0
H4699 H 0.34989 0.26788 0.66496 0.0
H4700 H 0.34459 0.28956 0.6759 0.0
H4701 H 0.33725 0.26779 0.68485 0.0
H4702 H 0.2876 0.24789 0.68852 0.0
H4703 H 0.28906 0.25505 0.72282 0.0
H4704 H 0.6669 0.51107 0.2044 0.0
H4705 H 0.65244 0.51414 0.1748 0.0
H4706 H 0.6103 0.53028 0.20375 0.0
H4707 H 0.62513 0.52793 0.23354 0.0
H4708 H 0.62435 0.498 0.15285 0.0
H4709 H 0.61727 0.57192 0.17537 0.0
H4710 H 0.62975 0.5611 0.18997 0.0
H4711 H 0.60591 0.55574 0.18922 0.0
C4712 C 0.65452 0.51525 0.20463 0.0
C4713 C 0.64744 0.51923 0.22187 0.0
C4714 C 0.64614 0.51707 0.18742 0.0
C4715 C 0.6302 0.523 0.18644 0.0
C4716 C 0.62281 0.52639 0.2036 0.0
H4717 H 0.56119 0.53371 0.0862 0.0
H4718 H 0.57237 0.53172 0.11814 0.0
C4719 C 0.63128 0.52474 0.22087 0.0
C4720 C 0.62143 0.52516 0.16757 0.0
H4721 H 0.60274 0.55516 0.14548 0.0
C4722 C 0.61975 0.51062 0.15146 0.0
C4723 C 0.61511 0.54149 0.16497 0.0
C4724 C 0.61724 0.55853 0.18073 0.0
C4725 C 0.61213 0.5118 0.13355 0.0
C4726 C 0.60586 0.52808 0.13098 0.0
C4727 C 0.60727 0.54253 0.14706 0.0
C4728 C 0.59884 0.53066 0.11163 0.0
C4729 C 0.61067 0.49526 0.11742 0.0
C4730 C 0.60978 0.53134 0.09695 0.0
C4731 C 0.60347 0.53279 0.07881 0.0
C4732 C 0.5859 0.53376 0.07426 0.0
C4733 C 0.57487 0.53339 0.08897 0.0
C4734 C 0.58131 0.53211 0.10736 0.0
H4735 H 0.61129 0.48181 0.12235 0.0
H4736 H 0.59809 0.49242 0.10821 0.0
H4737 H 0.62188 0.49899 0.10895 0.0
H4738 H 0.62337 0.53061 0.09947 0.0
H4739 H 0.61246 0.53288 0.06807 0.0
H4740 H 0.31185 0.86862 0.97533 0.0
H4741 H 0.30401 0.84985 0.94361 0.0
H4742 H 0.27698 0.89113 0.92883 0.0
H4743 H 0.28511 0.91036 0.96067 0.0
H4744 H 0.27263 0.8327 0.91948 0.0
H4745 H 0.31683 0.8936 0.89441 0.0
H4746 H 0.31636 0.89275 0.91893 0.0
H4747 H 0.29873 0.89898 0.90648 0.0
C4748 C 0.30402 0.87362 0.96545 0.0
C4749 C 0.29937 0.89116 0.9704 0.0
C4750 C 0.29946 0.86279 0.94733 0.0
C4751 C 0.29019 0.86928 0.93382 0.0
C4752 C 0.2844 0.88607 0.93902 0.0
H4753 H 0.27034 0.80555 0.81708 0.0
H4754 H 0.26478 0.81989 0.84833 0.0
C4755 C 0.289 0.89699 0.95721 0.0
C4756 C 0.28844 0.85945 0.91402 0.0
H4757 H 0.30516 0.86496 0.8726 0.0
C4758 C 0.27948 0.83978 0.9091 0.0
C4759 C 0.29762 0.86873 0.90064 0.0
C4760 C 0.30805 0.88963 0.90531 0.0
C4761 C 0.27996 0.82899 0.89129 0.0
C4762 C 0.28953 0.8382 0.87814 0.0
C4763 C 0.29788 0.858 0.88281 0.0
C4764 C 0.29228 0.82746 0.85991 0.0
C4765 C 0.27101 0.80767 0.88695 0.0
C4766 C 0.30954 0.82679 0.8562 0.0
C4767 C 0.31279 0.81871 0.83841 0.0
C4768 C 0.29882 0.8112 0.82395 0.0
C4769 C 0.28139 0.81113 0.82793 0.0
C4770 C 0.27816 0.81928 0.84578 0.0
H4771 H 0.26652 0.80218 0.89961 0.0
H4772 H 0.25926 0.80487 0.87656 0.0
H4773 H 0.28016 0.79942 0.8807 0.0
H4774 H 0.3206 0.83303 0.86697 0.0
H4775 H 0.32635 0.81897 0.83586 0.0
H4776 H 1.0037 0.56809 0.75609 0.0
H4777 H 0.02845 0.57038 0.73699 0.0
H4778 H 0.99153 0.54909 0.68702 0.0
H4779 H 0.9667 0.54738 0.70601 0.0
H4780 H 0.0352 0.54012 0.71692 0.0
H4781 H 0.02764 0.58967 0.66953 0.0
H4782 H 0.01601 0.58852 0.69013 0.0
H4783 H 0.00727 0.57157 0.66857 0.0
C4784 C 1.00085 0.56429 0.741 0.0
C4785 C 0.98325 0.5574 0.73253 0.0
C4786 C 0.01502 0.56568 0.73011 0.0
C4787 C 0.01188 0.56011 0.71056 0.0
C4788 C 0.99431 0.55398 0.70203 0.0
H4789 H 0.05211 0.49951 0.62571 0.0
H4790 H 0.03739 0.51519 0.65004 0.0
C4791 C 0.9801 0.55283 0.71292 0.0
C4792 C 0.02674 0.55797 0.69937 0.0
H4793 H 0.04312 0.56521 0.65812 0.0
C4794 C 0.03727 0.5461 0.70436 0.0
C4795 C 0.02955 0.56583 0.68303 0.0
C4796 C 0.01962 0.57978 0.67764 0.0
C4797 C 0.04956 0.54074 0.69273 0.0
C4798 C 0.05125 0.5473 0.6757 0.0
C4799 C 0.04167 0.56018 0.67124 0.0
C4800 C 0.06062 0.53843 0.66117 0.0
C4801 C 0.05985 0.52706 0.69804 0.0
C4802 C 0.07861 0.54632 0.65965 0.0
C4803 C 0.08712 0.53732 0.64576 0.0
C4804 C 0.07764 0.52045 0.63326 0.0
C4805 C 0.05969 0.51256 0.63509 0.0
C4806 C 0.05126 0.52149 0.64891 0.0
H4807 H 0.0587 0.52516 0.71274 0.0
H4808 H 0.05477 0.51276 0.68863 0.0
H4809 H 0.07409 0.53245 0.6962 0.0
H4810 H 0.08597 0.55941 0.66911 0.0
H4811 H 0.10091 0.5438 0.64445 0.0
H4812 H 0.31268 0.21623 0.45072 0.0
H4813 H 0.31328 0.22983 0.42228 0.0
H4814 H 0.29451 0.27697 0.45089 0.0
H4815 H 0.29286 0.26272 0.47892 0.0
H4816 H 0.27728 0.26557 0.4189 0.0
H4817 H 0.34742 0.27215 0.40693 0.0
H4818 H 0.33629 0.24766 0.40735 0.0
H4819 H 0.33893 0.26603 0.42812 0.0
C4820 C 0.30891 0.22963 0.45099 0.0
C4821 C 0.3028 0.23845 0.4671 0.0
C4822 C 0.30937 0.23751 0.43472 0.0
C4823 C 0.30429 0.25473 0.43438 0.0
C4824 C 0.29852 0.26371 0.45066 0.0
H4825 H 0.325 0.31742 0.34249 0.0
H4826 H 0.32568 0.30647 0.37223 0.0
C4827 C 0.29765 0.25559 0.46675 0.0
C4828 C 0.30399 0.26285 0.41687 0.0
H4829 H 0.32826 0.27472 0.38116 0.0
C4830 C 0.28853 0.26772 0.41079 0.0
C4831 C 0.3187 0.26606 0.40627 0.0
C4832 C 0.33632 0.2629 0.41262 0.0
C4833 C 0.28727 0.27538 0.39447 0.0
C4834 C 0.30158 0.27747 0.38327 0.0
C4835 C 0.31714 0.2729 0.38949 0.0
C4836 C 0.30079 0.2845 0.3652 0.0
C4837 C 0.27075 0.28166 0.38981 0.0
C4838 C 0.28659 0.27591 0.35114 0.0
C4839 C 0.28593 0.28252 0.33425 0.0
C4840 C 0.29979 0.2974 0.33062 0.0
C4841 C 0.3141 0.30586 0.34464 0.0
C4842 C 0.31454 0.29954 0.36171 0.0
H4843 H 0.26429 0.28548 0.40258 0.0
H4844 H 0.27372 0.2943 0.38285 0.0
H4845 H 0.26106 0.26956 0.3803 0.0
H4846 H 0.276 0.26395 0.35312 0.0
H4847 H 0.27453 0.27587 0.32405 0.0
H4848 H 0.34598 0.62716 0.49414 0.0
H4849 H 0.36587 0.60771 0.4819 0.0
H4850 H 0.35456 0.57385 0.5248 0.0
H4851 H 0.33465 0.59293 0.53694 0.0
H4852 H 0.39587 0.60485 0.50141 0.0
H4853 H 0.35014 0.53232 0.4784 0.0
H4854 H 0.34244 0.554 0.48262 0.0
H4855 H 0.34737 0.54284 0.50179 0.0
C4856 C 0.34755 0.61539 0.50078 0.0
C4857 C 0.33877 0.6116 0.51653 0.0
C4858 C 0.35888 0.60429 0.49376 0.0
C4859 C 0.36144 0.58912 0.50224 0.0
C4860 C 0.35244 0.58514 0.51774 0.0
H4861 H 0.44779 0.54482 0.52482 0.0
H4862 H 0.42447 0.56152 0.52244 0.0
C4863 C 0.34118 0.59622 0.52477 0.0
C4864 C 0.37481 0.57864 0.4963 0.0
H4865 H 0.38102 0.5333 0.48636 0.0
C4866 C 0.39258 0.58923 0.49771 0.0
C4867 C 0.37049 0.55827 0.4912 0.0
C4868 C 0.35154 0.54622 0.48821 0.0
C4869 C 0.40627 0.57992 0.49552 0.0
C4870 C 0.40205 0.55954 0.49209 0.0
C4871 C 0.38422 0.54895 0.48928 0.0
C4872 C 0.416 0.54911 0.49319 0.0
C4873 C 0.42518 0.59199 0.49747 0.0
C4874 C 0.41857 0.53612 0.47765 0.0
C4875 C 0.43198 0.52655 0.47894 0.0
C4876 C 0.44292 0.52976 0.49584 0.0
C4877 C 0.43989 0.54237 0.51148 0.0
C4878 C 0.42657 0.55192 0.51016 0.0
H4879 H 0.42585 0.60654 0.49437 0.0
H4880 H 0.43116 0.5939 0.51208 0.0
H4881 H 0.43326 0.58487 0.48798 0.0
H4882 H 0.4104 0.53365 0.46448 0.0
H4883 H 0.43404 0.51698 0.46664 0.0
H4884 H 0.87904 0.91638 0.53631 0.0
H4885 H 0.9097 0.93487 0.53703 0.0
H4886 H 0.89448 0.9878 0.55423 0.0
H4887 H 0.86357 0.96937 0.55351 0.0
H4888 H 0.91645 0.98782 0.52413 0.0
H4889 H 0.94446 0.96299 0.58417 0.0
H4890 H 0.93131 0.94375 0.56628 0.0
H4891 H 0.92099 0.9606 0.57934 0.0
C4892 C 0.88215 0.93195 0.5403 0.0
C4893 C 0.8688 0.94138 0.54491 0.0
C4894 C 0.89973 0.94249 0.54082 0.0
C4895 C 0.9044 0.96266 0.54597 0.0
C4896 C 0.89114 0.9722 0.55036 0.0
H4897 H 0.0151 0.03165 0.56474 0.0
H4898 H 0.98388 0.01824 0.56859 0.0
C4899 C 0.8735 0.96165 0.54994 0.0
C4900 C 0.92307 0.97368 0.54614 0.0
H4901 H 0.96526 0.97854 0.56538 0.0
C4902 C 0.92712 0.98597 0.53328 0.0
C4903 C 0.93692 0.97141 0.55824 0.0
C4904 C 0.93324 0.95912 0.57292 0.0
C4905 C 0.94475 0.99541 0.53167 0.0
C4906 C 0.95866 0.99233 0.5431 0.0
C4907 C 0.95457 0.98071 0.55651 0.0
C4908 C 0.97756 1.00047 0.54084 0.0
C4909 C 0.94839 1.00853 0.51768 0.0
C4910 C 0.9844 0.99463 0.5241 0.0
C4911 C 1.00219 1.00223 0.52185 0.0
C4912 C 0.01351 0.01587 0.5363 0.0
C4913 C 1.0067 0.02139 0.55323 0.0
C4914 C 0.98888 0.0137 0.55549 0.0
H4915 H 0.93647 0.01329 0.51363 0.0
H4916 H 0.95944 0.02148 0.52338 0.0
H4917 H 0.95227 1.00064 0.50485 0.0
H4918 H 0.97596 0.98413 0.51277 0.0
H4919 H 0.00698 0.99755 0.50867 0.0
H4920 H 0.9132 0.14502 0.2863 0.0
H4921 H 0.89884 0.17166 0.28714 0.0
H4922 H 0.86433 0.14013 0.2377 0.0
H4923 H 0.87863 0.1135 0.23685 0.0
H4924 H 0.89571 0.19675 0.26478 0.0
H4925 H 0.82715 0.1551 0.26826 0.0
H4926 H 0.84597 0.14528 0.27144 0.0
H4927 H 0.83674 0.14541 0.24827 0.0
C4928 C 0.90249 0.14358 0.27559 0.0
C4929 C 0.89725 0.12659 0.26155 0.0
C4930 C 0.89418 0.15907 0.27606 0.0
C4931 C 0.87995 0.15837 0.26271 0.0
C4932 C 0.87479 0.14142 0.24861 0.0
H4933 H 0.84398 0.25781 0.23443 0.0
H4934 H 0.85632 0.23036 0.23635 0.0
C4935 C 0.88321 0.126 0.24804 0.0
C4936 C 0.871 0.17534 0.26329 0.0
H4937 H 0.83053 0.187 0.26255 0.0
C4938 C 0.88144 0.19441 0.26434 0.0
C4939 C 0.85227 0.17311 0.26298 0.0
C4940 C 0.83986 0.15368 0.26286 0.0
C4941 C 0.87398 0.21056 0.26453 0.0
C4942 C 0.85525 0.20824 0.26366 0.0
C4943 C 0.8448 0.18929 0.26313 0.0
C4944 C 0.84655 0.22509 0.26252 0.0
C4945 C 0.88641 0.23025 0.26585 0.0
C4946 C 0.83621 0.23183 0.27632 0.0
C4947 C 0.82905 0.24805 0.27531 0.0
C4948 C 0.8315 0.25792 0.26015 0.0
C4949 C 0.84152 0.25082 0.24632 0.0
C4950 C 0.84879 0.23494 0.24744 0.0
H4951 H 0.90013 0.23075 0.27131 0.0
H4952 H 0.88683 0.23387 0.25169 0.0
H4953 H 0.88176 0.24146 0.27506 0.0
H4954 H 0.834 0.22482 0.28821 0.0
H4955 H 0.82178 0.25297 0.28651 0.0
H4956 H 0.76246 0.10793 0.03392 0.0
H4957 H 0.73087 0.09435 0.03607 0.0
H4958 H 0.71751 0.13487 1.00468 0.0
H4959 H 0.74885 0.14833 1.00223 0.0
H4960 H 0.70795 0.11433 0.05288 0.0
H4961 H 0.6838 0.08371 0.9782 0.0
H4962 H 0.70703 0.09028 0.98693 0.0
H4963 H 0.69634 0.10848 0.98219 0.0
C4964 C 0.75278 0.11375 0.02722 0.0
C4965 C 0.7582 0.12921 0.01789 0.0
C4966 C 0.73476 0.106 0.02851 0.0
C4967 C 0.72186 0.11347 0.02035 0.0
C4968 C 0.72721 0.12864 0.01075 0.0
H4969 H 0.61258 0.1097 0.037 0.0
H4970 H 0.64501 0.11929 0.03688 0.0
C4971 C 0.74518 0.13639 0.00947 0.0
C4972 C 0.70289 0.10632 0.02284 0.0
H4973 H 0.66171 0.08718 0.99886 0.0
C4974 C 0.69784 0.10836 0.04108 0.0
C4975 C 0.68977 0.09827 0.00743 0.0
C4976 C 0.69449 0.09486 0.98759 0.0
C4977 C 0.67992 0.1031 0.04427 0.0
C4978 C 0.6668 0.09563 0.02884 0.0
C4979 C 0.67185 0.09313 0.01064 0.0
C4980 C 0.6477 0.09004 0.03119 0.0
C4981 C 0.67516 0.1048 0.06407 0.0
C4982 C 0.63863 0.07049 0.0281 0.0
C4983 C 0.62023 0.06503 0.02813 0.0
C4984 C 0.61059 0.07904 0.0314 0.0
C4985 C 0.61975 0.09864 0.03475 0.0
C4986 C 0.6382 0.10411 0.03473 0.0
H4987 H 0.68665 0.11297 0.07443 0.0
H4988 H 0.66419 0.11195 0.06591 0.0
H4989 H 0.67057 0.09005 0.06701 0.0
H4990 H 0.64573 0.05944 0.0251 0.0
H4991 H 0.6136 0.04986 0.02489 0.0
H4992 H 0.2325 0.49622 0.25613 0.0
H4993 H 0.23863 0.47103 0.27161 0.0
H4994 H 0.20006 0.47958 0.30992 0.0
H4995 H 0.19399 0.50511 0.29463 0.0
H4996 H 0.23128 0.47727 0.32769 0.0
H4997 H 0.20786 0.4164 0.26762 0.0
H4998 H 0.22368 0.43614 0.26152 0.0
H4999 H 0.20265 0.43933 0.26828 0.0
C5000 C 0.22527 0.49275 0.26782 0.0
C5001 C 0.21271 0.50263 0.2741 0.0
C5002 C 0.22869 0.47821 0.27656 0.0
C5003 C 0.21952 0.47313 0.29165 0.0
C5004 C 0.20715 0.48315 0.29816 0.0
H5005 H 0.23887 0.3714 0.33077 0.0
H5006 H 0.22235 0.39374 0.32175 0.0
C5007 C 0.20373 0.49774 0.28943 0.0
C5008 C 0.2235 0.45789 0.301 0.0
H5009 H 0.22774 0.41173 0.29194 0.0
C5010 C 0.23022 0.46283 0.31997 0.0
C5011 C 0.22174 0.43892 0.29105 0.0
C5012 C 0.2134 0.43231 0.27105 0.0
C5013 C 0.23636 0.4497 0.3289 0.0
C5014 C 0.23603 0.4313 0.31848 0.0
C5015 C 0.22819 0.42592 0.29988 0.0
C5016 C 0.24535 0.41823 0.3259 0.0
C5017 C 0.24345 0.4558 0.34932 0.0
C5018 C 0.26369 0.42459 0.33124 0.0
C5019 C 0.27307 0.41194 0.33639 0.0
C5020 C 0.26433 0.3926 0.33619 0.0
C5021 C 0.24588 0.3863 0.33127 0.0
C5022 C 0.23647 0.399 0.32604 0.0
H5023 H 0.23721 0.46676 0.35666 0.0
H5024 H 0.24114 0.4433 0.35651 0.0
H5025 H 0.25795 0.46243 0.35052 0.0
H5026 H 0.2709 0.4392 0.3308 0.0
H5027 H 0.28727 0.41717 0.34017 0.0
H5028 H 0.27061 0.44861 0.00918 0.0
H5029 H 0.248 0.46529 1.0021 0.0
H5030 H 0.24043 0.47664 0.0607 0.0
H5031 H 0.26386 0.46127 0.06788 0.0
H5032 H 0.21499 0.46025 1.00435 0.0
H5033 H 0.2469 0.52937 0.05218 0.0
H5034 H 0.25781 0.51019 0.04762 0.0
H5035 H 0.24215 0.51007 0.06484 0.0
C5036 C 0.26417 0.45479 0.02053 0.0
C5037 C 0.26918 0.4539 0.0391 0.0
C5038 C 0.2512 0.4643 0.01649 0.0
C5039 C 0.24274 0.47281 0.03091 0.0
C5040 C 0.24719 0.47102 0.04937 0.0
H5041 H 0.14557 0.50813 1.00288 0.0
H5042 H 0.1662 0.49052 0.01274 0.0
C5043 C 0.2605 0.46204 0.05346 0.0
C5044 C 0.22924 0.48338 0.02662 0.0
H5045 H 0.21701 0.52532 0.03999 0.0
C5046 C 0.21554 0.47455 0.01207 0.0
C5047 C 0.22996 0.50222 0.03642 0.0
C5048 C 0.24511 0.51358 0.05097 0.0
C5049 C 0.20267 0.48391 0.00706 0.0
C5050 C 0.2029 0.50235 0.01749 0.0
C5051 C 0.21657 0.51112 0.03208 0.0
C5052 C 0.18989 0.51339 0.01285 0.0
C5053 C 0.18946 0.47417 0.99015 0.0
C5054 C 0.19603 0.53266 0.01086 0.0
C5055 C 0.18419 0.54313 0.0061 0.0
C5056 C 0.16577 0.53453 1.00271 0.0
C5057 C 0.15957 0.5154 1.00533 0.0
C5058 C 0.17145 0.50508 0.0106 0.0
H5059 H 0.19449 0.46356 0.98055 0.0
H5060 H 0.17702 0.46618 0.99478 0.0
H5061 H 0.18634 0.48482 0.98217 0.0
H5062 H 0.21011 0.53964 0.01274 0.0
H5063 H 0.1896 0.55799 1.00496 0.0
H5064 H 0.92083 0.01435 0.29194 0.0
H5065 H 0.90354 0.98147 0.29105 0.0
H5066 H 0.86232 0.98998 0.25408 0.0
H5067 H 0.87986 0.02321 0.25471 0.0
H5068 H 0.87198 0.96587 0.30166 0.0
H5069 H 0.86853 0.93997 0.22514 0.0
H5070 H 0.88288 0.96288 0.2369 0.0
H5071 H 0.85956 0.96036 0.2316 0.0
C5072 C 0.90807 1.00943 0.28358 0.0
C5073 C 0.90197 0.02184 0.27334 0.0
C5074 C 0.89809 0.99037 0.2831 0.0
C5075 C 0.88157 0.98264 0.27222 0.0
C5076 C 0.87515 0.9951 0.26228 0.0
H5077 H 0.80902 0.86394 0.25264 0.0
H5078 H 0.82265 0.89809 0.25269 0.0
C5079 C 0.88516 0.01434 0.26282 0.0
C5080 C 0.87133 0.96177 0.27168 0.0
H5081 H 0.85312 0.91785 0.24244 0.0
C5082 C 0.86789 0.95545 0.28864 0.0
C5083 C 0.86575 0.94778 0.25483 0.0
C5084 C 0.86947 0.95296 0.23607 0.0
C5085 C 0.85916 0.93606 0.28924 0.0
C5086 C 0.85391 0.92195 0.27243 0.0
C5087 C 0.85706 0.92832 0.25543 0.0
C5088 C 0.84544 0.90066 0.27226 0.0
C5089 C 0.8553 0.93106 0.30805 0.0
C5090 C 0.85358 0.89002 0.28288 0.0
C5091 C 0.84565 0.87041 0.28301 0.0
C5092 C 0.82927 0.86046 0.27241 0.0
C5093 C 0.82136 0.87094 0.26136 0.0
C5094 C 0.8293 0.89062 0.26126 0.0
H5095 H 0.85468 0.94396 0.31838 0.0
H5096 H 0.84256 0.9199 0.30699 0.0
H5097 H 0.86612 0.92539 0.31353 0.0
H5098 H 0.86624 0.89686 0.29108 0.0
H5099 H 0.85246 0.86306 0.29155 0.0
H5100 H 0.72418 0.09173 0.78264 0.0
H5101 H 0.74229 0.12501 0.78883 0.0
H5102 H 0.77294 0.11099 0.74373 0.0
H5103 H 0.75485 0.07746 0.73737 0.0
H5104 H 0.78187 0.14229 0.79539 0.0
H5105 H 0.74768 0.15324 0.73041 0.0
H5106 H 0.73876 0.13316 0.7415 0.0
H5107 H 0.75761 0.13323 0.72862 0.0
C5108 C 0.73492 0.09561 0.77417 0.0
C5109 C 0.73794 0.08199 0.75935 0.0
C5110 C 0.74531 0.11462 0.77781 0.0
C5111 C 0.75883 0.12042 0.76666 0.0
C5112 C 0.7625 0.10673 0.75244 0.0
H5113 H 0.82434 0.24092 0.78992 0.0
H5114 H 0.81552 0.20548 0.78472 0.0
C5115 C 0.75217 0.0876 0.74885 0.0
C5116 C 0.76772 0.14118 0.76885 0.0
H5117 H 0.7669 0.18025 0.7495 0.0
C5118 C 0.77893 0.15066 0.78524 0.0
C5119 C 0.76356 0.15196 0.75568 0.0
C5120 C 0.75117 0.14251 0.73808 0.0
C5121 C 0.78593 0.1708 0.78896 0.0
C5122 C 0.78161 0.18167 0.77584 0.0
C5123 C 0.77053 0.172 0.75937 0.0
C5124 C 0.7874 0.2031 0.77916 0.0
C5125 C 0.79727 0.18015 0.80724 0.0
C5126 C 0.7747 0.21358 0.77724 0.0
C5127 C 0.77986 0.23359 0.77932 0.0
C5128 C 0.79779 0.24355 0.78342 0.0
C5129 C 0.81048 0.23334 0.78618 0.0
C5130 C 0.80539 0.21317 0.78353 0.0
H5131 H 0.7943 0.17113 0.81805 0.0
H5132 H 0.81144 0.18181 0.80497 0.0
H5133 H 0.7954 0.19462 0.81273 0.0
H5134 H 0.76072 0.20626 0.7741 0.0
H5135 H 0.76982 0.24133 0.77785 0.0
loop_
_geom_bond_atom_site_label_1
_geom_bond_atom_site_label_2
_geom_bond_distance
_geom_bond_site_symmetry_2
_ccdc_geom_bond_type
O0 Cd1 2.223 . S
O0 C8 1.315 . S
Cd1 O0 2.223 . S
Cd1 O4 2.297 . S
Cd1 O5 2.439 . S
Cd1 O11 2.240 . S
Cd2 O3 2.240 . S
Cd2 O10 2.223 . S
Cd2 O12 2.297 . S
Cd2 O13 2.439 . S
O3 Cd2 2.240 . S
O3 C8 1.279 . S
O4 Cd1 2.297 . S
O4 C6 1.247 . S
O5 Cd1 2.439 . S
O5 C6 1.208 . S
C6 O4 1.247 . S
C6 O5 1.208 . S
C7 O12 1.247 . S
C7 O13 1.208 . S
C8 O0 1.315 . S
C8 O3 1.279 . S
C9 O10 1.315 . S
C9 O11 1.279 . S
O10 Cd2 2.223 . S
O10 C9 1.315 . S
O11 Cd1 2.240 . S
O11 C9 1.279 . S
O12 Cd2 2.297 . S
O12 C7 1.247 . S
O13 Cd2 2.439 . S
O13 C7 1.208 . S
O14 Cd15 2.237 . S
O14 C22 1.319 . S
Cd15 O14 2.237 . S
Cd15 O18 2.297 . S
Cd15 O19 2.439 . S
Cd15 O25 2.240 1_655 S
Cd16 O17 2.240 1_455 S
Cd16 O24 2.223 . S
Cd16 O26 2.297 . S
Cd16 O27 2.459 . S
O17 Cd16 2.240 1_655 S
O17 C22 1.279 . S
O18 Cd15 2.297 . S
O18 C20 1.247 . S
O19 Cd15 2.439 . S
O19 C20 1.208 . S
C20 O18 1.247 . S
C20 O19 1.208 . S
C21 O26 1.247 . S
C21 O27 1.231 . S
C22 O14 1.319 . S
C22 O17 1.279 . S
C23 O24 1.315 . S
C23 O25 1.279 . S
O24 Cd16 2.223 . S
O24 C23 1.315 . S
O25 Cd15 2.240 1_455 S
O25 C23 1.279 . S
O26 Cd16 2.297 . S
O26 C21 1.247 . S
O27 Cd16 2.459 . S
O27 C21 1.231 . S
O28 Cd29 2.223 . S
O28 C36 1.315 . S
Cd29 O28 2.223 . S
Cd29 O32 2.297 . S
Cd29 O33 2.439 . S
Cd29 O39 2.240 . S
Cd30 O31 2.240 . S
Cd30 O38 2.223 . S
Cd30 O40 2.297 . S
Cd30 O41 2.439 . S
O31 Cd30 2.240 . S
O31 C36 1.279 . S
O32 Cd29 2.297 . S
O32 C34 1.247 . S
O33 Cd29 2.439 . S
O33 C34 1.208 . S
C34 O32 1.247 . S
C34 O33 1.208 . S
C35 O40 1.247 . S
C35 O41 1.208 . S
C36 O28 1.315 . S
C36 O31 1.279 . S
C37 O38 1.315 . S
C37 O39 1.279 . S
O38 Cd30 2.223 . S
O38 C37 1.315 . S
O39 Cd29 2.240 . S
O39 C37 1.279 . S
O40 Cd30 2.297 . S
O40 C35 1.247 . S
O41 Cd30 2.439 . S
O41 C35 1.208 . S
O42 Cd43 2.223 . S
O42 C50 1.315 . S
Cd43 O42 2.223 . S
Cd43 O46 2.297 . S
Cd43 O47 2.439 . S
Cd43 O53 2.240 . S
Cd44 O45 2.240 . S
Cd44 O52 2.223 . S
Cd44 O54 2.297 . S
Cd44 O55 2.439 . S
O45 Cd44 2.240 . S
O45 C50 1.279 . S
O46 Cd43 2.297 . S
O46 C48 1.247 . S
O47 Cd43 2.439 . S
O47 C48 1.208 . S
C48 O46 1.247 . S
C48 O47 1.208 . S
C49 O54 1.247 . S
C49 O55 1.208 . S
C50 O42 1.315 . S
C50 O45 1.279 . S
C51 O52 1.315 . S
C51 O53 1.279 . S
O52 Cd44 2.223 . S
O52 C51 1.315 . S
O53 Cd43 2.240 . S
O53 C51 1.279 . S
O54 Cd44 2.297 . S
O54 C49 1.247 . S
O55 Cd44 2.439 . S
O55 C49 1.208 . S
O56 Cd57 2.223 . S
O56 C64 1.315 . S
Cd57 O56 2.223 . S
Cd57 O60 2.297 . S
Cd57 O61 2.439 . S
Cd57 O67 2.240 . S
Cd58 O59 2.240 . S
Cd58 O66 2.223 . S
Cd58 O68 2.297 . S
Cd58 O69 2.439 . S
O59 Cd58 2.240 . S
O59 C64 1.279 . S
O60 Cd57 2.297 . S
O60 C62 1.247 . S
O61 Cd57 2.439 . S
O61 C62 1.208 . S
C62 O60 1.247 . S
C62 O61 1.208 . S
C63 O68 1.247 . S
C63 O69 1.208 . S
C64 O56 1.315 . S
C64 O59 1.279 . S
C65 O66 1.315 . S
C65 O67 1.279 . S
O66 Cd58 2.223 . S
O66 C65 1.315 . S
O67 Cd57 2.240 . S
O67 C65 1.279 . S
O68 Cd58 2.297 . S
O68 C63 1.247 . S
O69 Cd58 2.439 . S
O69 C63 1.208 . S
O70 Cd71 2.223 . S
O70 C78 1.315 . S
Cd71 O70 2.223 . S
Cd71 O74 2.297 . S
Cd71 O75 2.439 . S
Cd71 O81 2.240 . S
Cd72 O73 2.240 . S
Cd72 O80 2.223 . S
Cd72 O82 2.297 . S
Cd72 O83 2.439 . S
O73 Cd72 2.240 . S
O73 C78 1.279 . S
O74 Cd71 2.297 . S
O74 C76 1.247 . S
O75 Cd71 2.439 . S
O75 C76 1.208 . S
C76 O74 1.247 . S
C76 O75 1.208 . S
C77 O82 1.247 . S
C77 O83 1.208 . S
C78 O70 1.315 . S
C78 O73 1.279 . S
C79 O80 1.315 . S
C79 O81 1.279 . S
O80 Cd72 2.223 . S
O80 C79 1.315 . S
O81 Cd71 2.240 . S
O81 C79 1.279 . S
O82 Cd72 2.297 . S
O82 C77 1.247 . S
O83 Cd72 2.439 . S
O83 C77 1.208 . S
O84 Cd85 2.223 . S
O84 C92 1.315 . S
Cd85 O84 2.223 . S
Cd85 O88 2.297 . S
Cd85 O89 2.439 . S
Cd85 O95 2.240 . S
Cd86 O87 2.240 . S
Cd86 O94 2.223 . S
Cd86 O96 2.297 . S
Cd86 O97 2.439 . S
O87 Cd86 2.240 . S
O87 C92 1.279 . S
O88 Cd85 2.297 . S
O88 C90 1.247 . S
O89 Cd85 2.439 . S
O89 C90 1.208 . S
C90 O88 1.247 . S
C90 O89 1.208 . S
C91 O96 1.247 . S
C91 O97 1.208 . S
C92 O84 1.315 . S
C92 O87 1.279 . S
C93 O94 1.315 . S
C93 O95 1.279 . S
O94 Cd86 2.223 . S
O94 C93 1.315 . S
O95 Cd85 2.240 . S
O95 C93 1.279 . S
O96 Cd86 2.297 . S
O96 C91 1.247 . S
O97 Cd86 2.439 . S
O97 C91 1.208 . S
O98 Cd99 2.223 . S
O98 C106 1.315 . S
Cd99 O98 2.223 . S
Cd99 O102 2.297 . S
Cd99 O103 2.439 . S
Cd99 O109 2.240 . S
Cd100 O101 2.240 . S
Cd100 O108 2.223 1_455 S
Cd100 O110 2.297 . S
Cd100 O111 2.439 . S
O101 Cd100 2.240 . S
O101 C106 1.279 . S
O102 Cd99 2.297 . S
O102 C104 1.247 . S
O103 Cd99 2.439 . S
O103 C104 1.208 . S
C104 O102 1.247 . S
C104 O103 1.208 . S
C105 O110 1.247 . S
C105 O111 1.208 . S
C106 O98 1.315 . S
C106 O101 1.279 . S
C107 O108 1.315 . S
C107 O109 1.279 1_655 S
O108 Cd100 2.223 1_655 S
O108 C107 1.315 . S
O109 Cd99 2.240 . S
O109 C107 1.279 1_455 S
O110 Cd100 2.297 . S
O110 C105 1.247 . S
O111 Cd100 2.439 . S
O111 C105 1.208 . S
O112 Cd113 2.223 . S
O112 C120 1.315 . S
Cd113 O112 2.223 . S
Cd113 O116 2.297 . S
Cd113 O117 2.439 . S
Cd113 O123 2.240 . S
Cd114 O115 2.240 . S
Cd114 O122 2.223 . S
Cd114 O124 2.297 . S
Cd114 O125 2.439 . S
O115 Cd114 2.240 . S
O115 C120 1.279 . S
O116 Cd113 2.297 . S
O116 C118 1.247 . S
O117 Cd113 2.439 . S
O117 C118 1.208 . S
C118 O116 1.247 . S
C118 O117 1.208 . S
C119 O124 1.247 . S
C119 O125 1.208 . S
C120 O112 1.315 . S
C120 O115 1.279 . S
C121 O122 1.315 . S
C121 O123 1.279 . S
O122 Cd114 2.223 . S
O122 C121 1.315 . S
O123 Cd113 2.240 . S
O123 C121 1.279 . S
O124 Cd114 2.297 . S
O124 C119 1.247 . S
O125 Cd114 2.439 . S
O125 C119 1.208 . S
O126 Cd127 2.223 . S
O126 C134 1.315 . S
Cd127 O126 2.223 . S
Cd127 O130 2.297 . S
Cd127 O131 2.439 . S
Cd127 O137 2.240 . S
Cd128 O129 2.240 . S
Cd128 O136 2.223 . S
Cd128 O138 2.297 . S
Cd128 O139 2.439 . S
O129 Cd128 2.240 . S
O129 C134 1.279 . S
O130 Cd127 2.297 . S
O130 C132 1.247 . S
O131 Cd127 2.439 . S
O131 C132 1.208 . S
C132 O130 1.247 . S
C132 O131 1.208 . S
C133 O138 1.247 . S
C133 O139 1.208 . S
C134 O126 1.315 . S
C134 O129 1.279 . S
C135 O136 1.315 . S
C135 O137 1.279 . S
O136 Cd128 2.223 . S
O136 C135 1.315 . S
O137 Cd127 2.240 . S
O137 C135 1.279 . S
O138 Cd128 2.297 . S
O138 C133 1.247 . S
O139 Cd128 2.439 . S
O139 C133 1.208 . S
O140 Cd141 2.223 1_545 S
O140 C148 1.315 1_545 S
Cd141 O140 2.223 1_565 S
Cd141 O144 2.297 . S
Cd141 O145 2.439 . S
Cd141 O151 2.240 1_565 S
Cd142 O143 2.240 1_545 S
Cd142 O150 2.223 . S
Cd142 O152 2.297 . S
Cd142 O153 2.439 1_545 S
O143 Cd142 2.240 1_565 S
O143 C148 1.279 . S
O144 Cd141 2.297 . S
O144 C146 1.247 . S
O145 Cd141 2.439 . S
O145 C146 1.208 . S
C146 O144 1.247 . S
C146 O145 1.208 . S
C147 O152 1.247 . S
C147 O153 1.208 1_545 S
C148 O140 1.315 1_565 S
C148 O143 1.279 . S
C149 O150 1.315 . S
C149 O151 1.279 . S
O150 Cd142 2.223 . S
O150 C149 1.315 . S
O151 Cd141 2.240 1_545 S
O151 C149 1.279 . S
O152 Cd142 2.297 . S
O152 C147 1.247 . S
O153 Cd142 2.439 1_565 S
O153 C147 1.208 1_565 S
O154 Cd155 2.223 . S
O154 C162 1.315 . S
Cd155 O154 2.223 . S
Cd155 O158 2.297 . S
Cd155 O159 2.439 . S
Cd155 O165 2.240 . S
Cd156 O157 2.240 1_556 S
Cd156 O164 2.223 1_556 S
Cd156 O166 2.297 . S
Cd156 O167 2.439 . S
O157 Cd156 2.240 1_554 S
O157 C162 1.279 . S
O158 Cd155 2.297 . S
O158 C160 1.247 . S
O159 Cd155 2.439 . S
O159 C160 1.208 . S
C160 O158 1.247 . S
C160 O159 1.208 . S
C161 O166 1.247 . S
C161 O167 1.208 . S
C162 O154 1.315 . S
C162 O157 1.279 . S
C163 O164 1.315 . S
C163 O165 1.279 . S
O164 Cd156 2.223 1_554 S
O164 C163 1.315 . S
O165 Cd155 2.240 . S
O165 C163 1.279 . S
O166 Cd156 2.297 . S
O166 C161 1.247 . S
O167 Cd156 2.439 . S
O167 C161 1.208 . S
O168 Cd169 2.223 . S
O168 C176 1.315 . S
Cd169 O168 2.223 . S
Cd169 O172 2.297 . S
Cd169 O173 2.439 . S
Cd169 O179 2.240 . S
Cd170 O171 2.240 . S
Cd170 O178 2.223 . S
Cd170 O180 2.297 1_554 S
Cd170 O181 2.439 1_554 S
O171 Cd170 2.240 . S
O171 C176 1.279 . S
O172 Cd169 2.297 . S
O172 C174 1.247 . S
O173 Cd169 2.439 . S
O173 C174 1.208 . S
C174 O172 1.247 . S
C174 O173 1.208 . S
C175 O180 1.247 . S
C175 O181 1.208 . S
C176 O168 1.315 . S
C176 O171 1.279 . S
C177 O178 1.315 . S
C177 O179 1.279 . S
O178 Cd170 2.223 . S
O178 C177 1.315 . S
O179 Cd169 2.240 . S
O179 C177 1.279 . S
O180 Cd170 2.297 1_556 S
O180 C175 1.247 . S
O181 Cd170 2.439 1_556 S
O181 C175 1.208 . S
O182 Cd183 2.223 . S
O182 C190 1.315 . S
Cd183 O182 2.223 . S
Cd183 O186 2.297 . S
Cd183 O187 2.439 . S
Cd183 O193 2.240 . S
Cd184 O185 2.240 . S
Cd184 O192 2.223 . S
Cd184 O194 2.297 1_554 S
Cd184 O195 2.439 1_554 S
O185 Cd184 2.240 . S
O185 C190 1.279 . S
O186 Cd183 2.297 . S
O186 C188 1.247 . S
O187 Cd183 2.439 . S
O187 C188 1.208 . S
C188 O186 1.247 . S
C188 O187 1.208 . S
C189 O194 1.247 . S
C189 O195 1.208 . S
C190 O182 1.315 . S
C190 O185 1.279 . S
C191 O192 1.315 . S
C191 O193 1.279 . S
O192 Cd184 2.223 . S
O192 C191 1.315 . S
O193 Cd183 2.240 . S
O193 C191 1.279 . S
O194 Cd184 2.297 1_556 S
O194 C189 1.247 . S
O195 Cd184 2.439 1_556 S
O195 C189 1.208 . S
O196 Cd197 2.223 . S
O196 C204 1.315 . S
Cd197 O196 2.223 . S
Cd197 O200 2.297 . S
Cd197 O201 2.439 . S
Cd197 O207 2.240 . S
Cd198 O199 2.240 . S
Cd198 O206 2.223 . S
Cd198 O208 2.297 . S
Cd198 O209 2.439 . S
O199 Cd198 2.240 . S
O199 C204 1.279 . S
O200 Cd197 2.297 . S
O200 C202 1.247 . S
O201 Cd197 2.439 . S
O201 C202 1.208 . S
C202 O200 1.247 . S
C202 O201 1.208 . S
C203 O208 1.247 . S
C203 O209 1.208 . S
C204 O196 1.315 . S
C204 O199 1.279 . S
C205 O206 1.315 . S
C205 O207 1.279 . S
O206 Cd198 2.223 . S
O206 C205 1.315 . S
O207 Cd197 2.240 . S
O207 C205 1.279 . S
O208 Cd198 2.297 . S
O208 C203 1.247 . S
O209 Cd198 2.439 . S
O209 C203 1.208 . S
O210 Cd211 2.223 . S
O210 C218 1.315 . S
Cd211 O210 2.223 . S
Cd211 O214 2.297 . S
Cd211 O215 2.439 . S
Cd211 O221 2.240 . S
Cd212 O213 2.240 . S
Cd212 O220 2.223 . S
Cd212 O222 2.297 . S
Cd212 O223 2.439 . S
O213 Cd212 2.240 . S
O213 C218 1.279 . S
O214 Cd211 2.297 . S
O214 C216 1.247 . S
O215 Cd211 2.439 . S
O215 C216 1.208 . S
C216 O214 1.247 . S
C216 O215 1.208 . S
C217 O222 1.247 . S
C217 O223 1.208 . S
C218 O210 1.315 . S
C218 O213 1.279 . S
C219 O220 1.315 . S
C219 O221 1.279 . S
O220 Cd212 2.223 . S
O220 C219 1.315 . S
O221 Cd211 2.240 . S
O221 C219 1.279 . S
O222 Cd212 2.297 . S
O222 C217 1.247 . S
O223 Cd212 2.439 . S
O223 C217 1.208 . S
O224 Cd225 2.223 . S
O224 C232 1.315 . S
Cd225 O224 2.223 . S
Cd225 O228 2.297 . S
Cd225 O229 2.439 . S
Cd225 O235 2.240 . S
Cd226 O227 2.240 . S
Cd226 O234 2.223 . S
Cd226 O236 2.297 . S
Cd226 O237 2.439 . S
O227 Cd226 2.240 . S
O227 C232 1.279 . S
O228 Cd225 2.297 . S
O228 C230 1.247 . S
O229 Cd225 2.439 . S
O229 C230 1.208 . S
C230 O228 1.247 . S
C230 O229 1.208 . S
C231 O236 1.247 . S
C231 O237 1.208 . S
C232 O224 1.315 . S
C232 O227 1.279 . S
C233 O234 1.315 . S
C233 O235 1.279 . S
O234 Cd226 2.223 . S
O234 C233 1.315 . S
O235 Cd225 2.240 . S
O235 C233 1.279 . S
O236 Cd226 2.297 . S
O236 C231 1.247 . S
O237 Cd226 2.439 . S
O237 C231 1.208 . S
O238 Cd239 2.223 . S
O238 C246 1.315 . S
Cd239 O238 2.223 . S
Cd239 O242 2.297 . S
Cd239 O243 2.439 . S
Cd239 O249 2.240 . S
Cd240 O241 2.240 . S
Cd240 O248 2.223 . S
Cd240 O250 2.297 . S
Cd240 O251 2.439 . S
O241 Cd240 2.240 . S
O241 C246 1.279 . S
O242 Cd239 2.297 . S
O242 C244 1.247 . S
O243 Cd239 2.439 . S
O243 C244 1.208 . S
C244 O242 1.247 . S
C244 O243 1.208 . S
C245 O250 1.247 . S
C245 O251 1.208 . S
C246 O238 1.315 . S
C246 O241 1.279 . S
C247 O248 1.315 . S
C247 O249 1.279 . S
O248 Cd240 2.223 . S
O248 C247 1.315 . S
O249 Cd239 2.240 . S
O249 C247 1.279 . S
O250 Cd240 2.297 . S
O250 C245 1.247 . S
O251 Cd240 2.439 . S
O251 C245 1.208 . S
O252 Cd253 2.223 . S
O252 C260 1.315 . S
Cd253 O252 2.223 . S
Cd253 O256 2.297 . S
Cd253 O257 2.439 . S
Cd253 O263 2.240 . S
Cd254 O255 2.240 . S
Cd254 O262 2.223 . S
Cd254 O264 2.297 . S
Cd254 O265 2.439 . S
O255 Cd254 2.240 . S
O255 C260 1.279 . S
O256 Cd253 2.297 . S
O256 C258 1.247 . S
O257 Cd253 2.439 . S
O257 C258 1.208 . S
C258 O256 1.247 . S
C258 O257 1.208 . S
C259 O264 1.247 . S
C259 O265 1.208 . S
C260 O252 1.315 . S
C260 O255 1.279 . S
C261 O262 1.315 . S
C261 O263 1.279 . S
O262 Cd254 2.223 . S
O262 C261 1.315 . S
O263 Cd253 2.240 . S
O263 C261 1.279 . S
O264 Cd254 2.297 . S
O264 C259 1.247 . S
O265 Cd254 2.439 . S
O265 C259 1.208 . S
O266 Cd267 2.223 . S
O266 C274 1.315 . S
Cd267 O266 2.223 . S
Cd267 O270 2.297 . S
Cd267 O271 2.439 . S
Cd267 O277 2.240 . S
Cd268 O269 2.240 . S
Cd268 O276 2.223 . S
Cd268 O278 2.297 . S
Cd268 O279 2.439 . S
O269 Cd268 2.240 . S
O269 C274 1.279 . S
O270 Cd267 2.297 . S
O270 C272 1.247 . S
O271 Cd267 2.439 . S
O271 C272 1.208 . S
C272 O270 1.247 . S
C272 O271 1.208 . S
C273 O278 1.247 . S
C273 O279 1.208 . S
C274 O266 1.315 . S
C274 O269 1.279 . S
C275 O276 1.315 . S
C275 O277 1.279 . S
O276 Cd268 2.223 . S
O276 C275 1.315 . S
O277 Cd267 2.240 . S
O277 C275 1.279 . S
O278 Cd268 2.297 . S
O278 C273 1.247 . S
O279 Cd268 2.439 . S
O279 C273 1.208 . S
O280 Cd281 2.223 . S
O280 C288 1.315 . S
Cd281 O280 2.223 . S
Cd281 O284 2.297 . S
Cd281 O285 2.439 1_554 S
Cd281 O291 2.240 1_554 S
Cd282 O283 2.240 1_556 S
Cd282 O290 2.223 1_556 S
Cd282 O292 2.297 . S
Cd282 O293 2.439 . S
O283 Cd282 2.240 1_554 S
O283 C288 1.279 . S
O284 Cd281 2.297 . S
O284 C286 1.247 . S
O285 Cd281 2.439 1_556 S
O285 C286 1.208 1_556 S
C286 O284 1.247 . S
C286 O285 1.208 1_554 S
C287 O292 1.247 . S
C287 O293 1.208 . S
C288 O280 1.315 . S
C288 O283 1.279 . S
C289 O290 1.315 1_556 S
C289 O291 1.301 . S
O290 Cd282 2.223 1_554 S
O290 C289 1.315 1_554 S
O291 Cd281 2.240 1_556 S
O291 C289 1.301 . S
O292 Cd282 2.297 . S
O292 C287 1.247 . S
O293 Cd282 2.439 . S
O293 C287 1.208 . S
O294 Cd295 2.223 . S
O294 C302 1.315 . S
Cd295 O294 2.223 . S
Cd295 O298 2.297 . S
Cd295 O299 2.439 . S
Cd295 O305 2.240 . S
Cd296 O297 2.240 . S
Cd296 O304 2.223 . S
Cd296 O306 2.297 . S
Cd296 O307 2.439 . S
O297 Cd296 2.240 . S
O297 C302 1.279 . S
O298 Cd295 2.297 . S
O298 C300 1.247 . S
O299 Cd295 2.439 . S
O299 C300 1.208 . S
C300 O298 1.247 . S
C300 O299 1.208 . S
C301 O306 1.247 . S
C301 O307 1.208 . S
C302 O294 1.315 . S
C302 O297 1.279 . S
C303 O304 1.315 . S
C303 O305 1.279 . S
O304 Cd296 2.223 . S
O304 C303 1.315 . S
O305 Cd295 2.240 . S
O305 C303 1.279 . S
O306 Cd296 2.297 . S
O306 C301 1.247 . S
O307 Cd296 2.439 . S
O307 C301 1.208 . S
O308 Cd309 2.223 . S
O308 C316 1.315 . S
Cd309 O308 2.223 . S
Cd309 O312 2.297 . S
Cd309 O313 2.439 . S
Cd309 O319 2.240 . S
Cd310 O311 2.240 . S
Cd310 O318 2.223 . S
Cd310 O320 2.297 . S
Cd310 O321 2.439 . S
O311 Cd310 2.240 . S
O311 C316 1.279 . S
O312 Cd309 2.297 . S
O312 C314 1.247 . S
O313 Cd309 2.439 . S
O313 C314 1.208 . S
C314 O312 1.247 . S
C314 O313 1.208 . S
C315 O320 1.247 . S
C315 O321 1.208 . S
C316 O308 1.315 . S
C316 O311 1.279 . S
C317 O318 1.315 . S
C317 O319 1.279 . S
O318 Cd310 2.223 . S
O318 C317 1.315 . S
O319 Cd309 2.240 . S
O319 C317 1.279 . S
O320 Cd310 2.297 . S
O320 C315 1.247 . S
O321 Cd310 2.439 . S
O321 C315 1.208 . S
O322 Cd323 2.223 . S
O322 C330 1.315 . S
Cd323 O322 2.223 . S
Cd323 O326 2.297 . S
Cd323 O327 2.439 . S
Cd323 O333 2.240 . S
Cd324 O325 2.240 . S
Cd324 O332 2.223 . S
Cd324 O334 2.297 . S
Cd324 O335 2.439 . S
O325 Cd324 2.240 . S
O325 C330 1.279 . S
O326 Cd323 2.297 . S
O326 C328 1.247 . S
O327 Cd323 2.439 . S
O327 C328 1.208 . S
C328 O326 1.247 . S
C328 O327 1.208 . S
C329 O334 1.247 . S
C329 O335 1.208 . S
C330 O322 1.315 . S
C330 O325 1.279 . S
C331 O332 1.315 . S
C331 O333 1.279 . S
O332 Cd324 2.223 . S
O332 C331 1.315 . S
O333 Cd323 2.240 . S
O333 C331 1.279 . S
O334 Cd324 2.297 . S
O334 C329 1.247 . S
O335 Cd324 2.439 . S
O335 C329 1.208 . S
Gd336 N367 2.661 . S
Gd336 N373 2.601 . S
Gd336 O380 2.545 . S
Gd336 O381 2.606 . S
Gd336 O383 2.429 . S
Gd336 O384 2.545 . S
Gd336 O385 2.412 . S
Gd336 O387 2.362 . S
Gd336 O388 2.324 . S
Gd336 C395 2.828 . S
Gd337 N346 2.661 . S
Gd337 N350 2.601 1_554 S
Gd337 O381 2.362 . S
Gd337 O382 2.324 . S
Gd337 O386 2.545 1_554 S
Gd337 O387 2.606 . S
Gd337 O389 2.429 1_554 S
Gd337 O390 2.545 . S
Gd337 O391 2.475 . S
Gd337 C404 2.828 1_455 S
C338 C341 1.411 1_655 S
C338 C343 1.437 . S
C338 C344 1.415 1_655 S
C339 C342 1.437 . S
C339 C343 1.317 1_556 S
C339 H358 0.929 . S
C340 C341 1.426 1_556 S
C340 C342 1.413 1_455 S
C340 N350 1.359 1_565 S
C341 C338 1.411 1_455 S
C341 C340 1.426 1_554 S
C341 N346 1.350 1_565 S
C342 C339 1.437 . S
C342 C340 1.413 1_655 S
C342 C352 1.391 . S
C343 C338 1.437 . S
C343 C339 1.317 1_554 S
C343 H354 0.930 . S
C344 C338 1.415 1_455 S
C344 C345 1.363 . S
C344 H356 0.922 1_455 S
C345 C344 1.363 . S
C345 C347 1.402 1_565 S
C345 H357 0.930 . S
N346 Gd337 2.661 . S
N346 C341 1.350 1_545 S
N346 C347 1.307 . S
C347 C345 1.402 1_545 S
C347 N346 1.307 . S
C347 H348 0.930 . S
H348 C347 0.930 . S
C349 N350 1.334 . S
C349 C351 1.394 1_545 S
C349 H353 0.930 . S
N350 Gd337 2.601 1_556 S
N350 C340 1.359 1_545 S
N350 C349 1.334 . S
C351 C349 1.394 1_565 S
C351 C352 1.359 1_455 S
C351 H363 0.930 . S
C352 C342 1.391 . S
C352 C351 1.359 1_655 S
C352 H364 0.929 . S
H353 C349 0.930 . S
H354 C343 0.930 . S
H355 C372 0.930 1_556 S
H356 C344 0.922 1_655 S
H357 C345 0.930 . S
H358 C339 0.929 . S
H359 C377 0.930 . S
H360 C368 0.955 . S
H361 C369 0.930 . S
H362 C393 0.929 . S
H363 C351 0.930 . S
H364 C352 0.929 . S
H365 C394 0.930 . S
H366 C375 0.930 . S
N367 Gd336 2.661 . S
N367 C371 1.350 . S
N367 C372 1.307 . S
C368 H360 0.955 . S
C368 C369 1.355 1_554 S
C368 C370 1.412 . S
C369 H361 0.930 . S
C369 C368 1.355 1_556 S
C369 C372 1.402 1_556 S
C370 C368 1.412 . S
C370 C371 1.417 . S
C370 C394 1.431 . S
C371 N367 1.350 . S
C371 C370 1.417 . S
C371 C374 1.426 . S
C372 H355 0.930 1_554 S
C372 N367 1.307 . S
C372 C369 1.402 1_554 S
N373 Gd336 2.601 . S
N373 C374 1.359 . S
N373 C377 1.334 . S
C374 C371 1.426 . S
C374 N373 1.359 . S
C374 C378 1.413 . S
C375 H366 0.930 . S
C375 C376 1.359 . S
C375 C377 1.394 . S
C376 C375 1.359 . S
C376 C378 1.391 . S
C376 H379 0.929 . S
C377 H359 0.930 . S
C377 N373 1.334 . S
C377 C375 1.394 . S
C378 C374 1.413 . S
C378 C376 1.391 . S
C378 C393 1.437 . S
H379 C376 0.929 . S
O380 Gd336 2.545 . S
O380 C395 1.258 . S
O381 Gd336 2.606 . S
O381 Gd337 2.362 . S
O381 C392 1.284 . S
O382 Gd337 2.324 . S
O382 C402 1.254 . S
O383 Gd336 2.429 . S
O383 C402 1.268 . S
O384 Gd336 2.545 . S
O384 C392 1.250 . S
O385 Gd336 2.412 . S
O385 C395 1.252 . S
O386 Gd337 2.545 1_556 S
O386 C404 1.258 1_456 S
O387 Gd336 2.362 . S
O387 Gd337 2.606 . S
O387 C403 1.284 . S
O388 Gd336 2.324 . S
O388 C411 1.254 1_554 S
O389 Gd337 2.429 1_556 S
O389 C411 1.268 . S
O390 Gd337 2.545 . S
O390 C403 1.250 . S
O391 Gd337 2.475 . S
O391 C404 1.236 1_455 S
C392 O381 1.284 . S
C392 O384 1.250 . S
C393 H362 0.929 . S
C393 C378 1.437 . S
C393 C394 1.317 . S
C394 H365 0.930 . S
C394 C370 1.431 . S
C394 C393 1.317 . S
C395 Gd336 2.828 . S
C395 O380 1.258 . S
C395 O385 1.252 . S
C395 C396 1.497 . S
C396 C395 1.497 . S
C396 C397 1.395 . S
C396 C398 1.380 . S
C397 C396 1.395 . S
C397 C400 1.398 . S
C397 H412 0.930 . S
C398 C396 1.380 . S
C398 C399 1.391 . S
C398 H413 0.930 . S
C399 C398 1.391 . S
C399 C401 1.387 . S
C400 C397 1.398 . S
C400 C401 1.380 . S
C400 H414 0.930 . S
C401 C399 1.387 . S
C401 C400 1.380 . S
C401 H415 0.930 . S
C402 O382 1.254 . S
C402 O383 1.268 . S
C403 O387 1.284 . S
C403 O390 1.250 . S
C404 Gd337 2.828 1_655 S
C404 O386 1.258 1_654 S
C404 O391 1.236 1_655 S
C404 C405 1.497 1_554 S
C405 C404 1.497 1_556 S
C405 C406 1.395 . S
C405 C407 1.380 1_556 S
C406 C405 1.395 . S
C406 C409 1.398 . S
C406 H416 0.930 . S
C407 C405 1.380 1_554 S
C407 C408 1.391 . S
C407 H417 0.930 . S
C408 C407 1.391 . S
C408 C410 1.387 1_554 S
C409 C406 1.398 . S
C409 C410 1.380 . S
C409 H418 0.930 . S
C410 C408 1.387 1_556 S
C410 C409 1.380 . S
C410 H419 0.930 . S
C411 O388 1.254 1_556 S
C411 O389 1.268 . S
H412 C397 0.930 . S
H413 C398 0.930 . S
H414 C400 0.930 . S
H415 C401 0.930 . S
H416 C406 0.930 . S
H417 C407 0.930 . S
H418 C409 0.930 . S
H419 C410 0.930 . S
Gd420 N451 2.661 . S
Gd420 N457 2.601 . S
Gd420 O464 2.545 . S
Gd420 O465 2.606 . S
Gd420 O467 2.429 . S
Gd420 O468 2.545 . S
Gd420 O469 2.412 . S
Gd420 O471 2.362 . S
Gd420 O472 2.324 . S
Gd420 C479 2.828 . S
Gd421 N430 2.661 . S
Gd421 N434 2.601 . S
Gd421 O465 2.362 . S
Gd421 O466 2.324 . S
Gd421 O470 2.545 . S
Gd421 O471 2.606 . S
Gd421 O473 2.429 . S
Gd421 O474 2.545 . S
Gd421 O475 2.412 . S
Gd421 C488 2.828 . S
C422 C425 1.417 . S
C422 C427 1.431 . S
C422 C428 1.412 . S
C423 C426 1.437 . S
C423 C427 1.317 . S
C423 H442 0.929 . S
C424 C425 1.426 . S
C424 C426 1.413 . S
C424 N434 1.359 . S
C425 C422 1.417 . S
C425 C424 1.426 . S
C425 N430 1.350 . S
C426 C423 1.437 . S
C426 C424 1.413 . S
C426 C436 1.391 . S
C427 C422 1.431 . S
C427 C423 1.317 . S
C427 H438 0.930 . S
C428 C422 1.412 . S
C428 C429 1.355 . S
C428 H440 0.930 . S
C429 C428 1.355 . S
C429 C431 1.402 . S
C429 H441 0.930 . S
N430 Gd421 2.661 . S
N430 C425 1.350 . S
N430 C431 1.307 . S
C431 C429 1.402 . S
C431 N430 1.307 . S
C431 H432 0.930 . S
H432 C431 0.930 . S
C433 N434 1.334 . S
C433 C435 1.394 . S
C433 H437 0.930 . S
N434 Gd421 2.601 . S
N434 C424 1.359 . S
N434 C433 1.334 . S
C435 C433 1.394 . S
C435 C436 1.359 . S
C435 H447 0.930 . S
C436 C426 1.391 . S
C436 C435 1.359 . S
C436 H448 0.929 . S
H437 C433 0.930 . S
H438 C427 0.930 . S
H439 C456 0.930 . S
H440 C428 0.930 . S
H441 C429 0.930 . S
H442 C423 0.929 . S
H443 C461 0.930 . S
H444 C452 0.930 . S
H445 C453 0.930 . S
H446 C477 0.929 . S
H447 C435 0.930 . S
H448 C436 0.929 . S
H449 C478 0.930 . S
H450 C459 0.930 . S
N451 Gd420 2.661 . S
N451 C455 1.350 . S
N451 C456 1.307 . S
C452 H444 0.930 . S
C452 C453 1.355 . S
C452 C454 1.412 . S
C453 H445 0.930 . S
C453 C452 1.355 . S
C453 C456 1.402 . S
C454 C452 1.412 . S
C454 C455 1.417 . S
C454 C478 1.431 . S
C455 N451 1.350 . S
C455 C454 1.417 . S
C455 C458 1.426 . S
C456 H439 0.930 . S
C456 N451 1.307 . S
C456 C453 1.402 . S
N457 Gd420 2.601 . S
N457 C458 1.359 . S
N457 C461 1.334 . S
C458 C455 1.426 . S
C458 N457 1.359 . S
C458 C462 1.413 . S
C459 H450 0.930 . S
C459 C460 1.359 . S
C459 C461 1.394 . S
C460 C459 1.359 . S
C460 C462 1.391 . S
C460 H463 0.929 . S
C461 H443 0.930 . S
C461 N457 1.334 . S
C461 C459 1.394 . S
C462 C458 1.413 . S
C462 C460 1.391 . S
C462 C477 1.437 . S
H463 C460 0.929 . S
O464 Gd420 2.545 . S
O464 C479 1.258 . S
O465 Gd420 2.606 . S
O465 Gd421 2.362 . S
O465 C476 1.284 . S
O466 Gd421 2.324 . S
O466 C486 1.254 . S
O467 Gd420 2.429 . S
O467 C486 1.268 . S
O468 Gd420 2.545 . S
O468 C476 1.250 . S
O469 Gd420 2.412 . S
O469 C479 1.252 . S
O470 Gd421 2.545 . S
O470 C488 1.258 . S
O471 Gd420 2.362 . S
O471 Gd421 2.606 . S
O471 C487 1.284 . S
O472 Gd420 2.324 . S
O472 C495 1.254 . S
O473 Gd421 2.429 . S
O473 C495 1.268 . S
O474 Gd421 2.545 . S
O474 C487 1.250 . S
O475 Gd421 2.412 . S
O475 C488 1.252 . S
C476 O465 1.284 . S
C476 O468 1.250 . S
C477 H446 0.929 . S
C477 C462 1.437 . S
C477 C478 1.317 . S
C478 H449 0.930 . S
C478 C454 1.431 . S
C478 C477 1.317 . S
C479 Gd420 2.828 . S
C479 O464 1.258 . S
C479 O469 1.252 . S
C479 C480 1.497 . S
C480 C479 1.497 . S
C480 C481 1.395 . S
C480 C482 1.380 . S
C481 C480 1.395 . S
C481 C484 1.398 . S
C481 H496 0.930 . S
C482 C480 1.380 . S
C482 C483 1.391 . S
C482 H497 0.930 . S
C483 C482 1.391 . S
C483 C485 1.387 . S
C484 C481 1.398 . S
C484 C485 1.380 . S
C484 H498 0.930 . S
C485 C483 1.387 . S
C485 C484 1.380 . S
C485 H499 0.930 . S
C486 O466 1.254 . S
C486 O467 1.268 . S
C487 O471 1.284 . S
C487 O474 1.250 . S
C488 Gd421 2.828 . S
C488 O470 1.258 . S
C488 O475 1.252 . S
C488 C489 1.497 . S
C489 C488 1.497 . S
C489 C490 1.395 . S
C489 C491 1.380 . S
C490 C489 1.395 . S
C490 C493 1.398 . S
C490 H500 0.930 . S
C491 C489 1.380 . S
C491 C492 1.391 . S
C491 H501 0.930 . S
C492 C491 1.391 . S
C492 C494 1.387 . S
C493 C490 1.398 . S
C493 C494 1.380 . S
C493 H502 0.930 . S
C494 C492 1.387 . S
C494 C493 1.380 . S
C494 H503 0.930 . S
C495 O472 1.254 . S
C495 O473 1.268 . S
H496 C481 0.930 . S
H497 C482 0.930 . S
H498 C484 0.930 . S
H499 C485 0.930 . S
H500 C490 0.930 . S
H501 C491 0.930 . S
H502 C493 0.930 . S
H503 C494 0.930 . S
Gd504 N535 2.661 . S
Gd504 N541 2.601 . S
Gd504 O548 2.545 . S
Gd504 O549 2.606 . S
Gd504 O551 2.429 . S
Gd504 O552 2.545 . S
Gd504 O553 2.412 . S
Gd504 O555 2.362 . S
Gd504 O556 2.324 . S
Gd504 C563 2.828 . S
Gd505 N514 2.661 . S
Gd505 N518 2.601 . S
Gd505 O549 2.362 . S
Gd505 O550 2.324 . S
Gd505 O554 2.545 . S
Gd505 O555 2.606 . S
Gd505 O557 2.429 . S
Gd505 O558 2.545 . S
Gd505 O559 2.412 . S
Gd505 C572 2.828 . S
C506 C509 1.417 . S
C506 C511 1.431 . S
C506 C512 1.412 . S
C507 C510 1.437 . S
C507 C511 1.317 . S
C507 H526 0.929 . S
C508 C509 1.426 . S
C508 C510 1.413 . S
C508 N518 1.359 . S
C509 C506 1.417 . S
C509 C508 1.426 . S
C509 N514 1.350 . S
C510 C507 1.437 . S
C510 C508 1.413 . S
C510 C520 1.391 . S
C511 C506 1.431 . S
C511 C507 1.317 . S
C511 H522 0.930 . S
C512 C506 1.412 . S
C512 C513 1.355 . S
C512 H524 0.930 . S
C513 C512 1.355 . S
C513 C515 1.402 . S
C513 H525 0.930 . S
N514 Gd505 2.661 . S
N514 C509 1.350 . S
N514 C515 1.307 . S
C515 C513 1.402 . S
C515 N514 1.307 . S
C515 H516 0.930 . S
H516 C515 0.930 . S
C517 N518 1.334 . S
C517 C519 1.394 . S
C517 H521 0.930 . S
N518 Gd505 2.601 . S
N518 C508 1.359 . S
N518 C517 1.334 . S
C519 C517 1.394 . S
C519 C520 1.359 . S
C519 H531 0.930 . S
C520 C510 1.391 . S
C520 C519 1.359 . S
C520 H532 0.929 . S
H521 C517 0.930 . S
H522 C511 0.930 . S
H523 C540 0.930 1_545 S
H524 C512 0.930 . S
H525 C513 0.930 . S
H526 C507 0.929 . S
H527 C545 0.930 . S
H528 C536 0.930 . S
H529 C537 0.930 . S
H530 C561 0.929 . S
H531 C519 0.930 . S
H532 C520 0.929 . S
H533 C562 0.930 . S
H534 C543 0.930 . S
N535 Gd504 2.661 . S
N535 C539 1.350 1_545 S
N535 C540 1.307 1_545 S
C536 H528 0.930 . S
C536 C537 1.355 . S
C536 C538 1.412 . S
C537 H529 0.930 . S
C537 C536 1.355 . S
C537 C540 1.402 . S
C538 C536 1.412 . S
C538 C539 1.417 . S
C538 C562 1.431 . S
C539 N535 1.350 1_565 S
C539 C538 1.417 . S
C539 C542 1.426 . S
C540 H523 0.930 1_565 S
C540 N535 1.307 1_565 S
C540 C537 1.402 . S
N541 Gd504 2.601 . S
N541 C542 1.359 1_545 S
N541 C545 1.334 . S
C542 C539 1.426 . S
C542 N541 1.359 1_565 S
C542 C546 1.413 . S
C543 H534 0.930 . S
C543 C544 1.359 1_545 S
C543 C545 1.394 . S
C544 C543 1.359 1_565 S
C544 C546 1.391 . S
C544 H547 0.929 . S
C545 H527 0.930 . S
C545 N541 1.334 . S
C545 C543 1.394 . S
C546 C542 1.413 . S
C546 C544 1.391 . S
C546 C561 1.437 . S
H547 C544 0.929 . S
O548 Gd504 2.545 . S
O548 C563 1.258 . S
O549 Gd504 2.606 . S
O549 Gd505 2.362 . S
O549 C560 1.284 . S
O550 Gd505 2.324 . S
O550 C570 1.254 . S
O551 Gd504 2.429 . S
O551 C570 1.268 . S
O552 Gd504 2.545 . S
O552 C560 1.250 . S
O553 Gd504 2.412 . S
O553 C563 1.252 . S
O554 Gd505 2.545 . S
O554 C572 1.258 . S
O555 Gd504 2.362 . S
O555 Gd505 2.606 . S
O555 C571 1.284 . S
O556 Gd504 2.324 . S
O556 C579 1.254 . S
O557 Gd505 2.429 . S
O557 C579 1.268 . S
O558 Gd505 2.545 . S
O558 C571 1.250 . S
O559 Gd505 2.412 . S
O559 C572 1.252 . S
C560 O549 1.284 . S
C560 O552 1.250 . S
C561 H530 0.929 . S
C561 C546 1.437 . S
C561 C562 1.317 . S
C562 H533 0.930 . S
C562 C538 1.431 . S
C562 C561 1.317 . S
C563 Gd504 2.828 . S
C563 O548 1.258 . S
C563 O553 1.252 . S
C563 C564 1.497 . S
C564 C563 1.497 . S
C564 C565 1.395 . S
C564 C566 1.380 . S
C565 C564 1.395 . S
C565 C568 1.398 . S
C565 H580 0.930 . S
C566 C564 1.380 . S
C566 C567 1.391 . S
C566 H581 0.930 . S
C567 C566 1.391 . S
C567 C569 1.387 . S
C568 C565 1.398 . S
C568 C569 1.380 . S
C568 H582 0.930 . S
C569 C567 1.387 . S
C569 C568 1.380 . S
C569 H583 0.930 . S
C570 O550 1.254 . S
C570 O551 1.268 . S
C571 O555 1.284 . S
C571 O558 1.250 . S
C572 Gd505 2.828 . S
C572 O554 1.258 . S
C572 O559 1.252 . S
C572 C573 1.497 . S
C573 C572 1.497 . S
C573 C574 1.395 . S
C573 C575 1.380 . S
C574 C573 1.395 . S
C574 C577 1.398 . S
C574 H584 0.930 . S
C575 C573 1.380 . S
C575 C576 1.391 . S
C575 H585 0.930 . S
C576 C575 1.391 . S
C576 C578 1.387 . S
C577 C574 1.398 . S
C577 C578 1.380 . S
C577 H586 0.930 . S
C578 C576 1.387 . S
C578 C577 1.380 . S
C578 H587 0.930 1_545 S
C579 O556 1.254 . S
C579 O557 1.268 . S
H580 C565 0.930 . S
H581 C566 0.930 . S
H582 C568 0.930 . S
H583 C569 0.930 . S
H584 C574 0.930 . S
H585 C575 0.930 . S
H586 C577 0.930 . S
H587 C578 0.930 1_565 S
Gd588 N619 2.661 . S
Gd588 N625 2.601 . S
Gd588 O632 2.545 . S
Gd588 O633 2.606 . S
Gd588 O635 2.429 . S
Gd588 O636 2.545 . S
Gd588 O637 2.412 . S
Gd588 O639 2.362 . S
Gd588 O640 2.324 . S
Gd588 C647 2.828 . S
Gd589 N598 2.661 . S
Gd589 N602 2.601 . S
Gd589 O633 2.362 . S
Gd589 O634 2.324 . S
Gd589 O638 2.545 . S
Gd589 O639 2.606 . S
Gd589 O641 2.429 . S
Gd589 O642 2.545 . S
Gd589 O643 2.412 . S
Gd589 C656 2.828 . S
C590 C593 1.417 . S
C590 C595 1.431 . S
C590 C596 1.412 . S
C591 C594 1.437 . S
C591 C595 1.317 . S
C591 H610 0.929 . S
C592 C593 1.426 . S
C592 C594 1.413 . S
C592 N602 1.359 . S
C593 C590 1.417 . S
C593 C592 1.426 . S
C593 N598 1.350 . S
C594 C591 1.437 . S
C594 C592 1.413 . S
C594 C604 1.391 . S
C595 C590 1.431 . S
C595 C591 1.317 . S
C595 H606 0.930 . S
C596 C590 1.412 . S
C596 C597 1.355 . S
C596 H608 0.930 . S
C597 C596 1.355 . S
C597 C599 1.402 . S
C597 H609 0.930 . S
N598 Gd589 2.661 . S
N598 C593 1.350 . S
N598 C599 1.307 . S
C599 C597 1.402 . S
C599 N598 1.307 . S
C599 H600 0.930 . S
H600 C599 0.930 . S
C601 N602 1.334 . S
C601 C603 1.394 . S
C601 H605 0.930 . S
N602 Gd589 2.601 . S
N602 C592 1.359 . S
N602 C601 1.334 . S
C603 C601 1.394 . S
C603 C604 1.359 . S
C603 H615 0.930 . S
C604 C594 1.391 . S
C604 C603 1.359 . S
C604 H616 0.929 . S
H605 C601 0.930 . S
H606 C595 0.930 . S
H607 C624 0.930 . S
H608 C596 0.930 . S
H609 C597 0.930 . S
H610 C591 0.929 . S
H611 C629 0.930 . S
H612 C620 0.930 . S
H613 C621 0.930 . S
H614 C645 0.929 . S
H615 C603 0.930 . S
H616 C604 0.929 . S
H617 C646 0.930 . S
H618 C627 0.930 . S
N619 Gd588 2.661 . S
N619 C623 1.350 . S
N619 C624 1.307 . S
C620 H612 0.930 . S
C620 C621 1.355 . S
C620 C622 1.412 . S
C621 H613 0.930 . S
C621 C620 1.355 . S
C621 C624 1.402 . S
C622 C620 1.412 . S
C622 C623 1.417 . S
C622 C646 1.431 . S
C623 N619 1.350 . S
C623 C622 1.417 . S
C623 C626 1.426 . S
C624 H607 0.930 . S
C624 N619 1.307 . S
C624 C621 1.402 . S
N625 Gd588 2.601 . S
N625 C626 1.359 . S
N625 C629 1.334 . S
C626 C623 1.426 . S
C626 N625 1.359 . S
C626 C630 1.413 . S
C627 H618 0.930 . S
C627 C628 1.359 . S
C627 C629 1.394 . S
C628 C627 1.359 . S
C628 C630 1.391 . S
C628 H631 0.929 . S
C629 H611 0.930 . S
C629 N625 1.334 . S
C629 C627 1.394 . S
C630 C626 1.413 . S
C630 C628 1.391 . S
C630 C645 1.437 . S
H631 C628 0.929 . S
O632 Gd588 2.545 . S
O632 C647 1.258 . S
O633 Gd588 2.606 . S
O633 Gd589 2.362 . S
O633 C644 1.284 . S
O634 Gd589 2.324 . S
O634 C654 1.254 . S
O635 Gd588 2.429 . S
O635 C654 1.268 . S
O636 Gd588 2.545 . S
O636 C644 1.250 . S
O637 Gd588 2.412 . S
O637 C647 1.252 . S
O638 Gd589 2.545 . S
O638 C656 1.258 . S
O639 Gd588 2.362 . S
O639 Gd589 2.606 . S
O639 C655 1.284 . S
O640 Gd588 2.324 . S
O640 C663 1.254 . S
O641 Gd589 2.429 . S
O641 C663 1.268 . S
O642 Gd589 2.545 . S
O642 C655 1.250 . S
O643 Gd589 2.412 . S
O643 C656 1.252 . S
C644 O633 1.284 . S
C644 O636 1.250 . S
C645 H614 0.929 . S
C645 C630 1.437 . S
C645 C646 1.317 . S
C646 H617 0.930 . S
C646 C622 1.431 . S
C646 C645 1.317 . S
C647 Gd588 2.828 . S
C647 O632 1.258 . S
C647 O637 1.252 . S
C647 C648 1.497 . S
C648 C647 1.497 . S
C648 C649 1.395 . S
C648 C650 1.380 . S
C649 C648 1.395 . S
C649 C652 1.398 . S
C649 H664 0.930 . S
C650 C648 1.380 . S
C650 C651 1.391 . S
C650 H665 0.930 . S
C651 C650 1.391 . S
C651 C653 1.387 . S
C652 C649 1.398 . S
C652 C653 1.380 . S
C652 H666 0.930 . S
C653 C651 1.387 . S
C653 C652 1.380 . S
C653 H667 0.930 . S
C654 O634 1.254 . S
C654 O635 1.268 . S
C655 O639 1.284 . S
C655 O642 1.250 . S
C656 Gd589 2.828 . S
C656 O638 1.258 . S
C656 O643 1.252 . S
C656 C657 1.497 . S
C657 C656 1.497 . S
C657 C658 1.395 . S
C657 C659 1.380 . S
C658 C657 1.395 . S
C658 C661 1.398 . S
C658 H668 0.930 . S
C659 C657 1.380 . S
C659 C660 1.391 . S
C659 H669 0.930 . S
C660 C659 1.391 . S
C660 C662 1.387 . S
C661 C658 1.398 . S
C661 C662 1.380 . S
C661 H670 0.930 . S
C662 C660 1.387 . S
C662 C661 1.380 . S
C662 H671 0.930 . S
C663 O640 1.254 . S
C663 O641 1.268 . S
H664 C649 0.930 . S
H665 C650 0.930 . S
H666 C652 0.930 . S
H667 C653 0.930 . S
H668 C658 0.930 . S
H669 C659 0.930 . S
H670 C661 0.930 . S
H671 C662 0.930 . S
Gd672 N703 2.661 1_545 S
Gd672 N709 2.601 . S
Gd672 O716 2.545 1_545 S
Gd672 O717 2.606 . S
Gd672 O719 2.429 . S
Gd672 O720 2.545 . S
Gd672 O721 2.412 1_545 S
Gd672 O723 2.362 . S
Gd672 O724 2.324 . S
Gd672 C731 2.828 1_545 S
Gd673 N682 2.661 . S
Gd673 N686 2.601 . S
Gd673 O717 2.362 . S
Gd673 O718 2.324 . S
Gd673 O722 2.545 . S
Gd673 O723 2.606 . S
Gd673 O725 2.429 . S
Gd673 O726 2.545 . S
Gd673 O727 2.412 . S
Gd673 C740 2.828 . S
C674 C677 1.417 . S
C674 C679 1.431 . S
C674 C680 1.412 . S
C675 C678 1.437 . S
C675 C679 1.317 . S
C675 H694 0.929 . S
C676 C677 1.426 . S
C676 C678 1.413 . S
C676 N686 1.359 . S
C677 C674 1.417 . S
C677 C676 1.426 . S
C677 N682 1.350 . S
C678 C675 1.437 . S
C678 C676 1.413 . S
C678 C688 1.391 . S
C679 C674 1.431 . S
C679 C675 1.317 . S
C679 H690 0.930 . S
C680 C674 1.412 . S
C680 C681 1.355 . S
C680 H692 0.930 . S
C681 C680 1.355 . S
C681 C683 1.402 . S
C681 H693 0.930 . S
N682 Gd673 2.661 . S
N682 C677 1.350 . S
N682 C683 1.307 . S
C683 C681 1.402 . S
C683 N682 1.307 . S
C683 H684 0.930 . S
H684 C683 0.930 . S
C685 N686 1.334 . S
C685 C687 1.394 . S
C685 H689 0.930 . S
N686 Gd673 2.601 . S
N686 C676 1.359 . S
N686 C685 1.334 . S
C687 C685 1.394 . S
C687 C688 1.359 . S
C687 H699 0.930 . S
C688 C678 1.391 . S
C688 C687 1.359 . S
C688 H700 0.929 . S
H689 C685 0.930 . S
H690 C679 0.930 . S
H691 C708 0.930 1_545 S
H692 C680 0.930 . S
H693 C681 0.930 . S
H694 C675 0.929 . S
H695 C713 0.930 . S
H696 C704 0.930 . S
H697 C705 0.876 1_655 S
H698 C729 0.929 . S
H699 C687 0.930 . S
H700 C688 0.929 . S
H701 C730 0.930 . S
H702 C711 0.930 . S
N703 Gd672 2.661 1_565 S
N703 C707 1.350 . S
N703 C708 1.307 . S
C704 H696 0.930 . S
C704 C705 1.355 . S
C704 C706 1.412 . S
C705 H697 0.876 1_455 S
C705 C704 1.355 . S
C705 C708 1.402 . S
C706 C704 1.412 . S
C706 C707 1.417 . S
C706 C730 1.431 . S
C707 N703 1.350 . S
C707 C706 1.417 . S
C707 C710 1.426 . S
C708 H691 0.930 1_565 S
C708 N703 1.307 . S
C708 C705 1.402 . S
N709 Gd672 2.601 . S
N709 C710 1.359 1_545 S
N709 C713 1.334 . S
C710 C707 1.426 . S
C710 N709 1.359 1_565 S
C710 C714 1.413 . S
C711 H702 0.930 . S
C711 C712 1.359 . S
C711 C713 1.394 1_565 S
C712 C711 1.359 . S
C712 C714 1.391 . S
C712 H715 0.929 . S
C713 H695 0.930 . S
C713 N709 1.334 . S
C713 C711 1.394 1_545 S
C714 C710 1.413 . S
C714 C712 1.391 . S
C714 C729 1.437 . S
H715 C712 0.929 . S
O716 Gd672 2.545 1_565 S
O716 C731 1.258 . S
O717 Gd672 2.606 . S
O717 Gd673 2.362 . S
O717 C728 1.284 . S
O718 Gd673 2.324 . S
O718 C738 1.254 . S
O719 Gd672 2.429 . S
O719 C738 1.268 . S
O720 Gd672 2.545 . S
O720 C728 1.250 . S
O721 Gd672 2.412 1_565 S
O721 C731 1.252 . S
O722 Gd673 2.545 . S
O722 C740 1.258 . S
O723 Gd672 2.362 . S
O723 Gd673 2.606 . S
O723 C739 1.284 . S
O724 Gd672 2.324 . S
O724 C747 1.254 . S
O725 Gd673 2.429 . S
O725 C747 1.268 . S
O726 Gd673 2.545 . S
O726 C739 1.250 . S
O727 Gd673 2.412 . S
O727 C740 1.252 . S
C728 O717 1.284 . S
C728 O720 1.250 . S
C729 H698 0.929 . S
C729 C714 1.437 . S
C729 C730 1.317 . S
C730 H701 0.930 . S
C730 C706 1.431 . S
C730 C729 1.317 . S
C731 Gd672 2.828 1_565 S
C731 O716 1.258 . S
C731 O721 1.252 . S
C731 C732 1.497 . S
C732 C731 1.497 . S
C732 C733 1.395 . S
C732 C734 1.380 . S
C733 C732 1.395 . S
C733 C736 1.398 . S
C733 H748 0.930 . S
C734 C732 1.380 . S
C734 C735 1.391 . S
C734 H749 0.930 . S
C735 C734 1.391 . S
C735 C737 1.387 . S
C736 C733 1.398 . S
C736 C737 1.380 . S
C736 H750 0.930 . S
C737 C735 1.387 . S
C737 C736 1.380 . S
C737 H751 0.930 . S
C738 O718 1.254 . S
C738 O719 1.268 . S
C739 O723 1.284 . S
C739 O726 1.250 . S
C740 Gd673 2.828 . S
C740 O722 1.258 . S
C740 O727 1.252 . S
C740 C741 1.497 . S
C741 C740 1.497 . S
C741 C742 1.395 . S
C741 C743 1.380 . S
C742 C741 1.395 . S
C742 C745 1.398 . S
C742 H752 0.930 . S
C743 C741 1.380 . S
C743 C744 1.391 . S
C743 H753 0.930 . S
C744 C743 1.391 . S
C744 C746 1.387 . S
C745 C742 1.398 . S
C745 C746 1.380 . S
C745 H754 0.930 . S
C746 C744 1.387 . S
C746 C745 1.380 . S
C746 H755 0.930 . S
C747 O724 1.254 . S
C747 O725 1.268 . S
H748 C733 0.930 . S
H749 C734 0.930 . S
H750 C736 0.930 . S
H751 C737 0.930 . S
H752 C742 0.930 . S
H753 C743 0.930 . S
H754 C745 0.930 . S
H755 C746 0.930 . S
Gd756 N787 2.661 . S
Gd756 N793 2.601 . S
Gd756 O800 2.545 . S
Gd756 O801 2.606 . S
Gd756 O803 2.429 . S
Gd756 O804 2.545 . S
Gd756 O805 2.412 . S
Gd756 O807 2.362 . S
Gd756 O808 2.324 . S
Gd756 C815 2.828 . S
Gd757 N766 2.661 . S
Gd757 N770 2.601 . S
Gd757 O801 2.362 . S
Gd757 O802 2.324 . S
Gd757 O806 2.545 . S
Gd757 O807 2.606 . S
Gd757 O809 2.429 . S
Gd757 O810 2.545 . S
Gd757 O811 2.412 . S
Gd757 C824 2.828 . S
C758 C761 1.417 . S
C758 C763 1.431 . S
C758 C764 1.412 . S
C759 C762 1.437 . S
C759 C763 1.317 . S
C759 H778 0.929 . S
C760 C761 1.426 . S
C760 C762 1.413 . S
C760 N770 1.359 . S
C761 C758 1.417 . S
C761 C760 1.426 . S
C761 N766 1.350 . S
C762 C759 1.437 . S
C762 C760 1.413 . S
C762 C772 1.391 . S
C763 C758 1.431 . S
C763 C759 1.317 . S
C763 H774 0.930 . S
C764 C758 1.412 . S
C764 C765 1.355 . S
C764 H776 0.930 . S
C765 C764 1.355 . S
C765 C767 1.402 . S
C765 H777 0.930 . S
N766 Gd757 2.661 . S
N766 C761 1.350 . S
N766 C767 1.307 . S
C767 C765 1.402 . S
C767 N766 1.307 . S
C767 H768 0.930 . S
H768 C767 0.930 . S
C769 N770 1.334 . S
C769 C771 1.394 . S
C769 H773 0.930 . S
N770 Gd757 2.601 . S
N770 C760 1.359 . S
N770 C769 1.334 . S
C771 C769 1.394 . S
C771 C772 1.359 . S
C771 H783 0.930 . S
C772 C762 1.391 . S
C772 C771 1.359 . S
C772 H784 0.929 . S
H773 C769 0.930 . S
H774 C763 0.930 . S
H775 C792 0.930 . S
H776 C764 0.930 . S
H777 C765 0.930 . S
H778 C759 0.929 . S
H779 C797 0.930 . S
H780 C788 0.930 . S
H781 C789 0.930 . S
H782 C813 0.929 . S
H783 C771 0.930 . S
H784 C772 0.929 . S
H785 C814 0.930 . S
H786 C795 0.930 . S
N787 Gd756 2.661 . S
N787 C791 1.350 . S
N787 C792 1.307 . S
C788 H780 0.930 . S
C788 C789 1.355 . S
C788 C790 1.412 . S
C789 H781 0.930 . S
C789 C788 1.355 . S
C789 C792 1.402 . S
C790 C788 1.412 . S
C790 C791 1.417 . S
C790 C814 1.431 . S
C791 N787 1.350 . S
C791 C790 1.417 . S
C791 C794 1.426 . S
C792 H775 0.930 . S
C792 N787 1.307 . S
C792 C789 1.402 . S
N793 Gd756 2.601 . S
N793 C794 1.359 . S
N793 C797 1.334 . S
C794 C791 1.426 . S
C794 N793 1.359 . S
C794 C798 1.413 . S
C795 H786 0.930 . S
C795 C796 1.359 . S
C795 C797 1.394 . S
C796 C795 1.359 . S
C796 C798 1.391 . S
C796 H799 0.929 . S
C797 H779 0.930 . S
C797 N793 1.334 . S
C797 C795 1.394 . S
C798 C794 1.413 . S
C798 C796 1.391 . S
C798 C813 1.437 . S
H799 C796 0.929 . S
O800 Gd756 2.545 . S
O800 C815 1.258 . S
O801 Gd756 2.606 . S
O801 Gd757 2.362 . S
O801 C812 1.284 . S
O802 Gd757 2.324 . S
O802 C822 1.254 . S
O803 Gd756 2.429 . S
O803 C822 1.268 . S
O804 Gd756 2.545 . S
O804 C812 1.250 . S
O805 Gd756 2.412 . S
O805 C815 1.252 . S
O806 Gd757 2.545 . S
O806 C824 1.258 . S
O807 Gd756 2.362 . S
O807 Gd757 2.606 . S
O807 C823 1.284 . S
O808 Gd756 2.324 . S
O808 C831 1.254 . S
O809 Gd757 2.429 . S
O809 C831 1.268 . S
O810 Gd757 2.545 . S
O810 C823 1.250 . S
O811 Gd757 2.412 . S
O811 C824 1.252 . S
C812 O801 1.284 . S
C812 O804 1.250 . S
C813 H782 0.929 . S
C813 C798 1.437 . S
C813 C814 1.317 . S
C814 H785 0.930 . S
C814 C790 1.431 . S
C814 C813 1.317 . S
C815 Gd756 2.828 . S
C815 O800 1.258 . S
C815 O805 1.252 . S
C815 C816 1.497 . S
C816 C815 1.497 . S
C816 C817 1.395 . S
C816 C818 1.380 . S
C817 C816 1.395 . S
C817 C820 1.398 . S
C817 H832 0.930 . S
C818 C816 1.380 . S
C818 C819 1.391 . S
C818 H833 0.930 . S
C819 C818 1.391 . S
C819 C821 1.387 . S
C820 C817 1.398 . S
C820 C821 1.380 . S
C820 H834 0.930 . S
C821 C819 1.387 . S
C821 C820 1.380 . S
C821 H835 0.930 . S
C822 O802 1.254 . S
C822 O803 1.268 . S
C823 O807 1.284 . S
C823 O810 1.250 . S
C824 Gd757 2.828 . S
C824 O806 1.258 . S
C824 O811 1.252 . S
C824 C825 1.497 . S
C825 C824 1.497 . S
C825 C826 1.395 . S
C825 C827 1.380 . S
C826 C825 1.395 . S
C826 C829 1.398 . S
C826 H836 0.930 . S
C827 C825 1.380 . S
C827 C828 1.391 . S
C827 H837 0.930 . S
C828 C827 1.391 . S
C828 C830 1.387 . S
C829 C826 1.398 . S
C829 C830 1.380 . S
C829 H838 0.930 . S
C830 C828 1.387 . S
C830 C829 1.380 . S
C830 H839 0.930 . S
C831 O808 1.254 . S
C831 O809 1.268 . S
H832 C817 0.930 . S
H833 C818 0.930 . S
H834 C820 0.930 . S
H835 C821 0.930 . S
H836 C826 0.930 . S
H837 C827 0.930 . S
H838 C829 0.930 . S
H839 C830 0.930 . S
Gd840 N871 2.661 1_554 S
Gd840 N877 2.601 1_554 S
Gd840 O884 2.545 1_554 S
Gd840 O885 2.606 . S
Gd840 O887 2.429 . S
Gd840 O888 2.545 . S
Gd840 O889 2.412 1_554 S
Gd840 O891 2.362 . S
Gd840 O892 2.323 1_554 S
Gd840 C899 2.828 1_554 S
Gd841 N850 2.661 . S
Gd841 N854 2.601 . S
Gd841 O885 2.362 . S
Gd841 O886 2.324 . S
Gd841 O890 2.545 . S
Gd841 O891 2.606 . S
Gd841 O893 2.429 . S
Gd841 O894 2.545 . S
Gd841 O895 2.412 . S
Gd841 C908 2.828 . S
C842 C845 1.417 . S
C842 C847 1.431 . S
C842 C848 1.412 . S
C843 C846 1.437 . S
C843 C847 1.317 . S
C843 H862 0.929 . S
C844 C845 1.426 . S
C844 C846 1.413 . S
C844 N854 1.359 . S
C845 C842 1.417 . S
C845 C844 1.426 . S
C845 N850 1.350 . S
C846 C843 1.437 . S
C846 C844 1.413 . S
C846 C856 1.391 . S
C847 C842 1.431 . S
C847 C843 1.317 . S
C847 H858 0.930 . S
C848 C842 1.412 . S
C848 C849 1.355 . S
C848 H860 0.930 . S
C849 C848 1.355 . S
C849 C851 1.402 . S
C849 H861 0.930 . S
N850 Gd841 2.661 . S
N850 C845 1.350 . S
N850 C851 1.307 . S
C851 C849 1.402 . S
C851 N850 1.307 . S
C851 H852 0.930 . S
H852 C851 0.930 . S
C853 N854 1.334 . S
C853 C855 1.394 1_545 S
C853 H857 0.930 1_545 S
N854 Gd841 2.601 . S
N854 C844 1.359 . S
N854 C853 1.334 . S
C855 C853 1.394 1_565 S
C855 C856 1.359 1_565 S
C855 H867 0.930 . S
C856 C846 1.391 . S
C856 C855 1.359 1_545 S
C856 H868 0.917 1_545 S
H857 C853 0.930 1_565 S
H858 C847 0.930 . S
H859 C876 0.930 . S
H860 C848 0.930 . S
H861 C849 0.930 . S
H862 C843 0.929 . S
H863 C881 0.927 1_554 S
H864 C872 0.930 . S
H865 C873 0.930 . S
H866 C897 0.929 . S
H867 C855 0.930 . S
H868 C856 0.917 1_565 S
H869 C898 0.930 . S
H870 C879 0.930 . S
N871 Gd840 2.661 1_556 S
N871 C875 1.350 . S
N871 C876 1.307 . S
C872 H864 0.930 . S
C872 C873 1.355 . S
C872 C874 1.412 1_565 S
C873 H865 0.930 . S
C873 C872 1.355 . S
C873 C876 1.402 1_565 S
C874 C872 1.412 1_545 S
C874 C875 1.417 . S
C874 C898 1.431 . S
C875 N871 1.350 . S
C875 C874 1.417 . S
C875 C878 1.426 . S
C876 H859 0.930 . S
C876 N871 1.307 . S
C876 C873 1.402 1_545 S
N877 Gd840 2.601 1_556 S
N877 C878 1.359 . S
N877 C881 1.334 . S
C878 C875 1.426 . S
C878 N877 1.359 . S
C878 C882 1.413 . S
C879 H870 0.930 . S
C879 C880 1.359 . S
C879 C881 1.394 . S
C880 C879 1.359 . S
C880 C882 1.391 . S
C880 H883 0.929 . S
C881 H863 0.927 1_556 S
C881 N877 1.334 . S
C881 C879 1.394 . S
C882 C878 1.413 . S
C882 C880 1.391 . S
C882 C897 1.437 . S
H883 C880 0.929 . S
O884 Gd840 2.545 1_556 S
O884 C899 1.258 . S
O885 Gd840 2.606 . S
O885 Gd841 2.362 . S
O885 C896 1.284 . S
O886 Gd841 2.324 . S
O886 C906 1.254 . S
O887 Gd840 2.429 . S
O887 C906 1.268 . S
O888 Gd840 2.545 . S
O888 C896 1.250 . S
O889 Gd840 2.412 1_556 S
O889 C899 1.252 . S
O890 Gd841 2.545 . S
O890 C908 1.258 . S
O891 Gd840 2.362 . S
O891 Gd841 2.606 . S
O891 C907 1.284 . S
O892 Gd840 2.323 1_556 S
O892 C915 1.255 1_556 S
O893 Gd841 2.429 . S
O893 C915 1.268 . S
O894 Gd841 2.545 . S
O894 C907 1.250 . S
O895 Gd841 2.412 . S
O895 C908 1.252 . S
C896 O885 1.284 . S
C896 O888 1.250 . S
C897 H866 0.929 . S
C897 C882 1.437 . S
C897 C898 1.317 . S
C898 H869 0.930 . S
C898 C874 1.431 . S
C898 C897 1.317 . S
C899 Gd840 2.828 1_556 S
C899 O884 1.258 . S
C899 O889 1.252 . S
C899 C900 1.497 . S
C900 C899 1.497 . S
C900 C901 1.395 . S
C900 C902 1.380 . S
C901 C900 1.395 . S
C901 C904 1.398 . S
C901 H916 0.930 . S
C902 C900 1.380 . S
C902 C903 1.391 . S
C902 H917 0.930 . S
C903 C902 1.391 . S
C903 C905 1.387 . S
C904 C901 1.398 . S
C904 C905 1.380 . S
C904 H918 0.930 . S
C905 C903 1.387 . S
C905 C904 1.380 . S
C905 H919 0.930 . S
C906 O886 1.254 . S
C906 O887 1.268 . S
C907 O891 1.284 . S
C907 O894 1.250 . S
C908 Gd841 2.828 . S
C908 O890 1.258 . S
C908 O895 1.252 . S
C908 C909 1.497 . S
C909 C908 1.497 . S
C909 C910 1.395 . S
C909 C911 1.380 . S
C910 C909 1.395 . S
C910 C913 1.407 . S
C910 H920 0.930 1_545 S
C911 C909 1.380 . S
C911 C912 1.391 . S
C911 H921 0.930 . S
C912 C911 1.391 . S
C912 C914 1.387 . S
C913 C910 1.407 . S
C913 C914 1.404 . S
C913 H922 0.898 1_545 S
C914 C912 1.387 . S
C914 C913 1.404 . S
C914 H923 0.930 . S
C915 O892 1.255 1_554 S
C915 O893 1.268 . S
H916 C901 0.930 . S
H917 C902 0.930 . S
H918 C904 0.930 . S
H919 C905 0.930 . S
H920 C910 0.930 1_565 S
H921 C911 0.930 . S
H922 C913 0.898 1_565 S
H923 C914 0.930 . S
Gd924 N955 2.661 . S
Gd924 N961 2.601 . S
Gd924 O968 2.545 . S
Gd924 O969 2.606 . S
Gd924 O971 2.429 . S
Gd924 O972 2.545 . S
Gd924 O973 2.412 . S
Gd924 O975 2.362 . S
Gd924 O976 2.324 . S
Gd924 C983 2.828 . S
Gd925 N934 2.661 . S
Gd925 N938 2.601 . S
Gd925 O969 2.362 . S
Gd925 O970 2.324 . S
Gd925 O974 2.545 . S
Gd925 O975 2.606 . S
Gd925 O977 2.429 . S
Gd925 O978 2.545 . S
Gd925 O979 2.412 . S
Gd925 C992 2.828 . S
C926 C929 1.417 . S
C926 C931 1.431 . S
C926 C932 1.412 . S
C927 C930 1.437 . S
C927 C931 1.317 . S
C927 H946 0.929 . S
C928 C929 1.426 . S
C928 C930 1.413 . S
C928 N938 1.359 . S
C929 C926 1.417 . S
C929 C928 1.426 . S
C929 N934 1.350 . S
C930 C927 1.437 . S
C930 C928 1.413 . S
C930 C940 1.391 . S
C931 C926 1.431 . S
C931 C927 1.317 . S
C931 H942 0.930 . S
C932 C926 1.412 . S
C932 C933 1.355 . S
C932 H944 0.930 . S
C933 C932 1.355 . S
C933 C935 1.402 . S
C933 H945 0.930 . S
N934 Gd925 2.661 . S
N934 C929 1.350 . S
N934 C935 1.307 . S
C935 C933 1.402 . S
C935 N934 1.307 . S
C935 H936 0.930 . S
H936 C935 0.930 . S
C937 N938 1.334 . S
C937 C939 1.394 . S
C937 H941 0.930 . S
N938 Gd925 2.601 . S
N938 C928 1.359 . S
N938 C937 1.334 . S
C939 C937 1.394 . S
C939 C940 1.359 . S
C939 H951 0.930 . S
C940 C930 1.391 . S
C940 C939 1.359 . S
C940 H952 0.929 . S
H941 C937 0.930 . S
H942 C931 0.930 . S
H943 C960 0.930 . S
H944 C932 0.930 . S
H945 C933 0.930 . S
H946 C927 0.929 . S
H947 C965 0.930 . S
H948 C956 0.930 . S
H949 C957 0.930 . S
H950 C981 0.929 . S
H951 C939 0.930 . S
H952 C940 0.929 . S
H953 C982 0.930 . S
H954 C963 0.930 . S
N955 Gd924 2.661 . S
N955 C959 1.350 . S
N955 C960 1.307 . S
C956 H948 0.930 . S
C956 C957 1.355 . S
C956 C958 1.412 . S
C957 H949 0.930 . S
C957 C956 1.355 . S
C957 C960 1.402 . S
C958 C956 1.412 . S
C958 C959 1.417 . S
C958 C982 1.431 . S
C959 N955 1.350 . S
C959 C958 1.417 . S
C959 C962 1.426 . S
C960 H943 0.930 . S
C960 N955 1.307 . S
C960 C957 1.402 . S
N961 Gd924 2.601 . S
N961 C962 1.359 . S
N961 C965 1.334 . S
C962 C959 1.426 . S
C962 N961 1.359 . S
C962 C966 1.413 . S
C963 H954 0.930 . S
C963 C964 1.359 . S
C963 C965 1.394 . S
C964 C963 1.359 . S
C964 C966 1.391 . S
C964 H967 0.929 . S
C965 H947 0.930 . S
C965 N961 1.334 . S
C965 C963 1.394 . S
C966 C962 1.413 . S
C966 C964 1.391 . S
C966 C981 1.437 . S
H967 C964 0.929 . S
O968 Gd924 2.545 . S
O968 C983 1.258 . S
O969 Gd924 2.606 . S
O969 Gd925 2.362 . S
O969 C980 1.284 . S
O970 Gd925 2.324 . S
O970 C990 1.254 . S
O971 Gd924 2.429 . S
O971 C990 1.268 . S
O972 Gd924 2.545 . S
O972 C980 1.250 . S
O973 Gd924 2.412 . S
O973 C983 1.252 . S
O974 Gd925 2.545 . S
O974 C992 1.258 . S
O975 Gd924 2.362 . S
O975 Gd925 2.606 . S
O975 C991 1.284 . S
O976 Gd924 2.324 . S
O976 C999 1.254 . S
O977 Gd925 2.429 . S
O977 C999 1.268 . S
O978 Gd925 2.545 . S
O978 C991 1.250 . S
O979 Gd925 2.412 . S
O979 C992 1.252 . S
C980 O969 1.284 . S
C980 O972 1.250 . S
C981 H950 0.929 . S
C981 C966 1.437 . S
C981 C982 1.317 . S
C982 H953 0.930 . S
C982 C958 1.431 . S
C982 C981 1.317 . S
C983 Gd924 2.828 . S
C983 O968 1.258 . S
C983 O973 1.252 . S
C983 C984 1.497 . S
C984 C983 1.497 . S
C984 C985 1.395 . S
C984 C986 1.380 . S
C985 C984 1.395 . S
C985 C988 1.398 . S
C985 H1000 0.930 . S
C986 C984 1.380 . S
C986 C987 1.391 . S
C986 H1001 0.930 . S
C987 C986 1.391 . S
C987 C989 1.387 . S
C988 C985 1.398 . S
C988 C989 1.380 . S
C988 H1002 0.930 . S
C989 C987 1.387 . S
C989 C988 1.380 . S
C989 H1003 0.930 . S
C990 O970 1.254 . S
C990 O971 1.268 . S
C991 O975 1.284 . S
C991 O978 1.250 . S
C992 Gd925 2.828 . S
C992 O974 1.258 . S
C992 O979 1.252 . S
C992 C993 1.497 . S
C993 C992 1.497 . S
C993 C994 1.395 . S
C993 C995 1.380 . S
C994 C993 1.395 . S
C994 C997 1.398 . S
C994 H1004 0.930 . S
C995 C993 1.380 . S
C995 C996 1.391 . S
C995 H1005 0.930 . S
C996 C995 1.391 . S
C996 C998 1.387 . S
C997 C994 1.398 . S
C997 C998 1.380 . S
C997 H1006 0.930 . S
C998 C996 1.387 . S
C998 C997 1.380 . S
C998 H1007 0.930 . S
C999 O976 1.254 . S
C999 O977 1.268 . S
H1000 C985 0.930 . S
H1001 C986 0.930 . S
H1002 C988 0.930 . S
H1003 C989 0.930 . S
H1004 C994 0.930 . S
H1005 C995 0.930 . S
H1006 C997 0.930 . S
H1007 C998 0.930 . S
Gd1008 N1039 2.661 1_554 S
Gd1008 N1045 2.601 1_554 S
Gd1008 O1052 2.545 . S
Gd1008 O1053 2.606 . S
Gd1008 O1055 2.429 . S
Gd1008 O1056 2.545 . S
Gd1008 O1057 2.412 . S
Gd1008 O1059 2.362 . S
Gd1008 O1060 2.324 . S
Gd1008 C1067 2.828 . S
Gd1009 N1018 2.661 . S
Gd1009 N1022 2.601 . S
Gd1009 O1053 2.362 . S
Gd1009 O1054 2.324 . S
Gd1009 O1058 2.545 . S
Gd1009 O1059 2.606 . S
Gd1009 O1061 2.429 . S
Gd1009 O1062 2.545 1_554 S
Gd1009 O1063 2.412 . S
Gd1009 C1076 2.828 . S
C1010 C1013 1.417 . S
C1010 C1015 1.431 . S
C1010 C1016 1.412 . S
C1011 C1014 1.437 . S
C1011 C1015 1.317 . S
C1011 H1030 0.929 . S
C1012 C1013 1.426 . S
C1012 C1014 1.413 . S
C1012 N1022 1.359 . S
C1013 C1010 1.417 . S
C1013 C1012 1.426 . S
C1013 N1018 1.350 . S
C1014 C1011 1.437 . S
C1014 C1012 1.413 . S
C1014 C1024 1.391 . S
C1015 C1010 1.431 . S
C1015 C1011 1.317 . S
C1015 H1026 0.930 . S
C1016 C1010 1.412 . S
C1016 C1017 1.355 . S
C1016 H1028 0.930 . S
C1017 C1016 1.355 . S
C1017 C1019 1.402 . S
C1017 H1029 0.930 . S
N1018 Gd1009 2.661 . S
N1018 C1013 1.350 . S
N1018 C1019 1.307 . S
C1019 C1017 1.402 . S
C1019 N1018 1.307 . S
C1019 H1020 0.930 . S
H1020 C1019 0.930 . S
C1021 N1022 1.334 . S
C1021 C1023 1.394 . S
C1021 H1025 0.930 . S
N1022 Gd1009 2.601 . S
N1022 C1012 1.359 . S
N1022 C1021 1.334 . S
C1023 C1021 1.394 . S
C1023 C1024 1.359 . S
C1023 H1035 0.930 . S
C1024 C1014 1.391 . S
C1024 C1023 1.359 . S
C1024 H1036 0.929 . S
H1025 C1021 0.930 . S
H1026 C1015 0.930 . S
H1027 C1044 0.930 . S
H1028 C1016 0.930 . S
H1029 C1017 0.930 . S
H1030 C1011 0.929 . S
H1031 C1049 0.930 . S
H1032 C1040 0.930 . S
H1033 C1041 0.930 . S
H1034 C1065 0.929 . S
H1035 C1023 0.930 . S
H1036 C1024 0.929 . S
H1037 C1066 0.930 . S
H1038 C1047 0.930 . S
N1039 Gd1008 2.661 1_556 S
N1039 C1043 1.350 . S
N1039 C1044 1.307 . S
C1040 H1032 0.930 . S
C1040 C1041 1.355 . S
C1040 C1042 1.412 . S
C1041 H1033 0.930 . S
C1041 C1040 1.355 . S
C1041 C1044 1.402 . S
C1042 C1040 1.412 . S
C1042 C1043 1.417 . S
C1042 C1066 1.431 . S
C1043 N1039 1.350 . S
C1043 C1042 1.417 . S
C1043 C1046 1.426 . S
C1044 H1027 0.930 . S
C1044 N1039 1.307 . S
C1044 C1041 1.402 . S
N1045 Gd1008 2.601 1_556 S
N1045 C1046 1.359 . S
N1045 C1049 1.334 . S
C1046 C1043 1.426 . S
C1046 N1045 1.359 . S
C1046 C1050 1.413 . S
C1047 H1038 0.930 . S
C1047 C1048 1.359 . S
C1047 C1049 1.394 . S
C1048 C1047 1.359 . S
C1048 C1050 1.391 . S
C1048 H1051 0.929 . S
C1049 H1031 0.930 . S
C1049 N1045 1.334 . S
C1049 C1047 1.394 . S
C1050 C1046 1.413 . S
C1050 C1048 1.391 . S
C1050 C1065 1.437 . S
H1051 C1048 0.929 . S
O1052 Gd1008 2.545 . S
O1052 C1067 1.258 . S
O1053 Gd1008 2.606 . S
O1053 Gd1009 2.362 . S
O1053 C1064 1.284 . S
O1054 Gd1009 2.324 . S
O1054 C1074 1.254 . S
O1055 Gd1008 2.429 . S
O1055 C1074 1.268 . S
O1056 Gd1008 2.545 . S
O1056 C1064 1.250 . S
O1057 Gd1008 2.412 . S
O1057 C1067 1.252 . S
O1058 Gd1009 2.545 . S
O1058 C1076 1.258 . S
O1059 Gd1008 2.362 . S
O1059 Gd1009 2.606 . S
O1059 C1075 1.284 1_554 S
O1060 Gd1008 2.324 . S
O1060 C1083 1.254 . S
O1061 Gd1009 2.429 . S
O1061 C1083 1.268 . S
O1062 Gd1009 2.545 1_556 S
O1062 C1075 1.250 . S
O1063 Gd1009 2.412 . S
O1063 C1076 1.252 . S
C1064 O1053 1.284 . S
C1064 O1056 1.250 . S
C1065 H1034 0.929 . S
C1065 C1050 1.437 . S
C1065 C1066 1.317 . S
C1066 H1037 0.930 . S
C1066 C1042 1.431 . S
C1066 C1065 1.317 . S
C1067 Gd1008 2.828 . S
C1067 O1052 1.258 . S
C1067 O1057 1.252 . S
C1067 C1068 1.497 . S
C1068 C1067 1.497 . S
C1068 C1069 1.395 . S
C1068 C1070 1.380 . S
C1069 C1068 1.395 . S
C1069 C1072 1.398 . S
C1069 H1084 0.930 . S
C1070 C1068 1.380 . S
C1070 C1071 1.391 . S
C1070 H1085 0.930 . S
C1071 C1070 1.391 . S
C1071 C1073 1.387 . S
C1072 C1069 1.398 . S
C1072 C1073 1.380 . S
C1072 H1086 0.930 . S
C1073 C1071 1.387 . S
C1073 C1072 1.380 . S
C1073 H1087 0.930 . S
C1074 O1054 1.254 . S
C1074 O1055 1.268 . S
C1075 O1059 1.284 1_556 S
C1075 O1062 1.250 . S
C1076 Gd1009 2.828 . S
C1076 O1058 1.258 . S
C1076 O1063 1.252 . S
C1076 C1077 1.497 . S
C1077 C1076 1.497 . S
C1077 C1078 1.395 . S
C1077 C1079 1.380 . S
C1078 C1077 1.395 . S
C1078 C1081 1.398 . S
C1078 H1088 0.930 . S
C1079 C1077 1.380 . S
C1079 C1080 1.391 . S
C1079 H1089 0.930 . S
C1080 C1079 1.391 . S
C1080 C1082 1.387 . S
C1081 C1078 1.398 . S
C1081 C1082 1.380 . S
C1081 H1090 0.930 . S
C1082 C1080 1.387 . S
C1082 C1081 1.380 . S
C1082 H1091 0.930 . S
C1083 O1060 1.254 . S
C1083 O1061 1.268 . S
H1084 C1069 0.930 . S
H1085 C1070 0.930 . S
H1086 C1072 0.930 . S
H1087 C1073 0.930 . S
H1088 C1078 0.930 . S
H1089 C1079 0.930 . S
H1090 C1081 0.930 . S
H1091 C1082 0.930 . S
Gd1092 N1123 2.661 . S
Gd1092 N1129 2.601 . S
Gd1092 O1136 2.545 . S
Gd1092 O1137 2.606 . S
Gd1092 O1139 2.429 . S
Gd1092 O1140 2.545 . S
Gd1092 O1141 2.412 . S
Gd1092 O1143 2.362 . S
Gd1092 O1144 2.324 . S
Gd1092 C1151 2.828 . S
Gd1093 N1102 2.661 . S
Gd1093 N1106 2.601 . S
Gd1093 O1137 2.362 . S
Gd1093 O1138 2.324 . S
Gd1093 O1142 2.545 . S
Gd1093 O1143 2.606 . S
Gd1093 O1145 2.429 . S
Gd1093 O1146 2.545 . S
Gd1093 O1147 2.412 . S
Gd1093 C1160 2.828 . S
C1094 C1097 1.417 . S
C1094 C1099 1.431 . S
C1094 C1100 1.412 . S
C1095 C1098 1.437 . S
C1095 C1099 1.317 . S
C1095 H1114 0.929 . S
C1096 C1097 1.426 . S
C1096 C1098 1.413 . S
C1096 N1106 1.359 . S
C1097 C1094 1.417 . S
C1097 C1096 1.426 . S
C1097 N1102 1.350 . S
C1098 C1095 1.437 . S
C1098 C1096 1.413 . S
C1098 C1108 1.391 . S
C1099 C1094 1.431 . S
C1099 C1095 1.317 . S
C1099 H1110 0.930 . S
C1100 C1094 1.412 . S
C1100 C1101 1.355 . S
C1100 H1112 0.930 . S
C1101 C1100 1.355 . S
C1101 C1103 1.402 . S
C1101 H1113 0.930 . S
N1102 Gd1093 2.661 . S
N1102 C1097 1.350 . S
N1102 C1103 1.307 . S
C1103 C1101 1.402 . S
C1103 N1102 1.307 . S
C1103 H1104 0.930 . S
H1104 C1103 0.930 . S
C1105 N1106 1.334 . S
C1105 C1107 1.394 . S
C1105 H1109 0.930 . S
N1106 Gd1093 2.601 . S
N1106 C1096 1.359 . S
N1106 C1105 1.334 . S
C1107 C1105 1.394 . S
C1107 C1108 1.359 . S
C1107 H1119 0.930 . S
C1108 C1098 1.391 . S
C1108 C1107 1.359 . S
C1108 H1120 0.929 . S
H1109 C1105 0.930 . S
H1110 C1099 0.930 . S
H1111 C1128 0.930 . S
H1112 C1100 0.930 . S
H1113 C1101 0.930 . S
H1114 C1095 0.929 . S
H1115 C1133 0.930 . S
H1116 C1124 0.930 . S
H1117 C1125 0.930 . S
H1118 C1149 0.929 . S
H1119 C1107 0.930 . S
H1120 C1108 0.929 . S
H1121 C1150 0.930 . S
H1122 C1131 0.930 . S
N1123 Gd1092 2.661 . S
N1123 C1127 1.350 . S
N1123 C1128 1.307 . S
C1124 H1116 0.930 . S
C1124 C1125 1.355 . S
C1124 C1126 1.412 . S
C1125 H1117 0.930 . S
C1125 C1124 1.355 . S
C1125 C1128 1.402 . S
C1126 C1124 1.412 . S
C1126 C1127 1.417 . S
C1126 C1150 1.431 . S
C1127 N1123 1.350 . S
C1127 C1126 1.417 . S
C1127 C1130 1.426 . S
C1128 H1111 0.930 . S
C1128 N1123 1.307 . S
C1128 C1125 1.402 . S
N1129 Gd1092 2.601 . S
N1129 C1130 1.359 . S
N1129 C1133 1.334 . S
C1130 C1127 1.426 . S
C1130 N1129 1.359 . S
C1130 C1134 1.413 . S
C1131 H1122 0.930 . S
C1131 C1132 1.359 . S
C1131 C1133 1.394 . S
C1132 C1131 1.359 . S
C1132 C1134 1.391 . S
C1132 H1135 0.929 . S
C1133 H1115 0.930 . S
C1133 N1129 1.334 . S
C1133 C1131 1.394 . S
C1134 C1130 1.413 . S
C1134 C1132 1.391 . S
C1134 C1149 1.437 . S
H1135 C1132 0.929 . S
O1136 Gd1092 2.545 . S
O1136 C1151 1.258 . S
O1137 Gd1092 2.606 . S
O1137 Gd1093 2.362 . S
O1137 C1148 1.284 . S
O1138 Gd1093 2.324 . S
O1138 C1158 1.254 . S
O1139 Gd1092 2.429 . S
O1139 C1158 1.268 . S
O1140 Gd1092 2.545 . S
O1140 C1148 1.250 . S
O1141 Gd1092 2.412 . S
O1141 C1151 1.252 . S
O1142 Gd1093 2.545 . S
O1142 C1160 1.258 . S
O1143 Gd1092 2.362 . S
O1143 Gd1093 2.606 . S
O1143 C1159 1.284 . S
O1144 Gd1092 2.324 . S
O1144 C1167 1.254 . S
O1145 Gd1093 2.429 . S
O1145 C1167 1.268 . S
O1146 Gd1093 2.545 . S
O1146 C1159 1.250 . S
O1147 Gd1093 2.412 . S
O1147 C1160 1.252 . S
C1148 O1137 1.284 . S
C1148 O1140 1.250 . S
C1149 H1118 0.929 . S
C1149 C1134 1.437 . S
C1149 C1150 1.317 . S
C1150 H1121 0.930 . S
C1150 C1126 1.431 . S
C1150 C1149 1.317 . S
C1151 Gd1092 2.828 . S
C1151 O1136 1.258 . S
C1151 O1141 1.252 . S
C1151 C1152 1.497 . S
C1152 C1151 1.497 . S
C1152 C1153 1.395 . S
C1152 C1154 1.380 . S
C1153 C1152 1.395 . S
C1153 C1156 1.398 . S
C1153 H1168 0.930 . S
C1154 C1152 1.380 . S
C1154 C1155 1.391 . S
C1154 H1169 0.930 . S
C1155 C1154 1.391 . S
C1155 C1157 1.387 . S
C1156 C1153 1.398 . S
C1156 C1157 1.380 . S
C1156 H1170 0.930 . S
C1157 C1155 1.387 . S
C1157 C1156 1.380 . S
C1157 H1171 0.930 . S
C1158 O1138 1.254 . S
C1158 O1139 1.268 . S
C1159 O1143 1.284 . S
C1159 O1146 1.250 . S
C1160 Gd1093 2.828 . S
C1160 O1142 1.258 . S
C1160 O1147 1.252 . S
C1160 C1161 1.497 . S
C1161 C1160 1.497 . S
C1161 C1162 1.395 . S
C1161 C1163 1.380 . S
C1162 C1161 1.395 . S
C1162 C1165 1.398 . S
C1162 H1172 0.930 . S
C1163 C1161 1.380 . S
C1163 C1164 1.391 . S
C1163 H1173 0.930 . S
C1164 C1163 1.391 . S
C1164 C1166 1.387 . S
C1165 C1162 1.398 . S
C1165 C1166 1.380 . S
C1165 H1174 0.930 . S
C1166 C1164 1.387 . S
C1166 C1165 1.380 . S
C1166 H1175 0.930 . S
C1167 O1144 1.254 . S
C1167 O1145 1.268 . S
H1168 C1153 0.930 . S
H1169 C1154 0.930 . S
H1170 C1156 0.930 . S
H1171 C1157 0.930 . S
H1172 C1162 0.930 . S
H1173 C1163 0.930 . S
H1174 C1165 0.930 . S
H1175 C1166 0.930 . S
Gd1176 N1207 2.661 . S
Gd1176 N1213 2.601 . S
Gd1176 O1220 2.545 . S
Gd1176 O1221 2.606 . S
Gd1176 O1223 2.429 . S
Gd1176 O1224 2.545 . S
Gd1176 O1225 2.412 . S
Gd1176 O1227 2.362 . S
Gd1176 O1228 2.324 . S
Gd1176 C1235 2.828 . S
Gd1177 N1186 2.661 . S
Gd1177 N1190 2.601 . S
Gd1177 O1221 2.362 . S
Gd1177 O1222 2.324 . S
Gd1177 O1226 2.545 . S
Gd1177 O1227 2.606 . S
Gd1177 O1229 2.429 . S
Gd1177 O1230 2.545 . S
Gd1177 O1231 2.412 . S
Gd1177 C1244 2.828 . S
C1178 C1181 1.417 . S
C1178 C1183 1.431 . S
C1178 C1184 1.412 . S
C1179 C1182 1.437 . S
C1179 C1183 1.317 . S
C1179 H1198 0.929 . S
C1180 C1181 1.426 . S
C1180 C1182 1.413 . S
C1180 N1190 1.359 . S
C1181 C1178 1.417 . S
C1181 C1180 1.426 . S
C1181 N1186 1.350 . S
C1182 C1179 1.437 . S
C1182 C1180 1.413 . S
C1182 C1192 1.391 . S
C1183 C1178 1.431 . S
C1183 C1179 1.317 . S
C1183 H1194 0.930 . S
C1184 C1178 1.412 . S
C1184 C1185 1.355 . S
C1184 H1196 0.930 . S
C1185 C1184 1.355 . S
C1185 C1187 1.402 . S
C1185 H1197 0.930 . S
N1186 Gd1177 2.661 . S
N1186 C1181 1.350 . S
N1186 C1187 1.307 . S
C1187 C1185 1.402 . S
C1187 N1186 1.307 . S
C1187 H1188 0.930 . S
H1188 C1187 0.930 . S
C1189 N1190 1.334 . S
C1189 C1191 1.394 . S
C1189 H1193 0.930 . S
N1190 Gd1177 2.601 . S
N1190 C1180 1.359 . S
N1190 C1189 1.334 . S
C1191 C1189 1.394 . S
C1191 C1192 1.359 . S
C1191 H1203 0.930 . S
C1192 C1182 1.391 . S
C1192 C1191 1.359 . S
C1192 H1204 0.929 . S
H1193 C1189 0.930 . S
H1194 C1183 0.930 . S
H1195 C1212 0.930 . S
H1196 C1184 0.930 . S
H1197 C1185 0.930 . S
H1198 C1179 0.929 . S
H1199 C1217 0.930 . S
H1200 C1208 0.930 . S
H1201 C1209 0.930 . S
H1202 C1233 0.929 . S
H1203 C1191 0.930 . S
H1204 C1192 0.929 . S
H1205 C1234 0.930 . S
H1206 C1215 0.930 . S
N1207 Gd1176 2.661 . S
N1207 C1211 1.350 . S
N1207 C1212 1.307 . S
C1208 H1200 0.930 . S
C1208 C1209 1.355 1_655 S
C1208 C1210 1.412 . S
C1209 H1201 0.930 . S
C1209 C1208 1.355 1_455 S
C1209 C1212 1.402 . S
C1210 C1208 1.412 . S
C1210 C1211 1.417 1_655 S
C1210 C1234 1.431 . S
C1211 N1207 1.350 . S
C1211 C1210 1.417 1_455 S
C1211 C1214 1.426 . S
C1212 H1195 0.930 . S
C1212 N1207 1.307 . S
C1212 C1209 1.402 . S
N1213 Gd1176 2.601 . S
N1213 C1214 1.359 . S
N1213 C1217 1.334 . S
C1214 C1211 1.426 . S
C1214 N1213 1.359 . S
C1214 C1218 1.413 1_455 S
C1215 H1206 0.930 . S
C1215 C1216 1.331 1_455 S
C1215 C1217 1.394 . S
C1216 C1215 1.331 1_655 S
C1216 C1218 1.387 . S
C1216 H1219 0.963 . S
C1217 H1199 0.930 . S
C1217 N1213 1.334 . S
C1217 C1215 1.394 . S
C1218 C1214 1.413 1_655 S
C1218 C1216 1.387 . S
C1218 C1233 1.437 . S
H1219 C1216 0.963 . S
O1220 Gd1176 2.545 . S
O1220 C1235 1.258 . S
O1221 Gd1176 2.606 . S
O1221 Gd1177 2.362 . S
O1221 C1232 1.284 . S
O1222 Gd1177 2.324 . S
O1222 C1242 1.254 . S
O1223 Gd1176 2.429 . S
O1223 C1242 1.268 . S
O1224 Gd1176 2.545 . S
O1224 C1232 1.250 . S
O1225 Gd1176 2.412 . S
O1225 C1235 1.252 . S
O1226 Gd1177 2.545 . S
O1226 C1244 1.258 . S
O1227 Gd1176 2.362 . S
O1227 Gd1177 2.606 . S
O1227 C1243 1.284 . S
O1228 Gd1176 2.324 . S
O1228 C1251 1.254 . S
O1229 Gd1177 2.429 . S
O1229 C1251 1.268 . S
O1230 Gd1177 2.545 . S
O1230 C1243 1.250 . S
O1231 Gd1177 2.412 . S
O1231 C1244 1.252 . S
C1232 O1221 1.284 . S
C1232 O1224 1.250 . S
C1233 H1202 0.929 . S
C1233 C1218 1.437 . S
C1233 C1234 1.317 . S
C1234 H1205 0.930 . S
C1234 C1210 1.431 . S
C1234 C1233 1.317 . S
C1235 Gd1176 2.828 . S
C1235 O1220 1.258 . S
C1235 O1225 1.252 . S
C1235 C1236 1.497 . S
C1236 C1235 1.497 . S
C1236 C1237 1.395 . S
C1236 C1238 1.380 . S
C1237 C1236 1.395 . S
C1237 C1240 1.398 . S
C1237 H1252 0.930 . S
C1238 C1236 1.380 . S
C1238 C1239 1.391 . S
C1238 H1253 0.930 . S
C1239 C1238 1.391 . S
C1239 C1241 1.387 . S
C1240 C1237 1.398 . S
C1240 C1241 1.380 . S
C1240 H1254 0.930 . S
C1241 C1239 1.387 . S
C1241 C1240 1.380 . S
C1241 H1255 0.930 . S
C1242 O1222 1.254 . S
C1242 O1223 1.268 . S
C1243 O1227 1.284 . S
C1243 O1230 1.250 . S
C1244 Gd1177 2.828 . S
C1244 O1226 1.258 . S
C1244 O1231 1.252 . S
C1244 C1245 1.497 . S
C1245 C1244 1.497 . S
C1245 C1246 1.395 . S
C1245 C1247 1.380 . S
C1246 C1245 1.395 . S
C1246 C1249 1.398 . S
C1246 H1256 0.930 . S
C1247 C1245 1.380 . S
C1247 C1248 1.391 . S
C1247 H1257 0.930 . S
C1248 C1247 1.391 . S
C1248 C1250 1.387 . S
C1249 C1246 1.398 . S
C1249 C1250 1.380 . S
C1249 H1258 0.930 . S
C1250 C1248 1.387 . S
C1250 C1249 1.380 . S
C1250 H1259 0.930 . S
C1251 O1228 1.254 . S
C1251 O1229 1.268 . S
H1252 C1237 0.930 . S
H1253 C1238 0.930 . S
H1254 C1240 0.930 . S
H1255 C1241 0.930 . S
H1256 C1246 0.930 . S
H1257 C1247 0.930 . S
H1258 C1249 0.930 . S
H1259 C1250 0.930 . S
Gd1260 N1291 2.661 . S
Gd1260 N1297 2.601 . S
Gd1260 O1304 2.545 . S
Gd1260 O1305 2.606 . S
Gd1260 O1307 2.429 . S
Gd1260 O1308 2.545 . S
Gd1260 O1309 2.412 . S
Gd1260 O1311 2.362 . S
Gd1260 O1312 2.324 . S
Gd1260 C1319 2.828 . S
Gd1261 N1270 2.661 . S
Gd1261 N1274 2.601 . S
Gd1261 O1305 2.362 . S
Gd1261 O1306 2.324 . S
Gd1261 O1310 2.545 . S
Gd1261 O1311 2.606 . S
Gd1261 O1313 2.429 . S
Gd1261 O1314 2.545 . S
Gd1261 O1315 2.412 . S
Gd1261 C1328 2.828 . S
C1262 C1265 1.417 . S
C1262 C1267 1.431 . S
C1262 C1268 1.412 . S
C1263 C1266 1.437 . S
C1263 C1267 1.317 . S
C1263 H1282 0.929 . S
C1264 C1265 1.426 . S
C1264 C1266 1.413 . S
C1264 N1274 1.359 . S
C1265 C1262 1.417 . S
C1265 C1264 1.426 . S
C1265 N1270 1.350 . S
C1266 C1263 1.437 . S
C1266 C1264 1.413 . S
C1266 C1276 1.391 . S
C1267 C1262 1.431 . S
C1267 C1263 1.317 . S
C1267 H1278 0.930 . S
C1268 C1262 1.412 . S
C1268 C1269 1.355 . S
C1268 H1280 0.930 . S
C1269 C1268 1.355 . S
C1269 C1271 1.402 . S
C1269 H1281 0.930 . S
N1270 Gd1261 2.661 . S
N1270 C1265 1.350 . S
N1270 C1271 1.307 . S
C1271 C1269 1.402 . S
C1271 N1270 1.307 . S
C1271 H1272 0.930 . S
H1272 C1271 0.930 . S
C1273 N1274 1.334 . S
C1273 C1275 1.394 . S
C1273 H1277 0.930 . S
N1274 Gd1261 2.601 . S
N1274 C1264 1.359 . S
N1274 C1273 1.334 . S
C1275 C1273 1.394 . S
C1275 C1276 1.359 . S
C1275 H1287 0.930 . S
C1276 C1266 1.391 . S
C1276 C1275 1.359 . S
C1276 H1288 0.929 . S
H1277 C1273 0.930 . S
H1278 C1267 0.930 . S
H1279 C1296 0.930 . S
H1280 C1268 0.930 . S
H1281 C1269 0.930 . S
H1282 C1263 0.929 . S
H1283 C1301 0.930 . S
H1284 C1292 0.930 . S
H1285 C1293 0.930 . S
H1286 C1317 0.929 . S
H1287 C1275 0.930 . S
H1288 C1276 0.929 . S
H1289 C1318 0.930 . S
H1290 C1299 0.930 . S
N1291 Gd1260 2.661 . S
N1291 C1295 1.350 . S
N1291 C1296 1.307 . S
C1292 H1284 0.930 . S
C1292 C1293 1.355 . S
C1292 C1294 1.412 . S
C1293 H1285 0.930 . S
C1293 C1292 1.355 . S
C1293 C1296 1.402 . S
C1294 C1292 1.412 . S
C1294 C1295 1.417 . S
C1294 C1318 1.431 . S
C1295 N1291 1.350 . S
C1295 C1294 1.417 . S
C1295 C1298 1.426 . S
C1296 H1279 0.930 . S
C1296 N1291 1.307 . S
C1296 C1293 1.402 . S
N1297 Gd1260 2.601 . S
N1297 C1298 1.359 . S
N1297 C1301 1.334 . S
C1298 C1295 1.426 . S
C1298 N1297 1.359 . S
C1298 C1302 1.413 . S
C1299 H1290 0.930 . S
C1299 C1300 1.359 . S
C1299 C1301 1.394 . S
C1300 C1299 1.359 . S
C1300 C1302 1.391 . S
C1300 H1303 0.929 . S
C1301 H1283 0.930 . S
C1301 N1297 1.334 . S
C1301 C1299 1.394 . S
C1302 C1298 1.413 . S
C1302 C1300 1.391 . S
C1302 C1317 1.437 . S
H1303 C1300 0.929 . S
O1304 Gd1260 2.545 . S
O1304 C1319 1.258 . S
O1305 Gd1260 2.606 . S
O1305 Gd1261 2.362 . S
O1305 C1316 1.284 . S
O1306 Gd1261 2.324 . S
O1306 C1326 1.254 . S
O1307 Gd1260 2.429 . S
O1307 C1326 1.268 . S
O1308 Gd1260 2.545 . S
O1308 C1316 1.250 . S
O1309 Gd1260 2.412 . S
O1309 C1319 1.252 . S
O1310 Gd1261 2.545 . S
O1310 C1328 1.258 . S
O1311 Gd1260 2.362 . S
O1311 Gd1261 2.606 . S
O1311 C1327 1.284 . S
O1312 Gd1260 2.324 . S
O1312 C1335 1.254 . S
O1313 Gd1261 2.429 . S
O1313 C1335 1.268 . S
O1314 Gd1261 2.545 . S
O1314 C1327 1.250 . S
O1315 Gd1261 2.412 . S
O1315 C1328 1.252 . S
C1316 O1305 1.284 . S
C1316 O1308 1.250 . S
C1317 H1286 0.929 . S
C1317 C1302 1.437 . S
C1317 C1318 1.317 . S
C1318 H1289 0.930 . S
C1318 C1294 1.431 . S
C1318 C1317 1.317 . S
C1319 Gd1260 2.828 . S
C1319 O1304 1.258 . S
C1319 O1309 1.252 . S
C1319 C1320 1.497 . S
C1320 C1319 1.497 . S
C1320 C1321 1.395 . S
C1320 C1322 1.380 . S
C1321 C1320 1.395 . S
C1321 C1324 1.398 . S
C1321 H1336 0.930 . S
C1322 C1320 1.380 . S
C1322 C1323 1.391 . S
C1322 H1337 0.930 . S
C1323 C1322 1.391 . S
C1323 C1325 1.387 . S
C1324 C1321 1.398 . S
C1324 C1325 1.380 . S
C1324 H1338 0.930 . S
C1325 C1323 1.387 . S
C1325 C1324 1.380 . S
C1325 H1339 0.930 . S
C1326 O1306 1.254 . S
C1326 O1307 1.268 . S
C1327 O1311 1.284 . S
C1327 O1314 1.250 . S
C1328 Gd1261 2.828 . S
C1328 O1310 1.258 . S
C1328 O1315 1.252 . S
C1328 C1329 1.497 . S
C1329 C1328 1.497 . S
C1329 C1330 1.395 . S
C1329 C1331 1.380 . S
C1330 C1329 1.395 . S
C1330 C1333 1.398 . S
C1330 H1340 0.930 . S
C1331 C1329 1.380 . S
C1331 C1332 1.391 . S
C1331 H1341 0.930 . S
C1332 C1331 1.391 . S
C1332 C1334 1.387 . S
C1333 C1330 1.398 . S
C1333 C1334 1.380 . S
C1333 H1342 0.930 . S
C1334 C1332 1.387 . S
C1334 C1333 1.380 . S
C1334 H1343 0.930 . S
C1335 O1312 1.254 . S
C1335 O1313 1.268 . S
H1336 C1321 0.930 . S
H1337 C1322 0.930 . S
H1338 C1324 0.930 . S
H1339 C1325 0.930 . S
H1340 C1330 0.930 . S
H1341 C1331 0.930 . S
H1342 C1333 0.930 . S
H1343 C1334 0.930 . S
Gd1344 N1375 2.661 . S
Gd1344 N1381 2.601 . S
Gd1344 O1388 2.545 . S
Gd1344 O1389 2.606 . S
Gd1344 O1391 2.429 . S
Gd1344 O1392 2.545 . S
Gd1344 O1393 2.412 . S
Gd1344 O1395 2.362 . S
Gd1344 O1396 2.324 . S
Gd1344 C1403 2.828 . S
Gd1345 N1354 2.661 . S
Gd1345 N1358 2.601 . S
Gd1345 O1389 2.362 . S
Gd1345 O1390 2.324 . S
Gd1345 O1394 2.545 . S
Gd1345 O1395 2.606 . S
Gd1345 O1397 2.429 . S
Gd1345 O1398 2.545 . S
Gd1345 O1399 2.412 . S
Gd1345 C1412 2.828 . S
C1346 C1349 1.417 . S
C1346 C1351 1.431 . S
C1346 C1352 1.412 . S
C1347 C1350 1.437 . S
C1347 C1351 1.317 . S
C1347 H1366 0.929 . S
C1348 C1349 1.426 . S
C1348 C1350 1.413 . S
C1348 N1358 1.359 . S
C1349 C1346 1.417 . S
C1349 C1348 1.426 . S
C1349 N1354 1.350 . S
C1350 C1347 1.437 . S
C1350 C1348 1.413 . S
C1350 C1360 1.391 . S
C1351 C1346 1.431 . S
C1351 C1347 1.317 . S
C1351 H1362 0.930 . S
C1352 C1346 1.412 . S
C1352 C1353 1.355 . S
C1352 H1364 0.930 . S
C1353 C1352 1.355 . S
C1353 C1355 1.402 . S
C1353 H1365 0.930 . S
N1354 Gd1345 2.661 . S
N1354 C1349 1.350 . S
N1354 C1355 1.307 . S
C1355 C1353 1.402 . S
C1355 N1354 1.307 . S
C1355 H1356 0.930 . S
H1356 C1355 0.930 . S
C1357 N1358 1.334 . S
C1357 C1359 1.394 . S
C1357 H1361 0.930 . S
N1358 Gd1345 2.601 . S
N1358 C1348 1.359 . S
N1358 C1357 1.334 . S
C1359 C1357 1.394 . S
C1359 C1360 1.359 . S
C1359 H1371 0.930 . S
C1360 C1350 1.391 . S
C1360 C1359 1.359 . S
C1360 H1372 0.929 . S
H1361 C1357 0.930 . S
H1362 C1351 0.930 . S
H1363 C1380 0.930 . S
H1364 C1352 0.930 . S
H1365 C1353 0.930 . S
H1366 C1347 0.929 . S
H1367 C1385 0.930 . S
H1368 C1376 0.930 . S
H1369 C1377 0.930 . S
H1370 C1401 0.929 . S
H1371 C1359 0.930 . S
H1372 C1360 0.929 . S
H1373 C1402 0.930 . S
H1374 C1383 0.930 . S
N1375 Gd1344 2.661 . S
N1375 C1379 1.350 . S
N1375 C1380 1.307 . S
C1376 H1368 0.930 . S
C1376 C1377 1.355 . S
C1376 C1378 1.412 . S
C1377 H1369 0.930 . S
C1377 C1376 1.355 . S
C1377 C1380 1.402 . S
C1378 C1376 1.412 . S
C1378 C1379 1.417 . S
C1378 C1402 1.431 . S
C1379 N1375 1.350 . S
C1379 C1378 1.417 . S
C1379 C1382 1.426 . S
C1380 H1363 0.930 . S
C1380 N1375 1.307 . S
C1380 C1377 1.402 . S
N1381 Gd1344 2.601 . S
N1381 C1382 1.359 . S
N1381 C1385 1.334 . S
C1382 C1379 1.426 . S
C1382 N1381 1.359 . S
C1382 C1386 1.413 . S
C1383 H1374 0.930 . S
C1383 C1384 1.359 . S
C1383 C1385 1.394 . S
C1384 C1383 1.359 . S
C1384 C1386 1.391 . S
C1384 H1387 0.929 . S
C1385 H1367 0.930 . S
C1385 N1381 1.334 . S
C1385 C1383 1.394 . S
C1386 C1382 1.413 . S
C1386 C1384 1.391 . S
C1386 C1401 1.437 . S
H1387 C1384 0.929 . S
O1388 Gd1344 2.545 . S
O1388 C1403 1.258 . S
O1389 Gd1344 2.606 . S
O1389 Gd1345 2.362 . S
O1389 C1400 1.284 . S
O1390 Gd1345 2.324 . S
O1390 C1410 1.254 . S
O1391 Gd1344 2.429 . S
O1391 C1410 1.268 . S
O1392 Gd1344 2.545 . S
O1392 C1400 1.250 . S
O1393 Gd1344 2.412 . S
O1393 C1403 1.252 . S
O1394 Gd1345 2.545 . S
O1394 C1412 1.258 . S
O1395 Gd1344 2.362 . S
O1395 Gd1345 2.606 . S
O1395 C1411 1.284 . S
O1396 Gd1344 2.324 . S
O1396 C1419 1.254 . S
O1397 Gd1345 2.429 . S
O1397 C1419 1.268 . S
O1398 Gd1345 2.545 . S
O1398 C1411 1.250 . S
O1399 Gd1345 2.412 . S
O1399 C1412 1.252 . S
C1400 O1389 1.284 . S
C1400 O1392 1.250 . S
C1401 H1370 0.929 . S
C1401 C1386 1.437 . S
C1401 C1402 1.317 . S
C1402 H1373 0.930 . S
C1402 C1378 1.431 . S
C1402 C1401 1.317 . S
C1403 Gd1344 2.828 . S
C1403 O1388 1.258 . S
C1403 O1393 1.252 . S
C1403 C1404 1.497 . S
C1404 C1403 1.497 . S
C1404 C1405 1.395 . S
C1404 C1406 1.380 . S
C1405 C1404 1.395 . S
C1405 C1408 1.398 . S
C1405 H1420 0.930 . S
C1406 C1404 1.380 . S
C1406 C1407 1.391 . S
C1406 H1421 0.930 . S
C1407 C1406 1.391 . S
C1407 C1409 1.387 . S
C1408 C1405 1.398 . S
C1408 C1409 1.380 . S
C1408 H1422 0.930 . S
C1409 C1407 1.387 . S
C1409 C1408 1.380 . S
C1409 H1423 0.930 . S
C1410 O1390 1.254 . S
C1410 O1391 1.268 . S
C1411 O1395 1.284 . S
C1411 O1398 1.250 . S
C1412 Gd1345 2.828 . S
C1412 O1394 1.258 . S
C1412 O1399 1.252 . S
C1412 C1413 1.497 . S
C1413 C1412 1.497 . S
C1413 C1414 1.395 . S
C1413 C1415 1.380 . S
C1414 C1413 1.395 . S
C1414 C1417 1.398 . S
C1414 H1424 0.930 . S
C1415 C1413 1.380 . S
C1415 C1416 1.391 . S
C1415 H1425 0.930 . S
C1416 C1415 1.391 . S
C1416 C1418 1.387 . S
C1417 C1414 1.398 . S
C1417 C1418 1.380 . S
C1417 H1426 0.930 . S
C1418 C1416 1.387 . S
C1418 C1417 1.380 . S
C1418 H1427 0.930 . S
C1419 O1396 1.254 . S
C1419 O1397 1.268 . S
H1420 C1405 0.930 . S
H1421 C1406 0.930 . S
H1422 C1408 0.930 . S
H1423 C1409 0.930 . S
H1424 C1414 0.930 . S
H1425 C1415 0.930 . S
H1426 C1417 0.930 . S
H1427 C1418 0.930 . S
Gd1428 N1459 2.661 . S
Gd1428 N1465 2.601 . S
Gd1428 O1472 2.545 . S
Gd1428 O1473 2.606 . S
Gd1428 O1475 2.429 . S
Gd1428 O1476 2.545 . S
Gd1428 O1477 2.412 . S
Gd1428 O1479 2.362 . S
Gd1428 O1480 2.324 . S
Gd1428 C1487 2.828 . S
Gd1429 N1438 2.661 . S
Gd1429 N1442 2.601 . S
Gd1429 O1473 2.362 . S
Gd1429 O1474 2.324 . S
Gd1429 O1478 2.545 . S
Gd1429 O1479 2.606 . S
Gd1429 O1481 2.429 . S
Gd1429 O1482 2.545 . S
Gd1429 O1483 2.412 . S
Gd1429 C1496 2.828 . S
C1430 C1433 1.417 . S
C1430 C1435 1.431 . S
C1430 C1436 1.412 . S
C1431 C1434 1.437 . S
C1431 C1435 1.317 . S
C1431 H1450 0.929 . S
C1432 C1433 1.426 . S
C1432 C1434 1.413 . S
C1432 N1442 1.359 . S
C1433 C1430 1.417 . S
C1433 C1432 1.426 . S
C1433 N1438 1.350 . S
C1434 C1431 1.437 . S
C1434 C1432 1.413 . S
C1434 C1444 1.391 . S
C1435 C1430 1.431 . S
C1435 C1431 1.317 . S
C1435 H1446 0.930 . S
C1436 C1430 1.412 . S
C1436 C1437 1.355 . S
C1436 H1448 0.930 . S
C1437 C1436 1.355 . S
C1437 C1439 1.402 . S
C1437 H1449 0.930 . S
N1438 Gd1429 2.661 . S
N1438 C1433 1.350 . S
N1438 C1439 1.307 . S
C1439 C1437 1.402 . S
C1439 N1438 1.307 . S
C1439 H1440 0.930 . S
H1440 C1439 0.930 . S
C1441 N1442 1.334 . S
C1441 C1443 1.394 . S
C1441 H1445 0.930 . S
N1442 Gd1429 2.601 . S
N1442 C1432 1.359 . S
N1442 C1441 1.334 . S
C1443 C1441 1.394 . S
C1443 C1444 1.359 . S
C1443 H1455 0.930 . S
C1444 C1434 1.391 . S
C1444 C1443 1.359 . S
C1444 H1456 0.929 . S
H1445 C1441 0.930 . S
H1446 C1435 0.930 . S
H1447 C1464 0.930 . S
H1448 C1436 0.930 . S
H1449 C1437 0.930 . S
H1450 C1431 0.929 . S
H1451 C1469 0.930 . S
H1452 C1460 0.930 . S
H1453 C1461 0.930 . S
H1454 C1485 0.929 . S
H1455 C1443 0.930 . S
H1456 C1444 0.929 . S
H1457 C1486 0.930 . S
H1458 C1467 0.930 . S
N1459 Gd1428 2.661 . S
N1459 C1463 1.350 . S
N1459 C1464 1.307 . S
C1460 H1452 0.930 . S
C1460 C1461 1.355 . S
C1460 C1462 1.412 . S
C1461 H1453 0.930 . S
C1461 C1460 1.355 . S
C1461 C1464 1.402 . S
C1462 C1460 1.412 . S
C1462 C1463 1.417 . S
C1462 C1486 1.431 . S
C1463 N1459 1.350 . S
C1463 C1462 1.417 . S
C1463 C1466 1.426 . S
C1464 H1447 0.930 . S
C1464 N1459 1.307 . S
C1464 C1461 1.402 . S
N1465 Gd1428 2.601 . S
N1465 C1466 1.359 . S
N1465 C1469 1.334 . S
C1466 C1463 1.426 . S
C1466 N1465 1.359 . S
C1466 C1470 1.413 . S
C1467 H1458 0.930 . S
C1467 C1468 1.359 . S
C1467 C1469 1.394 . S
C1468 C1467 1.359 . S
C1468 C1470 1.391 . S
C1468 H1471 0.929 . S
C1469 H1451 0.930 . S
C1469 N1465 1.334 . S
C1469 C1467 1.394 . S
C1470 C1466 1.413 . S
C1470 C1468 1.391 . S
C1470 C1485 1.437 . S
H1471 C1468 0.929 . S
O1472 Gd1428 2.545 . S
O1472 C1487 1.258 . S
O1473 Gd1428 2.606 . S
O1473 Gd1429 2.362 . S
O1473 C1484 1.284 . S
O1474 Gd1429 2.324 . S
O1474 C1494 1.254 . S
O1475 Gd1428 2.429 . S
O1475 C1494 1.268 . S
O1476 Gd1428 2.545 . S
O1476 C1484 1.250 . S
O1477 Gd1428 2.412 . S
O1477 C1487 1.252 . S
O1478 Gd1429 2.545 . S
O1478 C1496 1.258 . S
O1479 Gd1428 2.362 . S
O1479 Gd1429 2.606 . S
O1479 C1495 1.284 . S
O1480 Gd1428 2.324 . S
O1480 C1503 1.254 . S
O1481 Gd1429 2.429 . S
O1481 C1503 1.268 . S
O1482 Gd1429 2.545 . S
O1482 C1495 1.250 . S
O1483 Gd1429 2.412 . S
O1483 C1496 1.252 . S
C1484 O1473 1.284 . S
C1484 O1476 1.250 . S
C1485 H1454 0.929 . S
C1485 C1470 1.437 . S
C1485 C1486 1.317 . S
C1486 H1457 0.930 . S
C1486 C1462 1.431 . S
C1486 C1485 1.317 . S
C1487 Gd1428 2.828 . S
C1487 O1472 1.258 . S
C1487 O1477 1.252 . S
C1487 C1488 1.497 . S
C1488 C1487 1.497 . S
C1488 C1489 1.395 . S
C1488 C1490 1.380 . S
C1489 C1488 1.395 . S
C1489 C1492 1.398 . S
C1489 H1504 0.930 . S
C1490 C1488 1.380 . S
C1490 C1491 1.391 . S
C1490 H1505 0.930 . S
C1491 C1490 1.391 . S
C1491 C1493 1.387 . S
C1492 C1489 1.398 . S
C1492 C1493 1.380 . S
C1492 H1506 0.930 . S
C1493 C1491 1.387 . S
C1493 C1492 1.380 . S
C1493 H1507 0.930 . S
C1494 O1474 1.254 . S
C1494 O1475 1.268 . S
C1495 O1479 1.284 . S
C1495 O1482 1.250 . S
C1496 Gd1429 2.828 . S
C1496 O1478 1.258 . S
C1496 O1483 1.252 . S
C1496 C1497 1.497 . S
C1497 C1496 1.497 . S
C1497 C1498 1.395 . S
C1497 C1499 1.380 . S
C1498 C1497 1.395 . S
C1498 C1501 1.398 . S
C1498 H1508 0.930 . S
C1499 C1497 1.380 . S
C1499 C1500 1.391 . S
C1499 H1509 0.930 . S
C1500 C1499 1.391 . S
C1500 C1502 1.387 . S
C1501 C1498 1.398 . S
C1501 C1502 1.380 . S
C1501 H1510 0.930 . S
C1502 C1500 1.387 . S
C1502 C1501 1.380 . S
C1502 H1511 0.930 . S
C1503 O1480 1.254 . S
C1503 O1481 1.268 . S
H1504 C1489 0.930 . S
H1505 C1490 0.930 . S
H1506 C1492 0.930 . S
H1507 C1493 0.930 . S
H1508 C1498 0.930 . S
H1509 C1499 0.930 . S
H1510 C1501 0.930 . S
H1511 C1502 0.930 . S
Gd1512 N1543 2.661 . S
Gd1512 N1549 2.601 . S
Gd1512 O1556 2.545 . S
Gd1512 O1557 2.606 . S
Gd1512 O1559 2.429 . S
Gd1512 O1560 2.545 . S
Gd1512 O1561 2.412 . S
Gd1512 O1563 2.362 . S
Gd1512 O1564 2.324 . S
Gd1512 C1571 2.828 . S
Gd1513 N1522 2.661 . S
Gd1513 N1526 2.601 . S
Gd1513 O1557 2.362 . S
Gd1513 O1558 2.324 . S
Gd1513 O1562 2.545 . S
Gd1513 O1563 2.606 . S
Gd1513 O1565 2.429 . S
Gd1513 O1566 2.545 . S
Gd1513 O1567 2.412 . S
Gd1513 C1580 2.828 . S
C1514 C1517 1.417 . S
C1514 C1519 1.431 . S
C1514 C1520 1.412 . S
C1515 C1518 1.437 . S
C1515 C1519 1.317 . S
C1515 H1534 0.929 . S
C1516 C1517 1.426 . S
C1516 C1518 1.413 . S
C1516 N1526 1.359 . S
C1517 C1514 1.417 . S
C1517 C1516 1.426 . S
C1517 N1522 1.350 . S
C1518 C1515 1.437 . S
C1518 C1516 1.413 . S
C1518 C1528 1.391 . S
C1519 C1514 1.431 . S
C1519 C1515 1.317 . S
C1519 H1530 0.930 . S
C1520 C1514 1.412 . S
C1520 C1521 1.355 . S
C1520 H1532 0.930 . S
C1521 C1520 1.355 . S
C1521 C1523 1.402 . S
C1521 H1533 0.930 . S
N1522 Gd1513 2.661 . S
N1522 C1517 1.350 . S
N1522 C1523 1.307 . S
C1523 C1521 1.402 . S
C1523 N1522 1.307 . S
C1523 H1524 0.930 . S
H1524 C1523 0.930 . S
C1525 N1526 1.334 . S
C1525 C1527 1.394 . S
C1525 H1529 0.930 . S
N1526 Gd1513 2.601 . S
N1526 C1516 1.359 . S
N1526 C1525 1.334 . S
C1527 C1525 1.394 . S
C1527 C1528 1.359 . S
C1527 H1539 0.930 . S
C1528 C1518 1.391 . S
C1528 C1527 1.359 . S
C1528 H1540 0.929 . S
H1529 C1525 0.930 . S
H1530 C1519 0.930 . S
H1531 C1548 0.930 . S
H1532 C1520 0.930 . S
H1533 C1521 0.930 . S
H1534 C1515 0.929 . S
H1535 C1553 0.930 . S
H1536 C1544 0.930 . S
H1537 C1545 0.930 . S
H1538 C1569 0.929 . S
H1539 C1527 0.930 . S
H1540 C1528 0.929 . S
H1541 C1570 0.930 . S
H1542 C1551 0.930 . S
N1543 Gd1512 2.661 . S
N1543 C1547 1.350 . S
N1543 C1548 1.307 . S
C1544 H1536 0.930 . S
C1544 C1545 1.355 . S
C1544 C1546 1.412 . S
C1545 H1537 0.930 . S
C1545 C1544 1.355 . S
C1545 C1548 1.402 . S
C1546 C1544 1.412 . S
C1546 C1547 1.417 . S
C1546 C1570 1.431 . S
C1547 N1543 1.350 . S
C1547 C1546 1.417 . S
C1547 C1550 1.426 . S
C1548 H1531 0.930 . S
C1548 N1543 1.307 . S
C1548 C1545 1.402 . S
N1549 Gd1512 2.601 . S
N1549 C1550 1.359 . S
N1549 C1553 1.334 . S
C1550 C1547 1.426 . S
C1550 N1549 1.359 . S
C1550 C1554 1.413 . S
C1551 H1542 0.930 . S
C1551 C1552 1.359 . S
C1551 C1553 1.394 . S
C1552 C1551 1.359 . S
C1552 C1554 1.391 . S
C1552 H1555 0.929 . S
C1553 H1535 0.930 . S
C1553 N1549 1.334 . S
C1553 C1551 1.394 . S
C1554 C1550 1.413 . S
C1554 C1552 1.391 . S
C1554 C1569 1.437 . S
H1555 C1552 0.929 . S
O1556 Gd1512 2.545 . S
O1556 C1571 1.258 . S
O1557 Gd1512 2.606 . S
O1557 Gd1513 2.362 . S
O1557 C1568 1.284 . S
O1558 Gd1513 2.324 . S
O1558 C1578 1.254 . S
O1559 Gd1512 2.429 . S
O1559 C1578 1.268 . S
O1560 Gd1512 2.545 . S
O1560 C1568 1.250 . S
O1561 Gd1512 2.412 . S
O1561 C1571 1.252 . S
O1562 Gd1513 2.545 . S
O1562 C1580 1.258 . S
O1563 Gd1512 2.362 . S
O1563 Gd1513 2.606 . S
O1563 C1579 1.284 . S
O1564 Gd1512 2.324 . S
O1564 C1587 1.254 . S
O1565 Gd1513 2.429 . S
O1565 C1587 1.268 . S
O1566 Gd1513 2.545 . S
O1566 C1579 1.250 . S
O1567 Gd1513 2.412 . S
O1567 C1580 1.252 . S
C1568 O1557 1.284 . S
C1568 O1560 1.250 . S
C1569 H1538 0.929 . S
C1569 C1554 1.437 . S
C1569 C1570 1.317 . S
C1570 H1541 0.930 . S
C1570 C1546 1.431 . S
C1570 C1569 1.317 . S
C1571 Gd1512 2.828 . S
C1571 O1556 1.258 . S
C1571 O1561 1.252 . S
C1571 C1572 1.497 . S
C1572 C1571 1.497 . S
C1572 C1573 1.395 . S
C1572 C1574 1.380 . S
C1573 C1572 1.395 . S
C1573 C1576 1.398 . S
C1573 H1588 0.930 . S
C1574 C1572 1.380 . S
C1574 C1575 1.391 . S
C1574 H1589 0.930 . S
C1575 C1574 1.391 . S
C1575 C1577 1.387 . S
C1576 C1573 1.398 . S
C1576 C1577 1.380 . S
C1576 H1590 0.930 . S
C1577 C1575 1.387 . S
C1577 C1576 1.380 . S
C1577 H1591 0.930 . S
C1578 O1558 1.254 . S
C1578 O1559 1.268 . S
C1579 O1563 1.284 . S
C1579 O1566 1.250 . S
C1580 Gd1513 2.828 . S
C1580 O1562 1.258 . S
C1580 O1567 1.252 . S
C1580 C1581 1.497 . S
C1581 C1580 1.497 . S
C1581 C1582 1.395 . S
C1581 C1583 1.380 . S
C1582 C1581 1.395 . S
C1582 C1585 1.398 . S
C1582 H1592 0.930 . S
C1583 C1581 1.380 . S
C1583 C1584 1.391 . S
C1583 H1593 0.930 . S
C1584 C1583 1.391 . S
C1584 C1586 1.387 . S
C1585 C1582 1.398 . S
C1585 C1586 1.380 . S
C1585 H1594 0.930 . S
C1586 C1584 1.387 . S
C1586 C1585 1.380 . S
C1586 H1595 0.930 . S
C1587 O1564 1.254 . S
C1587 O1565 1.268 . S
H1588 C1573 0.930 . S
H1589 C1574 0.930 . S
H1590 C1576 0.930 . S
H1591 C1577 0.930 . S
H1592 C1582 0.930 . S
H1593 C1583 0.930 . S
H1594 C1585 0.930 . S
H1595 C1586 0.930 . S
Gd1596 N1627 2.661 . S
Gd1596 N1633 2.601 . S
Gd1596 O1640 2.545 . S
Gd1596 O1641 2.606 . S
Gd1596 O1643 2.429 . S
Gd1596 O1644 2.545 . S
Gd1596 O1645 2.412 . S
Gd1596 O1647 2.362 . S
Gd1596 O1648 2.324 . S
Gd1596 C1655 2.773 1_455 S
Gd1597 N1606 2.661 . S
Gd1597 N1610 2.601 . S
Gd1597 O1641 2.362 . S
Gd1597 O1642 2.324 . S
Gd1597 O1646 2.545 . S
Gd1597 O1647 2.606 . S
Gd1597 O1649 2.429 . S
Gd1597 O1650 2.545 . S
Gd1597 O1651 2.412 . S
Gd1597 C1664 2.828 . S
C1598 C1601 1.417 . S
C1598 C1603 1.431 . S
C1598 C1604 1.412 . S
C1599 C1602 1.437 . S
C1599 C1603 1.317 . S
C1599 H1618 0.929 . S
C1600 C1601 1.426 . S
C1600 C1602 1.413 . S
C1600 N1610 1.359 . S
C1601 C1598 1.417 . S
C1601 C1600 1.426 . S
C1601 N1606 1.350 . S
C1602 C1599 1.437 . S
C1602 C1600 1.413 . S
C1602 C1612 1.391 1_554 S
C1603 C1598 1.431 . S
C1603 C1599 1.317 . S
C1603 H1614 0.930 . S
C1604 C1598 1.412 . S
C1604 C1605 1.355 . S
C1604 H1616 0.930 . S
C1605 C1604 1.355 . S
C1605 C1607 1.402 . S
C1605 H1617 0.930 . S
N1606 Gd1597 2.661 . S
N1606 C1601 1.350 . S
N1606 C1607 1.307 . S
C1607 C1605 1.402 . S
C1607 N1606 1.307 . S
C1607 H1608 0.930 . S
H1608 C1607 0.930 . S
C1609 N1610 1.334 1_556 S
C1609 C1611 1.394 . S
C1609 H1613 0.930 . S
N1610 Gd1597 2.601 . S
N1610 C1600 1.359 . S
N1610 C1609 1.334 1_554 S
C1611 C1609 1.394 . S
C1611 C1612 1.359 . S
C1611 H1623 0.930 . S
C1612 C1602 1.391 1_556 S
C1612 C1611 1.359 . S
C1612 H1624 0.929 . S
H1613 C1609 0.930 . S
H1614 C1603 0.930 . S
H1615 C1632 0.930 . S
H1616 C1604 0.930 . S
H1617 C1605 0.930 . S
H1618 C1599 0.929 . S
H1619 C1637 0.930 . S
H1620 C1628 0.930 . S
H1621 C1629 0.930 1_556 S
H1622 C1653 0.929 . S
H1623 C1611 0.930 . S
H1624 C1612 0.929 . S
H1625 C1654 0.930 . S
H1626 C1635 0.930 . S
N1627 Gd1596 2.661 . S
N1627 C1631 1.350 1_455 S
N1627 C1632 1.307 . S
C1628 H1620 0.930 . S
C1628 C1629 1.355 . S
C1628 C1630 1.412 . S
C1629 H1621 0.930 1_554 S
C1629 C1628 1.355 . S
C1629 C1632 1.402 1_655 S
C1630 C1628 1.412 . S
C1630 C1631 1.417 . S
C1630 C1654 1.431 . S
C1631 N1627 1.350 1_655 S
C1631 C1630 1.417 . S
C1631 C1634 1.426 1_655 S
C1632 H1615 0.930 . S
C1632 N1627 1.307 . S
C1632 C1629 1.402 1_455 S
N1633 Gd1596 2.601 . S
N1633 C1634 1.359 . S
N1633 C1637 1.334 . S
C1634 C1631 1.426 1_455 S
C1634 N1633 1.359 . S
C1634 C1638 1.413 1_455 S
C1635 H1626 0.930 . S
C1635 C1636 1.359 1_455 S
C1635 C1637 1.394 . S
C1636 C1635 1.359 1_655 S
C1636 C1638 1.391 . S
C1636 H1639 0.929 . S
C1637 H1619 0.930 . S
C1637 N1633 1.334 . S
C1637 C1635 1.394 . S
C1638 C1634 1.413 1_655 S
C1638 C1636 1.391 . S
C1638 C1653 1.437 . S
H1639 C1636 0.929 . S
O1640 Gd1596 2.545 . S
O1640 C1655 1.221 1_455 S
O1641 Gd1596 2.606 . S
O1641 Gd1597 2.362 . S
O1641 C1652 1.284 . S
O1642 Gd1597 2.324 . S
O1642 C1662 1.254 . S
O1643 Gd1596 2.429 . S
O1643 C1662 1.268 . S
O1644 Gd1596 2.545 . S
O1644 C1652 1.250 . S
O1645 Gd1596 2.412 . S
O1645 C1655 1.237 1_455 S
O1646 Gd1597 2.545 . S
O1646 C1664 1.258 . S
O1647 Gd1596 2.362 . S
O1647 Gd1597 2.606 . S
O1647 C1663 1.284 . S
O1648 Gd1596 2.324 . S
O1648 C1671 1.254 . S
O1649 Gd1597 2.429 . S
O1649 C1671 1.268 . S
O1650 Gd1597 2.545 . S
O1650 C1663 1.250 . S
O1651 Gd1597 2.412 . S
O1651 C1664 1.252 . S
C1652 O1641 1.284 . S
C1652 O1644 1.250 . S
C1653 H1622 0.929 . S
C1653 C1638 1.437 . S
C1653 C1654 1.317 . S
C1654 H1625 0.930 . S
C1654 C1630 1.431 . S
C1654 C1653 1.317 . S
C1655 Gd1596 2.773 1_655 S
C1655 O1640 1.221 1_655 S
C1655 O1645 1.237 1_655 S
C1655 C1656 1.552 . S
C1656 C1655 1.552 . S
C1656 C1657 1.395 . S
C1656 C1658 1.380 . S
C1657 C1656 1.395 . S
C1657 C1660 1.398 . S
C1657 H1672 0.930 . S
C1658 C1656 1.380 . S
C1658 C1659 1.391 . S
C1658 H1673 0.930 . S
C1659 C1658 1.391 . S
C1659 C1661 1.387 . S
C1660 C1657 1.398 . S
C1660 C1661 1.380 . S
C1660 H1674 0.930 . S
C1661 C1659 1.387 . S
C1661 C1660 1.380 . S
C1661 H1675 0.930 . S
C1662 O1642 1.254 . S
C1662 O1643 1.268 . S
C1663 O1647 1.284 . S
C1663 O1650 1.250 . S
C1664 Gd1597 2.828 . S
C1664 O1646 1.258 . S
C1664 O1651 1.252 . S
C1664 C1665 1.497 . S
C1665 C1664 1.497 . S
C1665 C1666 1.395 1_554 S
C1665 C1667 1.380 . S
C1666 C1665 1.395 1_556 S
C1666 C1669 1.398 . S
C1666 H1676 0.930 . S
C1667 C1665 1.380 . S
C1667 C1668 1.391 . S
C1667 H1677 0.930 . S
C1668 C1667 1.391 . S
C1668 C1670 1.387 . S
C1669 C1666 1.398 . S
C1669 C1670 1.380 1_556 S
C1669 H1678 0.930 . S
C1670 C1668 1.387 . S
C1670 C1669 1.380 1_554 S
C1670 H1679 0.930 . S
C1671 O1648 1.254 . S
C1671 O1649 1.268 . S
H1672 C1657 0.930 . S
H1673 C1658 0.930 . S
H1674 C1660 0.930 . S
H1675 C1661 0.930 . S
H1676 C1666 0.930 . S
H1677 C1667 0.930 . S
H1678 C1669 0.930 . S
H1679 C1670 0.930 . S
H1680 C1688 0.929 . S
H1681 C1690 0.930 . S
H1682 C1692 0.930 . S
H1683 C1695 0.929 . S
H1684 C1698 0.930 . S
H1685 C1700 0.974 1_554 S
H1686 C1700 0.960 1_655 S
H1687 C1700 0.960 . S
C1688 H1680 0.929 . S
C1688 C1689 1.377 . S
C1688 C1690 1.384 . S
C1689 C1688 1.377 . S
C1689 C1695 1.390 . S
C1690 H1681 0.930 . S
C1690 C1688 1.384 . S
C1690 C1691 1.372 . S
C1691 C1690 1.372 . S
C1691 C1692 1.400 . S
C1691 C1696 1.490 . S
C1692 H1682 0.930 . S
C1692 C1691 1.400 . S
C1692 C1695 1.386 . S
H1693 C1709 0.930 . S
H1694 C1710 0.931 . S
C1695 H1683 0.929 . S
C1695 C1689 1.390 . S
C1695 C1692 1.386 . S
C1696 C1691 1.490 . S
C1696 C1698 1.395 . S
C1696 C1699 1.403 . S
H1697 C1703 0.893 1_554 S
C1698 H1684 0.930 . S
C1698 C1696 1.395 . S
C1698 C1701 1.403 . S
C1699 C1696 1.403 . S
C1699 C1700 1.524 . S
C1699 C1703 1.400 . S
C1700 H1685 0.974 1_556 S
C1700 H1686 0.960 1_455 S
C1700 H1687 0.960 . S
C1700 C1699 1.524 . S
C1701 C1698 1.403 . S
C1701 C1702 1.392 . S
C1701 C1705 1.495 . S
C1702 C1701 1.392 . S
C1702 C1703 1.385 . S
C1702 C1704 1.478 . S
C1703 H1697 0.893 1_556 S
C1703 C1699 1.400 . S
C1703 C1702 1.385 . S
C1704 C1702 1.478 . S
C1704 C1706 1.381 . S
C1704 C1710 1.383 1_556 S
C1705 C1701 1.495 . S
C1705 H1711 0.959 . S
C1705 H1712 0.961 . S
C1705 H1713 0.960 . S
C1706 C1704 1.381 . S
C1706 C1707 1.394 . S
C1706 H1714 0.930 . S
C1707 C1706 1.394 . S
C1707 C1708 1.383 1_556 S
C1707 H1715 0.929 . S
C1708 C1707 1.383 1_554 S
C1708 C1709 1.377 . S
C1709 H1693 0.930 . S
C1709 C1708 1.377 . S
C1709 C1710 1.379 . S
C1710 H1694 0.931 . S
C1710 C1704 1.383 1_554 S
C1710 C1709 1.379 . S
H1711 C1705 0.959 . S
H1712 C1705 0.961 . S
H1713 C1705 0.960 . S
H1714 C1706 0.930 . S
H1715 C1707 0.929 . S
H1716 C1724 0.929 . S
H1717 C1726 0.930 . S
H1718 C1728 0.930 . S
H1719 C1731 0.929 . S
H1720 C1734 0.930 . S
H1721 C1736 0.960 . S
H1722 C1736 0.960 . S
H1723 C1736 0.960 . S
C1724 H1716 0.929 . S
C1724 C1725 1.377 . S
C1724 C1726 1.384 . S
C1725 C1724 1.377 . S
C1725 C1731 1.390 . S
C1726 H1717 0.930 . S
C1726 C1724 1.384 . S
C1726 C1727 1.372 . S
C1727 C1726 1.372 . S
C1727 C1728 1.400 . S
C1727 C1732 1.490 . S
C1728 H1718 0.930 . S
C1728 C1727 1.400 . S
C1728 C1731 1.386 . S
H1729 C1745 0.930 . S
H1730 C1746 0.931 . S
C1731 H1719 0.929 . S
C1731 C1725 1.390 . S
C1731 C1728 1.386 . S
C1732 C1727 1.490 . S
C1732 C1734 1.395 . S
C1732 C1735 1.403 . S
H1733 C1739 0.930 . S
C1734 H1720 0.930 . S
C1734 C1732 1.395 . S
C1734 C1737 1.403 . S
C1735 C1732 1.403 . S
C1735 C1736 1.524 . S
C1735 C1739 1.400 . S
C1736 H1721 0.960 . S
C1736 H1722 0.960 . S
C1736 H1723 0.960 . S
C1736 C1735 1.524 . S
C1737 C1734 1.403 . S
C1737 C1738 1.392 . S
C1737 C1741 1.495 . S
C1738 C1737 1.392 . S
C1738 C1739 1.385 . S
C1738 C1740 1.478 . S
C1739 H1733 0.930 . S
C1739 C1735 1.400 . S
C1739 C1738 1.385 . S
C1740 C1738 1.478 . S
C1740 C1742 1.381 . S
C1740 C1746 1.383 . S
C1741 C1737 1.495 . S
C1741 H1747 0.959 . S
C1741 H1748 0.961 . S
C1741 H1749 0.960 . S
C1742 C1740 1.381 . S
C1742 C1743 1.394 . S
C1742 H1750 0.930 . S
C1743 C1742 1.394 . S
C1743 C1744 1.383 . S
C1743 H1751 0.929 . S
C1744 C1743 1.383 . S
C1744 C1745 1.377 . S
C1745 H1729 0.930 . S
C1745 C1744 1.377 . S
C1745 C1746 1.379 . S
C1746 H1730 0.931 . S
C1746 C1740 1.383 . S
C1746 C1745 1.379 . S
H1747 C1741 0.959 . S
H1748 C1741 0.961 . S
H1749 C1741 0.960 . S
H1750 C1742 0.930 . S
H1751 C1743 0.929 . S
H1752 C1760 0.929 . S
H1753 C1762 0.930 . S
H1754 C1764 0.930 . S
H1755 C1767 0.929 . S
H1756 C1770 0.930 . S
H1757 C1772 0.960 . S
H1758 C1772 0.960 . S
H1759 C1772 0.960 . S
C1760 H1752 0.929 . S
C1760 C1761 1.377 . S
C1760 C1762 1.384 . S
C1761 C1760 1.377 . S
C1761 C1767 1.390 . S
C1762 H1753 0.930 . S
C1762 C1760 1.384 . S
C1762 C1763 1.372 . S
C1763 C1762 1.372 . S
C1763 C1764 1.400 . S
C1763 C1768 1.490 . S
C1764 H1754 0.930 . S
C1764 C1763 1.400 . S
C1764 C1767 1.386 . S
H1765 C1781 0.930 . S
H1766 C1782 0.931 . S
C1767 H1755 0.929 . S
C1767 C1761 1.390 . S
C1767 C1764 1.386 . S
C1768 C1763 1.490 . S
C1768 C1770 1.395 . S
C1768 C1771 1.403 . S
H1769 C1775 0.930 . S
C1770 H1756 0.930 . S
C1770 C1768 1.395 . S
C1770 C1773 1.403 . S
C1771 C1768 1.403 . S
C1771 C1772 1.524 . S
C1771 C1775 1.400 . S
C1772 H1757 0.960 . S
C1772 H1758 0.960 . S
C1772 H1759 0.960 . S
C1772 C1771 1.524 . S
C1773 C1770 1.403 . S
C1773 C1774 1.392 . S
C1773 C1777 1.495 . S
C1774 C1773 1.392 . S
C1774 C1775 1.385 . S
C1774 C1776 1.478 . S
C1775 H1769 0.930 . S
C1775 C1771 1.400 . S
C1775 C1774 1.385 . S
C1776 C1774 1.478 . S
C1776 C1778 1.381 . S
C1776 C1782 1.383 . S
C1777 C1773 1.495 . S
C1777 H1783 0.959 . S
C1777 H1784 0.961 . S
C1777 H1785 0.960 . S
C1778 C1776 1.381 . S
C1778 C1779 1.394 . S
C1778 H1786 0.930 . S
C1779 C1778 1.394 . S
C1779 C1780 1.383 . S
C1779 H1787 0.929 . S
C1780 C1779 1.383 . S
C1780 C1781 1.377 . S
C1781 H1765 0.930 . S
C1781 C1780 1.377 . S
C1781 C1782 1.379 . S
C1782 H1766 0.931 . S
C1782 C1776 1.383 . S
C1782 C1781 1.379 . S
H1783 C1777 0.959 . S
H1784 C1777 0.961 . S
H1785 C1777 0.960 . S
H1786 C1778 0.930 . S
H1787 C1779 0.929 . S
H1788 C1796 0.929 . S
H1789 C1798 0.930 . S
H1790 C1800 0.930 . S
H1791 C1803 0.929 . S
H1792 C1806 0.930 . S
H1793 C1808 0.960 . S
H1794 C1808 0.960 . S
H1795 C1808 0.960 . S
C1796 H1788 0.929 . S
C1796 C1797 1.377 . S
C1796 C1798 1.384 . S
C1797 C1796 1.377 . S
C1797 C1803 1.390 . S
C1798 H1789 0.930 . S
C1798 C1796 1.384 . S
C1798 C1799 1.372 . S
C1799 C1798 1.372 . S
C1799 C1800 1.400 . S
C1799 C1804 1.490 . S
C1800 H1790 0.930 . S
C1800 C1799 1.400 . S
C1800 C1803 1.386 . S
H1801 C1817 0.930 . S
H1802 C1818 0.931 . S
C1803 H1791 0.929 . S
C1803 C1797 1.390 . S
C1803 C1800 1.386 . S
C1804 C1799 1.490 . S
C1804 C1806 1.395 . S
C1804 C1807 1.403 . S
H1805 C1811 0.930 . S
C1806 H1792 0.930 . S
C1806 C1804 1.395 . S
C1806 C1809 1.403 . S
C1807 C1804 1.403 . S
C1807 C1808 1.524 . S
C1807 C1811 1.400 . S
C1808 H1793 0.960 . S
C1808 H1794 0.960 . S
C1808 H1795 0.960 . S
C1808 C1807 1.524 . S
C1809 C1806 1.403 . S
C1809 C1810 1.392 . S
C1809 C1813 1.495 . S
C1810 C1809 1.392 . S
C1810 C1811 1.385 . S
C1810 C1812 1.478 . S
C1811 H1805 0.930 . S
C1811 C1807 1.400 . S
C1811 C1810 1.385 . S
C1812 C1810 1.478 . S
C1812 C1814 1.381 . S
C1812 C1818 1.383 . S
C1813 C1809 1.495 . S
C1813 H1819 0.959 . S
C1813 H1820 0.961 . S
C1813 H1821 0.960 . S
C1814 C1812 1.381 . S
C1814 C1815 1.394 . S
C1814 H1822 0.930 . S
C1815 C1814 1.394 . S
C1815 C1816 1.383 . S
C1815 H1823 0.929 . S
C1816 C1815 1.383 . S
C1816 C1817 1.377 . S
C1817 H1801 0.930 . S
C1817 C1816 1.377 . S
C1817 C1818 1.379 . S
C1818 H1802 0.931 . S
C1818 C1812 1.383 . S
C1818 C1817 1.379 . S
H1819 C1813 0.959 . S
H1820 C1813 0.961 . S
H1821 C1813 0.960 . S
H1822 C1814 0.930 . S
H1823 C1815 0.929 . S
H1824 C1832 0.929 . S
H1825 C1834 0.930 . S
H1826 C1836 0.930 . S
H1827 C1839 0.929 . S
H1828 C1842 0.930 . S
H1829 C1844 0.960 . S
H1830 C1844 0.960 . S
H1831 C1844 0.960 . S
C1832 H1824 0.929 . S
C1832 C1833 1.377 . S
C1832 C1834 1.384 . S
C1833 C1832 1.377 . S
C1833 C1839 1.390 . S
C1834 H1825 0.930 . S
C1834 C1832 1.384 . S
C1834 C1835 1.372 . S
C1835 C1834 1.372 . S
C1835 C1836 1.400 . S
C1835 C1840 1.490 . S
C1836 H1826 0.930 . S
C1836 C1835 1.400 . S
C1836 C1839 1.386 . S
H1837 C1853 0.930 . S
H1838 C1854 0.931 . S
C1839 H1827 0.929 . S
C1839 C1833 1.390 . S
C1839 C1836 1.386 . S
C1840 C1835 1.490 . S
C1840 C1842 1.395 . S
C1840 C1843 1.403 . S
H1841 C1847 0.930 . S
C1842 H1828 0.930 . S
C1842 C1840 1.395 . S
C1842 C1845 1.403 . S
C1843 C1840 1.403 . S
C1843 C1844 1.524 . S
C1843 C1847 1.400 . S
C1844 H1829 0.960 . S
C1844 H1830 0.960 . S
C1844 H1831 0.960 . S
C1844 C1843 1.524 . S
C1845 C1842 1.403 . S
C1845 C1846 1.392 . S
C1845 C1849 1.495 . S
C1846 C1845 1.392 . S
C1846 C1847 1.385 . S
C1846 C1848 1.478 . S
C1847 H1841 0.930 . S
C1847 C1843 1.400 . S
C1847 C1846 1.385 . S
C1848 C1846 1.478 . S
C1848 C1850 1.381 . S
C1848 C1854 1.383 . S
C1849 C1845 1.495 . S
C1849 H1855 0.959 1_455 S
C1849 H1856 0.961 1_455 S
C1849 H1857 0.960 . S
C1850 C1848 1.381 . S
C1850 C1851 1.394 . S
C1850 H1858 0.930 . S
C1851 C1850 1.394 . S
C1851 C1852 1.383 . S
C1851 H1859 0.929 . S
C1852 C1851 1.383 . S
C1852 C1853 1.377 . S
C1853 H1837 0.930 . S
C1853 C1852 1.377 . S
C1853 C1854 1.379 . S
C1854 H1838 0.931 . S
C1854 C1848 1.383 . S
C1854 C1853 1.379 . S
H1855 C1849 0.959 1_655 S
H1856 C1849 0.961 1_655 S
H1857 C1849 0.960 . S
H1858 C1850 0.930 . S
H1859 C1851 0.929 . S
H1860 C1868 0.929 . S
H1861 C1870 0.930 . S
H1862 C1872 0.930 . S
H1863 C1875 0.929 . S
H1864 C1878 0.930 . S
H1865 C1880 0.960 . S
H1866 C1880 0.960 . S
H1867 C1880 0.960 . S
C1868 H1860 0.929 . S
C1868 C1869 1.377 . S
C1868 C1870 1.384 . S
C1869 C1868 1.377 . S
C1869 C1875 1.390 . S
C1870 H1861 0.930 . S
C1870 C1868 1.384 . S
C1870 C1871 1.372 . S
C1871 C1870 1.372 . S
C1871 C1872 1.400 . S
C1871 C1876 1.490 . S
C1872 H1862 0.930 . S
C1872 C1871 1.400 . S
C1872 C1875 1.386 . S
H1873 C1889 0.930 . S
H1874 C1890 0.931 . S
C1875 H1863 0.929 . S
C1875 C1869 1.390 . S
C1875 C1872 1.386 . S
C1876 C1871 1.490 . S
C1876 C1878 1.395 . S
C1876 C1879 1.403 . S
H1877 C1883 0.930 . S
C1878 H1864 0.930 . S
C1878 C1876 1.395 . S
C1878 C1881 1.403 . S
C1879 C1876 1.403 . S
C1879 C1880 1.524 . S
C1879 C1883 1.400 . S
C1880 H1865 0.960 . S
C1880 H1866 0.960 . S
C1880 H1867 0.960 . S
C1880 C1879 1.524 . S
C1881 C1878 1.403 . S
C1881 C1882 1.392 . S
C1881 C1885 1.495 . S
C1882 C1881 1.392 . S
C1882 C1883 1.385 . S
C1882 C1884 1.478 . S
C1883 H1877 0.930 . S
C1883 C1879 1.400 . S
C1883 C1882 1.385 . S
C1884 C1882 1.478 . S
C1884 C1886 1.381 . S
C1884 C1890 1.383 . S
C1885 C1881 1.495 . S
C1885 H1891 0.959 . S
C1885 H1892 0.961 . S
C1885 H1893 0.960 . S
C1886 C1884 1.381 . S
C1886 C1887 1.394 . S
C1886 H1894 0.930 . S
C1887 C1886 1.394 . S
C1887 C1888 1.383 . S
C1887 H1895 0.929 . S
C1888 C1887 1.383 . S
C1888 C1889 1.377 . S
C1889 H1873 0.930 . S
C1889 C1888 1.377 . S
C1889 C1890 1.379 . S
C1890 H1874 0.931 . S
C1890 C1884 1.383 . S
C1890 C1889 1.379 . S
H1891 C1885 0.959 . S
H1892 C1885 0.961 . S
H1893 C1885 0.960 . S
H1894 C1886 0.930 . S
H1895 C1887 0.929 . S
H1896 C1904 0.929 . S
H1897 C1906 0.930 . S
H1898 C1908 0.930 . S
H1899 C1911 0.929 . S
H1900 C1914 0.930 . S
H1901 C1916 0.960 . S
H1902 C1916 0.960 . S
H1903 C1916 0.960 . S
C1904 H1896 0.929 . S
C1904 C1905 1.377 . S
C1904 C1906 1.384 . S
C1905 C1904 1.377 . S
C1905 C1911 1.390 . S
C1906 H1897 0.930 . S
C1906 C1904 1.384 . S
C1906 C1907 1.372 . S
C1907 C1906 1.372 . S
C1907 C1908 1.400 . S
C1907 C1912 1.490 . S
C1908 H1898 0.930 . S
C1908 C1907 1.400 . S
C1908 C1911 1.386 . S
H1909 C1925 0.930 . S
H1910 C1926 0.931 . S
C1911 H1899 0.929 . S
C1911 C1905 1.390 . S
C1911 C1908 1.386 . S
C1912 C1907 1.490 . S
C1912 C1914 1.395 . S
C1912 C1915 1.403 . S
H1913 C1919 0.930 . S
C1914 H1900 0.930 . S
C1914 C1912 1.395 . S
C1914 C1917 1.403 . S
C1915 C1912 1.403 . S
C1915 C1916 1.524 . S
C1915 C1919 1.400 . S
C1916 H1901 0.960 . S
C1916 H1902 0.960 . S
C1916 H1903 0.960 . S
C1916 C1915 1.524 . S
C1917 C1914 1.403 . S
C1917 C1918 1.392 . S
C1917 C1921 1.495 . S
C1918 C1917 1.392 . S
C1918 C1919 1.385 . S
C1918 C1920 1.478 . S
C1919 H1913 0.930 . S
C1919 C1915 1.400 . S
C1919 C1918 1.385 . S
C1920 C1918 1.478 . S
C1920 C1922 1.381 . S
C1920 C1926 1.383 . S
C1921 C1917 1.495 . S
C1921 H1927 0.959 . S
C1921 H1928 0.961 . S
C1921 H1929 0.960 . S
C1922 C1920 1.381 . S
C1922 C1923 1.394 . S
C1922 H1930 0.930 . S
C1923 C1922 1.394 . S
C1923 C1924 1.383 . S
C1923 H1931 0.929 . S
C1924 C1923 1.383 . S
C1924 C1925 1.377 . S
C1925 H1909 0.930 . S
C1925 C1924 1.377 . S
C1925 C1926 1.379 . S
C1926 H1910 0.931 . S
C1926 C1920 1.383 . S
C1926 C1925 1.379 . S
H1927 C1921 0.959 . S
H1928 C1921 0.961 . S
H1929 C1921 0.960 . S
H1930 C1922 0.930 . S
H1931 C1923 0.929 . S
H1932 C1940 0.929 . S
H1933 C1942 0.930 . S
H1934 C1944 0.930 . S
H1935 C1947 0.929 . S
H1936 C1950 0.930 . S
H1937 C1952 0.960 . S
H1938 C1952 0.960 . S
H1939 C1952 0.960 . S
C1940 H1932 0.929 . S
C1940 C1941 1.377 . S
C1940 C1942 1.384 . S
C1941 C1940 1.377 . S
C1941 C1947 1.390 . S
C1942 H1933 0.930 . S
C1942 C1940 1.384 . S
C1942 C1943 1.372 . S
C1943 C1942 1.372 . S
C1943 C1944 1.400 . S
C1943 C1948 1.490 . S
C1944 H1934 0.930 . S
C1944 C1943 1.400 . S
C1944 C1947 1.386 . S
H1945 C1961 0.930 . S
H1946 C1962 0.931 . S
C1947 H1935 0.929 . S
C1947 C1941 1.390 . S
C1947 C1944 1.386 . S
C1948 C1943 1.490 . S
C1948 C1950 1.395 . S
C1948 C1951 1.403 . S
H1949 C1955 0.930 . S
C1950 H1936 0.930 . S
C1950 C1948 1.395 . S
C1950 C1953 1.403 . S
C1951 C1948 1.403 . S
C1951 C1952 1.524 . S
C1951 C1955 1.400 . S
C1952 H1937 0.960 . S
C1952 H1938 0.960 . S
C1952 H1939 0.960 . S
C1952 C1951 1.524 . S
C1953 C1950 1.403 . S
C1953 C1954 1.392 . S
C1953 C1957 1.495 . S
C1954 C1953 1.392 . S
C1954 C1955 1.385 . S
C1954 C1956 1.478 . S
C1955 H1949 0.930 . S
C1955 C1951 1.400 . S
C1955 C1954 1.385 . S
C1956 C1954 1.478 . S
C1956 C1958 1.381 . S
C1956 C1962 1.383 . S
C1957 C1953 1.495 . S
C1957 H1963 0.959 . S
C1957 H1964 0.961 . S
C1957 H1965 0.960 . S
C1958 C1956 1.381 . S
C1958 C1959 1.394 . S
C1958 H1966 0.930 . S
C1959 C1958 1.394 . S
C1959 C1960 1.383 . S
C1959 H1967 0.929 . S
C1960 C1959 1.383 . S
C1960 C1961 1.377 . S
C1961 H1945 0.930 . S
C1961 C1960 1.377 . S
C1961 C1962 1.379 . S
C1962 H1946 0.931 . S
C1962 C1956 1.383 . S
C1962 C1961 1.379 . S
H1963 C1957 0.959 . S
H1964 C1957 0.961 . S
H1965 C1957 0.960 . S
H1966 C1958 0.930 . S
H1967 C1959 0.929 . S
H1968 C1976 0.929 . S
H1969 C1978 0.934 . S
H1970 C1980 0.930 . S
H1971 C1983 0.929 . S
H1972 C1986 0.930 . S
H1973 C1988 0.960 . S
H1974 C1988 0.939 1_455 S
H1975 C1988 0.960 . S
C1976 H1968 0.929 . S
C1976 C1977 1.377 . S
C1976 C1978 1.384 . S
C1977 C1976 1.377 . S
C1977 C1983 1.390 . S
C1978 H1969 0.934 . S
C1978 C1976 1.384 . S
C1978 C1979 1.372 . S
C1979 C1978 1.372 . S
C1979 C1980 1.400 . S
C1979 C1984 1.490 . S
C1980 H1970 0.930 . S
C1980 C1979 1.400 . S
C1980 C1983 1.386 . S
H1981 C1997 0.930 . S
H1982 C1998 0.931 1_655 S
C1983 H1971 0.929 . S
C1983 C1977 1.390 . S
C1983 C1980 1.386 . S
C1984 C1979 1.490 . S
C1984 C1986 1.395 . S
C1984 C1987 1.403 . S
H1985 C1991 0.930 . S
C1986 H1972 0.930 . S
C1986 C1984 1.395 . S
C1986 C1989 1.403 1_655 S
C1987 C1984 1.403 . S
C1987 C1988 1.524 . S
C1987 C1991 1.400 1_655 S
C1988 H1973 0.960 . S
C1988 H1974 0.939 1_655 S
C1988 H1975 0.960 . S
C1988 C1987 1.524 . S
C1989 C1986 1.403 1_455 S
C1989 C1990 1.392 . S
C1989 C1993 1.495 . S
C1990 C1989 1.392 . S
C1990 C1991 1.385 . S
C1990 C1992 1.478 . S
C1991 H1985 0.930 . S
C1991 C1987 1.400 1_455 S
C1991 C1990 1.385 . S
C1992 C1990 1.478 . S
C1992 C1994 1.381 . S
C1992 C1998 1.383 . S
C1993 C1989 1.495 . S
C1993 H1999 0.959 . S
C1993 H2000 0.961 1_455 S
C1993 H2001 0.960 . S
C1994 C1992 1.381 . S
C1994 C1995 1.394 . S
C1994 H2002 0.930 . S
C1995 C1994 1.394 . S
C1995 C1996 1.383 . S
C1995 H2003 0.929 . S
C1996 C1995 1.383 . S
C1996 C1997 1.377 . S
C1997 H1981 0.930 . S
C1997 C1996 1.377 . S
C1997 C1998 1.379 . S
C1998 H1982 0.931 1_455 S
C1998 C1992 1.383 . S
C1998 C1997 1.379 . S
H1999 C1993 0.959 . S
H2000 C1993 0.961 1_655 S
H2001 C1993 0.960 . S
H2002 C1994 0.930 . S
H2003 C1995 0.929 . S
H2004 C2012 0.929 . S
H2005 C2014 0.930 . S
H2006 C2016 0.930 . S
H2007 C2019 0.929 . S
H2008 C2022 0.930 . S
H2009 C2024 0.960 . S
H2010 C2024 0.960 . S
H2011 C2024 0.960 . S
C2012 H2004 0.929 . S
C2012 C2013 1.377 . S
C2012 C2014 1.384 . S
C2013 C2012 1.377 . S
C2013 C2019 1.390 . S
C2014 H2005 0.930 . S
C2014 C2012 1.384 . S
C2014 C2015 1.372 . S
C2015 C2014 1.372 . S
C2015 C2016 1.400 . S
C2015 C2020 1.490 . S
C2016 H2006 0.930 . S
C2016 C2015 1.400 . S
C2016 C2019 1.386 . S
H2017 C2033 0.930 . S
H2018 C2034 0.931 . S
C2019 H2007 0.929 . S
C2019 C2013 1.390 . S
C2019 C2016 1.386 . S
C2020 C2015 1.490 . S
C2020 C2022 1.395 . S
C2020 C2023 1.403 . S
H2021 C2027 0.930 . S
C2022 H2008 0.930 . S
C2022 C2020 1.395 . S
C2022 C2025 1.403 . S
C2023 C2020 1.403 . S
C2023 C2024 1.524 . S
C2023 C2027 1.400 . S
C2024 H2009 0.960 . S
C2024 H2010 0.960 . S
C2024 H2011 0.960 . S
C2024 C2023 1.524 . S
C2025 C2022 1.403 . S
C2025 C2026 1.392 . S
C2025 C2029 1.495 . S
C2026 C2025 1.392 . S
C2026 C2027 1.385 . S
C2026 C2028 1.478 . S
C2027 H2021 0.930 . S
C2027 C2023 1.400 . S
C2027 C2026 1.385 . S
C2028 C2026 1.478 . S
C2028 C2030 1.381 . S
C2028 C2034 1.383 . S
C2029 C2025 1.495 . S
C2029 H2035 0.959 . S
C2029 H2036 0.961 . S
C2029 H2037 0.960 . S
C2030 C2028 1.381 . S
C2030 C2031 1.394 . S
C2030 H2038 0.930 . S
C2031 C2030 1.394 . S
C2031 C2032 1.383 . S
C2031 H2039 0.929 . S
C2032 C2031 1.383 . S
C2032 C2033 1.377 . S
C2033 H2017 0.930 . S
C2033 C2032 1.377 . S
C2033 C2034 1.379 . S
C2034 H2018 0.931 . S
C2034 C2028 1.383 . S
C2034 C2033 1.379 . S
H2035 C2029 0.959 . S
H2036 C2029 0.961 . S
H2037 C2029 0.960 . S
H2038 C2030 0.930 . S
H2039 C2031 0.929 . S
H2040 C2048 0.929 . S
H2041 C2050 0.930 . S
H2042 C2052 0.930 . S
H2043 C2055 0.929 . S
H2044 C2058 0.930 . S
H2045 C2060 0.960 1_565 S
H2046 C2060 0.960 . S
H2047 C2060 0.960 . S
C2048 H2040 0.929 . S
C2048 C2049 1.377 . S
C2048 C2050 1.384 . S
C2049 C2048 1.377 . S
C2049 C2055 1.390 . S
C2050 H2041 0.930 . S
C2050 C2048 1.384 . S
C2050 C2051 1.372 . S
C2051 C2050 1.372 . S
C2051 C2052 1.400 . S
C2051 C2056 1.490 . S
C2052 H2042 0.930 . S
C2052 C2051 1.400 . S
C2052 C2055 1.386 . S
H2053 C2069 0.930 . S
H2054 C2070 0.931 . S
C2055 H2043 0.929 . S
C2055 C2049 1.390 . S
C2055 C2052 1.386 . S
C2056 C2051 1.490 . S
C2056 C2058 1.395 . S
C2056 C2059 1.403 . S
H2057 C2063 0.930 . S
C2058 H2044 0.930 . S
C2058 C2056 1.395 . S
C2058 C2061 1.403 . S
C2059 C2056 1.403 . S
C2059 C2060 1.524 . S
C2059 C2063 1.400 . S
C2060 H2045 0.960 1_545 S
C2060 H2046 0.960 . S
C2060 H2047 0.960 . S
C2060 C2059 1.524 . S
C2061 C2058 1.403 . S
C2061 C2062 1.392 . S
C2061 C2065 1.495 . S
C2062 C2061 1.392 . S
C2062 C2063 1.385 . S
C2062 C2064 1.478 . S
C2063 H2057 0.930 . S
C2063 C2059 1.400 . S
C2063 C2062 1.385 . S
C2064 C2062 1.478 . S
C2064 C2066 1.381 . S
C2064 C2070 1.383 . S
C2065 C2061 1.495 . S
C2065 H2071 0.959 . S
C2065 H2072 0.961 . S
C2065 H2073 0.960 . S
C2066 C2064 1.381 . S
C2066 C2067 1.394 . S
C2066 H2074 0.930 . S
C2067 C2066 1.394 . S
C2067 C2068 1.383 . S
C2067 H2075 0.929 . S
C2068 C2067 1.383 . S
C2068 C2069 1.377 . S
C2069 H2053 0.930 . S
C2069 C2068 1.377 . S
C2069 C2070 1.379 . S
C2070 H2054 0.931 . S
C2070 C2064 1.383 . S
C2070 C2069 1.379 . S
H2071 C2065 0.959 . S
H2072 C2065 0.961 . S
H2073 C2065 0.960 . S
H2074 C2066 0.930 . S
H2075 C2067 0.929 . S
H2076 C2084 0.929 . S
H2077 C2086 0.930 . S
H2078 C2088 0.930 . S
H2079 C2091 0.929 . S
H2080 C2094 0.930 . S
H2081 C2096 0.960 . S
H2082 C2096 0.960 . S
H2083 C2096 0.960 . S
C2084 H2076 0.929 . S
C2084 C2085 1.377 . S
C2084 C2086 1.384 . S
C2085 C2084 1.377 . S
C2085 C2091 1.390 . S
C2086 H2077 0.930 . S
C2086 C2084 1.384 . S
C2086 C2087 1.372 . S
C2087 C2086 1.372 . S
C2087 C2088 1.400 . S
C2087 C2092 1.490 . S
C2088 H2078 0.930 . S
C2088 C2087 1.400 . S
C2088 C2091 1.386 . S
H2089 C2105 0.930 . S
H2090 C2106 0.931 . S
C2091 H2079 0.929 . S
C2091 C2085 1.390 . S
C2091 C2088 1.386 . S
C2092 C2087 1.490 . S
C2092 C2094 1.395 . S
C2092 C2095 1.403 . S
H2093 C2099 0.930 . S
C2094 H2080 0.930 . S
C2094 C2092 1.395 . S
C2094 C2097 1.403 . S
C2095 C2092 1.403 . S
C2095 C2096 1.524 . S
C2095 C2099 1.400 . S
C2096 H2081 0.960 . S
C2096 H2082 0.960 . S
C2096 H2083 0.960 . S
C2096 C2095 1.524 . S
C2097 C2094 1.403 . S
C2097 C2098 1.392 . S
C2097 C2101 1.495 . S
C2098 C2097 1.392 . S
C2098 C2099 1.385 . S
C2098 C2100 1.478 . S
C2099 H2093 0.930 . S
C2099 C2095 1.400 . S
C2099 C2098 1.385 . S
C2100 C2098 1.478 . S
C2100 C2102 1.381 . S
C2100 C2106 1.383 . S
C2101 C2097 1.495 . S
C2101 H2107 0.959 . S
C2101 H2108 0.961 . S
C2101 H2109 0.960 . S
C2102 C2100 1.381 . S
C2102 C2103 1.394 . S
C2102 H2110 0.930 . S
C2103 C2102 1.394 . S
C2103 C2104 1.383 . S
C2103 H2111 0.929 . S
C2104 C2103 1.383 . S
C2104 C2105 1.377 . S
C2105 H2089 0.930 . S
C2105 C2104 1.377 . S
C2105 C2106 1.379 . S
C2106 H2090 0.931 . S
C2106 C2100 1.383 . S
C2106 C2105 1.379 . S
H2107 C2101 0.959 . S
H2108 C2101 0.961 . S
H2109 C2101 0.960 . S
H2110 C2102 0.930 . S
H2111 C2103 0.929 . S
H2112 C2120 0.929 . S
H2113 C2122 0.924 . S
H2114 C2124 0.930 . S
H2115 C2127 0.929 . S
H2116 C2130 0.930 . S
H2117 C2132 0.960 . S
H2118 C2132 0.960 . S
H2119 C2132 0.960 . S
C2120 H2112 0.929 . S
C2120 C2121 1.377 . S
C2120 C2122 1.387 1_655 S
C2121 C2120 1.377 . S
C2121 C2127 1.390 . S
C2122 H2113 0.924 . S
C2122 C2120 1.387 1_455 S
C2122 C2123 1.375 1_455 S
C2123 C2122 1.375 1_655 S
C2123 C2124 1.400 . S
C2123 C2128 1.464 1_655 S
C2124 H2114 0.930 . S
C2124 C2123 1.400 . S
C2124 C2127 1.386 . S
H2125 C2141 0.930 . S
H2126 C2142 0.931 . S
C2127 H2115 0.929 . S
C2127 C2121 1.390 . S
C2127 C2124 1.386 . S
C2128 C2123 1.464 1_455 S
C2128 C2130 1.426 . S
C2128 C2131 1.401 1_455 S
H2129 C2135 0.930 . S
C2130 H2116 0.930 . S
C2130 C2128 1.426 . S
C2130 C2133 1.403 . S
C2131 C2128 1.401 1_655 S
C2131 C2132 1.524 . S
C2131 C2135 1.400 1_655 S
C2132 H2117 0.960 . S
C2132 H2118 0.960 . S
C2132 H2119 0.960 . S
C2132 C2131 1.524 . S
C2133 C2130 1.403 . S
C2133 C2134 1.392 . S
C2133 C2137 1.495 . S
C2134 C2133 1.392 . S
C2134 C2135 1.385 . S
C2134 C2136 1.478 . S
C2135 H2129 0.930 . S
C2135 C2131 1.400 1_455 S
C2135 C2134 1.385 . S
C2136 C2134 1.478 . S
C2136 C2138 1.381 . S
C2136 C2142 1.383 . S
C2137 C2133 1.495 . S
C2137 H2143 0.959 . S
C2137 H2144 0.961 . S
C2137 H2145 0.960 . S
C2138 C2136 1.381 . S
C2138 C2139 1.394 . S
C2138 H2146 0.930 . S
C2139 C2138 1.394 . S
C2139 C2140 1.383 . S
C2139 H2147 0.929 . S
C2140 C2139 1.383 . S
C2140 C2141 1.377 . S
C2141 H2125 0.930 . S
C2141 C2140 1.377 . S
C2141 C2142 1.379 . S
C2142 H2126 0.931 . S
C2142 C2136 1.383 . S
C2142 C2141 1.379 . S
H2143 C2137 0.959 . S
H2144 C2137 0.961 . S
H2145 C2137 0.960 . S
H2146 C2138 0.930 . S
H2147 C2139 0.929 . S
H2148 C2156 0.929 . S
H2149 C2158 0.930 . S
H2150 C2160 0.930 . S
H2151 C2163 0.929 . S
H2152 C2166 0.930 . S
H2153 C2168 0.960 . S
H2154 C2168 0.960 . S
H2155 C2168 0.960 . S
C2156 H2148 0.929 . S
C2156 C2157 1.377 . S
C2156 C2158 1.384 . S
C2157 C2156 1.377 . S
C2157 C2163 1.390 . S
C2158 H2149 0.930 . S
C2158 C2156 1.384 . S
C2158 C2159 1.372 . S
C2159 C2158 1.372 . S
C2159 C2160 1.400 . S
C2159 C2164 1.490 . S
C2160 H2150 0.930 . S
C2160 C2159 1.400 . S
C2160 C2163 1.386 . S
H2161 C2177 0.930 . S
H2162 C2178 0.931 . S
C2163 H2151 0.929 . S
C2163 C2157 1.390 . S
C2163 C2160 1.386 . S
C2164 C2159 1.490 . S
C2164 C2166 1.395 . S
C2164 C2167 1.403 . S
H2165 C2171 0.930 . S
C2166 H2152 0.930 . S
C2166 C2164 1.395 . S
C2166 C2169 1.403 . S
C2167 C2164 1.403 . S
C2167 C2168 1.524 . S
C2167 C2171 1.400 . S
C2168 H2153 0.960 . S
C2168 H2154 0.960 . S
C2168 H2155 0.960 . S
C2168 C2167 1.524 . S
C2169 C2166 1.403 . S
C2169 C2170 1.392 . S
C2169 C2173 1.495 . S
C2170 C2169 1.392 . S
C2170 C2171 1.385 . S
C2170 C2172 1.478 . S
C2171 H2165 0.930 . S
C2171 C2167 1.400 . S
C2171 C2170 1.385 . S
C2172 C2170 1.478 . S
C2172 C2174 1.381 . S
C2172 C2178 1.383 . S
C2173 C2169 1.495 . S
C2173 H2179 0.959 . S
C2173 H2180 0.961 . S
C2173 H2181 0.960 . S
C2174 C2172 1.381 . S
C2174 C2175 1.394 . S
C2174 H2182 0.930 . S
C2175 C2174 1.394 . S
C2175 C2176 1.383 . S
C2175 H2183 0.929 . S
C2176 C2175 1.383 . S
C2176 C2177 1.377 . S
C2177 H2161 0.930 . S
C2177 C2176 1.377 . S
C2177 C2178 1.379 . S
C2178 H2162 0.931 . S
C2178 C2172 1.383 . S
C2178 C2177 1.379 . S
H2179 C2173 0.959 . S
H2180 C2173 0.961 . S
H2181 C2173 0.960 . S
H2182 C2174 0.930 . S
H2183 C2175 0.929 . S
H2184 C2192 0.929 . S
H2185 C2194 0.930 . S
H2186 C2196 0.930 . S
H2187 C2199 0.929 . S
H2188 C2202 0.930 . S
H2189 C2204 0.960 . S
H2190 C2204 0.960 . S
H2191 C2204 0.960 . S
C2192 H2184 0.929 . S
C2192 C2193 1.377 . S
C2192 C2194 1.384 . S
C2193 C2192 1.377 . S
C2193 C2199 1.390 . S
C2194 H2185 0.930 . S
C2194 C2192 1.384 . S
C2194 C2195 1.372 . S
C2195 C2194 1.372 . S
C2195 C2196 1.400 . S
C2195 C2200 1.490 . S
C2196 H2186 0.930 . S
C2196 C2195 1.400 . S
C2196 C2199 1.386 . S
H2197 C2213 0.930 . S
H2198 C2214 0.931 . S
C2199 H2187 0.929 . S
C2199 C2193 1.390 . S
C2199 C2196 1.386 . S
C2200 C2195 1.490 . S
C2200 C2202 1.395 . S
C2200 C2203 1.403 . S
H2201 C2207 0.930 . S
C2202 H2188 0.930 . S
C2202 C2200 1.395 . S
C2202 C2205 1.403 . S
C2203 C2200 1.403 . S
C2203 C2204 1.524 . S
C2203 C2207 1.400 . S
C2204 H2189 0.960 . S
C2204 H2190 0.960 . S
C2204 H2191 0.960 . S
C2204 C2203 1.524 . S
C2205 C2202 1.403 . S
C2205 C2206 1.392 . S
C2205 C2209 1.495 . S
C2206 C2205 1.392 . S
C2206 C2207 1.385 . S
C2206 C2208 1.478 . S
C2207 H2201 0.930 . S
C2207 C2203 1.400 . S
C2207 C2206 1.385 . S
C2208 C2206 1.478 . S
C2208 C2210 1.381 . S
C2208 C2214 1.383 . S
C2209 C2205 1.495 . S
C2209 H2215 0.959 . S
C2209 H2216 0.961 . S
C2209 H2217 0.960 . S
C2210 C2208 1.381 . S
C2210 C2211 1.394 . S
C2210 H2218 0.930 . S
C2211 C2210 1.394 . S
C2211 C2212 1.383 . S
C2211 H2219 0.929 . S
C2212 C2211 1.383 . S
C2212 C2213 1.377 . S
C2213 H2197 0.930 . S
C2213 C2212 1.377 . S
C2213 C2214 1.379 . S
C2214 H2198 0.931 . S
C2214 C2208 1.383 . S
C2214 C2213 1.379 . S
H2215 C2209 0.959 . S
H2216 C2209 0.961 . S
H2217 C2209 0.960 . S
H2218 C2210 0.930 . S
H2219 C2211 0.929 . S
H2220 C2228 0.929 . S
H2221 C2230 0.930 . S
H2222 C2232 0.930 . S
H2223 C2235 0.929 . S
H2224 C2238 0.930 . S
H2225 C2240 0.960 . S
H2226 C2240 0.960 . S
H2227 C2240 0.960 . S
C2228 H2220 0.929 . S
C2228 C2229 1.377 . S
C2228 C2230 1.384 . S
C2229 C2228 1.377 . S
C2229 C2235 1.390 . S
C2230 H2221 0.930 . S
C2230 C2228 1.384 . S
C2230 C2231 1.372 . S
C2231 C2230 1.372 . S
C2231 C2232 1.400 . S
C2231 C2236 1.490 . S
C2232 H2222 0.930 . S
C2232 C2231 1.400 . S
C2232 C2235 1.386 . S
H2233 C2249 0.930 . S
H2234 C2250 0.931 . S
C2235 H2223 0.929 . S
C2235 C2229 1.390 . S
C2235 C2232 1.386 . S
C2236 C2231 1.490 . S
C2236 C2238 1.395 . S
C2236 C2239 1.403 . S
H2237 C2243 0.930 . S
C2238 H2224 0.930 . S
C2238 C2236 1.395 . S
C2238 C2241 1.403 . S
C2239 C2236 1.403 . S
C2239 C2240 1.524 . S
C2239 C2243 1.400 . S
C2240 H2225 0.960 . S
C2240 H2226 0.960 . S
C2240 H2227 0.960 . S
C2240 C2239 1.524 . S
C2241 C2238 1.403 . S
C2241 C2242 1.392 . S
C2241 C2245 1.495 . S
C2242 C2241 1.392 . S
C2242 C2243 1.385 . S
C2242 C2244 1.478 . S
C2243 H2237 0.930 . S
C2243 C2239 1.400 . S
C2243 C2242 1.385 . S
C2244 C2242 1.478 . S
C2244 C2246 1.381 . S
C2244 C2250 1.383 . S
C2245 C2241 1.495 . S
C2245 H2251 0.959 . S
C2245 H2252 0.961 . S
C2245 H2253 0.960 . S
C2246 C2244 1.381 . S
C2246 C2247 1.394 . S
C2246 H2254 0.930 . S
C2247 C2246 1.394 . S
C2247 C2248 1.383 . S
C2247 H2255 0.929 . S
C2248 C2247 1.383 . S
C2248 C2249 1.377 . S
C2249 H2233 0.930 . S
C2249 C2248 1.377 . S
C2249 C2250 1.379 . S
C2250 H2234 0.931 . S
C2250 C2244 1.383 . S
C2250 C2249 1.379 . S
H2251 C2245 0.959 . S
H2252 C2245 0.961 . S
H2253 C2245 0.960 . S
H2254 C2246 0.930 . S
H2255 C2247 0.929 . S
H2256 C2264 0.912 1_556 S
H2257 C2266 0.930 . S
H2258 C2268 0.930 . S
H2259 C2271 0.929 . S
H2260 C2274 0.930 . S
H2261 C2276 0.961 1_556 S
H2262 C2276 0.960 1_566 S
H2263 C2276 0.960 . S
C2264 H2256 0.912 1_554 S
C2264 C2265 1.377 . S
C2264 C2266 1.384 . S
C2265 C2264 1.377 . S
C2265 C2271 1.390 . S
C2266 H2257 0.930 . S
C2266 C2264 1.384 . S
C2266 C2267 1.372 . S
C2267 C2266 1.372 . S
C2267 C2268 1.400 . S
C2267 C2272 1.490 . S
C2268 H2258 0.930 . S
C2268 C2267 1.400 . S
C2268 C2271 1.386 . S
H2269 C2285 0.930 . S
H2270 C2286 0.931 . S
C2271 H2259 0.929 . S
C2271 C2265 1.390 . S
C2271 C2268 1.386 . S
C2272 C2267 1.490 . S
C2272 C2274 1.395 . S
C2272 C2275 1.403 . S
H2273 C2279 0.930 . S
C2274 H2260 0.930 . S
C2274 C2272 1.395 . S
C2274 C2277 1.403 . S
C2275 C2272 1.403 . S
C2275 C2276 1.524 1_565 S
C2275 C2279 1.400 1_565 S
C2276 H2261 0.961 1_554 S
C2276 H2262 0.960 1_544 S
C2276 H2263 0.960 . S
C2276 C2275 1.524 1_545 S
C2277 C2274 1.403 . S
C2277 C2278 1.392 . S
C2277 C2281 1.495 . S
C2278 C2277 1.392 . S
C2278 C2279 1.385 1_565 S
C2278 C2280 1.478 1_565 S
C2279 H2273 0.930 . S
C2279 C2275 1.400 1_545 S
C2279 C2278 1.385 1_545 S
C2280 C2278 1.478 1_545 S
C2280 C2282 1.381 1_545 S
C2280 C2286 1.383 . S
C2281 C2277 1.495 . S
C2281 H2287 0.959 . S
C2281 H2288 0.961 . S
C2281 H2289 0.960 . S
C2282 C2280 1.381 1_565 S
C2282 C2283 1.394 1_565 S
C2282 H2290 0.930 . S
C2283 C2282 1.394 1_545 S
C2283 C2284 1.383 . S
C2283 H2291 0.929 1_545 S
C2284 C2283 1.383 . S
C2284 C2285 1.377 . S
C2285 H2269 0.930 . S
C2285 C2284 1.377 . S
C2285 C2286 1.379 . S
C2286 H2270 0.931 . S
C2286 C2280 1.383 . S
C2286 C2285 1.379 . S
H2287 C2281 0.959 . S
H2288 C2281 0.961 . S
H2289 C2281 0.960 . S
H2290 C2282 0.930 . S
H2291 C2283 0.929 1_565 S
H2292 C2300 0.929 . S
H2293 C2302 0.930 . S
H2294 C2304 0.930 . S
H2295 C2307 0.929 . S
H2296 C2310 0.930 . S
H2297 C2312 0.960 . S
H2298 C2312 0.960 . S
H2299 C2312 0.960 1_554 S
C2300 H2292 0.929 . S
C2300 C2301 1.369 1_556 S
C2300 C2302 1.384 . S
C2301 C2300 1.369 1_554 S
C2301 C2307 1.403 . S
C2302 H2293 0.930 . S
C2302 C2300 1.384 . S
C2302 C2303 1.372 1_556 S
C2303 C2302 1.372 1_554 S
C2303 C2304 1.400 . S
C2303 C2308 1.490 . S
C2304 H2294 0.930 . S
C2304 C2303 1.400 . S
C2304 C2307 1.386 . S
H2305 C2321 0.930 . S
H2306 C2322 0.931 . S
C2307 H2295 0.929 . S
C2307 C2301 1.403 . S
C2307 C2304 1.386 . S
C2308 C2303 1.490 . S
C2308 C2310 1.395 . S
C2308 C2311 1.403 1_554 S
H2309 C2315 0.927 1_556 S
C2310 H2296 0.930 . S
C2310 C2308 1.395 . S
C2310 C2313 1.403 . S
C2311 C2308 1.403 1_556 S
C2311 C2312 1.524 . S
C2311 C2315 1.395 1_556 S
C2312 H2297 0.960 . S
C2312 H2298 0.960 . S
C2312 H2299 0.960 1_556 S
C2312 C2311 1.524 . S
C2313 C2310 1.403 . S
C2313 C2314 1.392 . S
C2313 C2317 1.495 . S
C2314 C2313 1.392 . S
C2314 C2315 1.394 . S
C2314 C2316 1.478 . S
C2315 H2309 0.927 1_554 S
C2315 C2311 1.395 1_554 S
C2315 C2314 1.394 . S
C2316 C2314 1.478 . S
C2316 C2318 1.381 1_554 S
C2316 C2322 1.383 . S
C2317 C2313 1.495 . S
C2317 H2323 0.959 . S
C2317 H2324 0.961 . S
C2317 H2325 0.960 . S
C2318 C2316 1.381 1_556 S
C2318 C2319 1.394 . S
C2318 H2326 0.930 . S
C2319 C2318 1.394 . S
C2319 C2320 1.383 1_556 S
C2319 H2327 0.929 . S
C2320 C2319 1.383 1_554 S
C2320 C2321 1.377 . S
C2321 H2305 0.930 . S
C2321 C2320 1.377 . S
C2321 C2322 1.379 . S
C2322 H2306 0.931 . S
C2322 C2316 1.383 . S
C2322 C2321 1.379 . S
H2323 C2317 0.959 . S
H2324 C2317 0.961 . S
H2325 C2317 0.960 . S
H2326 C2318 0.930 . S
H2327 C2319 0.929 . S
H2328 C2336 0.929 . S
H2329 C2338 0.930 . S
H2330 C2340 0.930 . S
H2331 C2343 0.929 . S
H2332 C2346 0.930 . S
H2333 C2348 0.960 . S
H2334 C2348 0.960 . S
H2335 C2348 0.960 . S
C2336 H2328 0.929 . S
C2336 C2337 1.377 . S
C2336 C2338 1.384 . S
C2337 C2336 1.377 . S
C2337 C2343 1.390 . S
C2338 H2329 0.930 . S
C2338 C2336 1.384 . S
C2338 C2339 1.372 . S
C2339 C2338 1.372 . S
C2339 C2340 1.400 . S
C2339 C2344 1.490 . S
C2340 H2330 0.930 . S
C2340 C2339 1.400 . S
C2340 C2343 1.386 . S
H2341 C2357 0.930 . S
H2342 C2358 0.931 . S
C2343 H2331 0.929 . S
C2343 C2337 1.390 . S
C2343 C2340 1.386 . S
C2344 C2339 1.490 . S
C2344 C2346 1.395 . S
C2344 C2347 1.403 . S
H2345 C2351 0.930 . S
C2346 H2332 0.930 . S
C2346 C2344 1.395 . S
C2346 C2349 1.403 . S
C2347 C2344 1.403 . S
C2347 C2348 1.524 . S
C2347 C2351 1.400 . S
C2348 H2333 0.960 . S
C2348 H2334 0.960 . S
C2348 H2335 0.960 . S
C2348 C2347 1.524 . S
C2349 C2346 1.403 . S
C2349 C2350 1.392 . S
C2349 C2353 1.495 . S
C2350 C2349 1.392 . S
C2350 C2351 1.385 . S
C2350 C2352 1.478 . S
C2351 H2345 0.930 . S
C2351 C2347 1.400 . S
C2351 C2350 1.385 . S
C2352 C2350 1.478 . S
C2352 C2354 1.381 . S
C2352 C2358 1.383 . S
C2353 C2349 1.495 . S
C2353 H2359 0.959 . S
C2353 H2360 0.961 . S
C2353 H2361 0.960 . S
C2354 C2352 1.381 . S
C2354 C2355 1.394 . S
C2354 H2362 0.930 . S
C2355 C2354 1.394 . S
C2355 C2356 1.383 . S
C2355 H2363 0.929 . S
C2356 C2355 1.383 . S
C2356 C2357 1.377 . S
C2357 H2341 0.930 . S
C2357 C2356 1.377 . S
C2357 C2358 1.379 . S
C2358 H2342 0.931 . S
C2358 C2352 1.383 . S
C2358 C2357 1.379 . S
H2359 C2353 0.959 . S
H2360 C2353 0.961 . S
H2361 C2353 0.960 . S
H2362 C2354 0.930 . S
H2363 C2355 0.929 . S
H2364 C2372 0.929 . S
H2365 C2374 0.930 . S
H2366 C2376 0.930 . S
H2367 C2379 0.929 . S
H2368 C2382 0.930 . S
H2369 C2384 0.960 . S
H2370 C2384 0.960 . S
H2371 C2384 0.960 . S
C2372 H2364 0.929 . S
C2372 C2373 1.377 . S
C2372 C2374 1.384 . S
C2373 C2372 1.377 . S
C2373 C2379 1.390 . S
C2374 H2365 0.930 . S
C2374 C2372 1.384 . S
C2374 C2375 1.372 . S
C2375 C2374 1.372 . S
C2375 C2376 1.400 . S
C2375 C2380 1.490 . S
C2376 H2366 0.930 . S
C2376 C2375 1.400 . S
C2376 C2379 1.386 . S
H2377 C2393 0.930 . S
H2378 C2394 0.931 . S
C2379 H2367 0.929 . S
C2379 C2373 1.390 . S
C2379 C2376 1.386 . S
C2380 C2375 1.490 . S
C2380 C2382 1.395 . S
C2380 C2383 1.403 . S
H2381 C2387 0.930 . S
C2382 H2368 0.930 . S
C2382 C2380 1.395 . S
C2382 C2385 1.403 . S
C2383 C2380 1.403 . S
C2383 C2384 1.524 . S
C2383 C2387 1.400 . S
C2384 H2369 0.960 . S
C2384 H2370 0.960 . S
C2384 H2371 0.960 . S
C2384 C2383 1.524 . S
C2385 C2382 1.403 . S
C2385 C2386 1.392 . S
C2385 C2389 1.495 . S
C2386 C2385 1.392 . S
C2386 C2387 1.385 . S
C2386 C2388 1.478 . S
C2387 H2381 0.930 . S
C2387 C2383 1.400 . S
C2387 C2386 1.385 . S
C2388 C2386 1.478 . S
C2388 C2390 1.381 . S
C2388 C2394 1.383 . S
C2389 C2385 1.495 . S
C2389 H2395 0.959 . S
C2389 H2396 0.961 . S
C2389 H2397 0.960 . S
C2390 C2388 1.381 . S
C2390 C2391 1.394 1_655 S
C2390 H2398 0.930 . S
C2391 C2390 1.394 1_455 S
C2391 C2392 1.383 . S
C2391 H2399 0.929 . S
C2392 C2391 1.383 . S
C2392 C2393 1.377 . S
C2393 H2377 0.930 . S
C2393 C2392 1.377 . S
C2393 C2394 1.379 1_455 S
C2394 H2378 0.931 . S
C2394 C2388 1.383 . S
C2394 C2393 1.379 1_655 S
H2395 C2389 0.959 . S
H2396 C2389 0.961 . S
H2397 C2389 0.960 . S
H2398 C2390 0.930 . S
H2399 C2391 0.929 . S
H2400 C2408 0.929 . S
H2401 C2410 0.930 . S
H2402 C2412 0.930 . S
H2403 C2415 0.929 . S
H2404 C2418 0.930 . S
H2405 C2420 0.960 . S
H2406 C2420 0.960 . S
H2407 C2420 0.960 . S
C2408 H2400 0.929 . S
C2408 C2409 1.377 . S
C2408 C2410 1.384 . S
C2409 C2408 1.377 . S
C2409 C2415 1.390 . S
C2410 H2401 0.930 . S
C2410 C2408 1.384 . S
C2410 C2411 1.372 . S
C2411 C2410 1.372 . S
C2411 C2412 1.400 . S
C2411 C2416 1.490 . S
C2412 H2402 0.930 . S
C2412 C2411 1.400 . S
C2412 C2415 1.386 . S
H2413 C2429 0.930 . S
H2414 C2430 0.931 . S
C2415 H2403 0.929 . S
C2415 C2409 1.390 . S
C2415 C2412 1.386 . S
C2416 C2411 1.490 . S
C2416 C2418 1.395 . S
C2416 C2419 1.403 . S
H2417 C2423 0.930 . S
C2418 H2404 0.930 . S
C2418 C2416 1.395 . S
C2418 C2421 1.403 . S
C2419 C2416 1.403 . S
C2419 C2420 1.524 . S
C2419 C2423 1.400 . S
C2420 H2405 0.960 . S
C2420 H2406 0.960 . S
C2420 H2407 0.960 . S
C2420 C2419 1.524 . S
C2421 C2418 1.403 . S
C2421 C2422 1.392 . S
C2421 C2425 1.495 . S
C2422 C2421 1.392 . S
C2422 C2423 1.385 . S
C2422 C2424 1.478 . S
C2423 H2417 0.930 . S
C2423 C2419 1.400 . S
C2423 C2422 1.385 . S
C2424 C2422 1.478 . S
C2424 C2426 1.381 . S
C2424 C2430 1.383 . S
C2425 C2421 1.495 . S
C2425 H2431 0.959 . S
C2425 H2432 0.961 . S
C2425 H2433 0.960 . S
C2426 C2424 1.381 . S
C2426 C2427 1.394 . S
C2426 H2434 0.930 . S
C2427 C2426 1.394 . S
C2427 C2428 1.383 . S
C2427 H2435 0.929 . S
C2428 C2427 1.383 . S
C2428 C2429 1.377 . S
C2429 H2413 0.930 . S
C2429 C2428 1.377 . S
C2429 C2430 1.379 . S
C2430 H2414 0.931 . S
C2430 C2424 1.383 . S
C2430 C2429 1.379 . S
H2431 C2425 0.959 . S
H2432 C2425 0.961 . S
H2433 C2425 0.960 . S
H2434 C2426 0.930 . S
H2435 C2427 0.929 . S
H2436 C2444 0.929 . S
H2437 C2446 0.930 . S
H2438 C2448 0.930 . S
H2439 C2451 0.929 . S
H2440 C2454 0.930 . S
H2441 C2456 0.960 . S
H2442 C2456 0.960 . S
H2443 C2456 0.960 . S
C2444 H2436 0.929 . S
C2444 C2445 1.377 . S
C2444 C2446 1.384 . S
C2445 C2444 1.377 . S
C2445 C2451 1.390 . S
C2446 H2437 0.930 . S
C2446 C2444 1.384 . S
C2446 C2447 1.372 . S
C2447 C2446 1.372 . S
C2447 C2448 1.400 . S
C2447 C2452 1.490 . S
C2448 H2438 0.930 . S
C2448 C2447 1.400 . S
C2448 C2451 1.386 . S
H2449 C2465 0.930 . S
H2450 C2466 0.931 . S
C2451 H2439 0.929 . S
C2451 C2445 1.390 . S
C2451 C2448 1.386 . S
C2452 C2447 1.490 . S
C2452 C2454 1.395 . S
C2452 C2455 1.403 . S
H2453 C2459 0.930 . S
C2454 H2440 0.930 . S
C2454 C2452 1.395 . S
C2454 C2457 1.403 . S
C2455 C2452 1.403 . S
C2455 C2456 1.524 . S
C2455 C2459 1.400 . S
C2456 H2441 0.960 . S
C2456 H2442 0.960 . S
C2456 H2443 0.960 . S
C2456 C2455 1.524 . S
C2457 C2454 1.403 . S
C2457 C2458 1.392 . S
C2457 C2461 1.495 . S
C2458 C2457 1.392 . S
C2458 C2459 1.385 . S
C2458 C2460 1.478 . S
C2459 H2453 0.930 . S
C2459 C2455 1.400 . S
C2459 C2458 1.385 . S
C2460 C2458 1.478 . S
C2460 C2462 1.381 . S
C2460 C2466 1.383 . S
C2461 C2457 1.495 . S
C2461 H2467 0.959 . S
C2461 H2468 0.961 . S
C2461 H2469 0.960 . S
C2462 C2460 1.381 . S
C2462 C2463 1.394 . S
C2462 H2470 0.930 . S
C2463 C2462 1.394 . S
C2463 C2464 1.383 . S
C2463 H2471 0.929 . S
C2464 C2463 1.383 . S
C2464 C2465 1.377 . S
C2465 H2449 0.930 . S
C2465 C2464 1.377 . S
C2465 C2466 1.379 . S
C2466 H2450 0.931 . S
C2466 C2460 1.383 . S
C2466 C2465 1.379 . S
H2467 C2461 0.959 . S
H2468 C2461 0.961 . S
H2469 C2461 0.960 . S
H2470 C2462 0.930 . S
H2471 C2463 0.929 . S
H2472 C2480 0.929 . S
H2473 C2482 0.930 . S
H2474 C2484 0.930 . S
H2475 C2487 0.929 . S
H2476 C2490 0.930 . S
H2477 C2492 0.960 . S
H2478 C2492 0.960 . S
H2479 C2492 0.960 . S
C2480 H2472 0.929 . S
C2480 C2481 1.377 . S
C2480 C2482 1.384 . S
C2481 C2480 1.377 . S
C2481 C2487 1.390 . S
C2482 H2473 0.930 . S
C2482 C2480 1.384 . S
C2482 C2483 1.372 . S
C2483 C2482 1.372 . S
C2483 C2484 1.400 . S
C2483 C2488 1.490 . S
C2484 H2474 0.930 . S
C2484 C2483 1.400 . S
C2484 C2487 1.386 . S
H2485 C2501 0.930 . S
H2486 C2502 0.931 . S
C2487 H2475 0.929 . S
C2487 C2481 1.390 . S
C2487 C2484 1.386 . S
C2488 C2483 1.490 . S
C2488 C2490 1.395 . S
C2488 C2491 1.403 . S
H2489 C2495 0.930 . S
C2490 H2476 0.930 . S
C2490 C2488 1.395 . S
C2490 C2493 1.403 . S
C2491 C2488 1.403 . S
C2491 C2492 1.524 . S
C2491 C2495 1.400 . S
C2492 H2477 0.960 . S
C2492 H2478 0.960 . S
C2492 H2479 0.960 . S
C2492 C2491 1.524 . S
C2493 C2490 1.403 . S
C2493 C2494 1.392 . S
C2493 C2497 1.495 . S
C2494 C2493 1.392 . S
C2494 C2495 1.385 . S
C2494 C2496 1.478 . S
C2495 H2489 0.930 . S
C2495 C2491 1.400 . S
C2495 C2494 1.385 . S
C2496 C2494 1.478 . S
C2496 C2498 1.381 . S
C2496 C2502 1.383 . S
C2497 C2493 1.495 . S
C2497 H2503 0.959 . S
C2497 H2504 0.961 . S
C2497 H2505 0.960 . S
C2498 C2496 1.381 . S
C2498 C2499 1.394 . S
C2498 H2506 0.930 . S
C2499 C2498 1.394 . S
C2499 C2500 1.383 . S
C2499 H2507 0.929 . S
C2500 C2499 1.383 . S
C2500 C2501 1.377 . S
C2501 H2485 0.930 . S
C2501 C2500 1.377 . S
C2501 C2502 1.379 . S
C2502 H2486 0.931 . S
C2502 C2496 1.383 . S
C2502 C2501 1.379 . S
H2503 C2497 0.959 . S
H2504 C2497 0.961 . S
H2505 C2497 0.960 . S
H2506 C2498 0.930 . S
H2507 C2499 0.929 . S
H2508 C2516 0.929 . S
H2509 C2518 0.930 . S
H2510 C2520 0.930 . S
H2511 C2523 0.929 . S
H2512 C2526 0.930 . S
H2513 C2528 0.960 . S
H2514 C2528 0.960 . S
H2515 C2528 0.960 . S
C2516 H2508 0.929 . S
C2516 C2517 1.377 . S
C2516 C2518 1.384 . S
C2517 C2516 1.377 . S
C2517 C2523 1.390 . S
C2518 H2509 0.930 . S
C2518 C2516 1.384 . S
C2518 C2519 1.372 . S
C2519 C2518 1.372 . S
C2519 C2520 1.400 . S
C2519 C2524 1.490 . S
C2520 H2510 0.930 . S
C2520 C2519 1.400 . S
C2520 C2523 1.386 . S
H2521 C2537 0.930 . S
H2522 C2538 0.931 . S
C2523 H2511 0.929 . S
C2523 C2517 1.390 . S
C2523 C2520 1.386 . S
C2524 C2519 1.490 . S
C2524 C2526 1.395 . S
C2524 C2527 1.403 . S
H2525 C2531 0.930 . S
C2526 H2512 0.930 . S
C2526 C2524 1.395 . S
C2526 C2529 1.403 . S
C2527 C2524 1.403 . S
C2527 C2528 1.524 . S
C2527 C2531 1.400 . S
C2528 H2513 0.960 . S
C2528 H2514 0.960 . S
C2528 H2515 0.960 . S
C2528 C2527 1.524 . S
C2529 C2526 1.403 . S
C2529 C2530 1.392 . S
C2529 C2533 1.495 . S
C2530 C2529 1.392 . S
C2530 C2531 1.385 . S
C2530 C2532 1.478 . S
C2531 H2525 0.930 . S
C2531 C2527 1.400 . S
C2531 C2530 1.385 . S
C2532 C2530 1.478 . S
C2532 C2534 1.381 . S
C2532 C2538 1.383 . S
C2533 C2529 1.495 . S
C2533 H2539 0.959 . S
C2533 H2540 0.961 . S
C2533 H2541 0.960 . S
C2534 C2532 1.381 . S
C2534 C2535 1.394 . S
C2534 H2542 0.930 . S
C2535 C2534 1.394 . S
C2535 C2536 1.383 . S
C2535 H2543 0.929 . S
C2536 C2535 1.383 . S
C2536 C2537 1.377 . S
C2537 H2521 0.930 . S
C2537 C2536 1.377 . S
C2537 C2538 1.379 . S
C2538 H2522 0.931 . S
C2538 C2532 1.383 . S
C2538 C2537 1.379 . S
H2539 C2533 0.959 . S
H2540 C2533 0.961 . S
H2541 C2533 0.960 . S
H2542 C2534 0.930 . S
H2543 C2535 0.929 . S
H2544 C2552 0.929 . S
H2545 C2554 0.930 . S
H2546 C2556 0.930 . S
H2547 C2559 0.929 . S
H2548 C2562 0.930 . S
H2549 C2564 0.960 . S
H2550 C2564 0.960 . S
H2551 C2564 0.960 . S
C2552 H2544 0.929 . S
C2552 C2553 1.377 . S
C2552 C2554 1.384 . S
C2553 C2552 1.377 . S
C2553 C2559 1.390 . S
C2554 H2545 0.930 . S
C2554 C2552 1.384 . S
C2554 C2555 1.372 . S
C2555 C2554 1.372 . S
C2555 C2556 1.400 . S
C2555 C2560 1.490 . S
C2556 H2546 0.930 . S
C2556 C2555 1.400 . S
C2556 C2559 1.386 . S
H2557 C2573 0.930 . S
H2558 C2574 0.931 . S
C2559 H2547 0.929 . S
C2559 C2553 1.390 . S
C2559 C2556 1.386 . S
C2560 C2555 1.490 . S
C2560 C2562 1.395 . S
C2560 C2563 1.403 . S
H2561 C2567 0.930 . S
C2562 H2548 0.930 . S
C2562 C2560 1.395 . S
C2562 C2565 1.403 . S
C2563 C2560 1.403 . S
C2563 C2564 1.524 . S
C2563 C2567 1.400 . S
C2564 H2549 0.960 . S
C2564 H2550 0.960 . S
C2564 H2551 0.960 . S
C2564 C2563 1.524 . S
C2565 C2562 1.403 . S
C2565 C2566 1.392 . S
C2565 C2569 1.495 . S
C2566 C2565 1.392 . S
C2566 C2567 1.385 . S
C2566 C2568 1.478 . S
C2567 H2561 0.930 . S
C2567 C2563 1.400 . S
C2567 C2566 1.385 . S
C2568 C2566 1.478 . S
C2568 C2570 1.381 . S
C2568 C2574 1.383 . S
C2569 C2565 1.495 . S
C2569 H2575 0.959 . S
C2569 H2576 0.961 . S
C2569 H2577 0.960 . S
C2570 C2568 1.381 . S
C2570 C2571 1.394 . S
C2570 H2578 0.930 . S
C2571 C2570 1.394 . S
C2571 C2572 1.383 . S
C2571 H2579 0.929 1_565 S
C2572 C2571 1.383 . S
C2572 C2573 1.377 . S
C2573 H2557 0.930 . S
C2573 C2572 1.377 . S
C2573 C2574 1.379 . S
C2574 H2558 0.931 . S
C2574 C2568 1.383 . S
C2574 C2573 1.379 . S
H2575 C2569 0.959 . S
H2576 C2569 0.961 . S
H2577 C2569 0.960 . S
H2578 C2570 0.930 . S
H2579 C2571 0.929 1_545 S
H2580 C2588 0.929 . S
H2581 C2590 0.930 . S
H2582 C2592 0.930 . S
H2583 C2595 0.929 . S
H2584 C2598 0.930 . S
H2585 C2600 0.960 . S
H2586 C2600 0.960 . S
H2587 C2600 0.960 . S
C2588 H2580 0.929 . S
C2588 C2589 1.377 . S
C2588 C2590 1.384 . S
C2589 C2588 1.377 . S
C2589 C2595 1.390 . S
C2590 H2581 0.930 . S
C2590 C2588 1.384 . S
C2590 C2591 1.372 . S
C2591 C2590 1.372 . S
C2591 C2592 1.400 . S
C2591 C2596 1.490 . S
C2592 H2582 0.930 . S
C2592 C2591 1.400 . S
C2592 C2595 1.386 . S
H2593 C2609 0.930 . S
H2594 C2610 0.931 . S
C2595 H2583 0.929 . S
C2595 C2589 1.390 . S
C2595 C2592 1.386 . S
C2596 C2591 1.490 . S
C2596 C2598 1.395 . S
C2596 C2599 1.403 . S
H2597 C2603 0.930 . S
C2598 H2584 0.930 . S
C2598 C2596 1.395 . S
C2598 C2601 1.403 . S
C2599 C2596 1.403 . S
C2599 C2600 1.524 . S
C2599 C2603 1.400 . S
C2600 H2585 0.960 . S
C2600 H2586 0.960 . S
C2600 H2587 0.960 . S
C2600 C2599 1.524 . S
C2601 C2598 1.403 . S
C2601 C2602 1.392 . S
C2601 C2605 1.495 . S
C2602 C2601 1.392 . S
C2602 C2603 1.385 . S
C2602 C2604 1.478 . S
C2603 H2597 0.930 . S
C2603 C2599 1.400 . S
C2603 C2602 1.385 . S
C2604 C2602 1.478 . S
C2604 C2606 1.381 . S
C2604 C2610 1.383 . S
C2605 C2601 1.495 . S
C2605 H2611 0.959 . S
C2605 H2612 0.961 . S
C2605 H2613 0.960 . S
C2606 C2604 1.381 . S
C2606 C2607 1.394 . S
C2606 H2614 0.930 . S
C2607 C2606 1.394 . S
C2607 C2608 1.383 . S
C2607 H2615 0.929 . S
C2608 C2607 1.383 . S
C2608 C2609 1.377 . S
C2609 H2593 0.930 . S
C2609 C2608 1.377 . S
C2609 C2610 1.379 . S
C2610 H2594 0.931 . S
C2610 C2604 1.383 . S
C2610 C2609 1.379 . S
H2611 C2605 0.959 . S
H2612 C2605 0.961 . S
H2613 C2605 0.960 . S
H2614 C2606 0.930 . S
H2615 C2607 0.929 . S
H2616 C2624 0.929 . S
H2617 C2626 0.930 . S
H2618 C2628 0.930 . S
H2619 C2631 0.929 . S
H2620 C2634 0.930 . S
H2621 C2636 0.960 . S
H2622 C2636 0.960 . S
H2623 C2636 0.960 . S
C2624 H2616 0.929 . S
C2624 C2625 1.377 . S
C2624 C2626 1.384 . S
C2625 C2624 1.377 . S
C2625 C2631 1.390 . S
C2626 H2617 0.930 . S
C2626 C2624 1.384 . S
C2626 C2627 1.372 . S
C2627 C2626 1.372 . S
C2627 C2628 1.400 . S
C2627 C2632 1.490 . S
C2628 H2618 0.930 . S
C2628 C2627 1.400 . S
C2628 C2631 1.386 . S
H2629 C2645 0.930 . S
H2630 C2646 0.931 . S
C2631 H2619 0.929 . S
C2631 C2625 1.390 . S
C2631 C2628 1.386 . S
C2632 C2627 1.490 . S
C2632 C2634 1.395 . S
C2632 C2635 1.403 . S
H2633 C2639 0.930 . S
C2634 H2620 0.930 . S
C2634 C2632 1.395 . S
C2634 C2637 1.403 . S
C2635 C2632 1.403 . S
C2635 C2636 1.524 . S
C2635 C2639 1.400 . S
C2636 H2621 0.960 . S
C2636 H2622 0.960 . S
C2636 H2623 0.960 . S
C2636 C2635 1.524 . S
C2637 C2634 1.403 . S
C2637 C2638 1.392 . S
C2637 C2641 1.495 . S
C2638 C2637 1.392 . S
C2638 C2639 1.385 . S
C2638 C2640 1.478 . S
C2639 H2633 0.930 . S
C2639 C2635 1.400 . S
C2639 C2638 1.385 . S
C2640 C2638 1.478 . S
C2640 C2642 1.381 . S
C2640 C2646 1.383 . S
C2641 C2637 1.495 . S
C2641 H2647 0.959 . S
C2641 H2648 0.961 . S
C2641 H2649 0.960 . S
C2642 C2640 1.381 . S
C2642 C2643 1.394 . S
C2642 H2650 0.930 . S
C2643 C2642 1.394 . S
C2643 C2644 1.383 . S
C2643 H2651 0.929 . S
C2644 C2643 1.383 . S
C2644 C2645 1.377 . S
C2645 H2629 0.930 . S
C2645 C2644 1.377 . S
C2645 C2646 1.379 . S
C2646 H2630 0.931 . S
C2646 C2640 1.383 . S
C2646 C2645 1.379 . S
H2647 C2641 0.959 . S
H2648 C2641 0.961 . S
H2649 C2641 0.960 . S
H2650 C2642 0.930 . S
H2651 C2643 0.929 . S
H2652 C2660 0.929 . S
H2653 C2662 0.930 . S
H2654 C2664 0.930 . S
H2655 C2667 0.929 . S
H2656 C2670 0.930 . S
H2657 C2672 0.960 . S
H2658 C2672 0.960 . S
H2659 C2672 0.960 . S
C2660 H2652 0.929 . S
C2660 C2661 1.377 . S
C2660 C2662 1.384 . S
C2661 C2660 1.377 . S
C2661 C2667 1.390 . S
C2662 H2653 0.930 . S
C2662 C2660 1.384 . S
C2662 C2663 1.372 . S
C2663 C2662 1.372 . S
C2663 C2664 1.400 . S
C2663 C2668 1.490 . S
C2664 H2654 0.930 . S
C2664 C2663 1.400 . S
C2664 C2667 1.386 . S
H2665 C2681 0.930 . S
H2666 C2682 0.931 . S
C2667 H2655 0.929 . S
C2667 C2661 1.390 . S
C2667 C2664 1.386 . S
C2668 C2663 1.490 . S
C2668 C2670 1.395 . S
C2668 C2671 1.403 . S
H2669 C2675 0.930 . S
C2670 H2656 0.930 . S
C2670 C2668 1.395 . S
C2670 C2673 1.403 . S
C2671 C2668 1.403 . S
C2671 C2672 1.524 . S
C2671 C2675 1.400 . S
C2672 H2657 0.960 . S
C2672 H2658 0.960 . S
C2672 H2659 0.960 . S
C2672 C2671 1.524 . S
C2673 C2670 1.403 . S
C2673 C2674 1.392 . S
C2673 C2677 1.495 . S
C2674 C2673 1.392 . S
C2674 C2675 1.385 . S
C2674 C2676 1.478 . S
C2675 H2669 0.930 . S
C2675 C2671 1.400 . S
C2675 C2674 1.385 . S
C2676 C2674 1.478 . S
C2676 C2678 1.381 . S
C2676 C2682 1.383 . S
C2677 C2673 1.495 . S
C2677 H2683 0.959 . S
C2677 H2684 0.961 . S
C2677 H2685 0.960 . S
C2678 C2676 1.381 . S
C2678 C2679 1.394 . S
C2678 H2686 0.930 . S
C2679 C2678 1.394 . S
C2679 C2680 1.383 . S
C2679 H2687 0.929 . S
C2680 C2679 1.383 . S
C2680 C2681 1.377 . S
C2681 H2665 0.930 . S
C2681 C2680 1.377 . S
C2681 C2682 1.379 . S
C2682 H2666 0.931 . S
C2682 C2676 1.383 . S
C2682 C2681 1.379 . S
H2683 C2677 0.959 . S
H2684 C2677 0.961 . S
H2685 C2677 0.960 . S
H2686 C2678 0.930 . S
H2687 C2679 0.929 . S
H2688 C2696 0.929 . S
H2689 C2698 0.930 . S
H2690 C2700 0.930 . S
H2691 C2703 0.929 . S
H2692 C2706 0.930 . S
H2693 C2708 0.960 . S
H2694 C2708 0.960 . S
H2695 C2708 0.960 . S
C2696 H2688 0.929 . S
C2696 C2697 1.377 . S
C2696 C2698 1.384 . S
C2697 C2696 1.377 . S
C2697 C2703 1.390 . S
C2698 H2689 0.930 . S
C2698 C2696 1.384 . S
C2698 C2699 1.372 . S
C2699 C2698 1.372 . S
C2699 C2700 1.400 . S
C2699 C2704 1.490 . S
C2700 H2690 0.930 . S
C2700 C2699 1.400 . S
C2700 C2703 1.386 . S
H2701 C2717 0.930 . S
H2702 C2718 0.931 . S
C2703 H2691 0.929 . S
C2703 C2697 1.390 . S
C2703 C2700 1.386 . S
C2704 C2699 1.490 . S
C2704 C2706 1.395 . S
C2704 C2707 1.403 . S
H2705 C2711 0.930 . S
C2706 H2692 0.930 . S
C2706 C2704 1.395 . S
C2706 C2709 1.403 . S
C2707 C2704 1.403 . S
C2707 C2708 1.524 . S
C2707 C2711 1.400 . S
C2708 H2693 0.960 . S
C2708 H2694 0.960 . S
C2708 H2695 0.960 . S
C2708 C2707 1.524 . S
C2709 C2706 1.403 . S
C2709 C2710 1.392 . S
C2709 C2713 1.495 . S
C2710 C2709 1.392 . S
C2710 C2711 1.385 . S
C2710 C2712 1.478 . S
C2711 H2705 0.930 . S
C2711 C2707 1.400 . S
C2711 C2710 1.385 . S
C2712 C2710 1.478 . S
C2712 C2714 1.381 . S
C2712 C2718 1.383 . S
C2713 C2709 1.495 . S
C2713 H2719 0.959 . S
C2713 H2720 0.961 . S
C2713 H2721 0.960 . S
C2714 C2712 1.381 . S
C2714 C2715 1.394 . S
C2714 H2722 0.930 . S
C2715 C2714 1.394 . S
C2715 C2716 1.383 . S
C2715 H2723 0.929 . S
C2716 C2715 1.383 . S
C2716 C2717 1.377 . S
C2717 H2701 0.930 . S
C2717 C2716 1.377 . S
C2717 C2718 1.379 . S
C2718 H2702 0.931 . S
C2718 C2712 1.383 . S
C2718 C2717 1.379 . S
H2719 C2713 0.959 . S
H2720 C2713 0.961 . S
H2721 C2713 0.960 . S
H2722 C2714 0.930 . S
H2723 C2715 0.929 . S
H2724 C2732 0.929 . S
H2725 C2734 0.930 . S
H2726 C2736 0.930 . S
H2727 C2739 0.929 . S
H2728 C2742 0.930 . S
H2729 C2744 0.960 . S
H2730 C2744 0.960 . S
H2731 C2744 0.960 . S
C2732 H2724 0.929 . S
C2732 C2733 1.377 . S
C2732 C2734 1.384 . S
C2733 C2732 1.377 . S
C2733 C2739 1.390 . S
C2734 H2725 0.930 . S
C2734 C2732 1.384 . S
C2734 C2735 1.372 . S
C2735 C2734 1.372 . S
C2735 C2736 1.400 . S
C2735 C2740 1.490 . S
C2736 H2726 0.930 . S
C2736 C2735 1.400 . S
C2736 C2739 1.386 . S
H2737 C2753 0.930 . S
H2738 C2754 0.931 . S
C2739 H2727 0.929 . S
C2739 C2733 1.390 . S
C2739 C2736 1.386 . S
C2740 C2735 1.490 . S
C2740 C2742 1.395 . S
C2740 C2743 1.403 . S
H2741 C2747 0.930 . S
C2742 H2728 0.930 . S
C2742 C2740 1.395 . S
C2742 C2745 1.403 . S
C2743 C2740 1.403 . S
C2743 C2744 1.524 . S
C2743 C2747 1.400 . S
C2744 H2729 0.960 . S
C2744 H2730 0.960 . S
C2744 H2731 0.960 . S
C2744 C2743 1.524 . S
C2745 C2742 1.403 . S
C2745 C2746 1.392 . S
C2745 C2749 1.495 . S
C2746 C2745 1.392 . S
C2746 C2747 1.385 . S
C2746 C2748 1.478 . S
C2747 H2741 0.930 . S
C2747 C2743 1.400 . S
C2747 C2746 1.385 . S
C2748 C2746 1.478 . S
C2748 C2750 1.381 . S
C2748 C2754 1.383 . S
C2749 C2745 1.495 . S
C2749 H2755 0.959 . S
C2749 H2756 0.961 . S
C2749 H2757 0.960 . S
C2750 C2748 1.381 . S
C2750 C2751 1.394 . S
C2750 H2758 0.930 . S
C2751 C2750 1.394 . S
C2751 C2752 1.383 . S
C2751 H2759 0.929 . S
C2752 C2751 1.383 . S
C2752 C2753 1.377 . S
C2753 H2737 0.930 . S
C2753 C2752 1.377 . S
C2753 C2754 1.379 . S
C2754 H2738 0.931 . S
C2754 C2748 1.383 . S
C2754 C2753 1.379 . S
H2755 C2749 0.959 . S
H2756 C2749 0.961 . S
H2757 C2749 0.960 . S
H2758 C2750 0.930 . S
H2759 C2751 0.929 . S
H2760 C2768 0.929 . S
H2761 C2770 0.930 . S
H2762 C2772 0.930 . S
H2763 C2775 0.929 . S
H2764 C2778 0.930 . S
H2765 C2780 0.960 . S
H2766 C2780 0.960 . S
H2767 C2780 0.960 . S
C2768 H2760 0.929 . S
C2768 C2769 1.377 . S
C2768 C2770 1.384 . S
C2769 C2768 1.377 . S
C2769 C2775 1.390 . S
C2770 H2761 0.930 . S
C2770 C2768 1.384 . S
C2770 C2771 1.372 . S
C2771 C2770 1.372 . S
C2771 C2772 1.400 . S
C2771 C2776 1.490 . S
C2772 H2762 0.930 . S
C2772 C2771 1.400 . S
C2772 C2775 1.386 . S
H2773 C2789 0.930 . S
H2774 C2790 0.931 1_554 S
C2775 H2763 0.929 . S
C2775 C2769 1.390 . S
C2775 C2772 1.386 . S
C2776 C2771 1.490 . S
C2776 C2778 1.395 . S
C2776 C2779 1.403 . S
H2777 C2783 0.930 . S
C2778 H2764 0.930 . S
C2778 C2776 1.395 . S
C2778 C2781 1.403 . S
C2779 C2776 1.403 . S
C2779 C2780 1.524 . S
C2779 C2783 1.400 . S
C2780 H2765 0.960 . S
C2780 H2766 0.960 . S
C2780 H2767 0.960 . S
C2780 C2779 1.524 . S
C2781 C2778 1.403 . S
C2781 C2782 1.392 . S
C2781 C2785 1.495 . S
C2782 C2781 1.392 . S
C2782 C2783 1.385 . S
C2782 C2784 1.478 . S
C2783 H2777 0.930 . S
C2783 C2779 1.400 . S
C2783 C2782 1.385 . S
C2784 C2782 1.478 . S
C2784 C2786 1.381 . S
C2784 C2790 1.383 . S
C2785 C2781 1.495 . S
C2785 H2791 0.959 . S
C2785 H2792 0.961 . S
C2785 H2793 0.960 . S
C2786 C2784 1.381 . S
C2786 C2787 1.394 . S
C2786 H2794 0.930 . S
C2787 C2786 1.394 . S
C2787 C2788 1.383 1_556 S
C2787 H2795 0.960 . S
C2788 C2787 1.383 1_554 S
C2788 C2789 1.377 . S
C2789 H2773 0.930 . S
C2789 C2788 1.377 . S
C2789 C2790 1.379 1_554 S
C2790 H2774 0.931 1_556 S
C2790 C2784 1.383 . S
C2790 C2789 1.379 1_556 S
H2791 C2785 0.959 . S
H2792 C2785 0.961 . S
H2793 C2785 0.960 . S
H2794 C2786 0.930 . S
H2795 C2787 0.960 . S
H2796 C2804 0.929 . S
H2797 C2806 0.930 . S
H2798 C2808 0.930 . S
H2799 C2811 0.929 . S
H2800 C2814 0.930 . S
H2801 C2816 0.960 . S
H2802 C2816 0.960 . S
H2803 C2816 0.960 . S
C2804 H2796 0.929 . S
C2804 C2805 1.377 . S
C2804 C2806 1.384 . S
C2805 C2804 1.377 . S
C2805 C2811 1.390 . S
C2806 H2797 0.930 . S
C2806 C2804 1.384 . S
C2806 C2807 1.372 . S
C2807 C2806 1.372 . S
C2807 C2808 1.400 . S
C2807 C2812 1.490 . S
C2808 H2798 0.930 . S
C2808 C2807 1.400 . S
C2808 C2811 1.386 . S
H2809 C2825 0.930 . S
H2810 C2826 0.931 . S
C2811 H2799 0.929 . S
C2811 C2805 1.390 . S
C2811 C2808 1.386 . S
C2812 C2807 1.490 . S
C2812 C2814 1.395 . S
C2812 C2815 1.403 . S
H2813 C2819 0.930 . S
C2814 H2800 0.930 . S
C2814 C2812 1.395 . S
C2814 C2817 1.403 . S
C2815 C2812 1.403 . S
C2815 C2816 1.524 . S
C2815 C2819 1.400 . S
C2816 H2801 0.960 . S
C2816 H2802 0.960 . S
C2816 H2803 0.960 . S
C2816 C2815 1.524 . S
C2817 C2814 1.403 . S
C2817 C2818 1.392 . S
C2817 C2821 1.495 . S
C2818 C2817 1.392 . S
C2818 C2819 1.385 . S
C2818 C2820 1.478 . S
C2819 H2813 0.930 . S
C2819 C2815 1.400 . S
C2819 C2818 1.385 . S
C2820 C2818 1.478 . S
C2820 C2822 1.381 . S
C2820 C2826 1.383 . S
C2821 C2817 1.495 . S
C2821 H2827 0.959 . S
C2821 H2828 0.961 . S
C2821 H2829 0.960 . S
C2822 C2820 1.381 . S
C2822 C2823 1.394 . S
C2822 H2830 0.930 . S
C2823 C2822 1.394 . S
C2823 C2824 1.383 . S
C2823 H2831 0.929 . S
C2824 C2823 1.383 . S
C2824 C2825 1.377 . S
C2825 H2809 0.930 . S
C2825 C2824 1.377 . S
C2825 C2826 1.379 . S
C2826 H2810 0.931 . S
C2826 C2820 1.383 . S
C2826 C2825 1.379 . S
H2827 C2821 0.959 . S
H2828 C2821 0.961 . S
H2829 C2821 0.960 . S
H2830 C2822 0.930 . S
H2831 C2823 0.929 . S
H2832 C2840 0.929 . S
H2833 C2842 0.930 . S
H2834 C2844 0.930 1_565 S
H2835 C2847 0.929 1_565 S
H2836 C2850 0.930 . S
H2837 C2852 0.960 . S
H2838 C2852 0.960 . S
H2839 C2852 0.960 . S
C2840 H2832 0.929 . S
C2840 C2841 1.377 . S
C2840 C2842 1.384 . S
C2841 C2840 1.377 . S
C2841 C2847 1.390 . S
C2842 H2833 0.930 . S
C2842 C2840 1.384 . S
C2842 C2843 1.372 . S
C2843 C2842 1.372 . S
C2843 C2844 1.400 . S
C2843 C2848 1.490 . S
C2844 H2834 0.930 1_545 S
C2844 C2843 1.400 . S
C2844 C2847 1.386 . S
H2845 C2861 0.930 . S
H2846 C2862 0.931 . S
C2847 H2835 0.929 1_545 S
C2847 C2841 1.390 . S
C2847 C2844 1.386 . S
C2848 C2843 1.490 . S
C2848 C2850 1.395 . S
C2848 C2851 1.403 . S
H2849 C2855 0.930 . S
C2850 H2836 0.930 . S
C2850 C2848 1.395 . S
C2850 C2853 1.403 . S
C2851 C2848 1.403 . S
C2851 C2852 1.524 . S
C2851 C2855 1.400 . S
C2852 H2837 0.960 . S
C2852 H2838 0.960 . S
C2852 H2839 0.960 . S
C2852 C2851 1.524 . S
C2853 C2850 1.403 . S
C2853 C2854 1.392 . S
C2853 C2857 1.495 . S
C2854 C2853 1.392 . S
C2854 C2855 1.385 . S
C2854 C2856 1.478 . S
C2855 H2849 0.930 . S
C2855 C2851 1.400 . S
C2855 C2854 1.385 . S
C2856 C2854 1.478 . S
C2856 C2858 1.381 . S
C2856 C2862 1.383 . S
C2857 C2853 1.495 . S
C2857 H2863 0.959 . S
C2857 H2864 0.961 1_545 S
C2857 H2865 0.960 . S
C2858 C2856 1.381 . S
C2858 C2859 1.394 . S
C2858 H2866 0.930 . S
C2859 C2858 1.394 . S
C2859 C2860 1.383 . S
C2859 H2867 0.929 . S
C2860 C2859 1.383 . S
C2860 C2861 1.377 . S
C2861 H2845 0.930 . S
C2861 C2860 1.377 . S
C2861 C2862 1.379 . S
C2862 H2846 0.931 . S
C2862 C2856 1.383 . S
C2862 C2861 1.379 . S
H2863 C2857 0.959 . S
H2864 C2857 0.961 1_565 S
H2865 C2857 0.960 . S
H2866 C2858 0.930 . S
H2867 C2859 0.929 . S
H2868 C2876 0.929 . S
H2869 C2878 0.930 . S
H2870 C2880 0.930 . S
H2871 C2883 0.929 . S
H2872 C2886 0.930 . S
H2873 C2888 0.960 . S
H2874 C2888 0.960 . S
H2875 C2888 0.960 . S
C2876 H2868 0.929 . S
C2876 C2877 1.377 . S
C2876 C2878 1.384 . S
C2877 C2876 1.377 . S
C2877 C2883 1.390 . S
C2878 H2869 0.930 . S
C2878 C2876 1.384 . S
C2878 C2879 1.372 . S
C2879 C2878 1.372 . S
C2879 C2880 1.400 . S
C2879 C2884 1.490 . S
C2880 H2870 0.930 . S
C2880 C2879 1.400 . S
C2880 C2883 1.386 . S
H2881 C2897 0.930 . S
H2882 C2898 0.931 . S
C2883 H2871 0.929 . S
C2883 C2877 1.390 . S
C2883 C2880 1.386 . S
C2884 C2879 1.490 . S
C2884 C2886 1.395 . S
C2884 C2887 1.403 . S
H2885 C2891 0.930 . S
C2886 H2872 0.930 . S
C2886 C2884 1.395 . S
C2886 C2889 1.403 . S
C2887 C2884 1.403 . S
C2887 C2888 1.524 . S
C2887 C2891 1.400 . S
C2888 H2873 0.960 . S
C2888 H2874 0.960 . S
C2888 H2875 0.960 . S
C2888 C2887 1.524 . S
C2889 C2886 1.403 . S
C2889 C2890 1.392 . S
C2889 C2893 1.495 . S
C2890 C2889 1.392 . S
C2890 C2891 1.385 . S
C2890 C2892 1.478 . S
C2891 H2885 0.930 . S
C2891 C2887 1.400 . S
C2891 C2890 1.385 . S
C2892 C2890 1.478 . S
C2892 C2894 1.381 . S
C2892 C2898 1.383 . S
C2893 C2889 1.495 . S
C2893 H2899 0.959 . S
C2893 H2900 0.961 . S
C2893 H2901 0.960 . S
C2894 C2892 1.381 . S
C2894 C2895 1.394 . S
C2894 H2902 0.930 . S
C2895 C2894 1.394 . S
C2895 C2896 1.383 . S
C2895 H2903 0.929 . S
C2896 C2895 1.383 . S
C2896 C2897 1.377 . S
C2897 H2881 0.930 . S
C2897 C2896 1.377 . S
C2897 C2898 1.379 . S
C2898 H2882 0.931 . S
C2898 C2892 1.383 . S
C2898 C2897 1.379 . S
H2899 C2893 0.959 . S
H2900 C2893 0.961 . S
H2901 C2893 0.960 . S
H2902 C2894 0.930 . S
H2903 C2895 0.929 . S
H2904 C2912 0.929 . S
H2905 C2914 0.930 . S
H2906 C2916 0.930 . S
H2907 C2919 0.929 . S
H2908 C2922 0.930 . S
H2909 C2924 0.960 . S
H2910 C2924 0.960 . S
H2911 C2924 0.960 . S
C2912 H2904 0.929 . S
C2912 C2913 1.377 . S
C2912 C2914 1.384 . S
C2913 C2912 1.377 . S
C2913 C2919 1.390 . S
C2914 H2905 0.930 . S
C2914 C2912 1.384 . S
C2914 C2915 1.372 . S
C2915 C2914 1.372 . S
C2915 C2916 1.400 . S
C2915 C2920 1.490 . S
C2916 H2906 0.930 . S
C2916 C2915 1.400 . S
C2916 C2919 1.386 . S
H2917 C2933 0.930 . S
H2918 C2934 0.931 . S
C2919 H2907 0.929 . S
C2919 C2913 1.390 . S
C2919 C2916 1.386 . S
C2920 C2915 1.490 . S
C2920 C2922 1.395 . S
C2920 C2923 1.403 . S
H2921 C2927 0.930 . S
C2922 H2908 0.930 . S
C2922 C2920 1.395 . S
C2922 C2925 1.403 . S
C2923 C2920 1.403 . S
C2923 C2924 1.524 . S
C2923 C2927 1.400 . S
C2924 H2909 0.960 . S
C2924 H2910 0.960 . S
C2924 H2911 0.960 . S
C2924 C2923 1.524 . S
C2925 C2922 1.403 . S
C2925 C2926 1.392 . S
C2925 C2929 1.495 . S
C2926 C2925 1.392 . S
C2926 C2927 1.385 . S
C2926 C2928 1.478 . S
C2927 H2921 0.930 . S
C2927 C2923 1.400 . S
C2927 C2926 1.385 . S
C2928 C2926 1.478 . S
C2928 C2930 1.381 . S
C2928 C2934 1.383 . S
C2929 C2925 1.495 . S
C2929 H2935 0.959 . S
C2929 H2936 0.961 . S
C2929 H2937 0.960 . S
C2930 C2928 1.381 . S
C2930 C2931 1.394 . S
C2930 H2938 0.930 . S
C2931 C2930 1.394 . S
C2931 C2932 1.383 . S
C2931 H2939 0.929 . S
C2932 C2931 1.383 . S
C2932 C2933 1.377 . S
C2933 H2917 0.930 . S
C2933 C2932 1.377 . S
C2933 C2934 1.379 . S
C2934 H2918 0.931 . S
C2934 C2928 1.383 . S
C2934 C2933 1.379 . S
H2935 C2929 0.959 . S
H2936 C2929 0.961 . S
H2937 C2929 0.960 . S
H2938 C2930 0.930 . S
H2939 C2931 0.929 . S
H2940 C2948 0.929 . S
H2941 C2950 0.930 . S
H2942 C2952 0.930 . S
H2943 C2955 0.929 . S
H2944 C2958 0.930 . S
H2945 C2960 0.960 . S
H2946 C2960 0.960 . S
H2947 C2960 0.960 . S
C2948 H2940 0.929 . S
C2948 C2949 1.377 . S
C2948 C2950 1.384 . S
C2949 C2948 1.377 . S
C2949 C2955 1.390 . S
C2950 H2941 0.930 . S
C2950 C2948 1.384 . S
C2950 C2951 1.372 . S
C2951 C2950 1.372 . S
C2951 C2952 1.400 . S
C2951 C2956 1.490 . S
C2952 H2942 0.930 . S
C2952 C2951 1.400 . S
C2952 C2955 1.386 . S
H2953 C2969 0.930 . S
H2954 C2970 0.931 . S
C2955 H2943 0.929 . S
C2955 C2949 1.390 . S
C2955 C2952 1.386 . S
C2956 C2951 1.490 . S
C2956 C2958 1.395 . S
C2956 C2959 1.403 . S
H2957 C2963 0.930 . S
C2958 H2944 0.930 . S
C2958 C2956 1.395 . S
C2958 C2961 1.403 . S
C2959 C2956 1.403 . S
C2959 C2960 1.524 . S
C2959 C2963 1.400 . S
C2960 H2945 0.960 . S
C2960 H2946 0.960 . S
C2960 H2947 0.960 . S
C2960 C2959 1.524 . S
C2961 C2958 1.403 . S
C2961 C2962 1.392 . S
C2961 C2965 1.495 . S
C2962 C2961 1.392 . S
C2962 C2963 1.385 . S
C2962 C2964 1.478 . S
C2963 H2957 0.930 . S
C2963 C2959 1.400 . S
C2963 C2962 1.385 . S
C2964 C2962 1.478 . S
C2964 C2966 1.381 . S
C2964 C2970 1.383 . S
C2965 C2961 1.495 . S
C2965 H2971 0.959 . S
C2965 H2972 0.961 . S
C2965 H2973 0.960 . S
C2966 C2964 1.381 . S
C2966 C2967 1.394 . S
C2966 H2974 0.930 . S
C2967 C2966 1.394 . S
C2967 C2968 1.383 . S
C2967 H2975 0.929 . S
C2968 C2967 1.383 . S
C2968 C2969 1.377 . S
C2969 H2953 0.930 . S
C2969 C2968 1.377 . S
C2969 C2970 1.379 . S
C2970 H2954 0.931 . S
C2970 C2964 1.383 . S
C2970 C2969 1.379 . S
H2971 C2965 0.959 . S
H2972 C2965 0.961 . S
H2973 C2965 0.960 . S
H2974 C2966 0.930 . S
H2975 C2967 0.929 . S
H2976 C2984 0.929 . S
H2977 C2986 0.931 . S
H2978 C2988 0.930 . S
H2979 C2991 0.929 . S
H2980 C2994 0.930 . S
H2981 C2996 0.960 . S
H2982 C2996 0.960 . S
H2983 C2996 0.960 . S
C2984 H2976 0.929 . S
C2984 C2985 1.377 1_565 S
C2984 C2986 1.384 1_565 S
C2985 C2984 1.377 1_545 S
C2985 C2991 1.390 . S
C2986 H2977 0.931 . S
C2986 C2984 1.384 1_545 S
C2986 C2987 1.372 . S
C2987 C2986 1.372 . S
C2987 C2988 1.400 . S
C2987 C2992 1.490 . S
C2988 H2978 0.930 . S
C2988 C2987 1.400 . S
C2988 C2991 1.386 . S
H2989 C3005 0.930 . S
H2990 C3006 0.931 . S
C2991 H2979 0.929 . S
C2991 C2985 1.390 . S
C2991 C2988 1.386 . S
C2992 C2987 1.490 . S
C2992 C2994 1.395 1_545 S
C2992 C2995 1.403 . S
H2993 C2999 0.930 . S
C2994 H2980 0.930 . S
C2994 C2992 1.395 1_565 S
C2994 C2997 1.401 . S
C2995 C2992 1.403 . S
C2995 C2996 1.524 . S
C2995 C2999 1.400 . S
C2996 H2981 0.960 . S
C2996 H2982 0.960 . S
C2996 H2983 0.960 . S
C2996 C2995 1.524 . S
C2997 C2994 1.401 . S
C2997 C2998 1.398 1_565 S
C2997 C3001 1.492 . S
C2998 C2997 1.398 1_545 S
C2998 C2999 1.385 . S
C2998 C3000 1.478 . S
C2999 H2993 0.930 . S
C2999 C2995 1.400 . S
C2999 C2998 1.385 . S
C3000 C2998 1.478 . S
C3000 C3002 1.381 . S
C3000 C3006 1.383 . S
C3001 C2997 1.492 . S
C3001 H3007 0.959 . S
C3001 H3008 0.961 . S
C3001 H3009 0.960 . S
C3002 C3000 1.381 . S
C3002 C3003 1.394 . S
C3002 H3010 0.930 . S
C3003 C3002 1.394 . S
C3003 C3004 1.383 . S
C3003 H3011 0.929 . S
C3004 C3003 1.383 . S
C3004 C3005 1.377 . S
C3005 H2989 0.930 . S
C3005 C3004 1.377 . S
C3005 C3006 1.379 . S
C3006 H2990 0.931 . S
C3006 C3000 1.383 . S
C3006 C3005 1.379 . S
H3007 C3001 0.959 . S
H3008 C3001 0.961 . S
H3009 C3001 0.960 . S
H3010 C3002 0.930 . S
H3011 C3003 0.929 . S
H3012 C3020 0.929 . S
H3013 C3022 0.930 . S
H3014 C3024 0.930 . S
H3015 C3027 0.929 . S
H3016 C3030 0.930 . S
H3017 C3032 0.960 . S
H3018 C3032 0.960 . S
H3019 C3032 0.960 . S
C3020 H3012 0.929 . S
C3020 C3021 1.377 . S
C3020 C3022 1.384 . S
C3021 C3020 1.377 . S
C3021 C3027 1.390 . S
C3022 H3013 0.930 . S
C3022 C3020 1.384 . S
C3022 C3023 1.372 . S
C3023 C3022 1.372 . S
C3023 C3024 1.400 . S
C3023 C3028 1.490 . S
C3024 H3014 0.930 . S
C3024 C3023 1.400 . S
C3024 C3027 1.386 . S
H3025 C3041 0.930 . S
H3026 C3042 0.931 . S
C3027 H3015 0.929 . S
C3027 C3021 1.390 . S
C3027 C3024 1.386 . S
C3028 C3023 1.490 . S
C3028 C3030 1.395 . S
C3028 C3031 1.403 . S
H3029 C3035 0.930 . S
C3030 H3016 0.930 . S
C3030 C3028 1.395 . S
C3030 C3033 1.403 . S
C3031 C3028 1.403 . S
C3031 C3032 1.524 . S
C3031 C3035 1.400 . S
C3032 H3017 0.960 . S
C3032 H3018 0.960 . S
C3032 H3019 0.960 . S
C3032 C3031 1.524 . S
C3033 C3030 1.403 . S
C3033 C3034 1.392 . S
C3033 C3037 1.495 . S
C3034 C3033 1.392 . S
C3034 C3035 1.385 . S
C3034 C3036 1.478 . S
C3035 H3029 0.930 . S
C3035 C3031 1.400 . S
C3035 C3034 1.385 . S
C3036 C3034 1.478 . S
C3036 C3038 1.381 . S
C3036 C3042 1.383 . S
C3037 C3033 1.495 . S
C3037 H3043 0.959 . S
C3037 H3044 0.961 . S
C3037 H3045 0.960 . S
C3038 C3036 1.381 . S
C3038 C3039 1.394 . S
C3038 H3046 0.930 . S
C3039 C3038 1.394 . S
C3039 C3040 1.383 . S
C3039 H3047 0.929 . S
C3040 C3039 1.383 . S
C3040 C3041 1.377 . S
C3041 H3025 0.930 . S
C3041 C3040 1.377 . S
C3041 C3042 1.379 . S
C3042 H3026 0.931 . S
C3042 C3036 1.383 . S
C3042 C3041 1.379 . S
H3043 C3037 0.959 . S
H3044 C3037 0.961 . S
H3045 C3037 0.960 . S
H3046 C3038 0.930 . S
H3047 C3039 0.929 . S
H3048 C3056 0.929 . S
H3049 C3058 0.930 . S
H3050 C3060 0.930 . S
H3051 C3063 0.929 . S
H3052 C3066 0.930 . S
H3053 C3068 0.960 . S
H3054 C3068 0.960 . S
H3055 C3068 0.960 . S
C3056 H3048 0.929 . S
C3056 C3057 1.377 . S
C3056 C3058 1.384 . S
C3057 C3056 1.377 . S
C3057 C3063 1.390 . S
C3058 H3049 0.930 . S
C3058 C3056 1.384 . S
C3058 C3059 1.372 . S
C3059 C3058 1.372 . S
C3059 C3060 1.400 . S
C3059 C3064 1.490 . S
C3060 H3050 0.930 . S
C3060 C3059 1.400 . S
C3060 C3063 1.386 . S
H3061 C3077 0.930 . S
H3062 C3078 0.931 . S
C3063 H3051 0.929 . S
C3063 C3057 1.390 . S
C3063 C3060 1.386 . S
C3064 C3059 1.490 . S
C3064 C3066 1.395 . S
C3064 C3067 1.403 . S
H3065 C3071 0.930 . S
C3066 H3052 0.930 . S
C3066 C3064 1.395 . S
C3066 C3069 1.403 . S
C3067 C3064 1.403 . S
C3067 C3068 1.524 . S
C3067 C3071 1.400 . S
C3068 H3053 0.960 . S
C3068 H3054 0.960 . S
C3068 H3055 0.960 . S
C3068 C3067 1.524 . S
C3069 C3066 1.403 . S
C3069 C3070 1.392 . S
C3069 C3073 1.495 . S
C3070 C3069 1.392 . S
C3070 C3071 1.385 . S
C3070 C3072 1.478 . S
C3071 H3065 0.930 . S
C3071 C3067 1.400 . S
C3071 C3070 1.385 . S
C3072 C3070 1.478 . S
C3072 C3074 1.381 . S
C3072 C3078 1.383 . S
C3073 C3069 1.495 . S
C3073 H3079 0.959 . S
C3073 H3080 0.961 . S
C3073 H3081 0.960 . S
C3074 C3072 1.381 . S
C3074 C3075 1.394 . S
C3074 H3082 0.930 . S
C3075 C3074 1.394 . S
C3075 C3076 1.383 . S
C3075 H3083 0.929 . S
C3076 C3075 1.383 . S
C3076 C3077 1.377 . S
C3077 H3061 0.930 . S
C3077 C3076 1.377 . S
C3077 C3078 1.379 . S
C3078 H3062 0.931 . S
C3078 C3072 1.383 . S
C3078 C3077 1.379 . S
H3079 C3073 0.959 . S
H3080 C3073 0.961 . S
H3081 C3073 0.960 . S
H3082 C3074 0.930 . S
H3083 C3075 0.929 . S
H3084 C3092 0.929 . S
H3085 C3094 0.930 . S
H3086 C3096 0.930 . S
H3087 C3099 0.929 . S
H3088 C3102 0.930 . S
H3089 C3104 0.960 . S
H3090 C3104 0.960 . S
H3091 C3104 0.960 . S
C3092 H3084 0.929 . S
C3092 C3093 1.377 . S
C3092 C3094 1.384 . S
C3093 C3092 1.377 . S
C3093 C3099 1.390 . S
C3094 H3085 0.930 . S
C3094 C3092 1.384 . S
C3094 C3095 1.372 . S
C3095 C3094 1.372 . S
C3095 C3096 1.400 . S
C3095 C3100 1.490 . S
C3096 H3086 0.930 . S
C3096 C3095 1.400 . S
C3096 C3099 1.386 . S
H3097 C3113 0.930 . S
H3098 C3114 0.931 . S
C3099 H3087 0.929 . S
C3099 C3093 1.390 . S
C3099 C3096 1.386 . S
C3100 C3095 1.490 . S
C3100 C3102 1.395 . S
C3100 C3103 1.403 . S
H3101 C3107 0.930 . S
C3102 H3088 0.930 . S
C3102 C3100 1.395 . S
C3102 C3105 1.403 . S
C3103 C3100 1.403 . S
C3103 C3104 1.524 . S
C3103 C3107 1.400 . S
C3104 H3089 0.960 . S
C3104 H3090 0.960 . S
C3104 H3091 0.960 . S
C3104 C3103 1.524 . S
C3105 C3102 1.403 . S
C3105 C3106 1.392 . S
C3105 C3109 1.495 . S
C3106 C3105 1.392 . S
C3106 C3107 1.385 . S
C3106 C3108 1.478 . S
C3107 H3101 0.930 . S
C3107 C3103 1.400 . S
C3107 C3106 1.385 . S
C3108 C3106 1.478 . S
C3108 C3110 1.381 . S
C3108 C3114 1.383 . S
C3109 C3105 1.495 . S
C3109 H3115 0.959 . S
C3109 H3116 0.961 . S
C3109 H3117 0.960 . S
C3110 C3108 1.381 . S
C3110 C3111 1.394 . S
C3110 H3118 0.930 . S
C3111 C3110 1.394 . S
C3111 C3112 1.383 . S
C3111 H3119 0.929 . S
C3112 C3111 1.383 . S
C3112 C3113 1.377 . S
C3113 H3097 0.930 . S
C3113 C3112 1.377 . S
C3113 C3114 1.379 . S
C3114 H3098 0.931 . S
C3114 C3108 1.383 . S
C3114 C3113 1.379 . S
H3115 C3109 0.959 . S
H3116 C3109 0.961 . S
H3117 C3109 0.960 . S
H3118 C3110 0.930 . S
H3119 C3111 0.929 . S
H3120 C3128 0.929 . S
H3121 C3130 0.930 . S
H3122 C3132 0.930 . S
H3123 C3135 0.929 . S
H3124 C3138 0.930 . S
H3125 C3140 0.960 . S
H3126 C3140 0.960 . S
H3127 C3140 0.960 1_554 S
C3128 H3120 0.929 . S
C3128 C3129 1.377 . S
C3128 C3130 1.384 . S
C3129 C3128 1.377 . S
C3129 C3135 1.390 . S
C3130 H3121 0.930 . S
C3130 C3128 1.384 . S
C3130 C3131 1.372 . S
C3131 C3130 1.372 . S
C3131 C3132 1.400 . S
C3131 C3136 1.490 . S
C3132 H3122 0.930 . S
C3132 C3131 1.400 . S
C3132 C3135 1.386 . S
H3133 C3149 0.930 . S
H3134 C3150 0.931 . S
C3135 H3123 0.929 . S
C3135 C3129 1.390 . S
C3135 C3132 1.386 . S
C3136 C3131 1.490 . S
C3136 C3138 1.395 . S
C3136 C3139 1.403 . S
H3137 C3143 0.930 . S
C3138 H3124 0.930 . S
C3138 C3136 1.395 . S
C3138 C3141 1.403 . S
C3139 C3136 1.403 . S
C3139 C3140 1.524 1_554 S
C3139 C3143 1.400 . S
C3140 H3125 0.960 . S
C3140 H3126 0.960 . S
C3140 H3127 0.960 1_556 S
C3140 C3139 1.524 1_556 S
C3141 C3138 1.403 . S
C3141 C3142 1.392 . S
C3141 C3145 1.495 . S
C3142 C3141 1.392 . S
C3142 C3143 1.385 . S
C3142 C3144 1.478 . S
C3143 H3137 0.930 . S
C3143 C3139 1.400 . S
C3143 C3142 1.385 . S
C3144 C3142 1.478 . S
C3144 C3146 1.381 . S
C3144 C3150 1.383 . S
C3145 C3141 1.495 . S
C3145 H3151 0.959 . S
C3145 H3152 0.961 . S
C3145 H3153 0.960 . S
C3146 C3144 1.381 . S
C3146 C3147 1.394 . S
C3146 H3154 0.930 . S
C3147 C3146 1.394 . S
C3147 C3148 1.383 . S
C3147 H3155 0.929 . S
C3148 C3147 1.383 . S
C3148 C3149 1.377 . S
C3149 H3133 0.930 . S
C3149 C3148 1.377 . S
C3149 C3150 1.379 . S
C3150 H3134 0.931 . S
C3150 C3144 1.383 . S
C3150 C3149 1.379 . S
H3151 C3145 0.959 . S
H3152 C3145 0.961 . S
H3153 C3145 0.960 . S
H3154 C3146 0.930 . S
H3155 C3147 0.929 . S
H3156 C3164 0.929 . S
H3157 C3166 0.930 . S
H3158 C3168 0.930 . S
H3159 C3171 0.929 . S
H3160 C3174 0.930 . S
H3161 C3176 0.960 . S
H3162 C3176 0.960 . S
H3163 C3176 0.960 . S
C3164 H3156 0.929 . S
C3164 C3165 1.377 . S
C3164 C3166 1.384 . S
C3165 C3164 1.377 . S
C3165 C3171 1.390 . S
C3166 H3157 0.930 . S
C3166 C3164 1.384 . S
C3166 C3167 1.372 . S
C3167 C3166 1.372 . S
C3167 C3168 1.400 . S
C3167 C3172 1.490 . S
C3168 H3158 0.930 . S
C3168 C3167 1.400 . S
C3168 C3171 1.386 . S
H3169 C3185 0.930 . S
H3170 C3186 0.931 . S
C3171 H3159 0.929 . S
C3171 C3165 1.390 . S
C3171 C3168 1.386 . S
C3172 C3167 1.490 . S
C3172 C3174 1.395 . S
C3172 C3175 1.403 . S
H3173 C3179 0.930 . S
C3174 H3160 0.930 . S
C3174 C3172 1.395 . S
C3174 C3177 1.403 . S
C3175 C3172 1.403 . S
C3175 C3176 1.524 . S
C3175 C3179 1.400 . S
C3176 H3161 0.960 . S
C3176 H3162 0.960 . S
C3176 H3163 0.960 . S
C3176 C3175 1.524 . S
C3177 C3174 1.403 . S
C3177 C3178 1.392 . S
C3177 C3181 1.495 . S
C3178 C3177 1.392 . S
C3178 C3179 1.385 . S
C3178 C3180 1.478 . S
C3179 H3173 0.930 . S
C3179 C3175 1.400 . S
C3179 C3178 1.385 . S
C3180 C3178 1.478 . S
C3180 C3182 1.381 . S
C3180 C3186 1.383 . S
C3181 C3177 1.495 . S
C3181 H3187 0.959 . S
C3181 H3188 0.961 . S
C3181 H3189 0.960 . S
C3182 C3180 1.381 . S
C3182 C3183 1.394 . S
C3182 H3190 0.930 . S
C3183 C3182 1.394 . S
C3183 C3184 1.383 . S
C3183 H3191 0.929 . S
C3184 C3183 1.383 . S
C3184 C3185 1.377 . S
C3185 H3169 0.930 . S
C3185 C3184 1.377 . S
C3185 C3186 1.379 . S
C3186 H3170 0.931 . S
C3186 C3180 1.383 . S
C3186 C3185 1.379 . S
H3187 C3181 0.959 . S
H3188 C3181 0.961 . S
H3189 C3181 0.960 . S
H3190 C3182 0.930 . S
H3191 C3183 0.929 . S
H3192 C3200 0.929 . S
H3193 C3202 0.930 . S
H3194 C3204 0.930 . S
H3195 C3207 0.929 . S
H3196 C3210 0.930 . S
H3197 C3212 0.960 . S
H3198 C3212 0.960 . S
H3199 C3212 0.960 . S
C3200 H3192 0.929 . S
C3200 C3201 1.377 . S
C3200 C3202 1.384 . S
C3201 C3200 1.377 . S
C3201 C3207 1.390 . S
C3202 H3193 0.930 . S
C3202 C3200 1.384 . S
C3202 C3203 1.372 . S
C3203 C3202 1.372 . S
C3203 C3204 1.400 . S
C3203 C3208 1.490 . S
C3204 H3194 0.930 . S
C3204 C3203 1.400 . S
C3204 C3207 1.386 . S
H3205 C3221 0.930 . S
H3206 C3222 0.931 . S
C3207 H3195 0.929 . S
C3207 C3201 1.390 . S
C3207 C3204 1.386 . S
C3208 C3203 1.490 . S
C3208 C3210 1.395 . S
C3208 C3211 1.403 . S
H3209 C3215 0.930 . S
C3210 H3196 0.930 . S
C3210 C3208 1.395 . S
C3210 C3213 1.403 . S
C3211 C3208 1.403 . S
C3211 C3212 1.524 . S
C3211 C3215 1.400 . S
C3212 H3197 0.960 . S
C3212 H3198 0.960 . S
C3212 H3199 0.960 . S
C3212 C3211 1.524 . S
C3213 C3210 1.403 . S
C3213 C3214 1.392 . S
C3213 C3217 1.495 . S
C3214 C3213 1.392 . S
C3214 C3215 1.385 . S
C3214 C3216 1.478 . S
C3215 H3209 0.930 . S
C3215 C3211 1.400 . S
C3215 C3214 1.385 . S
C3216 C3214 1.478 . S
C3216 C3218 1.381 . S
C3216 C3222 1.383 . S
C3217 C3213 1.495 . S
C3217 H3223 0.959 . S
C3217 H3224 0.961 . S
C3217 H3225 0.960 . S
C3218 C3216 1.381 . S
C3218 C3219 1.394 . S
C3218 H3226 0.930 . S
C3219 C3218 1.394 . S
C3219 C3220 1.383 . S
C3219 H3227 0.929 . S
C3220 C3219 1.383 . S
C3220 C3221 1.377 . S
C3221 H3205 0.930 . S
C3221 C3220 1.377 . S
C3221 C3222 1.379 . S
C3222 H3206 0.931 . S
C3222 C3216 1.383 . S
C3222 C3221 1.379 . S
H3223 C3217 0.959 . S
H3224 C3217 0.961 . S
H3225 C3217 0.960 . S
H3226 C3218 0.930 . S
H3227 C3219 0.929 . S
H3228 C3236 0.929 . S
H3229 C3238 0.930 . S
H3230 C3240 0.930 . S
H3231 C3243 0.929 . S
H3232 C3246 0.930 . S
H3233 C3248 0.960 . S
H3234 C3248 0.960 . S
H3235 C3248 0.960 . S
C3236 H3228 0.929 . S
C3236 C3237 1.377 . S
C3236 C3238 1.384 . S
C3237 C3236 1.377 . S
C3237 C3243 1.390 . S
C3238 H3229 0.930 . S
C3238 C3236 1.384 . S
C3238 C3239 1.372 . S
C3239 C3238 1.372 . S
C3239 C3240 1.400 . S
C3239 C3244 1.490 . S
C3240 H3230 0.930 . S
C3240 C3239 1.400 . S
C3240 C3243 1.386 . S
H3241 C3257 0.930 . S
H3242 C3258 0.931 . S
C3243 H3231 0.929 . S
C3243 C3237 1.390 . S
C3243 C3240 1.386 . S
C3244 C3239 1.490 . S
C3244 C3246 1.395 . S
C3244 C3247 1.403 . S
H3245 C3251 0.930 . S
C3246 H3232 0.930 . S
C3246 C3244 1.395 . S
C3246 C3249 1.403 . S
C3247 C3244 1.403 . S
C3247 C3248 1.524 . S
C3247 C3251 1.400 . S
C3248 H3233 0.960 . S
C3248 H3234 0.960 . S
C3248 H3235 0.960 . S
C3248 C3247 1.524 . S
C3249 C3246 1.403 . S
C3249 C3250 1.392 . S
C3249 C3253 1.495 . S
C3250 C3249 1.392 . S
C3250 C3251 1.385 . S
C3250 C3252 1.478 . S
C3251 H3245 0.930 . S
C3251 C3247 1.400 . S
C3251 C3250 1.385 . S
C3252 C3250 1.478 . S
C3252 C3254 1.381 . S
C3252 C3258 1.383 . S
C3253 C3249 1.495 . S
C3253 H3259 0.959 . S
C3253 H3260 0.961 . S
C3253 H3261 0.960 . S
C3254 C3252 1.381 . S
C3254 C3255 1.394 . S
C3254 H3262 0.930 . S
C3255 C3254 1.394 . S
C3255 C3256 1.383 . S
C3255 H3263 0.929 . S
C3256 C3255 1.383 . S
C3256 C3257 1.377 . S
C3257 H3241 0.930 . S
C3257 C3256 1.377 . S
C3257 C3258 1.379 . S
C3258 H3242 0.931 . S
C3258 C3252 1.383 . S
C3258 C3257 1.379 . S
H3259 C3253 0.959 . S
H3260 C3253 0.961 . S
H3261 C3253 0.960 . S
H3262 C3254 0.930 . S
H3263 C3255 0.929 . S
H3264 C3272 0.929 . S
H3265 C3274 0.930 . S
H3266 C3276 0.930 . S
H3267 C3279 0.929 . S
H3268 C3282 0.930 . S
H3269 C3284 0.960 . S
H3270 C3284 0.960 . S
H3271 C3284 0.960 . S
C3272 H3264 0.929 . S
C3272 C3273 1.373 1_565 S
C3272 C3274 1.384 . S
C3273 C3272 1.373 1_545 S
C3273 C3279 1.389 . S
C3274 H3265 0.930 . S
C3274 C3272 1.384 . S
C3274 C3275 1.372 . S
C3275 C3274 1.372 . S
C3275 C3276 1.400 . S
C3275 C3280 1.490 . S
C3276 H3266 0.930 . S
C3276 C3275 1.400 . S
C3276 C3279 1.386 1_565 S
H3277 C3293 0.930 . S
H3278 C3294 0.931 . S
C3279 H3267 0.929 . S
C3279 C3273 1.389 . S
C3279 C3276 1.386 1_545 S
C3280 C3275 1.490 . S
C3280 C3282 1.395 . S
C3280 C3283 1.403 . S
H3281 C3287 0.930 . S
C3282 H3268 0.930 . S
C3282 C3280 1.395 . S
C3282 C3285 1.403 . S
C3283 C3280 1.403 . S
C3283 C3284 1.524 . S
C3283 C3287 1.400 . S
C3284 H3269 0.960 . S
C3284 H3270 0.960 . S
C3284 H3271 0.960 . S
C3284 C3283 1.524 . S
C3285 C3282 1.403 . S
C3285 C3286 1.392 . S
C3285 C3289 1.495 . S
C3286 C3285 1.392 . S
C3286 C3287 1.385 . S
C3286 C3288 1.478 . S
C3287 H3281 0.930 . S
C3287 C3283 1.400 . S
C3287 C3286 1.385 . S
C3288 C3286 1.478 . S
C3288 C3290 1.381 . S
C3288 C3294 1.383 . S
C3289 C3285 1.495 . S
C3289 H3295 0.959 . S
C3289 H3296 0.961 . S
C3289 H3297 0.960 . S
C3290 C3288 1.381 . S
C3290 C3291 1.394 . S
C3290 H3298 0.930 . S
C3291 C3290 1.394 . S
C3291 C3292 1.383 . S
C3291 H3299 0.929 . S
C3292 C3291 1.383 . S
C3292 C3293 1.377 . S
C3293 H3277 0.930 . S
C3293 C3292 1.377 . S
C3293 C3294 1.379 . S
C3294 H3278 0.931 . S
C3294 C3288 1.383 . S
C3294 C3293 1.379 . S
H3295 C3289 0.959 . S
H3296 C3289 0.961 . S
H3297 C3289 0.960 . S
H3298 C3290 0.930 . S
H3299 C3291 0.929 . S
H3300 C3308 0.929 . S
H3301 C3310 0.930 . S
H3302 C3312 0.930 . S
H3303 C3315 0.929 . S
H3304 C3318 0.930 . S
H3305 C3320 0.960 . S
H3306 C3320 0.960 . S
H3307 C3320 0.960 . S
C3308 H3300 0.929 . S
C3308 C3309 1.377 . S
C3308 C3310 1.384 . S
C3309 C3308 1.377 . S
C3309 C3315 1.390 . S
C3310 H3301 0.930 . S
C3310 C3308 1.384 . S
C3310 C3311 1.372 . S
C3311 C3310 1.372 . S
C3311 C3312 1.400 . S
C3311 C3316 1.490 . S
C3312 H3302 0.930 . S
C3312 C3311 1.400 . S
C3312 C3315 1.386 . S
H3313 C3329 0.930 . S
H3314 C3330 0.931 . S
C3315 H3303 0.929 . S
C3315 C3309 1.390 . S
C3315 C3312 1.386 . S
C3316 C3311 1.490 . S
C3316 C3318 1.395 . S
C3316 C3319 1.403 . S
H3317 C3323 0.930 . S
C3318 H3304 0.930 . S
C3318 C3316 1.395 . S
C3318 C3321 1.403 . S
C3319 C3316 1.403 . S
C3319 C3320 1.524 . S
C3319 C3323 1.400 . S
C3320 H3305 0.960 . S
C3320 H3306 0.960 . S
C3320 H3307 0.960 . S
C3320 C3319 1.524 . S
C3321 C3318 1.403 . S
C3321 C3322 1.392 . S
C3321 C3325 1.495 . S
C3322 C3321 1.392 . S
C3322 C3323 1.385 . S
C3322 C3324 1.478 . S
C3323 H3317 0.930 . S
C3323 C3319 1.400 . S
C3323 C3322 1.385 . S
C3324 C3322 1.478 . S
C3324 C3326 1.381 . S
C3324 C3330 1.383 . S
C3325 C3321 1.495 . S
C3325 H3331 0.959 . S
C3325 H3332 0.961 . S
C3325 H3333 0.960 . S
C3326 C3324 1.381 . S
C3326 C3327 1.394 1_565 S
C3326 H3334 0.930 . S
C3327 C3326 1.394 1_545 S
C3327 C3328 1.383 1_545 S
C3327 H3335 0.929 . S
C3328 C3327 1.383 1_565 S
C3328 C3329 1.377 . S
C3329 H3313 0.930 . S
C3329 C3328 1.377 . S
C3329 C3330 1.379 . S
C3330 H3314 0.931 . S
C3330 C3324 1.383 . S
C3330 C3329 1.379 . S
H3331 C3325 0.959 . S
H3332 C3325 0.961 . S
H3333 C3325 0.960 . S
H3334 C3326 0.930 . S
H3335 C3327 0.929 . S
H3336 C3344 0.929 . S
H3337 C3346 0.930 . S
H3338 C3348 0.930 . S
H3339 C3351 0.929 . S
H3340 C3354 0.930 . S
H3341 C3356 0.960 . S
H3342 C3356 0.960 . S
H3343 C3356 0.960 . S
C3344 H3336 0.929 . S
C3344 C3345 1.377 . S
C3344 C3346 1.384 . S
C3345 C3344 1.377 . S
C3345 C3351 1.390 . S
C3346 H3337 0.930 . S
C3346 C3344 1.384 . S
C3346 C3347 1.372 . S
C3347 C3346 1.372 . S
C3347 C3348 1.400 . S
C3347 C3352 1.490 . S
C3348 H3338 0.930 . S
C3348 C3347 1.400 . S
C3348 C3351 1.386 . S
H3349 C3365 0.930 . S
H3350 C3366 0.931 . S
C3351 H3339 0.929 . S
C3351 C3345 1.390 . S
C3351 C3348 1.386 . S
C3352 C3347 1.490 . S
C3352 C3354 1.395 . S
C3352 C3355 1.403 . S
H3353 C3359 0.930 . S
C3354 H3340 0.930 . S
C3354 C3352 1.395 . S
C3354 C3357 1.403 . S
C3355 C3352 1.403 . S
C3355 C3356 1.524 . S
C3355 C3359 1.400 . S
C3356 H3341 0.960 . S
C3356 H3342 0.960 . S
C3356 H3343 0.960 . S
C3356 C3355 1.524 . S
C3357 C3354 1.403 . S
C3357 C3358 1.392 . S
C3357 C3361 1.495 . S
C3358 C3357 1.392 . S
C3358 C3359 1.385 . S
C3358 C3360 1.478 . S
C3359 H3353 0.930 . S
C3359 C3355 1.400 . S
C3359 C3358 1.385 . S
C3360 C3358 1.478 . S
C3360 C3362 1.381 . S
C3360 C3366 1.383 . S
C3361 C3357 1.495 . S
C3361 H3367 0.959 . S
C3361 H3368 0.961 . S
C3361 H3369 0.960 . S
C3362 C3360 1.381 . S
C3362 C3363 1.394 . S
C3362 H3370 0.930 . S
C3363 C3362 1.394 . S
C3363 C3364 1.383 . S
C3363 H3371 0.929 . S
C3364 C3363 1.383 . S
C3364 C3365 1.377 . S
C3365 H3349 0.930 . S
C3365 C3364 1.377 . S
C3365 C3366 1.379 . S
C3366 H3350 0.931 . S
C3366 C3360 1.383 . S
C3366 C3365 1.379 . S
H3367 C3361 0.959 . S
H3368 C3361 0.961 . S
H3369 C3361 0.960 . S
H3370 C3362 0.930 . S
H3371 C3363 0.929 . S
H3372 C3380 0.929 . S
H3373 C3382 0.930 . S
H3374 C3384 0.930 . S
H3375 C3387 0.929 . S
H3376 C3390 0.930 . S
H3377 C3392 0.960 . S
H3378 C3392 0.960 . S
H3379 C3392 0.960 . S
C3380 H3372 0.929 . S
C3380 C3381 1.377 . S
C3380 C3382 1.384 . S
C3381 C3380 1.377 . S
C3381 C3387 1.390 . S
C3382 H3373 0.930 . S
C3382 C3380 1.384 . S
C3382 C3383 1.372 . S
C3383 C3382 1.372 . S
C3383 C3384 1.400 . S
C3383 C3388 1.490 . S
C3384 H3374 0.930 . S
C3384 C3383 1.400 . S
C3384 C3387 1.386 . S
H3385 C3401 0.930 . S
H3386 C3402 0.931 . S
C3387 H3375 0.929 . S
C3387 C3381 1.390 . S
C3387 C3384 1.386 . S
C3388 C3383 1.490 . S
C3388 C3390 1.395 . S
C3388 C3391 1.403 . S
H3389 C3395 0.930 . S
C3390 H3376 0.930 . S
C3390 C3388 1.395 . S
C3390 C3393 1.403 . S
C3391 C3388 1.403 . S
C3391 C3392 1.524 . S
C3391 C3395 1.400 . S
C3392 H3377 0.960 . S
C3392 H3378 0.960 . S
C3392 H3379 0.960 . S
C3392 C3391 1.524 . S
C3393 C3390 1.403 . S
C3393 C3394 1.392 . S
C3393 C3397 1.495 . S
C3394 C3393 1.392 . S
C3394 C3395 1.385 . S
C3394 C3396 1.478 . S
C3395 H3389 0.930 . S
C3395 C3391 1.400 . S
C3395 C3394 1.385 . S
C3396 C3394 1.478 . S
C3396 C3398 1.381 . S
C3396 C3402 1.383 . S
C3397 C3393 1.495 . S
C3397 H3403 0.959 . S
C3397 H3404 0.961 . S
C3397 H3405 0.960 . S
C3398 C3396 1.381 . S
C3398 C3399 1.394 . S
C3398 H3406 0.930 . S
C3399 C3398 1.394 . S
C3399 C3400 1.383 . S
C3399 H3407 0.929 . S
C3400 C3399 1.383 . S
C3400 C3401 1.377 . S
C3401 H3385 0.930 . S
C3401 C3400 1.377 . S
C3401 C3402 1.379 . S
C3402 H3386 0.931 . S
C3402 C3396 1.383 . S
C3402 C3401 1.379 . S
H3403 C3397 0.959 . S
H3404 C3397 0.961 . S
H3405 C3397 0.960 . S
H3406 C3398 0.930 . S
H3407 C3399 0.929 . S
H3408 C3416 0.929 . S
H3409 C3418 0.930 . S
H3410 C3420 0.930 . S
H3411 C3423 0.929 . S
H3412 C3426 0.930 . S
H3413 C3428 0.960 . S
H3414 C3428 0.960 . S
H3415 C3428 0.960 . S
C3416 H3408 0.929 . S
C3416 C3417 1.377 . S
C3416 C3418 1.384 . S
C3417 C3416 1.377 . S
C3417 C3423 1.390 . S
C3418 H3409 0.930 . S
C3418 C3416 1.384 . S
C3418 C3419 1.372 . S
C3419 C3418 1.372 . S
C3419 C3420 1.400 . S
C3419 C3424 1.490 . S
C3420 H3410 0.930 . S
C3420 C3419 1.400 . S
C3420 C3423 1.386 . S
H3421 C3437 0.930 . S
H3422 C3438 0.931 . S
C3423 H3411 0.929 . S
C3423 C3417 1.390 . S
C3423 C3420 1.386 . S
C3424 C3419 1.490 . S
C3424 C3426 1.395 . S
C3424 C3427 1.403 . S
H3425 C3431 0.930 . S
C3426 H3412 0.930 . S
C3426 C3424 1.395 . S
C3426 C3429 1.403 . S
C3427 C3424 1.403 . S
C3427 C3428 1.524 . S
C3427 C3431 1.400 . S
C3428 H3413 0.960 . S
C3428 H3414 0.960 . S
C3428 H3415 0.960 . S
C3428 C3427 1.524 . S
C3429 C3426 1.403 . S
C3429 C3430 1.392 . S
C3429 C3433 1.495 . S
C3430 C3429 1.392 . S
C3430 C3431 1.385 . S
C3430 C3432 1.478 . S
C3431 H3425 0.930 . S
C3431 C3427 1.400 . S
C3431 C3430 1.385 . S
C3432 C3430 1.478 . S
C3432 C3434 1.381 . S
C3432 C3438 1.383 . S
C3433 C3429 1.495 . S
C3433 H3439 0.959 . S
C3433 H3440 0.961 . S
C3433 H3441 0.960 . S
C3434 C3432 1.381 . S
C3434 C3435 1.394 . S
C3434 H3442 0.930 . S
C3435 C3434 1.394 . S
C3435 C3436 1.383 . S
C3435 H3443 0.929 . S
C3436 C3435 1.383 . S
C3436 C3437 1.377 . S
C3437 H3421 0.930 . S
C3437 C3436 1.377 . S
C3437 C3438 1.379 . S
C3438 H3422 0.931 . S
C3438 C3432 1.383 . S
C3438 C3437 1.379 . S
H3439 C3433 0.959 . S
H3440 C3433 0.961 . S
H3441 C3433 0.960 . S
H3442 C3434 0.930 . S
H3443 C3435 0.929 . S
H3444 C3452 0.929 . S
H3445 C3454 0.930 . S
H3446 C3456 0.930 . S
H3447 C3459 0.929 . S
H3448 C3462 0.930 . S
H3449 C3464 0.960 . S
H3450 C3464 0.960 . S
H3451 C3464 0.960 . S
C3452 H3444 0.929 . S
C3452 C3453 1.377 . S
C3452 C3454 1.384 . S
C3453 C3452 1.377 . S
C3453 C3459 1.390 . S
C3454 H3445 0.930 . S
C3454 C3452 1.384 . S
C3454 C3455 1.372 . S
C3455 C3454 1.372 . S
C3455 C3456 1.400 . S
C3455 C3460 1.490 . S
C3456 H3446 0.930 . S
C3456 C3455 1.400 . S
C3456 C3459 1.386 . S
H3457 C3473 0.930 . S
H3458 C3474 0.931 . S
C3459 H3447 0.929 . S
C3459 C3453 1.390 . S
C3459 C3456 1.386 . S
C3460 C3455 1.490 . S
C3460 C3462 1.395 . S
C3460 C3463 1.403 . S
H3461 C3467 0.930 . S
C3462 H3448 0.930 . S
C3462 C3460 1.395 . S
C3462 C3465 1.403 . S
C3463 C3460 1.403 . S
C3463 C3464 1.524 . S
C3463 C3467 1.400 . S
C3464 H3449 0.960 . S
C3464 H3450 0.960 . S
C3464 H3451 0.960 . S
C3464 C3463 1.524 . S
C3465 C3462 1.403 . S
C3465 C3466 1.392 . S
C3465 C3469 1.495 . S
C3466 C3465 1.392 . S
C3466 C3467 1.385 . S
C3466 C3468 1.478 . S
C3467 H3461 0.930 . S
C3467 C3463 1.400 . S
C3467 C3466 1.385 . S
C3468 C3466 1.478 . S
C3468 C3470 1.381 . S
C3468 C3474 1.383 . S
C3469 C3465 1.495 . S
C3469 H3475 0.959 . S
C3469 H3476 0.961 . S
C3469 H3477 0.960 . S
C3470 C3468 1.381 . S
C3470 C3471 1.394 . S
C3470 H3478 0.930 . S
C3471 C3470 1.394 . S
C3471 C3472 1.383 . S
C3471 H3479 0.929 . S
C3472 C3471 1.383 . S
C3472 C3473 1.377 . S
C3473 H3457 0.930 . S
C3473 C3472 1.377 . S
C3473 C3474 1.379 . S
C3474 H3458 0.931 . S
C3474 C3468 1.383 . S
C3474 C3473 1.379 . S
H3475 C3469 0.959 . S
H3476 C3469 0.961 . S
H3477 C3469 0.960 . S
H3478 C3470 0.930 . S
H3479 C3471 0.929 . S
H3480 C3488 0.929 . S
H3481 C3490 0.930 . S
H3482 C3492 0.930 . S
H3483 C3495 0.929 . S
H3484 C3498 0.930 . S
H3485 C3500 0.960 . S
H3486 C3500 0.960 . S
H3487 C3500 0.960 . S
C3488 H3480 0.929 . S
C3488 C3489 1.377 . S
C3488 C3490 1.384 . S
C3489 C3488 1.377 . S
C3489 C3495 1.390 . S
C3490 H3481 0.930 . S
C3490 C3488 1.384 . S
C3490 C3491 1.372 . S
C3491 C3490 1.372 . S
C3491 C3492 1.400 . S
C3491 C3496 1.490 . S
C3492 H3482 0.930 . S
C3492 C3491 1.400 . S
C3492 C3495 1.386 . S
H3493 C3509 0.930 . S
H3494 C3510 0.931 . S
C3495 H3483 0.929 . S
C3495 C3489 1.390 . S
C3495 C3492 1.386 . S
C3496 C3491 1.490 . S
C3496 C3498 1.395 . S
C3496 C3499 1.403 1_556 S
H3497 C3503 0.930 . S
C3498 H3484 0.930 . S
C3498 C3496 1.395 . S
C3498 C3501 1.403 . S
C3499 C3496 1.403 1_554 S
C3499 C3500 1.524 . S
C3499 C3503 1.400 . S
C3500 H3485 0.960 . S
C3500 H3486 0.960 . S
C3500 H3487 0.960 . S
C3500 C3499 1.524 . S
C3501 C3498 1.403 . S
C3501 C3502 1.387 1_556 S
C3501 C3505 1.495 . S
C3502 C3501 1.387 1_554 S
C3502 C3503 1.389 . S
C3502 C3504 1.479 . S
C3503 H3497 0.930 . S
C3503 C3499 1.400 . S
C3503 C3502 1.389 . S
C3504 C3502 1.479 . S
C3504 C3506 1.381 . S
C3504 C3510 1.383 . S
C3505 C3501 1.495 . S
C3505 H3511 0.959 . S
C3505 H3512 0.961 . S
C3505 H3513 0.960 . S
C3506 C3504 1.381 . S
C3506 C3507 1.394 . S
C3506 H3514 0.930 1_554 S
C3507 C3506 1.394 . S
C3507 C3508 1.383 . S
C3507 H3515 0.929 . S
C3508 C3507 1.383 . S
C3508 C3509 1.377 . S
C3509 H3493 0.930 . S
C3509 C3508 1.377 . S
C3509 C3510 1.379 . S
C3510 H3494 0.931 . S
C3510 C3504 1.383 . S
C3510 C3509 1.379 . S
H3511 C3505 0.959 . S
H3512 C3505 0.961 . S
H3513 C3505 0.960 . S
H3514 C3506 0.930 1_556 S
H3515 C3507 0.929 . S
H3516 C3524 0.929 . S
H3517 C3526 0.930 . S
H3518 C3528 0.930 . S
H3519 C3531 0.929 . S
H3520 C3534 0.930 . S
H3521 C3536 0.960 . S
H3522 C3536 0.960 . S
H3523 C3536 0.960 . S
C3524 H3516 0.929 . S
C3524 C3525 1.377 . S
C3524 C3526 1.384 . S
C3525 C3524 1.377 . S
C3525 C3531 1.390 . S
C3526 H3517 0.930 . S
C3526 C3524 1.384 . S
C3526 C3527 1.372 1_455 S
C3527 C3526 1.372 1_655 S
C3527 C3528 1.400 . S
C3527 C3532 1.490 . S
C3528 H3518 0.930 . S
C3528 C3527 1.400 . S
C3528 C3531 1.386 1_655 S
H3529 C3545 0.930 . S
H3530 C3546 0.931 . S
C3531 H3519 0.929 . S
C3531 C3525 1.390 . S
C3531 C3528 1.386 1_455 S
C3532 C3527 1.490 . S
C3532 C3534 1.395 . S
C3532 C3535 1.403 . S
H3533 C3539 0.930 . S
C3534 H3520 0.930 . S
C3534 C3532 1.395 . S
C3534 C3537 1.403 . S
C3535 C3532 1.403 . S
C3535 C3536 1.524 . S
C3535 C3539 1.400 . S
C3536 H3521 0.960 . S
C3536 H3522 0.960 . S
C3536 H3523 0.960 . S
C3536 C3535 1.524 . S
C3537 C3534 1.403 . S
C3537 C3538 1.392 . S
C3537 C3541 1.495 . S
C3538 C3537 1.392 . S
C3538 C3539 1.385 . S
C3538 C3540 1.478 . S
C3539 H3533 0.930 . S
C3539 C3535 1.400 . S
C3539 C3538 1.385 . S
C3540 C3538 1.478 . S
C3540 C3542 1.381 . S
C3540 C3546 1.383 . S
C3541 C3537 1.495 . S
C3541 H3547 0.959 . S
C3541 H3548 0.961 . S
C3541 H3549 0.960 . S
C3542 C3540 1.381 . S
C3542 C3543 1.394 . S
C3542 H3550 0.930 . S
C3543 C3542 1.394 . S
C3543 C3544 1.383 . S
C3543 H3551 0.929 . S
C3544 C3543 1.383 . S
C3544 C3545 1.377 . S
C3545 H3529 0.930 . S
C3545 C3544 1.377 . S
C3545 C3546 1.379 . S
C3546 H3530 0.931 . S
C3546 C3540 1.383 . S
C3546 C3545 1.379 . S
H3547 C3541 0.959 . S
H3548 C3541 0.961 . S
H3549 C3541 0.960 . S
H3550 C3542 0.930 . S
H3551 C3543 0.929 . S
H3552 C3560 0.929 . S
H3553 C3562 0.930 . S
H3554 C3564 0.930 . S
H3555 C3567 0.929 . S
H3556 C3570 0.930 . S
H3557 C3572 0.960 . S
H3558 C3572 0.960 . S
H3559 C3572 0.960 . S
C3560 H3552 0.929 . S
C3560 C3561 1.377 . S
C3560 C3562 1.384 . S
C3561 C3560 1.377 . S
C3561 C3567 1.390 . S
C3562 H3553 0.930 . S
C3562 C3560 1.384 . S
C3562 C3563 1.372 . S
C3563 C3562 1.372 . S
C3563 C3564 1.400 . S
C3563 C3568 1.490 . S
C3564 H3554 0.930 . S
C3564 C3563 1.400 . S
C3564 C3567 1.386 . S
H3565 C3581 0.930 . S
H3566 C3582 0.931 . S
C3567 H3555 0.929 . S
C3567 C3561 1.390 . S
C3567 C3564 1.386 . S
C3568 C3563 1.490 . S
C3568 C3570 1.395 . S
C3568 C3571 1.403 . S
H3569 C3575 0.930 . S
C3570 H3556 0.930 . S
C3570 C3568 1.395 . S
C3570 C3573 1.403 . S
C3571 C3568 1.403 . S
C3571 C3572 1.524 . S
C3571 C3575 1.400 . S
C3572 H3557 0.960 . S
C3572 H3558 0.960 . S
C3572 H3559 0.960 . S
C3572 C3571 1.524 . S
C3573 C3570 1.403 . S
C3573 C3574 1.392 . S
C3573 C3577 1.495 . S
C3574 C3573 1.392 . S
C3574 C3575 1.385 . S
C3574 C3576 1.478 . S
C3575 H3569 0.930 . S
C3575 C3571 1.400 . S
C3575 C3574 1.385 . S
C3576 C3574 1.478 . S
C3576 C3578 1.381 . S
C3576 C3582 1.383 . S
C3577 C3573 1.495 . S
C3577 H3583 0.959 . S
C3577 H3584 0.961 . S
C3577 H3585 0.960 . S
C3578 C3576 1.381 . S
C3578 C3579 1.394 . S
C3578 H3586 0.930 . S
C3579 C3578 1.394 . S
C3579 C3580 1.383 . S
C3579 H3587 0.929 . S
C3580 C3579 1.383 . S
C3580 C3581 1.377 . S
C3581 H3565 0.930 . S
C3581 C3580 1.377 . S
C3581 C3582 1.379 . S
C3582 H3566 0.931 . S
C3582 C3576 1.383 . S
C3582 C3581 1.379 . S
H3583 C3577 0.959 . S
H3584 C3577 0.961 . S
H3585 C3577 0.960 . S
H3586 C3578 0.930 . S
H3587 C3579 0.929 . S
H3588 C3596 0.929 . S
H3589 C3598 0.930 . S
H3590 C3600 0.930 . S
H3591 C3603 0.929 . S
H3592 C3606 0.930 . S
H3593 C3608 0.960 . S
H3594 C3608 0.960 . S
H3595 C3608 0.960 . S
C3596 H3588 0.929 . S
C3596 C3597 1.377 . S
C3596 C3598 1.384 . S
C3597 C3596 1.377 . S
C3597 C3603 1.390 . S
C3598 H3589 0.930 . S
C3598 C3596 1.384 . S
C3598 C3599 1.372 . S
C3599 C3598 1.372 . S
C3599 C3600 1.400 . S
C3599 C3604 1.490 . S
C3600 H3590 0.930 . S
C3600 C3599 1.400 . S
C3600 C3603 1.386 . S
H3601 C3617 0.930 . S
H3602 C3618 0.931 . S
C3603 H3591 0.929 . S
C3603 C3597 1.390 . S
C3603 C3600 1.386 . S
C3604 C3599 1.490 . S
C3604 C3606 1.395 1_455 S
C3604 C3607 1.406 1_455 S
H3605 C3611 0.930 . S
C3606 H3592 0.930 . S
C3606 C3604 1.395 1_655 S
C3606 C3609 1.403 . S
C3607 C3604 1.406 1_655 S
C3607 C3608 1.526 1_655 S
C3607 C3611 1.394 . S
C3608 H3593 0.960 . S
C3608 H3594 0.960 . S
C3608 H3595 0.960 . S
C3608 C3607 1.526 1_455 S
C3609 C3606 1.403 . S
C3609 C3610 1.392 . S
C3609 C3613 1.495 . S
C3610 C3609 1.392 . S
C3610 C3611 1.385 . S
C3610 C3612 1.478 . S
C3611 H3605 0.930 . S
C3611 C3607 1.394 . S
C3611 C3610 1.385 . S
C3612 C3610 1.478 . S
C3612 C3614 1.381 . S
C3612 C3618 1.383 . S
C3613 C3609 1.495 . S
C3613 H3619 0.959 . S
C3613 H3620 0.961 . S
C3613 H3621 0.960 . S
C3614 C3612 1.381 . S
C3614 C3615 1.394 . S
C3614 H3622 0.930 . S
C3615 C3614 1.394 . S
C3615 C3616 1.383 . S
C3615 H3623 0.929 . S
C3616 C3615 1.383 . S
C3616 C3617 1.377 . S
C3617 H3601 0.930 . S
C3617 C3616 1.377 . S
C3617 C3618 1.379 . S
C3618 H3602 0.931 . S
C3618 C3612 1.383 . S
C3618 C3617 1.379 . S
H3619 C3613 0.959 . S
H3620 C3613 0.961 . S
H3621 C3613 0.960 . S
H3622 C3614 0.930 . S
H3623 C3615 0.929 . S
H3624 C3632 0.929 . S
H3625 C3634 0.922 . S
H3626 C3636 0.930 . S
H3627 C3639 0.929 . S
H3628 C3642 0.985 . S
H3629 C3644 0.960 . S
H3630 C3644 0.960 . S
H3631 C3644 0.960 . S
C3632 H3624 0.929 . S
C3632 C3633 1.377 . S
C3632 C3634 1.384 1_655 S
C3633 C3632 1.377 . S
C3633 C3639 1.390 1_655 S
C3634 H3625 0.922 . S
C3634 C3632 1.384 1_455 S
C3634 C3635 1.372 . S
C3635 C3634 1.372 . S
C3635 C3636 1.400 . S
C3635 C3640 1.490 . S
C3636 H3626 0.930 . S
C3636 C3635 1.400 . S
C3636 C3639 1.386 . S
H3637 C3653 0.930 . S
H3638 C3654 0.931 . S
C3639 H3627 0.929 . S
C3639 C3633 1.390 1_455 S
C3639 C3636 1.386 . S
C3640 C3635 1.490 . S
C3640 C3642 1.369 1_455 S
C3640 C3643 1.403 . S
H3641 C3647 0.930 . S
C3642 H3628 0.985 . S
C3642 C3640 1.369 1_655 S
C3642 C3645 1.378 1_655 S
C3643 C3640 1.403 . S
C3643 C3644 1.524 . S
C3643 C3647 1.400 . S
C3644 H3629 0.960 . S
C3644 H3630 0.960 . S
C3644 H3631 0.960 . S
C3644 C3643 1.524 . S
C3645 C3642 1.378 1_455 S
C3645 C3646 1.392 . S
C3645 C3649 1.495 1_455 S
C3646 C3645 1.392 . S
C3646 C3647 1.385 . S
C3646 C3648 1.478 . S
C3647 H3641 0.930 . S
C3647 C3643 1.400 . S
C3647 C3646 1.385 . S
C3648 C3646 1.478 . S
C3648 C3650 1.381 . S
C3648 C3654 1.383 . S
C3649 C3645 1.495 1_655 S
C3649 H3655 0.959 . S
C3649 H3656 0.961 . S
C3649 H3657 0.960 . S
C3650 C3648 1.381 . S
C3650 C3651 1.394 . S
C3650 H3658 0.930 . S
C3651 C3650 1.394 . S
C3651 C3652 1.383 . S
C3651 H3659 0.929 . S
C3652 C3651 1.383 . S
C3652 C3653 1.377 . S
C3653 H3637 0.930 . S
C3653 C3652 1.377 . S
C3653 C3654 1.379 . S
C3654 H3638 0.931 . S
C3654 C3648 1.383 . S
C3654 C3653 1.379 . S
H3655 C3649 0.959 . S
H3656 C3649 0.961 . S
H3657 C3649 0.960 . S
H3658 C3650 0.930 . S
H3659 C3651 0.929 . S
H3660 C3668 0.929 . S
H3661 C3670 0.930 . S
H3662 C3672 0.930 . S
H3663 C3675 0.929 . S
H3664 C3678 0.930 . S
H3665 C3680 0.960 . S
H3666 C3680 0.960 . S
H3667 C3680 0.960 . S
C3668 H3660 0.929 . S
C3668 C3669 1.377 . S
C3668 C3670 1.384 . S
C3669 C3668 1.377 . S
C3669 C3675 1.390 . S
C3670 H3661 0.930 . S
C3670 C3668 1.384 . S
C3670 C3671 1.372 . S
C3671 C3670 1.372 . S
C3671 C3672 1.400 . S
C3671 C3676 1.490 . S
C3672 H3662 0.930 . S
C3672 C3671 1.400 . S
C3672 C3675 1.386 . S
H3673 C3689 0.930 . S
H3674 C3690 0.931 . S
C3675 H3663 0.929 . S
C3675 C3669 1.390 . S
C3675 C3672 1.386 . S
C3676 C3671 1.490 . S
C3676 C3678 1.395 . S
C3676 C3679 1.403 . S
H3677 C3683 0.930 . S
C3678 H3664 0.930 . S
C3678 C3676 1.395 . S
C3678 C3681 1.403 . S
C3679 C3676 1.403 . S
C3679 C3680 1.524 . S
C3679 C3683 1.400 . S
C3680 H3665 0.960 . S
C3680 H3666 0.960 . S
C3680 H3667 0.960 . S
C3680 C3679 1.524 . S
C3681 C3678 1.403 . S
C3681 C3682 1.392 . S
C3681 C3685 1.495 . S
C3682 C3681 1.392 . S
C3682 C3683 1.385 . S
C3682 C3684 1.478 . S
C3683 H3677 0.930 . S
C3683 C3679 1.400 . S
C3683 C3682 1.385 . S
C3684 C3682 1.478 . S
C3684 C3686 1.381 . S
C3684 C3690 1.383 . S
C3685 C3681 1.495 . S
C3685 H3691 0.959 . S
C3685 H3692 0.961 . S
C3685 H3693 0.960 . S
C3686 C3684 1.381 . S
C3686 C3687 1.394 . S
C3686 H3694 0.930 . S
C3687 C3686 1.394 . S
C3687 C3688 1.383 . S
C3687 H3695 0.929 . S
C3688 C3687 1.383 . S
C3688 C3689 1.377 . S
C3689 H3673 0.930 . S
C3689 C3688 1.377 . S
C3689 C3690 1.379 . S
C3690 H3674 0.931 . S
C3690 C3684 1.383 . S
C3690 C3689 1.379 . S
H3691 C3685 0.959 . S
H3692 C3685 0.961 . S
H3693 C3685 0.960 . S
H3694 C3686 0.930 . S
H3695 C3687 0.929 . S
H3696 C3704 0.929 . S
H3697 C3706 0.930 . S
H3698 C3708 0.930 . S
H3699 C3711 0.929 . S
H3700 C3714 0.930 . S
H3701 C3716 0.960 . S
H3702 C3716 0.960 . S
H3703 C3716 0.960 . S
C3704 H3696 0.929 . S
C3704 C3705 1.377 . S
C3704 C3706 1.384 . S
C3705 C3704 1.377 . S
C3705 C3711 1.390 . S
C3706 H3697 0.930 . S
C3706 C3704 1.384 . S
C3706 C3707 1.372 . S
C3707 C3706 1.372 . S
C3707 C3708 1.400 . S
C3707 C3712 1.490 . S
C3708 H3698 0.930 . S
C3708 C3707 1.400 . S
C3708 C3711 1.386 . S
H3709 C3725 0.930 . S
H3710 C3726 0.931 . S
C3711 H3699 0.929 . S
C3711 C3705 1.390 . S
C3711 C3708 1.386 . S
C3712 C3707 1.490 . S
C3712 C3714 1.395 . S
C3712 C3715 1.403 . S
H3713 C3719 0.930 . S
C3714 H3700 0.930 . S
C3714 C3712 1.395 . S
C3714 C3717 1.403 . S
C3715 C3712 1.403 . S
C3715 C3716 1.524 . S
C3715 C3719 1.400 . S
C3716 H3701 0.960 . S
C3716 H3702 0.960 . S
C3716 H3703 0.960 . S
C3716 C3715 1.524 . S
C3717 C3714 1.403 . S
C3717 C3718 1.392 . S
C3717 C3721 1.495 . S
C3718 C3717 1.392 . S
C3718 C3719 1.385 . S
C3718 C3720 1.478 . S
C3719 H3713 0.930 . S
C3719 C3715 1.400 . S
C3719 C3718 1.385 . S
C3720 C3718 1.478 . S
C3720 C3722 1.381 . S
C3720 C3726 1.383 . S
C3721 C3717 1.495 . S
C3721 H3727 0.959 . S
C3721 H3728 0.961 . S
C3721 H3729 0.960 . S
C3722 C3720 1.381 . S
C3722 C3723 1.394 . S
C3722 H3730 0.930 . S
C3723 C3722 1.394 . S
C3723 C3724 1.383 . S
C3723 H3731 0.929 . S
C3724 C3723 1.383 . S
C3724 C3725 1.377 . S
C3725 H3709 0.930 . S
C3725 C3724 1.377 . S
C3725 C3726 1.379 . S
C3726 H3710 0.931 . S
C3726 C3720 1.383 . S
C3726 C3725 1.379 . S
H3727 C3721 0.959 . S
H3728 C3721 0.961 . S
H3729 C3721 0.960 . S
H3730 C3722 0.930 . S
H3731 C3723 0.929 . S
H3732 C3740 0.929 . S
H3733 C3742 0.930 . S
H3734 C3744 0.930 . S
H3735 C3747 0.929 . S
H3736 C3750 0.930 . S
H3737 C3752 0.960 . S
H3738 C3752 0.960 . S
H3739 C3752 0.960 . S
C3740 H3732 0.929 . S
C3740 C3741 1.377 . S
C3740 C3742 1.384 . S
C3741 C3740 1.377 . S
C3741 C3747 1.390 . S
C3742 H3733 0.930 . S
C3742 C3740 1.384 . S
C3742 C3743 1.372 . S
C3743 C3742 1.372 . S
C3743 C3744 1.400 . S
C3743 C3748 1.490 . S
C3744 H3734 0.930 . S
C3744 C3743 1.400 . S
C3744 C3747 1.386 . S
H3745 C3761 0.930 . S
H3746 C3762 0.931 . S
C3747 H3735 0.929 . S
C3747 C3741 1.390 . S
C3747 C3744 1.386 . S
C3748 C3743 1.490 . S
C3748 C3750 1.395 . S
C3748 C3751 1.403 . S
H3749 C3755 0.930 . S
C3750 H3736 0.930 . S
C3750 C3748 1.395 . S
C3750 C3753 1.403 . S
C3751 C3748 1.403 . S
C3751 C3752 1.524 . S
C3751 C3755 1.400 . S
C3752 H3737 0.960 . S
C3752 H3738 0.960 . S
C3752 H3739 0.960 . S
C3752 C3751 1.524 . S
C3753 C3750 1.403 . S
C3753 C3754 1.392 . S
C3753 C3757 1.495 . S
C3754 C3753 1.392 . S
C3754 C3755 1.385 . S
C3754 C3756 1.478 . S
C3755 H3749 0.930 . S
C3755 C3751 1.400 . S
C3755 C3754 1.385 . S
C3756 C3754 1.478 . S
C3756 C3758 1.381 . S
C3756 C3762 1.383 . S
C3757 C3753 1.495 . S
C3757 H3763 0.959 . S
C3757 H3764 0.961 . S
C3757 H3765 0.960 . S
C3758 C3756 1.381 . S
C3758 C3759 1.394 . S
C3758 H3766 0.930 . S
C3759 C3758 1.394 . S
C3759 C3760 1.383 . S
C3759 H3767 0.929 . S
C3760 C3759 1.383 . S
C3760 C3761 1.377 . S
C3761 H3745 0.930 . S
C3761 C3760 1.377 . S
C3761 C3762 1.379 . S
C3762 H3746 0.931 . S
C3762 C3756 1.383 . S
C3762 C3761 1.379 . S
H3763 C3757 0.959 . S
H3764 C3757 0.961 . S
H3765 C3757 0.960 . S
H3766 C3758 0.930 . S
H3767 C3759 0.929 . S
H3768 C3776 0.929 . S
H3769 C3778 0.930 . S
H3770 C3780 0.930 . S
H3771 C3783 0.929 . S
H3772 C3786 0.930 . S
H3773 C3788 0.960 . S
H3774 C3788 0.960 . S
H3775 C3788 0.960 . S
C3776 H3768 0.929 . S
C3776 C3777 1.377 . S
C3776 C3778 1.384 . S
C3777 C3776 1.377 . S
C3777 C3783 1.390 . S
C3778 H3769 0.930 . S
C3778 C3776 1.384 . S
C3778 C3779 1.372 . S
C3779 C3778 1.372 . S
C3779 C3780 1.400 . S
C3779 C3784 1.490 . S
C3780 H3770 0.930 . S
C3780 C3779 1.400 . S
C3780 C3783 1.386 . S
H3781 C3797 0.930 . S
H3782 C3798 0.931 . S
C3783 H3771 0.929 . S
C3783 C3777 1.390 . S
C3783 C3780 1.386 . S
C3784 C3779 1.490 . S
C3784 C3786 1.395 . S
C3784 C3787 1.403 . S
H3785 C3791 0.930 . S
C3786 H3772 0.930 . S
C3786 C3784 1.395 . S
C3786 C3789 1.403 . S
C3787 C3784 1.403 . S
C3787 C3788 1.524 . S
C3787 C3791 1.400 . S
C3788 H3773 0.960 . S
C3788 H3774 0.960 . S
C3788 H3775 0.960 . S
C3788 C3787 1.524 . S
C3789 C3786 1.403 . S
C3789 C3790 1.392 . S
C3789 C3793 1.495 . S
C3790 C3789 1.392 . S
C3790 C3791 1.385 . S
C3790 C3792 1.478 . S
C3791 H3785 0.930 . S
C3791 C3787 1.400 . S
C3791 C3790 1.385 . S
C3792 C3790 1.478 . S
C3792 C3794 1.381 . S
C3792 C3798 1.383 . S
C3793 C3789 1.495 . S
C3793 H3799 0.959 . S
C3793 H3800 0.961 . S
C3793 H3801 0.960 . S
C3794 C3792 1.381 . S
C3794 C3795 1.394 . S
C3794 H3802 0.930 . S
C3795 C3794 1.394 . S
C3795 C3796 1.383 . S
C3795 H3803 0.929 . S
C3796 C3795 1.383 . S
C3796 C3797 1.377 . S
C3797 H3781 0.930 . S
C3797 C3796 1.377 . S
C3797 C3798 1.379 . S
C3798 H3782 0.931 . S
C3798 C3792 1.383 . S
C3798 C3797 1.379 . S
H3799 C3793 0.959 . S
H3800 C3793 0.961 . S
H3801 C3793 0.960 . S
H3802 C3794 0.930 . S
H3803 C3795 0.929 . S
H3804 C3812 0.929 . S
H3805 C3814 0.930 . S
H3806 C3816 0.930 . S
H3807 C3819 0.929 . S
H3808 C3822 0.930 . S
H3809 C3824 0.960 . S
H3810 C3824 0.960 . S
H3811 C3824 0.960 . S
C3812 H3804 0.929 . S
C3812 C3813 1.377 . S
C3812 C3814 1.384 . S
C3813 C3812 1.377 . S
C3813 C3819 1.390 . S
C3814 H3805 0.930 . S
C3814 C3812 1.384 . S
C3814 C3815 1.372 . S
C3815 C3814 1.372 . S
C3815 C3816 1.400 . S
C3815 C3820 1.490 . S
C3816 H3806 0.930 . S
C3816 C3815 1.400 . S
C3816 C3819 1.386 . S
H3817 C3833 0.930 . S
H3818 C3834 0.931 . S
C3819 H3807 0.929 . S
C3819 C3813 1.390 . S
C3819 C3816 1.386 . S
C3820 C3815 1.490 . S
C3820 C3822 1.395 . S
C3820 C3823 1.403 . S
H3821 C3827 0.930 . S
C3822 H3808 0.930 . S
C3822 C3820 1.395 . S
C3822 C3825 1.403 . S
C3823 C3820 1.403 . S
C3823 C3824 1.524 . S
C3823 C3827 1.400 . S
C3824 H3809 0.960 . S
C3824 H3810 0.960 . S
C3824 H3811 0.960 . S
C3824 C3823 1.524 . S
C3825 C3822 1.403 . S
C3825 C3826 1.392 . S
C3825 C3829 1.495 . S
C3826 C3825 1.392 . S
C3826 C3827 1.385 . S
C3826 C3828 1.478 . S
C3827 H3821 0.930 . S
C3827 C3823 1.400 . S
C3827 C3826 1.385 . S
C3828 C3826 1.478 . S
C3828 C3830 1.381 . S
C3828 C3834 1.383 . S
C3829 C3825 1.495 . S
C3829 H3835 0.959 . S
C3829 H3836 0.961 . S
C3829 H3837 0.960 . S
C3830 C3828 1.381 . S
C3830 C3831 1.394 . S
C3830 H3838 0.930 . S
C3831 C3830 1.394 . S
C3831 C3832 1.383 . S
C3831 H3839 0.929 . S
C3832 C3831 1.383 . S
C3832 C3833 1.377 . S
C3833 H3817 0.930 . S
C3833 C3832 1.377 . S
C3833 C3834 1.379 . S
C3834 H3818 0.931 . S
C3834 C3828 1.383 . S
C3834 C3833 1.379 . S
H3835 C3829 0.959 . S
H3836 C3829 0.961 . S
H3837 C3829 0.960 . S
H3838 C3830 0.930 . S
H3839 C3831 0.929 . S
H3840 C3848 0.929 . S
H3841 C3850 0.930 . S
H3842 C3852 0.930 . S
H3843 C3855 0.929 . S
H3844 C3858 0.930 . S
H3845 C3860 0.960 . S
H3846 C3860 0.960 . S
H3847 C3860 0.960 . S
C3848 H3840 0.929 . S
C3848 C3849 1.377 . S
C3848 C3850 1.384 . S
C3849 C3848 1.377 . S
C3849 C3855 1.390 . S
C3850 H3841 0.930 . S
C3850 C3848 1.384 . S
C3850 C3851 1.372 . S
C3851 C3850 1.372 . S
C3851 C3852 1.400 . S
C3851 C3856 1.490 . S
C3852 H3842 0.930 . S
C3852 C3851 1.400 . S
C3852 C3855 1.386 . S
H3853 C3869 0.930 . S
H3854 C3870 0.931 . S
C3855 H3843 0.929 . S
C3855 C3849 1.390 . S
C3855 C3852 1.386 . S
C3856 C3851 1.490 . S
C3856 C3858 1.395 . S
C3856 C3859 1.403 . S
H3857 C3863 0.930 . S
C3858 H3844 0.930 . S
C3858 C3856 1.395 . S
C3858 C3861 1.403 . S
C3859 C3856 1.403 . S
C3859 C3860 1.524 . S
C3859 C3863 1.400 . S
C3860 H3845 0.960 . S
C3860 H3846 0.960 . S
C3860 H3847 0.960 . S
C3860 C3859 1.524 . S
C3861 C3858 1.403 . S
C3861 C3862 1.392 . S
C3861 C3865 1.495 . S
C3862 C3861 1.392 . S
C3862 C3863 1.385 . S
C3862 C3864 1.478 . S
C3863 H3857 0.930 . S
C3863 C3859 1.400 . S
C3863 C3862 1.385 . S
C3864 C3862 1.478 . S
C3864 C3866 1.381 . S
C3864 C3870 1.383 . S
C3865 C3861 1.495 . S
C3865 H3871 0.959 . S
C3865 H3872 0.961 . S
C3865 H3873 0.960 . S
C3866 C3864 1.381 . S
C3866 C3867 1.394 . S
C3866 H3874 0.930 . S
C3867 C3866 1.394 . S
C3867 C3868 1.383 . S
C3867 H3875 0.929 . S
C3868 C3867 1.383 . S
C3868 C3869 1.377 . S
C3869 H3853 0.930 . S
C3869 C3868 1.377 . S
C3869 C3870 1.379 . S
C3870 H3854 0.931 . S
C3870 C3864 1.383 . S
C3870 C3869 1.379 . S
H3871 C3865 0.959 . S
H3872 C3865 0.961 . S
H3873 C3865 0.960 . S
H3874 C3866 0.930 . S
H3875 C3867 0.929 . S
H3876 C3884 0.929 . S
H3877 C3886 0.930 . S
H3878 C3888 0.930 . S
H3879 C3891 0.929 . S
H3880 C3894 0.930 . S
H3881 C3896 0.960 . S
H3882 C3896 0.960 . S
H3883 C3896 0.960 . S
C3884 H3876 0.929 . S
C3884 C3885 1.377 . S
C3884 C3886 1.384 . S
C3885 C3884 1.377 . S
C3885 C3891 1.390 . S
C3886 H3877 0.930 . S
C3886 C3884 1.384 . S
C3886 C3887 1.372 . S
C3887 C3886 1.372 . S
C3887 C3888 1.400 . S
C3887 C3892 1.490 . S
C3888 H3878 0.930 . S
C3888 C3887 1.400 . S
C3888 C3891 1.386 . S
H3889 C3905 0.930 . S
H3890 C3906 0.931 . S
C3891 H3879 0.929 . S
C3891 C3885 1.390 . S
C3891 C3888 1.386 . S
C3892 C3887 1.490 . S
C3892 C3894 1.395 . S
C3892 C3895 1.403 . S
H3893 C3899 0.930 . S
C3894 H3880 0.930 . S
C3894 C3892 1.395 . S
C3894 C3897 1.403 . S
C3895 C3892 1.403 . S
C3895 C3896 1.524 . S
C3895 C3899 1.400 . S
C3896 H3881 0.960 . S
C3896 H3882 0.960 . S
C3896 H3883 0.960 . S
C3896 C3895 1.524 . S
C3897 C3894 1.403 . S
C3897 C3898 1.392 . S
C3897 C3901 1.495 . S
C3898 C3897 1.392 . S
C3898 C3899 1.385 . S
C3898 C3900 1.478 . S
C3899 H3893 0.930 . S
C3899 C3895 1.400 . S
C3899 C3898 1.385 . S
C3900 C3898 1.478 . S
C3900 C3902 1.381 . S
C3900 C3906 1.383 . S
C3901 C3897 1.495 . S
C3901 H3907 0.959 . S
C3901 H3908 0.961 . S
C3901 H3909 0.960 . S
C3902 C3900 1.381 . S
C3902 C3903 1.394 . S
C3902 H3910 0.930 . S
C3903 C3902 1.394 . S
C3903 C3904 1.383 . S
C3903 H3911 0.929 . S
C3904 C3903 1.383 . S
C3904 C3905 1.377 . S
C3905 H3889 0.930 . S
C3905 C3904 1.377 . S
C3905 C3906 1.379 . S
C3906 H3890 0.931 . S
C3906 C3900 1.383 . S
C3906 C3905 1.379 . S
H3907 C3901 0.959 . S
H3908 C3901 0.961 . S
H3909 C3901 0.960 . S
H3910 C3902 0.930 . S
H3911 C3903 0.929 . S
H3912 C3920 0.929 . S
H3913 C3922 0.930 . S
H3914 C3924 0.930 . S
H3915 C3927 0.929 . S
H3916 C3930 0.930 . S
H3917 C3932 0.960 . S
H3918 C3932 0.960 . S
H3919 C3932 0.960 . S
C3920 H3912 0.929 . S
C3920 C3921 1.377 . S
C3920 C3922 1.384 . S
C3921 C3920 1.377 . S
C3921 C3927 1.390 . S
C3922 H3913 0.930 . S
C3922 C3920 1.384 . S
C3922 C3923 1.372 . S
C3923 C3922 1.372 . S
C3923 C3924 1.400 . S
C3923 C3928 1.490 . S
C3924 H3914 0.930 . S
C3924 C3923 1.400 . S
C3924 C3927 1.386 . S
H3925 C3941 0.930 . S
H3926 C3942 0.931 . S
C3927 H3915 0.929 . S
C3927 C3921 1.390 . S
C3927 C3924 1.386 . S
C3928 C3923 1.490 . S
C3928 C3930 1.395 . S
C3928 C3931 1.403 . S
H3929 C3935 0.930 . S
C3930 H3916 0.930 . S
C3930 C3928 1.395 . S
C3930 C3933 1.403 . S
C3931 C3928 1.403 . S
C3931 C3932 1.524 . S
C3931 C3935 1.400 . S
C3932 H3917 0.960 . S
C3932 H3918 0.960 . S
C3932 H3919 0.960 . S
C3932 C3931 1.524 . S
C3933 C3930 1.403 . S
C3933 C3934 1.392 . S
C3933 C3937 1.495 . S
C3934 C3933 1.392 . S
C3934 C3935 1.385 . S
C3934 C3936 1.478 . S
C3935 H3929 0.930 . S
C3935 C3931 1.400 . S
C3935 C3934 1.385 . S
C3936 C3934 1.478 . S
C3936 C3938 1.381 . S
C3936 C3942 1.383 . S
C3937 C3933 1.495 . S
C3937 H3943 0.959 . S
C3937 H3944 0.961 . S
C3937 H3945 0.960 . S
C3938 C3936 1.381 . S
C3938 C3939 1.394 . S
C3938 H3946 0.930 . S
C3939 C3938 1.394 . S
C3939 C3940 1.383 . S
C3939 H3947 0.929 . S
C3940 C3939 1.383 . S
C3940 C3941 1.377 . S
C3941 H3925 0.930 . S
C3941 C3940 1.377 . S
C3941 C3942 1.379 . S
C3942 H3926 0.931 . S
C3942 C3936 1.383 . S
C3942 C3941 1.379 . S
H3943 C3937 0.959 . S
H3944 C3937 0.961 . S
H3945 C3937 0.960 . S
H3946 C3938 0.930 . S
H3947 C3939 0.929 . S
H3948 C3956 0.929 . S
H3949 C3958 0.930 . S
H3950 C3960 0.930 . S
H3951 C3963 0.929 . S
H3952 C3966 0.930 . S
H3953 C3968 0.960 . S
H3954 C3968 0.960 . S
H3955 C3968 0.960 . S
C3956 H3948 0.929 . S
C3956 C3957 1.377 . S
C3956 C3958 1.384 . S
C3957 C3956 1.377 . S
C3957 C3963 1.390 . S
C3958 H3949 0.930 . S
C3958 C3956 1.384 . S
C3958 C3959 1.372 . S
C3959 C3958 1.372 . S
C3959 C3960 1.400 . S
C3959 C3964 1.490 . S
C3960 H3950 0.930 . S
C3960 C3959 1.400 . S
C3960 C3963 1.386 . S
H3961 C3977 0.930 . S
H3962 C3978 0.931 . S
C3963 H3951 0.929 . S
C3963 C3957 1.390 . S
C3963 C3960 1.386 . S
C3964 C3959 1.490 . S
C3964 C3966 1.395 . S
C3964 C3967 1.403 . S
H3965 C3971 0.930 . S
C3966 H3952 0.930 . S
C3966 C3964 1.395 . S
C3966 C3969 1.403 . S
C3967 C3964 1.403 . S
C3967 C3968 1.524 . S
C3967 C3971 1.400 . S
C3968 H3953 0.960 . S
C3968 H3954 0.960 . S
C3968 H3955 0.960 . S
C3968 C3967 1.524 . S
C3969 C3966 1.403 . S
C3969 C3970 1.392 . S
C3969 C3973 1.495 . S
C3970 C3969 1.392 . S
C3970 C3971 1.385 . S
C3970 C3972 1.478 . S
C3971 H3965 0.930 . S
C3971 C3967 1.400 . S
C3971 C3970 1.385 . S
C3972 C3970 1.478 . S
C3972 C3974 1.381 . S
C3972 C3978 1.383 . S
C3973 C3969 1.495 . S
C3973 H3979 0.959 . S
C3973 H3980 0.961 . S
C3973 H3981 0.960 . S
C3974 C3972 1.381 . S
C3974 C3975 1.394 . S
C3974 H3982 0.930 . S
C3975 C3974 1.394 . S
C3975 C3976 1.383 . S
C3975 H3983 0.929 . S
C3976 C3975 1.383 . S
C3976 C3977 1.377 . S
C3977 H3961 0.930 . S
C3977 C3976 1.377 . S
C3977 C3978 1.379 . S
C3978 H3962 0.931 . S
C3978 C3972 1.383 . S
C3978 C3977 1.379 . S
H3979 C3973 0.959 . S
H3980 C3973 0.961 . S
H3981 C3973 0.960 . S
H3982 C3974 0.930 . S
H3983 C3975 0.929 . S
H3984 C3992 0.929 . S
H3985 C3994 0.930 . S
H3986 C3996 0.930 . S
H3987 C3999 0.929 . S
H3988 C4002 0.930 . S
H3989 C4004 0.960 . S
H3990 C4004 0.960 . S
H3991 C4004 0.960 . S
C3992 H3984 0.929 . S
C3992 C3993 1.377 . S
C3992 C3994 1.384 . S
C3993 C3992 1.377 . S
C3993 C3999 1.390 . S
C3994 H3985 0.930 . S
C3994 C3992 1.384 . S
C3994 C3995 1.372 . S
C3995 C3994 1.372 . S
C3995 C3996 1.400 . S
C3995 C4000 1.490 . S
C3996 H3986 0.930 . S
C3996 C3995 1.400 . S
C3996 C3999 1.386 . S
H3997 C4013 0.930 . S
H3998 C4014 0.931 . S
C3999 H3987 0.929 . S
C3999 C3993 1.390 . S
C3999 C3996 1.386 . S
C4000 C3995 1.490 . S
C4000 C4002 1.395 . S
C4000 C4003 1.403 . S
H4001 C4007 0.930 . S
C4002 H3988 0.930 . S
C4002 C4000 1.395 . S
C4002 C4005 1.403 . S
C4003 C4000 1.403 . S
C4003 C4004 1.524 . S
C4003 C4007 1.400 . S
C4004 H3989 0.960 . S
C4004 H3990 0.960 . S
C4004 H3991 0.960 . S
C4004 C4003 1.524 . S
C4005 C4002 1.403 . S
C4005 C4006 1.392 . S
C4005 C4009 1.495 . S
C4006 C4005 1.392 . S
C4006 C4007 1.385 . S
C4006 C4008 1.478 . S
C4007 H4001 0.930 . S
C4007 C4003 1.400 . S
C4007 C4006 1.385 . S
C4008 C4006 1.478 . S
C4008 C4010 1.381 . S
C4008 C4014 1.383 . S
C4009 C4005 1.495 . S
C4009 H4015 0.959 . S
C4009 H4016 0.961 . S
C4009 H4017 0.960 . S
C4010 C4008 1.381 . S
C4010 C4011 1.394 . S
C4010 H4018 0.930 . S
C4011 C4010 1.394 . S
C4011 C4012 1.383 . S
C4011 H4019 0.929 . S
C4012 C4011 1.383 . S
C4012 C4013 1.377 . S
C4013 H3997 0.930 . S
C4013 C4012 1.377 . S
C4013 C4014 1.379 . S
C4014 H3998 0.931 . S
C4014 C4008 1.383 . S
C4014 C4013 1.379 . S
H4015 C4009 0.959 . S
H4016 C4009 0.961 . S
H4017 C4009 0.960 . S
H4018 C4010 0.930 . S
H4019 C4011 0.929 . S
H4020 C4028 0.929 . S
H4021 C4030 0.930 . S
H4022 C4032 0.930 . S
H4023 C4035 0.929 . S
H4024 C4038 0.930 . S
H4025 C4040 0.960 . S
H4026 C4040 0.960 . S
H4027 C4040 0.960 . S
C4028 H4020 0.929 . S
C4028 C4029 1.377 . S
C4028 C4030 1.384 . S
C4029 C4028 1.377 . S
C4029 C4035 1.390 . S
C4030 H4021 0.930 . S
C4030 C4028 1.384 . S
C4030 C4031 1.372 . S
C4031 C4030 1.372 . S
C4031 C4032 1.400 . S
C4031 C4036 1.490 . S
C4032 H4022 0.930 . S
C4032 C4031 1.400 . S
C4032 C4035 1.386 . S
H4033 C4049 0.930 . S
H4034 C4050 0.931 . S
C4035 H4023 0.929 . S
C4035 C4029 1.390 . S
C4035 C4032 1.386 . S
C4036 C4031 1.490 . S
C4036 C4038 1.395 . S
C4036 C4039 1.403 . S
H4037 C4043 0.930 . S
C4038 H4024 0.930 . S
C4038 C4036 1.395 . S
C4038 C4041 1.403 . S
C4039 C4036 1.403 . S
C4039 C4040 1.524 . S
C4039 C4043 1.400 . S
C4040 H4025 0.960 . S
C4040 H4026 0.960 . S
C4040 H4027 0.960 . S
C4040 C4039 1.524 . S
C4041 C4038 1.403 . S
C4041 C4042 1.392 . S
C4041 C4045 1.495 . S
C4042 C4041 1.392 . S
C4042 C4043 1.385 . S
C4042 C4044 1.478 . S
C4043 H4037 0.930 . S
C4043 C4039 1.400 . S
C4043 C4042 1.385 . S
C4044 C4042 1.478 . S
C4044 C4046 1.381 . S
C4044 C4050 1.383 . S
C4045 C4041 1.495 . S
C4045 H4051 0.959 . S
C4045 H4052 0.961 . S
C4045 H4053 0.960 . S
C4046 C4044 1.381 . S
C4046 C4047 1.394 . S
C4046 H4054 0.930 . S
C4047 C4046 1.394 . S
C4047 C4048 1.383 . S
C4047 H4055 0.929 . S
C4048 C4047 1.383 . S
C4048 C4049 1.377 . S
C4049 H4033 0.930 . S
C4049 C4048 1.377 . S
C4049 C4050 1.379 . S
C4050 H4034 0.931 . S
C4050 C4044 1.383 . S
C4050 C4049 1.379 . S
H4051 C4045 0.959 . S
H4052 C4045 0.961 . S
H4053 C4045 0.960 . S
H4054 C4046 0.930 . S
H4055 C4047 0.929 . S
H4056 C4064 0.929 . S
H4057 C4066 0.930 . S
H4058 C4068 0.930 . S
H4059 C4071 0.929 . S
H4060 C4074 0.930 . S
H4061 C4076 0.960 . S
H4062 C4076 0.960 . S
H4063 C4076 0.960 . S
C4064 H4056 0.929 . S
C4064 C4065 1.377 . S
C4064 C4066 1.384 . S
C4065 C4064 1.377 . S
C4065 C4071 1.390 . S
C4066 H4057 0.930 . S
C4066 C4064 1.384 . S
C4066 C4067 1.372 . S
C4067 C4066 1.372 . S
C4067 C4068 1.400 . S
C4067 C4072 1.490 . S
C4068 H4058 0.930 . S
C4068 C4067 1.400 . S
C4068 C4071 1.386 . S
H4069 C4085 0.930 . S
H4070 C4086 0.931 . S
C4071 H4059 0.929 . S
C4071 C4065 1.390 . S
C4071 C4068 1.386 . S
C4072 C4067 1.490 . S
C4072 C4074 1.395 . S
C4072 C4075 1.403 . S
H4073 C4079 0.930 . S
C4074 H4060 0.930 . S
C4074 C4072 1.395 . S
C4074 C4077 1.403 . S
C4075 C4072 1.403 . S
C4075 C4076 1.524 . S
C4075 C4079 1.400 . S
C4076 H4061 0.960 . S
C4076 H4062 0.960 . S
C4076 H4063 0.960 . S
C4076 C4075 1.524 . S
C4077 C4074 1.403 . S
C4077 C4078 1.392 . S
C4077 C4081 1.495 . S
C4078 C4077 1.392 . S
C4078 C4079 1.385 . S
C4078 C4080 1.478 . S
C4079 H4073 0.930 . S
C4079 C4075 1.400 . S
C4079 C4078 1.385 . S
C4080 C4078 1.478 . S
C4080 C4082 1.381 . S
C4080 C4086 1.383 . S
C4081 C4077 1.495 . S
C4081 H4087 0.959 . S
C4081 H4088 0.961 . S
C4081 H4089 0.960 . S
C4082 C4080 1.381 . S
C4082 C4083 1.394 . S
C4082 H4090 0.930 . S
C4083 C4082 1.394 . S
C4083 C4084 1.383 . S
C4083 H4091 0.929 . S
C4084 C4083 1.383 . S
C4084 C4085 1.377 . S
C4085 H4069 0.930 . S
C4085 C4084 1.377 . S
C4085 C4086 1.379 . S
C4086 H4070 0.931 . S
C4086 C4080 1.383 . S
C4086 C4085 1.379 . S
H4087 C4081 0.959 . S
H4088 C4081 0.961 . S
H4089 C4081 0.960 . S
H4090 C4082 0.930 . S
H4091 C4083 0.929 . S
H4092 C4100 0.929 . S
H4093 C4102 0.930 . S
H4094 C4104 0.930 . S
H4095 C4107 0.929 . S
H4096 C4110 0.930 . S
H4097 C4112 0.960 . S
H4098 C4112 0.960 . S
H4099 C4112 0.960 . S
C4100 H4092 0.929 . S
C4100 C4101 1.377 1_556 S
C4100 C4102 1.384 . S
C4101 C4100 1.377 1_554 S
C4101 C4107 1.390 . S
C4102 H4093 0.930 . S
C4102 C4100 1.384 . S
C4102 C4103 1.372 1_556 S
C4103 C4102 1.372 1_554 S
C4103 C4104 1.400 . S
C4103 C4108 1.490 . S
C4104 H4094 0.930 . S
C4104 C4103 1.400 . S
C4104 C4107 1.386 . S
H4105 C4121 0.930 . S
H4106 C4122 0.931 . S
C4107 H4095 0.929 . S
C4107 C4101 1.390 . S
C4107 C4104 1.386 . S
C4108 C4103 1.490 . S
C4108 C4110 1.395 . S
C4108 C4111 1.403 . S
H4109 C4115 0.930 . S
C4110 H4096 0.930 . S
C4110 C4108 1.395 . S
C4110 C4113 1.403 1_565 S
C4111 C4108 1.403 . S
C4111 C4112 1.524 . S
C4111 C4115 1.400 . S
C4112 H4097 0.960 . S
C4112 H4098 0.960 . S
C4112 H4099 0.960 . S
C4112 C4111 1.524 . S
C4113 C4110 1.403 1_545 S
C4113 C4114 1.392 1_545 S
C4113 C4117 1.495 . S
C4114 C4113 1.392 1_565 S
C4114 C4115 1.385 . S
C4114 C4116 1.478 1_565 S
C4115 H4109 0.930 . S
C4115 C4111 1.400 . S
C4115 C4114 1.385 . S
C4116 C4114 1.478 1_545 S
C4116 C4118 1.381 . S
C4116 C4122 1.383 . S
C4117 C4113 1.495 . S
C4117 H4123 0.959 . S
C4117 H4124 0.961 . S
C4117 H4125 0.960 1_554 S
C4118 C4116 1.381 . S
C4118 C4119 1.394 . S
C4118 H4126 0.930 1_554 S
C4119 C4118 1.394 . S
C4119 C4120 1.383 . S
C4119 H4127 0.929 1_554 S
C4120 C4119 1.383 . S
C4120 C4121 1.377 . S
C4121 H4105 0.930 . S
C4121 C4120 1.377 . S
C4121 C4122 1.379 . S
C4122 H4106 0.931 . S
C4122 C4116 1.383 . S
C4122 C4121 1.379 . S
H4123 C4117 0.959 . S
H4124 C4117 0.961 . S
H4125 C4117 0.960 1_556 S
H4126 C4118 0.930 1_556 S
H4127 C4119 0.929 1_556 S
H4128 C4136 0.929 . S
H4129 C4138 0.930 . S
H4130 C4140 0.930 . S
H4131 C4143 0.929 . S
H4132 C4146 0.930 . S
H4133 C4148 0.960 . S
H4134 C4148 0.960 . S
H4135 C4148 0.960 . S
C4136 H4128 0.929 . S
C4136 C4137 1.377 . S
C4136 C4138 1.384 . S
C4137 C4136 1.377 . S
C4137 C4143 1.390 . S
C4138 H4129 0.930 . S
C4138 C4136 1.384 . S
C4138 C4139 1.372 . S
C4139 C4138 1.372 . S
C4139 C4140 1.400 . S
C4139 C4144 1.490 . S
C4140 H4130 0.930 . S
C4140 C4139 1.400 . S
C4140 C4143 1.386 . S
H4141 C4157 0.930 . S
H4142 C4158 0.931 . S
C4143 H4131 0.929 . S
C4143 C4137 1.390 . S
C4143 C4140 1.386 . S
C4144 C4139 1.490 . S
C4144 C4146 1.395 . S
C4144 C4147 1.403 . S
H4145 C4151 0.930 . S
C4146 H4132 0.930 . S
C4146 C4144 1.395 . S
C4146 C4149 1.403 . S
C4147 C4144 1.403 . S
C4147 C4148 1.524 . S
C4147 C4151 1.400 . S
C4148 H4133 0.960 . S
C4148 H4134 0.960 . S
C4148 H4135 0.960 . S
C4148 C4147 1.524 . S
C4149 C4146 1.403 . S
C4149 C4150 1.392 . S
C4149 C4153 1.495 . S
C4150 C4149 1.392 . S
C4150 C4151 1.385 . S
C4150 C4152 1.478 . S
C4151 H4145 0.930 . S
C4151 C4147 1.400 . S
C4151 C4150 1.385 . S
C4152 C4150 1.478 . S
C4152 C4154 1.381 . S
C4152 C4158 1.383 . S
C4153 C4149 1.495 . S
C4153 H4159 0.959 . S
C4153 H4160 0.961 . S
C4153 H4161 0.960 . S
C4154 C4152 1.381 . S
C4154 C4155 1.394 . S
C4154 H4162 0.930 . S
C4155 C4154 1.394 . S
C4155 C4156 1.383 . S
C4155 H4163 0.929 . S
C4156 C4155 1.383 . S
C4156 C4157 1.377 . S
C4157 H4141 0.930 . S
C4157 C4156 1.377 . S
C4157 C4158 1.379 . S
C4158 H4142 0.931 . S
C4158 C4152 1.383 . S
C4158 C4157 1.379 . S
H4159 C4153 0.959 . S
H4160 C4153 0.961 . S
H4161 C4153 0.960 . S
H4162 C4154 0.930 . S
H4163 C4155 0.929 . S
H4164 C4172 0.929 . S
H4165 C4174 0.930 . S
H4166 C4176 0.891 1_556 S
H4167 C4179 0.929 . S
H4168 C4182 0.930 . S
H4169 C4184 0.960 . S
H4170 C4184 0.960 . S
H4171 C4184 0.960 1_556 S
C4172 H4164 0.929 . S
C4172 C4173 1.377 . S
C4172 C4174 1.384 . S
C4173 C4172 1.377 . S
C4173 C4179 1.390 1_554 S
C4174 H4165 0.930 . S
C4174 C4172 1.384 . S
C4174 C4175 1.372 . S
C4175 C4174 1.372 . S
C4175 C4176 1.460 . S
C4175 C4180 1.490 . S
C4176 H4166 0.891 1_554 S
C4176 C4175 1.460 . S
C4176 C4179 1.366 1_554 S
H4177 C4193 0.930 . S
H4178 C4194 0.931 . S
C4179 H4167 0.929 . S
C4179 C4173 1.390 1_556 S
C4179 C4176 1.366 1_556 S
C4180 C4175 1.490 . S
C4180 C4182 1.395 . S
C4180 C4183 1.403 . S
H4181 C4187 0.930 . S
C4182 H4168 0.930 . S
C4182 C4180 1.395 . S
C4182 C4185 1.403 . S
C4183 C4180 1.403 . S
C4183 C4184 1.524 . S
C4183 C4187 1.400 . S
C4184 H4169 0.960 . S
C4184 H4170 0.960 . S
C4184 H4171 0.960 1_554 S
C4184 C4183 1.524 . S
C4185 C4182 1.403 . S
C4185 C4186 1.392 . S
C4185 C4189 1.495 . S
C4186 C4185 1.392 . S
C4186 C4187 1.385 . S
C4186 C4188 1.478 . S
C4187 H4181 0.930 . S
C4187 C4183 1.400 . S
C4187 C4186 1.385 . S
C4188 C4186 1.478 . S
C4188 C4190 1.381 . S
C4188 C4194 1.383 . S
C4189 C4185 1.495 . S
C4189 H4195 0.959 . S
C4189 H4196 0.961 . S
C4189 H4197 0.960 . S
C4190 C4188 1.381 . S
C4190 C4191 1.394 . S
C4190 H4198 0.930 . S
C4191 C4190 1.394 . S
C4191 C4192 1.383 . S
C4191 H4199 0.929 . S
C4192 C4191 1.383 . S
C4192 C4193 1.377 . S
C4193 H4177 0.930 . S
C4193 C4192 1.377 . S
C4193 C4194 1.379 . S
C4194 H4178 0.931 . S
C4194 C4188 1.383 . S
C4194 C4193 1.379 . S
H4195 C4189 0.959 . S
H4196 C4189 0.961 . S
H4197 C4189 0.960 . S
H4198 C4190 0.930 . S
H4199 C4191 0.929 . S
H4200 C4208 0.929 . S
H4201 C4210 0.930 . S
H4202 C4212 0.930 . S
H4203 C4215 0.929 . S
H4204 C4218 0.930 . S
H4205 C4220 0.960 . S
H4206 C4220 0.960 . S
H4207 C4220 0.960 . S
C4208 H4200 0.929 . S
C4208 C4209 1.377 . S
C4208 C4210 1.384 . S
C4209 C4208 1.377 . S
C4209 C4215 1.390 . S
C4210 H4201 0.930 . S
C4210 C4208 1.384 . S
C4210 C4211 1.372 . S
C4211 C4210 1.372 . S
C4211 C4212 1.400 . S
C4211 C4216 1.490 . S
C4212 H4202 0.930 . S
C4212 C4211 1.400 . S
C4212 C4215 1.386 . S
H4213 C4229 0.930 . S
H4214 C4230 0.931 . S
C4215 H4203 0.929 . S
C4215 C4209 1.390 . S
C4215 C4212 1.386 . S
C4216 C4211 1.490 . S
C4216 C4218 1.395 . S
C4216 C4219 1.403 . S
H4217 C4223 0.930 . S
C4218 H4204 0.930 . S
C4218 C4216 1.395 . S
C4218 C4221 1.403 . S
C4219 C4216 1.403 . S
C4219 C4220 1.524 . S
C4219 C4223 1.400 . S
C4220 H4205 0.960 . S
C4220 H4206 0.960 . S
C4220 H4207 0.960 . S
C4220 C4219 1.524 . S
C4221 C4218 1.403 . S
C4221 C4222 1.392 . S
C4221 C4225 1.495 . S
C4222 C4221 1.392 . S
C4222 C4223 1.385 . S
C4222 C4224 1.478 . S
C4223 H4217 0.930 . S
C4223 C4219 1.400 . S
C4223 C4222 1.385 . S
C4224 C4222 1.478 . S
C4224 C4226 1.381 . S
C4224 C4230 1.383 . S
C4225 C4221 1.495 . S
C4225 H4231 0.959 . S
C4225 H4232 0.961 . S
C4225 H4233 0.960 . S
C4226 C4224 1.381 . S
C4226 C4227 1.394 . S
C4226 H4234 0.930 . S
C4227 C4226 1.394 . S
C4227 C4228 1.383 . S
C4227 H4235 0.929 . S
C4228 C4227 1.383 . S
C4228 C4229 1.377 . S
C4229 H4213 0.930 . S
C4229 C4228 1.377 . S
C4229 C4230 1.379 . S
C4230 H4214 0.931 . S
C4230 C4224 1.383 . S
C4230 C4229 1.379 . S
H4231 C4225 0.959 . S
H4232 C4225 0.961 . S
H4233 C4225 0.960 . S
H4234 C4226 0.930 . S
H4235 C4227 0.929 . S
H4236 C4244 0.929 . S
H4237 C4246 0.930 . S
H4238 C4248 0.930 . S
H4239 C4251 0.929 . S
H4240 C4254 0.930 . S
H4241 C4256 0.960 . S
H4242 C4256 0.960 . S
H4243 C4256 0.960 . S
C4244 H4236 0.929 . S
C4244 C4245 1.377 . S
C4244 C4246 1.384 . S
C4245 C4244 1.377 . S
C4245 C4251 1.390 . S
C4246 H4237 0.930 . S
C4246 C4244 1.384 . S
C4246 C4247 1.372 . S
C4247 C4246 1.372 . S
C4247 C4248 1.400 . S
C4247 C4252 1.490 . S
C4248 H4238 0.930 . S
C4248 C4247 1.400 . S
C4248 C4251 1.386 . S
H4249 C4265 0.930 . S
H4250 C4266 0.931 . S
C4251 H4239 0.929 . S
C4251 C4245 1.390 . S
C4251 C4248 1.386 . S
C4252 C4247 1.490 . S
C4252 C4254 1.395 . S
C4252 C4255 1.403 . S
H4253 C4259 0.930 . S
C4254 H4240 0.930 . S
C4254 C4252 1.395 . S
C4254 C4257 1.403 . S
C4255 C4252 1.403 . S
C4255 C4256 1.524 . S
C4255 C4259 1.400 . S
C4256 H4241 0.960 . S
C4256 H4242 0.960 . S
C4256 H4243 0.960 . S
C4256 C4255 1.524 . S
C4257 C4254 1.403 . S
C4257 C4258 1.392 . S
C4257 C4261 1.495 . S
C4258 C4257 1.392 . S
C4258 C4259 1.385 . S
C4258 C4260 1.478 . S
C4259 H4253 0.930 . S
C4259 C4255 1.400 . S
C4259 C4258 1.385 . S
C4260 C4258 1.478 . S
C4260 C4262 1.381 . S
C4260 C4266 1.383 . S
C4261 C4257 1.495 . S
C4261 H4267 0.959 . S
C4261 H4268 0.961 . S
C4261 H4269 0.960 . S
C4262 C4260 1.381 . S
C4262 C4263 1.394 . S
C4262 H4270 0.930 . S
C4263 C4262 1.394 . S
C4263 C4264 1.383 . S
C4263 H4271 0.929 . S
C4264 C4263 1.383 . S
C4264 C4265 1.377 . S
C4265 H4249 0.930 . S
C4265 C4264 1.377 . S
C4265 C4266 1.379 . S
C4266 H4250 0.931 . S
C4266 C4260 1.383 . S
C4266 C4265 1.379 . S
H4267 C4261 0.959 . S
H4268 C4261 0.961 . S
H4269 C4261 0.960 . S
H4270 C4262 0.930 . S
H4271 C4263 0.929 . S
H4272 C4280 0.929 . S
H4273 C4282 0.930 . S
H4274 C4284 0.930 . S
H4275 C4287 0.929 . S
H4276 C4290 0.930 . S
H4277 C4292 0.960 . S
H4278 C4292 0.960 . S
H4279 C4292 0.960 . S
C4280 H4272 0.929 . S
C4280 C4281 1.377 . S
C4280 C4282 1.384 . S
C4281 C4280 1.377 . S
C4281 C4287 1.390 . S
C4282 H4273 0.930 . S
C4282 C4280 1.384 . S
C4282 C4283 1.372 . S
C4283 C4282 1.372 . S
C4283 C4284 1.400 . S
C4283 C4288 1.490 . S
C4284 H4274 0.930 . S
C4284 C4283 1.400 . S
C4284 C4287 1.386 . S
H4285 C4301 0.930 . S
H4286 C4302 0.931 . S
C4287 H4275 0.929 . S
C4287 C4281 1.390 . S
C4287 C4284 1.386 . S
C4288 C4283 1.490 . S
C4288 C4290 1.395 . S
C4288 C4291 1.403 . S
H4289 C4295 0.930 . S
C4290 H4276 0.930 . S
C4290 C4288 1.395 . S
C4290 C4293 1.403 . S
C4291 C4288 1.403 . S
C4291 C4292 1.524 . S
C4291 C4295 1.400 . S
C4292 H4277 0.960 . S
C4292 H4278 0.960 . S
C4292 H4279 0.960 . S
C4292 C4291 1.524 . S
C4293 C4290 1.403 . S
C4293 C4294 1.392 . S
C4293 C4297 1.495 . S
C4294 C4293 1.392 . S
C4294 C4295 1.385 . S
C4294 C4296 1.478 . S
C4295 H4289 0.930 . S
C4295 C4291 1.400 . S
C4295 C4294 1.385 . S
C4296 C4294 1.478 . S
C4296 C4298 1.381 . S
C4296 C4302 1.383 . S
C4297 C4293 1.495 . S
C4297 H4303 0.959 . S
C4297 H4304 0.961 . S
C4297 H4305 0.960 . S
C4298 C4296 1.381 . S
C4298 C4299 1.394 . S
C4298 H4306 0.930 . S
C4299 C4298 1.394 . S
C4299 C4300 1.383 . S
C4299 H4307 0.929 . S
C4300 C4299 1.383 . S
C4300 C4301 1.377 . S
C4301 H4285 0.930 . S
C4301 C4300 1.377 . S
C4301 C4302 1.379 . S
C4302 H4286 0.931 . S
C4302 C4296 1.383 . S
C4302 C4301 1.379 . S
H4303 C4297 0.959 . S
H4304 C4297 0.961 . S
H4305 C4297 0.960 . S
H4306 C4298 0.930 . S
H4307 C4299 0.929 . S
H4308 C4316 0.929 . S
H4309 C4318 0.930 . S
H4310 C4320 0.930 . S
H4311 C4323 0.929 . S
H4312 C4326 0.930 . S
H4313 C4328 0.960 . S
H4314 C4328 0.960 . S
H4315 C4328 0.960 . S
C4316 H4308 0.929 . S
C4316 C4317 1.377 . S
C4316 C4318 1.384 . S
C4317 C4316 1.377 . S
C4317 C4323 1.390 . S
C4318 H4309 0.930 . S
C4318 C4316 1.384 . S
C4318 C4319 1.372 . S
C4319 C4318 1.372 . S
C4319 C4320 1.400 . S
C4319 C4324 1.490 . S
C4320 H4310 0.930 . S
C4320 C4319 1.400 . S
C4320 C4323 1.386 . S
H4321 C4337 0.930 . S
H4322 C4338 0.931 . S
C4323 H4311 0.929 . S
C4323 C4317 1.390 . S
C4323 C4320 1.386 . S
C4324 C4319 1.490 . S
C4324 C4326 1.395 . S
C4324 C4327 1.403 . S
H4325 C4331 0.930 . S
C4326 H4312 0.930 . S
C4326 C4324 1.395 . S
C4326 C4329 1.403 . S
C4327 C4324 1.403 . S
C4327 C4328 1.524 . S
C4327 C4331 1.400 . S
C4328 H4313 0.960 . S
C4328 H4314 0.960 . S
C4328 H4315 0.960 . S
C4328 C4327 1.524 . S
C4329 C4326 1.403 . S
C4329 C4330 1.392 . S
C4329 C4333 1.495 . S
C4330 C4329 1.392 . S
C4330 C4331 1.385 . S
C4330 C4332 1.478 . S
C4331 H4325 0.930 . S
C4331 C4327 1.400 . S
C4331 C4330 1.385 . S
C4332 C4330 1.478 . S
C4332 C4334 1.381 . S
C4332 C4338 1.383 . S
C4333 C4329 1.495 . S
C4333 H4339 0.959 . S
C4333 H4340 0.961 . S
C4333 H4341 0.960 . S
C4334 C4332 1.381 . S
C4334 C4335 1.394 . S
C4334 H4342 0.930 . S
C4335 C4334 1.394 . S
C4335 C4336 1.383 . S
C4335 H4343 0.929 . S
C4336 C4335 1.383 . S
C4336 C4337 1.377 . S
C4337 H4321 0.930 . S
C4337 C4336 1.377 . S
C4337 C4338 1.379 . S
C4338 H4322 0.931 . S
C4338 C4332 1.383 . S
C4338 C4337 1.379 . S
H4339 C4333 0.959 . S
H4340 C4333 0.961 . S
H4341 C4333 0.960 . S
H4342 C4334 0.930 . S
H4343 C4335 0.929 . S
H4344 C4352 0.929 . S
H4345 C4354 0.930 . S
H4346 C4356 0.930 . S
H4347 C4359 0.929 . S
H4348 C4362 0.930 . S
H4349 C4364 0.960 . S
H4350 C4364 0.960 . S
H4351 C4364 0.960 . S
C4352 H4344 0.929 . S
C4352 C4353 1.377 . S
C4352 C4354 1.384 . S
C4353 C4352 1.377 . S
C4353 C4359 1.390 . S
C4354 H4345 0.930 . S
C4354 C4352 1.384 . S
C4354 C4355 1.372 . S
C4355 C4354 1.372 . S
C4355 C4356 1.400 . S
C4355 C4360 1.490 . S
C4356 H4346 0.930 . S
C4356 C4355 1.400 . S
C4356 C4359 1.386 . S
H4357 C4373 0.930 . S
H4358 C4374 0.931 . S
C4359 H4347 0.929 . S
C4359 C4353 1.390 . S
C4359 C4356 1.386 . S
C4360 C4355 1.490 . S
C4360 C4362 1.395 . S
C4360 C4363 1.403 . S
H4361 C4367 0.930 . S
C4362 H4348 0.930 . S
C4362 C4360 1.395 . S
C4362 C4365 1.403 . S
C4363 C4360 1.403 . S
C4363 C4364 1.524 . S
C4363 C4367 1.400 . S
C4364 H4349 0.960 . S
C4364 H4350 0.960 . S
C4364 H4351 0.960 . S
C4364 C4363 1.524 . S
C4365 C4362 1.403 . S
C4365 C4366 1.392 . S
C4365 C4369 1.495 . S
C4366 C4365 1.392 . S
C4366 C4367 1.385 . S
C4366 C4368 1.478 . S
C4367 H4361 0.930 . S
C4367 C4363 1.400 . S
C4367 C4366 1.385 . S
C4368 C4366 1.478 . S
C4368 C4370 1.381 . S
C4368 C4374 1.383 . S
C4369 C4365 1.495 . S
C4369 H4375 0.959 . S
C4369 H4376 0.961 . S
C4369 H4377 0.960 . S
C4370 C4368 1.381 . S
C4370 C4371 1.394 . S
C4370 H4378 0.930 . S
C4371 C4370 1.394 . S
C4371 C4372 1.383 . S
C4371 H4379 0.929 . S
C4372 C4371 1.383 . S
C4372 C4373 1.377 . S
C4373 H4357 0.930 . S
C4373 C4372 1.377 . S
C4373 C4374 1.379 . S
C4374 H4358 0.931 . S
C4374 C4368 1.383 . S
C4374 C4373 1.379 . S
H4375 C4369 0.959 . S
H4376 C4369 0.961 . S
H4377 C4369 0.960 . S
H4378 C4370 0.930 . S
H4379 C4371 0.929 . S
H4380 C4388 0.929 . S
H4381 C4390 0.930 . S
H4382 C4392 0.930 . S
H4383 C4395 0.929 . S
H4384 C4398 0.930 . S
H4385 C4400 0.960 . S
H4386 C4400 0.960 . S
H4387 C4400 0.960 . S
C4388 H4380 0.929 . S
C4388 C4389 1.377 . S
C4388 C4390 1.384 . S
C4389 C4388 1.377 . S
C4389 C4395 1.390 . S
C4390 H4381 0.930 . S
C4390 C4388 1.384 . S
C4390 C4391 1.372 . S
C4391 C4390 1.372 . S
C4391 C4392 1.400 . S
C4391 C4396 1.490 . S
C4392 H4382 0.930 . S
C4392 C4391 1.400 . S
C4392 C4395 1.386 . S
H4393 C4409 0.930 . S
H4394 C4410 0.931 . S
C4395 H4383 0.929 . S
C4395 C4389 1.390 . S
C4395 C4392 1.386 . S
C4396 C4391 1.490 . S
C4396 C4398 1.395 . S
C4396 C4399 1.403 . S
H4397 C4403 0.930 . S
C4398 H4384 0.930 . S
C4398 C4396 1.395 . S
C4398 C4401 1.403 . S
C4399 C4396 1.403 . S
C4399 C4400 1.524 . S
C4399 C4403 1.400 . S
C4400 H4385 0.960 . S
C4400 H4386 0.960 . S
C4400 H4387 0.960 . S
C4400 C4399 1.524 . S
C4401 C4398 1.403 . S
C4401 C4402 1.392 . S
C4401 C4405 1.495 . S
C4402 C4401 1.392 . S
C4402 C4403 1.385 . S
C4402 C4404 1.478 . S
C4403 H4397 0.930 . S
C4403 C4399 1.400 . S
C4403 C4402 1.385 . S
C4404 C4402 1.478 . S
C4404 C4406 1.381 . S
C4404 C4410 1.383 . S
C4405 C4401 1.495 . S
C4405 H4411 0.959 . S
C4405 H4412 0.961 . S
C4405 H4413 0.960 . S
C4406 C4404 1.381 . S
C4406 C4407 1.394 . S
C4406 H4414 0.930 . S
C4407 C4406 1.394 . S
C4407 C4408 1.383 . S
C4407 H4415 0.929 . S
C4408 C4407 1.383 . S
C4408 C4409 1.377 . S
C4409 H4393 0.930 . S
C4409 C4408 1.377 . S
C4409 C4410 1.379 . S
C4410 H4394 0.931 . S
C4410 C4404 1.383 . S
C4410 C4409 1.379 . S
H4411 C4405 0.959 . S
H4412 C4405 0.961 . S
H4413 C4405 0.960 . S
H4414 C4406 0.930 . S
H4415 C4407 0.929 . S
H4416 C4424 0.929 . S
H4417 C4426 0.930 . S
H4418 C4428 0.930 . S
H4419 C4431 0.929 . S
H4420 C4434 0.930 . S
H4421 C4436 0.960 . S
H4422 C4436 0.960 . S
H4423 C4436 0.960 . S
C4424 H4416 0.929 . S
C4424 C4425 1.377 . S
C4424 C4426 1.384 . S
C4425 C4424 1.377 . S
C4425 C4431 1.390 . S
C4426 H4417 0.930 . S
C4426 C4424 1.384 . S
C4426 C4427 1.372 . S
C4427 C4426 1.372 . S
C4427 C4428 1.400 . S
C4427 C4432 1.490 . S
C4428 H4418 0.930 . S
C4428 C4427 1.400 . S
C4428 C4431 1.386 . S
H4429 C4445 0.930 . S
H4430 C4446 0.931 . S
C4431 H4419 0.929 . S
C4431 C4425 1.390 . S
C4431 C4428 1.386 . S
C4432 C4427 1.490 . S
C4432 C4434 1.395 . S
C4432 C4435 1.403 . S
H4433 C4439 0.930 . S
C4434 H4420 0.930 . S
C4434 C4432 1.395 . S
C4434 C4437 1.403 . S
C4435 C4432 1.403 . S
C4435 C4436 1.524 . S
C4435 C4439 1.400 . S
C4436 H4421 0.960 . S
C4436 H4422 0.960 . S
C4436 H4423 0.960 . S
C4436 C4435 1.524 . S
C4437 C4434 1.403 . S
C4437 C4438 1.392 . S
C4437 C4441 1.495 . S
C4438 C4437 1.392 . S
C4438 C4439 1.385 . S
C4438 C4440 1.478 . S
C4439 H4433 0.930 . S
C4439 C4435 1.400 . S
C4439 C4438 1.385 . S
C4440 C4438 1.478 . S
C4440 C4442 1.381 . S
C4440 C4446 1.383 . S
C4441 C4437 1.495 . S
C4441 H4447 0.959 . S
C4441 H4448 0.961 . S
C4441 H4449 0.960 . S
C4442 C4440 1.381 . S
C4442 C4443 1.394 . S
C4442 H4450 0.930 . S
C4443 C4442 1.394 . S
C4443 C4444 1.383 . S
C4443 H4451 0.929 . S
C4444 C4443 1.383 . S
C4444 C4445 1.377 . S
C4445 H4429 0.930 . S
C4445 C4444 1.377 . S
C4445 C4446 1.379 . S
C4446 H4430 0.931 . S
C4446 C4440 1.383 . S
C4446 C4445 1.379 . S
H4447 C4441 0.959 . S
H4448 C4441 0.961 . S
H4449 C4441 0.960 . S
H4450 C4442 0.930 . S
H4451 C4443 0.929 . S
H4452 C4460 0.929 . S
H4453 C4462 0.930 . S
H4454 C4464 0.930 . S
H4455 C4467 0.929 . S
H4456 C4470 0.930 . S
H4457 C4472 0.960 . S
H4458 C4472 0.960 . S
H4459 C4472 0.960 . S
C4460 H4452 0.929 . S
C4460 C4461 1.377 . S
C4460 C4462 1.384 . S
C4461 C4460 1.377 . S
C4461 C4467 1.390 . S
C4462 H4453 0.930 . S
C4462 C4460 1.384 . S
C4462 C4463 1.372 . S
C4463 C4462 1.372 . S
C4463 C4464 1.400 . S
C4463 C4468 1.490 . S
C4464 H4454 0.930 . S
C4464 C4463 1.400 . S
C4464 C4467 1.386 . S
H4465 C4481 0.930 . S
H4466 C4482 0.931 . S
C4467 H4455 0.929 . S
C4467 C4461 1.390 . S
C4467 C4464 1.386 . S
C4468 C4463 1.490 . S
C4468 C4470 1.395 . S
C4468 C4471 1.403 . S
H4469 C4475 0.930 . S
C4470 H4456 0.930 . S
C4470 C4468 1.395 . S
C4470 C4473 1.403 . S
C4471 C4468 1.403 . S
C4471 C4472 1.524 . S
C4471 C4475 1.400 . S
C4472 H4457 0.960 . S
C4472 H4458 0.960 . S
C4472 H4459 0.960 . S
C4472 C4471 1.524 . S
C4473 C4470 1.403 . S
C4473 C4474 1.392 . S
C4473 C4477 1.495 . S
C4474 C4473 1.392 . S
C4474 C4475 1.385 . S
C4474 C4476 1.478 . S
C4475 H4469 0.930 . S
C4475 C4471 1.400 . S
C4475 C4474 1.385 . S
C4476 C4474 1.478 . S
C4476 C4478 1.381 . S
C4476 C4482 1.383 . S
C4477 C4473 1.495 . S
C4477 H4483 0.959 . S
C4477 H4484 0.961 . S
C4477 H4485 0.960 . S
C4478 C4476 1.381 . S
C4478 C4479 1.394 . S
C4478 H4486 0.930 . S
C4479 C4478 1.394 . S
C4479 C4480 1.383 . S
C4479 H4487 0.929 . S
C4480 C4479 1.383 . S
C4480 C4481 1.377 . S
C4481 H4465 0.930 . S
C4481 C4480 1.377 . S
C4481 C4482 1.379 . S
C4482 H4466 0.931 . S
C4482 C4476 1.383 . S
C4482 C4481 1.379 . S
H4483 C4477 0.959 . S
H4484 C4477 0.961 . S
H4485 C4477 0.960 . S
H4486 C4478 0.930 . S
H4487 C4479 0.929 . S
H4488 C4496 0.929 . S
H4489 C4498 0.930 . S
H4490 C4500 0.930 . S
H4491 C4503 0.929 . S
H4492 C4506 0.930 . S
H4493 C4508 0.960 . S
H4494 C4508 0.960 . S
H4495 C4508 0.960 . S
C4496 H4488 0.929 . S
C4496 C4497 1.377 . S
C4496 C4498 1.384 . S
C4497 C4496 1.377 . S
C4497 C4503 1.390 . S
C4498 H4489 0.930 . S
C4498 C4496 1.384 . S
C4498 C4499 1.372 . S
C4499 C4498 1.372 . S
C4499 C4500 1.400 . S
C4499 C4504 1.490 . S
C4500 H4490 0.930 . S
C4500 C4499 1.400 . S
C4500 C4503 1.386 . S
H4501 C4517 0.930 . S
H4502 C4518 0.931 . S
C4503 H4491 0.929 . S
C4503 C4497 1.390 . S
C4503 C4500 1.386 . S
C4504 C4499 1.490 . S
C4504 C4506 1.395 . S
C4504 C4507 1.403 . S
H4505 C4511 0.930 . S
C4506 H4492 0.930 . S
C4506 C4504 1.395 . S
C4506 C4509 1.403 . S
C4507 C4504 1.403 . S
C4507 C4508 1.524 . S
C4507 C4511 1.400 . S
C4508 H4493 0.960 . S
C4508 H4494 0.960 . S
C4508 H4495 0.960 . S
C4508 C4507 1.524 . S
C4509 C4506 1.403 . S
C4509 C4510 1.392 . S
C4509 C4513 1.495 . S
C4510 C4509 1.392 . S
C4510 C4511 1.385 . S
C4510 C4512 1.478 . S
C4511 H4505 0.930 . S
C4511 C4507 1.400 . S
C4511 C4510 1.385 . S
C4512 C4510 1.478 . S
C4512 C4514 1.381 . S
C4512 C4518 1.383 . S
C4513 C4509 1.495 . S
C4513 H4519 0.959 . S
C4513 H4520 0.961 . S
C4513 H4521 0.960 . S
C4514 C4512 1.381 . S
C4514 C4515 1.394 . S
C4514 H4522 0.930 . S
C4515 C4514 1.394 . S
C4515 C4516 1.383 . S
C4515 H4523 0.929 . S
C4516 C4515 1.383 . S
C4516 C4517 1.377 . S
C4517 H4501 0.930 . S
C4517 C4516 1.377 . S
C4517 C4518 1.379 . S
C4518 H4502 0.931 . S
C4518 C4512 1.383 . S
C4518 C4517 1.379 . S
H4519 C4513 0.959 . S
H4520 C4513 0.961 . S
H4521 C4513 0.960 . S
H4522 C4514 0.930 . S
H4523 C4515 0.929 . S
H4524 C4532 0.929 . S
H4525 C4534 0.930 . S
H4526 C4536 0.930 . S
H4527 C4539 0.929 . S
H4528 C4542 0.930 . S
H4529 C4544 0.960 . S
H4530 C4544 0.960 . S
H4531 C4544 0.960 . S
C4532 H4524 0.929 . S
C4532 C4533 1.377 . S
C4532 C4534 1.384 . S
C4533 C4532 1.377 . S
C4533 C4539 1.390 . S
C4534 H4525 0.930 . S
C4534 C4532 1.384 . S
C4534 C4535 1.372 . S
C4535 C4534 1.372 . S
C4535 C4536 1.400 . S
C4535 C4540 1.490 . S
C4536 H4526 0.930 . S
C4536 C4535 1.400 . S
C4536 C4539 1.386 . S
H4537 C4553 0.930 . S
H4538 C4554 0.931 . S
C4539 H4527 0.929 . S
C4539 C4533 1.390 . S
C4539 C4536 1.386 . S
C4540 C4535 1.490 . S
C4540 C4542 1.395 . S
C4540 C4543 1.403 . S
H4541 C4547 0.930 . S
C4542 H4528 0.930 . S
C4542 C4540 1.395 . S
C4542 C4545 1.403 . S
C4543 C4540 1.403 . S
C4543 C4544 1.524 . S
C4543 C4547 1.400 . S
C4544 H4529 0.960 . S
C4544 H4530 0.960 . S
C4544 H4531 0.960 . S
C4544 C4543 1.524 . S
C4545 C4542 1.403 . S
C4545 C4546 1.392 . S
C4545 C4549 1.495 . S
C4546 C4545 1.392 . S
C4546 C4547 1.385 . S
C4546 C4548 1.478 . S
C4547 H4541 0.930 . S
C4547 C4543 1.400 . S
C4547 C4546 1.385 . S
C4548 C4546 1.478 . S
C4548 C4550 1.381 . S
C4548 C4554 1.383 . S
C4549 C4545 1.495 . S
C4549 H4555 0.959 . S
C4549 H4556 0.961 . S
C4549 H4557 0.960 . S
C4550 C4548 1.381 . S
C4550 C4551 1.394 . S
C4550 H4558 0.930 . S
C4551 C4550 1.394 . S
C4551 C4552 1.383 . S
C4551 H4559 0.929 . S
C4552 C4551 1.383 . S
C4552 C4553 1.377 . S
C4553 H4537 0.930 . S
C4553 C4552 1.377 . S
C4553 C4554 1.379 . S
C4554 H4538 0.931 . S
C4554 C4548 1.383 . S
C4554 C4553 1.379 . S
H4555 C4549 0.959 . S
H4556 C4549 0.961 . S
H4557 C4549 0.960 . S
H4558 C4550 0.930 . S
H4559 C4551 0.929 . S
H4560 C4568 0.929 . S
H4561 C4570 0.930 . S
H4562 C4572 0.930 . S
H4563 C4575 0.929 . S
H4564 C4578 0.930 . S
H4565 C4580 0.960 . S
H4566 C4580 0.960 . S
H4567 C4580 0.960 . S
C4568 H4560 0.929 . S
C4568 C4569 1.377 . S
C4568 C4570 1.384 . S
C4569 C4568 1.377 . S
C4569 C4575 1.390 . S
C4570 H4561 0.930 . S
C4570 C4568 1.384 . S
C4570 C4571 1.372 . S
C4571 C4570 1.372 . S
C4571 C4572 1.400 . S
C4571 C4576 1.490 . S
C4572 H4562 0.930 . S
C4572 C4571 1.400 . S
C4572 C4575 1.386 . S
H4573 C4589 0.930 . S
H4574 C4590 0.931 . S
C4575 H4563 0.929 . S
C4575 C4569 1.390 . S
C4575 C4572 1.386 . S
C4576 C4571 1.490 . S
C4576 C4578 1.395 . S
C4576 C4579 1.403 . S
H4577 C4583 0.930 . S
C4578 H4564 0.930 . S
C4578 C4576 1.395 . S
C4578 C4581 1.403 . S
C4579 C4576 1.403 . S
C4579 C4580 1.524 . S
C4579 C4583 1.400 . S
C4580 H4565 0.960 . S
C4580 H4566 0.960 . S
C4580 H4567 0.960 . S
C4580 C4579 1.524 . S
C4581 C4578 1.403 . S
C4581 C4582 1.392 . S
C4581 C4585 1.495 . S
C4582 C4581 1.392 . S
C4582 C4583 1.385 . S
C4582 C4584 1.478 . S
C4583 H4577 0.930 . S
C4583 C4579 1.400 . S
C4583 C4582 1.385 . S
C4584 C4582 1.478 . S
C4584 C4586 1.381 . S
C4584 C4590 1.383 . S
C4585 C4581 1.495 . S
C4585 H4591 0.959 . S
C4585 H4592 0.961 . S
C4585 H4593 0.960 . S
C4586 C4584 1.381 . S
C4586 C4587 1.394 . S
C4586 H4594 0.930 . S
C4587 C4586 1.394 . S
C4587 C4588 1.383 . S
C4587 H4595 0.929 . S
C4588 C4587 1.383 . S
C4588 C4589 1.377 . S
C4589 H4573 0.930 . S
C4589 C4588 1.377 . S
C4589 C4590 1.379 . S
C4590 H4574 0.931 . S
C4590 C4584 1.383 . S
C4590 C4589 1.379 . S
H4591 C4585 0.959 . S
H4592 C4585 0.961 . S
H4593 C4585 0.960 . S
H4594 C4586 0.930 . S
H4595 C4587 0.929 . S
H4596 C4604 0.929 . S
H4597 C4606 0.930 . S
H4598 C4608 0.930 . S
H4599 C4611 0.929 . S
H4600 C4614 0.930 . S
H4601 C4616 0.960 . S
H4602 C4616 0.960 . S
H4603 C4616 0.960 . S
C4604 H4596 0.929 . S
C4604 C4605 1.377 . S
C4604 C4606 1.384 . S
C4605 C4604 1.377 . S
C4605 C4611 1.390 . S
C4606 H4597 0.930 . S
C4606 C4604 1.384 . S
C4606 C4607 1.372 . S
C4607 C4606 1.372 . S
C4607 C4608 1.400 . S
C4607 C4612 1.490 . S
C4608 H4598 0.930 . S
C4608 C4607 1.400 . S
C4608 C4611 1.386 . S
H4609 C4625 0.930 . S
H4610 C4626 0.931 . S
C4611 H4599 0.929 . S
C4611 C4605 1.390 . S
C4611 C4608 1.386 . S
C4612 C4607 1.490 . S
C4612 C4614 1.395 . S
C4612 C4615 1.403 . S
H4613 C4619 0.930 . S
C4614 H4600 0.930 . S
C4614 C4612 1.395 . S
C4614 C4617 1.403 . S
C4615 C4612 1.403 . S
C4615 C4616 1.524 . S
C4615 C4619 1.400 . S
C4616 H4601 0.960 . S
C4616 H4602 0.960 . S
C4616 H4603 0.960 . S
C4616 C4615 1.524 . S
C4617 C4614 1.403 . S
C4617 C4618 1.392 . S
C4617 C4621 1.495 . S
C4618 C4617 1.392 . S
C4618 C4619 1.385 . S
C4618 C4620 1.478 . S
C4619 H4613 0.930 . S
C4619 C4615 1.400 . S
C4619 C4618 1.385 . S
C4620 C4618 1.478 . S
C4620 C4622 1.381 . S
C4620 C4626 1.383 . S
C4621 C4617 1.495 . S
C4621 H4627 0.959 . S
C4621 H4628 0.961 . S
C4621 H4629 0.960 . S
C4622 C4620 1.381 . S
C4622 C4623 1.394 . S
C4622 H4630 0.930 . S
C4623 C4622 1.394 . S
C4623 C4624 1.383 . S
C4623 H4631 0.929 . S
C4624 C4623 1.383 . S
C4624 C4625 1.377 . S
C4625 H4609 0.930 . S
C4625 C4624 1.377 . S
C4625 C4626 1.379 . S
C4626 H4610 0.931 . S
C4626 C4620 1.383 . S
C4626 C4625 1.379 . S
H4627 C4621 0.959 . S
H4628 C4621 0.961 . S
H4629 C4621 0.960 . S
H4630 C4622 0.930 . S
H4631 C4623 0.929 . S
H4632 C4640 0.929 . S
H4633 C4642 0.930 . S
H4634 C4644 0.930 . S
H4635 C4647 0.929 . S
H4636 C4650 0.930 . S
H4637 C4652 0.968 . S
H4638 C4652 0.960 . S
H4639 C4652 0.957 1_655 S
C4640 H4632 0.929 . S
C4640 C4641 1.377 . S
C4640 C4642 1.384 . S
C4641 C4640 1.377 . S
C4641 C4647 1.390 . S
C4642 H4633 0.930 . S
C4642 C4640 1.384 . S
C4642 C4643 1.372 . S
C4643 C4642 1.372 . S
C4643 C4644 1.400 . S
C4643 C4648 1.490 . S
C4644 H4634 0.930 . S
C4644 C4643 1.400 . S
C4644 C4647 1.386 . S
H4645 C4661 0.930 . S
H4646 C4662 0.931 . S
C4647 H4635 0.929 . S
C4647 C4641 1.390 . S
C4647 C4644 1.386 . S
C4648 C4643 1.490 . S
C4648 C4650 1.395 . S
C4648 C4651 1.403 . S
H4649 C4655 0.930 . S
C4650 H4636 0.930 . S
C4650 C4648 1.395 . S
C4650 C4653 1.403 . S
C4651 C4648 1.403 . S
C4651 C4652 1.519 1_655 S
C4651 C4655 1.400 1_655 S
C4652 H4637 0.968 . S
C4652 H4638 0.960 . S
C4652 H4639 0.957 1_455 S
C4652 C4651 1.519 1_455 S
C4653 C4650 1.403 . S
C4653 C4654 1.392 . S
C4653 C4657 1.495 . S
C4654 C4653 1.392 . S
C4654 C4655 1.385 1_655 S
C4654 C4656 1.478 1_655 S
C4655 H4649 0.930 . S
C4655 C4651 1.400 1_455 S
C4655 C4654 1.385 1_455 S
C4656 C4654 1.478 1_455 S
C4656 C4658 1.381 . S
C4656 C4662 1.383 . S
C4657 C4653 1.495 . S
C4657 H4663 0.959 . S
C4657 H4664 0.961 . S
C4657 H4665 0.960 . S
C4658 C4656 1.381 . S
C4658 C4659 1.394 . S
C4658 H4666 0.930 . S
C4659 C4658 1.394 . S
C4659 C4660 1.383 . S
C4659 H4667 0.935 . S
C4660 C4659 1.383 . S
C4660 C4661 1.377 . S
C4661 H4645 0.930 . S
C4661 C4660 1.377 . S
C4661 C4662 1.379 . S
C4662 H4646 0.931 . S
C4662 C4656 1.383 . S
C4662 C4661 1.379 . S
H4663 C4657 0.959 . S
H4664 C4657 0.961 . S
H4665 C4657 0.960 . S
H4666 C4658 0.930 . S
H4667 C4659 0.935 . S
H4668 C4676 0.929 . S
H4669 C4678 0.930 . S
H4670 C4680 0.930 . S
H4671 C4683 0.929 . S
H4672 C4686 0.930 . S
H4673 C4688 0.960 . S
H4674 C4688 0.960 . S
H4675 C4688 0.960 . S
C4676 H4668 0.929 . S
C4676 C4677 1.377 . S
C4676 C4678 1.384 . S
C4677 C4676 1.377 . S
C4677 C4683 1.390 . S
C4678 H4669 0.930 . S
C4678 C4676 1.384 . S
C4678 C4679 1.372 . S
C4679 C4678 1.372 . S
C4679 C4680 1.400 . S
C4679 C4684 1.490 . S
C4680 H4670 0.930 . S
C4680 C4679 1.400 . S
C4680 C4683 1.386 . S
H4681 C4697 0.930 . S
H4682 C4698 0.931 . S
C4683 H4671 0.929 . S
C4683 C4677 1.390 . S
C4683 C4680 1.386 . S
C4684 C4679 1.490 . S
C4684 C4686 1.395 . S
C4684 C4687 1.403 . S
H4685 C4691 0.930 . S
C4686 H4672 0.930 . S
C4686 C4684 1.395 . S
C4686 C4689 1.403 . S
C4687 C4684 1.403 . S
C4687 C4688 1.524 . S
C4687 C4691 1.400 . S
C4688 H4673 0.960 . S
C4688 H4674 0.960 . S
C4688 H4675 0.960 . S
C4688 C4687 1.524 . S
C4689 C4686 1.403 . S
C4689 C4690 1.392 . S
C4689 C4693 1.495 . S
C4690 C4689 1.392 . S
C4690 C4691 1.385 . S
C4690 C4692 1.478 . S
C4691 H4685 0.930 . S
C4691 C4687 1.400 . S
C4691 C4690 1.385 . S
C4692 C4690 1.478 . S
C4692 C4694 1.381 . S
C4692 C4698 1.383 . S
C4693 C4689 1.495 . S
C4693 H4699 0.959 . S
C4693 H4700 0.961 . S
C4693 H4701 0.960 . S
C4694 C4692 1.381 . S
C4694 C4695 1.394 . S
C4694 H4702 0.930 . S
C4695 C4694 1.394 . S
C4695 C4696 1.383 . S
C4695 H4703 0.929 . S
C4696 C4695 1.383 . S
C4696 C4697 1.377 . S
C4697 H4681 0.930 . S
C4697 C4696 1.377 . S
C4697 C4698 1.379 . S
C4698 H4682 0.931 . S
C4698 C4692 1.383 . S
C4698 C4697 1.379 . S
H4699 C4693 0.959 . S
H4700 C4693 0.961 . S
H4701 C4693 0.960 . S
H4702 C4694 0.930 . S
H4703 C4695 0.929 . S
H4704 C4712 0.929 . S
H4705 C4714 0.930 . S
H4706 C4716 0.930 . S
H4707 C4719 0.929 . S
H4708 C4722 0.930 . S
H4709 C4724 0.960 . S
H4710 C4724 0.960 . S
H4711 C4724 0.960 . S
C4712 H4704 0.929 . S
C4712 C4713 1.377 . S
C4712 C4714 1.384 . S
C4713 C4712 1.377 . S
C4713 C4719 1.390 . S
C4714 H4705 0.930 . S
C4714 C4712 1.384 . S
C4714 C4715 1.372 . S
C4715 C4714 1.372 . S
C4715 C4716 1.400 . S
C4715 C4720 1.490 . S
C4716 H4706 0.930 . S
C4716 C4715 1.400 . S
C4716 C4719 1.386 . S
H4717 C4733 0.930 . S
H4718 C4734 0.931 . S
C4719 H4707 0.929 . S
C4719 C4713 1.390 . S
C4719 C4716 1.386 . S
C4720 C4715 1.490 . S
C4720 C4722 1.395 . S
C4720 C4723 1.403 . S
H4721 C4727 0.930 . S
C4722 H4708 0.930 . S
C4722 C4720 1.395 . S
C4722 C4725 1.403 . S
C4723 C4720 1.403 . S
C4723 C4724 1.524 . S
C4723 C4727 1.400 . S
C4724 H4709 0.960 . S
C4724 H4710 0.960 . S
C4724 H4711 0.960 . S
C4724 C4723 1.524 . S
C4725 C4722 1.403 . S
C4725 C4726 1.392 . S
C4725 C4729 1.495 . S
C4726 C4725 1.392 . S
C4726 C4727 1.385 . S
C4726 C4728 1.478 . S
C4727 H4721 0.930 . S
C4727 C4723 1.400 . S
C4727 C4726 1.385 . S
C4728 C4726 1.478 . S
C4728 C4730 1.381 . S
C4728 C4734 1.383 . S
C4729 C4725 1.495 . S
C4729 H4735 0.959 . S
C4729 H4736 0.961 . S
C4729 H4737 0.960 . S
C4730 C4728 1.381 . S
C4730 C4731 1.394 . S
C4730 H4738 0.930 . S
C4731 C4730 1.394 . S
C4731 C4732 1.383 . S
C4731 H4739 0.929 . S
C4732 C4731 1.383 . S
C4732 C4733 1.377 . S
C4733 H4717 0.930 . S
C4733 C4732 1.377 . S
C4733 C4734 1.379 . S
C4734 H4718 0.931 . S
C4734 C4728 1.383 . S
C4734 C4733 1.379 . S
H4735 C4729 0.959 . S
H4736 C4729 0.961 . S
H4737 C4729 0.960 . S
H4738 C4730 0.930 . S
H4739 C4731 0.929 . S
H4740 C4748 0.929 . S
H4741 C4750 0.930 . S
H4742 C4752 0.930 . S
H4743 C4755 0.929 . S
H4744 C4758 0.930 . S
H4745 C4760 0.960 . S
H4746 C4760 0.960 . S
H4747 C4760 0.960 . S
C4748 H4740 0.929 . S
C4748 C4749 1.377 . S
C4748 C4750 1.384 . S
C4749 C4748 1.377 . S
C4749 C4755 1.390 . S
C4750 H4741 0.930 . S
C4750 C4748 1.384 . S
C4750 C4751 1.372 . S
C4751 C4750 1.372 . S
C4751 C4752 1.400 . S
C4751 C4756 1.490 . S
C4752 H4742 0.930 . S
C4752 C4751 1.400 . S
C4752 C4755 1.386 . S
H4753 C4769 0.930 . S
H4754 C4770 0.931 . S
C4755 H4743 0.929 . S
C4755 C4749 1.390 . S
C4755 C4752 1.386 . S
C4756 C4751 1.490 . S
C4756 C4758 1.395 . S
C4756 C4759 1.403 . S
H4757 C4763 0.930 . S
C4758 H4744 0.930 . S
C4758 C4756 1.395 . S
C4758 C4761 1.403 . S
C4759 C4756 1.403 . S
C4759 C4760 1.524 . S
C4759 C4763 1.400 . S
C4760 H4745 0.960 . S
C4760 H4746 0.960 . S
C4760 H4747 0.960 . S
C4760 C4759 1.524 . S
C4761 C4758 1.403 . S
C4761 C4762 1.392 . S
C4761 C4765 1.495 . S
C4762 C4761 1.392 . S
C4762 C4763 1.385 . S
C4762 C4764 1.478 . S
C4763 H4757 0.930 . S
C4763 C4759 1.400 . S
C4763 C4762 1.385 . S
C4764 C4762 1.478 . S
C4764 C4766 1.381 . S
C4764 C4770 1.383 . S
C4765 C4761 1.495 . S
C4765 H4771 0.959 . S
C4765 H4772 0.961 . S
C4765 H4773 0.960 . S
C4766 C4764 1.381 . S
C4766 C4767 1.394 . S
C4766 H4774 0.930 . S
C4767 C4766 1.394 . S
C4767 C4768 1.383 . S
C4767 H4775 0.929 . S
C4768 C4767 1.383 . S
C4768 C4769 1.377 . S
C4769 H4753 0.930 . S
C4769 C4768 1.377 . S
C4769 C4770 1.379 . S
C4770 H4754 0.931 . S
C4770 C4764 1.383 . S
C4770 C4769 1.379 . S
H4771 C4765 0.959 . S
H4772 C4765 0.961 . S
H4773 C4765 0.960 . S
H4774 C4766 0.930 . S
H4775 C4767 0.929 . S
H4776 C4784 0.929 . S
H4777 C4786 0.930 . S
H4778 C4788 0.930 . S
H4779 C4791 0.929 . S
H4780 C4794 0.930 . S
H4781 C4796 0.960 . S
H4782 C4796 0.960 . S
H4783 C4796 0.960 . S
C4784 H4776 0.929 . S
C4784 C4785 1.377 . S
C4784 C4786 1.384 . S
C4785 C4784 1.377 . S
C4785 C4791 1.390 . S
C4786 H4777 0.930 . S
C4786 C4784 1.384 . S
C4786 C4787 1.372 . S
C4787 C4786 1.372 . S
C4787 C4788 1.400 . S
C4787 C4792 1.490 . S
C4788 H4778 0.930 . S
C4788 C4787 1.400 . S
C4788 C4791 1.386 . S
H4789 C4805 0.930 . S
H4790 C4806 0.931 . S
C4791 H4779 0.929 . S
C4791 C4785 1.390 . S
C4791 C4788 1.386 . S
C4792 C4787 1.490 . S
C4792 C4794 1.395 . S
C4792 C4795 1.403 . S
H4793 C4799 0.930 . S
C4794 H4780 0.930 . S
C4794 C4792 1.395 . S
C4794 C4797 1.403 . S
C4795 C4792 1.403 . S
C4795 C4796 1.524 . S
C4795 C4799 1.400 . S
C4796 H4781 0.960 . S
C4796 H4782 0.960 . S
C4796 H4783 0.960 . S
C4796 C4795 1.524 . S
C4797 C4794 1.403 . S
C4797 C4798 1.392 . S
C4797 C4801 1.495 . S
C4798 C4797 1.392 . S
C4798 C4799 1.385 . S
C4798 C4800 1.478 . S
C4799 H4793 0.930 . S
C4799 C4795 1.400 . S
C4799 C4798 1.385 . S
C4800 C4798 1.478 . S
C4800 C4802 1.381 1_655 S
C4800 C4806 1.383 . S
C4801 C4797 1.495 . S
C4801 H4807 0.959 . S
C4801 H4808 0.961 . S
C4801 H4809 0.960 1_655 S
C4802 C4800 1.381 1_455 S
C4802 C4803 1.394 . S
C4802 H4810 0.930 . S
C4803 C4802 1.394 . S
C4803 C4804 1.383 . S
C4803 H4811 0.929 . S
C4804 C4803 1.383 . S
C4804 C4805 1.377 1_455 S
C4805 H4789 0.930 . S
C4805 C4804 1.377 1_655 S
C4805 C4806 1.379 . S
C4806 H4790 0.931 . S
C4806 C4800 1.383 . S
C4806 C4805 1.379 . S
H4807 C4801 0.959 . S
H4808 C4801 0.961 . S
H4809 C4801 0.960 1_455 S
H4810 C4802 0.930 . S
H4811 C4803 0.929 . S
H4812 C4820 0.929 . S
H4813 C4822 0.930 . S
H4814 C4824 0.930 . S
H4815 C4827 0.929 . S
H4816 C4830 0.930 . S
H4817 C4832 0.960 . S
H4818 C4832 0.960 . S
H4819 C4832 0.960 . S
C4820 H4812 0.929 . S
C4820 C4821 1.377 . S
C4820 C4822 1.384 . S
C4821 C4820 1.377 . S
C4821 C4827 1.390 . S
C4822 H4813 0.930 . S
C4822 C4820 1.384 . S
C4822 C4823 1.372 . S
C4823 C4822 1.372 . S
C4823 C4824 1.400 . S
C4823 C4828 1.490 . S
C4824 H4814 0.930 . S
C4824 C4823 1.400 . S
C4824 C4827 1.386 . S
H4825 C4841 0.930 . S
H4826 C4842 0.931 . S
C4827 H4815 0.929 . S
C4827 C4821 1.390 . S
C4827 C4824 1.386 . S
C4828 C4823 1.490 . S
C4828 C4830 1.395 . S
C4828 C4831 1.403 . S
H4829 C4835 0.930 . S
C4830 H4816 0.930 . S
C4830 C4828 1.395 . S
C4830 C4833 1.403 . S
C4831 C4828 1.403 . S
C4831 C4832 1.524 . S
C4831 C4835 1.400 . S
C4832 H4817 0.960 . S
C4832 H4818 0.960 . S
C4832 H4819 0.960 . S
C4832 C4831 1.524 . S
C4833 C4830 1.403 . S
C4833 C4834 1.392 . S
C4833 C4837 1.495 . S
C4834 C4833 1.392 . S
C4834 C4835 1.385 . S
C4834 C4836 1.478 . S
C4835 H4829 0.930 . S
C4835 C4831 1.400 . S
C4835 C4834 1.385 . S
C4836 C4834 1.478 . S
C4836 C4838 1.381 . S
C4836 C4842 1.383 . S
C4837 C4833 1.495 . S
C4837 H4843 0.959 . S
C4837 H4844 0.961 . S
C4837 H4845 0.960 . S
C4838 C4836 1.381 . S
C4838 C4839 1.394 . S
C4838 H4846 0.930 . S
C4839 C4838 1.394 . S
C4839 C4840 1.383 . S
C4839 H4847 0.929 . S
C4840 C4839 1.383 . S
C4840 C4841 1.377 . S
C4841 H4825 0.930 . S
C4841 C4840 1.377 . S
C4841 C4842 1.379 . S
C4842 H4826 0.931 . S
C4842 C4836 1.383 . S
C4842 C4841 1.379 . S
H4843 C4837 0.959 . S
H4844 C4837 0.961 . S
H4845 C4837 0.960 . S
H4846 C4838 0.930 . S
H4847 C4839 0.929 . S
H4848 C4856 0.929 . S
H4849 C4858 0.930 . S
H4850 C4860 0.930 . S
H4851 C4863 0.929 . S
H4852 C4866 0.930 . S
H4853 C4868 0.960 . S
H4854 C4868 0.960 . S
H4855 C4868 0.960 . S
C4856 H4848 0.929 . S
C4856 C4857 1.377 . S
C4856 C4858 1.384 . S
C4857 C4856 1.377 . S
C4857 C4863 1.390 . S
C4858 H4849 0.930 . S
C4858 C4856 1.384 . S
C4858 C4859 1.372 . S
C4859 C4858 1.372 . S
C4859 C4860 1.400 . S
C4859 C4864 1.490 . S
C4860 H4850 0.930 . S
C4860 C4859 1.400 . S
C4860 C4863 1.386 . S
H4861 C4877 0.930 . S
H4862 C4878 0.931 . S
C4863 H4851 0.929 . S
C4863 C4857 1.390 . S
C4863 C4860 1.386 . S
C4864 C4859 1.490 . S
C4864 C4866 1.395 . S
C4864 C4867 1.403 . S
H4865 C4871 0.930 . S
C4866 H4852 0.930 . S
C4866 C4864 1.395 . S
C4866 C4869 1.403 . S
C4867 C4864 1.403 . S
C4867 C4868 1.524 . S
C4867 C4871 1.400 . S
C4868 H4853 0.960 . S
C4868 H4854 0.960 . S
C4868 H4855 0.960 . S
C4868 C4867 1.524 . S
C4869 C4866 1.403 . S
C4869 C4870 1.392 . S
C4869 C4873 1.495 . S
C4870 C4869 1.392 . S
C4870 C4871 1.385 . S
C4870 C4872 1.478 . S
C4871 H4865 0.930 . S
C4871 C4867 1.400 . S
C4871 C4870 1.385 . S
C4872 C4870 1.478 . S
C4872 C4874 1.381 . S
C4872 C4878 1.383 . S
C4873 C4869 1.495 . S
C4873 H4879 0.959 . S
C4873 H4880 0.961 . S
C4873 H4881 0.960 . S
C4874 C4872 1.381 . S
C4874 C4875 1.394 . S
C4874 H4882 0.930 . S
C4875 C4874 1.394 . S
C4875 C4876 1.383 . S
C4875 H4883 0.929 . S
C4876 C4875 1.383 . S
C4876 C4877 1.377 . S
C4877 H4861 0.930 . S
C4877 C4876 1.377 . S
C4877 C4878 1.379 . S
C4878 H4862 0.931 . S
C4878 C4872 1.383 . S
C4878 C4877 1.379 . S
H4879 C4873 0.959 . S
H4880 C4873 0.961 . S
H4881 C4873 0.960 . S
H4882 C4874 0.930 . S
H4883 C4875 0.929 . S
H4884 C4892 0.929 . S
H4885 C4894 0.930 . S
H4886 C4896 0.930 . S
H4887 C4899 0.929 . S
H4888 C4902 0.930 . S
H4889 C4904 0.960 . S
H4890 C4904 0.960 . S
H4891 C4904 0.960 . S
C4892 H4884 0.929 . S
C4892 C4893 1.377 . S
C4892 C4894 1.384 . S
C4893 C4892 1.377 . S
C4893 C4899 1.390 . S
C4894 H4885 0.930 . S
C4894 C4892 1.384 . S
C4894 C4895 1.372 . S
C4895 C4894 1.372 . S
C4895 C4896 1.400 . S
C4895 C4900 1.490 . S
C4896 H4886 0.930 . S
C4896 C4895 1.400 . S
C4896 C4899 1.386 . S
H4897 C4913 0.930 . S
H4898 C4914 0.942 . S
C4899 H4887 0.929 . S
C4899 C4893 1.390 . S
C4899 C4896 1.386 . S
C4900 C4895 1.490 . S
C4900 C4902 1.395 . S
C4900 C4903 1.403 . S
H4901 C4907 0.930 . S
C4902 H4888 0.930 . S
C4902 C4900 1.395 . S
C4902 C4905 1.403 . S
C4903 C4900 1.403 . S
C4903 C4904 1.524 . S
C4903 C4907 1.400 . S
C4904 H4889 0.960 . S
C4904 H4890 0.960 . S
C4904 H4891 0.960 . S
C4904 C4903 1.524 . S
C4905 C4902 1.403 . S
C4905 C4906 1.392 . S
C4905 C4909 1.495 . S
C4906 C4905 1.392 . S
C4906 C4907 1.385 . S
C4906 C4908 1.478 . S
C4907 H4901 0.930 . S
C4907 C4903 1.400 . S
C4907 C4906 1.385 . S
C4908 C4906 1.478 . S
C4908 C4910 1.381 . S
C4908 C4914 1.383 . S
C4909 C4905 1.495 . S
C4909 H4915 0.959 . S
C4909 H4916 0.961 . S
C4909 H4917 0.960 . S
C4910 C4908 1.381 . S
C4910 C4911 1.394 . S
C4910 H4918 0.930 . S
C4911 C4910 1.394 . S
C4911 C4912 1.379 1_565 S
C4911 H4919 0.929 1_655 S
C4912 C4911 1.379 1_545 S
C4912 C4913 1.413 . S
C4913 H4897 0.930 . S
C4913 C4912 1.413 . S
C4913 C4914 1.379 1_545 S
C4914 H4898 0.942 . S
C4914 C4908 1.383 . S
C4914 C4913 1.379 1_565 S
H4915 C4909 0.959 . S
H4916 C4909 0.961 . S
H4917 C4909 0.960 . S
H4918 C4910 0.930 . S
H4919 C4911 0.929 1_455 S
H4920 C4928 0.929 . S
H4921 C4930 0.930 . S
H4922 C4932 0.930 . S
H4923 C4935 0.929 . S
H4924 C4938 0.930 . S
H4925 C4940 0.960 . S
H4926 C4940 0.960 . S
H4927 C4940 0.960 . S
C4928 H4920 0.929 . S
C4928 C4929 1.377 . S
C4928 C4930 1.384 . S
C4929 C4928 1.377 . S
C4929 C4935 1.390 . S
C4930 H4921 0.930 . S
C4930 C4928 1.384 . S
C4930 C4931 1.372 . S
C4931 C4930 1.372 . S
C4931 C4932 1.400 . S
C4931 C4936 1.490 . S
C4932 H4922 0.930 . S
C4932 C4931 1.400 . S
C4932 C4935 1.386 . S
H4933 C4949 0.930 . S
H4934 C4950 0.931 . S
C4935 H4923 0.929 . S
C4935 C4929 1.390 . S
C4935 C4932 1.386 . S
C4936 C4931 1.490 . S
C4936 C4938 1.395 . S
C4936 C4939 1.403 . S
H4937 C4943 0.930 . S
C4938 H4924 0.930 . S
C4938 C4936 1.395 . S
C4938 C4941 1.403 . S
C4939 C4936 1.403 . S
C4939 C4940 1.524 . S
C4939 C4943 1.400 . S
C4940 H4925 0.960 . S
C4940 H4926 0.960 . S
C4940 H4927 0.960 . S
C4940 C4939 1.524 . S
C4941 C4938 1.403 . S
C4941 C4942 1.392 . S
C4941 C4945 1.495 . S
C4942 C4941 1.392 . S
C4942 C4943 1.385 . S
C4942 C4944 1.478 . S
C4943 H4937 0.930 . S
C4943 C4939 1.400 . S
C4943 C4942 1.385 . S
C4944 C4942 1.478 . S
C4944 C4946 1.381 . S
C4944 C4950 1.383 . S
C4945 C4941 1.495 . S
C4945 H4951 0.959 . S
C4945 H4952 0.961 . S
C4945 H4953 0.960 . S
C4946 C4944 1.381 . S
C4946 C4947 1.394 . S
C4946 H4954 0.930 . S
C4947 C4946 1.394 . S
C4947 C4948 1.383 . S
C4947 H4955 0.929 . S
C4948 C4947 1.383 . S
C4948 C4949 1.377 . S
C4949 H4933 0.930 . S
C4949 C4948 1.377 . S
C4949 C4950 1.379 . S
C4950 H4934 0.931 . S
C4950 C4944 1.383 . S
C4950 C4949 1.379 . S
H4951 C4945 0.959 . S
H4952 C4945 0.961 . S
H4953 C4945 0.960 . S
H4954 C4946 0.930 . S
H4955 C4947 0.929 . S
H4956 C4964 0.929 . S
H4957 C4966 0.930 . S
H4958 C4968 0.930 . S
H4959 C4971 0.929 . S
H4960 C4974 0.930 . S
H4961 C4976 0.960 . S
H4962 C4976 0.960 1_556 S
H4963 C4976 0.960 . S
C4964 H4956 0.929 . S
C4964 C4965 1.377 . S
C4964 C4966 1.384 . S
C4965 C4964 1.377 . S
C4965 C4971 1.390 . S
C4966 H4957 0.930 . S
C4966 C4964 1.384 . S
C4966 C4967 1.372 . S
C4967 C4966 1.372 . S
C4967 C4968 1.400 . S
C4967 C4972 1.490 . S
C4968 H4958 0.930 . S
C4968 C4967 1.400 . S
C4968 C4971 1.386 . S
H4969 C4985 0.930 . S
H4970 C4986 0.931 . S
C4971 H4959 0.929 . S
C4971 C4965 1.390 . S
C4971 C4968 1.386 . S
C4972 C4967 1.490 . S
C4972 C4974 1.395 . S
C4972 C4975 1.403 . S
H4973 C4979 0.930 . S
C4974 H4960 0.930 . S
C4974 C4972 1.395 . S
C4974 C4977 1.403 . S
C4975 C4972 1.403 . S
C4975 C4976 1.524 . S
C4975 C4979 1.400 . S
C4976 H4961 0.960 . S
C4976 H4962 0.960 1_554 S
C4976 H4963 0.960 . S
C4976 C4975 1.524 . S
C4977 C4974 1.403 . S
C4977 C4978 1.392 . S
C4977 C4981 1.495 . S
C4978 C4977 1.392 . S
C4978 C4979 1.385 . S
C4978 C4980 1.478 . S
C4979 H4973 0.930 . S
C4979 C4975 1.400 . S
C4979 C4978 1.385 . S
C4980 C4978 1.478 . S
C4980 C4982 1.381 . S
C4980 C4986 1.383 . S
C4981 C4977 1.495 . S
C4981 H4987 0.959 . S
C4981 H4988 0.961 . S
C4981 H4989 0.960 . S
C4982 C4980 1.381 . S
C4982 C4983 1.394 . S
C4982 H4990 0.930 . S
C4983 C4982 1.394 . S
C4983 C4984 1.383 . S
C4983 H4991 0.929 . S
C4984 C4983 1.383 . S
C4984 C4985 1.377 . S
C4985 H4969 0.930 . S
C4985 C4984 1.377 . S
C4985 C4986 1.379 . S
C4986 H4970 0.931 . S
C4986 C4980 1.383 . S
C4986 C4985 1.379 . S
H4987 C4981 0.959 . S
H4988 C4981 0.961 . S
H4989 C4981 0.960 . S
H4990 C4982 0.930 . S
H4991 C4983 0.929 . S
H4992 C5000 0.929 . S
H4993 C5002 0.930 . S
H4994 C5004 0.930 . S
H4995 C5007 0.929 . S
H4996 C5010 0.930 . S
H4997 C5012 0.960 . S
H4998 C5012 0.960 . S
H4999 C5012 0.960 . S
C5000 H4992 0.929 . S
C5000 C5001 1.377 . S
C5000 C5002 1.384 . S
C5001 C5000 1.377 . S
C5001 C5007 1.390 . S
C5002 H4993 0.930 . S
C5002 C5000 1.384 . S
C5002 C5003 1.372 . S
C5003 C5002 1.372 . S
C5003 C5004 1.400 . S
C5003 C5008 1.490 . S
C5004 H4994 0.930 . S
C5004 C5003 1.400 . S
C5004 C5007 1.386 . S
H5005 C5021 0.930 . S
H5006 C5022 0.931 . S
C5007 H4995 0.929 . S
C5007 C5001 1.390 . S
C5007 C5004 1.386 . S
C5008 C5003 1.490 . S
C5008 C5010 1.395 . S
C5008 C5011 1.403 . S
H5009 C5015 0.930 . S
C5010 H4996 0.930 . S
C5010 C5008 1.395 . S
C5010 C5013 1.403 . S
C5011 C5008 1.403 . S
C5011 C5012 1.524 . S
C5011 C5015 1.400 . S
C5012 H4997 0.960 . S
C5012 H4998 0.960 . S
C5012 H4999 0.960 . S
C5012 C5011 1.524 . S
C5013 C5010 1.403 . S
C5013 C5014 1.392 . S
C5013 C5017 1.495 . S
C5014 C5013 1.392 . S
C5014 C5015 1.385 . S
C5014 C5016 1.478 . S
C5015 H5009 0.930 . S
C5015 C5011 1.400 . S
C5015 C5014 1.385 . S
C5016 C5014 1.478 . S
C5016 C5018 1.381 . S
C5016 C5022 1.383 . S
C5017 C5013 1.495 . S
C5017 H5023 0.959 . S
C5017 H5024 0.961 . S
C5017 H5025 0.960 . S
C5018 C5016 1.381 . S
C5018 C5019 1.394 . S
C5018 H5026 0.930 . S
C5019 C5018 1.394 . S
C5019 C5020 1.383 . S
C5019 H5027 0.929 . S
C5020 C5019 1.383 . S
C5020 C5021 1.377 . S
C5021 H5005 0.930 . S
C5021 C5020 1.377 . S
C5021 C5022 1.379 . S
C5022 H5006 0.931 . S
C5022 C5016 1.383 . S
C5022 C5021 1.379 . S
H5023 C5017 0.959 . S
H5024 C5017 0.961 . S
H5025 C5017 0.960 . S
H5026 C5018 0.930 . S
H5027 C5019 0.929 . S
H5028 C5036 0.929 . S
H5029 C5038 0.930 . S
H5030 C5040 0.930 . S
H5031 C5043 0.929 . S
H5032 C5046 0.930 . S
H5033 C5048 0.960 . S
H5034 C5048 0.960 . S
H5035 C5048 0.960 . S
C5036 H5028 0.929 . S
C5036 C5037 1.377 . S
C5036 C5038 1.384 . S
C5037 C5036 1.377 . S
C5037 C5043 1.390 . S
C5038 H5029 0.930 . S
C5038 C5036 1.384 . S
C5038 C5039 1.372 . S
C5039 C5038 1.372 . S
C5039 C5040 1.400 . S
C5039 C5044 1.490 . S
C5040 H5030 0.930 . S
C5040 C5039 1.400 . S
C5040 C5043 1.386 . S
H5041 C5057 0.930 . S
H5042 C5058 0.931 . S
C5043 H5031 0.929 . S
C5043 C5037 1.390 . S
C5043 C5040 1.386 . S
C5044 C5039 1.490 . S
C5044 C5046 1.395 . S
C5044 C5047 1.403 . S
H5045 C5051 0.930 . S
C5046 H5032 0.930 . S
C5046 C5044 1.395 . S
C5046 C5049 1.403 . S
C5047 C5044 1.403 . S
C5047 C5048 1.524 . S
C5047 C5051 1.400 . S
C5048 H5033 0.960 . S
C5048 H5034 0.960 . S
C5048 H5035 0.960 . S
C5048 C5047 1.524 . S
C5049 C5046 1.403 . S
C5049 C5050 1.392 . S
C5049 C5053 1.495 1_554 S
C5050 C5049 1.392 . S
C5050 C5051 1.385 . S
C5050 C5052 1.478 . S
C5051 H5045 0.930 . S
C5051 C5047 1.400 . S
C5051 C5050 1.385 . S
C5052 C5050 1.478 . S
C5052 C5054 1.381 . S
C5052 C5058 1.383 . S
C5053 C5049 1.495 1_556 S
C5053 H5059 0.959 . S
C5053 H5060 0.961 . S
C5053 H5061 0.960 . S
C5054 C5052 1.381 . S
C5054 C5055 1.394 . S
C5054 H5062 0.930 . S
C5055 C5054 1.394 . S
C5055 C5056 1.383 . S
C5055 H5063 0.929 . S
C5056 C5055 1.383 . S
C5056 C5057 1.377 . S
C5057 H5041 0.930 . S
C5057 C5056 1.377 . S
C5057 C5058 1.379 . S
C5058 H5042 0.931 . S
C5058 C5052 1.383 . S
C5058 C5057 1.379 . S
H5059 C5053 0.959 . S
H5060 C5053 0.961 . S
H5061 C5053 0.960 . S
H5062 C5054 0.930 . S
H5063 C5055 0.929 . S
H5064 C5072 0.929 . S
H5065 C5074 0.930 . S
H5066 C5076 0.930 . S
H5067 C5079 0.929 1_545 S
H5068 C5082 0.930 . S
H5069 C5084 0.960 . S
H5070 C5084 0.960 . S
H5071 C5084 0.960 . S
C5072 H5064 0.929 . S
C5072 C5073 1.377 1_565 S
C5072 C5074 1.384 . S
C5073 C5072 1.377 1_545 S
C5073 C5079 1.390 1_545 S
C5074 H5065 0.930 . S
C5074 C5072 1.384 . S
C5074 C5075 1.372 . S
C5075 C5074 1.372 . S
C5075 C5076 1.400 . S
C5075 C5080 1.490 . S
C5076 H5066 0.930 . S
C5076 C5075 1.400 . S
C5076 C5079 1.386 . S
H5077 C5093 0.930 . S
H5078 C5094 0.931 . S
C5079 H5067 0.929 1_565 S
C5079 C5073 1.390 1_565 S
C5079 C5076 1.386 . S
C5080 C5075 1.490 . S
C5080 C5082 1.395 . S
C5080 C5083 1.403 . S
H5081 C5087 0.930 . S
C5082 H5068 0.930 . S
C5082 C5080 1.395 . S
C5082 C5085 1.403 . S
C5083 C5080 1.403 . S
C5083 C5084 1.524 . S
C5083 C5087 1.400 . S
C5084 H5069 0.960 . S
C5084 H5070 0.960 . S
C5084 H5071 0.960 . S
C5084 C5083 1.524 . S
C5085 C5082 1.403 . S
C5085 C5086 1.392 . S
C5085 C5089 1.495 . S
C5086 C5085 1.392 . S
C5086 C5087 1.385 . S
C5086 C5088 1.478 . S
C5087 H5081 0.930 . S
C5087 C5083 1.400 . S
C5087 C5086 1.385 . S
C5088 C5086 1.478 . S
C5088 C5090 1.381 . S
C5088 C5094 1.383 . S
C5089 C5085 1.495 . S
C5089 H5095 0.959 . S
C5089 H5096 0.961 . S
C5089 H5097 0.960 . S
C5090 C5088 1.381 . S
C5090 C5091 1.394 . S
C5090 H5098 0.930 . S
C5091 C5090 1.394 . S
C5091 C5092 1.383 . S
C5091 H5099 0.929 . S
C5092 C5091 1.383 . S
C5092 C5093 1.377 . S
C5093 H5077 0.930 . S
C5093 C5092 1.377 . S
C5093 C5094 1.379 . S
C5094 H5078 0.931 . S
C5094 C5088 1.383 . S
C5094 C5093 1.379 . S
H5095 C5089 0.959 . S
H5096 C5089 0.961 . S
H5097 C5089 0.960 . S
H5098 C5090 0.930 . S
H5099 C5091 0.929 . S
H5100 C5108 0.929 . S
H5101 C5110 0.930 . S
H5102 C5112 0.930 . S
H5103 C5115 0.929 . S
H5104 C5118 0.930 . S
H5105 C5120 0.960 . S
H5106 C5120 0.960 . S
H5107 C5120 0.960 . S
C5108 H5100 0.929 . S
C5108 C5109 1.377 . S
C5108 C5110 1.384 . S
C5109 C5108 1.377 . S
C5109 C5115 1.390 . S
C5110 H5101 0.930 . S
C5110 C5108 1.384 . S
C5110 C5111 1.372 . S
C5111 C5110 1.372 . S
C5111 C5112 1.400 . S
C5111 C5116 1.490 . S
C5112 H5102 0.930 . S
C5112 C5111 1.400 . S
C5112 C5115 1.386 . S
H5113 C5129 0.930 . S
H5114 C5130 0.931 . S
C5115 H5103 0.929 . S
C5115 C5109 1.390 . S
C5115 C5112 1.386 . S
C5116 C5111 1.490 . S
C5116 C5118 1.395 . S
C5116 C5119 1.403 . S
H5117 C5123 0.930 . S
C5118 H5104 0.930 . S
C5118 C5116 1.395 . S
C5118 C5121 1.403 . S
C5119 C5116 1.403 . S
C5119 C5120 1.524 . S
C5119 C5123 1.400 . S
C5120 H5105 0.960 . S
C5120 H5106 0.960 . S
C5120 H5107 0.960 . S
C5120 C5119 1.524 . S
C5121 C5118 1.403 . S
C5121 C5122 1.392 . S
C5121 C5125 1.495 . S
C5122 C5121 1.392 . S
C5122 C5123 1.385 . S
C5122 C5124 1.478 . S
C5123 H5117 0.930 . S
C5123 C5119 1.400 . S
C5123 C5122 1.385 . S
C5124 C5122 1.478 . S
C5124 C5126 1.381 . S
C5124 C5130 1.383 . S
C5125 C5121 1.495 . S
C5125 H5131 0.959 . S
C5125 H5132 0.961 . S
C5125 H5133 0.960 . S
C5126 C5124 1.381 . S
C5126 C5127 1.394 . S
C5126 H5134 0.930 . S
C5127 C5126 1.394 . S
C5127 C5128 1.383 . S
C5127 H5135 0.929 . S
C5128 C5127 1.383 . S
C5128 C5129 1.377 . S
C5129 H5113 0.930 . S
C5129 C5128 1.377 . S
C5129 C5130 1.379 . S
C5130 H5114 0.931 . S
C5130 C5124 1.383 . S
C5130 C5129 1.379 . S
H5131 C5125 0.959 . S
H5132 C5125 0.961 . S
H5133 C5125 0.960 . S
H5134 C5126 0.930 . S
H5135 C5127 0.929 . S
C1689 C106 1.933 . S
C1708 C403 1.805 . S
C1725 C65 2.195 . S
C1744 C486 2.104 . S
C1761 C79 1.776 . S
C1780 C571 1.631 1_565 S
C1816 C651 1.364 . S
C1797 C90 1.418 . S
C1833 C21 1.319 . S
C1852 C735 1.317 . S
C1888 C828 0.870 . S
C1869 C35 0.901 . S
C1924 C906 0.684 . S
C1905 C50 0.629 . S
C1941 C6 1.344 . S
C1960 C991 1.272 . S
C1996 C402 2.104 . S
C1977 C232 2.239 . S
C2013 C245 0.620 . S
C2032 C483 0.610 . S
C2068 C570 1.182 . S
C2049 C274 1.274 . S
C2104 C655 1.450 . S
C2085 C175 1.554 . S
C2121 C231 1.747 . S
C2140 C739 1.648 . S
C2176 C831 0.944 . S
C2157 C246 1.062 . S
C2212 C903 0.720 . S
C2193 C273 0.621 . S
C2248 C990 1.409 . S
C2229 C176 1.552 . S
C2284 C399 1.461 . S
C2265 C160 1.528 . S
C2301 C289 1.985 1_554 S
C2320 C1074 1.910 . S
C2356 C1148 2.182 . S
C2337 C328 2.306 . S
C2392 C1243 0.521 . S
C2373 C317 0.536 . S
C2409 C118 0.792 . S
C2428 C987 0.843 . S
C2445 C132 1.410 . S
C2464 C567 1.416 . S
C2481 C331 2.414 . S
C2500 C1326 2.311 . S
C2536 C1411 0.952 . S
C2517 C303 0.993 . S
C2572 C392 1.376 1_565 S
C2553 C63 1.531 . S
C2608 C1419 2.563 . S
C2589 C107 2.570 . S
C2625 C92 1.590 . S
C2644 C560 1.559 . S
C2661 C78 2.084 . S
C2680 C1332 1.887 . S
C2716 C744 1.820 . S
C2697 C8 1.926 . S
C2733 C51 1.214 . S
C2752 C1155 1.131 . S
C2788 C915 1.094 1_565 S
C2769 C37 1.097 . S
C2824 C1484 1.170 . S
C2805 C20 1.248 . S
C2860 C411 1.998 . S
C2841 C147 2.057 . S
C2896 C1416 0.811 . S
C2877 C316 0.768 . S
C2913 C119 1.148 . S
C2932 C579 1.118 . S
C2949 C288 1.739 . S
C2968 C1316 1.640 . S
C2985 C148 2.260 1_545 S
C3004 C728 2.058 . S
C3040 C1158 1.010 . S
C3021 C315 1.104 . S
C3057 C120 0.935 . S
C3076 C912 0.882 . S
C3093 C287 1.460 . S
C3112 C1503 1.348 . S
C3129 C188 1.393 . S
C3148 C408 1.345 . S
C3165 C177 2.350 . S
C3184 C1083 2.274 . S
C3201 C258 2.456 . S
C3220 C823 2.328 . S
C3237 C247 0.537 . S
C3256 C1232 0.686 . S
C3292 C1500 0.626 . S
C3273 C272 0.591 . S
C3309 C216 1.285 . S
C3328 C576 1.224 1_565 S
C3364 C663 2.571 . S
C3345 C261 2.655 . S
C3400 C476 0.917 . S
C3381 C205 0.912 . S
C3417 C76 1.523 . S
C3436 C1579 1.388 . S
C3472 C1410 2.204 . S
C3453 C93 2.280 . S
C3489 C105 1.373 . S
C3508 C1663 1.256 . S
C3525 C62 1.461 . S
C3544 C1323 1.380 . S
C3561 C49 1.298 . S
C3580 C1071 1.289 . S
C3616 C1164 1.233 . S
C3597 C9 1.295 . S
C3652 C1242 0.627 . S
C3633 C22 0.557 . S
C3688 C1495 1.550 . S
C3669 C36 1.753 . S
C3724 C1578 2.025 . S
C3705 C260 2.142 . S
C3741 C189 0.510 . S
C3760 C1407 0.666 . S
C3796 C1662 1.121 . S
C3777 C204 1.179 . S
C3832 C1327 1.271 . S
C3813 C217 1.373 . S
C3868 C1075 1.907 . S
C3849 C259 2.032 . S
C3885 C190 1.161 . S
C3904 C1167 1.047 . S
C3940 C1239 0.783 . S
C3921 C203 0.730 . S
C3957 C218 1.658 . S
C3976 C1494 1.517 . S
C4012 C1575 1.459 . S
C3993 C314 1.468 . S
C4029 C135 2.105 . S
C4048 C738 2.006 . S
C4084 C812 2.078 . S
C4065 C146 2.194 . S
C4120 C907 0.679 . S
C4101 C163 0.554 . S
C4156 C1491 0.783 . S
C4137 C300 0.819 . S
C4173 C286 1.364 . S
C4192 C1659 1.363 . S
C4228 C654 2.224 . S
C4209 C149 2.311 . S
C4264 C487 0.939 . S
C4245 C121 0.922 1_565 S
C4281 C91 1.505 . S
C4300 C1568 1.433 . S
C4336 C495 2.162 . S
C4317 C77 2.094 . S
C4353 C64 1.559 . S
C4372 C1652 1.534 . S
C4389 C104 1.682 . S
C4408 C660 1.576 . S
C4425 C34 1.488 . S
C4444 C1080 1.443 1_556 S
C4480 C819 1.034 . S
C4461 C23 1.196 . S
C4497 C7 0.788 . S
C4516 C1251 0.775 . S
C4533 C48 1.203 . S
C4552 C980 1.148 . S
C4588 C1587 1.958 . S
C4569 C329 2.038 . S
C4605 C162 0.789 . S
C4624 C492 0.774 . S
C4660 C1671 1.160 1_556 S
C4641 C301 1.141 . S
C4677 C134 1.765 . S
C4696 C644 1.671 . S
C4713 C330 2.232 . S
C4732 C1064 2.036 . S
C4768 C822 1.102 . S
C4749 C161 1.113 . S
C4785 C302 0.971 . S
C4804 C1248 0.859 . S
C4840 C999 1.376 . S
C4821 C133 1.455 . S
C4876 C1584 1.531 . S
C4857 C244 1.615 . S
C4912 C747 2.188 1_655 S
C4893 C219 2.282 . S
C4929 C230 2.094 . S
C4948 C1159 1.965 . S
C4984 C896 0.679 . S
C4965 C191 0.516 . S
C5001 C202 0.760 . S
C5020 C996 0.709 . S
C5037 C174 1.520 . S
C5056 C1668 1.452 . S
C5092 C1335 2.528 . S
C5073 C233 2.609 . S
C5128 C1400 0.807 . S
C5109 C275 0.908 . S
