# Generated by pormake.
# Topology nia, (6,6)-cn, num edge types: 1
# Building blocks:
#     Node 0, Type 0, BuildingBlock: KUMJIN_clean_sbu_0, # of connection points: 6
#     Node 1, Type 0, BuildingBlock: KUMJIN_clean_sbu_0, # of connection points: 6
#     Node 2, Type 1, BuildingBlock: MIDCAF_clean_sbu_0, # of connection points: 6
#     Node 3, Type 1, BuildingBlock: MIDCAF_clean_sbu_0, # of connection points: 6
#     Edge 4, Type (0, 1), BuildingBlock: FUNLAD_clean_linker_0, # of connection points: 2
#     Edge 5, Type (0, 1), BuildingBlock: FUNLAD_clean_linker_0, # of connection points: 2
#     Edge 6, Type (0, 1), BuildingBlock: FUNLAD_clean_linker_0, # of connection points: 2
#     Edge 7, Type (0, 1), BuildingBlock: FUNLAD_clean_linker_0, # of connection points: 2
#     Edge 8, Type (0, 1), BuildingBlock: FUNLAD_clean_linker_0, # of connection points: 2
#     Edge 9, Type (0, 1), BuildingBlock: FUNLAD_clean_linker_0, # of connection points: 2
#     Edge 10, Type (0, 1), BuildingBlock: FUNLAD_clean_linker_0, # of connection points: 2
#     Edge 11, Type (0, 1), BuildingBlock: FUNLAD_clean_linker_0, # of connection points: 2
#     Edge 12, Type (0, 1), BuildingBlock: FUNLAD_clean_linker_0, # of connection points: 2
#     Edge 13, Type (0, 1), BuildingBlock: FUNLAD_clean_linker_0, # of connection points: 2
#     Edge 14, Type (0, 1), BuildingBlock: FUNLAD_clean_linker_0, # of connection points: 2
#     Edge 15, Type (0, 1), BuildingBlock: FUNLAD_clean_linker_0, # of connection points: 2
# Relax obj value: 0.167
# Max RMSD: 0.281
# Mean RMSD: 0.203
data_MOF--net-nia--node1-KUMJIN_clean_sbu_0--node2-MIDCAF_clean_sbu_0--edge1-FUNLAD_clean_linker_0
_symmetry_space_group_name_H-M    P1
_symmetry_Int_Tables_number       1
_symmetry_cell_setting            triclinic
loop_
_symmetry_equiv_pos_as_xyz
'x, y, z'
_cell_length_a     32.167095
_cell_length_b     32.816934
_cell_length_c     36.996831
_cell_angle_alpha  90.123286
_cell_angle_beta   89.820368
_cell_angle_gamma 137.96372
loop_
_atom_site_label
_atom_site_type_symbol
_atom_site_fract_x
_atom_site_fract_y
_atom_site_fract_z
_atom_type_partial_charge
Eu0 Eu 0.02326 0.98095 0.06116 0.0
C1 C 0.02944 0.03767 0.9016 0.0
C2 C 0.12851 0.14454 0.89779 0.0
C3 C 0.08808 0.07975 0.84518 0.0
C4 C 0.07563 0.09413 0.91784 0.0
C5 C 0.03468 0.03023 0.86481 0.0
C6 C 0.13485 0.13681 0.86162 0.0
C7 C 0.93145 0.92699 0.86829 0.0
N8 N 0.97852 -0.00949 0.92132 0.0
C9 C 0.92821 0.93689 0.90443 0.0
C10 C 0.98541 0.97359 0.84852 0.0
Eu11 Eu 0.97634 0.01157 0.98282 0.0
N12 N 0.06896 0.10001 0.95314 0.0
C13 C 0.11224 0.15585 0.96935 0.0
C14 C 0.17355 0.20136 0.91467 0.0
C15 C 0.16509 0.20708 0.95052 0.0
H16 H 0.88534 0.90146 0.9192 0.0
H17 H 0.19927 0.251 0.96373 0.0
H18 H 0.17551 0.17483 0.84603 0.0
H19 H 0.89199 0.88371 0.85561 0.0
H20 H 0.10645 0.16181 0.99669 0.0
H21 H 0.82093 0.72988 0.07155 0.0
H22 H 0.21474 0.24109 0.90021 0.0
H23 H 0.07733 0.0844 0.12674 0.0
H24 H 0.91735 0.82421 0.04659 0.0
H25 H 0.04174 0.0896 0.18289 0.0
H26 H 0.09314 0.07466 0.81707 0.0
H27 H 0.77751 0.72924 0.12679 0.0
H28 H 0.788 0.78663 0.17703 0.0
H29 H -0.01226 0.96608 0.8204 0.0
H30 H 0.84742 0.88381 0.20714 0.0
N31 N 0.92896 0.88229 0.08421 0.0
C32 C 0.89928 0.82761 0.06931 0.0
C33 C 0.8201 0.77223 0.11535 0.0
C34 C 0.8522 0.82727 0.13216 0.0
C35 C 0.84422 0.77245 0.08408 0.0
C36 C 0.90752 0.88234 0.11606 0.0
H37 H 0.94103 -0.00371 0.2094 0.0
N38 N -0.00617 -0.01013 0.11734 0.0
C39 C 0.01217 0.04661 0.16884 0.0
C40 C 0.94077 0.93736 0.13299 0.0
C41 C 0.03134 0.04352 0.13606 0.0
C42 C 0.95562 -0.00613 0.18381 0.0
C43 C 0.91982 0.93824 0.16642 0.0
O44 O 0.10656 0.036 0.09449 0.0
O45 O 0.05259 0.03324 1.00993 0.0
O46 O 0.95893 0.93274 0.9678 0.0
O47 O -0.01282 0.91283 0.01733 0.0
O48 O 0.09349 0.00711 0.02106 0.0
O49 O 0.04842 0.93995 0.08399 0.0
O50 O 0.88787 0.97598 0.96981 0.0
O51 O 0.95481 0.97637 0.03968 0.0
O52 O 0.07203 0.07743 0.06407 0.0
O53 O 0.01032 0.07631 0.02983 0.0
O54 O 0.88287 0.92121 1.00228 0.0
O55 O 0.97106 0.07264 0.96797 0.0
C56 C 0.09123 0.03525 0.99852 0.0
C57 C 0.14007 -0.00369 0.12173 0.0
C58 C 0.16763 0.95156 0.15021 0.0
C59 C 0.12708 0.94545 0.12875 0.0
C60 C 0.2216 0.00923 0.16403 0.0
C61 C 0.19426 0.05327 0.13597 0.0
C62 C 0.23473 0.05957 0.15688 0.0
C63 C 0.96434 0.9012 0.98448 0.0
C64 C 0.09763 -0.0094 0.09976 0.0
C65 C 0.86432 0.88373 0.18178 0.0
C66 C 0.83055 0.82844 0.16466 0.0
C67 C 0.8976 0.9277 0.03592 0.0
C68 C 0.8921 0.0307 0.92515 0.0
C69 C 0.89606 0.07571 0.91824 0.0
C70 C 0.87713 0.07777 0.88455 0.0
C71 C 0.85606 0.03561 0.85759 0.0
C72 C 0.86692 -0.0132 0.8984 0.0
C73 C 0.85064 -0.00979 0.86464 0.0
C74 C 0.05193 0.09962 0.05553 0.0
C75 C 0.91206 0.02832 0.96048 0.0
H76 H 0.08538 0.90122 0.11794 0.0
H77 H 0.25438 0.01569 0.17991 0.0
H78 H 0.20557 0.09314 0.13087 0.0
H79 H 0.27663 0.10376 0.1675 0.0
H80 H 0.91283 0.10833 0.93912 0.0
H81 H 0.84076 0.03585 0.83162 0.0
H82 H 0.85816 0.94877 0.9037 0.0
H83 H 0.83205 0.95644 0.8442 0.0
Eu84 Eu -0.01097 0.01609 0.56391 0.0
C85 C 0.97039 0.98188 0.39751 0.0
C86 C 0.86354 0.88641 0.38449 0.0
C87 C 0.92378 0.96876 0.34067 0.0
C88 C 0.91492 0.92381 0.40807 0.0
C89 C 0.97595 0.00439 0.36328 0.0
C90 C 0.86769 0.90982 0.35123 0.0
C91 C 0.08595 0.09207 0.37432 0.0
N92 N 0.02035 0.01432 0.41952 0.0
C93 C 0.07827 0.06741 0.4078 0.0
C94 C 0.03439 0.06088 0.35219 0.0
Eu95 Eu 0.00327 0.97043 0.47628 0.0
N96 N 0.91261 0.90235 0.44027 0.0
C97 C 0.8616 0.84286 0.44959 0.0
C98 C 0.81018 0.82605 0.39459 0.0
C99 C 0.80956 0.80398 0.42706 0.0
H100 H 0.11814 0.09166 0.42495 0.0
H101 H 0.76884 0.75713 0.43488 0.0
H102 H 0.82837 0.88209 0.33304 0.0
H103 H 0.13157 0.13506 0.36561 0.0
H104 H 0.86051 0.82538 0.47469 0.0
H105 H 0.22507 0.23191 0.60201 0.0
H106 H 0.76971 0.79587 0.37726 0.0
H107 H 0.87677 0.89372 0.61522 0.0
H108 H 0.1329 0.16192 0.56309 0.0
H109 H 0.8645 0.85395 0.67583 0.0
H110 H 0.92692 -0.01447 0.31443 0.0
H111 H 0.22421 0.19729 0.6616 0.0
H112 H 0.16524 0.11487 0.70846 0.0
H113 H 0.04055 0.07983 0.32612 0.0
H114 H 0.06736 0.01219 0.72854 0.0
N115 N 0.08007 0.08724 0.59958 0.0
C116 C 0.13143 0.1459 0.58893 0.0
C117 C 0.18335 0.16622 0.6446 0.0
C118 C 0.12953 0.10706 0.65619 0.0
C119 C 0.18399 0.18593 0.61101 0.0
C120 C 0.07771 0.06829 0.63291 0.0
H121 H 0.95496 0.91486 0.71671 0.0
N122 N 0.97335 0.97524 0.62161 0.0
C123 C 0.90932 0.89794 0.66724 0.0
C124 C 0.0228 0.0105 0.6442 0.0
C125 C 0.91634 0.92056 0.63305 0.0
C126 C 0.96053 0.9324 0.69019 0.0
C127 C 0.01795 -0.0102 0.67902 0.0
O128 O 0.92504 0.00724 0.59474 0.0
O129 O 0.94836 0.97333 0.51018 0.0
O130 O 0.01277 0.0446 0.466 0.0
O131 O 0.04742 0.09308 0.52214 0.0
O132 O 0.88517 0.93565 0.55087 0.0
O133 O 0.00252 0.09195 0.56686 0.0
O134 O 0.07639 -0.01654 0.45611 0.0
O135 O 0.04318 0.01139 0.53076 0.0
O136 O 0.98135 0.9432 0.57426 0.0
O137 O 0.94709 0.89366 0.51848 0.0
O138 O 0.10649 0.05129 0.48935 0.0
O139 O 0.98297 0.89222 0.46223 0.0
C140 C 0.89126 0.93314 0.51679 0.0
C141 C 0.91007 0.06296 0.57438 0.0
C142 C 0.85044 0.0805 0.59017 0.0
C143 C 0.89675 0.08527 0.59831 0.0
C144 C 0.81844 0.05338 0.55708 0.0
C145 C 0.87895 0.0378 0.54129 0.0
C146 C 0.83327 0.03301 0.53273 0.0
C147 C 0.04067 0.09218 0.48664 0.0
C148 C 0.95214 0.06105 0.58593 0.0
C149 C 0.07002 0.02744 0.7018 0.0
C150 C 0.12572 0.08593 0.69039 0.0
C151 C 0.10028 0.05239 0.52367 0.0
C152 C 0.04358 0.91089 0.41362 0.0
C153 C 0.07866 0.90088 0.40821 0.0
C154 C 0.08739 0.89121 0.37306 0.0
C155 C 0.06076 0.89247 0.34357 0.0
C156 C 0.01592 0.90973 0.38386 0.0
C157 C 0.02481 0.90104 0.34907 0.0
C158 C 0.95475 0.89563 0.55399 0.0
C159 C 0.03882 0.92576 0.44993 0.0
H160 H 0.92263 0.10605 0.62332 0.0
H161 H 0.78128 0.04697 0.54999 0.0
H162 H 0.88923 0.02093 0.52251 0.0
H163 H 0.80853 0.01251 0.50738 0.0
H164 H 0.09853 0.9002 0.43146 0.0
H165 H 0.06789 0.8872 0.3161 0.0
H166 H -0.01218 0.91593 0.38738 0.0
H167 H 0.00403 0.90132 0.32625 0.0
Zn168 Zn 0.34983 0.6631 0.20035 0.0
Zn169 Zn 0.36316 0.68409 0.33845 0.0
Zn170 Zn 0.3548 0.66571 0.27047 0.0
C171 C 0.48168 0.75114 0.31811 0.0
C172 C 0.28687 0.55988 0.32821 0.0
O173 O 0.31105 0.69152 0.24948 0.0
O174 O 0.31191 0.68833 0.18974 0.0
C175 C 0.47335 0.73943 0.21724 0.0
O176 O 0.45345 0.7263 0.28756 0.0
O177 O 0.45257 0.74218 0.34561 0.0
O178 O 0.31078 0.59978 0.35211 0.0
O179 O 0.29634 0.57446 0.2945 0.0
O180 O 0.43885 0.72103 0.19039 0.0
O181 O 0.45025 0.72259 0.24945 0.0
O182 O 0.29115 0.56854 0.25607 0.0
O183 O 0.29417 0.57496 0.19629 0.0
C184 C 0.27415 0.54347 0.22459 0.0
O185 O 0.32513 0.7075 0.28639 0.0
O186 O 0.32999 0.71443 0.34606 0.0
C187 C 0.29712 0.69636 0.2182 0.0
C188 C 0.31856 0.72286 0.31624 0.0
Zn189 Zn 0.63298 0.31731 0.84083 0.0
Zn190 Zn 0.65392 0.32757 0.70273 0.0
Zn191 Zn 0.64218 0.32674 0.77019 0.0
C192 C 0.71665 0.44378 0.72113 0.0
C193 C 0.52849 0.24851 0.71371 0.0
O194 O 0.67008 0.28603 0.79241 0.0
O195 O 0.64758 0.26992 0.85081 0.0
C196 C 0.72501 0.44215 0.82339 0.0
O197 O 0.70651 0.4226 0.75315 0.0
O198 O 0.69505 0.40985 0.6939 0.0
O199 O 0.56489 0.26078 0.69007 0.0
O200 O 0.54909 0.2714 0.74572 0.0
O201 O 0.70254 0.40646 0.84985 0.0
O202 O 0.70653 0.42095 0.79097 0.0
O203 O 0.54596 0.27459 0.78366 0.0
O204 O 0.54707 0.27549 0.84357 0.0
C205 C 0.5189 0.26115 0.81425 0.0
O206 O 0.67409 0.28738 0.75445 0.0
O207 O 0.70277 0.31288 0.69717 0.0
C208 C 0.66791 0.26624 0.82333 0.0
C209 C 0.69807 0.28884 0.72572 0.0
C210 C 0.16623 0.89068 0.19221 0.0
C211 C 0.15597 0.89918 0.15749 0.0
C212 C 0.16628 0.84867 0.19806 0.0
C213 C 0.15587 0.81392 0.1692 0.0
C214 C 0.14152 0.81958 0.13502 0.0
C215 C 0.14125 0.86154 0.12922 0.0
C216 C 0.16857 0.7787 0.17234 0.0
C217 C 0.17441 0.76284 0.20393 0.0
C218 C 0.20266 0.74214 0.20609 0.0
C219 C 0.18589 0.70334 0.2342 0.0
C220 C 0.21601 0.68765 0.23817 0.0
C221 C 0.2645 0.71193 0.21467 0.0
H222 H 0.26591 0.79662 0.16084 0.0
C223 C 0.28055 0.7499 0.1863 0.0
C224 C 0.25031 0.76514 0.18215 0.0
H225 H 0.31759 0.76898 0.16769 0.0
H226 H 0.17689 0.91852 0.21464 0.0
H227 H 0.17828 0.84661 0.22473 0.0
H228 H 0.13344 0.79356 0.11226 0.0
H229 H 0.13331 0.8671 0.10214 0.0
H230 H 0.17729 0.76864 0.14727 0.0
H231 H 0.16032 0.76689 0.22911 0.0
H232 H 0.14986 0.68559 0.25326 0.0
H233 H 0.202 0.65727 0.25983 0.0
C234 C 0.13834 0.04677 0.58045 0.0
C235 C 0.15036 0.07874 0.54933 0.0
C236 C 0.18677 0.07032 0.60334 0.0
C237 C 0.24842 0.12555 0.59491 0.0
C238 C 0.26046 0.15684 0.56342 0.0
C239 C 0.21192 0.13377 0.5409 0.0
C240 C 0.30148 0.14835 0.61616 0.0
C241 C 0.29978 0.14022 0.65206 0.0
C242 C 0.35391 0.16144 0.67084 0.0
C243 C 0.37542 0.19345 0.70362 0.0
C244 C 0.43083 0.21948 0.71899 0.0
C245 C 0.46452 0.21246 0.70229 0.0
H246 H 0.36932 0.12572 0.63052 0.0
C247 C 0.44022 0.17665 0.67087 0.0
C248 C 0.38578 0.15165 0.65528 0.0
H249 H 0.46467 0.16985 0.65742 0.0
H250 H 0.09176 0.00303 0.58687 0.0
H251 H 0.17607 0.0441 0.62678 0.0
H252 H 0.30769 0.199 0.55602 0.0
H253 H 0.22253 0.15862 0.51665 0.0
H254 H 0.34448 0.17398 0.60151 0.0
H255 H 0.25973 0.12039 0.66796 0.0
H256 H 0.35133 0.20123 0.71622 0.0
H257 H 0.44914 0.24808 0.74252 0.0
C258 C 0.04445 0.16371 0.08403 0.0
C259 C 0.07942 0.15431 0.07546 0.0
C260 C 0.06925 0.21205 0.10668 0.0
C261 C 0.12972 0.25203 0.12082 0.0
C262 C 0.16514 0.24372 0.11079 0.0
C263 C 0.14026 0.19536 0.08864 0.0
C264 C 0.15901 0.30398 0.1452 0.0
C265 C 0.12787 0.30902 0.16519 0.0
C266 C 0.16082 0.36397 0.18751 0.0
C267 C 0.13682 0.38618 0.18951 0.0
C268 C 0.17183 0.44304 0.20499 0.0
C269 C 0.23061 0.4778 0.21964 0.0
H270 H 0.23646 0.37989 0.20486 0.0
C271 C 0.25232 0.45338 0.22067 0.0
C272 C 0.21761 0.39674 0.20481 0.0
H273 H 0.2979 0.47985 0.23145 0.0
H274 H -0.00263 0.13265 0.07421 0.0
H275 H 0.041 0.21786 0.11283 0.0
H276 H 0.21208 0.27416 0.12075 0.0
H277 H 0.16854 0.18959 0.08222 0.0
H278 H 0.20937 0.33997 0.14681 0.0
H279 H 0.07768 0.27452 0.16346 0.0
H280 H 0.09294 0.36157 0.17683 0.0
H281 H 0.15474 0.4616 0.20346 0.0
C282 C 0.81401 0.12566 0.60321 0.0
C283 C 0.83567 0.10361 0.616 0.0
C284 C 0.80114 0.14816 0.62715 0.0
C285 C 0.81117 0.15073 0.66432 0.0
C286 C 0.83316 0.12949 0.67741 0.0
C287 C 0.84409 0.10501 0.65362 0.0
C288 C 0.80267 0.17963 0.68882 0.0
C289 C 0.74776 0.15882 0.69128 0.0
C290 C 0.7409 0.19488 0.70745 0.0
C291 C 0.6848 0.16495 0.72428 0.0
C292 C 0.67278 0.19691 0.73323 0.0
C293 C 0.71606 0.25879 0.72445 0.0
H294 H 0.8291 0.28197 0.68751 0.0
C295 C 0.77322 0.28932 0.70913 0.0
C296 C 0.78594 0.25786 0.70112 0.0
H297 H 0.80695 0.33698 0.7019 0.0
H298 H 0.80831 0.12714 0.57461 0.0
H299 H 0.7853 0.16554 0.61647 0.0
H300 H 0.84129 0.13131 0.70606 0.0
H301 H 0.85904 0.08716 0.66494 0.0
H302 H 0.84296 0.2205 0.7032 0.0
H303 H 0.70704 0.11552 0.67883 0.0
H304 H 0.64925 0.11636 0.72911 0.0
H305 H 0.62813 0.17248 0.74474 0.0
C306 C 0.86256 0.94138 0.09024 0.0
C307 C 0.85109 0.9029 0.06403 0.0
C308 C 0.81648 0.91868 0.11516 0.0
C309 C 0.7576 0.85747 0.11356 0.0
C310 C 0.74617 0.81934 0.0871 0.0
C311 C 0.7925 0.84182 0.06255 0.0
C312 C 0.70489 0.8343 0.13549 0.0
C313 C 0.70999 0.85392 0.16894 0.0
C314 C 0.6553 0.83384 0.18573 0.0
C315 C 0.63066 0.80204 0.21866 0.0
C316 C 0.57258 0.77393 0.23066 0.0
C317 C 0.53941 0.77838 0.21006 0.0
H318 H 0.64289 0.8671 0.14153 0.0
C319 C 0.56697 0.81455 0.17875 0.0
C320 C 0.62415 0.84182 0.16668 0.0
H321 H 0.54285 0.81939 0.16252 0.0
H322 H 0.90685 -0.01075 0.09111 0.0
H323 H 0.82614 0.94968 0.13452 0.0
H324 H 0.70079 0.77227 0.08496 0.0
H325 H 0.78234 0.81173 0.0421 0.0
H326 H 0.65921 0.79986 0.123 0.0
H327 H 0.75347 0.88418 0.1837 0.0
H328 H 0.65419 0.79555 0.23377 0.0
H329 H 0.55186 0.74538 0.25445 0.0
C330 C 0.95259 0.84857 0.60788 0.0
C331 C 0.93153 0.84214 0.57281 0.0
C332 C 0.92681 0.79782 0.62761 0.0
C333 C 0.87949 0.73925 0.61254 0.0
C334 C 0.86053 0.73327 0.57683 0.0
C335 C 0.88627 0.78415 0.55712 0.0
C336 C 0.84669 0.68293 0.6331 0.0
C337 C 0.85632 0.68061 0.66821 0.0
C338 C 0.81789 0.62152 0.68675 0.0
C339 C 0.84461 0.61465 0.71235 0.0
C340 C 0.81036 0.55688 0.72622 0.0
C341 C 0.74908 0.50597 0.71478 0.0
H342 H 0.73193 0.5753 0.65982 0.0
C343 C 0.72104 0.51386 0.69168 0.0
C344 C 0.75482 0.57108 0.67808 0.0
H345 H 0.67347 0.47509 0.68288 0.0
H346 H -0.01148 0.89293 0.62049 0.0
H347 H 0.94382 0.80529 0.65468 0.0
H348 H 0.82444 0.6888 0.56436 0.0
H349 H 0.86928 0.77777 0.53011 0.0
H350 H 0.8114 0.6404 0.61834 0.0
H351 H 0.89346 0.72162 0.68354 0.0
H352 H 0.89284 0.65323 0.72 0.0
H353 H 0.83272 0.55149 0.744 0.0
C354 C 0.10662 0.83982 0.33916 0.0
C355 C 0.12346 0.87928 0.36698 0.0
C356 C 0.13969 0.82786 0.33355 0.0
C357 C 0.18979 0.85427 0.35603 0.0
C358 C 0.2066 0.89332 0.38389 0.0
C359 C 0.1744 0.90641 0.38903 0.0
C360 C 0.2212 0.83719 0.35309 0.0
C361 C 0.22938 0.82343 0.32151 0.0
C362 C 0.25347 0.79879 0.32029 0.0
C363 C 0.29409 0.81617 0.29257 0.0
C364 C 0.31602 0.79196 0.29112 0.0
C365 C 0.29582 0.74858 0.31668 0.0
H366 H 0.20166 0.74065 0.36726 0.0
C367 C 0.25517 0.73129 0.3443 0.0
C368 C 0.23408 0.75598 0.34606 0.0
H369 H 0.23911 0.69804 0.36441 0.0
H370 H 0.06676 0.81667 0.32218 0.0
H371 H 0.12435 0.79601 0.31253 0.0
H372 H 0.24481 0.9138 0.40173 0.0
H373 H 0.18963 0.93786 0.41029 0.0
H374 H 0.23802 0.83573 0.37795 0.0
H375 H 0.21853 0.83051 0.29613 0.0
H376 H 0.30922 0.84879 0.27228 0.0
H377 H 0.34841 0.80686 0.27004 0.0
C378 C 0.18503 0.11906 0.96225 0.0
C379 C 0.1252 0.05882 0.96416 0.0
C380 C 0.2231 0.13893 0.93233 0.0
C381 C 0.20199 0.09837 0.90397 0.0
C382 C 0.142 0.03828 0.90607 0.0
C383 C 0.10438 0.01851 0.93605 0.0
C384 C 0.24379 0.11422 0.8747 0.0
C385 C 0.29641 0.17167 0.86491 0.0
C386 C 0.34632 0.18804 0.84337 0.0
C387 C 0.39331 0.24658 0.82827 0.0
C388 C 0.44787 0.26859 0.81502 0.0
C389 C 0.45609 0.23225 0.81653 0.0
H390 H 0.31929 0.10561 0.85469 0.0
C391 C 0.40786 0.17251 0.82936 0.0
C392 C 0.35328 0.15037 0.84255 0.0
H393 H 0.41423 0.14449 0.83166 0.0
H394 H 0.2032 0.15011 0.98454 0.0
H395 H 0.2699 0.18495 0.93255 0.0
H396 H 0.12493 0.00577 0.88504 0.0
H397 H 0.05973 0.97125 0.93746 0.0
H398 H 0.23181 0.0767 0.86201 0.0
H399 H 0.3054 0.20881 0.87488 0.0
H400 H 0.38951 0.27673 0.82878 0.0
H401 H 0.48537 0.31542 0.806 0.0
C402 C 0.04957 0.14524 0.43361 0.0
C403 C 0.06959 0.14821 0.46825 0.0
C404 C 0.08081 0.19836 0.41446 0.0
C405 C 0.1325 0.25558 0.42981 0.0
C406 C 0.15146 0.25831 0.46476 0.0
C407 C 0.12014 0.20525 0.4839 0.0
C408 C 0.16896 0.31368 0.41058 0.0
C409 C 0.14818 0.3208 0.38247 0.0
C410 C 0.1843 0.38199 0.36791 0.0
C411 C 0.17676 0.38891 0.33181 0.0
C412 C 0.21003 0.4466 0.31827 0.0
C413 C 0.25104 0.49801 0.34072 0.0
H414 H 0.22931 0.43009 0.41878 0.0
C415 C 0.25746 0.49046 0.37691 0.0
C416 C 0.22426 0.43345 0.39039 0.0
H417 H 0.28815 0.52881 0.39525 0.0
H418 H 0.0103 0.10175 0.42098 0.0
H419 H 0.06513 0.19405 0.38746 0.0
H420 H 0.19106 0.30181 0.47729 0.0
H421 H 0.13683 0.20905 0.51044 0.0
H422 H 0.21492 0.35322 0.42132 0.0
H423 H 0.1034 0.28185 0.37036 0.0
H424 H 0.14518 0.34974 0.31412 0.0
H425 H 0.20268 0.45065 0.2907 0.0
C426 C 0.83967 0.1198 0.90219 0.0
C427 C 0.87288 0.11914 0.87803 0.0
C428 C 0.82462 0.14889 0.89283 0.0
C429 C 0.84277 0.17808 0.85912 0.0
C430 C 0.87988 0.18123 0.83617 0.0
C431 C 0.89426 0.15147 0.84534 0.0
C432 C 0.82206 0.2039 0.84692 0.0
C433 C 0.76491 0.17662 0.85476 0.0
C434 C 0.74018 0.19914 0.84373 0.0
C435 C 0.68398 0.17116 0.85929 0.0
C436 C 0.65968 0.19188 0.85162 0.0
C437 C 0.69057 0.24065 0.82778 0.0
H438 H 0.8133 0.26974 0.80589 0.0
C439 C 0.746 0.26803 0.81142 0.0
C440 C 0.7705 0.24729 0.81907 0.0
H441 H 0.77152 0.30683 0.7937 0.0
H442 H 0.8224 0.09503 0.92748 0.0
H443 H 0.7977 0.14739 0.91169 0.0
H444 H 0.89522 0.20422 0.81032 0.0
H445 H 0.92026 0.15191 0.82631 0.0
H446 H 0.85351 0.24399 0.82988 0.0
H447 H 0.73399 0.13505 0.87069 0.0
H448 H 0.65928 0.13385 0.87818 0.0
H449 H 0.61703 0.17023 0.86479 0.0
C450 C 0.7817 0.85216 0.49465 0.0
C451 C 0.84316 0.91006 0.49047 0.0
C452 C 0.73667 0.82999 0.46908 0.0
C453 C 0.7518 0.86575 0.43926 0.0
C454 C 0.81293 0.92514 0.43633 0.0
C455 C 0.85779 0.94702 0.4618 0.0
C456 C 0.70285 0.83859 0.41172 0.0
C457 C 0.70781 0.86995 0.38492 0.0
C458 C 0.65512 0.84142 0.36049 0.0
C459 C 0.64598 0.87536 0.34979 0.0
C460 C 0.59141 0.84708 0.33203 0.0
C461 C 0.54609 0.7849 0.32368 0.0
H462 H 0.61846 0.75326 0.35641 0.0
C463 C 0.55769 0.7522 0.3314 0.0
C464 C 0.61186 0.78022 0.34958 0.0
H465 H 0.5227 0.70384 0.32585 0.0
H466 H 0.76896 0.82338 0.51706 0.0
H467 H 0.68995 0.78432 0.47238 0.0
H468 H 0.82741 0.95468 0.41406 0.0
H469 H 0.90417 -0.00716 0.45875 0.0
H470 H 0.65931 0.79051 0.41476 0.0
H471 H 0.74868 0.9188 0.38282 0.0
H472 H 0.6789 0.92272 0.35751 0.0
H473 H 0.58267 0.87274 0.3271 0.0
C474 C 0.89874 0.81743 0.93865 0.0
C475 C 0.94698 0.85148 0.96406 0.0
C476 C 0.88286 0.77108 0.91889 0.0
C477 C 0.91489 0.75754 0.92425 0.0
C478 C 0.96251 0.79098 0.95014 0.0
C479 C 0.97855 0.83759 0.96977 0.0
C480 C 0.89614 0.70547 0.90581 0.0
C481 C 0.86665 0.68282 0.8736 0.0
C482 C 0.83891 0.62504 0.85737 0.0
C483 C 0.80017 0.60083 0.82694 0.0
C484 C 0.76594 0.54265 0.81395 0.0
C485 C 0.76992 0.50764 0.83119 0.0
H486 H 0.87649 0.60797 0.89536 0.0
C487 C 0.81159 0.5332 0.85997 0.0
C488 C 0.8461 0.59131 0.87274 0.0
H489 H 0.81586 0.50721 0.87353 0.0
H490 H 0.87171 0.82509 0.93483 0.0
H491 H 0.84404 0.74468 0.90047 0.0
H492 H -0.01267 0.78094 0.95525 0.0
H493 H 0.01594 0.863 0.98924 0.0
H494 H 0.90633 0.68503 0.92022 0.0
H495 H 0.85939 0.70587 0.85911 0.0
H496 H 0.79394 0.62571 0.81421 0.0
H497 H 0.73353 0.52366 0.79201 0.0
loop_
_geom_bond_atom_site_label_1
_geom_bond_atom_site_label_2
_geom_bond_distance
_geom_bond_site_symmetry_2
_ccdc_geom_bond_type
Eu0 N31 2.657 1_455 S
Eu0 N38 2.609 . S
Eu0 O44 2.558 1_565 S
Eu0 O45 2.612 1_564 S
Eu0 O47 2.339 1_454 S
Eu0 O48 2.563 1_565 S
Eu0 O49 2.419 . S
Eu0 O51 2.380 1_455 S
Eu0 O52 2.432 1_565 S
Eu0 C64 2.848 . S
C1 C4 1.429 . S
C1 C5 1.411 . S
C1 N8 1.377 1_455 S
C2 C4 1.420 . S
C2 C6 1.423 . S
C2 C14 1.392 . S
C3 C5 1.420 . S
C3 C6 1.351 . S
C3 H26 0.931 . S
C4 C1 1.429 . S
C4 C2 1.420 . S
C4 N12 1.362 . S
C5 C1 1.411 . S
C5 C3 1.420 . S
C5 C10 1.395 1_455 S
C6 C2 1.423 . S
C6 C3 1.351 . S
C6 H18 0.930 . S
C7 C9 1.400 . S
C7 C10 1.386 1_565 S
C7 H19 0.930 . S
N8 C1 1.377 1_655 S
N8 C9 1.321 1_545 S
N8 Eu11 2.609 . S
C9 C7 1.400 . S
C9 N8 1.321 1_565 S
C9 H16 0.930 . S
C10 C5 1.395 1_655 S
C10 C7 1.386 1_545 S
C10 H29 0.930 . S
Eu11 N8 2.609 . S
Eu11 N12 2.657 1_655 S
Eu11 O45 2.380 1_655 S
Eu11 O46 2.432 1_545 S
Eu11 O50 2.558 1_545 S
Eu11 O51 2.612 1_546 S
Eu11 O53 2.339 1_656 S
Eu11 O54 2.563 1_545 S
Eu11 O55 2.419 . S
Eu11 C75 2.848 . S
N12 C4 1.362 . S
N12 Eu11 2.657 1_455 S
N12 C13 1.334 . S
C13 N12 1.334 . S
C13 C15 1.413 . S
C13 H20 0.929 . S
C14 C2 1.392 . S
C14 C15 1.367 . S
C14 H22 0.930 . S
C15 C13 1.413 . S
C15 C14 1.367 . S
C15 H17 0.930 . S
H16 C9 0.930 . S
H17 C15 0.930 . S
H18 C6 0.930 . S
H19 C7 0.930 . S
H20 C13 0.929 . S
H21 C35 0.930 . S
H22 C14 0.930 . S
H23 C41 0.930 . S
H24 C32 0.929 . S
H25 C39 0.930 . S
H26 C3 0.931 . S
H27 C33 0.930 . S
H28 C66 0.930 . S
H29 C10 0.930 . S
H30 C65 0.931 . S
N31 Eu0 2.657 1_655 S
N31 C32 1.334 . S
N31 C36 1.362 . S
C32 H24 0.929 . S
C32 N31 1.334 . S
C32 C35 1.413 . S
C33 H27 0.930 . S
C33 C34 1.392 . S
C33 C35 1.367 . S
C34 C33 1.392 . S
C34 C36 1.420 . S
C34 C66 1.423 . S
C35 H21 0.930 . S
C35 C32 1.413 . S
C35 C33 1.367 . S
C36 N31 1.362 . S
C36 C34 1.420 . S
C36 C40 1.429 . S
H37 C42 0.929 1_545 S
N38 Eu0 2.609 . S
N38 C40 1.377 1_455 S
N38 C41 1.321 1_565 S
C39 H25 0.930 . S
C39 C41 1.400 . S
C39 C42 1.384 1_545 S
C40 C36 1.429 . S
C40 N38 1.377 1_655 S
C40 C43 1.411 . S
C41 H23 0.930 . S
C41 N38 1.321 1_545 S
C41 C39 1.400 . S
C42 H37 0.929 1_565 S
C42 C39 1.384 1_565 S
C42 C43 1.397 1_455 S
C43 C40 1.411 . S
C43 C42 1.397 1_655 S
C43 C65 1.420 . S
O44 Eu0 2.558 1_545 S
O44 C64 1.257 1_545 S
O45 Eu0 2.612 1_546 S
O45 Eu11 2.380 1_455 S
O45 C56 1.276 . S
O46 Eu11 2.432 1_565 S
O46 C63 1.264 . S
O47 Eu0 2.339 1_656 S
O47 C63 1.254 . S
O48 Eu0 2.563 1_545 S
O48 C56 1.235 1_554 S
O49 Eu0 2.419 . S
O49 C64 1.249 . S
O50 Eu11 2.558 1_565 S
O50 C75 1.257 1_565 S
O51 Eu0 2.380 1_655 S
O51 Eu11 2.612 1_564 S
O51 C67 1.276 . S
O52 Eu0 2.432 1_545 S
O52 C74 1.264 . S
O53 Eu11 2.339 1_454 S
O53 C74 1.254 . S
O54 Eu11 2.563 1_565 S
O54 C67 1.235 1_556 S
O55 Eu11 2.419 . S
O55 C75 1.249 . S
C56 O45 1.276 . S
C56 O48 1.235 1_556 S
C57 C59 1.393 . S
C57 C61 1.395 . S
C57 C64 1.492 . S
C58 C59 1.392 . S
C58 C60 1.386 . S
C59 C57 1.393 . S
C59 C58 1.392 . S
C59 H76 0.930 . S
C60 C58 1.386 . S
C60 C62 1.395 . S
C60 H77 0.930 . S
C61 C57 1.395 . S
C61 C62 1.379 . S
C61 H78 0.930 . S
C62 C60 1.395 . S
C62 C61 1.379 . S
C62 H79 0.930 . S
C63 O46 1.264 . S
C63 O47 1.254 . S
C64 Eu0 2.848 . S
C64 O44 1.257 1_565 S
C64 O49 1.249 . S
C64 C57 1.492 . S
C65 H30 0.931 . S
C65 C43 1.420 . S
C65 C66 1.351 . S
C66 H28 0.930 . S
C66 C34 1.423 . S
C66 C65 1.351 . S
C67 O51 1.276 . S
C67 O54 1.235 1_554 S
C68 C69 1.393 . S
C68 C72 1.395 . S
C68 C75 1.492 . S
C69 C68 1.393 . S
C69 C70 1.392 . S
C69 H80 0.930 . S
C70 C69 1.392 . S
C70 C71 1.386 . S
C71 C70 1.386 . S
C71 C73 1.395 . S
C71 H81 0.930 . S
C72 C68 1.395 . S
C72 C73 1.379 . S
C72 H82 0.930 . S
C73 C71 1.395 . S
C73 C72 1.379 . S
C73 H83 0.930 . S
C74 O52 1.264 . S
C74 O53 1.254 . S
C75 Eu11 2.848 . S
C75 O50 1.257 1_545 S
C75 O55 1.249 . S
C75 C68 1.492 . S
H76 C59 0.930 . S
H77 C60 0.930 . S
H78 C61 0.930 . S
H79 C62 0.930 . S
H80 C69 0.930 . S
H81 C71 0.930 . S
H82 C72 0.930 . S
H83 C73 0.930 . S
Eu84 N115 2.657 1_655 S
Eu84 N122 2.609 1_655 S
Eu84 O128 2.558 . S
Eu84 O129 2.612 1_545 S
Eu84 O131 2.339 1_655 S
Eu84 O132 2.563 1_545 S
Eu84 O133 2.419 . S
Eu84 O135 2.380 1_655 S
Eu84 O136 2.432 1_545 S
Eu84 C148 2.848 . S
C85 C88 1.429 . S
C85 C89 1.411 . S
C85 N92 1.377 1_665 S
C86 C88 1.420 . S
C86 C90 1.423 . S
C86 C98 1.392 . S
C87 C89 1.420 . S
C87 C90 1.351 . S
C87 H110 0.931 . S
C88 C85 1.429 . S
C88 C86 1.420 . S
C88 N96 1.362 . S
C89 C85 1.411 . S
C89 C87 1.420 . S
C89 C94 1.395 1_665 S
C90 C86 1.423 . S
C90 C87 1.351 . S
C90 H102 0.930 . S
C91 C93 1.400 . S
C91 C94 1.386 . S
C91 H103 0.930 . S
N92 C85 1.377 1_445 S
N92 C93 1.321 . S
N92 Eu95 2.609 1_545 S
C93 C91 1.400 . S
C93 N92 1.321 . S
C93 H100 0.930 . S
C94 C89 1.395 1_445 S
C94 C91 1.386 . S
C94 H113 0.930 . S
Eu95 N92 2.609 1_565 S
Eu95 N96 2.657 1_455 S
Eu95 O129 2.380 1_455 S
Eu95 O130 2.432 1_565 S
Eu95 O134 2.558 1_565 S
Eu95 O135 2.612 1_565 S
Eu95 O137 2.339 1_455 S
Eu95 O138 2.563 1_565 S
Eu95 O139 2.419 . S
Eu95 C159 2.848 . S
N96 C88 1.362 . S
N96 Eu95 2.657 1_655 S
N96 C97 1.334 . S
C97 N96 1.334 . S
C97 C99 1.413 . S
C97 H104 0.929 . S
C98 C86 1.392 . S
C98 C99 1.367 . S
C98 H106 0.930 . S
C99 C97 1.413 . S
C99 C98 1.367 . S
C99 H101 0.930 . S
H100 C93 0.930 . S
H101 C99 0.930 . S
H102 C90 0.930 . S
H103 C91 0.930 . S
H104 C97 0.929 . S
H105 C119 0.930 . S
H106 C98 0.930 . S
H107 C125 0.930 . S
H108 C116 0.929 . S
H109 C123 0.930 . S
H110 C87 0.931 . S
H111 C117 0.930 . S
H112 C150 0.930 . S
H113 C94 0.930 . S
H114 C149 0.931 . S
N115 Eu84 2.657 1_455 S
N115 C116 1.334 . S
N115 C120 1.362 . S
C116 H108 0.929 . S
C116 N115 1.334 . S
C116 C119 1.413 . S
C117 H111 0.930 . S
C117 C118 1.392 . S
C117 C119 1.367 . S
C118 C117 1.392 . S
C118 C120 1.420 . S
C118 C150 1.423 . S
C119 H105 0.930 . S
C119 C116 1.413 . S
C119 C117 1.367 . S
C120 N115 1.362 . S
C120 C118 1.420 . S
C120 C124 1.429 . S
H121 C126 0.930 . S
N122 Eu84 2.609 1_455 S
N122 C124 1.377 . S
N122 C125 1.321 1_445 S
C123 H109 0.930 . S
C123 C125 1.400 . S
C123 C126 1.386 1_665 S
C124 C120 1.429 . S
C124 N122 1.377 . S
C124 C127 1.411 . S
C125 H107 0.930 . S
C125 N122 1.321 1_665 S
C125 C123 1.400 . S
C126 H121 0.930 . S
C126 C123 1.386 1_445 S
C126 C127 1.395 . S
C127 C124 1.411 . S
C127 C126 1.395 . S
C127 C149 1.420 . S
O128 Eu84 2.558 . S
O128 C148 1.257 . S
O129 Eu84 2.612 1_565 S
O129 Eu95 2.380 1_655 S
O129 C140 1.276 . S
O130 Eu95 2.432 1_545 S
O130 C147 1.264 . S
O131 Eu84 2.339 1_455 S
O131 C147 1.254 . S
O132 Eu84 2.563 1_565 S
O132 C140 1.235 . S
O133 Eu84 2.419 . S
O133 C148 1.249 . S
O134 Eu95 2.558 1_545 S
O134 C159 1.257 1_545 S
O135 Eu84 2.380 1_455 S
O135 Eu95 2.612 1_545 S
O135 C151 1.276 . S
O136 Eu84 2.432 1_565 S
O136 C158 1.264 . S
O137 Eu95 2.339 1_655 S
O137 C158 1.254 . S
O138 Eu95 2.563 1_545 S
O138 C151 1.235 . S
O139 Eu95 2.419 . S
O139 C159 1.249 . S
C140 O129 1.276 . S
C140 O132 1.235 . S
C141 C143 1.393 . S
C141 C145 1.395 . S
C141 C148 1.492 . S
C142 C143 1.392 . S
C142 C144 1.386 . S
C143 C141 1.393 . S
C143 C142 1.392 . S
C143 H160 0.930 . S
C144 C142 1.386 . S
C144 C146 1.395 . S
C144 H161 0.930 . S
C145 C141 1.395 . S
C145 C146 1.379 . S
C145 H162 0.930 . S
C146 C144 1.395 . S
C146 C145 1.379 . S
C146 H163 0.930 . S
C147 O130 1.264 . S
C147 O131 1.254 . S
C148 Eu84 2.848 . S
C148 O128 1.257 . S
C148 O133 1.249 . S
C148 C141 1.492 . S
C149 H114 0.931 . S
C149 C127 1.420 . S
C149 C150 1.351 . S
C150 H112 0.930 . S
C150 C118 1.423 . S
C150 C149 1.351 . S
C151 O135 1.276 . S
C151 O138 1.235 . S
C152 C153 1.393 . S
C152 C156 1.395 . S
C152 C159 1.492 . S
C153 C152 1.393 . S
C153 C154 1.392 . S
C153 H164 0.930 . S
C154 C153 1.392 . S
C154 C155 1.386 . S
C155 C154 1.386 . S
C155 C157 1.395 . S
C155 H165 0.930 . S
C156 C152 1.395 . S
C156 C157 1.379 . S
C156 H166 0.930 1_565 S
C157 C155 1.395 . S
C157 C156 1.379 . S
C157 H167 0.930 . S
C158 O136 1.264 . S
C158 O137 1.254 . S
C159 Eu95 2.848 . S
C159 O134 1.257 1_565 S
C159 O139 1.249 . S
C159 C152 1.492 . S
H160 C143 0.930 . S
H161 C144 0.930 . S
H162 C145 0.930 . S
H163 C146 0.930 . S
H164 C153 0.930 . S
H165 C155 0.930 . S
H166 C156 0.930 1_545 S
H167 C157 0.930 . S
Zn168 O174 1.920 . S
Zn168 O180 1.898 . S
Zn168 O183 1.905 . S
Zn169 O177 1.905 . S
Zn169 O178 1.898 . S
Zn169 O186 1.920 . S
Zn170 O173 2.080 . S
Zn170 O176 2.114 . S
Zn170 O179 2.120 . S
Zn170 O181 2.120 . S
Zn170 O182 2.114 . S
Zn170 O185 2.080 . S
C171 O176 1.166 . S
C171 O177 1.182 . S
C172 O178 1.167 . S
C172 O179 1.299 . S
O173 Zn170 2.080 . S
O173 C187 1.305 . S
O174 Zn168 1.920 . S
O174 C187 1.234 . S
C175 O180 1.167 . S
C175 O181 1.299 . S
O176 Zn170 2.114 . S
O176 C171 1.166 . S
O177 Zn169 1.905 . S
O177 C171 1.182 . S
O178 Zn169 1.898 . S
O178 C172 1.167 . S
O179 Zn170 2.120 . S
O179 C172 1.299 . S
O180 Zn168 1.898 . S
O180 C175 1.167 . S
O181 Zn170 2.120 . S
O181 C175 1.299 . S
O182 Zn170 2.114 . S
O182 C184 1.166 . S
O183 Zn168 1.905 . S
O183 C184 1.182 . S
C184 O182 1.166 . S
C184 O183 1.182 . S
O185 Zn170 2.080 . S
O185 C188 1.305 . S
O186 Zn169 1.920 . S
O186 C188 1.234 . S
C187 O173 1.305 . S
C187 O174 1.234 . S
C188 O185 1.305 . S
C188 O186 1.234 . S
Zn189 O195 1.920 . S
Zn189 O201 1.898 . S
Zn189 O204 1.905 . S
Zn190 O198 1.905 . S
Zn190 O199 1.898 . S
Zn190 O207 1.920 . S
Zn191 O194 2.080 . S
Zn191 O197 2.114 . S
Zn191 O200 2.120 . S
Zn191 O202 2.120 . S
Zn191 O203 2.114 . S
Zn191 O206 2.080 . S
C192 O197 1.166 . S
C192 O198 1.182 . S
C193 O199 1.167 . S
C193 O200 1.299 . S
O194 Zn191 2.080 . S
O194 C208 1.305 . S
O195 Zn189 1.920 . S
O195 C208 1.234 . S
C196 O201 1.167 . S
C196 O202 1.299 . S
O197 Zn191 2.114 . S
O197 C192 1.166 . S
O198 Zn190 1.905 . S
O198 C192 1.182 . S
O199 Zn190 1.898 . S
O199 C193 1.167 . S
O200 Zn191 2.120 . S
O200 C193 1.299 . S
O201 Zn189 1.898 . S
O201 C196 1.167 . S
O202 Zn191 2.120 . S
O202 C196 1.299 . S
O203 Zn191 2.114 . S
O203 C205 1.166 . S
O204 Zn189 1.905 . S
O204 C205 1.182 . S
C205 O203 1.166 . S
C205 O204 1.182 . S
O206 Zn191 2.080 . S
O206 C209 1.305 . S
O207 Zn190 1.920 . S
O207 C209 1.234 . S
C208 O194 1.305 . S
C208 O195 1.234 . S
C209 O206 1.305 . S
C209 O207 1.234 . S
C210 C211 1.386 . S
C210 C212 1.383 . S
C210 H226 0.951 . S
C211 C210 1.386 . S
C211 C215 1.383 . S
C212 C210 1.383 . S
C212 C213 1.402 . S
C212 H227 0.951 . S
C213 C212 1.402 . S
C213 C214 1.375 . S
C213 C216 1.481 . S
C214 C213 1.375 . S
C214 C215 1.367 . S
C214 H228 0.951 . S
C215 C211 1.383 . S
C215 C214 1.367 . S
C215 H229 0.950 . S
C216 C213 1.481 . S
C216 C217 1.297 . S
C216 H230 0.950 . S
C217 C216 1.297 . S
C217 C218 1.479 . S
C217 H231 0.950 . S
C218 C217 1.479 . S
C218 C219 1.375 . S
C218 C224 1.404 . S
C219 C218 1.375 . S
C219 C220 1.369 . S
C219 H232 0.950 . S
C220 C219 1.369 . S
C220 C221 1.392 . S
C220 H233 0.951 . S
C221 C220 1.392 . S
C221 C223 1.384 . S
H222 C224 0.949 . S
C223 C221 1.384 . S
C223 C224 1.385 . S
C223 H225 0.950 . S
C224 C218 1.404 . S
C224 H222 0.949 . S
C224 C223 1.385 . S
H225 C223 0.950 . S
H226 C210 0.951 . S
H227 C212 0.951 . S
H228 C214 0.951 . S
H229 C215 0.950 . S
H230 C216 0.950 . S
H231 C217 0.950 . S
H232 C219 0.950 . S
H233 C220 0.951 . S
C234 C235 1.386 . S
C234 C236 1.383 . S
C234 H250 0.951 . S
C235 C234 1.386 . S
C235 C239 1.383 . S
C236 C234 1.383 . S
C236 C237 1.402 . S
C236 H251 0.951 . S
C237 C236 1.402 . S
C237 C238 1.375 . S
C237 C240 1.481 . S
C238 C237 1.375 . S
C238 C239 1.367 . S
C238 H252 0.951 . S
C239 C235 1.383 . S
C239 C238 1.367 . S
C239 H253 0.950 . S
C240 C237 1.481 . S
C240 C241 1.297 . S
C240 H254 0.950 . S
C241 C240 1.297 . S
C241 C242 1.479 . S
C241 H255 0.950 . S
C242 C241 1.479 . S
C242 C243 1.375 . S
C242 C248 1.404 . S
C243 C242 1.375 . S
C243 C244 1.369 . S
C243 H256 0.950 . S
C244 C243 1.369 . S
C244 C245 1.392 . S
C244 H257 0.951 . S
C245 C244 1.392 . S
C245 C247 1.384 . S
H246 C248 0.949 . S
C247 C245 1.384 . S
C247 C248 1.385 . S
C247 H249 0.950 . S
C248 C242 1.404 . S
C248 H246 0.949 . S
C248 C247 1.385 . S
H249 C247 0.950 . S
H250 C234 0.951 . S
H251 C236 0.951 . S
H252 C238 0.951 . S
H253 C239 0.950 . S
H254 C240 0.950 . S
H255 C241 0.950 . S
H256 C243 0.950 . S
H257 C244 0.951 . S
C258 C259 1.386 . S
C258 C260 1.383 . S
C258 H274 0.951 . S
C259 C258 1.386 . S
C259 C263 1.383 . S
C260 C258 1.383 . S
C260 C261 1.402 . S
C260 H275 0.951 . S
C261 C260 1.402 . S
C261 C262 1.375 . S
C261 C264 1.481 . S
C262 C261 1.375 . S
C262 C263 1.367 . S
C262 H276 0.951 . S
C263 C259 1.383 . S
C263 C262 1.367 . S
C263 H277 0.950 . S
C264 C261 1.481 . S
C264 C265 1.297 . S
C264 H278 0.950 . S
C265 C264 1.297 . S
C265 C266 1.479 . S
C265 H279 0.950 . S
C266 C265 1.479 . S
C266 C267 1.375 . S
C266 C272 1.404 . S
C267 C266 1.375 . S
C267 C268 1.369 . S
C267 H280 0.950 . S
C268 C267 1.369 . S
C268 C269 1.392 . S
C268 H281 0.951 . S
C269 C268 1.392 . S
C269 C271 1.384 . S
H270 C272 0.949 . S
C271 C269 1.384 . S
C271 C272 1.385 . S
C271 H273 0.950 . S
C272 C266 1.404 . S
C272 H270 0.949 . S
C272 C271 1.385 . S
H273 C271 0.950 . S
H274 C258 0.951 . S
H275 C260 0.951 . S
H276 C262 0.951 . S
H277 C263 0.950 . S
H278 C264 0.950 . S
H279 C265 0.950 . S
H280 C267 0.950 . S
H281 C268 0.951 . S
C282 C283 1.386 . S
C282 C284 1.383 . S
C282 H298 0.951 . S
C283 C282 1.386 . S
C283 C287 1.383 . S
C284 C282 1.383 . S
C284 C285 1.402 . S
C284 H299 0.951 . S
C285 C284 1.402 . S
C285 C286 1.375 . S
C285 C288 1.481 . S
C286 C285 1.375 . S
C286 C287 1.367 . S
C286 H300 0.951 . S
C287 C283 1.383 . S
C287 C286 1.367 . S
C287 H301 0.950 . S
C288 C285 1.481 . S
C288 C289 1.297 . S
C288 H302 0.950 . S
C289 C288 1.297 . S
C289 C290 1.479 . S
C289 H303 0.950 . S
C290 C289 1.479 . S
C290 C291 1.375 . S
C290 C296 1.404 . S
C291 C290 1.375 . S
C291 C292 1.369 . S
C291 H304 0.950 . S
C292 C291 1.369 . S
C292 C293 1.392 . S
C292 H305 0.951 . S
C293 C292 1.392 . S
C293 C295 1.384 . S
H294 C296 0.949 . S
C295 C293 1.384 . S
C295 C296 1.385 . S
C295 H297 0.950 . S
C296 C290 1.404 . S
C296 H294 0.949 . S
C296 C295 1.385 . S
H297 C295 0.950 . S
H298 C282 0.951 . S
H299 C284 0.951 . S
H300 C286 0.951 . S
H301 C287 0.950 . S
H302 C288 0.950 . S
H303 C289 0.950 . S
H304 C291 0.950 . S
H305 C292 0.951 . S
C306 C307 1.386 . S
C306 C308 1.383 . S
C306 H322 0.951 1_565 S
C307 C306 1.386 . S
C307 C311 1.383 . S
C308 C306 1.383 . S
C308 C309 1.402 . S
C308 H323 0.951 . S
C309 C308 1.402 . S
C309 C310 1.375 . S
C309 C312 1.481 . S
C310 C309 1.375 . S
C310 C311 1.367 . S
C310 H324 0.951 . S
C311 C307 1.383 . S
C311 C310 1.367 . S
C311 H325 0.950 . S
C312 C309 1.481 . S
C312 C313 1.297 . S
C312 H326 0.950 . S
C313 C312 1.297 . S
C313 C314 1.479 . S
C313 H327 0.950 . S
C314 C313 1.479 . S
C314 C315 1.375 . S
C314 C320 1.404 . S
C315 C314 1.375 . S
C315 C316 1.369 . S
C315 H328 0.950 . S
C316 C315 1.369 . S
C316 C317 1.392 . S
C316 H329 0.951 . S
C317 C316 1.392 . S
C317 C319 1.384 . S
H318 C320 0.949 . S
C319 C317 1.384 . S
C319 C320 1.385 . S
C319 H321 0.950 . S
C320 C314 1.404 . S
C320 H318 0.949 . S
C320 C319 1.385 . S
H321 C319 0.950 . S
H322 C306 0.951 1_545 S
H323 C308 0.951 . S
H324 C310 0.951 . S
H325 C311 0.950 . S
H326 C312 0.950 . S
H327 C313 0.950 . S
H328 C315 0.950 . S
H329 C316 0.951 . S
C330 C331 1.386 . S
C330 C332 1.383 . S
C330 H346 0.951 1_655 S
C331 C330 1.386 . S
C331 C335 1.383 . S
C332 C330 1.383 . S
C332 C333 1.402 . S
C332 H347 0.951 . S
C333 C332 1.402 . S
C333 C334 1.375 . S
C333 C336 1.481 . S
C334 C333 1.375 . S
C334 C335 1.367 . S
C334 H348 0.951 . S
C335 C331 1.383 . S
C335 C334 1.367 . S
C335 H349 0.950 . S
C336 C333 1.481 . S
C336 C337 1.297 . S
C336 H350 0.950 . S
C337 C336 1.297 . S
C337 C338 1.479 . S
C337 H351 0.950 . S
C338 C337 1.479 . S
C338 C339 1.375 . S
C338 C344 1.404 . S
C339 C338 1.375 . S
C339 C340 1.369 . S
C339 H352 0.950 . S
C340 C339 1.369 . S
C340 C341 1.392 . S
C340 H353 0.951 . S
C341 C340 1.392 . S
C341 C343 1.384 . S
H342 C344 0.949 . S
C343 C341 1.384 . S
C343 C344 1.385 . S
C343 H345 0.950 . S
C344 C338 1.404 . S
C344 H342 0.949 . S
C344 C343 1.385 . S
H345 C343 0.950 . S
H346 C330 0.951 1_455 S
H347 C332 0.951 . S
H348 C334 0.951 . S
H349 C335 0.950 . S
H350 C336 0.950 . S
H351 C337 0.950 . S
H352 C339 0.950 . S
H353 C340 0.951 . S
C354 C355 1.386 . S
C354 C356 1.383 . S
C354 H370 0.951 . S
C355 C354 1.386 . S
C355 C359 1.383 . S
C356 C354 1.383 . S
C356 C357 1.402 . S
C356 H371 0.951 . S
C357 C356 1.402 . S
C357 C358 1.375 . S
C357 C360 1.481 . S
C358 C357 1.375 . S
C358 C359 1.367 . S
C358 H372 0.951 . S
C359 C355 1.383 . S
C359 C358 1.367 . S
C359 H373 0.950 . S
C360 C357 1.481 . S
C360 C361 1.297 . S
C360 H374 0.950 . S
C361 C360 1.297 . S
C361 C362 1.479 . S
C361 H375 0.950 . S
C362 C361 1.479 . S
C362 C363 1.375 . S
C362 C368 1.404 . S
C363 C362 1.375 . S
C363 C364 1.369 . S
C363 H376 0.950 . S
C364 C363 1.369 . S
C364 C365 1.392 . S
C364 H377 0.951 . S
C365 C364 1.392 . S
C365 C367 1.384 . S
H366 C368 0.949 . S
C367 C365 1.384 . S
C367 C368 1.385 . S
C367 H369 0.950 . S
C368 C362 1.404 . S
C368 H366 0.949 . S
C368 C367 1.385 . S
H369 C367 0.950 . S
H370 C354 0.951 . S
H371 C356 0.951 . S
H372 C358 0.951 . S
H373 C359 0.950 . S
H374 C360 0.950 . S
H375 C361 0.950 . S
H376 C363 0.950 . S
H377 C364 0.951 . S
C378 C379 1.386 . S
C378 C380 1.383 . S
C378 H394 0.951 . S
C379 C378 1.386 . S
C379 C383 1.383 . S
C380 C378 1.383 . S
C380 C381 1.402 . S
C380 H395 0.951 . S
C381 C380 1.402 . S
C381 C382 1.375 . S
C381 C384 1.481 . S
C382 C381 1.375 . S
C382 C383 1.367 . S
C382 H396 0.951 . S
C383 C379 1.383 . S
C383 C382 1.367 . S
C383 H397 0.950 1_545 S
C384 C381 1.481 . S
C384 C385 1.297 . S
C384 H398 0.950 . S
C385 C384 1.297 . S
C385 C386 1.479 . S
C385 H399 0.950 . S
C386 C385 1.479 . S
C386 C387 1.375 . S
C386 C392 1.404 . S
C387 C386 1.375 . S
C387 C388 1.369 . S
C387 H400 0.950 . S
C388 C387 1.369 . S
C388 C389 1.392 . S
C388 H401 0.951 . S
C389 C388 1.392 . S
C389 C391 1.384 . S
H390 C392 0.949 . S
C391 C389 1.384 . S
C391 C392 1.385 . S
C391 H393 0.950 . S
C392 C386 1.404 . S
C392 H390 0.949 . S
C392 C391 1.385 . S
H393 C391 0.950 . S
H394 C378 0.951 . S
H395 C380 0.951 . S
H396 C382 0.951 . S
H397 C383 0.950 1_565 S
H398 C384 0.950 . S
H399 C385 0.950 . S
H400 C387 0.950 . S
H401 C388 0.951 . S
C402 C403 1.386 . S
C402 C404 1.383 . S
C402 H418 0.951 . S
C403 C402 1.386 . S
C403 C407 1.383 . S
C404 C402 1.383 . S
C404 C405 1.402 . S
C404 H419 0.951 . S
C405 C404 1.402 . S
C405 C406 1.375 . S
C405 C408 1.481 . S
C406 C405 1.375 . S
C406 C407 1.367 . S
C406 H420 0.951 . S
C407 C403 1.383 . S
C407 C406 1.367 . S
C407 H421 0.950 . S
C408 C405 1.481 . S
C408 C409 1.297 . S
C408 H422 0.950 . S
C409 C408 1.297 . S
C409 C410 1.479 . S
C409 H423 0.950 . S
C410 C409 1.479 . S
C410 C411 1.375 . S
C410 C416 1.404 . S
C411 C410 1.375 . S
C411 C412 1.369 . S
C411 H424 0.950 . S
C412 C411 1.369 . S
C412 C413 1.392 . S
C412 H425 0.951 . S
C413 C412 1.392 . S
C413 C415 1.384 . S
H414 C416 0.949 . S
C415 C413 1.384 . S
C415 C416 1.385 . S
C415 H417 0.950 . S
C416 C410 1.404 . S
C416 H414 0.949 . S
C416 C415 1.385 . S
H417 C415 0.950 . S
H418 C402 0.951 . S
H419 C404 0.951 . S
H420 C406 0.951 . S
H421 C407 0.950 . S
H422 C408 0.950 . S
H423 C409 0.950 . S
H424 C411 0.950 . S
H425 C412 0.951 . S
C426 C427 1.386 . S
C426 C428 1.383 . S
C426 H442 0.951 . S
C427 C426 1.386 . S
C427 C431 1.383 . S
C428 C426 1.383 . S
C428 C429 1.402 . S
C428 H443 0.951 . S
C429 C428 1.402 . S
C429 C430 1.375 . S
C429 C432 1.481 . S
C430 C429 1.375 . S
C430 C431 1.367 . S
C430 H444 0.951 . S
C431 C427 1.383 . S
C431 C430 1.367 . S
C431 H445 0.950 . S
C432 C429 1.481 . S
C432 C433 1.297 . S
C432 H446 0.950 . S
C433 C432 1.297 . S
C433 C434 1.479 . S
C433 H447 0.950 . S
C434 C433 1.479 . S
C434 C435 1.375 . S
C434 C440 1.404 . S
C435 C434 1.375 . S
C435 C436 1.369 . S
C435 H448 0.950 . S
C436 C435 1.369 . S
C436 C437 1.392 . S
C436 H449 0.951 . S
C437 C436 1.392 . S
C437 C439 1.384 . S
H438 C440 0.949 . S
C439 C437 1.384 . S
C439 C440 1.385 . S
C439 H441 0.950 . S
C440 C434 1.404 . S
C440 H438 0.949 . S
C440 C439 1.385 . S
H441 C439 0.950 . S
H442 C426 0.951 . S
H443 C428 0.951 . S
H444 C430 0.951 . S
H445 C431 0.950 . S
H446 C432 0.950 . S
H447 C433 0.950 . S
H448 C435 0.950 . S
H449 C436 0.951 . S
C450 C451 1.386 . S
C450 C452 1.383 . S
C450 H466 0.951 . S
C451 C450 1.386 . S
C451 C455 1.383 . S
C452 C450 1.383 . S
C452 C453 1.402 . S
C452 H467 0.951 . S
C453 C452 1.402 . S
C453 C454 1.375 . S
C453 C456 1.481 . S
C454 C453 1.375 . S
C454 C455 1.367 . S
C454 H468 0.951 . S
C455 C451 1.383 . S
C455 C454 1.367 . S
C455 H469 0.948 . S
C456 C453 1.481 . S
C456 C457 1.297 . S
C456 H470 0.950 . S
C457 C456 1.297 . S
C457 C458 1.479 . S
C457 H471 0.950 . S
C458 C457 1.479 . S
C458 C459 1.375 . S
C458 C464 1.404 . S
C459 C458 1.375 . S
C459 C460 1.369 . S
C459 H472 0.950 . S
C460 C459 1.369 . S
C460 C461 1.392 . S
C460 H473 0.951 . S
C461 C460 1.392 . S
C461 C463 1.384 . S
H462 C464 0.949 . S
C463 C461 1.384 . S
C463 C464 1.385 . S
C463 H465 0.950 . S
C464 C458 1.404 . S
C464 H462 0.949 . S
C464 C463 1.385 . S
H465 C463 0.950 . S
H466 C450 0.951 . S
H467 C452 0.951 . S
H468 C454 0.951 . S
H469 C455 0.948 . S
H470 C456 0.950 . S
H471 C457 0.950 . S
H472 C459 0.950 . S
H473 C460 0.951 . S
C474 C475 1.386 . S
C474 C476 1.383 . S
C474 H490 0.951 . S
C475 C474 1.386 . S
C475 C479 1.383 . S
C476 C474 1.383 . S
C476 C477 1.402 . S
C476 H491 0.951 . S
C477 C476 1.402 . S
C477 C478 1.375 . S
C477 C480 1.481 . S
C478 C477 1.375 . S
C478 C479 1.367 . S
C478 H492 0.951 . S
C479 C475 1.383 . S
C479 C478 1.367 . S
C479 H493 0.950 1_655 S
C480 C477 1.481 . S
C480 C481 1.297 . S
C480 H494 0.950 . S
C481 C480 1.297 . S
C481 C482 1.479 . S
C481 H495 0.950 . S
C482 C481 1.479 . S
C482 C483 1.375 . S
C482 C488 1.404 . S
C483 C482 1.375 . S
C483 C484 1.369 . S
C483 H496 0.950 . S
C484 C483 1.369 . S
C484 C485 1.392 . S
C484 H497 0.951 . S
C485 C484 1.392 . S
C485 C487 1.384 . S
H486 C488 0.949 . S
C487 C485 1.384 . S
C487 C488 1.385 . S
C487 H489 0.950 . S
C488 C482 1.404 . S
C488 H486 0.949 . S
C488 C487 1.385 . S
H489 C487 0.950 . S
H490 C474 0.951 . S
H491 C476 0.951 . S
H492 C478 0.951 . S
H493 C479 0.950 1_455 S
H494 C480 0.950 . S
H495 C481 0.950 . S
H496 C483 0.950 . S
H497 C484 0.951 . S
C211 C58 1.190 . S
C221 C187 1.305 . S
C235 C151 1.534 . S
C245 C193 1.472 . S
C259 C74 1.528 . S
C269 C184 1.510 . S
C283 C142 1.078 . S
C293 C209 1.224 . S
C307 C67 1.534 . S
C317 C175 1.432 . S
C341 C192 1.517 . S
C331 C158 1.523 . S
C355 C154 1.185 . S
C365 C188 1.278 . S
C389 C205 1.406 . S
C379 C56 1.549 . S
C413 C172 1.369 . S
C403 C147 1.531 . S
C437 C208 1.185 . S
C427 C70 1.134 . S
C461 C171 1.440 . S
C451 C140 1.584 . S
C485 C196 1.467 . S
C475 C63 1.560 . S
