# Generated by pormake.
# Topology anh, (6,3)-cn, num edge types: 1
# Building blocks:
#     Node 0, Type 0, BuildingBlock: INOVEN_clean_sbu_0, # of connection points: 6
#     Node 1, Type 0, BuildingBlock: INOVEN_clean_sbu_0, # of connection points: 6
#     Node 2, Type 0, BuildingBlock: INOVEN_clean_sbu_0, # of connection points: 6
#     Node 3, Type 1, BuildingBlock: WUSLED_clean_sbu_0, # of connection points: 3
#     Node 4, Type 1, BuildingBlock: WUSLED_clean_sbu_0, # of connection points: 3
#     Node 5, Type 1, BuildingBlock: WUSLED_clean_sbu_0, # of connection points: 3
#     Node 6, Type 1, BuildingBlock: WUSLED_clean_sbu_0, # of connection points: 3
#     Node 7, Type 1, BuildingBlock: WUSLED_clean_sbu_0, # of connection points: 3
#     Node 8, Type 1, BuildingBlock: WUSLED_clean_sbu_0, # of connection points: 3
#     Edge 9, Type (0, 1), BuildingBlock: EZIPEK_clean_linker_0, # of connection points: 2
#     Edge 10, Type (0, 1), BuildingBlock: EZIPEK_clean_linker_0, # of connection points: 2
#     Edge 11, Type (0, 1), BuildingBlock: EZIPEK_clean_linker_0, # of connection points: 2
#     Edge 12, Type (0, 1), BuildingBlock: EZIPEK_clean_linker_0, # of connection points: 2
#     Edge 13, Type (0, 1), BuildingBlock: EZIPEK_clean_linker_0, # of connection points: 2
#     Edge 14, Type (0, 1), BuildingBlock: EZIPEK_clean_linker_0, # of connection points: 2
#     Edge 15, Type (0, 1), BuildingBlock: EZIPEK_clean_linker_0, # of connection points: 2
#     Edge 16, Type (0, 1), BuildingBlock: EZIPEK_clean_linker_0, # of connection points: 2
#     Edge 17, Type (0, 1), BuildingBlock: EZIPEK_clean_linker_0, # of connection points: 2
#     Edge 18, Type (0, 1), BuildingBlock: EZIPEK_clean_linker_0, # of connection points: 2
#     Edge 19, Type (0, 1), BuildingBlock: EZIPEK_clean_linker_0, # of connection points: 2
#     Edge 20, Type (0, 1), BuildingBlock: EZIPEK_clean_linker_0, # of connection points: 2
#     Edge 21, Type (0, 1), BuildingBlock: EZIPEK_clean_linker_0, # of connection points: 2
#     Edge 22, Type (0, 1), BuildingBlock: EZIPEK_clean_linker_0, # of connection points: 2
#     Edge 23, Type (0, 1), BuildingBlock: EZIPEK_clean_linker_0, # of connection points: 2
#     Edge 24, Type (0, 1), BuildingBlock: EZIPEK_clean_linker_0, # of connection points: 2
#     Edge 25, Type (0, 1), BuildingBlock: EZIPEK_clean_linker_0, # of connection points: 2
#     Edge 26, Type (0, 1), BuildingBlock: EZIPEK_clean_linker_0, # of connection points: 2
# Relax obj value: 0.190
# Max RMSD: 0.219
# Mean RMSD: 0.158
data_MOF--net-anh--node1-INOVEN_clean_sbu_0--node2-WUSLED_clean_sbu_0--edge1-EZIPEK_clean_linker_0
_symmetry_space_group_name_H-M    P1
_symmetry_Int_Tables_number       1
_symmetry_cell_setting            triclinic
loop_
_symmetry_equiv_pos_as_xyz
'x, y, z'
_cell_length_a     33.179043
_cell_length_b     38.365011
_cell_length_c     55.502517
_cell_angle_alpha  92.890261
_cell_angle_beta   89.075193
_cell_angle_gamma 129.75535
loop_
_atom_site_label
_atom_site_type_symbol
_atom_site_fract_x
_atom_site_fract_y
_atom_site_fract_z
_atom_type_partial_charge
Gd0 Gd 0.1007 0.51381 0.16786 0.0
Gd1 Gd 1.04424 0.54265 0.162 0.0
C2 C 0.1719 0.6207 0.16976 0.0
C3 C 0.14165 0.47507 0.16951 0.0
C4 C 0.19298 0.49009 0.17622 0.0
C5 C 0.20165 0.45896 0.17401 0.0
C6 C 0.23503 0.53632 0.18147 0.0
C7 C 0.29501 0.52147 0.17488 0.0
C8 C 0.28635 0.55209 0.18096 0.0
C9 C 0.25273 0.47463 0.17352 0.0
C10 C 0.0785 0.53379 0.21116 0.0
C11 C 0.97586 0.43678 0.16442 0.0
C12 C 0.99603 0.57473 0.16657 0.0
C13 C 0.94539 0.5541 0.17763 0.0
C14 C 0.90973 0.55604 0.16612 0.0
C15 C 0.92917 0.5262 0.19726 0.0
C16 C 0.84091 0.49916 0.19206 0.0
C17 C 0.87719 0.49918 0.20462 0.0
C18 C 0.85775 0.52868 0.17328 0.0
C19 C 0.06613 0.5235 0.11779 0.0
O20 O 0.17364 0.58739 0.16651 0.0
O21 O 0.12585 0.61116 0.17003 0.0
O22 O 0.11523 0.47505 0.18707 0.0
O23 O 0.14007 0.49192 0.15001 0.0
O24 O 0.12407 0.54724 0.20515 0.0
O25 O 1.04672 0.51172 0.19353 0.0
O26 O 0.97635 0.47041 0.17132 0.0
O27 O 1.02009 0.44697 0.15704 0.0
O28 O 0.99313 0.55304 0.1469 0.0
O29 O 1.03409 0.58706 0.18119 0.0
O30 O 1.0213 0.51153 0.12406 0.0
O31 O 0.0981 0.54507 0.13562 0.0
H32 H 0.16932 0.42311 0.17041 0.0
H33 H 0.22846 0.56055 0.18363 0.0
H34 H 0.31874 0.58832 0.18203 0.0
H35 H 0.25911 0.45069 0.169 0.0
H36 H 0.92142 0.57686 0.15078 0.0
H37 H 0.95596 0.52363 0.20614 0.0
H38 H 0.8647 0.47673 0.21922 0.0
H39 H 0.83006 0.52913 0.16353 0.0
Gd40 Gd 0.59431 1.00653 0.47946 0.0
Gd41 Gd 0.53268 0.04009 0.47869 0.0
C42 C 0.46548 0.93136 0.4746 0.0
C43 C 0.63063 0.9672 0.4928 0.0
C44 C 0.61531 0.92176 0.49549 0.0
C45 C 0.64622 0.91214 0.48491 0.0
C46 C 0.57324 0.88927 0.50995 0.0
C47 C 0.59557 0.83994 0.50424 0.0
C48 C 0.56353 0.84874 0.5143 0.0
C49 C 0.63641 0.87166 0.48919 0.0
C50 C 0.57793 0.02043 0.4347 0.0
C51 C 0.66201 0.11459 0.4778 0.0
C52 C 0.49758 0.08222 0.4695 0.0
C53 C 0.512 0.1267 0.47659 0.0
C54 C 0.54026 0.15059 0.49814 0.0
C55 C 0.49613 0.14502 0.46199 0.0
C56 C 0.53374 0.20902 0.49104 0.0
C57 C 0.50698 0.18592 0.46913 0.0
C58 C 0.55082 0.19133 0.50536 0.0
C59 C 0.55125 0.02766 0.5237 0.0
O60 O 0.51023 0.93995 0.47925 0.0
O61 O 0.46463 0.96492 0.47115 0.0
O62 O 0.63493 0.98019 0.47088 0.0
O63 O 0.61062 0.97989 0.5077 0.0
O64 O 0.61887 0.02553 0.44129 0.0
O65 O 0.54483 1.00375 0.45144 0.0
O66 O 0.61658 0.10586 0.47568 0.0
O67 O 0.66426 0.08197 0.48159 0.0
O68 O 0.47942 0.05348 0.48655 0.0
O69 O 0.5302 0.08285 0.45556 0.0
O70 O 0.51064 0.02323 0.51753 0.0
O71 O 0.58251 0.04326 0.5063 0.0
H72 H 0.67902 0.93661 0.47383 0.0
H73 H 0.54866 0.8956 0.5184 0.0
H74 H 0.53185 0.82476 0.52598 0.0
H75 H 0.66163 0.8656 0.48128 0.0
H76 H 0.55329 0.13732 0.5096 0.0
H77 H 0.4745 0.12726 0.44526 0.0
H78 H 0.49342 0.19898 0.45788 0.0
H79 H 0.57152 0.20867 0.52231 0.0
Gd80 Gd 0.63858 0.59475 0.84831 0.0
Gd81 Gd 0.56602 0.49274 0.84384 0.0
C82 C 0.50622 0.53815 0.85091 0.0
C83 C 0.68499 0.67885 0.83966 0.0
C84 C 0.67046 0.70706 0.83388 0.0
C85 C 0.7085 0.7546 0.83617 0.0
C86 C 0.6196 0.68755 0.82585 0.0
C87 C 0.64574 0.76273 0.82192 0.0
C88 C 0.60746 0.7151 0.81978 0.0
C89 C 0.69628 0.78213 0.83034 0.0
C90 C 0.62028 0.55502 0.89021 0.0
C91 C 0.69883 0.54941 0.84844 0.0
C92 C 0.52148 0.40783 0.84817 0.0
C93 C 0.53234 0.37664 0.841 0.0
C94 C 0.55064 0.37674 0.81791 0.0
C95 C 0.52282 0.34526 0.85727 0.0
C96 C 0.54736 0.31345 0.82722 0.0
C97 C 0.53028 0.314 0.85047 0.0
C98 C 0.55788 0.34535 0.81109 0.0
C99 C 0.58967 0.53271 0.80112 0.0
O100 O 0.55514 0.57696 0.84732 0.0
O101 O 0.50098 0.50032 0.85237 0.0
O102 O 0.67491 0.66375 0.86138 0.0
O103 O 0.67472 0.64847 0.82309 0.0
O104 O 0.663 0.5956 0.88597 0.0
O105 O 0.58721 0.5411 0.87334 0.0
O106 O 0.64889 0.51005 0.847 0.0
O107 O 0.70531 0.58802 0.84791 0.0
O108 O 0.50993 0.42227 0.83088 0.0
O109 O 0.55213 0.4396 0.86488 0.0
O110 O 0.54462 0.49444 0.80577 0.0
O111 O 0.62121 0.54614 0.81863 0.0
H112 H 0.74792 0.77052 0.84238 0.0
H113 H 0.58927 0.65108 0.82419 0.0
H114 H 0.5682 0.69926 0.81337 0.0
H115 H 0.72646 0.8187 0.83219 0.0
H116 H 0.55868 0.40066 0.80501 0.0
H117 H 0.50883 0.34451 0.87517 0.0
H118 H 0.52186 0.28969 0.86319 0.0
H119 H 0.57109 0.34556 0.79308 0.0
C120 C 0.69553 0.15377 0.18059 0.0
C121 C 0.71303 0.18568 0.2001 0.0
C122 C 0.78658 0.24677 0.17652 0.0
C123 C 0.75816 0.23166 0.19809 0.0
C124 C 0.76905 0.21474 0.15717 0.0
C125 C 0.7243 0.169 0.1592 0.0
U126 U 0.581 0.03651 0.20924 0.0
O127 O 0.49832 0.98619 0.19639 0.0
O128 O 0.54962 0.96866 0.19382 0.0
C129 C 0.50283 0.95559 0.18932 0.0
C130 C 0.647 0.10495 0.18121 0.0
C131 C 0.4558 0.90607 0.18923 0.0
C132 C 0.40065 0.83254 0.16642 0.0
C133 C 0.44619 0.87837 0.16872 0.0
C134 C 0.37291 0.84008 0.20543 0.0
C135 C 0.36316 0.81271 0.18462 0.0
C136 C 0.41861 0.88635 0.20767 0.0
C137 C 0.58395 0.03573 0.28116 0.0
C138 C 0.52448 1.00593 0.31515 0.0
C139 C 0.61578 0.0417 0.3217 0.0
C140 C 0.62463 0.04902 0.29706 0.0
C141 C 0.56593 0.02077 0.33105 0.0
C142 C 0.53345 0.01351 0.29037 0.0
C143 C 0.59805 0.05176 0.25626 0.0
O144 O 0.65257 0.07559 0.1873 0.0
O145 O 0.60402 0.09564 0.18973 0.0
O146 O 0.56787 0.05653 0.24448 0.0
O147 O 0.61885 0.03847 0.2423 0.0
H148 H 0.69177 0.17514 0.21681 0.0
H149 H 0.77079 0.25553 0.21334 0.0
H150 H 0.79006 0.2252 0.14039 0.0
H151 H 0.71183 0.14538 0.14384 0.0
H152 H 0.39441 0.81254 0.15022 0.0
H153 H 0.4737 0.89255 0.15409 0.0
H154 H 0.34478 0.82578 0.21979 0.0
H155 H 0.42453 0.90672 0.22362 0.0
H156 H 0.48574 0.98982 0.32205 0.0
H157 H 0.64829 0.05358 0.33363 0.0
H158 H 0.66406 0.06687 0.29055 0.0
H159 H 0.50144 1.00334 0.27861 0.0
C160 C 0.5731 0.60997 0.53763 0.0
C161 C 0.56433 0.63116 0.55582 0.0
C162 C 0.57511 0.68243 0.52696 0.0
C163 C 0.56522 0.66705 0.55051 0.0
C164 C 0.58331 0.66087 0.50877 0.0
C165 C 0.58226 0.62495 0.51407 0.0
U166 U 0.58116 0.53905 0.5811 0.0
O167 O 0.53968 0.46575 0.57984 0.0
O168 O 0.62551 0.51415 0.57758 0.0
C169 C 0.58285 0.47128 0.57693 0.0
C170 C 0.57401 0.57299 0.54283 0.0
C171 C 0.58077 0.43967 0.55937 0.0
C172 C 0.5379 0.38188 0.52626 0.0
C173 C 0.54393 0.4167 0.54012 0.0
C174 C 0.60681 0.39385 0.54995 0.0
C175 C 0.56839 0.36941 0.53152 0.0
C176 C 0.61291 0.4286 0.56372 0.0
C177 C 0.59314 0.56887 0.65001 0.0
C178 C 0.61477 0.54129 0.68173 0.0
C179 C 0.59208 0.58833 0.69224 0.0
C180 C 0.58411 0.59011 0.6678 0.0
C181 C 0.61231 0.56735 0.6999 0.0
C182 C 0.60685 0.54313 0.65716 0.0
C183 C 0.58778 0.57426 0.62435 0.0
O184 O 0.61864 0.58595 0.55145 0.0
O185 O 0.53304 0.53839 0.55383 0.0
O186 O 0.54298 0.54126 0.61339 0.0
O187 O 0.62859 0.58992 0.61086 0.0
H188 H 0.55733 0.62025 0.57414 0.0
H189 H 0.55896 0.6833 0.56482 0.0
H190 H 0.5912 0.67226 0.49054 0.0
H191 H 0.58918 0.60913 0.49977 0.0
H192 H 0.50804 0.36343 0.51209 0.0
H193 H 0.5186 0.42448 0.53635 0.0
H194 H 0.63069 0.3848 0.55432 0.0
H195 H 0.6414 0.44563 0.5785 0.0
H196 H 0.62149 0.51827 0.68591 0.0
H197 H 0.5814 0.6033 0.70495 0.0
H198 H 0.57079 0.60827 0.6628 0.0
H199 H 0.61119 0.52425 0.64376 0.0
C200 C 0.97986 0.54649 0.86449 0.0
C201 C 0.9489 0.54193 0.88439 0.0
C202 C 0.88848 0.54799 0.85994 0.0
C203 C 0.90549 0.54273 0.88221 0.0
C204 C 0.91957 0.55236 0.84018 0.0
C205 C 0.96283 0.55172 0.84237 0.0
U206 U 0.10042 0.54187 0.88641 0.0
O207 O 0.12661 0.50499 0.86806 0.0
O208 O 0.18254 0.57768 0.87259 0.0
C209 C 0.17607 0.54111 0.86523 0.0
C210 C 1.02794 0.54536 0.8653 0.0
C211 C 0.22369 0.53936 0.86524 0.0
C212 C 0.27141 0.51379 0.8449 0.0
C213 C 0.22752 0.51376 0.84701 0.0
C214 C 0.31238 0.56475 0.87935 0.0
C215 C 0.31618 0.53923 0.86094 0.0
C216 C 0.26861 0.56518 0.88127 0.0
C217 C 0.09603 0.53706 0.96102 0.0
C218 C 0.14012 0.56847 1.00076 0.0
C219 C 1.04839 0.50221 0.99829 0.0
C220 C 1.04975 0.50296 0.97287 0.0
C221 C 0.09351 0.53501 0.01265 0.0
C222 C 0.14118 0.56979 0.97537 0.0
C223 C 0.09725 0.53853 0.93394 0.0
O224 O 0.07616 0.58088 0.87224 0.0
O225 O 1.02088 0.50807 0.86892 0.0
O226 O 0.06853 0.50195 0.91941 0.0
O227 O 0.1273 0.5768 0.92285 0.0
H228 H 0.95812 0.53765 0.90205 0.0
H229 H 0.88494 0.53923 0.89846 0.0
H230 H 0.91025 0.55619 0.82242 0.0
H231 H 0.98335 0.55525 0.8261 0.0
H232 H 0.27004 0.49328 0.83027 0.0
H233 H 0.19608 0.49354 0.83365 0.0
H234 H 0.34426 0.58543 0.89246 0.0
H235 H 0.2704 0.58641 0.89557 0.0
H236 H 0.1756 0.59412 0.01121 0.0
H237 H 1.01191 0.47594 0.0068 0.0
H238 H 1.01425 0.47719 0.96248 0.0
H239 H 0.1776 0.59636 0.96693 0.0
C240 C 0.94038 0.39759 0.46137 0.0
C241 C 0.89314 0.37877 0.44897 0.0
C242 C 0.84987 0.30463 0.46586 0.0
C243 C 0.8485 0.33274 0.45111 0.0
C244 C 0.89717 0.32331 0.47794 0.0
C245 C 0.94171 0.36904 0.47569 0.0
U246 U 0.05623 0.52282 0.43953 0.0
O247 O 0.13543 0.56939 0.45635 0.0
O248 O 0.08394 0.58647 0.45941 0.0
C249 C 0.13063 0.5995 0.46411 0.0
C250 C 0.98674 0.44736 0.46235 0.0
C251 C 0.17699 0.64868 0.46224 0.0
C252 C 0.23091 0.7258 0.48082 0.0
C253 C 0.18504 0.68009 0.48009 0.0
C254 C 0.26166 0.71047 0.44539 0.0
C255 C 0.27008 0.7415 0.46368 0.0
C256 C 0.21567 0.66451 0.4447 0.0
C257 C 1.05216 0.52397 0.36573 0.0
C258 C 1.03715 0.54818 0.32952 0.0
C259 C 0.0699 0.50709 0.32591 0.0
C260 C 0.06904 0.50469 0.35105 0.0
C261 C 0.05434 0.52914 0.31497 0.0
C262 C 1.03589 0.54549 0.35466 0.0
C263 C 1.05371 0.52345 0.39245 0.0
O264 O 1.03224 0.46014 0.45525 0.0
O265 O 0.97977 0.47632 0.45725 0.0
O266 O 1.02833 0.53201 0.40649 0.0
O267 O 0.07959 0.51357 0.40375 0.0
H268 H 0.89036 0.39975 0.43802 0.0
H269 H 0.81255 0.31924 0.44159 0.0
H270 H 0.89945 0.30257 0.48941 0.0
H271 H 0.97708 0.38253 0.48578 0.0
H272 H 0.23636 0.74881 0.49514 0.0
H273 H 0.15631 0.66892 0.49398 0.0
H274 H 0.29128 0.7216 0.43199 0.0
H275 H 0.21093 0.64123 0.4308 0.0
H276 H 1.02495 0.5653 0.3214 0.0
H277 H 0.08319 0.49211 0.31497 0.0
H278 H 0.08185 0.48793 0.35901 0.0
H279 H 1.02301 0.56093 0.36547 0.0
C280 C 0.59648 0.95157 0.78701 0.0
C281 C 0.57783 0.91475 0.77058 0.0
C282 C 0.60776 0.88646 0.79752 0.0
C283 C 0.58331 0.88243 0.77582 0.0
C284 C 0.62612 0.92317 0.81392 0.0
C285 C 0.62048 0.9553 0.80872 0.0
U286 U 0.58425 0.02215 0.7447 0.0
O287 O 0.53788 0.04494 0.74856 0.0
O288 O 0.62373 0.09538 0.7474 0.0
C289 C 0.57952 0.08828 0.74965 0.0
C290 C 0.59149 0.98645 0.78213 0.0
C291 C 0.5793 0.11998 0.76622 0.0
C292 C 0.5371 0.13524 0.7964 0.0
C293 C 0.54129 0.10475 0.78403 0.0
C294 C 0.60957 0.19678 0.77394 0.0
C295 C 0.57041 0.18138 0.79102 0.0
C296 C 0.61394 0.16648 0.76172 0.0
C297 C 0.58218 1.00059 0.67517 0.0
C298 C 0.55065 0.01877 0.64268 0.0
C299 C 0.60531 0.99868 0.63346 0.0
C300 C 0.60818 0.99346 0.65802 0.0
C301 C 0.57627 1.01108 0.62554 0.0
C302 C 0.55366 0.01366 0.66732 0.0
C303 C 0.58403 0.99233 0.7008 0.0
O304 O 0.63219 0.02337 0.77243 0.0
O305 O 0.5466 0.97184 0.77276 0.0
O306 O 0.54133 0.97423 0.71329 0.0
O307 O 0.62713 0.02449 0.71313 0.0
H308 H 0.55921 0.91106 0.7537 0.0
H309 H 0.56885 0.85445 0.76288 0.0
H310 H 0.64512 0.92709 0.83072 0.0
H311 H 0.6351 0.98328 0.8217 0.0
H312 H 0.50662 0.12256 0.80953 0.0
H313 H 0.5137 0.06913 0.78782 0.0
H314 H 0.63568 0.23209 0.76945 0.0
H315 H 0.64318 0.17917 0.74793 0.0
H316 H 0.52796 0.02828 0.63693 0.0
H317 H 0.62517 0.99243 0.62057 0.0
H318 H 0.63024 0.98322 0.66362 0.0
H319 H 0.53327 0.01939 0.68017 0.0
C320 C 0.56438 0.40236 0.14147 0.0
C321 C 0.60854 0.40998 0.13181 0.0
C322 C 0.6342 0.40679 0.17172 0.0
C323 C 0.64348 0.41257 0.14691 0.0
C324 C 0.58648 0.39303 0.18077 0.0
C325 C 0.55201 0.39165 0.16571 0.0
U326 U 0.54026 0.43553 0.08341 0.0
O327 O 0.4746 0.43154 0.07131 0.0
O328 O 0.55255 0.49802 0.07835 0.0
C329 C 0.50241 0.47581 0.07441 0.0
C330 C 0.53892 0.41562 0.12805 0.0
C331 C 0.48046 0.49103 0.09046 0.0
C332 C 0.42919 0.48023 0.12523 0.0
C333 C 0.44896 0.46497 0.10973 0.0
C334 C 0.4753 0.54928 0.10348 0.0
C335 C 0.4414 0.52197 0.12186 0.0
C336 C 0.4944 0.53364 0.08769 0.0
C337 C 0.58962 0.43773 0.02357 0.0
C338 C 0.57339 0.473 0.99464 0.0
C339 C 0.62097 0.44666 0.98273 0.0
C340 C 0.61587 0.4318 1.006 0.0
C341 C 0.60012 0.46774 0.97708 0.0
C342 C 0.56813 0.45807 0.01767 0.0
C343 C 0.58475 0.42414 0.04834 0.0
O344 O 0.57221 0.45674 0.1202 0.0
O345 O 0.50267 0.38578 0.1119 0.0
O346 O 0.53617 0.39167 0.05468 0.0
O347 O 0.61157 0.45844 0.06442 0.0
H348 H 0.61852 0.41817 0.1131 0.0
H349 H 0.67976 0.4225 0.13954 0.0
H350 H 0.57839 0.38762 0.19981 0.0
H351 H 0.51797 0.3857 0.17338 0.0
H352 H 0.40296 0.45885 0.13936 0.0
H353 H 0.43909 0.43259 0.11264 0.0
H354 H 0.4847 0.58149 0.10067 0.0
H355 H 0.51966 0.55455 0.07322 0.0
H356 H 0.55707 0.48914 0.99055 0.0
H357 H 0.64163 0.44234 0.96925 0.0
H358 H 0.63263 0.41615 0.01031 0.0
H359 H 0.54765 0.46282 0.03102 0.0
C360 C 0.38364 0.54231 0.17439 0.0
C361 C 0.34277 0.53693 0.16218 0.0
C362 C 0.37126 0.5282 0.12334 0.0
C363 C 0.41229 0.53336 0.13536 0.0
N364 N 0.46552 0.55549 0.17112 0.0
N365 N 0.3076 0.53943 0.12513 0.0
C366 C 0.4213 0.54404 0.16058 0.0
C367 C 0.34053 0.53549 0.13665 0.0
N368 N 0.38493 0.54384 0.19902 0.0
N369 N 0.35849 0.51247 0.09971 0.0
H370 H 0.28317 0.54367 0.13421 0.0
H371 H 0.30835 0.54306 0.10661 0.0
H372 H 0.37868 0.50511 0.08914 0.0
H373 H 0.32462 0.50252 0.09115 0.0
H374 H 0.41024 0.54272 0.2091 0.0
H375 H 0.35882 0.5445 0.20935 0.0
H376 H 0.47645 0.56699 0.18909 0.0
H377 H 0.4936 0.55699 0.16124 0.0
C378 C 0.74616 0.1745 0.45602 0.0
C379 C 0.7117 0.163 0.47547 0.0
C380 C 0.76556 0.24481 0.48742 0.0
C381 C 0.80186 0.2558 0.46902 0.0
N382 N 0.83065 0.2306 0.43789 0.0
N383 N 0.69243 0.187 0.51162 0.0
C384 C 0.79328 0.22041 0.454 0.0
C385 C 0.72245 0.19821 0.49165 0.0
N386 N 0.73247 0.14201 0.43857 0.0
N387 N 0.77178 0.2791 0.5006 0.0
H388 H 0.66052 0.15362 0.51524 0.0
H389 H 0.70135 0.21018 0.52561 0.0
H390 H 0.80357 0.31332 0.49861 0.0
H391 H 0.74382 0.27403 0.51231 0.0
H392 H 0.75218 0.14905 0.42242 0.0
H393 H 0.69856 0.10832 0.43921 0.0
H394 H 0.83013 0.20612 0.4285 0.0
H395 H 0.86444 0.26376 0.43515 0.0
C396 C 0.65765 0.81945 0.79455 0.0
C397 C 0.63358 0.79259 0.81497 0.0
C398 C 0.58653 0.82227 0.82163 0.0
C399 C 0.61532 0.85295 0.80298 0.0
N400 N 0.68465 0.88567 0.77417 0.0
N401 N 0.5806 0.77326 0.85014 0.0
C402 C 0.65254 0.85279 0.79007 0.0
C403 C 0.59931 0.79518 0.82907 0.0
N404 N 0.68413 0.81214 0.77893 0.0
N405 N 0.54596 0.81812 0.83182 0.0
H406 H 0.58927 0.75342 0.8563 0.0
H407 H 0.56022 0.77779 0.86254 0.0
H408 H 0.53537 0.83717 0.82678 0.0
H409 H 0.5199 0.79304 0.84364 0.0
H410 H 0.69776 0.82716 0.7624 0.0
H411 H 0.68815 0.7877 0.78137 0.0
H412 H 0.71649 0.8905 0.76628 0.0
H413 H 0.68246 0.91079 0.77043 0.0
C414 C 0.76138 0.48531 0.20692 0.0
C415 C 0.78435 0.46711 0.1972 0.0
C416 C 0.69782 0.39744 0.18431 0.0
C417 C 0.67815 0.42085 0.18771 0.0
N418 N 0.69014 0.48694 0.20368 0.0
N419 N 0.77496 0.4043 0.17804 0.0
C420 C 0.70896 0.46417 0.20022 0.0
C421 C 0.75253 0.42205 0.18698 0.0
N422 N 0.79069 0.52377 0.2217 0.0
N423 N 0.66416 0.35233 0.17743 0.0
H424 H 0.81485 0.42106 0.17998 0.0
H425 H 0.7544 0.37387 0.16773 0.0
H426 H 0.62393 0.33435 0.17525 0.0
H427 H 0.67511 0.33222 0.17618 0.0
H428 H 0.77522 0.53702 0.23097 0.0
H429 H 0.8295 0.53967 0.22649 0.0
H430 H 0.7134 0.52091 0.20974 0.0
H431 H 0.6518 0.47277 0.19942 0.0
C432 C 0.38089 0.86758 0.45143 0.0
C433 C 0.41571 0.88235 0.4715 0.0
C434 C 0.35871 0.80288 0.48387 0.0
C435 C 0.32088 0.78981 0.46581 0.0
N436 N 0.29278 0.81159 0.43444 0.0
N437 N 0.43288 0.86343 0.50889 0.0
C438 C 0.33109 0.82276 0.45021 0.0
C439 C 0.40338 0.84974 0.48822 0.0
N440 N 0.3965 0.89518 0.43265 0.0
N441 N 0.35278 0.77024 0.49653 0.0
H442 H 0.46598 0.89681 0.51307 0.0
H443 H 0.42196 0.84227 0.52303 0.0
H444 H 0.32068 0.73575 0.49401 0.0
H445 H 0.38192 0.77679 0.50785 0.0
H446 H 0.37503 0.88451 0.41654 0.0
H447 H 0.43359 0.9269 0.43188 0.0
H448 H 0.29559 0.83543 0.42457 0.0
H449 H 0.25632 0.77911 0.43274 0.0
C450 C 0.59724 0.28379 0.82567 0.0
C451 C 0.55201 0.27818 0.81931 0.0
C452 C 0.51884 0.20928 0.79445 0.0
C453 C 0.56255 0.2133 0.80189 0.0
N454 N 0.63851 0.24969 0.82791 0.0
N455 N 0.46496 0.23095 0.80167 0.0
C456 C 0.60037 0.24926 0.8185 0.0
C457 C 0.51135 0.23945 0.80493 0.0
N458 N 0.63793 0.32279 0.83795 0.0
N459 N 0.48574 0.17801 0.77648 0.0
H460 H 0.4582 0.25246 0.80879 0.0
H461 H 0.43167 0.20072 0.79374 0.0
H462 H 0.48983 0.15548 0.76816 0.0
H463 H 0.45686 0.17691 0.76834 0.0
H464 H 0.67435 0.33143 0.8408 0.0
H465 H 0.6366 0.34829 0.84384 0.0
H466 H 0.6641 0.27218 0.84188 0.0
H467 H 0.6417 0.22489 0.82316 0.0
C468 C 0.54638 0.75526 0.50057 0.0
C469 C 0.58878 0.79902 0.51062 0.0
C470 C 0.62386 0.76674 0.5299 0.0
C471 C 0.57928 0.72248 0.52153 0.0
N472 N 0.49395 0.67356 0.50201 0.0
N473 N 0.66235 0.84517 0.53856 0.0
C474 C 0.53932 0.71644 0.50772 0.0
C475 C 0.62592 0.80436 0.52636 0.0
N476 N 0.51387 0.75097 0.48359 0.0
N477 N 0.66529 0.77315 0.54042 0.0
H478 H 0.66503 0.87349 0.5366 0.0
H479 H 0.68672 0.84984 0.55226 0.0
H480 H 0.66554 0.74663 0.54326 0.0
H481 H 0.70123 0.8051 0.54438 0.0
H482 H 0.48585 0.72087 0.47361 0.0
H483 H 0.51762 0.77851 0.47808 0.0
H484 H 0.46109 0.66676 0.49422 0.0
H485 H 0.4875 0.64446 0.50689 0.0
C486 C 0.74542 0.51707 0.86541 0.0
C487 C 0.74809 0.54949 0.85146 0.0
C488 C 0.84427 0.58395 0.84551 0.0
C489 C 0.83978 0.5487 0.85718 0.0
N490 N 0.77664 0.47542 0.87354 0.0
N491 N 0.80325 0.609 0.82402 0.0
C492 C 0.78762 0.51382 0.86579 0.0
C493 C 0.79865 0.58153 0.84052 0.0
N494 N 0.70317 0.48997 0.87974 0.0
N495 N 0.89328 0.62183 0.8399 0.0
H496 H 0.77209 0.60765 0.81911 0.0
H497 H 0.83595 0.62933 0.81328 0.0
H498 H 0.92684 0.62597 0.84367 0.0
H499 H 0.90116 0.65098 0.83403 0.0
H500 H 0.70091 0.4696 0.89235 0.0
H501 H 0.67318 0.49171 0.88117 0.0
H502 H 0.73883 0.4464 0.8773 0.0
H503 H 0.80434 0.47077 0.87361 0.0
C504 C 0.2299 0.704 0.15956 0.0
C505 C 0.22194 0.66973 0.17332 0.0
C506 C 0.30873 0.729 0.19329 0.0
C507 C 0.31371 0.76352 0.18143 0.0
N508 N 0.27449 0.78412 0.15601 0.0
N509 N 0.2514 0.65199 0.20652 0.0
C510 C 0.27287 0.75099 0.16538 0.0
C511 C 0.26087 0.68288 0.19099 0.0
N512 N 0.19805 0.69167 0.13997 0.0
N513 N 0.35041 0.73999 0.20631 0.0
H514 H 0.21727 0.61832 0.20586 0.0
H515 H 0.27523 0.66069 0.22151 0.0
H516 H 0.38551 0.7732 0.20879 0.0
H517 H 0.35182 0.71585 0.21293 0.0
H518 H 0.20495 0.71463 0.12777 0.0
H519 H 0.16794 0.65792 0.13436 0.0
H520 H 0.2433 0.77739 0.14639 0.0
H521 H 0.3052 0.81866 0.1597 0.0
C522 C 0.58673 0.29416 0.49388 0.0
C523 C 0.54107 0.25025 0.49983 0.0
C524 C 0.51297 0.28438 0.52614 0.0
C525 C 0.55735 0.32828 0.51937 0.0
N526 N 0.63175 0.37495 0.49384 0.0
N527 N 0.45594 0.20287 0.51785 0.0
C528 C 0.59288 0.33315 0.50233 0.0
C529 C 0.50268 0.24521 0.51476 0.0
N530 N 0.62476 0.29859 0.48066 0.0
N531 N 0.48198 0.28009 0.54434 0.0
H532 H 0.44745 0.17325 0.51041 0.0
H533 H 0.42396 0.19722 0.52612 0.0
H534 H 0.4879 0.30771 0.55317 0.0
H535 H 0.45291 0.24946 0.55208 0.0
H536 H 0.66156 0.32961 0.47793 0.0
H537 H 0.62077 0.27077 0.47359 0.0
H538 H 0.65585 0.38037 0.47969 0.0
H539 H 0.63719 0.40402 0.49968 0.0
C540 C 0.42603 0.52554 0.87496 0.0
C541 C 0.45673 0.53786 0.85342 0.0
C542 C 0.39895 0.55534 0.83769 0.0
C543 C 0.36529 0.53906 0.85837 0.0
N544 N 0.34588 0.50135 0.89526 0.0
N545 N 0.46377 0.55932 0.81272 0.0
C546 C 0.37908 0.52232 0.87649 0.0
C547 C 0.44053 0.55148 0.83454 0.0
N548 N 0.44346 0.51923 0.89498 0.0
N549 N 0.39287 0.57674 0.82105 0.0
H550 H 0.49274 0.55659 0.80966 0.0
H551 H 0.45118 0.56428 0.79719 0.0
H552 H 0.36434 0.58037 0.82252 0.0
H553 H 0.41884 0.59444 0.80714 0.0
H554 H 0.42784 0.51521 0.91203 0.0
H555 H 0.47753 0.52321 0.89498 0.0
H556 H 0.34869 0.48339 0.90759 0.0
H557 H 0.31244 0.49832 0.89717 0.0
C558 C 0.92958 0.35901 0.18141 0.0
C559 C 0.92735 0.38787 0.16729 0.0
C560 C 0.83168 0.32554 0.16144 0.0
C561 C 0.83488 0.29587 0.17397 0.0
N562 N 0.88851 0.28241 0.19259 0.0
N563 N 0.87728 0.39607 0.14087 0.0
C564 C 0.88434 0.31215 0.18301 0.0
C565 C 0.87852 0.37042 0.15658 0.0
N566 N 0.97422 0.37674 0.19436 0.0
N567 N 0.78353 0.31092 0.15448 0.0
H568 H 0.91058 0.42842 0.13652 0.0
H569 H 0.84446 0.38408 0.13049 0.0
H570 H 0.74876 0.27848 0.15758 0.0
H571 H 0.7774 0.33166 0.14717 0.0
H572 H 0.9763 0.35909 0.20723 0.0
H573 H 1.00811 0.41055 0.19404 0.0
H574 H 0.92423 0.29052 0.19674 0.0
H575 H 0.85637 0.24832 0.19465 0.0
C576 C 0.08618 0.56507 0.0794 0.0
C577 C 0.08147 0.53082 0.09157 0.0
C578 C 0.08783 0.50091 0.05233 0.0
C579 C 0.09155 0.53466 0.04006 0.0
N580 N 0.10022 0.60209 0.0421 0.0
N581 N 0.08509 0.47026 0.09045 0.0
C582 C 0.09278 0.56782 0.05373 0.0
C583 C 0.08462 0.50005 0.07821 0.0
N584 N 0.08267 0.59424 0.09244 0.0
N585 N 0.08663 0.46921 0.03908 0.0
H586 H 0.08193 0.4685 0.10915 0.0
H587 H 0.09177 0.44924 0.08258 0.0
H588 H 0.09223 0.47048 0.0205 0.0
H589 H 0.07832 0.44066 0.0461 0.0
H590 H 0.07906 0.61641 0.08489 0.0
H591 H 0.08153 0.59537 0.11124 0.0
H592 H 0.10801 0.63052 0.05081 0.0
H593 H 0.10101 0.60342 0.02338 0.0
C594 C 0.54199 0.97685 0.39456 0.0
C595 C 0.56503 0.0177 0.40871 0.0
C596 C 0.57481 0.05596 0.37215 0.0
C597 C 0.55895 0.01727 0.35775 0.0
N598 N 0.52918 0.94119 0.35475 0.0
N599 N 0.60708 0.09729 0.41103 0.0
C600 C 0.54234 0.97753 0.36884 0.0
C601 C 0.58196 0.05746 0.39754 0.0
N602 N 0.51998 0.93748 0.40573 0.0
N603 N 0.5827 0.0912 0.36149 0.0
H604 H 0.61185 0.09943 0.42968 0.0
H605 H 0.62618 0.12867 0.40367 0.0
H606 H 0.57821 0.09129 0.34294 0.0
H607 H 0.58904 0.11836 0.37114 0.0
H608 H 0.49784 0.90568 0.39671 0.0
H609 H 0.52023 0.93601 0.42443 0.0
H610 H 0.52284 0.91326 0.36151 0.0
H611 H 0.52745 0.94007 0.33595 0.0
C612 C 0.60826 0.58342 0.76793 0.0
C613 C 0.60605 0.5478 0.77604 0.0
C614 C 0.63522 0.54189 0.73617 0.0
C615 C 0.62454 0.56909 0.72676 0.0
N616 N 0.64544 0.64041 0.7385 0.0
N617 N 0.61971 0.49362 0.76787 0.0
C618 C 0.62393 0.59743 0.74399 0.0
C619 C 0.62042 0.52726 0.76019 0.0
N620 N 0.59371 0.60301 0.78268 0.0
N621 N 0.66808 0.53748 0.72424 0.0
H622 H 0.6113 0.48325 0.78556 0.0
H623 H 0.62437 0.47435 0.75617 0.0
H624 H 0.68962 0.55715 0.70964 0.0
H625 H 0.68068 0.52104 0.73113 0.0
H626 H 0.58961 0.62594 0.77667 0.0
H627 H 0.58213 0.59368 0.80035 0.0
H628 H 0.65042 0.66405 0.7511 0.0
H629 H 0.66464 0.6539 0.72228 0.0
C630 C 0.51838 0.98333 0.56157 0.0
C631 C 0.56088 0.02147 0.54901 0.0
C632 C 0.61297 0.05334 0.58714 0.0
C633 C 0.57135 0.0145 0.59915 0.0
N634 N 0.48894 0.93836 0.59692 0.0
N635 N 0.65314 0.08834 0.54951 0.0
C636 C 0.52537 0.97833 0.58609 0.0
C637 C 0.60964 0.05494 0.56162 0.0
N638 N 0.47075 0.95166 0.55021 0.0
N639 N 0.65502 0.08973 0.60034 0.0
H640 H 0.65342 0.09275 0.53123 0.0
H641 H 0.69068 0.10977 0.55726 0.0
H642 H 0.6592 0.08963 0.61892 0.0
H643 H 0.68354 0.12133 0.59335 0.0
H644 H 0.43656 0.92744 0.55928 0.0
H645 H 0.46435 0.95035 0.53179 0.0
H646 H 0.45774 0.90866 0.58765 0.0
H647 H 0.49223 0.93358 0.61489 0.0
C648 C 0.56449 0.48944 0.91875 0.0
C649 C 0.61465 0.52797 0.91068 0.0
C650 C 0.6558 0.52524 0.94617 0.0
C651 C 0.60655 0.48546 0.953 0.0
N652 N 0.51693 0.42226 0.94206 0.0
N653 N 0.70878 0.56881 0.91291 0.0
C654 C 0.56193 0.46504 0.93796 0.0
C655 C 0.66061 0.54187 0.9232 0.0
N656 N 0.51895 0.47717 0.90947 0.0
N657 N 0.69794 0.54814 0.96177 0.0
H658 H 0.7147 0.57804 0.89516 0.0
H659 H 0.74194 0.5762 0.92081 0.0
H660 H 0.69634 0.53717 0.97884 0.0
H661 H 0.73315 0.58019 0.95851 0.0
H662 H 0.48247 0.45284 0.91694 0.0
H663 H 0.51709 0.49374 0.89603 0.0
H664 H 0.48482 0.40373 0.93011 0.0
H665 H 0.5139 0.40355 0.95605 0.0
C666 C 1.02078 0.4944 0.24801 0.0
C667 C 0.06507 0.53407 0.23712 0.0
C668 C 0.10071 0.57146 0.2775 0.0
C669 C 0.05637 0.5323 0.2882 0.0
N670 N 0.96836 0.46137 0.28381 0.0
N671 N 0.13809 0.61437 0.24153 0.0
C672 C 1.01451 0.49541 0.27346 0.0
C673 C 0.1022 0.57384 0.25194 0.0
N674 N 0.98619 0.45475 0.23462 0.0
N675 N 0.14225 0.6059 0.29171 0.0
H676 H 0.13879 0.61781 0.22297 0.0
H677 H 0.16323 0.6453 0.25136 0.0
H678 H 0.14211 0.60593 0.31051 0.0
H679 H 0.17822 0.6328 0.28484 0.0
H680 H 0.95829 0.42361 0.2422 0.0
H681 H 0.98676 0.4517 0.21602 0.0
H682 H 0.93421 0.43628 0.27389 0.0
H683 H 0.96278 0.46053 0.30239 0.0
loop_
_geom_bond_atom_site_label_1
_geom_bond_atom_site_label_2
_geom_bond_distance
_geom_bond_site_symmetry_2
_ccdc_geom_bond_type
Gd0 C3 2.818 . S
Gd0 O20 2.377 . S
Gd0 O22 2.448 . S
Gd0 O23 2.506 . S
Gd0 O24 2.435 . S
Gd0 O25 2.717 . S
Gd0 O27 2.395 1_455 S
Gd0 O31 2.327 . S
Gd1 C12 2.818 . S
Gd1 O21 2.395 1_655 S
Gd1 O25 2.327 1_655 S
Gd1 O26 2.377 . S
Gd1 O28 2.448 . S
Gd1 O29 2.506 . S
Gd1 O30 2.441 . S
Gd1 O31 2.717 1_655 S
C2 O20 1.240 . S
C2 O21 1.240 . S
C3 Gd0 2.818 . S
C3 C4 1.510 . S
C3 O22 1.249 . S
C3 O23 1.252 . S
C4 C3 1.510 . S
C4 C5 1.404 . S
C4 C6 1.352 . S
C5 C4 1.404 . S
C5 C9 1.389 . S
C5 H32 0.930 . S
C6 C4 1.352 . S
C6 C8 1.374 . S
C6 H33 0.931 . S
C7 C8 1.359 . S
C7 C9 1.364 . S
C8 C6 1.374 . S
C8 C7 1.359 . S
C8 H34 0.931 . S
C9 C5 1.389 . S
C9 C7 1.364 . S
C9 H35 0.931 . S
C10 O24 1.256 . S
C10 O25 1.257 . S
C11 O26 1.240 . S
C11 O27 1.240 . S
C12 Gd1 2.818 . S
C12 C13 1.510 . S
C12 O28 1.249 . S
C12 O29 1.252 . S
C13 C12 1.510 . S
C13 C14 1.404 . S
C13 C15 1.352 . S
C14 C13 1.404 . S
C14 C18 1.389 . S
C14 H36 0.930 . S
C15 C13 1.352 . S
C15 C17 1.374 . S
C15 H37 0.931 . S
C16 C17 1.359 . S
C16 C18 1.364 . S
C17 C15 1.374 . S
C17 C16 1.359 . S
C17 H38 0.931 . S
C18 C14 1.389 . S
C18 C16 1.364 . S
C18 H39 0.931 . S
C19 O30 1.227 1_455 S
C19 O31 1.257 . S
O20 Gd0 2.377 . S
O20 C2 1.240 . S
O21 Gd1 2.395 1_455 S
O21 C2 1.240 . S
O22 Gd0 2.448 . S
O22 C3 1.249 . S
O23 Gd0 2.506 . S
O23 C3 1.252 . S
O24 Gd0 2.435 . S
O24 C10 1.256 . S
O25 Gd0 2.717 . S
O25 Gd1 2.327 1_455 S
O25 C10 1.257 . S
O26 Gd1 2.377 . S
O26 C11 1.240 . S
O27 Gd0 2.395 1_655 S
O27 C11 1.240 . S
O28 Gd1 2.448 . S
O28 C12 1.249 . S
O29 Gd1 2.506 . S
O29 C12 1.252 . S
O30 Gd1 2.441 . S
O30 C19 1.227 1_655 S
O31 Gd0 2.327 . S
O31 Gd1 2.717 1_455 S
O31 C19 1.257 . S
H32 C5 0.930 . S
H33 C6 0.931 . S
H34 C8 0.931 . S
H35 C9 0.931 . S
H36 C14 0.930 . S
H37 C15 0.931 . S
H38 C17 0.931 . S
H39 C18 0.931 . S
Gd40 C43 2.818 . S
Gd40 O60 2.377 . S
Gd40 O62 2.448 . S
Gd40 O63 2.506 . S
Gd40 O64 2.435 . S
Gd40 O65 2.717 1_565 S
Gd40 O67 2.395 1_565 S
Gd40 O71 2.327 1_565 S
Gd41 C52 2.818 . S
Gd41 O61 2.395 1_545 S
Gd41 O65 2.327 . S
Gd41 O66 2.377 . S
Gd41 O68 2.448 . S
Gd41 O69 2.506 . S
Gd41 O70 2.435 . S
Gd41 O71 2.717 . S
C42 O60 1.240 . S
C42 O61 1.240 . S
C43 Gd40 2.818 . S
C43 C44 1.510 . S
C43 O62 1.249 . S
C43 O63 1.252 . S
C44 C43 1.510 . S
C44 C45 1.404 . S
C44 C46 1.352 . S
C45 C44 1.404 . S
C45 C49 1.389 . S
C45 H72 0.930 . S
C46 C44 1.352 . S
C46 C48 1.374 . S
C46 H73 0.931 . S
C47 C48 1.359 . S
C47 C49 1.364 . S
C48 C46 1.374 . S
C48 C47 1.359 . S
C48 H74 0.931 . S
C49 C45 1.389 . S
C49 C47 1.364 . S
C49 H75 0.931 . S
C50 O64 1.256 1_545 S
C50 O65 1.257 . S
C51 O66 1.240 . S
C51 O67 1.240 . S
C52 Gd41 2.818 . S
C52 C53 1.510 . S
C52 O68 1.249 . S
C52 O69 1.252 . S
C53 C52 1.510 . S
C53 C54 1.404 . S
C53 C55 1.352 . S
C54 C53 1.404 . S
C54 C58 1.389 . S
C54 H76 0.930 . S
C55 C53 1.352 . S
C55 C57 1.374 . S
C55 H77 0.931 . S
C56 C57 1.359 . S
C56 C58 1.364 . S
C57 C55 1.374 . S
C57 C56 1.359 . S
C57 H78 0.931 . S
C58 C54 1.389 . S
C58 C56 1.364 . S
C58 H79 0.931 . S
C59 O70 1.256 . S
C59 O71 1.257 . S
O60 Gd40 2.377 . S
O60 C42 1.240 . S
O61 Gd41 2.395 1_565 S
O61 C42 1.240 . S
O62 Gd40 2.448 . S
O62 C43 1.249 . S
O63 Gd40 2.506 . S
O63 C43 1.252 . S
O64 Gd40 2.435 . S
O64 C50 1.256 1_565 S
O65 Gd40 2.717 1_545 S
O65 Gd41 2.327 . S
O65 C50 1.257 . S
O66 Gd41 2.377 . S
O66 C51 1.240 . S
O67 Gd40 2.395 1_545 S
O67 C51 1.240 . S
O68 Gd41 2.448 . S
O68 C52 1.249 . S
O69 Gd41 2.506 . S
O69 C52 1.252 . S
O70 Gd41 2.435 . S
O70 C59 1.256 . S
O71 Gd40 2.327 1_545 S
O71 Gd41 2.717 . S
O71 C59 1.257 . S
H72 C45 0.930 . S
H73 C46 0.931 . S
H74 C48 0.931 . S
H75 C49 0.931 . S
H76 C54 0.930 . S
H77 C55 0.931 . S
H78 C57 0.931 . S
H79 C58 0.931 . S
Gd80 C83 2.818 . S
Gd80 O100 2.377 . S
Gd80 O102 2.448 . S
Gd80 O103 2.506 . S
Gd80 O104 2.435 . S
Gd80 O105 2.717 . S
Gd80 O107 2.395 . S
Gd80 O111 2.327 . S
Gd81 C92 2.818 . S
Gd81 O101 2.395 . S
Gd81 O105 2.327 . S
Gd81 O106 2.377 . S
Gd81 O108 2.448 . S
Gd81 O109 2.506 . S
Gd81 O110 2.435 . S
Gd81 O111 2.717 . S
C82 O100 1.240 . S
C82 O101 1.240 . S
C83 Gd80 2.818 . S
C83 C84 1.510 . S
C83 O102 1.249 . S
C83 O103 1.252 . S
C84 C83 1.510 . S
C84 C85 1.404 . S
C84 C86 1.352 . S
C85 C84 1.404 . S
C85 C89 1.389 . S
C85 H112 0.930 . S
C86 C84 1.352 . S
C86 C88 1.374 . S
C86 H113 0.931 . S
C87 C88 1.359 . S
C87 C89 1.364 . S
C88 C86 1.374 . S
C88 C87 1.359 . S
C88 H114 0.931 . S
C89 C85 1.389 . S
C89 C87 1.364 . S
C89 H115 0.931 . S
C90 O104 1.256 . S
C90 O105 1.257 . S
C91 O106 1.240 . S
C91 O107 1.240 . S
C92 Gd81 2.818 . S
C92 C93 1.510 . S
C92 O108 1.249 . S
C92 O109 1.252 . S
C93 C92 1.510 . S
C93 C94 1.404 . S
C93 C95 1.352 . S
C94 C93 1.404 . S
C94 C98 1.389 . S
C94 H116 0.930 . S
C95 C93 1.352 . S
C95 C97 1.374 . S
C95 H117 0.931 . S
C96 C97 1.359 . S
C96 C98 1.364 . S
C97 C95 1.374 . S
C97 C96 1.359 . S
C97 H118 0.931 . S
C98 C94 1.389 . S
C98 C96 1.364 . S
C98 H119 0.931 . S
C99 O110 1.256 . S
C99 O111 1.257 . S
O100 Gd80 2.377 . S
O100 C82 1.240 . S
O101 Gd81 2.395 . S
O101 C82 1.240 . S
O102 Gd80 2.448 . S
O102 C83 1.249 . S
O103 Gd80 2.506 . S
O103 C83 1.252 . S
O104 Gd80 2.435 . S
O104 C90 1.256 . S
O105 Gd80 2.717 . S
O105 Gd81 2.327 . S
O105 C90 1.257 . S
O106 Gd81 2.377 . S
O106 C91 1.240 . S
O107 Gd80 2.395 . S
O107 C91 1.240 . S
O108 Gd81 2.448 . S
O108 C92 1.249 . S
O109 Gd81 2.506 . S
O109 C92 1.252 . S
O110 Gd81 2.435 . S
O110 C99 1.256 . S
O111 Gd80 2.327 . S
O111 Gd81 2.717 . S
O111 C99 1.257 . S
H112 C85 0.930 . S
H113 C86 0.931 . S
H114 C88 0.931 . S
H115 C89 0.931 . S
H116 C94 0.930 . S
H117 C95 0.931 . S
H118 C97 0.931 . S
H119 C98 0.931 . S
C120 C121 1.264 . S
C120 C125 1.479 . S
C120 C130 1.465 . S
C121 C120 1.264 . S
C121 C123 1.339 . S
C121 H148 0.931 . S
C122 C123 1.395 . S
C122 C124 1.320 . S
C123 C121 1.339 . S
C123 C122 1.395 . S
C123 H149 0.929 . S
C124 C122 1.320 . S
C124 C125 1.405 . S
C124 H150 0.930 . S
C125 C120 1.479 . S
C125 C124 1.405 . S
C125 H151 0.931 . S
U126 O127 2.454 1_545 S
U126 O128 2.458 1_545 S
U126 C129 2.984 1_545 S
U126 C130 2.847 . S
U126 C143 2.882 . S
U126 O144 2.441 . S
U126 O145 2.420 . S
U126 O146 2.455 1_545 S
U126 O147 2.449 . S
O127 U126 2.454 1_565 S
O127 C129 1.353 . S
O128 U126 2.458 1_565 S
O128 C129 1.286 . S
C129 U126 2.984 1_565 S
C129 O127 1.353 . S
C129 O128 1.286 . S
C129 C131 1.363 . S
C130 C120 1.465 . S
C130 U126 2.847 . S
C130 O144 1.249 . S
C130 O145 1.202 . S
C131 C129 1.363 . S
C131 C133 1.408 . S
C131 C136 1.342 . S
C132 C133 1.310 . S
C132 C135 1.461 . S
C132 H152 0.932 . S
C133 C131 1.408 . S
C133 C132 1.310 . S
C133 H153 0.930 . S
C134 C135 1.474 . S
C134 C136 1.285 . S
C134 H154 0.929 . S
C135 C132 1.461 . S
C135 C134 1.474 . S
C136 C131 1.342 . S
C136 C134 1.285 . S
C136 H155 0.930 . S
C137 C140 1.424 . S
C137 C142 1.245 1_545 S
C137 C143 1.428 . S
C138 C141 1.260 . S
C138 C142 1.477 1_545 S
C138 H156 0.932 1_545 S
C139 C140 1.384 . S
C139 C141 1.479 . S
C139 H157 0.929 . S
C140 C137 1.424 . S
C140 C139 1.384 . S
C140 H158 0.928 . S
C141 C138 1.260 . S
C141 C139 1.479 . S
C142 C137 1.245 1_565 S
C142 C138 1.477 1_565 S
C142 H159 0.932 . S
C143 U126 2.882 . S
C143 C137 1.428 . S
C143 O146 1.301 1_545 S
C143 O147 1.282 . S
O144 U126 2.441 . S
O144 C130 1.249 . S
O145 U126 2.420 . S
O145 C130 1.202 . S
O146 U126 2.455 1_565 S
O146 C143 1.301 1_565 S
O147 U126 2.449 . S
O147 C143 1.282 . S
H148 C121 0.931 . S
H149 C123 0.929 . S
H150 C124 0.930 . S
H151 C125 0.931 . S
H152 C132 0.932 . S
H153 C133 0.930 . S
H154 C134 0.929 . S
H155 C136 0.930 . S
H156 C138 0.932 1_565 S
H157 C139 0.929 . S
H158 C140 0.928 . S
H159 C142 0.932 . S
C160 C161 1.264 . S
C160 C165 1.479 . S
C160 C170 1.465 . S
C161 C160 1.264 . S
C161 C163 1.339 . S
C161 H188 0.931 . S
C162 C163 1.395 . S
C162 C164 1.320 . S
C163 C161 1.339 . S
C163 C162 1.395 . S
C163 H189 0.929 . S
C164 C162 1.320 . S
C164 C165 1.405 . S
C164 H190 0.930 . S
C165 C160 1.479 . S
C165 C164 1.405 . S
C165 H191 0.931 . S
U166 O167 2.454 . S
U166 O168 2.458 . S
U166 C169 2.984 . S
U166 C170 2.847 . S
U166 C183 2.882 . S
U166 O184 2.441 . S
U166 O185 2.420 . S
U166 O186 2.455 . S
U166 O187 2.449 . S
O167 U166 2.454 . S
O167 C169 1.353 . S
O168 U166 2.458 . S
O168 C169 1.286 . S
C169 U166 2.984 . S
C169 O167 1.353 . S
C169 O168 1.286 . S
C169 C171 1.363 . S
C170 C160 1.465 . S
C170 U166 2.847 . S
C170 O184 1.249 . S
C170 O185 1.202 . S
C171 C169 1.363 . S
C171 C173 1.408 . S
C171 C176 1.342 . S
C172 C173 1.310 . S
C172 C175 1.461 . S
C172 H192 0.932 . S
C173 C171 1.408 . S
C173 C172 1.310 . S
C173 H193 0.930 . S
C174 C175 1.474 . S
C174 C176 1.285 . S
C174 H194 0.929 . S
C175 C172 1.461 . S
C175 C174 1.474 . S
C176 C171 1.342 . S
C176 C174 1.285 . S
C176 H195 0.930 . S
C177 C180 1.424 . S
C177 C182 1.245 . S
C177 C183 1.428 . S
C178 C181 1.260 . S
C178 C182 1.477 . S
C178 H196 0.932 . S
C179 C180 1.384 . S
C179 C181 1.479 . S
C179 H197 0.929 . S
C180 C177 1.424 . S
C180 C179 1.384 . S
C180 H198 0.928 . S
C181 C178 1.260 . S
C181 C179 1.479 . S
C182 C177 1.245 . S
C182 C178 1.477 . S
C182 H199 0.932 . S
C183 U166 2.882 . S
C183 C177 1.428 . S
C183 O186 1.301 . S
C183 O187 1.282 . S
O184 U166 2.441 . S
O184 C170 1.249 . S
O185 U166 2.420 . S
O185 C170 1.202 . S
O186 U166 2.455 . S
O186 C183 1.301 . S
O187 U166 2.449 . S
O187 C183 1.282 . S
H188 C161 0.931 . S
H189 C163 0.929 . S
H190 C164 0.930 . S
H191 C165 0.931 . S
H192 C172 0.932 . S
H193 C173 0.930 . S
H194 C174 0.929 . S
H195 C176 0.930 . S
H196 C178 0.932 . S
H197 C179 0.929 . S
H198 C180 0.928 . S
H199 C182 0.932 . S
C200 C201 1.264 . S
C200 C205 1.479 . S
C200 C210 1.465 . S
C201 C200 1.264 . S
C201 C203 1.339 . S
C201 H228 0.931 . S
C202 C203 1.395 . S
C202 C204 1.320 . S
C203 C201 1.339 . S
C203 C202 1.395 . S
C203 H229 0.929 . S
C204 C202 1.320 . S
C204 C205 1.405 . S
C204 H230 0.930 . S
C205 C200 1.479 . S
C205 C204 1.405 . S
C205 H231 0.931 . S
U206 O207 2.454 . S
U206 O208 2.458 . S
U206 C209 2.984 . S
U206 C210 2.847 1_455 S
U206 C223 2.882 . S
U206 O224 2.441 . S
U206 O225 2.420 1_455 S
U206 O226 2.455 . S
U206 O227 2.449 . S
O207 U206 2.454 . S
O207 C209 1.353 . S
O208 U206 2.458 . S
O208 C209 1.286 . S
C209 U206 2.984 . S
C209 O207 1.353 . S
C209 O208 1.286 . S
C209 C211 1.363 . S
C210 C200 1.465 . S
C210 U206 2.847 1_655 S
C210 O224 1.249 1_655 S
C210 O225 1.202 . S
C211 C209 1.363 . S
C211 C213 1.408 . S
C211 C216 1.342 . S
C212 C213 1.310 . S
C212 C215 1.461 . S
C212 H232 0.932 . S
C213 C211 1.408 . S
C213 C212 1.310 . S
C213 H233 0.930 . S
C214 C215 1.474 . S
C214 C216 1.285 . S
C214 H234 0.929 . S
C215 C212 1.461 . S
C215 C214 1.474 . S
C216 C211 1.342 . S
C216 C214 1.285 . S
C216 H235 0.930 . S
C217 C220 1.424 . S
C217 C222 1.245 . S
C217 C223 1.428 . S
C218 C221 1.236 1_556 S
C218 C222 1.522 . S
C218 H236 0.908 1_556 S
C219 C220 1.384 . S
C219 C221 1.479 1_556 S
C219 H237 0.929 1_456 S
C220 C217 1.424 . S
C220 C219 1.384 . S
C220 H238 0.928 1_455 S
C221 C218 1.236 1_554 S
C221 C219 1.479 1_554 S
C222 C217 1.245 . S
C222 C218 1.522 . S
C222 H239 0.932 . S
C223 U206 2.882 . S
C223 C217 1.428 . S
C223 O226 1.301 . S
C223 O227 1.282 . S
O224 U206 2.441 . S
O224 C210 1.249 1_455 S
O225 U206 2.420 1_655 S
O225 C210 1.202 . S
O226 U206 2.455 . S
O226 C223 1.301 . S
O227 U206 2.449 . S
O227 C223 1.282 . S
H228 C201 0.931 . S
H229 C203 0.929 . S
H230 C204 0.930 . S
H231 C205 0.931 . S
H232 C212 0.932 . S
H233 C213 0.930 . S
H234 C214 0.929 . S
H235 C216 0.930 . S
H236 C218 0.908 1_554 S
H237 C219 0.929 1_654 S
H238 C220 0.928 1_655 S
H239 C222 0.932 . S
C240 C241 1.264 . S
C240 C245 1.479 . S
C240 C250 1.465 . S
C241 C240 1.264 . S
C241 C243 1.339 . S
C241 H268 0.931 . S
C242 C243 1.395 . S
C242 C244 1.320 . S
C243 C241 1.339 . S
C243 C242 1.395 . S
C243 H269 0.929 . S
C244 C242 1.320 . S
C244 C245 1.405 . S
C244 H270 0.930 . S
C245 C240 1.479 . S
C245 C244 1.405 . S
C245 H271 0.931 . S
U246 O247 2.454 1_655 S
U246 O248 2.458 1_655 S
U246 C249 2.984 1_655 S
U246 C250 2.847 . S
U246 C263 2.882 . S
U246 O264 2.441 . S
U246 O265 2.420 . S
U246 O266 2.455 1_655 S
U246 O267 2.449 . S
O247 U246 2.454 1_455 S
O247 C249 1.353 . S
O248 U246 2.458 1_455 S
O248 C249 1.286 . S
C249 U246 2.984 1_455 S
C249 O247 1.353 . S
C249 O248 1.286 . S
C249 C251 1.363 . S
C250 C240 1.465 . S
C250 U246 2.847 . S
C250 O264 1.249 . S
C250 O265 1.202 . S
C251 C249 1.363 . S
C251 C253 1.408 . S
C251 C256 1.342 . S
C252 C253 1.310 . S
C252 C255 1.461 . S
C252 H272 0.932 . S
C253 C251 1.408 . S
C253 C252 1.310 . S
C253 H273 0.930 . S
C254 C255 1.474 . S
C254 C256 1.285 . S
C254 H274 0.929 . S
C255 C252 1.461 . S
C255 C254 1.474 . S
C256 C251 1.342 . S
C256 C254 1.285 . S
C256 H275 0.930 . S
C257 C260 1.424 . S
C257 C262 1.245 1_655 S
C257 C263 1.428 . S
C258 C261 1.260 1_455 S
C258 C262 1.477 . S
C258 H276 0.932 . S
C259 C260 1.384 . S
C259 C261 1.479 . S
C259 H277 0.929 . S
C260 C257 1.424 . S
C260 C259 1.384 . S
C260 H278 0.928 . S
C261 C258 1.260 1_655 S
C261 C259 1.479 . S
C262 C257 1.245 1_455 S
C262 C258 1.477 . S
C262 H279 0.932 . S
C263 U246 2.882 . S
C263 C257 1.428 . S
C263 O266 1.301 1_655 S
C263 O267 1.282 . S
O264 U246 2.441 . S
O264 C250 1.249 . S
O265 U246 2.420 . S
O265 C250 1.202 . S
O266 U246 2.455 1_455 S
O266 C263 1.301 1_455 S
O267 U246 2.449 . S
O267 C263 1.282 . S
H268 C241 0.931 . S
H269 C243 0.929 . S
H270 C244 0.930 . S
H271 C245 0.931 . S
H272 C252 0.932 . S
H273 C253 0.930 . S
H274 C254 0.929 . S
H275 C256 0.930 . S
H276 C258 0.932 . S
H277 C259 0.929 . S
H278 C260 0.928 . S
H279 C262 0.932 . S
C280 C281 1.264 . S
C280 C285 1.479 . S
C280 C290 1.465 . S
C281 C280 1.264 . S
C281 C283 1.339 . S
C281 H308 0.931 . S
C282 C283 1.395 . S
C282 C284 1.320 . S
C283 C281 1.339 . S
C283 C282 1.395 . S
C283 H309 0.929 . S
C284 C282 1.320 . S
C284 C285 1.405 . S
C284 H310 0.930 . S
C285 C280 1.479 . S
C285 C284 1.405 . S
C285 H311 0.931 . S
U286 O287 2.454 1_565 S
U286 O288 2.458 1_565 S
U286 C289 2.984 1_565 S
U286 C290 2.847 . S
U286 C303 2.882 . S
U286 O304 2.441 . S
U286 O305 2.420 . S
U286 O306 2.455 1_565 S
U286 O307 2.449 . S
O287 U286 2.454 1_545 S
O287 C289 1.353 . S
O288 U286 2.458 1_545 S
O288 C289 1.286 . S
C289 U286 2.984 1_545 S
C289 O287 1.353 . S
C289 O288 1.286 . S
C289 C291 1.363 . S
C290 C280 1.465 . S
C290 U286 2.847 . S
C290 O304 1.249 . S
C290 O305 1.202 . S
C291 C289 1.363 . S
C291 C293 1.408 . S
C291 C296 1.342 . S
C292 C293 1.310 . S
C292 C295 1.461 . S
C292 H312 0.932 . S
C293 C291 1.408 . S
C293 C292 1.310 . S
C293 H313 0.930 . S
C294 C295 1.474 . S
C294 C296 1.285 . S
C294 H314 0.929 . S
C295 C292 1.461 . S
C295 C294 1.474 . S
C296 C291 1.342 . S
C296 C294 1.285 . S
C296 H315 0.930 . S
C297 C300 1.424 . S
C297 C302 1.245 1_565 S
C297 C303 1.428 . S
C298 C301 1.260 1_545 S
C298 C302 1.477 . S
C298 H316 0.932 . S
C299 C300 1.384 . S
C299 C301 1.479 . S
C299 H317 0.929 . S
C300 C297 1.424 . S
C300 C299 1.384 . S
C300 H318 0.928 . S
C301 C298 1.260 1_565 S
C301 C299 1.479 . S
C302 C297 1.245 1_545 S
C302 C298 1.477 . S
C302 H319 0.932 . S
C303 U286 2.882 . S
C303 C297 1.428 . S
C303 O306 1.301 1_565 S
C303 O307 1.282 . S
O304 U286 2.441 . S
O304 C290 1.249 . S
O305 U286 2.420 . S
O305 C290 1.202 . S
O306 U286 2.455 1_545 S
O306 C303 1.301 1_545 S
O307 U286 2.449 . S
O307 C303 1.282 . S
H308 C281 0.931 . S
H309 C283 0.929 . S
H310 C284 0.930 . S
H311 C285 0.931 . S
H312 C292 0.932 . S
H313 C293 0.930 . S
H314 C294 0.929 . S
H315 C296 0.930 . S
H316 C298 0.932 . S
H317 C299 0.929 . S
H318 C300 0.928 . S
H319 C302 0.932 . S
C320 C321 1.264 . S
C320 C325 1.479 . S
C320 C330 1.465 . S
C321 C320 1.264 . S
C321 C323 1.339 . S
C321 H348 0.931 . S
C322 C323 1.395 . S
C322 C324 1.320 . S
C323 C321 1.339 . S
C323 C322 1.395 . S
C323 H349 0.929 . S
C324 C322 1.320 . S
C324 C325 1.405 . S
C324 H350 0.930 . S
C325 C320 1.479 . S
C325 C324 1.405 . S
C325 H351 0.931 . S
U326 O327 2.454 . S
U326 O328 2.458 . S
U326 C329 2.984 . S
U326 C330 2.847 . S
U326 C343 2.882 . S
U326 O344 2.441 . S
U326 O345 2.420 . S
U326 O346 2.455 . S
U326 O347 2.449 . S
O327 U326 2.454 . S
O327 C329 1.353 . S
O328 U326 2.458 . S
O328 C329 1.286 . S
C329 U326 2.984 . S
C329 O327 1.353 . S
C329 O328 1.286 . S
C329 C331 1.363 . S
C330 C320 1.465 . S
C330 U326 2.847 . S
C330 O344 1.249 . S
C330 O345 1.202 . S
C331 C329 1.363 . S
C331 C333 1.408 . S
C331 C336 1.342 . S
C332 C333 1.310 . S
C332 C335 1.461 . S
C332 H352 0.932 . S
C333 C331 1.408 . S
C333 C332 1.310 . S
C333 H353 0.930 . S
C334 C335 1.474 . S
C334 C336 1.285 . S
C334 H354 0.929 . S
C335 C332 1.461 . S
C335 C334 1.474 . S
C336 C331 1.342 . S
C336 C334 1.285 . S
C336 H355 0.930 . S
C337 C340 1.419 1_554 S
C337 C342 1.245 1_554 S
C337 C343 1.428 . S
C338 C341 1.260 . S
C338 C342 1.477 . S
C338 H356 0.932 . S
C339 C340 1.395 . S
C339 C341 1.479 . S
C339 H357 0.929 . S
C340 C337 1.419 1_556 S
C340 C339 1.395 . S
C340 H358 0.921 1_556 S
C341 C338 1.260 . S
C341 C339 1.479 . S
C342 C337 1.245 1_556 S
C342 C338 1.477 . S
C342 H359 0.932 1_556 S
C343 U326 2.882 . S
C343 C337 1.428 . S
C343 O346 1.301 . S
C343 O347 1.282 . S
O344 U326 2.441 . S
O344 C330 1.249 . S
O345 U326 2.420 . S
O345 C330 1.202 . S
O346 U326 2.455 . S
O346 C343 1.301 . S
O347 U326 2.449 . S
O347 C343 1.282 . S
H348 C321 0.931 . S
H349 C323 0.929 . S
H350 C324 0.930 . S
H351 C325 0.931 . S
H352 C332 0.932 . S
H353 C333 0.930 . S
H354 C334 0.929 . S
H355 C336 0.930 . S
H356 C338 0.932 . S
H357 C339 0.929 . S
H358 C340 0.921 1_554 S
H359 C342 0.932 1_554 S
C360 C361 1.363 . S
C360 C366 1.379 . S
C360 N368 1.356 . S
C361 C360 1.363 . S
C361 C367 1.363 . S
C362 C363 1.363 . S
C362 C367 1.379 . S
C362 N369 1.356 . S
C363 C362 1.363 . S
C363 C366 1.363 . S
N364 C366 1.356 . S
N364 H376 0.984 . S
N364 H377 0.985 . S
N365 C367 1.356 . S
N365 H370 0.984 . S
N365 H371 0.985 . S
C366 C360 1.379 . S
C366 C363 1.363 . S
C366 N364 1.356 . S
C367 C361 1.363 . S
C367 C362 1.379 . S
C367 N365 1.356 . S
N368 C360 1.356 . S
N368 H374 0.984 . S
N368 H375 0.984 . S
N369 C362 1.356 . S
N369 H372 0.984 . S
N369 H373 0.985 . S
H370 N365 0.984 . S
H371 N365 0.985 . S
H372 N369 0.984 . S
H373 N369 0.985 . S
H374 N368 0.984 . S
H375 N368 0.984 . S
H376 N364 0.984 . S
H377 N364 0.985 . S
C378 C379 1.363 . S
C378 C384 1.379 . S
C378 N386 1.356 . S
C379 C378 1.363 . S
C379 C385 1.363 . S
C380 C381 1.363 . S
C380 C385 1.379 . S
C380 N387 1.356 . S
C381 C380 1.363 . S
C381 C384 1.363 . S
N382 C384 1.356 . S
N382 H394 0.984 . S
N382 H395 0.985 . S
N383 C385 1.356 . S
N383 H388 0.984 . S
N383 H389 0.985 . S
C384 C378 1.379 . S
C384 C381 1.363 . S
C384 N382 1.356 . S
C385 C379 1.363 . S
C385 C380 1.379 . S
C385 N383 1.356 . S
N386 C378 1.356 . S
N386 H392 0.984 . S
N386 H393 0.984 . S
N387 C380 1.356 . S
N387 H390 0.984 . S
N387 H391 0.985 . S
H388 N383 0.984 . S
H389 N383 0.985 . S
H390 N387 0.984 . S
H391 N387 0.985 . S
H392 N386 0.984 . S
H393 N386 0.984 . S
H394 N382 0.984 . S
H395 N382 0.985 . S
C396 C397 1.363 . S
C396 C402 1.379 . S
C396 N404 1.356 . S
C397 C396 1.363 . S
C397 C403 1.363 . S
C398 C399 1.363 . S
C398 C403 1.379 . S
C398 N405 1.356 . S
C399 C398 1.363 . S
C399 C402 1.363 . S
N400 C402 1.356 . S
N400 H412 0.984 . S
N400 H413 0.985 . S
N401 C403 1.356 . S
N401 H406 0.984 . S
N401 H407 0.985 . S
C402 C396 1.379 . S
C402 C399 1.363 . S
C402 N400 1.356 . S
C403 C397 1.363 . S
C403 C398 1.379 . S
C403 N401 1.356 . S
N404 C396 1.356 . S
N404 H410 0.984 . S
N404 H411 0.984 . S
N405 C398 1.356 . S
N405 H408 0.984 . S
N405 H409 0.985 . S
H406 N401 0.984 . S
H407 N401 0.985 . S
H408 N405 0.984 . S
H409 N405 0.985 . S
H410 N404 0.984 . S
H411 N404 0.984 . S
H412 N400 0.984 . S
H413 N400 0.985 . S
C414 C415 1.363 . S
C414 C420 1.379 . S
C414 N422 1.356 . S
C415 C414 1.363 . S
C415 C421 1.363 . S
C416 C417 1.363 . S
C416 C421 1.379 . S
C416 N423 1.356 . S
C417 C416 1.363 . S
C417 C420 1.363 . S
N418 C420 1.356 . S
N418 H430 0.984 . S
N418 H431 0.985 . S
N419 C421 1.356 . S
N419 H424 0.984 . S
N419 H425 0.985 . S
C420 C414 1.379 . S
C420 C417 1.363 . S
C420 N418 1.356 . S
C421 C415 1.363 . S
C421 C416 1.379 . S
C421 N419 1.356 . S
N422 C414 1.356 . S
N422 H428 0.984 . S
N422 H429 0.984 . S
N423 C416 1.356 . S
N423 H426 0.984 . S
N423 H427 0.985 . S
H424 N419 0.984 . S
H425 N419 0.985 . S
H426 N423 0.984 . S
H427 N423 0.985 . S
H428 N422 0.984 . S
H429 N422 0.984 . S
H430 N418 0.984 . S
H431 N418 0.985 . S
C432 C433 1.363 . S
C432 C438 1.379 . S
C432 N440 1.356 . S
C433 C432 1.363 . S
C433 C439 1.363 . S
C434 C435 1.363 . S
C434 C439 1.379 . S
C434 N441 1.356 . S
C435 C434 1.363 . S
C435 C438 1.363 . S
N436 C438 1.356 . S
N436 H448 0.984 . S
N436 H449 0.985 . S
N437 C439 1.356 . S
N437 H442 0.984 . S
N437 H443 0.985 . S
C438 C432 1.379 . S
C438 C435 1.363 . S
C438 N436 1.356 . S
C439 C433 1.363 . S
C439 C434 1.379 . S
C439 N437 1.356 . S
N440 C432 1.356 . S
N440 H446 0.984 . S
N440 H447 0.984 . S
N441 C434 1.356 . S
N441 H444 0.984 . S
N441 H445 0.985 . S
H442 N437 0.984 . S
H443 N437 0.985 . S
H444 N441 0.984 . S
H445 N441 0.985 . S
H446 N440 0.984 . S
H447 N440 0.984 . S
H448 N436 0.984 . S
H449 N436 0.985 . S
C450 C451 1.363 . S
C450 C456 1.379 . S
C450 N458 1.356 . S
C451 C450 1.363 . S
C451 C457 1.363 . S
C452 C453 1.363 . S
C452 C457 1.379 . S
C452 N459 1.356 . S
C453 C452 1.363 . S
C453 C456 1.363 . S
N454 C456 1.356 . S
N454 H466 0.984 . S
N454 H467 0.985 . S
N455 C457 1.356 . S
N455 H460 0.984 . S
N455 H461 0.985 . S
C456 C450 1.379 . S
C456 C453 1.363 . S
C456 N454 1.356 . S
C457 C451 1.363 . S
C457 C452 1.379 . S
C457 N455 1.356 . S
N458 C450 1.356 . S
N458 H464 0.984 . S
N458 H465 0.984 . S
N459 C452 1.356 . S
N459 H462 0.984 . S
N459 H463 0.985 . S
H460 N455 0.984 . S
H461 N455 0.985 . S
H462 N459 0.984 . S
H463 N459 0.985 . S
H464 N458 0.984 . S
H465 N458 0.984 . S
H466 N454 0.984 . S
H467 N454 0.985 . S
C468 C469 1.363 . S
C468 C474 1.379 . S
C468 N476 1.356 . S
C469 C468 1.363 . S
C469 C475 1.363 . S
C470 C471 1.363 . S
C470 C475 1.379 . S
C470 N477 1.356 . S
C471 C470 1.363 . S
C471 C474 1.363 . S
N472 C474 1.356 . S
N472 H484 0.984 . S
N472 H485 0.985 . S
N473 C475 1.356 . S
N473 H478 0.984 . S
N473 H479 0.985 . S
C474 C468 1.379 . S
C474 C471 1.363 . S
C474 N472 1.356 . S
C475 C469 1.363 . S
C475 C470 1.379 . S
C475 N473 1.356 . S
N476 C468 1.356 . S
N476 H482 0.984 . S
N476 H483 0.984 . S
N477 C470 1.356 . S
N477 H480 0.984 . S
N477 H481 0.985 . S
H478 N473 0.984 . S
H479 N473 0.985 . S
H480 N477 0.984 . S
H481 N477 0.985 . S
H482 N476 0.984 . S
H483 N476 0.984 . S
H484 N472 0.984 . S
H485 N472 0.985 . S
C486 C487 1.363 . S
C486 C492 1.379 . S
C486 N494 1.356 . S
C487 C486 1.363 . S
C487 C493 1.363 . S
C488 C489 1.363 . S
C488 C493 1.379 . S
C488 N495 1.356 . S
C489 C488 1.363 . S
C489 C492 1.363 . S
N490 C492 1.356 . S
N490 H502 0.984 . S
N490 H503 0.985 . S
N491 C493 1.356 . S
N491 H496 0.984 . S
N491 H497 0.985 . S
C492 C486 1.379 . S
C492 C489 1.363 . S
C492 N490 1.356 . S
C493 C487 1.363 . S
C493 C488 1.379 . S
C493 N491 1.356 . S
N494 C486 1.356 . S
N494 H500 0.984 . S
N494 H501 0.984 . S
N495 C488 1.356 . S
N495 H498 0.984 . S
N495 H499 0.985 . S
H496 N491 0.984 . S
H497 N491 0.985 . S
H498 N495 0.984 . S
H499 N495 0.985 . S
H500 N494 0.984 . S
H501 N494 0.984 . S
H502 N490 0.984 . S
H503 N490 0.985 . S
C504 C505 1.363 . S
C504 C510 1.379 . S
C504 N512 1.356 . S
C505 C504 1.363 . S
C505 C511 1.363 . S
C506 C507 1.363 . S
C506 C511 1.379 . S
C506 N513 1.356 . S
C507 C506 1.363 . S
C507 C510 1.363 . S
N508 C510 1.356 . S
N508 H520 0.984 . S
N508 H521 0.985 . S
N509 C511 1.356 . S
N509 H514 0.984 . S
N509 H515 0.985 . S
C510 C504 1.379 . S
C510 C507 1.363 . S
C510 N508 1.356 . S
C511 C505 1.363 . S
C511 C506 1.379 . S
C511 N509 1.356 . S
N512 C504 1.356 . S
N512 H518 0.984 . S
N512 H519 0.984 . S
N513 C506 1.356 . S
N513 H516 0.984 . S
N513 H517 0.985 . S
H514 N509 0.984 . S
H515 N509 0.985 . S
H516 N513 0.984 . S
H517 N513 0.985 . S
H518 N512 0.984 . S
H519 N512 0.984 . S
H520 N508 0.984 . S
H521 N508 0.985 . S
C522 C523 1.363 . S
C522 C528 1.379 . S
C522 N530 1.356 . S
C523 C522 1.363 . S
C523 C529 1.363 . S
C524 C525 1.363 . S
C524 C529 1.379 . S
C524 N531 1.356 . S
C525 C524 1.363 . S
C525 C528 1.363 . S
N526 C528 1.356 . S
N526 H538 0.984 . S
N526 H539 0.985 . S
N527 C529 1.356 . S
N527 H532 0.984 . S
N527 H533 0.985 . S
C528 C522 1.379 . S
C528 C525 1.363 . S
C528 N526 1.356 . S
C529 C523 1.363 . S
C529 C524 1.379 . S
C529 N527 1.356 . S
N530 C522 1.356 . S
N530 H536 0.984 . S
N530 H537 0.984 . S
N531 C524 1.356 . S
N531 H534 0.984 . S
N531 H535 0.985 . S
H532 N527 0.984 . S
H533 N527 0.985 . S
H534 N531 0.984 . S
H535 N531 0.985 . S
H536 N530 0.984 . S
H537 N530 0.984 . S
H538 N526 0.984 . S
H539 N526 0.985 . S
C540 C541 1.363 . S
C540 C546 1.379 . S
C540 N548 1.356 . S
C541 C540 1.363 . S
C541 C547 1.363 . S
C542 C543 1.363 . S
C542 C547 1.379 . S
C542 N549 1.356 . S
C543 C542 1.363 . S
C543 C546 1.363 . S
N544 C546 1.356 . S
N544 H556 0.984 . S
N544 H557 0.985 . S
N545 C547 1.356 . S
N545 H550 0.984 . S
N545 H551 0.985 . S
C546 C540 1.379 . S
C546 C543 1.363 . S
C546 N544 1.356 . S
C547 C541 1.363 . S
C547 C542 1.379 . S
C547 N545 1.356 . S
N548 C540 1.356 . S
N548 H554 0.984 . S
N548 H555 0.984 . S
N549 C542 1.356 . S
N549 H552 0.984 . S
N549 H553 0.985 . S
H550 N545 0.984 . S
H551 N545 0.985 . S
H552 N549 0.984 . S
H553 N549 0.985 . S
H554 N548 0.984 . S
H555 N548 0.984 . S
H556 N544 0.984 . S
H557 N544 0.985 . S
C558 C559 1.363 . S
C558 C564 1.379 . S
C558 N566 1.356 . S
C559 C558 1.363 . S
C559 C565 1.363 . S
C560 C561 1.363 . S
C560 C565 1.379 . S
C560 N567 1.356 . S
C561 C560 1.363 . S
C561 C564 1.363 . S
N562 C564 1.356 . S
N562 H574 0.984 . S
N562 H575 0.985 . S
N563 C565 1.356 . S
N563 H568 0.984 . S
N563 H569 0.985 . S
C564 C558 1.379 . S
C564 C561 1.363 . S
C564 N562 1.356 . S
C565 C559 1.363 . S
C565 C560 1.379 . S
C565 N563 1.356 . S
N566 C558 1.356 . S
N566 H572 0.984 . S
N566 H573 0.984 . S
N567 C560 1.356 . S
N567 H570 0.984 . S
N567 H571 0.985 . S
H568 N563 0.984 . S
H569 N563 0.985 . S
H570 N567 0.984 . S
H571 N567 0.985 . S
H572 N566 0.984 . S
H573 N566 0.984 . S
H574 N562 0.984 . S
H575 N562 0.985 . S
C576 C577 1.363 . S
C576 C582 1.379 . S
C576 N584 1.356 . S
C577 C576 1.363 . S
C577 C583 1.363 . S
C578 C579 1.363 . S
C578 C583 1.379 . S
C578 N585 1.356 . S
C579 C578 1.363 . S
C579 C582 1.363 . S
N580 C582 1.356 . S
N580 H592 0.984 . S
N580 H593 0.985 . S
N581 C583 1.356 . S
N581 H586 0.984 . S
N581 H587 0.985 . S
C582 C576 1.379 . S
C582 C579 1.363 . S
C582 N580 1.356 . S
C583 C577 1.363 . S
C583 C578 1.379 . S
C583 N581 1.356 . S
N584 C576 1.356 . S
N584 H590 0.984 . S
N584 H591 0.984 . S
N585 C578 1.356 . S
N585 H588 0.984 . S
N585 H589 0.985 . S
H586 N581 0.984 . S
H587 N581 0.985 . S
H588 N585 0.984 . S
H589 N585 0.985 . S
H590 N584 0.984 . S
H591 N584 0.984 . S
H592 N580 0.984 . S
H593 N580 0.985 . S
C594 C595 1.363 1_565 S
C594 C600 1.379 . S
C594 N602 1.356 . S
C595 C594 1.363 1_545 S
C595 C601 1.363 . S
C596 C597 1.363 . S
C596 C601 1.379 . S
C596 N603 1.356 . S
C597 C596 1.363 . S
C597 C600 1.363 1_545 S
N598 C600 1.356 . S
N598 H610 0.984 . S
N598 H611 0.985 . S
N599 C601 1.356 . S
N599 H604 0.984 . S
N599 H605 0.985 . S
C600 C594 1.379 . S
C600 C597 1.363 1_565 S
C600 N598 1.356 . S
C601 C595 1.363 . S
C601 C596 1.379 . S
C601 N599 1.356 . S
N602 C594 1.356 . S
N602 H608 0.984 . S
N602 H609 0.984 . S
N603 C596 1.356 . S
N603 H606 0.984 . S
N603 H607 0.985 . S
H604 N599 0.984 . S
H605 N599 0.985 . S
H606 N603 0.984 . S
H607 N603 0.985 . S
H608 N602 0.984 . S
H609 N602 0.984 . S
H610 N598 0.984 . S
H611 N598 0.985 . S
C612 C613 1.363 . S
C612 C618 1.379 . S
C612 N620 1.356 . S
C613 C612 1.363 . S
C613 C619 1.363 . S
C614 C615 1.363 . S
C614 C619 1.379 . S
C614 N621 1.356 . S
C615 C614 1.363 . S
C615 C618 1.363 . S
N616 C618 1.356 . S
N616 H628 0.984 . S
N616 H629 0.985 . S
N617 C619 1.356 . S
N617 H622 0.984 . S
N617 H623 0.985 . S
C618 C612 1.379 . S
C618 C615 1.363 . S
C618 N616 1.356 . S
C619 C613 1.363 . S
C619 C614 1.379 . S
C619 N617 1.356 . S
N620 C612 1.356 . S
N620 H626 0.984 . S
N620 H627 0.984 . S
N621 C614 1.356 . S
N621 H624 0.984 . S
N621 H625 0.985 . S
H622 N617 0.984 . S
H623 N617 0.985 . S
H624 N621 0.984 . S
H625 N621 0.985 . S
H626 N620 0.984 . S
H627 N620 0.984 . S
H628 N616 0.984 . S
H629 N616 0.985 . S
C630 C631 1.363 1_565 S
C630 C636 1.379 . S
C630 N638 1.356 . S
C631 C630 1.363 1_545 S
C631 C637 1.363 . S
C632 C633 1.363 1_545 S
C632 C637 1.379 . S
C632 N639 1.356 . S
C633 C632 1.363 1_565 S
C633 C636 1.363 . S
N634 C636 1.356 . S
N634 H646 0.984 . S
N634 H647 0.985 . S
N635 C637 1.356 . S
N635 H640 0.984 . S
N635 H641 0.985 . S
C636 C630 1.379 . S
C636 C633 1.363 . S
C636 N634 1.356 . S
C637 C631 1.363 . S
C637 C632 1.379 . S
C637 N635 1.356 . S
N638 C630 1.356 . S
N638 H644 0.984 . S
N638 H645 0.984 . S
N639 C632 1.356 . S
N639 H642 0.984 . S
N639 H643 0.985 . S
H640 N635 0.984 . S
H641 N635 0.985 . S
H642 N639 0.984 . S
H643 N639 0.985 . S
H644 N638 0.984 . S
H645 N638 0.984 . S
H646 N634 0.984 . S
H647 N634 0.985 . S
C648 C649 1.363 . S
C648 C654 1.379 . S
C648 N656 1.356 . S
C649 C648 1.363 . S
C649 C655 1.363 . S
C650 C651 1.363 . S
C650 C655 1.379 . S
C650 N657 1.356 . S
C651 C650 1.363 . S
C651 C654 1.363 . S
N652 C654 1.356 . S
N652 H664 0.984 . S
N652 H665 0.985 . S
N653 C655 1.356 . S
N653 H658 0.984 . S
N653 H659 0.985 . S
C654 C648 1.379 . S
C654 C651 1.363 . S
C654 N652 1.356 . S
C655 C649 1.363 . S
C655 C650 1.379 . S
C655 N653 1.356 . S
N656 C648 1.356 . S
N656 H662 0.984 . S
N656 H663 0.984 . S
N657 C650 1.356 . S
N657 H660 0.984 . S
N657 H661 0.985 . S
H658 N653 0.984 . S
H659 N653 0.985 . S
H660 N657 0.984 . S
H661 N657 0.985 . S
H662 N656 0.984 . S
H663 N656 0.984 . S
H664 N652 0.984 . S
H665 N652 0.985 . S
C666 C667 1.363 1_655 S
C666 C672 1.379 . S
C666 N674 1.356 . S
C667 C666 1.363 1_455 S
C667 C673 1.363 . S
C668 C669 1.363 1_455 S
C668 C673 1.379 . S
C668 N675 1.356 . S
C669 C668 1.363 1_655 S
C669 C672 1.363 . S
N670 C672 1.356 . S
N670 H682 0.984 . S
N670 H683 0.985 . S
N671 C673 1.356 . S
N671 H676 0.984 . S
N671 H677 0.985 . S
C672 C666 1.379 . S
C672 C669 1.363 . S
C672 N670 1.356 . S
C673 C667 1.363 . S
C673 C668 1.379 . S
C673 N671 1.356 . S
N674 C666 1.356 . S
N674 H680 0.984 . S
N674 H681 0.984 . S
N675 C668 1.356 . S
N675 H678 0.984 . S
N675 H679 0.985 . S
H676 N671 0.984 . S
H677 N671 0.985 . S
H678 N675 0.984 . S
H679 N675 0.985 . S
H680 N674 0.984 . S
H681 N674 0.984 . S
H682 N670 0.984 . S
H683 N670 0.985 . S
C361 C7 0.950 . S
C363 C335 0.992 . S
C379 C51 2.076 . S
C381 C242 2.030 . S
C397 C87 1.316 . S
C399 C282 1.354 . S
C415 C16 0.551 . S
C417 C322 0.479 . S
C435 C255 2.178 . S
C433 C42 2.309 . S
C453 C295 1.399 . S
C451 C96 1.403 . S
C469 C47 1.246 . S
C471 C162 1.246 . S
C487 C91 3.262 . S
C489 C202 3.204 . S
C505 C2 2.345 . S
C507 C135 2.232 . S
C525 C175 1.393 . S
C523 C56 1.382 . S
C543 C215 3.084 . S
C541 C82 3.175 . S
C559 C11 2.069 . S
C561 C122 2.026 . S
C579 C221 1.765 . S
C577 C19 1.716 . S
C595 C50 1.356 . S
C597 C141 1.386 . S
C613 C99 1.474 . S
C615 C181 1.512 . S
C633 C301 1.507 . S
C631 C59 1.472 . S
C651 C341 1.162 . S
C649 C90 1.157 . S
C667 C10 1.349 . S
C669 C261 1.374 . S
