# Generated by pormake.
# Topology nia, (6,6)-cn, num edge types: 1
# Building blocks:
#     Node 0, Type 0, BuildingBlock: KUMBUR_clean_sbu_1, # of connection points: 6
#     Node 1, Type 0, BuildingBlock: KUMBUR_clean_sbu_1, # of connection points: 6
#     Node 2, Type 1, BuildingBlock: MIDCAF_clean_sbu_0, # of connection points: 6
#     Node 3, Type 1, BuildingBlock: MIDCAF_clean_sbu_0, # of connection points: 6
#     Edge 4, Type (0, 1), BuildingBlock: CIFDUS_clean_linker_0, # of connection points: 2
#     Edge 5, Type (0, 1), BuildingBlock: CIFDUS_clean_linker_0, # of connection points: 2
#     Edge 6, Type (0, 1), BuildingBlock: CIFDUS_clean_linker_0, # of connection points: 2
#     Edge 7, Type (0, 1), BuildingBlock: CIFDUS_clean_linker_0, # of connection points: 2
#     Edge 8, Type (0, 1), BuildingBlock: CIFDUS_clean_linker_0, # of connection points: 2
#     Edge 9, Type (0, 1), BuildingBlock: CIFDUS_clean_linker_0, # of connection points: 2
#     Edge 10, Type (0, 1), BuildingBlock: CIFDUS_clean_linker_0, # of connection points: 2
#     Edge 11, Type (0, 1), BuildingBlock: CIFDUS_clean_linker_0, # of connection points: 2
#     Edge 12, Type (0, 1), BuildingBlock: CIFDUS_clean_linker_0, # of connection points: 2
#     Edge 13, Type (0, 1), BuildingBlock: CIFDUS_clean_linker_0, # of connection points: 2
#     Edge 14, Type (0, 1), BuildingBlock: CIFDUS_clean_linker_0, # of connection points: 2
#     Edge 15, Type (0, 1), BuildingBlock: CIFDUS_clean_linker_0, # of connection points: 2
# Relax obj value: 0.174
# Max RMSD: 0.283
# Mean RMSD: 0.203
data_MOF--net-nia--node1-KUMBUR_clean_sbu_1--node2-MIDCAF_clean_sbu_0--edge1-CIFDUS_clean_linker_0
_symmetry_space_group_name_H-M    P1
_symmetry_Int_Tables_number       1
_symmetry_cell_setting            triclinic
loop_
_symmetry_equiv_pos_as_xyz
'x, y, z'
_cell_length_a     25.305427
_cell_length_b     25.300642
_cell_length_c     27.712423
_cell_angle_alpha  91.049461
_cell_angle_beta   89.338717
_cell_angle_gamma 136.22747
loop_
_atom_site_label
_atom_site_type_symbol
_atom_site_fract_x
_atom_site_fract_y
_atom_site_fract_z
_atom_type_partial_charge
Tb0 Tb 0.06803 -0.00097 0.06705 0.0
C1 C 0.84967 0.87949 0.90278 0.0
N2 N 0.92552 0.94526 0.90458 0.0
C3 C 0.94345 0.91354 0.82825 0.0
C4 C 0.81803 0.82645 0.86448 0.0
C5 C 0.97235 0.96402 0.86735 0.0
C6 C 0.86612 0.84407 0.82706 0.0
C7 C 0.72515 0.79805 0.93971 0.0
C8 C 0.80434 0.86543 0.94006 0.0
C9 C 0.69332 0.74374 0.90237 0.0
C10 C 0.7397 0.75791 0.86481 0.0
Tb11 Tb 0.96774 0.02337 0.97042 0.0
N12 N 0.83743 0.91936 0.97553 0.0
C13 C 0.68012 0.78834 0.97614 0.0
C14 C 0.7925 0.91293 1.00853 0.0
C15 C 0.7138 0.84676 1.01016 0.0
H16 H 0.03191 0.01801 0.86767 0.0
H17 H 0.67899 0.84152 0.03712 0.0
H18 H 0.96577 0.93224 0.16867 0.0
H19 H 0.37107 0.24305 0.04151 0.0
H20 H 0.81639 0.95947 0.03286 0.0
H21 H 0.61904 0.73745 0.97719 0.0
H22 H 0.24172 0.11607 0.02131 0.0
H23 H 0.9808 0.92816 0.79911 0.0
H24 H 0.63272 0.69129 0.90173 0.0
H25 H 0.71433 0.71599 0.83595 0.0
H26 H 0.97564 0.98382 0.24775 0.0
H27 H 0.84406 0.80482 0.79699 0.0
H28 H 0.39165 0.31103 0.11639 0.0
N29 N 0.07229 0.03821 0.14346 0.0
C30 C 0.13975 0.10948 0.15673 0.0
C31 C 0.02166 0.02076 0.22221 0.0
C32 C 0.14925 0.14116 0.2023 0.0
C33 C 0.01545 0.99196 0.17671 0.0
C34 C 0.08817 0.09639 0.23473 0.0
N35 N 0.18996 0.11439 0.08312 0.0
C36 C 0.25045 0.14567 0.05392 0.0
C37 C 0.27358 0.22053 0.13898 0.0
C38 C 0.20115 0.14842 0.12584 0.0
C39 C 0.33501 0.25551 0.10769 0.0
C40 C 0.32359 0.21733 0.06533 0.0
H41 H 0.09331 0.11837 0.27025 0.0
H42 H 0.22831 0.24076 0.24925 0.0
H43 H 0.33726 0.31055 0.19355 0.0
O44 O 0.09794 0.94331 0.04509 0.0
O45 O 0.12117 0.10916 0.04028 0.0
O46 O 0.0295 0.10556 0.03099 0.0
O47 O 0.09061 0.95932 0.1202 0.0
O48 O 0.09934 0.01039 0.99084 0.0
O49 O 0.08371 0.07912 0.9507 0.0
O50 O 0.91192 0.05302 0.95121 0.0
O51 O 0.96237 0.93303 0.96471 0.0
O52 O 0.9529 0.89569 0.04161 0.0
O53 O 0.02117 0.11256 0.92087 0.0
O54 O 0.94233 0.01796 0.04781 0.0
O55 O 0.95203 0.94357 0.08465 0.0
C56 C 0.09519 0.1379 0.04888 0.0
C57 C 0.0667 0.85348 0.09921 0.0
C58 C 0.0828 0.77272 0.11999 0.0
C59 C 0.00302 0.70991 0.12326 0.0
C60 C 0.98716 0.79048 0.10203 0.0
C61 C 0.95555 0.71885 0.11402 0.0
C62 C 0.11399 0.84434 0.10797 0.0
C63 C 0.11411 0.05323 0.95478 0.0
C64 C 0.10272 0.93022 0.08906 0.0
C65 C 0.22024 0.2149 0.21472 0.0
C66 C 0.28235 0.25453 0.18309 0.0
C67 C 0.93398 0.87946 0.99574 0.0
C68 C 0.93683 0.10563 0.87502 0.0
C69 C 0.88134 0.13962 0.83157 0.0
C70 C 0.87457 0.10201 0.79025 0.0
C71 C 0.93117 0.0699 0.8331 0.0
C72 C 0.91221 0.1406 0.87392 0.0
C73 C 0.89986 0.06789 0.791 0.0
C74 C 0.9256 0.97328 0.08305 0.0
C75 C 0.9645 0.10492 0.92122 0.0
H76 H 0.9775 0.65395 0.1323 0.0
H77 H 0.94992 0.79689 0.09543 0.0
H78 H 0.89415 0.67021 0.11631 0.0
H79 H 0.17551 0.89362 0.10628 0.0
H80 H 0.85079 0.09992 0.75725 0.0
H81 H 0.95038 0.04333 0.83278 0.0
H82 H 0.91591 0.16751 0.90653 0.0
H83 H 0.89511 0.03973 0.75885 0.0
Tb84 Tb 0.01486 0.96661 0.47034 0.0
C85 C 0.14723 0.16673 0.65305 0.0
N86 N 0.08177 0.09135 0.64766 0.0
C87 C 0.11311 0.06337 0.71734 0.0
C88 C 0.20044 0.1933 0.68951 0.0
C89 C 0.06246 0.03987 0.68026 0.0
C90 C 0.18286 0.14032 0.72164 0.0
C91 C 0.22597 0.29621 0.62723 0.0
C92 C 0.15942 0.2171 0.6225 0.0
C93 C 0.28155 0.32301 0.66167 0.0
C94 C 0.26865 0.27162 0.69292 0.0
Tb95 Tb 0.00196 0.05788 0.58675 0.0
N96 N 0.10354 0.1888 0.59041 0.0
C97 C 0.23314 0.34604 0.59858 0.0
C98 C 0.1072 0.23781 0.56597 0.0
C99 C 0.17271 0.31675 0.56855 0.0
H100 H 0.00809 0.98069 0.67759 0.0
H101 H 0.17589 0.35502 0.54811 0.0
H102 H 0.04903 0.07508 0.37936 0.0
H103 H 0.79018 0.66169 0.49419 0.0
H104 H 0.05915 0.2167 0.54527 0.0
H105 H 0.28337 0.40725 0.60103 0.0
H106 H 0.91304 0.79392 0.51253 0.0
H107 H 0.09834 0.02224 0.74258 0.0
H108 H 0.33351 0.38352 0.66544 0.0
H109 H 0.311 0.29313 0.72012 0.0
H110 H 0.9747 0.06218 0.31477 0.0
H111 H 0.22214 0.15831 0.75018 0.0
H112 H 0.7107 0.63508 0.4263 0.0
N113 N 0.95743 0.96134 0.40401 0.0
C114 C 0.88833 0.89032 0.39186 0.0
C115 C 0.94921 0.01347 0.3366 0.0
C116 C 0.84625 0.87854 0.35212 0.0
C117 C 0.99035 0.02146 0.37473 0.0
C118 C 0.87648 0.94173 0.32543 0.0
N119 N 0.90094 0.84265 0.45791 0.0
C120 C 0.87795 0.78353 0.48384 0.0
C121 C 0.7901 0.75395 0.40658 0.0
C122 C 0.86008 0.82883 0.41897 0.0
C123 C 0.76428 0.69343 0.43454 0.0
C124 C 0.80877 0.70827 0.47307 0.0
H125 H 0.84549 0.93532 0.29508 0.0
H126 H 0.74259 0.79423 0.30996 0.0
H127 H 0.69396 0.68497 0.35713 0.0
O128 O 0.07048 0.93257 0.4716 0.0
O129 O 0.90804 0.91653 0.50393 0.0
O130 O 0.92219 0.01305 0.52738 0.0
O131 O 0.04718 0.95435 0.40473 0.0
O132 O 0.01173 0.92818 0.54161 0.0
O133 O 0.9461 0.93962 0.59256 0.0
O134 O 0.97559 0.10628 0.62928 0.0
O135 O 0.08865 0.05944 0.57929 0.0
O136 O 0.12297 0.07637 0.4997 0.0
O137 O 0.90923 0.98729 0.63419 0.0
O138 O 0.01066 0.09952 0.51456 0.0
O139 O 0.07413 0.08562 0.46327 0.0
C140 C 0.88484 0.94899 0.5035 0.0
C141 C 0.15079 0.96992 0.40467 0.0
C142 C 0.224 0.94873 0.36987 0.0
C143 C 0.27759 0.02424 0.35268 0.0
C144 C 0.20565 0.04513 0.38805 0.0
C145 C 0.26896 0.07212 0.36244 0.0
C146 C 0.16132 0.92307 0.39682 0.0
C147 C 0.97167 0.91022 0.58103 0.0
C148 C 0.0777 0.9356 0.42491 0.0
C149 C 0.77586 0.80423 0.34011 0.0
C150 C 0.74818 0.742 0.36699 0.0
C151 C 0.14089 0.0938 0.54581 0.0
C152 C 0.84461 0.02121 0.65083 0.0
C153 C 0.78039 0.06018 0.66147 0.0
C154 C 0.71033 0.98274 0.66585 0.0
C155 C 0.77375 0.9444 0.65506 0.0
C156 C 0.84745 0.07886 0.6539 0.0
C157 C 0.70717 0.9255 0.66227 0.0
C158 C 0.0526 0.11848 0.47593 0.0
C159 C 0.9157 0.04114 0.64802 0.0
H160 H 0.32558 0.04644 0.33078 0.0
H161 H 0.19843 0.08211 0.3937 0.0
H162 H 0.31057 0.12985 0.34894 0.0
H163 H 0.11925 0.86596 0.41128 0.0
H164 H 0.65785 0.96618 0.67304 0.0
H165 H 0.76977 0.8988 0.65372 0.0
H166 H 0.90191 0.13819 0.65092 0.0
H167 H 0.653 0.86625 0.66597 0.0
Zn168 Zn 0.41431 0.67826 0.18587 0.0
Zn169 Zn 0.34389 0.63213 0.36273 0.0
Zn170 Zn 0.38633 0.65046 0.27558 0.0
C171 C 0.4979 0.70583 0.35934 0.0
C172 C 0.25641 0.48774 0.3295 0.0
O173 O 0.33842 0.6899 0.24555 0.0
O174 O 0.35781 0.70125 0.16681 0.0
C175 C 0.55499 0.765 0.22693 0.0
O176 O 0.49245 0.71117 0.31402 0.0
O177 O 0.44085 0.67053 0.38675 0.0
O178 O 0.25383 0.52084 0.36249 0.0
O179 O 0.30451 0.52698 0.29458 0.0
O180 O 0.52654 0.76207 0.1886 0.0
O181 O 0.51156 0.72428 0.2634 0.0
O182 O 0.31785 0.53692 0.24291 0.0
O183 O 0.365 0.57358 0.16916 0.0
C184 C 0.32187 0.52088 0.19959 0.0
O185 O 0.35288 0.71016 0.29496 0.0
O186 O 0.32842 0.69741 0.37321 0.0
C187 C 0.32845 0.70236 0.20332 0.0
C188 C 0.33614 0.72543 0.33335 0.0
Zn189 Zn 0.63461 0.33841 0.85319 0.0
Zn190 Zn 0.68192 0.4013 0.67215 0.0
Zn191 Zn 0.65305 0.37365 0.76199 0.0
C192 C 0.77638 0.54182 0.71624 0.0
C193 C 0.52984 0.32044 0.68366 0.0
O194 O 0.68517 0.31322 0.77842 0.0
O195 O 0.67776 0.29756 0.85748 0.0
C196 C 0.73106 0.49676 0.84977 0.0
O197 O 0.73626 0.49958 0.75308 0.0
O198 O 0.76884 0.5119 0.67651 0.0
O199 O 0.58286 0.35996 0.65295 0.0
O200 O 0.54403 0.31633 0.72717 0.0
O201 O 0.69556 0.44247 0.87905 0.0
O202 O 0.7249 0.4833 0.80388 0.0
O203 O 0.5314 0.30336 0.77806 0.0
O204 O 0.52208 0.26609 0.85215 0.0
C205 C 0.49148 0.26503 0.81592 0.0
O206 O 0.69072 0.32345 0.72877 0.0
O207 O 0.70066 0.34221 0.65005 0.0
C208 C 0.69285 0.28988 0.8161 0.0
C209 C 0.70394 0.31465 0.68575 0.0
H210 H 0.07913 0.70226 0.19515 0.0
H211 H 0.20275 0.82657 0.06511 0.0
H212 H 0.29217 0.81948 0.08089 0.0
H213 H 0.33457 0.77699 0.131 0.0
H214 H 0.20865 0.64784 0.25913 0.0
H215 H 0.12183 0.65916 0.24553 0.0
C216 C 0.12529 0.72712 0.17014 0.0
C217 C 0.13436 0.76476 0.12902 0.0
C218 C 0.17672 0.72304 0.17952 0.0
C219 C 0.19499 0.79774 0.09719 0.0
C220 C 0.24606 0.79367 0.10614 0.0
C221 C 0.28837 0.75174 0.15608 0.0
C222 C 0.27918 0.71346 0.19675 0.0
C223 C 0.23754 0.75658 0.14719 0.0
C224 C 0.21859 0.68019 0.22862 0.0
C225 C 0.16821 0.68556 0.2204 0.0
H226 H 0.1842 0.06954 0.62262 0.0
H227 H 0.27293 0.22528 0.50577 0.0
H228 H 0.40189 0.31271 0.54053 0.0
H229 H 0.48743 0.34494 0.60526 0.0
H230 H 0.39655 0.18832 0.72218 0.0
H231 H 0.26878 0.1021 0.68742 0.0
C232 C 0.2319 0.12269 0.60475 0.0
C233 C 0.21967 0.14162 0.56196 0.0
C234 C 0.30455 0.17292 0.6256 0.0
C235 C 0.28161 0.20965 0.53856 0.0
C236 C 0.35481 0.2598 0.55876 0.0
C237 C 0.43947 0.29229 0.62343 0.0
C238 C 0.45123 0.27358 0.66676 0.0
C239 C 0.36661 0.24229 0.60257 0.0
C240 C 0.38874 0.20515 0.68974 0.0
C241 C 0.31594 0.1552 0.66935 0.0
H242 H 0.06454 0.17705 0.12775 0.0
H243 H 0.23958 0.2653 0.02373 0.0
H244 H 0.3278 0.39023 0.06432 0.0
H245 H 0.3534 0.47504 0.12719 0.0
H246 H 0.18118 0.38878 0.23318 0.0
H247 H 0.09429 0.26137 0.19532 0.0
C248 C 0.12179 0.22424 0.11391 0.0
C249 C 0.14558 0.21334 0.07238 0.0
C250 C 0.17282 0.29537 0.13826 0.0
C251 C 0.22023 0.27343 0.05527 0.0
C252 C 0.27063 0.34445 0.0786 0.0
C253 C 0.29704 0.42821 0.14231 0.0
C254 C 0.27356 0.44134 0.18276 0.0
C255 C 0.24738 0.35612 0.11988 0.0
C256 C 0.20086 0.37994 0.20237 0.0
C257 C 0.15084 0.3074 0.1803 0.0
H258 H 0.6772 0.05576 0.62736 0.0
H259 H 0.89001 0.20182 0.70596 0.0
H260 H 0.88708 0.2953 0.71932 0.0
H261 H 0.81872 0.33166 0.7134 0.0
H262 H 0.60512 0.18288 0.63606 0.0
H263 H 0.61239 0.09324 0.61882 0.0
C264 C 0.72272 0.10765 0.64783 0.0
C265 C 0.78286 0.12068 0.66632 0.0
C266 C 0.72 0.16037 0.65617 0.0
C267 C 0.84286 0.18991 0.69111 0.0
C268 C 0.84112 0.24344 0.69903 0.0
C269 C 0.77416 0.27957 0.69277 0.0
C270 C 0.71093 0.26271 0.67651 0.0
C271 C 0.77916 0.22859 0.68255 0.0
C272 C 0.65379 0.19602 0.64923 0.0
C273 C 0.65801 0.14503 0.6393 0.0
H274 H 0.83411 0.84926 0.14302 0.0
H275 H 0.89678 0.05457 0.10899 0.0
H276 H 0.7949 0.01492 0.16056 0.0
H277 H 0.67514 0.91212 0.20362 0.0
H278 H 0.6128 0.70827 0.24002 0.0
H279 H 0.72937 0.75864 0.20145 0.0
C280 C 0.82691 0.88636 0.14795 0.0
C281 C 0.87193 0.95392 0.12103 0.0
C282 C 0.76839 0.86359 0.17836 0.0
C283 C 0.86178 0.00131 0.12816 0.0
C284 C 0.80368 0.9789 0.15789 0.0
C285 C 0.68901 0.88039 0.20502 0.0
C286 C 0.63573 0.80676 0.22456 0.0
C287 C 0.75484 0.90884 0.18163 0.0
C288 C 0.65353 0.76555 0.22573 0.0
C289 C 0.7195 0.7938 0.20282 0.0
H290 H 0.86857 0.8323 0.65525 0.0
H291 H 0.04204 0.86543 0.58163 0.0
H292 H 0.00805 0.7639 0.62796 0.0
H293 H 0.91542 0.65217 0.67823 0.0
H294 H 0.73672 0.61181 0.74889 0.0
H295 H 0.78802 0.73117 0.71657 0.0
C296 C 0.89962 0.81801 0.6499 0.0
C297 C 0.95622 0.85495 0.61395 0.0
C298 C 0.87918 0.75854 0.67645 0.0
C299 C -0.00321 0.83661 0.60805 0.0
C300 C 0.9778 0.77881 0.63478 0.0
C301 C 0.8897 0.67131 0.68809 0.0
C302 C 0.82243 0.6236 0.71541 0.0
C303 C 0.91725 0.73754 0.66759 0.0
C304 C 0.78904 0.64823 0.7281 0.0
C305 C 0.81765 0.71577 0.70895 0.0
H306 H 0.35572 0.98643 0.35207 0.0
H307 H 0.11022 0.79107 0.36107 0.0
H308 H 0.12359 0.70589 0.35128 0.0
H309 H 0.20512 0.6857 0.34402 0.0
H310 H 0.44666 0.8786 0.32112 0.0
H311 H 0.43431 0.96592 0.33098 0.0
C312 C 0.30451 0.92548 0.35084 0.0
C313 C 0.23215 0.89642 0.35915 0.0
C314 C 0.31184 0.87599 0.34242 0.0
C315 C 0.1673 0.81641 0.35745 0.0
C316 C 0.17455 0.76703 0.35104 0.0
C317 C 0.25461 0.74683 0.34024 0.0
C318 C 0.32656 0.77616 0.33172 0.0
C319 C 0.24657 0.79614 0.34432 0.0
C320 C 0.39063 0.85517 0.32715 0.0
C321 C 0.38356 0.9049 0.33307 0.0
H322 H 0.20081 0.17227 0.89039 0.0
H323 H 0.15138 0.97801 0.93657 0.0
H324 H 0.25693 0.01997 0.88905 0.0
H325 H 0.37556 0.12197 0.84618 0.0
H326 H 0.42959 0.31768 0.7991 0.0
H327 H 0.30938 0.26436 0.83368 0.0
C328 C 0.21234 0.1385 0.88923 0.0
C329 C 0.16966 0.07346 0.91838 0.0
C330 C 0.27425 0.16335 0.86175 0.0
C331 C 0.1846 0.02962 0.91579 0.0
C332 C 0.24489 0.05329 0.88839 0.0
C333 C 0.35964 0.15162 0.84213 0.0
C334 C 0.41112 0.22363 0.82072 0.0
C335 C 0.29192 0.12159 0.86299 0.0
C336 C 0.39035 0.26183 0.8154 0.0
C337 C 0.32219 0.23181 0.83578 0.0
H338 H 0.16749 0.20411 0.40909 0.0
H339 H 0.98426 0.16555 0.47012 0.0
H340 H 0.02387 0.26944 0.42284 0.0
H341 H 0.1187 0.37988 0.37145 0.0
H342 H 0.29944 0.41728 0.30761 0.0
H343 H 0.24963 0.30202 0.34624 0.0
C344 C 0.13549 0.21766 0.4115 0.0
C345 C 0.07409 0.17817 0.44414 0.0
C346 C 0.1573 0.27635 0.38308 0.0
C347 C 0.03298 0.19618 0.4464 0.0
C348 C 0.05508 0.25515 0.41897 0.0
C349 C 0.14585 0.36148 0.36488 0.0
C350 C 0.21313 0.40735 0.33739 0.0
C351 C 0.11821 0.29674 0.38816 0.0
C352 C 0.24746 0.38273 0.32861 0.0
C353 C 0.21969 0.31756 0.35135 0.0
H354 H 0.75216 0.08787 0.79139 0.0
H355 H 0.95666 0.27922 0.86982 0.0
H356 H 0.91651 0.34251 0.87154 0.0
H357 H 0.82242 0.34306 0.85206 0.0
H358 H 0.62022 0.15513 0.7714 0.0
H359 H 0.65995 0.09067 0.76916 0.0
C360 C 0.78812 0.14361 0.80858 0.0
C361 C 0.85705 0.17841 0.83082 0.0
C362 C 0.76485 0.18006 0.80923 0.0
C363 C 0.90278 0.25057 0.85312 0.0
C364 C 0.88009 0.28704 0.85392 0.0
C365 C 0.78761 0.28825 0.83373 0.0
C366 C 0.71911 0.2538 0.81161 0.0
C367 C 0.81118 0.25224 0.83232 0.0
C368 C 0.67361 0.18261 0.78828 0.0
C369 C 0.6961 0.14574 0.78728 0.0
H370 H 0.75149 0.80047 0.49527 0.0
H371 H 0.87188 0.02409 0.44492 0.0
H372 H 0.76574 0.96798 0.39052 0.0
H373 H 0.63655 0.8541 0.35846 0.0
H374 H 0.51581 0.63172 0.41196 0.0
H375 H 0.62479 0.68772 0.46277 0.0
C376 C 0.75403 0.83666 0.47244 0.0
C377 C 0.81882 0.91586 0.47374 0.0
C378 C 0.6932 0.804 0.44135 0.0
C379 C 0.82186 0.96279 0.44457 0.0
C380 C 0.76163 0.9307 0.4132 0.0
C381 C 0.63527 0.81818 0.38049 0.0
C382 C 0.56927 0.73911 0.38128 0.0
C383 C 0.69704 0.85123 0.41111 0.0
C384 C 0.56679 0.69278 0.41067 0.0
C385 C 0.62849 0.72477 0.44011 0.0
H386 H 0.95402 0.84449 0.9094 0.0
H387 H 0.82035 0.74258 0.03966 0.0
H388 H 0.74501 0.61485 1.0053 0.0
H389 H 0.71539 0.53311 0.93745 0.0
H390 H 0.85355 0.63523 0.80903 0.0
H391 H 0.92717 0.76266 0.84249 0.0
C392 C 0.90792 0.79426 0.93009 0.0
C393 C 0.89178 0.8026 0.97669 0.0
C394 C 0.86503 0.72149 0.91002 0.0
C395 C 0.83361 0.73732 1.00373 0.0
C396 C 0.79039 0.6645 0.98397 0.0
C397 C 0.76171 0.58319 0.9167 0.0
C398 C 0.77731 0.57457 0.86985 0.0
C399 C 0.80531 0.65601 0.93703 0.0
C400 C 0.83796 0.64015 0.8439 0.0
C401 C 0.88095 0.713 0.86351 0.0
loop_
_geom_bond_atom_site_label_1
_geom_bond_atom_site_label_2
_geom_bond_distance
_geom_bond_site_symmetry_2
_ccdc_geom_bond_type
Tb0 N29 2.617 . S
Tb0 N35 2.572 1_565 S
Tb0 O44 2.465 . S
Tb0 O45 2.387 1_565 S
Tb0 O47 2.428 . S
Tb0 O48 2.308 1_564 S
Tb0 O52 2.349 1_454 S
Tb0 O55 2.393 1_455 S
Tb0 C64 2.802 . S
C1 N2 1.378 1_665 S
C1 C4 1.416 . S
C1 C8 1.424 . S
N2 C1 1.378 1_445 S
N2 C5 1.337 . S
N2 Tb11 2.617 1_455 S
C3 C5 1.390 . S
C3 C6 1.339 . S
C3 H23 0.930 . S
C4 C1 1.416 . S
C4 C6 1.416 1_665 S
C4 C10 1.448 . S
C5 N2 1.337 . S
C5 C3 1.390 . S
C5 H16 0.930 . S
C6 C3 1.339 . S
C6 C4 1.416 1_445 S
C6 H27 0.930 1_545 S
C7 C8 1.413 . S
C7 C9 1.427 . S
C7 C13 1.416 . S
C8 C1 1.424 . S
C8 C7 1.413 . S
C8 N12 1.361 . S
C9 C7 1.427 . S
C9 C10 1.328 . S
C9 H24 0.929 . S
C10 C4 1.448 . S
C10 C9 1.328 . S
C10 H25 0.930 . S
Tb11 N2 2.617 1_655 S
Tb11 N12 2.572 1_545 S
Tb11 O46 2.349 1_656 S
Tb11 O49 2.393 1_655 S
Tb11 O50 2.465 . S
Tb11 O51 2.387 1_545 S
Tb11 O53 2.428 1_655 S
Tb11 O54 2.308 1_546 S
Tb11 C75 2.802 . S
N12 C8 1.361 . S
N12 Tb11 2.572 1_565 S
N12 C14 1.340 . S
C13 C7 1.416 . S
C13 C15 1.332 . S
C13 H21 0.931 . S
C14 N12 1.340 . S
C14 C15 1.407 . S
C14 H20 0.930 . S
C15 C13 1.332 . S
C15 C14 1.407 . S
C15 H17 0.929 . S
H16 C5 0.930 . S
H17 C15 0.929 . S
H18 C33 0.930 . S
H19 C40 0.929 . S
H20 C14 0.930 . S
H21 C13 0.931 . S
H22 C36 0.930 . S
H23 C3 0.930 . S
H24 C9 0.929 . S
H25 C10 0.930 . S
H26 C31 0.930 . S
H27 C6 0.930 1_565 S
H28 C39 0.931 . S
N29 Tb0 2.617 . S
N29 C30 1.379 1_565 S
N29 C33 1.334 1_455 S
C30 N29 1.379 1_545 S
C30 C32 1.416 . S
C30 C38 1.424 . S
C31 H26 0.930 . S
C31 C33 1.390 . S
C31 C34 1.335 1_565 S
C32 C30 1.416 . S
C32 C34 1.415 1_455 S
C32 C65 1.448 . S
C33 H18 0.930 . S
C33 N29 1.334 1_655 S
C33 C31 1.390 . S
C34 C31 1.335 1_545 S
C34 C32 1.415 1_655 S
C34 H41 0.935 . S
N35 Tb0 2.572 1_545 S
N35 C36 1.340 . S
N35 C38 1.361 . S
C36 H22 0.930 . S
C36 N35 1.340 . S
C36 C40 1.407 . S
C37 C38 1.413 . S
C37 C39 1.416 . S
C37 C66 1.427 . S
C38 C30 1.424 . S
C38 N35 1.361 . S
C38 C37 1.413 . S
C39 H28 0.931 . S
C39 C37 1.416 . S
C39 C40 1.332 . S
C40 H19 0.929 . S
C40 C36 1.407 . S
C40 C39 1.332 . S
H41 C34 0.935 . S
H42 C65 0.930 . S
H43 C66 0.929 . S
O44 Tb0 2.465 . S
O44 C64 1.264 . S
O45 Tb0 2.387 1_545 S
O45 C56 1.264 . S
O46 Tb11 2.349 1_454 S
O46 C56 1.243 . S
O47 Tb0 2.428 . S
O47 C64 1.256 . S
O48 Tb0 2.308 1_546 S
O48 C63 1.266 . S
O49 Tb11 2.393 1_455 S
O49 C63 1.248 . S
O50 Tb11 2.465 . S
O50 C75 1.264 . S
O51 Tb11 2.387 1_565 S
O51 C67 1.264 . S
O52 Tb0 2.349 1_656 S
O52 C67 1.243 . S
O53 Tb11 2.428 1_455 S
O53 C75 1.256 1_455 S
O54 Tb11 2.308 1_564 S
O54 C74 1.266 . S
O55 Tb0 2.393 1_655 S
O55 C74 1.248 . S
C56 O45 1.264 . S
C56 O46 1.243 . S
C57 C60 1.399 . S
C57 C62 1.383 . S
C57 C64 1.496 . S
C58 C59 1.399 . S
C58 C62 1.389 . S
C59 C58 1.399 . S
C59 C61 1.380 . S
C59 H76 0.929 . S
C60 C57 1.399 . S
C60 C61 1.392 . S
C60 H77 0.929 1_455 S
C61 C59 1.380 . S
C61 C60 1.392 . S
C61 H78 0.929 . S
C62 C57 1.383 . S
C62 C58 1.389 . S
C62 H79 0.931 . S
C63 O48 1.266 . S
C63 O49 1.248 . S
C64 Tb0 2.802 . S
C64 O44 1.264 . S
C64 O47 1.256 . S
C64 C57 1.496 . S
C65 C32 1.448 . S
C65 H42 0.930 . S
C65 C66 1.328 . S
C66 C37 1.427 . S
C66 H43 0.929 . S
C66 C65 1.328 . S
C67 O51 1.264 . S
C67 O52 1.243 . S
C68 C71 1.399 . S
C68 C72 1.383 . S
C68 C75 1.496 . S
C69 C70 1.399 . S
C69 C72 1.389 . S
C70 C69 1.399 . S
C70 C73 1.380 . S
C70 H80 0.929 . S
C71 C68 1.399 . S
C71 C73 1.392 . S
C71 H81 0.929 1_655 S
C72 C68 1.383 . S
C72 C69 1.389 . S
C72 H82 0.931 . S
C73 C70 1.380 . S
C73 C71 1.392 . S
C73 H83 0.929 1_655 S
C74 O54 1.266 . S
C74 O55 1.248 . S
C75 Tb11 2.802 . S
C75 O50 1.264 . S
C75 O53 1.256 1_655 S
C75 C68 1.496 . S
H76 C59 0.929 . S
H77 C60 0.929 1_655 S
H78 C61 0.929 . S
H79 C62 0.931 . S
H80 C70 0.929 . S
H81 C71 0.929 1_455 S
H82 C72 0.931 . S
H83 C73 0.929 1_455 S
Tb84 N113 2.617 1_565 S
Tb84 N119 2.572 1_455 S
Tb84 O128 2.465 . S
Tb84 O129 2.387 1_455 S
Tb84 O131 2.428 1_565 S
Tb84 O132 2.308 1_455 S
Tb84 O136 2.349 1_565 S
Tb84 O139 2.393 1_565 S
Tb84 C148 2.802 . S
C85 N86 1.379 1_455 S
C85 C88 1.416 . S
C85 C92 1.424 . S
N86 C85 1.379 1_655 S
N86 C89 1.334 1_545 S
N86 Tb95 2.617 . S
C87 C89 1.390 . S
C87 C90 1.339 1_665 S
C87 H107 0.930 . S
C88 C85 1.416 . S
C88 C90 1.416 . S
C88 C94 1.448 . S
C89 N86 1.334 1_565 S
C89 C87 1.390 . S
C89 H100 0.930 . S
C90 C87 1.339 1_445 S
C90 C88 1.416 . S
C90 H111 0.928 1_545 S
C91 C92 1.413 . S
C91 C93 1.427 . S
C91 C97 1.416 . S
C92 C85 1.424 . S
C92 C91 1.413 . S
C92 N96 1.361 . S
C93 C91 1.427 . S
C93 C94 1.328 . S
C93 H108 0.929 . S
C94 C88 1.448 . S
C94 C93 1.328 . S
C94 H109 0.930 . S
Tb95 N86 2.617 . S
Tb95 N96 2.572 1_655 S
Tb95 O130 2.349 1_545 S
Tb95 O133 2.393 1_545 S
Tb95 O134 2.465 . S
Tb95 O135 2.387 1_655 S
Tb95 O137 2.428 . S
Tb95 O138 2.308 1_655 S
Tb95 C159 2.802 . S
N96 C92 1.361 . S
N96 Tb95 2.572 1_455 S
N96 C98 1.340 . S
C97 C91 1.416 . S
C97 C99 1.332 . S
C97 H105 0.931 . S
C98 N96 1.340 . S
C98 C99 1.407 . S
C98 H104 0.930 . S
C99 C97 1.332 . S
C99 C98 1.407 . S
C99 H101 0.929 . S
H100 C89 0.930 . S
H101 C99 0.929 . S
H102 C117 0.930 . S
H103 C124 0.929 . S
H104 C98 0.930 . S
H105 C97 0.931 . S
H106 C120 0.930 . S
H107 C87 0.930 . S
H108 C93 0.929 . S
H109 C94 0.930 . S
H110 C115 0.930 . S
H111 C90 0.928 1_565 S
H112 C123 0.931 . S
N113 Tb84 2.617 1_545 S
N113 C114 1.379 1_445 S
N113 C117 1.334 . S
C114 N113 1.379 1_665 S
C114 C116 1.416 . S
C114 C122 1.424 . S
C115 H110 0.930 . S
C115 C117 1.390 . S
C115 C118 1.339 . S
C116 C114 1.416 . S
C116 C118 1.416 1_665 S
C116 C149 1.448 . S
C117 H102 0.930 . S
C117 N113 1.334 . S
C117 C115 1.390 . S
C118 C115 1.339 . S
C118 C116 1.416 1_445 S
C118 H125 0.930 . S
N119 Tb84 2.572 1_655 S
N119 C120 1.340 . S
N119 C122 1.361 . S
C120 H106 0.930 . S
C120 N119 1.340 . S
C120 C124 1.407 . S
C121 C122 1.413 . S
C121 C123 1.416 . S
C121 C150 1.427 . S
C122 C114 1.424 . S
C122 N119 1.361 . S
C122 C121 1.413 . S
C123 H112 0.931 . S
C123 C121 1.416 . S
C123 C124 1.332 . S
C124 H103 0.929 . S
C124 C120 1.407 . S
C124 C123 1.332 . S
H125 C118 0.930 . S
H126 C149 0.930 . S
H127 C150 0.929 . S
O128 Tb84 2.465 . S
O128 C148 1.264 . S
O129 Tb84 2.387 1_655 S
O129 C140 1.264 . S
O130 Tb95 2.349 1_565 S
O130 C140 1.243 . S
O131 Tb84 2.428 1_545 S
O131 C148 1.256 1_545 S
O132 Tb84 2.308 1_655 S
O132 C147 1.266 . S
O133 Tb95 2.393 1_565 S
O133 C147 1.248 . S
O134 Tb95 2.465 . S
O134 C159 1.264 . S
O135 Tb95 2.387 1_455 S
O135 C151 1.264 . S
O136 Tb84 2.349 1_545 S
O136 C151 1.243 . S
O137 Tb95 2.428 . S
O137 C159 1.256 . S
O138 Tb95 2.308 1_455 S
O138 C158 1.266 . S
O139 Tb84 2.393 1_545 S
O139 C158 1.248 . S
C140 O129 1.264 . S
C140 O130 1.243 . S
C141 C144 1.400 . S
C141 C146 1.383 . S
C141 C148 1.496 . S
C142 C143 1.399 . S
C142 C146 1.389 . S
C143 C142 1.399 . S
C143 C145 1.380 . S
C143 H160 0.929 . S
C144 C141 1.400 . S
C144 C145 1.401 . S
C144 H161 0.920 1_565 S
C145 C143 1.380 . S
C145 C144 1.401 . S
C145 H162 0.929 1_565 S
C146 C141 1.383 . S
C146 C142 1.389 . S
C146 H163 0.931 . S
C147 O132 1.266 . S
C147 O133 1.248 . S
C148 Tb84 2.802 . S
C148 O128 1.264 . S
C148 O131 1.256 1_565 S
C148 C141 1.496 . S
C149 C116 1.448 . S
C149 H126 0.930 . S
C149 C150 1.328 . S
C150 C121 1.427 . S
C150 H127 0.929 . S
C150 C149 1.328 . S
C151 O135 1.264 . S
C151 O136 1.243 . S
C152 C155 1.399 . S
C152 C156 1.383 . S
C152 C159 1.496 . S
C153 C154 1.399 . S
C153 C156 1.389 . S
C154 C153 1.399 . S
C154 C157 1.380 . S
C154 H164 0.929 . S
C155 C152 1.399 . S
C155 C157 1.392 . S
C155 H165 0.929 1_545 S
C156 C152 1.383 . S
C156 C153 1.389 . S
C156 H166 0.931 . S
C157 C154 1.380 . S
C157 C155 1.392 . S
C157 H167 0.929 . S
C158 O138 1.266 . S
C158 O139 1.248 . S
C159 Tb95 2.802 . S
C159 O134 1.264 . S
C159 O137 1.256 . S
C159 C152 1.496 . S
H160 C143 0.929 . S
H161 C144 0.920 1_545 S
H162 C145 0.929 1_545 S
H163 C146 0.931 . S
H164 C154 0.929 . S
H165 C155 0.929 1_565 S
H166 C156 0.931 . S
H167 C157 0.929 . S
Zn168 O174 1.920 . S
Zn168 O180 1.898 . S
Zn168 O183 1.905 . S
Zn169 O177 1.905 . S
Zn169 O178 1.898 . S
Zn169 O186 1.920 . S
Zn170 O173 2.080 . S
Zn170 O176 2.114 . S
Zn170 O179 2.120 . S
Zn170 O181 2.120 . S
Zn170 O182 2.114 . S
Zn170 O185 2.080 . S
C171 O176 1.166 . S
C171 O177 1.182 . S
C172 O178 1.167 . S
C172 O179 1.299 . S
O173 Zn170 2.080 . S
O173 C187 1.305 . S
O174 Zn168 1.920 . S
O174 C187 1.234 . S
C175 O180 1.167 . S
C175 O181 1.299 . S
O176 Zn170 2.114 . S
O176 C171 1.166 . S
O177 Zn169 1.905 . S
O177 C171 1.182 . S
O178 Zn169 1.898 . S
O178 C172 1.167 . S
O179 Zn170 2.120 . S
O179 C172 1.299 . S
O180 Zn168 1.898 . S
O180 C175 1.167 . S
O181 Zn170 2.120 . S
O181 C175 1.299 . S
O182 Zn170 2.114 . S
O182 C184 1.166 . S
O183 Zn168 1.905 . S
O183 C184 1.182 . S
C184 O182 1.166 . S
C184 O183 1.182 . S
O185 Zn170 2.080 . S
O185 C188 1.305 . S
O186 Zn169 1.920 . S
O186 C188 1.234 . S
C187 O173 1.305 . S
C187 O174 1.234 . S
C188 O185 1.305 . S
C188 O186 1.234 . S
Zn189 O195 1.920 . S
Zn189 O201 1.898 . S
Zn189 O204 1.905 . S
Zn190 O198 1.905 . S
Zn190 O199 1.898 . S
Zn190 O207 1.920 . S
Zn191 O194 2.080 . S
Zn191 O197 2.114 . S
Zn191 O200 2.120 . S
Zn191 O202 2.120 . S
Zn191 O203 2.114 . S
Zn191 O206 2.080 . S
C192 O197 1.166 . S
C192 O198 1.182 . S
C193 O199 1.167 . S
C193 O200 1.299 . S
O194 Zn191 2.080 . S
O194 C208 1.305 . S
O195 Zn189 1.920 . S
O195 C208 1.234 . S
C196 O201 1.167 . S
C196 O202 1.299 . S
O197 Zn191 2.114 . S
O197 C192 1.166 . S
O198 Zn190 1.905 . S
O198 C192 1.182 . S
O199 Zn190 1.898 . S
O199 C193 1.167 . S
O200 Zn191 2.120 . S
O200 C193 1.299 . S
O201 Zn189 1.898 . S
O201 C196 1.167 . S
O202 Zn191 2.120 . S
O202 C196 1.299 . S
O203 Zn191 2.114 . S
O203 C205 1.166 . S
O204 Zn189 1.905 . S
O204 C205 1.182 . S
C205 O203 1.166 . S
C205 O204 1.182 . S
O206 Zn191 2.080 . S
O206 C209 1.305 . S
O207 Zn190 1.920 . S
O207 C209 1.234 . S
C208 O194 1.305 . S
C208 O195 1.234 . S
C209 O206 1.305 . S
C209 O207 1.234 . S
H210 C216 0.930 . S
H211 C219 0.930 . S
H212 C220 0.930 . S
H213 C221 0.930 . S
H214 C224 0.930 . S
H215 C225 0.930 . S
C216 H210 0.930 . S
C216 C217 1.355 . S
C216 C218 1.415 . S
C217 C216 1.355 . S
C217 C219 1.419 . S
C218 C216 1.415 . S
C218 C223 1.425 . S
C218 C225 1.409 . S
C219 H211 0.930 . S
C219 C217 1.419 . S
C219 C220 1.362 . S
C220 H212 0.930 . S
C220 C219 1.362 . S
C220 C223 1.409 . S
C221 H213 0.930 . S
C221 C222 1.355 . S
C221 C223 1.415 . S
C222 C221 1.355 . S
C222 C224 1.419 . S
C223 C218 1.425 . S
C223 C220 1.409 . S
C223 C221 1.415 . S
C224 H214 0.930 . S
C224 C222 1.419 . S
C224 C225 1.362 . S
C225 H215 0.930 . S
C225 C218 1.409 . S
C225 C224 1.362 . S
H226 C232 0.930 . S
H227 C235 0.930 . S
H228 C236 0.930 . S
H229 C237 0.930 . S
H230 C240 0.930 . S
H231 C241 0.930 . S
C232 H226 0.930 . S
C232 C233 1.355 . S
C232 C234 1.415 . S
C233 C232 1.355 . S
C233 C235 1.419 . S
C234 C232 1.415 . S
C234 C239 1.425 . S
C234 C241 1.409 . S
C235 H227 0.930 . S
C235 C233 1.419 . S
C235 C236 1.362 . S
C236 H228 0.930 . S
C236 C235 1.362 . S
C236 C239 1.409 . S
C237 H229 0.930 . S
C237 C238 1.355 . S
C237 C239 1.415 . S
C238 C237 1.355 . S
C238 C240 1.419 . S
C239 C234 1.425 . S
C239 C236 1.409 . S
C239 C237 1.415 . S
C240 H230 0.930 . S
C240 C238 1.419 . S
C240 C241 1.362 . S
C241 H231 0.930 . S
C241 C234 1.409 . S
C241 C240 1.362 . S
H242 C248 0.930 . S
H243 C251 0.930 . S
H244 C252 0.930 . S
H245 C253 0.930 . S
H246 C256 0.930 . S
H247 C257 0.930 . S
C248 H242 0.930 . S
C248 C249 1.355 . S
C248 C250 1.415 . S
C249 C248 1.355 . S
C249 C251 1.419 . S
C250 C248 1.415 . S
C250 C255 1.425 . S
C250 C257 1.409 . S
C251 H243 0.930 . S
C251 C249 1.419 . S
C251 C252 1.362 . S
C252 H244 0.930 . S
C252 C251 1.362 . S
C252 C255 1.409 . S
C253 H245 0.930 . S
C253 C254 1.355 . S
C253 C255 1.415 . S
C254 C253 1.355 . S
C254 C256 1.419 . S
C255 C250 1.425 . S
C255 C252 1.409 . S
C255 C253 1.415 . S
C256 H246 0.930 . S
C256 C254 1.419 . S
C256 C257 1.362 . S
C257 H247 0.930 . S
C257 C250 1.409 . S
C257 C256 1.362 . S
H258 C264 0.930 . S
H259 C267 0.930 . S
H260 C268 0.930 . S
H261 C269 0.930 . S
H262 C272 0.930 . S
H263 C273 0.930 . S
C264 H258 0.930 . S
C264 C265 1.355 . S
C264 C266 1.415 . S
C265 C264 1.355 . S
C265 C267 1.419 . S
C266 C264 1.415 . S
C266 C271 1.425 . S
C266 C273 1.409 . S
C267 H259 0.930 . S
C267 C265 1.419 . S
C267 C268 1.362 . S
C268 H260 0.930 . S
C268 C267 1.362 . S
C268 C271 1.409 . S
C269 H261 0.930 . S
C269 C270 1.355 . S
C269 C271 1.415 . S
C270 C269 1.355 . S
C270 C272 1.419 . S
C271 C266 1.425 . S
C271 C268 1.409 . S
C271 C269 1.415 . S
C272 H262 0.930 . S
C272 C270 1.419 . S
C272 C273 1.362 . S
C273 H263 0.930 . S
C273 C266 1.409 . S
C273 C272 1.362 . S
H274 C280 0.930 . S
H275 C283 0.930 . S
H276 C284 0.930 . S
H277 C285 0.930 . S
H278 C288 0.930 . S
H279 C289 0.930 . S
C280 H274 0.930 . S
C280 C281 1.355 . S
C280 C282 1.415 . S
C281 C280 1.355 . S
C281 C283 1.419 . S
C282 C280 1.415 . S
C282 C287 1.425 . S
C282 C289 1.409 . S
C283 H275 0.930 . S
C283 C281 1.419 . S
C283 C284 1.362 . S
C284 H276 0.930 . S
C284 C283 1.362 . S
C284 C287 1.409 . S
C285 H277 0.930 . S
C285 C286 1.355 . S
C285 C287 1.415 . S
C286 C285 1.355 . S
C286 C288 1.419 . S
C287 C282 1.425 . S
C287 C284 1.409 . S
C287 C285 1.415 . S
C288 H278 0.930 . S
C288 C286 1.419 . S
C288 C289 1.362 . S
C289 H279 0.930 . S
C289 C282 1.409 . S
C289 C288 1.362 . S
H290 C296 0.930 . S
H291 C299 0.930 . S
H292 C300 0.930 . S
H293 C301 0.930 . S
H294 C304 0.930 . S
H295 C305 0.930 . S
C296 H290 0.930 . S
C296 C297 1.355 . S
C296 C298 1.415 . S
C297 C296 1.355 . S
C297 C299 1.419 . S
C298 C296 1.415 . S
C298 C303 1.425 . S
C298 C305 1.409 . S
C299 H291 0.930 . S
C299 C297 1.419 . S
C299 C300 1.362 . S
C300 H292 0.930 . S
C300 C299 1.362 . S
C300 C303 1.409 . S
C301 H293 0.930 . S
C301 C302 1.355 . S
C301 C303 1.415 . S
C302 C301 1.355 . S
C302 C304 1.419 . S
C303 C298 1.425 . S
C303 C300 1.409 . S
C303 C301 1.415 . S
C304 H294 0.930 . S
C304 C302 1.419 . S
C304 C305 1.362 . S
C305 H295 0.930 . S
C305 C298 1.409 . S
C305 C304 1.362 . S
H306 C312 0.930 . S
H307 C315 0.930 . S
H308 C316 0.930 . S
H309 C317 0.930 . S
H310 C320 0.930 . S
H311 C321 0.930 . S
C312 H306 0.930 . S
C312 C313 1.355 . S
C312 C314 1.415 . S
C313 C312 1.355 . S
C313 C315 1.419 . S
C314 C312 1.415 . S
C314 C319 1.425 . S
C314 C321 1.409 . S
C315 H307 0.930 . S
C315 C313 1.419 . S
C315 C316 1.362 . S
C316 H308 0.930 . S
C316 C315 1.362 . S
C316 C319 1.409 . S
C317 H309 0.930 . S
C317 C318 1.355 . S
C317 C319 1.415 . S
C318 C317 1.355 . S
C318 C320 1.419 . S
C319 C314 1.425 . S
C319 C316 1.409 . S
C319 C317 1.415 . S
C320 H310 0.930 . S
C320 C318 1.419 . S
C320 C321 1.362 . S
C321 H311 0.930 . S
C321 C314 1.409 . S
C321 C320 1.362 . S
H322 C328 0.930 . S
H323 C331 0.930 . S
H324 C332 0.930 . S
H325 C333 0.930 . S
H326 C336 0.930 . S
H327 C337 0.930 . S
C328 H322 0.930 . S
C328 C329 1.355 . S
C328 C330 1.415 . S
C329 C328 1.355 . S
C329 C331 1.419 . S
C330 C328 1.415 . S
C330 C335 1.425 . S
C330 C337 1.409 . S
C331 H323 0.930 . S
C331 C329 1.419 . S
C331 C332 1.362 . S
C332 H324 0.930 . S
C332 C331 1.362 . S
C332 C335 1.409 . S
C333 H325 0.930 . S
C333 C334 1.355 . S
C333 C335 1.415 . S
C334 C333 1.355 . S
C334 C336 1.419 . S
C335 C330 1.425 . S
C335 C332 1.409 . S
C335 C333 1.415 . S
C336 H326 0.930 . S
C336 C334 1.419 . S
C336 C337 1.362 . S
C337 H327 0.930 . S
C337 C330 1.409 . S
C337 C336 1.362 . S
H338 C344 0.930 . S
H339 C347 0.930 . S
H340 C348 0.930 . S
H341 C349 0.930 . S
H342 C352 0.930 . S
H343 C353 0.930 . S
C344 H338 0.930 . S
C344 C345 1.355 . S
C344 C346 1.415 . S
C345 C344 1.355 . S
C345 C347 1.419 . S
C346 C344 1.415 . S
C346 C351 1.425 . S
C346 C353 1.409 . S
C347 H339 0.930 . S
C347 C345 1.419 . S
C347 C348 1.362 . S
C348 H340 0.930 . S
C348 C347 1.362 . S
C348 C351 1.409 . S
C349 H341 0.930 . S
C349 C350 1.355 . S
C349 C351 1.415 . S
C350 C349 1.355 . S
C350 C352 1.419 . S
C351 C346 1.425 . S
C351 C348 1.409 . S
C351 C349 1.415 . S
C352 H342 0.930 . S
C352 C350 1.419 . S
C352 C353 1.362 . S
C353 H343 0.930 . S
C353 C346 1.409 . S
C353 C352 1.362 . S
H354 C360 0.930 . S
H355 C363 0.930 . S
H356 C364 0.930 . S
H357 C365 0.930 . S
H358 C368 0.930 . S
H359 C369 0.930 . S
C360 H354 0.930 . S
C360 C361 1.355 . S
C360 C362 1.415 . S
C361 C360 1.355 . S
C361 C363 1.419 . S
C362 C360 1.415 . S
C362 C367 1.425 . S
C362 C369 1.409 . S
C363 H355 0.930 . S
C363 C361 1.419 . S
C363 C364 1.362 . S
C364 H356 0.930 . S
C364 C363 1.362 . S
C364 C367 1.409 . S
C365 H357 0.930 . S
C365 C366 1.355 . S
C365 C367 1.415 . S
C366 C365 1.355 . S
C366 C368 1.419 . S
C367 C362 1.425 . S
C367 C364 1.409 . S
C367 C365 1.415 . S
C368 H358 0.930 . S
C368 C366 1.419 . S
C368 C369 1.362 . S
C369 H359 0.930 . S
C369 C362 1.409 . S
C369 C368 1.362 . S
H370 C376 0.930 . S
H371 C379 0.930 . S
H372 C380 0.930 . S
H373 C381 0.930 . S
H374 C384 0.930 . S
H375 C385 0.930 . S
C376 H370 0.930 . S
C376 C377 1.355 . S
C376 C378 1.415 . S
C377 C376 1.355 . S
C377 C379 1.419 . S
C378 C376 1.415 . S
C378 C383 1.425 . S
C378 C385 1.409 . S
C379 H371 0.930 . S
C379 C377 1.419 . S
C379 C380 1.362 . S
C380 H372 0.930 . S
C380 C379 1.362 . S
C380 C383 1.409 . S
C381 H373 0.930 . S
C381 C382 1.355 . S
C381 C383 1.415 . S
C382 C381 1.355 . S
C382 C384 1.419 . S
C383 C378 1.425 . S
C383 C380 1.409 . S
C383 C381 1.415 . S
C384 H374 0.930 . S
C384 C382 1.419 . S
C384 C385 1.362 . S
C385 H375 0.930 . S
C385 C378 1.409 . S
C385 C384 1.362 . S
H386 C392 0.930 . S
H387 C395 0.930 1_455 S
H388 C396 0.930 1_455 S
H389 C397 0.930 . S
H390 C400 0.930 . S
H391 C401 0.930 . S
C392 H386 0.930 . S
C392 C393 1.355 . S
C392 C394 1.415 . S
C393 C392 1.355 . S
C393 C395 1.419 . S
C394 C392 1.415 . S
C394 C399 1.425 . S
C394 C401 1.409 . S
C395 H387 0.930 1_655 S
C395 C393 1.419 . S
C395 C396 1.362 . S
C396 H388 0.930 1_655 S
C396 C395 1.362 . S
C396 C399 1.409 . S
C397 H389 0.930 . S
C397 C398 1.355 . S
C397 C399 1.415 . S
C398 C397 1.355 . S
C398 C400 1.419 . S
C399 C394 1.425 . S
C399 C396 1.409 . S
C399 C397 1.415 . S
C400 H390 0.930 . S
C400 C398 1.419 . S
C400 C401 1.362 . S
C401 H391 0.930 . S
C401 C394 1.409 . S
C401 C400 1.362 . S
C217 C58 1.254 . S
C222 C187 1.335 . S
C233 C151 1.579 . S
C238 C193 1.453 . S
C249 C56 1.632 . S
C254 C184 1.483 . S
C265 C153 1.228 . S
C270 C209 1.230 . S
C281 C74 1.629 . S
C286 C175 1.470 . S
C302 C192 1.569 . S
C297 C147 1.657 . S
C313 C142 1.112 . S
C318 C188 1.220 . S
C334 C205 1.478 . S
C329 C63 1.605 . S
C350 C172 1.499 . S
C345 C158 1.624 . S
C366 C208 1.257 . S
C361 C69 1.168 . S
C382 C171 1.515 . S
C377 C140 1.636 . S
C398 C196 1.375 . S
C393 C67 1.544 . S
