# Generated by pormake.
# Topology iac, (4,6)-cn, num edge types: 1
# Building blocks:
#     Node 0, Type 0, BuildingBlock: QUQFOY_clean_sbu_3, # of connection points: 4
#     Node 1, Type 0, BuildingBlock: QUQFOY_clean_sbu_3, # of connection points: 4
#     Node 2, Type 0, BuildingBlock: QUQFOY_clean_sbu_3, # of connection points: 4
#     Node 3, Type 0, BuildingBlock: QUQFOY_clean_sbu_3, # of connection points: 4
#     Node 4, Type 0, BuildingBlock: QUQFOY_clean_sbu_3, # of connection points: 4
#     Node 5, Type 0, BuildingBlock: QUQFOY_clean_sbu_3, # of connection points: 4
#     Node 6, Type 0, BuildingBlock: QUQFOY_clean_sbu_3, # of connection points: 4
#     Node 7, Type 0, BuildingBlock: QUQFOY_clean_sbu_3, # of connection points: 4
#     Node 8, Type 0, BuildingBlock: QUQFOY_clean_sbu_3, # of connection points: 4
#     Node 9, Type 0, BuildingBlock: QUQFOY_clean_sbu_3, # of connection points: 4
#     Node 10, Type 0, BuildingBlock: QUQFOY_clean_sbu_3, # of connection points: 4
#     Node 11, Type 0, BuildingBlock: QUQFOY_clean_sbu_3, # of connection points: 4
#     Node 12, Type 0, BuildingBlock: QUQFOY_clean_sbu_3, # of connection points: 4
#     Node 13, Type 0, BuildingBlock: QUQFOY_clean_sbu_3, # of connection points: 4
#     Node 14, Type 0, BuildingBlock: QUQFOY_clean_sbu_3, # of connection points: 4
#     Node 15, Type 0, BuildingBlock: QUQFOY_clean_sbu_3, # of connection points: 4
#     Node 16, Type 0, BuildingBlock: QUQFOY_clean_sbu_3, # of connection points: 4
#     Node 17, Type 0, BuildingBlock: QUQFOY_clean_sbu_3, # of connection points: 4
#     Node 18, Type 0, BuildingBlock: QUQFOY_clean_sbu_3, # of connection points: 4
#     Node 19, Type 0, BuildingBlock: QUQFOY_clean_sbu_3, # of connection points: 4
#     Node 20, Type 0, BuildingBlock: QUQFOY_clean_sbu_3, # of connection points: 4
#     Node 21, Type 0, BuildingBlock: QUQFOY_clean_sbu_3, # of connection points: 4
#     Node 22, Type 0, BuildingBlock: QUQFOY_clean_sbu_3, # of connection points: 4
#     Node 23, Type 0, BuildingBlock: QUQFOY_clean_sbu_3, # of connection points: 4
#     Node 24, Type 1, BuildingBlock: JUFBIX_clean_sbu_0, # of connection points: 6
#     Node 25, Type 1, BuildingBlock: JUFBIX_clean_sbu_0, # of connection points: 6
#     Node 26, Type 1, BuildingBlock: JUFBIX_clean_sbu_0, # of connection points: 6
#     Node 27, Type 1, BuildingBlock: JUFBIX_clean_sbu_0, # of connection points: 6
#     Node 28, Type 1, BuildingBlock: JUFBIX_clean_sbu_0, # of connection points: 6
#     Node 29, Type 1, BuildingBlock: JUFBIX_clean_sbu_0, # of connection points: 6
#     Node 30, Type 1, BuildingBlock: JUFBIX_clean_sbu_0, # of connection points: 6
#     Node 31, Type 1, BuildingBlock: JUFBIX_clean_sbu_0, # of connection points: 6
#     Node 32, Type 1, BuildingBlock: JUFBIX_clean_sbu_0, # of connection points: 6
#     Node 33, Type 1, BuildingBlock: JUFBIX_clean_sbu_0, # of connection points: 6
#     Node 34, Type 1, BuildingBlock: JUFBIX_clean_sbu_0, # of connection points: 6
#     Node 35, Type 1, BuildingBlock: JUFBIX_clean_sbu_0, # of connection points: 6
#     Node 36, Type 1, BuildingBlock: JUFBIX_clean_sbu_0, # of connection points: 6
#     Node 37, Type 1, BuildingBlock: JUFBIX_clean_sbu_0, # of connection points: 6
#     Node 38, Type 1, BuildingBlock: JUFBIX_clean_sbu_0, # of connection points: 6
#     Node 39, Type 1, BuildingBlock: JUFBIX_clean_sbu_0, # of connection points: 6
#     Edge 40, Type (0, 1), BuildingBlock: CIFDUS_clean_linker_0, # of connection points: 2
#     Edge 41, Type (0, 1), BuildingBlock: CIFDUS_clean_linker_0, # of connection points: 2
#     Edge 42, Type (0, 1), BuildingBlock: CIFDUS_clean_linker_0, # of connection points: 2
#     Edge 43, Type (0, 1), BuildingBlock: CIFDUS_clean_linker_0, # of connection points: 2
#     Edge 44, Type (0, 1), BuildingBlock: CIFDUS_clean_linker_0, # of connection points: 2
#     Edge 45, Type (0, 1), BuildingBlock: CIFDUS_clean_linker_0, # of connection points: 2
#     Edge 46, Type (0, 1), BuildingBlock: CIFDUS_clean_linker_0, # of connection points: 2
#     Edge 47, Type (0, 1), BuildingBlock: CIFDUS_clean_linker_0, # of connection points: 2
#     Edge 48, Type (0, 1), BuildingBlock: CIFDUS_clean_linker_0, # of connection points: 2
#     Edge 49, Type (0, 1), BuildingBlock: CIFDUS_clean_linker_0, # of connection points: 2
#     Edge 50, Type (0, 1), BuildingBlock: CIFDUS_clean_linker_0, # of connection points: 2
#     Edge 51, Type (0, 1), BuildingBlock: CIFDUS_clean_linker_0, # of connection points: 2
#     Edge 52, Type (0, 1), BuildingBlock: CIFDUS_clean_linker_0, # of connection points: 2
#     Edge 53, Type (0, 1), BuildingBlock: CIFDUS_clean_linker_0, # of connection points: 2
#     Edge 54, Type (0, 1), BuildingBlock: CIFDUS_clean_linker_0, # of connection points: 2
#     Edge 55, Type (0, 1), BuildingBlock: CIFDUS_clean_linker_0, # of connection points: 2
#     Edge 56, Type (0, 1), BuildingBlock: CIFDUS_clean_linker_0, # of connection points: 2
#     Edge 57, Type (0, 1), BuildingBlock: CIFDUS_clean_linker_0, # of connection points: 2
#     Edge 58, Type (0, 1), BuildingBlock: CIFDUS_clean_linker_0, # of connection points: 2
#     Edge 59, Type (0, 1), BuildingBlock: CIFDUS_clean_linker_0, # of connection points: 2
#     Edge 60, Type (0, 1), BuildingBlock: CIFDUS_clean_linker_0, # of connection points: 2
#     Edge 61, Type (0, 1), BuildingBlock: CIFDUS_clean_linker_0, # of connection points: 2
#     Edge 62, Type (0, 1), BuildingBlock: CIFDUS_clean_linker_0, # of connection points: 2
#     Edge 63, Type (0, 1), BuildingBlock: CIFDUS_clean_linker_0, # of connection points: 2
#     Edge 64, Type (0, 1), BuildingBlock: CIFDUS_clean_linker_0, # of connection points: 2
#     Edge 65, Type (0, 1), BuildingBlock: CIFDUS_clean_linker_0, # of connection points: 2
#     Edge 66, Type (0, 1), BuildingBlock: CIFDUS_clean_linker_0, # of connection points: 2
#     Edge 67, Type (0, 1), BuildingBlock: CIFDUS_clean_linker_0, # of connection points: 2
#     Edge 68, Type (0, 1), BuildingBlock: CIFDUS_clean_linker_0, # of connection points: 2
#     Edge 69, Type (0, 1), BuildingBlock: CIFDUS_clean_linker_0, # of connection points: 2
#     Edge 70, Type (0, 1), BuildingBlock: CIFDUS_clean_linker_0, # of connection points: 2
#     Edge 71, Type (0, 1), BuildingBlock: CIFDUS_clean_linker_0, # of connection points: 2
#     Edge 72, Type (0, 1), BuildingBlock: CIFDUS_clean_linker_0, # of connection points: 2
#     Edge 73, Type (0, 1), BuildingBlock: CIFDUS_clean_linker_0, # of connection points: 2
#     Edge 74, Type (0, 1), BuildingBlock: CIFDUS_clean_linker_0, # of connection points: 2
#     Edge 75, Type (0, 1), BuildingBlock: CIFDUS_clean_linker_0, # of connection points: 2
#     Edge 76, Type (0, 1), BuildingBlock: CIFDUS_clean_linker_0, # of connection points: 2
#     Edge 77, Type (0, 1), BuildingBlock: CIFDUS_clean_linker_0, # of connection points: 2
#     Edge 78, Type (0, 1), BuildingBlock: CIFDUS_clean_linker_0, # of connection points: 2
#     Edge 79, Type (0, 1), BuildingBlock: CIFDUS_clean_linker_0, # of connection points: 2
#     Edge 80, Type (0, 1), BuildingBlock: CIFDUS_clean_linker_0, # of connection points: 2
#     Edge 81, Type (0, 1), BuildingBlock: CIFDUS_clean_linker_0, # of connection points: 2
#     Edge 82, Type (0, 1), BuildingBlock: CIFDUS_clean_linker_0, # of connection points: 2
#     Edge 83, Type (0, 1), BuildingBlock: CIFDUS_clean_linker_0, # of connection points: 2
#     Edge 84, Type (0, 1), BuildingBlock: CIFDUS_clean_linker_0, # of connection points: 2
#     Edge 85, Type (0, 1), BuildingBlock: CIFDUS_clean_linker_0, # of connection points: 2
#     Edge 86, Type (0, 1), BuildingBlock: CIFDUS_clean_linker_0, # of connection points: 2
#     Edge 87, Type (0, 1), BuildingBlock: CIFDUS_clean_linker_0, # of connection points: 2
#     Edge 88, Type (0, 1), BuildingBlock: CIFDUS_clean_linker_0, # of connection points: 2
#     Edge 89, Type (0, 1), BuildingBlock: CIFDUS_clean_linker_0, # of connection points: 2
#     Edge 90, Type (0, 1), BuildingBlock: CIFDUS_clean_linker_0, # of connection points: 2
#     Edge 91, Type (0, 1), BuildingBlock: CIFDUS_clean_linker_0, # of connection points: 2
#     Edge 92, Type (0, 1), BuildingBlock: CIFDUS_clean_linker_0, # of connection points: 2
#     Edge 93, Type (0, 1), BuildingBlock: CIFDUS_clean_linker_0, # of connection points: 2
#     Edge 94, Type (0, 1), BuildingBlock: CIFDUS_clean_linker_0, # of connection points: 2
#     Edge 95, Type (0, 1), BuildingBlock: CIFDUS_clean_linker_0, # of connection points: 2
#     Edge 96, Type (0, 1), BuildingBlock: CIFDUS_clean_linker_0, # of connection points: 2
#     Edge 97, Type (0, 1), BuildingBlock: CIFDUS_clean_linker_0, # of connection points: 2
#     Edge 98, Type (0, 1), BuildingBlock: CIFDUS_clean_linker_0, # of connection points: 2
#     Edge 99, Type (0, 1), BuildingBlock: CIFDUS_clean_linker_0, # of connection points: 2
#     Edge 100, Type (0, 1), BuildingBlock: CIFDUS_clean_linker_0, # of connection points: 2
#     Edge 101, Type (0, 1), BuildingBlock: CIFDUS_clean_linker_0, # of connection points: 2
#     Edge 102, Type (0, 1), BuildingBlock: CIFDUS_clean_linker_0, # of connection points: 2
#     Edge 103, Type (0, 1), BuildingBlock: CIFDUS_clean_linker_0, # of connection points: 2
#     Edge 104, Type (0, 1), BuildingBlock: CIFDUS_clean_linker_0, # of connection points: 2
#     Edge 105, Type (0, 1), BuildingBlock: CIFDUS_clean_linker_0, # of connection points: 2
#     Edge 106, Type (0, 1), BuildingBlock: CIFDUS_clean_linker_0, # of connection points: 2
#     Edge 107, Type (0, 1), BuildingBlock: CIFDUS_clean_linker_0, # of connection points: 2
#     Edge 108, Type (0, 1), BuildingBlock: CIFDUS_clean_linker_0, # of connection points: 2
#     Edge 109, Type (0, 1), BuildingBlock: CIFDUS_clean_linker_0, # of connection points: 2
#     Edge 110, Type (0, 1), BuildingBlock: CIFDUS_clean_linker_0, # of connection points: 2
#     Edge 111, Type (0, 1), BuildingBlock: CIFDUS_clean_linker_0, # of connection points: 2
#     Edge 112, Type (0, 1), BuildingBlock: CIFDUS_clean_linker_0, # of connection points: 2
#     Edge 113, Type (0, 1), BuildingBlock: CIFDUS_clean_linker_0, # of connection points: 2
#     Edge 114, Type (0, 1), BuildingBlock: CIFDUS_clean_linker_0, # of connection points: 2
#     Edge 115, Type (0, 1), BuildingBlock: CIFDUS_clean_linker_0, # of connection points: 2
#     Edge 116, Type (0, 1), BuildingBlock: CIFDUS_clean_linker_0, # of connection points: 2
#     Edge 117, Type (0, 1), BuildingBlock: CIFDUS_clean_linker_0, # of connection points: 2
#     Edge 118, Type (0, 1), BuildingBlock: CIFDUS_clean_linker_0, # of connection points: 2
#     Edge 119, Type (0, 1), BuildingBlock: CIFDUS_clean_linker_0, # of connection points: 2
#     Edge 120, Type (0, 1), BuildingBlock: CIFDUS_clean_linker_0, # of connection points: 2
#     Edge 121, Type (0, 1), BuildingBlock: CIFDUS_clean_linker_0, # of connection points: 2
#     Edge 122, Type (0, 1), BuildingBlock: CIFDUS_clean_linker_0, # of connection points: 2
#     Edge 123, Type (0, 1), BuildingBlock: CIFDUS_clean_linker_0, # of connection points: 2
#     Edge 124, Type (0, 1), BuildingBlock: CIFDUS_clean_linker_0, # of connection points: 2
#     Edge 125, Type (0, 1), BuildingBlock: CIFDUS_clean_linker_0, # of connection points: 2
#     Edge 126, Type (0, 1), BuildingBlock: CIFDUS_clean_linker_0, # of connection points: 2
#     Edge 127, Type (0, 1), BuildingBlock: CIFDUS_clean_linker_0, # of connection points: 2
#     Edge 128, Type (0, 1), BuildingBlock: CIFDUS_clean_linker_0, # of connection points: 2
#     Edge 129, Type (0, 1), BuildingBlock: CIFDUS_clean_linker_0, # of connection points: 2
#     Edge 130, Type (0, 1), BuildingBlock: CIFDUS_clean_linker_0, # of connection points: 2
#     Edge 131, Type (0, 1), BuildingBlock: CIFDUS_clean_linker_0, # of connection points: 2
#     Edge 132, Type (0, 1), BuildingBlock: CIFDUS_clean_linker_0, # of connection points: 2
#     Edge 133, Type (0, 1), BuildingBlock: CIFDUS_clean_linker_0, # of connection points: 2
#     Edge 134, Type (0, 1), BuildingBlock: CIFDUS_clean_linker_0, # of connection points: 2
#     Edge 135, Type (0, 1), BuildingBlock: CIFDUS_clean_linker_0, # of connection points: 2
# Relax obj value: 0.232
# Max RMSD: 0.234
# Mean RMSD: 0.113
data_MOF--net-iac--node1-QUQFOY_clean_sbu_3--node2-JUFBIX_clean_sbu_0--edge1-CIFDUS_clean_linker_0
_symmetry_space_group_name_H-M    P1
_symmetry_Int_Tables_number       1
_symmetry_cell_setting            triclinic
loop_
_symmetry_equiv_pos_as_xyz
'x, y, z'
_cell_length_a     48.241173
_cell_length_b     50.551505
_cell_length_c     49.698763
_cell_angle_alpha  90.146872
_cell_angle_beta   88.160833
_cell_angle_gamma 89.044652
loop_
_atom_site_label
_atom_site_type_symbol
_atom_site_fract_x
_atom_site_fract_y
_atom_site_fract_z
_atom_type_partial_charge
C0 C 0.97298 0.27057 0.19001 0.0
O1 O 0.98771 0.2538 0.20237 0.0
Cd2 Cd 0.03585 0.24365 0.19322 0.0
O3 O 0.98332 0.28331 0.16989 0.0
Cd4 Cd 0.03012 0.28369 0.1432 0.0
C5 C 0.03227 0.21391 0.13104 0.0
O6 O 0.05913 0.28423 0.1843 0.0
O7 O 0.08165 0.28138 0.14635 0.0
O8 O 0.02636 0.33335 0.13753 0.0
C9 C 0.08245 0.28356 0.17177 0.0
O10 O 0.03748 0.21265 0.15594 0.0
C11 C 0.0269 0.33402 0.112 0.0
O12 O 0.02692 0.23655 0.12035 0.0
O13 O 0.02826 0.31147 0.10045 0.0
C14 C 0.03478 0.77396 0.32952 0.0
O15 O 0.05527 0.78577 0.31862 0.0
Cd16 Cd 0.09905 0.79206 0.33838 0.0
O17 O 0.0372 0.76164 0.35175 0.0
Cd18 Cd 0.07315 0.75137 0.38507 0.0
C19 C 0.06951 0.81672 0.39761 0.0
O20 O 0.11257 0.75042 0.35529 0.0
O21 O 0.12225 0.75416 0.39703 0.0
O22 O 0.0612 0.70538 0.39213 0.0
C23 C 0.13091 0.75268 0.37272 0.0
O24 O 0.08418 0.82058 0.37621 0.0
C25 C 0.05751 0.708 0.41748 0.0
O26 O 0.06195 0.79367 0.40445 0.0
O27 O 0.06028 0.73097 0.42731 0.0
C28 C 0.47563 0.77503 0.69126 0.0
O29 O 0.49076 0.75891 0.70404 0.0
Cd30 Cd 0.53605 0.7446 0.68795 0.0
O31 O 0.48491 0.78594 0.66961 0.0
Cd32 Cd 0.53059 0.78859 0.64166 0.0
C33 C 0.52561 0.72053 0.6235 0.0
O34 O 0.56093 0.78507 0.68202 0.0
O35 O 0.58282 0.78638 0.6438 0.0
O36 O 0.52529 0.83799 0.64101 0.0
C37 C 0.58412 0.78576 0.6693 0.0
O38 O 0.53013 0.71617 0.64823 0.0
C39 C 0.52349 0.84149 0.61585 0.0
O40 O 0.52443 0.74454 0.615 0.0
O41 O 0.52479 0.82045 0.60168 0.0
C42 C 0.51241 0.28048 0.86803 0.0
O43 O 0.53335 0.29205 0.85775 0.0
Cd44 Cd 0.57825 0.29193 0.87594 0.0
O45 O 0.51447 0.26674 0.88937 0.0
Cd46 Cd 0.55187 0.25421 0.92008 0.0
C47 C 0.55904 0.3175 0.93793 0.0
O48 O 0.58769 0.24704 0.88652 0.0
O49 O 0.60219 0.25124 0.92676 0.0
O50 O 0.53681 0.20907 0.9224 0.0
C51 C 0.60766 0.2455 0.9023 0.0
O52 O 0.57274 0.32005 0.91577 0.0
C53 C 0.53695 0.20776 0.94789 0.0
O54 O 0.54742 0.29582 0.94397 0.0
O55 O 0.54196 0.2289 0.9606 0.0
C56 C 0.12702 0.00187 0.31311 0.0
O57 O 0.11124 0.00717 0.29384 0.0
Cd58 Cd 0.12811 0.01514 0.24968 0.0
O59 O 0.15309 -0.00164 0.30923 0.0
Cd60 Cd 0.18687 0.99552 0.27043 0.0
C61 C 0.17662 0.06102 0.26622 0.0
O62 O 0.15444 0.97506 0.24277 0.0
O63 O 0.18934 0.99006 0.22035 0.0
O64 O 0.20872 0.96128 0.29662 0.0
C65 C 0.16726 0.97681 0.2204 0.0
O66 O 0.15342 0.05685 0.25554 0.0
C67 C 0.23319 0.96625 0.28817 0.0
O68 O 0.19201 0.04191 0.27344 0.0
O69 O 0.23616 0.98495 0.27141 0.0
C70 C 0.26513 0.93885 0.52029 0.0
O71 O 0.24613 0.94749 0.50534 0.0
Cd72 Cd 0.19986 0.93215 0.50524 0.0
O73 O 0.26025 0.92088 0.53773 0.0
Cd74 Cd 0.22028 0.89369 0.55246 0.0
C75 C 0.2211 0.86974 0.48863 0.0
O76 O 0.189 0.9302 0.55245 0.0
O77 O 0.16885 0.89298 0.55763 0.0
O78 O 0.23666 0.89051 0.59794 0.0
C79 C 0.16683 0.91802 0.55731 0.0
O80 O 0.20783 0.89022 0.48099 0.0
C81 C 0.23433 0.8655 0.59907 0.0
O82 O 0.22818 0.86737 0.51287 0.0
O83 O 0.22584 0.85385 0.57832 0.0
C84 C 0.43988 0.04162 0.79241 0.0
O85 O 0.44664 0.02607 0.77313 0.0
Cd86 Cd 0.42292 0.0269 0.73196 0.0
O87 O 0.4205 0.05875 0.79002 0.0
Cd88 Cd 0.3882 0.07284 0.75589 0.0
C89 C 0.35913 0.0142 0.7605 0.0
O90 O 0.42138 0.07262 0.71976 0.0
O91 O 0.37891 0.07216 0.70741 0.0
O92 O 0.39388 0.1178 0.7709 0.0
C93 C 0.40426 0.076 0.70134 0.0
O94 O 0.3786 0.0064 0.74431 0.0
C95 C 0.36831 0.12367 0.76925 0.0
O96 O 0.35846 0.0376 0.76972 0.0
O97 O 0.35209 0.10528 0.76302 0.0
C98 C 0.32258 0.11985 0.03191 0.0
O99 O 0.30827 0.10924 0.05079 0.0
Cd100 Cd 0.26094 0.11769 0.06398 0.0
O101 O 0.31233 0.1389 0.01806 0.0
Cd102 Cd 0.26602 0.16612 0.01923 0.0
C103 C 0.26733 0.18047 0.08962 0.0
O104 O 0.24138 0.12338 0.02078 0.0
O105 O 0.21437 0.15669 0.01587 0.0
O106 O 0.28368 0.18189 0.97306 0.0
C107 C 0.21685 0.13183 0.01812 0.0
O108 O 0.26245 0.15612 0.09365 0.0
C109 C 0.26822 0.20249 0.97237 0.0
O110 O 0.27029 0.18915 0.06544 0.0
O111 O 0.25267 0.20647 0.99314 0.0
C112 C 0.81108 0.445 0.01796 0.0
O113 O 0.79325 0.45848 0.00533 0.0
Cd114 Cd 0.74407 0.45965 0.01223 0.0
O115 O 0.80379 0.42993 0.03738 0.0
Cd116 Cd 0.75889 0.41615 0.05701 0.0
C117 C 0.741 0.39603 0.99422 0.0
O118 O 0.73835 0.45984 0.06034 0.0
O119 O 0.71093 0.42785 0.06977 0.0
O120 O 0.77415 0.40389 0.10154 0.0
C121 C 0.71479 0.45257 0.06897 0.0
O122 O 0.73314 0.41927 0.98783 0.0
C123 C 0.76613 0.38012 0.09938 0.0
O124 O 0.75113 0.39163 0.01702 0.0
O125 O 0.75606 0.37324 0.07723 0.0
C126 C 0.95703 0.51862 0.27615 0.0
O127 O 0.96638 0.50647 0.25534 0.0
Cd128 Cd 0.93727 0.50368 0.21781 0.0
O129 O 0.93426 0.53173 0.27555 0.0
Cd130 Cd 0.89837 0.5443 0.24346 0.0
C131 C 0.87791 0.48331 0.25138 0.0
O132 O 0.92655 0.5483 0.20388 0.0
O133 O 0.8833 0.54088 0.19672 0.0
O134 O 0.89814 0.59076 0.25551 0.0
C135 C 0.90657 0.54908 0.18799 0.0
O136 O 0.8992 0.47701 0.23679 0.0
C137 C 0.87194 0.59217 0.25882 0.0
O138 O 0.87247 0.50724 0.25723 0.0
O139 O 0.85864 0.57089 0.25665 0.0
C140 C 0.81914 0.61785 0.53589 0.0
O141 O 0.80478 0.60397 0.55224 0.0
Cd142 Cd 0.75823 0.61416 0.56787 0.0
O143 O 0.80876 0.6385 0.5249 0.0
Cd144 Cd 0.76214 0.66298 0.5227 0.0
C145 C 0.76531 0.67821 0.59218 0.0
O146 O 0.73636 0.6215 0.52615 0.0
O147 O 0.70997 0.65561 0.52191 0.0
O148 O 0.77146 0.66869 0.47317 0.0
C149 C 0.71193 0.63068 0.52456 0.0
O150 O 0.7619 0.65363 0.59656 0.0
C151 C 0.76931 0.69377 0.47271 0.0
O152 O 0.7663 0.68692 0.56793 0.0
O153 O 0.76378 0.70486 0.49531 0.0
C154 C 0.60291 0.51626 0.83326 0.0
O155 O 0.59292 0.52931 0.81392 0.0
Cd156 Cd 0.61257 0.53311 0.76991 0.0
O157 O 0.62514 0.5024 0.83018 0.0
Cd158 Cd 0.65986 0.491 0.79399 0.0
C159 C 0.67553 0.5557 0.79193 0.0
O160 O 0.62682 0.48947 0.7601 0.0
O161 O 0.66907 0.48656 0.74478 0.0
O162 O 0.65963 0.44546 0.80807 0.0
C163 C 0.64341 0.48655 0.74013 0.0
O164 O 0.65266 0.55908 0.78018 0.0
C165 C 0.68585 0.44281 0.8078 0.0
O166 O 0.68326 0.53288 0.79989 0.0
O167 O 0.70002 0.46338 0.80318 0.0
C168 C 0.96903 0.78648 0.86403 0.0
O169 O 0.98465 0.80192 0.8506 0.0
Cd170 Cd 0.03099 0.81373 0.86242 0.0
O171 O 0.97806 0.77565 0.88548 0.0
Cd172 Cd 0.02437 0.77498 0.91145 0.0
C173 C 0.02466 0.8443 0.92446 0.0
O174 O 0.05847 0.7748 0.87181 0.0
O175 O 0.07504 0.78263 0.91055 0.0
O176 O 0.02012 0.72522 0.91653 0.0
C177 C 0.07972 0.77889 0.88558 0.0
O178 O 0.02976 0.84615 0.89924 0.0
C179 C 0.02216 0.72405 0.9419 0.0
O180 O 0.02002 0.8214 0.93486 0.0
O181 O 0.0247 0.74632 0.95357 0.0
C182 C 0.97186 0.27113 0.67732 0.0
O183 O 0.98933 0.25428 0.68587 0.0
Cd184 Cd 0.03614 0.24775 0.67072 0.0
O185 O 0.97788 0.28676 0.65795 0.0
Cd186 Cd 0.01831 0.29775 0.62842 0.0
C187 C 0.02905 0.23559 0.60294 0.0
O188 O 0.04565 0.29284 0.66559 0.0
O189 O 0.06979 0.30525 0.63105 0.0
O190 O 0.00315 0.34383 0.62851 0.0
C191 C 0.06906 0.29851 0.65563 0.0
O192 O 0.0364 0.22766 0.62601 0.0
C193 C 0.00285 0.34555 0.60304 0.0
O194 O 0.02046 0.25921 0.59935 0.0
O195 O 0.00953 0.32492 0.58955 0.0
C196 C 0.46705 0.28732 0.36221 0.0
O197 O 0.48324 0.30097 0.34739 0.0
Cd198 Cd 0.52904 0.31386 0.35885 0.0
O199 O 0.4754 0.27847 0.38481 0.0
Cd200 Cd 0.52067 0.27805 0.41194 0.0
C201 C 0.51842 0.34814 0.41916 0.0
O202 O 0.55434 0.27513 0.37238 0.0
O203 O 0.57199 0.28328 0.41054 0.0
O204 O 0.50985 0.22949 0.41797 0.0
C205 C 0.57603 0.27895 0.38557 0.0
O206 O 0.52377 0.34782 0.39389 0.0
C207 C 0.51481 0.22752 0.44281 0.0
O208 O 0.51507 0.32619 0.43192 0.0
O209 O 0.52198 0.24895 0.45403 0.0
C210 C 0.52925 0.78805 0.21785 0.0
O211 O 0.55284 0.78267 0.22719 0.0
Cd212 Cd 0.59201 0.78285 0.19571 0.0
O213 O 0.52704 0.79666 0.19398 0.0
Cd214 Cd 0.54986 0.81152 0.15252 0.0
C215 C 0.56522 0.74763 0.14149 0.0
O216 O 0.59197 0.82355 0.17142 0.0
O217 O 0.59453 0.81842 0.1285 0.0
O218 O 0.52586 0.85297 0.15911 0.0
C219 C 0.60703 0.82294 0.15005 0.0
O220 O 0.58133 0.74964 0.16128 0.0
C221 C 0.51593 0.85389 0.1358 0.0
O222 O 0.54955 0.76688 0.13467 0.0
O223 O 0.52116 0.83428 0.1202 0.0
C224 C 0.97303 0.03217 0.77524 0.0
O225 O 0.98812 0.01978 0.75783 0.0
Cd226 Cd 0.97215 0.01582 0.71207 0.0
O227 O 0.94941 0.04137 0.76926 0.0
Cd228 Cd 0.91678 0.04533 0.73399 0.0
C229 C 0.9141 0.97976 0.72356 0.0
O230 O 0.95126 0.05791 0.70013 0.0
O231 O 0.90947 0.05203 0.68708 0.0
O232 O 0.90346 0.0846 0.75864 0.0
C233 C 0.93418 0.05848 0.68124 0.0
O234 O 0.93781 0.98059 0.71157 0.0
C235 C 0.87759 0.08183 0.75606 0.0
O236 O 0.90349 5e-05 0.73528 0.0
O237 O 0.86975 0.06178 0.74308 0.0
C238 C 0.81279 0.08483 0.50694 0.0
O239 O 0.79962 0.0741 0.52647 0.0
Cd240 Cd 0.76133 0.09595 0.54997 0.0
O241 O 0.80554 0.1074 0.49824 0.0
Cd242 Cd 0.77067 0.14216 0.50269 0.0
C243 C 0.78715 0.15775 0.56607 0.0
O244 O 0.73456 0.11344 0.51491 0.0
O245 O 0.72271 0.15494 0.51435 0.0
O246 O 0.76723 0.13906 0.45478 0.0
C247 C 0.71615 0.13122 0.51929 0.0
O248 O 0.7785 0.13492 0.57281 0.0
C249 C 0.77521 0.16244 0.45025 0.0
O250 O 0.78787 0.16515 0.54157 0.0
O251 O 0.78077 0.17668 0.47047 0.0
C252 C 0.58793 0.00871 0.33252 0.0
O253 O 0.57314 0.01619 0.3132 0.0
Cd254 Cd 0.58959 0.02384 0.26851 0.0
O255 O 0.61354 0.00285 0.32887 0.0
Cd256 Cd 0.64727 -0.00259 0.29102 0.0
C257 C 0.64672 0.0628 0.27979 0.0
O258 O 0.61513 0.98456 0.25827 0.0
O259 O 0.65524 0.99499 0.24203 0.0
O260 O 0.65678 0.95427 0.30796 0.0
C261 C 0.63094 0.98718 0.23776 0.0
O262 O 0.62229 0.06021 0.27122 0.0
C263 C 0.68288 0.95658 0.3084 0.0
O264 O 0.66035 0.04331 0.28921 0.0
O265 O 0.69279 0.97883 0.30158 0.0
C266 C 0.82441 0.95163 0.01031 0.0
O267 O 0.80648 0.96191 -0.00481 0.0
Cd268 Cd 0.75966 0.94908 0.99072 0.0
O269 O 0.81794 0.9317 0.02508 0.0
Cd270 Cd 0.77284 0.90396 0.03301 0.0
C271 C 0.76751 0.88607 0.96448 0.0
O272 O 0.74126 0.94331 0.0356 0.0
O273 O 0.72037 0.90645 0.03255 0.0
O274 O 0.78904 0.90116 0.08053 0.0
C275 C 0.71845 0.93129 0.03584 0.0
O276 O 0.76015 0.91014 0.96135 0.0
C277 C 0.78246 0.87742 0.08553 0.0
O278 O 0.77485 0.87801 0.98778 0.0
O279 O 0.77176 0.86518 0.06612 0.0
C280 C 0.33727 0.60815 0.01581 0.0
O281 O 0.32518 0.59147 0.031 0.0
Cd282 Cd 0.28229 0.60088 0.0549 0.0
O283 O 0.32555 0.6299 0.00975 0.0
Cd284 Cd 0.28055 0.65239 0.01434 0.0
C285 C 0.29571 0.66395 0.07888 0.0
O286 O 0.25143 0.61521 0.02179 0.0
O287 O 0.23216 0.65328 0.03042 0.0
O288 O 0.27965 0.65297 0.96609 0.0
C289 C 0.23022 0.62827 0.03017 0.0
O290 O 0.29163 0.63941 0.08303 0.0
C291 C 0.28019 0.67795 0.96389 0.0
O292 O 0.29411 0.67384 0.0554 0.0
O293 O 0.27996 0.69144 0.98557 0.0
C294 C 0.0962 0.55443 0.85345 0.0
O295 O 0.0779 0.56769 0.84118 0.0
Cd296 Cd 0.0747 0.5681 0.79265 0.0
O297 O 0.11359 0.53962 0.84072 0.0
Cd298 Cd 0.12925 0.52429 0.79693 0.0
C299 C 0.1421 0.58824 0.78097 0.0
O300 O 0.08505 0.52474 0.77631 0.0
O301 O 0.12072 0.51579 0.7504 0.0
O302 O 0.13367 0.48033 0.81497 0.0
C303 C 0.09492 0.52099 0.7526 0.0
O304 O 0.11598 0.5925 0.78089 0.0
C305 C 0.15958 0.47813 0.80978 0.0
O306 O 0.15234 0.5657 0.78708 0.0
O307 O 0.17143 0.49762 0.79839 0.0
C308 C 0.31836 0.45524 0.50975 0.0
O309 O 0.30083 0.46507 0.49391 0.0
Cd310 Cd 0.25462 0.45103 0.48699 0.0
O311 O 0.31182 0.43523 0.52434 0.0
Cd312 Cd 0.26764 0.40669 0.53162 0.0
C313 C 0.2652 0.38696 0.46347 0.0
O314 O 0.23372 0.44449 0.53055 0.0
O315 O 0.21621 0.40582 0.52942 0.0
O316 O 0.2827 0.40755 0.57931 0.0
C317 C 0.21209 0.43063 0.5303 0.0
O318 O 0.25763 0.41087 0.4596 0.0
C319 C 0.27552 0.38444 0.58618 0.0
O320 O 0.27193 0.37945 0.48717 0.0
O321 O 0.26522 0.37063 0.56766 0.0
C322 C 0.44357 0.5492 0.28233 0.0
O323 O 0.45856 0.54272 0.26179 0.0
Cd324 Cd 0.44155 0.53908 0.21728 0.0
O325 O 0.41792 0.55505 0.28029 0.0
Cd326 Cd 0.38206 0.56028 0.24634 0.0
C327 C 0.38765 0.4962 0.22978 0.0
O328 O 0.41381 0.57803 0.21423 0.0
O329 O 0.37395 0.56986 0.19865 0.0
O330 O 0.36719 0.59541 0.27556 0.0
C331 C 0.39839 0.57786 0.19418 0.0
O332 O 0.41071 0.50086 0.21758 0.0
C333 C 0.34168 0.5944 0.27028 0.0
O334 O 0.37444 0.51402 0.24328 0.0
O335 O 0.33431 0.57619 0.25453 0.0
Co336 Co 0.01696 0.04502 -0.00076 0.0
C337 C 0.01539 0.07811 0.04528 0.0
Co338 Co 0.03117 0.02503 0.03531 0.0
C339 C -0.00166 0.05285 0.94532 0.0
C340 C 0.00657 0.08945 0.96501 0.0
N341 N 0.00601 0.06303 0.96899 0.0
N342 N 0.99424 0.07183 0.92686 0.0
C343 C -0.00087 0.09492 0.93915 0.0
H344 H 0.99622 0.03192 0.94146 0.0
H345 H 0.01303 0.10385 0.97956 0.0
C346 C 0.0325 0.99188 0.98919 0.0
N347 N 0.0428 0.00687 0.06501 0.0
C348 C 0.06431 0.01228 0.08063 0.0
C349 C 0.03446 0.98265 0.07266 0.0
N350 N 0.07017 0.99213 0.09745 0.0
C351 C 0.05121 0.97354 0.09253 0.0
C352 C 0.97434 0.01822 0.02586 0.0
O353 O 0.02546 0.01344 0.97785 0.0
O354 O 0.03699 0.9926 0.01425 0.0
O355 O 0.9932 0.01402 0.04283 0.0
O356 O 0.9802 0.03221 0.00526 0.0
O357 O 0.02537 0.05753 0.05656 0.0
H358 H 0.01827 0.97168 0.06331 0.0
H359 H 0.07592 0.03034 0.07899 0.0
O360 O 0.0085 0.07614 0.02087 0.0
O361 O 0.05351 0.05804 0.99303 0.0
O362 O 0.06909 0.03641 0.0275 0.0
C363 C 0.07344 0.0526 0.00828 0.0
H364 H -0.00143 0.1142 0.92973 0.0
H365 H 0.05019 0.95414 0.10161 0.0
Co366 Co 0.33138 0.79364 0.30915 0.0
C367 C 0.31976 0.74287 0.29338 0.0
Co368 Co 0.31599 0.79114 0.26809 0.0
C369 C 0.3264 0.81069 0.36259 0.0
C370 C 0.35451 0.77761 0.35984 0.0
N371 N 0.3408 0.79539 0.34477 0.0
N372 N 0.32892 0.8023 0.38807 0.0
C373 C 0.34717 0.78184 0.38662 0.0
H374 H 0.31197 0.82605 0.35664 0.0
H375 H 0.36642 0.7609 0.3518 0.0
C376 C 0.32649 0.8421 0.28484 0.0
N377 N 0.30546 0.78945 0.23288 0.0
C378 C 0.3125 0.77073 0.21446 0.0
C379 C 0.28871 0.80655 0.22006 0.0
N380 N 0.30074 0.77539 0.19064 0.0
C381 C 0.28579 0.79797 0.19405 0.0
C382 C 0.27336 0.7962 0.3042 0.0
O383 O 0.33241 0.83083 0.30672 0.0
O384 O 0.31965 0.82819 0.26491 0.0
O385 O 0.27887 0.79564 0.27915 0.0
O386 O 0.29313 0.79554 0.32041 0.0
O387 O 0.31216 0.75387 0.27179 0.0
H388 H 0.27892 0.82392 0.22919 0.0
H389 H 0.326 0.754 0.21852 0.0
O390 O 0.3299 0.75684 0.31168 0.0
O391 O 0.36932 0.79104 0.2974 0.0
O392 O 0.35302 0.78634 0.25693 0.0
C393 C 0.37351 0.78695 0.2723 0.0
H394 H 0.35255 0.76919 0.40327 0.0
H395 H 0.27298 0.80717 0.17911 0.0
Co396 Co 0.47977 0.02454 0.50839 0.0
C397 C 0.49737 0.07755 0.50013 0.0
Co398 Co 0.51537 0.03497 0.53212 0.0
C399 C 0.42757 0.00395 0.496 0.0
C400 C 0.44704 0.0207 0.46088 0.0
N401 N 0.45079 0.01593 0.48721 0.0
N402 N 0.40923 0.0011 0.4764 0.0
C403 C 0.42136 0.01164 0.45416 0.0
H404 H 0.42386 -0.00169 0.51678 0.0
H405 H 0.46181 0.03049 0.44761 0.0
C406 C 0.49849 0.98187 0.53985 0.0
N407 N 0.54357 0.0432 0.55419 0.0
C408 C 0.56506 0.05893 0.54849 0.0
C409 C 0.54724 0.0349 0.57968 0.0
N410 N 0.58207 0.06073 0.5693 0.0
C411 C 0.57123 0.04547 0.58895 0.0
C412 C 0.46406 0.0451 0.55712 0.0
O413 O 0.4802 0.98868 0.52314 0.0
O414 O 0.51581 -0.00083 0.54664 0.0
O415 O 0.4901 0.04597 0.55949 0.0
O416 O 0.45436 0.03581 0.53581 0.0
O417 O 0.51505 0.07095 0.51752 0.0
H418 H 0.53348 0.02182 0.5907 0.0
H419 H 0.56867 0.06822 0.52911 0.0
O420 O 0.47985 0.06026 0.49337 0.0
O421 O 0.50465 0.01356 0.48132 0.0
O422 O 0.54105 0.02414 0.50404 0.0
C423 C 0.53074 0.01515 0.48271 0.0
H424 H 0.41231 0.01288 0.43455 0.0
H425 H 0.58014 0.0421 0.60839 0.0
Co426 Co 0.29575 0.31503 0.78719 0.0
C427 C 0.27116 0.3248 0.73772 0.0
Co428 Co 0.25365 0.29966 0.78635 0.0
C429 C 0.35337 0.31403 0.79791 0.0
C430 C 0.34106 0.35061 0.77988 0.0
N431 N 0.3313 0.32713 0.78836 0.0
N432 N 0.37664 0.32837 0.79584 0.0
C433 C 0.36902 0.35143 0.78445 0.0
H434 H 0.35236 0.29419 0.80597 0.0
H435 H 0.32862 0.36615 0.77111 0.0
C436 C 0.27851 0.28827 0.83505 0.0
N437 N 0.2181 0.28777 0.78521 0.0
C438 C 0.20519 0.27986 0.76309 0.0
C439 C 0.19833 0.28832 0.80501 0.0
N440 N 0.17795 0.27625 0.76798 0.0
C441 C 0.17353 0.28122 0.79444 0.0
C442 C 0.29288 0.26353 0.76927 0.0
O443 O 0.2985 0.30077 0.82376 0.0
O444 O 0.25616 0.28626 0.82242 0.0
O445 O 0.267 0.26707 0.77313 0.0
O446 O 0.30924 0.28236 0.77358 0.0
O447 O 0.25134 0.31285 0.74974 0.0
H448 H 0.20138 0.29508 0.82536 0.0
H449 H 0.21532 0.27811 0.74341 0.0
O450 O 0.29315 0.32852 0.75061 0.0
O451 O 0.28207 0.34789 0.80095 0.0
O452 O 0.24007 0.33231 0.7997 0.0
C453 C 0.25611 0.35118 0.80471 0.0
H454 H 0.3825 0.36791 0.78024 0.0
H455 H 0.15349 0.28179 0.80488 0.0
Co456 Co 0.99319 0.00481 0.48634 0.0
C457 C 0.9758 0.03531 0.52879 0.0
Co458 Co 0.01164 0.04425 0.48501 0.0
C459 C -0.00184 0.95001 0.48303 0.0
C460 C 0.95511 0.96032 0.48685 0.0
N461 N 0.98071 0.97066 0.48712 0.0
N462 N 0.98488 0.92732 0.47896 0.0
C463 C 0.95764 0.93346 0.48173 0.0
H464 H 0.02043 0.95199 0.48105 0.0
H465 H 0.93598 0.97178 0.4883 0.0
C466 C 0.02919 0.01362 0.44259 0.0
N467 N 0.0249 0.07809 0.48426 0.0
C468 C 0.03353 0.09166 0.50565 0.0
C469 C 0.02587 0.09538 0.46365 0.0
N470 N 0.03941 0.1169 0.49948 0.0
C471 C 0.03464 0.11941 0.47303 0.0
C472 C 0.04324 0.00905 0.51247 0.0
O473 O 0.01369 -0.00318 0.45412 0.0
O474 O 0.03107 0.03659 0.45253 0.0
O475 O 0.04306 0.03276 0.50418 0.0
O476 O 0.02331 0.99424 0.50694 0.0
O477 O 0.99227 0.05171 0.5179 0.0
H478 H 0.0195 0.09109 0.44345 0.0
H479 H 0.03377 0.0836 0.52581 0.0
O480 O 0.97264 0.01282 0.51803 0.0
O481 O 0.9633 0.01545 0.4664 0.0
O482 O 0.97966 0.05563 0.46613 0.0
C483 C 0.96048 0.0397 0.46057 0.0
H484 H 0.94088 0.92006 0.47808 0.0
H485 H 0.0364 0.13751 0.46156 0.0
Co486 Co 0.28001 0.80517 0.79792 0.0
C487 C 0.22685 0.78432 0.80407 0.0
Co488 Co 0.27616 0.76707 0.77714 0.0
C489 C 0.29514 0.85807 0.79685 0.0
C490 C 0.26908 0.85182 0.83174 0.0
N491 N 0.28269 0.83899 0.81133 0.0
N492 N 0.28919 0.88242 0.80649 0.0
C493 C 0.27317 0.87872 0.82885 0.0
H494 H 0.30707 0.85415 0.77844 0.0
H495 H 0.25552 0.84251 0.84652 0.0
C496 C 0.32904 0.78748 0.77086 0.0
N497 N 0.27378 0.73393 0.76225 0.0
C498 C 0.2575 0.71439 0.77134 0.0
C499 C 0.28664 0.7241 0.73973 0.0
N500 N 0.25933 0.69293 0.75532 0.0
C501 C 0.27778 0.6987 0.73545 0.0
C502 C 0.26408 0.8073 0.74392 0.0
O503 O 0.31869 0.80595 0.78562 0.0
O504 O 0.31403 0.76808 0.7651 0.0
O505 O 0.26581 0.78227 0.7443 0.0
O506 O 0.26899 0.82015 0.76507 0.0
O507 O 0.23768 0.76626 0.78902 0.0
H508 H 0.30084 0.73497 0.7268 0.0
H509 H 0.24394 0.71605 0.78908 0.0
O510 O 0.2417 0.80383 0.81041 0.0
O511 O 0.2906 0.79043 0.83039 0.0
O512 O 0.28646 0.75182 0.81062 0.0
C513 C 0.29144 0.76535 0.83155 0.0
H514 H 0.26368 0.89428 0.84118 0.0
H515 H 0.28328 0.68604 0.71843 0.0
Co516 Co 0.51233 0.01068 0.00602 0.0
C517 C 0.56589 0.99658 0.02229 0.0
Co518 Co 0.52316 0.02867 0.04417 0.0
C519 C 0.49711 0.00711 0.95128 0.0
C520 C 0.50647 0.96902 0.96762 0.0
N521 N 0.50422 0.99492 0.97407 0.0
N522 N 0.49495 0.98995 0.93068 0.0
C523 C 0.50072 0.96589 0.9409 0.0
H524 H 0.4946 0.02834 0.94969 0.0
H525 H 0.51257 0.95352 0.98128 0.0
C526 C 0.46983 0.0427 0.02852 0.0
N527 N 0.53222 0.04374 0.07615 0.0
C528 C 0.54601 0.03107 0.09544 0.0
C529 C 0.53 0.06913 0.0845 0.0
N530 N 0.55288 0.04743 0.1154 0.0
C531 C 0.54293 0.0715 0.10872 0.0
C532 C 0.5356 0.05979 0.00034 0.0
O533 O 0.47649 0.02906 0.00759 0.0
O534 O 0.48705 0.04427 0.04728 0.0
O535 O 0.5357 0.05887 0.02581 0.0
O536 O 0.52767 0.03983 0.98735 0.0
O537 O 0.55978 0.01286 0.04113 0.0
H538 H 0.52054 0.08499 0.07325 0.0
H539 H 0.55221 0.01041 0.09412 0.0
O540 O 0.54794 0.99246 0.00463 0.0
O541 O 0.49682 0.98185 0.02452 0.0
O542 O 0.51006 -0.00166 0.06263 0.0
C543 C 0.4986 0.97998 0.04979 0.0
H544 H 0.50092 0.94738 0.92991 0.0
H545 H 0.54525 0.08949 0.12024 0.0
Co546 Co 0.26408 0.26449 0.28984 0.0
C547 C 0.31966 0.27872 0.29032 0.0
Co548 Co 0.27259 0.29892 0.26468 0.0
C549 C 0.24199 0.21394 0.30016 0.0
C550 C 0.26411 0.22761 0.334 0.0
N551 N 0.2562 0.23461 0.30921 0.0
N552 N 0.24087 0.19405 0.31808 0.0
C553 C 0.25477 0.20252 0.33949 0.0
H554 H 0.23371 0.21306 0.2802 0.0
H555 H 0.27644 0.23966 0.34689 0.0
C556 C 0.21739 0.28504 0.26333 0.0
N557 N 0.28031 0.32851 0.24493 0.0
C558 C 0.29342 0.34995 0.25369 0.0
C559 C 0.27567 0.33322 0.2187 0.0
N560 N 0.29733 0.36776 0.23401 0.0
C561 C 0.28642 0.35743 0.21183 0.0
C562 C 0.2768 0.2527 0.23459 0.0
O563 O 0.2252 0.26758 0.28009 0.0
O564 O 0.2349 0.30177 0.25486 0.0
O565 O 0.27973 0.27755 0.23301 0.0
O566 O 0.27121 0.24287 0.25768 0.0
O567 O 0.31077 0.2961 0.27409 0.0
H568 H 0.26548 0.31979 0.20538 0.0
H569 H 0.30076 0.35216 0.27392 0.0
O570 O 0.30272 0.26164 0.29949 0.0
O571 O 0.25722 0.28577 0.3217 0.0
O572 O 0.2652 0.32056 0.29684 0.0
C573 C 0.25988 0.31069 0.32001 0.0
H574 H 0.25838 0.19124 0.35757 0.0
H575 H 0.28623 0.36674 0.19225 0.0
Co576 Co 0.51922 0.51477 0.03205 0.0
C577 C 0.5028 0.5479 0.07325 0.0
Co578 Co 0.5369 0.5543 0.02845 0.0
C579 C 0.52008 0.45912 0.02946 0.0
C580 C 0.47857 0.47326 0.03718 0.0
N581 N 0.50502 0.48128 0.03448 0.0
N582 N 0.50421 0.43755 0.02781 0.0
C583 C 0.47801 0.44626 0.03303 0.0
H584 H 0.54227 0.45916 0.02554 0.0
H585 H 0.46077 0.48636 0.04016 0.0
C586 C 0.55253 0.52186 0.98642 0.0
N587 N 0.55178 0.58764 0.02615 0.0
C588 C 0.54079 0.61026 0.03661 0.0
C589 C 0.57803 0.5936 0.01854 0.0
N590 N 0.55934 0.62985 0.03654 0.0
C591 C 0.58282 0.61952 0.02518 0.0
C592 C 0.56919 0.51892 0.05636 0.0
O593 O 0.53982 0.50456 0.00023 0.0
O594 O 0.55326 0.54547 -0.00504 0.0
O595 O 0.56911 0.54189 0.04605 0.0
O596 O 0.54863 0.50413 0.05323 0.0
O597 O 0.52016 0.56311 0.06196 0.0
H598 H 0.59332 0.57944 0.01071 0.0
H599 H 0.52048 0.61166 0.04651 0.0
O600 O 0.49854 0.52526 0.06323 0.0
O601 O 0.48981 0.52542 0.01107 0.0
O602 O 0.50441 0.56628 0.011 0.0
C603 C 0.48633 0.54947 0.00469 0.0
H604 H 0.45959 0.43443 0.03182 0.0
H605 H 0.60253 0.62943 0.02363 0.0
Co606 Co 0.77471 0.29125 0.28843 0.0
C607 C 0.71938 0.27726 0.29716 0.0
Co608 Co 0.76391 0.25602 0.26568 0.0
C609 C 0.80367 0.33812 0.29711 0.0
C610 C 0.77562 0.33144 0.33047 0.0
N611 N 0.7846 0.32117 0.30655 0.0
N612 N 0.8073 0.35826 0.31409 0.0
C613 C 0.78946 0.35468 0.33504 0.0
H614 H 0.81426 0.33631 0.27765 0.0
H615 H 0.75995 0.32274 0.34359 0.0
C616 C 0.81901 0.26901 0.25684 0.0
N617 N 0.75439 0.22604 0.24743 0.0
C618 C 0.73842 0.20651 0.25725 0.0
C619 C 0.76377 0.21739 0.22304 0.0
N620 N 0.73772 0.18587 0.24018 0.0
C621 C 0.75369 0.19246 0.21861 0.0
C622 C 0.75689 0.30231 0.23761 0.0
O623 O 0.81186 0.28857 0.27174 0.0
O624 O 0.80121 0.25151 0.25236 0.0
O625 O 0.75585 0.27729 0.23517 0.0
O626 O 0.7633 0.31222 0.25994 0.0
O627 O 0.72629 0.26025 0.27915 0.0
H628 H 0.77777 0.22812 0.20977 0.0
H629 H 0.72858 0.20686 0.27715 0.0
O630 O 0.73767 0.29326 0.30488 0.0
O631 O 0.78636 0.27082 0.31687 0.0
O632 O 0.77246 0.2352 0.29642 0.0
C633 C 0.78296 0.24608 0.31673 0.0
H634 H 0.7867 0.36782 0.35218 0.0
H635 H 0.75806 0.18 0.20118 0.0
Co636 Co 0.0159 0.51922 0.5013 0.0
C637 C 0.06921 0.51358 0.51996 0.0
Co638 Co 0.02182 0.54294 0.53764 0.0
C639 C -0.00265 0.51216 0.4486 0.0
C640 C 0.02012 0.47784 0.46093 0.0
N641 N 0.01058 0.50172 0.46956 0.0
N642 N -0.0017 0.49598 0.4271 0.0
C643 C 0.01269 0.4743 0.4346 0.0
H644 H 0.98814 0.53185 0.44875 0.0
H645 H 0.03222 0.46423 0.47276 0.0
C646 C 0.96864 0.5483 0.51937 0.0
N647 N 0.02723 0.56038 0.56949 0.0
C648 C 0.04325 0.55082 0.58895 0.0
C649 C 0.01538 0.58269 0.57996 0.0
N650 N 0.042 0.56605 0.61109 0.0
C651 C 0.02433 0.58611 0.60587 0.0
C652 C 0.03368 0.57093 0.49232 0.0
O653 O 0.9781 0.53234 0.50137 0.0
O654 O 0.98439 0.55555 0.53786 0.0
O655 O 0.03262 0.57306 0.5178 0.0
O656 O 0.02777 0.54905 0.48154 0.0
O657 O 0.05976 0.53039 0.5371 0.0
H658 H 0.00069 0.5952 0.56975 0.0
H659 H 0.05476 0.53228 0.58743 0.0
O660 O 0.05339 0.50575 0.5017 0.0
O661 O 0.00425 0.48984 0.52067 0.0
O662 O 0.01071 0.51229 0.55763 0.0
C663 C 0.00383 0.49098 0.54614 0.0
H664 H 0.01761 0.45729 0.42194 0.0
H665 H 0.01825 0.60185 0.61977 0.0
Co666 Co 0.8017 0.78847 0.28067 0.0
C667 C 0.78434 0.79942 0.22844 0.0
Co668 Co 0.76401 0.76705 0.27148 0.0
C669 C 0.85496 0.79292 0.30225 0.0
C670 C 0.84355 0.82861 0.28197 0.0
N671 N 0.8339 0.80479 0.28957 0.0
N672 N 0.87759 0.80806 0.30246 0.0
C673 C 0.87064 0.83059 0.28972 0.0
H674 H 0.85439 0.77275 0.3095 0.0
H675 H 0.83215 0.84297 0.27039 0.0
C676 C 0.78022 0.75564 0.32301 0.0
N677 N 0.73255 0.74984 0.26189 0.0
C678 C 0.72782 0.7424 0.23647 0.0
C679 C 0.70772 0.74893 0.27493 0.0
N680 N 0.70072 0.73929 0.23217 0.0
C681 C 0.68808 0.74253 0.25661 0.0
C682 C 0.81133 0.73854 0.25933 0.0
O683 O 0.7991 0.77222 0.31687 0.0
O684 O 0.76239 0.75038 0.30562 0.0
O685 O 0.78517 0.73845 0.25815 0.0
O686 O 0.82308 0.75898 0.26791 0.0
O687 O 0.76556 0.78386 0.23673 0.0
H688 H 0.70363 0.75601 0.29525 0.0
H689 H 0.74323 0.74387 0.22024 0.0
O690 O 0.80368 0.80463 0.24446 0.0
O691 O 0.78063 0.81755 0.29352 0.0
O692 O 0.74261 0.79601 0.28543 0.0
C693 C 0.75435 0.81655 0.29409 0.0
H694 H 0.88442 0.84686 0.28554 0.0
H695 H 0.66587 0.7447 0.26004 0.0
Co696 Co 0.80342 0.26814 0.81702 0.0
C697 C 0.81041 0.21741 0.80083 0.0
Co698 Co 0.78575 0.26187 0.77728 0.0
C699 C 0.79656 0.28861 0.86891 0.0
C700 C 0.83616 0.26908 0.86562 0.0
N701 N 0.81341 0.27502 0.85163 0.0
N702 N 0.80765 0.29181 0.89309 0.0
C703 C 0.83264 0.27943 0.89133 0.0
H704 H 0.77623 0.29595 0.86375 0.0
H705 H 0.8541 0.25819 0.85762 0.0
C706 C 0.7786 0.31268 0.79417 0.0
N707 N 0.77522 0.25546 0.74262 0.0
C708 C 0.78817 0.23859 0.72515 0.0
C709 C 0.75431 0.2664 0.72883 0.0
N710 N 0.77622 0.23847 0.7011 0.0
C711 C 0.75494 0.256 0.70314 0.0
C712 C 0.7475 0.25249 0.81601 0.0
O713 O 0.79206 0.30399 0.81381 0.0
O714 O 0.77301 0.29728 0.77501 0.0
O715 O 0.75087 0.25213 0.79064 0.0
O716 O 0.76747 0.25906 0.83047 0.0
O717 O 0.79825 0.22627 0.78036 0.0
H718 H 0.73949 0.28086 0.73695 0.0
H719 H 0.80622 0.22669 0.72987 0.0
O720 O 0.81494 0.23281 0.8203 0.0
O721 O 0.83903 0.27663 0.80321 0.0
O722 O 0.8209 0.27159 0.76361 0.0
C723 C 0.84161 0.27682 0.77769 0.0
H724 H 0.84749 0.27844 0.90717 0.0
H725 H 0.74048 0.26036 0.68747 0.0
Co726 Co 0.76573 0.76551 0.78991 0.0
C727 C 0.82138 0.7795 0.79121 0.0
Co728 Co 0.77441 0.79992 0.76471 0.0
C729 C 0.73992 0.71696 0.80125 0.0
C730 C 0.76792 0.7263 0.83226 0.0
N731 N 0.7574 0.73562 0.80922 0.0
N732 N 0.73904 0.69631 0.81819 0.0
C733 C 0.75673 0.70186 0.83775 0.0
H734 H 0.72881 0.71801 0.78268 0.0
H735 H 0.78312 0.73633 0.84394 0.0
C736 C 0.71914 0.78634 0.76226 0.0
N737 N 0.78295 0.82936 0.74491 0.0
C738 C 0.79785 0.84991 0.75318 0.0
C739 C 0.7786 0.83394 0.71861 0.0
N740 N 0.80334 0.8669 0.73305 0.0
C741 C 0.79146 0.85702 0.71116 0.0
C742 C 0.77873 0.75328 0.73507 0.0
O743 O 0.72675 0.76903 0.77933 0.0
O744 O 0.73679 0.80311 0.75412 0.0
O745 O 0.78174 0.77813 0.73322 0.0
O746 O 0.77304 0.74369 0.75822 0.0
O747 O 0.8126 0.79679 0.77481 0.0
H748 H 0.76769 0.82085 0.70549 0.0
H749 H 0.80585 0.85165 0.77321 0.0
O750 O 0.80434 0.76242 0.80016 0.0
O751 O 0.75862 0.78691 0.82154 0.0
O752 O 0.76679 0.8218 0.79677 0.0
C753 C 0.76132 0.81184 0.81991 0.0
H754 H 0.76129 0.68917 0.8546 0.0
H755 H 0.79254 0.8656 0.69122 0.0
Co756 Co 0.51298 0.54353 0.50477 0.0
C757 C 0.511 0.57726 0.5506 0.0
Co758 Co 0.52581 0.52392 0.54131 0.0
C759 C 0.48732 0.55135 0.45415 0.0
C760 C 0.51257 0.58401 0.46477 0.0
N761 N 0.50318 0.56055 0.47382 0.0
N762 N 0.48687 0.56795 0.43305 0.0
C763 C 0.50276 0.58849 0.43949 0.0
H764 H 0.47747 0.53226 0.45469 0.0
H765 H 0.52644 0.59658 0.47547 0.0
C766 C 0.52822 0.48948 0.49676 0.0
N767 N 0.53585 0.50646 0.57175 0.0
C768 C 0.55028 0.51596 0.59225 0.0
C769 C 0.53217 0.4806 0.57738 0.0
N770 N 0.55609 0.49694 0.61011 0.0
C771 C 0.54489 0.47462 0.60098 0.0
C772 C 0.4692 0.51796 0.53059 0.0
O773 O 0.51871 0.50973 0.48452 0.0
O774 O 0.53461 0.49244 0.52111 0.0
O775 O 0.4882 0.51143 0.54664 0.0
O776 O 0.47525 0.53372 0.51146 0.0
O777 O 0.51717 0.55545 0.56191 0.0
H778 H 0.52137 0.46687 0.56487 0.0
H779 H 0.55711 0.5362 0.59367 0.0
O780 O 0.50736 0.57691 0.52526 0.0
O781 O 0.55063 0.55353 0.49793 0.0
O782 O 0.5635 0.53663 0.536 0.0
C783 C 0.56931 0.55026 0.51512 0.0
H784 H 0.50741 0.60515 0.42656 0.0
H785 H 0.5458 0.45553 0.61077 0.0
Co786 Co 0.01329 0.519 0.01023 0.0
C787 C 0.02024 0.57434 0.00206 0.0
Co788 Co 0.03617 0.53825 0.04201 0.0
C789 C 0.97298 0.48706 0.98789 0.0
C790 C 0.99485 0.50756 0.95648 0.0
N791 N 0.99419 0.50342 0.98328 0.0
N792 N 0.95968 0.48116 0.96532 0.0
C793 C 0.97335 0.49403 0.94535 0.0
H794 H 0.96584 0.48154 0.00795 0.0
H795 H 0.0089 0.5208 0.94602 0.0
C796 C 0.02916 0.4829 0.0501 0.0
N797 N 0.0554 0.5539 0.06898 0.0
C798 C 0.07403 0.57303 0.06485 0.0
C799 C 0.05741 0.54734 0.09518 0.0
N800 N 0.08785 0.57858 0.08712 0.0
C801 C 0.0779 0.56224 0.10629 0.0
C802 C 0.97997 0.53815 0.05199 0.0
O803 O 0.01633 0.48497 0.02821 0.0
O804 O 0.03999 0.50372 0.05953 0.0
O805 O 0.00306 0.54459 0.06134 0.0
O806 O 0.97934 0.5263 0.02954 0.0
O807 O 0.03198 0.57246 0.02455 0.0
H808 H 0.04615 0.53155 0.105 0.0
H809 H 0.07931 0.58105 0.04519 0.0
O810 O 0.01047 0.5533 0.99202 0.0
O811 O 0.04658 0.51194 0.99132 0.0
O812 O 0.06982 0.53249 0.02196 0.0
C813 C 0.06936 0.52042 -0.00039 0.0
H814 H 0.96729 0.49489 0.92459 0.0
H815 H 0.08623 0.55991 0.12613 0.0
H816 H 0.00468 0.19907 0.0844 0.0
H817 H 0.06068 0.16929 0.14364 0.0
H818 H 0.05938 0.12537 0.12401 0.0
H819 H 0.04222 0.09425 0.09046 0.0
H820 H 0.98707 0.123 0.03019 0.0
H821 H 0.98802 0.16748 0.04966 0.0
C822 C 0.01684 0.18308 0.0928 0.0
C823 C 0.03273 0.18797 0.11572 0.0
C824 C 0.01591 0.15715 0.08138 0.0
C825 C 0.04808 0.16654 0.12623 0.0
C826 C 0.04735 0.14114 0.11501 0.0
C827 C 0.03011 0.11013 0.08172 0.0
C828 C 0.0143 0.10483 0.05896 0.0
C829 C 0.03113 0.13602 0.09277 0.0
C830 C -0.00072 0.12611 0.0478 0.0
C831 C -9e-05 0.15177 0.0589 0.0
H832 H 0.14834 0.76939 0.32372 0.0
H833 H 0.17632 0.75522 0.40412 0.0
H834 H 0.22272 0.77033 0.39063 0.0
H835 H 0.25555 0.78521 0.35523 0.0
H836 H 0.2266 0.8 0.2752 0.0
H837 H 0.17991 0.78743 0.2896 0.0
C838 C 0.16458 0.76949 0.33832 0.0
C839 C 0.15911 0.76086 0.36475 0.0
C840 C 0.19083 0.77854 0.33058 0.0
C841 C 0.18021 0.76154 0.38355 0.0
C842 C 0.20664 0.77026 0.37589 0.0
C843 C 0.2389 0.78625 0.3411 0.0
C844 C 0.24453 0.79341 0.31417 0.0
C845 C 0.21219 0.77862 0.34939 0.0
C846 C 0.22281 0.79446 0.29602 0.0
C847 C 0.19616 0.78712 0.30417 0.0
H848 H 0.49889 0.85824 0.56871 0.0
H849 H 0.54236 0.88716 0.637 0.0
H850 H 0.53913 0.93223 0.61977 0.0
H851 H 0.52394 0.96415 0.58539 0.0
H852 H 0.47711 0.93642 0.51883 0.0
H853 H 0.48149 0.89088 0.53517 0.0
C854 C 0.50773 0.87439 0.57977 0.0
C855 C 0.52109 0.86896 0.60418 0.0
C856 C 0.50508 0.90079 0.57004 0.0
C857 C 0.53199 0.89045 0.61826 0.0
C858 C 0.53016 0.91639 0.60837 0.0
C859 C 0.51463 0.94819 0.57442 0.0
C860 C 0.50029 0.95402 0.5507 0.0
C861 C 0.51672 0.92191 0.58431 0.0
C862 C 0.48821 0.93282 0.5371 0.0
C863 C 0.4908 0.90662 0.54644 0.0
H864 H 0.50074 0.31048 0.82459 0.0
H865 H 0.46264 0.25979 0.88454 0.0
H866 H 0.41706 0.26963 0.8667 0.0
H867 H 0.38802 0.29457 0.8359 0.0
H868 H 0.42612 0.34531 0.77612 0.0
H869 H 0.47192 0.33376 0.79249 0.0
C870 C 0.48253 0.30139 0.83368 0.0
C871 C 0.4851 0.28453 0.85596 0.0
C872 C 0.45643 0.30736 0.82358 0.0
C873 C 0.46125 0.2729 0.86742 0.0
C874 C 0.43518 0.27856 0.85728 0.0
C875 C 0.40633 0.3028 0.82615 0.0
C876 C 0.40365 0.32085 0.80486 0.0
C877 C 0.43252 0.29604 0.83562 0.0
C878 C 0.4276 0.33169 0.7928 0.0
C879 C 0.45378 0.32497 0.80203 0.0
H880 H 0.02755 0.81719 0.43538 0.0
H881 H 0.08679 0.86763 0.39451 0.0
H882 H 0.0655 0.90632 0.41662 0.0
H883 H 0.02878 0.92574 0.44476 0.0
H884 H 0.96904 0.87655 0.48611 0.0
H885 H 0.99151 0.83699 0.46572 0.0
C886 C 0.03605 0.8366 0.43159 0.0
C887 C 0.05869 0.83959 0.41328 0.0
C888 C 0.02342 0.8588 0.444 0.0
C889 C 0.06934 0.86485 0.40842 0.0
C890 C 0.05714 0.88696 0.42097 0.0
C891 C 0.02097 0.90637 0.44993 0.0
C892 C -0.00242 0.90393 0.46729 0.0
C893 C 0.03399 0.88413 0.43841 0.0
C894 C 0.98704 0.87877 0.47279 0.0
C895 C -4e-05 0.85628 0.46127 0.0
H896 H 0.45802 0.78377 0.74311 0.0
H897 H 0.42843 0.77767 0.66248 0.0
H898 H 0.38034 0.78094 0.67995 0.0
H899 H 0.34659 0.78312 0.71864 0.0
H900 H 0.37621 0.79392 0.79869 0.0
H901 H 0.42435 0.79135 0.78115 0.0
C902 C 0.44101 0.78344 0.72937 0.0
C903 C 0.44675 0.78027 0.70153 0.0
C904 C 0.41344 0.78604 0.73954 0.0
C905 C 0.42455 0.78018 0.68393 0.0
C906 C 0.39706 0.7819 0.69395 0.0
C907 C 0.36366 0.78513 0.73214 0.0
C908 C 0.35798 0.78843 0.75995 0.0
C909 C 0.39124 0.78446 0.72175 0.0
C910 C 0.38015 0.79137 0.77725 0.0
C911 C 0.40763 0.78981 0.76721 0.0
H912 H 0.53779 0.15919 0.92502 0.0
H913 H 0.53254 0.19907 0.002 0.0
H914 H 0.53427 0.15648 0.02505 0.0
H915 H 0.53722 0.10822 0.02323 0.0
H916 H 0.54181 0.06824 0.94627 0.0
H917 H 0.54118 0.11086 0.9232 0.0
C918 C 0.53671 0.15857 0.94684 0.0
C919 C 0.53483 0.18219 0.96181 0.0
C920 C 0.53819 0.13412 0.9599 0.0
C921 C 0.53381 0.18111 0.99006 0.0
C922 C 0.535 0.15681 0.00323 0.0
C923 C 0.53855 0.1088 0.00141 0.0
C924 C 0.53975 0.08515 0.98646 0.0
C925 C 0.53741 0.13325 0.98834 0.0
C926 C 0.54106 0.08622 0.95821 0.0
C927 C 0.54046 0.11054 0.94502 0.0
H928 H 0.09396 0.2705 0.22408 0.0
H929 H 0.13147 0.30154 0.15107 0.0
H930 H 0.17552 0.30616 0.17338 0.0
H931 H 0.20385 0.30096 0.21328 0.0
H932 H 0.16844 0.2661 0.28529 0.0
H933 H 0.12333 0.26345 0.26392 0.0
C934 C 0.11178 0.27833 0.2131 0.0
C935 C 0.10925 0.28582 0.18588 0.0
C936 C 0.13749 0.28031 0.22595 0.0
C937 C 0.13272 0.29558 0.17192 0.0
C938 C 0.15796 0.29831 0.18472 0.0
C939 C 0.1862 0.29302 0.22446 0.0
C940 C 0.18949 0.28417 0.2511 0.0
C941 C 0.16063 0.29073 0.2117 0.0
C942 C 0.1665 0.27329 0.26491 0.0
C943 C 0.14069 0.27173 0.25263 0.0
H944 H 0.17126 0.00308 0.17278 0.0
H945 H 0.1285 0.9398 0.2137 0.0
H946 H 0.09514 0.93792 0.17795 0.0
H947 H 0.07488 0.95807 0.13875 0.0
H948 H 0.11711 0.02156 0.09733 0.0
H949 H 0.15356 0.01993 0.13001 0.0
C950 C 0.15511 0.98841 0.17341 0.0
C951 C 0.15215 0.97169 0.19579 0.0
C952 C 0.13545 0.988 0.15319 0.0
C953 C 0.13102 0.95292 0.19661 0.0
C954 C 0.11184 0.95197 0.17632 0.0
C955 C 0.09222 0.97127 0.1364 0.0
C956 C 0.09276 0.99018 0.11572 0.0
C957 C 0.11329 0.97007 0.15507 0.0
C958 C 0.11552 0.00723 0.11339 0.0
C959 C 0.13664 0.00616 0.13195 0.0
H960 H 0.26709 0.83937 0.49409 0.0
H961 H 0.20442 0.86033 0.4374 0.0
H962 H 0.23176 0.83827 0.40131 0.0
H963 H 0.27562 0.8184 0.38533 0.0
H964 H 0.34032 0.80135 0.44098 0.0
H965 H 0.30973 0.8165 0.47846 0.0
C966 C 0.25904 0.83861 0.47397 0.0
C967 C 0.23382 0.85159 0.46834 0.0
C968 C 0.27546 0.82715 0.45321 0.0
C969 C 0.22381 0.85057 0.44216 0.0
C970 C 0.23952 0.83815 0.42154 0.0
C971 C 0.28322 0.81816 0.40558 0.0
C972 C 0.31053 0.80948 0.41034 0.0
C973 C 0.26583 0.8274 0.4267 0.0
C974 C 0.31951 0.80824 0.43687 0.0
C975 C 0.30205 0.8169 0.4582 0.0
H976 H 0.38134 0.05744 0.65598 0.0
H977 H 0.45051 0.10104 0.68507 0.0
H978 H 0.47354 0.09855 0.64078 0.0
H979 H 0.47718 0.07822 0.59659 0.0
H980 H 0.40992 0.03204 0.56745 0.0
H981 H 0.38263 0.04158 0.60889 0.0
C982 C 0.40111 0.06692 0.6523 0.0
C983 C 0.41454 0.07904 0.67358 0.0
C984 C 0.41467 0.0646 0.62703 0.0
C985 C 0.44011 0.09129 0.66887 0.0
C986 C 0.45328 0.08983 0.64366 0.0
C987 C 0.45641 0.07048 0.59918 0.0
C988 C 0.44573 0.054 0.5795 0.0
C989 C 0.4413 0.07555 0.62303 0.0
C990 C 0.41859 0.0446 0.58264 0.0
C991 C 0.40307 0.04996 0.6063 0.0
H992 H 0.30985 0.21626 0.93545 0.0
H993 H 0.22281 0.22868 0.9546 0.0
H994 H 0.21817 0.25614 0.91457 0.0
H995 H 0.23834 0.276 0.8731 0.0
H996 H 0.32613 0.26746 0.85578 0.0
H997 H 0.33099 0.23969 0.89579 0.0
C998 C 0.2899 0.22504 0.93088 0.0
C999 C 0.26663 0.22008 0.94809 0.0
C1000 C 0.2875 0.24173 0.90803 0.0
C1001 C 0.24107 0.23204 0.94189 0.0
C1002 C 0.23837 0.24779 0.91889 0.0
C1003 C 0.25861 0.2683 0.87821 0.0
C1004 C 0.28182 0.27392 0.86124 0.0
C1005 C 0.26137 0.25272 0.90169 0.0
C1006 C 0.30791 0.26376 0.86843 0.0
C1007 C 0.31067 0.24766 0.89131 0.0
H1008 H 0.07838 0.98098 0.32893 0.0
H1009 H 0.14854 0.02296 0.35799 0.0
H1010 H 0.12434 0.02994 0.40159 0.0
H1011 H 0.08145 0.02751 0.42959 0.0
H1012 H 0.01261 0.98286 0.4016 0.0
H1013 H 0.03808 0.97332 0.35917 0.0
C1014 C 0.08844 0.99128 0.34503 0.0
C1015 C 0.11489 0.00174 0.34046 0.0
C1016 C 0.07455 0.99496 0.3699 0.0
C1017 C 0.12812 0.01473 0.36132 0.0
C1018 C 0.11424 0.01889 0.38607 0.0
C1019 C 0.07218 0.01563 0.41415 0.0
C1020 C 0.04514 0.00637 0.41812 0.0
C1021 C 0.08716 0.00972 0.39027 0.0
C1022 C 0.03338 0.99038 0.39858 0.0
C1023 C 0.04789 0.98494 0.37443 0.0
H1024 H 0.24324 0.88562 0.6484 0.0
H1025 H 0.23835 0.81198 0.60481 0.0
H1026 H 0.2467 0.78725 0.646 0.0
H1027 H 0.25527 0.78665 0.69442 0.0
H1028 H 0.25905 0.86056 0.73787 0.0
H1029 H 0.25113 0.88505 0.69668 0.0
C1030 C 0.24414 0.86417 0.6479 0.0
C1031 C 0.24029 0.85064 0.62367 0.0
C1032 C 0.24859 0.85011 0.67162 0.0
C1033 C 0.24127 0.82283 0.6233 0.0
C1034 C 0.246 0.80868 0.64681 0.0
C1035 C 0.25421 0.8081 0.69487 0.0
C1036 C 0.25779 0.82173 0.71912 0.0
C1037 C 0.24959 0.82213 0.67111 0.0
C1038 C 0.25642 0.84955 0.71943 0.0
C1039 C 0.25192 0.86362 0.69589 0.0
H1040 H 0.47358 0.0013 0.80776 0.0
H1041 H 0.43324 0.07341 0.83655 0.0
H1042 H 0.44744 0.06377 0.88212 0.0
H1043 H 0.46752 0.03325 0.914 0.0
H1044 H 0.50847 0.96135 0.8857 0.0
H1045 H 0.49701 0.97228 0.83955 0.0
C1046 C 0.46826 0.01512 0.82391 0.0
C1047 C 0.45218 0.03789 0.81885 0.0
C1048 C 0.47603 0.00926 0.85013 0.0
C1049 C 0.44546 0.05562 0.83997 0.0
C1050 C 0.45345 0.0501 0.86605 0.0
C1051 C 0.47445 0.02014 0.89779 0.0
C1052 C 0.48874 0.99646 0.90339 0.0
C1053 C 0.46815 0.02669 0.8714 0.0
C1054 C 0.49699 0.97948 0.88205 0.0
C1055 C 0.49069 0.98583 0.85562 0.0
H1056 H 0.26731 0.16614 0.14264 0.0
H1057 H 0.27433 0.23475 0.09156 0.0
H1058 H 0.27907 0.26287 0.13143 0.0
H1059 H 0.2803 0.26814 0.18126 0.0
H1060 H 0.27311 0.19889 0.23151 0.0
H1061 H 0.26961 0.1711 0.19161 0.0
C1062 C 0.26985 0.18726 0.14003 0.0
C1063 C 0.27029 0.19815 0.1138 0.0
C1064 C 0.27269 0.20331 0.16308 0.0
C1065 C 0.27381 0.22564 0.11127 0.0
C1066 C 0.27656 0.24177 0.13416 0.0
C1067 C 0.27827 0.24692 0.18352 0.0
C1068 C 0.27715 0.23576 0.20967 0.0
C1069 C 0.27598 0.23086 0.16024 0.0
C1070 C 0.27421 0.20819 0.2119 0.0
C1071 C 0.27208 0.19221 0.18899 0.0
H1072 H 0.16791 0.13782 0.99229 0.0
H1073 H 0.21144 0.08476 0.04457 0.0
H1074 H 0.17166 0.05519 0.04616 0.0
H1075 H 0.12353 0.04472 0.03332 0.0
H1076 H 0.08216 0.09655 0.97794 0.0
H1077 H 0.12175 0.12571 0.97676 0.0
C1078 C 0.16868 0.11979 0.00403 0.0
C1079 C 0.1926 0.11373 0.01851 0.0
C1080 C 0.14599 0.10239 0.00418 0.0
C1081 C 0.19333 0.09 0.03326 0.0
C1082 C 0.17053 0.07304 0.03418 0.0
C1083 C 0.12332 0.0622 0.02074 0.0
C1084 C 0.09962 0.06819 0.00574 0.0
C1085 C 0.14662 0.079 0.01976 0.0
C1086 C 0.09995 0.0911 0.98961 0.0
C1087 C 0.12263 0.10802 0.98901 0.0
H1088 H 0.66404 0.44315 0.09078 0.0
H1089 H 0.71347 0.50449 0.0541 0.0
H1090 H 0.67241 0.53315 0.05145 0.0
H1091 H 0.62161 0.5375 0.0526 0.0
H1092 H 0.57233 0.47503 0.0875 0.0
H1093 H 0.61425 0.45035 0.09834 0.0
C1094 C 0.66587 0.46296 0.08261 0.0
C1095 C 0.69146 0.4715 0.07204 0.0
C1096 C 0.64219 0.47907 0.0807 0.0
C1097 C 0.6938 0.49737 0.06204 0.0
C1098 C 0.67035 0.51374 0.06044 0.0
C1099 C 0.6201 0.51883 0.06322 0.0
C1100 C 0.59404 0.5078 0.06872 0.0
C1101 C 0.64427 0.50434 0.06868 0.0
C1102 C 0.59227 0.48369 0.08265 0.0
C1103 C 0.61619 0.4695 0.08878 0.0
H1104 H 0.89377 0.43323 0.26243 0.0
H1105 H 0.82432 0.48795 0.2699 0.0
H1106 H 0.79705 0.45469 0.29398 0.0
H1107 H 0.79235 0.40908 0.31088 0.0
H1108 H 0.86153 0.35461 0.30258 0.0
H1109 H 0.89004 0.38894 0.28157 0.0
C1110 C 0.87258 0.43777 0.26912 0.0
C1111 C 0.86087 0.46274 0.26408 0.0
C1112 C 0.85729 0.41881 0.28331 0.0
C1113 C 0.83364 0.46866 0.27338 0.0
C1114 C 0.81812 0.44977 0.28728 0.0
C1115 C 0.81394 0.40522 0.3052 0.0
C1116 C 0.8252 0.3798 0.30841 0.0
C1117 C 0.82972 0.42476 0.29231 0.0
C1118 C 0.85287 0.37438 0.30045 0.0
C1119 C 0.86893 0.39381 0.28819 0.0
H1120 H 0.83903 0.56877 0.52363 0.0
H1121 H 0.86482 0.64895 0.53595 0.0
H1122 H 0.91365 0.63457 0.53223 0.0
H1123 H 0.94902 0.59848 0.52775 0.0
H1124 H 0.92298 0.51923 0.51069 0.0
H1125 H 0.87427 0.53379 0.51387 0.0
C1126 C 0.8554 0.58309 0.52519 0.0
C1127 C 0.84844 0.60983 0.53025 0.0
C1128 C 0.88333 0.57476 0.52234 0.0
C1129 C 0.86973 0.62829 0.53196 0.0
C1130 C 0.89762 0.62003 0.52999 0.0
C1131 C 0.9326 0.58451 0.52459 0.0
C1132 C 0.93944 0.55776 0.51933 0.0
C1133 C 0.90467 0.59324 0.52557 0.0
C1134 C 0.91813 0.53988 0.51481 0.0
C1135 C 0.89032 0.54819 0.51669 0.0
H1136 H 0.21617 0.07474 0.3004 0.0
H1137 H 0.15539 0.10809 0.2477 0.0
H1138 H 0.16907 0.15274 0.26051 0.0
H1139 H 0.19871 0.18191 0.28638 0.0
H1140 H 0.25935 0.14785 0.33871 0.0
H1141 H 0.24459 0.10354 0.32688 0.0
C1142 C 0.20597 0.09172 0.2915 0.0
C1143 C 0.18502 0.08813 0.27285 0.0
C1144 C 0.21362 0.11709 0.2992 0.0
C1145 C 0.17171 0.11037 0.26195 0.0
C1146 C 0.17946 0.13585 0.26933 0.0
C1147 C 0.20873 0.16478 0.29513 0.0
C1148 C 0.23023 0.16815 0.31326 0.0
C1149 C 0.20043 0.13938 0.2879 0.0
C1150 C 0.24259 0.14581 0.32493 0.0
C1151 C 0.23436 0.12048 0.31796 0.0
H1152 H 0.2834 0.97296 0.48182 0.0
H1153 H 0.31103 0.92602 0.54871 0.0
H1154 H 0.35853 0.94025 0.53991 0.0
H1155 H 0.39201 0.96558 0.51315 0.0
H1156 H 0.36438 0.0135 0.44713 0.0
H1157 H 0.31698 -0.00151 0.45516 0.0
C1158 C 0.29974 0.96593 0.49462 0.0
C1159 C 0.29362 0.94853 0.51598 0.0
C1160 C 0.32699 0.97402 0.48936 0.0
C1161 C 0.31513 0.9395 0.5322 0.0
C1162 C 0.34231 0.94753 0.52713 0.0
C1163 C 0.37562 0.97298 0.50065 0.0
C1164 C 0.38171 0.99083 0.47971 0.0
C1165 C 0.34843 0.96473 0.50575 0.0
C1166 C 0.36032 -0.00041 0.46322 0.0
C1167 C 0.33318 0.99121 0.46797 0.0
H1168 H 0.89394 0.64113 0.25543 0.0
H1169 H 0.81669 0.60023 0.26803 0.0
H1170 H 0.79112 0.64211 0.26686 0.0
H1171 H 0.79056 0.68976 0.26161 0.0
H1172 H 0.86734 0.73168 0.25095 0.0
H1173 H 0.89339 0.68964 0.25131 0.0
C1174 C 0.87155 0.64145 0.25825 0.0
C1175 C 0.8572 0.61769 0.2618 0.0
C1176 C 0.85693 0.66557 0.2573 0.0
C1177 C 0.82819 0.6183 0.2653 0.0
C1178 C 0.81354 0.64218 0.26444 0.0
C1179 C 0.81298 0.68973 0.25891 0.0
C1180 C 0.82706 0.71364 0.25583 0.0
C1181 C 0.82768 0.66582 0.2601 0.0
C1182 C 0.85611 0.71338 0.25302 0.0
C1183 C 0.87096 0.68943 0.25347 0.0
H1184 H 0.74078 0.43109 0.81132 0.0
H1185 H 0.66052 0.39528 0.80549 0.0
H1186 H 0.68257 0.35195 0.79887 0.0
H1187 H 0.72464 0.3245 0.79266 0.0
H1188 H 0.80476 0.35907 0.80191 0.0
H1189 H 0.78289 0.4029 0.80874 0.0
C1190 C 0.72814 0.41374 0.80896 0.0
C1191 C 0.69911 0.4164 0.80871 0.0
C1192 C 0.74093 0.38886 0.80516 0.0
C1193 C 0.68293 0.39375 0.80582 0.0
C1194 C 0.6955 0.369 0.80178 0.0
C1195 C 0.7372 0.34179 0.7958 0.0
C1196 C 0.76611 0.33911 0.79601 0.0
C1197 C 0.72445 0.36643 0.80085 0.0
C1198 C 0.78241 0.36114 0.80113 0.0
C1199 C 0.76992 0.38601 0.80523 0.0
H1200 H 0.02873 0.89543 0.90669 0.0
H1201 H 0.02229 0.85033 0.98012 0.0
H1202 H 0.0255 0.8913 0.00645 0.0
H1203 H 0.0301 0.94053 0.00872 0.0
H1204 H 0.03491 0.98478 0.93463 0.0
H1205 H 0.03266 0.94378 0.9088 0.0
C1206 C 0.02796 0.89435 0.92849 0.0
C1207 C 0.02524 0.86938 0.9412 0.0
C1208 C 0.02976 0.91808 0.94353 0.0
C1209 C 0.02424 0.86895 0.96955 0.0
C1210 C 0.0262 0.8925 0.98468 0.0
C1211 C 0.03096 0.94121 0.98691 0.0
C1212 C 0.03303 0.96607 0.97378 0.0
C1213 C 0.02907 0.91726 0.97193 0.0
C1214 C 0.03355 0.96625 0.94545 0.0
C1215 C 0.03216 0.94268 0.93058 0.0
H1216 H 0.96304 0.26545 0.73059 0.0
H1217 H 0.92189 0.28587 0.65751 0.0
H1218 H 0.87792 0.29201 0.68301 0.0
H1219 H 0.85122 0.28933 0.72561 0.0
H1220 H 0.89271 0.2701 0.7989 0.0
H1221 H 0.93705 0.26649 0.77378 0.0
C1222 C 0.94437 0.27109 0.72026 0.0
C1223 C 0.94534 0.27465 0.69223 0.0
C1224 C 0.91954 0.27517 0.73508 0.0
C1225 C 0.92137 0.28274 0.67908 0.0
C1226 C 0.89637 0.28633 0.69363 0.0
C1227 C 0.87004 0.2847 0.73614 0.0
C1228 C 0.86879 0.27975 0.76397 0.0
C1229 C 0.89523 0.28237 0.72158 0.0
C1230 C 0.89327 0.27408 0.77748 0.0
C1231 C 0.91851 0.27175 0.7631 0.0
H1232 H 0.48922 0.18164 0.42757 0.0
H1233 H 0.53686 0.21397 0.49138 0.0
H1234 H 0.53629 0.17116 0.51441 0.0
H1235 H 0.52274 0.12371 0.5164 0.0
H1236 H 0.47274 0.09257 0.45366 0.0
H1237 H 0.47376 0.13519 0.43067 0.0
C1238 C 0.49943 0.17942 0.44657 0.0
C1239 C 0.51318 0.20135 0.45751 0.0
C1240 C 0.49863 0.15465 0.46007 0.0
C1241 C 0.52605 0.19776 0.48233 0.0
C1242 C 0.52579 0.17311 0.49555 0.0
C1243 C 0.512 0.12622 0.49773 0.0
C1244 C 0.49771 0.10451 0.48692 0.0
C1245 C 0.51223 0.15128 0.48463 0.0
C1246 C 0.48384 0.10859 0.46271 0.0
C1247 C 0.48446 0.13311 0.44941 0.0
H1248 H 0.6244 0.77357 0.14051 0.0
H1249 H 0.65133 0.84958 0.16769 0.0
H1250 H 0.68888 0.82828 0.19207 0.0
H1251 H 0.70443 0.7885 0.21529 0.0
H1252 H 0.67009 0.71291 0.19663 0.0
H1253 H 0.64406 0.73312 0.15991 0.0
C1254 C 0.63923 0.78537 0.15099 0.0
C1255 C 0.63531 0.81292 0.15262 0.0
C1256 C 0.65835 0.77285 0.16746 0.0
C1257 C 0.65432 0.82833 0.16613 0.0
C1258 C 0.67531 0.81611 0.18047 0.0
C1259 C 0.69177 0.77647 0.20257 0.0
C1260 C 0.68881 0.74947 0.20831 0.0
C1261 C 0.67605 0.78846 0.18284 0.0
C1262 C 0.6723 0.73377 0.19233 0.0
C1263 C 0.65758 0.74533 0.17149 0.0
H1264 H 0.055 0.18761 0.60056 0.0
H1265 H 0.00731 0.24241 0.55329 0.0
H1266 H 0.00885 0.21126 0.51567 0.0
H1267 H 0.02084 0.16722 0.49751 0.0
H1268 H 0.06813 0.11243 0.54486 0.0
H1269 H 0.06988 0.14498 0.58117 0.0
C1270 C 0.04496 0.19278 0.58203 0.0
C1271 C 0.03077 0.21714 0.57987 0.0
C1272 C 0.04592 0.17483 0.5605 0.0
C1273 C 0.01824 0.2237 0.55556 0.0
C1274 C 0.01912 0.20592 0.53401 0.0
C1275 C 0.03207 0.16267 0.51551 0.0
C1276 C 0.0442 0.13748 0.51865 0.0
C1277 C 0.03259 0.18131 0.5364 0.0
C1278 C 0.05838 0.13166 0.54222 0.0
C1279 C 0.05935 0.15021 0.56295 0.0
H1280 H 0.59312 0.2633 0.33458 0.0
H1281 H 0.62278 0.29911 0.40682 0.0
H1282 H 0.66891 0.30323 0.38569 0.0
H1283 H 0.70153 0.29609 0.34676 0.0
H1284 H 0.6726 0.25773 0.27559 0.0
H1285 H 0.62595 0.25535 0.296 0.0
C1286 C 0.60966 0.27203 0.3457 0.0
C1287 C 0.60426 0.2809 0.37233 0.0
C1288 C 0.63648 0.27398 0.33351 0.0
C1289 C 0.62616 0.292 0.38638 0.0
C1290 C 0.65265 0.29445 0.37425 0.0
C1291 C 0.68495 0.28744 0.33563 0.0
C1292 C 0.69067 0.27733 0.3095 0.0
C1293 C 0.65813 0.28548 0.34782 0.0
C1294 C 0.66892 0.26576 0.29564 0.0
C1295 C 0.64215 0.26434 0.30734 0.0
H1296 H 0.49492 0.86282 0.08659 0.0
H1297 H 0.50777 0.90014 0.16334 0.0
H1298 H 0.49846 0.94342 0.14391 0.0
H1299 H 0.49591 0.97072 0.10346 0.0
H1300 H 0.48449 0.93348 0.0264 0.0
H1301 H 0.48345 0.89017 0.04775 0.0
C1302 C 0.49497 0.88036 0.09921 0.0
C1303 C 0.5028 0.8784 0.12609 0.0
C1304 C 0.49023 0.90525 0.08779 0.0
C1305 C 0.50227 0.90119 0.1424 0.0
C1306 C 0.49708 0.92599 0.1313 0.0
C1307 C 0.49257 0.95318 0.09144 0.0
C1308 C 0.49108 0.95518 0.06338 0.0
C1309 C 0.49252 0.92831 0.10373 0.0
C1310 C 0.48614 0.9324 0.04806 0.0
C1311 C 0.48565 0.90759 0.06021 0.0
H1312 H 0.94551 0.80589 0.81869 0.0
H1313 H 0.9277 0.75513 0.88646 0.0
H1314 H 0.88126 0.74726 0.86958 0.0
H1315 H 0.84486 0.75574 0.83567 0.0
H1316 H 0.86393 0.80729 0.76871 0.0
H1317 H 0.91038 0.81358 0.78505 0.0
C1318 C 0.93161 0.79304 0.82991 0.0
C1319 C 0.94043 0.78123 0.85402 0.0
C1320 C 0.9049 0.78861 0.82007 0.0
C1321 C 0.92175 0.76461 0.86796 0.0
C1322 C 0.89508 0.76007 0.85824 0.0
C1323 C 0.85929 0.76809 0.82448 0.0
C1324 C 0.85061 0.7809 0.80077 0.0
C1325 C 0.88631 0.77202 0.83429 0.0
C1326 C 0.86972 0.7971 0.78689 0.0
C1327 C 0.89643 0.8008 0.7963 0.0
H1328 H 0.95573 0.07126 0.80847 0.0
H1329 H 0.01082 0.00315 0.80367 0.0
H1330 H 0.02214 0.00934 0.85107 0.0
H1331 H 0.01492 0.0336 0.89408 0.0
H1332 H 0.96055 0.10214 0.89757 0.0
H1333 H 0.95012 0.09625 0.85013 0.0
C1334 C 0.97026 0.05773 0.81775 0.0
C1335 C 0.98224 0.03661 0.8028 0.0
C1336 C 0.97658 0.06144 0.84466 0.0
C1337 C 0.00139 0.01956 0.81487 0.0
C1338 C 0.00772 0.02301 0.84193 0.0
C1339 C 0.00067 0.04706 0.88437 0.0
C1340 C 0.98822 0.06811 0.89911 0.0
C1341 C 0.99514 0.04372 0.85707 0.0
C1342 C 0.97029 0.08587 0.88642 0.0
C1343 C 0.96434 0.08248 0.85942 0.0
H1344 H 0.79865 0.14749 0.61798 0.0
H1345 H 0.78553 0.21165 0.56244 0.0
H1346 H 0.78228 0.24306 0.59986 0.0
H1347 H 0.77752 0.25133 0.6488 0.0
H1348 H 0.79115 0.18715 0.70394 0.0
H1349 H 0.79978 0.15662 0.66629 0.0
C1350 C 0.79559 0.16842 0.61402 0.0
C1351 C 0.79192 0.17717 0.58756 0.0
C1352 C 0.79337 0.18627 0.63559 0.0
C1353 C 0.78839 0.20439 0.58266 0.0
C1354 C 0.78625 0.22234 0.60406 0.0
C1355 C 0.78255 0.23067 0.65238 0.0
C1356 C 0.78335 0.22129 0.67888 0.0
C1357 C 0.7877 0.21334 0.63065 0.0
C1358 C 0.79042 0.19468 0.68359 0.0
C1359 C 0.79529 0.17726 0.66212 0.0
H1360 H 0.61169 0.01457 0.381 0.0
H1361 H 0.53483 0.99566 0.34371 0.0
H1362 H 0.51177 0.99188 0.38778 0.0
H1363 H 0.51237 -0.00268 0.43584 0.0
H1364 H 0.5871 0.021 0.47427 0.0
H1365 H 0.61249 0.01875 0.43069 0.0
C1366 C 0.58996 0.00944 0.38268 0.0
C1367 C 0.57482 0.00563 0.35931 0.0
C1368 C 0.5766 0.00804 0.40811 0.0
C1369 C 0.54671 -0.00095 0.3615 0.0
C1370 C 0.53358 0.99674 0.38663 0.0
C1371 C 0.53431 0.00177 0.43491 0.0
C1372 C 0.54779 0.00958 0.45819 0.0
C1373 C 0.54819 0.0017 0.40994 0.0
C1374 C 0.57626 0.01498 0.45657 0.0
C1375 C 0.59068 0.0139 0.43167 0.0
H1376 H 0.75952 0.83225 0.1074 0.0
H1377 H 0.81504 0.89526 0.1257 0.0
H1378 H 0.82172 0.87679 0.17051 0.0
H1379 H 0.81109 0.8429 0.20564 0.0
H1380 H 0.75366 0.78133 0.18744 0.0
H1381 H 0.74852 0.79893 0.14236 0.0
C1382 C 0.77322 0.84189 0.12109 0.0
C1383 C 0.78683 0.86518 0.11279 0.0
C1384 C 0.77663 0.83136 0.1473 0.0
C1385 C 0.80423 0.87738 0.13124 0.0
C1386 C 0.8081 0.86677 0.15703 0.0
C1387 C 0.79762 0.83322 0.19176 0.0
C1388 C 0.78289 0.81061 0.20035 0.0
C1389 C 0.79434 0.84378 0.16546 0.0
C1390 C 0.7653 0.79871 0.18184 0.0
C1391 C 0.76232 0.80878 0.1558 0.0
H1392 H 0.90813 0.04085 0.6379 0.0
H1393 H 0.98141 0.08153 0.66169 0.0
H1394 H -0.00077 0.08096 0.61498 0.0
H1395 H 0.99595 0.06468 0.56862 0.0
H1396 H 0.925 0.01956 0.54651 0.0
H1397 H 0.90396 0.02623 0.59151 0.0
C1398 C 0.9278 0.04996 0.6328 0.0
C1399 C 0.94355 0.06114 0.65304 0.0
C1400 C 0.93832 0.04854 0.60634 0.0
C1401 C 0.96908 0.07269 0.64631 0.0
C1402 C 0.97925 0.07233 0.6197 0.0
C1403 C 0.97569 0.0567 0.57363 0.0
C1404 C 0.96194 0.04161 0.55462 0.0
C1405 C 0.96436 0.05968 0.59973 0.0
C1406 C 0.9359 0.03105 0.56113 0.0
C1407 C 0.92393 0.03487 0.58674 0.0
H1408 H 0.80141 0.20647 0.43376 0.0
H1409 H 0.75437 0.14086 0.40502 0.0
H1410 H 0.75539 0.15953 0.35973 0.0
H1411 H 0.76608 0.19659 0.32949 0.0
H1412 H 0.81275 0.26225 0.3589 0.0
H1413 H 0.81587 0.24117 0.40266 0.0
C1414 C 0.7915 0.19622 0.41755 0.0
C1415 C 0.77747 0.17266 0.42269 0.0
C1416 C 0.79215 0.20701 0.3917 0.0
C1417 C 0.76513 0.15923 0.40149 0.0
C1418 C 0.7657 0.16986 0.37562 0.0
C1419 C 0.77735 0.206 0.34534 0.0
C1420 C 0.7888 0.23103 0.34116 0.0
C1421 C 0.77868 0.19402 0.37064 0.0
C1422 C 0.80344 0.24306 0.36179 0.0
C1423 C 0.80519 0.2311 0.38684 0.0
H1424 H 0.63636 0.03089 0.20781 0.0
H1425 H 0.59576 0.95564 0.21184 0.0
H1426 H 0.56767 0.96787 0.17343 0.0
H1427 H 0.55261 0.00123 0.14124 0.0
H1428 H 0.59096 0.07763 0.13901 0.0
H1429 H 0.62164 0.06411 0.175 0.0
C1430 C 0.62188 0.01696 0.1997 0.0
C1431 C 0.61839 0.99221 0.21191 0.0
C1432 C 0.60499 0.02467 0.17865 0.0
C1433 C 0.59896 0.97458 0.20218 0.0
C1434 C 0.58278 0.98169 0.18053 0.0
C1435 C 0.56785 0.01481 0.14854 0.0
C1436 C 0.56965 0.04032 0.13761 0.0
C1437 C 0.58525 0.00688 0.16904 0.0
C1438 C 0.58904 0.05801 0.14746 0.0
C1439 C 0.60673 0.05019 0.16776 0.0
H1440 H 0.76053 0.8997 0.91184 0.0
H1441 H 0.77364 0.83144 0.96206 0.0
H1442 H 0.77159 0.80256 0.92238 0.0
H1443 H 0.76629 0.79664 0.87295 0.0
H1444 H 0.75511 0.86564 0.82326 0.0
H1445 H 0.75598 0.89402 0.86308 0.0
C1446 C 0.76295 0.87849 0.9143 0.0
C1447 C 0.76718 0.86795 0.94029 0.0
C1448 C 0.76193 0.86201 0.89131 0.0
C1449 C 0.77042 0.84032 0.94258 0.0
C1450 C 0.76916 0.82374 0.91979 0.0
C1451 C 0.76376 0.81788 0.87083 0.0
C1452 C 0.76031 0.82883 0.84486 0.0
C1453 C 0.76487 0.83433 0.894 0.0
C1454 C 0.75761 0.85649 0.84274 0.0
C1455 C 0.75819 0.87281 0.86561 0.0
H1456 H 0.86516 0.95057 0.04912 0.0
H1457 H 0.84744 0.98063 0.97013 0.0
H1458 H 0.89076 0.00425 0.96859 0.0
H1459 H 0.93361 0.01735 0.9892 0.0
H1460 H 0.95335 0.98786 0.06773 0.0
H1461 H 0.90969 0.96359 0.06992 0.0
C1462 C 0.87094 0.96207 0.0315 0.0
C1463 C 0.85268 0.96369 0.00981 0.0
C1464 C 0.89627 0.97613 0.0307 0.0
C1465 C 0.86068 0.97898 0.98726 0.0
C1466 C 0.88559 0.99264 0.9863 0.0
C1467 C 0.92838 0.00583 0.00697 0.0
C1468 C 0.94684 0.0048 0.02837 0.0
C1469 C 0.90344 0.99162 0.00794 0.0
C1470 C 0.93957 0.98933 0.05099 0.0
C1471 C 0.91458 0.97528 0.0522 0.0
H1472 H 0.35925 0.56165 -0.00144 0.0
H1473 H 0.37897 0.64338 0.01193 0.0
H1474 H 0.42835 0.63328 0.00399 0.0
H1475 H 0.46574 0.59969 0.00115 0.0
H1476 H 0.44543 0.51799 0.98728 0.0
H1477 H 0.3964 0.52978 0.98645 0.0
C1478 C 0.37441 0.57725 -0.00076 0.0
C1479 C 0.3659 0.60297 0.00641 0.0
C1480 C 0.40255 0.57133 -0.00547 0.0
C1481 C 0.38534 0.62332 0.00667 0.0
C1482 C 0.4135 0.61756 0.00219 0.0
C1483 C 0.45067 0.58462 -0.00293 0.0
C1484 C 0.45906 0.55795 -0.00486 0.0
C1485 C 0.4224 0.59142 -0.00281 0.0
C1486 C 0.43939 0.53865 0.98943 0.0
C1487 C 0.41131 0.5453 0.98912 0.0
H1488 H 0.19694 0.58587 0.76628 0.0
H1489 H 0.12853 0.64049 0.78251 0.0
H1490 H 0.15904 0.67774 0.77513 0.0
H1491 H 0.20513 0.69484 0.76567 0.0
H1492 H 0.27384 0.6415 0.74819 0.0
H1493 H 0.24316 0.60341 0.75412 0.0
C1494 C 0.18877 0.60593 0.76813 0.0
C1495 C 0.16062 0.61044 0.77511 0.0
C1496 C 0.20639 0.62735 0.76364 0.0
C1497 C 0.15014 0.6365 0.77712 0.0
C1498 C 0.16754 0.65782 0.77298 0.0
C1499 C 0.2133 0.67482 0.76326 0.0
C1500 C 0.24153 0.67066 0.757 0.0
C1501 C 0.19567 0.65344 0.76652 0.0
C1502 C 0.25204 0.64487 0.75313 0.0
C1503 C 0.23458 0.62325 0.75661 0.0
H1504 H 0.19405 0.48109 0.54228 0.0
H1505 H 0.16682 0.40697 0.51003 0.0
H1506 H 0.12105 0.42639 0.5024 0.0
H1507 H 0.08827 0.46439 0.50518 0.0
H1508 H 0.11405 0.53738 0.54095 0.0
H1509 H 0.1606 0.51865 0.54674 0.0
C1510 C 0.17808 0.46921 0.53359 0.0
C1511 C 0.18399 0.4426 0.52668 0.0
C1512 C 0.15146 0.48039 0.52976 0.0
C1513 C 0.16291 0.42744 0.51566 0.0
C1514 C 0.1367 0.43858 0.51118 0.0
C1515 C 0.10418 0.47626 0.51401 0.0
C1516 C 0.09777 0.50239 0.52229 0.0
C1517 C 0.13069 0.46504 0.51812 0.0
C1518 C 0.11845 0.51729 0.53426 0.0
C1519 C 0.14509 0.50656 0.53762 0.0
H1520 H 0.8723 0.9666 0.7578 0.0
H1521 H 0.91848 0.93924 0.687 0.0
H1522 H 0.88709 0.90196 0.68297 0.0
H1523 H 0.84555 0.87802 0.69908 0.0
H1524 H 0.80112 0.90463 0.77089 0.0
H1525 H 0.83263 0.94182 0.77497 0.0
C1526 C 0.87559 0.95242 0.74154 0.0
C1527 C 0.89748 0.95568 0.72262 0.0
C1528 C 0.8576 0.93122 0.7394 0.0
C1529 C 0.90178 0.937 0.70187 0.0
C1530 C 0.88374 0.91585 0.69944 0.0
C1531 C 0.84278 0.89223 0.71537 0.0
C1532 C 0.82104 0.88917 0.73446 0.0
C1533 C 0.86138 0.913 0.7179 0.0
C1534 C 0.81775 0.90702 0.75598 0.0
C1535 C 0.83573 0.92809 0.75831 0.0
H1536 H 0.70505 0.09064 0.55231 0.0
H1537 H 0.66708 0.15732 0.51292 0.0
H1538 H 0.62112 0.14286 0.52853 0.0
H1539 H 0.59203 0.10825 0.5487 0.0
H1540 H 0.63014 0.04177 0.58799 0.0
H1541 H 0.6762 0.05951 0.5778 0.0
C1542 C 0.68668 0.10208 0.54737 0.0
C1543 C 0.68906 0.12456 0.53107 0.0
C1544 C 0.66062 0.09376 0.55649 0.0
C1545 C 0.66544 0.13975 0.52527 0.0
C1546 C 0.63928 0.1315 0.53414 0.0
C1547 C 0.61052 0.09803 0.55538 0.0
C1548 C 0.6081 0.07371 0.56862 0.0
C1549 C 0.63666 0.10813 0.54907 0.0
C1550 C 0.63181 0.0606 0.57777 0.0
C1551 C 0.65801 0.07058 0.57171 0.0
H1552 H 0.21523 0.46921 0.80538 0.0
H1553 H 0.13798 0.43154 0.82696 0.0
H1554 H 0.16216 0.3891 0.83096 0.0
H1555 H 0.204 0.36202 0.82319 0.0
H1556 H 0.28129 0.39911 0.80085 0.0
H1557 H 0.25841 0.44262 0.80293 0.0
C1558 C 0.20376 0.45175 0.81125 0.0
C1559 C 0.17483 0.45338 0.81538 0.0
C1560 C 0.21776 0.42736 0.81337 0.0
C1561 C 0.16025 0.43073 0.82339 0.0
C1562 C 0.17403 0.40645 0.82567 0.0
C1563 C 0.21594 0.37967 0.8192 0.0
C1564 C 0.24413 0.37741 0.81147 0.0
C1565 C 0.2026 0.40444 0.81994 0.0
C1566 C 0.2595 0.40039 0.80677 0.0
C1567 C 0.24639 0.42523 0.80775 0.0
H1568 H 0.34312 0.62373 0.31511 0.0
H1569 H 0.30074 0.61606 0.24057 0.0
H1570 H 0.28632 0.66263 0.243 0.0
H1571 H 0.29537 0.70705 0.26102 0.0
H1572 H 0.33977 0.71419 0.33478 0.0
H1573 H 0.34375 0.66636 0.33799 0.0
C1574 C 0.32978 0.63207 0.30001 0.0
C1575 C 0.32346 0.61694 0.27747 0.0
C1576 C 0.32271 0.65895 0.30095 0.0
C1577 C 0.30588 0.62754 0.25811 0.0
C1578 C 0.29806 0.65426 0.25925 0.0
C1579 C 0.30552 0.69809 0.27798 0.0
C1580 C 0.31808 0.71409 0.2971 0.0
C1581 C 0.30796 0.67047 0.27966 0.0
C1582 C 0.3305 0.70229 0.3194 0.0
C1583 C 0.33273 0.67492 0.32136 0.0
H1584 H 0.5199 0.66868 0.63794 0.0
H1585 H 0.52162 0.71855 0.56769 0.0
H1586 H 0.51592 0.67946 0.53895 0.0
H1587 H 0.51184 0.63011 0.5336 0.0
H1588 H 0.51015 0.58176 0.60513 0.0
H1589 H 0.51421 0.62095 0.63304 0.0
C1590 C 0.51903 0.67124 0.61633 0.0
C1591 C 0.52141 0.69693 0.60524 0.0
C1592 C 0.51563 0.64864 0.59992 0.0
C1593 C 0.51994 0.6993 0.57706 0.0
C1594 C 0.51667 0.6768 0.56054 0.0
C1595 C 0.51197 0.62817 0.55531 0.0
C1596 C 0.51055 0.60256 0.56699 0.0
C1597 C 0.5146 0.65122 0.57168 0.0
C1598 C 0.51113 0.60083 0.59527 0.0
C1599 C 0.51355 0.62338 0.61141 0.0
H1600 H 0.62354 0.23414 0.85116 0.0
H1601 H 0.65578 0.2516 0.92917 0.0
H1602 H 0.70276 0.25328 0.90929 0.0
H1603 H 0.73361 0.25371 0.8692 0.0
H1604 H 0.70066 0.23781 0.79106 0.0
H1605 H 0.65472 0.23155 0.81172 0.0
C1606 C 0.64087 0.23808 0.86389 0.0
C1607 C 0.63626 0.2431 0.89147 0.0
C1608 C 0.66753 0.2395 0.8523 0.0
C1609 C 0.65887 0.24783 0.90781 0.0
C1610 C 0.68567 0.24889 0.89646 0.0
C1611 C 0.71644 0.24864 0.8567 0.0
C1612 C 0.7204 0.24649 0.82864 0.0
C1613 C 0.69008 0.24539 0.86863 0.0
C1614 C 0.69804 0.23976 0.81271 0.0
C1615 C 0.6718 0.23618 0.82448 0.0
H1616 H 0.03784 0.38431 0.13002 0.0
H1617 H 0.01454 0.34205 0.059 0.0
H1618 H 0.01281 0.38364 0.03387 0.0
H1619 H 0.01771 0.43255 0.03181 0.0
H1620 H 0.04368 0.47426 0.10226 0.0
H1621 H 0.04461 0.4328 0.12746 0.0
C1622 C 0.03233 0.38414 0.10905 0.0
C1623 C 0.02614 0.35977 0.09663 0.0
C1624 C 0.03191 0.40827 0.09443 0.0
C1625 C 0.01939 0.36024 0.06927 0.0
C1626 C 0.01838 0.38416 0.05482 0.0
C1627 C 0.02365 0.43262 0.05267 0.0
C1628 C 0.03057 0.45688 0.06496 0.0
C1629 C 0.02458 0.40837 0.06713 0.0
C1630 C 0.03833 0.45618 0.09204 0.0
C1631 C 0.0388 0.43235 0.10658 0.0
H1632 H 0.98494 0.76126 0.3527 0.0
H1633 H 0.02208 0.79739 0.2819 0.0
H1634 H 0.97642 0.81182 0.26759 0.0
H1635 H 0.92613 0.81634 0.27642 0.0
H1636 H 0.88896 0.78002 0.34673 0.0
H1637 H 0.93451 0.76369 0.36023 0.0
C1638 C 0.98306 0.7719 0.33391 0.0
C1639 C 0.00696 0.77833 0.31851 0.0
C1640 C 0.95679 0.78054 0.32598 0.0
C1641 C 0.00406 0.7922 0.29422 0.0
C1642 C 0.97796 0.80064 0.28608 0.0
C1643 C 0.92817 0.80509 0.29482 0.0
C1644 C 0.9045 0.79967 0.31085 0.0
C1645 C 0.95428 0.79545 0.30212 0.0
C1646 C 0.90709 0.78448 0.33426 0.0
C1647 C 0.93304 0.77511 0.34189 0.0
H1648 H 0.52123 0.32366 0.97943 0.0
H1649 H 0.58727 0.36363 0.93605 0.0
H1650 H 0.57706 0.40392 0.96168 0.0
H1651 H 0.54714 0.42859 0.99299 0.0
H1652 H 0.48034 0.38997 0.03633 0.0
H1653 H 0.49296 0.34813 0.0137 0.0
C1654 C 0.53364 0.34107 0.97586 0.0
C1655 C 0.55485 0.34071 0.95572 0.0
C1656 C 0.52735 0.36437 0.99035 0.0
C1657 C 0.57069 0.36344 0.95127 0.0
C1658 C 0.56487 0.3865 0.96589 0.0
C1659 C 0.53569 0.41098 -0.00184 0.0
C1660 C 0.51288 0.4124 0.01649 0.0
C1661 C 0.54291 0.3873 0.98503 0.0
C1662 C 0.49785 0.3894 0.02216 0.0
C1663 C 0.50512 0.36552 0.00929 0.0
H1664 H 0.93857 0.23447 0.21252 0.0
H1665 H 0.94145 0.31652 0.1895 0.0
H1666 H 0.89463 0.32391 0.20935 0.0
H1667 H 0.85283 0.30685 0.2343 0.0
H1668 H 0.84942 0.22373 0.2531 0.0
H1669 H 0.89636 0.21698 0.23416 0.0
C1670 C 0.92893 0.25398 0.21172 0.0
C1671 C 0.94363 0.27496 0.19967 0.0
C1672 C 0.90188 0.2579 0.22268 0.0
C1673 C 0.93062 0.30001 0.19853 0.0
C1674 C 0.90388 0.30425 0.21005 0.0
C1675 C 0.8625 0.28733 0.23431 0.0
C1676 C 0.84777 0.26584 0.24543 0.0
C1677 C 0.88934 0.28338 0.2224 0.0
C1678 C 0.86032 0.24057 0.2448 0.0
C1679 C 0.88717 0.23669 0.23393 0.0
H1680 H 0.05558 0.65644 0.40277 0.0
H1681 H 0.0469 0.70841 0.4717 0.0
H1682 H 0.03983 0.67044 0.50121 0.0
H1683 H 0.03623 0.62247 0.50742 0.0
H1684 H 0.04458 0.57068 0.43828 0.0
H1685 H 0.05196 0.60863 0.40893 0.0
C1686 C 0.052 0.65947 0.42423 0.0
C1687 C 0.05171 0.68516 0.43502 0.0
C1688 C 0.04814 0.63759 0.44108 0.0
C1689 C 0.04717 0.68879 0.46288 0.0
C1690 C 0.04321 0.6671 0.47979 0.0
C1691 C 0.03991 0.61949 0.48596 0.0
C1692 C 0.03997 0.59384 0.47507 0.0
C1693 C 0.0438 0.64141 0.46912 0.0
C1694 C 0.04448 0.59027 0.44719 0.0
C1695 C 0.04862 0.61194 0.43036 0.0
H1696 H 0.596 0.77113 0.72132 0.0
H1697 H 0.63347 0.80424 0.64928 0.0
H1698 H 0.67739 0.80863 0.67194 0.0
H1699 H 0.70567 0.80298 0.71208 0.0
H1700 H 0.6701 0.76635 0.78306 0.0
H1701 H 0.62529 0.76353 0.76119 0.0
C1702 C 0.61378 0.77932 0.71057 0.0
C1703 C 0.61115 0.78748 0.68349 0.0
C1704 C 0.63944 0.78127 0.72367 0.0
C1705 C 0.63466 0.79774 0.66997 0.0
C1706 C 0.65987 0.80034 0.683 0.0
C1707 C 0.68806 0.7946 0.72293 0.0
C1708 C 0.69131 0.78534 0.74951 0.0
C1709 C 0.66255 0.79224 0.70985 0.0
C1710 C 0.66829 0.7739 0.76281 0.0
C1711 C 0.64261 0.77223 0.75022 0.0
H1712 H 0.60302 0.51832 0.72285 0.0
H1713 H 0.66074 0.45674 0.69688 0.0
H1714 H 0.63861 0.45466 0.6531 0.0
H1715 H 0.60046 0.4686 0.62382 0.0
H1716 H 0.54521 0.5322 0.64926 0.0
H1717 H 0.56878 0.53557 0.69208 0.0
C1718 C 0.61088 0.50464 0.70748 0.0
C1719 C 0.63306 0.48744 0.71287 0.0
C1720 C 0.5984 0.50391 0.68259 0.0
C1721 C 0.64357 0.47008 0.69288 0.0
C1722 C 0.63086 0.46882 0.66804 0.0
C1723 C 0.59388 0.48319 0.63885 0.0
C1724 C 0.57113 0.4999 0.63407 0.0
C1725 C 0.60791 0.48529 0.66295 0.0
C1726 C 0.56272 0.51919 0.65301 0.0
C1727 C 0.57611 0.52104 0.67731 0.0
H1728 H 0.76677 0.34842 -0.00073 0.0
H1729 H 0.72396 0.39732 0.94213 0.0
H1730 H 0.74021 0.368 0.90558 0.0
H1731 H 0.77136 0.3325 0.88962 0.0
H1732 H 0.81586 0.28465 0.94626 0.0
H1733 H 0.79487 0.31055 0.98354 0.0
C1734 C 0.76046 0.35247 0.97891 0.0
C1735 C 0.74441 0.37526 0.97339 0.0
C1736 C 0.77086 0.33628 0.95796 0.0
C1737 C 0.73637 0.38002 0.94691 0.0
C1738 C 0.74589 0.36342 0.92599 0.0
C1739 C 0.77608 0.32727 0.9101 0.0
C1740 C 0.79517 0.30663 0.91518 0.0
C1741 C 0.76395 0.34212 0.93124 0.0
C1742 C 0.80155 0.30067 0.94185 0.0
C1743 C 0.78936 0.31529 0.96312 0.0
H1744 H 0.8933 0.52182 0.14343 0.0
H1745 H 0.93213 0.59275 0.17077 0.0
H1746 H 0.95301 0.59967 0.12608 0.0
H1747 H 0.96916 0.5796 0.08394 0.0
H1748 H 0.93529 0.50591 0.05777 0.0
H1749 H 0.9028 0.50619 0.09674 0.0
C1750 C 0.9055 0.53922 0.13913 0.0
C1751 C 0.91169 0.55661 0.16003 0.0
C1752 C 0.91861 0.54226 0.11376 0.0
C1753 C 0.92755 0.57908 0.15474 0.0
C1754 C 0.93951 0.58297 0.12931 0.0
C1755 C 0.95401 0.56407 0.0864 0.0
C1756 C 0.95486 0.54247 0.06876 0.0
C1757 C 0.9366 0.56379 0.1093 0.0
C1758 C 0.93498 0.52263 0.07147 0.0
C1759 C 0.91667 0.52266 0.09385 0.0
H1760 H 0.76654 0.6759 0.42085 0.0
H1761 H 0.78054 0.74658 0.46677 0.0
H1762 H 0.78714 0.77177 0.42504 0.0
H1763 H 0.78805 0.77405 0.37477 0.0
H1764 H 0.77008 0.70372 0.32977 0.0
H1765 H 0.76619 0.67831 0.37138 0.0
C1766 C 0.77111 0.6968 0.42178 0.0
C1767 C 0.77312 0.70919 0.44711 0.0
C1768 C 0.77426 0.71136 0.39762 0.0
C1769 C 0.77878 0.73643 0.4477 0.0
C1770 C 0.78264 0.75088 0.42375 0.0
C1771 C 0.78353 0.75313 0.37414 0.0
C1772 C 0.77956 0.74081 0.34904 0.0
C1773 C 0.78037 0.73862 0.39849 0.0
C1774 C 0.77323 0.71374 0.34871 0.0
C1775 C 0.77098 0.69915 0.37256 0.0
H1776 H 0.60491 0.48214 0.87553 0.0
H1777 H 0.57257 0.55839 0.85147 0.0
H1778 H 0.5549 0.56683 0.89711 0.0
H1779 H 0.54992 0.55345 0.94386 0.0
H1780 H 0.57826 0.47618 0.96841 0.0
H1781 H 0.5964 0.4671 0.92245 0.0
C1782 C 0.59382 0.50048 0.88034 0.0
C1783 C 0.59014 0.51967 0.8603 0.0
C1784 C 0.58329 0.50508 0.90661 0.0
C1785 C 0.57551 0.54326 0.86657 0.0
C1786 C 0.56556 0.5482 0.89266 0.0
C1787 C 0.56024 0.53468 0.93914 0.0
C1788 C 0.56341 0.51569 0.95929 0.0
C1789 C 0.56963 0.52942 0.91282 0.0
C1790 C 0.57598 0.49113 0.95302 0.0
C1791 C 0.58625 0.48597 0.92685 0.0
H1792 H 0.76299 0.39308 0.15197 0.0
H1793 H 0.76727 0.32631 0.09774 0.0
H1794 H 0.76262 0.29593 0.13582 0.0
H1795 H 0.75779 0.28855 0.18463 0.0
H1796 H 0.75197 0.35586 0.23835 0.0
H1797 H 0.75608 0.38584 0.20028 0.0
C1798 C 0.76324 0.37186 0.14856 0.0
C1799 C 0.76586 0.36184 0.12229 0.0
C1800 C 0.75976 0.35466 0.17037 0.0
C1801 C 0.7655 0.33438 0.11795 0.0
C1802 C 0.76267 0.31705 0.13964 0.0
C1803 C 0.75694 0.30977 0.18793 0.0
C1804 C 0.75462 0.31994 0.21423 0.0
C1805 C 0.75964 0.32698 0.16595 0.0
C1806 C 0.75376 0.3475 0.21826 0.0
C1807 C 0.7563 0.3647 0.19654 0.0
H1808 H 0.93778 0.53497 0.32516 0.0
H1809 H 0.00629 0.49295 0.28547 0.0
H1810 H 0.02508 0.48167 0.32915 0.0
H1811 H 0.02088 0.48237 0.37877 0.0
H1812 H 0.9516 0.52361 0.41767 0.0
H1813 H 0.93407 0.53641 0.37403 0.0
C1814 C 0.95701 0.5236 0.32596 0.0
C1815 C 0.97057 0.51479 0.30209 0.0
C1816 C 0.96733 0.51675 0.35101 0.0
C1817 C 0.99543 0.50001 0.30357 0.0
C1818 C 0.0061 0.4934 0.32853 0.0
C1819 C 0.00182 0.49391 0.37756 0.0
C1820 C 0.98747 0.502 0.40126 0.0
C1821 C 0.99194 0.50129 0.35237 0.0
C1822 C 0.96305 0.51734 0.39961 0.0
C1823 C 0.95304 0.52465 0.37471 0.0
H1824 H 0.76877 0.66471 0.64527 0.0
H1825 H 0.77005 0.73268 0.59296 0.0
H1826 H 0.77571 0.76168 0.63197 0.0
H1827 H 0.77925 0.76793 0.68149 0.0
H1828 H 0.77757 0.69934 0.73304 0.0
H1829 H 0.77339 0.67066 0.6939 0.0
C1830 C 0.77026 0.68587 0.64222 0.0
C1831 C 0.76881 0.69632 0.6159 0.0
C1832 C 0.77362 0.70245 0.66479 0.0
C1833 C 0.77099 0.7239 0.61276 0.0
C1834 C 0.77428 0.74055 0.63516 0.0
C1835 C 0.77832 0.74668 0.68416 0.0
C1836 C 0.77892 0.73595 0.71046 0.0
C1837 C 0.77556 0.73009 0.66135 0.0
C1838 C 0.77732 0.70831 0.71328 0.0
C1839 C 0.77481 0.69182 0.69082 0.0
H1840 H 0.66421 0.63467 0.49642 0.0
H1841 H 0.7048 0.58655 0.55526 0.0
H1842 H 0.66494 0.55709 0.55769 0.0
H1843 H 0.61774 0.54516 0.5434 0.0
H1844 H 0.57968 0.59139 0.48125 0.0
H1845 H 0.61904 0.62082 0.47964 0.0
C1846 C 0.66425 0.61778 0.50984 0.0
C1847 C 0.68734 0.61308 0.52591 0.0
C1848 C 0.64164 0.60029 0.51039 0.0
C1849 C 0.68727 0.59074 0.54276 0.0
C1850 C 0.66445 0.57383 0.54414 0.0
C1851 C 0.61821 0.56147 0.52929 0.0
C1852 C 0.59549 0.56583 0.5125 0.0
C1853 C 0.64143 0.57835 0.52803 0.0
C1854 C 0.5967 0.58722 0.49436 0.0
C1855 C 0.61925 0.6043 0.49349 0.0
H1856 H 0.15861 0.97069 0.55273 0.0
H1857 H 0.11494 0.89692 0.55836 0.0
H1858 H 0.07154 0.91995 0.54829 0.0
H1859 H 0.04777 0.95962 0.53242 0.0
H1860 H 0.09208 0.03285 0.52392 0.0
H1861 H 0.13372 0.01134 0.541 0.0
C1862 C 0.13954 0.95967 0.5521 0.0
C1863 C 0.13999 0.93208 0.55578 0.0
C1864 C 0.11497 0.97286 0.5456 0.0
C1865 C 0.11511 0.91812 0.55532 0.0
C1866 C 0.09036 0.93126 0.54948 0.0
C1867 C 0.06642 0.97103 0.53458 0.0
C1868 C 0.06704 -0.00233 0.52648 0.0
C1869 C 0.09031 0.95842 0.5437 0.0
C1870 C 0.09121 0.01225 0.52978 0.0
C1871 C 0.115 -5e-05 0.53945 0.0
H1872 H 0.33972 0.97151 0.73506 0.0
H1873 H 0.33511 0.01341 0.81077 0.0
H1874 H 0.31028 0.97668 0.83181 0.0
H1875 H 0.29554 0.93016 0.82979 0.0
H1876 H 0.29837 0.88985 0.75304 0.0
H1877 H 0.31814 0.92836 0.73139 0.0
C1878 C 0.33281 0.97274 0.75603 0.0
C1879 C 0.3395 0.99478 0.77146 0.0
C1880 C 0.31864 0.95166 0.76795 0.0
C1881 C 0.33015 0.99649 0.79851 0.0
C1882 C 0.31615 0.97544 0.8106 0.0
C1883 C 0.3 0.93003 0.80828 0.0
C1884 C 0.29654 0.90677 0.79337 0.0
C1885 C 0.31111 0.95253 0.79571 0.0
C1886 C 0.30202 0.90703 0.76535 0.0
C1887 C 0.3131 0.92916 0.7528 0.0
H1888 H 0.35564 0.09509 0.0671 0.0
H1889 H 0.35375 0.11938 0.98411 0.0
H1890 H 0.39859 0.09664 0.97501 0.0
H1891 H 0.43816 0.06851 0.99088 0.0
H1892 H 0.43964 0.04726 0.07485 0.0
H1893 H 0.39514 0.06975 0.08318 0.0
C1894 C 0.36502 0.09557 0.04698 0.0
C1895 C 0.35116 0.10886 0.0263 0.0
C1896 C 0.39072 0.08265 0.04201 0.0
C1897 C 0.36394 0.10946 0.00047 0.0
C1898 C 0.38951 0.09626 -0.00477 0.0
C1899 C 0.42856 0.0687 0.01091 0.0
C1900 C 0.44213 0.05591 0.03218 0.0
C1901 C 0.40302 0.08249 0.01581 0.0
C1902 C 0.42969 0.05682 0.05813 0.0
C1903 C 0.40421 0.06974 0.06294 0.0
H1904 H 0.66011 0.60667 0.78521 0.0
H1905 H 0.72718 0.55768 0.81368 0.0
H1906 H 0.75243 0.59733 0.82606 0.0
H1907 H 0.75545 0.6462 0.82799 0.0
H1908 H 0.68772 0.69401 0.79946 0.0
H1909 H 0.66243 0.65436 0.78814 0.0
C1910 C 0.68032 0.60452 0.79399 0.0
C1911 C 0.69182 0.57924 0.79834 0.0
C1912 C 0.69444 0.62719 0.80126 0.0
C1913 C 0.71792 0.57694 0.81 0.0
C1914 C 0.7323 0.59958 0.81717 0.0
C1915 C 0.73498 0.64777 0.8197 0.0
C1916 C 0.72338 0.67283 0.81446 0.0
C1917 C 0.72071 0.62483 0.81293 0.0
C1918 C 0.69704 0.67483 0.80338 0.0
C1919 C 0.68263 0.65223 0.79691 0.0
H1920 H 0.8325 0.46991 0.97391 0.0
H1921 H 0.85559 0.42127 0.04126 0.0
H1922 H 0.90429 0.42372 0.02683 0.0
H1923 H 0.94029 0.4434 -0.00202 0.0
H1924 H 0.91747 0.49512 0.93322 0.0
H1925 H 0.86849 0.48644 0.94274 0.0
C1926 C 0.84814 0.45978 0.98545 0.0
C1927 C 0.84048 0.44588 0.00895 0.0
C1928 C 0.87606 0.46143 0.97719 0.0
C1929 C 0.86097 0.43245 0.02333 0.0
C1930 C 0.88879 0.43371 0.01502 0.0
C1931 C 0.92455 0.45244 0.98573 0.0
C1932 C 0.93239 0.47028 0.96535 0.0
C1933 C 0.89655 0.44862 0.99236 0.0
C1934 C 0.91198 0.48132 0.94904 0.0
C1935 C 0.88396 0.47671 0.95478 0.0
H1936 H 0.31779 0.14233 0.75667 0.0
H1937 H 0.39669 0.16647 0.7863 0.0
H1938 H 0.38093 0.21267 0.78638 0.0
H1939 H 0.34461 0.24575 0.77858 0.0
H1940 H 0.26549 0.2214 0.74964 0.0
H1941 H 0.28187 0.17543 0.74802 0.0
C1942 C 0.33147 0.15767 0.76337 0.0
C1943 C 0.35824 0.1511 0.77167 0.0
C1944 C 0.32246 0.18403 0.76299 0.0
C1945 C 0.37589 0.17114 0.77999 0.0
C1946 C 0.36699 0.1975 0.77987 0.0
C1947 C 0.33113 0.23044 0.77145 0.0
C1948 C 0.30398 0.23682 0.76412 0.0
C1949 C 0.34037 0.20413 0.77129 0.0
C1950 C 0.28654 0.21683 0.7553 0.0
C1951 C 0.29579 0.1906 0.75456 0.0
H1952 H 0.27592 0.95093 0.25543 0.0
H1953 H 0.24163 0.94216 0.33602 0.0
H1954 H 0.27449 0.90596 0.34434 0.0
H1955 H 0.30568 0.87171 0.32561 0.0
H1956 H 0.33351 0.87564 0.24244 0.0
H1957 H 0.31124 0.91923 0.2382 0.0
C1958 C 0.27629 0.94155 0.27504 0.0
C1959 C 0.25649 0.94887 0.29508 0.0
C1960 C 0.29398 0.91976 0.27901 0.0
C1961 C 0.2567 0.93654 0.32031 0.0
C1962 C 0.27539 0.91587 0.32502 0.0
C1963 C 0.30772 0.88259 0.30687 0.0
C1964 C 0.32109 0.8707 0.28434 0.0
C1965 C 0.29315 0.90652 0.30408 0.0
C1966 C 0.32325 0.88461 0.25999 0.0
C1967 C 0.31033 0.90935 0.25753 0.0
H1968 H 0.53879 0.36598 0.46777 0.0
H1969 H 0.49285 0.39166 0.39937 0.0
H1970 H 0.49236 0.43716 0.41595 0.0
H1971 H 0.50582 0.47072 0.4495 0.0
H1972 H 0.55299 0.4453 0.5173 0.0
H1973 H 0.55237 0.3997 0.50138 0.0
C1974 C 0.52825 0.38144 0.45676 0.0
C1975 C 0.51554 0.375 0.43241 0.0
C1976 C 0.52866 0.40813 0.46612 0.0
C1977 C 0.50264 0.39573 0.41823 0.0
C1978 C 0.50248 0.42195 0.42764 0.0
C1979 C 0.51624 0.4553 0.46066 0.0
C1980 C 0.52962 0.46197 0.48461 0.0
C1981 C 0.51571 0.42861 0.45141 0.0
C1982 C 0.54261 0.44123 0.49877 0.0
C1983 C 0.54217 0.41487 0.48972 0.0
H1984 H 0.48068 0.77399 0.19914 0.0
H1985 H 0.52053 0.79412 0.27262 0.0
H1986 H 0.47537 0.79404 0.29711 0.0
H1987 H 0.42385 0.79207 0.29606 0.0
H1988 H 0.38602 0.7721 0.22108 0.0
H1989 H 0.43118 0.76834 0.19878 0.0
C1990 C 0.47953 0.7782 0.22059 0.0
C1991 C 0.5036 0.78447 0.23405 0.0
C1992 C 0.45384 0.77838 0.23418 0.0
C1993 C 0.50208 0.7893 0.2619 0.0
C1994 C 0.4763 0.78942 0.2758 0.0
C1995 C 0.42561 0.78671 0.27493 0.0
C1996 C 0.40155 0.78287 0.26021 0.0
C1997 C 0.45191 0.78461 0.26194 0.0
C1998 C 0.4041 0.77563 0.23287 0.0
C1999 C 0.42995 0.77337 0.22002 0.0
H2000 H 0.01176 0.67374 0.92297 0.0
H2001 H 0.03298 0.71537 -0.0049 0.0
H2002 H 0.03451 0.67356 0.01972 0.0
H2003 H 0.03021 0.62466 0.02111 0.0
H2004 H 0.00755 0.58318 0.94936 0.0
H2005 H 0.00631 0.62494 0.92464 0.0
C2006 C 0.01667 0.67375 0.9441 0.0
C2007 C 0.02227 0.69806 0.95697 0.0
C2008 C 0.01729 0.64939 0.95839 0.0
C2009 C 0.0285 0.69728 0.98447 0.0
C2010 C 0.02944 0.67323 -0.00135 0.0
C2011 C 0.0249 0.6247 8e-05 0.0
C2012 C 0.01887 0.60044 0.98732 0.0
C2013 C 0.02392 0.64908 0.98588 0.0
C2014 C 0.01207 0.60127 0.95997 0.0
C2015 C 0.01143 0.62528 0.94571 0.0
H2016 H 0.07134 0.27131 0.70167 0.0
H2017 H 0.12229 0.31501 0.64493 0.0
H2018 H 0.16202 0.30961 0.67423 0.0
H2019 H 0.18032 0.29588 0.71766 0.0
H2020 H 0.12857 0.2527 0.7741 0.0
H2021 H 0.09054 0.25448 0.74281 0.0
C2022 C 0.09116 0.27955 0.69551 0.0
C2023 C 0.09391 0.29384 0.67138 0.0
C2024 C 0.1135 0.27651 0.71236 0.0
C2025 C 0.11976 0.30406 0.66353 0.0
C2026 C 0.14235 0.30101 0.68026 0.0
C2027 C 0.16099 0.28627 0.72286 0.0
C2028 C 0.15712 0.2742 0.74819 0.0
C2029 C 0.13924 0.28769 0.70495 0.0
C2030 C 0.13178 0.26229 0.75483 0.0
C2031 C 0.11015 0.26331 0.73699 0.0
H2032 H 0.53023 0.73298 0.10226 0.0
H2033 H 0.60393 0.70786 0.14296 0.0
H2034 H 0.60939 0.66998 0.11285 0.0
H2035 H 0.5937 0.64415 0.07459 0.0
H2036 H 0.51877 0.66694 0.03548 0.0
H2037 H 0.5133 0.70581 0.06515 0.0
C2038 C 0.5474 0.71915 0.10463 0.0
C2039 C 0.56672 0.72339 0.12476 0.0
C2040 C 0.55034 0.6972 0.08734 0.0
C2041 C 0.58873 0.70513 0.12768 0.0
C2042 C 0.59198 0.68349 0.11037 0.0
C2043 C 0.57644 0.65792 0.07243 0.0
C2044 C 0.55697 0.65332 0.05269 0.0
C2045 C 0.57309 0.67949 0.09001 0.0
C2046 C 0.53411 0.67057 0.05043 0.0
C2047 C 0.53098 0.69259 0.06741 0.0
H2048 H 0.10122 0.75972 0.83715 0.0
H2049 H 0.1222 0.80642 0.9061 0.0
H2050 H 0.16851 0.81349 0.88654 0.0
H2051 H 0.20376 0.80604 0.85016 0.0
H2052 H 0.1846 0.75631 0.7829 0.0
H2053 H 0.13734 0.7509 0.80127 0.0
C2054 C 0.11593 0.77148 0.84784 0.0
C2055 C 0.10803 0.78257 0.87309 0.0
C2056 C 0.14303 0.77499 0.8367 0.0
C2057 C 0.12758 0.79753 0.88673 0.0
C2058 C 0.15415 0.80167 0.8755 0.0
C2059 C 0.18918 0.7942 0.8394 0.0
C2060 C 0.19775 0.78188 0.81496 0.0
C2061 C 0.16219 0.79049 0.85053 0.0
C2062 C 0.17863 0.76616 0.80164 0.0
C2063 C 0.15153 0.76302 0.81218 0.0
H2064 H 0.00091 0.39456 0.62545 0.0
H2065 H 0.99172 0.35302 0.55032 0.0
H2066 H 0.98759 0.39502 0.52665 0.0
H2067 H 0.99154 0.44291 0.52655 0.0
H2068 H 0.00384 0.48484 0.60092 0.0
H2069 H 0.00134 0.44321 0.62578 0.0
C2070 C -0.00242 0.39474 0.60397 0.0
C2071 C -0.00311 0.3708 0.58957 0.0
C2072 C 0.99594 0.41895 0.59037 0.0
C2073 C 0.99259 0.37124 0.56177 0.0
C2074 C 0.99023 0.39522 0.54822 0.0
C2075 C 0.99331 0.44307 0.54825 0.0
C2076 C -0.00183 0.46687 0.56184 0.0
C2077 C 0.99265 0.41912 0.56222 0.0
C2078 C 0.00023 0.46673 0.58998 0.0
C2079 C -0.00109 0.44294 0.60418 0.0
H2080 H 0.44425 0.30406 0.31561 0.0
H2081 H 0.42515 0.25824 0.38672 0.0
H2082 H 0.37859 0.25008 0.3703 0.0
H2083 H 0.34252 0.25709 0.33589 0.0
H2084 H 0.36269 0.30406 0.26576 0.0
H2085 H 0.40939 0.31032 0.28155 0.0
C2086 C 0.43004 0.29221 0.32765 0.0
C2087 C 0.43848 0.28188 0.35254 0.0
C2088 C 0.40329 0.28768 0.31812 0.0
C2089 C 0.41944 0.26657 0.36758 0.0
C2090 C 0.39274 0.26185 0.35814 0.0
C2091 C 0.35726 0.2684 0.32391 0.0
C2092 C 0.3489 0.27997 0.29949 0.0
C2093 C 0.38432 0.27239 0.33342 0.0
C2094 C 0.36833 0.29488 0.28453 0.0
C2095 C 0.39514 0.29855 0.2936 0.0
H2096 H 0.41823 0.54436 0.33142 0.0
H2097 H 0.49745 0.55961 0.29218 0.0
H2098 H 0.51782 0.56738 0.33581 0.0
H2099 H 0.51268 0.57115 0.38505 0.0
H2100 H 0.43472 0.55296 0.42462 0.0
H2101 H 0.414 0.54502 0.38088 0.0
C2102 C 0.43998 0.54928 0.33248 0.0
C2103 C 0.4563 0.55162 0.30871 0.0
C2104 C 0.45162 0.55333 0.3576 0.0
C2105 C 0.48452 0.55763 0.31027 0.0
C2106 C 0.49614 0.56221 0.33516 0.0
C2107 C 0.49114 0.56556 0.38389 0.0
C2108 C 0.47494 0.56301 0.40761 0.0
C2109 C 0.4798 0.56039 0.35889 0.0
C2110 C 0.44729 0.55513 0.40634 0.0
C2111 C 0.43557 0.55062 0.38146 0.0
H2112 H 0.29602 0.7177 0.0794 0.0
H2113 H 0.30621 0.64946 0.13051 0.0
H2114 H 0.31018 0.67826 0.16958 0.0
H2115 H 0.30762 0.72252 0.18959 0.0
H2116 H 0.29659 0.79073 0.13884 0.0
H2117 H 0.29585 0.76213 0.09917 0.0
C2118 C 0.29941 0.7091 0.09902 0.0
C2119 C 0.30066 0.68146 0.10202 0.0
C2120 C 0.30125 0.72573 0.12147 0.0
C2121 C 0.305 0.67067 0.12763 0.0
C2122 C 0.30725 0.68712 0.15001 0.0
C2123 C 0.30555 0.73118 0.16982 0.0
C2124 C 0.30209 0.7587 0.16715 0.0
C2125 C 0.30496 0.71463 0.14721 0.0
C2126 C 0.29891 0.76957 0.14142 0.0
C2127 C 0.29861 0.75325 0.11875 0.0
H2128 H 0.11545 0.51577 0.88518 0.0
H2129 H 0.07888 0.59429 0.88755 0.0
H2130 H 0.07704 0.59311 0.93681 0.0
H2131 H 0.07812 0.56682 0.97777 0.0
H2132 H 0.10422 0.48503 0.97376 0.0
H2133 H 0.12002 0.49073 0.9268 0.0
C2134 C 0.10753 0.53281 0.89651 0.0
C2135 C 0.09698 0.55497 0.88295 0.0
C2136 C 0.10536 0.53143 0.92456 0.0
C2137 C 0.08666 0.57688 0.89771 0.0
C2138 C 0.08582 0.57627 0.92578 0.0
C2139 C 0.08852 0.55066 0.96687 0.0
C2140 C 0.09049 0.52567 0.97893 0.0
C2141 C 0.0942 0.55329 0.9393 0.0
C2142 C 0.10316 0.50451 0.96478 0.0
C2143 C 0.11151 0.50767 0.93785 0.0
H2144 H 0.24531 0.34691 0.61431 0.0
H2145 H 0.31298 0.40067 0.62241 0.0
H2146 H 0.31824 0.3869 0.66911 0.0
H2147 H 0.30329 0.36001 0.70848 0.0
H2148 H 0.2334 0.30864 0.70142 0.0
H2149 H 0.22934 0.32103 0.65422 0.0
C2150 C 0.26134 0.35546 0.62623 0.0
C2151 C 0.27889 0.37471 0.61452 0.0
C2152 C 0.26379 0.34796 0.65361 0.0
C2153 C 0.2992 0.38582 0.63065 0.0
C2154 C 0.30222 0.37795 0.65749 0.0
C2155 C 0.28717 0.35149 0.69664 0.0
C2156 C 0.26876 0.33326 0.70881 0.0
C2157 C 0.28457 0.35912 0.66934 0.0
C2158 C 0.24789 0.32272 0.69292 0.0
C2159 C 0.24557 0.32977 0.66573 0.0
H2160 H 0.44831 0.59622 0.17866 0.0
H2161 H 0.37743 0.55537 0.14925 0.0
H2162 H 0.40401 0.54245 0.10855 0.0
H2163 H 0.44896 0.53849 0.08407 0.0
H2164 H 0.51946 0.58008 0.11305 0.0
H2165 H 0.49155 0.59667 0.15166 0.0
C2166 C 0.43854 0.58496 0.16306 0.0
C2167 C 0.41122 0.57637 0.16704 0.0
C2168 C 0.45405 0.57714 0.14013 0.0
C2169 C 0.39853 0.56213 0.14662 0.0
C2170 C 0.41379 0.55446 0.12352 0.0
C2171 C 0.45813 0.55107 0.09899 0.0
C2172 C 0.48622 0.55754 0.09643 0.0
C2173 C 0.44185 0.56099 0.12062 0.0
C2174 C 0.49789 0.57456 0.11513 0.0
C2175 C 0.48196 0.58414 0.13701 0.0
H2176 H 0.29266 0.72895 0.95239 0.0
H2177 H 0.27253 0.65462 0.91542 0.0
H2178 H 0.2767 0.67462 0.87092 0.0
H2179 H 0.28444 0.71343 0.84268 0.0
H2180 H 0.30427 0.78799 0.87941 0.0
H2181 H 0.30239 0.76749 0.92383 0.0
C2182 C 0.28909 0.71718 0.93459 0.0
C2183 C 0.28206 0.69045 0.93717 0.0
C2184 C 0.29176 0.72873 0.90903 0.0
C2185 C 0.27785 0.67531 0.91394 0.0
C2186 C 0.28031 0.68669 0.88848 0.0
C2187 C 0.28876 0.72513 0.86034 0.0
C2188 C 0.29442 0.75218 0.85775 0.0
C2189 C 0.28715 0.71338 0.88581 0.0
C2190 C 0.29984 0.76709 0.88087 0.0
C2191 C 0.29862 0.75544 0.90629 0.0
H2192 H 0.11544 0.52277 0.70178 0.0
H2193 H 0.04091 0.53864 0.74988 0.0
H2194 H 0.01811 0.55626 0.71016 0.0
H2195 H 0.01974 0.56689 0.66135 0.0
H2196 H 0.09492 0.55089 0.61464 0.0
H2197 H 0.11756 0.53416 0.65454 0.0
C2198 C 0.09414 0.52993 0.70366 0.0
C2199 C 0.07982 0.52929 0.72867 0.0
C2200 C 0.08154 0.54043 0.6811 0.0
C2201 C 0.05228 0.53876 0.73074 0.0
C2202 C 0.03934 0.54902 0.70812 0.0
C2203 C 0.04121 0.5602 0.66025 0.0
C2204 C 0.05586 0.56013 0.63539 0.0
C2205 C 0.05387 0.55011 0.68321 0.0
C2206 C 0.08348 0.55103 0.63376 0.0
C2207 C 0.09629 0.54136 0.65643 0.0
H2208 H 0.25898 0.39965 0.4106 0.0
H2209 H 0.27179 0.33224 0.46204 0.0
H2210 H 0.27006 0.30273 0.42277 0.0
H2211 H 0.26485 0.29605 0.37331 0.0
H2212 H 0.25367 0.36441 0.32269 0.0
H2213 H 0.25456 0.39329 0.36206 0.0
C2214 C 0.26143 0.37849 0.41344 0.0
C2215 C 0.26548 0.36838 0.43962 0.0
C2216 C 0.2605 0.36167 0.39074 0.0
C2217 C 0.26874 0.3408 0.44239 0.0
C2218 C 0.26764 0.32386 0.41984 0.0
C2219 C 0.26234 0.31726 0.37091 0.0
C2220 C 0.25887 0.32788 0.3448 0.0
C2221 C 0.26342 0.33404 0.39385 0.0
C2222 C 0.25618 0.35551 0.34229 0.0
C2223 C 0.25677 0.37212 0.36489 0.0
H2224 H 0.35944 0.45015 0.54777 0.0
H2225 H 0.34033 0.48961 0.47345 0.0
H2226 H 0.38378 0.51293 0.47413 0.0
H2227 H 0.42749 0.52263 0.49515 0.0
H2228 H 0.4484 0.4837 0.56905 0.0
H2229 H 0.40431 0.46022 0.56925 0.0
C2230 C 0.36487 0.46373 0.53168 0.0
C2231 C 0.34625 0.46795 0.51062 0.0
C2232 C 0.39028 0.47754 0.53216 0.0
C2233 C 0.35385 0.48585 0.49005 0.0
C2234 C 0.37885 0.49935 0.49037 0.0
C2235 C 0.42239 0.50922 0.51151 0.0
C2236 C 0.44135 0.50524 0.53217 0.0
C2237 C 0.39717 0.4955 0.51132 0.0
C2238 C 0.43425 0.48743 0.55295 0.0
C2239 C 0.40902 0.47384 0.553 0.0
H2240 H 0.85382 0.10724 0.47714 0.0
H2241 H 0.82513 0.032 0.50697 0.0
H2242 H 0.86645 0.01003 0.48721 0.0
H2243 H 0.91286 0.01335 0.46765 0.0
H2244 H 0.94494 0.08952 0.44454 0.0
H2245 H 0.89927 0.1099 0.4539 0.0
C2246 C 0.85646 0.08598 0.47903 0.0
C2247 C 0.83676 0.07124 0.49381 0.0
C2248 C 0.88062 0.0737 0.46845 0.0
C2249 C 0.84033 0.04376 0.4961 0.0
C2250 C 0.8638 0.03121 0.48464 0.0
C2251 C 0.90979 0.03431 0.4639 0.0
C2252 C 0.93236 0.05003 0.45588 0.0
C2253 C 0.88441 0.04613 0.47156 0.0
C2254 C 0.92789 0.07707 0.45088 0.0
C2255 C 0.90193 0.08875 0.45663 0.0
H2256 H 0.69866 0.07012 0.26064 0.0
H2257 H 0.62487 0.11199 0.28921 0.0
H2258 H 0.64706 0.15441 0.27978 0.0
H2259 H 0.6872 0.17931 0.26233 0.0
H2260 H 0.75921 0.13728 0.23003 0.0
H2261 H 0.73794 0.09493 0.24156 0.0
C2262 C 0.68766 0.0886 0.26508 0.0
C2263 C 0.66048 0.08821 0.27598 0.0
C2264 C 0.70008 0.11269 0.25858 0.0
C2265 C 0.64596 0.11206 0.28102 0.0
C2266 C 0.65857 0.1362 0.27555 0.0
C2267 C 0.69809 0.16079 0.25788 0.0
C2268 C 0.7246 0.16115 0.24545 0.0
C2269 C 0.68553 0.13671 0.26414 0.0
C2270 C 0.73862 0.13725 0.23937 0.0
C2271 C 0.72658 0.11316 0.24613 0.0
H2272 H 0.67005 0.91782 0.01209 0.0
H2273 H 0.70615 0.97841 0.06037 0.0
H2274 H 0.66243 0.00369 0.06096 0.0
H2275 H 0.61375 0.00893 0.04749 0.0
H2276 H 0.57879 0.95013 -0.00387 0.0
H2277 H 0.62196 0.92411 -0.00316 0.0
C2278 C 0.66827 0.93648 0.02286 0.0
C2279 C 0.69135 0.94604 0.03642 0.0
C2280 C 0.6432 0.95141 0.02239 0.0
C2281 C 0.68876 0.97052 0.04985 0.0
C2282 C 0.66373 0.98503 0.05017 0.0
C2283 C 0.6156 0.99046 0.03638 0.0
C2284 C 0.59289 0.98157 0.02179 0.0
C2285 C 0.64079 0.97575 0.03644 0.0
C2286 C 0.59586 0.95761 0.0074 0.0
C2287 C 0.62057 0.94261 0.00789 0.0
H2288 H 0.34937 0.47535 0.26356 0.0
H2289 H 0.39745 0.45886 0.19052 0.0
H2290 H 0.37264 0.41747 0.18474 0.0
H2291 H 0.33624 0.38666 0.20013 0.0
H2292 H 0.28992 0.40288 0.27399 0.0
H2293 H 0.31487 0.44414 0.27976 0.0
C2294 C 0.35449 0.46267 0.2464 0.0
C2295 C 0.37498 0.47013 0.22739 0.0
C2296 C 0.34027 0.43913 0.24327 0.0
C2297 C 0.38175 0.4534 0.20546 0.0
C2298 C 0.36747 0.42988 0.20205 0.0
C2299 C 0.33161 0.39949 0.21726 0.0
C2300 C 0.31127 0.39226 0.23649 0.0
C2301 C 0.34647 0.42274 0.22068 0.0
C2302 C 0.30557 0.40841 0.25903 0.0
C2303 C 0.31979 0.43183 0.2623 0.0
H2304 H 0.18481 0.65129 0.05468 0.0
H2305 H 0.22258 0.57529 0.03513 0.0
H2306 H 0.18316 0.55295 0.05623 0.0
H2307 H 0.13608 0.55506 0.07634 0.0
H2308 H 0.09668 0.63042 0.09285 0.0
H2309 H 0.13895 0.65326 0.07772 0.0
C2310 C 0.18444 0.62985 0.05513 0.0
C2311 C 0.20638 0.61496 0.04309 0.0
C2312 C 0.16165 0.61712 0.06716 0.0
C2313 C 0.20578 0.58719 0.04401 0.0
C2314 C 0.18334 0.57439 0.0562 0.0
C2315 C 0.13739 0.57644 0.07751 0.0
C2316 C 0.11399 0.59125 0.08616 0.0
C2317 C 0.16104 0.58916 0.06747 0.0
C2318 C 0.11498 0.6189 0.08683 0.0
C2319 C 0.13888 0.63182 0.07779 0.0
H2320 H 0.66618 0.90655 0.31638 0.0
H2321 H 0.73955 0.95422 0.31019 0.0
H2322 H 0.76869 0.91414 0.30874 0.0
H2323 H 0.77263 0.86606 0.30291 0.0
H2324 H 0.69869 0.81897 0.3052 0.0
H2325 H 0.67033 0.85854 0.31456 0.0
C2326 C 0.68858 0.90824 0.3152 0.0
C2327 C 0.70073 0.93325 0.31303 0.0
C2328 C 0.70501 0.88527 0.31328 0.0
C2329 C 0.72974 0.93513 0.31169 0.0
C2330 C 0.74637 0.91226 0.31071 0.0
C2331 C 0.75034 0.8644 0.30586 0.0
C2332 C 0.73769 0.83974 0.30304 0.0
C2333 C 0.73413 0.88727 0.31047 0.0
C2334 C 0.70884 0.83782 0.30697 0.0
C2335 C 0.69263 0.8604 0.31233 0.0
H2336 H 0.88424 0.11498 0.79765 0.0
H2337 H 0.82715 0.09438 0.73623 0.0
H2338 H 0.79888 0.13383 0.74708 0.0
H2339 H 0.79433 0.17689 0.76978 0.0
H2340 H 0.85144 0.19723 0.83139 0.0
H2341 H 0.87561 0.15477 0.82506 0.0
C2342 C 0.86534 0.11896 0.78699 0.0
C2343 C 0.85793 0.10229 0.76591 0.0
C2344 C 0.84937 0.14158 0.79325 0.0
C2345 C 0.83321 0.10715 0.75249 0.0
C2346 C 0.81717 0.12972 0.75857 0.0
C2347 C 0.81179 0.1718 0.78211 0.0
C2348 C 0.82149 0.19022 0.80062 0.0
C2349 C 0.82565 0.14751 0.77825 0.0
C2350 C 0.84376 0.18335 0.81687 0.0
C2351 C 0.85766 0.15917 0.81317 0.0
loop_
_geom_bond_atom_site_label_1
_geom_bond_atom_site_label_2
_geom_bond_distance
_geom_bond_site_symmetry_2
_ccdc_geom_bond_type
C0 O1 1.306 . S
C0 O3 1.160 . S
O1 C0 1.306 . S
O1 Cd2 2.228 1_655 S
Cd2 O1 2.228 1_455 S
Cd2 O6 2.273 . S
Cd2 O10 2.277 . S
O3 C0 1.160 . S
O3 Cd4 2.203 1_655 S
Cd4 O3 2.203 1_455 S
Cd4 O6 2.411 . S
Cd4 O7 2.333 . S
Cd4 O8 2.352 . S
Cd4 O12 2.277 . S
Cd4 O13 2.356 . S
C5 O10 1.209 . S
C5 O12 1.226 . S
O6 Cd2 2.273 . S
O6 Cd4 2.411 . S
O6 C9 1.320 . S
O7 Cd4 2.333 . S
O7 C9 1.214 . S
O8 Cd4 2.352 . S
O8 C11 1.258 . S
C9 O6 1.320 . S
C9 O7 1.214 . S
O10 Cd2 2.277 . S
O10 C5 1.209 . S
C11 O8 1.258 . S
C11 O13 1.282 . S
O12 Cd4 2.277 . S
O12 C5 1.226 . S
O13 Cd4 2.356 . S
O13 C11 1.282 . S
C14 O15 1.306 . S
C14 O17 1.160 . S
O15 C14 1.306 . S
O15 Cd16 2.228 . S
Cd16 O15 2.228 . S
Cd16 O20 2.273 . S
Cd16 O24 2.277 . S
O17 C14 1.160 . S
O17 Cd18 2.203 . S
Cd18 O17 2.203 . S
Cd18 O20 2.411 . S
Cd18 O21 2.333 . S
Cd18 O22 2.352 . S
Cd18 O26 2.277 . S
Cd18 O27 2.356 . S
C19 O24 1.209 . S
C19 O26 1.226 . S
O20 Cd16 2.273 . S
O20 Cd18 2.411 . S
O20 C23 1.320 . S
O21 Cd18 2.333 . S
O21 C23 1.214 . S
O22 Cd18 2.352 . S
O22 C25 1.258 . S
C23 O20 1.320 . S
C23 O21 1.214 . S
O24 Cd16 2.277 . S
O24 C19 1.209 . S
C25 O22 1.258 . S
C25 O27 1.282 . S
O26 Cd18 2.277 . S
O26 C19 1.226 . S
O27 Cd18 2.356 . S
O27 C25 1.282 . S
C28 O29 1.306 . S
C28 O31 1.160 . S
O29 C28 1.306 . S
O29 Cd30 2.228 . S
Cd30 O29 2.228 . S
Cd30 O34 2.273 . S
Cd30 O38 2.277 . S
O31 C28 1.160 . S
O31 Cd32 2.203 . S
Cd32 O31 2.203 . S
Cd32 O34 2.411 . S
Cd32 O35 2.333 . S
Cd32 O36 2.352 . S
Cd32 O40 2.277 . S
Cd32 O41 2.356 . S
C33 O38 1.209 . S
C33 O40 1.226 . S
O34 Cd30 2.273 . S
O34 Cd32 2.411 . S
O34 C37 1.320 . S
O35 Cd32 2.333 . S
O35 C37 1.214 . S
O36 Cd32 2.352 . S
O36 C39 1.258 . S
C37 O34 1.320 . S
C37 O35 1.214 . S
O38 Cd30 2.277 . S
O38 C33 1.209 . S
C39 O36 1.258 . S
C39 O41 1.282 . S
O40 Cd32 2.277 . S
O40 C33 1.226 . S
O41 Cd32 2.356 . S
O41 C39 1.282 . S
C42 O43 1.306 . S
C42 O45 1.160 . S
O43 C42 1.306 . S
O43 Cd44 2.228 . S
Cd44 O43 2.228 . S
Cd44 O48 2.273 . S
Cd44 O52 2.277 . S
O45 C42 1.160 . S
O45 Cd46 2.203 . S
Cd46 O45 2.203 . S
Cd46 O48 2.411 . S
Cd46 O49 2.333 . S
Cd46 O50 2.352 . S
Cd46 O54 2.277 . S
Cd46 O55 2.356 . S
C47 O52 1.209 . S
C47 O54 1.226 . S
O48 Cd44 2.273 . S
O48 Cd46 2.411 . S
O48 C51 1.320 . S
O49 Cd46 2.333 . S
O49 C51 1.214 . S
O50 Cd46 2.352 . S
O50 C53 1.258 . S
C51 O48 1.320 . S
C51 O49 1.214 . S
O52 Cd44 2.277 . S
O52 C47 1.209 . S
C53 O50 1.258 . S
C53 O55 1.282 . S
O54 Cd46 2.277 . S
O54 C47 1.226 . S
O55 Cd46 2.356 . S
O55 C53 1.282 . S
C56 O57 1.306 . S
C56 O59 1.160 . S
O57 C56 1.306 . S
O57 Cd58 2.228 . S
Cd58 O57 2.228 . S
Cd58 O62 2.273 . S
Cd58 O66 2.277 . S
O59 C56 1.160 . S
O59 Cd60 2.203 . S
Cd60 O59 2.203 . S
Cd60 O62 2.411 . S
Cd60 O63 2.333 . S
Cd60 O64 2.352 1_545 S
Cd60 O68 2.277 . S
Cd60 O69 2.356 1_545 S
C61 O66 1.209 . S
C61 O68 1.226 . S
O62 Cd58 2.273 . S
O62 Cd60 2.411 . S
O62 C65 1.320 . S
O63 Cd60 2.333 . S
O63 C65 1.214 . S
O64 Cd60 2.352 1_565 S
O64 C67 1.258 . S
C65 O62 1.320 . S
C65 O63 1.214 . S
O66 Cd58 2.277 . S
O66 C61 1.209 . S
C67 O64 1.258 . S
C67 O69 1.282 . S
O68 Cd60 2.277 . S
O68 C61 1.226 . S
O69 Cd60 2.356 1_565 S
O69 C67 1.282 . S
C70 O71 1.306 . S
C70 O73 1.160 . S
O71 C70 1.306 . S
O71 Cd72 2.228 . S
Cd72 O71 2.228 . S
Cd72 O76 2.273 . S
Cd72 O80 2.277 . S
O73 C70 1.160 . S
O73 Cd74 2.203 . S
Cd74 O73 2.203 . S
Cd74 O76 2.411 . S
Cd74 O77 2.333 . S
Cd74 O78 2.352 . S
Cd74 O82 2.277 . S
Cd74 O83 2.356 . S
C75 O80 1.209 . S
C75 O82 1.226 . S
O76 Cd72 2.273 . S
O76 Cd74 2.411 . S
O76 C79 1.320 . S
O77 Cd74 2.333 . S
O77 C79 1.214 . S
O78 Cd74 2.352 . S
O78 C81 1.258 . S
C79 O76 1.320 . S
C79 O77 1.214 . S
O80 Cd72 2.277 . S
O80 C75 1.209 . S
C81 O78 1.258 . S
C81 O83 1.282 . S
O82 Cd74 2.277 . S
O82 C75 1.226 . S
O83 Cd74 2.356 . S
O83 C81 1.282 . S
C84 O85 1.306 . S
C84 O87 1.160 . S
O85 C84 1.306 . S
O85 Cd86 2.228 . S
Cd86 O85 2.228 . S
Cd86 O90 2.273 . S
Cd86 O94 2.277 . S
O87 C84 1.160 . S
O87 Cd88 2.203 . S
Cd88 O87 2.203 . S
Cd88 O90 2.411 . S
Cd88 O91 2.333 . S
Cd88 O92 2.352 . S
Cd88 O96 2.277 . S
Cd88 O97 2.356 . S
C89 O94 1.209 . S
C89 O96 1.226 . S
O90 Cd86 2.273 . S
O90 Cd88 2.411 . S
O90 C93 1.320 . S
O91 Cd88 2.333 . S
O91 C93 1.214 . S
O92 Cd88 2.352 . S
O92 C95 1.258 . S
C93 O90 1.320 . S
C93 O91 1.214 . S
O94 Cd86 2.277 . S
O94 C89 1.209 . S
C95 O92 1.258 . S
C95 O97 1.282 . S
O96 Cd88 2.277 . S
O96 C89 1.226 . S
O97 Cd88 2.356 . S
O97 C95 1.282 . S
C98 O99 1.306 . S
C98 O101 1.160 . S
O99 C98 1.306 . S
O99 Cd100 2.228 . S
Cd100 O99 2.228 . S
Cd100 O104 2.273 . S
Cd100 O108 2.277 . S
O101 C98 1.160 . S
O101 Cd102 2.203 . S
Cd102 O101 2.203 . S
Cd102 O104 2.411 . S
Cd102 O105 2.333 . S
Cd102 O106 2.352 1_554 S
Cd102 O110 2.277 . S
Cd102 O111 2.356 1_554 S
C103 O108 1.209 . S
C103 O110 1.226 . S
O104 Cd100 2.273 . S
O104 Cd102 2.411 . S
O104 C107 1.320 . S
O105 Cd102 2.333 . S
O105 C107 1.214 . S
O106 Cd102 2.352 1_556 S
O106 C109 1.258 . S
C107 O104 1.320 . S
C107 O105 1.214 . S
O108 Cd100 2.277 . S
O108 C103 1.209 . S
C109 O106 1.258 . S
C109 O111 1.282 . S
O110 Cd102 2.277 . S
O110 C103 1.226 . S
O111 Cd102 2.356 1_556 S
O111 C109 1.282 . S
C112 O113 1.306 . S
C112 O115 1.160 . S
O113 C112 1.306 . S
O113 Cd114 2.228 . S
Cd114 O113 2.228 . S
Cd114 O118 2.273 . S
Cd114 O122 2.277 . S
O115 C112 1.160 . S
O115 Cd116 2.203 . S
Cd116 O115 2.203 . S
Cd116 O118 2.411 . S
Cd116 O119 2.333 . S
Cd116 O120 2.352 . S
Cd116 O124 2.277 . S
Cd116 O125 2.356 . S
C117 O122 1.209 . S
C117 O124 1.226 . S
O118 Cd114 2.273 . S
O118 Cd116 2.411 . S
O118 C121 1.320 . S
O119 Cd116 2.333 . S
O119 C121 1.214 . S
O120 Cd116 2.352 . S
O120 C123 1.258 . S
C121 O118 1.320 . S
C121 O119 1.214 . S
O122 Cd114 2.277 . S
O122 C117 1.209 . S
C123 O120 1.258 . S
C123 O125 1.282 . S
O124 Cd116 2.277 . S
O124 C117 1.226 . S
O125 Cd116 2.356 . S
O125 C123 1.282 . S
C126 O127 1.306 . S
C126 O129 1.160 . S
O127 C126 1.306 . S
O127 Cd128 2.228 . S
Cd128 O127 2.228 . S
Cd128 O132 2.273 . S
Cd128 O136 2.277 . S
O129 C126 1.160 . S
O129 Cd130 2.203 . S
Cd130 O129 2.203 . S
Cd130 O132 2.411 . S
Cd130 O133 2.333 . S
Cd130 O134 2.352 . S
Cd130 O138 2.277 . S
Cd130 O139 2.356 . S
C131 O136 1.209 . S
C131 O138 1.226 . S
O132 Cd128 2.273 . S
O132 Cd130 2.411 . S
O132 C135 1.320 . S
O133 Cd130 2.333 . S
O133 C135 1.214 . S
O134 Cd130 2.352 . S
O134 C137 1.258 . S
C135 O132 1.320 . S
C135 O133 1.214 . S
O136 Cd128 2.277 . S
O136 C131 1.209 . S
C137 O134 1.258 . S
C137 O139 1.282 . S
O138 Cd130 2.277 . S
O138 C131 1.226 . S
O139 Cd130 2.356 . S
O139 C137 1.282 . S
C140 O141 1.306 . S
C140 O143 1.160 . S
O141 C140 1.306 . S
O141 Cd142 2.228 . S
Cd142 O141 2.228 . S
Cd142 O146 2.273 . S
Cd142 O150 2.277 . S
O143 C140 1.160 . S
O143 Cd144 2.203 . S
Cd144 O143 2.203 . S
Cd144 O146 2.411 . S
Cd144 O147 2.333 . S
Cd144 O148 2.352 . S
Cd144 O152 2.277 . S
Cd144 O153 2.356 . S
C145 O150 1.209 . S
C145 O152 1.226 . S
O146 Cd142 2.273 . S
O146 Cd144 2.411 . S
O146 C149 1.320 . S
O147 Cd144 2.333 . S
O147 C149 1.214 . S
O148 Cd144 2.352 . S
O148 C151 1.258 . S
C149 O146 1.320 . S
C149 O147 1.214 . S
O150 Cd142 2.277 . S
O150 C145 1.209 . S
C151 O148 1.258 . S
C151 O153 1.282 . S
O152 Cd144 2.277 . S
O152 C145 1.226 . S
O153 Cd144 2.356 . S
O153 C151 1.282 . S
C154 O155 1.306 . S
C154 O157 1.160 . S
O155 C154 1.306 . S
O155 Cd156 2.228 . S
Cd156 O155 2.228 . S
Cd156 O160 2.273 . S
Cd156 O164 2.277 . S
O157 C154 1.160 . S
O157 Cd158 2.203 . S
Cd158 O157 2.203 . S
Cd158 O160 2.411 . S
Cd158 O161 2.333 . S
Cd158 O162 2.352 . S
Cd158 O166 2.277 . S
Cd158 O167 2.356 . S
C159 O164 1.209 . S
C159 O166 1.226 . S
O160 Cd156 2.273 . S
O160 Cd158 2.411 . S
O160 C163 1.320 . S
O161 Cd158 2.333 . S
O161 C163 1.214 . S
O162 Cd158 2.352 . S
O162 C165 1.258 . S
C163 O160 1.320 . S
C163 O161 1.214 . S
O164 Cd156 2.277 . S
O164 C159 1.209 . S
C165 O162 1.258 . S
C165 O167 1.282 . S
O166 Cd158 2.277 . S
O166 C159 1.226 . S
O167 Cd158 2.356 . S
O167 C165 1.282 . S
C168 O169 1.306 . S
C168 O171 1.160 . S
O169 C168 1.306 . S
O169 Cd170 2.228 1_655 S
Cd170 O169 2.228 1_455 S
Cd170 O174 2.273 . S
Cd170 O178 2.277 . S
O171 C168 1.160 . S
O171 Cd172 2.203 1_655 S
Cd172 O171 2.203 1_455 S
Cd172 O174 2.411 . S
Cd172 O175 2.333 . S
Cd172 O176 2.352 . S
Cd172 O180 2.277 . S
Cd172 O181 2.356 . S
C173 O178 1.209 . S
C173 O180 1.226 . S
O174 Cd170 2.273 . S
O174 Cd172 2.411 . S
O174 C177 1.320 . S
O175 Cd172 2.333 . S
O175 C177 1.214 . S
O176 Cd172 2.352 . S
O176 C179 1.258 . S
C177 O174 1.320 . S
C177 O175 1.214 . S
O178 Cd170 2.277 . S
O178 C173 1.209 . S
C179 O176 1.258 . S
C179 O181 1.282 . S
O180 Cd172 2.277 . S
O180 C173 1.226 . S
O181 Cd172 2.356 . S
O181 C179 1.282 . S
C182 O183 1.306 . S
C182 O185 1.160 . S
O183 C182 1.306 . S
O183 Cd184 2.228 1_655 S
Cd184 O183 2.228 1_455 S
Cd184 O188 2.273 . S
Cd184 O192 2.277 . S
O185 C182 1.160 . S
O185 Cd186 2.203 1_655 S
Cd186 O185 2.203 1_455 S
Cd186 O188 2.411 . S
Cd186 O189 2.333 . S
Cd186 O190 2.352 1_455 S
Cd186 O194 2.277 . S
Cd186 O195 2.356 . S
C187 O192 1.209 . S
C187 O194 1.226 . S
O188 Cd184 2.273 . S
O188 Cd186 2.411 . S
O188 C191 1.320 . S
O189 Cd186 2.333 . S
O189 C191 1.214 . S
O190 Cd186 2.352 1_655 S
O190 C193 1.258 1_655 S
C191 O188 1.320 . S
C191 O189 1.214 . S
O192 Cd184 2.277 . S
O192 C187 1.209 . S
C193 O190 1.258 1_455 S
C193 O195 1.282 . S
O194 Cd186 2.277 . S
O194 C187 1.226 . S
O195 Cd186 2.356 . S
O195 C193 1.282 . S
C196 O197 1.306 . S
C196 O199 1.160 . S
O197 C196 1.306 . S
O197 Cd198 2.228 . S
Cd198 O197 2.228 . S
Cd198 O202 2.273 . S
Cd198 O206 2.277 . S
O199 C196 1.160 . S
O199 Cd200 2.203 . S
Cd200 O199 2.203 . S
Cd200 O202 2.411 . S
Cd200 O203 2.333 . S
Cd200 O204 2.352 . S
Cd200 O208 2.277 . S
Cd200 O209 2.356 . S
C201 O206 1.209 . S
C201 O208 1.226 . S
O202 Cd198 2.273 . S
O202 Cd200 2.411 . S
O202 C205 1.320 . S
O203 Cd200 2.333 . S
O203 C205 1.214 . S
O204 Cd200 2.352 . S
O204 C207 1.258 . S
C205 O202 1.320 . S
C205 O203 1.214 . S
O206 Cd198 2.277 . S
O206 C201 1.209 . S
C207 O204 1.258 . S
C207 O209 1.282 . S
O208 Cd200 2.277 . S
O208 C201 1.226 . S
O209 Cd200 2.356 . S
O209 C207 1.282 . S
C210 O211 1.306 . S
C210 O213 1.160 . S
O211 C210 1.306 . S
O211 Cd212 2.228 . S
Cd212 O211 2.228 . S
Cd212 O216 2.273 . S
Cd212 O220 2.277 . S
O213 C210 1.160 . S
O213 Cd214 2.203 . S
Cd214 O213 2.203 . S
Cd214 O216 2.411 . S
Cd214 O217 2.333 . S
Cd214 O218 2.352 . S
Cd214 O222 2.277 . S
Cd214 O223 2.356 . S
C215 O220 1.209 . S
C215 O222 1.226 . S
O216 Cd212 2.273 . S
O216 Cd214 2.411 . S
O216 C219 1.320 . S
O217 Cd214 2.333 . S
O217 C219 1.214 . S
O218 Cd214 2.352 . S
O218 C221 1.258 . S
C219 O216 1.320 . S
C219 O217 1.214 . S
O220 Cd212 2.277 . S
O220 C215 1.209 . S
C221 O218 1.258 . S
C221 O223 1.282 . S
O222 Cd214 2.277 . S
O222 C215 1.226 . S
O223 Cd214 2.356 . S
O223 C221 1.282 . S
C224 O225 1.306 . S
C224 O227 1.160 . S
O225 C224 1.306 . S
O225 Cd226 2.228 . S
Cd226 O225 2.228 . S
Cd226 O230 2.273 . S
Cd226 O234 2.277 . S
O227 C224 1.160 . S
O227 Cd228 2.203 . S
Cd228 O227 2.203 . S
Cd228 O230 2.411 . S
Cd228 O231 2.333 . S
Cd228 O232 2.352 . S
Cd228 O236 2.277 . S
Cd228 O237 2.356 . S
C229 O234 1.209 . S
C229 O236 1.226 . S
O230 Cd226 2.273 . S
O230 Cd228 2.411 . S
O230 C233 1.320 . S
O231 Cd228 2.333 . S
O231 C233 1.214 . S
O232 Cd228 2.352 . S
O232 C235 1.258 . S
C233 O230 1.320 . S
C233 O231 1.214 . S
O234 Cd226 2.277 . S
O234 C229 1.209 . S
C235 O232 1.258 . S
C235 O237 1.282 . S
O236 Cd228 2.277 . S
O236 C229 1.226 . S
O237 Cd228 2.356 . S
O237 C235 1.282 . S
C238 O239 1.306 . S
C238 O241 1.160 . S
O239 C238 1.306 . S
O239 Cd240 2.228 . S
Cd240 O239 2.228 . S
Cd240 O244 2.273 . S
Cd240 O248 2.277 . S
O241 C238 1.160 . S
O241 Cd242 2.203 . S
Cd242 O241 2.203 . S
Cd242 O244 2.411 . S
Cd242 O245 2.333 . S
Cd242 O246 2.352 . S
Cd242 O250 2.277 . S
Cd242 O251 2.356 . S
C243 O248 1.209 . S
C243 O250 1.226 . S
O244 Cd240 2.273 . S
O244 Cd242 2.411 . S
O244 C247 1.320 . S
O245 Cd242 2.333 . S
O245 C247 1.214 . S
O246 Cd242 2.352 . S
O246 C249 1.258 . S
C247 O244 1.320 . S
C247 O245 1.214 . S
O248 Cd240 2.277 . S
O248 C243 1.209 . S
C249 O246 1.258 . S
C249 O251 1.282 . S
O250 Cd242 2.277 . S
O250 C243 1.226 . S
O251 Cd242 2.356 . S
O251 C249 1.282 . S
C252 O253 1.306 . S
C252 O255 1.160 . S
O253 C252 1.306 . S
O253 Cd254 2.228 . S
Cd254 O253 2.228 . S
Cd254 O258 2.273 . S
Cd254 O262 2.277 . S
O255 C252 1.160 . S
O255 Cd256 2.203 . S
Cd256 O255 2.203 . S
Cd256 O258 2.411 . S
Cd256 O259 2.333 . S
Cd256 O260 2.352 1_545 S
Cd256 O264 2.277 . S
Cd256 O265 2.356 1_545 S
C257 O262 1.209 . S
C257 O264 1.226 . S
O258 Cd254 2.273 . S
O258 Cd256 2.411 . S
O258 C261 1.320 . S
O259 Cd256 2.333 . S
O259 C261 1.214 . S
O260 Cd256 2.352 1_565 S
O260 C263 1.258 . S
C261 O258 1.320 . S
C261 O259 1.214 . S
O262 Cd254 2.277 . S
O262 C257 1.209 . S
C263 O260 1.258 . S
C263 O265 1.282 . S
O264 Cd256 2.277 . S
O264 C257 1.226 . S
O265 Cd256 2.356 1_565 S
O265 C263 1.282 . S
C266 O267 1.306 . S
C266 O269 1.160 . S
O267 C266 1.306 . S
O267 Cd268 2.228 1_554 S
Cd268 O267 2.228 1_556 S
Cd268 O272 2.273 1_556 S
Cd268 O276 2.277 . S
O269 C266 1.160 . S
O269 Cd270 2.203 . S
Cd270 O269 2.203 . S
Cd270 O272 2.411 . S
Cd270 O273 2.333 . S
Cd270 O274 2.352 . S
Cd270 O278 2.277 1_554 S
Cd270 O279 2.356 . S
C271 O276 1.209 . S
C271 O278 1.226 . S
O272 Cd268 2.273 1_554 S
O272 Cd270 2.411 . S
O272 C275 1.320 . S
O273 Cd270 2.333 . S
O273 C275 1.214 . S
O274 Cd270 2.352 . S
O274 C277 1.258 . S
C275 O272 1.320 . S
C275 O273 1.214 . S
O276 Cd268 2.277 . S
O276 C271 1.209 . S
C277 O274 1.258 . S
C277 O279 1.282 . S
O278 Cd270 2.277 1_556 S
O278 C271 1.226 . S
O279 Cd270 2.356 . S
O279 C277 1.282 . S
C280 O281 1.306 . S
C280 O283 1.160 1_554 S
O281 C280 1.306 . S
O281 Cd282 2.228 . S
Cd282 O281 2.228 . S
Cd282 O286 2.273 . S
Cd282 O290 2.277 . S
O283 C280 1.160 1_556 S
O283 Cd284 2.203 . S
Cd284 O283 2.203 . S
Cd284 O286 2.411 1_556 S
Cd284 O287 2.333 . S
Cd284 O288 2.352 . S
Cd284 O292 2.277 1_556 S
Cd284 O293 2.356 . S
C285 O290 1.209 . S
C285 O292 1.226 . S
O286 Cd282 2.273 . S
O286 Cd284 2.411 1_554 S
O286 C289 1.324 . S
O287 Cd284 2.333 . S
O287 C289 1.209 1_556 S
O288 Cd284 2.352 . S
O288 C291 1.258 . S
C289 O286 1.324 . S
C289 O287 1.209 1_554 S
O290 Cd282 2.277 . S
O290 C285 1.209 . S
C291 O288 1.258 . S
C291 O293 1.282 . S
O292 Cd284 2.277 1_554 S
O292 C285 1.226 . S
O293 Cd284 2.356 . S
O293 C291 1.282 . S
C294 O295 1.306 . S
C294 O297 1.160 . S
O295 C294 1.306 . S
O295 Cd296 2.228 . S
Cd296 O295 2.228 . S
Cd296 O300 2.273 . S
Cd296 O304 2.277 . S
O297 C294 1.160 . S
O297 Cd298 2.203 . S
Cd298 O297 2.203 . S
Cd298 O300 2.411 . S
Cd298 O301 2.333 . S
Cd298 O302 2.352 . S
Cd298 O306 2.277 . S
Cd298 O307 2.356 . S
C299 O304 1.209 . S
C299 O306 1.226 . S
O300 Cd296 2.273 . S
O300 Cd298 2.411 . S
O300 C303 1.320 . S
O301 Cd298 2.333 . S
O301 C303 1.214 . S
O302 Cd298 2.352 . S
O302 C305 1.258 . S
C303 O300 1.320 . S
C303 O301 1.214 . S
O304 Cd296 2.277 . S
O304 C299 1.209 . S
C305 O302 1.258 . S
C305 O307 1.282 . S
O306 Cd298 2.277 . S
O306 C299 1.226 . S
O307 Cd298 2.356 . S
O307 C305 1.282 . S
C308 O309 1.306 . S
C308 O311 1.160 . S
O309 C308 1.306 . S
O309 Cd310 2.228 . S
Cd310 O309 2.228 . S
Cd310 O314 2.273 . S
Cd310 O318 2.277 . S
O311 C308 1.160 . S
O311 Cd312 2.203 . S
Cd312 O311 2.203 . S
Cd312 O314 2.411 . S
Cd312 O315 2.333 . S
Cd312 O316 2.352 . S
Cd312 O320 2.277 . S
Cd312 O321 2.356 . S
C313 O318 1.209 . S
C313 O320 1.226 . S
O314 Cd310 2.273 . S
O314 Cd312 2.411 . S
O314 C317 1.320 . S
O315 Cd312 2.333 . S
O315 C317 1.214 . S
O316 Cd312 2.352 . S
O316 C319 1.258 . S
C317 O314 1.320 . S
C317 O315 1.214 . S
O318 Cd310 2.277 . S
O318 C313 1.209 . S
C319 O316 1.258 . S
C319 O321 1.282 . S
O320 Cd312 2.277 . S
O320 C313 1.226 . S
O321 Cd312 2.356 . S
O321 C319 1.282 . S
C322 O323 1.306 . S
C322 O325 1.160 . S
O323 C322 1.306 . S
O323 Cd324 2.228 . S
Cd324 O323 2.228 . S
Cd324 O328 2.273 . S
Cd324 O332 2.277 . S
O325 C322 1.160 . S
O325 Cd326 2.203 . S
Cd326 O325 2.203 . S
Cd326 O328 2.411 . S
Cd326 O329 2.333 . S
Cd326 O330 2.352 . S
Cd326 O334 2.277 . S
Cd326 O335 2.356 . S
C327 O332 1.209 . S
C327 O334 1.226 . S
O328 Cd324 2.273 . S
O328 Cd326 2.411 . S
O328 C331 1.320 . S
O329 Cd326 2.333 . S
O329 C331 1.214 . S
O330 Cd326 2.352 . S
O330 C333 1.258 . S
C331 O328 1.320 . S
C331 O329 1.214 . S
O332 Cd324 2.277 . S
O332 C327 1.209 . S
C333 O330 1.258 . S
C333 O335 1.282 . S
O334 Cd326 2.277 . S
O334 C327 1.226 . S
O335 Cd326 2.356 . S
O335 C333 1.282 . S
Co336 N341 2.057 1_554 S
Co336 O353 2.021 1_554 S
Co336 O356 2.062 1_455 S
Co336 O360 2.117 . S
Co336 O361 2.020 . S
C337 O357 1.259 . S
C337 O360 1.258 . S
Co338 N347 2.057 . S
Co338 O354 2.117 1_545 S
Co338 O355 2.020 1_455 S
Co338 O357 2.021 . S
Co338 O362 2.062 . S
C339 N341 1.316 . S
C339 N342 1.347 1_455 S
C339 H344 0.931 . S
C340 N341 1.369 1_655 S
C340 C343 1.359 . S
C340 H345 0.927 1_655 S
N341 Co336 2.057 1_556 S
N341 C339 1.316 . S
N341 C340 1.369 1_455 S
N342 C339 1.347 1_655 S
N342 C343 1.373 . S
C343 C340 1.359 . S
C343 N342 1.373 . S
C343 H364 0.931 . S
H344 C339 0.931 . S
H345 C340 0.927 1_455 S
C346 O353 1.259 1_564 S
C346 O354 1.258 . S
N347 Co338 2.057 . S
N347 C348 1.316 . S
N347 C349 1.375 1_545 S
C348 N347 1.316 . S
C348 N350 1.347 . S
C348 H359 0.931 . S
C349 N347 1.375 1_565 S
C349 C351 1.350 . S
C349 H358 0.930 . S
N350 C348 1.347 . S
N350 C351 1.373 1_545 S
C351 C349 1.350 . S
C351 N350 1.373 1_565 S
C351 H365 0.931 . S
C352 O355 1.256 . S
C352 O356 1.255 . S
O353 Co336 2.021 1_556 S
O353 C346 1.259 1_546 S
O354 Co338 2.117 1_565 S
O354 C346 1.258 . S
O355 Co338 2.020 1_655 S
O355 C352 1.256 . S
O356 Co336 2.062 1_655 S
O356 C352 1.255 . S
O357 C337 1.259 . S
O357 Co338 2.021 . S
H358 C349 0.930 . S
H359 C348 0.931 . S
O360 Co336 2.117 . S
O360 C337 1.258 . S
O361 Co336 2.020 . S
O361 C363 1.256 . S
O362 Co338 2.062 . S
O362 C363 1.255 . S
C363 O361 1.256 . S
C363 O362 1.255 . S
H364 C343 0.931 . S
H365 C351 0.931 . S
Co366 N371 2.057 . S
Co366 O383 2.021 . S
Co366 O386 2.062 . S
Co366 O390 2.117 . S
Co366 O391 2.020 . S
C367 O387 1.259 . S
C367 O390 1.258 . S
Co368 N377 2.057 . S
Co368 O384 2.117 . S
Co368 O385 2.020 . S
Co368 O387 2.021 . S
Co368 O392 2.062 . S
C369 N371 1.316 . S
C369 N372 1.347 . S
C369 H374 0.931 . S
C370 N371 1.375 . S
C370 C373 1.350 . S
C370 H375 0.930 . S
N371 Co366 2.057 . S
N371 C369 1.316 . S
N371 C370 1.375 . S
N372 C369 1.347 . S
N372 C373 1.373 . S
C373 C370 1.350 . S
C373 N372 1.373 . S
C373 H394 0.931 . S
H374 C369 0.931 . S
H375 C370 0.930 . S
C376 O383 1.259 . S
C376 O384 1.258 . S
N377 Co368 2.057 . S
N377 C378 1.316 . S
N377 C379 1.375 . S
C378 N377 1.316 . S
C378 N380 1.347 . S
C378 H389 0.931 . S
C379 N377 1.375 . S
C379 C381 1.350 . S
C379 H388 0.930 . S
N380 C378 1.347 . S
N380 C381 1.373 . S
C381 C379 1.350 . S
C381 N380 1.373 . S
C381 H395 0.931 . S
C382 O385 1.256 . S
C382 O386 1.255 . S
O383 Co366 2.021 . S
O383 C376 1.259 . S
O384 Co368 2.117 . S
O384 C376 1.258 . S
O385 Co368 2.020 . S
O385 C382 1.256 . S
O386 Co366 2.062 . S
O386 C382 1.255 . S
O387 C367 1.259 . S
O387 Co368 2.021 . S
H388 C379 0.930 . S
H389 C378 0.931 . S
O390 Co366 2.117 . S
O390 C367 1.258 . S
O391 Co366 2.020 . S
O391 C393 1.256 . S
O392 Co368 2.062 . S
O392 C393 1.255 . S
C393 O391 1.256 . S
C393 O392 1.255 . S
H394 C373 0.931 . S
H395 C381 0.931 . S
Co396 N401 2.057 . S
Co396 O413 2.021 1_545 S
Co396 O416 2.062 . S
Co396 O420 2.117 . S
Co396 O421 2.020 . S
C397 O417 1.259 . S
C397 O420 1.258 . S
Co398 N407 2.057 . S
Co398 O414 2.117 . S
Co398 O415 2.020 . S
Co398 O417 2.021 . S
Co398 O422 2.062 . S
C399 N401 1.316 1_565 S
C399 N402 1.347 1_565 S
C399 H404 0.931 . S
C400 N401 1.375 . S
C400 C403 1.350 . S
C400 H405 0.930 . S
N401 Co396 2.057 . S
N401 C399 1.316 1_545 S
N401 C400 1.375 . S
N402 C399 1.347 1_545 S
N402 C403 1.373 . S
C403 C400 1.350 . S
C403 N402 1.373 . S
C403 H424 0.931 . S
H404 C399 0.931 . S
H405 C400 0.930 . S
C406 O413 1.259 . S
C406 O414 1.258 1_565 S
N407 Co398 2.057 . S
N407 C408 1.316 . S
N407 C409 1.375 . S
C408 N407 1.316 . S
C408 N410 1.347 . S
C408 H419 0.931 . S
C409 N407 1.375 . S
C409 C411 1.350 . S
C409 H418 0.930 . S
N410 C408 1.347 . S
N410 C411 1.373 . S
C411 C409 1.350 . S
C411 N410 1.373 . S
C411 H425 0.931 . S
C412 O415 1.256 . S
C412 O416 1.255 . S
O413 Co396 2.021 1_565 S
O413 C406 1.259 . S
O414 Co398 2.117 . S
O414 C406 1.258 1_545 S
O415 Co398 2.020 . S
O415 C412 1.256 . S
O416 Co396 2.062 . S
O416 C412 1.255 . S
O417 C397 1.259 . S
O417 Co398 2.021 . S
H418 C409 0.930 . S
H419 C408 0.931 . S
O420 Co396 2.117 . S
O420 C397 1.258 . S
O421 Co396 2.020 . S
O421 C423 1.256 . S
O422 Co398 2.062 . S
O422 C423 1.255 . S
C423 O421 1.256 . S
C423 O422 1.255 . S
H424 C403 0.931 . S
H425 C411 0.931 . S
Co426 N431 2.057 . S
Co426 O443 2.021 . S
Co426 O446 2.062 . S
Co426 O450 2.117 . S
Co426 O451 2.020 . S
C427 O447 1.259 . S
C427 O450 1.258 . S
Co428 N437 2.057 . S
Co428 O444 2.117 . S
Co428 O445 2.020 . S
Co428 O447 2.021 . S
Co428 O452 2.062 . S
C429 N431 1.316 . S
C429 N432 1.347 . S
C429 H434 0.931 . S
C430 N431 1.375 . S
C430 C433 1.350 . S
C430 H435 0.930 . S
N431 Co426 2.057 . S
N431 C429 1.316 . S
N431 C430 1.375 . S
N432 C429 1.347 . S
N432 C433 1.373 . S
C433 C430 1.350 . S
C433 N432 1.373 . S
C433 H454 0.931 . S
H434 C429 0.931 . S
H435 C430 0.930 . S
C436 O443 1.259 . S
C436 O444 1.258 . S
N437 Co428 2.057 . S
N437 C438 1.316 . S
N437 C439 1.375 . S
C438 N437 1.316 . S
C438 N440 1.347 . S
C438 H449 0.931 . S
C439 N437 1.375 . S
C439 C441 1.350 . S
C439 H448 0.930 . S
N440 C438 1.347 . S
N440 C441 1.373 . S
C441 C439 1.350 . S
C441 N440 1.373 . S
C441 H455 0.931 . S
C442 O445 1.256 . S
C442 O446 1.255 . S
O443 Co426 2.021 . S
O443 C436 1.259 . S
O444 Co428 2.117 . S
O444 C436 1.258 . S
O445 Co428 2.020 . S
O445 C442 1.256 . S
O446 Co426 2.062 . S
O446 C442 1.255 . S
O447 C427 1.259 . S
O447 Co428 2.021 . S
H448 C439 0.930 . S
H449 C438 0.931 . S
O450 Co426 2.117 . S
O450 C427 1.258 . S
O451 Co426 2.020 . S
O451 C453 1.256 . S
O452 Co428 2.062 . S
O452 C453 1.255 . S
C453 O451 1.256 . S
C453 O452 1.255 . S
H454 C433 0.931 . S
H455 C441 0.931 . S
Co456 N461 2.057 1_545 S
Co456 O473 2.021 . S
Co456 O476 2.062 1_545 S
Co456 O480 2.117 . S
Co456 O481 2.020 1_455 S
C457 O477 1.259 . S
C457 O480 1.258 . S
Co458 N467 2.057 . S
Co458 O474 2.117 . S
Co458 O475 2.020 . S
Co458 O477 2.021 . S
Co458 O482 2.062 1_455 S
C459 N461 1.316 . S
C459 N462 1.347 . S
C459 H464 0.931 . S
C460 N461 1.375 1_655 S
C460 C463 1.350 . S
C460 H465 0.930 . S
N461 Co456 2.057 1_565 S
N461 C459 1.316 . S
N461 C460 1.375 1_455 S
N462 C459 1.347 . S
N462 C463 1.373 1_455 S
C463 C460 1.350 . S
C463 N462 1.373 1_655 S
C463 H484 0.931 . S
H464 C459 0.931 . S
H465 C460 0.930 . S
C466 O473 1.259 . S
C466 O474 1.258 . S
N467 Co458 2.057 . S
N467 C468 1.316 . S
N467 C469 1.375 . S
C468 N467 1.316 . S
C468 N470 1.347 . S
C468 H479 0.931 . S
C469 N467 1.375 . S
C469 C471 1.350 . S
C469 H478 0.930 . S
N470 C468 1.347 . S
N470 C471 1.373 . S
C471 C469 1.350 . S
C471 N470 1.373 . S
C471 H485 0.931 . S
C472 O475 1.256 . S
C472 O476 1.255 1_545 S
O473 Co456 2.021 . S
O473 C466 1.259 . S
O474 Co458 2.117 . S
O474 C466 1.258 . S
O475 Co458 2.020 . S
O475 C472 1.256 . S
O476 Co456 2.062 1_565 S
O476 C472 1.255 1_565 S
O477 C457 1.259 . S
O477 Co458 2.021 . S
H478 C469 0.930 . S
H479 C468 0.931 . S
O480 Co456 2.117 . S
O480 C457 1.258 . S
O481 Co456 2.020 1_655 S
O481 C483 1.256 . S
O482 Co458 2.062 1_655 S
O482 C483 1.255 . S
C483 O481 1.256 . S
C483 O482 1.255 . S
H484 C463 0.931 . S
H485 C471 0.931 . S
Co486 N491 2.057 . S
Co486 O503 2.021 . S
Co486 O506 2.062 . S
Co486 O510 2.117 . S
Co486 O511 2.020 . S
C487 O507 1.259 . S
C487 O510 1.258 . S
Co488 N497 2.057 . S
Co488 O504 2.117 . S
Co488 O505 2.020 . S
Co488 O507 2.021 . S
Co488 O512 2.062 . S
C489 N491 1.316 . S
C489 N492 1.347 . S
C489 H494 0.931 . S
C490 N491 1.375 . S
C490 C493 1.350 . S
C490 H495 0.930 . S
N491 Co486 2.057 . S
N491 C489 1.316 . S
N491 C490 1.375 . S
N492 C489 1.347 . S
N492 C493 1.373 . S
C493 C490 1.350 . S
C493 N492 1.373 . S
C493 H514 0.931 . S
H494 C489 0.931 . S
H495 C490 0.930 . S
C496 O503 1.259 . S
C496 O504 1.258 . S
N497 Co488 2.057 . S
N497 C498 1.316 . S
N497 C499 1.375 . S
C498 N497 1.316 . S
C498 N500 1.347 . S
C498 H509 0.931 . S
C499 N497 1.375 . S
C499 C501 1.350 . S
C499 H508 0.930 . S
N500 C498 1.347 . S
N500 C501 1.373 . S
C501 C499 1.350 . S
C501 N500 1.373 . S
C501 H515 0.931 . S
C502 O505 1.256 . S
C502 O506 1.255 . S
O503 Co486 2.021 . S
O503 C496 1.259 . S
O504 Co488 2.117 . S
O504 C496 1.258 . S
O505 Co488 2.020 . S
O505 C502 1.256 . S
O506 Co486 2.062 . S
O506 C502 1.255 . S
O507 C487 1.259 . S
O507 Co488 2.021 . S
H508 C499 0.930 . S
H509 C498 0.931 . S
O510 Co486 2.117 . S
O510 C487 1.258 . S
O511 Co486 2.020 . S
O511 C513 1.256 . S
O512 Co488 2.062 . S
O512 C513 1.255 . S
C513 O511 1.256 . S
C513 O512 1.255 . S
H514 C493 0.931 . S
H515 C501 0.931 . S
Co516 N521 2.057 1_554 S
Co516 O533 2.021 . S
Co516 O536 2.062 1_554 S
Co516 O540 2.117 . S
Co516 O541 2.020 1_545 S
C517 O537 1.259 . S
C517 O540 1.258 . S
Co518 N527 2.057 . S
Co518 O534 2.117 . S
Co518 O535 2.020 . S
Co518 O537 2.021 . S
Co518 O542 2.062 . S
C519 N521 1.316 . S
C519 N522 1.347 . S
C519 H524 0.931 . S
C520 N521 1.375 . S
C520 C523 1.350 . S
C520 H525 0.930 1_545 S
N521 Co516 2.057 1_556 S
N521 C519 1.316 . S
N521 C520 1.375 . S
N522 C519 1.347 . S
N522 C523 1.373 . S
C523 C520 1.350 . S
C523 N522 1.373 . S
C523 H544 0.931 1_545 S
H524 C519 0.931 . S
H525 C520 0.930 1_565 S
C526 O533 1.259 . S
C526 O534 1.258 . S
N527 Co518 2.057 . S
N527 C528 1.316 . S
N527 C529 1.375 . S
C528 N527 1.316 . S
C528 N530 1.347 . S
C528 H539 0.931 . S
C529 N527 1.375 . S
C529 C531 1.350 . S
C529 H538 0.930 . S
N530 C528 1.347 . S
N530 C531 1.373 . S
C531 C529 1.350 . S
C531 N530 1.373 . S
C531 H545 0.931 . S
C532 O535 1.256 . S
C532 O536 1.255 1_554 S
O533 Co516 2.021 . S
O533 C526 1.259 . S
O534 Co518 2.117 . S
O534 C526 1.258 . S
O535 Co518 2.020 . S
O535 C532 1.256 . S
O536 Co516 2.062 1_556 S
O536 C532 1.255 1_556 S
O537 C517 1.259 . S
O537 Co518 2.021 . S
H538 C529 0.930 . S
H539 C528 0.931 . S
O540 Co516 2.117 . S
O540 C517 1.258 . S
O541 Co516 2.020 1_565 S
O541 C543 1.256 . S
O542 Co518 2.062 . S
O542 C543 1.255 1_545 S
C543 O541 1.256 . S
C543 O542 1.255 1_565 S
H544 C523 0.931 1_565 S
H545 C531 0.931 . S
Co546 N551 2.057 . S
Co546 O563 2.021 . S
Co546 O566 2.062 . S
Co546 O570 2.117 . S
Co546 O571 2.020 . S
C547 O567 1.259 . S
C547 O570 1.258 . S
Co548 N557 2.057 . S
Co548 O564 2.117 . S
Co548 O565 2.020 . S
Co548 O567 2.021 . S
Co548 O572 2.062 . S
C549 N551 1.316 . S
C549 N552 1.347 . S
C549 H554 0.931 . S
C550 N551 1.375 . S
C550 C553 1.350 . S
C550 H555 0.930 . S
N551 Co546 2.057 . S
N551 C549 1.316 . S
N551 C550 1.375 . S
N552 C549 1.347 . S
N552 C553 1.373 . S
C553 C550 1.350 . S
C553 N552 1.373 . S
C553 H574 0.931 . S
H554 C549 0.931 . S
H555 C550 0.930 . S
C556 O563 1.259 . S
C556 O564 1.258 . S
N557 Co548 2.057 . S
N557 C558 1.316 . S
N557 C559 1.375 . S
C558 N557 1.316 . S
C558 N560 1.347 . S
C558 H569 0.931 . S
C559 N557 1.375 . S
C559 C561 1.350 . S
C559 H568 0.930 . S
N560 C558 1.347 . S
N560 C561 1.373 . S
C561 C559 1.350 . S
C561 N560 1.373 . S
C561 H575 0.931 . S
C562 O565 1.256 . S
C562 O566 1.255 . S
O563 Co546 2.021 . S
O563 C556 1.259 . S
O564 Co548 2.117 . S
O564 C556 1.258 . S
O565 Co548 2.020 . S
O565 C562 1.256 . S
O566 Co546 2.062 . S
O566 C562 1.255 . S
O567 C547 1.259 . S
O567 Co548 2.021 . S
H568 C559 0.930 . S
H569 C558 0.931 . S
O570 Co546 2.117 . S
O570 C547 1.258 . S
O571 Co546 2.020 . S
O571 C573 1.256 . S
O572 Co548 2.062 . S
O572 C573 1.255 . S
C573 O571 1.256 . S
C573 O572 1.255 . S
H574 C553 0.931 . S
H575 C561 0.931 . S
Co576 N581 2.057 . S
Co576 O593 2.021 1_554 S
Co576 O596 2.062 . S
Co576 O600 2.117 . S
Co576 O601 2.020 . S
C577 O597 1.259 . S
C577 O600 1.258 . S
Co578 N587 2.057 . S
Co578 O594 2.117 . S
Co578 O595 2.020 . S
Co578 O597 2.021 . S
Co578 O602 2.062 . S
C579 N581 1.316 1_556 S
C579 N582 1.347 1_556 S
C579 H584 0.931 . S
C580 N581 1.375 . S
C580 C583 1.350 . S
C580 H585 0.930 . S
N581 Co576 2.057 . S
N581 C579 1.316 1_554 S
N581 C580 1.375 . S
N582 C579 1.347 1_554 S
N582 C583 1.373 . S
C583 C580 1.350 . S
C583 N582 1.373 . S
C583 H604 0.931 . S
H584 C579 0.931 . S
H585 C580 0.930 . S
C586 O593 1.259 . S
C586 O594 1.258 1_556 S
N587 Co578 2.057 . S
N587 C588 1.316 . S
N587 C589 1.375 . S
C588 N587 1.316 . S
C588 N590 1.347 . S
C588 H599 0.931 . S
C589 N587 1.375 . S
C589 C591 1.350 . S
C589 H598 0.930 . S
N590 C588 1.347 . S
N590 C591 1.373 . S
C591 C589 1.350 . S
C591 N590 1.373 . S
C591 H605 0.931 . S
C592 O595 1.256 . S
C592 O596 1.255 . S
O593 Co576 2.021 1_556 S
O593 C586 1.259 . S
O594 Co578 2.117 . S
O594 C586 1.258 1_554 S
O595 Co578 2.020 . S
O595 C592 1.256 . S
O596 Co576 2.062 . S
O596 C592 1.255 . S
O597 C577 1.259 . S
O597 Co578 2.021 . S
H598 C589 0.930 . S
H599 C588 0.931 . S
O600 Co576 2.117 . S
O600 C577 1.258 . S
O601 Co576 2.020 . S
O601 C603 1.256 . S
O602 Co578 2.062 . S
O602 C603 1.255 . S
C603 O601 1.256 . S
C603 O602 1.255 . S
H604 C583 0.931 . S
H605 C591 0.931 . S
Co606 N611 2.057 . S
Co606 O623 2.021 . S
Co606 O626 2.062 . S
Co606 O630 2.117 . S
Co606 O631 2.020 . S
C607 O627 1.259 . S
C607 O630 1.258 . S
Co608 N617 2.057 . S
Co608 O624 2.117 . S
Co608 O625 2.020 . S
Co608 O627 2.021 . S
Co608 O632 2.062 . S
C609 N611 1.316 . S
C609 N612 1.347 . S
C609 H614 0.931 . S
C610 N611 1.375 . S
C610 C613 1.350 . S
C610 H615 0.930 . S
N611 Co606 2.057 . S
N611 C609 1.316 . S
N611 C610 1.375 . S
N612 C609 1.347 . S
N612 C613 1.373 . S
C613 C610 1.350 . S
C613 N612 1.373 . S
C613 H634 0.931 . S
H614 C609 0.931 . S
H615 C610 0.930 . S
C616 O623 1.259 . S
C616 O624 1.258 . S
N617 Co608 2.057 . S
N617 C618 1.316 . S
N617 C619 1.375 . S
C618 N617 1.316 . S
C618 N620 1.347 . S
C618 H629 0.931 . S
C619 N617 1.375 . S
C619 C621 1.350 . S
C619 H628 0.930 . S
N620 C618 1.347 . S
N620 C621 1.373 . S
C621 C619 1.350 . S
C621 N620 1.373 . S
C621 H635 0.931 . S
C622 O625 1.256 . S
C622 O626 1.255 . S
O623 Co606 2.021 . S
O623 C616 1.259 . S
O624 Co608 2.117 . S
O624 C616 1.258 . S
O625 Co608 2.020 . S
O625 C622 1.256 . S
O626 Co606 2.062 . S
O626 C622 1.255 . S
O627 C607 1.259 . S
O627 Co608 2.021 . S
H628 C619 0.930 . S
H629 C618 0.931 . S
O630 Co606 2.117 . S
O630 C607 1.258 . S
O631 Co606 2.020 . S
O631 C633 1.256 . S
O632 Co608 2.062 . S
O632 C633 1.255 . S
C633 O631 1.256 . S
C633 O632 1.255 . S
H634 C613 0.931 . S
H635 C621 0.931 . S
Co636 N641 2.057 . S
Co636 O653 2.021 1_455 S
Co636 O656 2.062 . S
Co636 O660 2.117 . S
Co636 O661 2.020 . S
C637 O657 1.259 . S
C637 O660 1.258 . S
Co638 N647 2.057 . S
Co638 O654 2.120 1_455 S
Co638 O655 2.020 . S
Co638 O657 2.021 . S
Co638 O662 2.062 . S
C639 N641 1.316 1_655 S
C639 N642 1.347 . S
C639 H644 0.931 . S
C640 N641 1.375 . S
C640 C643 1.350 . S
C640 H645 0.930 . S
N641 Co636 2.057 . S
N641 C639 1.316 1_455 S
N641 C640 1.375 . S
N642 C639 1.347 . S
N642 C643 1.372 1_655 S
C643 C640 1.350 . S
C643 N642 1.372 1_455 S
C643 H664 0.931 . S
H644 C639 0.931 . S
H645 C640 0.930 . S
C646 O653 1.259 . S
C646 O654 1.256 . S
N647 Co638 2.057 . S
N647 C648 1.316 . S
N647 C649 1.375 . S
C648 N647 1.316 . S
C648 N650 1.347 . S
C648 H659 0.931 . S
C649 N647 1.375 . S
C649 C651 1.350 . S
C649 H658 0.930 . S
N650 C648 1.347 . S
N650 C651 1.373 . S
C651 C649 1.350 . S
C651 N650 1.373 . S
C651 H665 0.931 . S
C652 O655 1.256 . S
C652 O656 1.255 . S
O653 Co636 2.021 1_655 S
O653 C646 1.259 . S
O654 Co638 2.120 1_655 S
O654 C646 1.256 . S
O655 Co638 2.020 . S
O655 C652 1.256 . S
O656 Co636 2.062 . S
O656 C652 1.255 . S
O657 C637 1.259 . S
O657 Co638 2.021 . S
H658 C649 0.930 . S
H659 C648 0.931 . S
O660 Co636 2.117 . S
O660 C637 1.258 . S
O661 Co636 2.020 . S
O661 C663 1.256 . S
O662 Co638 2.062 . S
O662 C663 1.255 . S
C663 O661 1.256 . S
C663 O662 1.255 . S
H664 C643 0.931 . S
H665 C651 0.931 . S
Co666 N671 2.057 . S
Co666 O683 2.021 . S
Co666 O686 2.062 . S
Co666 O690 2.117 . S
Co666 O691 2.020 . S
C667 O687 1.259 . S
C667 O690 1.258 . S
Co668 N677 2.057 . S
Co668 O684 2.117 . S
Co668 O685 2.020 . S
Co668 O687 2.021 . S
Co668 O692 2.062 . S
C669 N671 1.316 . S
C669 N672 1.347 . S
C669 H674 0.931 . S
C670 N671 1.375 . S
C670 C673 1.350 . S
C670 H675 0.930 . S
N671 Co666 2.057 . S
N671 C669 1.316 . S
N671 C670 1.375 . S
N672 C669 1.347 . S
N672 C673 1.373 . S
C673 C670 1.350 . S
C673 N672 1.373 . S
C673 H694 0.931 . S
H674 C669 0.931 . S
H675 C670 0.930 . S
C676 O683 1.259 . S
C676 O684 1.258 . S
N677 Co668 2.057 . S
N677 C678 1.316 . S
N677 C679 1.375 . S
C678 N677 1.316 . S
C678 N680 1.347 . S
C678 H689 0.931 . S
C679 N677 1.375 . S
C679 C681 1.350 . S
C679 H688 0.930 . S
N680 C678 1.347 . S
N680 C681 1.373 . S
C681 C679 1.350 . S
C681 N680 1.373 . S
C681 H695 0.931 . S
C682 O685 1.256 . S
C682 O686 1.255 . S
O683 Co666 2.021 . S
O683 C676 1.259 . S
O684 Co668 2.117 . S
O684 C676 1.258 . S
O685 Co668 2.020 . S
O685 C682 1.256 . S
O686 Co666 2.062 . S
O686 C682 1.255 . S
O687 C667 1.259 . S
O687 Co668 2.021 . S
H688 C679 0.930 . S
H689 C678 0.931 . S
O690 Co666 2.117 . S
O690 C667 1.258 . S
O691 Co666 2.020 . S
O691 C693 1.256 . S
O692 Co668 2.062 . S
O692 C693 1.255 . S
C693 O691 1.256 . S
C693 O692 1.255 . S
H694 C673 0.931 . S
H695 C681 0.931 . S
Co696 N701 2.057 . S
Co696 O713 2.021 . S
Co696 O716 2.062 . S
Co696 O720 2.117 . S
Co696 O721 2.020 . S
C697 O717 1.259 . S
C697 O720 1.258 . S
Co698 N707 2.057 . S
Co698 O714 2.117 . S
Co698 O715 2.020 . S
Co698 O717 2.021 . S
Co698 O722 2.062 . S
C699 N701 1.316 . S
C699 N702 1.347 . S
C699 H704 0.931 . S
C700 N701 1.375 . S
C700 C703 1.350 . S
C700 H705 0.930 . S
N701 Co696 2.057 . S
N701 C699 1.316 . S
N701 C700 1.375 . S
N702 C699 1.347 . S
N702 C703 1.373 . S
C703 C700 1.350 . S
C703 N702 1.373 . S
C703 H724 0.931 . S
H704 C699 0.931 . S
H705 C700 0.930 . S
C706 O713 1.259 . S
C706 O714 1.258 . S
N707 Co698 2.057 . S
N707 C708 1.316 . S
N707 C709 1.375 . S
C708 N707 1.316 . S
C708 N710 1.347 . S
C708 H719 0.931 . S
C709 N707 1.375 . S
C709 C711 1.350 . S
C709 H718 0.930 . S
N710 C708 1.347 . S
N710 C711 1.373 . S
C711 C709 1.350 . S
C711 N710 1.373 . S
C711 H725 0.931 . S
C712 O715 1.256 . S
C712 O716 1.255 . S
O713 Co696 2.021 . S
O713 C706 1.259 . S
O714 Co698 2.117 . S
O714 C706 1.258 . S
O715 Co698 2.020 . S
O715 C712 1.256 . S
O716 Co696 2.062 . S
O716 C712 1.255 . S
O717 C697 1.259 . S
O717 Co698 2.021 . S
H718 C709 0.930 . S
H719 C708 0.931 . S
O720 Co696 2.117 . S
O720 C697 1.258 . S
O721 Co696 2.020 . S
O721 C723 1.256 . S
O722 Co698 2.062 . S
O722 C723 1.255 . S
C723 O721 1.256 . S
C723 O722 1.255 . S
H724 C703 0.931 . S
H725 C711 0.931 . S
Co726 N731 2.057 . S
Co726 O743 2.021 . S
Co726 O746 2.062 . S
Co726 O750 2.117 . S
Co726 O751 2.020 . S
C727 O747 1.259 . S
C727 O750 1.258 . S
Co728 N737 2.057 . S
Co728 O744 2.117 . S
Co728 O745 2.020 . S
Co728 O747 2.021 . S
Co728 O752 2.062 . S
C729 N731 1.316 . S
C729 N732 1.347 . S
C729 H734 0.931 . S
C730 N731 1.375 . S
C730 C733 1.350 . S
C730 H735 0.930 . S
N731 Co726 2.057 . S
N731 C729 1.316 . S
N731 C730 1.375 . S
N732 C729 1.347 . S
N732 C733 1.373 . S
C733 C730 1.350 . S
C733 N732 1.373 . S
C733 H754 0.931 . S
H734 C729 0.931 . S
H735 C730 0.930 . S
C736 O743 1.259 . S
C736 O744 1.258 . S
N737 Co728 2.057 . S
N737 C738 1.316 . S
N737 C739 1.375 . S
C738 N737 1.316 . S
C738 N740 1.347 . S
C738 H749 0.931 . S
C739 N737 1.375 . S
C739 C741 1.350 . S
C739 H748 0.930 . S
N740 C738 1.347 . S
N740 C741 1.373 . S
C741 C739 1.350 . S
C741 N740 1.373 . S
C741 H755 0.931 . S
C742 O745 1.256 . S
C742 O746 1.255 . S
O743 Co726 2.021 . S
O743 C736 1.259 . S
O744 Co728 2.117 . S
O744 C736 1.258 . S
O745 Co728 2.020 . S
O745 C742 1.256 . S
O746 Co726 2.062 . S
O746 C742 1.255 . S
O747 C727 1.259 . S
O747 Co728 2.021 . S
H748 C739 0.930 . S
H749 C738 0.931 . S
O750 Co726 2.117 . S
O750 C727 1.258 . S
O751 Co726 2.020 . S
O751 C753 1.256 . S
O752 Co728 2.062 . S
O752 C753 1.255 . S
C753 O751 1.256 . S
C753 O752 1.255 . S
H754 C733 0.931 . S
H755 C741 0.931 . S
Co756 N761 2.057 . S
Co756 O773 2.021 . S
Co756 O776 2.062 . S
Co756 O780 2.117 . S
Co756 O781 2.020 . S
C757 O777 1.259 . S
C757 O780 1.258 . S
Co758 N767 2.057 . S
Co758 O774 2.117 . S
Co758 O775 2.020 . S
Co758 O777 2.021 . S
Co758 O782 2.062 . S
C759 N761 1.316 . S
C759 N762 1.347 . S
C759 H764 0.931 . S
C760 N761 1.375 . S
C760 C763 1.350 . S
C760 H765 0.930 . S
N761 Co756 2.057 . S
N761 C759 1.316 . S
N761 C760 1.375 . S
N762 C759 1.347 . S
N762 C763 1.373 . S
C763 C760 1.350 . S
C763 N762 1.373 . S
C763 H784 0.931 . S
H764 C759 0.931 . S
H765 C760 0.930 . S
C766 O773 1.259 . S
C766 O774 1.258 . S
N767 Co758 2.057 . S
N767 C768 1.316 . S
N767 C769 1.375 . S
C768 N767 1.316 . S
C768 N770 1.347 . S
C768 H779 0.931 . S
C769 N767 1.375 . S
C769 C771 1.350 . S
C769 H778 0.930 . S
N770 C768 1.347 . S
N770 C771 1.373 . S
C771 C769 1.350 . S
C771 N770 1.373 . S
C771 H785 0.931 . S
C772 O775 1.256 . S
C772 O776 1.255 . S
O773 Co756 2.021 . S
O773 C766 1.259 . S
O774 Co758 2.117 . S
O774 C766 1.258 . S
O775 Co758 2.020 . S
O775 C772 1.256 . S
O776 Co756 2.062 . S
O776 C772 1.255 . S
O777 C757 1.259 . S
O777 Co758 2.021 . S
H778 C769 0.930 . S
H779 C768 0.931 . S
O780 Co756 2.117 . S
O780 C757 1.258 . S
O781 Co756 2.020 . S
O781 C783 1.256 . S
O782 Co758 2.062 . S
O782 C783 1.255 . S
C783 O781 1.256 . S
C783 O782 1.255 . S
H784 C763 0.931 . S
H785 C771 0.931 . S
Co786 N791 2.057 1_455 S
Co786 O803 2.021 . S
Co786 O806 2.062 1_455 S
Co786 O810 2.117 . S
Co786 O811 2.020 1_554 S
C787 O807 1.259 . S
C787 O810 1.258 . S
Co788 N797 2.057 . S
Co788 O804 2.117 . S
Co788 O805 2.020 . S
Co788 O807 2.021 . S
Co788 O812 2.062 1_554 S
C789 N791 1.316 . S
C789 N792 1.347 . S
C789 H794 0.931 . S
C790 N791 1.385 . S
C790 C793 1.350 . S
C790 H795 0.922 1_554 S
N791 Co786 2.057 1_655 S
N791 C789 1.316 . S
N791 C790 1.385 . S
N792 C789 1.347 . S
N792 C793 1.382 . S
C793 C790 1.350 . S
C793 N792 1.382 . S
C793 H814 0.923 1_554 S
H794 C789 0.931 . S
H795 C790 0.922 1_556 S
C796 O803 1.259 . S
C796 O804 1.258 . S
N797 Co788 2.057 . S
N797 C798 1.316 . S
N797 C799 1.375 . S
C798 N797 1.316 . S
C798 N800 1.347 . S
C798 H809 0.931 . S
C799 N797 1.375 . S
C799 C801 1.350 . S
C799 H808 0.930 . S
N800 C798 1.347 . S
N800 C801 1.373 . S
C801 C799 1.350 . S
C801 N800 1.373 . S
C801 H815 0.931 . S
C802 O805 1.256 . S
C802 O806 1.255 1_455 S
O803 Co786 2.021 . S
O803 C796 1.259 . S
O804 Co788 2.117 . S
O804 C796 1.258 . S
O805 Co788 2.020 . S
O805 C802 1.256 . S
O806 Co786 2.062 1_655 S
O806 C802 1.255 1_655 S
O807 C787 1.259 . S
O807 Co788 2.021 . S
H808 C799 0.930 . S
H809 C798 0.931 . S
O810 Co786 2.117 . S
O810 C787 1.258 . S
O811 Co786 2.020 1_556 S
O811 C813 1.256 . S
O812 Co788 2.062 1_556 S
O812 C813 1.255 . S
C813 O811 1.256 . S
C813 O812 1.255 . S
H814 C793 0.923 1_556 S
H815 C801 0.931 . S
H816 C822 0.930 1_655 S
H817 C825 0.930 . S
H818 C826 0.930 . S
H819 C827 0.930 . S
H820 C830 0.930 . S
H821 C831 0.930 . S
C822 H816 0.930 1_455 S
C822 C823 1.355 . S
C822 C824 1.415 . S
C823 C822 1.355 . S
C823 C825 1.419 . S
C824 C822 1.415 . S
C824 C829 1.425 . S
C824 C831 1.409 1_455 S
C825 H817 0.930 . S
C825 C823 1.419 . S
C825 C826 1.362 . S
C826 H818 0.930 . S
C826 C825 1.362 . S
C826 C829 1.409 . S
C827 H819 0.930 . S
C827 C828 1.355 . S
C827 C829 1.415 . S
C828 C827 1.355 . S
C828 C830 1.419 1_455 S
C829 C824 1.425 . S
C829 C826 1.409 . S
C829 C827 1.415 . S
C830 H820 0.930 . S
C830 C828 1.419 1_655 S
C830 C831 1.362 . S
C831 H821 0.930 . S
C831 C824 1.409 1_655 S
C831 C830 1.362 . S
H832 C838 0.930 . S
H833 C841 0.930 . S
H834 C842 0.930 . S
H835 C843 0.930 . S
H836 C846 0.930 . S
H837 C847 0.930 . S
C838 H832 0.930 . S
C838 C839 1.355 . S
C838 C840 1.415 . S
C839 C838 1.355 . S
C839 C841 1.419 . S
C840 C838 1.415 . S
C840 C845 1.425 . S
C840 C847 1.409 . S
C841 H833 0.930 . S
C841 C839 1.419 . S
C841 C842 1.362 . S
C842 H834 0.930 . S
C842 C841 1.362 . S
C842 C845 1.409 . S
C843 H835 0.930 . S
C843 C844 1.355 . S
C843 C845 1.415 . S
C844 C843 1.355 . S
C844 C846 1.419 . S
C845 C840 1.425 . S
C845 C842 1.409 . S
C845 C843 1.415 . S
C846 H836 0.930 . S
C846 C844 1.419 . S
C846 C847 1.362 . S
C847 H837 0.930 . S
C847 C840 1.409 . S
C847 C846 1.362 . S
H848 C854 0.930 . S
H849 C857 0.930 . S
H850 C858 0.930 . S
H851 C859 0.930 . S
H852 C862 0.930 . S
H853 C863 0.930 . S
C854 H848 0.930 . S
C854 C855 1.355 . S
C854 C856 1.415 . S
C855 C854 1.355 . S
C855 C857 1.419 . S
C856 C854 1.415 . S
C856 C861 1.425 . S
C856 C863 1.409 . S
C857 H849 0.930 . S
C857 C855 1.419 . S
C857 C858 1.362 . S
C858 H850 0.930 . S
C858 C857 1.362 . S
C858 C861 1.409 . S
C859 H851 0.930 . S
C859 C860 1.355 . S
C859 C861 1.415 . S
C860 C859 1.355 . S
C860 C862 1.419 . S
C861 C856 1.425 . S
C861 C858 1.409 . S
C861 C859 1.415 . S
C862 H852 0.930 . S
C862 C860 1.419 . S
C862 C863 1.362 . S
C863 H853 0.930 . S
C863 C856 1.409 . S
C863 C862 1.362 . S
H864 C870 0.930 . S
H865 C873 0.930 . S
H866 C874 0.930 . S
H867 C875 0.930 . S
H868 C878 0.930 . S
H869 C879 0.930 . S
C870 H864 0.930 . S
C870 C871 1.355 . S
C870 C872 1.415 . S
C871 C870 1.355 . S
C871 C873 1.419 . S
C872 C870 1.415 . S
C872 C877 1.425 . S
C872 C879 1.409 . S
C873 H865 0.930 . S
C873 C871 1.419 . S
C873 C874 1.362 . S
C874 H866 0.930 . S
C874 C873 1.362 . S
C874 C877 1.409 . S
C875 H867 0.930 . S
C875 C876 1.355 . S
C875 C877 1.415 . S
C876 C875 1.355 . S
C876 C878 1.419 . S
C877 C872 1.425 . S
C877 C874 1.409 . S
C877 C875 1.415 . S
C878 H868 0.930 . S
C878 C876 1.419 . S
C878 C879 1.362 . S
C879 H869 0.930 . S
C879 C872 1.409 . S
C879 C878 1.362 . S
H880 C886 0.930 . S
H881 C889 0.930 . S
H882 C890 0.930 . S
H883 C891 0.930 . S
H884 C894 0.930 . S
H885 C895 0.930 . S
C886 H880 0.930 . S
C886 C887 1.355 . S
C886 C888 1.415 . S
C887 C886 1.355 . S
C887 C889 1.419 . S
C888 C886 1.415 . S
C888 C893 1.425 . S
C888 C895 1.409 1_455 S
C889 H881 0.930 . S
C889 C887 1.419 . S
C889 C890 1.362 . S
C890 H882 0.930 . S
C890 C889 1.362 . S
C890 C893 1.409 . S
C891 H883 0.930 . S
C891 C892 1.355 . S
C891 C893 1.415 . S
C892 C891 1.355 . S
C892 C894 1.419 1_455 S
C893 C888 1.425 . S
C893 C890 1.409 . S
C893 C891 1.415 . S
C894 H884 0.930 . S
C894 C892 1.419 1_655 S
C894 C895 1.362 . S
C895 H885 0.930 . S
C895 C888 1.409 1_655 S
C895 C894 1.362 . S
H896 C902 0.930 . S
H897 C905 0.930 . S
H898 C906 0.930 . S
H899 C907 0.930 . S
H900 C910 0.930 . S
H901 C911 0.930 . S
C902 H896 0.930 . S
C902 C903 1.355 . S
C902 C904 1.415 . S
C903 C902 1.355 . S
C903 C905 1.419 . S
C904 C902 1.415 . S
C904 C909 1.425 . S
C904 C911 1.409 . S
C905 H897 0.930 . S
C905 C903 1.419 . S
C905 C906 1.362 . S
C906 H898 0.930 . S
C906 C905 1.362 . S
C906 C909 1.409 . S
C907 H899 0.930 . S
C907 C908 1.355 . S
C907 C909 1.415 . S
C908 C907 1.355 . S
C908 C910 1.419 . S
C909 C904 1.425 . S
C909 C906 1.409 . S
C909 C907 1.415 . S
C910 H900 0.930 . S
C910 C908 1.419 . S
C910 C911 1.362 . S
C911 H901 0.930 . S
C911 C904 1.409 . S
C911 C910 1.362 . S
H912 C918 0.930 . S
H913 C921 0.930 . S
H914 C922 0.930 . S
H915 C923 0.930 1_554 S
H916 C926 0.930 . S
H917 C927 0.930 . S
C918 H912 0.930 . S
C918 C919 1.355 . S
C918 C920 1.415 . S
C919 C918 1.355 . S
C919 C921 1.419 . S
C920 C918 1.415 . S
C920 C925 1.425 . S
C920 C927 1.409 . S
C921 H913 0.930 . S
C921 C919 1.419 . S
C921 C922 1.362 . S
C922 H914 0.930 . S
C922 C921 1.362 . S
C922 C925 1.409 . S
C923 H915 0.930 1_556 S
C923 C924 1.355 . S
C923 C925 1.415 . S
C924 C923 1.355 . S
C924 C926 1.419 . S
C925 C920 1.425 . S
C925 C922 1.409 . S
C925 C923 1.415 . S
C926 H916 0.930 . S
C926 C924 1.419 . S
C926 C927 1.362 . S
C927 H917 0.930 . S
C927 C920 1.409 . S
C927 C926 1.362 . S
H928 C934 0.930 . S
H929 C937 0.930 . S
H930 C938 0.930 . S
H931 C939 0.930 . S
H932 C942 0.930 . S
H933 C943 0.930 . S
C934 H928 0.930 . S
C934 C935 1.355 . S
C934 C936 1.415 . S
C935 C934 1.355 . S
C935 C937 1.419 . S
C936 C934 1.415 . S
C936 C941 1.425 . S
C936 C943 1.409 . S
C937 H929 0.930 . S
C937 C935 1.419 . S
C937 C938 1.362 . S
C938 H930 0.930 . S
C938 C937 1.362 . S
C938 C941 1.409 . S
C939 H931 0.930 . S
C939 C940 1.355 . S
C939 C941 1.415 . S
C940 C939 1.355 . S
C940 C942 1.419 . S
C941 C936 1.425 . S
C941 C938 1.409 . S
C941 C939 1.415 . S
C942 H932 0.930 . S
C942 C940 1.419 . S
C942 C943 1.362 . S
C943 H933 0.930 . S
C943 C936 1.409 . S
C943 C942 1.362 . S
H944 C950 0.930 . S
H945 C953 0.930 . S
H946 C954 0.930 . S
H947 C955 0.930 . S
H948 C958 0.930 . S
H949 C959 0.930 . S
C950 H944 0.930 . S
C950 C951 1.355 . S
C950 C952 1.415 . S
C951 C950 1.355 . S
C951 C953 1.419 . S
C952 C950 1.415 . S
C952 C957 1.425 . S
C952 C959 1.409 1_545 S
C953 H945 0.930 . S
C953 C951 1.419 . S
C953 C954 1.362 . S
C954 H946 0.930 . S
C954 C953 1.362 . S
C954 C957 1.409 . S
C955 H947 0.930 . S
C955 C956 1.355 . S
C955 C957 1.415 . S
C956 C955 1.355 . S
C956 C958 1.419 1_545 S
C957 C952 1.425 . S
C957 C954 1.409 . S
C957 C955 1.415 . S
C958 H948 0.930 . S
C958 C956 1.419 1_565 S
C958 C959 1.362 . S
C959 H949 0.930 . S
C959 C952 1.409 1_565 S
C959 C958 1.362 . S
H960 C966 0.930 . S
H961 C969 0.930 . S
H962 C970 0.930 . S
H963 C971 0.930 . S
H964 C974 0.930 . S
H965 C975 0.930 . S
C966 H960 0.930 . S
C966 C967 1.355 . S
C966 C968 1.415 . S
C967 C966 1.355 . S
C967 C969 1.419 . S
C968 C966 1.415 . S
C968 C973 1.425 . S
C968 C975 1.409 . S
C969 H961 0.930 . S
C969 C967 1.419 . S
C969 C970 1.362 . S
C970 H962 0.930 . S
C970 C969 1.362 . S
C970 C973 1.409 . S
C971 H963 0.930 . S
C971 C972 1.355 . S
C971 C973 1.415 . S
C972 C971 1.355 . S
C972 C974 1.419 . S
C973 C968 1.425 . S
C973 C970 1.409 . S
C973 C971 1.415 . S
C974 H964 0.930 . S
C974 C972 1.419 . S
C974 C975 1.362 . S
C975 H965 0.930 . S
C975 C968 1.409 . S
C975 C974 1.362 . S
H976 C982 0.930 . S
H977 C985 0.930 . S
H978 C986 0.930 . S
H979 C987 0.930 . S
H980 C990 0.930 . S
H981 C991 0.930 . S
C982 H976 0.930 . S
C982 C983 1.355 . S
C982 C984 1.415 . S
C983 C982 1.355 . S
C983 C985 1.419 . S
C984 C982 1.415 . S
C984 C989 1.425 . S
C984 C991 1.409 . S
C985 H977 0.930 . S
C985 C983 1.419 . S
C985 C986 1.362 . S
C986 H978 0.930 . S
C986 C985 1.362 . S
C986 C989 1.409 . S
C987 H979 0.930 . S
C987 C988 1.355 . S
C987 C989 1.415 . S
C988 C987 1.355 . S
C988 C990 1.419 . S
C989 C984 1.425 . S
C989 C986 1.409 . S
C989 C987 1.415 . S
C990 H980 0.930 . S
C990 C988 1.419 . S
C990 C991 1.362 . S
C991 H981 0.930 . S
C991 C984 1.409 . S
C991 C990 1.362 . S
H992 C998 0.930 . S
H993 C1001 0.930 . S
H994 C1002 0.930 . S
H995 C1003 0.930 . S
H996 C1006 0.930 . S
H997 C1007 0.930 . S
C998 H992 0.930 . S
C998 C999 1.355 . S
C998 C1000 1.415 . S
C999 C998 1.355 . S
C999 C1001 1.419 . S
C1000 C998 1.415 . S
C1000 C1005 1.425 . S
C1000 C1007 1.409 . S
C1001 H993 0.930 . S
C1001 C999 1.419 . S
C1001 C1002 1.362 . S
C1002 H994 0.930 . S
C1002 C1001 1.362 . S
C1002 C1005 1.409 . S
C1003 H995 0.930 . S
C1003 C1004 1.355 . S
C1003 C1005 1.415 . S
C1004 C1003 1.355 . S
C1004 C1006 1.419 . S
C1005 C1000 1.425 . S
C1005 C1002 1.409 . S
C1005 C1003 1.415 . S
C1006 H996 0.930 . S
C1006 C1004 1.419 . S
C1006 C1007 1.362 . S
C1007 H997 0.930 . S
C1007 C1000 1.409 . S
C1007 C1006 1.362 . S
H1008 C1014 0.930 . S
H1009 C1017 0.928 . S
H1010 C1018 0.930 . S
H1011 C1019 0.930 . S
H1012 C1022 0.930 . S
H1013 C1023 0.930 . S
C1014 H1008 0.930 . S
C1014 C1015 1.355 . S
C1014 C1016 1.415 . S
C1015 C1014 1.355 . S
C1015 C1017 1.419 . S
C1016 C1014 1.415 . S
C1016 C1021 1.425 . S
C1016 C1023 1.409 . S
C1017 H1009 0.928 . S
C1017 C1015 1.419 . S
C1017 C1018 1.362 . S
C1018 H1010 0.930 . S
C1018 C1017 1.362 . S
C1018 C1021 1.409 . S
C1019 H1011 0.930 . S
C1019 C1020 1.355 . S
C1019 C1021 1.415 . S
C1020 C1019 1.355 . S
C1020 C1022 1.419 . S
C1021 C1016 1.425 . S
C1021 C1018 1.409 . S
C1021 C1019 1.415 . S
C1022 H1012 0.930 . S
C1022 C1020 1.419 . S
C1022 C1023 1.362 . S
C1023 H1013 0.930 . S
C1023 C1016 1.409 . S
C1023 C1022 1.362 . S
H1024 C1030 0.930 . S
H1025 C1033 0.930 . S
H1026 C1034 0.930 . S
H1027 C1035 0.930 . S
H1028 C1038 0.930 . S
H1029 C1039 0.930 . S
C1030 H1024 0.930 . S
C1030 C1031 1.355 . S
C1030 C1032 1.415 . S
C1031 C1030 1.355 . S
C1031 C1033 1.419 . S
C1032 C1030 1.415 . S
C1032 C1037 1.425 . S
C1032 C1039 1.409 . S
C1033 H1025 0.930 . S
C1033 C1031 1.419 . S
C1033 C1034 1.362 . S
C1034 H1026 0.930 . S
C1034 C1033 1.362 . S
C1034 C1037 1.409 . S
C1035 H1027 0.930 . S
C1035 C1036 1.355 . S
C1035 C1037 1.415 . S
C1036 C1035 1.355 . S
C1036 C1038 1.419 . S
C1037 C1032 1.425 . S
C1037 C1034 1.409 . S
C1037 C1035 1.415 . S
C1038 H1028 0.930 . S
C1038 C1036 1.419 . S
C1038 C1039 1.362 . S
C1039 H1029 0.930 . S
C1039 C1032 1.409 . S
C1039 C1038 1.362 . S
H1040 C1046 0.930 . S
H1041 C1049 0.930 . S
H1042 C1050 0.930 . S
H1043 C1051 0.930 . S
H1044 C1054 0.930 . S
H1045 C1055 0.930 . S
C1046 H1040 0.930 . S
C1046 C1047 1.355 . S
C1046 C1048 1.415 . S
C1047 C1046 1.355 . S
C1047 C1049 1.419 . S
C1048 C1046 1.415 . S
C1048 C1053 1.425 . S
C1048 C1055 1.409 . S
C1049 H1041 0.930 . S
C1049 C1047 1.419 . S
C1049 C1050 1.362 . S
C1050 H1042 0.930 . S
C1050 C1049 1.362 . S
C1050 C1053 1.409 . S
C1051 H1043 0.930 . S
C1051 C1052 1.355 . S
C1051 C1053 1.415 . S
C1052 C1051 1.355 . S
C1052 C1054 1.419 . S
C1053 C1048 1.425 . S
C1053 C1050 1.409 . S
C1053 C1051 1.415 . S
C1054 H1044 0.930 . S
C1054 C1052 1.419 . S
C1054 C1055 1.362 . S
C1055 H1045 0.930 . S
C1055 C1048 1.409 . S
C1055 C1054 1.362 . S
H1056 C1062 0.930 . S
H1057 C1065 0.930 . S
H1058 C1066 0.930 . S
H1059 C1067 0.930 . S
H1060 C1070 0.930 . S
H1061 C1071 0.930 . S
C1062 H1056 0.930 . S
C1062 C1063 1.355 . S
C1062 C1064 1.415 . S
C1063 C1062 1.355 . S
C1063 C1065 1.419 . S
C1064 C1062 1.415 . S
C1064 C1069 1.425 . S
C1064 C1071 1.409 . S
C1065 H1057 0.930 . S
C1065 C1063 1.419 . S
C1065 C1066 1.362 . S
C1066 H1058 0.930 . S
C1066 C1065 1.362 . S
C1066 C1069 1.409 . S
C1067 H1059 0.930 . S
C1067 C1068 1.355 . S
C1067 C1069 1.415 . S
C1068 C1067 1.355 . S
C1068 C1070 1.419 . S
C1069 C1064 1.425 . S
C1069 C1066 1.409 . S
C1069 C1067 1.415 . S
C1070 H1060 0.930 . S
C1070 C1068 1.419 . S
C1070 C1071 1.362 . S
C1071 H1061 0.930 . S
C1071 C1064 1.409 . S
C1071 C1070 1.362 . S
H1072 C1078 0.930 . S
H1073 C1081 0.930 . S
H1074 C1082 0.930 . S
H1075 C1083 0.930 . S
H1076 C1086 0.947 . S
H1077 C1087 0.930 . S
C1078 H1072 0.930 . S
C1078 C1079 1.355 . S
C1078 C1080 1.415 . S
C1079 C1078 1.355 . S
C1079 C1081 1.419 . S
C1080 C1078 1.415 . S
C1080 C1085 1.425 . S
C1080 C1087 1.409 . S
C1081 H1073 0.930 . S
C1081 C1079 1.419 . S
C1081 C1082 1.362 . S
C1082 H1074 0.930 . S
C1082 C1081 1.362 . S
C1082 C1085 1.409 . S
C1083 H1075 0.930 . S
C1083 C1084 1.355 . S
C1083 C1085 1.415 . S
C1084 C1083 1.355 . S
C1084 C1086 1.419 . S
C1085 C1080 1.425 . S
C1085 C1082 1.409 . S
C1085 C1083 1.415 . S
C1086 H1076 0.947 . S
C1086 C1084 1.419 . S
C1086 C1087 1.362 . S
C1087 H1077 0.930 . S
C1087 C1080 1.409 . S
C1087 C1086 1.362 . S
H1088 C1094 0.930 . S
H1089 C1097 0.930 . S
H1090 C1098 0.930 . S
H1091 C1099 0.930 . S
H1092 C1102 0.930 . S
H1093 C1103 0.930 . S
C1094 H1088 0.930 . S
C1094 C1095 1.355 . S
C1094 C1096 1.415 . S
C1095 C1094 1.355 . S
C1095 C1097 1.419 . S
C1096 C1094 1.415 . S
C1096 C1101 1.425 . S
C1096 C1103 1.409 . S
C1097 H1089 0.930 . S
C1097 C1095 1.419 . S
C1097 C1098 1.362 . S
C1098 H1090 0.930 . S
C1098 C1097 1.362 . S
C1098 C1101 1.409 . S
C1099 H1091 0.930 . S
C1099 C1100 1.355 . S
C1099 C1101 1.415 . S
C1100 C1099 1.355 . S
C1100 C1102 1.419 . S
C1101 C1096 1.425 . S
C1101 C1098 1.409 . S
C1101 C1099 1.415 . S
C1102 H1092 0.930 . S
C1102 C1100 1.419 . S
C1102 C1103 1.362 . S
C1103 H1093 0.930 . S
C1103 C1096 1.409 . S
C1103 C1102 1.362 . S
H1104 C1110 0.930 . S
H1105 C1113 0.930 . S
H1106 C1114 0.930 . S
H1107 C1115 0.930 . S
H1108 C1118 0.930 . S
H1109 C1119 0.930 . S
C1110 H1104 0.930 . S
C1110 C1111 1.355 . S
C1110 C1112 1.415 . S
C1111 C1110 1.355 . S
C1111 C1113 1.419 . S
C1112 C1110 1.415 . S
C1112 C1117 1.425 . S
C1112 C1119 1.409 . S
C1113 H1105 0.930 . S
C1113 C1111 1.419 . S
C1113 C1114 1.362 . S
C1114 H1106 0.930 . S
C1114 C1113 1.362 . S
C1114 C1117 1.409 . S
C1115 H1107 0.930 . S
C1115 C1116 1.355 . S
C1115 C1117 1.415 . S
C1116 C1115 1.355 . S
C1116 C1118 1.419 . S
C1117 C1112 1.425 . S
C1117 C1114 1.409 . S
C1117 C1115 1.415 . S
C1118 H1108 0.930 . S
C1118 C1116 1.419 . S
C1118 C1119 1.362 . S
C1119 H1109 0.930 . S
C1119 C1112 1.409 . S
C1119 C1118 1.362 . S
H1120 C1126 0.930 . S
H1121 C1129 0.930 . S
H1122 C1130 0.930 . S
H1123 C1131 0.930 . S
H1124 C1134 0.930 . S
H1125 C1135 0.930 . S
C1126 H1120 0.930 . S
C1126 C1127 1.355 . S
C1126 C1128 1.415 . S
C1127 C1126 1.355 . S
C1127 C1129 1.419 . S
C1128 C1126 1.415 . S
C1128 C1133 1.425 . S
C1128 C1135 1.409 . S
C1129 H1121 0.930 . S
C1129 C1127 1.419 . S
C1129 C1130 1.362 . S
C1130 H1122 0.930 . S
C1130 C1129 1.362 . S
C1130 C1133 1.409 . S
C1131 H1123 0.930 . S
C1131 C1132 1.355 . S
C1131 C1133 1.415 . S
C1132 C1131 1.355 . S
C1132 C1134 1.419 . S
C1133 C1128 1.425 . S
C1133 C1130 1.409 . S
C1133 C1131 1.415 . S
C1134 H1124 0.930 . S
C1134 C1132 1.419 . S
C1134 C1135 1.362 . S
C1135 H1125 0.930 . S
C1135 C1128 1.409 . S
C1135 C1134 1.362 . S
H1136 C1142 0.930 . S
H1137 C1145 0.930 . S
H1138 C1146 0.930 . S
H1139 C1147 0.930 . S
H1140 C1150 0.930 . S
H1141 C1151 0.930 . S
C1142 H1136 0.930 . S
C1142 C1143 1.355 . S
C1142 C1144 1.415 . S
C1143 C1142 1.355 . S
C1143 C1145 1.419 . S
C1144 C1142 1.415 . S
C1144 C1149 1.425 . S
C1144 C1151 1.409 . S
C1145 H1137 0.930 . S
C1145 C1143 1.419 . S
C1145 C1146 1.362 . S
C1146 H1138 0.930 . S
C1146 C1145 1.362 . S
C1146 C1149 1.409 . S
C1147 H1139 0.930 . S
C1147 C1148 1.355 . S
C1147 C1149 1.415 . S
C1148 C1147 1.355 . S
C1148 C1150 1.419 . S
C1149 C1144 1.425 . S
C1149 C1146 1.409 . S
C1149 C1147 1.415 . S
C1150 H1140 0.930 . S
C1150 C1148 1.419 . S
C1150 C1151 1.362 . S
C1151 H1141 0.930 . S
C1151 C1144 1.409 . S
C1151 C1150 1.362 . S
H1152 C1158 0.930 . S
H1153 C1161 0.930 . S
H1154 C1162 0.930 . S
H1155 C1163 0.930 . S
H1156 C1166 0.930 . S
H1157 C1167 0.930 1_545 S
C1158 H1152 0.930 . S
C1158 C1159 1.355 . S
C1158 C1160 1.415 . S
C1159 C1158 1.355 . S
C1159 C1161 1.419 . S
C1160 C1158 1.415 . S
C1160 C1165 1.425 . S
C1160 C1167 1.409 . S
C1161 H1153 0.930 . S
C1161 C1159 1.419 . S
C1161 C1162 1.362 . S
C1162 H1154 0.930 . S
C1162 C1161 1.362 . S
C1162 C1165 1.409 . S
C1163 H1155 0.930 . S
C1163 C1164 1.355 . S
C1163 C1165 1.415 . S
C1164 C1163 1.355 . S
C1164 C1166 1.419 1_565 S
C1165 C1160 1.425 . S
C1165 C1162 1.409 . S
C1165 C1163 1.415 . S
C1166 H1156 0.930 . S
C1166 C1164 1.419 1_545 S
C1166 C1167 1.362 1_545 S
C1167 H1157 0.930 1_565 S
C1167 C1160 1.409 . S
C1167 C1166 1.362 1_565 S
H1168 C1174 0.930 . S
H1169 C1177 0.930 . S
H1170 C1178 0.930 . S
H1171 C1179 0.930 . S
H1172 C1182 0.930 . S
H1173 C1183 0.930 . S
C1174 H1168 0.930 . S
C1174 C1175 1.355 . S
C1174 C1176 1.415 . S
C1175 C1174 1.355 . S
C1175 C1177 1.419 . S
C1176 C1174 1.415 . S
C1176 C1181 1.425 . S
C1176 C1183 1.409 . S
C1177 H1169 0.930 . S
C1177 C1175 1.419 . S
C1177 C1178 1.362 . S
C1178 H1170 0.930 . S
C1178 C1177 1.362 . S
C1178 C1181 1.409 . S
C1179 H1171 0.930 . S
C1179 C1180 1.355 . S
C1179 C1181 1.415 . S
C1180 C1179 1.355 . S
C1180 C1182 1.419 . S
C1181 C1176 1.425 . S
C1181 C1178 1.409 . S
C1181 C1179 1.415 . S
C1182 H1172 0.930 . S
C1182 C1180 1.419 . S
C1182 C1183 1.362 . S
C1183 H1173 0.930 . S
C1183 C1176 1.409 . S
C1183 C1182 1.362 . S
H1184 C1190 0.930 . S
H1185 C1193 0.930 . S
H1186 C1194 0.930 . S
H1187 C1195 0.930 . S
H1188 C1198 0.930 . S
H1189 C1199 0.930 . S
C1190 H1184 0.930 . S
C1190 C1191 1.355 . S
C1190 C1192 1.415 . S
C1191 C1190 1.355 . S
C1191 C1193 1.419 . S
C1192 C1190 1.415 . S
C1192 C1197 1.425 . S
C1192 C1199 1.409 . S
C1193 H1185 0.930 . S
C1193 C1191 1.419 . S
C1193 C1194 1.362 . S
C1194 H1186 0.930 . S
C1194 C1193 1.362 . S
C1194 C1197 1.409 . S
C1195 H1187 0.930 . S
C1195 C1196 1.355 . S
C1195 C1197 1.415 . S
C1196 C1195 1.355 . S
C1196 C1198 1.419 . S
C1197 C1192 1.425 . S
C1197 C1194 1.409 . S
C1197 C1195 1.415 . S
C1198 H1188 0.930 . S
C1198 C1196 1.419 . S
C1198 C1199 1.362 . S
C1199 H1189 0.930 . S
C1199 C1192 1.409 . S
C1199 C1198 1.362 . S
H1200 C1206 0.930 . S
H1201 C1209 0.930 . S
H1202 C1210 0.930 . S
H1203 C1211 0.930 1_554 S
H1204 C1214 0.930 . S
H1205 C1215 0.930 1_655 S
C1206 H1200 0.930 . S
C1206 C1207 1.355 . S
C1206 C1208 1.415 . S
C1207 C1206 1.355 . S
C1207 C1209 1.419 . S
C1208 C1206 1.415 . S
C1208 C1213 1.425 . S
C1208 C1215 1.409 . S
C1209 H1201 0.930 . S
C1209 C1207 1.419 . S
C1209 C1210 1.362 . S
C1210 H1202 0.930 . S
C1210 C1209 1.362 . S
C1210 C1213 1.409 . S
C1211 H1203 0.930 1_556 S
C1211 C1212 1.355 . S
C1211 C1213 1.415 . S
C1212 C1211 1.355 . S
C1212 C1214 1.419 . S
C1213 C1208 1.425 . S
C1213 C1210 1.409 . S
C1213 C1211 1.415 . S
C1214 H1204 0.930 . S
C1214 C1212 1.419 . S
C1214 C1215 1.362 . S
C1215 H1205 0.930 1_455 S
C1215 C1208 1.409 . S
C1215 C1214 1.362 . S
H1216 C1222 0.930 . S
H1217 C1225 0.930 . S
H1218 C1226 0.930 . S
H1219 C1227 0.930 . S
H1220 C1230 0.930 . S
H1221 C1231 0.930 . S
C1222 H1216 0.930 . S
C1222 C1223 1.355 . S
C1222 C1224 1.415 . S
C1223 C1222 1.355 . S
C1223 C1225 1.419 . S
C1224 C1222 1.415 . S
C1224 C1229 1.425 . S
C1224 C1231 1.409 . S
C1225 H1217 0.930 . S
C1225 C1223 1.419 . S
C1225 C1226 1.362 . S
C1226 H1218 0.930 . S
C1226 C1225 1.362 . S
C1226 C1229 1.409 . S
C1227 H1219 0.930 . S
C1227 C1228 1.355 . S
C1227 C1229 1.415 . S
C1228 C1227 1.355 . S
C1228 C1230 1.419 . S
C1229 C1224 1.425 . S
C1229 C1226 1.409 . S
C1229 C1227 1.415 . S
C1230 H1220 0.930 . S
C1230 C1228 1.419 . S
C1230 C1231 1.362 . S
C1231 H1221 0.930 . S
C1231 C1224 1.409 . S
C1231 C1230 1.362 . S
H1232 C1238 0.930 . S
H1233 C1241 0.930 . S
H1234 C1242 0.930 . S
H1235 C1243 0.930 . S
H1236 C1246 0.930 . S
H1237 C1247 0.930 . S
C1238 H1232 0.930 . S
C1238 C1239 1.355 . S
C1238 C1240 1.415 . S
C1239 C1238 1.355 . S
C1239 C1241 1.419 . S
C1240 C1238 1.415 . S
C1240 C1245 1.425 . S
C1240 C1247 1.409 . S
C1241 H1233 0.930 . S
C1241 C1239 1.419 . S
C1241 C1242 1.362 . S
C1242 H1234 0.930 . S
C1242 C1241 1.362 . S
C1242 C1245 1.409 . S
C1243 H1235 0.930 . S
C1243 C1244 1.355 . S
C1243 C1245 1.415 . S
C1244 C1243 1.355 . S
C1244 C1246 1.419 . S
C1245 C1240 1.425 . S
C1245 C1242 1.409 . S
C1245 C1243 1.415 . S
C1246 H1236 0.930 . S
C1246 C1244 1.419 . S
C1246 C1247 1.362 . S
C1247 H1237 0.930 . S
C1247 C1240 1.409 . S
C1247 C1246 1.362 . S
H1248 C1254 0.930 . S
H1249 C1257 0.930 . S
H1250 C1258 0.930 . S
H1251 C1259 0.930 . S
H1252 C1262 0.930 . S
H1253 C1263 0.930 . S
C1254 H1248 0.930 . S
C1254 C1255 1.355 . S
C1254 C1256 1.415 . S
C1255 C1254 1.355 . S
C1255 C1257 1.419 . S
C1256 C1254 1.415 . S
C1256 C1261 1.425 . S
C1256 C1263 1.409 . S
C1257 H1249 0.930 . S
C1257 C1255 1.419 . S
C1257 C1258 1.362 . S
C1258 H1250 0.930 . S
C1258 C1257 1.362 . S
C1258 C1261 1.409 . S
C1259 H1251 0.930 . S
C1259 C1260 1.355 . S
C1259 C1261 1.415 . S
C1260 C1259 1.355 . S
C1260 C1262 1.419 . S
C1261 C1256 1.425 . S
C1261 C1258 1.409 . S
C1261 C1259 1.415 . S
C1262 H1252 0.930 . S
C1262 C1260 1.419 . S
C1262 C1263 1.362 . S
C1263 H1253 0.930 . S
C1263 C1256 1.409 . S
C1263 C1262 1.362 . S
H1264 C1270 0.930 . S
H1265 C1273 0.930 . S
H1266 C1274 0.916 1_655 S
H1267 C1275 0.930 . S
H1268 C1278 0.930 . S
H1269 C1279 0.930 . S
C1270 H1264 0.930 . S
C1270 C1271 1.355 . S
C1270 C1272 1.415 . S
C1271 C1270 1.355 . S
C1271 C1273 1.419 1_455 S
C1272 C1270 1.415 . S
C1272 C1277 1.425 . S
C1272 C1279 1.409 . S
C1273 H1265 0.930 . S
C1273 C1271 1.419 1_655 S
C1273 C1274 1.354 1_655 S
C1274 H1266 0.916 1_455 S
C1274 C1273 1.354 1_455 S
C1274 C1277 1.433 . S
C1275 H1267 0.930 . S
C1275 C1276 1.355 . S
C1275 C1277 1.415 . S
C1276 C1275 1.355 . S
C1276 C1278 1.419 . S
C1277 C1272 1.425 . S
C1277 C1274 1.433 . S
C1277 C1275 1.415 . S
C1278 H1268 0.930 . S
C1278 C1276 1.419 . S
C1278 C1279 1.362 . S
C1279 H1269 0.930 . S
C1279 C1272 1.409 . S
C1279 C1278 1.362 . S
H1280 C1286 0.930 . S
H1281 C1289 0.930 . S
H1282 C1290 0.930 . S
H1283 C1291 0.930 . S
H1284 C1294 0.930 . S
H1285 C1295 0.930 . S
C1286 H1280 0.930 . S
C1286 C1287 1.355 . S
C1286 C1288 1.415 . S
C1287 C1286 1.355 . S
C1287 C1289 1.419 . S
C1288 C1286 1.415 . S
C1288 C1293 1.425 . S
C1288 C1295 1.409 . S
C1289 H1281 0.930 . S
C1289 C1287 1.419 . S
C1289 C1290 1.362 . S
C1290 H1282 0.930 . S
C1290 C1289 1.362 . S
C1290 C1293 1.409 . S
C1291 H1283 0.930 . S
C1291 C1292 1.355 . S
C1291 C1293 1.415 . S
C1292 C1291 1.355 . S
C1292 C1294 1.419 . S
C1293 C1288 1.425 . S
C1293 C1290 1.409 . S
C1293 C1291 1.415 . S
C1294 H1284 0.930 . S
C1294 C1292 1.419 . S
C1294 C1295 1.362 . S
C1295 H1285 0.930 . S
C1295 C1288 1.409 . S
C1295 C1294 1.362 . S
H1296 C1302 0.930 . S
H1297 C1305 0.930 . S
H1298 C1306 0.930 . S
H1299 C1307 0.930 . S
H1300 C1310 0.930 . S
H1301 C1311 0.930 . S
C1302 H1296 0.930 . S
C1302 C1303 1.355 . S
C1302 C1304 1.415 . S
C1303 C1302 1.355 . S
C1303 C1305 1.419 . S
C1304 C1302 1.415 . S
C1304 C1309 1.425 . S
C1304 C1311 1.409 . S
C1305 H1297 0.930 . S
C1305 C1303 1.419 . S
C1305 C1306 1.362 . S
C1306 H1298 0.930 . S
C1306 C1305 1.362 . S
C1306 C1309 1.409 . S
C1307 H1299 0.930 . S
C1307 C1308 1.355 . S
C1307 C1309 1.415 . S
C1308 C1307 1.355 . S
C1308 C1310 1.419 . S
C1309 C1304 1.425 . S
C1309 C1306 1.409 . S
C1309 C1307 1.415 . S
C1310 H1300 0.930 . S
C1310 C1308 1.419 . S
C1310 C1311 1.362 . S
C1311 H1301 0.930 . S
C1311 C1304 1.409 . S
C1311 C1310 1.362 . S
H1312 C1318 0.930 . S
H1313 C1321 0.930 . S
H1314 C1322 0.930 . S
H1315 C1323 0.930 . S
H1316 C1326 0.930 . S
H1317 C1327 0.930 . S
C1318 H1312 0.930 . S
C1318 C1319 1.355 . S
C1318 C1320 1.415 . S
C1319 C1318 1.355 . S
C1319 C1321 1.419 . S
C1320 C1318 1.415 . S
C1320 C1325 1.425 . S
C1320 C1327 1.409 . S
C1321 H1313 0.930 . S
C1321 C1319 1.419 . S
C1321 C1322 1.362 . S
C1322 H1314 0.930 . S
C1322 C1321 1.362 . S
C1322 C1325 1.409 . S
C1323 H1315 0.930 . S
C1323 C1324 1.355 . S
C1323 C1325 1.415 . S
C1324 C1323 1.355 . S
C1324 C1326 1.419 . S
C1325 C1320 1.425 . S
C1325 C1322 1.409 . S
C1325 C1323 1.415 . S
C1326 H1316 0.930 . S
C1326 C1324 1.419 . S
C1326 C1327 1.362 . S
C1327 H1317 0.930 . S
C1327 C1320 1.409 . S
C1327 C1326 1.362 . S
H1328 C1334 0.930 . S
H1329 C1337 0.930 . S
H1330 C1338 0.930 . S
H1331 C1339 0.930 . S
H1332 C1342 0.930 . S
H1333 C1343 0.930 . S
C1334 H1328 0.930 . S
C1334 C1335 1.355 . S
C1334 C1336 1.415 . S
C1335 C1334 1.355 . S
C1335 C1337 1.419 . S
C1336 C1334 1.415 . S
C1336 C1341 1.425 . S
C1336 C1343 1.409 . S
C1337 H1329 0.930 . S
C1337 C1335 1.419 . S
C1337 C1338 1.362 . S
C1338 H1330 0.930 . S
C1338 C1337 1.362 . S
C1338 C1341 1.409 . S
C1339 H1331 0.930 . S
C1339 C1340 1.355 . S
C1339 C1341 1.415 . S
C1340 C1339 1.355 . S
C1340 C1342 1.419 . S
C1341 C1336 1.425 . S
C1341 C1338 1.409 . S
C1341 C1339 1.415 . S
C1342 H1332 0.930 . S
C1342 C1340 1.419 . S
C1342 C1343 1.362 . S
C1343 H1333 0.930 . S
C1343 C1336 1.409 . S
C1343 C1342 1.362 . S
H1344 C1350 0.930 . S
H1345 C1353 0.930 . S
H1346 C1354 0.930 . S
H1347 C1355 0.930 . S
H1348 C1358 0.930 . S
H1349 C1359 0.930 . S
C1350 H1344 0.930 . S
C1350 C1351 1.355 . S
C1350 C1352 1.415 . S
C1351 C1350 1.355 . S
C1351 C1353 1.419 . S
C1352 C1350 1.415 . S
C1352 C1357 1.425 . S
C1352 C1359 1.409 . S
C1353 H1345 0.930 . S
C1353 C1351 1.419 . S
C1353 C1354 1.362 . S
C1354 H1346 0.930 . S
C1354 C1353 1.362 . S
C1354 C1357 1.409 . S
C1355 H1347 0.930 . S
C1355 C1356 1.355 . S
C1355 C1357 1.415 . S
C1356 C1355 1.355 . S
C1356 C1358 1.419 . S
C1357 C1352 1.425 . S
C1357 C1354 1.409 . S
C1357 C1355 1.415 . S
C1358 H1348 0.930 . S
C1358 C1356 1.419 . S
C1358 C1359 1.362 . S
C1359 H1349 0.930 . S
C1359 C1352 1.409 . S
C1359 C1358 1.362 . S
H1360 C1366 0.913 1_565 S
H1361 C1369 0.930 . S
H1362 C1370 0.930 . S
H1363 C1371 0.930 . S
H1364 C1374 0.929 . S
H1365 C1375 0.930 . S
C1366 H1360 0.913 1_545 S
C1366 C1367 1.367 . S
C1366 C1368 1.420 . S
C1367 C1366 1.367 . S
C1367 C1369 1.419 . S
C1368 C1366 1.420 . S
C1368 C1373 1.425 . S
C1368 C1375 1.409 1_545 S
C1369 H1361 0.930 . S
C1369 C1367 1.419 . S
C1369 C1370 1.362 . S
C1370 H1362 0.930 . S
C1370 C1369 1.362 . S
C1370 C1373 1.409 . S
C1371 H1363 0.930 . S
C1371 C1372 1.355 . S
C1371 C1373 1.415 . S
C1372 C1371 1.355 . S
C1372 C1374 1.420 1_545 S
C1373 C1368 1.425 . S
C1373 C1370 1.409 . S
C1373 C1371 1.415 . S
C1374 H1364 0.929 . S
C1374 C1372 1.420 1_565 S
C1374 C1375 1.362 . S
C1375 H1365 0.930 . S
C1375 C1368 1.409 1_565 S
C1375 C1374 1.362 . S
H1376 C1382 0.930 . S
H1377 C1385 0.930 . S
H1378 C1386 0.930 . S
H1379 C1387 0.930 . S
H1380 C1390 0.930 . S
H1381 C1391 0.930 . S
C1382 H1376 0.930 . S
C1382 C1383 1.355 . S
C1382 C1384 1.415 . S
C1383 C1382 1.355 . S
C1383 C1385 1.419 . S
C1384 C1382 1.415 . S
C1384 C1389 1.425 . S
C1384 C1391 1.409 . S
C1385 H1377 0.930 . S
C1385 C1383 1.419 . S
C1385 C1386 1.362 . S
C1386 H1378 0.930 . S
C1386 C1385 1.362 . S
C1386 C1389 1.409 . S
C1387 H1379 0.930 . S
C1387 C1388 1.355 . S
C1387 C1389 1.415 . S
C1388 C1387 1.355 . S
C1388 C1390 1.419 . S
C1389 C1384 1.425 . S
C1389 C1386 1.409 . S
C1389 C1387 1.415 . S
C1390 H1380 0.930 . S
C1390 C1388 1.419 . S
C1390 C1391 1.362 . S
C1391 H1381 0.930 . S
C1391 C1384 1.409 . S
C1391 C1390 1.362 . S
H1392 C1398 0.930 . S
H1393 C1401 0.930 . S
H1394 C1402 0.930 . S
H1395 C1403 0.930 1_455 S
H1396 C1406 0.930 . S
H1397 C1407 0.930 . S
C1398 H1392 0.930 . S
C1398 C1399 1.355 . S
C1398 C1400 1.415 . S
C1399 C1398 1.355 . S
C1399 C1401 1.419 . S
C1400 C1398 1.415 . S
C1400 C1405 1.425 . S
C1400 C1407 1.409 . S
C1401 H1393 0.930 . S
C1401 C1399 1.419 . S
C1401 C1402 1.362 . S
C1402 H1394 0.930 . S
C1402 C1401 1.362 . S
C1402 C1405 1.409 . S
C1403 H1395 0.930 1_655 S
C1403 C1404 1.355 . S
C1403 C1405 1.415 . S
C1404 C1403 1.355 . S
C1404 C1406 1.419 . S
C1405 C1400 1.425 . S
C1405 C1402 1.409 . S
C1405 C1403 1.415 . S
C1406 H1396 0.930 . S
C1406 C1404 1.419 . S
C1406 C1407 1.362 . S
C1407 H1397 0.930 . S
C1407 C1400 1.409 . S
C1407 C1406 1.362 . S
H1408 C1414 0.930 . S
H1409 C1417 0.930 . S
H1410 C1418 0.930 . S
H1411 C1419 0.930 . S
H1412 C1422 0.930 . S
H1413 C1423 0.930 . S
C1414 H1408 0.930 . S
C1414 C1415 1.355 . S
C1414 C1416 1.415 . S
C1415 C1414 1.355 . S
C1415 C1417 1.419 . S
C1416 C1414 1.415 . S
C1416 C1421 1.425 . S
C1416 C1423 1.409 . S
C1417 H1409 0.930 . S
C1417 C1415 1.419 . S
C1417 C1418 1.362 . S
C1418 H1410 0.930 . S
C1418 C1417 1.362 . S
C1418 C1421 1.409 . S
C1419 H1411 0.930 . S
C1419 C1420 1.355 . S
C1419 C1421 1.415 . S
C1420 C1419 1.355 . S
C1420 C1422 1.419 . S
C1421 C1416 1.425 . S
C1421 C1418 1.409 . S
C1421 C1419 1.415 . S
C1422 H1412 0.930 . S
C1422 C1420 1.419 . S
C1422 C1423 1.362 . S
C1423 H1413 0.930 . S
C1423 C1416 1.409 . S
C1423 C1422 1.362 . S
H1424 C1430 0.930 . S
H1425 C1433 0.930 . S
H1426 C1434 0.930 . S
H1427 C1435 0.930 . S
H1428 C1438 0.930 . S
H1429 C1439 0.930 . S
C1430 H1424 0.930 . S
C1430 C1431 1.355 . S
C1430 C1432 1.415 . S
C1431 C1430 1.355 . S
C1431 C1433 1.419 . S
C1432 C1430 1.415 . S
C1432 C1437 1.425 . S
C1432 C1439 1.409 . S
C1433 H1425 0.930 . S
C1433 C1431 1.419 . S
C1433 C1434 1.362 . S
C1434 H1426 0.930 . S
C1434 C1433 1.362 . S
C1434 C1437 1.409 . S
C1435 H1427 0.930 . S
C1435 C1436 1.355 . S
C1435 C1437 1.415 . S
C1436 C1435 1.355 . S
C1436 C1438 1.419 . S
C1437 C1432 1.425 . S
C1437 C1434 1.409 . S
C1437 C1435 1.415 . S
C1438 H1428 0.930 . S
C1438 C1436 1.419 . S
C1438 C1439 1.362 . S
C1439 H1429 0.930 . S
C1439 C1432 1.409 . S
C1439 C1438 1.362 . S
H1440 C1446 0.930 . S
H1441 C1449 0.930 . S
H1442 C1450 0.930 . S
H1443 C1451 0.930 . S
H1444 C1454 0.930 . S
H1445 C1455 0.930 . S
C1446 H1440 0.930 . S
C1446 C1447 1.355 . S
C1446 C1448 1.415 . S
C1447 C1446 1.355 . S
C1447 C1449 1.419 . S
C1448 C1446 1.415 . S
C1448 C1453 1.425 . S
C1448 C1455 1.409 . S
C1449 H1441 0.930 . S
C1449 C1447 1.419 . S
C1449 C1450 1.362 . S
C1450 H1442 0.930 . S
C1450 C1449 1.362 . S
C1450 C1453 1.409 . S
C1451 H1443 0.930 . S
C1451 C1452 1.355 . S
C1451 C1453 1.415 . S
C1452 C1451 1.355 . S
C1452 C1454 1.419 . S
C1453 C1448 1.425 . S
C1453 C1450 1.409 . S
C1453 C1451 1.415 . S
C1454 H1444 0.930 . S
C1454 C1452 1.419 . S
C1454 C1455 1.362 . S
C1455 H1445 0.930 . S
C1455 C1448 1.409 . S
C1455 C1454 1.362 . S
H1456 C1462 0.930 . S
H1457 C1465 0.930 . S
H1458 C1466 0.930 1_545 S
H1459 C1467 0.930 . S
H1460 C1470 0.930 . S
H1461 C1471 0.930 . S
C1462 H1456 0.930 . S
C1462 C1463 1.355 . S
C1462 C1464 1.415 . S
C1463 C1462 1.355 . S
C1463 C1465 1.419 . S
C1464 C1462 1.415 . S
C1464 C1469 1.425 . S
C1464 C1471 1.409 . S
C1465 H1457 0.930 . S
C1465 C1463 1.419 . S
C1465 C1466 1.362 . S
C1466 H1458 0.930 1_565 S
C1466 C1465 1.362 . S
C1466 C1469 1.409 . S
C1467 H1459 0.930 . S
C1467 C1468 1.357 . S
C1467 C1469 1.415 1_545 S
C1468 C1467 1.357 . S
C1468 C1470 1.410 1_545 S
C1469 C1464 1.425 . S
C1469 C1466 1.409 . S
C1469 C1467 1.415 1_565 S
C1470 H1460 0.930 . S
C1470 C1468 1.410 1_565 S
C1470 C1471 1.362 . S
C1471 H1461 0.930 . S
C1471 C1464 1.409 . S
C1471 C1470 1.362 . S
H1472 C1478 0.930 . S
H1473 C1481 0.930 . S
H1474 C1482 0.930 . S
H1475 C1483 0.930 . S
H1476 C1486 0.930 . S
H1477 C1487 0.930 . S
C1478 H1472 0.930 . S
C1478 C1479 1.355 . S
C1478 C1480 1.415 . S
C1479 C1478 1.355 . S
C1479 C1481 1.419 . S
C1480 C1478 1.415 . S
C1480 C1485 1.425 . S
C1480 C1487 1.409 . S
C1481 H1473 0.930 . S
C1481 C1479 1.419 . S
C1481 C1482 1.362 . S
C1482 H1474 0.930 . S
C1482 C1481 1.362 . S
C1482 C1485 1.409 . S
C1483 H1475 0.930 . S
C1483 C1484 1.355 . S
C1483 C1485 1.415 . S
C1484 C1483 1.355 . S
C1484 C1486 1.419 . S
C1485 C1480 1.425 . S
C1485 C1482 1.409 . S
C1485 C1483 1.415 . S
C1486 H1476 0.930 . S
C1486 C1484 1.419 . S
C1486 C1487 1.362 . S
C1487 H1477 0.930 . S
C1487 C1480 1.409 . S
C1487 C1486 1.362 . S
H1488 C1494 0.930 . S
H1489 C1497 0.930 . S
H1490 C1498 0.930 . S
H1491 C1499 0.930 . S
H1492 C1502 0.930 . S
H1493 C1503 0.930 . S
C1494 H1488 0.930 . S
C1494 C1495 1.355 . S
C1494 C1496 1.415 . S
C1495 C1494 1.355 . S
C1495 C1497 1.419 . S
C1496 C1494 1.415 . S
C1496 C1501 1.425 . S
C1496 C1503 1.409 . S
C1497 H1489 0.930 . S
C1497 C1495 1.419 . S
C1497 C1498 1.362 . S
C1498 H1490 0.930 . S
C1498 C1497 1.362 . S
C1498 C1501 1.409 . S
C1499 H1491 0.930 . S
C1499 C1500 1.355 . S
C1499 C1501 1.415 . S
C1500 C1499 1.355 . S
C1500 C1502 1.419 . S
C1501 C1496 1.425 . S
C1501 C1498 1.409 . S
C1501 C1499 1.415 . S
C1502 H1492 0.930 . S
C1502 C1500 1.419 . S
C1502 C1503 1.362 . S
C1503 H1493 0.930 . S
C1503 C1496 1.409 . S
C1503 C1502 1.362 . S
H1504 C1510 0.930 . S
H1505 C1513 0.930 . S
H1506 C1514 0.930 . S
H1507 C1515 0.930 . S
H1508 C1518 0.930 . S
H1509 C1519 0.930 . S
C1510 H1504 0.930 . S
C1510 C1511 1.355 . S
C1510 C1512 1.415 . S
C1511 C1510 1.355 . S
C1511 C1513 1.419 . S
C1512 C1510 1.415 . S
C1512 C1517 1.425 . S
C1512 C1519 1.409 . S
C1513 H1505 0.930 . S
C1513 C1511 1.419 . S
C1513 C1514 1.362 . S
C1514 H1506 0.930 . S
C1514 C1513 1.362 . S
C1514 C1517 1.409 . S
C1515 H1507 0.930 . S
C1515 C1516 1.355 . S
C1515 C1517 1.415 . S
C1516 C1515 1.355 . S
C1516 C1518 1.419 . S
C1517 C1512 1.425 . S
C1517 C1514 1.409 . S
C1517 C1515 1.415 . S
C1518 H1508 0.930 . S
C1518 C1516 1.419 . S
C1518 C1519 1.362 . S
C1519 H1509 0.930 . S
C1519 C1512 1.409 . S
C1519 C1518 1.362 . S
H1520 C1526 0.930 . S
H1521 C1529 0.930 . S
H1522 C1530 0.930 . S
H1523 C1531 0.930 . S
H1524 C1534 0.930 . S
H1525 C1535 0.930 . S
C1526 H1520 0.930 . S
C1526 C1527 1.355 . S
C1526 C1528 1.415 . S
C1527 C1526 1.355 . S
C1527 C1529 1.419 . S
C1528 C1526 1.415 . S
C1528 C1533 1.425 . S
C1528 C1535 1.409 . S
C1529 H1521 0.930 . S
C1529 C1527 1.419 . S
C1529 C1530 1.362 . S
C1530 H1522 0.930 . S
C1530 C1529 1.362 . S
C1530 C1533 1.409 . S
C1531 H1523 0.930 . S
C1531 C1532 1.355 . S
C1531 C1533 1.415 . S
C1532 C1531 1.355 . S
C1532 C1534 1.419 . S
C1533 C1528 1.425 . S
C1533 C1530 1.409 . S
C1533 C1531 1.415 . S
C1534 H1524 0.930 . S
C1534 C1532 1.419 . S
C1534 C1535 1.362 . S
C1535 H1525 0.930 . S
C1535 C1528 1.409 . S
C1535 C1534 1.362 . S
H1536 C1542 0.930 . S
H1537 C1545 0.930 . S
H1538 C1546 0.930 . S
H1539 C1547 0.930 . S
H1540 C1550 0.930 . S
H1541 C1551 0.930 . S
C1542 H1536 0.930 . S
C1542 C1543 1.355 . S
C1542 C1544 1.415 . S
C1543 C1542 1.355 . S
C1543 C1545 1.419 . S
C1544 C1542 1.415 . S
C1544 C1549 1.425 . S
C1544 C1551 1.409 . S
C1545 H1537 0.930 . S
C1545 C1543 1.419 . S
C1545 C1546 1.362 . S
C1546 H1538 0.930 . S
C1546 C1545 1.362 . S
C1546 C1549 1.409 . S
C1547 H1539 0.930 . S
C1547 C1548 1.355 . S
C1547 C1549 1.415 . S
C1548 C1547 1.355 . S
C1548 C1550 1.419 . S
C1549 C1544 1.425 . S
C1549 C1546 1.409 . S
C1549 C1547 1.415 . S
C1550 H1540 0.930 . S
C1550 C1548 1.419 . S
C1550 C1551 1.362 . S
C1551 H1541 0.930 . S
C1551 C1544 1.409 . S
C1551 C1550 1.362 . S
H1552 C1558 0.930 . S
H1553 C1561 0.930 . S
H1554 C1562 0.930 . S
H1555 C1563 0.930 . S
H1556 C1566 0.930 . S
H1557 C1567 0.930 . S
C1558 H1552 0.930 . S
C1558 C1559 1.355 . S
C1558 C1560 1.415 . S
C1559 C1558 1.355 . S
C1559 C1561 1.419 . S
C1560 C1558 1.415 . S
C1560 C1565 1.425 . S
C1560 C1567 1.409 . S
C1561 H1553 0.930 . S
C1561 C1559 1.419 . S
C1561 C1562 1.362 . S
C1562 H1554 0.930 . S
C1562 C1561 1.362 . S
C1562 C1565 1.409 . S
C1563 H1555 0.930 . S
C1563 C1564 1.355 . S
C1563 C1565 1.415 . S
C1564 C1563 1.355 . S
C1564 C1566 1.419 . S
C1565 C1560 1.425 . S
C1565 C1562 1.409 . S
C1565 C1563 1.415 . S
C1566 H1556 0.930 . S
C1566 C1564 1.419 . S
C1566 C1567 1.362 . S
C1567 H1557 0.930 . S
C1567 C1560 1.409 . S
C1567 C1566 1.362 . S
H1568 C1574 0.930 . S
H1569 C1577 0.930 . S
H1570 C1578 0.930 . S
H1571 C1579 0.930 . S
H1572 C1582 0.930 . S
H1573 C1583 0.930 . S
C1574 H1568 0.930 . S
C1574 C1575 1.355 . S
C1574 C1576 1.415 . S
C1575 C1574 1.355 . S
C1575 C1577 1.419 . S
C1576 C1574 1.415 . S
C1576 C1581 1.425 . S
C1576 C1583 1.409 . S
C1577 H1569 0.930 . S
C1577 C1575 1.419 . S
C1577 C1578 1.362 . S
C1578 H1570 0.930 . S
C1578 C1577 1.362 . S
C1578 C1581 1.409 . S
C1579 H1571 0.930 . S
C1579 C1580 1.355 . S
C1579 C1581 1.415 . S
C1580 C1579 1.355 . S
C1580 C1582 1.419 . S
C1581 C1576 1.425 . S
C1581 C1578 1.409 . S
C1581 C1579 1.415 . S
C1582 H1572 0.930 . S
C1582 C1580 1.419 . S
C1582 C1583 1.362 . S
C1583 H1573 0.930 . S
C1583 C1576 1.409 . S
C1583 C1582 1.362 . S
H1584 C1590 0.930 . S
H1585 C1593 0.930 . S
H1586 C1594 0.930 . S
H1587 C1595 0.930 . S
H1588 C1598 0.930 . S
H1589 C1599 0.930 . S
C1590 H1584 0.930 . S
C1590 C1591 1.355 . S
C1590 C1592 1.415 . S
C1591 C1590 1.355 . S
C1591 C1593 1.419 . S
C1592 C1590 1.415 . S
C1592 C1597 1.425 . S
C1592 C1599 1.409 . S
C1593 H1585 0.930 . S
C1593 C1591 1.419 . S
C1593 C1594 1.362 . S
C1594 H1586 0.930 . S
C1594 C1593 1.362 . S
C1594 C1597 1.409 . S
C1595 H1587 0.930 . S
C1595 C1596 1.355 . S
C1595 C1597 1.415 . S
C1596 C1595 1.355 . S
C1596 C1598 1.419 . S
C1597 C1592 1.425 . S
C1597 C1594 1.409 . S
C1597 C1595 1.415 . S
C1598 H1588 0.930 . S
C1598 C1596 1.419 . S
C1598 C1599 1.362 . S
C1599 H1589 0.930 . S
C1599 C1592 1.409 . S
C1599 C1598 1.362 . S
H1600 C1606 0.930 . S
H1601 C1609 0.930 . S
H1602 C1610 0.930 . S
H1603 C1611 0.930 . S
H1604 C1614 0.930 . S
H1605 C1615 0.930 . S
C1606 H1600 0.930 . S
C1606 C1607 1.355 . S
C1606 C1608 1.415 . S
C1607 C1606 1.355 . S
C1607 C1609 1.419 . S
C1608 C1606 1.415 . S
C1608 C1613 1.425 . S
C1608 C1615 1.409 . S
C1609 H1601 0.930 . S
C1609 C1607 1.419 . S
C1609 C1610 1.362 . S
C1610 H1602 0.930 . S
C1610 C1609 1.362 . S
C1610 C1613 1.409 . S
C1611 H1603 0.930 . S
C1611 C1612 1.355 . S
C1611 C1613 1.415 . S
C1612 C1611 1.355 . S
C1612 C1614 1.419 . S
C1613 C1608 1.425 . S
C1613 C1610 1.409 . S
C1613 C1611 1.415 . S
C1614 H1604 0.930 . S
C1614 C1612 1.419 . S
C1614 C1615 1.362 . S
C1615 H1605 0.930 . S
C1615 C1608 1.409 . S
C1615 C1614 1.362 . S
H1616 C1622 0.930 . S
H1617 C1625 0.930 . S
H1618 C1626 0.930 . S
H1619 C1627 0.930 . S
H1620 C1630 0.930 . S
H1621 C1631 0.930 . S
C1622 H1616 0.930 . S
C1622 C1623 1.355 . S
C1622 C1624 1.415 . S
C1623 C1622 1.355 . S
C1623 C1625 1.419 . S
C1624 C1622 1.415 . S
C1624 C1629 1.425 . S
C1624 C1631 1.409 . S
C1625 H1617 0.930 . S
C1625 C1623 1.419 . S
C1625 C1626 1.362 . S
C1626 H1618 0.930 . S
C1626 C1625 1.362 . S
C1626 C1629 1.409 . S
C1627 H1619 0.930 . S
C1627 C1628 1.355 . S
C1627 C1629 1.415 . S
C1628 C1627 1.355 . S
C1628 C1630 1.419 . S
C1629 C1624 1.425 . S
C1629 C1626 1.409 . S
C1629 C1627 1.415 . S
C1630 H1620 0.930 . S
C1630 C1628 1.419 . S
C1630 C1631 1.362 . S
C1631 H1621 0.930 . S
C1631 C1624 1.409 . S
C1631 C1630 1.362 . S
H1632 C1638 0.930 . S
H1633 C1641 0.930 1_455 S
H1634 C1642 0.930 . S
H1635 C1643 0.930 . S
H1636 C1646 0.930 . S
H1637 C1647 0.930 . S
C1638 H1632 0.930 . S
C1638 C1639 1.355 . S
C1638 C1640 1.415 . S
C1639 C1638 1.355 . S
C1639 C1641 1.419 . S
C1640 C1638 1.415 . S
C1640 C1645 1.425 . S
C1640 C1647 1.409 . S
C1641 H1633 0.930 1_655 S
C1641 C1639 1.419 . S
C1641 C1642 1.362 . S
C1642 H1634 0.930 . S
C1642 C1641 1.362 . S
C1642 C1645 1.409 . S
C1643 H1635 0.930 . S
C1643 C1644 1.355 . S
C1643 C1645 1.415 . S
C1644 C1643 1.355 . S
C1644 C1646 1.419 . S
C1645 C1640 1.425 . S
C1645 C1642 1.409 . S
C1645 C1643 1.415 . S
C1646 H1636 0.930 . S
C1646 C1644 1.419 . S
C1646 C1647 1.362 . S
C1647 H1637 0.930 . S
C1647 C1640 1.409 . S
C1647 C1646 1.362 . S
H1648 C1654 0.930 . S
H1649 C1657 0.930 . S
H1650 C1658 0.930 . S
H1651 C1659 0.930 . S
H1652 C1662 0.930 . S
H1653 C1663 0.923 1_554 S
C1654 H1648 0.930 . S
C1654 C1655 1.355 . S
C1654 C1656 1.415 . S
C1655 C1654 1.355 . S
C1655 C1657 1.419 . S
C1656 C1654 1.415 . S
C1656 C1661 1.425 . S
C1656 C1663 1.421 . S
C1657 H1649 0.930 . S
C1657 C1655 1.419 . S
C1657 C1658 1.362 . S
C1658 H1650 0.930 . S
C1658 C1657 1.362 . S
C1658 C1661 1.409 . S
C1659 H1651 0.930 . S
C1659 C1660 1.355 . S
C1659 C1661 1.415 . S
C1660 C1659 1.355 . S
C1660 C1662 1.419 1_556 S
C1661 C1656 1.425 . S
C1661 C1658 1.409 . S
C1661 C1659 1.415 . S
C1662 H1652 0.930 . S
C1662 C1660 1.419 1_554 S
C1662 C1663 1.358 1_554 S
C1663 H1653 0.923 1_556 S
C1663 C1656 1.421 . S
C1663 C1662 1.358 1_556 S
H1664 C1670 0.930 . S
H1665 C1673 0.930 . S
H1666 C1674 0.930 . S
H1667 C1675 0.930 . S
H1668 C1678 0.930 . S
H1669 C1679 0.930 . S
C1670 H1664 0.930 . S
C1670 C1671 1.355 . S
C1670 C1672 1.415 . S
C1671 C1670 1.355 . S
C1671 C1673 1.419 . S
C1672 C1670 1.415 . S
C1672 C1677 1.425 . S
C1672 C1679 1.409 . S
C1673 H1665 0.930 . S
C1673 C1671 1.419 . S
C1673 C1674 1.362 . S
C1674 H1666 0.930 . S
C1674 C1673 1.362 . S
C1674 C1677 1.409 . S
C1675 H1667 0.930 . S
C1675 C1676 1.355 . S
C1675 C1677 1.415 . S
C1676 C1675 1.355 . S
C1676 C1678 1.419 . S
C1677 C1672 1.425 . S
C1677 C1674 1.409 . S
C1677 C1675 1.415 . S
C1678 H1668 0.930 . S
C1678 C1676 1.419 . S
C1678 C1679 1.362 . S
C1679 H1669 0.930 . S
C1679 C1672 1.409 . S
C1679 C1678 1.362 . S
H1680 C1686 0.930 . S
H1681 C1689 0.930 . S
H1682 C1690 0.930 . S
H1683 C1691 0.930 . S
H1684 C1694 0.930 . S
H1685 C1695 0.930 . S
C1686 H1680 0.930 . S
C1686 C1687 1.355 . S
C1686 C1688 1.415 . S
C1687 C1686 1.355 . S
C1687 C1689 1.419 . S
C1688 C1686 1.415 . S
C1688 C1693 1.425 . S
C1688 C1695 1.409 . S
C1689 H1681 0.930 . S
C1689 C1687 1.419 . S
C1689 C1690 1.362 . S
C1690 H1682 0.930 . S
C1690 C1689 1.362 . S
C1690 C1693 1.409 . S
C1691 H1683 0.930 . S
C1691 C1692 1.355 . S
C1691 C1693 1.415 . S
C1692 C1691 1.355 . S
C1692 C1694 1.419 . S
C1693 C1688 1.425 . S
C1693 C1690 1.409 . S
C1693 C1691 1.415 . S
C1694 H1684 0.930 . S
C1694 C1692 1.419 . S
C1694 C1695 1.362 . S
C1695 H1685 0.930 . S
C1695 C1688 1.409 . S
C1695 C1694 1.362 . S
H1696 C1702 0.930 . S
H1697 C1705 0.930 . S
H1698 C1706 0.930 . S
H1699 C1707 0.930 . S
H1700 C1710 0.930 . S
H1701 C1711 0.930 . S
C1702 H1696 0.930 . S
C1702 C1703 1.355 . S
C1702 C1704 1.415 . S
C1703 C1702 1.355 . S
C1703 C1705 1.419 . S
C1704 C1702 1.415 . S
C1704 C1709 1.425 . S
C1704 C1711 1.409 . S
C1705 H1697 0.930 . S
C1705 C1703 1.419 . S
C1705 C1706 1.362 . S
C1706 H1698 0.930 . S
C1706 C1705 1.362 . S
C1706 C1709 1.409 . S
C1707 H1699 0.930 . S
C1707 C1708 1.355 . S
C1707 C1709 1.415 . S
C1708 C1707 1.355 . S
C1708 C1710 1.419 . S
C1709 C1704 1.425 . S
C1709 C1706 1.409 . S
C1709 C1707 1.415 . S
C1710 H1700 0.930 . S
C1710 C1708 1.419 . S
C1710 C1711 1.362 . S
C1711 H1701 0.930 . S
C1711 C1704 1.409 . S
C1711 C1710 1.362 . S
H1712 C1718 0.930 . S
H1713 C1721 0.930 . S
H1714 C1722 0.930 . S
H1715 C1723 0.930 . S
H1716 C1726 0.930 . S
H1717 C1727 0.930 . S
C1718 H1712 0.930 . S
C1718 C1719 1.355 . S
C1718 C1720 1.415 . S
C1719 C1718 1.355 . S
C1719 C1721 1.419 . S
C1720 C1718 1.415 . S
C1720 C1725 1.425 . S
C1720 C1727 1.409 . S
C1721 H1713 0.930 . S
C1721 C1719 1.419 . S
C1721 C1722 1.362 . S
C1722 H1714 0.930 . S
C1722 C1721 1.362 . S
C1722 C1725 1.409 . S
C1723 H1715 0.930 . S
C1723 C1724 1.355 . S
C1723 C1725 1.415 . S
C1724 C1723 1.355 . S
C1724 C1726 1.419 . S
C1725 C1720 1.425 . S
C1725 C1722 1.409 . S
C1725 C1723 1.415 . S
C1726 H1716 0.930 . S
C1726 C1724 1.419 . S
C1726 C1727 1.362 . S
C1727 H1717 0.930 . S
C1727 C1720 1.409 . S
C1727 C1726 1.362 . S
H1728 C1734 0.930 . S
H1729 C1737 0.930 1_554 S
H1730 C1738 0.930 . S
H1731 C1739 0.930 . S
H1732 C1742 0.930 . S
H1733 C1743 0.930 . S
C1734 H1728 0.930 . S
C1734 C1735 1.355 . S
C1734 C1736 1.415 . S
C1735 C1734 1.355 . S
C1735 C1737 1.419 . S
C1736 C1734 1.415 . S
C1736 C1741 1.425 . S
C1736 C1743 1.409 . S
C1737 H1729 0.930 1_556 S
C1737 C1735 1.419 . S
C1737 C1738 1.362 . S
C1738 H1730 0.930 . S
C1738 C1737 1.362 . S
C1738 C1741 1.409 . S
C1739 H1731 0.930 . S
C1739 C1740 1.355 . S
C1739 C1741 1.415 . S
C1740 C1739 1.355 . S
C1740 C1742 1.419 . S
C1741 C1736 1.425 . S
C1741 C1738 1.409 . S
C1741 C1739 1.415 . S
C1742 H1732 0.930 . S
C1742 C1740 1.419 . S
C1742 C1743 1.362 . S
C1743 H1733 0.930 . S
C1743 C1736 1.409 . S
C1743 C1742 1.362 . S
H1744 C1750 0.930 . S
H1745 C1753 0.930 . S
H1746 C1754 0.936 . S
H1747 C1755 0.905 1_455 S
H1748 C1758 0.930 . S
H1749 C1759 0.930 . S
C1750 H1744 0.930 . S
C1750 C1751 1.355 . S
C1750 C1752 1.415 . S
C1751 C1750 1.355 . S
C1751 C1753 1.419 . S
C1752 C1750 1.415 . S
C1752 C1757 1.425 . S
C1752 C1759 1.409 . S
C1753 H1745 0.930 . S
C1753 C1751 1.419 . S
C1753 C1754 1.362 . S
C1754 H1746 0.936 . S
C1754 C1753 1.362 . S
C1754 C1757 1.409 . S
C1755 H1747 0.905 1_655 S
C1755 C1756 1.360 . S
C1755 C1757 1.433 . S
C1756 C1755 1.360 . S
C1756 C1758 1.419 . S
C1757 C1752 1.425 . S
C1757 C1754 1.409 . S
C1757 C1755 1.433 . S
C1758 H1748 0.930 . S
C1758 C1756 1.419 . S
C1758 C1759 1.362 . S
C1759 H1749 0.930 . S
C1759 C1752 1.409 . S
C1759 C1758 1.362 . S
H1760 C1766 0.930 . S
H1761 C1769 0.930 . S
H1762 C1770 0.930 . S
H1763 C1771 0.930 . S
H1764 C1774 0.930 . S
H1765 C1775 0.930 . S
C1766 H1760 0.930 . S
C1766 C1767 1.355 . S
C1766 C1768 1.415 . S
C1767 C1766 1.355 . S
C1767 C1769 1.419 . S
C1768 C1766 1.415 . S
C1768 C1773 1.425 . S
C1768 C1775 1.409 . S
C1769 H1761 0.930 . S
C1769 C1767 1.419 . S
C1769 C1770 1.362 . S
C1770 H1762 0.930 . S
C1770 C1769 1.362 . S
C1770 C1773 1.409 . S
C1771 H1763 0.930 . S
C1771 C1772 1.355 . S
C1771 C1773 1.415 . S
C1772 C1771 1.355 . S
C1772 C1774 1.419 . S
C1773 C1768 1.425 . S
C1773 C1770 1.409 . S
C1773 C1771 1.415 . S
C1774 H1764 0.930 . S
C1774 C1772 1.419 . S
C1774 C1775 1.362 . S
C1775 H1765 0.930 . S
C1775 C1768 1.409 . S
C1775 C1774 1.362 . S
H1776 C1782 0.930 . S
H1777 C1785 0.930 . S
H1778 C1786 0.930 . S
H1779 C1787 0.930 . S
H1780 C1790 0.930 . S
H1781 C1791 0.930 . S
C1782 H1776 0.930 . S
C1782 C1783 1.355 . S
C1782 C1784 1.415 . S
C1783 C1782 1.355 . S
C1783 C1785 1.419 . S
C1784 C1782 1.415 . S
C1784 C1789 1.425 . S
C1784 C1791 1.409 . S
C1785 H1777 0.930 . S
C1785 C1783 1.419 . S
C1785 C1786 1.362 . S
C1786 H1778 0.930 . S
C1786 C1785 1.362 . S
C1786 C1789 1.409 . S
C1787 H1779 0.930 . S
C1787 C1788 1.355 . S
C1787 C1789 1.415 . S
C1788 C1787 1.355 . S
C1788 C1790 1.419 . S
C1789 C1784 1.425 . S
C1789 C1786 1.409 . S
C1789 C1787 1.415 . S
C1790 H1780 0.930 . S
C1790 C1788 1.419 . S
C1790 C1791 1.362 . S
C1791 H1781 0.930 . S
C1791 C1784 1.409 . S
C1791 C1790 1.362 . S
H1792 C1798 0.930 . S
H1793 C1801 0.930 . S
H1794 C1802 0.930 . S
H1795 C1803 0.930 . S
H1796 C1806 0.930 . S
H1797 C1807 0.930 . S
C1798 H1792 0.930 . S
C1798 C1799 1.355 . S
C1798 C1800 1.415 . S
C1799 C1798 1.355 . S
C1799 C1801 1.419 . S
C1800 C1798 1.415 . S
C1800 C1805 1.425 . S
C1800 C1807 1.409 . S
C1801 H1793 0.930 . S
C1801 C1799 1.419 . S
C1801 C1802 1.362 . S
C1802 H1794 0.930 . S
C1802 C1801 1.362 . S
C1802 C1805 1.409 . S
C1803 H1795 0.930 . S
C1803 C1804 1.355 . S
C1803 C1805 1.415 . S
C1804 C1803 1.355 . S
C1804 C1806 1.419 . S
C1805 C1800 1.425 . S
C1805 C1802 1.409 . S
C1805 C1803 1.415 . S
C1806 H1796 0.930 . S
C1806 C1804 1.419 . S
C1806 C1807 1.362 . S
C1807 H1797 0.930 . S
C1807 C1800 1.409 . S
C1807 C1806 1.362 . S
H1808 C1814 0.930 . S
H1809 C1817 0.930 . S
H1810 C1818 0.930 . S
H1811 C1819 0.930 . S
H1812 C1822 0.930 . S
H1813 C1823 0.930 . S
C1814 H1808 0.930 . S
C1814 C1815 1.355 . S
C1814 C1816 1.415 . S
C1815 C1814 1.355 . S
C1815 C1817 1.419 . S
C1816 C1814 1.415 . S
C1816 C1821 1.425 . S
C1816 C1823 1.409 . S
C1817 H1809 0.930 . S
C1817 C1815 1.419 . S
C1817 C1818 1.362 . S
C1818 H1810 0.930 . S
C1818 C1817 1.362 . S
C1818 C1821 1.409 . S
C1819 H1811 0.930 . S
C1819 C1820 1.355 . S
C1819 C1821 1.415 . S
C1820 C1819 1.355 . S
C1820 C1822 1.419 . S
C1821 C1816 1.425 . S
C1821 C1818 1.409 . S
C1821 C1819 1.415 . S
C1822 H1812 0.930 . S
C1822 C1820 1.419 . S
C1822 C1823 1.362 . S
C1823 H1813 0.930 . S
C1823 C1816 1.409 . S
C1823 C1822 1.362 . S
H1824 C1830 0.930 . S
H1825 C1833 0.930 . S
H1826 C1834 0.930 . S
H1827 C1835 0.930 . S
H1828 C1838 0.930 . S
H1829 C1839 0.930 . S
C1830 H1824 0.930 . S
C1830 C1831 1.355 . S
C1830 C1832 1.415 . S
C1831 C1830 1.355 . S
C1831 C1833 1.419 . S
C1832 C1830 1.415 . S
C1832 C1837 1.425 . S
C1832 C1839 1.409 . S
C1833 H1825 0.930 . S
C1833 C1831 1.419 . S
C1833 C1834 1.362 . S
C1834 H1826 0.930 . S
C1834 C1833 1.362 . S
C1834 C1837 1.409 . S
C1835 H1827 0.930 . S
C1835 C1836 1.355 . S
C1835 C1837 1.415 . S
C1836 C1835 1.355 . S
C1836 C1838 1.419 . S
C1837 C1832 1.425 . S
C1837 C1834 1.409 . S
C1837 C1835 1.415 . S
C1838 H1828 0.930 . S
C1838 C1836 1.419 . S
C1838 C1839 1.362 . S
C1839 H1829 0.930 . S
C1839 C1832 1.409 . S
C1839 C1838 1.362 . S
H1840 C1846 0.930 . S
H1841 C1849 0.930 . S
H1842 C1850 0.930 . S
H1843 C1851 0.930 . S
H1844 C1854 0.930 . S
H1845 C1855 0.930 . S
C1846 H1840 0.930 . S
C1846 C1847 1.355 . S
C1846 C1848 1.415 . S
C1847 C1846 1.355 . S
C1847 C1849 1.419 . S
C1848 C1846 1.415 . S
C1848 C1853 1.425 . S
C1848 C1855 1.409 . S
C1849 H1841 0.930 . S
C1849 C1847 1.419 . S
C1849 C1850 1.362 . S
C1850 H1842 0.930 . S
C1850 C1849 1.362 . S
C1850 C1853 1.409 . S
C1851 H1843 0.930 . S
C1851 C1852 1.355 . S
C1851 C1853 1.415 . S
C1852 C1851 1.355 . S
C1852 C1854 1.419 . S
C1853 C1848 1.425 . S
C1853 C1850 1.409 . S
C1853 C1851 1.415 . S
C1854 H1844 0.930 . S
C1854 C1852 1.419 . S
C1854 C1855 1.362 . S
C1855 H1845 0.930 . S
C1855 C1848 1.409 . S
C1855 C1854 1.362 . S
H1856 C1862 0.930 . S
H1857 C1865 0.930 . S
H1858 C1866 0.930 . S
H1859 C1867 0.930 . S
H1860 C1870 0.930 . S
H1861 C1871 0.930 . S
C1862 H1856 0.930 . S
C1862 C1863 1.355 . S
C1862 C1864 1.415 . S
C1863 C1862 1.355 . S
C1863 C1865 1.419 . S
C1864 C1862 1.415 . S
C1864 C1869 1.425 . S
C1864 C1871 1.409 1_565 S
C1865 H1857 0.930 . S
C1865 C1863 1.419 . S
C1865 C1866 1.362 . S
C1866 H1858 0.930 . S
C1866 C1865 1.362 . S
C1866 C1869 1.409 . S
C1867 H1859 0.930 . S
C1867 C1868 1.355 1_565 S
C1867 C1869 1.415 . S
C1868 C1867 1.355 1_545 S
C1868 C1870 1.419 . S
C1869 C1864 1.425 . S
C1869 C1866 1.409 . S
C1869 C1867 1.415 . S
C1870 H1860 0.930 . S
C1870 C1868 1.419 . S
C1870 C1871 1.362 . S
C1871 H1861 0.930 . S
C1871 C1864 1.409 1_545 S
C1871 C1870 1.362 . S
H1872 C1878 0.930 . S
H1873 C1881 0.930 1_545 S
H1874 C1882 0.930 . S
H1875 C1883 0.930 . S
H1876 C1886 0.930 . S
H1877 C1887 0.930 . S
C1878 H1872 0.930 . S
C1878 C1879 1.355 . S
C1878 C1880 1.415 . S
C1879 C1878 1.355 . S
C1879 C1881 1.419 . S
C1880 C1878 1.415 . S
C1880 C1885 1.425 . S
C1880 C1887 1.409 . S
C1881 H1873 0.930 1_565 S
C1881 C1879 1.419 . S
C1881 C1882 1.362 . S
C1882 H1874 0.930 . S
C1882 C1881 1.362 . S
C1882 C1885 1.409 . S
C1883 H1875 0.930 . S
C1883 C1884 1.355 . S
C1883 C1885 1.415 . S
C1884 C1883 1.355 . S
C1884 C1886 1.419 . S
C1885 C1880 1.425 . S
C1885 C1882 1.409 . S
C1885 C1883 1.415 . S
C1886 H1876 0.930 . S
C1886 C1884 1.419 . S
C1886 C1887 1.362 . S
C1887 H1877 0.930 . S
C1887 C1880 1.409 . S
C1887 C1886 1.362 . S
H1888 C1894 0.930 . S
H1889 C1897 0.930 . S
H1890 C1898 0.930 . S
H1891 C1899 0.930 . S
H1892 C1902 0.930 . S
H1893 C1903 0.930 . S
C1894 H1888 0.930 . S
C1894 C1895 1.355 . S
C1894 C1896 1.415 . S
C1895 C1894 1.355 . S
C1895 C1897 1.419 . S
C1896 C1894 1.415 . S
C1896 C1901 1.425 . S
C1896 C1903 1.409 . S
C1897 H1889 0.930 . S
C1897 C1895 1.419 . S
C1897 C1898 1.362 . S
C1898 H1890 0.930 . S
C1898 C1897 1.362 . S
C1898 C1901 1.409 . S
C1899 H1891 0.930 . S
C1899 C1900 1.355 . S
C1899 C1901 1.415 . S
C1900 C1899 1.355 . S
C1900 C1902 1.419 . S
C1901 C1896 1.425 . S
C1901 C1898 1.409 . S
C1901 C1899 1.415 . S
C1902 H1892 0.930 . S
C1902 C1900 1.419 . S
C1902 C1903 1.362 . S
C1903 H1893 0.930 . S
C1903 C1896 1.409 . S
C1903 C1902 1.362 . S
H1904 C1910 0.930 . S
H1905 C1913 0.930 . S
H1906 C1914 0.930 . S
H1907 C1915 0.930 . S
H1908 C1918 0.930 . S
H1909 C1919 0.930 . S
C1910 H1904 0.930 . S
C1910 C1911 1.355 . S
C1910 C1912 1.415 . S
C1911 C1910 1.355 . S
C1911 C1913 1.419 . S
C1912 C1910 1.415 . S
C1912 C1917 1.425 . S
C1912 C1919 1.409 . S
C1913 H1905 0.930 . S
C1913 C1911 1.419 . S
C1913 C1914 1.362 . S
C1914 H1906 0.930 . S
C1914 C1913 1.362 . S
C1914 C1917 1.409 . S
C1915 H1907 0.930 . S
C1915 C1916 1.355 . S
C1915 C1917 1.415 . S
C1916 C1915 1.355 . S
C1916 C1918 1.419 . S
C1917 C1912 1.425 . S
C1917 C1914 1.409 . S
C1917 C1915 1.415 . S
C1918 H1908 0.930 . S
C1918 C1916 1.419 . S
C1918 C1919 1.362 . S
C1919 H1909 0.930 . S
C1919 C1912 1.409 . S
C1919 C1918 1.362 . S
H1920 C1926 0.930 . S
H1921 C1929 0.930 . S
H1922 C1930 0.930 . S
H1923 C1931 0.930 . S
H1924 C1934 0.930 1_556 S
H1925 C1935 0.930 1_556 S
C1926 H1920 0.930 . S
C1926 C1927 1.355 . S
C1926 C1928 1.415 . S
C1927 C1926 1.355 . S
C1927 C1929 1.419 . S
C1928 C1926 1.415 . S
C1928 C1933 1.425 . S
C1928 C1935 1.409 . S
C1929 H1921 0.930 . S
C1929 C1927 1.419 . S
C1929 C1930 1.362 . S
C1930 H1922 0.930 . S
C1930 C1929 1.362 . S
C1930 C1933 1.409 . S
C1931 H1923 0.930 . S
C1931 C1932 1.355 . S
C1931 C1933 1.415 . S
C1932 C1931 1.355 . S
C1932 C1934 1.419 . S
C1933 C1928 1.425 . S
C1933 C1930 1.409 . S
C1933 C1931 1.415 . S
C1934 H1924 0.930 1_554 S
C1934 C1932 1.419 . S
C1934 C1935 1.362 . S
C1935 H1925 0.930 1_554 S
C1935 C1928 1.409 . S
C1935 C1934 1.362 . S
H1936 C1942 0.930 . S
H1937 C1945 0.930 . S
H1938 C1946 0.930 . S
H1939 C1947 0.930 . S
H1940 C1950 0.930 . S
H1941 C1951 0.930 . S
C1942 H1936 0.930 . S
C1942 C1943 1.355 . S
C1942 C1944 1.415 . S
C1943 C1942 1.355 . S
C1943 C1945 1.419 . S
C1944 C1942 1.415 . S
C1944 C1949 1.425 . S
C1944 C1951 1.409 . S
C1945 H1937 0.930 . S
C1945 C1943 1.419 . S
C1945 C1946 1.362 . S
C1946 H1938 0.930 . S
C1946 C1945 1.362 . S
C1946 C1949 1.409 . S
C1947 H1939 0.930 . S
C1947 C1948 1.355 . S
C1947 C1949 1.415 . S
C1948 C1947 1.355 . S
C1948 C1950 1.419 . S
C1949 C1944 1.425 . S
C1949 C1946 1.409 . S
C1949 C1947 1.415 . S
C1950 H1940 0.930 . S
C1950 C1948 1.419 . S
C1950 C1951 1.362 . S
C1951 H1941 0.930 . S
C1951 C1944 1.409 . S
C1951 C1950 1.362 . S
H1952 C1958 0.930 . S
H1953 C1961 0.930 . S
H1954 C1962 0.930 . S
H1955 C1963 0.930 . S
H1956 C1966 0.930 . S
H1957 C1967 0.930 . S
C1958 H1952 0.930 . S
C1958 C1959 1.355 . S
C1958 C1960 1.415 . S
C1959 C1958 1.355 . S
C1959 C1961 1.419 . S
C1960 C1958 1.415 . S
C1960 C1965 1.425 . S
C1960 C1967 1.409 . S
C1961 H1953 0.930 . S
C1961 C1959 1.419 . S
C1961 C1962 1.362 . S
C1962 H1954 0.930 . S
C1962 C1961 1.362 . S
C1962 C1965 1.409 . S
C1963 H1955 0.930 . S
C1963 C1964 1.355 . S
C1963 C1965 1.415 . S
C1964 C1963 1.355 . S
C1964 C1966 1.419 . S
C1965 C1960 1.425 . S
C1965 C1962 1.409 . S
C1965 C1963 1.415 . S
C1966 H1956 0.930 . S
C1966 C1964 1.419 . S
C1966 C1967 1.362 . S
C1967 H1957 0.930 . S
C1967 C1960 1.409 . S
C1967 C1966 1.362 . S
H1968 C1974 0.930 . S
H1969 C1977 0.930 . S
H1970 C1978 0.930 . S
H1971 C1979 0.930 . S
H1972 C1982 0.930 . S
H1973 C1983 0.930 . S
C1974 H1968 0.930 . S
C1974 C1975 1.355 . S
C1974 C1976 1.415 . S
C1975 C1974 1.355 . S
C1975 C1977 1.419 . S
C1976 C1974 1.415 . S
C1976 C1981 1.425 . S
C1976 C1983 1.409 . S
C1977 H1969 0.930 . S
C1977 C1975 1.419 . S
C1977 C1978 1.362 . S
C1978 H1970 0.930 . S
C1978 C1977 1.362 . S
C1978 C1981 1.409 . S
C1979 H1971 0.930 . S
C1979 C1980 1.355 . S
C1979 C1981 1.415 . S
C1980 C1979 1.355 . S
C1980 C1982 1.419 . S
C1981 C1976 1.425 . S
C1981 C1978 1.409 . S
C1981 C1979 1.415 . S
C1982 H1972 0.930 . S
C1982 C1980 1.419 . S
C1982 C1983 1.362 . S
C1983 H1973 0.930 . S
C1983 C1976 1.409 . S
C1983 C1982 1.362 . S
H1984 C1990 0.930 . S
H1985 C1993 0.930 . S
H1986 C1994 0.930 . S
H1987 C1995 0.930 . S
H1988 C1998 0.930 . S
H1989 C1999 0.930 . S
C1990 H1984 0.930 . S
C1990 C1991 1.355 . S
C1990 C1992 1.415 . S
C1991 C1990 1.355 . S
C1991 C1993 1.419 . S
C1992 C1990 1.415 . S
C1992 C1997 1.425 . S
C1992 C1999 1.409 . S
C1993 H1985 0.930 . S
C1993 C1991 1.419 . S
C1993 C1994 1.362 . S
C1994 H1986 0.930 . S
C1994 C1993 1.362 . S
C1994 C1997 1.409 . S
C1995 H1987 0.930 . S
C1995 C1996 1.355 . S
C1995 C1997 1.415 . S
C1996 C1995 1.355 . S
C1996 C1998 1.419 . S
C1997 C1992 1.425 . S
C1997 C1994 1.409 . S
C1997 C1995 1.415 . S
C1998 H1988 0.930 . S
C1998 C1996 1.419 . S
C1998 C1999 1.362 . S
C1999 H1989 0.930 . S
C1999 C1992 1.409 . S
C1999 C1998 1.362 . S
H2000 C2006 0.930 1_655 S
H2001 C2009 0.930 . S
H2002 C2010 0.930 . S
H2003 C2011 0.922 1_554 S
H2004 C2014 0.930 . S
H2005 C2015 0.930 . S
C2006 H2000 0.930 1_455 S
C2006 C2007 1.355 . S
C2006 C2008 1.415 . S
C2007 C2006 1.355 . S
C2007 C2009 1.419 . S
C2008 C2006 1.415 . S
C2008 C2013 1.425 . S
C2008 C2015 1.409 1_455 S
C2009 H2001 0.930 . S
C2009 C2007 1.419 . S
C2009 C2010 1.362 . S
C2010 H2002 0.930 . S
C2010 C2009 1.362 . S
C2010 C2013 1.409 . S
C2011 H2003 0.922 1_556 S
C2011 C2012 1.355 . S
C2011 C2013 1.415 . S
C2012 C2011 1.355 . S
C2012 C2014 1.419 1_455 S
C2013 C2008 1.425 . S
C2013 C2010 1.409 . S
C2013 C2011 1.415 . S
C2014 H2004 0.930 . S
C2014 C2012 1.419 1_655 S
C2014 C2015 1.362 . S
C2015 H2005 0.930 . S
C2015 C2008 1.409 1_655 S
C2015 C2014 1.362 . S
H2016 C2022 0.930 . S
H2017 C2025 0.930 . S
H2018 C2026 0.930 . S
H2019 C2027 0.930 . S
H2020 C2030 0.930 . S
H2021 C2031 0.930 . S
C2022 H2016 0.930 . S
C2022 C2023 1.355 . S
C2022 C2024 1.415 . S
C2023 C2022 1.355 . S
C2023 C2025 1.419 . S
C2024 C2022 1.415 . S
C2024 C2029 1.425 . S
C2024 C2031 1.409 . S
C2025 H2017 0.930 . S
C2025 C2023 1.419 . S
C2025 C2026 1.362 . S
C2026 H2018 0.930 . S
C2026 C2025 1.362 . S
C2026 C2029 1.409 . S
C2027 H2019 0.930 . S
C2027 C2028 1.355 . S
C2027 C2029 1.415 . S
C2028 C2027 1.355 . S
C2028 C2030 1.419 . S
C2029 C2024 1.425 . S
C2029 C2026 1.409 . S
C2029 C2027 1.415 . S
C2030 H2020 0.930 . S
C2030 C2028 1.419 . S
C2030 C2031 1.362 . S
C2031 H2021 0.930 . S
C2031 C2024 1.409 . S
C2031 C2030 1.362 . S
H2032 C2038 0.930 . S
H2033 C2041 0.930 . S
H2034 C2042 0.930 . S
H2035 C2043 0.930 . S
H2036 C2046 0.930 . S
H2037 C2047 0.930 . S
C2038 H2032 0.930 . S
C2038 C2039 1.355 . S
C2038 C2040 1.415 . S
C2039 C2038 1.355 . S
C2039 C2041 1.419 . S
C2040 C2038 1.415 . S
C2040 C2045 1.425 . S
C2040 C2047 1.409 . S
C2041 H2033 0.930 . S
C2041 C2039 1.419 . S
C2041 C2042 1.362 . S
C2042 H2034 0.930 . S
C2042 C2041 1.362 . S
C2042 C2045 1.409 . S
C2043 H2035 0.930 . S
C2043 C2044 1.355 . S
C2043 C2045 1.415 . S
C2044 C2043 1.355 . S
C2044 C2046 1.419 . S
C2045 C2040 1.425 . S
C2045 C2042 1.409 . S
C2045 C2043 1.415 . S
C2046 H2036 0.930 . S
C2046 C2044 1.419 . S
C2046 C2047 1.362 . S
C2047 H2037 0.930 . S
C2047 C2040 1.409 . S
C2047 C2046 1.362 . S
H2048 C2054 0.930 . S
H2049 C2057 0.930 . S
H2050 C2058 0.930 . S
H2051 C2059 0.930 . S
H2052 C2062 0.930 . S
H2053 C2063 0.930 . S
C2054 H2048 0.930 . S
C2054 C2055 1.355 . S
C2054 C2056 1.415 . S
C2055 C2054 1.355 . S
C2055 C2057 1.419 . S
C2056 C2054 1.415 . S
C2056 C2061 1.425 . S
C2056 C2063 1.409 . S
C2057 H2049 0.930 . S
C2057 C2055 1.419 . S
C2057 C2058 1.362 . S
C2058 H2050 0.930 . S
C2058 C2057 1.362 . S
C2058 C2061 1.409 . S
C2059 H2051 0.930 . S
C2059 C2060 1.355 . S
C2059 C2061 1.415 . S
C2060 C2059 1.355 . S
C2060 C2062 1.419 . S
C2061 C2056 1.425 . S
C2061 C2058 1.409 . S
C2061 C2059 1.415 . S
C2062 H2052 0.930 . S
C2062 C2060 1.419 . S
C2062 C2063 1.362 . S
C2063 H2053 0.930 . S
C2063 C2056 1.409 . S
C2063 C2062 1.362 . S
H2064 C2070 0.930 . S
H2065 C2073 0.934 . S
H2066 C2074 0.929 1_655 S
H2067 C2075 0.930 . S
H2068 C2078 0.930 . S
H2069 C2079 0.930 . S
C2070 H2064 0.930 . S
C2070 C2071 1.355 . S
C2070 C2072 1.415 . S
C2071 C2070 1.355 . S
C2071 C2073 1.417 1_455 S
C2072 C2070 1.415 . S
C2072 C2077 1.425 . S
C2072 C2079 1.409 . S
C2073 H2065 0.934 . S
C2073 C2071 1.417 1_655 S
C2073 C2074 1.361 1_655 S
C2074 H2066 0.929 1_455 S
C2074 C2073 1.361 1_455 S
C2074 C2077 1.409 . S
C2075 H2067 0.930 . S
C2075 C2076 1.355 . S
C2075 C2077 1.415 . S
C2076 C2075 1.355 . S
C2076 C2078 1.419 . S
C2077 C2072 1.425 . S
C2077 C2074 1.409 . S
C2077 C2075 1.415 . S
C2078 H2068 0.930 . S
C2078 C2076 1.419 . S
C2078 C2079 1.362 . S
C2079 H2069 0.930 . S
C2079 C2072 1.409 . S
C2079 C2078 1.362 . S
H2080 C2086 0.930 . S
H2081 C2089 0.930 . S
H2082 C2090 0.930 . S
H2083 C2091 0.930 . S
H2084 C2094 0.930 . S
H2085 C2095 0.930 . S
C2086 H2080 0.930 . S
C2086 C2087 1.355 . S
C2086 C2088 1.415 . S
C2087 C2086 1.355 . S
C2087 C2089 1.419 . S
C2088 C2086 1.415 . S
C2088 C2093 1.425 . S
C2088 C2095 1.409 . S
C2089 H2081 0.930 . S
C2089 C2087 1.419 . S
C2089 C2090 1.362 . S
C2090 H2082 0.930 . S
C2090 C2089 1.362 . S
C2090 C2093 1.409 . S
C2091 H2083 0.930 . S
C2091 C2092 1.355 . S
C2091 C2093 1.415 . S
C2092 C2091 1.355 . S
C2092 C2094 1.419 . S
C2093 C2088 1.425 . S
C2093 C2090 1.409 . S
C2093 C2091 1.415 . S
C2094 H2084 0.930 . S
C2094 C2092 1.419 . S
C2094 C2095 1.362 . S
C2095 H2085 0.930 . S
C2095 C2088 1.409 . S
C2095 C2094 1.362 . S
H2096 C2102 0.930 . S
H2097 C2105 0.930 . S
H2098 C2106 0.930 . S
H2099 C2107 0.930 . S
H2100 C2110 0.930 . S
H2101 C2111 0.930 . S
C2102 H2096 0.930 . S
C2102 C2103 1.355 . S
C2102 C2104 1.415 . S
C2103 C2102 1.355 . S
C2103 C2105 1.419 . S
C2104 C2102 1.415 . S
C2104 C2109 1.425 . S
C2104 C2111 1.409 . S
C2105 H2097 0.930 . S
C2105 C2103 1.419 . S
C2105 C2106 1.362 . S
C2106 H2098 0.930 . S
C2106 C2105 1.362 . S
C2106 C2109 1.409 . S
C2107 H2099 0.930 . S
C2107 C2108 1.355 . S
C2107 C2109 1.415 . S
C2108 C2107 1.355 . S
C2108 C2110 1.419 . S
C2109 C2104 1.425 . S
C2109 C2106 1.409 . S
C2109 C2107 1.415 . S
C2110 H2100 0.930 . S
C2110 C2108 1.419 . S
C2110 C2111 1.362 . S
C2111 H2101 0.930 . S
C2111 C2104 1.409 . S
C2111 C2110 1.362 . S
H2112 C2118 0.930 . S
H2113 C2121 0.930 . S
H2114 C2122 0.930 . S
H2115 C2123 0.930 . S
H2116 C2126 0.930 . S
H2117 C2127 0.930 . S
C2118 H2112 0.930 . S
C2118 C2119 1.355 . S
C2118 C2120 1.415 . S
C2119 C2118 1.355 . S
C2119 C2121 1.419 . S
C2120 C2118 1.415 . S
C2120 C2125 1.425 . S
C2120 C2127 1.409 . S
C2121 H2113 0.930 . S
C2121 C2119 1.419 . S
C2121 C2122 1.362 . S
C2122 H2114 0.930 . S
C2122 C2121 1.362 . S
C2122 C2125 1.409 . S
C2123 H2115 0.930 . S
C2123 C2124 1.355 . S
C2123 C2125 1.415 . S
C2124 C2123 1.355 . S
C2124 C2126 1.419 . S
C2125 C2120 1.425 . S
C2125 C2122 1.409 . S
C2125 C2123 1.415 . S
C2126 H2116 0.930 . S
C2126 C2124 1.419 . S
C2126 C2127 1.362 . S
C2127 H2117 0.930 . S
C2127 C2120 1.409 . S
C2127 C2126 1.362 . S
H2128 C2134 0.930 . S
H2129 C2137 0.930 . S
H2130 C2138 0.930 . S
H2131 C2139 0.930 . S
H2132 C2142 0.930 . S
H2133 C2143 0.930 . S
C2134 H2128 0.930 . S
C2134 C2135 1.355 . S
C2134 C2136 1.415 . S
C2135 C2134 1.355 . S
C2135 C2137 1.419 . S
C2136 C2134 1.415 . S
C2136 C2141 1.425 . S
C2136 C2143 1.409 . S
C2137 H2129 0.930 . S
C2137 C2135 1.419 . S
C2137 C2138 1.362 . S
C2138 H2130 0.930 . S
C2138 C2137 1.362 . S
C2138 C2141 1.409 . S
C2139 H2131 0.930 . S
C2139 C2140 1.355 . S
C2139 C2141 1.415 . S
C2140 C2139 1.355 . S
C2140 C2142 1.419 . S
C2141 C2136 1.425 . S
C2141 C2138 1.409 . S
C2141 C2139 1.415 . S
C2142 H2132 0.930 . S
C2142 C2140 1.419 . S
C2142 C2143 1.362 . S
C2143 H2133 0.930 . S
C2143 C2136 1.409 . S
C2143 C2142 1.362 . S
H2144 C2150 0.930 . S
H2145 C2153 0.930 . S
H2146 C2154 0.930 . S
H2147 C2155 0.930 . S
H2148 C2158 0.930 . S
H2149 C2159 0.930 . S
C2150 H2144 0.930 . S
C2150 C2151 1.355 . S
C2150 C2152 1.415 . S
C2151 C2150 1.355 . S
C2151 C2153 1.419 . S
C2152 C2150 1.415 . S
C2152 C2157 1.425 . S
C2152 C2159 1.409 . S
C2153 H2145 0.930 . S
C2153 C2151 1.419 . S
C2153 C2154 1.362 . S
C2154 H2146 0.930 . S
C2154 C2153 1.362 . S
C2154 C2157 1.409 . S
C2155 H2147 0.930 . S
C2155 C2156 1.355 . S
C2155 C2157 1.415 . S
C2156 C2155 1.355 . S
C2156 C2158 1.419 . S
C2157 C2152 1.425 . S
C2157 C2154 1.409 . S
C2157 C2155 1.415 . S
C2158 H2148 0.930 . S
C2158 C2156 1.419 . S
C2158 C2159 1.362 . S
C2159 H2149 0.930 . S
C2159 C2152 1.409 . S
C2159 C2158 1.362 . S
H2160 C2166 0.930 . S
H2161 C2169 0.930 . S
H2162 C2170 0.930 . S
H2163 C2171 0.930 . S
H2164 C2174 0.930 . S
H2165 C2175 0.930 . S
C2166 H2160 0.930 . S
C2166 C2167 1.355 . S
C2166 C2168 1.415 . S
C2167 C2166 1.355 . S
C2167 C2169 1.419 . S
C2168 C2166 1.415 . S
C2168 C2173 1.425 . S
C2168 C2175 1.409 . S
C2169 H2161 0.930 . S
C2169 C2167 1.419 . S
C2169 C2170 1.362 . S
C2170 H2162 0.930 . S
C2170 C2169 1.362 . S
C2170 C2173 1.409 . S
C2171 H2163 0.930 . S
C2171 C2172 1.355 . S
C2171 C2173 1.415 . S
C2172 C2171 1.355 . S
C2172 C2174 1.419 . S
C2173 C2168 1.425 . S
C2173 C2170 1.409 . S
C2173 C2171 1.415 . S
C2174 H2164 0.930 . S
C2174 C2172 1.419 . S
C2174 C2175 1.362 . S
C2175 H2165 0.930 . S
C2175 C2168 1.409 . S
C2175 C2174 1.362 . S
H2176 C2182 0.930 . S
H2177 C2185 0.930 . S
H2178 C2186 0.930 . S
H2179 C2187 0.930 . S
H2180 C2190 0.930 . S
H2181 C2191 0.930 . S
C2182 H2176 0.930 . S
C2182 C2183 1.355 . S
C2182 C2184 1.415 . S
C2183 C2182 1.355 . S
C2183 C2185 1.419 . S
C2184 C2182 1.415 . S
C2184 C2189 1.425 . S
C2184 C2191 1.409 . S
C2185 H2177 0.930 . S
C2185 C2183 1.419 . S
C2185 C2186 1.362 . S
C2186 H2178 0.930 . S
C2186 C2185 1.362 . S
C2186 C2189 1.409 . S
C2187 H2179 0.930 . S
C2187 C2188 1.355 . S
C2187 C2189 1.415 . S
C2188 C2187 1.355 . S
C2188 C2190 1.419 . S
C2189 C2184 1.425 . S
C2189 C2186 1.409 . S
C2189 C2187 1.415 . S
C2190 H2180 0.930 . S
C2190 C2188 1.419 . S
C2190 C2191 1.362 . S
C2191 H2181 0.930 . S
C2191 C2184 1.409 . S
C2191 C2190 1.362 . S
H2192 C2198 0.930 . S
H2193 C2201 0.930 . S
H2194 C2202 0.930 . S
H2195 C2203 0.930 . S
H2196 C2206 0.930 . S
H2197 C2207 0.930 . S
C2198 H2192 0.930 . S
C2198 C2199 1.355 . S
C2198 C2200 1.415 . S
C2199 C2198 1.355 . S
C2199 C2201 1.419 . S
C2200 C2198 1.415 . S
C2200 C2205 1.425 . S
C2200 C2207 1.409 . S
C2201 H2193 0.930 . S
C2201 C2199 1.419 . S
C2201 C2202 1.362 . S
C2202 H2194 0.930 . S
C2202 C2201 1.362 . S
C2202 C2205 1.409 . S
C2203 H2195 0.930 . S
C2203 C2204 1.355 . S
C2203 C2205 1.415 . S
C2204 C2203 1.355 . S
C2204 C2206 1.419 . S
C2205 C2200 1.425 . S
C2205 C2202 1.409 . S
C2205 C2203 1.415 . S
C2206 H2196 0.930 . S
C2206 C2204 1.419 . S
C2206 C2207 1.362 . S
C2207 H2197 0.930 . S
C2207 C2200 1.409 . S
C2207 C2206 1.362 . S
H2208 C2214 0.930 . S
H2209 C2217 0.930 . S
H2210 C2218 0.930 . S
H2211 C2219 0.930 . S
H2212 C2222 0.930 . S
H2213 C2223 0.930 . S
C2214 H2208 0.930 . S
C2214 C2215 1.355 . S
C2214 C2216 1.415 . S
C2215 C2214 1.355 . S
C2215 C2217 1.419 . S
C2216 C2214 1.415 . S
C2216 C2221 1.425 . S
C2216 C2223 1.409 . S
C2217 H2209 0.930 . S
C2217 C2215 1.419 . S
C2217 C2218 1.362 . S
C2218 H2210 0.930 . S
C2218 C2217 1.362 . S
C2218 C2221 1.409 . S
C2219 H2211 0.930 . S
C2219 C2220 1.355 . S
C2219 C2221 1.415 . S
C2220 C2219 1.355 . S
C2220 C2222 1.419 . S
C2221 C2216 1.425 . S
C2221 C2218 1.409 . S
C2221 C2219 1.415 . S
C2222 H2212 0.930 . S
C2222 C2220 1.419 . S
C2222 C2223 1.362 . S
C2223 H2213 0.930 . S
C2223 C2216 1.409 . S
C2223 C2222 1.362 . S
H2224 C2230 0.930 . S
H2225 C2233 0.930 . S
H2226 C2234 0.930 . S
H2227 C2235 0.930 . S
H2228 C2238 0.930 . S
H2229 C2239 0.930 . S
C2230 H2224 0.930 . S
C2230 C2231 1.355 . S
C2230 C2232 1.415 . S
C2231 C2230 1.355 . S
C2231 C2233 1.419 . S
C2232 C2230 1.415 . S
C2232 C2237 1.425 . S
C2232 C2239 1.409 . S
C2233 H2225 0.930 . S
C2233 C2231 1.419 . S
C2233 C2234 1.362 . S
C2234 H2226 0.930 . S
C2234 C2233 1.362 . S
C2234 C2237 1.409 . S
C2235 H2227 0.930 . S
C2235 C2236 1.355 . S
C2235 C2237 1.415 . S
C2236 C2235 1.355 . S
C2236 C2238 1.419 . S
C2237 C2232 1.425 . S
C2237 C2234 1.409 . S
C2237 C2235 1.415 . S
C2238 H2228 0.930 . S
C2238 C2236 1.419 . S
C2238 C2239 1.362 . S
C2239 H2229 0.930 . S
C2239 C2232 1.409 . S
C2239 C2238 1.362 . S
H2240 C2246 0.930 . S
H2241 C2249 0.930 . S
H2242 C2250 0.930 . S
H2243 C2251 0.930 . S
H2244 C2254 0.930 . S
H2245 C2255 0.930 . S
C2246 H2240 0.930 . S
C2246 C2247 1.355 . S
C2246 C2248 1.415 . S
C2247 C2246 1.355 . S
C2247 C2249 1.419 . S
C2248 C2246 1.415 . S
C2248 C2253 1.425 . S
C2248 C2255 1.409 . S
C2249 H2241 0.930 . S
C2249 C2247 1.419 . S
C2249 C2250 1.362 . S
C2250 H2242 0.930 . S
C2250 C2249 1.362 . S
C2250 C2253 1.409 . S
C2251 H2243 0.930 . S
C2251 C2252 1.355 . S
C2251 C2253 1.415 . S
C2252 C2251 1.355 . S
C2252 C2254 1.419 . S
C2253 C2248 1.425 . S
C2253 C2250 1.409 . S
C2253 C2251 1.415 . S
C2254 H2244 0.930 . S
C2254 C2252 1.419 . S
C2254 C2255 1.362 . S
C2255 H2245 0.930 . S
C2255 C2248 1.409 . S
C2255 C2254 1.362 . S
H2256 C2262 0.930 . S
H2257 C2265 0.930 . S
H2258 C2266 0.930 . S
H2259 C2267 0.930 . S
H2260 C2270 0.930 . S
H2261 C2271 0.930 . S
C2262 H2256 0.930 . S
C2262 C2263 1.355 . S
C2262 C2264 1.415 . S
C2263 C2262 1.355 . S
C2263 C2265 1.419 . S
C2264 C2262 1.415 . S
C2264 C2269 1.425 . S
C2264 C2271 1.409 . S
C2265 H2257 0.930 . S
C2265 C2263 1.419 . S
C2265 C2266 1.362 . S
C2266 H2258 0.930 . S
C2266 C2265 1.362 . S
C2266 C2269 1.409 . S
C2267 H2259 0.930 . S
C2267 C2268 1.355 . S
C2267 C2269 1.415 . S
C2268 C2267 1.355 . S
C2268 C2270 1.419 . S
C2269 C2264 1.425 . S
C2269 C2266 1.409 . S
C2269 C2267 1.415 . S
C2270 H2260 0.930 . S
C2270 C2268 1.419 . S
C2270 C2271 1.362 . S
C2271 H2261 0.930 . S
C2271 C2264 1.409 . S
C2271 C2270 1.362 . S
H2272 C2278 0.930 1_556 S
H2273 C2281 0.930 . S
H2274 C2282 0.930 . S
H2275 C2283 0.930 . S
H2276 C2286 0.930 . S
H2277 C2287 0.930 . S
C2278 H2272 0.930 1_554 S
C2278 C2279 1.355 . S
C2278 C2280 1.415 . S
C2279 C2278 1.355 . S
C2279 C2281 1.419 . S
C2280 C2278 1.415 . S
C2280 C2285 1.425 . S
C2280 C2287 1.409 1_554 S
C2281 H2273 0.930 . S
C2281 C2279 1.419 . S
C2281 C2282 1.362 . S
C2282 H2274 0.930 . S
C2282 C2281 1.362 . S
C2282 C2285 1.409 . S
C2283 H2275 0.930 . S
C2283 C2284 1.355 . S
C2283 C2285 1.415 . S
C2284 C2283 1.355 . S
C2284 C2286 1.419 1_554 S
C2285 C2280 1.425 . S
C2285 C2282 1.409 . S
C2285 C2283 1.415 . S
C2286 H2276 0.930 . S
C2286 C2284 1.419 1_556 S
C2286 C2287 1.362 . S
C2287 H2277 0.930 . S
C2287 C2280 1.409 1_556 S
C2287 C2286 1.362 . S
H2288 C2294 0.930 . S
H2289 C2297 0.930 . S
H2290 C2298 0.930 . S
H2291 C2299 0.930 . S
H2292 C2302 0.930 . S
H2293 C2303 0.930 . S
C2294 H2288 0.930 . S
C2294 C2295 1.355 . S
C2294 C2296 1.415 . S
C2295 C2294 1.355 . S
C2295 C2297 1.419 . S
C2296 C2294 1.415 . S
C2296 C2301 1.425 . S
C2296 C2303 1.409 . S
C2297 H2289 0.930 . S
C2297 C2295 1.419 . S
C2297 C2298 1.362 . S
C2298 H2290 0.930 . S
C2298 C2297 1.362 . S
C2298 C2301 1.409 . S
C2299 H2291 0.930 . S
C2299 C2300 1.355 . S
C2299 C2301 1.415 . S
C2300 C2299 1.355 . S
C2300 C2302 1.419 . S
C2301 C2296 1.425 . S
C2301 C2298 1.409 . S
C2301 C2299 1.415 . S
C2302 H2292 0.930 . S
C2302 C2300 1.419 . S
C2302 C2303 1.362 . S
C2303 H2293 0.930 . S
C2303 C2296 1.409 . S
C2303 C2302 1.362 . S
H2304 C2310 0.930 . S
H2305 C2313 0.930 . S
H2306 C2314 0.930 . S
H2307 C2315 0.930 . S
H2308 C2318 0.930 . S
H2309 C2319 0.930 . S
C2310 H2304 0.930 . S
C2310 C2311 1.355 . S
C2310 C2312 1.415 . S
C2311 C2310 1.355 . S
C2311 C2313 1.419 1_554 S
C2312 C2310 1.415 . S
C2312 C2317 1.425 . S
C2312 C2319 1.409 . S
C2313 H2305 0.930 . S
C2313 C2311 1.419 1_556 S
C2313 C2314 1.362 . S
C2314 H2306 0.930 . S
C2314 C2313 1.362 . S
C2314 C2317 1.409 1_556 S
C2315 H2307 0.930 . S
C2315 C2316 1.355 . S
C2315 C2317 1.415 . S
C2316 C2315 1.355 . S
C2316 C2318 1.419 . S
C2317 C2312 1.425 . S
C2317 C2314 1.409 1_554 S
C2317 C2315 1.415 . S
C2318 H2308 0.930 . S
C2318 C2316 1.419 . S
C2318 C2319 1.362 . S
C2319 H2309 0.930 . S
C2319 C2312 1.409 . S
C2319 C2318 1.362 . S
H2320 C2326 0.930 . S
H2321 C2329 0.930 . S
H2322 C2330 0.930 . S
H2323 C2331 0.930 . S
H2324 C2334 0.930 . S
H2325 C2335 0.930 . S
C2326 H2320 0.930 . S
C2326 C2327 1.355 . S
C2326 C2328 1.415 . S
C2327 C2326 1.355 . S
C2327 C2329 1.419 . S
C2328 C2326 1.415 . S
C2328 C2333 1.425 . S
C2328 C2335 1.409 . S
C2329 H2321 0.930 . S
C2329 C2327 1.419 . S
C2329 C2330 1.362 . S
C2330 H2322 0.930 . S
C2330 C2329 1.362 . S
C2330 C2333 1.409 . S
C2331 H2323 0.930 . S
C2331 C2332 1.355 . S
C2331 C2333 1.415 . S
C2332 C2331 1.355 . S
C2332 C2334 1.419 . S
C2333 C2328 1.425 . S
C2333 C2330 1.409 . S
C2333 C2331 1.415 . S
C2334 H2324 0.930 . S
C2334 C2332 1.419 . S
C2334 C2335 1.362 . S
C2335 H2325 0.930 . S
C2335 C2328 1.409 . S
C2335 C2334 1.362 . S
H2336 C2342 0.930 . S
H2337 C2345 0.930 . S
H2338 C2346 0.930 . S
H2339 C2347 0.930 . S
H2340 C2350 0.930 . S
H2341 C2351 0.930 . S
C2342 H2336 0.930 . S
C2342 C2343 1.355 . S
C2342 C2344 1.415 . S
C2343 C2342 1.355 . S
C2343 C2345 1.419 . S
C2344 C2342 1.415 . S
C2344 C2349 1.425 . S
C2344 C2351 1.409 . S
C2345 H2337 0.930 . S
C2345 C2343 1.419 . S
C2345 C2346 1.362 . S
C2346 H2338 0.930 . S
C2346 C2345 1.362 . S
C2346 C2349 1.409 . S
C2347 H2339 0.930 . S
C2347 C2348 1.355 . S
C2347 C2349 1.415 . S
C2348 C2347 1.355 . S
C2348 C2350 1.419 . S
C2349 C2344 1.425 . S
C2349 C2346 1.409 . S
C2349 C2347 1.415 . S
C2350 H2340 0.930 . S
C2350 C2348 1.419 . S
C2350 C2351 1.362 . S
C2351 H2341 0.930 . S
C2351 C2344 1.409 . S
C2351 C2350 1.362 . S
C828 C337 1.846 . S
C823 C5 1.866 . S
C839 C23 1.054 . S
C844 C382 1.062 . S
C855 C39 1.701 . S
C860 C406 1.656 . S
C876 N432 1.097 . S
C871 C42 1.045 . S
C887 C19 1.226 . S
C892 N462 1.224 . S
C908 C496 1.598 . S
C903 C28 1.630 . S
C924 C532 1.151 1_556 S
C919 C53 1.164 . S
C935 C9 1.794 . S
C940 C556 1.763 . S
C951 C65 1.063 . S
C956 N350 1.040 . S
C967 C75 1.214 . S
C972 N372 1.219 . S
C988 C412 1.096 . S
C983 C93 1.123 . S
C1004 C436 1.740 . S
C999 C109 1.756 . S
C1015 C56 1.261 . S
C1020 C466 1.234 . S
C1036 C502 1.076 . S
C1031 C81 1.081 . S
C1052 N522 1.164 . S
C1047 C84 1.139 . S
C1068 C562 1.754 . S
C1063 C103 1.771 . S
C1084 C363 1.692 . S
C1079 C107 1.721 . S
C1100 C592 1.067 . S
C1095 C121 1.070 . S
C1111 C131 1.187 . S
C1116 N612 1.218 . S
C1132 C646 1.610 . S
C1127 C140 1.641 . S
C1143 C61 1.019 . S
C1148 N552 1.004 . S
C1164 N402 1.114 1_565 S
C1159 C70 1.116 . S
C1175 C137 1.080 . S
C1180 C682 1.070 . S
C1196 C706 1.001 . S
C1191 C165 1.044 . S
C1207 C173 1.825 . S
C1212 C346 1.776 1_556 S
C1228 C723 1.033 . S
C1223 C182 1.023 . S
C1239 C207 1.687 . S
C1244 C397 1.680 . S
C1255 C219 1.098 . S
C1260 N680 1.102 . S
C1276 N470 1.187 . S
C1271 C187 1.168 . S
C1292 C607 1.618 . S
C1287 C205 1.632 . S
C1308 C543 1.168 . S
C1303 C221 1.141 . S
C1324 C727 1.765 . S
C1319 C168 1.784 . S
C1340 N342 1.011 . S
C1335 C224 1.009 . S
C1351 C243 1.143 . S
C1356 N710 1.175 . S
C1372 C423 1.059 . S
C1367 C252 1.042 . S
C1383 C277 1.748 . S
C1388 C667 1.727 . S
C1399 C233 1.262 . S
C1404 C457 1.206 1_655 S
C1415 C249 1.107 . S
C1420 C633 1.099 . S
C1436 N530 1.157 . S
C1431 C261 1.144 . S
C1447 C271 1.760 . S
C1452 C753 1.748 . S
C1463 C266 1.674 . S
C1468 C352 1.652 . S
C1479 C280 1.043 . S
C1484 C603 1.051 . S
C1495 C299 1.174 . S
C1500 N500 1.178 . S
C1511 C317 1.635 . S
C1516 C637 1.604 . S
C1532 N740 0.994 . S
C1527 C229 0.997 1_565 S
C1548 N410 1.126 . S
C1543 C247 1.131 . S
C1564 C453 1.082 . S
C1559 C305 1.088 . S
C1580 C367 1.068 . S
C1575 C333 1.064 . S
C1591 C33 1.852 . S
C1596 C757 1.801 . S
C1612 C712 1.069 . S
C1607 C51 1.060 . S
C1628 C796 1.683 . S
C1623 C11 1.700 . S
C1639 C14 1.095 1_655 S
C1644 N672 1.115 . S
C1655 C47 1.204 . S
C1660 N582 1.213 1_556 S
C1676 C616 1.631 . S
C1671 C0 1.634 . S
C1692 C652 1.151 . S
C1687 C25 1.158 . S
C1708 C736 1.780 . S
C1703 C37 1.803 . S
C1724 N770 1.063 . S
C1719 C163 1.034 . S
C1735 C117 1.161 1_556 S
C1740 N702 1.195 . S
C1751 C135 1.124 . S
C1756 C802 1.097 1_655 S
C1772 C676 1.751 . S
C1767 C151 1.761 . S
C1788 C586 1.205 . S
C1783 C154 1.236 . S
C1799 C123 1.074 . S
C1804 C622 1.102 . S
C1820 N642 1.169 . S
C1815 C126 1.106 . S
C1831 C145 1.764 . S
C1836 C742 1.733 . S
C1852 C783 1.671 . S
C1847 C149 1.704 . S
C1868 C472 1.083 . S
C1863 C79 1.081 . S
C1884 N492 1.212 . S
C1879 C89 1.178 1_565 S
C1895 C98 1.643 . S
C1900 C526 1.632 . S
C1916 N732 1.023 . S
C1911 C159 1.016 . S
C1927 C112 1.122 . S
C1932 N792 1.116 . S
C1948 C442 1.093 . S
C1943 C95 1.113 . S
C1964 C376 1.058 . S
C1959 C67 1.090 . S
C1975 C201 1.844 . S
C1980 C766 1.823 . S
C1996 C393 0.979 . S
C1991 C210 1.006 . S
C2012 C787 1.676 1_556 S
C2007 C179 1.684 . S
C2023 C191 1.111 . S
C2028 N440 1.101 . S
C2039 C215 1.144 . S
C2044 N590 1.173 . S
C2055 C177 1.631 . S
C2060 C487 1.607 . S
C2071 C193 1.132 . S
C2076 C663 1.126 . S
C2087 C196 1.784 . S
C2092 C547 1.765 . S
C2108 N762 1.023 . S
C2103 C322 1.012 . S
C2119 C285 1.200 . S
C2124 N380 1.197 . S
C2140 C813 1.091 . S
C2135 C294 1.073 . S
C2151 C319 1.746 . S
C2156 C427 1.695 . S
C2167 C331 1.257 . S
C2172 C577 1.192 . S
C2188 C513 1.083 . S
C2183 C291 1.109 . S
C2199 C303 1.169 . S
C2204 N650 1.169 . S
C2220 C573 1.719 . S
C2215 C313 1.745 . S
C2236 C772 1.668 . S
C2231 C308 1.680 . S
C2252 C483 1.003 . S
C2247 C238 1.004 . S
C2263 C257 1.182 . S
C2268 N620 1.182 . S
C2284 C517 1.631 1_565 S
C2279 C275 1.641 . S
C2300 N560 1.002 . S
C2295 C327 0.995 . S
C2311 C289 1.129 . S
C2316 N800 1.124 . S
C2332 C693 1.044 . S
C2327 C263 1.055 . S
C2348 C697 1.036 . S
C2343 C235 1.049 . S
