# Generated by pormake.
# Topology iac, (4,6)-cn, num edge types: 1
# Building blocks:
#     Node 0, Type 0, BuildingBlock: AZAVOO_clean_sbu_0, # of connection points: 4
#     Node 1, Type 0, BuildingBlock: AZAVOO_clean_sbu_0, # of connection points: 4
#     Node 2, Type 0, BuildingBlock: AZAVOO_clean_sbu_0, # of connection points: 4
#     Node 3, Type 0, BuildingBlock: AZAVOO_clean_sbu_0, # of connection points: 4
#     Node 4, Type 0, BuildingBlock: AZAVOO_clean_sbu_0, # of connection points: 4
#     Node 5, Type 0, BuildingBlock: AZAVOO_clean_sbu_0, # of connection points: 4
#     Node 6, Type 0, BuildingBlock: AZAVOO_clean_sbu_0, # of connection points: 4
#     Node 7, Type 0, BuildingBlock: AZAVOO_clean_sbu_0, # of connection points: 4
#     Node 8, Type 0, BuildingBlock: AZAVOO_clean_sbu_0, # of connection points: 4
#     Node 9, Type 0, BuildingBlock: AZAVOO_clean_sbu_0, # of connection points: 4
#     Node 10, Type 0, BuildingBlock: AZAVOO_clean_sbu_0, # of connection points: 4
#     Node 11, Type 0, BuildingBlock: AZAVOO_clean_sbu_0, # of connection points: 4
#     Node 12, Type 0, BuildingBlock: AZAVOO_clean_sbu_0, # of connection points: 4
#     Node 13, Type 0, BuildingBlock: AZAVOO_clean_sbu_0, # of connection points: 4
#     Node 14, Type 0, BuildingBlock: AZAVOO_clean_sbu_0, # of connection points: 4
#     Node 15, Type 0, BuildingBlock: AZAVOO_clean_sbu_0, # of connection points: 4
#     Node 16, Type 0, BuildingBlock: AZAVOO_clean_sbu_0, # of connection points: 4
#     Node 17, Type 0, BuildingBlock: AZAVOO_clean_sbu_0, # of connection points: 4
#     Node 18, Type 0, BuildingBlock: AZAVOO_clean_sbu_0, # of connection points: 4
#     Node 19, Type 0, BuildingBlock: AZAVOO_clean_sbu_0, # of connection points: 4
#     Node 20, Type 0, BuildingBlock: AZAVOO_clean_sbu_0, # of connection points: 4
#     Node 21, Type 0, BuildingBlock: AZAVOO_clean_sbu_0, # of connection points: 4
#     Node 22, Type 0, BuildingBlock: AZAVOO_clean_sbu_0, # of connection points: 4
#     Node 23, Type 0, BuildingBlock: AZAVOO_clean_sbu_0, # of connection points: 4
#     Node 24, Type 1, BuildingBlock: FUNLAD_clean_sbu_0, # of connection points: 6
#     Node 25, Type 1, BuildingBlock: FUNLAD_clean_sbu_0, # of connection points: 6
#     Node 26, Type 1, BuildingBlock: FUNLAD_clean_sbu_0, # of connection points: 6
#     Node 27, Type 1, BuildingBlock: FUNLAD_clean_sbu_0, # of connection points: 6
#     Node 28, Type 1, BuildingBlock: FUNLAD_clean_sbu_0, # of connection points: 6
#     Node 29, Type 1, BuildingBlock: FUNLAD_clean_sbu_0, # of connection points: 6
#     Node 30, Type 1, BuildingBlock: FUNLAD_clean_sbu_0, # of connection points: 6
#     Node 31, Type 1, BuildingBlock: FUNLAD_clean_sbu_0, # of connection points: 6
#     Node 32, Type 1, BuildingBlock: FUNLAD_clean_sbu_0, # of connection points: 6
#     Node 33, Type 1, BuildingBlock: FUNLAD_clean_sbu_0, # of connection points: 6
#     Node 34, Type 1, BuildingBlock: FUNLAD_clean_sbu_0, # of connection points: 6
#     Node 35, Type 1, BuildingBlock: FUNLAD_clean_sbu_0, # of connection points: 6
#     Node 36, Type 1, BuildingBlock: FUNLAD_clean_sbu_0, # of connection points: 6
#     Node 37, Type 1, BuildingBlock: FUNLAD_clean_sbu_0, # of connection points: 6
#     Node 38, Type 1, BuildingBlock: FUNLAD_clean_sbu_0, # of connection points: 6
#     Node 39, Type 1, BuildingBlock: FUNLAD_clean_sbu_0, # of connection points: 6
#     Edge 40, Type (0, 1), BuildingBlock: OJICUG_clean_linker_0, # of connection points: 2
#     Edge 41, Type (0, 1), BuildingBlock: OJICUG_clean_linker_0, # of connection points: 2
#     Edge 42, Type (0, 1), BuildingBlock: OJICUG_clean_linker_0, # of connection points: 2
#     Edge 43, Type (0, 1), BuildingBlock: OJICUG_clean_linker_0, # of connection points: 2
#     Edge 44, Type (0, 1), BuildingBlock: OJICUG_clean_linker_0, # of connection points: 2
#     Edge 45, Type (0, 1), BuildingBlock: OJICUG_clean_linker_0, # of connection points: 2
#     Edge 46, Type (0, 1), BuildingBlock: OJICUG_clean_linker_0, # of connection points: 2
#     Edge 47, Type (0, 1), BuildingBlock: OJICUG_clean_linker_0, # of connection points: 2
#     Edge 48, Type (0, 1), BuildingBlock: OJICUG_clean_linker_0, # of connection points: 2
#     Edge 49, Type (0, 1), BuildingBlock: OJICUG_clean_linker_0, # of connection points: 2
#     Edge 50, Type (0, 1), BuildingBlock: OJICUG_clean_linker_0, # of connection points: 2
#     Edge 51, Type (0, 1), BuildingBlock: OJICUG_clean_linker_0, # of connection points: 2
#     Edge 52, Type (0, 1), BuildingBlock: OJICUG_clean_linker_0, # of connection points: 2
#     Edge 53, Type (0, 1), BuildingBlock: OJICUG_clean_linker_0, # of connection points: 2
#     Edge 54, Type (0, 1), BuildingBlock: OJICUG_clean_linker_0, # of connection points: 2
#     Edge 55, Type (0, 1), BuildingBlock: OJICUG_clean_linker_0, # of connection points: 2
#     Edge 56, Type (0, 1), BuildingBlock: OJICUG_clean_linker_0, # of connection points: 2
#     Edge 57, Type (0, 1), BuildingBlock: OJICUG_clean_linker_0, # of connection points: 2
#     Edge 58, Type (0, 1), BuildingBlock: OJICUG_clean_linker_0, # of connection points: 2
#     Edge 59, Type (0, 1), BuildingBlock: OJICUG_clean_linker_0, # of connection points: 2
#     Edge 60, Type (0, 1), BuildingBlock: OJICUG_clean_linker_0, # of connection points: 2
#     Edge 61, Type (0, 1), BuildingBlock: OJICUG_clean_linker_0, # of connection points: 2
#     Edge 62, Type (0, 1), BuildingBlock: OJICUG_clean_linker_0, # of connection points: 2
#     Edge 63, Type (0, 1), BuildingBlock: OJICUG_clean_linker_0, # of connection points: 2
#     Edge 64, Type (0, 1), BuildingBlock: OJICUG_clean_linker_0, # of connection points: 2
#     Edge 65, Type (0, 1), BuildingBlock: OJICUG_clean_linker_0, # of connection points: 2
#     Edge 66, Type (0, 1), BuildingBlock: OJICUG_clean_linker_0, # of connection points: 2
#     Edge 67, Type (0, 1), BuildingBlock: OJICUG_clean_linker_0, # of connection points: 2
#     Edge 68, Type (0, 1), BuildingBlock: OJICUG_clean_linker_0, # of connection points: 2
#     Edge 69, Type (0, 1), BuildingBlock: OJICUG_clean_linker_0, # of connection points: 2
#     Edge 70, Type (0, 1), BuildingBlock: OJICUG_clean_linker_0, # of connection points: 2
#     Edge 71, Type (0, 1), BuildingBlock: OJICUG_clean_linker_0, # of connection points: 2
#     Edge 72, Type (0, 1), BuildingBlock: OJICUG_clean_linker_0, # of connection points: 2
#     Edge 73, Type (0, 1), BuildingBlock: OJICUG_clean_linker_0, # of connection points: 2
#     Edge 74, Type (0, 1), BuildingBlock: OJICUG_clean_linker_0, # of connection points: 2
#     Edge 75, Type (0, 1), BuildingBlock: OJICUG_clean_linker_0, # of connection points: 2
#     Edge 76, Type (0, 1), BuildingBlock: OJICUG_clean_linker_0, # of connection points: 2
#     Edge 77, Type (0, 1), BuildingBlock: OJICUG_clean_linker_0, # of connection points: 2
#     Edge 78, Type (0, 1), BuildingBlock: OJICUG_clean_linker_0, # of connection points: 2
#     Edge 79, Type (0, 1), BuildingBlock: OJICUG_clean_linker_0, # of connection points: 2
#     Edge 80, Type (0, 1), BuildingBlock: OJICUG_clean_linker_0, # of connection points: 2
#     Edge 81, Type (0, 1), BuildingBlock: OJICUG_clean_linker_0, # of connection points: 2
#     Edge 82, Type (0, 1), BuildingBlock: OJICUG_clean_linker_0, # of connection points: 2
#     Edge 83, Type (0, 1), BuildingBlock: OJICUG_clean_linker_0, # of connection points: 2
#     Edge 84, Type (0, 1), BuildingBlock: OJICUG_clean_linker_0, # of connection points: 2
#     Edge 85, Type (0, 1), BuildingBlock: OJICUG_clean_linker_0, # of connection points: 2
#     Edge 86, Type (0, 1), BuildingBlock: OJICUG_clean_linker_0, # of connection points: 2
#     Edge 87, Type (0, 1), BuildingBlock: OJICUG_clean_linker_0, # of connection points: 2
#     Edge 88, Type (0, 1), BuildingBlock: OJICUG_clean_linker_0, # of connection points: 2
#     Edge 89, Type (0, 1), BuildingBlock: OJICUG_clean_linker_0, # of connection points: 2
#     Edge 90, Type (0, 1), BuildingBlock: OJICUG_clean_linker_0, # of connection points: 2
#     Edge 91, Type (0, 1), BuildingBlock: OJICUG_clean_linker_0, # of connection points: 2
#     Edge 92, Type (0, 1), BuildingBlock: OJICUG_clean_linker_0, # of connection points: 2
#     Edge 93, Type (0, 1), BuildingBlock: OJICUG_clean_linker_0, # of connection points: 2
#     Edge 94, Type (0, 1), BuildingBlock: OJICUG_clean_linker_0, # of connection points: 2
#     Edge 95, Type (0, 1), BuildingBlock: OJICUG_clean_linker_0, # of connection points: 2
#     Edge 96, Type (0, 1), BuildingBlock: OJICUG_clean_linker_0, # of connection points: 2
#     Edge 97, Type (0, 1), BuildingBlock: OJICUG_clean_linker_0, # of connection points: 2
#     Edge 98, Type (0, 1), BuildingBlock: OJICUG_clean_linker_0, # of connection points: 2
#     Edge 99, Type (0, 1), BuildingBlock: OJICUG_clean_linker_0, # of connection points: 2
#     Edge 100, Type (0, 1), BuildingBlock: OJICUG_clean_linker_0, # of connection points: 2
#     Edge 101, Type (0, 1), BuildingBlock: OJICUG_clean_linker_0, # of connection points: 2
#     Edge 102, Type (0, 1), BuildingBlock: OJICUG_clean_linker_0, # of connection points: 2
#     Edge 103, Type (0, 1), BuildingBlock: OJICUG_clean_linker_0, # of connection points: 2
#     Edge 104, Type (0, 1), BuildingBlock: OJICUG_clean_linker_0, # of connection points: 2
#     Edge 105, Type (0, 1), BuildingBlock: OJICUG_clean_linker_0, # of connection points: 2
#     Edge 106, Type (0, 1), BuildingBlock: OJICUG_clean_linker_0, # of connection points: 2
#     Edge 107, Type (0, 1), BuildingBlock: OJICUG_clean_linker_0, # of connection points: 2
#     Edge 108, Type (0, 1), BuildingBlock: OJICUG_clean_linker_0, # of connection points: 2
#     Edge 109, Type (0, 1), BuildingBlock: OJICUG_clean_linker_0, # of connection points: 2
#     Edge 110, Type (0, 1), BuildingBlock: OJICUG_clean_linker_0, # of connection points: 2
#     Edge 111, Type (0, 1), BuildingBlock: OJICUG_clean_linker_0, # of connection points: 2
#     Edge 112, Type (0, 1), BuildingBlock: OJICUG_clean_linker_0, # of connection points: 2
#     Edge 113, Type (0, 1), BuildingBlock: OJICUG_clean_linker_0, # of connection points: 2
#     Edge 114, Type (0, 1), BuildingBlock: OJICUG_clean_linker_0, # of connection points: 2
#     Edge 115, Type (0, 1), BuildingBlock: OJICUG_clean_linker_0, # of connection points: 2
#     Edge 116, Type (0, 1), BuildingBlock: OJICUG_clean_linker_0, # of connection points: 2
#     Edge 117, Type (0, 1), BuildingBlock: OJICUG_clean_linker_0, # of connection points: 2
#     Edge 118, Type (0, 1), BuildingBlock: OJICUG_clean_linker_0, # of connection points: 2
#     Edge 119, Type (0, 1), BuildingBlock: OJICUG_clean_linker_0, # of connection points: 2
#     Edge 120, Type (0, 1), BuildingBlock: OJICUG_clean_linker_0, # of connection points: 2
#     Edge 121, Type (0, 1), BuildingBlock: OJICUG_clean_linker_0, # of connection points: 2
#     Edge 122, Type (0, 1), BuildingBlock: OJICUG_clean_linker_0, # of connection points: 2
#     Edge 123, Type (0, 1), BuildingBlock: OJICUG_clean_linker_0, # of connection points: 2
#     Edge 124, Type (0, 1), BuildingBlock: OJICUG_clean_linker_0, # of connection points: 2
#     Edge 125, Type (0, 1), BuildingBlock: OJICUG_clean_linker_0, # of connection points: 2
#     Edge 126, Type (0, 1), BuildingBlock: OJICUG_clean_linker_0, # of connection points: 2
#     Edge 127, Type (0, 1), BuildingBlock: OJICUG_clean_linker_0, # of connection points: 2
#     Edge 128, Type (0, 1), BuildingBlock: OJICUG_clean_linker_0, # of connection points: 2
#     Edge 129, Type (0, 1), BuildingBlock: OJICUG_clean_linker_0, # of connection points: 2
#     Edge 130, Type (0, 1), BuildingBlock: OJICUG_clean_linker_0, # of connection points: 2
#     Edge 131, Type (0, 1), BuildingBlock: OJICUG_clean_linker_0, # of connection points: 2
#     Edge 132, Type (0, 1), BuildingBlock: OJICUG_clean_linker_0, # of connection points: 2
#     Edge 133, Type (0, 1), BuildingBlock: OJICUG_clean_linker_0, # of connection points: 2
#     Edge 134, Type (0, 1), BuildingBlock: OJICUG_clean_linker_0, # of connection points: 2
#     Edge 135, Type (0, 1), BuildingBlock: OJICUG_clean_linker_0, # of connection points: 2
# Relax obj value: 0.409
# Max RMSD: 0.307
# Mean RMSD: 0.191
data_MOF--net-iac--node1-AZAVOO_clean_sbu_0--node2-FUNLAD_clean_sbu_0--edge1-OJICUG_clean_linker_0
_symmetry_space_group_name_H-M    P1
_symmetry_Int_Tables_number       1
_symmetry_cell_setting            triclinic
loop_
_symmetry_equiv_pos_as_xyz
'x, y, z'
_cell_length_a     42.04605
_cell_length_b     38.13431
_cell_length_c     44.69471
_cell_angle_alpha  92.344263
_cell_angle_beta   92.348863
_cell_angle_gamma 90.494972
loop_
_atom_site_label
_atom_site_type_symbol
_atom_site_fract_x
_atom_site_fract_y
_atom_site_fract_z
_atom_type_partial_charge
Mg0 Mg 0.07023 0.19525 0.19107 0.0
O1 O 0.03106 0.18314 0.1563 0.0
O2 O 0.98669 0.21416 0.16204 0.0
Mg3 Mg 0.00251 0.25441 0.19945 0.0
C4 C 0.00273 0.19088 0.1482 0.0
C5 C 0.13019 0.16867 0.15934 0.0
O6 O 0.14763 0.14933 0.14151 0.0
O7 O 0.08306 0.24115 0.16288 0.0
O8 O 0.03906 0.27342 0.16714 0.0
O9 O 0.0459 0.16156 0.22331 0.0
O10 O 0.03802 0.21851 0.2186 0.0
C11 C 0.06617 0.26749 0.15619 0.0
C12 C 0.03054 0.18973 0.23062 0.0
O13 O 0.10222 0.15857 0.16464 0.0
Mg14 Mg 0.04813 0.75673 0.37496 0.0
O15 O 0.04664 0.80318 0.41227 0.0
O16 O 0.00415 0.79143 0.43883 0.0
Mg17 Mg 0.97751 0.74254 0.41863 0.0
C18 C 0.02825 0.81071 0.43393 0.0
C19 C 0.10514 0.76305 0.33323 0.0
O20 O 0.0811 0.75182 0.31558 0.0
O21 O 0.06374 0.71432 0.40924 0.0
O22 O 0.01865 0.70569 0.43295 0.0
O23 O 0.01725 0.78667 0.34212 0.0
O24 O -0.00215 0.7516 0.37468 0.0
C25 C 0.04767 0.69812 0.42832 0.0
C26 C 0.99248 0.77253 0.35313 0.0
O27 O 0.10021 0.76871 0.36109 0.0
Mg28 Mg 0.58584 0.69853 0.68967 0.0
O29 O 0.54968 0.69543 0.6516 0.0
O30 O 0.50966 0.7335 0.65481 0.0
Mg31 Mg 0.52467 0.76683 0.69715 0.0
C32 C 0.52432 0.70897 0.64103 0.0
C33 C 0.64426 0.66563 0.65855 0.0
O34 O 0.66045 0.6444 0.64115 0.0
O35 O 0.60481 0.74411 0.66395 0.0
O36 O 0.56602 0.78342 0.66931 0.0
O37 O 0.55521 0.66599 0.7176 0.0
O38 O 0.55305 0.72386 0.71574 0.0
C39 C 0.59258 0.77383 0.65901 0.0
C40 C 0.54141 0.69513 0.72495 0.0
O41 O 0.61563 0.65823 0.66393 0.0
Mg42 Mg 0.547 0.25559 0.87476 0.0
O43 O 0.54527 0.30216 0.91172 0.0
O44 O 0.50221 0.29122 0.93773 0.0
Mg45 Mg 0.4755 0.24244 0.91746 0.0
C46 C 0.52665 0.31008 0.93308 0.0
C47 C 0.60489 0.26202 0.83393 0.0
O48 O 0.58121 0.25058 0.81594 0.0
O49 O 0.56192 0.2137 0.90968 0.0
O50 O 0.51638 0.20577 0.93286 0.0
O51 O 0.51688 0.28552 0.84144 0.0
O52 O 0.49648 0.25067 0.87362 0.0
C53 C 0.54547 0.19801 0.92879 0.0
C54 C 0.49172 0.2716 0.85195 0.0
O55 O 0.59943 0.26761 0.86169 0.0
Mg56 Mg 0.15448 0.01903 0.25944 0.0
O57 O 0.18446 0.07055 0.25852 0.0
O58 O 0.21365 0.07206 0.3017 0.0
Mg59 Mg 0.2054 0.02422 0.3285 0.0
C60 C 0.20486 0.08554 0.27709 0.0
C61 C 0.10612 0.00923 0.20908 0.0
O62 O 0.09373 -0.00222 0.23342 0.0
O63 O 0.19794 0.98623 0.24718 0.0
O64 O 0.22537 0.99001 0.2911 0.0
O65 O 0.11717 0.04735 0.28486 0.0
O66 O 0.15844 0.0213 0.306 0.0
C67 C 0.22205 0.97849 0.26395 0.0
C68 C 0.13356 0.0403 0.30895 0.0
O69 O 0.13459 0.02121 0.21098 0.0
Mg70 Mg 0.30845 0.9176 0.57295 0.0
O71 O 0.30925 0.8837 0.52893 0.0
O72 O 0.35184 0.84897 0.53237 0.0
Mg73 Mg 0.37846 0.85994 0.57726 0.0
C74 C 0.32741 0.86013 0.51792 0.0
C75 C 0.23509 0.93856 0.58151 0.0
O76 O 0.24273 0.9303 0.60912 0.0
O77 O 0.29187 0.87075 0.60061 0.0
O78 O 0.33652 0.83955 0.60321 0.0
O79 O 0.33997 0.95682 0.55141 0.0
O80 O 0.35892 0.91329 0.57723 0.0
C81 C 0.30763 0.84446 0.61 0.0
C82 C 0.36441 0.93904 0.56035 0.0
O83 O 0.25611 0.93539 0.56176 0.0
Mg84 Mg 0.42658 0.01973 0.7542 0.0
O85 O 0.38881 0.9742 0.75361 0.0
O86 O 0.3676 0.98007 0.7989 0.0
Mg87 Mg 0.39027 0.02478 0.82726 0.0
C88 C 0.36943 0.96438 0.77325 0.0
C89 C 0.46784 0.02188 0.70383 0.0
O90 O 0.48448 0.02625 0.72924 0.0
O91 O 0.38799 0.0611 0.74863 0.0
O92 O 0.36912 0.06397 0.79464 0.0
O93 O 0.46255 0.98306 0.77161 0.0
O94 O 0.43172 0.01568 0.80013 0.0
C95 C 0.36937 0.07434 0.76784 0.0
C96 C 0.45284 0.99146 0.79795 0.0
O97 O 0.43775 0.0175 0.70457 0.0
Mg98 Mg 0.32263 0.08644 0.0047 0.0
O99 O 0.32806 0.12702 0.04388 0.0
O100 O 0.37374 0.15696 0.04012 0.0
Mg101 Mg 0.39607 0.13706 -0.00261 0.0
C102 C 0.3481 0.15077 0.05337 0.0
C103 C 0.25202 0.07742 0.99047 0.0
O104 O 0.26364 0.07867 0.96368 0.0
O105 O 0.309 0.13045 0.97631 0.0
O106 O 0.35342 0.16242 0.97252 0.0
O107 O 0.34968 0.0465 0.02946 0.0
O108 O 0.3705 0.08701 0.00139 0.0
C109 C 0.32365 0.15691 0.96726 0.0
C110 C 0.37448 0.06198 0.01954 0.0
O111 O 0.27098 0.07815 0.01338 0.0
Mg112 Mg 0.80885 0.42033 0.07484 0.0
O113 O 0.80899 0.38588 0.03119 0.0
O114 O 0.8509 0.35026 0.03466 0.0
Mg115 Mg 0.87732 0.36116 0.07978 0.0
C116 C 0.82676 0.362 0.02013 0.0
C117 C 0.73576 0.44126 0.08273 0.0
O118 O 0.74303 0.43299 0.11041 0.0
O119 O 0.79134 0.37484 0.10345 0.0
O120 O 0.83507 0.34226 0.10662 0.0
O121 O 0.84027 0.45839 0.05234 0.0
O122 O 0.85927 0.4153 0.07881 0.0
C123 C 0.80636 0.34839 0.11346 0.0
C124 C 0.86465 0.44046 0.06119 0.0
O125 O 0.75702 0.43832 0.06325 0.0
Mg126 Mg 0.92476 0.52279 0.25052 0.0
O127 O 0.88742 0.47741 0.25471 0.0
O128 O 0.87038 0.48475 0.30156 0.0
Mg129 Mg 0.89578 0.53018 0.32679 0.0
C130 C 0.86986 0.46836 0.27606 0.0
C131 C 0.94941 0.54057 0.1902 0.0
O132 O 0.93022 0.51541 0.19765 0.0
O133 O 0.88514 0.564 0.24722 0.0
O134 O 0.8713 0.56767 0.29496 0.0
O135 O 0.96301 0.48756 0.26602 0.0
O136 O 0.93432 0.52066 0.29619 0.0
C137 C 0.86848 0.57741 0.26801 0.0
C138 C 0.95542 0.4966 0.29296 0.0
O139 O 0.93078 0.5166 0.19865 0.0
Mg140 Mg 0.82831 0.56832 0.51294 0.0
O141 O 0.83431 0.61111 0.55045 0.0
O142 O 0.88087 0.63915 0.54606 0.0
Mg143 Mg 0.90228 0.61708 0.50363 0.0
C144 C 0.85493 0.63454 0.55931 0.0
C145 C 0.76156 0.54257 0.50174 0.0
O146 O 0.77711 0.5272 0.48 0.0
O147 O 0.81421 0.61079 0.48256 0.0
O148 O 0.8593 0.64197 0.47938 0.0
O149 O 0.85566 0.52967 0.53933 0.0
O150 O 0.87588 0.56823 0.50908 0.0
C151 C 0.82954 0.63699 0.47368 0.0
C152 C 0.88019 0.54442 0.52826 0.0
O153 O 0.7769 0.5607 0.52202 0.0
Mg154 Mg 0.65416 0.53256 0.75783 0.0
O155 O 0.68502 0.58383 0.75666 0.0
O156 O 0.71457 0.58523 0.79961 0.0
Mg157 Mg 0.70616 0.53706 0.82633 0.0
C158 C 0.70553 0.59887 0.77514 0.0
C159 C 0.60297 0.52928 0.70841 0.0
O160 O 0.58939 0.52128 0.73322 0.0
O161 O 0.69657 0.49716 0.7453 0.0
O162 O 0.72418 0.50075 0.78914 0.0
O163 O 0.61779 0.56161 0.78409 0.0
O164 O 0.65879 0.5345 0.80453 0.0
C165 C 0.72026 0.48837 0.76228 0.0
C166 C 0.63412 0.55369 0.80796 0.0
O167 O 0.63285 0.53592 0.70962 0.0
Mg168 Mg 0.96711 0.80596 0.86921 0.0
O169 O 0.97401 0.84576 0.90821 0.0
O170 O 0.92947 0.84208 0.93383 0.0
Mg171 Mg 0.89212 0.80804 0.90772 0.0
C172 C 0.95788 0.85336 0.93113 0.0
C173 C 0.03399 0.83208 0.85331 0.0
O174 O 0.01901 0.86214 0.85247 0.0
O175 O 0.97143 0.7648 0.90341 0.0
O176 O 0.92326 0.76283 0.92309 0.0
O177 O 0.948 0.84452 0.83748 0.0
O178 O 0.91952 0.81378 0.86786 0.0
C179 C 0.95171 0.7518 0.92093 0.0
C180 C 0.92046 0.83637 0.84736 0.0
O181 O 0.01941 0.805 0.86136 0.0
Mg182 Mg 0.03857 0.27906 0.6758 0.0
O183 O 0.03903 0.22402 0.64963 0.0
O184 O -0.00167 0.22513 0.61594 0.0
Mg185 Mg 0.96744 0.27391 0.62509 0.0
C186 C 0.02278 0.21007 0.62723 0.0
C187 C 0.11661 0.27578 0.67827 0.0
O188 O 0.11345 0.28076 0.6494 0.0
O189 O 0.05198 0.30988 0.6341 0.0
O190 O 0.00602 0.30974 0.60696 0.0
O191 O 0.00687 0.26127 0.71303 0.0
O192 O 0.98807 0.28224 0.67121 0.0
C193 C 0.03493 0.3199 0.61163 0.0
C194 C 0.98231 0.27107 0.69722 0.0
O195 O 0.09161 0.27323 0.69339 0.0
Mg196 Mg 0.46364 0.31238 0.38317 0.0
O197 O 0.46488 0.35495 0.42076 0.0
O198 O 0.41913 0.34939 0.44429 0.0
Mg199 Mg 0.38659 0.30924 0.4189 0.0
C200 C 0.44675 0.3631 0.44223 0.0
C201 C 0.52973 0.34155 0.36444 0.0
O202 O 0.51291 0.3697 0.3593 0.0
O203 O 0.46995 0.27382 0.41949 0.0
O204 O 0.42101 0.26871 0.43718 0.0
O205 O 0.44154 0.34557 0.34807 0.0
O206 O 0.41537 0.31478 0.38 0.0
C207 C 0.45026 0.26 0.43665 0.0
C208 C 0.41462 0.3349 0.3577 0.0
O209 O 0.5167 0.31562 0.37627 0.0
Mg210 Mg 0.53891 0.77635 0.17612 0.0
O211 O 0.53966 0.72232 0.1487 0.0
O212 O 0.49812 0.72305 0.1159 0.0
Mg213 Mg 0.46637 0.77053 0.12704 0.0
C214 C 0.52318 0.70846 0.12644 0.0
C215 C 0.60269 0.77471 0.21706 0.0
O216 O 0.58141 0.77863 0.23762 0.0
O217 O 0.5498 0.80925 0.13517 0.0
O218 O 0.50305 0.80871 0.10928 0.0
O219 O 0.50856 0.75622 0.21369 0.0
O220 O 0.48852 0.7778 0.17263 0.0
C221 C 0.53171 0.81979 0.11364 0.0
C222 C 0.48351 0.76556 0.19834 0.0
O223 O 0.59303 0.77201 0.18963 0.0
Mg224 Mg 0.8987 0.02572 0.81667 0.0
O225 O 0.86284 0.98341 0.80081 0.0
O226 O 0.82068 0.98946 0.829 0.0
Mg227 Mg 0.83531 0.0257 0.8698 0.0
C228 C 0.8341 0.97617 0.80616 0.0
C229 C 0.93932 0.99172 0.76744 0.0
O230 O 0.94671 0.97219 0.79017 0.0
O231 O 0.86421 0.06719 0.80014 0.0
O232 O 0.83054 0.0707 0.8378 0.0
O233 O 0.92627 0.99153 0.84757 0.0
O234 O 0.88676 0.02499 0.86165 0.0
C235 C 0.84101 0.08169 0.81337 0.0
C236 C 0.90926 0.00399 0.86897 0.0
O237 O 0.92041 0.01726 0.77113 0.0
Mg238 Mg 0.80039 0.10476 0.48003 0.0
O239 O 0.80326 0.13942 0.5224 0.0
O240 O 0.84746 0.17246 0.52385 0.0
Mg241 Mg 0.87623 0.15411 0.48364 0.0
C242 C 0.82123 0.16326 0.53474 0.0
C243 C 0.7411 0.08116 0.51433 0.0
O244 O 0.76498 0.07188 0.53209 0.0
O245 O 0.78992 0.15361 0.45142 0.0
O246 O 0.8383 0.17867 0.45326 0.0
O247 O 0.82798 0.06191 0.50347 0.0
O248 O 0.85049 0.10342 0.47876 0.0
C249 C 0.80922 0.17762 0.44376 0.0
C250 C 0.85379 0.07635 0.49474 0.0
O251 O 0.74724 0.0954 0.48985 0.0
Mg252 Mg 0.65977 0.00607 0.31878 0.0
O253 O 0.67988 0.06147 0.32001 0.0
O254 O 0.71445 0.06805 0.35876 0.0
Mg255 Mg 0.70698 0.02001 0.38774 0.0
C256 C 0.70114 0.07931 0.3349 0.0
C257 C 0.6323 0.0417 0.26378 0.0
O258 O 0.62072 0.06136 0.28549 0.0
O259 O 0.70819 0.98373 0.30831 0.0
O260 O 0.73358 0.98606 0.35334 0.0
O261 O 0.61685 0.02243 0.34307 0.0
O262 O 0.66093 0.00287 0.36504 0.0
C263 C 0.73198 0.97642 0.32556 0.0
C264 C 0.63213 0.01361 0.36734 0.0
O265 O 0.64836 0.01475 0.27014 0.0
Mg266 Mg 0.72543 0.81241 0.04816 0.0
O267 O 0.72876 0.82877 0.00012 0.0
O268 O 0.77783 0.8221 0.98326 0.0
Mg269 Mg 0.80649 0.79464 0.02003 0.0
C270 C 0.74882 0.83144 0.9797 0.0
C271 C 0.66818 0.84958 0.06118 0.0
O272 O 0.68233 0.84954 0.08796 0.0
O273 O 0.72274 0.75519 0.03047 0.0
O274 O 0.76908 0.75026 0.01237 0.0
O275 O 0.74309 0.86457 0.06518 0.0
O276 O 0.77541 0.82113 0.05393 0.0
C277 C 0.75131 0.74495 0.03408 0.0
C278 C 0.77179 0.8534 0.06271 0.0
O279 O 0.67325 0.82381 0.04315 0.0
Mg280 Mg 0.30093 0.60119 0.97798 0.0
O281 O 0.30346 0.63605 0.0202 0.0
O282 O 0.34783 0.66881 0.02218 0.0
Mg283 Mg 0.3772 0.65002 0.98253 0.0
C284 C 0.32136 0.65983 0.03272 0.0
C285 C 0.24152 0.57707 0.01186 0.0
O286 O 0.26537 0.56721 0.02938 0.0
O287 O 0.29135 0.64991 0.94882 0.0
O288 O 0.34009 0.67419 0.95133 0.0
O289 O 0.32831 0.55838 0.00178 0.0
O290 O 0.35093 0.5998 0.97707 0.0
C291 C 0.31123 0.67342 0.94122 0.0
C292 C 0.35413 0.57278 0.99306 0.0
O293 O 0.24769 0.59191 0.98764 0.0
Mg294 Mg 0.1609 0.50204 0.81575 0.0
O295 O 0.18295 0.55659 0.81742 0.0
O296 O 0.22025 0.56002 0.854 0.0
Mg297 Mg 0.21251 0.51106 0.88188 0.0
C298 C 0.20596 0.57277 0.83126 0.0
C299 C 0.16668 0.52629 0.75082 0.0
O300 O 0.19692 0.52858 0.75931 0.0
O301 O 0.20747 0.47752 0.8017 0.0
O302 O 0.23652 0.47817 0.84469 0.0
O303 O 0.12051 0.52023 0.84209 0.0
O304 O 0.16392 0.49671 0.86223 0.0
C305 C 0.23261 0.46956 0.81679 0.0
C306 C 0.13591 0.50965 0.8657 0.0
O307 O 0.14657 0.51414 0.76828 0.0
Mg308 Mg 0.25023 0.38323 0.55538 0.0
O309 O 0.23563 0.38619 0.50615 0.0
O310 O 0.27755 0.40452 0.4817 0.0
Mg311 Mg 0.31701 0.42148 0.5165 0.0
C312 C 0.24887 0.3933 0.48198 0.0
C313 C 0.18025 0.35134 0.55132 0.0
O314 O 0.15815 0.32703 0.55287 0.0
O315 O 0.28263 0.33778 0.54382 0.0
O316 O 0.32681 0.36496 0.53022 0.0
O317 O 0.23531 0.43875 0.5682 0.0
O318 O 0.28198 0.42396 0.55154 0.0
C319 C 0.31229 0.3376 0.53851 0.0
C320 C 0.26323 0.44803 0.56048 0.0
O321 O 0.2084 0.34558 0.56126 0.0
Mg322 Mg 0.39336 0.52245 0.31594 0.0
O323 O 0.35746 0.47836 0.30631 0.0
O324 O 0.31823 0.4864 0.33777 0.0
Mg325 Mg 0.33526 0.52686 0.37442 0.0
C326 C 0.32966 0.47126 0.31468 0.0
C327 C 0.44039 0.51876 0.26516 0.0
O328 O 0.45685 0.53737 0.28589 0.0
O329 O 0.35637 0.56056 0.2989 0.0
O330 O 0.32629 0.56729 0.33904 0.0
O331 O 0.42497 0.49323 0.34738 0.0
O332 O 0.38503 0.52638 0.36119 0.0
C333 C 0.33405 0.57574 0.31291 0.0
C334 C 0.40908 0.50773 0.36876 0.0
O335 O 0.41208 0.50961 0.2701 0.0
C336 C 0.96235 0.01933 0.98974 0.0
N337 N 0.93239 0.98825 0.07341 0.0
C338 C 0.90379 0.00036 0.06327 0.0
C339 C 0.87614 0.98091 0.06706 0.0
C340 C 0.87817 0.9489 0.08149 0.0
C341 C 0.90753 0.93905 0.09442 0.0
C342 C 0.93456 0.95917 0.08997 0.0
Zn343 Zn 0.97274 0.00633 0.05603 0.0
C344 C 0.00437 0.94709 0.02487 0.0
N345 N 0.05748 0.0375 0.01682 0.0
C346 C 0.06215 0.06795 0.00266 0.0
C347 C 0.08204 0.01582 0.02352 0.0
C348 C 0.11287 0.02501 0.01728 0.0
C349 C 0.11863 0.0568 0.00395 0.0
C350 C 0.09298 0.07815 -0.00426 0.0
Zn351 Zn 0.01564 0.02284 0.03349 0.0
O352 O 0.948 0.01056 0.01287 0.0
C353 C 0.98129 0.08247 0.06283 0.0
O354 O 0.99144 0.02864 0.99231 0.0
H355 H 0.078 0.99189 0.03499 0.0
H356 H 0.90272 0.02351 0.05009 0.0
H357 H 0.04221 0.08482 -0.00226 0.0
O358 O 0.96204 0.05812 0.06876 0.0
O359 O 0.00572 0.07507 0.04794 0.0
H360 H 0.9576 0.9499 0.09761 0.0
O361 O 0.04075 0.01633 0.0748 0.0
O362 O -0.00156 0.00162 0.0983 0.0
O363 O 0.02381 0.97087 0.01839 0.0
O364 O 0.98277 0.95459 0.0429 0.0
C365 C 0.02821 0.00798 0.0988 0.0
H366 H 0.85396 0.9894 0.05665 0.0
H367 H 0.90994 0.91489 0.1062 0.0
H368 H 0.13222 0.00784 0.02359 0.0
H369 H 0.09689 0.1029 0.98535 0.0
C370 C 0.35692 0.77995 0.24683 0.0
N371 N 0.27216 0.76048 0.19697 0.0
C372 C 0.289 0.77832 0.17707 0.0
C373 C 0.29225 0.76464 0.14806 0.0
C374 C 0.27729 0.73263 0.13893 0.0
C375 C 0.25684 0.71705 0.15895 0.0
C376 C 0.25498 0.73122 0.18819 0.0
Zn377 Zn 0.28357 0.77262 0.24095 0.0
C378 C 0.29873 0.7105 0.27459 0.0
N379 N 0.31452 0.79949 0.33138 0.0
C380 C 0.32986 0.82993 0.34047 0.0
C381 C 0.30236 0.77789 0.35172 0.0
C382 C 0.30516 0.78655 0.3823 0.0
C383 C 0.31985 0.81823 0.3922 0.0
C384 C 0.33256 0.84001 0.37098 0.0
Zn385 Zn 0.30294 0.78744 0.28686 0.0
O386 O 0.33276 0.77483 0.22908 0.0
C387 C 0.28615 0.85004 0.25286 0.0
O388 O 0.35241 0.78688 0.2745 0.0
H389 H 0.28921 0.75446 0.34431 0.0
H390 H 0.30258 0.80149 0.18448 0.0
H391 H 0.33907 0.84699 0.32406 0.0
O392 O 0.27744 0.82643 0.23333 0.0
O393 O 0.29899 0.84118 0.27765 0.0
H394 H 0.24177 0.71742 0.20441 0.0
O395 O 0.254 0.78664 0.29891 0.0
O396 O 0.23469 0.76955 0.25434 0.0
O397 O 0.30589 0.73404 0.29463 0.0
O398 O 0.28924 0.71899 0.24864 0.0
C399 C 0.23014 0.77759 0.28185 0.0
H400 H 0.30851 0.77782 0.13401 0.0
H401 H 0.2438 0.69308 0.15279 0.0
H402 H 0.29475 0.76931 0.398 0.0
H403 H 0.34419 0.86464 0.37792 0.0
C404 C 0.53625 0.02498 0.59499 0.0
N405 N 0.58439 0.9417 0.55451 0.0
C406 C 0.60095 0.94281 0.58129 0.0
C407 C 0.6125 0.91216 0.59331 0.0
C408 C 0.60764 0.87991 0.57733 0.0
C409 C 0.59344 0.88021 0.54822 0.0
C410 C 0.58142 0.9115 0.5374 0.0
Zn411 Zn 0.56309 0.98671 0.54233 0.0
C412 C 0.49266 0.97906 0.53086 0.0
N413 N 0.52151 0.08188 0.51956 0.0
C414 C 0.53093 0.1125 0.53404 0.0
C415 C 0.49894 0.08084 0.4969 0.0
C416 C 0.4851 0.11163 0.48764 0.0
C417 C 0.49504 0.14362 0.50157 0.0
C418 C 0.51806 0.14409 0.52513 0.0
Zn419 Zn 0.54163 0.03682 0.53075 0.0
O420 O 0.5509 -0.00276 0.58748 0.0
C421 C 0.61191 0.0443 0.54208 0.0
O422 O 0.53122 0.04812 0.57583 0.0
H423 H 0.49216 0.05616 0.48555 0.0
H424 H 0.60384 0.96732 0.59419 0.0
H425 H 0.54883 0.11244 0.55212 0.0
O426 O 0.60799 0.01257 0.54879 0.0
O427 O 0.58764 0.06214 0.53469 0.0
H428 H 0.56868 0.91141 0.51587 0.0
O429 O 0.55091 0.02608 0.48568 0.0
O430 O 0.57509 0.97729 0.49666 0.0
O431 O 0.49652 0.01144 0.52636 0.0
O432 O 0.51714 0.96047 0.53625 0.0
C433 C 0.56728 -0.0001 0.47758 0.0
H434 H 0.62295 0.91375 0.61585 0.0
H435 H 0.59001 0.85628 0.53455 0.0
H436 H 0.46777 0.1106 0.46899 0.0
H437 H 0.5262 0.16856 0.53615 0.0
C438 C 0.31211 0.20874 0.75599 0.0
N439 N 0.27671 0.26983 0.8254 0.0
C440 C 0.25298 0.24645 0.82974 0.0
C441 C 0.24774 0.23564 0.85853 0.0
C442 C 0.26848 0.24753 0.88244 0.0
C443 C 0.28922 0.27574 0.87768 0.0
C444 C 0.29272 0.28672 0.84881 0.0
Zn445 Zn 0.29422 0.27543 0.78469 0.0
C446 C 0.36667 0.28311 0.7911 0.0
N447 N 0.3341 0.29022 0.70083 0.0
C448 C 0.35759 0.26869 0.69101 0.0
C449 C 0.31816 0.31159 0.68197 0.0
C450 C 0.3244 0.31052 0.65167 0.0
C451 C 0.34708 0.28711 0.64066 0.0
C452 C 0.3645 0.26662 0.6606 0.0
Zn453 Zn 0.31631 0.28546 0.74214 0.0
O454 O 0.29707 0.22079 0.77813 0.0
C455 C 0.24374 0.2767 0.73647 0.0
O456 O 0.3227 0.22994 0.73749 0.0
H457 H 0.29934 0.32811 0.69011 0.0
H458 H 0.23995 0.23404 0.81073 0.0
H459 H 0.36986 0.25179 0.70645 0.0
O460 O 0.24716 0.27474 0.76473 0.0
O461 O 0.26856 0.28017 0.72136 0.0
H462 H 0.31068 0.30626 0.84486 0.0
O463 O 0.30939 0.34142 0.74777 0.0
O464 O 0.29173 0.32942 0.79176 0.0
O465 O 0.36374 0.29041 0.76353 0.0
O466 O 0.34173 0.27548 0.80467 0.0
C467 C 0.29874 0.35175 0.77285 0.0
H468 H 0.22996 0.21547 0.86131 0.0
H469 H 0.30549 0.28664 0.89503 0.0
H470 H 0.31067 0.32676 0.63667 0.0
H471 H 0.3822 0.24842 0.65264 0.0
C472 C 0.10721 0.99046 0.55381 0.0
N473 N 0.06546 0.04195 0.48053 0.0
C474 C 0.09257 0.06157 0.47991 0.0
C475 C 0.10361 0.07199 0.45258 0.0
C476 C 0.08635 0.06225 0.42591 0.0
C477 C 0.05741 0.04405 0.42751 0.0
C478 C 0.04748 0.0339 0.45517 0.0
Zn479 Zn 0.0521 0.02045 0.51875 0.0
C480 C 0.03844 0.94212 0.50692 0.0
N481 N 0.02102 0.97462 0.59763 0.0
C482 C 0.03897 0.9826 0.62307 0.0
C483 C 0.99137 0.96025 0.59881 0.0
C484 C 0.97762 0.9564 0.62643 0.0
C485 C -0.00511 0.96677 0.65289 0.0
C486 C 0.02641 0.9785 0.6511 0.0
Zn487 Zn 0.03558 0.99478 0.5588 0.0
O488 O 0.10094 0.00803 0.5307 0.0
C489 C 0.04836 0.07363 0.56954 0.0
O490 O 0.08441 0.98198 0.57007 0.0
H491 H 0.97748 0.9541 0.57834 0.0
H492 H 0.10635 0.06776 0.50044 0.0
H493 H 0.06217 0.99471 0.62172 0.0
O494 O 0.05566 0.07082 0.54219 0.0
O495 O 0.04053 0.04594 0.58258 0.0
H496 H 0.02616 0.018 0.45615 0.0
O497 O 0.98698 0.00777 0.54696 0.0
O498 O 0.00365 0.03259 0.50722 0.0
O499 O 0.03039 0.94416 0.5342 0.0
O500 O 0.04799 0.96992 0.4951 0.0
C501 C 0.98084 0.02467 0.52353 0.0
H502 H 0.12609 0.08601 0.45213 0.0
H503 H 0.04374 0.03543 0.40743 0.0
H504 H 0.95326 0.94707 0.62707 0.0
H505 H 0.0403 0.98709 0.67105 0.0
C506 C 0.2765 0.76999 0.71424 0.0
N507 N 0.35058 0.72996 0.76868 0.0
C508 C 0.35737 0.70643 0.7462 0.0
C509 C 0.38873 0.6956 0.74257 0.0
C510 C 0.41307 0.70895 0.76249 0.0
C511 C 0.40488 0.73154 0.78646 0.0
C512 C 0.37355 0.74217 0.78885 0.0
Zn513 Zn 0.30637 0.75041 0.77279 0.0
C514 C 0.30986 0.82838 0.77694 0.0
N515 N 0.21609 0.7948 0.78486 0.0
C516 C 0.19017 0.78133 0.76908 0.0
C517 C 0.21329 0.81956 0.80737 0.0
C518 C 0.18332 0.83021 0.81603 0.0
C519 C 0.15619 0.8148 0.80158 0.0
C520 C 0.15973 0.79094 0.77721 0.0
Zn521 Zn 0.25926 0.77351 0.77878 0.0
O522 O 0.29965 0.75274 0.72534 0.0
C523 C 0.25624 0.69554 0.77654 0.0
O524 O 0.25498 0.78094 0.73145 0.0
H525 H 0.23427 0.82959 0.81978 0.0
H526 H 0.33868 0.69702 0.73047 0.0
H527 H 0.19308 0.76174 0.75124 0.0
O528 O 0.28608 0.6995 0.77413 0.0
O529 O 0.23836 0.72221 0.7752 0.0
H530 H 0.36786 0.76114 0.80638 0.0
O531 O 0.26358 0.76557 0.82601 0.0
O532 O 0.31252 0.74862 0.81998 0.0
O533 O 0.28077 0.82458 0.78295 0.0
O534 O 0.32655 0.80133 0.77218 0.0
C535 C 0.28954 0.75405 0.83701 0.0
H536 H 0.39402 0.67842 0.72358 0.0
H537 H 0.42273 0.742 0.80266 0.0
H538 H 0.1814 0.84843 0.83509 0.0
H539 H 0.13918 0.77874 0.76549 0.0
C540 C 0.55643 0.94485 0.04884 0.0
N541 N 0.58421 0.04478 0.08149 0.0
C542 C 0.563 0.04132 0.10339 0.0
C543 C 0.57161 0.05065 0.13297 0.0
C544 C 0.6026 0.06277 0.14019 0.0
C545 C 0.6236 0.06788 0.11713 0.0
C546 C 0.6137 0.05894 0.08757 0.0
Zn547 Zn 0.57233 0.02153 0.04099 0.0
C548 C 0.62615 0.98096 0.01631 0.0
N549 N 0.54709 0.96811 0.95913 0.0
C550 C 0.51996 0.94832 0.95789 0.0
C551 C 0.5623 0.97591 0.93398 0.0
C552 C 0.54827 0.967 0.90593 0.0
C553 C 0.51836 0.95022 0.9041 0.0
C554 C 0.50508 0.93895 0.93034 0.0
Zn555 Zn 0.56046 0.9926 -0.00159 0.0
O556 O 0.56346 0.97343 0.06336 0.0
C557 C 0.5044 0.02513 0.02635 0.0
O558 O 0.55304 0.94507 0.02052 0.0
H559 H 0.58392 0.99156 0.93567 0.0
H560 H 0.54003 0.02912 0.09836 0.0
H561 H 0.50838 0.94233 0.97825 0.0
O562 O 0.52507 0.03734 0.04543 0.0
O563 O 0.51289 0.00597 0.00436 0.0
H564 H 0.63017 0.06133 0.06979 0.0
O565 O 0.56762 0.04171 0.976 0.0
O566 O 0.58062 0.06963 0.01864 0.0
O567 O 0.60736 0.97694 -0.00655 0.0
O568 O 0.61936 0.00348 0.0368 0.0
C569 C 0.57517 0.07033 0.99041 0.0
H570 H 0.55504 0.04564 0.15027 0.0
H571 H 0.64779 0.07699 0.12209 0.0
H572 H 0.55911 0.97638 0.88614 0.0
H573 H 0.4821 0.92579 0.92966 0.0
C574 C 0.2429 0.22838 0.26131 0.0
N575 N 0.28827 0.28247 0.19691 0.0
C576 C 0.31286 0.26001 0.20133 0.0
C577 C 0.32649 0.24283 0.17706 0.0
C578 C 0.31416 0.24822 0.14809 0.0
C579 C 0.29028 0.27323 0.14388 0.0
C580 C 0.27777 0.29049 0.16884 0.0
Zn581 Zn 0.26194 0.2947 0.23299 0.0
C582 C 0.19297 0.28724 0.21695 0.0
N583 N 0.20711 0.31474 0.30991 0.0
C584 C 0.21473 0.29507 0.33388 0.0
C585 C 0.1923 0.3462 0.31365 0.0
C586 C 0.18878 0.36102 0.34246 0.0
C587 C 0.19956 0.3426 0.36738 0.0
C588 C 0.21071 0.30837 0.36289 0.0
Zn589 Zn 0.23139 0.30355 0.27165 0.0
O590 O 0.25706 0.23969 0.23908 0.0
C591 C 0.30088 0.30954 0.28736 0.0
O592 O 0.23133 0.24997 0.28009 0.0
H593 H 0.18608 0.36149 0.29449 0.0
H594 H 0.32034 0.25314 0.22373 0.0
H595 H 0.22729 0.27071 0.33103 0.0
O596 O 0.30332 0.29908 0.2603 0.0
O597 O 0.27355 0.31251 0.29805 0.0
H598 H 0.25816 0.30834 0.16581 0.0
O599 O 0.23266 0.35688 0.26271 0.0
O600 O 0.26729 0.34911 0.22783 0.0
O601 O 0.18965 0.29383 0.24482 0.0
O602 O 0.22019 0.29081 0.20611 0.0
C603 C 0.25334 0.36955 0.24618 0.0
H604 H 0.34465 0.22339 0.18107 0.0
H605 H 0.28036 0.27802 0.12169 0.0
H606 H 0.1799 0.38749 0.34518 0.0
H607 H 0.21966 0.2935 0.38154 0.0
C608 C 0.60781 0.49028 0.05254 0.0
N609 N 0.56592 0.54093 0.97922 0.0
C610 C 0.59204 0.5622 0.97918 0.0
C611 C 0.60268 0.57419 0.95222 0.0
C612 C 0.58611 0.56424 0.92524 0.0
C613 C 0.55829 0.54381 0.92621 0.0
C614 C 0.54866 0.53225 0.95356 0.0
Zn615 Zn 0.55269 0.51944 0.01748 0.0
C616 C 0.53894 0.441 0.00631 0.0
N617 N 0.52228 0.47478 0.09741 0.0
C618 C 0.54223 0.48125 0.12181 0.0
C619 C 0.49146 0.46486 0.10061 0.0
C620 C 0.4787 0.46554 0.12902 0.0
C621 C 0.49808 0.47578 0.15434 0.0
C622 C 0.53072 0.48119 0.15055 0.0
Zn623 Zn 0.53625 0.49391 0.05774 0.0
O624 O 0.60162 0.50795 0.0295 0.0
C625 C 0.54895 0.5728 0.06792 0.0
O626 O 0.58496 0.48123 0.06844 0.0
H627 H 0.47593 0.45952 0.08106 0.0
H628 H 0.60521 0.5689 -5e-05 0.0
H629 H 0.56648 0.48968 0.11916 0.0
O630 O 0.55578 0.57002 0.04047 0.0
O631 O 0.54157 0.5451 0.08112 0.0
H632 H 0.52803 0.51521 0.95413 0.0
O633 O 0.4878 0.50686 0.0461 0.0
O634 O 0.50417 0.53072 0.00578 0.0
O635 O 0.53067 0.44323 0.03353 0.0
O636 O 0.54889 0.46861 -0.00557 0.0
C637 C 0.4815 0.52305 0.02235 0.0
H638 H 0.62423 0.58997 0.95232 0.0
H639 H 0.54519 0.53499 0.90587 0.0
H640 H 0.45341 0.46094 0.13069 0.0
H641 H 0.54689 0.48791 0.16943 0.0
C642 C 0.77157 0.27775 0.21913 0.0
N643 N 0.84409 0.23519 0.27402 0.0
C644 C 0.85031 0.21138 0.25158 0.0
C645 C 0.88092 0.19776 0.24919 0.0
C646 C 0.90508 0.20829 0.27048 0.0
C647 C 0.89728 0.23134 0.2943 0.0
C648 C 0.86687 0.24513 0.29523 0.0
Zn649 Zn 0.80046 0.25727 0.27774 0.0
C650 C 0.80565 0.33495 0.28232 0.0
N651 N 0.71024 0.3035 0.29055 0.0
C652 C 0.68366 0.28905 0.2765 0.0
C653 C 0.7082 0.32891 0.31269 0.0
C654 C 0.67857 0.33932 0.32266 0.0
C655 C 0.65094 0.32289 0.31009 0.0
C656 C 0.65358 0.29824 0.28615 0.0
Zn657 Zn 0.75355 0.28139 0.28392 0.0
O658 O 0.79418 0.25994 0.23049 0.0
C659 C 0.74955 0.20342 0.28113 0.0
O660 O 0.7499 0.28919 0.23609 0.0
H661 H 0.7296 0.33958 0.32395 0.0
H662 H 0.83176 0.20364 0.23509 0.0
H663 H 0.68582 0.26889 0.259 0.0
O664 O 0.77935 0.20714 0.27861 0.0
O665 O 0.73184 0.23026 0.28011 0.0
H666 H 0.86176 0.26437 0.31274 0.0
O667 O 0.75774 0.27297 0.33133 0.0
O668 O 0.80628 0.25512 0.32471 0.0
O669 O 0.77641 0.33211 0.2883 0.0
O670 O 0.82165 0.3074 0.27749 0.0
C671 C 0.78364 0.26087 0.34201 0.0
H672 H 0.88584 0.18044 0.23018 0.0
H673 H 0.91481 0.23971 0.31161 0.0
H674 H 0.6774 0.3582 0.34135 0.0
H675 H 0.63265 0.2852 0.27585 0.0
C676 C 0.06562 0.44001 0.54254 0.0
N677 N 0.09348 0.53967 0.57604 0.0
C678 C 0.07567 0.53127 0.59944 0.0
C679 C 0.08692 0.53861 0.62862 0.0
C680 C 0.11688 0.55473 0.63387 0.0
C681 C 0.13377 0.56549 0.6093 0.0
C682 C 0.12151 0.55758 0.58028 0.0
Zn683 Zn 0.07979 0.51777 0.53572 0.0
C684 C 0.13329 0.4803 0.50787 0.0
N685 N 0.05213 0.46684 0.45329 0.0
C686 C 0.02488 0.44728 0.45126 0.0
C687 C 0.06733 0.47605 0.4285 0.0
C688 C 0.05323 0.46893 0.40017 0.0
C689 C 0.02322 0.4524 0.39762 0.0
C690 C 0.00992 0.43961 0.42336 0.0
Zn691 Zn 0.06633 0.48959 0.49318 0.0
O692 O 0.07395 0.46831 0.55686 0.0
C693 C 0.01119 0.51845 0.52501 0.0
O694 O 0.06018 0.44073 0.51439 0.0
H695 H 0.08904 0.49151 0.43078 0.0
H696 H 0.05366 0.51662 0.59559 0.0
H697 H 0.01337 0.44008 0.47135 0.0
O698 O 0.03247 0.53054 0.54355 0.0
O699 O 0.01902 0.50153 0.50151 0.0
H700 H 0.13522 0.56387 0.56123 0.0
O701 O 0.07184 0.53999 0.47187 0.0
O702 O 0.08493 0.56719 0.51475 0.0
O703 O 0.11318 0.47516 0.48615 0.0
O704 O 0.12704 0.50275 0.52857 0.0
C705 C 0.07885 0.5685 0.48668 0.0
H706 H 0.0733 0.52917 0.64675 0.0
H707 H 0.15683 0.57827 0.61245 0.0
H708 H 0.06415 0.47945 0.38088 0.0
H709 H 0.98693 0.42646 0.42216 0.0
C710 C 0.80815 0.71077 0.26451 0.0
N711 N 0.77978 0.76644 0.34002 0.0
C712 C 0.75629 0.74261 0.34406 0.0
C713 C 0.75358 0.7279 0.37182 0.0
C714 C 0.77642 0.73643 0.3949 0.0
C715 C 0.79747 0.76466 0.39111 0.0
C716 C 0.79842 0.77967 0.36338 0.0
Zn717 Zn 0.79266 0.77619 0.29823 0.0
C718 C 0.86484 0.78436 0.29778 0.0
N719 N 0.82082 0.79614 0.21066 0.0
C720 C 0.83829 0.77184 0.19556 0.0
C721 C 0.80146 0.81855 0.19579 0.0
C722 C 0.79541 0.81356 0.16509 0.0
C723 C 0.80903 0.78493 0.14982 0.0
C724 C 0.83254 0.76555 0.16479 0.0
Zn725 Zn 0.80976 0.78795 0.25381 0.0
O726 O 0.79578 0.72165 0.28856 0.0
C727 C 0.73715 0.77852 0.25573 0.0
O728 O 0.81619 0.73298 0.24578 0.0
H729 H 0.78749 0.83746 0.20807 0.0
H730 H 0.74139 0.73278 0.32523 0.0
H731 H 0.8538 0.75447 0.20777 0.0
O732 O 0.74431 0.77573 0.28335 0.0
O733 O 0.7596 0.78287 0.23791 0.0
H734 H 0.81627 0.79948 0.35983 0.0
O735 O 0.80323 0.84283 0.26284 0.0
O736 O 0.79009 0.83008 0.30818 0.0
O737 O 0.85951 0.79236 0.27054 0.0
O738 O 0.84133 0.77633 0.31316 0.0
C739 C 0.79509 0.85276 0.28888 0.0
H740 H 0.7358 0.70759 0.37411 0.0
H741 H 0.81546 0.77276 0.40803 0.0
H742 H 0.77781 0.82972 0.15404 0.0
H743 H 0.84384 0.74347 0.15368 0.0
C744 C 0.85621 0.28919 0.74677 0.0
N745 N 0.77143 0.26528 0.69836 0.0
C746 C 0.78715 0.28349 0.67792 0.0
C747 C 0.79056 0.26933 0.64907 0.0
C748 C 0.77686 0.23641 0.6407 0.0
C749 C 0.75737 0.22036 0.66125 0.0
C750 C 0.75537 0.23506 0.6903 0.0
Zn751 Zn 0.78318 0.27842 0.74209 0.0
C752 C 0.8023 0.21699 0.7759 0.0
N753 N 0.81413 0.30665 0.83235 0.0
C754 C 0.8284 0.33758 0.84178 0.0
C755 C 0.80302 0.28408 0.8525 0.0
C756 C 0.806 0.29208 0.88316 0.0
C757 C 0.81975 0.32409 0.89346 0.0
C758 C 0.83125 0.347 0.87245 0.0
Zn759 Zn 0.80245 0.29426 0.78782 0.0
O760 O 0.83195 0.28321 0.72933 0.0
C761 C 0.78203 0.35634 0.754 0.0
O762 O 0.85187 0.29602 0.77452 0.0
H763 H 0.79055 0.26028 0.8449 0.0
H764 H 0.79982 0.30747 0.68479 0.0
H765 H 0.83667 0.35546 0.82554 0.0
O766 O 0.77415 0.33235 0.73445 0.0
O767 O 0.79579 0.34798 0.77857 0.0
H768 H 0.74304 0.22098 0.70694 0.0
O769 O 0.75362 0.29084 0.80052 0.0
O770 O 0.73481 0.27262 0.75609 0.0
O771 O 0.80823 0.24109 0.79573 0.0
O772 O 0.79184 0.22476 0.75002 0.0
C773 C 0.73006 0.28047 0.78358 0.0
H774 H 0.80601 0.28296 0.63457 0.0
H775 H 0.74524 0.19567 0.65568 0.0
H776 H 0.79643 0.27399 0.89865 0.0
H777 H 0.84207 0.37197 0.87967 0.0
C778 C 0.74769 0.7409 0.75764 0.0
N779 N 0.79623 0.78495 0.69003 0.0
C780 C 0.81953 0.76191 0.69749 0.0
C781 C 0.83308 0.74069 0.67549 0.0
C782 C 0.82197 0.74266 0.6457 0.0
C783 C 0.79952 0.76821 0.63821 0.0
C784 C 0.78706 0.78953 0.66091 0.0
Zn785 Zn 0.76895 0.80299 0.72385 0.0
C786 C 0.7013 0.79324 0.7068 0.0
N787 N 0.71254 0.83357 0.79692 0.0
C788 C 0.6969 0.81005 0.81328 0.0
C789 C 0.72102 0.86587 0.80901 0.0
C790 C 0.71812 0.87362 0.83938 0.0
C791 C 0.70687 0.84772 0.8576 0.0
C792 C 0.69387 0.81662 0.84407 0.0
Zn793 Zn 0.73792 0.81685 0.76069 0.0
O794 O 0.76117 0.74962 0.73416 0.0
C795 C 0.80647 0.82342 0.77792 0.0
O796 O 0.7382 0.76471 0.77575 0.0
H797 H 0.73407 0.88414 0.79641 0.0
H798 H 0.82588 0.75775 0.72073 0.0
H799 H 0.69012 0.78457 0.80344 0.0
O800 O 0.80935 0.80843 0.75238 0.0
O801 O 0.77903 0.82987 0.78717 0.0
H802 H 0.76844 0.80785 0.65544 0.0
O803 O 0.73857 0.86826 0.74478 0.0
O804 O 0.7769 0.8559 0.71455 0.0
O805 O 0.69735 0.80237 0.73412 0.0
O806 O 0.72824 0.79805 0.69574 0.0
C807 C 0.76173 0.87857 0.72986 0.0
H808 H 0.85012 0.72098 0.68203 0.0
H809 H 0.79059 0.77041 0.61528 0.0
H810 H 0.7281 0.89803 0.84906 0.0
H811 H 0.68492 0.796 0.85751 0.0
C812 C 0.46692 0.54146 0.48544 0.0
N813 N 0.42784 0.53922 0.56952 0.0
C814 C 0.40818 0.56399 0.55804 0.0
C815 C 0.37578 0.56315 0.56304 0.0
C816 C 0.36345 0.53635 0.57975 0.0
C817 C 0.38462 0.51306 0.59368 0.0
C818 C 0.41702 0.51492 0.58813 0.0
Zn819 Zn 0.47212 0.53691 0.55309 0.0
C820 C 0.4895 0.46802 0.53029 0.0
N821 N 0.56182 0.53956 0.51409 0.0
C822 C 0.5736 0.56697 0.49927 0.0
C823 C 0.58031 0.51173 0.52121 0.0
C824 C 0.61215 0.51114 0.5142 0.0
C825 C 0.62527 0.53987 0.50047 0.0
C826 C 0.6057 0.56786 0.49248 0.0
Zn827 Zn 0.51778 0.54079 0.53081 0.0
O828 O 0.45088 0.53975 0.50886 0.0
C829 C 0.49738 0.61028 0.55132 0.0
O830 O 0.49692 0.5453 0.48808 0.0
H831 H 0.57087 0.49066 0.53375 0.0
H832 H 0.41715 0.583 0.54312 0.0
H833 H 0.55848 0.58883 0.49389 0.0
O834 O 0.47467 0.59109 0.55886 0.0
O835 O 0.5206 0.59614 0.53824 0.0
H836 H 0.43309 0.49549 0.59692 0.0
O837 O 0.53947 0.53519 0.57352 0.0
O838 O 0.49494 0.53259 0.59715 0.0
O839 O 0.51317 0.48613 0.5229 0.0
O840 O 0.46874 0.4823 0.54652 0.0
C841 C 0.52532 0.53289 0.59787 0.0
H842 H 0.36018 0.58142 0.55189 0.0
H843 H 0.37593 0.4916 0.60634 0.0
H844 H 0.62685 0.48948 0.52113 0.0
H845 H 0.61537 0.5905 0.48198 0.0
C846 C 0.03376 0.52542 0.09168 0.0
N847 N 0.08104 0.4396 0.05301 0.0
C848 C 0.09647 0.43857 0.08028 0.0
C849 C 0.10326 0.40641 0.09266 0.0
C850 C 0.09401 0.37527 0.07669 0.0
C851 C 0.08139 0.37722 0.04723 0.0
C852 C 0.07478 0.40992 0.03584 0.0
Zn853 Zn 0.06203 0.48523 0.04008 0.0
C854 C 0.99206 0.47844 0.02787 0.0
N855 N 0.02235 0.58003 0.01443 0.0
C856 C 0.03168 0.61177 0.0269 0.0
C857 C -7e-05 0.57701 0.99167 0.0
C858 C 0.98606 0.60671 0.98027 0.0
C859 C -0.00413 0.63975 0.99206 0.0
C860 C 0.01879 0.64238 0.01574 0.0
Zn861 Zn 0.04208 0.53547 0.02776 0.0
O862 O 0.04657 0.49633 0.08455 0.0
C863 C 0.11191 0.54192 0.04015 0.0
O864 O 0.03215 0.5492 0.07263 0.0
H865 H 0.99332 0.55152 0.98176 0.0
H866 H 0.10136 0.46263 0.09337 0.0
H867 H 0.04956 0.61331 0.04502 0.0
O868 O 0.10723 0.51085 0.04846 0.0
O869 O 0.08818 0.55964 0.03112 0.0
H870 H 0.0626 0.41151 0.01416 0.0
O871 O 0.05159 0.52262 0.98278 0.0
O872 O 0.07689 0.47514 -0.00481 0.0
O873 O -0.00368 0.51093 0.02431 0.0
O874 O 0.01634 0.4593 0.03217 0.0
C875 C 0.06913 0.49705 0.97553 0.0
H876 H 0.1128 0.40607 0.11553 0.0
H877 H 0.07427 0.35373 0.03412 0.0
H878 H 0.96889 0.60395 0.96155 0.0
H879 H 0.02688 0.66771 0.02509 0.0
C880 C 0.00788 0.16973 0.09601 0.0
C881 C 0.98937 0.17196 0.12141 0.0
H882 H 0.01907 0.13982 0.05652 0.0
C883 C 0.963 0.14963 0.12325 0.0
H884 H 0.02827 0.187 0.09423 0.0
C885 C 0.95779 0.1223 0.10172 0.0
C886 C 0.97905 0.11719 0.07838 0.0
H887 H 0.94857 0.15095 0.14279 0.0
H888 H 0.93914 0.10327 0.10511 0.0
C889 C 0.00264 0.14267 0.07449 0.0
C890 C 0.1639 0.77909 0.33815 0.0
C891 C 0.13712 0.768 0.32028 0.0
H892 H 0.21393 0.79093 0.34017 0.0
C893 C 0.14113 0.761 0.2894 0.0
H894 H 0.16184 0.78475 0.36193 0.0
C895 C 0.17101 0.76454 0.27683 0.0
C896 C 0.19787 0.77525 0.29472 0.0
H897 H 0.12114 0.75244 0.27479 0.0
H898 H 0.17307 0.75854 0.2531 0.0
C899 C 0.19383 0.78267 0.32556 0.0
C900 C 0.58552 0.79324 0.60789 0.0
C901 C 0.60414 0.79395 0.63458 0.0
H902 H 0.57185 0.81975 0.56879 0.0
C903 C 0.62897 0.81844 0.63911 0.0
H904 H 0.56623 0.7743 0.60414 0.0
C905 C 0.63303 0.8443 0.61822 0.0
C906 C 0.61151 0.84655 0.59326 0.0
H907 H 0.64354 0.81926 0.65968 0.0
H908 H 0.6514 0.86405 0.62292 0.0
C909 C 0.58905 0.8193 0.58744 0.0
C910 C 0.43173 0.26467 0.85056 0.0
C911 C 0.45937 0.27726 0.83774 0.0
H912 H 0.38113 0.25698 0.84626 0.0
C913 C 0.45605 0.29302 0.80977 0.0
H914 H 0.43325 0.25226 0.87193 0.0
C915 C 0.42613 0.29523 0.79471 0.0
C916 C 0.39855 0.28219 0.80735 0.0
H917 H 0.47677 0.30283 0.79903 0.0
H918 H 0.42467 0.30691 0.77302 0.0
C919 C 0.40176 0.26734 0.83571 0.0
C920 C 0.05038 0.87265 0.44382 0.0
C921 C 0.03328 0.84357 0.45343 0.0
H922 H 0.065 0.92634 0.45271 0.0
C923 C 0.01877 0.84702 0.48134 0.0
H924 H 0.06169 0.87124 0.42247 0.0
C925 C 0.02087 0.87853 0.49885 0.0
C926 C 0.03714 0.90794 0.48887 0.0
H927 H 0.00541 0.82531 0.48965 0.0
H928 H 0.00916 0.88003 0.52 0.0
C929 C 0.05206 0.90441 0.46116 0.0
C930 C 0.50001 0.72762 0.75193 0.0
C931 C 0.51031 0.69589 0.73885 0.0
H932 H 0.46139 0.75677 0.76889 0.0
C933 C 0.48929 0.667 0.73614 0.0
H934 H 0.51578 0.75026 0.75445 0.0
C935 C 0.4578 0.67059 0.74481 0.0
C936 C 0.44707 0.70304 0.75645 0.0
H937 H 0.49669 0.64226 0.72603 0.0
H938 H 0.44169 0.64831 0.74174 0.0
C939 C 0.4688 0.73122 0.76048 0.0
C940 C 0.55544 0.16578 0.97625 0.0
C941 C 0.55886 0.1677 0.94518 0.0
H942 H 0.55906 0.13424 0.01493 0.0
C943 C 0.57061 0.13812 0.92947 0.0
H944 H 0.54605 0.18791 0.98893 0.0
C945 C 0.57707 0.10679 0.94421 0.0
C946 C 0.57294 0.10463 0.97523 0.0
H947 H 0.57294 0.1385 0.90544 0.0
H948 H 0.58448 0.08394 0.93118 0.0
C949 C 0.56294 0.13495 0.99115 0.0
C950 C 0.1363 0.21199 0.20248 0.0
C951 C 0.14274 0.20209 0.17276 0.0
H952 H 0.14549 0.24846 0.23935 0.0
C953 C 0.16161 0.22406 0.15625 0.0
H954 H 0.12242 0.19504 0.2159 0.0
C955 C 0.17504 0.25472 0.16972 0.0
C956 C 0.16999 0.26376 0.20002 0.0
H957 H 0.16666 0.21707 0.1332 0.0
H958 H 0.19107 0.2701 0.15699 0.0
C959 C 0.14934 0.24283 0.21583 0.0
C960 C 0.0994 0.01861 0.15375 0.0
C961 C 0.08659 0.00841 0.1806 0.0
H962 H 0.09114 0.02619 0.10692 0.0
C963 C 0.05447 -0.00257 0.18022 0.0
H964 H 0.124 0.02716 0.15324 0.0
C965 C 0.03553 -0.00304 0.15371 0.0
C966 C 0.04828 0.00727 0.12689 0.0
H967 H 0.04375 0.9894 0.20051 0.0
H968 H 0.01087 0.98865 0.1543 0.0
C969 C 0.0805 0.01795 0.12719 0.0
C970 C 0.33408 0.81536 0.47625 0.0
C971 C 0.32253 0.84812 0.48616 0.0
H972 H 0.34211 0.78023 0.43868 0.0
C973 C 0.30952 0.87078 0.46494 0.0
H974 H 0.34435 0.79743 0.49207 0.0
C975 C 0.30903 0.86127 0.43434 0.0
C976 C 0.3209 0.82867 0.4245 0.0
H977 H 0.30082 0.89637 0.47188 0.0
H978 H 0.29926 0.87932 0.41836 0.0
C979 C 0.33294 0.80557 0.44575 0.0
C980 C 0.47139 0.0381 0.65029 0.0
C981 C 0.48475 0.02243 0.67562 0.0
H982 H 0.47807 0.05251 0.60509 0.0
C983 C 0.51584 0.0092 0.67476 0.0
H984 H 0.44762 0.04882 0.65056 0.0
C985 C 0.53306 0.01086 0.64879 0.0
C986 C 0.51992 0.02688 0.62354 0.0
H987 H 0.5267 -0.00294 0.6941 0.0
H988 H 0.55658 -0.0005 0.64838 0.0
C989 C 0.48903 0.04074 0.62456 0.0
C990 C 0.28597 0.16656 0.92497 0.0
C991 C 0.30547 0.18064 0.94861 0.0
H992 H 0.25905 0.17631 0.88535 0.0
C993 C 0.3072 0.21697 0.95412 0.0
H994 H 0.28393 0.1384 0.92082 0.0
C995 C 0.29121 0.23919 0.9347 0.0
C996 C 0.27483 0.22534 0.9086 0.0
H997 H 0.32126 0.2281 0.9731 0.0
H998 H 0.29341 0.26721 0.93925 0.0
C999 C 0.27111 0.1886 0.90492 0.0
C1000 C 0.14289 0.04601 0.36442 0.0
C1001 C 0.1237 0.0526 0.33885 0.0
H1002 H 0.14626 0.04471 0.41208 0.0
C1003 C 0.09377 0.06798 0.34244 0.0
H1004 H 0.16594 0.03412 0.36266 0.0
C1005 C 0.08229 0.0739 0.37111 0.0
C1006 C 0.10076 0.06493 0.39653 0.0
H1007 H 0.07848 0.07356 0.32316 0.0
H1008 H 0.05839 0.08377 0.37335 0.0
C1009 C 0.13165 0.05234 0.39294 0.0
C1010 C 0.31033 0.78999 0.63966 0.0
C1011 C 0.29417 0.82091 0.63231 0.0
H1012 H 0.31702 0.74925 0.67079 0.0
C1013 C 0.2681 0.83101 0.64933 0.0
H1014 H 0.33025 0.78101 0.62688 0.0
C1015 C 0.26034 0.81245 0.67464 0.0
C1016 C 0.2785 0.78342 0.68349 0.0
H1017 H 0.25505 0.85458 0.64435 0.0
H1018 H 0.24158 0.82242 0.68845 0.0
C1019 C 0.30264 0.77157 0.66487 0.0
C1020 C 0.45259 0.97919 0.85224 0.0
C1021 C 0.46643 0.97452 0.82441 0.0
H1022 H 0.45814 0.97421 0.89947 0.0
C1023 C 0.49509 0.95598 0.82246 0.0
H1024 H 0.43039 0.99292 0.85441 0.0
C1025 C 0.5111 0.94518 0.84837 0.0
C1026 C 0.49838 0.95232 0.87644 0.0
H1027 H 0.50617 0.95174 0.80117 0.0
H1028 H 0.5342 0.93306 0.84664 0.0
C1029 C 0.46835 0.968 0.87805 0.0
C1030 C 0.36352 0.19412 0.09503 0.0
C1031 C 0.33977 0.17457 0.07856 0.0
H1032 H 0.37391 0.23306 0.13017 0.0
C1033 C 0.30767 0.18005 0.08474 0.0
H1034 H 0.38844 0.19048 0.09063 0.0
C1035 C 0.29944 0.20494 0.10671 0.0
C1036 C 0.32315 0.22435 0.1232 0.0
H1037 H 0.28884 0.16567 0.07218 0.0
H1038 H 0.27452 0.20853 0.11123 0.0
C1039 C 0.35527 0.21856 0.11744 0.0
C1040 C 0.2053 0.07284 0.02251 0.0
C1041 C 0.21742 0.07553 -0.0061 0.0
H1042 H 0.16399 0.06543 0.04793 0.0
C1043 C 0.19622 0.07601 0.96872 0.0
H1044 H 0.22097 0.07284 0.04236 0.0
C1045 C 0.1635 0.07214 0.97203 0.0
C1046 C 0.15178 0.06759 0.00049 0.0
H1047 H 0.20492 0.07848 0.94642 0.0
H1048 H 0.14759 0.071 0.95232 0.0
C1049 C 0.17276 0.06881 0.02574 0.0
C1050 C 0.67878 0.45207 0.0952 0.0
C1051 C 0.7032 0.45421 0.07471 0.0
H1052 H 0.62994 0.4616 0.10437 0.0
C1053 C 0.69612 0.46914 0.04694 0.0
H1054 H 0.68325 0.44079 0.1168 0.0
C1055 C 0.66541 0.48155 0.03991 0.0
C1056 C 0.64094 0.47896 0.06033 0.0
H1057 H 0.71432 0.47137 0.03066 0.0
H1058 H 0.66075 0.4927 0.01828 0.0
C1059 C 0.6481 0.46407 0.08806 0.0
C1060 C 0.86261 0.40547 0.25881 0.0
C1061 C 0.85073 0.43559 0.27334 0.0
H1062 H 0.85804 0.34984 0.25094 0.0
C1063 C 0.82287 0.43273 0.28956 0.0
H1064 H 0.88424 0.4068 0.24653 0.0
C1065 C 0.80775 0.40022 0.29201 0.0
C1066 C 0.82062 0.36976 0.27888 0.0
H1067 H 0.81326 0.45557 0.3011 0.0
H1068 H 0.78662 0.39876 0.30501 0.0
C1069 C 0.84787 0.37281 0.2618 0.0
C1070 C 0.93444 0.55925 0.54745 0.0
C1071 C 0.9125 0.53391 0.53567 0.0
H1072 H 0.98366 0.57383 0.55365 0.0
C1073 C 0.92312 0.50195 0.52355 0.0
H1074 H 0.92639 0.58432 0.55639 0.0
C1075 C 0.95558 0.49652 0.52092 0.0
C1076 C 0.97756 0.52276 0.53098 0.0
H1077 H 0.90636 0.48252 0.51381 0.0
H1078 H 0.96344 0.47239 0.51003 0.0
C1079 C 0.96697 0.55344 0.54558 0.0
C1080 C 0.22823 0.14251 0.29655 0.0
C1081 C 0.21711 0.12111 0.27184 0.0
H1082 H 0.24501 0.19329 0.31242 0.0
C1083 C 0.21695 0.13464 0.24305 0.0
H1084 H 0.22852 0.13305 0.31909 0.0
C1085 C 0.22729 0.16916 0.23925 0.0
C1086 C 0.23714 0.1907 0.26426 0.0
H1087 H 0.20854 0.11875 0.22364 0.0
H1088 H 0.22614 0.17953 0.21702 0.0
C1089 C 0.23774 0.17702 0.29283 0.0
C1090 C 0.42346 0.92695 0.55953 0.0
C1091 C 0.39709 0.94702 0.55039 0.0
H1092 H 0.47419 0.92062 0.55992 0.0
C1093 C 0.4024 0.97558 0.53222 0.0
H1094 H 0.42046 0.90491 0.57366 0.0
C1095 C 0.43329 0.9847 0.52449 0.0
C1096 C 0.45978 0.96532 0.53442 0.0
H1097 H 0.38276 0.9916 0.52463 0.0
H1098 H 0.43651 0.00769 0.51143 0.0
C1099 C 0.45438 0.93583 0.55149 0.0
C1100 C 0.85309 0.63014 0.23889 0.0
C1101 C 0.84754 0.60766 0.26229 0.0
H1102 H 0.84463 0.68069 0.22102 0.0
C1103 C 0.82459 0.61708 0.28313 0.0
H1104 H 0.87055 0.62359 0.22245 0.0
C1105 C 0.80979 0.64963 0.28236 0.0
C1106 C 0.81761 0.67358 0.26073 0.0
H1107 H 0.81934 0.60008 0.30117 0.0
H1108 H 0.79368 0.65681 0.29985 0.0
C1109 C 0.83826 0.66289 0.23813 0.0
C1110 C 0.73064 0.4329 0.73186 0.0
C1111 C 0.74108 0.45875 0.75345 0.0
H1112 H 0.73577 0.37993 0.71486 0.0
C1113 C 0.76891 0.45258 0.77101 0.0
H1114 H 0.70934 0.43677 0.71798 0.0
C1115 C 0.78373 0.41999 0.76956 0.0
C1116 C 0.77137 0.3929 0.7502 0.0
H1117 H 0.77796 0.47211 0.78757 0.0
H1118 H 0.80373 0.41538 0.78491 0.0
C1119 C 0.74575 0.40024 0.73019 0.0
C1120 C 0.96092 0.8723 0.98515 0.0
C1121 C 0.97337 0.87363 0.95653 0.0
H1122 H 0.96253 0.89313 0.0302 0.0
C1123 C 0.00093 0.89376 0.95277 0.0
H1124 H 0.94035 0.85605 0.98902 0.0
C1125 C 0.01393 0.91484 0.97656 0.0
C1126 C -0.00047 0.91604 0.00444 0.0
H1127 H 0.01149 0.89464 0.9311 0.0
H1128 H 0.03357 0.93228 0.97232 0.0
C1129 C 0.97405 0.89304 0.00894 0.0
C1130 C 0.94578 0.27319 0.74103 0.0
C1131 C 0.94981 0.27365 0.70985 0.0
H1132 H 0.91367 0.27861 0.77724 0.0
C1133 C 0.92284 0.27999 0.69124 0.0
H1134 H 0.96601 0.26887 0.75617 0.0
C1135 C 0.89282 0.28543 0.70333 0.0
C1136 C 0.88882 0.28545 0.73452 0.0
H1137 H 0.92489 0.28089 0.66722 0.0
H1138 H 0.87267 0.28983 0.68811 0.0
C1139 C 0.9158 0.27927 0.75321 0.0
C1140 C 0.4943 0.22857 0.46258 0.0
C1141 C 0.46156 0.23254 0.45631 0.0
H1142 H 0.53054 0.19713 0.48268 0.0
C1143 C 0.43975 0.20923 0.46809 0.0
H1144 H 0.51157 0.24649 0.45408 0.0
C1145 C 0.45064 0.1811 0.48434 0.0
C1146 C 0.48338 0.1763 0.48935 0.0
H1147 H 0.41436 0.21182 0.46372 0.0
H1148 H 0.43358 0.16242 0.49213 0.0
C1149 C 0.50514 0.20069 0.47918 0.0
C1150 C 0.64675 0.77383 0.25667 0.0
C1151 C 0.63734 0.77463 0.22614 0.0
H1152 H 0.68497 0.77425 0.28971 0.0
C1153 C 0.66128 0.77631 0.20504 0.0
H1154 H 0.62916 0.77248 0.27364 0.0
C1155 C 0.69372 0.77759 0.21439 0.0
C1156 C 0.70297 0.77694 0.24503 0.0
H1157 H 0.65496 0.77708 0.18135 0.0
H1158 H 0.71152 0.77913 0.19763 0.0
C1159 C 0.67895 0.77485 0.26594 0.0
C1160 C 0.03081 0.17093 0.58164 0.0
C1161 C 0.03245 0.17576 0.61305 0.0
H1162 H 0.03552 0.13566 0.54349 0.0
C1163 C 0.04141 0.14703 0.63022 0.0
H1164 H 0.02402 0.19247 0.56772 0.0
C1165 C 0.04718 0.11393 0.61627 0.0
C1166 C 0.04522 0.10912 0.58478 0.0
H1167 H 0.0427 0.14978 0.65446 0.0
H1168 H 0.05285 0.09201 0.63013 0.0
C1169 C 0.03758 0.13833 0.56772 0.0
C1170 C 0.57421 0.3038 0.34744 0.0
C1171 C 0.56167 0.33753 0.35215 0.0
H1172 H 0.61196 0.27293 0.32991 0.0
C1173 C 0.57892 0.36675 0.34311 0.0
H1174 H 0.56146 0.28071 0.35396 0.0
C1175 C 0.60812 0.36221 0.32951 0.0
C1176 C 0.62007 0.32836 0.32414 0.0
H1177 H 0.56981 0.39304 0.34642 0.0
H1178 H 0.6211 0.38503 0.32275 0.0
C1179 C 0.60294 0.29926 0.33336 0.0
C1180 C 0.52848 0.85336 0.06655 0.0
C1181 C 0.54216 0.84924 0.09543 0.0
H1182 H 0.52253 0.88648 0.02915 0.0
C1183 C 0.56215 0.8761 0.1082 0.0
H1184 H 0.51289 0.83322 0.05612 0.0
C1185 C 0.56696 0.90713 0.09306 0.0
C1186 C 0.55242 0.91161 0.06457 0.0
H1187 H 0.57277 0.87393 0.13053 0.0
H1188 H 0.58179 0.92776 0.10378 0.0
C1189 C 0.53387 0.88396 0.05116 0.0
C1190 C 0.86179 0.84209 0.84481 0.0
C1191 C 0.89098 0.84498 0.83091 0.0
H1192 H 0.81162 0.83288 0.83858 0.0
C1193 C 0.89137 0.84668 0.79965 0.0
H1194 H 0.86094 0.84116 0.86894 0.0
C1195 C 0.86343 0.84086 0.78234 0.0
C1196 C 0.83477 0.83421 0.79618 0.0
H1197 H 0.9136 0.84894 0.78841 0.0
H1198 H 0.8645 0.84 0.75813 0.0
C1199 C 0.8337 0.83703 0.82749 0.0
C1200 C 0.90166 0.01432 0.92422 0.0
C1201 C 0.92064 0.00232 0.90071 0.0
H1202 H 0.89989 0.02888 0.9712 0.0
C1203 C 0.95263 0.99424 0.90731 0.0
H1204 H 0.87696 0.0209 0.91981 0.0
C1205 C 0.96588 0.00011 0.93623 0.0
C1206 C 0.94732 0.01337 0.95947 0.0
H1207 H 0.96799 0.98513 0.88981 0.0
H1208 H 0.99083 0.99437 0.9404 0.0
C1209 C 0.9148 0.01926 0.95351 0.0
C1210 C 0.80826 0.21854 0.56284 0.0
C1211 C 0.81008 0.18188 0.56164 0.0
H1212 H 0.79401 0.26441 0.5874 0.0
C1213 C 0.79915 0.16296 0.58544 0.0
H1214 H 0.81579 0.23351 0.54425 0.0
C1215 C 0.78778 0.18056 0.61078 0.0
C1216 C 0.786 0.21751 0.6124 0.0
H1217 H 0.80013 0.13455 0.58473 0.0
H1218 H 0.78132 0.16501 0.62934 0.0
C1219 C 0.79579 0.23615 0.58769 0.0
C1220 C 0.62835 0.98966 0.41834 0.0
C1221 C 0.61556 0.01058 0.39569 0.0
H1222 H 0.62246 0.96871 0.46153 0.0
C1223 C 0.58558 0.02574 0.39931 0.0
H1224 H 0.6512 0.97716 0.41602 0.0
C1225 C 0.56909 0.02083 0.42539 0.0
C1226 C 0.58198 9e-05 0.44812 0.0
H1227 H 0.57496 0.04164 0.38211 0.0
H1228 H 0.54647 0.03375 0.42799 0.0
C1229 C 0.61161 0.98423 0.44417 0.0
C1230 C 0.79949 0.74901 0.06949 0.0
C1231 C 0.76619 0.75045 0.06462 0.0
H1232 H 0.83942 0.76021 0.09997 0.0
C1233 C 0.74734 0.75954 0.08893 0.0
H1234 H 0.81465 0.74078 0.05155 0.0
C1235 C 0.7615 0.77056 0.11643 0.0
C1236 C 0.79482 0.77214 0.12052 0.0
H1237 H 0.72161 0.75967 0.08642 0.0
H1238 H 0.74624 0.77808 0.13452 0.0
C1239 C 0.81371 0.76011 0.09715 0.0
C1240 C 0.93808 -0.00344 0.71179 0.0
C1241 C 0.95265 0.98375 0.73792 0.0
H1242 H 0.93981 0.0004 0.66421 0.0
C1243 C 0.98014 0.96323 0.73563 0.0
H1244 H 0.91674 0.01219 0.71285 0.0
C1245 C 0.99346 0.95673 0.70783 0.0
C1246 C 0.97911 0.96996 0.6818 0.0
H1247 H 0.99184 0.95295 0.75541 0.0
H1248 H 0.01518 0.94174 0.7067 0.0
C1249 C 0.95105 0.98948 0.68394 0.0
C1250 C 0.76927 0.20236 0.40626 0.0
C1251 C 0.79928 0.20388 0.42145 0.0
H1252 H 0.74034 0.22043 0.36928 0.0
C1253 C 0.8216 0.22915 0.4131 0.0
H1254 H 0.75151 0.18334 0.41205 0.0
C1255 C 0.81529 0.25001 0.38868 0.0
C1256 C 0.78622 0.24691 0.37234 0.0
H1257 H 0.84487 0.23158 0.42435 0.0
H1258 H 0.83388 0.26726 0.38152 0.0
C1259 C 0.76274 0.22387 0.38197 0.0
C1260 C 0.64623 0.03621 0.21023 0.0
C1261 C 0.62711 0.05096 0.23239 0.0
H1262 H 0.6538 0.02943 0.16336 0.0
C1263 C 0.60261 0.07388 0.22416 0.0
H1264 H 0.6656 0.01887 0.21603 0.0
C1265 C 0.59589 0.07992 0.19399 0.0
C1266 C 0.61397 0.06363 0.17177 0.0
H1267 H 0.58771 0.08585 0.24087 0.0
H1268 H 0.57574 0.09606 0.18791 0.0
C1269 C 0.63983 0.04268 0.18016 0.0
C1270 C 0.75838 0.85196 0.92852 0.0
C1271 C 0.73699 0.84155 0.94978 0.0
H1272 H 0.76528 0.86245 0.88271 0.0
C1273 C 0.70452 0.83716 0.94119 0.0
H1274 H 0.78346 0.85563 0.93448 0.0
C1275 C 0.6941 0.84068 0.91137 0.0
C1276 C 0.71585 0.84951 0.88991 0.0
H1277 H 0.68743 0.82905 0.9571 0.0
H1278 H 0.66936 0.83542 0.90489 0.0
C1279 C 0.74788 0.8561 0.89893 0.0
C1280 C 0.79402 0.9128 0.07705 0.0
C1281 C 0.79909 0.87736 0.06885 0.0
H1282 H 0.81515 0.96314 0.08822 0.0
C1283 C 0.83031 0.86517 0.06684 0.0
H1284 H 0.77017 0.92288 0.07911 0.0
C1285 C 0.85602 0.88826 0.07201 0.0
C1286 C 0.85097 0.92394 0.07946 0.0
H1287 H 0.83493 0.83793 0.06088 0.0
H1288 H 0.87981 0.87836 0.06913 0.0
C1289 C 0.81973 0.93588 0.08229 0.0
C1290 C 0.39147 0.53499 0.02339 0.0
C1291 C 0.3864 0.55949 0.00105 0.0
H1292 H 0.42554 0.50434 0.04789 0.0
C1293 C 0.41269 0.57114 0.98555 0.0
H1294 H 0.37172 0.52543 0.03568 0.0
C1295 C 0.44325 0.55876 0.99216 0.0
C1296 C 0.44855 0.53464 0.01473 0.0
H1297 H 0.40969 0.58975 0.96801 0.0
H1298 H 0.46284 0.56852 0.97975 0.0
C1299 C 0.42229 0.52289 0.03034 0.0
C1300 C 0.19884 0.62479 0.79892 0.0
C1301 C 0.21849 0.60486 0.8179 0.0
H1302 H 0.19529 0.66912 0.77084 0.0
C1303 C 0.25089 0.61395 0.82159 0.0
H1304 H 0.1738 0.61826 0.79539 0.0
C1305 C 0.26338 0.64216 0.8066 0.0
C1306 C 0.24365 0.66247 0.78804 0.0
H1307 H 0.26677 0.59887 0.83566 0.0
H1308 H 0.28836 0.64879 0.8104 0.0
C1309 C 0.21118 0.65362 0.78454 0.0
C1310 C 0.16216 0.38739 0.50865 0.0
C1311 C 0.17212 0.38521 0.53879 0.0
H1312 H 0.14453 0.42026 0.4742 0.0
C1313 C 0.17304 0.4155 0.55746 0.0
H1314 H 0.16029 0.36396 0.49417 0.0
C1315 C 0.1645 0.44784 0.54619 0.0
C1316 C 0.15349 0.45024 0.51615 0.0
H1317 H 0.17966 0.41399 0.58106 0.0
H1318 H 0.16421 0.47041 0.56171 0.0
C1319 C 0.1535 0.41972 0.49724 0.0
C1320 C 0.78171 0.95509 0.78274 0.0
C1321 C 0.81515 0.95422 0.78363 0.0
H1322 H 0.73818 0.9337 0.76296 0.0
C1323 C 0.83029 0.93355 0.76177 0.0
H1324 H 0.76925 0.97162 0.79858 0.0
C1325 C 0.81246 0.91196 0.74118 0.0
C1326 C 0.77902 0.91053 0.74197 0.0
H1327 H 0.85603 0.93282 0.76137 0.0
H1328 H 0.82511 0.8943 0.72636 0.0
C1329 C 0.76387 0.93385 0.76189 0.0
C1330 C 0.68173 0.09041 0.50863 0.0
C1331 C 0.70783 0.07414 0.52283 0.0
H1332 H 0.63085 0.0946 0.50432 0.0
C1333 C 0.70195 0.05055 0.54543 0.0
H1334 H 0.68541 0.10888 0.4913 0.0
C1335 C 0.6708 0.0422 0.55272 0.0
C1336 C 0.64466 0.05777 0.53807 0.0
H1337 H 0.72144 0.03759 0.55693 0.0
H1338 H 0.66715 0.02283 0.56935 0.0
C1339 C 0.65048 0.08254 0.51637 0.0
C1340 C 0.28013 0.43074 0.82034 0.0
C1341 C 0.25599 0.44589 0.80259 0.0
H1342 H 0.31332 0.3888 0.8242 0.0
C1343 C 0.25192 0.43451 0.77224 0.0
H1344 H 0.28427 0.43904 0.84365 0.0
C1345 C 0.26923 0.40601 0.76092 0.0
C1346 C 0.29059 0.38847 0.77987 0.0
H1347 H 0.23379 0.4459 0.75782 0.0
H1348 H 0.26357 0.39562 0.73839 0.0
C1349 C 0.29704 0.40211 0.80915 0.0
C1350 C 0.30321 0.63041 0.31964 0.0
C1351 C 0.31944 0.6072 0.30052 0.0
H1352 H 0.28425 0.68178 0.32618 0.0
C1353 C 0.32468 0.61659 0.27101 0.0
H1354 H 0.29857 0.62396 0.34244 0.0
C1355 C 0.3158 0.6497 0.26156 0.0
C1356 C 0.30226 0.67377 0.28177 0.0
H1357 H 0.33689 0.59907 0.25574 0.0
H1358 H 0.32141 0.65728 0.23926 0.0
C1359 C 0.29508 0.66357 0.31045 0.0
C1360 C 0.48201 0.68351 0.60604 0.0
C1361 C 0.51326 0.69567 0.61123 0.0
H1362 H 0.4518 0.64677 0.58099 0.0
C1363 C 0.53624 0.6878 0.59004 0.0
H1364 H 0.46392 0.68968 0.62196 0.0
C1365 C 0.52955 0.66321 0.56674 0.0
C1366 C 0.49986 0.64616 0.56469 0.0
H1367 H 0.5604 0.69779 0.5934 0.0
H1368 H 0.54876 0.65454 0.55289 0.0
C1369 C 0.47524 0.6589 0.58261 0.0
C1370 C 0.64151 0.26062 0.7906 0.0
C1371 C 0.63701 0.2676 0.82139 0.0
H1372 H 0.67381 0.25916 0.7546 0.0
C1373 C 0.66338 0.27949 0.83949 0.0
H1374 H 0.62187 0.25145 0.77581 0.0
C1375 C 0.69336 0.28399 0.82716 0.0
C1376 C 0.69785 0.27672 0.79637 0.0
H1377 H 0.66094 0.28515 0.86322 0.0
H1378 H 0.71313 0.29295 0.84189 0.0
C1379 C 0.67141 0.26508 0.7783 0.0
C1380 C 0.05416 0.29898 0.1103 0.0
C1381 C 0.07636 0.29053 0.13299 0.0
H1382 H 0.04274 0.33198 0.0743 0.0
C1383 C 0.10662 0.30637 0.13442 0.0
H1384 H 0.03076 0.28671 0.10874 0.0
C1385 C 0.11363 0.33257 0.11459 0.0
C1386 C 0.09057 0.34258 0.09294 0.0
H1387 H 0.12393 0.30016 0.15194 0.0
H1388 H 0.1364 0.3461 0.11705 0.0
C1389 C 0.06124 0.32457 0.09034 0.0
C1390 C 0.95514 0.79371 0.31194 0.0
C1391 C 0.95972 0.77818 0.33992 0.0
H1392 H 0.92198 0.80754 0.27642 0.0
C1393 C 0.9328 0.76575 0.35395 0.0
H1394 H 0.97533 0.80335 0.30032 0.0
C1395 C 0.9023 0.7684 0.34036 0.0
C1396 C 0.89767 0.78313 0.31206 0.0
H1397 H 0.93527 0.75353 0.37534 0.0
H1398 H 0.8823 0.75821 0.35196 0.0
C1399 C 0.92454 0.79595 0.2981 0.0
C1400 C 0.55004 0.37134 0.9433 0.0
C1401 C 0.53206 0.34279 0.95264 0.0
H1402 H 0.56593 0.42455 0.95249 0.0
C1403 C 0.51729 0.34657 0.98039 0.0
H1404 H 0.5616 0.36964 0.92208 0.0
C1405 C 0.52001 0.37795 -0.00198 0.0
C1406 C 0.53717 0.40686 0.98829 0.0
H1407 H 0.50329 0.32524 0.9885 0.0
H1408 H 0.50806 0.37976 0.01903 0.0
C1409 C 0.55233 0.40298 0.96073 0.0
C1410 C 0.97879 0.1621 0.24289 0.0
C1411 C 0.00144 0.18919 0.24754 0.0
H1412 H 0.93004 0.14661 0.24701 0.0
C1413 C 0.99347 0.21992 0.26362 0.0
H1414 H 0.98444 0.13827 0.23027 0.0
C1415 C 0.96259 0.22507 0.27251 0.0
C1416 C 0.93889 0.19937 0.26584 0.0
H1417 H 0.01062 0.2412 0.26738 0.0
H1418 H 0.957 0.25042 0.28264 0.0
C1419 C 0.9476 0.16718 0.25202 0.0
C1420 C 0.07271 0.63813 0.42727 0.0
C1421 C 0.0613 0.66727 0.44382 0.0
H1422 H 0.08664 0.58388 0.42754 0.0
C1423 C 0.05837 0.66436 0.47486 0.0
H1424 H 0.07465 0.63925 0.40323 0.0
C1425 C 0.0661 0.63304 0.48893 0.0
C1426 C 0.07583 0.6032 0.47219 0.0
H1427 H 0.04923 0.68611 0.48817 0.0
H1428 H 0.0627 0.63162 0.51274 0.0
C1429 C 0.0794 0.60631 0.44118 0.0
C1430 C 0.65321 0.71013 0.70009 0.0
C1431 C 0.65825 0.69893 0.6704 0.0
H1432 H 0.66094 0.75018 0.73435 0.0
C1433 C 0.67462 0.72087 0.65174 0.0
H1434 H 0.6409 0.69335 0.71492 0.0
C1435 C 0.68593 0.75366 0.66273 0.0
C1436 C 0.6812 0.76487 0.69262 0.0
H1437 H 0.67848 0.71275 0.62867 0.0
H1438 H 0.69958 0.7696 0.64826 0.0
C1439 C 0.66414 0.74299 0.71097 0.0
C1440 C 0.54987 0.52595 0.68036 0.0
C1441 C 0.58322 0.5304 0.68006 0.0
H1442 H 0.50539 0.52331 0.6549 0.0
C1443 C 0.59712 0.53566 0.6526 0.0
H1444 H 0.53828 0.52194 0.70116 0.0
C1445 C 0.57822 0.53621 0.62609 0.0
C1446 C 0.54486 0.53174 0.62634 0.0
H1447 H 0.62263 0.5392 0.65151 0.0
H1448 H 0.58988 0.54031 0.60533 0.0
C1449 C 0.53091 0.52673 0.65385 0.0
C1450 C 0.80873 0.37396 0.96742 0.0
C1451 C 0.82213 0.35087 0.9881 0.0
H1452 H 0.79825 0.3839 0.92113 0.0
C1453 C 0.83438 0.31877 0.97738 0.0
H1454 H 0.79949 0.3991 0.97494 0.0
C1455 C 0.83348 0.31007 0.94666 0.0
C1456 C 0.82095 0.3336 0.92598 0.0
H1457 H 0.84501 0.30054 0.99273 0.0
H1458 H 0.84315 0.2852 0.93899 0.0
C1459 C 0.80844 0.36555 0.93662 0.0
C1460 C 0.97901 0.50235 0.15332 0.0
C1461 C 0.97047 0.53575 0.16466 0.0
H1462 H 0.0067 0.47297 0.12203 0.0
C1463 C 0.98479 0.56554 0.15336 0.0
H1464 H 0.96886 0.47882 0.16201 0.0
C1465 C 0.00642 0.56225 0.13044 0.0
C1466 C 0.01489 0.52895 0.11892 0.0
H1467 H 0.979 0.59153 0.16212 0.0
H1468 H 0.01626 0.5858 0.12149 0.0
C1469 C 0.00118 0.49901 0.13084 0.0
C1470 C 0.81497 0.69835 0.46377 0.0
C1471 C 0.81209 0.66246 0.45622 0.0
H1472 H 0.8031 0.75032 0.4518 0.0
C1473 C 0.7927 0.65091 0.4316 0.0
H1474 H 0.82913 0.70752 0.48339 0.0
C1475 C 0.77881 0.67517 0.41286 0.0
C1476 C 0.78334 0.71151 0.41896 0.0
H1477 H 0.78997 0.62315 0.42577 0.0
H1478 H 0.76661 0.66503 0.39251 0.0
C1479 C 0.80006 0.72272 0.44565 0.0
C1480 C 0.5926 0.57576 0.84225 0.0
C1481 C 0.62379 0.56411 0.83815 0.0
H1482 H 0.55605 0.58545 0.87353 0.0
C1483 C 0.64372 0.55845 0.86343 0.0
H1484 H 0.5767 0.58053 0.82319 0.0
C1485 C 0.63205 0.56154 0.89208 0.0
C1486 C 0.60008 0.57005 0.89604 0.0
H1487 H 0.66786 0.54971 0.86123 0.0
H1488 H 0.64745 0.55458 0.9109 0.0
C1489 C 0.58075 0.57851 0.871 0.0
C1490 C 0.80717 0.29492 0.14458 0.0
C1491 C 0.79214 0.32621 0.13646 0.0
H1492 H 0.81197 0.25468 0.17639 0.0
C1493 C 0.7663 0.33789 0.15318 0.0
H1494 H 0.8269 0.28477 0.13213 0.0
C1495 C 0.75759 0.32036 0.17879 0.0
C1496 C 0.77449 0.29073 0.18824 0.0
H1497 H 0.75411 0.36183 0.14765 0.0
H1498 H 0.73906 0.33146 0.19228 0.0
C1499 C 0.79849 0.27748 0.17002 0.0
C1500 C 0.95653 0.48196 0.34681 0.0
C1501 C 0.97045 0.47974 0.31886 0.0
H1502 H 0.96221 0.4743 0.39365 0.0
C1503 C -8e-05 0.463 0.31623 0.0
H1504 H 0.93363 0.49395 0.3495 0.0
C1505 C 0.01638 0.45138 0.34166 0.0
C1506 C 0.00335 0.45593 0.36996 0.0
H1507 H 0.01107 0.46062 0.29482 0.0
H1508 H 0.0399 0.44045 0.33943 0.0
C1509 C 0.97275 0.47006 0.3721 0.0
C1510 C 0.87079 0.68025 0.59894 0.0
C1511 C 0.8468 0.66032 0.58315 0.0
H1512 H 0.88162 0.72222 0.63129 0.0
C1513 C 0.81474 0.66777 0.58813 0.0
H1514 H 0.89569 0.67512 0.59544 0.0
C1515 C 0.80681 0.69518 0.60794 0.0
C1516 C 0.83077 0.71523 0.62349 0.0
H1517 H 0.79574 0.65314 0.57604 0.0
H1518 H 0.78192 0.70047 0.61139 0.0
C1519 C 0.86282 0.70726 0.61922 0.0
C1520 C 0.70959 0.5153 0.48441 0.0
C1521 C 0.72664 0.54206 0.50072 0.0
H1522 H 0.66354 0.49366 0.47157 0.0
C1523 C 0.71005 0.56919 0.51524 0.0
H1524 H 0.7219 0.4942 0.47292 0.0
C1525 C 0.67691 0.56935 0.51374 0.0
C1526 C 0.65991 0.54209 0.49816 0.0
H1527 H 0.72266 0.59037 0.52766 0.0
H1528 H 0.66453 0.5901 0.52562 0.0
C1529 C 0.67638 0.51507 0.48345 0.0
C1530 C 0.17843 0.95032 0.59497 0.0
C1531 C 0.20249 0.95206 0.57404 0.0
H1532 H 0.12996 0.96087 0.60514 0.0
C1533 C 0.19506 0.96734 0.54649 0.0
H1534 H 0.18314 0.9388 0.61644 0.0
C1535 C 0.16444 0.9805 0.54013 0.0
C1536 C 0.14032 0.97837 0.561 0.0
H1537 H 0.21295 0.96932 0.52987 0.0
H1538 H 0.15955 0.9919 0.51864 0.0
C1539 C 0.14782 0.96308 0.5885 0.0
C1540 C 0.36572 0.90128 0.75585 0.0
C1541 C 0.35146 0.93098 0.7689 0.0
H1542 H 0.36412 0.84536 0.74886 0.0
C1543 C 0.32243 0.92694 0.78304 0.0
H1544 H 0.38833 0.90354 0.74526 0.0
C1545 C 0.30856 0.89374 0.78516 0.0
C1546 C 0.32376 0.86377 0.77369 0.0
H1547 H 0.31102 0.9494 0.79346 0.0
H1548 H 0.28651 0.89145 0.79668 0.0
C1549 C 0.35212 0.86794 0.75843 0.0
C1550 C 0.4155 0.0164 0.02014 0.0
C1551 C 0.40657 0.05084 0.02748 0.0
H1552 H 0.45435 0.98145 0.0134 0.0
C1553 C 0.42962 0.07589 0.03747 0.0
H1554 H 0.3979 -0.00304 0.01204 0.0
C1555 C 0.46167 0.06693 0.03887 0.0
C1556 C 0.47082 0.03321 0.02927 0.0
H1557 H 0.42292 0.10266 0.04308 0.0
H1558 H 0.47934 0.08685 0.04567 0.0
C1559 C 0.4476 0.00773 0.02061 0.0
C1560 C 0.72681 0.65703 0.79469 0.0
C1561 C 0.71763 0.63463 0.76992 0.0
H1562 H 0.74319 0.70823 0.81023 0.0
C1563 C 0.71969 0.64714 0.74094 0.0
H1564 H 0.7252 0.64834 0.81737 0.0
C1565 C 0.73092 0.6813 0.73692 0.0
C1566 C 0.7394 0.70378 0.76182 0.0
H1567 H 0.7127 0.63058 0.72147 0.0
H1568 H 0.73187 0.69055 0.71437 0.0
C1569 C 0.73713 0.69134 0.7907 0.0
C1570 C 0.92339 0.42716 0.05843 0.0
C1571 C 0.89705 0.44778 0.05024 0.0
H1572 H 0.97395 0.42 0.05712 0.0
C1573 C 0.90208 0.47632 0.03196 0.0
H1574 H 0.92056 0.40506 0.07252 0.0
C1575 C 0.93271 0.48496 0.02323 0.0
C1576 C 0.95921 0.46508 0.03222 0.0
H1577 H 0.88243 0.49274 0.02506 0.0
H1578 H 0.93577 0.50799 0.01018 0.0
C1579 C 0.95406 0.43557 0.04937 0.0
C1580 C 0.35729 0.12615 0.7365 0.0
C1581 C 0.34978 0.10512 0.76039 0.0
H1582 H 0.35096 0.17564 0.71614 0.0
C1583 C 0.32584 0.11621 0.77959 0.0
H1584 H 0.37551 0.11828 0.72123 0.0
C1585 C 0.31172 0.14891 0.77664 0.0
C1586 C 0.32131 0.17136 0.75448 0.0
H1587 H 0.31911 0.10039 0.79795 0.0
H1588 H 0.29466 0.15739 0.79288 0.0
C1589 C 0.34321 0.15904 0.7336 0.0
C1590 C 0.27205 0.94507 0.27194 0.0
C1591 C 0.24434 0.95096 0.25416 0.0
H1592 H 0.30735 0.90821 0.28531 0.0
C1593 C 0.23537 0.92632 0.2311 0.0
H1594 H 0.28006 0.96393 0.28949 0.0
C1595 C 0.25134 0.89438 0.22853 0.0
C1596 C 0.27631 0.88669 0.24911 0.0
H1597 H 0.21433 0.93022 0.21686 0.0
H1598 H 0.2422 0.87459 0.21225 0.0
C1599 C 0.28777 0.91313 0.26957 0.0
C1600 C 0.43966 0.3969 0.49073 0.0
C1601 C 0.45897 0.38733 0.4668 0.0
H1602 H 0.43466 0.42904 0.53052 0.0
C1603 C 0.49042 0.40013 0.46721 0.0
H1604 H 0.41551 0.38694 0.49149 0.0
C1605 C 0.50162 0.42373 0.48997 0.0
C1606 C 0.48151 0.43532 0.51267 0.0
H1607 H 0.50621 0.39266 0.44954 0.0
H1608 H 0.52541 0.43454 0.48867 0.0
C1609 C 0.45083 0.4206 0.51345 0.0
C1610 C 0.42393 0.7712 0.19201 0.0
C1611 C 0.45099 0.76627 0.21088 0.0
H1612 H 0.37359 0.77931 0.18836 0.0
C1613 C 0.44685 0.76588 0.24202 0.0
H1614 H 0.42605 0.77193 0.168 0.0
C1615 C 0.41659 0.77098 0.25391 0.0
C1616 C 0.38959 0.77608 0.23493 0.0
H1617 H 0.46716 0.76262 0.25732 0.0
H1618 H 0.41432 0.7707 0.27795 0.0
C1619 C 0.39374 0.7757 0.20379 0.0
C1620 C -0.0045 0.72039 0.94712 0.0
C1621 C 0.96277 0.72429 0.94067 0.0
H1622 H 0.03156 0.69064 0.96937 0.0
C1623 C 0.94083 0.70213 0.95362 0.0
H1624 H 0.01289 0.73752 0.9378 0.0
C1625 C 0.95157 0.67543 0.97165 0.0
C1626 C 0.9843 0.67099 0.97731 0.0
H1627 H 0.91547 0.70479 0.94915 0.0
H1628 H 0.93442 0.6577 0.9806 0.0
C1629 C 0.00618 0.69402 0.9655 0.0
C1630 C 0.15327 0.27106 0.72429 0.0
C1631 C 0.14914 0.27479 0.69317 0.0
H1632 H 0.186 0.26869 0.76226 0.0
C1633 C 0.17655 0.27852 0.6764 0.0
H1634 H 0.13283 0.26815 0.738 0.0
C1635 C 0.20711 0.27885 0.69033 0.0
C1636 C 0.21124 0.27548 0.72148 0.0
H1637 H 0.17444 0.2815 0.6524 0.0
H1638 H 0.22753 0.28204 0.67664 0.0
C1639 C 0.18386 0.27141 0.73823 0.0
C1640 C 0.54274 0.64586 0.12882 0.0
C1641 C 0.53302 0.67449 0.11187 0.0
H1642 H 0.5548 0.59103 0.12839 0.0
C1643 C 0.53067 0.66978 0.08047 0.0
H1644 H 0.54455 0.64854 0.15305 0.0
C1645 C 0.53749 0.63733 0.06634 0.0
C1646 C 0.54587 0.60819 0.08322 0.0
H1647 H 0.52326 0.69127 0.06676 0.0
H1648 H 0.53487 0.63468 0.04214 0.0
C1649 C 0.54855 0.61291 0.11468 0.0
C1650 C 0.08415 0.8579 0.83473 0.0
C1651 C 0.06584 0.82833 0.84112 0.0
H1652 H 0.12751 0.87678 0.817 0.0
C1653 C 0.07744 0.79465 0.83423 0.0
H1654 H 0.07574 0.88416 0.83978 0.0
C1655 C 0.10649 0.79055 0.82081 0.0
C1656 C 0.12475 0.81999 0.81432 0.0
H1657 H 0.06387 0.77132 0.83876 0.0
H1658 H 0.11493 0.76424 0.81592 0.0
C1659 C 0.11361 0.85373 0.82165 0.0
C1660 C 0.06887 0.37331 0.60378 0.0
C1661 C 0.04713 0.34745 0.59219 0.0
H1662 H 0.0914 0.42307 0.59738 0.0
C1663 C 0.03375 0.35095 0.56307 0.0
H1664 H 0.07942 0.37161 0.62618 0.0
C1665 C 0.04091 0.38019 0.54644 0.0
C1666 C 0.06106 0.40711 0.55875 0.0
H1667 H 0.01693 0.33154 0.55344 0.0
H1668 H 0.02947 0.38245 0.52444 0.0
C1669 C 0.07549 0.40297 0.58737 0.0
C1670 C 0.35564 0.33395 0.35388 0.0
C1671 C 0.38474 0.33817 0.34008 0.0
H1672 H 0.3061 0.32114 0.34791 0.0
C1673 C 0.3854 0.33676 0.30872 0.0
H1674 H 0.35451 0.33528 0.37804 0.0
C1675 C 0.35792 0.32782 0.29151 0.0
C1676 C 0.32934 0.32077 0.30546 0.0
H1677 H 0.4076 0.33972 0.29755 0.0
H1678 H 0.35929 0.32545 0.26736 0.0
C1679 C 0.32805 0.3255 0.33667 0.0
C1680 C 0.40423 0.52476 0.42303 0.0
C1681 C 0.42269 0.51127 0.39974 0.0
H1682 H 0.40376 0.54526 0.46845 0.0
C1683 C 0.45558 0.50744 0.4051 0.0
H1684 H 0.37884 0.52826 0.41949 0.0
C1685 C 0.46993 0.51833 0.43267 0.0
C1686 C 0.45164 0.53268 0.45571 0.0
H1687 H 0.47053 0.49756 0.38754 0.0
H1688 H 0.49541 0.51525 0.43599 0.0
C1689 C 0.41853 0.535 0.45088 0.0
C1690 C 0.29789 0.65943 0.08282 0.0
C1691 C 0.31002 0.67839 0.05957 0.0
H1692 H 0.27921 0.66129 0.12638 0.0
C1693 C 0.30941 0.71511 0.06135 0.0
H1694 H 0.29794 0.63099 0.08168 0.0
C1695 C 0.29702 0.73271 0.08623 0.0
C1696 C 0.28611 0.71395 0.11045 0.0
H1697 H 0.31789 0.73018 0.04319 0.0
H1698 H 0.29626 0.76106 0.08642 0.0
C1699 C 0.28659 0.67696 0.10822 0.0
C1700 C 0.08999 0.52337 0.89795 0.0
C1701 C 0.11951 0.50706 0.89431 0.0
H1702 H 0.05065 0.53235 0.92608 0.0
C1703 C 0.13138 0.48551 0.91692 0.0
H1704 H 0.07999 0.53986 0.88086 0.0
C1705 C 0.11412 0.48051 0.94263 0.0
C1706 C 0.0848 0.49726 0.94641 0.0
H1707 H 0.15384 0.47216 0.91462 0.0
H1708 H 0.12423 0.4644 0.95995 0.0
C1709 C 0.07296 0.5187 0.92373 0.0
C1710 C 0.36119 0.31999 0.56651 0.0
C1711 C 0.33148 0.31009 0.55284 0.0
H1712 H 0.38994 0.31977 0.60721 0.0
C1713 C 0.31565 0.28063 0.56326 0.0
H1714 H 0.3746 0.3419 0.55858 0.0
C1715 C 0.32484 0.26765 0.59102 0.0
C1716 C 0.3501 0.28374 0.60805 0.0
H1717 H 0.2932 0.27167 0.55272 0.0
H1718 H 0.30923 0.24913 0.6011 0.0
C1719 C 0.37017 0.30728 0.59446 0.0
C1720 C 0.44247 0.47871 0.21945 0.0
C1721 C 0.45511 0.50731 0.23705 0.0
H1722 H 0.44676 0.44526 0.18021 0.0
C1723 C 0.48236 0.52458 0.22786 0.0
H1724 H 0.42162 0.46465 0.2262 0.0
C1725 C 0.4964 0.51394 0.20133 0.0
C1726 C 0.48396 0.48524 0.18357 0.0
H1727 H 0.49251 0.54684 0.24088 0.0
H1728 H 0.51657 0.52899 0.19442 0.0
C1729 C 0.45687 0.46762 0.19308 0.0
C1730 C 0.27266 0.6982 0.90253 0.0
C1731 C 0.30247 0.6991 0.91805 0.0
H1732 H 0.24483 0.71605 0.86478 0.0
C1733 C 0.32582 0.72293 0.90917 0.0
H1734 H 0.25414 0.68028 0.9087 0.0
C1735 C 0.32062 0.74292 0.88402 0.0
C1736 C 0.29166 0.74044 0.86749 0.0
H1737 H 0.34901 0.72485 0.92062 0.0
H1738 H 0.33988 0.75909 0.87663 0.0
C1739 C 0.26723 0.71892 0.87755 0.0
C1740 C 0.12473 0.55141 0.71776 0.0
C1741 C 0.15574 0.53867 0.72161 0.0
H1742 H 0.08865 0.56878 0.68698 0.0
C1743 C 0.17563 0.53685 0.6972 0.0
H1744 H 0.10926 0.55394 0.73652 0.0
C1745 C 0.16367 0.5447 0.66869 0.0
C1746 C 0.13183 0.55508 0.66441 0.0
H1747 H 0.19978 0.5274 0.6998 0.0
H1748 H 0.17873 0.54033 0.64984 0.0
C1749 C 0.11301 0.56 0.68947 0.0
C1750 C 0.21053 0.35558 0.45099 0.0
C1751 C 0.23151 0.38454 0.45327 0.0
H1752 H 0.18313 0.31995 0.42174 0.0
C1753 C 0.23783 0.40267 0.42744 0.0
H1754 H 0.20581 0.34064 0.47044 0.0
C1755 C 0.22468 0.39089 0.39955 0.0
C1756 C 0.20542 0.36049 0.39706 0.0
H1757 H 0.25392 0.42508 0.42863 0.0
H1758 H 0.23152 0.404 0.3797 0.0
C1759 C 0.19762 0.34364 0.42314 0.0
C1760 C 0.28935 0.49989 0.54202 0.0
C1761 C 0.27602 0.48339 0.56597 0.0
H1762 H 0.32782 0.53102 0.52797 0.0
C1763 C 0.28611 0.49319 0.59546 0.0
H1764 H 0.28209 0.49218 0.51912 0.0
C1765 C 0.31299 0.51469 0.60066 0.0
C1766 C 0.32932 0.527 0.57635 0.0
H1767 H 0.27626 0.48026 0.6142 0.0
H1768 H 0.32293 0.51848 0.62332 0.0
C1769 C 0.31571 0.52196 0.54719 0.0
C1770 C 0.91254 0.07464 0.48753 0.0
C1771 C 0.88605 0.06282 0.50266 0.0
H1772 H 0.96272 0.07163 0.48186 0.0
C1773 C 0.89086 0.03766 0.52453 0.0
H1774 H 0.90976 0.09376 0.47037 0.0
C1775 C 0.92154 0.02503 0.53133 0.0
C1776 C 0.94799 0.03688 0.51606 0.0
H1777 H 0.87097 0.02792 0.53654 0.0
H1778 H 0.92453 0.00595 0.5485 0.0
C1779 C 0.94298 0.06173 0.494 0.0
C1780 C 0.74495 0.12209 0.32636 0.0
C1781 C 0.71293 0.11185 0.32184 0.0
H1782 H 0.78174 0.15813 0.31604 0.0
C1783 C 0.69311 0.13115 0.30252 0.0
H1784 H 0.76092 0.10753 0.34077 0.0
C1785 C 0.70497 0.16052 0.2885 0.0
C1786 C 0.73715 0.17034 0.29269 0.0
H1787 H 0.66834 0.12372 0.29844 0.0
H1788 H 0.68902 0.17554 0.27445 0.0
C1789 C 0.75699 0.1507 0.31169 0.0
C1790 C 0.66204 0.91473 0.06714 0.0
C1791 C 0.65975 0.88393 0.04875 0.0
H1792 H 0.65534 0.97011 0.0709 0.0
C1793 C 0.65193 0.88683 0.01806 0.0
H1794 H 0.66871 0.91367 0.09075 0.0
C1795 C 0.64468 0.91949 0.00647 0.0
C1796 C 0.64489 0.95002 0.02534 0.0
H1797 H 0.65074 0.86378 0.00305 0.0
H1798 H 0.63689 0.9204 0.98311 0.0
C1799 C 0.65501 0.94735 0.05556 0.0
C1800 C 0.27643 0.44391 0.3003 0.0
C1801 C 0.30896 0.44769 0.29498 0.0
H1802 H 0.23252 0.41771 0.28765 0.0
C1803 C 0.32108 0.43046 0.26949 0.0
H1804 H 0.26605 0.45751 0.31922 0.0
C1805 C 0.30168 0.40808 0.25099 0.0
C1806 C 0.26971 0.40222 0.25765 0.0
H1807 H 0.34588 0.43337 0.26428 0.0
H1808 H 0.31244 0.39339 0.23285 0.0
C1809 C 0.257 0.42163 0.28176 0.0
C1810 C 0.20218 0.54639 0.04283 0.0
C1811 C 0.20823 0.57021 0.02042 0.0
H1812 H 0.16719 0.51893 0.06677 0.0
C1813 C 0.18225 0.58698 0.00652 0.0
H1814 H 0.22158 0.53303 0.0541 0.0
C1815 C 0.15099 0.57947 0.01437 0.0
C1816 C 0.14495 0.55456 0.03593 0.0
H1817 H 0.18605 0.60564 0.98936 0.0
H1818 H 0.13149 0.59205 0.00256 0.0
C1819 C 0.17097 0.53841 0.05026 0.0
C1820 C 0.77491 0.93301 0.33497 0.0
C1821 C 0.75552 0.95093 0.31439 0.0
H1822 H 0.80287 0.88744 0.34275 0.0
C1823 C 0.7551 0.93998 0.2839 0.0
H1824 H 0.77609 0.94085 0.35856 0.0
C1825 C 0.77105 0.90957 0.27478 0.0
C1826 C 0.78717 0.88953 0.29612 0.0
H1827 H 0.74068 0.95346 0.26743 0.0
H1828 H 0.76832 0.90012 0.25162 0.0
C1829 C 0.79029 0.90237 0.32596 0.0
C1830 C 0.81192 0.13739 0.82155 0.0
C1831 C 0.82754 0.11429 0.80188 0.0
H1832 H 0.79191 0.1882 0.82853 0.0
C1833 C 0.83195 0.12399 0.77229 0.0
H1834 H 0.80814 0.13077 0.84449 0.0
C1835 C 0.82193 0.15686 0.76299 0.0
C1836 C 0.80817 0.18055 0.78341 0.0
H1837 H 0.84376 0.10657 0.75664 0.0
H1838 H 0.82644 0.16443 0.74043 0.0
C1839 C 0.80268 0.17032 0.8125 0.0
loop_
_geom_bond_atom_site_label_1
_geom_bond_atom_site_label_2
_geom_bond_distance
_geom_bond_site_symmetry_2
_ccdc_geom_bond_type
Mg0 O1 2.028 . S
Mg0 O7 1.986 . S
Mg0 O9 2.114 . S
Mg0 O10 2.251 . S
Mg0 O13 2.010 . S
O1 Mg0 2.028 . S
O1 C4 1.250 . S
O2 Mg3 2.028 . S
O2 C4 1.248 . S
Mg3 O2 2.028 . S
Mg3 O8 2.032 . S
Mg3 O10 2.079 . S
C4 O1 1.250 . S
C4 O2 1.248 . S
C5 O6 1.264 . S
C5 O13 1.249 . S
O6 C5 1.264 . S
O7 Mg0 1.986 . S
O7 C11 1.246 . S
O8 Mg3 2.032 . S
O8 C11 1.259 . S
O9 Mg0 2.114 . S
O9 C12 1.252 . S
O10 Mg0 2.251 . S
O10 Mg3 2.079 . S
O10 C12 1.273 . S
C11 O7 1.246 . S
C11 O8 1.259 . S
C12 O9 1.252 . S
C12 O10 1.273 . S
O13 Mg0 2.010 . S
O13 C5 1.249 . S
Mg14 O15 2.028 . S
Mg14 O21 1.986 . S
Mg14 O23 2.114 . S
Mg14 O24 2.251 1_455 S
Mg14 O27 2.010 . S
O15 Mg14 2.028 . S
O15 C18 1.250 . S
O16 Mg17 2.028 1_455 S
O16 C18 1.248 . S
Mg17 O16 2.028 1_655 S
Mg17 O22 2.032 1_655 S
Mg17 O24 2.079 . S
C18 O15 1.250 . S
C18 O16 1.248 . S
C19 O20 1.264 . S
C19 O27 1.249 . S
O20 C19 1.264 . S
O21 Mg14 1.986 . S
O21 C25 1.246 . S
O22 Mg17 2.032 1_455 S
O22 C25 1.259 . S
O23 Mg14 2.114 . S
O23 C26 1.252 1_455 S
O24 Mg14 2.251 1_655 S
O24 Mg17 2.079 . S
O24 C26 1.273 . S
C25 O21 1.246 . S
C25 O22 1.259 . S
C26 O23 1.252 1_655 S
C26 O24 1.273 . S
O27 Mg14 2.010 . S
O27 C19 1.249 . S
Mg28 O29 2.028 . S
Mg28 O35 1.986 . S
Mg28 O37 2.114 . S
Mg28 O38 2.251 . S
Mg28 O41 2.010 . S
O29 Mg28 2.028 . S
O29 C32 1.250 . S
O30 Mg31 2.028 . S
O30 C32 1.248 . S
Mg31 O30 2.028 . S
Mg31 O36 2.032 . S
Mg31 O38 2.079 . S
C32 O29 1.250 . S
C32 O30 1.248 . S
C33 O34 1.264 . S
C33 O41 1.249 . S
O34 C33 1.264 . S
O35 Mg28 1.986 . S
O35 C39 1.246 . S
O36 Mg31 2.032 . S
O36 C39 1.259 . S
O37 Mg28 2.114 . S
O37 C40 1.252 . S
O38 Mg28 2.251 . S
O38 Mg31 2.079 . S
O38 C40 1.273 . S
C39 O35 1.246 . S
C39 O36 1.259 . S
C40 O37 1.252 . S
C40 O38 1.273 . S
O41 Mg28 2.010 . S
O41 C33 1.249 . S
Mg42 O43 2.028 . S
Mg42 O49 1.986 . S
Mg42 O51 2.114 . S
Mg42 O52 2.251 . S
Mg42 O55 2.010 . S
O43 Mg42 2.028 . S
O43 C46 1.250 . S
O44 Mg45 2.028 . S
O44 C46 1.248 . S
Mg45 O44 2.028 . S
Mg45 O50 2.032 . S
Mg45 O52 2.079 . S
C46 O43 1.250 . S
C46 O44 1.248 . S
C47 O48 1.264 . S
C47 O55 1.249 . S
O48 C47 1.264 . S
O49 Mg42 1.986 . S
O49 C53 1.246 . S
O50 Mg45 2.032 . S
O50 C53 1.259 . S
O51 Mg42 2.114 . S
O51 C54 1.252 . S
O52 Mg42 2.251 . S
O52 Mg45 2.079 . S
O52 C54 1.273 . S
C53 O49 1.246 . S
C53 O50 1.259 . S
C54 O51 1.252 . S
C54 O52 1.273 . S
O55 Mg42 2.010 . S
O55 C47 1.249 . S
Mg56 O57 2.028 . S
Mg56 O63 1.986 1_545 S
Mg56 O65 2.114 . S
Mg56 O66 2.251 . S
Mg56 O69 2.010 . S
O57 Mg56 2.028 . S
O57 C60 1.250 . S
O58 Mg59 2.028 . S
O58 C60 1.248 . S
Mg59 O58 2.028 . S
Mg59 O64 2.032 1_545 S
Mg59 O66 2.079 . S
C60 O57 1.250 . S
C60 O58 1.248 . S
C61 O62 1.267 . S
C61 O69 1.249 . S
O62 C61 1.267 . S
O63 Mg56 1.986 1_565 S
O63 C67 1.246 . S
O64 Mg59 2.032 1_565 S
O64 C67 1.259 . S
O65 Mg56 2.114 . S
O65 C68 1.252 . S
O66 Mg56 2.251 . S
O66 Mg59 2.079 . S
O66 C68 1.273 . S
C67 O63 1.246 . S
C67 O64 1.259 . S
C68 O65 1.252 . S
C68 O66 1.273 . S
O69 Mg56 2.010 . S
O69 C61 1.249 . S
Mg70 O71 2.028 . S
Mg70 O77 1.986 . S
Mg70 O79 2.114 . S
Mg70 O80 2.251 . S
Mg70 O83 2.010 . S
O71 Mg70 2.028 . S
O71 C74 1.250 . S
O72 Mg73 2.028 . S
O72 C74 1.248 . S
Mg73 O72 2.028 . S
Mg73 O78 2.032 . S
Mg73 O80 2.079 . S
C74 O71 1.250 . S
C74 O72 1.248 . S
C75 O76 1.264 1_565 S
C75 O83 1.249 . S
O76 C75 1.264 1_545 S
O77 Mg70 1.986 . S
O77 C81 1.246 . S
O78 Mg73 2.032 . S
O78 C81 1.259 . S
O79 Mg70 2.114 . S
O79 C82 1.252 . S
O80 Mg70 2.251 . S
O80 Mg73 2.079 . S
O80 C82 1.273 . S
C81 O77 1.246 . S
C81 O78 1.259 . S
C82 O79 1.252 . S
C82 O80 1.273 . S
O83 Mg70 2.010 . S
O83 C75 1.249 . S
Mg84 O85 2.028 1_545 S
Mg84 O91 1.986 . S
Mg84 O93 2.114 . S
Mg84 O94 2.251 . S
Mg84 O97 2.010 . S
O85 Mg84 2.028 1_565 S
O85 C88 1.250 . S
O86 Mg87 2.028 1_565 S
O86 C88 1.248 . S
Mg87 O86 2.028 1_545 S
Mg87 O92 2.032 . S
Mg87 O94 2.079 . S
C88 O85 1.250 . S
C88 O86 1.248 . S
C89 O90 1.264 . S
C89 O97 1.249 . S
O90 C89 1.264 . S
O91 Mg84 1.986 . S
O91 C95 1.246 . S
O92 Mg87 2.032 . S
O92 C95 1.259 . S
O93 Mg84 2.114 . S
O93 C96 1.252 . S
O94 Mg84 2.251 . S
O94 Mg87 2.079 . S
O94 C96 1.273 . S
C95 O91 1.246 . S
C95 O92 1.259 . S
C96 O93 1.252 . S
C96 O94 1.273 . S
O97 Mg84 2.010 . S
O97 C89 1.249 . S
Mg98 O99 2.028 . S
Mg98 O105 1.986 1_554 S
Mg98 O107 2.114 . S
Mg98 O108 2.251 . S
Mg98 O111 2.010 . S
O99 Mg98 2.028 . S
O99 C102 1.250 . S
O100 Mg101 2.028 . S
O100 C102 1.248 . S
Mg101 O100 2.028 . S
Mg101 O106 2.032 . S
Mg101 O108 2.079 . S
C102 O99 1.250 . S
C102 O100 1.248 . S
C103 O104 1.264 . S
C103 O111 1.249 . S
O104 C103 1.264 . S
O105 Mg98 1.986 1_556 S
O105 C109 1.246 . S
O106 Mg101 2.032 . S
O106 C109 1.259 1_554 S
O107 Mg98 2.114 . S
O107 C110 1.252 . S
O108 Mg98 2.251 . S
O108 Mg101 2.079 . S
O108 C110 1.273 . S
C109 O105 1.246 . S
C109 O106 1.259 1_556 S
C110 O107 1.252 . S
C110 O108 1.273 . S
O111 Mg98 2.010 . S
O111 C103 1.249 . S
Mg112 O113 2.028 . S
Mg112 O119 1.986 . S
Mg112 O121 2.114 . S
Mg112 O122 2.251 . S
Mg112 O125 2.010 . S
O113 Mg112 2.028 . S
O113 C116 1.250 . S
O114 Mg115 2.028 . S
O114 C116 1.248 . S
Mg115 O114 2.028 . S
Mg115 O120 2.032 . S
Mg115 O122 2.079 . S
C116 O113 1.250 . S
C116 O114 1.248 . S
C117 O118 1.264 . S
C117 O125 1.249 . S
O118 C117 1.264 . S
O119 Mg112 1.986 . S
O119 C123 1.246 . S
O120 Mg115 2.032 . S
O120 C123 1.259 . S
O121 Mg112 2.114 . S
O121 C124 1.252 . S
O122 Mg112 2.251 . S
O122 Mg115 2.079 . S
O122 C124 1.273 . S
C123 O119 1.246 . S
C123 O120 1.259 . S
C124 O121 1.252 . S
C124 O122 1.273 . S
O125 Mg112 2.010 . S
O125 C117 1.249 . S
Mg126 O127 2.028 . S
Mg126 O133 1.986 . S
Mg126 O135 2.114 . S
Mg126 O136 2.251 . S
Mg126 O139 2.010 . S
O127 Mg126 2.028 . S
O127 C130 1.250 . S
O128 Mg129 2.028 . S
O128 C130 1.248 . S
Mg129 O128 2.028 . S
Mg129 O134 2.032 . S
Mg129 O136 2.079 . S
C130 O127 1.250 . S
C130 O128 1.248 . S
C131 O132 1.264 . S
C131 O139 1.249 . S
O132 C131 1.264 . S
O133 Mg126 1.986 . S
O133 C137 1.246 . S
O134 Mg129 2.032 . S
O134 C137 1.259 . S
O135 Mg126 2.114 . S
O135 C138 1.252 . S
O136 Mg126 2.251 . S
O136 Mg129 2.079 . S
O136 C138 1.273 . S
C137 O133 1.246 . S
C137 O134 1.259 . S
C138 O135 1.252 . S
C138 O136 1.273 . S
O139 Mg126 2.010 . S
O139 C131 1.249 . S
Mg140 O141 2.028 . S
Mg140 O147 1.986 . S
Mg140 O149 2.114 . S
Mg140 O150 2.251 . S
Mg140 O153 2.010 . S
O141 Mg140 2.028 . S
O141 C144 1.250 . S
O142 Mg143 2.028 . S
O142 C144 1.248 . S
Mg143 O142 2.028 . S
Mg143 O148 2.032 . S
Mg143 O150 2.079 . S
C144 O141 1.250 . S
C144 O142 1.248 . S
C145 O146 1.264 . S
C145 O153 1.249 . S
O146 C145 1.264 . S
O147 Mg140 1.986 . S
O147 C151 1.246 . S
O148 Mg143 2.032 . S
O148 C151 1.259 . S
O149 Mg140 2.114 . S
O149 C152 1.252 . S
O150 Mg140 2.251 . S
O150 Mg143 2.079 . S
O150 C152 1.273 . S
C151 O147 1.246 . S
C151 O148 1.259 . S
C152 O149 1.252 . S
C152 O150 1.273 . S
O153 Mg140 2.010 . S
O153 C145 1.249 . S
Mg154 O155 2.028 . S
Mg154 O161 1.986 . S
Mg154 O163 2.114 . S
Mg154 O164 2.251 . S
Mg154 O167 2.010 . S
O155 Mg154 2.028 . S
O155 C158 1.250 . S
O156 Mg157 2.028 . S
O156 C158 1.248 . S
Mg157 O156 2.028 . S
Mg157 O162 2.032 . S
Mg157 O164 2.079 . S
C158 O155 1.250 . S
C158 O156 1.248 . S
C159 O160 1.264 . S
C159 O167 1.249 . S
O160 C159 1.264 . S
O161 Mg154 1.986 . S
O161 C165 1.246 . S
O162 Mg157 2.032 . S
O162 C165 1.259 . S
O163 Mg154 2.114 . S
O163 C166 1.252 . S
O164 Mg154 2.251 . S
O164 Mg157 2.079 . S
O164 C166 1.273 . S
C165 O161 1.246 . S
C165 O162 1.259 . S
C166 O163 1.252 . S
C166 O164 1.273 . S
O167 Mg154 2.010 . S
O167 C159 1.249 . S
Mg168 O169 2.028 1_655 S
Mg168 O175 1.986 1_655 S
Mg168 O177 2.114 . S
Mg168 O178 2.251 . S
Mg168 O181 2.010 1_655 S
O169 Mg168 2.028 1_455 S
O169 C172 1.250 1_455 S
O170 Mg171 2.028 . S
O170 C172 1.248 . S
Mg171 O170 2.028 . S
Mg171 O176 2.032 . S
Mg171 O178 2.079 . S
C172 O169 1.250 1_655 S
C172 O170 1.248 . S
C173 O174 1.264 . S
C173 O181 1.249 . S
O174 C173 1.264 . S
O175 Mg168 1.986 1_455 S
O175 C179 1.246 1_455 S
O176 Mg171 2.032 . S
O176 C179 1.259 . S
O177 Mg168 2.114 . S
O177 C180 1.252 . S
O178 Mg168 2.251 . S
O178 Mg171 2.079 . S
O178 C180 1.273 . S
C179 O175 1.246 1_655 S
C179 O176 1.259 . S
C180 O177 1.252 . S
C180 O178 1.273 . S
O181 Mg168 2.010 1_455 S
O181 C173 1.249 . S
Mg182 O183 2.028 . S
Mg182 O189 1.986 . S
Mg182 O191 2.114 . S
Mg182 O192 2.251 1_455 S
Mg182 O195 2.010 . S
O183 Mg182 2.028 . S
O183 C186 1.250 . S
O184 Mg185 2.028 1_455 S
O184 C186 1.248 . S
Mg185 O184 2.028 1_655 S
Mg185 O190 2.032 1_655 S
Mg185 O192 2.079 . S
C186 O183 1.250 . S
C186 O184 1.248 . S
C187 O188 1.264 . S
C187 O195 1.249 . S
O188 C187 1.264 . S
O189 Mg182 1.986 . S
O189 C193 1.246 . S
O190 Mg185 2.032 1_455 S
O190 C193 1.259 . S
O191 Mg182 2.114 . S
O191 C194 1.252 1_455 S
O192 Mg182 2.251 1_655 S
O192 Mg185 2.079 . S
O192 C194 1.273 . S
C193 O189 1.246 . S
C193 O190 1.259 . S
C194 O191 1.252 1_655 S
C194 O192 1.273 . S
O195 Mg182 2.010 . S
O195 C187 1.249 . S
Mg196 O197 2.028 . S
Mg196 O203 1.986 . S
Mg196 O205 2.114 . S
Mg196 O206 2.251 . S
Mg196 O209 2.010 . S
O197 Mg196 2.028 . S
O197 C200 1.250 . S
O198 Mg199 2.028 . S
O198 C200 1.248 . S
Mg199 O198 2.028 . S
Mg199 O204 2.032 . S
Mg199 O206 2.079 . S
C200 O197 1.250 . S
C200 O198 1.248 . S
C201 O202 1.264 . S
C201 O209 1.249 . S
O202 C201 1.264 . S
O203 Mg196 1.986 . S
O203 C207 1.246 . S
O204 Mg199 2.032 . S
O204 C207 1.259 . S
O205 Mg196 2.114 . S
O205 C208 1.252 . S
O206 Mg196 2.251 . S
O206 Mg199 2.079 . S
O206 C208 1.273 . S
C207 O203 1.246 . S
C207 O204 1.259 . S
C208 O205 1.252 . S
C208 O206 1.273 . S
O209 Mg196 2.010 . S
O209 C201 1.249 . S
Mg210 O211 2.028 . S
Mg210 O217 1.986 . S
Mg210 O219 2.114 . S
Mg210 O220 2.251 . S
Mg210 O223 2.010 . S
O211 Mg210 2.028 . S
O211 C214 1.250 . S
O212 Mg213 2.028 . S
O212 C214 1.248 . S
Mg213 O212 2.028 . S
Mg213 O218 2.032 . S
Mg213 O220 2.079 . S
C214 O211 1.250 . S
C214 O212 1.248 . S
C215 O216 1.264 . S
C215 O223 1.249 . S
O216 C215 1.264 . S
O217 Mg210 1.986 . S
O217 C221 1.246 . S
O218 Mg213 2.032 . S
O218 C221 1.259 . S
O219 Mg210 2.114 . S
O219 C222 1.252 . S
O220 Mg210 2.251 . S
O220 Mg213 2.079 . S
O220 C222 1.273 . S
C221 O217 1.246 . S
C221 O218 1.259 . S
C222 O219 1.252 . S
C222 O220 1.273 . S
O223 Mg210 2.010 . S
O223 C215 1.249 . S
Mg224 O225 2.028 1_545 S
Mg224 O231 1.986 . S
Mg224 O233 2.114 1_545 S
Mg224 O234 2.251 . S
Mg224 O237 2.010 . S
O225 Mg224 2.028 1_565 S
O225 C228 1.250 . S
O226 Mg227 2.028 1_565 S
O226 C228 1.248 . S
Mg227 O226 2.028 1_545 S
Mg227 O232 2.032 . S
Mg227 O234 2.079 . S
C228 O225 1.250 . S
C228 O226 1.248 . S
C229 O230 1.264 . S
C229 O237 1.249 . S
O230 C229 1.264 . S
O231 Mg224 1.986 . S
O231 C235 1.246 . S
O232 Mg227 2.032 . S
O232 C235 1.259 . S
O233 Mg224 2.114 1_565 S
O233 C236 1.252 1_565 S
O234 Mg224 2.251 . S
O234 Mg227 2.079 . S
O234 C236 1.273 . S
C235 O231 1.246 . S
C235 O232 1.259 . S
C236 O233 1.252 1_545 S
C236 O234 1.273 . S
O237 Mg224 2.010 . S
O237 C229 1.249 . S
Mg238 O239 2.028 . S
Mg238 O245 1.986 . S
Mg238 O247 2.114 . S
Mg238 O248 2.251 . S
Mg238 O251 2.010 . S
O239 Mg238 2.028 . S
O239 C242 1.250 . S
O240 Mg241 2.028 . S
O240 C242 1.248 . S
Mg241 O240 2.028 . S
Mg241 O246 2.032 . S
Mg241 O248 2.079 . S
C242 O239 1.250 . S
C242 O240 1.248 . S
C243 O244 1.264 . S
C243 O251 1.249 . S
O244 C243 1.264 . S
O245 Mg238 1.986 . S
O245 C249 1.246 . S
O246 Mg241 2.032 . S
O246 C249 1.259 . S
O247 Mg238 2.114 . S
O247 C250 1.252 . S
O248 Mg238 2.251 . S
O248 Mg241 2.079 . S
O248 C250 1.273 . S
C249 O245 1.246 . S
C249 O246 1.259 . S
C250 O247 1.252 . S
C250 O248 1.273 . S
O251 Mg238 2.010 . S
O251 C243 1.249 . S
Mg252 O253 2.028 . S
Mg252 O259 1.986 1_545 S
Mg252 O261 2.114 . S
Mg252 O262 2.251 . S
Mg252 O265 2.010 . S
O253 Mg252 2.028 . S
O253 C256 1.250 . S
O254 Mg255 2.028 . S
O254 C256 1.248 . S
Mg255 O254 2.028 . S
Mg255 O260 2.032 1_545 S
Mg255 O262 2.079 . S
C256 O253 1.250 . S
C256 O254 1.248 . S
C257 O258 1.264 1_545 S
C257 O265 1.249 . S
O258 C257 1.264 1_565 S
O259 Mg252 1.986 1_565 S
O259 C263 1.246 . S
O260 Mg255 2.032 1_565 S
O260 C263 1.259 . S
O261 Mg252 2.114 . S
O261 C264 1.252 . S
O262 Mg252 2.251 . S
O262 Mg255 2.079 . S
O262 C264 1.273 . S
C263 O259 1.246 . S
C263 O260 1.259 . S
C264 O261 1.252 . S
C264 O262 1.273 . S
O265 Mg252 2.010 . S
O265 C257 1.249 . S
Mg266 O267 2.028 . S
Mg266 O273 1.986 . S
Mg266 O275 2.114 . S
Mg266 O276 2.251 . S
Mg266 O279 2.010 . S
O267 Mg266 2.028 . S
O267 C270 1.250 1_554 S
O268 Mg269 2.028 . S
O268 C270 1.248 1_554 S
Mg269 O268 2.028 . S
Mg269 O274 2.032 . S
Mg269 O276 2.079 . S
C270 O267 1.250 1_556 S
C270 O268 1.248 1_556 S
C271 O272 1.264 1_565 S
C271 O279 1.249 . S
O272 C271 1.264 1_545 S
O273 Mg266 1.986 . S
O273 C277 1.246 . S
O274 Mg269 2.032 . S
O274 C277 1.259 . S
O275 Mg266 2.114 . S
O275 C278 1.252 . S
O276 Mg266 2.251 . S
O276 Mg269 2.079 . S
O276 C278 1.273 . S
C277 O273 1.246 . S
C277 O274 1.259 . S
C278 O275 1.252 . S
C278 O276 1.273 . S
O279 Mg266 2.010 . S
O279 C271 1.249 . S
Mg280 O281 2.028 1_556 S
Mg280 O287 1.986 . S
Mg280 O289 2.114 1_556 S
Mg280 O290 2.251 . S
Mg280 O293 2.010 . S
O281 Mg280 2.028 1_554 S
O281 C284 1.250 . S
O282 Mg283 2.047 . S
O282 C284 1.248 . S
Mg283 O282 2.047 . S
Mg283 O288 2.016 1_554 S
Mg283 O290 2.077 1_554 S
C284 O281 1.250 . S
C284 O282 1.248 . S
C285 O286 1.264 . S
C285 O293 1.249 . S
O286 C285 1.264 . S
O287 Mg280 1.986 . S
O287 C291 1.246 . S
O288 Mg283 2.016 1_556 S
O288 C291 1.259 . S
O289 Mg280 2.114 1_554 S
O289 C292 1.252 . S
O290 Mg280 2.251 . S
O290 Mg283 2.077 1_556 S
O290 C292 1.273 1_556 S
C291 O287 1.246 . S
C291 O288 1.259 . S
C292 O289 1.252 . S
C292 O290 1.273 1_554 S
O293 Mg280 2.010 . S
O293 C285 1.249 . S
Mg294 O295 2.028 . S
Mg294 O301 1.986 . S
Mg294 O303 2.114 . S
Mg294 O304 2.251 . S
Mg294 O307 2.010 . S
O295 Mg294 2.028 . S
O295 C298 1.250 . S
O296 Mg297 2.028 . S
O296 C298 1.248 . S
Mg297 O296 2.028 . S
Mg297 O302 2.032 . S
Mg297 O304 2.079 . S
C298 O295 1.250 . S
C298 O296 1.248 . S
C299 O300 1.264 . S
C299 O307 1.249 . S
O300 C299 1.264 . S
O301 Mg294 1.986 . S
O301 C305 1.246 . S
O302 Mg297 2.032 . S
O302 C305 1.259 . S
O303 Mg294 2.114 . S
O303 C306 1.252 . S
O304 Mg294 2.251 . S
O304 Mg297 2.079 . S
O304 C306 1.273 . S
C305 O301 1.246 . S
C305 O302 1.259 . S
C306 O303 1.252 . S
C306 O304 1.273 . S
O307 Mg294 2.010 . S
O307 C299 1.249 . S
Mg308 O309 2.028 . S
Mg308 O315 1.986 . S
Mg308 O317 2.114 . S
Mg308 O318 2.251 . S
Mg308 O321 2.010 . S
O309 Mg308 2.028 . S
O309 C312 1.250 . S
O310 Mg311 2.028 . S
O310 C312 1.248 . S
Mg311 O310 2.028 . S
Mg311 O316 2.032 . S
Mg311 O318 2.079 . S
C312 O309 1.250 . S
C312 O310 1.248 . S
C313 O314 1.264 . S
C313 O321 1.249 . S
O314 C313 1.264 . S
O315 Mg308 1.986 . S
O315 C319 1.246 . S
O316 Mg311 2.032 . S
O316 C319 1.259 . S
O317 Mg308 2.114 . S
O317 C320 1.252 . S
O318 Mg308 2.251 . S
O318 Mg311 2.079 . S
O318 C320 1.273 . S
C319 O315 1.246 . S
C319 O316 1.259 . S
C320 O317 1.252 . S
C320 O318 1.273 . S
O321 Mg308 2.010 . S
O321 C313 1.249 . S
Mg322 O323 2.028 . S
Mg322 O329 1.986 . S
Mg322 O331 2.114 . S
Mg322 O332 2.251 . S
Mg322 O335 2.010 . S
O323 Mg322 2.028 . S
O323 C326 1.250 . S
O324 Mg325 2.028 . S
O324 C326 1.248 . S
Mg325 O324 2.028 . S
Mg325 O330 2.032 . S
Mg325 O332 2.079 . S
C326 O323 1.250 . S
C326 O324 1.248 . S
C327 O328 1.264 . S
C327 O335 1.249 . S
O328 C327 1.264 . S
O329 Mg322 1.986 . S
O329 C333 1.246 . S
O330 Mg325 2.032 . S
O330 C333 1.259 . S
O331 Mg322 2.114 . S
O331 C334 1.252 . S
O332 Mg322 2.251 . S
O332 Mg325 2.079 . S
O332 C334 1.273 . S
C333 O329 1.246 . S
C333 O330 1.259 . S
C334 O331 1.252 . S
C334 O332 1.273 . S
O335 Mg322 2.010 . S
O335 C327 1.249 . S
C336 O352 1.251 1_456 S
C336 O354 1.254 . S
N337 C338 1.338 . S
N337 C342 1.299 1_545 S
N337 Zn343 2.022 1_655 S
C338 N337 1.338 . S
C338 C339 1.379 . S
C338 H356 0.952 . S
C339 C338 1.379 . S
C339 C340 1.390 1_545 S
C339 H366 0.949 . S
C340 C339 1.390 1_565 S
C340 C341 1.357 . S
C341 C340 1.357 . S
C341 C342 1.370 . S
C341 H367 0.950 . S
C342 N337 1.299 1_565 S
C342 C341 1.370 . S
C342 H360 0.948 . S
Zn343 N337 2.022 1_455 S
Zn343 O352 2.039 1_455 S
Zn343 O358 2.034 . S
Zn343 O362 2.025 1_545 S
Zn343 O364 2.024 1_545 S
C344 O363 1.246 . S
C344 O364 1.249 . S
N345 C346 1.307 1_554 S
N345 C347 1.333 . S
N345 Zn351 2.020 . S
C346 N345 1.307 1_556 S
C346 C350 1.370 . S
C346 H357 0.948 . S
C347 N345 1.333 . S
C347 C348 1.379 . S
C347 H355 0.952 . S
C348 C347 1.379 . S
C348 C349 1.412 . S
C348 H368 0.949 . S
C349 C348 1.412 . S
C349 C350 1.346 1_554 S
C350 C346 1.370 . S
C350 C349 1.346 1_556 S
C350 H369 0.950 . S
Zn351 N345 2.020 . S
Zn351 O354 2.025 1_554 S
Zn351 O359 2.024 . S
Zn351 O361 2.039 . S
Zn351 O363 2.034 1_545 S
O352 C336 1.251 1_654 S
O352 Zn343 2.039 1_655 S
C353 O358 1.246 . S
C353 O359 1.249 . S
O354 C336 1.254 . S
O354 Zn351 2.025 1_556 S
H355 C347 0.952 . S
H356 C338 0.952 . S
H357 C346 0.948 . S
O358 Zn343 2.034 . S
O358 C353 1.246 . S
O359 Zn351 2.024 . S
O359 C353 1.249 . S
H360 C342 0.948 . S
O361 Zn351 2.039 . S
O361 C365 1.252 . S
O362 Zn343 2.025 1_565 S
O362 C365 1.254 1_565 S
O363 C344 1.246 . S
O363 Zn351 2.034 1_565 S
O364 Zn343 2.024 1_565 S
O364 C344 1.249 . S
C365 O361 1.252 . S
C365 O362 1.254 1_545 S
H366 C339 0.949 . S
H367 C341 0.950 . S
H368 C348 0.949 . S
H369 C350 0.950 . S
C370 O386 1.251 . S
C370 O388 1.254 . S
N371 C372 1.333 . S
N371 C376 1.307 . S
N371 Zn377 2.020 . S
C372 N371 1.333 . S
C372 C373 1.379 . S
C372 H390 0.952 . S
C373 C372 1.379 . S
C373 C374 1.390 . S
C373 H400 0.949 . S
C374 C373 1.390 . S
C374 C375 1.357 . S
C375 C374 1.357 . S
C375 C376 1.370 . S
C375 H401 0.950 . S
C376 N371 1.307 . S
C376 C375 1.370 . S
C376 H394 0.948 . S
Zn377 N371 2.020 . S
Zn377 O386 2.039 . S
Zn377 O392 2.034 . S
Zn377 O396 2.025 . S
Zn377 O398 2.024 . S
C378 O397 1.246 . S
C378 O398 1.249 . S
N379 C380 1.307 . S
N379 C381 1.333 . S
N379 Zn385 2.020 . S
C380 N379 1.307 . S
C380 C384 1.370 . S
C380 H391 0.948 . S
C381 N379 1.333 . S
C381 C382 1.379 . S
C381 H389 0.952 . S
C382 C381 1.379 . S
C382 C383 1.390 . S
C382 H402 0.949 . S
C383 C382 1.390 . S
C383 C384 1.357 . S
C384 C380 1.370 . S
C384 C383 1.357 . S
C384 H403 0.950 . S
Zn385 N379 2.020 . S
Zn385 O388 2.025 . S
Zn385 O393 2.024 . S
Zn385 O395 2.039 . S
Zn385 O397 2.034 . S
O386 C370 1.251 . S
O386 Zn377 2.039 . S
C387 O392 1.246 . S
C387 O393 1.249 . S
O388 C370 1.254 . S
O388 Zn385 2.025 . S
H389 C381 0.952 . S
H390 C372 0.952 . S
H391 C380 0.948 . S
O392 Zn377 2.034 . S
O392 C387 1.246 . S
O393 Zn385 2.024 . S
O393 C387 1.249 . S
H394 C376 0.948 . S
O395 Zn385 2.039 . S
O395 C399 1.251 . S
O396 Zn377 2.025 . S
O396 C399 1.254 . S
O397 C378 1.246 . S
O397 Zn385 2.034 . S
O398 Zn377 2.024 . S
O398 C378 1.249 . S
C399 O395 1.251 . S
C399 O396 1.254 . S
H400 C373 0.949 . S
H401 C375 0.950 . S
H402 C382 0.949 . S
H403 C384 0.950 . S
C404 O420 1.251 . S
C404 O422 1.254 . S
N405 C406 1.333 . S
N405 C410 1.307 . S
N405 Zn411 2.020 . S
C406 N405 1.333 . S
C406 C407 1.379 . S
C406 H424 0.952 . S
C407 C406 1.379 . S
C407 C408 1.390 . S
C407 H434 0.949 . S
C408 C407 1.390 . S
C408 C409 1.357 . S
C409 C408 1.357 . S
C409 C410 1.370 . S
C409 H435 0.950 . S
C410 N405 1.307 . S
C410 C409 1.370 . S
C410 H428 0.948 . S
Zn411 N405 2.020 . S
Zn411 O420 2.039 1_565 S
Zn411 O426 2.034 1_565 S
Zn411 O430 2.025 . S
Zn411 O432 2.024 . S
C412 O431 1.246 1_565 S
C412 O432 1.249 . S
N413 C414 1.307 . S
N413 C415 1.333 . S
N413 Zn419 2.020 . S
C414 N413 1.307 . S
C414 C418 1.370 . S
C414 H425 0.948 . S
C415 N413 1.333 . S
C415 C416 1.379 . S
C415 H423 0.952 . S
C416 C415 1.379 . S
C416 C417 1.390 . S
C416 H436 0.949 . S
C417 C416 1.390 . S
C417 C418 1.357 . S
C418 C414 1.370 . S
C418 C417 1.357 . S
C418 H437 0.950 . S
Zn419 N413 2.020 . S
Zn419 O422 2.025 . S
Zn419 O427 2.024 . S
Zn419 O429 2.039 . S
Zn419 O431 2.034 . S
O420 C404 1.251 . S
O420 Zn411 2.039 1_545 S
C421 O426 1.246 . S
C421 O427 1.249 . S
O422 C404 1.254 . S
O422 Zn419 2.025 . S
H423 C415 0.952 . S
H424 C406 0.952 . S
H425 C414 0.948 . S
O426 Zn411 2.034 1_545 S
O426 C421 1.246 . S
O427 Zn419 2.024 . S
O427 C421 1.249 . S
H428 C410 0.948 . S
O429 Zn419 2.039 . S
O429 C433 1.251 . S
O430 Zn411 2.025 . S
O430 C433 1.254 1_565 S
O431 C412 1.246 1_545 S
O431 Zn419 2.034 . S
O432 Zn411 2.024 . S
O432 C412 1.249 . S
C433 O429 1.251 . S
C433 O430 1.254 1_545 S
H434 C407 0.949 . S
H435 C409 0.950 . S
H436 C416 0.949 . S
H437 C418 0.950 . S
C438 O454 1.251 . S
C438 O456 1.254 . S
N439 C440 1.333 . S
N439 C444 1.307 . S
N439 Zn445 2.020 . S
C440 N439 1.333 . S
C440 C441 1.379 . S
C440 H458 0.952 . S
C441 C440 1.379 . S
C441 C442 1.390 . S
C441 H468 0.949 . S
C442 C441 1.390 . S
C442 C443 1.357 . S
C443 C442 1.357 . S
C443 C444 1.370 . S
C443 H469 0.950 . S
C444 N439 1.307 . S
C444 C443 1.370 . S
C444 H462 0.948 . S
Zn445 N439 2.020 . S
Zn445 O454 2.039 . S
Zn445 O460 2.034 . S
Zn445 O464 2.025 . S
Zn445 O466 2.024 . S
C446 O465 1.246 . S
C446 O466 1.249 . S
N447 C448 1.307 . S
N447 C449 1.333 . S
N447 Zn453 2.020 . S
C448 N447 1.307 . S
C448 C452 1.370 . S
C448 H459 0.948 . S
C449 N447 1.333 . S
C449 C450 1.379 . S
C449 H457 0.952 . S
C450 C449 1.379 . S
C450 C451 1.390 . S
C450 H470 0.949 . S
C451 C450 1.390 . S
C451 C452 1.357 . S
C452 C448 1.370 . S
C452 C451 1.357 . S
C452 H471 0.950 . S
Zn453 N447 2.020 . S
Zn453 O456 2.025 . S
Zn453 O461 2.024 . S
Zn453 O463 2.039 . S
Zn453 O465 2.034 . S
O454 C438 1.251 . S
O454 Zn445 2.039 . S
C455 O460 1.246 . S
C455 O461 1.249 . S
O456 C438 1.254 . S
O456 Zn453 2.025 . S
H457 C449 0.952 . S
H458 C440 0.952 . S
H459 C448 0.948 . S
O460 Zn445 2.034 . S
O460 C455 1.246 . S
O461 Zn453 2.024 . S
O461 C455 1.249 . S
H462 C444 0.948 . S
O463 Zn453 2.039 . S
O463 C467 1.251 . S
O464 Zn445 2.025 . S
O464 C467 1.254 . S
O465 C446 1.246 . S
O465 Zn453 2.034 . S
O466 Zn445 2.024 . S
O466 C446 1.249 . S
C467 O463 1.251 . S
C467 O464 1.254 . S
H468 C441 0.949 . S
H469 C443 0.950 . S
H470 C450 0.949 . S
H471 C452 0.950 . S
C472 O488 1.251 . S
C472 O490 1.253 1_545 S
N473 C474 1.333 . S
N473 C478 1.307 . S
N473 Zn479 2.020 . S
C474 N473 1.333 . S
C474 C475 1.379 . S
C474 H492 0.952 . S
C475 C474 1.379 . S
C475 C476 1.390 . S
C475 H502 0.949 . S
C476 C475 1.390 . S
C476 C477 1.357 . S
C477 C476 1.357 . S
C477 C478 1.370 . S
C477 H503 0.950 . S
C478 N473 1.307 . S
C478 C477 1.370 . S
C478 H496 0.948 . S
Zn479 N473 2.020 . S
Zn479 O488 2.039 . S
Zn479 O494 2.034 . S
Zn479 O498 2.025 . S
Zn479 O500 2.024 1_545 S
C480 O499 1.246 . S
C480 O500 1.249 . S
N481 C482 1.307 . S
N481 C483 1.333 1_455 S
N481 Zn487 2.020 1_565 S
C482 N481 1.307 . S
C482 C486 1.370 . S
C482 H493 0.948 1_565 S
C483 N481 1.333 1_655 S
C483 C484 1.379 . S
C483 H491 0.952 . S
C484 C483 1.379 . S
C484 C485 1.390 . S
C484 H504 0.949 . S
C485 C484 1.390 . S
C485 C486 1.357 1_655 S
C486 C482 1.370 . S
C486 C485 1.357 1_455 S
C486 H505 0.950 . S
Zn487 N481 2.020 1_545 S
Zn487 O490 2.023 1_545 S
Zn487 O495 2.024 . S
Zn487 O497 2.039 1_455 S
Zn487 O499 2.034 1_545 S
O488 C472 1.251 . S
O488 Zn479 2.039 . S
C489 O494 1.246 . S
C489 O495 1.249 . S
O490 C472 1.253 1_565 S
O490 Zn487 2.023 1_565 S
H491 C483 0.952 . S
H492 C474 0.952 . S
H493 C482 0.948 1_545 S
O494 Zn479 2.034 . S
O494 C489 1.246 . S
O495 Zn487 2.024 . S
O495 C489 1.249 . S
H496 C478 0.948 . S
O497 Zn487 2.039 1_655 S
O497 C501 1.251 . S
O498 Zn479 2.025 . S
O498 C501 1.254 1_455 S
O499 C480 1.246 . S
O499 Zn487 2.034 1_565 S
O500 Zn479 2.024 1_565 S
O500 C480 1.249 . S
C501 O497 1.251 . S
C501 O498 1.254 1_655 S
H502 C475 0.949 . S
H503 C477 0.950 . S
H504 C484 0.949 . S
H505 C486 0.950 . S
C506 O522 1.251 . S
C506 O524 1.254 . S
N507 C508 1.333 . S
N507 C512 1.307 . S
N507 Zn513 2.020 . S
C508 N507 1.333 . S
C508 C509 1.379 . S
C508 H526 0.952 . S
C509 C508 1.379 . S
C509 C510 1.390 . S
C509 H536 0.949 . S
C510 C509 1.390 . S
C510 C511 1.357 . S
C511 C510 1.357 . S
C511 C512 1.370 . S
C511 H537 0.950 . S
C512 N507 1.307 . S
C512 C511 1.370 . S
C512 H530 0.948 . S
Zn513 N507 2.020 . S
Zn513 O522 2.039 . S
Zn513 O528 2.034 . S
Zn513 O532 2.025 . S
Zn513 O534 2.024 . S
C514 O533 1.246 . S
C514 O534 1.249 . S
N515 C516 1.307 . S
N515 C517 1.333 . S
N515 Zn521 2.020 . S
C516 N515 1.307 . S
C516 C520 1.370 . S
C516 H527 0.948 . S
C517 N515 1.333 . S
C517 C518 1.379 . S
C517 H525 0.952 . S
C518 C517 1.379 . S
C518 C519 1.390 . S
C518 H538 0.949 . S
C519 C518 1.390 . S
C519 C520 1.357 . S
C520 C516 1.370 . S
C520 C519 1.357 . S
C520 H539 0.950 . S
Zn521 N515 2.020 . S
Zn521 O524 2.025 . S
Zn521 O529 2.024 . S
Zn521 O531 2.039 . S
Zn521 O533 2.034 . S
O522 C506 1.251 . S
O522 Zn513 2.039 . S
C523 O528 1.246 . S
C523 O529 1.249 . S
O524 C506 1.254 . S
O524 Zn521 2.025 . S
H525 C517 0.952 . S
H526 C508 0.952 . S
H527 C516 0.948 . S
O528 Zn513 2.034 . S
O528 C523 1.246 . S
O529 Zn521 2.024 . S
O529 C523 1.249 . S
H530 C512 0.948 . S
O531 Zn521 2.039 . S
O531 C535 1.251 . S
O532 Zn513 2.025 . S
O532 C535 1.254 . S
O533 C514 1.246 . S
O533 Zn521 2.034 . S
O534 Zn513 2.024 . S
O534 C514 1.249 . S
C535 O531 1.251 . S
C535 O532 1.254 . S
H536 C509 0.949 . S
H537 C511 0.950 . S
H538 C518 0.949 . S
H539 C520 0.950 . S
C540 O556 1.251 . S
C540 O558 1.254 . S
N541 C542 1.333 . S
N541 C546 1.307 . S
N541 Zn547 2.020 . S
C542 N541 1.333 . S
C542 C543 1.379 . S
C542 H560 0.952 . S
C543 C542 1.379 . S
C543 C544 1.390 . S
C543 H570 0.949 . S
C544 C543 1.390 . S
C544 C545 1.357 . S
C545 C544 1.357 . S
C545 C546 1.370 . S
C545 H571 0.950 . S
C546 N541 1.307 . S
C546 C545 1.370 . S
C546 H564 0.948 . S
Zn547 N541 2.020 . S
Zn547 O556 2.039 1_545 S
Zn547 O562 2.034 . S
Zn547 O566 2.025 . S
Zn547 O568 2.024 . S
C548 O567 1.245 1_545 S
C548 O568 1.249 . S
N549 C550 1.307 . S
N549 C551 1.333 1_565 S
N549 Zn555 2.020 1_566 S
C550 N549 1.307 . S
C550 C554 1.370 . S
C550 H561 0.948 . S
C551 N549 1.333 1_545 S
C551 C552 1.379 . S
C551 H559 0.952 . S
C552 C551 1.379 . S
C552 C553 1.390 1_545 S
C552 H572 0.949 . S
C553 C552 1.390 1_565 S
C553 C554 1.357 . S
C554 C550 1.370 . S
C554 C553 1.357 . S
C554 H573 0.950 . S
Zn555 N549 2.020 1_544 S
Zn555 O558 2.025 1_545 S
Zn555 O563 2.024 . S
Zn555 O565 2.039 1_554 S
Zn555 O567 2.031 1_545 S
O556 C540 1.251 . S
O556 Zn547 2.039 1_565 S
C557 O562 1.246 . S
C557 O563 1.249 . S
O558 C540 1.254 . S
O558 Zn555 2.025 1_565 S
H559 C551 0.952 . S
H560 C542 0.952 . S
H561 C550 0.948 . S
O562 Zn547 2.034 . S
O562 C557 1.246 . S
O563 Zn555 2.024 . S
O563 C557 1.249 . S
H564 C546 0.948 . S
O565 Zn555 2.039 1_556 S
O565 C569 1.251 1_556 S
O566 Zn547 2.025 . S
O566 C569 1.254 . S
O567 C548 1.245 1_565 S
O567 Zn555 2.031 1_565 S
O568 Zn547 2.024 . S
O568 C548 1.249 . S
C569 O565 1.251 1_554 S
C569 O566 1.254 . S
H570 C543 0.949 . S
H571 C545 0.950 . S
H572 C552 0.949 . S
H573 C554 0.950 . S
C574 O590 1.251 . S
C574 O592 1.254 . S
N575 C576 1.333 . S
N575 C580 1.307 . S
N575 Zn581 2.020 . S
C576 N575 1.333 . S
C576 C577 1.379 . S
C576 H594 0.952 . S
C577 C576 1.379 . S
C577 C578 1.390 . S
C577 H604 0.949 . S
C578 C577 1.390 . S
C578 C579 1.357 . S
C579 C578 1.357 . S
C579 C580 1.370 . S
C579 H605 0.950 . S
C580 N575 1.307 . S
C580 C579 1.370 . S
C580 H598 0.948 . S
Zn581 N575 2.020 . S
Zn581 O590 2.039 . S
Zn581 O596 2.034 . S
Zn581 O600 2.025 . S
Zn581 O602 2.024 . S
C582 O601 1.246 . S
C582 O602 1.249 . S
N583 C584 1.307 . S
N583 C585 1.333 . S
N583 Zn589 2.020 . S
C584 N583 1.307 . S
C584 C588 1.370 . S
C584 H595 0.948 . S
C585 N583 1.333 . S
C585 C586 1.379 . S
C585 H593 0.952 . S
C586 C585 1.379 . S
C586 C587 1.390 . S
C586 H606 0.949 . S
C587 C586 1.390 . S
C587 C588 1.357 . S
C588 C584 1.370 . S
C588 C587 1.357 . S
C588 H607 0.950 . S
Zn589 N583 2.020 . S
Zn589 O592 2.025 . S
Zn589 O597 2.024 . S
Zn589 O599 2.039 . S
Zn589 O601 2.034 . S
O590 C574 1.251 . S
O590 Zn581 2.039 . S
C591 O596 1.246 . S
C591 O597 1.249 . S
O592 C574 1.254 . S
O592 Zn589 2.025 . S
H593 C585 0.952 . S
H594 C576 0.952 . S
H595 C584 0.948 . S
O596 Zn581 2.034 . S
O596 C591 1.246 . S
O597 Zn589 2.024 . S
O597 C591 1.249 . S
H598 C580 0.948 . S
O599 Zn589 2.039 . S
O599 C603 1.251 . S
O600 Zn581 2.025 . S
O600 C603 1.254 . S
O601 C582 1.246 . S
O601 Zn589 2.034 . S
O602 Zn581 2.024 . S
O602 C582 1.249 . S
C603 O599 1.251 . S
C603 O600 1.254 . S
H604 C577 0.949 . S
H605 C579 0.950 . S
H606 C586 0.949 . S
H607 C588 0.950 . S
C608 O624 1.251 . S
C608 O626 1.254 . S
N609 C610 1.333 . S
N609 C614 1.307 . S
N609 Zn615 2.020 1_556 S
C610 N609 1.333 . S
C610 C611 1.379 . S
C610 H628 0.952 . S
C611 C610 1.379 . S
C611 C612 1.390 . S
C611 H638 0.949 . S
C612 C611 1.390 . S
C612 C613 1.357 . S
C613 C612 1.357 . S
C613 C614 1.370 . S
C613 H639 0.950 . S
C614 N609 1.307 . S
C614 C613 1.370 . S
C614 H632 0.948 . S
Zn615 N609 2.020 1_554 S
Zn615 O624 2.039 . S
Zn615 O630 2.034 . S
Zn615 O634 2.025 1_554 S
Zn615 O636 2.024 1_554 S
C616 O635 1.246 . S
C616 O636 1.249 1_554 S
N617 C618 1.307 . S
N617 C619 1.333 . S
N617 Zn623 2.020 . S
C618 N617 1.307 . S
C618 C622 1.370 . S
C618 H629 0.948 . S
C619 N617 1.333 . S
C619 C620 1.379 . S
C619 H627 0.952 . S
C620 C619 1.379 . S
C620 C621 1.390 . S
C620 H640 0.949 . S
C621 C620 1.390 . S
C621 C622 1.357 . S
C622 C618 1.370 . S
C622 C621 1.357 . S
C622 H641 0.950 . S
Zn623 N617 2.020 . S
Zn623 O626 2.025 . S
Zn623 O631 2.024 . S
Zn623 O633 2.039 . S
Zn623 O635 2.034 . S
O624 C608 1.251 . S
O624 Zn615 2.039 . S
C625 O630 1.246 . S
C625 O631 1.249 . S
O626 C608 1.254 . S
O626 Zn623 2.025 . S
H627 C619 0.952 . S
H628 C610 0.952 . S
H629 C618 0.948 . S
O630 Zn615 2.034 . S
O630 C625 1.246 . S
O631 Zn623 2.024 . S
O631 C625 1.249 . S
H632 C614 0.948 . S
O633 Zn623 2.039 . S
O633 C637 1.251 . S
O634 Zn615 2.025 1_556 S
O634 C637 1.254 1_556 S
O635 C616 1.246 . S
O635 Zn623 2.034 . S
O636 Zn615 2.024 1_556 S
O636 C616 1.249 1_556 S
C637 O633 1.251 . S
C637 O634 1.254 1_554 S
H638 C611 0.949 . S
H639 C613 0.950 . S
H640 C620 0.949 . S
H641 C622 0.950 . S
C642 O658 1.251 . S
C642 O660 1.254 . S
N643 C644 1.333 . S
N643 C648 1.307 . S
N643 Zn649 2.020 . S
C644 N643 1.333 . S
C644 C645 1.379 . S
C644 H662 0.952 . S
C645 C644 1.379 . S
C645 C646 1.390 . S
C645 H672 0.949 . S
C646 C645 1.390 . S
C646 C647 1.357 . S
C647 C646 1.357 . S
C647 C648 1.370 . S
C647 H673 0.950 . S
C648 N643 1.307 . S
C648 C647 1.370 . S
C648 H666 0.948 . S
Zn649 N643 2.020 . S
Zn649 O658 2.039 . S
Zn649 O664 2.034 . S
Zn649 O668 2.025 . S
Zn649 O670 2.024 . S
C650 O669 1.246 . S
C650 O670 1.249 . S
N651 C652 1.307 . S
N651 C653 1.333 . S
N651 Zn657 2.020 . S
C652 N651 1.307 . S
C652 C656 1.370 . S
C652 H663 0.948 . S
C653 N651 1.333 . S
C653 C654 1.379 . S
C653 H661 0.952 . S
C654 C653 1.379 . S
C654 C655 1.390 . S
C654 H674 0.949 . S
C655 C654 1.390 . S
C655 C656 1.357 . S
C656 C652 1.370 . S
C656 C655 1.357 . S
C656 H675 0.950 . S
Zn657 N651 2.020 . S
Zn657 O660 2.025 . S
Zn657 O665 2.024 . S
Zn657 O667 2.039 . S
Zn657 O669 2.034 . S
O658 C642 1.251 . S
O658 Zn649 2.039 . S
C659 O664 1.246 . S
C659 O665 1.249 . S
O660 C642 1.254 . S
O660 Zn657 2.025 . S
H661 C653 0.952 . S
H662 C644 0.952 . S
H663 C652 0.948 . S
O664 Zn649 2.034 . S
O664 C659 1.246 . S
O665 Zn657 2.024 . S
O665 C659 1.249 . S
H666 C648 0.948 . S
O667 Zn657 2.039 . S
O667 C671 1.251 . S
O668 Zn649 2.025 . S
O668 C671 1.254 . S
O669 C650 1.246 . S
O669 Zn657 2.034 . S
O670 Zn649 2.024 . S
O670 C650 1.249 . S
C671 O667 1.251 . S
C671 O668 1.254 . S
H672 C645 0.949 . S
H673 C647 0.950 . S
H674 C654 0.949 . S
H675 C656 0.950 . S
C676 O692 1.251 . S
C676 O694 1.254 . S
N677 C678 1.333 . S
N677 C682 1.307 . S
N677 Zn683 2.020 . S
C678 N677 1.333 . S
C678 C679 1.379 . S
C678 H696 0.952 . S
C679 C678 1.379 . S
C679 C680 1.390 . S
C679 H706 0.949 . S
C680 C679 1.390 . S
C680 C681 1.357 . S
C681 C680 1.357 . S
C681 C682 1.370 . S
C681 H707 0.950 . S
C682 N677 1.307 . S
C682 C681 1.370 . S
C682 H700 0.948 . S
Zn683 N677 2.020 . S
Zn683 O692 2.039 . S
Zn683 O698 2.022 1_455 S
Zn683 O702 2.025 . S
Zn683 O704 2.024 . S
C684 O703 1.246 . S
C684 O704 1.249 . S
N685 C686 1.307 1_455 S
N685 C687 1.333 . S
N685 Zn691 2.020 . S
C686 N685 1.307 1_655 S
C686 C690 1.370 . S
C686 H697 0.948 . S
C687 N685 1.333 . S
C687 C688 1.379 . S
C687 H695 0.952 . S
C688 C687 1.379 . S
C688 C689 1.390 1_455 S
C688 H708 0.949 . S
C689 C688 1.390 1_655 S
C689 C690 1.357 . S
C690 C686 1.370 . S
C690 C689 1.357 . S
C690 H709 0.950 . S
Zn691 N685 2.020 . S
Zn691 O694 2.025 . S
Zn691 O699 2.024 1_455 S
Zn691 O701 2.039 . S
Zn691 O703 2.034 . S
O692 C676 1.251 . S
O692 Zn683 2.039 . S
C693 O698 1.254 . S
C693 O699 1.249 . S
O694 C676 1.254 . S
O694 Zn691 2.025 . S
H695 C687 0.952 . S
H696 C678 0.952 . S
H697 C686 0.948 . S
O698 Zn683 2.022 1_655 S
O698 C693 1.254 . S
O699 Zn691 2.024 1_655 S
O699 C693 1.249 . S
H700 C682 0.948 . S
O701 Zn691 2.039 . S
O701 C705 1.251 . S
O702 Zn683 2.025 . S
O702 C705 1.254 . S
O703 C684 1.246 . S
O703 Zn691 2.034 . S
O704 Zn683 2.024 . S
O704 C684 1.249 . S
C705 O701 1.251 . S
C705 O702 1.254 . S
H706 C679 0.949 . S
H707 C681 0.950 . S
H708 C688 0.949 . S
H709 C690 0.950 . S
C710 O726 1.251 . S
C710 O728 1.254 . S
N711 C712 1.333 . S
N711 C716 1.307 . S
N711 Zn717 2.020 . S
C712 N711 1.333 . S
C712 C713 1.379 . S
C712 H730 0.952 . S
C713 C712 1.379 . S
C713 C714 1.390 . S
C713 H740 0.949 . S
C714 C713 1.390 . S
C714 C715 1.357 . S
C715 C714 1.357 . S
C715 C716 1.370 . S
C715 H741 0.950 . S
C716 N711 1.307 . S
C716 C715 1.370 . S
C716 H734 0.948 . S
Zn717 N711 2.020 . S
Zn717 O726 2.039 . S
Zn717 O732 2.034 . S
Zn717 O736 2.025 . S
Zn717 O738 2.024 . S
C718 O737 1.246 . S
C718 O738 1.249 . S
N719 C720 1.307 . S
N719 C721 1.333 . S
N719 Zn725 2.020 . S
C720 N719 1.307 . S
C720 C724 1.370 . S
C720 H731 0.948 . S
C721 N719 1.333 . S
C721 C722 1.379 . S
C721 H729 0.952 . S
C722 C721 1.379 . S
C722 C723 1.390 . S
C722 H742 0.949 . S
C723 C722 1.390 . S
C723 C724 1.357 . S
C724 C720 1.370 . S
C724 C723 1.357 . S
C724 H743 0.950 . S
Zn725 N719 2.020 . S
Zn725 O728 2.025 . S
Zn725 O733 2.024 . S
Zn725 O735 2.039 . S
Zn725 O737 2.034 . S
O726 C710 1.251 . S
O726 Zn717 2.039 . S
C727 O732 1.246 . S
C727 O733 1.249 . S
O728 C710 1.254 . S
O728 Zn725 2.025 . S
H729 C721 0.952 . S
H730 C712 0.952 . S
H731 C720 0.948 . S
O732 Zn717 2.034 . S
O732 C727 1.246 . S
O733 Zn725 2.024 . S
O733 C727 1.249 . S
H734 C716 0.948 . S
O735 Zn725 2.039 . S
O735 C739 1.251 . S
O736 Zn717 2.025 . S
O736 C739 1.254 . S
O737 C718 1.246 . S
O737 Zn725 2.034 . S
O738 Zn717 2.024 . S
O738 C718 1.249 . S
C739 O735 1.251 . S
C739 O736 1.254 . S
H740 C713 0.949 . S
H741 C715 0.950 . S
H742 C722 0.949 . S
H743 C724 0.950 . S
C744 O760 1.251 . S
C744 O762 1.254 . S
N745 C746 1.333 . S
N745 C750 1.307 . S
N745 Zn751 2.020 . S
C746 N745 1.333 . S
C746 C747 1.379 . S
C746 H764 0.952 . S
C747 C746 1.379 . S
C747 C748 1.390 . S
C747 H774 0.949 . S
C748 C747 1.390 . S
C748 C749 1.357 . S
C749 C748 1.357 . S
C749 C750 1.370 . S
C749 H775 0.950 . S
C750 N745 1.307 . S
C750 C749 1.370 . S
C750 H768 0.948 . S
Zn751 N745 2.020 . S
Zn751 O760 2.039 . S
Zn751 O766 2.034 . S
Zn751 O770 2.025 . S
Zn751 O772 2.024 . S
C752 O771 1.246 . S
C752 O772 1.249 . S
N753 C754 1.307 . S
N753 C755 1.333 . S
N753 Zn759 2.020 . S
C754 N753 1.307 . S
C754 C758 1.370 . S
C754 H765 0.948 . S
C755 N753 1.333 . S
C755 C756 1.379 . S
C755 H763 0.952 . S
C756 C755 1.379 . S
C756 C757 1.390 . S
C756 H776 0.949 . S
C757 C756 1.390 . S
C757 C758 1.357 . S
C758 C754 1.370 . S
C758 C757 1.357 . S
C758 H777 0.950 . S
Zn759 N753 2.020 . S
Zn759 O762 2.025 . S
Zn759 O767 2.024 . S
Zn759 O769 2.039 . S
Zn759 O771 2.034 . S
O760 C744 1.251 . S
O760 Zn751 2.039 . S
C761 O766 1.246 . S
C761 O767 1.249 . S
O762 C744 1.254 . S
O762 Zn759 2.025 . S
H763 C755 0.952 . S
H764 C746 0.952 . S
H765 C754 0.948 . S
O766 Zn751 2.034 . S
O766 C761 1.246 . S
O767 Zn759 2.024 . S
O767 C761 1.249 . S
H768 C750 0.948 . S
O769 Zn759 2.039 . S
O769 C773 1.251 . S
O770 Zn751 2.025 . S
O770 C773 1.254 . S
O771 C752 1.246 . S
O771 Zn759 2.034 . S
O772 Zn751 2.024 . S
O772 C752 1.249 . S
C773 O769 1.251 . S
C773 O770 1.254 . S
H774 C747 0.949 . S
H775 C749 0.950 . S
H776 C756 0.949 . S
H777 C758 0.950 . S
C778 O794 1.251 . S
C778 O796 1.254 . S
N779 C780 1.333 . S
N779 C784 1.307 . S
N779 Zn785 2.020 . S
C780 N779 1.333 . S
C780 C781 1.379 . S
C780 H798 0.952 . S
C781 C780 1.379 . S
C781 C782 1.390 . S
C781 H808 0.949 . S
C782 C781 1.390 . S
C782 C783 1.357 . S
C783 C782 1.357 . S
C783 C784 1.370 . S
C783 H809 0.950 . S
C784 N779 1.307 . S
C784 C783 1.370 . S
C784 H802 0.948 . S
Zn785 N779 2.020 . S
Zn785 O794 2.039 . S
Zn785 O800 2.034 . S
Zn785 O804 2.025 . S
Zn785 O806 2.024 . S
C786 O805 1.246 . S
C786 O806 1.249 . S
N787 C788 1.307 . S
N787 C789 1.333 . S
N787 Zn793 2.020 . S
C788 N787 1.307 . S
C788 C792 1.370 . S
C788 H799 0.948 . S
C789 N787 1.333 . S
C789 C790 1.379 . S
C789 H797 0.952 . S
C790 C789 1.379 . S
C790 C791 1.390 . S
C790 H810 0.949 . S
C791 C790 1.390 . S
C791 C792 1.357 . S
C792 C788 1.370 . S
C792 C791 1.357 . S
C792 H811 0.950 . S
Zn793 N787 2.020 . S
Zn793 O796 2.025 . S
Zn793 O801 2.024 . S
Zn793 O803 2.039 . S
Zn793 O805 2.034 . S
O794 C778 1.251 . S
O794 Zn785 2.039 . S
C795 O800 1.246 . S
C795 O801 1.249 . S
O796 C778 1.254 . S
O796 Zn793 2.025 . S
H797 C789 0.952 . S
H798 C780 0.952 . S
H799 C788 0.948 . S
O800 Zn785 2.034 . S
O800 C795 1.246 . S
O801 Zn793 2.024 . S
O801 C795 1.249 . S
H802 C784 0.948 . S
O803 Zn793 2.039 . S
O803 C807 1.251 . S
O804 Zn785 2.025 . S
O804 C807 1.254 . S
O805 C786 1.246 . S
O805 Zn793 2.034 . S
O806 Zn785 2.024 . S
O806 C786 1.249 . S
C807 O803 1.251 . S
C807 O804 1.254 . S
H808 C781 0.949 . S
H809 C783 0.950 . S
H810 C790 0.949 . S
H811 C792 0.950 . S
C812 O828 1.251 . S
C812 O830 1.254 . S
N813 C814 1.333 . S
N813 C818 1.307 . S
N813 Zn819 2.020 . S
C814 N813 1.333 . S
C814 C815 1.379 . S
C814 H832 0.952 . S
C815 C814 1.379 . S
C815 C816 1.390 . S
C815 H842 0.949 . S
C816 C815 1.390 . S
C816 C817 1.357 . S
C817 C816 1.357 . S
C817 C818 1.370 . S
C817 H843 0.950 . S
C818 N813 1.307 . S
C818 C817 1.370 . S
C818 H836 0.948 . S
Zn819 N813 2.020 . S
Zn819 O828 2.039 . S
Zn819 O834 2.034 . S
Zn819 O838 2.025 . S
Zn819 O840 2.024 . S
C820 O839 1.246 . S
C820 O840 1.249 . S
N821 C822 1.307 . S
N821 C823 1.333 . S
N821 Zn827 2.020 . S
C822 N821 1.307 . S
C822 C826 1.370 . S
C822 H833 0.948 . S
C823 N821 1.333 . S
C823 C824 1.379 . S
C823 H831 0.952 . S
C824 C823 1.379 . S
C824 C825 1.390 . S
C824 H844 0.949 . S
C825 C824 1.390 . S
C825 C826 1.357 . S
C826 C822 1.370 . S
C826 C825 1.357 . S
C826 H845 0.950 . S
Zn827 N821 2.020 . S
Zn827 O830 2.025 . S
Zn827 O835 2.024 . S
Zn827 O837 2.039 . S
Zn827 O839 2.034 . S
O828 C812 1.251 . S
O828 Zn819 2.039 . S
C829 O834 1.246 . S
C829 O835 1.249 . S
O830 C812 1.254 . S
O830 Zn827 2.025 . S
H831 C823 0.952 . S
H832 C814 0.952 . S
H833 C822 0.948 . S
O834 Zn819 2.034 . S
O834 C829 1.246 . S
O835 Zn827 2.024 . S
O835 C829 1.249 . S
H836 C818 0.948 . S
O837 Zn827 2.039 . S
O837 C841 1.251 . S
O838 Zn819 2.025 . S
O838 C841 1.254 . S
O839 C820 1.246 . S
O839 Zn827 2.034 . S
O840 Zn819 2.024 . S
O840 C820 1.249 . S
C841 O837 1.251 . S
C841 O838 1.254 . S
H842 C815 0.949 . S
H843 C817 0.950 . S
H844 C824 0.949 . S
H845 C826 0.950 . S
C846 O862 1.251 . S
C846 O864 1.254 . S
N847 C848 1.333 . S
N847 C852 1.307 . S
N847 Zn853 2.020 . S
C848 N847 1.333 . S
C848 C849 1.379 . S
C848 H866 0.952 . S
C849 C848 1.379 . S
C849 C850 1.390 . S
C849 H876 0.949 . S
C850 C849 1.390 . S
C850 C851 1.357 . S
C851 C850 1.357 . S
C851 C852 1.370 . S
C851 H877 0.950 . S
C852 N847 1.307 . S
C852 C851 1.370 . S
C852 H870 0.948 . S
Zn853 N847 2.020 . S
Zn853 O862 2.039 . S
Zn853 O868 2.034 . S
Zn853 O872 2.025 1_554 S
Zn853 O874 2.024 . S
C854 O873 1.246 . S
C854 O874 1.249 1_655 S
N855 C856 1.307 . S
N855 C857 1.333 1_554 S
N855 Zn861 2.020 . S
C856 N855 1.307 . S
C856 C860 1.370 . S
C856 H867 0.948 . S
C857 N855 1.333 1_556 S
C857 C858 1.379 1_455 S
C857 H865 0.952 . S
C858 C857 1.379 1_655 S
C858 C859 1.390 . S
C858 H878 0.949 . S
C859 C858 1.390 . S
C859 C860 1.357 1_656 S
C860 C856 1.370 . S
C860 C859 1.357 1_454 S
C860 H879 0.950 . S
Zn861 N855 2.020 . S
Zn861 O864 2.025 . S
Zn861 O869 2.024 . S
Zn861 O871 2.039 1_554 S
Zn861 O873 2.034 1_455 S
O862 C846 1.251 . S
O862 Zn853 2.039 . S
C863 O868 1.246 . S
C863 O869 1.249 . S
O864 C846 1.254 . S
O864 Zn861 2.025 . S
H865 C857 0.952 . S
H866 C848 0.952 . S
H867 C856 0.948 . S
O868 Zn853 2.034 . S
O868 C863 1.246 . S
O869 Zn861 2.024 . S
O869 C863 1.249 . S
H870 C852 0.948 . S
O871 Zn861 2.039 1_556 S
O871 C875 1.251 . S
O872 Zn853 2.025 1_556 S
O872 C875 1.254 . S
O873 C854 1.246 . S
O873 Zn861 2.034 1_655 S
O874 Zn853 2.024 . S
O874 C854 1.249 1_455 S
C875 O871 1.251 . S
C875 O872 1.254 . S
H876 C849 0.949 . S
H877 C851 0.950 . S
H878 C858 0.949 . S
H879 C860 0.950 . S
C880 C881 1.387 . S
C880 H884 0.950 . S
C880 C889 1.390 . S
C881 C880 1.387 . S
C881 C883 1.387 . S
H882 C889 0.950 . S
C883 C881 1.387 . S
C883 C885 1.390 . S
C883 H887 0.950 . S
H884 C880 0.950 . S
C885 C883 1.390 . S
C885 C886 1.387 . S
C885 H888 0.950 . S
C886 C885 1.387 . S
C886 C889 1.387 . S
H887 C883 0.950 . S
H888 C885 0.950 . S
C889 C880 1.390 . S
C889 H882 0.950 . S
C889 C886 1.387 . S
C890 C891 1.387 . S
C890 H894 0.950 . S
C890 C899 1.390 . S
C891 C890 1.387 . S
C891 C893 1.387 . S
H892 C899 0.950 . S
C893 C891 1.387 . S
C893 C895 1.390 . S
C893 H897 0.950 . S
H894 C890 0.950 . S
C895 C893 1.390 . S
C895 C896 1.387 . S
C895 H898 0.950 . S
C896 C895 1.387 . S
C896 C899 1.387 . S
H897 C893 0.950 . S
H898 C895 0.950 . S
C899 C890 1.390 . S
C899 H892 0.950 . S
C899 C896 1.387 . S
C900 C901 1.387 . S
C900 H904 0.950 . S
C900 C909 1.390 . S
C901 C900 1.387 . S
C901 C903 1.387 . S
H902 C909 0.950 . S
C903 C901 1.387 . S
C903 C905 1.390 . S
C903 H907 0.950 . S
H904 C900 0.950 . S
C905 C903 1.390 . S
C905 C906 1.387 . S
C905 H908 0.950 . S
C906 C905 1.387 . S
C906 C909 1.387 . S
H907 C903 0.950 . S
H908 C905 0.950 . S
C909 C900 1.390 . S
C909 H902 0.950 . S
C909 C906 1.387 . S
C910 C911 1.387 . S
C910 H914 0.950 . S
C910 C919 1.390 . S
C911 C910 1.387 . S
C911 C913 1.387 . S
H912 C919 0.950 . S
C913 C911 1.387 . S
C913 C915 1.390 . S
C913 H917 0.950 . S
H914 C910 0.950 . S
C915 C913 1.390 . S
C915 C916 1.387 . S
C915 H918 0.950 . S
C916 C915 1.387 . S
C916 C919 1.387 . S
H917 C913 0.950 . S
H918 C915 0.950 . S
C919 C910 1.390 . S
C919 H912 0.950 . S
C919 C916 1.387 . S
C920 C921 1.387 . S
C920 H924 0.950 . S
C920 C929 1.390 . S
C921 C920 1.387 . S
C921 C923 1.387 . S
H922 C929 0.950 . S
C923 C921 1.387 . S
C923 C925 1.390 . S
C923 H927 0.950 . S
H924 C920 0.950 . S
C925 C923 1.390 . S
C925 C926 1.387 . S
C925 H928 0.950 1_455 S
C926 C925 1.387 . S
C926 C929 1.387 . S
H927 C923 0.950 . S
H928 C925 0.950 1_655 S
C929 C920 1.390 . S
C929 H922 0.950 . S
C929 C926 1.387 . S
C930 C931 1.387 . S
C930 H934 0.950 . S
C930 C939 1.390 . S
C931 C930 1.387 . S
C931 C933 1.387 . S
H932 C939 0.950 . S
C933 C931 1.387 . S
C933 C935 1.390 . S
C933 H937 0.950 . S
H934 C930 0.950 . S
C935 C933 1.390 . S
C935 C936 1.387 . S
C935 H938 0.950 . S
C936 C935 1.387 . S
C936 C939 1.387 . S
H937 C933 0.950 . S
H938 C935 0.950 . S
C939 C930 1.390 . S
C939 H932 0.950 . S
C939 C936 1.387 . S
C940 C941 1.387 . S
C940 H944 0.950 . S
C940 C949 1.390 . S
C941 C940 1.387 . S
C941 C943 1.387 . S
H942 C949 0.950 1_554 S
C943 C941 1.387 . S
C943 C945 1.390 . S
C943 H947 0.950 . S
H944 C940 0.950 . S
C945 C943 1.390 . S
C945 C946 1.387 . S
C945 H948 0.950 . S
C946 C945 1.387 . S
C946 C949 1.387 . S
H947 C943 0.950 . S
H948 C945 0.950 . S
C949 C940 1.390 . S
C949 H942 0.950 1_556 S
C949 C946 1.387 . S
C950 C951 1.387 . S
C950 H954 0.950 . S
C950 C959 1.390 . S
C951 C950 1.387 . S
C951 C953 1.387 . S
H952 C959 0.950 . S
C953 C951 1.387 . S
C953 C955 1.390 . S
C953 H957 0.950 . S
H954 C950 0.950 . S
C955 C953 1.390 . S
C955 C956 1.387 . S
C955 H958 0.950 . S
C956 C955 1.387 . S
C956 C959 1.387 . S
H957 C953 0.950 . S
H958 C955 0.950 . S
C959 C950 1.390 . S
C959 H952 0.950 . S
C959 C956 1.387 . S
C960 C961 1.387 . S
C960 H964 0.950 . S
C960 C969 1.390 . S
C961 C960 1.387 . S
C961 C963 1.387 1_545 S
H962 C969 0.950 . S
C963 C961 1.387 1_565 S
C963 C965 1.390 . S
C963 H967 0.950 . S
H964 C960 0.950 . S
C965 C963 1.390 . S
C965 C966 1.387 1_565 S
C965 H968 0.950 . S
C966 C965 1.387 1_545 S
C966 C969 1.387 . S
H967 C963 0.950 . S
H968 C965 0.950 . S
C969 C960 1.390 . S
C969 H962 0.950 . S
C969 C966 1.387 . S
C970 C971 1.387 . S
C970 H974 0.950 . S
C970 C979 1.390 . S
C971 C970 1.387 . S
C971 C973 1.387 . S
H972 C979 0.950 . S
C973 C971 1.387 . S
C973 C975 1.390 . S
C973 H977 0.950 . S
H974 C970 0.950 . S
C975 C973 1.390 . S
C975 C976 1.387 . S
C975 H978 0.950 . S
C976 C975 1.387 . S
C976 C979 1.387 . S
H977 C973 0.950 . S
H978 C975 0.950 . S
C979 C970 1.390 . S
C979 H972 0.950 . S
C979 C976 1.387 . S
C980 C981 1.387 . S
C980 H984 0.950 . S
C980 C989 1.390 . S
C981 C980 1.387 . S
C981 C983 1.387 1_545 S
H982 C989 0.950 . S
C983 C981 1.387 1_565 S
C983 C985 1.390 . S
C983 H987 0.950 . S
H984 C980 0.950 . S
C985 C983 1.390 . S
C985 C986 1.387 1_565 S
C985 H988 0.950 . S
C986 C985 1.387 1_545 S
C986 C989 1.387 . S
H987 C983 0.950 . S
H988 C985 0.950 . S
C989 C980 1.390 . S
C989 H982 0.950 . S
C989 C986 1.387 . S
C990 C991 1.387 . S
C990 H994 0.950 . S
C990 C999 1.390 . S
C991 C990 1.387 . S
C991 C993 1.387 . S
H992 C999 0.950 . S
C993 C991 1.387 . S
C993 C995 1.390 . S
C993 H997 0.950 . S
H994 C990 0.950 . S
C995 C993 1.390 . S
C995 C996 1.387 . S
C995 H998 0.950 . S
C996 C995 1.387 . S
C996 C999 1.387 . S
H997 C993 0.950 . S
H998 C995 0.950 . S
C999 C990 1.390 . S
C999 H992 0.950 . S
C999 C996 1.387 . S
C1000 C1001 1.387 . S
C1000 H1004 0.922 1_545 S
C1000 C1009 1.390 . S
C1001 C1000 1.387 . S
C1001 C1003 1.387 . S
H1002 C1009 0.950 . S
C1003 C1001 1.387 . S
C1003 C1005 1.390 . S
C1003 H1007 0.950 . S
H1004 C1000 0.922 1_565 S
C1005 C1003 1.390 . S
C1005 C1006 1.387 . S
C1005 H1008 0.950 . S
C1006 C1005 1.387 . S
C1006 C1009 1.387 . S
H1007 C1003 0.950 . S
H1008 C1005 0.950 . S
C1009 C1000 1.390 . S
C1009 H1002 0.950 . S
C1009 C1006 1.387 . S
C1010 C1011 1.387 . S
C1010 H1014 0.950 . S
C1010 C1019 1.390 . S
C1011 C1010 1.387 . S
C1011 C1013 1.387 . S
H1012 C1019 0.950 . S
C1013 C1011 1.387 . S
C1013 C1015 1.390 . S
C1013 H1017 0.950 . S
H1014 C1010 0.950 . S
C1015 C1013 1.390 . S
C1015 C1016 1.387 . S
C1015 H1018 0.950 . S
C1016 C1015 1.387 . S
C1016 C1019 1.387 . S
H1017 C1013 0.950 . S
H1018 C1015 0.950 . S
C1019 C1010 1.390 . S
C1019 H1012 0.950 . S
C1019 C1016 1.387 . S
C1020 C1021 1.387 . S
C1020 H1024 0.950 . S
C1020 C1029 1.390 . S
C1021 C1020 1.387 . S
C1021 C1023 1.387 1_545 S
H1022 C1029 0.950 . S
C1023 C1021 1.387 1_565 S
C1023 C1025 1.390 . S
C1023 H1027 0.950 . S
H1024 C1020 0.950 . S
C1025 C1023 1.390 . S
C1025 C1026 1.387 . S
C1025 H1028 0.950 . S
C1026 C1025 1.387 . S
C1026 C1029 1.387 1_565 S
H1027 C1023 0.950 . S
H1028 C1025 0.950 . S
C1029 C1020 1.390 . S
C1029 H1022 0.950 . S
C1029 C1026 1.387 1_545 S
C1030 C1031 1.387 . S
C1030 H1034 0.950 . S
C1030 C1039 1.390 . S
C1031 C1030 1.387 . S
C1031 C1033 1.387 . S
H1032 C1039 0.950 . S
C1033 C1031 1.387 . S
C1033 C1035 1.390 . S
C1033 H1037 0.950 . S
H1034 C1030 0.950 . S
C1035 C1033 1.390 . S
C1035 C1036 1.387 . S
C1035 H1038 0.950 . S
C1036 C1035 1.387 . S
C1036 C1039 1.387 . S
H1037 C1033 0.950 . S
H1038 C1035 0.950 . S
C1039 C1030 1.390 . S
C1039 H1032 0.950 . S
C1039 C1036 1.387 . S
C1040 C1041 1.387 . S
C1040 H1044 0.950 . S
C1040 C1049 1.390 . S
C1041 C1040 1.387 . S
C1041 C1043 1.387 . S
H1042 C1049 0.950 . S
C1043 C1041 1.387 . S
C1043 C1045 1.390 . S
C1043 H1047 0.949 . S
H1044 C1040 0.950 . S
C1045 C1043 1.390 . S
C1045 C1046 1.387 . S
C1045 H1048 0.950 1_554 S
C1046 C1045 1.387 . S
C1046 C1049 1.387 . S
H1047 C1043 0.949 . S
H1048 C1045 0.950 1_556 S
C1049 C1040 1.390 . S
C1049 H1042 0.950 . S
C1049 C1046 1.387 . S
C1050 C1051 1.387 . S
C1050 H1054 0.950 . S
C1050 C1059 1.390 . S
C1051 C1050 1.387 . S
C1051 C1053 1.387 . S
H1052 C1059 0.950 . S
C1053 C1051 1.387 . S
C1053 C1055 1.390 . S
C1053 H1057 0.950 . S
H1054 C1050 0.950 . S
C1055 C1053 1.390 . S
C1055 C1056 1.387 . S
C1055 H1058 0.950 . S
C1056 C1055 1.387 . S
C1056 C1059 1.387 . S
H1057 C1053 0.950 . S
H1058 C1055 0.950 . S
C1059 C1050 1.390 . S
C1059 H1052 0.950 . S
C1059 C1056 1.387 . S
C1060 C1061 1.387 . S
C1060 H1064 0.950 . S
C1060 C1069 1.390 . S
C1061 C1060 1.387 . S
C1061 C1063 1.387 . S
H1062 C1069 0.950 . S
C1063 C1061 1.387 . S
C1063 C1065 1.390 . S
C1063 H1067 0.950 . S
H1064 C1060 0.950 . S
C1065 C1063 1.390 . S
C1065 C1066 1.387 . S
C1065 H1068 0.950 . S
C1066 C1065 1.387 . S
C1066 C1069 1.387 . S
H1067 C1063 0.950 . S
H1068 C1065 0.950 . S
C1069 C1060 1.390 . S
C1069 H1062 0.950 . S
C1069 C1066 1.387 . S
C1070 C1071 1.387 . S
C1070 H1074 0.950 . S
C1070 C1079 1.390 . S
C1071 C1070 1.387 . S
C1071 C1073 1.387 . S
H1072 C1079 0.950 . S
C1073 C1071 1.387 . S
C1073 C1075 1.390 . S
C1073 H1077 0.950 . S
H1074 C1070 0.950 . S
C1075 C1073 1.390 . S
C1075 C1076 1.387 . S
C1075 H1078 0.950 . S
C1076 C1075 1.387 . S
C1076 C1079 1.387 . S
H1077 C1073 0.950 . S
H1078 C1075 0.950 . S
C1079 C1070 1.390 . S
C1079 H1072 0.950 . S
C1079 C1076 1.387 . S
C1080 C1081 1.387 . S
C1080 H1084 0.950 . S
C1080 C1089 1.390 . S
C1081 C1080 1.387 . S
C1081 C1083 1.387 . S
H1082 C1089 0.950 . S
C1083 C1081 1.387 . S
C1083 C1085 1.390 . S
C1083 H1087 0.950 . S
H1084 C1080 0.950 . S
C1085 C1083 1.390 . S
C1085 C1086 1.387 . S
C1085 H1088 0.950 . S
C1086 C1085 1.387 . S
C1086 C1089 1.387 . S
H1087 C1083 0.950 . S
H1088 C1085 0.950 . S
C1089 C1080 1.390 . S
C1089 H1082 0.950 . S
C1089 C1086 1.387 . S
C1090 C1091 1.387 . S
C1090 H1094 0.950 . S
C1090 C1099 1.390 . S
C1091 C1090 1.387 . S
C1091 C1093 1.375 1_565 S
H1092 C1099 0.950 . S
C1093 C1091 1.375 1_545 S
C1093 C1095 1.393 . S
C1093 H1097 0.960 . S
H1094 C1090 0.950 . S
C1095 C1093 1.393 . S
C1095 C1096 1.387 1_545 S
C1095 H1098 0.950 . S
C1096 C1095 1.387 1_565 S
C1096 C1099 1.387 . S
H1097 C1093 0.960 . S
H1098 C1095 0.950 . S
C1099 C1090 1.390 . S
C1099 H1092 0.950 . S
C1099 C1096 1.387 . S
C1100 C1101 1.387 . S
C1100 H1104 0.950 . S
C1100 C1109 1.390 . S
C1101 C1100 1.387 . S
C1101 C1103 1.387 . S
H1102 C1109 0.950 . S
C1103 C1101 1.387 . S
C1103 C1105 1.390 . S
C1103 H1107 0.950 . S
H1104 C1100 0.950 . S
C1105 C1103 1.390 . S
C1105 C1106 1.387 . S
C1105 H1108 0.950 . S
C1106 C1105 1.387 . S
C1106 C1109 1.387 . S
H1107 C1103 0.950 . S
H1108 C1105 0.950 . S
C1109 C1100 1.390 . S
C1109 H1102 0.950 . S
C1109 C1106 1.387 . S
C1110 C1111 1.387 . S
C1110 H1114 0.950 . S
C1110 C1119 1.390 . S
C1111 C1110 1.387 . S
C1111 C1113 1.387 . S
H1112 C1119 0.950 . S
C1113 C1111 1.387 . S
C1113 C1115 1.390 . S
C1113 H1117 0.950 . S
H1114 C1110 0.950 . S
C1115 C1113 1.390 . S
C1115 C1116 1.387 . S
C1115 H1118 0.950 . S
C1116 C1115 1.387 . S
C1116 C1119 1.387 . S
H1117 C1113 0.950 . S
H1118 C1115 0.950 . S
C1119 C1110 1.390 . S
C1119 H1112 0.950 . S
C1119 C1116 1.387 . S
C1120 C1121 1.387 . S
C1120 H1124 0.943 1_455 S
C1120 C1129 1.390 . S
C1121 C1120 1.387 . S
C1121 C1123 1.387 . S
H1122 C1129 0.950 1_554 S
C1123 C1121 1.387 . S
C1123 C1125 1.390 . S
C1123 H1127 0.950 . S
H1124 C1120 0.943 1_655 S
C1125 C1123 1.390 . S
C1125 C1126 1.387 . S
C1125 H1128 0.950 . S
C1126 C1125 1.387 . S
C1126 C1129 1.387 . S
H1127 C1123 0.950 . S
H1128 C1125 0.950 . S
C1129 C1120 1.390 . S
C1129 H1122 0.950 1_556 S
C1129 C1126 1.387 . S
C1130 C1131 1.387 . S
C1130 H1134 0.950 . S
C1130 C1139 1.390 . S
C1131 C1130 1.387 . S
C1131 C1133 1.387 . S
H1132 C1139 0.950 . S
C1133 C1131 1.387 . S
C1133 C1135 1.390 . S
C1133 H1137 0.950 . S
H1134 C1130 0.950 . S
C1135 C1133 1.390 . S
C1135 C1136 1.387 . S
C1135 H1138 0.950 . S
C1136 C1135 1.387 . S
C1136 C1139 1.387 . S
H1137 C1133 0.950 . S
H1138 C1135 0.950 . S
C1139 C1130 1.390 . S
C1139 H1132 0.950 . S
C1139 C1136 1.387 . S
C1140 C1141 1.387 . S
C1140 H1144 0.950 . S
C1140 C1149 1.390 . S
C1141 C1140 1.387 . S
C1141 C1143 1.387 . S
H1142 C1149 0.950 . S
C1143 C1141 1.387 . S
C1143 C1145 1.390 . S
C1143 H1147 0.950 . S
H1144 C1140 0.950 . S
C1145 C1143 1.390 . S
C1145 C1146 1.387 . S
C1145 H1148 0.950 . S
C1146 C1145 1.387 . S
C1146 C1149 1.387 . S
H1147 C1143 0.950 . S
H1148 C1145 0.950 . S
C1149 C1140 1.390 . S
C1149 H1142 0.950 . S
C1149 C1146 1.387 . S
C1150 C1151 1.387 . S
C1150 H1154 0.950 . S
C1150 C1159 1.390 . S
C1151 C1150 1.387 . S
C1151 C1153 1.387 . S
H1152 C1159 0.950 . S
C1153 C1151 1.387 . S
C1153 C1155 1.390 . S
C1153 H1157 0.950 . S
H1154 C1150 0.950 . S
C1155 C1153 1.390 . S
C1155 C1156 1.387 . S
C1155 H1158 0.950 . S
C1156 C1155 1.387 . S
C1156 C1159 1.387 . S
H1157 C1153 0.950 . S
H1158 C1155 0.950 . S
C1159 C1150 1.390 . S
C1159 H1152 0.950 . S
C1159 C1156 1.387 . S
C1160 C1161 1.387 . S
C1160 H1164 0.950 . S
C1160 C1169 1.390 . S
C1161 C1160 1.387 . S
C1161 C1163 1.387 . S
H1162 C1169 0.950 . S
C1163 C1161 1.387 . S
C1163 C1165 1.390 . S
C1163 H1167 0.950 . S
H1164 C1160 0.950 . S
C1165 C1163 1.390 . S
C1165 C1166 1.387 . S
C1165 H1168 0.950 . S
C1166 C1165 1.387 . S
C1166 C1169 1.387 . S
H1167 C1163 0.950 . S
H1168 C1165 0.950 . S
C1169 C1160 1.390 . S
C1169 H1162 0.950 . S
C1169 C1166 1.387 . S
C1170 C1171 1.387 . S
C1170 H1174 0.950 . S
C1170 C1179 1.390 . S
C1171 C1170 1.387 . S
C1171 C1173 1.387 . S
H1172 C1179 0.950 . S
C1173 C1171 1.387 . S
C1173 C1175 1.390 . S
C1173 H1177 0.950 . S
H1174 C1170 0.950 . S
C1175 C1173 1.390 . S
C1175 C1176 1.387 . S
C1175 H1178 0.950 . S
C1176 C1175 1.387 . S
C1176 C1179 1.387 . S
H1177 C1173 0.950 . S
H1178 C1175 0.950 . S
C1179 C1170 1.390 . S
C1179 H1172 0.950 . S
C1179 C1176 1.387 . S
C1180 C1181 1.387 . S
C1180 H1184 0.950 . S
C1180 C1189 1.390 . S
C1181 C1180 1.387 . S
C1181 C1183 1.387 . S
H1182 C1189 0.950 . S
C1183 C1181 1.387 . S
C1183 C1185 1.390 . S
C1183 H1187 0.950 . S
H1184 C1180 0.950 . S
C1185 C1183 1.390 . S
C1185 C1186 1.387 . S
C1185 H1188 0.950 . S
C1186 C1185 1.387 . S
C1186 C1189 1.387 . S
H1187 C1183 0.950 . S
H1188 C1185 0.950 . S
C1189 C1180 1.390 . S
C1189 H1182 0.950 . S
C1189 C1186 1.387 . S
C1190 C1191 1.387 . S
C1190 H1194 0.950 . S
C1190 C1199 1.390 . S
C1191 C1190 1.387 . S
C1191 C1193 1.387 . S
H1192 C1199 0.950 . S
C1193 C1191 1.387 . S
C1193 C1195 1.390 . S
C1193 H1197 0.950 . S
H1194 C1190 0.950 . S
C1195 C1193 1.390 . S
C1195 C1196 1.387 . S
C1195 H1198 0.950 . S
C1196 C1195 1.387 . S
C1196 C1199 1.387 . S
H1197 C1193 0.950 . S
H1198 C1195 0.950 . S
C1199 C1190 1.390 . S
C1199 H1192 0.950 . S
C1199 C1196 1.387 . S
C1200 C1201 1.387 . S
C1200 H1204 0.950 1_545 S
C1200 C1209 1.390 . S
C1201 C1200 1.387 . S
C1201 C1203 1.387 . S
H1202 C1209 0.950 . S
C1203 C1201 1.387 . S
C1203 C1205 1.390 1_655 S
C1203 H1207 0.950 . S
H1204 C1200 0.950 1_565 S
C1205 C1203 1.390 1_455 S
C1205 C1206 1.387 1_455 S
C1205 H1208 0.950 . S
C1206 C1205 1.387 1_655 S
C1206 C1209 1.387 . S
H1207 C1203 0.950 . S
H1208 C1205 0.950 . S
C1209 C1200 1.390 . S
C1209 H1202 0.950 . S
C1209 C1206 1.387 . S
C1210 C1211 1.387 . S
C1210 H1214 0.950 . S
C1210 C1219 1.390 . S
C1211 C1210 1.387 . S
C1211 C1213 1.387 . S
H1212 C1219 0.950 . S
C1213 C1211 1.387 . S
C1213 C1215 1.390 . S
C1213 H1217 0.950 . S
H1214 C1210 0.950 . S
C1215 C1213 1.390 . S
C1215 C1216 1.387 . S
C1215 H1218 0.950 . S
C1216 C1215 1.387 . S
C1216 C1219 1.387 . S
H1217 C1213 0.950 . S
H1218 C1215 0.950 . S
C1219 C1210 1.390 . S
C1219 H1212 0.950 . S
C1219 C1216 1.387 . S
C1220 C1221 1.387 1_565 S
C1220 H1224 0.950 . S
C1220 C1229 1.390 . S
C1221 C1220 1.387 1_545 S
C1221 C1223 1.387 . S
H1222 C1229 0.950 . S
C1223 C1221 1.387 . S
C1223 C1225 1.390 . S
C1223 H1227 0.950 . S
H1224 C1220 0.950 . S
C1225 C1223 1.390 . S
C1225 C1226 1.387 . S
C1225 H1228 0.950 . S
C1226 C1225 1.387 . S
C1226 C1229 1.387 1_545 S
H1227 C1223 0.950 . S
H1228 C1225 0.950 . S
C1229 C1220 1.390 . S
C1229 H1222 0.950 . S
C1229 C1226 1.387 1_565 S
C1230 C1231 1.387 . S
C1230 H1234 0.950 . S
C1230 C1239 1.390 . S
C1231 C1230 1.387 . S
C1231 C1233 1.387 . S
H1232 C1239 0.950 . S
C1233 C1231 1.387 . S
C1233 C1235 1.390 . S
C1233 H1237 0.950 . S
H1234 C1230 0.950 . S
C1235 C1233 1.390 . S
C1235 C1236 1.387 . S
C1235 H1238 0.950 . S
C1236 C1235 1.387 . S
C1236 C1239 1.387 . S
H1237 C1233 0.950 . S
H1238 C1235 0.950 . S
C1239 C1230 1.390 . S
C1239 H1232 0.950 . S
C1239 C1236 1.387 . S
C1240 C1241 1.387 1_545 S
C1240 H1244 0.950 . S
C1240 C1249 1.390 1_545 S
C1241 C1240 1.387 1_565 S
C1241 C1243 1.387 . S
H1242 C1249 0.950 1_545 S
C1243 C1241 1.387 . S
C1243 C1245 1.390 . S
C1243 H1247 0.950 . S
H1244 C1240 0.950 . S
C1245 C1243 1.390 . S
C1245 C1246 1.387 . S
C1245 H1248 0.950 1_655 S
C1246 C1245 1.387 . S
C1246 C1249 1.387 . S
H1247 C1243 0.950 . S
H1248 C1245 0.950 1_455 S
C1249 C1240 1.390 1_565 S
C1249 H1242 0.950 1_565 S
C1249 C1246 1.387 . S
C1250 C1251 1.387 . S
C1250 H1254 0.950 . S
C1250 C1259 1.390 . S
C1251 C1250 1.387 . S
C1251 C1253 1.387 . S
H1252 C1259 0.950 . S
C1253 C1251 1.387 . S
C1253 C1255 1.390 . S
C1253 H1257 0.950 . S
H1254 C1250 0.950 . S
C1255 C1253 1.390 . S
C1255 C1256 1.387 . S
C1255 H1258 0.950 . S
C1256 C1255 1.387 . S
C1256 C1259 1.387 . S
H1257 C1253 0.950 . S
H1258 C1255 0.950 . S
C1259 C1250 1.390 . S
C1259 H1252 0.950 . S
C1259 C1256 1.387 . S
C1260 C1261 1.387 . S
C1260 H1264 0.950 1_545 S
C1260 C1269 1.390 . S
C1261 C1260 1.387 . S
C1261 C1263 1.387 . S
H1262 C1269 0.950 . S
C1263 C1261 1.387 . S
C1263 C1265 1.390 . S
C1263 H1267 0.950 . S
H1264 C1260 0.950 1_565 S
C1265 C1263 1.390 . S
C1265 C1266 1.387 . S
C1265 H1268 0.950 . S
C1266 C1265 1.387 . S
C1266 C1269 1.387 . S
H1267 C1263 0.950 . S
H1268 C1265 0.950 . S
C1269 C1260 1.390 . S
C1269 H1262 0.950 . S
C1269 C1266 1.387 . S
C1270 C1271 1.387 . S
C1270 H1274 0.950 . S
C1270 C1279 1.390 . S
C1271 C1270 1.387 . S
C1271 C1273 1.387 . S
H1272 C1279 0.950 . S
C1273 C1271 1.387 . S
C1273 C1275 1.390 . S
C1273 H1277 0.950 . S
H1274 C1270 0.950 . S
C1275 C1273 1.390 . S
C1275 C1276 1.387 . S
C1275 H1278 0.950 . S
C1276 C1275 1.387 . S
C1276 C1279 1.387 . S
H1277 C1273 0.950 . S
H1278 C1275 0.950 . S
C1279 C1270 1.390 . S
C1279 H1272 0.950 . S
C1279 C1276 1.387 . S
C1280 C1281 1.387 1_545 S
C1280 H1284 0.950 . S
C1280 C1289 1.390 . S
C1281 C1280 1.387 1_565 S
C1281 C1283 1.387 . S
H1282 C1289 0.950 . S
C1283 C1281 1.387 . S
C1283 C1285 1.390 . S
C1283 H1287 0.950 . S
H1284 C1280 0.950 . S
C1285 C1283 1.390 . S
C1285 C1286 1.387 . S
C1285 H1288 0.950 . S
C1286 C1285 1.387 . S
C1286 C1289 1.387 1_565 S
H1287 C1283 0.950 . S
H1288 C1285 0.950 . S
C1289 C1280 1.390 . S
C1289 H1282 0.950 . S
C1289 C1286 1.387 1_545 S
C1290 C1291 1.387 . S
C1290 H1294 0.950 . S
C1290 C1299 1.390 . S
C1291 C1290 1.387 . S
C1291 C1293 1.387 1_554 S
H1292 C1299 0.950 . S
C1293 C1291 1.387 1_556 S
C1293 C1295 1.390 . S
C1293 H1297 0.950 . S
H1294 C1290 0.950 . S
C1295 C1293 1.390 . S
C1295 C1296 1.387 1_556 S
C1295 H1298 0.950 . S
C1296 C1295 1.387 1_554 S
C1296 C1299 1.387 . S
H1297 C1293 0.950 . S
H1298 C1295 0.950 . S
C1299 C1290 1.390 . S
C1299 H1292 0.950 . S
C1299 C1296 1.387 . S
C1300 C1301 1.387 . S
C1300 H1304 0.950 . S
C1300 C1309 1.390 . S
C1301 C1300 1.387 . S
C1301 C1303 1.387 . S
H1302 C1309 0.950 . S
C1303 C1301 1.387 . S
C1303 C1305 1.390 . S
C1303 H1307 0.950 . S
H1304 C1300 0.950 . S
C1305 C1303 1.390 . S
C1305 C1306 1.387 . S
C1305 H1308 0.950 . S
C1306 C1305 1.387 . S
C1306 C1309 1.387 . S
H1307 C1303 0.950 . S
H1308 C1305 0.950 . S
C1309 C1300 1.390 . S
C1309 H1302 0.950 . S
C1309 C1306 1.387 . S
C1310 C1311 1.387 . S
C1310 H1314 0.950 . S
C1310 C1319 1.390 . S
C1311 C1310 1.387 . S
C1311 C1313 1.387 . S
H1312 C1319 0.950 . S
C1313 C1311 1.387 . S
C1313 C1315 1.390 . S
C1313 H1317 0.950 . S
H1314 C1310 0.950 . S
C1315 C1313 1.390 . S
C1315 C1316 1.387 . S
C1315 H1318 0.950 . S
C1316 C1315 1.387 . S
C1316 C1319 1.387 . S
H1317 C1313 0.950 . S
H1318 C1315 0.950 . S
C1319 C1310 1.390 . S
C1319 H1312 0.950 . S
C1319 C1316 1.387 . S
C1320 C1321 1.387 . S
C1320 H1324 0.950 . S
C1320 C1329 1.390 . S
C1321 C1320 1.387 . S
C1321 C1323 1.387 . S
H1322 C1329 0.950 . S
C1323 C1321 1.387 . S
C1323 C1325 1.390 . S
C1323 H1327 0.950 . S
H1324 C1320 0.950 . S
C1325 C1323 1.390 . S
C1325 C1326 1.387 . S
C1325 H1328 0.950 . S
C1326 C1325 1.387 . S
C1326 C1329 1.387 . S
H1327 C1323 0.950 . S
H1328 C1325 0.950 . S
C1329 C1320 1.390 . S
C1329 H1322 0.950 . S
C1329 C1326 1.387 . S
C1330 C1331 1.387 . S
C1330 H1334 0.950 . S
C1330 C1339 1.390 . S
C1331 C1330 1.387 . S
C1331 C1333 1.387 . S
H1332 C1339 0.950 . S
C1333 C1331 1.387 . S
C1333 C1335 1.390 . S
C1333 H1337 0.950 . S
H1334 C1330 0.950 . S
C1335 C1333 1.390 . S
C1335 C1336 1.387 . S
C1335 H1338 0.950 . S
C1336 C1335 1.387 . S
C1336 C1339 1.387 . S
H1337 C1333 0.950 . S
H1338 C1335 0.950 . S
C1339 C1330 1.390 . S
C1339 H1332 0.950 . S
C1339 C1336 1.387 . S
C1340 C1341 1.387 . S
C1340 H1344 0.950 . S
C1340 C1349 1.390 . S
C1341 C1340 1.387 . S
C1341 C1343 1.387 . S
H1342 C1349 0.950 . S
C1343 C1341 1.387 . S
C1343 C1345 1.390 . S
C1343 H1347 0.950 . S
H1344 C1340 0.950 . S
C1345 C1343 1.390 . S
C1345 C1346 1.387 . S
C1345 H1348 0.950 . S
C1346 C1345 1.387 . S
C1346 C1349 1.387 . S
H1347 C1343 0.950 . S
H1348 C1345 0.950 . S
C1349 C1340 1.390 . S
C1349 H1342 0.950 . S
C1349 C1346 1.387 . S
C1350 C1351 1.387 . S
C1350 H1354 0.950 . S
C1350 C1359 1.390 . S
C1351 C1350 1.387 . S
C1351 C1353 1.387 . S
H1352 C1359 0.950 . S
C1353 C1351 1.387 . S
C1353 C1355 1.390 . S
C1353 H1357 0.950 . S
H1354 C1350 0.950 . S
C1355 C1353 1.390 . S
C1355 C1356 1.387 . S
C1355 H1358 0.950 . S
C1356 C1355 1.387 . S
C1356 C1359 1.387 . S
H1357 C1353 0.950 . S
H1358 C1355 0.950 . S
C1359 C1350 1.390 . S
C1359 H1352 0.950 . S
C1359 C1356 1.387 . S
C1360 C1361 1.387 . S
C1360 H1364 0.950 . S
C1360 C1369 1.390 . S
C1361 C1360 1.387 . S
C1361 C1363 1.387 . S
H1362 C1369 0.950 . S
C1363 C1361 1.387 . S
C1363 C1365 1.390 . S
C1363 H1367 0.950 . S
H1364 C1360 0.950 . S
C1365 C1363 1.390 . S
C1365 C1366 1.387 . S
C1365 H1368 0.950 . S
C1366 C1365 1.387 . S
C1366 C1369 1.387 . S
H1367 C1363 0.950 . S
H1368 C1365 0.950 . S
C1369 C1360 1.390 . S
C1369 H1362 0.950 . S
C1369 C1366 1.387 . S
C1370 C1371 1.387 . S
C1370 H1374 0.950 . S
C1370 C1379 1.390 . S
C1371 C1370 1.387 . S
C1371 C1373 1.387 . S
H1372 C1379 0.950 . S
C1373 C1371 1.387 . S
C1373 C1375 1.390 . S
C1373 H1377 0.950 . S
H1374 C1370 0.950 . S
C1375 C1373 1.390 . S
C1375 C1376 1.387 . S
C1375 H1378 0.950 . S
C1376 C1375 1.387 . S
C1376 C1379 1.387 . S
H1377 C1373 0.950 . S
H1378 C1375 0.950 . S
C1379 C1370 1.390 . S
C1379 H1372 0.950 . S
C1379 C1376 1.387 . S
C1380 C1381 1.387 . S
C1380 H1384 0.950 . S
C1380 C1389 1.390 . S
C1381 C1380 1.387 . S
C1381 C1383 1.387 . S
H1382 C1389 0.950 . S
C1383 C1381 1.387 . S
C1383 C1385 1.390 . S
C1383 H1387 0.950 . S
H1384 C1380 0.950 . S
C1385 C1383 1.390 . S
C1385 C1386 1.387 . S
C1385 H1388 0.950 . S
C1386 C1385 1.387 . S
C1386 C1389 1.387 . S
H1387 C1383 0.950 . S
H1388 C1385 0.950 . S
C1389 C1380 1.390 . S
C1389 H1382 0.950 . S
C1389 C1386 1.387 . S
C1390 C1391 1.387 . S
C1390 H1394 0.950 . S
C1390 C1399 1.390 . S
C1391 C1390 1.387 . S
C1391 C1393 1.387 . S
H1392 C1399 0.950 . S
C1393 C1391 1.387 . S
C1393 C1395 1.390 . S
C1393 H1397 0.950 . S
H1394 C1390 0.950 . S
C1395 C1393 1.390 . S
C1395 C1396 1.387 . S
C1395 H1398 0.950 . S
C1396 C1395 1.387 . S
C1396 C1399 1.387 . S
H1397 C1393 0.950 . S
H1398 C1395 0.950 . S
C1399 C1390 1.390 . S
C1399 H1392 0.950 . S
C1399 C1396 1.387 . S
C1400 C1401 1.387 . S
C1400 H1404 0.950 . S
C1400 C1409 1.390 . S
C1401 C1400 1.387 . S
C1401 C1403 1.387 . S
H1402 C1409 0.950 . S
C1403 C1401 1.387 . S
C1403 C1405 1.393 . S
C1403 H1407 0.950 . S
H1404 C1400 0.950 . S
C1405 C1403 1.393 . S
C1405 C1406 1.389 . S
C1405 H1408 0.946 1_556 S
C1406 C1405 1.389 . S
C1406 C1409 1.387 . S
H1407 C1403 0.950 . S
H1408 C1405 0.946 1_554 S
C1409 C1400 1.390 . S
C1409 H1402 0.950 . S
C1409 C1406 1.387 . S
C1410 C1411 1.387 1_655 S
C1410 H1414 0.950 1_655 S
C1410 C1419 1.390 . S
C1411 C1410 1.387 1_455 S
C1411 C1413 1.387 1_455 S
H1412 C1419 0.950 . S
C1413 C1411 1.387 1_655 S
C1413 C1415 1.390 . S
C1413 H1417 0.950 1_655 S
H1414 C1410 0.950 1_455 S
C1415 C1413 1.390 . S
C1415 C1416 1.387 . S
C1415 H1418 0.950 . S
C1416 C1415 1.387 . S
C1416 C1419 1.387 . S
H1417 C1413 0.950 1_455 S
H1418 C1415 0.950 . S
C1419 C1410 1.390 . S
C1419 H1412 0.950 . S
C1419 C1416 1.387 . S
C1420 C1421 1.387 . S
C1420 H1424 0.950 . S
C1420 C1429 1.390 . S
C1421 C1420 1.387 . S
C1421 C1423 1.387 . S
H1422 C1429 0.950 . S
C1423 C1421 1.387 . S
C1423 C1425 1.390 . S
C1423 H1427 0.950 . S
H1424 C1420 0.950 . S
C1425 C1423 1.390 . S
C1425 C1426 1.387 . S
C1425 H1428 0.950 . S
C1426 C1425 1.387 . S
C1426 C1429 1.387 . S
H1427 C1423 0.950 . S
H1428 C1425 0.950 . S
C1429 C1420 1.390 . S
C1429 H1422 0.950 . S
C1429 C1426 1.387 . S
C1430 C1431 1.387 . S
C1430 H1434 0.950 . S
C1430 C1439 1.390 . S
C1431 C1430 1.387 . S
C1431 C1433 1.387 . S
H1432 C1439 0.950 . S
C1433 C1431 1.387 . S
C1433 C1435 1.390 . S
C1433 H1437 0.950 . S
H1434 C1430 0.950 . S
C1435 C1433 1.390 . S
C1435 C1436 1.387 . S
C1435 H1438 0.950 . S
C1436 C1435 1.387 . S
C1436 C1439 1.387 . S
H1437 C1433 0.950 . S
H1438 C1435 0.950 . S
C1439 C1430 1.390 . S
C1439 H1432 0.950 . S
C1439 C1436 1.387 . S
C1440 C1441 1.387 . S
C1440 H1444 0.950 . S
C1440 C1449 1.390 . S
C1441 C1440 1.387 . S
C1441 C1443 1.387 . S
H1442 C1449 0.950 . S
C1443 C1441 1.387 . S
C1443 C1445 1.390 . S
C1443 H1447 0.950 . S
H1444 C1440 0.950 . S
C1445 C1443 1.390 . S
C1445 C1446 1.387 . S
C1445 H1448 0.950 . S
C1446 C1445 1.387 . S
C1446 C1449 1.387 . S
H1447 C1443 0.950 . S
H1448 C1445 0.950 . S
C1449 C1440 1.390 . S
C1449 H1442 0.950 . S
C1449 C1446 1.387 . S
C1450 C1451 1.412 . S
C1450 H1454 0.950 . S
C1450 C1459 1.390 . S
C1451 C1450 1.412 . S
C1451 C1453 1.389 . S
H1452 C1459 0.950 . S
C1453 C1451 1.389 . S
C1453 C1455 1.390 . S
C1453 H1457 0.950 1_556 S
H1454 C1450 0.950 . S
C1455 C1453 1.390 . S
C1455 C1456 1.387 . S
C1455 H1458 0.950 . S
C1456 C1455 1.387 . S
C1456 C1459 1.387 . S
H1457 C1453 0.950 1_554 S
H1458 C1455 0.950 . S
C1459 C1450 1.390 . S
C1459 H1452 0.950 . S
C1459 C1456 1.387 . S
C1460 C1461 1.387 . S
C1460 H1464 0.950 . S
C1460 C1469 1.390 . S
C1461 C1460 1.387 . S
C1461 C1463 1.387 . S
H1462 C1469 0.950 . S
C1463 C1461 1.387 . S
C1463 C1465 1.390 1_655 S
C1463 H1467 0.950 . S
H1464 C1460 0.950 . S
C1465 C1463 1.390 1_455 S
C1465 C1466 1.387 1_455 S
C1465 H1468 0.950 . S
C1466 C1465 1.387 1_655 S
C1466 C1469 1.387 . S
H1467 C1463 0.950 . S
H1468 C1465 0.950 . S
C1469 C1460 1.390 . S
C1469 H1462 0.950 . S
C1469 C1466 1.387 . S
C1470 C1471 1.387 . S
C1470 H1474 0.950 . S
C1470 C1479 1.390 . S
C1471 C1470 1.387 . S
C1471 C1473 1.387 . S
H1472 C1479 0.950 . S
C1473 C1471 1.387 . S
C1473 C1475 1.390 . S
C1473 H1477 0.950 . S
H1474 C1470 0.950 . S
C1475 C1473 1.390 . S
C1475 C1476 1.387 . S
C1475 H1478 0.950 . S
C1476 C1475 1.387 . S
C1476 C1479 1.387 . S
H1477 C1473 0.950 . S
H1478 C1475 0.950 . S
C1479 C1470 1.390 . S
C1479 H1472 0.950 . S
C1479 C1476 1.387 . S
C1480 C1481 1.387 . S
C1480 H1484 0.950 . S
C1480 C1489 1.390 . S
C1481 C1480 1.387 . S
C1481 C1483 1.387 . S
H1482 C1489 0.950 . S
C1483 C1481 1.387 . S
C1483 C1485 1.390 . S
C1483 H1487 0.950 . S
H1484 C1480 0.950 . S
C1485 C1483 1.390 . S
C1485 C1486 1.387 . S
C1485 H1488 0.950 . S
C1486 C1485 1.387 . S
C1486 C1489 1.387 . S
H1487 C1483 0.950 . S
H1488 C1485 0.950 . S
C1489 C1480 1.390 . S
C1489 H1482 0.950 . S
C1489 C1486 1.387 . S
C1490 C1491 1.387 . S
C1490 H1494 0.950 . S
C1490 C1499 1.390 . S
C1491 C1490 1.387 . S
C1491 C1493 1.387 . S
H1492 C1499 0.950 . S
C1493 C1491 1.387 . S
C1493 C1495 1.390 . S
C1493 H1497 0.950 . S
H1494 C1490 0.950 . S
C1495 C1493 1.390 . S
C1495 C1496 1.387 . S
C1495 H1498 0.950 . S
C1496 C1495 1.387 . S
C1496 C1499 1.387 . S
H1497 C1493 0.950 . S
H1498 C1495 0.950 . S
C1499 C1490 1.390 . S
C1499 H1492 0.950 . S
C1499 C1496 1.387 . S
C1500 C1501 1.387 . S
C1500 H1504 0.950 . S
C1500 C1509 1.390 . S
C1501 C1500 1.387 . S
C1501 C1503 1.387 . S
H1502 C1509 0.950 . S
C1503 C1501 1.387 . S
C1503 C1505 1.390 . S
C1503 H1507 0.950 . S
H1504 C1500 0.950 . S
C1505 C1503 1.390 . S
C1505 C1506 1.387 . S
C1505 H1508 0.950 . S
C1506 C1505 1.387 . S
C1506 C1509 1.387 . S
H1507 C1503 0.950 . S
H1508 C1505 0.950 . S
C1509 C1500 1.390 . S
C1509 H1502 0.950 . S
C1509 C1506 1.387 . S
C1510 C1511 1.387 . S
C1510 H1514 0.950 . S
C1510 C1519 1.390 . S
C1511 C1510 1.387 . S
C1511 C1513 1.387 . S
H1512 C1519 0.950 . S
C1513 C1511 1.387 . S
C1513 C1515 1.390 . S
C1513 H1517 0.950 . S
H1514 C1510 0.950 . S
C1515 C1513 1.390 . S
C1515 C1516 1.387 . S
C1515 H1518 0.950 . S
C1516 C1515 1.387 . S
C1516 C1519 1.387 . S
H1517 C1513 0.950 . S
H1518 C1515 0.950 . S
C1519 C1510 1.390 . S
C1519 H1512 0.950 . S
C1519 C1516 1.387 . S
C1520 C1521 1.387 . S
C1520 H1524 0.950 . S
C1520 C1529 1.390 . S
C1521 C1520 1.387 . S
C1521 C1523 1.387 . S
H1522 C1529 0.950 . S
C1523 C1521 1.387 . S
C1523 C1525 1.390 . S
C1523 H1527 0.950 . S
H1524 C1520 0.950 . S
C1525 C1523 1.390 . S
C1525 C1526 1.387 . S
C1525 H1528 0.950 . S
C1526 C1525 1.387 . S
C1526 C1529 1.387 . S
H1527 C1523 0.950 . S
H1528 C1525 0.950 . S
C1529 C1520 1.390 . S
C1529 H1522 0.950 . S
C1529 C1526 1.387 . S
C1530 C1531 1.387 . S
C1530 H1534 0.950 . S
C1530 C1539 1.390 . S
C1531 C1530 1.387 . S
C1531 C1533 1.387 . S
H1532 C1539 0.950 . S
C1533 C1531 1.387 . S
C1533 C1535 1.390 . S
C1533 H1537 0.950 . S
H1534 C1530 0.950 . S
C1535 C1533 1.390 . S
C1535 C1536 1.387 . S
C1535 H1538 0.950 . S
C1536 C1535 1.387 . S
C1536 C1539 1.387 . S
H1537 C1533 0.950 . S
H1538 C1535 0.950 . S
C1539 C1530 1.390 . S
C1539 H1532 0.950 . S
C1539 C1536 1.387 . S
C1540 C1541 1.387 . S
C1540 H1544 0.950 . S
C1540 C1549 1.390 . S
C1541 C1540 1.387 . S
C1541 C1543 1.387 . S
H1542 C1549 0.950 . S
C1543 C1541 1.387 . S
C1543 C1545 1.390 . S
C1543 H1547 0.950 . S
H1544 C1540 0.950 . S
C1545 C1543 1.390 . S
C1545 C1546 1.387 . S
C1545 H1548 0.950 . S
C1546 C1545 1.387 . S
C1546 C1549 1.387 . S
H1547 C1543 0.950 . S
H1548 C1545 0.950 . S
C1549 C1540 1.390 . S
C1549 H1542 0.950 . S
C1549 C1546 1.387 . S
C1550 C1551 1.387 . S
C1550 H1554 0.950 . S
C1550 C1559 1.390 . S
C1551 C1550 1.387 . S
C1551 C1553 1.387 . S
H1552 C1559 0.948 . S
C1553 C1551 1.387 . S
C1553 C1555 1.390 . S
C1553 H1557 0.950 . S
H1554 C1550 0.950 . S
C1555 C1553 1.390 . S
C1555 C1556 1.387 . S
C1555 H1558 0.950 . S
C1556 C1555 1.387 . S
C1556 C1559 1.387 . S
H1557 C1553 0.950 . S
H1558 C1555 0.950 . S
C1559 C1550 1.390 . S
C1559 H1552 0.948 . S
C1559 C1556 1.387 . S
C1560 C1561 1.387 . S
C1560 H1564 0.950 . S
C1560 C1569 1.390 . S
C1561 C1560 1.387 . S
C1561 C1563 1.387 . S
H1562 C1569 0.950 . S
C1563 C1561 1.387 . S
C1563 C1565 1.390 . S
C1563 H1567 0.950 . S
H1564 C1560 0.950 . S
C1565 C1563 1.390 . S
C1565 C1566 1.387 . S
C1565 H1568 0.950 . S
C1566 C1565 1.387 . S
C1566 C1569 1.387 . S
H1567 C1563 0.950 . S
H1568 C1565 0.950 . S
C1569 C1560 1.390 . S
C1569 H1562 0.950 . S
C1569 C1566 1.387 . S
C1570 C1571 1.387 . S
C1570 H1574 0.950 . S
C1570 C1579 1.390 . S
C1571 C1570 1.387 . S
C1571 C1573 1.387 . S
H1572 C1579 0.950 1_556 S
C1573 C1571 1.387 . S
C1573 C1575 1.390 . S
C1573 H1577 0.950 . S
H1574 C1570 0.950 . S
C1575 C1573 1.390 . S
C1575 C1576 1.387 . S
C1575 H1578 0.950 . S
C1576 C1575 1.387 . S
C1576 C1579 1.387 . S
H1577 C1573 0.950 . S
H1578 C1575 0.950 . S
C1579 C1570 1.390 . S
C1579 H1572 0.950 1_554 S
C1579 C1576 1.387 . S
C1580 C1581 1.387 . S
C1580 H1584 0.950 . S
C1580 C1589 1.390 . S
C1581 C1580 1.387 . S
C1581 C1583 1.387 . S
H1582 C1589 0.950 . S
C1583 C1581 1.387 . S
C1583 C1585 1.390 . S
C1583 H1587 0.950 . S
H1584 C1580 0.950 . S
C1585 C1583 1.390 . S
C1585 C1586 1.387 . S
C1585 H1588 0.950 . S
C1586 C1585 1.387 . S
C1586 C1589 1.387 . S
H1587 C1583 0.950 . S
H1588 C1585 0.950 . S
C1589 C1580 1.390 . S
C1589 H1582 0.950 . S
C1589 C1586 1.387 . S
C1590 C1591 1.387 . S
C1590 H1594 0.950 . S
C1590 C1599 1.390 . S
C1591 C1590 1.387 . S
C1591 C1593 1.387 . S
H1592 C1599 0.950 . S
C1593 C1591 1.387 . S
C1593 C1595 1.390 . S
C1593 H1597 0.950 . S
H1594 C1590 0.950 . S
C1595 C1593 1.390 . S
C1595 C1596 1.387 . S
C1595 H1598 0.950 . S
C1596 C1595 1.387 . S
C1596 C1599 1.387 . S
H1597 C1593 0.950 . S
H1598 C1595 0.950 . S
C1599 C1590 1.390 . S
C1599 H1592 0.950 . S
C1599 C1596 1.387 . S
C1600 C1601 1.387 . S
C1600 H1604 0.950 . S
C1600 C1609 1.390 . S
C1601 C1600 1.387 . S
C1601 C1603 1.387 . S
H1602 C1609 0.950 . S
C1603 C1601 1.387 . S
C1603 C1605 1.390 . S
C1603 H1607 0.950 . S
H1604 C1600 0.950 . S
C1605 C1603 1.390 . S
C1605 C1606 1.387 . S
C1605 H1608 0.950 . S
C1606 C1605 1.387 . S
C1606 C1609 1.387 . S
H1607 C1603 0.950 . S
H1608 C1605 0.950 . S
C1609 C1600 1.390 . S
C1609 H1602 0.950 . S
C1609 C1606 1.387 . S
C1610 C1611 1.387 . S
C1610 H1614 0.950 . S
C1610 C1619 1.390 . S
C1611 C1610 1.387 . S
C1611 C1613 1.387 . S
H1612 C1619 0.950 . S
C1613 C1611 1.387 . S
C1613 C1615 1.390 . S
C1613 H1617 0.950 . S
H1614 C1610 0.950 . S
C1615 C1613 1.390 . S
C1615 C1616 1.387 . S
C1615 H1618 0.950 . S
C1616 C1615 1.387 . S
C1616 C1619 1.387 . S
H1617 C1613 0.950 . S
H1618 C1615 0.950 . S
C1619 C1610 1.390 . S
C1619 H1612 0.950 . S
C1619 C1616 1.387 . S
C1620 C1621 1.387 1_455 S
C1620 H1624 0.950 . S
C1620 C1629 1.390 . S
C1621 C1620 1.387 1_655 S
C1621 C1623 1.387 . S
H1622 C1629 0.950 . S
C1623 C1621 1.387 . S
C1623 C1625 1.390 . S
C1623 H1627 0.950 . S
H1624 C1620 0.950 . S
C1625 C1623 1.390 . S
C1625 C1626 1.387 . S
C1625 H1628 0.950 . S
C1626 C1625 1.387 . S
C1626 C1629 1.387 1_655 S
H1627 C1623 0.950 . S
H1628 C1625 0.950 . S
C1629 C1620 1.390 . S
C1629 H1622 0.950 . S
C1629 C1626 1.387 1_455 S
C1630 C1631 1.387 . S
C1630 H1634 0.950 . S
C1630 C1639 1.390 . S
C1631 C1630 1.387 . S
C1631 C1633 1.387 . S
H1632 C1639 0.950 . S
C1633 C1631 1.387 . S
C1633 C1635 1.390 . S
C1633 H1637 0.950 . S
H1634 C1630 0.950 . S
C1635 C1633 1.390 . S
C1635 C1636 1.387 . S
C1635 H1638 0.950 . S
C1636 C1635 1.387 . S
C1636 C1639 1.387 . S
H1637 C1633 0.950 . S
H1638 C1635 0.950 . S
C1639 C1630 1.390 . S
C1639 H1632 0.950 . S
C1639 C1636 1.387 . S
C1640 C1641 1.387 . S
C1640 H1644 0.950 . S
C1640 C1649 1.390 . S
C1641 C1640 1.387 . S
C1641 C1643 1.387 . S
H1642 C1649 0.950 . S
C1643 C1641 1.387 . S
C1643 C1645 1.390 . S
C1643 H1647 0.950 . S
H1644 C1640 0.950 . S
C1645 C1643 1.390 . S
C1645 C1646 1.387 . S
C1645 H1648 0.950 . S
C1646 C1645 1.387 . S
C1646 C1649 1.387 . S
H1647 C1643 0.950 . S
H1648 C1645 0.950 . S
C1649 C1640 1.390 . S
C1649 H1642 0.950 . S
C1649 C1646 1.387 . S
C1650 C1651 1.387 . S
C1650 H1654 0.950 . S
C1650 C1659 1.390 . S
C1651 C1650 1.387 . S
C1651 C1653 1.387 . S
H1652 C1659 0.950 . S
C1653 C1651 1.387 . S
C1653 C1655 1.390 . S
C1653 H1657 0.950 . S
H1654 C1650 0.950 . S
C1655 C1653 1.390 . S
C1655 C1656 1.387 . S
C1655 H1658 0.950 . S
C1656 C1655 1.387 . S
C1656 C1659 1.387 . S
H1657 C1653 0.950 . S
H1658 C1655 0.950 . S
C1659 C1650 1.390 . S
C1659 H1652 0.950 . S
C1659 C1656 1.387 . S
C1660 C1661 1.387 . S
C1660 H1664 0.950 . S
C1660 C1669 1.390 . S
C1661 C1660 1.387 . S
C1661 C1663 1.387 . S
H1662 C1669 0.950 . S
C1663 C1661 1.387 . S
C1663 C1665 1.392 . S
C1663 H1667 0.950 1_455 S
H1664 C1660 0.950 . S
C1665 C1663 1.392 . S
C1665 C1666 1.397 . S
C1665 H1668 0.939 1_455 S
C1666 C1665 1.397 . S
C1666 C1669 1.387 . S
H1667 C1663 0.950 1_655 S
H1668 C1665 0.939 1_655 S
C1669 C1660 1.390 . S
C1669 H1662 0.950 . S
C1669 C1666 1.387 . S
C1670 C1671 1.387 . S
C1670 H1674 0.950 . S
C1670 C1679 1.390 . S
C1671 C1670 1.387 . S
C1671 C1673 1.387 . S
H1672 C1679 0.950 . S
C1673 C1671 1.387 . S
C1673 C1675 1.390 . S
C1673 H1677 0.950 . S
H1674 C1670 0.950 . S
C1675 C1673 1.390 . S
C1675 C1676 1.387 . S
C1675 H1678 0.950 . S
C1676 C1675 1.387 . S
C1676 C1679 1.387 . S
H1677 C1673 0.950 . S
H1678 C1675 0.950 . S
C1679 C1670 1.390 . S
C1679 H1672 0.950 . S
C1679 C1676 1.387 . S
C1680 C1681 1.387 . S
C1680 H1684 0.950 . S
C1680 C1689 1.390 . S
C1681 C1680 1.387 . S
C1681 C1683 1.387 . S
H1682 C1689 0.950 . S
C1683 C1681 1.387 . S
C1683 C1685 1.390 . S
C1683 H1687 0.950 . S
H1684 C1680 0.950 . S
C1685 C1683 1.390 . S
C1685 C1686 1.387 . S
C1685 H1688 0.950 . S
C1686 C1685 1.387 . S
C1686 C1689 1.387 . S
H1687 C1683 0.950 . S
H1688 C1685 0.950 . S
C1689 C1680 1.390 . S
C1689 H1682 0.950 . S
C1689 C1686 1.387 . S
C1690 C1691 1.387 . S
C1690 H1694 0.950 . S
C1690 C1699 1.390 . S
C1691 C1690 1.387 . S
C1691 C1693 1.387 . S
H1692 C1699 0.950 . S
C1693 C1691 1.387 . S
C1693 C1695 1.390 . S
C1693 H1697 0.950 . S
H1694 C1690 0.950 . S
C1695 C1693 1.390 . S
C1695 C1696 1.387 . S
C1695 H1698 0.950 . S
C1696 C1695 1.387 . S
C1696 C1699 1.387 . S
H1697 C1693 0.950 . S
H1698 C1695 0.950 . S
C1699 C1690 1.390 . S
C1699 H1692 0.950 . S
C1699 C1696 1.387 . S
C1700 C1701 1.387 . S
C1700 H1704 0.950 . S
C1700 C1709 1.390 . S
C1701 C1700 1.387 . S
C1701 C1703 1.387 . S
H1702 C1709 0.950 . S
C1703 C1701 1.387 . S
C1703 C1705 1.390 . S
C1703 H1707 0.950 . S
H1704 C1700 0.950 . S
C1705 C1703 1.390 . S
C1705 C1706 1.387 . S
C1705 H1708 0.950 . S
C1706 C1705 1.387 . S
C1706 C1709 1.387 . S
H1707 C1703 0.950 . S
H1708 C1705 0.950 . S
C1709 C1700 1.390 . S
C1709 H1702 0.950 . S
C1709 C1706 1.387 . S
C1710 C1711 1.387 . S
C1710 H1714 0.950 . S
C1710 C1719 1.390 . S
C1711 C1710 1.387 . S
C1711 C1713 1.387 . S
H1712 C1719 0.950 . S
C1713 C1711 1.387 . S
C1713 C1715 1.390 . S
C1713 H1717 0.950 . S
H1714 C1710 0.950 . S
C1715 C1713 1.390 . S
C1715 C1716 1.387 . S
C1715 H1718 0.950 . S
C1716 C1715 1.387 . S
C1716 C1719 1.387 . S
H1717 C1713 0.950 . S
H1718 C1715 0.950 . S
C1719 C1710 1.390 . S
C1719 H1712 0.950 . S
C1719 C1716 1.387 . S
C1720 C1721 1.387 . S
C1720 H1724 0.950 . S
C1720 C1729 1.390 . S
C1721 C1720 1.387 . S
C1721 C1723 1.387 . S
H1722 C1729 0.950 . S
C1723 C1721 1.387 . S
C1723 C1725 1.390 . S
C1723 H1727 0.950 . S
H1724 C1720 0.950 . S
C1725 C1723 1.390 . S
C1725 C1726 1.387 . S
C1725 H1728 0.950 . S
C1726 C1725 1.387 . S
C1726 C1729 1.387 . S
H1727 C1723 0.950 . S
H1728 C1725 0.950 . S
C1729 C1720 1.390 . S
C1729 H1722 0.950 . S
C1729 C1726 1.387 . S
C1730 C1731 1.387 . S
C1730 H1734 0.950 . S
C1730 C1739 1.390 . S
C1731 C1730 1.387 . S
C1731 C1733 1.387 . S
H1732 C1739 0.950 . S
C1733 C1731 1.387 . S
C1733 C1735 1.390 . S
C1733 H1737 0.950 . S
H1734 C1730 0.950 . S
C1735 C1733 1.390 . S
C1735 C1736 1.387 . S
C1735 H1738 0.950 . S
C1736 C1735 1.387 . S
C1736 C1739 1.387 . S
H1737 C1733 0.950 . S
H1738 C1735 0.950 . S
C1739 C1730 1.390 . S
C1739 H1732 0.950 . S
C1739 C1736 1.387 . S
C1740 C1741 1.387 . S
C1740 H1744 0.950 . S
C1740 C1749 1.390 . S
C1741 C1740 1.387 . S
C1741 C1743 1.387 . S
H1742 C1749 0.950 . S
C1743 C1741 1.387 . S
C1743 C1745 1.390 . S
C1743 H1747 0.950 . S
H1744 C1740 0.950 . S
C1745 C1743 1.390 . S
C1745 C1746 1.387 . S
C1745 H1748 0.950 . S
C1746 C1745 1.387 . S
C1746 C1749 1.387 . S
H1747 C1743 0.950 . S
H1748 C1745 0.950 . S
C1749 C1740 1.390 . S
C1749 H1742 0.950 . S
C1749 C1746 1.387 . S
C1750 C1751 1.387 . S
C1750 H1754 0.950 . S
C1750 C1759 1.390 . S
C1751 C1750 1.387 . S
C1751 C1753 1.387 . S
H1752 C1759 0.950 . S
C1753 C1751 1.387 . S
C1753 C1755 1.390 . S
C1753 H1757 0.950 . S
H1754 C1750 0.950 . S
C1755 C1753 1.390 . S
C1755 C1756 1.387 . S
C1755 H1758 0.950 . S
C1756 C1755 1.387 . S
C1756 C1759 1.387 . S
H1757 C1753 0.950 . S
H1758 C1755 0.950 . S
C1759 C1750 1.390 . S
C1759 H1752 0.950 . S
C1759 C1756 1.387 . S
C1760 C1761 1.387 . S
C1760 H1764 0.950 . S
C1760 C1769 1.390 . S
C1761 C1760 1.387 . S
C1761 C1763 1.387 . S
H1762 C1769 0.950 . S
C1763 C1761 1.387 . S
C1763 C1765 1.390 . S
C1763 H1767 0.950 . S
H1764 C1760 0.950 . S
C1765 C1763 1.390 . S
C1765 C1766 1.387 . S
C1765 H1768 0.950 . S
C1766 C1765 1.387 . S
C1766 C1769 1.387 . S
H1767 C1763 0.950 . S
H1768 C1765 0.950 . S
C1769 C1760 1.390 . S
C1769 H1762 0.950 . S
C1769 C1766 1.387 . S
C1770 C1771 1.387 . S
C1770 H1774 0.950 . S
C1770 C1779 1.390 . S
C1771 C1770 1.387 . S
C1771 C1773 1.387 . S
H1772 C1779 0.950 . S
C1773 C1771 1.387 . S
C1773 C1775 1.390 . S
C1773 H1777 0.950 . S
H1774 C1770 0.950 . S
C1775 C1773 1.390 . S
C1775 C1776 1.387 . S
C1775 H1778 0.950 . S
C1776 C1775 1.387 . S
C1776 C1779 1.387 . S
H1777 C1773 0.950 . S
H1778 C1775 0.950 . S
C1779 C1770 1.390 . S
C1779 H1772 0.950 . S
C1779 C1776 1.387 . S
C1780 C1781 1.387 . S
C1780 H1784 0.950 . S
C1780 C1789 1.390 . S
C1781 C1780 1.387 . S
C1781 C1783 1.387 . S
H1782 C1789 0.950 . S
C1783 C1781 1.387 . S
C1783 C1785 1.390 . S
C1783 H1787 0.950 . S
H1784 C1780 0.950 . S
C1785 C1783 1.390 . S
C1785 C1786 1.387 . S
C1785 H1788 0.950 . S
C1786 C1785 1.387 . S
C1786 C1789 1.387 . S
H1787 C1783 0.950 . S
H1788 C1785 0.950 . S
C1789 C1780 1.390 . S
C1789 H1782 0.950 . S
C1789 C1786 1.387 . S
C1790 C1791 1.387 1_545 S
C1790 H1794 0.950 . S
C1790 C1799 1.390 . S
C1791 C1790 1.387 1_565 S
C1791 C1793 1.387 . S
H1792 C1799 0.950 . S
C1793 C1791 1.387 . S
C1793 C1795 1.390 1_554 S
C1793 H1797 0.950 1_554 S
H1794 C1790 0.950 . S
C1795 C1793 1.390 1_556 S
C1795 C1796 1.387 1_556 S
C1795 H1798 0.950 . S
C1796 C1795 1.387 1_554 S
C1796 C1799 1.387 1_565 S
H1797 C1793 0.950 1_556 S
H1798 C1795 0.950 . S
C1799 C1790 1.390 . S
C1799 H1792 0.950 . S
C1799 C1796 1.387 1_545 S
C1800 C1801 1.387 . S
C1800 H1804 0.950 . S
C1800 C1809 1.390 . S
C1801 C1800 1.387 . S
C1801 C1803 1.387 . S
H1802 C1809 0.950 . S
C1803 C1801 1.387 . S
C1803 C1805 1.390 . S
C1803 H1807 0.950 . S
H1804 C1800 0.950 . S
C1805 C1803 1.390 . S
C1805 C1806 1.387 . S
C1805 H1808 0.950 . S
C1806 C1805 1.387 . S
C1806 C1809 1.387 . S
H1807 C1803 0.950 . S
H1808 C1805 0.950 . S
C1809 C1800 1.390 . S
C1809 H1802 0.950 . S
C1809 C1806 1.387 . S
C1810 C1811 1.387 . S
C1810 H1814 0.950 1_554 S
C1810 C1819 1.390 . S
C1811 C1810 1.387 . S
C1811 C1813 1.387 . S
H1812 C1819 0.950 . S
C1813 C1811 1.387 . S
C1813 C1815 1.390 . S
C1813 H1817 0.950 . S
H1814 C1810 0.950 1_556 S
C1815 C1813 1.390 . S
C1815 C1816 1.387 . S
C1815 H1818 0.950 . S
C1816 C1815 1.387 . S
C1816 C1819 1.387 . S
H1817 C1813 0.950 . S
H1818 C1815 0.950 . S
C1819 C1810 1.390 . S
C1819 H1812 0.950 . S
C1819 C1816 1.387 . S
C1820 C1821 1.387 . S
C1820 H1824 0.950 . S
C1820 C1829 1.390 . S
C1821 C1820 1.387 . S
C1821 C1823 1.387 . S
H1822 C1829 0.950 . S
C1823 C1821 1.387 . S
C1823 C1825 1.390 . S
C1823 H1827 0.950 . S
H1824 C1820 0.950 . S
C1825 C1823 1.390 . S
C1825 C1826 1.387 . S
C1825 H1828 0.950 . S
C1826 C1825 1.387 . S
C1826 C1829 1.387 . S
H1827 C1823 0.950 . S
H1828 C1825 0.950 . S
C1829 C1820 1.390 . S
C1829 H1822 0.950 . S
C1829 C1826 1.387 . S
C1830 C1831 1.387 . S
C1830 H1834 0.950 . S
C1830 C1839 1.390 . S
C1831 C1830 1.387 . S
C1831 C1833 1.387 . S
H1832 C1839 0.950 . S
C1833 C1831 1.387 . S
C1833 C1835 1.390 . S
C1833 H1837 0.950 . S
H1834 C1830 0.950 . S
C1835 C1833 1.390 . S
C1835 C1836 1.387 . S
C1835 H1838 0.950 . S
C1836 C1835 1.387 . S
C1836 C1839 1.387 . S
H1837 C1833 0.950 . S
H1838 C1835 0.950 . S
C1839 C1830 1.390 . S
C1839 H1832 0.950 . S
C1839 C1836 1.387 . S
C886 C353 1.174 . S
C881 C4 1.078 . S
C891 C19 1.524 . S
C896 C399 1.860 . S
C901 C39 0.938 . S
C906 C408 0.930 . S
C916 C446 1.652 . S
C911 C54 1.688 . S
C921 C18 1.597 . S
C926 C480 1.638 . S
C936 C510 0.945 . S
C931 C40 0.947 . S
C946 C569 1.597 1_556 S
C941 C53 1.599 . S
C951 C5 0.799 . S
C956 C582 1.178 . S
C961 C61 1.068 . S
C966 C365 1.386 . S
C971 C74 1.267 . S
C976 C383 1.329 . S
C986 C404 1.628 . S
C981 C89 1.249 . S
C996 C442 1.075 . S
C991 C109 1.153 . S
C1001 C68 1.329 . S
C1006 C476 1.286 . S
C1016 C506 1.674 . S
C1011 C81 1.713 . S
C1026 C553 1.295 . S
C1021 C96 1.332 . S
C1036 C578 0.915 . S
C1031 C102 0.910 . S
C1046 C349 0.925 . S
C1041 C103 0.805 . S
C1056 C608 1.665 . S
C1051 C117 1.491 . S
C1061 C130 1.510 . S
C1066 C650 1.626 . S
C1076 C693 0.567 . S
C1071 C152 0.554 . S
C1081 C60 1.421 . S
C1086 C574 1.479 . S
C1096 C412 1.614 . S
C1091 C82 1.623 . S
C1101 C137 1.373 . S
C1106 C710 1.411 . S
C1116 C761 1.591 . S
C1111 C165 1.568 . S
C1121 C172 1.187 1_455 S
C1126 C344 1.174 1_556 S
C1136 C744 1.948 . S
C1131 C194 1.964 . S
C1141 C207 0.916 . S
C1146 C417 0.919 . S
C1151 C215 1.511 . S
C1156 C727 1.725 . S
C1166 C489 1.698 . S
C1161 C186 1.706 . S
C1176 C655 0.965 . S
C1171 C201 0.886 . S
C1186 C540 1.636 . S
C1181 C221 1.625 . S
C1196 C795 1.177 . S
C1191 C180 1.177 . S
C1206 C336 1.418 1_655 S
C1201 C236 1.462 . S
C1211 C242 1.418 . S
C1216 C748 1.377 . S
C1226 C433 1.766 . S
C1221 C264 1.817 . S
C1231 C277 1.108 . S
C1236 C723 1.156 . S
C1241 C229 1.177 1_565 S
C1246 C485 1.225 . S
C1251 C249 1.661 . S
C1256 C671 1.669 . S
C1266 C544 1.302 . S
C1261 C257 1.246 . S
C1271 C270 0.903 . S
C1276 C791 0.906 . S
C1281 C278 0.908 . S
C1286 C340 0.917 . S
C1291 C292 1.703 . S
C1296 C637 1.719 . S
C1301 C298 1.790 . S
C1306 C523 1.717 . S
C1311 C313 0.662 . S
C1316 C684 0.609 . S
C1326 C807 1.501 . S
C1321 C228 1.554 . S
C1336 C421 1.605 . S
C1331 C243 1.594 . S
C1346 C467 1.407 . S
C1341 C305 1.405 . S
C1356 C378 1.594 . S
C1351 C333 1.597 . S
C1361 C32 1.084 . S
C1366 C829 1.178 . S
C1376 C773 1.859 . S
C1371 C47 1.524 . S
C1386 C850 0.930 . S
C1381 C11 0.938 . S
C1391 C26 1.688 . S
C1396 C718 1.654 . S
C1401 C46 1.598 . S
C1406 C616 1.639 1_556 S
C1416 C646 0.944 . S
C1411 C12 0.946 . S
C1426 C705 1.597 . S
C1421 C25 1.598 . S
C1436 C786 1.179 . S
C1431 C33 0.800 . S
C1446 C841 1.384 . S
C1441 C159 1.066 . S
C1451 C116 1.244 1_556 S
C1456 C757 1.332 . S
C1461 C131 1.248 . S
C1466 C846 1.627 1_655 S
C1476 C714 1.069 . S
C1471 C151 1.150 . S
C1486 C612 1.285 . S
C1481 C166 1.328 . S
C1491 C123 1.714 . S
C1496 C642 1.673 . S
C1506 C689 1.295 . S
C1501 C138 1.332 . S
C1511 C144 0.907 . S
C1516 C782 0.912 . S
C1526 C825 0.920 . S
C1521 C145 0.794 . S
C1536 C472 1.665 1_565 S
C1531 C75 1.492 . S
C1546 C514 1.626 . S
C1541 C88 1.509 . S
C1551 C110 0.554 . S
C1556 C557 0.563 . S
C1566 C778 1.479 . S
C1561 C158 1.421 . S
C1571 C124 1.621 . S
C1576 C854 1.613 . S
C1586 C438 1.411 . S
C1581 C95 1.373 . S
C1596 C387 1.592 . S
C1591 C67 1.568 . S
C1601 C200 1.188 . S
C1606 C820 1.175 . S
C1616 C370 1.947 . S
C1611 C222 1.963 . S
C1626 C859 0.920 . S
C1621 C179 0.917 . S
C1631 C187 1.509 . S
C1636 C455 1.723 . S
C1641 C214 1.707 . S
C1646 C625 1.697 . S
C1651 C173 0.883 . S
C1656 C519 0.962 . S
C1661 C193 1.627 . S
C1666 C676 1.638 . S
C1671 C208 1.174 . S
C1676 C591 1.177 . S
C1686 C812 1.418 . S
C1681 C334 1.462 . S
C1691 C284 1.418 . S
C1696 C374 1.374 . S
C1706 C875 1.768 . S
C1701 C306 1.818 . S
C1711 C319 1.110 . S
C1716 C451 1.158 . S
C1721 C327 1.174 . S
C1726 C621 1.227 . S
C1736 C535 1.667 . S
C1731 C291 1.659 . S
C1741 C299 1.242 . S
C1746 C680 1.301 . S
C1756 C587 0.904 . S
C1751 C312 0.901 . S
C1766 C816 0.910 . S
C1761 C320 0.903 . S
C1776 C501 1.720 . S
C1771 C250 1.705 . S
C1781 C256 1.790 . S
C1786 C659 1.719 . S
C1796 C548 0.609 1_565 S
C1791 C271 0.657 . S
C1806 C603 1.500 . S
C1801 C326 1.554 . S
C1811 C285 1.593 1_554 S
C1816 C863 1.608 . S
C1826 C739 1.407 . S
C1821 C263 1.405 . S
C1836 C752 1.593 . S
C1831 C235 1.596 . S
