# Generated by pormake.
# Topology pyr, (3,6)-cn, num edge types: 1
# Building blocks:
#     Node 0, Type 0, BuildingBlock: OLANEW_clean_sbu_2, # of connection points: 3
#     Node 1, Type 0, BuildingBlock: OLANEW_clean_sbu_2, # of connection points: 3
#     Node 2, Type 0, BuildingBlock: OLANEW_clean_sbu_2, # of connection points: 3
#     Node 3, Type 0, BuildingBlock: OLANEW_clean_sbu_2, # of connection points: 3
#     Node 4, Type 0, BuildingBlock: OLANEW_clean_sbu_2, # of connection points: 3
#     Node 5, Type 0, BuildingBlock: OLANEW_clean_sbu_2, # of connection points: 3
#     Node 6, Type 0, BuildingBlock: OLANEW_clean_sbu_2, # of connection points: 3
#     Node 7, Type 0, BuildingBlock: OLANEW_clean_sbu_2, # of connection points: 3
#     Node 8, Type 1, BuildingBlock: CIFDUS_clean_sbu_1, # of connection points: 6
#     Node 9, Type 1, BuildingBlock: CIFDUS_clean_sbu_1, # of connection points: 6
#     Node 10, Type 1, BuildingBlock: CIFDUS_clean_sbu_1, # of connection points: 6
#     Node 11, Type 1, BuildingBlock: CIFDUS_clean_sbu_1, # of connection points: 6
#     Edge 12, Type (0, 1), BuildingBlock: TEMPAE_clean_linker_10, # of connection points: 2
#     Edge 13, Type (0, 1), BuildingBlock: TEMPAE_clean_linker_10, # of connection points: 2
#     Edge 14, Type (0, 1), BuildingBlock: TEMPAE_clean_linker_10, # of connection points: 2
#     Edge 15, Type (0, 1), BuildingBlock: TEMPAE_clean_linker_10, # of connection points: 2
#     Edge 16, Type (0, 1), BuildingBlock: TEMPAE_clean_linker_10, # of connection points: 2
#     Edge 17, Type (0, 1), BuildingBlock: TEMPAE_clean_linker_10, # of connection points: 2
#     Edge 18, Type (0, 1), BuildingBlock: TEMPAE_clean_linker_10, # of connection points: 2
#     Edge 19, Type (0, 1), BuildingBlock: TEMPAE_clean_linker_10, # of connection points: 2
#     Edge 20, Type (0, 1), BuildingBlock: TEMPAE_clean_linker_10, # of connection points: 2
#     Edge 21, Type (0, 1), BuildingBlock: TEMPAE_clean_linker_10, # of connection points: 2
#     Edge 22, Type (0, 1), BuildingBlock: TEMPAE_clean_linker_10, # of connection points: 2
#     Edge 23, Type (0, 1), BuildingBlock: TEMPAE_clean_linker_10, # of connection points: 2
#     Edge 24, Type (0, 1), BuildingBlock: TEMPAE_clean_linker_10, # of connection points: 2
#     Edge 25, Type (0, 1), BuildingBlock: TEMPAE_clean_linker_10, # of connection points: 2
#     Edge 26, Type (0, 1), BuildingBlock: TEMPAE_clean_linker_10, # of connection points: 2
#     Edge 27, Type (0, 1), BuildingBlock: TEMPAE_clean_linker_10, # of connection points: 2
#     Edge 28, Type (0, 1), BuildingBlock: TEMPAE_clean_linker_10, # of connection points: 2
#     Edge 29, Type (0, 1), BuildingBlock: TEMPAE_clean_linker_10, # of connection points: 2
#     Edge 30, Type (0, 1), BuildingBlock: TEMPAE_clean_linker_10, # of connection points: 2
#     Edge 31, Type (0, 1), BuildingBlock: TEMPAE_clean_linker_10, # of connection points: 2
#     Edge 32, Type (0, 1), BuildingBlock: TEMPAE_clean_linker_10, # of connection points: 2
#     Edge 33, Type (0, 1), BuildingBlock: TEMPAE_clean_linker_10, # of connection points: 2
#     Edge 34, Type (0, 1), BuildingBlock: TEMPAE_clean_linker_10, # of connection points: 2
#     Edge 35, Type (0, 1), BuildingBlock: TEMPAE_clean_linker_10, # of connection points: 2
# Relax obj value: 0.071
# Max RMSD: 0.149
# Mean RMSD: 0.121
data_MOF--net-pry--node1-OLANEW_clean_sbu_2--node2-CIFDUS_clean_sbu_1--edge1-TEMPAE_clean_linker_10
_symmetry_space_group_name_H-M    P1
_symmetry_Int_Tables_number       1
_symmetry_cell_setting            triclinic
loop_
_symmetry_equiv_pos_as_xyz
'x, y, z'
_cell_length_a     39.878115
_cell_length_b     38.875728
_cell_length_c     37.303691
_cell_angle_alpha  96.490958
_cell_angle_beta   90.452477
_cell_angle_gamma 98.844573
loop_
_atom_site_label
_atom_site_type_symbol
_atom_site_fract_x
_atom_site_fract_y
_atom_site_fract_z
_atom_type_partial_charge
O0 O 0.18777 0.13616 0.12153 0.0
Cd1 Cd 0.13262 0.15727 0.13222 0.0
O2 O 0.18007 0.09736 0.16105 0.0
Cd3 Cd 0.13349 0.1097 0.18619 0.0
O4 O 0.10702 0.10126 0.23633 0.0
C5 C 0.12589 0.09356 0.26092 0.0
O6 O 0.15799 0.0923 0.25408 0.0
C7 C 0.19757 0.11154 0.13681 0.0
C8 C 0.11968 0.219 0.10484 0.0
O9 O 0.11868 0.1902 0.08412 0.0
O10 O 0.12811 0.21918 0.13811 0.0
O11 O 0.44477 0.94263 0.70974 0.0
Cd12 Cd 0.44426 0.92242 0.64497 0.0
O13 O 0.39042 0.92343 0.71125 0.0
Cd14 Cd 0.33823 0.9173 0.72936 0.0
O15 O 0.28745 0.91705 0.70663 0.0
C16 C 0.28546 0.91459 0.67234 0.0
O17 O 0.31303 0.91145 0.65397 0.0
C18 C 0.4176 0.93916 0.72739 0.0
C19 C 0.45403 0.85305 0.62694 0.0
O20 O 0.47905 0.87751 0.63587 0.0
O21 O 0.42404 0.86112 0.62721 0.0
O22 O 0.69126 0.46881 0.93069 0.0
Cd23 Cd 0.63321 0.45495 0.90667 0.0
O24 O 0.68474 0.41171 0.92309 0.0
Cd25 Cd 0.69907 0.36005 0.92417 0.0
O26 O 0.6809 0.30553 0.9305 0.0
C27 C 0.6493 0.29636 0.92378 0.0
O28 O 0.63194 0.31933 0.91241 0.0
C29 C 0.70315 0.44078 0.93364 0.0
C30 C 0.62875 0.46563 0.83462 0.0
O31 O 0.62073 0.48805 0.8597 0.0
O32 O 0.63908 0.43809 0.84355 0.0
O33 O 0.92223 0.67136 0.43931 0.0
Cd34 Cd 0.90179 0.61284 0.40712 0.0
O35 O 0.94551 0.65265 0.48564 0.0
Cd36 Cd 0.91791 0.6004 0.46965 0.0
O37 O 0.86426 0.58183 0.47686 0.0
C38 C 0.8518 0.59833 0.50366 0.0
O39 O 0.87205 0.62261 0.5243 0.0
C40 C 0.93939 0.67784 0.46894 0.0
C41 C 0.91958 0.60232 0.33443 0.0
O42 O 0.89267 0.61509 0.34346 0.0
O43 O 0.93843 0.59525 0.35976 0.0
O44 O 0.91302 0.8835 0.89044 0.0
Cd45 Cd 0.90177 0.86607 0.95133 0.0
O46 O 0.87407 0.91818 0.88758 0.0
Cd47 Cd 0.84813 0.91795 0.93924 0.0
O48 O 0.8061 0.93549 0.9708 0.0
C49 C 0.7987 0.96557 0.96674 0.0
O50 O 0.81735 0.98497 0.94541 0.0
C51 C 0.8981 0.90369 0.87333 0.0
C52 C 0.92713 0.80496 0.96562 0.0
O53 O 0.89733 0.80353 0.95183 0.0
O54 O 0.94536 0.83524 0.97222 0.0
O55 O 0.63127 0.07407 0.40746 0.0
Cd56 Cd 0.64903 0.08575 0.47099 0.0
O57 O 0.64081 0.13065 0.40558 0.0
Cd58 Cd 0.63628 0.18149 0.38809 0.0
O59 O 0.62414 0.23315 0.40822 0.0
C60 C 0.60804 0.23421 0.43754 0.0
O61 O 0.59993 0.20509 0.45242 0.0
C62 C 0.63073 0.10003 0.38984 0.0
C63 C 0.718 0.08595 0.48282 0.0
O64 O 0.69698 0.05733 0.47718 0.0
O65 O 0.70655 0.11497 0.48253 0.0
O66 O 0.45083 0.7265 0.17273 0.0
Cd67 Cd 0.44474 0.6647 0.18303 0.0
O68 O 0.3978 0.72261 0.18749 0.0
Cd69 Cd 0.34632 0.73405 0.18728 0.0
O70 O 0.30025 0.70289 0.163 0.0
C71 C 0.30295 0.68934 0.13072 0.0
O72 O 0.33177 0.69679 0.11434 0.0
C73 C 0.4241 0.74046 0.17614 0.0
C74 C 0.44915 0.65156 0.25475 0.0
O75 O 0.47561 0.65704 0.23564 0.0
O76 O 0.42027 0.65305 0.24015 0.0
O77 O 0.14182 0.47525 0.69494 0.0
Cd78 Cd 0.14125 0.46171 0.62906 0.0
O79 O 0.12942 0.41829 0.68885 0.0
Cd80 Cd 0.11175 0.36848 0.70814 0.0
O81 O 0.08557 0.31706 0.68802 0.0
C82 C 0.07401 0.31486 0.65586 0.0
O83 O 0.07865 0.34295 0.63882 0.0
C84 C 0.13375 0.44708 0.70914 0.0
C85 C 0.20545 0.46058 0.60108 0.0
O86 O 0.19039 0.48729 0.59992 0.0
O87 O 0.19017 0.43433 0.61553 0.0
O88 O 0.96102 0.02285 0.56019 0.0
Mn89 Mn 0.00531 0.00129 0.56505 0.0
O90 O 0.93498 0.99676 0.50884 0.0
Mn91 Mn 0.96202 0.96242 0.49993 0.0
O92 O 0.05163 0.98216 0.57153 0.0
O93 O 0.02502 0.04822 0.58976 0.0
Mn94 Mn 0.0477 0.04522 0.62913 0.0
O95 O 0.988 0.98431 0.61469 0.0
O96 O 0.08214 0.02167 0.61312 0.0
O97 O 0.02277 0.01752 0.51517 0.0
O98 O 0.9982 0.97581 0.4717 0.0
O99 O 0.05082 0.0924 0.6254 0.0
O100 O 0.01675 0.02267 0.65825 0.0
C101 C 0.96462 0.92563 0.53944 0.0
C102 C 0.93773 0.01985 0.53589 0.0
C103 C 0.07941 0.99487 0.58964 0.0
C104 C 0.03294 0.08169 0.59604 0.0
C105 C 0.99413 0.99637 0.64823 0.0
C106 C 0.02011 0.00278 0.48213 0.0
O107 O 0.98532 0.95444 0.53823 0.0
O108 O 0.94313 0.91938 0.51251 0.0
O109 O 0.48268 0.02461 0.01009 0.0
Mn110 Mn 0.49852 0.0331 0.06461 0.0
O111 O 0.50272 0.9759 0.98912 0.0
Mn112 Mn 0.51248 0.96162 0.03294 0.0
O113 O 0.51522 0.0421 0.11952 0.0
O114 O 0.50862 0.08642 0.05925 0.0
Mn115 Mn 0.48531 0.10214 0.09641 0.0
O116 O 0.446 0.0328 0.07688 0.0
O117 O 0.50491 0.09581 0.13894 0.0
O118 O 0.55031 0.03105 0.05072 0.0
O119 O 0.557 0.97435 0.04711 0.0
O120 O 0.50094 0.14145 0.07825 0.0
O121 O 0.44004 0.08871 0.09058 0.0
C122 C 0.47026 0.95143 0.06688 0.0
C123 C 0.48822 0.0018 0.98413 0.0
C124 C 0.51692 0.06844 0.14414 0.0
C125 C 0.51497 0.12019 0.05591 0.0
C126 C 0.42733 0.05695 0.08347 0.0
C127 C 0.56931 0.00668 0.04842 0.0
O128 O 0.49137 0.98074 0.0701 0.0
O129 O 0.47987 0.92698 0.04466 0.0
O130 O 0.577 0.55915 0.54338 0.0
Mn131 Mn 0.52578 0.53828 0.54531 0.0
O132 O 0.59355 0.53285 0.49208 0.0
Mn133 Mn 0.55052 0.51903 0.4718 0.0
O134 O 0.47392 0.51835 0.55005 0.0
O135 O 0.53532 0.53592 0.59774 0.0
Mn136 Mn 0.50401 0.5517 0.62439 0.0
O137 O 0.51376 0.58957 0.55605 0.0
O138 O 0.46413 0.52304 0.60979 0.0
O139 O 0.53609 0.48596 0.53502 0.0
O140 O 0.53418 0.47305 0.47481 0.0
O141 O 0.53389 0.5392 0.65635 0.0
O142 O 0.5051 0.59738 0.61591 0.0
C143 C 0.51984 0.55822 0.46457 0.0
C144 C 0.60014 0.55173 0.52182 0.0
C145 C 0.45429 0.51401 0.57704 0.0
C146 C 0.54957 0.5304 0.62729 0.0
C147 C 0.50633 0.60824 0.58493 0.0
C148 C 0.53385 0.46357 0.50635 0.0
O149 O 0.51641 0.53928 0.49136 0.0
O150 O 0.54119 0.54893 0.44081 0.0
O151 O 0.96783 0.48123 0.01827 0.0
Mn152 Mn 0.0188 0.50547 0.01883 0.0
O153 O 0.94635 0.48486 0.96335 0.0
Mn154 Mn 0.98471 0.50716 0.94429 0.0
O155 O 0.06954 0.53003 0.02102 0.0
O156 O 0.01564 0.51517 0.07369 0.0
Mn157 Mn 0.05039 0.4985 0.09129 0.0
O158 O 0.03444 0.45565 0.02131 0.0
O159 O 0.08986 0.52285 0.07576 0.0
O160 O 0.0041 0.55521 0.01364 0.0
O161 O 0.99221 0.55524 0.95417 0.0
O162 O 0.03031 0.51593 0.13113 0.0
O163 O 0.04481 0.45108 0.07946 0.0
C164 C 0.02652 0.47787 0.93523 0.0
C165 C 0.94344 0.47539 0.99467 0.0
C166 C 0.09354 0.53403 0.04507 0.0
C167 C 0.00949 0.52375 0.10759 0.0
C168 C 0.04163 0.43793 0.04679 0.0
C169 C 0.99787 0.5711 0.98608 0.0
O170 O 0.02189 0.49777 0.96439 0.0
O171 O 0.00403 0.47886 0.91037 0.0
C172 C 0.07731 0.08227 0.30266 0.0
C173 C 0.11212 0.08458 0.29607 0.0
C174 C 0.06404 0.07168 0.33516 0.0
C175 C 0.08613 0.06327 0.36168 0.0
C176 C 0.12138 0.06653 0.35558 0.0
C177 C 0.13392 0.07711 0.32289 0.0
C178 C 0.02625 0.06833 0.34063 0.0
C179 C 0.14573 0.05763 0.38305 0.0
C180 C 0.05229 0.05462 0.45608 0.0
C181 C 0.04105 0.01843 0.45379 0.0
C182 C 0.06762 0.06971 0.42648 0.0
C183 C 0.072 0.04798 0.39422 0.0
C184 C 0.06209 0.0113 0.39253 0.0
C185 C 0.04674 0.99705 0.42226 0.0
C186 C 0.07792 0.10894 0.4292 0.0
C187 C 0.06662 0.9871 0.35886 0.0
H188 H 0.06029 0.088 0.28211 0.0
H189 H 0.16087 0.07892 0.31813 0.0
H190 H 0.01551 0.04044 0.34196 0.0
H191 H 0.02105 0.08317 0.36664 0.0
H192 H 0.01283 0.07804 0.31853 0.0
H193 H 0.17264 0.06407 0.3754 0.0
H194 H 0.14238 0.07198 0.40989 0.0
H195 H 0.14024 0.02921 0.38585 0.0
H196 H 0.04775 0.07128 0.48032 0.0
H197 H 0.03843 0.96899 0.42049 0.0
H198 H 0.06197 0.11991 0.41023 0.0
H199 H 0.10468 0.11553 0.42123 0.0
H200 H 0.07511 0.1219 0.45689 0.0
H201 H 0.0511 0.99321 0.33628 0.0
H202 H 0.05899 0.95904 0.3626 0.0
H203 H 0.09351 0.99109 0.35075 0.0
C204 C 0.43493 0.98851 0.7754 0.0
C205 C 0.41837 0.95423 0.76553 0.0
C206 C 0.44163 0.00157 0.81179 0.0
C207 C 0.43279 0.97929 0.83885 0.0
C208 C 0.41435 0.94521 0.82907 0.0
C209 C 0.40689 0.93325 0.79241 0.0
C210 C 0.46046 0.03833 0.82101 0.0
C211 C 0.40516 0.92026 0.85691 0.0
C212 C 0.49433 0.98857 0.91836 0.0
C213 C 0.47612 0.00293 0.94678 0.0
C214 C 0.48067 0.98143 0.88321 0.0
C215 C 0.44795 0.98924 0.87594 0.0
C216 C 0.43012 0.00566 0.90406 0.0
C217 C 0.44445 0.01234 0.93934 0.0
C218 C 0.50075 0.96399 0.85421 0.0
C219 C 0.39544 0.01486 0.89713 0.0
H220 H 0.44368 0.00475 0.7545 0.0
H221 H 0.39434 0.90663 0.78466 0.0
H222 H 0.44954 0.05175 0.84497 0.0
H223 H 0.48739 0.03724 0.82775 0.0
H224 H 0.45976 0.05425 0.79817 0.0
H225 H 0.38725 0.89663 0.84577 0.0
H226 H 0.42855 0.91169 0.86671 0.0
H227 H 0.3936 0.93343 0.88056 0.0
H228 H 0.51894 0.98145 0.92399 0.0
H229 H 0.43015 0.0231 0.96132 0.0
H230 H 0.5048 0.98014 0.83149 0.0
H231 H 0.48632 0.93815 0.84329 0.0
H232 H 0.52592 0.95989 0.86439 0.0
H233 H 0.3961 0.03056 0.87401 0.0
H234 H 0.386 0.02983 0.92108 0.0
H235 H 0.37709 0.99053 0.88974 0.0
C236 C 0.59892 0.48777 0.78558 0.0
C237 C 0.62526 0.47106 0.79644 0.0
C238 C 0.59463 0.49294 0.74942 0.0
C239 C 0.61801 0.48211 0.72361 0.0
C240 C 0.64494 0.4655 0.73455 0.0
C241 C 0.64793 0.45964 0.77087 0.0
C242 C 0.56499 0.51007 0.73895 0.0
C243 C 0.67085 0.45459 0.70813 0.0
C244 C 0.57407 0.47822 0.63428 0.0
C245 C 0.5799 0.51398 0.63034 0.0
C246 C 0.59055 0.4654 0.66218 0.0
C247 C 0.61377 0.48904 0.68556 0.0
C248 C 0.62497 0.52317 0.67628 0.0
C249 C 0.60792 0.53522 0.6483 0.0
C250 C 0.57839 0.42849 0.67037 0.0
C251 C 0.65042 0.549 0.6997 0.0
H252 H 0.58121 0.49626 0.80536 0.0
H253 H 0.66846 0.44689 0.77947 0.0
H254 H 0.57442 0.53525 0.7284 0.0
H255 H 0.54935 0.49298 0.7172 0.0
H256 H 0.54839 0.51542 0.76204 0.0
H257 H 0.6894 0.44062 0.72062 0.0
H258 H 0.6581 0.43734 0.68466 0.0
H259 H 0.68493 0.47808 0.6976 0.0
H260 H 0.55255 0.46168 0.62005 0.0
H261 H 0.61267 0.56289 0.64491 0.0
H262 H 0.55759 0.42886 0.68996 0.0
H263 H 0.59896 0.41709 0.68258 0.0
H264 H 0.56833 0.41127 0.6456 0.0
H265 H 0.63715 0.56126 0.72265 0.0
H266 H 0.66279 0.57018 0.68437 0.0
H267 H 0.67025 0.53587 0.71097 0.0
C268 C 0.90878 0.60504 0.26838 0.0
C269 C 0.92815 0.595 0.2959 0.0
C270 C 0.91615 0.5973 0.23178 0.0
C271 C 0.94334 0.57881 0.22243 0.0
C272 C 0.96307 0.56877 0.25014 0.0
C273 C 0.95532 0.57707 0.28643 0.0
C274 C 0.89475 0.60867 0.2031 0.0
C275 C 0.9923 0.54892 0.24146 0.0
C276 C 0.95384 0.5229 0.13479 0.0
C277 C 0.98227 0.54266 0.12125 0.0
C278 C 0.93818 0.53593 0.16601 0.0
C279 C 0.95145 0.56945 0.18388 0.0
C280 C 0.97708 0.59124 0.1673 0.0
C281 C 0.99207 0.57757 0.13597 0.0
C282 C 0.91057 0.51194 0.18234 0.0
C283 C 0.99191 0.62723 0.18509 0.0
H284 H 0.88775 0.61893 0.27542 0.0
H285 H 0.97037 0.56909 0.30743 0.0
H286 H 0.91112 0.62496 0.18552 0.0
H287 H 0.88179 0.58535 0.18565 0.0
H288 H 0.87526 0.62391 0.21481 0.0
H289 H 0.00515 0.5431 0.26611 0.0
H290 H 0.98303 0.5238 0.22463 0.0
H291 H 0.01133 0.56435 0.22564 0.0
H292 H 0.94663 0.49567 0.12385 0.0
H293 H 0.0145 0.59265 0.12594 0.0
H294 H 0.89067 0.52661 0.19389 0.0
H295 H 0.92168 0.50032 0.20462 0.0
H296 H 0.89854 0.49025 0.16216 0.0
H297 H 0.97181 0.64133 0.19712 0.0
H298 H 0.00609 0.6433 0.16569 0.0
H299 H 0.00979 0.62457 0.20721 0.0
C300 C 0.25865 0.10931 0.14841 0.0
C301 C 0.22938 0.09858 0.12661 0.0
C302 C 0.28877 0.09578 0.14019 0.0
C303 C 0.28935 0.07036 0.10981 0.0
C304 C 0.25927 0.05847 0.08864 0.0
C305 C 0.22967 0.07294 0.09715 0.0
C306 C 0.32029 0.10966 0.16325 0.0
C307 C 0.25856 0.03093 0.05661 0.0
C308 C 0.37414 0.07443 0.0646 0.0
C309 C 0.38979 0.05046 0.08167 0.0
C310 C 0.34123 0.08032 0.07283 0.0
C311 C 0.32242 0.06031 0.09735 0.0
C312 C 0.33662 0.03321 0.11169 0.0
C313 C 0.37057 0.02896 0.10418 0.0
C314 C 0.32799 0.11038 0.05788 0.0
C315 C 0.31687 0.01037 0.13682 0.0
H316 H 0.25803 0.12861 0.17169 0.0
H317 H 0.20663 0.06403 0.08094 0.0
H318 H 0.33121 0.08771 0.17291 0.0
H319 H 0.33978 0.12381 0.14688 0.0
H320 H 0.31513 0.12784 0.18703 0.0
H321 H 0.23244 0.02172 0.04536 0.0
H322 H 0.27451 0.04174 0.03504 0.0
H323 H 0.26939 0.00812 0.06442 0.0
H324 H 0.38905 0.09119 0.04727 0.0
H325 H 0.38264 0.01073 0.11783 0.0
H326 H 0.32476 0.13084 0.08033 0.0
H327 H 0.30277 0.10134 0.04449 0.0
H328 H 0.34538 0.1226 0.03815 0.0
H329 H 0.31672 0.02524 0.16399 0.0
H330 H 0.32823 0.98639 0.13946 0.0
H331 H 0.29008 0.00256 0.12718 0.0
C332 C 0.25297 0.91944 0.61587 0.0
C333 C 0.25359 0.91821 0.65336 0.0
C334 C 0.22411 0.92649 0.59796 0.0
C335 C 0.19524 0.93257 0.61804 0.0
C336 C 0.19508 0.92954 0.65556 0.0
C337 C 0.22424 0.92236 0.67275 0.0
C338 C 0.22534 0.92946 0.55798 0.0
C339 C 0.16488 0.93616 0.67804 0.0
C340 C 0.14163 -0.00108 0.59466 0.0
C341 C 0.11009 0.97788 0.58603 0.0
C342 C 0.17013 0.98429 0.60308 0.0
C343 C 0.16742 0.94747 0.60153 0.0
C344 C 0.1368 0.92587 0.58851 0.0
C345 C 0.10816 0.9414 0.58118 0.0
C346 C 0.20204 0.0085 0.61709 0.0
C347 C 0.13355 0.88649 0.58492 0.0
H348 H 0.27547 0.9161 0.60057 0.0
H349 H 0.22439 0.9212 0.70165 0.0
H350 H 0.20105 0.91686 0.54422 0.0
H351 H 0.22918 0.95752 0.55353 0.0
H352 H 0.24643 0.91736 0.54518 0.0
H353 H 0.16761 0.92983 0.70612 0.0
H354 H 0.16187 0.96417 0.67906 0.0
H355 H 0.14128 0.92034 0.66562 0.0
H356 H 0.14341 0.02724 0.59764 0.0
H357 H 0.08391 0.92506 0.57426 0.0
H358 H 0.22458 0.00092 0.60292 0.0
H359 H 0.20592 0.00639 0.64622 0.0
H360 H 0.2008 0.03634 0.61387 0.0
H361 H 0.15643 0.87774 0.57244 0.0
H362 H 0.11074 0.87372 0.56845 0.0
H363 H 0.13146 0.87748 0.61211 0.0
C364 C 0.74363 0.41849 0.97315 0.0
C365 C 0.73749 0.44199 0.94894 0.0
C366 C 0.77627 0.41949 0.98803 0.0
C367 C 0.8034 0.44402 0.97767 0.0
C368 C 0.79721 0.46772 0.95301 0.0
C369 C 0.76415 0.4668 0.93944 0.0
C370 C 0.78172 0.39443 0.01482 0.0
C371 C 0.82564 0.4935 0.94023 0.0
C372 C 0.88856 0.47571 0.02514 0.0
C373 C 0.90947 0.45781 1.00236 0.0
C374 C 0.85307 0.46885 0.01986 0.0
C375 C 0.83871 0.44408 0.99084 0.0
C376 C 0.85964 0.42328 0.97059 0.0
C377 C 0.89478 0.43013 0.97701 0.0
C378 C 0.83138 0.49078 0.0427 0.0
C379 C 0.84572 0.39712 0.93892 0.0
H380 H 0.72274 0.39974 0.98097 0.0
H381 H 0.75929 0.48486 0.9206 0.0
H382 H 0.80062 0.37777 1.00468 0.0
H383 H 0.79214 0.40941 0.04063 0.0
H384 H 0.75787 0.37714 0.02024 0.0
H385 H 0.81663 0.50946 0.92031 0.0
H386 H 0.83783 0.51146 0.9635 0.0
H387 H 0.84542 0.47928 0.92757 0.0
H388 H 0.89994 0.49748 0.04437 0.0
H389 H 0.91114 0.41665 0.95913 0.0
H390 H 0.80745 0.47453 0.04961 0.0
H391 H 0.82447 0.51156 0.02727 0.0
H392 H 0.84495 0.50356 0.06801 0.0
H393 H 0.82174 0.38096 0.94571 0.0
H394 H 0.86412 0.37943 0.92975 0.0
H395 H 0.83999 0.41145 0.91607 0.0
C396 C 0.79217 0.5713 0.48514 0.0
C397 C 0.81497 0.59203 0.51058 0.0
C398 C 0.75706 0.56669 0.49077 0.0
C399 C 0.7445 0.58292 0.52275 0.0
C400 C 0.76742 0.60351 0.54871 0.0
C401 C 0.80236 0.60791 0.54227 0.0
C402 C 0.73337 0.54477 0.46226 0.0
C403 C 0.75499 0.62109 0.58315 0.0
C404 C 0.65196 0.59444 0.51629 0.0
C405 C 0.63601 0.56467 0.53074 0.0
C406 C 0.6875 0.60182 0.51529 0.0
C407 C 0.7073 0.57852 0.52868 0.0
C408 C 0.69117 0.54943 0.54512 0.0
C409 C 0.65558 0.54279 0.54583 0.0
C410 C 0.70369 0.63312 0.49761 0.0
C411 C 0.71132 0.52399 0.55968 0.0
H412 H 0.80169 0.55912 0.46051 0.0
H413 H 0.81981 0.62394 0.5621 0.0
H414 H 0.71813 0.52266 0.47406 0.0
H415 H 0.71533 0.56083 0.4523 0.0
H416 H 0.74717 0.53398 0.4389 0.0
H417 H 0.77613 0.63605 0.60075 0.0
H418 H 0.73752 0.63929 0.57673 0.0
H419 H 0.7404 0.60115 0.59844 0.0
H420 H 0.63658 0.61077 0.50385 0.0
H421 H 0.64299 0.5193 0.55618 0.0
H422 H 0.7145 0.62402 0.47156 0.0
H423 H 0.72488 0.64845 0.5148 0.0
H424 H 0.68518 0.65069 0.49229 0.0
H425 H 0.72257 0.50907 0.53695 0.0
H426 H 0.69536 0.50505 0.57508 0.0
H427 H 0.73257 0.53826 0.57749 0.0
C428 C 0.09546 0.27499 0.11449 0.0
C429 C 0.10963 0.25052 0.09117 0.0
C430 C 0.08396 0.30393 0.1017 0.0
C431 C 0.08747 0.30913 0.0648 0.0
C432 C 0.10232 0.28483 0.04127 0.0
C433 C 0.11277 0.25556 0.05461 0.0
C434 C 0.06799 0.32895 0.12774 0.0
C435 C 0.10741 0.28993 1.00207 0.0
C436 C 0.03184 0.37249 0.03401 0.0
C437 C 0.05423 0.40417 0.03927 0.0
C438 C 0.04294 0.34068 0.03962 0.0
C439 C 0.0769 0.34092 0.05158 0.0
C440 C 0.09999 0.37269 0.05455 0.0
C441 C 0.0884 0.40378 0.04813 0.0
C442 C 0.01766 0.30731 0.03548 0.0
C443 C 0.13624 0.37457 0.06765 0.0
H444 H 0.09261 0.27108 0.14269 0.0
H445 H 0.12383 0.23681 0.03648 0.0
H446 H 0.08307 0.35558 0.12938 0.0
H447 H 0.04208 0.33081 0.11788 0.0
H448 H 0.06624 0.32071 0.15531 0.0
H449 H 0.11904 0.26854 0.98716 0.0
H450 H 0.08271 0.29119 0.98879 0.0
H451 H 0.12404 0.31522 0.99992 0.0
H452 H 0.00526 0.37287 0.02804 0.0
H453 H 0.10554 0.42846 0.05299 0.0
H454 H 0.01092 0.29958 0.06257 0.0
H455 H 0.02884 0.28564 0.02058 0.0
H456 H 0.99402 0.3104 0.02105 0.0
H457 H 0.13657 0.37108 0.09676 0.0
H458 H 0.15195 0.40011 0.06414 0.0
H459 H 0.14812 0.35323 0.05311 0.0
C460 C 0.59588 0.25563 0.93211 0.0
C461 C 0.63147 0.26242 0.93319 0.0
C462 C 0.57832 0.22637 0.94638 0.0
C463 C 0.59683 0.20308 0.9617 0.0
C464 C 0.6327 0.2083 0.96024 0.0
C465 C 0.64963 0.23804 0.94616 0.0
C466 C 0.54012 0.22242 0.94822 0.0
C467 C 0.65331 0.18411 0.97632 0.0
C468 C 0.55816 0.16974 0.04531 0.0
C469 C 0.54056 0.13657 0.03215 0.0
C470 C 0.57697 0.19109 0.02272 0.0
C471 C 0.57942 0.17857 0.98595 0.0
C472 C 0.56377 0.14406 0.9728 0.0
C473 C 0.54417 0.1233 0.99616 0.0
C474 C 0.59243 0.22793 0.03797 0.0
C475 C 0.5665 0.12982 0.93383 0.0
H476 H 0.5816 0.27424 0.92199 0.0
H477 H 0.67715 0.24294 0.9468 0.0
H478 H 0.52839 0.19482 0.94029 0.0
H479 H 0.53292 0.22977 0.97642 0.0
H480 H 0.52931 0.23939 0.93059 0.0
H481 H 0.68014 0.18823 0.96785 0.0
H482 H 0.65307 0.18893 0.0062 0.0
H483 H 0.64209 0.15634 0.96838 0.0
H484 H 0.55583 0.17992 0.07333 0.0
H485 H 0.53046 0.09775 0.98594 0.0
H486 H 0.58094 0.24726 0.02412 0.0
H487 H 0.62009 0.23244 0.03325 0.0
H488 H 0.58852 0.23326 0.06741 0.0
H489 H 0.5527 0.14453 0.91635 0.0
H490 H 0.55577 0.10155 0.92861 0.0
H491 H 0.59347 0.1335 0.92588 0.0
C492 C 0.93304 0.74106 0.47413 0.0
C493 C 0.94919 0.71452 0.48566 0.0
C494 C 0.94007 0.77556 0.49104 0.0
C495 C 0.96424 0.78397 0.52002 0.0
C496 C 0.9806 0.75733 0.5319 0.0
C497 C 0.97278 0.72285 0.51468 0.0
C498 C 0.92156 0.80301 0.47778 0.0
C499 C 0.00625 0.76527 0.56283 0.0
C500 C 0.00028 0.88024 0.52897 0.0
C501 C 0.97588 0.89416 0.55055 0.0
C502 C 0.99854 0.84387 0.52079 0.0
C503 C 0.97306 0.8211 0.53642 0.0
C504 C 0.95213 0.83521 0.56297 0.0
C505 C 0.95328 0.87174 0.56915 0.0
C506 C 0.02067 0.83022 0.49152 0.0
C507 C 0.92569 0.8119 0.58158 0.0
H508 H 0.91431 0.73475 0.45221 0.0
H509 H 0.98516 0.70241 0.52394 0.0
H510 H 0.90713 0.81469 0.50004 0.0
H511 H 0.94009 0.82447 0.46883 0.0
H512 H 0.90353 0.79211 0.45499 0.0
H513 H 0.01564 0.74137 0.5699 0.0
H514 H 0.02825 0.78419 0.55572 0.0
H515 H 0.99484 0.77776 0.587 0.0
H516 H 0.01732 0.89756 0.51399 0.0
H517 H 0.93413 0.88243 0.58552 0.0
H518 H 0.00514 0.8219 0.46631 0.0
H519 H 0.03094 0.807 0.49898 0.0
H520 H 0.04218 0.85049 0.4858 0.0
H521 H 0.90285 0.80391 0.56361 0.0
H522 H 0.91791 0.82575 0.60714 0.0
H523 H 0.93521 0.78776 0.58758 0.0
C524 C 0.48927 0.80558 0.62851 0.0
C525 C 0.45987 0.81668 0.61629 0.0
C526 C 0.4954 0.77122 0.61893 0.0
C527 C 0.47199 0.74762 0.59574 0.0
C528 C 0.44252 0.75887 0.58269 0.0
C529 C 0.43658 0.79321 0.59351 0.0
C530 C 0.5264 0.75986 0.63465 0.0
C531 C 0.41711 0.7345 0.55777 0.0
C532 C 0.50669 0.66522 0.55795 0.0
C533 C 0.49505 0.64263 0.58343 0.0
C534 C 0.49776 0.69913 0.5602 0.0
C535 C 0.47689 0.71032 0.58851 0.0
C536 C 0.4634 0.68666 0.61269 0.0
C537 C 0.4725 0.65323 0.60971 0.0
C538 C 0.51179 0.7235 0.53337 0.0
C539 C 0.44101 0.69719 0.64325 0.0
H540 H 0.50718 0.82357 0.64634 0.0
H541 H 0.41392 0.80182 0.5838 0.0
H542 H 0.51847 0.73852 0.65165 0.0
H543 H 0.54189 0.7493 0.61271 0.0
H544 H 0.54257 0.78168 0.65147 0.0
H545 H 0.39658 0.74789 0.54829 0.0
H546 H 0.43009 0.72346 0.53395 0.0
H547 H 0.4054 0.71213 0.5718 0.0
H548 H 0.52373 0.657 0.53734 0.0
H549 H 0.46243 0.63553 0.62886 0.0
H550 H 0.53097 0.74471 0.54707 0.0
H551 H 0.4913 0.73606 0.52254 0.0
H552 H 0.52393 0.70965 0.51051 0.0
H553 H 0.4562 0.71683 0.66332 0.0
H554 H 0.42982 0.67453 0.65726 0.0
H555 H 0.42005 0.70954 0.63322 0.0
C556 C 0.8894 0.92947 0.81601 0.0
C557 C 0.90898 0.91143 0.83664 0.0
C558 C 0.90022 0.93939 0.78243 0.0
C559 C 0.93155 0.93135 0.76907 0.0
C560 C 0.95088 0.91204 0.78907 0.0
C561 C 0.93931 0.90217 0.82254 0.0
C562 C 0.87887 0.96004 0.76212 0.0
C563 C 0.9847 0.90344 0.77605 0.0
C564 C 0.95572 0.94619 0.67221 0.0
C565 C 0.97564 0.97948 0.67779 0.0
C566 C 0.94088 0.93003 0.70159 0.0
C567 C 0.94629 0.94755 0.73716 0.0
C568 C 0.96587 0.9813 0.74268 0.0
C569 C 0.97994 0.99681 0.71312 0.0
C570 C 0.91979 0.89414 0.69474 0.0
C571 C 0.97242 0.00108 0.78 0.0
H572 H 0.86578 0.93654 0.82642 0.0
H573 H 0.95463 0.88826 0.8382 0.0
H574 H 0.89216 0.98732 0.76229 0.0
H575 H 0.87518 0.9485 0.73352 0.0
H576 H 0.85358 0.96094 0.77416 0.0
H577 H 0.99512 0.88554 0.79287 0.0
H578 H 0.98225 0.89113 0.74765 0.0
H579 H 0.00321 0.92796 0.77677 0.0
H580 H 0.95224 0.93254 0.64513 0.0
H581 H 0.99489 0.02271 0.71801 0.0
H582 H 0.89402 0.89487 0.70551 0.0
H583 H 0.9314 0.87532 0.7092 0.0
H584 H 0.91738 0.88425 0.66556 0.0
H585 H 0.94804 0.00538 0.7925 0.0
H586 H 0.98865 0.02697 0.77965 0.0
H587 H 0.9851 0.98548 0.79755 0.0
C588 C 0.63478 0.10436 0.32376 0.0
C589 C 0.61568 0.09417 0.35314 0.0
C590 C 0.62111 0.0964 0.28839 0.0
C591 C 0.5872 0.07903 0.28268 0.0
C592 C 0.56789 0.06889 0.3125 0.0
C593 C 0.58263 0.07602 0.34732 0.0
C594 C 0.64271 0.10704 0.25724 0.0
C595 C 0.53124 0.05172 0.30781 0.0
C596 C 0.53698 0.10001 0.20402 0.0
C597 C 0.53474 0.06936 0.17952 0.0
C598 C 0.5545 0.10352 0.23706 0.0
C599 C 0.57035 0.07563 0.24644 0.0
C600 C 0.56852 0.04453 0.22207 0.0
C601 C 0.55072 0.04173 0.18872 0.0
C602 C 0.55562 0.13712 0.26216 0.0
C603 C 0.58536 0.01437 0.23128 0.0
H604 H 0.66059 0.11788 0.32842 0.0
H605 H 0.56804 0.06808 0.37023 0.0
H606 H 0.64203 0.08447 0.23604 0.0
H607 H 0.63242 0.128 0.24486 0.0
H608 H 0.66955 0.11684 0.2658 0.0
H609 H 0.5202 0.04416 0.33357 0.0
H610 H 0.51592 0.07 0.29711 0.0
H611 H 0.52895 0.02799 0.28789 0.0
H612 H 0.52506 0.12182 0.19745 0.0
H613 H 0.54944 0.01813 0.16995 0.0
H614 H 0.58232 0.14941 0.26834 0.0
H615 H 0.54384 0.13134 0.2881 0.0
H616 H 0.54217 0.15645 0.25056 0.0
H617 H 0.6128 0.02347 0.23725 0.0
H618 H 0.58251 0.99244 0.20909 0.0
H619 H 0.57423 0.00435 0.25596 0.0
C620 C 0.42299 0.63261 0.3119 0.0
C621 C 0.452 0.64225 0.292 0.0
C622 C 0.42574 0.62114 0.34611 0.0
C623 C 0.45821 0.61877 0.36041 0.0
C624 C 0.48757 0.62956 0.34084 0.0
C625 C 0.48408 0.64135 0.30709 0.0
C626 C 0.39382 0.61041 0.36618 0.0
C627 C 0.52276 0.62701 0.35463 0.0
C628 C 0.48811 0.60659 0.45377 0.0
C629 C 0.49084 0.57094 0.44877 0.0
C630 C 0.47258 0.62193 0.42687 0.0
C631 C 0.46198 0.60153 0.3936 0.0
C632 C 0.4616 0.56485 0.39023 0.0
C633 C 0.47473 0.54988 0.4186 0.0
C634 C 0.47077 0.6606 0.43255 0.0
C635 C 0.45211 0.54211 0.35492 0.0
H636 H 0.39806 0.63325 0.30045 0.0
H637 H 0.50662 0.64891 0.29202 0.0
H638 H 0.38639 0.58156 0.36138 0.0
H639 H 0.39783 0.61778 0.3957 0.0
H640 H 0.37235 0.62255 0.35682 0.0
H641 H 0.54288 0.6366 0.33612 0.0
H642 H 0.52789 0.64257 0.38142 0.0
H643 H 0.52458 0.59935 0.35802 0.0
H644 H 0.50059 0.62295 0.47699 0.0
H645 H 0.47713 0.52227 0.41473 0.0
H646 H 0.44698 0.66612 0.42028 0.0
H647 H 0.49242 0.67518 0.41931 0.0
H648 H 0.47198 0.6706 0.46171 0.0
H649 H 0.42707 0.54615 0.3446 0.0
H650 H 0.45123 0.51379 0.35748 0.0
H651 H 0.4711 0.54953 0.33441 0.0
C652 C 0.0917 0.43767 0.75672 0.0
C653 C 0.12535 0.44783 0.74742 0.0
C654 C 0.08222 0.44056 0.79292 0.0
C655 C 0.10741 0.45253 0.82049 0.0
C656 C 0.14188 0.46041 0.81111 0.0
C657 C 0.15037 0.45883 0.7745 0.0
C658 C 0.04504 0.43243 0.80137 0.0
C659 C 0.16964 0.47101 0.83971 0.0
C660 C 0.07487 0.502 0.90263 0.0
C661 C 0.06021 0.47432 0.92126 0.0
C662 C 0.09147 0.49545 0.87018 0.0
C663 C 0.09692 0.46088 0.85834 0.0
C664 C 0.08747 0.43394 0.88066 0.0
C665 C 0.06805 0.44072 0.91129 0.0
C666 C 0.09842 0.52449 0.84619 0.0
C667 C 0.09474 0.3972 0.87054 0.0
H668 H 0.07254 0.42885 0.73549 0.0
H669 H 0.17652 0.46601 0.76704 0.0
H670 H 0.04085 0.41041 0.81807 0.0
H671 H 0.0368 0.4555 0.81715 0.0
H672 H 0.02865 0.42516 0.77661 0.0
H673 H 0.19527 0.47088 0.8283 0.0
H674 H 0.1683 0.49775 0.85295 0.0
H675 H 0.16626 0.45298 0.86092 0.0
H676 H 0.06808 0.52783 0.90989 0.0
H677 H 0.05641 0.41913 0.92531 0.0
H678 H 0.08165 0.51783 0.82168 0.0
H679 H 0.12496 0.52737 0.83711 0.0
H680 H 0.09376 0.55014 0.8599 0.0
H681 H 0.07287 0.38142 0.85475 0.0
H682 H 0.09821 0.38428 0.8951 0.0
H683 H 0.11777 0.39694 0.85405 0.0
C684 C 0.74612 0.9559 1.00336 0.0
C685 C 0.76802 0.97759 0.98319 0.0
C686 C 0.71551 0.96581 0.01619 0.0
C687 C 0.70656 0.99827 0.00881 0.0
C688 C 0.7292 0.02088 0.98972 0.0
C689 C 0.75959 0.01029 0.97714 0.0
C690 C 0.69203 0.94075 0.03623 0.0
C691 C 0.72069 0.05566 0.98126 0.0
C692 C 0.61175 -0.00108 1.00214 0.0
C693 C 0.60473 0.01357 0.03681 0.0
C694 C 0.64491 0.99509 0.9923 0.0
C695 C 0.67201 0.00665 0.01767 0.0
C696 C 0.66538 0.02374 0.05199 0.0
C697 C 0.63161 0.02669 0.06137 0.0
C698 C 0.65051 0.97635 0.95561 0.0
C699 C 0.69369 0.03698 0.07947 0.0
H700 H 0.7524 0.93066 0.00829 0.0
H701 H 0.77636 0.02737 0.96173 0.0
H702 H 0.68463 0.95439 0.06201 0.0
H703 H 0.66843 0.93107 0.01983 0.0
H704 H 0.70377 0.91783 0.04219 0.0
H705 H 0.7423 0.07166 0.96926 0.0
H706 H 0.69873 0.0512 0.96196 0.0
H707 H 0.71321 0.07084 0.00611 0.0
H708 H 0.59081 0.9883 0.98337 0.0
H709 H 0.62611 0.03737 0.08842 0.0
H710 H 0.65888 0.95092 0.95887 0.0
H711 H 0.67086 0.99198 0.94157 0.0
H712 H 0.62714 0.97117 0.93819 0.0
H713 H 0.70337 0.01441 0.08938 0.0
H714 H 0.68516 0.05338 0.10294 0.0
H715 H 0.7152 0.05259 0.06696 0.0
C716 C 0.76822 0.05524 0.47801 0.0
C717 C 0.75418 0.08506 0.49055 0.0
C718 C 0.8015 0.05209 0.48764 0.0
C719 C 0.82104 0.07916 0.51107 0.0
C720 C 0.80751 0.11 0.52275 0.0
C721 C 0.77419 0.11274 0.51207 0.0
C722 C 0.81533 0.01919 0.47359 0.0
C723 C 0.82767 0.13937 0.54762 0.0
C724 C 0.88567 0.0397 0.56075 0.0
C725 C 0.91304 0.04419 0.53774 0.0
C726 C 0.85633 0.05423 0.55454 0.0
C727 C 0.85469 0.07354 0.52467 0.0
C728 C 0.88385 0.08127 0.5039 0.0
C729 C 0.91266 0.06614 0.51052 0.0
C730 C 0.82585 0.04564 0.57747 0.0
C731 C 0.88351 0.10213 0.47219 0.0
H732 H 0.75295 0.03406 0.46092 0.0
H733 H 0.76335 0.13586 0.52179 0.0
H734 H 0.83979 0.02606 0.46018 0.0
H735 H 0.82033 0.00453 0.49641 0.0
H736 H 0.79755 0.00161 0.454 0.0
H737 H 0.81493 0.16296 0.55133 0.0
H738 H 0.83111 0.13039 0.57441 0.0
H739 H 0.85336 0.1468 0.537 0.0
H740 H 0.88602 0.02234 0.58151 0.0
H741 H 0.934 0.06934 0.49267 0.0
H742 H 0.80691 0.0254 0.56195 0.0
H743 H 0.81354 0.06913 0.58457 0.0
H744 H 0.83274 0.03543 0.60272 0.0
H745 H 0.87087 0.0849 0.44863 0.0
H746 H 0.90965 0.11264 0.46455 0.0
H747 H 0.8691 0.12425 0.47812 0.0
C748 C 0.2492 0.64721 0.13209 0.0
C749 C 0.27458 0.66481 0.11212 0.0
C750 C 0.22199 0.62402 0.11475 0.0
C751 C 0.2198 0.61892 0.07653 0.0
C752 C 0.2458 0.63595 0.05626 0.0
C753 C 0.27306 0.65855 0.07434 0.0
C754 C 0.19528 0.60543 0.13736 0.0
C755 C 0.24439 0.63096 0.01554 0.0
C756 C 0.1558 0.53977 0.04225 0.0
C757 C 0.12642 0.55507 0.0397 0.0
C758 C 0.18737 0.56055 0.05098 0.0
C759 C 0.18916 0.59732 0.05822 0.0
C760 C 0.15996 0.61296 0.05275 0.0
C761 C 0.12885 0.59153 0.04323 0.0
C762 C 0.21792 0.5428 0.05599 0.0
C763 C 0.16077 0.65204 0.06066 0.0
H764 H 0.25068 0.65143 0.16133 0.0
H765 H 0.29279 0.67196 0.05883 0.0
H766 H 0.17043 0.61377 0.13239 0.0
H767 H 0.19222 0.5767 0.12959 0.0
H768 H 0.20165 0.61089 0.1667 0.0
H769 H 0.26795 0.64378 1.00382 0.0
H770 H 0.2403 0.60263 1.00545 0.0
H771 H 0.22257 0.64216 1.00563 0.0
H772 H 0.15361 0.51144 0.04013 0.0
H773 H 0.10588 0.60318 0.04213 0.0
H774 H 0.22204 0.54117 0.08516 0.0
H775 H 0.24119 0.55794 0.04612 0.0
H776 H 0.2143 0.51576 0.04172 0.0
H777 H 0.16342 0.65968 0.09025 0.0
H778 H 0.13729 0.66045 0.05084 0.0
H779 H 0.18297 0.66642 0.04807 0.0
C780 C 0.26263 0.44265 0.60437 0.0
C781 C 0.24031 0.46104 0.58803 0.0
C782 C 0.29722 0.4472 0.59629 0.0
C783 C 0.30945 0.46995 0.57055 0.0
C784 C 0.28637 0.48614 0.55174 0.0
C785 C 0.2521 0.48193 0.56112 0.0
C786 C 0.32107 0.4302 0.61769 0.0
C787 C 0.29829 0.51002 0.52365 0.0
C788 C 0.39621 0.52194 0.59353 0.0
C789 C 0.41735 0.50359 0.57137 0.0
C790 C 0.36112 0.5117 0.59264 0.0
C791 C 0.34652 0.48221 0.56885 0.0
C792 C 0.36749 0.46428 0.54519 0.0
C793 C 0.40293 0.47534 0.5466 0.0
C794 C 0.33986 0.53189 0.61816 0.0
C795 C 0.3526 0.43289 0.51936 0.0
H796 H 0.25353 0.4265 0.62522 0.0
H797 H 0.23471 0.49577 0.54807 0.0
H798 H 0.33908 0.41811 0.59965 0.0
H799 H 0.33627 0.45049 0.63713 0.0
H800 H 0.30726 0.40981 0.63307 0.0
H801 H 0.2768 0.51534 0.50707 0.0
H802 H 0.3116 0.53538 0.53718 0.0
H803 H 0.31657 0.49843 0.50554 0.0
H804 H 0.40733 0.5443 0.61223 0.0
H805 H 0.41932 0.46122 0.52945 0.0
H806 H 0.32674 0.51437 0.63693 0.0
H807 H 0.32004 0.54163 0.60282 0.0
H808 H 0.35527 0.55467 0.6344 0.0
H809 H 0.34293 0.41079 0.53477 0.0
H810 H 0.3716 0.4243 0.50009 0.0
H811 H 0.33074 0.4389 0.50392 0.0
C812 C 0.91948 0.73975 0.96603 0.0
C813 C 0.93994 0.77257 0.97371 0.0
C814 C 0.9313 0.70875 0.97261 0.0
C815 C 0.96445 0.7104 0.98735 0.0
C816 C 0.98501 0.74349 0.99595 0.0
C817 C 0.97254 0.77415 0.98899 0.0
C818 C 0.9086 0.67406 0.96266 0.0
C819 C 0.0205 0.74643 0.01156 0.0
C820 C 0.98188 0.62541 0.02112 0.0
C821 C 0.99526 0.60905 0.99024 0.0
C822 C 0.97331 0.65937 0.02145 0.0
C823 C 0.97843 0.67723 0.99029 0.0
C824 C 0.99418 0.66168 0.96012 0.0
C825 C 0.00238 0.62795 0.96051 0.0
C826 C 0.95699 0.67524 0.05432 0.0
C827 C 0.00041 0.67967 0.9264 0.0
H828 H 0.89424 0.73817 0.95436 0.0
H829 H 0.98854 0.79936 0.99516 0.0
H830 H 0.92009 0.65847 0.94063 0.0
H831 H 0.90617 0.65872 0.98609 0.0
H832 H 0.88281 0.67733 0.95356 0.0
H833 H 0.03205 0.77408 0.0199 0.0
H834 H 0.02031 0.73156 0.03527 0.0
H835 H 0.03688 0.73474 0.99121 0.0
H836 H 0.97632 0.611 0.04415 0.0
H837 H 0.01322 0.61569 0.93671 0.0
H838 H 0.92978 0.6755 0.04809 0.0
H839 H 0.96905 0.70281 0.06189 0.0
H840 H 0.95877 0.66034 0.0778 0.0
H841 H 0.97575 0.68139 0.91327 0.0
H842 H 0.01561 0.66548 0.90661 0.0
H843 H 0.01386 0.70682 0.93324 0.0
C844 C 0.44371 0.78599 0.13585 0.0
C845 C 0.42333 0.77541 0.16424 0.0
C846 C 0.44453 0.81936 0.12468 0.0
C847 C 0.42508 0.84322 0.14294 0.0
C848 C 0.40396 0.83246 0.17126 0.0
C849 C 0.40315 0.79853 0.18144 0.0
C850 C 0.46659 0.82917 0.09352 0.0
C851 C 0.38291 0.85703 0.19135 0.0
C852 C 0.46563 0.93479 0.12833 0.0
C853 C 0.44903 0.93862 0.09613 0.0
C854 C 0.45566 0.90526 0.14659 0.0
C855 C 0.42813 0.87958 0.13256 0.0
C856 C 0.40806 0.88648 0.10352 0.0
C857 C 0.41871 0.91613 0.08575 0.0
C858 C 0.47755 0.89921 0.17773 0.0
C859 C 0.37832 0.86019 0.08773 0.0
H860 H 0.45899 0.768 0.12216 0.0
H861 H 0.38759 0.79052 0.20362 0.0
H862 H 0.45114 0.8376 0.07223 0.0
H863 H 0.48662 0.85157 0.10286 0.0
H864 H 0.47901 0.8071 0.08131 0.0
H865 H 0.36613 0.84397 0.21107 0.0
H866 H 0.3999 0.87958 0.20605 0.0
H867 H 0.36701 0.86774 0.17214 0.0
H868 H 0.4893 0.95186 0.13624 0.0
H869 H 0.40597 0.91889 0.06066 0.0
H870 H 0.49446 0.88014 0.16804 0.0
H871 H 0.46173 0.88797 0.19916 0.0
H872 H 0.49366 0.92383 0.18957 0.0
H873 H 0.38788 0.83942 0.06954 0.0
H874 H 0.36093 0.87264 0.07171 0.0
H875 H 0.36374 0.84739 0.10909 0.0
C876 C 0.05423 0.2508 0.65486 0.0
C877 C 0.05765 0.2809 0.63706 0.0
C878 C 0.042 0.21781 0.63645 0.0
C879 C 0.03267 0.21491 0.59929 0.0
C880 C 0.03383 0.24546 0.58183 0.0
C881 C 0.04663 0.27816 0.60086 0.0
C882 C 0.04079 0.18594 0.65648 0.0
C883 C 0.02268 0.24354 0.54281 0.0
C884 C 0.05316 0.12845 0.56091 0.0
C885 C 0.0249 0.10722 0.57278 0.0
C886 C 0.05487 0.16489 0.56493 0.0
C887 C 0.02646 0.17957 0.57847 0.0
C888 C 0.99515 0.15741 0.58148 0.0
C889 C 0.99483 0.12104 0.57913 0.0
C890 C 0.08906 0.18711 0.5618 0.0
C891 C 0.9635 0.172 0.59296 0.0
H892 H 0.0622 0.25281 0.68297 0.0
H893 H 0.04875 0.30145 0.58705 0.0
H894 H 0.01461 0.17125 0.65546 0.0
H895 H 0.05751 0.16812 0.64347 0.0
H896 H 0.04898 0.19288 0.68526 0.0
H897 H 0.01997 0.26974 0.53502 0.0
H898 H 0.04157 0.23258 0.5251 0.0
H899 H 0.99811 0.22582 0.53764 0.0
H900 H 0.07623 0.11736 0.55546 0.0
H901 H 0.97264 0.1044 0.58764 0.0
H902 H 0.10094 0.19456 0.58916 0.0
H903 H 0.08661 0.21157 0.55012 0.0
H904 H 0.10643 0.1727 0.54495 0.0
H905 H 0.96211 0.1743 0.62281 0.0
H906 H 0.94046 0.15417 0.58162 0.0
H907 H 0.96342 0.19836 0.58427 0.0
C908 C 0.61057 0.29942 0.44238 0.0
C909 C 0.59766 0.26721 0.45436 0.0
C910 C 0.59968 0.33053 0.45724 0.0
C911 C 0.57496 0.3293 0.48437 0.0
C912 C 0.56266 0.29706 0.49735 0.0
C913 C 0.57426 0.26643 0.4823 0.0
C914 C 0.61376 0.36456 0.443 0.0
C915 C 0.53619 0.29465 0.52604 0.0
C916 C 0.56281 0.41851 0.53101 0.0
C917 C 0.5377 0.4268 0.50845 0.0
C918 C 0.57401 0.38578 0.52502 0.0
C919 C 0.55948 0.36107 0.49605 0.0
C920 C 0.53193 0.3683 0.47553 0.0
C921 C 0.52145 0.40112 0.48195 0.0
C922 C 0.60324 0.37897 0.54771 0.0
C923 C 0.51533 0.34256 0.44474 0.0
H924 H 0.62894 0.30031 0.42111 0.0
H925 H 0.56422 0.24166 0.49181 0.0
H926 H 0.5933 0.37428 0.42857 0.0
H927 H 0.6232 0.38484 0.46566 0.0
H928 H 0.63481 0.36158 0.42414 0.0
H929 H 0.53203 0.2685 0.53602 0.0
H930 H 0.54371 0.31497 0.54922 0.0
H931 H 0.51174 0.29958 0.51484 0.0
H932 H 0.57565 0.43851 0.55126 0.0
H933 H 0.50195 0.4076 0.46459 0.0
H934 H 0.62683 0.38241 0.53207 0.0
H935 H 0.59906 0.35168 0.55472 0.0
H936 H 0.60717 0.39731 0.57302 0.0
H937 H 0.53332 0.34076 0.42231 0.0
H938 H 0.49185 0.35049 0.43427 0.0
H939 H 0.50887 0.31602 0.4534 0.0
loop_
_geom_bond_atom_site_label_1
_geom_bond_atom_site_label_2
_geom_bond_distance
_geom_bond_site_symmetry_2
_ccdc_geom_bond_type
O0 Cd1 2.300 . S
O0 C7 1.275 . S
Cd1 O0 2.300 . S
Cd1 O9 2.381 . S
Cd1 O10 2.378 . S
O2 Cd3 2.385 . S
O2 C7 1.255 . S
Cd3 O2 2.385 . S
Cd3 O4 2.317 . S
O4 Cd3 2.317 . S
O4 C5 1.232 . S
C5 O4 1.232 . S
C5 O6 1.218 . S
O6 C5 1.218 . S
C7 O0 1.275 . S
C7 O2 1.255 . S
C8 O9 1.258 . S
C8 O10 1.256 . S
O9 Cd1 2.381 . S
O9 C8 1.258 . S
O10 Cd1 2.378 . S
O10 C8 1.256 . S
O11 Cd12 2.300 . S
O11 C18 1.275 . S
Cd12 O11 2.300 . S
Cd12 O20 2.381 . S
Cd12 O21 2.378 . S
O13 Cd14 2.385 . S
O13 C18 1.255 . S
Cd14 O13 2.385 . S
Cd14 O15 2.317 . S
O15 Cd14 2.317 . S
O15 C16 1.232 . S
C16 O15 1.232 . S
C16 O17 1.218 . S
O17 C16 1.218 . S
C18 O11 1.275 . S
C18 O13 1.255 . S
C19 O20 1.258 . S
C19 O21 1.256 . S
O20 Cd12 2.381 . S
O20 C19 1.258 . S
O21 Cd12 2.378 . S
O21 C19 1.256 . S
O22 Cd23 2.300 . S
O22 C29 1.275 . S
Cd23 O22 2.300 . S
Cd23 O31 2.381 . S
Cd23 O32 2.378 . S
O24 Cd25 2.385 . S
O24 C29 1.255 . S
Cd25 O24 2.385 . S
Cd25 O26 2.317 . S
O26 Cd25 2.317 . S
O26 C27 1.232 . S
C27 O26 1.232 . S
C27 O28 1.218 . S
O28 C27 1.218 . S
C29 O22 1.275 . S
C29 O24 1.255 . S
C30 O31 1.258 . S
C30 O32 1.256 . S
O31 Cd23 2.381 . S
O31 C30 1.258 . S
O32 Cd23 2.378 . S
O32 C30 1.256 . S
O33 Cd34 2.300 . S
O33 C40 1.275 . S
Cd34 O33 2.300 . S
Cd34 O42 2.381 . S
Cd34 O43 2.378 . S
O35 Cd36 2.385 . S
O35 C40 1.255 . S
Cd36 O35 2.385 . S
Cd36 O37 2.317 . S
O37 Cd36 2.317 . S
O37 C38 1.232 . S
C38 O37 1.232 . S
C38 O39 1.218 . S
O39 C38 1.218 . S
C40 O33 1.275 . S
C40 O35 1.255 . S
C41 O42 1.258 . S
C41 O43 1.256 . S
O42 Cd34 2.381 . S
O42 C41 1.258 . S
O43 Cd34 2.378 . S
O43 C41 1.256 . S
O44 Cd45 2.300 . S
O44 C51 1.275 . S
Cd45 O44 2.300 . S
Cd45 O53 2.381 . S
Cd45 O54 2.378 . S
O46 Cd47 2.385 . S
O46 C51 1.255 . S
Cd47 O46 2.385 . S
Cd47 O48 2.317 . S
O48 Cd47 2.317 . S
O48 C49 1.232 . S
C49 O48 1.232 . S
C49 O50 1.218 . S
O50 C49 1.218 . S
C51 O44 1.275 . S
C51 O46 1.255 . S
C52 O53 1.258 . S
C52 O54 1.256 . S
O53 Cd45 2.381 . S
O53 C52 1.258 . S
O54 Cd45 2.378 . S
O54 C52 1.256 . S
O55 Cd56 2.300 . S
O55 C62 1.275 . S
Cd56 O55 2.300 . S
Cd56 O64 2.381 . S
Cd56 O65 2.378 . S
O57 Cd58 2.385 . S
O57 C62 1.255 . S
Cd58 O57 2.385 . S
Cd58 O59 2.317 . S
O59 Cd58 2.317 . S
O59 C60 1.232 . S
C60 O59 1.232 . S
C60 O61 1.218 . S
O61 C60 1.218 . S
C62 O55 1.275 . S
C62 O57 1.255 . S
C63 O64 1.258 . S
C63 O65 1.256 . S
O64 Cd56 2.381 . S
O64 C63 1.258 . S
O65 Cd56 2.378 . S
O65 C63 1.256 . S
O66 Cd67 2.300 . S
O66 C73 1.275 . S
Cd67 O66 2.300 . S
Cd67 O75 2.381 . S
Cd67 O76 2.378 . S
O68 Cd69 2.385 . S
O68 C73 1.255 . S
Cd69 O68 2.385 . S
Cd69 O70 2.317 . S
O70 Cd69 2.317 . S
O70 C71 1.232 . S
C71 O70 1.232 . S
C71 O72 1.218 . S
O72 C71 1.218 . S
C73 O66 1.275 . S
C73 O68 1.255 . S
C74 O75 1.258 . S
C74 O76 1.256 . S
O75 Cd67 2.381 . S
O75 C74 1.258 . S
O76 Cd67 2.378 . S
O76 C74 1.256 . S
O77 Cd78 2.300 . S
O77 C84 1.275 . S
Cd78 O77 2.300 . S
Cd78 O86 2.381 . S
Cd78 O87 2.378 . S
O79 Cd80 2.385 . S
O79 C84 1.255 . S
Cd80 O79 2.385 . S
Cd80 O81 2.317 . S
O81 Cd80 2.317 . S
O81 C82 1.232 . S
C82 O81 1.232 . S
C82 O83 1.218 . S
O83 C82 1.218 . S
C84 O77 1.275 . S
C84 O79 1.255 . S
C85 O86 1.258 . S
C85 O87 1.256 . S
O86 Cd78 2.381 . S
O86 C85 1.258 . S
O87 Cd78 2.378 . S
O87 C85 1.256 . S
O88 Mn89 2.163 1_655 S
O88 C102 1.244 . S
Mn89 O88 2.163 1_455 S
Mn89 O92 2.160 1_545 S
Mn89 O93 2.221 . S
Mn89 O95 2.163 1_445 S
Mn89 O97 2.160 . S
Mn89 O107 2.221 1_445 S
O90 Mn91 2.087 . S
O90 C102 1.256 1_565 S
Mn91 O90 2.087 . S
Mn91 O98 2.089 1_565 S
Mn91 O107 2.290 . S
Mn91 O108 2.251 . S
O92 Mn89 2.160 1_565 S
O92 C103 1.239 . S
O93 Mn89 2.221 . S
O93 Mn94 2.290 . S
O93 C104 1.278 . S
Mn94 O93 2.290 . S
Mn94 O96 2.089 . S
Mn94 O99 2.251 . S
Mn94 O100 2.087 . S
O95 Mn89 2.163 1_665 S
O95 C105 1.244 . S
O96 Mn94 2.089 . S
O96 C103 1.256 1_545 S
O97 Mn89 2.160 . S
O97 C106 1.239 . S
O98 Mn91 2.089 1_545 S
O98 C106 1.256 1_655 S
O99 Mn94 2.251 . S
O99 C104 1.241 . S
O100 Mn94 2.087 . S
O100 C105 1.256 1_445 S
C101 O107 1.278 . S
C101 O108 1.241 . S
C102 O88 1.244 . S
C102 O90 1.256 1_545 S
C103 O92 1.239 . S
C103 O96 1.256 1_565 S
C104 O93 1.278 . S
C104 O99 1.241 . S
C105 O95 1.244 . S
C105 O100 1.256 1_665 S
C106 O97 1.239 . S
C106 O98 1.256 1_455 S
O107 Mn89 2.221 1_665 S
O107 Mn91 2.290 . S
O107 C101 1.278 . S
O108 Mn91 2.251 . S
O108 C101 1.241 . S
O109 Mn110 2.163 . S
O109 C123 1.244 1_554 S
Mn110 O109 2.163 . S
Mn110 O113 2.160 . S
Mn110 O114 2.221 . S
Mn110 O116 2.163 . S
Mn110 O118 2.160 . S
Mn110 O128 2.221 1_545 S
O111 Mn112 2.087 1_556 S
O111 C123 1.256 1_565 S
Mn112 O111 2.087 1_554 S
Mn112 O119 2.089 . S
Mn112 O128 2.290 . S
Mn112 O129 2.251 . S
O113 Mn110 2.160 . S
O113 C124 1.239 . S
O114 Mn110 2.221 . S
O114 Mn115 2.290 . S
O114 C125 1.278 . S
Mn115 O114 2.290 . S
Mn115 O117 2.089 . S
Mn115 O120 2.251 . S
Mn115 O121 2.087 . S
O116 Mn110 2.163 . S
O116 C126 1.244 . S
O117 Mn115 2.089 . S
O117 C124 1.256 . S
O118 Mn110 2.160 . S
O118 C127 1.239 . S
O119 Mn112 2.089 . S
O119 C127 1.256 1_565 S
O120 Mn115 2.251 . S
O120 C125 1.241 . S
O121 Mn115 2.087 . S
O121 C126 1.256 . S
C122 O128 1.278 . S
C122 O129 1.241 . S
C123 O109 1.244 1_556 S
C123 O111 1.256 1_545 S
C124 O113 1.239 . S
C124 O117 1.256 . S
C125 O114 1.278 . S
C125 O120 1.241 . S
C126 O116 1.244 . S
C126 O121 1.256 . S
C127 O118 1.239 . S
C127 O119 1.256 1_545 S
O128 Mn110 2.221 1_565 S
O128 Mn112 2.290 . S
O128 C122 1.278 . S
O129 Mn112 2.251 . S
O129 C122 1.241 . S
O130 Mn131 2.163 . S
O130 C144 1.244 . S
Mn131 O130 2.163 . S
Mn131 O134 2.160 . S
Mn131 O135 2.221 . S
Mn131 O137 2.163 . S
Mn131 O139 2.160 . S
Mn131 O149 2.221 . S
O132 Mn133 2.087 . S
O132 C144 1.256 . S
Mn133 O132 2.087 . S
Mn133 O140 2.089 . S
Mn133 O149 2.290 . S
Mn133 O150 2.251 . S
O134 Mn131 2.160 . S
O134 C145 1.239 . S
O135 Mn131 2.221 . S
O135 Mn136 2.290 . S
O135 C146 1.278 . S
Mn136 O135 2.290 . S
Mn136 O138 2.089 . S
Mn136 O141 2.251 . S
Mn136 O142 2.087 . S
O137 Mn131 2.163 . S
O137 C147 1.244 . S
O138 Mn136 2.089 . S
O138 C145 1.256 . S
O139 Mn131 2.160 . S
O139 C148 1.239 . S
O140 Mn133 2.089 . S
O140 C148 1.256 . S
O141 Mn136 2.251 . S
O141 C146 1.241 . S
O142 Mn136 2.087 . S
O142 C147 1.256 . S
C143 O149 1.278 . S
C143 O150 1.241 . S
C144 O130 1.244 . S
C144 O132 1.256 . S
C145 O134 1.239 . S
C145 O138 1.256 . S
C146 O135 1.278 . S
C146 O141 1.241 . S
C147 O137 1.244 . S
C147 O142 1.256 . S
C148 O139 1.239 . S
C148 O140 1.256 . S
O149 Mn131 2.221 . S
O149 Mn133 2.290 . S
O149 C143 1.278 . S
O150 Mn133 2.251 . S
O150 C143 1.241 . S
O151 Mn152 2.163 1_655 S
O151 C165 1.244 1_554 S
Mn152 O151 2.163 1_455 S
Mn152 O155 2.160 . S
Mn152 O156 2.221 . S
Mn152 O158 2.163 . S
Mn152 O160 2.160 . S
Mn152 O170 2.221 1_554 S
O153 Mn154 2.087 . S
O153 C165 1.256 . S
Mn154 O153 2.087 . S
Mn154 O161 2.089 . S
Mn154 O170 2.290 1_655 S
Mn154 O171 2.251 1_655 S
O155 Mn152 2.160 . S
O155 C166 1.239 . S
O156 Mn152 2.221 . S
O156 Mn157 2.290 . S
O156 C167 1.278 1_455 S
Mn157 O156 2.290 . S
Mn157 O159 2.089 . S
Mn157 O162 2.251 . S
Mn157 O163 2.087 . S
O158 Mn152 2.163 . S
O158 C168 1.244 . S
O159 Mn157 2.089 . S
O159 C166 1.256 . S
O160 Mn152 2.160 . S
O160 C169 1.239 1_454 S
O161 Mn154 2.089 . S
O161 C169 1.256 . S
O162 Mn157 2.251 . S
O162 C167 1.241 1_455 S
O163 Mn157 2.087 . S
O163 C168 1.256 . S
C164 O170 1.278 . S
C164 O171 1.241 . S
C165 O151 1.244 1_556 S
C165 O153 1.256 . S
C166 O155 1.239 . S
C166 O159 1.256 . S
C167 O156 1.278 1_655 S
C167 O162 1.241 1_655 S
C168 O158 1.244 . S
C168 O163 1.256 . S
C169 O160 1.239 1_656 S
C169 O161 1.256 . S
O170 Mn152 2.221 1_556 S
O170 Mn154 2.290 1_455 S
O170 C164 1.278 . S
O171 Mn154 2.251 1_455 S
O171 C164 1.241 . S
C172 C173 1.391 . S
C172 C174 1.394 . S
C172 H188 0.931 . S
C173 C172 1.391 . S
C173 C177 1.376 . S
C174 C172 1.394 . S
C174 C175 1.369 . S
C174 C178 1.531 . S
C175 C174 1.369 . S
C175 C176 1.410 . S
C175 C183 1.503 . S
C176 C175 1.410 . S
C176 C177 1.392 . S
C176 C179 1.511 . S
C177 C173 1.376 . S
C177 C176 1.392 . S
C177 H189 0.929 . S
C178 C174 1.531 . S
C178 H190 0.960 . S
C178 H191 0.962 . S
C178 H192 0.960 . S
C179 C176 1.511 . S
C179 H193 0.961 . S
C179 H194 0.961 . S
C179 H195 0.961 . S
C180 C181 1.370 . S
C180 C182 1.363 . S
C180 H196 0.931 . S
C181 C180 1.370 . S
C181 C185 1.408 . S
C182 C180 1.363 . S
C182 C183 1.370 . S
C182 C186 1.524 . S
C183 C175 1.503 . S
C183 C182 1.370 . S
C183 C184 1.403 . S
C184 C183 1.403 . S
C184 C185 1.404 . S
C184 C187 1.539 1_545 S
C185 C181 1.408 . S
C185 C184 1.404 . S
C185 H197 0.930 1_545 S
C186 C182 1.524 . S
C186 H198 0.956 . S
C186 H199 0.961 . S
C186 H200 0.961 . S
C187 C184 1.539 1_565 S
C187 H201 0.958 . S
C187 H202 0.961 . S
C187 H203 0.960 . S
H188 C172 0.931 . S
H189 C177 0.929 . S
H190 C178 0.960 . S
H191 C178 0.962 . S
H192 C178 0.960 . S
H193 C179 0.961 . S
H194 C179 0.961 . S
H195 C179 0.961 . S
H196 C180 0.931 . S
H197 C185 0.930 1_565 S
H198 C186 0.956 . S
H199 C186 0.961 . S
H200 C186 0.961 . S
H201 C187 0.958 . S
H202 C187 0.961 . S
H203 C187 0.960 . S
C204 C205 1.391 . S
C204 C206 1.394 . S
C204 H220 0.933 . S
C205 C204 1.391 . S
C205 C209 1.376 . S
C206 C204 1.394 . S
C206 C207 1.369 . S
C206 C210 1.531 1_565 S
C207 C206 1.369 . S
C207 C208 1.410 . S
C207 C215 1.503 . S
C208 C207 1.410 . S
C208 C209 1.392 . S
C208 C211 1.511 . S
C209 C205 1.376 . S
C209 C208 1.392 . S
C209 H221 0.929 . S
C210 C206 1.531 1_545 S
C210 H222 0.960 . S
C210 H223 0.962 . S
C210 H224 0.960 . S
C211 C208 1.511 . S
C211 H225 0.961 . S
C211 H226 0.961 . S
C211 H227 0.961 . S
C212 C213 1.370 1_565 S
C212 C214 1.363 . S
C212 H228 0.931 . S
C213 C212 1.370 1_545 S
C213 C217 1.408 . S
C214 C212 1.363 . S
C214 C215 1.370 . S
C214 C218 1.524 . S
C215 C207 1.503 . S
C215 C214 1.370 . S
C215 C216 1.403 . S
C216 C215 1.403 . S
C216 C217 1.404 1_565 S
C216 C219 1.539 . S
C217 C213 1.408 . S
C217 C216 1.404 1_545 S
C217 H229 0.930 . S
C218 C214 1.524 . S
C218 H230 0.956 . S
C218 H231 0.961 . S
C218 H232 0.961 . S
C219 C216 1.539 . S
C219 H233 0.958 1_565 S
C219 H234 0.961 . S
C219 H235 0.960 . S
H220 C204 0.933 . S
H221 C209 0.929 . S
H222 C210 0.960 . S
H223 C210 0.962 . S
H224 C210 0.960 . S
H225 C211 0.961 . S
H226 C211 0.961 . S
H227 C211 0.961 . S
H228 C212 0.931 . S
H229 C217 0.930 . S
H230 C218 0.956 . S
H231 C218 0.961 . S
H232 C218 0.961 . S
H233 C219 0.958 1_545 S
H234 C219 0.961 . S
H235 C219 0.960 . S
C236 C237 1.391 . S
C236 C238 1.394 . S
C236 H252 0.931 . S
C237 C236 1.391 . S
C237 C241 1.376 . S
C238 C236 1.394 . S
C238 C239 1.369 . S
C238 C242 1.531 . S
C239 C238 1.369 . S
C239 C240 1.410 . S
C239 C247 1.503 . S
C240 C239 1.410 . S
C240 C241 1.392 . S
C240 C243 1.511 . S
C241 C237 1.376 . S
C241 C240 1.392 . S
C241 H253 0.929 . S
C242 C238 1.531 . S
C242 H254 0.960 . S
C242 H255 0.962 . S
C242 H256 0.960 . S
C243 C240 1.511 . S
C243 H257 0.961 . S
C243 H258 0.961 . S
C243 H259 0.961 . S
C244 C245 1.370 . S
C244 C246 1.363 . S
C244 H260 0.931 . S
C245 C244 1.370 . S
C245 C249 1.408 . S
C246 C244 1.363 . S
C246 C247 1.370 . S
C246 C250 1.524 . S
C247 C239 1.503 . S
C247 C246 1.370 . S
C247 C248 1.403 . S
C248 C247 1.403 . S
C248 C249 1.404 . S
C248 C251 1.539 . S
C249 C245 1.408 . S
C249 C248 1.404 . S
C249 H261 0.930 . S
C250 C246 1.524 . S
C250 H262 0.956 . S
C250 H263 0.961 . S
C250 H264 0.961 . S
C251 C248 1.539 . S
C251 H265 0.958 . S
C251 H266 0.961 . S
C251 H267 0.960 . S
H252 C236 0.931 . S
H253 C241 0.929 . S
H254 C242 0.960 . S
H255 C242 0.962 . S
H256 C242 0.960 . S
H257 C243 0.961 . S
H258 C243 0.961 . S
H259 C243 0.961 . S
H260 C244 0.931 . S
H261 C249 0.930 . S
H262 C250 0.956 . S
H263 C250 0.961 . S
H264 C250 0.961 . S
H265 C251 0.958 . S
H266 C251 0.961 . S
H267 C251 0.960 . S
C268 C269 1.391 . S
C268 C270 1.394 . S
C268 H284 0.931 . S
C269 C268 1.391 . S
C269 C273 1.376 . S
C270 C268 1.394 . S
C270 C271 1.369 . S
C270 C274 1.531 . S
C271 C270 1.369 . S
C271 C272 1.410 . S
C271 C279 1.503 . S
C272 C271 1.410 . S
C272 C273 1.392 . S
C272 C275 1.511 1_655 S
C273 C269 1.376 . S
C273 C272 1.392 . S
C273 H285 0.929 . S
C274 C270 1.531 . S
C274 H286 0.960 . S
C274 H287 0.962 . S
C274 H288 0.960 . S
C275 C272 1.511 1_455 S
C275 H289 0.961 . S
C275 H290 0.961 . S
C275 H291 0.961 . S
C276 C277 1.370 . S
C276 C278 1.363 . S
C276 H292 0.931 . S
C277 C276 1.370 . S
C277 C281 1.408 . S
C278 C276 1.363 . S
C278 C279 1.370 . S
C278 C282 1.524 . S
C279 C271 1.503 . S
C279 C278 1.370 . S
C279 C280 1.403 . S
C280 C279 1.403 . S
C280 C281 1.404 . S
C280 C283 1.539 1_655 S
C281 C277 1.408 . S
C281 C280 1.404 . S
C281 H293 0.930 1_655 S
C282 C278 1.524 . S
C282 H294 0.956 . S
C282 H295 0.961 . S
C282 H296 0.961 . S
C283 C280 1.539 1_455 S
C283 H297 0.958 . S
C283 H298 0.961 . S
C283 H299 0.960 . S
H284 C268 0.931 . S
H285 C273 0.929 . S
H286 C274 0.960 . S
H287 C274 0.962 . S
H288 C274 0.960 . S
H289 C275 0.961 . S
H290 C275 0.961 . S
H291 C275 0.961 . S
H292 C276 0.931 . S
H293 C281 0.930 1_455 S
H294 C282 0.956 . S
H295 C282 0.961 . S
H296 C282 0.961 . S
H297 C283 0.958 . S
H298 C283 0.961 . S
H299 C283 0.960 . S
C300 C301 1.391 . S
C300 C302 1.394 . S
C300 H316 0.931 . S
C301 C300 1.391 . S
C301 C305 1.376 . S
C302 C300 1.394 . S
C302 C303 1.369 . S
C302 C306 1.531 . S
C303 C302 1.369 . S
C303 C304 1.410 . S
C303 C311 1.503 . S
C304 C303 1.410 . S
C304 C305 1.392 . S
C304 C307 1.511 . S
C305 C301 1.376 . S
C305 C304 1.392 . S
C305 H317 0.929 . S
C306 C302 1.531 . S
C306 H318 0.960 . S
C306 H319 0.962 . S
C306 H320 0.960 . S
C307 C304 1.511 . S
C307 H321 0.961 . S
C307 H322 0.961 . S
C307 H323 0.961 . S
C308 C309 1.370 . S
C308 C310 1.363 . S
C308 H324 0.931 . S
C309 C308 1.370 . S
C309 C313 1.408 . S
C310 C308 1.363 . S
C310 C311 1.370 . S
C310 C314 1.524 . S
C311 C303 1.503 . S
C311 C310 1.370 . S
C311 C312 1.403 . S
C312 C311 1.403 . S
C312 C313 1.404 . S
C312 C315 1.539 . S
C313 C309 1.408 . S
C313 C312 1.404 . S
C313 H325 0.930 . S
C314 C310 1.524 . S
C314 H326 0.956 . S
C314 H327 0.961 . S
C314 H328 0.961 . S
C315 C312 1.539 . S
C315 H329 0.958 . S
C315 H330 0.961 1_545 S
C315 H331 0.960 . S
H316 C300 0.931 . S
H317 C305 0.929 . S
H318 C306 0.960 . S
H319 C306 0.962 . S
H320 C306 0.960 . S
H321 C307 0.961 . S
H322 C307 0.961 . S
H323 C307 0.961 . S
H324 C308 0.931 . S
H325 C313 0.930 . S
H326 C314 0.956 . S
H327 C314 0.961 . S
H328 C314 0.961 . S
H329 C315 0.958 . S
H330 C315 0.961 1_565 S
H331 C315 0.960 . S
C332 C333 1.391 . S
C332 C334 1.394 . S
C332 H348 0.931 . S
C333 C332 1.391 . S
C333 C337 1.376 . S
C334 C332 1.394 . S
C334 C335 1.369 . S
C334 C338 1.531 . S
C335 C334 1.369 . S
C335 C336 1.410 . S
C335 C343 1.503 . S
C336 C335 1.410 . S
C336 C337 1.392 . S
C336 C339 1.511 . S
C337 C333 1.376 . S
C337 C336 1.392 . S
C337 H349 0.929 . S
C338 C334 1.531 . S
C338 H350 0.960 . S
C338 H351 0.962 . S
C338 H352 0.960 . S
C339 C336 1.511 . S
C339 H353 0.961 . S
C339 H354 0.961 . S
C339 H355 0.961 . S
C340 C341 1.370 . S
C340 C342 1.363 . S
C340 H356 0.931 1_565 S
C341 C340 1.370 . S
C341 C345 1.408 . S
C342 C340 1.363 . S
C342 C343 1.370 . S
C342 C346 1.524 1_565 S
C343 C335 1.503 . S
C343 C342 1.370 . S
C343 C344 1.403 . S
C344 C343 1.403 . S
C344 C345 1.404 . S
C344 C347 1.539 . S
C345 C341 1.408 . S
C345 C344 1.404 . S
C345 H357 0.930 . S
C346 C342 1.524 1_545 S
C346 H358 0.956 . S
C346 H359 0.961 . S
C346 H360 0.961 . S
C347 C344 1.539 . S
C347 H361 0.958 . S
C347 H362 0.961 . S
C347 H363 0.960 . S
H348 C332 0.931 . S
H349 C337 0.929 . S
H350 C338 0.960 . S
H351 C338 0.962 . S
H352 C338 0.960 . S
H353 C339 0.961 . S
H354 C339 0.961 . S
H355 C339 0.961 . S
H356 C340 0.931 1_545 S
H357 C345 0.930 . S
H358 C346 0.956 . S
H359 C346 0.961 . S
H360 C346 0.961 . S
H361 C347 0.958 . S
H362 C347 0.961 . S
H363 C347 0.960 . S
C364 C365 1.391 . S
C364 C366 1.394 . S
C364 H380 0.931 . S
C365 C364 1.391 . S
C365 C369 1.376 . S
C366 C364 1.394 . S
C366 C367 1.369 . S
C366 C370 1.531 . S
C367 C366 1.369 . S
C367 C368 1.410 . S
C367 C375 1.503 . S
C368 C367 1.410 . S
C368 C369 1.392 . S
C368 C371 1.511 . S
C369 C365 1.376 . S
C369 C368 1.392 . S
C369 H381 0.929 . S
C370 C366 1.531 . S
C370 H382 0.960 . S
C370 H383 0.962 1_556 S
C370 H384 0.960 . S
C371 C368 1.511 . S
C371 H385 0.961 . S
C371 H386 0.961 . S
C371 H387 0.961 . S
C372 C373 1.365 1_554 S
C372 C374 1.360 1_554 S
C372 H388 0.939 . S
C373 C372 1.365 1_556 S
C373 C377 1.408 . S
C374 C372 1.360 1_556 S
C374 C375 1.370 . S
C374 C378 1.524 1_556 S
C375 C367 1.503 . S
C375 C374 1.370 . S
C375 C376 1.403 . S
C376 C375 1.403 . S
C376 C377 1.404 . S
C376 C379 1.539 . S
C377 C373 1.408 . S
C377 C376 1.404 . S
C377 H389 0.930 . S
C378 C374 1.524 1_554 S
C378 H390 0.956 . S
C378 H391 0.961 1_554 S
C378 H392 0.961 . S
C379 C376 1.539 . S
C379 H393 0.958 . S
C379 H394 0.961 . S
C379 H395 0.960 . S
H380 C364 0.931 . S
H381 C369 0.929 . S
H382 C370 0.960 . S
H383 C370 0.962 1_554 S
H384 C370 0.960 . S
H385 C371 0.961 . S
H386 C371 0.961 . S
H387 C371 0.961 . S
H388 C372 0.939 . S
H389 C377 0.930 . S
H390 C378 0.956 . S
H391 C378 0.961 1_556 S
H392 C378 0.961 . S
H393 C379 0.958 . S
H394 C379 0.961 . S
H395 C379 0.960 . S
C396 C397 1.391 . S
C396 C398 1.394 . S
C396 H412 0.931 . S
C397 C396 1.391 . S
C397 C401 1.376 . S
C398 C396 1.394 . S
C398 C399 1.369 . S
C398 C402 1.531 . S
C399 C398 1.369 . S
C399 C400 1.410 . S
C399 C407 1.503 . S
C400 C399 1.410 . S
C400 C401 1.392 . S
C400 C403 1.511 . S
C401 C397 1.376 . S
C401 C400 1.392 . S
C401 H413 0.929 . S
C402 C398 1.531 . S
C402 H414 0.960 . S
C402 H415 0.962 . S
C402 H416 0.960 . S
C403 C400 1.511 . S
C403 H417 0.961 . S
C403 H418 0.961 . S
C403 H419 0.961 . S
C404 C405 1.370 . S
C404 C406 1.363 . S
C404 H420 0.931 . S
C405 C404 1.370 . S
C405 C409 1.408 . S
C406 C404 1.363 . S
C406 C407 1.370 . S
C406 C410 1.524 . S
C407 C399 1.503 . S
C407 C406 1.370 . S
C407 C408 1.403 . S
C408 C407 1.403 . S
C408 C409 1.404 . S
C408 C411 1.539 . S
C409 C405 1.408 . S
C409 C408 1.404 . S
C409 H421 0.930 . S
C410 C406 1.524 . S
C410 H422 0.956 . S
C410 H423 0.961 . S
C410 H424 0.961 . S
C411 C408 1.539 . S
C411 H425 0.958 . S
C411 H426 0.961 . S
C411 H427 0.960 . S
H412 C396 0.931 . S
H413 C401 0.929 . S
H414 C402 0.960 . S
H415 C402 0.962 . S
H416 C402 0.960 . S
H417 C403 0.961 . S
H418 C403 0.961 . S
H419 C403 0.961 . S
H420 C404 0.931 . S
H421 C409 0.930 . S
H422 C410 0.956 . S
H423 C410 0.961 . S
H424 C410 0.961 . S
H425 C411 0.958 . S
H426 C411 0.961 . S
H427 C411 0.960 . S
C428 C429 1.391 . S
C428 C430 1.394 . S
C428 H444 0.931 . S
C429 C428 1.391 . S
C429 C433 1.376 . S
C430 C428 1.394 . S
C430 C431 1.369 . S
C430 C434 1.531 . S
C431 C430 1.369 . S
C431 C432 1.410 . S
C431 C439 1.503 . S
C432 C431 1.410 . S
C432 C433 1.392 . S
C432 C435 1.511 . S
C433 C429 1.376 . S
C433 C432 1.392 . S
C433 H445 0.929 . S
C434 C430 1.531 . S
C434 H446 0.960 . S
C434 H447 0.962 . S
C434 H448 0.960 . S
C435 C432 1.511 . S
C435 H449 0.961 . S
C435 H450 0.961 . S
C435 H451 0.961 . S
C436 C437 1.370 . S
C436 C438 1.363 . S
C436 H452 0.931 . S
C437 C436 1.370 . S
C437 C441 1.408 . S
C438 C436 1.363 . S
C438 C439 1.370 . S
C438 C442 1.524 . S
C439 C431 1.503 . S
C439 C438 1.370 . S
C439 C440 1.403 . S
C440 C439 1.403 . S
C440 C441 1.404 . S
C440 C443 1.539 . S
C441 C437 1.408 . S
C441 C440 1.404 . S
C441 H453 0.930 . S
C442 C438 1.524 . S
C442 H454 0.956 . S
C442 H455 0.961 . S
C442 H456 0.961 . S
C443 C440 1.539 . S
C443 H457 0.958 . S
C443 H458 0.961 . S
C443 H459 0.960 . S
H444 C428 0.931 . S
H445 C433 0.929 . S
H446 C434 0.960 . S
H447 C434 0.962 . S
H448 C434 0.960 . S
H449 C435 0.961 . S
H450 C435 0.961 . S
H451 C435 0.961 . S
H452 C436 0.931 . S
H453 C441 0.930 . S
H454 C442 0.956 . S
H455 C442 0.961 . S
H456 C442 0.961 . S
H457 C443 0.958 . S
H458 C443 0.961 . S
H459 C443 0.960 . S
C460 C461 1.391 . S
C460 C462 1.394 . S
C460 H476 0.931 . S
C461 C460 1.391 . S
C461 C465 1.376 . S
C462 C460 1.394 . S
C462 C463 1.369 . S
C462 C466 1.531 . S
C463 C462 1.369 . S
C463 C464 1.410 . S
C463 C471 1.503 . S
C464 C463 1.410 . S
C464 C465 1.392 . S
C464 C467 1.511 . S
C465 C461 1.376 . S
C465 C464 1.392 . S
C465 H477 0.929 . S
C466 C462 1.531 . S
C466 H478 0.960 . S
C466 H479 0.962 . S
C466 H480 0.960 . S
C467 C464 1.511 . S
C467 H481 0.961 1_556 S
C467 H482 0.961 1_556 S
C467 H483 0.961 . S
C468 C469 1.370 . S
C468 C470 1.363 . S
C468 H484 0.931 . S
C469 C468 1.370 . S
C469 C473 1.408 1_554 S
C470 C468 1.363 . S
C470 C471 1.370 1_554 S
C470 C474 1.524 . S
C471 C463 1.503 . S
C471 C470 1.370 1_556 S
C471 C472 1.403 . S
C472 C471 1.403 . S
C472 C473 1.404 . S
C472 C475 1.539 . S
C473 C469 1.408 1_556 S
C473 C472 1.404 . S
C473 H485 0.930 . S
C474 C470 1.524 . S
C474 H486 0.956 . S
C474 H487 0.961 . S
C474 H488 0.961 . S
C475 C472 1.539 . S
C475 H489 0.958 . S
C475 H490 0.961 . S
C475 H491 0.960 . S
H476 C460 0.931 . S
H477 C465 0.929 . S
H478 C466 0.960 . S
H479 C466 0.962 . S
H480 C466 0.960 . S
H481 C467 0.961 1_554 S
H482 C467 0.961 1_554 S
H483 C467 0.961 . S
H484 C468 0.931 . S
H485 C473 0.930 . S
H486 C474 0.956 . S
H487 C474 0.961 . S
H488 C474 0.961 . S
H489 C475 0.958 . S
H490 C475 0.961 . S
H491 C475 0.960 . S
C492 C493 1.391 . S
C492 C494 1.394 . S
C492 H508 0.931 . S
C493 C492 1.391 . S
C493 C497 1.376 . S
C494 C492 1.394 . S
C494 C495 1.369 . S
C494 C498 1.531 . S
C495 C494 1.369 . S
C495 C496 1.410 . S
C495 C503 1.503 . S
C496 C495 1.410 . S
C496 C497 1.392 . S
C496 C499 1.511 . S
C497 C493 1.376 . S
C497 C496 1.392 . S
C497 H509 0.929 . S
C498 C494 1.531 . S
C498 H510 0.960 . S
C498 H511 0.962 . S
C498 H512 0.960 . S
C499 C496 1.511 . S
C499 H513 0.961 1_655 S
C499 H514 0.961 1_655 S
C499 H515 0.961 . S
C500 C501 1.370 . S
C500 C502 1.363 . S
C500 H516 0.931 . S
C501 C500 1.370 . S
C501 C505 1.408 . S
C502 C500 1.363 . S
C502 C503 1.370 . S
C502 C506 1.524 . S
C503 C495 1.503 . S
C503 C502 1.370 . S
C503 C504 1.403 . S
C504 C503 1.403 . S
C504 C505 1.404 . S
C504 C507 1.539 . S
C505 C501 1.408 . S
C505 C504 1.404 . S
C505 H517 0.930 . S
C506 C502 1.524 . S
C506 H518 0.956 . S
C506 H519 0.961 . S
C506 H520 0.961 . S
C507 C504 1.539 . S
C507 H521 0.958 . S
C507 H522 0.961 . S
C507 H523 0.960 . S
H508 C492 0.931 . S
H509 C497 0.929 . S
H510 C498 0.960 . S
H511 C498 0.962 . S
H512 C498 0.960 . S
H513 C499 0.961 1_455 S
H514 C499 0.961 1_455 S
H515 C499 0.961 . S
H516 C500 0.931 . S
H517 C505 0.930 . S
H518 C506 0.956 . S
H519 C506 0.961 . S
H520 C506 0.961 . S
H521 C507 0.958 . S
H522 C507 0.961 . S
H523 C507 0.960 . S
C524 C525 1.391 . S
C524 C526 1.394 . S
C524 H540 0.931 . S
C525 C524 1.391 . S
C525 C529 1.376 . S
C526 C524 1.394 . S
C526 C527 1.369 . S
C526 C530 1.531 . S
C527 C526 1.369 . S
C527 C528 1.410 . S
C527 C535 1.503 . S
C528 C527 1.410 . S
C528 C529 1.392 . S
C528 C531 1.511 . S
C529 C525 1.376 . S
C529 C528 1.392 . S
C529 H541 0.929 . S
C530 C526 1.531 . S
C530 H542 0.960 . S
C530 H543 0.962 . S
C530 H544 0.960 . S
C531 C528 1.511 . S
C531 H545 0.961 . S
C531 H546 0.961 . S
C531 H547 0.961 . S
C532 C533 1.370 . S
C532 C534 1.363 . S
C532 H548 0.931 . S
C533 C532 1.370 . S
C533 C537 1.408 . S
C534 C532 1.363 . S
C534 C535 1.370 . S
C534 C538 1.524 . S
C535 C527 1.503 . S
C535 C534 1.370 . S
C535 C536 1.403 . S
C536 C535 1.403 . S
C536 C537 1.404 . S
C536 C539 1.539 . S
C537 C533 1.408 . S
C537 C536 1.404 . S
C537 H549 0.930 . S
C538 C534 1.524 . S
C538 H550 0.956 . S
C538 H551 0.961 . S
C538 H552 0.961 . S
C539 C536 1.539 . S
C539 H553 0.958 . S
C539 H554 0.961 . S
C539 H555 0.960 . S
H540 C524 0.931 . S
H541 C529 0.929 . S
H542 C530 0.960 . S
H543 C530 0.962 . S
H544 C530 0.960 . S
H545 C531 0.961 . S
H546 C531 0.961 . S
H547 C531 0.961 . S
H548 C532 0.931 . S
H549 C537 0.930 . S
H550 C538 0.956 . S
H551 C538 0.961 . S
H552 C538 0.961 . S
H553 C539 0.958 . S
H554 C539 0.961 . S
H555 C539 0.960 . S
C556 C557 1.391 . S
C556 C558 1.394 . S
C556 H572 0.931 . S
C557 C556 1.391 . S
C557 C561 1.376 . S
C558 C556 1.394 . S
C558 C559 1.369 . S
C558 C562 1.531 . S
C559 C558 1.369 . S
C559 C560 1.410 . S
C559 C567 1.503 . S
C560 C559 1.410 . S
C560 C561 1.392 . S
C560 C563 1.511 . S
C561 C557 1.376 . S
C561 C560 1.392 . S
C561 H573 0.929 . S
C562 C558 1.531 . S
C562 H574 0.960 1_565 S
C562 H575 0.962 . S
C562 H576 0.960 1_565 S
C563 C560 1.511 . S
C563 H577 0.961 . S
C563 H578 0.961 . S
C563 H579 0.961 1_655 S
C564 C565 1.370 . S
C564 C566 1.363 . S
C564 H580 0.931 . S
C565 C564 1.370 . S
C565 C569 1.408 . S
C566 C564 1.363 . S
C566 C567 1.370 . S
C566 C570 1.524 . S
C567 C559 1.503 . S
C567 C566 1.370 . S
C567 C568 1.403 . S
C568 C567 1.403 . S
C568 C569 1.404 . S
C568 C571 1.539 1_565 S
C569 C565 1.408 . S
C569 C568 1.404 . S
C569 H581 0.930 1_665 S
C570 C566 1.524 . S
C570 H582 0.956 . S
C570 H583 0.961 . S
C570 H584 0.961 . S
C571 C568 1.539 1_545 S
C571 H585 0.958 . S
C571 H586 0.961 1_655 S
C571 H587 0.960 . S
H572 C556 0.931 . S
H573 C561 0.929 . S
H574 C562 0.960 1_545 S
H575 C562 0.962 . S
H576 C562 0.960 1_545 S
H577 C563 0.961 . S
H578 C563 0.961 . S
H579 C563 0.961 1_455 S
H580 C564 0.931 . S
H581 C569 0.930 1_445 S
H582 C570 0.956 . S
H583 C570 0.961 . S
H584 C570 0.961 . S
H585 C571 0.958 . S
H586 C571 0.961 1_455 S
H587 C571 0.960 . S
C588 C589 1.391 . S
C588 C590 1.394 . S
C588 H604 0.931 . S
C589 C588 1.391 . S
C589 C593 1.376 . S
C590 C588 1.394 . S
C590 C591 1.369 . S
C590 C594 1.531 . S
C591 C590 1.369 . S
C591 C592 1.410 . S
C591 C599 1.503 . S
C592 C591 1.410 . S
C592 C593 1.392 . S
C592 C595 1.511 . S
C593 C589 1.376 . S
C593 C592 1.392 . S
C593 H605 0.929 . S
C594 C590 1.531 . S
C594 H606 0.960 . S
C594 H607 0.962 . S
C594 H608 0.960 . S
C595 C592 1.511 . S
C595 H609 0.961 . S
C595 H610 0.961 . S
C595 H611 0.961 . S
C596 C597 1.370 . S
C596 C598 1.363 . S
C596 H612 0.931 . S
C597 C596 1.370 . S
C597 C601 1.408 . S
C598 C596 1.363 . S
C598 C599 1.370 . S
C598 C602 1.524 . S
C599 C591 1.503 . S
C599 C598 1.370 . S
C599 C600 1.403 . S
C600 C599 1.403 . S
C600 C601 1.404 . S
C600 C603 1.539 . S
C601 C597 1.408 . S
C601 C600 1.404 . S
C601 H613 0.930 . S
C602 C598 1.524 . S
C602 H614 0.956 . S
C602 H615 0.961 . S
C602 H616 0.961 . S
C603 C600 1.539 . S
C603 H617 0.958 . S
C603 H618 0.961 . S
C603 H619 0.960 . S
H604 C588 0.931 . S
H605 C593 0.929 . S
H606 C594 0.960 . S
H607 C594 0.962 . S
H608 C594 0.960 . S
H609 C595 0.961 . S
H610 C595 0.961 . S
H611 C595 0.961 . S
H612 C596 0.931 . S
H613 C601 0.930 . S
H614 C602 0.956 . S
H615 C602 0.961 . S
H616 C602 0.961 . S
H617 C603 0.958 . S
H618 C603 0.961 . S
H619 C603 0.960 . S
C620 C621 1.391 . S
C620 C622 1.394 . S
C620 H636 0.931 . S
C621 C620 1.391 . S
C621 C625 1.376 . S
C622 C620 1.394 . S
C622 C623 1.369 . S
C622 C626 1.531 . S
C623 C622 1.369 . S
C623 C624 1.410 . S
C623 C631 1.503 . S
C624 C623 1.410 . S
C624 C625 1.392 . S
C624 C627 1.511 . S
C625 C621 1.376 . S
C625 C624 1.392 . S
C625 H637 0.929 . S
C626 C622 1.531 . S
C626 H638 0.960 . S
C626 H639 0.962 . S
C626 H640 0.960 . S
C627 C624 1.511 . S
C627 H641 0.961 . S
C627 H642 0.961 . S
C627 H643 0.961 . S
C628 C629 1.370 . S
C628 C630 1.363 . S
C628 H644 0.931 . S
C629 C628 1.370 . S
C629 C633 1.408 . S
C630 C628 1.363 . S
C630 C631 1.370 . S
C630 C634 1.524 . S
C631 C623 1.503 . S
C631 C630 1.370 . S
C631 C632 1.403 . S
C632 C631 1.403 . S
C632 C633 1.404 . S
C632 C635 1.539 . S
C633 C629 1.408 . S
C633 C632 1.404 . S
C633 H645 0.930 . S
C634 C630 1.524 . S
C634 H646 0.956 . S
C634 H647 0.961 . S
C634 H648 0.961 . S
C635 C632 1.539 . S
C635 H649 0.958 . S
C635 H650 0.961 . S
C635 H651 0.960 . S
H636 C620 0.931 . S
H637 C625 0.929 . S
H638 C626 0.960 . S
H639 C626 0.962 . S
H640 C626 0.960 . S
H641 C627 0.961 . S
H642 C627 0.961 . S
H643 C627 0.961 . S
H644 C628 0.931 . S
H645 C633 0.930 . S
H646 C634 0.956 . S
H647 C634 0.961 . S
H648 C634 0.961 . S
H649 C635 0.958 . S
H650 C635 0.961 . S
H651 C635 0.960 . S
C652 C653 1.391 . S
C652 C654 1.394 . S
C652 H668 0.931 . S
C653 C652 1.391 . S
C653 C657 1.376 . S
C654 C652 1.394 . S
C654 C655 1.369 . S
C654 C658 1.531 . S
C655 C654 1.369 . S
C655 C656 1.410 . S
C655 C663 1.503 . S
C656 C655 1.410 . S
C656 C657 1.392 . S
C656 C659 1.511 . S
C657 C653 1.376 . S
C657 C656 1.392 . S
C657 H669 0.929 . S
C658 C654 1.531 . S
C658 H670 0.960 . S
C658 H671 0.962 . S
C658 H672 0.960 . S
C659 C656 1.511 . S
C659 H673 0.961 . S
C659 H674 0.961 . S
C659 H675 0.961 . S
C660 C661 1.370 . S
C660 C662 1.363 . S
C660 H676 0.931 . S
C661 C660 1.370 . S
C661 C665 1.408 . S
C662 C660 1.363 . S
C662 C663 1.370 . S
C662 C666 1.524 . S
C663 C655 1.503 . S
C663 C662 1.370 . S
C663 C664 1.403 . S
C664 C663 1.403 . S
C664 C665 1.404 . S
C664 C667 1.539 . S
C665 C661 1.408 . S
C665 C664 1.404 . S
C665 H677 0.930 . S
C666 C662 1.524 . S
C666 H678 0.956 . S
C666 H679 0.961 . S
C666 H680 0.961 . S
C667 C664 1.539 . S
C667 H681 0.958 . S
C667 H682 0.961 . S
C667 H683 0.960 . S
H668 C652 0.931 . S
H669 C657 0.929 . S
H670 C658 0.960 . S
H671 C658 0.962 . S
H672 C658 0.960 . S
H673 C659 0.961 . S
H674 C659 0.961 . S
H675 C659 0.961 . S
H676 C660 0.931 . S
H677 C665 0.930 . S
H678 C666 0.956 . S
H679 C666 0.961 . S
H680 C666 0.961 . S
H681 C667 0.958 . S
H682 C667 0.961 . S
H683 C667 0.960 . S
C684 C685 1.391 . S
C684 C686 1.394 . S
C684 H700 0.931 . S
C685 C684 1.391 . S
C685 C689 1.376 . S
C686 C684 1.394 . S
C686 C687 1.369 . S
C686 C690 1.531 1_556 S
C687 C686 1.369 . S
C687 C688 1.410 . S
C687 C695 1.503 . S
C688 C687 1.410 . S
C688 C689 1.392 . S
C688 C691 1.511 1_565 S
C689 C685 1.376 . S
C689 C688 1.392 . S
C689 H701 0.929 1_565 S
C690 C686 1.531 1_554 S
C690 H702 0.960 . S
C690 H703 0.962 . S
C690 H704 0.960 . S
C691 C688 1.511 1_545 S
C691 H705 0.961 . S
C691 H706 0.961 . S
C691 H707 0.961 . S
C692 C693 1.370 1_566 S
C692 C694 1.363 . S
C692 H708 0.931 . S
C693 C692 1.370 1_544 S
C693 C697 1.408 . S
C694 C692 1.363 . S
C694 C695 1.370 . S
C694 C698 1.524 . S
C695 C687 1.503 . S
C695 C694 1.370 . S
C695 C696 1.403 1_566 S
C696 C695 1.403 1_544 S
C696 C697 1.404 . S
C696 C699 1.539 . S
C697 C693 1.408 . S
C697 C696 1.404 . S
C697 H709 0.930 . S
C698 C694 1.524 . S
C698 H710 0.956 . S
C698 H711 0.961 . S
C698 H712 0.961 . S
C699 C696 1.539 . S
C699 H713 0.958 . S
C699 H714 0.961 . S
C699 H715 0.960 . S
H700 C684 0.931 . S
H701 C689 0.929 1_545 S
H702 C690 0.960 . S
H703 C690 0.962 . S
H704 C690 0.960 . S
H705 C691 0.961 . S
H706 C691 0.961 . S
H707 C691 0.961 . S
H708 C692 0.931 . S
H709 C697 0.930 . S
H710 C698 0.956 . S
H711 C698 0.961 . S
H712 C698 0.961 . S
H713 C699 0.958 . S
H714 C699 0.961 . S
H715 C699 0.960 . S
C716 C717 1.391 . S
C716 C718 1.394 . S
C716 H732 0.931 . S
C717 C716 1.391 . S
C717 C721 1.376 . S
C718 C716 1.394 . S
C718 C719 1.369 . S
C718 C722 1.531 . S
C719 C718 1.369 . S
C719 C720 1.410 . S
C719 C727 1.503 . S
C720 C719 1.410 . S
C720 C721 1.392 . S
C720 C723 1.511 . S
C721 C717 1.376 . S
C721 C720 1.392 . S
C721 H733 0.929 . S
C722 C718 1.531 . S
C722 H734 0.960 . S
C722 H735 0.962 . S
C722 H736 0.960 . S
C723 C720 1.511 . S
C723 H737 0.961 . S
C723 H738 0.961 . S
C723 H739 0.961 . S
C724 C725 1.370 . S
C724 C726 1.363 . S
C724 H740 0.931 . S
C725 C724 1.370 . S
C725 C729 1.408 . S
C726 C724 1.363 . S
C726 C727 1.370 . S
C726 C730 1.524 . S
C727 C719 1.503 . S
C727 C726 1.370 . S
C727 C728 1.403 . S
C728 C727 1.403 . S
C728 C729 1.404 . S
C728 C731 1.539 . S
C729 C725 1.408 . S
C729 C728 1.404 . S
C729 H741 0.930 . S
C730 C726 1.524 . S
C730 H742 0.956 . S
C730 H743 0.961 . S
C730 H744 0.961 . S
C731 C728 1.539 . S
C731 H745 0.958 . S
C731 H746 0.961 . S
C731 H747 0.960 . S
H732 C716 0.931 . S
H733 C721 0.929 . S
H734 C722 0.960 . S
H735 C722 0.962 . S
H736 C722 0.960 . S
H737 C723 0.961 . S
H738 C723 0.961 . S
H739 C723 0.961 . S
H740 C724 0.931 . S
H741 C729 0.930 . S
H742 C730 0.956 . S
H743 C730 0.961 . S
H744 C730 0.961 . S
H745 C731 0.958 . S
H746 C731 0.961 . S
H747 C731 0.960 . S
C748 C749 1.391 . S
C748 C750 1.394 . S
C748 H764 0.931 . S
C749 C748 1.391 . S
C749 C753 1.376 . S
C750 C748 1.394 . S
C750 C751 1.369 . S
C750 C754 1.531 . S
C751 C750 1.369 . S
C751 C752 1.410 . S
C751 C759 1.503 . S
C752 C751 1.410 . S
C752 C753 1.392 . S
C752 C755 1.511 . S
C753 C749 1.376 . S
C753 C752 1.392 . S
C753 H765 0.929 . S
C754 C750 1.531 . S
C754 H766 0.960 . S
C754 H767 0.962 . S
C754 H768 0.960 . S
C755 C752 1.511 . S
C755 H769 0.961 . S
C755 H770 0.961 . S
C755 H771 0.961 . S
C756 C757 1.370 . S
C756 C758 1.363 . S
C756 H772 0.931 . S
C757 C756 1.370 . S
C757 C761 1.408 . S
C758 C756 1.363 . S
C758 C759 1.370 . S
C758 C762 1.524 . S
C759 C751 1.503 . S
C759 C758 1.370 . S
C759 C760 1.403 . S
C760 C759 1.403 . S
C760 C761 1.404 . S
C760 C763 1.539 . S
C761 C757 1.408 . S
C761 C760 1.404 . S
C761 H773 0.930 . S
C762 C758 1.524 . S
C762 H774 0.956 . S
C762 H775 0.961 . S
C762 H776 0.961 . S
C763 C760 1.539 . S
C763 H777 0.958 . S
C763 H778 0.961 . S
C763 H779 0.960 . S
H764 C748 0.931 . S
H765 C753 0.929 . S
H766 C754 0.960 . S
H767 C754 0.962 . S
H768 C754 0.960 . S
H769 C755 0.961 . S
H770 C755 0.961 . S
H771 C755 0.961 . S
H772 C756 0.931 . S
H773 C761 0.930 . S
H774 C762 0.956 . S
H775 C762 0.961 . S
H776 C762 0.961 . S
H777 C763 0.958 . S
H778 C763 0.961 . S
H779 C763 0.960 . S
C780 C781 1.391 . S
C780 C782 1.394 . S
C780 H796 0.931 . S
C781 C780 1.391 . S
C781 C785 1.376 . S
C782 C780 1.394 . S
C782 C783 1.369 . S
C782 C786 1.531 . S
C783 C782 1.369 . S
C783 C784 1.410 . S
C783 C791 1.503 . S
C784 C783 1.410 . S
C784 C785 1.392 . S
C784 C787 1.511 . S
C785 C781 1.376 . S
C785 C784 1.392 . S
C785 H797 0.929 . S
C786 C782 1.531 . S
C786 H798 0.960 . S
C786 H799 0.962 . S
C786 H800 0.960 . S
C787 C784 1.511 . S
C787 H801 0.961 . S
C787 H802 0.961 . S
C787 H803 0.961 . S
C788 C789 1.370 . S
C788 C790 1.363 . S
C788 H804 0.931 . S
C789 C788 1.370 . S
C789 C793 1.408 . S
C790 C788 1.363 . S
C790 C791 1.370 . S
C790 C794 1.524 . S
C791 C783 1.503 . S
C791 C790 1.370 . S
C791 C792 1.403 . S
C792 C791 1.403 . S
C792 C793 1.404 . S
C792 C795 1.539 . S
C793 C789 1.408 . S
C793 C792 1.404 . S
C793 H805 0.930 . S
C794 C790 1.524 . S
C794 H806 0.956 . S
C794 H807 0.961 . S
C794 H808 0.961 . S
C795 C792 1.539 . S
C795 H809 0.958 . S
C795 H810 0.961 . S
C795 H811 0.960 . S
H796 C780 0.931 . S
H797 C785 0.929 . S
H798 C786 0.960 . S
H799 C786 0.962 . S
H800 C786 0.960 . S
H801 C787 0.961 . S
H802 C787 0.961 . S
H803 C787 0.961 . S
H804 C788 0.931 . S
H805 C793 0.930 . S
H806 C794 0.956 . S
H807 C794 0.961 . S
H808 C794 0.961 . S
H809 C795 0.958 . S
H810 C795 0.961 . S
H811 C795 0.960 . S
C812 C813 1.391 . S
C812 C814 1.394 . S
C812 H828 0.931 . S
C813 C812 1.391 . S
C813 C817 1.376 . S
C814 C812 1.394 . S
C814 C815 1.369 . S
C814 C818 1.531 . S
C815 C814 1.369 . S
C815 C816 1.410 . S
C815 C823 1.503 . S
C816 C815 1.410 . S
C816 C817 1.392 . S
C816 C819 1.511 1_655 S
C817 C813 1.376 . S
C817 C816 1.392 . S
C817 H829 0.929 . S
C818 C814 1.531 . S
C818 H830 0.960 . S
C818 H831 0.962 . S
C818 H832 0.960 . S
C819 C816 1.511 1_455 S
C819 H833 0.961 . S
C819 H834 0.961 . S
C819 H835 0.961 . S
C820 C821 1.370 1_554 S
C820 C822 1.363 . S
C820 H836 0.931 . S
C821 C820 1.370 1_556 S
C821 C825 1.408 . S
C822 C820 1.363 . S
C822 C823 1.370 1_554 S
C822 C826 1.524 . S
C823 C815 1.503 . S
C823 C822 1.370 1_556 S
C823 C824 1.403 . S
C824 C823 1.403 . S
C824 C825 1.404 . S
C824 C827 1.539 . S
C825 C821 1.408 . S
C825 C824 1.404 . S
C825 H837 0.930 1_655 S
C826 C822 1.524 . S
C826 H838 0.956 . S
C826 H839 0.961 . S
C826 H840 0.961 . S
C827 C824 1.539 . S
C827 H841 0.958 . S
C827 H842 0.961 1_655 S
C827 H843 0.960 . S
H828 C812 0.931 . S
H829 C817 0.929 . S
H830 C818 0.960 . S
H831 C818 0.962 . S
H832 C818 0.960 . S
H833 C819 0.961 . S
H834 C819 0.961 . S
H835 C819 0.961 . S
H836 C820 0.931 . S
H837 C825 0.930 1_455 S
H838 C826 0.956 . S
H839 C826 0.961 . S
H840 C826 0.961 . S
H841 C827 0.958 . S
H842 C827 0.961 1_455 S
H843 C827 0.960 . S
C844 C845 1.391 . S
C844 C846 1.394 . S
C844 H860 0.931 . S
C845 C844 1.391 . S
C845 C849 1.376 . S
C846 C844 1.394 . S
C846 C847 1.369 . S
C846 C850 1.531 . S
C847 C846 1.369 . S
C847 C848 1.410 . S
C847 C855 1.503 . S
C848 C847 1.410 . S
C848 C849 1.392 . S
C848 C851 1.511 . S
C849 C845 1.376 . S
C849 C848 1.392 . S
C849 H861 0.929 . S
C850 C846 1.531 . S
C850 H862 0.960 . S
C850 H863 0.962 . S
C850 H864 0.960 . S
C851 C848 1.511 . S
C851 H865 0.961 . S
C851 H866 0.961 . S
C851 H867 0.961 . S
C852 C853 1.370 . S
C852 C854 1.363 . S
C852 H868 0.931 . S
C853 C852 1.370 . S
C853 C857 1.408 . S
C854 C852 1.363 . S
C854 C855 1.370 . S
C854 C858 1.524 . S
C855 C847 1.503 . S
C855 C854 1.370 . S
C855 C856 1.403 . S
C856 C855 1.403 . S
C856 C857 1.404 . S
C856 C859 1.539 . S
C857 C853 1.408 . S
C857 C856 1.404 . S
C857 H869 0.930 . S
C858 C854 1.524 . S
C858 H870 0.956 . S
C858 H871 0.961 . S
C858 H872 0.961 . S
C859 C856 1.539 . S
C859 H873 0.958 . S
C859 H874 0.961 . S
C859 H875 0.960 . S
H860 C844 0.931 . S
H861 C849 0.929 . S
H862 C850 0.960 . S
H863 C850 0.962 . S
H864 C850 0.960 . S
H865 C851 0.961 . S
H866 C851 0.961 . S
H867 C851 0.961 . S
H868 C852 0.931 . S
H869 C857 0.930 . S
H870 C858 0.956 . S
H871 C858 0.961 . S
H872 C858 0.961 . S
H873 C859 0.958 . S
H874 C859 0.961 . S
H875 C859 0.960 . S
C876 C877 1.391 . S
C876 C878 1.394 . S
C876 H892 0.931 . S
C877 C876 1.391 . S
C877 C881 1.376 . S
C878 C876 1.394 . S
C878 C879 1.369 . S
C878 C882 1.531 . S
C879 C878 1.369 . S
C879 C880 1.410 . S
C879 C887 1.503 . S
C880 C879 1.410 . S
C880 C881 1.392 . S
C880 C883 1.511 . S
C881 C877 1.376 . S
C881 C880 1.392 . S
C881 H893 0.929 . S
C882 C878 1.531 . S
C882 H894 0.960 . S
C882 H895 0.962 . S
C882 H896 0.960 . S
C883 C880 1.511 . S
C883 H897 0.961 . S
C883 H898 0.961 . S
C883 H899 0.961 . S
C884 C885 1.370 . S
C884 C886 1.363 . S
C884 H900 0.931 . S
C885 C884 1.370 . S
C885 C889 1.408 1_455 S
C886 C884 1.363 . S
C886 C887 1.370 . S
C886 C890 1.524 . S
C887 C879 1.503 . S
C887 C886 1.370 . S
C887 C888 1.403 . S
C888 C887 1.403 . S
C888 C889 1.404 1_455 S
C888 C891 1.539 1_455 S
C889 C885 1.408 1_655 S
C889 C888 1.404 1_655 S
C889 H901 0.930 . S
C890 C886 1.524 . S
C890 H902 0.956 . S
C890 H903 0.961 . S
C890 H904 0.961 . S
C891 C888 1.539 1_655 S
C891 H905 0.958 . S
C891 H906 0.961 . S
C891 H907 0.960 . S
H892 C876 0.931 . S
H893 C881 0.929 . S
H894 C882 0.960 . S
H895 C882 0.962 . S
H896 C882 0.960 . S
H897 C883 0.961 . S
H898 C883 0.961 . S
H899 C883 0.961 . S
H900 C884 0.931 . S
H901 C889 0.930 . S
H902 C890 0.956 . S
H903 C890 0.961 . S
H904 C890 0.961 . S
H905 C891 0.958 . S
H906 C891 0.961 . S
H907 C891 0.960 . S
C908 C909 1.391 . S
C908 C910 1.394 . S
C908 H924 0.931 . S
C909 C908 1.391 . S
C909 C913 1.376 . S
C910 C908 1.394 . S
C910 C911 1.369 . S
C910 C914 1.531 . S
C911 C910 1.369 . S
C911 C912 1.410 . S
C911 C919 1.503 . S
C912 C911 1.410 . S
C912 C913 1.392 . S
C912 C915 1.511 . S
C913 C909 1.376 . S
C913 C912 1.392 . S
C913 H925 0.929 . S
C914 C910 1.531 . S
C914 H926 0.960 . S
C914 H927 0.962 . S
C914 H928 0.960 . S
C915 C912 1.511 . S
C915 H929 0.961 . S
C915 H930 0.961 . S
C915 H931 0.961 . S
C916 C917 1.370 . S
C916 C918 1.363 . S
C916 H932 0.931 . S
C917 C916 1.370 . S
C917 C921 1.408 . S
C918 C916 1.363 . S
C918 C919 1.370 . S
C918 C922 1.524 . S
C919 C911 1.503 . S
C919 C918 1.370 . S
C919 C920 1.403 . S
C920 C919 1.403 . S
C920 C921 1.404 . S
C920 C923 1.539 . S
C921 C917 1.408 . S
C921 C920 1.404 . S
C921 H933 0.930 . S
C922 C918 1.524 . S
C922 H934 0.956 . S
C922 H935 0.961 . S
C922 H936 0.961 . S
C923 C920 1.539 . S
C923 H937 0.958 . S
C923 H938 0.961 . S
C923 H939 0.960 . S
H924 C908 0.931 . S
H925 C913 0.929 . S
H926 C914 0.960 . S
H927 C914 0.962 . S
H928 C914 0.960 . S
H929 C915 0.961 . S
H930 C915 0.961 . S
H931 C915 0.961 . S
H932 C916 0.931 . S
H933 C921 0.930 . S
H934 C922 0.956 . S
H935 C922 0.961 . S
H936 C922 0.961 . S
H937 C923 0.958 . S
H938 C923 0.961 . S
H939 C923 0.960 . S
C173 C5 1.733 . S
C181 C106 1.849 . S
C205 C18 1.528 . S
C213 C123 1.580 . S
C245 C146 1.095 . S
C237 C30 1.278 . S
C269 C41 1.531 . S
C277 C167 1.203 . S
C309 C126 2.021 . S
C301 C7 2.039 . S
C341 C103 1.844 . S
C333 C16 1.560 . S
C373 C165 1.363 . S
C365 C29 1.298 . S
C405 C144 1.048 . S
C397 C38 0.983 . S
C429 C8 1.837 . S
C437 C168 1.758 . S
C469 C125 1.486 . S
C461 C27 1.393 . S
C493 C40 1.653 . S
C501 C101 1.463 . S
C525 C19 1.144 . S
C533 C147 1.180 . S
C565 C105 1.643 . S
C557 C51 1.656 . S
C589 C62 1.426 . S
C597 C124 1.487 . S
C621 C74 1.440 . S
C629 C143 1.212 . S
C653 C84 1.402 . S
C661 C164 1.291 . S
C685 C49 1.884 . S
C693 C127 2.014 . S
C725 C102 1.676 . S
C717 C63 1.664 . S
C757 C166 1.170 . S
C749 C71 0.976 . S
C789 C145 1.281 . S
C781 C85 1.258 . S
C813 C52 1.601 . S
C821 C169 1.569 . S
C853 C122 1.434 . S
C845 C73 1.678 . S
C885 C104 1.199 . S
C877 C82 1.077 . S
C909 C60 1.267 . S
C917 C148 1.553 . S
