# Generated by pormake.
# Topology pts, (4,4)-cn, num edge types: 1
# Building blocks:
#     Node 0, Type 0, BuildingBlock: ESEHIV_clean_sbu_0, # of connection points: 4
#     Node 1, Type 0, BuildingBlock: ESEHIV_clean_sbu_0, # of connection points: 4
#     Node 2, Type 1, BuildingBlock: UXUYUI_clean_sbu_0, # of connection points: 4
#     Node 3, Type 1, BuildingBlock: UXUYUI_clean_sbu_0, # of connection points: 4
#     Edge 4, Type (0, 1), BuildingBlock: KIFKEQ_clean_linker_1, # of connection points: 2
#     Edge 5, Type (0, 1), BuildingBlock: KIFKEQ_clean_linker_1, # of connection points: 2
#     Edge 6, Type (0, 1), BuildingBlock: KIFKEQ_clean_linker_1, # of connection points: 2
#     Edge 7, Type (0, 1), BuildingBlock: KIFKEQ_clean_linker_1, # of connection points: 2
#     Edge 8, Type (0, 1), BuildingBlock: KIFKEQ_clean_linker_1, # of connection points: 2
#     Edge 9, Type (0, 1), BuildingBlock: KIFKEQ_clean_linker_1, # of connection points: 2
#     Edge 10, Type (0, 1), BuildingBlock: KIFKEQ_clean_linker_1, # of connection points: 2
#     Edge 11, Type (0, 1), BuildingBlock: KIFKEQ_clean_linker_1, # of connection points: 2
# Relax obj value: 0.002
# Max RMSD: 0.096
# Mean RMSD: 0.062
data_MOF--net-pts--node1-ESEHIV_clean_sbu_0--node2-UXUYUI_clean_sbu_0--edge1-KIFKEQ_clean_linker_1
_symmetry_space_group_name_H-M    P1
_symmetry_Int_Tables_number       1
_symmetry_cell_setting            triclinic
loop_
_symmetry_equiv_pos_as_xyz
'x, y, z'
_cell_length_a     30.947223
_cell_length_b     30.873251
_cell_length_c     46.027086
_cell_angle_alpha  92.795991
_cell_angle_beta   92.787529
_cell_angle_gamma 90.033604
loop_
_atom_site_label
_atom_site_type_symbol
_atom_site_fract_x
_atom_site_fract_y
_atom_site_fract_z
_atom_type_partial_charge
Cu0 Cu 0.54966 0.02017 0.01707 0.0
N1 N 0.58846 0.98715 0.99536 0.0
N2 N 0.64478 0.97504 0.96743 0.0
C3 C 0.6234 1.00439 0.98395 0.0
C4 C 0.62236 0.93766 0.96853 0.0
C5 C 0.58766 0.94519 0.9859 0.0
O6 O 0.58572 0.05533 0.045 0.0
C7 C 0.49215 0.026 0.97125 0.0
O8 O 0.49934 0.98415 0.97208 0.0
H9 H 0.63195 0.03837 0.98689 0.0
H10 H 0.56301 0.92204 0.99055 0.0
N11 N 0.51192 0.98762 0.03799 0.0
N12 N 0.4561 0.97591 0.06568 0.0
C13 C 0.47642 1.00459 0.04984 0.0
C14 C 0.51411 0.94649 0.04641 0.0
C15 C 0.47974 0.93924 0.06367 0.0
C16 C 0.60541 0.03289 0.06403 0.0
O17 O 0.59851 0.99087 0.0632 0.0
H18 H 0.46667 0.038 0.04773 0.0
H19 H 0.53952 0.92383 0.04118 0.0
O20 O 0.51249 0.05137 0.98987 0.0
H21 H 0.63022 0.90718 0.95742 0.0
H22 H 0.47293 0.90949 0.07412 0.0
Cu23 Cu 0.07905 0.57172 0.51873 0.0
N24 N 0.11167 0.54195 0.54655 0.0
N25 N 0.1257 0.49109 0.57863 0.0
C26 C 0.09671 0.50682 0.55906 0.0
C27 C 0.16032 0.51777 0.57868 0.0
C28 C 0.1516 0.54914 0.55873 0.0
O29 O 0.04662 0.52779 0.49477 0.0
C30 C 0.06755 0.64648 0.55137 0.0
O31 O 0.10944 0.64707 0.54801 0.0
H32 H 0.06475 0.49339 0.55404 0.0
H33 H 0.17276 0.57525 0.5535 0.0
N34 N 0.11199 0.60229 0.49353 0.0
N35 N 0.12642 0.65343 0.46261 0.0
C36 C 0.09768 0.63814 0.4807 0.0
C37 C 0.15122 0.59422 0.4831 0.0
C38 C 0.16017 0.62577 0.46386 0.0
C39 C 0.06987 0.49629 0.48573 0.0
O40 O 0.11158 0.49686 0.49254 0.0
H41 H 0.06625 0.65228 0.48422 0.0
H42 H 0.17162 0.56722 0.48885 0.0
O43 O 0.04516 0.61466 0.54016 0.0
H44 H 0.18996 0.51455 0.59187 0.0
H45 H 0.18928 0.62832 0.45193 0.0
Li46 Li 0.04707 0.11335 0.28628 0.0
Li47 Li 0.04549 0.03301 0.28441 0.0
Li48 Li 0.08376 0.07347 0.24652 0.0
Li49 Li 1.00366 0.07191 0.24632 0.0
C50 C 0.12867 0.08908 0.30772 0.0
N51 N 0.19376 0.12327 0.34516 0.0
C52 C 0.13386 0.07487 0.33603 0.0
C53 C 0.15692 0.12016 0.29827 0.0
C54 C 0.16687 0.09271 0.35469 0.0
C55 C 0.18954 0.13719 0.31758 0.0
C56 C 0.96511 0.05693 0.30484 0.0
C57 C 0.90605 1.00689 0.30855 0.0
N58 N 0.90142 0.02175 0.33654 0.0
C59 C 0.95956 0.07201 0.33354 0.0
C60 C 0.938 0.02437 0.29214 0.0
C61 C 0.92726 0.05368 0.34925 0.0
C62 C 0.03006 0.20144 0.30076 0.0
N63 N 0.04545 0.16404 0.31171 0.0
C64 C 0.0522 0.19779 0.3596 0.0
C65 C 0.05613 0.1615 0.34056 0.0
C66 C 0.03626 0.237 0.34901 0.0
C67 C 0.02523 0.23845 0.31906 0.0
H68 H 0.0206 0.20229 0.27787 0.0
H69 H 0.06694 0.13108 0.34894 0.0
C70 C 0.06925 0.94706 0.29463 0.0
N71 N 0.05062 0.9828 0.30704 0.0
C72 C 0.07759 0.91055 0.31079 0.0
C73 C 0.04699 0.94808 0.35221 0.0
C74 C 0.03955 0.98398 0.33529 0.0
C75 C 0.06674 0.91075 0.34013 0.0
H76 H 0.07873 0.94734 0.27233 0.0
H77 H 0.02593 1.01314 0.34495 0.0
C78 C 0.05589 0.15288 0.22549 0.0
N79 N 0.08331 0.21376 0.18836 0.0
C80 C 0.03645 0.15498 0.19755 0.0
C81 C 0.08886 0.18205 0.2347 0.0
C82 C 0.05089 0.18592 0.17906 0.0
C83 C 0.10239 0.2125 0.21557 0.0
C84 C 0.03 0.99123 0.22137 0.0
C85 C 0.04522 0.98996 0.19325 0.0
C86 C 1.00057 0.95987 0.22896 0.0
C87 C 0.03003 0.9577 0.17295 0.0
C88 C 0.98616 0.92813 0.20804 0.0
N89 N 1.00102 0.92774 0.1807 0.0
C90 C 0.16682 0.04549 0.23419 0.0
C91 C 0.13354 0.08384 0.19585 0.0
C92 C 0.20268 0.03632 0.21766 0.0
N93 N 0.13311 0.0687 0.22308 0.0
C94 C 0.16893 0.07573 0.17862 0.0
C95 C 0.20402 0.05116 0.18931 0.0
H96 H 0.16527 0.03301 0.25567 0.0
H97 H 0.10601 0.10115 0.18708 0.0
C98 C 0.9173 0.09541 0.23519 0.0
N99 N 0.9511 0.07473 0.22284 0.0
C100 C 0.87807 0.1001 0.21934 0.0
C101 C 0.90925 0.06273 0.17809 0.0
C102 C 0.94798 0.05899 0.19471 0.0
C103 C 0.87347 0.0834 0.19038 0.0
H104 H 0.92094 0.10858 0.25739 0.0
H105 H 0.97555 0.04386 0.18502 0.0
O106 O 0.09656 0.07197 0.28918 0.0
O107 O 0.9966 0.07447 0.28919 0.0
O108 O 0.0421 0.12287 0.24387 0.0
O109 O 0.04469 0.02244 0.24154 0.0
H110 H 0.11241 0.05056 0.34357 0.0
H111 H 0.15385 0.13081 0.27624 0.0
H112 H 0.1711 0.08225 0.37674 0.0
H113 H 0.21158 0.16139 0.3106 0.0
H114 H 0.88486 0.98159 0.29902 0.0
H115 H 0.98018 0.0974 0.3436 0.0
H116 H 0.94139 1.01293 0.2698 0.0
H117 H 0.92273 0.06484 0.37153 0.0
H118 H 0.06166 0.19503 0.38239 0.0
H119 H 1.01206 0.26755 0.30988 0.0
H120 H 0.09359 0.88302 0.30061 0.0
H121 H 0.03759 0.94975 0.37458 0.0
H122 H 1.0107 0.13276 0.19017 0.0
H123 H 0.10366 0.18134 0.25645 0.0
H124 H 0.03633 0.18778 0.15731 0.0
H125 H 0.12797 0.23521 0.22237 0.0
H126 H 0.06825 1.01383 0.1871 0.0
H127 H 0.98923 0.95983 0.25081 0.0
H128 H 0.0413 0.95647 0.15104 0.0
H129 H 0.96327 0.90372 0.21357 0.0
H130 H 0.2284 1.01658 0.22673 0.0
H131 H 0.16855 0.0883 0.15706 0.0
H132 H 0.85179 0.117 0.22963 0.0
H133 H 0.90727 0.04897 0.15597 0.0
Li134 Li 1.01436 0.06972 0.78909 0.0
Li135 Li 0.09426 0.06738 0.78866 0.0
Li136 Li 0.05135 0.10978 0.75171 0.0
Li137 Li 0.05196 0.02963 0.74858 0.0
C138 C 0.04371 0.15189 0.81307 0.0
N139 N 0.0182 0.21958 0.84976 0.0
C140 C 0.06155 0.15658 0.84154 0.0
C141 C 1.01337 0.18193 0.80312 0.0
C142 C 0.04809 0.19094 0.85979 0.0
C143 C 1.00076 0.21585 0.82204 0.0
C144 C 0.06956 0.99194 0.81139 0.0
C145 C 0.11993 0.93688 0.82645 0.0
N146 N 0.10377 0.93919 0.85344 0.0
C147 C 0.05319 0.99354 0.83919 0.0
C148 C 0.10294 0.96316 0.80485 0.0
C149 C 0.07101 0.96668 0.86018 0.0
C150 C 0.93407 0.03693 0.80156 0.0
N151 N 0.96512 0.06526 0.8124 0.0
C152 C 0.927 0.07774 0.85602 0.0
C153 C 0.96218 0.08575 0.83906 0.0
C154 C 0.8947 0.04802 0.8456 0.0
C155 C 0.89847 0.02782 0.8178 0.0
H156 H 0.93757 0.02053 0.78049 0.0
H157 H 0.98753 0.10746 0.84757 0.0
C158 C 0.18363 0.08029 0.79893 0.0
N159 N 0.14713 0.06913 0.81207 0.0
C160 C 0.22324 0.08342 0.81479 0.0
C161 C 0.18702 0.06404 0.85763 0.0
C162 C 0.14801 0.06171 0.84097 0.0
C163 C 0.2255 0.07488 0.84456 0.0
H164 H 0.18195 0.08721 0.77611 0.0
H165 H 0.11843 0.05423 0.85119 0.0
C166 C 0.96662 0.08625 0.73148 0.0
N167 N 0.89612 0.12083 0.70175 0.0
C168 C 0.95706 0.07338 0.70235 0.0
C169 C 0.93998 0.11617 0.74564 0.0
C170 C 0.92137 0.0914 0.68765 0.0
C171 C 0.90458 0.13343 0.73019 0.0
C172 C 0.12638 0.0531 0.72492 0.0
C173 C 0.12557 0.0708 0.69753 0.0
C174 C 0.15292 0.01758 0.73052 0.0
C175 C 0.15093 0.05216 0.67598 0.0
C176 C 0.17778 0.99984 0.70839 0.0
N177 N 0.17625 0.01733 0.6818 0.0
C178 C 0.07829 0.19447 0.74283 0.0
C179 C 0.03658 0.16307 0.70269 0.0
C180 C 0.08559 0.23163 0.72759 0.0
N181 N 0.05421 0.16114 0.73024 0.0
C182 C 0.04292 0.19972 0.68668 0.0
C183 C 0.06811 0.23449 0.699 0.0
H184 H 0.09263 0.19179 0.76457 0.0
H185 H 0.01883 0.13567 0.69274 0.0
C186 C 0.03791 0.94068 0.73386 0.0
N187 N 0.04703 0.97935 0.7226 0.0
C188 C 0.03207 0.90339 0.7156 0.0
C189 C 0.04522 0.94633 0.67444 0.0
C190 C 0.0502 0.98288 0.69346 0.0
C191 C 0.03584 0.90574 0.68537 0.0
H192 H 0.0345 0.9389 0.75703 0.0
H193 H 0.05624 1.01416 0.6849 0.0
O194 O 0.05667 0.11855 0.79491 0.0
O195 O 0.05259 0.01804 0.79059 0.0
O196 O 1.00134 0.06882 0.74619 0.0
O197 O 0.10156 0.07071 0.74622 0.0
H198 H 0.08531 0.13377 0.8495 0.0
H199 H 0.99997 0.17932 0.78097 0.0
H200 H 0.06141 0.19483 0.88194 0.0
H201 H 0.97722 0.23928 0.81466 0.0
H202 H 0.1459 0.91458 0.82173 0.0
H203 H 0.02724 1.0155 0.84458 0.0
H204 H 0.11552 0.9611 0.78332 0.0
H205 H 0.05884 0.96774 0.88184 0.0
H206 H 0.92533 0.09449 0.87716 0.0
H207 H 0.87491 1.00414 0.80898 0.0
H208 H 0.2517 0.09283 0.80382 0.0
H209 H 0.18702 0.05678 0.8804 0.0
H210 H 0.97719 0.04995 0.69117 0.0
H211 H 0.94636 0.12573 0.76835 0.0
H212 H 0.91375 0.08198 0.66503 0.0
H213 H 0.88375 0.15672 0.74084 0.0
H214 H 0.10534 0.09843 0.69291 0.0
H215 H 0.15432 1.0039 0.75172 0.0
H216 H 0.15045 0.06534 0.65462 0.0
H217 H 0.19834 0.97222 0.71237 0.0
H218 H 0.10491 0.25774 0.73805 0.0
H219 H 0.02946 0.20018 0.66454 0.0
H220 H 0.02401 0.87322 0.72512 0.0
H221 H 0.04906 0.94996 0.65144 0.0
H222 H 0.38962 0.02961 0.05298 0.0
H223 H 0.43798 0.94153 0.11681 0.0
H224 H 0.32836 0.04734 0.08284 0.0
H225 H 0.37636 0.95891 0.14663 0.0
H226 H 0.29025 0.04471 0.20601 0.0
H227 H 0.3502 0.02413 0.17578 0.0
H228 H 0.26211 1.01202 0.1002 0.0
H229 H 0.20187 0.03137 0.13039 0.0
C230 C 0.38708 1.01398 0.07338 0.0
C231 C 0.41869 0.98427 0.08258 0.0
C232 C 0.35184 0.02388 0.09037 0.0
C233 C 0.3476 1.00463 0.11713 0.0
C234 C 0.37896 0.97456 0.12623 0.0
C235 C 0.41399 0.96427 0.10904 0.0
C236 C 0.28345 0.03719 0.18302 0.0
C237 C 0.24101 0.03982 0.17074 0.0
C238 C 0.31789 0.02543 0.1657 0.0
C239 C 0.31087 1.0164 0.13562 0.0
C240 C 0.26862 0.01927 0.12326 0.0
C241 C 0.2341 0.03061 0.1406 0.0
H242 H 0.07805 0.41952 0.56308 0.0
H243 H 0.16043 0.4775 0.63273 0.0
H244 H 0.06498 0.35783 0.59238 0.0
H245 H 0.14695 0.41582 0.66244 0.0
H246 H 0.14493 0.27788 0.69608 0.0
H247 H 0.16033 0.33956 0.66706 0.0
H248 H 0.02713 0.33983 0.63423 0.0
H249 H 1.01195 0.27786 0.66299 0.0
C250 C 0.09311 0.41925 0.58479 0.0
C251 C 0.11997 0.45365 0.59567 0.0
C252 C 0.08554 0.38386 0.60166 0.0
C253 C 0.10448 0.38194 0.62996 0.0
C254 C 0.13211 0.41597 0.64065 0.0
C255 C 0.13986 0.45137 0.62365 0.0
C256 C 0.11884 0.29138 0.68287 0.0
C257 C 0.07719 0.27287 0.68184 0.0
C258 C 0.12767 0.3268 0.66623 0.0
C259 C 0.09506 0.3447 0.64817 0.0
C260 C 0.05329 0.32643 0.64742 0.0
C261 C 0.04452 0.29091 0.66396 0.0
H262 H 0.65656 0.10538 0.06025 0.0
H263 H 0.62958 1.00094 0.11578 0.0
H264 H 0.71921 0.12674 0.09269 0.0
H265 H 0.69163 0.02145 0.14755 0.0
H266 H 0.79183 0.0755 0.21011 0.0
H267 H 0.72331 0.07455 0.18194 0.0
H268 H 0.79075 0.09463 0.10371 0.0
H269 H 0.85934 0.0979 0.13216 0.0
C270 C 0.66343 0.08766 0.07967 0.0
C271 C 0.63837 0.0514 0.08544 0.0
C272 C 0.69947 0.09956 0.09808 0.0
C273 C 0.71059 0.07569 0.12268 0.0
C274 C 0.68389 0.04096 0.12908 0.0
C275 C 0.64838 0.02897 0.11071 0.0
C276 C 0.79212 0.0808 0.18704 0.0
C277 C 0.83134 0.08629 0.17342 0.0
C278 C 0.75276 0.07984 0.17081 0.0
C279 C 0.7515 0.08402 0.14049 0.0
C280 C 0.79045 0.09156 0.12703 0.0
C281 C 0.82989 0.09272 0.14331 0.0
H282 H 0.01702 0.64513 0.59847 0.0
H283 H 0.07762 0.7308 0.54128 0.0
H284 H 1.00044 0.70772 0.63124 0.0
H285 H 0.06038 0.79306 0.57334 0.0
H286 H 1.00026 0.8996 0.62928 0.0
H287 H 0.99762 0.83624 0.59544 0.0
H288 H 0.05465 0.75828 0.66239 0.0
H289 H 0.05923 0.82174 0.69598 0.0
C290 C 0.02535 0.67747 0.59246 0.0
C291 C 0.04829 0.68344 0.5674 0.0
C292 C 0.01629 0.71313 0.61125 0.0
C293 C 0.02924 0.7552 0.60483 0.0
C294 C 0.04965 0.76115 0.57873 0.0
C295 C 0.05952 0.72557 0.5604 0.0
C296 C 1.01252 0.8691 0.63686 0.0
C297 C 0.03053 0.86621 0.66541 0.0
C298 C 1.01053 0.83271 0.6175 0.0
C299 C 0.02579 0.79235 0.62632 0.0
C300 C 0.04201 0.78885 0.65513 0.0
C301 C 0.04462 0.82536 0.67439 0.0
H302 H 0.4473 0.10337 0.97247 0.0
H303 H 0.46035 0.98231 0.92261 0.0
H304 H 0.38544 0.12241 0.94008 0.0
H305 H 0.39894 1.00052 0.89112 0.0
H306 H 0.30487 0.04953 0.82603 0.0
H307 H 0.373 0.04687 0.85428 0.0
H308 H 0.31039 0.09754 0.93055 0.0
H309 H 0.24245 0.10274 0.90179 0.0
C310 C 0.43742 0.08122 0.9544 0.0
C311 C 0.45856 0.04129 0.95017 0.0
C312 C 0.40182 0.09188 0.93602 0.0
C313 C 0.38713 0.06297 0.91298 0.0
C314 C 0.40958 0.02393 0.90828 0.0
C315 C 0.44472 1.01329 0.92657 0.0
C316 C 0.30564 0.06115 0.84862 0.0
C317 C 0.26782 0.07598 0.8616 0.0
C318 C 0.34476 0.05915 0.86495 0.0
C319 C 0.34714 0.07146 0.89481 0.0
C320 C 0.30983 0.088 0.90758 0.0
C321 C 0.27065 0.0903 0.89116 0.0
H322 H 1.01291 0.49506 0.43808 0.0
H323 H 0.08827 0.41263 0.49401 0.0
H324 H 0.99593 0.4321 0.4045 0.0
H325 H 0.07095 0.35014 0.46114 0.0
H326 H 1.01102 0.23998 0.4055 0.0
H327 H 1.00911 0.30287 0.43957 0.0
H328 H 0.04642 0.3856 0.37213 0.0
H329 H 0.04983 0.32269 0.33816 0.0
C330 C 0.02468 0.4633 0.44357 0.0
C331 C 0.05181 0.45847 0.46852 0.0
C332 C 1.01534 0.42746 0.42432 0.0
C333 C 0.03223 0.38626 0.43019 0.0
C334 C 0.05714 0.3813 0.45613 0.0
C335 C 0.06716 0.41707 0.47491 0.0
C336 C 0.01903 0.27148 0.39786 0.0
C337 C 0.03127 0.27596 0.36909 0.0
C338 C 0.01749 0.30756 0.41736 0.0
C339 C 0.02761 0.34912 0.40851 0.0
C340 C 0.03787 0.35404 0.37945 0.0
C341 C 0.03987 0.31788 0.36 0.0
H342 H 0.70818 0.03411 0.98071 0.0
H343 H 0.66574 0.93492 0.91627 0.0
H344 H 0.76875 0.0514 0.95129 0.0
H345 H 0.72693 0.95163 0.88701 0.0
H346 H 0.80979 0.03205 0.82807 0.0
H347 H 0.75048 1.01231 0.85787 0.0
H348 H 0.83696 0.01973 0.93444 0.0
H349 H 0.89651 0.03869 0.90467 0.0
C350 C 0.71185 1.01593 0.96028 0.0
C351 C 0.68201 0.98326 0.95078 0.0
C352 C 0.74678 0.02558 0.94353 0.0
C353 C 0.75261 1.00299 0.91676 0.0
C354 C 0.72309 0.96993 0.9074 0.0
C355 C 0.6883 0.96003 0.9243 0.0
C356 C 0.81635 0.02906 0.85121 0.0
C357 C 0.85807 0.03707 0.86389 0.0
C358 C 0.78229 0.01774 0.86829 0.0
C359 C 0.789 1.01438 0.89852 0.0
C360 C 0.83059 0.02256 0.91126 0.0
C361 C 0.86471 0.03363 0.89417 0.0
H362 H 0.08354 0.72691 0.47709 0.0
H363 H 0.15688 0.66532 0.40928 0.0
H364 H 0.07047 0.78912 0.44724 0.0
H365 H 0.14424 0.72807 0.37937 0.0
H366 H 0.06301 0.82392 0.32353 0.0
H367 H 0.08063 0.76228 0.35311 0.0
H368 H 0.11098 0.84974 0.42733 0.0
H369 H 0.0945 0.91145 0.39774 0.0
C370 C 0.09691 0.72671 0.45578 0.0
C371 C 0.12104 0.6911 0.44546 0.0
C372 C 0.08974 0.76253 0.43878 0.0
C373 C 0.10624 0.7635 0.41091 0.0
C374 C 0.1308 0.72809 0.40066 0.0
C375 C 0.13838 0.69238 0.41786 0.0
C376 C 0.07396 0.83014 0.34605 0.0
C377 C 0.07709 0.87286 0.35819 0.0
C378 C 0.08404 0.79474 0.363 0.0
C379 C 0.09715 0.80112 0.39256 0.0
C380 C 0.10042 0.84372 0.4047 0.0
C381 C 0.09072 0.87912 0.38773 0.0
loop_
_geom_bond_atom_site_label_1
_geom_bond_atom_site_label_2
_geom_bond_distance
_geom_bond_site_symmetry_2
_ccdc_geom_bond_type
Cu0 N1 1.999 1_554 S
Cu0 O6 1.974 . S
Cu0 N11 1.985 . S
Cu0 O20 1.959 1_554 S
N1 Cu0 1.999 1_556 S
N1 C3 1.263 . S
N1 C5 1.389 . S
N2 C3 1.358 . S
N2 C4 1.400 . S
C3 N1 1.263 . S
C3 N2 1.358 . S
C3 H9 0.930 . S
C4 N2 1.400 . S
C4 C5 1.351 . S
C4 H21 0.930 . S
C5 N1 1.389 . S
C5 C4 1.351 . S
C5 H10 0.930 . S
O6 Cu0 1.974 . S
O6 C16 1.282 . S
C7 O8 1.261 1_545 S
C7 O20 1.251 . S
O8 C7 1.261 1_565 S
H9 C3 0.930 . S
H10 C5 0.930 . S
N11 Cu0 1.985 . S
N11 C13 1.335 . S
N11 C14 1.390 . S
N12 C13 1.345 . S
N12 C15 1.336 . S
C13 N11 1.335 . S
C13 N12 1.345 . S
C13 H18 0.930 . S
C14 N11 1.390 . S
C14 C15 1.346 . S
C14 H19 0.930 . S
C15 N12 1.336 . S
C15 C14 1.346 . S
C15 H22 0.929 . S
C16 O6 1.282 . S
C16 O17 1.216 1_545 S
O17 C16 1.216 1_565 S
H18 C13 0.930 . S
H19 C14 0.930 . S
O20 Cu0 1.959 1_556 S
O20 C7 1.251 . S
H21 C4 0.930 . S
H22 C15 0.929 . S
Cu23 N24 1.999 . S
Cu23 O29 1.974 . S
Cu23 N34 1.985 . S
Cu23 O43 1.959 . S
N24 Cu23 1.999 . S
N24 C26 1.263 . S
N24 C28 1.389 1_455 S
N25 C26 1.358 . S
N25 C27 1.414 . S
C26 N24 1.263 . S
C26 N25 1.358 . S
C26 H32 0.930 . S
C27 N25 1.414 . S
C27 C28 1.350 1_455 S
C27 H44 0.920 1_455 S
C28 N24 1.389 1_655 S
C28 C27 1.350 1_655 S
C28 H33 0.930 . S
O29 Cu23 1.974 . S
O29 C39 1.282 . S
C30 O31 1.261 . S
C30 O43 1.251 . S
O31 C30 1.261 . S
H32 C26 0.930 . S
H33 C28 0.930 . S
N34 Cu23 1.985 . S
N34 C36 1.335 . S
N34 C37 1.390 . S
N35 C36 1.345 . S
N35 C38 1.336 . S
C36 N34 1.335 . S
C36 N35 1.345 . S
C36 H41 0.930 . S
C37 N34 1.390 . S
C37 C38 1.346 . S
C37 H42 0.930 . S
C38 N35 1.336 . S
C38 C37 1.346 . S
C38 H45 0.929 . S
C39 O29 1.282 . S
C39 O40 1.216 . S
O40 C39 1.216 . S
H41 C36 0.930 . S
H42 C37 0.930 . S
O43 Cu23 1.959 . S
O43 C30 1.251 . S
H44 C27 0.920 1_655 S
H45 C38 0.929 . S
Li46 N63 1.990 . S
Li46 O106 1.956 . S
Li46 O107 1.970 1_455 S
Li46 O108 1.961 . S
Li47 N71 1.990 1_545 S
Li47 O106 1.970 . S
Li47 O107 1.956 1_455 S
Li47 O109 1.961 . S
Li48 N93 1.990 . S
Li48 O106 1.961 . S
Li48 O108 1.956 . S
Li48 O109 1.970 . S
Li49 N99 1.990 . S
Li49 O107 1.961 . S
Li49 O108 1.970 1_655 S
Li49 O109 1.956 1_655 S
C50 C52 1.348 . S
C50 C53 1.356 . S
C50 O106 1.325 . S
N51 C54 1.314 . S
N51 C55 1.279 . S
C52 C50 1.348 . S
C52 C54 1.353 . S
C52 H110 0.929 . S
C53 C50 1.356 . S
C53 C55 1.358 . S
C53 H111 0.930 . S
C54 N51 1.314 . S
C54 C52 1.353 . S
C54 H112 0.930 . S
C55 N51 1.279 . S
C55 C53 1.358 . S
C55 H113 0.930 . S
C56 C59 1.348 . S
C56 C60 1.356 . S
C56 O107 1.325 . S
C57 N58 1.279 . S
C57 C60 1.358 . S
C57 H114 0.930 . S
N58 C57 1.279 . S
N58 C61 1.314 . S
C59 C56 1.348 . S
C59 C61 1.353 . S
C59 H115 0.929 . S
C60 C56 1.356 . S
C60 C57 1.358 . S
C60 H116 0.930 . S
C61 N58 1.314 . S
C61 C59 1.353 . S
C61 H117 0.930 . S
C62 N63 1.314 . S
C62 C67 1.353 . S
C62 H68 0.930 1_455 S
N63 Li46 1.990 . S
N63 C62 1.314 . S
N63 C65 1.279 . S
C64 C65 1.358 . S
C64 C66 1.356 . S
C64 H118 0.930 . S
C65 N63 1.279 . S
C65 C64 1.358 . S
C65 H69 0.930 . S
C66 C64 1.356 . S
C66 C67 1.348 . S
C67 C62 1.353 . S
C67 C66 1.348 . S
C67 H119 0.929 1_455 S
H68 C62 0.930 1_655 S
H69 C65 0.930 . S
C70 N71 1.314 . S
C70 C72 1.353 . S
C70 H76 0.930 . S
N71 Li47 1.990 1_565 S
N71 C70 1.314 . S
N71 C74 1.279 . S
C72 C70 1.353 . S
C72 C75 1.348 . S
C72 H120 0.929 . S
C73 C74 1.358 . S
C73 C75 1.356 . S
C73 H121 0.930 1_455 S
C74 N71 1.279 . S
C74 C73 1.358 . S
C74 H77 0.930 1_455 S
C75 C72 1.348 . S
C75 C73 1.356 . S
H76 C70 0.930 . S
H77 C74 0.930 1_655 S
C78 C80 1.348 . S
C78 C81 1.356 . S
C78 O108 1.325 . S
N79 C82 1.314 . S
N79 C83 1.279 . S
C80 C78 1.348 . S
C80 C82 1.353 . S
C80 H122 0.929 1_455 S
C81 C78 1.356 . S
C81 C83 1.358 . S
C81 H123 0.930 . S
C82 N79 1.314 . S
C82 C80 1.353 . S
C82 H124 0.930 1_455 S
C83 N79 1.279 . S
C83 C81 1.358 . S
C83 H125 0.930 . S
C84 C85 1.348 . S
C84 C86 1.356 . S
C84 O109 1.325 1_565 S
C85 C84 1.348 . S
C85 C87 1.353 . S
C85 H126 0.929 . S
C86 C84 1.356 . S
C86 C88 1.358 . S
C86 H127 0.930 1_455 S
C87 C85 1.353 . S
C87 N89 1.314 . S
C87 H128 0.930 . S
C88 C86 1.358 . S
C88 N89 1.279 . S
C88 H129 0.930 1_455 S
N89 C87 1.314 . S
N89 C88 1.279 . S
C90 C92 1.353 . S
C90 N93 1.314 . S
C90 H96 0.930 . S
C91 N93 1.279 . S
C91 C94 1.358 . S
C91 H97 0.930 . S
C92 C90 1.353 . S
C92 C95 1.348 . S
C92 H130 0.929 . S
N93 Li48 1.990 . S
N93 C90 1.314 . S
N93 C91 1.279 . S
C94 C91 1.358 . S
C94 C95 1.356 . S
C94 H131 0.930 . S
C95 C92 1.348 . S
C95 C94 1.356 . S
H96 C90 0.930 . S
H97 C91 0.930 . S
C98 N99 1.314 . S
C98 C100 1.353 . S
C98 H104 0.930 . S
N99 Li49 1.990 . S
N99 C98 1.314 . S
N99 C102 1.279 . S
C100 C98 1.353 . S
C100 C103 1.348 . S
C100 H132 0.929 . S
C101 C102 1.358 . S
C101 C103 1.356 . S
C101 H133 0.930 . S
C102 N99 1.279 . S
C102 C101 1.358 . S
C102 H105 0.930 . S
C103 C100 1.348 . S
C103 C101 1.356 . S
H104 C98 0.930 . S
H105 C102 0.930 . S
O106 Li46 1.956 . S
O106 Li47 1.970 . S
O106 Li48 1.961 . S
O106 C50 1.325 . S
O107 Li46 1.970 1_655 S
O107 Li47 1.956 1_655 S
O107 Li49 1.961 . S
O107 C56 1.325 . S
O108 Li46 1.961 . S
O108 Li48 1.956 . S
O108 Li49 1.970 1_455 S
O108 C78 1.325 . S
O109 Li47 1.961 . S
O109 Li48 1.970 . S
O109 Li49 1.956 1_455 S
O109 C84 1.325 1_545 S
H110 C52 0.929 . S
H111 C53 0.930 . S
H112 C54 0.930 . S
H113 C55 0.930 . S
H114 C57 0.930 . S
H115 C59 0.929 . S
H116 C60 0.930 . S
H117 C61 0.930 . S
H118 C64 0.930 . S
H119 C67 0.929 1_655 S
H120 C72 0.929 . S
H121 C73 0.930 1_655 S
H122 C80 0.929 1_655 S
H123 C81 0.930 . S
H124 C82 0.930 1_655 S
H125 C83 0.930 . S
H126 C85 0.929 . S
H127 C86 0.930 1_655 S
H128 C87 0.930 . S
H129 C88 0.930 1_655 S
H130 C92 0.929 . S
H131 C94 0.930 . S
H132 C100 0.929 . S
H133 C101 0.930 . S
Li134 N151 1.990 1_455 S
Li134 O194 1.956 . S
Li134 O195 1.970 1_545 S
Li134 O196 1.961 . S
Li135 N159 1.990 . S
Li135 O194 1.970 . S
Li135 O195 1.956 1_545 S
Li135 O197 1.961 . S
Li136 N181 1.990 . S
Li136 O194 1.961 . S
Li136 O196 1.956 . S
Li136 O197 1.970 . S
Li137 N187 1.990 . S
Li137 O195 1.961 . S
Li137 O196 1.970 1_565 S
Li137 O197 1.956 1_565 S
C138 C140 1.348 . S
C138 C141 1.356 . S
C138 O194 1.325 . S
N139 C142 1.314 . S
N139 C143 1.279 . S
C140 C138 1.348 . S
C140 C142 1.353 . S
C140 H198 0.929 . S
C141 C138 1.356 . S
C141 C143 1.358 . S
C141 H199 0.930 . S
C142 N139 1.314 . S
C142 C140 1.353 . S
C142 H200 0.930 . S
C143 N139 1.279 . S
C143 C141 1.358 . S
C143 H201 0.930 . S
C144 C147 1.348 . S
C144 C148 1.356 . S
C144 O195 1.325 . S
C145 N146 1.279 . S
C145 C148 1.358 . S
C145 H202 0.930 . S
N146 C145 1.279 . S
N146 C149 1.314 . S
C147 C144 1.348 . S
C147 C149 1.353 . S
C147 H203 0.929 . S
C148 C144 1.356 . S
C148 C145 1.358 . S
C148 H204 0.930 . S
C149 N146 1.314 . S
C149 C147 1.353 . S
C149 H205 0.930 . S
C150 N151 1.314 . S
C150 C155 1.353 . S
C150 H156 0.930 1_545 S
N151 Li134 1.990 1_655 S
N151 C150 1.314 . S
N151 C153 1.279 . S
C152 C153 1.358 . S
C152 C154 1.356 . S
C152 H206 0.930 . S
C153 N151 1.279 . S
C153 C152 1.358 . S
C153 H157 0.930 . S
C154 C152 1.356 . S
C154 C155 1.348 . S
C155 C150 1.353 . S
C155 C154 1.348 . S
C155 H207 0.929 1_545 S
H156 C150 0.930 1_565 S
H157 C153 0.930 . S
C158 N159 1.314 . S
C158 C160 1.353 . S
C158 H164 0.930 . S
N159 Li135 1.990 . S
N159 C158 1.314 . S
N159 C162 1.279 . S
C160 C158 1.353 . S
C160 C163 1.348 . S
C160 H208 0.929 . S
C161 C162 1.358 . S
C161 C163 1.356 . S
C161 H209 0.930 1_545 S
C162 N159 1.279 . S
C162 C161 1.358 . S
C162 H165 0.930 1_545 S
C163 C160 1.348 . S
C163 C161 1.356 . S
H164 C158 0.930 . S
H165 C162 0.930 1_565 S
C166 C168 1.348 . S
C166 C169 1.356 . S
C166 O196 1.325 1_655 S
N167 C170 1.314 . S
N167 C171 1.279 . S
C168 C166 1.348 . S
C168 C170 1.353 . S
C168 H210 0.929 1_545 S
C169 C166 1.356 . S
C169 C171 1.358 . S
C169 H211 0.930 . S
C170 N167 1.314 . S
C170 C168 1.353 . S
C170 H212 0.930 1_545 S
C171 N167 1.279 . S
C171 C169 1.358 . S
C171 H213 0.930 . S
C172 C173 1.348 . S
C172 C174 1.356 . S
C172 O197 1.325 . S
C173 C172 1.348 . S
C173 C175 1.353 . S
C173 H214 0.929 . S
C174 C172 1.356 . S
C174 C176 1.358 . S
C174 H215 0.930 1_545 S
C175 C173 1.353 . S
C175 N177 1.314 . S
C175 H216 0.930 . S
C176 C174 1.358 . S
C176 N177 1.279 . S
C176 H217 0.930 1_545 S
N177 C175 1.314 . S
N177 C176 1.279 . S
C178 C180 1.353 . S
C178 N181 1.314 . S
C178 H184 0.930 . S
C179 N181 1.279 . S
C179 C182 1.358 . S
C179 H185 0.930 . S
C180 C178 1.353 . S
C180 C183 1.348 . S
C180 H218 0.929 . S
N181 Li136 1.990 . S
N181 C178 1.314 . S
N181 C179 1.279 . S
C182 C179 1.358 . S
C182 C183 1.356 . S
C182 H219 0.930 . S
C183 C180 1.348 . S
C183 C182 1.356 . S
H184 C178 0.930 . S
H185 C179 0.930 . S
C186 N187 1.314 . S
C186 C188 1.353 . S
C186 H192 0.930 . S
N187 Li137 1.990 . S
N187 C186 1.314 . S
N187 C190 1.279 . S
C188 C186 1.353 . S
C188 C191 1.348 . S
C188 H220 0.929 . S
C189 C190 1.358 . S
C189 C191 1.356 . S
C189 H221 0.930 . S
C190 N187 1.279 . S
C190 C189 1.358 . S
C190 H193 0.930 . S
C191 C188 1.348 . S
C191 C189 1.356 . S
H192 C186 0.930 . S
H193 C190 0.930 . S
O194 Li134 1.956 . S
O194 Li135 1.970 . S
O194 Li136 1.961 . S
O194 C138 1.325 . S
O195 Li134 1.970 1_565 S
O195 Li135 1.956 1_565 S
O195 Li137 1.961 . S
O195 C144 1.325 . S
O196 Li134 1.961 . S
O196 Li136 1.956 . S
O196 Li137 1.970 1_545 S
O196 C166 1.325 1_455 S
O197 Li135 1.961 . S
O197 Li136 1.970 . S
O197 Li137 1.956 1_545 S
O197 C172 1.325 . S
H198 C140 0.929 . S
H199 C141 0.930 . S
H200 C142 0.930 . S
H201 C143 0.930 . S
H202 C145 0.930 . S
H203 C147 0.929 . S
H204 C148 0.930 . S
H205 C149 0.930 . S
H206 C152 0.930 . S
H207 C155 0.929 1_565 S
H208 C160 0.929 . S
H209 C161 0.930 1_565 S
H210 C168 0.929 1_565 S
H211 C169 0.930 . S
H212 C170 0.930 1_565 S
H213 C171 0.930 . S
H214 C173 0.929 . S
H215 C174 0.930 1_565 S
H216 C175 0.930 . S
H217 C176 0.930 1_565 S
H218 C180 0.929 . S
H219 C182 0.930 . S
H220 C188 0.929 . S
H221 C189 0.930 . S
H222 C230 0.950 . S
H223 C235 0.950 . S
H224 C232 0.950 . S
H225 C234 0.950 . S
H226 C236 0.950 . S
H227 C238 0.950 . S
H228 C240 0.950 . S
H229 C241 0.950 . S
C230 H222 0.950 . S
C230 C231 1.386 . S
C230 C232 1.391 . S
C231 C230 1.386 . S
C231 C235 1.393 . S
C232 H224 0.950 . S
C232 C230 1.391 . S
C232 C233 1.400 . S
C233 C232 1.400 . S
C233 C234 1.398 . S
C233 C239 1.491 . S
C234 H225 0.950 . S
C234 C233 1.398 . S
C234 C235 1.391 . S
C235 H223 0.950 . S
C235 C231 1.393 . S
C235 C234 1.391 . S
C236 H226 0.950 . S
C236 C237 1.386 . S
C236 C238 1.391 . S
C237 C236 1.386 . S
C237 C241 1.393 . S
C238 H227 0.950 . S
C238 C236 1.391 . S
C238 C239 1.400 . S
C239 C233 1.491 . S
C239 C238 1.400 . S
C239 C240 1.398 . S
C240 H228 0.950 . S
C240 C239 1.398 . S
C240 C241 1.391 . S
C241 H229 0.950 . S
C241 C237 1.393 . S
C241 C240 1.391 . S
H242 C250 0.950 1_655 S
H243 C255 0.950 . S
H244 C252 0.950 1_655 S
H245 C254 0.950 . S
H246 C256 0.950 . S
H247 C258 0.950 . S
H248 C260 0.950 1_655 S
H249 C261 0.950 1_655 S
C250 H242 0.950 1_455 S
C250 C251 1.386 . S
C250 C252 1.391 . S
C251 C250 1.386 . S
C251 C255 1.393 . S
C252 H244 0.950 1_455 S
C252 C250 1.391 . S
C252 C253 1.400 . S
C253 C252 1.400 . S
C253 C254 1.398 . S
C253 C259 1.491 . S
C254 H245 0.950 . S
C254 C253 1.398 . S
C254 C255 1.391 . S
C255 H243 0.950 . S
C255 C251 1.393 . S
C255 C254 1.391 . S
C256 H246 0.950 . S
C256 C257 1.386 . S
C256 C258 1.391 . S
C257 C256 1.386 . S
C257 C261 1.393 . S
C258 H247 0.950 . S
C258 C256 1.391 . S
C258 C259 1.400 . S
C259 C253 1.491 . S
C259 C258 1.400 . S
C259 C260 1.398 . S
C260 H248 0.950 1_455 S
C260 C259 1.398 . S
C260 C261 1.391 . S
C261 H249 0.950 1_455 S
C261 C257 1.393 . S
C261 C260 1.391 . S
H262 C270 0.950 . S
H263 C275 0.950 1_565 S
H264 C272 0.950 . S
H265 C274 0.950 1_565 S
H266 C276 0.937 1_565 S
H267 C278 0.950 1_565 S
H268 C280 0.950 . S
H269 C281 0.950 . S
C270 H262 0.950 . S
C270 C271 1.386 . S
C270 C272 1.391 . S
C271 C270 1.386 . S
C271 C275 1.393 . S
C272 H264 0.950 . S
C272 C270 1.391 . S
C272 C273 1.400 . S
C273 C272 1.400 . S
C273 C274 1.398 . S
C273 C279 1.491 . S
C274 H265 0.950 1_545 S
C274 C273 1.398 . S
C274 C275 1.391 . S
C275 H263 0.950 1_545 S
C275 C271 1.393 . S
C275 C274 1.391 . S
C276 H266 0.937 1_545 S
C276 C277 1.386 . S
C276 C278 1.391 . S
C277 C276 1.386 . S
C277 C281 1.393 . S
C278 H267 0.950 1_545 S
C278 C276 1.391 . S
C278 C279 1.400 . S
C279 C273 1.491 . S
C279 C278 1.400 . S
C279 C280 1.398 . S
C280 H268 0.950 . S
C280 C279 1.398 . S
C280 C281 1.391 . S
C281 H269 0.950 . S
C281 C277 1.393 . S
C281 C280 1.391 . S
H282 C290 0.950 . S
H283 C295 0.950 . S
H284 C292 0.950 . S
H285 C294 0.950 . S
H286 C296 0.950 . S
H287 C298 0.950 . S
H288 C300 0.950 . S
H289 C301 0.950 . S
C290 H282 0.950 . S
C290 C291 1.386 . S
C290 C292 1.391 . S
C291 C290 1.386 . S
C291 C295 1.393 . S
C292 H284 0.950 . S
C292 C290 1.391 . S
C292 C293 1.400 . S
C293 C292 1.400 . S
C293 C294 1.398 . S
C293 C299 1.491 . S
C294 H285 0.950 . S
C294 C293 1.398 . S
C294 C295 1.391 . S
C295 H283 0.950 . S
C295 C291 1.393 . S
C295 C294 1.391 . S
C296 H286 0.950 . S
C296 C297 1.386 . S
C296 C298 1.391 . S
C297 C296 1.386 . S
C297 C301 1.393 . S
C298 H287 0.950 . S
C298 C296 1.391 . S
C298 C299 1.400 . S
C299 C293 1.491 . S
C299 C298 1.400 . S
C299 C300 1.398 . S
C300 H288 0.950 . S
C300 C299 1.398 . S
C300 C301 1.391 . S
C301 H289 0.950 . S
C301 C297 1.393 . S
C301 C300 1.391 . S
H302 C310 0.950 . S
H303 C315 0.949 1_565 S
H304 C312 0.950 . S
H305 C314 0.950 1_565 S
H306 C316 0.950 1_565 S
H307 C318 0.950 1_565 S
H308 C320 0.950 . S
H309 C321 0.950 . S
C310 H302 0.950 . S
C310 C311 1.386 . S
C310 C312 1.391 . S
C311 C310 1.386 . S
C311 C315 1.394 . S
C312 H304 0.950 . S
C312 C310 1.391 . S
C312 C313 1.400 . S
C313 C312 1.400 . S
C313 C314 1.398 . S
C313 C319 1.491 . S
C314 H305 0.950 1_545 S
C314 C313 1.398 . S
C314 C315 1.391 . S
C315 H303 0.949 1_545 S
C315 C311 1.394 . S
C315 C314 1.391 . S
C316 H306 0.950 1_545 S
C316 C317 1.386 . S
C316 C318 1.391 . S
C317 C316 1.386 . S
C317 C321 1.393 . S
C318 H307 0.950 1_545 S
C318 C316 1.391 . S
C318 C319 1.400 . S
C319 C313 1.491 . S
C319 C318 1.400 . S
C319 C320 1.398 . S
C320 H308 0.950 . S
C320 C319 1.398 . S
C320 C321 1.391 . S
C321 H309 0.950 . S
C321 C317 1.393 . S
C321 C320 1.391 . S
H322 C330 0.950 . S
H323 C335 0.950 . S
H324 C332 0.950 . S
H325 C334 0.950 . S
H326 C336 0.950 . S
H327 C338 0.950 . S
H328 C340 0.950 1_655 S
H329 C341 0.950 1_655 S
C330 H322 0.950 . S
C330 C331 1.386 . S
C330 C332 1.391 . S
C331 C330 1.386 . S
C331 C335 1.393 . S
C332 H324 0.950 . S
C332 C330 1.391 . S
C332 C333 1.400 . S
C333 C332 1.400 . S
C333 C334 1.398 . S
C333 C339 1.491 . S
C334 H325 0.950 . S
C334 C333 1.398 . S
C334 C335 1.391 . S
C335 H323 0.950 . S
C335 C331 1.393 . S
C335 C334 1.391 . S
C336 H326 0.950 . S
C336 C337 1.386 . S
C336 C338 1.391 . S
C337 C336 1.386 . S
C337 C341 1.393 . S
C338 H327 0.950 . S
C338 C336 1.391 . S
C338 C339 1.400 . S
C339 C333 1.491 . S
C339 C338 1.400 . S
C339 C340 1.398 . S
C340 H328 0.950 1_455 S
C340 C339 1.398 . S
C340 C341 1.391 . S
C341 H329 0.950 1_455 S
C341 C337 1.393 . S
C341 C340 1.391 . S
H342 C350 0.950 . S
H343 C355 0.950 . S
H344 C352 0.950 . S
H345 C354 0.950 . S
H346 C356 0.950 . S
H347 C358 0.950 . S
H348 C360 0.950 . S
H349 C361 0.950 . S
C350 H342 0.950 . S
C350 C351 1.386 . S
C350 C352 1.391 . S
C351 C350 1.386 . S
C351 C355 1.393 . S
C352 H344 0.950 . S
C352 C350 1.391 . S
C352 C353 1.400 . S
C353 C352 1.400 . S
C353 C354 1.398 . S
C353 C359 1.491 . S
C354 H345 0.950 . S
C354 C353 1.398 . S
C354 C355 1.391 . S
C355 H343 0.950 . S
C355 C351 1.393 . S
C355 C354 1.391 . S
C356 H346 0.950 . S
C356 C357 1.386 . S
C356 C358 1.391 . S
C357 C356 1.386 . S
C357 C361 1.393 . S
C358 H347 0.950 . S
C358 C356 1.391 . S
C358 C359 1.400 . S
C359 C353 1.491 . S
C359 C358 1.400 . S
C359 C360 1.398 . S
C360 H348 0.950 . S
C360 C359 1.398 . S
C360 C361 1.391 . S
C361 H349 0.950 . S
C361 C357 1.393 . S
C361 C360 1.391 . S
H362 C370 0.942 1_655 S
H363 C375 0.950 . S
H364 C372 0.955 . S
H365 C374 0.950 . S
H366 C376 0.950 . S
H367 C378 0.950 . S
H368 C380 0.950 1_655 S
H369 C381 0.950 . S
C370 H362 0.942 1_455 S
C370 C371 1.386 . S
C370 C372 1.391 . S
C371 C370 1.386 . S
C371 C375 1.393 . S
C372 H364 0.955 . S
C372 C370 1.391 . S
C372 C373 1.400 . S
C373 C372 1.400 . S
C373 C374 1.398 . S
C373 C379 1.491 . S
C374 H365 0.950 . S
C374 C373 1.398 . S
C374 C375 1.391 . S
C375 H363 0.950 . S
C375 C371 1.393 . S
C375 C374 1.391 . S
C376 H366 0.950 . S
C376 C377 1.386 . S
C376 C378 1.391 . S
C377 C376 1.386 . S
C377 C381 1.393 . S
C378 H367 0.950 . S
C378 C376 1.391 . S
C378 C379 1.400 . S
C379 C373 1.491 . S
C379 C378 1.400 . S
C379 C380 1.398 . S
C380 H368 0.950 1_455 S
C380 C379 1.398 . S
C380 C381 1.391 . S
C381 H369 0.950 . S
C381 C377 1.393 . S
C381 C380 1.391 . S
C237 C95 1.459 . S
C231 N12 1.415 . S
C257 C183 1.501 . S
C251 N25 1.482 . S
C277 C103 1.444 . S
C271 C16 1.443 . S
C297 C191 1.495 . S
C291 C30 1.494 . S
C317 C163 1.492 . S
C311 C7 1.491 . S
C337 C66 1.448 . S
C331 C39 1.439 . S
C357 C154 1.499 . S
C351 N2 1.477 . S
C371 N35 1.426 . S
C377 C75 1.460 . S
