# Generated by pormake.
# Topology soc, (4,6)-cn, num edge types: 1
# Building blocks:
#     Node 0, Type 0, BuildingBlock: ESEHIV_clean_sbu_0, # of connection points: 4
#     Node 1, Type 0, BuildingBlock: ESEHIV_clean_sbu_0, # of connection points: 4
#     Node 2, Type 0, BuildingBlock: ESEHIV_clean_sbu_0, # of connection points: 4
#     Node 3, Type 0, BuildingBlock: ESEHIV_clean_sbu_0, # of connection points: 4
#     Node 4, Type 0, BuildingBlock: ESEHIV_clean_sbu_0, # of connection points: 4
#     Node 5, Type 0, BuildingBlock: ESEHIV_clean_sbu_0, # of connection points: 4
#     Node 6, Type 0, BuildingBlock: ESEHIV_clean_sbu_0, # of connection points: 4
#     Node 7, Type 0, BuildingBlock: ESEHIV_clean_sbu_0, # of connection points: 4
#     Node 8, Type 0, BuildingBlock: ESEHIV_clean_sbu_0, # of connection points: 4
#     Node 9, Type 0, BuildingBlock: ESEHIV_clean_sbu_0, # of connection points: 4
#     Node 10, Type 0, BuildingBlock: ESEHIV_clean_sbu_0, # of connection points: 4
#     Node 11, Type 0, BuildingBlock: ESEHIV_clean_sbu_0, # of connection points: 4
#     Node 12, Type 1, BuildingBlock: CUKXOW_clean_sbu_0, # of connection points: 6
#     Node 13, Type 1, BuildingBlock: CUKXOW_clean_sbu_0, # of connection points: 6
#     Node 14, Type 1, BuildingBlock: CUKXOW_clean_sbu_0, # of connection points: 6
#     Node 15, Type 1, BuildingBlock: CUKXOW_clean_sbu_0, # of connection points: 6
#     Node 16, Type 1, BuildingBlock: CUKXOW_clean_sbu_0, # of connection points: 6
#     Node 17, Type 1, BuildingBlock: CUKXOW_clean_sbu_0, # of connection points: 6
#     Node 18, Type 1, BuildingBlock: CUKXOW_clean_sbu_0, # of connection points: 6
#     Node 19, Type 1, BuildingBlock: CUKXOW_clean_sbu_0, # of connection points: 6
#     Edge 20, Type (0, 1), BuildingBlock: MIFKUJ_clean_linker_0, # of connection points: 2
#     Edge 21, Type (0, 1), BuildingBlock: MIFKUJ_clean_linker_0, # of connection points: 2
#     Edge 22, Type (0, 1), BuildingBlock: MIFKUJ_clean_linker_0, # of connection points: 2
#     Edge 23, Type (0, 1), BuildingBlock: MIFKUJ_clean_linker_0, # of connection points: 2
#     Edge 24, Type (0, 1), BuildingBlock: MIFKUJ_clean_linker_0, # of connection points: 2
#     Edge 25, Type (0, 1), BuildingBlock: MIFKUJ_clean_linker_0, # of connection points: 2
#     Edge 26, Type (0, 1), BuildingBlock: MIFKUJ_clean_linker_0, # of connection points: 2
#     Edge 27, Type (0, 1), BuildingBlock: MIFKUJ_clean_linker_0, # of connection points: 2
#     Edge 28, Type (0, 1), BuildingBlock: MIFKUJ_clean_linker_0, # of connection points: 2
#     Edge 29, Type (0, 1), BuildingBlock: MIFKUJ_clean_linker_0, # of connection points: 2
#     Edge 30, Type (0, 1), BuildingBlock: MIFKUJ_clean_linker_0, # of connection points: 2
#     Edge 31, Type (0, 1), BuildingBlock: MIFKUJ_clean_linker_0, # of connection points: 2
#     Edge 32, Type (0, 1), BuildingBlock: MIFKUJ_clean_linker_0, # of connection points: 2
#     Edge 33, Type (0, 1), BuildingBlock: MIFKUJ_clean_linker_0, # of connection points: 2
#     Edge 34, Type (0, 1), BuildingBlock: MIFKUJ_clean_linker_0, # of connection points: 2
#     Edge 35, Type (0, 1), BuildingBlock: MIFKUJ_clean_linker_0, # of connection points: 2
#     Edge 36, Type (0, 1), BuildingBlock: MIFKUJ_clean_linker_0, # of connection points: 2
#     Edge 37, Type (0, 1), BuildingBlock: MIFKUJ_clean_linker_0, # of connection points: 2
#     Edge 38, Type (0, 1), BuildingBlock: MIFKUJ_clean_linker_0, # of connection points: 2
#     Edge 39, Type (0, 1), BuildingBlock: MIFKUJ_clean_linker_0, # of connection points: 2
#     Edge 40, Type (0, 1), BuildingBlock: MIFKUJ_clean_linker_0, # of connection points: 2
#     Edge 41, Type (0, 1), BuildingBlock: MIFKUJ_clean_linker_0, # of connection points: 2
#     Edge 42, Type (0, 1), BuildingBlock: MIFKUJ_clean_linker_0, # of connection points: 2
#     Edge 43, Type (0, 1), BuildingBlock: MIFKUJ_clean_linker_0, # of connection points: 2
#     Edge 44, Type (0, 1), BuildingBlock: MIFKUJ_clean_linker_0, # of connection points: 2
#     Edge 45, Type (0, 1), BuildingBlock: MIFKUJ_clean_linker_0, # of connection points: 2
#     Edge 46, Type (0, 1), BuildingBlock: MIFKUJ_clean_linker_0, # of connection points: 2
#     Edge 47, Type (0, 1), BuildingBlock: MIFKUJ_clean_linker_0, # of connection points: 2
#     Edge 48, Type (0, 1), BuildingBlock: MIFKUJ_clean_linker_0, # of connection points: 2
#     Edge 49, Type (0, 1), BuildingBlock: MIFKUJ_clean_linker_0, # of connection points: 2
#     Edge 50, Type (0, 1), BuildingBlock: MIFKUJ_clean_linker_0, # of connection points: 2
#     Edge 51, Type (0, 1), BuildingBlock: MIFKUJ_clean_linker_0, # of connection points: 2
#     Edge 52, Type (0, 1), BuildingBlock: MIFKUJ_clean_linker_0, # of connection points: 2
#     Edge 53, Type (0, 1), BuildingBlock: MIFKUJ_clean_linker_0, # of connection points: 2
#     Edge 54, Type (0, 1), BuildingBlock: MIFKUJ_clean_linker_0, # of connection points: 2
#     Edge 55, Type (0, 1), BuildingBlock: MIFKUJ_clean_linker_0, # of connection points: 2
#     Edge 56, Type (0, 1), BuildingBlock: MIFKUJ_clean_linker_0, # of connection points: 2
#     Edge 57, Type (0, 1), BuildingBlock: MIFKUJ_clean_linker_0, # of connection points: 2
#     Edge 58, Type (0, 1), BuildingBlock: MIFKUJ_clean_linker_0, # of connection points: 2
#     Edge 59, Type (0, 1), BuildingBlock: MIFKUJ_clean_linker_0, # of connection points: 2
#     Edge 60, Type (0, 1), BuildingBlock: MIFKUJ_clean_linker_0, # of connection points: 2
#     Edge 61, Type (0, 1), BuildingBlock: MIFKUJ_clean_linker_0, # of connection points: 2
#     Edge 62, Type (0, 1), BuildingBlock: MIFKUJ_clean_linker_0, # of connection points: 2
#     Edge 63, Type (0, 1), BuildingBlock: MIFKUJ_clean_linker_0, # of connection points: 2
#     Edge 64, Type (0, 1), BuildingBlock: MIFKUJ_clean_linker_0, # of connection points: 2
#     Edge 65, Type (0, 1), BuildingBlock: MIFKUJ_clean_linker_0, # of connection points: 2
#     Edge 66, Type (0, 1), BuildingBlock: MIFKUJ_clean_linker_0, # of connection points: 2
#     Edge 67, Type (0, 1), BuildingBlock: MIFKUJ_clean_linker_0, # of connection points: 2
# Relax obj value: 0.083
# Max RMSD: 0.169
# Mean RMSD: 0.141
data_MOF--net-soc--node1-ESEHIV_clean_sbu_0--node2-CUKXOW_clean_sbu_0--edge1-MIFKUJ_clean_linker_0
_symmetry_space_group_name_H-M    P1
_symmetry_Int_Tables_number       1
_symmetry_cell_setting            triclinic
loop_
_symmetry_equiv_pos_as_xyz
'x, y, z'
_cell_length_a     56.909765
_cell_length_b     56.681634
_cell_length_c     56.585579
_cell_angle_alpha  94.480428
_cell_angle_beta   92.910705
_cell_angle_gamma 88.442767
loop_
_atom_site_label
_atom_site_type_symbol
_atom_site_fract_x
_atom_site_fract_y
_atom_site_fract_z
_atom_type_partial_charge
Cu0 Cu 0.05437 0.03418 0.27129 0.0
N1 N 0.07484 0.05507 0.28948 0.0
N2 N 0.10147 0.08368 0.297 0.0
C3 C 0.08779 0.07145 0.28027 0.0
C4 C 0.09692 0.07448 0.31758 0.0
C5 C 0.08064 0.05684 0.31289 0.0
O6 O 0.07553 1.00977 0.25646 0.0
C7 C 1.02419 0.07153 0.26437 0.0
O8 O 1.02964 0.07405 0.28724 0.0
H9 H 0.08704 0.07437 0.26157 0.0
H10 H 0.07389 0.04584 0.32563 0.0
N11 N 1.03319 0.01771 0.28829 0.0
N12 N 1.00516 0.9918 0.29407 0.0
C13 C 1.01984 0.99978 0.27852 0.0
C14 C 1.02663 0.02139 0.31081 0.0
C15 C 1.0095 1.00539 0.31446 0.0
C16 C 0.08562 0.99704 0.27193 0.0
O17 O 0.08026 1.00148 0.29417 0.0
H18 H 1.0209 0.99279 0.26025 0.0
H19 H 1.03333 0.03508 0.32354 0.0
O20 O 1.03364 0.0543 0.25193 0.0
H21 H 0.10518 0.07967 0.33477 0.0
H22 H 1.00047 1.00434 0.33071 0.0
Cu23 Cu 0.03675 0.02281 0.72924 0.0
N24 N 1.01717 1.00122 0.71088 0.0
N25 N 0.9902 0.97293 0.7036 0.0
C26 C 0.99891 0.99014 0.7193 0.0
C27 C 1.00344 0.97332 0.6845 0.0
C28 C 1.01997 0.99073 0.689 0.0
O29 O 1.01544 0.04582 0.74567 0.0
C30 C 0.07393 0.99221 0.73312 0.0
O31 O 0.07168 0.99549 0.71039 0.0
H32 H 0.993 0.99377 0.73713 0.0
H33 H 1.03371 0.9947 0.67751 0.0
N34 N 0.05592 0.04181 0.7124 0.0
N35 N 0.08384 0.0681 0.70729 0.0
C36 C 0.0728 0.0559 0.72296 0.0
C37 C 0.05619 0.04516 0.68914 0.0
C38 C 0.07335 0.06129 0.68594 0.0
C39 C 1.00348 0.05768 0.7307 0.0
O40 O 1.00604 0.05208 0.70799 0.0
H41 H 0.07693 0.05697 0.74187 0.0
H42 H 0.04454 0.03677 0.67551 0.0
O43 O 0.05931 1.00294 0.74697 0.0
H44 H 1.00165 0.9615 0.66856 0.0
H45 H 0.07736 0.06782 0.66918 0.0
Cu46 Cu 0.35327 0.01639 0.00789 0.0
N47 N 0.37239 1.00204 0.98504 0.0
N48 N 0.38084 0.97524 0.95551 0.0
C49 C 0.37021 0.97945 0.97621 0.0
C50 C 0.39029 0.99599 0.95124 0.0
C51 C 0.38508 0.01253 0.96958 0.0
O52 O 0.33704 0.99113 0.02061 0.0
C53 C 0.32142 0.03283 0.97298 0.0
O54 O 0.32148 1.01044 0.96493 0.0
H55 H 0.35875 0.96713 0.98336 0.0
H56 H 0.38835 0.03129 0.97042 0.0
N57 N 0.37079 0.03241 0.03241 0.0
N58 N 0.37965 0.06004 0.06151 0.0
C59 C 0.36706 0.05494 0.04099 0.0
C60 C 0.38637 0.02295 0.0479 0.0
C61 C 0.39183 0.03998 0.06596 0.0
C62 C 0.32636 0.99311 0.03986 0.0
O63 O 0.32352 0.01412 0.05102 0.0
H64 H 0.35409 0.06679 0.03329 0.0
H65 H 0.39224 1.0046 0.04682 0.0
O66 O 0.33266 0.03875 -0.00757 0.0
H67 H 0.39879 0.99941 0.93521 0.0
H68 H 0.40314 0.03756 0.08159 0.0
Cu69 Cu 0.03561 0.33239 0.98902 0.0
N70 N 0.05096 0.34949 0.96797 0.0
N71 N 0.07727 0.35625 0.9415 0.0
C72 C 0.07308 0.34526 0.96113 0.0
C73 C 0.05703 0.36791 0.93585 0.0
C74 C 0.04079 0.36358 0.95213 0.0
O75 O 0.05975 0.31809 0.00949 0.0
C76 C 0.99544 0.30501 0.97064 0.0
O77 O 0.98594 0.31026 0.99107 0.0
H78 H 0.08508 0.33263 0.96906 0.0
H79 H 1.02235 0.36876 0.95131 0.0
N80 N 1.01626 0.35282 0.0075 0.0
N81 N 0.98878 0.36433 0.03311 0.0
C82 C 1.00343 0.34666 0.02524 0.0
C83 C 1.01008 0.37553 0.00451 0.0
C84 C 0.99302 0.38265 0.02019 0.0
C85 C 0.05625 0.30411 0.02544 0.0
O86 O 0.03499 0.29632 0.02753 0.0
H87 H 1.0036 0.32898 0.03112 0.0
H88 H 1.01683 0.38599 0.99132 0.0
O89 O 1.01668 0.3105 0.96807 0.0
H90 H 0.05376 0.37773 0.92031 0.0
H91 H 0.98399 0.39972 0.02147 0.0
Cu92 Cu 0.80612 0.05419 -0.00447 0.0
N93 N 0.82378 0.07845 0.98588 0.0
N94 N 0.83072 0.11526 0.97688 0.0
C95 C 0.81684 0.1013 0.98815 0.0
C96 C 0.84735 0.10038 0.96741 0.0
C97 C 0.84299 0.07766 0.97297 0.0
O98 O 0.784 0.06964 0.01712 0.0
C99 C 0.78036 0.01838 0.96976 0.0
O100 O 0.77741 1.01153 0.99104 0.0
H101 H 0.80113 0.10722 -0.00299 0.0
H102 H 0.85232 0.06163 0.96689 0.0
N103 N 0.82482 0.03254 0.01162 0.0
N104 N 0.83475 1.00623 0.03792 0.0
C105 C 0.8187 0.02255 0.03111 0.0
C106 C 0.8454 0.02202 0.00568 0.0
C107 C 0.85157 1.00565 0.0219 0.0
C108 C 0.79316 0.07819 0.03682 0.0
O109 O 0.81585 0.0751 0.04135 0.0
H110 H 0.80225 0.02648 0.03955 0.0
H111 H 0.85489 0.0255 0.99029 0.0
O112 O 0.79119 0.03741 0.96783 0.0
H113 H 0.86077 0.10515 0.9559 0.0
H114 H 0.86699 0.99405 0.02175 0.0
Cu115 Cu 0.04554 0.7382 0.0084 0.0
N116 N 1.02817 0.7195 0.98532 0.0
N117 N 1.00116 0.70984 0.95629 0.0
C118 C 1.00674 0.72466 0.9755 0.0
C119 C 1.01966 0.69454 0.95417 0.0
C120 C 0.03626 0.70053 0.97209 0.0
O121 O 1.02543 0.75034 0.03377 0.0
C122 C 0.06072 0.76474 0.97123 0.0
O123 O 0.04091 0.75837 0.95994 0.0
H124 H 0.99631 0.74013 0.98106 0.0
H125 H 0.05358 0.6925 0.97448 0.0
N126 N 0.06842 0.71985 0.02348 0.0
N127 N 0.1004 0.71242 0.04651 0.0
C128 C 0.08803 0.72875 0.03463 0.0
C129 C 0.06827 0.69701 0.02835 0.0
C130 C 0.08803 0.69236 0.04262 0.0
C131 C 1.00751 0.76423 0.03294 0.0
O132 O 1.0018 0.77437 0.0133 0.0
H133 H 0.09237 0.74726 0.03509 0.0
H134 H 0.05437 0.68488 0.02271 0.0
O135 O 0.06395 0.76082 -0.00695 0.0
H136 H 1.02151 0.68063 0.94012 0.0
H137 H 0.0926 0.67569 0.04999 0.0
Cu138 Cu 0.53822 0.5235 0.76709 0.0
N139 N 0.55857 0.54536 0.78391 0.0
N140 N 0.58668 0.57274 0.78915 0.0
C141 C 0.57511 0.55721 0.7736 0.0
C142 C 0.57691 0.57046 0.81013 0.0
C143 C 0.5596 0.55368 0.80684 0.0
O144 O 0.55943 0.50209 0.74841 0.0
C145 C 0.50001 0.55356 0.76704 0.0
O146 O 0.5039 0.54957 0.78948 0.0
H147 H 0.57845 0.55443 0.75493 0.0
H148 H 0.54825 0.54835 0.82012 0.0
N149 N 0.52204 0.50312 0.78541 0.0
N150 N 0.49829 0.47373 0.79274 0.0
C151 C 0.50483 0.4884 0.77662 0.0
C152 C 0.52633 0.4977 0.80801 0.0
C153 C 0.51182 0.47955 0.81251 0.0
C154 C 0.57374 0.49121 0.76227 0.0
O155 O 0.57272 0.49635 0.78523 0.0
H156 H 0.49799 0.48776 0.75839 0.0
H157 H 0.53968 0.50569 0.8201 0.0
O158 O 0.51362 0.54327 0.75187 0.0
H159 H 0.5814 0.58065 0.82664 0.0
H160 H 0.51148 0.47109 0.82898 0.0
Cu161 Cu 0.5525 0.53295 0.24114 0.0
N162 N 0.53053 0.51359 0.22318 0.0
N163 N 0.50146 0.48736 0.21635 0.0
C164 C 0.51862 0.49607 0.23184 0.0
C165 C 0.5028 0.49993 0.19713 0.0
C166 C 0.52055 0.51608 0.20143 0.0
O167 O 0.53295 0.55627 0.25955 0.0
C168 C 0.58686 0.49878 0.2431 0.0
O169 O 0.58347 0.50151 0.22033 0.0
H170 H 0.52167 0.49077 0.24972 0.0
H171 H 0.52498 0.52945 0.18991 0.0
N172 N 0.57217 0.55075 0.22344 0.0
N173 N 0.59933 0.57701 0.21607 0.0
C174 C 0.58781 0.56687 0.23289 0.0
C175 C 0.57407 0.55053 0.1998 0.0
C176 C 0.59064 0.56672 0.19523 0.0
C177 C 0.52338 0.57215 0.24707 0.0
O178 O 0.52788 0.57159 0.2245 0.0
H179 H 0.59043 0.57129 0.25177 0.0
H180 H 0.56433 0.53924 0.18675 0.0
O181 O 0.57409 0.51117 0.25761 0.0
H182 H 0.49142 0.49805 0.18123 0.0
H183 H 0.59616 0.57032 0.17786 0.0
Cu184 Cu 0.75605 0.50228 0.47587 0.0
N185 N 0.74235 0.51943 0.45186 0.0
N186 N 0.73952 0.54438 0.42316 0.0
C187 C 0.7519 0.53793 0.4427 0.0
C188 C 0.72145 0.52934 0.41995 0.0
C189 C 0.72325 0.51394 0.43772 0.0
O190 O 0.76551 0.52341 0.50298 0.0
C191 C 0.79625 0.47078 0.47372 0.0
O192 O 0.79526 0.47036 0.49683 0.0
H193 H 0.76835 0.5456 0.44942 0.0
H194 H 0.71204 0.49916 0.43962 0.0
N195 N 0.7347 0.48118 0.48581 0.0
N196 N 0.7232 0.44948 0.50295 0.0
C197 C 0.73978 0.45863 0.49037 0.0
C198 C 0.71378 0.48638 0.49521 0.0
C199 C 0.70664 0.46685 0.50587 0.0
C200 C 0.7844 0.53501 0.50471 0.0
O201 O 0.79896 0.53271 0.48735 0.0
H202 H 0.75636 0.44982 0.48658 0.0
H203 H 0.7053 0.50371 0.49597 0.0
O204 O 0.78217 0.48426 0.46254 0.0
H205 H 0.7082 0.52912 0.40552 0.0
H206 H 0.69135 0.46613 0.51638 0.0
Cu207 Cu 0.54804 0.81238 0.49054 0.0
N208 N 0.57038 0.83148 0.47886 0.0
N209 N 0.59971 0.84097 0.45672 0.0
C210 C 0.58432 0.8243 0.46103 0.0
C211 C 0.59509 0.85955 0.47236 0.0
C212 C 0.57703 0.85359 0.48609 0.0
O213 O 0.56394 0.79363 0.51429 0.0
C214 C 0.51293 0.78615 0.46204 0.0
O215 O 0.50384 0.78184 0.48209 0.0
H216 H 0.58325 0.80702 0.45149 0.0
H217 H 0.56961 0.86442 0.50058 0.0
N218 N 0.52455 0.82982 0.5065 0.0
N219 N 0.49363 0.8362 0.52925 0.0
C220 C 0.51063 0.8207 0.52186 0.0
C221 C 0.51623 0.85201 0.50416 0.0
C222 C 0.49719 0.85605 0.51833 0.0
C223 C 0.58448 0.7843 0.51287 0.0
O224 O 0.59467 0.78304 0.49249 0.0
H225 H 0.51273 0.8028 0.52717 0.0
H226 H 0.52302 0.86411 0.49245 0.0
O227 O 0.53279 0.79603 0.46254 0.0
H228 H 0.60454 0.87596 0.47422 0.0
H229 H 0.48628 0.87199 0.51973 0.0
Cu230 Cu 0.30607 0.53688 0.5053 0.0
N231 N 0.32906 0.55672 0.49671 0.0
N232 N 0.34427 0.58605 0.4789 0.0
C233 C 0.32618 0.57125 0.47915 0.0
C234 C 0.35914 0.58071 0.49716 0.0
C235 C 0.34968 0.56248 0.50813 0.0
O236 O 0.2858 0.55674 0.52559 0.0
C237 C 0.30263 0.51389 0.46033 0.0
O238 O 0.32551 0.51647 0.46284 0.0
H239 H 0.31042 0.57182 0.46763 0.0
H240 H 0.3568 0.55468 0.5239 0.0
N241 N 0.31975 0.51242 0.52169 0.0
N242 N 0.32383 0.48328 0.54589 0.0
C243 C 0.31014 0.5015 0.53899 0.0
C244 C 0.34016 0.50068 0.51744 0.0
C245 C 0.34271 0.48258 0.53236 0.0
C246 C 0.29397 0.56283 0.54648 0.0
O247 O 0.31456 0.55425 0.55363 0.0
H248 H 0.29314 0.50641 0.54588 0.0
H249 H 0.35211 0.50475 0.50415 0.0
O250 O 0.28983 0.52237 0.47692 0.0
H251 H 0.37531 0.58971 0.50251 0.0
H252 H 0.35724 0.4699 0.53318 0.0
Cu253 Cu 0.55604 0.21826 0.52445 0.0
N254 N 0.57897 0.19919 0.50955 0.0
N255 N 0.60891 0.18981 0.48626 0.0
C256 C 0.59151 0.20565 0.49173 0.0
C257 C 0.60733 0.17274 0.50142 0.0
C258 C 0.58884 0.17862 0.51584 0.0
O259 O 0.57307 0.2374 0.54946 0.0
C260 C 0.53187 0.22501 0.48174 0.0
O261 O 0.53687 0.20224 0.4788 0.0
H262 H 0.58853 0.22225 0.48369 0.0
H263 H 0.58352 0.16903 0.53039 0.0
N264 N 0.53386 0.20047 0.53794 0.0
N265 N 0.50522 0.19224 0.56136 0.0
C266 C 0.51893 0.20916 0.55429 0.0
C267 C 0.52938 0.17725 0.53428 0.0
C268 C 0.51176 0.17208 0.54883 0.0
C269 C 0.57902 0.22747 0.56839 0.0
O270 O 0.57202 0.2059 0.5706 0.0
H271 H 0.51864 0.22749 0.56129 0.0
H272 H 0.53833 0.16496 0.52199 0.0
O273 O 0.53903 0.23646 0.50093 0.0
H274 H 0.61884 0.15728 0.50226 0.0
H275 H 0.50423 0.1549 0.54994 0.0
Tb276 Tb 0.31817 0.28128 0.2733 0.0
C277 C 0.31663 0.2548 0.22346 0.0
Tb278 Tb 0.27925 0.29498 0.23852 0.0
O279 O 0.3035 0.2464 0.27591 0.0
O280 O 0.2812 0.27486 0.26884 0.0
O281 O 0.33093 0.26265 0.24136 0.0
C282 C 0.24263 0.29542 0.20669 0.0
O283 O 0.29458 0.26275 0.22094 0.0
C284 C 0.31533 0.32363 0.24173 0.0
C285 C 0.28313 0.32405 0.28728 0.0
O286 O 0.26402 0.30099 0.20305 0.0
O287 O 0.24174 0.28978 0.22843 0.0
O288 O 0.29392 0.32986 0.23551 0.0
O289 O 0.31616 0.30146 0.2432 0.0
O290 O 0.26826 0.31717 0.26939 0.0
O291 O 0.30459 0.31457 0.28986 0.0
C292 C 0.35431 0.27949 0.30553 0.0
O293 O 0.33252 0.284 0.31015 0.0
O294 O 0.35581 0.27591 0.28274 0.0
C295 C 0.28208 0.25267 0.27002 0.0
Tb296 Tb 0.78374 0.26227 0.27223 0.0
C297 C 0.83174 0.24104 0.2549 0.0
Tb298 Tb 0.80638 0.28641 0.23403 0.0
O299 O 0.77893 0.23004 0.24934 0.0
O300 O 0.77825 0.26274 0.23461 0.0
O301 O 0.8176 0.24305 0.273 0.0
C302 C 0.82809 0.29979 0.19677 0.0
O303 O 0.82876 0.25452 0.23674 0.0
C304 C 0.81156 0.30809 0.27646 0.0
C305 C 0.75922 0.3084 0.25207 0.0
O306 O 0.83646 0.30108 0.21852 0.0
O307 O 0.80731 0.29067 0.19575 0.0
O308 O 0.81078 0.31872 0.25699 0.0
O309 O 0.81167 0.28598 0.27159 0.0
O310 O 0.77274 0.3058 0.23352 0.0
O311 O 0.7625 0.29513 0.27036 0.0
C312 C 0.76119 0.24996 0.30944 0.0
O313 O 0.75159 0.2538 0.28883 0.0
O314 O 0.78372 0.25308 0.30931 0.0
C315 C 0.77837 0.24062 0.22985 0.0
Tb316 Tb 0.79172 0.8034 0.23141 0.0
C317 C 0.77362 0.79895 0.28168 0.0
Tb318 Tb 0.81412 0.76348 0.26191 0.0
O319 O 0.75782 0.78581 0.22684 0.0
O320 O 0.78859 0.76622 0.23333 0.0
O321 O 0.77734 0.81414 0.26558 0.0
C322 C 0.8175 0.72292 0.28289 0.0
O323 O 0.78357 0.77739 0.28116 0.0
C324 C 0.8377 0.80346 0.26887 0.0
C325 C 0.83694 0.77221 0.21401 0.0
O326 O 0.81903 0.74395 0.29359 0.0
O327 O 0.81475 0.72467 0.26015 0.0
O328 O 0.84377 0.78421 0.27902 0.0
O329 O 0.81924 0.7988 0.25645 0.0
O330 O 0.83615 0.7576 0.2313 0.0
O331 O 0.82262 0.79101 0.2122 0.0
C332 C 0.78612 0.83862 0.20315 0.0
O333 O 0.78524 0.81625 0.1964 0.0
O334 O 0.78965 0.84133 0.2261 0.0
C335 C 0.76635 0.76528 0.23215 0.0
Tb336 Tb 0.31559 0.79306 0.234 0.0
C337 C 0.33444 0.7435 0.25025 0.0
Tb338 Tb 0.29313 0.77363 0.27675 0.0
O339 O 0.33491 0.81954 0.25796 0.0
O340 O 0.32514 0.78807 0.26956 0.0
O341 O 0.33491 0.75901 0.23368 0.0
C342 C 0.28737 0.75621 0.31824 0.0
O343 O 0.32002 0.74607 0.26822 0.0
C344 C 0.26758 0.77003 0.23701 0.0
C345 C 0.27618 0.82339 0.2611 0.0
O346 O 0.28188 0.74563 0.29756 0.0
O347 O 0.29539 0.77702 0.31552 0.0
O348 O 0.2588 0.77157 0.25783 0.0
O349 O 0.28969 0.76803 0.23932 0.0
O350 O 0.27976 0.81036 0.27957 0.0
O351 O 0.28654 0.81814 0.24084 0.0
C352 C 0.32247 0.80471 0.19015 0.0
O353 O 0.33865 0.80429 0.20724 0.0
O354 O 0.30284 0.79785 0.19771 0.0
C355 C 0.33427 0.80736 0.27648 0.0
Tb356 Tb 0.27333 0.76224 0.77276 0.0
C357 C 0.32194 0.73973 0.75871 0.0
Tb358 Tb 0.29627 0.78247 0.73211 0.0
O359 O 0.26885 0.72853 0.75248 0.0
O360 O 0.26772 0.75993 0.73501 0.0
O361 O 0.30653 0.74202 0.77578 0.0
C362 C 0.31888 0.79124 0.69331 0.0
O363 O 0.32043 0.75291 0.74018 0.0
C364 C 0.30228 0.80674 0.7732 0.0
C365 C 0.2484 0.80477 0.74641 0.0
O366 O 0.31761 0.80502 0.71253 0.0
O367 O 0.30704 0.77235 0.69565 0.0
O368 O 0.30116 0.81596 0.75296 0.0
O369 O 0.30216 0.78448 0.7698 0.0
O370 O 0.26167 0.79971 0.72793 0.0
O371 O 0.25228 0.79432 0.76645 0.0
C372 C 0.24752 0.75701 0.81033 0.0
O373 O 0.24153 0.75112 0.78833 0.0
O374 O 0.26871 0.76526 0.81147 0.0
C375 C 0.26786 0.73757 0.73207 0.0
Tb376 Tb 0.28924 0.28294 0.74581 0.0
C377 C 0.26785 0.28572 0.7951 0.0
Tb378 Tb 0.30589 0.24635 0.7789 0.0
O379 O 0.25365 0.26936 0.7428 0.0
O380 O 0.2822 0.24635 0.74852 0.0
O381 O 0.27307 0.29832 0.77741 0.0
C382 C 0.30812 0.21118 0.80785 0.0
O383 O 0.27656 0.264 0.79728 0.0
C384 C 0.3347 0.28194 0.77784 0.0
C385 C 0.32966 0.24573 0.73091 0.0
O386 O 0.31451 0.23275 0.81356 0.0
O387 O 0.30074 0.20931 0.78573 0.0
O388 O 0.34143 0.26074 0.78286 0.0
O389 O 0.31248 0.28286 0.7762 0.0
O390 O 0.32415 0.23231 0.74788 0.0
O391 O 0.32024 0.26719 0.729 0.0
C392 C 0.28546 0.31647 0.71518 0.0
O393 O 0.28419 0.29391 0.70966 0.0
O394 O 0.28864 0.32022 0.738 0.0
C395 C 0.25994 0.24801 0.7475 0.0
Tb396 Tb 0.81263 0.2966 0.72504 0.0
C397 C 0.83118 0.24853 0.74417 0.0
Tb398 Tb 0.79381 0.28112 0.77168 0.0
O399 O 0.84781 0.30197 0.74154 0.0
O400 O 0.8183 0.3058 0.76198 0.0
O401 O 0.82666 0.26014 0.72482 0.0
C402 C 0.78999 0.27652 0.81776 0.0
O403 O 0.82245 0.25554 0.76493 0.0
C404 C 0.77453 0.26053 0.73218 0.0
C405 C 0.76981 0.32605 0.74966 0.0
O406 O 0.77227 0.27717 0.80232 0.0
O407 O 0.80939 0.2782 0.80712 0.0
O408 O 0.77491 0.25128 0.75257 0.0
O409 O 0.78244 0.28095 0.7359 0.0
O410 O 0.77253 0.31372 0.7688 0.0
O411 O 0.78288 0.32176 0.73081 0.0
C412 C 0.81584 0.31059 0.68153 0.0
O413 O 0.81939 0.32379 0.70116 0.0
O414 O 0.8114 0.2892 0.6865 0.0
C415 C 0.84054 0.30498 0.76295 0.0
Tb416 Tb 0.80173 0.74924 0.72654 0.0
C417 C 0.82064 0.7577 0.77866 0.0
Tb418 Tb 0.77961 0.7909 0.75826 0.0
O419 O 0.83533 0.76692 0.72789 0.0
O420 O 0.80438 0.78719 0.73078 0.0
O421 O 0.81618 0.74112 0.76126 0.0
C422 C 0.77303 0.83098 0.78555 0.0
O423 O 0.81124 0.77944 0.77855 0.0
C424 C 0.75675 0.75097 0.7608 0.0
C425 C 0.75603 0.77811 0.70742 0.0
O426 O 0.77437 0.8098 0.79263 0.0
O427 O 0.77531 0.82981 0.7627 0.0
O428 O 0.75081 0.77095 0.77192 0.0
O429 O 0.77453 0.75495 0.74964 0.0
O430 O 0.75695 0.79399 0.72614 0.0
O431 O 0.77088 0.75963 0.70493 0.0
C432 C 0.81011 0.71088 0.69768 0.0
O433 O 0.81386 0.73251 0.69314 0.0
O434 O 0.80159 0.71078 0.71856 0.0
C435 C 0.82667 0.78818 0.73199 0.0
H436 H 0.11645 0.11875 0.3294 0.0
H437 H 0.1446 0.14944 0.32403 0.0
H438 H 0.15242 0.12148 0.2517 0.0
H439 H 0.1241 0.09088 0.25692 0.0
H440 H 0.18866 0.14812 0.316 0.0
H441 H 0.16764 0.16489 0.21718 0.0
H442 H 0.1336 0.16414 0.18836 0.0
H443 H 0.08664 0.17651 0.24531 0.0
H444 H 0.1204 0.17766 0.27443 0.0
H445 H 0.28362 0.20509 0.27248 0.0
H446 H 0.25114 0.17857 0.27611 0.0
H447 H 0.20179 0.23748 0.27298 0.0
H448 H 0.23453 0.26422 0.26902 0.0
H449 H 0.184 0.19876 0.24818 0.0
H450 H 0.2183 0.21555 0.32612 0.0
H451 H 0.2503 0.21927 0.35715 0.0
H452 H 0.26654 0.14493 0.34607 0.0
H453 H 0.23483 0.14082 0.31474 0.0
C454 C 0.12415 0.11905 0.31234 0.0
C455 C 0.11786 0.10221 0.29362 0.0
C456 C 0.14028 0.13672 0.30926 0.0
C457 C 0.15063 0.13811 0.28736 0.0
C458 C 0.14442 0.12127 0.26864 0.0
C459 C 0.12816 0.10367 0.27167 0.0
C460 C 0.16842 0.15665 0.28447 0.0
C461 C 0.18754 0.15914 0.30114 0.0
C462 C 0.16698 0.17154 0.26538 0.0
C463 C 0.14656 0.17112 0.24799 0.0
C464 C 0.15006 0.16754 0.22354 0.0
C465 C 0.13081 0.16703 0.20716 0.0
C466 C 0.10797 0.1702 0.215 0.0
C467 C 0.10433 0.17396 0.23925 0.0
C468 C 0.12352 0.17452 0.25571 0.0
C469 C 0.26585 0.21245 0.27246 0.0
C470 C 0.2617 0.23683 0.27066 0.0
C471 C 0.24725 0.19723 0.27462 0.0
C472 C 0.22393 0.20597 0.27529 0.0
C473 C 0.21959 0.23024 0.27264 0.0
C474 C 0.23831 0.24554 0.27039 0.0
C475 C 0.20439 0.18975 0.27941 0.0
C476 C 0.18502 0.1877 0.26301 0.0
C477 C 0.2053 0.17557 0.29903 0.0
C478 C 0.22431 0.17793 0.31795 0.0
C479 C 0.2288 0.20003 0.33019 0.0
C480 C 0.24687 0.2022 0.34785 0.0
C481 C 0.26047 0.18236 0.35354 0.0
C482 C 0.256 0.16029 0.34163 0.0
C483 C 0.23796 0.15802 0.32393 0.0
H484 H 0.27446 0.18408 0.36722 0.0
H485 H 0.09309 0.16978 0.20229 0.0
H486 H 0.98261 0.06211 0.23887 0.0
H487 H 0.94933 0.09021 0.23383 0.0
H488 H 0.99258 0.14712 0.26468 0.0
H489 H 1.02525 0.11903 0.27042 0.0
H490 H 0.95434 0.14913 0.28615 0.0
H491 H 0.97221 0.14121 0.2039 0.0
H492 H 0.97924 0.12004 0.16506 0.0
H493 H 0.90961 0.09229 0.16212 0.0
H494 H 0.90227 0.11306 0.20111 0.0
H495 H 0.86661 0.23502 0.22319 0.0
H496 H 0.8986 0.20552 0.22186 0.0
H497 H 0.87292 0.17555 0.28311 0.0
H498 H 0.84108 0.20551 0.28492 0.0
H499 H 0.90173 0.15958 0.21501 0.0
H500 H 0.91828 0.1528 0.31585 0.0
H501 H 0.91399 0.17741 0.3534 0.0
H502 H 0.92014 0.24038 0.31682 0.0
H503 H 0.92475 0.21613 0.27913 0.0
C504 C 0.98517 0.08076 0.24373 0.0
C505 C 1.0066 0.08847 0.25474 0.0
C506 C 0.96609 0.09685 0.24102 0.0
C507 C 0.96825 0.12094 0.24899 0.0
C508 C 0.99021 0.1287 0.25859 0.0
C509 C 1.00903 0.11266 0.2616 0.0
C510 C 0.94748 0.13786 0.24921 0.0
C511 C 0.94287 0.15131 0.27052 0.0
C512 C 0.93241 0.14104 0.22893 0.0
C513 C 0.93679 0.12849 0.20554 0.0
C514 C 0.95847 0.13043 0.19506 0.0
C515 C 0.9625 0.11854 0.173 0.0
C516 C 0.94491 0.10477 0.16116 0.0
C517 C 0.92323 0.10292 0.17133 0.0
C518 C 0.91912 0.11477 0.1934 0.0
C519 C 0.86772 0.22222 0.23647 0.0
C520 C 0.85126 0.22287 0.25432 0.0
C521 C 0.88604 0.2052 0.23558 0.0
C522 C 0.88847 0.18829 0.25247 0.0
C523 C 0.87179 0.18859 0.27007 0.0
C524 C 0.85351 0.20576 0.27108 0.0
C525 C 0.90876 0.17085 0.25189 0.0
C526 C 0.91319 0.15725 0.23061 0.0
C527 C 0.92407 0.16791 0.27204 0.0
C528 C 0.92159 0.18265 0.29465 0.0
C529 C 0.91878 0.1719 0.31585 0.0
C530 C 0.91629 0.18578 0.33715 0.0
C531 C 0.91671 0.21044 0.33748 0.0
C532 C 0.91972 0.22127 0.31652 0.0
C533 C 0.92226 0.20747 0.29519 0.0
H534 H 0.91475 0.22116 0.35398 0.0
H535 H 0.94805 0.09558 0.14408 0.0
H536 H 0.98319 0.97669 0.25184 0.0
H537 H 0.95439 0.94531 0.24467 0.0
H538 H 0.95893 0.93334 0.31907 0.0
H539 H 0.98804 0.96438 0.3263 0.0
H540 H 0.96056 0.89155 0.29035 0.0
H541 H 0.90858 0.96302 0.29505 0.0
H542 H 0.89642 1.00233 0.28209 0.0
H543 H 0.88953 0.9731 0.20979 0.0
H544 H 0.90179 0.93369 0.22237 0.0
H545 H 0.86627 0.82011 0.30551 0.0
H546 H 0.89324 0.85294 0.30718 0.0
H547 H 0.87053 0.86721 0.23566 0.0
H548 H 0.8421 0.83511 0.23468 0.0
H549 H 0.87951 0.90712 0.2578 0.0
H550 H 0.92453 0.83611 0.25043 0.0
H551 H 0.93868 0.79598 0.25881 0.0
H552 H 0.96333 0.82195 0.32875 0.0
H553 H 0.94903 0.8622 0.32092 0.0
C554 C 0.97822 0.96732 0.26669 0.0
C555 C 0.98804 0.97321 0.2897 0.0
C556 C 0.96151 0.94947 0.26258 0.0
C557 C 0.9542 0.93702 0.28135 0.0
C558 C 0.96415 0.94269 0.30427 0.0
C559 C 0.98073 0.96061 0.30842 0.0
C560 C 0.93646 0.91789 0.27725 0.0
C561 C 0.94275 0.89501 0.28351 0.0
C562 C 0.91358 0.92194 0.26711 0.0
C563 C 0.90601 0.9455 0.25963 0.0
C564 C 0.90448 0.96503 0.2764 0.0
C565 C 0.89759 0.98731 0.26913 0.0
C566 C 0.8922 0.99021 0.24513 0.0
C567 C 0.89373 0.97085 0.22837 0.0
C568 C 0.9006 0.94854 0.23556 0.0
C569 C 0.86679 0.83047 0.29024 0.0
C570 C 0.85213 0.825 0.26996 0.0
C571 C 0.88246 0.84913 0.29109 0.0
C572 C 0.88471 0.8623 0.27127 0.0
C573 C 0.86939 0.85738 0.25119 0.0
C574 C 0.85312 0.83901 0.25061 0.0
C575 C 0.90331 0.88074 0.2717 0.0
C576 C 0.89729 0.90347 0.26459 0.0
C577 C 0.92679 0.87632 0.28033 0.0
C578 C 0.93553 0.85216 0.28514 0.0
C579 C 0.93283 0.83325 0.26765 0.0
C580 C 0.9409 0.81047 0.2723 0.0
C581 C 0.95186 0.80641 0.29431 0.0
C582 C 0.95482 0.82512 0.31171 0.0
C583 C 0.94676 0.84793 0.30717 0.0
H584 H 0.95809 0.78877 0.29788 0.0
H585 H 0.88685 1.00746 0.23954 0.0
H586 H 0.10166 0.96342 0.30054 0.0
H587 H 0.13425 0.93536 0.29524 0.0
H588 H 0.14432 0.95916 0.22605 0.0
H589 H 0.11116 0.98786 0.23129 0.0
H590 H 0.14958 0.90828 0.22862 0.0
H591 H 0.18022 0.97893 0.26877 0.0
H592 H 0.18133 0.01279 0.29888 0.0
H593 H 0.18863 0.96519 0.35436 0.0
H594 H 0.18718 0.931 0.32457 0.0
H595 H 0.26322 0.85225 0.22581 0.0
H596 H 0.23156 0.88204 0.22511 0.0
H597 H 0.2162 0.86938 0.29679 0.0
H598 H 0.24804 0.83934 0.2977 0.0
H599 H 0.21496 0.91665 0.28998 0.0
H600 H 0.18293 0.84607 0.25008 0.0
H601 H 0.18135 0.81199 0.22023 0.0
H602 H 0.17646 0.85911 0.16426 0.0
H603 H 0.17851 0.89352 0.19379 0.0
C604 C 0.11059 0.96276 0.28403 0.0
C605 C 0.10385 0.97822 0.26643 0.0
C606 C 0.12933 0.94659 0.28107 0.0
C607 C 0.14209 0.94535 0.26046 0.0
C608 C 0.13481 0.95987 0.2422 0.0
C609 C 0.11585 0.97626 0.24518 0.0
C610 C 0.16354 0.92953 0.25901 0.0
C611 C 0.16412 0.91038 0.24171 0.0
C612 C 0.18232 0.93188 0.27643 0.0
C613 C 0.18341 0.95239 0.29442 0.0
C614 C 0.18189 0.97567 0.28739 0.0
C615 C 0.1826 0.99493 0.3044 0.0
C616 C 0.18501 0.99114 0.32852 0.0
C617 C 0.18675 0.96809 0.33567 0.0
C618 C 0.18601 0.94876 0.31872 0.0
C619 C 0.2533 0.85582 0.24158 0.0
C620 C 0.25827 0.84319 0.26184 0.0
C621 C 0.23502 0.87285 0.24105 0.0
C622 C 0.22116 0.87778 0.26073 0.0
C623 C 0.22655 0.86585 0.2813 0.0
C624 C 0.24482 0.84866 0.28182 0.0
C625 C 0.20096 0.8952 0.25975 0.0
C626 C 0.20059 0.91465 0.27668 0.0
C627 C 0.18244 0.89308 0.24196 0.0
C628 C 0.18114 0.8724 0.22416 0.0
C629 C 0.18176 0.84919 0.23141 0.0
C630 C 0.18075 0.8298 0.21455 0.0
C631 C 0.17886 0.83338 0.19037 0.0
C632 C 0.17797 0.85637 0.183 0.0
C633 C 0.17906 0.87582 0.1998 0.0
H634 H 0.17798 0.81837 0.17735 0.0
H635 H 0.18556 1.00608 0.34167 0.0
H636 H 0.11527 0.98396 0.71257 0.0
H637 H 0.14414 0.95242 0.71892 0.0
H638 H 0.10562 0.93118 0.77707 0.0
H639 H 0.07613 0.9632 0.77068 0.0
H640 H 0.15851 0.92896 0.78321 0.0
H641 H 0.09575 0.90109 0.72896 0.0
H642 H 0.06777 0.90366 0.69449 0.0
H643 H 0.12529 0.90484 0.64836 0.0
H644 H 0.15363 0.90268 0.68263 0.0
H645 H 0.21562 0.81584 0.77937 0.0
H646 H 0.18603 0.84768 0.78012 0.0
H647 H 0.20843 0.86841 0.71323 0.0
H648 H 0.2381 0.83613 0.71216 0.0
H649 H 0.16167 0.8699 0.71379 0.0
H650 H 0.22442 0.89904 0.76667 0.0
H651 H 0.2535 0.89796 0.80041 0.0
H652 H 0.19772 0.89575 0.84845 0.0
H653 H 0.16829 0.8964 0.81493 0.0
C654 C 0.11302 0.97288 0.72701 0.0
C655 C 0.09322 0.97595 0.74096 0.0
C656 C 0.12962 0.95482 0.73061 0.0
C657 C 0.12689 0.93917 0.74818 0.0
C658 C 0.10803 0.94304 0.76333 0.0
C659 C 0.09124 0.96136 0.75973 0.0
C660 C 0.1428 0.91785 0.74892 0.0
C661 C 0.15891 0.91574 0.76829 0.0
C662 C 0.1438 0.90099 0.72912 0.0
C663 C 0.12681 0.90189 0.7084 0.0
C664 C 0.10244 0.90206 0.71149 0.0
C665 C 0.08651 0.90342 0.69198 0.0
C666 C 0.09475 0.90445 0.66925 0.0
C667 C 0.11893 0.90405 0.66598 0.0
C668 C 0.13493 0.90273 0.68544 0.0
C669 C 0.21431 0.82707 0.76471 0.0
C670 C 0.22943 0.8234 0.74572 0.0
C671 C 0.19737 0.84543 0.76526 0.0
C672 C 0.19519 0.86082 0.74698 0.0
C673 C 0.20981 0.85686 0.72765 0.0
C674 C 0.22678 0.83837 0.72703 0.0
C675 C 0.17761 0.88093 0.74805 0.0
C676 C 0.16119 0.88288 0.7289 0.0
C677 C 0.17648 0.89769 0.76801 0.0
C678 C 0.19414 0.89753 0.78824 0.0
C679 C 0.21835 0.89814 0.78441 0.0
C680 C 0.2349 0.89763 0.8035 0.0
C681 C 0.22747 0.89674 0.82656 0.0
C682 C 0.20345 0.89641 0.83058 0.0
C683 C 0.18682 0.89686 0.81154 0.0
H684 H 0.24031 0.89635 0.84131 0.0
H685 H 0.08239 0.90552 0.65417 0.0
H686 H 0.09577 0.09231 0.74968 0.0
H687 H 0.12656 0.1214 0.75785 0.0
H688 H 0.14542 0.11213 0.68484 0.0
H689 H 0.11479 0.08287 0.67652 0.0
H690 H 0.17345 0.12063 0.75577 0.0
H691 H 0.16233 0.16485 0.66699 0.0
H692 H 0.13133 0.17217 0.63615 0.0
H693 H 0.07837 0.16893 0.68714 0.0
H694 H 0.10905 0.16191 0.71833 0.0
H695 H 0.26918 0.19971 0.74405 0.0
H696 H 0.24022 0.168 0.7391 0.0
H697 H 0.18382 0.22029 0.74403 0.0
H698 H 0.21249 0.25174 0.74855 0.0
H699 H 0.17428 0.19024 0.70794 0.0
H700 H 0.19927 0.18383 0.78944 0.0
H701 H 0.22692 0.17822 0.82368 0.0
H702 H 0.24772 0.10988 0.7924 0.0
H703 H 0.22045 0.11519 0.75781 0.0
C704 C 0.10654 0.09618 0.73533 0.0
C705 C 0.10248 0.08511 0.71233 0.0
C706 C 0.12423 0.11294 0.74008 0.0
C707 C 0.13829 0.11926 0.72196 0.0
C708 C 0.13462 0.10794 0.6991 0.0
C709 C 0.11695 0.09118 0.69434 0.0
C710 C 0.15636 0.13803 0.72685 0.0
C711 C 0.17368 0.13579 0.74523 0.0
C712 C 0.15656 0.15815 0.71348 0.0
C713 C 0.13799 0.16259 0.69491 0.0
C714 C 0.14407 0.16577 0.67162 0.0
C715 C 0.12656 0.16986 0.65408 0.0
C716 C 0.10289 0.17092 0.65966 0.0
C717 C 0.0967 0.168 0.68282 0.0
C718 C 0.11414 0.16394 0.70042 0.0
C719 C 0.25061 0.20435 0.7443 0.0
C720 C 0.24314 0.22825 0.74651 0.0
C721 C 0.23402 0.18622 0.7415 0.0
C722 C 0.20967 0.19163 0.74109 0.0
C723 C 0.20238 0.21552 0.744 0.0
C724 C 0.21885 0.23353 0.74666 0.0
C725 C 0.19163 0.17276 0.73671 0.0
C726 C 0.17425 0.17499 0.71839 0.0
C727 C 0.19113 0.15292 0.75045 0.0
C728 C 0.20796 0.14999 0.77094 0.0
C729 C 0.20993 0.16772 0.78974 0.0
C730 C 0.22549 0.16457 0.80923 0.0
C731 C 0.23902 0.1437 0.81018 0.0
C732 C 0.23719 0.12602 0.79161 0.0
C733 C 0.22169 0.12908 0.77207 0.0
H734 H 0.25082 0.14111 0.82536 0.0
H735 H 0.08936 0.17407 0.64606 0.0
H736 H 0.97652 0.06616 0.77025 0.0
H737 H 0.94718 0.09862 0.77699 0.0
H738 H 0.96581 0.12764 0.71244 0.0
H739 H 0.99465 0.09574 0.70573 0.0
H740 H 0.95991 0.16241 0.7472 0.0
H741 H 0.91806 0.09304 0.71362 0.0
H742 H 0.90515 0.05182 0.71331 0.0
H743 H 0.87276 0.06813 0.77972 0.0
H744 H 0.88578 0.1094 0.78057 0.0
H745 H 0.86421 0.23545 0.71145 0.0
H746 H 0.89332 0.2028 0.71275 0.0
H747 H 0.86418 0.18136 0.77638 0.0
H748 H 0.83522 0.21392 0.77528 0.0
H749 H 0.87544 0.14305 0.74761 0.0
H750 H 0.91427 0.2124 0.78055 0.0
H751 H 0.92708 0.25368 0.78207 0.0
H752 H 0.96526 0.23773 0.71906 0.0
H753 H 0.95248 0.19633 0.71702 0.0
C754 C 0.97454 0.07971 0.75779 0.0
C755 C 0.98781 0.07829 0.7374 0.0
C756 C 0.95768 0.09815 0.76153 0.0
C757 C 0.95408 0.11553 0.74507 0.0
C758 C 0.96814 0.11455 0.72539 0.0
C759 C 0.98462 0.09617 0.72154 0.0
C760 C 0.93519 0.13431 0.74732 0.0
C761 C 0.94144 0.15812 0.7472 0.0
C762 C 0.91107 0.12893 0.74789 0.0
C763 C 0.90313 0.1042 0.7473 0.0
C764 C 0.90835 0.08778 0.72825 0.0
C765 C 0.90098 0.06442 0.72796 0.0
C766 C 0.88821 0.05734 0.74653 0.0
C767 C 0.8827 0.07363 0.76538 0.0
C768 C 0.89006 0.097 0.76577 0.0
C769 C 0.86383 0.22363 0.72557 0.0
C770 C 0.84744 0.22745 0.74333 0.0
C771 C 0.8806 0.20504 0.7264 0.0
C772 C 0.88126 0.18977 0.74492 0.0
C773 C 0.86419 0.1929 0.76199 0.0
C774 C 0.84765 0.21163 0.76136 0.0
C775 C 0.90016 0.17107 0.7469 0.0
C776 C 0.89392 0.14735 0.74787 0.0
C777 C 0.92433 0.17652 0.74729 0.0
C778 C 0.93222 0.20133 0.74851 0.0
C779 C 0.92525 0.21774 0.76692 0.0
C780 C 0.93252 0.24116 0.76789 0.0
C781 C 0.94689 0.24837 0.75063 0.0
C782 C 0.9541 0.23213 0.7324 0.0
C783 C 0.94687 0.20867 0.73135 0.0
H784 H 0.95248 0.26652 0.75141 0.0
H785 H 0.88252 0.03925 0.74627 0.0
H786 H 0.95076 0.98104 0.72847 0.0
H787 H 0.92001 0.95282 0.73414 0.0
H788 H 0.95841 0.89836 0.6935 0.0
H789 H 0.98846 0.9268 0.68702 0.0
H790 H 0.91595 0.89328 0.68109 0.0
H791 H 0.95512 0.90383 0.75837 0.0
H792 H 0.97032 0.9261 0.7949 0.0
H793 H 0.90039 0.95151 0.80956 0.0
H794 H 0.88481 0.92961 0.77295 0.0
H795 H 0.87316 0.78946 0.72413 0.0
H796 H 0.89727 0.82373 0.72024 0.0
H797 H 0.83766 0.87026 0.73433 0.0
H798 H 0.81295 0.83562 0.73757 0.0
H799 H 0.88628 0.88206 0.76027 0.0
H800 H 0.84795 0.86704 0.68276 0.0
H801 H 0.83494 0.84164 0.64742 0.0
H802 H 0.90674 0.82145 0.63469 0.0
H803 H 0.92015 0.84646 0.6702 0.0
C804 C 0.95262 0.96302 0.72082 0.0
C805 C 0.97209 0.95623 0.70725 0.0
C806 C 0.93505 0.94678 0.72416 0.0
C807 C 0.93681 0.9231 0.71459 0.0
C808 C 0.95634 0.9164 0.70105 0.0
C809 C 0.97361 0.93273 0.69732 0.0
C810 C 0.91839 0.9053 0.71823 0.0
C811 C 0.90971 0.89085 0.69851 0.0
C812 C 0.90952 0.90213 0.7408 0.0
C813 C 0.91885 0.91532 0.76278 0.0
C814 C 0.94301 0.91431 0.76929 0.0
C815 C 0.95169 0.92684 0.79002 0.0
C816 C 0.93634 0.94027 0.8045 0.0
C817 C 0.91227 0.94114 0.79831 0.0
C818 C 0.9035 0.92867 0.77758 0.0
C819 C 0.86506 0.80695 0.72649 0.0
C820 C 0.84102 0.80973 0.73112 0.0
C821 C 0.87895 0.82656 0.72426 0.0
C822 C 0.86935 0.84961 0.72693 0.0
C823 C 0.84549 0.85264 0.73224 0.0
C824 C 0.83137 0.83285 0.73408 0.0
C825 C 0.88438 0.87013 0.72324 0.0
C826 C 0.89242 0.8849 0.7429 0.0
C827 C 0.89302 0.87336 0.70074 0.0
C828 C 0.88503 0.85847 0.67926 0.0
C829 C 0.86095 0.85703 0.67255 0.0
C830 C 0.85351 0.84273 0.65246 0.0
C831 C 0.87 0.8299 0.63884 0.0
C832 C 0.89398 0.83139 0.64526 0.0
C833 C 0.90151 0.84564 0.66535 0.0
H834 H 0.8642 0.81883 0.6233 0.0
H835 H 0.94309 0.94995 0.82055 0.0
H836 H 0.37559 0.1049 0.0488 0.0
H837 H 0.36956 0.14082 0.07505 0.0
H838 H 0.37087 0.09844 0.13533 0.0
H839 H 0.37804 0.06287 0.10923 0.0
H840 H 0.33615 0.15515 0.09963 0.0
H841 H 0.38717 0.12809 0.18601 0.0
H842 H 0.4234 0.10596 0.19729 0.0
H843 H 0.45264 0.11865 0.13109 0.0
H844 H 0.41673 0.14113 0.11955 0.0
H845 H 0.29099 0.22147 0.19723 0.0
H846 H 0.30517 0.19051 0.16869 0.0
H847 H 0.37586 0.2162 0.18071 0.0
H848 H 0.36183 0.24639 0.21038 0.0
H849 H 0.37894 0.17197 0.17742 0.0
H850 H 0.33944 0.22624 0.12873 0.0
H851 H 0.30719 0.25242 0.11481 0.0
H852 H 0.26251 0.19266 0.10037 0.0
H853 H 0.29439 0.16613 0.11452 0.0
C854 C 0.37491 0.10343 0.06772 0.0
C855 C 0.37748 0.08122 0.07705 0.0
C856 C 0.3714 0.1239 0.08271 0.0
C857 C 0.37003 0.1225 0.1073 0.0
C858 C 0.37255 0.10021 0.11658 0.0
C859 C 0.37657 0.07984 0.10165 0.0
C860 C 0.36468 0.14407 0.12308 0.0
C861 C 0.34564 0.15888 0.11656 0.0
C862 C 0.37739 0.14948 0.14493 0.0
C863 C 0.39915 0.13613 0.15184 0.0
C864 C 0.40137 0.12626 0.17391 0.0
C865 C 0.42185 0.11363 0.18034 0.0
C866 C 0.44028 0.11084 0.16489 0.0
C867 C 0.43831 0.12075 0.14301 0.0
C868 C 0.41789 0.13341 0.1365 0.0
C869 C 0.30954 0.22054 0.19372 0.0
C870 C 0.3253 0.23639 0.2059 0.0
C871 C 0.31764 0.20292 0.17727 0.0
C872 C 0.34155 0.20126 0.17205 0.0
C873 C 0.35733 0.21708 0.18433 0.0
C874 C 0.34931 0.23436 0.20125 0.0
C875 C 0.35006 0.18267 0.1542 0.0
C876 C 0.36964 0.1684 0.16036 0.0
C877 C 0.33848 0.17837 0.13156 0.0
C878 C 0.31927 0.19422 0.12285 0.0
C879 C 0.32269 0.21869 0.12272 0.0
C880 C 0.30448 0.2336 0.11477 0.0
C881 C 0.2828 0.22422 0.10676 0.0
C882 C 0.27931 0.1999 0.1066 0.0
C883 C 0.29746 0.18491 0.11456 0.0
H884 H 0.26871 0.23579 0.10063 0.0
H885 H 0.45611 0.10105 0.1699 0.0
H886 H 0.98789 0.33471 0.06826 0.0
H887 H 0.95438 0.32711 0.0915 0.0
H888 H 0.91373 0.38167 0.05802 0.0
H889 H 0.94709 0.38901 0.03409 0.0
H890 H 0.90877 0.38218 0.10754 0.0
H891 H 0.90169 0.32891 0.03896 0.0
H892 H 0.91555 0.29945 0.00808 0.0
H893 H 0.93238 0.25038 0.06086 0.0
H894 H 0.919 0.27971 0.09214 0.0
H895 H 0.81402 0.29741 0.14953 0.0
H896 H 0.83515 0.31248 0.11709 0.0
H897 H 0.89069 0.33635 0.16733 0.0
H898 H 0.86983 0.32155 0.19946 0.0
H899 H 0.87893 0.3003 0.10149 0.0
H900 H 0.91125 0.38762 0.15303 0.0
H901 H 0.89642 0.41789 0.18263 0.0
H902 H 0.82526 0.4005 0.1606 0.0
H903 H 0.83964 0.37037 0.13062 0.0
C904 C 0.97185 0.34509 0.06575 0.0
C905 C 0.9701 0.36223 0.04903 0.0
C906 C 0.95273 0.34076 0.07909 0.0
C907 C 0.9315 0.35354 0.0761 0.0
C908 C 0.92997 0.37154 0.06041 0.0
C909 C 0.94911 0.3758 0.04688 0.0
C910 C 0.91094 0.34754 0.08922 0.0
C911 C 0.90204 0.36438 0.10612 0.0
C912 C 0.90171 0.32449 0.08672 0.0
C913 C 0.90944 0.30659 0.06794 0.0
C914 C 0.90848 0.31189 0.04402 0.0
C915 C 0.91624 0.29521 0.02643 0.0
C916 C 0.92487 0.27307 0.03251 0.0
C917 C 0.92569 0.26754 0.05618 0.0
C918 C 0.91799 0.28418 0.07385 0.0
C919 C 0.83071 0.30595 0.15353 0.0
C920 C 0.84031 0.30839 0.17693 0.0
C921 C 0.84272 0.31452 0.13507 0.0
C922 C 0.86428 0.32586 0.1399 0.0
C923 C 0.87385 0.32809 0.16327 0.0
C924 C 0.86199 0.31949 0.18159 0.0
C925 C 0.87761 0.33462 0.12068 0.0
C926 C 0.88521 0.31827 0.10261 0.0
C927 C 0.88535 0.35824 0.12186 0.0
C928 C 0.87655 0.37663 0.13963 0.0
C929 C 0.89244 0.39035 0.15437 0.0
C930 C 0.88411 0.40747 0.17126 0.0
C931 C 0.85992 0.41109 0.17353 0.0
C932 C 0.844 0.39764 0.15888 0.0
C933 C 0.85223 0.38051 0.14195 0.0
H934 H 0.85351 0.42434 0.18662 0.0
H935 H 0.93088 0.26018 0.01887 0.0
H936 H 0.84911 0.96041 0.03903 0.0
H937 H 0.84089 0.93371 0.06949 0.0
H938 H 0.80712 0.99134 0.11021 0.0
H939 H 0.81546 0.01811 0.07989 0.0
H940 H 0.83505 0.96069 0.13834 0.0
H941 H 0.77353 0.95726 0.07643 0.0
H942 H 0.75836 0.95259 0.03477 0.0
H943 H 0.78847 0.88226 0.02763 0.0
H944 H 0.80416 0.88667 0.06917 0.0
H945 H 0.77852 0.88628 0.21213 0.0
H946 H 0.78449 0.91719 0.18512 0.0
H947 H 0.80534 0.8636 0.1312 0.0
H948 H 0.79766 0.8329 0.15739 0.0
H949 H 0.78206 0.89499 0.11064 0.0
H950 H 0.8459 0.89879 0.17149 0.0
H951 H 0.86043 0.90267 0.21341 0.0
H952 H 0.8269 0.97131 0.22255 0.0
H953 H 0.81199 0.96776 0.18072 0.0
C954 C 0.8404 0.96746 0.05471 0.0
C955 C 0.83269 0.99123 0.05702 0.0
C956 C 0.83562 0.95221 0.07202 0.0
C957 C 0.82317 0.96056 0.09192 0.0
C958 C 0.81668 0.98458 0.09494 0.0
C959 C 0.82129 0.99977 0.07756 0.0
C960 C 0.81526 0.94388 0.10853 0.0
C961 C 0.82333 0.9464 0.1324 0.0
C962 C 0.80006 0.92525 0.10067 0.0
C963 C 0.7902 0.92238 0.07584 0.0
C964 C 0.77705 0.94086 0.06593 0.0
C965 C 0.76834 0.93825 0.04234 0.0
C966 C 0.7725 0.91716 0.02854 0.0
C967 C 0.78529 0.8986 0.03834 0.0
C968 C 0.79408 0.90113 0.06191 0.0
C969 C 0.78401 0.88124 0.19435 0.0
C970 C 0.78766 0.85733 0.18677 0.0
C971 C 0.78765 0.89885 0.17901 0.0
C972 C 0.79599 0.89281 0.15627 0.0
C973 C 0.79895 0.8688 0.1486 0.0
C974 C 0.79459 0.85124 0.16361 0.0
C975 C 0.80237 0.9112 0.14051 0.0
C976 C 0.79386 0.90916 0.11672 0.0
C977 C 0.81736 0.93011 0.14844 0.0
C978 C 0.8276 0.93288 0.17309 0.0
C979 C 0.84164 0.91471 0.18245 0.0
C980 C 0.84985 0.91681 0.20621 0.0
C981 C 0.84429 0.93707 0.22071 0.0
C982 C 0.83098 0.95553 0.21135 0.0
C983 C 0.8227 0.95351 0.18761 0.0
H984 H 0.85043 0.93856 0.23917 0.0
H985 H 0.76577 0.91519 0.01028 0.0
H986 H 0.11308 0.68997 0.08601 0.0
H987 H 0.14511 0.70039 0.11505 0.0
H988 H 0.16599 0.75513 0.07214 0.0
H989 H 0.13393 0.74482 0.04307 0.0
H990 H 0.19181 0.7018 0.11525 0.0
H991 H 0.18385 0.80329 0.10979 0.0
H992 H 0.1543 0.83376 0.09896 0.0
H993 H 0.09874 0.78881 0.11522 0.0
H994 H 0.12794 0.75825 0.12652 0.0
H995 H 0.28208 0.75386 0.19302 0.0
H996 H 0.25708 0.74553 0.15682 0.0
H997 H 0.19595 0.76974 0.19475 0.0
H998 H 0.22084 0.77857 0.23058 0.0
H999 H 0.19274 0.78427 0.15174 0.0
H1000 H 0.21148 0.71031 0.18639 0.0
H1001 H 0.23829 0.67921 0.20113 0.0
H1002 H 0.2671 0.66757 0.13239 0.0
H1003 H 0.24064 0.69883 0.11733 0.0
C1004 C 0.12472 0.70394 0.08254 0.0
C1005 C 0.12077 0.71674 0.06234 0.0
C1006 C 0.14302 0.70992 0.09918 0.0
C1007 C 0.15774 0.72879 0.09597 0.0
C1008 C 0.15458 0.74082 0.07524 0.0
C1009 C 0.13622 0.73493 0.05866 0.0
C1010 C 0.17556 0.73656 0.1149 0.0
C1011 C 0.1921 0.71988 0.12311 0.0
C1012 C 0.17584 0.7601 0.12537 0.0
C1013 C 0.15809 0.77834 0.11862 0.0
C1014 C 0.16532 0.79992 0.11106 0.0
C1015 C 0.14864 0.81722 0.10487 0.0
C1016 C 0.12465 0.81317 0.10628 0.0
C1017 C 0.11731 0.79187 0.11401 0.0
C1018 C 0.13393 0.77454 0.12028 0.0
C1019 C 0.26336 0.75773 0.19345 0.0
C1020 C 0.25332 0.76671 0.21457 0.0
C1021 C 0.24908 0.75282 0.17284 0.0
C1022 C 0.22458 0.75667 0.17316 0.0
C1023 C 0.21477 0.76655 0.19406 0.0
C1024 C 0.22899 0.77147 0.21456 0.0
C1025 C 0.2088 0.74949 0.15226 0.0
C1026 C 0.19267 0.76629 0.14363 0.0
C1027 C 0.2085 0.72595 0.14183 0.0
C1028 C 0.22428 0.70707 0.15081 0.0
C1029 C 0.22364 0.70122 0.17447 0.0
C1030 C 0.23876 0.68356 0.18287 0.0
C1031 C 0.25444 0.67147 0.16773 0.0
C1032 C 0.25498 0.67698 0.14412 0.0
C1033 C 0.23992 0.69466 0.13563 0.0
H1034 H 0.26613 0.65781 0.17427 0.0
H1035 H 0.11177 0.82658 0.10146 0.0
H1036 H 0.37154 0.9754 0.90822 0.0
H1037 H 0.35812 0.94193 0.88144 0.0
H1038 H 0.36669 0.89592 0.9386 0.0
H1039 H 0.37992 0.92956 0.96563 0.0
H1040 H 0.38252 0.87683 0.89027 0.0
H1041 H 0.31635 0.91168 0.93067 0.0
H1042 H 0.29112 0.94501 0.94564 0.0
H1043 H 0.27522 0.96358 0.87436 0.0
H1044 H 0.30075 0.93061 0.85898 0.0
H1045 H 0.31675 0.79061 0.81635 0.0
H1046 H 0.32916 0.81502 0.85252 0.0
H1047 H 0.31231 0.87824 0.81662 0.0
H1048 H 0.2997 0.85416 0.78101 0.0
H1049 H 0.2992 0.88402 0.86071 0.0
H1050 H 0.36892 0.85448 0.82078 0.0
H1051 H 0.39565 0.82309 0.80432 0.0
H1052 H 0.40564 0.79592 0.87295 0.0
H1053 H 0.3787 0.827 0.88975 0.0
C1054 C 0.37118 0.95805 0.91492 0.0
C1055 C 0.3768 0.955 0.93897 0.0
C1056 C 0.36336 0.939 0.89968 0.0
C1057 C 0.36129 0.91656 0.90815 0.0
C1058 C 0.36819 0.91312 0.93179 0.0
C1059 C 0.37567 0.93228 0.94716 0.0
C1060 C 0.35023 0.89734 0.89263 0.0
C1061 C 0.36419 0.87807 0.88413 0.0
C1062 C 0.32638 0.8992 0.88455 0.0
C1063 C 0.31067 0.9188 0.89369 0.0
C1064 C 0.30765 0.92299 0.9182 0.0
C1065 C 0.29327 0.94181 0.92676 0.0
C1066 C 0.28163 0.95645 0.91097 0.0
C1067 C 0.28428 0.95224 0.88657 0.0
C1068 C 0.29869 0.93348 0.87792 0.0
C1069 C 0.31545 0.80971 0.81642 0.0
C1070 C 0.30757 0.82055 0.79588 0.0
C1071 C 0.32261 0.82362 0.83698 0.0
C1072 C 0.32197 0.84848 0.83716 0.0
C1073 C 0.31302 0.85914 0.81694 0.0
C1074 C 0.30593 0.84534 0.79653 0.0
C1075 C 0.33165 0.86376 0.85767 0.0
C1076 C 0.3174 0.88239 0.86718 0.0
C1077 C 0.35529 0.86141 0.86648 0.0
C1078 C 0.37158 0.84285 0.85644 0.0
C1079 C 0.37669 0.8417 0.83231 0.0
C1080 C 0.39189 0.82398 0.82293 0.0
C1081 C 0.40227 0.80746 0.83756 0.0
C1082 C 0.39754 0.80868 0.86163 0.0
C1083 C 0.38231 0.82634 0.87109 0.0
H1084 H 0.41403 0.79376 0.83027 0.0
H1085 H 0.27051 0.97102 0.91763 0.0
H1086 H 0.12241 0.34912 0.957 0.0
H1087 H 0.15624 0.33958 0.93248 0.0
H1088 H 0.1114 0.34448 0.8692 0.0
H1089 H 0.07761 0.35391 0.89355 0.0
H1090 H 0.1396 0.30331 0.86845 0.0
H1091 H 0.14729 0.38747 0.88409 0.0
H1092 H 0.15034 0.42481 0.90939 0.0
H1093 H 0.21344 0.39856 0.9442 0.0
H1094 H 0.21058 0.36091 0.91932 0.0
H1095 H 0.24522 0.32907 0.7964 0.0
H1096 H 0.21427 0.34354 0.82266 0.0
H1097 H 0.22101 0.27942 0.85901 0.0
H1098 H 0.25177 0.26467 0.83282 0.0
H1099 H 0.2114 0.35154 0.87191 0.0
H1100 H 0.16587 0.26197 0.86772 0.0
H1101 H 0.16403 0.22506 0.84154 0.0
H1102 H 0.17582 0.26395 0.78125 0.0
H1103 H 0.17736 0.30111 0.807 0.0
C1104 C 0.11985 0.34827 0.93786 0.0
C1105 C 0.09742 0.35236 0.92719 0.0
C1106 C 0.13914 0.34291 0.92391 0.0
C1107 C 0.13626 0.34138 0.89906 0.0
C1108 C 0.11394 0.34561 0.88836 0.0
C1109 C 0.09472 0.35122 0.90229 0.0
C1110 C 0.15641 0.33478 0.88418 0.0
C1111 C 0.15528 0.31386 0.8692 0.0
C1112 C 0.17679 0.34864 0.88508 0.0
C1113 C 0.17859 0.37129 0.9 0.0
C1114 C 0.16171 0.38958 0.89728 0.0
C1115 C 0.16342 0.41082 0.91151 0.0
C1116 C 0.18204 0.41403 0.92843 0.0
C1117 C 0.19901 0.39603 0.93111 0.0
C1118 C 0.19736 0.37475 0.91693 0.0
C1119 C 0.24031 0.31812 0.81013 0.0
C1120 C 0.25079 0.29559 0.81232 0.0
C1121 C 0.2227 0.32649 0.82518 0.0
C1122 C 0.21522 0.31242 0.84255 0.0
C1123 C 0.22639 0.29041 0.84551 0.0
C1124 C 0.24397 0.28203 0.8305 0.0
C1125 C 0.19466 0.31998 0.85645 0.0
C1126 C 0.19571 0.34101 0.87122 0.0
C1127 C 0.17411 0.30634 0.85521 0.0
C1128 C 0.1719 0.28429 0.83934 0.0
C1129 C 0.16785 0.26266 0.84885 0.0
C1130 C 0.16691 0.24169 0.83409 0.0
C1131 C 0.16987 0.24215 0.80976 0.0
C1132 C 0.17358 0.26361 0.8001 0.0
C1133 C 0.17449 0.28463 0.81477 0.0
H1134 H 0.16927 0.22588 0.79838 0.0
H1135 H 0.18333 0.43049 0.93944 0.0
H1136 H 0.78983 0.14099 0.98356 0.0
H1137 H 0.77939 0.17865 0.96812 0.0
H1138 H 0.84927 0.18351 0.94328 0.0
H1139 H 0.86038 0.14576 0.95922 0.0
H1140 H 0.82641 0.22896 0.95875 0.0
H1141 H 0.81294 0.15687 0.90697 0.0
H1142 H 0.79657 0.11712 0.89813 0.0
H1143 H 0.727 0.14549 0.90974 0.0
H1144 H 0.74307 0.18537 0.91901 0.0
H1145 H 0.82668 0.27628 0.84973 0.0
H1146 H 0.828 0.26024 0.8881 0.0
H1147 H 0.75307 0.24957 0.88137 0.0
H1148 H 0.75184 0.26523 0.84208 0.0
H1149 H 0.77155 0.21119 0.88905 0.0
H1150 H 0.78508 0.28611 0.93069 0.0
H1151 H 0.80233 0.32554 0.93882 0.0
H1152 H 0.87129 0.29353 0.94631 0.0
H1153 H 0.85452 0.25393 0.93801 0.0
C1154 C 0.80339 0.15008 0.97546 0.0
C1155 C 0.82588 0.13964 0.97199 0.0
C1156 C 0.79727 0.17182 0.96668 0.0
C1157 C 0.81342 0.18359 0.95423 0.0
C1158 C 0.83653 0.17456 0.95277 0.0
C1159 C 0.84273 0.15277 0.9616 0.0
C1160 C 0.80516 0.20263 0.93923 0.0
C1161 C 0.81436 0.22531 0.94351 0.0
C1162 C 0.7889 0.19787 0.91984 0.0
C1163 C 0.77921 0.17399 0.91396 0.0
C1164 C 0.79418 0.15458 0.90781 0.0
C1165 C 0.78496 0.13204 0.9027 0.0
C1166 C 0.76076 0.12877 0.90345 0.0
C1167 C 0.74574 0.14804 0.90922 0.0
C1168 C 0.75489 0.17061 0.9144 0.0
C1169 C 0.81035 0.27105 0.85663 0.0
C1170 C 0.78922 0.27153 0.8428 0.0
C1171 C 0.81109 0.26203 0.87883 0.0
C1172 C 0.79073 0.25343 0.88782 0.0
C1173 C 0.76913 0.25588 0.87482 0.0
C1174 C 0.76839 0.26483 0.85239 0.0
C1175 C 0.79303 0.23803 0.90802 0.0
C1176 C 0.78287 0.21562 0.90468 0.0
C1177 C 0.80834 0.24323 0.92828 0.0
C1178 C 0.81849 0.26702 0.93377 0.0
C1179 C 0.80392 0.28747 0.93404 0.0
C1180 C 0.81363 0.30986 0.93868 0.0
C1181 C 0.83788 0.31203 0.9431 0.0
C1182 C 0.85249 0.29182 0.94296 0.0
C1183 C 0.84288 0.26939 0.93838 0.0
H1184 H 0.84536 0.32938 0.94664 0.0
H1185 H 0.75365 0.1113 0.89949 0.0
H1186 H 1.00067 0.69974 0.90865 0.0
H1187 H 0.96834 0.70718 0.87984 0.0
H1188 H 0.9249 0.7339 0.93666 0.0
H1189 H 0.95726 0.72641 0.96567 0.0
H1190 H 0.90075 0.70398 0.90128 0.0
H1191 H 0.94951 0.7723 0.90785 0.0
H1192 H 0.987 0.79311 0.90785 0.0
H1193 H 0.99581 0.76668 0.83556 0.0
H1194 H 0.95854 0.74538 0.83526 0.0
H1195 H 0.84032 0.78866 0.81316 0.0
H1196 H 0.86941 0.77997 0.84474 0.0
H1197 H 0.86916 0.706 0.82028 0.0
H1198 H 0.84002 0.71449 0.78857 0.0
H1199 H 0.91397 0.76118 0.84147 0.0
H1200 H 0.87781 0.67387 0.86975 0.0
H1201 H 0.83972 0.65436 0.87114 0.0
H1202 H 0.80401 0.72214 0.87626 0.0
H1203 H 0.8419 0.74205 0.87525 0.0
C1204 C 0.98412 0.70682 0.91507 0.0
C1205 C 0.98153 0.7125 0.93946 0.0
C1206 C 0.96571 0.71121 0.89856 0.0
C1207 C 0.94428 0.72123 0.9061 0.0
C1208 C 0.9413 0.72616 0.93048 0.0
C1209 C 0.95983 0.72202 0.947 0.0
C1210 C 0.9254 0.72753 0.88844 0.0
C1211 C 0.90363 0.71644 0.88817 0.0
C1212 C 0.92905 0.74407 0.87158 0.0
C1213 C 0.95135 0.75706 0.87162 0.0
C1214 C 0.95953 0.77077 0.89202 0.0
C1215 C 0.98073 0.78268 0.89206 0.0
C1216 C 0.99381 0.78117 0.87173 0.0
C1217 C 0.98568 0.7678 0.8513 0.0
C1218 C 0.96451 0.75582 0.85118 0.0
C1219 C 0.84632 0.7705 0.81452 0.0
C1220 C 0.83778 0.75227 0.79828 0.0
C1221 C 0.86304 0.76559 0.83255 0.0
C1222 C 0.87138 0.74234 0.83496 0.0
C1223 C 0.86281 0.72405 0.81891 0.0
C1224 C 0.8462 0.72896 0.80073 0.0
C1225 C 0.8894 0.73732 0.85399 0.0
C1226 C 0.91106 0.74866 0.85452 0.0
C1227 C 0.88554 0.72119 0.87121 0.0
C1228 C 0.86268 0.70942 0.87218 0.0
C1229 C 0.86183 0.6846 0.87127 0.0
C1230 C 0.84028 0.67348 0.87197 0.0
C1231 C 0.81945 0.687 0.8737 0.0
C1232 C 0.82015 0.71169 0.87483 0.0
C1233 C 0.84165 0.7229 0.87415 0.0
H1234 H 0.80278 0.67835 0.87423 0.0
H1235 H 1.01022 0.7904 0.8718 0.0
H1236 H 0.10303 0.31382 0.02415 0.0
H1237 H 0.13394 0.30886 0.05509 0.0
H1238 H 0.0841 0.27847 0.09821 0.0
H1239 H 0.05302 0.28336 0.06731 0.0
H1240 H 0.10972 0.31306 0.12333 0.0
H1241 H 0.12566 0.24372 0.07261 0.0
H1242 H 0.13332 0.22067 0.0349 0.0
H1243 H 0.19587 0.25988 0.02842 0.0
H1244 H 0.1884 0.28342 0.06594 0.0
H1245 H 0.19739 0.28183 0.21128 0.0
H1246 H 0.16512 0.28031 0.18078 0.0
H1247 H 0.21116 0.30631 0.13089 0.0
H1248 H 0.24346 0.30743 0.16115 0.0
H1249 H 0.18615 0.27123 0.10999 0.0
H1250 H 0.16899 0.34233 0.15877 0.0
H1251 H 0.16141 0.36612 0.1961 0.0
H1252 H 0.1013 0.32435 0.20577 0.0
H1253 H 0.10871 0.3001 0.16863 0.0
C1254 C 0.09866 0.30582 0.04008 0.0
C1255 C 0.0755 0.29898 0.0432 0.0
C1256 C 0.1164 0.30294 0.05776 0.0
C1257 C 0.1114 0.2932 0.07897 0.0
C1258 C 0.08839 0.28602 0.082 0.0
C1259 C 0.07066 0.28871 0.06424 0.0
C1260 C 0.12997 0.29153 0.09834 0.0
C1261 C 0.12628 0.30356 0.12054 0.0
C1262 C 0.1518 0.27959 0.09458 0.0
C1263 C 0.15634 0.26549 0.07199 0.0
C1264 C 0.14094 0.24758 0.06304 0.0
C1265 C 0.14526 0.23439 0.04172 0.0
C1266 C 0.16503 0.23885 0.02924 0.0
C1267 C 0.18054 0.25647 0.03809 0.0
C1268 C 0.17629 0.26972 0.0594 0.0
C1269 C 0.20056 0.28727 0.19381 0.0
C1270 C 0.22288 0.29486 0.1886 0.0
C1271 C 0.1821 0.28646 0.17641 0.0
C1272 C 0.18559 0.29342 0.15353 0.0
C1273 C 0.20798 0.30083 0.14834 0.0
C1274 C 0.22641 0.30157 0.16569 0.0
C1275 C 0.16603 0.29301 0.13492 0.0
C1276 C 0.16953 0.28059 0.11285 0.0
C1277 C 0.14406 0.30468 0.13876 0.0
C1278 C 0.13957 0.31924 0.16107 0.0
C1279 C 0.15427 0.3381 0.16896 0.0
C1280 C 0.14998 0.35168 0.19007 0.0
C1281 C 0.13093 0.3467 0.20334 0.0
C1282 C 0.11608 0.32816 0.1955 0.0
C1283 C 0.12031 0.3145 0.17442 0.0
H1284 H 0.12763 0.35725 0.21967 0.0
H1285 H 0.16836 0.22861 0.01274 0.0
H1286 H 0.10637 0.77383 0.98734 0.0
H1287 H 0.14085 0.77527 0.96319 0.0
H1288 H 0.09585 0.76882 0.89954 0.0
H1289 H 0.06141 0.76771 0.92334 0.0
H1290 H 0.13243 0.73374 0.90202 0.0
H1291 H 0.12162 0.81894 0.91371 0.0
H1292 H 0.11837 0.85692 0.93786 0.0
H1293 H 0.18743 0.84529 0.96963 0.0
H1294 H 0.19096 0.80706 0.94589 0.0
H1295 H 0.20127 0.74709 0.80625 0.0
H1296 H 0.17268 0.75043 0.83686 0.0
H1297 H 0.22738 0.77123 0.88939 0.0
H1298 H 0.2562 0.76885 0.85816 0.0
H1299 H 0.18962 0.79753 0.89745 0.0
H1300 H 0.20274 0.71461 0.88564 0.0
H1301 H 0.20731 0.67568 0.86349 0.0
H1302 H 0.136 0.68081 0.83539 0.0
H1303 H 0.13109 0.71993 0.85711 0.0
C1304 C 0.10373 0.77334 0.96822 0.0
C1305 C 0.08105 0.77049 0.95732 0.0
C1306 C 0.12349 0.77411 0.95444 0.0
C1307 C 0.12094 0.77195 0.92955 0.0
C1308 C 0.09825 0.77038 0.91871 0.0
C1309 C 0.07853 0.76985 0.93241 0.0
C1310 C 0.14179 0.76919 0.91463 0.0
C1311 C 0.14483 0.74777 0.90084 0.0
C1312 C 0.15858 0.78705 0.91397 0.0
C1313 C 0.15643 0.81 0.92824 0.0
C1314 C 0.13601 0.82436 0.92602 0.0
C1315 C 0.13414 0.84596 0.93959 0.0
C1316 C 0.15265 0.85347 0.95533 0.0
C1317 C 0.17309 0.83943 0.95747 0.0
C1318 C 0.17504 0.8178 0.94395 0.0
C1319 C 0.20734 0.75217 0.82434 0.0
C1320 C 0.23105 0.75745 0.82984 0.0
C1321 C 0.19093 0.75399 0.84192 0.0
C1322 C 0.19782 0.76059 0.86566 0.0
C1323 C 0.22158 0.76595 0.87126 0.0
C1324 C 0.23807 0.76443 0.85348 0.0
C1325 C 0.17989 0.76226 0.88417 0.0
C1326 C 0.17742 0.78337 0.89875 0.0
C1327 C 0.16378 0.7439 0.88596 0.0
C1328 C 0.1666 0.7203 0.8729 0.0
C1329 C 0.18808 0.70751 0.87462 0.0
C1330 C 0.19072 0.68539 0.86215 0.0
C1331 C 0.17197 0.67579 0.84801 0.0
C1332 C 0.15051 0.68827 0.84635 0.0
C1333 C 0.14778 0.71041 0.85876 0.0
H1334 H 0.17406 0.65867 0.83837 0.0
H1335 H 0.15117 0.87021 0.96581 0.0
H1336 H 0.29981 0.02675 0.92866 0.0
H1337 H 0.29226 0.05693 0.90044 0.0
H1338 H 0.31645 0.1108 0.95347 0.0
H1339 H 0.32364 0.08088 0.98193 0.0
H1340 H 0.28027 0.1274 0.92581 0.0
H1341 H 0.35389 0.08491 0.91459 0.0
H1342 H 0.37854 0.04874 0.90812 0.0
H1343 H 0.34071 0.0314 0.84171 0.0
H1344 H 0.31553 0.06727 0.84801 0.0
H1345 H 0.31912 0.21484 0.85529 0.0
H1346 H 0.31721 0.184 0.88302 0.0
H1347 H 0.2947 0.13412 0.82534 0.0
H1348 H 0.29642 0.16503 0.79752 0.0
H1349 H 0.32709 0.11446 0.85407 0.0
H1350 H 0.25513 0.15931 0.86452 0.0
H1351 H 0.23082 0.19555 0.87173 0.0
H1352 H 0.26612 0.20906 0.94015 0.0
H1353 H 0.29092 0.17305 0.93312 0.0
C1354 C 0.30305 0.04508 0.9345 0.0
C1355 C 0.31267 0.05135 0.95745 0.0
C1356 C 0.2988 0.0623 0.91831 0.0
C1357 C 0.30429 0.08603 0.9247 0.0
C1358 C 0.31222 0.09258 0.94812 0.0
C1359 C 0.31637 0.07541 0.96435 0.0
C1360 C 0.30391 0.10361 0.90656 0.0
C1361 C 0.2906 0.12466 0.91019 0.0
C1362 C 0.31715 0.09987 0.88601 0.0
C1363 C 0.33268 0.07864 0.88189 0.0
C1364 C 0.35075 0.07331 0.89867 0.0
C1365 C 0.36481 0.05287 0.89504 0.0
C1366 C 0.36115 0.03775 0.87455 0.0
C1367 C 0.34349 0.04311 0.8576 0.0
C1368 C 0.32932 0.06349 0.86119 0.0
C1369 C 0.31377 0.19729 0.84854 0.0
C1370 C 0.30784 0.19229 0.82432 0.0
C1371 C 0.31254 0.17972 0.86441 0.0
C1372 C 0.30531 0.15687 0.85634 0.0
C1373 C 0.30005 0.1517 0.832 0.0
C1374 C 0.30107 0.16933 0.81614 0.0
C1375 C 0.3035 0.13836 0.8733 0.0
C1376 C 0.31651 0.11714 0.86951 0.0
C1377 C 0.29008 0.14203 0.89375 0.0
C1378 C 0.27503 0.16358 0.89816 0.0
C1379 C 0.25784 0.1701 0.881 0.0
C1380 C 0.24395 0.19059 0.88507 0.0
C1381 C 0.24696 0.20464 0.90637 0.0
C1382 C 0.26382 0.19817 0.92365 0.0
C1383 C 0.27779 0.17771 0.91963 0.0
H1384 H 0.23619 0.2205 0.9095 0.0
H1385 H 0.37203 0.02191 0.87178 0.0
H1386 H 1.00758 0.2996 0.92426 0.0
H1387 H 0.98092 0.29628 0.88903 0.0
H1388 H 0.92185 0.2921 0.93319 0.0
H1389 H 0.9484 0.29528 0.96864 0.0
H1390 H 0.91791 0.26258 0.89074 0.0
H1391 H 0.9345 0.34397 0.91596 0.0
H1392 H 0.96123 0.37681 0.92781 0.0
H1393 H 0.99169 0.36836 0.85969 0.0
H1394 H 0.9654 0.33518 0.84758 0.0
H1395 H 0.83006 0.31705 0.80939 0.0
H1396 H 0.85602 0.31259 0.845 0.0
H1397 H 0.91348 0.2917 0.80067 0.0
H1398 H 0.88719 0.29376 0.76524 0.0
H1399 H 0.91745 0.3328 0.84346 0.0
H1400 H 0.90154 0.25181 0.81782 0.0
H1401 H 0.87778 0.21687 0.80642 0.0
H1402 H 0.84885 0.22176 0.87522 0.0
H1403 H 0.87188 0.25749 0.88681 0.0
C1404 C 0.989 0.29743 0.92653 0.0
C1405 C 0.98013 0.29801 0.94935 0.0
C1406 C 0.97376 0.29565 0.90634 0.0
C1407 C 0.94936 0.29443 0.90852 0.0
C1408 C 0.94061 0.29317 0.93112 0.0
C1409 C 0.95584 0.29501 0.95137 0.0
C1410 C 0.93294 0.29651 0.88748 0.0
C1411 C 0.91756 0.27804 0.88056 0.0
C1412 C 0.93284 0.31654 0.87398 0.0
C1413 C 0.94812 0.33698 0.88094 0.0
C1414 C 0.94697 0.34905 0.90355 0.0
C1415 C 0.96205 0.36772 0.91032 0.0
C1416 C 0.97819 0.37463 0.89454 0.0
C1417 C 0.9792 0.36296 0.87191 0.0
C1418 C 0.9642 0.34424 0.86507 0.0
C1419 C 0.84801 0.31074 0.80731 0.0
C1420 C 0.8563 0.30475 0.7846 0.0
C1421 C 0.86286 0.30846 0.82761 0.0
C1422 C 0.88646 0.30113 0.82539 0.0
C1423 C 0.89516 0.29674 0.8027 0.0
C1424 C 0.88014 0.29812 0.78251 0.0
C1425 C 0.90239 0.29884 0.84668 0.0
C1426 C 0.91766 0.31738 0.8537 0.0
C1427 C 0.90247 0.27878 0.86013 0.0
C1428 C 0.8878 0.25794 0.85287 0.0
C1429 C 0.88953 0.246 0.83026 0.0
C1430 C 0.87627 0.22594 0.8238 0.0
C1431 C 0.86146 0.21732 0.83991 0.0
C1432 C 0.86007 0.22866 0.86262 0.0
C1433 C 0.87316 0.2489 0.86912 0.0
H1434 H 0.85129 0.20171 0.83488 0.0
H1435 H 0.98988 0.38905 0.89983 0.0
H1436 H 0.76214 0.97418 0.96823 0.0
H1437 H 0.75807 0.94546 0.93391 0.0
H1438 H 0.78152 0.99698 0.88868 0.0
H1439 H 0.78566 0.02599 0.92301 0.0
H1440 H 0.74429 0.96756 0.86743 0.0
H1441 H 0.82074 0.96031 0.90697 0.0
H1442 H 0.84794 0.95672 0.94191 0.0
H1443 H 0.81668 0.89125 0.95526 0.0
H1444 H 0.78905 0.89464 0.92058 0.0
H1445 H 0.77674 0.87753 0.77576 0.0
H1446 H 0.77549 0.91252 0.8044 0.0
H1447 H 0.76233 0.86754 0.86018 0.0
H1448 H 0.76399 0.83289 0.83199 0.0
H1449 H 0.79637 0.89649 0.87398 0.0
H1450 H 0.71907 0.90375 0.83611 0.0
H1451 H 0.69028 0.90741 0.80246 0.0
H1452 H 0.72159 0.97205 0.78659 0.0
H1453 H 0.75079 0.9686 0.81998 0.0
C1454 C 0.76605 0.97961 0.95095 0.0
C1455 C 0.77449 1.00232 0.94843 0.0
C1456 C 0.76374 0.96314 0.93134 0.0
C1457 C 0.76979 0.96901 0.90882 0.0
C1458 C 0.7768 0.9921 0.90592 0.0
C1459 C 0.77922 1.00861 0.92558 0.0
C1460 C 0.77081 0.95036 0.88896 0.0
C1461 C 0.75589 0.95215 0.86863 0.0
C1462 C 0.78578 0.93018 0.89072 0.0
C1463 C 0.80271 0.92783 0.91129 0.0
C1464 C 0.81958 0.94522 0.91744 0.0
C1465 C 0.83508 0.94321 0.93719 0.0
C1466 C 0.83401 0.92379 0.95082 0.0
C1467 C 0.81748 0.90629 0.94468 0.0
C1468 C 0.80191 0.90823 0.92497 0.0
C1469 C 0.77336 0.87526 0.79411 0.0
C1470 C 0.77053 0.85255 0.80171 0.0
C1471 C 0.77259 0.89522 0.81043 0.0
C1472 C 0.7688 0.89267 0.83448 0.0
C1473 C 0.76543 0.86998 0.8418 0.0
C1474 C 0.76632 0.85017 0.82563 0.0
C1475 C 0.76937 0.91324 0.85252 0.0
C1476 C 0.7848 0.9119 0.87256 0.0
C1477 C 0.75476 0.9337 0.85048 0.0
C1478 C 0.73729 0.93575 0.83036 0.0
C1479 C 0.71996 0.91862 0.82531 0.0
C1480 C 0.70353 0.92068 0.80631 0.0
C1481 C 0.70416 0.9399 0.79234 0.0
C1482 C 0.72117 0.95714 0.79739 0.0
C1483 C 0.73765 0.95515 0.81635 0.0
H1484 H 0.69142 0.94148 0.77765 0.0
H1485 H 0.84601 0.92228 0.96612 0.0
H1486 H 0.96507 0.78831 0.03621 0.0
H1487 H 0.93806 0.78928 0.06857 0.0
H1488 H 0.9873 0.74658 0.10826 0.0
H1489 H 1.01424 0.74525 0.0759 0.0
H1490 H 0.94418 0.72989 0.10927 0.0
H1491 H 0.97857 0.80614 0.1238 0.0
H1492 H 0.99079 0.8455 0.11405 0.0
H1493 H 0.91885 0.86495 0.09691 0.0
H1494 H 0.90622 0.82558 0.10624 0.0
H1495 H 0.8787 0.74609 0.21584 0.0
H1496 H 0.90961 0.74409 0.18687 0.0
H1497 H 0.86671 0.78826 0.14233 0.0
H1498 H 0.83629 0.79067 0.17105 0.0
H1499 H 0.90941 0.80408 0.14629 0.0
H1500 H 0.87526 0.72724 0.12918 0.0
H1501 H 0.86276 0.68788 0.13863 0.0
H1502 H 0.93388 0.66964 0.16045 0.0
H1503 H 0.94675 0.70904 0.1514 0.0
C1504 C 0.9703 0.77934 0.05192 0.0
C1505 C 0.9919 0.76673 0.05339 0.0
C1506 C 0.95482 0.77994 0.07047 0.0
C1507 C 0.96065 0.76811 0.09101 0.0
C1508 C 0.98233 0.7558 0.09263 0.0
C1509 C 0.99779 0.75516 0.07411 0.0
C1510 C 0.94386 0.76799 0.11045 0.0
C1511 C 0.93686 0.74615 0.11762 0.0
C1512 C 0.93394 0.78912 0.12116 0.0
C1513 C 0.94148 0.81282 0.11551 0.0
C1514 C 0.96537 0.81874 0.11777 0.0
C1515 C 0.97237 0.84107 0.11235 0.0
C1516 C 0.95561 0.85769 0.10481 0.0
C1517 C 0.93181 0.85205 0.10272 0.0
C1518 C 0.92472 0.82973 0.10809 0.0
C1519 C 0.87579 0.75512 0.19973 0.0
C1520 C 0.85502 0.7686 0.19588 0.0
C1521 C 0.89348 0.75398 0.18316 0.0
C1522 C 0.89056 0.76604 0.16232 0.0
C1523 C 0.86957 0.77897 0.15829 0.0
C1524 C 0.85209 0.78025 0.1748 0.0
C1525 C 0.90937 0.76598 0.14481 0.0
C1526 C 0.91682 0.78782 0.13804 0.0
C1527 C 0.91962 0.74485 0.13445 0.0
C1528 C 0.91191 0.72118 0.13987 0.0
C1529 C 0.88819 0.71491 0.13618 0.0
C1530 C 0.88105 0.69258 0.14143 0.0
C1531 C 0.8975 0.6763 0.15021 0.0
C1532 C 0.92115 0.68229 0.15369 0.0
C1533 C 0.92838 0.70461 0.14849 0.0
H1534 H 0.89194 0.65901 0.15425 0.0
H1535 H 0.96106 0.87497 0.10063 0.0
H1536 H 0.34203 0.94806 0.02821 0.0
H1537 H 0.33812 0.91342 0.05031 0.0
H1538 H 0.29428 0.95401 0.09944 0.0
H1539 H 0.29916 0.98926 0.07793 0.0
H1540 H 0.32449 0.93145 0.12334 0.0
H1541 H 0.27283 0.90782 0.05783 0.0
H1542 H 0.25963 0.90031 0.01579 0.0
H1543 H 0.3151 0.84817 0.00574 0.0
H1544 H 0.32884 0.85559 0.04764 0.0
H1545 H 0.2882 0.80962 0.15562 0.0
H1546 H 0.28666 0.83861 0.12575 0.0
H1547 H 0.35804 0.85791 0.1463 0.0
H1548 H 0.35952 0.82916 0.17653 0.0
H1549 H 0.30935 0.85013 0.08776 0.0
H1550 H 0.36001 0.91764 0.15255 0.0
H1551 H 0.36755 0.92573 0.19573 0.0
H1552 H 0.3035 0.8916 0.20871 0.0
H1553 H 0.29541 0.88366 0.16564 0.0
C1554 C 0.33122 0.94959 0.0435 0.0
C1555 C 0.32094 0.97147 0.05137 0.0
C1556 C 0.32888 0.92964 0.05608 0.0
C1557 C 0.31569 0.93092 0.07646 0.0
C1558 C 0.30461 0.95255 0.08381 0.0
C1559 C 0.30731 0.97268 0.07146 0.0
C1560 C 0.31513 0.91024 0.09108 0.0
C1561 C 0.32106 0.91373 0.11547 0.0
C1562 C 0.31026 0.88706 0.08105 0.0
C1563 C 0.30197 0.8824 0.05586 0.0
C1564 C 0.28231 0.89486 0.04662 0.0
C1565 C 0.27472 0.8906 0.02282 0.0
C1566 C 0.28655 0.87381 0.00809 0.0
C1567 C 0.30596 0.86118 0.01716 0.0
C1568 C 0.31363 0.86538 0.04095 0.0
C1569 C 0.30379 0.8196 0.15333 0.0
C1570 C 0.3239 0.8174 0.16854 0.0
C1571 C 0.30288 0.83614 0.13623 0.0
C1572 C 0.32204 0.85075 0.13416 0.0
C1573 C 0.34291 0.84705 0.14791 0.0
C1574 C 0.34381 0.83054 0.16505 0.0
C1575 C 0.31932 0.87144 0.11966 0.0
C1576 C 0.31274 0.86792 0.09544 0.0
C1577 C 0.32273 0.89474 0.12995 0.0
C1578 C 0.32727 0.89984 0.15588 0.0
C1579 C 0.3475 0.91196 0.16463 0.0
C1580 C 0.35187 0.91651 0.18908 0.0
C1581 C 0.33606 0.90911 0.20495 0.0
C1582 C 0.31578 0.89725 0.19641 0.0
C1583 C 0.31131 0.89271 0.17198 0.0
H1584 H 0.33949 0.91262 0.22387 0.0
H1585 H 0.28066 0.87055 0.98967 0.0
H1586 H 0.7615 0.11346 0.02631 0.0
H1587 H 0.74746 0.14549 0.05444 0.0
H1588 H 0.78191 0.11077 0.1124 0.0
H1589 H 0.79621 0.07926 0.08449 0.0
H1590 H 0.73717 0.13248 0.12302 0.0
H1591 H 0.81158 0.14933 0.08598 0.0
H1592 H 0.83273 0.15481 0.04986 0.0
H1593 H 0.784 0.2107 0.03239 0.0
H1594 H 0.76237 0.20529 0.06828 0.0
H1595 H 0.78718 0.19438 0.21914 0.0
H1596 H 0.77993 0.17152 0.18146 0.0
H1597 H 0.75549 0.23479 0.14918 0.0
H1598 H 0.76344 0.25817 0.18731 0.0
H1599 H 0.78217 0.2058 0.1191 0.0
H1600 H 0.71512 0.19654 0.16296 0.0
H1601 H 0.69281 0.19031 0.19809 0.0
H1602 H 0.72407 0.12077 0.20128 0.0
H1603 H 0.74686 0.12668 0.1664 0.0
C1604 C 0.76531 0.11236 0.04515 0.0
C1605 C 0.77985 0.094 0.05338 0.0
C1606 C 0.75743 0.13067 0.06113 0.0
C1607 C 0.76378 0.13051 0.08545 0.0
C1608 C 0.77675 0.11117 0.09373 0.0
C1609 C 0.78493 0.09321 0.0778 0.0
C1610 C 0.75978 0.15142 0.10223 0.0
C1611 C 0.74673 0.14865 0.12211 0.0
C1612 C 0.77162 0.17283 0.10054 0.0
C1613 C 0.78528 0.17679 0.07966 0.0
C1614 C 0.80538 0.16276 0.07441 0.0
C1615 C 0.81742 0.16583 0.05397 0.0
C1616 C 0.80968 0.18305 0.03881 0.0
C1617 C 0.78996 0.19735 0.04414 0.0
C1618 C 0.77781 0.1943 0.06452 0.0
C1619 C 0.78034 0.20351 0.20403 0.0
C1620 C 0.77552 0.22795 0.20617 0.0
C1621 C 0.7761 0.1904 0.1825 0.0
C1622 C 0.76649 0.20131 0.16267 0.0
C1623 C 0.76262 0.22598 0.16437 0.0
C1624 C 0.76715 0.23928 0.18607 0.0
C1625 C 0.76051 0.18632 0.14057 0.0
C1626 C 0.77174 0.19015 0.11972 0.0
C1627 C 0.74668 0.16597 0.14121 0.0
C1628 C 0.73273 0.16209 0.16203 0.0
C1629 C 0.71732 0.17994 0.1712 0.0
C1630 C 0.70458 0.17647 0.19108 0.0
C1631 C 0.70702 0.15516 0.20191 0.0
C1632 C 0.72217 0.13725 0.19285 0.0
C1633 C 0.73496 0.14064 0.17298 0.0
H1634 H 0.69717 0.15251 0.21731 0.0
H1635 H 0.81897 0.18535 0.02295 0.0
H1636 H 0.61892 0.59382 0.82066 0.0
H1637 H 0.64855 0.62213 0.81279 0.0
H1638 H 0.62625 0.617 0.73867 0.0
H1639 H 0.59641 0.58871 0.7464 0.0
H1640 H 0.67377 0.61864 0.74353 0.0
H1641 H 0.60941 0.66447 0.77494 0.0
H1642 H 0.5789 0.67618 0.80327 0.0
H1643 H 0.63228 0.69004 0.85863 0.0
H1644 H 0.66312 0.67809 0.83069 0.0
H1645 H 0.73744 0.7238 0.72268 0.0
H1646 H 0.70884 0.69224 0.72409 0.0
H1647 H 0.71758 0.69718 0.8006 0.0
H1648 H 0.74457 0.7297 0.79905 0.0
H1649 H 0.67453 0.69605 0.79076 0.0
H1650 H 0.73951 0.64874 0.75767 0.0
H1651 H 0.76875 0.63814 0.72765 0.0
H1652 H 0.71325 0.62798 0.67382 0.0
H1653 H 0.68372 0.63908 0.70337 0.0
C1654 C 0.62012 0.59874 0.80268 0.0
C1655 C 0.60493 0.58895 0.78427 0.0
C1656 C 0.63721 0.61496 0.79817 0.0
C1657 C 0.63957 0.62206 0.77515 0.0
C1658 C 0.6249 0.61188 0.75659 0.0
C1659 C 0.60777 0.5956 0.76108 0.0
C1660 C 0.65682 0.6406 0.77073 0.0
C1661 C 0.67384 0.63566 0.75372 0.0
C1662 C 0.65705 0.66288 0.78392 0.0
C1663 C 0.63856 0.67018 0.80077 0.0
C1664 C 0.61463 0.66985 0.7932 0.0
C1665 C 0.59728 0.67655 0.80918 0.0
C1666 C 0.60364 0.68379 0.83275 0.0
C1667 C 0.62738 0.6844 0.84038 0.0
C1668 C 0.6448 0.67768 0.82447 0.0
C1669 C 0.73357 0.71768 0.73969 0.0
C1670 C 0.74343 0.7289 0.76077 0.0
C1671 C 0.71719 0.69959 0.74055 0.0
C1672 C 0.71098 0.6919 0.7625 0.0
C1673 C 0.72175 0.70266 0.78341 0.0
C1674 C 0.73743 0.72112 0.78255 0.0
C1675 C 0.69235 0.67384 0.76428 0.0
C1676 C 0.67476 0.67899 0.78066 0.0
C1677 C 0.69161 0.65186 0.75037 0.0
C1678 C 0.70941 0.64494 0.73271 0.0
C1679 C 0.73356 0.64441 0.7394 0.0
C1680 C 0.75019 0.63835 0.72245 0.0
C1681 C 0.74287 0.63251 0.69882 0.0
C1682 C 0.71891 0.63263 0.6921 0.0
C1683 C 0.70222 0.63881 0.70893 0.0
H1684 H 0.75574 0.62779 0.68574 0.0
H1685 H 0.59018 0.68898 0.8451 0.0
H1686 H 0.46086 0.56295 0.79145 0.0
H1687 H 0.43081 0.59361 0.78619 0.0
H1688 H 0.46416 0.61364 0.72424 0.0
H1689 H 0.49484 0.58257 0.72961 0.0
H1690 H 0.45327 0.65243 0.75459 0.0
H1691 H 0.41149 0.58655 0.71821 0.0
H1692 H 0.39624 0.54607 0.71426 0.0
H1693 H 0.35707 0.56132 0.77674 0.0
H1694 H 0.37234 0.60181 0.78128 0.0
H1695 H 0.35801 0.73223 0.72854 0.0
H1696 H 0.38762 0.70039 0.72717 0.0
H1697 H 0.35927 0.67269 0.7883 0.0
H1698 H 0.32914 0.70453 0.78962 0.0
H1699 H 0.36774 0.63757 0.75454 0.0
H1700 H 0.41169 0.70262 0.79212 0.0
H1701 H 0.42678 0.74319 0.79586 0.0
H1702 H 0.46175 0.72941 0.73055 0.0
H1703 H 0.4466 0.68883 0.72626 0.0
C1704 C 0.46174 0.57361 0.77645 0.0
C1705 C 0.48031 0.57022 0.76092 0.0
C1706 C 0.4444 0.59117 0.77342 0.0
C1707 C 0.44498 0.60597 0.75473 0.0
C1708 C 0.46324 0.60242 0.73879 0.0
C1709 C 0.48066 0.58454 0.74172 0.0
C1710 C 0.427 0.62565 0.75291 0.0
C1711 C 0.43455 0.64913 0.75406 0.0
C1712 C 0.40252 0.62153 0.75286 0.0
C1713 C 0.39321 0.59719 0.75018 0.0
C1714 C 0.39976 0.58123 0.73122 0.0
C1715 C 0.39109 0.55828 0.72885 0.0
C1716 C 0.37573 0.55111 0.74526 0.0
C1717 C 0.36898 0.56689 0.76405 0.0
C1718 C 0.37761 0.58986 0.7665 0.0
C1719 C 0.35806 0.71954 0.74189 0.0
C1720 C 0.34109 0.72115 0.7593 0.0
C1721 C 0.37516 0.70128 0.74109 0.0
C1722 C 0.37595 0.68412 0.75774 0.0
C1723 C 0.35912 0.68568 0.77524 0.0
C1724 C 0.34196 0.70403 0.77608 0.0
C1725 C 0.39401 0.66436 0.75654 0.0
C1726 C 0.38645 0.64086 0.75486 0.0
C1727 C 0.41846 0.66848 0.75607 0.0
C1728 C 0.42782 0.69276 0.75876 0.0
C1729 C 0.42247 0.70829 0.77848 0.0
C1730 C 0.43105 0.73128 0.78071 0.0
C1731 C 0.44516 0.73889 0.76342 0.0
C1732 C 0.45079 0.7235 0.74391 0.0
C1733 C 0.44223 0.70049 0.74158 0.0
H1734 H 0.45177 0.7567 0.76516 0.0
H1735 H 0.36904 0.53333 0.7434 0.0
H1736 H 0.45699 0.47357 0.76648 0.0
H1737 H 0.42828 0.44164 0.76124 0.0
H1738 H 0.47322 0.3988 0.80513 0.0
H1739 H 0.50163 0.4308 0.81082 0.0
H1740 H 0.45305 0.37517 0.75893 0.0
H1741 H 0.43052 0.42269 0.83042 0.0
H1742 H 0.41891 0.46032 0.85206 0.0
H1743 H 0.35943 0.46751 0.80313 0.0
H1744 H 0.37089 0.43006 0.781 0.0
H1745 H 0.38225 0.28188 0.78615 0.0
H1746 H 0.40891 0.31487 0.78606 0.0
H1747 H 0.35041 0.36088 0.7672 0.0
H1748 H 0.3235 0.32802 0.76872 0.0
H1749 H 0.37635 0.38462 0.79693 0.0
H1750 H 0.39391 0.33821 0.72691 0.0
H1751 H 0.40397 0.3027 0.70105 0.0
H1752 H 0.47029 0.29569 0.73981 0.0
H1753 H 0.46045 0.33087 0.76624 0.0
C1754 C 0.46076 0.4573 0.77492 0.0
C1755 C 0.48155 0.45479 0.78917 0.0
C1756 C 0.44433 0.43909 0.77195 0.0
C1757 C 0.44857 0.41776 0.78277 0.0
C1758 C 0.46955 0.41503 0.79657 0.0
C1759 C 0.48571 0.43341 0.79996 0.0
C1760 C 0.43092 0.39853 0.78032 0.0
C1761 C 0.43636 0.37707 0.76742 0.0
C1762 C 0.4087 0.40138 0.79047 0.0
C1763 C 0.4017 0.42372 0.80393 0.0
C1764 C 0.41508 0.4324 0.82416 0.0
C1765 C 0.4085 0.45367 0.83654 0.0
C1766 C 0.38848 0.46634 0.82893 0.0
C1767 C 0.37495 0.45771 0.80898 0.0
C1768 C 0.38147 0.43645 0.79653 0.0
C1769 C 0.37504 0.29902 0.78196 0.0
C1770 C 0.35072 0.30223 0.77721 0.0
C1771 C 0.39039 0.31792 0.78168 0.0
C1772 C 0.38197 0.3405 0.77609 0.0
C1773 C 0.35757 0.34374 0.77145 0.0
C1774 C 0.34214 0.32486 0.77212 0.0
C1775 C 0.39852 0.36073 0.77585 0.0
C1776 C 0.39291 0.38251 0.78823 0.0
C1777 C 0.42031 0.35838 0.76455 0.0
C1778 C 0.42633 0.33711 0.74873 0.0
C1779 C 0.41056 0.32899 0.73008 0.0
C1780 C 0.41623 0.30893 0.71529 0.0
C1781 C 0.43774 0.29694 0.71881 0.0
C1782 C 0.45363 0.30499 0.73713 0.0
C1783 C 0.44801 0.325 0.75202 0.0
H1784 H 0.44213 0.28144 0.70733 0.0
H1785 H 0.38342 0.48281 0.83853 0.0
H1786 H 0.58787 0.45332 0.78543 0.0
H1787 H 0.62122 0.42657 0.77796 0.0
H1788 H 0.63366 0.46026 0.71418 0.0
H1789 H 0.59965 0.48748 0.72164 0.0
H1790 H 0.64074 0.40902 0.71051 0.0
H1791 H 0.66673 0.47598 0.76089 0.0
H1792 H 0.6646 0.5058 0.79491 0.0
H1793 H 0.67062 0.45081 0.84308 0.0
H1794 H 0.67242 0.42063 0.80934 0.0
H1795 H 0.75627 0.35258 0.71234 0.0
H1796 H 0.7229 0.38036 0.70925 0.0
H1797 H 0.70377 0.36656 0.77955 0.0
H1798 H 0.73743 0.33917 0.78302 0.0
H1799 H 0.70245 0.41193 0.77576 0.0
H1800 H 0.65645 0.34896 0.72546 0.0
H1801 H 0.64978 0.31928 0.6916 0.0
H1802 H 0.68047 0.36505 0.64526 0.0
H1803 H 0.68634 0.39541 0.6787 0.0
C1804 C 0.59743 0.45492 0.76957 0.0
C1805 C 0.59121 0.4727 0.75423 0.0
C1806 C 0.61659 0.4396 0.76538 0.0
C1807 C 0.63034 0.44169 0.74583 0.0
C1808 C 0.62339 0.45842 0.7295 0.0
C1809 C 0.60392 0.47388 0.73369 0.0
C1810 C 0.65247 0.42705 0.74368 0.0
C1811 C 0.65452 0.41002 0.7245 0.0
C1812 C 0.67026 0.42788 0.76218 0.0
C1813 C 0.66959 0.44603 0.78256 0.0
C1814 C 0.66747 0.47023 0.77873 0.0
C1815 C 0.66633 0.48721 0.79797 0.0
C1816 C 0.66745 0.4802 0.82114 0.0
C1817 C 0.66976 0.45621 0.82512 0.0
C1818 C 0.67088 0.43917 0.80595 0.0
C1819 C 0.74505 0.35548 0.72724 0.0
C1820 C 0.74986 0.34371 0.74809 0.0
C1821 C 0.72565 0.37118 0.72526 0.0
C1822 C 0.7104 0.37544 0.74399 0.0
C1823 C 0.71515 0.36365 0.76477 0.0
C1824 C 0.73455 0.348 0.76679 0.0
C1825 C 0.69055 0.39335 0.74284 0.0
C1826 C 0.68894 0.41111 0.76151 0.0
C1827 C 0.67316 0.39311 0.72396 0.0
C1828 C 0.67226 0.37414 0.70457 0.0
C1829 C 0.66206 0.3525 0.70809 0.0
C1830 C 0.6582 0.33569 0.68896 0.0
C1831 C 0.66489 0.34019 0.66635 0.0
C1832 C 0.67536 0.36157 0.6628 0.0
C1833 C 0.67884 0.37863 0.68179 0.0
H1834 H 0.66179 0.32716 0.65157 0.0
H1835 H 0.66654 0.49337 0.83601 0.0
H1836 H 0.62802 0.48994 0.22236 0.0
H1837 H 0.65648 0.45792 0.22844 0.0
H1838 H 0.61685 0.436 0.28555 0.0
H1839 H 0.58819 0.46885 0.27977 0.0
H1840 H 0.66562 0.43005 0.29429 0.0
H1841 H 0.60922 0.40774 0.23191 0.0
H1842 H 0.58481 0.4125 0.19525 0.0
H1843 H 0.64707 0.41588 0.15595 0.0
H1844 H 0.67187 0.4115 0.19246 0.0
H1845 H 0.72494 0.31627 0.28444 0.0
H1846 H 0.69522 0.34821 0.28682 0.0
H1847 H 0.72225 0.37654 0.22532 0.0
H1848 H 0.75157 0.34427 0.22244 0.0
H1849 H 0.67652 0.37709 0.22141 0.0
H1850 H 0.73295 0.40051 0.28563 0.0
H1851 H 0.75628 0.39482 0.32281 0.0
H1852 H 0.69279 0.38796 0.35931 0.0
H1853 H 0.66909 0.39324 0.32229 0.0
C1854 C 0.62549 0.47858 0.23652 0.0
C1855 C 0.60571 0.48181 0.25045 0.0
C1856 C 0.64179 0.46018 0.23992 0.0
C1857 C 0.63858 0.44409 0.25704 0.0
C1858 C 0.61964 0.44807 0.2721 0.0
C1859 C 0.60331 0.46686 0.26885 0.0
C1860 C 0.65424 0.42248 0.2577 0.0
C1861 C 0.66776 0.41824 0.27848 0.0
C1862 C 0.65725 0.40708 0.23704 0.0
C1863 C 0.6424 0.40945 0.21497 0.0
C1864 C 0.61771 0.40964 0.21548 0.0
C1865 C 0.6038 0.41226 0.19473 0.0
C1866 C 0.61438 0.41453 0.1733 0.0
C1867 C 0.6389 0.41413 0.17257 0.0
C1868 C 0.65289 0.41155 0.19328 0.0
C1869 C 0.72458 0.32927 0.27137 0.0
C1870 C 0.74073 0.3276 0.2532 0.0
C1871 C 0.70761 0.34769 0.27288 0.0
C1872 C 0.70659 0.36517 0.2565 0.0
C1873 C 0.7226 0.36339 0.23825 0.0
C1874 C 0.73941 0.34486 0.2366 0.0
C1875 C 0.68854 0.38493 0.2578 0.0
C1876 C 0.67442 0.38879 0.23731 0.0
C1877 C 0.68493 0.39978 0.27879 0.0
C1878 C 0.69925 0.397 0.30111 0.0
C1879 C 0.72397 0.39763 0.30154 0.0
C1880 C 0.73726 0.39449 0.3226 0.0
C1881 C 0.726 0.39091 0.34336 0.0
C1882 C 0.70146 0.39065 0.34318 0.0
C1883 C 0.6881 0.39373 0.32218 0.0
H1884 H 0.73625 0.38833 0.35962 0.0
H1885 H 0.60358 0.41657 0.15725 0.0
H1886 H 0.63134 0.5842 0.25322 0.0
H1887 H 0.66209 0.61388 0.258 0.0
H1888 H 0.63817 0.64074 0.19145 0.0
H1889 H 0.60796 0.61076 0.18639 0.0
H1890 H 0.68302 0.63894 0.19262 0.0
H1891 H 0.62734 0.66899 0.24972 0.0
H1892 H 0.60297 0.66788 0.28442 0.0
H1893 H 0.66496 0.65665 0.32901 0.0
H1894 H 0.68968 0.65739 0.2945 0.0
H1895 H 0.72922 0.75399 0.20203 0.0
H1896 H 0.70381 0.71979 0.20128 0.0
H1897 H 0.74454 0.69411 0.26074 0.0
H1898 H 0.76998 0.72864 0.26153 0.0
H1899 H 0.69523 0.69262 0.26546 0.0
H1900 H 0.75088 0.6661 0.2084 0.0
H1901 H 0.77486 0.66879 0.17368 0.0
H1902 H 0.71212 0.67472 0.12888 0.0
H1903 H 0.68774 0.67243 0.16341 0.0
C1904 C 0.63253 0.59655 0.23971 0.0
C1905 C 0.61711 0.59502 0.2194 0.0
C1906 C 0.65014 0.61363 0.24248 0.0
C1907 C 0.65249 0.62995 0.22524 0.0
C1908 C 0.63698 0.62843 0.20503 0.0
C1909 C 0.61963 0.6112 0.20212 0.0
C1910 C 0.67122 0.64833 0.22779 0.0
C1911 C 0.68541 0.65079 0.20851 0.0
C1912 C 0.67518 0.66348 0.24875 0.0
C1913 C 0.66033 0.66293 0.26947 0.0
C1914 C 0.63575 0.66608 0.26689 0.0
C1915 C 0.62188 0.66555 0.28652 0.0
C1916 C 0.6324 0.66211 0.30888 0.0
C1917 C 0.65683 0.65925 0.31167 0.0
C1918 C 0.67078 0.65973 0.29208 0.0
C1919 C 0.73294 0.74092 0.21479 0.0
C1920 C 0.75206 0.74364 0.2314 0.0
C1921 C 0.7184 0.72134 0.21433 0.0
C1922 C 0.72236 0.70411 0.23073 0.0
C1923 C 0.74123 0.70698 0.2477 0.0
C1924 C 0.75604 0.72651 0.24793 0.0
C1925 C 0.7064 0.68347 0.2301 0.0
C1926 C 0.69285 0.68059 0.2497 0.0
C1927 C 0.70289 0.66801 0.2094 0.0
C1928 C 0.71748 0.66927 0.18855 0.0
C1929 C 0.74219 0.66816 0.19118 0.0
C1930 C 0.75586 0.66959 0.17152 0.0
C1931 C 0.74502 0.67197 0.1491 0.0
C1932 C 0.72049 0.67289 0.14627 0.0
C1933 C 0.70673 0.6715 0.16588 0.0
H1934 H 0.75564 0.67307 0.1339 0.0
H1935 H 0.62163 0.66172 0.32407 0.0
H1936 H 0.51996 0.61735 0.2355 0.0
H1937 H 0.48783 0.64584 0.24265 0.0
H1938 H 0.45519 0.59722 0.28518 0.0
H1939 H 0.48778 0.56836 0.27796 0.0
H1940 H 0.42406 0.61311 0.25244 0.0
H1941 H 0.47575 0.64979 0.31071 0.0
H1942 H 0.51224 0.6666 0.32945 0.0
H1943 H 0.51055 0.71942 0.27897 0.0
H1944 H 0.47427 0.70267 0.25961 0.0
H1945 H 0.33471 0.70417 0.27561 0.0
H1946 H 0.3663 0.67446 0.27995 0.0
H1947 H 0.40705 0.70887 0.23107 0.0
H1948 H 0.37545 0.73864 0.22647 0.0
H1949 H 0.43252 0.69916 0.27354 0.0
H1950 H 0.3815 0.65783 0.21363 0.0
H1951 H 0.34377 0.64117 0.19787 0.0
H1952 H 0.34324 0.59711 0.25622 0.0
H1953 H 0.38083 0.61378 0.27251 0.0
C1954 C 0.50628 0.61293 0.24694 0.0
C1955 C 0.5065 0.59066 0.2563 0.0
C1956 C 0.48787 0.62931 0.25106 0.0
C1957 C 0.469 0.62386 0.26456 0.0
C1958 C 0.46957 0.60192 0.27476 0.0
C1959 C 0.4883 0.58552 0.27085 0.0
C1960 C 0.44801 0.64034 0.26589 0.0
C1961 C 0.42587 0.63184 0.25758 0.0
C1962 C 0.45021 0.66491 0.27231 0.0
C1963 C 0.47235 0.6748 0.28355 0.0
C1964 C 0.4833 0.6648 0.3034 0.0
C1965 C 0.50394 0.67435 0.31417 0.0
C1966 C 0.51374 0.69403 0.30537 0.0
C1967 C 0.50294 0.70417 0.28576 0.0
C1968 C 0.48233 0.69465 0.27487 0.0
C1969 C 0.35024 0.70529 0.2655 0.0
C1970 C 0.35241 0.72384 0.25058 0.0
C1971 C 0.36833 0.68824 0.26804 0.0
C1972 C 0.38912 0.68938 0.25587 0.0
C1973 C 0.39121 0.70763 0.24069 0.0
C1974 C 0.373 0.72454 0.23792 0.0
C1975 C 0.40895 0.67198 0.2594 0.0
C1976 C 0.43078 0.68037 0.26867 0.0
C1977 C 0.40637 0.6473 0.25425 0.0
C1978 C 0.38384 0.63724 0.24441 0.0
C1979 C 0.37323 0.64474 0.2232 0.0
C1980 C 0.35189 0.63527 0.21416 0.0
C1981 C 0.34108 0.61814 0.22607 0.0
C1982 C 0.35162 0.61041 0.24703 0.0
C1983 C 0.37294 0.61985 0.25617 0.0
H1984 H 0.32456 0.61083 0.21904 0.0
H1985 H 0.52966 0.70145 0.3138 0.0
H1986 H 0.45776 0.48256 0.19474 0.0
H1987 H 0.42827 0.45382 0.20164 0.0
H1988 H 0.47515 0.42385 0.25416 0.0
H1989 H 0.50515 0.45236 0.24693 0.0
H1990 H 0.45281 0.38911 0.22598 0.0
H1991 H 0.42939 0.46007 0.271 0.0
H1992 H 0.41942 0.50259 0.27779 0.0
H1993 H 0.36212 0.49526 0.22558 0.0
H1994 H 0.37196 0.45276 0.21823 0.0
H1995 H 0.35993 0.31846 0.26232 0.0
H1996 H 0.3929 0.34544 0.26175 0.0
H1997 H 0.35004 0.39042 0.21787 0.0
H1998 H 0.3169 0.36447 0.21993 0.0
H1999 H 0.37261 0.41743 0.24632 0.0
H2000 H 0.39848 0.34766 0.19794 0.0
H2001 H 0.40839 0.30514 0.19065 0.0
H2002 H 0.46056 0.3101 0.24826 0.0
H2003 H 0.45081 0.35261 0.25601 0.0
C2004 C 0.46204 0.46977 0.2076 0.0
C2005 C 0.48402 0.46997 0.22028 0.0
C2006 C 0.44496 0.4534 0.21171 0.0
C2007 C 0.44923 0.43674 0.22867 0.0
C2008 C 0.47129 0.43653 0.24106 0.0
C2009 C 0.48842 0.45301 0.23702 0.0
C2010 C 0.43055 0.41981 0.23348 0.0
C2011 C 0.43535 0.39531 0.23072 0.0
C2012 C 0.4076 0.42771 0.23943 0.0
C2013 C 0.40155 0.45325 0.24393 0.0
C2014 C 0.41477 0.46756 0.26085 0.0
C2015 C 0.40912 0.49165 0.26481 0.0
C2016 C 0.39018 0.50163 0.25209 0.0
C2017 C 0.3768 0.48752 0.23541 0.0
C2018 C 0.38239 0.46341 0.23136 0.0
C2019 C 0.35766 0.33411 0.25256 0.0
C2020 C 0.33586 0.33923 0.24105 0.0
C2021 C 0.3766 0.34951 0.25205 0.0
C2022 C 0.3744 0.36998 0.23932 0.0
C2023 C 0.35248 0.37494 0.22788 0.0
C2024 C 0.33347 0.35996 0.22895 0.0
C2025 C 0.39447 0.38655 0.23792 0.0
C2026 C 0.39001 0.4111 0.24153 0.0
C2027 C 0.41765 0.37865 0.23257 0.0
C2028 C 0.42378 0.35323 0.22766 0.0
C2029 C 0.41201 0.33965 0.20909 0.0
C2030 C 0.4176 0.31556 0.20488 0.0
C2031 C 0.43506 0.30492 0.21902 0.0
C2032 C 0.44703 0.31836 0.23734 0.0
C2033 C 0.44151 0.34245 0.24163 0.0
H2034 H 0.43933 0.28626 0.21575 0.0
H2035 H 0.38584 0.52029 0.25518 0.0
H2036 H 0.82183 0.56439 0.51363 0.0
H2037 H 0.82935 0.59208 0.5484 0.0
H2038 H 0.76617 0.5702 0.5787 0.0
H2039 H 0.75833 0.54278 0.54393 0.0
H2040 H 0.76869 0.61731 0.5826 0.0
H2041 H 0.82075 0.55184 0.59938 0.0
H2042 H 0.85216 0.5219 0.59128 0.0
H2043 H 0.90141 0.57694 0.58529 0.0
H2044 H 0.8702 0.60722 0.59304 0.0
H2045 H 0.79492 0.66613 0.70128 0.0
H2046 H 0.79552 0.63307 0.67054 0.0
H2047 H 0.83218 0.67579 0.62526 0.0
H2048 H 0.83153 0.70895 0.65575 0.0
H2049 H 0.8441 0.61725 0.63088 0.0
H2050 H 0.78722 0.67928 0.59948 0.0
H2051 H 0.7589 0.71113 0.61183 0.0
H2052 H 0.72158 0.66232 0.64956 0.0
H2053 H 0.74972 0.63019 0.63738 0.0
C2054 C 0.80958 0.5654 0.52773 0.0
C2055 C 0.78949 0.55135 0.52598 0.0
C2056 C 0.81395 0.58118 0.54764 0.0
C2057 C 0.79842 0.58307 0.56627 0.0
C2058 C 0.77838 0.56905 0.56455 0.0
C2059 C 0.77397 0.55333 0.54466 0.0
C2060 C 0.80274 0.6 0.58732 0.0
C2061 C 0.78511 0.61699 0.59321 0.0
C2062 C 0.82426 0.59996 0.60114 0.0
C2063 C 0.84308 0.58179 0.59657 0.0
C2064 C 0.83824 0.55756 0.59615 0.0
C2065 C 0.85601 0.54053 0.59166 0.0
C2066 C 0.87875 0.54752 0.58772 0.0
C2067 C 0.88378 0.57155 0.58832 0.0
C2068 C 0.86606 0.58866 0.59279 0.0
C2069 C 0.80356 0.66827 0.68498 0.0
C2070 C 0.81306 0.69006 0.68075 0.0
C2071 C 0.80397 0.64939 0.66754 0.0
C2072 C 0.81405 0.65206 0.64583 0.0
C2073 C 0.82462 0.67339 0.64208 0.0
C2074 C 0.82406 0.69232 0.6594 0.0
C2075 C 0.81014 0.63414 0.62577 0.0
C2076 C 0.82775 0.61721 0.62015 0.0
C2077 C 0.78871 0.63408 0.61218 0.0
C2078 C 0.77031 0.6524 0.61732 0.0
C2079 C 0.77272 0.67532 0.6101 0.0
C2080 C 0.75681 0.69341 0.61716 0.0
C2081 C 0.73845 0.68873 0.63145 0.0
C2082 C 0.73576 0.66587 0.63843 0.0
C2083 C 0.75162 0.6477 0.63138 0.0
H2084 H 0.72642 0.70288 0.63722 0.0
H2085 H 0.89249 0.5343 0.58424 0.0
H2086 H 0.47259 0.79438 0.53275 0.0
H2087 H 0.44122 0.78644 0.55882 0.0
H2088 H 0.44016 0.85971 0.58584 0.0
H2089 H 0.47175 0.86774 0.5598 0.0
H2090 H 0.44133 0.82806 0.62142 0.0
H2091 H 0.39732 0.83987 0.54804 0.0
H2092 H 0.38722 0.83242 0.50527 0.0
H2093 H 0.37301 0.75996 0.5153 0.0
H2094 H 0.38339 0.76688 0.5581 0.0
H2095 H 0.33991 0.83215 0.68613 0.0
H2096 H 0.3679 0.83901 0.65628 0.0
H2097 H 0.3605 0.76703 0.62647 0.0
H2098 H 0.3318 0.76025 0.65618 0.0
H2099 H 0.36398 0.79627 0.59185 0.0
H2100 H 0.40778 0.78253 0.66353 0.0
H2101 H 0.41887 0.7876 0.70628 0.0
H2102 H 0.43512 0.86024 0.69957 0.0
H2103 H 0.42383 0.85569 0.65681 0.0
C2104 C 0.46578 0.80879 0.54431 0.0
C2105 C 0.47476 0.83169 0.5443 0.0
C2106 C 0.44768 0.80426 0.55905 0.0
C2107 C 0.43823 0.8225 0.57418 0.0
C2108 C 0.44716 0.84538 0.57425 0.0
C2109 C 0.46511 0.84998 0.55931 0.0
C2110 C 0.41952 0.81755 0.59041 0.0
C2111 C 0.42428 0.82145 0.61495 0.0
C2112 C 0.39763 0.80801 0.58198 0.0
C2113 C 0.39138 0.80384 0.55625 0.0
C2114 C 0.39226 0.82229 0.5411 0.0
C2115 C 0.38644 0.81817 0.51685 0.0
C2116 C 0.37954 0.79572 0.50756 0.0
C2117 C 0.37839 0.77734 0.52251 0.0
C2118 C 0.38423 0.78135 0.54677 0.0
C2119 C 0.34403 0.81784 0.67306 0.0
C2120 C 0.33381 0.79562 0.67355 0.0
C2121 C 0.36016 0.82174 0.65607 0.0
C2122 C 0.36676 0.8034 0.63943 0.0
C2123 C 0.3558 0.78142 0.63922 0.0
C2124 C 0.33942 0.77756 0.65617 0.0
C2125 C 0.38565 0.80714 0.62289 0.0
C2126 C 0.381 0.8029 0.59834 0.0
C2127 C 0.40785 0.81601 0.63128 0.0
C2128 C 0.41475 0.81883 0.65699 0.0
C2129 C 0.41355 0.79964 0.6712 0.0
C2130 C 0.4199 0.80241 0.69543 0.0
C2131 C 0.42764 0.82424 0.70564 0.0
C2132 C 0.4291 0.84334 0.69163 0.0
C2133 C 0.42275 0.84067 0.66739 0.0
H2134 H 0.43254 0.82635 0.72441 0.0
H2135 H 0.37503 0.79257 0.48878 0.0
H2136 H 0.30298 0.49449 0.58715 0.0
H2137 H 0.29393 0.46728 0.61697 0.0
H2138 H 0.32379 0.40906 0.57381 0.0
H2139 H 0.33313 0.43626 0.54412 0.0
H2140 H 0.27679 0.40216 0.59217 0.0
H2141 H 0.35561 0.42783 0.61733 0.0
H2142 H 0.38529 0.45792 0.62932 0.0
H2143 H 0.34397 0.48432 0.68751 0.0
H2144 H 0.31385 0.4546 0.67563 0.0
H2145 H 0.29007 0.30951 0.66769 0.0
H2146 H 0.29366 0.33958 0.63959 0.0
H2147 H 0.28421 0.39451 0.69586 0.0
H2148 H 0.28181 0.36429 0.72429 0.0
H2149 H 0.318 0.40578 0.67172 0.0
H2150 H 0.24049 0.3805 0.65013 0.0
H2151 H 0.20862 0.35257 0.639 0.0
H2152 H 0.24326 0.32841 0.5756 0.0
H2153 H 0.27552 0.35597 0.5865 0.0
C2154 C 0.30754 0.47588 0.58408 0.0
C2155 C 0.31878 0.46741 0.56344 0.0
C2156 C 0.30245 0.46043 0.60108 0.0
C2157 C 0.30824 0.43626 0.5975 0.0
C2158 C 0.31922 0.4277 0.5768 0.0
C2159 C 0.32469 0.44321 0.56 0.0
C2160 C 0.30294 0.41984 0.6154 0.0
C2161 C 0.28589 0.40271 0.60951 0.0
C2162 C 0.31422 0.42136 0.63827 0.0
C2163 C 0.33235 0.43918 0.64542 0.0
C2164 C 0.35273 0.44021 0.63253 0.0
C2165 C 0.36966 0.45716 0.63934 0.0
C2166 C 0.36648 0.47307 0.65912 0.0
C2167 C 0.34639 0.47202 0.67217 0.0
C2168 C 0.32939 0.45512 0.66541 0.0
C2169 C 0.28852 0.32801 0.67398 0.0
C2170 C 0.2856 0.33466 0.69807 0.0
C2171 C 0.29042 0.3452 0.65789 0.0
C2172 C 0.2888 0.36937 0.66548 0.0
C2173 C 0.28547 0.376 0.68956 0.0
C2174 C 0.28402 0.35877 0.70576 0.0
C2175 C 0.29194 0.38762 0.64851 0.0
C2176 C 0.30861 0.4052 0.65452 0.0
C2177 C 0.27991 0.38682 0.62591 0.0
C2178 C 0.26053 0.37019 0.61925 0.0
C2179 C 0.24141 0.36911 0.6339 0.0
C2180 C 0.22325 0.35336 0.62762 0.0
C2181 C 0.22394 0.33869 0.60663 0.0
C2182 C 0.24276 0.33977 0.59186 0.0
C2183 C 0.26097 0.35548 0.59807 0.0
H2184 H 0.20986 0.3265 0.60179 0.0
H2185 H 0.37961 0.48618 0.66437 0.0
H2186 H 0.6119 0.26092 0.56265 0.0
H2187 H 0.64563 0.27128 0.58995 0.0
H2188 H 0.61942 0.22737 0.64121 0.0
H2189 H 0.58585 0.21706 0.61421 0.0
H2190 H 0.64055 0.26821 0.66244 0.0
H2191 H 0.65647 0.20448 0.60146 0.0
H2192 H 0.65801 0.18904 0.55954 0.0
H2193 H 0.70712 0.24247 0.54733 0.0
H2194 H 0.70601 0.25799 0.58904 0.0
H2195 H 0.73921 0.22835 0.72982 0.0
H2196 H 0.7064 0.22515 0.69989 0.0
H2197 H 0.73891 0.27575 0.65961 0.0
H2198 H 0.77042 0.28033 0.69011 0.0
H2199 H 0.71602 0.2362 0.6314 0.0
H2200 H 0.70443 0.2971 0.69258 0.0
H2201 H 0.70261 0.31462 0.73357 0.0
H2202 H 0.64532 0.26986 0.7452 0.0
H2203 H 0.64722 0.25148 0.70435 0.0
C2204 C 0.613 0.25406 0.58001 0.0
C2205 C 0.59641 0.23796 0.58621 0.0
C2206 C 0.63231 0.25989 0.59554 0.0
C2207 C 0.63518 0.24979 0.61745 0.0
C2208 C 0.61759 0.23531 0.62438 0.0
C2209 C 0.59847 0.22935 0.60887 0.0
C2210 C 0.65757 0.25177 0.63202 0.0
C2211 C 0.65701 0.2611 0.65572 0.0
C2212 C 0.67918 0.24299 0.62305 0.0
C2213 C 0.68082 0.23269 0.59827 0.0
C2214 C 0.66757 0.21293 0.58978 0.0
C2215 C 0.66843 0.2041 0.56605 0.0
C2216 C 0.68264 0.21476 0.55071 0.0
C2217 C 0.69616 0.23413 0.55914 0.0
C2218 C 0.69544 0.24295 0.58285 0.0
C2219 C 0.73961 0.23834 0.7143 0.0
C2220 C 0.7576 0.25439 0.71215 0.0
C2221 C 0.72089 0.23652 0.69726 0.0
C2222 C 0.72025 0.25033 0.67764 0.0
C2223 C 0.73912 0.2649 0.67455 0.0
C2224 C 0.75733 0.2673 0.69191 0.0
C2225 C 0.69874 0.25182 0.66199 0.0
C2226 C 0.69956 0.24334 0.63811 0.0
C2227 C 0.67744 0.26155 0.67076 0.0
C2228 C 0.67622 0.27258 0.69541 0.0
C2229 C 0.69174 0.29059 0.70395 0.0
C2230 C 0.69066 0.30076 0.72719 0.0
C2231 C 0.67394 0.29329 0.74204 0.0
C2232 C 0.65829 0.2756 0.73368 0.0
C2233 C 0.65937 0.26528 0.71047 0.0
H2234 H 0.67305 0.30127 0.75999 0.0
H2235 H 0.6832 0.20801 0.53231 0.0
H2236 H 0.81423 0.47275 0.43053 0.0
H2237 H 0.8223 0.43899 0.40235 0.0
H2238 H 0.81174 0.39118 0.45628 0.0
H2239 H 0.8034 0.42497 0.48456 0.0
H2240 H 0.84847 0.37695 0.41714 0.0
H2241 H 0.76667 0.39853 0.43032 0.0
H2242 H 0.73464 0.42819 0.43663 0.0
H2243 H 0.74536 0.45421 0.36881 0.0
H2244 H 0.77787 0.42507 0.36238 0.0
H2245 H 0.81668 0.28965 0.32016 0.0
H2246 H 0.81723 0.31212 0.35929 0.0
H2247 H 0.80795 0.37726 0.32481 0.0
H2248 H 0.80708 0.35514 0.28624 0.0
H2249 H 0.77927 0.37663 0.36005 0.0
H2250 H 0.86193 0.35847 0.34766 0.0
H2251 H 0.89614 0.33151 0.34113 0.0
H2252 H 0.88495 0.30023 0.40624 0.0
H2253 H 0.85047 0.32684 0.413 0.0
C2254 C 0.81459 0.45509 0.43666 0.0
C2255 C 0.80822 0.45145 0.45971 0.0
C2256 C 0.81925 0.43584 0.42058 0.0
C2257 C 0.81741 0.41267 0.42725 0.0
C2258 C 0.81344 0.40897 0.45092 0.0
C2259 C 0.8088 0.4283 0.46709 0.0
C2260 C 0.81482 0.39316 0.40846 0.0
C2261 C 0.83316 0.37645 0.40489 0.0
C2262 C 0.79487 0.39273 0.39252 0.0
C2263 C 0.77479 0.40971 0.39594 0.0
C2264 C 0.76228 0.41067 0.41682 0.0
C2265 C 0.74406 0.4274 0.42043 0.0
C2266 C 0.73799 0.4431 0.40315 0.0
C2267 C 0.75011 0.44207 0.3822 0.0
C2268 C 0.76846 0.42546 0.37858 0.0
C2269 C 0.81471 0.30875 0.32109 0.0
C2270 C 0.81191 0.32069 0.30025 0.0
C2271 C 0.81513 0.32155 0.34337 0.0
C2272 C 0.81276 0.34639 0.34495 0.0
C2273 C 0.80977 0.35813 0.32406 0.0
C2274 C 0.80937 0.34545 0.302 0.0
C2275 C 0.81324 0.36068 0.36808 0.0
C2276 C 0.79435 0.37655 0.37255 0.0
C2277 C 0.83272 0.36029 0.38469 0.0
C2278 C 0.85347 0.34441 0.38067 0.0
C2279 C 0.86666 0.34571 0.36048 0.0
C2280 C 0.88611 0.33052 0.35676 0.0
C2281 C 0.89267 0.31411 0.37322 0.0
C2282 C 0.87982 0.31291 0.39348 0.0
C2283 C 0.86033 0.32804 0.39727 0.0
H2284 H 0.90773 0.30237 0.3703 0.0
H2285 H 0.72389 0.45606 0.40598 0.0
H2286 H 0.61757 0.87578 0.43308 0.0
H2287 H 0.64816 0.87141 0.40386 0.0
H2288 H 0.65377 0.7966 0.4129 0.0
H2289 H 0.62347 0.80089 0.44211 0.0
H2290 H 0.69714 0.81702 0.41287 0.0
H2291 H 0.62438 0.81549 0.36536 0.0
H2292 H 0.5856 0.83097 0.35154 0.0
H2293 H 0.61787 0.89287 0.32985 0.0
H2294 H 0.65683 0.87789 0.34387 0.0
H2295 H 0.7563 0.77026 0.31304 0.0
H2296 H 0.72782 0.78033 0.34307 0.0
H2297 H 0.72377 0.85231 0.32326 0.0
H2298 H 0.75203 0.84224 0.29254 0.0
H2299 H 0.68092 0.83704 0.32972 0.0
H2300 H 0.75422 0.83722 0.37422 0.0
H2301 H 0.79305 0.82182 0.38796 0.0
H2302 H 0.76031 0.76339 0.41604 0.0
H2303 H 0.7213 0.77806 0.4019 0.0
C2304 C 0.62544 0.85845 0.42891 0.0
C2305 C 0.61796 0.83866 0.4398 0.0
C2306 C 0.64281 0.85595 0.41212 0.0
C2307 C 0.65315 0.83363 0.40605 0.0
C2308 C 0.64602 0.81397 0.41724 0.0
C2309 C 0.62853 0.81642 0.4338 0.0
C2310 C 0.67133 0.83058 0.38798 0.0
C2311 C 0.69355 0.8212 0.39464 0.0
C2312 C 0.66687 0.83667 0.36435 0.0
C2313 C 0.64347 0.84571 0.35593 0.0
C2314 C 0.62318 0.83251 0.35785 0.0
C2315 C 0.60117 0.84117 0.34994 0.0
C2316 C 0.59926 0.86293 0.3399 0.0
C2317 C 0.61937 0.87604 0.33768 0.0
C2318 C 0.64142 0.86747 0.3456 0.0
C2319 C 0.74954 0.78832 0.31506 0.0
C2320 C 0.75667 0.80549 0.3004 0.0
C2321 C 0.73325 0.79406 0.33238 0.0
C2322 C 0.72391 0.81719 0.33579 0.0
C2323 C 0.7308 0.83436 0.32106 0.0
C2324 C 0.74702 0.82859 0.30355 0.0
C2325 C 0.70672 0.82316 0.3545 0.0
C2326 C 0.68466 0.83307 0.34799 0.0
C2327 C 0.71137 0.81762 0.37832 0.0
C2328 C 0.73482 0.80866 0.38681 0.0
C2329 C 0.7553 0.82095 0.38311 0.0
C2330 C 0.77735 0.81234 0.39096 0.0
C2331 C 0.77915 0.79157 0.40275 0.0
C2332 C 0.75889 0.7794 0.40677 0.0
C2333 C 0.7368 0.78786 0.39885 0.0
H2334 H 0.79623 0.78495 0.40886 0.0
H2335 H 0.58221 0.8696 0.33377 0.0
H2336 H 0.32796 0.5861 0.43353 0.0
H2337 H 0.32451 0.6199 0.40949 0.0
H2338 H 0.3599 0.66328 0.46576 0.0
H2339 H 0.36275 0.62933 0.4903 0.0
H2340 H 0.32071 0.6849 0.4503 0.0
H2341 H 0.38672 0.6497 0.41352 0.0
H2342 H 0.41236 0.61847 0.3951 0.0
H2343 H 0.36047 0.60524 0.33819 0.0
H2344 H 0.33432 0.6361 0.35644 0.0
H2345 H 0.31026 0.77185 0.35985 0.0
H2346 H 0.32429 0.74728 0.39178 0.0
H2347 H 0.28733 0.68781 0.35689 0.0
H2348 H 0.2733 0.71215 0.32509 0.0
H2349 H 0.33656 0.6805 0.36468 0.0
H2350 H 0.2687 0.71272 0.40713 0.0
H2351 H 0.24486 0.74531 0.42589 0.0
H2352 H 0.30394 0.76608 0.47238 0.0
H2353 H 0.32822 0.73379 0.45366 0.0
C2354 C 0.33521 0.60277 0.44068 0.0
C2355 C 0.34548 0.60515 0.46379 0.0
C2356 C 0.33347 0.62203 0.42685 0.0
C2357 C 0.34218 0.64408 0.43573 0.0
C2358 C 0.35319 0.64638 0.45854 0.0
C2359 C 0.35497 0.62698 0.47245 0.0
C2360 C 0.3377 0.66486 0.4217 0.0
C2361 C 0.3247 0.68422 0.43171 0.0
C2362 C 0.34291 0.664 0.39747 0.0
C2363 C 0.35849 0.6452 0.38645 0.0
C2364 C 0.38067 0.64001 0.39718 0.0
C2365 C 0.39532 0.62238 0.38675 0.0
C2366 C 0.38804 0.60986 0.36551 0.0
C2367 C 0.36609 0.61495 0.35464 0.0
C2368 C 0.35136 0.63255 0.36501 0.0
C2369 C 0.30453 0.75375 0.35945 0.0
C2370 C 0.29081 0.74378 0.34002 0.0
C2371 C 0.31263 0.73975 0.37761 0.0
C2372 C 0.30701 0.71574 0.37647 0.0
C2373 C 0.29195 0.7063 0.35793 0.0
C2374 C 0.28385 0.72023 0.33987 0.0
C2375 C 0.31852 0.69962 0.393 0.0
C2376 C 0.33304 0.68132 0.3834 0.0
C2377 C 0.31499 0.70167 0.41759 0.0
C2378 C 0.30035 0.72104 0.42879 0.0
C2379 C 0.27667 0.72439 0.42119 0.0
C2380 C 0.26306 0.74277 0.43185 0.0
C2381 C 0.2729 0.75781 0.45025 0.0
C2382 C 0.29635 0.75445 0.45808 0.0
C2383 C 0.31004 0.73611 0.44747 0.0
H2384 H 0.26234 0.77203 0.45849 0.0
H2385 H 0.39942 0.59623 0.35745 0.0
H2386 H 0.50437 0.26558 0.48676 0.0
H2387 H 0.47601 0.28078 0.45706 0.0
H2388 H 0.49715 0.22489 0.40586 0.0
H2389 H 0.52518 0.20955 0.43533 0.0
H2390 H 0.49013 0.26962 0.38662 0.0
H2391 H 0.45072 0.21726 0.43569 0.0
H2392 H 0.4383 0.20512 0.47399 0.0
H2393 H 0.40195 0.27191 0.48686 0.0
H2394 H 0.41445 0.28457 0.44875 0.0
H2395 H 0.39658 0.2565 0.30037 0.0
H2396 H 0.42823 0.25223 0.33069 0.0
H2397 H 0.38848 0.29618 0.38098 0.0
H2398 H 0.35614 0.29901 0.35102 0.0
H2399 H 0.40579 0.2629 0.40268 0.0
H2400 H 0.44038 0.31467 0.35268 0.0
H2401 H 0.45269 0.32861 0.31509 0.0
H2402 H 0.49831 0.26746 0.30492 0.0
H2403 H 0.48599 0.25295 0.34225 0.0
C2404 C 0.50322 0.2568 0.46905 0.0
C2405 C 0.51687 0.23627 0.46342 0.0
C2406 C 0.48698 0.26545 0.45214 0.0
C2407 C 0.48439 0.25386 0.4293 0.0
C2408 C 0.49888 0.23411 0.42335 0.0
C2409 C 0.51481 0.2253 0.44027 0.0
C2410 C 0.46548 0.26098 0.41202 0.0
C2411 C 0.47166 0.26815 0.39003 0.0
C2412 C 0.44142 0.25968 0.41677 0.0
C2413 C 0.43374 0.25195 0.43953 0.0
C2414 C 0.44023 0.22942 0.44678 0.0
C2415 C 0.43316 0.22243 0.46843 0.0
C2416 C 0.41941 0.23776 0.48288 0.0
C2417 C 0.41264 0.26008 0.47567 0.0
C2418 C 0.4197 0.26716 0.45405 0.0
C2419 C 0.39471 0.26532 0.31788 0.0
C2420 C 0.37399 0.27808 0.3234 0.0
C2421 C 0.41291 0.26307 0.3352 0.0
C2422 C 0.41112 0.27429 0.35816 0.0
C2423 C 0.39042 0.28733 0.36349 0.0
C2424 C 0.37196 0.28902 0.34636 0.0
C2425 C 0.43026 0.27146 0.37687 0.0
C2426 C 0.42417 0.26493 0.39921 0.0
C2427 C 0.45441 0.27381 0.37254 0.0
C2428 C 0.46213 0.28265 0.35022 0.0
C2429 C 0.45294 0.30413 0.34237 0.0
C2430 C 0.45992 0.31214 0.3211 0.0
C2431 C 0.47624 0.29891 0.30761 0.0
C2432 C 0.48566 0.27768 0.31539 0.0
C2433 C 0.4787 0.26957 0.33662 0.0
H2434 H 0.48162 0.30514 0.29116 0.0
H2435 H 0.41395 0.23233 0.49964 0.0
H2436 H 0.57575 0.80064 0.55843 0.0
H2437 H 0.60211 0.79847 0.59377 0.0
H2438 H 0.65145 0.7555 0.55293 0.0
H2439 H 0.62545 0.75808 0.51722 0.0
H2440 H 0.64178 0.74162 0.60289 0.0
H2441 H 0.66415 0.80727 0.55844 0.0
H2442 H 0.65527 0.84394 0.53865 0.0
H2443 H 0.63163 0.87808 0.60392 0.0
H2444 H 0.64002 0.84143 0.624 0.0
H2445 H 0.75063 0.75025 0.66597 0.0
H2446 H 0.71852 0.75064 0.6361 0.0
H2447 H 0.68539 0.80942 0.67568 0.0
H2448 H 0.71791 0.80937 0.70594 0.0
H2449 H 0.68281 0.81592 0.62946 0.0
H2450 H 0.66661 0.75388 0.67623 0.0
H2451 H 0.67287 0.7177 0.69736 0.0
H2452 H 0.68002 0.67653 0.63106 0.0
H2453 H 0.67504 0.71259 0.60954 0.0
C2454 C 0.59199 0.79031 0.557 0.0
C2455 C 0.59852 0.77956 0.53494 0.0
C2456 C 0.60706 0.78918 0.57724 0.0
C2457 C 0.62876 0.77692 0.57593 0.0
C2458 C 0.63475 0.76501 0.5543 0.0
C2459 C 0.61989 0.76653 0.53392 0.0
C2460 C 0.64598 0.7781 0.59661 0.0
C2461 C 0.65102 0.75771 0.60862 0.0
C2462 C 0.65717 0.79944 0.60461 0.0
C2463 C 0.65244 0.82154 0.59264 0.0
C2464 C 0.65686 0.82253 0.56851 0.0
C2465 C 0.65195 0.84332 0.55725 0.0
C2466 C 0.64282 0.86331 0.57 0.0
C2467 C 0.63866 0.86257 0.59405 0.0
C2468 C 0.64349 0.8418 0.60538 0.0
C2469 C 0.73663 0.7634 0.66847 0.0
C2470 C 0.73692 0.77977 0.68857 0.0
C2471 C 0.71813 0.76346 0.65132 0.0
C2472 C 0.69924 0.77973 0.65379 0.0
C2473 C 0.69969 0.79657 0.67345 0.0
C2474 C 0.71832 0.79655 0.69073 0.0
C2475 C 0.67934 0.77914 0.63557 0.0
C2476 C 0.67363 0.79972 0.62399 0.0
C2477 C 0.66728 0.75797 0.62826 0.0
C2478 C 0.67073 0.73614 0.64122 0.0
C2479 C 0.66993 0.73721 0.66612 0.0
C2480 C 0.67327 0.71668 0.6782 0.0
C2481 C 0.67695 0.69484 0.66558 0.0
C2482 C 0.67725 0.69348 0.64084 0.0
C2483 C 0.6743 0.71399 0.62869 0.0
H2484 H 0.67949 0.67896 0.67495 0.0
H2485 H 0.63903 0.87939 0.56125 0.0
H2486 H 0.65354 0.1712 0.48632 0.0
H2487 H 0.68296 0.1761 0.457 0.0
H2488 H 0.63295 0.21841 0.4177 0.0
H2489 H 0.6034 0.21285 0.44624 0.0
H2490 H 0.6558 0.18726 0.38869 0.0
H2491 H 0.67798 0.24178 0.458 0.0
H2492 H 0.69221 0.25151 0.49948 0.0
H2493 H 0.75377 0.20738 0.48824 0.0
H2494 H 0.73974 0.19708 0.44687 0.0
H2495 H 0.71462 0.2556 0.31564 0.0
H2496 H 0.69212 0.24101 0.34676 0.0
H2497 H 0.75574 0.21094 0.37814 0.0
H2498 H 0.77858 0.22686 0.34752 0.0
H2499 H 0.73054 0.22794 0.41162 0.0
H2500 H 0.7136 0.1761 0.34381 0.0
H2501 H 0.70257 0.16408 0.30199 0.0
H2502 H 0.63447 0.19744 0.30982 0.0
H2503 H 0.6452 0.20996 0.3516 0.0
C2504 C 0.64874 0.18128 0.47127 0.0
C2505 C 0.62614 0.19177 0.46872 0.0
C2506 C 0.66565 0.18427 0.45466 0.0
C2507 C 0.66026 0.19789 0.43532 0.0
C2508 C 0.63757 0.20791 0.43253 0.0
C2509 C 0.62072 0.20489 0.449 0.0
C2510 C 0.67794 0.20206 0.41779 0.0
C2511 C 0.6721 0.19626 0.39368 0.0
C2512 C 0.6998 0.21267 0.42435 0.0
C2513 C 0.7077 0.21847 0.44943 0.0
C2514 C 0.69441 0.23395 0.46446 0.0
C2515 C 0.70247 0.2396 0.48794 0.0
C2516 C 0.72389 0.23006 0.49645 0.0
C2517 C 0.73719 0.21473 0.48161 0.0
C2518 C 0.72919 0.20898 0.45818 0.0
C2519 C 0.72381 0.24599 0.32927 0.0
C2520 C 0.74825 0.24218 0.32918 0.0
C2521 C 0.71091 0.23744 0.34693 0.0
C2522 C 0.72207 0.22417 0.36442 0.0
C2523 C 0.74668 0.22091 0.36472 0.0
C2524 C 0.75971 0.22999 0.34729 0.0
C2525 C 0.70788 0.21413 0.38242 0.0
C2526 C 0.71442 0.21864 0.40657 0.0
C2527 C 0.68693 0.20176 0.37593 0.0
C2528 C 0.68027 0.19408 0.35084 0.0
C2529 C 0.69631 0.18098 0.33659 0.0
C2530 C 0.69011 0.17407 0.31289 0.0
C2531 C 0.66784 0.18002 0.30325 0.0
C2532 C 0.65171 0.19284 0.31731 0.0
C2533 C 0.65783 0.19982 0.34102 0.0
H2534 H 0.66308 0.17466 0.28489 0.0
H2535 H 0.73031 0.23463 0.51448 0.0
H2536 H 0.73167 0.54359 0.37543 0.0
H2537 H 0.74449 0.5727 0.34925 0.0
H2538 H 0.77485 0.61406 0.40985 0.0
H2539 H 0.7619 0.58514 0.43609 0.0
H2540 H 0.74928 0.64134 0.3781 0.0
H2541 H 0.80951 0.57933 0.37643 0.0
H2542 H 0.8241 0.53806 0.37018 0.0
H2543 H 0.79791 0.53538 0.29753 0.0
H2544 H 0.78286 0.57656 0.30345 0.0
H2545 H 0.82446 0.71739 0.32988 0.0
H2546 H 0.81118 0.6849 0.35144 0.0
H2547 H 0.78696 0.64821 0.28538 0.0
H2548 H 0.80061 0.68065 0.26362 0.0
H2549 H 0.80663 0.61759 0.31687 0.0
H2550 H 0.74883 0.68008 0.31704 0.0
H2551 H 0.73394 0.72129 0.32267 0.0
H2552 H 0.75367 0.72279 0.39702 0.0
H2553 H 0.76924 0.68183 0.39175 0.0
C2554 C 0.7408 0.55903 0.38319 0.0
C2555 C 0.74585 0.56206 0.40782 0.0
C2556 C 0.74827 0.57554 0.3682 0.0
C2557 C 0.76079 0.59541 0.37761 0.0
C2558 C 0.76526 0.59881 0.40224 0.0
C2559 C 0.75799 0.58222 0.41718 0.0
C2560 C 0.76967 0.61251 0.36185 0.0
C2561 C 0.76197 0.63621 0.36485 0.0
C2562 C 0.78565 0.60561 0.34407 0.0
C2563 C 0.79483 0.58092 0.34046 0.0
C2564 C 0.80669 0.56987 0.35918 0.0
C2565 C 0.81507 0.54651 0.35569 0.0
C2566 C 0.81187 0.53408 0.33349 0.0
C2567 C 0.80034 0.54502 0.31472 0.0
C2568 C 0.7919 0.56837 0.31813 0.0
C2569 C 0.81677 0.70216 0.31992 0.0
C2570 C 0.8135 0.7015 0.29513 0.0
C2571 C 0.80906 0.68369 0.33225 0.0
C2572 C 0.79766 0.66439 0.32003 0.0
C2573 C 0.79564 0.663 0.29513 0.0
C2574 C 0.8035 0.68147 0.28274 0.0
C2575 C 0.78664 0.64654 0.33349 0.0
C2576 C 0.79382 0.62271 0.32999 0.0
C2577 C 0.76999 0.65328 0.35069 0.0
C2578 C 0.76041 0.67791 0.35396 0.0
C2579 C 0.75019 0.68926 0.33456 0.0
C2580 C 0.74163 0.7126 0.33769 0.0
C2581 C 0.74293 0.72469 0.36018 0.0
C2582 C 0.75275 0.71346 0.37959 0.0
C2583 C 0.76145 0.69018 0.37655 0.0
H2584 H 0.73626 0.74273 0.3626 0.0
H2585 H 0.81837 0.51599 0.33082 0.0
H2586 H 0.47232 0.76157 0.45214 0.0
H2587 H 0.4444 0.76489 0.41802 0.0
H2588 H 0.49081 0.81218 0.38811 0.0
H2589 H 0.51903 0.80856 0.42176 0.0
H2590 H 0.44314 0.82998 0.39391 0.0
H2591 H 0.48511 0.76228 0.35971 0.0
H2592 H 0.50258 0.72193 0.35708 0.0
H2593 H 0.43469 0.69291 0.36455 0.0
H2594 H 0.41683 0.7331 0.36751 0.0
H2595 H 0.36992 0.83924 0.28656 0.0
H2596 H 0.40234 0.83638 0.3167 0.0
H2597 H 0.37026 0.77572 0.34224 0.0
H2598 H 0.33901 0.77775 0.31169 0.0
H2599 H 0.41383 0.76568 0.33643 0.0
H2600 H 0.37191 0.83221 0.37378 0.0
H2601 H 0.35331 0.87207 0.37651 0.0
H2602 H 0.41942 0.90275 0.3645 0.0
H2603 H 0.43835 0.86301 0.36139 0.0
C2604 C 0.47683 0.77224 0.43803 0.0
C2605 C 0.49792 0.78479 0.43972 0.0
C2606 C 0.46085 0.77414 0.41856 0.0
C2607 C 0.4655 0.78887 0.40059 0.0
C2608 C 0.48688 0.80075 0.4018 0.0
C2609 C 0.50306 0.79852 0.42101 0.0
C2610 C 0.44728 0.79326 0.38158 0.0
C2611 C 0.43695 0.81602 0.38107 0.0
C2612 C 0.43887 0.77493 0.36523 0.0
C2613 C 0.44968 0.75076 0.36414 0.0
C2614 C 0.47395 0.74733 0.36111 0.0
C2615 C 0.48391 0.72446 0.35946 0.0
C2616 C 0.46977 0.70488 0.36075 0.0
C2617 C 0.44563 0.7081 0.36362 0.0
C2618 C 0.43558 0.73092 0.36526 0.0
C2619 C 0.3696 0.82564 0.29896 0.0
C2620 C 0.35164 0.80896 0.29695 0.0
C2621 C 0.38814 0.82398 0.31618 0.0
C2622 C 0.38881 0.80581 0.33187 0.0
C2623 C 0.37032 0.78983 0.33038 0.0
C2624 C 0.35213 0.79128 0.31308 0.0
C2625 C 0.40918 0.80234 0.34902 0.0
C2626 C 0.42001 0.77972 0.34918 0.0
C2627 C 0.41783 0.82074 0.36524 0.0
C2628 C 0.40648 0.84462 0.36707 0.0
C2629 C 0.38243 0.84744 0.37151 0.0
C2630 C 0.37184 0.87001 0.37318 0.0
C2631 C 0.38516 0.88992 0.37061 0.0
C2632 C 0.40911 0.8873 0.36644 0.0
C2633 C 0.41979 0.86476 0.36474 0.0
H2634 H 0.37693 0.90739 0.37191 0.0
H2635 H 0.47751 0.6872 0.35948 0.0
H2636 H 0.25795 0.49628 0.45294 0.0
H2637 H 0.24425 0.46741 0.42093 0.0
H2638 H 0.31162 0.46892 0.38944 0.0
H2639 H 0.32513 0.49785 0.42081 0.0
H2640 H 0.27814 0.46452 0.3555 0.0
H2641 H 0.29949 0.42758 0.42856 0.0
H2642 H 0.29607 0.42133 0.47091 0.0
H2643 H 0.22366 0.40294 0.45737 0.0
H2644 H 0.2266 0.40939 0.41497 0.0
H2645 H 0.30282 0.33366 0.3315 0.0
H2646 H 0.29577 0.36801 0.35891 0.0
H2647 H 0.24178 0.3936 0.31037 0.0
H2648 H 0.24889 0.35892 0.28248 0.0
H2649 H 0.25881 0.3865 0.38261 0.0
H2650 H 0.24854 0.45513 0.3134 0.0
H2651 H 0.25811 0.4598 0.27196 0.0
H2652 H 0.31761 0.41219 0.27912 0.0
H2653 H 0.30857 0.40753 0.32066 0.0
C2654 C 0.26963 0.49079 0.43891 0.0
C2655 C 0.29274 0.49913 0.4396 0.0
C2656 C 0.26182 0.47424 0.42067 0.0
C2657 C 0.27701 0.46574 0.40292 0.0
C2658 C 0.29954 0.47518 0.40288 0.0
C2659 C 0.30731 0.49165 0.42099 0.0
C2660 C 0.27077 0.44544 0.38568 0.0
C2661 C 0.27344 0.44758 0.36139 0.0
C2662 C 0.26494 0.4232 0.39329 0.0
C2663 C 0.26317 0.41927 0.41871 0.0
C2664 C 0.2828 0.42237 0.43467 0.0
C2665 C 0.28095 0.41877 0.45866 0.0
C2666 C 0.25963 0.41183 0.46684 0.0
C2667 C 0.24014 0.40839 0.45102 0.0
C2668 C 0.24188 0.41202 0.42702 0.0
C2669 C 0.28926 0.34643 0.32666 0.0
C2670 C 0.27656 0.34368 0.30469 0.0
C2671 C 0.28512 0.366 0.34248 0.0
C2672 C 0.26834 0.38345 0.33668 0.0
C2673 C 0.2549 0.38037 0.31515 0.0
C2674 C 0.25892 0.36055 0.29928 0.0
C2675 C 0.26665 0.4055 0.35256 0.0
C2676 C 0.26255 0.40366 0.3766 0.0
C2677 C 0.27187 0.42783 0.34482 0.0
C2678 C 0.27766 0.43074 0.31999 0.0
C2679 C 0.26368 0.4457 0.30612 0.0
C2680 C 0.26902 0.44836 0.28263 0.0
C2681 C 0.2884 0.43622 0.27289 0.0
C2682 C 0.30255 0.42151 0.28665 0.0
C2683 C 0.29731 0.41884 0.31016 0.0
H2684 H 0.29249 0.43828 0.2547 0.0
H2685 H 0.25824 0.40904 0.48542 0.0
H2686 H 0.47957 0.23196 0.57302 0.0
H2687 H 0.45131 0.23775 0.60404 0.0
H2688 H 0.46272 0.1653 0.62094 0.0
H2689 H 0.49115 0.15937 0.58979 0.0
H2690 H 0.41678 0.17709 0.6202 0.0
H2691 H 0.48697 0.21053 0.65603 0.0
H2692 H 0.52185 0.23564 0.66025 0.0
H2693 H 0.47734 0.29798 0.65926 0.0
H2694 H 0.4422 0.27325 0.65453 0.0
H2695 H 0.35213 0.2021 0.72629 0.0
H2696 H 0.38327 0.18961 0.69925 0.0
H2697 H 0.37971 0.2583 0.67122 0.0
H2698 H 0.34895 0.27093 0.69801 0.0
H2699 H 0.4245 0.24439 0.6814 0.0
H2700 H 0.35496 0.21042 0.64063 0.0
H2701 H 0.32003 0.18533 0.63692 0.0
H2702 H 0.36381 0.124 0.64849 0.0
H2703 H 0.39898 0.14881 0.65258 0.0
C2704 C 0.47624 0.21729 0.58344 0.0
C2705 C 0.48781 0.19526 0.57906 0.0
C2706 C 0.46006 0.22063 0.60118 0.0
C2707 C 0.45522 0.20209 0.61513 0.0
C2708 C 0.46627 0.17988 0.61046 0.0
C2709 C 0.48245 0.1765 0.5926 0.0
C2710 C 0.43841 0.20601 0.63435 0.0
C2711 C 0.4187 0.19155 0.63385 0.0
C2712 C 0.44077 0.22502 0.65205 0.0
C2713 C 0.46193 0.23998 0.65466 0.0
C2714 C 0.48461 0.22958 0.65644 0.0
C2715 C 0.50444 0.24376 0.65897 0.0
C2716 C 0.50182 0.26839 0.65995 0.0
C2717 C 0.47936 0.2789 0.65844 0.0
C2718 C 0.45947 0.2648 0.65582 0.0
C2719 C 0.35794 0.21449 0.7143 0.0
C2720 C 0.34797 0.23748 0.71428 0.0
C2721 C 0.37568 0.20731 0.69883 0.0
C2722 C 0.38371 0.223 0.68315 0.0
C2723 C 0.3738 0.24591 0.68318 0.0
C2724 C 0.35609 0.25305 0.69848 0.0
C2725 C 0.40262 0.21597 0.66675 0.0
C2726 C 0.42277 0.22979 0.66789 0.0
C2727 C 0.40067 0.1964 0.6497 0.0
C2728 C 0.37955 0.1815 0.64719 0.0
C2729 C 0.35711 0.19162 0.64259 0.0
C2730 C 0.33727 0.17745 0.64037 0.0
C2731 C 0.33969 0.1531 0.64255 0.0
C2732 C 0.36196 0.14287 0.64686 0.0
C2733 C 0.38185 0.15697 0.64911 0.0
H2734 H 0.32431 0.14216 0.64082 0.0
H2735 H 0.51719 0.27933 0.66194 0.0
H2736 H 0.70785 0.44315 0.54663 0.0
H2737 H 0.72212 0.41286 0.57251 0.0
H2738 H 0.76161 0.37897 0.51573 0.0
H2739 H 0.74723 0.4092 0.48962 0.0
H2740 H 0.72402 0.36491 0.57465 0.0
H2741 H 0.81708 0.36779 0.5388 0.0
H2742 H 0.84147 0.3946 0.51854 0.0
H2743 H 0.80164 0.45458 0.5473 0.0
H2744 H 0.77722 0.42817 0.56791 0.0
H2745 H 0.79613 0.28749 0.64161 0.0
H2746 H 0.77998 0.30561 0.60613 0.0
H2747 H 0.8068 0.37314 0.63419 0.0
H2748 H 0.82308 0.35511 0.66947 0.0
H2749 H 0.81091 0.3673 0.58728 0.0
H2750 H 0.75241 0.35673 0.6435 0.0
H2751 H 0.72851 0.33385 0.66832 0.0
H2752 H 0.69729 0.297 0.60592 0.0
H2753 H 0.7219 0.31874 0.58067 0.0
C2754 C 0.71887 0.42882 0.53934 0.0
C2755 C 0.72672 0.42882 0.51616 0.0
C2756 C 0.72709 0.41152 0.55421 0.0
C2757 C 0.74329 0.39396 0.54618 0.0
C2758 C 0.74941 0.39261 0.52239 0.0
C2759 C 0.74121 0.4099 0.50751 0.0
C2760 C 0.75595 0.37914 0.56341 0.0
C2761 C 0.74303 0.36514 0.57723 0.0
C2762 C 0.78071 0.37996 0.56715 0.0
C2763 C 0.79518 0.39597 0.55466 0.0
C2764 C 0.81357 0.3867 0.5408 0.0
C2765 C 0.82742 0.40183 0.52931 0.0
C2766 C 0.82314 0.42628 0.53169 0.0
C2767 C 0.80494 0.43564 0.54548 0.0
C2768 C 0.79106 0.4206 0.55703 0.0
C2769 C 0.79914 0.30605 0.63984 0.0
C2770 C 0.81077 0.31997 0.65825 0.0
C2771 C 0.78976 0.3164 0.61969 0.0
C2772 C 0.79186 0.34079 0.61774 0.0
C2773 C 0.80492 0.3543 0.63537 0.0
C2774 C 0.81423 0.34399 0.6555 0.0
C2775 C 0.77907 0.3528 0.59842 0.0
C2776 C 0.79196 0.36647 0.58429 0.0
C2777 C 0.75422 0.35217 0.59496 0.0
C2778 C 0.7394 0.33906 0.61017 0.0
C2779 C 0.7408 0.34343 0.63504 0.0
C2780 C 0.72718 0.3306 0.6492 0.0
C2781 C 0.71169 0.31373 0.63866 0.0
C2782 C 0.70964 0.30976 0.614 0.0
C2783 C 0.72348 0.32228 0.59977 0.0
H2784 H 0.7011 0.30384 0.64958 0.0
H2785 H 0.83388 0.43795 0.52277 0.0
H2786 H 0.26785 0.60141 0.53329 0.0
H2787 H 0.25479 0.63535 0.55965 0.0
H2788 H 0.28112 0.59966 0.62052 0.0
H2789 H 0.2946 0.56619 0.59442 0.0
H2790 H 0.23586 0.62381 0.62568 0.0
H2791 H 0.3154 0.63585 0.59909 0.0
H2792 H 0.34308 0.64039 0.56767 0.0
H2793 H 0.30201 0.69963 0.54429 0.0
H2794 H 0.27388 0.69517 0.57537 0.0
H2795 H 0.2736 0.69029 0.72577 0.0
H2796 H 0.2699 0.6651 0.68911 0.0
H2797 H 0.25445 0.72638 0.64981 0.0
H2798 H 0.25866 0.75208 0.68699 0.0
H2799 H 0.2842 0.6955 0.62654 0.0
H2800 H 0.21013 0.68978 0.65904 0.0
H2801 H 0.18171 0.68565 0.68982 0.0
H2802 H 0.20943 0.61589 0.70059 0.0
H2803 H 0.23828 0.61971 0.67013 0.0
C2804 C 0.27031 0.60065 0.55233 0.0
C2805 C 0.28223 0.58125 0.56189 0.0
C2806 C 0.26297 0.62005 0.56731 0.0
C2807 C 0.26711 0.62 0.59199 0.0
C2808 C 0.27773 0.6 0.60153 0.0
C2809 C 0.28545 0.58093 0.58662 0.0
C2810 C 0.26233 0.64125 0.60813 0.0
C2811 C 0.24627 0.63957 0.62585 0.0
C2812 C 0.27531 0.66215 0.60773 0.0
C2813 C 0.29239 0.66498 0.58931 0.0
C2814 C 0.31218 0.64971 0.58711 0.0
C2815 C 0.32796 0.65229 0.5694 0.0
C2816 C 0.32426 0.67023 0.55394 0.0
C2817 C 0.30482 0.6857 0.55623 0.0
C2818 C 0.28895 0.68315 0.57389 0.0
C2819 C 0.26935 0.69849 0.70937 0.0
C2820 C 0.26615 0.72311 0.70924 0.0
C2821 C 0.26711 0.68403 0.6884 0.0
C2822 C 0.26126 0.69375 0.66676 0.0
C2823 C 0.25869 0.71848 0.66637 0.0
C2824 C 0.26109 0.73311 0.68754 0.0
C2825 C 0.25844 0.67762 0.64484 0.0
C2826 C 0.2731 0.68019 0.62604 0.0
C2827 C 0.2439 0.65763 0.64405 0.0
C2828 C 0.22643 0.65508 0.66229 0.0
C2829 C 0.21026 0.6736 0.66805 0.0
C2830 C 0.19406 0.67131 0.68544 0.0
C2831 C 0.19377 0.65053 0.69716 0.0
C2832 C 0.20966 0.63197 0.69148 0.0
C2833 C 0.22592 0.63417 0.67411 0.0
H2834 H 0.18123 0.64879 0.71063 0.0
H2835 H 0.33649 0.6722 0.54022 0.0
loop_
_geom_bond_atom_site_label_1
_geom_bond_atom_site_label_2
_geom_bond_distance
_geom_bond_site_symmetry_2
_ccdc_geom_bond_type
Cu0 N1 1.999 . S
Cu0 O6 1.974 . S
Cu0 N11 1.985 1_445 S
Cu0 O20 1.959 1_455 S
N1 Cu0 1.999 . S
N1 C3 1.263 . S
N1 C5 1.389 . S
N2 C3 1.358 . S
N2 C4 1.400 . S
C3 N1 1.263 . S
C3 N2 1.358 . S
C3 H9 0.930 . S
C4 N2 1.400 . S
C4 C5 1.351 . S
C4 H21 0.930 . S
C5 N1 1.389 . S
C5 C4 1.351 . S
C5 H10 0.930 . S
O6 Cu0 1.974 . S
O6 C16 1.282 1_545 S
C7 O8 1.261 . S
C7 O20 1.251 . S
O8 C7 1.261 . S
H9 C3 0.930 . S
H10 C5 0.930 . S
N11 Cu0 1.985 1_665 S
N11 C13 1.335 . S
N11 C14 1.390 . S
N12 C13 1.345 . S
N12 C15 1.336 . S
C13 N11 1.335 . S
C13 N12 1.345 . S
C13 H18 0.930 1_565 S
C14 N11 1.390 . S
C14 C15 1.346 . S
C14 H19 0.930 1_655 S
C15 N12 1.336 . S
C15 C14 1.346 . S
C15 H22 0.929 . S
C16 O6 1.282 1_565 S
C16 O17 1.227 . S
O17 C16 1.227 . S
H18 C13 0.930 1_545 S
H19 C14 0.930 1_455 S
O20 Cu0 1.959 1_655 S
O20 C7 1.251 . S
H21 C4 0.930 . S
H22 C15 0.929 . S
Cu23 N24 1.999 1_445 S
Cu23 O29 1.974 1_455 S
Cu23 N34 1.985 . S
Cu23 O43 1.959 1_545 S
N24 Cu23 1.999 1_665 S
N24 C26 1.263 . S
N24 C28 1.389 . S
N25 C26 1.358 . S
N25 C27 1.400 . S
C26 N24 1.263 . S
C26 N25 1.358 . S
C26 H32 0.930 . S
C27 N25 1.400 . S
C27 C28 1.351 . S
C27 H44 0.930 . S
C28 N24 1.389 . S
C28 C27 1.351 . S
C28 H33 0.930 1_655 S
O29 Cu23 1.974 1_655 S
O29 C39 1.282 . S
C30 O31 1.261 . S
C30 O43 1.251 . S
O31 C30 1.261 . S
H32 C26 0.930 . S
H33 C28 0.930 1_455 S
N34 Cu23 1.985 . S
N34 C36 1.335 . S
N34 C37 1.390 . S
N35 C36 1.345 . S
N35 C38 1.336 . S
C36 N34 1.335 . S
C36 N35 1.345 . S
C36 H41 0.930 . S
C37 N34 1.390 . S
C37 C38 1.346 . S
C37 H42 0.930 . S
C38 N35 1.336 . S
C38 C37 1.346 . S
C38 H45 0.929 . S
C39 O29 1.282 . S
C39 O40 1.216 . S
O40 C39 1.216 . S
H41 C36 0.930 . S
H42 C37 0.930 . S
O43 Cu23 1.959 1_565 S
O43 C30 1.251 . S
H44 C27 0.930 . S
H45 C38 0.929 . S
Cu46 N47 1.991 1_544 S
Cu46 O52 1.963 1_545 S
Cu46 N57 1.993 . S
Cu46 O66 1.970 1_554 S
N47 Cu46 1.991 1_566 S
N47 C49 1.263 . S
N47 C51 1.389 . S
N48 C49 1.358 . S
N48 C50 1.400 . S
C49 N47 1.263 . S
C49 N48 1.358 . S
C49 H55 0.930 . S
C50 N48 1.400 . S
C50 C51 1.351 . S
C50 H67 0.930 . S
C51 N47 1.389 . S
C51 C50 1.351 . S
C51 H56 0.930 . S
O52 Cu46 1.963 1_565 S
O52 C62 1.282 . S
C53 O54 1.261 . S
C53 O66 1.251 . S
O54 C53 1.261 . S
H55 C49 0.930 . S
H56 C51 0.930 . S
N57 Cu46 1.993 . S
N57 C59 1.335 . S
N57 C60 1.390 . S
N58 C59 1.345 . S
N58 C61 1.336 . S
C59 N57 1.335 . S
C59 N58 1.345 . S
C59 H64 0.930 . S
C60 N57 1.390 . S
C60 C61 1.346 . S
C60 H65 0.930 . S
C61 N58 1.336 . S
C61 C60 1.346 . S
C61 H68 0.929 . S
C62 O52 1.282 . S
C62 O63 1.216 . S
O63 C62 1.216 . S
H64 C59 0.930 . S
H65 C60 0.930 . S
O66 Cu46 1.970 1_556 S
O66 C53 1.251 . S
H67 C50 0.930 . S
H68 C61 0.929 . S
Cu69 N70 1.999 1_554 S
Cu69 O75 1.974 . S
Cu69 N80 1.985 1_455 S
Cu69 O89 1.959 1_454 S
N70 Cu69 1.999 1_556 S
N70 C72 1.263 . S
N70 C74 1.389 . S
N71 C72 1.358 . S
N71 C73 1.400 . S
C72 N70 1.263 . S
C72 N71 1.358 . S
C72 H78 0.930 . S
C73 N71 1.400 . S
C73 C74 1.351 . S
C73 H90 0.930 . S
C74 N70 1.389 . S
C74 C73 1.351 . S
C74 H79 0.930 . S
O75 Cu69 1.974 . S
O75 C85 1.282 . S
C76 O77 1.261 . S
C76 O89 1.251 . S
O77 C76 1.261 . S
H78 C72 0.930 . S
H79 C74 0.930 . S
N80 Cu69 1.985 1_655 S
N80 C82 1.335 . S
N80 C83 1.390 . S
N81 C82 1.345 . S
N81 C84 1.336 . S
C82 N80 1.335 . S
C82 N81 1.345 . S
C82 H87 0.930 . S
C83 N80 1.390 . S
C83 C84 1.346 . S
C83 H88 0.930 1_655 S
C84 N81 1.336 . S
C84 C83 1.346 . S
C84 H91 0.929 . S
C85 O75 1.282 . S
C85 O86 1.216 . S
O86 C85 1.216 . S
H87 C82 0.930 . S
H88 C83 0.930 1_455 S
O89 Cu69 1.959 1_656 S
O89 C76 1.251 . S
H90 C73 0.930 . S
H91 C84 0.929 . S
Cu92 N93 1.999 1_554 S
Cu92 O98 1.974 . S
Cu92 N103 1.985 . S
Cu92 O112 1.959 1_554 S
N93 Cu92 1.999 1_556 S
N93 C95 1.263 . S
N93 C97 1.389 . S
N94 C95 1.358 . S
N94 C96 1.400 . S
C95 N93 1.263 . S
C95 N94 1.358 . S
C95 H101 0.930 1_556 S
C96 N94 1.400 . S
C96 C97 1.351 . S
C96 H113 0.930 . S
C97 N93 1.389 . S
C97 C96 1.351 . S
C97 H102 0.930 . S
O98 Cu92 1.974 . S
O98 C108 1.282 . S
C99 O100 1.261 . S
C99 O112 1.251 . S
O100 C99 1.261 . S
H101 C95 0.930 1_554 S
H102 C97 0.930 . S
N103 Cu92 1.985 . S
N103 C105 1.335 . S
N103 C106 1.390 . S
N104 C105 1.345 1_565 S
N104 C107 1.336 1_565 S
C105 N103 1.335 . S
C105 N104 1.345 1_545 S
C105 H110 0.930 1_545 S
C106 N103 1.390 . S
C106 C107 1.346 . S
C106 H111 0.930 . S
C107 N104 1.336 1_545 S
C107 C106 1.346 . S
C107 H114 0.929 . S
C108 O98 1.282 . S
C108 O109 1.216 . S
O109 C108 1.216 . S
H110 C105 0.930 1_565 S
H111 C106 0.930 . S
O112 Cu92 1.959 1_556 S
O112 C99 1.251 . S
H113 C96 0.930 . S
H114 C107 0.929 . S
Cu115 N116 1.999 1_454 S
Cu115 O121 1.974 1_455 S
Cu115 N126 1.985 . S
Cu115 O135 1.959 1_554 S
N116 Cu115 1.999 1_656 S
N116 C118 1.263 . S
N116 C120 1.389 . S
N117 C118 1.358 . S
N117 C119 1.400 . S
C118 N116 1.263 . S
C118 N117 1.358 . S
C118 H124 0.930 . S
C119 N117 1.400 . S
C119 C120 1.351 . S
C119 H136 0.930 . S
C120 N116 1.389 . S
C120 C119 1.351 . S
C120 H125 0.930 1_655 S
O121 Cu115 1.974 1_655 S
O121 C131 1.282 . S
C122 O123 1.261 . S
C122 O135 1.251 . S
O123 C122 1.261 . S
H124 C118 0.930 . S
H125 C120 0.930 1_455 S
N126 Cu115 1.985 . S
N126 C128 1.335 . S
N126 C129 1.390 . S
N127 C128 1.345 . S
N127 C130 1.336 . S
C128 N126 1.335 . S
C128 N127 1.345 . S
C128 H133 0.930 . S
C129 N126 1.390 . S
C129 C130 1.346 . S
C129 H134 0.930 . S
C130 N127 1.336 . S
C130 C129 1.346 . S
C130 H137 0.929 . S
C131 O121 1.282 . S
C131 O132 1.216 . S
O132 C131 1.216 . S
H133 C128 0.930 . S
H134 C129 0.930 . S
O135 Cu115 1.959 1_556 S
O135 C122 1.251 . S
H136 C119 0.930 . S
H137 C130 0.929 . S
Cu138 N139 1.999 . S
Cu138 O144 1.974 . S
Cu138 N149 1.985 . S
Cu138 O158 1.959 . S
N139 Cu138 1.999 . S
N139 C141 1.263 . S
N139 C143 1.389 . S
N140 C141 1.358 . S
N140 C142 1.400 . S
C141 N139 1.263 . S
C141 N140 1.358 . S
C141 H147 0.930 . S
C142 N140 1.400 . S
C142 C143 1.351 . S
C142 H159 0.930 . S
C143 N139 1.389 . S
C143 C142 1.351 . S
C143 H148 0.930 . S
O144 Cu138 1.974 . S
O144 C154 1.282 . S
C145 O146 1.261 . S
C145 O158 1.251 . S
O146 C145 1.261 . S
H147 C141 0.930 . S
H148 C143 0.930 . S
N149 Cu138 1.985 . S
N149 C151 1.335 . S
N149 C152 1.390 . S
N150 C151 1.345 . S
N150 C153 1.336 . S
C151 N149 1.335 . S
C151 N150 1.345 . S
C151 H156 0.930 . S
C152 N149 1.390 . S
C152 C153 1.346 . S
C152 H157 0.930 . S
C153 N150 1.336 . S
C153 C152 1.346 . S
C153 H160 0.929 . S
C154 O144 1.282 . S
C154 O155 1.216 . S
O155 C154 1.216 . S
H156 C151 0.930 . S
H157 C152 0.930 . S
O158 Cu138 1.959 . S
O158 C145 1.251 . S
H159 C142 0.930 . S
H160 C153 0.929 . S
Cu161 N162 1.999 . S
Cu161 O167 1.974 . S
Cu161 N172 1.985 . S
Cu161 O181 1.959 . S
N162 Cu161 1.999 . S
N162 C164 1.263 . S
N162 C166 1.389 . S
N163 C164 1.358 . S
N163 C165 1.400 . S
C164 N162 1.263 . S
C164 N163 1.358 . S
C164 H170 0.930 . S
C165 N163 1.400 . S
C165 C166 1.351 . S
C165 H182 0.930 . S
C166 N162 1.389 . S
C166 C165 1.351 . S
C166 H171 0.930 . S
O167 Cu161 1.974 . S
O167 C177 1.282 . S
C168 O169 1.261 . S
C168 O181 1.251 . S
O169 C168 1.261 . S
H170 C164 0.930 . S
H171 C166 0.930 . S
N172 Cu161 1.985 . S
N172 C174 1.335 . S
N172 C175 1.390 . S
N173 C174 1.345 . S
N173 C176 1.336 . S
C174 N172 1.335 . S
C174 N173 1.345 . S
C174 H179 0.930 . S
C175 N172 1.390 . S
C175 C176 1.346 . S
C175 H180 0.930 . S
C176 N173 1.336 . S
C176 C175 1.346 . S
C176 H183 0.929 . S
C177 O167 1.282 . S
C177 O178 1.216 . S
O178 C177 1.216 . S
H179 C174 0.930 . S
H180 C175 0.930 . S
O181 Cu161 1.959 . S
O181 C168 1.251 . S
H182 C165 0.930 . S
H183 C176 0.929 . S
Cu184 N185 1.999 . S
Cu184 O190 1.974 . S
Cu184 N195 1.985 . S
Cu184 O204 1.959 . S
N185 Cu184 1.999 . S
N185 C187 1.263 . S
N185 C189 1.389 . S
N186 C187 1.358 . S
N186 C188 1.400 . S
C187 N185 1.263 . S
C187 N186 1.358 . S
C187 H193 0.930 . S
C188 N186 1.400 . S
C188 C189 1.351 . S
C188 H205 0.930 . S
C189 N185 1.389 . S
C189 C188 1.351 . S
C189 H194 0.930 . S
O190 Cu184 1.974 . S
O190 C200 1.282 . S
C191 O192 1.261 . S
C191 O204 1.251 . S
O192 C191 1.261 . S
H193 C187 0.930 . S
H194 C189 0.930 . S
N195 Cu184 1.985 . S
N195 C197 1.335 . S
N195 C198 1.390 . S
N196 C197 1.345 . S
N196 C199 1.336 . S
C197 N195 1.335 . S
C197 N196 1.345 . S
C197 H202 0.930 . S
C198 N195 1.390 . S
C198 C199 1.346 . S
C198 H203 0.930 . S
C199 N196 1.336 . S
C199 C198 1.346 . S
C199 H206 0.929 . S
C200 O190 1.282 . S
C200 O201 1.216 . S
O201 C200 1.216 . S
H202 C197 0.930 . S
H203 C198 0.930 . S
O204 Cu184 1.959 . S
O204 C191 1.251 . S
H205 C188 0.930 . S
H206 C199 0.929 . S
Cu207 N208 1.999 . S
Cu207 O213 1.974 . S
Cu207 N218 1.985 . S
Cu207 O227 1.959 . S
N208 Cu207 1.999 . S
N208 C210 1.263 . S
N208 C212 1.389 . S
N209 C210 1.358 . S
N209 C211 1.400 . S
C210 N208 1.263 . S
C210 N209 1.358 . S
C210 H216 0.930 . S
C211 N209 1.400 . S
C211 C212 1.351 . S
C211 H228 0.930 . S
C212 N208 1.389 . S
C212 C211 1.351 . S
C212 H217 0.930 . S
O213 Cu207 1.974 . S
O213 C223 1.282 . S
C214 O215 1.261 . S
C214 O227 1.251 . S
O215 C214 1.261 . S
H216 C210 0.930 . S
H217 C212 0.930 . S
N218 Cu207 1.985 . S
N218 C220 1.335 . S
N218 C221 1.390 . S
N219 C220 1.345 . S
N219 C222 1.336 . S
C220 N218 1.335 . S
C220 N219 1.345 . S
C220 H225 0.930 . S
C221 N218 1.390 . S
C221 C222 1.346 . S
C221 H226 0.930 . S
C222 N219 1.336 . S
C222 C221 1.346 . S
C222 H229 0.929 . S
C223 O213 1.282 . S
C223 O224 1.216 . S
O224 C223 1.216 . S
H225 C220 0.930 . S
H226 C221 0.930 . S
O227 Cu207 1.959 . S
O227 C214 1.251 . S
H228 C211 0.930 . S
H229 C222 0.929 . S
Cu230 N231 1.999 . S
Cu230 O236 1.974 . S
Cu230 N241 1.985 . S
Cu230 O250 1.959 . S
N231 Cu230 1.999 . S
N231 C233 1.263 . S
N231 C235 1.389 . S
N232 C233 1.358 . S
N232 C234 1.400 . S
C233 N231 1.263 . S
C233 N232 1.358 . S
C233 H239 0.930 . S
C234 N232 1.400 . S
C234 C235 1.351 . S
C234 H251 0.930 . S
C235 N231 1.389 . S
C235 C234 1.351 . S
C235 H240 0.930 . S
O236 Cu230 1.974 . S
O236 C246 1.282 . S
C237 O238 1.261 . S
C237 O250 1.251 . S
O238 C237 1.261 . S
H239 C233 0.930 . S
H240 C235 0.930 . S
N241 Cu230 1.985 . S
N241 C243 1.335 . S
N241 C244 1.390 . S
N242 C243 1.345 . S
N242 C245 1.336 . S
C243 N241 1.335 . S
C243 N242 1.345 . S
C243 H248 0.930 . S
C244 N241 1.390 . S
C244 C245 1.346 . S
C244 H249 0.930 . S
C245 N242 1.336 . S
C245 C244 1.346 . S
C245 H252 0.929 . S
C246 O236 1.282 . S
C246 O247 1.216 . S
O247 C246 1.216 . S
H248 C243 0.930 . S
H249 C244 0.930 . S
O250 Cu230 1.959 . S
O250 C237 1.251 . S
H251 C234 0.930 . S
H252 C245 0.929 . S
Cu253 N254 1.999 . S
Cu253 O259 1.974 . S
Cu253 N264 1.985 . S
Cu253 O273 1.959 . S
N254 Cu253 1.999 . S
N254 C256 1.263 . S
N254 C258 1.389 . S
N255 C256 1.358 . S
N255 C257 1.400 . S
C256 N254 1.263 . S
C256 N255 1.358 . S
C256 H262 0.930 . S
C257 N255 1.400 . S
C257 C258 1.351 . S
C257 H274 0.930 . S
C258 N254 1.389 . S
C258 C257 1.351 . S
C258 H263 0.930 . S
O259 Cu253 1.974 . S
O259 C269 1.282 . S
C260 O261 1.261 . S
C260 O273 1.251 . S
O261 C260 1.261 . S
H262 C256 0.930 . S
H263 C258 0.930 . S
N264 Cu253 1.985 . S
N264 C266 1.335 . S
N264 C267 1.390 . S
N265 C266 1.345 . S
N265 C268 1.336 . S
C266 N264 1.335 . S
C266 N265 1.345 . S
C266 H271 0.930 . S
C267 N264 1.390 . S
C267 C268 1.346 . S
C267 H272 0.930 . S
C268 N265 1.336 . S
C268 C267 1.346 . S
C268 H275 0.929 . S
C269 O259 1.282 . S
C269 O270 1.216 . S
O270 C269 1.216 . S
H271 C266 0.930 . S
H272 C267 0.930 . S
O273 Cu253 1.959 . S
O273 C260 1.251 . S
H274 C257 0.930 . S
H275 C268 0.929 . S
Tb276 O279 2.453 . S
Tb276 O280 2.596 . S
Tb276 O281 2.374 . S
Tb276 O289 2.343 . S
Tb276 O291 2.353 . S
Tb276 O293 2.427 . S
Tb276 O294 2.513 . S
C277 O281 1.251 . S
C277 O283 1.263 . S
Tb278 O280 2.343 . S
Tb278 O283 2.353 . S
Tb278 O286 2.427 . S
Tb278 O287 2.513 . S
Tb278 O288 2.453 . S
Tb278 O289 2.596 . S
Tb278 O290 2.374 . S
O279 Tb276 2.453 . S
O279 C295 1.245 . S
O280 Tb276 2.596 . S
O280 Tb278 2.343 . S
O280 C295 1.259 . S
O281 Tb276 2.374 . S
O281 C277 1.251 . S
C282 O286 1.275 . S
C282 O287 1.246 . S
O283 C277 1.263 . S
O283 Tb278 2.353 . S
C284 O288 1.245 . S
C284 O289 1.259 . S
C285 O290 1.250 . S
C285 O291 1.263 . S
O286 Tb278 2.427 . S
O286 C282 1.275 . S
O287 Tb278 2.513 . S
O287 C282 1.246 . S
O288 Tb278 2.453 . S
O288 C284 1.245 . S
O289 Tb276 2.343 . S
O289 Tb278 2.596 . S
O289 C284 1.259 . S
O290 Tb278 2.374 . S
O290 C285 1.250 . S
O291 Tb276 2.353 . S
O291 C285 1.263 . S
C292 O293 1.275 . S
C292 O294 1.246 . S
O293 Tb276 2.427 . S
O293 C292 1.275 . S
O294 Tb276 2.513 . S
O294 C292 1.246 . S
C295 O279 1.245 . S
C295 O280 1.259 . S
Tb296 O299 2.453 . S
Tb296 O300 2.596 . S
Tb296 O301 2.374 . S
Tb296 O309 2.343 . S
Tb296 O311 2.353 . S
Tb296 O313 2.427 . S
Tb296 O314 2.513 . S
C297 O301 1.251 . S
C297 O303 1.263 . S
Tb298 O300 2.343 . S
Tb298 O303 2.353 . S
Tb298 O306 2.427 . S
Tb298 O307 2.513 . S
Tb298 O308 2.453 . S
Tb298 O309 2.596 . S
Tb298 O310 2.374 . S
O299 Tb296 2.453 . S
O299 C315 1.245 . S
O300 Tb296 2.596 . S
O300 Tb298 2.343 . S
O300 C315 1.259 . S
O301 Tb296 2.374 . S
O301 C297 1.251 . S
C302 O306 1.275 . S
C302 O307 1.246 . S
O303 C297 1.263 . S
O303 Tb298 2.353 . S
C304 O308 1.245 . S
C304 O309 1.259 . S
C305 O310 1.250 . S
C305 O311 1.263 . S
O306 Tb298 2.427 . S
O306 C302 1.275 . S
O307 Tb298 2.513 . S
O307 C302 1.246 . S
O308 Tb298 2.453 . S
O308 C304 1.245 . S
O309 Tb296 2.343 . S
O309 Tb298 2.596 . S
O309 C304 1.259 . S
O310 Tb298 2.374 . S
O310 C305 1.250 . S
O311 Tb296 2.353 . S
O311 C305 1.263 . S
C312 O313 1.275 . S
C312 O314 1.246 . S
O313 Tb296 2.427 . S
O313 C312 1.275 . S
O314 Tb296 2.513 . S
O314 C312 1.246 . S
C315 O299 1.245 . S
C315 O300 1.259 . S
Tb316 O319 2.453 . S
Tb316 O320 2.596 . S
Tb316 O321 2.374 . S
Tb316 O329 2.343 . S
Tb316 O331 2.353 . S
Tb316 O333 2.427 . S
Tb316 O334 2.513 . S
C317 O321 1.251 . S
C317 O323 1.263 . S
Tb318 O320 2.343 . S
Tb318 O323 2.353 . S
Tb318 O326 2.427 . S
Tb318 O327 2.513 . S
Tb318 O328 2.453 . S
Tb318 O329 2.596 . S
Tb318 O330 2.374 . S
O319 Tb316 2.453 . S
O319 C335 1.245 . S
O320 Tb316 2.596 . S
O320 Tb318 2.343 . S
O320 C335 1.259 . S
O321 Tb316 2.374 . S
O321 C317 1.251 . S
C322 O326 1.275 . S
C322 O327 1.246 . S
O323 C317 1.263 . S
O323 Tb318 2.353 . S
C324 O328 1.245 . S
C324 O329 1.259 . S
C325 O330 1.250 . S
C325 O331 1.263 . S
O326 Tb318 2.427 . S
O326 C322 1.275 . S
O327 Tb318 2.513 . S
O327 C322 1.246 . S
O328 Tb318 2.453 . S
O328 C324 1.245 . S
O329 Tb316 2.343 . S
O329 Tb318 2.596 . S
O329 C324 1.259 . S
O330 Tb318 2.374 . S
O330 C325 1.250 . S
O331 Tb316 2.353 . S
O331 C325 1.263 . S
C332 O333 1.275 . S
C332 O334 1.246 . S
O333 Tb316 2.427 . S
O333 C332 1.275 . S
O334 Tb316 2.513 . S
O334 C332 1.246 . S
C335 O319 1.245 . S
C335 O320 1.259 . S
Tb336 O339 2.453 . S
Tb336 O340 2.596 . S
Tb336 O341 2.374 . S
Tb336 O349 2.343 . S
Tb336 O351 2.353 . S
Tb336 O353 2.427 . S
Tb336 O354 2.513 . S
C337 O341 1.251 . S
C337 O343 1.263 . S
Tb338 O340 2.343 . S
Tb338 O343 2.353 . S
Tb338 O346 2.427 . S
Tb338 O347 2.513 . S
Tb338 O348 2.453 . S
Tb338 O349 2.596 . S
Tb338 O350 2.374 . S
O339 Tb336 2.453 . S
O339 C355 1.245 . S
O340 Tb336 2.596 . S
O340 Tb338 2.343 . S
O340 C355 1.259 . S
O341 Tb336 2.374 . S
O341 C337 1.251 . S
C342 O346 1.275 . S
C342 O347 1.246 . S
O343 C337 1.263 . S
O343 Tb338 2.353 . S
C344 O348 1.245 . S
C344 O349 1.259 . S
C345 O350 1.250 . S
C345 O351 1.263 . S
O346 Tb338 2.427 . S
O346 C342 1.275 . S
O347 Tb338 2.513 . S
O347 C342 1.246 . S
O348 Tb338 2.453 . S
O348 C344 1.245 . S
O349 Tb336 2.343 . S
O349 Tb338 2.596 . S
O349 C344 1.259 . S
O350 Tb338 2.374 . S
O350 C345 1.250 . S
O351 Tb336 2.353 . S
O351 C345 1.263 . S
C352 O353 1.275 . S
C352 O354 1.246 . S
O353 Tb336 2.427 . S
O353 C352 1.275 . S
O354 Tb336 2.513 . S
O354 C352 1.246 . S
C355 O339 1.245 . S
C355 O340 1.259 . S
Tb356 O359 2.453 . S
Tb356 O360 2.596 . S
Tb356 O361 2.374 . S
Tb356 O369 2.343 . S
Tb356 O371 2.353 . S
Tb356 O373 2.427 . S
Tb356 O374 2.513 . S
C357 O361 1.251 . S
C357 O363 1.263 . S
Tb358 O360 2.343 . S
Tb358 O363 2.353 . S
Tb358 O366 2.427 . S
Tb358 O367 2.513 . S
Tb358 O368 2.453 . S
Tb358 O369 2.596 . S
Tb358 O370 2.374 . S
O359 Tb356 2.453 . S
O359 C375 1.245 . S
O360 Tb356 2.596 . S
O360 Tb358 2.343 . S
O360 C375 1.259 . S
O361 Tb356 2.374 . S
O361 C357 1.251 . S
C362 O366 1.275 . S
C362 O367 1.246 . S
O363 C357 1.263 . S
O363 Tb358 2.353 . S
C364 O368 1.245 . S
C364 O369 1.259 . S
C365 O370 1.250 . S
C365 O371 1.263 . S
O366 Tb358 2.427 . S
O366 C362 1.275 . S
O367 Tb358 2.513 . S
O367 C362 1.246 . S
O368 Tb358 2.453 . S
O368 C364 1.245 . S
O369 Tb356 2.343 . S
O369 Tb358 2.596 . S
O369 C364 1.259 . S
O370 Tb358 2.374 . S
O370 C365 1.250 . S
O371 Tb356 2.353 . S
O371 C365 1.263 . S
C372 O373 1.275 . S
C372 O374 1.246 . S
O373 Tb356 2.427 . S
O373 C372 1.275 . S
O374 Tb356 2.513 . S
O374 C372 1.246 . S
C375 O359 1.245 . S
C375 O360 1.259 . S
Tb376 O379 2.453 . S
Tb376 O380 2.596 . S
Tb376 O381 2.374 . S
Tb376 O389 2.343 . S
Tb376 O391 2.353 . S
Tb376 O393 2.427 . S
Tb376 O394 2.513 . S
C377 O381 1.251 . S
C377 O383 1.263 . S
Tb378 O380 2.343 . S
Tb378 O383 2.353 . S
Tb378 O386 2.427 . S
Tb378 O387 2.513 . S
Tb378 O388 2.453 . S
Tb378 O389 2.596 . S
Tb378 O390 2.374 . S
O379 Tb376 2.453 . S
O379 C395 1.245 . S
O380 Tb376 2.596 . S
O380 Tb378 2.343 . S
O380 C395 1.259 . S
O381 Tb376 2.374 . S
O381 C377 1.251 . S
C382 O386 1.275 . S
C382 O387 1.246 . S
O383 C377 1.263 . S
O383 Tb378 2.353 . S
C384 O388 1.245 . S
C384 O389 1.259 . S
C385 O390 1.250 . S
C385 O391 1.263 . S
O386 Tb378 2.427 . S
O386 C382 1.275 . S
O387 Tb378 2.513 . S
O387 C382 1.246 . S
O388 Tb378 2.453 . S
O388 C384 1.245 . S
O389 Tb376 2.343 . S
O389 Tb378 2.596 . S
O389 C384 1.259 . S
O390 Tb378 2.374 . S
O390 C385 1.250 . S
O391 Tb376 2.353 . S
O391 C385 1.263 . S
C392 O393 1.275 . S
C392 O394 1.246 . S
O393 Tb376 2.427 . S
O393 C392 1.275 . S
O394 Tb376 2.513 . S
O394 C392 1.246 . S
C395 O379 1.245 . S
C395 O380 1.259 . S
Tb396 O399 2.453 . S
Tb396 O400 2.596 . S
Tb396 O401 2.374 . S
Tb396 O409 2.343 . S
Tb396 O411 2.353 . S
Tb396 O413 2.427 . S
Tb396 O414 2.513 . S
C397 O401 1.251 . S
C397 O403 1.263 . S
Tb398 O400 2.343 . S
Tb398 O403 2.353 . S
Tb398 O406 2.427 . S
Tb398 O407 2.513 . S
Tb398 O408 2.453 . S
Tb398 O409 2.596 . S
Tb398 O410 2.374 . S
O399 Tb396 2.453 . S
O399 C415 1.245 . S
O400 Tb396 2.596 . S
O400 Tb398 2.343 . S
O400 C415 1.259 . S
O401 Tb396 2.374 . S
O401 C397 1.251 . S
C402 O406 1.275 . S
C402 O407 1.246 . S
O403 C397 1.263 . S
O403 Tb398 2.353 . S
C404 O408 1.245 . S
C404 O409 1.259 . S
C405 O410 1.250 . S
C405 O411 1.263 . S
O406 Tb398 2.427 . S
O406 C402 1.275 . S
O407 Tb398 2.513 . S
O407 C402 1.246 . S
O408 Tb398 2.453 . S
O408 C404 1.245 . S
O409 Tb396 2.343 . S
O409 Tb398 2.596 . S
O409 C404 1.259 . S
O410 Tb398 2.374 . S
O410 C405 1.250 . S
O411 Tb396 2.353 . S
O411 C405 1.263 . S
C412 O413 1.275 . S
C412 O414 1.246 . S
O413 Tb396 2.427 . S
O413 C412 1.275 . S
O414 Tb396 2.513 . S
O414 C412 1.246 . S
C415 O399 1.245 . S
C415 O400 1.259 . S
Tb416 O419 2.453 . S
Tb416 O420 2.596 . S
Tb416 O421 2.374 . S
Tb416 O429 2.343 . S
Tb416 O431 2.353 . S
Tb416 O433 2.427 . S
Tb416 O434 2.513 . S
C417 O421 1.251 . S
C417 O423 1.263 . S
Tb418 O420 2.343 . S
Tb418 O423 2.353 . S
Tb418 O426 2.427 . S
Tb418 O427 2.513 . S
Tb418 O428 2.453 . S
Tb418 O429 2.596 . S
Tb418 O430 2.374 . S
O419 Tb416 2.453 . S
O419 C435 1.245 . S
O420 Tb416 2.596 . S
O420 Tb418 2.343 . S
O420 C435 1.259 . S
O421 Tb416 2.374 . S
O421 C417 1.251 . S
C422 O426 1.275 . S
C422 O427 1.246 . S
O423 C417 1.263 . S
O423 Tb418 2.353 . S
C424 O428 1.245 . S
C424 O429 1.259 . S
C425 O430 1.250 . S
C425 O431 1.263 . S
O426 Tb418 2.427 . S
O426 C422 1.275 . S
O427 Tb418 2.513 . S
O427 C422 1.246 . S
O428 Tb418 2.453 . S
O428 C424 1.245 . S
O429 Tb416 2.343 . S
O429 Tb418 2.596 . S
O429 C424 1.259 . S
O430 Tb418 2.374 . S
O430 C425 1.250 . S
O431 Tb416 2.353 . S
O431 C425 1.263 . S
C432 O433 1.275 . S
C432 O434 1.246 . S
O433 Tb416 2.427 . S
O433 C432 1.275 . S
O434 Tb416 2.513 . S
O434 C432 1.246 . S
C435 O419 1.245 . S
C435 O420 1.259 . S
H436 C454 0.951 . S
H437 C456 0.951 . S
H438 C458 0.950 . S
H439 C459 0.950 . S
H440 C461 0.950 . S
H441 C464 0.950 . S
H442 C465 0.950 . S
H443 C467 0.950 . S
H444 C468 0.950 . S
H445 C469 0.951 . S
H446 C471 0.951 . S
H447 C473 0.950 . S
H448 C474 0.950 . S
H449 C476 0.950 . S
H450 C479 0.950 . S
H451 C480 0.950 . S
H452 C482 0.950 . S
H453 C483 0.950 . S
C454 H436 0.951 . S
C454 C455 1.366 . S
C454 C456 1.388 . S
C455 C454 1.366 . S
C455 C459 1.385 . S
C456 H437 0.951 . S
C456 C454 1.388 . S
C456 C457 1.366 . S
C457 C456 1.366 . S
C457 C458 1.414 . S
C457 C460 1.499 . S
C458 H438 0.950 . S
C458 C457 1.414 . S
C458 C459 1.374 . S
C459 H439 0.950 . S
C459 C455 1.385 . S
C459 C458 1.374 . S
C460 C457 1.499 . S
C460 C461 1.373 . S
C460 C462 1.389 . S
C461 H440 0.950 . S
C461 C460 1.373 . S
C461 C477 1.377 . S
C462 C460 1.389 . S
C462 C463 1.524 . S
C462 C476 1.377 . S
C463 C462 1.524 . S
C463 C464 1.397 . S
C463 C468 1.363 . S
C464 H441 0.950 . S
C464 C463 1.397 . S
C464 C465 1.334 . S
C465 H442 0.950 . S
C465 C464 1.334 . S
C465 C466 1.287 . S
C466 C465 1.287 . S
C466 C467 1.524 . S
C466 H485 0.913 . S
C467 H443 0.950 . S
C467 C466 1.524 . S
C467 C468 1.415 . S
C468 H444 0.950 . S
C468 C463 1.363 . S
C468 C467 1.415 . S
C469 H445 0.951 . S
C469 C470 1.366 . S
C469 C471 1.388 . S
C470 C469 1.366 . S
C470 C474 1.385 . S
C471 H446 0.951 . S
C471 C469 1.388 . S
C471 C472 1.366 . S
C472 C471 1.366 . S
C472 C473 1.414 . S
C472 C475 1.499 . S
C473 H447 0.950 . S
C473 C472 1.414 . S
C473 C474 1.374 . S
C474 H448 0.950 . S
C474 C470 1.385 . S
C474 C473 1.374 . S
C475 C472 1.499 . S
C475 C476 1.373 . S
C475 C477 1.389 . S
C476 H449 0.950 . S
C476 C462 1.377 . S
C476 C475 1.373 . S
C477 C461 1.377 . S
C477 C475 1.389 . S
C477 C478 1.524 . S
C478 C477 1.524 . S
C478 C479 1.397 . S
C478 C483 1.363 . S
C479 H450 0.950 . S
C479 C478 1.397 . S
C479 C480 1.334 . S
C480 H451 0.950 . S
C480 C479 1.334 . S
C480 C481 1.287 . S
C481 C480 1.287 . S
C481 C482 1.524 . S
C481 H484 0.999 . S
C482 H452 0.950 . S
C482 C481 1.524 . S
C482 C483 1.415 . S
C483 H453 0.950 . S
C483 C478 1.363 . S
C483 C482 1.415 . S
H484 C481 0.999 . S
H485 C466 0.913 . S
H486 C504 0.951 . S
H487 C506 0.951 . S
H488 C508 0.950 . S
H489 C509 0.950 . S
H490 C511 0.950 . S
H491 C514 0.950 . S
H492 C515 0.950 . S
H493 C517 0.950 . S
H494 C518 0.950 . S
H495 C519 0.951 . S
H496 C521 0.951 . S
H497 C523 0.950 . S
H498 C524 0.950 . S
H499 C526 0.950 . S
H500 C529 0.950 . S
H501 C530 0.950 . S
H502 C532 0.950 . S
H503 C533 0.950 . S
C504 H486 0.951 . S
C504 C505 1.366 . S
C504 C506 1.388 . S
C505 C504 1.366 . S
C505 C509 1.385 . S
C506 H487 0.951 . S
C506 C504 1.388 . S
C506 C507 1.366 . S
C507 C506 1.366 . S
C507 C508 1.414 . S
C507 C510 1.499 . S
C508 H488 0.950 . S
C508 C507 1.414 . S
C508 C509 1.374 . S
C509 H489 0.950 . S
C509 C505 1.385 . S
C509 C508 1.374 . S
C510 C507 1.499 . S
C510 C511 1.373 . S
C510 C512 1.389 . S
C511 H490 0.950 . S
C511 C510 1.373 . S
C511 C527 1.377 . S
C512 C510 1.389 . S
C512 C513 1.524 . S
C512 C526 1.377 . S
C513 C512 1.524 . S
C513 C514 1.397 . S
C513 C518 1.363 . S
C514 H491 0.950 . S
C514 C513 1.397 . S
C514 C515 1.334 . S
C515 H492 0.950 . S
C515 C514 1.334 . S
C515 C516 1.287 . S
C516 C515 1.287 . S
C516 C517 1.524 . S
C516 H535 0.913 . S
C517 H493 0.950 . S
C517 C516 1.524 . S
C517 C518 1.415 . S
C518 H494 0.950 . S
C518 C513 1.363 . S
C518 C517 1.415 . S
C519 H495 0.951 . S
C519 C520 1.366 . S
C519 C521 1.388 . S
C520 C519 1.366 . S
C520 C524 1.385 . S
C521 H496 0.951 . S
C521 C519 1.388 . S
C521 C522 1.366 . S
C522 C521 1.366 . S
C522 C523 1.414 . S
C522 C525 1.499 . S
C523 H497 0.950 . S
C523 C522 1.414 . S
C523 C524 1.374 . S
C524 H498 0.950 . S
C524 C520 1.385 . S
C524 C523 1.374 . S
C525 C522 1.499 . S
C525 C526 1.373 . S
C525 C527 1.389 . S
C526 H499 0.950 . S
C526 C512 1.377 . S
C526 C525 1.373 . S
C527 C511 1.377 . S
C527 C525 1.389 . S
C527 C528 1.524 . S
C528 C527 1.524 . S
C528 C529 1.397 . S
C528 C533 1.363 . S
C529 H500 0.950 . S
C529 C528 1.397 . S
C529 C530 1.334 . S
C530 H501 0.950 . S
C530 C529 1.334 . S
C530 C531 1.287 . S
C531 C530 1.287 . S
C531 C532 1.524 . S
C531 H534 0.999 . S
C532 H502 0.950 . S
C532 C531 1.524 . S
C532 C533 1.415 . S
C533 H503 0.950 . S
C533 C528 1.363 . S
C533 C532 1.415 . S
H534 C531 0.999 . S
H535 C516 0.913 . S
H536 C554 0.951 . S
H537 C556 0.951 . S
H538 C558 0.950 . S
H539 C559 0.950 . S
H540 C561 0.950 . S
H541 C564 0.950 . S
H542 C565 0.950 . S
H543 C567 0.950 . S
H544 C568 0.950 . S
H545 C569 0.951 . S
H546 C571 0.951 . S
H547 C573 0.950 . S
H548 C574 0.950 . S
H549 C576 0.950 . S
H550 C579 0.950 . S
H551 C580 0.950 . S
H552 C582 0.950 . S
H553 C583 0.950 . S
C554 H536 0.951 . S
C554 C555 1.366 . S
C554 C556 1.388 . S
C555 C554 1.366 . S
C555 C559 1.385 . S
C556 H537 0.951 . S
C556 C554 1.388 . S
C556 C557 1.366 . S
C557 C556 1.366 . S
C557 C558 1.414 . S
C557 C560 1.499 . S
C558 H538 0.950 . S
C558 C557 1.414 . S
C558 C559 1.374 . S
C559 H539 0.950 . S
C559 C555 1.385 . S
C559 C558 1.374 . S
C560 C557 1.499 . S
C560 C561 1.373 . S
C560 C562 1.389 . S
C561 H540 0.950 . S
C561 C560 1.373 . S
C561 C577 1.377 . S
C562 C560 1.389 . S
C562 C563 1.524 . S
C562 C576 1.377 . S
C563 C562 1.524 . S
C563 C564 1.397 . S
C563 C568 1.363 . S
C564 H541 0.950 . S
C564 C563 1.397 . S
C564 C565 1.334 . S
C565 H542 0.950 . S
C565 C564 1.334 . S
C565 C566 1.287 . S
C566 C565 1.287 . S
C566 C567 1.524 . S
C566 H585 0.913 . S
C567 H543 0.950 . S
C567 C566 1.524 . S
C567 C568 1.415 . S
C568 H544 0.950 . S
C568 C563 1.363 . S
C568 C567 1.415 . S
C569 H545 0.951 . S
C569 C570 1.366 . S
C569 C571 1.388 . S
C570 C569 1.366 . S
C570 C574 1.385 . S
C571 H546 0.951 . S
C571 C569 1.388 . S
C571 C572 1.366 . S
C572 C571 1.366 . S
C572 C573 1.414 . S
C572 C575 1.499 . S
C573 H547 0.950 . S
C573 C572 1.414 . S
C573 C574 1.374 . S
C574 H548 0.950 . S
C574 C570 1.385 . S
C574 C573 1.374 . S
C575 C572 1.499 . S
C575 C576 1.373 . S
C575 C577 1.389 . S
C576 H549 0.950 . S
C576 C562 1.377 . S
C576 C575 1.373 . S
C577 C561 1.377 . S
C577 C575 1.389 . S
C577 C578 1.524 . S
C578 C577 1.524 . S
C578 C579 1.397 . S
C578 C583 1.363 . S
C579 H550 0.950 . S
C579 C578 1.397 . S
C579 C580 1.334 . S
C580 H551 0.950 . S
C580 C579 1.334 . S
C580 C581 1.287 . S
C581 C580 1.287 . S
C581 C582 1.524 . S
C581 H584 0.999 . S
C582 H552 0.950 . S
C582 C581 1.524 . S
C582 C583 1.415 . S
C583 H553 0.950 . S
C583 C578 1.363 . S
C583 C582 1.415 . S
H584 C581 0.999 . S
H585 C566 0.913 . S
H586 C604 0.951 . S
H587 C606 0.951 . S
H588 C608 0.950 . S
H589 C609 0.950 . S
H590 C611 0.950 . S
H591 C614 0.950 . S
H592 C615 0.950 . S
H593 C617 0.950 . S
H594 C618 0.950 . S
H595 C619 0.951 . S
H596 C621 0.951 . S
H597 C623 0.950 . S
H598 C624 0.950 . S
H599 C626 0.950 . S
H600 C629 0.950 . S
H601 C630 0.950 . S
H602 C632 0.950 . S
H603 C633 0.950 . S
C604 H586 0.951 . S
C604 C605 1.366 . S
C604 C606 1.388 . S
C605 C604 1.366 . S
C605 C609 1.385 . S
C606 H587 0.951 . S
C606 C604 1.388 . S
C606 C607 1.366 . S
C607 C606 1.366 . S
C607 C608 1.414 . S
C607 C610 1.499 . S
C608 H588 0.950 . S
C608 C607 1.414 . S
C608 C609 1.374 . S
C609 H589 0.950 . S
C609 C605 1.385 . S
C609 C608 1.374 . S
C610 C607 1.499 . S
C610 C611 1.373 . S
C610 C612 1.389 . S
C611 H590 0.950 . S
C611 C610 1.373 . S
C611 C627 1.377 . S
C612 C610 1.389 . S
C612 C613 1.524 . S
C612 C626 1.377 . S
C613 C612 1.524 . S
C613 C614 1.397 . S
C613 C618 1.363 . S
C614 H591 0.950 . S
C614 C613 1.397 . S
C614 C615 1.334 . S
C615 H592 0.950 . S
C615 C614 1.334 . S
C615 C616 1.287 . S
C616 C615 1.287 . S
C616 C617 1.524 . S
C616 H635 0.913 1_565 S
C617 H593 0.950 . S
C617 C616 1.524 . S
C617 C618 1.415 . S
C618 H594 0.950 . S
C618 C613 1.363 . S
C618 C617 1.415 . S
C619 H595 0.951 . S
C619 C620 1.366 . S
C619 C621 1.388 . S
C620 C619 1.366 . S
C620 C624 1.385 . S
C621 H596 0.951 . S
C621 C619 1.388 . S
C621 C622 1.366 . S
C622 C621 1.366 . S
C622 C623 1.414 . S
C622 C625 1.499 . S
C623 H597 0.950 . S
C623 C622 1.414 . S
C623 C624 1.374 . S
C624 H598 0.950 . S
C624 C620 1.385 . S
C624 C623 1.374 . S
C625 C622 1.499 . S
C625 C626 1.373 . S
C625 C627 1.389 . S
C626 H599 0.950 . S
C626 C612 1.377 . S
C626 C625 1.373 . S
C627 C611 1.377 . S
C627 C625 1.389 . S
C627 C628 1.524 . S
C628 C627 1.524 . S
C628 C629 1.397 . S
C628 C633 1.363 . S
C629 H600 0.950 . S
C629 C628 1.397 . S
C629 C630 1.334 . S
C630 H601 0.950 . S
C630 C629 1.334 . S
C630 C631 1.287 . S
C631 C630 1.287 . S
C631 C632 1.524 . S
C631 H634 0.999 . S
C632 H602 0.950 . S
C632 C631 1.524 . S
C632 C633 1.415 . S
C633 H603 0.950 . S
C633 C628 1.363 . S
C633 C632 1.415 . S
H634 C631 0.999 . S
H635 C616 0.913 1_545 S
H636 C654 0.951 . S
H637 C656 0.951 . S
H638 C658 0.950 . S
H639 C659 0.950 . S
H640 C661 0.950 . S
H641 C664 0.950 . S
H642 C665 0.950 . S
H643 C667 0.950 . S
H644 C668 0.950 . S
H645 C669 0.951 . S
H646 C671 0.951 . S
H647 C673 0.950 . S
H648 C674 0.950 . S
H649 C676 0.950 . S
H650 C679 0.950 . S
H651 C680 0.950 . S
H652 C682 0.950 . S
H653 C683 0.950 . S
C654 H636 0.951 . S
C654 C655 1.366 . S
C654 C656 1.388 . S
C655 C654 1.366 . S
C655 C659 1.385 . S
C656 H637 0.951 . S
C656 C654 1.388 . S
C656 C657 1.366 . S
C657 C656 1.366 . S
C657 C658 1.414 . S
C657 C660 1.499 . S
C658 H638 0.950 . S
C658 C657 1.414 . S
C658 C659 1.374 . S
C659 H639 0.950 . S
C659 C655 1.385 . S
C659 C658 1.374 . S
C660 C657 1.499 . S
C660 C661 1.373 . S
C660 C662 1.389 . S
C661 H640 0.950 . S
C661 C660 1.373 . S
C661 C677 1.377 . S
C662 C660 1.389 . S
C662 C663 1.524 . S
C662 C676 1.377 . S
C663 C662 1.524 . S
C663 C664 1.397 . S
C663 C668 1.363 . S
C664 H641 0.950 . S
C664 C663 1.397 . S
C664 C665 1.334 . S
C665 H642 0.950 . S
C665 C664 1.334 . S
C665 C666 1.287 . S
C666 C665 1.287 . S
C666 C667 1.524 . S
C666 H685 0.913 . S
C667 H643 0.950 . S
C667 C666 1.524 . S
C667 C668 1.415 . S
C668 H644 0.950 . S
C668 C663 1.363 . S
C668 C667 1.415 . S
C669 H645 0.951 . S
C669 C670 1.366 . S
C669 C671 1.388 . S
C670 C669 1.366 . S
C670 C674 1.385 . S
C671 H646 0.951 . S
C671 C669 1.388 . S
C671 C672 1.366 . S
C672 C671 1.366 . S
C672 C673 1.414 . S
C672 C675 1.499 . S
C673 H647 0.950 . S
C673 C672 1.414 . S
C673 C674 1.374 . S
C674 H648 0.950 . S
C674 C670 1.385 . S
C674 C673 1.374 . S
C675 C672 1.499 . S
C675 C676 1.373 . S
C675 C677 1.389 . S
C676 H649 0.950 . S
C676 C662 1.377 . S
C676 C675 1.373 . S
C677 C661 1.377 . S
C677 C675 1.389 . S
C677 C678 1.524 . S
C678 C677 1.524 . S
C678 C679 1.397 . S
C678 C683 1.363 . S
C679 H650 0.950 . S
C679 C678 1.397 . S
C679 C680 1.334 . S
C680 H651 0.950 . S
C680 C679 1.334 . S
C680 C681 1.287 . S
C681 C680 1.287 . S
C681 C682 1.524 . S
C681 H684 0.999 . S
C682 H652 0.950 . S
C682 C681 1.524 . S
C682 C683 1.415 . S
C683 H653 0.950 . S
C683 C678 1.363 . S
C683 C682 1.415 . S
H684 C681 0.999 . S
H685 C666 0.913 . S
H686 C704 0.951 . S
H687 C706 0.951 . S
H688 C708 0.950 . S
H689 C709 0.950 . S
H690 C711 0.950 . S
H691 C714 0.950 . S
H692 C715 0.950 . S
H693 C717 0.950 . S
H694 C718 0.950 . S
H695 C719 0.951 . S
H696 C721 0.951 . S
H697 C723 0.950 . S
H698 C724 0.950 . S
H699 C726 0.950 . S
H700 C729 0.950 . S
H701 C730 0.950 . S
H702 C732 0.950 . S
H703 C733 0.950 . S
C704 H686 0.951 . S
C704 C705 1.366 . S
C704 C706 1.388 . S
C705 C704 1.366 . S
C705 C709 1.385 . S
C706 H687 0.951 . S
C706 C704 1.388 . S
C706 C707 1.366 . S
C707 C706 1.366 . S
C707 C708 1.414 . S
C707 C710 1.499 . S
C708 H688 0.950 . S
C708 C707 1.414 . S
C708 C709 1.374 . S
C709 H689 0.950 . S
C709 C705 1.385 . S
C709 C708 1.374 . S
C710 C707 1.499 . S
C710 C711 1.373 . S
C710 C712 1.389 . S
C711 H690 0.950 . S
C711 C710 1.373 . S
C711 C727 1.377 . S
C712 C710 1.389 . S
C712 C713 1.524 . S
C712 C726 1.377 . S
C713 C712 1.524 . S
C713 C714 1.397 . S
C713 C718 1.363 . S
C714 H691 0.950 . S
C714 C713 1.397 . S
C714 C715 1.334 . S
C715 H692 0.950 . S
C715 C714 1.334 . S
C715 C716 1.287 . S
C716 C715 1.287 . S
C716 C717 1.524 . S
C716 H735 0.913 . S
C717 H693 0.950 . S
C717 C716 1.524 . S
C717 C718 1.415 . S
C718 H694 0.950 . S
C718 C713 1.363 . S
C718 C717 1.415 . S
C719 H695 0.951 . S
C719 C720 1.366 . S
C719 C721 1.388 . S
C720 C719 1.366 . S
C720 C724 1.385 . S
C721 H696 0.951 . S
C721 C719 1.388 . S
C721 C722 1.366 . S
C722 C721 1.366 . S
C722 C723 1.414 . S
C722 C725 1.499 . S
C723 H697 0.950 . S
C723 C722 1.414 . S
C723 C724 1.374 . S
C724 H698 0.950 . S
C724 C720 1.385 . S
C724 C723 1.374 . S
C725 C722 1.499 . S
C725 C726 1.373 . S
C725 C727 1.389 . S
C726 H699 0.950 . S
C726 C712 1.377 . S
C726 C725 1.373 . S
C727 C711 1.377 . S
C727 C725 1.389 . S
C727 C728 1.524 . S
C728 C727 1.524 . S
C728 C729 1.397 . S
C728 C733 1.363 . S
C729 H700 0.950 . S
C729 C728 1.397 . S
C729 C730 1.334 . S
C730 H701 0.950 . S
C730 C729 1.334 . S
C730 C731 1.287 . S
C731 C730 1.287 . S
C731 C732 1.524 . S
C731 H734 0.999 . S
C732 H702 0.950 . S
C732 C731 1.524 . S
C732 C733 1.415 . S
C733 H703 0.950 . S
C733 C728 1.363 . S
C733 C732 1.415 . S
H734 C731 0.999 . S
H735 C716 0.913 . S
H736 C754 0.951 . S
H737 C756 0.951 . S
H738 C758 0.950 . S
H739 C759 0.950 . S
H740 C761 0.950 . S
H741 C764 0.950 . S
H742 C765 0.950 . S
H743 C767 0.950 . S
H744 C768 0.950 . S
H745 C769 0.951 . S
H746 C771 0.951 . S
H747 C773 0.950 . S
H748 C774 0.950 . S
H749 C776 0.950 . S
H750 C779 0.950 . S
H751 C780 0.950 . S
H752 C782 0.950 . S
H753 C783 0.950 . S
C754 H736 0.951 . S
C754 C755 1.366 . S
C754 C756 1.388 . S
C755 C754 1.366 . S
C755 C759 1.385 . S
C756 H737 0.951 . S
C756 C754 1.388 . S
C756 C757 1.366 . S
C757 C756 1.366 . S
C757 C758 1.414 . S
C757 C760 1.499 . S
C758 H738 0.950 . S
C758 C757 1.414 . S
C758 C759 1.374 . S
C759 H739 0.950 . S
C759 C755 1.385 . S
C759 C758 1.374 . S
C760 C757 1.499 . S
C760 C761 1.373 . S
C760 C762 1.389 . S
C761 H740 0.950 . S
C761 C760 1.373 . S
C761 C777 1.377 . S
C762 C760 1.389 . S
C762 C763 1.524 . S
C762 C776 1.377 . S
C763 C762 1.524 . S
C763 C764 1.397 . S
C763 C768 1.363 . S
C764 H741 0.950 . S
C764 C763 1.397 . S
C764 C765 1.334 . S
C765 H742 0.950 . S
C765 C764 1.334 . S
C765 C766 1.287 . S
C766 C765 1.287 . S
C766 C767 1.524 . S
C766 H785 0.913 . S
C767 H743 0.950 . S
C767 C766 1.524 . S
C767 C768 1.415 . S
C768 H744 0.950 . S
C768 C763 1.363 . S
C768 C767 1.415 . S
C769 H745 0.951 . S
C769 C770 1.366 . S
C769 C771 1.388 . S
C770 C769 1.366 . S
C770 C774 1.385 . S
C771 H746 0.951 . S
C771 C769 1.388 . S
C771 C772 1.366 . S
C772 C771 1.366 . S
C772 C773 1.414 . S
C772 C775 1.499 . S
C773 H747 0.950 . S
C773 C772 1.414 . S
C773 C774 1.374 . S
C774 H748 0.950 . S
C774 C770 1.385 . S
C774 C773 1.374 . S
C775 C772 1.499 . S
C775 C776 1.373 . S
C775 C777 1.389 . S
C776 H749 0.950 . S
C776 C762 1.377 . S
C776 C775 1.373 . S
C777 C761 1.377 . S
C777 C775 1.389 . S
C777 C778 1.524 . S
C778 C777 1.524 . S
C778 C779 1.397 . S
C778 C783 1.363 . S
C779 H750 0.950 . S
C779 C778 1.397 . S
C779 C780 1.334 . S
C780 H751 0.950 . S
C780 C779 1.334 . S
C780 C781 1.287 . S
C781 C780 1.287 . S
C781 C782 1.524 . S
C781 H784 0.999 . S
C782 H752 0.950 . S
C782 C781 1.524 . S
C782 C783 1.415 . S
C783 H753 0.950 . S
C783 C778 1.363 . S
C783 C782 1.415 . S
H784 C781 0.999 . S
H785 C766 0.913 . S
H786 C804 0.951 . S
H787 C806 0.951 . S
H788 C808 0.950 . S
H789 C809 0.950 . S
H790 C811 0.950 . S
H791 C814 0.950 . S
H792 C815 0.950 . S
H793 C817 0.950 . S
H794 C818 0.950 . S
H795 C819 0.951 . S
H796 C821 0.951 . S
H797 C823 0.950 . S
H798 C824 0.950 . S
H799 C826 0.950 . S
H800 C829 0.950 . S
H801 C830 0.950 . S
H802 C832 0.950 . S
H803 C833 0.950 . S
C804 H786 0.951 . S
C804 C805 1.366 . S
C804 C806 1.388 . S
C805 C804 1.366 . S
C805 C809 1.385 . S
C806 H787 0.951 . S
C806 C804 1.388 . S
C806 C807 1.366 . S
C807 C806 1.366 . S
C807 C808 1.414 . S
C807 C810 1.499 . S
C808 H788 0.950 . S
C808 C807 1.414 . S
C808 C809 1.374 . S
C809 H789 0.950 . S
C809 C805 1.385 . S
C809 C808 1.374 . S
C810 C807 1.499 . S
C810 C811 1.373 . S
C810 C812 1.389 . S
C811 H790 0.950 . S
C811 C810 1.373 . S
C811 C827 1.377 . S
C812 C810 1.389 . S
C812 C813 1.524 . S
C812 C826 1.377 . S
C813 C812 1.524 . S
C813 C814 1.397 . S
C813 C818 1.363 . S
C814 H791 0.950 . S
C814 C813 1.397 . S
C814 C815 1.334 . S
C815 H792 0.950 . S
C815 C814 1.334 . S
C815 C816 1.287 . S
C816 C815 1.287 . S
C816 C817 1.524 . S
C816 H835 0.913 . S
C817 H793 0.950 . S
C817 C816 1.524 . S
C817 C818 1.415 . S
C818 H794 0.950 . S
C818 C813 1.363 . S
C818 C817 1.415 . S
C819 H795 0.951 . S
C819 C820 1.366 . S
C819 C821 1.388 . S
C820 C819 1.366 . S
C820 C824 1.385 . S
C821 H796 0.951 . S
C821 C819 1.388 . S
C821 C822 1.366 . S
C822 C821 1.366 . S
C822 C823 1.414 . S
C822 C825 1.499 . S
C823 H797 0.950 . S
C823 C822 1.414 . S
C823 C824 1.374 . S
C824 H798 0.950 . S
C824 C820 1.385 . S
C824 C823 1.374 . S
C825 C822 1.499 . S
C825 C826 1.373 . S
C825 C827 1.389 . S
C826 H799 0.950 . S
C826 C812 1.377 . S
C826 C825 1.373 . S
C827 C811 1.377 . S
C827 C825 1.389 . S
C827 C828 1.524 . S
C828 C827 1.524 . S
C828 C829 1.397 . S
C828 C833 1.363 . S
C829 H800 0.950 . S
C829 C828 1.397 . S
C829 C830 1.334 . S
C830 H801 0.950 . S
C830 C829 1.334 . S
C830 C831 1.287 . S
C831 C830 1.287 . S
C831 C832 1.524 . S
C831 H834 0.999 . S
C832 H802 0.950 . S
C832 C831 1.524 . S
C832 C833 1.415 . S
C833 H803 0.950 . S
C833 C828 1.363 . S
C833 C832 1.415 . S
H834 C831 0.999 . S
H835 C816 0.913 . S
H836 C854 0.951 . S
H837 C856 0.951 . S
H838 C858 0.950 . S
H839 C859 0.950 . S
H840 C861 0.950 . S
H841 C864 0.950 . S
H842 C865 0.950 . S
H843 C867 0.950 . S
H844 C868 0.950 . S
H845 C869 0.951 . S
H846 C871 0.951 . S
H847 C873 0.950 . S
H848 C874 0.950 . S
H849 C876 0.950 . S
H850 C879 0.950 . S
H851 C880 0.950 . S
H852 C882 0.950 . S
H853 C883 0.950 . S
C854 H836 0.951 . S
C854 C855 1.366 . S
C854 C856 1.388 . S
C855 C854 1.366 . S
C855 C859 1.385 . S
C856 H837 0.951 . S
C856 C854 1.388 . S
C856 C857 1.366 . S
C857 C856 1.366 . S
C857 C858 1.414 . S
C857 C860 1.499 . S
C858 H838 0.950 . S
C858 C857 1.414 . S
C858 C859 1.374 . S
C859 H839 0.950 . S
C859 C855 1.385 . S
C859 C858 1.374 . S
C860 C857 1.499 . S
C860 C861 1.373 . S
C860 C862 1.389 . S
C861 H840 0.950 . S
C861 C860 1.373 . S
C861 C877 1.377 . S
C862 C860 1.389 . S
C862 C863 1.524 . S
C862 C876 1.377 . S
C863 C862 1.524 . S
C863 C864 1.397 . S
C863 C868 1.363 . S
C864 H841 0.950 . S
C864 C863 1.397 . S
C864 C865 1.334 . S
C865 H842 0.950 . S
C865 C864 1.334 . S
C865 C866 1.287 . S
C866 C865 1.287 . S
C866 C867 1.524 . S
C866 H885 0.913 . S
C867 H843 0.950 . S
C867 C866 1.524 . S
C867 C868 1.415 . S
C868 H844 0.950 . S
C868 C863 1.363 . S
C868 C867 1.415 . S
C869 H845 0.951 . S
C869 C870 1.366 . S
C869 C871 1.388 . S
C870 C869 1.366 . S
C870 C874 1.385 . S
C871 H846 0.951 . S
C871 C869 1.388 . S
C871 C872 1.366 . S
C872 C871 1.366 . S
C872 C873 1.414 . S
C872 C875 1.499 . S
C873 H847 0.950 . S
C873 C872 1.414 . S
C873 C874 1.374 . S
C874 H848 0.950 . S
C874 C870 1.385 . S
C874 C873 1.374 . S
C875 C872 1.499 . S
C875 C876 1.373 . S
C875 C877 1.389 . S
C876 H849 0.950 . S
C876 C862 1.377 . S
C876 C875 1.373 . S
C877 C861 1.377 . S
C877 C875 1.389 . S
C877 C878 1.524 . S
C878 C877 1.524 . S
C878 C879 1.397 . S
C878 C883 1.363 . S
C879 H850 0.950 . S
C879 C878 1.397 . S
C879 C880 1.334 . S
C880 H851 0.950 . S
C880 C879 1.334 . S
C880 C881 1.287 . S
C881 C880 1.287 . S
C881 C882 1.524 . S
C881 H884 0.999 . S
C882 H852 0.950 . S
C882 C881 1.524 . S
C882 C883 1.415 . S
C883 H853 0.950 . S
C883 C878 1.363 . S
C883 C882 1.415 . S
H884 C881 0.999 . S
H885 C866 0.913 . S
H886 C904 0.951 . S
H887 C906 0.951 . S
H888 C908 0.950 . S
H889 C909 0.950 . S
H890 C911 0.950 . S
H891 C914 0.950 . S
H892 C915 0.950 . S
H893 C917 0.950 . S
H894 C918 0.950 . S
H895 C919 0.951 . S
H896 C921 0.951 . S
H897 C923 0.950 . S
H898 C924 0.950 . S
H899 C926 0.950 . S
H900 C929 0.950 . S
H901 C930 0.950 . S
H902 C932 0.950 . S
H903 C933 0.950 . S
C904 H886 0.951 . S
C904 C905 1.366 . S
C904 C906 1.388 . S
C905 C904 1.366 . S
C905 C909 1.385 . S
C906 H887 0.951 . S
C906 C904 1.388 . S
C906 C907 1.366 . S
C907 C906 1.366 . S
C907 C908 1.414 . S
C907 C910 1.499 . S
C908 H888 0.950 . S
C908 C907 1.414 . S
C908 C909 1.374 . S
C909 H889 0.950 . S
C909 C905 1.385 . S
C909 C908 1.374 . S
C910 C907 1.499 . S
C910 C911 1.373 . S
C910 C912 1.389 . S
C911 H890 0.950 . S
C911 C910 1.373 . S
C911 C927 1.377 . S
C912 C910 1.389 . S
C912 C913 1.524 . S
C912 C926 1.377 . S
C913 C912 1.524 . S
C913 C914 1.397 . S
C913 C918 1.363 . S
C914 H891 0.950 . S
C914 C913 1.397 . S
C914 C915 1.334 . S
C915 H892 0.950 . S
C915 C914 1.334 . S
C915 C916 1.287 . S
C916 C915 1.287 . S
C916 C917 1.524 . S
C916 H935 0.913 . S
C917 H893 0.950 . S
C917 C916 1.524 . S
C917 C918 1.415 . S
C918 H894 0.950 . S
C918 C913 1.363 . S
C918 C917 1.415 . S
C919 H895 0.951 . S
C919 C920 1.366 . S
C919 C921 1.388 . S
C920 C919 1.366 . S
C920 C924 1.385 . S
C921 H896 0.951 . S
C921 C919 1.388 . S
C921 C922 1.366 . S
C922 C921 1.366 . S
C922 C923 1.414 . S
C922 C925 1.499 . S
C923 H897 0.950 . S
C923 C922 1.414 . S
C923 C924 1.374 . S
C924 H898 0.950 . S
C924 C920 1.385 . S
C924 C923 1.374 . S
C925 C922 1.499 . S
C925 C926 1.373 . S
C925 C927 1.389 . S
C926 H899 0.950 . S
C926 C912 1.377 . S
C926 C925 1.373 . S
C927 C911 1.377 . S
C927 C925 1.389 . S
C927 C928 1.524 . S
C928 C927 1.524 . S
C928 C929 1.397 . S
C928 C933 1.363 . S
C929 H900 0.950 . S
C929 C928 1.397 . S
C929 C930 1.334 . S
C930 H901 0.950 . S
C930 C929 1.334 . S
C930 C931 1.287 . S
C931 C930 1.287 . S
C931 C932 1.524 . S
C931 H934 0.999 . S
C932 H902 0.950 . S
C932 C931 1.524 . S
C932 C933 1.415 . S
C933 H903 0.950 . S
C933 C928 1.363 . S
C933 C932 1.415 . S
H934 C931 0.999 . S
H935 C916 0.913 . S
H936 C954 0.951 . S
H937 C956 0.951 . S
H938 C958 0.950 . S
H939 C959 0.950 . S
H940 C961 0.950 . S
H941 C964 0.950 . S
H942 C965 0.950 . S
H943 C967 0.950 . S
H944 C968 0.950 . S
H945 C969 0.951 . S
H946 C971 0.951 . S
H947 C973 0.950 . S
H948 C974 0.950 . S
H949 C976 0.950 . S
H950 C979 0.950 . S
H951 C980 0.950 . S
H952 C982 0.950 . S
H953 C983 0.950 . S
C954 H936 0.951 . S
C954 C955 1.366 . S
C954 C956 1.388 . S
C955 C954 1.366 . S
C955 C959 1.385 . S
C956 H937 0.951 . S
C956 C954 1.388 . S
C956 C957 1.366 . S
C957 C956 1.366 . S
C957 C958 1.414 . S
C957 C960 1.499 . S
C958 H938 0.950 . S
C958 C957 1.414 . S
C958 C959 1.374 . S
C959 H939 0.950 . S
C959 C955 1.385 . S
C959 C958 1.374 . S
C960 C957 1.499 . S
C960 C961 1.373 . S
C960 C962 1.389 . S
C961 H940 0.950 . S
C961 C960 1.373 . S
C961 C977 1.377 . S
C962 C960 1.389 . S
C962 C963 1.524 . S
C962 C976 1.377 . S
C963 C962 1.524 . S
C963 C964 1.397 . S
C963 C968 1.363 . S
C964 H941 0.950 . S
C964 C963 1.397 . S
C964 C965 1.334 . S
C965 H942 0.950 . S
C965 C964 1.334 . S
C965 C966 1.287 . S
C966 C965 1.287 . S
C966 C967 1.524 . S
C966 H985 0.913 . S
C967 H943 0.950 . S
C967 C966 1.524 . S
C967 C968 1.415 . S
C968 H944 0.950 . S
C968 C963 1.363 . S
C968 C967 1.415 . S
C969 H945 0.951 . S
C969 C970 1.366 . S
C969 C971 1.388 . S
C970 C969 1.366 . S
C970 C974 1.385 . S
C971 H946 0.951 . S
C971 C969 1.388 . S
C971 C972 1.366 . S
C972 C971 1.366 . S
C972 C973 1.414 . S
C972 C975 1.499 . S
C973 H947 0.950 . S
C973 C972 1.414 . S
C973 C974 1.374 . S
C974 H948 0.950 . S
C974 C970 1.385 . S
C974 C973 1.374 . S
C975 C972 1.499 . S
C975 C976 1.373 . S
C975 C977 1.389 . S
C976 H949 0.950 . S
C976 C962 1.377 . S
C976 C975 1.373 . S
C977 C961 1.377 . S
C977 C975 1.389 . S
C977 C978 1.524 . S
C978 C977 1.524 . S
C978 C979 1.397 . S
C978 C983 1.363 . S
C979 H950 0.950 . S
C979 C978 1.397 . S
C979 C980 1.334 . S
C980 H951 0.950 . S
C980 C979 1.334 . S
C980 C981 1.287 . S
C981 C980 1.287 . S
C981 C982 1.524 . S
C981 H984 0.999 . S
C982 H952 0.950 . S
C982 C981 1.524 . S
C982 C983 1.415 . S
C983 H953 0.950 . S
C983 C978 1.363 . S
C983 C982 1.415 . S
H984 C981 0.999 . S
H985 C966 0.913 . S
H986 C1004 0.951 . S
H987 C1006 0.951 . S
H988 C1008 0.950 . S
H989 C1009 0.950 . S
H990 C1011 0.950 . S
H991 C1014 0.950 . S
H992 C1015 0.950 . S
H993 C1017 0.950 . S
H994 C1018 0.950 . S
H995 C1019 0.951 . S
H996 C1021 0.951 . S
H997 C1023 0.950 . S
H998 C1024 0.950 . S
H999 C1026 0.950 . S
H1000 C1029 0.950 . S
H1001 C1030 0.950 . S
H1002 C1032 0.950 . S
H1003 C1033 0.950 . S
C1004 H986 0.951 . S
C1004 C1005 1.366 . S
C1004 C1006 1.388 . S
C1005 C1004 1.366 . S
C1005 C1009 1.385 . S
C1006 H987 0.951 . S
C1006 C1004 1.388 . S
C1006 C1007 1.366 . S
C1007 C1006 1.366 . S
C1007 C1008 1.414 . S
C1007 C1010 1.499 . S
C1008 H988 0.950 . S
C1008 C1007 1.414 . S
C1008 C1009 1.374 . S
C1009 H989 0.950 . S
C1009 C1005 1.385 . S
C1009 C1008 1.374 . S
C1010 C1007 1.499 . S
C1010 C1011 1.373 . S
C1010 C1012 1.389 . S
C1011 H990 0.950 . S
C1011 C1010 1.373 . S
C1011 C1027 1.377 . S
C1012 C1010 1.389 . S
C1012 C1013 1.524 . S
C1012 C1026 1.377 . S
C1013 C1012 1.524 . S
C1013 C1014 1.397 . S
C1013 C1018 1.363 . S
C1014 H991 0.950 . S
C1014 C1013 1.397 . S
C1014 C1015 1.334 . S
C1015 H992 0.950 . S
C1015 C1014 1.334 . S
C1015 C1016 1.287 . S
C1016 C1015 1.287 . S
C1016 C1017 1.524 . S
C1016 H1035 0.913 . S
C1017 H993 0.950 . S
C1017 C1016 1.524 . S
C1017 C1018 1.415 . S
C1018 H994 0.950 . S
C1018 C1013 1.363 . S
C1018 C1017 1.415 . S
C1019 H995 0.951 . S
C1019 C1020 1.366 . S
C1019 C1021 1.388 . S
C1020 C1019 1.366 . S
C1020 C1024 1.385 . S
C1021 H996 0.951 . S
C1021 C1019 1.388 . S
C1021 C1022 1.366 . S
C1022 C1021 1.366 . S
C1022 C1023 1.414 . S
C1022 C1025 1.499 . S
C1023 H997 0.950 . S
C1023 C1022 1.414 . S
C1023 C1024 1.374 . S
C1024 H998 0.950 . S
C1024 C1020 1.385 . S
C1024 C1023 1.374 . S
C1025 C1022 1.499 . S
C1025 C1026 1.373 . S
C1025 C1027 1.389 . S
C1026 H999 0.950 . S
C1026 C1012 1.377 . S
C1026 C1025 1.373 . S
C1027 C1011 1.377 . S
C1027 C1025 1.389 . S
C1027 C1028 1.524 . S
C1028 C1027 1.524 . S
C1028 C1029 1.397 . S
C1028 C1033 1.363 . S
C1029 H1000 0.950 . S
C1029 C1028 1.397 . S
C1029 C1030 1.334 . S
C1030 H1001 0.950 . S
C1030 C1029 1.334 . S
C1030 C1031 1.287 . S
C1031 C1030 1.287 . S
C1031 C1032 1.524 . S
C1031 H1034 0.999 . S
C1032 H1002 0.950 . S
C1032 C1031 1.524 . S
C1032 C1033 1.415 . S
C1033 H1003 0.950 . S
C1033 C1028 1.363 . S
C1033 C1032 1.415 . S
H1034 C1031 0.999 . S
H1035 C1016 0.913 . S
H1036 C1054 0.951 . S
H1037 C1056 0.951 . S
H1038 C1058 0.950 . S
H1039 C1059 0.950 . S
H1040 C1061 0.950 . S
H1041 C1064 0.950 . S
H1042 C1065 0.950 . S
H1043 C1067 0.950 . S
H1044 C1068 0.950 . S
H1045 C1069 0.951 . S
H1046 C1071 0.951 . S
H1047 C1073 0.950 . S
H1048 C1074 0.950 . S
H1049 C1076 0.950 . S
H1050 C1079 0.950 . S
H1051 C1080 0.950 . S
H1052 C1082 0.950 . S
H1053 C1083 0.950 . S
C1054 H1036 0.951 . S
C1054 C1055 1.366 . S
C1054 C1056 1.388 . S
C1055 C1054 1.366 . S
C1055 C1059 1.385 . S
C1056 H1037 0.951 . S
C1056 C1054 1.388 . S
C1056 C1057 1.366 . S
C1057 C1056 1.366 . S
C1057 C1058 1.414 . S
C1057 C1060 1.499 . S
C1058 H1038 0.950 . S
C1058 C1057 1.414 . S
C1058 C1059 1.374 . S
C1059 H1039 0.950 . S
C1059 C1055 1.385 . S
C1059 C1058 1.374 . S
C1060 C1057 1.499 . S
C1060 C1061 1.373 . S
C1060 C1062 1.389 . S
C1061 H1040 0.950 . S
C1061 C1060 1.373 . S
C1061 C1077 1.377 . S
C1062 C1060 1.389 . S
C1062 C1063 1.524 . S
C1062 C1076 1.377 . S
C1063 C1062 1.524 . S
C1063 C1064 1.397 . S
C1063 C1068 1.363 . S
C1064 H1041 0.950 . S
C1064 C1063 1.397 . S
C1064 C1065 1.334 . S
C1065 H1042 0.950 . S
C1065 C1064 1.334 . S
C1065 C1066 1.287 . S
C1066 C1065 1.287 . S
C1066 C1067 1.524 . S
C1066 H1085 0.913 . S
C1067 H1043 0.950 . S
C1067 C1066 1.524 . S
C1067 C1068 1.415 . S
C1068 H1044 0.950 . S
C1068 C1063 1.363 . S
C1068 C1067 1.415 . S
C1069 H1045 0.951 . S
C1069 C1070 1.366 . S
C1069 C1071 1.388 . S
C1070 C1069 1.366 . S
C1070 C1074 1.385 . S
C1071 H1046 0.951 . S
C1071 C1069 1.388 . S
C1071 C1072 1.366 . S
C1072 C1071 1.366 . S
C1072 C1073 1.414 . S
C1072 C1075 1.499 . S
C1073 H1047 0.950 . S
C1073 C1072 1.414 . S
C1073 C1074 1.374 . S
C1074 H1048 0.950 . S
C1074 C1070 1.385 . S
C1074 C1073 1.374 . S
C1075 C1072 1.499 . S
C1075 C1076 1.373 . S
C1075 C1077 1.389 . S
C1076 H1049 0.950 . S
C1076 C1062 1.377 . S
C1076 C1075 1.373 . S
C1077 C1061 1.377 . S
C1077 C1075 1.389 . S
C1077 C1078 1.524 . S
C1078 C1077 1.524 . S
C1078 C1079 1.397 . S
C1078 C1083 1.363 . S
C1079 H1050 0.950 . S
C1079 C1078 1.397 . S
C1079 C1080 1.334 . S
C1080 H1051 0.950 . S
C1080 C1079 1.334 . S
C1080 C1081 1.287 . S
C1081 C1080 1.287 . S
C1081 C1082 1.524 . S
C1081 H1084 0.999 . S
C1082 H1052 0.950 . S
C1082 C1081 1.524 . S
C1082 C1083 1.415 . S
C1083 H1053 0.950 . S
C1083 C1078 1.363 . S
C1083 C1082 1.415 . S
H1084 C1081 0.999 . S
H1085 C1066 0.913 . S
H1086 C1104 0.951 . S
H1087 C1106 0.951 . S
H1088 C1108 0.950 . S
H1089 C1109 0.950 . S
H1090 C1111 0.950 . S
H1091 C1114 0.950 . S
H1092 C1115 0.950 . S
H1093 C1117 0.950 . S
H1094 C1118 0.950 . S
H1095 C1119 0.951 . S
H1096 C1121 0.951 . S
H1097 C1123 0.950 . S
H1098 C1124 0.950 . S
H1099 C1126 0.950 . S
H1100 C1129 0.950 . S
H1101 C1130 0.950 . S
H1102 C1132 0.950 . S
H1103 C1133 0.950 . S
C1104 H1086 0.951 . S
C1104 C1105 1.366 . S
C1104 C1106 1.388 . S
C1105 C1104 1.366 . S
C1105 C1109 1.385 . S
C1106 H1087 0.951 . S
C1106 C1104 1.388 . S
C1106 C1107 1.366 . S
C1107 C1106 1.366 . S
C1107 C1108 1.414 . S
C1107 C1110 1.499 . S
C1108 H1088 0.950 . S
C1108 C1107 1.414 . S
C1108 C1109 1.374 . S
C1109 H1089 0.950 . S
C1109 C1105 1.385 . S
C1109 C1108 1.374 . S
C1110 C1107 1.499 . S
C1110 C1111 1.373 . S
C1110 C1112 1.389 . S
C1111 H1090 0.950 . S
C1111 C1110 1.373 . S
C1111 C1127 1.377 . S
C1112 C1110 1.389 . S
C1112 C1113 1.524 . S
C1112 C1126 1.377 . S
C1113 C1112 1.524 . S
C1113 C1114 1.397 . S
C1113 C1118 1.363 . S
C1114 H1091 0.950 . S
C1114 C1113 1.397 . S
C1114 C1115 1.334 . S
C1115 H1092 0.950 . S
C1115 C1114 1.334 . S
C1115 C1116 1.287 . S
C1116 C1115 1.287 . S
C1116 C1117 1.524 . S
C1116 H1135 0.913 . S
C1117 H1093 0.950 . S
C1117 C1116 1.524 . S
C1117 C1118 1.415 . S
C1118 H1094 0.950 . S
C1118 C1113 1.363 . S
C1118 C1117 1.415 . S
C1119 H1095 0.951 . S
C1119 C1120 1.366 . S
C1119 C1121 1.388 . S
C1120 C1119 1.366 . S
C1120 C1124 1.385 . S
C1121 H1096 0.951 . S
C1121 C1119 1.388 . S
C1121 C1122 1.366 . S
C1122 C1121 1.366 . S
C1122 C1123 1.414 . S
C1122 C1125 1.499 . S
C1123 H1097 0.950 . S
C1123 C1122 1.414 . S
C1123 C1124 1.374 . S
C1124 H1098 0.950 . S
C1124 C1120 1.385 . S
C1124 C1123 1.374 . S
C1125 C1122 1.499 . S
C1125 C1126 1.373 . S
C1125 C1127 1.389 . S
C1126 H1099 0.950 . S
C1126 C1112 1.377 . S
C1126 C1125 1.373 . S
C1127 C1111 1.377 . S
C1127 C1125 1.389 . S
C1127 C1128 1.524 . S
C1128 C1127 1.524 . S
C1128 C1129 1.397 . S
C1128 C1133 1.363 . S
C1129 H1100 0.950 . S
C1129 C1128 1.397 . S
C1129 C1130 1.334 . S
C1130 H1101 0.950 . S
C1130 C1129 1.334 . S
C1130 C1131 1.287 . S
C1131 C1130 1.287 . S
C1131 C1132 1.524 . S
C1131 H1134 0.999 . S
C1132 H1102 0.950 . S
C1132 C1131 1.524 . S
C1132 C1133 1.415 . S
C1133 H1103 0.950 . S
C1133 C1128 1.363 . S
C1133 C1132 1.415 . S
H1134 C1131 0.999 . S
H1135 C1116 0.913 . S
H1136 C1154 0.951 . S
H1137 C1156 0.951 . S
H1138 C1158 0.950 . S
H1139 C1159 0.950 . S
H1140 C1161 0.950 . S
H1141 C1164 0.950 . S
H1142 C1165 0.950 . S
H1143 C1167 0.950 . S
H1144 C1168 0.950 . S
H1145 C1169 0.951 . S
H1146 C1171 0.951 . S
H1147 C1173 0.950 . S
H1148 C1174 0.950 . S
H1149 C1176 0.950 . S
H1150 C1179 0.950 . S
H1151 C1180 0.950 . S
H1152 C1182 0.950 . S
H1153 C1183 0.950 . S
C1154 H1136 0.951 . S
C1154 C1155 1.366 . S
C1154 C1156 1.388 . S
C1155 C1154 1.366 . S
C1155 C1159 1.385 . S
C1156 H1137 0.951 . S
C1156 C1154 1.388 . S
C1156 C1157 1.366 . S
C1157 C1156 1.366 . S
C1157 C1158 1.414 . S
C1157 C1160 1.499 . S
C1158 H1138 0.950 . S
C1158 C1157 1.414 . S
C1158 C1159 1.374 . S
C1159 H1139 0.950 . S
C1159 C1155 1.385 . S
C1159 C1158 1.374 . S
C1160 C1157 1.499 . S
C1160 C1161 1.373 . S
C1160 C1162 1.389 . S
C1161 H1140 0.950 . S
C1161 C1160 1.373 . S
C1161 C1177 1.377 . S
C1162 C1160 1.389 . S
C1162 C1163 1.524 . S
C1162 C1176 1.377 . S
C1163 C1162 1.524 . S
C1163 C1164 1.397 . S
C1163 C1168 1.363 . S
C1164 H1141 0.950 . S
C1164 C1163 1.397 . S
C1164 C1165 1.334 . S
C1165 H1142 0.950 . S
C1165 C1164 1.334 . S
C1165 C1166 1.287 . S
C1166 C1165 1.287 . S
C1166 C1167 1.524 . S
C1166 H1185 0.913 . S
C1167 H1143 0.950 . S
C1167 C1166 1.524 . S
C1167 C1168 1.415 . S
C1168 H1144 0.950 . S
C1168 C1163 1.363 . S
C1168 C1167 1.415 . S
C1169 H1145 0.951 . S
C1169 C1170 1.366 . S
C1169 C1171 1.388 . S
C1170 C1169 1.366 . S
C1170 C1174 1.385 . S
C1171 H1146 0.951 . S
C1171 C1169 1.388 . S
C1171 C1172 1.366 . S
C1172 C1171 1.366 . S
C1172 C1173 1.414 . S
C1172 C1175 1.499 . S
C1173 H1147 0.950 . S
C1173 C1172 1.414 . S
C1173 C1174 1.374 . S
C1174 H1148 0.950 . S
C1174 C1170 1.385 . S
C1174 C1173 1.374 . S
C1175 C1172 1.499 . S
C1175 C1176 1.373 . S
C1175 C1177 1.389 . S
C1176 H1149 0.950 . S
C1176 C1162 1.377 . S
C1176 C1175 1.373 . S
C1177 C1161 1.377 . S
C1177 C1175 1.389 . S
C1177 C1178 1.524 . S
C1178 C1177 1.524 . S
C1178 C1179 1.397 . S
C1178 C1183 1.363 . S
C1179 H1150 0.950 . S
C1179 C1178 1.397 . S
C1179 C1180 1.334 . S
C1180 H1151 0.950 . S
C1180 C1179 1.334 . S
C1180 C1181 1.287 . S
C1181 C1180 1.287 . S
C1181 C1182 1.524 . S
C1181 H1184 0.999 . S
C1182 H1152 0.950 . S
C1182 C1181 1.524 . S
C1182 C1183 1.415 . S
C1183 H1153 0.950 . S
C1183 C1178 1.363 . S
C1183 C1182 1.415 . S
H1184 C1181 0.999 . S
H1185 C1166 0.913 . S
H1186 C1204 0.951 . S
H1187 C1206 0.951 . S
H1188 C1208 0.950 . S
H1189 C1209 0.950 . S
H1190 C1211 0.950 . S
H1191 C1214 0.950 . S
H1192 C1215 0.950 . S
H1193 C1217 0.950 . S
H1194 C1218 0.950 . S
H1195 C1219 0.951 . S
H1196 C1221 0.951 . S
H1197 C1223 0.950 . S
H1198 C1224 0.950 . S
H1199 C1226 0.950 . S
H1200 C1229 0.950 . S
H1201 C1230 0.950 . S
H1202 C1232 0.950 . S
H1203 C1233 0.950 . S
C1204 H1186 0.951 . S
C1204 C1205 1.366 . S
C1204 C1206 1.388 . S
C1205 C1204 1.366 . S
C1205 C1209 1.385 . S
C1206 H1187 0.951 . S
C1206 C1204 1.388 . S
C1206 C1207 1.366 . S
C1207 C1206 1.366 . S
C1207 C1208 1.414 . S
C1207 C1210 1.499 . S
C1208 H1188 0.950 . S
C1208 C1207 1.414 . S
C1208 C1209 1.374 . S
C1209 H1189 0.950 . S
C1209 C1205 1.385 . S
C1209 C1208 1.374 . S
C1210 C1207 1.499 . S
C1210 C1211 1.373 . S
C1210 C1212 1.389 . S
C1211 H1190 0.950 . S
C1211 C1210 1.373 . S
C1211 C1227 1.377 . S
C1212 C1210 1.389 . S
C1212 C1213 1.524 . S
C1212 C1226 1.377 . S
C1213 C1212 1.524 . S
C1213 C1214 1.397 . S
C1213 C1218 1.363 . S
C1214 H1191 0.950 . S
C1214 C1213 1.397 . S
C1214 C1215 1.334 . S
C1215 H1192 0.950 . S
C1215 C1214 1.334 . S
C1215 C1216 1.287 . S
C1216 C1215 1.287 . S
C1216 C1217 1.524 . S
C1216 H1235 0.913 . S
C1217 H1193 0.950 . S
C1217 C1216 1.524 . S
C1217 C1218 1.415 . S
C1218 H1194 0.950 . S
C1218 C1213 1.363 . S
C1218 C1217 1.415 . S
C1219 H1195 0.951 . S
C1219 C1220 1.366 . S
C1219 C1221 1.388 . S
C1220 C1219 1.366 . S
C1220 C1224 1.385 . S
C1221 H1196 0.951 . S
C1221 C1219 1.388 . S
C1221 C1222 1.366 . S
C1222 C1221 1.366 . S
C1222 C1223 1.414 . S
C1222 C1225 1.499 . S
C1223 H1197 0.950 . S
C1223 C1222 1.414 . S
C1223 C1224 1.374 . S
C1224 H1198 0.950 . S
C1224 C1220 1.385 . S
C1224 C1223 1.374 . S
C1225 C1222 1.499 . S
C1225 C1226 1.373 . S
C1225 C1227 1.389 . S
C1226 H1199 0.950 . S
C1226 C1212 1.377 . S
C1226 C1225 1.373 . S
C1227 C1211 1.377 . S
C1227 C1225 1.389 . S
C1227 C1228 1.524 . S
C1228 C1227 1.524 . S
C1228 C1229 1.397 . S
C1228 C1233 1.363 . S
C1229 H1200 0.950 . S
C1229 C1228 1.397 . S
C1229 C1230 1.334 . S
C1230 H1201 0.950 . S
C1230 C1229 1.334 . S
C1230 C1231 1.287 . S
C1231 C1230 1.287 . S
C1231 C1232 1.524 . S
C1231 H1234 0.999 . S
C1232 H1202 0.950 . S
C1232 C1231 1.524 . S
C1232 C1233 1.415 . S
C1233 H1203 0.950 . S
C1233 C1228 1.363 . S
C1233 C1232 1.415 . S
H1234 C1231 0.999 . S
H1235 C1216 0.913 . S
H1236 C1254 0.951 . S
H1237 C1256 0.951 . S
H1238 C1258 0.950 . S
H1239 C1259 0.950 . S
H1240 C1261 0.950 . S
H1241 C1264 0.950 . S
H1242 C1265 0.950 . S
H1243 C1267 0.950 . S
H1244 C1268 0.950 . S
H1245 C1269 0.951 . S
H1246 C1271 0.951 . S
H1247 C1273 0.950 . S
H1248 C1274 0.950 . S
H1249 C1276 0.950 . S
H1250 C1279 0.950 . S
H1251 C1280 0.950 . S
H1252 C1282 0.950 . S
H1253 C1283 0.950 . S
C1254 H1236 0.951 . S
C1254 C1255 1.366 . S
C1254 C1256 1.388 . S
C1255 C1254 1.366 . S
C1255 C1259 1.385 . S
C1256 H1237 0.951 . S
C1256 C1254 1.388 . S
C1256 C1257 1.366 . S
C1257 C1256 1.366 . S
C1257 C1258 1.414 . S
C1257 C1260 1.499 . S
C1258 H1238 0.950 . S
C1258 C1257 1.414 . S
C1258 C1259 1.374 . S
C1259 H1239 0.950 . S
C1259 C1255 1.385 . S
C1259 C1258 1.374 . S
C1260 C1257 1.499 . S
C1260 C1261 1.373 . S
C1260 C1262 1.389 . S
C1261 H1240 0.950 . S
C1261 C1260 1.373 . S
C1261 C1277 1.377 . S
C1262 C1260 1.389 . S
C1262 C1263 1.524 . S
C1262 C1276 1.377 . S
C1263 C1262 1.524 . S
C1263 C1264 1.397 . S
C1263 C1268 1.363 . S
C1264 H1241 0.950 . S
C1264 C1263 1.397 . S
C1264 C1265 1.334 . S
C1265 H1242 0.950 . S
C1265 C1264 1.334 . S
C1265 C1266 1.287 . S
C1266 C1265 1.287 . S
C1266 C1267 1.524 . S
C1266 H1285 0.913 . S
C1267 H1243 0.950 . S
C1267 C1266 1.524 . S
C1267 C1268 1.415 . S
C1268 H1244 0.950 . S
C1268 C1263 1.363 . S
C1268 C1267 1.415 . S
C1269 H1245 0.951 . S
C1269 C1270 1.366 . S
C1269 C1271 1.388 . S
C1270 C1269 1.366 . S
C1270 C1274 1.385 . S
C1271 H1246 0.951 . S
C1271 C1269 1.388 . S
C1271 C1272 1.366 . S
C1272 C1271 1.366 . S
C1272 C1273 1.414 . S
C1272 C1275 1.499 . S
C1273 H1247 0.950 . S
C1273 C1272 1.414 . S
C1273 C1274 1.374 . S
C1274 H1248 0.950 . S
C1274 C1270 1.385 . S
C1274 C1273 1.374 . S
C1275 C1272 1.499 . S
C1275 C1276 1.373 . S
C1275 C1277 1.389 . S
C1276 H1249 0.950 . S
C1276 C1262 1.377 . S
C1276 C1275 1.373 . S
C1277 C1261 1.377 . S
C1277 C1275 1.389 . S
C1277 C1278 1.524 . S
C1278 C1277 1.524 . S
C1278 C1279 1.397 . S
C1278 C1283 1.363 . S
C1279 H1250 0.950 . S
C1279 C1278 1.397 . S
C1279 C1280 1.334 . S
C1280 H1251 0.950 . S
C1280 C1279 1.334 . S
C1280 C1281 1.287 . S
C1281 C1280 1.287 . S
C1281 C1282 1.524 . S
C1281 H1284 0.999 . S
C1282 H1252 0.950 . S
C1282 C1281 1.524 . S
C1282 C1283 1.415 . S
C1283 H1253 0.950 . S
C1283 C1278 1.363 . S
C1283 C1282 1.415 . S
H1284 C1281 0.999 . S
H1285 C1266 0.913 . S
H1286 C1304 0.951 . S
H1287 C1306 0.951 . S
H1288 C1308 0.950 . S
H1289 C1309 0.950 . S
H1290 C1311 0.950 . S
H1291 C1314 0.950 . S
H1292 C1315 0.950 . S
H1293 C1317 0.950 . S
H1294 C1318 0.950 . S
H1295 C1319 0.951 . S
H1296 C1321 0.951 . S
H1297 C1323 0.950 . S
H1298 C1324 0.950 . S
H1299 C1326 0.950 . S
H1300 C1329 0.950 . S
H1301 C1330 0.950 . S
H1302 C1332 0.950 . S
H1303 C1333 0.950 . S
C1304 H1286 0.951 . S
C1304 C1305 1.366 . S
C1304 C1306 1.388 . S
C1305 C1304 1.366 . S
C1305 C1309 1.385 . S
C1306 H1287 0.951 . S
C1306 C1304 1.388 . S
C1306 C1307 1.366 . S
C1307 C1306 1.366 . S
C1307 C1308 1.414 . S
C1307 C1310 1.499 . S
C1308 H1288 0.950 . S
C1308 C1307 1.414 . S
C1308 C1309 1.374 . S
C1309 H1289 0.950 . S
C1309 C1305 1.385 . S
C1309 C1308 1.374 . S
C1310 C1307 1.499 . S
C1310 C1311 1.373 . S
C1310 C1312 1.389 . S
C1311 H1290 0.950 . S
C1311 C1310 1.373 . S
C1311 C1327 1.377 . S
C1312 C1310 1.389 . S
C1312 C1313 1.524 . S
C1312 C1326 1.377 . S
C1313 C1312 1.524 . S
C1313 C1314 1.397 . S
C1313 C1318 1.363 . S
C1314 H1291 0.950 . S
C1314 C1313 1.397 . S
C1314 C1315 1.334 . S
C1315 H1292 0.950 . S
C1315 C1314 1.334 . S
C1315 C1316 1.287 . S
C1316 C1315 1.287 . S
C1316 C1317 1.524 . S
C1316 H1335 0.913 1_556 S
C1317 H1293 0.950 . S
C1317 C1316 1.524 . S
C1317 C1318 1.415 . S
C1318 H1294 0.950 . S
C1318 C1313 1.363 . S
C1318 C1317 1.415 . S
C1319 H1295 0.951 . S
C1319 C1320 1.366 . S
C1319 C1321 1.388 . S
C1320 C1319 1.366 . S
C1320 C1324 1.385 . S
C1321 H1296 0.951 . S
C1321 C1319 1.388 . S
C1321 C1322 1.366 . S
C1322 C1321 1.366 . S
C1322 C1323 1.414 . S
C1322 C1325 1.499 . S
C1323 H1297 0.950 . S
C1323 C1322 1.414 . S
C1323 C1324 1.374 . S
C1324 H1298 0.950 . S
C1324 C1320 1.385 . S
C1324 C1323 1.374 . S
C1325 C1322 1.499 . S
C1325 C1326 1.373 . S
C1325 C1327 1.389 . S
C1326 H1299 0.950 . S
C1326 C1312 1.377 . S
C1326 C1325 1.373 . S
C1327 C1311 1.377 . S
C1327 C1325 1.389 . S
C1327 C1328 1.524 . S
C1328 C1327 1.524 . S
C1328 C1329 1.397 . S
C1328 C1333 1.363 . S
C1329 H1300 0.950 . S
C1329 C1328 1.397 . S
C1329 C1330 1.334 . S
C1330 H1301 0.950 . S
C1330 C1329 1.334 . S
C1330 C1331 1.287 . S
C1331 C1330 1.287 . S
C1331 C1332 1.524 . S
C1331 H1334 0.999 . S
C1332 H1302 0.950 . S
C1332 C1331 1.524 . S
C1332 C1333 1.415 . S
C1333 H1303 0.950 . S
C1333 C1328 1.363 . S
C1333 C1332 1.415 . S
H1334 C1331 0.999 . S
H1335 C1316 0.913 1_554 S
H1336 C1354 0.951 . S
H1337 C1356 0.951 . S
H1338 C1358 0.950 . S
H1339 C1359 0.950 . S
H1340 C1361 0.950 . S
H1341 C1364 0.950 . S
H1342 C1365 0.950 . S
H1343 C1367 0.950 . S
H1344 C1368 0.950 . S
H1345 C1369 0.951 . S
H1346 C1371 0.951 . S
H1347 C1373 0.950 . S
H1348 C1374 0.950 . S
H1349 C1376 0.950 . S
H1350 C1379 0.950 . S
H1351 C1380 0.950 . S
H1352 C1382 0.950 . S
H1353 C1383 0.950 . S
C1354 H1336 0.951 . S
C1354 C1355 1.366 . S
C1354 C1356 1.388 . S
C1355 C1354 1.366 . S
C1355 C1359 1.385 . S
C1356 H1337 0.951 . S
C1356 C1354 1.388 . S
C1356 C1357 1.366 . S
C1357 C1356 1.366 . S
C1357 C1358 1.414 . S
C1357 C1360 1.499 . S
C1358 H1338 0.950 . S
C1358 C1357 1.414 . S
C1358 C1359 1.374 . S
C1359 H1339 0.950 . S
C1359 C1355 1.385 . S
C1359 C1358 1.374 . S
C1360 C1357 1.499 . S
C1360 C1361 1.373 . S
C1360 C1362 1.389 . S
C1361 H1340 0.950 . S
C1361 C1360 1.373 . S
C1361 C1377 1.377 . S
C1362 C1360 1.389 . S
C1362 C1363 1.524 . S
C1362 C1376 1.377 . S
C1363 C1362 1.524 . S
C1363 C1364 1.397 . S
C1363 C1368 1.363 . S
C1364 H1341 0.950 . S
C1364 C1363 1.397 . S
C1364 C1365 1.334 . S
C1365 H1342 0.950 . S
C1365 C1364 1.334 . S
C1365 C1366 1.287 . S
C1366 C1365 1.287 . S
C1366 C1367 1.524 . S
C1366 H1385 0.913 . S
C1367 H1343 0.950 . S
C1367 C1366 1.524 . S
C1367 C1368 1.415 . S
C1368 H1344 0.950 . S
C1368 C1363 1.363 . S
C1368 C1367 1.415 . S
C1369 H1345 0.951 . S
C1369 C1370 1.366 . S
C1369 C1371 1.388 . S
C1370 C1369 1.366 . S
C1370 C1374 1.385 . S
C1371 H1346 0.951 . S
C1371 C1369 1.388 . S
C1371 C1372 1.366 . S
C1372 C1371 1.366 . S
C1372 C1373 1.414 . S
C1372 C1375 1.499 . S
C1373 H1347 0.950 . S
C1373 C1372 1.414 . S
C1373 C1374 1.374 . S
C1374 H1348 0.950 . S
C1374 C1370 1.385 . S
C1374 C1373 1.374 . S
C1375 C1372 1.499 . S
C1375 C1376 1.373 . S
C1375 C1377 1.389 . S
C1376 H1349 0.950 . S
C1376 C1362 1.377 . S
C1376 C1375 1.373 . S
C1377 C1361 1.377 . S
C1377 C1375 1.389 . S
C1377 C1378 1.524 . S
C1378 C1377 1.524 . S
C1378 C1379 1.397 . S
C1378 C1383 1.363 . S
C1379 H1350 0.950 . S
C1379 C1378 1.397 . S
C1379 C1380 1.334 . S
C1380 H1351 0.950 . S
C1380 C1379 1.334 . S
C1380 C1381 1.287 . S
C1381 C1380 1.287 . S
C1381 C1382 1.524 . S
C1381 H1384 0.999 . S
C1382 H1352 0.950 . S
C1382 C1381 1.524 . S
C1382 C1383 1.415 . S
C1383 H1353 0.950 . S
C1383 C1378 1.363 . S
C1383 C1382 1.415 . S
H1384 C1381 0.999 . S
H1385 C1366 0.913 . S
H1386 C1404 0.951 . S
H1387 C1406 0.951 . S
H1388 C1408 0.950 . S
H1389 C1409 0.950 . S
H1390 C1411 0.950 . S
H1391 C1414 0.950 . S
H1392 C1415 0.950 . S
H1393 C1417 0.950 . S
H1394 C1418 0.950 . S
H1395 C1419 0.951 . S
H1396 C1421 0.951 . S
H1397 C1423 0.950 . S
H1398 C1424 0.950 . S
H1399 C1426 0.950 . S
H1400 C1429 0.950 . S
H1401 C1430 0.950 . S
H1402 C1432 0.950 . S
H1403 C1433 0.950 . S
C1404 H1386 0.951 . S
C1404 C1405 1.366 . S
C1404 C1406 1.388 . S
C1405 C1404 1.366 . S
C1405 C1409 1.385 . S
C1406 H1387 0.951 . S
C1406 C1404 1.388 . S
C1406 C1407 1.366 . S
C1407 C1406 1.366 . S
C1407 C1408 1.414 . S
C1407 C1410 1.499 . S
C1408 H1388 0.950 . S
C1408 C1407 1.414 . S
C1408 C1409 1.374 . S
C1409 H1389 0.950 . S
C1409 C1405 1.385 . S
C1409 C1408 1.374 . S
C1410 C1407 1.499 . S
C1410 C1411 1.373 . S
C1410 C1412 1.389 . S
C1411 H1390 0.950 . S
C1411 C1410 1.373 . S
C1411 C1427 1.377 . S
C1412 C1410 1.389 . S
C1412 C1413 1.524 . S
C1412 C1426 1.377 . S
C1413 C1412 1.524 . S
C1413 C1414 1.397 . S
C1413 C1418 1.363 . S
C1414 H1391 0.950 . S
C1414 C1413 1.397 . S
C1414 C1415 1.334 . S
C1415 H1392 0.950 . S
C1415 C1414 1.334 . S
C1415 C1416 1.287 . S
C1416 C1415 1.287 . S
C1416 C1417 1.524 . S
C1416 H1435 0.913 . S
C1417 H1393 0.950 . S
C1417 C1416 1.524 . S
C1417 C1418 1.415 . S
C1418 H1394 0.950 . S
C1418 C1413 1.363 . S
C1418 C1417 1.415 . S
C1419 H1395 0.951 . S
C1419 C1420 1.366 . S
C1419 C1421 1.388 . S
C1420 C1419 1.366 . S
C1420 C1424 1.385 . S
C1421 H1396 0.951 . S
C1421 C1419 1.388 . S
C1421 C1422 1.366 . S
C1422 C1421 1.366 . S
C1422 C1423 1.414 . S
C1422 C1425 1.499 . S
C1423 H1397 0.950 . S
C1423 C1422 1.414 . S
C1423 C1424 1.374 . S
C1424 H1398 0.950 . S
C1424 C1420 1.385 . S
C1424 C1423 1.374 . S
C1425 C1422 1.499 . S
C1425 C1426 1.373 . S
C1425 C1427 1.389 . S
C1426 H1399 0.950 . S
C1426 C1412 1.377 . S
C1426 C1425 1.373 . S
C1427 C1411 1.377 . S
C1427 C1425 1.389 . S
C1427 C1428 1.524 . S
C1428 C1427 1.524 . S
C1428 C1429 1.397 . S
C1428 C1433 1.363 . S
C1429 H1400 0.950 . S
C1429 C1428 1.397 . S
C1429 C1430 1.334 . S
C1430 H1401 0.950 . S
C1430 C1429 1.334 . S
C1430 C1431 1.287 . S
C1431 C1430 1.287 . S
C1431 C1432 1.524 . S
C1431 H1434 0.999 . S
C1432 H1402 0.950 . S
C1432 C1431 1.524 . S
C1432 C1433 1.415 . S
C1433 H1403 0.950 . S
C1433 C1428 1.363 . S
C1433 C1432 1.415 . S
H1434 C1431 0.999 . S
H1435 C1416 0.913 . S
H1436 C1454 0.951 . S
H1437 C1456 0.951 . S
H1438 C1458 0.950 . S
H1439 C1459 0.950 1_545 S
H1440 C1461 0.950 . S
H1441 C1464 0.950 . S
H1442 C1465 0.950 . S
H1443 C1467 0.950 . S
H1444 C1468 0.950 . S
H1445 C1469 0.951 . S
H1446 C1471 0.951 . S
H1447 C1473 0.950 . S
H1448 C1474 0.950 . S
H1449 C1476 0.950 . S
H1450 C1479 0.950 . S
H1451 C1480 0.950 . S
H1452 C1482 0.950 . S
H1453 C1483 0.950 . S
C1454 H1436 0.951 . S
C1454 C1455 1.366 . S
C1454 C1456 1.388 . S
C1455 C1454 1.366 . S
C1455 C1459 1.385 . S
C1456 H1437 0.951 . S
C1456 C1454 1.388 . S
C1456 C1457 1.366 . S
C1457 C1456 1.366 . S
C1457 C1458 1.414 . S
C1457 C1460 1.499 . S
C1458 H1438 0.950 . S
C1458 C1457 1.414 . S
C1458 C1459 1.374 . S
C1459 H1439 0.950 1_565 S
C1459 C1455 1.385 . S
C1459 C1458 1.374 . S
C1460 C1457 1.499 . S
C1460 C1461 1.373 . S
C1460 C1462 1.389 . S
C1461 H1440 0.950 . S
C1461 C1460 1.373 . S
C1461 C1477 1.377 . S
C1462 C1460 1.389 . S
C1462 C1463 1.524 . S
C1462 C1476 1.377 . S
C1463 C1462 1.524 . S
C1463 C1464 1.397 . S
C1463 C1468 1.363 . S
C1464 H1441 0.950 . S
C1464 C1463 1.397 . S
C1464 C1465 1.334 . S
C1465 H1442 0.950 . S
C1465 C1464 1.334 . S
C1465 C1466 1.287 . S
C1466 C1465 1.287 . S
C1466 C1467 1.524 . S
C1466 H1485 0.913 . S
C1467 H1443 0.950 . S
C1467 C1466 1.524 . S
C1467 C1468 1.415 . S
C1468 H1444 0.950 . S
C1468 C1463 1.363 . S
C1468 C1467 1.415 . S
C1469 H1445 0.951 . S
C1469 C1470 1.366 . S
C1469 C1471 1.388 . S
C1470 C1469 1.366 . S
C1470 C1474 1.385 . S
C1471 H1446 0.951 . S
C1471 C1469 1.388 . S
C1471 C1472 1.366 . S
C1472 C1471 1.366 . S
C1472 C1473 1.414 . S
C1472 C1475 1.499 . S
C1473 H1447 0.950 . S
C1473 C1472 1.414 . S
C1473 C1474 1.374 . S
C1474 H1448 0.950 . S
C1474 C1470 1.385 . S
C1474 C1473 1.374 . S
C1475 C1472 1.499 . S
C1475 C1476 1.373 . S
C1475 C1477 1.389 . S
C1476 H1449 0.950 . S
C1476 C1462 1.377 . S
C1476 C1475 1.373 . S
C1477 C1461 1.377 . S
C1477 C1475 1.389 . S
C1477 C1478 1.524 . S
C1478 C1477 1.524 . S
C1478 C1479 1.397 . S
C1478 C1483 1.363 . S
C1479 H1450 0.950 . S
C1479 C1478 1.397 . S
C1479 C1480 1.334 . S
C1480 H1451 0.950 . S
C1480 C1479 1.334 . S
C1480 C1481 1.287 . S
C1481 C1480 1.287 . S
C1481 C1482 1.524 . S
C1481 H1484 0.999 . S
C1482 H1452 0.950 . S
C1482 C1481 1.524 . S
C1482 C1483 1.415 . S
C1483 H1453 0.950 . S
C1483 C1478 1.363 . S
C1483 C1482 1.415 . S
H1484 C1481 0.999 . S
H1485 C1466 0.913 . S
H1486 C1504 0.951 . S
H1487 C1506 0.951 . S
H1488 C1508 0.950 . S
H1489 C1509 0.950 . S
H1490 C1511 0.950 . S
H1491 C1514 0.950 . S
H1492 C1515 0.950 . S
H1493 C1517 0.950 . S
H1494 C1518 0.950 . S
H1495 C1519 0.951 . S
H1496 C1521 0.951 . S
H1497 C1523 0.950 . S
H1498 C1524 0.950 . S
H1499 C1526 0.950 . S
H1500 C1529 0.950 . S
H1501 C1530 0.950 . S
H1502 C1532 0.950 . S
H1503 C1533 0.950 . S
C1504 H1486 0.951 . S
C1504 C1505 1.366 . S
C1504 C1506 1.388 . S
C1505 C1504 1.366 . S
C1505 C1509 1.385 . S
C1506 H1487 0.951 . S
C1506 C1504 1.388 . S
C1506 C1507 1.366 . S
C1507 C1506 1.366 . S
C1507 C1508 1.414 . S
C1507 C1510 1.499 . S
C1508 H1488 0.950 . S
C1508 C1507 1.414 . S
C1508 C1509 1.374 . S
C1509 H1489 0.950 . S
C1509 C1505 1.385 . S
C1509 C1508 1.374 . S
C1510 C1507 1.499 . S
C1510 C1511 1.373 . S
C1510 C1512 1.389 . S
C1511 H1490 0.950 . S
C1511 C1510 1.373 . S
C1511 C1527 1.377 . S
C1512 C1510 1.389 . S
C1512 C1513 1.524 . S
C1512 C1526 1.377 . S
C1513 C1512 1.524 . S
C1513 C1514 1.397 . S
C1513 C1518 1.363 . S
C1514 H1491 0.950 . S
C1514 C1513 1.397 . S
C1514 C1515 1.334 . S
C1515 H1492 0.950 . S
C1515 C1514 1.334 . S
C1515 C1516 1.287 . S
C1516 C1515 1.287 . S
C1516 C1517 1.524 . S
C1516 H1535 0.913 . S
C1517 H1493 0.950 . S
C1517 C1516 1.524 . S
C1517 C1518 1.415 . S
C1518 H1494 0.950 . S
C1518 C1513 1.363 . S
C1518 C1517 1.415 . S
C1519 H1495 0.951 . S
C1519 C1520 1.366 . S
C1519 C1521 1.388 . S
C1520 C1519 1.366 . S
C1520 C1524 1.385 . S
C1521 H1496 0.951 . S
C1521 C1519 1.388 . S
C1521 C1522 1.366 . S
C1522 C1521 1.366 . S
C1522 C1523 1.414 . S
C1522 C1525 1.499 . S
C1523 H1497 0.950 . S
C1523 C1522 1.414 . S
C1523 C1524 1.374 . S
C1524 H1498 0.950 . S
C1524 C1520 1.385 . S
C1524 C1523 1.374 . S
C1525 C1522 1.499 . S
C1525 C1526 1.373 . S
C1525 C1527 1.389 . S
C1526 H1499 0.950 . S
C1526 C1512 1.377 . S
C1526 C1525 1.373 . S
C1527 C1511 1.377 . S
C1527 C1525 1.389 . S
C1527 C1528 1.524 . S
C1528 C1527 1.524 . S
C1528 C1529 1.397 . S
C1528 C1533 1.363 . S
C1529 H1500 0.950 . S
C1529 C1528 1.397 . S
C1529 C1530 1.334 . S
C1530 H1501 0.950 . S
C1530 C1529 1.334 . S
C1530 C1531 1.287 . S
C1531 C1530 1.287 . S
C1531 C1532 1.524 . S
C1531 H1534 0.999 . S
C1532 H1502 0.950 . S
C1532 C1531 1.524 . S
C1532 C1533 1.415 . S
C1533 H1503 0.950 . S
C1533 C1528 1.363 . S
C1533 C1532 1.415 . S
H1534 C1531 0.999 . S
H1535 C1516 0.913 . S
H1536 C1554 0.951 . S
H1537 C1556 0.951 . S
H1538 C1558 0.950 . S
H1539 C1559 0.950 . S
H1540 C1561 0.950 . S
H1541 C1564 0.950 . S
H1542 C1565 0.950 . S
H1543 C1567 0.950 . S
H1544 C1568 0.950 . S
H1545 C1569 0.951 . S
H1546 C1571 0.951 . S
H1547 C1573 0.950 . S
H1548 C1574 0.950 . S
H1549 C1576 0.950 . S
H1550 C1579 0.950 . S
H1551 C1580 0.950 . S
H1552 C1582 0.950 . S
H1553 C1583 0.950 . S
C1554 H1536 0.951 . S
C1554 C1555 1.366 . S
C1554 C1556 1.388 . S
C1555 C1554 1.366 . S
C1555 C1559 1.385 . S
C1556 H1537 0.951 . S
C1556 C1554 1.388 . S
C1556 C1557 1.366 . S
C1557 C1556 1.366 . S
C1557 C1558 1.414 . S
C1557 C1560 1.499 . S
C1558 H1538 0.950 . S
C1558 C1557 1.414 . S
C1558 C1559 1.374 . S
C1559 H1539 0.950 . S
C1559 C1555 1.385 . S
C1559 C1558 1.374 . S
C1560 C1557 1.499 . S
C1560 C1561 1.373 . S
C1560 C1562 1.389 . S
C1561 H1540 0.950 . S
C1561 C1560 1.373 . S
C1561 C1577 1.377 . S
C1562 C1560 1.389 . S
C1562 C1563 1.524 . S
C1562 C1576 1.377 . S
C1563 C1562 1.524 . S
C1563 C1564 1.397 . S
C1563 C1568 1.363 . S
C1564 H1541 0.950 . S
C1564 C1563 1.397 . S
C1564 C1565 1.334 . S
C1565 H1542 0.950 . S
C1565 C1564 1.334 . S
C1565 C1566 1.287 . S
C1566 C1565 1.287 . S
C1566 C1567 1.524 . S
C1566 H1585 0.913 . S
C1567 H1543 0.950 . S
C1567 C1566 1.524 . S
C1567 C1568 1.415 . S
C1568 H1544 0.950 . S
C1568 C1563 1.363 . S
C1568 C1567 1.415 . S
C1569 H1545 0.951 . S
C1569 C1570 1.366 . S
C1569 C1571 1.388 . S
C1570 C1569 1.366 . S
C1570 C1574 1.385 . S
C1571 H1546 0.951 . S
C1571 C1569 1.388 . S
C1571 C1572 1.366 . S
C1572 C1571 1.366 . S
C1572 C1573 1.414 . S
C1572 C1575 1.499 . S
C1573 H1547 0.950 . S
C1573 C1572 1.414 . S
C1573 C1574 1.374 . S
C1574 H1548 0.950 . S
C1574 C1570 1.385 . S
C1574 C1573 1.374 . S
C1575 C1572 1.499 . S
C1575 C1576 1.373 . S
C1575 C1577 1.389 . S
C1576 H1549 0.950 . S
C1576 C1562 1.377 . S
C1576 C1575 1.373 . S
C1577 C1561 1.377 . S
C1577 C1575 1.389 . S
C1577 C1578 1.524 . S
C1578 C1577 1.524 . S
C1578 C1579 1.397 . S
C1578 C1583 1.363 . S
C1579 H1550 0.950 . S
C1579 C1578 1.397 . S
C1579 C1580 1.334 . S
C1580 H1551 0.950 . S
C1580 C1579 1.334 . S
C1580 C1581 1.287 . S
C1581 C1580 1.287 . S
C1581 C1582 1.524 . S
C1581 H1584 0.999 . S
C1582 H1552 0.950 . S
C1582 C1581 1.524 . S
C1582 C1583 1.415 . S
C1583 H1553 0.950 . S
C1583 C1578 1.363 . S
C1583 C1582 1.415 . S
H1584 C1581 0.999 . S
H1585 C1566 0.913 . S
H1586 C1604 0.951 . S
H1587 C1606 0.951 . S
H1588 C1608 0.950 . S
H1589 C1609 0.950 . S
H1590 C1611 0.950 . S
H1591 C1614 0.950 . S
H1592 C1615 0.950 . S
H1593 C1617 0.950 . S
H1594 C1618 0.950 . S
H1595 C1619 0.951 . S
H1596 C1621 0.951 . S
H1597 C1623 0.950 . S
H1598 C1624 0.950 . S
H1599 C1626 0.950 . S
H1600 C1629 0.950 . S
H1601 C1630 0.950 . S
H1602 C1632 0.950 . S
H1603 C1633 0.950 . S
C1604 H1586 0.951 . S
C1604 C1605 1.366 . S
C1604 C1606 1.388 . S
C1605 C1604 1.366 . S
C1605 C1609 1.385 . S
C1606 H1587 0.951 . S
C1606 C1604 1.388 . S
C1606 C1607 1.366 . S
C1607 C1606 1.366 . S
C1607 C1608 1.414 . S
C1607 C1610 1.499 . S
C1608 H1588 0.950 . S
C1608 C1607 1.414 . S
C1608 C1609 1.374 . S
C1609 H1589 0.950 . S
C1609 C1605 1.385 . S
C1609 C1608 1.374 . S
C1610 C1607 1.499 . S
C1610 C1611 1.373 . S
C1610 C1612 1.389 . S
C1611 H1590 0.950 . S
C1611 C1610 1.373 . S
C1611 C1627 1.377 . S
C1612 C1610 1.389 . S
C1612 C1613 1.524 . S
C1612 C1626 1.377 . S
C1613 C1612 1.524 . S
C1613 C1614 1.397 . S
C1613 C1618 1.363 . S
C1614 H1591 0.950 . S
C1614 C1613 1.397 . S
C1614 C1615 1.334 . S
C1615 H1592 0.950 . S
C1615 C1614 1.334 . S
C1615 C1616 1.287 . S
C1616 C1615 1.287 . S
C1616 C1617 1.524 . S
C1616 H1635 0.913 . S
C1617 H1593 0.950 . S
C1617 C1616 1.524 . S
C1617 C1618 1.415 . S
C1618 H1594 0.950 . S
C1618 C1613 1.363 . S
C1618 C1617 1.415 . S
C1619 H1595 0.951 . S
C1619 C1620 1.366 . S
C1619 C1621 1.388 . S
C1620 C1619 1.366 . S
C1620 C1624 1.385 . S
C1621 H1596 0.951 . S
C1621 C1619 1.388 . S
C1621 C1622 1.366 . S
C1622 C1621 1.366 . S
C1622 C1623 1.414 . S
C1622 C1625 1.499 . S
C1623 H1597 0.950 . S
C1623 C1622 1.414 . S
C1623 C1624 1.374 . S
C1624 H1598 0.950 . S
C1624 C1620 1.385 . S
C1624 C1623 1.374 . S
C1625 C1622 1.499 . S
C1625 C1626 1.373 . S
C1625 C1627 1.389 . S
C1626 H1599 0.950 . S
C1626 C1612 1.377 . S
C1626 C1625 1.373 . S
C1627 C1611 1.377 . S
C1627 C1625 1.389 . S
C1627 C1628 1.524 . S
C1628 C1627 1.524 . S
C1628 C1629 1.397 . S
C1628 C1633 1.363 . S
C1629 H1600 0.950 . S
C1629 C1628 1.397 . S
C1629 C1630 1.334 . S
C1630 H1601 0.950 . S
C1630 C1629 1.334 . S
C1630 C1631 1.287 . S
C1631 C1630 1.287 . S
C1631 C1632 1.524 . S
C1631 H1634 0.999 . S
C1632 H1602 0.950 . S
C1632 C1631 1.524 . S
C1632 C1633 1.415 . S
C1633 H1603 0.950 . S
C1633 C1628 1.363 . S
C1633 C1632 1.415 . S
H1634 C1631 0.999 . S
H1635 C1616 0.913 . S
H1636 C1654 0.951 . S
H1637 C1656 0.951 . S
H1638 C1658 0.950 . S
H1639 C1659 0.950 . S
H1640 C1661 0.950 . S
H1641 C1664 0.950 . S
H1642 C1665 0.950 . S
H1643 C1667 0.950 . S
H1644 C1668 0.950 . S
H1645 C1669 0.951 . S
H1646 C1671 0.951 . S
H1647 C1673 0.950 . S
H1648 C1674 0.950 . S
H1649 C1676 0.950 . S
H1650 C1679 0.950 . S
H1651 C1680 0.950 . S
H1652 C1682 0.950 . S
H1653 C1683 0.950 . S
C1654 H1636 0.951 . S
C1654 C1655 1.366 . S
C1654 C1656 1.388 . S
C1655 C1654 1.366 . S
C1655 C1659 1.385 . S
C1656 H1637 0.951 . S
C1656 C1654 1.388 . S
C1656 C1657 1.366 . S
C1657 C1656 1.366 . S
C1657 C1658 1.414 . S
C1657 C1660 1.499 . S
C1658 H1638 0.950 . S
C1658 C1657 1.414 . S
C1658 C1659 1.374 . S
C1659 H1639 0.950 . S
C1659 C1655 1.385 . S
C1659 C1658 1.374 . S
C1660 C1657 1.499 . S
C1660 C1661 1.373 . S
C1660 C1662 1.389 . S
C1661 H1640 0.950 . S
C1661 C1660 1.373 . S
C1661 C1677 1.377 . S
C1662 C1660 1.389 . S
C1662 C1663 1.524 . S
C1662 C1676 1.377 . S
C1663 C1662 1.524 . S
C1663 C1664 1.397 . S
C1663 C1668 1.363 . S
C1664 H1641 0.950 . S
C1664 C1663 1.397 . S
C1664 C1665 1.334 . S
C1665 H1642 0.950 . S
C1665 C1664 1.334 . S
C1665 C1666 1.287 . S
C1666 C1665 1.287 . S
C1666 C1667 1.524 . S
C1666 H1685 0.913 . S
C1667 H1643 0.950 . S
C1667 C1666 1.524 . S
C1667 C1668 1.415 . S
C1668 H1644 0.950 . S
C1668 C1663 1.363 . S
C1668 C1667 1.415 . S
C1669 H1645 0.951 . S
C1669 C1670 1.366 . S
C1669 C1671 1.388 . S
C1670 C1669 1.366 . S
C1670 C1674 1.385 . S
C1671 H1646 0.951 . S
C1671 C1669 1.388 . S
C1671 C1672 1.366 . S
C1672 C1671 1.366 . S
C1672 C1673 1.414 . S
C1672 C1675 1.499 . S
C1673 H1647 0.950 . S
C1673 C1672 1.414 . S
C1673 C1674 1.374 . S
C1674 H1648 0.950 . S
C1674 C1670 1.385 . S
C1674 C1673 1.374 . S
C1675 C1672 1.499 . S
C1675 C1676 1.373 . S
C1675 C1677 1.389 . S
C1676 H1649 0.950 . S
C1676 C1662 1.377 . S
C1676 C1675 1.373 . S
C1677 C1661 1.377 . S
C1677 C1675 1.389 . S
C1677 C1678 1.524 . S
C1678 C1677 1.524 . S
C1678 C1679 1.397 . S
C1678 C1683 1.363 . S
C1679 H1650 0.950 . S
C1679 C1678 1.397 . S
C1679 C1680 1.334 . S
C1680 H1651 0.950 . S
C1680 C1679 1.334 . S
C1680 C1681 1.287 . S
C1681 C1680 1.287 . S
C1681 C1682 1.524 . S
C1681 H1684 0.999 . S
C1682 H1652 0.950 . S
C1682 C1681 1.524 . S
C1682 C1683 1.415 . S
C1683 H1653 0.950 . S
C1683 C1678 1.363 . S
C1683 C1682 1.415 . S
H1684 C1681 0.999 . S
H1685 C1666 0.913 . S
H1686 C1704 0.951 . S
H1687 C1706 0.951 . S
H1688 C1708 0.950 . S
H1689 C1709 0.950 . S
H1690 C1711 0.950 . S
H1691 C1714 0.950 . S
H1692 C1715 0.950 . S
H1693 C1717 0.950 . S
H1694 C1718 0.950 . S
H1695 C1719 0.951 . S
H1696 C1721 0.951 . S
H1697 C1723 0.950 . S
H1698 C1724 0.950 . S
H1699 C1726 0.950 . S
H1700 C1729 0.950 . S
H1701 C1730 0.950 . S
H1702 C1732 0.950 . S
H1703 C1733 0.950 . S
C1704 H1686 0.951 . S
C1704 C1705 1.366 . S
C1704 C1706 1.388 . S
C1705 C1704 1.366 . S
C1705 C1709 1.385 . S
C1706 H1687 0.951 . S
C1706 C1704 1.388 . S
C1706 C1707 1.366 . S
C1707 C1706 1.366 . S
C1707 C1708 1.414 . S
C1707 C1710 1.499 . S
C1708 H1688 0.950 . S
C1708 C1707 1.414 . S
C1708 C1709 1.374 . S
C1709 H1689 0.950 . S
C1709 C1705 1.385 . S
C1709 C1708 1.374 . S
C1710 C1707 1.499 . S
C1710 C1711 1.373 . S
C1710 C1712 1.389 . S
C1711 H1690 0.950 . S
C1711 C1710 1.373 . S
C1711 C1727 1.377 . S
C1712 C1710 1.389 . S
C1712 C1713 1.524 . S
C1712 C1726 1.377 . S
C1713 C1712 1.524 . S
C1713 C1714 1.397 . S
C1713 C1718 1.363 . S
C1714 H1691 0.950 . S
C1714 C1713 1.397 . S
C1714 C1715 1.334 . S
C1715 H1692 0.950 . S
C1715 C1714 1.334 . S
C1715 C1716 1.287 . S
C1716 C1715 1.287 . S
C1716 C1717 1.524 . S
C1716 H1735 0.913 . S
C1717 H1693 0.950 . S
C1717 C1716 1.524 . S
C1717 C1718 1.415 . S
C1718 H1694 0.950 . S
C1718 C1713 1.363 . S
C1718 C1717 1.415 . S
C1719 H1695 0.951 . S
C1719 C1720 1.366 . S
C1719 C1721 1.388 . S
C1720 C1719 1.366 . S
C1720 C1724 1.385 . S
C1721 H1696 0.951 . S
C1721 C1719 1.388 . S
C1721 C1722 1.366 . S
C1722 C1721 1.366 . S
C1722 C1723 1.414 . S
C1722 C1725 1.499 . S
C1723 H1697 0.950 . S
C1723 C1722 1.414 . S
C1723 C1724 1.374 . S
C1724 H1698 0.950 . S
C1724 C1720 1.385 . S
C1724 C1723 1.374 . S
C1725 C1722 1.499 . S
C1725 C1726 1.373 . S
C1725 C1727 1.389 . S
C1726 H1699 0.950 . S
C1726 C1712 1.377 . S
C1726 C1725 1.373 . S
C1727 C1711 1.377 . S
C1727 C1725 1.389 . S
C1727 C1728 1.524 . S
C1728 C1727 1.524 . S
C1728 C1729 1.397 . S
C1728 C1733 1.363 . S
C1729 H1700 0.950 . S
C1729 C1728 1.397 . S
C1729 C1730 1.334 . S
C1730 H1701 0.950 . S
C1730 C1729 1.334 . S
C1730 C1731 1.287 . S
C1731 C1730 1.287 . S
C1731 C1732 1.524 . S
C1731 H1734 0.999 . S
C1732 H1702 0.950 . S
C1732 C1731 1.524 . S
C1732 C1733 1.415 . S
C1733 H1703 0.950 . S
C1733 C1728 1.363 . S
C1733 C1732 1.415 . S
H1734 C1731 0.999 . S
H1735 C1716 0.913 . S
H1736 C1754 0.951 . S
H1737 C1756 0.951 . S
H1738 C1758 0.950 . S
H1739 C1759 0.950 . S
H1740 C1761 0.950 . S
H1741 C1764 0.950 . S
H1742 C1765 0.950 . S
H1743 C1767 0.950 . S
H1744 C1768 0.950 . S
H1745 C1769 0.951 . S
H1746 C1771 0.951 . S
H1747 C1773 0.950 . S
H1748 C1774 0.950 . S
H1749 C1776 0.950 . S
H1750 C1779 0.950 . S
H1751 C1780 0.950 . S
H1752 C1782 0.950 . S
H1753 C1783 0.950 . S
C1754 H1736 0.951 . S
C1754 C1755 1.366 . S
C1754 C1756 1.388 . S
C1755 C1754 1.366 . S
C1755 C1759 1.385 . S
C1756 H1737 0.951 . S
C1756 C1754 1.388 . S
C1756 C1757 1.366 . S
C1757 C1756 1.366 . S
C1757 C1758 1.414 . S
C1757 C1760 1.499 . S
C1758 H1738 0.950 . S
C1758 C1757 1.414 . S
C1758 C1759 1.374 . S
C1759 H1739 0.950 . S
C1759 C1755 1.385 . S
C1759 C1758 1.374 . S
C1760 C1757 1.499 . S
C1760 C1761 1.373 . S
C1760 C1762 1.389 . S
C1761 H1740 0.950 . S
C1761 C1760 1.373 . S
C1761 C1777 1.377 . S
C1762 C1760 1.389 . S
C1762 C1763 1.524 . S
C1762 C1776 1.377 . S
C1763 C1762 1.524 . S
C1763 C1764 1.397 . S
C1763 C1768 1.363 . S
C1764 H1741 0.950 . S
C1764 C1763 1.397 . S
C1764 C1765 1.334 . S
C1765 H1742 0.950 . S
C1765 C1764 1.334 . S
C1765 C1766 1.287 . S
C1766 C1765 1.287 . S
C1766 C1767 1.524 . S
C1766 H1785 0.913 . S
C1767 H1743 0.950 . S
C1767 C1766 1.524 . S
C1767 C1768 1.415 . S
C1768 H1744 0.950 . S
C1768 C1763 1.363 . S
C1768 C1767 1.415 . S
C1769 H1745 0.951 . S
C1769 C1770 1.366 . S
C1769 C1771 1.388 . S
C1770 C1769 1.366 . S
C1770 C1774 1.385 . S
C1771 H1746 0.951 . S
C1771 C1769 1.388 . S
C1771 C1772 1.366 . S
C1772 C1771 1.366 . S
C1772 C1773 1.414 . S
C1772 C1775 1.499 . S
C1773 H1747 0.950 . S
C1773 C1772 1.414 . S
C1773 C1774 1.374 . S
C1774 H1748 0.950 . S
C1774 C1770 1.385 . S
C1774 C1773 1.374 . S
C1775 C1772 1.499 . S
C1775 C1776 1.373 . S
C1775 C1777 1.389 . S
C1776 H1749 0.950 . S
C1776 C1762 1.377 . S
C1776 C1775 1.373 . S
C1777 C1761 1.377 . S
C1777 C1775 1.389 . S
C1777 C1778 1.524 . S
C1778 C1777 1.524 . S
C1778 C1779 1.397 . S
C1778 C1783 1.363 . S
C1779 H1750 0.950 . S
C1779 C1778 1.397 . S
C1779 C1780 1.334 . S
C1780 H1751 0.950 . S
C1780 C1779 1.334 . S
C1780 C1781 1.287 . S
C1781 C1780 1.287 . S
C1781 C1782 1.524 . S
C1781 H1784 0.999 . S
C1782 H1752 0.950 . S
C1782 C1781 1.524 . S
C1782 C1783 1.415 . S
C1783 H1753 0.950 . S
C1783 C1778 1.363 . S
C1783 C1782 1.415 . S
H1784 C1781 0.999 . S
H1785 C1766 0.913 . S
H1786 C1804 0.951 . S
H1787 C1806 0.951 . S
H1788 C1808 0.950 . S
H1789 C1809 0.950 . S
H1790 C1811 0.950 . S
H1791 C1814 0.950 . S
H1792 C1815 0.950 . S
H1793 C1817 0.950 . S
H1794 C1818 0.950 . S
H1795 C1819 0.951 . S
H1796 C1821 0.951 . S
H1797 C1823 0.950 . S
H1798 C1824 0.950 . S
H1799 C1826 0.950 . S
H1800 C1829 0.950 . S
H1801 C1830 0.950 . S
H1802 C1832 0.950 . S
H1803 C1833 0.950 . S
C1804 H1786 0.951 . S
C1804 C1805 1.366 . S
C1804 C1806 1.388 . S
C1805 C1804 1.366 . S
C1805 C1809 1.385 . S
C1806 H1787 0.951 . S
C1806 C1804 1.388 . S
C1806 C1807 1.366 . S
C1807 C1806 1.366 . S
C1807 C1808 1.414 . S
C1807 C1810 1.499 . S
C1808 H1788 0.950 . S
C1808 C1807 1.414 . S
C1808 C1809 1.374 . S
C1809 H1789 0.950 . S
C1809 C1805 1.385 . S
C1809 C1808 1.374 . S
C1810 C1807 1.499 . S
C1810 C1811 1.373 . S
C1810 C1812 1.389 . S
C1811 H1790 0.950 . S
C1811 C1810 1.373 . S
C1811 C1827 1.377 . S
C1812 C1810 1.389 . S
C1812 C1813 1.524 . S
C1812 C1826 1.377 . S
C1813 C1812 1.524 . S
C1813 C1814 1.397 . S
C1813 C1818 1.363 . S
C1814 H1791 0.950 . S
C1814 C1813 1.397 . S
C1814 C1815 1.334 . S
C1815 H1792 0.950 . S
C1815 C1814 1.334 . S
C1815 C1816 1.287 . S
C1816 C1815 1.287 . S
C1816 C1817 1.524 . S
C1816 H1835 0.913 . S
C1817 H1793 0.950 . S
C1817 C1816 1.524 . S
C1817 C1818 1.415 . S
C1818 H1794 0.950 . S
C1818 C1813 1.363 . S
C1818 C1817 1.415 . S
C1819 H1795 0.951 . S
C1819 C1820 1.366 . S
C1819 C1821 1.388 . S
C1820 C1819 1.366 . S
C1820 C1824 1.385 . S
C1821 H1796 0.951 . S
C1821 C1819 1.388 . S
C1821 C1822 1.366 . S
C1822 C1821 1.366 . S
C1822 C1823 1.414 . S
C1822 C1825 1.499 . S
C1823 H1797 0.950 . S
C1823 C1822 1.414 . S
C1823 C1824 1.374 . S
C1824 H1798 0.950 . S
C1824 C1820 1.385 . S
C1824 C1823 1.374 . S
C1825 C1822 1.499 . S
C1825 C1826 1.373 . S
C1825 C1827 1.389 . S
C1826 H1799 0.950 . S
C1826 C1812 1.377 . S
C1826 C1825 1.373 . S
C1827 C1811 1.377 . S
C1827 C1825 1.389 . S
C1827 C1828 1.524 . S
C1828 C1827 1.524 . S
C1828 C1829 1.397 . S
C1828 C1833 1.363 . S
C1829 H1800 0.950 . S
C1829 C1828 1.397 . S
C1829 C1830 1.334 . S
C1830 H1801 0.950 . S
C1830 C1829 1.334 . S
C1830 C1831 1.287 . S
C1831 C1830 1.287 . S
C1831 C1832 1.524 . S
C1831 H1834 0.999 . S
C1832 H1802 0.950 . S
C1832 C1831 1.524 . S
C1832 C1833 1.415 . S
C1833 H1803 0.950 . S
C1833 C1828 1.363 . S
C1833 C1832 1.415 . S
H1834 C1831 0.999 . S
H1835 C1816 0.913 . S
H1836 C1854 0.951 . S
H1837 C1856 0.951 . S
H1838 C1858 0.950 . S
H1839 C1859 0.950 . S
H1840 C1861 0.950 . S
H1841 C1864 0.950 . S
H1842 C1865 0.950 . S
H1843 C1867 0.950 . S
H1844 C1868 0.950 . S
H1845 C1869 0.951 . S
H1846 C1871 0.951 . S
H1847 C1873 0.950 . S
H1848 C1874 0.950 . S
H1849 C1876 0.950 . S
H1850 C1879 0.950 . S
H1851 C1880 0.950 . S
H1852 C1882 0.950 . S
H1853 C1883 0.950 . S
C1854 H1836 0.951 . S
C1854 C1855 1.366 . S
C1854 C1856 1.388 . S
C1855 C1854 1.366 . S
C1855 C1859 1.385 . S
C1856 H1837 0.951 . S
C1856 C1854 1.388 . S
C1856 C1857 1.366 . S
C1857 C1856 1.366 . S
C1857 C1858 1.414 . S
C1857 C1860 1.499 . S
C1858 H1838 0.950 . S
C1858 C1857 1.414 . S
C1858 C1859 1.374 . S
C1859 H1839 0.950 . S
C1859 C1855 1.385 . S
C1859 C1858 1.374 . S
C1860 C1857 1.499 . S
C1860 C1861 1.373 . S
C1860 C1862 1.389 . S
C1861 H1840 0.950 . S
C1861 C1860 1.373 . S
C1861 C1877 1.377 . S
C1862 C1860 1.389 . S
C1862 C1863 1.524 . S
C1862 C1876 1.377 . S
C1863 C1862 1.524 . S
C1863 C1864 1.397 . S
C1863 C1868 1.363 . S
C1864 H1841 0.950 . S
C1864 C1863 1.397 . S
C1864 C1865 1.334 . S
C1865 H1842 0.950 . S
C1865 C1864 1.334 . S
C1865 C1866 1.287 . S
C1866 C1865 1.287 . S
C1866 C1867 1.524 . S
C1866 H1885 0.913 . S
C1867 H1843 0.950 . S
C1867 C1866 1.524 . S
C1867 C1868 1.415 . S
C1868 H1844 0.950 . S
C1868 C1863 1.363 . S
C1868 C1867 1.415 . S
C1869 H1845 0.951 . S
C1869 C1870 1.366 . S
C1869 C1871 1.388 . S
C1870 C1869 1.366 . S
C1870 C1874 1.385 . S
C1871 H1846 0.951 . S
C1871 C1869 1.388 . S
C1871 C1872 1.366 . S
C1872 C1871 1.366 . S
C1872 C1873 1.414 . S
C1872 C1875 1.499 . S
C1873 H1847 0.950 . S
C1873 C1872 1.414 . S
C1873 C1874 1.374 . S
C1874 H1848 0.950 . S
C1874 C1870 1.385 . S
C1874 C1873 1.374 . S
C1875 C1872 1.499 . S
C1875 C1876 1.373 . S
C1875 C1877 1.389 . S
C1876 H1849 0.950 . S
C1876 C1862 1.377 . S
C1876 C1875 1.373 . S
C1877 C1861 1.377 . S
C1877 C1875 1.389 . S
C1877 C1878 1.524 . S
C1878 C1877 1.524 . S
C1878 C1879 1.397 . S
C1878 C1883 1.363 . S
C1879 H1850 0.950 . S
C1879 C1878 1.397 . S
C1879 C1880 1.334 . S
C1880 H1851 0.950 . S
C1880 C1879 1.334 . S
C1880 C1881 1.287 . S
C1881 C1880 1.287 . S
C1881 C1882 1.524 . S
C1881 H1884 0.999 . S
C1882 H1852 0.950 . S
C1882 C1881 1.524 . S
C1882 C1883 1.415 . S
C1883 H1853 0.950 . S
C1883 C1878 1.363 . S
C1883 C1882 1.415 . S
H1884 C1881 0.999 . S
H1885 C1866 0.913 . S
H1886 C1904 0.951 . S
H1887 C1906 0.951 . S
H1888 C1908 0.950 . S
H1889 C1909 0.950 . S
H1890 C1911 0.950 . S
H1891 C1914 0.950 . S
H1892 C1915 0.950 . S
H1893 C1917 0.950 . S
H1894 C1918 0.950 . S
H1895 C1919 0.951 . S
H1896 C1921 0.951 . S
H1897 C1923 0.950 . S
H1898 C1924 0.950 . S
H1899 C1926 0.950 . S
H1900 C1929 0.950 . S
H1901 C1930 0.950 . S
H1902 C1932 0.950 . S
H1903 C1933 0.950 . S
C1904 H1886 0.951 . S
C1904 C1905 1.366 . S
C1904 C1906 1.388 . S
C1905 C1904 1.366 . S
C1905 C1909 1.385 . S
C1906 H1887 0.951 . S
C1906 C1904 1.388 . S
C1906 C1907 1.366 . S
C1907 C1906 1.366 . S
C1907 C1908 1.414 . S
C1907 C1910 1.499 . S
C1908 H1888 0.950 . S
C1908 C1907 1.414 . S
C1908 C1909 1.374 . S
C1909 H1889 0.950 . S
C1909 C1905 1.385 . S
C1909 C1908 1.374 . S
C1910 C1907 1.499 . S
C1910 C1911 1.373 . S
C1910 C1912 1.389 . S
C1911 H1890 0.950 . S
C1911 C1910 1.373 . S
C1911 C1927 1.377 . S
C1912 C1910 1.389 . S
C1912 C1913 1.524 . S
C1912 C1926 1.377 . S
C1913 C1912 1.524 . S
C1913 C1914 1.397 . S
C1913 C1918 1.363 . S
C1914 H1891 0.950 . S
C1914 C1913 1.397 . S
C1914 C1915 1.334 . S
C1915 H1892 0.950 . S
C1915 C1914 1.334 . S
C1915 C1916 1.287 . S
C1916 C1915 1.287 . S
C1916 C1917 1.524 . S
C1916 H1935 0.913 . S
C1917 H1893 0.950 . S
C1917 C1916 1.524 . S
C1917 C1918 1.415 . S
C1918 H1894 0.950 . S
C1918 C1913 1.363 . S
C1918 C1917 1.415 . S
C1919 H1895 0.951 . S
C1919 C1920 1.366 . S
C1919 C1921 1.388 . S
C1920 C1919 1.366 . S
C1920 C1924 1.385 . S
C1921 H1896 0.951 . S
C1921 C1919 1.388 . S
C1921 C1922 1.366 . S
C1922 C1921 1.366 . S
C1922 C1923 1.414 . S
C1922 C1925 1.499 . S
C1923 H1897 0.950 . S
C1923 C1922 1.414 . S
C1923 C1924 1.374 . S
C1924 H1898 0.950 . S
C1924 C1920 1.385 . S
C1924 C1923 1.374 . S
C1925 C1922 1.499 . S
C1925 C1926 1.373 . S
C1925 C1927 1.389 . S
C1926 H1899 0.950 . S
C1926 C1912 1.377 . S
C1926 C1925 1.373 . S
C1927 C1911 1.377 . S
C1927 C1925 1.389 . S
C1927 C1928 1.524 . S
C1928 C1927 1.524 . S
C1928 C1929 1.397 . S
C1928 C1933 1.363 . S
C1929 H1900 0.950 . S
C1929 C1928 1.397 . S
C1929 C1930 1.334 . S
C1930 H1901 0.950 . S
C1930 C1929 1.334 . S
C1930 C1931 1.287 . S
C1931 C1930 1.287 . S
C1931 C1932 1.524 . S
C1931 H1934 0.999 . S
C1932 H1902 0.950 . S
C1932 C1931 1.524 . S
C1932 C1933 1.415 . S
C1933 H1903 0.950 . S
C1933 C1928 1.363 . S
C1933 C1932 1.415 . S
H1934 C1931 0.999 . S
H1935 C1916 0.913 . S
H1936 C1954 0.951 . S
H1937 C1956 0.951 . S
H1938 C1958 0.950 . S
H1939 C1959 0.950 . S
H1940 C1961 0.950 . S
H1941 C1964 0.950 . S
H1942 C1965 0.950 . S
H1943 C1967 0.950 . S
H1944 C1968 0.950 . S
H1945 C1969 0.951 . S
H1946 C1971 0.951 . S
H1947 C1973 0.950 . S
H1948 C1974 0.950 . S
H1949 C1976 0.950 . S
H1950 C1979 0.950 . S
H1951 C1980 0.950 . S
H1952 C1982 0.950 . S
H1953 C1983 0.950 . S
C1954 H1936 0.951 . S
C1954 C1955 1.366 . S
C1954 C1956 1.388 . S
C1955 C1954 1.366 . S
C1955 C1959 1.385 . S
C1956 H1937 0.951 . S
C1956 C1954 1.388 . S
C1956 C1957 1.366 . S
C1957 C1956 1.366 . S
C1957 C1958 1.414 . S
C1957 C1960 1.499 . S
C1958 H1938 0.950 . S
C1958 C1957 1.414 . S
C1958 C1959 1.374 . S
C1959 H1939 0.950 . S
C1959 C1955 1.385 . S
C1959 C1958 1.374 . S
C1960 C1957 1.499 . S
C1960 C1961 1.373 . S
C1960 C1962 1.389 . S
C1961 H1940 0.950 . S
C1961 C1960 1.373 . S
C1961 C1977 1.377 . S
C1962 C1960 1.389 . S
C1962 C1963 1.524 . S
C1962 C1976 1.377 . S
C1963 C1962 1.524 . S
C1963 C1964 1.397 . S
C1963 C1968 1.363 . S
C1964 H1941 0.950 . S
C1964 C1963 1.397 . S
C1964 C1965 1.334 . S
C1965 H1942 0.950 . S
C1965 C1964 1.334 . S
C1965 C1966 1.287 . S
C1966 C1965 1.287 . S
C1966 C1967 1.524 . S
C1966 H1985 0.913 . S
C1967 H1943 0.950 . S
C1967 C1966 1.524 . S
C1967 C1968 1.415 . S
C1968 H1944 0.950 . S
C1968 C1963 1.363 . S
C1968 C1967 1.415 . S
C1969 H1945 0.951 . S
C1969 C1970 1.366 . S
C1969 C1971 1.388 . S
C1970 C1969 1.366 . S
C1970 C1974 1.385 . S
C1971 H1946 0.951 . S
C1971 C1969 1.388 . S
C1971 C1972 1.366 . S
C1972 C1971 1.366 . S
C1972 C1973 1.414 . S
C1972 C1975 1.499 . S
C1973 H1947 0.950 . S
C1973 C1972 1.414 . S
C1973 C1974 1.374 . S
C1974 H1948 0.950 . S
C1974 C1970 1.385 . S
C1974 C1973 1.374 . S
C1975 C1972 1.499 . S
C1975 C1976 1.373 . S
C1975 C1977 1.389 . S
C1976 H1949 0.950 . S
C1976 C1962 1.377 . S
C1976 C1975 1.373 . S
C1977 C1961 1.377 . S
C1977 C1975 1.389 . S
C1977 C1978 1.524 . S
C1978 C1977 1.524 . S
C1978 C1979 1.397 . S
C1978 C1983 1.363 . S
C1979 H1950 0.950 . S
C1979 C1978 1.397 . S
C1979 C1980 1.334 . S
C1980 H1951 0.950 . S
C1980 C1979 1.334 . S
C1980 C1981 1.287 . S
C1981 C1980 1.287 . S
C1981 C1982 1.524 . S
C1981 H1984 0.999 . S
C1982 H1952 0.950 . S
C1982 C1981 1.524 . S
C1982 C1983 1.415 . S
C1983 H1953 0.950 . S
C1983 C1978 1.363 . S
C1983 C1982 1.415 . S
H1984 C1981 0.999 . S
H1985 C1966 0.913 . S
H1986 C2004 0.951 . S
H1987 C2006 0.951 . S
H1988 C2008 0.950 . S
H1989 C2009 0.950 . S
H1990 C2011 0.950 . S
H1991 C2014 0.950 . S
H1992 C2015 0.950 . S
H1993 C2017 0.950 . S
H1994 C2018 0.950 . S
H1995 C2019 0.951 . S
H1996 C2021 0.951 . S
H1997 C2023 0.950 . S
H1998 C2024 0.950 . S
H1999 C2026 0.950 . S
H2000 C2029 0.950 . S
H2001 C2030 0.950 . S
H2002 C2032 0.950 . S
H2003 C2033 0.950 . S
C2004 H1986 0.951 . S
C2004 C2005 1.366 . S
C2004 C2006 1.388 . S
C2005 C2004 1.366 . S
C2005 C2009 1.385 . S
C2006 H1987 0.951 . S
C2006 C2004 1.388 . S
C2006 C2007 1.366 . S
C2007 C2006 1.366 . S
C2007 C2008 1.414 . S
C2007 C2010 1.499 . S
C2008 H1988 0.950 . S
C2008 C2007 1.414 . S
C2008 C2009 1.374 . S
C2009 H1989 0.950 . S
C2009 C2005 1.385 . S
C2009 C2008 1.374 . S
C2010 C2007 1.499 . S
C2010 C2011 1.373 . S
C2010 C2012 1.389 . S
C2011 H1990 0.950 . S
C2011 C2010 1.373 . S
C2011 C2027 1.377 . S
C2012 C2010 1.389 . S
C2012 C2013 1.524 . S
C2012 C2026 1.377 . S
C2013 C2012 1.524 . S
C2013 C2014 1.397 . S
C2013 C2018 1.363 . S
C2014 H1991 0.950 . S
C2014 C2013 1.397 . S
C2014 C2015 1.334 . S
C2015 H1992 0.950 . S
C2015 C2014 1.334 . S
C2015 C2016 1.287 . S
C2016 C2015 1.287 . S
C2016 C2017 1.524 . S
C2016 H2035 0.913 . S
C2017 H1993 0.950 . S
C2017 C2016 1.524 . S
C2017 C2018 1.415 . S
C2018 H1994 0.950 . S
C2018 C2013 1.363 . S
C2018 C2017 1.415 . S
C2019 H1995 0.951 . S
C2019 C2020 1.366 . S
C2019 C2021 1.388 . S
C2020 C2019 1.366 . S
C2020 C2024 1.385 . S
C2021 H1996 0.951 . S
C2021 C2019 1.388 . S
C2021 C2022 1.366 . S
C2022 C2021 1.366 . S
C2022 C2023 1.414 . S
C2022 C2025 1.499 . S
C2023 H1997 0.950 . S
C2023 C2022 1.414 . S
C2023 C2024 1.374 . S
C2024 H1998 0.950 . S
C2024 C2020 1.385 . S
C2024 C2023 1.374 . S
C2025 C2022 1.499 . S
C2025 C2026 1.373 . S
C2025 C2027 1.389 . S
C2026 H1999 0.950 . S
C2026 C2012 1.377 . S
C2026 C2025 1.373 . S
C2027 C2011 1.377 . S
C2027 C2025 1.389 . S
C2027 C2028 1.524 . S
C2028 C2027 1.524 . S
C2028 C2029 1.397 . S
C2028 C2033 1.363 . S
C2029 H2000 0.950 . S
C2029 C2028 1.397 . S
C2029 C2030 1.334 . S
C2030 H2001 0.950 . S
C2030 C2029 1.334 . S
C2030 C2031 1.287 . S
C2031 C2030 1.287 . S
C2031 C2032 1.524 . S
C2031 H2034 0.999 . S
C2032 H2002 0.950 . S
C2032 C2031 1.524 . S
C2032 C2033 1.415 . S
C2033 H2003 0.950 . S
C2033 C2028 1.363 . S
C2033 C2032 1.415 . S
H2034 C2031 0.999 . S
H2035 C2016 0.913 . S
H2036 C2054 0.951 . S
H2037 C2056 0.951 . S
H2038 C2058 0.950 . S
H2039 C2059 0.950 . S
H2040 C2061 0.950 . S
H2041 C2064 0.950 . S
H2042 C2065 0.950 . S
H2043 C2067 0.950 . S
H2044 C2068 0.950 . S
H2045 C2069 0.951 . S
H2046 C2071 0.951 . S
H2047 C2073 0.950 . S
H2048 C2074 0.950 . S
H2049 C2076 0.950 . S
H2050 C2079 0.950 . S
H2051 C2080 0.950 . S
H2052 C2082 0.950 . S
H2053 C2083 0.950 . S
C2054 H2036 0.951 . S
C2054 C2055 1.366 . S
C2054 C2056 1.388 . S
C2055 C2054 1.366 . S
C2055 C2059 1.385 . S
C2056 H2037 0.951 . S
C2056 C2054 1.388 . S
C2056 C2057 1.366 . S
C2057 C2056 1.366 . S
C2057 C2058 1.414 . S
C2057 C2060 1.499 . S
C2058 H2038 0.950 . S
C2058 C2057 1.414 . S
C2058 C2059 1.374 . S
C2059 H2039 0.950 . S
C2059 C2055 1.385 . S
C2059 C2058 1.374 . S
C2060 C2057 1.499 . S
C2060 C2061 1.373 . S
C2060 C2062 1.389 . S
C2061 H2040 0.950 . S
C2061 C2060 1.373 . S
C2061 C2077 1.377 . S
C2062 C2060 1.389 . S
C2062 C2063 1.524 . S
C2062 C2076 1.377 . S
C2063 C2062 1.524 . S
C2063 C2064 1.397 . S
C2063 C2068 1.363 . S
C2064 H2041 0.950 . S
C2064 C2063 1.397 . S
C2064 C2065 1.334 . S
C2065 H2042 0.950 . S
C2065 C2064 1.334 . S
C2065 C2066 1.287 . S
C2066 C2065 1.287 . S
C2066 C2067 1.524 . S
C2066 H2085 0.913 . S
C2067 H2043 0.950 . S
C2067 C2066 1.524 . S
C2067 C2068 1.415 . S
C2068 H2044 0.950 . S
C2068 C2063 1.363 . S
C2068 C2067 1.415 . S
C2069 H2045 0.951 . S
C2069 C2070 1.366 . S
C2069 C2071 1.388 . S
C2070 C2069 1.366 . S
C2070 C2074 1.385 . S
C2071 H2046 0.951 . S
C2071 C2069 1.388 . S
C2071 C2072 1.366 . S
C2072 C2071 1.366 . S
C2072 C2073 1.414 . S
C2072 C2075 1.499 . S
C2073 H2047 0.950 . S
C2073 C2072 1.414 . S
C2073 C2074 1.374 . S
C2074 H2048 0.950 . S
C2074 C2070 1.385 . S
C2074 C2073 1.374 . S
C2075 C2072 1.499 . S
C2075 C2076 1.373 . S
C2075 C2077 1.389 . S
C2076 H2049 0.950 . S
C2076 C2062 1.377 . S
C2076 C2075 1.373 . S
C2077 C2061 1.377 . S
C2077 C2075 1.389 . S
C2077 C2078 1.524 . S
C2078 C2077 1.524 . S
C2078 C2079 1.397 . S
C2078 C2083 1.363 . S
C2079 H2050 0.950 . S
C2079 C2078 1.397 . S
C2079 C2080 1.334 . S
C2080 H2051 0.950 . S
C2080 C2079 1.334 . S
C2080 C2081 1.287 . S
C2081 C2080 1.287 . S
C2081 C2082 1.524 . S
C2081 H2084 0.999 . S
C2082 H2052 0.950 . S
C2082 C2081 1.524 . S
C2082 C2083 1.415 . S
C2083 H2053 0.950 . S
C2083 C2078 1.363 . S
C2083 C2082 1.415 . S
H2084 C2081 0.999 . S
H2085 C2066 0.913 . S
H2086 C2104 0.951 . S
H2087 C2106 0.951 . S
H2088 C2108 0.950 . S
H2089 C2109 0.950 . S
H2090 C2111 0.950 . S
H2091 C2114 0.950 . S
H2092 C2115 0.950 . S
H2093 C2117 0.950 . S
H2094 C2118 0.950 . S
H2095 C2119 0.951 . S
H2096 C2121 0.951 . S
H2097 C2123 0.950 . S
H2098 C2124 0.950 . S
H2099 C2126 0.950 . S
H2100 C2129 0.950 . S
H2101 C2130 0.950 . S
H2102 C2132 0.950 . S
H2103 C2133 0.950 . S
C2104 H2086 0.951 . S
C2104 C2105 1.366 . S
C2104 C2106 1.388 . S
C2105 C2104 1.366 . S
C2105 C2109 1.385 . S
C2106 H2087 0.951 . S
C2106 C2104 1.388 . S
C2106 C2107 1.366 . S
C2107 C2106 1.366 . S
C2107 C2108 1.414 . S
C2107 C2110 1.499 . S
C2108 H2088 0.950 . S
C2108 C2107 1.414 . S
C2108 C2109 1.374 . S
C2109 H2089 0.950 . S
C2109 C2105 1.385 . S
C2109 C2108 1.374 . S
C2110 C2107 1.499 . S
C2110 C2111 1.373 . S
C2110 C2112 1.389 . S
C2111 H2090 0.950 . S
C2111 C2110 1.373 . S
C2111 C2127 1.377 . S
C2112 C2110 1.389 . S
C2112 C2113 1.524 . S
C2112 C2126 1.377 . S
C2113 C2112 1.524 . S
C2113 C2114 1.397 . S
C2113 C2118 1.363 . S
C2114 H2091 0.950 . S
C2114 C2113 1.397 . S
C2114 C2115 1.334 . S
C2115 H2092 0.950 . S
C2115 C2114 1.334 . S
C2115 C2116 1.287 . S
C2116 C2115 1.287 . S
C2116 C2117 1.524 . S
C2116 H2135 0.913 . S
C2117 H2093 0.950 . S
C2117 C2116 1.524 . S
C2117 C2118 1.415 . S
C2118 H2094 0.950 . S
C2118 C2113 1.363 . S
C2118 C2117 1.415 . S
C2119 H2095 0.951 . S
C2119 C2120 1.366 . S
C2119 C2121 1.388 . S
C2120 C2119 1.366 . S
C2120 C2124 1.385 . S
C2121 H2096 0.951 . S
C2121 C2119 1.388 . S
C2121 C2122 1.366 . S
C2122 C2121 1.366 . S
C2122 C2123 1.414 . S
C2122 C2125 1.499 . S
C2123 H2097 0.950 . S
C2123 C2122 1.414 . S
C2123 C2124 1.374 . S
C2124 H2098 0.950 . S
C2124 C2120 1.385 . S
C2124 C2123 1.374 . S
C2125 C2122 1.499 . S
C2125 C2126 1.373 . S
C2125 C2127 1.389 . S
C2126 H2099 0.950 . S
C2126 C2112 1.377 . S
C2126 C2125 1.373 . S
C2127 C2111 1.377 . S
C2127 C2125 1.389 . S
C2127 C2128 1.524 . S
C2128 C2127 1.524 . S
C2128 C2129 1.397 . S
C2128 C2133 1.363 . S
C2129 H2100 0.950 . S
C2129 C2128 1.397 . S
C2129 C2130 1.334 . S
C2130 H2101 0.950 . S
C2130 C2129 1.334 . S
C2130 C2131 1.287 . S
C2131 C2130 1.287 . S
C2131 C2132 1.524 . S
C2131 H2134 0.999 . S
C2132 H2102 0.950 . S
C2132 C2131 1.524 . S
C2132 C2133 1.415 . S
C2133 H2103 0.950 . S
C2133 C2128 1.363 . S
C2133 C2132 1.415 . S
H2134 C2131 0.999 . S
H2135 C2116 0.913 . S
H2136 C2154 0.951 . S
H2137 C2156 0.951 . S
H2138 C2158 0.950 . S
H2139 C2159 0.950 . S
H2140 C2161 0.950 . S
H2141 C2164 0.950 . S
H2142 C2165 0.950 . S
H2143 C2167 0.950 . S
H2144 C2168 0.950 . S
H2145 C2169 0.951 . S
H2146 C2171 0.951 . S
H2147 C2173 0.950 . S
H2148 C2174 0.950 . S
H2149 C2176 0.950 . S
H2150 C2179 0.950 . S
H2151 C2180 0.950 . S
H2152 C2182 0.950 . S
H2153 C2183 0.950 . S
C2154 H2136 0.951 . S
C2154 C2155 1.366 . S
C2154 C2156 1.388 . S
C2155 C2154 1.366 . S
C2155 C2159 1.385 . S
C2156 H2137 0.951 . S
C2156 C2154 1.388 . S
C2156 C2157 1.366 . S
C2157 C2156 1.366 . S
C2157 C2158 1.414 . S
C2157 C2160 1.499 . S
C2158 H2138 0.950 . S
C2158 C2157 1.414 . S
C2158 C2159 1.374 . S
C2159 H2139 0.950 . S
C2159 C2155 1.385 . S
C2159 C2158 1.374 . S
C2160 C2157 1.499 . S
C2160 C2161 1.373 . S
C2160 C2162 1.389 . S
C2161 H2140 0.950 . S
C2161 C2160 1.373 . S
C2161 C2177 1.377 . S
C2162 C2160 1.389 . S
C2162 C2163 1.524 . S
C2162 C2176 1.377 . S
C2163 C2162 1.524 . S
C2163 C2164 1.397 . S
C2163 C2168 1.363 . S
C2164 H2141 0.950 . S
C2164 C2163 1.397 . S
C2164 C2165 1.334 . S
C2165 H2142 0.950 . S
C2165 C2164 1.334 . S
C2165 C2166 1.287 . S
C2166 C2165 1.287 . S
C2166 C2167 1.524 . S
C2166 H2185 0.913 . S
C2167 H2143 0.950 . S
C2167 C2166 1.524 . S
C2167 C2168 1.415 . S
C2168 H2144 0.950 . S
C2168 C2163 1.363 . S
C2168 C2167 1.415 . S
C2169 H2145 0.951 . S
C2169 C2170 1.366 . S
C2169 C2171 1.388 . S
C2170 C2169 1.366 . S
C2170 C2174 1.385 . S
C2171 H2146 0.951 . S
C2171 C2169 1.388 . S
C2171 C2172 1.366 . S
C2172 C2171 1.366 . S
C2172 C2173 1.414 . S
C2172 C2175 1.499 . S
C2173 H2147 0.950 . S
C2173 C2172 1.414 . S
C2173 C2174 1.374 . S
C2174 H2148 0.950 . S
C2174 C2170 1.385 . S
C2174 C2173 1.374 . S
C2175 C2172 1.499 . S
C2175 C2176 1.373 . S
C2175 C2177 1.389 . S
C2176 H2149 0.950 . S
C2176 C2162 1.377 . S
C2176 C2175 1.373 . S
C2177 C2161 1.377 . S
C2177 C2175 1.389 . S
C2177 C2178 1.524 . S
C2178 C2177 1.524 . S
C2178 C2179 1.397 . S
C2178 C2183 1.363 . S
C2179 H2150 0.950 . S
C2179 C2178 1.397 . S
C2179 C2180 1.334 . S
C2180 H2151 0.950 . S
C2180 C2179 1.334 . S
C2180 C2181 1.287 . S
C2181 C2180 1.287 . S
C2181 C2182 1.524 . S
C2181 H2184 0.999 . S
C2182 H2152 0.950 . S
C2182 C2181 1.524 . S
C2182 C2183 1.415 . S
C2183 H2153 0.950 . S
C2183 C2178 1.363 . S
C2183 C2182 1.415 . S
H2184 C2181 0.999 . S
H2185 C2166 0.913 . S
H2186 C2204 0.951 . S
H2187 C2206 0.951 . S
H2188 C2208 0.950 . S
H2189 C2209 0.950 . S
H2190 C2211 0.950 . S
H2191 C2214 0.950 . S
H2192 C2215 0.950 . S
H2193 C2217 0.950 . S
H2194 C2218 0.950 . S
H2195 C2219 0.951 . S
H2196 C2221 0.951 . S
H2197 C2223 0.950 . S
H2198 C2224 0.950 . S
H2199 C2226 0.950 . S
H2200 C2229 0.950 . S
H2201 C2230 0.950 . S
H2202 C2232 0.950 . S
H2203 C2233 0.950 . S
C2204 H2186 0.951 . S
C2204 C2205 1.366 . S
C2204 C2206 1.388 . S
C2205 C2204 1.366 . S
C2205 C2209 1.385 . S
C2206 H2187 0.951 . S
C2206 C2204 1.388 . S
C2206 C2207 1.366 . S
C2207 C2206 1.366 . S
C2207 C2208 1.414 . S
C2207 C2210 1.499 . S
C2208 H2188 0.950 . S
C2208 C2207 1.414 . S
C2208 C2209 1.374 . S
C2209 H2189 0.950 . S
C2209 C2205 1.385 . S
C2209 C2208 1.374 . S
C2210 C2207 1.499 . S
C2210 C2211 1.373 . S
C2210 C2212 1.389 . S
C2211 H2190 0.950 . S
C2211 C2210 1.373 . S
C2211 C2227 1.377 . S
C2212 C2210 1.389 . S
C2212 C2213 1.524 . S
C2212 C2226 1.377 . S
C2213 C2212 1.524 . S
C2213 C2214 1.397 . S
C2213 C2218 1.363 . S
C2214 H2191 0.950 . S
C2214 C2213 1.397 . S
C2214 C2215 1.334 . S
C2215 H2192 0.950 . S
C2215 C2214 1.334 . S
C2215 C2216 1.287 . S
C2216 C2215 1.287 . S
C2216 C2217 1.524 . S
C2216 H2235 0.913 . S
C2217 H2193 0.950 . S
C2217 C2216 1.524 . S
C2217 C2218 1.415 . S
C2218 H2194 0.950 . S
C2218 C2213 1.363 . S
C2218 C2217 1.415 . S
C2219 H2195 0.951 . S
C2219 C2220 1.366 . S
C2219 C2221 1.388 . S
C2220 C2219 1.366 . S
C2220 C2224 1.385 . S
C2221 H2196 0.951 . S
C2221 C2219 1.388 . S
C2221 C2222 1.366 . S
C2222 C2221 1.366 . S
C2222 C2223 1.414 . S
C2222 C2225 1.499 . S
C2223 H2197 0.950 . S
C2223 C2222 1.414 . S
C2223 C2224 1.374 . S
C2224 H2198 0.950 . S
C2224 C2220 1.385 . S
C2224 C2223 1.374 . S
C2225 C2222 1.499 . S
C2225 C2226 1.373 . S
C2225 C2227 1.389 . S
C2226 H2199 0.950 . S
C2226 C2212 1.377 . S
C2226 C2225 1.373 . S
C2227 C2211 1.377 . S
C2227 C2225 1.389 . S
C2227 C2228 1.524 . S
C2228 C2227 1.524 . S
C2228 C2229 1.397 . S
C2228 C2233 1.363 . S
C2229 H2200 0.950 . S
C2229 C2228 1.397 . S
C2229 C2230 1.334 . S
C2230 H2201 0.950 . S
C2230 C2229 1.334 . S
C2230 C2231 1.287 . S
C2231 C2230 1.287 . S
C2231 C2232 1.524 . S
C2231 H2234 0.999 . S
C2232 H2202 0.950 . S
C2232 C2231 1.524 . S
C2232 C2233 1.415 . S
C2233 H2203 0.950 . S
C2233 C2228 1.363 . S
C2233 C2232 1.415 . S
H2234 C2231 0.999 . S
H2235 C2216 0.913 . S
H2236 C2254 0.951 . S
H2237 C2256 0.951 . S
H2238 C2258 0.950 . S
H2239 C2259 0.950 . S
H2240 C2261 0.950 . S
H2241 C2264 0.950 . S
H2242 C2265 0.950 . S
H2243 C2267 0.950 . S
H2244 C2268 0.950 . S
H2245 C2269 0.951 . S
H2246 C2271 0.951 . S
H2247 C2273 0.950 . S
H2248 C2274 0.950 . S
H2249 C2276 0.950 . S
H2250 C2279 0.950 . S
H2251 C2280 0.950 . S
H2252 C2282 0.950 . S
H2253 C2283 0.950 . S
C2254 H2236 0.951 . S
C2254 C2255 1.366 . S
C2254 C2256 1.388 . S
C2255 C2254 1.366 . S
C2255 C2259 1.385 . S
C2256 H2237 0.951 . S
C2256 C2254 1.388 . S
C2256 C2257 1.366 . S
C2257 C2256 1.366 . S
C2257 C2258 1.414 . S
C2257 C2260 1.499 . S
C2258 H2238 0.950 . S
C2258 C2257 1.414 . S
C2258 C2259 1.374 . S
C2259 H2239 0.950 . S
C2259 C2255 1.385 . S
C2259 C2258 1.374 . S
C2260 C2257 1.499 . S
C2260 C2261 1.373 . S
C2260 C2262 1.389 . S
C2261 H2240 0.950 . S
C2261 C2260 1.373 . S
C2261 C2277 1.377 . S
C2262 C2260 1.389 . S
C2262 C2263 1.524 . S
C2262 C2276 1.377 . S
C2263 C2262 1.524 . S
C2263 C2264 1.397 . S
C2263 C2268 1.363 . S
C2264 H2241 0.950 . S
C2264 C2263 1.397 . S
C2264 C2265 1.334 . S
C2265 H2242 0.950 . S
C2265 C2264 1.334 . S
C2265 C2266 1.287 . S
C2266 C2265 1.287 . S
C2266 C2267 1.524 . S
C2266 H2285 0.913 . S
C2267 H2243 0.950 . S
C2267 C2266 1.524 . S
C2267 C2268 1.415 . S
C2268 H2244 0.950 . S
C2268 C2263 1.363 . S
C2268 C2267 1.415 . S
C2269 H2245 0.951 . S
C2269 C2270 1.366 . S
C2269 C2271 1.388 . S
C2270 C2269 1.366 . S
C2270 C2274 1.385 . S
C2271 H2246 0.951 . S
C2271 C2269 1.388 . S
C2271 C2272 1.366 . S
C2272 C2271 1.366 . S
C2272 C2273 1.414 . S
C2272 C2275 1.499 . S
C2273 H2247 0.950 . S
C2273 C2272 1.414 . S
C2273 C2274 1.374 . S
C2274 H2248 0.950 . S
C2274 C2270 1.385 . S
C2274 C2273 1.374 . S
C2275 C2272 1.499 . S
C2275 C2276 1.373 . S
C2275 C2277 1.389 . S
C2276 H2249 0.950 . S
C2276 C2262 1.377 . S
C2276 C2275 1.373 . S
C2277 C2261 1.377 . S
C2277 C2275 1.389 . S
C2277 C2278 1.524 . S
C2278 C2277 1.524 . S
C2278 C2279 1.397 . S
C2278 C2283 1.363 . S
C2279 H2250 0.950 . S
C2279 C2278 1.397 . S
C2279 C2280 1.334 . S
C2280 H2251 0.950 . S
C2280 C2279 1.334 . S
C2280 C2281 1.287 . S
C2281 C2280 1.287 . S
C2281 C2282 1.524 . S
C2281 H2284 0.999 . S
C2282 H2252 0.950 . S
C2282 C2281 1.524 . S
C2282 C2283 1.415 . S
C2283 H2253 0.950 . S
C2283 C2278 1.363 . S
C2283 C2282 1.415 . S
H2284 C2281 0.999 . S
H2285 C2266 0.913 . S
H2286 C2304 0.951 . S
H2287 C2306 0.951 . S
H2288 C2308 0.950 . S
H2289 C2309 0.950 . S
H2290 C2311 0.950 . S
H2291 C2314 0.950 . S
H2292 C2315 0.950 . S
H2293 C2317 0.950 . S
H2294 C2318 0.950 . S
H2295 C2319 0.951 . S
H2296 C2321 0.951 . S
H2297 C2323 0.950 . S
H2298 C2324 0.950 . S
H2299 C2326 0.950 . S
H2300 C2329 0.950 . S
H2301 C2330 0.950 . S
H2302 C2332 0.950 . S
H2303 C2333 0.950 . S
C2304 H2286 0.951 . S
C2304 C2305 1.366 . S
C2304 C2306 1.388 . S
C2305 C2304 1.366 . S
C2305 C2309 1.385 . S
C2306 H2287 0.951 . S
C2306 C2304 1.388 . S
C2306 C2307 1.366 . S
C2307 C2306 1.366 . S
C2307 C2308 1.414 . S
C2307 C2310 1.499 . S
C2308 H2288 0.950 . S
C2308 C2307 1.414 . S
C2308 C2309 1.374 . S
C2309 H2289 0.950 . S
C2309 C2305 1.385 . S
C2309 C2308 1.374 . S
C2310 C2307 1.499 . S
C2310 C2311 1.373 . S
C2310 C2312 1.389 . S
C2311 H2290 0.950 . S
C2311 C2310 1.373 . S
C2311 C2327 1.377 . S
C2312 C2310 1.389 . S
C2312 C2313 1.524 . S
C2312 C2326 1.377 . S
C2313 C2312 1.524 . S
C2313 C2314 1.397 . S
C2313 C2318 1.363 . S
C2314 H2291 0.950 . S
C2314 C2313 1.397 . S
C2314 C2315 1.334 . S
C2315 H2292 0.950 . S
C2315 C2314 1.334 . S
C2315 C2316 1.287 . S
C2316 C2315 1.287 . S
C2316 C2317 1.524 . S
C2316 H2335 0.913 . S
C2317 H2293 0.950 . S
C2317 C2316 1.524 . S
C2317 C2318 1.415 . S
C2318 H2294 0.950 . S
C2318 C2313 1.363 . S
C2318 C2317 1.415 . S
C2319 H2295 0.951 . S
C2319 C2320 1.366 . S
C2319 C2321 1.388 . S
C2320 C2319 1.366 . S
C2320 C2324 1.385 . S
C2321 H2296 0.951 . S
C2321 C2319 1.388 . S
C2321 C2322 1.366 . S
C2322 C2321 1.366 . S
C2322 C2323 1.414 . S
C2322 C2325 1.499 . S
C2323 H2297 0.950 . S
C2323 C2322 1.414 . S
C2323 C2324 1.374 . S
C2324 H2298 0.950 . S
C2324 C2320 1.385 . S
C2324 C2323 1.374 . S
C2325 C2322 1.499 . S
C2325 C2326 1.373 . S
C2325 C2327 1.389 . S
C2326 H2299 0.950 . S
C2326 C2312 1.377 . S
C2326 C2325 1.373 . S
C2327 C2311 1.377 . S
C2327 C2325 1.389 . S
C2327 C2328 1.524 . S
C2328 C2327 1.524 . S
C2328 C2329 1.397 . S
C2328 C2333 1.363 . S
C2329 H2300 0.950 . S
C2329 C2328 1.397 . S
C2329 C2330 1.334 . S
C2330 H2301 0.950 . S
C2330 C2329 1.334 . S
C2330 C2331 1.287 . S
C2331 C2330 1.287 . S
C2331 C2332 1.524 . S
C2331 H2334 0.999 . S
C2332 H2302 0.950 . S
C2332 C2331 1.524 . S
C2332 C2333 1.415 . S
C2333 H2303 0.950 . S
C2333 C2328 1.363 . S
C2333 C2332 1.415 . S
H2334 C2331 0.999 . S
H2335 C2316 0.913 . S
H2336 C2354 0.951 . S
H2337 C2356 0.951 . S
H2338 C2358 0.950 . S
H2339 C2359 0.950 . S
H2340 C2361 0.950 . S
H2341 C2364 0.950 . S
H2342 C2365 0.950 . S
H2343 C2367 0.950 . S
H2344 C2368 0.950 . S
H2345 C2369 0.951 . S
H2346 C2371 0.951 . S
H2347 C2373 0.950 . S
H2348 C2374 0.950 . S
H2349 C2376 0.950 . S
H2350 C2379 0.950 . S
H2351 C2380 0.950 . S
H2352 C2382 0.950 . S
H2353 C2383 0.950 . S
C2354 H2336 0.951 . S
C2354 C2355 1.366 . S
C2354 C2356 1.388 . S
C2355 C2354 1.366 . S
C2355 C2359 1.385 . S
C2356 H2337 0.951 . S
C2356 C2354 1.388 . S
C2356 C2357 1.366 . S
C2357 C2356 1.366 . S
C2357 C2358 1.414 . S
C2357 C2360 1.499 . S
C2358 H2338 0.950 . S
C2358 C2357 1.414 . S
C2358 C2359 1.374 . S
C2359 H2339 0.950 . S
C2359 C2355 1.385 . S
C2359 C2358 1.374 . S
C2360 C2357 1.499 . S
C2360 C2361 1.373 . S
C2360 C2362 1.389 . S
C2361 H2340 0.950 . S
C2361 C2360 1.373 . S
C2361 C2377 1.377 . S
C2362 C2360 1.389 . S
C2362 C2363 1.524 . S
C2362 C2376 1.377 . S
C2363 C2362 1.524 . S
C2363 C2364 1.397 . S
C2363 C2368 1.363 . S
C2364 H2341 0.950 . S
C2364 C2363 1.397 . S
C2364 C2365 1.334 . S
C2365 H2342 0.950 . S
C2365 C2364 1.334 . S
C2365 C2366 1.287 . S
C2366 C2365 1.287 . S
C2366 C2367 1.524 . S
C2366 H2385 0.913 . S
C2367 H2343 0.950 . S
C2367 C2366 1.524 . S
C2367 C2368 1.415 . S
C2368 H2344 0.950 . S
C2368 C2363 1.363 . S
C2368 C2367 1.415 . S
C2369 H2345 0.951 . S
C2369 C2370 1.366 . S
C2369 C2371 1.388 . S
C2370 C2369 1.366 . S
C2370 C2374 1.385 . S
C2371 H2346 0.951 . S
C2371 C2369 1.388 . S
C2371 C2372 1.366 . S
C2372 C2371 1.366 . S
C2372 C2373 1.414 . S
C2372 C2375 1.499 . S
C2373 H2347 0.950 . S
C2373 C2372 1.414 . S
C2373 C2374 1.374 . S
C2374 H2348 0.950 . S
C2374 C2370 1.385 . S
C2374 C2373 1.374 . S
C2375 C2372 1.499 . S
C2375 C2376 1.373 . S
C2375 C2377 1.389 . S
C2376 H2349 0.950 . S
C2376 C2362 1.377 . S
C2376 C2375 1.373 . S
C2377 C2361 1.377 . S
C2377 C2375 1.389 . S
C2377 C2378 1.524 . S
C2378 C2377 1.524 . S
C2378 C2379 1.397 . S
C2378 C2383 1.363 . S
C2379 H2350 0.950 . S
C2379 C2378 1.397 . S
C2379 C2380 1.334 . S
C2380 H2351 0.950 . S
C2380 C2379 1.334 . S
C2380 C2381 1.287 . S
C2381 C2380 1.287 . S
C2381 C2382 1.524 . S
C2381 H2384 0.999 . S
C2382 H2352 0.950 . S
C2382 C2381 1.524 . S
C2382 C2383 1.415 . S
C2383 H2353 0.950 . S
C2383 C2378 1.363 . S
C2383 C2382 1.415 . S
H2384 C2381 0.999 . S
H2385 C2366 0.913 . S
H2386 C2404 0.951 . S
H2387 C2406 0.951 . S
H2388 C2408 0.950 . S
H2389 C2409 0.950 . S
H2390 C2411 0.950 . S
H2391 C2414 0.950 . S
H2392 C2415 0.950 . S
H2393 C2417 0.950 . S
H2394 C2418 0.950 . S
H2395 C2419 0.951 . S
H2396 C2421 0.951 . S
H2397 C2423 0.950 . S
H2398 C2424 0.950 . S
H2399 C2426 0.950 . S
H2400 C2429 0.950 . S
H2401 C2430 0.950 . S
H2402 C2432 0.950 . S
H2403 C2433 0.950 . S
C2404 H2386 0.951 . S
C2404 C2405 1.366 . S
C2404 C2406 1.388 . S
C2405 C2404 1.366 . S
C2405 C2409 1.385 . S
C2406 H2387 0.951 . S
C2406 C2404 1.388 . S
C2406 C2407 1.366 . S
C2407 C2406 1.366 . S
C2407 C2408 1.414 . S
C2407 C2410 1.499 . S
C2408 H2388 0.950 . S
C2408 C2407 1.414 . S
C2408 C2409 1.374 . S
C2409 H2389 0.950 . S
C2409 C2405 1.385 . S
C2409 C2408 1.374 . S
C2410 C2407 1.499 . S
C2410 C2411 1.373 . S
C2410 C2412 1.389 . S
C2411 H2390 0.950 . S
C2411 C2410 1.373 . S
C2411 C2427 1.377 . S
C2412 C2410 1.389 . S
C2412 C2413 1.524 . S
C2412 C2426 1.377 . S
C2413 C2412 1.524 . S
C2413 C2414 1.397 . S
C2413 C2418 1.363 . S
C2414 H2391 0.950 . S
C2414 C2413 1.397 . S
C2414 C2415 1.334 . S
C2415 H2392 0.950 . S
C2415 C2414 1.334 . S
C2415 C2416 1.287 . S
C2416 C2415 1.287 . S
C2416 C2417 1.524 . S
C2416 H2435 0.913 . S
C2417 H2393 0.950 . S
C2417 C2416 1.524 . S
C2417 C2418 1.415 . S
C2418 H2394 0.950 . S
C2418 C2413 1.363 . S
C2418 C2417 1.415 . S
C2419 H2395 0.951 . S
C2419 C2420 1.366 . S
C2419 C2421 1.388 . S
C2420 C2419 1.366 . S
C2420 C2424 1.385 . S
C2421 H2396 0.951 . S
C2421 C2419 1.388 . S
C2421 C2422 1.366 . S
C2422 C2421 1.366 . S
C2422 C2423 1.414 . S
C2422 C2425 1.499 . S
C2423 H2397 0.950 . S
C2423 C2422 1.414 . S
C2423 C2424 1.374 . S
C2424 H2398 0.950 . S
C2424 C2420 1.385 . S
C2424 C2423 1.374 . S
C2425 C2422 1.499 . S
C2425 C2426 1.373 . S
C2425 C2427 1.389 . S
C2426 H2399 0.950 . S
C2426 C2412 1.377 . S
C2426 C2425 1.373 . S
C2427 C2411 1.377 . S
C2427 C2425 1.389 . S
C2427 C2428 1.524 . S
C2428 C2427 1.524 . S
C2428 C2429 1.397 . S
C2428 C2433 1.363 . S
C2429 H2400 0.950 . S
C2429 C2428 1.397 . S
C2429 C2430 1.334 . S
C2430 H2401 0.950 . S
C2430 C2429 1.334 . S
C2430 C2431 1.287 . S
C2431 C2430 1.287 . S
C2431 C2432 1.524 . S
C2431 H2434 0.999 . S
C2432 H2402 0.950 . S
C2432 C2431 1.524 . S
C2432 C2433 1.415 . S
C2433 H2403 0.950 . S
C2433 C2428 1.363 . S
C2433 C2432 1.415 . S
H2434 C2431 0.999 . S
H2435 C2416 0.913 . S
H2436 C2454 0.951 . S
H2437 C2456 0.951 . S
H2438 C2458 0.950 . S
H2439 C2459 0.950 . S
H2440 C2461 0.950 . S
H2441 C2464 0.950 . S
H2442 C2465 0.950 . S
H2443 C2467 0.950 . S
H2444 C2468 0.950 . S
H2445 C2469 0.951 . S
H2446 C2471 0.951 . S
H2447 C2473 0.950 . S
H2448 C2474 0.950 . S
H2449 C2476 0.950 . S
H2450 C2479 0.950 . S
H2451 C2480 0.950 . S
H2452 C2482 0.950 . S
H2453 C2483 0.950 . S
C2454 H2436 0.951 . S
C2454 C2455 1.366 . S
C2454 C2456 1.388 . S
C2455 C2454 1.366 . S
C2455 C2459 1.385 . S
C2456 H2437 0.951 . S
C2456 C2454 1.388 . S
C2456 C2457 1.366 . S
C2457 C2456 1.366 . S
C2457 C2458 1.414 . S
C2457 C2460 1.499 . S
C2458 H2438 0.950 . S
C2458 C2457 1.414 . S
C2458 C2459 1.374 . S
C2459 H2439 0.950 . S
C2459 C2455 1.385 . S
C2459 C2458 1.374 . S
C2460 C2457 1.499 . S
C2460 C2461 1.373 . S
C2460 C2462 1.389 . S
C2461 H2440 0.950 . S
C2461 C2460 1.373 . S
C2461 C2477 1.377 . S
C2462 C2460 1.389 . S
C2462 C2463 1.524 . S
C2462 C2476 1.377 . S
C2463 C2462 1.524 . S
C2463 C2464 1.397 . S
C2463 C2468 1.363 . S
C2464 H2441 0.950 . S
C2464 C2463 1.397 . S
C2464 C2465 1.334 . S
C2465 H2442 0.950 . S
C2465 C2464 1.334 . S
C2465 C2466 1.287 . S
C2466 C2465 1.287 . S
C2466 C2467 1.524 . S
C2466 H2485 0.913 . S
C2467 H2443 0.950 . S
C2467 C2466 1.524 . S
C2467 C2468 1.415 . S
C2468 H2444 0.950 . S
C2468 C2463 1.363 . S
C2468 C2467 1.415 . S
C2469 H2445 0.951 . S
C2469 C2470 1.366 . S
C2469 C2471 1.388 . S
C2470 C2469 1.366 . S
C2470 C2474 1.385 . S
C2471 H2446 0.951 . S
C2471 C2469 1.388 . S
C2471 C2472 1.366 . S
C2472 C2471 1.366 . S
C2472 C2473 1.414 . S
C2472 C2475 1.499 . S
C2473 H2447 0.950 . S
C2473 C2472 1.414 . S
C2473 C2474 1.374 . S
C2474 H2448 0.950 . S
C2474 C2470 1.385 . S
C2474 C2473 1.374 . S
C2475 C2472 1.499 . S
C2475 C2476 1.373 . S
C2475 C2477 1.389 . S
C2476 H2449 0.950 . S
C2476 C2462 1.377 . S
C2476 C2475 1.373 . S
C2477 C2461 1.377 . S
C2477 C2475 1.389 . S
C2477 C2478 1.524 . S
C2478 C2477 1.524 . S
C2478 C2479 1.397 . S
C2478 C2483 1.363 . S
C2479 H2450 0.950 . S
C2479 C2478 1.397 . S
C2479 C2480 1.334 . S
C2480 H2451 0.950 . S
C2480 C2479 1.334 . S
C2480 C2481 1.287 . S
C2481 C2480 1.287 . S
C2481 C2482 1.524 . S
C2481 H2484 0.999 . S
C2482 H2452 0.950 . S
C2482 C2481 1.524 . S
C2482 C2483 1.415 . S
C2483 H2453 0.950 . S
C2483 C2478 1.363 . S
C2483 C2482 1.415 . S
H2484 C2481 0.999 . S
H2485 C2466 0.913 . S
H2486 C2504 0.951 . S
H2487 C2506 0.951 . S
H2488 C2508 0.950 . S
H2489 C2509 0.950 . S
H2490 C2511 0.950 . S
H2491 C2514 0.950 . S
H2492 C2515 0.950 . S
H2493 C2517 0.950 . S
H2494 C2518 0.950 . S
H2495 C2519 0.951 . S
H2496 C2521 0.951 . S
H2497 C2523 0.950 . S
H2498 C2524 0.950 . S
H2499 C2526 0.950 . S
H2500 C2529 0.950 . S
H2501 C2530 0.950 . S
H2502 C2532 0.950 . S
H2503 C2533 0.950 . S
C2504 H2486 0.951 . S
C2504 C2505 1.366 . S
C2504 C2506 1.388 . S
C2505 C2504 1.366 . S
C2505 C2509 1.385 . S
C2506 H2487 0.951 . S
C2506 C2504 1.388 . S
C2506 C2507 1.366 . S
C2507 C2506 1.366 . S
C2507 C2508 1.414 . S
C2507 C2510 1.499 . S
C2508 H2488 0.950 . S
C2508 C2507 1.414 . S
C2508 C2509 1.374 . S
C2509 H2489 0.950 . S
C2509 C2505 1.385 . S
C2509 C2508 1.374 . S
C2510 C2507 1.499 . S
C2510 C2511 1.373 . S
C2510 C2512 1.389 . S
C2511 H2490 0.950 . S
C2511 C2510 1.373 . S
C2511 C2527 1.377 . S
C2512 C2510 1.389 . S
C2512 C2513 1.524 . S
C2512 C2526 1.377 . S
C2513 C2512 1.524 . S
C2513 C2514 1.397 . S
C2513 C2518 1.363 . S
C2514 H2491 0.950 . S
C2514 C2513 1.397 . S
C2514 C2515 1.334 . S
C2515 H2492 0.950 . S
C2515 C2514 1.334 . S
C2515 C2516 1.287 . S
C2516 C2515 1.287 . S
C2516 C2517 1.524 . S
C2516 H2535 0.913 . S
C2517 H2493 0.950 . S
C2517 C2516 1.524 . S
C2517 C2518 1.415 . S
C2518 H2494 0.950 . S
C2518 C2513 1.363 . S
C2518 C2517 1.415 . S
C2519 H2495 0.951 . S
C2519 C2520 1.366 . S
C2519 C2521 1.388 . S
C2520 C2519 1.366 . S
C2520 C2524 1.385 . S
C2521 H2496 0.951 . S
C2521 C2519 1.388 . S
C2521 C2522 1.366 . S
C2522 C2521 1.366 . S
C2522 C2523 1.414 . S
C2522 C2525 1.499 . S
C2523 H2497 0.950 . S
C2523 C2522 1.414 . S
C2523 C2524 1.374 . S
C2524 H2498 0.950 . S
C2524 C2520 1.385 . S
C2524 C2523 1.374 . S
C2525 C2522 1.499 . S
C2525 C2526 1.373 . S
C2525 C2527 1.389 . S
C2526 H2499 0.950 . S
C2526 C2512 1.377 . S
C2526 C2525 1.373 . S
C2527 C2511 1.377 . S
C2527 C2525 1.389 . S
C2527 C2528 1.524 . S
C2528 C2527 1.524 . S
C2528 C2529 1.397 . S
C2528 C2533 1.363 . S
C2529 H2500 0.950 . S
C2529 C2528 1.397 . S
C2529 C2530 1.334 . S
C2530 H2501 0.950 . S
C2530 C2529 1.334 . S
C2530 C2531 1.287 . S
C2531 C2530 1.287 . S
C2531 C2532 1.524 . S
C2531 H2534 0.999 . S
C2532 H2502 0.950 . S
C2532 C2531 1.524 . S
C2532 C2533 1.415 . S
C2533 H2503 0.950 . S
C2533 C2528 1.363 . S
C2533 C2532 1.415 . S
H2534 C2531 0.999 . S
H2535 C2516 0.913 . S
H2536 C2554 0.951 . S
H2537 C2556 0.951 . S
H2538 C2558 0.950 . S
H2539 C2559 0.950 . S
H2540 C2561 0.950 . S
H2541 C2564 0.950 . S
H2542 C2565 0.950 . S
H2543 C2567 0.950 . S
H2544 C2568 0.950 . S
H2545 C2569 0.951 . S
H2546 C2571 0.951 . S
H2547 C2573 0.950 . S
H2548 C2574 0.950 . S
H2549 C2576 0.950 . S
H2550 C2579 0.950 . S
H2551 C2580 0.950 . S
H2552 C2582 0.950 . S
H2553 C2583 0.950 . S
C2554 H2536 0.951 . S
C2554 C2555 1.366 . S
C2554 C2556 1.388 . S
C2555 C2554 1.366 . S
C2555 C2559 1.385 . S
C2556 H2537 0.951 . S
C2556 C2554 1.388 . S
C2556 C2557 1.366 . S
C2557 C2556 1.366 . S
C2557 C2558 1.414 . S
C2557 C2560 1.499 . S
C2558 H2538 0.950 . S
C2558 C2557 1.414 . S
C2558 C2559 1.374 . S
C2559 H2539 0.950 . S
C2559 C2555 1.385 . S
C2559 C2558 1.374 . S
C2560 C2557 1.499 . S
C2560 C2561 1.373 . S
C2560 C2562 1.389 . S
C2561 H2540 0.950 . S
C2561 C2560 1.373 . S
C2561 C2577 1.377 . S
C2562 C2560 1.389 . S
C2562 C2563 1.524 . S
C2562 C2576 1.377 . S
C2563 C2562 1.524 . S
C2563 C2564 1.397 . S
C2563 C2568 1.363 . S
C2564 H2541 0.950 . S
C2564 C2563 1.397 . S
C2564 C2565 1.334 . S
C2565 H2542 0.950 . S
C2565 C2564 1.334 . S
C2565 C2566 1.287 . S
C2566 C2565 1.287 . S
C2566 C2567 1.524 . S
C2566 H2585 0.913 . S
C2567 H2543 0.950 . S
C2567 C2566 1.524 . S
C2567 C2568 1.415 . S
C2568 H2544 0.950 . S
C2568 C2563 1.363 . S
C2568 C2567 1.415 . S
C2569 H2545 0.951 . S
C2569 C2570 1.366 . S
C2569 C2571 1.388 . S
C2570 C2569 1.366 . S
C2570 C2574 1.385 . S
C2571 H2546 0.951 . S
C2571 C2569 1.388 . S
C2571 C2572 1.366 . S
C2572 C2571 1.366 . S
C2572 C2573 1.414 . S
C2572 C2575 1.499 . S
C2573 H2547 0.950 . S
C2573 C2572 1.414 . S
C2573 C2574 1.374 . S
C2574 H2548 0.950 . S
C2574 C2570 1.385 . S
C2574 C2573 1.374 . S
C2575 C2572 1.499 . S
C2575 C2576 1.373 . S
C2575 C2577 1.389 . S
C2576 H2549 0.950 . S
C2576 C2562 1.377 . S
C2576 C2575 1.373 . S
C2577 C2561 1.377 . S
C2577 C2575 1.389 . S
C2577 C2578 1.524 . S
C2578 C2577 1.524 . S
C2578 C2579 1.397 . S
C2578 C2583 1.363 . S
C2579 H2550 0.950 . S
C2579 C2578 1.397 . S
C2579 C2580 1.334 . S
C2580 H2551 0.950 . S
C2580 C2579 1.334 . S
C2580 C2581 1.287 . S
C2581 C2580 1.287 . S
C2581 C2582 1.524 . S
C2581 H2584 0.999 . S
C2582 H2552 0.950 . S
C2582 C2581 1.524 . S
C2582 C2583 1.415 . S
C2583 H2553 0.950 . S
C2583 C2578 1.363 . S
C2583 C2582 1.415 . S
H2584 C2581 0.999 . S
H2585 C2566 0.913 . S
H2586 C2604 0.951 . S
H2587 C2606 0.951 . S
H2588 C2608 0.950 . S
H2589 C2609 0.950 . S
H2590 C2611 0.950 . S
H2591 C2614 0.950 . S
H2592 C2615 0.950 . S
H2593 C2617 0.950 . S
H2594 C2618 0.950 . S
H2595 C2619 0.951 . S
H2596 C2621 0.951 . S
H2597 C2623 0.950 . S
H2598 C2624 0.950 . S
H2599 C2626 0.950 . S
H2600 C2629 0.950 . S
H2601 C2630 0.950 . S
H2602 C2632 0.950 . S
H2603 C2633 0.950 . S
C2604 H2586 0.951 . S
C2604 C2605 1.366 . S
C2604 C2606 1.388 . S
C2605 C2604 1.366 . S
C2605 C2609 1.385 . S
C2606 H2587 0.951 . S
C2606 C2604 1.388 . S
C2606 C2607 1.366 . S
C2607 C2606 1.366 . S
C2607 C2608 1.414 . S
C2607 C2610 1.499 . S
C2608 H2588 0.950 . S
C2608 C2607 1.414 . S
C2608 C2609 1.374 . S
C2609 H2589 0.950 . S
C2609 C2605 1.385 . S
C2609 C2608 1.374 . S
C2610 C2607 1.499 . S
C2610 C2611 1.373 . S
C2610 C2612 1.389 . S
C2611 H2590 0.950 . S
C2611 C2610 1.373 . S
C2611 C2627 1.377 . S
C2612 C2610 1.389 . S
C2612 C2613 1.524 . S
C2612 C2626 1.377 . S
C2613 C2612 1.524 . S
C2613 C2614 1.397 . S
C2613 C2618 1.363 . S
C2614 H2591 0.950 . S
C2614 C2613 1.397 . S
C2614 C2615 1.334 . S
C2615 H2592 0.950 . S
C2615 C2614 1.334 . S
C2615 C2616 1.287 . S
C2616 C2615 1.287 . S
C2616 C2617 1.524 . S
C2616 H2635 0.913 . S
C2617 H2593 0.950 . S
C2617 C2616 1.524 . S
C2617 C2618 1.415 . S
C2618 H2594 0.950 . S
C2618 C2613 1.363 . S
C2618 C2617 1.415 . S
C2619 H2595 0.951 . S
C2619 C2620 1.366 . S
C2619 C2621 1.388 . S
C2620 C2619 1.366 . S
C2620 C2624 1.385 . S
C2621 H2596 0.951 . S
C2621 C2619 1.388 . S
C2621 C2622 1.366 . S
C2622 C2621 1.366 . S
C2622 C2623 1.414 . S
C2622 C2625 1.499 . S
C2623 H2597 0.950 . S
C2623 C2622 1.414 . S
C2623 C2624 1.374 . S
C2624 H2598 0.950 . S
C2624 C2620 1.385 . S
C2624 C2623 1.374 . S
C2625 C2622 1.499 . S
C2625 C2626 1.373 . S
C2625 C2627 1.389 . S
C2626 H2599 0.950 . S
C2626 C2612 1.377 . S
C2626 C2625 1.373 . S
C2627 C2611 1.377 . S
C2627 C2625 1.389 . S
C2627 C2628 1.524 . S
C2628 C2627 1.524 . S
C2628 C2629 1.397 . S
C2628 C2633 1.363 . S
C2629 H2600 0.950 . S
C2629 C2628 1.397 . S
C2629 C2630 1.334 . S
C2630 H2601 0.950 . S
C2630 C2629 1.334 . S
C2630 C2631 1.287 . S
C2631 C2630 1.287 . S
C2631 C2632 1.524 . S
C2631 H2634 0.999 . S
C2632 H2602 0.950 . S
C2632 C2631 1.524 . S
C2632 C2633 1.415 . S
C2633 H2603 0.950 . S
C2633 C2628 1.363 . S
C2633 C2632 1.415 . S
H2634 C2631 0.999 . S
H2635 C2616 0.913 . S
H2636 C2654 0.951 . S
H2637 C2656 0.951 . S
H2638 C2658 0.950 . S
H2639 C2659 0.950 . S
H2640 C2661 0.950 . S
H2641 C2664 0.950 . S
H2642 C2665 0.950 . S
H2643 C2667 0.950 . S
H2644 C2668 0.950 . S
H2645 C2669 0.951 . S
H2646 C2671 0.951 . S
H2647 C2673 0.950 . S
H2648 C2674 0.950 . S
H2649 C2676 0.950 . S
H2650 C2679 0.950 . S
H2651 C2680 0.950 . S
H2652 C2682 0.950 . S
H2653 C2683 0.950 . S
C2654 H2636 0.951 . S
C2654 C2655 1.366 . S
C2654 C2656 1.388 . S
C2655 C2654 1.366 . S
C2655 C2659 1.385 . S
C2656 H2637 0.951 . S
C2656 C2654 1.388 . S
C2656 C2657 1.366 . S
C2657 C2656 1.366 . S
C2657 C2658 1.414 . S
C2657 C2660 1.499 . S
C2658 H2638 0.950 . S
C2658 C2657 1.414 . S
C2658 C2659 1.374 . S
C2659 H2639 0.950 . S
C2659 C2655 1.385 . S
C2659 C2658 1.374 . S
C2660 C2657 1.499 . S
C2660 C2661 1.373 . S
C2660 C2662 1.389 . S
C2661 H2640 0.950 . S
C2661 C2660 1.373 . S
C2661 C2677 1.377 . S
C2662 C2660 1.389 . S
C2662 C2663 1.524 . S
C2662 C2676 1.377 . S
C2663 C2662 1.524 . S
C2663 C2664 1.397 . S
C2663 C2668 1.363 . S
C2664 H2641 0.950 . S
C2664 C2663 1.397 . S
C2664 C2665 1.334 . S
C2665 H2642 0.950 . S
C2665 C2664 1.334 . S
C2665 C2666 1.287 . S
C2666 C2665 1.287 . S
C2666 C2667 1.524 . S
C2666 H2685 0.913 . S
C2667 H2643 0.950 . S
C2667 C2666 1.524 . S
C2667 C2668 1.415 . S
C2668 H2644 0.950 . S
C2668 C2663 1.363 . S
C2668 C2667 1.415 . S
C2669 H2645 0.951 . S
C2669 C2670 1.366 . S
C2669 C2671 1.388 . S
C2670 C2669 1.366 . S
C2670 C2674 1.385 . S
C2671 H2646 0.951 . S
C2671 C2669 1.388 . S
C2671 C2672 1.366 . S
C2672 C2671 1.366 . S
C2672 C2673 1.414 . S
C2672 C2675 1.499 . S
C2673 H2647 0.950 . S
C2673 C2672 1.414 . S
C2673 C2674 1.374 . S
C2674 H2648 0.950 . S
C2674 C2670 1.385 . S
C2674 C2673 1.374 . S
C2675 C2672 1.499 . S
C2675 C2676 1.373 . S
C2675 C2677 1.389 . S
C2676 H2649 0.950 . S
C2676 C2662 1.377 . S
C2676 C2675 1.373 . S
C2677 C2661 1.377 . S
C2677 C2675 1.389 . S
C2677 C2678 1.524 . S
C2678 C2677 1.524 . S
C2678 C2679 1.397 . S
C2678 C2683 1.363 . S
C2679 H2650 0.950 . S
C2679 C2678 1.397 . S
C2679 C2680 1.334 . S
C2680 H2651 0.950 . S
C2680 C2679 1.334 . S
C2680 C2681 1.287 . S
C2681 C2680 1.287 . S
C2681 C2682 1.524 . S
C2681 H2684 0.999 . S
C2682 H2652 0.950 . S
C2682 C2681 1.524 . S
C2682 C2683 1.415 . S
C2683 H2653 0.950 . S
C2683 C2678 1.363 . S
C2683 C2682 1.415 . S
H2684 C2681 0.999 . S
H2685 C2666 0.913 . S
H2686 C2704 0.951 . S
H2687 C2706 0.951 . S
H2688 C2708 0.950 . S
H2689 C2709 0.950 . S
H2690 C2711 0.950 . S
H2691 C2714 0.950 . S
H2692 C2715 0.950 . S
H2693 C2717 0.950 . S
H2694 C2718 0.950 . S
H2695 C2719 0.951 . S
H2696 C2721 0.951 . S
H2697 C2723 0.950 . S
H2698 C2724 0.950 . S
H2699 C2726 0.950 . S
H2700 C2729 0.950 . S
H2701 C2730 0.950 . S
H2702 C2732 0.950 . S
H2703 C2733 0.950 . S
C2704 H2686 0.951 . S
C2704 C2705 1.366 . S
C2704 C2706 1.388 . S
C2705 C2704 1.366 . S
C2705 C2709 1.385 . S
C2706 H2687 0.951 . S
C2706 C2704 1.388 . S
C2706 C2707 1.366 . S
C2707 C2706 1.366 . S
C2707 C2708 1.414 . S
C2707 C2710 1.499 . S
C2708 H2688 0.950 . S
C2708 C2707 1.414 . S
C2708 C2709 1.374 . S
C2709 H2689 0.950 . S
C2709 C2705 1.385 . S
C2709 C2708 1.374 . S
C2710 C2707 1.499 . S
C2710 C2711 1.373 . S
C2710 C2712 1.389 . S
C2711 H2690 0.950 . S
C2711 C2710 1.373 . S
C2711 C2727 1.377 . S
C2712 C2710 1.389 . S
C2712 C2713 1.524 . S
C2712 C2726 1.377 . S
C2713 C2712 1.524 . S
C2713 C2714 1.397 . S
C2713 C2718 1.363 . S
C2714 H2691 0.950 . S
C2714 C2713 1.397 . S
C2714 C2715 1.334 . S
C2715 H2692 0.950 . S
C2715 C2714 1.334 . S
C2715 C2716 1.287 . S
C2716 C2715 1.287 . S
C2716 C2717 1.524 . S
C2716 H2735 0.913 . S
C2717 H2693 0.950 . S
C2717 C2716 1.524 . S
C2717 C2718 1.415 . S
C2718 H2694 0.950 . S
C2718 C2713 1.363 . S
C2718 C2717 1.415 . S
C2719 H2695 0.951 . S
C2719 C2720 1.366 . S
C2719 C2721 1.388 . S
C2720 C2719 1.366 . S
C2720 C2724 1.385 . S
C2721 H2696 0.951 . S
C2721 C2719 1.388 . S
C2721 C2722 1.366 . S
C2722 C2721 1.366 . S
C2722 C2723 1.414 . S
C2722 C2725 1.499 . S
C2723 H2697 0.950 . S
C2723 C2722 1.414 . S
C2723 C2724 1.374 . S
C2724 H2698 0.950 . S
C2724 C2720 1.385 . S
C2724 C2723 1.374 . S
C2725 C2722 1.499 . S
C2725 C2726 1.373 . S
C2725 C2727 1.389 . S
C2726 H2699 0.950 . S
C2726 C2712 1.377 . S
C2726 C2725 1.373 . S
C2727 C2711 1.377 . S
C2727 C2725 1.389 . S
C2727 C2728 1.524 . S
C2728 C2727 1.524 . S
C2728 C2729 1.397 . S
C2728 C2733 1.363 . S
C2729 H2700 0.950 . S
C2729 C2728 1.397 . S
C2729 C2730 1.334 . S
C2730 H2701 0.950 . S
C2730 C2729 1.334 . S
C2730 C2731 1.287 . S
C2731 C2730 1.287 . S
C2731 C2732 1.524 . S
C2731 H2734 0.999 . S
C2732 H2702 0.950 . S
C2732 C2731 1.524 . S
C2732 C2733 1.415 . S
C2733 H2703 0.950 . S
C2733 C2728 1.363 . S
C2733 C2732 1.415 . S
H2734 C2731 0.999 . S
H2735 C2716 0.913 . S
H2736 C2754 0.951 . S
H2737 C2756 0.951 . S
H2738 C2758 0.950 . S
H2739 C2759 0.950 . S
H2740 C2761 0.950 . S
H2741 C2764 0.950 . S
H2742 C2765 0.950 . S
H2743 C2767 0.950 . S
H2744 C2768 0.950 . S
H2745 C2769 0.951 . S
H2746 C2771 0.951 . S
H2747 C2773 0.950 . S
H2748 C2774 0.950 . S
H2749 C2776 0.950 . S
H2750 C2779 0.950 . S
H2751 C2780 0.950 . S
H2752 C2782 0.950 . S
H2753 C2783 0.950 . S
C2754 H2736 0.951 . S
C2754 C2755 1.366 . S
C2754 C2756 1.388 . S
C2755 C2754 1.366 . S
C2755 C2759 1.385 . S
C2756 H2737 0.951 . S
C2756 C2754 1.388 . S
C2756 C2757 1.366 . S
C2757 C2756 1.366 . S
C2757 C2758 1.414 . S
C2757 C2760 1.499 . S
C2758 H2738 0.950 . S
C2758 C2757 1.414 . S
C2758 C2759 1.374 . S
C2759 H2739 0.950 . S
C2759 C2755 1.385 . S
C2759 C2758 1.374 . S
C2760 C2757 1.499 . S
C2760 C2761 1.373 . S
C2760 C2762 1.389 . S
C2761 H2740 0.950 . S
C2761 C2760 1.373 . S
C2761 C2777 1.377 . S
C2762 C2760 1.389 . S
C2762 C2763 1.524 . S
C2762 C2776 1.377 . S
C2763 C2762 1.524 . S
C2763 C2764 1.397 . S
C2763 C2768 1.363 . S
C2764 H2741 0.950 . S
C2764 C2763 1.397 . S
C2764 C2765 1.334 . S
C2765 H2742 0.950 . S
C2765 C2764 1.334 . S
C2765 C2766 1.287 . S
C2766 C2765 1.287 . S
C2766 C2767 1.524 . S
C2766 H2785 0.913 . S
C2767 H2743 0.950 . S
C2767 C2766 1.524 . S
C2767 C2768 1.415 . S
C2768 H2744 0.950 . S
C2768 C2763 1.363 . S
C2768 C2767 1.415 . S
C2769 H2745 0.951 . S
C2769 C2770 1.366 . S
C2769 C2771 1.388 . S
C2770 C2769 1.366 . S
C2770 C2774 1.385 . S
C2771 H2746 0.951 . S
C2771 C2769 1.388 . S
C2771 C2772 1.366 . S
C2772 C2771 1.366 . S
C2772 C2773 1.414 . S
C2772 C2775 1.499 . S
C2773 H2747 0.950 . S
C2773 C2772 1.414 . S
C2773 C2774 1.374 . S
C2774 H2748 0.950 . S
C2774 C2770 1.385 . S
C2774 C2773 1.374 . S
C2775 C2772 1.499 . S
C2775 C2776 1.373 . S
C2775 C2777 1.389 . S
C2776 H2749 0.950 . S
C2776 C2762 1.377 . S
C2776 C2775 1.373 . S
C2777 C2761 1.377 . S
C2777 C2775 1.389 . S
C2777 C2778 1.524 . S
C2778 C2777 1.524 . S
C2778 C2779 1.397 . S
C2778 C2783 1.363 . S
C2779 H2750 0.950 . S
C2779 C2778 1.397 . S
C2779 C2780 1.334 . S
C2780 H2751 0.950 . S
C2780 C2779 1.334 . S
C2780 C2781 1.287 . S
C2781 C2780 1.287 . S
C2781 C2782 1.524 . S
C2781 H2784 0.999 . S
C2782 H2752 0.950 . S
C2782 C2781 1.524 . S
C2782 C2783 1.415 . S
C2783 H2753 0.950 . S
C2783 C2778 1.363 . S
C2783 C2782 1.415 . S
H2784 C2781 0.999 . S
H2785 C2766 0.913 . S
H2786 C2804 0.951 . S
H2787 C2806 0.951 . S
H2788 C2808 0.950 . S
H2789 C2809 0.950 . S
H2790 C2811 0.950 . S
H2791 C2814 0.950 . S
H2792 C2815 0.950 . S
H2793 C2817 0.950 . S
H2794 C2818 0.950 . S
H2795 C2819 0.951 . S
H2796 C2821 0.951 . S
H2797 C2823 0.950 . S
H2798 C2824 0.950 . S
H2799 C2826 0.950 . S
H2800 C2829 0.950 . S
H2801 C2830 0.950 . S
H2802 C2832 0.950 . S
H2803 C2833 0.950 . S
C2804 H2786 0.951 . S
C2804 C2805 1.366 . S
C2804 C2806 1.388 . S
C2805 C2804 1.366 . S
C2805 C2809 1.385 . S
C2806 H2787 0.951 . S
C2806 C2804 1.388 . S
C2806 C2807 1.366 . S
C2807 C2806 1.366 . S
C2807 C2808 1.414 . S
C2807 C2810 1.499 . S
C2808 H2788 0.950 . S
C2808 C2807 1.414 . S
C2808 C2809 1.374 . S
C2809 H2789 0.950 . S
C2809 C2805 1.385 . S
C2809 C2808 1.374 . S
C2810 C2807 1.499 . S
C2810 C2811 1.373 . S
C2810 C2812 1.389 . S
C2811 H2790 0.950 . S
C2811 C2810 1.373 . S
C2811 C2827 1.377 . S
C2812 C2810 1.389 . S
C2812 C2813 1.524 . S
C2812 C2826 1.377 . S
C2813 C2812 1.524 . S
C2813 C2814 1.397 . S
C2813 C2818 1.363 . S
C2814 H2791 0.950 . S
C2814 C2813 1.397 . S
C2814 C2815 1.334 . S
C2815 H2792 0.950 . S
C2815 C2814 1.334 . S
C2815 C2816 1.287 . S
C2816 C2815 1.287 . S
C2816 C2817 1.524 . S
C2816 H2835 0.913 . S
C2817 H2793 0.950 . S
C2817 C2816 1.524 . S
C2817 C2818 1.415 . S
C2818 H2794 0.950 . S
C2818 C2813 1.363 . S
C2818 C2817 1.415 . S
C2819 H2795 0.951 . S
C2819 C2820 1.366 . S
C2819 C2821 1.388 . S
C2820 C2819 1.366 . S
C2820 C2824 1.385 . S
C2821 H2796 0.951 . S
C2821 C2819 1.388 . S
C2821 C2822 1.366 . S
C2822 C2821 1.366 . S
C2822 C2823 1.414 . S
C2822 C2825 1.499 . S
C2823 H2797 0.950 . S
C2823 C2822 1.414 . S
C2823 C2824 1.374 . S
C2824 H2798 0.950 . S
C2824 C2820 1.385 . S
C2824 C2823 1.374 . S
C2825 C2822 1.499 . S
C2825 C2826 1.373 . S
C2825 C2827 1.389 . S
C2826 H2799 0.950 . S
C2826 C2812 1.377 . S
C2826 C2825 1.373 . S
C2827 C2811 1.377 . S
C2827 C2825 1.389 . S
C2827 C2828 1.524 . S
C2828 C2827 1.524 . S
C2828 C2829 1.397 . S
C2828 C2833 1.363 . S
C2829 H2800 0.950 . S
C2829 C2828 1.397 . S
C2829 C2830 1.334 . S
C2830 H2801 0.950 . S
C2830 C2829 1.334 . S
C2830 C2831 1.287 . S
C2831 C2830 1.287 . S
C2831 C2832 1.524 . S
C2831 H2834 0.999 . S
C2832 H2802 0.950 . S
C2832 C2831 1.524 . S
C2832 C2833 1.415 . S
C2833 H2803 0.950 . S
C2833 C2828 1.363 . S
C2833 C2832 1.415 . S
H2834 C2831 0.999 . S
H2835 C2816 0.913 . S
C470 C295 2.038 . S
C455 N2 2.148 . S
C520 C297 1.977 . S
C505 C7 1.969 . S
C570 C324 1.821 . S
C555 N12 1.818 . S
C605 C16 2.349 . S
C620 C345 2.380 . S
C670 C365 2.196 . S
C655 C30 2.185 . S
C720 C395 1.662 . S
C705 N35 1.706 . S
C755 C39 2.210 . S
C770 C397 2.207 . S
C820 C435 1.951 . S
C805 N25 1.956 . S
C870 C277 1.309 . S
C855 N58 1.260 . S
C905 N81 1.087 . S
C920 C302 1.108 . S
C970 C332 1.051 . S
C955 N104 1.044 . S
C1005 N127 1.617 . S
C1020 C344 1.560 . S
C1070 C364 0.756 . S
C1055 N48 0.759 . S
C1120 C377 1.658 . S
C1105 N71 1.642 . S
C1155 N94 0.473 . S
C1170 C402 0.440 . S
C1220 C417 1.722 . S
C1205 N117 1.700 . S
C1255 C85 1.670 . S
C1270 C282 1.639 . S
C1305 C122 1.682 . S
C1320 C372 1.634 . S
C1355 C53 1.457 . S
C1370 C382 1.418 . S
C1420 C415 1.533 . S
C1405 C76 1.616 . S
C1470 C422 1.513 . S
C1455 C99 1.549 1_565 S
C1520 C325 1.957 . S
C1505 C131 1.928 . S
C1570 C352 0.880 . S
C1555 C62 0.894 . S
C1605 C108 0.724 . S
C1620 C315 0.729 . S
C1670 C424 2.128 . S
C1655 N140 2.232 . S
C1705 C145 2.156 . S
C1720 C357 2.163 . S
C1770 C384 1.728 . S
C1755 N150 1.730 . S
C1805 C154 2.153 . S
C1820 C405 2.183 . S
C1870 C305 1.986 . S
C1855 C168 1.974 . S
C1905 N173 1.646 . S
C1920 C335 1.638 . S
C1970 C337 2.394 . S
C1955 C177 2.397 . S
C2020 C284 1.987 . S
C2005 N163 2.023 . S
C2070 C432 1.413 . S
C2055 C200 1.449 . S
C2120 C362 1.595 . S
C2105 N219 1.585 . S
C2155 N242 1.171 . S
C2170 C392 1.184 . S
C2220 C404 1.489 . S
C2205 C269 1.597 . S
C2270 C304 0.674 . S
C2255 C191 0.648 . S
C2305 N209 1.835 . S
C2320 C317 1.856 . S
C2355 N232 0.843 . S
C2370 C342 0.837 . S
C2405 C260 1.777 . S
C2420 C292 1.719 . S
C2455 C223 1.792 . S
C2470 C425 1.820 . S
C2505 N255 1.087 . S
C2520 C312 1.120 . S
C2555 N186 1.154 . S
C2570 C322 1.160 . S
C2620 C355 1.599 . S
C2605 C214 1.700 . S
C2670 C285 1.587 . S
C2655 C237 1.586 . S
C2720 C385 1.585 . S
C2705 N265 1.548 . S
C2770 C412 0.489 . S
C2755 N196 0.547 . S
C2820 C375 0.742 . S
C2805 C246 0.738 . S
