# Generated by pormake.
# Topology pth, (4,4)-cn, num edge types: 1
# Building blocks:
#     Node 0, Type 0, BuildingBlock: UXUYUI_clean_sbu_0, # of connection points: 4
#     Node 1, Type 0, BuildingBlock: UXUYUI_clean_sbu_0, # of connection points: 4
#     Node 2, Type 0, BuildingBlock: UXUYUI_clean_sbu_0, # of connection points: 4
#     Node 3, Type 1, BuildingBlock: NAWXER_clean_sbu_0, # of connection points: 4
#     Node 4, Type 1, BuildingBlock: NAWXER_clean_sbu_0, # of connection points: 4
#     Node 5, Type 1, BuildingBlock: NAWXER_clean_sbu_0, # of connection points: 4
#     Edge 6, Type (0, 1), BuildingBlock: XUDNAN_clean_linker_2, # of connection points: 2
#     Edge 7, Type (0, 1), BuildingBlock: XUDNAN_clean_linker_2, # of connection points: 2
#     Edge 8, Type (0, 1), BuildingBlock: XUDNAN_clean_linker_2, # of connection points: 2
#     Edge 9, Type (0, 1), BuildingBlock: XUDNAN_clean_linker_2, # of connection points: 2
#     Edge 10, Type (0, 1), BuildingBlock: XUDNAN_clean_linker_2, # of connection points: 2
#     Edge 11, Type (0, 1), BuildingBlock: XUDNAN_clean_linker_2, # of connection points: 2
#     Edge 12, Type (0, 1), BuildingBlock: XUDNAN_clean_linker_2, # of connection points: 2
#     Edge 13, Type (0, 1), BuildingBlock: XUDNAN_clean_linker_2, # of connection points: 2
#     Edge 14, Type (0, 1), BuildingBlock: XUDNAN_clean_linker_2, # of connection points: 2
#     Edge 15, Type (0, 1), BuildingBlock: XUDNAN_clean_linker_2, # of connection points: 2
#     Edge 16, Type (0, 1), BuildingBlock: XUDNAN_clean_linker_2, # of connection points: 2
#     Edge 17, Type (0, 1), BuildingBlock: XUDNAN_clean_linker_2, # of connection points: 2
# Relax obj value: 0.086
# Max RMSD: 0.218
# Mean RMSD: 0.120
data_MOF--net-pth--node1-UXUYUI_clean_sbu_0--node2-NAWXER_clean_sbu_0--edge1-XUDNAN_clean_linker_2
_symmetry_space_group_name_H-M    P1
_symmetry_Int_Tables_number       1
_symmetry_cell_setting            triclinic
loop_
_symmetry_equiv_pos_as_xyz
'x, y, z'
_cell_length_a     28.2467
_cell_length_b     28.24528
_cell_length_c     70.033289
_cell_angle_alpha  90.021994
_cell_angle_beta   89.974814
_cell_angle_gamma 119.98976
loop_
_atom_site_label
_atom_site_type_symbol
_atom_site_fract_x
_atom_site_fract_y
_atom_site_fract_z
_atom_type_partial_charge
Li0 Li 0.06122 0.04338 0.07212 0.0
Li1 Li 1.00151 0.04892 0.09636 0.0
Li2 Li 0.02683 0.97518 0.09734 0.0
Li3 Li 0.96049 0.97087 0.0736 0.0
C4 C 0.12793 0.09547 0.10207 0.0
N5 N 0.23612 0.17664 0.10534 0.0
C6 C 0.14121 0.14813 0.10777 0.0
C7 C 0.16973 0.08393 0.09834 0.0
C8 C 0.19612 0.18864 0.10927 0.0
C9 C 0.22415 0.12555 0.09997 0.0
C10 C 0.97508 0.08343 0.06208 0.0
C11 C 0.89915 0.09668 0.05455 0.0
N12 N 0.9348 0.14958 0.04988 0.0
C13 C 0.01094 0.13765 0.05688 0.0
C14 C 0.91872 0.06252 0.06063 0.0
C15 C 0.9898 0.17055 0.05088 0.0
C16 C 0.13342 0.0596 0.04136 0.0
N17 N 0.12122 0.08556 0.05522 0.0
C18 C 0.19386 0.17228 0.04479 0.0
C19 C 0.15029 0.14085 0.05706 0.0
C20 C 0.20742 0.14673 0.03026 0.0
C21 C 0.1766 0.08948 0.0287 0.0
H22 H 0.10918 0.01567 0.03998 0.0
H23 H 0.13956 0.1607 0.06803 0.0
C24 C 0.96051 0.0762 0.12868 0.0
N25 N 0.98809 0.09678 0.11204 0.0
C26 C 0.94986 0.10888 0.14086 0.0
C27 C 0.99891 0.1846 0.11919 0.0
C28 C 0.00773 0.15008 0.10722 0.0
C29 C 0.96914 0.1638 0.13615 0.0
H30 H 0.9472 0.03446 0.13266 0.0
H31 H 0.03132 0.16621 0.09432 0.0
C32 C 0.03844 0.9218 0.06788 0.0
N33 N 0.06343 0.83898 0.06583 0.0
C34 C 0.99715 0.86787 0.06471 0.0
C35 C 0.09256 0.93367 0.06969 0.0
C36 C 0.01056 0.82655 0.0638 0.0
C37 C 0.10434 0.89123 0.06871 0.0
C38 C 0.90226 0.94428 0.10858 0.0
C39 C 0.88212 0.8972 0.11981 0.0
C40 C 0.8686 0.96604 0.1044 0.0
C41 C 0.82824 0.87213 0.12639 0.0
C42 C 0.815 0.93985 0.11127 0.0
N43 N 0.79606 0.89377 0.122 0.0
C44 C 0.08585 0.95229 0.12521 0.0
C45 C 0.00579 0.87506 0.1135 0.0
C46 C 0.09641 0.91909 0.13718 0.0
N47 N 0.04135 0.92982 0.11361 0.0
C48 C 0.01477 0.84032 0.12522 0.0
C49 C 0.06067 0.86223 0.13727 0.0
H50 H 0.11291 0.99603 0.12531 0.0
H51 H 0.97034 0.85833 0.1043 0.0
C52 C 0.88841 0.93094 0.04131 0.0
N53 N 0.89736 0.92012 0.05947 0.0
C54 C 0.84585 0.89029 0.03043 0.0
C55 C 0.82181 0.82904 0.05735 0.0
C56 C 0.86464 0.87058 0.06763 0.0
C57 C 0.81281 0.83806 0.03832 0.0
H58 H 0.91559 0.97042 0.03503 0.0
H59 H 0.87349 0.86225 0.08182 0.0
O60 O 0.07434 0.05541 0.10035 0.0
O61 O 0.99512 0.05051 0.06785 0.0
O62 O 0.02596 0.96271 0.06915 0.0
O63 O 0.95483 0.96907 0.10189 0.0
H64 H 0.10953 0.15772 0.11095 0.0
H65 H 0.1603 0.04332 0.0942 0.0
H66 H 0.20694 0.22964 0.11355 0.0
H67 H 0.25686 0.11721 0.097 0.0
H68 H 0.85562 0.08105 0.05346 0.0
H69 H 0.05464 0.15435 0.05763 0.0
H70 H 0.89029 0.02022 0.06396 0.0
H71 H 0.01713 0.21274 0.047 0.0
H72 H 0.21677 0.21619 0.04671 0.0
H73 H 0.18489 0.06805 0.01755 0.0
H74 H 0.92766 0.09167 0.15401 0.0
H75 H 0.01473 0.22691 0.11516 0.0
H76 H 0.95514 0.85789 0.06309 0.0
H77 H 0.12514 0.97521 0.07179 0.0
H78 H 0.97893 0.7846 0.06149 0.0
H79 H 0.14603 0.89986 0.07019 0.0
H80 H 0.90773 0.88008 0.12336 0.0
H81 H 0.88398 0.00322 0.09622 0.0
H82 H 0.81204 0.83551 0.135 0.0
H83 H 0.78854 0.9563 0.10813 0.0
H84 H 0.13174 0.9379 0.14648 0.0
H85 H 0.98638 0.79675 0.12468 0.0
H86 H 0.84069 0.89877 0.01574 0.0
H87 H 0.79711 0.78956 0.06406 0.0
Li88 Li 0.98921 0.95902 0.4057 0.0
Li89 Li 0.05239 0.01938 0.43134 0.0
Li90 Li 0.9575 0.99786 0.4308 0.0
Li91 Li 0.0203 0.05987 0.4083 0.0
C92 C 0.96248 0.91992 0.45015 0.0
N93 N 0.91281 0.86952 0.48407 0.0
C94 C 0.98329 0.94653 0.46755 0.0
C95 C 0.91612 0.86779 0.45001 0.0
C96 C 0.9577 0.92033 0.48454 0.0
C97 C 0.89168 0.84297 0.46731 0.0
C98 C 0.1152 0.02974 0.40175 0.0
C99 C 0.21301 0.08392 0.40558 0.0
N100 N 0.21785 0.04038 0.40003 0.0
C101 C 0.12118 0.98561 0.39599 0.0
C102 C 0.1615 0.07939 0.40649 0.0
C103 C 0.1734 0.99179 0.39524 0.0
C104 C 0.98465 0.90898 0.37017 0.0
N105 N 0.97463 0.8997 0.3892 0.0
C106 C 0.94838 0.8057 0.38521 0.0
C107 C 0.95727 0.84948 0.39687 0.0
C108 C 0.95863 0.81404 0.36554 0.0
C109 C 0.97723 0.8665 0.35801 0.0
H110 H 0.99915 0.94958 0.36452 0.0
H111 H 0.9512 0.8436 0.41208 0.0
C112 C 0.13711 0.06208 0.46049 0.0
N113 N 0.10957 0.02308 0.44702 0.0
C114 C 0.17343 0.05728 0.47291 0.0
C115 C 0.15326 0.97345 0.4569 0.0
C116 C 0.11721 0.97955 0.44501 0.0
C117 C 0.18092 0.01177 0.47145 0.0
H118 H 0.12925 0.09557 0.46215 0.0
H119 H 0.09385 0.94853 0.43448 0.0
C120 C 0.89105 0.97535 0.40062 0.0
N121 N 0.77953 0.93153 0.39656 0.0
C122 C 0.86623 0.00523 0.40635 0.0
C123 C 0.85915 0.9233 0.39272 0.0
C124 C 0.80979 0.9823 0.40422 0.0
C125 C 0.80284 0.90185 0.3908 0.0
C126 C 0.04046 0.12339 0.43704 0.0
C127 C 1.00218 0.14096 0.4379 0.0
C128 C 0.09614 0.16198 0.43606 0.0
C129 C 0.02031 0.19692 0.43764 0.0
C130 C 0.11263 0.21757 0.43579 0.0
N131 N 0.07469 0.23375 0.43658 0.0
C132 C 0.90418 0.01352 0.46242 0.0
C133 C 0.84753 0.93313 0.44481 0.0
C134 C 0.86179 1.00161 0.47525 0.0
N135 N 0.89622 0.97987 0.44739 0.0
C136 C 0.804 0.91961 0.45729 0.0
C137 C 0.81075 0.95414 0.47276 0.0
H138 H 0.94384 0.04921 0.46468 0.0
H139 H 0.84256 0.90594 0.43316 0.0
C140 C 0.08592 0.14743 0.38274 0.0
N141 N 0.03823 0.12256 0.3927 0.0
C142 C 0.09794 0.19163 0.37074 0.0
C143 C 0.01164 0.18389 0.37948 0.0
C144 C 1.00119 0.13972 0.39118 0.0
C145 C 0.06042 0.21037 0.36893 0.0
H146 H 0.11426 0.13242 0.38383 0.0
H147 H 0.96341 0.11914 0.39907 0.0
O148 O 0.98598 0.94578 0.43334 0.0
O149 O 0.06429 0.02422 0.40289 0.0
O150 O 0.9463 0.99704 0.40248 0.0
O151 O 0.02349 0.06874 0.43691 0.0
H152 H 0.01818 0.98742 0.46796 0.0
H153 H 0.89835 0.84712 0.4367 0.0
H154 H 0.97331 0.94055 0.4981 0.0
H155 H 0.85564 0.80277 0.4674 0.0
H156 H 0.24913 0.12203 0.40931 0.0
H157 H 0.08591 0.94678 0.39235 0.0
H158 H 0.15771 0.11396 0.41096 0.0
H159 H 0.17858 0.95788 0.39091 0.0
H160 H 0.93475 0.76598 0.39157 0.0
H161 H 0.98546 0.8744 0.34289 0.0
H162 H 0.19339 0.08744 0.48406 0.0
H163 H 0.15833 0.93819 0.455 0.0
H164 H 0.88998 0.0451 0.4128 0.0
H165 H 0.8776 0.89964 0.38814 0.0
H166 H 0.79 0.00476 0.40876 0.0
H167 H 0.77766 0.86158 0.38476 0.0
H168 H 0.95887 0.11175 0.43839 0.0
H169 H 0.12632 0.14919 0.43539 0.0
H170 H 0.99111 0.21106 0.43815 0.0
H171 H 0.15559 0.24785 0.43494 0.0
H172 H 0.86933 0.0287 0.48724 0.0
H173 H 0.76541 0.88262 0.45477 0.0
H174 H 0.13565 0.21004 0.36265 0.0
H175 H 0.9818 0.19724 0.37881 0.0
Li176 Li 0.04288 0.99828 0.73931 0.0
Li177 Li 0.04259 0.06214 0.76378 0.0
Li178 Li 0.96411 0.96338 0.76174 0.0
Li179 Li 0.97715 0.03148 0.73763 0.0
C180 C 0.08137 0.9814 0.77526 0.0
N181 N 0.15937 0.96046 0.79052 0.0
C182 C 0.13609 0.02271 0.77609 0.0
C183 C 0.06619 0.92963 0.78257 0.0
C184 C 0.17496 0.01129 0.78373 0.0
C185 C 0.10624 0.91979 0.79012 0.0
C186 C 0.09175 0.12692 0.73079 0.0
C187 C 0.12091 0.22283 0.73329 0.0
N188 N 0.16285 0.23457 0.72109 0.0
C189 C 0.13517 0.13991 0.71831 0.0
C190 C 0.08458 0.16867 0.73838 0.0
C191 C 0.17064 0.19458 0.71356 0.0
C192 C 0.07219 0.94267 0.71117 0.0
N193 N 0.09179 0.98257 0.72473 0.0
C194 C 0.1836 0.00435 0.71761 0.0
C195 C 0.14657 0.01402 0.72777 0.0
C196 C 0.16396 0.96178 0.70419 0.0
C197 C 0.10752 0.93105 0.70093 0.0
H198 H 0.02928 0.92006 0.70793 0.0
H199 H 0.16171 0.04725 0.73789 0.0
C200 C 0.06063 0.12598 0.79678 0.0
N201 N 0.08579 0.12069 0.78104 0.0
C202 C 0.08974 0.16839 0.80977 0.0
C203 C 0.17034 0.19885 0.79022 0.0
C204 C 0.13961 0.15607 0.77756 0.0
C205 C 0.14544 0.20545 0.8066 0.0
H206 H 0.01784 0.09715 0.79925 0.0
H207 H 0.15873 0.1513 0.7649 0.0
C208 C 0.94603 0.90176 0.72881 0.0
N209 N 0.91419 0.79465 0.71967 0.0
C210 C 0.91284 0.87686 0.71289 0.0
C211 C 0.96304 0.87208 0.74001 0.0
C212 C 0.89719 0.8227 0.70852 0.0
C213 C 0.94652 0.81804 0.73519 0.0
C214 C 0.92305 0.04722 0.76482 0.0
C215 C 0.86906 0.00824 0.76046 0.0
C216 C 0.93686 0.1015 0.76799 0.0
C217 C 0.82979 0.02436 0.75912 0.0
C218 C 0.89639 0.11598 0.76654 0.0
N219 N 0.84416 0.07745 0.76215 0.0
C220 C 0.92067 0.89551 0.7947 0.0
C221 C 0.86229 0.8688 0.76772 0.0
C222 C 0.87988 0.85304 0.80554 0.0
N223 N 0.91096 0.90278 0.77621 0.0
C224 C 0.82053 0.82601 0.77798 0.0
C225 C 0.82863 0.81824 0.79726 0.0
H226 H 0.95961 0.92351 0.80115 0.0
H227 H 0.85543 0.87566 0.75305 0.0
C228 C 0.94706 0.104 0.71861 0.0
N229 N 0.93632 0.05168 0.72079 0.0
C230 C 0.91426 0.11557 0.70675 0.0
C231 C 0.86014 0.01933 0.69953 0.0
C232 C 0.89353 0.00965 0.71167 0.0
C233 C 0.87001 0.0729 0.69696 0.0
H234 H 0.98028 0.13674 0.72634 0.0
H235 H 0.88483 0.96835 0.71404 0.0
O236 O 0.04263 0.992 0.76794 0.0
O237 O 0.05771 0.07373 0.73602 0.0
O238 O 0.96134 0.95464 0.73345 0.0
O239 O 0.96233 0.03247 0.76562 0.0
H240 H 0.14855 0.06307 0.77072 0.0
H241 H 0.02391 0.89735 0.78256 0.0
H242 H 0.21752 0.04285 0.78428 0.0
H243 H 0.09504 0.87986 0.79574 0.0
H244 H 0.11596 0.25555 0.73914 0.0
H245 H 0.14143 0.10811 0.71235 0.0
H246 H 0.05194 0.15943 0.74838 0.0
H247 H 0.20445 0.20523 0.70392 0.0
H248 H 0.22699 0.02944 0.72035 0.0
H249 H 0.09088 0.89891 0.69029 0.0
H250 H 0.0691 0.17154 0.82233 0.0
H251 H 0.21302 0.22681 0.78711 0.0
H252 H 0.89962 0.89908 0.70387 0.0
H253 H 0.98889 0.89072 0.75222 0.0
H254 H 0.87161 0.80301 0.69623 0.0
H255 H 0.95949 0.79472 0.74376 0.0
H256 H 0.85778 0.96618 0.75783 0.0
H257 H 0.97841 0.13219 0.77141 0.0
H258 H 0.78794 0.9947 0.75559 0.0
H259 H 0.90653 0.15788 0.76886 0.0
H260 H 0.88763 0.84886 0.82041 0.0
H261 H 0.7819 0.7998 0.77096 0.0
H262 H 0.92296 0.15738 0.70557 0.0
H263 H 0.82714 0.98501 0.69217 0.0
C264 C 0.9706 0.55064 0.27653 0.0
C265 C 0.971 0.42819 0.22798 0.0
O266 O 0.01985 0.56488 0.2717 0.0
Zn267 Zn 0.0578 0.53332 0.25218 0.0
O268 O 0.93114 0.50895 0.26885 0.0
Zn269 Zn 0.97312 0.49042 0.25233 0.0
O270 O 0.0112 0.45995 0.27202 0.0
O271 O 0.0999 0.51474 0.26878 0.0
O272 O 0.93142 0.42913 0.23615 0.0
O273 O 0.0202 0.46433 0.23243 0.0
O274 O 0.09926 0.59384 0.23565 0.0
O275 O 0.01033 0.55907 0.23247 0.0
C276 C 0.06037 0.47375 0.27676 0.0
C277 C 0.05941 0.5948 0.2277 0.0
C278 C 0.58821 0.04798 0.60936 0.0
C279 C 0.44202 0.00348 0.56305 0.0
O280 O 0.55525 0.99648 0.60766 0.0
Zn281 Zn 0.48458 0.9427 0.59122 0.0
O282 O 0.58112 0.08127 0.59923 0.0
Zn283 Zn 0.5163 0.02699 0.58585 0.0
O284 O 0.45551 0.99229 0.60844 0.0
O285 O 0.43069 0.90494 0.61056 0.0
O286 O 0.48082 0.05082 0.5674 0.0
O287 O 0.43979 0.96137 0.57086 0.0
O288 O 0.50896 0.90124 0.57659 0.0
O289 O 0.54948 0.98792 0.56809 0.0
C290 C 0.42622 0.94523 0.61627 0.0
C291 C 0.54318 0.93991 0.5661 0.0
C292 C 0.46819 0.41389 0.93868 0.0
C293 C 0.57249 0.552 0.88998 0.0
O294 O 0.45621 0.452 0.93745 0.0
Zn295 Zn 0.4799 0.52531 0.9215 0.0
O296 O 0.50553 0.41546 0.92804 0.0
Zn297 Zn 0.52332 0.48288 0.91474 0.0
O298 O 0.55792 0.54111 0.93717 0.0
O299 O 0.50993 0.58259 0.94101 0.0
O300 O 0.57983 0.51287 0.895 0.0
O301 O 0.53704 0.55968 0.89871 0.0
O302 O 0.41174 0.506 0.90851 0.0
O303 O 0.44938 0.45774 0.89899 0.0
C304 C 0.54988 0.57639 0.94585 0.0
C305 C 0.41066 0.46889 0.89787 0.0
H306 H 0.04291 0.26478 0.15047 0.0
H307 H 0.87107 0.14122 0.15114 0.0
H308 H 0.85262 0.19734 0.17373 0.0
H309 H 0.05233 0.29614 0.2001 0.0
H310 H 0.09921 0.36826 0.19715 0.0
H311 H 0.09852 0.3203 0.18004 0.0
H312 H 0.08228 0.37231 0.15269 0.0
H313 H 0.08306 0.42055 0.16972 0.0
H314 H 0.02518 0.38397 0.1541 0.0
H315 H 0.85298 0.26537 0.19654 0.0
H316 H 0.87217 0.33949 0.21921 0.0
H317 H 0.04469 0.41832 0.20481 0.0
C318 C 1.00134 0.25005 0.1552 0.0
C319 C 0.95826 0.1989 0.14903 0.0
C320 C 0.90455 0.18028 0.15577 0.0
C321 C 0.89369 0.21193 0.16852 0.0
C322 C 0.9371 0.26191 0.17449 0.0
C323 C 0.98989 0.28087 0.16814 0.0
C324 C 0.02944 0.3348 0.17755 0.0
C325 C 0.0724 0.32953 0.18942 0.0
C326 C 0.05658 0.38062 0.16262 0.0
C327 C 0.99063 0.34303 0.19024 0.0
C328 C 0.93752 0.30069 0.18809 0.0
C329 C 0.89438 0.29881 0.19833 0.0
C330 C 0.90576 0.3412 0.21118 0.0
C331 C 0.95997 0.3848 0.21384 0.0
C332 C 1.00285 0.38561 0.20313 0.0
H333 H 0.78097 0.02384 0.48921 0.0
H334 H 0.73783 0.85326 0.48735 0.0
H335 H 0.66299 0.83051 0.51027 0.0
H336 H 0.7576 0.02811 0.5393 0.0
H337 H 0.73028 0.07336 0.53672 0.0
H338 H 0.77923 0.07578 0.51969 0.0
H339 H 0.71154 0.0596 0.49213 0.0
H340 H 0.66233 0.05703 0.50908 0.0
H341 H 0.64371 1.00082 0.49288 0.0
H342 H 0.59431 0.8268 0.53414 0.0
H343 H 0.53686 0.8424 0.557 0.0
H344 H 0.62557 0.01556 0.54338 0.0
C345 C 0.75598 0.98171 0.49368 0.0
C346 C 0.76526 0.94032 0.48641 0.0
C347 C 0.73108 0.88559 0.49248 0.0
C348 C 0.68864 0.87229 0.50558 0.0
C349 C 0.68077 0.91414 0.51248 0.0
C350 C 0.71346 0.96773 0.50672 0.0
C351 C 0.69686 0.00514 0.51645 0.0
C352 C 0.74378 0.04812 0.52877 0.0
C353 C 0.67745 0.03223 0.50176 0.0
C354 C 0.64994 0.96427 0.52868 0.0
C355 C 0.64124 0.91199 0.52617 0.0
C356 C 0.60064 0.86755 0.53618 0.0
C357 C 0.56822 0.87684 0.54914 0.0
C358 C 0.57654 0.93016 0.55198 0.0
C359 C 0.6179 0.97425 0.5415 0.0
H360 H 0.82963 0.74686 0.82414 0.0
H361 H 0.72335 0.79681 0.79698 0.0
H362 H 0.64614 0.73012 0.81642 0.0
H363 H 0.72744 0.60162 0.82819 0.0
H364 H 0.75119 0.59399 0.85124 0.0
H365 H 0.79836 0.64402 0.8346 0.0
H366 H 0.82552 0.72004 0.85997 0.0
H367 H 0.77857 0.67026 0.8767 0.0
H368 H 0.77312 0.72956 0.87095 0.0
H369 H 0.58228 0.66372 0.83975 0.0
H370 H 0.53351 0.59852 0.8657 0.0
H371 H 0.67843 0.58762 0.87787 0.0
C372 C 0.79003 0.74355 0.82227 0.0
C373 C 0.78244 0.77674 0.80887 0.0
C374 C 0.72998 0.77117 0.80684 0.0
C375 C 0.68588 0.73356 0.81789 0.0
C376 C 0.69465 0.70151 0.83089 0.0
C377 C 0.74521 0.70576 0.83314 0.0
C378 C 0.74329 0.66694 0.84854 0.0
C379 C 0.75581 0.6241 0.84013 0.0
C380 C 0.78244 0.6986 0.86501 0.0
C381 C 0.68397 0.64101 0.85476 0.0
C382 C 0.65692 0.66177 0.84431 0.0
C383 C 0.60276 0.64669 0.84791 0.0
C384 C 0.5755 0.60977 0.86272 0.0
C385 C 0.60212 0.58786 0.87369 0.0
C386 C 0.6569 0.60311 0.86948 0.0
H387 H 0.98601 0.7733 0.15808 0.0
H388 H 0.15917 0.86937 0.14499 0.0
H389 H 0.17718 0.81068 0.16633 0.0
H390 H 1.00053 0.75048 0.2073 0.0
H391 H 0.94377 0.68142 0.20753 0.0
H392 H 0.94424 0.73052 0.19102 0.0
H393 H 0.93182 0.66605 0.16276 0.0
H394 H 0.93124 0.61669 0.17919 0.0
H395 H 0.97952 0.64181 0.15974 0.0
H396 H 0.17673 0.74278 0.18938 0.0
H397 H 0.15806 0.67004 0.21264 0.0
H398 H 0.98479 0.61655 0.21035 0.0
C399 C 0.02766 0.78165 0.15951 0.0
C400 C 0.07122 0.82612 0.14987 0.0
C401 C 0.12522 0.83609 0.15242 0.0
C402 C 0.13583 0.80275 0.16441 0.0
C403 C 0.09201 0.75947 0.17374 0.0
C404 C 0.03899 0.74874 0.17142 0.0
C405 C 0.99938 0.69999 0.18329 0.0
C406 C 0.97028 0.71662 0.19816 0.0
C407 C 0.95806 0.65338 0.17048 0.0
C408 C 0.0385 0.68515 0.19271 0.0
C409 C 0.0917 0.71999 0.18697 0.0
C410 C 0.13522 0.71511 0.19393 0.0
C411 C 0.12414 0.67364 0.20717 0.0
C412 C 0.06993 0.63743 0.21332 0.0
C413 C 0.02662 0.64332 0.20587 0.0
H414 H 0.28013 0.08608 0.4879 0.0
H415 H 0.15555 0.91416 0.48767 0.0
H416 H 0.20965 0.89463 0.51045 0.0
H417 H 0.39636 0.06671 0.49132 0.0
H418 H 0.43418 0.12327 0.50736 0.0
H419 H 0.38605 0.12475 0.49085 0.0
H420 H 0.33531 0.14 0.51889 0.0
H421 H 0.38342 0.13879 0.53548 0.0
H422 H 0.31121 0.09259 0.53859 0.0
H423 H 0.27612 0.89226 0.53254 0.0
H424 H 0.35088 0.90749 0.5541 0.0
H425 H 0.43332 0.08144 0.54155 0.0
C426 C 0.26414 0.04443 0.49275 0.0
C427 C 0.21388 1.00152 0.4857 0.0
C428 C 0.19449 0.94755 0.49241 0.0
C429 C 0.22474 0.93602 0.50549 0.0
C430 C 0.27425 0.97891 0.51192 0.0
C431 C 0.29387 0.03209 0.50593 0.0
C432 C 0.34841 0.07033 0.51534 0.0
C433 C 0.39394 0.09788 0.50032 0.0
C434 C 0.34432 0.11294 0.52782 0.0
C435 C 0.35619 0.03011 0.52744 0.0
C436 C 0.3128 0.97765 0.52514 0.0
C437 C 0.31031 0.93314 0.53454 0.0
C438 C 0.3532 0.94232 0.54675 0.0
C439 C 0.39816 0.9957 0.54958 0.0
C440 C 0.39957 0.04019 0.53973 0.0
H441 H 0.24856 0.2388 0.81988 0.0
H442 H 0.11509 0.27245 0.82483 0.0
H443 H 0.16884 0.34568 0.84823 0.0
H444 H 0.28645 0.25842 0.86891 0.0
H445 H 0.35863 0.28952 0.86416 0.0
H446 H 0.30998 0.24109 0.84751 0.0
H447 H 0.35282 0.31256 0.82032 0.0
H448 H 0.40163 0.36122 0.8369 0.0
H449 H 0.35861 0.37871 0.82315 0.0
H450 H 0.23826 0.4154 0.87156 0.0
H451 H 0.31557 0.47279 0.89317 0.0
H452 H 0.40196 0.39202 0.87233 0.0
C453 C 0.23083 0.26199 0.82568 0.0
C454 C 0.17771 0.25004 0.82046 0.0
C455 C 0.15559 0.28063 0.82873 0.0
C456 C 0.18592 0.32249 0.84194 0.0
C457 C 0.23824 0.33316 0.84678 0.0
C458 C 0.26036 0.30361 0.8389 0.0
C459 C 0.31673 0.32186 0.84676 0.0
C460 C 0.31799 0.27493 0.85747 0.0
C461 C 0.35999 0.34497 0.83083 0.0
C462 C 0.32298 0.36628 0.86033 0.0
C463 C 0.27751 0.37252 0.86015 0.0
C464 C 0.27411 0.41089 0.87178 0.0
C465 C 0.31821 0.44335 0.88398 0.0
C466 C 0.36487 0.437 0.88448 0.0
C467 C 0.36702 0.39809 0.87235 0.0
H468 H 0.75922 0.00836 0.69124 0.0
H469 H 0.89958 0.16157 0.67334 0.0
H470 H 0.8407 0.17668 0.65106 0.0
H471 H 0.70426 0.96654 0.64525 0.0
H472 H 0.63405 0.93435 0.65298 0.0
H473 H 0.68588 0.93922 0.66909 0.0
H474 H 0.65732 0.9885 0.69389 0.0
H475 H 0.60543 0.98392 0.6778 0.0
H476 H 0.65625 0.04947 0.68702 0.0
H477 H 0.76647 0.17214 0.62918 0.0
H478 H 0.68539 0.14558 0.6087 0.0
H479 H 0.59675 0.99304 0.63987 0.0
C480 C 0.77789 0.04517 0.68267 0.0
C481 C 0.83428 0.08376 0.68416 0.0
C482 C 0.8564 0.13173 0.67279 0.0
C483 C 0.82329 0.1406 0.65999 0.0
C484 C 0.7681 0.10117 0.65869 0.0
C485 C 0.7457 0.05433 0.66972 0.0
C486 C 0.68629 0.01635 0.66478 0.0
C487 C 0.67712 0.96086 0.65759 0.0
C488 C 0.64914 0.00916 0.68189 0.0
C489 C 0.67898 0.04846 0.64893 0.0
C490 C 0.72622 0.09775 0.64581 0.0
C491 C 0.72921 0.13374 0.63157 0.0
C492 C 0.68298 0.11843 0.62005 0.0
C493 C 0.63492 0.06724 0.62267 0.0
C494 C 0.63297 0.03239 0.63748 0.0
H495 H 0.73821 0.83583 0.01207 0.0
H496 H 0.79833 0.73543 0.03729 0.0
H497 H 0.7341 0.65754 0.01762 0.0
H498 H 0.5953 0.72763 0.00839 0.0
H499 H 0.58453 0.75091 0.98571 0.0
H500 H 0.63388 0.79915 1.00228 0.0
H501 H 0.70908 0.83153 0.97633 0.0
H502 H 0.65996 0.78351 0.95967 0.0
H503 H 0.72185 0.7821 0.96465 0.0
H504 H 0.66847 0.59238 0.99453 0.0
H505 H 0.6025 0.54153 0.96905 0.0
H506 H 0.58096 0.68107 0.95846 0.0
C507 C 0.73763 0.79736 0.01346 0.0
C508 C 0.77287 0.79157 0.02643 0.0
C509 C 0.77098 0.7406 0.0278 0.0
C510 C 0.73481 0.69612 0.01661 0.0
C511 C 0.70054 0.70302 1.00409 0.0
C512 C 0.70131 0.75212 1.00241 0.0
C513 C 0.6605 0.74818 0.98745 0.0
C514 C 0.6159 0.75699 0.99651 0.0
C515 C 0.6896 0.78874 0.97105 0.0
C516 C 0.63741 0.68945 0.98086 0.0
C517 C 0.66134 0.66445 0.99073 0.0
C518 C 0.64905 0.61125 0.9868 0.0
C519 C 0.61164 0.58279 0.97225 0.0
C520 C 0.58649 0.60728 0.96185 0.0
C521 C 0.59902 0.66114 0.96638 0.0
H522 H 0.02982 0.81164 0.33938 0.0
H523 H 0.86826 0.71263 0.3638 0.0
H524 H 0.85388 0.63471 0.3436 0.0
H525 H 0.99656 0.75788 0.2913 0.0
H526 H 0.06032 0.75904 0.2877 0.0
H527 H 0.05727 0.8075 0.30365 0.0
H528 H 0.09675 0.77562 0.33094 0.0
H529 H 0.09976 0.72694 0.3151 0.0
H530 H 0.06288 0.70425 0.33732 0.0
H531 H 0.85638 0.56846 0.32052 0.0
H532 H 0.87677 0.51626 0.29693 0.0
H533 H 0.03863 0.65657 0.28839 0.0
C534 C 0.99128 0.77365 0.3403 0.0
C535 C 0.94995 0.76803 0.35304 0.0
C536 C 0.9004 0.71754 0.35415 0.0
C537 C 0.89185 0.67321 0.34271 0.0
C538 C 0.93349 0.67991 0.33039 0.0
C539 C 0.98236 0.72869 0.32917 0.0
C540 C 0.02099 0.72442 0.31514 0.0
C541 C 0.03457 0.76459 0.29846 0.0
C542 C 0.07318 0.73333 0.32523 0.0
C543 C 0.98608 0.66568 0.30861 0.0
C544 C 0.93564 0.64096 0.3175 0.0
C545 C 0.89581 0.58726 0.31352 0.0
C546 C 0.90778 0.558 0.30008 0.0
C547 C 0.95936 0.58224 0.29089 0.0
C548 C 0.99905 0.63677 0.29532 0.0
H549 H 0.25727 0.03358 0.68487 0.0
H550 H 0.15471 0.86191 0.69877 0.0
H551 H 0.21385 0.8397 0.6792 0.0
H552 H 0.27917 0.01334 0.63656 0.0
H553 H 0.34902 0.06846 0.63575 0.0
H554 H 0.30149 0.07157 0.65211 0.0
H555 H 0.36604 0.0845 0.68039 0.0
H556 H 0.4139 0.08158 0.66409 0.0
H557 H 0.38814 0.03536 0.6841 0.0
H558 H 0.28158 0.83561 0.65718 0.0
H559 H 0.35172 0.84937 0.63338 0.0
H560 H 0.40935 0.02363 0.63308 0.0
C561 C 0.24796 0.99149 0.68405 0.0
C562 C 0.20167 0.94942 0.69339 0.0
C563 C 0.18996 0.89465 0.69167 0.0
C564 C 0.22341 0.88171 0.68066 0.0
C565 C 0.26833 0.92399 0.67142 0.0
C566 C 0.28066 0.97777 0.67296 0.0
C567 C 0.32952 0.01499 0.66068 0.0
C568 C 0.31384 0.04377 0.64537 0.0
C569 C 0.37722 0.05656 0.67306 0.0
C570 C 0.34228 0.97363 0.65185 0.0
C571 C 0.30682 0.92148 0.65839 0.0
C572 C 0.30978 0.87631 0.65202 0.0
C573 C 0.3498 0.88457 0.63848 0.0
C574 C 0.38613 0.93756 0.63134 0.0
C575 C 0.38234 0.98261 0.63827 0.0
H576 H 0.23275 0.24509 0.01415 0.0
H577 H 0.28346 0.12321 0.01511 0.0
H578 H 0.35685 0.17817 0.99194 0.0
H579 H 0.25576 0.27698 0.96476 0.0
H580 H 0.28041 0.34885 0.96815 0.0
H581 H 0.23248 0.29987 0.98483 0.0
H582 H 0.29928 0.35082 0.01269 0.0
H583 H 0.34739 0.40003 0.99609 0.0
H584 H 0.36822 0.36289 0.01163 0.0
H585 H 0.42495 0.24759 0.96809 0.0
H586 H 0.48025 0.3243 0.94596 0.0
H587 H 0.38457 0.39979 0.96187 0.0
C588 C 0.25965 0.23014 0.00974 0.0
C589 C 0.2523 0.17981 0.01654 0.0
C590 C 0.28784 0.16136 0.00997 0.0
C591 C 0.32988 0.19246 0.9969 0.0
C592 C 0.33593 0.24196 0.99053 0.0
C593 C 0.30172 0.2606 0.99679 0.0
C594 C 0.31612 0.31473 0.98773 0.0
C595 C 0.26836 0.30977 0.97565 0.0
C596 C 0.33382 0.35977 1.00294 0.0
C597 C 0.36372 0.32371 0.97533 0.0
C598 C 0.37476 0.28148 0.97708 0.0
C599 C 0.4167 0.28095 0.96668 0.0
C600 C 0.44791 0.32466 0.95415 0.0
C601 C 0.43694 0.36818 0.95217 0.0
C602 C 0.39434 0.36739 0.96303 0.0
H603 H 0.98741 0.22175 0.34606 0.0
H604 H 0.15867 0.30387 0.36233 0.0
H605 H 0.17717 0.37988 0.34054 0.0
H606 H 0.00732 0.26018 0.29688 0.0
H607 H 0.94907 0.26999 0.29555 0.0
H608 H 0.94935 0.22182 0.31232 0.0
H609 H 0.93099 0.27136 0.34003 0.0
H610 H 0.93057 0.31965 0.32334 0.0
H611 H 0.97631 0.3436 0.34351 0.0
H612 H 0.17718 0.44661 0.31674 0.0
H613 H 0.15858 0.49978 0.293 0.0
H614 H 0.98665 0.37559 0.29315 0.0
C615 C 0.02875 0.25594 0.34525 0.0
C616 C 0.0716 0.2566 0.35595 0.0
C617 C 0.12525 0.30187 0.35412 0.0
C618 C 0.13613 0.34546 0.34186 0.0
C619 C 0.09292 0.34338 0.33157 0.0
C620 C 0.04027 0.29988 0.33318 0.0
C621 C 1.00111 0.30765 0.32056 0.0
C622 C 0.97521 0.26221 0.30543 0.0
C623 C 0.95716 0.31076 0.33258 0.0
C624 C 0.03999 0.36233 0.31156 0.0
C625 C 0.09277 0.38218 0.31807 0.0
C626 C 0.13597 0.43156 0.31159 0.0
C627 C 0.12497 0.46144 0.29808 0.0
C628 C 0.07112 0.442 0.29123 0.0
C629 C 0.02818 0.39179 0.29816 0.0
loop_
_geom_bond_atom_site_label_1
_geom_bond_atom_site_label_2
_geom_bond_distance
_geom_bond_site_symmetry_2
_ccdc_geom_bond_type
Li0 N17 1.990 . S
Li0 O60 1.956 . S
Li0 O61 1.970 1_455 S
Li0 O62 1.961 1_545 S
Li1 N25 1.990 . S
Li1 O60 1.970 1_655 S
Li1 O61 1.956 . S
Li1 O63 1.961 1_545 S
Li2 N47 1.990 . S
Li2 O60 1.961 1_565 S
Li2 O62 1.956 . S
Li2 O63 1.970 1_455 S
Li3 N53 1.990 . S
Li3 O61 1.961 1_565 S
Li3 O62 1.970 1_655 S
Li3 O63 1.956 . S
C4 C6 1.348 . S
C4 C7 1.356 . S
C4 O60 1.325 . S
N5 C8 1.314 . S
N5 C9 1.279 . S
C6 C4 1.348 . S
C6 C8 1.353 . S
C6 H64 0.929 . S
C7 C4 1.356 . S
C7 C9 1.358 . S
C7 H65 0.930 . S
C8 N5 1.314 . S
C8 C6 1.353 . S
C8 H66 0.930 . S
C9 N5 1.279 . S
C9 C7 1.358 . S
C9 H67 0.930 . S
C10 C13 1.348 1_655 S
C10 C14 1.356 . S
C10 O61 1.325 . S
C11 N12 1.279 . S
C11 C14 1.358 . S
C11 H68 0.930 . S
N12 C11 1.279 . S
N12 C15 1.314 . S
C13 C10 1.348 1_455 S
C13 C15 1.353 1_455 S
C13 H69 0.929 . S
C14 C10 1.356 . S
C14 C11 1.358 . S
C14 H70 0.930 . S
C15 N12 1.314 . S
C15 C13 1.353 1_655 S
C15 H71 0.930 1_655 S
C16 N17 1.314 . S
C16 C21 1.353 . S
C16 H22 0.930 . S
N17 Li0 1.990 . S
N17 C16 1.314 . S
N17 C19 1.279 . S
C18 C19 1.358 . S
C18 C20 1.356 . S
C18 H72 0.930 . S
C19 N17 1.279 . S
C19 C18 1.358 . S
C19 H23 0.930 . S
C20 C18 1.356 . S
C20 C21 1.348 . S
C21 C16 1.353 . S
C21 C20 1.348 . S
C21 H73 0.929 . S
H22 C16 0.930 . S
H23 C19 0.930 . S
C24 N25 1.314 . S
C24 C26 1.353 . S
C24 H30 0.930 . S
N25 Li1 1.990 . S
N25 C24 1.314 . S
N25 C28 1.279 . S
C26 C24 1.353 . S
C26 C29 1.348 . S
C26 H74 0.929 . S
C27 C28 1.358 . S
C27 C29 1.356 . S
C27 H75 0.930 . S
C28 N25 1.279 . S
C28 C27 1.358 . S
C28 H31 0.930 . S
C29 C26 1.348 . S
C29 C27 1.356 . S
H30 C24 0.930 . S
H31 C28 0.930 . S
C32 C34 1.348 1_455 S
C32 C35 1.356 . S
C32 O62 1.325 . S
N33 C36 1.314 . S
N33 C37 1.279 . S
C34 C32 1.348 1_655 S
C34 C36 1.353 1_655 S
C34 H76 0.929 . S
C35 C32 1.356 . S
C35 C37 1.358 . S
C35 H77 0.930 . S
C36 N33 1.314 . S
C36 C34 1.353 1_455 S
C36 H78 0.930 1_455 S
C37 N33 1.279 . S
C37 C35 1.358 . S
C37 H79 0.930 . S
C38 C39 1.348 . S
C38 C40 1.356 . S
C38 O63 1.325 . S
C39 C38 1.348 . S
C39 C41 1.353 . S
C39 H80 0.929 . S
C40 C38 1.356 . S
C40 C42 1.358 . S
C40 H81 0.930 . S
C41 C39 1.353 . S
C41 N43 1.314 . S
C41 H82 0.930 . S
C42 C40 1.358 . S
C42 N43 1.279 . S
C42 H83 0.930 . S
N43 C41 1.314 . S
N43 C42 1.279 . S
C44 C46 1.353 . S
C44 N47 1.314 . S
C44 H50 0.930 . S
C45 N47 1.279 . S
C45 C48 1.358 . S
C45 H51 0.930 . S
C46 C44 1.353 . S
C46 C49 1.348 . S
C46 H84 0.929 . S
N47 Li2 1.990 . S
N47 C44 1.314 . S
N47 C45 1.279 . S
C48 C45 1.358 . S
C48 C49 1.356 . S
C48 H85 0.930 . S
C49 C46 1.348 . S
C49 C48 1.356 . S
H50 C44 0.930 . S
H51 C45 0.930 . S
C52 N53 1.314 . S
C52 C54 1.353 . S
C52 H58 0.930 . S
N53 Li3 1.990 . S
N53 C52 1.314 . S
N53 C56 1.279 . S
C54 C52 1.353 . S
C54 C57 1.348 . S
C54 H86 0.929 . S
C55 C56 1.358 . S
C55 C57 1.356 . S
C55 H87 0.930 . S
C56 N53 1.279 . S
C56 C55 1.358 . S
C56 H59 0.930 . S
C57 C54 1.348 . S
C57 C55 1.356 . S
H58 C52 0.930 . S
H59 C56 0.930 . S
O60 Li0 1.956 . S
O60 Li1 1.970 1_455 S
O60 Li2 1.961 1_545 S
O60 C4 1.325 . S
O61 Li0 1.970 1_655 S
O61 Li1 1.956 . S
O61 Li3 1.961 1_545 S
O61 C10 1.325 . S
O62 Li0 1.961 1_565 S
O62 Li2 1.956 . S
O62 Li3 1.970 1_455 S
O62 C32 1.325 . S
O63 Li1 1.961 1_565 S
O63 Li2 1.970 1_655 S
O63 Li3 1.956 . S
O63 C38 1.325 . S
H64 C6 0.929 . S
H65 C7 0.930 . S
H66 C8 0.930 . S
H67 C9 0.930 . S
H68 C11 0.930 . S
H69 C13 0.929 . S
H70 C14 0.930 . S
H71 C15 0.930 1_455 S
H72 C18 0.930 . S
H73 C21 0.929 . S
H74 C26 0.929 . S
H75 C27 0.930 . S
H76 C34 0.929 . S
H77 C35 0.930 . S
H78 C36 0.930 1_655 S
H79 C37 0.930 . S
H80 C39 0.929 . S
H81 C40 0.930 . S
H82 C41 0.930 . S
H83 C42 0.930 . S
H84 C46 0.929 . S
H85 C48 0.930 . S
H86 C54 0.929 . S
H87 C55 0.930 . S
Li88 N105 1.990 . S
Li88 O148 1.956 . S
Li88 O149 1.970 1_665 S
Li88 O150 1.961 . S
Li89 N113 1.990 . S
Li89 O148 1.970 1_445 S
Li89 O149 1.956 . S
Li89 O151 1.961 . S
Li90 N135 1.990 . S
Li90 O148 1.961 . S
Li90 O150 1.956 . S
Li90 O151 1.970 1_665 S
Li91 N141 1.990 . S
Li91 O149 1.961 . S
Li91 O150 1.970 1_445 S
Li91 O151 1.956 . S
C92 C94 1.348 1_655 S
C92 C95 1.356 . S
C92 O148 1.325 . S
N93 C96 1.314 . S
N93 C97 1.279 . S
C94 C92 1.348 1_455 S
C94 C96 1.353 1_455 S
C94 H152 0.929 . S
C95 C92 1.356 . S
C95 C97 1.358 . S
C95 H153 0.930 . S
C96 N93 1.314 . S
C96 C94 1.353 1_655 S
C96 H154 0.930 1_655 S
C97 N93 1.279 . S
C97 C95 1.358 . S
C97 H155 0.930 . S
C98 C101 1.348 1_545 S
C98 C102 1.356 . S
C98 O149 1.325 . S
C99 N100 1.279 . S
C99 C102 1.358 . S
C99 H156 0.930 . S
N100 C99 1.279 . S
N100 C103 1.314 . S
C101 C98 1.348 1_565 S
C101 C103 1.353 1_565 S
C101 H157 0.929 . S
C102 C98 1.356 . S
C102 C99 1.358 . S
C102 H158 0.930 . S
C103 N100 1.314 . S
C103 C101 1.353 1_545 S
C103 H159 0.930 1_545 S
C104 N105 1.314 . S
C104 C109 1.353 . S
C104 H110 0.930 . S
N105 Li88 1.990 . S
N105 C104 1.314 . S
N105 C107 1.279 . S
C106 C107 1.358 . S
C106 C108 1.356 . S
C106 H160 0.930 . S
C107 N105 1.279 . S
C107 C106 1.358 . S
C107 H111 0.930 . S
C108 C106 1.356 . S
C108 C109 1.348 . S
C109 C104 1.353 . S
C109 C108 1.348 . S
C109 H161 0.929 . S
H110 C104 0.930 . S
H111 C107 0.930 . S
C112 N113 1.314 . S
C112 C114 1.353 . S
C112 H118 0.930 . S
N113 Li89 1.990 . S
N113 C112 1.314 . S
N113 C116 1.279 . S
C114 C112 1.353 . S
C114 C117 1.348 . S
C114 H162 0.929 . S
C115 C116 1.358 . S
C115 C117 1.356 . S
C115 H163 0.930 . S
C116 N113 1.279 . S
C116 C115 1.358 . S
C116 H119 0.930 . S
C117 C114 1.348 . S
C117 C115 1.356 . S
H118 C112 0.930 . S
H119 C116 0.930 . S
C120 C122 1.348 1_565 S
C120 C123 1.356 . S
C120 O150 1.325 . S
N121 C124 1.314 . S
N121 C125 1.279 . S
C122 C120 1.348 1_545 S
C122 C124 1.353 1_545 S
C122 H164 0.929 . S
C123 C120 1.356 . S
C123 C125 1.358 . S
C123 H165 0.930 . S
C124 N121 1.314 . S
C124 C122 1.353 1_565 S
C124 H166 0.930 1_565 S
C125 N121 1.279 . S
C125 C123 1.358 . S
C125 H167 0.930 . S
C126 C127 1.348 1_455 S
C126 C128 1.356 . S
C126 O151 1.325 . S
C127 C126 1.348 1_655 S
C127 C129 1.353 1_655 S
C127 H168 0.929 . S
C128 C126 1.356 . S
C128 C130 1.358 . S
C128 H169 0.930 . S
C129 C127 1.353 1_455 S
C129 N131 1.314 . S
C129 H170 0.930 1_455 S
C130 C128 1.358 . S
C130 N131 1.279 . S
C130 H171 0.930 . S
N131 C129 1.314 . S
N131 C130 1.279 . S
C132 C134 1.353 . S
C132 N135 1.314 . S
C132 H138 0.930 . S
C133 N135 1.279 . S
C133 C136 1.358 . S
C133 H139 0.930 . S
C134 C132 1.353 . S
C134 C137 1.348 . S
C134 H172 0.929 . S
N135 Li90 1.990 . S
N135 C132 1.314 . S
N135 C133 1.279 . S
C136 C133 1.358 . S
C136 C137 1.356 . S
C136 H173 0.930 . S
C137 C134 1.348 . S
C137 C136 1.356 . S
H138 C132 0.930 . S
H139 C133 0.930 . S
C140 N141 1.314 . S
C140 C142 1.353 . S
C140 H146 0.930 . S
N141 Li91 1.990 . S
N141 C140 1.314 . S
N141 C144 1.279 . S
C142 C140 1.353 . S
C142 C145 1.348 . S
C142 H174 0.929 . S
C143 C144 1.358 . S
C143 C145 1.356 . S
C143 H175 0.930 . S
C144 N141 1.279 . S
C144 C143 1.358 . S
C144 H147 0.930 . S
C145 C142 1.348 . S
C145 C143 1.356 . S
H146 C140 0.930 . S
H147 C144 0.930 . S
O148 Li88 1.956 . S
O148 Li89 1.970 1_665 S
O148 Li90 1.961 . S
O148 C92 1.325 . S
O149 Li88 1.970 1_445 S
O149 Li89 1.956 . S
O149 Li91 1.961 . S
O149 C98 1.325 . S
O150 Li88 1.961 . S
O150 Li90 1.956 . S
O150 Li91 1.970 1_665 S
O150 C120 1.325 . S
O151 Li89 1.961 . S
O151 Li90 1.970 1_445 S
O151 Li91 1.956 . S
O151 C126 1.325 . S
H152 C94 0.929 . S
H153 C95 0.930 . S
H154 C96 0.930 1_455 S
H155 C97 0.930 . S
H156 C99 0.930 . S
H157 C101 0.929 . S
H158 C102 0.930 . S
H159 C103 0.930 1_565 S
H160 C106 0.930 . S
H161 C109 0.929 . S
H162 C114 0.929 . S
H163 C115 0.930 . S
H164 C122 0.929 . S
H165 C123 0.930 . S
H166 C124 0.930 1_545 S
H167 C125 0.930 . S
H168 C127 0.929 . S
H169 C128 0.930 . S
H170 C129 0.930 1_655 S
H171 C130 0.930 . S
H172 C134 0.929 . S
H173 C136 0.930 . S
H174 C142 0.929 . S
H175 C143 0.930 . S
Li176 N193 1.990 . S
Li176 O236 1.956 . S
Li176 O237 1.970 1_565 S
Li176 O238 1.961 1_455 S
Li177 N201 1.990 . S
Li177 O236 1.970 1_545 S
Li177 O237 1.956 . S
Li177 O239 1.961 1_455 S
Li178 N223 1.990 . S
Li178 O236 1.961 1_655 S
Li178 O238 1.956 . S
Li178 O239 1.970 1_565 S
Li179 N229 1.990 . S
Li179 O237 1.961 1_655 S
Li179 O238 1.970 1_545 S
Li179 O239 1.956 . S
C180 C182 1.348 1_565 S
C180 C183 1.356 . S
C180 O236 1.325 . S
N181 C184 1.314 . S
N181 C185 1.279 . S
C182 C180 1.348 1_545 S
C182 C184 1.353 1_545 S
C182 H240 0.929 . S
C183 C180 1.356 . S
C183 C185 1.358 . S
C183 H241 0.930 . S
C184 N181 1.314 . S
C184 C182 1.353 1_565 S
C184 H242 0.930 1_565 S
C185 N181 1.279 . S
C185 C183 1.358 . S
C185 H243 0.930 . S
C186 C189 1.348 . S
C186 C190 1.356 . S
C186 O237 1.325 . S
C187 N188 1.279 . S
C187 C190 1.358 . S
C187 H244 0.930 . S
N188 C187 1.279 . S
N188 C191 1.314 . S
C189 C186 1.348 . S
C189 C191 1.353 . S
C189 H245 0.929 . S
C190 C186 1.356 . S
C190 C187 1.358 . S
C190 H246 0.930 . S
C191 N188 1.314 . S
C191 C189 1.353 . S
C191 H247 0.930 . S
C192 N193 1.314 . S
C192 C197 1.353 . S
C192 H198 0.930 . S
N193 Li176 1.990 . S
N193 C192 1.314 . S
N193 C195 1.279 . S
C194 C195 1.358 . S
C194 C196 1.356 . S
C194 H248 0.930 . S
C195 N193 1.279 . S
C195 C194 1.358 . S
C195 H199 0.930 . S
C196 C194 1.356 . S
C196 C197 1.348 . S
C197 C192 1.353 . S
C197 C196 1.348 . S
C197 H249 0.929 . S
H198 C192 0.930 . S
H199 C195 0.930 . S
C200 N201 1.314 . S
C200 C202 1.353 . S
C200 H206 0.930 . S
N201 Li177 1.990 . S
N201 C200 1.314 . S
N201 C204 1.279 . S
C202 C200 1.353 . S
C202 C205 1.348 . S
C202 H250 0.929 . S
C203 C204 1.358 . S
C203 C205 1.356 . S
C203 H251 0.930 . S
C204 N201 1.279 . S
C204 C203 1.358 . S
C204 H207 0.930 . S
C205 C202 1.348 . S
C205 C203 1.356 . S
H206 C200 0.930 . S
H207 C204 0.930 . S
C208 C210 1.348 . S
C208 C211 1.356 . S
C208 O238 1.325 . S
N209 C212 1.314 . S
N209 C213 1.279 . S
C210 C208 1.348 . S
C210 C212 1.353 . S
C210 H252 0.929 . S
C211 C208 1.356 . S
C211 C213 1.358 . S
C211 H253 0.930 . S
C212 N209 1.314 . S
C212 C210 1.353 . S
C212 H254 0.930 . S
C213 N209 1.279 . S
C213 C211 1.358 . S
C213 H255 0.930 . S
C214 C215 1.348 1_545 S
C214 C216 1.356 . S
C214 O239 1.325 . S
C215 C214 1.348 1_565 S
C215 C217 1.353 1_565 S
C215 H256 0.929 . S
C216 C214 1.356 . S
C216 C218 1.358 . S
C216 H257 0.930 . S
C217 C215 1.353 1_545 S
C217 N219 1.314 . S
C217 H258 0.930 1_545 S
C218 C216 1.358 . S
C218 N219 1.279 . S
C218 H259 0.930 . S
N219 C217 1.314 . S
N219 C218 1.279 . S
C220 C222 1.353 . S
C220 N223 1.314 . S
C220 H226 0.930 . S
C221 N223 1.279 . S
C221 C224 1.358 . S
C221 H227 0.930 . S
C222 C220 1.353 . S
C222 C225 1.348 . S
C222 H260 0.929 . S
N223 Li178 1.990 . S
N223 C220 1.314 . S
N223 C221 1.279 . S
C224 C221 1.358 . S
C224 C225 1.356 . S
C224 H261 0.930 . S
C225 C222 1.348 . S
C225 C224 1.356 . S
H226 C220 0.930 . S
H227 C221 0.930 . S
C228 N229 1.314 . S
C228 C230 1.353 . S
C228 H234 0.930 . S
N229 Li179 1.990 . S
N229 C228 1.314 . S
N229 C232 1.279 . S
C230 C228 1.353 . S
C230 C233 1.348 . S
C230 H262 0.929 . S
C231 C232 1.358 . S
C231 C233 1.356 . S
C231 H263 0.930 . S
C232 N229 1.279 . S
C232 C231 1.358 . S
C232 H235 0.930 . S
C233 C230 1.348 . S
C233 C231 1.356 . S
H234 C228 0.930 . S
H235 C232 0.930 . S
O236 Li176 1.956 . S
O236 Li177 1.970 1_565 S
O236 Li178 1.961 1_455 S
O236 C180 1.325 . S
O237 Li176 1.970 1_545 S
O237 Li177 1.956 . S
O237 Li179 1.961 1_455 S
O237 C186 1.325 . S
O238 Li176 1.961 1_655 S
O238 Li178 1.956 . S
O238 Li179 1.970 1_565 S
O238 C208 1.325 . S
O239 Li177 1.961 1_655 S
O239 Li178 1.970 1_545 S
O239 Li179 1.956 . S
O239 C214 1.325 . S
H240 C182 0.929 . S
H241 C183 0.930 . S
H242 C184 0.930 1_545 S
H243 C185 0.930 . S
H244 C187 0.930 . S
H245 C189 0.929 . S
H246 C190 0.930 . S
H247 C191 0.930 . S
H248 C194 0.930 . S
H249 C197 0.929 . S
H250 C202 0.929 . S
H251 C203 0.930 . S
H252 C210 0.929 . S
H253 C211 0.930 . S
H254 C212 0.930 . S
H255 C213 0.930 . S
H256 C215 0.929 . S
H257 C216 0.930 . S
H258 C217 0.930 1_565 S
H259 C218 0.930 . S
H260 C222 0.929 . S
H261 C224 0.930 . S
H262 C230 0.929 . S
H263 C231 0.930 . S
C264 O266 1.252 . S
C264 O268 1.255 1_455 S
C265 O272 1.247 . S
C265 O273 1.258 1_655 S
O266 C264 1.252 . S
O266 Zn267 2.028 . S
Zn267 O266 2.028 . S
Zn267 O271 2.035 . S
Zn267 O273 2.035 . S
Zn267 O274 2.028 . S
O268 C264 1.255 1_655 S
O268 Zn269 2.035 . S
Zn269 O268 2.035 . S
Zn269 O270 2.028 . S
Zn269 O272 2.028 . S
Zn269 O275 2.035 . S
O270 Zn269 2.028 . S
O270 C276 1.247 . S
O271 Zn267 2.035 . S
O271 C276 1.258 1_455 S
O272 C265 1.247 . S
O272 Zn269 2.028 . S
O273 C265 1.258 1_455 S
O273 Zn267 2.035 . S
O274 Zn267 2.028 . S
O274 C277 1.252 . S
O275 Zn269 2.035 . S
O275 C277 1.255 1_655 S
C276 O270 1.247 . S
C276 O271 1.258 1_655 S
C277 O274 1.252 . S
C277 O275 1.255 1_455 S
C278 O280 1.247 . S
C278 O282 1.258 1_565 S
C279 O286 1.250 . S
C279 O287 1.253 1_545 S
O280 C278 1.247 . S
O280 Zn281 2.028 . S
Zn281 O280 2.028 . S
Zn281 O285 2.035 . S
Zn281 O287 2.035 . S
Zn281 O288 2.028 . S
O282 C278 1.258 1_545 S
O282 Zn283 2.035 . S
Zn283 O282 2.035 . S
Zn283 O284 2.028 . S
Zn283 O286 2.028 . S
Zn283 O289 2.035 . S
O284 Zn283 2.028 . S
O284 C290 1.250 . S
O285 Zn281 2.035 . S
O285 C290 1.253 1_565 S
O286 C279 1.250 . S
O286 Zn283 2.028 . S
O287 C279 1.253 1_565 S
O287 Zn281 2.035 . S
O288 Zn281 2.028 . S
O288 C291 1.247 . S
O289 Zn283 2.035 . S
O289 C291 1.258 1_545 S
C290 O284 1.250 . S
C290 O285 1.253 1_545 S
C291 O288 1.247 . S
C291 O289 1.258 1_565 S
C292 O294 1.247 . S
C292 O296 1.258 . S
C293 O300 1.247 . S
C293 O301 1.258 . S
O294 C292 1.247 . S
O294 Zn295 2.028 . S
Zn295 O294 2.028 . S
Zn295 O299 2.035 . S
Zn295 O301 2.035 . S
Zn295 O302 2.028 . S
O296 C292 1.258 . S
O296 Zn297 2.035 . S
Zn297 O296 2.035 . S
Zn297 O298 2.028 . S
Zn297 O300 2.028 . S
Zn297 O303 2.035 . S
O298 Zn297 2.028 . S
O298 C304 1.247 . S
O299 Zn295 2.035 . S
O299 C304 1.258 . S
O300 C293 1.247 . S
O300 Zn297 2.028 . S
O301 C293 1.258 . S
O301 Zn295 2.035 . S
O302 Zn295 2.028 . S
O302 C305 1.247 . S
O303 Zn297 2.035 . S
O303 C305 1.258 . S
C304 O298 1.247 . S
C304 O299 1.258 . S
C305 O302 1.247 . S
C305 O303 1.258 . S
H306 C318 0.930 1_455 S
H307 C320 0.930 . S
H308 C321 0.930 . S
H309 C325 0.959 . S
H310 C325 0.959 . S
H311 C325 0.961 . S
H312 C326 0.960 1_455 S
H313 C326 0.961 1_455 S
H314 C326 0.959 . S
H315 C329 0.929 . S
H316 C330 0.931 . S
H317 C332 0.930 . S
C318 H306 0.930 1_655 S
C318 C319 1.399 . S
C318 C323 1.399 . S
C319 C318 1.399 . S
C319 C320 1.376 . S
C320 H307 0.930 . S
C320 C319 1.376 . S
C320 C321 1.388 . S
C321 H308 0.930 . S
C321 C320 1.388 . S
C321 C322 1.390 . S
C322 C321 1.390 . S
C322 C323 1.394 . S
C322 C328 1.465 . S
C323 C318 1.399 . S
C323 C322 1.394 . S
C323 C324 1.516 1_655 S
C324 C323 1.516 1_455 S
C324 C325 1.502 . S
C324 C326 1.561 1_455 S
C324 C327 1.526 1_455 S
C325 H309 0.959 . S
C325 H310 0.959 . S
C325 H311 0.961 . S
C325 C324 1.502 . S
C326 H312 0.960 1_655 S
C326 H313 0.961 1_655 S
C326 H314 0.959 . S
C326 C324 1.561 1_655 S
C327 C324 1.526 1_655 S
C327 C328 1.396 . S
C327 C332 1.390 1_655 S
C328 C322 1.465 . S
C328 C327 1.396 . S
C328 C329 1.399 . S
C329 H315 0.929 . S
C329 C328 1.399 . S
C329 C330 1.385 . S
C330 H316 0.931 . S
C330 C329 1.385 . S
C330 C331 1.389 . S
C331 C330 1.389 . S
C331 C332 1.387 1_655 S
C332 H317 0.930 . S
C332 C327 1.390 1_455 S
C332 C331 1.387 1_455 S
H333 C345 0.930 1_545 S
H334 C347 0.930 . S
H335 C348 0.930 . S
H336 C352 0.959 . S
H337 C352 0.959 . S
H338 C352 0.961 . S
H339 C353 0.960 . S
H340 C353 0.961 . S
H341 C353 0.959 . S
H342 C356 0.929 . S
H343 C357 0.931 . S
H344 C359 0.930 . S
C345 H333 0.930 1_565 S
C345 C346 1.399 . S
C345 C350 1.399 . S
C346 C345 1.399 . S
C346 C347 1.376 . S
C347 H334 0.930 . S
C347 C346 1.376 . S
C347 C348 1.388 . S
C348 H335 0.930 . S
C348 C347 1.388 . S
C348 C349 1.390 . S
C349 C348 1.390 . S
C349 C350 1.394 . S
C349 C355 1.465 . S
C350 C345 1.399 . S
C350 C349 1.394 . S
C350 C351 1.516 1_565 S
C351 C350 1.516 1_545 S
C351 C352 1.502 . S
C351 C353 1.561 . S
C351 C354 1.526 . S
C352 H336 0.959 . S
C352 H337 0.959 . S
C352 H338 0.961 . S
C352 C351 1.502 . S
C353 H339 0.960 . S
C353 H340 0.961 . S
C353 H341 0.959 . S
C353 C351 1.561 . S
C354 C351 1.526 . S
C354 C355 1.396 1_545 S
C354 C359 1.390 . S
C355 C349 1.465 . S
C355 C354 1.396 1_565 S
C355 C356 1.399 . S
C356 H342 0.929 . S
C356 C355 1.399 . S
C356 C357 1.385 . S
C357 H343 0.931 . S
C357 C356 1.385 . S
C357 C358 1.389 . S
C358 C357 1.389 . S
C358 C359 1.387 1_565 S
C359 H344 0.930 . S
C359 C354 1.390 . S
C359 C358 1.387 1_545 S
H360 C372 0.930 . S
H361 C374 0.930 . S
H362 C375 0.930 . S
H363 C379 0.959 . S
H364 C379 0.959 . S
H365 C379 0.961 . S
H366 C380 0.960 . S
H367 C380 0.961 . S
H368 C380 0.959 . S
H369 C383 0.929 . S
H370 C384 0.931 . S
H371 C386 0.930 . S
C372 H360 0.930 . S
C372 C373 1.399 . S
C372 C377 1.399 . S
C373 C372 1.399 . S
C373 C374 1.376 . S
C374 H361 0.930 . S
C374 C373 1.376 . S
C374 C375 1.388 . S
C375 H362 0.930 . S
C375 C374 1.388 . S
C375 C376 1.390 . S
C376 C375 1.390 . S
C376 C377 1.394 . S
C376 C382 1.465 . S
C377 C372 1.399 . S
C377 C376 1.394 . S
C377 C378 1.516 . S
C378 C377 1.516 . S
C378 C379 1.502 . S
C378 C380 1.561 . S
C378 C381 1.526 . S
C379 H363 0.959 . S
C379 H364 0.959 . S
C379 H365 0.961 . S
C379 C378 1.502 . S
C380 H366 0.960 . S
C380 H367 0.961 . S
C380 H368 0.959 . S
C380 C378 1.561 . S
C381 C378 1.526 . S
C381 C382 1.396 . S
C381 C386 1.390 . S
C382 C376 1.465 . S
C382 C381 1.396 . S
C382 C383 1.399 . S
C383 H369 0.929 . S
C383 C382 1.399 . S
C383 C384 1.385 . S
C384 H370 0.931 . S
C384 C383 1.385 . S
C384 C385 1.389 . S
C385 C384 1.389 . S
C385 C386 1.387 . S
C386 H371 0.930 . S
C386 C381 1.390 . S
C386 C385 1.387 . S
H387 C399 0.930 . S
H388 C401 0.930 . S
H389 C402 0.930 . S
H390 C406 0.959 . S
H391 C406 0.959 . S
H392 C406 0.961 . S
H393 C407 0.960 . S
H394 C407 0.961 . S
H395 C407 0.959 . S
H396 C410 0.929 . S
H397 C411 0.931 . S
H398 C413 0.925 . S
C399 H387 0.930 . S
C399 C400 1.399 . S
C399 C404 1.399 . S
C400 C399 1.399 . S
C400 C401 1.376 . S
C401 H388 0.930 . S
C401 C400 1.376 . S
C401 C402 1.388 . S
C402 H389 0.930 . S
C402 C401 1.388 . S
C402 C403 1.390 . S
C403 C402 1.390 . S
C403 C404 1.394 . S
C403 C409 1.465 . S
C404 C399 1.399 . S
C404 C403 1.394 . S
C404 C405 1.516 . S
C405 C404 1.516 . S
C405 C406 1.502 1_455 S
C405 C407 1.561 . S
C405 C408 1.526 . S
C406 H390 0.959 . S
C406 H391 0.959 . S
C406 H392 0.961 . S
C406 C405 1.502 1_655 S
C407 H393 0.960 . S
C407 H394 0.961 . S
C407 H395 0.959 . S
C407 C405 1.561 . S
C408 C405 1.526 . S
C408 C409 1.396 . S
C408 C413 1.390 . S
C409 C403 1.465 . S
C409 C408 1.396 . S
C409 C410 1.399 . S
C410 H396 0.929 . S
C410 C409 1.399 . S
C410 C411 1.385 . S
C411 H397 0.931 . S
C411 C410 1.385 . S
C411 C412 1.389 . S
C412 C411 1.389 . S
C412 C413 1.387 . S
C413 H398 0.925 . S
C413 C408 1.390 . S
C413 C412 1.387 . S
H414 C426 0.930 . S
H415 C428 0.930 . S
H416 C429 0.930 . S
H417 C433 0.959 . S
H418 C433 0.959 . S
H419 C433 0.961 . S
H420 C434 0.960 . S
H421 C434 0.961 . S
H422 C434 0.959 . S
H423 C437 0.929 . S
H424 C438 0.931 . S
H425 C440 0.930 . S
C426 H414 0.930 . S
C426 C427 1.399 . S
C426 C431 1.399 . S
C427 C426 1.399 . S
C427 C428 1.376 1_545 S
C428 H415 0.930 . S
C428 C427 1.376 1_565 S
C428 C429 1.388 . S
C429 H416 0.930 . S
C429 C428 1.388 . S
C429 C430 1.390 1_565 S
C430 C429 1.390 1_545 S
C430 C431 1.394 . S
C430 C436 1.465 1_545 S
C431 C426 1.399 . S
C431 C430 1.394 . S
C431 C432 1.516 . S
C432 C431 1.516 . S
C432 C433 1.502 . S
C432 C434 1.561 . S
C432 C435 1.526 . S
C433 H417 0.959 . S
C433 H418 0.959 . S
C433 H419 0.961 . S
C433 C432 1.502 . S
C434 H420 0.960 . S
C434 H421 0.961 . S
C434 H422 0.959 . S
C434 C432 1.561 . S
C435 C432 1.526 . S
C435 C436 1.396 1_545 S
C435 C440 1.390 . S
C436 C430 1.465 1_565 S
C436 C435 1.396 1_565 S
C436 C437 1.399 . S
C437 H423 0.929 . S
C437 C436 1.399 . S
C437 C438 1.385 . S
C438 H424 0.931 . S
C438 C437 1.385 . S
C438 C439 1.392 . S
C439 C438 1.392 . S
C439 C440 1.382 1_565 S
C440 H425 0.930 . S
C440 C435 1.390 . S
C440 C439 1.382 1_545 S
H441 C453 0.930 . S
H442 C455 0.930 . S
H443 C456 0.930 . S
H444 C460 0.959 . S
H445 C460 0.959 . S
H446 C460 0.961 . S
H447 C461 0.960 . S
H448 C461 0.961 . S
H449 C461 0.959 . S
H450 C464 0.929 . S
H451 C465 0.931 . S
H452 C467 0.930 . S
C453 H441 0.930 . S
C453 C454 1.399 . S
C453 C458 1.399 . S
C454 C453 1.399 . S
C454 C455 1.376 . S
C455 H442 0.930 . S
C455 C454 1.376 . S
C455 C456 1.388 . S
C456 H443 0.930 . S
C456 C455 1.388 . S
C456 C457 1.390 . S
C457 C456 1.390 . S
C457 C458 1.394 . S
C457 C463 1.465 . S
C458 C453 1.399 . S
C458 C457 1.394 . S
C458 C459 1.516 . S
C459 C458 1.516 . S
C459 C460 1.502 . S
C459 C461 1.561 . S
C459 C462 1.526 . S
C460 H444 0.959 . S
C460 H445 0.959 . S
C460 H446 0.961 . S
C460 C459 1.502 . S
C461 H447 0.960 . S
C461 H448 0.961 . S
C461 H449 0.959 . S
C461 C459 1.561 . S
C462 C459 1.526 . S
C462 C463 1.396 . S
C462 C467 1.390 . S
C463 C457 1.465 . S
C463 C462 1.396 . S
C463 C464 1.399 . S
C464 H450 0.929 . S
C464 C463 1.399 . S
C464 C465 1.385 . S
C465 H451 0.931 . S
C465 C464 1.385 . S
C465 C466 1.389 . S
C466 C465 1.389 . S
C466 C467 1.387 . S
C467 H452 0.930 . S
C467 C462 1.390 . S
C467 C466 1.387 . S
H468 C480 0.930 . S
H469 C482 0.908 1_565 S
H470 C483 0.930 . S
H471 C487 0.959 . S
H472 C487 0.959 . S
H473 C487 0.961 . S
H474 C488 0.960 . S
H475 C488 0.961 . S
H476 C488 0.959 . S
H477 C491 0.929 . S
H478 C492 0.931 . S
H479 C494 0.930 . S
C480 H468 0.930 . S
C480 C481 1.399 . S
C480 C485 1.399 . S
C481 C480 1.399 . S
C481 C482 1.398 . S
C482 H469 0.908 1_545 S
C482 C481 1.398 . S
C482 C483 1.388 1_545 S
C483 H470 0.930 . S
C483 C482 1.388 1_565 S
C483 C484 1.390 1_565 S
C484 C483 1.390 1_545 S
C484 C485 1.394 . S
C484 C490 1.465 . S
C485 C480 1.399 . S
C485 C484 1.394 . S
C485 C486 1.516 . S
C486 C485 1.516 . S
C486 C487 1.502 . S
C486 C488 1.561 . S
C486 C489 1.526 . S
C487 H471 0.959 . S
C487 H472 0.959 . S
C487 H473 0.961 . S
C487 C486 1.502 . S
C488 H474 0.960 . S
C488 H475 0.961 . S
C488 H476 0.959 . S
C488 C486 1.561 . S
C489 C486 1.526 . S
C489 C490 1.396 . S
C489 C494 1.390 . S
C490 C484 1.465 . S
C490 C489 1.396 . S
C490 C491 1.399 1_545 S
C491 H477 0.929 . S
C491 C490 1.399 1_565 S
C491 C492 1.385 . S
C492 H478 0.931 . S
C492 C491 1.385 . S
C492 C493 1.386 1_565 S
C493 C492 1.386 1_545 S
C493 C494 1.389 . S
C494 H479 0.930 . S
C494 C489 1.390 . S
C494 C493 1.389 . S
H495 C507 0.930 . S
H496 C509 0.930 . S
H497 C510 0.930 . S
H498 C514 0.959 . S
H499 C514 0.959 . S
H500 C514 0.961 . S
H501 C515 0.960 . S
H502 C515 0.961 . S
H503 C515 0.959 . S
H504 C518 0.929 . S
H505 C519 0.931 . S
H506 C521 0.930 . S
C507 H495 0.930 . S
C507 C508 1.399 1_556 S
C507 C512 1.399 . S
C508 C507 1.399 1_554 S
C508 C509 1.376 . S
C509 H496 0.930 . S
C509 C508 1.376 . S
C509 C510 1.388 . S
C510 H497 0.930 . S
C510 C509 1.388 . S
C510 C511 1.390 1_554 S
C511 C510 1.390 1_556 S
C511 C512 1.394 . S
C511 C517 1.465 . S
C512 C507 1.399 . S
C512 C511 1.394 . S
C512 C513 1.516 . S
C513 C512 1.516 . S
C513 C514 1.502 . S
C513 C515 1.561 . S
C513 C516 1.526 . S
C514 H498 0.959 . S
C514 H499 0.959 . S
C514 H500 0.961 . S
C514 C513 1.502 . S
C515 H501 0.960 . S
C515 H502 0.961 . S
C515 H503 0.959 . S
C515 C513 1.561 . S
C516 C513 1.526 . S
C516 C517 1.396 . S
C516 C521 1.390 . S
C517 C511 1.465 . S
C517 C516 1.396 . S
C517 C518 1.399 . S
C518 H504 0.929 . S
C518 C517 1.399 . S
C518 C519 1.385 . S
C519 H505 0.931 . S
C519 C518 1.385 . S
C519 C520 1.389 . S
C520 C519 1.389 . S
C520 C521 1.387 . S
C521 H506 0.930 . S
C521 C516 1.390 . S
C521 C520 1.387 . S
H522 C534 0.930 . S
H523 C536 0.930 . S
H524 C537 0.930 . S
H525 C541 0.959 . S
H526 C541 0.959 . S
H527 C541 0.961 . S
H528 C542 0.960 . S
H529 C542 0.961 . S
H530 C542 0.959 . S
H531 C545 0.929 . S
H532 C546 0.931 1_455 S
H533 C548 0.930 . S
C534 H522 0.930 . S
C534 C535 1.399 . S
C534 C539 1.399 . S
C535 C534 1.399 . S
C535 C536 1.376 . S
C536 H523 0.930 . S
C536 C535 1.376 . S
C536 C537 1.388 . S
C537 H524 0.930 . S
C537 C536 1.388 . S
C537 C538 1.390 . S
C538 C537 1.390 . S
C538 C539 1.394 . S
C538 C544 1.465 . S
C539 C534 1.399 . S
C539 C538 1.394 . S
C539 C540 1.516 . S
C540 C539 1.516 . S
C540 C541 1.502 . S
C540 C542 1.561 1_655 S
C540 C543 1.526 . S
C541 H525 0.959 . S
C541 H526 0.959 . S
C541 H527 0.961 . S
C541 C540 1.502 . S
C542 H528 0.960 . S
C542 H529 0.961 . S
C542 H530 0.959 . S
C542 C540 1.561 1_455 S
C543 C540 1.526 . S
C543 C544 1.396 . S
C543 C548 1.390 . S
C544 C538 1.465 . S
C544 C543 1.396 . S
C544 C545 1.399 . S
C545 H531 0.929 . S
C545 C544 1.399 . S
C545 C546 1.385 . S
C546 H532 0.931 1_655 S
C546 C545 1.385 . S
C546 C547 1.389 . S
C547 C546 1.389 . S
C547 C548 1.387 . S
C548 H533 0.930 . S
C548 C543 1.390 . S
C548 C547 1.387 . S
H549 C561 0.930 1_545 S
H550 C563 0.930 . S
H551 C564 0.930 . S
H552 C568 0.959 . S
H553 C568 0.959 . S
H554 C568 0.961 . S
H555 C569 0.960 . S
H556 C569 0.961 . S
H557 C569 0.959 . S
H558 C572 0.929 . S
H559 C573 0.931 . S
H560 C575 0.930 . S
C561 H549 0.930 1_565 S
C561 C562 1.399 . S
C561 C566 1.399 . S
C562 C561 1.399 . S
C562 C563 1.376 . S
C563 H550 0.930 . S
C563 C562 1.376 . S
C563 C564 1.388 . S
C564 H551 0.930 . S
C564 C563 1.388 . S
C564 C565 1.390 . S
C565 C564 1.390 . S
C565 C566 1.394 . S
C565 C571 1.465 . S
C566 C561 1.399 . S
C566 C565 1.394 . S
C566 C567 1.516 1_565 S
C567 C566 1.516 1_545 S
C567 C568 1.502 . S
C567 C569 1.561 . S
C567 C570 1.526 . S
C568 H552 0.959 . S
C568 H553 0.959 . S
C568 H554 0.961 . S
C568 C567 1.502 . S
C569 H555 0.960 . S
C569 H556 0.961 . S
C569 H557 0.959 . S
C569 C567 1.561 . S
C570 C567 1.526 . S
C570 C571 1.396 1_545 S
C570 C575 1.390 . S
C571 C565 1.465 . S
C571 C570 1.396 1_565 S
C571 C572 1.399 . S
C572 H558 0.929 . S
C572 C571 1.399 . S
C572 C573 1.385 . S
C573 H559 0.931 . S
C573 C572 1.385 . S
C573 C574 1.389 . S
C574 C573 1.389 . S
C574 C575 1.387 1_565 S
C575 H560 0.930 . S
C575 C570 1.390 . S
C575 C574 1.387 1_545 S
H576 C588 0.930 . S
H577 C590 0.930 . S
H578 C591 0.930 . S
H579 C595 0.959 . S
H580 C595 0.959 . S
H581 C595 0.961 . S
H582 C596 0.960 . S
H583 C596 0.961 . S
H584 C596 0.959 . S
H585 C599 0.929 . S
H586 C600 0.931 . S
H587 C602 0.930 . S
C588 H576 0.930 . S
C588 C589 1.399 . S
C588 C593 1.399 1_554 S
C589 C588 1.399 . S
C589 C590 1.376 . S
C590 H577 0.930 . S
C590 C589 1.376 . S
C590 C591 1.388 1_554 S
C591 H578 0.930 . S
C591 C590 1.388 1_556 S
C591 C592 1.390 . S
C592 C591 1.390 . S
C592 C593 1.394 . S
C592 C598 1.465 . S
C593 C588 1.399 1_556 S
C593 C592 1.394 . S
C593 C594 1.516 . S
C594 C593 1.516 . S
C594 C595 1.502 . S
C594 C596 1.561 1_556 S
C594 C597 1.526 . S
C595 H579 0.959 . S
C595 H580 0.959 . S
C595 H581 0.961 . S
C595 C594 1.502 . S
C596 H582 0.960 . S
C596 H583 0.961 . S
C596 H584 0.959 . S
C596 C594 1.561 1_554 S
C597 C594 1.526 . S
C597 C598 1.396 . S
C597 C602 1.390 . S
C598 C592 1.465 . S
C598 C597 1.396 . S
C598 C599 1.399 . S
C599 H585 0.929 . S
C599 C598 1.399 . S
C599 C600 1.385 . S
C600 H586 0.931 . S
C600 C599 1.385 . S
C600 C601 1.389 . S
C601 C600 1.389 . S
C601 C602 1.387 . S
C602 H587 0.930 . S
C602 C597 1.390 . S
C602 C601 1.387 . S
H603 C615 0.930 . S
H604 C617 0.930 . S
H605 C618 0.930 . S
H606 C622 0.959 . S
H607 C622 0.959 . S
H608 C622 0.961 . S
H609 C623 0.960 . S
H610 C623 0.961 . S
H611 C623 0.959 . S
H612 C626 0.929 . S
H613 C627 0.931 . S
H614 C629 0.930 . S
C615 H603 0.930 . S
C615 C616 1.399 . S
C615 C620 1.399 . S
C616 C615 1.399 . S
C616 C617 1.376 . S
C617 H604 0.930 . S
C617 C616 1.376 . S
C617 C618 1.388 . S
C618 H605 0.930 . S
C618 C617 1.388 . S
C618 C619 1.390 . S
C619 C618 1.390 . S
C619 C620 1.394 . S
C619 C625 1.465 . S
C620 C615 1.399 . S
C620 C619 1.394 . S
C620 C621 1.516 1_455 S
C621 C620 1.516 1_655 S
C621 C622 1.502 . S
C621 C623 1.561 1_655 S
C621 C624 1.526 1_655 S
C622 H606 0.959 . S
C622 H607 0.959 . S
C622 H608 0.961 . S
C622 C621 1.502 . S
C623 H609 0.960 . S
C623 H610 0.961 . S
C623 H611 0.959 . S
C623 C621 1.561 1_455 S
C624 C621 1.526 1_455 S
C624 C625 1.396 . S
C624 C629 1.390 1_455 S
C625 C619 1.465 . S
C625 C624 1.396 . S
C625 C626 1.399 . S
C626 H612 0.929 . S
C626 C625 1.399 . S
C626 C627 1.385 . S
C627 H613 0.931 . S
C627 C626 1.385 . S
C627 C628 1.389 . S
C628 C627 1.389 . S
C628 C629 1.387 1_455 S
C629 H614 0.930 . S
C629 C624 1.390 1_655 S
C629 C628 1.387 1_655 S
C331 C265 1.447 . S
C319 C29 1.459 . S
C346 C137 1.461 . S
C358 C291 1.440 . S
C373 C225 1.420 . S
C385 C293 1.456 . S
C400 C49 1.447 . S
C412 C277 1.458 . S
C439 C279 1.473 1_565 S
C427 C117 1.409 . S
C454 C205 1.463 . S
C466 C305 1.436 . S
C493 C278 1.471 1_545 S
C481 C233 1.416 . S
C508 C57 1.412 . S
C520 C304 1.463 . S
C547 C264 1.446 1_655 S
C535 C108 1.432 . S
C574 C290 1.441 1_565 S
C562 C196 1.460 . S
C601 C292 1.444 . S
C589 C20 1.462 . S
C616 C145 1.458 . S
C628 C276 1.449 1_455 S
