# Generated by pormake.
# Topology pth, (4,4)-cn, num edge types: 1
# Building blocks:
#     Node 0, Type 0, BuildingBlock: QUQFOY_clean_sbu_3, # of connection points: 4
#     Node 1, Type 0, BuildingBlock: QUQFOY_clean_sbu_3, # of connection points: 4
#     Node 2, Type 0, BuildingBlock: QUQFOY_clean_sbu_3, # of connection points: 4
#     Node 3, Type 1, BuildingBlock: KOZSID_clean_sbu_0, # of connection points: 4
#     Node 4, Type 1, BuildingBlock: KOZSID_clean_sbu_0, # of connection points: 4
#     Node 5, Type 1, BuildingBlock: KOZSID_clean_sbu_0, # of connection points: 4
#     Edge 6, Type (0, 1), BuildingBlock: ZUJKAS_clean_linker_0, # of connection points: 2
#     Edge 7, Type (0, 1), BuildingBlock: ZUJKAS_clean_linker_0, # of connection points: 2
#     Edge 8, Type (0, 1), BuildingBlock: ZUJKAS_clean_linker_0, # of connection points: 2
#     Edge 9, Type (0, 1), BuildingBlock: ZUJKAS_clean_linker_0, # of connection points: 2
#     Edge 10, Type (0, 1), BuildingBlock: ZUJKAS_clean_linker_0, # of connection points: 2
#     Edge 11, Type (0, 1), BuildingBlock: ZUJKAS_clean_linker_0, # of connection points: 2
#     Edge 12, Type (0, 1), BuildingBlock: ZUJKAS_clean_linker_0, # of connection points: 2
#     Edge 13, Type (0, 1), BuildingBlock: ZUJKAS_clean_linker_0, # of connection points: 2
#     Edge 14, Type (0, 1), BuildingBlock: ZUJKAS_clean_linker_0, # of connection points: 2
#     Edge 15, Type (0, 1), BuildingBlock: ZUJKAS_clean_linker_0, # of connection points: 2
#     Edge 16, Type (0, 1), BuildingBlock: ZUJKAS_clean_linker_0, # of connection points: 2
#     Edge 17, Type (0, 1), BuildingBlock: ZUJKAS_clean_linker_0, # of connection points: 2
# Relax obj value: 0.007
# Max RMSD: 0.064
# Mean RMSD: 0.043
data_MOF--net-pth--node1-QUQFOY_clean_sbu_3--node2-KOZSID_clean_sbu_0--edge1-ZUJKAS_clean_linker_0
_symmetry_space_group_name_H-M    P1
_symmetry_Int_Tables_number       1
_symmetry_cell_setting            triclinic
loop_
_symmetry_equiv_pos_as_xyz
'x, y, z'
_cell_length_a     33.931172
_cell_length_b     33.707961
_cell_length_c     79.40177
_cell_angle_alpha  88.072633
_cell_angle_beta   88.961282
_cell_angle_gamma 120.71006
loop_
_atom_site_label
_atom_site_type_symbol
_atom_site_fract_x
_atom_site_fract_y
_atom_site_fract_z
_atom_type_partial_charge
C0 C 0.0255 0.13084 0.05493 0.0
O1 O 0.00122 0.12753 0.04248 0.0
Cd2 Cd 0.99609 0.08462 0.01848 0.0
O3 O 0.04643 0.10842 0.05562 0.0
Cd4 Cd 0.05402 0.0513 0.039 0.0
C5 C 0.11132 0.13329 0.00809 0.0
O6 O 0.97612 0.00882 0.0288 0.0
O7 O 0.02577 0.99556 0.01701 0.0
O8 O 0.04344 0.00981 0.06583 0.0
C9 C 0.98439 0.9854 0.01869 0.0
O10 O 0.07246 0.12823 0.00477 0.0
C11 C 0.07642 0.00278 0.06346 0.0
O12 O 0.11537 0.11064 0.02041 0.0
O13 O 0.10024 0.0196 0.04977 0.0
C14 C 0.12941 0.10751 0.38766 0.0
O15 O 0.15036 0.1347 0.37494 0.0
Cd16 Cd 0.11089 0.14004 0.35111 0.0
O17 O 0.08572 0.08422 0.38867 0.0
Cd18 Cd 0.01964 0.07496 0.37271 0.0
C19 C 0.04732 0.02438 0.34273 0.0
O20 O 0.05257 0.15422 0.36124 0.0
O21 O 0.99034 0.10266 0.35025 0.0
O22 O 0.98931 0.08136 0.39967 0.0
C23 C 0.02038 0.14495 0.35134 0.0
O24 O 0.08001 0.06511 0.33863 0.0
C25 C 0.94899 0.0475 0.39815 0.0
O26 O 0.02024 0.0169 0.35534 0.0
O27 O 0.94159 0.02495 0.3849 0.0
C28 C 0.98673 0.08566 0.6831 0.0
O29 O 0.99402 0.11337 0.69469 0.0
Cd30 Cd 0.03767 0.11641 0.71848 0.0
O31 O 0.00608 0.06174 0.6831 0.0
Cd32 Cd 0.06258 0.05248 0.69942 0.0
C33 C 0.98158 0.00025 0.73033 0.0
O34 O 0.11129 0.13096 0.70866 0.0
O35 O 0.11588 0.07695 0.72224 0.0
O36 O 0.10122 0.06044 0.6725 0.0
C37 C 0.13152 0.11978 0.71944 0.0
O38 O 0.99115 0.041 0.73346 0.0
C39 C 0.10709 0.02651 0.67516 0.0
O40 O 0.00098 0.99332 0.71783 0.0
O41 O 0.09077 0.00323 0.68906 0.0
C42 C 0.10836 0.65457 0.18037 0.0
C43 C 0.15334 0.68835 0.17591 0.0
C44 C 0.18068 0.68061 0.18621 0.0
C45 C 0.15103 0.64285 0.19635 0.0
N46 N 0.10631 0.62572 0.19311 0.0
Co47 Co 0.05175 0.57156 0.2051 0.0
N48 N 0.09194 0.56321 0.2213 0.0
C49 C 0.1381 0.58958 0.222 0.0
C50 C 0.15609 0.57549 0.23454 0.0
C51 C 0.11926 0.53771 0.24232 0.0
C52 C 0.08079 0.53097 0.23401 0.0
N53 N 0.99727 0.51658 0.21678 0.0
C54 C 0.99534 0.48797 0.22958 0.0
C55 C 0.95061 0.45293 0.23362 0.0
C56 C 0.92324 0.45933 0.22286 0.0
C57 C 0.95269 0.49772 0.21293 0.0
N58 N 0.01147 0.58081 0.18922 0.0
C59 C 0.96515 0.55541 0.18887 0.0
C60 C 0.94707 0.57086 0.17682 0.0
C61 C 0.98394 0.60885 0.16916 0.0
C62 C 0.02253 0.61445 0.17707 0.0
N63 N 0.05694 0.5296 0.18945 0.0
C64 C 0.0626 0.4671 0.16828 0.0
C65 C 0.02147 0.46648 0.17077 0.0
C66 C 0.01944 0.49773 0.18126 0.0
C67 C 0.10107 0.49986 0.17645 0.0
C68 C 0.09753 0.53065 0.18685 0.0
N69 N 0.04645 0.61332 0.22078 0.0
C70 C -0.00026 0.63545 0.2366 0.0
C71 C 0.03869 0.67356 0.24256 0.0
C72 C 0.08164 0.6807 0.23753 0.0
C73 C 0.08468 0.65031 0.2268 0.0
C74 C 0.00436 0.60621 0.22577 0.0
H75 H 0.11838 0.65769 0.22345 0.0
H76 H 0.97333 0.5782 0.22158 0.0
H77 H 0.98697 0.49498 0.18267 0.0
H78 H 0.12806 0.55479 0.1927 0.0
C79 C 0.16388 0.62547 0.21002 0.0
C80 C 0.06873 0.65286 0.17281 0.0
C81 C 0.03476 0.4923 0.23818 0.0
C82 C 0.93954 0.51719 0.20002 0.0
H83 H 0.16527 0.71649 0.16651 0.0
H84 H 0.21768 0.70108 0.18665 0.0
H85 H 0.19182 0.59026 0.23743 0.0
H86 H 0.12068 0.51696 0.25272 0.0
H87 H 0.93905 0.42548 0.2433 0.0
H88 H 0.8863 0.43841 0.22231 0.0
H89 H 0.91131 0.55645 0.17404 0.0
H90 H 0.98258 0.6303 0.15901 0.0
H91 H 0.9905 0.44131 0.16491 0.0
H92 H 0.13386 0.50201 0.17475 0.0
H93 H 0.96562 0.62787 0.24032 0.0
H94 H 0.11296 0.71007 0.24157 0.0
C95 C 0.44853 0.98438 0.56383 0.0
C96 C 0.41519 0.94088 0.57034 0.0
C97 C 0.41898 0.90954 0.56111 0.0
C98 C 0.45412 0.9355 0.54952 0.0
N99 N 0.47338 0.98161 0.55086 0.0
Co100 Co 0.52486 0.03186 0.53633 0.0
N101 N 0.52705 0.9856 0.52168 0.0
C102 C 0.49901 0.93916 0.52289 0.0
C103 C 0.50928 0.91639 0.51125 0.0
C104 C 0.54642 0.95023 0.50212 0.0
C105 C 0.55662 0.9919 0.50875 0.0
N106 N 0.57734 0.08208 0.52211 0.0
C107 C 0.60292 0.07902 0.50949 0.0
C108 C 0.63767 0.12228 0.50339 0.0
C109 C 0.63454 0.15387 0.51273 0.0
C110 C 0.5982 0.1282 0.52393 0.0
N111 N 0.5217 0.07819 0.55065 0.0
C112 C 0.54821 0.1248 0.54894 0.0
C113 C 0.53674 0.14744 0.56025 0.0
C114 C 0.50019 0.11334 0.56958 0.0
C115 C 0.49144 0.07172 0.56334 0.0
N116 N 0.56984 0.02957 0.55134 0.0
C117 C 0.63793 0.02833 0.57075 0.0
C118 C 0.63806 0.06931 0.5674 0.0
C119 C 0.60414 0.06915 0.55775 0.0
C120 C 0.6023 0.98763 0.56461 0.0
C121 C 0.56877 0.989 0.55505 0.0
N122 N 0.48008 0.03435 0.52126 0.0
C123 C 0.45612 0.07902 0.5046 0.0
C124 C 0.41626 0.03901 0.50035 0.0
C125 C 0.40873 0.9965 0.50678 0.0
C126 C 0.44094 0.99496 0.5171 0.0
C127 C 0.4872 0.07593 0.51496 0.0
H128 H 0.4334 0.96156 0.52157 0.0
H129 H 0.51656 0.10779 0.51775 0.0
H130 H 0.60677 0.10168 0.55556 0.0
H131 H 0.54267 0.95693 0.55063 0.0
C132 C 0.46654 0.91768 0.53619 0.0
C133 C 0.45318 0.02713 0.56958 0.0
C134 C 0.5966 0.0361 0.50322 0.0
C135 C 0.58334 0.14628 0.53646 0.0
H136 H 0.38974 0.93247 0.58036 0.0
H137 H 0.39745 0.87229 0.56227 0.0
H138 H 0.49291 0.87947 0.50999 0.0
H139 H 0.56473 0.94456 0.4921 0.0
H140 H 0.66306 0.13009 0.49339 0.0
H141 H 0.6566 0.19107 0.51168 0.0
H142 H 0.55264 0.18435 0.56143 0.0
H143 H 0.48163 0.11846 0.57967 0.0
H144 H 0.66418 0.10159 0.57224 0.0
H145 H 0.60069 0.95496 0.56686 0.0
H146 H 0.46311 0.11284 0.50016 0.0
H147 H 0.37842 0.96452 0.50372 0.0
C148 C 0.63983 0.59396 0.84332 0.0
C149 C 0.67601 0.58913 0.83759 0.0
C150 C 0.67319 0.5528 0.84676 0.0
C151 C 0.63562 0.53757 0.85749 0.0
N152 N 0.61387 0.56164 0.85562 0.0
Co153 Co 0.55852 0.55201 0.86894 0.0
N154 N 0.55504 0.49916 0.88268 0.0
C155 C 0.58317 0.48186 0.88124 0.0
C156 C 0.57228 0.44553 0.89241 0.0
C157 C 0.53455 0.43871 0.9014 0.0
C158 C 0.52438 0.47125 0.89507 0.0
N159 N 0.50382 0.54305 0.88254 0.0
C160 C 0.47786 0.51083 0.89491 0.0
C161 C 0.44197 0.51617 0.90064 0.0
C162 C 0.44561 0.55321 0.89172 0.0
C163 C 0.48309 0.56821 0.881 0.0
N164 N 0.56141 0.60419 0.85492 0.0
C165 C 0.5324 0.6205 0.85596 0.0
C166 C 0.54314 0.6566 0.84469 0.0
C167 C 0.58146 0.66402 0.83594 0.0
C168 C 0.59186 0.63182 0.84243 0.0
N169 N 0.51751 0.50784 0.85251 0.0
C170 C 0.45887 0.44507 0.82935 0.0
C171 C 0.44908 0.47657 0.83638 0.0
C172 C 0.47877 0.50759 0.84774 0.0
C173 C 0.49845 0.44541 0.83403 0.0
C174 C 0.52689 0.4766 0.84566 0.0
N175 N 0.59951 0.59622 0.88536 0.0
C176 C 0.62303 0.66379 0.90152 0.0
C177 C 0.65848 0.65968 0.90835 0.0
C178 C 0.66377 0.62315 0.90354 0.0
C179 C 0.63423 0.59215 0.89212 0.0
C180 C 0.5942 0.63195 0.89015 0.0
H181 H 0.64025 0.56527 0.88895 0.0
H182 H 0.56806 0.63719 0.88535 0.0
H183 H 0.46957 0.53102 0.85246 0.0
H184 H 0.55609 0.4746 0.84895 0.0
C185 C 0.61994 0.50085 0.86944 0.0
C186 C 0.6321 0.63022 0.83682 0.0
C187 C 0.48469 0.47351 0.90104 0.0
C188 C 0.49719 0.60317 0.86838 0.0
H189 H 0.70193 0.60996 0.82786 0.0
H190 H 0.69599 0.53927 0.84581 0.0
H191 H 0.58967 0.42626 0.89382 0.0
H192 H 0.51639 0.41251 0.91141 0.0
H193 H 0.41513 0.49495 0.91002 0.0
H194 H 0.42274 0.56667 0.89256 0.0
H195 H 0.52582 0.67594 0.84327 0.0
H196 H 0.60014 0.69069 0.82611 0.0
H197 H 0.41892 0.47775 0.83294 0.0
H198 H 0.50706 0.42121 0.82896 0.0
H199 H 0.61788 0.69186 0.90469 0.0
H200 H 0.69033 0.61808 0.90867 0.0
H201 H 0.07759 0.15008 0.08286 0.0
H202 H 0.08663 0.20327 0.10479 0.0
H203 H 0.99418 0.23532 0.07947 0.0
H204 H 0.98452 0.1822 0.05768 0.0
H205 H 0.11924 0.29857 0.10051 0.0
H206 H 0.94182 0.20351 0.12815 0.0
H207 H 0.96443 0.17689 0.11476 0.0
H208 H 0.94384 0.21221 0.10566 0.0
C209 C 0.05888 0.16816 0.08204 0.0
C210 C 0.03018 0.16174 0.06854 0.0
C211 C 0.06416 0.19854 0.09456 0.0
C212 C 0.04053 0.22261 0.09386 0.0
C213 C 0.01196 0.2163 0.08042 0.0
H214 H 0.02319 0.43851 0.13801 0.0
H215 H 0.02143 0.37836 0.12117 0.0
C216 C 0.00669 0.18608 0.06792 0.0
C217 C 0.0469 0.2559 0.10671 0.0
H218 H 0.98736 0.28351 0.13427 0.0
C219 C 0.09064 0.29502 0.10813 0.0
C220 C 0.00951 0.25091 0.11666 0.0
C221 C 0.96235 0.20837 0.11638 0.0
C222 C 0.09742 0.33061 0.11857 0.0
C223 C 0.05953 0.32654 0.12787 0.0
C224 C 0.01623 0.28658 0.12699 0.0
C225 C 0.06323 0.36448 0.13779 0.0
C226 C 0.14446 0.3732 0.11904 0.0
C227 C 0.08761 0.37666 0.15265 0.0
C228 C 0.08846 0.41089 0.16239 0.0
C229 C 0.06473 0.43322 0.15743 0.0
C230 C 0.0412 0.42146 0.14232 0.0
C231 C 0.04032 0.38729 0.13264 0.0
H232 H 0.16868 0.37374 0.1093 0.0
H233 H 0.14231 0.40481 0.11712 0.0
H234 H 0.15865 0.37432 0.13162 0.0
H235 H 0.10502 0.35895 0.15691 0.0
H236 H 0.10642 0.41879 0.17407 0.0
H237 H 0.95771 0.08167 0.42932 0.0
H238 H 0.89656 0.07378 0.44839 0.0
H239 H 0.79548 0.98553 0.41383 0.0
H240 H 0.8565 0.99226 0.39488 0.0
H241 H 0.83877 0.10341 0.44062 0.0
H242 H 0.73857 0.91595 0.45838 0.0
H243 H 0.79539 0.94343 0.44853 0.0
H244 H 0.74642 0.92816 0.436 0.0
C245 C 0.92241 0.05981 0.42594 0.0
C246 C 0.91186 0.03761 0.4106 0.0
C247 C 0.88752 0.0554 0.43684 0.0
C248 C 0.84146 0.02882 0.4326 0.0
C249 C 0.83071 0.00541 0.41753 0.0
H250 H 0.59491 0.01986 0.46979 0.0
H251 H 0.65494 0.01808 0.4525 0.0
C252 C 0.86563 0.00945 0.40668 0.0
C253 C 0.80526 0.02916 0.4432 0.0
H254 H 0.7036 0.95986 0.46514 0.0
C255 C 0.80942 0.07202 0.44608 0.0
C256 C 0.76694 0.98816 0.45028 0.0
C257 C 0.76168 0.94136 0.44829 0.0
C258 C 0.77601 0.07492 0.4557 0.0
C259 C 0.73756 0.03398 0.46253 0.0
C260 C 0.73322 0.99111 0.45973 0.0
C261 C 0.70173 0.03528 0.47283 0.0
C262 C 0.78158 0.12156 0.45841 0.0
C263 C 0.70867 0.04576 0.48985 0.0
C264 C 0.67457 0.04659 0.49967 0.0
C265 C 0.63327 0.03698 0.49254 0.0
C266 C 0.62661 0.02718 0.47545 0.0
C267 C 0.66061 0.02606 0.46565 0.0
H268 H 0.81165 0.14988 0.45111 0.0
H269 H 0.75021 0.12162 0.4547 0.0
H270 H 0.786 0.12866 0.47201 0.0
H271 H 0.74033 0.05299 0.49553 0.0
H272 H 0.68014 0.05421 0.51286 0.0
H273 H 0.9347 0.00289 0.75819 0.0
H274 H 0.87553 0.93776 0.77559 0.0
H275 H 0.88893 0.84293 0.74425 0.0
H276 H 0.94873 0.90797 0.72682 0.0
H277 H 0.79176 0.86542 0.76534 0.0
H278 H 0.90021 0.80129 0.79232 0.0
H279 H 0.92419 0.85782 0.78193 0.0
H280 H 0.90281 0.80751 0.76969 0.0
C281 C 0.92536 0.96824 0.75502 0.0
C282 C 0.94661 0.96068 0.74112 0.0
C283 C 0.89145 0.93107 0.76497 0.0
C284 C 0.87823 0.88564 0.76129 0.0
C285 C 0.89924 0.87781 0.74745 0.0
H286 H 0.62936 0.64024 0.80281 0.0
H287 H 0.68868 0.70159 0.78372 0.0
C288 C 0.93327 0.91503 0.73748 0.0
C289 C 0.84165 0.84661 0.77178 0.0
H290 H 0.8204 0.7563 0.79878 0.0
C291 C 0.79792 0.84146 0.77264 0.0
C292 C 0.85007 0.8158 0.78138 0.0
C293 C 0.89692 0.82093 0.78146 0.0
C294 C 0.76225 0.80625 0.78288 0.0
C295 C 0.77048 0.77504 0.79229 0.0
C296 C 0.81421 0.78016 0.79143 0.0
C297 C 0.73464 0.73783 0.80361 0.0
C298 C 0.71644 0.8035 0.78388 0.0
C299 C 0.74137 0.73752 0.82099 0.0
C300 C 0.70778 0.70257 0.83179 0.0
C301 C 0.66717 0.6675 0.82532 0.0
C302 C 0.66045 0.66743 0.80795 0.0
C303 C 0.6941 0.70238 0.79713 0.0
H304 H 0.719 0.83612 0.77908 0.0
H305 H 0.69194 0.77523 0.77609 0.0
H306 H 0.70215 0.7958 0.79706 0.0
H307 H 0.7725 0.7645 0.8262 0.0
H308 H 0.71342 0.70282 0.84518 0.0
H309 H 0.13053 0.9652 0.05882 0.0
H310 H 0.13468 0.90825 0.07756 0.0
H311 H 0.04472 0.91783 0.11413 0.0
H312 H 0.03947 0.97372 0.09537 0.0
H313 H 0.16082 0.9081 0.11058 0.0
H314 H 0.97577 0.78115 0.10466 0.0
H315 H 0.00634 0.83291 0.09116 0.0
H316 H 0.9864 0.83536 0.11204 0.0
C317 C 0.11204 0.95551 0.07094 0.0
C318 C 0.08417 0.97341 0.07554 0.0
C319 C 0.11443 0.92299 0.08161 0.0
C320 C 0.0891 0.90804 0.09703 0.0
C321 C 0.06353 0.928 0.10208 0.0
H322 H 0.04454 0.71596 0.1797 0.0
H323 H 0.05242 0.7793 0.16093 0.0
C324 C 0.06079 0.96012 0.09138 0.0
C325 C 0.08778 0.87029 0.10757 0.0
H326 H 0.01413 0.76311 0.12567 0.0
C327 C 0.12885 0.87626 0.11379 0.0
C328 C 0.046 0.82858 0.11158 0.0
C329 C 0.0012 0.81881 0.10438 0.0
C330 C 0.12895 0.84209 0.12439 0.0
C331 C 0.08701 0.80117 0.12877 0.0
C332 C 0.04613 0.79485 0.12234 0.0
C333 C 0.08451 0.76451 0.14022 0.0
C334 C 0.17356 0.85015 0.13117 0.0
C335 C 0.09966 0.7353 0.13465 0.0
C336 C 0.09476 0.69899 0.14527 0.0
C337 C 0.07497 0.69183 0.16158 0.0
C338 C 0.06004 0.7212 0.16716 0.0
C339 C 0.0646 0.75722 0.15651 0.0
H340 H 0.2023 0.886 0.12823 0.0
H341 H 0.16997 0.84319 0.14505 0.0
H342 H 0.1824 0.82585 0.12553 0.0
H343 H 0.11452 0.74015 0.12202 0.0
H344 H 0.10607 0.67632 0.14075 0.0
H345 H 0.09623 0.0492 0.41588 0.0
H346 H 0.14046 0.03662 0.43718 0.0
H347 H 0.26633 0.13855 0.41095 0.0
H348 H 0.22265 0.15176 0.3897 0.0
H349 H 0.20306 0.00692 0.4313 0.0
H350 H 0.28702 0.17761 0.45987 0.0
H351 H 0.23765 0.15789 0.44701 0.0
H352 H 0.29398 0.18135 0.4373 0.0
C353 C 0.13334 0.06933 0.41473 0.0
C354 C 0.15592 0.10157 0.40109 0.0
C355 C 0.1585 0.06202 0.4269 0.0
C356 C 0.20658 0.08708 0.42573 0.0
C357 C 0.22922 0.11953 0.41225 0.0
H358 H 0.435 0.09401 0.47181 0.0
H359 H 0.3808 0.1028 0.45457 0.0
C360 C 0.20416 0.12683 0.40006 0.0
C361 C 0.2333 0.07768 0.43807 0.0
H362 H 0.31845 0.12964 0.46593 0.0
C363 C 0.2279 0.0335 0.43906 0.0
C364 C 0.26554 0.11249 0.44814 0.0
C365 C 0.27117 0.15988 0.44818 0.0
C366 C 0.25541 0.02376 0.44935 0.0
C367 C 0.2886 0.05902 0.45903 0.0
C368 C 0.29307 0.10279 0.4584 0.0
C369 C 0.32062 0.05201 0.46931 0.0
C370 C 0.25005 0.97649 0.44928 0.0
C371 C 0.30461 0.02041 0.48329 0.0
C372 C 0.33556 0.01536 0.49321 0.0
C373 C 0.38299 0.04213 0.48936 0.0
C374 C 0.39873 0.07335 0.47523 0.0
C375 C 0.36784 0.07831 0.46534 0.0
H376 H 0.22957 0.95643 0.43863 0.0
H377 H 0.2841 0.97929 0.44845 0.0
H378 H 0.23223 0.95687 0.46122 0.0
H379 H 0.2683 0.00034 0.48671 0.0
H380 H 0.32249 0.99148 0.50415 0.0
H381 H 0.18163 0.2131 0.7129 0.0
H382 H 0.24304 0.27073 0.72951 0.0
H383 H 0.22537 0.16282 0.76517 0.0
H384 H 0.16541 0.10505 0.7483 0.0
H385 H 0.23941 0.29392 0.76041 0.0
H386 H 0.36149 0.23146 0.75771 0.0
H387 H 0.31293 0.2101 0.74439 0.0
H388 H 0.30602 0.18683 0.76572 0.0
C389 C 0.19121 0.20169 0.7242 0.0
C390 C 0.16893 0.15461 0.72927 0.0
C391 C 0.22628 0.2346 0.73367 0.0
C392 C 0.23945 0.22102 0.74842 0.0
C393 C 0.21686 0.17401 0.75357 0.0
H394 H 0.3661 0.38946 0.83271 0.0
H395 H 0.31437 0.33631 0.81238 0.0
C396 C 0.1823 0.14105 0.74398 0.0
C397 C 0.27483 0.25617 0.75896 0.0
H398 H 0.37241 0.28357 0.7795 0.0
C399 C 0.26878 0.29195 0.76442 0.0
C400 C 0.31362 0.25412 0.76396 0.0
C401 C 0.32418 0.21884 0.75748 0.0
C402 C 0.29959 0.32485 0.77518 0.0
C403 C 0.33661 0.32091 0.7811 0.0
C404 C 0.34359 0.2861 0.77518 0.0
C405 C 0.36812 0.35219 0.79358 0.0
C406 C 0.29232 0.36371 0.77993 0.0
C407 C 0.4157 0.3772 0.79008 0.0
C408 C 0.44536 0.40689 0.80182 0.0
C409 C 0.42785 0.4122 0.8172 0.0
C410 C 0.38034 0.38652 0.82081 0.0
C411 C 0.35079 0.3564 0.80918 0.0
H412 H 0.27284 0.37046 0.77029 0.0
H413 H 0.27205 0.35398 0.79205 0.0
H414 H 0.32546 0.39615 0.78145 0.0
H415 H 0.42982 0.37421 0.77817 0.0
H416 H 0.48188 0.42645 0.79874 0.0
H417 H 0.94678 0.13726 0.67686 0.0
H418 H 0.88833 0.12318 0.65653 0.0
H419 H 0.89247 0.00489 0.63982 0.0
H420 H 0.9518 0.01934 0.6598 0.0
H421 H 0.88868 0.05644 0.61356 0.0
H422 H 0.75515 0.02137 0.66265 0.0
H423 H 0.80599 0.07689 0.66416 0.0
H424 H 0.8087 0.02528 0.66756 0.0
C425 C 0.93543 0.10836 0.66881 0.0
C426 C 0.95367 0.07919 0.67005 0.0
C427 C 0.9018 0.10019 0.65728 0.0
C428 C 0.8853 0.06233 0.64697 0.0
C429 C 0.90449 0.03407 0.64777 0.0
H430 H 0.62969 0.96426 0.59498 0.0
H431 H 0.69002 0.96753 0.61235 0.0
C432 C 0.93841 0.04242 0.65919 0.0
C433 C 0.84786 0.0521 0.63541 0.0
H434 H 0.73859 0.03165 0.63432 0.0
C435 C 0.85572 0.05067 0.61809 0.0
C436 C 0.80455 0.04357 0.6414 0.0
C437 C 0.79284 0.04135 0.65997 0.0
C438 C 0.82191 0.04248 0.60651 0.0
C439 C 0.77957 0.03662 0.61242 0.0
C440 C 0.77122 0.03656 0.6298 0.0
C441 C 0.74404 0.03235 0.60082 0.0
C442 C 0.83181 0.03986 0.58811 0.0
C443 C 0.75446 0.06753 0.58853 0.0
C444 C 0.72027 0.06545 0.57845 0.0
C445 C 0.67471 0.02851 0.58066 0.0
C446 C 0.66448 0.99291 0.59283 0.0
C447 C 0.69885 0.99488 0.60283 0.0
H448 H 0.858 0.02968 0.58647 0.0
H449 H 0.80029 0.01479 0.58181 0.0
H450 H 0.84555 0.07442 0.58168 0.0
H451 H 0.78884 0.09727 0.58699 0.0
H452 H 0.72948 0.09313 0.56905 0.0
H453 H 0.89318 0.95739 0.01929 0.0
H454 H 0.83386 0.89964 0.002 0.0
H455 H 0.93497 0.87728 0.97756 0.0
H456 H 0.99419 0.93422 -0.00508 0.0
H457 H 0.83043 0.9005 0.96708 0.0
H458 H 0.83347 0.74641 0.99185 0.0
H459 H 0.85946 0.80001 0.0025 0.0
H460 H 0.88904 0.79321 0.98482 0.0
C461 C 0.90268 0.93991 0.01031 0.0
C462 C 0.94829 0.95018 0.0085 0.0
C463 C 0.8688 0.90701 0.00045 0.0
C464 C 0.87995 0.88371 0.98872 0.0
C465 C 0.92548 0.89411 0.98682 0.0
H466 H 0.7513 0.69742 0.9097 0.0
H467 H 0.80279 0.75179 0.92976 0.0
C468 C 0.95932 0.92688 -0.00332 0.0
C469 C 0.84445 0.84979 0.97794 0.0
H470 H 0.79473 0.73832 0.96624 0.0
C471 C 0.82218 0.86489 0.96701 0.0
C472 C 0.83381 0.80338 0.97794 0.0
C473 C 0.85485 0.7846 0.99002 0.0
C474 C 0.79068 0.83515 0.95561 0.0
C475 C 0.781 0.78914 0.95532 0.0
C476 C 0.80254 0.77377 0.96647 0.0
C477 C 0.74952 0.75663 0.94321 0.0
C478 C 0.76909 0.85349 0.9436 0.0
C479 C 0.70253 0.74121 0.94427 0.0
C480 C 0.67292 0.70984 0.93291 0.0
C481 C 0.68986 0.69331 0.92035 0.0
C482 C 0.73705 0.70895 0.91937 0.0
C483 C 0.76655 0.74019 0.93074 0.0
H484 H 0.78671 0.8918 0.94325 0.0
H485 H 0.76979 0.84239 0.93064 0.0
H486 H 0.73268 0.83932 0.94767 0.0
H487 H 0.6887 0.75301 0.954 0.0
H488 H 0.63666 0.69793 0.93417 0.0
H489 H 0.97487 0.93497 0.34394 0.0
H490 H 0.96692 0.8713 0.32745 0.0
H491 H 0.09993 0.96207 0.30323 0.0
H492 H 0.10759 0.02589 0.31921 0.0
H493 H 0.03757 0.91175 0.28084 0.0
H494 H 0.02984 0.79775 0.33455 0.0
H495 H 0.98674 0.81353 0.33573 0.0
H496 H 0.04624 0.85723 0.33693 0.0
C497 C 0.00243 0.94129 0.33512 0.0
C498 C 0.04188 0.98549 0.3329 0.0
C499 C 0.99796 0.90481 0.32579 0.0
C500 C 0.03316 0.91179 0.31431 0.0
C501 C 0.07238 0.9559 0.31205 0.0
H502 H 0.09109 0.71763 0.2693 0.0
H503 H 0.08678 0.77406 0.28653 0.0
C504 C 0.07668 0.99237 0.32121 0.0
C505 C 0.02923 0.87374 0.30428 0.0
H506 H 0.0193 0.76771 0.30742 0.0
C507 C 0.03345 0.88018 0.28664 0.0
C508 C 0.02435 0.83284 0.31191 0.0
C509 C 0.02195 0.82494 0.33082 0.0
C510 C 0.03359 0.84719 0.2764 0.0
C511 C 0.02796 0.80594 0.284 0.0
C512 C 0.02323 0.79921 0.30164 0.0
C513 C 0.02909 0.77038 0.2739 0.0
C514 C 0.04148 0.85769 0.25759 0.0
C515 C 0.99763 0.74905 0.26126 0.0
C516 C 0.00058 0.71748 0.25115 0.0
C517 C 0.03461 0.70601 0.25368 0.0
C518 C 0.06509 0.72635 0.26675 0.0
C519 C 0.06238 0.75825 0.27674 0.0
H520 H 0.05725 0.89523 0.25436 0.0
H521 H 0.06406 0.84593 0.25226 0.0
H522 H 0.00808 0.83935 0.25143 0.0
H523 H 0.97106 0.75719 0.25908 0.0
H524 H 0.97674 0.70284 0.24114 0.0
H525 H 0.1333 0.06095 0.64279 0.0
H526 H 0.18751 0.05433 0.62417 0.0
H527 H 0.20017 0.96719 0.66209 0.0
H528 H 0.14484 0.97258 0.68061 0.0
H529 H 0.27539 0.08564 0.6311 0.0
H530 H 0.18915 0.89834 0.62017 0.0
H531 H 0.15898 0.9246 0.62894 0.0
H532 H 0.19329 0.91065 0.64209 0.0
C533 C 0.14691 0.0396 0.64703 0.0
C534 C 0.1349 0.01732 0.66316 0.0
C535 C 0.17792 0.0359 0.63639 0.0
C536 C 0.19766 0.01002 0.64168 0.0
C537 C 0.18463 0.98652 0.65758 0.0
H538 H 0.43361 -0.00015 0.60289 0.0
H539 H 0.37108 0.99522 0.6207 0.0
C540 C 0.15317 0.9898 0.66819 0.0
C541 C 0.23488 0.01132 0.63118 0.0
H542 H 0.26842 0.94395 0.61164 0.0
C543 C 0.27367 0.05465 0.62676 0.0
C544 C 0.23268 0.97083 0.62559 0.0
C545 C 0.19111 0.9235 0.6293 0.0
C546 C 0.31043 0.05858 0.617 0.0
C547 C 0.30828 0.01817 0.61152 0.0
C548 C 0.26979 0.9748 0.61597 0.0
C549 C 0.34553 0.02055 0.60085 0.0
C550 C 0.3516 0.10582 0.61272 0.0
C551 C 0.35147 0.03627 0.5839 0.0
C552 C 0.38675 0.03864 0.57378 0.0
C553 C 0.41645 0.02536 0.58052 0.0
C554 C 0.41078 0.01002 0.59752 0.0
C555 C 0.37524 0.00731 0.60761 0.0
H556 H 0.35111 0.13298 0.62012 0.0
H557 H 0.38379 0.10588 0.61509 0.0
H558 H 0.35204 0.11479 0.59912 0.0
H559 H 0.32867 0.04647 0.5785 0.0
H560 H 0.39074 0.05053 0.56067 0.0
H561 H 0.12259 0.20687 0.98882 0.0
H562 H 0.18915 0.26108 0.97097 0.0
H563 H 0.2581 0.18782 0.98499 0.0
H564 H 0.19212 0.1345 0.00356 0.0
H565 H 0.31578 0.27717 0.98468 0.0
H566 H 0.22288 0.23896 0.92548 0.0
H567 H 0.197 0.25732 0.94084 0.0
H568 H 0.19728 0.20446 0.94476 0.0
C569 C 0.15187 0.20219 0.98807 0.0
C570 C 0.15201 0.16619 -0.00254 0.0
C571 C 0.18978 0.23302 0.97776 0.0
C572 C 0.2281 0.22774 0.97624 0.0
C573 C 0.22872 0.1923 0.98585 0.0
H574 H 0.43013 0.3832 0.89438 0.0
H575 H 0.37158 0.32071 0.91312 0.0
C576 C 0.19105 0.16188 -0.00356 0.0
C577 C 0.26778 0.25992 0.9649 0.0
H578 H 0.29586 0.30945 0.92503 0.0
C579 C 0.31157 0.28385 0.97157 0.0
C580 C 0.26254 0.26788 0.94769 0.0
C581 C 0.21746 0.24037 0.93924 0.0
C582 C 0.34991 0.31672 0.96167 0.0
C583 C 0.34395 0.32717 0.94482 0.0
C584 C 0.30044 0.30205 0.93801 0.0
C585 C 0.38191 0.36433 0.93402 0.0
C586 C 0.39637 0.33933 0.96936 0.0
C587 C 0.40734 0.40959 0.93952 0.0
C588 C 0.44147 0.44492 0.92896 0.0
C589 C 0.44962 0.43586 0.91256 0.0
C590 C 0.42422 0.39079 0.90701 0.0
C591 C 0.39082 0.35526 0.91768 0.0
H592 H 0.39767 0.31663 0.97954 0.0
H593 H 0.42413 0.34786 0.95976 0.0
H594 H 0.40311 0.37169 0.97508 0.0
H595 H 0.40024 0.41785 0.95185 0.0
H596 H 0.46089 0.47953 0.93346 0.0
H597 H 0.08116 0.23793 0.35057 0.0
H598 H 0.08039 0.29779 0.33251 0.0
H599 H 0.9577 0.19401 0.30992 0.0
H600 H 0.95779 0.13403 0.32807 0.0
H601 H 0.08533 0.30441 0.29751 0.0
H602 H 0.92475 0.29076 0.32245 0.0
H603 H 0.95353 0.2659 0.33363 0.0
H604 H 0.91805 0.23687 0.31637 0.0
C605 C 0.05382 0.2279 0.34185 0.0
C606 C 0.01949 0.18131 0.34075 0.0
C607 C 0.05344 0.2621 0.33155 0.0
C608 C 0.01864 0.25033 0.32007 0.0
C609 C 0.9843 0.20388 0.31896 0.0
H610 H 0.02615 0.41025 0.23121 0.0
H611 H 0.02099 0.35078 0.25144 0.0
C612 C 0.98461 0.16965 0.32925 0.0
C613 C 0.01957 0.28638 0.30865 0.0
H614 H 0.95773 0.33615 0.29686 0.0
C615 C 0.05756 0.31154 0.29742 0.0
C616 C 0.98344 0.2958 0.3087 0.0
C617 C 0.9428 0.27125 0.32103 0.0
C618 C 0.06002 0.34535 0.28597 0.0
C619 C 0.0232 0.35365 0.28562 0.0
C620 C 0.98562 0.32922 0.29708 0.0
C621 C 0.02343 0.38795 0.27349 0.0
C622 C 0.10219 0.37226 0.27444 0.0
C623 C 0.02508 0.42764 0.27928 0.0
C624 C 0.02784 0.46132 0.26777 0.0
C625 C 0.02866 0.4554 0.25041 0.0
C626 C 0.02564 0.41518 0.24461 0.0
C627 C 0.02294 0.38154 0.2561 0.0
H628 H 0.13154 0.36954 0.27899 0.0
H629 H 0.09443 0.35834 0.26168 0.0
H630 H 0.11266 0.40933 0.2733 0.0
H631 H 0.02532 0.433 0.29266 0.0
H632 H 0.03015 0.49231 0.27237 0.0
loop_
_geom_bond_atom_site_label_1
_geom_bond_atom_site_label_2
_geom_bond_distance
_geom_bond_site_symmetry_2
_ccdc_geom_bond_type
C0 O1 1.306 . S
C0 O3 1.160 . S
O1 C0 1.306 . S
O1 Cd2 2.228 . S
Cd2 O1 2.228 . S
Cd2 O6 2.280 1_455 S
Cd2 O10 2.277 . S
O3 C0 1.160 . S
O3 Cd4 2.203 . S
Cd4 O3 2.203 . S
Cd4 O6 2.393 1_455 S
Cd4 O7 2.333 1_545 S
Cd4 O8 2.352 1_545 S
Cd4 O12 2.277 . S
Cd4 O13 2.356 1_545 S
C5 O10 1.209 . S
C5 O12 1.226 . S
O6 Cd2 2.280 1_655 S
O6 Cd4 2.393 1_655 S
O6 C9 1.310 1_645 S
O7 Cd4 2.333 1_565 S
O7 C9 1.214 . S
O8 Cd4 2.352 1_565 S
O8 C11 1.258 . S
C9 O6 1.310 1_465 S
C9 O7 1.214 . S
O10 Cd2 2.277 . S
O10 C5 1.209 . S
C11 O8 1.258 . S
C11 O13 1.282 . S
O12 Cd4 2.277 . S
O12 C5 1.226 . S
O13 Cd4 2.356 1_565 S
O13 C11 1.282 . S
C14 O15 1.306 . S
C14 O17 1.160 . S
O15 C14 1.306 . S
O15 Cd16 2.228 . S
Cd16 O15 2.228 . S
Cd16 O20 2.273 . S
Cd16 O24 2.277 . S
O17 C14 1.160 . S
O17 Cd18 2.203 . S
Cd18 O17 2.203 . S
Cd18 O20 2.411 . S
Cd18 O21 2.333 1_455 S
Cd18 O22 2.352 1_455 S
Cd18 O26 2.277 1_445 S
Cd18 O27 2.356 1_455 S
C19 O24 1.196 1_565 S
C19 O26 1.223 1_455 S
O20 Cd16 2.273 . S
O20 Cd18 2.411 . S
O20 C23 1.320 . S
O21 Cd18 2.333 1_655 S
O21 C23 1.214 1_655 S
O22 Cd18 2.352 1_655 S
O22 C25 1.258 . S
C23 O20 1.320 . S
C23 O21 1.214 1_455 S
O24 Cd16 2.277 . S
O24 C19 1.196 1_545 S
C25 O22 1.258 . S
C25 O27 1.282 . S
O26 Cd18 2.277 1_665 S
O26 C19 1.223 1_655 S
O27 Cd18 2.356 1_655 S
O27 C25 1.282 . S
C28 O29 1.306 . S
C28 O31 1.160 1_655 S
O29 C28 1.306 . S
O29 Cd30 2.228 1_655 S
Cd30 O29 2.228 1_455 S
Cd30 O34 2.273 . S
Cd30 O38 2.277 1_455 S
O31 C28 1.160 1_455 S
O31 Cd32 2.203 . S
Cd32 O31 2.203 . S
Cd32 O34 2.411 . S
Cd32 O35 2.333 . S
Cd32 O36 2.352 . S
Cd32 O40 2.277 1_545 S
Cd32 O41 2.356 . S
C33 O38 1.209 1_565 S
C33 O40 1.226 1_655 S
O34 Cd30 2.273 . S
O34 Cd32 2.411 . S
O34 C37 1.320 . S
O35 Cd32 2.333 . S
O35 C37 1.214 . S
O36 Cd32 2.352 . S
O36 C39 1.258 . S
C37 O34 1.320 . S
C37 O35 1.214 . S
O38 Cd30 2.277 1_655 S
O38 C33 1.209 1_545 S
C39 O36 1.258 . S
C39 O41 1.282 . S
O40 Cd32 2.277 1_565 S
O40 C33 1.226 1_455 S
O41 Cd32 2.356 . S
O41 C39 1.282 . S
C42 C43 1.443 . S
C42 N46 1.376 . S
C42 C80 1.389 . S
C43 C42 1.443 . S
C43 C44 1.340 . S
C43 H83 0.951 . S
C44 C43 1.340 . S
C44 C45 1.439 . S
C44 H84 0.950 . S
C45 C44 1.439 . S
C45 N46 1.374 . S
C45 C79 1.395 . S
N46 C42 1.376 . S
N46 C45 1.374 . S
N46 Co47 2.008 . S
Co47 N46 2.008 . S
Co47 N48 1.995 . S
Co47 N53 2.008 1_455 S
Co47 N58 1.995 . S
Co47 N63 2.282 . S
Co47 N69 2.282 . S
N48 Co47 1.995 . S
N48 C49 1.376 . S
N48 C52 1.383 . S
C49 N48 1.376 . S
C49 C50 1.446 . S
C49 C79 1.391 . S
C50 C49 1.446 . S
C50 C51 1.339 . S
C50 H85 0.949 . S
C51 C50 1.339 . S
C51 C52 1.439 . S
C51 H86 0.950 . S
C52 N48 1.383 . S
C52 C51 1.439 . S
C52 C81 1.392 . S
N53 Co47 2.008 1_655 S
N53 C54 1.376 1_655 S
N53 C57 1.374 . S
C54 N53 1.376 1_455 S
C54 C55 1.443 1_455 S
C54 C81 1.389 . S
C55 C54 1.443 1_655 S
C55 C56 1.340 . S
C55 H87 0.951 . S
C56 C55 1.340 . S
C56 C57 1.439 . S
C56 H88 0.950 . S
C57 N53 1.374 . S
C57 C56 1.439 . S
C57 C82 1.395 . S
N58 Co47 1.995 . S
N58 C59 1.376 1_455 S
N58 C62 1.383 . S
C59 N58 1.376 1_655 S
C59 C60 1.446 . S
C59 C82 1.391 . S
C60 C59 1.446 . S
C60 C61 1.339 . S
C60 H89 0.949 . S
C61 C60 1.339 . S
C61 C62 1.439 1_655 S
C61 H90 0.950 . S
C62 N58 1.383 . S
C62 C61 1.439 1_455 S
C62 C80 1.392 . S
N63 Co47 2.282 . S
N63 C66 1.332 . S
N63 C68 1.332 . S
C64 C65 1.386 . S
C64 C67 1.388 . S
C65 C64 1.386 . S
C65 C66 1.382 . S
C65 H91 0.950 1_455 S
C66 N63 1.332 . S
C66 C65 1.382 . S
C66 H77 0.952 1_455 S
C67 C64 1.388 . S
C67 C68 1.382 . S
C67 H92 0.950 . S
C68 N63 1.332 . S
C68 C67 1.382 . S
C68 H78 0.948 . S
N69 Co47 2.282 . S
N69 C73 1.332 . S
N69 C74 1.332 . S
C70 C71 1.388 . S
C70 C74 1.382 . S
C70 H93 0.950 1_455 S
C71 C70 1.388 . S
C71 C72 1.386 . S
C72 C71 1.386 . S
C72 C73 1.382 . S
C72 H94 0.950 . S
C73 N69 1.332 . S
C73 C72 1.382 . S
C73 H75 0.952 . S
C74 N69 1.332 . S
C74 C70 1.382 . S
C74 H76 0.948 1_455 S
H75 C73 0.952 . S
H76 C74 0.948 1_655 S
H77 C66 0.952 1_655 S
H78 C68 0.948 . S
C79 C45 1.395 . S
C79 C49 1.391 . S
C80 C42 1.389 . S
C80 C62 1.392 . S
C81 C52 1.392 . S
C81 C54 1.389 . S
C82 C57 1.395 . S
C82 C59 1.391 . S
H83 C43 0.951 . S
H84 C44 0.950 . S
H85 C50 0.949 . S
H86 C51 0.950 . S
H87 C55 0.951 . S
H88 C56 0.950 . S
H89 C60 0.949 . S
H90 C61 0.950 . S
H91 C65 0.950 1_655 S
H92 C67 0.950 . S
H93 C70 0.950 1_655 S
H94 C72 0.950 . S
C95 C96 1.443 1_545 S
C95 N99 1.376 . S
C95 C133 1.389 . S
C96 C95 1.443 1_565 S
C96 C97 1.340 . S
C96 H136 0.951 . S
C97 C96 1.340 . S
C97 C98 1.439 . S
C97 H137 0.950 . S
C98 C97 1.439 . S
C98 N99 1.374 1_565 S
C98 C132 1.395 . S
N99 C95 1.376 . S
N99 C98 1.374 1_545 S
N99 Co100 2.008 . S
Co100 N99 2.008 . S
Co100 N101 1.995 . S
Co100 N106 2.008 . S
Co100 N111 1.995 . S
Co100 N116 2.282 . S
Co100 N122 2.282 . S
N101 Co100 1.995 . S
N101 C102 1.376 1_545 S
N101 C105 1.383 . S
C102 N101 1.376 1_565 S
C102 C103 1.446 . S
C102 C132 1.391 . S
C103 C102 1.446 . S
C103 C104 1.339 . S
C103 H138 0.949 . S
C104 C103 1.339 . S
C104 C105 1.439 1_565 S
C104 H139 0.950 . S
C105 N101 1.383 . S
C105 C104 1.439 1_545 S
C105 C134 1.392 . S
N106 Co100 2.008 . S
N106 C107 1.376 . S
N106 C110 1.374 . S
C107 N106 1.376 . S
C107 C108 1.443 . S
C107 C134 1.389 . S
C108 C107 1.443 . S
C108 C109 1.340 . S
C108 H140 0.951 . S
C109 C108 1.340 . S
C109 C110 1.439 . S
C109 H141 0.950 . S
C110 N106 1.374 . S
C110 C109 1.439 . S
C110 C135 1.395 . S
N111 Co100 1.995 . S
N111 C112 1.376 . S
N111 C115 1.383 . S
C112 N111 1.376 . S
C112 C113 1.446 . S
C112 C135 1.391 . S
C113 C112 1.446 . S
C113 C114 1.339 . S
C113 H142 0.949 . S
C114 C113 1.339 . S
C114 C115 1.439 . S
C114 H143 0.950 . S
C115 N111 1.383 . S
C115 C114 1.439 . S
C115 C133 1.392 . S
N116 Co100 2.282 . S
N116 C119 1.332 . S
N116 C121 1.332 . S
C117 C118 1.386 . S
C117 C120 1.388 . S
C118 C117 1.386 . S
C118 C119 1.382 . S
C118 H144 0.950 . S
C119 N116 1.332 . S
C119 C118 1.382 . S
C119 H130 0.952 . S
C120 C117 1.388 . S
C120 C121 1.382 . S
C120 H145 0.950 1_545 S
C121 N116 1.332 . S
C121 C120 1.382 . S
C121 H131 0.948 1_545 S
N122 Co100 2.282 . S
N122 C126 1.332 . S
N122 C127 1.332 . S
C123 C124 1.388 . S
C123 C127 1.382 . S
C123 H146 0.950 . S
C124 C123 1.388 . S
C124 C125 1.386 . S
C125 C124 1.386 . S
C125 C126 1.382 . S
C125 H147 0.947 1_545 S
C126 N122 1.332 . S
C126 C125 1.382 . S
C126 H128 0.952 . S
C127 N122 1.332 . S
C127 C123 1.382 . S
C127 H129 0.948 . S
H128 C126 0.952 . S
H129 C127 0.948 . S
H130 C119 0.952 . S
H131 C121 0.948 1_565 S
C132 C98 1.395 . S
C132 C102 1.391 . S
C133 C95 1.389 . S
C133 C115 1.392 . S
C134 C105 1.392 . S
C134 C107 1.389 . S
C135 C110 1.395 . S
C135 C112 1.391 . S
H136 C96 0.951 . S
H137 C97 0.950 . S
H138 C103 0.949 . S
H139 C104 0.950 . S
H140 C108 0.951 . S
H141 C109 0.950 . S
H142 C113 0.949 . S
H143 C114 0.950 . S
H144 C118 0.950 . S
H145 C120 0.950 1_565 S
H146 C123 0.950 . S
H147 C125 0.947 1_565 S
C148 C149 1.443 . S
C148 N152 1.376 . S
C148 C186 1.389 . S
C149 C148 1.443 . S
C149 C150 1.340 . S
C149 H189 0.951 . S
C150 C149 1.340 . S
C150 C151 1.439 . S
C150 H190 0.950 . S
C151 C150 1.439 . S
C151 N152 1.374 . S
C151 C185 1.395 . S
N152 C148 1.376 . S
N152 C151 1.374 . S
N152 Co153 2.008 . S
Co153 N152 2.008 . S
Co153 N154 1.995 . S
Co153 N159 2.008 . S
Co153 N164 1.995 . S
Co153 N169 2.282 . S
Co153 N175 2.282 . S
N154 Co153 1.995 . S
N154 C155 1.376 . S
N154 C158 1.383 . S
C155 N154 1.376 . S
C155 C156 1.446 . S
C155 C185 1.391 . S
C156 C155 1.446 . S
C156 C157 1.339 . S
C156 H191 0.949 . S
C157 C156 1.339 . S
C157 C158 1.439 . S
C157 H192 0.950 . S
C158 N154 1.383 . S
C158 C157 1.439 . S
C158 C187 1.392 . S
N159 Co153 2.008 . S
N159 C160 1.376 . S
N159 C163 1.374 . S
C160 N159 1.376 . S
C160 C161 1.443 . S
C160 C187 1.389 . S
C161 C160 1.443 . S
C161 C162 1.340 . S
C161 H193 0.951 . S
C162 C161 1.340 . S
C162 C163 1.439 . S
C162 H194 0.950 . S
C163 N159 1.374 . S
C163 C162 1.439 . S
C163 C188 1.395 . S
N164 Co153 1.995 . S
N164 C165 1.376 . S
N164 C168 1.383 . S
C165 N164 1.376 . S
C165 C166 1.446 . S
C165 C188 1.391 . S
C166 C165 1.446 . S
C166 C167 1.339 . S
C166 H195 0.949 . S
C167 C166 1.339 . S
C167 C168 1.439 . S
C167 H196 0.950 . S
C168 N164 1.383 . S
C168 C167 1.439 . S
C168 C186 1.392 . S
N169 Co153 2.282 . S
N169 C172 1.332 . S
N169 C174 1.332 . S
C170 C171 1.386 . S
C170 C173 1.388 . S
C171 C170 1.386 . S
C171 C172 1.382 . S
C171 H197 0.950 . S
C172 N169 1.332 . S
C172 C171 1.382 . S
C172 H183 0.952 . S
C173 C170 1.388 . S
C173 C174 1.382 . S
C173 H198 0.950 . S
C174 N169 1.332 . S
C174 C173 1.382 . S
C174 H184 0.948 . S
N175 Co153 2.282 . S
N175 C179 1.332 . S
N175 C180 1.332 . S
C176 C177 1.388 . S
C176 C180 1.382 . S
C176 H199 0.950 . S
C177 C176 1.388 . S
C177 C178 1.386 . S
C178 C177 1.386 . S
C178 C179 1.382 . S
C178 H200 0.950 . S
C179 N175 1.332 . S
C179 C178 1.382 . S
C179 H181 0.952 . S
C180 N175 1.332 . S
C180 C176 1.382 . S
C180 H182 0.948 . S
H181 C179 0.952 . S
H182 C180 0.948 . S
H183 C172 0.952 . S
H184 C174 0.948 . S
C185 C151 1.395 . S
C185 C155 1.391 . S
C186 C148 1.389 . S
C186 C168 1.392 . S
C187 C158 1.392 . S
C187 C160 1.389 . S
C188 C163 1.395 . S
C188 C165 1.391 . S
H189 C149 0.951 . S
H190 C150 0.950 . S
H191 C156 0.949 . S
H192 C157 0.950 . S
H193 C161 0.951 . S
H194 C162 0.950 . S
H195 C166 0.949 . S
H196 C167 0.950 . S
H197 C171 0.950 . S
H198 C173 0.950 . S
H199 C176 0.950 . S
H200 C178 0.950 . S
H201 C209 0.929 . S
H202 C211 0.930 . S
H203 C213 0.930 . S
H204 C216 0.929 . S
H205 C219 0.930 . S
H206 C221 0.960 . S
H207 C221 0.960 . S
H208 C221 0.960 . S
C209 H201 0.929 . S
C209 C210 1.377 . S
C209 C211 1.384 . S
C210 C209 1.377 . S
C210 C216 1.390 . S
C211 H202 0.930 . S
C211 C209 1.384 . S
C211 C212 1.372 . S
C212 C211 1.372 . S
C212 C213 1.400 . S
C212 C217 1.490 . S
C213 H203 0.930 . S
C213 C212 1.400 . S
C213 C216 1.386 . S
H214 C230 0.930 . S
H215 C231 0.931 . S
C216 H204 0.929 . S
C216 C210 1.390 . S
C216 C213 1.386 . S
C217 C212 1.490 . S
C217 C219 1.395 . S
C217 C220 1.403 . S
H218 C224 0.930 1_655 S
C219 H205 0.930 . S
C219 C217 1.395 . S
C219 C222 1.403 . S
C220 C217 1.403 . S
C220 C221 1.524 1_455 S
C220 C224 1.400 . S
C221 H206 0.960 . S
C221 H207 0.960 . S
C221 H208 0.960 . S
C221 C220 1.524 1_655 S
C222 C219 1.403 . S
C222 C223 1.392 . S
C222 C226 1.495 . S
C223 C222 1.392 . S
C223 C224 1.385 . S
C223 C225 1.478 . S
C224 H218 0.930 1_455 S
C224 C220 1.400 . S
C224 C223 1.385 . S
C225 C223 1.478 . S
C225 C227 1.381 . S
C225 C231 1.383 . S
C226 C222 1.495 . S
C226 H232 0.959 . S
C226 H233 0.961 . S
C226 H234 0.960 . S
C227 C225 1.381 . S
C227 C228 1.394 . S
C227 H235 0.930 . S
C228 C227 1.394 . S
C228 C229 1.383 . S
C228 H236 0.929 . S
C229 C228 1.383 . S
C229 C230 1.377 . S
C230 H214 0.930 . S
C230 C229 1.377 . S
C230 C231 1.379 . S
C231 H215 0.931 . S
C231 C225 1.383 . S
C231 C230 1.379 . S
H232 C226 0.959 . S
H233 C226 0.961 . S
H234 C226 0.960 . S
H235 C227 0.930 . S
H236 C228 0.929 . S
H237 C245 0.929 . S
H238 C247 0.930 . S
H239 C249 0.930 . S
H240 C252 0.929 . S
H241 C255 0.930 . S
H242 C257 0.960 . S
H243 C257 0.960 . S
H244 C257 0.960 . S
C245 H237 0.929 . S
C245 C246 1.377 . S
C245 C247 1.384 . S
C246 C245 1.377 . S
C246 C252 1.390 . S
C247 H238 0.930 . S
C247 C245 1.384 . S
C247 C248 1.372 . S
C248 C247 1.372 . S
C248 C249 1.400 . S
C248 C253 1.490 . S
C249 H239 0.930 . S
C249 C248 1.400 . S
C249 C252 1.386 . S
H250 C266 0.930 . S
H251 C267 0.931 . S
C252 H240 0.929 . S
C252 C246 1.390 . S
C252 C249 1.386 . S
C253 C248 1.490 . S
C253 C255 1.395 . S
C253 C256 1.403 . S
H254 C260 0.930 . S
C255 H241 0.930 . S
C255 C253 1.395 . S
C255 C258 1.403 . S
C256 C253 1.403 . S
C256 C257 1.524 1_545 S
C256 C260 1.400 . S
C257 H242 0.960 . S
C257 H243 0.960 . S
C257 H244 0.960 . S
C257 C256 1.524 1_565 S
C258 C255 1.403 . S
C258 C259 1.392 . S
C258 C262 1.495 . S
C259 C258 1.392 . S
C259 C260 1.385 . S
C259 C261 1.478 . S
C260 H254 0.930 . S
C260 C256 1.400 . S
C260 C259 1.385 . S
C261 C259 1.478 . S
C261 C263 1.381 . S
C261 C267 1.383 . S
C262 C258 1.495 . S
C262 H268 0.959 . S
C262 H269 0.961 . S
C262 H270 0.960 . S
C263 C261 1.381 . S
C263 C264 1.394 . S
C263 H271 0.930 . S
C264 C263 1.394 . S
C264 C265 1.383 . S
C264 H272 0.929 . S
C265 C264 1.383 . S
C265 C266 1.377 . S
C266 H250 0.930 . S
C266 C265 1.377 . S
C266 C267 1.379 . S
C267 H251 0.931 . S
C267 C261 1.383 . S
C267 C266 1.379 . S
H268 C262 0.959 . S
H269 C262 0.961 . S
H270 C262 0.960 . S
H271 C263 0.930 . S
H272 C264 0.929 . S
H273 C281 0.929 . S
H274 C283 0.930 . S
H275 C285 0.930 . S
H276 C288 0.929 . S
H277 C291 0.930 . S
H278 C293 0.960 . S
H279 C293 0.960 . S
H280 C293 0.960 . S
C281 H273 0.929 . S
C281 C282 1.377 . S
C281 C283 1.384 . S
C282 C281 1.377 . S
C282 C288 1.390 . S
C283 H274 0.930 . S
C283 C281 1.384 . S
C283 C284 1.372 . S
C284 C283 1.372 . S
C284 C285 1.400 . S
C284 C289 1.490 . S
C285 H275 0.930 . S
C285 C284 1.400 . S
C285 C288 1.386 . S
H286 C302 0.930 . S
H287 C303 0.931 . S
C288 H276 0.929 . S
C288 C282 1.390 . S
C288 C285 1.386 . S
C289 C284 1.490 . S
C289 C291 1.395 . S
C289 C292 1.403 . S
H290 C296 0.930 . S
C291 H277 0.930 . S
C291 C289 1.395 . S
C291 C294 1.403 . S
C292 C289 1.403 . S
C292 C293 1.524 . S
C292 C296 1.400 . S
C293 H278 0.960 . S
C293 H279 0.960 . S
C293 H280 0.960 . S
C293 C292 1.524 . S
C294 C291 1.403 . S
C294 C295 1.392 . S
C294 C298 1.495 . S
C295 C294 1.392 . S
C295 C296 1.385 . S
C295 C297 1.478 . S
C296 H290 0.930 . S
C296 C292 1.400 . S
C296 C295 1.385 . S
C297 C295 1.478 . S
C297 C299 1.381 . S
C297 C303 1.383 . S
C298 C294 1.495 . S
C298 H304 0.959 . S
C298 H305 0.961 . S
C298 H306 0.960 . S
C299 C297 1.381 . S
C299 C300 1.394 . S
C299 H307 0.930 . S
C300 C299 1.394 . S
C300 C301 1.383 . S
C300 H308 0.929 . S
C301 C300 1.383 . S
C301 C302 1.377 . S
C302 H286 0.930 . S
C302 C301 1.377 . S
C302 C303 1.379 . S
C303 H287 0.931 . S
C303 C297 1.383 . S
C303 C302 1.379 . S
H304 C298 0.959 . S
H305 C298 0.961 . S
H306 C298 0.960 . S
H307 C299 0.930 . S
H308 C300 0.929 . S
H309 C317 0.929 . S
H310 C319 0.930 . S
H311 C321 0.930 . S
H312 C324 0.929 . S
H313 C327 0.930 . S
H314 C329 0.960 . S
H315 C329 0.960 . S
H316 C329 0.960 . S
C317 H309 0.929 . S
C317 C318 1.377 . S
C317 C319 1.384 . S
C318 C317 1.377 . S
C318 C324 1.390 . S
C319 H310 0.930 . S
C319 C317 1.384 . S
C319 C320 1.372 . S
C320 C319 1.372 . S
C320 C321 1.400 . S
C320 C325 1.490 . S
C321 H311 0.930 . S
C321 C320 1.400 . S
C321 C324 1.386 . S
H322 C338 0.930 . S
H323 C339 0.931 . S
C324 H312 0.929 . S
C324 C318 1.390 . S
C324 C321 1.386 . S
C325 C320 1.490 . S
C325 C327 1.395 . S
C325 C328 1.403 . S
H326 C332 0.930 1_655 S
C327 H313 0.930 . S
C327 C325 1.395 . S
C327 C330 1.403 . S
C328 C325 1.403 . S
C328 C329 1.524 1_455 S
C328 C332 1.400 . S
C329 H314 0.960 . S
C329 H315 0.960 . S
C329 H316 0.960 . S
C329 C328 1.524 1_655 S
C330 C327 1.403 . S
C330 C331 1.392 . S
C330 C334 1.495 . S
C331 C330 1.392 . S
C331 C332 1.385 . S
C331 C333 1.478 . S
C332 H326 0.930 1_455 S
C332 C328 1.400 . S
C332 C331 1.385 . S
C333 C331 1.478 . S
C333 C335 1.381 . S
C333 C339 1.383 . S
C334 C330 1.495 . S
C334 H340 0.959 . S
C334 H341 0.961 . S
C334 H342 0.960 . S
C335 C333 1.381 . S
C335 C336 1.394 . S
C335 H343 0.930 . S
C336 C335 1.394 . S
C336 C337 1.383 . S
C336 H344 0.929 . S
C337 C336 1.383 . S
C337 C338 1.377 . S
C338 H322 0.930 . S
C338 C337 1.377 . S
C338 C339 1.379 . S
C339 H323 0.931 . S
C339 C333 1.383 . S
C339 C338 1.379 . S
H340 C334 0.959 . S
H341 C334 0.961 . S
H342 C334 0.960 . S
H343 C335 0.930 . S
H344 C336 0.929 . S
H345 C353 0.929 . S
H346 C355 0.930 . S
H347 C357 0.930 . S
H348 C360 0.929 . S
H349 C363 0.930 1_565 S
H350 C365 0.960 . S
H351 C365 0.960 . S
H352 C365 0.960 . S
C353 H345 0.929 . S
C353 C354 1.377 . S
C353 C355 1.384 . S
C354 C353 1.377 . S
C354 C360 1.390 . S
C355 H346 0.930 . S
C355 C353 1.384 . S
C355 C356 1.372 . S
C356 C355 1.372 . S
C356 C357 1.400 . S
C356 C361 1.490 . S
C357 H347 0.930 . S
C357 C356 1.400 . S
C357 C360 1.386 . S
H358 C374 0.930 . S
H359 C375 0.931 . S
C360 H348 0.929 . S
C360 C354 1.390 . S
C360 C357 1.386 . S
C361 C356 1.490 . S
C361 C363 1.395 . S
C361 C364 1.403 . S
H362 C368 0.930 . S
C363 H349 0.930 1_545 S
C363 C361 1.395 . S
C363 C366 1.403 . S
C364 C361 1.403 . S
C364 C365 1.524 . S
C364 C368 1.400 . S
C365 H350 0.960 . S
C365 H351 0.960 . S
C365 H352 0.960 . S
C365 C364 1.524 . S
C366 C363 1.403 . S
C366 C367 1.392 . S
C366 C370 1.495 1_545 S
C367 C366 1.392 . S
C367 C368 1.385 . S
C367 C369 1.478 . S
C368 H362 0.930 . S
C368 C364 1.400 . S
C368 C367 1.385 . S
C369 C367 1.478 . S
C369 C371 1.381 . S
C369 C375 1.383 . S
C370 C366 1.495 1_565 S
C370 H376 0.959 . S
C370 H377 0.961 . S
C370 H378 0.960 . S
C371 C369 1.381 . S
C371 C372 1.394 . S
C371 H379 0.930 . S
C372 C371 1.394 . S
C372 C373 1.383 . S
C372 H380 0.929 . S
C373 C372 1.383 . S
C373 C374 1.377 . S
C374 H358 0.930 . S
C374 C373 1.377 . S
C374 C375 1.379 . S
C375 H359 0.931 . S
C375 C369 1.383 . S
C375 C374 1.379 . S
H376 C370 0.959 . S
H377 C370 0.961 . S
H378 C370 0.960 . S
H379 C371 0.930 . S
H380 C372 0.929 . S
H381 C389 0.929 . S
H382 C391 0.930 . S
H383 C393 0.930 . S
H384 C396 0.929 . S
H385 C399 0.930 . S
H386 C401 0.960 . S
H387 C401 0.960 . S
H388 C401 0.960 . S
C389 H381 0.929 . S
C389 C390 1.377 . S
C389 C391 1.384 . S
C390 C389 1.377 . S
C390 C396 1.390 . S
C391 H382 0.930 . S
C391 C389 1.384 . S
C391 C392 1.372 . S
C392 C391 1.372 . S
C392 C393 1.400 . S
C392 C397 1.490 . S
C393 H383 0.930 . S
C393 C392 1.400 . S
C393 C396 1.386 . S
H394 C410 0.930 . S
H395 C411 0.931 . S
C396 H384 0.929 . S
C396 C390 1.390 . S
C396 C393 1.386 . S
C397 C392 1.490 . S
C397 C399 1.395 . S
C397 C400 1.403 . S
H398 C404 0.930 . S
C399 H385 0.930 . S
C399 C397 1.395 . S
C399 C402 1.403 . S
C400 C397 1.403 . S
C400 C401 1.524 . S
C400 C404 1.400 . S
C401 H386 0.960 . S
C401 H387 0.960 . S
C401 H388 0.960 . S
C401 C400 1.524 . S
C402 C399 1.403 . S
C402 C403 1.392 . S
C402 C406 1.495 . S
C403 C402 1.392 . S
C403 C404 1.385 . S
C403 C405 1.478 . S
C404 H398 0.930 . S
C404 C400 1.400 . S
C404 C403 1.385 . S
C405 C403 1.478 . S
C405 C407 1.381 . S
C405 C411 1.383 . S
C406 C402 1.495 . S
C406 H412 0.959 . S
C406 H413 0.961 . S
C406 H414 0.960 . S
C407 C405 1.381 . S
C407 C408 1.394 . S
C407 H415 0.930 . S
C408 C407 1.394 . S
C408 C409 1.383 . S
C408 H416 0.929 . S
C409 C408 1.383 . S
C409 C410 1.377 . S
C410 H394 0.930 . S
C410 C409 1.377 . S
C410 C411 1.379 . S
C411 H395 0.931 . S
C411 C405 1.383 . S
C411 C410 1.379 . S
H412 C406 0.959 . S
H413 C406 0.961 . S
H414 C406 0.960 . S
H415 C407 0.930 . S
H416 C408 0.929 . S
H417 C425 0.929 1_455 S
H418 C427 0.930 . S
H419 C429 0.930 . S
H420 C432 0.929 1_565 S
H421 C435 0.930 . S
H422 C437 0.960 . S
H423 C437 0.960 . S
H424 C437 0.960 . S
C425 H417 0.929 1_655 S
C425 C426 1.377 . S
C425 C427 1.384 . S
C426 C425 1.377 . S
C426 C432 1.390 . S
C427 H418 0.930 . S
C427 C425 1.384 . S
C427 C428 1.372 . S
C428 C427 1.372 . S
C428 C429 1.400 . S
C428 C433 1.490 . S
C429 H419 0.930 . S
C429 C428 1.400 . S
C429 C432 1.386 . S
H430 C446 0.934 . S
H431 C447 0.931 1_565 S
C432 H420 0.929 1_545 S
C432 C426 1.390 . S
C432 C429 1.386 . S
C433 C428 1.490 . S
C433 C435 1.395 . S
C433 C436 1.403 . S
H434 C440 0.930 . S
C435 H421 0.930 . S
C435 C433 1.395 . S
C435 C438 1.403 . S
C436 C433 1.403 . S
C436 C437 1.524 . S
C436 C440 1.400 . S
C437 H422 0.960 . S
C437 H423 0.960 . S
C437 H424 0.960 . S
C437 C436 1.524 . S
C438 C435 1.403 . S
C438 C439 1.392 . S
C438 C442 1.495 . S
C439 C438 1.392 . S
C439 C440 1.385 . S
C439 C441 1.478 . S
C440 H434 0.930 . S
C440 C436 1.400 . S
C440 C439 1.385 . S
C441 C439 1.478 . S
C441 C443 1.381 . S
C441 C447 1.383 . S
C442 C438 1.495 . S
C442 H448 0.959 . S
C442 H449 0.961 . S
C442 H450 0.960 . S
C443 C441 1.381 . S
C443 C444 1.394 . S
C443 H451 0.930 . S
C444 C443 1.394 . S
C444 C445 1.383 . S
C444 H452 0.929 . S
C445 C444 1.383 . S
C445 C446 1.377 . S
C446 H430 0.934 . S
C446 C445 1.377 . S
C446 C447 1.379 . S
C447 H431 0.931 1_545 S
C447 C441 1.383 . S
C447 C446 1.379 . S
H448 C442 0.959 . S
H449 C442 0.961 . S
H450 C442 0.960 . S
H451 C443 0.930 . S
H452 C444 0.929 . S
H453 C461 0.929 . S
H454 C463 0.930 . S
H455 C465 0.930 . S
H456 C468 0.929 . S
H457 C471 0.930 . S
H458 C473 0.960 . S
H459 C473 0.960 1_554 S
H460 C473 0.971 . S
C461 H453 0.929 . S
C461 C462 1.377 . S
C461 C463 1.384 1_554 S
C462 C461 1.377 . S
C462 C468 1.390 . S
C463 H454 0.930 . S
C463 C461 1.384 1_556 S
C463 C464 1.372 . S
C464 C463 1.372 . S
C464 C465 1.400 . S
C464 C469 1.490 . S
C465 H455 0.930 . S
C465 C464 1.400 . S
C465 C468 1.386 1_556 S
H466 C482 0.930 . S
H467 C483 0.931 . S
C468 H456 0.929 . S
C468 C462 1.390 . S
C468 C465 1.386 1_554 S
C469 C464 1.490 . S
C469 C471 1.395 . S
C469 C472 1.403 . S
H470 C476 0.930 . S
C471 H457 0.930 . S
C471 C469 1.395 . S
C471 C474 1.403 . S
C472 C469 1.403 . S
C472 C473 1.524 . S
C472 C476 1.400 . S
C473 H458 0.960 . S
C473 H459 0.960 1_556 S
C473 H460 0.971 . S
C473 C472 1.524 . S
C474 C471 1.403 . S
C474 C475 1.392 . S
C474 C478 1.495 . S
C475 C474 1.392 . S
C475 C476 1.385 . S
C475 C477 1.478 . S
C476 H470 0.930 . S
C476 C472 1.400 . S
C476 C475 1.385 . S
C477 C475 1.478 . S
C477 C479 1.381 . S
C477 C483 1.383 . S
C478 C474 1.495 . S
C478 H484 0.959 . S
C478 H485 0.961 . S
C478 H486 0.960 . S
C479 C477 1.381 . S
C479 C480 1.394 . S
C479 H487 0.930 . S
C480 C479 1.394 . S
C480 C481 1.383 . S
C480 H488 0.929 . S
C481 C480 1.383 . S
C481 C482 1.377 . S
C482 H466 0.930 . S
C482 C481 1.377 . S
C482 C483 1.379 . S
C483 H467 0.931 . S
C483 C477 1.383 . S
C483 C482 1.379 . S
H484 C478 0.959 . S
H485 C478 0.961 . S
H486 C478 0.960 . S
H487 C479 0.930 . S
H488 C480 0.929 . S
H489 C497 0.929 . S
H490 C499 0.930 . S
H491 C501 0.930 . S
H492 C504 0.929 . S
H493 C507 0.930 . S
H494 C509 0.960 . S
H495 C509 0.960 . S
H496 C509 0.960 . S
C497 H489 0.929 . S
C497 C498 1.377 1_655 S
C497 C499 1.384 . S
C498 C497 1.377 1_455 S
C498 C504 1.390 . S
C499 H490 0.930 . S
C499 C497 1.384 . S
C499 C500 1.372 1_655 S
C500 C499 1.372 1_455 S
C500 C501 1.400 . S
C500 C505 1.490 . S
C501 H491 0.930 . S
C501 C500 1.400 . S
C501 C504 1.386 . S
H502 C518 0.930 . S
H503 C519 0.931 . S
C504 H492 0.929 . S
C504 C498 1.390 . S
C504 C501 1.386 . S
C505 C500 1.490 . S
C505 C507 1.395 . S
C505 C508 1.403 . S
H506 C512 0.930 . S
C507 H493 0.930 . S
C507 C505 1.395 . S
C507 C510 1.403 . S
C508 C505 1.403 . S
C508 C509 1.524 . S
C508 C512 1.400 . S
C509 H494 0.960 . S
C509 H495 0.960 . S
C509 H496 0.960 . S
C509 C508 1.524 . S
C510 C507 1.403 . S
C510 C511 1.392 . S
C510 C514 1.495 . S
C511 C510 1.392 . S
C511 C512 1.385 . S
C511 C513 1.478 . S
C512 H506 0.930 . S
C512 C508 1.400 . S
C512 C511 1.385 . S
C513 C511 1.478 . S
C513 C515 1.381 1_455 S
C513 C519 1.383 . S
C514 C510 1.495 . S
C514 H520 0.959 . S
C514 H521 0.961 . S
C514 H522 0.960 1_455 S
C515 C513 1.381 1_655 S
C515 C516 1.386 1_655 S
C515 H523 0.930 . S
C516 C515 1.386 1_455 S
C516 C517 1.402 . S
C516 H524 0.919 1_455 S
C517 C516 1.402 . S
C517 C518 1.377 . S
C518 H502 0.930 . S
C518 C517 1.377 . S
C518 C519 1.379 . S
C519 H503 0.931 . S
C519 C513 1.383 . S
C519 C518 1.379 . S
H520 C514 0.959 . S
H521 C514 0.961 . S
H522 C514 0.960 1_655 S
H523 C515 0.930 . S
H524 C516 0.919 1_655 S
H525 C533 0.929 . S
H526 C535 0.930 . S
H527 C537 0.930 . S
H528 C540 0.929 . S
H529 C543 0.930 . S
H530 C545 0.960 . S
H531 C545 0.960 . S
H532 C545 0.960 1_545 S
C533 H525 0.929 . S
C533 C534 1.377 . S
C533 C535 1.384 . S
C534 C533 1.377 . S
C534 C540 1.390 . S
C535 H526 0.930 . S
C535 C533 1.384 . S
C535 C536 1.372 . S
C536 C535 1.372 . S
C536 C537 1.400 . S
C536 C541 1.490 . S
C537 H527 0.930 . S
C537 C536 1.400 . S
C537 C540 1.386 . S
H538 C554 0.930 . S
H539 C555 0.931 . S
C540 H528 0.929 . S
C540 C534 1.390 . S
C540 C537 1.386 . S
C541 C536 1.490 . S
C541 C543 1.395 . S
C541 C544 1.403 . S
H542 C548 0.930 . S
C543 H529 0.930 . S
C543 C541 1.395 . S
C543 C546 1.403 . S
C544 C541 1.403 . S
C544 C545 1.524 1_545 S
C544 C548 1.400 . S
C545 H530 0.960 . S
C545 H531 0.960 . S
C545 H532 0.960 1_565 S
C545 C544 1.524 1_565 S
C546 C543 1.403 . S
C546 C547 1.392 . S
C546 C550 1.495 . S
C547 C546 1.392 . S
C547 C548 1.385 . S
C547 C549 1.478 . S
C548 H542 0.930 . S
C548 C544 1.400 . S
C548 C547 1.385 . S
C549 C547 1.478 . S
C549 C551 1.381 . S
C549 C555 1.383 . S
C550 C546 1.495 . S
C550 H556 0.959 . S
C550 H557 0.961 . S
C550 H558 0.960 . S
C551 C549 1.381 . S
C551 C552 1.394 . S
C551 H559 0.930 . S
C552 C551 1.394 . S
C552 C553 1.383 . S
C552 H560 0.929 . S
C553 C552 1.383 . S
C553 C554 1.377 . S
C554 H538 0.930 . S
C554 C553 1.377 . S
C554 C555 1.379 . S
C555 H539 0.931 . S
C555 C549 1.383 . S
C555 C554 1.379 . S
H556 C550 0.959 . S
H557 C550 0.961 . S
H558 C550 0.960 . S
H559 C551 0.930 . S
H560 C552 0.929 . S
H561 C569 0.929 . S
H562 C571 0.922 1_554 S
H563 C573 0.930 . S
H564 C576 0.929 . S
H565 C579 0.930 . S
H566 C581 0.960 . S
H567 C581 0.960 . S
H568 C581 0.960 . S
C569 H561 0.929 . S
C569 C570 1.377 . S
C569 C571 1.384 1_554 S
C570 C569 1.377 . S
C570 C576 1.390 1_554 S
C571 H562 0.922 1_556 S
C571 C569 1.384 1_556 S
C571 C572 1.372 . S
C572 C571 1.372 . S
C572 C573 1.400 . S
C572 C577 1.490 . S
C573 H563 0.930 . S
C573 C572 1.400 . S
C573 C576 1.386 . S
H574 C590 0.930 . S
H575 C591 0.931 . S
C576 H564 0.929 . S
C576 C570 1.390 1_556 S
C576 C573 1.386 . S
C577 C572 1.490 . S
C577 C579 1.395 . S
C577 C580 1.403 . S
H578 C584 0.930 . S
C579 H565 0.930 . S
C579 C577 1.395 . S
C579 C582 1.403 . S
C580 C577 1.403 . S
C580 C581 1.524 . S
C580 C584 1.400 . S
C581 H566 0.960 . S
C581 H567 0.960 . S
C581 H568 0.960 . S
C581 C580 1.524 . S
C582 C579 1.403 . S
C582 C583 1.392 . S
C582 C586 1.495 . S
C583 C582 1.392 . S
C583 C584 1.385 . S
C583 C585 1.478 . S
C584 H578 0.930 . S
C584 C580 1.400 . S
C584 C583 1.385 . S
C585 C583 1.478 . S
C585 C587 1.381 . S
C585 C591 1.383 . S
C586 C582 1.495 . S
C586 H592 0.959 . S
C586 H593 0.961 . S
C586 H594 0.960 . S
C587 C585 1.381 . S
C587 C588 1.394 . S
C587 H595 0.930 . S
C588 C587 1.394 . S
C588 C589 1.383 . S
C588 H596 0.929 . S
C589 C588 1.383 . S
C589 C590 1.377 . S
C590 H574 0.930 . S
C590 C589 1.377 . S
C590 C591 1.379 . S
C591 H575 0.931 . S
C591 C585 1.383 . S
C591 C590 1.379 . S
H592 C586 0.959 . S
H593 C586 0.961 . S
H594 C586 0.960 . S
H595 C587 0.930 . S
H596 C588 0.929 . S
H597 C605 0.929 . S
H598 C607 0.930 . S
H599 C609 0.930 . S
H600 C612 0.929 . S
H601 C615 0.930 . S
H602 C617 0.960 . S
H603 C617 0.960 . S
H604 C617 0.960 1_455 S
C605 H597 0.929 . S
C605 C606 1.377 . S
C605 C607 1.384 . S
C606 C605 1.377 . S
C606 C612 1.390 . S
C607 H598 0.930 . S
C607 C605 1.384 . S
C607 C608 1.372 . S
C608 C607 1.372 . S
C608 C609 1.400 . S
C608 C613 1.490 . S
C609 H599 0.930 . S
C609 C608 1.400 . S
C609 C612 1.386 . S
H610 C626 0.930 . S
H611 C627 0.931 . S
C612 H600 0.929 . S
C612 C606 1.390 . S
C612 C609 1.386 . S
C613 C608 1.490 . S
C613 C615 1.395 . S
C613 C616 1.403 . S
H614 C620 0.930 . S
C615 H601 0.930 . S
C615 C613 1.395 . S
C615 C618 1.403 . S
C616 C613 1.403 . S
C616 C617 1.524 1_455 S
C616 C620 1.400 . S
C617 H602 0.960 . S
C617 H603 0.960 . S
C617 H604 0.960 1_655 S
C617 C616 1.524 1_655 S
C618 C615 1.403 . S
C618 C619 1.392 . S
C618 C622 1.495 . S
C619 C618 1.392 . S
C619 C620 1.385 . S
C619 C621 1.478 . S
C620 H614 0.930 . S
C620 C616 1.400 . S
C620 C619 1.385 . S
C621 C619 1.478 . S
C621 C623 1.381 . S
C621 C627 1.383 . S
C622 C618 1.495 . S
C622 H628 0.959 . S
C622 H629 0.961 . S
C622 H630 0.960 . S
C623 C621 1.381 . S
C623 C624 1.394 . S
C623 H631 0.930 . S
C624 C623 1.394 . S
C624 C625 1.383 . S
C624 H632 0.929 . S
C625 C624 1.383 . S
C625 C626 1.377 . S
C626 H610 0.930 . S
C626 C625 1.377 . S
C626 C627 1.379 . S
C627 H611 0.931 . S
C627 C621 1.383 . S
C627 C626 1.379 . S
H628 C622 0.959 . S
H629 C622 0.961 . S
H630 C622 0.960 . S
H631 C623 0.930 . S
H632 C624 0.929 . S
C229 C64 1.442 . S
C210 C0 1.442 . S
C246 C25 1.488 . S
C265 C134 1.485 . S
C282 C33 1.506 . S
C301 C186 1.503 . S
C318 C11 1.434 . S
C337 C80 1.431 . S
C373 C124 1.477 . S
C354 C14 1.478 . S
C390 C37 1.496 . S
C409 C170 1.499 . S
C445 C117 1.481 . S
C426 C28 1.475 . S
C462 C9 1.498 1_655 S
C481 C177 1.504 . S
C517 C71 1.537 . S
C498 C19 1.554 . S
C553 C133 1.488 . S
C534 C39 1.487 . S
C589 C187 1.499 . S
C570 C5 1.505 . S
C606 C23 1.545 . S
C625 C81 1.550 . S
