# Generated by pormake.
# Topology eea, (3,6)-cn, num edge types: 1
# Building blocks:
#     Node 0, Type 0, BuildingBlock: OLANEW_clean_sbu_2, # of connection points: 3
#     Node 1, Type 0, BuildingBlock: OLANEW_clean_sbu_2, # of connection points: 3
#     Node 2, Type 0, BuildingBlock: OLANEW_clean_sbu_2, # of connection points: 3
#     Node 3, Type 0, BuildingBlock: OLANEW_clean_sbu_2, # of connection points: 3
#     Node 4, Type 0, BuildingBlock: OLANEW_clean_sbu_2, # of connection points: 3
#     Node 5, Type 0, BuildingBlock: OLANEW_clean_sbu_2, # of connection points: 3
#     Node 6, Type 0, BuildingBlock: OLANEW_clean_sbu_2, # of connection points: 3
#     Node 7, Type 0, BuildingBlock: OLANEW_clean_sbu_2, # of connection points: 3
#     Node 8, Type 0, BuildingBlock: OLANEW_clean_sbu_2, # of connection points: 3
#     Node 9, Type 0, BuildingBlock: OLANEW_clean_sbu_2, # of connection points: 3
#     Node 10, Type 0, BuildingBlock: OLANEW_clean_sbu_2, # of connection points: 3
#     Node 11, Type 0, BuildingBlock: OLANEW_clean_sbu_2, # of connection points: 3
#     Node 12, Type 0, BuildingBlock: OLANEW_clean_sbu_2, # of connection points: 3
#     Node 13, Type 0, BuildingBlock: OLANEW_clean_sbu_2, # of connection points: 3
#     Node 14, Type 0, BuildingBlock: OLANEW_clean_sbu_2, # of connection points: 3
#     Node 15, Type 0, BuildingBlock: OLANEW_clean_sbu_2, # of connection points: 3
#     Node 16, Type 0, BuildingBlock: OLANEW_clean_sbu_2, # of connection points: 3
#     Node 17, Type 0, BuildingBlock: OLANEW_clean_sbu_2, # of connection points: 3
#     Node 18, Type 1, BuildingBlock: LEVNOQ01_clean_sbu_1, # of connection points: 6
#     Node 19, Type 1, BuildingBlock: LEVNOQ01_clean_sbu_1, # of connection points: 6
#     Node 20, Type 1, BuildingBlock: LEVNOQ01_clean_sbu_1, # of connection points: 6
#     Node 21, Type 1, BuildingBlock: LEVNOQ01_clean_sbu_1, # of connection points: 6
#     Node 22, Type 1, BuildingBlock: LEVNOQ01_clean_sbu_1, # of connection points: 6
#     Node 23, Type 1, BuildingBlock: LEVNOQ01_clean_sbu_1, # of connection points: 6
#     Node 24, Type 1, BuildingBlock: LEVNOQ01_clean_sbu_1, # of connection points: 6
#     Node 25, Type 1, BuildingBlock: LEVNOQ01_clean_sbu_1, # of connection points: 6
#     Node 26, Type 1, BuildingBlock: LEVNOQ01_clean_sbu_1, # of connection points: 6
#     Edge 27, Type (0, 1), BuildingBlock: KIFKEQ_clean_linker_1, # of connection points: 2
#     Edge 28, Type (0, 1), BuildingBlock: KIFKEQ_clean_linker_1, # of connection points: 2
#     Edge 29, Type (0, 1), BuildingBlock: KIFKEQ_clean_linker_1, # of connection points: 2
#     Edge 30, Type (0, 1), BuildingBlock: KIFKEQ_clean_linker_1, # of connection points: 2
#     Edge 31, Type (0, 1), BuildingBlock: KIFKEQ_clean_linker_1, # of connection points: 2
#     Edge 32, Type (0, 1), BuildingBlock: KIFKEQ_clean_linker_1, # of connection points: 2
#     Edge 33, Type (0, 1), BuildingBlock: KIFKEQ_clean_linker_1, # of connection points: 2
#     Edge 34, Type (0, 1), BuildingBlock: KIFKEQ_clean_linker_1, # of connection points: 2
#     Edge 35, Type (0, 1), BuildingBlock: KIFKEQ_clean_linker_1, # of connection points: 2
#     Edge 36, Type (0, 1), BuildingBlock: KIFKEQ_clean_linker_1, # of connection points: 2
#     Edge 37, Type (0, 1), BuildingBlock: KIFKEQ_clean_linker_1, # of connection points: 2
#     Edge 38, Type (0, 1), BuildingBlock: KIFKEQ_clean_linker_1, # of connection points: 2
#     Edge 39, Type (0, 1), BuildingBlock: KIFKEQ_clean_linker_1, # of connection points: 2
#     Edge 40, Type (0, 1), BuildingBlock: KIFKEQ_clean_linker_1, # of connection points: 2
#     Edge 41, Type (0, 1), BuildingBlock: KIFKEQ_clean_linker_1, # of connection points: 2
#     Edge 42, Type (0, 1), BuildingBlock: KIFKEQ_clean_linker_1, # of connection points: 2
#     Edge 43, Type (0, 1), BuildingBlock: KIFKEQ_clean_linker_1, # of connection points: 2
#     Edge 44, Type (0, 1), BuildingBlock: KIFKEQ_clean_linker_1, # of connection points: 2
#     Edge 45, Type (0, 1), BuildingBlock: KIFKEQ_clean_linker_1, # of connection points: 2
#     Edge 46, Type (0, 1), BuildingBlock: KIFKEQ_clean_linker_1, # of connection points: 2
#     Edge 47, Type (0, 1), BuildingBlock: KIFKEQ_clean_linker_1, # of connection points: 2
#     Edge 48, Type (0, 1), BuildingBlock: KIFKEQ_clean_linker_1, # of connection points: 2
#     Edge 49, Type (0, 1), BuildingBlock: KIFKEQ_clean_linker_1, # of connection points: 2
#     Edge 50, Type (0, 1), BuildingBlock: KIFKEQ_clean_linker_1, # of connection points: 2
#     Edge 51, Type (0, 1), BuildingBlock: KIFKEQ_clean_linker_1, # of connection points: 2
#     Edge 52, Type (0, 1), BuildingBlock: KIFKEQ_clean_linker_1, # of connection points: 2
#     Edge 53, Type (0, 1), BuildingBlock: KIFKEQ_clean_linker_1, # of connection points: 2
#     Edge 54, Type (0, 1), BuildingBlock: KIFKEQ_clean_linker_1, # of connection points: 2
#     Edge 55, Type (0, 1), BuildingBlock: KIFKEQ_clean_linker_1, # of connection points: 2
#     Edge 56, Type (0, 1), BuildingBlock: KIFKEQ_clean_linker_1, # of connection points: 2
#     Edge 57, Type (0, 1), BuildingBlock: KIFKEQ_clean_linker_1, # of connection points: 2
#     Edge 58, Type (0, 1), BuildingBlock: KIFKEQ_clean_linker_1, # of connection points: 2
#     Edge 59, Type (0, 1), BuildingBlock: KIFKEQ_clean_linker_1, # of connection points: 2
#     Edge 60, Type (0, 1), BuildingBlock: KIFKEQ_clean_linker_1, # of connection points: 2
#     Edge 61, Type (0, 1), BuildingBlock: KIFKEQ_clean_linker_1, # of connection points: 2
#     Edge 62, Type (0, 1), BuildingBlock: KIFKEQ_clean_linker_1, # of connection points: 2
#     Edge 63, Type (0, 1), BuildingBlock: KIFKEQ_clean_linker_1, # of connection points: 2
#     Edge 64, Type (0, 1), BuildingBlock: KIFKEQ_clean_linker_1, # of connection points: 2
#     Edge 65, Type (0, 1), BuildingBlock: KIFKEQ_clean_linker_1, # of connection points: 2
#     Edge 66, Type (0, 1), BuildingBlock: KIFKEQ_clean_linker_1, # of connection points: 2
#     Edge 67, Type (0, 1), BuildingBlock: KIFKEQ_clean_linker_1, # of connection points: 2
#     Edge 68, Type (0, 1), BuildingBlock: KIFKEQ_clean_linker_1, # of connection points: 2
#     Edge 69, Type (0, 1), BuildingBlock: KIFKEQ_clean_linker_1, # of connection points: 2
#     Edge 70, Type (0, 1), BuildingBlock: KIFKEQ_clean_linker_1, # of connection points: 2
#     Edge 71, Type (0, 1), BuildingBlock: KIFKEQ_clean_linker_1, # of connection points: 2
#     Edge 72, Type (0, 1), BuildingBlock: KIFKEQ_clean_linker_1, # of connection points: 2
#     Edge 73, Type (0, 1), BuildingBlock: KIFKEQ_clean_linker_1, # of connection points: 2
#     Edge 74, Type (0, 1), BuildingBlock: KIFKEQ_clean_linker_1, # of connection points: 2
#     Edge 75, Type (0, 1), BuildingBlock: KIFKEQ_clean_linker_1, # of connection points: 2
#     Edge 76, Type (0, 1), BuildingBlock: KIFKEQ_clean_linker_1, # of connection points: 2
#     Edge 77, Type (0, 1), BuildingBlock: KIFKEQ_clean_linker_1, # of connection points: 2
#     Edge 78, Type (0, 1), BuildingBlock: KIFKEQ_clean_linker_1, # of connection points: 2
#     Edge 79, Type (0, 1), BuildingBlock: KIFKEQ_clean_linker_1, # of connection points: 2
#     Edge 80, Type (0, 1), BuildingBlock: KIFKEQ_clean_linker_1, # of connection points: 2
# Relax obj value: 0.061
# Max RMSD: 0.116
# Mean RMSD: 0.080
data_MOF--net-eea--node1-OLANEW_clean_sbu_2--node2-LEVNOQ01_clean_sbu_1--edge1-KIFKEQ_clean_linker_1
_symmetry_space_group_name_H-M    P1
_symmetry_Int_Tables_number       1
_symmetry_cell_setting            triclinic
loop_
_symmetry_equiv_pos_as_xyz
'x, y, z'
_cell_length_a     64.221439
_cell_length_b     63.119906
_cell_length_c     45.817672
_cell_angle_alpha  95.031803
_cell_angle_beta   90.236734
_cell_angle_gamma 120.38588
loop_
_atom_site_label
_atom_site_type_symbol
_atom_site_fract_x
_atom_site_fract_y
_atom_site_fract_z
_atom_type_partial_charge
O0 O 0.23042 0.11021 0.40927 0.0
Cd1 Cd 0.21602 0.11181 0.3607 0.0
O2 O 0.26683 0.11956 0.39657 0.0
Cd3 Cd 0.25291 0.10852 0.35108 0.0
O4 O 0.23065 0.07241 0.32668 0.0
C5 C 0.2122 0.05696 0.33918 0.0
O6 O 0.20669 0.06434 0.36412 0.0
C7 C 0.2519 0.11579 0.41638 0.0
C8 C 0.20027 0.14571 0.36556 0.0
O9 O 0.18532 0.12261 0.36643 0.0
O10 O 0.2225 0.15262 0.36181 0.0
O11 O 0.87706 0.12891 0.37261 0.0
Cd12 Cd 0.8908 0.12056 0.32555 0.0
O13 O 0.89059 0.10687 0.39039 0.0
Cd14 Cd 0.89606 0.08542 0.42127 0.0
O15 O 0.87805 0.04536 0.41611 0.0
C16 C 0.8715 0.03728 0.38931 0.0
O17 O 0.87783 0.05334 0.3699 0.0
C18 C 0.87956 0.1188 0.3941 0.0
C19 C 0.9385 0.15573 0.31727 0.0
O20 O 0.92093 0.15785 0.30766 0.0
O21 O 0.93348 0.1369 0.33079 0.0
O22 O 0.88503 0.75299 0.4087 0.0
Cd23 Cd 0.89689 0.77098 0.36186 0.0
O24 O 0.85181 0.72051 0.38842 0.0
Cd25 Cd 0.85298 0.7369 0.34808 0.0
O26 O 0.83141 0.75324 0.33733 0.0
C27 C 0.82775 0.76375 0.36003 0.0
O28 O 0.83827 0.76484 0.38525 0.0
C29 C 0.86623 0.73206 0.41078 0.0
C30 C 0.94324 0.78179 0.34676 0.0
O31 O 0.93986 0.79842 0.36015 0.0
O32 O 0.92481 0.7601 0.34077 0.0
O33 O 0.14293 0.24737 0.62251 0.0
Cd34 Cd 0.12936 0.22929 0.66888 0.0
O35 O 0.139 0.2792 0.63735 0.0
Cd36 Cd 0.11532 0.26132 0.67259 0.0
O37 O 0.07765 0.24392 0.68496 0.0
C38 C 0.06237 0.22586 0.66731 0.0
O39 O 0.07038 0.21815 0.64488 0.0
C40 C 0.14607 0.26846 0.61855 0.0
C41 C 0.1618 0.21684 0.69147 0.0
O42 O 0.14263 0.20063 0.67625 0.0
O43 O 0.16544 0.2388 0.69634 0.0
O44 O 0.72948 0.85388 0.64187 0.0
Cd45 Cd 0.74165 0.84525 0.6874 0.0
O46 O 0.76792 0.87791 0.63612 0.0
Cd47 Cd 0.80138 0.90684 0.62018 0.0
O48 O 0.82628 0.94634 0.62233 0.0
C49 C 0.8364 0.95738 0.64731 0.0
O50 O 0.83348 0.94409 0.66912 0.0
C51 C 0.74607 0.86856 0.6265 0.0
C52 C 0.77279 0.82761 0.67505 0.0
O53 O 0.74979 0.81329 0.67271 0.0
O54 O 0.78127 0.85049 0.68375 0.0
O55 O 0.11933 0.85997 0.62275 0.0
Cd56 Cd 0.11185 0.87064 0.6729 0.0
O57 O 0.15813 0.87473 0.63208 0.0
Cd58 Cd 0.15637 0.88979 0.67585 0.0
O59 O 0.16268 0.92507 0.69616 0.0
C60 C 0.15571 0.93637 0.68075 0.0
O61 O 0.14336 0.92506 0.65574 0.0
C62 C 0.13973 0.86403 0.61418 0.0
C63 C 0.06344 0.84127 0.68477 0.0
O64 O 0.07087 0.86143 0.67305 0.0
O65 O 0.079 0.83514 0.69119 0.0
O66 O 0.88285 0.44043 0.76788 0.0
Cd67 Cd 0.85336 0.4281 0.72673 0.0
O68 O 0.91542 0.45793 0.74246 0.0
Cd69 Cd 0.89357 0.44217 0.70157 0.0
O70 O 0.87662 0.40323 0.68599 0.0
C71 C 0.87703 0.39067 0.70599 0.0
O72 O 0.88677 0.40208 0.73204 0.0
C73 C 0.90576 0.45237 0.76692 0.0
C74 C 0.85003 0.46843 0.71331 0.0
O75 O 0.83722 0.45498 0.73296 0.0
O76 O 0.86406 0.46251 0.69973 0.0
O77 O 0.55176 0.46796 0.70483 0.0
Cd78 Cd 0.56299 0.45523 0.65833 0.0
O79 O 0.56048 0.44221 0.72252 0.0
Cd80 Cd 0.56182 0.41884 0.75394 0.0
O81 O 0.54058 0.3788 0.74886 0.0
C82 C 0.53104 0.37123 0.72292 0.0
O83 O 0.53613 0.3876 0.70418 0.0
C84 C 0.55237 0.45684 0.72632 0.0
C85 C 0.611 0.48667 0.64682 0.0
O86 O 0.59406 0.48933 0.63619 0.0
O87 O 0.60522 0.46909 0.66292 0.0
O88 O 0.55283 0.07165 0.73219 0.0
Cd89 Cd 0.55977 0.08675 0.68361 0.0
O90 O 0.51436 0.06049 0.72969 0.0
Cd91 Cd 0.51509 0.07472 0.6878 0.0
O92 O 0.49978 0.09182 0.66267 0.0
C93 C 0.50288 0.11236 0.67413 0.0
O94 O 0.51686 0.1228 0.69825 0.0
C95 C 0.53236 0.06208 0.7435 0.0
C96 C 0.60629 0.10079 0.66631 0.0
O97 O 0.60172 0.11671 0.67924 0.0
O98 O 0.5889 0.07837 0.66155 0.0
O99 O 0.81649 0.58971 0.95892 0.0
Cd100 Cd 0.80462 0.56996 0.00439 0.0
O101 O 0.80186 0.61403 0.97018 0.0
Cd102 Cd 0.78131 0.59397 0.00638 0.0
O103 O 0.74593 0.57467 0.02532 0.0
C104 C 0.72913 0.5554 0.01067 0.0
O105 O 0.7343 0.54694 0.98622 0.0
C106 C 0.81358 0.6074 0.95314 0.0
C107 C 0.83704 0.55476 0.01794 0.0
O108 O 0.81775 0.54066 0.00167 0.0
O109 O 0.84066 0.57587 0.02868 0.0
O110 O 0.40837 0.19571 0.98618 0.0
Cd111 Cd 0.42911 0.20423 0.03406 0.0
O112 O 0.4447 0.21198 0.96998 0.0
Cd113 Cd 0.4729 0.23312 0.94046 0.0
O114 O 0.48871 0.27285 0.9418 0.0
C115 C 0.47325 0.27836 0.95102 0.0
O116 O 0.45146 0.26033 0.95545 0.0
C117 C 0.4221 0.20284 0.9649 0.0
C118 C 0.45315 0.17814 0.03586 0.0
O119 O 0.4321 0.1699 0.04587 0.0
O120 O 0.46302 0.19895 0.02514 0.0
O121 O 0.77352 0.20618 0.94315 0.0
Cd122 Cd 0.76624 0.21946 0.99219 0.0
O123 O 0.80051 0.19703 0.95741 0.0
Cd124 Cd 0.80315 0.21559 0.00057 0.0
O125 O 0.82266 0.25483 0.01534 0.0
C126 C 0.82737 0.26877 0.99492 0.0
O127 O 0.8193 0.2586 0.96795 0.0
C128 C 0.78756 0.19787 0.93702 0.0
C129 C 0.72177 0.1849 0.01217 0.0
O130 O 0.7233 0.20081 0.99542 0.0
O131 O 0.74126 0.1853 0.01951 0.0
O132 O 0.55103 0.77421 0.08016 0.0
Cd133 Cd 0.52871 0.76364 0.03263 0.0
O134 O 0.58586 0.7818 0.06312 0.0
Cd135 Cd 0.56752 0.76534 0.02019 0.0
O136 O 0.54198 0.72688 0.00494 0.0
C137 C 0.53009 0.71395 0.02518 0.0
O138 O 0.53324 0.7249 0.0519 0.0
C139 C 0.57324 0.7811 0.08471 0.0
C140 C 0.51964 0.80062 0.01978 0.0
O141 O 0.50463 0.78284 0.03386 0.0
O142 O 0.53878 0.80074 0.01168 0.0
O143 O 0.21359 0.80634 0.03835 0.0
Cd144 Cd 0.22434 0.79661 0.98976 0.0
O145 O 0.22972 0.78547 0.05292 0.0
Cd146 Cd 0.23326 0.76334 0.0844 0.0
O147 O 0.21341 0.72478 0.09276 0.0
C148 C 0.19281 0.71663 0.10344 0.0
O149 O 0.18589 0.73237 0.11228 0.0
C150 C 0.21889 0.79735 0.05891 0.0
C151 C 0.27322 0.8267 0.98026 0.0
O152 O 0.25735 0.83137 0.97063 0.0
O153 O 0.26601 0.8078 0.99447 0.0
O154 O 0.22187 0.42911 0.08111 0.0
Cd155 Cd 0.23526 0.44672 0.03414 0.0
O156 O 0.19711 0.39189 0.05921 0.0
Cd157 Cd 0.19673 0.40737 0.01867 0.0
O158 O 0.17842 0.42707 0.00776 0.0
C159 C 0.15701 0.4154 0.99617 0.0
O160 O 0.14704 0.39168 0.98775 0.0
C161 C 0.2074 0.40616 0.08259 0.0
C162 C 0.28088 0.4549 0.01896 0.0
O163 O 0.27851 0.47232 0.03197 0.0
O164 O 0.26181 0.43359 0.01351 0.0
O165 O 0.47544 0.91577 0.28926 0.0
Cd166 Cd 0.46425 0.89872 0.33651 0.0
O167 O 0.46803 0.94537 0.3035 0.0
Cd168 Cd 0.44694 0.92691 0.34015 0.0
O169 O 0.41102 0.90716 0.35754 0.0
C170 C 0.39406 0.8916 0.33928 0.0
O171 O 0.39949 0.88761 0.31252 0.0
C172 C 0.47616 0.93572 0.28472 0.0
C173 C 0.50011 0.89103 0.35866 0.0
O174 O 0.4809 0.87316 0.34511 0.0
O175 O 0.50216 0.91238 0.36217 0.0
O176 O 0.07137 0.52801 0.31209 0.0
Cd177 Cd 0.08176 0.51664 0.35673 0.0
O178 O 0.10879 0.54192 0.30009 0.0
Cd179 Cd 0.13945 0.56601 0.27528 0.0
O180 O 0.1558 0.60598 0.28014 0.0
C181 C 0.14709 0.61216 0.30186 0.0
O182 O 0.13146 0.59477 0.31712 0.0
C183 C 0.08776 0.53819 0.29414 0.0
C184 C 0.11188 0.49778 0.34383 0.0
O185 O 0.08882 0.48407 0.34075 0.0
O186 O 0.12085 0.52057 0.35343 0.0
O187 O 0.45237 0.53132 0.28643 0.0
Cd188 Cd 0.44412 0.5371 0.33775 0.0
O189 O 0.48785 0.53566 0.29716 0.0
Cd190 Cd 0.48767 0.55032 0.34164 0.0
O191 O 0.49962 0.58852 0.35651 0.0
C192 C 0.49971 0.60117 0.33633 0.0
O193 O 0.49137 0.59002 0.30976 0.0
C194 C 0.47111 0.53092 0.27831 0.0
C195 C 0.39746 0.50061 0.34833 0.0
O196 O 0.40196 0.52226 0.3439 0.0
O197 O 0.41501 0.49643 0.34824 0.0
O198 O 0.5412 0.01634 0.95993 0.0
Mg199 Mg 0.53854 -0.0026 0.99684 0.0
O200 O 0.504 0.00771 0.96574 0.0
Mg201 Mg 0.50273 -7e-05 0.01486 0.0
O202 O 0.50827 0.9651 0.00525 0.0
O203 O 0.53988 0.96751 0.98141 0.0
O204 O 0.50186 0.99188 0.06425 0.0
O205 O 0.46203 0.96665 0.00177 0.0
Mg206 Mg 0.46797 0.00477 0.03726 0.0
O207 O 0.4977 0.03503 0.02399 0.0
O208 O 0.46816 0.99016 0.07647 0.0
O209 O 0.44 0.98401 0.00608 0.0
O210 O 0.4681 0.03592 0.04942 0.0
C211 C 0.56296 0.03567 0.03522 0.0
C212 C 0.52246 0.01581 0.95039 0.0
C213 C 0.51948 0.95458 0.99285 0.0
C214 C 0.48604 0.98799 0.08302 0.0
C215 C 0.44193 0.96573 0.99702 0.0
C216 C 0.48779 0.04705 0.03598 0.0
O217 O 0.56482 0.01674 0.03101 0.0
O218 O 0.54301 0.03395 0.02731 0.0
O219 O 0.02402 0.50911 0.95235 0.0
Mg220 Mg 0.02194 0.53342 0.98438 0.0
O221 O 0.99381 0.48459 0.97715 0.0
Mg222 Mg 0.00804 0.50003 0.02681 0.0
O223 O 0.04142 0.53949 0.02221 0.0
O224 O 0.0525 0.56688 0.98889 0.0
O225 O 0.023 0.51722 0.07608 0.0
O226 O 0.03445 0.48538 0.02027 0.0
Mg227 Mg -0.0018 0.46959 0.06725 0.0
O228 O 0.97388 0.46011 0.03239 0.0
O229 O 0.99646 0.49095 0.10333 0.0
O230 O 0.02987 0.46734 0.06056 0.0
O231 O 0.96948 0.43584 0.06798 0.0
C232 C 0.9763 0.52534 0.01281 0.0
C233 C 0.00422 0.48927 0.95294 0.0
C234 C 0.05676 0.56074 0.01339 0.0
C235 C 0.01414 0.51212 0.10109 0.0
C236 C 0.04061 0.47428 0.03713 0.0
C237 C 0.96129 0.43965 0.04452 0.0
O238 O 0.98867 0.5328 0.99047 0.0
O239 O 0.98164 0.51469 0.03141 0.0
O240 O 0.465 0.47963 0.05285 0.0
Mg241 Mg 0.46527 0.45955 0.01349 0.0
O242 O 0.5025 0.50825 0.04696 0.0
Mg243 Mg 0.50291 0.49879 0.99682 0.0
O244 O 0.49549 0.45848 0.00157 0.0
O245 O 0.46433 0.42881 0.02348 0.0
O246 O 0.50396 0.48911 0.94626 0.0
O247 O 0.54326 0.50859 0.00605 0.0
Mg248 Mg 0.54064 0.54562 0.96755 0.0
O249 O 0.51192 0.53849 0.99198 0.0
O250 O 0.52849 0.52389 0.92695 0.0
O251 O 0.56816 0.5457 0.99243 0.0
O252 O 0.53536 0.57482 0.97462 0.0
C253 C 0.44217 0.47292 0.9797 0.0
C254 C 0.48435 0.49882 0.06276 0.0
C255 C 0.48457 0.43675 0.01105 0.0
C256 C 0.51384 0.5008 0.92415 0.0
C257 C 0.5646 0.52703 0.00473 0.0
C258 C 0.51707 0.56087 0.98919 0.0
O259 O 0.43938 0.45172 0.98002 0.0
O260 O 0.46273 0.49166 0.98841 0.0
O261 O 0.17299 0.31595 0.26964 0.0
Mg262 Mg 0.19054 0.31418 0.307 0.0
O263 O 0.1667 0.34117 0.29928 0.0
Mg264 Mg 0.16646 0.33169 0.34825 0.0
O265 O 0.16982 0.29613 0.34016 0.0
O266 O 0.18688 0.2808 0.30856 0.0
O267 O 0.16672 0.32392 0.39826 0.0
O268 O 0.12474 0.30291 0.33874 0.0
Mg269 Mg 0.13535 0.34456 0.37999 0.0
O270 O 0.16395 0.36776 0.35704 0.0
O271 O 0.14212 0.33455 0.41919 0.0
O272 O 0.1037 0.3197 0.35521 0.0
O273 O 0.14171 0.37914 0.38492 0.0
C274 C 0.22648 0.36062 0.34327 0.0
C275 C 0.16734 0.33238 0.27337 0.0
C276 C 0.17414 0.27865 0.331 0.0
C277 C 0.15627 0.3263 0.42098 0.0
C278 C 0.10454 0.30211 0.34103 0.0
C279 C 0.15864 0.38437 0.36691 0.0
O280 O 0.22444 0.34461 0.32292 0.0
O281 O 0.20795 0.35916 0.35522 0.0
O282 O 0.65572 0.85653 0.29475 0.0
Mg283 Mg 0.67745 0.87959 0.33165 0.0
O284 O 0.65246 0.82205 0.30797 0.0
Mg285 Mg 0.66794 0.83432 0.35676 0.0
O286 O 0.70185 0.87072 0.3462 0.0
O287 O 0.71202 0.90503 0.32461 0.0
O288 O 0.68809 0.85196 0.40396 0.0
O289 O 0.69169 0.81692 0.34899 0.0
Mg290 Mg 0.65628 0.81022 0.39846 0.0
O291 O 0.63229 0.79506 0.36339 0.0
O292 O 0.65625 0.83755 0.42907 0.0
O293 O 0.6872 0.80572 0.39376 0.0
O294 O 0.62724 0.77826 0.40609 0.0
C295 C 0.64259 0.8701 0.37232 0.0
C296 C 0.64852 0.83376 0.28938 0.0
C297 C 0.71823 0.89175 0.33799 0.0
C298 C 0.6783 0.85302 0.42763 0.0
C299 C 0.69745 0.8082 0.36959 0.0
C300 C 0.61949 0.7775 0.37982 0.0
O301 O 0.66047 0.88948 0.36474 0.0
O302 O 0.64187 0.84952 0.36757 0.0
O303 O 0.12975 0.81109 0.3871 0.0
Mg304 Mg 0.12956 0.79121 0.34721 0.0
O305 O 0.16724 0.84009 0.38158 0.0
Mg306 Mg 0.16716 0.83069 0.33123 0.0
O307 O 0.15992 0.79046 0.33579 0.0
O308 O 0.12825 0.75993 0.35603 0.0
O309 O 0.16627 0.82041 0.28103 0.0
O310 O 0.20708 0.83676 0.34083 0.0
Mg311 Mg 0.20299 0.86659 0.31572 0.0
O312 O 0.17431 0.87122 0.32542 0.0
O313 O 0.20506 0.84542 0.2782 0.0
O314 O 0.22831 0.87674 0.3506 0.0
O315 O 0.20571 0.8964 0.2998 0.0
C316 C 0.10714 0.8058 0.31366 0.0
C317 C 0.14908 0.83023 0.39736 0.0
C318 C 0.14886 0.76845 0.34442 0.0
C319 C 0.18524 0.8278 0.26682 0.0
C320 C 0.22657 0.85604 0.35151 0.0
C321 C 0.18585 0.89107 0.31197 0.0
O322 O 0.10454 0.78462 0.31313 0.0
O323 O 0.12736 0.82443 0.32357 0.0
O324 O 0.83492 0.64494 0.60604 0.0
Mg325 Mg 0.8581 0.65601 0.64346 0.0
O326 O 0.83693 0.67697 0.6309 0.0
Mg327 Mg 0.83609 0.66696 0.6807 0.0
O328 O 0.84532 0.6344 0.67715 0.0
O329 O 0.8715 0.63358 0.64511 0.0
O330 O 0.83427 0.65926 0.73075 0.0
O331 O 0.79591 0.63446 0.66758 0.0
Mg332 Mg 0.79962 0.67458 0.70712 0.0
O333 O 0.82899 0.70014 0.68747 0.0
O334 O 0.80486 0.66449 0.74723 0.0
O335 O 0.77144 0.64849 0.67848 0.0
O336 O 0.80241 0.70776 0.71116 0.0
C337 C 0.8919 0.7056 0.67305 0.0
C338 C 0.83326 0.66397 0.60637 0.0
C339 C 0.85799 0.62484 0.66677 0.0
C340 C 0.82098 0.6591 0.75154 0.0
C341 C 0.77486 0.63188 0.66628 0.0
C342 C 0.82104 0.71496 0.69555 0.0
O343 O 0.88792 0.69281 0.64865 0.0
O344 O 0.87593 0.698 0.69198 0.0
O345 O 0.31436 0.18311 0.63473 0.0
Mg346 Mg 0.33435 0.20457 0.67357 0.0
O347 O 0.31614 0.15037 0.6446 0.0
Mg348 Mg 0.33031 0.16038 0.6936 0.0
O349 O 0.36194 0.19959 0.686 0.0
O350 O 0.36716 0.2338 0.66772 0.0
O351 O 0.34501 0.17156 0.74296 0.0
O352 O 0.35986 0.15034 0.67944 0.0
Mg353 Mg 0.32576 0.11751 0.7197 0.0
O354 O 0.29859 0.12052 0.70072 0.0
O355 O 0.339 0.1376 0.7608 0.0
O356 O 0.34908 0.11329 0.69144 0.0
O357 O 0.29344 0.08695 0.72083 0.0
C358 C 0.29899 0.18945 0.7139 0.0
C359 C 0.31033 0.16151 0.62723 0.0
C360 C 0.37604 0.2219 0.67919 0.0
C361 C 0.34617 0.16039 0.76425 0.0
C362 C 0.36308 0.13194 0.67864 0.0
C363 C 0.28462 0.09809 0.70747 0.0
O364 O 0.31607 0.21015 0.70825 0.0
O365 O 0.30004 0.17001 0.70667 0.0
O366 O 0.79197 0.13848 0.71293 0.0
Mg367 Mg 0.7955 0.1203 0.67367 0.0
O368 O 0.8295 0.16914 0.71262 0.0
Mg369 Mg 0.83234 0.16075 0.66275 0.0
O370 O 0.82747 0.12134 0.66861 0.0
O371 O 0.79374 0.08901 0.68299 0.0
O372 O 0.83298 0.14703 0.61258 0.0
O373 O 0.87294 0.17322 0.67105 0.0
Mg374 Mg 0.85243 0.19215 0.6248 0.0
O375 O 0.84015 0.20183 0.66138 0.0
O376 O 0.82753 0.17239 0.58908 0.0
O377 O 0.88448 0.1903 0.62982 0.0
O378 O 0.86027 0.22723 0.6269 0.0
C379 C 0.77364 0.13412 0.63948 0.0
C380 C 0.80988 0.15781 0.72572 0.0
C381 C 0.81595 0.0989 0.67608 0.0
C382 C 0.82754 0.15247 0.58866 0.0
C383 C 0.88913 0.18305 0.6526 0.0
C384 C 0.84899 0.22305 0.65082 0.0
O385 O 0.77285 0.1137 0.63642 0.0
O386 O 0.79229 0.15261 0.65278 0.0
H387 H 0.29312 0.85891 0.93892 0.0
H388 H 0.31189 0.8317 0.01185 0.0
H389 H 0.33567 0.88899 0.93472 0.0
H390 H 0.35438 0.86265 0.00878 0.0
H391 H 0.43151 0.91757 0.99538 0.0
H392 H 0.3916 0.8804 0.98468 0.0
H393 H 0.36256 0.92597 0.96251 0.0
H394 H 0.40206 0.96238 0.97205 0.0
C395 C 0.30639 0.85934 0.95401 0.0
C396 C 0.29917 0.84323 0.97599 0.0
C397 C 0.3308 0.87663 0.95169 0.0
C398 C 0.34854 0.87861 0.97172 0.0
C399 C 0.34135 0.86157 0.99276 0.0
C400 C 0.31694 0.84395 0.99472 0.0
C401 C 0.41668 0.91942 0.98734 0.0
C402 C 0.41982 0.94288 0.98487 0.0
C403 C 0.39376 0.8982 0.98153 0.0
C404 C 0.3737 0.90012 0.97304 0.0
C405 C 0.37746 0.92354 0.96864 0.0
C406 C 0.40019 0.94457 0.97438 0.0
H407 H 0.16777 0.45947 0.02589 0.0
H408 H 0.11239 0.39792 0.96908 0.0
H409 H 0.14084 0.47593 0.03362 0.0
H410 H 0.08563 0.41478 0.97657 0.0
H411 H 0.05413 0.46789 0.98208 0.0
H412 H 0.08381 0.45564 0.96871 0.0
H413 H 0.09956 0.45577 0.0604 0.0
H414 H 0.06961 0.46739 0.07378 0.0
C415 C 0.15006 0.44971 0.01456 0.0
C416 C 0.14216 0.42728 0.99702 0.0
C417 C 0.13464 0.4591 0.01912 0.0
C418 C 0.11118 0.44652 0.00583 0.0
C419 C 0.1037 0.42486 0.98696 0.0
C420 C 0.11899 0.41521 0.98276 0.0
C421 C 0.0641 0.46549 0.99935 0.0
C422 C 0.0596 0.46857 0.02897 0.0
C423 C 0.08094 0.45839 0.99168 0.0
C424 C 0.09396 0.45489 0.01355 0.0
C425 C 0.08988 0.45858 0.04316 0.0
C426 C 0.07269 0.4651 0.05078 0.0
H427 H 0.52362 0.68484 0.9742 0.0
H428 H 0.50514 0.68147 0.06495 0.0
H429 H 0.50787 0.64061 0.96883 0.0
H430 H 0.48911 0.63703 0.05945 0.0
H431 H 0.48296 0.56414 0.95915 0.0
H432 H 0.47473 0.59775 0.96946 0.0
H433 H 0.51294 0.61638 0.05419 0.0
H434 H 0.52069 0.58256 0.04382 0.0
C435 C 0.51557 0.67456 0.99277 0.0
C436 C 0.51609 0.68673 0.02014 0.0
C437 C 0.50631 0.6491 0.98965 0.0
C438 C 0.49736 0.63532 0.01383 0.0
C439 C 0.49608 0.64721 0.04054 0.0
C440 C 0.5053 0.67267 0.04364 0.0
C441 C 0.4882 0.5745 0.98068 0.0
C442 C 0.50237 0.57092 0.00079 0.0
C443 C 0.4838 0.59393 0.98643 0.0
C444 C 0.49373 0.61009 0.01228 0.0
C445 C 0.50498 0.60425 0.03408 0.0
C446 C 0.50934 0.58478 0.02828 0.0
H447 H 0.84136 0.3033 0.95582 0.0
H448 H 0.84994 0.2954 0.04713 0.0
H449 H 0.87023 0.34755 0.96476 0.0
H450 H 0.87908 0.3393 0.05588 0.0
H451 H 0.92013 0.41926 0.07277 0.0
H452 H 0.88386 0.3795 0.05867 0.0
H453 H 0.91357 0.37447 0.97558 0.0
H454 H 0.94952 0.41501 0.98949 0.0
C455 C 0.84927 0.31102 0.97785 0.0
C456 C 0.84339 0.29583 0.00078 0.0
C457 C 0.86589 0.33636 0.98291 0.0
C458 C 0.87693 0.34703 0.01102 0.0
C459 C 0.87059 0.33185 0.03405 0.0
C460 C 0.85398 0.30658 0.02901 0.0
C461 C 0.91842 0.41001 0.05105 0.0
C462 C 0.93745 0.42001 0.03216 0.0
C463 C 0.89783 0.38713 0.04311 0.0
C464 C 0.89609 0.37349 0.01635 0.0
C465 C 0.9143 0.3845 0.99635 0.0
C466 C 0.93486 0.40772 0.0042 0.0
H467 H 0.71166 0.56971 0.05819 0.0
H468 H 0.68867 0.51808 0.98001 0.0
H469 H 0.66973 0.55812 0.06539 0.0
H470 H 0.64694 0.50696 0.98685 0.0
H471 H 0.57152 0.48754 0.0058 0.0
H472 H 0.61026 0.48962 0.01497 0.0
H473 H 0.64467 0.5685 0.03733 0.0
H474 H 0.60636 0.56633 0.02838 0.0
C475 C 0.69765 0.55558 0.04283 0.0
C476 C 0.70359 0.54518 0.0182 0.0
C477 C 0.67361 0.54898 0.04693 0.0
C478 C 0.655 0.53188 0.02646 0.0
C479 C 0.66076 0.52006 0.00316 0.0
C480 C 0.68478 0.52661 0.9991 0.0
C481 C 0.58728 0.50514 0.01351 0.0
C482 C 0.58606 0.52682 0.01607 0.0
C483 C 0.60946 0.50638 0.01855 0.0
C484 C 0.63062 0.52926 0.02666 0.0
C485 C 0.62879 0.55054 0.0314 0.0
C486 C 0.60683 0.54934 0.02603 0.0
H487 H 0.44408 0.14205 0.07052 0.0
H488 H 0.48971 0.18163 0.0022 0.0
H489 H 0.4625 0.11655 0.06998 0.0
H490 H 0.50805 0.15559 0.0014 0.0
H491 H 0.49068 0.06948 0.98701 0.0
H492 H 0.48934 0.10762 0.98713 0.0
H493 H 0.50381 0.12102 0.08107 0.0
H494 H 0.50476 0.08286 0.08086 0.0
C495 C 0.45821 0.14542 0.05555 0.0
C496 C 0.46545 0.16378 0.0364 0.0
C497 C 0.46893 0.13098 0.05542 0.0
C498 C 0.48692 0.13434 0.03588 0.0
C499 C 0.49435 0.15281 0.0168 0.0
C500 C 0.48388 0.16765 0.0173 0.0
C501 C 0.49497 0.08138 0.00735 0.0
C502 C 0.49784 0.07344 0.03393 0.0
C503 C 0.49406 0.1031 0.00748 0.0
C504 C 0.49597 0.1169 0.03422 0.0
C505 C 0.50196 0.1105 0.06024 0.0
C506 C 0.50276 0.08884 0.0601 0.0
H507 H 0.67685 0.17164 0.98986 0.0
H508 H 0.71317 0.1558 0.05666 0.0
H509 H 0.6381 0.13815 0.00263 0.0
H510 H 0.67428 0.12301 0.07055 0.0
H511 H 0.60778 0.04466 0.05139 0.0
H512 H 0.64569 0.08309 0.05107 0.0
H513 H 0.60691 0.12089 0.03547 0.0
H514 H 0.56869 0.08183 0.03449 0.0
C515 C 0.6765 0.16129 0.00769 0.0
C516 C 0.6981 0.16613 0.02197 0.0
C517 C 0.6542 0.14218 0.01525 0.0
C518 C 0.65292 0.12765 0.03757 0.0
C519 C 0.67453 0.1334 0.05283 0.0
C520 C 0.69685 0.15227 0.04495 0.0
C521 C 0.60724 0.06122 0.04846 0.0
C522 C 0.58518 0.06004 0.04243 0.0
C523 C 0.62911 0.08344 0.04846 0.0
C524 C 0.62953 0.10518 0.04275 0.0
C525 C 0.60734 0.10441 0.0392 0.0
C526 C 0.58538 0.08205 0.03899 0.0
H527 H 0.87806 0.57848 0.05451 0.0
H528 H 0.83776 0.51504 0.99064 0.0
H529 H 0.91083 0.56935 0.05633 0.0
H530 H 0.87058 0.50626 0.99233 0.0
H531 H 0.9497 0.52924 0.96979 0.0
H532 H 0.9145 0.534 0.9747 0.0
H533 H 0.91952 0.53318 0.06851 0.0
H534 H 0.95478 0.52786 0.06361 0.0
C535 C 0.87602 0.56241 0.04123 0.0
C536 C 0.85542 0.54761 0.02222 0.0
C537 C 0.89472 0.55716 0.04239 0.0
C538 C 0.89322 0.53724 0.0243 0.0
C539 C 0.87219 0.52184 0.00632 0.0
C540 C 0.85341 0.52686 0.00543 0.0
C541 C 0.94334 0.53006 0.99149 0.0
C542 C 0.95501 0.52826 0.01634 0.0
C543 C 0.9231 0.5326 0.99425 0.0
C544 C 0.91431 0.53382 0.02195 0.0
C545 C 0.92602 0.53226 0.04693 0.0
C546 C 0.94608 0.52917 0.0441 0.0
H547 H 0.51561 0.32119 0.94265 0.0
H548 H 0.44562 0.29376 0.97922 0.0
H549 H 0.52608 0.3637 0.95969 0.0
H550 H 0.45607 0.33553 0.99605 0.0
H551 H 0.50594 0.42985 0.96256 0.0
H552 H 0.50893 0.39305 0.94872 0.0
H553 H 0.48673 0.36881 0.03431 0.0
H554 H 0.48319 0.405 0.04775 0.0
C555 C 0.50252 0.32421 0.95424 0.0
C556 C 0.47981 0.30415 0.95965 0.0
C557 C 0.50853 0.34844 0.96397 0.0
C558 C 0.49206 0.35276 0.97964 0.0
C559 C 0.46934 0.33269 0.98462 0.0
C560 C 0.46327 0.30873 0.9747 0.0
C561 C 0.50263 0.41709 0.9787 0.0
C562 C 0.49387 0.41983 0.00596 0.0
C563 C 0.50435 0.39609 0.97081 0.0
C564 C 0.4975 0.37792 0.99026 0.0
C565 C 0.49164 0.38235 0.01875 0.0
C566 C 0.48966 0.40304 0.02645 0.0
H567 H 0.1461 0.69295 0.11993 0.0
H568 H 0.19907 0.67963 0.07769 0.0
H569 H 0.1145 0.6508 0.10324 0.0
H570 H 0.16745 0.6375 0.0612 0.0
H571 H 0.1002 0.59263 0.99399 0.0
H572 H 0.13484 0.62663 0.02248 0.0
H573 H 0.09721 0.60425 0.10211 0.0
H574 H 0.0622 0.56997 0.07314 0.0
C575 C 0.15113 0.68085 0.10781 0.0
C576 C 0.17502 0.68981 0.09963 0.0
C577 C 0.13303 0.65664 0.09841 0.0
C578 C 0.1385 0.64102 0.08059 0.0
C579 C 0.16271 0.64929 0.07461 0.0
C580 C 0.18082 0.67342 0.08412 0.0
C581 C 0.09954 0.59466 0.01765 0.0
C582 C 0.07868 0.57868 0.03148 0.0
C583 C 0.11943 0.614 0.034 0.0
C584 C 0.11878 0.61802 0.06455 0.0
C585 C 0.0982 0.6015 0.07859 0.0
C586 C 0.07832 0.58182 0.06215 0.0
H587 H 0.29356 0.42046 0.00283 0.0
H588 H 0.32241 0.49919 0.01526 0.0
H589 H 0.33287 0.42734 0.98933 0.0
H590 H 0.36163 0.50623 1.00025 0.0
H591 H 0.39996 0.44163 0.94796 0.0
H592 H 0.36115 0.43919 0.95375 0.0
H593 H 0.39562 0.50494 0.01545 0.0
H594 H 0.43454 0.50803 0.00817 0.0
C595 C 0.30827 0.43927 0.00232 0.0
C596 C 0.30486 0.45926 0.01023 0.0
C597 C 0.33086 0.44328 0.99425 0.0
C598 C 0.35062 0.4674 0.99335 0.0
C599 C 0.34705 0.48741 0.00099 0.0
C600 C 0.3245 0.48338 0.00952 0.0
C601 C 0.39929 0.45596 0.96205 0.0
C602 C 0.42027 0.47498 0.97762 0.0
C603 C 0.37696 0.45438 0.96578 0.0
C604 C 0.37494 0.47147 0.98572 0.0
C605 C 0.39629 0.49146 0.99979 0.0
C606 C 0.41873 0.4933 0.99558 0.0
H607 H 0.54779 0.83999 0.98972 0.0
H608 H 0.48175 0.80678 0.03572 0.0
H609 H 0.5419 0.874 0.98097 0.0
H610 H 0.47559 0.84087 0.02642 0.0
H611 H 0.4983 0.92582 0.03741 0.0
H612 H 0.4942 0.88548 0.04202 0.0
H613 H 0.5162 0.88354 0.95327 0.0
H614 H 0.52105 0.92396 0.94922 0.0
C615 C 0.53186 0.83981 0.99772 0.0
C616 C 0.51527 0.82068 0.01345 0.0
C617 C 0.52835 0.85924 0.99248 0.0
C618 C 0.50812 0.86004 0.00276 0.0
C619 C 0.49138 0.84082 0.01831 0.0
C620 C 0.49489 0.82128 0.02353 0.0
C621 C 0.50149 0.91632 0.01867 0.0
C622 C 0.51028 0.92801 0.99313 0.0
C623 C 0.49921 0.89328 0.02128 0.0
C624 C 0.5055 0.88163 0.99824 0.0
C625 C 0.51192 0.89236 0.97171 0.0
C626 C 0.51448 0.91539 0.96928 0.0
H627 H 0.95482 0.19482 0.28473 0.0
H628 H 0.97949 0.16019 0.34209 0.0
H629 H 0.99623 0.2288 0.28302 0.0
H630 H 0.02081 0.19451 0.34101 0.0
H631 H 0.09578 0.25523 0.32492 0.0
H632 H 0.0563 0.21794 0.31262 0.0
H633 H 0.02231 0.26218 0.31937 0.0
H634 H 0.06141 0.2991 0.33106 0.0
C635 C 0.96911 0.19438 0.29682 0.0
C636 C 0.96385 0.175 0.31388 0.0
C637 C 0.99282 0.21386 0.29586 0.0
C638 C 0.01179 0.21449 0.31211 0.0
C639 C 0.00668 0.19448 0.32799 0.0
C640 C 0.98295 0.1749 0.32881 0.0
C641 C 0.07989 0.25696 0.32313 0.0
C642 C 0.08164 0.28003 0.32926 0.0
C643 C 0.0573 0.23562 0.3163 0.0
C644 C 0.03615 0.23707 0.3152 0.0
C645 C 0.03821 0.26037 0.31971 0.0
C646 C 0.06065 0.28156 0.32668 0.0
H647 H 0.81693 0.78689 0.40509 0.0
H648 H 0.79871 0.75995 0.31318 0.0
H649 H 0.78581 0.79794 0.40557 0.0
H650 H 0.76707 0.77078 0.31384 0.0
H651 H 0.72734 0.81575 0.32395 0.0
H652 H 0.75967 0.80601 0.31994 0.0
H653 H 0.74186 0.77491 0.40283 0.0
H654 H 0.71009 0.78493 0.40712 0.0
C655 C 0.80635 0.78342 0.3849 0.0
C656 C 0.81021 0.77238 0.35914 0.0
C657 C 0.78837 0.78961 0.38525 0.0
C658 C 0.77373 0.78491 0.35986 0.0
C659 C 0.77812 0.77469 0.33374 0.0
C660 C 0.79618 0.76844 0.33339 0.0
C661 C 0.7303 0.80675 0.34124 0.0
C662 C 0.71626 0.80132 0.36598 0.0
C663 C 0.74875 0.8011 0.33888 0.0
C664 C 0.75351 0.78996 0.36123 0.0
C665 C 0.73903 0.78399 0.38553 0.0
C666 C 0.7207 0.78964 0.38791 0.0
H667 H 0.22467 0.03437 0.29492 0.0
H668 H 0.17234 0.01926 0.36084 0.0
H669 H 0.20998 0.99063 0.28507 0.0
H670 H 0.15693 0.97512 0.35024 0.0
H671 H 0.18211 0.91272 0.26568 0.0
H672 H 0.17999 0.95028 0.26746 0.0
H673 H 0.17211 0.94906 0.36113 0.0
H674 H 0.17283 0.91064 0.35872 0.0
C675 C 0.20954 0.02164 0.30674 0.0
C676 C 0.19996 0.03032 0.329 0.0
C677 C 0.20093 -0.00359 0.30094 0.0
C678 C 0.18234 0.97923 0.31706 0.0
C679 C 0.17155 0.98784 0.33781 0.0
C680 C 0.18031 0.01314 0.34376 0.0
C681 C 0.17901 0.92008 0.2864 0.0
C682 C 0.17781 0.90908 0.31211 0.0
C683 C 0.17804 0.9417 0.28752 0.0
C684 C 0.17658 0.95313 0.31455 0.0
C685 C 0.17315 0.94078 0.33988 0.0
C686 C 0.17358 0.91877 0.3386 0.0
H687 H 0.51988 0.63 0.38803 0.0
H688 H 0.50726 0.63382 0.29641 0.0
H689 H 0.54441 0.67468 0.39544 0.0
H690 H 0.53154 0.67882 0.304 0.0
H691 H 0.60846 0.7511 0.32582 0.0
H692 H 0.57455 0.70901 0.31346 0.0
H693 H 0.54478 0.71288 0.39687 0.0
H694 H 0.57909 0.75433 0.40951 0.0
C695 C 0.52196 0.64041 0.36958 0.0
C696 C 0.5118 0.62835 0.34161 0.0
C697 C 0.5359 0.6661 0.37385 0.0
C698 C 0.53995 0.68037 0.35027 0.0
C699 C 0.52895 0.66835 0.32252 0.0
C700 C 0.51495 0.64258 0.31824 0.0
C701 C 0.59423 0.74314 0.34101 0.0
C702 C 0.59644 0.75564 0.36873 0.0
C703 C 0.57481 0.71906 0.334 0.0
C704 C 0.55726 0.7074 0.35452 0.0
C705 C 0.55834 0.72107 0.38095 0.0
C706 C 0.57786 0.74485 0.3881 0.0
H707 H 0.354 0.86103 0.30334 0.0
H708 H 0.37597 0.89707 0.39177 0.0
H709 H 0.31215 0.84756 0.31275 0.0
H710 H 0.3338 0.88296 0.40149 0.0
H711 H 0.26687 0.89169 0.38322 0.0
H712 H 0.30638 0.89549 0.38531 0.0
H713 H 0.27619 0.82275 0.33846 0.0
H714 H 0.23645 0.81918 0.33586 0.0
C715 C 0.34985 0.86565 0.32503 0.0
C716 C 0.3684 0.88044 0.34667 0.0
C717 C 0.32575 0.8577 0.33053 0.0
C718 C 0.31955 0.86427 0.35785 0.0
C719 C 0.33798 0.87787 0.38006 0.0
C720 C 0.36214 0.88589 0.37453 0.0
C721 C 0.26851 0.87624 0.37396 0.0
C722 C 0.24862 0.8553 0.35898 0.0
C723 C 0.2912 0.87835 0.37532 0.0
C724 C 0.29459 0.85957 0.36168 0.0
C725 C 0.27426 0.83774 0.34875 0.0
C726 C 0.25145 0.83558 0.34749 0.0
H727 H 0.16002 0.5184 0.35938 0.0
H728 H 0.09897 0.45309 0.31468 0.0
H729 H 0.18366 0.49777 0.35622 0.0
H730 H 0.12235 0.43259 0.31167 0.0
H731 H 0.1596 0.39377 0.31011 0.0
H732 H 0.15715 0.42879 0.29526 0.0
H733 H 0.17698 0.46351 0.38441 0.0
H734 H 0.17932 0.42869 0.39891 0.0
C735 C 0.15184 0.49987 0.34829 0.0
C736 C 0.12749 0.48714 0.33783 0.0
C737 C 0.1654 0.48812 0.3464 0.0
C738 C 0.15491 0.46354 0.33375 0.0
C739 C 0.13117 0.45164 0.32118 0.0
C740 C 0.1176 0.46327 0.3233 0.0
C741 C 0.1649 0.40964 0.32601 0.0
C742 C 0.16933 0.40856 0.35567 0.0
C743 C 0.16322 0.42955 0.31763 0.0
C744 C 0.16617 0.44855 0.33885 0.0
C745 C 0.17453 0.44921 0.3675 0.0
C746 C 0.17594 0.42925 0.37587 0.0
H747 H 0.36008 0.50468 0.37074 0.0
H748 H 0.37876 0.45158 0.33395 0.0
H749 H 0.31876 0.47138 0.37582 0.0
H750 H 0.33741 0.41859 0.33672 0.0
H751 H 0.26639 0.35903 0.35801 0.0
H752 H 0.30778 0.39344 0.36494 0.0
H753 H 0.2826 0.44393 0.35071 0.0
H754 H 0.24102 0.4094 0.34643 0.0
C755 C 0.35524 0.48585 0.36361 0.0
C756 C 0.37258 0.48064 0.35211 0.0
C757 C 0.33151 0.46673 0.3663 0.0
C758 C 0.32448 0.44205 0.3568 0.0
C759 C 0.34204 0.43709 0.34518 0.0
C760 C 0.36582 0.45607 0.34328 0.0
C761 C 0.26982 0.37762 0.35712 0.0
C762 C 0.25073 0.38172 0.35174 0.0
C763 C 0.29356 0.39738 0.36065 0.0
C764 C 0.29886 0.42162 0.35765 0.0
C765 C 0.27944 0.4257 0.35348 0.0
C766 C 0.25556 0.40593 0.35092 0.0
H767 H 0.54774 0.9258 0.36791 0.0
H768 H 0.49723 0.84814 0.37121 0.0
H769 H 0.58111 0.91939 0.37798 0.0
H770 H 0.53048 0.84177 0.3835 0.0
H771 H 0.59599 0.83425 0.35871 0.0
H772 H 0.56068 0.83866 0.3612 0.0
H773 H 0.6042 0.91143 0.40806 0.0
H774 H 0.63992 0.9075 0.40329 0.0
C775 C 0.54376 0.90742 0.37157 0.0
C776 C 0.51993 0.88743 0.36846 0.0
C777 C 0.56293 0.90371 0.37766 0.0
C778 C 0.55873 0.87997 0.3815 0.0
C779 C 0.53463 0.86021 0.37997 0.0
C780 C 0.51549 0.86385 0.37313 0.0
C781 C 0.59787 0.85096 0.3701 0.0
C782 C 0.62069 0.87066 0.3805 0.0
C783 C 0.57753 0.85353 0.37167 0.0
C784 C 0.57945 0.87565 0.38437 0.0
C785 C 0.60205 0.89446 0.39718 0.0
C786 C 0.62252 0.89214 0.39483 0.0
H787 H 0.1809 0.65409 0.27825 0.0
H788 H 0.12643 0.62837 0.34239 0.0
H789 H 0.18906 0.69632 0.2906 0.0
H790 H 0.13386 0.6697 0.35385 0.0
H791 H 0.16439 0.75607 0.2941 0.0
H792 H 0.16954 0.72023 0.28475 0.0
H793 H 0.16187 0.70924 0.37683 0.0
H794 H 0.1552 0.74391 0.38547 0.0
C795 C 0.17078 0.65746 0.29501 0.0
C796 C 0.15309 0.63793 0.30941 0.0
C797 C 0.1754 0.68159 0.30203 0.0
C798 C 0.16237 0.68651 0.3235 0.0
C799 C 0.14481 0.66686 0.33785 0.0
C800 C 0.14035 0.64298 0.33103 0.0
C801 C 0.16453 0.74631 0.31235 0.0
C802 C 0.15906 0.75229 0.34036 0.0
C803 C 0.16751 0.72584 0.30707 0.0
C804 C 0.16541 0.71144 0.32991 0.0
C805 C 0.16276 0.71941 0.35856 0.0
C806 C 0.15918 0.73938 0.36363 0.0
H807 H 0.85713 -0.00213 0.42157 0.0
H808 H 0.84615 0.0172 0.33705 0.0
H809 H 0.82432 0.95541 0.40836 0.0
H810 H 0.81296 0.97582 0.32453 0.0
H811 H 0.75392 0.90422 0.30037 0.0
H812 H 0.79656 0.93413 0.31225 0.0
H813 H 0.78216 0.93526 0.40442 0.0
H814 H 0.74005 0.90384 0.3923 0.0
C815 C 0.84789 0.99298 0.40008 0.0
C816 C 0.85407 0.01091 0.38046 0.0
C817 C 0.82901 0.96869 0.39254 0.0
C818 C 0.81576 0.962 0.3654 0.0
C819 C 0.82291 0.97983 0.34536 0.0
C820 C 0.84191 0.00385 0.35269 0.0
C821 C 0.76029 0.91002 0.32322 0.0
C822 C 0.74395 0.90199 0.34547 0.0
C823 C 0.78461 0.92745 0.33008 0.0
C824 C 0.79272 0.93796 0.35922 0.0
C825 C 0.77673 0.92774 0.38172 0.0
C826 C 0.75253 0.9097 0.37485 0.0
H827 H 0.9841 0.82717 0.34583 0.0
H828 H 0.95762 0.74905 0.32895 0.0
H829 H 0.02423 0.83616 0.33212 0.0
H830 H -0.00225 0.75783 0.31665 0.0
H831 H 0.06665 0.77579 0.27849 0.0
H832 H 0.02727 0.77235 0.28239 0.0
H833 H 0.05814 0.83493 0.34878 0.0
H834 H 0.09771 0.83908 0.3435 0.0
C835 C 0.98689 0.81191 0.33932 0.0
C836 C 0.96767 0.78739 0.33847 0.0
C837 C 0.00995 0.81706 0.33154 0.0
C838 C 0.0144 0.79778 0.32307 0.0
C839 C 0.99505 0.77326 0.32228 0.0
C840 C 0.97199 0.76815 0.32965 0.0
C841 C 0.06509 0.78924 0.29324 0.0
C842 C 0.0852 0.80763 0.31074 0.0
C843 C 0.04244 0.78709 0.29583 0.0
C844 C 0.03923 0.80291 0.31652 0.0
C845 C 0.05979 0.82243 0.33252 0.0
C846 C 0.08257 0.82487 0.32948 0.0
H847 H 0.22832 0.19585 0.37461 0.0
H848 H 0.15384 0.13665 0.36305 0.0
H849 H 0.21526 0.22601 0.37558 0.0
H850 H 0.14078 0.167 0.36391 0.0
H851 H 0.14495 0.23113 0.30993 0.0
H852 H 0.14691 0.19648 0.32639 0.0
H853 H 0.1916 0.24323 0.40252 0.0
H854 H 0.18925 0.27791 0.38599 0.0
C855 C 0.20913 0.18928 0.37263 0.0
C856 C 0.19213 0.16388 0.36841 0.0
C857 C 0.20163 0.20657 0.37357 0.0
C858 C 0.17697 0.19885 0.37001 0.0
C859 C 0.15989 0.17345 0.36677 0.0
C860 C 0.16739 0.15611 0.3662 0.0
C861 C 0.15402 0.23356 0.33101 0.0
C862 C 0.16681 0.25699 0.34684 0.0
C863 C 0.15526 0.21377 0.3404 0.0
C864 C 0.16974 0.21728 0.36549 0.0
C865 C 0.18048 0.24012 0.38296 0.0
C866 C 0.17889 0.25985 0.37375 0.0
H867 H 0.6512 0.49333 0.67646 0.0
H868 H 0.62858 0.51953 0.6058 0.0
H869 H 0.69286 0.52615 0.67295 0.0
H870 H 0.67037 0.55179 0.60146 0.0
H871 H 0.73329 0.62669 0.64412 0.0
H872 H 0.69519 0.58874 0.63246 0.0
H873 H 0.72967 0.54654 0.64686 0.0
H874 H 0.76817 0.5851 0.6593 0.0
C875 C 0.65522 0.50575 0.6597 0.0
C876 C 0.63658 0.50419 0.64181 0.0
C877 C 0.67916 0.52445 0.65749 0.0
C878 C 0.68496 0.54182 0.63713 0.0
C879 C 0.66647 0.53904 0.61779 0.0
C880 C 0.64252 0.52055 0.62025 0.0
C881 C 0.7329 0.60933 0.64424 0.0
C882 C 0.7536 0.60883 0.65305 0.0
C883 C 0.71103 0.58748 0.63727 0.0
C884 C 0.70926 0.56451 0.63896 0.0
C885 C 0.73039 0.56396 0.64575 0.0
C886 C 0.75245 0.58599 0.65261 0.0
H887 H 0.49924 0.15092 0.69993 0.0
H888 H 0.47068 0.09439 0.62636 0.0
H889 H 0.46715 0.15963 0.69103 0.0
H890 H 0.43883 0.10362 0.61694 0.0
H891 H 0.40736 0.1727 0.67238 0.0
H892 H 0.44476 0.1728 0.66154 0.0
H893 H 0.40414 0.09314 0.64583 0.0
H894 H 0.36718 0.09314 0.65628 0.0
C895 C 0.48655 0.14086 0.68127 0.0
C896 C 0.48717 0.12155 0.66429 0.0
C897 C 0.46821 0.14601 0.67601 0.0
C898 C 0.45017 0.13204 0.65354 0.0
C899 C 0.4522 0.11438 0.63478 0.0
C900 C 0.47048 0.10913 0.64014 0.0
C901 C 0.40643 0.15533 0.66568 0.0
C902 C 0.38448 0.13288 0.66559 0.0
C903 C 0.42783 0.15536 0.65967 0.0
C904 C 0.4275 0.13297 0.65313 0.0
C905 C 0.40513 0.11075 0.65052 0.0
C906 C 0.38391 0.11071 0.65678 0.0
H907 H 0.86383 0.36264 0.65291 0.0
H908 H 0.87029 0.35864 0.74592 0.0
H909 H 0.85253 0.31948 0.64334 0.0
H910 H 0.85822 0.31529 0.73649 0.0
H911 H 0.87257 0.25245 0.70062 0.0
H912 H 0.87583 0.2921 0.7163 0.0
H913 H 0.82224 0.27775 0.64799 0.0
H914 H 0.81999 0.23871 0.63178 0.0
C915 C 0.86242 0.35241 0.67132 0.0
C916 C 0.86808 0.36403 0.70011 0.0
C917 C 0.85577 0.32762 0.66591 0.0
C918 C 0.85444 0.31389 0.6892 0.0
C919 C 0.85938 0.32539 0.71805 0.0
C920 C 0.8662 0.35021 0.72344 0.0
C921 C 0.86098 0.25756 0.68973 0.0
C922 C 0.84592 0.24275 0.66527 0.0
C923 C 0.86282 0.28023 0.69858 0.0
C924 C 0.84952 0.28825 0.6831 0.0
C925 C 0.83311 0.27237 0.65996 0.0
C926 C 0.83154 0.24992 0.65093 0.0
H927 H 0.18214 0.96547 0.73006 0.0
H928 H 0.15233 0.96809 0.64662 0.0
H929 H 0.20632 0.0102 0.73614 0.0
H930 H 0.1765 0.01312 0.65289 0.0
H931 H 0.25067 0.08787 0.74669 0.0
H932 H 0.21051 0.05098 0.74155 0.0
H933 H 0.22066 0.03876 0.64974 0.0
H934 H 0.26054 0.07599 0.65501 0.0
C935 C 0.18021 0.97563 0.7134 0.0
C936 C 0.16571 0.96322 0.6876 0.0
C937 C 0.19394 0.00136 0.71699 0.0
C938 C 0.19349 0.01525 0.69483 0.0
C939 C 0.1774 0.0029 0.67017 0.0
C940 C 0.16354 0.97711 0.66665 0.0
C941 C 0.24361 0.07807 0.72506 0.0
C942 C 0.25846 0.08463 0.70119 0.0
C943 C 0.22078 0.05679 0.72218 0.0
C944 C 0.21267 0.04161 0.69545 0.0
C945 C 0.22631 0.05006 0.67064 0.0
C946 C 0.24913 0.07147 0.67354 0.0
H947 H 0.02591 0.18896 0.6312 0.0
H948 H 0.03906 0.23982 0.7081 0.0
H949 H 0.98315 0.17578 0.63033 0.0
H950 H 0.99598 0.22653 0.70706 0.0
H951 H 0.91132 0.18193 0.70366 0.0
H952 H 0.95266 0.18956 0.71039 0.0
H953 H 0.96293 0.19924 0.6184 0.0
H954 H 0.92219 0.19178 0.61169 0.0
C955 C 0.01966 0.19713 0.64818 0.0
C956 C 0.036 0.21569 0.66951 0.0
C957 C 0.99513 0.18959 0.6476 0.0
C958 C 0.98627 0.20032 0.66841 0.0
C959 C 0.00229 0.21786 0.6908 0.0
C960 C 0.02697 0.22554 0.6913 0.0
C961 C 0.92241 0.18551 0.6849 0.0
C962 C 0.91349 0.18631 0.65717 0.0
C963 C 0.94606 0.18999 0.68879 0.0
C964 C 0.96096 0.19486 0.66489 0.0
C965 C 0.95181 0.19521 0.63717 0.0
C966 C 0.92846 0.1911 0.63338 0.0
H967 H 0.76112 0.78377 0.6447 0.0
H968 H 0.82075 0.84874 0.69197 0.0
H969 H 0.78513 0.76395 0.64165 0.0
H970 H 0.845 0.82873 0.68893 0.0
H971 H 0.83944 0.75803 0.72974 0.0
H972 H 0.83722 0.79323 0.71634 0.0
H973 H 0.82118 0.76175 0.6258 0.0
H974 H 0.82359 0.7264 0.63952 0.0
C975 C 0.77958 0.79403 0.65389 0.0
C976 C 0.78889 0.81757 0.66911 0.0
C977 C 0.79352 0.78281 0.65176 0.0
C978 C 0.817 0.79478 0.66507 0.0
C979 C 0.82695 0.81908 0.67848 0.0
C980 C 0.81305 0.83046 0.68031 0.0
C981 C 0.83695 0.75943 0.70673 0.0
C982 C 0.83149 0.73958 0.68567 0.0
C983 C 0.83563 0.7796 0.69898 0.0
C984 C 0.8284 0.77993 0.67012 0.0
C985 C 0.82646 0.76177 0.64829 0.0
C986 C 0.82808 0.74167 0.65605 0.0
H987 H 0.04255 0.79976 0.71368 0.0
H988 H 0.02556 0.84557 0.66562 0.0
H989 H -0.00058 0.76999 0.71545 0.0
H990 H 0.98251 0.81571 0.66736 0.0
H991 H 0.91906 0.73596 0.63327 0.0
H992 H 0.95953 0.77196 0.64106 0.0
H993 H 0.95835 0.76362 0.73368 0.0
H994 H 0.91729 0.72747 0.72589 0.0
C995 C 0.02963 0.80367 0.70391 0.0
C996 C 0.03746 0.82485 0.68917 0.0
C997 C 0.00495 0.78672 0.70515 0.0
C998 C 0.9877 0.79053 0.69142 0.0
C999 C 0.99549 0.81229 0.67796 0.0
C1000 C 0.02012 0.82936 0.67698 0.0
C1001 C 0.92728 0.742 0.65538 0.0
C1002 C 0.91517 0.72888 0.67896 0.0
C1003 C 0.95037 0.76272 0.65986 0.0
C1004 C 0.96204 0.77055 0.68796 0.0
C1005 C 0.9497 0.75788 0.7118 0.0
C1006 C 0.92627 0.73734 0.70738 0.0
H1007 H 0.15548 0.17108 0.6964 0.0
H1008 H 0.2088 0.2488 0.70989 0.0
H1009 H 0.18597 0.16109 0.71034 0.0
H1010 H 0.23954 0.23904 0.72207 0.0
H1011 H 0.29259 0.22104 0.75176 0.0
H1012 H 0.25684 0.22509 0.75358 0.0
H1013 H 0.21872 0.15999 0.69128 0.0
H1014 H 0.25394 0.15517 0.69135 0.0
C1015 C 0.17374 0.18603 0.70239 0.0
C1016 C 0.17977 0.21072 0.70192 0.0
C1017 C 0.19129 0.18033 0.71024 0.0
C1018 C 0.21542 0.19918 0.71728 0.0
C1019 C 0.22117 0.22391 0.71749 0.0
C1020 C 0.20354 0.22959 0.71019 0.0
C1021 C 0.27619 0.20712 0.73939 0.0
C1022 C 0.27598 0.18784 0.7214 0.0
C1023 C 0.25579 0.20962 0.74 0.0
C1024 C 0.23496 0.19334 0.72187 0.0
C1025 C 0.23422 0.17288 0.7057 0.0
C1026 C 0.25446 0.17004 0.70572 0.0
H1027 H 0.84937 0.98505 0.70057 0.0
H1028 H 0.84398 0.99021 0.60767 0.0
H1029 H 0.85344 0.02552 0.71121 0.0
H1030 H 0.84786 0.03055 0.61842 0.0
H1031 H 0.85471 0.10402 0.64563 0.0
H1032 H 0.86972 0.07503 0.64138 0.0
H1033 H 0.81849 0.0317 0.70323 0.0
H1034 H 0.80365 0.06024 0.70737 0.0
C1035 C 0.84981 0.99511 0.68239 0.0
C1036 C 0.8457 0.98416 0.65329 0.0
C1037 C 0.85211 0.01828 0.68852 0.0
C1038 C 0.8505 0.03094 0.66567 0.0
C1039 C 0.8492 0.02125 0.63649 0.0
C1040 C 0.84679 -0.00198 0.63035 0.0
C1041 C 0.84711 0.08856 0.65874 0.0
C1042 C 0.8278 0.08412 0.67648 0.0
C1043 C 0.85565 0.07202 0.65629 0.0
C1044 C 0.84531 0.05116 0.67201 0.0
C1045 C 0.82711 0.04777 0.69117 0.0
C1046 C 0.81839 0.06399 0.69327 0.0
H1047 H 0.51907 0.33111 0.75297 0.0
H1048 H 0.50091 0.35251 0.67408 0.0
H1049 H 0.48555 0.28884 0.74068 0.0
H1050 H 0.46714 0.3112 0.66261 0.0
H1051 H 0.40949 0.23796 0.63863 0.0
H1052 H 0.45195 0.26968 0.64772 0.0
H1053 H 0.443 0.26822 0.74123 0.0
H1054 H 0.40102 0.2352 0.7317 0.0
C1055 C 0.50805 0.32673 0.73293 0.0
C1056 C 0.51251 0.34514 0.7146 0.0
C1057 C 0.48881 0.30256 0.72593 0.0
C1058 C 0.47355 0.29646 0.70063 0.0
C1059 C 0.47872 0.31483 0.68188 0.0
C1060 C 0.49804 0.33876 0.68865 0.0
C1061 C 0.41705 0.24373 0.66105 0.0
C1062 C 0.40226 0.23441 0.68452 0.0
C1063 C 0.44124 0.26212 0.66633 0.0
C1064 C 0.45074 0.27218 0.69522 0.0
C1065 C 0.43642 0.26099 0.7187 0.0
C1066 C 0.41233 0.24207 0.71333 0.0
H1067 H 0.62301 0.07022 0.64772 0.0
H1068 H 0.64545 0.14738 0.66542 0.0
H1069 H 0.66391 0.08139 0.63618 0.0
H1070 H 0.68641 0.15875 0.65255 0.0
H1071 H 0.76104 0.16509 0.6688 0.0
H1072 H 0.72058 0.15895 0.67143 0.0
H1073 H 0.69449 0.09798 0.60321 0.0
H1074 H 0.73482 0.10339 0.60188 0.0
C1075 C 0.63663 0.08963 0.64868 0.0
C1076 C 0.631 0.1079 0.65764 0.0
C1077 C 0.66013 0.09609 0.64176 0.0
C1078 C 0.67861 0.12104 0.64321 0.0
C1079 C 0.67279 0.13936 0.65151 0.0
C1080 C 0.64927 0.13285 0.65879 0.0
C1081 C 0.74678 0.15077 0.65385 0.0
C1082 C 0.751 0.13449 0.6354 0.0
C1083 C 0.72349 0.14723 0.65532 0.0
C1084 C 0.70401 0.12757 0.638 0.0
C1085 C 0.70883 0.11278 0.61759 0.0
C1086 C 0.73201 0.11604 0.61654 0.0
H1087 H 0.87036 0.49678 0.66856 0.0
H1088 H 0.82825 0.49035 0.7441 0.0
H1089 H 0.87134 0.53464 0.6597 0.0
H1090 H 0.82993 0.52888 0.73581 0.0
H1091 H 0.81978 0.58723 0.69137 0.0
H1092 H 0.81655 0.54862 0.70343 0.0
H1093 H 0.89074 0.57618 0.68149 0.0
H1094 H 0.89352 0.61394 0.66851 0.0
C1095 C 0.86135 0.50349 0.68333 0.0
C1096 C 0.84937 0.49067 0.70714 0.0
C1097 C 0.86206 0.52533 0.6784 0.0
C1098 C 0.85106 0.53505 0.69736 0.0
C1099 C 0.8385 0.52186 0.72074 0.0
C1100 C 0.83762 0.49984 0.72554 0.0
C1101 C 0.83542 0.58504 0.68959 0.0
C1102 C 0.85678 0.60335 0.67869 0.0
C1103 C 0.8336 0.56298 0.69645 0.0
C1104 C 0.85323 0.55909 0.69279 0.0
C1105 C 0.87502 0.57819 0.68364 0.0
C1106 C 0.87669 0.59994 0.67645 0.0
H1107 H 0.4878 0.91644 0.23563 0.0
H1108 H 0.48296 0.97969 0.27016 0.0
H1109 H 0.49453 0.93136 0.18708 0.0
H1110 H 0.49002 0.99463 0.22194 0.0
H1111 H 0.45913 0.98672 0.12895 0.0
H1112 H 0.46184 0.97672 0.17801 0.0
H1113 H 0.52095 0.9655 0.15497 0.0
H1114 H 0.51821 0.97558 0.10494 0.0
C1115 C 0.48868 0.93377 0.23304 0.0
C1116 C 0.48435 0.94661 0.25665 0.0
C1117 C 0.49267 0.94236 0.20525 0.0
C1118 C 0.49239 0.96393 0.20063 0.0
C1119 C 0.48985 0.97767 0.22473 0.0
C1120 C 0.48584 0.96911 0.25239 0.0
C1121 C 0.47281 0.9822 0.13414 0.0
C1122 C 0.48844 0.98192 0.11291 0.0
C1123 C 0.4745 0.97668 0.16246 0.0
C1124 C 0.4918 0.97061 0.17048 0.0
C1125 C 0.50746 0.97016 0.14935 0.0
C1126 C 0.50591 0.97596 0.12081 0.0
H1127 H 0.10535 0.53632 0.24079 0.0
H1128 H 0.05667 0.55476 0.28536 0.0
H1129 H 0.0907 0.54036 0.19391 0.0
H1130 H 0.04228 0.55953 0.23832 0.0
H1131 H 0.99488 0.51334 0.15319 0.0
H1132 H 0.01656 0.529 0.20071 0.0
H1133 H 0.08447 0.5624 0.15841 0.0
H1134 H 0.06251 0.54556 0.11065 0.0
C1135 C 0.09222 0.54227 0.24062 0.0
C1136 C 0.08213 0.54522 0.26665 0.0
C1137 C 0.0838 0.54465 0.21368 0.0
C1138 C 0.06514 0.55012 0.21222 0.0
C1139 C 0.05637 0.55489 0.23858 0.0
C1140 C 0.06461 0.55221 0.26551 0.0
C1141 C 0.01442 0.52466 0.15401 0.0
C1142 C 0.02702 0.528 0.12827 0.0
C1143 C 0.02693 0.53385 0.18133 0.0
C1144 C 0.05235 0.54663 0.18349 0.0
C1145 C 0.06489 0.55222 0.15753 0.0
C1146 C 0.05232 0.5429 0.1301 0.0
H1147 H 0.43581 0.50534 0.23483 0.0
H1148 H 0.51333 0.54733 0.25092 0.0
H1149 H 0.44079 0.49979 0.18269 0.0
H1150 H 0.51853 0.54333 0.19853 0.0
H1151 H 0.51865 0.5094 0.10553 0.0
H1152 H 0.5162 0.51751 0.15811 0.0
H1153 H 0.45087 0.51944 0.14074 0.0
H1154 H 0.45258 0.5094 0.08862 0.0
C1155 C 0.45393 0.51354 0.2271 0.0
C1156 C 0.47415 0.52668 0.24687 0.0
C1157 C 0.45686 0.51065 0.19713 0.0
C1158 C 0.48011 0.52142 0.18609 0.0
C1159 C 0.50035 0.53448 0.20607 0.0
C1160 C 0.49739 0.53685 0.23615 0.0
C1161 C 0.50407 0.51201 0.11314 0.0
C1162 C 0.48577 0.50877 0.09332 0.0
C1163 C 0.5026 0.51667 0.14326 0.0
C1164 C 0.48306 0.51872 0.15395 0.0
C1165 C 0.46571 0.51712 0.1336 0.0
C1166 C 0.46683 0.51176 0.10367 0.0
H1167 H 0.89469 0.45584 0.82384 0.0
H1168 H 0.95045 0.45761 0.76999 0.0
H1169 H 0.91844 0.45998 0.86778 0.0
H1170 H 0.97358 0.46018 0.81361 0.0
H1171 H 0.02107 0.49771 0.89834 0.0
H1172 H 0.99722 0.48707 0.85295 0.0
H1173 H 0.9325 0.4407 0.89704 0.0
H1174 H 0.95651 0.45279 0.94333 0.0
C1175 C 0.91203 0.45706 0.82146 0.0
C1176 C 0.92088 0.45675 0.79358 0.0
C1177 C 0.9255 0.45903 0.84661 0.0
C1178 C 0.94792 0.4602 0.8444 0.0
C1179 C 0.95663 0.45973 0.81634 0.0
C1180 C 0.94339 0.45831 0.79126 0.0
C1181 C 0.0018 0.48485 0.89835 0.0
C1182 C 0.99062 0.47658 0.92464 0.0
C1183 C 0.98804 0.47861 0.87211 0.0
C1184 C 0.96276 0.46345 0.8713 0.0
C1185 C 0.95184 0.45311 0.89704 0.0
C1186 C 0.96564 0.4597 0.92351 0.0
H1187 H 0.52669 0.42237 0.76405 0.0
H1188 H 0.55639 0.49922 0.75183 0.0
H1189 H 0.51153 0.42869 0.81085 0.0
H1190 H 0.54193 0.50587 0.79874 0.0
H1191 H 0.503 0.51257 0.8733 0.0
H1192 H 0.50774 0.49846 0.82393 0.0
H1193 H 0.52456 0.44734 0.85978 0.0
H1194 H 0.5183 0.46063 0.90906 0.0
C1195 C 0.53038 0.44073 0.77169 0.0
C1196 C 0.54317 0.46045 0.75467 0.0
C1197 C 0.52155 0.44433 0.79841 0.0
C1198 C 0.52539 0.46777 0.8087 0.0
C1199 C 0.53807 0.4874 0.79136 0.0
C1200 C 0.54662 0.48371 0.76456 0.0
C1201 C 0.50689 0.49771 0.8704 0.0
C1202 C 0.51032 0.48766 0.89479 0.0
C1203 C 0.50998 0.48986 0.84219 0.0
C1204 C 0.51729 0.47229 0.83785 0.0
C1205 C 0.5189 0.46087 0.86219 0.0
C1206 C 0.51526 0.4684 0.89045 0.0
H1207 H 0.56403 0.0553 0.77583 0.0
H1208 H 0.49438 0.05013 0.77849 0.0
H1209 H 0.56023 0.04355 0.82556 0.0
H1210 H 0.49102 0.03947 0.82871 0.0
H1211 H 0.4839 -0.00036 0.91094 0.0
H1212 H 0.48531 0.00942 0.86019 0.0
H1213 H 0.56229 0.06037 0.8738 0.0
H1214 H 0.56092 0.04963 0.92361 0.0
C1215 C 0.54795 0.05175 0.78708 0.0
C1216 C 0.5296 0.05379 0.77324 0.0
C1217 C 0.54582 0.04519 0.81573 0.0
C1218 C 0.52545 0.04089 0.83145 0.0
C1219 C 0.50686 0.04242 0.81731 0.0
C1220 C 0.50886 0.04867 0.7885 0.0
C1221 C 0.50101 0.01307 0.90301 0.0
C1222 C 0.52232 0.02372 0.92106 0.0
C1223 C 0.50187 0.01872 0.87396 0.0
C1224 C 0.52401 0.03542 0.86262 0.0
C1225 C 0.54506 0.04684 0.88133 0.0
C1226 C 0.54425 0.04089 0.91004 0.0
H1227 H 0.16184 0.31574 0.60702 0.0
H1228 H 0.15173 0.24627 0.56735 0.0
H1229 H 0.17038 0.33192 0.55953 0.0
H1230 H 0.15961 0.26232 0.51943 0.0
H1231 H 0.18266 0.30463 0.43628 0.0
H1232 H 0.18651 0.2929 0.48506 0.0
H1233 H 0.14117 0.32055 0.51914 0.0
H1234 H 0.13771 0.33242 0.47178 0.0
C1235 C 0.16176 0.30401 0.58823 0.0
C1236 C 0.15559 0.27953 0.59088 0.0
C1237 C 0.16661 0.31327 0.56097 0.0
C1238 C 0.16511 0.2982 0.53557 0.0
C1239 C 0.16091 0.2744 0.53855 0.0
C1240 C 0.15626 0.26516 0.566 0.0
C1241 C 0.17377 0.30837 0.45435 0.0
C1242 C 0.15994 0.31953 0.45002 0.0
C1243 C 0.17591 0.30161 0.48221 0.0
C1244 C 0.16444 0.30614 0.50611 0.0
C1245 C 0.1508 0.31737 0.50155 0.0
C1246 C 0.14863 0.32398 0.47408 0.0
H1247 H 0.70168 0.85892 0.60791 0.0
H1248 H 0.77476 0.88964 0.58042 0.0
H1249 H 0.68865 0.8624 0.56003 0.0
H1250 H 0.76232 0.89564 0.53341 0.0
H1251 H 0.72337 0.86213 0.4417 0.0
H1252 H 0.74249 0.87217 0.4906 0.0
H1253 H 0.68604 0.88422 0.52441 0.0
H1254 H 0.66597 0.87208 0.47553 0.0
C1255 C 0.71519 0.86716 0.59196 0.0
C1256 C 0.7394 0.87422 0.59838 0.0
C1257 C 0.70775 0.86953 0.56441 0.0
C1258 C 0.72437 0.87942 0.5425 0.0
C1259 C 0.74885 0.88763 0.54944 0.0
C1260 C 0.75619 0.88471 0.57686 0.0
C1261 C 0.71541 0.86755 0.45949 0.0
C1262 C 0.69304 0.86599 0.45502 0.0
C1263 C 0.72643 0.87342 0.4877 0.0
C1264 C 0.71558 0.87847 0.51191 0.0
C1265 C 0.6945 0.87952 0.50663 0.0
C1266 C 0.68312 0.87291 0.47856 0.0
H1267 H 0.10452 0.83145 0.57325 0.0
H1268 H 0.18105 0.88437 0.58436 0.0
H1269 H 0.10839 0.8248 0.52098 0.0
H1270 H 0.18481 0.87892 0.53178 0.0
H1271 H 0.18624 0.84614 0.43841 0.0
H1272 H 0.18485 0.85381 0.4914 0.0
H1273 H 0.11338 0.84353 0.47839 0.0
H1274 H 0.11438 0.83429 0.42595 0.0
C1275 C 0.12218 0.8417 0.56446 0.0
C1276 C 0.14245 0.85843 0.58289 0.0
C1277 C 0.1244 0.83815 0.53438 0.0
C1278 C 0.14687 0.85167 0.52184 0.0
C1279 C 0.16726 0.86799 0.54051 0.0
C1280 C 0.1651 0.87117 0.57072 0.0
C1281 C 0.17047 0.84594 0.44703 0.0
C1282 C 0.15038 0.83955 0.4283 0.0
C1283 C 0.16959 0.85031 0.47739 0.0
C1284 C 0.14878 0.84883 0.48944 0.0
C1285 C 0.12937 0.84396 0.4702 0.0
C1286 C 0.13004 0.83902 0.44007 0.0
H1287 H 0.61951 0.79486 0.10338 0.0
H1288 H 0.55033 0.7793 0.13507 0.0
H1289 H 0.63604 0.80344 0.15409 0.0
H1290 H 0.56675 0.78752 0.18534 0.0
H1291 H 0.616 0.84171 0.26323 0.0
H1292 H 0.59715 0.82646 0.21406 0.0
H1293 H 0.63175 0.78303 0.20199 0.0
H1294 H 0.65082 0.7985 0.252 0.0
C1295 C 0.60783 0.79321 0.12109 0.0
C1296 C 0.58368 0.78672 0.11517 0.0
C1297 C 0.61722 0.79783 0.15008 0.0
C1298 C 0.60265 0.79611 0.17359 0.0
C1299 C 0.57844 0.78917 0.16762 0.0
C1300 C 0.56907 0.78455 0.13879 0.0
C1301 C 0.61933 0.82862 0.25026 0.0
C1302 C 0.63485 0.82127 0.26128 0.0
C1303 C 0.60845 0.81981 0.22215 0.0
C1304 C 0.61302 0.80361 0.2042 0.0
C1305 C 0.62807 0.79564 0.21541 0.0
C1306 C 0.63875 0.80424 0.24398 0.0
H1307 H 0.24536 0.80679 0.10949 0.0
H1308 H 0.17639 0.79321 0.07598 0.0
H1309 H 0.23428 0.81094 0.15934 0.0
H1310 H 0.16434 0.79576 0.12611 0.0
H1311 H 0.16339 0.83138 0.21832 0.0
H1312 H 0.16979 0.82224 0.16739 0.0
H1313 H 0.21171 0.79111 0.19714 0.0
H1314 H 0.20665 0.80214 0.24786 0.0
C1315 C 0.22759 0.80424 0.11295 0.0
C1316 C 0.21168 0.79957 0.08902 0.0
C1317 C 0.22106 0.80638 0.14159 0.0
C1318 C 0.19818 0.80336 0.14709 0.0
C1319 C 0.1822 0.79853 0.12292 0.0
C1320 C 0.18901 0.79695 0.09417 0.0
C1321 C 0.17355 0.82215 0.21371 0.0
C1322 C 0.18452 0.81737 0.2367 0.0
C1323 C 0.17724 0.81684 0.18453 0.0
C1324 C 0.19166 0.80626 0.17788 0.0
C1325 C 0.20118 0.79999 0.20122 0.0
C1326 C 0.198 0.8059 0.23031 0.0
H1327 H 0.19245 0.35943 0.09548 0.0
H1328 H 0.20676 0.4306 0.13438 0.0
H1329 H 0.17968 0.34263 0.14211 0.0
H1330 H 0.19227 0.41354 0.18067 0.0
H1331 H 0.19128 0.38141 0.2676 0.0
H1332 H 0.20017 0.40011 0.22164 0.0
H1333 H 0.15022 0.3289 0.17486 0.0
H1334 H 0.1432 0.31016 0.22075 0.0
C1335 C 0.19268 0.37143 0.11406 0.0
C1336 C 0.20081 0.39635 0.11138 0.0
C1337 C 0.18498 0.36173 0.14081 0.0
C1338 C 0.18451 0.37652 0.16544 0.0
C1339 C 0.19264 0.40153 0.16257 0.0
C1340 C 0.20095 0.41138 0.13596 0.0
C1341 C 0.18178 0.36998 0.2475 0.0
C1342 C 0.16665 0.34439 0.24757 0.0
C1343 C 0.18688 0.38065 0.221 0.0
C1344 C 0.17646 0.366 0.19409 0.0
C1345 C 0.15945 0.34071 0.1948 0.0
C1346 C 0.15498 0.32997 0.22116 0.0
H1347 H 0.81622 0.64945 0.9379 0.0
H1348 H 0.82929 0.59108 0.90538 0.0
H1349 H 0.82297 0.66441 0.88972 0.0
H1350 H 0.83544 0.60578 0.85673 0.0
H1351 H 0.85509 0.64905 0.7735 0.0
H1352 H 0.8587 0.63952 0.82364 0.0
H1353 H 0.79614 0.64493 0.84582 0.0
H1354 H 0.7927 0.65454 0.797 0.0
C1355 C 0.82082 0.63997 0.92056 0.0
C1356 C 0.82173 0.61878 0.92535 0.0
C1357 C 0.82464 0.64851 0.89291 0.0
C1358 C 0.8292 0.63594 0.86924 0.0
C1359 C 0.83195 0.61586 0.8745 0.0
C1360 C 0.8283 0.60738 0.90235 0.0
C1361 C 0.84222 0.64825 0.78921 0.0
C1362 C 0.82375 0.65277 0.78121 0.0
C1363 C 0.84427 0.64279 0.81784 0.0
C1364 C 0.82798 0.64195 0.83886 0.0
C1365 C 0.80943 0.64613 0.83053 0.0
C1366 C 0.80737 0.65147 0.80227 0.0
H1367 H 0.44004 0.20016 0.91146 0.0
H1368 H 0.38065 0.20279 0.95192 0.0
H1369 H 0.42212 0.19695 0.8631 0.0
H1370 H 0.36234 0.19878 0.90338 0.0
H1371 H 0.32561 0.14617 0.8153 0.0
H1372 H 0.34472 0.16198 0.86453 0.0
H1373 H 0.40868 0.21888 0.82854 0.0
H1374 H 0.3891 0.20313 0.77889 0.0
C1375 C 0.42359 0.20085 0.9101 0.0
C1376 C 0.41198 0.20212 0.93554 0.0
C1377 C 0.41327 0.19892 0.88236 0.0
C1378 C 0.39096 0.19784 0.87954 0.0
C1379 C 0.37958 0.19962 0.90497 0.0
C1380 C 0.39 0.20177 0.9327 0.0
C1381 C 0.34347 0.16252 0.81805 0.0
C1382 C 0.35595 0.17351 0.79354 0.0
C1383 C 0.35439 0.17161 0.84618 0.0
C1384 C 0.37821 0.19157 0.8503 0.0
C1385 C 0.39031 0.20341 0.82587 0.0
C1386 C 0.37911 0.19457 0.79761 0.0
H1387 H 0.81913 0.18399 0.91541 0.0
H1388 H 0.76293 0.1979 0.88834 0.0
H1389 H 0.82562 0.1763 0.864 0.0
H1390 H 0.76967 0.19054 0.83716 0.0
H1391 H 0.76829 0.14528 0.75259 0.0
H1392 H 0.76334 0.15521 0.80347 0.0
H1393 H 0.84091 0.19887 0.81907 0.0
H1394 H 0.84596 0.18863 0.76762 0.0
C1395 C 0.80808 0.18529 0.89854 0.0
C1396 C 0.7904 0.19141 0.90601 0.0
C1397 C 0.81201 0.18117 0.86911 0.0
C1398 C 0.79825 0.18294 0.84656 0.0
C1399 C 0.78044 0.18885 0.85405 0.0
C1400 C 0.77657 0.19304 0.8834 0.0
C1401 C 0.78436 0.15713 0.76674 0.0
C1402 C 0.80754 0.1661 0.7561 0.0
C1403 C 0.78149 0.16292 0.79591 0.0
C1404 C 0.80172 0.17777 0.8153 0.0
C1405 C 0.82498 0.18717 0.80464 0.0
C1406 C 0.82788 0.18152 0.7752 0.0
H1407 H 0.22382 0.10787 0.46319 0.0
H1408 H 0.29649 0.12848 0.44032 0.0
H1409 H 0.23615 0.1141 0.51495 0.0
H1410 H 0.30881 0.13489 0.49248 0.0
H1411 H 0.31657 0.12808 0.59157 0.0
H1412 H 0.30123 0.11295 0.54021 0.0
H1413 H 0.26404 0.15405 0.54562 0.0
H1414 H 0.27932 0.16913 0.59625 0.0
C1415 C 0.2424 0.11359 0.46916 0.0
C1416 C 0.25927 0.11806 0.44763 0.0
C1417 C 0.24942 0.11709 0.49882 0.0
C1418 C 0.27343 0.12509 0.50765 0.0
C1419 C 0.29012 0.12851 0.48619 0.0
C1420 C 0.28311 0.12507 0.4564 0.0
C1421 C 0.3048 0.13348 0.58178 0.0
C1422 C 0.29917 0.14982 0.59772 0.0
C1423 C 0.2962 0.12501 0.55246 0.0
C1424 C 0.28146 0.13235 0.53905 0.0
C1425 C 0.27516 0.1479 0.55548 0.0
C1426 C 0.28402 0.15664 0.58441 0.0
H1427 H 0.85984 0.0842 0.43348 0.0
H1428 H 0.87445 0.15675 0.41757 0.0
H1429 H 0.8428 0.08759 0.48 0.0
H1430 H 0.85731 0.16014 0.46382 0.0
H1431 H 0.81019 0.15505 0.53566 0.0
H1432 H 0.81942 0.14329 0.48756 0.0
H1433 H 0.85599 0.11103 0.52861 0.0
H1434 H 0.8462 0.1223 0.57677 0.0
C1435 C 0.85992 0.10108 0.44022 0.0
C1436 C 0.86914 0.12052 0.4223 0.0
C1437 C 0.84987 0.1029 0.4667 0.0
C1438 C 0.84863 0.12409 0.47564 0.0
C1439 C 0.85757 0.14335 0.45741 0.0
C1440 C 0.86758 0.14152 0.431 0.0
C1441 C 0.81967 0.14489 0.53437 0.0
C1442 C 0.82777 0.1399 0.55999 0.0
C1443 C 0.82516 0.13836 0.50683 0.0
C1444 C 0.839 0.12681 0.5043 0.0
C1445 C 0.84532 0.11994 0.52979 0.0
C1446 C 0.83968 0.12636 0.55741 0.0
H1447 H 0.82629 0.68919 0.42288 0.0
H1448 H 0.89176 0.75197 0.46388 0.0
H1449 H 0.81477 0.6733 0.47028 0.0
H1450 H 0.88042 0.73569 0.51132 0.0
H1451 H 0.84487 0.71091 0.59662 0.0
H1452 H 0.8511 0.72767 0.54917 0.0
H1453 H 0.82749 0.65513 0.50508 0.0
H1454 H 0.82082 0.63841 0.55213 0.0
C1455 C 0.83835 0.69953 0.44196 0.0
C1456 C 0.86005 0.72181 0.4395 0.0
C1457 C 0.83171 0.69039 0.46917 0.0
C1458 C 0.84661 0.70325 0.49464 0.0
C1459 C 0.86833 0.72553 0.49222 0.0
C1460 C 0.87497 0.73471 0.46496 0.0
C1461 C 0.84046 0.69847 0.57674 0.0
C1462 C 0.83251 0.67337 0.57813 0.0
C1463 C 0.84432 0.70812 0.54958 0.0
C1464 C 0.84013 0.69281 0.52334 0.0
C1465 C 0.83079 0.66745 0.52479 0.0
C1466 C 0.82703 0.65786 0.55183 0.0
loop_
_geom_bond_atom_site_label_1
_geom_bond_atom_site_label_2
_geom_bond_distance
_geom_bond_site_symmetry_2
_ccdc_geom_bond_type
O0 Cd1 2.300 . S
O0 C7 1.275 . S
Cd1 O0 2.300 . S
Cd1 O9 2.381 . S
Cd1 O10 2.378 . S
O2 Cd3 2.385 . S
O2 C7 1.255 . S
Cd3 O2 2.385 . S
Cd3 O4 2.317 . S
O4 Cd3 2.317 . S
O4 C5 1.232 . S
C5 O4 1.232 . S
C5 O6 1.218 . S
O6 C5 1.218 . S
C7 O0 1.275 . S
C7 O2 1.255 . S
C8 O9 1.258 . S
C8 O10 1.256 . S
O9 Cd1 2.381 . S
O9 C8 1.258 . S
O10 Cd1 2.378 . S
O10 C8 1.256 . S
O11 Cd12 2.300 . S
O11 C18 1.275 . S
Cd12 O11 2.300 . S
Cd12 O20 2.381 . S
Cd12 O21 2.378 . S
O13 Cd14 2.385 . S
O13 C18 1.255 . S
Cd14 O13 2.385 . S
Cd14 O15 2.317 . S
O15 Cd14 2.317 . S
O15 C16 1.232 . S
C16 O15 1.232 . S
C16 O17 1.218 . S
O17 C16 1.218 . S
C18 O11 1.275 . S
C18 O13 1.255 . S
C19 O20 1.258 . S
C19 O21 1.256 . S
O20 Cd12 2.381 . S
O20 C19 1.258 . S
O21 Cd12 2.378 . S
O21 C19 1.256 . S
O22 Cd23 2.300 . S
O22 C29 1.275 . S
Cd23 O22 2.300 . S
Cd23 O31 2.381 . S
Cd23 O32 2.378 . S
O24 Cd25 2.385 . S
O24 C29 1.255 . S
Cd25 O24 2.385 . S
Cd25 O26 2.317 . S
O26 Cd25 2.317 . S
O26 C27 1.232 . S
C27 O26 1.232 . S
C27 O28 1.218 . S
O28 C27 1.218 . S
C29 O22 1.275 . S
C29 O24 1.255 . S
C30 O31 1.258 . S
C30 O32 1.256 . S
O31 Cd23 2.381 . S
O31 C30 1.258 . S
O32 Cd23 2.378 . S
O32 C30 1.256 . S
O33 Cd34 2.300 . S
O33 C40 1.275 . S
Cd34 O33 2.300 . S
Cd34 O42 2.381 . S
Cd34 O43 2.378 . S
O35 Cd36 2.385 . S
O35 C40 1.255 . S
Cd36 O35 2.385 . S
Cd36 O37 2.317 . S
O37 Cd36 2.317 . S
O37 C38 1.232 . S
C38 O37 1.232 . S
C38 O39 1.218 . S
O39 C38 1.218 . S
C40 O33 1.275 . S
C40 O35 1.255 . S
C41 O42 1.258 . S
C41 O43 1.256 . S
O42 Cd34 2.381 . S
O42 C41 1.258 . S
O43 Cd34 2.378 . S
O43 C41 1.256 . S
O44 Cd45 2.300 . S
O44 C51 1.275 . S
Cd45 O44 2.300 . S
Cd45 O53 2.381 . S
Cd45 O54 2.378 . S
O46 Cd47 2.385 . S
O46 C51 1.255 . S
Cd47 O46 2.385 . S
Cd47 O48 2.317 . S
O48 Cd47 2.317 . S
O48 C49 1.232 . S
C49 O48 1.232 . S
C49 O50 1.218 . S
O50 C49 1.218 . S
C51 O44 1.275 . S
C51 O46 1.255 . S
C52 O53 1.258 . S
C52 O54 1.256 . S
O53 Cd45 2.381 . S
O53 C52 1.258 . S
O54 Cd45 2.378 . S
O54 C52 1.256 . S
O55 Cd56 2.300 . S
O55 C62 1.275 . S
Cd56 O55 2.300 . S
Cd56 O64 2.381 . S
Cd56 O65 2.378 . S
O57 Cd58 2.385 . S
O57 C62 1.255 . S
Cd58 O57 2.385 . S
Cd58 O59 2.317 . S
O59 Cd58 2.317 . S
O59 C60 1.232 . S
C60 O59 1.232 . S
C60 O61 1.218 . S
O61 C60 1.218 . S
C62 O55 1.275 . S
C62 O57 1.255 . S
C63 O64 1.258 . S
C63 O65 1.256 . S
O64 Cd56 2.381 . S
O64 C63 1.258 . S
O65 Cd56 2.378 . S
O65 C63 1.256 . S
O66 Cd67 2.300 . S
O66 C73 1.275 . S
Cd67 O66 2.300 . S
Cd67 O75 2.381 . S
Cd67 O76 2.378 . S
O68 Cd69 2.385 . S
O68 C73 1.255 . S
Cd69 O68 2.385 . S
Cd69 O70 2.317 . S
O70 Cd69 2.317 . S
O70 C71 1.232 . S
C71 O70 1.232 . S
C71 O72 1.218 . S
O72 C71 1.218 . S
C73 O66 1.275 . S
C73 O68 1.255 . S
C74 O75 1.258 . S
C74 O76 1.256 . S
O75 Cd67 2.381 . S
O75 C74 1.258 . S
O76 Cd67 2.378 . S
O76 C74 1.256 . S
O77 Cd78 2.300 . S
O77 C84 1.275 . S
Cd78 O77 2.300 . S
Cd78 O86 2.381 . S
Cd78 O87 2.378 . S
O79 Cd80 2.385 . S
O79 C84 1.255 . S
Cd80 O79 2.385 . S
Cd80 O81 2.317 . S
O81 Cd80 2.317 . S
O81 C82 1.232 . S
C82 O81 1.232 . S
C82 O83 1.218 . S
O83 C82 1.218 . S
C84 O77 1.275 . S
C84 O79 1.255 . S
C85 O86 1.258 . S
C85 O87 1.256 . S
O86 Cd78 2.381 . S
O86 C85 1.258 . S
O87 Cd78 2.378 . S
O87 C85 1.256 . S
O88 Cd89 2.300 . S
O88 C95 1.275 . S
Cd89 O88 2.300 . S
Cd89 O97 2.381 . S
Cd89 O98 2.378 . S
O90 Cd91 2.385 . S
O90 C95 1.255 . S
Cd91 O90 2.385 . S
Cd91 O92 2.317 . S
O92 Cd91 2.317 . S
O92 C93 1.232 . S
C93 O92 1.232 . S
C93 O94 1.218 . S
O94 C93 1.218 . S
C95 O88 1.275 . S
C95 O90 1.255 . S
C96 O97 1.258 . S
C96 O98 1.256 . S
O97 Cd89 2.381 . S
O97 C96 1.258 . S
O98 Cd89 2.378 . S
O98 C96 1.256 . S
O99 Cd100 2.300 1_556 S
O99 C106 1.275 . S
Cd100 O99 2.300 1_554 S
Cd100 O108 2.381 1_554 S
Cd100 O109 2.378 . S
O101 Cd102 2.385 1_556 S
O101 C106 1.255 . S
Cd102 O101 2.385 1_554 S
Cd102 O103 2.317 . S
O103 Cd102 2.317 . S
O103 C104 1.232 . S
C104 O103 1.232 . S
C104 O105 1.218 . S
O105 C104 1.218 . S
C106 O99 1.275 . S
C106 O101 1.255 . S
C107 O108 1.258 1_554 S
C107 O109 1.256 . S
O108 Cd100 2.381 1_556 S
O108 C107 1.258 1_556 S
O109 Cd100 2.378 . S
O109 C107 1.256 . S
O110 Cd111 2.300 . S
O110 C117 1.275 . S
Cd111 O110 2.300 . S
Cd111 O119 2.381 1_556 S
Cd111 O120 2.378 1_556 S
O112 Cd113 2.385 . S
O112 C117 1.255 . S
Cd113 O112 2.385 . S
Cd113 O114 2.317 1_556 S
O114 Cd113 2.317 1_554 S
O114 C115 1.232 . S
C115 O114 1.232 . S
C115 O116 1.218 1_554 S
O116 C115 1.218 1_556 S
C117 O110 1.275 . S
C117 O112 1.255 . S
C118 O119 1.258 . S
C118 O120 1.256 . S
O119 Cd111 2.381 1_554 S
O119 C118 1.258 . S
O120 Cd111 2.378 1_554 S
O120 C118 1.256 . S
O121 Cd122 2.300 . S
O121 C128 1.275 . S
Cd122 O121 2.300 . S
Cd122 O130 2.381 . S
Cd122 O131 2.378 1_556 S
O123 Cd124 2.385 1_556 S
O123 C128 1.255 . S
Cd124 O123 2.385 1_554 S
Cd124 O125 2.317 . S
O125 Cd124 2.317 . S
O125 C126 1.232 . S
C126 O125 1.232 . S
C126 O127 1.218 1_554 S
O127 C126 1.218 1_556 S
C128 O121 1.275 . S
C128 O123 1.255 . S
C129 O130 1.258 1_554 S
C129 O131 1.256 . S
O130 Cd122 2.381 . S
O130 C129 1.258 1_556 S
O131 Cd122 2.378 1_554 S
O131 C129 1.256 . S
O132 Cd133 2.300 . S
O132 C139 1.275 . S
Cd133 O132 2.300 . S
Cd133 O141 2.381 . S
Cd133 O142 2.378 1_554 S
O134 Cd135 2.385 . S
O134 C139 1.255 . S
Cd135 O134 2.385 . S
Cd135 O136 2.317 . S
O136 Cd135 2.317 . S
O136 C137 1.232 . S
C137 O136 1.232 . S
C137 O138 1.218 . S
O138 C137 1.218 . S
C139 O132 1.275 . S
C139 O134 1.255 . S
C140 O141 1.258 . S
C140 O142 1.256 1_554 S
O141 Cd133 2.381 . S
O141 C140 1.258 . S
O142 Cd133 2.378 1_556 S
O142 C140 1.256 1_556 S
O143 Cd144 2.300 . S
O143 C150 1.275 . S
Cd144 O143 2.300 . S
Cd144 O152 2.381 . S
Cd144 O153 2.378 . S
O145 Cd146 2.385 . S
O145 C150 1.255 . S
Cd146 O145 2.385 . S
Cd146 O147 2.317 . S
O147 Cd146 2.317 . S
O147 C148 1.232 . S
C148 O147 1.232 . S
C148 O149 1.218 . S
O149 C148 1.218 . S
C150 O143 1.275 . S
C150 O145 1.255 . S
C151 O152 1.258 . S
C151 O153 1.256 . S
O152 Cd144 2.381 . S
O152 C151 1.258 . S
O153 Cd144 2.378 . S
O153 C151 1.256 . S
O154 Cd155 2.300 . S
O154 C161 1.275 . S
Cd155 O154 2.300 . S
Cd155 O163 2.381 . S
Cd155 O164 2.378 1_554 S
O156 Cd157 2.385 . S
O156 C161 1.255 . S
Cd157 O156 2.385 . S
Cd157 O158 2.317 . S
O158 Cd157 2.317 . S
O158 C159 1.232 . S
C159 O158 1.232 . S
C159 O160 1.218 . S
O160 C159 1.218 . S
C161 O154 1.275 . S
C161 O156 1.255 . S
C162 O163 1.258 . S
C162 O164 1.256 1_554 S
O163 Cd155 2.381 . S
O163 C162 1.258 . S
O164 Cd155 2.378 1_556 S
O164 C162 1.256 1_556 S
O165 Cd166 2.300 . S
O165 C172 1.275 . S
Cd166 O165 2.300 . S
Cd166 O174 2.381 . S
Cd166 O175 2.378 . S
O167 Cd168 2.385 . S
O167 C172 1.255 . S
Cd168 O167 2.385 . S
Cd168 O169 2.317 . S
O169 Cd168 2.317 . S
O169 C170 1.232 . S
C170 O169 1.232 . S
C170 O171 1.218 . S
O171 C170 1.218 . S
C172 O165 1.275 . S
C172 O167 1.255 . S
C173 O174 1.258 . S
C173 O175 1.256 . S
O174 Cd166 2.381 . S
O174 C173 1.258 . S
O175 Cd166 2.378 . S
O175 C173 1.256 . S
O176 Cd177 2.300 . S
O176 C183 1.275 . S
Cd177 O176 2.300 . S
Cd177 O185 2.381 . S
Cd177 O186 2.378 . S
O178 Cd179 2.385 . S
O178 C183 1.255 . S
Cd179 O178 2.385 . S
Cd179 O180 2.317 . S
O180 Cd179 2.317 . S
O180 C181 1.232 . S
C181 O180 1.232 . S
C181 O182 1.218 . S
O182 C181 1.218 . S
C183 O176 1.275 . S
C183 O178 1.255 . S
C184 O185 1.258 . S
C184 O186 1.256 . S
O185 Cd177 2.381 . S
O185 C184 1.258 . S
O186 Cd177 2.378 . S
O186 C184 1.256 . S
O187 Cd188 2.300 . S
O187 C194 1.275 . S
Cd188 O187 2.300 . S
Cd188 O196 2.381 . S
Cd188 O197 2.378 . S
O189 Cd190 2.385 . S
O189 C194 1.255 . S
Cd190 O189 2.385 . S
Cd190 O191 2.317 . S
O191 Cd190 2.317 . S
O191 C192 1.232 . S
C192 O191 1.232 . S
C192 O193 1.218 . S
O193 C192 1.218 . S
C194 O187 1.275 . S
C194 O189 1.255 . S
C195 O196 1.258 . S
C195 O197 1.256 . S
O196 Cd188 2.381 . S
O196 C195 1.258 . S
O197 Cd188 2.378 . S
O197 C195 1.256 . S
O198 Mg199 1.999 . S
O198 C212 1.239 1_565 S
Mg199 O198 1.999 . S
Mg199 O202 2.180 1_556 S
Mg199 O203 2.117 . S
Mg199 O217 2.030 1_565 S
O200 Mg201 2.072 1_556 S
O200 C212 1.260 . S
Mg201 O200 2.072 1_554 S
Mg201 O202 2.099 1_545 S
Mg201 O204 2.079 . S
Mg201 O205 2.072 1_545 S
Mg201 O207 2.099 . S
Mg201 O218 2.079 . S
O202 Mg199 2.180 1_554 S
O202 Mg201 2.099 1_565 S
O202 C213 1.279 1_554 S
O203 Mg199 2.117 . S
O203 C213 1.250 . S
O204 Mg201 2.079 . S
O204 C214 1.264 1_545 S
O205 Mg201 2.072 1_565 S
O205 C215 1.260 . S
Mg206 O207 2.180 . S
Mg206 O208 2.030 1_545 S
Mg206 O209 1.990 1_545 S
Mg206 O210 2.117 . S
O207 Mg201 2.099 . S
O207 Mg206 2.180 . S
O207 C216 1.279 . S
O208 Mg206 2.030 1_565 S
O208 C214 1.248 . S
O209 Mg206 1.990 1_565 S
O209 C215 1.253 . S
O210 Mg206 2.117 . S
O210 C216 1.250 . S
C211 O217 1.248 1_554 S
C211 O218 1.264 . S
C212 O198 1.239 1_545 S
C212 O200 1.260 . S
C213 O202 1.279 1_556 S
C213 O203 1.250 . S
C214 O204 1.264 1_565 S
C214 O208 1.248 . S
C215 O205 1.260 . S
C215 O209 1.253 . S
C216 O207 1.279 . S
C216 O210 1.250 . S
O217 Mg199 2.030 1_545 S
O217 C211 1.248 1_556 S
O218 Mg201 2.079 . S
O218 C211 1.264 . S
O219 Mg220 1.990 . S
O219 C233 1.253 1_455 S
Mg220 O219 1.990 . S
Mg220 O223 2.180 1_556 S
Mg220 O224 2.117 . S
Mg220 O238 2.030 1_455 S
O221 Mg222 2.072 1_656 S
O221 C233 1.260 . S
Mg222 O221 2.072 1_454 S
Mg222 O223 2.099 . S
Mg222 O225 2.079 . S
Mg222 O226 2.072 . S
Mg222 O228 2.099 1_455 S
Mg222 O239 2.079 1_455 S
O223 Mg220 2.180 1_554 S
O223 Mg222 2.099 . S
O223 C234 1.279 . S
O224 Mg220 2.117 . S
O224 C234 1.250 1_556 S
O225 Mg222 2.079 . S
O225 C235 1.264 . S
O226 Mg222 2.072 . S
O226 C236 1.260 . S
Mg227 O228 2.172 1_455 S
Mg227 O229 2.031 . S
Mg227 O230 1.998 . S
Mg227 O231 2.112 1_455 S
O228 Mg222 2.099 1_655 S
O228 Mg227 2.172 1_655 S
O228 C237 1.279 . S
O229 Mg227 2.031 . S
O229 C235 1.248 . S
O230 Mg227 1.998 . S
O230 C236 1.253 . S
O231 Mg227 2.112 1_655 S
O231 C237 1.250 . S
C232 O238 1.248 1_554 S
C232 O239 1.264 . S
C233 O219 1.253 1_655 S
C233 O221 1.260 . S
C234 O223 1.279 . S
C234 O224 1.250 1_554 S
C235 O225 1.264 . S
C235 O229 1.248 . S
C236 O226 1.260 . S
C236 O230 1.253 . S
C237 O228 1.279 . S
C237 O231 1.250 . S
O238 Mg220 2.030 1_655 S
O238 C232 1.248 1_556 S
O239 Mg222 2.079 1_655 S
O239 C232 1.264 . S
O240 Mg241 1.990 . S
O240 C254 1.253 . S
Mg241 O240 1.990 . S
Mg241 O244 2.180 . S
Mg241 O245 2.117 . S
Mg241 O259 2.030 . S
O242 Mg243 2.061 1_554 S
O242 C254 1.260 . S
Mg243 O242 2.061 1_556 S
Mg243 O244 2.095 1_556 S
Mg243 O246 2.091 . S
Mg243 O247 2.071 1_556 S
Mg243 O249 2.103 . S
Mg243 O260 2.080 . S
O244 Mg241 2.180 . S
O244 Mg243 2.095 1_554 S
O244 C255 1.279 . S
O245 Mg241 2.117 . S
O245 C255 1.250 . S
O246 Mg243 2.091 . S
O246 C256 1.264 . S
O247 Mg243 2.071 1_554 S
O247 C257 1.260 . S
Mg248 O249 2.180 . S
Mg248 O250 2.030 . S
Mg248 O251 1.990 . S
Mg248 O252 2.117 . S
O249 Mg243 2.103 . S
O249 Mg248 2.180 . S
O249 C258 1.270 1_556 S
O250 Mg248 2.030 . S
O250 C256 1.248 . S
O251 Mg248 1.990 . S
O251 C257 1.253 1_556 S
O252 Mg248 2.117 . S
O252 C258 1.242 1_556 S
C253 O259 1.248 . S
C253 O260 1.264 1_554 S
C254 O240 1.253 . S
C254 O242 1.260 . S
C255 O244 1.279 . S
C255 O245 1.250 . S
C256 O246 1.264 . S
C256 O250 1.248 . S
C257 O247 1.260 . S
C257 O251 1.253 1_554 S
C258 O249 1.270 1_554 S
C258 O252 1.242 1_554 S
O259 Mg241 2.030 . S
O259 C253 1.248 . S
O260 Mg243 2.080 . S
O260 C253 1.264 1_556 S
O261 Mg262 1.990 . S
O261 C275 1.253 . S
Mg262 O261 1.990 . S
Mg262 O265 2.180 . S
Mg262 O266 2.117 . S
Mg262 O280 2.030 . S
O263 Mg264 2.072 . S
O263 C275 1.260 . S
Mg264 O263 2.072 . S
Mg264 O265 2.099 . S
Mg264 O267 2.079 . S
Mg264 O268 2.072 . S
Mg264 O270 2.099 . S
Mg264 O281 2.079 . S
O265 Mg262 2.180 . S
O265 Mg264 2.099 . S
O265 C276 1.279 . S
O266 Mg262 2.117 . S
O266 C276 1.250 . S
O267 Mg264 2.079 . S
O267 C277 1.264 . S
O268 Mg264 2.072 . S
O268 C278 1.260 . S
Mg269 O270 2.180 . S
Mg269 O271 2.030 . S
Mg269 O272 1.990 . S
Mg269 O273 2.117 . S
O270 Mg264 2.099 . S
O270 Mg269 2.180 . S
O270 C279 1.279 . S
O271 Mg269 2.030 . S
O271 C277 1.248 . S
O272 Mg269 1.990 . S
O272 C278 1.253 . S
O273 Mg269 2.117 . S
O273 C279 1.250 . S
C274 O280 1.248 . S
C274 O281 1.264 . S
C275 O261 1.253 . S
C275 O263 1.260 . S
C276 O265 1.279 . S
C276 O266 1.250 . S
C277 O267 1.264 . S
C277 O271 1.248 . S
C278 O268 1.260 . S
C278 O272 1.253 . S
C279 O270 1.279 . S
C279 O273 1.250 . S
O280 Mg262 2.030 . S
O280 C274 1.248 . S
O281 Mg264 2.079 . S
O281 C274 1.264 . S
O282 Mg283 1.990 . S
O282 C296 1.253 . S
Mg283 O282 1.990 . S
Mg283 O286 2.180 . S
Mg283 O287 2.117 . S
Mg283 O301 2.030 . S
O284 Mg285 2.072 . S
O284 C296 1.260 . S
Mg285 O284 2.072 . S
Mg285 O286 2.099 . S
Mg285 O288 2.079 . S
Mg285 O289 2.072 . S
Mg285 O291 2.099 . S
Mg285 O302 2.079 . S
O286 Mg283 2.180 . S
O286 Mg285 2.099 . S
O286 C297 1.279 . S
O287 Mg283 2.117 . S
O287 C297 1.250 . S
O288 Mg285 2.079 . S
O288 C298 1.264 . S
O289 Mg285 2.072 . S
O289 C299 1.260 . S
Mg290 O291 2.180 . S
Mg290 O292 2.030 . S
Mg290 O293 1.990 . S
Mg290 O294 2.117 . S
O291 Mg285 2.099 . S
O291 Mg290 2.180 . S
O291 C300 1.279 . S
O292 Mg290 2.030 . S
O292 C298 1.248 . S
O293 Mg290 1.990 . S
O293 C299 1.253 . S
O294 Mg290 2.117 . S
O294 C300 1.250 . S
C295 O301 1.248 . S
C295 O302 1.264 . S
C296 O282 1.253 . S
C296 O284 1.260 . S
C297 O286 1.279 . S
C297 O287 1.250 . S
C298 O288 1.264 . S
C298 O292 1.248 . S
C299 O289 1.260 . S
C299 O293 1.253 . S
C300 O291 1.279 . S
C300 O294 1.250 . S
O301 Mg283 2.030 . S
O301 C295 1.248 . S
O302 Mg285 2.079 . S
O302 C295 1.264 . S
O303 Mg304 1.990 . S
O303 C317 1.253 . S
Mg304 O303 1.990 . S
Mg304 O307 2.180 . S
Mg304 O308 2.117 . S
Mg304 O322 2.030 . S
O305 Mg306 2.072 . S
O305 C317 1.260 . S
Mg306 O305 2.072 . S
Mg306 O307 2.099 . S
Mg306 O309 2.079 . S
Mg306 O310 2.072 . S
Mg306 O312 2.099 . S
Mg306 O323 2.079 . S
O307 Mg304 2.180 . S
O307 Mg306 2.099 . S
O307 C318 1.279 . S
O308 Mg304 2.117 . S
O308 C318 1.250 . S
O309 Mg306 2.079 . S
O309 C319 1.264 . S
O310 Mg306 2.072 . S
O310 C320 1.260 . S
Mg311 O312 2.180 . S
Mg311 O313 2.030 . S
Mg311 O314 1.990 . S
Mg311 O315 2.117 . S
O312 Mg306 2.099 . S
O312 Mg311 2.180 . S
O312 C321 1.279 . S
O313 Mg311 2.030 . S
O313 C319 1.248 . S
O314 Mg311 1.990 . S
O314 C320 1.253 . S
O315 Mg311 2.117 . S
O315 C321 1.250 . S
C316 O322 1.248 . S
C316 O323 1.264 . S
C317 O303 1.253 . S
C317 O305 1.260 . S
C318 O307 1.279 . S
C318 O308 1.250 . S
C319 O309 1.264 . S
C319 O313 1.248 . S
C320 O310 1.260 . S
C320 O314 1.253 . S
C321 O312 1.279 . S
C321 O315 1.250 . S
O322 Mg304 2.030 . S
O322 C316 1.248 . S
O323 Mg306 2.079 . S
O323 C316 1.264 . S
O324 Mg325 1.990 . S
O324 C338 1.253 . S
Mg325 O324 1.990 . S
Mg325 O328 2.180 . S
Mg325 O329 2.117 . S
Mg325 O343 2.030 . S
O326 Mg327 2.072 . S
O326 C338 1.260 . S
Mg327 O326 2.072 . S
Mg327 O328 2.099 . S
Mg327 O330 2.079 . S
Mg327 O331 2.072 . S
Mg327 O333 2.099 . S
Mg327 O344 2.079 . S
O328 Mg325 2.180 . S
O328 Mg327 2.099 . S
O328 C339 1.279 . S
O329 Mg325 2.117 . S
O329 C339 1.250 . S
O330 Mg327 2.079 . S
O330 C340 1.264 . S
O331 Mg327 2.072 . S
O331 C341 1.260 . S
Mg332 O333 2.180 . S
Mg332 O334 2.030 . S
Mg332 O335 1.990 . S
Mg332 O336 2.117 . S
O333 Mg327 2.099 . S
O333 Mg332 2.180 . S
O333 C342 1.279 . S
O334 Mg332 2.030 . S
O334 C340 1.248 . S
O335 Mg332 1.990 . S
O335 C341 1.253 . S
O336 Mg332 2.117 . S
O336 C342 1.250 . S
C337 O343 1.248 . S
C337 O344 1.264 . S
C338 O324 1.253 . S
C338 O326 1.260 . S
C339 O328 1.279 . S
C339 O329 1.250 . S
C340 O330 1.264 . S
C340 O334 1.248 . S
C341 O331 1.260 . S
C341 O335 1.253 . S
C342 O333 1.279 . S
C342 O336 1.250 . S
O343 Mg325 2.030 . S
O343 C337 1.248 . S
O344 Mg327 2.079 . S
O344 C337 1.264 . S
O345 Mg346 1.990 . S
O345 C359 1.253 . S
Mg346 O345 1.990 . S
Mg346 O349 2.180 . S
Mg346 O350 2.117 . S
Mg346 O364 2.030 . S
O347 Mg348 2.072 . S
O347 C359 1.260 . S
Mg348 O347 2.072 . S
Mg348 O349 2.099 . S
Mg348 O351 2.079 . S
Mg348 O352 2.072 . S
Mg348 O354 2.099 . S
Mg348 O365 2.079 . S
O349 Mg346 2.180 . S
O349 Mg348 2.099 . S
O349 C360 1.279 . S
O350 Mg346 2.117 . S
O350 C360 1.250 . S
O351 Mg348 2.079 . S
O351 C361 1.264 . S
O352 Mg348 2.072 . S
O352 C362 1.260 . S
Mg353 O354 2.180 . S
Mg353 O355 2.030 . S
Mg353 O356 1.990 . S
Mg353 O357 2.117 . S
O354 Mg348 2.099 . S
O354 Mg353 2.180 . S
O354 C363 1.279 . S
O355 Mg353 2.030 . S
O355 C361 1.248 . S
O356 Mg353 1.990 . S
O356 C362 1.253 . S
O357 Mg353 2.117 . S
O357 C363 1.250 . S
C358 O364 1.248 . S
C358 O365 1.264 . S
C359 O345 1.253 . S
C359 O347 1.260 . S
C360 O349 1.279 . S
C360 O350 1.250 . S
C361 O351 1.264 . S
C361 O355 1.248 . S
C362 O352 1.260 . S
C362 O356 1.253 . S
C363 O354 1.279 . S
C363 O357 1.250 . S
O364 Mg346 2.030 . S
O364 C358 1.248 . S
O365 Mg348 2.079 . S
O365 C358 1.264 . S
O366 Mg367 1.990 . S
O366 C380 1.253 . S
Mg367 O366 1.990 . S
Mg367 O370 2.180 . S
Mg367 O371 2.117 . S
Mg367 O385 2.030 . S
O368 Mg369 2.072 . S
O368 C380 1.260 . S
Mg369 O368 2.072 . S
Mg369 O370 2.099 . S
Mg369 O372 2.079 . S
Mg369 O373 2.072 . S
Mg369 O375 2.099 . S
Mg369 O386 2.079 . S
O370 Mg367 2.180 . S
O370 Mg369 2.099 . S
O370 C381 1.279 . S
O371 Mg367 2.117 . S
O371 C381 1.250 . S
O372 Mg369 2.079 . S
O372 C382 1.264 . S
O373 Mg369 2.072 . S
O373 C383 1.260 . S
Mg374 O375 2.180 . S
Mg374 O376 2.030 . S
Mg374 O377 1.990 . S
Mg374 O378 2.117 . S
O375 Mg369 2.099 . S
O375 Mg374 2.180 . S
O375 C384 1.279 . S
O376 Mg374 2.030 . S
O376 C382 1.248 . S
O377 Mg374 1.990 . S
O377 C383 1.253 . S
O378 Mg374 2.117 . S
O378 C384 1.250 . S
C379 O385 1.248 . S
C379 O386 1.264 . S
C380 O366 1.253 . S
C380 O368 1.260 . S
C381 O370 1.279 . S
C381 O371 1.250 . S
C382 O372 1.264 . S
C382 O376 1.248 . S
C383 O373 1.260 . S
C383 O377 1.253 . S
C384 O375 1.279 . S
C384 O378 1.250 . S
O385 Mg367 2.030 . S
O385 C379 1.248 . S
O386 Mg369 2.079 . S
O386 C379 1.264 . S
H387 C395 0.950 . S
H388 C400 0.950 . S
H389 C397 0.950 . S
H390 C399 0.950 . S
H391 C401 0.950 . S
H392 C403 0.950 . S
H393 C405 0.950 . S
H394 C406 0.950 . S
C395 H387 0.950 . S
C395 C396 1.386 . S
C395 C397 1.391 . S
C396 C395 1.386 . S
C396 C400 1.393 1_556 S
C397 H389 0.950 . S
C397 C395 1.391 . S
C397 C398 1.400 1_556 S
C398 C397 1.400 1_554 S
C398 C399 1.398 . S
C398 C404 1.491 . S
C399 H390 0.950 . S
C399 C398 1.398 . S
C399 C400 1.391 . S
C400 H388 0.950 . S
C400 C396 1.393 1_554 S
C400 C399 1.391 . S
C401 H391 0.950 . S
C401 C402 1.386 . S
C401 C403 1.391 . S
C402 C401 1.386 . S
C402 C406 1.393 1_554 S
C403 H392 0.950 . S
C403 C401 1.391 . S
C403 C404 1.400 . S
C404 C398 1.491 . S
C404 C403 1.400 . S
C404 C405 1.398 1_554 S
C405 H393 0.950 . S
C405 C404 1.398 1_556 S
C405 C406 1.391 . S
C406 H394 0.950 . S
C406 C402 1.393 1_556 S
C406 C405 1.391 . S
H407 C415 0.950 . S
H408 C420 0.950 . S
H409 C417 0.950 . S
H410 C419 0.950 . S
H411 C421 0.950 . S
H412 C423 0.950 . S
H413 C425 0.950 . S
H414 C426 0.950 . S
C415 H407 0.950 . S
C415 C416 1.386 . S
C415 C417 1.391 . S
C416 C415 1.386 . S
C416 C420 1.393 . S
C417 H409 0.950 . S
C417 C415 1.391 . S
C417 C418 1.400 . S
C418 C417 1.400 . S
C418 C419 1.398 . S
C418 C424 1.491 . S
C419 H410 0.950 . S
C419 C418 1.398 . S
C419 C420 1.391 . S
C420 H408 0.950 . S
C420 C416 1.393 . S
C420 C419 1.391 . S
C421 H411 0.950 . S
C421 C422 1.386 . S
C421 C423 1.391 . S
C422 C421 1.386 . S
C422 C426 1.393 . S
C423 H412 0.950 . S
C423 C421 1.391 . S
C423 C424 1.400 . S
C424 C418 1.491 . S
C424 C423 1.400 . S
C424 C425 1.398 . S
C425 H413 0.950 . S
C425 C424 1.398 . S
C425 C426 1.391 . S
C426 H414 0.950 . S
C426 C422 1.393 . S
C426 C425 1.391 . S
H427 C435 0.950 . S
H428 C440 0.950 . S
H429 C437 0.950 . S
H430 C439 0.950 . S
H431 C441 0.950 . S
H432 C443 0.950 . S
H433 C445 0.950 . S
H434 C446 0.950 . S
C435 H427 0.950 . S
C435 C436 1.386 . S
C435 C437 1.391 . S
C436 C435 1.386 . S
C436 C440 1.393 . S
C437 H429 0.950 . S
C437 C435 1.391 . S
C437 C438 1.400 . S
C438 C437 1.400 . S
C438 C439 1.398 . S
C438 C444 1.491 . S
C439 H430 0.950 . S
C439 C438 1.398 . S
C439 C440 1.391 . S
C440 H428 0.950 . S
C440 C436 1.393 . S
C440 C439 1.391 . S
C441 H431 0.950 . S
C441 C442 1.386 . S
C441 C443 1.391 . S
C442 C441 1.386 . S
C442 C446 1.393 . S
C443 H432 0.950 . S
C443 C441 1.391 . S
C443 C444 1.400 . S
C444 C438 1.491 . S
C444 C443 1.400 . S
C444 C445 1.398 . S
C445 H433 0.950 . S
C445 C444 1.398 . S
C445 C446 1.391 . S
C446 H434 0.950 . S
C446 C442 1.393 . S
C446 C445 1.391 . S
H447 C455 0.950 . S
H448 C460 0.950 . S
H449 C457 0.950 . S
H450 C459 0.950 . S
H451 C461 0.950 . S
H452 C463 0.950 . S
H453 C465 0.950 . S
H454 C466 0.950 . S
C455 H447 0.950 . S
C455 C456 1.386 1_556 S
C455 C457 1.391 . S
C456 C455 1.386 1_554 S
C456 C460 1.393 . S
C457 H449 0.950 . S
C457 C455 1.391 . S
C457 C458 1.400 1_556 S
C458 C457 1.400 1_554 S
C458 C459 1.398 . S
C458 C464 1.491 . S
C459 H450 0.950 . S
C459 C458 1.398 . S
C459 C460 1.391 . S
C460 H448 0.950 . S
C460 C456 1.393 . S
C460 C459 1.391 . S
C461 H451 0.950 . S
C461 C462 1.386 . S
C461 C463 1.391 . S
C462 C461 1.386 . S
C462 C466 1.393 1_554 S
C463 H452 0.950 . S
C463 C461 1.391 . S
C463 C464 1.400 . S
C464 C458 1.491 . S
C464 C463 1.400 . S
C464 C465 1.398 1_554 S
C465 H453 0.950 . S
C465 C464 1.398 1_556 S
C465 C466 1.391 . S
C466 H454 0.950 . S
C466 C462 1.393 1_556 S
C466 C465 1.391 . S
H467 C475 0.950 . S
H468 C480 0.950 . S
H469 C477 0.950 . S
H470 C479 0.950 . S
H471 C481 0.950 . S
H472 C483 0.950 . S
H473 C485 0.950 . S
H474 C486 0.950 . S
C475 H467 0.950 . S
C475 C476 1.386 . S
C475 C477 1.391 . S
C476 C475 1.386 . S
C476 C480 1.393 1_554 S
C477 H469 0.950 . S
C477 C475 1.391 . S
C477 C478 1.400 . S
C478 C477 1.400 . S
C478 C479 1.398 1_554 S
C478 C484 1.491 . S
C479 H470 0.950 . S
C479 C478 1.398 1_556 S
C479 C480 1.391 . S
C480 H468 0.950 . S
C480 C476 1.393 1_556 S
C480 C479 1.391 . S
C481 H471 0.950 . S
C481 C482 1.386 1_556 S
C481 C483 1.391 . S
C482 C481 1.386 1_554 S
C482 C486 1.393 . S
C483 H472 0.950 . S
C483 C481 1.391 . S
C483 C484 1.400 1_556 S
C484 C478 1.491 . S
C484 C483 1.400 1_554 S
C484 C485 1.398 . S
C485 H473 0.950 . S
C485 C484 1.398 . S
C485 C486 1.391 . S
C486 H474 0.950 . S
C486 C482 1.393 . S
C486 C485 1.391 . S
H487 C495 0.950 . S
H488 C500 0.950 1_556 S
H489 C497 0.950 . S
H490 C499 0.950 . S
H491 C501 0.950 . S
H492 C503 0.950 . S
H493 C505 0.950 . S
H494 C506 0.950 . S
C495 H487 0.950 . S
C495 C496 1.386 . S
C495 C497 1.391 . S
C496 C495 1.386 . S
C496 C500 1.393 . S
C497 H489 0.950 . S
C497 C495 1.391 . S
C497 C498 1.400 . S
C498 C497 1.400 . S
C498 C499 1.398 1_554 S
C498 C504 1.491 . S
C499 H490 0.950 . S
C499 C498 1.398 1_556 S
C499 C500 1.391 1_556 S
C500 H488 0.950 1_554 S
C500 C496 1.393 . S
C500 C499 1.391 1_554 S
C501 H491 0.950 . S
C501 C502 1.386 1_556 S
C501 C503 1.391 . S
C502 C501 1.386 1_554 S
C502 C506 1.393 . S
C503 H492 0.950 . S
C503 C501 1.391 . S
C503 C504 1.400 1_556 S
C504 C498 1.491 . S
C504 C503 1.400 1_554 S
C504 C505 1.398 . S
C505 H493 0.950 . S
C505 C504 1.398 . S
C505 C506 1.391 . S
C506 H494 0.950 . S
C506 C502 1.393 . S
C506 C505 1.391 . S
H507 C515 0.950 . S
H508 C520 0.950 . S
H509 C517 0.950 . S
H510 C519 0.950 . S
H511 C521 0.950 . S
H512 C523 0.950 . S
H513 C525 0.950 . S
H514 C526 0.950 . S
C515 H507 0.950 . S
C515 C516 1.386 1_556 S
C515 C517 1.391 . S
C516 C515 1.386 1_554 S
C516 C520 1.393 . S
C517 H509 0.950 . S
C517 C515 1.391 . S
C517 C518 1.400 1_556 S
C518 C517 1.400 1_554 S
C518 C519 1.398 . S
C518 C524 1.491 . S
C519 H510 0.950 . S
C519 C518 1.398 . S
C519 C520 1.391 . S
C520 H508 0.950 . S
C520 C516 1.393 . S
C520 C519 1.391 . S
C521 H511 0.950 . S
C521 C522 1.386 . S
C521 C523 1.391 . S
C522 C521 1.386 . S
C522 C526 1.393 1_554 S
C523 H512 0.950 . S
C523 C521 1.391 . S
C523 C524 1.400 . S
C524 C518 1.491 . S
C524 C523 1.400 . S
C524 C525 1.398 1_554 S
C525 H513 0.950 . S
C525 C524 1.398 1_556 S
C525 C526 1.391 . S
C526 H514 0.950 . S
C526 C522 1.393 1_556 S
C526 C525 1.391 . S
H527 C535 0.950 . S
H528 C540 0.950 . S
H529 C537 0.950 . S
H530 C539 0.950 . S
H531 C541 0.950 . S
H532 C543 0.950 . S
H533 C545 0.950 . S
H534 C546 0.950 . S
C535 H527 0.950 . S
C535 C536 1.386 . S
C535 C537 1.391 . S
C536 C535 1.386 . S
C536 C540 1.393 . S
C537 H529 0.950 . S
C537 C535 1.391 . S
C537 C538 1.400 . S
C538 C537 1.400 . S
C538 C539 1.398 . S
C538 C544 1.491 . S
C539 H530 0.950 . S
C539 C538 1.398 . S
C539 C540 1.391 . S
C540 H528 0.950 . S
C540 C536 1.393 . S
C540 C539 1.391 . S
C541 H531 0.950 . S
C541 C542 1.386 . S
C541 C543 1.391 . S
C542 C541 1.386 . S
C542 C546 1.393 . S
C543 H532 0.950 . S
C543 C541 1.391 . S
C543 C544 1.400 . S
C544 C538 1.491 . S
C544 C543 1.400 . S
C544 C545 1.398 . S
C545 H533 0.950 . S
C545 C544 1.398 . S
C545 C546 1.391 . S
C546 H534 0.950 . S
C546 C542 1.393 . S
C546 C545 1.391 . S
H547 C555 0.950 . S
H548 C560 0.950 . S
H549 C557 0.950 . S
H550 C559 0.953 . S
H551 C561 0.950 1_556 S
H552 C563 0.954 . S
H553 C565 0.950 . S
H554 C566 0.950 . S
C555 H547 0.950 . S
C555 C556 1.386 . S
C555 C557 1.391 . S
C556 C555 1.386 . S
C556 C560 1.393 . S
C557 H549 0.950 . S
C557 C555 1.391 . S
C557 C558 1.400 . S
C558 C557 1.400 . S
C558 C559 1.398 . S
C558 C564 1.491 . S
C559 H550 0.953 . S
C559 C558 1.398 . S
C559 C560 1.391 . S
C560 H548 0.950 . S
C560 C556 1.393 . S
C560 C559 1.391 . S
C561 H551 0.950 1_554 S
C561 C562 1.386 . S
C561 C563 1.391 . S
C562 C561 1.386 . S
C562 C566 1.393 . S
C563 H552 0.954 . S
C563 C561 1.391 . S
C563 C564 1.400 . S
C564 C558 1.491 . S
C564 C563 1.400 . S
C564 C565 1.398 . S
C565 H553 0.950 . S
C565 C564 1.398 . S
C565 C566 1.391 . S
C566 H554 0.950 . S
C566 C562 1.393 . S
C566 C565 1.391 . S
H567 C575 0.950 . S
H568 C580 0.950 . S
H569 C577 0.950 . S
H570 C579 0.950 . S
H571 C581 0.950 . S
H572 C583 0.950 . S
H573 C585 0.950 . S
H574 C586 0.950 . S
C575 H567 0.950 . S
C575 C576 1.386 . S
C575 C577 1.391 . S
C576 C575 1.386 . S
C576 C580 1.393 1_554 S
C577 H569 0.950 . S
C577 C575 1.391 . S
C577 C578 1.400 . S
C578 C577 1.400 . S
C578 C579 1.398 1_554 S
C578 C584 1.491 . S
C579 H570 0.950 . S
C579 C578 1.398 1_556 S
C579 C580 1.391 . S
C580 H568 0.950 . S
C580 C576 1.393 1_556 S
C580 C579 1.391 . S
C581 H571 0.950 . S
C581 C582 1.386 1_556 S
C581 C583 1.391 . S
C582 C581 1.386 1_554 S
C582 C586 1.393 . S
C583 H572 0.950 . S
C583 C581 1.391 . S
C583 C584 1.400 1_556 S
C584 C578 1.491 . S
C584 C583 1.400 1_554 S
C584 C585 1.398 . S
C585 H573 0.950 . S
C585 C584 1.398 . S
C585 C586 1.391 . S
C586 H574 0.950 . S
C586 C582 1.393 . S
C586 C585 1.391 . S
H587 C595 0.950 . S
H588 C600 0.950 . S
H589 C597 0.950 . S
H590 C599 0.950 . S
H591 C601 0.950 . S
H592 C603 0.950 . S
H593 C605 0.950 . S
H594 C606 0.950 . S
C595 H587 0.950 . S
C595 C596 1.408 . S
C595 C597 1.391 . S
C596 C595 1.408 . S
C596 C600 1.369 1_554 S
C597 H589 0.950 . S
C597 C595 1.391 . S
C597 C598 1.430 . S
C598 C597 1.430 . S
C598 C599 1.370 1_554 S
C598 C604 1.490 . S
C599 H590 0.950 . S
C599 C598 1.370 1_556 S
C599 C600 1.391 . S
C600 H588 0.950 . S
C600 C596 1.369 1_556 S
C600 C599 1.391 . S
C601 H591 0.950 . S
C601 C602 1.386 1_556 S
C601 C603 1.391 . S
C602 C601 1.386 1_554 S
C602 C606 1.393 . S
C603 H592 0.950 . S
C603 C601 1.391 . S
C603 C604 1.400 1_556 S
C604 C598 1.490 . S
C604 C603 1.400 1_554 S
C604 C605 1.398 . S
C605 H593 0.950 . S
C605 C604 1.398 . S
C605 C606 1.391 . S
C606 H594 0.950 . S
C606 C602 1.393 . S
C606 C605 1.391 . S
H607 C615 0.950 . S
H608 C620 0.950 . S
H609 C617 0.950 . S
H610 C619 0.950 . S
H611 C621 0.950 . S
H612 C623 0.950 . S
H613 C625 0.950 . S
H614 C626 0.950 . S
C615 H607 0.950 . S
C615 C616 1.386 1_556 S
C615 C617 1.391 . S
C616 C615 1.386 1_554 S
C616 C620 1.393 . S
C617 H609 0.950 . S
C617 C615 1.391 . S
C617 C618 1.400 1_556 S
C618 C617 1.400 1_554 S
C618 C619 1.398 . S
C618 C624 1.491 . S
C619 H610 0.950 . S
C619 C618 1.398 . S
C619 C620 1.391 . S
C620 H608 0.950 . S
C620 C616 1.393 . S
C620 C619 1.391 . S
C621 H611 0.950 . S
C621 C622 1.386 . S
C621 C623 1.391 . S
C622 C621 1.386 . S
C622 C626 1.393 1_554 S
C623 H612 0.950 . S
C623 C621 1.391 . S
C623 C624 1.400 . S
C624 C618 1.491 . S
C624 C623 1.400 . S
C624 C625 1.398 1_554 S
C625 H613 0.950 . S
C625 C624 1.398 1_556 S
C625 C626 1.391 . S
C626 H614 0.950 . S
C626 C622 1.393 1_556 S
C626 C625 1.391 . S
H627 C635 0.950 . S
H628 C640 0.950 . S
H629 C637 0.950 . S
H630 C639 0.950 . S
H631 C641 0.950 . S
H632 C643 0.950 . S
H633 C645 0.950 . S
H634 C646 0.950 . S
C635 H627 0.950 . S
C635 C636 1.386 . S
C635 C637 1.391 1_655 S
C636 C635 1.386 . S
C636 C640 1.393 . S
C637 H629 0.950 . S
C637 C635 1.391 1_455 S
C637 C638 1.400 . S
C638 C637 1.400 . S
C638 C639 1.398 . S
C638 C644 1.491 . S
C639 H630 0.950 . S
C639 C638 1.398 . S
C639 C640 1.391 1_455 S
C640 H628 0.950 . S
C640 C636 1.393 . S
C640 C639 1.391 1_655 S
C641 H631 0.950 . S
C641 C642 1.386 . S
C641 C643 1.391 . S
C642 C641 1.386 . S
C642 C646 1.393 . S
C643 H632 0.950 . S
C643 C641 1.391 . S
C643 C644 1.400 . S
C644 C638 1.491 . S
C644 C643 1.400 . S
C644 C645 1.398 . S
C645 H633 0.950 . S
C645 C644 1.398 . S
C645 C646 1.391 . S
C646 H634 0.950 . S
C646 C642 1.393 . S
C646 C645 1.391 . S
H647 C655 0.950 . S
H648 C660 0.950 . S
H649 C657 0.950 . S
H650 C659 0.950 . S
H651 C661 0.950 . S
H652 C663 0.950 . S
H653 C665 0.950 . S
H654 C666 0.950 . S
C655 H647 0.950 . S
C655 C656 1.386 . S
C655 C657 1.391 . S
C656 C655 1.386 . S
C656 C660 1.393 . S
C657 H649 0.950 . S
C657 C655 1.391 . S
C657 C658 1.400 . S
C658 C657 1.400 . S
C658 C659 1.398 . S
C658 C664 1.491 . S
C659 H650 0.950 . S
C659 C658 1.398 . S
C659 C660 1.391 . S
C660 H648 0.950 . S
C660 C656 1.393 . S
C660 C659 1.391 . S
C661 H651 0.950 . S
C661 C662 1.386 . S
C661 C663 1.391 . S
C662 C661 1.386 . S
C662 C666 1.393 . S
C663 H652 0.950 . S
C663 C661 1.391 . S
C663 C664 1.400 . S
C664 C658 1.491 . S
C664 C663 1.400 . S
C664 C665 1.398 . S
C665 H653 0.950 . S
C665 C664 1.398 . S
C665 C666 1.391 . S
C666 H654 0.950 . S
C666 C662 1.393 . S
C666 C665 1.391 . S
H667 C675 0.950 . S
H668 C680 0.950 . S
H669 C677 0.950 . S
H670 C679 0.950 . S
H671 C681 0.950 . S
H672 C683 0.950 . S
H673 C685 0.950 . S
H674 C686 0.950 . S
C675 H667 0.950 . S
C675 C676 1.386 . S
C675 C677 1.391 . S
C676 C675 1.386 . S
C676 C680 1.393 . S
C677 H669 0.950 . S
C677 C675 1.391 . S
C677 C678 1.400 1_545 S
C678 C677 1.400 1_565 S
C678 C679 1.398 . S
C678 C684 1.491 . S
C679 H670 0.950 . S
C679 C678 1.398 . S
C679 C680 1.391 1_565 S
C680 H668 0.950 . S
C680 C676 1.393 . S
C680 C679 1.391 1_545 S
C681 H671 0.950 . S
C681 C682 1.386 . S
C681 C683 1.391 . S
C682 C681 1.386 . S
C682 C686 1.393 . S
C683 H672 0.950 . S
C683 C681 1.391 . S
C683 C684 1.400 . S
C684 C678 1.491 . S
C684 C683 1.400 . S
C684 C685 1.398 . S
C685 H673 0.950 . S
C685 C684 1.398 . S
C685 C686 1.391 . S
C686 H674 0.950 . S
C686 C682 1.393 . S
C686 C685 1.391 . S
H687 C695 0.950 . S
H688 C700 0.950 . S
H689 C697 0.950 . S
H690 C699 0.950 . S
H691 C701 0.950 . S
H692 C703 0.950 . S
H693 C705 0.950 . S
H694 C706 0.950 . S
C695 H687 0.950 . S
C695 C696 1.386 . S
C695 C697 1.391 . S
C696 C695 1.386 . S
C696 C700 1.393 . S
C697 H689 0.950 . S
C697 C695 1.391 . S
C697 C698 1.400 . S
C698 C697 1.400 . S
C698 C699 1.398 . S
C698 C704 1.491 . S
C699 H690 0.950 . S
C699 C698 1.398 . S
C699 C700 1.391 . S
C700 H688 0.950 . S
C700 C696 1.393 . S
C700 C699 1.391 . S
C701 H691 0.950 . S
C701 C702 1.386 . S
C701 C703 1.391 . S
C702 C701 1.386 . S
C702 C706 1.393 . S
C703 H692 0.950 . S
C703 C701 1.391 . S
C703 C704 1.400 . S
C704 C698 1.491 . S
C704 C703 1.400 . S
C704 C705 1.398 . S
C705 H693 0.950 . S
C705 C704 1.398 . S
C705 C706 1.391 . S
C706 H694 0.950 . S
C706 C702 1.393 . S
C706 C705 1.391 . S
H707 C715 0.950 . S
H708 C720 0.950 . S
H709 C717 0.950 . S
H710 C719 0.950 . S
H711 C721 0.950 . S
H712 C723 0.950 . S
H713 C725 0.950 . S
H714 C726 0.950 . S
C715 H707 0.950 . S
C715 C716 1.386 . S
C715 C717 1.391 . S
C716 C715 1.386 . S
C716 C720 1.393 . S
C717 H709 0.950 . S
C717 C715 1.391 . S
C717 C718 1.400 . S
C718 C717 1.400 . S
C718 C719 1.398 . S
C718 C724 1.491 . S
C719 H710 0.950 . S
C719 C718 1.398 . S
C719 C720 1.391 . S
C720 H708 0.950 . S
C720 C716 1.393 . S
C720 C719 1.391 . S
C721 H711 0.950 . S
C721 C722 1.386 . S
C721 C723 1.391 . S
C722 C721 1.386 . S
C722 C726 1.393 . S
C723 H712 0.950 . S
C723 C721 1.391 . S
C723 C724 1.400 . S
C724 C718 1.491 . S
C724 C723 1.400 . S
C724 C725 1.398 . S
C725 H713 0.950 . S
C725 C724 1.398 . S
C725 C726 1.391 . S
C726 H714 0.950 . S
C726 C722 1.393 . S
C726 C725 1.391 . S
H727 C735 0.950 . S
H728 C740 0.950 . S
H729 C737 0.950 . S
H730 C739 0.950 . S
H731 C741 0.950 . S
H732 C743 0.950 . S
H733 C745 0.950 . S
H734 C746 0.950 . S
C735 H727 0.950 . S
C735 C736 1.386 . S
C735 C737 1.391 . S
C736 C735 1.386 . S
C736 C740 1.393 . S
C737 H729 0.950 . S
C737 C735 1.391 . S
C737 C738 1.400 . S
C738 C737 1.400 . S
C738 C739 1.398 . S
C738 C744 1.491 . S
C739 H730 0.950 . S
C739 C738 1.398 . S
C739 C740 1.391 . S
C740 H728 0.950 . S
C740 C736 1.393 . S
C740 C739 1.391 . S
C741 H731 0.950 . S
C741 C742 1.386 . S
C741 C743 1.391 . S
C742 C741 1.386 . S
C742 C746 1.393 . S
C743 H732 0.950 . S
C743 C741 1.391 . S
C743 C744 1.400 . S
C744 C738 1.491 . S
C744 C743 1.400 . S
C744 C745 1.398 . S
C745 H733 0.950 . S
C745 C744 1.398 . S
C745 C746 1.391 . S
C746 H734 0.950 . S
C746 C742 1.393 . S
C746 C745 1.391 . S
H747 C755 0.950 . S
H748 C760 0.950 . S
H749 C757 0.950 . S
H750 C759 0.950 . S
H751 C761 0.950 . S
H752 C763 0.950 . S
H753 C765 0.950 . S
H754 C766 0.950 . S
C755 H747 0.950 . S
C755 C756 1.386 . S
C755 C757 1.391 . S
C756 C755 1.386 . S
C756 C760 1.393 . S
C757 H749 0.950 . S
C757 C755 1.391 . S
C757 C758 1.400 . S
C758 C757 1.400 . S
C758 C759 1.398 . S
C758 C764 1.491 . S
C759 H750 0.950 . S
C759 C758 1.398 . S
C759 C760 1.391 . S
C760 H748 0.950 . S
C760 C756 1.393 . S
C760 C759 1.391 . S
C761 H751 0.950 . S
C761 C762 1.386 . S
C761 C763 1.391 . S
C762 C761 1.386 . S
C762 C766 1.393 . S
C763 H752 0.950 . S
C763 C761 1.391 . S
C763 C764 1.400 . S
C764 C758 1.491 . S
C764 C763 1.400 . S
C764 C765 1.398 . S
C765 H753 0.950 . S
C765 C764 1.398 . S
C765 C766 1.391 . S
C766 H754 0.950 . S
C766 C762 1.393 . S
C766 C765 1.391 . S
H767 C775 0.950 . S
H768 C780 0.950 . S
H769 C777 0.950 . S
H770 C779 0.950 . S
H771 C781 0.950 . S
H772 C783 0.950 . S
H773 C785 0.950 . S
H774 C786 0.950 . S
C775 H767 0.950 . S
C775 C776 1.386 . S
C775 C777 1.391 . S
C776 C775 1.386 . S
C776 C780 1.393 . S
C777 H769 0.950 . S
C777 C775 1.391 . S
C777 C778 1.400 . S
C778 C777 1.400 . S
C778 C779 1.398 . S
C778 C784 1.491 . S
C779 H770 0.950 . S
C779 C778 1.398 . S
C779 C780 1.391 . S
C780 H768 0.950 . S
C780 C776 1.393 . S
C780 C779 1.391 . S
C781 H771 0.950 . S
C781 C782 1.386 . S
C781 C783 1.391 . S
C782 C781 1.386 . S
C782 C786 1.393 . S
C783 H772 0.950 . S
C783 C781 1.391 . S
C783 C784 1.400 . S
C784 C778 1.491 . S
C784 C783 1.400 . S
C784 C785 1.398 . S
C785 H773 0.950 . S
C785 C784 1.398 . S
C785 C786 1.391 . S
C786 H774 0.950 . S
C786 C782 1.393 . S
C786 C785 1.391 . S
H787 C795 0.950 . S
H788 C800 0.950 . S
H789 C797 0.950 . S
H790 C799 0.950 . S
H791 C801 0.950 . S
H792 C803 0.950 . S
H793 C805 0.950 . S
H794 C806 0.950 . S
C795 H787 0.950 . S
C795 C796 1.386 . S
C795 C797 1.391 . S
C796 C795 1.386 . S
C796 C800 1.393 . S
C797 H789 0.950 . S
C797 C795 1.391 . S
C797 C798 1.400 . S
C798 C797 1.400 . S
C798 C799 1.398 . S
C798 C804 1.491 . S
C799 H790 0.950 . S
C799 C798 1.398 . S
C799 C800 1.391 . S
C800 H788 0.950 . S
C800 C796 1.393 . S
C800 C799 1.391 . S
C801 H791 0.950 . S
C801 C802 1.386 . S
C801 C803 1.391 . S
C802 C801 1.386 . S
C802 C806 1.393 . S
C803 H792 0.950 . S
C803 C801 1.391 . S
C803 C804 1.400 . S
C804 C798 1.491 . S
C804 C803 1.400 . S
C804 C805 1.398 . S
C805 H793 0.950 . S
C805 C804 1.398 . S
C805 C806 1.391 . S
C806 H794 0.950 . S
C806 C802 1.393 . S
C806 C805 1.391 . S
H807 C815 0.950 . S
H808 C820 0.950 . S
H809 C817 0.950 . S
H810 C819 0.950 . S
H811 C821 0.950 . S
H812 C823 0.950 . S
H813 C825 0.950 . S
H814 C826 0.950 . S
C815 H807 0.950 . S
C815 C816 1.386 . S
C815 C817 1.391 1_545 S
C816 C815 1.386 . S
C816 C820 1.393 . S
C817 H809 0.950 . S
C817 C815 1.391 1_565 S
C817 C818 1.400 . S
C818 C817 1.400 . S
C818 C819 1.398 . S
C818 C824 1.491 . S
C819 H810 0.950 . S
C819 C818 1.398 . S
C819 C820 1.391 1_565 S
C820 H808 0.950 . S
C820 C816 1.393 . S
C820 C819 1.391 1_545 S
C821 H811 0.950 . S
C821 C822 1.386 . S
C821 C823 1.391 . S
C822 C821 1.386 . S
C822 C826 1.393 . S
C823 H812 0.950 . S
C823 C821 1.391 . S
C823 C824 1.400 . S
C824 C818 1.491 . S
C824 C823 1.400 . S
C824 C825 1.398 . S
C825 H813 0.950 . S
C825 C824 1.398 . S
C825 C826 1.391 . S
C826 H814 0.950 . S
C826 C822 1.393 . S
C826 C825 1.391 . S
H827 C835 0.950 . S
H828 C840 0.950 . S
H829 C837 0.950 . S
H830 C839 0.946 1_455 S
H831 C841 0.950 . S
H832 C843 0.950 . S
H833 C845 0.950 . S
H834 C846 0.950 . S
C835 H827 0.950 . S
C835 C836 1.386 . S
C835 C837 1.391 1_655 S
C836 C835 1.386 . S
C836 C840 1.393 . S
C837 H829 0.950 . S
C837 C835 1.391 1_455 S
C837 C838 1.400 . S
C838 C837 1.400 . S
C838 C839 1.396 1_455 S
C838 C844 1.491 . S
C839 H830 0.946 1_655 S
C839 C838 1.396 1_655 S
C839 C840 1.396 . S
C840 H828 0.950 . S
C840 C836 1.393 . S
C840 C839 1.396 . S
C841 H831 0.950 . S
C841 C842 1.386 . S
C841 C843 1.391 . S
C842 C841 1.386 . S
C842 C846 1.393 . S
C843 H832 0.950 . S
C843 C841 1.391 . S
C843 C844 1.400 . S
C844 C838 1.491 . S
C844 C843 1.400 . S
C844 C845 1.398 . S
C845 H833 0.950 . S
C845 C844 1.398 . S
C845 C846 1.391 . S
C846 H834 0.950 . S
C846 C842 1.393 . S
C846 C845 1.391 . S
H847 C855 0.950 . S
H848 C860 0.950 . S
H849 C857 0.950 . S
H850 C859 0.950 . S
H851 C861 0.950 . S
H852 C863 0.950 . S
H853 C865 0.950 . S
H854 C866 0.950 . S
C855 H847 0.950 . S
C855 C856 1.386 . S
C855 C857 1.391 . S
C856 C855 1.386 . S
C856 C860 1.393 . S
C857 H849 0.950 . S
C857 C855 1.391 . S
C857 C858 1.400 . S
C858 C857 1.400 . S
C858 C859 1.398 . S
C858 C864 1.491 . S
C859 H850 0.950 . S
C859 C858 1.398 . S
C859 C860 1.391 . S
C860 H848 0.950 . S
C860 C856 1.393 . S
C860 C859 1.391 . S
C861 H851 0.950 . S
C861 C862 1.386 . S
C861 C863 1.391 . S
C862 C861 1.386 . S
C862 C866 1.393 . S
C863 H852 0.950 . S
C863 C861 1.391 . S
C863 C864 1.400 . S
C864 C858 1.491 . S
C864 C863 1.400 . S
C864 C865 1.398 . S
C865 H853 0.950 . S
C865 C864 1.398 . S
C865 C866 1.391 . S
C866 H854 0.950 . S
C866 C862 1.393 . S
C866 C865 1.391 . S
H867 C875 0.950 . S
H868 C880 0.950 . S
H869 C877 0.950 . S
H870 C879 0.950 . S
H871 C881 0.950 . S
H872 C883 0.950 . S
H873 C885 0.950 . S
H874 C886 0.950 . S
C875 H867 0.950 . S
C875 C876 1.386 . S
C875 C877 1.391 . S
C876 C875 1.386 . S
C876 C880 1.393 . S
C877 H869 0.950 . S
C877 C875 1.391 . S
C877 C878 1.400 . S
C878 C877 1.400 . S
C878 C879 1.398 . S
C878 C884 1.491 . S
C879 H870 0.950 . S
C879 C878 1.398 . S
C879 C880 1.391 . S
C880 H868 0.950 . S
C880 C876 1.393 . S
C880 C879 1.391 . S
C881 H871 0.950 . S
C881 C882 1.386 . S
C881 C883 1.391 . S
C882 C881 1.386 . S
C882 C886 1.393 . S
C883 H872 0.950 . S
C883 C881 1.391 . S
C883 C884 1.400 . S
C884 C878 1.491 . S
C884 C883 1.400 . S
C884 C885 1.398 . S
C885 H873 0.950 . S
C885 C884 1.398 . S
C885 C886 1.391 . S
C886 H874 0.950 . S
C886 C882 1.393 . S
C886 C885 1.391 . S
H887 C895 0.950 . S
H888 C900 0.950 . S
H889 C897 0.950 . S
H890 C899 0.950 . S
H891 C901 0.950 . S
H892 C903 0.950 . S
H893 C905 0.950 . S
H894 C906 0.950 . S
C895 H887 0.950 . S
C895 C896 1.386 . S
C895 C897 1.391 . S
C896 C895 1.386 . S
C896 C900 1.393 . S
C897 H889 0.950 . S
C897 C895 1.391 . S
C897 C898 1.400 . S
C898 C897 1.400 . S
C898 C899 1.398 . S
C898 C904 1.491 . S
C899 H890 0.950 . S
C899 C898 1.398 . S
C899 C900 1.391 . S
C900 H888 0.950 . S
C900 C896 1.393 . S
C900 C899 1.391 . S
C901 H891 0.950 . S
C901 C902 1.386 . S
C901 C903 1.391 . S
C902 C901 1.386 . S
C902 C906 1.393 . S
C903 H892 0.950 . S
C903 C901 1.391 . S
C903 C904 1.400 . S
C904 C898 1.491 . S
C904 C903 1.400 . S
C904 C905 1.398 . S
C905 H893 0.950 . S
C905 C904 1.398 . S
C905 C906 1.391 . S
C906 H894 0.950 . S
C906 C902 1.393 . S
C906 C905 1.391 . S
H907 C915 0.950 . S
H908 C920 0.950 . S
H909 C917 0.950 . S
H910 C919 0.950 . S
H911 C921 0.950 . S
H912 C923 0.950 . S
H913 C925 0.950 . S
H914 C926 0.950 . S
C915 H907 0.950 . S
C915 C916 1.386 . S
C915 C917 1.391 . S
C916 C915 1.386 . S
C916 C920 1.393 . S
C917 H909 0.950 . S
C917 C915 1.391 . S
C917 C918 1.400 . S
C918 C917 1.400 . S
C918 C919 1.398 . S
C918 C924 1.491 . S
C919 H910 0.950 . S
C919 C918 1.398 . S
C919 C920 1.391 . S
C920 H908 0.950 . S
C920 C916 1.393 . S
C920 C919 1.391 . S
C921 H911 0.950 . S
C921 C922 1.386 . S
C921 C923 1.391 . S
C922 C921 1.386 . S
C922 C926 1.393 . S
C923 H912 0.950 . S
C923 C921 1.391 . S
C923 C924 1.400 . S
C924 C918 1.491 . S
C924 C923 1.400 . S
C924 C925 1.398 . S
C925 H913 0.950 . S
C925 C924 1.398 . S
C925 C926 1.391 . S
C926 H914 0.950 . S
C926 C922 1.393 . S
C926 C925 1.391 . S
H927 C935 0.950 . S
H928 C940 0.950 . S
H929 C937 0.952 1_545 S
H930 C939 0.950 . S
H931 C941 0.950 . S
H932 C943 0.950 . S
H933 C945 0.950 . S
H934 C946 0.950 . S
C935 H927 0.950 . S
C935 C936 1.386 . S
C935 C937 1.391 . S
C936 C935 1.386 . S
C936 C940 1.393 . S
C937 H929 0.952 1_565 S
C937 C935 1.391 . S
C937 C938 1.400 1_565 S
C938 C937 1.400 1_545 S
C938 C939 1.398 . S
C938 C944 1.491 . S
C939 H930 0.950 . S
C939 C938 1.398 . S
C939 C940 1.391 1_545 S
C940 H928 0.950 . S
C940 C936 1.393 . S
C940 C939 1.391 1_565 S
C941 H931 0.950 . S
C941 C942 1.386 . S
C941 C943 1.391 . S
C942 C941 1.386 . S
C942 C946 1.393 . S
C943 H932 0.950 . S
C943 C941 1.391 . S
C943 C944 1.400 . S
C944 C938 1.491 . S
C944 C943 1.400 . S
C944 C945 1.398 . S
C945 H933 0.950 . S
C945 C944 1.398 . S
C945 C946 1.391 . S
C946 H934 0.950 . S
C946 C942 1.393 . S
C946 C945 1.391 . S
H947 C955 0.950 . S
H948 C960 0.950 . S
H949 C957 0.950 . S
H950 C959 0.950 1_655 S
H951 C961 0.950 . S
H952 C963 0.950 . S
H953 C965 0.950 . S
H954 C966 0.950 . S
C955 H947 0.950 . S
C955 C956 1.386 . S
C955 C957 1.391 . S
C956 C955 1.386 . S
C956 C960 1.393 . S
C957 H949 0.950 . S
C957 C955 1.391 . S
C957 C958 1.400 1_455 S
C958 C957 1.400 1_655 S
C958 C959 1.398 1_655 S
C958 C964 1.491 . S
C959 H950 0.950 1_455 S
C959 C958 1.398 1_455 S
C959 C960 1.391 . S
C960 H948 0.950 . S
C960 C956 1.393 . S
C960 C959 1.391 . S
C961 H951 0.950 . S
C961 C962 1.386 . S
C961 C963 1.391 . S
C962 C961 1.386 . S
C962 C966 1.393 . S
C963 H952 0.950 . S
C963 C961 1.391 . S
C963 C964 1.400 . S
C964 C958 1.491 . S
C964 C963 1.400 . S
C964 C965 1.398 . S
C965 H953 0.950 . S
C965 C964 1.398 . S
C965 C966 1.391 . S
C966 H954 0.950 . S
C966 C962 1.393 . S
C966 C965 1.391 . S
H967 C975 0.950 . S
H968 C980 0.950 . S
H969 C977 0.950 . S
H970 C979 0.950 . S
H971 C981 0.950 . S
H972 C983 0.950 . S
H973 C985 0.950 . S
H974 C986 0.950 . S
C975 H967 0.950 . S
C975 C976 1.386 . S
C975 C977 1.391 . S
C976 C975 1.386 . S
C976 C980 1.393 . S
C977 H969 0.950 . S
C977 C975 1.391 . S
C977 C978 1.400 . S
C978 C977 1.400 . S
C978 C979 1.398 . S
C978 C984 1.491 . S
C979 H970 0.950 . S
C979 C978 1.398 . S
C979 C980 1.391 . S
C980 H968 0.950 . S
C980 C976 1.393 . S
C980 C979 1.391 . S
C981 H971 0.950 . S
C981 C982 1.386 . S
C981 C983 1.391 . S
C982 C981 1.386 . S
C982 C986 1.393 . S
C983 H972 0.950 . S
C983 C981 1.391 . S
C983 C984 1.400 . S
C984 C978 1.491 . S
C984 C983 1.400 . S
C984 C985 1.398 . S
C985 H973 0.950 . S
C985 C984 1.398 . S
C985 C986 1.391 . S
C986 H974 0.950 . S
C986 C982 1.393 . S
C986 C985 1.391 . S
H987 C995 0.950 . S
H988 C1000 0.950 . S
H989 C997 0.950 1_655 S
H990 C999 0.950 . S
H991 C1001 0.950 . S
H992 C1003 0.950 . S
H993 C1005 0.950 . S
H994 C1006 0.950 . S
C995 H987 0.950 . S
C995 C996 1.386 . S
C995 C997 1.391 . S
C996 C995 1.386 . S
C996 C1000 1.393 . S
C997 H989 0.950 1_455 S
C997 C995 1.391 . S
C997 C998 1.400 1_455 S
C998 C997 1.400 1_655 S
C998 C999 1.398 . S
C998 C1004 1.491 . S
C999 H990 0.950 . S
C999 C998 1.398 . S
C999 C1000 1.391 1_655 S
C1000 H988 0.950 . S
C1000 C996 1.393 . S
C1000 C999 1.391 1_455 S
C1001 H991 0.950 . S
C1001 C1002 1.386 . S
C1001 C1003 1.391 . S
C1002 C1001 1.386 . S
C1002 C1006 1.393 . S
C1003 H992 0.950 . S
C1003 C1001 1.391 . S
C1003 C1004 1.400 . S
C1004 C998 1.491 . S
C1004 C1003 1.400 . S
C1004 C1005 1.398 . S
C1005 H993 0.950 . S
C1005 C1004 1.398 . S
C1005 C1006 1.391 . S
C1006 H994 0.950 . S
C1006 C1002 1.393 . S
C1006 C1005 1.391 . S
H1007 C1015 0.950 . S
H1008 C1020 0.950 . S
H1009 C1017 0.950 . S
H1010 C1019 0.950 . S
H1011 C1021 0.950 . S
H1012 C1023 0.950 . S
H1013 C1025 0.950 . S
H1014 C1026 0.950 . S
C1015 H1007 0.950 . S
C1015 C1016 1.386 . S
C1015 C1017 1.391 . S
C1016 C1015 1.386 . S
C1016 C1020 1.393 . S
C1017 H1009 0.950 . S
C1017 C1015 1.391 . S
C1017 C1018 1.400 . S
C1018 C1017 1.400 . S
C1018 C1019 1.398 . S
C1018 C1024 1.491 . S
C1019 H1010 0.950 . S
C1019 C1018 1.398 . S
C1019 C1020 1.391 . S
C1020 H1008 0.950 . S
C1020 C1016 1.393 . S
C1020 C1019 1.391 . S
C1021 H1011 0.950 . S
C1021 C1022 1.386 . S
C1021 C1023 1.391 . S
C1022 C1021 1.386 . S
C1022 C1026 1.393 . S
C1023 H1012 0.950 . S
C1023 C1021 1.391 . S
C1023 C1024 1.400 . S
C1024 C1018 1.491 . S
C1024 C1023 1.400 . S
C1024 C1025 1.398 . S
C1025 H1013 0.950 . S
C1025 C1024 1.398 . S
C1025 C1026 1.391 . S
C1026 H1014 0.950 . S
C1026 C1022 1.393 . S
C1026 C1025 1.391 . S
H1027 C1035 0.950 . S
H1028 C1040 0.950 . S
H1029 C1037 0.950 . S
H1030 C1039 0.950 . S
H1031 C1041 0.950 . S
H1032 C1043 0.950 . S
H1033 C1045 0.950 . S
H1034 C1046 0.950 . S
C1035 H1027 0.950 . S
C1035 C1036 1.386 . S
C1035 C1037 1.391 1_565 S
C1036 C1035 1.386 . S
C1036 C1040 1.393 . S
C1037 H1029 0.950 . S
C1037 C1035 1.391 1_545 S
C1037 C1038 1.400 . S
C1038 C1037 1.400 . S
C1038 C1039 1.398 . S
C1038 C1044 1.491 . S
C1039 H1030 0.950 . S
C1039 C1038 1.398 . S
C1039 C1040 1.391 1_545 S
C1040 H1028 0.950 . S
C1040 C1036 1.393 . S
C1040 C1039 1.391 1_565 S
C1041 H1031 0.950 . S
C1041 C1042 1.386 . S
C1041 C1043 1.391 . S
C1042 C1041 1.386 . S
C1042 C1046 1.393 . S
C1043 H1032 0.950 . S
C1043 C1041 1.391 . S
C1043 C1044 1.400 . S
C1044 C1038 1.491 . S
C1044 C1043 1.400 . S
C1044 C1045 1.398 . S
C1045 H1033 0.950 . S
C1045 C1044 1.398 . S
C1045 C1046 1.391 . S
C1046 H1034 0.950 . S
C1046 C1042 1.393 . S
C1046 C1045 1.391 . S
H1047 C1055 0.950 . S
H1048 C1060 0.950 . S
H1049 C1057 0.950 . S
H1050 C1059 0.950 . S
H1051 C1061 0.950 . S
H1052 C1063 0.950 . S
H1053 C1065 0.950 . S
H1054 C1066 0.950 . S
C1055 H1047 0.950 . S
C1055 C1056 1.386 . S
C1055 C1057 1.391 . S
C1056 C1055 1.386 . S
C1056 C1060 1.393 . S
C1057 H1049 0.950 . S
C1057 C1055 1.391 . S
C1057 C1058 1.400 . S
C1058 C1057 1.400 . S
C1058 C1059 1.398 . S
C1058 C1064 1.491 . S
C1059 H1050 0.950 . S
C1059 C1058 1.398 . S
C1059 C1060 1.391 . S
C1060 H1048 0.950 . S
C1060 C1056 1.393 . S
C1060 C1059 1.391 . S
C1061 H1051 0.950 . S
C1061 C1062 1.386 . S
C1061 C1063 1.391 . S
C1062 C1061 1.386 . S
C1062 C1066 1.393 . S
C1063 H1052 0.950 . S
C1063 C1061 1.391 . S
C1063 C1064 1.400 . S
C1064 C1058 1.491 . S
C1064 C1063 1.400 . S
C1064 C1065 1.398 . S
C1065 H1053 0.950 . S
C1065 C1064 1.398 . S
C1065 C1066 1.391 . S
C1066 H1054 0.950 . S
C1066 C1062 1.393 . S
C1066 C1065 1.391 . S
H1067 C1075 0.950 . S
H1068 C1080 0.950 . S
H1069 C1077 0.950 . S
H1070 C1079 0.950 . S
H1071 C1081 0.950 . S
H1072 C1083 0.950 . S
H1073 C1085 0.950 . S
H1074 C1086 0.950 . S
C1075 H1067 0.950 . S
C1075 C1076 1.386 . S
C1075 C1077 1.391 . S
C1076 C1075 1.386 . S
C1076 C1080 1.393 . S
C1077 H1069 0.950 . S
C1077 C1075 1.391 . S
C1077 C1078 1.400 . S
C1078 C1077 1.400 . S
C1078 C1079 1.398 . S
C1078 C1084 1.491 . S
C1079 H1070 0.950 . S
C1079 C1078 1.398 . S
C1079 C1080 1.391 . S
C1080 H1068 0.950 . S
C1080 C1076 1.393 . S
C1080 C1079 1.391 . S
C1081 H1071 0.950 . S
C1081 C1082 1.386 . S
C1081 C1083 1.391 . S
C1082 C1081 1.386 . S
C1082 C1086 1.393 . S
C1083 H1072 0.950 . S
C1083 C1081 1.391 . S
C1083 C1084 1.400 . S
C1084 C1078 1.491 . S
C1084 C1083 1.400 . S
C1084 C1085 1.398 . S
C1085 H1073 0.950 . S
C1085 C1084 1.398 . S
C1085 C1086 1.391 . S
C1086 H1074 0.950 . S
C1086 C1082 1.393 . S
C1086 C1085 1.391 . S
H1087 C1095 0.950 . S
H1088 C1100 0.950 . S
H1089 C1097 0.950 . S
H1090 C1099 0.950 . S
H1091 C1101 0.950 . S
H1092 C1103 0.950 . S
H1093 C1105 0.950 . S
H1094 C1106 0.950 . S
C1095 H1087 0.950 . S
C1095 C1096 1.386 . S
C1095 C1097 1.391 . S
C1096 C1095 1.386 . S
C1096 C1100 1.393 . S
C1097 H1089 0.950 . S
C1097 C1095 1.391 . S
C1097 C1098 1.400 . S
C1098 C1097 1.400 . S
C1098 C1099 1.398 . S
C1098 C1104 1.491 . S
C1099 H1090 0.950 . S
C1099 C1098 1.398 . S
C1099 C1100 1.391 . S
C1100 H1088 0.950 . S
C1100 C1096 1.393 . S
C1100 C1099 1.391 . S
C1101 H1091 0.950 . S
C1101 C1102 1.386 . S
C1101 C1103 1.391 . S
C1102 C1101 1.386 . S
C1102 C1106 1.393 . S
C1103 H1092 0.950 . S
C1103 C1101 1.391 . S
C1103 C1104 1.400 . S
C1104 C1098 1.491 . S
C1104 C1103 1.400 . S
C1104 C1105 1.398 . S
C1105 H1093 0.950 . S
C1105 C1104 1.398 . S
C1105 C1106 1.391 . S
C1106 H1094 0.950 . S
C1106 C1102 1.393 . S
C1106 C1105 1.391 . S
H1107 C1115 0.950 . S
H1108 C1120 0.950 . S
H1109 C1117 0.950 . S
H1110 C1119 0.950 . S
H1111 C1121 0.950 . S
H1112 C1123 0.950 . S
H1113 C1125 0.950 . S
H1114 C1126 0.950 1_545 S
C1115 H1107 0.950 . S
C1115 C1116 1.386 . S
C1115 C1117 1.391 . S
C1116 C1115 1.386 . S
C1116 C1120 1.393 . S
C1117 H1109 0.950 . S
C1117 C1115 1.391 . S
C1117 C1118 1.400 . S
C1118 C1117 1.400 . S
C1118 C1119 1.398 . S
C1118 C1124 1.491 . S
C1119 H1110 0.950 . S
C1119 C1118 1.398 . S
C1119 C1120 1.391 . S
C1120 H1108 0.950 . S
C1120 C1116 1.393 . S
C1120 C1119 1.391 . S
C1121 H1111 0.950 . S
C1121 C1122 1.386 . S
C1121 C1123 1.391 . S
C1122 C1121 1.386 . S
C1122 C1126 1.393 . S
C1123 H1112 0.950 . S
C1123 C1121 1.391 . S
C1123 C1124 1.400 . S
C1124 C1118 1.491 . S
C1124 C1123 1.400 . S
C1124 C1125 1.398 . S
C1125 H1113 0.950 . S
C1125 C1124 1.398 . S
C1125 C1126 1.391 . S
C1126 H1114 0.950 1_565 S
C1126 C1122 1.393 . S
C1126 C1125 1.391 . S
H1127 C1135 0.950 . S
H1128 C1140 0.950 . S
H1129 C1137 0.950 . S
H1130 C1139 0.950 . S
H1131 C1141 0.950 . S
H1132 C1143 0.950 . S
H1133 C1145 0.950 . S
H1134 C1146 0.950 . S
C1135 H1127 0.950 . S
C1135 C1136 1.386 . S
C1135 C1137 1.391 . S
C1136 C1135 1.386 . S
C1136 C1140 1.393 . S
C1137 H1129 0.950 . S
C1137 C1135 1.391 . S
C1137 C1138 1.400 . S
C1138 C1137 1.400 . S
C1138 C1139 1.398 . S
C1138 C1144 1.491 . S
C1139 H1130 0.950 . S
C1139 C1138 1.398 . S
C1139 C1140 1.391 . S
C1140 H1128 0.950 . S
C1140 C1136 1.393 . S
C1140 C1139 1.391 . S
C1141 H1131 0.950 . S
C1141 C1142 1.386 . S
C1141 C1143 1.391 . S
C1142 C1141 1.386 . S
C1142 C1146 1.393 . S
C1143 H1132 0.950 . S
C1143 C1141 1.391 . S
C1143 C1144 1.400 . S
C1144 C1138 1.491 . S
C1144 C1143 1.400 . S
C1144 C1145 1.398 . S
C1145 H1133 0.950 . S
C1145 C1144 1.398 . S
C1145 C1146 1.391 . S
C1146 H1134 0.950 . S
C1146 C1142 1.393 . S
C1146 C1145 1.391 . S
H1147 C1155 0.950 . S
H1148 C1160 0.950 . S
H1149 C1157 0.950 . S
H1150 C1159 0.950 . S
H1151 C1161 0.950 . S
H1152 C1163 0.950 . S
H1153 C1165 0.950 . S
H1154 C1166 0.950 . S
C1155 H1147 0.950 . S
C1155 C1156 1.386 . S
C1155 C1157 1.391 . S
C1156 C1155 1.386 . S
C1156 C1160 1.393 . S
C1157 H1149 0.950 . S
C1157 C1155 1.391 . S
C1157 C1158 1.400 . S
C1158 C1157 1.400 . S
C1158 C1159 1.398 . S
C1158 C1164 1.491 . S
C1159 H1150 0.950 . S
C1159 C1158 1.398 . S
C1159 C1160 1.391 . S
C1160 H1148 0.950 . S
C1160 C1156 1.393 . S
C1160 C1159 1.391 . S
C1161 H1151 0.950 . S
C1161 C1162 1.386 . S
C1161 C1163 1.391 . S
C1162 C1161 1.386 . S
C1162 C1166 1.393 . S
C1163 H1152 0.950 . S
C1163 C1161 1.391 . S
C1163 C1164 1.400 . S
C1164 C1158 1.491 . S
C1164 C1163 1.400 . S
C1164 C1165 1.398 . S
C1165 H1153 0.950 . S
C1165 C1164 1.398 . S
C1165 C1166 1.391 . S
C1166 H1154 0.950 . S
C1166 C1162 1.393 . S
C1166 C1165 1.391 . S
H1167 C1175 0.950 . S
H1168 C1180 0.950 . S
H1169 C1177 0.950 . S
H1170 C1179 0.950 . S
H1171 C1181 0.950 . S
H1172 C1183 0.950 . S
H1173 C1185 0.950 . S
H1174 C1186 0.950 . S
C1175 H1167 0.950 . S
C1175 C1176 1.386 . S
C1175 C1177 1.391 . S
C1176 C1175 1.386 . S
C1176 C1180 1.393 . S
C1177 H1169 0.950 . S
C1177 C1175 1.391 . S
C1177 C1178 1.400 . S
C1178 C1177 1.400 . S
C1178 C1179 1.398 . S
C1178 C1184 1.491 . S
C1179 H1170 0.950 . S
C1179 C1178 1.398 . S
C1179 C1180 1.391 . S
C1180 H1168 0.950 . S
C1180 C1176 1.393 . S
C1180 C1179 1.391 . S
C1181 H1171 0.950 . S
C1181 C1182 1.386 . S
C1181 C1183 1.391 . S
C1182 C1181 1.386 . S
C1182 C1186 1.393 . S
C1183 H1172 0.950 . S
C1183 C1181 1.391 . S
C1183 C1184 1.400 . S
C1184 C1178 1.491 . S
C1184 C1183 1.400 . S
C1184 C1185 1.398 . S
C1185 H1173 0.950 . S
C1185 C1184 1.398 . S
C1185 C1186 1.391 . S
C1186 H1174 0.950 . S
C1186 C1182 1.393 . S
C1186 C1185 1.391 . S
H1187 C1195 0.950 . S
H1188 C1200 0.950 . S
H1189 C1197 0.950 . S
H1190 C1199 0.950 . S
H1191 C1201 0.950 . S
H1192 C1203 0.950 . S
H1193 C1205 0.950 . S
H1194 C1206 0.950 . S
C1195 H1187 0.950 . S
C1195 C1196 1.386 . S
C1195 C1197 1.391 . S
C1196 C1195 1.386 . S
C1196 C1200 1.393 . S
C1197 H1189 0.950 . S
C1197 C1195 1.391 . S
C1197 C1198 1.400 . S
C1198 C1197 1.400 . S
C1198 C1199 1.398 . S
C1198 C1204 1.491 . S
C1199 H1190 0.950 . S
C1199 C1198 1.398 . S
C1199 C1200 1.391 . S
C1200 H1188 0.950 . S
C1200 C1196 1.393 . S
C1200 C1199 1.391 . S
C1201 H1191 0.950 . S
C1201 C1202 1.386 . S
C1201 C1203 1.391 . S
C1202 C1201 1.386 . S
C1202 C1206 1.393 . S
C1203 H1192 0.950 . S
C1203 C1201 1.391 . S
C1203 C1204 1.400 . S
C1204 C1198 1.491 . S
C1204 C1203 1.400 . S
C1204 C1205 1.398 . S
C1205 H1193 0.950 . S
C1205 C1204 1.398 . S
C1205 C1206 1.391 . S
C1206 H1194 0.950 . S
C1206 C1202 1.393 . S
C1206 C1205 1.391 . S
H1207 C1215 0.950 . S
H1208 C1220 0.950 . S
H1209 C1217 0.950 . S
H1210 C1219 0.950 . S
H1211 C1221 0.950 . S
H1212 C1223 0.950 . S
H1213 C1225 0.950 . S
H1214 C1226 0.950 . S
C1215 H1207 0.950 . S
C1215 C1216 1.386 . S
C1215 C1217 1.391 . S
C1216 C1215 1.386 . S
C1216 C1220 1.393 . S
C1217 H1209 0.950 . S
C1217 C1215 1.391 . S
C1217 C1218 1.400 . S
C1218 C1217 1.400 . S
C1218 C1219 1.398 . S
C1218 C1224 1.491 . S
C1219 H1210 0.950 . S
C1219 C1218 1.398 . S
C1219 C1220 1.391 . S
C1220 H1208 0.950 . S
C1220 C1216 1.393 . S
C1220 C1219 1.391 . S
C1221 H1211 0.950 . S
C1221 C1222 1.386 . S
C1221 C1223 1.391 . S
C1222 C1221 1.386 . S
C1222 C1226 1.393 . S
C1223 H1212 0.950 . S
C1223 C1221 1.391 . S
C1223 C1224 1.400 . S
C1224 C1218 1.491 . S
C1224 C1223 1.400 . S
C1224 C1225 1.398 . S
C1225 H1213 0.950 . S
C1225 C1224 1.398 . S
C1225 C1226 1.391 . S
C1226 H1214 0.950 . S
C1226 C1222 1.393 . S
C1226 C1225 1.391 . S
H1227 C1235 0.950 . S
H1228 C1240 0.950 . S
H1229 C1237 0.950 . S
H1230 C1239 0.950 . S
H1231 C1241 0.950 . S
H1232 C1243 0.950 . S
H1233 C1245 0.950 . S
H1234 C1246 0.950 . S
C1235 H1227 0.950 . S
C1235 C1236 1.386 . S
C1235 C1237 1.391 . S
C1236 C1235 1.386 . S
C1236 C1240 1.393 . S
C1237 H1229 0.950 . S
C1237 C1235 1.391 . S
C1237 C1238 1.400 . S
C1238 C1237 1.400 . S
C1238 C1239 1.398 . S
C1238 C1244 1.491 . S
C1239 H1230 0.950 . S
C1239 C1238 1.398 . S
C1239 C1240 1.391 . S
C1240 H1228 0.950 . S
C1240 C1236 1.393 . S
C1240 C1239 1.391 . S
C1241 H1231 0.950 . S
C1241 C1242 1.386 . S
C1241 C1243 1.391 . S
C1242 C1241 1.386 . S
C1242 C1246 1.393 . S
C1243 H1232 0.950 . S
C1243 C1241 1.391 . S
C1243 C1244 1.400 . S
C1244 C1238 1.491 . S
C1244 C1243 1.400 . S
C1244 C1245 1.398 . S
C1245 H1233 0.950 . S
C1245 C1244 1.398 . S
C1245 C1246 1.391 . S
C1246 H1234 0.950 . S
C1246 C1242 1.393 . S
C1246 C1245 1.391 . S
H1247 C1255 0.950 . S
H1248 C1260 0.950 . S
H1249 C1257 0.950 . S
H1250 C1259 0.950 . S
H1251 C1261 0.950 . S
H1252 C1263 0.950 . S
H1253 C1265 0.950 . S
H1254 C1266 0.950 . S
C1255 H1247 0.950 . S
C1255 C1256 1.386 . S
C1255 C1257 1.391 . S
C1256 C1255 1.386 . S
C1256 C1260 1.393 . S
C1257 H1249 0.950 . S
C1257 C1255 1.391 . S
C1257 C1258 1.400 . S
C1258 C1257 1.400 . S
C1258 C1259 1.398 . S
C1258 C1264 1.491 . S
C1259 H1250 0.950 . S
C1259 C1258 1.398 . S
C1259 C1260 1.391 . S
C1260 H1248 0.950 . S
C1260 C1256 1.393 . S
C1260 C1259 1.391 . S
C1261 H1251 0.950 . S
C1261 C1262 1.386 . S
C1261 C1263 1.391 . S
C1262 C1261 1.386 . S
C1262 C1266 1.393 . S
C1263 H1252 0.950 . S
C1263 C1261 1.391 . S
C1263 C1264 1.400 . S
C1264 C1258 1.491 . S
C1264 C1263 1.400 . S
C1264 C1265 1.398 . S
C1265 H1253 0.950 . S
C1265 C1264 1.398 . S
C1265 C1266 1.391 . S
C1266 H1254 0.950 . S
C1266 C1262 1.393 . S
C1266 C1265 1.391 . S
H1267 C1275 0.950 . S
H1268 C1280 0.950 . S
H1269 C1277 0.950 . S
H1270 C1279 0.950 . S
H1271 C1281 0.950 . S
H1272 C1283 0.950 . S
H1273 C1285 0.950 . S
H1274 C1286 0.950 . S
C1275 H1267 0.950 . S
C1275 C1276 1.386 . S
C1275 C1277 1.391 . S
C1276 C1275 1.386 . S
C1276 C1280 1.393 . S
C1277 H1269 0.950 . S
C1277 C1275 1.391 . S
C1277 C1278 1.400 . S
C1278 C1277 1.400 . S
C1278 C1279 1.398 . S
C1278 C1284 1.491 . S
C1279 H1270 0.950 . S
C1279 C1278 1.398 . S
C1279 C1280 1.391 . S
C1280 H1268 0.950 . S
C1280 C1276 1.393 . S
C1280 C1279 1.391 . S
C1281 H1271 0.950 . S
C1281 C1282 1.386 . S
C1281 C1283 1.391 . S
C1282 C1281 1.386 . S
C1282 C1286 1.393 . S
C1283 H1272 0.950 . S
C1283 C1281 1.391 . S
C1283 C1284 1.400 . S
C1284 C1278 1.491 . S
C1284 C1283 1.400 . S
C1284 C1285 1.398 . S
C1285 H1273 0.950 . S
C1285 C1284 1.398 . S
C1285 C1286 1.391 . S
C1286 H1274 0.950 . S
C1286 C1282 1.393 . S
C1286 C1285 1.391 . S
H1287 C1295 0.950 . S
H1288 C1300 0.950 . S
H1289 C1297 0.950 . S
H1290 C1299 0.950 . S
H1291 C1301 0.950 . S
H1292 C1303 0.950 . S
H1293 C1305 0.950 . S
H1294 C1306 0.950 . S
C1295 H1287 0.950 . S
C1295 C1296 1.386 . S
C1295 C1297 1.391 . S
C1296 C1295 1.386 . S
C1296 C1300 1.393 . S
C1297 H1289 0.950 . S
C1297 C1295 1.391 . S
C1297 C1298 1.400 . S
C1298 C1297 1.400 . S
C1298 C1299 1.398 . S
C1298 C1304 1.491 . S
C1299 H1290 0.950 . S
C1299 C1298 1.398 . S
C1299 C1300 1.391 . S
C1300 H1288 0.950 . S
C1300 C1296 1.393 . S
C1300 C1299 1.391 . S
C1301 H1291 0.950 . S
C1301 C1302 1.386 . S
C1301 C1303 1.391 . S
C1302 C1301 1.386 . S
C1302 C1306 1.393 . S
C1303 H1292 0.950 . S
C1303 C1301 1.391 . S
C1303 C1304 1.400 . S
C1304 C1298 1.491 . S
C1304 C1303 1.400 . S
C1304 C1305 1.398 . S
C1305 H1293 0.950 . S
C1305 C1304 1.398 . S
C1305 C1306 1.391 . S
C1306 H1294 0.950 . S
C1306 C1302 1.393 . S
C1306 C1305 1.391 . S
H1307 C1315 0.950 . S
H1308 C1320 0.950 . S
H1309 C1317 0.950 . S
H1310 C1319 0.950 . S
H1311 C1321 0.950 . S
H1312 C1323 0.950 . S
H1313 C1325 0.950 . S
H1314 C1326 0.950 . S
C1315 H1307 0.950 . S
C1315 C1316 1.386 . S
C1315 C1317 1.391 . S
C1316 C1315 1.386 . S
C1316 C1320 1.393 . S
C1317 H1309 0.950 . S
C1317 C1315 1.391 . S
C1317 C1318 1.400 . S
C1318 C1317 1.400 . S
C1318 C1319 1.398 . S
C1318 C1324 1.491 . S
C1319 H1310 0.950 . S
C1319 C1318 1.398 . S
C1319 C1320 1.391 . S
C1320 H1308 0.950 . S
C1320 C1316 1.393 . S
C1320 C1319 1.391 . S
C1321 H1311 0.950 . S
C1321 C1322 1.386 . S
C1321 C1323 1.391 . S
C1322 C1321 1.386 . S
C1322 C1326 1.393 . S
C1323 H1312 0.950 . S
C1323 C1321 1.391 . S
C1323 C1324 1.400 . S
C1324 C1318 1.491 . S
C1324 C1323 1.400 . S
C1324 C1325 1.398 . S
C1325 H1313 0.950 . S
C1325 C1324 1.398 . S
C1325 C1326 1.391 . S
C1326 H1314 0.950 . S
C1326 C1322 1.393 . S
C1326 C1325 1.391 . S
H1327 C1335 0.950 . S
H1328 C1340 0.950 . S
H1329 C1337 0.950 . S
H1330 C1339 0.950 . S
H1331 C1341 0.950 . S
H1332 C1343 0.950 . S
H1333 C1345 0.950 . S
H1334 C1346 0.950 . S
C1335 H1327 0.950 . S
C1335 C1336 1.386 . S
C1335 C1337 1.391 . S
C1336 C1335 1.386 . S
C1336 C1340 1.393 . S
C1337 H1329 0.950 . S
C1337 C1335 1.391 . S
C1337 C1338 1.400 . S
C1338 C1337 1.400 . S
C1338 C1339 1.398 . S
C1338 C1344 1.491 . S
C1339 H1330 0.950 . S
C1339 C1338 1.398 . S
C1339 C1340 1.391 . S
C1340 H1328 0.950 . S
C1340 C1336 1.393 . S
C1340 C1339 1.391 . S
C1341 H1331 0.950 . S
C1341 C1342 1.386 . S
C1341 C1343 1.391 . S
C1342 C1341 1.386 . S
C1342 C1346 1.393 . S
C1343 H1332 0.950 . S
C1343 C1341 1.391 . S
C1343 C1344 1.400 . S
C1344 C1338 1.491 . S
C1344 C1343 1.400 . S
C1344 C1345 1.398 . S
C1345 H1333 0.950 . S
C1345 C1344 1.398 . S
C1345 C1346 1.391 . S
C1346 H1334 0.950 . S
C1346 C1342 1.393 . S
C1346 C1345 1.391 . S
H1347 C1355 0.950 . S
H1348 C1360 0.950 . S
H1349 C1357 0.950 . S
H1350 C1359 0.950 . S
H1351 C1361 0.950 . S
H1352 C1363 0.950 . S
H1353 C1365 0.950 . S
H1354 C1366 0.950 . S
C1355 H1347 0.950 . S
C1355 C1356 1.386 . S
C1355 C1357 1.391 . S
C1356 C1355 1.386 . S
C1356 C1360 1.393 . S
C1357 H1349 0.950 . S
C1357 C1355 1.391 . S
C1357 C1358 1.400 . S
C1358 C1357 1.400 . S
C1358 C1359 1.398 . S
C1358 C1364 1.491 . S
C1359 H1350 0.950 . S
C1359 C1358 1.398 . S
C1359 C1360 1.391 . S
C1360 H1348 0.950 . S
C1360 C1356 1.393 . S
C1360 C1359 1.391 . S
C1361 H1351 0.950 . S
C1361 C1362 1.386 . S
C1361 C1363 1.391 . S
C1362 C1361 1.386 . S
C1362 C1366 1.393 . S
C1363 H1352 0.950 . S
C1363 C1361 1.391 . S
C1363 C1364 1.400 . S
C1364 C1358 1.491 . S
C1364 C1363 1.400 . S
C1364 C1365 1.398 . S
C1365 H1353 0.950 . S
C1365 C1364 1.398 . S
C1365 C1366 1.391 . S
C1366 H1354 0.950 . S
C1366 C1362 1.393 . S
C1366 C1365 1.391 . S
H1367 C1375 0.950 . S
H1368 C1380 0.950 . S
H1369 C1377 0.950 . S
H1370 C1379 0.950 . S
H1371 C1381 0.950 . S
H1372 C1383 0.950 . S
H1373 C1385 0.950 . S
H1374 C1386 0.950 . S
C1375 H1367 0.950 . S
C1375 C1376 1.386 . S
C1375 C1377 1.391 . S
C1376 C1375 1.386 . S
C1376 C1380 1.393 . S
C1377 H1369 0.950 . S
C1377 C1375 1.391 . S
C1377 C1378 1.400 . S
C1378 C1377 1.400 . S
C1378 C1379 1.398 . S
C1378 C1384 1.491 . S
C1379 H1370 0.950 . S
C1379 C1378 1.398 . S
C1379 C1380 1.391 . S
C1380 H1368 0.950 . S
C1380 C1376 1.393 . S
C1380 C1379 1.391 . S
C1381 H1371 0.950 . S
C1381 C1382 1.386 . S
C1381 C1383 1.391 . S
C1382 C1381 1.386 . S
C1382 C1386 1.393 . S
C1383 H1372 0.950 . S
C1383 C1381 1.391 . S
C1383 C1384 1.400 . S
C1384 C1378 1.491 . S
C1384 C1383 1.400 . S
C1384 C1385 1.398 . S
C1385 H1373 0.950 . S
C1385 C1384 1.398 . S
C1385 C1386 1.391 . S
C1386 H1374 0.950 . S
C1386 C1382 1.393 . S
C1386 C1385 1.391 . S
H1387 C1395 0.950 . S
H1388 C1400 0.950 . S
H1389 C1397 0.950 . S
H1390 C1399 0.950 . S
H1391 C1401 0.950 . S
H1392 C1403 0.950 . S
H1393 C1405 0.950 . S
H1394 C1406 0.950 . S
C1395 H1387 0.950 . S
C1395 C1396 1.386 . S
C1395 C1397 1.391 . S
C1396 C1395 1.386 . S
C1396 C1400 1.393 . S
C1397 H1389 0.950 . S
C1397 C1395 1.391 . S
C1397 C1398 1.400 . S
C1398 C1397 1.400 . S
C1398 C1399 1.398 . S
C1398 C1404 1.491 . S
C1399 H1390 0.950 . S
C1399 C1398 1.398 . S
C1399 C1400 1.391 . S
C1400 H1388 0.950 . S
C1400 C1396 1.393 . S
C1400 C1399 1.391 . S
C1401 H1391 0.950 . S
C1401 C1402 1.386 . S
C1401 C1403 1.391 . S
C1402 C1401 1.386 . S
C1402 C1406 1.393 . S
C1403 H1392 0.950 . S
C1403 C1401 1.391 . S
C1403 C1404 1.400 . S
C1404 C1398 1.491 . S
C1404 C1403 1.400 . S
C1404 C1405 1.398 . S
C1405 H1393 0.950 . S
C1405 C1404 1.398 . S
C1405 C1406 1.391 . S
C1406 H1394 0.950 . S
C1406 C1402 1.393 . S
C1406 C1405 1.391 . S
H1407 C1415 0.950 . S
H1408 C1420 0.950 . S
H1409 C1417 0.950 . S
H1410 C1419 0.950 . S
H1411 C1421 0.950 . S
H1412 C1423 0.950 . S
H1413 C1425 0.950 . S
H1414 C1426 0.950 . S
C1415 H1407 0.950 . S
C1415 C1416 1.386 . S
C1415 C1417 1.391 . S
C1416 C1415 1.386 . S
C1416 C1420 1.393 . S
C1417 H1409 0.950 . S
C1417 C1415 1.391 . S
C1417 C1418 1.400 . S
C1418 C1417 1.400 . S
C1418 C1419 1.398 . S
C1418 C1424 1.491 . S
C1419 H1410 0.950 . S
C1419 C1418 1.398 . S
C1419 C1420 1.391 . S
C1420 H1408 0.950 . S
C1420 C1416 1.393 . S
C1420 C1419 1.391 . S
C1421 H1411 0.950 . S
C1421 C1422 1.386 . S
C1421 C1423 1.391 . S
C1422 C1421 1.386 . S
C1422 C1426 1.393 . S
C1423 H1412 0.950 . S
C1423 C1421 1.391 . S
C1423 C1424 1.400 . S
C1424 C1418 1.491 . S
C1424 C1423 1.400 . S
C1424 C1425 1.398 . S
C1425 H1413 0.950 . S
C1425 C1424 1.398 . S
C1425 C1426 1.391 . S
C1426 H1414 0.950 . S
C1426 C1422 1.393 . S
C1426 C1425 1.391 . S
H1427 C1435 0.950 . S
H1428 C1440 0.950 . S
H1429 C1437 0.950 . S
H1430 C1439 0.950 . S
H1431 C1441 0.950 . S
H1432 C1443 0.950 . S
H1433 C1445 0.950 . S
H1434 C1446 0.950 . S
C1435 H1427 0.950 . S
C1435 C1436 1.386 . S
C1435 C1437 1.391 . S
C1436 C1435 1.386 . S
C1436 C1440 1.393 . S
C1437 H1429 0.950 . S
C1437 C1435 1.391 . S
C1437 C1438 1.400 . S
C1438 C1437 1.400 . S
C1438 C1439 1.398 . S
C1438 C1444 1.491 . S
C1439 H1430 0.950 . S
C1439 C1438 1.398 . S
C1439 C1440 1.391 . S
C1440 H1428 0.950 . S
C1440 C1436 1.393 . S
C1440 C1439 1.391 . S
C1441 H1431 0.950 . S
C1441 C1442 1.386 . S
C1441 C1443 1.391 . S
C1442 C1441 1.386 . S
C1442 C1446 1.393 . S
C1443 H1432 0.950 . S
C1443 C1441 1.391 . S
C1443 C1444 1.400 . S
C1444 C1438 1.491 . S
C1444 C1443 1.400 . S
C1444 C1445 1.398 . S
C1445 H1433 0.950 . S
C1445 C1444 1.398 . S
C1445 C1446 1.391 . S
C1446 H1434 0.950 . S
C1446 C1442 1.393 . S
C1446 C1445 1.391 . S
H1447 C1455 0.950 . S
H1448 C1460 0.950 . S
H1449 C1457 0.950 . S
H1450 C1459 0.950 . S
H1451 C1461 0.950 . S
H1452 C1463 0.950 . S
H1453 C1465 0.950 . S
H1454 C1466 0.950 . S
C1455 H1447 0.950 . S
C1455 C1456 1.386 . S
C1455 C1457 1.391 . S
C1456 C1455 1.386 . S
C1456 C1460 1.393 . S
C1457 H1449 0.950 . S
C1457 C1455 1.391 . S
C1457 C1458 1.400 . S
C1458 C1457 1.400 . S
C1458 C1459 1.398 . S
C1458 C1464 1.491 . S
C1459 H1450 0.950 . S
C1459 C1458 1.398 . S
C1459 C1460 1.391 . S
C1460 H1448 0.950 . S
C1460 C1456 1.393 . S
C1460 C1459 1.391 . S
C1461 H1451 0.950 . S
C1461 C1462 1.386 . S
C1461 C1463 1.391 . S
C1462 C1461 1.386 . S
C1462 C1466 1.393 . S
C1463 H1452 0.950 . S
C1463 C1461 1.391 . S
C1463 C1464 1.400 . S
C1464 C1458 1.491 . S
C1464 C1463 1.400 . S
C1464 C1465 1.398 . S
C1465 H1453 0.950 . S
C1465 C1464 1.398 . S
C1465 C1466 1.391 . S
C1466 H1454 0.950 . S
C1466 C1462 1.393 . S
C1466 C1465 1.391 . S
C396 C151 1.270 1_556 S
C402 C215 1.305 . S
C416 C159 1.622 . S
C422 C236 1.667 . S
C436 C137 1.279 . S
C442 C258 1.203 . S
C456 C126 1.300 . S
C462 C237 1.173 . S
C482 C257 1.703 . S
C476 C104 1.640 . S
C496 C118 1.234 . S
C502 C216 1.130 . S
C522 C211 1.374 . S
C516 C129 1.415 . S
C542 C232 1.468 . S
C536 C107 1.534 . S
C556 C115 1.118 . S
C562 C255 1.206 . S
C576 C148 1.160 . S
C582 C234 1.236 . S
C596 C162 1.515 . S
C602 C253 1.453 . S
C622 C213 1.238 1_554 S
C616 C140 1.466 . S
C642 C278 1.306 . S
C636 C19 1.274 . S
C656 C27 1.635 . S
C662 C299 1.666 . S
C676 C5 1.283 . S
C682 C321 1.193 . S
C696 C192 1.256 . S
C702 C300 1.212 . S
C716 C170 1.668 . S
C722 C320 1.682 . S
C736 C184 1.250 . S
C742 C279 1.134 . S
C756 C195 1.415 . S
C762 C274 1.359 . S
C776 C173 1.534 . S
C782 C295 1.462 . S
C802 C318 1.209 . S
C796 C181 1.120 . S
C816 C16 1.127 . S
C822 C297 1.216 . S
C842 C316 1.463 . S
C836 C30 1.503 . S
C856 C8 1.466 . S
C862 C276 1.275 . S
C882 C341 1.277 . S
C876 C85 1.276 . S
C896 C93 1.636 . S
C902 C362 1.665 . S
C922 C384 1.221 . S
C916 C71 1.259 . S
C942 C363 1.178 . S
C936 C60 1.280 . S
C962 C383 1.682 . S
C956 C38 1.667 . S
C976 C52 1.214 . S
C982 C342 1.086 . S
C996 C63 1.425 . S
C1002 C337 1.346 . S
C1016 C41 1.520 . S
C1022 C358 1.489 . S
C1042 C381 1.233 . S
C1036 C49 1.162 . S
C1056 C82 1.131 . S
C1062 C360 1.220 . S
C1076 C96 1.513 . S
C1082 C379 1.434 . S
C1096 C74 1.467 . S
C1102 C339 1.246 . S
C1116 C172 1.576 . S
C1122 C214 1.569 . S
C1142 C235 1.316 . S
C1136 C183 1.275 . S
C1156 C194 1.533 . S
C1162 C254 1.488 . S
C1176 C73 1.596 . S
C1182 C233 1.573 . S
C1196 C84 1.277 . S
C1202 C256 1.338 . S
C1222 C212 1.660 . S
C1216 C95 1.677 . S
C1236 C40 1.574 . S
C1242 C277 1.571 . S
C1256 C51 1.263 . S
C1262 C298 1.304 . S
C1276 C62 1.534 . S
C1282 C317 1.488 . S
C1296 C139 1.594 . S
C1302 C296 1.573 . S
C1322 C319 1.335 . S
C1316 C150 1.302 . S
C1336 C161 1.667 . S
C1342 C275 1.671 . S
C1356 C106 1.572 . S
C1362 C340 1.569 . S
C1376 C117 1.270 . S
C1382 C361 1.320 . S
C1402 C380 1.507 . S
C1396 C128 1.518 . S
C1416 C7 1.599 . S
C1422 C359 1.570 . S
C1436 C18 1.281 . S
C1442 C382 1.344 . S
C1456 C29 1.664 . S
C1462 C338 1.676 . S
